# Generated by pormake.
# Topology lon, (4)-cn, num edge types: 1
# Building blocks:
#     Node 0, Type 0, BuildingBlock: CEKHIL_clean_sbu_0, # of connection points: 4
#     Node 1, Type 0, BuildingBlock: CEKHIL_clean_sbu_0, # of connection points: 4
#     Node 2, Type 0, BuildingBlock: CEKHIL_clean_sbu_0, # of connection points: 4
#     Node 3, Type 0, BuildingBlock: CEKHIL_clean_sbu_0, # of connection points: 4
#     Edge 4, Type (0, 0), BuildingBlock: XIVTED_clean_linker_0, # of connection points: 2
#     Edge 5, Type (0, 0), BuildingBlock: XIVTED_clean_linker_0, # of connection points: 2
#     Edge 6, Type (0, 0), BuildingBlock: XIVTED_clean_linker_0, # of connection points: 2
#     Edge 7, Type (0, 0), BuildingBlock: XIVTED_clean_linker_0, # of connection points: 2
#     Edge 8, Type (0, 0), BuildingBlock: XIVTED_clean_linker_0, # of connection points: 2
#     Edge 9, Type (0, 0), BuildingBlock: XIVTED_clean_linker_0, # of connection points: 2
#     Edge 10, Type (0, 0), BuildingBlock: XIVTED_clean_linker_0, # of connection points: 2
#     Edge 11, Type (0, 0), BuildingBlock: XIVTED_clean_linker_0, # of connection points: 2
# Relax obj value: 0.141
# Max RMSD: 0.174
# Mean RMSD: 0.173
data_MOF--net-lon--node1-CEKHIL_clean_sbu_0--edge1-XIVTED_clean_linker_0
_symmetry_space_group_name_H-M    P1
_symmetry_Int_Tables_number       1
_symmetry_cell_setting            triclinic
loop_
_symmetry_equiv_pos_as_xyz
'x, y, z'
_cell_length_a     22.709929
_cell_length_b     24.764859
_cell_length_c     40.688556
_cell_angle_alpha  91.239351
_cell_angle_beta   90.123102
_cell_angle_gamma 117.333
loop_
_atom_site_label
_atom_site_type_symbol
_atom_site_fract_x
_atom_site_fract_y
_atom_site_fract_z
_atom_type_partial_charge
Co0 Co 0.3782 0.70978 0.08271 0.0
O1 O 0.33995 0.73574 0.11887 0.0
O2 O 0.3783 0.66877 0.12252 0.0
C3 C 0.44459 0.80411 0.06414 0.0
O4 O 0.42465 0.67284 0.05376 0.0
Co5 Co 0.36864 0.73247 1.0085 0.0
O6 O 0.43248 0.69972 1.00103 0.0
C7 C 0.25398 0.63401 0.04152 0.0
C8 C 0.35327 0.70032 0.1373 0.0
C9 C 0.44519 0.67289 0.02424 0.0
O10 O 0.28742 0.64251 0.06857 0.0
O11 O 0.27661 0.66779 0.01656 0.0
O12 O 0.46249 0.78393 0.08953 0.0
O13 O 0.38635 0.76902 0.05227 0.0
Co14 Co 0.63967 0.33295 0.58362 0.0
O15 O 0.58252 0.29629 0.62098 0.0
O16 O 0.69114 0.33179 0.62121 0.0
C17 C 0.59317 0.39344 0.56997 0.0
O18 O 0.71766 0.3768 0.55287 0.0
Co19 Co 0.59329 0.32817 0.51106 0.0
O20 O 0.68661 0.38473 0.50154 0.0
C21 C 0.60357 0.22236 0.53856 0.0
C22 C 0.63638 0.30837 0.63758 0.0
C23 C 0.73134 0.39547 0.52322 0.0
O24 O 0.62745 0.25059 0.56633 0.0
O25 O 0.58417 0.24461 0.5153 0.0
O26 O 0.63667 0.40964 0.59377 0.0
O27 O 0.57699 0.3409 0.55649 0.0
Co28 Co 0.31156 0.6773 0.43893 0.0
O29 O 0.29097 0.71444 0.40183 0.0
O30 O 0.36472 0.67973 0.40137 0.0
C31 C 0.20439 0.61581 0.4518 0.0
O32 O 0.3458 0.63334 0.46975 0.0
Co33 Co 0.26812 0.68068 0.51121 0.0
O34 O 0.30508 0.62429 0.5207 0.0
C35 C 0.38461 0.78734 0.48464 0.0
C36 C 0.333 0.70307 0.38515 0.0
C37 C 0.34 0.61423 0.49936 0.0
O38 O 0.38102 0.75957 0.45682 0.0
O39 O 0.34238 0.76455 0.50757 0.0
O40 O 0.23245 0.6004 0.42812 0.0
O41 O 0.24017 0.66819 0.46562 0.0
Co42 Co 0.67344 0.30082 0.94017 0.0
O43 O 0.60867 0.27396 0.90416 0.0
O44 O 0.71388 0.34114 0.90007 0.0
C45 C 0.64602 0.20689 0.95921 0.0
O46 O 0.75705 0.33856 0.96925 0.0
Co47 Co 0.64064 0.27888 0.01437 0.0
O48 O 0.73727 0.31163 0.02196 0.0
C49 C 0.62399 0.37642 0.98053 0.0
C50 C 0.65697 0.30917 0.88551 0.0
C51 C 0.77715 0.33856 0.99892 0.0
O52 O 0.64962 0.36796 0.95379 0.0
O53 O 0.61253 0.34282 1.00561 0.0
O54 O 0.68395 0.22683 0.93381 0.0
O55 O 0.62262 0.2419 0.97075 0.0
H56 H 0.39068 0.63948 0.18107 0.0
H57 H 0.27355 0.75052 0.34335 0.0
H58 H 0.30145 0.75995 0.1769 0.0
H59 H 0.40508 0.66859 0.34378 0.0
H60 H 0.27667 0.75062 0.28292 0.0
H61 H 0.38749 0.64356 0.24091 0.0
C62 C 0.36988 0.66652 0.1927 0.0
C63 C 0.34627 0.69941 0.17374 0.0
C64 C 0.30517 0.73304 0.2963 0.0
C65 C 0.34277 0.70456 0.24287 0.0
C66 C 0.30359 0.73313 0.33082 0.0
C67 C 0.33919 0.70959 0.3488 0.0
C68 C 0.34196 0.70854 0.27959 0.0
C69 C 0.37693 0.68735 0.33112 0.0
C70 C 0.36845 0.66911 0.22701 0.0
C71 C 0.32014 0.73378 0.19046 0.0
N72 N 0.37691 0.687 0.29767 0.0
N73 N 0.319 0.73542 0.22404 0.0
H74 H 0.74406 0.34065 0.67803 0.0
H75 H 0.5437 0.25092 0.84691 0.0
H76 H 0.53093 0.26388 0.68035 0.0
H77 H 0.7543 0.36687 0.84081 0.0
H78 H 0.53621 0.24728 0.78648 0.0
H79 H 0.74703 0.34048 0.73792 0.0
C80 C 0.69767 0.32316 0.69109 0.0
C81 C 0.63712 0.30229 0.67394 0.0
C82 C 0.58394 0.27369 0.79844 0.0
C83 C 0.64027 0.30238 0.74312 0.0
C84 C 0.58825 0.27591 0.83294 0.0
C85 C 0.64973 0.30939 0.84909 0.0
C86 C 0.64165 0.30455 0.7799 0.0
C87 C 0.70579 0.34062 0.8296 0.0
C88 C 0.69948 0.32344 0.72543 0.0
C89 C 0.57876 0.28035 0.69246 0.0
N90 N 0.70043 0.33714 0.79622 0.0
N91 N 0.58175 0.281 0.72602 0.0
H92 H 0.4974 0.62339 0.06781 0.0
H93 H 0.59644 0.43997 0.93234 0.0
H94 H 0.47561 0.64058 0.96367 0.0
H95 H 0.61507 0.43082 0.03743 0.0
H96 H 0.56035 0.51908 0.94165 0.0
H97 H 0.54891 0.55838 0.05567 0.0
C98 C 0.5037 0.61377 0.04232 0.0
C99 C 0.48158 0.63731 0.01678 0.0
C100 C 0.57284 0.49983 0.96255 0.0
C101 C 0.54054 0.56185 1.00252 0.0
C102 C 0.59358 0.45489 0.95724 0.0
C103 C 0.60786 0.42799 0.98412 0.0
C104 C 0.56696 0.51801 0.99493 0.0
C105 C 0.60345 0.44919 0.01588 0.0
C106 C 0.53326 0.57649 0.03535 0.0
C107 C 0.49178 0.6234 0.9842 0.0
N108 N 0.58323 0.49243 0.02032 0.0
N109 N 0.52 0.58614 0.97798 0.0
H110 H 0.10246 0.52177 0.41808 0.0
H111 H 0.84173 0.45254 0.56296 0.0
H112 H 0.15042 0.62265 0.51038 0.0
H113 H 0.78175 0.40984 0.46103 0.0
H114 H 0.95776 0.50172 0.54607 0.0
H115 H 0.98662 0.46557 0.43566 0.0
C116 C 0.08882 0.53152 0.44215 0.0
C117 C 0.13597 0.57703 0.46275 0.0
C118 C 0.9191 0.48162 0.52743 0.0
C119 C 1.00435 0.51316 0.48298 0.0
C120 C 0.85289 0.45356 0.53704 0.0
C121 C 0.80182 0.42741 0.51338 0.0
C122 C 0.93455 0.48268 0.49396 0.0
C123 C 0.81941 0.42998 0.48011 0.0
C124 C 0.02279 0.49983 0.45206 0.0
C125 C 0.11564 0.58817 0.49363 0.0
N126 N 0.88428 0.45683 0.4714 0.0
N127 N 0.05149 0.55644 0.50282 0.0
H128 H 0.63615 0.10225 0.92997 0.0
H129 H 0.53817 0.90905 0.09389 0.0
H130 H 0.62023 0.17879 0.02371 0.0
H131 H 0.44828 0.8323 0.99958 0.0
H132 H 0.5991 0.00882 0.0684 0.0
H133 H 0.59741 1.00266 0.95562 0.0
C134 C 0.62567 0.09832 0.95601 0.0
C135 C 0.6308 0.14855 0.97471 0.0
C136 C 0.56663 0.96976 0.05332 0.0
C137 C 0.58787 0.03578 1.00413 0.0
C138 C 0.53221 0.91298 0.06776 0.0
C139 C 0.4878 0.86262 0.04884 0.0
C140 C 0.55774 0.97557 0.01962 0.0
C141 C 0.48153 0.87013 0.01511 0.0
C142 C 0.60336 0.04163 0.97055 0.0
C143 C 0.61629 0.14104 1.00835 0.0
N144 N 0.51614 0.92551 1.00155 0.0
N145 N 0.59557 0.08574 0.02201 0.0
H146 H 0.5351 0.38656 0.51042 0.0
H147 H 0.37286 0.59869 0.56204 0.0
H148 H 0.58175 0.48609 0.60311 0.0
H149 H 0.39666 0.55902 0.46052 0.0
H150 H 0.4402 0.54999 0.57879 0.0
H151 H 0.47664 0.44273 0.49272 0.0
C152 C 0.53348 0.42062 0.527 0.0
C153 C 0.56335 0.43169 0.55833 0.0
C154 C 0.43077 0.55211 0.55287 0.0
C155 C 0.49524 0.49542 0.53836 0.0
C156 C 0.39185 0.57942 0.54324 0.0
C157 C 0.3787 0.58272 0.50976 0.0
C158 C 0.45594 0.52694 0.52893 0.0
C159 C 0.40539 0.5575 0.48658 0.0
C160 C 0.50011 0.45272 0.51682 0.0
C161 C 0.55965 0.4764 0.57872 0.0
N162 N 0.44228 0.53028 0.4966 0.0
N163 N 0.52542 0.50618 0.56854 0.0
H164 H 0.19432 0.57731 0.98432 0.0
H165 H 0.83866 0.36752 0.05991 0.0
H166 H 0.15968 0.57227 0.08873 0.0
H167 H 0.88 0.39196 0.95625 0.0
H168 H 0.95652 0.43316 0.07213 0.0
H169 H 0.08117 0.50004 0.97514 0.0
C170 C 0.16282 0.55983 1.00547 0.0
C171 C 0.18651 0.5822 0.03737 0.0
C172 C 0.93972 0.42375 0.04675 0.0
C173 C 0.05523 0.49279 0.02683 0.0
C174 C 0.87244 0.38614 0.03969 0.0
C175 C 0.84902 0.37431 1.00692 0.0
C176 C 0.984 0.44947 0.02087 0.0
C177 C 0.89531 0.3999 0.98185 0.0
C178 C 0.09789 0.51542 1.00014 0.0
C179 C 0.14342 0.55656 0.06373 0.0
N180 N 0.96022 0.43624 0.98937 0.0
N181 N 0.07945 0.51355 0.05785 0.0
H182 H 0.6123 0.17371 0.47959 0.0
H183 H 0.43899 0.83587 0.54425 0.0
H184 H 0.57625 0.12975 0.58199 0.0
H185 H 0.45291 0.87997 0.44163 0.0
H186 H 0.51138 0.94224 0.5583 0.0
H187 H 0.5773 0.06705 0.46587 0.0
C188 C 0.59788 0.14159 0.49932 0.0
C189 C 0.59596 0.16046 0.53198 0.0
C190 C 0.49948 0.92875 0.53267 0.0
C191 C 0.55518 0.03776 0.51624 0.0
C192 C 0.45808 0.86795 0.52455 0.0
C193 C 0.43879 0.8492 0.4917 0.0
C194 C 0.5217 0.97161 0.50782 0.0
C195 C 0.46614 0.8925 0.46725 0.0
C196 C 0.57786 0.08063 0.4914 0.0
C197 C 0.5781 0.11711 0.55652 0.0
N198 N 0.50541 0.952 0.47587 0.0
N199 N 0.55728 0.05748 0.54807 0.0
loop_
_geom_bond_atom_site_label_1
_geom_bond_atom_site_label_2
_geom_bond_distance
_geom_bond_site_symmetry_2
_ccdc_geom_bond_type
Co0 O1 2.216 . S
Co0 O2 2.091 . S
Co0 O4 2.004 . S
Co0 O10 2.021 . S
Co0 O12 2.137 . S
Co0 O13 2.244 . S
O1 Co0 2.216 . S
O1 C8 1.247 . S
O2 Co0 2.091 . S
O2 C8 1.261 . S
C3 O12 1.247 . S
C3 O13 1.272 . S
O4 Co0 2.004 . S
O4 C9 1.259 . S
Co5 O6 2.061 1_556 S
Co5 O11 2.052 1_556 S
Co5 O13 2.135 1_556 S
O6 Co5 2.061 1_554 S
O6 C9 1.235 . S
C7 O10 1.238 . S
C7 O11 1.241 . S
C8 O1 1.247 . S
C8 O2 1.261 . S
C9 O4 1.259 . S
C9 O6 1.235 . S
O10 Co0 2.021 . S
O10 C7 1.238 . S
O11 Co5 2.052 1_554 S
O11 C7 1.241 . S
O12 Co0 2.137 . S
O12 C3 1.247 . S
O13 Co0 2.244 . S
O13 C3 1.272 . S
O13 Co5 2.135 1_554 S
Co14 O15 2.216 . S
Co14 O16 2.091 . S
Co14 O18 2.004 . S
Co14 O24 2.021 . S
Co14 O26 2.137 . S
Co14 O27 2.244 . S
O15 Co14 2.216 . S
O15 C22 1.247 . S
O16 Co14 2.091 . S
O16 C22 1.261 . S
C17 O26 1.247 . S
C17 O27 1.272 . S
O18 Co14 2.004 . S
O18 C23 1.259 . S
Co19 O20 2.061 . S
Co19 O25 2.052 . S
Co19 O27 2.135 . S
O20 Co19 2.061 . S
O20 C23 1.235 . S
C21 O24 1.238 . S
C21 O25 1.241 . S
C22 O15 1.247 . S
C22 O16 1.261 . S
C23 O18 1.259 . S
C23 O20 1.235 . S
O24 Co14 2.021 . S
O24 C21 1.238 . S
O25 Co19 2.052 . S
O25 C21 1.241 . S
O26 Co14 2.137 . S
O26 C17 1.247 . S
O27 Co14 2.244 . S
O27 C17 1.272 . S
O27 Co19 2.135 . S
Co28 O29 2.216 . S
Co28 O30 2.091 . S
Co28 O32 2.004 . S
Co28 O38 2.021 . S
Co28 O40 2.137 . S
Co28 O41 2.244 . S
O29 Co28 2.216 . S
O29 C36 1.247 . S
O30 Co28 2.091 . S
O30 C36 1.261 . S
C31 O40 1.247 . S
C31 O41 1.272 . S
O32 Co28 2.004 . S
O32 C37 1.259 . S
Co33 O34 2.061 . S
Co33 O39 2.052 . S
Co33 O41 2.135 . S
O34 Co33 2.061 . S
O34 C37 1.235 . S
C35 O38 1.238 . S
C35 O39 1.241 . S
C36 O29 1.247 . S
C36 O30 1.261 . S
C37 O32 1.259 . S
C37 O34 1.235 . S
O38 Co28 2.021 . S
O38 C35 1.238 . S
O39 Co33 2.052 . S
O39 C35 1.241 . S
O40 Co28 2.137 . S
O40 C31 1.247 . S
O41 Co28 2.244 . S
O41 C31 1.272 . S
O41 Co33 2.135 . S
Co42 O43 2.216 . S
Co42 O44 2.091 . S
Co42 O46 2.004 . S
Co42 O52 2.021 . S
Co42 O54 2.137 . S
Co42 O55 2.244 . S
O43 Co42 2.216 . S
O43 C50 1.247 . S
O44 Co42 2.091 . S
O44 C50 1.261 . S
C45 O54 1.247 . S
C45 O55 1.272 . S
O46 Co42 2.004 . S
O46 C51 1.259 . S
Co47 O48 2.061 1_554 S
Co47 O53 2.052 1_554 S
Co47 O55 2.135 1_554 S
O48 Co47 2.061 1_556 S
O48 C51 1.235 . S
C49 O52 1.238 . S
C49 O53 1.241 . S
C50 O43 1.247 . S
C50 O44 1.261 . S
C51 O46 1.259 . S
C51 O48 1.235 . S
O52 Co42 2.021 . S
O52 C49 1.238 . S
O53 Co47 2.052 1_556 S
O53 C49 1.241 . S
O54 Co42 2.137 . S
O54 C45 1.247 . S
O55 Co42 2.244 . S
O55 C45 1.272 . S
O55 Co47 2.135 1_556 S
H56 C62 0.930 . S
H57 C66 0.930 . S
H58 C71 0.929 . S
H59 C69 0.929 . S
H60 C64 0.929 . S
H61 C70 0.929 . S
C62 H56 0.930 . S
C62 C63 1.367 . S
C62 C70 1.378 . S
C63 C62 1.367 . S
C63 C71 1.433 . S
C64 H60 0.929 . S
C64 C66 1.378 . S
C64 C68 1.350 . S
C65 C68 1.463 . S
C65 C70 1.350 . S
C65 N73 1.427 . S
C66 H57 0.930 . S
C66 C64 1.378 . S
C66 C67 1.367 . S
C67 C66 1.367 . S
C67 C69 1.433 . S
C68 C64 1.350 . S
C68 C65 1.463 . S
C68 N72 1.427 . S
C69 H59 0.929 . S
C69 C67 1.433 . S
C69 N72 1.384 . S
C70 H61 0.929 . S
C70 C62 1.378 . S
C70 C65 1.350 . S
C71 H58 0.929 . S
C71 C63 1.433 . S
C71 N73 1.384 . S
N72 C68 1.427 . S
N72 C69 1.384 . S
N73 C65 1.427 . S
N73 C71 1.384 . S
H74 C80 0.930 . S
H75 C84 0.930 . S
H76 C89 0.929 . S
H77 C87 0.929 . S
H78 C82 0.929 . S
H79 C88 0.929 . S
C80 H74 0.930 . S
C80 C81 1.367 . S
C80 C88 1.378 . S
C81 C80 1.367 . S
C81 C89 1.433 . S
C82 H78 0.929 . S
C82 C84 1.378 . S
C82 C86 1.350 . S
C83 C86 1.463 . S
C83 C88 1.350 . S
C83 N91 1.427 . S
C84 H75 0.930 . S
C84 C82 1.378 . S
C84 C85 1.367 . S
C85 C84 1.367 . S
C85 C87 1.433 . S
C86 C82 1.350 . S
C86 C83 1.463 . S
C86 N90 1.427 . S
C87 H77 0.929 . S
C87 C85 1.433 . S
C87 N90 1.384 . S
C88 H79 0.929 . S
C88 C80 1.378 . S
C88 C83 1.350 . S
C89 H76 0.929 . S
C89 C81 1.433 . S
C89 N91 1.384 . S
N90 C86 1.427 . S
N90 C87 1.384 . S
N91 C83 1.427 . S
N91 C89 1.384 . S
H92 C98 0.930 . S
H93 C102 0.930 . S
H94 C107 0.929 . S
H95 C105 0.929 1_554 S
H96 C100 0.929 . S
H97 C106 0.929 . S
C98 H92 0.930 . S
C98 C99 1.367 . S
C98 C106 1.378 . S
C99 C98 1.367 . S
C99 C107 1.433 1_554 S
C100 H96 0.929 . S
C100 C102 1.378 . S
C100 C104 1.350 . S
C101 C104 1.463 . S
C101 C106 1.350 1_556 S
C101 N109 1.427 . S
C102 H93 0.930 . S
C102 C100 1.378 . S
C102 C103 1.367 . S
C103 C102 1.367 . S
C103 C105 1.433 . S
C104 C100 1.350 . S
C104 C101 1.463 . S
C104 N108 1.427 1_556 S
C105 H95 0.929 1_556 S
C105 C103 1.433 . S
C105 N108 1.384 1_556 S
C106 H97 0.929 . S
C106 C98 1.378 . S
C106 C101 1.350 1_554 S
C107 H94 0.929 . S
C107 C99 1.433 1_556 S
C107 N109 1.384 . S
N108 C104 1.427 1_554 S
N108 C105 1.384 1_554 S
N109 C101 1.427 . S
N109 C107 1.384 . S
H110 C116 0.930 . S
H111 C120 0.930 . S
H112 C125 0.929 . S
H113 C123 0.929 . S
H114 C118 0.929 . S
H115 C124 0.929 . S
C116 H110 0.930 . S
C116 C117 1.367 . S
C116 C124 1.378 . S
C117 C116 1.367 . S
C117 C125 1.433 . S
C118 H114 0.929 . S
C118 C120 1.378 . S
C118 C122 1.350 . S
C119 C122 1.463 1_455 S
C119 C124 1.350 . S
C119 N127 1.427 . S
C120 H111 0.930 . S
C120 C118 1.378 . S
C120 C121 1.367 . S
C121 C120 1.367 . S
C121 C123 1.433 . S
C122 C118 1.350 . S
C122 C119 1.463 1_655 S
C122 N126 1.427 . S
C123 H113 0.929 . S
C123 C121 1.433 . S
C123 N126 1.384 . S
C124 H115 0.929 . S
C124 C116 1.378 . S
C124 C119 1.350 . S
C125 H112 0.929 . S
C125 C117 1.433 . S
C125 N127 1.384 . S
N126 C122 1.427 . S
N126 C123 1.384 . S
N127 C119 1.427 . S
N127 C125 1.384 . S
H128 C134 0.930 . S
H129 C138 0.930 . S
H130 C143 0.929 1_554 S
H131 C141 0.929 1_556 S
H132 C136 0.929 . S
H133 C142 0.929 . S
C134 H128 0.930 . S
C134 C135 1.367 . S
C134 C142 1.378 . S
C135 C134 1.367 . S
C135 C143 1.433 . S
C136 H132 0.929 . S
C136 C138 1.378 . S
C136 C140 1.350 . S
C137 C140 1.463 1_546 S
C137 C142 1.350 . S
C137 N145 1.427 1_556 S
C138 H129 0.930 . S
C138 C136 1.378 . S
C138 C139 1.367 . S
C139 C138 1.367 . S
C139 C141 1.433 . S
C140 C136 1.350 . S
C140 C137 1.463 1_564 S
C140 N144 1.427 1_554 S
C141 H131 0.929 1_554 S
C141 C139 1.433 . S
C141 N144 1.384 1_554 S
C142 H133 0.929 . S
C142 C134 1.378 . S
C142 C137 1.350 . S
C143 H130 0.929 1_556 S
C143 C135 1.433 . S
C143 N145 1.384 1_556 S
N144 C140 1.427 1_556 S
N144 C141 1.384 1_556 S
N145 C137 1.427 1_554 S
N145 C143 1.384 1_554 S
H146 C152 0.930 . S
H147 C156 0.930 . S
H148 C161 0.929 . S
H149 C159 0.929 . S
H150 C154 0.929 . S
H151 C160 0.929 . S
C152 H146 0.930 . S
C152 C153 1.367 . S
C152 C160 1.378 . S
C153 C152 1.367 . S
C153 C161 1.433 . S
C154 H150 0.929 . S
C154 C156 1.378 . S
C154 C158 1.350 . S
C155 C158 1.463 . S
C155 C160 1.350 . S
C155 N163 1.427 . S
C156 H147 0.930 . S
C156 C154 1.378 . S
C156 C157 1.367 . S
C157 C156 1.367 . S
C157 C159 1.433 . S
C158 C154 1.350 . S
C158 C155 1.463 . S
C158 N162 1.427 . S
C159 H149 0.929 . S
C159 C157 1.433 . S
C159 N162 1.384 . S
C160 H151 0.929 . S
C160 C152 1.378 . S
C160 C155 1.350 . S
C161 H148 0.929 . S
C161 C153 1.433 . S
C161 N163 1.384 . S
N162 C158 1.427 . S
N162 C159 1.384 . S
N163 C155 1.427 . S
N163 C161 1.384 . S
H164 C170 0.930 1_556 S
H165 C174 0.930 . S
H166 C179 0.929 . S
H167 C177 0.929 . S
H168 C172 0.929 . S
H169 C178 0.929 . S
C170 H164 0.930 1_554 S
C170 C171 1.367 . S
C170 C178 1.378 1_554 S
C171 C170 1.367 . S
C171 C179 1.433 . S
C172 H168 0.929 . S
C172 C174 1.378 . S
C172 C176 1.350 . S
C173 C176 1.463 1_455 S
C173 C178 1.350 1_554 S
C173 N181 1.427 . S
C174 H165 0.930 . S
C174 C172 1.378 . S
C174 C175 1.367 1_554 S
C175 C174 1.367 1_556 S
C175 C177 1.433 . S
C176 C172 1.350 . S
C176 C173 1.463 1_655 S
C176 N180 1.427 1_554 S
C177 H167 0.929 . S
C177 C175 1.433 . S
C177 N180 1.384 . S
C178 H169 0.929 . S
C178 C170 1.378 1_556 S
C178 C173 1.350 1_556 S
C179 H166 0.929 . S
C179 C171 1.433 . S
C179 N181 1.384 . S
N180 C176 1.427 1_556 S
N180 C177 1.384 . S
N181 C173 1.427 . S
N181 C179 1.384 . S
H182 C188 0.930 . S
H183 C192 0.930 . S
H184 C197 0.929 . S
H185 C195 0.929 . S
H186 C190 0.929 . S
H187 C196 0.929 . S
C188 H182 0.930 . S
C188 C189 1.367 . S
C188 C196 1.378 . S
C189 C188 1.367 . S
C189 C197 1.433 . S
C190 H186 0.929 . S
C190 C192 1.378 . S
C190 C194 1.350 . S
C191 C194 1.463 1_545 S
C191 C196 1.350 . S
C191 N199 1.427 . S
C192 H183 0.930 . S
C192 C190 1.378 . S
C192 C193 1.367 . S
C193 C192 1.367 . S
C193 C195 1.433 . S
C194 C190 1.350 . S
C194 C191 1.463 1_565 S
C194 N198 1.427 . S
C195 H185 0.929 . S
C195 C193 1.433 . S
C195 N198 1.384 . S
C196 H187 0.929 . S
C196 C188 1.378 . S
C196 C191 1.350 . S
C197 H184 0.929 . S
C197 C189 1.433 . S
C197 N199 1.384 . S
N198 C194 1.427 . S
N198 C195 1.384 . S
N199 C191 1.427 . S
N199 C197 1.384 . S
C63 C8 1.565 . S
C67 C36 1.571 . S
C81 C22 1.568 . S
C85 C50 1.569 . S
C99 C9 1.543 . S
C103 C49 1.508 . S
C117 C31 1.568 . S
C121 C23 1.563 . S
C135 C45 1.589 . S
C139 C3 1.588 . S
C153 C17 1.568 . S
C157 C37 1.563 . S
C171 C7 1.497 . S
C175 C51 1.541 . S
C189 C21 1.465 . S
C193 C35 1.461 . S
