# Generated by pormake.
# Topology umh, (4)-cn, num edge types: 1
# Building blocks:
#     Node 0, Type 0, BuildingBlock: NAWXER_clean_sbu_0, # of connection points: 4
#     Node 1, Type 0, BuildingBlock: NAWXER_clean_sbu_0, # of connection points: 4
#     Node 2, Type 0, BuildingBlock: NAWXER_clean_sbu_0, # of connection points: 4
#     Node 3, Type 0, BuildingBlock: NAWXER_clean_sbu_0, # of connection points: 4
#     Node 4, Type 0, BuildingBlock: NAWXER_clean_sbu_0, # of connection points: 4
#     Node 5, Type 0, BuildingBlock: NAWXER_clean_sbu_0, # of connection points: 4
#     Node 6, Type 0, BuildingBlock: NAWXER_clean_sbu_0, # of connection points: 4
#     Node 7, Type 0, BuildingBlock: NAWXER_clean_sbu_0, # of connection points: 4
#     Node 8, Type 0, BuildingBlock: NAWXER_clean_sbu_0, # of connection points: 4
#     Node 9, Type 0, BuildingBlock: NAWXER_clean_sbu_0, # of connection points: 4
#     Node 10, Type 0, BuildingBlock: NAWXER_clean_sbu_0, # of connection points: 4
#     Node 11, Type 0, BuildingBlock: NAWXER_clean_sbu_0, # of connection points: 4
#     Node 12, Type 0, BuildingBlock: NAWXER_clean_sbu_0, # of connection points: 4
#     Node 13, Type 0, BuildingBlock: NAWXER_clean_sbu_0, # of connection points: 4
#     Node 14, Type 0, BuildingBlock: NAWXER_clean_sbu_0, # of connection points: 4
#     Node 15, Type 0, BuildingBlock: NAWXER_clean_sbu_0, # of connection points: 4
#     Edge 16, Type (0, 0), None
#     Edge 17, Type (0, 0), None
#     Edge 18, Type (0, 0), None
#     Edge 19, Type (0, 0), None
#     Edge 20, Type (0, 0), None
#     Edge 21, Type (0, 0), None
#     Edge 22, Type (0, 0), None
#     Edge 23, Type (0, 0), None
#     Edge 24, Type (0, 0), None
#     Edge 25, Type (0, 0), None
#     Edge 26, Type (0, 0), None
#     Edge 27, Type (0, 0), None
#     Edge 28, Type (0, 0), None
#     Edge 29, Type (0, 0), None
#     Edge 30, Type (0, 0), None
#     Edge 31, Type (0, 0), None
#     Edge 32, Type (0, 0), None
#     Edge 33, Type (0, 0), None
#     Edge 34, Type (0, 0), None
#     Edge 35, Type (0, 0), None
#     Edge 36, Type (0, 0), None
#     Edge 37, Type (0, 0), None
#     Edge 38, Type (0, 0), None
#     Edge 39, Type (0, 0), None
#     Edge 40, Type (0, 0), None
#     Edge 41, Type (0, 0), None
#     Edge 42, Type (0, 0), None
#     Edge 43, Type (0, 0), None
#     Edge 44, Type (0, 0), None
#     Edge 45, Type (0, 0), None
#     Edge 46, Type (0, 0), None
#     Edge 47, Type (0, 0), None
# Relax obj value: 0.044
# Max RMSD: 0.109
# Mean RMSD: 0.109
data_MOF--net-umh--node1-NAWXER_clean_sbu_0--edge1-none
_symmetry_space_group_name_H-M    P1
_symmetry_Int_Tables_number       1
_symmetry_cell_setting            triclinic
loop_
_symmetry_equiv_pos_as_xyz
'x, y, z'
_cell_length_a     18.151971
_cell_length_b     18.151684
_cell_length_c     22.373217
_cell_angle_alpha  90.001587
_cell_angle_beta   90.000234
_cell_angle_gamma 89.99996
loop_
_atom_site_label
_atom_site_type_symbol
_atom_site_fract_x
_atom_site_fract_y
_atom_site_fract_z
_atom_type_partial_charge
C0 C 0.36545 0.10982 0.08282 0.0
C1 C 0.27367 0.01879 0.27703 0.0
O2 O 0.39516 0.14111 0.12791 0.0
Zn3 Zn 0.38832 0.13666 0.22235 0.0
O4 O 0.31683 0.06013 0.09084 0.0
Zn5 Zn 0.31445 0.05857 0.17795 0.0
O6 O 0.26161 0.15831 0.19824 0.0
O7 O 0.34315 0.23309 0.23895 0.0
O8 O 0.25254 0.99406 0.22648 0.0
O9 O 0.32249 0.06957 0.27915 0.0
O10 O 0.48963 0.10349 0.24423 0.0
O11 O 0.42032 0.02021 0.19899 0.0
C12 C 0.27727 0.22009 0.22194 0.0
C13 C 0.48148 0.03877 0.22296 0.0
C14 C 0.47889 0.27369 0.77703 0.0
C15 C 0.38781 0.36545 0.58282 0.0
O16 O 0.4281 0.32249 0.77914 0.0
Zn17 Zn 0.36099 0.38832 0.72235 0.0
O18 O 0.50359 0.25254 0.72647 0.0
Zn19 Zn 0.43908 0.31445 0.67794 0.0
O20 O 0.47743 0.42032 0.69898 0.0
O21 O 0.39416 0.48963 0.74423 0.0
O22 O 0.4375 0.31683 0.59083 0.0
O23 O 0.35653 0.39516 0.62791 0.0
O24 O 0.26456 0.34314 0.73895 0.0
O25 O 0.33934 0.26161 0.69824 0.0
C26 C 0.45887 0.48148 0.72296 0.0
C27 C 0.27756 0.27726 0.72194 0.0
C28 C 0.22396 0.47892 0.27703 0.0
C29 C 0.1322 0.38783 0.08282 0.0
O30 O 0.17517 0.42812 0.27914 0.0
Zn31 Zn 0.10935 0.361 0.22235 0.0
O32 O 0.2451 0.50362 0.22647 0.0
Zn33 Zn 0.1832 0.4391 0.17794 0.0
O34 O 0.07733 0.47744 0.19898 0.0
O35 O 0.00803 0.39417 0.24423 0.0
O36 O 0.18082 0.43752 0.09083 0.0
O37 O 0.1025 0.35654 0.12791 0.0
O38 O 0.15453 0.26458 0.23895 0.0
O39 O 0.23605 0.33937 0.19824 0.0
C40 C 0.01617 0.45888 0.22296 0.0
C41 C 0.22041 0.27759 0.22194 0.0
C42 C 0.03876 0.01618 0.72296 0.0
C43 C 0.22006 0.2204 0.72194 0.0
O44 O 0.0202 0.07734 0.69898 0.0
Zn45 Zn 0.05855 0.18321 0.67795 0.0
O46 O 0.10346 0.00804 0.74424 0.0
Zn47 Zn 0.13664 0.10935 0.72235 0.0
O48 O 0.06952 0.17518 0.77914 0.0
O49 O 0.99403 0.24511 0.72647 0.0
O50 O 0.23306 0.15453 0.73896 0.0
O51 O 0.15828 0.23606 0.69824 0.0
O52 O 0.06012 0.18082 0.59083 0.0
O53 O 0.1411 0.1025 0.62791 0.0
C54 C 0.01872 0.22397 0.77703 0.0
C55 C 0.10981 0.1322 0.58283 0.0
C56 C 0.27372 0.47894 0.32804 0.0
C57 C 0.36542 0.38784 0.52223 0.0
O58 O 0.3225 0.42813 0.32591 0.0
Zn59 Zn 0.3883 0.361 0.38271 0.0
O60 O 0.25251 0.50363 0.37859 0.0
Zn61 Zn 0.31442 0.4391 0.42711 0.0
O62 O 0.4203 0.47744 0.40608 0.0
O63 O 0.48961 0.39417 0.36084 0.0
O64 O 0.3168 0.43752 0.51423 0.0
O65 O 0.39513 0.35655 0.47714 0.0
O66 O 0.34311 0.26458 0.3661 0.0
O67 O 0.26158 0.33936 0.4068 0.0
C68 C 0.48146 0.45888 0.38211 0.0
C69 C 0.27723 0.27758 0.38311 0.0
C70 C 0.03877 0.48147 0.88211 0.0
C71 C 0.22006 0.27723 0.88311 0.0
O72 O 0.0202 0.4203 0.90608 0.0
Zn73 Zn 0.05855 0.31442 0.92711 0.0
O74 O 0.10348 0.48962 0.86084 0.0
Zn75 Zn 0.13664 0.3883 0.88271 0.0
O76 O 0.06951 0.32251 0.82591 0.0
O77 O 0.99402 0.25252 0.87859 0.0
O78 O 0.23306 0.34311 0.8661 0.0
O79 O 0.15828 0.26158 0.90681 0.0
O80 O 0.06013 0.31681 1.01423 0.0
O81 O 0.1411 0.39514 0.97715 0.0
C82 C 0.0187 0.27373 0.82804 0.0
C83 C 0.10981 0.36543 1.02224 0.0
C84 C 0.01616 0.03876 0.38211 0.0
C85 C 0.22038 0.22008 0.38311 0.0
O86 O 0.07733 0.0202 0.40608 0.0
Zn87 Zn 0.18321 0.05856 0.42711 0.0
O88 O 0.00801 0.10348 0.36085 0.0
Zn89 Zn 0.10932 0.13665 0.38271 0.0
O90 O 0.17511 0.06952 0.32591 0.0
O91 O 0.24512 0.99404 0.37858 0.0
O92 O 0.15449 0.23308 0.3661 0.0
O93 O 0.23604 0.1583 0.4068 0.0
O94 O 0.18083 0.06013 0.51423 0.0
O95 O 0.10249 0.1411 0.47715 0.0
C96 C 0.2239 0.01872 0.32804 0.0
C97 C 0.1322 0.10982 0.52224 0.0
C98 C 0.27756 0.22037 0.88311 0.0
C99 C 0.45888 0.01616 0.8821 0.0
O100 O 0.33934 0.23603 0.9068 0.0
Zn101 Zn 0.43908 0.1832 0.9271 0.0
O102 O 0.26455 0.15448 0.86611 0.0
Zn103 Zn 0.36098 0.10931 0.88271 0.0
O104 O 0.35654 0.10248 0.97715 0.0
O105 O 0.43751 0.18083 1.01422 0.0
O106 O 0.39417 0.008 0.86084 0.0
O107 O 0.47744 0.07733 0.90607 0.0
O108 O 0.50359 0.24512 0.87857 0.0
O109 O 0.42809 0.17511 0.8259 0.0
C110 C 0.38783 0.1322 1.02223 0.0
C111 C 0.47887 0.22392 0.82803 0.0
C112 C 0.6322 0.88783 1.02224 0.0
C113 C 0.72396 0.97892 0.82805 0.0
O114 O 0.68082 0.93752 1.01424 0.0
Zn115 Zn 0.6832 0.93909 0.92713 0.0
O116 O 0.6025 0.85653 0.97715 0.0
Zn117 Zn 0.60935 0.861 0.88272 0.0
O118 O 0.65453 0.76457 0.86611 0.0
O119 O 0.73606 0.83936 0.90683 0.0
O120 O 0.67518 0.92812 0.82593 0.0
O121 O 0.7451 0.00362 0.87861 0.0
O122 O 0.57733 0.97744 0.90609 0.0
O123 O 0.50804 0.89416 0.86083 0.0
C124 C 0.72041 0.77758 0.88313 0.0
C125 C 0.51617 0.95887 0.88211 0.0
C126 C 0.60981 0.63221 0.52225 0.0
C127 C 0.51873 0.72396 0.32804 0.0
O128 O 0.56012 0.68083 0.51424 0.0
Zn129 Zn 0.55855 0.6832 0.42712 0.0
O130 O 0.6411 0.60249 0.47716 0.0
Zn131 Zn 0.63664 0.60933 0.38272 0.0
O132 O 0.73306 0.65451 0.36612 0.0
O133 O 0.65828 0.73605 0.40683 0.0
O134 O 0.56952 0.67516 0.32593 0.0
O135 O 0.49403 0.74511 0.3786 0.0
O136 O 0.52019 0.57734 0.40609 0.0
O137 O 0.60346 0.50802 0.36084 0.0
C138 C 0.72006 0.72039 0.38313 0.0
C139 C 0.53875 0.51617 0.38211 0.0
C140 C 0.77727 0.72007 0.88313 0.0
C141 C 0.98148 0.53876 0.88211 0.0
O142 O 0.84314 0.73308 0.86612 0.0
Zn143 Zn 0.88832 0.63665 0.88272 0.0
O144 O 0.76161 0.6583 0.90683 0.0
Zn145 Zn 0.81445 0.55856 0.92712 0.0
O146 O 0.81683 0.56013 1.01424 0.0
O147 O 0.89516 0.64111 0.97716 0.0
O148 O 0.92031 0.5202 0.90609 0.0
O149 O 0.98962 0.60347 0.86084 0.0
O150 O 0.82248 0.56953 0.82593 0.0
O151 O 0.75254 0.49405 0.87859 0.0
C152 C 0.86545 0.60982 1.02225 0.0
C153 C 0.77369 0.51874 0.82804 0.0
C154 C 0.77757 0.77725 0.38313 0.0
C155 C 0.95887 0.98148 0.38212 0.0
O156 O 0.76456 0.84313 0.36612 0.0
Zn157 Zn 0.86099 0.88831 0.38273 0.0
O158 O 0.83934 0.7616 0.40683 0.0
Zn159 Zn 0.93908 0.81444 0.42713 0.0
O160 O 0.93751 0.81683 0.51424 0.0
O161 O 0.85653 0.89516 0.47716 0.0
O162 O 0.97743 0.92031 0.4061 0.0
O163 O 0.89416 0.98962 0.36084 0.0
O164 O 0.92811 0.82248 0.32594 0.0
O165 O 0.0036 0.75254 0.3786 0.0
C166 C 0.88781 0.86545 0.52225 0.0
C167 C 0.9789 0.77369 0.32805 0.0
C168 C 0.72391 0.51877 0.77703 0.0
C169 C 0.6322 0.60982 0.58284 0.0
O170 O 0.74511 0.49406 0.72649 0.0
Zn171 Zn 0.6832 0.55857 0.67797 0.0
O172 O 0.67511 0.56956 0.77916 0.0
Zn173 Zn 0.60931 0.63667 0.72236 0.0
O174 O 0.508 0.60349 0.74423 0.0
O175 O 0.57733 0.52022 0.69899 0.0
O176 O 0.60248 0.64111 0.62792 0.0
O177 O 0.68082 0.56014 0.59085 0.0
O178 O 0.73603 0.65831 0.69827 0.0
O179 O 0.65449 0.73309 0.73896 0.0
C180 C 0.51615 0.53878 0.72296 0.0
C181 C 0.72038 0.72009 0.72196 0.0
C182 C 0.97888 0.72391 0.27704 0.0
C183 C 0.88783 0.6322 0.08284 0.0
O184 O 0.0036 0.74512 0.2265 0.0
Zn185 Zn 0.93908 0.68321 0.17797 0.0
O186 O 0.9281 0.67511 0.27916 0.0
Zn187 Zn 0.86098 0.60932 0.22235 0.0
O188 O 0.89416 0.508 0.24422 0.0
O189 O 0.97744 0.57733 0.199 0.0
O190 O 0.85654 0.60249 0.12792 0.0
O191 O 0.93752 0.68083 0.09085 0.0
O192 O 0.83935 0.73604 0.19827 0.0
O193 O 0.76456 0.6545 0.23896 0.0
C194 C 0.95888 0.51616 0.22296 0.0
C195 C 0.77757 0.72039 0.22196 0.0
C196 C 0.86542 0.88784 0.58284 0.0
C197 C 0.77373 0.97895 0.77703 0.0
O198 O 0.8168 0.93753 0.59085 0.0
Zn199 Zn 0.81442 0.9391 0.67796 0.0
O200 O 0.89513 0.85655 0.62793 0.0
Zn201 Zn 0.8883 0.86101 0.72236 0.0
O202 O 0.84311 0.76459 0.73897 0.0
O203 O 0.76158 0.83937 0.69827 0.0
O204 O 0.8225 0.92814 0.77916 0.0
O205 O 0.75252 0.00363 0.72649 0.0
O206 O 0.9203 0.97745 0.69899 0.0
O207 O 0.98961 0.89418 0.74423 0.0
C208 C 0.77723 0.77759 0.72196 0.0
C209 C 0.98147 0.95889 0.72296 0.0
C210 C 0.53877 0.98149 0.22296 0.0
C211 C 0.72007 0.77725 0.22196 0.0
O212 O 0.60349 0.98964 0.24422 0.0
Zn213 Zn 0.63666 0.88833 0.22235 0.0
O214 O 0.52021 0.92031 0.19899 0.0
Zn215 Zn 0.55856 0.81444 0.17796 0.0
O216 O 0.49404 0.75253 0.22649 0.0
O217 O 0.56954 0.82253 0.27916 0.0
O218 O 0.65829 0.7616 0.19827 0.0
O219 O 0.73308 0.84314 0.23896 0.0
O220 O 0.6411 0.89515 0.12792 0.0
O221 O 0.56013 0.81681 0.09084 0.0
C222 C 0.51876 0.77373 0.27703 0.0
C223 C 0.60981 0.86544 0.08283 0.0
loop_
_geom_bond_atom_site_label_1
_geom_bond_atom_site_label_2
_geom_bond_distance
_geom_bond_site_symmetry_2
_ccdc_geom_bond_type
C0 O2 1.247 . S
C0 O4 1.258 . S
C1 O8 1.247 . S
C1 O9 1.258 . S
O2 C0 1.247 . S
O2 Zn3 2.028 . S
Zn3 O2 2.028 . S
Zn3 O7 2.035 . S
Zn3 O9 2.035 . S
Zn3 O10 2.028 . S
O4 C0 1.258 . S
O4 Zn5 2.035 . S
Zn5 O4 2.035 . S
Zn5 O6 2.028 . S
Zn5 O8 2.028 . S
Zn5 O11 2.035 1_545 S
O6 Zn5 2.028 . S
O6 C12 1.247 . S
O7 Zn3 2.035 . S
O7 C12 1.258 . S
O8 C1 1.247 . S
O8 Zn5 2.028 . S
O9 C1 1.258 . S
O9 Zn3 2.035 . S
O10 Zn3 2.028 . S
O10 C13 1.247 1_545 S
O11 Zn5 2.035 1_565 S
O11 C13 1.258 . S
C12 O6 1.247 . S
C12 O7 1.258 . S
C13 O10 1.247 1_565 S
C13 O11 1.258 . S
C14 O16 1.247 . S
C14 O18 1.258 . S
C15 O22 1.247 . S
C15 O23 1.258 . S
O16 C14 1.247 . S
O16 Zn17 2.028 . S
Zn17 O16 2.028 . S
Zn17 O21 2.035 . S
Zn17 O23 2.035 . S
Zn17 O24 2.028 . S
O18 C14 1.258 . S
O18 Zn19 2.035 . S
Zn19 O18 2.035 . S
Zn19 O20 2.028 . S
Zn19 O22 2.028 . S
Zn19 O25 2.035 . S
O20 Zn19 2.028 . S
O20 C26 1.247 . S
O21 Zn17 2.035 . S
O21 C26 1.258 . S
O22 C15 1.247 . S
O22 Zn19 2.028 . S
O23 C15 1.258 . S
O23 Zn17 2.035 . S
O24 Zn17 2.028 . S
O24 C27 1.247 . S
O25 Zn19 2.035 . S
O25 C27 1.258 . S
C26 O20 1.247 . S
C26 O21 1.258 . S
C27 O24 1.247 . S
C27 O25 1.258 . S
C28 O30 1.247 . S
C28 O32 1.258 . S
C29 O36 1.247 . S
C29 O37 1.258 . S
O30 C28 1.247 . S
O30 Zn31 2.028 . S
Zn31 O30 2.028 . S
Zn31 O35 2.035 . S
Zn31 O37 2.035 . S
Zn31 O38 2.028 . S
O32 C28 1.258 . S
O32 Zn33 2.035 . S
Zn33 O32 2.035 . S
Zn33 O34 2.028 . S
Zn33 O36 2.028 . S
Zn33 O39 2.035 . S
O34 Zn33 2.028 . S
O34 C40 1.247 . S
O35 Zn31 2.035 . S
O35 C40 1.258 . S
O36 C29 1.247 . S
O36 Zn33 2.028 . S
O37 C29 1.258 . S
O37 Zn31 2.035 . S
O38 Zn31 2.028 . S
O38 C41 1.247 . S
O39 Zn33 2.035 . S
O39 C41 1.258 . S
C40 O34 1.247 . S
C40 O35 1.258 . S
C41 O38 1.247 . S
C41 O39 1.258 . S
C42 O44 1.247 . S
C42 O46 1.258 1_655 S
C43 O50 1.247 . S
C43 O51 1.258 . S
O44 C42 1.247 . S
O44 Zn45 2.028 1_655 S
Zn45 O44 2.028 1_455 S
Zn45 O49 2.035 . S
Zn45 O51 2.035 . S
Zn45 O52 2.028 . S
O46 C42 1.258 1_455 S
O46 Zn47 2.035 . S
Zn47 O46 2.035 . S
Zn47 O48 2.028 . S
Zn47 O50 2.028 . S
Zn47 O53 2.035 . S
O48 Zn47 2.028 . S
O48 C54 1.247 . S
O49 Zn45 2.035 . S
O49 C54 1.258 . S
O50 C43 1.247 . S
O50 Zn47 2.028 . S
O51 C43 1.258 . S
O51 Zn45 2.035 . S
O52 Zn45 2.028 . S
O52 C55 1.247 . S
O53 Zn47 2.035 . S
O53 C55 1.258 . S
C54 O48 1.247 . S
C54 O49 1.258 . S
C55 O52 1.247 . S
C55 O53 1.258 . S
C56 O58 1.247 . S
C56 O60 1.258 . S
C57 O64 1.247 . S
C57 O65 1.258 . S
O58 C56 1.247 . S
O58 Zn59 2.028 . S
Zn59 O58 2.028 . S
Zn59 O63 2.035 . S
Zn59 O65 2.035 . S
Zn59 O66 2.028 . S
O60 C56 1.258 . S
O60 Zn61 2.035 . S
Zn61 O60 2.035 . S
Zn61 O62 2.028 . S
Zn61 O64 2.028 . S
Zn61 O67 2.035 . S
O62 Zn61 2.028 . S
O62 C68 1.247 . S
O63 Zn59 2.035 . S
O63 C68 1.258 . S
O64 C57 1.247 . S
O64 Zn61 2.028 . S
O65 C57 1.258 . S
O65 Zn59 2.035 . S
O66 Zn59 2.028 . S
O66 C69 1.247 . S
O67 Zn61 2.035 . S
O67 C69 1.258 . S
C68 O62 1.247 . S
C68 O63 1.258 . S
C69 O66 1.247 . S
C69 O67 1.258 . S
C70 O72 1.247 . S
C70 O74 1.258 1_655 S
C71 O78 1.247 . S
C71 O79 1.258 . S
O72 C70 1.247 . S
O72 Zn73 2.028 1_655 S
Zn73 O72 2.028 1_455 S
Zn73 O77 2.035 . S
Zn73 O79 2.035 . S
Zn73 O80 2.028 . S
O74 C70 1.258 1_455 S
O74 Zn75 2.035 . S
Zn75 O74 2.035 . S
Zn75 O76 2.028 . S
Zn75 O78 2.028 . S
Zn75 O81 2.035 . S
O76 Zn75 2.028 . S
O76 C82 1.247 . S
O77 Zn73 2.035 . S
O77 C82 1.258 . S
O78 C71 1.247 . S
O78 Zn75 2.028 . S
O79 C71 1.258 . S
O79 Zn73 2.035 . S
O80 Zn73 2.028 . S
O80 C83 1.247 . S
O81 Zn75 2.035 . S
O81 C83 1.258 . S
C82 O76 1.247 . S
C82 O77 1.258 . S
C83 O80 1.247 . S
C83 O81 1.258 . S
C84 O86 1.247 . S
C84 O88 1.258 1_565 S
C85 O92 1.247 . S
C85 O93 1.258 . S
O86 C84 1.247 . S
O86 Zn87 2.028 1_565 S
Zn87 O86 2.028 1_545 S
Zn87 O91 2.035 . S
Zn87 O93 2.035 . S
Zn87 O94 2.028 . S
O88 C84 1.258 1_545 S
O88 Zn89 2.035 . S
Zn89 O88 2.035 . S
Zn89 O90 2.028 . S
Zn89 O92 2.028 . S
Zn89 O95 2.035 . S
O90 Zn89 2.028 . S
O90 C96 1.247 . S
O91 Zn87 2.035 . S
O91 C96 1.258 . S
O92 C85 1.247 . S
O92 Zn89 2.028 . S
O93 C85 1.258 . S
O93 Zn87 2.035 . S
O94 Zn87 2.028 . S
O94 C97 1.247 . S
O95 Zn89 2.035 . S
O95 C97 1.258 . S
C96 O90 1.247 . S
C96 O91 1.258 . S
C97 O94 1.247 . S
C97 O95 1.258 . S
C98 O100 1.247 . S
C98 O102 1.258 . S
C99 O106 1.247 . S
C99 O107 1.258 . S
O100 C98 1.247 . S
O100 Zn101 2.028 . S
Zn101 O100 2.028 . S
Zn101 O105 2.035 . S
Zn101 O107 2.035 . S
Zn101 O108 2.028 . S
O102 C98 1.258 . S
O102 Zn103 2.035 . S
Zn103 O102 2.035 . S
Zn103 O104 2.028 . S
Zn103 O106 2.028 . S
Zn103 O109 2.035 . S
O104 Zn103 2.028 . S
O104 C110 1.247 . S
O105 Zn101 2.035 . S
O105 C110 1.258 . S
O106 C99 1.247 . S
O106 Zn103 2.028 . S
O107 C99 1.258 . S
O107 Zn101 2.035 . S
O108 Zn101 2.028 . S
O108 C111 1.247 . S
O109 Zn103 2.035 . S
O109 C111 1.258 . S
C110 O104 1.247 . S
C110 O105 1.258 . S
C111 O108 1.247 . S
C111 O109 1.258 . S
C112 O114 1.247 . S
C112 O116 1.258 . S
C113 O120 1.247 . S
C113 O121 1.258 . S
O114 C112 1.247 . S
O114 Zn115 2.028 . S
Zn115 O114 2.028 . S
Zn115 O119 2.035 . S
Zn115 O121 2.035 . S
Zn115 O122 2.028 1_565 S
O116 C112 1.258 . S
O116 Zn117 2.035 . S
Zn117 O116 2.035 . S
Zn117 O118 2.028 . S
Zn117 O120 2.028 . S
Zn117 O123 2.035 . S
O118 Zn117 2.028 . S
O118 C124 1.247 . S
O119 Zn115 2.035 . S
O119 C124 1.258 . S
O120 C113 1.247 . S
O120 Zn117 2.028 . S
O121 C113 1.258 . S
O121 Zn115 2.035 . S
O122 Zn115 2.028 1_545 S
O122 C125 1.247 . S
O123 Zn117 2.035 . S
O123 C125 1.258 1_565 S
C124 O118 1.247 . S
C124 O119 1.258 . S
C125 O122 1.247 . S
C125 O123 1.258 1_545 S
C126 O128 1.247 . S
C126 O130 1.258 . S
C127 O134 1.247 . S
C127 O135 1.258 . S
O128 C126 1.247 . S
O128 Zn129 2.028 . S
Zn129 O128 2.028 . S
Zn129 O133 2.035 . S
Zn129 O135 2.035 . S
Zn129 O136 2.028 . S
O130 C126 1.258 . S
O130 Zn131 2.035 . S
Zn131 O130 2.035 . S
Zn131 O132 2.028 . S
Zn131 O134 2.028 . S
Zn131 O137 2.035 . S
O132 Zn131 2.028 . S
O132 C138 1.247 . S
O133 Zn129 2.035 . S
O133 C138 1.258 . S
O134 C127 1.247 . S
O134 Zn131 2.028 . S
O135 C127 1.258 . S
O135 Zn129 2.035 . S
O136 Zn129 2.028 . S
O136 C139 1.247 . S
O137 Zn131 2.035 . S
O137 C139 1.258 . S
C138 O132 1.247 . S
C138 O133 1.258 . S
C139 O136 1.247 . S
C139 O137 1.258 . S
C140 O142 1.247 . S
C140 O144 1.258 . S
C141 O148 1.247 . S
C141 O149 1.258 . S
O142 C140 1.247 . S
O142 Zn143 2.028 . S
Zn143 O142 2.028 . S
Zn143 O147 2.035 . S
Zn143 O149 2.035 . S
Zn143 O150 2.028 . S
O144 C140 1.258 . S
O144 Zn145 2.035 . S
Zn145 O144 2.035 . S
Zn145 O146 2.028 . S
Zn145 O148 2.028 . S
Zn145 O151 2.035 . S
O146 Zn145 2.028 . S
O146 C152 1.247 . S
O147 Zn143 2.035 . S
O147 C152 1.258 . S
O148 C141 1.247 . S
O148 Zn145 2.028 . S
O149 C141 1.258 . S
O149 Zn143 2.035 . S
O150 Zn143 2.028 . S
O150 C153 1.247 . S
O151 Zn145 2.035 . S
O151 C153 1.258 . S
C152 O146 1.247 . S
C152 O147 1.258 . S
C153 O150 1.247 . S
C153 O151 1.258 . S
C154 O156 1.247 . S
C154 O158 1.258 . S
C155 O162 1.247 . S
C155 O163 1.258 1_455 S
O156 C154 1.247 . S
O156 Zn157 2.028 . S
Zn157 O156 2.028 . S
Zn157 O161 2.035 . S
Zn157 O163 2.035 . S
Zn157 O164 2.028 . S
O158 C154 1.258 . S
O158 Zn159 2.035 . S
Zn159 O158 2.035 . S
Zn159 O160 2.028 . S
Zn159 O162 2.028 1_655 S
Zn159 O165 2.035 . S
O160 Zn159 2.028 . S
O160 C166 1.247 . S
O161 Zn157 2.035 . S
O161 C166 1.258 . S
O162 C155 1.247 . S
O162 Zn159 2.028 1_455 S
O163 C155 1.258 1_655 S
O163 Zn157 2.035 . S
O164 Zn157 2.028 . S
O164 C167 1.247 . S
O165 Zn159 2.035 . S
O165 C167 1.258 . S
C166 O160 1.247 . S
C166 O161 1.258 . S
C167 O164 1.247 . S
C167 O165 1.258 . S
C168 O170 1.247 . S
C168 O172 1.258 . S
C169 O176 1.247 . S
C169 O177 1.258 . S
O170 C168 1.247 . S
O170 Zn171 2.028 . S
Zn171 O170 2.028 . S
Zn171 O175 2.035 . S
Zn171 O177 2.035 . S
Zn171 O178 2.028 . S
O172 C168 1.258 . S
O172 Zn173 2.035 . S
Zn173 O172 2.035 . S
Zn173 O174 2.028 . S
Zn173 O176 2.028 . S
Zn173 O179 2.035 . S
O174 Zn173 2.028 . S
O174 C180 1.247 . S
O175 Zn171 2.035 . S
O175 C180 1.258 . S
O176 C169 1.247 . S
O176 Zn173 2.028 . S
O177 C169 1.258 . S
O177 Zn171 2.035 . S
O178 Zn171 2.028 . S
O178 C181 1.247 . S
O179 Zn173 2.035 . S
O179 C181 1.258 . S
C180 O174 1.247 . S
C180 O175 1.258 . S
C181 O178 1.247 . S
C181 O179 1.258 . S
C182 O184 1.247 . S
C182 O186 1.258 . S
C183 O190 1.247 . S
C183 O191 1.258 . S
O184 C182 1.247 . S
O184 Zn185 2.028 . S
Zn185 O184 2.028 . S
Zn185 O189 2.035 1_655 S
Zn185 O191 2.035 . S
Zn185 O192 2.028 . S
O186 C182 1.258 . S
O186 Zn187 2.035 . S
Zn187 O186 2.035 . S
Zn187 O188 2.028 . S
Zn187 O190 2.028 . S
Zn187 O193 2.035 . S
O188 Zn187 2.028 . S
O188 C194 1.247 1_655 S
O189 Zn185 2.035 1_455 S
O189 C194 1.258 . S
O190 C183 1.247 . S
O190 Zn187 2.028 . S
O191 C183 1.258 . S
O191 Zn185 2.035 . S
O192 Zn185 2.028 . S
O192 C195 1.247 . S
O193 Zn187 2.035 . S
O193 C195 1.258 . S
C194 O188 1.247 1_455 S
C194 O189 1.258 . S
C195 O192 1.247 . S
C195 O193 1.258 . S
C196 O198 1.247 . S
C196 O200 1.258 . S
C197 O204 1.247 . S
C197 O205 1.258 . S
O198 C196 1.247 . S
O198 Zn199 2.028 . S
Zn199 O198 2.028 . S
Zn199 O203 2.035 . S
Zn199 O205 2.035 . S
Zn199 O206 2.028 1_565 S
O200 C196 1.258 . S
O200 Zn201 2.035 . S
Zn201 O200 2.035 . S
Zn201 O202 2.028 . S
Zn201 O204 2.028 . S
Zn201 O207 2.035 . S
O202 Zn201 2.028 . S
O202 C208 1.247 . S
O203 Zn199 2.035 . S
O203 C208 1.258 . S
O204 C197 1.247 . S
O204 Zn201 2.028 . S
O205 C197 1.258 . S
O205 Zn199 2.035 . S
O206 Zn199 2.028 1_545 S
O206 C209 1.247 . S
O207 Zn201 2.035 . S
O207 C209 1.258 1_565 S
C208 O202 1.247 . S
C208 O203 1.258 . S
C209 O206 1.247 . S
C209 O207 1.258 1_545 S
C210 O212 1.247 . S
C210 O214 1.258 . S
C211 O218 1.247 . S
C211 O219 1.258 . S
O212 C210 1.247 . S
O212 Zn213 2.028 . S
Zn213 O212 2.028 . S
Zn213 O217 2.035 . S
Zn213 O219 2.035 . S
Zn213 O220 2.028 . S
O214 C210 1.258 . S
O214 Zn215 2.035 . S
Zn215 O214 2.035 . S
Zn215 O216 2.028 . S
Zn215 O218 2.028 . S
Zn215 O221 2.035 . S
O216 Zn215 2.028 . S
O216 C222 1.247 . S
O217 Zn213 2.035 . S
O217 C222 1.258 . S
O218 C211 1.247 . S
O218 Zn215 2.028 . S
O219 C211 1.258 . S
O219 Zn213 2.035 . S
O220 Zn213 2.028 . S
O220 C223 1.247 . S
O221 Zn215 2.035 . S
O221 C223 1.258 . S
C222 O216 1.247 . S
C222 O217 1.258 . S
C223 O220 1.247 . S
C223 O221 1.258 . S
C110 C0 1.596 1_556 S
C57 C15 1.595 . S
C83 C29 1.595 1_556 S
C55 C97 1.595 . S
C223 C112 1.596 1_554 S
C169 C126 1.596 . S
C152 C183 1.596 1_556 S
C166 C196 1.595 . S
C41 C12 1.648 . S
C27 C43 1.642 . S
C69 C85 1.642 . S
C98 C71 1.648 . S
C124 C140 1.642 . S
C138 C154 1.642 . S
C208 C181 1.648 . S
C195 C211 1.653 . S
C96 C1 1.720 . S
C14 C111 1.720 . S
C28 C56 1.723 . S
C54 C82 1.723 . S
C113 C197 1.723 . S
C127 C222 1.720 . S
C153 C168 1.720 . S
C167 C182 1.720 . S
C13 C210 1.581 . S
C180 C26 1.583 . S
C40 C194 1.583 . S
C209 C42 1.584 . S
C139 C68 1.584 . S
C70 C141 1.584 . S
C155 C84 1.584 . S
C125 C99 1.583 . S
