# Generated by pormake.
# Topology cds, (4)-cn, num edge types: 1
# Building blocks:
#     Node 0, Type 0, BuildingBlock: ESEHIV_clean_sbu_0, # of connection points: 4
#     Node 1, Type 0, BuildingBlock: ESEHIV_clean_sbu_0, # of connection points: 4
#     Edge 2, Type (0, 0), BuildingBlock: AJUNOK_clean_linker_0, # of connection points: 2
#     Edge 3, Type (0, 0), BuildingBlock: AJUNOK_clean_linker_0, # of connection points: 2
#     Edge 4, Type (0, 0), BuildingBlock: AJUNOK_clean_linker_0, # of connection points: 2
#     Edge 5, Type (0, 0), BuildingBlock: AJUNOK_clean_linker_0, # of connection points: 2
# Relax obj value: 0.000
# Max RMSD: 0.099
# Mean RMSD: 0.094
data_MOF--net-cds--node1-ESEHIV_clean_sbu_0--edge1-AJUNOK_clean_linker_0
_symmetry_space_group_name_H-M    P1
_symmetry_Int_Tables_number       1
_symmetry_cell_setting            triclinic
loop_
_symmetry_equiv_pos_as_xyz
'x, y, z'
_cell_length_a     10.777068
_cell_length_b     13.04288
_cell_length_c     23.666396
_cell_angle_alpha  103.46684
_cell_angle_beta   101.41232
_cell_angle_gamma 87.968516
loop_
_atom_site_label
_atom_site_type_symbol
_atom_site_fract_x
_atom_site_fract_y
_atom_site_fract_z
_atom_type_partial_charge
Cu0 Cu 0.19346 0.15057 0.08713 0.0
N1 N 0.15482 0.07021 1.00912 0.0
N2 N 0.13423 1.02852 0.9104 0.0
C3 C 0.18651 0.09557 0.96171 0.0
C4 C 0.06654 0.9585 0.92631 0.0
C5 C 0.07927 0.98449 0.98715 0.0
O6 O 0.35224 0.22484 0.09621 0.0
C7 C 0.95038 0.24645 0.06733 0.0
O8 O 0.95427 0.22359 1.01068 0.0
H9 H 0.24299 0.16433 0.96469 0.0
H10 H 0.03149 0.94691 1.01319 0.0
N11 N 0.21148 0.06693 0.14285 0.0
N12 N 0.19668 1.02823 0.22887 0.0
C13 C 0.20744 0.10536 0.20045 0.0
C14 C 0.20672 0.9615 0.1345 0.0
C15 C 0.19797 0.93746 0.1874 0.0
C16 C 0.44946 0.16656 0.0994 0.0
O17 O 0.43432 0.06609 0.09707 0.0
H18 H 0.20753 0.1889 0.22003 0.0
H19 H 0.20284 0.90615 0.09234 0.0
O20 O 0.05049 0.2388 0.10497 0.0
H21 H 1.0057 0.89698 0.896 0.0
H22 H 0.18477 0.85928 0.19369 0.0
Cu23 Cu 0.96065 1.0075 0.54743 0.0
N24 N 0.86109 0.88494 0.52286 0.0
N25 N 0.80639 0.71773 0.51575 0.0
C26 C 0.88686 0.79851 0.54479 0.0
C27 C 0.72505 0.75609 0.47459 0.0
C28 C 0.75927 0.85917 0.47895 0.0
O29 O 0.05576 1.00322 0.62616 0.0
C30 C 1.00847 1.02656 0.43982 0.0
O31 O 0.88566 1.04133 0.43147 0.0
H32 H 0.96339 0.79574 0.58157 0.0
H33 H 0.71464 0.91078 0.45134 0.0
N34 N 0.86101 0.1287 0.55248 0.0
N35 N 0.80511 0.29513 0.55088 0.0
C36 C 0.89294 0.21991 0.54137 0.0
C37 C 0.74849 0.14606 0.56924 0.0
C38 C 0.71344 0.24861 0.56804 0.0
C39 C 0.072 0.08189 0.67047 0.0
O40 O 0.04036 0.1761 0.66199 0.0
H41 H 0.97838 0.22972 0.52564 0.0
H42 H 0.69637 0.08853 0.58192 0.0
O43 O 0.06565 1.00738 0.48877 0.0
H44 H 0.64845 0.71194 0.44251 0.0
H45 H 0.62814 0.28647 0.5798 0.0
C46 C 0.1992 0.95717 0.31775 0.0
C47 C 0.16704 1.0383 0.28714 0.0
C48 C 0.15527 0.95686 0.36992 0.0
C49 C 0.07611 1.03699 0.39285 0.0
H50 H 0.25582 0.89169 0.30026 0.0
H51 H 0.17749 0.89064 0.39044 0.0
S52 S 0.97478 0.27371 0.33514 0.0
N53 N 0.05983 0.20663 0.28841 0.0
N54 N 0.97641 0.20397 0.38514 0.0
C55 C 0.04898 0.12129 0.365 0.0
C56 C 0.09493 0.12274 0.31258 0.0
C57 C 0.12755 0.14059 0.83876 0.0
C58 C 0.13328 1.03984 0.851 0.0
C59 C 0.1137 0.15328 0.78057 0.0
C60 C 0.10555 0.06575 0.73203 0.0
H61 H 0.12838 0.2103 0.87417 0.0
H62 H 0.10517 0.23261 0.7736 0.0
S63 S 0.13183 0.78489 0.74132 0.0
N64 N 0.14164 0.85124 0.81063 0.0
N65 N 0.11549 0.87434 0.70126 0.0
C66 C 0.11789 0.96449 0.74408 0.0
C67 C 0.1314 0.95174 0.80345 0.0
C68 C 0.71879 0.2894 0.05529 0.0
C69 C 0.82594 0.24494 0.08498 0.0
C70 C 0.59637 0.27132 0.06374 0.0
C71 C 0.57734 0.2058 0.10091 0.0
H72 H 0.72921 0.335 0.02363 0.0
H73 H 0.51587 0.30284 0.03805 0.0
S74 S 0.8252 0.07208 0.18948 0.0
N75 N 0.90384 0.1355 0.15469 0.0
N76 N 0.67497 0.10057 0.16948 0.0
C77 C 0.68379 0.16464 0.13255 0.0
C78 C 0.80789 0.18439 0.12488 0.0
C79 C 0.69475 0.55449 0.51504 0.0
C80 C 0.80838 0.612 0.52535 0.0
C81 C 0.6943 0.45176 0.524 0.0
C82 C 0.80753 0.40197 0.5434 0.0
H83 H 0.60513 0.58949 0.50038 0.0
H84 H 0.60461 0.41043 0.51482 0.0
S85 S 0.13109 0.51805 0.57722 0.0
N86 N 0.03784 0.60992 0.55499 0.0
N87 N 0.03628 0.41974 0.57454 0.0
C88 C 0.9218 0.45886 0.55436 0.0
C89 C 0.9224 0.56307 0.54478 0.0
loop_
_geom_bond_atom_site_label_1
_geom_bond_atom_site_label_2
_geom_bond_distance
_geom_bond_site_symmetry_2
_ccdc_geom_bond_type
Cu0 N1 1.999 1_454 S
Cu0 O6 1.974 . S
Cu0 N11 1.985 . S
Cu0 O20 1.959 1_455 S
N1 Cu0 1.999 1_656 S
N1 C3 1.263 1_655 S
N1 C5 1.389 . S
N2 C3 1.358 1_655 S
N2 C4 1.400 . S
C3 N1 1.263 1_455 S
C3 N2 1.358 1_455 S
C3 H9 0.930 1_545 S
C4 N2 1.400 . S
C4 C5 1.351 . S
C4 H21 0.930 . S
C5 N1 1.389 . S
C5 C4 1.351 . S
C5 H10 0.930 . S
O6 Cu0 1.974 . S
O6 C16 1.282 1_545 S
C7 O8 1.261 . S
C7 O20 1.251 1_565 S
O8 C7 1.261 . S
H9 C3 0.930 1_565 S
H10 C5 0.930 . S
N11 Cu0 1.985 . S
N11 C13 1.335 1_455 S
N11 C14 1.390 1_545 S
N12 C13 1.345 1_455 S
N12 C15 1.336 1_545 S
C13 N11 1.335 1_655 S
C13 N12 1.345 1_655 S
C13 H18 0.930 . S
C14 N11 1.390 1_565 S
C14 C15 1.346 . S
C14 H19 0.930 . S
C15 N12 1.336 1_565 S
C15 C14 1.346 . S
C15 H22 0.929 . S
C16 O6 1.282 1_565 S
C16 O17 1.216 . S
O17 C16 1.216 . S
H18 C13 0.930 . S
H19 C14 0.930 . S
O20 Cu0 1.959 1_655 S
O20 C7 1.251 1_545 S
H21 C4 0.930 . S
H22 C15 0.929 . S
Cu23 N24 1.999 1_545 S
Cu23 O29 1.974 . S
Cu23 N34 1.985 . S
Cu23 O43 1.959 . S
N24 Cu23 1.999 1_565 S
N24 C26 1.263 . S
N24 C28 1.389 . S
N25 C26 1.358 . S
N25 C27 1.400 . S
C26 N24 1.263 . S
C26 N25 1.358 . S
C26 H32 0.930 1_455 S
C27 N25 1.400 . S
C27 C28 1.351 . S
C27 H44 0.930 . S
C28 N24 1.389 . S
C28 C27 1.351 . S
C28 H33 0.930 . S
O29 Cu23 1.974 . S
O29 C39 1.282 1_455 S
C30 O31 1.261 1_545 S
C30 O43 1.251 1_655 S
O31 C30 1.261 1_565 S
H32 C26 0.930 1_655 S
H33 C28 0.930 . S
N34 Cu23 1.985 . S
N34 C36 1.335 . S
N34 C37 1.390 1_455 S
N35 C36 1.345 . S
N35 C38 1.336 1_455 S
C36 N34 1.335 . S
C36 N35 1.345 . S
C36 H41 0.930 . S
C37 N34 1.390 1_655 S
C37 C38 1.346 . S
C37 H42 0.930 . S
C38 N35 1.336 1_655 S
C38 C37 1.346 . S
C38 H45 0.929 . S
C39 O29 1.282 1_655 S
C39 O40 1.216 . S
O40 C39 1.216 . S
H41 C36 0.930 . S
H42 C37 0.930 . S
O43 Cu23 1.959 . S
O43 C30 1.251 1_455 S
H44 C27 0.930 . S
H45 C38 0.929 . S
C46 C47 1.372 1_565 S
C46 C48 1.419 . S
C46 H50 0.930 . S
C47 C46 1.372 1_545 S
C47 C56 1.423 1_455 S
C48 C46 1.419 . S
C48 C49 1.363 1_465 S
C48 H51 0.929 . S
C49 C48 1.363 1_645 S
C49 C55 1.428 . S
H50 C46 0.930 . S
H51 C48 0.929 . S
S52 N53 1.613 . S
S52 N54 1.610 . S
N53 S52 1.613 . S
N53 C56 1.350 . S
N54 S52 1.610 . S
N54 C55 1.351 . S
C55 C49 1.428 . S
C55 N54 1.351 . S
C55 C56 1.434 . S
C56 C47 1.423 1_655 S
C56 N53 1.350 . S
C56 C55 1.434 . S
C57 C58 1.369 . S
C57 C59 1.419 1_455 S
C57 H61 0.930 . S
C58 C57 1.369 . S
C58 C67 1.429 1_445 S
C59 C57 1.419 1_655 S
C59 C60 1.363 . S
C59 H62 0.929 1_655 S
C60 C59 1.363 . S
C60 C66 1.428 1_545 S
H61 C57 0.930 . S
H62 C59 0.929 1_455 S
S63 N64 1.613 . S
S63 N65 1.610 . S
N64 S63 1.613 . S
N64 C67 1.350 . S
N65 S63 1.610 . S
N65 C66 1.351 . S
C66 C60 1.428 1_565 S
C66 N65 1.351 . S
C66 C67 1.434 . S
C67 C58 1.429 1_665 S
C67 N64 1.350 . S
C67 C66 1.434 . S
C68 C69 1.369 1_556 S
C68 C70 1.419 . S
C68 H72 0.930 . S
C69 C68 1.369 1_554 S
C69 C78 1.429 . S
C70 C68 1.419 . S
C70 C71 1.363 1_556 S
C70 H73 0.929 . S
C71 C70 1.363 1_554 S
C71 C77 1.428 . S
H72 C68 0.930 . S
H73 C70 0.929 . S
S74 N75 1.613 . S
S74 N76 1.610 . S
N75 S74 1.613 . S
N75 C78 1.350 1_545 S
N76 S74 1.610 . S
N76 C77 1.351 1_545 S
C77 C71 1.428 . S
C77 N76 1.351 1_565 S
C77 C78 1.434 . S
C78 C69 1.429 . S
C78 N75 1.350 1_565 S
C78 C77 1.434 . S
C79 C80 1.369 1_655 S
C79 C81 1.419 . S
C79 H83 0.930 . S
C80 C79 1.369 1_455 S
C80 C89 1.429 . S
C81 C79 1.419 . S
C81 C82 1.363 1_655 S
C81 H84 0.929 . S
C82 C81 1.363 1_455 S
C82 C88 1.428 . S
H83 C79 0.930 . S
H84 C81 0.929 . S
S85 N86 1.613 . S
S85 N87 1.610 . S
N86 S85 1.613 . S
N86 C89 1.350 . S
N87 S85 1.610 . S
N87 C88 1.351 . S
C88 C82 1.428 . S
C88 N87 1.351 . S
C88 C89 1.434 . S
C89 C80 1.429 . S
C89 N86 1.350 . S
C89 C88 1.434 . S
C47 N12 1.494 . S
C49 C30 1.512 . S
C58 N2 1.474 1_455 S
C60 C39 1.509 . S
C69 C7 1.497 . S
C71 C16 1.489 . S
C80 N25 1.459 . S
C82 N35 1.467 . S
