# Generated by pormake.
# Topology cds, (4)-cn, num edge types: 1
# Building blocks:
#     Node 0, Type 0, BuildingBlock: KOZSID_clean_sbu_0, # of connection points: 4
#     Node 1, Type 0, BuildingBlock: KOZSID_clean_sbu_0, # of connection points: 4
#     Edge 2, Type (0, 0), BuildingBlock: FUNLAD_clean_linker_0, # of connection points: 2
#     Edge 3, Type (0, 0), BuildingBlock: FUNLAD_clean_linker_0, # of connection points: 2
#     Edge 4, Type (0, 0), BuildingBlock: FUNLAD_clean_linker_0, # of connection points: 2
#     Edge 5, Type (0, 0), BuildingBlock: FUNLAD_clean_linker_0, # of connection points: 2
# Relax obj value: 0.000
# Max RMSD: 0.000
# Mean RMSD: 0.000
data_MOF--net-cds--node1-KOZSID_clean_sbu_0--edge1-FUNLAD_clean_linker_0
_symmetry_space_group_name_H-M    P1
_symmetry_Int_Tables_number       1
_symmetry_cell_setting            triclinic
loop_
_symmetry_equiv_pos_as_xyz
'x, y, z'
_cell_length_a     19.205216
_cell_length_b     22.087801
_cell_length_c     41.307215
_cell_angle_alpha  106.5932
_cell_angle_beta   107.39213
_cell_angle_gamma 86.4081
loop_
_atom_site_label
_atom_site_type_symbol
_atom_site_fract_x
_atom_site_fract_y
_atom_site_fract_z
_atom_type_partial_charge
C0 C 0.15484 0.05839 0.02345 0.0
C1 C 0.19412 0.11523 0.03584 0.0
C2 C 0.14495 0.16207 0.03955 0.0
C3 C 0.07877 0.13135 0.02918 0.0
N4 N 0.08275 0.06757 0.0196 0.0
Co5 Co -0.0005 1.00436 1.00111 0.0
N6 N 0.92659 0.07333 0.00351 0.0
C7 C 0.9402 0.1364 0.01359 0.0
C8 C 0.87895 0.17184 0.01334 0.0
C9 C 0.82295 0.12892 0.00305 0.0
C10 C 0.85359 0.06963 0.99773 0.0
N11 N 0.91626 0.94114 0.98264 0.0
C12 C 0.84418 0.95034 0.97881 0.0
C13 C 0.80489 0.8935 0.96643 0.0
C14 C 0.85404 0.84665 0.96269 0.0
C15 C 0.92023 0.87737 0.97304 0.0
N16 N 0.07241 0.93538 0.99871 0.0
C17 C 0.05879 0.87231 0.9886 0.0
C18 C 0.12004 0.83687 0.98886 0.0
C19 C 0.17606 0.87979 0.9992 0.0
C20 C 0.14542 0.93908 0.00453 0.0
N21 N 0.00628 1.00524 0.0502 0.0
C22 C 0.01095 1.00688 0.11934 0.0
C23 C 0.00468 0.94995 0.09281 0.0
C24 C 0.0027 0.95021 0.05877 0.0
C25 C 0.01541 0.06295 0.11074 0.0
C26 C 0.01283 0.06107 0.07632 0.0
N27 N 0.99274 1.00347 0.95202 0.0
C28 C 0.9837 0.94576 0.89149 0.0
C29 C 0.98846 1.00181 0.88293 0.0
C30 C 0.99475 0.05874 0.90946 0.0
C31 C 0.99651 0.0585 0.94347 0.0
C32 C 0.98609 0.94765 0.92589 0.0
H33 H 0.00136 0.10344 0.9624 0.0
H34 H 0.98325 0.90325 0.93074 0.0
H35 H -0.00211 0.90527 0.03984 0.0
H36 H 0.01549 0.10547 0.07144 0.0
C37 C 0.01154 0.16095 0.02559 0.0
C38 C 0.18735 0.99718 0.01329 0.0
C39 C 0.8117 0.01154 0.98902 0.0
C40 C 0.98745 0.84777 0.9766 0.0
H41 H 0.25198 0.12227 0.04066 0.0
H42 H 0.1558 0.21252 0.04759 0.0
H43 H 0.87572 0.22283 0.02084 0.0
H44 H 0.7662 0.13992 1.00061 0.0
H45 H 0.74704 0.88647 0.96162 0.0
H46 H 0.84318 0.7962 0.95464 0.0
H47 H 0.12327 0.78588 0.98136 0.0
H48 H 0.23281 0.86879 0.00167 0.0
H49 H 0.00196 0.90519 0.0983 0.0
H50 H 0.01947 0.10833 0.13031 0.0
H51 H 0.97959 0.90038 0.87192 0.0
H52 H -0.00231 0.10349 0.90398 0.0
C53 C 0.07277 0.03274 0.58113 0.0
C54 C 0.14057 0.04163 0.60644 0.0
C55 C 0.19142 0.03565 0.58876 0.0
C56 C 0.15198 0.02344 0.55384 0.0
N57 N 0.07886 0.02184 0.5481 0.0
Co58 Co 0.00125 1.00389 0.50127 0.0
N59 N 0.07634 0.9918 0.47517 0.0
C60 C 0.14979 0.99543 0.48927 0.0
C61 C 0.18708 0.98604 0.46474 0.0
C62 C 0.13437 0.97641 0.43305 0.0
C63 C 0.06775 0.98064 0.44017 0.0
N64 N 0.92364 0.98595 0.45444 0.0
C65 C 0.92973 0.97504 0.42141 0.0
C66 C 0.86194 0.96612 0.3961 0.0
C67 C 0.81108 0.97211 0.41377 0.0
C68 C 0.85051 0.98434 0.44869 0.0
N69 N 0.92616 0.01597 0.52736 0.0
C70 C 0.85271 0.01233 0.51326 0.0
C71 C 0.81542 0.02173 0.53778 0.0
C72 C 0.86812 0.03136 0.56948 0.0
C73 C 0.93475 0.02713 0.56236 0.0
N74 N -0.00121 0.09545 0.50408 0.0
C75 C 0.99543 0.22465 0.50622 0.0
C76 C 0.93097 0.18933 0.4969 0.0
C77 C 0.93387 0.12548 0.49602 0.0
C78 C 0.0616 0.19414 0.5147 0.0
C79 C 0.06202 0.13022 0.5135 0.0
N80 N 0.00371 0.91232 0.49845 0.0
C81 C 0.9409 0.81361 0.48776 0.0
C82 C 0.00707 0.7831 0.49626 0.0
C83 C 0.07153 0.81844 0.50563 0.0
C84 C 0.06863 0.8823 0.50653 0.0
C85 C 0.94048 0.87754 0.48899 0.0
H86 H 0.1197 0.90644 0.5141 0.0
H87 H 0.88825 0.89775 0.48225 0.0
H88 H 0.8828 0.10135 0.48848 0.0
H89 H 0.11425 0.11 0.52023 0.0
C90 C 0.18207 0.01054 0.52578 0.0
C91 C 0.0045 0.03245 0.58966 0.0
C92 C -0.00201 0.97533 0.41288 0.0
C93 C 0.82043 0.99723 0.47675 0.0
H94 H 0.15211 0.05039 0.6347 0.0
H95 H 0.25018 0.03852 0.59996 0.0
H96 H 0.24559 0.98725 0.46942 0.0
H97 H 0.14381 0.9681 0.40759 0.0
H98 H 0.85041 0.95733 0.36783 0.0
H99 H 0.75232 0.96921 0.40257 0.0
H100 H 0.75691 0.02052 0.53311 0.0
H101 H 0.85867 0.03969 0.59494 0.0
H102 H 0.8782 0.21046 0.48969 0.0
H103 H 0.11316 0.21953 0.52265 0.0
H104 H 0.88934 0.7882 0.47978 0.0
H105 H 0.1243 0.79732 0.51285 0.0
C106 C 0.96449 0.9684 0.16085 0.0
C107 C 0.01235 1.00779 0.15562 0.0
C108 C 0.96532 0.96955 0.19498 0.0
C109 C 0.01477 0.00975 0.22473 0.0
C110 C 0.06204 0.04948 0.2194 0.0
C111 C 0.061 0.04849 0.18528 0.0
C112 C 0.0173 0.01332 0.26161 0.0
C113 C 0.99083 0.96746 0.27068 0.0
C114 C 0.99371 0.97111 0.30762 0.0
C115 C 0.98636 0.91488 0.31597 0.0
C116 C 0.98793 0.91612 0.35021 0.0
C117 C 0.99645 0.9737 0.37659 0.0
H118 H 0.00471 0.07359 0.32887 0.0
C119 C 0.00311 0.03004 0.3685 0.0
C120 C 0.00137 0.02894 0.33427 0.0
H121 H 0.00905 0.07492 0.38864 0.0
H122 H 0.92529 0.93751 0.13852 0.0
H123 H 0.92606 0.93978 0.19771 0.0
H124 H 0.10034 0.08125 0.24174 0.0
H125 H 0.09891 0.07912 0.18214 0.0
H126 H 0.0451 0.0544 0.28212 0.0
H127 H 0.96883 0.92391 0.25061 0.0
H128 H 0.9797 0.86976 0.29598 0.0
H129 H 0.98244 0.87224 0.35612 0.0
C130 C 0.03566 0.04005 0.84156 0.0
C131 C 0.98741 1.00087 0.84669 0.0
C132 C 0.03522 0.03883 0.80748 0.0
C133 C 0.98576 0.99878 0.77766 0.0
C134 C 0.93806 0.95928 0.78289 0.0
C135 C 0.93874 0.96033 0.81697 0.0
C136 C 0.9836 0.99512 0.74081 0.0
C137 C 0.01082 0.04068 0.73181 0.0
C138 C 0.00826 0.03693 0.6949 0.0
C139 C 0.01653 0.09304 0.68661 0.0
C140 C 0.0152 0.09172 0.6524 0.0
C141 C 0.00601 0.03416 0.62595 0.0
H142 H 0.99592 0.93453 0.67354 0.0
C143 C -0.00154 0.97793 0.63398 0.0
C144 C -3e-05 0.97911 0.66819 0.0
H145 H 0.99198 0.93306 0.6138 0.0
H146 H 0.07488 0.07082 0.86395 0.0
H147 H 0.07477 0.06842 0.80484 0.0
H148 H 0.89973 0.92763 0.7605 0.0
H149 H 0.90054 0.92986 0.82003 0.0
H150 H 0.95547 0.95423 0.72026 0.0
H151 H 0.03322 0.08408 0.75191 0.0
H152 H 0.02369 0.13814 0.70664 0.0
H153 H 0.02135 0.13551 0.64653 0.0
C154 C 0.67567 1.00186 0.96567 0.0
C155 C 0.73883 0.01481 0.99456 0.0
C156 C 0.6071 1.00389 0.97112 0.0
C157 C 0.60091 0.0188 0.00567 0.0
C158 C 0.66448 0.03341 0.03447 0.0
C159 C 0.73296 0.03119 0.02897 0.0
C160 C 0.52938 0.02101 0.0128 0.0
C161 C 0.46984 0.98763 0.98967 0.0
C162 C 0.39827 0.98987 0.99678 0.0
C163 C 0.33476 0.97516 0.96795 0.0
C164 C 0.26624 0.9774 0.97341 0.0
C165 C 0.26027 0.9939 0.00781 0.0
H166 H 0.43964 0.0142 0.05421 0.0
C167 C 0.32337 1.00696 0.03672 0.0
C168 C 0.39199 1.00491 0.03132 0.0
H169 H 0.31942 0.0188 0.06343 0.0
H170 H 0.67954 0.99012 0.93895 0.0
H171 H 0.5594 0.99469 0.94824 0.0
H172 H 0.66123 0.04574 0.06131 0.0
H173 H 0.78144 0.04179 0.05153 0.0
H174 H 0.52665 0.05045 0.03837 0.0
H175 H 0.47259 0.95818 0.96411 0.0
H176 H 0.33808 0.96273 0.94112 0.0
H177 H 0.2178 0.96671 0.95082 0.0
C178 C 0.95905 0.68973 0.50735 0.0
C179 C 0.00881 0.7151 0.49539 0.0
C180 C 0.96049 0.62584 0.50644 0.0
C181 C 0.0122 0.58568 0.49369 0.0
C182 C 0.0614 0.61099 0.48146 0.0
C183 C 0.05998 0.67486 0.48241 0.0
C184 C 0.01546 0.51702 0.49162 0.0
C185 C 0.98705 0.49069 0.51078 0.0
C186 C 0.9903 0.42204 0.50872 0.0
C187 C 0.94117 0.39677 0.52101 0.0
C188 C 0.94258 0.33291 0.52008 0.0
C189 C 0.99368 0.29264 0.50706 0.0
H190 H 0.08228 0.3993 0.48711 0.0
C191 C 0.04337 0.31796 0.49503 0.0
C192 C 0.04194 0.38184 0.49593 0.0
H193 H 0.08323 0.28826 0.48464 0.0
H194 H 0.91914 0.71939 0.51771 0.0
H195 H 0.92009 0.60833 0.5152 0.0
H196 H 0.10135 0.58124 0.47115 0.0
H197 H 0.09837 0.69245 0.47244 0.0
H198 H 0.04324 0.48756 0.47365 0.0
H199 H 0.95928 0.52016 0.52875 0.0
H200 H 0.90128 0.42655 0.53135 0.0
H201 H 0.90426 0.31535 0.5301 0.0
loop_
_geom_bond_atom_site_label_1
_geom_bond_atom_site_label_2
_geom_bond_distance
_geom_bond_site_symmetry_2
_ccdc_geom_bond_type
C0 C1 1.443 . S
C0 N4 1.376 . S
C0 C38 1.405 . S
C1 C0 1.443 . S
C1 C2 1.340 . S
C1 H41 0.951 . S
C2 C1 1.340 . S
C2 C3 1.439 . S
C2 H42 0.950 . S
C3 C2 1.439 . S
C3 N4 1.374 . S
C3 C37 1.392 1_455 S
N4 C0 1.376 . S
N4 C3 1.374 . S
N4 Co5 2.008 . S
Co5 N4 2.008 . S
Co5 N6 1.996 1_455 S
Co5 N11 2.009 1_444 S
Co5 N16 1.993 1_544 S
Co5 N21 2.293 . S
Co5 N27 2.272 1_444 S
N6 Co5 1.996 1_655 S
N6 C7 1.376 . S
N6 C10 1.383 . S
C7 N6 1.376 . S
C7 C8 1.446 . S
C7 C37 1.394 . S
C8 C7 1.446 . S
C8 C9 1.339 . S
C8 H43 0.949 . S
C9 C8 1.339 . S
C9 C10 1.439 . S
C9 H44 0.950 . S
C10 N6 1.383 . S
C10 C9 1.439 . S
C10 C39 1.390 1_544 S
N11 Co5 2.009 1_666 S
N11 C12 1.376 . S
N11 C15 1.374 . S
C12 N11 1.376 . S
C12 C13 1.443 . S
C12 C39 1.400 . S
C13 C12 1.443 . S
C13 C14 1.340 . S
C13 H45 0.951 . S
C14 C13 1.340 . S
C14 C15 1.439 . S
C14 H46 0.950 . S
C15 N11 1.374 . S
C15 C14 1.439 . S
C15 C40 1.387 1_655 S
N16 Co5 1.993 1_566 S
N16 C17 1.376 . S
N16 C20 1.383 . S
C17 N16 1.376 . S
C17 C18 1.446 . S
C17 C40 1.399 . S
C18 C17 1.446 . S
C18 C19 1.339 . S
C18 H47 0.949 . S
C19 C18 1.339 . S
C19 C20 1.439 . S
C19 H48 0.950 . S
C20 N16 1.383 . S
C20 C19 1.439 . S
C20 C38 1.375 1_566 S
N21 Co5 2.293 . S
N21 C24 1.332 1_545 S
N21 C26 1.332 1_455 S
C22 C23 1.376 1_545 S
C22 C25 1.404 1_455 S
C23 C22 1.376 1_565 S
C23 C24 1.382 . S
C23 H49 0.950 . S
C24 N21 1.332 1_565 S
C24 C23 1.382 . S
C24 H35 0.952 . S
C25 C22 1.404 1_655 S
C25 C26 1.382 . S
C25 H50 0.950 . S
C26 N21 1.332 1_655 S
C26 C25 1.382 . S
C26 H36 0.948 . S
N27 Co5 2.272 1_666 S
N27 C31 1.332 1_565 S
N27 C32 1.332 1_655 S
C28 C29 1.395 1_455 S
C28 C32 1.382 . S
C28 H51 0.950 . S
C29 C28 1.395 1_655 S
C29 C30 1.381 1_565 S
C30 C29 1.381 1_545 S
C30 C31 1.382 . S
C30 H52 0.950 . S
C31 N27 1.332 1_545 S
C31 C30 1.382 . S
C31 H33 0.952 . S
C32 N27 1.332 1_455 S
C32 C28 1.382 . S
C32 H34 0.948 . S
H33 C31 0.952 . S
H34 C32 0.948 . S
H35 C24 0.952 . S
H36 C26 0.948 . S
C37 C3 1.392 1_655 S
C37 C7 1.394 . S
C38 C0 1.405 . S
C38 C20 1.375 1_544 S
C39 C10 1.390 1_566 S
C39 C12 1.400 . S
C40 C15 1.387 1_455 S
C40 C17 1.399 . S
H41 C1 0.951 . S
H42 C2 0.950 . S
H43 C8 0.949 . S
H44 C9 0.950 . S
H45 C13 0.951 . S
H46 C14 0.950 . S
H47 C18 0.949 . S
H48 C19 0.950 . S
H49 C23 0.950 . S
H50 C25 0.950 . S
H51 C28 0.950 . S
H52 C30 0.950 . S
C53 C54 1.446 . S
C53 N57 1.373 1_565 S
C53 C91 1.389 1_565 S
C54 C53 1.446 . S
C54 C55 1.340 . S
C54 H94 0.951 . S
C55 C54 1.340 . S
C55 C56 1.439 . S
C55 H95 0.950 . S
C56 C55 1.439 . S
C56 N57 1.374 1_565 S
C56 C90 1.395 . S
N57 C53 1.373 1_545 S
N57 C56 1.374 1_545 S
N57 Co58 2.008 . S
Co58 N57 2.008 . S
Co58 N59 1.996 1_545 S
Co58 N64 2.008 1_445 S
Co58 N69 1.994 1_455 S
Co58 N74 2.285 . S
Co58 N80 2.280 1_445 S
N59 Co58 1.996 1_565 S
N59 C60 1.376 . S
N59 C63 1.383 . S
C60 N59 1.376 . S
C60 C61 1.446 . S
C60 C90 1.391 . S
C61 C60 1.446 . S
C61 C62 1.339 . S
C61 H96 0.949 . S
C62 C61 1.339 . S
C62 C63 1.439 . S
C62 H97 0.950 . S
C63 N59 1.383 . S
C63 C62 1.439 . S
C63 C92 1.383 1_455 S
N64 Co58 2.008 1_665 S
N64 C65 1.371 1_565 S
N64 C68 1.374 1_565 S
C65 N64 1.371 1_545 S
C65 C66 1.449 . S
C65 C92 1.402 1_545 S
C66 C65 1.449 . S
C66 C67 1.340 . S
C66 H98 0.951 . S
C67 C66 1.340 . S
C67 C68 1.439 . S
C67 H99 0.950 . S
C68 N64 1.374 1_545 S
C68 C67 1.439 . S
C68 C93 1.395 . S
N69 Co58 1.994 1_655 S
N69 C70 1.376 . S
N69 C73 1.383 . S
C70 N69 1.376 . S
C70 C71 1.446 . S
C70 C93 1.391 . S
C71 C70 1.446 . S
C71 C72 1.339 . S
C71 H100 0.949 . S
C72 C71 1.339 . S
C72 C73 1.439 . S
C72 H101 0.950 . S
C73 N69 1.383 . S
C73 C72 1.439 . S
C73 C91 1.392 1_655 S
N74 Co58 2.285 . S
N74 C77 1.332 1_455 S
N74 C79 1.332 . S
C75 C76 1.372 1_455 S
C75 C78 1.401 . S
C76 C75 1.372 1_655 S
C76 C77 1.382 . S
C76 H102 0.950 . S
C77 N74 1.332 1_655 S
C77 C76 1.382 . S
C77 H88 0.952 . S
C78 C75 1.401 . S
C78 C79 1.382 . S
C78 H103 0.950 . S
C79 N74 1.332 . S
C79 C78 1.382 . S
C79 H89 0.948 . S
N80 Co58 2.280 1_665 S
N80 C84 1.332 1_655 S
N80 C85 1.332 . S
C81 C82 1.396 . S
C81 C85 1.382 . S
C81 H104 0.950 . S
C82 C81 1.396 . S
C82 C83 1.377 1_655 S
C83 C82 1.377 1_455 S
C83 C84 1.382 . S
C83 H105 0.950 . S
C84 N80 1.332 1_455 S
C84 C83 1.382 . S
C84 H86 0.952 . S
C85 N80 1.332 . S
C85 C81 1.382 . S
C85 H87 0.948 . S
H86 C84 0.952 . S
H87 C85 0.948 . S
H88 C77 0.952 . S
H89 C79 0.948 . S
C90 C56 1.395 . S
C90 C60 1.391 . S
C91 C53 1.389 1_545 S
C91 C73 1.392 1_455 S
C92 C63 1.383 1_655 S
C92 C65 1.402 1_565 S
C93 C68 1.395 . S
C93 C70 1.391 . S
H94 C54 0.951 . S
H95 C55 0.950 . S
H96 C61 0.949 . S
H97 C62 0.950 . S
H98 C66 0.951 . S
H99 C67 0.950 . S
H100 C71 0.949 . S
H101 C72 0.950 . S
H102 C76 0.950 . S
H103 C78 0.950 . S
H104 C81 0.950 . S
H105 C83 0.950 . S
C106 C107 1.386 1_665 S
C106 C108 1.383 . S
C106 H122 0.951 . S
C107 C106 1.386 1_445 S
C107 C111 1.383 . S
C108 C106 1.383 . S
C108 C109 1.402 1_665 S
C108 H123 0.951 . S
C109 C108 1.402 1_445 S
C109 C110 1.375 . S
C109 C112 1.481 . S
C110 C109 1.375 . S
C110 C111 1.367 . S
C110 H124 0.951 . S
C111 C107 1.383 . S
C111 C110 1.367 . S
C111 H125 0.950 . S
C112 C109 1.481 . S
C112 C113 1.297 1_545 S
C112 H126 0.950 . S
C113 C112 1.297 1_565 S
C113 C114 1.479 . S
C113 H127 0.950 . S
C114 C113 1.479 . S
C114 C115 1.375 1_455 S
C114 C120 1.404 1_565 S
C115 C114 1.375 1_655 S
C115 C116 1.369 . S
C115 H128 0.950 . S
C116 C115 1.369 . S
C116 C117 1.392 1_655 S
C116 H129 0.951 . S
C117 C116 1.392 1_455 S
C117 C119 1.384 1_565 S
H118 C120 0.949 . S
C119 C117 1.384 1_545 S
C119 C120 1.385 . S
C119 H121 0.950 . S
C120 C114 1.404 1_545 S
C120 H118 0.949 . S
C120 C119 1.385 . S
H121 C119 0.950 . S
H122 C106 0.951 . S
H123 C108 0.951 . S
H124 C110 0.951 . S
H125 C111 0.950 . S
H126 C112 0.950 . S
H127 C113 0.950 . S
H128 C115 0.950 . S
H129 C116 0.951 . S
C130 C131 1.386 1_445 S
C130 C132 1.383 . S
C130 H146 0.951 . S
C131 C130 1.386 1_665 S
C131 C135 1.383 . S
C132 C130 1.383 . S
C132 C133 1.402 1_445 S
C132 H147 0.951 . S
C133 C132 1.402 1_665 S
C133 C134 1.375 . S
C133 C136 1.481 . S
C134 C133 1.375 . S
C134 C135 1.367 . S
C134 H148 0.951 . S
C135 C131 1.383 . S
C135 C134 1.367 . S
C135 H149 0.950 . S
C136 C133 1.481 . S
C136 C137 1.297 1_655 S
C136 H150 0.950 . S
C137 C136 1.297 1_455 S
C137 C138 1.479 . S
C137 H151 0.950 1_565 S
C138 C137 1.479 . S
C138 C139 1.375 1_565 S
C138 C144 1.404 1_455 S
C139 C138 1.375 1_545 S
C139 C140 1.369 . S
C139 H152 0.950 . S
C140 C139 1.369 . S
C140 C141 1.392 1_545 S
C140 H153 0.951 . S
C141 C140 1.392 1_565 S
C141 C143 1.384 1_455 S
H142 C144 0.949 . S
C143 C141 1.384 1_655 S
C143 C144 1.385 . S
C143 H145 0.950 . S
C144 C138 1.404 1_655 S
C144 H142 0.949 . S
C144 C143 1.385 . S
H145 C143 0.950 . S
H146 C130 0.951 . S
H147 C132 0.951 . S
H148 C134 0.951 . S
H149 C135 0.950 . S
H150 C136 0.950 . S
H151 C137 0.950 1_545 S
H152 C139 0.950 . S
H153 C140 0.951 . S
C154 C155 1.386 1_566 S
C154 C156 1.383 . S
C154 H170 0.951 . S
C155 C154 1.386 1_544 S
C155 C159 1.383 . S
C156 C154 1.383 . S
C156 C157 1.402 1_556 S
C156 H171 0.951 . S
C157 C156 1.402 1_554 S
C157 C158 1.375 1_565 S
C157 C160 1.481 1_565 S
C158 C157 1.375 1_545 S
C158 C159 1.367 . S
C158 H172 0.951 . S
C159 C155 1.383 . S
C159 C158 1.367 . S
C159 H173 0.950 . S
C160 C157 1.481 1_545 S
C160 C161 1.297 1_544 S
C160 H174 0.950 . S
C161 C160 1.297 1_566 S
C161 C162 1.479 1_556 S
C161 H175 0.950 . S
C162 C161 1.479 1_554 S
C162 C163 1.375 1_554 S
C162 C168 1.404 1_565 S
C163 C162 1.375 1_556 S
C163 C164 1.369 . S
C163 H176 0.950 . S
C164 C163 1.369 . S
C164 C165 1.392 1_556 S
C164 H177 0.951 . S
C165 C164 1.392 1_554 S
C165 C167 1.384 1_565 S
H166 C168 0.949 . S
C167 C165 1.384 1_545 S
C167 C168 1.385 . S
C167 H169 0.950 . S
C168 C162 1.404 1_545 S
C168 H166 0.949 . S
C168 C167 1.385 . S
H169 C167 0.950 . S
H170 C154 0.951 . S
H171 C156 0.951 . S
H172 C158 0.951 . S
H173 C159 0.950 . S
H174 C160 0.950 . S
H175 C161 0.950 . S
H176 C163 0.950 . S
H177 C164 0.951 . S
C178 C179 1.386 1_655 S
C178 C180 1.383 . S
C178 H194 0.951 . S
C179 C178 1.386 1_455 S
C179 C183 1.383 . S
C180 C178 1.383 . S
C180 C181 1.402 1_655 S
C180 H195 0.951 . S
C181 C180 1.402 1_455 S
C181 C182 1.375 . S
C181 C184 1.481 . S
C182 C181 1.375 . S
C182 C183 1.367 . S
C182 H196 0.951 . S
C183 C179 1.383 . S
C183 C182 1.367 . S
C183 H197 0.950 . S
C184 C181 1.481 . S
C184 C185 1.297 1_455 S
C184 H198 0.950 . S
C185 C184 1.297 1_655 S
C185 C186 1.479 . S
C185 H199 0.950 . S
C186 C185 1.479 . S
C186 C187 1.375 . S
C186 C192 1.404 1_655 S
C187 C186 1.375 . S
C187 C188 1.369 . S
C187 H200 0.950 . S
C188 C187 1.369 . S
C188 C189 1.392 . S
C188 H201 0.951 . S
C189 C188 1.392 . S
C189 C191 1.384 1_655 S
H190 C192 0.949 . S
C191 C189 1.384 1_455 S
C191 C192 1.385 . S
C191 H193 0.950 . S
C192 C186 1.404 1_455 S
C192 H190 0.949 . S
C192 C191 1.385 . S
H193 C191 0.950 . S
H194 C178 0.951 . S
H195 C180 0.951 . S
H196 C182 0.951 . S
H197 C183 0.950 . S
H198 C184 0.950 . S
H199 C185 0.950 . S
H200 C187 0.950 . S
H201 C188 0.951 . S
C107 C22 1.489 . S
C117 C92 1.481 1_455 S
C131 C29 1.492 . S
C141 C91 1.490 1_565 S
C155 C39 1.488 1_544 S
C165 C38 1.485 1_565 S
C179 C82 1.494 1_455 S
C189 C75 1.492 1_655 S
