# Generated by pormake.
# Topology oof, (8)-cn, num edge types: 1
# Building blocks:
#     Node 0, Type 0, BuildingBlock: TAGTUT_clean_sbu_1, # of connection points: 8
#     Node 1, Type 0, BuildingBlock: TAGTUT_clean_sbu_1, # of connection points: 8
#     Node 2, Type 0, BuildingBlock: TAGTUT_clean_sbu_1, # of connection points: 8
#     Node 3, Type 0, BuildingBlock: TAGTUT_clean_sbu_1, # of connection points: 8
#     Edge 4, Type (0, 0), None
#     Edge 5, Type (0, 0), None
#     Edge 6, Type (0, 0), None
#     Edge 7, Type (0, 0), None
#     Edge 8, Type (0, 0), None
#     Edge 9, Type (0, 0), None
#     Edge 10, Type (0, 0), None
#     Edge 11, Type (0, 0), None
#     Edge 12, Type (0, 0), None
#     Edge 13, Type (0, 0), None
#     Edge 14, Type (0, 0), None
#     Edge 15, Type (0, 0), None
#     Edge 16, Type (0, 0), None
#     Edge 17, Type (0, 0), None
#     Edge 18, Type (0, 0), None
#     Edge 19, Type (0, 0), None
# Relax obj value: 0.059
# Max RMSD: 0.157
# Mean RMSD: 0.157
data_MOF--net-oof--node1-TAGTUT_clean_sbu_1--edge1-none
_symmetry_space_group_name_H-M    P1
_symmetry_Int_Tables_number       1
_symmetry_cell_setting            triclinic
loop_
_symmetry_equiv_pos_as_xyz
'x, y, z'
_cell_length_a     7.5714633
_cell_length_b     28.31421
_cell_length_c     11.996065
_cell_angle_alpha  105.05863
_cell_angle_beta   98.161233
_cell_angle_gamma 97.891973
loop_
_atom_site_label
_atom_site_type_symbol
_atom_site_fract_x
_atom_site_fract_y
_atom_site_fract_z
_atom_type_partial_charge
C0 C -0.05197 0.09556 0.61909 0.0
C1 C -0.05007 0.984 0.38087 0.0
C2 C 0.36488 0.11523 0.16532 0.0
Mg3 Mg 0.737 0.05418 0.36733 0.0
O4 O -0.06533 0.0954 0.34216 0.0
Mg5 Mg 0.1888 0.094 0.40494 0.0
Mg6 Mg -0.04435 0.10884 0.18985 0.0
O7 O -0.03956 0.12512 0.03705 0.0
Mg8 Mg 0.12085 0.16844 -0.00648 0.0
Mg9 Mg 0.70511 0.09926 -0.05165 0.0
C10 C 0.51834 0.10028 0.19596 0.0
C11 C 0.90568 0.00642 -0.02784 0.0
O12 O 0.09989 0.09844 0.58292 0.0
O13 O 0.79347 0.08111 0.55109 0.0
O14 O 0.09474 0.00643 0.35742 0.0
O15 O 0.79968 0.9822 0.31611 0.0
O16 O 0.52504 0.08038 0.28037 0.0
O17 O 0.65105 0.10386 0.1413 0.0
C18 C 0.16721 0.20777 0.41198 0.0
O19 O 0.04387 0.19232 0.3163 0.0
O20 O 0.24455 0.17776 0.45626 0.0
O21 O 0.79764 0.09987 0.77685 0.0
O22 O 0.09663 0.13099 0.81363 0.0
O23 O 0.64319 0.17539 -0.03944 0.0
C24 C -0.05151 0.10916 0.74341 0.0
O25 O 0.91915 0.22043 -0.02637 0.0
O26 O 0.34992 0.13981 0.08781 0.0
C27 C 0.74297 0.21482 -0.0431 0.0
O28 O 0.23666 0.10586 0.21978 0.0
O29 O -0.05032 0.02685 0.08291 0.0
O30 O 0.79556 0.02348 0.90962 0.0
C31 C -0.05713 0.85999 0.14309 0.0
C32 C 0.14848 0.75438 0.92944 0.0
C33 C 0.37299 0.86884 0.6904 0.0
Mg34 Mg 0.77072 0.80078 0.89292 0.0
O35 O 0.93104 0.84422 0.84965 0.0
Mg36 Mg 0.18643 0.86997 0.93823 0.0
Mg37 Mg -0.06411 0.86047 0.69683 0.0
O38 O -0.04322 0.87385 0.54446 0.0
Mg39 Mg 0.15446 0.915 0.51912 0.0
Mg40 Mg 0.70269 0.87528 0.48169 0.0
C41 C 0.52655 0.85395 0.72109 0.0
C42 C 0.72395 0.76152 0.47487 0.0
O43 O 0.09375 0.86931 0.10969 0.0
O44 O 0.79475 0.83817 0.07284 0.0
O45 O 0.24826 0.79382 0.92589 0.0
O46 O -0.02769 0.74876 0.91267 0.0
O47 O 0.54152 0.8293 0.79845 0.0
O48 O 0.65506 0.86364 0.66711 0.0
C49 C -0.01379 0.96289 0.91451 0.0
O50 O -0.05771 0.94248 0.80375 0.0
O51 O 0.09616 0.94578 -0.02293 0.0
O52 O 0.79146 0.87072 0.3036 0.0
O53 O 0.09787 0.88804 0.33539 0.0
O54 O 0.79691 0.96284 0.5289 0.0
C55 C -0.05669 0.87359 0.26741 0.0
O56 O 0.09213 -0.01299 0.57022 0.0
O57 O 0.36627 0.88873 0.60597 0.0
C58 C -0.05816 -0.01475 0.50554 0.0
O59 O 0.24046 0.8654 0.74526 0.0
O60 O 0.84736 0.77697 0.5705 0.0
O61 O 0.64666 0.79153 0.43057 0.0
C62 C 0.44803 0.59556 0.61909 0.0
C63 C 0.44994 0.484 0.38087 0.0
C64 C 0.86488 0.61523 0.16532 0.0
Mg65 Mg 0.237 0.55418 0.36733 0.0
O66 O 0.43467 0.5954 0.34216 0.0
Mg67 Mg 0.6888 0.594 0.40494 0.0
Mg68 Mg 0.45565 0.60884 0.18985 0.0
O69 O 0.46045 0.62512 0.03705 0.0
Mg70 Mg 0.62086 0.66844 -0.00648 0.0
Mg71 Mg 0.20511 0.59926 -0.05165 0.0
C72 C 0.01834 0.60028 0.19595 0.0
C73 C 0.40568 0.50642 -0.02784 0.0
O74 O 0.59989 0.59844 0.58292 0.0
O75 O 0.29347 0.58111 0.55109 0.0
O76 O 0.59474 0.50643 0.35742 0.0
O77 O 0.29968 0.4822 0.31611 0.0
O78 O 0.02504 0.58038 0.28037 0.0
O79 O 0.15106 0.60386 0.1413 0.0
C80 C 0.66721 0.70777 0.41198 0.0
O81 O 0.54387 0.69232 0.3163 0.0
O82 O 0.74455 0.67776 0.45626 0.0
O83 O 0.29764 0.59987 0.77684 0.0
O84 O 0.59663 0.63099 0.81363 0.0
O85 O 0.14319 0.67539 -0.03944 0.0
C86 C 0.44849 0.60916 0.74341 0.0
O87 O 0.41915 0.72043 -0.02637 0.0
O88 O 0.84992 0.63981 0.08781 0.0
C89 C 0.24297 0.71482 -0.04309 0.0
O90 O 0.73666 0.60586 0.21977 0.0
O91 O 0.44968 0.52685 0.08291 0.0
O92 O 0.29556 0.52348 0.90962 0.0
C93 C 0.44288 0.35999 0.14309 0.0
C94 C 0.64848 0.25437 0.92943 0.0
C95 C 0.87299 0.36884 0.6904 0.0
Mg96 Mg 0.27072 0.30078 0.89292 0.0
O97 O 0.43104 0.34423 0.84965 0.0
Mg98 Mg 0.68643 0.36997 0.93823 0.0
Mg99 Mg 0.43589 0.36047 0.69683 0.0
O100 O 0.45678 0.37385 0.54446 0.0
Mg101 Mg 0.65446 0.415 0.51912 0.0
Mg102 Mg 0.20269 0.37528 0.48169 0.0
C103 C 0.02655 0.35395 0.72109 0.0
C104 C 0.22395 0.26152 0.47487 0.0
O105 O 0.59375 0.36931 0.10968 0.0
O106 O 0.29475 0.33817 0.07284 0.0
O107 O 0.74826 0.29382 0.92588 0.0
O108 O 0.47231 0.24876 0.91267 0.0
O109 O 0.04152 0.3293 0.79844 0.0
O110 O 0.15506 0.36364 0.66711 0.0
C111 C 0.48621 0.46289 0.91451 0.0
O112 O 0.4423 0.44248 0.80375 0.0
O113 O 0.59616 0.44578 -0.02293 0.0
O114 O 0.29146 0.37072 0.3036 0.0
O115 O 0.59787 0.38804 0.33539 0.0
O116 O 0.29691 0.46284 0.5289 0.0
C117 C 0.44331 0.37359 0.26741 0.0
O118 O 0.59213 0.48701 0.57022 0.0
O119 O 0.86627 0.38873 0.60597 0.0
C120 C 0.44184 0.48525 0.50554 0.0
O121 O 0.74046 0.3654 0.74526 0.0
O122 O 0.34736 0.27697 0.5705 0.0
O123 O 0.14666 0.29153 0.43057 0.0
loop_
_geom_bond_atom_site_label_1
_geom_bond_atom_site_label_2
_geom_bond_distance
_geom_bond_site_symmetry_2
_ccdc_geom_bond_type
C0 O12 1.241 1_655 S
C0 O13 1.280 . S
C1 O14 1.277 . S
C1 O15 1.245 1_455 S
C2 O26 1.247 . S
C2 O28 1.289 . S
Mg3 O4 1.926 . S
Mg3 O13 1.984 . S
Mg3 O15 1.988 . S
Mg3 O16 2.061 . S
O4 Mg3 1.926 . S
O4 Mg5 1.986 1_655 S
O4 Mg6 1.917 1_655 S
Mg5 O4 1.986 1_455 S
Mg5 O12 2.042 . S
Mg5 O14 2.041 . S
Mg5 O20 2.038 . S
Mg5 O28 2.238 . S
Mg6 O4 1.917 1_455 S
Mg6 O7 1.917 . S
Mg6 O17 2.106 1_455 S
Mg6 O19 2.079 . S
Mg6 O28 2.106 . S
Mg6 O29 2.079 1_455 S
O7 Mg6 1.917 . S
O7 Mg8 1.926 . S
O7 Mg9 1.986 1_454 S
Mg8 O7 1.926 . S
Mg8 O22 1.984 1_554 S
Mg8 O25 1.988 . S
Mg8 O26 2.061 . S
Mg9 O7 1.986 1_656 S
Mg9 O17 2.238 1_556 S
Mg9 O21 2.042 . S
Mg9 O23 2.041 . S
Mg9 O30 2.038 . S
C10 O16 1.247 . S
C10 O17 1.289 . S
C11 O29 1.245 . S
C11 O30 1.274 1_554 S
O12 C0 1.241 1_455 S
O12 Mg5 2.042 . S
O13 C0 1.280 . S
O13 Mg3 1.984 . S
O14 C1 1.277 . S
O14 Mg5 2.041 . S
O15 C1 1.245 1_655 S
O15 Mg3 1.988 . S
O16 Mg3 2.061 . S
O16 C10 1.247 . S
O17 Mg6 2.106 1_655 S
O17 Mg9 2.238 1_554 S
O17 C10 1.289 . S
C18 O19 1.245 . S
C18 O20 1.274 . S
O19 Mg6 2.079 . S
O19 C18 1.245 . S
O20 Mg5 2.038 . S
O20 C18 1.274 . S
O21 Mg9 2.042 . S
O21 C24 1.241 1_655 S
O22 Mg8 1.984 1_556 S
O22 C24 1.280 . S
O23 Mg9 2.041 . S
O23 C27 1.277 1_556 S
C24 O21 1.241 1_455 S
C24 O22 1.280 . S
O25 Mg8 1.988 . S
O25 C27 1.245 1_455 S
O26 C2 1.247 . S
O26 Mg8 2.061 . S
C27 O23 1.277 1_554 S
C27 O25 1.245 1_655 S
O28 C2 1.289 . S
O28 Mg5 2.238 . S
O28 Mg6 2.106 . S
O29 Mg6 2.079 1_655 S
O29 C11 1.245 . S
O30 Mg9 2.038 . S
O30 C11 1.274 1_556 S
C31 O43 1.241 1_655 S
C31 O44 1.280 . S
C32 O45 1.277 1_556 S
C32 O46 1.245 1_455 S
C33 O57 1.247 . S
C33 O59 1.289 . S
Mg34 O35 1.926 . S
Mg34 O44 1.984 1_556 S
Mg34 O46 1.988 . S
Mg34 O47 2.061 . S
O35 Mg34 1.926 . S
O35 Mg36 1.986 1_656 S
O35 Mg37 1.917 1_655 S
Mg36 O35 1.986 1_454 S
Mg36 O43 2.042 . S
Mg36 O45 2.041 . S
Mg36 O51 2.038 . S
Mg36 O59 2.238 1_554 S
Mg37 O35 1.917 1_455 S
Mg37 O38 1.917 . S
Mg37 O48 2.106 1_455 S
Mg37 O50 2.079 . S
Mg37 O59 2.106 . S
Mg37 O60 2.079 1_455 S
O38 Mg37 1.917 . S
O38 Mg39 1.926 . S
O38 Mg40 1.986 1_455 S
Mg39 O38 1.926 . S
Mg39 O53 1.984 . S
Mg39 O56 1.988 . S
Mg39 O57 2.061 . S
Mg40 O38 1.986 1_655 S
Mg40 O48 2.238 . S
Mg40 O52 2.042 . S
Mg40 O54 2.041 . S
Mg40 O61 2.038 . S
C41 O47 1.247 . S
C41 O48 1.289 . S
C42 O60 1.245 . S
C42 O61 1.274 . S
O43 C31 1.241 1_455 S
O43 Mg36 2.042 . S
O44 C31 1.280 . S
O44 Mg34 1.984 1_554 S
O45 C32 1.277 1_554 S
O45 Mg36 2.041 . S
O46 C32 1.245 1_655 S
O46 Mg34 1.988 . S
O47 Mg34 2.061 . S
O47 C41 1.247 . S
O48 Mg37 2.106 1_655 S
O48 Mg40 2.238 . S
O48 C41 1.289 . S
C49 O50 1.245 . S
C49 O51 1.274 1_556 S
O50 Mg37 2.079 . S
O50 C49 1.245 . S
O51 Mg36 2.038 . S
O51 C49 1.274 1_554 S
O52 Mg40 2.042 . S
O52 C55 1.241 1_655 S
O53 Mg39 1.984 . S
O53 C55 1.280 . S
O54 Mg40 2.041 . S
O54 C58 1.277 . S
C55 O52 1.241 1_455 S
C55 O53 1.280 . S
O56 Mg39 1.988 . S
O56 C58 1.245 1_455 S
O57 C33 1.247 . S
O57 Mg39 2.061 . S
C58 O54 1.277 . S
C58 O56 1.245 1_655 S
O59 C33 1.289 . S
O59 Mg36 2.238 1_556 S
O59 Mg37 2.106 . S
O60 Mg37 2.079 1_655 S
O60 C42 1.245 . S
O61 Mg40 2.038 . S
O61 C42 1.274 . S
C62 O74 1.241 . S
C62 O75 1.280 . S
C63 O76 1.277 . S
C63 O77 1.245 . S
C64 O88 1.247 . S
C64 O90 1.289 . S
Mg65 O66 1.926 . S
Mg65 O75 1.984 . S
Mg65 O77 1.988 . S
Mg65 O78 2.061 . S
O66 Mg65 1.926 . S
O66 Mg67 1.986 . S
O66 Mg68 1.917 . S
Mg67 O66 1.986 . S
Mg67 O74 2.042 . S
Mg67 O76 2.041 . S
Mg67 O82 2.038 . S
Mg67 O90 2.238 . S
Mg68 O66 1.917 . S
Mg68 O69 1.917 . S
Mg68 O79 2.106 . S
Mg68 O81 2.079 . S
Mg68 O90 2.106 . S
Mg68 O91 2.079 . S
O69 Mg68 1.917 . S
O69 Mg70 1.926 . S
O69 Mg71 1.986 1_554 S
Mg70 O69 1.926 . S
Mg70 O84 1.984 1_554 S
Mg70 O87 1.988 . S
Mg70 O88 2.061 . S
Mg71 O69 1.986 1_556 S
Mg71 O79 2.238 1_556 S
Mg71 O83 2.042 . S
Mg71 O85 2.041 . S
Mg71 O92 2.038 . S
C72 O78 1.247 . S
C72 O79 1.289 . S
C73 O91 1.245 . S
C73 O92 1.274 1_554 S
O74 C62 1.241 . S
O74 Mg67 2.042 . S
O75 C62 1.280 . S
O75 Mg65 1.984 . S
O76 C63 1.277 . S
O76 Mg67 2.041 . S
O77 C63 1.245 . S
O77 Mg65 1.988 . S
O78 Mg65 2.061 . S
O78 C72 1.247 . S
O79 Mg68 2.106 . S
O79 Mg71 2.238 1_554 S
O79 C72 1.289 . S
C80 O81 1.245 . S
C80 O82 1.274 . S
O81 Mg68 2.079 . S
O81 C80 1.245 . S
O82 Mg67 2.038 . S
O82 C80 1.274 . S
O83 Mg71 2.042 . S
O83 C86 1.241 . S
O84 Mg70 1.984 1_556 S
O84 C86 1.280 . S
O85 Mg71 2.041 . S
O85 C89 1.277 1_556 S
C86 O83 1.241 . S
C86 O84 1.280 . S
O87 Mg70 1.988 . S
O87 C89 1.245 . S
O88 C64 1.247 . S
O88 Mg70 2.061 . S
C89 O85 1.277 1_554 S
C89 O87 1.245 . S
O90 C64 1.289 . S
O90 Mg67 2.238 . S
O90 Mg68 2.106 . S
O91 Mg68 2.079 . S
O91 C73 1.245 . S
O92 Mg71 2.038 . S
O92 C73 1.274 1_556 S
C93 O105 1.241 . S
C93 O106 1.280 . S
C94 O107 1.277 1_556 S
C94 O108 1.245 . S
C95 O119 1.247 . S
C95 O121 1.289 . S
Mg96 O97 1.926 . S
Mg96 O106 1.984 1_556 S
Mg96 O108 1.988 . S
Mg96 O109 2.061 . S
O97 Mg96 1.926 . S
O97 Mg98 1.986 1_556 S
O97 Mg99 1.917 . S
Mg98 O97 1.986 1_554 S
Mg98 O105 2.042 . S
Mg98 O107 2.041 . S
Mg98 O113 2.038 . S
Mg98 O121 2.238 1_554 S
Mg99 O97 1.917 . S
Mg99 O100 1.917 . S
Mg99 O110 2.106 . S
Mg99 O112 2.079 . S
Mg99 O121 2.106 . S
Mg99 O122 2.079 . S
O100 Mg99 1.917 . S
O100 Mg101 1.926 . S
O100 Mg102 1.986 . S
Mg101 O100 1.926 . S
Mg101 O115 1.984 . S
Mg101 O118 1.988 . S
Mg101 O119 2.061 . S
Mg102 O100 1.986 . S
Mg102 O110 2.238 . S
Mg102 O114 2.042 . S
Mg102 O116 2.041 . S
Mg102 O123 2.038 . S
C103 O109 1.247 . S
C103 O110 1.289 . S
C104 O122 1.245 . S
C104 O123 1.274 . S
O105 C93 1.241 . S
O105 Mg98 2.042 . S
O106 C93 1.280 . S
O106 Mg96 1.984 1_554 S
O107 C94 1.277 1_554 S
O107 Mg98 2.041 . S
O108 C94 1.245 . S
O108 Mg96 1.988 . S
O109 Mg96 2.061 . S
O109 C103 1.247 . S
O110 Mg99 2.106 . S
O110 Mg102 2.238 . S
O110 C103 1.289 . S
C111 O112 1.245 . S
C111 O113 1.274 1_556 S
O112 Mg99 2.079 . S
O112 C111 1.245 . S
O113 Mg98 2.038 . S
O113 C111 1.274 1_554 S
O114 Mg102 2.042 . S
O114 C117 1.241 . S
O115 Mg101 1.984 . S
O115 C117 1.280 . S
O116 Mg102 2.041 . S
O116 C120 1.277 . S
C117 O114 1.241 . S
C117 O115 1.280 . S
O118 Mg101 1.988 . S
O118 C120 1.245 . S
O119 C95 1.247 . S
O119 Mg101 2.061 . S
C120 O116 1.277 . S
C120 O118 1.245 . S
O121 C95 1.289 . S
O121 Mg98 2.238 1_556 S
O121 Mg99 2.106 . S
O122 Mg99 2.079 . S
O122 C104 1.245 . S
O123 Mg102 2.038 . S
O123 C104 1.274 . S
C24 C0 0.839 1_455 S
C55 C31 0.839 1_455 S
C86 C62 0.839 . S
C93 C117 0.839 . S
C10 C2 1.250 . S
C41 C33 1.250 . S
C64 C72 1.250 1_655 S
C95 C103 1.250 1_655 S
C104 C18 1.833 . S
C94 C27 2.128 1_556 S
C80 C42 1.833 . S
C89 C32 2.129 1_554 S
C11 C49 3.364 1_644 S
C1 C58 1.983 1_445 S
C73 C111 3.364 1_554 S
C120 C63 1.983 . S
