# Generated by pormake.
# Topology qtz, (4)-cn, num edge types: 1
# Building blocks:
#     Node 0, Type 0, BuildingBlock: CEKHIL_clean_sbu_0, # of connection points: 4
#     Node 1, Type 0, BuildingBlock: CEKHIL_clean_sbu_0, # of connection points: 4
#     Node 2, Type 0, BuildingBlock: CEKHIL_clean_sbu_0, # of connection points: 4
#     Edge 3, Type (0, 0), BuildingBlock: KIFKEQ_clean_linker_1, # of connection points: 2
#     Edge 4, Type (0, 0), BuildingBlock: KIFKEQ_clean_linker_1, # of connection points: 2
#     Edge 5, Type (0, 0), BuildingBlock: KIFKEQ_clean_linker_1, # of connection points: 2
#     Edge 6, Type (0, 0), BuildingBlock: KIFKEQ_clean_linker_1, # of connection points: 2
#     Edge 7, Type (0, 0), BuildingBlock: KIFKEQ_clean_linker_1, # of connection points: 2
#     Edge 8, Type (0, 0), BuildingBlock: KIFKEQ_clean_linker_1, # of connection points: 2
# Relax obj value: 0.004
# Max RMSD: 0.040
# Mean RMSD: 0.037
data_MOF--net-qtz--node1-CEKHIL_clean_sbu_0--edge1-KIFKEQ_clean_linker_1
_symmetry_space_group_name_H-M    P1
_symmetry_Int_Tables_number       1
_symmetry_cell_setting            triclinic
loop_
_symmetry_equiv_pos_as_xyz
'x, y, z'
_cell_length_a     23.404544
_cell_length_b     23.543085
_cell_length_c     28.756289
_cell_angle_alpha  91.652012
_cell_angle_beta   90.102063
_cell_angle_gamma 120.56535
loop_
_atom_site_label
_atom_site_type_symbol
_atom_site_fract_x
_atom_site_fract_y
_atom_site_fract_z
_atom_type_partial_charge
Co0 Co 0.01585 0.52154 0.16046 0.0
O1 O 0.08607 0.56938 0.11739 0.0
O2 O 0.07258 0.48363 0.15586 0.0
C3 C 0.93467 0.51316 0.11257 0.0
O4 O 0.94726 0.45773 0.20618 0.0
Co5 Co 0.93276 0.58027 0.19875 0.0
O6 O 0.87148 0.48838 0.21702 0.0
C7 C 0.06836 0.62942 0.23677 0.0
C8 C 0.10539 0.52772 0.12505 0.0
C9 C 0.89109 0.44727 0.22166 0.0
O10 O 0.07204 0.5839 0.21338 0.0
O11 O 0.01918 0.63873 0.23293 0.0
O12 O 0.95542 0.47157 0.10859 0.0
O13 O 0.96631 0.56073 0.14305 0.0
Co14 Co 0.53283 0.02438 0.52905 0.0
O15 O 0.49732 0.96503 0.57939 0.0
O16 O 0.5771 0.97314 0.53414 0.0
C17 C 0.54314 0.11145 0.57174 0.0
O18 O 0.5836 0.08461 0.47512 0.0
Co19 Co 0.45306 0.08822 0.49393 0.0
O20 O 0.53752 0.14689 0.46276 0.0
C21 C 0.40699 0.94868 0.46975 0.0
C22 C 0.54004 0.94716 0.57019 0.0
C23 C 0.58318 0.13334 0.45575 0.0
O24 O 0.46238 0.95572 0.48456 0.0
O25 O 0.3916 0.99344 0.47489 0.0
O26 O 0.58928 0.09637 0.57355 0.0
O27 O 0.49137 0.07124 0.54708 0.0
Co28 Co 0.51577 0.52588 0.82681 0.0
O29 O 0.47814 0.55194 0.77843 0.0
O30 O 0.55983 0.62202 0.82565 0.0
C31 C 0.52653 0.45249 0.78086 0.0
O32 O 0.56901 0.51482 0.87896 0.0
Co33 Co 0.43883 0.37989 0.85654 0.0
O34 O 0.52395 0.40571 0.88852 0.0
C35 C 0.39725 0.47216 0.89199 0.0
C36 C 0.52186 0.61255 0.78953 0.0
C37 C 0.56939 0.46541 0.8971 0.0
O38 O 0.44769 0.52083 0.87296 0.0
O39 O 0.38268 0.41209 0.88617 0.0
O40 O 0.57129 0.5147 0.78119 0.0
O41 O 0.47458 0.43766 0.80499 0.0
H42 H 0.42119 0.59144 0.93008 0.0
H43 H 0.27954 0.3819 0.92941 0.0
H44 H 0.35741 0.6094 0.99006 0.0
H45 H 0.21599 0.39998 0.98827 0.0
H46 H 0.14818 0.43875 0.12512 0.0
H47 H 0.22275 0.42979 0.07 0.0
H48 H 0.25221 0.6043 1.00287 0.0
H49 H 0.17909 0.61406 0.05849 0.0
C50 C 0.3762 0.54935 0.94223 0.0
C51 C 0.35587 0.48521 0.92491 0.0
C52 C 0.33966 0.55962 0.9767 0.0
C53 C 0.28204 0.50599 0.9946 0.0
C54 C 0.26098 0.44226 0.97629 0.0
C55 C 0.29728 0.43202 0.94205 0.0
C56 C 0.17145 0.47578 0.09909 0.0
C57 C 0.15732 0.52682 0.09607 0.0
C58 C 0.21374 0.47036 0.06718 0.0
C59 C 0.24281 0.51582 0.03149 0.0
C60 C 0.23107 0.56863 0.02995 0.0
C61 C 0.18884 0.57403 0.06182 0.0
H62 H 0.92815 0.38014 0.2803 0.0
H63 H 0.75709 0.38156 0.2255 0.0
H64 H 0.85704 0.2977 0.33664 0.0
H65 H 0.68674 0.29927 0.28044 0.0
H66 H 0.60925 0.25181 0.42487 0.0
H67 H 0.68515 0.31779 0.36574 0.0
H68 H 0.75392 0.17954 0.35066 0.0
H69 H 0.67644 0.11181 0.41118 0.0
C70 C 0.87526 0.36155 0.27941 0.0
C71 C 0.84835 0.38814 0.24901 0.0
C72 C 0.8346 0.31441 0.31164 0.0
C73 C 0.76652 0.2931 0.31369 0.0
C74 C 0.73924 0.31587 0.28059 0.0
C75 C 0.77957 0.36293 0.24895 0.0
C76 C 0.64025 0.23483 0.40926 0.0
C77 C 0.6356 0.17554 0.42249 0.0
C78 C 0.68382 0.27286 0.37504 0.0
C79 C 0.7245 0.25321 0.35262 0.0
C80 C 0.72276 0.19568 0.36711 0.0
C81 C 0.67848 0.15699 0.40173 0.0
H82 H 0.58665 0.8622 0.55175 0.0
H83 H 0.51112 0.93348 0.66153 0.0
H84 H 0.59062 0.78495 0.60583 0.0
H85 H 0.51647 0.85813 0.71521 0.0
H86 H 0.58745 0.74715 0.80823 0.0
H87 H 0.60175 0.83313 0.75479 0.0
H88 H 0.49463 0.68381 0.6471 0.0
H89 H 0.4791 0.5986 0.70009 0.0
C90 C 0.57178 0.86196 0.58742 0.0
C91 C 0.54788 0.90327 0.60224 0.0
C92 C 0.57397 0.81787 0.61832 0.0
C93 C 0.55399 0.81574 0.66479 0.0
C94 C 0.53275 0.85904 0.67985 0.0
C95 C 0.52915 0.90175 0.64888 0.0
C96 C 0.567 0.73291 0.77318 0.0
C97 C 0.5315 0.66606 0.75864 0.0
C98 C 0.57531 0.78198 0.74259 0.0
C99 C 0.54976 0.76509 0.69663 0.0
C100 C 0.51562 0.69842 0.68201 0.0
C101 C 0.50611 0.64957 0.71268 0.0
H102 H 0.57732 0.37298 0.94697 0.0
H103 H 0.68383 0.58235 0.92269 0.0
H104 H 0.66465 0.38744 0.99956 0.0
H105 H 0.77296 0.59654 0.97558 0.0
H106 H 0.86358 0.41908 0.0454 0.0
H107 H 0.77781 0.41192 0.99352 0.0
H108 H 0.79807 0.58891 0.05892 0.0
H109 H 0.8853 0.59673 0.11064 0.0
C110 C 0.61956 0.42231 0.95259 0.0
C111 C 0.62352 0.47649 0.93004 0.0
C112 C 0.66998 0.43045 0.98278 0.0
C113 C 0.72626 0.49295 0.99139 0.0
C114 C 0.73005 0.54769 0.96978 0.0
C115 C 0.67917 0.53954 0.93932 0.0
C116 C 0.8497 0.45641 0.04888 0.0
C117 C 0.88097 0.50823 0.08231 0.0
C118 C 0.80034 0.45223 0.01919 0.0
C119 C 0.78077 0.49968 0.02219 0.0
C120 C 0.81238 0.55191 0.05544 0.0
C121 C 0.8619 0.55605 0.0853 0.0
H122 H 0.43253 0.87819 0.40367 0.0
H123 H 0.27334 0.88474 0.47422 0.0
H124 H 0.35191 0.79522 0.34759 0.0
H125 H 0.1931 0.80092 0.41988 0.0
H126 H 0.08719 0.74147 0.28127 0.0
H127 H 0.16979 0.80947 0.34006 0.0
H128 H 0.25424 0.68371 0.33022 0.0
H129 H 0.17133 0.61538 0.26984 0.0
C130 C 0.38018 0.86032 0.40803 0.0
C131 C 0.35913 0.88838 0.44284 0.0
C132 C 0.33402 0.81296 0.37592 0.0
C133 C 0.2662 0.79272 0.3785 0.0
C134 C 0.24511 0.81691 0.41591 0.0
C135 C 0.291 0.86453 0.44735 0.0
C136 C 0.12316 0.72792 0.29142 0.0
C137 C 0.12198 0.67238 0.27096 0.0
C138 C 0.17044 0.76683 0.32555 0.0
C139 C 0.2179 0.75133 0.3407 0.0
C140 C 0.21827 0.69692 0.31943 0.0
C141 C 0.17072 0.65778 0.28488 0.0
H142 H 0.43434 0.3221 0.76706 0.0
H143 H 0.63304 0.47094 0.7305 0.0
H144 H 0.44189 0.24183 0.7158 0.0
H145 H 0.64041 0.39057 0.67899 0.0
H146 H 0.64408 0.20148 0.62922 0.0
H147 H 0.64285 0.28501 0.68127 0.0
H148 H 0.44659 0.22758 0.6299 0.0
H149 H 0.44761 0.14433 0.57825 0.0
C150 C 0.47975 0.33754 0.74828 0.0
C151 C 0.53295 0.40282 0.75256 0.0
C152 C 0.48392 0.29174 0.71872 0.0
C153 C 0.54152 0.31018 0.69308 0.0
C154 C 0.59553 0.37495 0.69847 0.0
C155 C 0.59118 0.42094 0.72781 0.0
C156 C 0.60102 0.20724 0.62879 0.0
C157 C 0.54583 0.16621 0.59987 0.0
C158 C 0.60034 0.25502 0.65851 0.0
C159 C 0.54427 0.26217 0.66002 0.0
C160 C 0.48997 0.22234 0.6301 0.0
C161 C 0.49081 0.17502 0.60026 0.0
loop_
_geom_bond_atom_site_label_1
_geom_bond_atom_site_label_2
_geom_bond_distance
_geom_bond_site_symmetry_2
_ccdc_geom_bond_type
Co0 O1 2.216 . S
Co0 O2 2.091 . S
Co0 O4 2.004 1_455 S
Co0 O10 2.021 . S
Co0 O12 2.137 1_455 S
Co0 O13 2.244 1_455 S
O1 Co0 2.216 . S
O1 C8 1.247 . S
O2 Co0 2.091 . S
O2 C8 1.261 . S
C3 O12 1.247 . S
C3 O13 1.272 . S
O4 Co0 2.004 1_655 S
O4 C9 1.259 . S
Co5 O6 2.061 . S
Co5 O11 2.052 1_655 S
Co5 O13 2.135 . S
O6 Co5 2.061 . S
O6 C9 1.235 . S
C7 O10 1.238 . S
C7 O11 1.241 . S
C8 O1 1.247 . S
C8 O2 1.261 . S
C9 O4 1.259 . S
C9 O6 1.235 . S
O10 Co0 2.021 . S
O10 C7 1.238 . S
O11 Co5 2.052 1_455 S
O11 C7 1.241 . S
O12 Co0 2.137 1_655 S
O12 C3 1.247 . S
O13 Co0 2.244 1_655 S
O13 C3 1.272 . S
O13 Co5 2.135 . S
Co14 O15 2.216 1_545 S
Co14 O16 2.091 1_545 S
Co14 O18 2.004 . S
Co14 O24 2.021 1_545 S
Co14 O26 2.137 . S
Co14 O27 2.244 . S
O15 Co14 2.216 1_565 S
O15 C22 1.247 . S
O16 Co14 2.091 1_565 S
O16 C22 1.261 . S
C17 O26 1.247 . S
C17 O27 1.272 . S
O18 Co14 2.004 . S
O18 C23 1.259 . S
Co19 O20 2.061 . S
Co19 O25 2.052 1_545 S
Co19 O27 2.135 . S
O20 Co19 2.061 . S
O20 C23 1.235 . S
C21 O24 1.238 . S
C21 O25 1.241 . S
C22 O15 1.247 . S
C22 O16 1.261 . S
C23 O18 1.259 . S
C23 O20 1.235 . S
O24 Co14 2.021 1_565 S
O24 C21 1.238 . S
O25 Co19 2.052 1_565 S
O25 C21 1.241 . S
O26 Co14 2.137 . S
O26 C17 1.247 . S
O27 Co14 2.244 . S
O27 C17 1.272 . S
O27 Co19 2.135 . S
Co28 O29 2.216 . S
Co28 O30 2.091 . S
Co28 O32 2.004 . S
Co28 O38 2.021 . S
Co28 O40 2.137 . S
Co28 O41 2.244 . S
O29 Co28 2.216 . S
O29 C36 1.247 . S
O30 Co28 2.091 . S
O30 C36 1.261 . S
C31 O40 1.247 . S
C31 O41 1.272 . S
O32 Co28 2.004 . S
O32 C37 1.259 . S
Co33 O34 2.061 . S
Co33 O39 2.052 . S
Co33 O41 2.135 . S
O34 Co33 2.061 . S
O34 C37 1.235 . S
C35 O38 1.238 . S
C35 O39 1.241 . S
C36 O29 1.247 . S
C36 O30 1.261 . S
C37 O32 1.259 . S
C37 O34 1.235 . S
O38 Co28 2.021 . S
O38 C35 1.238 . S
O39 Co33 2.052 . S
O39 C35 1.241 . S
O40 Co28 2.137 . S
O40 C31 1.247 . S
O41 Co28 2.244 . S
O41 C31 1.272 . S
O41 Co33 2.135 . S
H42 C50 0.950 . S
H43 C55 0.950 . S
H44 C52 0.950 . S
H45 C54 0.950 . S
H46 C56 0.950 . S
H47 C58 0.950 1_556 S
H48 C60 0.950 . S
H49 C61 0.950 . S
C50 H42 0.950 . S
C50 C51 1.386 . S
C50 C52 1.391 . S
C51 C50 1.386 . S
C51 C55 1.393 . S
C52 H44 0.950 . S
C52 C50 1.391 . S
C52 C53 1.400 . S
C53 C52 1.400 . S
C53 C54 1.398 . S
C53 C59 1.491 1_556 S
C54 H45 0.950 . S
C54 C53 1.398 . S
C54 C55 1.391 . S
C55 H43 0.950 . S
C55 C51 1.393 . S
C55 C54 1.391 . S
C56 H46 0.950 . S
C56 C57 1.386 . S
C56 C58 1.391 . S
C57 C56 1.386 . S
C57 C61 1.393 . S
C58 H47 0.950 1_554 S
C58 C56 1.391 . S
C58 C59 1.400 . S
C59 C53 1.491 1_554 S
C59 C58 1.400 . S
C59 C60 1.398 . S
C60 H48 0.950 . S
C60 C59 1.398 . S
C60 C61 1.391 . S
C61 H49 0.950 . S
C61 C57 1.393 . S
C61 C60 1.391 . S
H62 C70 0.950 . S
H63 C75 0.950 . S
H64 C72 0.950 . S
H65 C74 0.950 . S
H66 C76 0.950 . S
H67 C78 0.950 . S
H68 C80 0.950 . S
H69 C81 0.950 . S
C70 H62 0.950 . S
C70 C71 1.386 . S
C70 C72 1.391 . S
C71 C70 1.386 . S
C71 C75 1.393 . S
C72 H64 0.950 . S
C72 C70 1.391 . S
C72 C73 1.400 . S
C73 C72 1.400 . S
C73 C74 1.398 . S
C73 C79 1.491 . S
C74 H65 0.950 . S
C74 C73 1.398 . S
C74 C75 1.391 . S
C75 H63 0.950 . S
C75 C71 1.393 . S
C75 C74 1.391 . S
C76 H66 0.950 . S
C76 C77 1.386 . S
C76 C78 1.391 . S
C77 C76 1.386 . S
C77 C81 1.393 . S
C78 H67 0.950 . S
C78 C76 1.391 . S
C78 C79 1.400 . S
C79 C73 1.491 . S
C79 C78 1.400 . S
C79 C80 1.398 . S
C80 H68 0.950 . S
C80 C79 1.398 . S
C80 C81 1.391 . S
C81 H69 0.950 . S
C81 C77 1.393 . S
C81 C80 1.391 . S
H82 C90 0.950 . S
H83 C95 0.950 . S
H84 C92 0.950 . S
H85 C94 0.950 . S
H86 C96 0.950 . S
H87 C98 0.950 . S
H88 C100 0.950 . S
H89 C101 0.950 . S
C90 H82 0.950 . S
C90 C91 1.386 . S
C90 C92 1.391 . S
C91 C90 1.386 . S
C91 C95 1.393 . S
C92 H84 0.950 . S
C92 C90 1.391 . S
C92 C93 1.400 . S
C93 C92 1.400 . S
C93 C94 1.398 . S
C93 C99 1.491 . S
C94 H85 0.950 . S
C94 C93 1.398 . S
C94 C95 1.391 . S
C95 H83 0.950 . S
C95 C91 1.393 . S
C95 C94 1.391 . S
C96 H86 0.950 . S
C96 C97 1.386 . S
C96 C98 1.391 . S
C97 C96 1.386 . S
C97 C101 1.393 . S
C98 H87 0.950 . S
C98 C96 1.391 . S
C98 C99 1.400 . S
C99 C93 1.491 . S
C99 C98 1.400 . S
C99 C100 1.398 . S
C100 H88 0.950 . S
C100 C99 1.398 . S
C100 C101 1.391 . S
C101 H89 0.950 . S
C101 C97 1.393 . S
C101 C100 1.391 . S
H102 C110 0.950 . S
H103 C115 0.950 . S
H104 C112 0.950 1_554 S
H105 C114 0.950 . S
H106 C116 0.950 . S
H107 C118 0.950 1_556 S
H108 C120 0.950 . S
H109 C121 0.950 . S
C110 H102 0.950 . S
C110 C111 1.386 . S
C110 C112 1.391 . S
C111 C110 1.386 . S
C111 C115 1.393 . S
C112 H104 0.950 1_556 S
C112 C110 1.391 . S
C112 C113 1.400 . S
C113 C112 1.400 . S
C113 C114 1.398 . S
C113 C119 1.491 1_556 S
C114 H105 0.950 . S
C114 C113 1.398 . S
C114 C115 1.391 . S
C115 H103 0.950 . S
C115 C111 1.393 . S
C115 C114 1.391 . S
C116 H106 0.950 . S
C116 C117 1.386 . S
C116 C118 1.391 . S
C117 C116 1.386 . S
C117 C121 1.393 . S
C118 H107 0.950 1_554 S
C118 C116 1.391 . S
C118 C119 1.400 . S
C119 C113 1.491 1_554 S
C119 C118 1.400 . S
C119 C120 1.398 . S
C120 H108 0.950 . S
C120 C119 1.398 . S
C120 C121 1.391 . S
C121 H109 0.950 . S
C121 C117 1.393 . S
C121 C120 1.391 . S
H122 C130 0.950 . S
H123 C135 0.950 . S
H124 C132 0.950 . S
H125 C134 0.950 . S
H126 C136 0.950 . S
H127 C138 0.950 . S
H128 C140 0.950 . S
H129 C141 0.950 . S
C130 H122 0.950 . S
C130 C131 1.386 . S
C130 C132 1.391 . S
C131 C130 1.386 . S
C131 C135 1.393 . S
C132 H124 0.950 . S
C132 C130 1.391 . S
C132 C133 1.400 . S
C133 C132 1.400 . S
C133 C134 1.398 . S
C133 C139 1.491 . S
C134 H125 0.950 . S
C134 C133 1.398 . S
C134 C135 1.391 . S
C135 H123 0.950 . S
C135 C131 1.393 . S
C135 C134 1.391 . S
C136 H126 0.950 . S
C136 C137 1.386 . S
C136 C138 1.391 . S
C137 C136 1.386 . S
C137 C141 1.393 . S
C138 H127 0.950 . S
C138 C136 1.391 . S
C138 C139 1.400 . S
C139 C133 1.491 . S
C139 C138 1.400 . S
C139 C140 1.398 . S
C140 H128 0.950 . S
C140 C139 1.398 . S
C140 C141 1.391 . S
C141 H129 0.950 . S
C141 C137 1.393 . S
C141 C140 1.391 . S
H142 C150 0.950 . S
H143 C155 0.950 . S
H144 C152 0.950 . S
H145 C154 0.950 . S
H146 C156 0.950 . S
H147 C158 0.950 . S
H148 C160 0.950 . S
H149 C161 0.950 . S
C150 H142 0.950 . S
C150 C151 1.386 . S
C150 C152 1.391 . S
C151 C150 1.386 . S
C151 C155 1.393 . S
C152 H144 0.950 . S
C152 C150 1.391 . S
C152 C153 1.400 . S
C153 C152 1.400 . S
C153 C154 1.398 . S
C153 C159 1.491 . S
C154 H145 0.950 . S
C154 C153 1.398 . S
C154 C155 1.391 . S
C155 H143 0.950 . S
C155 C151 1.393 . S
C155 C154 1.391 . S
C156 H146 0.950 . S
C156 C157 1.386 . S
C156 C158 1.391 . S
C157 C156 1.386 . S
C157 C161 1.393 . S
C158 H147 0.950 . S
C158 C156 1.391 . S
C158 C159 1.400 . S
C159 C153 1.491 . S
C159 C158 1.400 . S
C159 C160 1.398 . S
C160 H148 0.950 . S
C160 C159 1.398 . S
C160 C161 1.391 . S
C161 H149 0.950 . S
C161 C157 1.393 . S
C161 C160 1.391 . S
C51 C35 1.432 . S
C57 C8 1.446 . S
C71 C9 1.481 . S
C77 C23 1.495 . S
C91 C22 1.457 . S
C97 C36 1.459 . S
C111 C37 1.449 . S
C117 C3 1.472 . S
C131 C21 1.422 . S
C137 C7 1.414 . S
C151 C31 1.431 . S
C157 C17 1.435 . S
