# Generated by pormake.
# Topology sxa, (6)-cn, num edge types: 1
# Building blocks:
#     Node 0, Type 0, BuildingBlock: IZENUY_clean_sbu_0, # of connection points: 6
#     Node 1, Type 0, BuildingBlock: IZENUY_clean_sbu_0, # of connection points: 6
#     Node 2, Type 0, BuildingBlock: IZENUY_clean_sbu_0, # of connection points: 6
#     Node 3, Type 0, BuildingBlock: IZENUY_clean_sbu_0, # of connection points: 6
#     Edge 4, Type (0, 0), BuildingBlock: EYOCIG_clean_linker_4, # of connection points: 2
#     Edge 5, Type (0, 0), BuildingBlock: EYOCIG_clean_linker_4, # of connection points: 2
#     Edge 6, Type (0, 0), BuildingBlock: EYOCIG_clean_linker_4, # of connection points: 2
#     Edge 7, Type (0, 0), BuildingBlock: EYOCIG_clean_linker_4, # of connection points: 2
#     Edge 8, Type (0, 0), BuildingBlock: EYOCIG_clean_linker_4, # of connection points: 2
#     Edge 9, Type (0, 0), BuildingBlock: EYOCIG_clean_linker_4, # of connection points: 2
#     Edge 10, Type (0, 0), BuildingBlock: EYOCIG_clean_linker_4, # of connection points: 2
#     Edge 11, Type (0, 0), BuildingBlock: EYOCIG_clean_linker_4, # of connection points: 2
#     Edge 12, Type (0, 0), BuildingBlock: EYOCIG_clean_linker_4, # of connection points: 2
#     Edge 13, Type (0, 0), BuildingBlock: EYOCIG_clean_linker_4, # of connection points: 2
#     Edge 14, Type (0, 0), BuildingBlock: EYOCIG_clean_linker_4, # of connection points: 2
#     Edge 15, Type (0, 0), BuildingBlock: EYOCIG_clean_linker_4, # of connection points: 2
# Relax obj value: 0.274
# Max RMSD: 0.267
# Mean RMSD: 0.267
data_MOF--net-sxa--node1-IZENUY_clean_sbu_0--edge1-EYOCIG_clean_linker_4
_symmetry_space_group_name_H-M    P1
_symmetry_Int_Tables_number       1
_symmetry_cell_setting            triclinic
loop_
_symmetry_equiv_pos_as_xyz
'x, y, z'
_cell_length_a     19.306112
_cell_length_b     21.614669
_cell_length_c     13.364425
_cell_angle_alpha  89.994801
_cell_angle_beta   90.027733
_cell_angle_gamma 89.978431
loop_
_atom_site_label
_atom_site_type_symbol
_atom_site_fract_x
_atom_site_fract_y
_atom_site_fract_z
_atom_type_partial_charge
Fe0 Fe 0.01677 0.87721 0.35545 0.0
Fe1 Fe -0.00561 0.73455 0.35569 0.0
O2 O 0.00557 0.80584 0.29037 0.0
Fe3 Fe 0.00553 0.80577 0.15742 0.0
O4 O 0.09434 0.83082 0.15555 0.0
O5 O 0.08019 0.90732 0.26439 0.0
O6 O 0.09125 0.84795 0.4235 0.0
C7 C 0.10026 0.79648 0.46541 0.0
C8 C 0.94298 0.92223 0.19793 0.0
O9 O 0.05633 0.75314 0.45703 0.0
C10 C 0.89624 0.73152 0.19701 0.0
O11 O 0.95486 0.85875 0.45682 0.0
O12 O 0.91994 0.7639 0.42362 0.0
O13 O 0.9756 0.88583 0.14146 0.0
O14 O 0.94426 0.91445 0.29128 0.0
C15 C 0.06812 0.68936 0.19836 0.0
O16 O 0.93095 0.70433 0.26471 0.0
O17 O 0.91673 0.7807 0.15561 0.0
C18 C 0.91094 0.81541 0.46536 0.0
O19 O 0.06688 0.69724 0.29168 0.0
O20 O 0.03547 0.72568 0.14175 0.0
C21 C 0.11487 0.88004 0.1968 0.0
Fe22 Fe 0.5055 0.30579 0.15742 0.0
Fe23 Fe 0.51669 0.37723 0.35546 0.0
O24 O 0.50549 0.30586 0.29037 0.0
Fe25 Fe 0.4943 0.23457 0.35568 0.0
O26 O 0.56681 0.19726 0.29169 0.0
O27 O 0.53543 0.22571 0.14175 0.0
O28 O 0.5943 0.33085 0.15559 0.0
C29 C 0.61482 0.38006 0.19686 0.0
C30 C 0.39619 0.23154 0.19695 0.0
O31 O 0.58013 0.40734 0.26443 0.0
C32 C 0.41083 0.31542 0.46532 0.0
O33 O 0.47556 0.38586 0.14145 0.0
O34 O 0.44419 0.41447 0.29126 0.0
O35 O 0.43089 0.20435 0.26466 0.0
O36 O 0.41669 0.28072 0.15556 0.0
C37 C 0.60015 0.29649 0.46545 0.0
O38 O 0.45475 0.35876 0.45681 0.0
O39 O 0.41984 0.26391 0.42358 0.0
C40 C 0.44293 0.42225 0.19792 0.0
O41 O 0.59115 0.34796 0.42355 0.0
O42 O 0.55623 0.25315 0.45705 0.0
C43 C 0.56807 0.18938 0.19837 0.0
Fe44 Fe 0.0056 0.30578 1.00511 0.0
Fe45 Fe -0.00566 0.37723 0.80706 0.0
O46 O 0.00559 0.30586 0.87217 0.0
Fe47 Fe 0.01683 0.23457 0.80686 0.0
O48 O 0.94435 0.19727 0.87084 0.0
O49 O 0.9757 0.2257 1.02079 0.0
O50 O 0.91678 0.33086 1.00695 0.0
C51 C 0.89623 0.38008 0.96569 0.0
C52 C 0.11494 0.23151 0.96558 0.0
O53 O 0.9309 0.40735 0.8981 0.0
C54 C 0.10024 0.31542 0.6972 0.0
O55 O 0.0355 0.38583 1.02106 0.0
O56 O 0.06683 0.41445 0.87124 0.0
O57 O 0.08026 0.20433 0.89787 0.0
O58 O 0.09441 0.28069 1.00696 0.0
C59 C 0.91093 0.29651 0.6971 0.0
O60 O 0.05628 0.35875 0.7057 0.0
O61 O 0.09128 0.2639 0.73896 0.0
C62 C 0.06811 0.42222 0.96458 0.0
O63 O 0.91989 0.34797 0.73901 0.0
O64 O 0.95489 0.25317 0.70549 0.0
C65 C 0.94308 0.18939 0.96417 0.0
Fe66 Fe 0.49443 0.87725 0.80705 0.0
Fe67 Fe 0.51691 0.73459 0.80687 0.0
O68 O 0.50566 0.80588 0.87217 0.0
Fe69 Fe 0.50564 0.8058 1.00511 0.0
O70 O 0.41682 0.83088 1.00691 0.0
O71 O 0.43096 0.90737 0.89806 0.0
O72 O 0.41999 0.84798 0.73897 0.0
C73 C 0.41103 0.79652 0.69706 0.0
C74 C 0.56816 0.92224 0.9646 0.0
O75 O 0.455 0.75318 0.70547 0.0
C76 C 0.61499 0.73153 0.96564 0.0
O77 O 0.55639 0.85877 0.70572 0.0
O78 O 0.59138 0.76392 0.73901 0.0
O79 O 0.53553 0.88586 1.02107 0.0
O80 O 0.5669 0.91447 0.87125 0.0
C81 C 0.44312 0.68942 0.96415 0.0
O82 O 0.58033 0.70435 0.89792 0.0
O83 O 0.59445 0.78071 1.00701 0.0
C84 C 0.60035 0.81543 0.69724 0.0
O85 O 0.44442 0.69729 0.87083 0.0
O86 O 0.47574 0.72573 1.02079 0.0
C87 C 0.39627 0.8801 0.96562 0.0
C88 C 0.10179 0.52805 1.05265 0.0
C89 C 0.08867 0.48141 1.00576 0.0
C90 C 0.10181 0.58344 0.11056 0.0
C91 C 0.08871 0.63012 0.15738 0.0
C92 C 0.40932 0.52813 0.10984 0.0
C93 C 0.4224 0.48147 0.15674 0.0
C94 C 0.40936 0.58353 1.05194 0.0
C95 C 0.4225 0.6302 1.00513 0.0
C96 C 0.6018 1.02809 1.05267 0.0
C97 C 0.5887 0.98144 1.00578 0.0
C98 C 0.6018 0.08347 0.11058 0.0
C99 C 0.58868 0.13015 0.1574 0.0
C100 C 0.90933 1.0281 0.10987 0.0
C101 C 0.92243 0.98144 0.15676 0.0
C102 C 0.90934 0.08349 1.05196 0.0
C103 C 0.92247 0.13017 1.00515 0.0
C104 C 0.28954 0.78365 0.60328 0.0
C105 C 0.34585 0.78633 0.64447 0.0
C106 C 0.22177 0.78364 0.55918 0.0
C107 C 0.16546 0.7863 0.518 0.0
C108 C 0.22166 0.32831 0.60335 0.0
C109 C 0.16539 0.32563 0.64457 0.0
C110 C 0.28939 0.32831 0.55916 0.0
C111 C 0.34567 0.32563 0.51795 0.0
C112 C 0.78942 0.28365 0.60334 0.0
C113 C 0.84573 0.28633 0.64452 0.0
C114 C 0.72166 0.28364 0.55924 0.0
C115 C 0.66535 0.28631 0.51805 0.0
C116 C 0.78951 0.82831 0.55922 0.0
C117 C 0.84578 0.82563 0.518 0.0
C118 C 0.72178 0.82831 0.60341 0.0
C119 C 0.6655 0.82563 0.64462 0.0
C120 C 0.28543 0.92318 1.05168 0.0
C121 C 0.33626 0.90899 1.00579 0.0
C122 C 0.22564 0.92315 0.11064 0.0
C123 C 0.17484 0.90893 0.15656 0.0
C124 C 0.2257 0.18825 1.05173 0.0
C125 C 0.17491 0.20253 1.00578 0.0
C126 C 0.28549 0.18827 0.11077 0.0
C127 C 0.33626 0.20257 0.15673 0.0
C128 C 0.72561 0.42316 0.11076 0.0
C129 C 0.67481 0.40895 0.15666 0.0
C130 C 0.78541 0.42317 1.0518 0.0
C131 C 0.83622 0.40897 1.00589 0.0
C132 C 0.78551 0.68826 0.11089 0.0
C133 C 0.83629 0.70255 0.15683 0.0
C134 C 0.72573 0.68826 1.05185 0.0
C135 C 0.67495 0.70255 1.00588 0.0
loop_
_geom_bond_atom_site_label_1
_geom_bond_atom_site_label_2
_geom_bond_distance
_geom_bond_site_symmetry_2
_ccdc_geom_bond_type
Fe0 O2 1.918 . S
Fe0 O5 1.997 . S
Fe0 O6 2.002 . S
Fe0 O11 1.976 1_455 S
Fe0 O14 1.996 . S
Fe1 O2 1.918 1_655 S
Fe1 O9 1.997 1_655 S
Fe1 O12 1.996 . S
Fe1 O16 1.976 . S
Fe1 O19 2.002 . S
O2 Fe0 1.918 . S
O2 Fe1 1.918 1_455 S
O2 Fe3 1.918 . S
Fe3 O2 1.918 . S
Fe3 O4 2.002 . S
Fe3 O13 1.976 1_455 S
Fe3 O17 1.996 1_455 S
Fe3 O20 1.997 . S
O4 Fe3 2.002 . S
O4 C21 1.295 . S
O5 Fe0 1.997 . S
O5 C21 1.235 . S
O6 Fe0 2.002 . S
O6 C7 1.295 . S
C7 O6 1.295 . S
C7 O9 1.235 . S
C8 O13 1.287 1_455 S
C8 O14 1.255 . S
O9 Fe1 1.997 1_455 S
O9 C7 1.235 . S
C10 O16 1.287 . S
C10 O17 1.255 . S
O11 Fe0 1.976 1_655 S
O11 C18 1.287 . S
O12 Fe1 1.996 . S
O12 C18 1.255 . S
O13 Fe3 1.976 1_655 S
O13 C8 1.287 1_655 S
O14 Fe0 1.996 . S
O14 C8 1.255 . S
C15 O19 1.295 1_455 S
C15 O20 1.235 . S
O16 Fe1 1.976 . S
O16 C10 1.287 . S
O17 Fe3 1.996 1_655 S
O17 C10 1.255 . S
C18 O11 1.287 . S
C18 O12 1.255 . S
O19 Fe1 2.002 . S
O19 C15 1.295 1_655 S
O20 Fe3 1.997 . S
O20 C15 1.235 . S
C21 O4 1.295 . S
C21 O5 1.235 . S
Fe22 O24 1.918 . S
Fe22 O27 1.997 . S
Fe22 O28 2.002 . S
Fe22 O33 1.976 . S
Fe22 O36 1.996 . S
Fe23 O24 1.918 . S
Fe23 O31 1.997 . S
Fe23 O34 1.996 . S
Fe23 O38 1.976 . S
Fe23 O41 2.002 . S
O24 Fe22 1.918 . S
O24 Fe23 1.918 . S
O24 Fe25 1.918 . S
Fe25 O24 1.918 . S
Fe25 O26 2.002 . S
Fe25 O35 1.976 . S
Fe25 O39 1.996 . S
Fe25 O42 1.997 . S
O26 Fe25 2.002 . S
O26 C43 1.295 . S
O27 Fe22 1.997 . S
O27 C43 1.235 . S
O28 Fe22 2.002 . S
O28 C29 1.295 . S
C29 O28 1.295 . S
C29 O31 1.235 . S
C30 O35 1.287 . S
C30 O36 1.255 . S
O31 Fe23 1.997 . S
O31 C29 1.235 . S
C32 O38 1.287 . S
C32 O39 1.255 . S
O33 Fe22 1.976 . S
O33 C40 1.287 . S
O34 Fe23 1.996 . S
O34 C40 1.255 . S
O35 Fe25 1.976 . S
O35 C30 1.287 . S
O36 Fe22 1.996 . S
O36 C30 1.255 . S
C37 O41 1.295 . S
C37 O42 1.235 . S
O38 Fe23 1.976 . S
O38 C32 1.287 . S
O39 Fe25 1.996 . S
O39 C32 1.255 . S
C40 O33 1.287 . S
C40 O34 1.255 . S
O41 Fe23 2.002 . S
O41 C37 1.295 . S
O42 Fe25 1.997 . S
O42 C37 1.235 . S
C43 O26 1.295 . S
C43 O27 1.235 . S
Fe44 O46 1.918 . S
Fe44 O49 1.997 . S
Fe44 O50 2.002 1_455 S
Fe44 O55 1.976 . S
Fe44 O58 1.996 . S
Fe45 O46 1.918 1_655 S
Fe45 O53 1.997 . S
Fe45 O56 1.996 . S
Fe45 O60 1.976 1_655 S
Fe45 O63 2.002 . S
O46 Fe44 1.918 . S
O46 Fe45 1.918 1_455 S
O46 Fe47 1.918 . S
Fe47 O46 1.918 . S
Fe47 O48 2.002 . S
Fe47 O57 1.976 . S
Fe47 O61 1.996 . S
Fe47 O64 1.997 1_455 S
O48 Fe47 2.002 . S
O48 C65 1.295 . S
O49 Fe44 1.997 . S
O49 C65 1.235 . S
O50 Fe44 2.002 1_655 S
O50 C51 1.295 . S
C51 O50 1.295 . S
C51 O53 1.235 . S
C52 O57 1.287 . S
C52 O58 1.255 . S
O53 Fe45 1.997 . S
O53 C51 1.235 . S
C54 O60 1.287 . S
C54 O61 1.255 . S
O55 Fe44 1.976 . S
O55 C62 1.287 . S
O56 Fe45 1.996 . S
O56 C62 1.255 1_655 S
O57 Fe47 1.976 . S
O57 C52 1.287 . S
O58 Fe44 1.996 . S
O58 C52 1.255 . S
C59 O63 1.295 . S
C59 O64 1.235 . S
O60 Fe45 1.976 1_455 S
O60 C54 1.287 . S
O61 Fe47 1.996 . S
O61 C54 1.255 . S
C62 O55 1.287 . S
C62 O56 1.255 1_455 S
O63 Fe45 2.002 . S
O63 C59 1.295 . S
O64 Fe47 1.997 1_655 S
O64 C59 1.235 . S
C65 O48 1.295 . S
C65 O49 1.235 . S
Fe66 O68 1.918 . S
Fe66 O71 1.997 . S
Fe66 O72 2.002 . S
Fe66 O77 1.976 . S
Fe66 O80 1.996 . S
Fe67 O68 1.918 . S
Fe67 O75 1.997 . S
Fe67 O78 1.996 . S
Fe67 O82 1.976 . S
Fe67 O85 2.002 . S
O68 Fe66 1.918 . S
O68 Fe67 1.918 . S
O68 Fe69 1.918 . S
Fe69 O68 1.918 . S
Fe69 O70 2.002 . S
Fe69 O79 1.976 . S
Fe69 O83 1.996 . S
Fe69 O86 1.997 . S
O70 Fe69 2.002 . S
O70 C87 1.295 . S
O71 Fe66 1.997 . S
O71 C87 1.235 . S
O72 Fe66 2.002 . S
O72 C73 1.295 . S
C73 O72 1.295 . S
C73 O75 1.235 . S
C74 O79 1.287 . S
C74 O80 1.255 . S
O75 Fe67 1.997 . S
O75 C73 1.235 . S
C76 O82 1.287 . S
C76 O83 1.255 . S
O77 Fe66 1.976 . S
O77 C84 1.287 . S
O78 Fe67 1.996 . S
O78 C84 1.255 . S
O79 Fe69 1.976 . S
O79 C74 1.287 . S
O80 Fe66 1.996 . S
O80 C74 1.255 . S
C81 O85 1.295 . S
C81 O86 1.235 . S
O82 Fe67 1.976 . S
O82 C76 1.287 . S
O83 Fe69 1.996 . S
O83 C76 1.255 . S
C84 O77 1.287 . S
C84 O78 1.255 . S
O85 Fe67 2.002 . S
O85 C81 1.295 . S
O86 Fe69 1.997 . S
O86 C81 1.235 . S
C87 O70 1.295 . S
C87 O71 1.235 . S
C88 C89 1.170 . S
C88 C90 1.380 1_556 S
C89 C88 1.170 . S
C90 C88 1.380 1_554 S
C90 C91 1.170 . S
C91 C90 1.170 . S
C92 C93 1.170 . S
C92 C94 1.380 1_554 S
C93 C92 1.170 . S
C94 C92 1.380 1_556 S
C94 C95 1.170 . S
C95 C94 1.170 . S
C96 C97 1.170 . S
C96 C98 1.380 1_566 S
C97 C96 1.170 . S
C98 C96 1.380 1_544 S
C98 C99 1.170 . S
C99 C98 1.170 . S
C100 C101 1.170 1_655 S
C100 C102 1.380 1_564 S
C101 C100 1.170 1_455 S
C102 C100 1.380 1_546 S
C102 C103 1.170 . S
C103 C102 1.170 . S
C104 C105 1.170 . S
C104 C106 1.380 . S
C105 C104 1.170 . S
C106 C104 1.380 . S
C106 C107 1.170 . S
C107 C106 1.170 . S
C108 C109 1.170 . S
C108 C110 1.380 . S
C109 C108 1.170 . S
C110 C108 1.380 . S
C110 C111 1.170 . S
C111 C110 1.170 . S
C112 C113 1.170 . S
C112 C114 1.380 . S
C113 C112 1.170 . S
C114 C112 1.380 . S
C114 C115 1.170 . S
C115 C114 1.170 . S
C116 C117 1.170 . S
C116 C118 1.380 . S
C117 C116 1.170 . S
C118 C116 1.380 . S
C118 C119 1.170 . S
C119 C118 1.170 . S
C120 C121 1.170 . S
C120 C122 1.380 1_556 S
C121 C120 1.170 . S
C122 C120 1.380 1_554 S
C122 C123 1.170 . S
C123 C122 1.170 . S
C124 C125 1.170 . S
C124 C126 1.380 1_556 S
C125 C124 1.170 . S
C126 C124 1.380 1_554 S
C126 C127 1.170 . S
C127 C126 1.170 . S
C128 C129 1.170 . S
C128 C130 1.380 1_554 S
C129 C128 1.170 . S
C130 C128 1.380 1_556 S
C130 C131 1.170 . S
C131 C130 1.170 . S
C132 C133 1.170 . S
C132 C134 1.380 1_554 S
C133 C132 1.170 . S
C134 C132 1.380 1_556 S
C134 C135 1.170 . S
C135 C134 1.170 . S
C89 C62 1.579 . S
C91 C15 1.565 . S
C93 C40 1.567 . S
C95 C81 1.542 . S
C97 C74 1.572 . S
C99 C43 1.555 . S
C101 C8 1.575 . S
C103 C65 1.555 1_655 S
C105 C73 2.170 . S
C107 C7 2.161 . S
C109 C54 2.113 . S
C111 C32 2.092 . S
C113 C59 2.153 . S
C115 C37 2.144 . S
C117 C18 2.097 . S
C119 C84 2.100 . S
C121 C87 0.669 . S
C123 C21 0.658 . S
C125 C52 0.593 . S
C127 C30 0.516 . S
C129 C29 0.668 . S
C131 C51 0.659 . S
C133 C10 0.594 . S
C135 C76 0.516 . S
