# Generated by pormake.
# Topology sxa, (6)-cn, num edge types: 1
# Building blocks:
#     Node 0, Type 0, BuildingBlock: IZENUY_clean_sbu_0, # of connection points: 6
#     Node 1, Type 0, BuildingBlock: IZENUY_clean_sbu_0, # of connection points: 6
#     Node 2, Type 0, BuildingBlock: IZENUY_clean_sbu_0, # of connection points: 6
#     Node 3, Type 0, BuildingBlock: IZENUY_clean_sbu_0, # of connection points: 6
#     Edge 4, Type (0, 0), None
#     Edge 5, Type (0, 0), None
#     Edge 6, Type (0, 0), None
#     Edge 7, Type (0, 0), None
#     Edge 8, Type (0, 0), None
#     Edge 9, Type (0, 0), None
#     Edge 10, Type (0, 0), None
#     Edge 11, Type (0, 0), None
#     Edge 12, Type (0, 0), None
#     Edge 13, Type (0, 0), None
#     Edge 14, Type (0, 0), None
#     Edge 15, Type (0, 0), None
# Relax obj value: 0.274
# Max RMSD: 0.267
# Mean RMSD: 0.267
data_MOF--net-sxa--node1-IZENUY_clean_sbu_0--edge1-none
_symmetry_space_group_name_H-M    P1
_symmetry_Int_Tables_number       1
_symmetry_cell_setting            triclinic
loop_
_symmetry_equiv_pos_as_xyz
'x, y, z'
_cell_length_a     10.822305
_cell_length_b     13.030507
_cell_length_c     7.7069665
_cell_angle_alpha  89.999838
_cell_angle_beta   90.01247
_cell_angle_gamma 90.005681
loop_
_atom_site_label
_atom_site_type_symbol
_atom_site_fract_x
_atom_site_fract_y
_atom_site_fract_z
_atom_type_partial_charge
Fe0 Fe 0.09047 0.92544 0.39423 0.0
Fe1 Fe 0.07257 0.69017 0.39427 0.0
O2 O 0.08153 0.80779 0.27927 0.0
Fe3 Fe 0.08154 0.80779 1.04432 0.0
O4 O 0.22962 0.85364 1.03758 0.0
O5 O 0.2103 0.9745 0.24026 0.0
O6 O 0.22469 0.8869 0.52152 0.0
C7 C 0.26704 0.80068 0.56567 0.0
C8 C 0.97105 1.00245 0.12612 0.0
O9 O 0.19579 0.72248 0.55781 0.0
C10 C 0.89626 0.68216 0.11116 0.0
O11 O 0.96725 0.89316 0.55773 0.0
O12 O 0.93835 0.72874 0.52149 0.0
O13 O 1.02402 0.94197 1.02066 0.0
O14 O 0.96156 0.97685 0.27992 0.0
C15 C 0.192 0.61311 0.12625 0.0
O16 O 0.95274 0.64109 0.24026 0.0
O17 O 0.93347 0.76193 1.03747 0.0
C18 C 0.89603 0.81495 0.5657 0.0
O19 O 0.20145 0.63869 0.28007 0.0
O20 O 0.13906 0.6736 1.02075 0.0
C21 C 0.2668 0.93346 0.11117 0.0
Fe22 Fe 0.58154 0.30779 1.04432 0.0
Fe23 Fe 0.59047 0.42544 0.39423 0.0
O24 O 0.58153 0.30779 0.27927 0.0
Fe25 Fe 0.57257 0.19017 0.39427 0.0
O26 O 0.70145 0.13869 0.28008 0.0
O27 O 0.63906 0.1736 1.02075 0.0
O28 O 0.72962 0.35364 1.03758 0.0
C29 C 0.7668 0.43346 0.11117 0.0
C30 C 0.39625 0.18216 0.11116 0.0
O31 O 0.7103 0.4745 0.24026 0.0
C32 C 0.39603 0.31495 0.56569 0.0
O33 O 0.52402 0.44197 1.02066 0.0
O34 O 0.46156 0.47685 0.27992 0.0
O35 O 0.45274 0.14109 0.24026 0.0
O36 O 0.43347 0.26193 1.03747 0.0
C37 C 0.76704 0.30068 0.56567 0.0
O38 O 0.46725 0.39316 0.55773 0.0
O39 O 0.43835 0.22874 0.52149 0.0
C40 C 0.47105 0.50245 0.12612 0.0
O41 O 0.72469 0.3869 0.52153 0.0
O42 O 0.69579 0.22248 0.55781 0.0
C43 C 0.692 0.11311 0.12625 0.0
Fe44 Fe 0.08152 0.30779 0.17134 0.0
Fe45 Fe 0.07261 0.42544 0.82135 0.0
O46 O 0.08154 0.30779 0.93634 0.0
Fe47 Fe 0.09049 0.19016 0.82131 0.0
O48 O 0.96163 0.13864 0.93551 0.0
O49 O 1.02393 0.17362 0.19492 0.0
O50 O 0.93349 0.35368 0.17812 0.0
C51 C 0.89643 0.43354 1.1046 0.0
C52 C 0.26665 0.18208 1.10462 0.0
O53 O 0.95272 0.47449 0.97524 0.0
C54 C 0.26703 0.31495 0.64985 0.0
O55 O 0.13912 0.44196 0.19501 0.0
O56 O 0.20149 0.4769 0.93567 0.0
O57 O 0.21037 0.14111 0.97525 0.0
O58 O 0.22955 0.26189 0.17823 0.0
C59 C 0.89604 0.30068 0.64987 0.0
O60 O 0.19587 0.39319 0.65791 0.0
O61 O 0.22467 0.22875 0.69404 0.0
C62 C 0.19206 0.50243 1.08951 0.0
O63 O 0.93842 0.38689 0.694 0.0
O64 O 0.96723 0.22245 0.65783 0.0
C65 C 0.97103 0.11314 1.08938 0.0
Fe66 Fe 0.57261 0.92544 0.82135 0.0
Fe67 Fe 0.59049 0.69016 0.82131 0.0
O68 O 0.58154 0.80779 0.93634 0.0
Fe69 Fe 0.58152 0.80779 0.17134 0.0
O70 O 0.43349 0.85368 0.17812 0.0
O71 O 0.45272 0.97449 0.97524 0.0
O72 O 0.43842 0.88689 0.694 0.0
C73 C 0.39604 0.80068 0.64987 0.0
C74 C 0.69206 1.00243 1.08951 0.0
O75 O 0.46723 0.72245 0.65783 0.0
C76 C 0.76665 0.68208 1.10462 0.0
O77 O 0.69587 0.89319 0.65791 0.0
O78 O 0.72467 0.72875 0.69404 0.0
O79 O 0.63912 0.94196 0.19501 0.0
O80 O 0.70149 0.9769 0.93567 0.0
C81 C 0.47103 0.61314 1.08938 0.0
O82 O 0.71038 0.64111 0.97525 0.0
O83 O 0.72955 0.76189 0.17824 0.0
C84 C 0.76703 0.81495 0.64985 0.0
O85 O 0.46163 0.63864 0.93551 0.0
O86 O 0.52393 0.67362 0.19492 0.0
C87 C 0.39643 0.93354 1.1046 0.0
loop_
_geom_bond_atom_site_label_1
_geom_bond_atom_site_label_2
_geom_bond_distance
_geom_bond_site_symmetry_2
_ccdc_geom_bond_type
Fe0 O2 1.918 . S
Fe0 O5 1.997 . S
Fe0 O6 2.002 . S
Fe0 O11 1.976 . S
Fe0 O14 1.996 . S
Fe1 O2 1.918 1_655 S
Fe1 O9 1.997 1_655 S
Fe1 O12 1.996 . S
Fe1 O16 1.976 . S
Fe1 O19 2.002 1_655 S
O2 Fe0 1.918 . S
O2 Fe1 1.918 1_455 S
O2 Fe3 1.918 1_554 S
Fe3 O2 1.918 1_556 S
Fe3 O4 2.002 . S
Fe3 O13 1.976 . S
Fe3 O17 1.996 1_455 S
Fe3 O20 1.997 . S
O4 Fe3 2.002 . S
O4 C21 1.295 1_556 S
O5 Fe0 1.997 . S
O5 C21 1.235 . S
O6 Fe0 2.002 . S
O6 C7 1.295 . S
C7 O6 1.295 . S
C7 O9 1.235 . S
C8 O13 1.287 1_554 S
C8 O14 1.255 . S
O9 Fe1 1.997 1_455 S
O9 C7 1.235 . S
C10 O16 1.287 . S
C10 O17 1.255 1_554 S
O11 Fe0 1.976 . S
O11 C18 1.287 1_455 S
O12 Fe1 1.996 . S
O12 C18 1.255 . S
O13 Fe3 1.976 . S
O13 C8 1.287 1_556 S
O14 Fe0 1.996 . S
O14 C8 1.255 . S
C15 O19 1.295 . S
C15 O20 1.235 1_554 S
O16 Fe1 1.976 . S
O16 C10 1.287 . S
O17 Fe3 1.996 1_655 S
O17 C10 1.255 1_556 S
C18 O11 1.287 1_655 S
C18 O12 1.255 . S
O19 Fe1 2.002 1_455 S
O19 C15 1.295 . S
O20 Fe3 1.997 . S
O20 C15 1.235 1_556 S
C21 O4 1.295 1_554 S
C21 O5 1.235 . S
Fe22 O24 1.918 1_556 S
Fe22 O27 1.997 . S
Fe22 O28 2.002 . S
Fe22 O33 1.976 . S
Fe22 O36 1.996 . S
Fe23 O24 1.918 . S
Fe23 O31 1.997 . S
Fe23 O34 1.996 . S
Fe23 O38 1.976 . S
Fe23 O41 2.002 . S
O24 Fe22 1.918 1_554 S
O24 Fe23 1.918 . S
O24 Fe25 1.918 . S
Fe25 O24 1.918 . S
Fe25 O26 2.002 . S
Fe25 O35 1.976 . S
Fe25 O39 1.996 . S
Fe25 O42 1.997 . S
O26 Fe25 2.002 . S
O26 C43 1.295 . S
O27 Fe22 1.997 . S
O27 C43 1.235 1_556 S
O28 Fe22 2.002 . S
O28 C29 1.295 1_556 S
C29 O28 1.295 1_554 S
C29 O31 1.235 . S
C30 O35 1.287 . S
C30 O36 1.255 1_554 S
O31 Fe23 1.997 . S
O31 C29 1.235 . S
C32 O38 1.287 . S
C32 O39 1.255 . S
O33 Fe22 1.976 . S
O33 C40 1.287 1_556 S
O34 Fe23 1.996 . S
O34 C40 1.255 . S
O35 Fe25 1.976 . S
O35 C30 1.287 . S
O36 Fe22 1.996 . S
O36 C30 1.255 1_556 S
C37 O41 1.295 . S
C37 O42 1.235 . S
O38 Fe23 1.976 . S
O38 C32 1.287 . S
O39 Fe25 1.996 . S
O39 C32 1.255 . S
C40 O33 1.287 1_554 S
C40 O34 1.255 . S
O41 Fe23 2.002 . S
O41 C37 1.295 . S
O42 Fe25 1.997 . S
O42 C37 1.235 . S
C43 O26 1.295 . S
C43 O27 1.235 1_554 S
Fe44 O46 1.918 1_554 S
Fe44 O49 1.997 . S
Fe44 O50 2.002 1_455 S
Fe44 O55 1.976 . S
Fe44 O58 1.996 . S
Fe45 O46 1.918 1_655 S
Fe45 O53 1.997 . S
Fe45 O56 1.996 1_655 S
Fe45 O60 1.976 1_655 S
Fe45 O63 2.002 . S
O46 Fe44 1.918 1_556 S
O46 Fe45 1.918 1_455 S
O46 Fe47 1.918 . S
Fe47 O46 1.918 . S
Fe47 O48 2.002 . S
Fe47 O57 1.976 . S
Fe47 O61 1.996 . S
Fe47 O64 1.997 . S
O48 Fe47 2.002 . S
O48 C65 1.295 . S
O49 Fe44 1.997 . S
O49 C65 1.235 1_554 S
O50 Fe44 2.002 1_655 S
O50 C51 1.295 1_554 S
C51 O50 1.295 1_556 S
C51 O53 1.235 . S
C52 O57 1.287 . S
C52 O58 1.255 1_556 S
O53 Fe45 1.997 . S
O53 C51 1.235 . S
C54 O60 1.287 . S
C54 O61 1.255 . S
O55 Fe44 1.976 . S
O55 C62 1.287 1_554 S
O56 Fe45 1.996 1_455 S
O56 C62 1.255 . S
O57 Fe47 1.976 . S
O57 C52 1.287 . S
O58 Fe44 1.996 . S
O58 C52 1.255 1_554 S
C59 O63 1.295 . S
C59 O64 1.235 1_655 S
O60 Fe45 1.976 1_455 S
O60 C54 1.287 . S
O61 Fe47 1.996 . S
O61 C54 1.255 . S
C62 O55 1.287 1_556 S
C62 O56 1.255 . S
O63 Fe45 2.002 . S
O63 C59 1.295 . S
O64 Fe47 1.997 . S
O64 C59 1.235 1_455 S
C65 O48 1.295 . S
C65 O49 1.235 1_556 S
Fe66 O68 1.918 . S
Fe66 O71 1.997 . S
Fe66 O72 2.002 . S
Fe66 O77 1.976 . S
Fe66 O80 1.996 . S
Fe67 O68 1.918 . S
Fe67 O75 1.997 . S
Fe67 O78 1.996 . S
Fe67 O82 1.976 . S
Fe67 O85 2.002 . S
O68 Fe66 1.918 . S
O68 Fe67 1.918 . S
O68 Fe69 1.918 1_556 S
Fe69 O68 1.918 1_554 S
Fe69 O70 2.002 . S
Fe69 O79 1.976 . S
Fe69 O83 1.996 . S
Fe69 O86 1.997 . S
O70 Fe69 2.002 . S
O70 C87 1.295 1_554 S
O71 Fe66 1.997 . S
O71 C87 1.235 . S
O72 Fe66 2.002 . S
O72 C73 1.295 . S
C73 O72 1.295 . S
C73 O75 1.235 . S
C74 O79 1.287 1_556 S
C74 O80 1.255 . S
O75 Fe67 1.997 . S
O75 C73 1.235 . S
C76 O82 1.287 . S
C76 O83 1.255 1_556 S
O77 Fe66 1.976 . S
O77 C84 1.287 . S
O78 Fe67 1.996 . S
O78 C84 1.255 . S
O79 Fe69 1.976 . S
O79 C74 1.287 1_554 S
O80 Fe66 1.996 . S
O80 C74 1.255 . S
C81 O85 1.295 . S
C81 O86 1.235 1_556 S
O82 Fe67 1.976 . S
O82 C76 1.287 . S
O83 Fe69 1.996 . S
O83 C76 1.255 1_554 S
C84 O77 1.287 . S
C84 O78 1.255 . S
O85 Fe67 2.002 . S
O85 C81 1.295 . S
O86 Fe69 1.997 . S
O86 C81 1.235 1_554 S
C87 O70 1.295 1_556 S
C87 O71 1.235 . S
C62 C15 1.561 1_556 S
C40 C81 1.561 1_554 S
C74 C43 1.561 1_566 S
C8 C65 1.561 1_564 S
C73 C7 2.763 . S
C54 C32 2.726 . S
C59 C37 2.763 . S
C18 C84 2.726 . S
C87 C21 0.755 1_556 S
C52 C30 0.638 1_556 S
C29 C51 0.755 1_554 S
C10 C76 0.638 1_554 S
