# Generated by pormake.
# Topology npo, (4)-cn, num edge types: 1
# Building blocks:
#     Node 0, Type 0, BuildingBlock: AZAVOO_clean_sbu_0, # of connection points: 4
#     Node 1, Type 0, BuildingBlock: AZAVOO_clean_sbu_0, # of connection points: 4
#     Node 2, Type 0, BuildingBlock: AZAVOO_clean_sbu_0, # of connection points: 4
#     Node 3, Type 0, BuildingBlock: AZAVOO_clean_sbu_0, # of connection points: 4
#     Node 4, Type 0, BuildingBlock: AZAVOO_clean_sbu_0, # of connection points: 4
#     Node 5, Type 0, BuildingBlock: AZAVOO_clean_sbu_0, # of connection points: 4
#     Edge 6, Type (0, 0), BuildingBlock: OJICUG_clean_linker_0, # of connection points: 2
#     Edge 7, Type (0, 0), BuildingBlock: OJICUG_clean_linker_0, # of connection points: 2
#     Edge 8, Type (0, 0), BuildingBlock: OJICUG_clean_linker_0, # of connection points: 2
#     Edge 9, Type (0, 0), BuildingBlock: OJICUG_clean_linker_0, # of connection points: 2
#     Edge 10, Type (0, 0), BuildingBlock: OJICUG_clean_linker_0, # of connection points: 2
#     Edge 11, Type (0, 0), BuildingBlock: OJICUG_clean_linker_0, # of connection points: 2
#     Edge 12, Type (0, 0), BuildingBlock: OJICUG_clean_linker_0, # of connection points: 2
#     Edge 13, Type (0, 0), BuildingBlock: OJICUG_clean_linker_0, # of connection points: 2
#     Edge 14, Type (0, 0), BuildingBlock: OJICUG_clean_linker_0, # of connection points: 2
#     Edge 15, Type (0, 0), BuildingBlock: OJICUG_clean_linker_0, # of connection points: 2
#     Edge 16, Type (0, 0), BuildingBlock: OJICUG_clean_linker_0, # of connection points: 2
#     Edge 17, Type (0, 0), BuildingBlock: OJICUG_clean_linker_0, # of connection points: 2
# Relax obj value: 0.260
# Max RMSD: 0.258
# Mean RMSD: 0.232
data_MOF--net-npo--node1-AZAVOO_clean_sbu_0--edge1-OJICUG_clean_linker_0
_symmetry_space_group_name_H-M    P1
_symmetry_Int_Tables_number       1
_symmetry_cell_setting            triclinic
loop_
_symmetry_equiv_pos_as_xyz
'x, y, z'
_cell_length_a     32.473326
_cell_length_b     29.356655
_cell_length_c     19.892762
_cell_angle_alpha  90.027973
_cell_angle_beta   90.168534
_cell_angle_gamma 132.45733
loop_
_atom_site_label
_atom_site_type_symbol
_atom_site_fract_x
_atom_site_fract_y
_atom_site_fract_z
_atom_type_partial_charge
Mg0 Mg 0.51992 0.098 0.29025 0.0
O1 O 0.61212 0.16223 0.26255 0.0
O2 O 0.64138 0.11237 0.27485 0.0
Mg3 Mg 0.56719 0.01606 0.31637 0.0
C4 C 0.65006 0.16023 0.25796 0.0
C5 C 0.48484 0.17086 0.27852 0.0
O6 O 0.45152 0.1296 0.3249 0.0
O7 O 0.49897 0.04772 0.1906 0.0
O8 O 0.52351 0.99418 0.21454 0.0
O9 O 0.54034 0.12691 0.39696 0.0
O10 O 0.52749 0.0483 0.35559 0.0
C11 C 0.50245 1.00817 0.17486 0.0
C12 C 0.53956 0.08273 0.4064 0.0
O13 O 0.51714 0.16772 0.24775 0.0
Mg14 Mg 0.4222 0.47194 0.74566 0.0
O15 O 0.46563 0.5733 0.75692 0.0
O16 O 0.55407 0.62912 0.78915 0.0
Mg17 Mg 0.56751 0.56208 0.79885 0.0
C18 C 0.51359 0.62487 0.77246 0.0
C19 C 0.32468 0.46521 0.73182 0.0
O20 O 0.34306 0.48578 0.7933 0.0
O21 O 0.46874 0.49618 0.64761 0.0
O22 O 0.55522 0.54591 0.68486 0.0
O23 O 0.39911 0.45439 0.85361 0.0
O24 O 0.47768 0.48424 0.81446 0.0
C25 C 0.51968 0.52349 0.63714 0.0
C26 C 0.44711 0.47161 0.86531 0.0
O27 O 0.34916 0.45408 0.69528 0.0
Mg28 Mg 0.94511 0.52236 0.11281 0.0
O29 O 0.8719 0.42085 0.13572 0.0
O30 O 0.89623 0.36648 0.12022 0.0
Mg31 Mg 0.98636 0.43517 0.08039 0.0
C32 C 0.86071 0.37007 0.13786 0.0
C33 C 0.9061 0.59221 0.14744 0.0
O34 O 0.9502 0.63558 0.11159 0.0
O35 O 0.98518 0.52986 0.21145 0.0
O36 O 1.01423 0.48135 0.18454 0.0
O37 O 0.92031 0.50903 0.00572 0.0
O38 O 0.97795 0.49972 0.04539 0.0
C39 C 1.01081 0.51205 0.22589 0.0
C40 C 0.95113 0.49657 -0.00502 0.0
O41 O 0.89594 0.5431 0.16057 0.0
Mg42 Mg 0.50413 0.91166 0.79015 0.0
O43 O 0.41182 0.847 0.76211 0.0
O44 O 0.3822 0.89648 0.77436 0.0
Mg45 Mg 0.45637 0.99312 0.81599 0.0
C46 C 0.37366 0.84869 0.7575 0.0
C47 C 0.54135 0.84117 0.7777 0.0
O48 O 0.57532 0.88384 0.82304 0.0
O49 O 0.52459 0.96159 0.69062 0.0
O50 O 0.49978 0.01486 0.71441 0.0
O51 O 0.4841 0.88301 0.89671 0.0
O52 O 0.49641 0.96126 0.85545 0.0
C53 C 0.52088 1.00093 0.67486 0.0
C54 C 0.48456 0.92696 0.90614 0.0
O55 O 0.50738 0.84223 0.74769 0.0
Mg56 Mg 0.61922 0.54586 0.24727 0.0
O57 O 0.57077 0.44326 0.25833 0.0
O58 O 0.48327 0.39173 0.29025 0.0
Mg59 Mg 0.47563 0.46374 0.29861 0.0
C60 C 0.52202 0.39307 0.27367 0.0
C61 C 0.73934 0.60406 0.20519 0.0
O62 O 0.75344 0.65334 0.23362 0.0
O63 O 0.5739 0.52438 0.14847 0.0
O64 O 0.48832 0.47852 0.18463 0.0
O65 O 0.64216 0.56175 0.35522 0.0
O66 O 0.56621 0.53839 0.31519 0.0
C67 C 0.52357 0.49918 0.1373 0.0
C68 C 0.59582 0.5485 0.36637 0.0
O69 O 0.68802 0.55555 0.19912 0.0
Mg70 Mg 0.07879 0.48461 0.61368 0.0
O71 O 0.15133 0.58629 0.63694 0.0
O72 O 0.12644 0.64004 0.6205 0.0
Mg73 Mg 0.03617 0.5705 0.58022 0.0
C74 C 0.16222 0.6369 0.63867 0.0
C75 C 0.14811 0.44788 0.6282 0.0
O76 O 0.13533 0.43708 0.56396 0.0
O77 O 0.03822 0.47688 0.71158 0.0
O78 O 1.00871 0.52488 0.68431 0.0
O79 O 0.10375 0.49839 0.50659 0.0
O80 O 0.04531 0.50644 0.54564 0.0
C81 C 1.01239 0.49446 0.72575 0.0
C82 C 0.07241 0.5101 0.49552 0.0
O83 O 0.1283 0.4649 0.66442 0.0
C84 C 0.53804 0.27875 0.23859 0.0
C85 C 0.49111 0.22543 0.27092 0.0
H86 H 0.58489 0.37352 0.21477 0.0
C87 C 0.45292 0.22674 0.30147 0.0
H88 H 0.5684 0.27938 0.21484 0.0
C89 C 0.46224 0.28074 0.30128 0.0
C90 C 0.51033 0.33479 0.27123 0.0
H91 H 0.41631 0.18637 0.32679 0.0
H92 H 0.43249 0.28051 0.3262 0.0
C93 C 0.54771 0.33291 0.23908 0.0
C94 C 0.25085 0.46919 0.74778 0.0
C95 C 0.27725 0.45696 0.70589 0.0
H96 H 0.18913 0.47536 0.75645 0.0
C97 C 0.25859 0.4382 0.63924 0.0
H98 H 0.26399 0.48345 0.79954 0.0
C99 C 0.21541 0.4334 0.61454 0.0
C100 C 0.19004 0.44726 0.65602 0.0
H101 H 0.27792 0.42823 0.60578 0.0
H102 H 0.20274 0.42007 0.56252 0.0
C103 C 0.20774 0.46437 0.72316 0.0
C104 C 0.74491 0.21098 0.21233 0.0
C105 C 0.70453 0.21392 0.22821 0.0
H106 H 0.82551 0.25743 0.17054 0.0
C107 C 0.7156 0.26799 0.21251 0.0
H108 H 0.73764 0.16991 0.22324 0.0
C109 C 0.76571 0.31789 0.18212 0.0
C110 C 0.80621 0.31517 0.16632 0.0
H111 H 0.6855 0.27196 0.22366 0.0
H112 H 0.77272 0.35883 0.17133 0.0
C113 C 0.79514 0.261 0.18158 0.0
C114 C 0.48982 0.73296 0.73956 0.0
C115 C 0.53694 0.78785 0.77019 0.0
H116 H 0.44514 0.63835 0.71698 0.0
C117 C 0.57749 0.78949 0.79908 0.0
H118 H 0.45766 0.73007 0.71718 0.0
C119 C 0.57046 0.73696 0.79882 0.0
C120 C 0.52238 0.6814 0.77031 0.0
H121 H 0.61429 0.83111 0.82307 0.0
H122 H 0.60213 0.73959 0.82236 0.0
C123 C 0.48246 0.68022 0.73996 0.0
C124 C 0.83821 0.65629 0.17867 0.0
C125 C 0.78233 0.60187 0.18888 0.0
H126 H 0.92146 0.69596 0.15689 0.0
C127 C 0.76796 0.54477 0.18675 0.0
H128 H 0.85044 0.70093 0.1803 0.0
C129 C 0.8086 0.54205 0.17522 0.0
C130 C 0.86437 0.59628 0.16412 0.0
H131 H 0.72536 0.50203 0.19514 0.0
H132 H 0.79602 0.49722 0.17376 0.0
C133 C 0.8788 0.65346 0.16553 0.0
C134 C 0.27829 0.79701 0.71204 0.0
C135 C 0.319 0.79455 0.72802 0.0
H136 H 0.19716 0.74966 0.67048 0.0
C137 C 0.30802 0.74043 0.71286 0.0
H138 H 0.28548 0.83811 0.72257 0.0
C139 C 0.25766 0.69 0.68287 0.0
C140 C 0.21683 0.69225 0.66693 0.0
H141 H 0.33837 0.7368 0.72415 0.0
H142 H 0.25075 0.64905 0.67245 0.0
C143 C 0.2278 0.74646 0.68166 0.0
C144 C 0.48443 0.99304 -0.01399 0.0
C145 C 0.47753 0.94098 -0.0258 0.0
H146 H 0.49705 0.055 0.05948 0.0
C147 C 0.47075 0.90655 0.02923 0.0
H148 H 0.48959 0.02042 0.9446 0.0
C149 C 0.4755 0.92659 0.0947 0.0
C150 C 0.48659 0.98118 0.10659 0.0
H151 H 0.46486 0.86589 0.02191 0.0
H152 H 0.47288 0.9007 0.136 0.0
C153 C 0.48864 0.01283 0.0518 0.0
C154 C 0.52515 0.52625 0.44706 0.0
C155 C 0.57602 0.54173 0.43548 0.0
H156 H 0.46713 0.50783 0.51985 0.0
C157 C 0.60815 0.55131 0.49065 0.0
H158 H 0.4998 0.51951 0.40571 0.0
C159 C 0.5898 0.54549 0.55606 0.0
C160 C 0.5387 0.52948 0.56769 0.0
H161 H 0.64761 0.56348 0.48343 0.0
H162 H 0.6156 0.55315 0.5975 0.0
C163 C 0.50646 0.51972 0.51252 0.0
C164 C 0.95081 0.49012 0.8058 0.0
C165 C 0.98962 0.48414 0.79395 0.0
H166 H 0.90733 0.49744 0.87866 0.0
C167 C 1.0101 0.47413 0.84868 0.0
H168 H 0.93369 0.49708 0.76459 0.0
C169 C 0.9952 0.47474 0.91434 0.0
C170 C 0.95912 0.48469 0.92627 0.0
H171 H 0.03999 0.46925 0.84113 0.0
H172 H 1.014 0.47028 0.95569 0.0
C173 C 0.93553 0.49011 0.87123 0.0
C174 C 0.5528 0.10277 0.52974 0.0
C175 C 0.54629 0.06851 0.47456 0.0
H176 H 0.55026 0.10833 0.63648 0.0
C177 C 0.53934 0.01641 0.48623 0.0
H178 H 0.55871 0.14343 0.52255 0.0
C179 C 0.53488 0.99645 0.55193 0.0
C180 C 0.53672 0.02795 0.60679 0.0
H181 H 0.53436 0.98916 0.44472 0.0
H182 H 0.52649 0.95429 0.55945 0.0
C183 C 0.5478 0.08254 0.59511 0.0
C184 C 0.4345 0.46886 -0.0107 0.0
C185 C 0.4673 0.47964 0.93466 0.0
H186 H 0.42651 0.46663 0.09595 0.0
C187 C 0.51906 0.49728 0.94702 0.0
H188 H 0.39438 0.45513 -0.01855 0.0
C189 C 0.53777 0.5043 0.0128 0.0
C190 C 0.50477 0.49316 0.06748 0.0
H191 H 0.54501 0.50513 0.90601 0.0
H192 H 0.57772 0.51768 0.02073 0.0
C193 C 0.45295 0.4754 0.05498 0.0
C194 C 0.08793 0.51662 0.37192 0.0
C195 C 0.06426 0.52186 0.42679 0.0
H196 H 0.08976 0.50977 0.26526 0.0
C197 C 0.02801 0.53159 0.41464 0.0
H198 H 0.11625 0.50945 0.37954 0.0
C199 C 1.01306 0.53221 0.34888 0.0
C200 C 0.03364 0.5224 0.29427 0.0
H201 H 1.00913 0.53589 0.45586 0.0
H202 H 0.98306 0.53692 0.34112 0.0
C203 C 0.07258 0.51659 0.30638 0.0
loop_
_geom_bond_atom_site_label_1
_geom_bond_atom_site_label_2
_geom_bond_distance
_geom_bond_site_symmetry_2
_ccdc_geom_bond_type
Mg0 O1 2.028 . S
Mg0 O7 1.986 . S
Mg0 O9 2.114 . S
Mg0 O10 2.251 . S
Mg0 O13 2.010 . S
O1 Mg0 2.028 . S
O1 C4 1.250 . S
O2 Mg3 2.028 . S
O2 C4 1.248 . S
Mg3 O2 2.028 . S
Mg3 O8 2.032 . S
Mg3 O10 2.079 . S
C4 O1 1.250 . S
C4 O2 1.248 . S
C5 O6 1.264 . S
C5 O13 1.249 . S
O6 C5 1.264 . S
O7 Mg0 1.986 . S
O7 C11 1.246 . S
O8 Mg3 2.032 . S
O8 C11 1.259 . S
O9 Mg0 2.114 . S
O9 C12 1.252 . S
O10 Mg0 2.251 . S
O10 Mg3 2.079 . S
O10 C12 1.273 . S
C11 O7 1.246 . S
C11 O8 1.259 . S
C12 O9 1.252 . S
C12 O10 1.273 . S
O13 Mg0 2.010 . S
O13 C5 1.249 . S
Mg14 O15 2.028 . S
Mg14 O21 1.986 . S
Mg14 O23 2.114 . S
Mg14 O24 2.251 . S
Mg14 O27 2.010 . S
O15 Mg14 2.028 . S
O15 C18 1.250 . S
O16 Mg17 2.028 . S
O16 C18 1.248 . S
Mg17 O16 2.028 . S
Mg17 O22 2.032 . S
Mg17 O24 2.079 . S
C18 O15 1.250 . S
C18 O16 1.248 . S
C19 O20 1.264 . S
C19 O27 1.249 . S
O20 C19 1.264 . S
O21 Mg14 1.986 . S
O21 C25 1.246 . S
O22 Mg17 2.032 . S
O22 C25 1.259 . S
O23 Mg14 2.114 . S
O23 C26 1.252 . S
O24 Mg14 2.251 . S
O24 Mg17 2.079 . S
O24 C26 1.273 . S
C25 O21 1.246 . S
C25 O22 1.259 . S
C26 O23 1.252 . S
C26 O24 1.273 . S
O27 Mg14 2.010 . S
O27 C19 1.249 . S
Mg28 O29 2.028 . S
Mg28 O35 1.986 . S
Mg28 O37 2.114 . S
Mg28 O38 2.251 . S
Mg28 O41 2.010 . S
O29 Mg28 2.028 . S
O29 C32 1.250 . S
O30 Mg31 2.028 . S
O30 C32 1.248 . S
Mg31 O30 2.028 . S
Mg31 O36 2.032 . S
Mg31 O38 2.079 . S
C32 O29 1.250 . S
C32 O30 1.248 . S
C33 O34 1.264 . S
C33 O41 1.249 . S
O34 C33 1.264 . S
O35 Mg28 1.986 . S
O35 C39 1.246 . S
O36 Mg31 2.032 . S
O36 C39 1.259 . S
O37 Mg28 2.114 . S
O37 C40 1.252 . S
O38 Mg28 2.251 . S
O38 Mg31 2.079 . S
O38 C40 1.273 . S
C39 O35 1.246 . S
C39 O36 1.259 . S
C40 O37 1.252 . S
C40 O38 1.273 . S
O41 Mg28 2.010 . S
O41 C33 1.249 . S
Mg42 O43 2.028 . S
Mg42 O49 1.986 . S
Mg42 O51 2.114 . S
Mg42 O52 2.251 . S
Mg42 O55 2.010 . S
O43 Mg42 2.028 . S
O43 C46 1.250 . S
O44 Mg45 2.028 . S
O44 C46 1.248 . S
Mg45 O44 2.028 . S
Mg45 O50 2.032 . S
Mg45 O52 2.079 . S
C46 O43 1.250 . S
C46 O44 1.248 . S
C47 O48 1.264 . S
C47 O55 1.249 . S
O48 C47 1.264 . S
O49 Mg42 1.986 . S
O49 C53 1.246 . S
O50 Mg45 2.032 . S
O50 C53 1.259 . S
O51 Mg42 2.114 . S
O51 C54 1.252 . S
O52 Mg42 2.251 . S
O52 Mg45 2.079 . S
O52 C54 1.273 . S
C53 O49 1.246 . S
C53 O50 1.259 . S
C54 O51 1.252 . S
C54 O52 1.273 . S
O55 Mg42 2.010 . S
O55 C47 1.249 . S
Mg56 O57 2.028 . S
Mg56 O63 1.986 . S
Mg56 O65 2.114 . S
Mg56 O66 2.251 . S
Mg56 O69 2.010 . S
O57 Mg56 2.028 . S
O57 C60 1.250 . S
O58 Mg59 2.028 . S
O58 C60 1.248 . S
Mg59 O58 2.028 . S
Mg59 O64 2.032 . S
Mg59 O66 2.079 . S
C60 O57 1.250 . S
C60 O58 1.248 . S
C61 O62 1.264 . S
C61 O69 1.249 . S
O62 C61 1.264 . S
O63 Mg56 1.986 . S
O63 C67 1.246 . S
O64 Mg59 2.032 . S
O64 C67 1.259 . S
O65 Mg56 2.114 . S
O65 C68 1.252 . S
O66 Mg56 2.251 . S
O66 Mg59 2.079 . S
O66 C68 1.273 . S
C67 O63 1.246 . S
C67 O64 1.259 . S
C68 O65 1.252 . S
C68 O66 1.273 . S
O69 Mg56 2.010 . S
O69 C61 1.249 . S
Mg70 O71 2.028 . S
Mg70 O77 1.986 . S
Mg70 O79 2.114 . S
Mg70 O80 2.251 . S
Mg70 O83 2.010 . S
O71 Mg70 2.028 . S
O71 C74 1.250 . S
O72 Mg73 2.028 . S
O72 C74 1.248 . S
Mg73 O72 2.028 . S
Mg73 O78 2.032 . S
Mg73 O80 2.079 . S
C74 O71 1.250 . S
C74 O72 1.248 . S
C75 O76 1.264 . S
C75 O83 1.249 . S
O76 C75 1.264 . S
O77 Mg70 1.986 . S
O77 C81 1.246 . S
O78 Mg73 2.032 . S
O78 C81 1.259 . S
O79 Mg70 2.114 . S
O79 C82 1.252 . S
O80 Mg70 2.251 . S
O80 Mg73 2.079 . S
O80 C82 1.273 . S
C81 O77 1.246 . S
C81 O78 1.259 . S
C82 O79 1.252 . S
C82 O80 1.273 . S
O83 Mg70 2.010 . S
O83 C75 1.249 . S
C84 C85 1.387 . S
C84 H88 0.950 . S
C84 C93 1.390 . S
C85 C84 1.387 . S
C85 C87 1.387 . S
H86 C93 0.950 . S
C87 C85 1.387 . S
C87 C89 1.390 . S
C87 H91 0.950 . S
H88 C84 0.950 . S
C89 C87 1.390 . S
C89 C90 1.387 . S
C89 H92 0.950 . S
C90 C89 1.387 . S
C90 C93 1.387 . S
H91 C87 0.950 . S
H92 C89 0.950 . S
C93 C84 1.390 . S
C93 H86 0.950 . S
C93 C90 1.387 . S
C94 C95 1.387 . S
C94 H98 0.950 . S
C94 C103 1.390 . S
C95 C94 1.387 . S
C95 C97 1.387 . S
H96 C103 0.950 . S
C97 C95 1.387 . S
C97 C99 1.390 . S
C97 H101 0.950 . S
H98 C94 0.950 . S
C99 C97 1.390 . S
C99 C100 1.387 . S
C99 H102 0.950 . S
C100 C99 1.387 . S
C100 C103 1.387 . S
H101 C97 0.950 . S
H102 C99 0.950 . S
C103 C94 1.390 . S
C103 H96 0.950 . S
C103 C100 1.387 . S
C104 C105 1.387 . S
C104 H108 0.950 . S
C104 C113 1.390 . S
C105 C104 1.387 . S
C105 C107 1.387 . S
H106 C113 0.950 . S
C107 C105 1.387 . S
C107 C109 1.390 . S
C107 H111 0.950 . S
H108 C104 0.950 . S
C109 C107 1.390 . S
C109 C110 1.387 . S
C109 H112 0.950 . S
C110 C109 1.387 . S
C110 C113 1.387 . S
H111 C107 0.950 . S
H112 C109 0.950 . S
C113 C104 1.390 . S
C113 H106 0.950 . S
C113 C110 1.387 . S
C114 C115 1.387 . S
C114 H118 0.950 . S
C114 C123 1.390 . S
C115 C114 1.387 . S
C115 C117 1.387 . S
H116 C123 0.950 . S
C117 C115 1.387 . S
C117 C119 1.390 . S
C117 H121 0.950 . S
H118 C114 0.950 . S
C119 C117 1.390 . S
C119 C120 1.387 . S
C119 H122 0.950 . S
C120 C119 1.387 . S
C120 C123 1.387 . S
H121 C117 0.950 . S
H122 C119 0.950 . S
C123 C114 1.390 . S
C123 H116 0.950 . S
C123 C120 1.387 . S
C124 C125 1.387 . S
C124 H128 0.950 . S
C124 C133 1.390 . S
C125 C124 1.387 . S
C125 C127 1.387 . S
H126 C133 0.950 . S
C127 C125 1.387 . S
C127 C129 1.390 . S
C127 H131 0.950 . S
H128 C124 0.950 . S
C129 C127 1.390 . S
C129 C130 1.387 . S
C129 H132 0.950 . S
C130 C129 1.387 . S
C130 C133 1.387 . S
H131 C127 0.950 . S
H132 C129 0.950 . S
C133 C124 1.390 . S
C133 H126 0.950 . S
C133 C130 1.387 . S
C134 C135 1.387 . S
C134 H138 0.950 . S
C134 C143 1.390 . S
C135 C134 1.387 . S
C135 C137 1.387 . S
H136 C143 0.950 . S
C137 C135 1.387 . S
C137 C139 1.390 . S
C137 H141 0.950 . S
H138 C134 0.950 . S
C139 C137 1.390 . S
C139 C140 1.387 . S
C139 H142 0.950 . S
C140 C139 1.387 . S
C140 C143 1.387 . S
H141 C137 0.950 . S
H142 C139 0.950 . S
C143 C134 1.390 . S
C143 H136 0.950 . S
C143 C140 1.387 . S
C144 C145 1.387 1_545 S
C144 H148 0.950 . S
C144 C153 1.390 . S
C145 C144 1.387 1_565 S
C145 C147 1.387 . S
H146 C153 0.950 . S
C147 C145 1.387 . S
C147 C149 1.390 1_556 S
C147 H151 0.950 . S
H148 C144 0.950 . S
C149 C147 1.390 1_554 S
C149 C150 1.387 1_565 S
C149 H152 0.950 . S
C150 C149 1.387 1_545 S
C150 C153 1.387 1_554 S
H151 C147 0.950 . S
H152 C149 0.950 . S
C153 C144 1.390 . S
C153 H146 0.950 . S
C153 C150 1.387 1_556 S
C154 C155 1.387 . S
C154 H158 0.950 . S
C154 C163 1.390 . S
C155 C154 1.387 . S
C155 C157 1.387 . S
H156 C163 0.950 . S
C157 C155 1.387 . S
C157 C159 1.390 . S
C157 H161 0.950 . S
H158 C154 0.950 . S
C159 C157 1.390 . S
C159 C160 1.387 . S
C159 H162 0.950 . S
C160 C159 1.387 . S
C160 C163 1.387 . S
H161 C157 0.950 . S
H162 C159 0.950 . S
C163 C154 1.390 . S
C163 H156 0.950 . S
C163 C160 1.387 . S
C164 C165 1.387 . S
C164 H168 0.950 . S
C164 C173 1.390 1_556 S
C165 C164 1.387 . S
C165 C167 1.396 1_455 S
H166 C173 0.950 . S
C167 C165 1.396 1_655 S
C167 C169 1.380 1_556 S
C167 H171 0.952 . S
H168 C164 0.950 . S
C169 C167 1.380 1_554 S
C169 C170 1.387 . S
C169 H172 0.950 . S
C170 C169 1.387 . S
C170 C173 1.387 1_655 S
H171 C167 0.952 . S
H172 C169 0.950 . S
C173 C164 1.390 1_554 S
C173 H166 0.950 . S
C173 C170 1.387 1_455 S
C174 C175 1.387 . S
C174 H178 0.950 . S
C174 C183 1.390 . S
C175 C174 1.387 . S
C175 C177 1.387 1_545 S
H176 C183 0.950 . S
C177 C175 1.387 1_565 S
C177 C179 1.390 . S
C177 H181 0.950 . S
H178 C174 0.950 . S
C179 C177 1.390 . S
C179 C180 1.387 . S
C179 H182 0.950 . S
C180 C179 1.387 . S
C180 C183 1.387 1_565 S
H181 C177 0.950 . S
H182 C179 0.950 . S
C183 C174 1.390 . S
C183 H176 0.950 . S
C183 C180 1.387 1_545 S
C184 C185 1.387 . S
C184 H188 0.950 . S
C184 C193 1.390 1_556 S
C185 C184 1.387 . S
C185 C187 1.387 . S
H186 C193 0.950 . S
C187 C185 1.387 . S
C187 C189 1.390 1_556 S
C187 H191 0.950 . S
H188 C184 0.950 . S
C189 C187 1.390 1_554 S
C189 C190 1.387 . S
C189 H192 0.950 . S
C190 C189 1.387 . S
C190 C193 1.387 . S
H191 C187 0.950 . S
H192 C189 0.950 . S
C193 C184 1.390 1_554 S
C193 H186 0.950 . S
C193 C190 1.387 . S
C194 C195 1.387 . S
C194 H198 0.950 . S
C194 C203 1.390 1_455 S
C195 C194 1.387 . S
C195 C197 1.387 . S
H196 C203 0.950 . S
C197 C195 1.387 . S
C197 C199 1.384 1_455 S
C197 H201 0.950 . S
H198 C194 0.950 . S
C199 C197 1.384 1_655 S
C199 C200 1.385 . S
C199 H202 0.958 . S
C200 C199 1.385 . S
C200 C203 1.387 . S
H201 C197 0.950 . S
H202 C199 0.958 . S
C203 C194 1.390 1_655 S
C203 H196 0.950 . S
C203 C200 1.387 . S
C85 C5 1.190 . S
C90 C60 1.216 . S
C95 C19 1.266 . S
C100 C75 1.241 . S
C105 C4 1.229 . S
C110 C32 1.234 . S
C115 C47 1.190 . S
C120 C18 1.216 . S
C125 C61 1.268 . S
C130 C33 1.239 . S
C135 C46 1.229 . S
C140 C74 1.234 . S
C145 C54 1.454 . S
C150 C11 1.413 . S
C155 C68 1.491 . S
C160 C25 1.430 . S
C165 C81 1.422 . S
C170 C40 1.474 . S
C175 C12 1.453 . S
C180 C53 1.410 . S
C185 C26 1.491 . S
C190 C67 1.430 . S
C195 C82 1.474 . S
C200 C39 1.421 . S
