# Generated by pormake.
# Topology uog, (4)-cn, num edge types: 1
# Building blocks:
#     Node 0, Type 0, BuildingBlock: GALJAG_clean_sbu_0, # of connection points: 4
#     Node 1, Type 0, BuildingBlock: GALJAG_clean_sbu_0, # of connection points: 4
#     Node 2, Type 0, BuildingBlock: GALJAG_clean_sbu_0, # of connection points: 4
#     Node 3, Type 0, BuildingBlock: GALJAG_clean_sbu_0, # of connection points: 4
#     Node 4, Type 0, BuildingBlock: GALJAG_clean_sbu_0, # of connection points: 4
#     Node 5, Type 0, BuildingBlock: GALJAG_clean_sbu_0, # of connection points: 4
#     Edge 6, Type (0, 0), BuildingBlock: EYOCIG_clean_linker_4, # of connection points: 2
#     Edge 7, Type (0, 0), BuildingBlock: EYOCIG_clean_linker_4, # of connection points: 2
#     Edge 8, Type (0, 0), BuildingBlock: EYOCIG_clean_linker_4, # of connection points: 2
#     Edge 9, Type (0, 0), BuildingBlock: EYOCIG_clean_linker_4, # of connection points: 2
#     Edge 10, Type (0, 0), BuildingBlock: EYOCIG_clean_linker_4, # of connection points: 2
#     Edge 11, Type (0, 0), BuildingBlock: EYOCIG_clean_linker_4, # of connection points: 2
#     Edge 12, Type (0, 0), BuildingBlock: EYOCIG_clean_linker_4, # of connection points: 2
#     Edge 13, Type (0, 0), BuildingBlock: EYOCIG_clean_linker_4, # of connection points: 2
#     Edge 14, Type (0, 0), BuildingBlock: EYOCIG_clean_linker_4, # of connection points: 2
#     Edge 15, Type (0, 0), BuildingBlock: EYOCIG_clean_linker_4, # of connection points: 2
#     Edge 16, Type (0, 0), BuildingBlock: EYOCIG_clean_linker_4, # of connection points: 2
#     Edge 17, Type (0, 0), BuildingBlock: EYOCIG_clean_linker_4, # of connection points: 2
# Relax obj value: 0.035
# Max RMSD: 0.144
# Mean RMSD: 0.144
data_MOF--net-uog--node1-GALJAG_clean_sbu_0--edge1-EYOCIG_clean_linker_4
_symmetry_space_group_name_H-M    P1
_symmetry_Int_Tables_number       1
_symmetry_cell_setting            triclinic
loop_
_symmetry_equiv_pos_as_xyz
'x, y, z'
_cell_length_a     23.170043
_cell_length_b     23.174071
_cell_length_c     34.413498
_cell_angle_alpha  90.020252
_cell_angle_beta   89.987509
_cell_angle_gamma 120.0151
loop_
_atom_site_label
_atom_site_type_symbol
_atom_site_fract_x
_atom_site_fract_y
_atom_site_fract_z
_atom_type_partial_charge
In0 In 0.57659 0.28753 0.15393 0.0
O1 O 0.49229 0.31241 0.15454 0.0
O2 O 0.59356 0.39232 0.15548 0.0
C3 C 0.53238 0.1562 0.15266 0.0
C4 C 0.62294 0.30785 0.22657 0.0
C5 C 0.6227 0.31347 0.08124 0.0
O6 O 0.4922 0.17836 0.15343 0.0
O7 O 0.59343 0.19963 0.15238 0.0
O8 O 0.66197 0.33261 0.11007 0.0
O9 O 0.5613 0.28155 0.08909 0.0
C10 C 0.53253 0.37475 0.15528 0.0
O11 O 0.66212 0.32787 0.1977 0.0
O12 O 0.56151 0.27839 0.21879 0.0
In13 In 0.2855 0.57789 0.48731 0.0
O14 O 0.3306 0.66346 0.53107 0.0
O15 O 0.27945 0.5629 0.55218 0.0
C16 C 0.30596 0.62412 0.41463 0.0
C17 C 0.15415 0.53371 0.48854 0.0
C18 C 0.37254 0.53358 0.48614 0.0
O19 O 0.32602 0.66333 0.44349 0.0
O20 O 0.27639 0.56272 0.42244 0.0
O21 O 0.31017 0.49346 0.48684 0.0
O22 O 0.39024 0.59463 0.48589 0.0
C23 C 0.31139 0.62432 0.55995 0.0
O24 O 0.17631 0.49354 0.48785 0.0
O25 O 0.19759 0.59475 0.48874 0.0
In26 In 0.70367 0.287 0.82066 0.0
O27 O 0.66333 0.33235 0.86433 0.0
O28 O 0.71269 0.28122 0.88554 0.0
C29 C 0.67785 0.30712 0.74794 0.0
C30 C 0.6164 0.1557 0.82204 0.0
C31 C 0.83506 0.37398 0.81947 0.0
O32 O 0.65872 0.3273 0.77675 0.0
O33 O 0.70971 0.27761 0.75583 0.0
O34 O 0.81278 0.31162 0.82026 0.0
O35 O 0.79171 0.39169 0.81913 0.0
C36 C 0.68328 0.31325 0.89325 0.0
O37 O 0.67875 0.17783 0.82135 0.0
O38 O 0.59884 0.19916 0.82219 0.0
In39 In 0.41344 0.7059 0.15401 0.0
O40 O 0.49787 0.68122 0.15461 0.0
O41 O 0.39666 0.60119 0.15548 0.0
C42 C 0.45747 0.8372 0.15275 0.0
C43 C 0.36706 0.68541 0.22666 0.0
C44 C 0.3673 0.67987 0.08131 0.0
O45 O 0.49771 0.81512 0.1535 0.0
O46 O 0.39644 0.79371 0.1525 0.0
O47 O 0.32804 0.66074 0.11015 0.0
O48 O 0.42871 0.71184 0.08916 0.0
C49 C 0.45771 0.61886 0.1553 0.0
O50 O 0.32789 0.66536 0.19778 0.0
O51 O 0.4285 0.71502 0.21888 0.0
In52 In 0.70368 0.41433 0.48733 0.0
O53 O 0.81284 0.49874 0.48794 0.0
O54 O 0.79164 0.39755 0.48875 0.0
C55 C 0.61647 0.45842 0.48618 0.0
C56 C 0.67776 0.36783 0.55994 0.0
C57 C 0.68348 0.36829 0.41461 0.0
O58 O 0.67882 0.49862 0.48693 0.0
O59 O 0.59888 0.39739 0.48586 0.0
O60 O 0.66339 0.329 0.44342 0.0
O61 O 0.71294 0.42968 0.4225 0.0
C62 C 0.83505 0.4586 0.48859 0.0
O63 O 0.65861 0.32872 0.53103 0.0
O64 O 0.70965 0.42926 0.55221 0.0
In65 In 0.28552 0.70523 0.82073 0.0
O66 O 0.3101 0.8143 0.8214 0.0
O67 O 0.39022 0.79328 0.82217 0.0
C68 C 0.1542 0.61793 0.81955 0.0
C69 C 0.30616 0.67935 0.89333 0.0
C70 C 0.31136 0.68509 0.74799 0.0
O71 O 0.17631 0.68026 0.82031 0.0
O72 O 0.19768 0.6004 0.81925 0.0
O73 O 0.3306 0.66503 0.77679 0.0
O74 O 0.27939 0.7145 0.75589 0.0
C75 C 0.37248 0.8366 0.82205 0.0
O76 O 0.32619 0.66028 0.86442 0.0
O77 O 0.27652 0.71114 0.88561 0.0
C78 C 0.50009 0.02951 0.15226 0.0
C79 C 0.51133 0.08633 0.15247 0.0
C80 C 0.48965 0.96386 0.15228 0.0
C81 C 0.47844 0.90705 0.15252 0.0
C82 C 0.46686 0.50117 0.48578 0.0
C83 C 0.42131 0.51247 0.48597 0.0
C84 C 0.52203 0.49066 0.48579 0.0
C85 C 0.56761 0.47941 0.486 0.0
C86 C 0.96183 0.46827 0.81912 0.0
C87 C 0.90496 0.42273 0.81931 0.0
C88 C 0.02751 0.52344 0.81914 0.0
C89 C 0.08434 0.56904 0.81936 0.0
C90 C 0.02744 0.50143 0.48899 0.0
C91 C 0.08428 0.51268 0.48876 0.0
C92 C 0.96177 0.49095 0.489 0.0
C93 C 0.90493 0.47969 0.4888 0.0
C94 C 0.46675 0.96335 0.82255 0.0
C95 C 0.42121 0.9065 0.82231 0.0
C96 C 0.52193 0.02902 0.82255 0.0
C97 C 0.56753 0.08585 0.8223 0.0
C98 C 0.49001 0.52448 0.15576 0.0
C99 C 0.47879 0.57007 0.15553 0.0
C100 C 0.50039 0.46925 0.15576 0.0
C101 C 0.51157 0.42362 0.15551 0.0
C102 C 0.66626 0.33131 0.96695 0.0
C103 C 0.67222 0.32508 0.93268 0.0
C104 C 0.65739 0.33133 0.00748 0.0
C105 C 0.64533 0.32516 0.04176 0.0
C106 C 0.33211 0.66809 0.30039 0.0
C107 C 0.34429 0.6742 0.26612 0.0
C108 C 0.3231 0.65902 0.3409 0.0
C109 C 0.31706 0.64683 0.37516 0.0
C110 C 0.66007 0.32394 0.67417 0.0
C111 C 0.66623 0.31804 0.70844 0.0
C112 C 0.66002 0.33284 0.63365 0.0
C113 C 0.66612 0.34501 0.59938 0.0
C114 C 0.32351 0.66173 0.96704 0.0
C115 C 0.31741 0.66777 0.93277 0.0
C116 C 0.33253 0.66187 0.00756 0.0
C117 C 0.34465 0.66812 0.04183 0.0
C118 C 0.66664 0.33367 0.34084 0.0
C119 C 0.67254 0.34571 0.37512 0.0
C120 C 0.65779 0.32482 0.3003 0.0
C121 C 0.64568 0.31888 0.26603 0.0
C122 C 0.3291 0.66821 0.67421 0.0
C123 C 0.32297 0.67414 0.70849 0.0
C124 C 0.32913 0.65928 0.63368 0.0
C125 C 0.32303 0.64712 0.59941 0.0
loop_
_geom_bond_atom_site_label_1
_geom_bond_atom_site_label_2
_geom_bond_distance
_geom_bond_site_symmetry_2
_ccdc_geom_bond_type
In0 O1 2.294 . S
In0 O2 2.326 . S
In0 O6 2.266 . S
In0 O7 2.326 . S
In0 O8 2.266 . S
In0 O9 2.326 . S
In0 O11 2.294 . S
In0 O12 2.326 . S
O1 In0 2.294 . S
O1 C10 1.240 . S
O2 In0 2.326 . S
O2 C10 1.252 . S
C3 O6 1.252 . S
C3 O7 1.260 . S
C4 O11 1.240 . S
C4 O12 1.252 . S
C5 O8 1.252 . S
C5 O9 1.260 . S
O6 In0 2.266 . S
O6 C3 1.252 . S
O7 In0 2.326 . S
O7 C3 1.260 . S
O8 In0 2.266 . S
O8 C5 1.252 . S
O9 In0 2.326 . S
O9 C5 1.260 . S
C10 O1 1.240 . S
C10 O2 1.252 . S
O11 In0 2.294 . S
O11 C4 1.240 . S
O12 In0 2.326 . S
O12 C4 1.252 . S
In13 O14 2.294 . S
In13 O15 2.326 . S
In13 O19 2.266 . S
In13 O20 2.326 . S
In13 O21 2.266 . S
In13 O22 2.326 . S
In13 O24 2.294 . S
In13 O25 2.326 . S
O14 In13 2.294 . S
O14 C23 1.240 . S
O15 In13 2.326 . S
O15 C23 1.252 . S
C16 O19 1.252 . S
C16 O20 1.260 . S
C17 O24 1.240 . S
C17 O25 1.252 . S
C18 O21 1.252 . S
C18 O22 1.260 . S
O19 In13 2.266 . S
O19 C16 1.252 . S
O20 In13 2.326 . S
O20 C16 1.260 . S
O21 In13 2.266 . S
O21 C18 1.252 . S
O22 In13 2.326 . S
O22 C18 1.260 . S
C23 O14 1.240 . S
C23 O15 1.252 . S
O24 In13 2.294 . S
O24 C17 1.240 . S
O25 In13 2.326 . S
O25 C17 1.252 . S
In26 O27 2.294 . S
In26 O28 2.326 . S
In26 O32 2.266 . S
In26 O33 2.326 . S
In26 O34 2.266 . S
In26 O35 2.326 . S
In26 O37 2.294 . S
In26 O38 2.326 . S
O27 In26 2.294 . S
O27 C36 1.240 . S
O28 In26 2.326 . S
O28 C36 1.252 . S
C29 O32 1.252 . S
C29 O33 1.260 . S
C30 O37 1.240 . S
C30 O38 1.252 . S
C31 O34 1.252 . S
C31 O35 1.260 . S
O32 In26 2.266 . S
O32 C29 1.252 . S
O33 In26 2.326 . S
O33 C29 1.260 . S
O34 In26 2.266 . S
O34 C31 1.252 . S
O35 In26 2.326 . S
O35 C31 1.260 . S
C36 O27 1.240 . S
C36 O28 1.252 . S
O37 In26 2.294 . S
O37 C30 1.240 . S
O38 In26 2.326 . S
O38 C30 1.252 . S
In39 O40 2.294 . S
In39 O41 2.326 . S
In39 O45 2.266 . S
In39 O46 2.326 . S
In39 O47 2.266 . S
In39 O48 2.326 . S
In39 O50 2.294 . S
In39 O51 2.326 . S
O40 In39 2.294 . S
O40 C49 1.240 . S
O41 In39 2.326 . S
O41 C49 1.252 . S
C42 O45 1.252 . S
C42 O46 1.260 . S
C43 O50 1.240 . S
C43 O51 1.252 . S
C44 O47 1.252 . S
C44 O48 1.260 . S
O45 In39 2.266 . S
O45 C42 1.252 . S
O46 In39 2.326 . S
O46 C42 1.260 . S
O47 In39 2.266 . S
O47 C44 1.252 . S
O48 In39 2.326 . S
O48 C44 1.260 . S
C49 O40 1.240 . S
C49 O41 1.252 . S
O50 In39 2.294 . S
O50 C43 1.240 . S
O51 In39 2.326 . S
O51 C43 1.252 . S
In52 O53 2.294 . S
In52 O54 2.326 . S
In52 O58 2.266 . S
In52 O59 2.326 . S
In52 O60 2.266 . S
In52 O61 2.326 . S
In52 O63 2.294 . S
In52 O64 2.326 . S
O53 In52 2.294 . S
O53 C62 1.240 . S
O54 In52 2.326 . S
O54 C62 1.252 . S
C55 O58 1.252 . S
C55 O59 1.260 . S
C56 O63 1.240 . S
C56 O64 1.252 . S
C57 O60 1.252 . S
C57 O61 1.260 . S
O58 In52 2.266 . S
O58 C55 1.252 . S
O59 In52 2.326 . S
O59 C55 1.260 . S
O60 In52 2.266 . S
O60 C57 1.252 . S
O61 In52 2.326 . S
O61 C57 1.260 . S
C62 O53 1.240 . S
C62 O54 1.252 . S
O63 In52 2.294 . S
O63 C56 1.240 . S
O64 In52 2.326 . S
O64 C56 1.252 . S
In65 O66 2.294 . S
In65 O67 2.326 . S
In65 O71 2.266 . S
In65 O72 2.326 . S
In65 O73 2.266 . S
In65 O74 2.326 . S
In65 O76 2.294 . S
In65 O77 2.326 . S
O66 In65 2.294 . S
O66 C75 1.240 . S
O67 In65 2.326 . S
O67 C75 1.252 . S
C68 O71 1.252 . S
C68 O72 1.260 . S
C69 O76 1.240 . S
C69 O77 1.252 . S
C70 O73 1.252 . S
C70 O74 1.260 . S
O71 In65 2.266 . S
O71 C68 1.252 . S
O72 In65 2.326 . S
O72 C68 1.260 . S
O73 In65 2.266 . S
O73 C70 1.252 . S
O74 In65 2.326 . S
O74 C70 1.260 . S
C75 O66 1.240 . S
C75 O67 1.252 . S
O76 In65 2.294 . S
O76 C69 1.240 . S
O77 In65 2.326 . S
O77 C69 1.252 . S
C78 C79 1.170 . S
C78 C80 1.380 1_545 S
C79 C78 1.170 . S
C80 C78 1.380 1_565 S
C80 C81 1.170 . S
C81 C80 1.170 . S
C82 C83 1.170 . S
C82 C84 1.380 . S
C83 C82 1.170 . S
C84 C82 1.380 . S
C84 C85 1.170 . S
C85 C84 1.170 . S
C86 C87 1.170 . S
C86 C88 1.380 1_655 S
C87 C86 1.170 . S
C88 C86 1.380 1_455 S
C88 C89 1.170 . S
C89 C88 1.170 . S
C90 C91 1.170 . S
C90 C92 1.380 1_455 S
C91 C90 1.170 . S
C92 C90 1.380 1_655 S
C92 C93 1.170 . S
C93 C92 1.170 . S
C94 C95 1.170 . S
C94 C96 1.380 1_565 S
C95 C94 1.170 . S
C96 C94 1.380 1_545 S
C96 C97 1.170 . S
C97 C96 1.170 . S
C98 C99 1.170 . S
C98 C100 1.380 . S
C99 C98 1.170 . S
C100 C98 1.380 . S
C100 C101 1.170 . S
C101 C100 1.170 . S
C102 C103 1.170 . S
C102 C104 1.380 1_556 S
C103 C102 1.170 . S
C104 C102 1.380 1_554 S
C104 C105 1.170 . S
C105 C104 1.170 . S
C106 C107 1.170 . S
C106 C108 1.380 . S
C107 C106 1.170 . S
C108 C106 1.380 . S
C108 C109 1.170 . S
C109 C108 1.170 . S
C110 C111 1.170 . S
C110 C112 1.380 . S
C111 C110 1.170 . S
C112 C110 1.380 . S
C112 C113 1.170 . S
C113 C112 1.170 . S
C114 C115 1.170 . S
C114 C116 1.380 1_556 S
C115 C114 1.170 . S
C116 C114 1.380 1_554 S
C116 C117 1.170 . S
C117 C116 1.170 . S
C118 C119 1.170 . S
C118 C120 1.380 . S
C119 C118 1.170 . S
C120 C118 1.380 . S
C120 C121 1.170 . S
C121 C120 1.170 . S
C122 C123 1.170 . S
C122 C124 1.380 . S
C123 C122 1.170 . S
C124 C122 1.380 . S
C124 C125 1.170 . S
C125 C124 1.170 . S
C79 C3 1.462 . S
C81 C42 1.462 . S
C83 C18 1.473 . S
C85 C55 1.443 . S
C87 C31 1.470 . S
C89 C68 1.453 . S
C91 C17 1.458 . S
C93 C62 1.438 . S
C95 C75 1.454 . S
C97 C30 1.428 . S
C99 C49 1.446 . S
C101 C10 1.431 . S
C103 C36 1.396 . S
C105 C5 1.392 . S
C107 C43 1.379 . S
C109 C16 1.384 . S
C111 C29 1.375 . S
C113 C56 1.396 . S
C115 C69 1.399 . S
C117 C44 1.383 . S
C119 C57 1.375 . S
C121 C4 1.389 . S
C123 C70 1.374 . S
C125 C23 1.390 . S
