# Generated by pormake.
# Topology dmp, (4)-cn, num edge types: 1
# Building blocks:
#     Node 0, Type 0, BuildingBlock: TATPOV_clean_sbu_0, # of connection points: 4
#     Node 1, Type 0, BuildingBlock: TATPOV_clean_sbu_0, # of connection points: 4
#     Node 2, Type 0, BuildingBlock: TATPOV_clean_sbu_0, # of connection points: 4
#     Node 3, Type 0, BuildingBlock: TATPOV_clean_sbu_0, # of connection points: 4
#     Edge 4, Type (0, 0), None
#     Edge 5, Type (0, 0), None
#     Edge 6, Type (0, 0), None
#     Edge 7, Type (0, 0), None
#     Edge 8, Type (0, 0), None
#     Edge 9, Type (0, 0), None
#     Edge 10, Type (0, 0), None
#     Edge 11, Type (0, 0), None
# Relax obj value: 0.183
# Max RMSD: 0.247
# Mean RMSD: 0.243
data_MOF--net-dmp--node1-TATPOV_clean_sbu_0--edge1-none
_symmetry_space_group_name_H-M    P1
_symmetry_Int_Tables_number       1
_symmetry_cell_setting            triclinic
loop_
_symmetry_equiv_pos_as_xyz
'x, y, z'
_cell_length_a     16.785324
_cell_length_b     7.9728465
_cell_length_c     9.2852435
_cell_angle_alpha  89.128305
_cell_angle_beta   100.05676
_cell_angle_gamma 90.017983
loop_
_atom_site_label
_atom_site_type_symbol
_atom_site_fract_x
_atom_site_fract_y
_atom_site_fract_z
_atom_type_partial_charge
Zn0 Zn 0.19291 0.14614 0.03318 0.0
Zn1 Zn 0.10104 0.22409 0.2499 0.0
O2 O 0.12204 0.44692 0.15799 0.0
O3 O 0.21305 0.39733 0.02076 0.0
O4 O 0.0366 0.29908 0.40331 0.0
O5 O 0.09394 0.01184 0.93592 0.0
O6 O 0.03229 0.05384 0.12414 0.0
C7 C 0.18127 0.49629 0.10008 0.0
C8 C 0.2654 0.05057 0.33032 0.0
O9 O 0.20306 0.11959 0.3641 0.0
O10 O 0.27368 0.03763 0.19788 0.0
C11 C 0.07483 0.36739 0.51792 0.0
O12 O 0.15403 0.37754 0.537 0.0
C13 C 0.0359 -0.01759 1.00373 0.0
Zn14 Zn 0.3158 0.68642 0.506 0.0
Zn15 Zn 0.40118 0.77423 0.24477 0.0
O16 O 0.38723 0.90345 0.41768 0.0
O17 O 0.30357 0.93667 0.56412 0.0
O18 O 0.45779 0.91508 0.11 0.0
O19 O 0.42401 0.55117 0.53876 0.0
O20 O 0.47494 0.58532 0.33354 0.0
C21 C 0.32674 -0.01822 0.44724 0.0
C22 C 0.23712 0.61173 0.18797 0.0
O23 O 0.29796 0.66836 0.13763 0.0
O24 O 0.23502 0.61323 0.32453 0.0
C25 C 0.42132 -0.02547 0.98848 0.0
O26 O 0.34393 -0.05564 0.94636 0.0
C27 C 0.47625 0.51586 0.45884 0.0
Zn28 Zn 0.8243 0.65722 1.00982 0.0
Zn29 Zn 0.90269 0.59673 0.74018 0.0
O30 O 0.9734 0.79007 0.82501 0.0
O31 O 0.92632 0.80952 0.03469 0.0
O32 O 0.95577 0.47078 0.59415 0.0
O33 O 0.82375 0.40382 0.07368 0.0
O34 O 0.89858 0.45344 0.91388 0.0
C35 C 0.97497 0.85558 0.95027 0.0
C36 C 0.73544 0.74617 0.70003 0.0
O37 O 0.79557 0.69881 0.6438 0.0
O38 O 0.73626 0.73191 0.83725 0.0
C39 C 0.03161 0.44506 0.62439 0.0
O40 O 0.07259 0.50031 0.74799 0.0
C41 C 0.84066 0.37062 0.94994 0.0
Zn42 Zn 0.69382 0.22241 0.54656 0.0
Zn43 Zn 0.60725 0.15389 0.77035 0.0
O44 O 0.53808 0.32341 0.63925 0.0
O45 O 0.59688 0.36408 0.44688 0.0
O46 O 0.5425 0.0861 0.92591 0.0
O47 O 0.70872 -0.03053 0.53521 0.0
O48 O 0.6268 0.92612 0.69229 0.0
C49 C 0.53982 0.39405 0.51616 0.0
C50 C 0.77444 0.3126 0.83819 0.0
O51 O 0.71185 0.25047 0.87849 0.0
O52 O 0.77991 0.32395 0.70385 0.0
C53 C 0.46708 0.06033 0.8883 0.0
O54 O 0.43196 0.09474 0.7536 0.0
C55 C 0.67963 0.87203 0.62183 0.0
loop_
_geom_bond_atom_site_label_1
_geom_bond_atom_site_label_2
_geom_bond_distance
_geom_bond_site_symmetry_2
_ccdc_geom_bond_type
Zn0 O3 2.031 1_556 S
Zn0 O5 2.049 . S
Zn0 O10 2.067 1_556 S
Zn1 O2 1.962 . S
Zn1 O4 1.986 1_455 S
Zn1 O6 1.996 . S
Zn1 O9 1.943 . S
O2 Zn1 1.962 . S
O2 C7 1.254 . S
O3 Zn0 2.031 1_554 S
O3 C7 1.269 . S
O4 Zn1 1.986 1_655 S
O4 C11 1.262 1_655 S
O5 Zn0 2.049 . S
O5 C13 1.260 . S
O6 Zn1 1.996 . S
O6 C13 1.257 1_554 S
C7 O2 1.254 . S
C7 O3 1.269 . S
C8 O9 1.249 . S
C8 O10 1.270 . S
O9 Zn1 1.943 . S
O9 C8 1.249 . S
O10 Zn0 2.067 1_554 S
O10 C8 1.270 . S
C11 O4 1.262 1_455 S
C11 O12 1.232 . S
O12 C11 1.232 . S
C13 O5 1.260 . S
C13 O6 1.257 1_556 S
Zn14 O17 2.031 . S
Zn14 O19 2.049 . S
Zn14 O24 2.067 . S
Zn15 O16 1.962 1_565 S
Zn15 O18 1.986 . S
Zn15 O20 1.996 . S
Zn15 O23 1.943 . S
O16 Zn15 1.962 1_545 S
O16 C21 1.254 . S
O17 Zn14 2.031 . S
O17 C21 1.269 1_565 S
O18 Zn15 1.986 . S
O18 C25 1.262 . S
O19 Zn14 2.049 . S
O19 C27 1.260 . S
O20 Zn15 1.996 . S
O20 C27 1.257 . S
C21 O16 1.254 . S
C21 O17 1.269 1_545 S
C22 O23 1.249 . S
C22 O24 1.270 . S
O23 Zn15 1.943 . S
O23 C22 1.249 . S
O24 Zn14 2.067 . S
O24 C22 1.270 . S
C25 O18 1.262 . S
C25 O26 1.232 . S
O26 C25 1.232 . S
C27 O19 1.260 . S
C27 O20 1.257 . S
Zn28 O31 2.031 1_554 S
Zn28 O33 2.049 1_554 S
Zn28 O38 2.067 1_554 S
Zn29 O30 1.962 . S
Zn29 O32 1.986 . S
Zn29 O34 1.996 . S
Zn29 O37 1.943 . S
O30 Zn29 1.962 . S
O30 C35 1.254 . S
O31 Zn28 2.031 1_556 S
O31 C35 1.269 . S
O32 Zn29 1.986 . S
O32 C39 1.262 . S
O33 Zn28 2.049 1_556 S
O33 C41 1.260 . S
O34 Zn29 1.996 . S
O34 C41 1.257 . S
C35 O30 1.254 . S
C35 O31 1.269 . S
C36 O37 1.249 . S
C36 O38 1.270 . S
O37 Zn29 1.943 . S
O37 C36 1.249 . S
O38 Zn28 2.067 1_556 S
O38 C36 1.270 . S
C39 O32 1.262 . S
C39 O40 1.232 . S
O40 C39 1.232 . S
C41 O33 1.260 . S
C41 O34 1.257 . S
Zn42 O45 2.031 . S
Zn42 O47 2.049 . S
Zn42 O52 2.067 . S
Zn43 O44 1.962 . S
Zn43 O46 1.986 1_545 S
Zn43 O48 1.994 1_545 S
Zn43 O51 1.943 . S
O44 Zn43 1.962 . S
O44 C49 1.254 . S
O45 Zn42 2.031 . S
O45 C49 1.269 . S
O46 Zn43 1.986 1_565 S
O46 C53 1.262 1_565 S
O47 Zn42 2.049 . S
O47 C55 1.260 1_545 S
O48 Zn43 1.994 1_565 S
O48 C55 1.258 . S
C49 O44 1.254 . S
C49 O45 1.269 . S
C50 O51 1.249 . S
C50 O52 1.270 . S
O51 Zn43 1.943 . S
O51 C50 1.249 . S
O52 Zn42 2.067 . S
O52 C50 1.270 . S
C53 O46 1.262 1_545 S
C53 O54 1.232 . S
O54 C53 1.232 . S
C55 O47 1.260 1_565 S
C55 O48 1.258 . S
C21 C8 1.507 . S
C7 C22 1.507 . S
C55 C36 1.191 . S
C41 C50 1.191 . S
C13 C35 2.120 1_445 S
C53 C25 1.707 1_546 S
C39 C11 1.707 1_655 S
C27 C49 2.120 . S
