# Generated by pormake.
# Topology sow, (4)-cn, num edge types: 1
# Building blocks:
#     Node 0, Type 0, BuildingBlock: QUQFOY_clean_sbu_3, # of connection points: 4
#     Node 1, Type 0, BuildingBlock: QUQFOY_clean_sbu_3, # of connection points: 4
#     Node 2, Type 0, BuildingBlock: QUQFOY_clean_sbu_3, # of connection points: 4
#     Node 3, Type 0, BuildingBlock: QUQFOY_clean_sbu_3, # of connection points: 4
#     Node 4, Type 0, BuildingBlock: QUQFOY_clean_sbu_3, # of connection points: 4
#     Node 5, Type 0, BuildingBlock: QUQFOY_clean_sbu_3, # of connection points: 4
#     Node 6, Type 0, BuildingBlock: QUQFOY_clean_sbu_3, # of connection points: 4
#     Node 7, Type 0, BuildingBlock: QUQFOY_clean_sbu_3, # of connection points: 4
#     Edge 8, Type (0, 0), None
#     Edge 9, Type (0, 0), None
#     Edge 10, Type (0, 0), None
#     Edge 11, Type (0, 0), None
#     Edge 12, Type (0, 0), None
#     Edge 13, Type (0, 0), None
#     Edge 14, Type (0, 0), None
#     Edge 15, Type (0, 0), None
#     Edge 16, Type (0, 0), None
#     Edge 17, Type (0, 0), None
#     Edge 18, Type (0, 0), None
#     Edge 19, Type (0, 0), None
#     Edge 20, Type (0, 0), None
#     Edge 21, Type (0, 0), None
#     Edge 22, Type (0, 0), None
#     Edge 23, Type (0, 0), None
# Relax obj value: 0.152
# Max RMSD: 0.207
# Mean RMSD: 0.207
data_MOF--net-sow--node1-QUQFOY_clean_sbu_3--edge1-none
_symmetry_space_group_name_H-M    P1
_symmetry_Int_Tables_number       1
_symmetry_cell_setting            triclinic
loop_
_symmetry_equiv_pos_as_xyz
'x, y, z'
_cell_length_a     18.066428
_cell_length_b     10.753688
_cell_length_c     11.165784
_cell_angle_alpha  90.032295
_cell_angle_beta   89.994508
_cell_angle_gamma 89.890104
loop_
_atom_site_label
_atom_site_type_symbol
_atom_site_fract_x
_atom_site_fract_y
_atom_site_fract_z
_atom_type_partial_charge
C0 C 0.01306 0.03225 0.02727 0.0
O1 O 0.03276 0.98263 0.12611 0.0
Cd2 Cd 0.11562 0.08551 0.26319 0.0
O3 O 0.04139 0.13367 -0.00951 0.0
Cd4 Cd 0.13253 0.30293 0.01277 0.0
C5 C 0.02361 0.37783 0.21016 0.0
O6 O 0.20612 0.15159 0.12642 0.0
O7 O 0.25304 0.3341 0.11556 0.0
O8 O 0.13893 0.21129 0.81751 0.0
C9 C 0.25709 0.22463 0.15778 0.0
O10 O 0.06192 0.28044 0.22008 0.0
C11 C 0.17314 0.30025 0.76859 0.0
O12 O 0.03829 0.44534 0.11982 0.0
O13 O 0.18245 0.39883 0.8302 0.0
C14 C 0.45802 0.47048 0.5272 0.0
O15 O 0.43811 0.52039 0.62585 0.0
Cd16 Cd 0.35518 0.41755 0.7628 0.0
O17 O 0.42978 0.36893 0.49049 0.0
Cd18 Cd 0.33854 0.19988 0.51278 0.0
C19 C 0.44751 0.1247 0.71076 0.0
O20 O 0.26479 0.3511 0.62618 0.0
O21 O 0.21809 0.16834 0.61559 0.0
O22 O 0.33211 0.2914 0.31758 0.0
C23 C 0.21396 0.27789 0.6577 0.0
O24 O 0.40974 0.22267 0.72109 0.0
C25 C 0.29791 0.20238 0.26866 0.0
O26 O 0.43261 0.05776 0.62003 0.0
O27 O 0.28867 0.10379 0.33017 0.0
C28 C 0.51372 0.4713 0.95223 0.0
O29 O 0.53504 0.52315 0.85548 0.0
Cd30 Cd 0.6185 0.42042 0.71953 0.0
O31 O 0.54155 0.36909 0.98809 0.0
Cd32 Cd 0.63338 0.20156 0.96581 0.0
C33 C 0.52153 0.12892 0.76496 0.0
O34 O 0.70814 0.35107 0.85477 0.0
O35 O 0.75363 0.16722 0.86315 0.0
O36 O 0.63936 0.29338 0.16066 0.0
C37 C 0.75838 0.277 0.82201 0.0
O38 O 0.55568 0.22989 0.74993 0.0
C39 C 0.67254 0.20368 0.21052 0.0
O40 O 0.53903 0.06485 0.85655 0.0
O41 O 0.6816 0.1046 0.14939 0.0
C42 C 0.9574 0.03123 0.45233 0.0
O43 O 0.93597 0.97913 0.3557 0.0
Cd44 Cd 0.85261 0.08177 0.21968 0.0
O45 O 0.92963 0.13356 0.48811 0.0
Cd46 Cd 0.83779 0.30108 0.46578 0.0
C47 C 0.94975 0.37327 0.26508 0.0
O48 O 0.76288 0.15146 0.35481 0.0
O49 O 0.71756 0.33552 0.36312 0.0
O50 O 0.83171 0.20919 0.66053 0.0
C51 C 0.71273 0.22567 0.32203 0.0
O52 O 0.9154 0.27242 0.2503 0.0
C53 C 0.79852 0.29892 0.71045 0.0
O54 O 0.93235 0.43772 0.35652 0.0
O55 O 0.78953 0.39804 0.64946 0.0
C56 C 0.95808 0.97038 0.95161 0.0
O57 O 0.93837 0.02001 0.85278 0.0
Cd58 Cd 0.85547 0.91722 0.71569 0.0
O59 O 0.92975 0.86896 0.98839 0.0
Cd60 Cd 0.83859 0.69973 0.9661 0.0
C61 C 0.94757 0.62497 0.76872 0.0
O62 O 0.76501 0.85104 0.85247 0.0
O63 O 0.71809 0.66853 0.86333 0.0
O64 O 0.8322 0.79134 0.16137 0.0
C65 C 0.71404 0.77799 0.8211 0.0
O66 O 0.90932 0.7224 0.75872 0.0
C67 C 0.798 0.70237 0.21029 0.0
O68 O 0.93281 0.55741 0.85899 0.0
O69 O 0.78869 0.60379 0.14869 0.0
C70 C 0.51312 0.53214 0.45168 0.0
O71 O 0.53302 0.48223 0.35304 0.0
Cd72 Cd 0.61594 0.5851 0.21611 0.0
O73 O 0.54136 0.63369 0.48839 0.0
Cd74 Cd 0.63259 0.80275 0.46609 0.0
C75 C 0.52368 0.87818 0.26799 0.0
O76 O 0.70635 0.65152 0.35271 0.0
O77 O 0.75304 0.83428 0.36329 0.0
O78 O 0.63902 0.71122 0.6613 0.0
C79 C 0.75718 0.72474 0.32118 0.0
O80 O 0.5614 0.78013 0.2577 0.0
C81 C 0.67322 0.80024 0.71023 0.0
O82 O 0.5385 0.94494 0.35888 0.0
O83 O 0.68246 0.89883 0.64871 0.0
C84 C 0.45743 0.53133 0.02666 0.0
O85 O 0.43609 0.47946 0.12339 0.0
Cd86 Cd 0.35259 0.58221 0.25923 0.0
O87 O 0.42959 0.63354 -0.0092 0.0
Cd88 Cd 0.33772 0.801 0.01304 0.0
C89 C 0.44965 0.87369 0.21403 0.0
O90 O 0.26299 0.65157 0.12408 0.0
O91 O 0.2175 0.83542 0.11574 0.0
O92 O 0.33178 0.70923 0.81821 0.0
C93 C 0.21276 0.72564 0.15688 0.0
O94 O 0.41584 0.77249 0.22958 0.0
C95 C 0.2986 0.79895 0.76837 0.0
O96 O 0.43197 0.93741 0.12225 0.0
O97 O 0.28954 0.89802 0.8295 0.0
C98 C 0.01376 0.97135 0.52666 0.0
O99 O 0.03518 0.02339 0.62332 0.0
Cd100 Cd 0.11853 0.92072 0.75945 0.0
O101 O 0.04152 0.86902 0.49084 0.0
Cd102 Cd 0.13332 0.70147 0.51314 0.0
C103 C 0.02142 0.62928 0.71369 0.0
O104 O 0.20823 0.85115 0.62415 0.0
O105 O 0.25358 0.66713 0.61576 0.0
O106 O 0.13942 0.79341 0.31837 0.0
C107 C 0.2584 0.77696 0.65687 0.0
O108 O 0.05597 0.72996 0.72825 0.0
C109 C 0.17261 0.7037 0.26844 0.0
O110 O 0.03873 0.56462 0.62235 0.0
O111 O 0.18161 0.60458 0.32942 0.0
loop_
_geom_bond_atom_site_label_1
_geom_bond_atom_site_label_2
_geom_bond_distance
_geom_bond_site_symmetry_2
_ccdc_geom_bond_type
C0 O1 1.305 1_545 S
C0 O3 1.160 1_554 S
O1 C0 1.305 1_565 S
O1 Cd2 2.226 1_565 S
Cd2 O1 2.226 1_545 S
Cd2 O6 2.273 . S
Cd2 O10 2.277 . S
O3 C0 1.160 1_556 S
O3 Cd4 2.203 1_556 S
Cd4 O3 2.203 1_554 S
Cd4 O6 2.411 . S
Cd4 O7 2.333 . S
Cd4 O8 2.352 1_554 S
Cd4 O12 2.277 . S
Cd4 O13 2.356 1_554 S
C5 O10 1.209 . S
C5 O12 1.226 . S
O6 Cd2 2.273 . S
O6 Cd4 2.411 . S
O6 C9 1.320 . S
O7 Cd4 2.333 . S
O7 C9 1.214 . S
O8 Cd4 2.352 1_556 S
O8 C11 1.258 . S
C9 O6 1.320 . S
C9 O7 1.214 . S
O10 Cd2 2.277 . S
O10 C5 1.209 . S
C11 O8 1.258 . S
C11 O13 1.282 . S
O12 Cd4 2.277 . S
O12 C5 1.226 . S
O13 Cd4 2.356 1_556 S
O13 C11 1.282 . S
C14 O15 1.306 . S
C14 O17 1.160 . S
O15 C14 1.306 . S
O15 Cd16 2.228 . S
Cd16 O15 2.228 . S
Cd16 O20 2.273 . S
Cd16 O24 2.277 . S
O17 C14 1.160 . S
O17 Cd18 2.203 . S
Cd18 O17 2.203 . S
Cd18 O20 2.411 . S
Cd18 O21 2.333 . S
Cd18 O22 2.352 . S
Cd18 O26 2.277 . S
Cd18 O27 2.356 . S
C19 O24 1.209 . S
C19 O26 1.226 . S
O20 Cd16 2.273 . S
O20 Cd18 2.411 . S
O20 C23 1.320 . S
O21 Cd18 2.333 . S
O21 C23 1.214 . S
O22 Cd18 2.352 . S
O22 C25 1.258 . S
C23 O20 1.320 . S
C23 O21 1.214 . S
O24 Cd16 2.277 . S
O24 C19 1.209 . S
C25 O22 1.258 . S
C25 O27 1.282 . S
O26 Cd18 2.277 . S
O26 C19 1.226 . S
O27 Cd18 2.356 . S
O27 C25 1.282 . S
C28 O29 1.306 . S
C28 O31 1.160 1_556 S
O29 C28 1.306 . S
O29 Cd30 2.228 . S
Cd30 O29 2.228 . S
Cd30 O34 2.273 . S
Cd30 O38 2.277 . S
O31 C28 1.160 1_554 S
O31 Cd32 2.203 1_554 S
Cd32 O31 2.203 1_556 S
Cd32 O34 2.411 . S
Cd32 O35 2.333 . S
Cd32 O36 2.352 1_556 S
Cd32 O40 2.277 . S
Cd32 O41 2.356 1_556 S
C33 O38 1.209 . S
C33 O40 1.226 . S
O34 Cd30 2.273 . S
O34 Cd32 2.411 . S
O34 C37 1.320 . S
O35 Cd32 2.333 . S
O35 C37 1.214 . S
O36 Cd32 2.352 1_554 S
O36 C39 1.258 . S
C37 O34 1.320 . S
C37 O35 1.214 . S
O38 Cd30 2.277 . S
O38 C33 1.209 . S
C39 O36 1.258 . S
C39 O41 1.282 . S
O40 Cd32 2.277 . S
O40 C33 1.226 . S
O41 Cd32 2.356 1_554 S
O41 C39 1.282 . S
C42 O43 1.305 1_545 S
C42 O45 1.160 . S
O43 C42 1.305 1_565 S
O43 Cd44 2.226 1_565 S
Cd44 O43 2.226 1_545 S
Cd44 O48 2.273 . S
Cd44 O52 2.277 . S
O45 C42 1.160 . S
O45 Cd46 2.203 . S
Cd46 O45 2.203 . S
Cd46 O48 2.411 . S
Cd46 O49 2.333 . S
Cd46 O50 2.352 . S
Cd46 O54 2.277 . S
Cd46 O55 2.356 . S
C47 O52 1.209 . S
C47 O54 1.226 . S
O48 Cd44 2.273 . S
O48 Cd46 2.411 . S
O48 C51 1.320 . S
O49 Cd46 2.333 . S
O49 C51 1.214 . S
O50 Cd46 2.352 . S
O50 C53 1.258 . S
C51 O48 1.320 . S
C51 O49 1.214 . S
O52 Cd44 2.277 . S
O52 C47 1.209 . S
C53 O50 1.258 . S
C53 O55 1.282 . S
O54 Cd46 2.277 . S
O54 C47 1.226 . S
O55 Cd46 2.356 . S
O55 C53 1.282 . S
C56 O57 1.305 1_565 S
C56 O59 1.160 1_556 S
O57 C56 1.305 1_545 S
O57 Cd58 2.226 1_545 S
Cd58 O57 2.226 1_565 S
Cd58 O62 2.273 . S
Cd58 O66 2.277 . S
O59 C56 1.160 1_554 S
O59 Cd60 2.203 1_554 S
Cd60 O59 2.203 1_556 S
Cd60 O62 2.411 . S
Cd60 O63 2.333 . S
Cd60 O64 2.352 1_556 S
Cd60 O68 2.277 . S
Cd60 O69 2.356 1_556 S
C61 O66 1.209 . S
C61 O68 1.226 . S
O62 Cd58 2.273 . S
O62 Cd60 2.411 . S
O62 C65 1.320 . S
O63 Cd60 2.333 . S
O63 C65 1.214 . S
O64 Cd60 2.352 1_554 S
O64 C67 1.258 . S
C65 O62 1.320 . S
C65 O63 1.214 . S
O66 Cd58 2.277 . S
O66 C61 1.209 . S
C67 O64 1.258 . S
C67 O69 1.282 . S
O68 Cd60 2.277 . S
O68 C61 1.226 . S
O69 Cd60 2.356 1_554 S
O69 C67 1.282 . S
C70 O71 1.306 . S
C70 O73 1.160 . S
O71 C70 1.306 . S
O71 Cd72 2.228 . S
Cd72 O71 2.228 . S
Cd72 O76 2.273 . S
Cd72 O80 2.277 . S
O73 C70 1.160 . S
O73 Cd74 2.203 . S
Cd74 O73 2.203 . S
Cd74 O76 2.411 . S
Cd74 O77 2.333 . S
Cd74 O78 2.352 . S
Cd74 O82 2.277 . S
Cd74 O83 2.356 . S
C75 O80 1.209 . S
C75 O82 1.226 . S
O76 Cd72 2.273 . S
O76 Cd74 2.411 . S
O76 C79 1.320 . S
O77 Cd74 2.333 . S
O77 C79 1.214 . S
O78 Cd74 2.352 . S
O78 C81 1.258 . S
C79 O76 1.320 . S
C79 O77 1.214 . S
O80 Cd72 2.277 . S
O80 C75 1.209 . S
C81 O78 1.258 . S
C81 O83 1.282 . S
O82 Cd74 2.277 . S
O82 C75 1.226 . S
O83 Cd74 2.356 . S
O83 C81 1.282 . S
C84 O85 1.306 . S
C84 O87 1.160 1_554 S
O85 C84 1.306 . S
O85 Cd86 2.228 . S
Cd86 O85 2.228 . S
Cd86 O90 2.273 . S
Cd86 O94 2.277 . S
O87 C84 1.160 1_556 S
O87 Cd88 2.203 1_556 S
Cd88 O87 2.203 1_554 S
Cd88 O90 2.411 . S
Cd88 O91 2.333 . S
Cd88 O92 2.352 1_554 S
Cd88 O96 2.277 . S
Cd88 O97 2.356 1_554 S
C89 O94 1.209 . S
C89 O96 1.226 . S
O90 Cd86 2.273 . S
O90 Cd88 2.411 . S
O90 C93 1.320 . S
O91 Cd88 2.333 . S
O91 C93 1.214 . S
O92 Cd88 2.352 1_556 S
O92 C95 1.258 . S
C93 O90 1.320 . S
C93 O91 1.214 . S
O94 Cd86 2.277 . S
O94 C89 1.209 . S
C95 O92 1.258 . S
C95 O97 1.282 . S
O96 Cd88 2.277 . S
O96 C89 1.226 . S
O97 Cd88 2.356 1_556 S
O97 C95 1.282 . S
C98 O99 1.305 1_565 S
C98 O101 1.160 . S
O99 C98 1.305 1_545 S
O99 Cd100 2.226 1_545 S
Cd100 O99 2.226 1_565 S
Cd100 O104 2.273 . S
Cd100 O108 2.277 . S
O101 C98 1.160 . S
O101 Cd102 2.203 . S
Cd102 O101 2.203 . S
Cd102 O104 2.411 . S
Cd102 O105 2.333 . S
Cd102 O106 2.352 . S
Cd102 O110 2.277 . S
Cd102 O111 2.356 . S
C103 O108 1.209 . S
C103 O110 1.226 . S
O104 Cd100 2.273 . S
O104 Cd102 2.411 . S
O104 C107 1.320 . S
O105 Cd102 2.333 . S
O105 C107 1.214 . S
O106 Cd102 2.352 . S
O106 C109 1.258 . S
C107 O104 1.320 . S
C107 O105 1.214 . S
O108 Cd100 2.277 . S
O108 C103 1.209 . S
C109 O106 1.258 . S
C109 O111 1.282 . S
O110 Cd102 2.277 . S
O110 C103 1.226 . S
O111 Cd102 2.356 . S
O111 C109 1.282 . S
C23 C11 1.923 . S
C9 C25 1.923 . S
C51 C39 1.923 . S
C37 C53 1.923 . S
C67 C79 1.923 . S
C81 C65 1.923 . S
C95 C107 1.923 . S
C93 C109 1.923 . S
C5 C47 0.965 1_455 S
C19 C33 0.965 . S
C103 C61 0.965 1_455 S
C89 C75 0.965 . S
C0 C56 1.644 1_444 S
C70 C14 1.644 . S
C84 C28 1.644 1_554 S
C98 C42 1.644 1_465 S
