# Generated by pormake.
# Topology kag, (6)-cn, num edge types: 1
# Building blocks:
#     Node 0, Type 0, BuildingBlock: BETDEL_clean_sbu_0, # of connection points: 6
#     Node 1, Type 0, BuildingBlock: BETDEL_clean_sbu_0, # of connection points: 6
#     Node 2, Type 0, BuildingBlock: BETDEL_clean_sbu_0, # of connection points: 6
#     Edge 3, Type (0, 0), BuildingBlock: EZIPEK_clean_linker_0, # of connection points: 2
#     Edge 4, Type (0, 0), BuildingBlock: EZIPEK_clean_linker_0, # of connection points: 2
#     Edge 5, Type (0, 0), BuildingBlock: EZIPEK_clean_linker_0, # of connection points: 2
#     Edge 6, Type (0, 0), BuildingBlock: EZIPEK_clean_linker_0, # of connection points: 2
#     Edge 7, Type (0, 0), BuildingBlock: EZIPEK_clean_linker_0, # of connection points: 2
#     Edge 8, Type (0, 0), BuildingBlock: EZIPEK_clean_linker_0, # of connection points: 2
#     Edge 9, Type (0, 0), BuildingBlock: EZIPEK_clean_linker_0, # of connection points: 2
#     Edge 10, Type (0, 0), BuildingBlock: EZIPEK_clean_linker_0, # of connection points: 2
#     Edge 11, Type (0, 0), BuildingBlock: EZIPEK_clean_linker_0, # of connection points: 2
# Relax obj value: 0.022
# Max RMSD: 0.076
# Mean RMSD: 0.054
data_MOF--net-kag--node1-BETDEL_clean_sbu_0--edge1-EZIPEK_clean_linker_0
_symmetry_space_group_name_H-M    P1
_symmetry_Int_Tables_number       1
_symmetry_cell_setting            triclinic
loop_
_symmetry_equiv_pos_as_xyz
'x, y, z'
_cell_length_a     22.600085
_cell_length_b     25.270441
_cell_length_c     10.563265
_cell_angle_alpha  94.489552
_cell_angle_beta   91.08631
_cell_angle_gamma 110.90698
loop_
_atom_site_label
_atom_site_type_symbol
_atom_site_fract_x
_atom_site_fract_y
_atom_site_fract_z
_atom_type_partial_charge
Dy0 Dy 0.98516 0.45567 0.99936 0.0
C1 C 0.12759 0.69308 0.01231 0.0
C2 C 0.91932 0.34184 0.01054 0.0
Dy3 Dy 0.06145 0.57924 0.02297 0.0
O4 O 0.91161 0.37229 0.92334 0.0
O5 O 0.96465 0.37329 0.09124 0.0
O6 O 0.94914 0.46192 0.8053 0.0
O7 O 0.04205 0.51345 0.86419 0.0
C8 C 0.99971 0.50219 0.7761 0.0
C9 C 0.04608 0.5321 0.24611 0.0
O10 O 0.96249 0.58076 1.00101 0.0
O11 O 0.91009 0.48955 0.05668 0.0
O12 O 0.13671 0.66213 0.09697 0.0
O13 O 0.08078 0.6622 0.93428 0.0
O14 O 0.09642 0.57301 0.21845 0.0
O15 O 1.00426 0.5214 0.15744 0.0
O16 O 0.08432 0.45428 0.01937 0.0
O17 O 0.13656 0.5457 0.96479 0.0
C18 C 0.90994 0.53951 0.02834 0.0
C19 C 0.1368 0.49567 0.99218 0.0
Dy20 Dy 0.59234 0.0511 0.01439 0.0
C21 C 0.3344 0.90387 1.00745 0.0
C22 C 0.71173 0.13116 1.007 0.0
Dy23 Dy 0.45382 0.98349 0.99684 0.0
O24 O 0.69091 0.08256 0.93834 0.0
O25 O 0.6675 0.13524 0.07864 0.0
O26 O 0.60363 0.02083 0.20294 0.0
O27 O 0.51897 0.03213 0.15564 0.0
C28 C 0.54713 1.01476 0.23793 0.0
C29 C 0.49922 0.01979 0.77319 0.0
O30 O 0.44736 0.06884 0.04289 0.0
O31 O 0.54899 0.11654 0.98141 0.0
O32 O 0.35601 0.95241 0.07617 0.0
O33 O 0.37782 0.89967 0.9336 0.0
O34 O 0.44267 1.01371 0.80799 0.0
O35 O 0.52712 1.00229 0.85569 0.0
O36 O 0.59881 0.96587 0.96645 0.0
O37 O 0.49726 0.91794 0.02808 0.0
C38 C 0.49265 0.11585 0.01481 0.0
C39 C 0.55356 0.91873 0.99409 0.0
Dy40 Dy 0.53946 0.58085 0.01713 0.0
C41 C 0.49313 0.34361 0.01944 0.0
C42 C 0.55337 0.69118 0.98952 0.0
Dy43 Dy 0.50724 0.45435 0.99592 0.0
O44 O 0.54346 0.66744 0.09536 0.0
O45 O 0.55597 0.65477 0.898 0.0
O46 O 0.58065 0.58778 0.21436 0.0
O47 O 0.50219 0.51537 0.15022 0.0
C48 C 0.54259 0.53829 0.24161 0.0
C49 C 0.50402 0.49752 0.772 0.0
O50 O 0.40921 0.45364 0.01883 0.0
O51 O 0.43333 0.54826 0.98138 0.0
O52 O 0.50572 0.36875 0.91568 0.0
O53 O 0.48804 0.37882 0.11114 0.0
O54 O 0.46658 0.44762 0.79808 0.0
O55 O 0.54439 0.51992 0.86346 0.0
O56 O 0.6374 0.58151 0.99394 0.0
O57 O 0.61327 0.4872 0.03387 0.0
C58 C 0.3919 0.49688 0.99621 0.0
C59 C 0.65473 0.5383 0.01672 0.0
C60 C 1.01361 0.56096 0.5912 0.0
C61 C 1.01399 0.51069 0.64148 0.0
C62 C 0.03358 0.47336 0.43101 0.0
C63 C 0.03106 0.52284 0.38008 0.0
N64 N 1.01167 0.61088 0.40479 0.0
N65 N 1.02111 0.41749 0.61231 0.0
C66 C 1.01933 0.56599 0.45844 0.0
C67 C 0.02311 0.46641 0.56212 0.0
N68 N 1.00838 0.60411 0.6711 0.0
N69 N 0.04776 0.43383 0.35429 0.0
H70 H 1.01902 0.41259 0.70941 0.0
H71 H 1.01934 0.38069 0.55833 0.0
H72 H 0.05222 0.43622 0.25683 0.0
H73 H 0.05788 0.40001 0.38653 0.0
H74 H 1.01534 0.64466 0.64494 0.0
H75 H 1.0004 0.60033 0.76719 0.0
H76 H 0.99648 0.64078 0.45316 0.0
H77 H 1.01586 0.61628 0.30808 0.0
C78 C 0.57094 0.06422 0.45825 0.0
C79 C 0.5333 0.01684 0.37421 0.0
C80 C 0.47537 0.97013 0.55292 0.0
C81 C 0.51311 0.01751 0.63694 0.0
N82 N 0.60338 0.10454 0.67574 0.0
N83 N 0.44373 0.92929 0.33534 0.0
C84 C 0.56282 0.06312 0.5913 0.0
C85 C 0.48377 0.97106 0.41986 0.0
N86 N 0.6119 0.11162 0.40993 0.0
N87 N 0.43399 0.92297 0.60132 0.0
H88 H 0.44845 0.92889 0.23749 0.0
H89 H 0.40305 0.89721 0.36003 0.0
H90 H 0.42754 0.91994 0.69821 0.0
H91 H 0.40979 0.88466 0.54778 0.0
H92 H 0.63571 0.14995 0.46377 0.0
H93 H 0.61813 0.11481 0.31302 0.0
H94 H 0.64437 0.13619 0.6507 0.0
H95 H 0.59893 0.10485 0.77366 0.0
C96 C 0.55205 0.48417 0.56533 0.0
C97 C 0.51627 0.51054 0.6381 0.0
C98 C 0.49786 0.55555 0.45066 0.0
C99 C 0.53007 0.52607 0.37603 0.0
N100 N 0.57896 0.4556 0.35627 0.0
N101 N 0.4497 0.5667 0.6497 0.0
C102 C 0.55463 0.48845 0.43175 0.0
C103 C 0.48776 0.54507 0.58065 0.0
N104 N 0.58484 0.45608 0.62455 0.0
N105 N 0.47772 0.59426 0.39761 0.0
H106 H 0.44395 0.56232 0.74633 0.0
H107 H 0.42104 0.5862 0.61056 0.0
H108 H 0.48024 0.60041 0.30112 0.0
H109 H 0.46126 0.6224 0.44978 0.0
H110 H 0.61764 0.44163 0.58001 0.0
H111 H 0.58344 0.45121 0.72171 0.0
H112 H 0.59161 0.42299 0.38826 0.0
H113 H 0.58165 0.45783 0.25844 0.0
C114 C 0.22629 0.48114 0.87635 0.0
C115 C 0.19824 0.48704 0.99308 0.0
C116 C 0.29589 0.49494 0.11221 0.0
C117 C 0.32381 0.48894 0.99546 0.0
N118 N 0.31381 0.46616 0.76861 0.0
N119 N 0.20176 0.49236 0.22215 0.0
C120 C 0.28837 0.47892 0.87801 0.0
C121 C 0.23156 0.49126 0.1111 0.0
N122 N 0.19396 0.47905 0.7641 0.0
N123 N 0.33193 0.50668 0.22368 0.0
H124 H 0.1563 0.49358 0.22529 0.0
H125 H 0.22023 0.48886 0.31074 0.0
H126 H 0.37837 0.50748 0.22854 0.0
H127 H 0.3175 0.5185 0.31088 0.0
H128 H 0.21402 0.48161 0.67589 0.0
H129 H 0.14716 0.47736 0.75943 0.0
H130 H 0.28883 0.45325 0.68105 0.0
H131 H 0.35909 0.46426 0.76707 0.0
C132 C 0.80565 0.19529 0.89514 0.0
C133 C 0.77583 0.17626 0.00889 0.0
C134 C 0.84891 0.26196 0.13119 0.0
C135 C 0.87833 0.28139 0.01739 0.0
N136 N 0.89926 0.25771 0.80167 0.0
N137 N 0.78523 0.18075 0.23757 0.0
C138 C 0.86143 0.24499 0.90281 0.0
C139 C 0.80297 0.20612 0.12776 0.0
N140 N 0.77919 0.1686 0.77928 0.0
N141 N 0.86089 0.29752 0.24058 0.0
H142 H 0.75364 0.1389 0.23783 0.0
H143 H 0.80735 0.19863 0.32624 0.0
H144 H 0.89323 0.3391 0.24902 0.0
H145 H 0.83457 0.28713 0.32095 0.0
H146 H 0.79461 0.18546 0.69376 0.0
H147 H 0.73928 0.13157 0.76761 0.0
H148 H 0.89258 0.2302 0.71947 0.0
H149 H 0.94148 0.2929 0.8059 0.0
C150 C 0.60186 0.85042 0.06936 0.0
C151 C 0.56323 0.8637 0.97932 0.0
C152 C 0.5211 0.76439 0.8885 0.0
C153 C 0.56057 0.75114 0.97718 0.0
N154 N 0.65 0.78367 0.12905 0.0
N155 N 0.49973 0.838 0.783 0.0
C156 C 0.60449 0.79487 0.06078 0.0
C157 C 0.52727 0.82207 0.88221 0.0
N158 N 0.63399 0.89006 0.16603 0.0
N159 N 0.475 0.72186 0.81589 0.0
H160 H 0.50455 0.8802 0.77495 0.0
H161 H 0.47793 0.81074 0.70284 0.0
H162 H 0.46771 0.67889 0.81892 0.0
H163 H 0.44029 0.72873 0.76043 0.0
H164 H 0.65637 0.88075 0.24375 0.0
H165 H 0.63504 0.93172 0.17255 0.0
H166 H 0.6871 0.81497 0.18232 0.0
H167 H 0.65449 0.74388 0.12237 0.0
C168 C 0.81772 0.549 0.90908 0.0
C169 C 0.84861 0.54838 0.02707 0.0
C170 C 0.75398 0.5463 0.1398 0.0
C171 C 0.72305 0.54671 0.02178 0.0
N172 N 0.72752 0.55818 0.79717 0.0
N173 N 0.85171 0.55575 0.25574 0.0
C174 C 0.75583 0.55161 0.90748 0.0
C175 C 0.81827 0.54979 0.14289 0.0
N176 N 0.84595 0.54343 0.79797 0.0
N177 N 0.72143 0.54199 0.24865 0.0
H178 H 0.89872 0.55813 0.26058 0.0
H179 H 0.83501 0.56236 0.34442 0.0
H180 H 0.67648 0.54458 0.25139 0.0
H181 H 0.73764 0.53409 0.3354 0.0
H182 H 0.82325 0.53652 0.70831 0.0
H183 H 0.89132 0.54191 0.79512 0.0
H184 H 0.75117 0.56847 0.71384 0.0
H185 H 0.68104 0.55716 0.79045 0.0
C186 C 0.18661 0.79003 0.11851 0.0
C187 C 0.16862 0.7534 1.00444 0.0
C188 C 0.2422 0.82842 0.89067 0.0
C189 C 0.27046 0.85874 0.00845 0.0
N190 N 0.26948 0.86726 0.23846 0.0
N191 N 0.18362 0.73659 0.78032 0.0
C192 C 0.24203 0.83999 0.12367 0.0
C193 C 0.19661 0.77252 0.88927 0.0
N194 N 0.15012 0.77733 0.22157 0.0
N195 N 0.25854 0.85341 0.77998 0.0
H196 H 0.15159 0.69488 0.77354 0.0
H197 H 0.20889 0.74678 0.69861 0.0
H198 H 0.28982 0.8953 0.77835 0.0
H199 H 0.23556 0.83517 0.69219 0.0
H200 H 0.15745 0.80501 0.30365 0.0
H201 H 0.10825 0.74187 0.21935 0.0
H202 H 0.25529 0.8506 0.32475 0.0
H203 H 0.3089 0.90468 0.24849 0.0
C204 C 0.44328 0.24016 0.94421 0.0
C205 C 0.4862 0.28358 0.02997 0.0
C206 C 0.51811 0.21231 0.12684 0.0
C207 C 0.48303 0.17089 0.02859 0.0
N208 N 0.41457 0.1451 0.83858 0.0
N209 N 0.57051 0.31241 0.19365 0.0
C210 C 0.4457 0.18452 0.93639 0.0
C211 C 0.52472 0.27004 0.12015 0.0
N212 N 0.39895 0.25173 0.87301 0.0
N213 N 0.54454 0.19615 0.22735 0.0
H214 H 0.57855 0.35541 0.18885 0.0
H215 H 0.60447 0.30535 0.25097 0.0
H216 H 0.53953 0.15391 0.23557 0.0
H217 H 0.56558 0.22328 0.30812 0.0
H218 H 0.36245 0.22065 0.8179 0.0
H219 H 0.39481 0.29165 0.87852 0.0
H220 H 0.3933 0.15462 0.75957 0.0
H221 H 0.41325 0.10336 0.83272 0.0
loop_
_geom_bond_atom_site_label_1
_geom_bond_atom_site_label_2
_geom_bond_distance
_geom_bond_site_symmetry_2
_ccdc_geom_bond_type
Dy0 O4 2.398 . S
Dy0 O5 2.491 1_556 S
Dy0 O6 2.403 . S
Dy0 O7 2.664 1_655 S
Dy0 O11 2.326 . S
Dy0 O15 2.310 1_556 S
Dy0 O16 2.351 1_655 S
C1 O12 1.185 . S
C1 O13 1.355 1_554 S
C2 O4 1.185 . S
C2 O5 1.355 1_556 S
Dy3 O7 2.310 1_554 S
Dy3 O10 2.351 1_455 S
Dy3 O12 2.398 . S
Dy3 O13 2.491 1_554 S
Dy3 O14 2.403 . S
Dy3 O15 2.664 1_455 S
Dy3 O17 2.326 . S
O4 Dy0 2.398 . S
O4 C2 1.185 . S
O5 Dy0 2.491 1_554 S
O5 C2 1.355 1_554 S
O6 Dy0 2.403 . S
O6 C8 1.254 . S
O7 Dy0 2.664 1_455 S
O7 Dy3 2.310 1_556 S
O7 C8 1.268 1_455 S
C8 O6 1.254 . S
C8 O7 1.268 1_655 S
C9 O14 1.254 . S
C9 O15 1.268 1_455 S
O10 Dy3 2.351 1_655 S
O10 C18 1.249 1_554 S
O11 Dy0 2.326 . S
O11 C18 1.267 . S
O12 C1 1.185 . S
O12 Dy3 2.398 . S
O13 C1 1.355 1_556 S
O13 Dy3 2.491 1_556 S
O14 Dy3 2.403 . S
O14 C9 1.254 . S
O15 Dy0 2.310 1_554 S
O15 Dy3 2.664 1_655 S
O15 C9 1.268 1_655 S
O16 Dy0 2.351 1_455 S
O16 C19 1.249 1_556 S
O17 Dy3 2.326 . S
O17 C19 1.267 . S
C18 O10 1.249 1_556 S
C18 O11 1.267 . S
C19 O16 1.249 1_554 S
C19 O17 1.267 . S
Dy20 O24 2.398 . S
Dy20 O25 2.491 1_554 S
Dy20 O26 2.403 . S
Dy20 O27 2.664 1_545 S
Dy20 O31 2.326 . S
Dy20 O35 2.310 1_554 S
Dy20 O36 2.351 1_545 S
C21 O32 1.185 . S
C21 O33 1.355 1_556 S
C22 O24 1.185 . S
C22 O25 1.355 1_554 S
Dy23 O27 2.310 1_556 S
Dy23 O30 2.351 1_565 S
Dy23 O32 2.398 . S
Dy23 O33 2.491 1_556 S
Dy23 O34 2.403 . S
Dy23 O35 2.664 1_565 S
Dy23 O37 2.326 . S
O24 Dy20 2.398 . S
O24 C22 1.185 . S
O25 Dy20 2.491 1_556 S
O25 C22 1.355 1_556 S
O26 Dy20 2.403 . S
O26 C28 1.254 . S
O27 Dy20 2.664 1_565 S
O27 Dy23 2.310 1_554 S
O27 C28 1.268 1_565 S
C28 O26 1.254 . S
C28 O27 1.268 1_545 S
C29 O34 1.254 . S
C29 O35 1.268 1_565 S
O30 Dy23 2.351 1_545 S
O30 C38 1.249 1_556 S
O31 Dy20 2.326 . S
O31 C38 1.267 . S
O32 C21 1.185 . S
O32 Dy23 2.398 . S
O33 C21 1.355 1_554 S
O33 Dy23 2.491 1_554 S
O34 Dy23 2.403 . S
O34 C29 1.254 . S
O35 Dy20 2.310 1_556 S
O35 Dy23 2.664 1_545 S
O35 C29 1.268 1_545 S
O36 Dy20 2.351 1_565 S
O36 C39 1.249 1_554 S
O37 Dy23 2.326 . S
O37 C39 1.267 . S
C38 O30 1.249 1_554 S
C38 O31 1.267 . S
C39 O36 1.249 1_556 S
C39 O37 1.267 . S
Dy40 O44 2.398 . S
Dy40 O45 2.491 1_554 S
Dy40 O46 2.403 . S
Dy40 O47 2.664 . S
Dy40 O51 2.326 . S
Dy40 O55 2.310 1_554 S
Dy40 O56 2.351 . S
C41 O52 1.185 . S
C41 O53 1.355 1_556 S
C42 O44 1.185 . S
C42 O45 1.355 1_554 S
Dy43 O47 2.310 1_556 S
Dy43 O50 2.351 . S
Dy43 O52 2.398 . S
Dy43 O53 2.491 1_556 S
Dy43 O54 2.403 . S
Dy43 O55 2.664 . S
Dy43 O57 2.326 . S
O44 Dy40 2.398 . S
O44 C42 1.185 . S
O45 Dy40 2.491 1_556 S
O45 C42 1.355 1_556 S
O46 Dy40 2.403 . S
O46 C48 1.254 . S
O47 Dy40 2.664 . S
O47 Dy43 2.310 1_554 S
O47 C48 1.268 . S
C48 O46 1.254 . S
C48 O47 1.268 . S
C49 O54 1.254 . S
C49 O55 1.268 . S
O50 Dy43 2.351 . S
O50 C58 1.249 1_556 S
O51 Dy40 2.326 . S
O51 C58 1.267 . S
O52 C41 1.185 . S
O52 Dy43 2.398 . S
O53 C41 1.355 1_554 S
O53 Dy43 2.491 1_554 S
O54 Dy43 2.403 . S
O54 C49 1.254 . S
O55 Dy40 2.310 1_556 S
O55 Dy43 2.664 . S
O55 C49 1.268 . S
O56 Dy40 2.351 . S
O56 C59 1.249 1_554 S
O57 Dy43 2.326 . S
O57 C59 1.267 . S
C58 O50 1.249 1_554 S
C58 O51 1.267 . S
C59 O56 1.249 1_556 S
C59 O57 1.267 . S
C60 C61 1.363 1_655 S
C60 C66 1.379 . S
C60 N68 1.356 . S
C61 C60 1.363 1_455 S
C61 C67 1.363 . S
C62 C63 1.363 1_455 S
C62 C67 1.379 . S
C62 N69 1.356 . S
C63 C62 1.363 1_655 S
C63 C66 1.363 . S
N64 C66 1.356 . S
N64 H76 0.984 . S
N64 H77 0.985 . S
N65 C67 1.356 . S
N65 H70 0.984 . S
N65 H71 0.985 . S
C66 C60 1.379 . S
C66 C63 1.363 . S
C66 N64 1.356 . S
C67 C61 1.363 . S
C67 C62 1.379 . S
C67 N65 1.356 . S
N68 C60 1.356 . S
N68 H74 0.984 . S
N68 H75 0.984 . S
N69 C62 1.356 . S
N69 H72 0.984 . S
N69 H73 0.985 . S
H70 N65 0.984 . S
H71 N65 0.985 . S
H72 N69 0.984 . S
H73 N69 0.985 . S
H74 N68 0.984 . S
H75 N68 0.984 . S
H76 N64 0.984 . S
H77 N64 0.985 . S
C78 C79 1.363 . S
C78 C84 1.379 . S
C78 N86 1.356 . S
C79 C78 1.363 . S
C79 C85 1.363 1_545 S
C80 C81 1.363 1_565 S
C80 C85 1.379 . S
C80 N87 1.356 . S
C81 C80 1.363 1_545 S
C81 C84 1.363 . S
N82 C84 1.356 . S
N82 H94 0.984 . S
N82 H95 0.985 . S
N83 C85 1.356 . S
N83 H88 0.984 . S
N83 H89 0.985 . S
C84 C78 1.379 . S
C84 C81 1.363 . S
C84 N82 1.356 . S
C85 C79 1.363 1_565 S
C85 C80 1.379 . S
C85 N83 1.356 . S
N86 C78 1.356 . S
N86 H92 0.984 . S
N86 H93 0.984 . S
N87 C80 1.356 . S
N87 H90 0.984 . S
N87 H91 0.985 . S
H88 N83 0.984 . S
H89 N83 0.985 . S
H90 N87 0.984 . S
H91 N87 0.985 . S
H92 N86 0.984 . S
H93 N86 0.984 . S
H94 N82 0.984 . S
H95 N82 0.985 . S
C96 C97 1.363 . S
C96 C102 1.379 . S
C96 N104 1.356 . S
C97 C96 1.363 . S
C97 C103 1.363 . S
C98 C99 1.363 . S
C98 C103 1.379 . S
C98 N105 1.356 . S
C99 C98 1.363 . S
C99 C102 1.363 . S
N100 C102 1.356 . S
N100 H112 0.984 . S
N100 H113 0.985 . S
N101 C103 1.356 . S
N101 H106 0.984 . S
N101 H107 0.985 . S
C102 C96 1.379 . S
C102 C99 1.363 . S
C102 N100 1.356 . S
C103 C97 1.363 . S
C103 C98 1.379 . S
C103 N101 1.356 . S
N104 C96 1.356 . S
N104 H110 0.984 . S
N104 H111 0.984 . S
N105 C98 1.356 . S
N105 H108 0.984 . S
N105 H109 0.985 . S
H106 N101 0.984 . S
H107 N101 0.985 . S
H108 N105 0.984 . S
H109 N105 0.985 . S
H110 N104 0.984 . S
H111 N104 0.984 . S
H112 N100 0.984 . S
H113 N100 0.985 . S
C114 C115 1.363 . S
C114 C120 1.379 . S
C114 N122 1.356 . S
C115 C114 1.363 . S
C115 C121 1.363 1_556 S
C116 C117 1.363 1_554 S
C116 C121 1.379 . S
C116 N123 1.356 . S
C117 C116 1.363 1_556 S
C117 C120 1.363 . S
N118 C120 1.356 . S
N118 H130 0.984 . S
N118 H131 0.985 . S
N119 C121 1.356 . S
N119 H124 0.984 . S
N119 H125 0.985 . S
C120 C114 1.379 . S
C120 C117 1.363 . S
C120 N118 1.356 . S
C121 C115 1.363 1_554 S
C121 C116 1.379 . S
C121 N119 1.356 . S
N122 C114 1.356 . S
N122 H128 0.984 . S
N122 H129 0.984 . S
N123 C116 1.356 . S
N123 H126 0.984 . S
N123 H127 0.985 . S
H124 N119 0.984 . S
H125 N119 0.985 . S
H126 N123 0.984 . S
H127 N123 0.985 . S
H128 N122 0.984 . S
H129 N122 0.984 . S
H130 N118 0.984 . S
H131 N118 0.985 . S
C132 C133 1.363 . S
C132 C138 1.379 . S
C132 N140 1.356 . S
C133 C132 1.363 . S
C133 C139 1.363 1_556 S
C134 C135 1.363 1_554 S
C134 C139 1.379 . S
C134 N141 1.356 . S
C135 C134 1.363 1_556 S
C135 C138 1.363 . S
N136 C138 1.356 . S
N136 H148 0.984 . S
N136 H149 0.985 . S
N137 C139 1.356 . S
N137 H142 0.984 . S
N137 H143 0.985 . S
C138 C132 1.379 . S
C138 C135 1.363 . S
C138 N136 1.356 . S
C139 C133 1.363 1_554 S
C139 C134 1.379 . S
C139 N137 1.356 . S
N140 C132 1.356 . S
N140 H146 0.984 . S
N140 H147 0.984 . S
N141 C134 1.356 . S
N141 H144 0.984 . S
N141 H145 0.985 . S
H142 N137 0.984 . S
H143 N137 0.985 . S
H144 N141 0.984 . S
H145 N141 0.985 . S
H146 N140 0.984 . S
H147 N140 0.984 . S
H148 N136 0.984 . S
H149 N136 0.985 . S
C150 C151 1.363 1_554 S
C150 C156 1.379 . S
C150 N158 1.356 . S
C151 C150 1.363 1_556 S
C151 C157 1.363 . S
C152 C153 1.361 1_556 S
C152 C157 1.379 . S
C152 N159 1.356 . S
C153 C152 1.361 1_554 S
C153 C156 1.365 . S
N154 C156 1.356 . S
N154 H166 0.984 . S
N154 H167 0.985 . S
N155 C157 1.356 . S
N155 H160 0.984 . S
N155 H161 0.985 . S
C156 C150 1.379 . S
C156 C153 1.365 . S
C156 N154 1.356 . S
C157 C151 1.363 . S
C157 C152 1.379 . S
C157 N155 1.356 . S
N158 C150 1.356 . S
N158 H164 0.984 . S
N158 H165 0.984 . S
N159 C152 1.356 . S
N159 H162 0.984 . S
N159 H163 0.985 . S
H160 N155 0.984 . S
H161 N155 0.985 . S
H162 N159 0.984 . S
H163 N159 0.985 . S
H164 N158 0.984 . S
H165 N158 0.984 . S
H166 N154 0.984 . S
H167 N154 0.985 . S
C168 C169 1.363 1_556 S
C168 C174 1.379 . S
C168 N176 1.356 . S
C169 C168 1.363 1_554 S
C169 C175 1.363 . S
C170 C171 1.363 . S
C170 C175 1.379 . S
C170 N177 1.356 . S
C171 C170 1.363 . S
C171 C174 1.363 1_554 S
N172 C174 1.356 . S
N172 H184 0.984 . S
N172 H185 0.985 . S
N173 C175 1.356 . S
N173 H178 0.984 . S
N173 H179 0.985 . S
C174 C168 1.379 . S
C174 C171 1.363 1_556 S
C174 N172 1.356 . S
C175 C169 1.363 . S
C175 C170 1.379 . S
C175 N173 1.356 . S
N176 C168 1.356 . S
N176 H182 0.984 . S
N176 H183 0.984 . S
N177 C170 1.356 . S
N177 H180 0.984 . S
N177 H181 0.985 . S
H178 N173 0.984 . S
H179 N173 0.985 . S
H180 N177 0.984 . S
H181 N177 0.985 . S
H182 N176 0.984 . S
H183 N176 0.984 . S
H184 N172 0.984 . S
H185 N172 0.985 . S
C186 C187 1.363 . S
C186 C192 1.379 . S
C186 N194 1.356 . S
C187 C186 1.363 . S
C187 C193 1.363 1_554 S
C188 C189 1.363 1_556 S
C188 C193 1.379 . S
C188 N195 1.356 . S
C189 C188 1.363 1_554 S
C189 C192 1.363 . S
N190 C192 1.356 . S
N190 H202 0.984 . S
N190 H203 0.985 . S
N191 C193 1.356 . S
N191 H196 0.984 . S
N191 H197 0.985 . S
C192 C186 1.379 . S
C192 C189 1.363 . S
C192 N190 1.356 . S
C193 C187 1.363 1_556 S
C193 C188 1.379 . S
C193 N191 1.356 . S
N194 C186 1.356 . S
N194 H200 0.984 . S
N194 H201 0.984 . S
N195 C188 1.356 . S
N195 H198 0.984 . S
N195 H199 0.985 . S
H196 N191 0.984 . S
H197 N191 0.985 . S
H198 N195 0.984 . S
H199 N195 0.985 . S
H200 N194 0.984 . S
H201 N194 0.984 . S
H202 N190 0.984 . S
H203 N190 0.985 . S
C204 C205 1.364 . S
C204 C210 1.379 . S
C204 N212 1.356 . S
C205 C204 1.364 . S
C205 C211 1.362 1_556 S
C206 C207 1.363 . S
C206 C211 1.379 . S
C206 N213 1.356 . S
C207 C206 1.363 . S
C207 C210 1.363 1_554 S
N208 C210 1.356 . S
N208 H220 0.984 . S
N208 H221 0.985 . S
N209 C211 1.356 . S
N209 H214 0.984 . S
N209 H215 0.985 . S
C210 C204 1.379 . S
C210 C207 1.363 1_556 S
C210 N208 1.356 . S
C211 C205 1.362 1_554 S
C211 C206 1.379 . S
C211 N209 1.356 . S
N212 C204 1.356 . S
N212 H218 0.984 . S
N212 H219 0.984 . S
N213 C206 1.356 . S
N213 H216 0.984 . S
N213 H217 0.985 . S
H214 N209 0.984 . S
H215 N209 0.985 . S
H216 N213 0.984 . S
H217 N213 0.985 . S
H218 N212 0.984 . S
H219 N212 0.984 . S
H220 N208 0.984 . S
H221 N208 0.985 . S
C61 C8 1.461 1_455 S
C63 C9 1.461 1_655 S
C79 C28 1.455 . S
C81 C29 1.455 1_545 S
C97 C49 1.462 . S
C99 C48 1.462 . S
C115 C19 1.782 1_556 S
C117 C58 1.768 1_556 S
C133 C22 1.256 1_556 S
C135 C2 1.236 . S
C151 C39 1.550 . S
C153 C42 1.503 . S
C169 C18 1.782 1_554 S
C171 C59 1.769 1_554 S
C187 C1 1.236 . S
C189 C21 1.256 1_554 S
C205 C41 1.503 . S
C207 C38 1.550 . S
