# Generated by pormake.
# Topology pcu, (6)-cn, num edge types: 1
# Building blocks:
#     Node 0, Type 0, BuildingBlock: PAMTOO_clean_sbu_0, # of connection points: 6
#     Edge 1, Type (0, 0), BuildingBlock: XIVTED_clean_linker_0, # of connection points: 2
#     Edge 2, Type (0, 0), BuildingBlock: XIVTED_clean_linker_0, # of connection points: 2
#     Edge 3, Type (0, 0), BuildingBlock: XIVTED_clean_linker_0, # of connection points: 2
# Relax obj value: 0.000
# Max RMSD: 0.000
# Mean RMSD: 0.000
data_MOF--net-pcu--node1-PAMTOO_clean_sbu_0--edge1-XIVTED_clean_linker_0
_symmetry_space_group_name_H-M    P1
_symmetry_Int_Tables_number       1
_symmetry_cell_setting            triclinic
loop_
_symmetry_equiv_pos_as_xyz
'x, y, z'
_cell_length_a     25.83181
_cell_length_b     15.531002
_cell_length_c     15.40673
_cell_angle_alpha  84.201653
_cell_angle_beta   98.186453
_cell_angle_gamma 118.08752
loop_
_atom_site_label
_atom_site_type_symbol
_atom_site_fract_x
_atom_site_fract_y
_atom_site_fract_z
_atom_type_partial_charge
Dy0 Dy 0.09569 0.04486 -0.01498 0.0
Dy1 Dy 0.94779 0.93385 0.96281 0.0
C2 C 1.02043 -0.00758 0.79941 0.0
O3 O 0.07184 0.16168 0.0037 0.0
O4 O 0.97544 0.0932 0.93943 0.0
O5 O 0.17709 0.11289 0.92517 0.0
O6 O 0.17974 0.10304 0.06641 0.0
O7 O 0.9772 -0.0122 0.09849 0.0
O8 O 0.06581 0.98424 0.11713 0.0
O9 O 0.97345 0.81468 -0.00228 0.0
O10 O 0.06892 0.8899 0.96072 0.0
O11 O 0.86412 0.83865 0.01263 0.0
O12 O 0.86651 0.90412 0.88119 0.0
C13 C 0.02383 0.16823 0.97142 0.0
O14 O 0.06405 0.06252 0.84491 0.0
O15 O 0.97704 0.92132 0.83772 0.0
C16 C 0.25718 0.0971 0.00575 0.0
C17 C 0.35028 0.04914 0.0086 0.0
C18 C 0.29253 0.98471 0.97414 0.0
C19 C 0.24637 0.00838 0.9729 0.0
C20 C 0.3143 0.16053 0.04173 0.0
C21 C 0.3604 0.13683 0.04331 0.0
C22 C 0.21027 0.12665 -0.00032 0.0
C23 C 0.02192 -0.01405 0.14947 0.0
C24 C 1.02096 0.81132 0.98064 0.0
C25 C 0.78495 0.87166 0.95488 0.0
C26 C 0.69052 0.9111 0.97017 0.0
C27 C 0.7487 0.97616 0.00249 0.0
C28 C 0.7956 0.95672 -0.00535 0.0
C29 C 0.72711 0.80615 0.92378 0.0
C30 C 0.68035 0.82553 0.93133 0.0
C31 C 0.8334 0.85118 0.94216 0.0
H32 H 0.28298 0.91598 0.94804 0.0
H33 H 0.20246 0.95812 0.9452 0.0
H34 H 0.3235 0.22943 0.0672 0.0
H35 H 0.40434 0.18861 0.06945 0.0
H36 H 0.75818 0.04313 0.03201 0.0
H37 H 0.84015 0.00846 0.01857 0.0
H38 H 0.71811 0.74012 0.89291 0.0
H39 H 0.63612 0.77309 0.90701 0.0
H40 H 0.11662 0.03285 0.27503 0.0
H41 H 0.92674 0.89342 0.67898 0.0
H42 H 0.92932 0.94048 0.24281 0.0
H43 H 0.1137 0.09062 0.70147 0.0
H44 H 0.92735 0.8916 0.52065 0.0
H45 H 0.1169 0.03591 0.43387 0.0
C46 C 0.07555 0.01282 0.30134 0.0
C47 C 0.02286 -0.01358 0.24561 0.0
C48 C 0.96818 0.93546 0.56025 0.0
C49 C 0.0229 -0.01075 0.42686 0.0
C50 C 0.96794 0.93631 0.65062 0.0
C51 C 1.02025 -0.00756 0.70344 0.0
C52 C 1.02128 -0.01019 0.5225 0.0
C53 C 0.07232 0.04682 0.66307 0.0
C54 C 0.07583 0.01512 0.39184 0.0
C55 C 0.97099 0.96169 0.28326 0.0
N56 N 0.07161 0.04366 0.57497 0.0
N57 N 0.97225 0.96317 0.37157 0.0
H58 H 0.44309 0.07866 0.13516 0.0
H59 H 0.5977 0.88357 0.84532 0.0
H60 H 0.37162 0.96926 0.87542 0.0
H61 H 0.66924 -0.01228 0.10665 0.0
H62 H 0.51474 0.91486 0.85578 0.0
H63 H 0.52629 0.04662 0.12647 0.0
C64 C 0.4449 0.04809 0.0762 0.0
C65 C 0.40013 0.02669 0.00589 0.0
C66 C 0.5485 0.93087 0.91096 0.0
C67 C 0.49534 -0.01065 -0.00431 0.0
C68 C 0.59584 0.91252 0.90521 0.0
C69 C 0.64052 0.93245 0.97543 0.0
C70 C 0.54548 0.96955 -0.01246 0.0
C71 C 0.63617 0.97194 0.0506 0.0
C72 C 0.49235 0.02945 0.07144 0.0
C73 C 0.40456 -0.01418 0.93171 0.0
N74 N 0.58947 -0.01106 0.05474 0.0
N75 N 0.45128 0.9688 0.92851 0.0
H76 H 0.92584 0.62869 -0.01392 0.0
H77 H 0.11882 0.34746 0.0022 0.0
H78 H 0.11469 0.77517 0.97794 0.0
H79 H 0.92909 0.20617 0.94419 0.0
H80 H 0.11796 0.5035 0.00638 0.0
H81 H 0.92609 0.47153 -0.01579 0.0
C82 C 0.96737 0.62791 -0.01575 0.0
C83 C 1.02031 0.71539 -0.01801 0.0
C84 C 0.07653 0.43837 -0.00748 0.0
C85 C 1.02084 0.5358 0.97995 0.0
C86 C 0.07695 0.34915 -0.0097 0.0
C87 C 0.02396 0.2635 0.97256 0.0
C88 C 0.0227 0.44209 0.9778 0.0
C89 C 0.97107 0.27039 0.95756 0.0
C90 C 0.96743 0.53817 -0.0172 0.0
C91 C 0.07275 0.70974 0.97933 0.0
N92 N 0.97176 0.35808 0.96084 0.0
N93 N 0.07169 0.62156 0.97859 0.0
loop_
_geom_bond_atom_site_label_1
_geom_bond_atom_site_label_2
_geom_bond_distance
_geom_bond_site_symmetry_2
_ccdc_geom_bond_type
Dy0 O3 2.307 . S
Dy0 O5 2.395 1_554 S
Dy0 O6 2.379 . S
Dy0 O8 2.339 . S
Dy0 O10 2.298 1_545 S
Dy0 O14 2.275 1_554 S
Dy0 C22 2.738 . S
Dy1 O4 2.298 1_565 S
Dy1 O7 2.275 1_556 S
Dy1 O9 2.307 . S
Dy1 O11 2.395 1_556 S
Dy1 O12 2.379 . S
Dy1 O15 2.339 . S
Dy1 C31 2.738 . S
C2 O14 1.254 1_665 S
C2 O15 1.257 . S
O3 Dy0 2.307 . S
O3 C13 1.275 1_554 S
O4 Dy1 2.298 1_545 S
O4 C13 1.232 1_655 S
O5 Dy0 2.395 1_556 S
O5 C22 1.255 1_556 S
O6 Dy0 2.379 . S
O6 C22 1.249 . S
O7 Dy1 2.275 1_554 S
O7 C23 1.254 1_665 S
O8 Dy0 2.339 . S
O8 C23 1.257 . S
O9 Dy1 2.307 . S
O9 C24 1.270 1_556 S
O10 Dy0 2.298 1_565 S
O10 C24 1.234 1_455 S
O11 Dy1 2.395 1_554 S
O11 C31 1.255 1_554 S
O12 Dy1 2.379 . S
O12 C31 1.249 . S
C13 O3 1.275 1_556 S
C13 O4 1.232 1_455 S
O14 Dy0 2.275 1_556 S
O14 C2 1.254 1_445 S
O15 Dy1 2.339 . S
O15 C2 1.257 . S
C16 C19 1.344 1_544 S
C16 C20 1.328 . S
C16 C22 1.516 . S
C17 C18 1.304 . S
C17 C21 1.323 1_566 S
C18 C17 1.304 . S
C18 C19 1.371 . S
C18 H32 0.930 . S
C19 C16 1.344 1_566 S
C19 C18 1.371 . S
C19 H33 0.931 . S
C20 C16 1.328 . S
C20 C21 1.433 . S
C20 H34 0.931 . S
C21 C17 1.323 1_544 S
C21 C20 1.433 . S
C21 H35 0.933 . S
C22 Dy0 2.738 . S
C22 O5 1.255 1_554 S
C22 O6 1.249 . S
C22 C16 1.516 . S
C23 O7 1.254 1_445 S
C23 O8 1.257 . S
C24 O9 1.270 1_554 S
C24 O10 1.234 1_655 S
C25 C28 1.344 1_566 S
C25 C29 1.328 . S
C25 C31 1.516 . S
C26 C27 1.304 . S
C26 C30 1.323 1_544 S
C27 C26 1.304 . S
C27 C28 1.371 . S
C27 H36 0.930 . S
C28 C25 1.344 1_544 S
C28 C27 1.371 . S
C28 H37 0.931 . S
C29 C25 1.328 . S
C29 C30 1.433 . S
C29 H38 0.931 . S
C30 C26 1.323 1_566 S
C30 C29 1.433 . S
C30 H39 0.933 . S
C31 Dy1 2.738 . S
C31 O11 1.255 1_556 S
C31 O12 1.249 . S
C31 C25 1.516 . S
H32 C18 0.930 . S
H33 C19 0.931 . S
H34 C20 0.931 . S
H35 C21 0.933 . S
H36 C27 0.930 . S
H37 C28 0.931 . S
H38 C29 0.931 . S
H39 C30 0.933 . S
H40 C46 0.930 . S
H41 C50 0.930 . S
H42 C55 0.929 . S
H43 C53 0.929 . S
H44 C48 0.929 . S
H45 C54 0.929 . S
C46 H40 0.930 . S
C46 C47 1.374 . S
C46 C54 1.378 . S
C47 C46 1.374 . S
C47 C55 1.424 1_465 S
C48 H44 0.929 . S
C48 C50 1.378 . S
C48 C52 1.359 . S
C49 C52 1.457 1_465 S
C49 C54 1.363 . S
C49 N57 1.417 1_465 S
C50 H41 0.930 . S
C50 C48 1.378 . S
C50 C51 1.371 . S
C51 C50 1.371 . S
C51 C53 1.428 1_645 S
C52 C48 1.359 . S
C52 C49 1.457 1_645 S
C52 N56 1.420 1_645 S
C53 H43 0.929 . S
C53 C51 1.428 1_465 S
C53 N56 1.384 . S
C54 H45 0.929 . S
C54 C46 1.378 . S
C54 C49 1.363 . S
C55 H42 0.929 . S
C55 C47 1.424 1_645 S
C55 N57 1.384 . S
N56 C52 1.420 1_465 S
N56 C53 1.384 . S
N57 C49 1.417 1_645 S
N57 C55 1.384 . S
H58 C64 0.930 . S
H59 C68 0.930 . S
H60 C73 0.929 . S
H61 C71 0.929 . S
H62 C66 0.929 . S
H63 C72 0.929 . S
C64 H58 0.930 . S
C64 C65 1.367 . S
C64 C72 1.378 . S
C65 C64 1.367 . S
C65 C73 1.433 1_564 S
C66 H62 0.929 . S
C66 C68 1.378 . S
C66 C70 1.350 . S
C67 C70 1.463 1_564 S
C67 C72 1.350 . S
C67 N75 1.427 1_564 S
C68 H59 0.930 . S
C68 C66 1.378 . S
C68 C69 1.367 . S
C69 C68 1.367 . S
C69 C71 1.433 1_546 S
C70 C66 1.350 . S
C70 C67 1.463 1_546 S
C70 N74 1.427 1_546 S
C71 H61 0.929 . S
C71 C69 1.433 1_564 S
C71 N74 1.384 . S
C72 H63 0.929 . S
C72 C64 1.378 . S
C72 C67 1.350 . S
C73 H60 0.929 . S
C73 C65 1.433 1_546 S
C73 N75 1.384 . S
N74 C70 1.427 1_564 S
N74 C71 1.384 . S
N75 C67 1.427 1_546 S
N75 C73 1.384 . S
H76 C82 0.930 . S
H77 C86 0.930 . S
H78 C91 0.929 . S
H79 C89 0.929 . S
H80 C84 0.929 . S
H81 C90 0.929 . S
C82 H76 0.930 . S
C82 C83 1.370 . S
C82 C90 1.378 . S
C83 C82 1.370 . S
C83 C91 1.431 1_656 S
C84 H80 0.929 . S
C84 C86 1.378 . S
C84 C88 1.350 . S
C85 C88 1.463 1_656 S
C85 C90 1.350 . S
C85 N93 1.427 1_656 S
C86 H77 0.930 . S
C86 C84 1.378 . S
C86 C87 1.371 . S
C87 C86 1.371 . S
C87 C89 1.431 1_454 S
C88 C84 1.350 . S
C88 C85 1.463 1_454 S
C88 N92 1.427 1_454 S
C89 H79 0.929 . S
C89 C87 1.431 1_656 S
C89 N92 1.384 . S
C90 H81 0.929 . S
C90 C82 1.378 . S
C90 C85 1.350 . S
C91 H78 0.929 . S
C91 C83 1.431 1_454 S
C91 N93 1.384 . S
N92 C88 1.427 1_656 S
N92 C89 1.384 . S
N93 C85 1.427 1_454 S
N93 C91 1.384 . S
C47 C23 1.468 1_565 S
C51 C2 1.466 1_545 S
C65 C17 1.498 1_554 S
C69 C26 1.498 1_556 S
C83 C24 1.494 1_556 S
C87 C13 1.491 1_554 S
