# Generated by pormake.
# Topology lon, (4)-cn, num edge types: 1
# Building blocks:
#     Node 0, Type 0, BuildingBlock: CEKHIL_clean_sbu_0, # of connection points: 4
#     Node 1, Type 0, BuildingBlock: CEKHIL_clean_sbu_0, # of connection points: 4
#     Node 2, Type 0, BuildingBlock: CEKHIL_clean_sbu_0, # of connection points: 4
#     Node 3, Type 0, BuildingBlock: CEKHIL_clean_sbu_0, # of connection points: 4
#     Edge 4, Type (0, 0), BuildingBlock: FUNLAD_clean_linker_0, # of connection points: 2
#     Edge 5, Type (0, 0), BuildingBlock: FUNLAD_clean_linker_0, # of connection points: 2
#     Edge 6, Type (0, 0), BuildingBlock: FUNLAD_clean_linker_0, # of connection points: 2
#     Edge 7, Type (0, 0), BuildingBlock: FUNLAD_clean_linker_0, # of connection points: 2
#     Edge 8, Type (0, 0), BuildingBlock: FUNLAD_clean_linker_0, # of connection points: 2
#     Edge 9, Type (0, 0), BuildingBlock: FUNLAD_clean_linker_0, # of connection points: 2
#     Edge 10, Type (0, 0), BuildingBlock: FUNLAD_clean_linker_0, # of connection points: 2
#     Edge 11, Type (0, 0), BuildingBlock: FUNLAD_clean_linker_0, # of connection points: 2
# Relax obj value: 0.141
# Max RMSD: 0.174
# Mean RMSD: 0.173
data_MOF--net-lon--node1-CEKHIL_clean_sbu_0--edge1-FUNLAD_clean_linker_0
_symmetry_space_group_name_H-M    P1
_symmetry_Int_Tables_number       1
_symmetry_cell_setting            triclinic
loop_
_symmetry_equiv_pos_as_xyz
'x, y, z'
_cell_length_a     26.301103
_cell_length_b     28.739782
_cell_length_c     47.002924
_cell_angle_alpha  91.154185
_cell_angle_beta   90.270036
_cell_angle_gamma 117.40889
loop_
_atom_site_label
_atom_site_type_symbol
_atom_site_fract_x
_atom_site_fract_y
_atom_site_fract_z
_atom_type_partial_charge
Co0 Co 0.36494 0.71347 0.07983 0.0
O1 O 0.33208 0.73688 0.11045 0.0
O2 O 0.36503 0.67915 0.11471 0.0
C3 C 0.42223 0.79417 0.06292 0.0
O4 O 0.40449 0.68073 0.05532 0.0
Co5 Co 0.35572 0.73104 0.01535 0.0
O6 O 0.41256 0.70457 1.00977 0.0
C7 C 0.25784 0.64594 0.04442 0.0
C8 C 0.34314 0.70661 0.12687 0.0
C9 C 0.42291 0.68111 0.02994 0.0
O10 O 0.2866 0.65504 0.06803 0.0
O11 O 0.27696 0.67379 0.02233 0.0
O12 O 0.43798 0.77753 0.08516 0.0
O13 O 0.37167 0.76355 0.05297 0.0
Co14 Co 0.65446 0.33321 0.58515 0.0
O15 O 0.60087 0.30552 0.61614 0.0
O16 O 0.69359 0.32941 0.61924 0.0
C17 C 0.62185 0.38931 0.57003 0.0
O18 O 0.72497 0.36633 0.56009 0.0
Co19 Co 0.62129 0.32791 0.52111 0.0
O20 O 0.70328 0.37554 0.51503 0.0
C21 C 0.6192 0.23462 0.54836 0.0
C22 C 0.64461 0.31191 0.63181 0.0
C23 C 0.73981 0.38273 0.53468 0.0
O24 O 0.63932 0.26003 0.57215 0.0
O25 O 0.60662 0.25416 0.52685 0.0
O26 O 0.65711 0.40221 0.59169 0.0
O27 O 0.60554 0.34288 0.55943 0.0
Co28 Co 0.32827 0.67424 0.43874 0.0
O29 O 0.30497 0.70011 0.40596 0.0
O30 O 0.37659 0.68011 0.40665 0.0
C31 C 0.23827 0.61467 0.45014 0.0
O32 O 0.36409 0.64406 0.467 0.0
Co33 Co 0.28748 0.67861 0.50039 0.0
O34 O 0.32487 0.63484 0.51018 0.0
C35 C 0.3753 0.775 0.4741 0.0
C36 C 0.34494 0.69524 0.3921 0.0
C37 C 0.35861 0.62871 0.4929 0.0
O38 O 0.381 0.74847 0.45292 0.0
O39 O 0.33698 0.75454 0.49306 0.0
O40 O 0.26568 0.60352 0.43039 0.0
O41 O 0.26454 0.66139 0.46098 0.0
Co42 Co 0.66671 0.30904 0.94254 0.0
O43 O 0.61429 0.28377 0.91014 0.0
O44 O 0.70483 0.34411 0.90838 0.0
C45 C 0.64299 0.22917 0.96061 0.0
O46 O 0.73534 0.34344 0.97008 0.0
Co47 Co 0.62738 0.29105 1.00552 0.0
O48 O 0.70973 0.31823 0.01493 0.0
C49 C 0.61957 0.37517 0.97324 0.0
C50 C 0.65676 0.31557 0.89492 0.0
C51 C 0.7478 0.34244 0.99657 0.0
O52 O 0.64347 0.36604 0.95139 0.0
O53 O 0.60702 0.34782 0.99569 0.0
O54 O 0.67839 0.24627 0.93959 0.0
O55 O 0.62016 0.25854 0.96832 0.0
C56 C 0.35046 0.67448 0.17524 0.0
C57 C 0.33542 0.70609 0.15822 0.0
C58 C 0.34741 0.67649 0.20495 0.0
C59 C 0.32953 0.71053 0.2185 0.0
C60 C 0.31279 0.74089 0.2014 0.0
C61 C 0.31594 0.73893 0.17164 0.0
C62 C 0.32636 0.7144 0.25021 0.0
C63 C 0.35782 0.70193 0.26852 0.0
C64 C 0.35527 0.70441 0.30035 0.0
C65 C 0.39579 0.69659 0.31647 0.0
C66 C 0.39359 0.69532 0.34622 0.0
C67 C 0.35071 0.70187 0.36077 0.0
H68 H 0.28016 0.71742 0.30378 0.0
C69 C 0.31085 0.71091 0.34483 0.0
C70 C 0.31288 0.712 0.31501 0.0
H71 H 0.27695 0.71572 0.35535 0.0
H72 H 0.36523 0.64839 0.16562 0.0
H73 H 0.35865 0.65089 0.21709 0.0
H74 H 0.29811 0.76697 0.21112 0.0
H75 H 0.30392 0.76374 0.15921 0.0
H76 H 0.29872 0.73004 0.25838 0.0
H77 H 0.38832 0.68998 0.25987 0.0
H78 H 0.42894 0.69053 0.30598 0.0
H79 H 0.4249 0.6881 0.35778 0.0
C80 C 0.60207 0.31375 0.67924 0.0
C81 C 0.64011 0.30293 0.66284 0.0
C82 C 0.60161 0.30973 0.70896 0.0
C83 C 0.63806 0.29337 0.72269 0.0
C84 C 0.67456 0.28079 0.70617 0.0
C85 C 0.67641 0.28651 0.6766 0.0
C86 C 0.63798 0.28818 0.75413 0.0
C87 C 0.63926 0.3256 0.7723 0.0
C88 C 0.64322 0.32222 0.80373 0.0
C89 C 0.67997 0.36701 0.81983 0.0
C90 C 0.68476 0.36476 0.84943 0.0
C91 C 0.65123 0.31812 0.86365 0.0
H92 H 0.58046 0.2405 0.8061 0.0
C93 C 0.61327 0.27363 0.84764 0.0
C94 C 0.60984 0.27543 0.81792 0.0
H95 H 0.58702 0.23712 0.85803 0.0
H96 H 0.57391 0.32683 0.66919 0.0
H97 H 0.57244 0.31896 0.72116 0.0
H98 H 0.70276 0.26776 0.71624 0.0
H99 H 0.70615 0.27793 0.66448 0.0
H100 H 0.64172 0.25487 0.76247 0.0
H101 H 0.64187 0.36156 0.76386 0.0
H102 H 0.70584 0.40361 0.80942 0.0
H103 H 0.71419 0.3997 0.86124 0.0
C104 C 0.47203 0.64639 0.99594 0.0
C105 C 0.45392 0.65008 0.02367 0.0
C106 C 0.49759 0.61403 0.98982 0.0
C107 C 0.50553 0.58452 1.01138 0.0
C108 C 0.48848 0.58926 0.03913 0.0
C109 C 0.46314 0.62153 0.04522 0.0
C110 C 0.53023 0.54763 1.00642 0.0
C111 C 0.54994 0.5387 0.98144 0.0
C112 C 0.573 0.50013 0.9786 0.0
C113 C 0.56985 0.47486 0.95218 0.0
C114 C 0.58722 0.43546 0.94975 0.0
C115 C 0.60763 0.42065 0.97381 0.0
H116 H 0.60391 0.50801 0.02237 0.0
C117 C 0.61379 0.448 0.99973 0.0
C118 C 0.59749 0.48763 1.00203 0.0
H119 H 0.63091 0.4384 0.01846 0.0
H120 H 0.46564 0.66785 0.97878 0.0
H121 H 0.51009 0.61201 0.96816 0.0
H122 H 0.49416 0.56734 0.05628 0.0
H123 H 0.44991 0.6233 0.06684 0.0
H124 H 0.5306 0.52535 0.02472 0.0
H125 H 0.54711 0.5579 0.96234 0.0
H126 H 0.5522 0.48438 0.93363 0.0
H127 H 0.58245 0.41519 0.92946 0.0
C128 C 0.15638 0.59239 0.48273 0.0
C129 C 0.18023 0.5778 0.45965 0.0
C130 C 0.10001 0.56077 0.49069 0.0
C131 C 0.06586 0.51335 0.47587 0.0
C132 C 0.08995 0.49829 0.45304 0.0
C133 C 0.14676 0.53005 0.44509 0.0
C134 C 1.00409 0.48125 0.48238 0.0
C135 C 0.98169 0.48283 0.50795 0.0
C136 C 0.91934 0.45553 0.51401 0.0
C137 C 0.90184 0.44498 0.54236 0.0
C138 C 0.84372 0.42156 0.54911 0.0
C139 C 0.80163 0.40874 0.52766 0.0
H140 H 0.88897 0.45199 0.47053 0.0
C141 C 0.81919 0.41988 0.49928 0.0
C142 C 0.8773 0.443 0.49252 0.0
H143 H 0.78804 0.41067 0.48218 0.0
H144 H 0.18083 0.62912 0.49431 0.0
H145 H 0.08294 0.57492 0.50777 0.0
H146 H 0.06449 0.46222 0.44106 0.0
H147 H 0.16386 0.51796 0.42711 0.0
H148 H 0.97651 0.45551 0.46552 0.0
H149 H 0.01013 0.5045 0.52558 0.0
H150 H 0.93329 0.45484 0.55939 0.0
H151 H 0.8319 0.41372 0.5712 0.0
C152 C 0.64246 0.14158 0.96384 0.0
C153 C 0.63107 0.18082 0.97599 0.0
C154 C 0.62693 0.09447 0.97797 0.0
C155 C 0.60044 0.08621 1.00469 0.0
C156 C 0.59144 0.12642 0.01724 0.0
C157 C 0.6059 0.17285 1.00295 0.0
C158 C 0.58005 0.03595 0.01986 0.0
C159 C 0.5584 0.98903 1.00614 0.0
C160 C 0.52702 0.93855 0.02095 0.0
C161 C 0.48074 0.8974 1.00669 0.0
C162 C 0.44733 0.85056 0.02035 0.0
C163 C 0.46022 0.84313 0.04843 0.0
H164 H 0.57716 0.96151 0.06028 0.0
C165 C 0.50801 0.88341 0.06242 0.0
C166 C 0.54096 0.93093 0.04888 0.0
H167 H 0.51906 0.8787 0.08403 0.0
H168 H 0.66202 0.14674 0.94314 0.0
H169 H 0.63561 0.06467 0.96797 0.0
H170 H 0.57143 0.12128 0.03783 0.0
H171 H 0.59681 0.20235 0.01302 0.0
H172 H 0.57606 0.03733 0.04283 0.0
H173 H 0.55713 0.98757 0.98302 0.0
H174 H 0.46921 0.90205 0.98516 0.0
H175 H 0.41103 0.82029 1.00886 0.0
C176 C 0.60668 0.46983 0.57203 0.0
C177 C 0.60135 0.42461 0.55744 0.0
C178 C 0.58216 0.49982 0.56061 0.0
C179 C 0.55224 0.48515 0.53429 0.0
C180 C 0.54927 0.44127 0.51933 0.0
C181 C 0.573 0.41114 0.53083 0.0
C182 C 0.52298 0.51377 0.52166 0.0
C183 C 0.50132 0.54015 0.53726 0.0
C184 C 0.46551 0.56296 0.52498 0.0
C185 C 0.42817 0.57172 0.54296 0.0
C186 C 0.39308 0.59226 0.53246 0.0
C187 C 0.39472 0.60515 0.50363 0.0
H188 H 0.49689 0.57155 0.48165 0.0
C189 C 0.43257 0.59695 0.48561 0.0
C190 C 0.46765 0.57623 0.49614 0.0
H191 H 0.43548 0.6069 0.46337 0.0
H192 H 0.6285 0.48127 0.59251 0.0
H193 H 0.58673 0.53428 0.5724 0.0
H194 H 0.52703 0.42926 0.49895 0.0
H195 H 0.56833 0.37673 0.51891 0.0
H196 H 0.51421 0.50831 0.49892 0.0
H197 H 0.50587 0.54153 0.56029 0.0
H198 H 0.42574 0.56222 0.56527 0.0
H199 H 0.3649 0.59834 0.54711 0.0
C200 C 0.16081 0.58298 0.06323 0.0
C201 C 0.20064 0.59995 0.04114 0.0
C202 C 0.10466 0.54314 0.058 0.0
C203 C 0.08796 0.51937 0.03064 0.0
C204 C 0.12905 0.53475 1.00923 0.0
C205 C 0.18434 0.57462 0.01432 0.0
C206 C 0.02851 0.47959 0.02267 0.0
C207 C 0.98125 0.47123 0.03728 0.0
C208 C 0.92235 0.43596 0.02626 0.0
C209 C 0.87807 0.41087 0.0456 0.0
C210 C 0.82182 0.37945 0.03593 0.0
C211 C 0.80824 0.37308 1.00661 0.0
H212 H 0.94152 0.44942 0.98131 0.0
C213 C 0.85263 0.39827 0.98722 0.0
C214 C 0.90897 0.42936 0.9969 0.0
H215 H 0.8438 0.39469 0.96453 0.0
H216 H 0.17237 0.60172 0.08414 0.0
H217 H 0.07477 0.5316 0.07533 0.0
H218 H 0.11793 0.51695 0.98808 0.0
H219 H 0.2143 0.58623 0.99694 0.0
H220 H 0.0233 0.45806 1.00269 0.0
H221 H 0.98508 0.49099 0.05768 0.0
H222 H 0.88698 0.41567 0.06829 0.0
H223 H 0.7888 0.361 0.05156 0.0
C224 C 0.61393 0.16142 0.51748 0.0
C225 C 0.60867 0.17969 0.54472 0.0
C226 C 0.59372 0.10803 0.51166 0.0
C227 C 0.56759 0.07132 0.53305 0.0
C228 C 0.56582 0.08998 0.56081 0.0
C229 C 0.58649 0.14377 0.56668 0.0
C230 C 0.53544 0.01391 0.52652 0.0
C231 C 0.53708 0.99078 0.50142 0.0
C232 C 0.49522 0.9358 0.49364 0.0
C233 C 0.51001 0.90636 0.47415 0.0
C234 C 0.47064 0.85446 0.46668 0.0
C235 C 0.41566 0.83145 0.47844 0.0
H236 H 0.42518 0.93556 0.51808 0.0
C237 C 0.40027 0.86203 0.49679 0.0
C238 C 0.43932 0.91341 0.50421 0.0
H239 H 0.35788 0.84607 0.50579 0.0
H240 H 0.63143 0.18838 0.50017 0.0
H241 H 0.59588 0.09612 0.48995 0.0
H242 H 0.54586 0.06269 0.57774 0.0
H243 H 0.58171 0.15678 0.58783 0.0
H244 H 0.50657 0.98997 0.54279 0.0
H245 H 0.56907 0.01233 0.4858 0.0
H246 H 0.55244 0.92317 0.46516 0.0
H247 H 0.48377 0.83201 0.45245 0.0
loop_
_geom_bond_atom_site_label_1
_geom_bond_atom_site_label_2
_geom_bond_distance
_geom_bond_site_symmetry_2
_ccdc_geom_bond_type
Co0 O1 2.216 . S
Co0 O2 2.091 . S
Co0 O4 2.004 . S
Co0 O10 2.021 . S
Co0 O12 2.137 . S
Co0 O13 2.244 . S
O1 Co0 2.216 . S
O1 C8 1.247 . S
O2 Co0 2.091 . S
O2 C8 1.261 . S
C3 O12 1.247 . S
C3 O13 1.272 . S
O4 Co0 2.004 . S
O4 C9 1.259 . S
Co5 O6 2.061 . S
Co5 O11 2.052 . S
Co5 O13 2.135 . S
O6 Co5 2.061 . S
O6 C9 1.235 . S
C7 O10 1.238 . S
C7 O11 1.241 . S
C8 O1 1.247 . S
C8 O2 1.261 . S
C9 O4 1.259 . S
C9 O6 1.235 . S
O10 Co0 2.021 . S
O10 C7 1.238 . S
O11 Co5 2.052 . S
O11 C7 1.241 . S
O12 Co0 2.137 . S
O12 C3 1.247 . S
O13 Co0 2.244 . S
O13 C3 1.272 . S
O13 Co5 2.135 . S
Co14 O15 2.216 . S
Co14 O16 2.091 . S
Co14 O18 2.004 . S
Co14 O24 2.021 . S
Co14 O26 2.137 . S
Co14 O27 2.244 . S
O15 Co14 2.216 . S
O15 C22 1.247 . S
O16 Co14 2.091 . S
O16 C22 1.261 . S
C17 O26 1.247 . S
C17 O27 1.272 . S
O18 Co14 2.004 . S
O18 C23 1.259 . S
Co19 O20 2.061 . S
Co19 O25 2.052 . S
Co19 O27 2.135 . S
O20 Co19 2.061 . S
O20 C23 1.235 . S
C21 O24 1.238 . S
C21 O25 1.241 . S
C22 O15 1.247 . S
C22 O16 1.261 . S
C23 O18 1.259 . S
C23 O20 1.235 . S
O24 Co14 2.021 . S
O24 C21 1.238 . S
O25 Co19 2.052 . S
O25 C21 1.241 . S
O26 Co14 2.137 . S
O26 C17 1.247 . S
O27 Co14 2.244 . S
O27 C17 1.272 . S
O27 Co19 2.135 . S
Co28 O29 2.216 . S
Co28 O30 2.091 . S
Co28 O32 2.004 . S
Co28 O38 2.021 . S
Co28 O40 2.137 . S
Co28 O41 2.244 . S
O29 Co28 2.216 . S
O29 C36 1.247 . S
O30 Co28 2.091 . S
O30 C36 1.261 . S
C31 O40 1.247 . S
C31 O41 1.272 . S
O32 Co28 2.004 . S
O32 C37 1.259 . S
Co33 O34 2.061 . S
Co33 O39 2.052 . S
Co33 O41 2.135 . S
O34 Co33 2.061 . S
O34 C37 1.235 . S
C35 O38 1.238 . S
C35 O39 1.241 . S
C36 O29 1.247 . S
C36 O30 1.261 . S
C37 O32 1.259 . S
C37 O34 1.235 . S
O38 Co28 2.021 . S
O38 C35 1.238 . S
O39 Co33 2.052 . S
O39 C35 1.241 . S
O40 Co28 2.137 . S
O40 C31 1.247 . S
O41 Co28 2.244 . S
O41 C31 1.272 . S
O41 Co33 2.135 . S
Co42 O43 2.216 . S
Co42 O44 2.091 . S
Co42 O46 2.004 . S
Co42 O52 2.021 . S
Co42 O54 2.137 . S
Co42 O55 2.244 . S
O43 Co42 2.216 . S
O43 C50 1.247 . S
O44 Co42 2.091 . S
O44 C50 1.261 . S
C45 O54 1.247 . S
C45 O55 1.272 . S
O46 Co42 2.004 . S
O46 C51 1.259 . S
Co47 O48 2.061 . S
Co47 O53 2.052 . S
Co47 O55 2.135 . S
O48 Co47 2.061 . S
O48 C51 1.235 . S
C49 O52 1.238 . S
C49 O53 1.241 . S
C50 O43 1.247 . S
C50 O44 1.261 . S
C51 O46 1.259 . S
C51 O48 1.235 . S
O52 Co42 2.021 . S
O52 C49 1.238 . S
O53 Co47 2.052 . S
O53 C49 1.241 . S
O54 Co42 2.137 . S
O54 C45 1.247 . S
O55 Co42 2.244 . S
O55 C45 1.272 . S
O55 Co47 2.135 . S
C56 C57 1.386 . S
C56 C58 1.383 . S
C56 H72 0.951 . S
C57 C56 1.386 . S
C57 C61 1.383 . S
C58 C56 1.383 . S
C58 C59 1.402 . S
C58 H73 0.951 . S
C59 C58 1.402 . S
C59 C60 1.375 . S
C59 C62 1.481 . S
C60 C59 1.375 . S
C60 C61 1.367 . S
C60 H74 0.951 . S
C61 C57 1.383 . S
C61 C60 1.367 . S
C61 H75 0.950 . S
C62 C59 1.481 . S
C62 C63 1.297 . S
C62 H76 0.950 . S
C63 C62 1.297 . S
C63 C64 1.479 . S
C63 H77 0.950 . S
C64 C63 1.479 . S
C64 C65 1.375 . S
C64 C70 1.404 . S
C65 C64 1.375 . S
C65 C66 1.369 . S
C65 H78 0.950 . S
C66 C65 1.369 . S
C66 C67 1.392 . S
C66 H79 0.951 . S
C67 C66 1.392 . S
C67 C69 1.384 . S
H68 C70 0.949 . S
C69 C67 1.384 . S
C69 C70 1.385 . S
C69 H71 0.950 . S
C70 C64 1.404 . S
C70 H68 0.949 . S
C70 C69 1.385 . S
H71 C69 0.950 . S
H72 C56 0.951 . S
H73 C58 0.951 . S
H74 C60 0.951 . S
H75 C61 0.950 . S
H76 C62 0.950 . S
H77 C63 0.950 . S
H78 C65 0.950 . S
H79 C66 0.951 . S
C80 C81 1.386 . S
C80 C82 1.383 . S
C80 H96 0.951 . S
C81 C80 1.386 . S
C81 C85 1.383 . S
C82 C80 1.383 . S
C82 C83 1.402 . S
C82 H97 0.951 . S
C83 C82 1.402 . S
C83 C84 1.375 . S
C83 C86 1.481 . S
C84 C83 1.375 . S
C84 C85 1.367 . S
C84 H98 0.951 . S
C85 C81 1.383 . S
C85 C84 1.367 . S
C85 H99 0.950 . S
C86 C83 1.481 . S
C86 C87 1.297 . S
C86 H100 0.950 . S
C87 C86 1.297 . S
C87 C88 1.479 . S
C87 H101 0.950 . S
C88 C87 1.479 . S
C88 C89 1.375 . S
C88 C94 1.404 . S
C89 C88 1.375 . S
C89 C90 1.369 . S
C89 H102 0.950 . S
C90 C89 1.369 . S
C90 C91 1.392 . S
C90 H103 0.951 . S
C91 C90 1.392 . S
C91 C93 1.384 . S
H92 C94 0.949 . S
C93 C91 1.384 . S
C93 C94 1.385 . S
C93 H95 0.950 . S
C94 C88 1.404 . S
C94 H92 0.949 . S
C94 C93 1.385 . S
H95 C93 0.950 . S
H96 C80 0.951 . S
H97 C82 0.951 . S
H98 C84 0.951 . S
H99 C85 0.950 . S
H100 C86 0.950 . S
H101 C87 0.950 . S
H102 C89 0.950 . S
H103 C90 0.951 . S
C104 C105 1.386 1_556 S
C104 C106 1.383 . S
C104 H120 0.951 . S
C105 C104 1.386 1_554 S
C105 C109 1.383 . S
C106 C104 1.383 . S
C106 C107 1.402 1_556 S
C106 H121 0.951 . S
C107 C106 1.402 1_554 S
C107 C108 1.375 . S
C107 C110 1.481 . S
C108 C107 1.375 . S
C108 C109 1.367 . S
C108 H122 0.951 . S
C109 C105 1.383 . S
C109 C108 1.367 . S
C109 H123 0.950 . S
C110 C107 1.481 . S
C110 C111 1.297 1_554 S
C110 H124 0.950 . S
C111 C110 1.297 1_556 S
C111 C112 1.479 . S
C111 H125 0.950 . S
C112 C111 1.479 . S
C112 C113 1.375 . S
C112 C118 1.404 . S
C113 C112 1.375 . S
C113 C114 1.369 . S
C113 H126 0.950 . S
C114 C113 1.369 . S
C114 C115 1.392 . S
C114 H127 0.951 . S
C115 C114 1.392 . S
C115 C117 1.384 . S
H116 C118 0.949 1_554 S
C117 C115 1.384 . S
C117 C118 1.385 . S
C117 H119 0.950 . S
C118 C112 1.404 . S
C118 H116 0.949 1_556 S
C118 C117 1.385 . S
H119 C117 0.950 . S
H120 C104 0.951 . S
H121 C106 0.951 . S
H122 C108 0.951 . S
H123 C109 0.950 . S
H124 C110 0.950 . S
H125 C111 0.950 . S
H126 C113 0.950 . S
H127 C114 0.951 . S
C128 C129 1.386 . S
C128 C130 1.383 . S
C128 H144 0.951 . S
C129 C128 1.386 . S
C129 C133 1.383 . S
C130 C128 1.383 . S
C130 C131 1.402 . S
C130 H145 0.951 . S
C131 C130 1.402 . S
C131 C132 1.375 . S
C131 C134 1.481 1_455 S
C132 C131 1.375 . S
C132 C133 1.367 . S
C132 H146 0.951 . S
C133 C129 1.383 . S
C133 C132 1.367 . S
C133 H147 0.950 . S
C134 C131 1.481 1_655 S
C134 C135 1.297 . S
C134 H148 0.950 . S
C135 C134 1.297 . S
C135 C136 1.479 . S
C135 H149 0.950 . S
C136 C135 1.479 . S
C136 C137 1.375 . S
C136 C142 1.404 . S
C137 C136 1.375 . S
C137 C138 1.369 . S
C137 H150 0.950 . S
C138 C137 1.369 . S
C138 C139 1.392 . S
C138 H151 0.951 . S
C139 C138 1.392 . S
C139 C141 1.384 . S
H140 C142 0.949 . S
C141 C139 1.384 . S
C141 C142 1.385 . S
C141 H143 0.950 . S
C142 C136 1.404 . S
C142 H140 0.949 . S
C142 C141 1.385 . S
H143 C141 0.950 . S
H144 C128 0.951 . S
H145 C130 0.951 . S
H146 C132 0.951 . S
H147 C133 0.950 . S
H148 C134 0.950 . S
H149 C135 0.950 . S
H150 C137 0.950 . S
H151 C138 0.951 . S
C152 C153 1.386 . S
C152 C154 1.383 . S
C152 H168 0.951 . S
C153 C152 1.386 . S
C153 C157 1.383 . S
C154 C152 1.383 . S
C154 C155 1.402 . S
C154 H169 0.951 . S
C155 C154 1.402 . S
C155 C156 1.375 1_556 S
C155 C158 1.481 1_556 S
C156 C155 1.375 1_554 S
C156 C157 1.367 1_554 S
C156 H170 0.951 . S
C157 C153 1.383 . S
C157 C156 1.367 1_556 S
C157 H171 0.950 1_556 S
C158 C155 1.481 1_554 S
C158 C159 1.300 1_545 S
C158 H172 0.950 . S
C159 C158 1.300 1_565 S
C159 C160 1.484 . S
C159 H173 0.941 1_554 S
C160 C159 1.484 . S
C160 C161 1.353 1_554 S
C160 C166 1.404 . S
C161 C160 1.353 1_556 S
C161 C162 1.351 1_556 S
C161 H174 0.991 . S
C162 C161 1.351 1_554 S
C162 C163 1.392 . S
C162 H175 0.928 1_554 S
C163 C162 1.392 . S
C163 C165 1.384 . S
H164 C166 0.949 . S
C165 C163 1.384 . S
C165 C166 1.385 . S
C165 H167 0.950 . S
C166 C160 1.404 . S
C166 H164 0.949 . S
C166 C165 1.385 . S
H167 C165 0.950 . S
H168 C152 0.951 . S
H169 C154 0.951 . S
H170 C156 0.951 . S
H171 C157 0.950 1_554 S
H172 C158 0.950 . S
H173 C159 0.941 1_556 S
H174 C161 0.991 . S
H175 C162 0.928 1_556 S
C176 C177 1.386 . S
C176 C178 1.383 . S
C176 H192 0.951 . S
C177 C176 1.386 . S
C177 C181 1.383 . S
C178 C176 1.383 . S
C178 C179 1.402 . S
C178 H193 0.951 . S
C179 C178 1.402 . S
C179 C180 1.375 . S
C179 C182 1.481 . S
C180 C179 1.375 . S
C180 C181 1.367 . S
C180 H194 0.951 . S
C181 C177 1.383 . S
C181 C180 1.367 . S
C181 H195 0.950 . S
C182 C179 1.481 . S
C182 C183 1.297 . S
C182 H196 0.950 . S
C183 C182 1.297 . S
C183 C184 1.479 . S
C183 H197 0.950 . S
C184 C183 1.479 . S
C184 C185 1.375 . S
C184 C190 1.404 . S
C185 C184 1.375 . S
C185 C186 1.369 . S
C185 H198 0.950 . S
C186 C185 1.369 . S
C186 C187 1.392 . S
C186 H199 0.951 . S
C187 C186 1.392 . S
C187 C189 1.384 . S
H188 C190 0.949 . S
C189 C187 1.384 . S
C189 C190 1.385 . S
C189 H191 0.950 . S
C190 C184 1.404 . S
C190 H188 0.949 . S
C190 C189 1.385 . S
H191 C189 0.950 . S
H192 C176 0.951 . S
H193 C178 0.951 . S
H194 C180 0.951 . S
H195 C181 0.950 . S
H196 C182 0.950 . S
H197 C183 0.950 . S
H198 C185 0.950 . S
H199 C186 0.951 . S
C200 C201 1.386 . S
C200 C202 1.383 . S
C200 H216 0.951 . S
C201 C200 1.386 . S
C201 C205 1.383 . S
C202 C200 1.383 . S
C202 C203 1.402 . S
C202 H217 0.951 . S
C203 C202 1.402 . S
C203 C204 1.375 . S
C203 C206 1.481 . S
C204 C203 1.375 . S
C204 C205 1.367 . S
C204 H218 0.951 1_554 S
C205 C201 1.383 . S
C205 C204 1.367 . S
C205 H219 0.950 . S
C206 C203 1.481 . S
C206 C207 1.297 1_455 S
C206 H220 0.950 1_554 S
C207 C206 1.297 1_655 S
C207 C208 1.479 . S
C207 H221 0.950 . S
C208 C207 1.479 . S
C208 C209 1.375 . S
C208 C214 1.404 1_554 S
C209 C208 1.375 . S
C209 C210 1.369 . S
C209 H222 0.950 . S
C210 C209 1.369 . S
C210 C211 1.392 1_554 S
C210 H223 0.951 . S
C211 C210 1.392 1_556 S
C211 C213 1.384 . S
H212 C214 0.949 . S
C213 C211 1.384 . S
C213 C214 1.385 . S
C213 H215 0.950 . S
C214 C208 1.404 1_556 S
C214 H212 0.949 . S
C214 C213 1.385 . S
H215 C213 0.950 . S
H216 C200 0.951 . S
H217 C202 0.951 . S
H218 C204 0.951 1_556 S
H219 C205 0.950 . S
H220 C206 0.950 1_556 S
H221 C207 0.950 . S
H222 C209 0.950 . S
H223 C210 0.951 . S
C224 C225 1.386 . S
C224 C226 1.383 . S
C224 H240 0.951 . S
C225 C224 1.386 . S
C225 C229 1.383 . S
C226 C224 1.383 . S
C226 C227 1.402 . S
C226 H241 0.951 . S
C227 C226 1.402 . S
C227 C228 1.375 . S
C227 C230 1.481 . S
C228 C227 1.375 . S
C228 C229 1.367 . S
C228 H242 0.951 . S
C229 C225 1.383 . S
C229 C228 1.367 . S
C229 H243 0.950 . S
C230 C227 1.481 . S
C230 C231 1.297 1_545 S
C230 H244 0.950 . S
C231 C230 1.297 1_565 S
C231 C232 1.479 . S
C231 H245 0.950 . S
C232 C231 1.479 . S
C232 C233 1.375 . S
C232 C238 1.404 . S
C233 C232 1.375 . S
C233 C234 1.369 . S
C233 H246 0.950 . S
C234 C233 1.369 . S
C234 C235 1.392 . S
C234 H247 0.951 . S
C235 C234 1.392 . S
C235 C237 1.384 . S
H236 C238 0.949 . S
C237 C235 1.384 . S
C237 C238 1.385 . S
C237 H239 0.950 . S
C238 C232 1.404 . S
C238 H236 0.949 . S
C238 C237 1.385 . S
H239 C237 0.950 . S
H240 C224 0.951 . S
H241 C226 0.951 . S
H242 C228 0.951 . S
H243 C229 0.950 . S
H244 C230 0.950 . S
H245 C231 0.950 . S
H246 C233 0.950 . S
H247 C234 0.951 . S
C57 C8 1.564 . S
C67 C36 1.541 . S
C81 C22 1.574 . S
C91 C50 1.580 . S
C105 C9 1.540 . S
C115 C49 1.511 . S
C129 C31 1.566 . S
C139 C23 1.541 . S
C153 C45 1.589 . S
C163 C3 1.587 . S
C177 C17 1.567 . S
C187 C37 1.565 . S
C201 C7 1.476 . S
C211 C51 1.519 . S
C225 C21 1.460 . S
C235 C35 1.404 . S
