# Generated by pormake.
# Topology unc, (4)-cn, num edge types: 1
# Building blocks:
#     Node 0, Type 0, BuildingBlock: QUQFOY_clean_sbu_3, # of connection points: 4
#     Node 1, Type 0, BuildingBlock: QUQFOY_clean_sbu_3, # of connection points: 4
#     Node 2, Type 0, BuildingBlock: QUQFOY_clean_sbu_3, # of connection points: 4
#     Node 3, Type 0, BuildingBlock: QUQFOY_clean_sbu_3, # of connection points: 4
#     Edge 4, Type (0, 0), BuildingBlock: KIFKEQ_clean_linker_1, # of connection points: 2
#     Edge 5, Type (0, 0), BuildingBlock: KIFKEQ_clean_linker_1, # of connection points: 2
#     Edge 6, Type (0, 0), BuildingBlock: KIFKEQ_clean_linker_1, # of connection points: 2
#     Edge 7, Type (0, 0), BuildingBlock: KIFKEQ_clean_linker_1, # of connection points: 2
#     Edge 8, Type (0, 0), BuildingBlock: KIFKEQ_clean_linker_1, # of connection points: 2
#     Edge 9, Type (0, 0), BuildingBlock: KIFKEQ_clean_linker_1, # of connection points: 2
#     Edge 10, Type (0, 0), BuildingBlock: KIFKEQ_clean_linker_1, # of connection points: 2
#     Edge 11, Type (0, 0), BuildingBlock: KIFKEQ_clean_linker_1, # of connection points: 2
# Relax obj value: 0.006
# Max RMSD: 0.046
# Mean RMSD: 0.046
data_MOF--net-unc--node1-QUQFOY_clean_sbu_3--edge1-KIFKEQ_clean_linker_1
_symmetry_space_group_name_H-M    P1
_symmetry_Int_Tables_number       1
_symmetry_cell_setting            triclinic
loop_
_symmetry_equiv_pos_as_xyz
'x, y, z'
_cell_length_a     31.311878
_cell_length_b     31.260751
_cell_length_c     23.74416
_cell_angle_alpha  89.96294
_cell_angle_beta   90.03309
_cell_angle_gamma 95.710147
loop_
_atom_site_label
_atom_site_type_symbol
_atom_site_fract_x
_atom_site_fract_y
_atom_site_fract_z
_atom_type_partial_charge
C0 C 0.04233 0.62182 0.89338 0.0
O1 O 0.0796 0.63296 0.91272 0.0
Cd2 Cd 0.09001 0.67537 -0.00327 0.0
O3 O 0.00942 0.63646 0.91474 0.0
Cd4 Cd 0.98752 0.68728 -0.0138 0.0
C5 C 0.01631 0.61679 0.08335 0.0
O6 O 0.05199 0.7369 -0.01714 0.0
O7 O 0.00769 0.74763 0.04972 0.0
O8 O 0.94417 0.71403 0.91208 0.0
C9 C 0.04286 0.75907 0.02504 0.0
O10 O 0.05491 0.62836 0.06876 0.0
C11 C 0.90995 0.71328 0.94087 0.0
O12 O 0.98489 0.63245 0.05948 0.0
O13 O 0.91142 0.69943 -0.00887 0.0
C14 C 0.39114 0.96985 0.34801 0.0
O15 O 0.38344 0.93368 0.32379 0.0
Cd16 Cd 0.34306 0.92515 0.23795 0.0
O17 O 0.37582 0.00315 0.32866 0.0
Cd18 Cd 0.32964 0.02749 0.2532 0.0
C19 C 0.40366 0.00186 0.15851 0.0
O20 O 0.28086 0.96245 0.2508 0.0
O21 O 0.27096 0.00913 0.18639 0.0
O22 O 0.30043 0.06942 0.32694 0.0
C23 C 0.25956 0.97286 0.20842 0.0
O24 O 0.39173 0.96273 0.1703 0.0
C25 C 0.30243 0.10436 0.29934 0.0
O26 O 0.38719 0.03245 0.18322 0.0
O27 O 0.31795 0.1039 0.2499 0.0
C28 C 0.97084 0.396 0.39306 0.0
O29 O 0.93358 0.38355 0.41133 0.0
Cd30 Cd 0.92503 0.34169 0.49601 0.0
O31 O 0.00392 0.38237 0.41539 0.0
Cd32 Cd 0.02561 0.33159 0.48713 0.0
C33 C -0.00288 0.40261 0.58216 0.0
O34 O 0.96265 0.27916 0.48501 0.0
O35 O 0.00504 0.27603 0.55638 0.0
O36 O 0.06866 0.30309 0.41419 0.0
C37 C 0.97201 0.26016 0.52996 0.0
O38 O 0.95862 0.39009 0.56801 0.0
C39 C 0.103 0.30446 0.44282 0.0
O40 O 0.02877 0.38748 0.5583 0.0
O41 O 0.10176 0.31935 0.49255 0.0
C42 C 0.62069 0.04741 0.84573 0.0
O43 O 0.63205 0.08426 0.8251 0.0
Cd44 Cd 0.67338 0.09101 0.73965 0.0
O45 O 0.63437 0.01391 0.82466 0.0
Cd46 Cd 0.68293 0.99053 0.75189 0.0
C47 C 0.61129 0.0178 0.65677 0.0
O48 O 0.73561 0.05322 0.75136 0.0
O49 O 0.73714 0.01025 0.68036 0.0
O50 O 0.71229 0.9481 0.82499 0.0
C51 C 0.75377 0.04333 0.7061 0.0
O52 O 0.62552 0.05656 0.66763 0.0
C53 C 0.71037 0.91336 0.79705 0.0
O54 O 0.62493 0.98662 0.68364 0.0
O55 O 0.69479 0.9141 0.74764 0.0
H56 H 0.94364 0.59878 0.14673 0.0
H57 H 0.07076 0.56017 0.11985 0.0
H58 H 0.93177 0.54538 0.22161 0.0
H59 H 0.05834 0.50571 0.19239 0.0
H60 H 0.04373 0.44576 0.36434 0.0
H61 H 0.05324 0.49935 0.29036 0.0
H62 H 0.92038 0.47064 0.24155 0.0
H63 H 0.91042 0.41817 0.31779 0.0
C64 C 0.96887 0.57862 0.15649 0.0
C65 C 0.00825 0.58391 0.12779 0.0
C66 C 0.962 0.54782 0.19915 0.0
C67 C -0.00581 0.52133 0.21338 0.0
C68 C 0.03319 0.52618 0.18364 0.0
C69 C 0.04026 0.5573 0.14175 0.0
C70 C 0.01654 0.45076 0.33774 0.0
C71 C 0.97636 0.4276 0.34674 0.0
C72 C 0.02204 0.48139 0.29502 0.0
C73 C 0.98768 0.48917 0.25954 0.0
C74 C 0.94741 0.46591 0.2685 0.0
C75 C 0.94175 0.43562 0.31192 0.0
H76 H 0.40256 0.03716 0.42118 0.0
H77 H 0.44492 0.91241 0.38642 0.0
H78 H 0.45371 0.047 0.49828 0.0
H79 H 0.49724 0.92289 0.46247 0.0
H80 H 0.56312 0.94182 0.63376 0.0
H81 H 0.50712 0.9286 0.56265 0.0
H82 H 0.52953 0.06096 0.5084 0.0
H83 H 0.58429 0.07447 0.58039 0.0
C84 C 0.4228 0.01181 0.43003 0.0
C85 C 0.41989 0.97413 0.39747 0.0
C86 C 0.45233 0.01756 0.47401 0.0
C87 C 0.47998 0.98598 0.48611 0.0
C88 C 0.47618 0.94771 0.45461 0.0
C89 C 0.4463 0.94177 0.41087 0.0
C90 C 0.55604 0.96806 0.60663 0.0
C91 C 0.57806 0.00922 0.61285 0.0
C92 C 0.52406 0.96045 0.56574 0.0
C93 C 0.51365 0.99377 0.53001 0.0
C94 C 0.53605 0.03478 0.53597 0.0
C95 C 0.56771 0.04246 0.57704 0.0
H96 H 0.96899 0.57333 0.86325 0.0
H97 H 0.10275 0.59955 0.81847 0.0
H98 H 0.95924 0.52038 0.78853 0.0
H99 H 0.0926 0.54789 0.74148 0.0
H100 H 0.06937 0.4206 0.64603 0.0
H101 H 0.08092 0.47371 0.72107 0.0
H102 H 0.95454 0.51364 0.69074 0.0
H103 H 0.9424 0.45924 0.61798 0.0
C104 C -0.00379 0.56817 0.83687 0.0
C105 C 0.03661 0.59067 0.84663 0.0
C106 C 0.99059 0.53793 0.79371 0.0
C107 C 0.02505 0.52995 0.75856 0.0
C108 C 0.06548 0.5527 0.76819 0.0
C109 C 0.07126 0.58253 0.81206 0.0
C110 C 0.04413 0.44077 0.65554 0.0
C111 C 0.00488 0.43556 0.62647 0.0
C112 C 0.05081 0.47143 0.6983 0.0
C113 C 0.0186 0.49794 0.71226 0.0
C114 C 0.9797 0.49317 0.68217 0.0
C115 C 0.9728 0.46211 0.64017 0.0
H116 H 0.42011 0.07472 0.09466 0.0
H117 H 0.46406 0.95031 0.12667 0.0
H118 H 0.47361 0.08742 0.02001 0.0
H119 H 0.51857 0.96363 0.05455 0.0
H120 H 0.57369 0.97441 0.88003 0.0
H121 H 0.52222 0.96577 0.95623 0.0
H122 H 0.54795 0.10069 -0.00294 0.0
H123 H 0.59842 0.1097 0.91844 0.0
C124 C 0.44158 0.05039 0.08621 0.0
C125 C 0.43756 0.01131 0.11588 0.0
C126 C 0.47239 0.05771 0.04369 0.0
C127 C 0.50012 0.02632 0.0307 0.0
C128 C 0.49701 0.98802 0.06217 0.0
C129 C 0.46588 0.98045 0.10381 0.0
C130 C 0.56855 0.00226 0.90532 0.0
C131 C 0.59028 0.0427 0.89338 0.0
C132 C 0.53915 -0.00274 0.94938 0.0
C133 C 0.53119 0.03243 -0.01664 0.0
C134 C 0.55295 0.073 0.97143 0.0
C135 C 0.58206 0.07813 0.92663 0.0
H136 H 0.19435 0.99188 0.13969 0.0
H137 H 0.25015 0.88568 0.21797 0.0
H138 H 0.14051 0.94113 0.09374 0.0
H139 H 0.19707 0.83512 0.17071 0.0
H140 H 0.12955 0.76837 0.01084 0.0
H141 H 0.18153 0.82127 0.05599 0.0
H142 H 0.07815 0.87896 0.13709 0.0
H143 H 0.02602 0.82533 0.09327 0.0
C144 C 0.19506 0.95775 0.14702 0.0
C145 C 0.22626 0.9426 0.18237 0.0
C146 C 0.16433 0.92888 0.12089 0.0
C147 C 0.16506 0.88449 0.1287 0.0
C148 C 0.1962 0.86931 0.16399 0.0
C149 C 0.22629 0.89818 0.19115 0.0
C150 C 0.11792 0.79253 0.03797 0.0
C151 C 0.07385 0.79282 0.04873 0.0
C152 C 0.1476 0.82254 0.0639 0.0
C153 C 0.13358 0.85384 0.09989 0.0
C154 C 0.08951 0.85505 0.10932 0.0
C155 C 0.05985 0.82442 0.08443 0.0
H156 H 0.27389 0.11553 0.40607 0.0
H157 H 0.28984 0.17927 0.24482 0.0
H158 H 0.23418 0.17315 0.44056 0.0
H159 H 0.25036 0.23747 0.27977 0.0
H160 H 0.11608 0.27798 0.33562 0.0
H161 H 0.1736 0.23794 0.30178 0.0
H162 H 0.23442 0.24971 0.46517 0.0
H163 H 0.17628 0.28955 0.49943 0.0
C164 C 0.26963 0.1423 0.37833 0.0
C165 C 0.28443 0.14257 0.32248 0.0
C166 C 0.24717 0.17555 0.39828 0.0
C167 C 0.23889 0.20973 0.36276 0.0
C168 C 0.25586 0.21127 0.30789 0.0
C169 C 0.27857 0.17805 0.28797 0.0
C170 C 0.14208 0.2727 0.3641 0.0
C171 C 0.14136 0.28637 0.42041 0.0
C172 C 0.17528 0.25005 0.34454 0.0
C173 C 0.20841 0.24041 0.38092 0.0
C174 C 0.20902 0.25627 0.43637 0.0
C175 C 0.17585 0.27919 0.4559 0.0
H176 H 0.78938 0.03725 0.60182 0.0
H177 H 0.79768 0.11405 0.75347 0.0
H178 H 0.84491 0.08692 0.55833 0.0
H179 H 0.85305 0.1637 0.70983 0.0
H180 H 0.97875 0.22146 0.63212 0.0
H181 H 0.92854 0.16604 0.67466 0.0
H182 H 0.84957 0.1635 0.52527 0.0
H183 H 0.89986 0.21884 0.48247 0.0
C184 C 0.80324 0.06457 0.62598 0.0
C185 C 0.78908 0.07188 0.68098 0.0
C186 C 0.83485 0.09307 0.60096 0.0
C187 C 0.85318 0.12917 0.63067 0.0
C188 C 0.83976 0.13589 0.68615 0.0
C189 C 0.80792 0.1076 0.711 0.0
C190 C 0.95084 0.20886 0.60817 0.0
C191 C 0.94309 0.22466 0.55407 0.0
C192 C 0.92204 0.17729 0.63265 0.0
C193 C 0.8851 0.16065 0.60336 0.0
C194 C 0.87798 0.17553 0.54863 0.0
C195 C 0.90664 0.20735 0.52426 0.0
H196 H 0.7387 0.90161 0.90376 0.0
H197 H 0.72347 0.83888 0.74186 0.0
H198 H 0.77848 0.84395 0.93799 0.0
H199 H 0.76302 0.78057 0.77656 0.0
H200 H 0.89701 0.73954 0.8334 0.0
H201 H 0.83952 0.77955 0.79917 0.0
H202 H 0.77829 0.76757 0.96221 0.0
H203 H 0.83639 0.72786 -0.00312 0.0
C204 C 0.74314 0.87504 0.8758 0.0
C205 C 0.72849 0.87507 0.81987 0.0
C206 C 0.76564 0.84175 0.89561 0.0
C207 C 0.77412 0.80781 0.85987 0.0
C208 C 0.75736 0.80658 0.80486 0.0
C209 C 0.73461 0.83986 0.78508 0.0
C210 C 0.87091 0.74476 0.86171 0.0
C211 C 0.87154 0.73112 0.91807 0.0
C212 C 0.83774 0.7674 0.84193 0.0
C213 C 0.80452 0.77701 0.87812 0.0
C214 C 0.80377 0.76108 0.93356 0.0
C215 C 0.83693 0.73823 0.95333 0.0
loop_
_geom_bond_atom_site_label_1
_geom_bond_atom_site_label_2
_geom_bond_distance
_geom_bond_site_symmetry_2
_ccdc_geom_bond_type
C0 O1 1.306 . S
C0 O3 1.160 1_455 S
O1 C0 1.306 . S
O1 Cd2 2.228 1_556 S
Cd2 O1 2.228 1_554 S
Cd2 O6 2.273 . S
Cd2 O10 2.277 . S
O3 C0 1.160 1_655 S
O3 Cd4 2.203 1_556 S
Cd4 O3 2.203 1_554 S
Cd4 O6 2.411 1_655 S
Cd4 O7 2.333 1_655 S
Cd4 O8 2.352 1_554 S
Cd4 O12 2.277 . S
Cd4 O13 2.356 . S
C5 O10 1.209 . S
C5 O12 1.226 1_455 S
O6 Cd2 2.273 . S
O6 Cd4 2.411 1_455 S
O6 C9 1.320 . S
O7 Cd4 2.333 1_455 S
O7 C9 1.214 . S
O8 Cd4 2.352 1_556 S
O8 C11 1.258 . S
C9 O6 1.320 . S
C9 O7 1.214 . S
O10 Cd2 2.277 . S
O10 C5 1.209 . S
C11 O8 1.258 . S
C11 O13 1.282 1_556 S
O12 Cd4 2.277 . S
O12 C5 1.226 1_655 S
O13 Cd4 2.356 . S
O13 C11 1.282 1_554 S
C14 O15 1.306 1_545 S
C14 O17 1.160 . S
O15 C14 1.306 1_565 S
O15 Cd16 2.228 . S
Cd16 O15 2.228 . S
Cd16 O20 2.273 . S
Cd16 O24 2.277 . S
O17 C14 1.160 . S
O17 Cd18 2.203 . S
Cd18 O17 2.203 . S
Cd18 O20 2.411 1_545 S
Cd18 O21 2.333 1_545 S
Cd18 O22 2.352 . S
Cd18 O26 2.277 . S
Cd18 O27 2.356 . S
C19 O24 1.209 1_545 S
C19 O26 1.226 . S
O20 Cd16 2.273 . S
O20 Cd18 2.411 1_565 S
O20 C23 1.320 . S
O21 Cd18 2.333 1_565 S
O21 C23 1.214 . S
O22 Cd18 2.352 . S
O22 C25 1.258 . S
C23 O20 1.320 . S
C23 O21 1.214 . S
O24 Cd16 2.277 . S
O24 C19 1.209 1_565 S
C25 O22 1.258 . S
C25 O27 1.282 . S
O26 Cd18 2.277 . S
O26 C19 1.226 . S
O27 Cd18 2.356 . S
O27 C25 1.282 . S
C28 O29 1.306 1_455 S
C28 O31 1.160 . S
O29 C28 1.306 1_655 S
O29 Cd30 2.228 . S
Cd30 O29 2.228 . S
Cd30 O34 2.273 . S
Cd30 O38 2.277 . S
O31 C28 1.160 . S
O31 Cd32 2.203 . S
Cd32 O31 2.203 . S
Cd32 O34 2.411 1_455 S
Cd32 O35 2.333 1_455 S
Cd32 O36 2.352 . S
Cd32 O40 2.277 . S
Cd32 O41 2.356 . S
C33 O38 1.209 1_455 S
C33 O40 1.226 . S
O34 Cd30 2.273 . S
O34 Cd32 2.411 1_655 S
O34 C37 1.320 . S
O35 Cd32 2.333 1_655 S
O35 C37 1.214 . S
O36 Cd32 2.352 . S
O36 C39 1.258 . S
C37 O34 1.320 . S
C37 O35 1.214 . S
O38 Cd30 2.277 . S
O38 C33 1.209 1_655 S
C39 O36 1.258 . S
C39 O41 1.282 . S
O40 Cd32 2.277 . S
O40 C33 1.226 . S
O41 Cd32 2.356 . S
O41 C39 1.282 . S
C42 O43 1.306 . S
C42 O45 1.160 1_545 S
O43 C42 1.306 . S
O43 Cd44 2.228 . S
Cd44 O43 2.228 . S
Cd44 O48 2.273 . S
Cd44 O52 2.277 . S
O45 C42 1.160 1_565 S
O45 Cd46 2.203 . S
Cd46 O45 2.203 . S
Cd46 O48 2.411 1_565 S
Cd46 O49 2.333 1_565 S
Cd46 O50 2.352 . S
Cd46 O54 2.277 . S
Cd46 O55 2.356 . S
C47 O52 1.209 . S
C47 O54 1.226 1_545 S
O48 Cd44 2.273 . S
O48 Cd46 2.411 1_545 S
O48 C51 1.320 . S
O49 Cd46 2.333 1_545 S
O49 C51 1.214 . S
O50 Cd46 2.352 . S
O50 C53 1.258 . S
C51 O48 1.320 . S
C51 O49 1.214 . S
O52 Cd44 2.277 . S
O52 C47 1.209 . S
C53 O50 1.258 . S
C53 O55 1.282 . S
O54 Cd46 2.277 . S
O54 C47 1.226 1_565 S
O55 Cd46 2.356 . S
O55 C53 1.282 . S
H56 C64 0.950 . S
H57 C69 0.950 . S
H58 C66 0.950 . S
H59 C68 0.950 . S
H60 C70 0.950 . S
H61 C72 0.950 . S
H62 C74 0.950 . S
H63 C75 0.950 . S
C64 H56 0.950 . S
C64 C65 1.386 1_655 S
C64 C66 1.391 . S
C65 C64 1.386 1_455 S
C65 C69 1.393 . S
C66 H58 0.950 . S
C66 C64 1.391 . S
C66 C67 1.400 1_655 S
C67 C66 1.400 1_455 S
C67 C68 1.398 . S
C67 C73 1.491 . S
C68 H59 0.950 . S
C68 C67 1.398 . S
C68 C69 1.391 . S
C69 H57 0.950 . S
C69 C65 1.393 . S
C69 C68 1.391 . S
C70 H60 0.950 . S
C70 C71 1.386 . S
C70 C72 1.391 . S
C71 C70 1.386 . S
C71 C75 1.393 1_455 S
C72 H61 0.950 . S
C72 C70 1.391 . S
C72 C73 1.400 . S
C73 C67 1.491 . S
C73 C72 1.400 . S
C73 C74 1.398 1_455 S
C74 H62 0.950 . S
C74 C73 1.398 1_655 S
C74 C75 1.391 . S
C75 H63 0.950 . S
C75 C71 1.393 1_655 S
C75 C74 1.391 . S
H76 C84 0.950 . S
H77 C89 0.953 . S
H78 C86 0.950 . S
H79 C88 0.950 . S
H80 C90 0.950 . S
H81 C92 0.950 . S
H82 C94 0.950 . S
H83 C95 0.950 . S
C84 H76 0.950 . S
C84 C85 1.386 . S
C84 C86 1.391 . S
C85 C84 1.386 . S
C85 C89 1.389 1_545 S
C86 H78 0.950 . S
C86 C84 1.391 . S
C86 C87 1.400 . S
C87 C86 1.400 . S
C87 C88 1.398 1_545 S
C87 C93 1.491 . S
C88 H79 0.950 . S
C88 C87 1.398 1_565 S
C88 C89 1.392 . S
C89 H77 0.953 . S
C89 C85 1.389 1_565 S
C89 C88 1.392 . S
C90 H80 0.950 . S
C90 C91 1.386 1_565 S
C90 C92 1.391 . S
C91 C90 1.386 1_545 S
C91 C95 1.393 . S
C92 H81 0.950 . S
C92 C90 1.391 . S
C92 C93 1.400 1_565 S
C93 C87 1.491 . S
C93 C92 1.400 1_545 S
C93 C94 1.398 . S
C94 H82 0.950 . S
C94 C93 1.398 . S
C94 C95 1.391 . S
C95 H83 0.950 . S
C95 C91 1.393 . S
C95 C94 1.391 . S
H96 C104 0.950 . S
H97 C109 0.950 . S
H98 C106 0.950 . S
H99 C108 0.950 . S
H100 C110 0.950 . S
H101 C112 0.950 . S
H102 C114 0.950 . S
H103 C115 0.950 . S
C104 H96 0.950 . S
C104 C105 1.386 1_655 S
C104 C106 1.391 . S
C105 C104 1.386 1_455 S
C105 C109 1.393 . S
C106 H98 0.950 . S
C106 C104 1.391 . S
C106 C107 1.400 1_655 S
C107 C106 1.400 1_455 S
C107 C108 1.398 . S
C107 C113 1.491 . S
C108 H99 0.950 . S
C108 C107 1.398 . S
C108 C109 1.391 . S
C109 H97 0.950 . S
C109 C105 1.393 . S
C109 C108 1.391 . S
C110 H100 0.950 . S
C110 C111 1.386 . S
C110 C112 1.391 . S
C111 C110 1.386 . S
C111 C115 1.393 1_455 S
C112 H101 0.950 . S
C112 C110 1.391 . S
C112 C113 1.400 . S
C113 C107 1.491 . S
C113 C112 1.400 . S
C113 C114 1.398 1_455 S
C114 H102 0.950 . S
C114 C113 1.398 1_655 S
C114 C115 1.391 . S
C115 H103 0.950 . S
C115 C111 1.393 1_655 S
C115 C114 1.391 . S
H116 C124 0.950 . S
H117 C129 0.950 . S
H118 C126 0.950 . S
H119 C128 0.950 . S
H120 C130 0.950 . S
H121 C132 0.950 . S
H122 C134 0.958 . S
H123 C135 0.950 . S
C124 H116 0.950 . S
C124 C125 1.386 . S
C124 C126 1.391 . S
C125 C124 1.386 . S
C125 C129 1.393 1_545 S
C126 H118 0.950 . S
C126 C124 1.391 . S
C126 C127 1.400 . S
C127 C126 1.400 . S
C127 C128 1.398 1_545 S
C127 C133 1.491 1_554 S
C128 H119 0.950 . S
C128 C127 1.398 1_565 S
C128 C129 1.391 . S
C129 H117 0.950 . S
C129 C125 1.393 1_565 S
C129 C128 1.391 . S
C130 H120 0.950 . S
C130 C131 1.386 1_565 S
C130 C132 1.391 . S
C131 C130 1.386 1_545 S
C131 C135 1.393 . S
C132 H121 0.950 . S
C132 C130 1.391 . S
C132 C133 1.400 1_565 S
C133 C127 1.491 1_556 S
C133 C132 1.400 1_545 S
C133 C134 1.398 . S
C134 H122 0.958 . S
C134 C133 1.398 . S
C134 C135 1.391 . S
C135 H123 0.950 . S
C135 C131 1.393 . S
C135 C134 1.391 . S
H136 C144 0.950 . S
H137 C149 0.950 . S
H138 C146 0.950 . S
H139 C148 0.950 . S
H140 C150 0.950 . S
H141 C152 0.950 . S
H142 C154 0.950 . S
H143 C155 0.950 . S
C144 H136 0.950 . S
C144 C145 1.386 . S
C144 C146 1.391 . S
C145 C144 1.386 . S
C145 C149 1.393 . S
C146 H138 0.950 . S
C146 C144 1.391 . S
C146 C147 1.400 . S
C147 C146 1.400 . S
C147 C148 1.398 . S
C147 C153 1.491 . S
C148 H139 0.950 . S
C148 C147 1.398 . S
C148 C149 1.391 . S
C149 H137 0.950 . S
C149 C145 1.393 . S
C149 C148 1.391 . S
C150 H140 0.950 . S
C150 C151 1.386 . S
C150 C152 1.391 . S
C151 C150 1.386 . S
C151 C155 1.393 . S
C152 H141 0.950 . S
C152 C150 1.391 . S
C152 C153 1.400 . S
C153 C147 1.491 . S
C153 C152 1.400 . S
C153 C154 1.398 . S
C154 H142 0.950 . S
C154 C153 1.398 . S
C154 C155 1.391 . S
C155 H143 0.950 . S
C155 C151 1.393 . S
C155 C154 1.391 . S
H156 C164 0.950 . S
H157 C169 0.950 . S
H158 C166 0.950 . S
H159 C168 0.950 . S
H160 C170 0.950 . S
H161 C172 0.950 . S
H162 C174 0.950 . S
H163 C175 0.950 . S
C164 H156 0.950 . S
C164 C165 1.386 . S
C164 C166 1.391 . S
C165 C164 1.386 . S
C165 C169 1.393 . S
C166 H158 0.950 . S
C166 C164 1.391 . S
C166 C167 1.400 . S
C167 C166 1.400 . S
C167 C168 1.398 . S
C167 C173 1.491 . S
C168 H159 0.950 . S
C168 C167 1.398 . S
C168 C169 1.391 . S
C169 H157 0.950 . S
C169 C165 1.393 . S
C169 C168 1.391 . S
C170 H160 0.950 . S
C170 C171 1.386 . S
C170 C172 1.391 . S
C171 C170 1.386 . S
C171 C175 1.393 . S
C172 H161 0.950 . S
C172 C170 1.391 . S
C172 C173 1.400 . S
C173 C167 1.491 . S
C173 C172 1.400 . S
C173 C174 1.398 . S
C174 H162 0.950 . S
C174 C173 1.398 . S
C174 C175 1.391 . S
C175 H163 0.950 . S
C175 C171 1.393 . S
C175 C174 1.391 . S
H176 C184 0.950 . S
H177 C189 0.950 . S
H178 C186 0.950 . S
H179 C188 0.950 . S
H180 C190 0.950 . S
H181 C192 0.950 . S
H182 C194 0.950 . S
H183 C195 0.950 . S
C184 H176 0.950 . S
C184 C185 1.386 . S
C184 C186 1.391 . S
C185 C184 1.386 . S
C185 C189 1.393 . S
C186 H178 0.950 . S
C186 C184 1.391 . S
C186 C187 1.400 . S
C187 C186 1.400 . S
C187 C188 1.398 . S
C187 C193 1.491 . S
C188 H179 0.950 . S
C188 C187 1.398 . S
C188 C189 1.391 . S
C189 H177 0.950 . S
C189 C185 1.393 . S
C189 C188 1.391 . S
C190 H180 0.950 . S
C190 C191 1.386 . S
C190 C192 1.391 . S
C191 C190 1.386 . S
C191 C195 1.393 . S
C192 H181 0.950 . S
C192 C190 1.391 . S
C192 C193 1.400 . S
C193 C187 1.491 . S
C193 C192 1.400 . S
C193 C194 1.398 . S
C194 H182 0.950 . S
C194 C193 1.398 . S
C194 C195 1.391 . S
C195 H183 0.950 . S
C195 C191 1.393 . S
C195 C194 1.391 . S
H196 C204 0.950 . S
H197 C209 0.950 . S
H198 C206 0.950 . S
H199 C208 0.950 . S
H200 C210 0.950 . S
H201 C212 0.950 . S
H202 C214 0.950 . S
H203 C215 0.950 . S
C204 H196 0.950 . S
C204 C205 1.386 . S
C204 C206 1.391 . S
C205 C204 1.386 . S
C205 C209 1.393 . S
C206 H198 0.950 . S
C206 C204 1.391 . S
C206 C207 1.400 . S
C207 C206 1.400 . S
C207 C208 1.398 . S
C207 C213 1.491 . S
C208 H199 0.950 . S
C208 C207 1.398 . S
C208 C209 1.391 . S
C209 H197 0.950 . S
C209 C205 1.393 . S
C209 C208 1.391 . S
C210 H200 0.950 . S
C210 C211 1.386 . S
C210 C212 1.391 . S
C211 C210 1.386 . S
C211 C215 1.393 . S
C212 H201 0.950 . S
C212 C210 1.391 . S
C212 C213 1.400 . S
C213 C207 1.491 . S
C213 C212 1.400 . S
C213 C214 1.398 . S
C214 H202 0.950 . S
C214 C213 1.398 . S
C214 C215 1.391 . S
C215 H203 0.950 . S
C215 C211 1.393 . S
C215 C214 1.391 . S
C65 C5 1.407 . S
C71 C28 1.400 . S
C85 C14 1.408 . S
C91 C47 1.410 . S
C105 C0 1.409 . S
C111 C33 1.410 . S
C125 C19 1.406 . S
C131 C42 1.400 . S
C145 C23 1.476 . S
C151 C9 1.472 . S
C165 C25 1.482 . S
C171 C39 1.481 . S
C185 C51 1.480 . S
C191 C37 1.475 . S
C205 C53 1.483 . S
C211 C11 1.482 . S
