# Generated by pormake.
# Topology unc, (4)-cn, num edge types: 1
# Building blocks:
#     Node 0, Type 0, BuildingBlock: TATPOV_clean_sbu_0, # of connection points: 4
#     Node 1, Type 0, BuildingBlock: TATPOV_clean_sbu_0, # of connection points: 4
#     Node 2, Type 0, BuildingBlock: TATPOV_clean_sbu_0, # of connection points: 4
#     Node 3, Type 0, BuildingBlock: TATPOV_clean_sbu_0, # of connection points: 4
#     Edge 4, Type (0, 0), None
#     Edge 5, Type (0, 0), None
#     Edge 6, Type (0, 0), None
#     Edge 7, Type (0, 0), None
#     Edge 8, Type (0, 0), None
#     Edge 9, Type (0, 0), None
#     Edge 10, Type (0, 0), None
#     Edge 11, Type (0, 0), None
# Relax obj value: 0.096
# Max RMSD: 0.152
# Mean RMSD: 0.152
data_MOF--net-unc--node1-TATPOV_clean_sbu_0--edge1-none
_symmetry_space_group_name_H-M    P1
_symmetry_Int_Tables_number       1
_symmetry_cell_setting            triclinic
loop_
_symmetry_equiv_pos_as_xyz
'x, y, z'
_cell_length_a     13.494492
_cell_length_b     13.494489
_cell_length_c     11.009654
_cell_angle_alpha  90.000198
_cell_angle_beta   90.000189
_cell_angle_gamma 88.689644
loop_
_atom_site_label
_atom_site_type_symbol
_atom_site_fract_x
_atom_site_fract_y
_atom_site_fract_z
_atom_type_partial_charge
Zn0 Zn 0.18517 0.56079 -0.06395 0.0
Zn1 Zn 0.04356 0.70968 -0.08072 0.0
O2 O 0.05636 0.62964 0.76387 0.0
O3 O 0.17576 0.51611 0.76144 0.0
O4 O 0.94538 0.81663 0.86361 0.0
O5 O 0.28016 0.66297 -0.00266 0.0
O6 O 0.16377 0.7807 -0.0111 0.0
C7 C 0.10459 0.56108 0.70912 0.0
C8 C 0.01071 0.54718 0.09758 0.0
O9 O 0.98 0.62985 0.05418 0.0
O10 O 0.08999 0.50574 0.05914 0.0
C11 C 0.86233 0.78898 0.82249 0.0
O12 O 0.83997 0.6949 0.82819 0.0
C13 C 0.25117 0.75144 0.01741 0.0
Zn14 Zn 0.51019 0.88581 0.15653 0.0
Zn15 Zn 0.3613 0.02742 0.1733 0.0
O16 O 0.44133 0.01462 0.32871 0.0
O17 O 0.55487 0.89522 0.33114 0.0
O18 O 0.25434 0.12559 0.22897 0.0
O19 O 0.408 0.79081 0.09524 0.0
O20 O 0.29028 0.90721 0.10368 0.0
C21 C 0.5099 0.96638 0.38346 0.0
C22 C 0.52379 0.06027 -0.005 0.0
O23 O 0.44113 0.09098 0.0384 0.0
O24 O 0.56524 0.98098 0.03343 0.0
C25 C 0.282 0.20865 0.27009 0.0
O26 O 0.37608 0.231 0.26439 0.0
C27 C 0.31954 0.8198 0.07517 0.0
Zn28 Zn 0.88747 0.50853 0.43605 0.0
Zn29 Zn 0.02909 0.35962 0.41928 0.0
O30 O 0.01629 0.43965 0.26386 0.0
O31 O 0.89689 0.5532 0.26144 0.0
O32 O 0.12727 0.25266 0.36361 0.0
O33 O 0.79248 0.40633 0.49734 0.0
O34 O 0.90888 0.2886 0.48889 0.0
C35 C 0.96805 0.50821 0.20912 0.0
C36 C 0.06195 0.52213 0.59755 0.0
O37 O 0.09265 0.43945 0.55417 0.0
O38 O 0.98266 0.56358 0.55914 0.0
C39 C 0.21032 0.28032 0.32249 0.0
O40 O 0.23267 0.3744 0.32818 0.0
C41 C 0.82148 0.31786 0.51741 0.0
Zn42 Zn 0.56244 0.18351 0.65653 0.0
Zn43 Zn 0.71136 0.04188 0.6733 0.0
O44 O 0.63132 0.05468 0.82871 0.0
O45 O 0.51778 0.17409 0.83114 0.0
O46 O 0.81831 0.94371 0.72897 0.0
O47 O 0.66465 0.27849 0.59524 0.0
O48 O 0.78238 0.16209 0.60369 0.0
C49 C 0.56276 0.10293 0.88345 0.0
C50 C 0.54884 0.00903 0.49503 0.0
O51 O 0.63153 0.97832 0.5384 0.0
O52 O 0.5074 0.08832 0.53344 0.0
C53 C 0.79066 0.86065 0.77009 0.0
O54 O 0.69657 0.8383 0.76439 0.0
C55 C 0.75311 0.2495 0.57517 0.0
loop_
_geom_bond_atom_site_label_1
_geom_bond_atom_site_label_2
_geom_bond_distance
_geom_bond_site_symmetry_2
_ccdc_geom_bond_type
Zn0 O3 2.031 1_554 S
Zn0 O5 2.049 . S
Zn0 O10 2.067 . S
Zn1 O2 1.962 . S
Zn1 O4 1.986 1_455 S
Zn1 O6 1.996 1_556 S
Zn1 O9 1.943 1_456 S
O2 Zn1 1.962 . S
O2 C7 1.254 . S
O3 Zn0 2.031 1_556 S
O3 C7 1.269 . S
O4 Zn1 1.986 1_655 S
O4 C11 1.262 . S
O5 Zn0 2.049 . S
O5 C13 1.260 . S
O6 Zn1 1.996 1_554 S
O6 C13 1.257 . S
C7 O2 1.254 . S
C7 O3 1.269 . S
C8 O9 1.249 1_455 S
C8 O10 1.270 . S
O9 Zn1 1.943 1_654 S
O9 C8 1.249 1_655 S
O10 Zn0 2.067 . S
O10 C8 1.270 . S
C11 O4 1.262 . S
C11 O12 1.232 . S
O12 C11 1.232 . S
C13 O5 1.260 . S
C13 O6 1.257 . S
Zn14 O17 2.031 . S
Zn14 O19 2.049 . S
Zn14 O24 2.067 . S
Zn15 O16 1.962 . S
Zn15 O18 1.986 . S
Zn15 O20 1.996 1_545 S
Zn15 O23 1.943 . S
O16 Zn15 1.962 . S
O16 C21 1.254 1_545 S
O17 Zn14 2.031 . S
O17 C21 1.269 . S
O18 Zn15 1.986 . S
O18 C25 1.262 . S
O19 Zn14 2.049 . S
O19 C27 1.260 . S
O20 Zn15 1.996 1_565 S
O20 C27 1.257 . S
C21 O16 1.254 1_565 S
C21 O17 1.269 . S
C22 O23 1.249 . S
C22 O24 1.270 1_545 S
O23 Zn15 1.943 . S
O23 C22 1.249 . S
O24 Zn14 2.067 . S
O24 C22 1.270 1_565 S
C25 O18 1.262 . S
C25 O26 1.232 . S
O26 C25 1.232 . S
C27 O19 1.260 . S
C27 O20 1.257 . S
Zn28 O31 2.031 . S
Zn28 O33 2.049 . S
Zn28 O38 2.067 . S
Zn29 O30 1.962 . S
Zn29 O32 1.986 . S
Zn29 O34 1.996 1_455 S
Zn29 O37 1.943 . S
O30 Zn29 1.962 . S
O30 C35 1.254 1_455 S
O31 Zn28 2.031 . S
O31 C35 1.269 . S
O32 Zn29 1.986 . S
O32 C39 1.262 . S
O33 Zn28 2.049 . S
O33 C41 1.260 . S
O34 Zn29 1.996 1_655 S
O34 C41 1.257 . S
C35 O30 1.254 1_655 S
C35 O31 1.269 . S
C36 O37 1.249 . S
C36 O38 1.270 1_455 S
O37 Zn29 1.943 . S
O37 C36 1.249 . S
O38 Zn28 2.067 . S
O38 C36 1.270 1_655 S
C39 O32 1.262 . S
C39 O40 1.232 . S
O40 C39 1.232 . S
C41 O33 1.260 . S
C41 O34 1.257 . S
Zn42 O45 2.031 . S
Zn42 O47 2.049 . S
Zn42 O52 2.067 . S
Zn43 O44 1.962 1_556 S
Zn43 O46 1.986 1_545 S
Zn43 O48 1.996 . S
Zn43 O51 1.943 1_545 S
O44 Zn43 1.962 1_554 S
O44 C49 1.254 1_554 S
O45 Zn42 2.031 . S
O45 C49 1.269 . S
O46 Zn43 1.986 1_565 S
O46 C53 1.262 . S
O47 Zn42 2.049 . S
O47 C55 1.260 . S
O48 Zn43 1.996 . S
O48 C55 1.257 . S
C49 O44 1.254 1_556 S
C49 O45 1.269 . S
C50 O51 1.249 1_545 S
C50 O52 1.270 . S
O51 Zn43 1.943 1_565 S
O51 C50 1.249 1_565 S
O52 Zn42 2.067 . S
O52 C50 1.270 . S
C53 O46 1.262 . S
C53 O54 1.232 . S
O54 C53 1.232 . S
C55 O47 1.260 . S
C55 O48 1.257 . S
C8 C35 1.229 1_455 S
C21 C50 1.229 1_565 S
C7 C36 1.229 . S
C22 C49 1.229 1_554 S
C27 C13 1.416 . S
C25 C39 1.527 . S
C55 C41 1.416 . S
C53 C11 1.527 . S
