# Generated by pormake.
# Topology smc, (6)-cn, num edge types: 1
# Building blocks:
#     Node 0, Type 0, BuildingBlock: IZENUY_clean_sbu_0, # of connection points: 6
#     Node 1, Type 0, BuildingBlock: IZENUY_clean_sbu_0, # of connection points: 6
#     Node 2, Type 0, BuildingBlock: IZENUY_clean_sbu_0, # of connection points: 6
#     Node 3, Type 0, BuildingBlock: IZENUY_clean_sbu_0, # of connection points: 6
#     Node 4, Type 0, BuildingBlock: IZENUY_clean_sbu_0, # of connection points: 6
#     Node 5, Type 0, BuildingBlock: IZENUY_clean_sbu_0, # of connection points: 6
#     Node 6, Type 0, BuildingBlock: IZENUY_clean_sbu_0, # of connection points: 6
#     Node 7, Type 0, BuildingBlock: IZENUY_clean_sbu_0, # of connection points: 6
#     Node 8, Type 0, BuildingBlock: IZENUY_clean_sbu_0, # of connection points: 6
#     Edge 9, Type (0, 0), None
#     Edge 10, Type (0, 0), None
#     Edge 11, Type (0, 0), None
#     Edge 12, Type (0, 0), None
#     Edge 13, Type (0, 0), None
#     Edge 14, Type (0, 0), None
#     Edge 15, Type (0, 0), None
#     Edge 16, Type (0, 0), None
#     Edge 17, Type (0, 0), None
#     Edge 18, Type (0, 0), None
#     Edge 19, Type (0, 0), None
#     Edge 20, Type (0, 0), None
#     Edge 21, Type (0, 0), None
#     Edge 22, Type (0, 0), None
#     Edge 23, Type (0, 0), None
#     Edge 24, Type (0, 0), None
#     Edge 25, Type (0, 0), None
#     Edge 26, Type (0, 0), None
#     Edge 27, Type (0, 0), None
#     Edge 28, Type (0, 0), None
#     Edge 29, Type (0, 0), None
#     Edge 30, Type (0, 0), None
#     Edge 31, Type (0, 0), None
#     Edge 32, Type (0, 0), None
#     Edge 33, Type (0, 0), None
#     Edge 34, Type (0, 0), None
#     Edge 35, Type (0, 0), None
# Relax obj value: 0.289
# Max RMSD: 0.292
# Mean RMSD: 0.291
data_MOF--net-smc--node1-IZENUY_clean_sbu_0--edge1-none
_symmetry_space_group_name_H-M    P1
_symmetry_Int_Tables_number       1
_symmetry_cell_setting            triclinic
loop_
_symmetry_equiv_pos_as_xyz
'x, y, z'
_cell_length_a     12.651697
_cell_length_b     12.652947
_cell_length_c     20.058935
_cell_angle_alpha  90.00432
_cell_angle_beta   90.000757
_cell_angle_gamma 120.00667
loop_
_atom_site_label
_atom_site_type_symbol
_atom_site_fract_x
_atom_site_fract_y
_atom_site_fract_z
_atom_type_partial_charge
Fe0 Fe 0.22744 0.59128 1.01763 0.0
Fe1 Fe 0.11157 0.32221 0.05549 0.0
O2 O 0.11157 0.46083 0.05548 0.0
Fe3 Fe 0.99574 0.47548 0.09334 0.0
O4 O 0.95739 0.49891 1.01083 0.0
O5 O 0.12417 0.66086 0.99623 0.0
O6 O 0.19341 0.52475 0.93687 0.0
C7 C 0.19038 0.42605 0.92379 0.0
C8 C 0.21613 0.71193 0.11481 0.0
O9 O 0.1804 0.35023 0.96974 0.0
C10 C 1.0328 0.34731 0.18719 0.0
O11 O 0.34262 0.54552 1.03183 0.0
O12 O 0.25908 0.39008 0.09977 0.0
O13 O 1.09905 0.64835 0.11473 0.0
O14 O 0.26579 0.65305 0.10014 0.0
C15 C 0.87105 0.24589 1.03013 0.0
O16 O 1.04273 0.28144 0.14124 0.0
O17 O 1.02976 0.44298 0.1741 0.0
C18 C 0.35211 0.4864 0.08083 0.0
O19 O 0.96406 0.24254 1.01121 0.0
O20 O 0.88053 0.31452 0.07913 0.0
C21 C 1.0071 0.60744 0.99613 0.0
Fe22 Fe 0.86395 0.82692 0.05551 0.0
Fe23 Fe 0.59485 0.67363 1.01761 0.0
O24 O 0.72531 0.68828 0.05551 0.0
Fe25 Fe 0.7107 0.55783 0.09336 0.0
O26 O 0.7432 0.62434 0.17412 0.0
O27 O 0.90472 0.79891 0.14126 0.0
O28 O 0.79609 0.90658 0.09976 0.0
C29 C 0.69978 0.90326 0.08078 0.0
C30 C 0.94025 0.66273 1.03016 0.0
O31 O 0.64066 0.83461 1.03178 0.0
C32 C 0.57875 0.43718 0.99618 0.0
O33 O 0.83593 0.86767 0.96974 0.0
O34 O 0.66143 0.70607 0.93687 0.0
O35 O 0.87165 0.6036 0.07916 0.0
O36 O 0.94361 0.75908 1.01124 0.0
C37 C 0.47428 0.54176 0.11486 0.0
O38 O 0.52523 0.50073 0.99626 0.0
O39 O 0.6873 0.4961 1.01084 0.0
C40 C 0.76014 0.80175 0.92378 0.0
O41 O 0.533 0.65028 0.10011 0.0
O42 O 0.53781 0.48823 0.11475 0.0
C43 C 0.83887 0.72308 0.18721 0.0
Fe44 Fe 0.51244 0.95868 1.01759 0.0
Fe45 Fe 0.35924 0.07454 0.05548 0.0
O46 O 0.49787 0.07454 0.05547 0.0
Fe47 Fe 0.62837 0.19038 0.09334 0.0
O48 O 0.69016 0.22882 1.01083 0.0
O49 O 0.68534 1.06195 0.99621 0.0
O50 O 0.47997 0.99277 0.93684 0.0
C51 C 0.38429 0.9958 0.92376 0.0
C52 C 0.64435 0.97001 0.11478 0.0
O53 O 0.31842 1.00574 0.96972 0.0
C54 C 0.46311 0.15326 0.1872 0.0
O55 O 0.35147 0.84353 1.03177 0.0
O56 O 0.27958 0.92705 0.09975 0.0
O57 O 0.69796 0.08708 0.11469 0.0
O58 O 0.5358 0.92022 0.10009 0.0
C59 C 0.52341 0.31503 1.03018 0.0
O60 O 0.3873 0.14335 0.14124 0.0
O61 O 0.56182 0.1563 0.1741 0.0
C62 C 0.28289 0.83406 0.08079 0.0
O63 O 0.42708 0.22203 1.01123 0.0
O64 O 0.58258 0.30556 0.07917 0.0
C65 C 0.74888 0.17902 0.99609 0.0
Fe66 Fe 0.66236 0.80877 0.42669 0.0
Fe67 Fe 0.77823 0.65558 0.38882 0.0
O68 O 0.77821 0.79419 0.38883 0.0
Fe69 Fe 0.89405 0.92468 0.35097 0.0
O70 O 0.93239 0.98644 0.43349 0.0
O71 O 0.76562 0.98164 0.44808 0.0
O72 O 0.6964 0.77629 0.50745 0.0
C73 C 0.69943 0.68062 0.52053 0.0
C74 C 0.67365 0.94071 0.32951 0.0
O75 O 0.7094 0.61477 0.47456 0.0
C76 C 0.85704 0.75947 0.25713 0.0
O77 O 0.54719 0.64781 0.41249 0.0
O78 O 0.63071 0.57589 0.34453 0.0
O79 O 0.79074 0.99423 0.32959 0.0
O80 O 0.624 0.83217 0.34417 0.0
C81 C 1.01873 0.81982 0.41418 0.0
O82 O 0.84706 0.68363 0.30307 0.0
O83 O 0.86003 0.85815 0.27022 0.0
C84 C 0.5377 0.57919 0.36348 0.0
O85 O 0.92574 0.72345 0.4331 0.0
O86 O 1.00925 0.87895 0.36518 0.0
C87 C 0.8827 1.04528 0.44819 0.0
Fe88 Fe 0.3773 0.89119 0.42669 0.0
Fe89 Fe 0.53058 0.16027 0.38882 0.0
O90 O 0.39192 1.02165 0.38884 0.0
Fe91 Fe 0.26145 1.00702 0.35096 0.0
O92 O 0.19964 0.98368 0.43346 0.0
O93 O 0.20442 0.82161 0.44808 0.0
O94 O 0.40982 0.95772 0.50745 0.0
C95 C 0.50552 1.05643 0.52053 0.0
C96 C 0.24533 0.77055 0.32951 0.0
O97 O 0.57137 0.13226 0.47458 0.0
C98 C 0.42672 0.13512 0.25712 0.0
O99 O 0.53824 0.93695 0.4125 0.0
O100 O 0.61022 0.09241 0.34456 0.0
O101 O 0.19182 0.83411 0.32961 0.0
O102 O 0.35389 0.82946 0.34417 0.0
C103 C 0.36643 0.23664 0.41413 0.0
O104 O 0.50256 0.20102 0.30306 0.0
O105 O 0.328 1.03944 0.27021 0.0
C106 C 0.60687 0.99608 0.36351 0.0
O107 O 0.46276 0.23996 0.43308 0.0
O108 O 0.30728 0.16799 0.36513 0.0
C109 C 0.14091 0.87516 0.44821 0.0
Fe110 Fe 1.02589 0.40788 0.38882 0.0
Fe111 Fe 0.17916 0.29205 0.35095 0.0
O112 O 0.16453 0.4079 0.38882 0.0
Fe113 Fe 0.295 0.52379 0.42668 0.0
O114 O 0.22849 0.48972 0.50744 0.0
O115 O 1.05393 0.47668 0.47458 0.0
O116 O 0.94623 0.2604 0.43308 0.0
C117 C 0.94959 0.16741 0.41416 0.0
C118 C 0.19 0.6484 0.36352 0.0
O119 O 1.01819 0.17686 0.36515 0.0
C120 C 0.41552 0.51244 0.32946 0.0
O121 O 0.9851 0.33907 0.30306 0.0
O122 O 0.14666 0.32609 0.2702 0.0
O123 O 0.24919 0.63894 0.4125 0.0
O124 O 1.0937 0.55537 0.34455 0.0
C125 C 0.3111 0.30347 0.44817 0.0
O126 O 0.35206 0.39537 0.32957 0.0
O127 O 0.35676 0.56221 0.34415 0.0
C128 C 1.05097 0.3291 0.25711 0.0
O129 O 0.20256 0.25363 0.43345 0.0
O130 O 0.36463 0.42054 0.44805 0.0
C131 C 0.12976 0.48665 0.52053 0.0
Fe132 Fe 0.5608 0.25799 0.68431 0.0
Fe133 Fe 0.44491 0.9889 0.72215 0.0
O134 O 0.44492 0.12753 0.72214 0.0
Fe135 Fe 0.32907 0.14217 0.75999 0.0
O136 O 0.29075 0.16561 0.67748 0.0
O137 O 0.45753 0.32758 0.6629 0.0
O138 O 0.52679 0.19149 0.60355 0.0
C139 C 0.52377 0.0928 0.59045 0.0
C140 C 0.54946 0.37861 0.78149 0.0
O141 O 0.51374 1.01693 0.6364 0.0
C142 C 0.36607 1.01397 0.85384 0.0
O143 O 0.67597 0.21223 0.69851 0.0
O144 O 0.59242 1.05675 0.76643 0.0
O145 O 0.43238 0.31503 0.78139 0.0
O146 O 0.59911 0.31972 0.76683 0.0
C147 C 0.20439 0.91258 0.69678 0.0
O148 O 0.37607 0.94812 0.80789 0.0
O149 O 0.36307 0.10966 0.84075 0.0
C150 C 0.68544 0.15309 0.7475 0.0
O151 O 0.2974 0.90923 0.67786 0.0
O152 O 0.21387 0.98122 0.74577 0.0
C153 C 0.34046 0.27415 0.66278 0.0
Fe154 Fe 1.04402 0.22448 0.76001 0.0
Fe155 Fe 0.19727 0.49359 0.72217 0.0
O156 O 1.05863 0.35495 0.72218 0.0
Fe157 Fe 0.92816 0.3403 0.6843 0.0
O158 O 0.86634 0.31695 0.7668 0.0
O159 O 0.87114 0.15488 0.78141 0.0
O160 O 1.07654 0.29097 0.84078 0.0
C161 C 0.17223 0.38968 0.85387 0.0
C162 C 0.91206 0.10386 0.66283 0.0
O163 O 0.23805 0.46557 0.80793 0.0
C164 C 1.0934 0.46845 0.59046 0.0
O165 O 0.20497 0.27025 0.74581 0.0
O166 O 0.27694 0.42576 0.6779 0.0
O167 O 0.85854 0.1674 0.66294 0.0
O168 O 1.02062 0.16278 0.67748 0.0
C169 C 1.03312 0.56994 0.74746 0.0
O170 O 0.16924 0.53434 0.63641 0.0
O171 O 0.9947 0.37274 0.60355 0.0
C172 C 0.27359 0.32941 0.69682 0.0
O173 O 0.12943 0.57325 0.76643 0.0
O174 O 0.97396 0.50127 0.69847 0.0
C175 C 0.80762 0.20842 0.78154 0.0
Fe176 Fe 0.84579 0.62535 0.68427 0.0
Fe177 Fe 0.69259 0.74122 0.72216 0.0
O178 O 0.83123 0.74122 0.72214 0.0
Fe179 Fe 0.96174 0.85708 0.75999 0.0
O180 O 1.02349 0.89549 0.67748 0.0
O181 O 1.01869 0.72862 0.66288 0.0
O182 O 0.81331 0.65942 0.60352 0.0
C183 C 0.7176 0.66241 0.59045 0.0
C184 C 0.97771 0.63671 0.78146 0.0
O185 O 0.65177 0.67242 0.6364 0.0
C186 C 0.79653 0.82 0.85386 0.0
O187 O 0.68482 0.5102 0.69846 0.0
O188 O 0.61293 0.59374 0.76643 0.0
O189 O 1.03134 0.75379 0.78135 0.0
O190 O 0.86916 0.58693 0.76678 0.0
C191 C 0.85676 0.98171 0.69684 0.0
O192 O 0.72067 0.81003 0.80792 0.0
O193 O 0.89523 0.82303 0.84076 0.0
C194 C 0.61624 0.50074 0.74747 0.0
O195 O 0.76041 0.88871 0.67791 0.0
O196 O 0.91595 0.97225 0.74582 0.0
C197 C 1.08222 0.8457 0.66275 0.0
loop_
_geom_bond_atom_site_label_1
_geom_bond_atom_site_label_2
_geom_bond_distance
_geom_bond_site_symmetry_2
_ccdc_geom_bond_type
Fe0 O2 1.918 1_556 S
Fe0 O5 1.997 1_455 S
Fe0 O6 2.002 . S
Fe0 O11 1.976 . S
Fe0 O14 1.996 . S
Fe1 O2 1.918 . S
Fe1 O9 1.997 1_454 S
Fe1 O12 1.996 1_554 S
Fe1 O16 1.976 . S
Fe1 O19 2.002 1_455 S
O2 Fe0 1.918 1_554 S
O2 Fe1 1.918 . S
O2 Fe3 1.918 1_455 S
Fe3 O2 1.918 1_655 S
Fe3 O4 2.002 . S
Fe3 O13 1.976 1_655 S
Fe3 O17 1.996 . S
Fe3 O20 1.997 . S
O4 Fe3 2.002 . S
O4 C21 1.295 1_554 S
O5 Fe0 1.997 1_655 S
O5 C21 1.235 . S
O6 Fe0 2.002 . S
O6 C7 1.295 1_455 S
C7 O6 1.295 1_655 S
C7 O9 1.235 . S
C8 O13 1.287 . S
C8 O14 1.255 1_554 S
O9 Fe1 1.997 1_656 S
O9 C7 1.235 . S
C10 O16 1.287 . S
C10 O17 1.255 1_455 S
O11 Fe0 1.976 . S
O11 C18 1.287 . S
O12 Fe1 1.996 1_556 S
O12 C18 1.255 . S
O13 Fe3 1.976 1_455 S
O13 C8 1.287 . S
O14 Fe0 1.996 . S
O14 C8 1.255 1_556 S
C15 O19 1.295 . S
C15 O20 1.235 . S
O16 Fe1 1.976 . S
O16 C10 1.287 . S
O17 Fe3 1.996 . S
O17 C10 1.255 1_655 S
C18 O11 1.287 . S
C18 O12 1.255 . S
O19 Fe1 2.002 1_655 S
O19 C15 1.295 . S
O20 Fe3 1.997 . S
O20 C15 1.235 . S
C21 O4 1.295 1_556 S
C21 O5 1.235 . S
Fe22 O24 1.918 . S
Fe22 O27 1.997 . S
Fe22 O28 2.002 1_554 S
Fe22 O33 1.976 1_554 S
Fe22 O36 1.996 . S
Fe23 O24 1.918 1_556 S
Fe23 O31 1.997 . S
Fe23 O34 1.996 . S
Fe23 O38 1.976 . S
Fe23 O41 2.002 . S
O24 Fe22 1.918 . S
O24 Fe23 1.918 1_554 S
O24 Fe25 1.918 . S
Fe25 O24 1.918 . S
Fe25 O26 2.002 . S
Fe25 O35 1.976 . S
Fe25 O39 1.996 . S
Fe25 O42 1.997 . S
O26 Fe25 2.002 . S
O26 C43 1.295 . S
O27 Fe22 1.997 . S
O27 C43 1.235 . S
O28 Fe22 2.002 1_556 S
O28 C29 1.295 . S
C29 O28 1.295 . S
C29 O31 1.235 . S
C30 O35 1.287 . S
C30 O36 1.255 . S
O31 Fe23 1.997 . S
O31 C29 1.235 . S
C32 O38 1.287 . S
C32 O39 1.255 1_556 S
O33 Fe22 1.976 1_556 S
O33 C40 1.287 . S
O34 Fe23 1.996 . S
O34 C40 1.255 . S
O35 Fe25 1.976 . S
O35 C30 1.287 . S
O36 Fe22 1.996 . S
O36 C30 1.255 . S
C37 O41 1.295 1_554 S
C37 O42 1.235 . S
O38 Fe23 1.976 . S
O38 C32 1.287 . S
O39 Fe25 1.996 . S
O39 C32 1.255 1_554 S
C40 O33 1.287 . S
C40 O34 1.255 . S
O41 Fe23 2.002 . S
O41 C37 1.295 1_556 S
O42 Fe25 1.997 . S
O42 C37 1.235 . S
C43 O26 1.295 . S
C43 O27 1.235 . S
Fe44 O46 1.918 1_556 S
Fe44 O49 1.997 1_565 S
Fe44 O50 2.002 . S
Fe44 O55 1.976 . S
Fe44 O58 2.002 . S
Fe45 O46 1.919 . S
Fe45 O53 1.996 1_564 S
Fe45 O56 1.997 1_554 S
Fe45 O60 1.976 . S
Fe45 O63 2.001 1_565 S
O46 Fe44 1.918 1_554 S
O46 Fe45 1.919 . S
O46 Fe47 1.918 1_565 S
Fe47 O46 1.918 1_545 S
Fe47 O48 2.002 . S
Fe47 O57 1.976 1_545 S
Fe47 O61 1.996 . S
Fe47 O64 1.997 . S
O48 Fe47 2.002 . S
O48 C65 1.295 1_554 S
O49 Fe44 1.997 1_545 S
O49 C65 1.235 . S
O50 Fe44 2.002 . S
O50 C51 1.295 1_565 S
C51 O50 1.295 1_545 S
C51 O53 1.235 . S
C52 O57 1.287 . S
C52 O58 1.245 1_554 S
O53 Fe45 1.996 1_546 S
O53 C51 1.235 . S
C54 O60 1.287 . S
C54 O61 1.255 1_565 S
O55 Fe44 1.976 . S
O55 C62 1.287 . S
O56 Fe45 1.997 1_556 S
O56 C62 1.255 . S
O57 Fe47 1.976 1_565 S
O57 C52 1.287 . S
O58 Fe44 2.002 . S
O58 C52 1.245 1_556 S
C59 O63 1.295 . S
C59 O64 1.235 . S
O60 Fe45 1.976 . S
O60 C54 1.287 . S
O61 Fe47 1.996 . S
O61 C54 1.255 1_545 S
C62 O55 1.287 . S
C62 O56 1.255 . S
O63 Fe45 2.001 1_545 S
O63 C59 1.295 . S
O64 Fe47 1.997 . S
O64 C59 1.235 . S
C65 O48 1.295 1_556 S
C65 O49 1.235 . S
Fe66 O68 1.918 . S
Fe66 O71 1.997 . S
Fe66 O72 2.002 . S
Fe66 O77 1.976 . S
Fe66 O80 1.996 . S
Fe67 O68 1.918 . S
Fe67 O75 1.997 . S
Fe67 O78 1.996 . S
Fe67 O82 1.976 . S
Fe67 O85 2.002 . S
O68 Fe66 1.918 . S
O68 Fe67 1.918 . S
O68 Fe69 1.918 . S
Fe69 O68 1.918 . S
Fe69 O70 2.002 . S
Fe69 O79 1.976 . S
Fe69 O83 1.996 . S
Fe69 O86 1.997 . S
O70 Fe69 2.002 . S
O70 C87 1.295 1_565 S
O71 Fe66 1.997 . S
O71 C87 1.235 1_565 S
O72 Fe66 2.002 . S
O72 C73 1.295 . S
C73 O72 1.295 . S
C73 O75 1.235 . S
C74 O79 1.287 . S
C74 O80 1.255 . S
O75 Fe67 1.997 . S
O75 C73 1.235 . S
C76 O82 1.287 . S
C76 O83 1.255 . S
O77 Fe66 1.976 . S
O77 C84 1.287 . S
O78 Fe67 1.996 . S
O78 C84 1.255 . S
O79 Fe69 1.976 . S
O79 C74 1.287 . S
O80 Fe66 1.996 . S
O80 C74 1.255 . S
C81 O85 1.295 . S
C81 O86 1.235 . S
O82 Fe67 1.976 . S
O82 C76 1.287 . S
O83 Fe69 1.996 . S
O83 C76 1.255 . S
C84 O77 1.287 . S
C84 O78 1.255 . S
O85 Fe67 2.002 . S
O85 C81 1.295 . S
O86 Fe69 1.997 . S
O86 C81 1.235 . S
C87 O70 1.295 1_545 S
C87 O71 1.235 1_545 S
Fe88 O90 1.918 . S
Fe88 O93 1.997 . S
Fe88 O94 2.002 . S
Fe88 O99 1.976 . S
Fe88 O102 1.996 . S
Fe89 O90 1.918 1_545 S
Fe89 O97 1.997 . S
Fe89 O100 1.996 1_545 S
Fe89 O104 1.976 . S
Fe89 O107 2.002 . S
O90 Fe88 1.918 . S
O90 Fe89 1.918 1_565 S
O90 Fe91 1.918 . S
Fe91 O90 1.918 . S
Fe91 O92 2.002 . S
Fe91 O101 1.976 . S
Fe91 O105 1.996 . S
Fe91 O108 1.997 1_565 S
O92 Fe91 2.002 . S
O92 C109 1.295 1_455 S
O93 Fe88 1.997 . S
O93 C109 1.235 1_455 S
O94 Fe88 2.002 . S
O94 C95 1.295 1_565 S
C95 O94 1.295 1_545 S
C95 O97 1.235 . S
C96 O101 1.287 . S
C96 O102 1.255 . S
O97 Fe89 1.997 . S
O97 C95 1.235 . S
C98 O104 1.287 1_565 S
C98 O105 1.255 . S
O99 Fe88 1.976 . S
O99 C106 1.287 . S
O100 Fe89 1.996 1_565 S
O100 C106 1.255 . S
O101 Fe91 1.976 . S
O101 C96 1.287 . S
O102 Fe88 1.996 . S
O102 C96 1.255 . S
C103 O107 1.295 . S
C103 O108 1.235 . S
O104 Fe89 1.976 . S
O104 C98 1.287 1_545 S
O105 Fe91 1.996 . S
O105 C98 1.255 . S
C106 O99 1.287 . S
C106 O100 1.255 . S
O107 Fe89 2.002 . S
O107 C103 1.295 . S
O108 Fe91 1.997 1_545 S
O108 C103 1.235 . S
C109 O92 1.295 1_655 S
C109 O93 1.235 1_655 S
Fe110 O112 1.918 1_655 S
Fe110 O115 1.997 . S
Fe110 O116 2.002 . S
Fe110 O121 1.976 . S
Fe110 O124 1.996 1_655 S
Fe111 O112 1.918 . S
Fe111 O119 1.997 1_455 S
Fe111 O122 1.996 . S
Fe111 O126 1.976 . S
Fe111 O129 2.002 . S
O112 Fe110 1.918 1_455 S
O112 Fe111 1.918 . S
O112 Fe113 1.918 . S
Fe113 O112 1.918 . S
Fe113 O114 2.002 . S
Fe113 O123 1.976 . S
Fe113 O127 1.996 . S
Fe113 O130 1.997 . S
O114 Fe113 2.002 . S
O114 C131 1.295 1_455 S
O115 Fe110 1.997 . S
O115 C131 1.235 . S
O116 Fe110 2.002 . S
O116 C117 1.295 . S
C117 O116 1.295 . S
C117 O119 1.235 . S
C118 O123 1.287 . S
C118 O124 1.255 . S
O119 Fe111 1.997 1_655 S
O119 C117 1.235 . S
C120 O126 1.287 . S
C120 O127 1.255 . S
O121 Fe110 1.976 . S
O121 C128 1.287 1_655 S
O122 Fe111 1.996 . S
O122 C128 1.255 . S
O123 Fe113 1.976 . S
O123 C118 1.287 . S
O124 Fe110 1.996 1_455 S
O124 C118 1.255 . S
C125 O129 1.295 . S
C125 O130 1.235 . S
O126 Fe111 1.976 . S
O126 C120 1.287 . S
O127 Fe113 1.996 . S
O127 C120 1.255 . S
C128 O121 1.287 1_455 S
C128 O122 1.255 . S
O129 Fe111 2.002 . S
O129 C125 1.295 . S
O130 Fe113 1.997 . S
O130 C125 1.235 . S
C131 O114 1.295 1_655 S
C131 O115 1.235 . S
Fe132 O134 1.918 . S
Fe132 O137 1.997 . S
Fe132 O138 2.002 . S
Fe132 O143 1.976 . S
Fe132 O146 1.996 . S
Fe133 O134 1.918 1_565 S
Fe133 O141 1.997 . S
Fe133 O144 1.996 1_565 S
Fe133 O148 1.976 . S
Fe133 O151 2.002 . S
O134 Fe132 1.918 . S
O134 Fe133 1.918 1_545 S
O134 Fe135 1.918 . S
Fe135 O134 1.918 . S
Fe135 O136 2.002 . S
Fe135 O145 1.976 . S
Fe135 O149 1.996 . S
Fe135 O152 1.997 1_545 S
O136 Fe135 2.002 . S
O136 C153 1.295 . S
O137 Fe132 1.997 . S
O137 C153 1.235 . S
O138 Fe132 2.002 . S
O138 C139 1.295 1_545 S
C139 O138 1.295 1_565 S
C139 O141 1.235 . S
C140 O145 1.287 . S
C140 O146 1.255 . S
O141 Fe133 1.997 . S
O141 C139 1.235 . S
C142 O148 1.287 1_545 S
C142 O149 1.255 . S
O143 Fe132 1.976 . S
O143 C150 1.287 . S
O144 Fe133 1.996 1_545 S
O144 C150 1.255 . S
O145 Fe135 1.976 . S
O145 C140 1.287 . S
O146 Fe132 1.996 . S
O146 C140 1.255 . S
C147 O151 1.295 . S
C147 O152 1.235 . S
O148 Fe133 1.976 . S
O148 C142 1.287 1_565 S
O149 Fe135 1.996 . S
O149 C142 1.255 . S
C150 O143 1.287 . S
C150 O144 1.255 . S
O151 Fe133 2.002 . S
O151 C147 1.295 . S
O152 Fe135 1.997 1_565 S
O152 C147 1.235 . S
C153 O136 1.295 . S
C153 O137 1.235 . S
Fe154 O156 1.918 . S
Fe154 O159 1.997 . S
Fe154 O160 2.002 . S
Fe154 O165 1.976 1_655 S
Fe154 O168 1.996 . S
Fe155 O156 1.918 1_455 S
Fe155 O163 1.997 . S
Fe155 O166 1.996 . S
Fe155 O170 1.976 . S
Fe155 O173 2.002 1_455 S
O156 Fe154 1.918 . S
O156 Fe155 1.918 1_655 S
O156 Fe157 1.918 . S
Fe157 O156 1.918 . S
Fe157 O158 2.002 . S
Fe157 O167 1.976 . S
Fe157 O171 1.996 . S
Fe157 O174 1.997 . S
O158 Fe157 2.002 . S
O158 C175 1.295 . S
O159 Fe154 1.997 . S
O159 C175 1.235 . S
O160 Fe154 2.002 . S
O160 C161 1.295 . S
C161 O160 1.295 . S
C161 O163 1.235 1_655 S
C162 O167 1.287 1_565 S
C162 O168 1.255 1_565 S
O163 Fe155 1.997 . S
O163 C161 1.235 1_455 S
C164 O170 1.287 . S
C164 O171 1.255 1_455 S
O165 Fe154 1.976 1_455 S
O165 C172 1.287 . S
O166 Fe155 1.996 . S
O166 C172 1.255 . S
O167 Fe157 1.976 . S
O167 C162 1.287 1_545 S
O168 Fe154 1.996 . S
O168 C162 1.255 1_545 S
C169 O173 1.295 . S
C169 O174 1.235 . S
O170 Fe155 1.976 . S
O170 C164 1.287 . S
O171 Fe157 1.996 . S
O171 C164 1.255 1_655 S
C172 O165 1.287 . S
C172 O166 1.255 . S
O173 Fe155 2.002 1_655 S
O173 C169 1.295 . S
O174 Fe157 1.997 . S
O174 C169 1.235 . S
C175 O158 1.295 . S
C175 O159 1.235 . S
Fe176 O178 1.918 . S
Fe176 O181 1.997 . S
Fe176 O182 2.002 . S
Fe176 O187 1.976 . S
Fe176 O190 1.996 . S
Fe177 O178 1.918 . S
Fe177 O185 1.997 . S
Fe177 O188 1.996 . S
Fe177 O192 1.976 . S
Fe177 O195 2.002 . S
O178 Fe176 1.918 . S
O178 Fe177 1.918 . S
O178 Fe179 1.918 . S
Fe179 O178 1.918 . S
Fe179 O180 2.002 . S
Fe179 O189 1.976 . S
Fe179 O193 1.996 . S
Fe179 O196 1.997 . S
O180 Fe179 2.002 . S
O180 C197 1.295 1_655 S
O181 Fe176 1.997 . S
O181 C197 1.235 1_655 S
O182 Fe176 2.002 . S
O182 C183 1.295 . S
C183 O182 1.295 . S
C183 O185 1.235 . S
C184 O189 1.287 . S
C184 O190 1.255 . S
O185 Fe177 1.997 . S
O185 C183 1.235 . S
C186 O192 1.287 . S
C186 O193 1.255 . S
O187 Fe176 1.976 . S
O187 C194 1.287 . S
O188 Fe177 1.996 . S
O188 C194 1.255 . S
O189 Fe179 1.976 . S
O189 C184 1.287 . S
O190 Fe176 1.996 . S
O190 C184 1.255 . S
C191 O195 1.295 . S
C191 O196 1.235 . S
O192 Fe177 1.976 . S
O192 C186 1.287 . S
O193 Fe179 1.996 . S
O193 C186 1.255 . S
C194 O187 1.287 . S
C194 O188 1.255 . S
O195 Fe177 2.002 . S
O195 C191 1.295 . S
O196 Fe179 1.997 . S
O196 C191 1.235 . S
C197 O180 1.295 1_455 S
C197 O181 1.235 1_455 S
C37 C18 2.369 1_554 S
C52 C29 2.388 1_554 S
C62 C8 2.332 1_556 S
C59 C32 2.395 1_554 S
C65 C15 2.350 1_556 S
C21 C30 2.361 1_556 S
C81 C109 2.391 . S
C125 C103 2.349 . S
C117 C87 2.397 . S
C96 C118 2.340 . S
C120 C84 2.333 . S
C106 C74 2.382 . S
C175 C150 2.336 . S
C169 C184 2.370 . S
C194 C140 2.384 . S
C191 C162 2.362 . S
C197 C147 2.400 . S
C153 C172 2.344 . S
C128 C10 1.438 . S
C76 C43 1.489 . S
C54 C98 1.444 . S
C51 C142 1.446 . S
C7 C161 1.501 . S
C186 C40 1.389 . S
C73 C183 1.451 . S
C95 C139 1.446 1_545 S
C164 C131 1.401 1_455 S
