# Generated by pormake.
# Topology lon, (4)-cn, num edge types: 1
# Building blocks:
#     Node 0, Type 0, BuildingBlock: NAHDIM_clean_sbu_0, # of connection points: 4
#     Node 1, Type 0, BuildingBlock: NAHDIM_clean_sbu_0, # of connection points: 4
#     Node 2, Type 0, BuildingBlock: NAHDIM_clean_sbu_0, # of connection points: 4
#     Node 3, Type 0, BuildingBlock: NAHDIM_clean_sbu_0, # of connection points: 4
#     Edge 4, Type (0, 0), BuildingBlock: KIFKEQ_clean_linker_1, # of connection points: 2
#     Edge 5, Type (0, 0), BuildingBlock: KIFKEQ_clean_linker_1, # of connection points: 2
#     Edge 6, Type (0, 0), BuildingBlock: KIFKEQ_clean_linker_1, # of connection points: 2
#     Edge 7, Type (0, 0), BuildingBlock: KIFKEQ_clean_linker_1, # of connection points: 2
#     Edge 8, Type (0, 0), BuildingBlock: KIFKEQ_clean_linker_1, # of connection points: 2
#     Edge 9, Type (0, 0), BuildingBlock: KIFKEQ_clean_linker_1, # of connection points: 2
#     Edge 10, Type (0, 0), BuildingBlock: KIFKEQ_clean_linker_1, # of connection points: 2
#     Edge 11, Type (0, 0), BuildingBlock: KIFKEQ_clean_linker_1, # of connection points: 2
# Relax obj value: 0.020
# Max RMSD: 0.061
# Mean RMSD: 0.060
data_MOF--net-lon--node1-NAHDIM_clean_sbu_0--edge1-KIFKEQ_clean_linker_1
_symmetry_space_group_name_H-M    P1
_symmetry_Int_Tables_number       1
_symmetry_cell_setting            triclinic
loop_
_symmetry_equiv_pos_as_xyz
'x, y, z'
_cell_length_a     25.265303
_cell_length_b     25.112706
_cell_length_c     41.79761
_cell_angle_alpha  88.551489
_cell_angle_beta   89.932065
_cell_angle_gamma 120.16508
loop_
_atom_site_label
_atom_site_type_symbol
_atom_site_fract_x
_atom_site_fract_y
_atom_site_fract_z
_atom_type_partial_charge
C0 C 0.39843 0.61653 0.02515 0.0
O1 O 0.37409 0.63884 0.00498 0.0
O2 O 0.38209 0.74469 0.05354 0.0
Zn3 Zn 0.34096 0.65623 0.06979 0.0
O4 O 0.25592 0.60654 0.05214 0.0
C5 C 0.33626 0.69683 0.13318 0.0
O6 O 0.33737 0.7428 0.11687 0.0
O7 O 0.39063 0.61887 0.05502 0.0
C8 C 0.21153 0.61333 0.06091 0.0
O9 O 0.22082 0.65446 0.08231 0.0
C10 C 0.36275 0.76303 0.0301 0.0
O11 O 0.31361 0.72297 0.01509 0.0
O12 O 0.33715 0.65388 0.11813 0.0
C13 C 0.79782 0.414 0.53325 0.0
O14 O 0.75691 0.41921 0.51622 0.0
O15 O 0.64761 0.37465 0.55778 0.0
Zn16 Zn 0.69141 0.32916 0.57141 0.0
O17 O 0.65469 0.24655 0.55075 0.0
C18 C 0.6426 0.31852 0.63517 0.0
O19 O 0.60065 0.32417 0.61941 0.0
O20 O 0.78046 0.37857 0.55802 0.0
C21 C 0.60066 0.20277 0.55691 0.0
O22 O 0.5665 0.21099 0.57766 0.0
C23 C 0.61449 0.36212 0.53312 0.0
O24 O 0.60847 0.3179 0.51465 0.0
O25 O 0.68581 0.31833 0.61962 0.0
C26 C 0.40101 0.60167 0.48018 0.0
O27 O 0.37373 0.61527 0.50268 0.0
O28 O 0.26944 0.61807 0.4548 0.0
Zn29 Zn 0.3573 0.66541 0.439 0.0
O30 O 0.39955 0.74866 0.45935 0.0
C31 C 0.32646 0.68922 0.375 0.0
O32 O 0.2896 0.7026 0.39052 0.0
O33 O 0.39992 0.61865 0.45141 0.0
C34 C 0.43314 0.79928 0.44411 0.0
O35 O 0.44308 0.79866 0.4133 0.0
C36 C 0.24182 0.64657 0.46256 0.0
O37 O 0.2712 0.70704 0.46021 0.0
O38 O 0.35959 0.67334 0.39074 0.0
C39 C 0.79331 0.35658 0.96522 0.0
O40 O 0.77169 0.29799 0.9597 0.0
O41 O 0.63427 0.24361 0.95725 0.0
Zn42 Zn 0.67563 0.33225 0.94112 0.0
O43 O 0.62721 0.37119 0.95563 0.0
C44 C 0.63125 0.30794 0.877 0.0
O45 O 0.57845 0.27994 0.89248 0.0
O46 O 0.7605 0.3806 0.95893 0.0
C47 C 0.63649 0.42206 0.9434 0.0
O48 O 0.67824 0.44941 0.92063 0.0
C49 C 0.57714 0.21378 0.96363 0.0
O50 O 0.54518 0.24165 0.96022 0.0
O51 O 0.68033 0.33458 0.89287 0.0
H52 H 0.33252 0.78056 0.17222 0.0
H53 H 0.33592 0.61014 0.1744 0.0
H54 H 0.33089 0.77935 0.23052 0.0
H55 H 0.33324 0.60847 0.23277 0.0
H56 H 0.39602 0.66241 0.33567 0.0
H57 H 0.39843 0.66457 0.27734 0.0
H58 H 0.26317 0.72169 0.27573 0.0
H59 H 0.26145 0.72056 0.33407 0.0
C60 C 0.33268 0.74269 0.18512 0.0
C61 C 0.33442 0.69547 0.16863 0.0
C62 C 0.3314 0.74185 0.21856 0.0
C63 C 0.33193 0.69383 0.2363 0.0
C64 C 0.33358 0.64654 0.21981 0.0
C65 C 0.33475 0.64731 0.18635 0.0
C66 C 0.36686 0.67557 0.32289 0.0
C67 C 0.32854 0.69133 0.33955 0.0
C68 C 0.36798 0.67641 0.28945 0.0
C69 C 0.33089 0.69315 0.27188 0.0
C70 C 0.29282 0.70925 0.28854 0.0
C71 C 0.29162 0.70831 0.322 0.0
H72 H 0.55966 0.32338 0.67508 0.0
H73 H 0.721 0.30532 0.67549 0.0
H74 H 0.55768 0.32049 0.7333 0.0
H75 H 0.71815 0.30102 0.73391 0.0
H76 H 0.73202 0.36561 0.83722 0.0
H77 H 0.73464 0.36691 0.77885 0.0
H78 H 0.53776 0.2508 0.77839 0.0
H79 H 0.53499 0.25065 0.8366 0.0
C80 C 0.59448 0.31832 0.68758 0.0
C81 C 0.64052 0.31463 0.67061 0.0
C82 C 0.59314 0.31633 0.72101 0.0
C83 C 0.63771 0.31046 0.73831 0.0
C84 C 0.68358 0.30637 0.72133 0.0
C85 C 0.68498 0.30844 0.68784 0.0
C86 C 0.68931 0.34036 0.82466 0.0
C87 C 0.63328 0.30821 0.84158 0.0
C88 C 0.69084 0.34078 0.79119 0.0
C89 C 0.6364 0.30901 0.77392 0.0
C90 C 0.58047 0.27651 0.79091 0.0
C91 C 0.57892 0.27618 0.82433 0.0
H92 H 0.45166 0.5629 0.06018 0.0
H93 H 0.42533 0.60685 0.96298 0.0
H94 H 0.50957 0.51652 0.04028 0.0
H95 H 0.48242 0.55964 0.94313 0.0
H96 H 0.64377 0.52946 0.92207 0.0
H97 H 0.58696 0.57702 0.94199 0.0
H98 H 0.4923 0.42617 0.01076 0.0
H99 H 0.54964 0.37902 0.99122 0.0
C100 C 0.4581 0.56258 0.03457 0.0
C101 C 0.43385 0.58858 0.01317 0.0
C102 C 0.49099 0.53567 0.02317 0.0
C103 C 0.50051 0.53432 0.99012 0.0
C104 C 0.47649 0.56057 0.96874 0.0
C105 C 0.44347 0.58733 0.98013 0.0
C106 C 0.61083 0.50641 0.94143 0.0
C107 C 0.60133 0.4505 0.95508 0.0
C108 C 0.57805 0.53353 0.95274 0.0
C109 C 0.53518 0.50541 0.97799 0.0
C110 C 0.52559 0.44941 0.99157 0.0
C111 C 0.55822 0.42222 0.98022 0.0
H112 H 0.17092 0.52295 0.47644 0.0
H113 H 0.16621 0.6927 0.47347 0.0
H114 H 0.06364 0.46673 0.49391 0.0
H115 H 0.05928 0.6365 0.49106 0.0
H116 H 0.85156 0.50263 0.48583 0.0
H117 H 0.95903 0.55841 0.4691 0.0
H118 H 0.99963 0.45903 0.54155 0.0
H119 H 0.89199 0.40287 0.55827 0.0
C120 C 0.14708 0.54827 0.47956 0.0
C121 C 0.17707 0.61228 0.47352 0.0
C122 C 0.08577 0.51612 0.48973 0.0
C123 C 0.05308 0.54722 0.4938 0.0
C124 C 0.08311 0.61119 0.48779 0.0
C125 C 0.14448 0.6434 0.47789 0.0
C126 C 0.88336 0.49265 0.49823 0.0
C127 C 0.86321 0.44832 0.5234 0.0
C128 C 0.94497 0.52485 0.48874 0.0
C129 C 0.98772 0.5131 0.50403 0.0
C130 C 0.9676 0.46864 0.52913 0.0
C131 C 0.90603 0.43677 0.53881 0.0
H132 H 0.62987 0.14329 0.97607 0.0
H133 H 0.45492 0.13522 0.97417 0.0
H134 H 0.57851 0.03414 0.99179 0.0
H135 H 0.40389 0.02647 0.99019 0.0
H136 H 0.32969 0.81893 0.98369 0.0
H137 H 0.38235 0.92782 0.96762 0.0
H138 H 0.52097 0.96546 0.038 0.0
H139 H 0.46878 0.8565 0.05391 0.0
C140 C 0.58053 0.11833 0.9791 0.0
C141 C 0.54649 0.14796 0.97383 0.0
C142 C 0.55116 0.05589 0.98825 0.0
C143 C 0.48714 0.02168 0.99215 0.0
C144 C 0.45319 0.05138 0.98697 0.0
C145 C 0.48253 0.11383 0.97799 0.0
C146 C 0.37145 0.85037 0.99571 0.0
C147 C 0.39499 0.829 0.0201 0.0
C148 C 0.40143 0.91282 0.98661 0.0
C149 C 0.45574 0.95524 0.00159 0.0
C150 C 0.47955 0.93381 0.0258 0.0
C151 C 0.44943 0.87141 0.03501 0.0
H152 H 0.61663 0.45531 0.56662 0.0
H153 H 0.5412 0.34816 0.48215 0.0
H154 H 0.56536 0.51325 0.55381 0.0
H155 H 0.48902 0.40541 0.46969 0.0
H156 H 0.46088 0.56581 0.43919 0.0
H157 H 0.51255 0.50834 0.45209 0.0
H158 H 0.46283 0.49964 0.5518 0.0
H159 H 0.41201 0.55815 0.53902 0.0
C160 C 0.58897 0.44396 0.54536 0.0
C161 C 0.58312 0.39715 0.52537 0.0
C162 C 0.55926 0.47695 0.53814 0.0
C163 C 0.52306 0.46395 0.51074 0.0
C164 C 0.51719 0.41711 0.49076 0.0
C165 C 0.54686 0.38406 0.498 0.0
C166 C 0.46097 0.55171 0.46389 0.0
C167 C 0.43232 0.56663 0.48808 0.0
C168 C 0.49029 0.51841 0.47124 0.0
C169 C 0.49174 0.49929 0.50296 0.0
C170 C 0.46317 0.51431 0.52718 0.0
C171 C 0.43376 0.54757 0.51982 0.0
H172 H 0.10669 0.61548 0.07449 0.0
H173 H 0.17765 0.52581 0.01555 0.0
H174 H 0.00577 0.55302 0.05156 0.0
H175 H 0.07704 0.46426 0.99221 0.0
H176 H 0.87407 0.31928 0.98309 0.0
H177 H 0.9747 0.38099 0.0065 0.0
H178 H 0.9529 0.54095 0.00138 0.0
H179 H 0.85186 0.47908 0.97859 0.0
C180 C 0.10085 0.58261 0.05657 0.0
C181 C 0.15025 0.57562 0.04689 0.0
C182 C 0.04305 0.54704 0.04329 0.0
C183 C 0.03331 0.50365 0.02002 0.0
C184 C 0.08275 0.49667 0.01037 0.0
C185 C 0.14054 0.53224 0.02364 0.0
C186 C 0.89073 0.36761 0.98694 0.0
C187 C 0.85486 0.39419 0.97899 0.0
C188 C 0.94858 0.40307 1.00021 0.0
C189 C 0.97187 0.46592 0.00583 0.0
C190 C 0.936 0.49249 0.99779 0.0
C191 C 0.87819 0.45706 0.98453 0.0
H192 H 0.65922 0.1715 0.51254 0.0
H193 H 0.48736 0.09987 0.56417 0.0
H194 H 0.61967 0.07401 0.4857 0.0
H195 H 0.44743 0.00272 0.53683 0.0
H196 H 0.42009 0.81648 0.50735 0.0
H197 H 0.46122 0.91367 0.53467 0.0
H198 H 0.54466 0.01315 0.44592 0.0
H199 H 0.50452 0.91589 0.41868 0.0
C200 C 0.61292 0.13504 0.51811 0.0
C201 C 0.57647 0.1435 0.54055 0.0
C202 C 0.59013 0.07924 0.50256 0.0
C203 C 0.53037 0.03055 0.50908 0.0
C204 C 0.49394 0.03901 0.53155 0.0
C205 C 0.51672 0.09485 0.5471 0.0
C206 C 0.44737 0.85906 0.49365 0.0
C207 C 0.45906 0.85838 0.46081 0.0
C208 C 0.4706 0.91481 0.50929 0.0
C209 C 0.50611 0.97122 0.49248 0.0
C210 C 0.51809 0.97051 0.45967 0.0
C211 C 0.49482 0.91473 0.44401 0.0
loop_
_geom_bond_atom_site_label_1
_geom_bond_atom_site_label_2
_geom_bond_distance
_geom_bond_site_symmetry_2
_ccdc_geom_bond_type
C0 O1 1.160 . S
C0 O7 1.185 . S
O1 C0 1.160 . S
O2 Zn3 1.899 . S
O2 C10 1.284 . S
Zn3 O2 1.899 . S
Zn3 O4 2.032 . S
Zn3 O7 2.086 . S
Zn3 O12 1.977 . S
O4 Zn3 2.032 . S
O4 C8 1.278 . S
C5 O6 1.203 . S
C5 O12 1.267 . S
O6 C5 1.203 . S
O7 C0 1.185 . S
O7 Zn3 2.086 . S
C8 O4 1.278 . S
C8 O9 1.211 . S
O9 C8 1.211 . S
C10 O2 1.284 . S
C10 O11 1.273 . S
O11 C10 1.273 . S
O12 Zn3 1.977 . S
O12 C5 1.267 . S
C13 O14 1.160 . S
C13 O20 1.185 . S
O14 C13 1.160 . S
O15 Zn16 1.899 . S
O15 C23 1.284 . S
Zn16 O15 1.899 . S
Zn16 O17 2.032 . S
Zn16 O20 2.086 . S
Zn16 O25 1.977 . S
O17 Zn16 2.032 . S
O17 C21 1.278 . S
C18 O19 1.203 . S
C18 O25 1.267 . S
O19 C18 1.203 . S
O20 C13 1.185 . S
O20 Zn16 2.086 . S
C21 O17 1.278 . S
C21 O22 1.211 . S
O22 C21 1.211 . S
C23 O15 1.284 . S
C23 O24 1.273 . S
O24 C23 1.273 . S
O25 Zn16 1.977 . S
O25 C18 1.267 . S
C26 O27 1.160 . S
C26 O33 1.185 . S
O27 C26 1.160 . S
O28 Zn29 1.899 . S
O28 C36 1.284 . S
Zn29 O28 1.899 . S
Zn29 O30 2.032 . S
Zn29 O33 2.086 . S
Zn29 O38 1.977 . S
O30 Zn29 2.032 . S
O30 C34 1.278 . S
C31 O32 1.203 . S
C31 O38 1.267 . S
O32 C31 1.203 . S
O33 C26 1.185 . S
O33 Zn29 2.086 . S
C34 O30 1.278 . S
C34 O35 1.211 . S
O35 C34 1.211 . S
C36 O28 1.284 . S
C36 O37 1.273 . S
O37 C36 1.273 . S
O38 Zn29 1.977 . S
O38 C31 1.267 . S
C39 O40 1.160 . S
C39 O46 1.185 . S
O40 C39 1.160 . S
O41 Zn42 1.899 . S
O41 C49 1.284 . S
Zn42 O41 1.899 . S
Zn42 O43 2.032 . S
Zn42 O46 2.086 . S
Zn42 O51 1.977 . S
O43 Zn42 2.032 . S
O43 C47 1.278 . S
C44 O45 1.203 . S
C44 O51 1.267 . S
O45 C44 1.203 . S
O46 C39 1.185 . S
O46 Zn42 2.086 . S
C47 O43 1.278 . S
C47 O48 1.211 . S
O48 C47 1.211 . S
C49 O41 1.284 . S
C49 O50 1.273 . S
O50 C49 1.273 . S
O51 Zn42 1.977 . S
O51 C44 1.267 . S
H52 C60 0.950 . S
H53 C65 0.950 . S
H54 C62 0.950 . S
H55 C64 0.950 . S
H56 C66 0.950 . S
H57 C68 0.950 . S
H58 C70 0.950 . S
H59 C71 0.950 . S
C60 H52 0.950 . S
C60 C61 1.386 . S
C60 C62 1.391 . S
C61 C60 1.386 . S
C61 C65 1.393 . S
C62 H54 0.950 . S
C62 C60 1.391 . S
C62 C63 1.400 . S
C63 C62 1.400 . S
C63 C64 1.398 . S
C63 C69 1.491 . S
C64 H55 0.950 . S
C64 C63 1.398 . S
C64 C65 1.391 . S
C65 H53 0.950 . S
C65 C61 1.393 . S
C65 C64 1.391 . S
C66 H56 0.950 . S
C66 C67 1.386 . S
C66 C68 1.391 . S
C67 C66 1.386 . S
C67 C71 1.393 . S
C68 H57 0.950 . S
C68 C66 1.391 . S
C68 C69 1.400 . S
C69 C63 1.491 . S
C69 C68 1.400 . S
C69 C70 1.398 . S
C70 H58 0.950 . S
C70 C69 1.398 . S
C70 C71 1.391 . S
C71 H59 0.950 . S
C71 C67 1.393 . S
C71 C70 1.391 . S
H72 C80 0.950 . S
H73 C85 0.950 . S
H74 C82 0.950 . S
H75 C84 0.950 . S
H76 C86 0.950 . S
H77 C88 0.950 . S
H78 C90 0.950 . S
H79 C91 0.950 . S
C80 H72 0.950 . S
C80 C81 1.386 . S
C80 C82 1.391 . S
C81 C80 1.386 . S
C81 C85 1.393 . S
C82 H74 0.950 . S
C82 C80 1.391 . S
C82 C83 1.400 . S
C83 C82 1.400 . S
C83 C84 1.398 . S
C83 C89 1.491 . S
C84 H75 0.950 . S
C84 C83 1.398 . S
C84 C85 1.391 . S
C85 H73 0.950 . S
C85 C81 1.393 . S
C85 C84 1.391 . S
C86 H76 0.950 . S
C86 C87 1.386 . S
C86 C88 1.391 . S
C87 C86 1.386 . S
C87 C91 1.393 . S
C88 H77 0.950 . S
C88 C86 1.391 . S
C88 C89 1.400 . S
C89 C83 1.491 . S
C89 C88 1.400 . S
C89 C90 1.398 . S
C90 H78 0.950 . S
C90 C89 1.398 . S
C90 C91 1.391 . S
C91 H79 0.950 . S
C91 C87 1.393 . S
C91 C90 1.391 . S
H92 C100 0.950 . S
H93 C105 0.950 . S
H94 C102 0.950 . S
H95 C104 0.950 . S
H96 C106 0.950 . S
H97 C108 0.950 . S
H98 C110 0.950 . S
H99 C111 0.950 1_554 S
C100 H92 0.950 . S
C100 C101 1.386 . S
C100 C102 1.391 . S
C101 C100 1.386 . S
C101 C105 1.393 1_554 S
C102 H94 0.950 . S
C102 C100 1.391 . S
C102 C103 1.395 1_554 S
C103 C102 1.395 1_556 S
C103 C104 1.402 . S
C103 C109 1.493 . S
C104 H95 0.950 . S
C104 C103 1.402 . S
C104 C105 1.391 . S
C105 H93 0.950 . S
C105 C101 1.393 1_556 S
C105 C104 1.391 . S
C106 H96 0.950 . S
C106 C107 1.386 . S
C106 C108 1.391 . S
C107 C106 1.386 . S
C107 C111 1.393 . S
C108 H97 0.950 . S
C108 C106 1.391 . S
C108 C109 1.400 . S
C109 C103 1.493 . S
C109 C108 1.400 . S
C109 C110 1.398 1_556 S
C110 H98 0.950 . S
C110 C109 1.398 1_554 S
C110 C111 1.391 1_554 S
C111 H99 0.950 1_556 S
C111 C107 1.393 . S
C111 C110 1.391 1_556 S
H112 C120 0.950 . S
H113 C125 0.950 . S
H114 C122 0.950 . S
H115 C124 0.950 . S
H116 C126 0.950 . S
H117 C128 0.950 . S
H118 C130 0.950 . S
H119 C131 0.950 . S
C120 H112 0.950 . S
C120 C121 1.386 . S
C120 C122 1.391 . S
C121 C120 1.386 . S
C121 C125 1.393 . S
C122 H114 0.950 . S
C122 C120 1.391 . S
C122 C123 1.400 . S
C123 C122 1.400 . S
C123 C124 1.398 . S
C123 C129 1.491 1_455 S
C124 H115 0.950 . S
C124 C123 1.398 . S
C124 C125 1.391 . S
C125 H113 0.950 . S
C125 C121 1.393 . S
C125 C124 1.391 . S
C126 H116 0.950 . S
C126 C127 1.386 . S
C126 C128 1.391 . S
C127 C126 1.386 . S
C127 C131 1.393 . S
C128 H117 0.950 . S
C128 C126 1.391 . S
C128 C129 1.400 . S
C129 C123 1.491 1_655 S
C129 C128 1.400 . S
C129 C130 1.398 . S
C130 H118 0.950 . S
C130 C129 1.398 . S
C130 C131 1.391 . S
C131 H119 0.950 . S
C131 C127 1.393 . S
C131 C130 1.391 . S
H132 C140 0.950 1_554 S
H133 C145 0.950 . S
H134 C142 0.950 . S
H135 C144 0.950 . S
H136 C146 0.950 1_556 S
H137 C148 0.950 . S
H138 C150 0.950 . S
H139 C151 0.950 . S
C140 H132 0.950 1_556 S
C140 C141 1.386 . S
C140 C142 1.391 1_556 S
C141 C140 1.386 . S
C141 C145 1.393 . S
C142 H134 0.950 . S
C142 C140 1.391 1_554 S
C142 C143 1.400 1_554 S
C143 C142 1.400 1_556 S
C143 C144 1.398 . S
C143 C149 1.491 1_546 S
C144 H135 0.950 . S
C144 C143 1.398 . S
C144 C145 1.391 . S
C145 H133 0.950 . S
C145 C141 1.393 . S
C145 C144 1.391 . S
C146 H136 0.950 1_554 S
C146 C147 1.386 . S
C146 C148 1.391 1_554 S
C147 C146 1.386 . S
C147 C151 1.393 . S
C148 H137 0.950 . S
C148 C146 1.391 1_556 S
C148 C149 1.400 1_556 S
C149 C143 1.491 1_564 S
C149 C148 1.400 1_554 S
C149 C150 1.398 . S
C150 H138 0.950 . S
C150 C149 1.398 . S
C150 C151 1.391 . S
C151 H139 0.950 . S
C151 C147 1.393 . S
C151 C150 1.391 . S
H152 C160 0.950 . S
H153 C165 0.950 . S
H154 C162 0.950 . S
H155 C164 0.950 . S
H156 C166 0.950 . S
H157 C168 0.950 . S
H158 C170 0.950 . S
H159 C171 0.950 . S
C160 H152 0.950 . S
C160 C161 1.386 . S
C160 C162 1.391 . S
C161 C160 1.386 . S
C161 C165 1.393 . S
C162 H154 0.950 . S
C162 C160 1.391 . S
C162 C163 1.400 . S
C163 C162 1.400 . S
C163 C164 1.398 . S
C163 C169 1.491 . S
C164 H155 0.950 . S
C164 C163 1.398 . S
C164 C165 1.391 . S
C165 H153 0.950 . S
C165 C161 1.393 . S
C165 C164 1.391 . S
C166 H156 0.950 . S
C166 C167 1.386 . S
C166 C168 1.391 . S
C167 C166 1.386 . S
C167 C171 1.393 . S
C168 H157 0.950 . S
C168 C166 1.391 . S
C168 C169 1.400 . S
C169 C163 1.491 . S
C169 C168 1.400 . S
C169 C170 1.398 . S
C170 H158 0.950 . S
C170 C169 1.398 . S
C170 C171 1.391 . S
C171 H159 0.950 . S
C171 C167 1.393 . S
C171 C170 1.391 . S
H172 C180 0.950 . S
H173 C185 0.950 . S
H174 C182 0.950 1_556 S
H175 C184 0.950 . S
H176 C186 0.950 . S
H177 C188 0.950 . S
H178 C190 0.950 . S
H179 C191 0.950 . S
C180 H172 0.950 . S
C180 C181 1.386 . S
C180 C182 1.391 . S
C181 C180 1.386 . S
C181 C185 1.393 . S
C182 H174 0.950 1_554 S
C182 C180 1.391 . S
C182 C183 1.400 . S
C183 C182 1.400 . S
C183 C184 1.398 . S
C183 C189 1.495 1_455 S
C184 H175 0.950 . S
C184 C183 1.398 . S
C184 C185 1.391 . S
C185 H173 0.950 . S
C185 C181 1.393 . S
C185 C184 1.391 . S
C186 H176 0.950 . S
C186 C187 1.386 . S
C186 C188 1.391 1_556 S
C187 C186 1.386 . S
C187 C191 1.393 . S
C188 H177 0.950 . S
C188 C186 1.391 1_554 S
C188 C189 1.401 . S
C189 C183 1.495 1_655 S
C189 C188 1.401 . S
C189 C190 1.394 1_554 S
C190 H178 0.950 . S
C190 C189 1.394 1_556 S
C190 C191 1.391 . S
C191 H179 0.950 . S
C191 C187 1.393 . S
C191 C190 1.391 . S
H192 C200 0.950 . S
H193 C205 0.950 . S
H194 C202 0.950 . S
H195 C204 0.950 . S
H196 C206 0.950 . S
H197 C208 0.950 . S
H198 C210 0.950 . S
H199 C211 0.950 . S
C200 H192 0.950 . S
C200 C201 1.386 . S
C200 C202 1.391 . S
C201 C200 1.386 . S
C201 C205 1.393 . S
C202 H194 0.950 . S
C202 C200 1.391 . S
C202 C203 1.400 . S
C203 C202 1.400 . S
C203 C204 1.398 . S
C203 C209 1.491 1_545 S
C204 H195 0.950 . S
C204 C203 1.398 . S
C204 C205 1.391 . S
C205 H193 0.950 . S
C205 C201 1.393 . S
C205 C204 1.391 . S
C206 H196 0.950 . S
C206 C207 1.386 . S
C206 C208 1.391 . S
C207 C206 1.386 . S
C207 C211 1.393 . S
C208 H197 0.950 . S
C208 C206 1.391 . S
C208 C209 1.400 . S
C209 C203 1.491 1_565 S
C209 C208 1.400 . S
C209 C210 1.398 . S
C210 H198 0.950 . S
C210 C209 1.398 . S
C210 C211 1.391 . S
C211 H199 0.950 . S
C211 C207 1.393 . S
C211 C210 1.391 . S
C61 C5 1.505 . S
C67 C31 1.497 . S
C81 C18 1.501 . S
C87 C44 1.503 . S
C101 C0 1.523 . S
C107 C47 1.527 . S
C121 C36 1.449 . S
C127 C13 1.431 . S
C141 C49 1.393 . S
C147 C10 1.402 . S
C161 C23 1.458 . S
C167 C26 1.421 . S
C181 C8 1.528 . S
C187 C39 1.520 . S
C201 C21 1.562 . S
C207 C34 1.557 . S
