# Generated by pormake.
# Topology umw, (4)-cn, num edge types: 1
# Building blocks:
#     Node 0, Type 0, BuildingBlock: QUQFOY_clean_sbu_1, # of connection points: 4
#     Node 1, Type 0, BuildingBlock: QUQFOY_clean_sbu_1, # of connection points: 4
#     Node 2, Type 0, BuildingBlock: QUQFOY_clean_sbu_1, # of connection points: 4
#     Node 3, Type 0, BuildingBlock: QUQFOY_clean_sbu_1, # of connection points: 4
#     Node 4, Type 0, BuildingBlock: QUQFOY_clean_sbu_1, # of connection points: 4
#     Node 5, Type 0, BuildingBlock: QUQFOY_clean_sbu_1, # of connection points: 4
#     Node 6, Type 0, BuildingBlock: QUQFOY_clean_sbu_1, # of connection points: 4
#     Node 7, Type 0, BuildingBlock: QUQFOY_clean_sbu_1, # of connection points: 4
#     Edge 8, Type (0, 0), None
#     Edge 9, Type (0, 0), None
#     Edge 10, Type (0, 0), None
#     Edge 11, Type (0, 0), None
#     Edge 12, Type (0, 0), None
#     Edge 13, Type (0, 0), None
#     Edge 14, Type (0, 0), None
#     Edge 15, Type (0, 0), None
#     Edge 16, Type (0, 0), None
#     Edge 17, Type (0, 0), None
#     Edge 18, Type (0, 0), None
#     Edge 19, Type (0, 0), None
#     Edge 20, Type (0, 0), None
#     Edge 21, Type (0, 0), None
#     Edge 22, Type (0, 0), None
#     Edge 23, Type (0, 0), None
# Relax obj value: 0.042
# Max RMSD: 0.089
# Mean RMSD: 0.088
data_MOF--net-umw--node1-QUQFOY_clean_sbu_1--edge1-none
_symmetry_space_group_name_H-M    P1
_symmetry_Int_Tables_number       1
_symmetry_cell_setting            triclinic
loop_
_symmetry_equiv_pos_as_xyz
'x, y, z'
_cell_length_a     21.18123
_cell_length_b     21.183357
_cell_length_c     12.575725
_cell_angle_alpha  89.999479
_cell_angle_beta   89.997929
_cell_angle_gamma 90.000039
loop_
_atom_site_label
_atom_site_type_symbol
_atom_site_fract_x
_atom_site_fract_y
_atom_site_fract_z
_atom_type_partial_charge
O0 O 0.40283 0.14916 0.58613 0.0
Cd1 Cd 0.33383 0.13272 0.47418 0.0
Cd2 Cd 0.44261 0.13829 0.35044 0.0
O3 O 0.48196 0.17829 0.48297 0.0
O4 O 0.25519 0.15467 0.55344 0.0
O5 O 0.28894 0.20638 0.41054 0.0
C6 C 0.24892 0.2008 0.48753 0.0
C7 C 0.47185 0.16744 0.17802 0.0
C8 C 0.45829 0.17085 0.57479 0.0
C9 C 0.37553 0.0133 0.37852 0.0
O10 O 0.42683 0.04272 0.36173 0.0
O11 O 0.32679 0.04211 0.41215 0.0
O12 O 0.51221 0.14393 0.24329 0.0
O13 O 0.4155 0.17853 0.21238 0.0
O14 O 0.80886 0.40285 0.83614 0.0
Cd15 Cd 0.82531 0.33386 0.72419 0.0
Cd16 Cd 0.81973 0.44263 0.60045 0.0
O17 O 0.77972 0.48198 0.73298 0.0
O18 O 0.80337 0.25523 0.80345 0.0
O19 O 0.75165 0.28895 0.66056 0.0
C20 C 0.75725 0.24894 0.73755 0.0
C21 C 0.79058 0.47186 0.42803 0.0
C22 C 0.78716 0.45831 0.8248 0.0
C23 C 0.94474 0.37557 0.62852 0.0
O24 O 0.91532 0.42686 0.61173 0.0
O25 O 0.91593 0.32684 0.66215 0.0
O26 O 0.81408 0.51223 0.49331 0.0
O27 O 0.77949 0.41553 0.46239 0.0
O28 O 0.55519 0.8089 0.08613 0.0
Cd29 Cd 0.62419 0.82534 0.97417 0.0
Cd30 Cd 0.51541 0.81977 0.85044 0.0
O31 O 0.47606 0.77976 0.98297 0.0
O32 O 0.70282 0.80339 0.05343 0.0
O33 O 0.66909 0.75168 0.91054 0.0
C34 C 0.7091 0.75727 0.98753 0.0
C35 C 0.48617 0.79062 0.67802 0.0
C36 C 0.49972 0.78721 0.07479 0.0
C37 C 0.58249 0.94476 0.87851 0.0
O38 O 0.53119 0.91534 0.86172 0.0
O39 O 0.63123 0.91595 0.91214 0.0
O40 O 0.44581 0.81412 0.7433 0.0
O41 O 0.54251 0.77953 0.71238 0.0
O42 O 0.14916 0.55521 0.33612 0.0
Cd43 Cd 0.13271 0.6242 0.22417 0.0
Cd44 Cd 0.13828 0.51543 0.10043 0.0
O45 O 0.1783 0.47608 0.23296 0.0
O46 O 0.15464 0.70283 0.30345 0.0
O47 O 0.20637 0.66912 0.16055 0.0
C48 C 0.20076 0.70912 0.23754 0.0
C49 C 0.16744 0.4862 0.92801 0.0
C50 C 0.17085 0.49975 0.32477 0.0
C51 C 0.01327 0.58249 0.12851 0.0
O52 O 0.0427 0.53121 0.11172 0.0
O53 O 0.04209 0.63123 0.16214 0.0
O54 O 0.14394 0.44584 0.99329 0.0
O55 O 0.17852 0.54254 0.96237 0.0
O56 O 0.40282 0.80888 0.15603 0.0
Cd57 Cd 0.33383 0.82533 0.26799 0.0
Cd58 Cd 0.44263 0.81977 0.39173 0.0
O59 O 0.48198 0.77977 0.25919 0.0
O60 O 0.25519 0.8034 0.18872 0.0
O61 O 0.28892 0.75167 0.33162 0.0
C62 C 0.24891 0.75727 0.25462 0.0
C63 C 0.47186 0.79063 0.56414 0.0
C64 C 0.45829 0.78719 0.16739 0.0
C65 C 0.37553 0.94476 0.36366 0.0
O66 O 0.42683 0.91534 0.38045 0.0
O67 O 0.32679 0.91594 0.33002 0.0
O68 O 0.51223 0.81413 0.49887 0.0
O69 O 0.41552 0.77952 0.52978 0.0
O70 O 0.14918 0.40286 0.40602 0.0
Cd71 Cd 0.13273 0.33387 0.51797 0.0
Cd72 Cd 0.13828 0.44266 0.64172 0.0
O73 O 0.17829 0.48201 0.50918 0.0
O74 O 0.15465 0.25524 0.4387 0.0
O75 O 0.20639 0.28895 0.5816 0.0
C76 C 0.20078 0.24895 0.5046 0.0
C77 C 0.16743 0.47189 0.81412 0.0
C78 C 0.17088 0.45832 0.41737 0.0
C79 C 0.01329 0.37558 0.61365 0.0
O80 O 0.04271 0.42687 0.63044 0.0
O81 O 0.04211 0.32684 0.58001 0.0
O82 O 0.14393 0.51226 0.74886 0.0
O83 O 0.17854 0.41556 0.77976 0.0
O84 O 0.55519 0.14918 0.65602 0.0
Cd85 Cd 0.62419 0.13273 0.76798 0.0
Cd86 Cd 0.51539 0.13829 0.89172 0.0
O87 O 0.47604 0.17829 0.75919 0.0
O88 O 0.70283 0.15467 0.68872 0.0
O89 O 0.66909 0.20639 0.83161 0.0
C90 C 0.7091 0.2008 0.75462 0.0
C91 C 0.48616 0.16743 0.06413 0.0
C92 C 0.49973 0.17087 0.66738 0.0
C93 C 0.58248 0.0133 0.86365 0.0
O94 O 0.53118 0.04272 0.88044 0.0
O95 O 0.63122 0.04212 0.83001 0.0
O96 O 0.44578 0.14393 0.99887 0.0
O97 O 0.5425 0.17853 1.02977 0.0
O98 O 0.80883 0.5552 0.90604 0.0
Cd99 Cd 0.82529 0.62419 1.01799 0.0
Cd100 Cd 0.81973 0.5154 0.14174 0.0
O101 O 0.77972 0.47605 1.0092 0.0
O102 O 0.80337 0.70282 0.9387 0.0
O103 O 0.75163 0.66911 0.08161 0.0
C104 C 0.75724 0.70912 1.00461 0.0
C105 C 0.79059 0.48617 0.31414 0.0
C106 C 0.78714 0.49974 0.91739 0.0
C107 C 0.94473 0.58249 0.11366 0.0
O108 O 0.91531 0.53119 0.13045 0.0
O109 O 0.91591 0.63122 0.08001 0.0
O110 O 0.81409 0.4458 0.24888 0.0
O111 O 0.77948 0.54251 0.27978 0.0
loop_
_geom_bond_atom_site_label_1
_geom_bond_atom_site_label_2
_geom_bond_distance
_geom_bond_site_symmetry_2
_ccdc_geom_bond_type
O0 Cd1 2.223 . S
O0 C8 1.315 . S
Cd1 O0 2.223 . S
Cd1 O4 2.297 . S
Cd1 O5 2.439 . S
Cd1 O11 2.240 . S
Cd2 O3 2.240 . S
Cd2 O10 2.223 . S
Cd2 O12 2.297 . S
Cd2 O13 2.439 . S
O3 Cd2 2.240 . S
O3 C8 1.279 . S
O4 Cd1 2.297 . S
O4 C6 1.247 . S
O5 Cd1 2.439 . S
O5 C6 1.208 . S
C6 O4 1.247 . S
C6 O5 1.208 . S
C7 O12 1.247 . S
C7 O13 1.208 . S
C8 O0 1.315 . S
C8 O3 1.279 . S
C9 O10 1.315 . S
C9 O11 1.279 . S
O10 Cd2 2.223 . S
O10 C9 1.315 . S
O11 Cd1 2.240 . S
O11 C9 1.279 . S
O12 Cd2 2.297 . S
O12 C7 1.247 . S
O13 Cd2 2.439 . S
O13 C7 1.208 . S
O14 Cd15 2.223 . S
O14 C22 1.315 . S
Cd15 O14 2.223 . S
Cd15 O18 2.297 . S
Cd15 O19 2.439 . S
Cd15 O25 2.240 . S
Cd16 O17 2.240 . S
Cd16 O24 2.223 . S
Cd16 O26 2.297 . S
Cd16 O27 2.439 . S
O17 Cd16 2.240 . S
O17 C22 1.279 . S
O18 Cd15 2.297 . S
O18 C20 1.247 . S
O19 Cd15 2.439 . S
O19 C20 1.208 . S
C20 O18 1.247 . S
C20 O19 1.208 . S
C21 O26 1.247 . S
C21 O27 1.208 . S
C22 O14 1.315 . S
C22 O17 1.279 . S
C23 O24 1.315 . S
C23 O25 1.279 . S
O24 Cd16 2.223 . S
O24 C23 1.315 . S
O25 Cd15 2.240 . S
O25 C23 1.279 . S
O26 Cd16 2.297 . S
O26 C21 1.247 . S
O27 Cd16 2.439 . S
O27 C21 1.208 . S
O28 Cd29 2.223 1_554 S
O28 C36 1.315 . S
Cd29 O28 2.223 1_556 S
Cd29 O32 2.297 1_556 S
Cd29 O33 2.439 . S
Cd29 O39 2.240 . S
Cd30 O31 2.240 . S
Cd30 O38 2.223 . S
Cd30 O40 2.297 . S
Cd30 O41 2.439 . S
O31 Cd30 2.240 . S
O31 C36 1.279 1_556 S
O32 Cd29 2.297 1_554 S
O32 C34 1.247 1_554 S
O33 Cd29 2.439 . S
O33 C34 1.208 . S
C34 O32 1.247 1_556 S
C34 O33 1.208 . S
C35 O40 1.247 . S
C35 O41 1.208 . S
C36 O28 1.315 . S
C36 O31 1.279 1_554 S
C37 O38 1.315 . S
C37 O39 1.279 . S
O38 Cd30 2.223 . S
O38 C37 1.315 . S
O39 Cd29 2.240 . S
O39 C37 1.279 . S
O40 Cd30 2.297 . S
O40 C35 1.247 . S
O41 Cd30 2.439 . S
O41 C35 1.208 . S
O42 Cd43 2.223 . S
O42 C50 1.315 . S
Cd43 O42 2.223 . S
Cd43 O46 2.297 . S
Cd43 O47 2.439 . S
Cd43 O53 2.240 . S
Cd44 O45 2.240 . S
Cd44 O52 2.223 . S
Cd44 O54 2.297 1_554 S
Cd44 O55 2.439 1_554 S
O45 Cd44 2.240 . S
O45 C50 1.279 . S
O46 Cd43 2.297 . S
O46 C48 1.247 . S
O47 Cd43 2.439 . S
O47 C48 1.208 . S
C48 O46 1.247 . S
C48 O47 1.208 . S
C49 O54 1.247 . S
C49 O55 1.208 . S
C50 O42 1.315 . S
C50 O45 1.279 . S
C51 O52 1.315 . S
C51 O53 1.279 . S
O52 Cd44 2.223 . S
O52 C51 1.315 . S
O53 Cd43 2.240 . S
O53 C51 1.279 . S
O54 Cd44 2.297 1_556 S
O54 C49 1.247 . S
O55 Cd44 2.439 1_556 S
O55 C49 1.208 . S
O56 Cd57 2.223 . S
O56 C64 1.315 . S
Cd57 O56 2.223 . S
Cd57 O60 2.297 . S
Cd57 O61 2.439 . S
Cd57 O67 2.240 . S
Cd58 O59 2.240 . S
Cd58 O66 2.223 . S
Cd58 O68 2.297 . S
Cd58 O69 2.439 . S
O59 Cd58 2.240 . S
O59 C64 1.279 . S
O60 Cd57 2.297 . S
O60 C62 1.247 . S
O61 Cd57 2.439 . S
O61 C62 1.208 . S
C62 O60 1.247 . S
C62 O61 1.208 . S
C63 O68 1.247 . S
C63 O69 1.208 . S
C64 O56 1.315 . S
C64 O59 1.279 . S
C65 O66 1.315 . S
C65 O67 1.279 . S
O66 Cd58 2.223 . S
O66 C65 1.315 . S
O67 Cd57 2.240 . S
O67 C65 1.279 . S
O68 Cd58 2.297 . S
O68 C63 1.247 . S
O69 Cd58 2.439 . S
O69 C63 1.208 . S
O70 Cd71 2.223 . S
O70 C78 1.315 . S
Cd71 O70 2.223 . S
Cd71 O74 2.297 . S
Cd71 O75 2.439 . S
Cd71 O81 2.240 . S
Cd72 O73 2.240 . S
Cd72 O80 2.223 . S
Cd72 O82 2.297 . S
Cd72 O83 2.439 . S
O73 Cd72 2.240 . S
O73 C78 1.279 . S
O74 Cd71 2.297 . S
O74 C76 1.247 . S
O75 Cd71 2.439 . S
O75 C76 1.208 . S
C76 O74 1.247 . S
C76 O75 1.208 . S
C77 O82 1.247 . S
C77 O83 1.208 . S
C78 O70 1.315 . S
C78 O73 1.279 . S
C79 O80 1.315 . S
C79 O81 1.279 . S
O80 Cd72 2.223 . S
O80 C79 1.315 . S
O81 Cd71 2.240 . S
O81 C79 1.279 . S
O82 Cd72 2.297 . S
O82 C77 1.247 . S
O83 Cd72 2.439 . S
O83 C77 1.208 . S
O84 Cd85 2.223 . S
O84 C92 1.315 . S
Cd85 O84 2.223 . S
Cd85 O88 2.297 . S
Cd85 O89 2.439 . S
Cd85 O95 2.240 . S
Cd86 O87 2.240 . S
Cd86 O94 2.223 . S
Cd86 O96 2.297 1_556 S
Cd86 O97 2.439 . S
O87 Cd86 2.240 . S
O87 C92 1.279 . S
O88 Cd85 2.297 . S
O88 C90 1.247 . S
O89 Cd85 2.439 . S
O89 C90 1.208 . S
C90 O88 1.247 . S
C90 O89 1.208 . S
C91 O96 1.247 . S
C91 O97 1.208 1_554 S
C92 O84 1.315 . S
C92 O87 1.279 . S
C93 O94 1.315 . S
C93 O95 1.279 . S
O94 Cd86 2.223 . S
O94 C93 1.315 . S
O95 Cd85 2.240 . S
O95 C93 1.279 . S
O96 Cd86 2.297 1_554 S
O96 C91 1.247 . S
O97 Cd86 2.439 . S
O97 C91 1.208 1_556 S
O98 Cd99 2.223 . S
O98 C106 1.315 . S
Cd99 O98 2.223 . S
Cd99 O102 2.297 . S
Cd99 O103 2.439 1_556 S
Cd99 O109 2.240 1_556 S
Cd100 O101 2.240 1_554 S
Cd100 O108 2.223 . S
Cd100 O110 2.297 . S
Cd100 O111 2.439 . S
O101 Cd100 2.240 1_556 S
O101 C106 1.279 . S
O102 Cd99 2.297 . S
O102 C104 1.247 . S
O103 Cd99 2.439 1_554 S
O103 C104 1.208 1_554 S
C104 O102 1.247 . S
C104 O103 1.208 1_556 S
C105 O110 1.247 . S
C105 O111 1.208 . S
C106 O98 1.315 . S
C106 O101 1.279 . S
C107 O108 1.315 . S
C107 O109 1.279 . S
O108 Cd100 2.223 . S
O108 C107 1.315 . S
O109 Cd99 2.240 1_554 S
O109 C107 1.279 . S
O110 Cd100 2.297 . S
O110 C105 1.247 . S
O111 Cd100 2.439 . S
O111 C105 1.208 . S
C8 C92 1.482 . S
C22 C106 1.482 . S
C64 C36 1.482 . S
C78 C50 1.481 . S
C6 C76 1.370 . S
C20 C90 1.370 . S
C104 C34 1.370 . S
C48 C62 1.370 . S
C65 C9 1.518 1_565 S
C23 C79 1.518 1_655 S
C37 C93 1.518 1_565 S
C107 C51 1.518 1_655 S
C91 C7 1.231 . S
C105 C21 1.231 . S
C35 C63 1.231 . S
C49 C77 1.231 . S
