# Generated by pormake.
# Topology pcu, (6)-cn, num edge types: 1
# Building blocks:
#     Node 0, Type 0, BuildingBlock: VOLQOD_clean_sbu_1, # of connection points: 6
#     Edge 1, Type (0, 0), BuildingBlock: CIFDUS_clean_linker_0, # of connection points: 2
#     Edge 2, Type (0, 0), BuildingBlock: CIFDUS_clean_linker_0, # of connection points: 2
#     Edge 3, Type (0, 0), BuildingBlock: CIFDUS_clean_linker_0, # of connection points: 2
# Relax obj value: 0.082
# Max RMSD: 0.143
# Mean RMSD: 0.143
data_MOF--net-pcu--node1-VOLQOD_clean_sbu_1--edge1-CIFDUS_clean_linker_0
_symmetry_space_group_name_H-M    P1
_symmetry_Int_Tables_number       1
_symmetry_cell_setting            triclinic
loop_
_symmetry_equiv_pos_as_xyz
'x, y, z'
_cell_length_a     15.343349
_cell_length_b     15.356345
_cell_length_c     15.307054
_cell_angle_alpha  88.644536
_cell_angle_beta   89.737243
_cell_angle_gamma 91.370872
loop_
_atom_site_label
_atom_site_type_symbol
_atom_site_fract_x
_atom_site_fract_y
_atom_site_fract_z
_atom_type_partial_charge
O0 O 0.03399 0.0191 0.19715 0.0
Zn1 Zn 0.06119 0.04752 0.07001 0.0
O2 O 0.9817 -0.01887 0.99474 0.0
Zn3 Zn 0.04875 0.90543 0.91949 0.0
Zn4 Zn 0.90035 0.9074 0.06435 0.0
Zn5 Zn 0.91555 0.0642 0.9245 0.0
O6 O 0.02754 0.93568 0.79201 0.0
O7 O 0.94092 0.04988 0.79661 0.0
O8 O 0.18651 0.01791 0.04623 0.0
O9 O 0.17717 0.91796 0.94361 0.0
O10 O 0.01822 0.77831 0.94087 0.0
O11 O 0.90871 0.78062 0.03605 0.0
O12 O 0.77551 0.94051 0.04377 0.0
O13 O 0.0522 0.17774 0.05028 0.0
O14 O 0.78649 0.04982 0.94619 0.0
O15 O 0.94618 0.18787 0.95272 0.0
C16 C 0.98093 0.9652 0.23512 0.0
C17 C -0.01504 -0.00421 0.7539 0.0
C18 C 0.96013 0.73917 0.9877 0.0
C19 C 0.22204 0.96493 0.99497 0.0
C20 C 0.74078 -0.00163 -0.0048 0.0
C21 C 0.00213 0.22323 0.00247 0.0
O22 O 0.92776 0.91785 0.19228 0.0
H23 H 0.00065 0.09408 0.35161 0.0
H24 H 0.96163 0.81623 0.33306 0.0
H25 H 0.96401 0.8002 0.49251 0.0
H26 H 0.97574 0.86581 0.63754 0.0
H27 H -0.0011 0.14503 0.65604 0.0
H28 H 0.00428 0.16036 0.49655 0.0
C29 C -0.00702 0.03014 0.38276 0.0
C30 C 0.98166 0.95636 0.33119 0.0
C31 C -0.00852 0.02184 0.47433 0.0
C32 C 0.9703 0.87389 0.37183 0.0
C33 C 0.97185 0.8647 0.46282 0.0
C34 C 0.98226 0.92982 0.60633 0.0
C35 C -0.01237 0.00415 0.65787 0.0
C36 C 0.98223 0.93823 0.51475 0.0
C37 C -0.00543 0.08699 0.61724 0.0
C38 C -0.0022 0.09574 0.52625 0.0
H39 H 0.34357 0.09519 0.00184 0.0
H40 H 0.31325 0.81608 0.98849 0.0
H41 H 0.47174 0.80111 0.99165 0.0
H42 H 0.61914 0.86793 -0.00269 0.0
H43 H 0.64966 0.14772 0.99421 0.0
H44 H 0.49111 0.16243 -0.00173 0.0
C45 C 0.372 0.03125 -0.00012 0.0
C46 C 0.31745 0.95676 -0.00426 0.0
C47 C 0.46302 0.02347 -0.00138 0.0
C48 C 0.35444 0.87421 0.99165 0.0
C49 C 0.44484 0.86566 0.99362 0.0
C50 C 0.59075 0.93195 -0.00224 0.0
C51 C 0.64537 0.00664 -0.00374 0.0
C52 C 0.49976 0.93984 -0.00297 0.0
C53 C 0.60843 0.08942 -0.0047 0.0
C54 C 0.51799 0.09781 -0.00221 0.0
H55 H 0.09239 0.62652 -0.00076 0.0
H56 H 0.81286 0.63854 0.97888 0.0
H57 H 0.80122 0.47912 0.97961 0.0
H58 H 0.87095 0.33663 0.98616 0.0
H59 H 0.14902 0.32411 0.02159 0.0
H60 H 0.16127 0.48351 0.01569 0.0
C61 C 0.02914 0.59387 0.99458 0.0
C62 C 0.95361 0.64344 0.98785 0.0
C63 C 0.02286 0.50246 -0.00171 0.0
C64 C 0.87172 0.60115 0.98375 0.0
C65 C 0.86512 0.51027 0.98419 0.0
C66 C 0.93415 0.369 0.99262 0.0
C67 C 0.00909 0.31914 0.00357 0.0
C68 C 0.94025 0.46032 0.99147 0.0
C69 C 0.09049 0.36145 0.0133 0.0
C70 C 0.09751 0.4524 0.00956 0.0
loop_
_geom_bond_atom_site_label_1
_geom_bond_atom_site_label_2
_geom_bond_distance
_geom_bond_site_symmetry_2
_ccdc_geom_bond_type
O0 Zn1 1.953 . S
O0 C16 1.225 . S
Zn1 O0 1.953 . S
Zn1 O2 1.949 1_454 S
Zn1 O8 1.919 . S
Zn1 O13 1.924 . S
O2 Zn1 1.949 1_656 S
O2 Zn3 1.923 1_645 S
O2 Zn4 1.950 1_546 S
O2 Zn5 1.945 . S
Zn3 O2 1.923 1_465 S
Zn3 O6 1.933 . S
Zn3 O9 1.941 . S
Zn3 O10 1.965 . S
Zn4 O2 1.950 1_564 S
Zn4 O11 1.938 . S
Zn4 O12 1.906 . S
Zn4 O22 1.953 . S
Zn5 O2 1.945 . S
Zn5 O7 1.932 . S
Zn5 O14 1.977 . S
Zn5 O15 1.910 . S
O6 Zn3 1.933 . S
O6 C17 1.231 . S
O7 Zn5 1.932 . S
O7 C17 1.302 1_645 S
O8 Zn1 1.919 . S
O8 C19 1.253 1_544 S
O9 Zn3 1.941 . S
O9 C19 1.283 . S
O10 Zn3 1.965 . S
O10 C18 1.303 1_456 S
O11 Zn4 1.938 . S
O11 C18 1.247 . S
O12 Zn4 1.906 . S
O12 C20 1.304 1_564 S
O13 Zn1 1.924 . S
O13 C21 1.311 . S
O14 Zn5 1.977 . S
O14 C20 1.272 . S
O15 Zn5 1.910 . S
O15 C21 1.231 1_656 S
C16 O0 1.225 . S
C16 O22 1.298 1_445 S
C17 O6 1.231 . S
C17 O7 1.302 1_465 S
C18 O10 1.303 1_654 S
C18 O11 1.247 . S
C19 O8 1.253 1_566 S
C19 O9 1.283 . S
C20 O12 1.304 1_546 S
C20 O14 1.272 . S
C21 O13 1.311 . S
C21 O15 1.231 1_454 S
O22 Zn4 1.953 . S
O22 C16 1.298 1_665 S
H23 C29 0.930 . S
H24 C32 0.930 . S
H25 C33 0.930 . S
H26 C34 0.930 . S
H27 C37 0.930 . S
H28 C38 0.930 . S
C29 H23 0.930 . S
C29 C30 1.355 1_545 S
C29 C31 1.415 . S
C30 C29 1.355 1_565 S
C30 C32 1.419 1_455 S
C31 C29 1.415 . S
C31 C36 1.425 1_445 S
C31 C38 1.409 . S
C32 H24 0.930 . S
C32 C30 1.419 1_655 S
C32 C33 1.362 . S
C33 H25 0.930 . S
C33 C32 1.362 . S
C33 C36 1.409 . S
C34 H26 0.930 . S
C34 C35 1.355 1_665 S
C34 C36 1.415 . S
C35 C34 1.355 1_445 S
C35 C37 1.419 . S
C36 C31 1.425 1_665 S
C36 C33 1.409 . S
C36 C34 1.415 . S
C37 H27 0.930 . S
C37 C35 1.419 . S
C37 C38 1.362 . S
C38 H28 0.930 . S
C38 C31 1.409 . S
C38 C37 1.362 . S
H39 C45 0.930 . S
H40 C48 0.930 . S
H41 C49 0.930 . S
H42 C50 0.930 . S
H43 C53 0.930 1_554 S
H44 C54 0.930 1_554 S
C45 H39 0.930 . S
C45 C46 1.355 1_545 S
C45 C47 1.415 . S
C46 C45 1.355 1_565 S
C46 C48 1.419 . S
C47 C45 1.415 . S
C47 C52 1.425 1_545 S
C47 C54 1.409 . S
C48 H40 0.930 . S
C48 C46 1.419 . S
C48 C49 1.362 . S
C49 H41 0.930 . S
C49 C48 1.362 . S
C49 C52 1.409 . S
C50 H42 0.930 . S
C50 C51 1.355 1_565 S
C50 C52 1.415 . S
C51 C50 1.355 1_545 S
C51 C53 1.419 . S
C52 C47 1.425 1_565 S
C52 C49 1.409 . S
C52 C50 1.415 . S
C53 H43 0.930 1_556 S
C53 C51 1.419 . S
C53 C54 1.362 . S
C54 H44 0.930 1_556 S
C54 C47 1.409 . S
C54 C53 1.362 . S
H55 C61 0.930 . S
H56 C64 0.930 . S
H57 C65 0.930 . S
H58 C66 0.930 1_556 S
H59 C69 0.930 . S
H60 C70 0.930 . S
C61 H55 0.930 . S
C61 C62 1.355 1_455 S
C61 C63 1.415 . S
C62 C61 1.355 1_655 S
C62 C64 1.419 1_554 S
C63 C61 1.415 . S
C63 C68 1.425 1_455 S
C63 C70 1.409 . S
C64 H56 0.930 . S
C64 C62 1.419 1_556 S
C64 C65 1.362 . S
C65 H57 0.930 . S
C65 C64 1.362 . S
C65 C68 1.409 1_556 S
C66 H58 0.930 1_554 S
C66 C67 1.355 1_655 S
C66 C68 1.415 . S
C67 C66 1.355 1_455 S
C67 C69 1.419 . S
C68 C63 1.425 1_655 S
C68 C65 1.409 1_554 S
C68 C66 1.415 . S
C69 H59 0.930 . S
C69 C67 1.419 . S
C69 C70 1.362 . S
C70 H60 0.930 . S
C70 C63 1.409 . S
C70 C69 1.362 . S
C30 C16 1.494 1_565 S
C35 C17 1.497 1_545 S
C46 C19 1.453 . S
C51 C20 1.424 . S
C62 C18 1.407 . S
C67 C21 1.469 . S
