# Generated by pormake.
# Topology qtz, (4)-cn, num edge types: 1
# Building blocks:
#     Node 0, Type 0, BuildingBlock: GALJAG_clean_sbu_0, # of connection points: 4
#     Node 1, Type 0, BuildingBlock: GALJAG_clean_sbu_0, # of connection points: 4
#     Node 2, Type 0, BuildingBlock: GALJAG_clean_sbu_0, # of connection points: 4
#     Edge 3, Type (0, 0), BuildingBlock: FUNLAD_clean_linker_1, # of connection points: 2
#     Edge 4, Type (0, 0), BuildingBlock: FUNLAD_clean_linker_1, # of connection points: 2
#     Edge 5, Type (0, 0), BuildingBlock: FUNLAD_clean_linker_1, # of connection points: 2
#     Edge 6, Type (0, 0), BuildingBlock: FUNLAD_clean_linker_1, # of connection points: 2
#     Edge 7, Type (0, 0), BuildingBlock: FUNLAD_clean_linker_1, # of connection points: 2
#     Edge 8, Type (0, 0), BuildingBlock: FUNLAD_clean_linker_1, # of connection points: 2
# Relax obj value: 0.004
# Max RMSD: 0.037
# Mean RMSD: 0.037
data_MOF--net-qtz--node1-GALJAG_clean_sbu_0--edge1-FUNLAD_clean_linker_1
_symmetry_space_group_name_H-M    P1
_symmetry_Int_Tables_number       1
_symmetry_cell_setting            triclinic
loop_
_symmetry_equiv_pos_as_xyz
'x, y, z'
_cell_length_a     25.437845
_cell_length_b     25.619855
_cell_length_c     27.367284
_cell_angle_alpha  90.486757
_cell_angle_beta   89.673337
_cell_angle_gamma 119.80713
loop_
_atom_site_label
_atom_site_type_symbol
_atom_site_fract_x
_atom_site_fract_y
_atom_site_fract_z
_atom_type_partial_charge
In0 In 0.01427 0.50721 0.1736 0.0
O1 O 0.96006 0.41196 0.20503 0.0
O2 O 0.94673 0.48058 0.23641 0.0
C3 C 0.09666 0.49088 0.12373 0.0
C4 C 0.93676 0.5069 0.10675 0.0
C5 C 0.09279 0.6075 0.22303 0.0
O6 O 0.07291 0.46332 0.16289 0.0
O7 O 0.07876 0.52624 0.10975 0.0
O8 O 0.06154 0.6087 0.18795 0.0
O9 O 0.08417 0.55598 0.23345 0.0
C10 C 0.9326 0.42604 0.23636 0.0
O11 O 0.95569 0.54331 0.14231 0.0
O12 O 0.95701 0.47095 0.10467 0.0
In13 In 0.51585 0.00617 0.50597 0.0
O14 O 0.61546 0.04915 0.48403 0.0
O15 O 0.5612 0.07805 0.44714 0.0
C16 C 0.51449 0.92914 0.57346 0.0
C17 C 0.49402 0.08218 0.55995 0.0
C18 C 0.44044 0.92721 0.43852 0.0
O19 O 0.5613 0.96349 0.54927 0.0
O20 O 0.46875 0.93413 0.56427 0.0
O21 O 0.42731 0.96126 0.46277 0.0
O22 O 0.49176 0.93352 0.44758 0.0
C23 C 0.6127 0.08281 0.45208 0.0
O24 O 0.45744 0.04719 0.5283 0.0
O25 O 0.54173 0.0791 0.56451 0.0
In26 In 0.51885 0.51148 0.8369 0.0
O27 O 0.57326 0.6134 0.82542 0.0
O28 O 0.49988 0.5615 0.77735 0.0
C29 C 0.59751 0.51186 0.90265 0.0
C30 C 0.41938 0.4947 0.88567 0.0
C31 C 0.51671 0.4283 0.77421 0.0
O32 O 0.61468 0.54459 0.86516 0.0
O33 O 0.54097 0.47937 0.90722 0.0
O34 O 0.47745 0.41486 0.80735 0.0
O35 O 0.55609 0.48315 0.77235 0.0
C36 C 0.5422 0.61284 0.7895 0.0
O37 O 0.41615 0.46888 0.8454 0.0
O38 O 0.47243 0.5286 0.90127 0.0
H39 H 0.32202 0.46513 0.89257 0.0
C40 C 0.3652 0.48724 0.9116 0.0
H41 H 0.41188 0.53095 0.97603 0.0
H42 H 0.23817 0.62044 0.05235 0.0
H43 H 0.32958 0.71401 0.03438 0.0
H44 H 0.41508 0.71428 0.9912 0.0
H45 H 0.40995 0.62096 0.96634 0.0
C46 C 0.36845 0.50801 0.95739 0.0
C47 C 0.31546 0.50684 0.98197 0.0
C48 C 0.31872 0.562 0.99536 0.0
C49 C 0.26878 0.56192 0.01907 0.0
C50 C 0.2741 0.6177 0.0333 0.0
C51 C 0.32646 0.67188 0.02335 0.0
C52 C 0.37462 0.67202 0.99914 0.0
C53 C 0.37108 0.61796 0.98521 0.0
H54 H 0.16257 0.45915 0.11498 0.0
C55 C 0.14334 0.48371 0.09736 0.0
H56 H 0.14469 0.5333 0.03583 0.0
H57 H 0.29699 0.39272 0.96791 0.0
H58 H 0.20352 0.2993 0.98164 0.0
H59 H 0.1131 0.29966 0.01426 0.0
H60 H 0.11622 0.39339 0.03462 0.0
C61 C 0.16317 0.50778 0.05299 0.0
C62 C 0.21508 0.50675 0.02845 0.0
C63 C 0.2113 0.45159 0.01415 0.0
C64 C 0.26225 0.45155 0.99239 0.0
C65 C 0.25876 0.39564 0.98204 0.0
C66 C 0.20548 0.34157 0.99013 0.0
C67 C 0.15467 0.34177 0.00872 0.0
C68 C 0.15726 0.39595 0.02062 0.0
H69 H 0.86247 0.39884 0.29317 0.0
C70 C 0.88596 0.38263 0.26963 0.0
H71 H 0.89267 0.30732 0.2467 0.0
H72 H 0.7353 0.23581 0.45786 0.0
H73 H 0.82795 0.31298 0.49517 0.0
H74 H 0.91903 0.37427 0.44522 0.0
H75 H 0.9174 0.35964 0.35748 0.0
C76 C 0.8708 0.32443 0.2711 0.0
C77 C 0.81973 0.28108 0.30241 0.0
C78 C 0.82257 0.28788 0.35403 0.0
C79 C 0.77115 0.25017 0.38316 0.0
C80 C 0.77382 0.26107 0.43418 0.0
C81 C 0.82665 0.30559 0.45608 0.0
C82 C 0.87783 0.34027 0.42794 0.0
C83 C 0.8761 0.33171 0.37753 0.0
H84 H 0.70801 0.12364 0.42847 0.0
C85 C 0.66604 0.12429 0.42307 0.0
H86 H 0.62214 0.16256 0.38433 0.0
H87 H 0.79968 0.25456 0.20468 0.0
H88 H 0.709 0.17366 0.16783 0.0
H89 H 0.62192 0.10476 0.21875 0.0
H90 H 0.62479 0.11671 0.30683 0.0
C91 C 0.66433 0.16277 0.39096 0.0
C92 C 0.71821 0.2033 0.3609 0.0
C93 C 0.7162 0.19514 0.30949 0.0
C94 C 0.76687 0.2342 0.2802 0.0
C95 C 0.76295 0.22577 0.22883 0.0
C96 C 0.71108 0.17952 0.20713 0.0
C97 C 0.66203 0.14078 0.23579 0.0
C98 C 0.66427 0.14825 0.28635 0.0
H99 H 0.46879 0.85525 0.62611 0.0
C100 C 0.51174 0.88419 0.60807 0.0
H101 H 0.60161 0.90304 0.5965 0.0
H102 H 0.50214 0.72991 0.7964 0.0
H103 H 0.50227 0.81514 0.83554 0.0
H104 H 0.52782 0.90677 0.78891 0.0
H105 H 0.55222 0.91312 0.70256 0.0
C106 C 0.55918 0.87595 0.61582 0.0
C107 C 0.55247 0.82475 0.64577 0.0
C108 C 0.54105 0.82286 0.69671 0.0
C109 C 0.52916 0.77113 0.72408 0.0
C110 C 0.51405 0.76896 0.77421 0.0
C111 C 0.51354 0.81747 0.79711 0.0
C112 C 0.52769 0.86897 0.77083 0.0
C113 C 0.54127 0.87187 0.72121 0.0
H114 H 0.59437 0.71026 0.77434 0.0
C115 C 0.55464 0.66816 0.76387 0.0
H116 H 0.47894 0.62526 0.71716 0.0
H117 H 0.57467 0.81467 0.54901 0.0
H118 H 0.57914 0.73142 0.51053 0.0
H119 H 0.56296 0.64365 0.55865 0.0
H120 H 0.54177 0.63843 0.6455 0.0
C121 C 0.5179 0.6675 0.72852 0.0
C122 C 0.53149 0.72257 0.70083 0.0
C123 C 0.5449 0.7254 0.65023 0.0
C124 C 0.55523 0.77644 0.62265 0.0
C125 C 0.56719 0.77739 0.57192 0.0
C126 C 0.56982 0.72984 0.5493 0.0
C127 C 0.56063 0.68039 0.57638 0.0
C128 C 0.54834 0.67794 0.62622 0.0
H129 H 0.62138 0.48956 0.97362 0.0
C130 C 0.6397 0.51104 0.93871 0.0
H131 H 0.7174 0.55564 0.89423 0.0
H132 H 0.91305 0.64708 0.06033 0.0
H133 H 0.92873 0.74033 0.02543 0.0
H134 H 0.85823 0.74026 0.96391 0.0
H135 H 0.77212 0.64689 0.93643 0.0
C136 C 0.6989 0.53379 0.92899 0.0
C137 C 0.74128 0.53316 0.96607 0.0
C138 C 0.79078 0.58836 0.98249 0.0
C139 C 0.83056 0.58852 0.0189 0.0
C140 C 0.88064 0.64424 0.03352 0.0
C141 C 0.89032 0.6982 0.01369 0.0
C142 C 0.85069 0.69816 0.979 0.0
C143 C 0.80145 0.64409 0.96347 0.0
H144 H 0.88724 0.47947 0.037 0.0
C145 C 0.89414 0.5058 0.07013 0.0
H146 H 0.86981 0.56128 0.11019 0.0
H147 H 0.65862 0.41853 0.93622 0.0
H148 H 0.63857 0.32571 0.97491 0.0
H149 H 0.69814 0.32706 0.04622 0.0
H150 H 0.77948 0.42105 0.07795 0.0
C151 C 0.86256 0.53443 0.07732 0.0
C152 C 0.82 0.5336 0.03971 0.0
C153 C 0.76955 0.47846 0.02415 0.0
C154 C 0.73196 0.47804 0.9857 0.0
C155 C 0.68594 0.42189 0.96749 0.0
C156 C 0.67432 0.36813 0.98903 0.0
C157 C 0.70808 0.36886 0.02897 0.0
C158 C 0.75513 0.4232 0.0465 0.0
H159 H 0.41316 0.85311 0.38538 0.0
C160 C 0.39832 0.88121 0.40399 0.0
H161 H 0.32565 0.89722 0.41703 0.0
H162 H 0.24947 0.72486 0.21523 0.0
H163 H 0.33215 0.81132 0.17594 0.0
H164 H 0.39853 0.90323 0.22316 0.0
H165 H 0.38323 0.90867 0.31022 0.0
C166 C 0.34177 0.87105 0.39706 0.0
C167 C 0.29755 0.819 0.36713 0.0
C168 C 0.30549 0.81756 0.3159 0.0
C169 C 0.26543 0.76561 0.28827 0.0
C170 C 0.27678 0.76401 0.23769 0.0
C171 C 0.32442 0.81323 0.21469 0.0
C172 C 0.36193 0.86489 0.2413 0.0
C173 C 0.35284 0.86728 0.29132 0.0
H174 H 0.13795 0.70451 0.24064 0.0
C175 C 0.13618 0.66239 0.24949 0.0
H176 H 0.17106 0.61922 0.29319 0.0
H177 H 0.26905 0.80752 0.46464 0.0
H178 H 0.18403 0.72266 0.50351 0.0
H179 H 0.11202 0.63436 0.45511 0.0
H180 H 0.12484 0.63022 0.3676 0.0
C181 C 0.17361 0.66146 0.28345 0.0
C182 C 0.21588 0.7163 0.31166 0.0
C183 C 0.20716 0.71841 0.3627 0.0
C184 C 0.24811 0.76972 0.39048 0.0
C185 C 0.23895 0.77004 0.44159 0.0
C186 C 0.19035 0.72156 0.46444 0.0
C187 C 0.14985 0.67183 0.43721 0.0
C188 C 0.15788 0.67001 0.38696 0.0
H189 H 0.55677 0.39988 0.71569 0.0
C190 C 0.51876 0.38394 0.7409 0.0
H191 H 0.43963 0.30851 0.7674 0.0
H192 H 0.51661 0.23202 0.55337 0.0
H193 H 0.49502 0.30496 0.51659 0.0
H194 H 0.46472 0.3656 0.56744 0.0
H195 H 0.45738 0.35461 0.65554 0.0
C196 C 0.47684 0.32529 0.74138 0.0
C197 C 0.48388 0.28134 0.70991 0.0
C198 C 0.48439 0.28575 0.65822 0.0
C199 C 0.49829 0.24821 0.62869 0.0
C200 C 0.50325 0.25705 0.57746 0.0
C201 C 0.49144 0.29917 0.55584 0.0
C202 C 0.47466 0.3335 0.58447 0.0
C203 C 0.47109 0.32706 0.63506 0.0
H204 H 0.43759 0.12059 0.58454 0.0
C205 C 0.48126 0.12319 0.58913 0.0
H206 H 0.56501 0.16536 0.62614 0.0
H207 H 0.48413 0.25941 0.80776 0.0
H208 H 0.49956 0.18226 0.8443 0.0
H209 H 0.51778 0.11326 0.79289 0.0
H210 H 0.52132 0.12143 0.70461 0.0
C211 C 0.52191 0.16358 0.62039 0.0
C212 C 0.50787 0.20367 0.65076 0.0
C213 C 0.50484 0.19762 0.70232 0.0
C214 C 0.49316 0.23666 0.73193 0.0
C215 C 0.49197 0.2305 0.7834 0.0
C216 C 0.50083 0.18641 0.80492 0.0
C217 C 0.51117 0.14762 0.77598 0.0
C218 C 0.51322 0.15292 0.72531 0.0
loop_
_geom_bond_atom_site_label_1
_geom_bond_atom_site_label_2
_geom_bond_distance
_geom_bond_site_symmetry_2
_ccdc_geom_bond_type
In0 O1 2.294 1_455 S
In0 O2 2.326 1_455 S
In0 O6 2.266 . S
In0 O7 2.326 . S
In0 O8 2.266 . S
In0 O9 2.326 . S
In0 O11 2.294 1_455 S
In0 O12 2.326 1_455 S
O1 In0 2.294 1_655 S
O1 C10 1.240 . S
O2 In0 2.326 1_655 S
O2 C10 1.252 . S
C3 O6 1.252 . S
C3 O7 1.260 . S
C4 O11 1.240 . S
C4 O12 1.252 . S
C5 O8 1.252 . S
C5 O9 1.260 . S
O6 In0 2.266 . S
O6 C3 1.252 . S
O7 In0 2.326 . S
O7 C3 1.260 . S
O8 In0 2.266 . S
O8 C5 1.252 . S
O9 In0 2.326 . S
O9 C5 1.260 . S
C10 O1 1.240 . S
C10 O2 1.252 . S
O11 In0 2.294 1_655 S
O11 C4 1.240 . S
O12 In0 2.326 1_655 S
O12 C4 1.252 . S
In13 O14 2.294 . S
In13 O15 2.326 . S
In13 O19 2.266 1_545 S
In13 O20 2.326 1_545 S
In13 O21 2.266 1_545 S
In13 O22 2.326 1_545 S
In13 O24 2.294 . S
In13 O25 2.326 . S
O14 In13 2.294 . S
O14 C23 1.240 . S
O15 In13 2.326 . S
O15 C23 1.252 . S
C16 O19 1.252 . S
C16 O20 1.260 . S
C17 O24 1.240 . S
C17 O25 1.252 . S
C18 O21 1.252 . S
C18 O22 1.260 . S
O19 In13 2.266 1_565 S
O19 C16 1.252 . S
O20 In13 2.326 1_565 S
O20 C16 1.260 . S
O21 In13 2.266 1_565 S
O21 C18 1.252 . S
O22 In13 2.326 1_565 S
O22 C18 1.260 . S
C23 O14 1.240 . S
C23 O15 1.252 . S
O24 In13 2.294 . S
O24 C17 1.240 . S
O25 In13 2.326 . S
O25 C17 1.252 . S
In26 O27 2.294 . S
In26 O28 2.326 . S
In26 O32 2.266 . S
In26 O33 2.326 . S
In26 O34 2.266 . S
In26 O35 2.326 . S
In26 O37 2.294 . S
In26 O38 2.326 . S
O27 In26 2.294 . S
O27 C36 1.240 . S
O28 In26 2.326 . S
O28 C36 1.252 . S
C29 O32 1.252 . S
C29 O33 1.260 . S
C30 O37 1.240 . S
C30 O38 1.252 . S
C31 O34 1.252 . S
C31 O35 1.260 . S
O32 In26 2.266 . S
O32 C29 1.252 . S
O33 In26 2.326 . S
O33 C29 1.260 . S
O34 In26 2.266 . S
O34 C31 1.252 . S
O35 In26 2.326 . S
O35 C31 1.260 . S
C36 O27 1.240 . S
C36 O28 1.252 . S
O37 In26 2.294 . S
O37 C30 1.240 . S
O38 In26 2.326 . S
O38 C30 1.252 . S
H39 C40 0.951 . S
C40 H39 0.951 . S
C40 C46 1.265 . S
H41 C46 0.950 . S
H42 C50 0.949 . S
H43 C51 0.950 . S
H44 C52 0.951 . S
H45 C53 0.961 . S
C46 C40 1.265 . S
C46 H41 0.950 . S
C46 C47 1.478 . S
C47 C46 1.478 . S
C47 C48 1.397 1_556 S
C47 C64 1.394 . S
C48 C47 1.397 1_554 S
C48 C49 1.438 . S
C48 C53 1.429 . S
C49 C48 1.438 . S
C49 C50 1.428 . S
C49 C62 1.394 . S
C50 H42 0.949 . S
C50 C49 1.428 . S
C50 C51 1.345 . S
C51 H43 0.950 . S
C51 C50 1.345 . S
C51 C52 1.424 . S
C52 H44 0.951 . S
C52 C51 1.424 . S
C52 C53 1.347 . S
C53 H45 0.961 . S
C53 C48 1.429 . S
C53 C52 1.347 . S
H54 C55 0.951 . S
C55 H54 0.951 . S
C55 C61 1.265 . S
H56 C61 0.950 . S
H57 C65 0.949 . S
H58 C66 0.950 . S
H59 C67 0.951 . S
H60 C68 0.954 . S
C61 C55 1.265 . S
C61 H56 0.950 . S
C61 C62 1.478 . S
C62 C49 1.394 . S
C62 C61 1.478 . S
C62 C63 1.397 1_554 S
C63 C62 1.397 1_556 S
C63 C64 1.438 . S
C63 C68 1.429 . S
C64 C47 1.394 . S
C64 C63 1.438 . S
C64 C65 1.428 . S
C65 H57 0.949 . S
C65 C64 1.428 . S
C65 C66 1.345 . S
C66 H58 0.950 . S
C66 C65 1.345 . S
C66 C67 1.424 . S
C67 H59 0.951 . S
C67 C66 1.424 . S
C67 C68 1.347 . S
C68 H60 0.954 . S
C68 C63 1.429 . S
C68 C67 1.347 . S
H69 C70 0.951 . S
C70 H69 0.951 . S
C70 C76 1.265 . S
H71 C76 0.950 . S
H72 C80 0.949 . S
H73 C81 0.950 . S
H74 C82 0.951 . S
H75 C83 0.951 . S
C76 C70 1.265 . S
C76 H71 0.950 . S
C76 C77 1.478 . S
C77 C76 1.478 . S
C77 C78 1.397 . S
C77 C94 1.394 . S
C78 C77 1.397 . S
C78 C79 1.438 . S
C78 C83 1.429 . S
C79 C78 1.438 . S
C79 C80 1.428 . S
C79 C92 1.394 . S
C80 H72 0.949 . S
C80 C79 1.428 . S
C80 C81 1.345 . S
C81 H73 0.950 . S
C81 C80 1.345 . S
C81 C82 1.424 . S
C82 H74 0.951 . S
C82 C81 1.424 . S
C82 C83 1.347 . S
C83 H75 0.951 . S
C83 C78 1.429 . S
C83 C82 1.347 . S
H84 C85 0.951 . S
C85 H84 0.951 . S
C85 C91 1.265 . S
H86 C91 0.950 . S
H87 C95 0.949 . S
H88 C96 0.950 . S
H89 C97 0.951 . S
H90 C98 0.951 . S
C91 C85 1.265 . S
C91 H86 0.950 . S
C91 C92 1.478 . S
C92 C79 1.394 . S
C92 C91 1.478 . S
C92 C93 1.397 . S
C93 C92 1.397 . S
C93 C94 1.438 . S
C93 C98 1.429 . S
C94 C77 1.394 . S
C94 C93 1.438 . S
C94 C95 1.428 . S
C95 H87 0.949 . S
C95 C94 1.428 . S
C95 C96 1.345 . S
C96 H88 0.950 . S
C96 C95 1.345 . S
C96 C97 1.424 . S
C97 H89 0.951 . S
C97 C96 1.424 . S
C97 C98 1.347 . S
C98 H90 0.951 . S
C98 C93 1.429 . S
C98 C97 1.347 . S
H99 C100 0.951 . S
C100 H99 0.951 . S
C100 C106 1.265 . S
H101 C106 0.950 . S
H102 C110 0.949 . S
H103 C111 0.950 . S
H104 C112 0.951 . S
H105 C113 0.951 . S
C106 C100 1.265 . S
C106 H101 0.950 . S
C106 C107 1.478 . S
C107 C106 1.478 . S
C107 C108 1.397 . S
C107 C124 1.394 . S
C108 C107 1.397 . S
C108 C109 1.438 . S
C108 C113 1.429 . S
C109 C108 1.438 . S
C109 C110 1.428 . S
C109 C122 1.394 . S
C110 H102 0.949 . S
C110 C109 1.428 . S
C110 C111 1.345 . S
C111 H103 0.950 . S
C111 C110 1.345 . S
C111 C112 1.424 . S
C112 H104 0.951 . S
C112 C111 1.424 . S
C112 C113 1.347 . S
C113 H105 0.951 . S
C113 C108 1.429 . S
C113 C112 1.347 . S
H114 C115 0.951 . S
C115 H114 0.951 . S
C115 C121 1.265 . S
H116 C121 0.950 . S
H117 C125 0.949 . S
H118 C126 0.950 . S
H119 C127 0.951 . S
H120 C128 0.951 . S
C121 C115 1.265 . S
C121 H116 0.950 . S
C121 C122 1.478 . S
C122 C109 1.394 . S
C122 C121 1.478 . S
C122 C123 1.397 . S
C123 C122 1.397 . S
C123 C124 1.438 . S
C123 C128 1.429 . S
C124 C107 1.394 . S
C124 C123 1.438 . S
C124 C125 1.428 . S
C125 H117 0.949 . S
C125 C124 1.428 . S
C125 C126 1.345 . S
C126 H118 0.950 . S
C126 C125 1.345 . S
C126 C127 1.424 . S
C127 H119 0.951 . S
C127 C126 1.424 . S
C127 C128 1.347 . S
C128 H120 0.951 . S
C128 C123 1.429 . S
C128 C127 1.347 . S
H129 C130 0.951 . S
C130 H129 0.951 . S
C130 C136 1.265 . S
H131 C136 0.950 . S
H132 C140 0.949 . S
H133 C141 0.950 1_554 S
H134 C142 0.951 . S
H135 C143 0.951 . S
C136 C130 1.265 . S
C136 H131 0.950 . S
C136 C137 1.478 . S
C137 C136 1.478 . S
C137 C138 1.397 . S
C137 C154 1.394 . S
C138 C137 1.397 . S
C138 C139 1.438 1_556 S
C138 C143 1.429 . S
C139 C138 1.438 1_554 S
C139 C140 1.428 . S
C139 C152 1.394 . S
C140 H132 0.949 . S
C140 C139 1.428 . S
C140 C141 1.345 1_554 S
C141 H133 0.950 1_556 S
C141 C140 1.345 1_556 S
C141 C142 1.424 . S
C142 H134 0.951 . S
C142 C141 1.424 . S
C142 C143 1.347 . S
C143 H135 0.951 . S
C143 C138 1.429 . S
C143 C142 1.347 . S
H144 C145 0.951 . S
C145 H144 0.951 . S
C145 C151 1.265 . S
H146 C151 0.950 . S
H147 C155 0.949 . S
H148 C156 0.950 1_556 S
H149 C157 0.951 . S
H150 C158 0.951 . S
C151 C145 1.265 . S
C151 H146 0.950 . S
C151 C152 1.478 . S
C152 C139 1.394 . S
C152 C151 1.478 . S
C152 C153 1.397 . S
C153 C152 1.397 . S
C153 C154 1.438 1_554 S
C153 C158 1.429 . S
C154 C137 1.394 . S
C154 C153 1.438 1_556 S
C154 C155 1.428 . S
C155 H147 0.949 . S
C155 C154 1.428 . S
C155 C156 1.345 1_556 S
C156 H148 0.950 1_554 S
C156 C155 1.345 1_554 S
C156 C157 1.424 . S
C157 H149 0.951 . S
C157 C156 1.424 . S
C157 C158 1.347 . S
C158 H150 0.951 . S
C158 C153 1.429 . S
C158 C157 1.347 . S
H159 C160 0.951 . S
C160 H159 0.951 . S
C160 C166 1.265 . S
H161 C166 0.950 . S
H162 C170 0.949 . S
H163 C171 0.950 . S
H164 C172 0.951 . S
H165 C173 0.951 . S
C166 C160 1.265 . S
C166 H161 0.950 . S
C166 C167 1.478 . S
C167 C166 1.478 . S
C167 C168 1.397 . S
C167 C184 1.394 . S
C168 C167 1.397 . S
C168 C169 1.438 . S
C168 C173 1.429 . S
C169 C168 1.438 . S
C169 C170 1.428 . S
C169 C182 1.394 . S
C170 H162 0.949 . S
C170 C169 1.428 . S
C170 C171 1.345 . S
C171 H163 0.950 . S
C171 C170 1.345 . S
C171 C172 1.424 . S
C172 H164 0.951 . S
C172 C171 1.424 . S
C172 C173 1.347 . S
C173 H165 0.951 . S
C173 C168 1.429 . S
C173 C172 1.347 . S
H174 C175 0.951 . S
C175 H174 0.951 . S
C175 C181 1.265 . S
H176 C181 0.950 . S
H177 C185 0.949 . S
H178 C186 0.950 . S
H179 C187 0.951 . S
H180 C188 0.951 . S
C181 C175 1.265 . S
C181 H176 0.950 . S
C181 C182 1.478 . S
C182 C169 1.394 . S
C182 C181 1.478 . S
C182 C183 1.397 . S
C183 C182 1.397 . S
C183 C184 1.438 . S
C183 C188 1.429 . S
C184 C167 1.394 . S
C184 C183 1.438 . S
C184 C185 1.428 . S
C185 H177 0.949 . S
C185 C184 1.428 . S
C185 C186 1.345 . S
C186 H178 0.950 . S
C186 C185 1.345 . S
C186 C187 1.424 . S
C187 H179 0.951 . S
C187 C186 1.424 . S
C187 C188 1.347 . S
C188 H180 0.951 . S
C188 C183 1.429 . S
C188 C187 1.347 . S
H189 C190 0.951 . S
C190 H189 0.951 . S
C190 C196 1.265 . S
H191 C196 0.950 . S
H192 C200 0.949 . S
H193 C201 0.950 . S
H194 C202 0.951 . S
H195 C203 0.951 . S
C196 C190 1.265 . S
C196 H191 0.950 . S
C196 C197 1.478 . S
C197 C196 1.478 . S
C197 C198 1.397 . S
C197 C214 1.394 . S
C198 C197 1.397 . S
C198 C199 1.438 . S
C198 C203 1.429 . S
C199 C198 1.438 . S
C199 C200 1.428 . S
C199 C212 1.394 . S
C200 H192 0.949 . S
C200 C199 1.428 . S
C200 C201 1.345 . S
C201 H193 0.950 . S
C201 C200 1.345 . S
C201 C202 1.424 . S
C202 H194 0.951 . S
C202 C201 1.424 . S
C202 C203 1.347 . S
C203 H195 0.951 . S
C203 C198 1.429 . S
C203 C202 1.347 . S
H204 C205 0.951 . S
C205 H204 0.951 . S
C205 C211 1.265 . S
H206 C211 0.950 . S
H207 C215 0.949 . S
H208 C216 0.950 . S
H209 C217 0.951 . S
H210 C218 0.951 . S
C211 C205 1.265 . S
C211 H206 0.950 . S
C211 C212 1.478 . S
C212 C199 1.394 . S
C212 C211 1.478 . S
C212 C213 1.397 . S
C213 C212 1.397 . S
C213 C214 1.438 . S
C213 C218 1.429 . S
C214 C197 1.394 . S
C214 C213 1.438 . S
C214 C215 1.428 . S
C215 H207 0.949 . S
C215 C214 1.428 . S
C215 C216 1.345 . S
C216 H208 0.950 . S
C216 C215 1.345 . S
C216 C217 1.424 . S
C217 H209 0.951 . S
C217 C216 1.424 . S
C217 C218 1.347 . S
C218 H210 0.951 . S
C218 C213 1.429 . S
C218 C217 1.347 . S
C40 C30 1.534 . S
C55 C3 1.538 . S
C70 C10 1.529 . S
C85 C23 1.530 . S
C100 C16 1.539 . S
C115 C36 1.539 . S
C130 C29 1.540 . S
C145 C4 1.543 . S
C160 C18 1.545 . S
C175 C5 1.545 . S
C190 C31 1.537 . S
C205 C17 1.535 . S
