# Generated by pormake.
# Topology hex, (8)-cn, num edge types: 1
# Building blocks:
#     Node 0, Type 0, BuildingBlock: LIZSOE_clean_sbu_0, # of connection points: 8
#     Edge 1, Type (0, 0), BuildingBlock: OJICUG_clean_linker_0, # of connection points: 2
#     Edge 2, Type (0, 0), BuildingBlock: OJICUG_clean_linker_0, # of connection points: 2
#     Edge 3, Type (0, 0), BuildingBlock: OJICUG_clean_linker_0, # of connection points: 2
#     Edge 4, Type (0, 0), BuildingBlock: OJICUG_clean_linker_0, # of connection points: 2
# Relax obj value: 0.199
# Max RMSD: 0.248
# Mean RMSD: 0.248
data_MOF--net-hex--node1-LIZSOE_clean_sbu_0--edge1-OJICUG_clean_linker_0
_symmetry_space_group_name_H-M    P1
_symmetry_Int_Tables_number       1
_symmetry_cell_setting            triclinic
loop_
_symmetry_equiv_pos_as_xyz
'x, y, z'
_cell_length_a     11.723503
_cell_length_b     17.197175
_cell_length_c     11.56437
_cell_angle_alpha  102.16163
_cell_angle_beta   82.350552
_cell_angle_gamma 138.26755
loop_
_atom_site_label
_atom_site_type_symbol
_atom_site_fract_x
_atom_site_fract_y
_atom_site_fract_z
_atom_type_partial_charge
Co0 Co 0.20615 0.93916 0.07965 0.0
N1 N 0.16601 0.84394 0.17534 0.0
C2 C 1.01749 0.76481 0.23054 0.0
N3 N 1.06073 0.66723 0.1234 0.0
C4 C 0.20017 0.78496 0.12741 0.0
C5 C 0.94862 0.65474 0.1942 0.0
Co6 Co 0.96532 0.12752 0.90644 0.0
N7 N 0.98547 0.21976 0.82129 0.0
N8 N 0.97565 0.34034 0.79539 0.0
C9 C 0.86193 0.23914 0.71847 0.0
C10 C 0.87029 0.16625 0.733 0.0
C11 C 1.05178 0.32783 0.85479 0.0
Co12 Co 0.09029 0.03404 -0.01465 0.0
C13 C 0.90246 0.10567 0.00763 0.0
H14 H 0.77994 0.07382 0.69333 0.0
O15 O 0.25952 1.02941 0.98249 0.0
O16 O 0.2914 0.21388 0.01912 0.0
O17 O 0.07552 0.03929 0.16629 0.0
O18 O 0.8899 0.85439 0.94686 0.0
O19 O 0.96648 0.84287 0.09597 0.0
O20 O 0.2063 0.23316 0.88169 0.0
O21 O 0.91886 0.0349 -0.00931 0.0
O22 O 0.9197 0.03023 0.76705 0.0
O23 O 0.261 0.04354 0.2108 0.0
O24 O 0.14593 0.84353 0.9428 0.0
O25 O 0.10478 0.03164 0.80574 0.0
O26 O 1.02537 0.21767 0.0511 0.0
C27 C 0.16882 0.05783 0.24204 0.0
C28 C 0.17102 0.41585 0.96054 0.0
H29 H 0.24852 0.40619 0.98019 0.0
H30 H 0.25929 0.50765 0.94467 0.0
H31 H 0.09538 0.4031 0.03873 0.0
C32 C 0.32314 0.27756 0.95154 0.0
C33 C 0.85672 0.79195 0.01609 0.0
H34 H 0.94894 0.7813 0.27624 0.0
H35 H 0.41591 0.81837 0.07179 0.0
H36 H 0.36561 0.80363 0.22248 0.0
H37 H 0.46906 0.93744 0.17785 0.0
C38 C 0.37359 0.84044 0.14969 0.0
C39 C 0.27265 0.95749 0.94478 0.0
C40 C 1.01312 1.01713 0.73259 0.0
H41 H 0.81862 0.57158 0.20742 0.0
H42 H 0.76486 0.21391 0.66699 0.0
C43 C 0.09244 0.53366 0.83811 0.0
C44 C 0.95861 0.41403 0.84713 0.0
H45 H 0.22659 0.70752 0.91695 0.0
C46 C 0.84089 0.37602 0.9368 0.0
H47 H 0.1842 0.56422 0.76919 0.0
C48 C 0.8721 0.45825 0.02775 0.0
C49 C 1.01833 0.57991 0.02666 0.0
H50 H 0.73528 0.28319 0.94248 0.0
H51 H 0.78672 0.42646 0.10093 0.0
C52 C 0.12028 0.61572 0.92605 0.0
C53 C 0.70694 0.12479 0.06407 0.0
C54 C 0.72926 0.05722 0.00044 0.0
H55 H 0.54933 0.14858 0.09591 0.0
C56 C 0.60746 0.96442 0.90994 0.0
H57 H 0.79979 0.19927 0.13247 0.0
C58 C 0.46827 0.94009 0.8845 0.0
C59 C 0.44348 1.00523 0.95088 0.0
H60 H 0.62204 0.91271 0.8564 0.0
H61 H 0.37635 0.86748 0.81456 0.0
C62 C 0.56514 0.09795 0.04108 0.0
C63 C 0.54265 0.46766 0.86909 0.0
C64 C 0.47686 0.40918 0.96775 0.0
H65 H 0.7113 0.63343 0.80592 0.0
C66 C 0.5288 0.47754 0.08112 0.0
H67 H 0.50071 0.41701 0.78027 0.0
C68 C 0.64196 0.60032 0.09538 0.0
C69 C 0.71094 0.65939 -0.00285 0.0
H70 H 0.47492 0.43528 0.15882 0.0
H71 H 0.67621 0.64958 0.18424 0.0
C72 C 0.65925 0.59117 0.88352 0.0
C73 C 0.21019 0.07512 0.56635 0.0
C74 C 1.04797 1.01834 0.60528 0.0
H75 H 0.37899 0.13863 0.4221 0.0
C76 C 0.92972 0.98284 0.52521 0.0
H77 H 0.30569 0.10665 0.62652 0.0
C78 C 0.97259 1.00332 0.40857 0.0
C79 C 0.1346 0.05955 0.36951 0.0
H80 H 0.80402 0.94012 0.55328 0.0
H81 H 0.87697 0.97136 0.34819 0.0
C82 C 0.25326 0.096 0.45 0.0
loop_
_geom_bond_atom_site_label_1
_geom_bond_atom_site_label_2
_geom_bond_distance
_geom_bond_site_symmetry_2
_ccdc_geom_bond_type
Co0 N1 2.034 . S
Co0 O15 2.262 1_654 S
Co0 O19 1.958 1_554 S
Co0 O23 1.950 1_655 S
Co0 O24 2.057 1_654 S
N1 Co0 2.034 . S
N1 C2 1.366 . S
N1 C4 1.332 1_655 S
C2 N1 1.366 . S
C2 C5 1.377 . S
C2 H34 0.931 . S
N3 C4 1.346 . S
N3 C5 1.337 1_455 S
C4 N1 1.332 1_455 S
C4 N3 1.346 . S
C4 C38 1.361 . S
C5 C2 1.377 . S
C5 N3 1.337 1_655 S
C5 H41 0.930 . S
Co6 N7 2.034 1_655 S
Co6 O20 1.950 1_655 S
Co6 O21 2.260 1_556 S
Co6 O22 1.958 . S
Co6 O26 2.057 . S
N7 Co6 2.034 1_455 S
N7 C10 1.366 . S
N7 C11 1.332 . S
N8 C9 1.337 . S
N8 C11 1.346 . S
C9 N8 1.337 . S
C9 C10 1.377 . S
C9 H42 0.930 . S
C10 N7 1.366 . S
C10 C9 1.377 . S
C10 H14 0.931 . S
C11 N7 1.332 . S
C11 N8 1.346 . S
C11 C28 1.361 1_556 S
Co12 O15 2.097 1_655 S
Co12 O16 2.065 1_666 S
Co12 O17 2.065 1_566 S
Co12 O18 2.042 . S
Co12 O21 2.098 1_566 S
Co12 O25 2.042 1_655 S
C13 O21 1.253 . S
C13 O26 1.263 1_554 S
H14 C10 0.931 . S
O15 Co0 2.262 1_456 S
O15 Co12 2.097 1_455 S
O15 C39 1.253 . S
O16 Co12 2.065 1_444 S
O16 C32 1.221 . S
O17 Co12 2.065 1_544 S
O17 C27 1.221 1_545 S
O18 Co12 2.042 . S
O18 C33 1.237 . S
O19 Co0 1.958 1_556 S
O19 C33 1.278 . S
O20 Co6 1.950 1_455 S
O20 C32 1.277 1_556 S
O21 Co6 2.260 1_554 S
O21 Co12 2.098 1_544 S
O21 C13 1.253 . S
O22 Co6 1.958 . S
O22 C40 1.278 1_545 S
O23 Co0 1.950 1_455 S
O23 C27 1.277 1_455 S
O24 Co0 2.057 1_456 S
O24 C39 1.263 . S
O25 Co12 2.042 1_455 S
O25 C40 1.237 1_455 S
O26 Co6 2.057 . S
O26 C13 1.263 1_556 S
C27 O17 1.221 1_565 S
C27 O23 1.277 1_655 S
C28 C11 1.361 1_554 S
C28 H29 0.960 . S
C28 H30 0.961 . S
C28 H31 0.961 1_455 S
H29 C28 0.960 . S
H30 C28 0.961 . S
H31 C28 0.961 1_655 S
C32 O16 1.221 . S
C32 O20 1.277 1_554 S
C33 O18 1.237 . S
C33 O19 1.278 . S
H34 C2 0.931 . S
H35 C38 0.961 . S
H36 C38 0.961 . S
H37 C38 0.960 . S
C38 C4 1.361 . S
C38 H35 0.961 . S
C38 H36 0.961 . S
C38 H37 0.960 . S
C39 O15 1.253 . S
C39 O24 1.263 . S
C40 O22 1.278 1_565 S
C40 O25 1.237 1_655 S
H41 C5 0.930 . S
H42 C9 0.930 . S
C43 C44 1.387 1_554 S
C43 H47 0.950 . S
C43 C52 1.390 . S
C44 C43 1.387 1_556 S
C44 C46 1.387 1_455 S
H45 C52 0.950 . S
C46 C44 1.387 1_655 S
C46 C48 1.390 1_556 S
C46 H50 0.950 . S
H47 C43 0.950 . S
C48 C46 1.390 1_554 S
C48 C49 1.387 1_655 S
C48 H51 0.950 . S
C49 C48 1.387 1_455 S
C49 C52 1.387 . S
H50 C46 0.950 . S
H51 C48 0.950 . S
C52 C43 1.390 . S
C52 H45 0.950 . S
C52 C49 1.387 . S
C53 C54 1.387 . S
C53 H57 0.950 . S
C53 C62 1.390 . S
C54 C53 1.387 . S
C54 C56 1.387 1_564 S
H55 C62 0.950 . S
C56 C54 1.387 1_546 S
C56 C58 1.390 . S
C56 H60 0.950 . S
H57 C53 0.950 . S
C58 C56 1.390 . S
C58 C59 1.387 . S
C58 H61 0.950 . S
C59 C58 1.387 . S
C59 C62 1.387 1_546 S
H60 C56 0.950 . S
H61 C58 0.950 . S
C62 C53 1.390 . S
C62 H55 0.950 . S
C62 C59 1.387 1_564 S
C63 C64 1.387 1_556 S
C63 H67 0.950 . S
C63 C72 1.390 . S
C64 C63 1.387 1_554 S
C64 C66 1.387 . S
H65 C72 0.950 . S
C66 C64 1.387 . S
C66 C68 1.390 . S
C66 H70 0.950 . S
H67 C63 0.950 . S
C68 C66 1.390 . S
C68 C69 1.387 1_554 S
C68 H71 0.950 . S
C69 C68 1.387 1_556 S
C69 C72 1.387 . S
H70 C66 0.950 . S
H71 C68 0.950 . S
C72 C63 1.390 . S
C72 H65 0.950 . S
C72 C69 1.387 . S
C73 C74 1.387 1_445 S
C73 H77 0.950 . S
C73 C82 1.390 . S
C74 C73 1.387 1_665 S
C74 C76 1.390 . S
H75 C82 0.950 . S
C76 C74 1.390 . S
C76 C78 1.390 . S
C76 H80 0.950 . S
H77 C73 0.950 . S
C78 C76 1.390 . S
C78 C79 1.387 1_665 S
C78 H81 0.950 . S
C79 C78 1.387 1_445 S
C79 C82 1.387 . S
H80 C76 0.950 . S
H81 C78 0.950 . S
C82 C73 1.390 . S
C82 H75 0.950 . S
C82 C79 1.387 . S
C44 N8 1.881 . S
C49 N3 1.655 . S
C54 C13 1.765 1_565 S
C59 C39 1.787 1_545 S
C64 C32 1.825 . S
C69 C33 1.844 . S
C74 C40 1.413 . S
C79 C27 1.415 1_445 S
