# Generated by pormake.
# Topology kag, (6)-cn, num edge types: 1
# Building blocks:
#     Node 0, Type 0, BuildingBlock: CIFDUS_clean_sbu_1, # of connection points: 6
#     Node 1, Type 0, BuildingBlock: CIFDUS_clean_sbu_1, # of connection points: 6
#     Node 2, Type 0, BuildingBlock: CIFDUS_clean_sbu_1, # of connection points: 6
#     Edge 3, Type (0, 0), None
#     Edge 4, Type (0, 0), None
#     Edge 5, Type (0, 0), None
#     Edge 6, Type (0, 0), None
#     Edge 7, Type (0, 0), None
#     Edge 8, Type (0, 0), None
#     Edge 9, Type (0, 0), None
#     Edge 10, Type (0, 0), None
#     Edge 11, Type (0, 0), None
# Relax obj value: 0.125
# Max RMSD: 0.164
# Mean RMSD: 0.157
data_MOF--net-kag--node1-CIFDUS_clean_sbu_1--edge1-none
_symmetry_space_group_name_H-M    P1
_symmetry_Int_Tables_number       1
_symmetry_cell_setting            triclinic
loop_
_symmetry_equiv_pos_as_xyz
'x, y, z'
_cell_length_a     14.853818
_cell_length_b     14.649712
_cell_length_c     7.0214519
_cell_angle_alpha  89.997727
_cell_angle_beta   98.753847
_cell_angle_gamma 119.54584
loop_
_atom_site_label
_atom_site_type_symbol
_atom_site_fract_x
_atom_site_fract_y
_atom_site_fract_z
_atom_type_partial_charge
O0 O 0.13237 0.46036 0.97605 0.0
Mn1 Mn 0.02373 0.50627 0.02059 0.0
O2 O 0.24763 0.50523 0.25467 0.0
Mn3 Mn 0.21513 0.59875 0.36378 0.0
O4 O 0.91237 0.5493 0.06384 0.0
O5 O 0.96874 0.47957 0.73749 0.0
Mn6 Mn 0.83234 0.40738 0.67739 0.0
O7 O 0.91508 0.35172 0.0651 0.0
O8 O 0.78777 0.4888 0.79495 0.0
O9 O 0.1351 0.66067 0.97736 0.0
O10 O 0.2597 0.72475 0.24624 0.0
O11 O 0.88403 0.43668 0.44485 0.0
O12 O 0.79983 0.28135 0.78647 0.0
C13 C 0.07299 0.5326 0.48395 0.0
C14 C 0.21209 0.46206 0.08167 0.0
C15 C 0.82614 0.53731 0.96407 0.0
C16 C 0.97448 0.48337 0.55722 0.0
C17 C 0.83536 0.27371 0.95947 0.0
C18 C 0.22132 0.7349 0.07714 0.0
O19 O 0.07873 0.53454 0.30368 0.0
O20 O 0.16344 0.57635 0.59633 0.0
O21 O 0.66849 0.1288 0.95929 0.0
Mn22 Mn 0.51844 0.02119 0.01774 0.0
O23 O 0.78023 0.19163 0.23945 0.0
Mn24 Mn 0.67459 0.19818 0.33514 0.0
O25 O 0.36856 0.90687 0.06672 0.0
O26 O 0.46657 0.98537 0.72786 0.0
Mn27 Mn 0.41164 0.85112 0.66988 0.0
O28 O 0.55442 0.89835 0.04942 0.0
O29 O 0.30046 0.78724 0.80599 0.0
O30 O 0.47679 0.1391 1.01132 0.0
O31 O 0.62849 0.27181 0.17082 0.0
O32 O 0.40763 0.90611 0.43797 0.0
O33 O 0.53183 0.84202 0.74714 0.0
C34 C 0.54874 0.07886 0.46219 0.0
C35 C 0.76298 0.1833 0.05508 0.0
C36 C 0.29608 0.81864 0.97252 0.0
C37 C 0.4649 0.99389 0.5436 0.0
C38 C 0.55517 0.83492 0.92494 0.0
C39 C 0.53581 0.23634 0.07656 0.0
O40 O 0.5744 0.06447 0.30207 0.0
O41 O 0.61651 0.16663 0.56071 0.0
O42 O 0.49303 0.36762 0.9918 0.0
Mn43 Mn 0.529 0.52644 0.02341 0.0
O44 O 0.51569 0.33384 0.29423 0.0
Mn45 Mn 0.63581 0.46319 0.37133 0.0
O46 O 0.57061 0.68599 0.02984 0.0
O47 O 0.47306 0.51376 0.73908 0.0
Mn48 Mn 0.37284 0.54726 0.70594 0.0
O49 O 0.37894 0.48399 0.08184 0.0
O50 O 0.41892 0.66702 0.8701 0.0
O51 O 0.67889 0.56202 0.97448 0.0
O52 O 0.747 0.5105 0.23522 0.0
O53 O 0.43094 0.57377 0.4804 0.0
O54 O 0.2672 0.43509 0.80168 0.0
C55 C 0.58252 0.55259 0.49755 0.0
C56 C 0.49217 0.30344 0.11638 0.0
C57 C 0.51154 0.72417 0.96467 0.0
C58 C 0.49877 0.55388 0.57902 0.0
C59 C 0.28446 0.44402 0.98605 0.0
C60 C 0.75138 0.54628 0.06869 0.0
O61 O 0.58082 0.54245 0.31328 0.0
O62 O 0.63985 0.52218 0.60326 0.0
loop_
_geom_bond_atom_site_label_1
_geom_bond_atom_site_label_2
_geom_bond_distance
_geom_bond_site_symmetry_2
_ccdc_geom_bond_type
O0 Mn1 2.163 1_556 S
O0 C14 1.244 1_556 S
Mn1 O0 2.163 1_554 S
Mn1 O4 2.160 1_455 S
Mn1 O5 2.221 1_454 S
Mn1 O7 2.163 1_455 S
Mn1 O9 2.160 1_554 S
Mn1 O19 2.221 . S
O2 Mn3 2.087 . S
O2 C14 1.256 . S
Mn3 O2 2.087 . S
Mn3 O10 2.089 . S
Mn3 O19 2.290 . S
Mn3 O20 2.251 . S
O4 Mn1 2.160 1_655 S
O4 C15 1.239 1_554 S
O5 Mn1 2.221 1_656 S
O5 Mn6 2.290 . S
O5 C16 1.278 . S
Mn6 O5 2.290 . S
Mn6 O8 2.089 . S
Mn6 O11 2.251 . S
Mn6 O12 2.087 . S
O7 Mn1 2.163 1_655 S
O7 C17 1.244 1_554 S
O8 Mn6 2.089 . S
O8 C15 1.256 . S
O9 Mn1 2.160 1_556 S
O9 C18 1.239 1_556 S
O10 Mn3 2.089 . S
O10 C18 1.256 . S
O11 Mn6 2.251 . S
O11 C16 1.241 . S
O12 Mn6 2.087 . S
O12 C17 1.256 . S
C13 O19 1.278 . S
C13 O20 1.241 . S
C14 O0 1.244 1_554 S
C14 O2 1.256 . S
C15 O4 1.239 1_556 S
C15 O8 1.256 . S
C16 O5 1.278 . S
C16 O11 1.241 . S
C17 O7 1.244 1_556 S
C17 O12 1.256 . S
C18 O9 1.239 1_554 S
C18 O10 1.256 . S
O19 Mn1 2.221 . S
O19 Mn3 2.290 . S
O19 C13 1.278 . S
O20 Mn3 2.251 . S
O20 C13 1.241 . S
O21 Mn22 2.163 1_556 S
O21 C35 1.244 1_556 S
Mn22 O21 2.163 1_554 S
Mn22 O25 2.160 1_545 S
Mn22 O26 2.221 1_544 S
Mn22 O28 2.163 1_545 S
Mn22 O30 2.160 1_554 S
Mn22 O40 2.221 . S
O23 Mn24 2.087 . S
O23 C35 1.256 . S
Mn24 O23 2.087 . S
Mn24 O31 2.089 . S
Mn24 O40 2.290 . S
Mn24 O41 2.251 . S
O25 Mn22 2.160 1_565 S
O25 C36 1.239 1_554 S
O26 Mn22 2.221 1_566 S
O26 Mn27 2.290 . S
O26 C37 1.278 . S
Mn27 O26 2.290 . S
Mn27 O29 2.089 . S
Mn27 O32 2.251 . S
Mn27 O33 2.087 . S
O28 Mn22 2.163 1_565 S
O28 C38 1.244 . S
O29 Mn27 2.089 . S
O29 C36 1.256 . S
O30 Mn22 2.160 1_556 S
O30 C39 1.239 1_556 S
O31 Mn24 2.089 . S
O31 C39 1.256 . S
O32 Mn27 2.251 . S
O32 C37 1.241 . S
O33 Mn27 2.087 . S
O33 C38 1.256 1_556 S
C34 O40 1.278 . S
C34 O41 1.241 . S
C35 O21 1.244 1_554 S
C35 O23 1.256 . S
C36 O25 1.239 1_556 S
C36 O29 1.256 . S
C37 O26 1.278 . S
C37 O32 1.241 . S
C38 O28 1.244 . S
C38 O33 1.256 1_554 S
C39 O30 1.239 1_554 S
C39 O31 1.256 . S
O40 Mn22 2.221 . S
O40 Mn24 2.290 . S
O40 C34 1.278 . S
O41 Mn24 2.251 . S
O41 C34 1.241 . S
O42 Mn43 2.163 1_556 S
O42 C56 1.244 1_556 S
Mn43 O42 2.163 1_554 S
Mn43 O46 2.160 . S
Mn43 O47 2.221 1_554 S
Mn43 O49 2.163 . S
Mn43 O51 2.160 . S
Mn43 O61 2.221 . S
O44 Mn45 2.087 . S
O44 C56 1.256 . S
Mn45 O44 2.087 . S
Mn45 O52 2.089 . S
Mn45 O61 2.290 . S
Mn45 O62 2.251 . S
O46 Mn43 2.160 . S
O46 C57 1.239 . S
O47 Mn43 2.221 1_556 S
O47 Mn48 2.290 . S
O47 C58 1.278 . S
Mn48 O47 2.290 . S
Mn48 O50 2.089 . S
Mn48 O53 2.251 . S
Mn48 O54 2.087 . S
O49 Mn43 2.163 . S
O49 C59 1.244 1_554 S
O50 Mn48 2.089 . S
O50 C57 1.256 1_556 S
O51 Mn43 2.160 . S
O51 C60 1.239 . S
O52 Mn45 2.089 . S
O52 C60 1.256 . S
O53 Mn48 2.251 . S
O53 C58 1.241 . S
O54 Mn48 2.087 . S
O54 C59 1.256 . S
C55 O61 1.278 . S
C55 O62 1.241 . S
C56 O42 1.244 1_554 S
C56 O44 1.256 . S
C57 O46 1.239 . S
C57 O50 1.256 1_554 S
C58 O47 1.278 . S
C58 O53 1.241 . S
C59 O49 1.244 1_556 S
C59 O54 1.256 . S
C60 O51 1.239 . S
C60 O52 1.256 . S
O61 Mn43 2.221 . S
O61 Mn45 2.290 . S
O61 C55 1.278 . S
O62 Mn45 2.251 . S
O62 C55 1.241 . S
C16 C13 1.452 1_655 S
C34 C37 1.209 1_545 S
C58 C55 1.210 . S
C14 C59 1.282 1_554 S
C35 C17 1.282 1_554 S
C38 C57 0.999 . S
C15 C60 1.220 1_556 S
C18 C36 1.220 1_554 S
C56 C39 0.999 . S
