# Generated by pormake.
# Topology vme, (6)-cn, num edge types: 1
# Building blocks:
#     Node 0, Type 0, BuildingBlock: IZENUY_clean_sbu_0, # of connection points: 6
#     Node 1, Type 0, BuildingBlock: IZENUY_clean_sbu_0, # of connection points: 6
#     Node 2, Type 0, BuildingBlock: IZENUY_clean_sbu_0, # of connection points: 6
#     Node 3, Type 0, BuildingBlock: IZENUY_clean_sbu_0, # of connection points: 6
#     Edge 4, Type (0, 0), BuildingBlock: OJICUG_clean_linker_0, # of connection points: 2
#     Edge 5, Type (0, 0), BuildingBlock: OJICUG_clean_linker_0, # of connection points: 2
#     Edge 6, Type (0, 0), BuildingBlock: OJICUG_clean_linker_0, # of connection points: 2
#     Edge 7, Type (0, 0), BuildingBlock: OJICUG_clean_linker_0, # of connection points: 2
#     Edge 8, Type (0, 0), BuildingBlock: OJICUG_clean_linker_0, # of connection points: 2
#     Edge 9, Type (0, 0), BuildingBlock: OJICUG_clean_linker_0, # of connection points: 2
#     Edge 10, Type (0, 0), BuildingBlock: OJICUG_clean_linker_0, # of connection points: 2
#     Edge 11, Type (0, 0), BuildingBlock: OJICUG_clean_linker_0, # of connection points: 2
#     Edge 12, Type (0, 0), BuildingBlock: OJICUG_clean_linker_0, # of connection points: 2
#     Edge 13, Type (0, 0), BuildingBlock: OJICUG_clean_linker_0, # of connection points: 2
#     Edge 14, Type (0, 0), BuildingBlock: OJICUG_clean_linker_0, # of connection points: 2
#     Edge 15, Type (0, 0), BuildingBlock: OJICUG_clean_linker_0, # of connection points: 2
# Relax obj value: 0.239
# Max RMSD: 0.244
# Mean RMSD: 0.244
data_MOF--net-vme--node1-IZENUY_clean_sbu_0--edge1-OJICUG_clean_linker_0
_symmetry_space_group_name_H-M    P1
_symmetry_Int_Tables_number       1
_symmetry_cell_setting            triclinic
loop_
_symmetry_equiv_pos_as_xyz
'x, y, z'
_cell_length_a     19.155204
_cell_length_b     18.826866
_cell_length_c     20.492649
_cell_angle_alpha  89.97943
_cell_angle_beta   118.07564
_cell_angle_gamma 90.011555
loop_
_atom_site_label
_atom_site_type_symbol
_atom_site_fract_x
_atom_site_fract_y
_atom_site_fract_z
_atom_type_partial_charge
Fe0 Fe 0.12445 0.39625 0.34067 0.0
Fe1 Fe 0.28298 0.32075 0.4271 0.0
O2 O 0.21691 0.3886 0.41972 0.0
Fe3 Fe 0.24159 0.4478 0.4932 0.0
O4 O 0.16175 0.4138 0.50543 0.0
O5 O 0.07291 0.43387 0.39199 0.0
O6 O 0.0949 0.31024 0.35613 0.0
C7 C 0.1306 0.2543 0.35634 0.0
C8 C 0.15555 0.53414 0.36365 0.0
O9 O 0.20299 0.25594 0.37034 0.0
C10 C 0.38026 0.44388 0.48992 0.0
O11 O 0.16035 0.35956 0.27665 0.0
O12 O 0.28893 0.35401 0.34804 0.0
O13 O 0.18191 0.52312 0.43279 0.0
O14 O 0.15046 0.48298 0.32228 0.0
C15 C 0.29084 0.31701 0.56283 0.0
O16 O 0.37314 0.37606 0.48409 0.0
O17 O 0.32347 0.48174 0.48379 0.0
C18 C 0.23034 0.35264 0.28466 0.0
O19 O 0.278 0.28322 0.5056 0.0
O20 O 0.30332 0.38343 0.56569 0.0
C21 C 0.09211 0.42866 0.46062 0.0
Fe22 Fe 0.7758 0.82075 0.14089 0.0
Fe23 Fe 0.81731 0.94782 0.07481 0.0
O24 O 0.8419 0.88861 0.14831 0.0
Fe25 Fe 0.93431 0.89627 0.22742 0.0
O26 O 0.9639 0.81026 0.21205 0.0
O27 O 0.85575 0.75594 0.19773 0.0
O28 O 0.78088 0.78324 0.06245 0.0
C29 C 0.7681 0.81703 1.00522 0.0
C30 C 0.82828 0.85263 0.28329 0.0
O31 O 0.75562 0.88345 1.00232 0.0
C32 C 0.90323 0.03416 0.20434 0.0
O33 O 0.68568 0.87607 0.08382 0.0
O34 O 0.73537 0.98176 0.0841 0.0
O35 O 0.89831 0.85957 0.29138 0.0
O36 O 0.76974 0.854 0.21988 0.0
C37 C 0.96683 0.92864 0.10757 0.0
O38 O 0.87696 0.02313 0.13521 0.0
O39 O 0.90825 0.98299 0.24571 0.0
C40 C 0.67857 0.94389 0.07797 0.0
O41 O 0.8972 0.9138 0.06271 0.0
O42 O 0.98594 0.93388 0.17617 0.0
C43 C 0.92817 0.75432 0.21179 0.0
Fe44 Fe 0.81733 0.58697 0.57491 0.0
Fe45 Fe 0.93438 0.6385 0.72749 0.0
O46 O 0.84196 0.64616 0.64839 0.0
Fe47 Fe 0.77586 0.714 0.64096 0.0
O48 O 0.78092 0.75155 0.5625 0.0
O49 O 0.75563 0.65134 0.50241 0.0
O50 O 0.89721 0.62099 0.56276 0.0
C51 C 0.96684 0.60613 0.6076 0.0
C52 C 0.67861 0.59087 0.57809 0.0
O53 O 0.98599 0.6009 0.67622 0.0
C54 C 0.82839 0.68212 0.78339 0.0
O55 O 0.87699 0.51165 0.63533 0.0
O56 O 0.90834 0.55176 0.74582 0.0
O57 O 0.68573 0.65869 0.58393 0.0
O58 O 0.73542 0.55301 0.58426 0.0
C59 C 0.92825 0.78045 0.71183 0.0
O60 O 0.89841 0.67517 0.79146 0.0
O61 O 0.76984 0.68073 0.71998 0.0
C62 C 0.9033 0.50061 0.70447 0.0
O63 O 0.96397 0.72452 0.71208 0.0
O64 O 0.85583 0.77882 0.69777 0.0
C65 C 0.7681 0.71776 0.50528 0.0
Fe66 Fe 0.2831 0.21403 0.92724 0.0
Fe67 Fe 0.24157 0.08695 0.99328 0.0
O68 O 0.21699 0.14618 0.91979 0.0
Fe69 Fe 0.12458 0.13853 0.84067 0.0
O70 O 0.095 0.22453 0.85606 0.0
O71 O 0.20315 0.27886 0.87041 0.0
O72 O 0.27802 0.25154 1.00568 0.0
C73 C 0.29076 0.21772 0.0629 0.0
C74 C 0.23062 0.18219 0.78483 0.0
O75 O 0.30325 0.15131 0.06578 0.0
C76 C 0.15562 1.00064 0.86373 0.0
O77 O 0.37321 0.1587 0.9843 0.0
O78 O 0.32351 0.05302 0.984 0.0
O79 O 0.16059 0.17524 0.77674 0.0
O80 O 0.28916 0.18082 0.84824 0.0
C81 C 0.09205 0.10613 0.96051 0.0
O82 O 0.18192 1.01165 0.93286 0.0
O83 O 0.15062 0.05181 0.82237 0.0
C84 C 0.38032 0.09088 0.99014 0.0
O85 O 0.16167 0.12097 1.00537 0.0
O86 O 0.07293 0.10091 0.89191 0.0
C87 C 0.13073 0.28048 0.85634 0.0
C88 C 0.985 0.10627 0.31764 0.0
C89 C 0.95566 0.09571 0.24105 0.0
H90 H 0.06541 0.16372 0.41464 0.0
C91 C 0.98749 0.13651 0.2039 0.0
H92 H 0.96181 0.07594 0.34811 0.0
C93 C 0.04937 0.18435 0.24299 0.0
C94 C 0.07944 0.19329 0.31959 0.0
H95 H 0.96625 0.13005 0.14507 0.0
H96 H 0.07226 0.21591 0.21304 0.0
C97 C 0.04558 0.15512 0.35625 0.0
C98 C 0.07133 0.63644 0.36416 0.0
C99 C 0.1031 0.59569 0.32696 0.0
H100 H 0.98661 0.71584 0.3551 0.0
C101 C 0.07366 0.60628 0.25035 0.0
H102 H 0.09263 0.62996 0.423 0.0
C103 C 1.01307 0.65513 0.21179 0.0
C104 C 0.97929 0.69327 0.24851 0.0
H105 H 0.09681 0.57598 0.21985 0.0
H106 H 0.99318 0.66377 0.15339 0.0
C107 C 1.00944 0.68429 0.32512 0.0
C108 C 0.07147 0.89822 0.86424 0.0
C109 C 0.10316 0.9391 0.82702 0.0
H110 H 0.98684 0.81872 0.8552 0.0
C111 C 0.07366 0.92862 0.75039 0.0
H112 H 0.09283 0.90462 0.92309 0.0
C113 C 1.01308 0.87975 0.71183 0.0
C114 C 0.97939 0.84148 0.74857 0.0
H115 H 0.09674 0.95901 0.71987 0.0
H116 H 0.99313 0.87121 0.65342 0.0
C117 C 1.00961 0.85035 0.8252 0.0
C118 C 0.9852 0.42849 0.81777 0.0
C119 C 0.95578 0.43908 0.74117 0.0
H120 H 0.06568 0.371 0.91474 0.0
C121 C 0.98758 0.39834 0.70398 0.0
H122 H 0.96202 0.45877 0.84825 0.0
C123 C 0.04948 0.35051 0.74303 0.0
C124 C 0.07961 0.34153 0.81964 0.0
H125 H 0.96629 0.40483 0.64514 0.0
H126 H 0.07234 0.31898 0.71306 0.0
C127 C 0.0458 0.37965 0.85634 0.0
C128 C 0.05637 0.50866 0.61035 0.0
C129 C 1.00804 0.56651 0.57371 0.0
H130 H 0.11491 0.41574 0.6013 0.0
C131 C 0.98238 0.57523 0.49719 0.0
H132 H 0.07608 0.49981 0.66863 0.0
C133 C 1.00262 0.52614 0.4579 0.0
C134 C 0.05094 0.46829 0.49453 0.0
H135 H 0.94409 0.61907 0.46695 0.0
H136 H 0.98291 0.53499 0.39962 0.0
C137 C 0.07661 0.45958 0.57105 0.0
C138 C 0.98251 0.95943 0.99721 0.0
C139 C 1.00807 0.96825 0.07369 0.0
H140 H 0.98308 0.9996 0.89961 0.0
C141 C 0.05621 0.02621 0.11023 0.0
H142 H 0.94436 0.91549 0.96705 0.0
C143 C 0.07638 0.07532 0.07087 0.0
C144 C 0.05082 0.0665 0.99439 0.0
H145 H 0.07583 0.03513 0.16848 0.0
H146 H 0.11454 0.11925 0.10104 0.0
C147 C 1.00269 1.00853 0.95786 0.0
C148 C 0.31236 0.22824 0.19284 0.0
C149 C 0.27768 0.25392 0.1203 0.0
H150 H 0.32468 0.24022 0.30138 0.0
C151 C 0.2252 0.31221 0.10107 0.0
H152 H 0.35199 0.18304 0.20896 0.0
C153 C 0.2077 0.34402 0.15353 0.0
C154 C 0.24407 0.31924 0.22646 0.0
H155 H 0.1962 0.3323 0.04492 0.0
H156 H 0.16698 0.38841 0.13749 0.0
C157 C 0.29651 0.26109 0.24552 0.0
C158 C 0.85141 0.84375 0.41456 0.0
C159 C 0.81447 0.81933 0.34151 0.0
H160 H 0.86345 0.83172 0.52335 0.0
C161 C 0.76155 0.76154 0.32241 0.0
H162 H 0.89252 0.88784 0.43065 0.0
C163 C 0.74581 0.72866 0.37515 0.0
C164 C 0.78108 0.75399 0.44783 0.0
H165 H 0.73294 0.74093 0.26645 0.0
H166 H 0.7058 0.68373 0.35901 0.0
C167 C 0.83401 0.81194 0.4671 0.0
C168 C 0.83412 0.7229 0.96716 0.0
C169 C 0.78115 0.78082 0.94782 0.0
H170 H 0.89267 0.647 0.93081 0.0
C171 C 0.74587 0.80611 0.87512 0.0
H172 H 0.86356 0.70314 1.02343 0.0
C173 C 0.76164 0.77322 0.82241 0.0
C174 C 0.81459 0.71545 0.84158 0.0
H175 H 0.70584 0.85102 0.85891 0.0
H176 H 0.73302 0.7938 0.76643 0.0
C177 C 0.85154 0.69108 0.91466 0.0
C178 C 0.20752 0.19104 0.65356 0.0
C179 C 0.24444 0.21548 0.72661 0.0
H180 H 0.19551 0.20304 0.54478 0.0
C181 C 0.29735 0.27328 0.7457 0.0
H182 H 0.16642 0.14694 0.63748 0.0
C183 C 0.31311 0.30614 0.69295 0.0
C184 C 0.27785 0.2808 0.62029 0.0
H185 H 0.32594 0.2939 0.80165 0.0
H186 H 0.3531 0.35108 0.70909 0.0
C187 C 0.22493 0.22284 0.60102 0.0
C188 C 0.46107 0.55569 0.51742 0.0
C189 C 0.45694 0.48072 0.51193 0.0
H190 H 0.53333 0.64925 0.5427 0.0
C191 C 0.5263 0.44293 0.52869 0.0
H192 H 0.40878 0.58697 0.5048 0.0
C193 C 0.5978 0.47906 0.55055 0.0
C194 C 0.60192 0.55403 0.55605 0.0
H195 H 0.52553 0.3855 0.52528 0.0
H196 H 0.65008 0.44778 0.56318 0.0
C197 C 0.53257 0.59182 0.53928 0.0
C198 C 0.46112 0.97907 1.01768 0.0
C199 C 0.45698 0.05404 1.0121 0.0
H200 H 0.53337 0.88552 0.04293 0.0
C201 C 0.5263 0.09183 1.02868 0.0
H202 H 0.40886 0.9478 1.00521 0.0
C203 C 0.59777 0.0557 0.05043 0.0
C204 C 0.6019 0.98073 0.05601 0.0
H205 H 0.52552 0.14925 1.02518 0.0
H206 H 0.65003 0.08698 0.0629 0.0
C207 C 0.53259 0.94295 0.03944 0.0
loop_
_geom_bond_atom_site_label_1
_geom_bond_atom_site_label_2
_geom_bond_distance
_geom_bond_site_symmetry_2
_ccdc_geom_bond_type
Fe0 O2 1.918 . S
Fe0 O5 1.997 . S
Fe0 O6 2.002 . S
Fe0 O11 1.976 . S
Fe0 O14 1.996 . S
Fe1 O2 1.918 . S
Fe1 O9 1.997 . S
Fe1 O12 1.996 . S
Fe1 O16 1.976 . S
Fe1 O19 2.002 . S
O2 Fe0 1.918 . S
O2 Fe1 1.918 . S
O2 Fe3 1.918 . S
Fe3 O2 1.918 . S
Fe3 O4 2.002 . S
Fe3 O13 1.976 . S
Fe3 O17 1.996 . S
Fe3 O20 1.997 . S
O4 Fe3 2.002 . S
O4 C21 1.295 . S
O5 Fe0 1.997 . S
O5 C21 1.235 . S
O6 Fe0 2.002 . S
O6 C7 1.295 . S
C7 O6 1.295 . S
C7 O9 1.235 . S
C8 O13 1.287 . S
C8 O14 1.255 . S
O9 Fe1 1.997 . S
O9 C7 1.235 . S
C10 O16 1.287 . S
C10 O17 1.255 . S
O11 Fe0 1.976 . S
O11 C18 1.287 . S
O12 Fe1 1.996 . S
O12 C18 1.255 . S
O13 Fe3 1.976 . S
O13 C8 1.287 . S
O14 Fe0 1.996 . S
O14 C8 1.255 . S
C15 O19 1.295 . S
C15 O20 1.235 . S
O16 Fe1 1.976 . S
O16 C10 1.287 . S
O17 Fe3 1.996 . S
O17 C10 1.255 . S
C18 O11 1.287 . S
C18 O12 1.255 . S
O19 Fe1 2.002 . S
O19 C15 1.295 . S
O20 Fe3 1.997 . S
O20 C15 1.235 . S
C21 O4 1.295 . S
C21 O5 1.235 . S
Fe22 O24 1.918 . S
Fe22 O27 1.997 . S
Fe22 O28 2.002 . S
Fe22 O33 1.976 . S
Fe22 O36 1.996 . S
Fe23 O24 1.918 . S
Fe23 O31 1.997 1_554 S
Fe23 O34 1.996 . S
Fe23 O38 1.976 1_565 S
Fe23 O41 2.002 . S
O24 Fe22 1.918 . S
O24 Fe23 1.918 . S
O24 Fe25 1.918 . S
Fe25 O24 1.918 . S
Fe25 O26 2.002 . S
Fe25 O35 1.976 . S
Fe25 O39 1.996 . S
Fe25 O42 1.997 . S
O26 Fe25 2.002 . S
O26 C43 1.295 . S
O27 Fe22 1.997 . S
O27 C43 1.235 . S
O28 Fe22 2.002 . S
O28 C29 1.295 1_554 S
C29 O28 1.295 1_556 S
C29 O31 1.235 . S
C30 O35 1.287 . S
C30 O36 1.255 . S
O31 Fe23 1.997 1_556 S
O31 C29 1.235 . S
C32 O38 1.287 . S
C32 O39 1.255 1_545 S
O33 Fe22 1.976 . S
O33 C40 1.287 . S
O34 Fe23 1.996 . S
O34 C40 1.255 . S
O35 Fe25 1.976 . S
O35 C30 1.287 . S
O36 Fe22 1.996 . S
O36 C30 1.255 . S
C37 O41 1.295 . S
C37 O42 1.235 . S
O38 Fe23 1.976 1_545 S
O38 C32 1.287 . S
O39 Fe25 1.996 . S
O39 C32 1.255 1_565 S
C40 O33 1.287 . S
C40 O34 1.255 . S
O41 Fe23 2.002 . S
O41 C37 1.295 . S
O42 Fe25 1.997 . S
O42 C37 1.235 . S
C43 O26 1.295 . S
C43 O27 1.235 . S
Fe44 O46 1.918 . S
Fe44 O49 1.997 . S
Fe44 O50 2.002 . S
Fe44 O55 1.976 . S
Fe44 O58 1.996 . S
Fe45 O46 1.918 . S
Fe45 O53 1.997 . S
Fe45 O56 1.996 . S
Fe45 O60 1.976 . S
Fe45 O63 2.002 . S
O46 Fe44 1.918 . S
O46 Fe45 1.918 . S
O46 Fe47 1.918 . S
Fe47 O46 1.918 . S
Fe47 O48 2.002 . S
Fe47 O57 1.976 . S
Fe47 O61 1.996 . S
Fe47 O64 1.997 . S
O48 Fe47 2.002 . S
O48 C65 1.295 . S
O49 Fe44 1.997 . S
O49 C65 1.235 . S
O50 Fe44 2.002 . S
O50 C51 1.295 . S
C51 O50 1.295 . S
C51 O53 1.235 . S
C52 O57 1.287 . S
C52 O58 1.255 . S
O53 Fe45 1.997 . S
O53 C51 1.235 . S
C54 O60 1.287 . S
C54 O61 1.255 . S
O55 Fe44 1.976 . S
O55 C62 1.287 . S
O56 Fe45 1.996 . S
O56 C62 1.255 . S
O57 Fe47 1.976 . S
O57 C52 1.287 . S
O58 Fe44 1.996 . S
O58 C52 1.255 . S
C59 O63 1.295 . S
C59 O64 1.235 . S
O60 Fe45 1.976 . S
O60 C54 1.287 . S
O61 Fe47 1.996 . S
O61 C54 1.255 . S
C62 O55 1.287 . S
C62 O56 1.255 . S
O63 Fe45 2.002 . S
O63 C59 1.295 . S
O64 Fe47 1.997 . S
O64 C59 1.235 . S
C65 O48 1.295 . S
C65 O49 1.235 . S
Fe66 O68 1.918 . S
Fe66 O71 1.997 . S
Fe66 O72 2.002 . S
Fe66 O77 1.976 . S
Fe66 O80 1.996 . S
Fe67 O68 1.918 . S
Fe67 O75 1.997 1_556 S
Fe67 O78 1.996 . S
Fe67 O82 1.976 1_545 S
Fe67 O85 2.002 . S
O68 Fe66 1.918 . S
O68 Fe67 1.918 . S
O68 Fe69 1.918 . S
Fe69 O68 1.918 . S
Fe69 O70 2.002 . S
Fe69 O79 1.976 . S
Fe69 O83 1.996 . S
Fe69 O86 1.997 . S
O70 Fe69 2.002 . S
O70 C87 1.295 . S
O71 Fe66 1.997 . S
O71 C87 1.235 . S
O72 Fe66 2.002 . S
O72 C73 1.295 1_556 S
C73 O72 1.295 1_554 S
C73 O75 1.235 . S
C74 O79 1.287 . S
C74 O80 1.255 . S
O75 Fe67 1.997 1_554 S
O75 C73 1.235 . S
C76 O82 1.287 . S
C76 O83 1.255 1_565 S
O77 Fe66 1.976 . S
O77 C84 1.287 . S
O78 Fe67 1.996 . S
O78 C84 1.255 . S
O79 Fe69 1.976 . S
O79 C74 1.287 . S
O80 Fe66 1.996 . S
O80 C74 1.255 . S
C81 O85 1.295 . S
C81 O86 1.235 . S
O82 Fe67 1.976 1_565 S
O82 C76 1.287 . S
O83 Fe69 1.996 . S
O83 C76 1.255 1_545 S
C84 O77 1.287 . S
C84 O78 1.255 . S
O85 Fe67 2.002 . S
O85 C81 1.295 . S
O86 Fe69 1.997 . S
O86 C81 1.235 . S
C87 O70 1.295 . S
C87 O71 1.235 . S
C88 C89 1.387 . S
C88 H92 0.950 . S
C88 C97 1.390 1_655 S
C89 C88 1.387 . S
C89 C91 1.387 . S
H90 C97 0.950 . S
C91 C89 1.387 . S
C91 C93 1.390 . S
C91 H95 0.950 . S
H92 C88 0.950 . S
C93 C91 1.390 . S
C93 C94 1.387 1_655 S
C93 H96 0.950 1_655 S
C94 C93 1.387 1_455 S
C94 C97 1.387 . S
H95 C91 0.950 . S
H96 C93 0.950 1_455 S
C97 C88 1.390 1_455 S
C97 H90 0.950 . S
C97 C94 1.387 . S
C98 C99 1.387 . S
C98 H102 0.950 . S
C98 C107 1.390 1_455 S
C99 C98 1.387 . S
C99 C101 1.387 . S
H100 C107 0.950 . S
C101 C99 1.387 . S
C101 C103 1.390 . S
C101 H105 0.950 . S
H102 C98 0.950 . S
C103 C101 1.390 . S
C103 C104 1.387 1_455 S
C103 H106 0.950 1_455 S
C104 C103 1.387 1_655 S
C104 C107 1.387 . S
H105 C101 0.950 . S
H106 C103 0.950 1_655 S
C107 C98 1.390 1_655 S
C107 H100 0.950 . S
C107 C104 1.387 . S
C108 C109 1.387 . S
C108 H112 0.950 . S
C108 C117 1.390 . S
C109 C108 1.387 . S
C109 C111 1.387 . S
H110 C117 0.950 . S
C111 C109 1.387 . S
C111 C113 1.390 1_455 S
C111 H115 0.950 . S
H112 C108 0.950 . S
C113 C111 1.390 1_655 S
C113 C114 1.387 . S
C113 H116 0.950 . S
C114 C113 1.387 . S
C114 C117 1.387 1_655 S
H115 C111 0.950 . S
H116 C113 0.950 . S
C117 C108 1.390 . S
C117 H110 0.950 . S
C117 C114 1.387 1_455 S
C118 C119 1.387 . S
C118 H122 0.950 . S
C118 C127 1.390 1_655 S
C119 C118 1.387 . S
C119 C121 1.387 . S
H120 C127 0.950 . S
C121 C119 1.387 . S
C121 C123 1.390 . S
C121 H125 0.950 . S
H122 C118 0.950 . S
C123 C121 1.390 . S
C123 C124 1.387 1_655 S
C123 H126 0.950 . S
C124 C123 1.387 1_455 S
C124 C127 1.387 . S
H125 C121 0.950 . S
H126 C123 0.950 . S
C127 C118 1.390 1_455 S
C127 H120 0.950 . S
C127 C124 1.387 . S
C128 C129 1.387 1_455 S
C128 H132 0.950 . S
C128 C137 1.390 . S
C129 C128 1.387 1_655 S
C129 C131 1.387 . S
H130 C137 0.950 . S
C131 C129 1.387 . S
C131 C133 1.390 . S
C131 H135 0.950 . S
H132 C128 0.950 . S
C133 C131 1.390 . S
C133 C134 1.387 1_655 S
C133 H136 0.950 . S
C134 C133 1.387 1_455 S
C134 C137 1.387 . S
H135 C131 0.950 . S
H136 C133 0.950 . S
C137 C128 1.390 . S
C137 H130 0.950 . S
C137 C134 1.387 . S
C138 C139 1.387 1_455 S
C138 H142 0.950 . S
C138 C147 1.390 1_554 S
C139 C138 1.387 1_655 S
C139 C141 1.387 1_565 S
H140 C147 0.950 . S
C141 C139 1.387 1_545 S
C141 C143 1.390 1_554 S
C141 H145 0.950 . S
H142 C138 0.950 . S
C143 C141 1.390 1_556 S
C143 C144 1.387 1_655 S
C143 H146 0.950 . S
C144 C143 1.387 1_455 S
C144 C147 1.387 1_545 S
H145 C141 0.950 . S
H146 C143 0.950 . S
C147 C138 1.390 1_556 S
C147 H140 0.950 . S
C147 C144 1.387 1_565 S
C148 C149 1.387 . S
C148 H152 0.950 . S
C148 C157 1.390 . S
C149 C148 1.387 . S
C149 C151 1.387 . S
H150 C157 0.950 . S
C151 C149 1.387 . S
C151 C153 1.390 . S
C151 H155 0.950 . S
H152 C148 0.950 . S
C153 C151 1.390 . S
C153 C154 1.387 . S
C153 H156 0.950 . S
C154 C153 1.387 . S
C154 C157 1.387 . S
H155 C151 0.950 . S
H156 C153 0.950 . S
C157 C148 1.390 . S
C157 H150 0.950 . S
C157 C154 1.387 . S
C158 C159 1.387 . S
C158 H162 0.950 . S
C158 C167 1.390 . S
C159 C158 1.387 . S
C159 C161 1.387 . S
H160 C167 0.950 . S
C161 C159 1.387 . S
C161 C163 1.390 . S
C161 H165 0.950 . S
H162 C158 0.950 . S
C163 C161 1.390 . S
C163 C164 1.387 . S
C163 H166 0.950 . S
C164 C163 1.387 . S
C164 C167 1.387 . S
H165 C161 0.950 . S
H166 C163 0.950 . S
C167 C158 1.390 . S
C167 H160 0.950 . S
C167 C164 1.387 . S
C168 C169 1.387 . S
C168 H172 0.950 . S
C168 C177 1.390 . S
C169 C168 1.387 . S
C169 C171 1.387 . S
H170 C177 0.950 . S
C171 C169 1.387 . S
C171 C173 1.390 . S
C171 H175 0.950 . S
H172 C168 0.950 . S
C173 C171 1.390 . S
C173 C174 1.387 . S
C173 H176 0.950 . S
C174 C173 1.387 . S
C174 C177 1.387 . S
H175 C171 0.950 . S
H176 C173 0.950 . S
C177 C168 1.390 . S
C177 H170 0.950 . S
C177 C174 1.387 . S
C178 C179 1.387 . S
C178 H182 0.950 . S
C178 C187 1.390 . S
C179 C178 1.387 . S
C179 C181 1.387 . S
H180 C187 0.950 . S
C181 C179 1.387 . S
C181 C183 1.390 . S
C181 H185 0.950 . S
H182 C178 0.950 . S
C183 C181 1.390 . S
C183 C184 1.387 . S
C183 H186 0.950 . S
C184 C183 1.387 . S
C184 C187 1.387 . S
H185 C181 0.950 . S
H186 C183 0.950 . S
C187 C178 1.390 . S
C187 H180 0.950 . S
C187 C184 1.387 . S
C188 C189 1.387 . S
C188 H192 0.950 . S
C188 C197 1.390 . S
C189 C188 1.387 . S
C189 C191 1.387 . S
H190 C197 0.950 . S
C191 C189 1.387 . S
C191 C193 1.390 . S
C191 H195 0.950 . S
H192 C188 0.950 . S
C193 C191 1.390 . S
C193 C194 1.387 . S
C193 H196 0.950 . S
C194 C193 1.387 . S
C194 C197 1.387 . S
H195 C191 0.950 . S
H196 C193 0.950 . S
C197 C188 1.390 . S
C197 H190 0.950 . S
C197 C194 1.387 . S
C198 C199 1.387 1_554 S
C198 H202 0.950 . S
C198 C207 1.390 1_545 S
C199 C198 1.387 1_556 S
C199 C201 1.387 . S
H200 C207 0.950 . S
C201 C199 1.387 . S
C201 C203 1.390 1_545 S
C201 H205 0.950 . S
H202 C198 0.950 . S
C203 C201 1.390 1_565 S
C203 C204 1.387 1_556 S
C203 H206 0.950 . S
C204 C203 1.387 1_554 S
C204 C207 1.387 . S
H205 C201 0.950 . S
H206 C203 0.950 . S
C207 C198 1.390 1_565 S
C207 H200 0.950 . S
C207 C204 1.387 . S
C89 C32 1.542 . S
C94 C7 1.585 . S
C99 C8 1.538 . S
C104 C43 1.583 . S
C109 C76 1.538 . S
C114 C59 1.583 . S
C119 C62 1.539 . S
C124 C87 1.585 . S
C129 C51 1.231 . S
C134 C21 1.231 . S
C139 C37 1.231 . S
C144 C81 1.231 . S
C149 C73 1.638 . S
C154 C18 1.627 . S
C159 C30 1.625 . S
C164 C65 1.637 . S
C169 C29 1.636 . S
C174 C54 1.625 . S
C179 C74 1.627 . S
C184 C15 1.638 . S
C189 C10 1.566 . S
C194 C52 1.566 . S
C199 C84 1.568 . S
C204 C40 1.568 . S
