# Generated by pormake.
# Topology msw, (6)-cn, num edge types: 1
# Building blocks:
#     Node 0, Type 0, BuildingBlock: VOLQOD_clean_sbu_1, # of connection points: 6
#     Node 1, Type 0, BuildingBlock: VOLQOD_clean_sbu_1, # of connection points: 6
#     Edge 2, Type (0, 0), BuildingBlock: CIFDUS_clean_linker_0, # of connection points: 2
#     Edge 3, Type (0, 0), BuildingBlock: CIFDUS_clean_linker_0, # of connection points: 2
#     Edge 4, Type (0, 0), BuildingBlock: CIFDUS_clean_linker_0, # of connection points: 2
#     Edge 5, Type (0, 0), BuildingBlock: CIFDUS_clean_linker_0, # of connection points: 2
#     Edge 6, Type (0, 0), BuildingBlock: CIFDUS_clean_linker_0, # of connection points: 2
#     Edge 7, Type (0, 0), BuildingBlock: CIFDUS_clean_linker_0, # of connection points: 2
# Relax obj value: 0.245
# Max RMSD: 0.191
# Mean RMSD: 0.191
data_MOF--net-msw--node1-VOLQOD_clean_sbu_1--edge1-CIFDUS_clean_linker_0
_symmetry_space_group_name_H-M    P1
_symmetry_Int_Tables_number       1
_symmetry_cell_setting            triclinic
loop_
_symmetry_equiv_pos_as_xyz
'x, y, z'
_cell_length_a     17.602554
_cell_length_b     17.537416
_cell_length_c     14.827946
_cell_angle_alpha  90.921387
_cell_angle_beta   90.198312
_cell_angle_gamma 90.877282
loop_
_atom_site_label
_atom_site_type_symbol
_atom_site_fract_x
_atom_site_fract_y
_atom_site_fract_z
_atom_type_partial_charge
O0 O 0.83811 0.27354 0.36298 0.0
Zn1 Zn 0.89138 0.2814 0.24441 0.0
O2 O 0.82122 0.32777 0.16754 0.0
Zn3 Zn 0.77617 0.25235 0.09253 0.0
Zn4 Zn 0.74353 0.37656 0.23177 0.0
Zn5 Zn 0.87325 0.39937 0.0969 0.0
O6 O 0.77124 0.29898 -0.02959 0.0
O7 O 0.89068 0.34509 -0.02078 0.0
O8 O 0.93803 0.18725 0.18024 0.0
O9 O 0.85251 0.17242 0.07057 0.0
O10 O 0.68129 0.20643 0.15417 0.0
O11 O 0.66002 0.30156 0.25098 0.0
O12 O 0.70603 0.46983 0.16246 0.0
O13 O 0.97202 0.35771 0.275 0.0
O14 O 0.7995 0.47949 0.06244 0.0
O15 O 0.96404 0.44569 0.16934 0.0
C16 C 0.80634 0.33063 0.40176 0.0
C17 C 0.83369 0.31977 -0.06681 0.0
C18 C 0.64422 0.23516 0.22025 0.0
C19 C 0.91473 0.15412 0.10739 0.0
C20 C 0.73537 0.50035 0.09257 0.0
C21 C 0.99338 0.42097 0.24227 0.0
O22 O 0.78165 0.38765 0.35798 0.0
O23 O 0.38158 0.80269 0.47742 0.0
Zn24 Zn 0.37674 0.75577 0.59941 0.0
O25 O 0.33241 0.82969 0.67489 0.0
Zn26 Zn 0.41162 0.8792 0.73886 0.0
Zn27 Zn 0.28088 0.89984 0.60339 0.0
Zn28 Zn 0.26106 0.78278 0.75091 0.0
O29 O 0.37363 0.89094 0.8646 0.0
O30 O 0.31417 0.77655 0.87016 0.0
O31 O 0.47171 0.71114 0.65955 0.0
O32 O 0.49377 0.80476 0.7591 0.0
O33 O 0.45068 0.97183 0.6674 0.0
O34 O 0.35578 0.98038 0.56861 0.0
O35 O 0.19057 0.94526 0.67392 0.0
O36 O 0.29971 0.6746 0.57729 0.0
O37 O 0.18095 0.8579 0.78023 0.0
O38 O 0.21357 0.68782 0.68544 0.0
C39 C 0.31912 0.8218 0.43992 0.0
C40 C 0.34723 0.83417 0.90872 0.0
C41 C 0.42098 1.00161 0.59752 0.0
C42 C 0.50909 0.73932 0.72666 0.0
C43 C 0.16045 0.92053 0.74654 0.0
C44 C 0.23699 0.65522 0.61292 0.0
O45 O 0.26226 0.84511 0.48581 0.0
H46 H 0.72621 0.35538 0.81286 0.0
H47 H 0.95568 0.27511 0.83607 0.0
H48 H 0.96629 0.26775 0.67162 0.0
H49 H 0.91052 0.28646 0.52187 0.0
H50 H 0.68499 0.37683 0.49887 0.0
H51 H 0.67205 0.37822 0.66325 0.0
C52 C 0.77821 0.33591 0.78147 0.0
C53 C 0.83991 0.3153 0.83518 0.0
C54 C 0.78447 0.33396 0.68758 0.0
C55 C 0.90771 0.2914 0.79502 0.0
C56 C 0.91368 0.28705 0.70144 0.0
C57 C 0.85854 0.30595 0.55327 0.0
C58 C 0.7986 0.33109 0.49967 0.0
C59 C 0.8525 0.30846 0.64719 0.0
C60 C 0.73179 0.35756 0.53989 0.0
C61 C 0.72435 0.35814 0.6334 0.0
H62 H 0.42625 0.86225 0.32086 0.0
H63 H 0.19725 0.77353 0.34142 0.0
H64 H 0.18682 0.76624 0.17684 0.0
H65 H 0.24281 0.78687 0.02779 0.0
H66 H 0.46787 0.88553 0.00739 0.0
H67 H 0.48031 0.88771 0.17191 0.0
C68 C 0.37437 0.84103 0.28887 0.0
C69 C 0.31281 0.81784 0.34186 0.0
C70 C 0.36819 0.83916 0.19491 0.0
C71 C 0.24514 0.79171 0.30092 0.0
C72 C 0.23927 0.78742 0.20727 0.0
C73 C 0.29459 0.80836 0.05976 0.0
C74 C 0.35456 0.83552 0.0068 0.0
C75 C 0.3004 0.81117 0.15374 0.0
C76 C 0.42105 0.86462 0.04783 0.0
C77 C 0.42822 0.86565 0.14144 0.0
H78 H 0.52573 0.74201 0.90723 0.0
H79 H 0.60498 0.62624 0.66733 0.0
H80 H 0.685 0.54479 0.76054 0.0
H81 H 0.72986 0.50543 0.91061 0.0
H82 H 0.63958 0.61283 0.15017 0.0
H83 H 0.56596 0.6993 0.05646 0.0
C84 C 0.56134 0.69965 0.87501 0.0
C85 C 0.56075 0.69124 0.78011 0.0
C86 C 0.60471 0.65163 -0.07088 0.0
C87 C 0.60517 0.63439 0.73989 0.0
C88 C 0.6507 0.58788 0.79326 0.0
C89 C 0.69456 0.54832 -0.0577 0.0
C90 C 0.69102 0.55375 0.03735 0.0
C91 C 0.65068 0.59591 0.88793 0.0
C92 C 0.64353 0.60798 0.07743 0.0
C93 C 0.6016 0.65731 0.02381 0.0
H94 H 1.00459 0.42384 0.4242 0.0
H95 H 0.09744 0.52876 0.18656 0.0
H96 H 0.18242 0.60808 0.28183 0.0
H97 H 0.22948 0.64702 0.43178 0.0
H98 H 0.12941 0.55062 0.67032 0.0
H99 H 1.04742 0.46768 0.57504 0.0
C100 C 1.04396 0.46358 0.39303 0.0
C101 C 1.04578 0.46945 0.29804 0.0
C102 C 0.09094 0.51016 0.44833 0.0
C103 C 0.09543 0.52275 0.2591 0.0
C104 C 0.14391 0.56795 0.31363 0.0
C105 C 0.19018 0.60738 0.46322 0.0
C106 C 0.18651 0.60384 0.55827 0.0
C107 C 0.14216 0.56192 0.40816 0.0
C108 C 0.13376 0.55387 0.59764 0.0
C109 C 0.08703 0.50661 0.54309 0.0
H110 H 0.14595 0.92428 -0.0718 0.0
H111 H 1.05859 1.02586 0.68658 0.0
H112 H 0.97318 0.10447 0.77822 0.0
H113 H 0.92439 0.14419 -0.07365 0.0
H114 H 1.01936 1.05136 0.16892 0.0
H115 H 0.1013 0.96872 0.07717 0.0
C116 C 0.10768 0.96311 0.89536 0.0
C117 C 0.10762 0.96827 0.80029 0.0
C118 C 1.06046 1.0094 -0.05134 0.0
C119 C 1.0593 1.0204 0.75923 0.0
C120 C 1.01055 1.06523 0.81169 0.0
C121 C 0.96254 0.10535 -0.04062 0.0
C122 C 0.9648 0.10279 0.05457 0.0
C123 C 1.01067 1.06004 0.90632 0.0
C124 C 1.0161 1.05387 0.09607 0.0
C125 C 1.06282 1.00676 0.04354 0.0
H126 H 0.42297 1.0029 0.41552 0.0
H127 H 0.52177 0.11488 0.65007 0.0
H128 H 0.59574 0.19955 0.55221 0.0
H129 H 0.63306 0.23983 0.40092 0.0
H130 H 0.54486 0.1198 0.1659 0.0
H131 H 0.46539 1.03936 0.26333 0.0
C132 C 0.46024 1.04636 0.44523 0.0
C133 C 0.46601 1.05373 0.54005 0.0
C134 C 0.50416 0.0929 0.38852 0.0
C135 C 0.51604 0.10862 0.57756 0.0
C136 C 0.55816 0.15689 0.52158 0.0
C137 C 0.59566 0.19672 0.37068 0.0
C138 C 0.59342 0.18688 0.27596 0.0
C139 C 0.55257 0.14946 0.42712 0.0
C140 C 0.5468 0.12905 0.23827 0.0
C141 C 0.50159 0.08316 0.29404 0.0
loop_
_geom_bond_atom_site_label_1
_geom_bond_atom_site_label_2
_geom_bond_distance
_geom_bond_site_symmetry_2
_ccdc_geom_bond_type
O0 Zn1 1.953 . S
O0 C16 1.225 . S
Zn1 O0 1.953 . S
Zn1 O2 1.949 . S
Zn1 O8 1.919 . S
Zn1 O13 1.924 . S
O2 Zn1 1.949 . S
O2 Zn3 1.923 . S
O2 Zn4 1.950 . S
O2 Zn5 1.945 . S
Zn3 O2 1.923 . S
Zn3 O6 1.933 . S
Zn3 O9 1.941 . S
Zn3 O10 1.965 . S
Zn4 O2 1.950 . S
Zn4 O11 1.938 . S
Zn4 O12 1.906 . S
Zn4 O22 1.953 . S
Zn5 O2 1.945 . S
Zn5 O7 1.932 . S
Zn5 O14 1.977 . S
Zn5 O15 1.910 . S
O6 Zn3 1.933 . S
O6 C17 1.226 1_554 S
O7 Zn5 1.932 . S
O7 C17 1.307 1_554 S
O8 Zn1 1.919 . S
O8 C19 1.253 . S
O9 Zn3 1.941 . S
O9 C19 1.283 . S
O10 Zn3 1.965 . S
O10 C18 1.303 . S
O11 Zn4 1.938 . S
O11 C18 1.247 . S
O12 Zn4 1.906 . S
O12 C20 1.304 . S
O13 Zn1 1.924 . S
O13 C21 1.311 . S
O14 Zn5 1.977 . S
O14 C20 1.272 . S
O15 Zn5 1.910 . S
O15 C21 1.231 . S
C16 O0 1.225 . S
C16 O22 1.298 . S
C17 O6 1.226 1_556 S
C17 O7 1.307 1_556 S
C18 O10 1.303 . S
C18 O11 1.247 . S
C19 O8 1.253 . S
C19 O9 1.283 . S
C20 O12 1.304 . S
C20 O14 1.272 . S
C21 O13 1.311 . S
C21 O15 1.231 . S
O22 Zn4 1.953 . S
O22 C16 1.298 . S
O23 Zn24 1.953 . S
O23 C39 1.225 . S
Zn24 O23 1.953 . S
Zn24 O25 1.949 . S
Zn24 O31 1.919 . S
Zn24 O36 1.924 . S
O25 Zn24 1.949 . S
O25 Zn26 1.923 . S
O25 Zn27 1.950 . S
O25 Zn28 1.945 . S
Zn26 O25 1.923 . S
Zn26 O29 1.933 . S
Zn26 O32 1.941 . S
Zn26 O33 1.965 . S
Zn27 O25 1.950 . S
Zn27 O34 1.938 . S
Zn27 O35 1.906 . S
Zn27 O45 1.953 . S
Zn28 O25 1.945 . S
Zn28 O30 1.932 . S
Zn28 O37 1.977 . S
Zn28 O38 1.910 . S
O29 Zn26 1.933 . S
O29 C40 1.226 1_556 S
O30 Zn28 1.932 . S
O30 C40 1.307 1_556 S
O31 Zn24 1.919 . S
O31 C42 1.253 . S
O32 Zn26 1.941 . S
O32 C42 1.283 . S
O33 Zn26 1.965 . S
O33 C41 1.303 . S
O34 Zn27 1.938 . S
O34 C41 1.247 . S
O35 Zn27 1.906 . S
O35 C43 1.304 . S
O36 Zn24 1.924 . S
O36 C44 1.311 . S
O37 Zn28 1.977 . S
O37 C43 1.272 . S
O38 Zn28 1.910 . S
O38 C44 1.231 . S
C39 O23 1.225 . S
C39 O45 1.298 . S
C40 O29 1.226 1_554 S
C40 O30 1.307 1_554 S
C41 O33 1.303 . S
C41 O34 1.247 . S
C42 O31 1.253 . S
C42 O32 1.283 . S
C43 O35 1.304 . S
C43 O37 1.272 . S
C44 O36 1.311 . S
C44 O38 1.231 . S
O45 Zn27 1.953 . S
O45 C39 1.298 . S
H46 C52 0.930 . S
H47 C55 0.930 . S
H48 C56 0.930 . S
H49 C57 0.930 . S
H50 C60 0.930 . S
H51 C61 0.930 . S
C52 H46 0.930 . S
C52 C53 1.355 . S
C52 C54 1.415 . S
C53 C52 1.355 . S
C53 C55 1.419 . S
C54 C52 1.415 . S
C54 C59 1.425 . S
C54 C61 1.409 . S
C55 H47 0.930 . S
C55 C53 1.419 . S
C55 C56 1.362 . S
C56 H48 0.930 . S
C56 C55 1.362 . S
C56 C59 1.409 . S
C57 H49 0.930 . S
C57 C58 1.355 . S
C57 C59 1.415 . S
C58 C57 1.355 . S
C58 C60 1.419 . S
C59 C54 1.425 . S
C59 C56 1.409 . S
C59 C57 1.415 . S
C60 H50 0.930 . S
C60 C58 1.419 . S
C60 C61 1.362 . S
C61 H51 0.930 . S
C61 C54 1.409 . S
C61 C60 1.362 . S
H62 C68 0.930 . S
H63 C71 0.930 . S
H64 C72 0.930 . S
H65 C73 0.930 . S
H66 C76 0.930 . S
H67 C77 0.930 . S
C68 H62 0.930 . S
C68 C69 1.355 . S
C68 C70 1.415 . S
C69 C68 1.355 . S
C69 C71 1.419 . S
C70 C68 1.415 . S
C70 C75 1.425 . S
C70 C77 1.409 . S
C71 H63 0.930 . S
C71 C69 1.419 . S
C71 C72 1.362 . S
C72 H64 0.930 . S
C72 C71 1.362 . S
C72 C75 1.409 . S
C73 H65 0.930 . S
C73 C74 1.355 . S
C73 C75 1.415 . S
C74 C73 1.355 . S
C74 C76 1.419 . S
C75 C70 1.425 . S
C75 C72 1.409 . S
C75 C73 1.415 . S
C76 H66 0.930 . S
C76 C74 1.419 . S
C76 C77 1.362 . S
C77 H67 0.930 . S
C77 C70 1.409 . S
C77 C76 1.362 . S
H78 C84 0.930 . S
H79 C87 0.930 . S
H80 C88 0.930 . S
H81 C89 0.930 . S
H82 C92 0.930 . S
H83 C93 0.930 . S
C84 H78 0.930 . S
C84 C85 1.355 . S
C84 C86 1.415 1_556 S
C85 C84 1.355 . S
C85 C87 1.419 . S
C86 C84 1.415 1_554 S
C86 C91 1.425 1_554 S
C86 C93 1.409 . S
C87 H79 0.930 . S
C87 C85 1.419 . S
C87 C88 1.362 . S
C88 H80 0.930 . S
C88 C87 1.362 . S
C88 C91 1.409 . S
C89 H81 0.930 . S
C89 C90 1.355 . S
C89 C91 1.415 1_554 S
C90 C89 1.355 . S
C90 C92 1.419 . S
C91 C86 1.425 1_556 S
C91 C88 1.409 . S
C91 C89 1.415 1_556 S
C92 H82 0.930 . S
C92 C90 1.419 . S
C92 C93 1.362 . S
C93 H83 0.930 . S
C93 C86 1.409 . S
C93 C92 1.362 . S
H94 C100 0.930 . S
H95 C103 0.930 . S
H96 C104 0.930 . S
H97 C105 0.930 . S
H98 C108 0.930 . S
H99 C109 0.930 . S
C100 H94 0.930 . S
C100 C101 1.355 . S
C100 C102 1.415 . S
C101 C100 1.355 . S
C101 C103 1.419 . S
C102 C100 1.415 . S
C102 C107 1.425 1_655 S
C102 C109 1.409 . S
C103 H95 0.930 . S
C103 C101 1.419 . S
C103 C104 1.362 1_655 S
C104 H96 0.930 . S
C104 C103 1.362 1_455 S
C104 C107 1.409 . S
C105 H97 0.930 . S
C105 C106 1.355 . S
C105 C107 1.415 . S
C106 C105 1.355 . S
C106 C108 1.419 . S
C107 C102 1.425 1_455 S
C107 C104 1.409 . S
C107 C105 1.415 . S
C108 H98 0.930 . S
C108 C106 1.419 . S
C108 C109 1.362 1_455 S
C109 H99 0.930 . S
C109 C102 1.409 . S
C109 C108 1.362 1_655 S
H110 C116 0.930 1_545 S
H111 C119 0.930 1_554 S
H112 C120 0.930 . S
H113 C121 0.930 1_565 S
H114 C124 0.930 1_556 S
H115 C125 0.930 . S
C116 H110 0.930 1_565 S
C116 C117 1.355 . S
C116 C118 1.415 1_465 S
C117 C116 1.355 . S
C117 C119 1.419 . S
C118 C116 1.415 1_645 S
C118 C123 1.425 1_546 S
C118 C125 1.409 . S
C119 H111 0.930 1_556 S
C119 C117 1.419 . S
C119 C120 1.362 1_556 S
C120 H112 0.930 . S
C120 C119 1.362 1_554 S
C120 C123 1.409 1_455 S
C121 H113 0.930 1_545 S
C121 C122 1.355 . S
C121 C123 1.415 1_545 S
C122 C121 1.355 . S
C122 C124 1.419 . S
C123 C118 1.425 1_564 S
C123 C120 1.409 1_655 S
C123 C121 1.415 1_565 S
C124 H114 0.930 1_554 S
C124 C122 1.419 . S
C124 C125 1.362 1_554 S
C125 H115 0.930 . S
C125 C118 1.409 . S
C125 C124 1.362 1_556 S
H126 C132 0.930 . S
H127 C135 0.930 . S
H128 C136 0.930 . S
H129 C137 0.930 . S
H130 C140 0.930 . S
H131 C141 0.930 . S
C132 H126 0.930 . S
C132 C133 1.355 . S
C132 C134 1.415 1_565 S
C133 C132 1.355 . S
C133 C135 1.419 . S
C134 C132 1.415 1_545 S
C134 C139 1.425 1_545 S
C134 C141 1.409 . S
C135 H127 0.930 . S
C135 C133 1.419 . S
C135 C136 1.362 . S
C136 H128 0.930 . S
C136 C135 1.362 . S
C136 C139 1.409 . S
C137 H129 0.930 . S
C137 C138 1.355 . S
C137 C139 1.415 1_545 S
C138 C137 1.355 . S
C138 C140 1.419 . S
C139 C134 1.425 1_565 S
C139 C136 1.409 . S
C139 C137 1.415 1_565 S
C140 H130 0.930 . S
C140 C138 1.419 . S
C140 C141 1.362 . S
C141 H131 0.930 . S
C141 C134 1.409 . S
C141 C140 1.362 . S
C53 C17 0.163 . S
C58 C16 0.176 . S
C69 C39 0.221 . S
C74 C40 0.240 . S
C85 C42 2.078 . S
C90 C20 2.058 . S
C101 C21 2.043 . S
C106 C44 2.042 . S
C117 C43 2.037 . S
C122 C19 2.055 . S
C133 C41 2.094 . S
C138 C18 2.063 . S
