# Generated by pormake.
# Topology lon, (4)-cn, num edge types: 1
# Building blocks:
#     Node 0, Type 0, BuildingBlock: GALJAG_clean_sbu_0, # of connection points: 4
#     Node 1, Type 0, BuildingBlock: GALJAG_clean_sbu_0, # of connection points: 4
#     Node 2, Type 0, BuildingBlock: GALJAG_clean_sbu_0, # of connection points: 4
#     Node 3, Type 0, BuildingBlock: GALJAG_clean_sbu_0, # of connection points: 4
#     Edge 4, Type (0, 0), BuildingBlock: OJICUG_clean_linker_0, # of connection points: 2
#     Edge 5, Type (0, 0), BuildingBlock: OJICUG_clean_linker_0, # of connection points: 2
#     Edge 6, Type (0, 0), BuildingBlock: OJICUG_clean_linker_0, # of connection points: 2
#     Edge 7, Type (0, 0), BuildingBlock: OJICUG_clean_linker_0, # of connection points: 2
#     Edge 8, Type (0, 0), BuildingBlock: OJICUG_clean_linker_0, # of connection points: 2
#     Edge 9, Type (0, 0), BuildingBlock: OJICUG_clean_linker_0, # of connection points: 2
#     Edge 10, Type (0, 0), BuildingBlock: OJICUG_clean_linker_0, # of connection points: 2
#     Edge 11, Type (0, 0), BuildingBlock: OJICUG_clean_linker_0, # of connection points: 2
# Relax obj value: 0.209
# Max RMSD: 0.226
# Mean RMSD: 0.214
data_MOF--net-lon--node1-GALJAG_clean_sbu_0--edge1-OJICUG_clean_linker_0
_symmetry_space_group_name_H-M    P1
_symmetry_Int_Tables_number       1
_symmetry_cell_setting            triclinic
loop_
_symmetry_equiv_pos_as_xyz
'x, y, z'
_cell_length_a     16.987419
_cell_length_b     18.807221
_cell_length_c     29.629989
_cell_angle_alpha  96.579326
_cell_angle_beta   90.006136
_cell_angle_gamma 116.81335
loop_
_atom_site_label
_atom_site_type_symbol
_atom_site_fract_x
_atom_site_fract_y
_atom_site_fract_z
_atom_type_partial_charge
In0 In 0.35683 0.69836 0.06027 0.0
O1 O 0.23398 0.6716 0.0159 0.0
O2 O 0.22653 0.5854 0.05848 0.0
C3 C 0.43365 0.84546 0.03096 0.0
C4 C 0.35584 0.71051 0.15204 0.0
C5 C 0.43556 0.60741 0.02916 0.0
O6 O 0.44356 0.78657 0.01249 0.0
O7 O 0.38567 0.83063 0.06446 0.0
O8 O 0.46678 0.66022 0.06349 0.0
O9 O 0.36652 0.60228 0.01014 0.0
C10 C 0.18774 0.60426 0.0293 0.0
O11 O 0.41977 0.70975 0.13068 0.0
O12 O 0.29403 0.70786 0.12724 0.0
In13 In 0.63837 0.32573 0.55969 0.0
O14 O 0.51613 0.20705 0.53804 0.0
O15 O 0.64147 0.2079 0.5348 0.0
C16 C 0.55532 0.40696 0.53082 0.0
C17 C 0.63952 0.31189 0.64951 0.0
C18 C 0.79893 0.41163 0.52807 0.0
O19 O 0.55731 0.34798 0.50685 0.0
O20 O 0.59517 0.4251 0.56954 0.0
O21 O 0.77727 0.4308 0.56657 0.0
O22 O 0.7396 0.34933 0.50552 0.0
C23 C 0.55873 0.16754 0.52872 0.0
O24 O 0.70219 0.31674 0.62519 0.0
O25 O 0.57674 0.31527 0.62873 0.0
In26 In 0.31029 0.66996 0.43396 0.0
O27 O 0.3068 0.78877 0.45554 0.0
O28 O 0.43113 0.78764 0.45897 0.0
C29 C 0.14608 0.58877 0.46282 0.0
C30 C 0.3251 0.68392 0.34415 0.0
C31 C 0.38498 0.58399 0.46556 0.0
O32 O 0.20684 0.64805 0.48669 0.0
O33 O 0.16796 0.57033 0.42421 0.0
O34 O 0.34466 0.56514 0.42694 0.0
O35 O 0.38741 0.64599 0.48824 0.0
C36 C 0.38886 0.82814 0.46496 0.0
O37 O 0.38351 0.68007 0.36855 0.0
O38 O 0.25848 0.67947 0.36485 0.0
In39 In 0.65817 0.30059 0.93365 0.0
O40 O 0.71195 0.29269 0.86348 0.0
O41 O 0.58358 0.28497 0.86626 0.0
C42 C 0.82965 0.39281 0.96079 0.0
C43 C 0.58224 0.39256 0.96754 0.0
C44 C 0.58571 0.15437 0.96391 0.0
O45 O 0.78945 0.41207 0.93255 0.0
O46 O 0.78366 0.32613 0.97494 0.0
O47 O 0.57638 0.21329 0.98285 0.0
O48 O 0.63116 0.16871 0.92944 0.0
C49 C 0.64494 0.28674 0.84176 0.0
O50 O 0.548 0.33825 0.93417 0.0
O51 O 0.65352 0.39905 0.98457 0.0
C52 C 0.27554 0.70528 0.22328 0.0
C53 C 0.35055 0.70858 0.20169 0.0
H54 H 0.20858 0.69467 0.28527 0.0
C55 C 0.41805 0.70554 0.22753 0.0
H56 H 0.22233 0.70732 0.20422 0.0
C57 C 0.41001 0.698 0.27391 0.0
C58 C 0.33431 0.69336 0.29532 0.0
H59 H 0.47652 0.70773 0.21178 0.0
H60 H 0.46276 0.69508 0.29289 0.0
C61 C 0.26751 0.69776 0.26965 0.0
C62 C 0.56727 0.29577 0.72381 0.0
C63 C 0.63957 0.30264 0.69836 0.0
H64 H 0.51197 0.28457 0.7891 0.0
C65 C 0.71205 0.30072 0.72003 0.0
H66 H 0.51033 0.29672 0.70798 0.0
C67 C 0.71293 0.29358 0.76645 0.0
C68 C 0.64126 0.28808 0.79207 0.0
H69 H 0.76859 0.30557 0.70124 0.0
H70 H 0.77032 0.29359 0.7824 0.0
C71 C 0.56808 0.2885 0.77021 0.0
C72 C 0.43265 0.49262 0.97659 0.0
C73 C 0.4741 0.55331 0.01335 0.0
H74 H 0.43403 0.3938 0.93355 0.0
C75 C 0.55084 0.56015 0.03538 0.0
H76 H 0.37316 0.48568 0.95906 0.0
C77 C 0.58563 0.50732 0.02078 0.0
C78 C 0.54409 0.44667 0.984 0.0
H79 H 0.58397 0.60621 0.06389 0.0
H80 H 0.64518 0.51418 0.03821 0.0
C81 C 0.46726 0.43978 0.96209 0.0
C82 C -0.00824 0.47701 0.45189 0.0
C83 C 0.05676 0.54418 0.47909 0.0
H84 H 0.85909 0.38236 0.44608 0.0
C85 C 0.03596 0.56806 0.52226 0.0
H86 H 0.00588 0.45724 0.41845 0.0
C87 C 0.95196 0.5253 0.53805 0.0
C88 C 0.88716 0.45776 0.51101 0.0
H89 H 0.08469 0.61967 0.54398 0.0
H90 H 0.93798 0.54493 0.57156 0.0
C91 C 0.90776 0.43416 0.46771 0.0
C92 C 0.49674 0.06304 0.01964 0.0
C93 C 0.54716 0.07537 0.98107 0.0
H94 H 0.42146 0.98077 0.0657 0.0
C95 C 0.56065 0.01169 0.95926 0.0
H96 H 0.48529 0.111 0.03723 0.0
C97 C 0.52421 0.93713 0.97564 0.0
C98 C 0.4735 0.92474 0.01412 0.0
H99 H 0.59932 0.01941 0.92951 0.0
H100 H 0.53553 0.8891 0.95804 0.0
C101 C 0.46025 0.98849 0.03599 0.0
C102 C 0.51235 0.51853 0.54181 0.0
C103 C 0.51052 0.45153 0.51454 0.0
H104 H 0.47398 0.61303 0.54765 0.0
C105 C 0.46609 0.42778 0.47131 0.0
H106 H 0.54605 0.5382 0.57529 0.0
C107 C 0.42476 0.47051 0.45552 0.0
C108 C 0.42716 0.53788 0.48262 0.0
H109 H 0.46347 0.37629 0.44955 0.0
H110 H 0.39135 0.45098 0.42197 0.0
C111 C 0.4711 0.56135 0.52598 0.0
C112 C 0.05557 0.57241 0.97835 0.0
C113 C 0.09629 0.55035 0.01154 0.0
H114 H 0.93912 0.53945 0.93606 0.0
C115 C 0.04926 0.47549 0.02733 0.0
H116 H 0.09039 0.62963 0.96547 0.0
C117 C 0.96291 0.42382 0.01043 0.0
C118 C 0.92196 0.44604 0.97745 0.0
H119 H 0.0791 0.45677 0.05282 0.0
H120 H 0.92808 0.36672 0.02344 0.0
C121 C 0.96914 0.5207 0.96145 0.0
C122 C 0.56553 0.03888 0.50446 0.0
C123 C 0.51521 0.0808 0.51231 0.0
H124 H 0.56483 0.92585 0.48343 0.0
C125 C 0.42297 0.03903 0.50455 0.0
H126 H 0.63675 0.06955 0.51019 0.0
C127 C 0.38181 0.9568 0.48915 0.0
C128 C 0.43215 0.91488 0.48137 0.0
H129 H 0.38254 0.06985 0.51033 0.0
H130 H 0.31059 0.9261 0.4834 0.0
C131 C 0.52436 0.95664 0.48919 0.0
loop_
_geom_bond_atom_site_label_1
_geom_bond_atom_site_label_2
_geom_bond_distance
_geom_bond_site_symmetry_2
_ccdc_geom_bond_type
In0 O1 2.294 . S
In0 O2 2.326 . S
In0 O6 2.266 . S
In0 O7 2.326 . S
In0 O8 2.266 . S
In0 O9 2.326 1_554 S
In0 O11 2.294 . S
In0 O12 2.326 . S
O1 In0 2.294 . S
O1 C10 1.240 . S
O2 In0 2.326 . S
O2 C10 1.252 . S
C3 O6 1.252 . S
C3 O7 1.260 . S
C4 O11 1.240 . S
C4 O12 1.252 . S
C5 O8 1.252 . S
C5 O9 1.260 1_554 S
O6 In0 2.266 . S
O6 C3 1.252 . S
O7 In0 2.326 . S
O7 C3 1.260 . S
O8 In0 2.266 . S
O8 C5 1.252 . S
O9 In0 2.326 1_556 S
O9 C5 1.260 1_556 S
C10 O1 1.240 . S
C10 O2 1.252 . S
O11 In0 2.294 . S
O11 C4 1.240 . S
O12 In0 2.326 . S
O12 C4 1.252 . S
In13 O14 2.294 . S
In13 O15 2.326 . S
In13 O19 2.266 . S
In13 O20 2.326 . S
In13 O21 2.266 . S
In13 O22 2.326 . S
In13 O24 2.294 . S
In13 O25 2.326 . S
O14 In13 2.294 . S
O14 C23 1.240 . S
O15 In13 2.326 . S
O15 C23 1.252 . S
C16 O19 1.252 . S
C16 O20 1.260 . S
C17 O24 1.240 . S
C17 O25 1.252 . S
C18 O21 1.252 . S
C18 O22 1.260 . S
O19 In13 2.266 . S
O19 C16 1.252 . S
O20 In13 2.326 . S
O20 C16 1.260 . S
O21 In13 2.266 . S
O21 C18 1.252 . S
O22 In13 2.326 . S
O22 C18 1.260 . S
C23 O14 1.240 . S
C23 O15 1.252 . S
O24 In13 2.294 . S
O24 C17 1.240 . S
O25 In13 2.326 . S
O25 C17 1.252 . S
In26 O27 2.294 . S
In26 O28 2.326 . S
In26 O32 2.266 . S
In26 O33 2.326 . S
In26 O34 2.266 . S
In26 O35 2.326 . S
In26 O37 2.294 . S
In26 O38 2.326 . S
O27 In26 2.294 . S
O27 C36 1.240 . S
O28 In26 2.326 . S
O28 C36 1.252 . S
C29 O32 1.252 . S
C29 O33 1.260 . S
C30 O37 1.240 . S
C30 O38 1.252 . S
C31 O34 1.252 . S
C31 O35 1.260 . S
O32 In26 2.266 . S
O32 C29 1.252 . S
O33 In26 2.326 . S
O33 C29 1.260 . S
O34 In26 2.266 . S
O34 C31 1.252 . S
O35 In26 2.326 . S
O35 C31 1.260 . S
C36 O27 1.240 . S
C36 O28 1.252 . S
O37 In26 2.294 . S
O37 C30 1.240 . S
O38 In26 2.326 . S
O38 C30 1.252 . S
In39 O40 2.294 . S
In39 O41 2.326 . S
In39 O45 2.266 . S
In39 O46 2.326 1_556 S
In39 O47 2.266 . S
In39 O48 2.326 . S
In39 O50 2.294 . S
In39 O51 2.326 . S
O40 In39 2.294 . S
O40 C49 1.240 . S
O41 In39 2.326 . S
O41 C49 1.252 . S
C42 O45 1.252 . S
C42 O46 1.260 1_556 S
C43 O50 1.240 . S
C43 O51 1.252 . S
C44 O47 1.252 . S
C44 O48 1.260 . S
O45 In39 2.266 . S
O45 C42 1.252 . S
O46 In39 2.326 1_554 S
O46 C42 1.260 1_554 S
O47 In39 2.266 . S
O47 C44 1.252 . S
O48 In39 2.326 . S
O48 C44 1.260 . S
C49 O40 1.240 . S
C49 O41 1.252 . S
O50 In39 2.294 . S
O50 C43 1.240 . S
O51 In39 2.326 . S
O51 C43 1.252 . S
C52 C53 1.387 . S
C52 H56 0.950 . S
C52 C61 1.390 . S
C53 C52 1.387 . S
C53 C55 1.387 . S
H54 C61 0.950 . S
C55 C53 1.387 . S
C55 C57 1.390 . S
C55 H59 0.950 . S
H56 C52 0.950 . S
C57 C55 1.390 . S
C57 C58 1.387 . S
C57 H60 0.950 . S
C58 C57 1.387 . S
C58 C61 1.387 . S
H59 C55 0.950 . S
H60 C57 0.950 . S
C61 C52 1.390 . S
C61 H54 0.950 . S
C61 C58 1.387 . S
C62 C63 1.387 . S
C62 H66 0.950 . S
C62 C71 1.390 . S
C63 C62 1.387 . S
C63 C65 1.387 . S
H64 C71 0.950 . S
C65 C63 1.387 . S
C65 C67 1.390 . S
C65 H69 0.950 . S
H66 C62 0.950 . S
C67 C65 1.390 . S
C67 C68 1.387 . S
C67 H70 0.950 . S
C68 C67 1.387 . S
C68 C71 1.387 . S
H69 C65 0.950 . S
H70 C67 0.950 . S
C71 C62 1.390 . S
C71 H64 0.950 . S
C71 C68 1.387 . S
C72 C73 1.387 . S
C72 H76 0.950 . S
C72 C81 1.390 . S
C73 C72 1.387 . S
C73 C75 1.387 1_556 S
H74 C81 0.950 . S
C75 C73 1.387 1_554 S
C75 C77 1.390 . S
C75 H79 0.950 . S
H76 C72 0.950 . S
C77 C75 1.390 . S
C77 C78 1.387 1_554 S
C77 H80 0.950 . S
C78 C77 1.387 1_556 S
C78 C81 1.387 . S
H79 C75 0.950 . S
H80 C77 0.950 . S
C81 C72 1.390 . S
C81 H74 0.950 . S
C81 C78 1.387 . S
C82 C83 1.387 1_655 S
C82 H86 0.950 1_655 S
C82 C91 1.390 . S
C83 C82 1.387 1_455 S
C83 C85 1.387 1_455 S
H84 C91 0.950 . S
C85 C83 1.387 1_655 S
C85 C87 1.390 . S
C85 H89 0.950 1_655 S
H86 C82 0.950 1_455 S
C87 C85 1.390 . S
C87 C88 1.387 . S
C87 H90 0.950 . S
C88 C87 1.387 . S
C88 C91 1.387 . S
H89 C85 0.950 1_455 S
H90 C87 0.950 . S
C91 C82 1.390 . S
C91 H84 0.950 . S
C91 C88 1.387 . S
C92 C93 1.387 1_554 S
C92 H96 0.950 . S
C92 C101 1.390 . S
C93 C92 1.387 1_556 S
C93 C95 1.387 1_545 S
H94 C101 0.950 . S
C95 C93 1.387 1_565 S
C95 C97 1.390 . S
C95 H99 0.950 . S
H96 C92 0.950 . S
C97 C95 1.390 . S
C97 C98 1.387 1_556 S
C97 H100 0.950 . S
C98 C97 1.387 1_554 S
C98 C101 1.387 1_565 S
H99 C95 0.950 . S
H100 C97 0.950 . S
C101 C92 1.390 . S
C101 H94 0.950 . S
C101 C98 1.387 1_545 S
C102 C103 1.387 . S
C102 H106 0.950 . S
C102 C111 1.390 . S
C103 C102 1.387 . S
C103 C105 1.387 . S
H104 C111 0.950 . S
C105 C103 1.387 . S
C105 C107 1.390 . S
C105 H109 0.950 . S
H106 C102 0.950 . S
C107 C105 1.390 . S
C107 C108 1.387 . S
C107 H110 0.950 . S
C108 C107 1.387 . S
C108 C111 1.387 . S
H109 C105 0.950 . S
H110 C107 0.950 . S
C111 C102 1.390 . S
C111 H104 0.950 . S
C111 C108 1.387 . S
C112 C113 1.387 1_556 S
C112 H116 0.950 . S
C112 C121 1.390 1_455 S
C113 C112 1.387 1_554 S
C113 C115 1.387 . S
H114 C121 0.950 . S
C115 C113 1.387 . S
C115 C117 1.390 1_455 S
C115 H119 0.950 . S
H116 C112 0.950 . S
C117 C115 1.390 1_655 S
C117 C118 1.387 . S
C117 H120 0.950 . S
C118 C117 1.387 . S
C118 C121 1.387 1_554 S
H119 C115 0.950 . S
H120 C117 0.950 . S
C121 C112 1.390 1_655 S
C121 H114 0.950 . S
C121 C118 1.387 1_556 S
C122 C123 1.387 . S
C122 H126 0.950 . S
C122 C131 1.390 1_545 S
C123 C122 1.387 . S
C123 C125 1.387 . S
H124 C131 0.950 . S
C125 C123 1.387 . S
C125 C127 1.390 1_545 S
C125 H129 0.950 . S
H126 C122 0.950 . S
C127 C125 1.390 1_565 S
C127 C128 1.387 . S
C127 H130 0.950 . S
C128 C127 1.387 . S
C128 C131 1.387 . S
H129 C125 0.950 . S
H130 C127 0.950 . S
C131 C122 1.390 1_565 S
C131 H124 0.950 . S
C131 C128 1.387 . S
C53 C4 1.594 . S
C58 C30 1.591 . S
C63 C17 1.591 . S
C68 C49 1.594 . S
C73 C5 1.495 1_556 S
C78 C43 1.523 . S
C83 C29 1.679 . S
C88 C18 1.669 . S
C93 C44 1.828 . S
C98 C3 1.827 . S
C103 C16 1.678 . S
C108 C31 1.669 . S
C113 C10 1.524 . S
C118 C42 1.497 1_554 S
C123 C23 1.361 . S
C128 C36 1.361 . S
