# Generated by pormake.
# Topology dmp, (4)-cn, num edge types: 1
# Building blocks:
#     Node 0, Type 0, BuildingBlock: QUQFOY_clean_sbu_1, # of connection points: 4
#     Node 1, Type 0, BuildingBlock: QUQFOY_clean_sbu_1, # of connection points: 4
#     Node 2, Type 0, BuildingBlock: QUQFOY_clean_sbu_1, # of connection points: 4
#     Node 3, Type 0, BuildingBlock: QUQFOY_clean_sbu_1, # of connection points: 4
#     Edge 4, Type (0, 0), BuildingBlock: EYOCIG_clean_linker_4, # of connection points: 2
#     Edge 5, Type (0, 0), BuildingBlock: EYOCIG_clean_linker_4, # of connection points: 2
#     Edge 6, Type (0, 0), BuildingBlock: EYOCIG_clean_linker_4, # of connection points: 2
#     Edge 7, Type (0, 0), BuildingBlock: EYOCIG_clean_linker_4, # of connection points: 2
#     Edge 8, Type (0, 0), BuildingBlock: EYOCIG_clean_linker_4, # of connection points: 2
#     Edge 9, Type (0, 0), BuildingBlock: EYOCIG_clean_linker_4, # of connection points: 2
#     Edge 10, Type (0, 0), BuildingBlock: EYOCIG_clean_linker_4, # of connection points: 2
#     Edge 11, Type (0, 0), BuildingBlock: EYOCIG_clean_linker_4, # of connection points: 2
# Relax obj value: 0.004
# Max RMSD: 0.048
# Mean RMSD: 0.048
data_MOF--net-dmp--node1-QUQFOY_clean_sbu_1--edge1-EYOCIG_clean_linker_4
_symmetry_space_group_name_H-M    P1
_symmetry_Int_Tables_number       1
_symmetry_cell_setting            triclinic
loop_
_symmetry_equiv_pos_as_xyz
'x, y, z'
_cell_length_a     31.79184
_cell_length_b     14.716781
_cell_length_c     16.681026
_cell_angle_alpha  89.999595
_cell_angle_beta   90.001973
_cell_angle_gamma 90.004508
loop_
_atom_site_label
_atom_site_type_symbol
_atom_site_fract_x
_atom_site_fract_y
_atom_site_fract_z
_atom_type_partial_charge
O0 O 0.16421 0.36071 0.2993 0.0
Cd1 Cd 0.11797 0.27743 0.3377 0.0
Cd2 Cd 0.11829 0.24022 0.17792 0.0
O3 O 0.14207 0.37166 0.17383 0.0
O4 O 0.10116 0.32764 0.44529 0.0
O5 O 0.06015 0.33306 0.33775 0.0
C6 C 0.06727 0.35668 0.41118 0.0
C7 C 0.06781 0.16161 0.10322 0.0
C8 C 0.16639 0.39664 0.23058 0.0
C9 C 0.16662 0.12157 0.28616 0.0
O10 O 0.1645 0.15709 0.21723 0.0
O11 O 0.14194 0.14629 0.34244 0.0
O12 O 0.10195 0.19048 0.06991 0.0
O13 O 0.06037 0.18484 0.17661 0.0
O14 O 0.34788 0.86274 0.21796 0.0
Cd15 Cd 0.39371 0.77957 0.17758 0.0
Cd16 Cd 0.3944 0.74141 0.33787 0.0
O17 O 0.37098 0.87311 0.34286 0.0
O18 O 0.40921 0.82976 0.06925 0.0
O19 O 0.45154 0.83534 0.17486 0.0
C20 C 0.44352 0.85884 0.10177 0.0
C21 C 0.44416 0.66076 0.41282 0.0
C22 C 0.34619 0.89827 0.2869 0.0
C23 C 0.34515 0.62397 0.23029 0.0
O24 O 0.34772 0.65943 0.29916 0.0
O25 O 0.36949 0.64855 0.17342 0.0
O26 O 0.41026 0.69106 0.44599 0.0
O27 O 0.45187 0.6837 0.33947 0.0
O28 O 0.84784 0.65901 0.71545 0.0
Cd29 Cd 0.89433 0.74168 0.67681 0.0
Cd30 Cd 0.89425 0.77779 0.83767 0.0
O31 O 0.86979 0.64693 0.841 0.0
O32 O 0.90992 0.6928 0.568 0.0
O33 O 0.95192 0.68468 0.67392 0.0
C34 C 0.94402 0.66252 0.60047 0.0
C35 C 0.94403 0.85663 0.91394 0.0
C36 C 0.84529 0.62306 0.78413 0.0
C37 C 0.84629 0.89786 0.73028 0.0
O38 O 0.84831 0.86145 0.79881 0.0
O39 O 0.87075 0.87334 0.67358 0.0
O40 O 0.90984 0.82682 0.94639 0.0
O41 O 0.95201 0.83392 0.84064 0.0
O42 O 0.66427 0.15921 0.79979 0.0
Cd43 Cd 0.61767 0.24231 0.83737 0.0
Cd44 Cd 0.61808 0.27754 0.67722 0.0
O45 O 0.64254 0.14676 0.67416 0.0
O46 O 0.6012 0.19371 0.94572 0.0
O47 O 0.55994 0.18591 0.8387 0.0
C48 C 0.56726 0.16377 0.91239 0.0
C49 C 0.56753 0.35501 0.60195 0.0
C50 C 0.66688 0.12291 0.73125 0.0
C51 C 0.66573 0.39862 0.78423 0.0
O52 O 0.66387 0.36199 0.71575 0.0
O53 O 0.64123 0.374 0.84081 0.0
O54 O 0.60173 0.32616 0.56885 0.0
O55 O 0.56005 0.33213 0.67542 0.0
C56 C 0.27668 0.99059 0.30748 0.0
C57 C 0.30951 0.95025 0.30476 0.0
C58 C 0.23648 0.03037 0.30699 0.0
C59 C 0.20359 0.07038 0.3037 0.0
C60 C 0.23551 0.49085 0.21157 0.0
C61 C 0.20297 0.44947 0.21403 0.0
C62 C 0.27544 0.53175 0.21148 0.0
C63 C 0.30821 0.57227 0.21387 0.0
C64 C 0.73681 0.03133 0.71248 0.0
C65 C 0.70397 0.07157 0.71512 0.0
C66 C 0.7769 0.99114 0.71184 0.0
C67 C 0.80962 0.95037 0.71374 0.0
C68 C 0.7751 0.53248 0.80313 0.0
C69 C 0.8081 0.57219 0.80061 0.0
C70 C 0.73496 0.49246 0.80327 0.0
C71 C 0.70231 0.45142 0.80098 0.0
C72 C 0.01828 0.04281 0.02834 0.0
C73 C 0.04093 0.09697 0.06228 0.0
C74 C 0.99273 0.97623 0.9898 0.0
C75 C 0.97037 0.92169 0.95565 0.0
C76 C 0.51793 0.04495 0.98767 0.0
C77 C 0.54054 0.09914 0.95369 0.0
C78 C 0.4924 0.97835 0.02623 0.0
C79 C 0.47 0.92386 0.06034 0.0
C80 C 0.99283 0.5431 0.52471 0.0
C81 C 0.97035 0.59758 0.55864 0.0
C82 C 0.01817 0.47635 0.48594 0.0
C83 C 0.04039 0.42183 0.45146 0.0
C84 C 0.49281 0.54036 0.48776 0.0
C85 C 0.47051 0.59526 0.45394 0.0
C86 C 0.51821 0.4736 0.52639 0.0
C87 C 0.54072 0.41954 0.56076 0.0
loop_
_geom_bond_atom_site_label_1
_geom_bond_atom_site_label_2
_geom_bond_distance
_geom_bond_site_symmetry_2
_ccdc_geom_bond_type
O0 Cd1 2.223 . S
O0 C8 1.315 . S
Cd1 O0 2.223 . S
Cd1 O4 2.297 . S
Cd1 O5 2.439 . S
Cd1 O11 2.240 . S
Cd2 O3 2.240 . S
Cd2 O10 2.223 . S
Cd2 O12 2.297 . S
Cd2 O13 2.439 . S
O3 Cd2 2.240 . S
O3 C8 1.279 . S
O4 Cd1 2.297 . S
O4 C6 1.247 . S
O5 Cd1 2.439 . S
O5 C6 1.208 . S
C6 O4 1.247 . S
C6 O5 1.208 . S
C7 O12 1.247 . S
C7 O13 1.208 . S
C8 O0 1.315 . S
C8 O3 1.279 . S
C9 O10 1.315 . S
C9 O11 1.279 . S
O10 Cd2 2.223 . S
O10 C9 1.315 . S
O11 Cd1 2.240 . S
O11 C9 1.279 . S
O12 Cd2 2.297 . S
O12 C7 1.247 . S
O13 Cd2 2.439 . S
O13 C7 1.208 . S
O14 Cd15 2.223 . S
O14 C22 1.315 . S
Cd15 O14 2.223 . S
Cd15 O18 2.297 . S
Cd15 O19 2.439 . S
Cd15 O25 2.240 . S
Cd16 O17 2.240 . S
Cd16 O24 2.223 . S
Cd16 O26 2.297 . S
Cd16 O27 2.439 . S
O17 Cd16 2.240 . S
O17 C22 1.279 . S
O18 Cd15 2.297 . S
O18 C20 1.247 . S
O19 Cd15 2.439 . S
O19 C20 1.208 . S
C20 O18 1.247 . S
C20 O19 1.208 . S
C21 O26 1.247 . S
C21 O27 1.208 . S
C22 O14 1.315 . S
C22 O17 1.279 . S
C23 O24 1.315 . S
C23 O25 1.279 . S
O24 Cd16 2.223 . S
O24 C23 1.315 . S
O25 Cd15 2.240 . S
O25 C23 1.279 . S
O26 Cd16 2.297 . S
O26 C21 1.247 . S
O27 Cd16 2.439 . S
O27 C21 1.208 . S
O28 Cd29 2.223 . S
O28 C36 1.315 . S
Cd29 O28 2.223 . S
Cd29 O32 2.297 . S
Cd29 O33 2.439 . S
Cd29 O39 2.240 . S
Cd30 O31 2.240 . S
Cd30 O38 2.223 . S
Cd30 O40 2.297 . S
Cd30 O41 2.439 . S
O31 Cd30 2.240 . S
O31 C36 1.279 . S
O32 Cd29 2.297 . S
O32 C34 1.247 . S
O33 Cd29 2.439 . S
O33 C34 1.208 . S
C34 O32 1.247 . S
C34 O33 1.208 . S
C35 O40 1.247 . S
C35 O41 1.208 . S
C36 O28 1.315 . S
C36 O31 1.279 . S
C37 O38 1.315 . S
C37 O39 1.279 . S
O38 Cd30 2.223 . S
O38 C37 1.315 . S
O39 Cd29 2.240 . S
O39 C37 1.279 . S
O40 Cd30 2.297 . S
O40 C35 1.247 . S
O41 Cd30 2.439 . S
O41 C35 1.208 . S
O42 Cd43 2.223 . S
O42 C50 1.315 . S
Cd43 O42 2.223 . S
Cd43 O46 2.297 . S
Cd43 O47 2.439 . S
Cd43 O53 2.240 . S
Cd44 O45 2.240 . S
Cd44 O52 2.223 . S
Cd44 O54 2.297 . S
Cd44 O55 2.439 . S
O45 Cd44 2.240 . S
O45 C50 1.279 . S
O46 Cd43 2.297 . S
O46 C48 1.247 . S
O47 Cd43 2.439 . S
O47 C48 1.208 . S
C48 O46 1.247 . S
C48 O47 1.208 . S
C49 O54 1.247 . S
C49 O55 1.208 . S
C50 O42 1.315 . S
C50 O45 1.279 . S
C51 O52 1.315 . S
C51 O53 1.279 . S
O52 Cd44 2.223 . S
O52 C51 1.315 . S
O53 Cd43 2.240 . S
O53 C51 1.279 . S
O54 Cd44 2.297 . S
O54 C49 1.247 . S
O55 Cd44 2.439 . S
O55 C49 1.208 . S
C56 C57 1.170 . S
C56 C58 1.380 1_565 S
C57 C56 1.170 . S
C58 C56 1.380 1_545 S
C58 C59 1.170 . S
C59 C58 1.170 . S
C60 C61 1.170 . S
C60 C62 1.380 . S
C61 C60 1.170 . S
C62 C60 1.380 . S
C62 C63 1.170 . S
C63 C62 1.170 . S
C64 C65 1.170 . S
C64 C66 1.380 1_545 S
C65 C64 1.170 . S
C66 C64 1.380 1_565 S
C66 C67 1.170 . S
C67 C66 1.170 . S
C68 C69 1.170 . S
C68 C70 1.380 . S
C69 C68 1.170 . S
C70 C68 1.380 . S
C70 C71 1.170 . S
C71 C70 1.170 . S
C72 C73 1.170 . S
C72 C74 1.380 1_444 S
C73 C72 1.170 . S
C74 C72 1.380 1_666 S
C74 C75 1.170 . S
C75 C74 1.170 . S
C76 C77 1.170 . S
C76 C78 1.380 1_546 S
C77 C76 1.170 . S
C78 C76 1.380 1_564 S
C78 C79 1.170 . S
C79 C78 1.170 . S
C80 C81 1.170 . S
C80 C82 1.380 1_655 S
C81 C80 1.170 . S
C82 C80 1.380 1_455 S
C82 C83 1.170 . S
C83 C82 1.170 . S
C84 C85 1.170 . S
C84 C86 1.380 . S
C85 C84 1.170 . S
C86 C84 1.380 . S
C86 C87 1.170 . S
C87 C86 1.170 . S
C57 C22 1.382 . S
C59 C9 1.383 . S
C61 C8 1.351 . S
C63 C23 1.355 . S
C65 C50 1.350 . S
C67 C37 1.355 . S
C69 C36 1.354 . S
C71 C51 1.366 . S
C73 C7 1.491 . S
C75 C35 1.467 . S
C77 C48 1.489 . S
C79 C20 1.476 . S
C81 C34 1.468 . S
C83 C6 1.492 . S
C85 C21 1.476 . S
C87 C49 1.489 . S
