# Generated by pormake.
# Topology cds, (4)-cn, num edge types: 1
# Building blocks:
#     Node 0, Type 0, BuildingBlock: ESEHIV_clean_sbu_0, # of connection points: 4
#     Node 1, Type 0, BuildingBlock: ESEHIV_clean_sbu_0, # of connection points: 4
#     Edge 2, Type (0, 0), BuildingBlock: FUNLAD_clean_linker_1, # of connection points: 2
#     Edge 3, Type (0, 0), BuildingBlock: FUNLAD_clean_linker_1, # of connection points: 2
#     Edge 4, Type (0, 0), BuildingBlock: FUNLAD_clean_linker_1, # of connection points: 2
#     Edge 5, Type (0, 0), BuildingBlock: FUNLAD_clean_linker_1, # of connection points: 2
# Relax obj value: 0.000
# Max RMSD: 0.099
# Mean RMSD: 0.094
data_MOF--net-cds--node1-ESEHIV_clean_sbu_0--edge1-FUNLAD_clean_linker_1
_symmetry_space_group_name_H-M    P1
_symmetry_Int_Tables_number       1
_symmetry_cell_setting            triclinic
loop_
_symmetry_equiv_pos_as_xyz
'x, y, z'
_cell_length_a     14.761965
_cell_length_b     17.627026
_cell_length_c     32.894103
_cell_angle_alpha  102.99501
_cell_angle_beta   104.60481
_cell_angle_gamma 87.24358
loop_
_atom_site_label
_atom_site_type_symbol
_atom_site_fract_x
_atom_site_fract_y
_atom_site_fract_z
_atom_type_partial_charge
Cu0 Cu 0.1421 0.97005 0.03849 0.0
N1 N 0.11752 0.04407 1.00477 0.0
N2 N 0.09519 0.09692 0.94738 0.0
C3 C 0.12424 1.03369 0.9638 0.0
C4 C 0.06891 0.14867 0.97915 0.0
C5 C 0.08312 0.11605 1.01464 0.0
O6 O 0.2461 0.90815 0.02273 0.0
C7 C 1.0162 0.8572 0.04522 0.0
O8 O 0.09002 0.82959 0.06889 0.0
H9 H 0.14641 0.97968 0.94607 0.0
H10 H 0.0672 0.14202 0.04509 0.0
N11 N 0.17562 1.02056 0.09666 0.0
N12 N 0.17624 0.05586 0.16634 0.0
C13 C 0.1311 1.01562 0.12704 0.0
C14 C 0.25101 0.06635 0.11738 0.0
C15 C 0.25178 0.0882 0.16049 0.0
C16 C 0.31293 0.88427 0.04959 0.0
O17 O 0.30766 0.89183 0.08958 0.0
H18 H 0.06747 0.98224 0.12069 0.0
H19 H 0.30261 0.08158 0.10226 0.0
O20 O 1.02602 0.91274 0.02774 0.0
H21 H 1.03964 0.20539 0.97651 0.0
H22 H 0.30417 0.12452 0.18535 0.0
Cu23 Cu 0.98324 0.09794 0.53892 0.0
N24 N 0.90025 1.01312 0.51944 0.0
N25 N 0.84317 0.89338 0.50962 0.0
C26 C 0.91677 0.94244 0.52893 0.0
C27 C 0.77808 0.93485 0.48728 0.0
C28 C 0.81358 1.00859 0.4932 0.0
O29 O 0.05367 0.0952 0.59706 0.0
C30 C 1.02267 0.09808 0.46117 0.0
O31 O 0.93212 0.11072 0.45123 0.0
H32 H 0.98123 0.92797 0.54986 0.0
H33 H 0.77875 0.05549 0.47924 0.0
N34 N 0.91969 0.19259 0.54031 0.0
N35 N 0.89199 0.3181 0.5396 0.0
C36 C 0.95517 0.26032 0.53836 0.0
C37 C 0.83114 0.20824 0.54327 0.0
C38 C 0.8137 0.28569 0.54278 0.0
C39 C 1.00634 0.09676 0.62465 0.0
O40 O 0.91468 0.10116 0.61259 0.0
H41 H 1.02593 0.26701 0.53582 0.0
H42 H 0.78278 0.16641 0.54582 0.0
O43 O 0.06235 0.09002 0.49905 0.0
H44 H 0.7098 0.91312 0.46791 0.0
H45 H 0.74884 0.31555 0.54509 0.0
H46 H 0.08082 1.03326 0.20322 0.0
C47 C 0.14753 0.05973 0.20553 0.0
H48 H 0.26657 0.12098 0.24824 0.0
H49 H 0.05359 0.25022 0.39459 0.0
H50 H 0.07999 0.36876 0.37318 0.0
H51 H 0.14626 0.36383 0.31089 0.0
H52 H 0.18696 0.24045 0.26971 0.0
C53 C 0.20047 0.09286 0.24473 0.0
C54 C 0.16729 0.0959 0.28432 0.0
C55 C 0.14449 0.16856 0.3082 0.0
C56 C 0.10527 0.17136 0.34383 0.0
C57 C 0.08259 0.24471 0.36696 0.0
C58 C 0.09758 0.31321 0.35509 0.0
C59 C 0.13501 0.31043 0.32005 0.0
C60 C 0.15816 0.23917 0.29671 0.0
H61 H 0.15136 0.08022 0.4371 0.0
C62 C 0.07715 0.09325 0.42864 0.0
H63 H 0.96291 0.12023 0.38084 0.0
H64 H 0.21872 0.94851 0.25046 0.0
H65 H 0.19217 0.83003 0.27179 0.0
H66 H 0.1161 0.8341 0.33095 0.0
H67 H 0.06754 0.95671 0.36959 0.0
C68 C 1.03633 0.10457 0.38901 0.0
C69 C 0.08896 0.10158 0.35559 0.0
C70 C 0.11523 1.02912 0.33281 0.0
C71 C 0.15591 1.02643 0.29761 0.0
C72 C 0.18446 0.95362 0.27639 0.0
C73 C 0.17021 0.8852 0.28849 0.0
C74 C 0.12761 0.88752 0.32188 0.0
C75 C 0.10026 0.95842 0.34388 0.0
H76 H 1.04002 0.15334 0.89376 0.0
C77 C 0.08406 0.10643 0.904 0.0
H78 H 0.16925 1.01196 0.88525 0.0
H79 H 0.9618 0.94796 0.68783 0.0
H80 H 0.93099 0.82876 0.70742 0.0
H81 H 0.97731 0.81656 0.78311 0.0
H82 H 0.05582 0.92293 0.83963 0.0
C83 C 0.12507 0.05913 0.87574 0.0
C84 C 0.10386 0.06493 0.8297 0.0
C85 C 0.05776 1.00204 0.79707 0.0
C86 C 1.02932 1.00955 0.7535 0.0
C87 C 0.98359 0.9458 0.72153 0.0
C88 C 0.96562 0.87697 0.73229 0.0
C89 C 0.99193 0.87005 0.7749 0.0
C90 C 1.03721 0.93165 0.80705 0.0
H91 H 0.12876 0.08639 0.67839 0.0
C92 C 0.05302 0.09138 0.66929 0.0
H93 H 0.9271 0.09334 0.68887 0.0
H94 H 0.20793 0.18999 0.88258 0.0
H95 H 0.23959 0.30887 0.86286 0.0
H96 H 0.18096 0.3253 0.78821 0.0
H97 H 0.09195 0.22244 0.73268 0.0
C98 C 1.00307 0.09108 0.69829 0.0
C99 C 0.04624 0.08002 0.7426 0.0
C100 C 0.09624 0.14156 0.77484 0.0
C101 C 0.12671 0.13338 0.8183 0.0
C102 C 0.17986 0.1944 0.84949 0.0
C103 C 0.19914 0.2627 0.83854 0.0
C104 C 0.16637 0.27185 0.79648 0.0
C105 C 0.11547 0.21223 0.76487 0.0
H106 H 0.91588 0.78996 0.06351 0.0
C107 C 0.92147 0.83355 0.04555 0.0
H108 H 0.84978 0.91759 1.01298 0.0
H109 H 0.48156 0.71851 1.01375 0.0
H110 H 0.5331 0.6153 0.96216 0.0
H111 H 0.68503 0.62483 0.94508 0.0
H112 H 0.78695 0.73732 0.97981 0.0
C113 C 0.84416 0.87116 0.02909 0.0
C114 C 0.75323 0.86294 0.03975 0.0
C115 C 0.69398 0.79739 0.01879 0.0
C116 C 0.60518 0.79276 0.02791 0.0
C117 C 0.54852 0.7258 1.00727 0.0
C118 C 0.57747 0.66602 0.97774 0.0
C119 C 0.66312 0.67133 0.96818 0.0
C120 C 0.721 0.73611 0.98837 0.0
H121 H 0.40568 0.86429 1.00503 0.0
C122 C 0.40226 0.86273 0.03747 0.0
H123 H 0.47936 0.85412 0.0996 0.0
H124 H 0.85151 0.99498 0.08709 0.0
H125 H 0.79943 0.09881 0.13789 0.0
H126 H 0.64404 0.09274 0.15218 0.0
H127 H 0.5401 0.98268 0.11601 0.0
C128 C 0.48136 0.85211 0.06657 0.0
C129 C 0.57521 0.85432 0.05745 0.0
C130 C 0.63514 0.91945 0.07878 0.0
C131 C 0.72413 0.92363 0.07 0.0
C132 C 0.78266 0.98918 0.09204 0.0
C133 C 0.75376 0.04921 0.1214 0.0
C134 C 0.66638 0.04572 0.12949 0.0
C135 C 0.60746 0.98191 0.10853 0.0
H136 H 0.76375 0.78603 0.4977 0.0
C137 C 0.83222 0.81365 0.51185 0.0
H138 H 0.97331 0.79621 0.54319 0.0
H139 H 0.79124 0.51852 0.60068 0.0
H140 H 0.75758 0.62451 0.65594 0.0
H141 H 0.7836 0.76106 0.65475 0.0
H142 H 0.8445 0.79255 0.59849 0.0
C143 C 0.9033 0.77175 0.52995 0.0
C144 C 0.88874 0.68922 0.53095 0.0
C145 C 0.85333 0.67173 0.56405 0.0
C146 C 0.83781 0.59289 0.56455 0.0
C147 C 0.80338 0.57727 0.59837 0.0
C148 C 0.78403 0.63757 0.63041 0.0
C149 C 0.79881 0.71447 0.62978 0.0
C150 C 0.83341 0.73172 0.59719 0.0
H151 H 0.97983 0.41528 0.54113 0.0
C152 C 0.90858 0.3974 0.53825 0.0
H153 H 0.76762 0.43316 0.5299 0.0
H154 H 0.96068 0.70293 0.46411 0.0
H155 H 0.99071 0.59756 0.4075 0.0
H156 H 0.95674 0.46123 0.40616 0.0
H157 H 0.89395 0.42924 0.46156 0.0
C158 C 0.83914 0.44924 0.53242 0.0
C159 C 0.85771 0.53152 0.53191 0.0
C160 C 0.89249 0.54921 0.49854 0.0
C161 C 0.90947 0.62808 0.49854 0.0
C162 C 0.9457 0.64411 0.46535 0.0
C163 C 0.96317 0.58423 0.43267 0.0
C164 C 0.94427 0.50746 0.43197 0.0
C165 C 0.90891 0.48984 0.46427 0.0
loop_
_geom_bond_atom_site_label_1
_geom_bond_atom_site_label_2
_geom_bond_distance
_geom_bond_site_symmetry_2
_ccdc_geom_bond_type
Cu0 N1 1.999 1_454 S
Cu0 O6 1.974 . S
Cu0 N11 1.985 . S
Cu0 O20 1.959 1_455 S
N1 Cu0 1.999 1_656 S
N1 C3 1.263 1_655 S
N1 C5 1.389 . S
N2 C3 1.358 1_655 S
N2 C4 1.400 . S
C3 N1 1.263 1_455 S
C3 N2 1.358 1_455 S
C3 H9 0.930 1_545 S
C4 N2 1.400 . S
C4 C5 1.351 . S
C4 H21 0.930 . S
C5 N1 1.389 . S
C5 C4 1.351 . S
C5 H10 0.930 . S
O6 Cu0 1.974 . S
O6 C16 1.282 1_545 S
C7 O8 1.261 . S
C7 O20 1.251 1_565 S
O8 C7 1.261 . S
H9 C3 0.930 1_565 S
H10 C5 0.930 . S
N11 Cu0 1.985 . S
N11 C13 1.335 1_455 S
N11 C14 1.390 1_545 S
N12 C13 1.345 1_455 S
N12 C15 1.336 1_545 S
C13 N11 1.335 1_655 S
C13 N12 1.345 1_655 S
C13 H18 0.930 . S
C14 N11 1.390 1_565 S
C14 C15 1.346 . S
C14 H19 0.930 . S
C15 N12 1.336 1_565 S
C15 C14 1.346 . S
C15 H22 0.929 . S
C16 O6 1.282 1_565 S
C16 O17 1.216 . S
O17 C16 1.216 . S
H18 C13 0.930 . S
H19 C14 0.930 . S
O20 Cu0 1.959 1_655 S
O20 C7 1.251 1_545 S
H21 C4 0.930 . S
H22 C15 0.929 . S
Cu23 N24 1.999 1_545 S
Cu23 O29 1.974 . S
Cu23 N34 1.985 . S
Cu23 O43 1.959 . S
N24 Cu23 1.999 1_565 S
N24 C26 1.263 . S
N24 C28 1.389 . S
N25 C26 1.358 . S
N25 C27 1.400 . S
C26 N24 1.263 . S
C26 N25 1.358 . S
C26 H32 0.930 1_455 S
C27 N25 1.400 . S
C27 C28 1.351 . S
C27 H44 0.930 . S
C28 N24 1.389 . S
C28 C27 1.351 . S
C28 H33 0.930 . S
O29 Cu23 1.974 . S
O29 C39 1.282 1_455 S
C30 O31 1.261 1_545 S
C30 O43 1.251 1_655 S
O31 C30 1.261 1_565 S
H32 C26 0.930 1_655 S
H33 C28 0.930 . S
N34 Cu23 1.985 . S
N34 C36 1.335 . S
N34 C37 1.390 1_455 S
N35 C36 1.345 . S
N35 C38 1.336 1_455 S
C36 N34 1.335 . S
C36 N35 1.345 . S
C36 H41 0.930 . S
C37 N34 1.390 1_655 S
C37 C38 1.346 . S
C37 H42 0.930 . S
C38 N35 1.336 1_655 S
C38 C37 1.346 . S
C38 H45 0.929 . S
C39 O29 1.282 1_655 S
C39 O40 1.216 . S
O40 C39 1.216 . S
H41 C36 0.930 . S
H42 C37 0.930 . S
O43 Cu23 1.959 . S
O43 C30 1.251 1_455 S
H44 C27 0.930 . S
H45 C38 0.929 . S
H46 C47 0.951 . S
C47 H46 0.951 . S
C47 C53 1.265 1_655 S
H48 C53 0.950 . S
H49 C57 0.949 . S
H50 C58 0.950 . S
H51 C59 0.951 . S
H52 C60 0.951 . S
C53 C47 1.265 1_455 S
C53 H48 0.950 . S
C53 C54 1.478 . S
C54 C53 1.478 . S
C54 C55 1.397 . S
C54 C71 1.394 1_445 S
C55 C54 1.397 . S
C55 C56 1.438 1_455 S
C55 C60 1.429 . S
C56 C55 1.438 1_655 S
C56 C57 1.428 . S
C56 C69 1.394 . S
C57 H49 0.949 . S
C57 C56 1.428 . S
C57 C58 1.345 1_655 S
C58 H50 0.950 . S
C58 C57 1.345 1_455 S
C58 C59 1.424 . S
C59 H51 0.951 . S
C59 C58 1.424 . S
C59 C60 1.347 . S
C60 H52 0.951 . S
C60 C55 1.429 . S
C60 C59 1.347 . S
H61 C62 0.951 1_455 S
C62 H61 0.951 1_655 S
C62 C68 1.265 1_545 S
H63 C68 0.950 . S
H64 C72 0.949 1_455 S
H65 C73 0.950 . S
H66 C74 0.951 . S
H67 C75 0.951 . S
C68 C62 1.265 1_565 S
C68 H63 0.950 . S
C68 C69 1.478 1_565 S
C69 C56 1.394 . S
C69 C68 1.478 1_545 S
C69 C70 1.397 1_545 S
C70 C69 1.397 1_565 S
C70 C71 1.438 . S
C70 C75 1.429 . S
C71 C54 1.394 1_665 S
C71 C70 1.438 . S
C71 C72 1.428 . S
C72 H64 0.949 1_655 S
C72 C71 1.428 . S
C72 C73 1.345 . S
C73 H65 0.950 . S
C73 C72 1.345 . S
C73 C74 1.424 . S
C74 H66 0.951 . S
C74 C73 1.424 . S
C74 C75 1.347 . S
C75 H67 0.951 . S
C75 C70 1.429 . S
C75 C74 1.347 . S
H76 C77 0.951 . S
C77 H76 0.951 . S
C77 C83 1.265 1_655 S
H78 C83 0.950 . S
H79 C87 0.949 . S
H80 C88 0.950 . S
H81 C89 0.951 . S
H82 C90 0.951 . S
C83 C77 1.265 1_455 S
C83 H78 0.950 . S
C83 C84 1.478 . S
C84 C83 1.478 . S
C84 C85 1.397 1_545 S
C84 C101 1.394 1_455 S
C85 C84 1.397 1_565 S
C85 C86 1.438 . S
C85 C90 1.429 . S
C86 C85 1.438 . S
C86 C87 1.428 . S
C86 C99 1.394 1_465 S
C87 H79 0.949 . S
C87 C86 1.428 . S
C87 C88 1.345 . S
C88 H80 0.950 . S
C88 C87 1.345 . S
C88 C89 1.424 . S
C89 H81 0.951 . S
C89 C88 1.424 . S
C89 C90 1.347 . S
C90 H82 0.951 . S
C90 C85 1.429 . S
C90 C89 1.347 . S
H91 C92 0.951 1_455 S
C92 H91 0.951 1_655 S
C92 C98 1.265 . S
H93 C98 0.950 . S
H94 C102 0.949 . S
H95 C103 0.950 . S
H96 C104 0.951 . S
H97 C105 0.951 . S
C98 C92 1.265 . S
C98 H93 0.950 . S
C98 C99 1.478 . S
C99 C86 1.394 1_645 S
C99 C98 1.478 . S
C99 C100 1.397 . S
C100 C99 1.397 . S
C100 C101 1.438 . S
C100 C105 1.429 . S
C101 C84 1.394 1_655 S
C101 C100 1.438 . S
C101 C102 1.428 . S
C102 H94 0.949 . S
C102 C101 1.428 . S
C102 C103 1.345 . S
C103 H95 0.950 . S
C103 C102 1.345 . S
C103 C104 1.424 . S
C104 H96 0.951 . S
C104 C103 1.424 . S
C104 C105 1.347 . S
C105 H97 0.951 . S
C105 C100 1.429 . S
C105 C104 1.347 . S
H106 C107 0.951 . S
C107 H106 0.951 . S
C107 C113 1.265 1_565 S
H108 C113 0.950 . S
H109 C117 0.949 . S
H110 C118 0.950 . S
H111 C119 0.951 . S
H112 C120 0.951 . S
C113 C107 1.265 1_545 S
C113 H108 0.950 . S
C113 C114 1.478 1_545 S
C114 C113 1.478 1_565 S
C114 C115 1.397 1_554 S
C114 C131 1.394 . S
C115 C114 1.397 1_556 S
C115 C116 1.438 . S
C115 C120 1.429 . S
C116 C115 1.438 . S
C116 C117 1.428 . S
C116 C129 1.394 1_556 S
C117 H109 0.949 . S
C117 C116 1.428 . S
C117 C118 1.345 . S
C118 H110 0.950 . S
C118 C117 1.345 . S
C118 C119 1.424 . S
C119 H111 0.951 . S
C119 C118 1.424 . S
C119 C120 1.347 . S
C120 H112 0.951 . S
C120 C115 1.429 . S
C120 C119 1.347 . S
H121 C122 0.951 1_545 S
C122 H121 0.951 1_565 S
C122 C128 1.265 . S
H123 C128 0.950 . S
H124 C132 0.949 . S
H125 C133 0.950 1_545 S
H126 C134 0.951 . S
H127 C135 0.951 . S
C128 C122 1.265 . S
C128 H123 0.950 . S
C128 C129 1.478 . S
C129 C116 1.394 1_554 S
C129 C128 1.478 . S
C129 C130 1.397 . S
C130 C129 1.397 . S
C130 C131 1.438 . S
C130 C135 1.429 . S
C131 C114 1.394 . S
C131 C130 1.438 . S
C131 C132 1.428 1_565 S
C132 H124 0.949 . S
C132 C131 1.428 1_545 S
C132 C133 1.345 1_545 S
C133 H125 0.950 1_565 S
C133 C132 1.345 1_565 S
C133 C134 1.424 . S
C134 H126 0.951 . S
C134 C133 1.424 . S
C134 C135 1.347 . S
C135 H127 0.951 . S
C135 C130 1.429 . S
C135 C134 1.347 . S
H136 C137 0.951 . S
C137 H136 0.951 . S
C137 C143 1.265 . S
H138 C143 0.950 . S
H139 C147 0.949 . S
H140 C148 0.950 . S
H141 C149 0.951 . S
H142 C150 0.951 . S
C143 C137 1.265 . S
C143 H138 0.950 . S
C143 C144 1.478 . S
C144 C143 1.478 . S
C144 C145 1.397 1_455 S
C144 C161 1.394 . S
C145 C144 1.397 1_655 S
C145 C146 1.438 . S
C145 C150 1.429 . S
C146 C145 1.438 . S
C146 C147 1.428 . S
C146 C159 1.394 1_655 S
C147 H139 0.949 . S
C147 C146 1.428 . S
C147 C148 1.345 . S
C148 H140 0.950 . S
C148 C147 1.345 . S
C148 C149 1.424 . S
C149 H141 0.951 . S
C149 C148 1.424 . S
C149 C150 1.347 . S
C150 H142 0.951 . S
C150 C145 1.429 . S
C150 C149 1.347 . S
H151 C152 0.951 . S
C152 H151 0.951 . S
C152 C158 1.265 . S
H153 C158 0.950 . S
H154 C162 0.949 . S
H155 C163 0.950 . S
H156 C164 0.951 . S
H157 C165 0.951 . S
C158 C152 1.265 . S
C158 H153 0.950 . S
C158 C159 1.478 . S
C159 C146 1.394 1_455 S
C159 C158 1.478 . S
C159 C160 1.397 . S
C160 C159 1.397 . S
C160 C161 1.438 . S
C160 C165 1.429 . S
C161 C144 1.394 . S
C161 C160 1.438 . S
C161 C162 1.428 . S
C162 H154 0.949 . S
C162 C161 1.428 . S
C162 C163 1.345 . S
C163 H155 0.950 . S
C163 C162 1.345 . S
C163 C164 1.424 . S
C164 H156 0.951 . S
C164 C163 1.424 . S
C164 C165 1.347 . S
C165 H157 0.951 . S
C165 C160 1.429 . S
C165 C164 1.347 . S
C47 N12 1.487 1_655 S
C62 C30 1.484 . S
C77 N2 1.416 . S
C92 C39 1.495 . S
C107 C7 1.481 . S
C122 C16 1.489 . S
C137 N25 1.419 . S
C152 N35 1.413 . S
