# Generated by pormake.
# Topology pcu, (6)-cn, num edge types: 1
# Building blocks:
#     Node 0, Type 0, BuildingBlock: BETDAH_clean_sbu_0, # of connection points: 6
#     Edge 1, Type (0, 0), BuildingBlock: EYOCIG_clean_linker_4, # of connection points: 2
#     Edge 2, Type (0, 0), BuildingBlock: EYOCIG_clean_linker_4, # of connection points: 2
#     Edge 3, Type (0, 0), BuildingBlock: EYOCIG_clean_linker_4, # of connection points: 2
# Relax obj value: 0.000
# Max RMSD: 0.000
# Mean RMSD: 0.000
data_MOF--net-pcu--node1-BETDAH_clean_sbu_0--edge1-EYOCIG_clean_linker_4
_symmetry_space_group_name_H-M    P1
_symmetry_Int_Tables_number       1
_symmetry_cell_setting            triclinic
loop_
_symmetry_equiv_pos_as_xyz
'x, y, z'
_cell_length_a     22.321058
_cell_length_b     12.189564
_cell_length_c     11.411929
_cell_angle_alpha  86.692674
_cell_angle_beta   96.489992
_cell_angle_gamma 121.27003
loop_
_atom_site_label
_atom_site_type_symbol
_atom_site_fract_x
_atom_site_fract_y
_atom_site_fract_z
_atom_type_partial_charge
Ho0 Ho 0.94854 0.89955 1.00778 0.0
Ho1 Ho 0.10599 0.03355 0.01324 0.0
C2 C 0.04315 0.21146 1.00252 0.0
C3 C 0.82047 0.83082 0.03936 0.0
C4 C 0.77214 0.88127 0.0237 0.0
C5 C 0.76667 0.946 0.11643 0.0
C6 C 0.71292 -0.02611 0.10929 0.0
C7 C 0.66385 0.93727 1.00966 0.0
C8 C 0.67132 0.87964 0.91419 0.0
C9 C 0.72498 0.85162 0.92111 0.0
C10 C 0.99594 0.92935 0.79454 0.0
C11 C 1.01144 0.72171 0.01962 0.0
C12 C 0.23381 0.10133 0.98101 0.0
C13 C 0.28146 0.04939 0.99569 0.0
C14 C 0.2859 -0.01639 0.90268 0.0
C15 C 0.33899 0.95406 0.90906 0.0
C16 C 0.3884 -0.00996 1.00817 0.0
C17 C 0.38189 0.04862 0.10393 0.0
C18 C 0.3289 0.07831 0.09777 0.0
C19 C 0.05838 0.00402 0.22638 0.0
O20 O 0.98433 0.10789 0.02922 0.0
O21 O 0.09758 0.2071 0.97445 0.0
O22 O 0.83809 0.80454 0.9441 0.0
O23 O 0.87289 0.88179 0.12224 0.0
O24 O 0.93899 0.82929 0.82533 0.0
O25 O 1.02363 0.01263 0.87534 0.0
O26 O 0.07014 0.82511 0.99224 0.0
O27 O 0.9571 0.7263 0.04775 0.0
O28 O 0.21642 0.12713 0.0768 0.0
O29 O 0.18141 0.05187 0.89798 0.0
O30 O 0.1154 0.10403 0.19566 0.0
O31 O 0.031 0.92067 0.14566 0.0
H32 H 0.80196 -0.02978 0.19667 0.0
H33 H 0.70796 0.01916 0.18361 0.0
H34 H 0.63392 0.85135 0.83629 0.0
H35 H 0.72753 0.80167 0.84812 0.0
H36 H 0.25034 0.95984 0.82283 0.0
H37 H 0.34322 0.90808 0.83452 0.0
H38 H 0.41956 0.07644 0.18143 0.0
H39 H 0.32711 0.12896 0.17096 0.0
C40 C 0.03143 -0.02945 0.44954 0.0
C41 C 0.04111 -0.01976 0.34648 0.0
C42 C 1.02282 0.96285 0.57134 0.0
C43 C 1.01316 0.95311 0.67441 0.0
C44 C 0.49992 -0.03344 1.00831 0.0
C45 C 0.44899 -0.02303 1.00767 0.0
C46 C 0.55163 0.95877 1.00839 0.0
C47 C 0.60282 0.9491 1.00924 0.0
C48 C 1.01925 0.51478 0.01597 0.0
C49 C 1.00961 0.60271 0.02063 0.0
C50 C 0.03555 0.41849 1.00777 0.0
C51 C 0.04509 0.33052 1.00245 0.0
loop_
_geom_bond_atom_site_label_1
_geom_bond_atom_site_label_2
_geom_bond_distance
_geom_bond_site_symmetry_2
_ccdc_geom_bond_type
Ho0 C3 2.811 . S
Ho0 O20 2.322 1_565 S
Ho0 O22 2.378 . S
Ho0 O23 2.524 1_556 S
Ho0 O24 2.381 . S
Ho0 O25 2.669 1_665 S
Ho0 O27 2.346 . S
Ho0 O31 2.305 1_556 S
Ho1 C12 2.811 . S
Ho1 O21 2.346 . S
Ho1 O25 2.305 1_554 S
Ho1 O26 2.322 1_545 S
Ho1 O28 2.378 . S
Ho1 O29 2.524 1_554 S
Ho1 O30 2.381 . S
Ho1 O31 2.669 1_445 S
C2 O20 1.259 1_455 S
C2 O21 1.268 1_556 S
C3 Ho0 2.811 . S
C3 C4 1.488 . S
C3 O22 1.215 . S
C3 O23 1.289 1_556 S
C4 C3 1.488 . S
C4 C5 1.348 1_566 S
C4 C9 1.413 . S
C5 C4 1.348 1_544 S
C5 C6 1.442 . S
C5 H32 0.930 . S
C6 C5 1.442 . S
C6 C7 1.381 1_544 S
C6 H33 0.931 . S
C7 C6 1.381 1_566 S
C7 C8 1.321 . S
C8 C7 1.321 . S
C8 C9 1.403 . S
C8 H34 0.934 . S
C9 C4 1.413 . S
C9 C8 1.403 . S
C9 H35 0.930 . S
C10 O24 1.275 . S
C10 O25 1.256 1_665 S
C11 O26 1.259 1_655 S
C11 O27 1.268 1_554 S
C12 Ho1 2.811 . S
C12 C13 1.488 . S
C12 O28 1.215 . S
C12 O29 1.289 1_554 S
C13 C12 1.488 . S
C13 C14 1.348 1_544 S
C13 C18 1.413 . S
C14 C13 1.348 1_566 S
C14 C15 1.442 . S
C14 H36 0.930 . S
C15 C14 1.442 . S
C15 C16 1.381 1_566 S
C15 H37 0.931 . S
C16 C15 1.381 1_544 S
C16 C17 1.321 . S
C17 C16 1.321 . S
C17 C18 1.403 . S
C17 H38 0.934 . S
C18 C13 1.413 . S
C18 C17 1.403 . S
C18 H39 0.930 . S
C19 O30 1.275 . S
C19 O31 1.256 1_445 S
O20 Ho0 2.322 1_545 S
O20 C2 1.259 1_655 S
O21 Ho1 2.346 . S
O21 C2 1.268 1_554 S
O22 Ho0 2.378 . S
O22 C3 1.215 . S
O23 Ho0 2.524 1_554 S
O23 C3 1.289 1_554 S
O24 Ho0 2.381 . S
O24 C10 1.275 . S
O25 Ho0 2.669 1_445 S
O25 Ho1 2.305 1_556 S
O25 C10 1.256 1_445 S
O26 Ho1 2.322 1_565 S
O26 C11 1.259 1_455 S
O27 Ho0 2.346 . S
O27 C11 1.268 1_556 S
O28 Ho1 2.378 . S
O28 C12 1.215 . S
O29 Ho1 2.524 1_556 S
O29 C12 1.289 1_556 S
O30 Ho1 2.381 . S
O30 C19 1.275 . S
O31 Ho0 2.305 1_554 S
O31 Ho1 2.669 1_665 S
O31 C19 1.256 1_665 S
H32 C5 0.930 . S
H33 C6 0.931 . S
H34 C8 0.934 . S
H35 C9 0.930 . S
H36 C14 0.930 . S
H37 C15 0.931 . S
H38 C17 0.934 . S
H39 C18 0.930 . S
C40 C41 1.170 . S
C40 C42 1.380 . S
C41 C40 1.170 . S
C42 C40 1.380 . S
C42 C43 1.170 . S
C43 C42 1.170 . S
C44 C45 1.170 . S
C44 C46 1.380 . S
C45 C44 1.170 . S
C46 C44 1.380 . S
C46 C47 1.170 . S
C47 C46 1.170 . S
C48 C49 1.170 . S
C48 C50 1.380 . S
C49 C48 1.170 . S
C50 C48 1.380 . S
C50 C51 1.170 . S
C51 C50 1.170 . S
C41 C19 1.445 . S
C43 C10 1.476 1_445 S
C45 C16 1.499 1_566 S
C47 C7 1.495 . S
C49 C11 1.484 1_455 S
C51 C2 1.490 1_554 S
