# Generated by pormake.
# Topology uom, (4)-cn, num edge types: 1
# Building blocks:
#     Node 0, Type 0, BuildingBlock: ESEHIV_clean_sbu_0, # of connection points: 4
#     Node 1, Type 0, BuildingBlock: ESEHIV_clean_sbu_0, # of connection points: 4
#     Node 2, Type 0, BuildingBlock: ESEHIV_clean_sbu_0, # of connection points: 4
#     Node 3, Type 0, BuildingBlock: ESEHIV_clean_sbu_0, # of connection points: 4
#     Node 4, Type 0, BuildingBlock: ESEHIV_clean_sbu_0, # of connection points: 4
#     Node 5, Type 0, BuildingBlock: ESEHIV_clean_sbu_0, # of connection points: 4
#     Edge 6, Type (0, 0), BuildingBlock: OJICUG_clean_linker_0, # of connection points: 2
#     Edge 7, Type (0, 0), BuildingBlock: OJICUG_clean_linker_0, # of connection points: 2
#     Edge 8, Type (0, 0), BuildingBlock: OJICUG_clean_linker_0, # of connection points: 2
#     Edge 9, Type (0, 0), BuildingBlock: OJICUG_clean_linker_0, # of connection points: 2
#     Edge 10, Type (0, 0), BuildingBlock: OJICUG_clean_linker_0, # of connection points: 2
#     Edge 11, Type (0, 0), BuildingBlock: OJICUG_clean_linker_0, # of connection points: 2
#     Edge 12, Type (0, 0), BuildingBlock: OJICUG_clean_linker_0, # of connection points: 2
#     Edge 13, Type (0, 0), BuildingBlock: OJICUG_clean_linker_0, # of connection points: 2
#     Edge 14, Type (0, 0), BuildingBlock: OJICUG_clean_linker_0, # of connection points: 2
#     Edge 15, Type (0, 0), BuildingBlock: OJICUG_clean_linker_0, # of connection points: 2
#     Edge 16, Type (0, 0), BuildingBlock: OJICUG_clean_linker_0, # of connection points: 2
#     Edge 17, Type (0, 0), BuildingBlock: OJICUG_clean_linker_0, # of connection points: 2
# Relax obj value: 0.093
# Max RMSD: 0.202
# Mean RMSD: 0.159
data_MOF--net-uom--node1-ESEHIV_clean_sbu_0--edge1-OJICUG_clean_linker_0
_symmetry_space_group_name_H-M    P1
_symmetry_Int_Tables_number       1
_symmetry_cell_setting            triclinic
loop_
_symmetry_equiv_pos_as_xyz
'x, y, z'
_cell_length_a     21.084798
_cell_length_b     21.135229
_cell_length_c     36.044434
_cell_angle_alpha  90.945899
_cell_angle_beta   89.554759
_cell_angle_gamma 127.52568
loop_
_atom_site_label
_atom_site_type_symbol
_atom_site_fract_x
_atom_site_fract_y
_atom_site_fract_z
_atom_type_partial_charge
Cu0 Cu 0.35273 0.99263 0.06109 0.0
N1 N 0.40553 0.04605 1.01711 0.0
N2 N 0.42919 0.06149 0.9559 0.0
C3 C 0.37589 0.0163 0.98289 0.0
C4 C 0.49471 0.1231 0.974 0.0
C5 C 0.47998 0.11342 1.01166 0.0
O6 O 0.38522 0.92587 0.07305 0.0
C7 C 0.17789 0.89848 0.07043 0.0
O8 O 0.1838 0.87932 0.10402 0.0
H9 H 0.31776 0.9598 0.97818 0.0
H10 H 0.52185 0.15176 1.03331 0.0
N11 N 0.38662 0.06521 0.10106 0.0
N12 N 0.38928 0.11995 0.15566 0.0
C13 C 0.34281 0.06499 0.12874 0.0
C14 C 0.46318 0.12202 0.11087 0.0
C15 C 0.4651 0.15623 0.14403 0.0
C16 C 0.40367 0.8954 0.04851 0.0
O17 O 0.38521 0.89423 1.01369 0.0
H18 H 0.27844 0.02298 0.1299 0.0
H19 H 0.51446 0.13505 0.09599 0.0
O20 O 0.23981 0.93914 0.05004 0.0
H21 H 0.55002 0.1711 0.96112 0.0
H22 H 0.51887 0.20299 0.1587 0.0
Cu23 Cu 0.32891 0.23589 0.40481 0.0
N24 N 0.29433 0.20336 0.3555 0.0
N25 N 0.29255 0.17112 0.29563 0.0
C26 C 0.33285 0.19461 0.32832 0.0
C27 C 0.22589 0.16477 0.30284 0.0
C28 C 0.22726 0.18476 0.3396 0.0
O29 O 0.43447 0.33839 0.40374 0.0
C30 C 0.28856 0.09443 0.44296 0.0
O31 O 0.31113 0.05767 0.461 0.0
H32 H 0.38912 0.20481 0.33273 0.0
H33 H 0.1821 0.18512 0.35376 0.0
N34 N 0.26014 0.24886 0.43131 0.0
N35 N 0.18728 0.25065 0.47638 0.0
C36 C 0.23269 0.22776 0.4664 0.0
C37 C 0.2321 0.28741 0.41906 0.0
C38 C 0.18711 0.28842 0.44665 0.0
C39 C 0.47182 0.37356 0.43379 0.0
O40 O 0.43717 0.3403 0.46556 0.0
H41 H 0.24774 0.1986 0.48466 0.0
H42 H 0.24431 0.31375 0.39196 0.0
O43 O 0.34174 0.16223 0.42894 0.0
H44 H 0.17972 0.14811 0.28296 0.0
H45 H 0.15605 0.31433 0.44484 0.0
Cu46 Cu 0.04196 0.23926 0.72093 0.0
N47 N 0.96398 0.19457 0.75805 0.0
N48 N 0.91456 0.15825 0.81556 0.0
C49 C 0.98074 0.19655 0.79418 0.0
C50 C 0.85347 0.13098 0.79169 0.0
C51 C 0.88421 0.15365 0.75619 0.0
O52 O 0.10284 0.35454 0.7234 0.0
C53 C 0.06761 0.12824 0.73275 0.0
O54 O 0.98909 0.08214 0.73302 0.0
H55 H 0.04057 0.22392 0.80431 0.0
H56 H 0.85081 0.14076 0.7309 0.0
N57 N 1.00314 0.20491 0.6726 0.0
N58 N 1.01892 0.19288 0.6121 0.0
C59 C 0.04914 0.24106 0.64239 0.0
C60 C 0.94113 0.13142 0.66089 0.0
C61 C 0.95091 0.12375 0.62355 0.0
C62 C 0.06412 0.38289 0.7222 0.0
O63 O 0.98574 0.33323 0.71976 0.0
H64 H 0.10796 0.2982 0.64353 0.0
H65 H 0.89631 0.0843 0.67886 0.0
O66 O 0.10605 0.20327 0.72926 0.0
H67 H 0.7911 0.09737 0.79924 0.0
H68 H 0.91391 0.07 0.60671 0.0
Cu69 Cu 0.83036 0.96011 0.05971 0.0
N70 N 0.87905 0.04294 1.02549 0.0
N71 N 0.90746 0.10703 0.97178 0.0
C72 C 0.85945 0.03653 0.98937 0.0
C73 C 0.95854 0.15979 0.99821 0.0
C74 C 0.94082 0.12015 1.03122 0.0
O75 O 0.71477 0.90338 0.05424 0.0
C76 C 0.92316 0.91307 1.03032 0.0
O77 O 0.94313 0.96462 1.00416 0.0
H78 H 0.8126 0.98048 0.97611 0.0
H79 H 0.9713 0.14563 0.05748 0.0
N80 N 0.86359 0.00168 0.10784 0.0
N81 N 0.90385 0.00936 0.16602 0.0
C82 C 0.88913 0.97433 0.13234 0.0
C83 C 0.86262 0.05678 0.12654 0.0
C84 C 0.88692 0.06118 0.16269 0.0
C85 C 0.66803 0.88989 0.08093 0.0
O86 O 0.69424 0.90208 0.1152 0.0
H87 H 0.89325 0.92673 0.12603 0.0
H88 H 0.84321 0.0894 0.11505 0.0
O89 O 0.86835 0.89568 0.0532 0.0
H90 H 1.0056 0.22268 0.99413 0.0
H91 H 0.89071 0.09855 0.18485 0.0
Cu92 Cu 0.92514 0.81409 0.39837 0.0
N93 N 0.94567 0.8372 0.34796 0.0
N94 N 0.95521 0.88501 0.29152 0.0
C95 C 0.93987 0.8868 0.32791 0.0
C96 C 0.97056 0.83164 0.28883 0.0
C97 C 0.96429 0.8022 0.32352 0.0
O98 O 0.82836 0.70493 0.40194 0.0
C99 C 0.95384 0.95039 0.43714 0.0
O100 O 0.92844 0.98629 0.45439 0.0
H101 H 0.924 0.92274 0.33983 0.0
H102 H 0.97101 0.75694 0.3304 0.0
N103 N 1.01203 0.82573 0.4208 0.0
N104 N 0.09847 0.84205 0.46316 0.0
C105 C 1.02536 0.8233 0.45715 0.0
C106 C 0.07844 0.84576 0.40331 0.0
C107 C 0.13157 0.85581 0.4292 0.0
C108 C 0.78822 0.67834 0.43182 0.0
O109 O 0.81561 0.72437 0.46165 0.0
H110 H 0.98329 0.81052 0.47874 0.0
H111 H 0.08927 0.85609 0.37391 0.0
O112 O 0.90327 0.88278 0.42161 0.0
H113 H 0.9824 0.81258 0.26342 0.0
H114 H 0.19154 0.87562 0.42348 0.0
Cu115 Cu 0.2469 0.86642 0.71232 0.0
N116 N 0.33184 0.92139 0.74624 0.0
N117 N 0.39049 0.97522 0.8014 0.0
C118 C 0.32304 0.93929 0.78095 0.0
C119 C 0.44423 0.98033 0.77828 0.0
C120 C 0.40784 0.94697 0.7443 0.0
O121 O 0.18749 0.75244 0.71964 0.0
C122 C 0.22311 0.97945 0.71932 0.0
O123 O 0.29903 0.02335 0.71005 0.0
H124 H 0.26744 0.92562 0.79083 0.0
H125 H 0.4345 0.94022 0.72036 0.0
N126 N 0.27502 0.88686 0.66224 0.0
N127 N 0.25556 0.88796 0.60131 0.0
C128 C 0.22386 0.87434 0.63562 0.0
C129 C 0.34183 0.90934 0.6443 0.0
C130 C 0.33001 0.9101 0.60669 0.0
C131 C 0.22538 0.72333 0.71644 0.0
O132 O 0.3022 0.77149 0.70898 0.0
H133 H 0.16333 0.85284 0.64139 0.0
H134 H 0.39467 0.92255 0.65738 0.0
O135 O 0.18468 0.90432 0.72216 0.0
H136 H 0.5048 0.00421 0.78556 0.0
H137 H 0.37286 0.92539 0.58505 0.0
C138 C 0.28431 0.10201 0.19715 0.0
C139 C 0.36437 0.13287 0.19085 0.0
H140 H 0.19836 0.08836 0.23509 0.0
C141 C 0.41981 0.17609 0.21995 0.0
H142 H 0.23959 0.06887 0.17565 0.0
C143 C 0.39633 0.18845 0.25398 0.0
C144 C 0.31643 0.1576 0.26034 0.0
H145 H 0.48176 0.20024 0.21688 0.0
H146 H 0.44152 0.22307 0.27514 0.0
C147 C 0.26066 0.11399 0.23139 0.0
C148 C 0.13608 0.29262 0.5253 0.0
C149 C 0.14614 0.23681 0.51108 0.0
H150 H 0.08838 0.32249 0.56919 0.0
C151 C 0.11347 0.16639 0.53083 0.0
H152 H 0.16134 0.34788 0.511 0.0
C153 C 0.06982 0.15095 0.56339 0.0
C154 C 0.06014 0.20687 0.57758 0.0
H155 H 0.1208 0.12282 0.52085 0.0
H156 H 0.04506 0.09609 0.578 0.0
C157 C 0.09452 0.27828 0.55852 0.0
C158 C 0.97703 0.18731 0.91571 0.0
C159 C 0.90766 0.12169 0.93265 0.0
H160 H 1.03323 0.25113 0.86581 0.0
C161 C 0.83931 0.06982 0.91043 0.0
H162 H 1.03107 0.22836 0.93161 0.0
C163 C 0.84092 0.08242 0.87224 0.0
C164 C 0.91095 0.14714 0.85526 0.0
H165 H 0.78441 0.01928 0.92245 0.0
H166 H 0.78776 0.04036 0.85596 0.0
C167 C 0.9786 0.19987 0.87765 0.0
C168 C 0.97365 0.96366 0.19618 0.0
C169 C 0.92508 0.9882 0.19893 0.0
H170 H 1.02363 0.91444 0.22351 0.0
C171 C 0.89253 0.9853 0.23358 0.0
H172 H 1.00075 0.96669 0.16996 0.0
C173 C 0.90449 0.95397 0.26436 0.0
C174 C 0.94983 0.9255 0.26116 0.0
H175 H 0.85454 0.00345 0.23644 0.0
H176 H 0.87529 0.94903 0.29013 0.0
C177 C 0.98633 0.93325 0.22691 0.0
C178 C 0.15246 0.88163 0.56473 0.0
C179 C 0.21612 0.87683 0.56644 0.0
H180 H 0.06571 0.87514 0.5308 0.0
C181 C 0.23952 0.85949 0.53361 0.0
H182 H 0.1335 0.89602 0.5893 0.0
C183 C 0.20036 0.8472 0.50003 0.0
C184 C 0.13679 0.85211 0.49825 0.0
H185 H 0.28728 0.854 0.53389 0.0
H186 H 0.21952 0.8329 0.47551 0.0
C187 C 0.11329 0.86939 0.5311 0.0
C188 C 0.48699 0.07492 0.89345 0.0
C189 C 0.41997 0.04293 0.91655 0.0
H190 H 0.53051 0.0794 0.83896 0.0
C191 C 0.34341 0.98989 0.90075 0.0
H192 H 0.54698 0.11541 0.90452 0.0
C193 C 0.33396 0.96809 0.86325 0.0
C194 C 0.40081 -0.00083 0.84014 0.0
H195 H 0.29029 0.96475 0.91734 0.0
H196 H 0.2738 0.92562 0.85273 0.0
C197 C 0.47753 0.05339 0.85576 0.0
C198 C 0.04094 0.86116 0.08314 0.0
C199 C 0.10352 0.88584 0.05815 0.0
H200 H 0.93363 0.84881 0.09382 0.0
C201 C 0.09859 0.90735 1.02215 0.0
H202 H 0.04252 0.84396 0.11105 0.0
C203 C 1.03638 0.91025 1.01232 0.0
C204 C 0.97711 0.89157 1.03815 0.0
H205 H 0.14507 0.92585 1.00197 0.0
H206 H 1.03712 0.93118 0.98497 0.0
C207 C 0.97829 0.86384 0.07321 0.0
C208 C 0.08397 0.00971 0.40552 0.0
C209 C 1.03914 0.98647 0.43827 0.0
H210 H 0.19848 0.05931 0.38145 0.0
C211 C 0.07658 -0.00106 0.47246 0.0
H212 H 0.05615 0.00076 0.37889 0.0
C213 C 0.15787 0.03344 0.47388 0.0
C214 C 0.2032 0.05841 0.44121 0.0
H215 H 0.04257 0.98066 0.49799 0.0
H216 H 0.18567 0.04189 0.50053 0.0
C217 C 0.16552 0.04505 0.407 0.0
C218 C 0.06459 0.00829 0.73615 0.0
C219 C 0.10891 0.09143 0.73254 0.0
H220 H 0.06567 0.90758 0.73485 0.0
C221 C 0.19157 0.13757 0.72639 0.0
H222 H 1.00073 0.97093 0.74101 0.0
C223 C 0.22865 0.10108 0.72276 0.0
C224 C 0.18391 0.0177 0.72528 0.0
H225 H 0.22737 0.20166 0.72347 0.0
H226 H 0.29232 0.13832 0.71738 0.0
C227 C 0.1017 0.97181 0.73258 0.0
C228 C 0.54997 0.88285 0.1022 0.0
C229 C 0.59105 0.87604 0.07334 0.0
H230 H 0.45844 0.8939 0.11716 0.0
C231 C 0.56262 0.86499 1.03684 0.0
H232 H 0.56992 0.89127 0.13069 0.0
C233 C 0.49801 0.86573 1.02914 0.0
C234 C 0.46067 0.87837 0.0577 0.0
H235 H 0.59241 0.85917 1.01395 0.0
H236 H 0.48024 0.86063 1.00048 0.0
C237 C 0.48586 0.88439 0.09446 0.0
C238 C 0.66702 0.56704 0.4659 0.0
C239 C 0.70873 0.59875 0.43236 0.0
H240 H 0.56003 0.47142 0.49266 0.0
C241 C 0.67228 0.55509 0.39925 0.0
H242 H 0.69326 0.599 0.49191 0.0
C243 C 0.5954 0.48207 0.39964 0.0
C244 C 0.55349 0.45072 0.43318 0.0
H245 H 0.70259 0.57785 0.3729 0.0
H246 H 0.56884 0.45027 0.37363 0.0
C247 C 0.59049 0.4938 0.46632 0.0
C248 C 0.10042 0.58233 0.72254 0.0
C249 C 0.18403 0.63641 0.7196 0.0
H250 H 0.99714 0.46012 0.72562 0.0
C251 C 0.22818 0.6065 0.71868 0.0
H252 H 0.06463 0.60329 0.72332 0.0
C253 C 0.18957 0.52439 0.72014 0.0
C254 C 0.10585 0.47021 0.72234 0.0
H255 H 0.29276 0.64649 0.71655 0.0
H256 H 0.22532 0.5034 0.71899 0.0
C257 C 0.06177 0.50017 0.72379 0.0
loop_
_geom_bond_atom_site_label_1
_geom_bond_atom_site_label_2
_geom_bond_distance
_geom_bond_site_symmetry_2
_ccdc_geom_bond_type
Cu0 N1 1.999 1_554 S
Cu0 O6 1.974 . S
Cu0 N11 1.985 . S
Cu0 O20 1.959 . S
N1 Cu0 1.999 1_556 S
N1 C3 1.263 . S
N1 C5 1.389 . S
N2 C3 1.358 . S
N2 C4 1.400 . S
C3 N1 1.263 . S
C3 N2 1.358 . S
C3 H9 0.930 1_545 S
C4 N2 1.400 . S
C4 C5 1.351 . S
C4 H21 0.930 . S
C5 N1 1.389 . S
C5 C4 1.351 . S
C5 H10 0.930 . S
O6 Cu0 1.974 . S
O6 C16 1.293 . S
C7 O8 1.261 1_545 S
C7 O20 1.251 . S
O8 C7 1.261 1_565 S
H9 C3 0.930 1_565 S
H10 C5 0.930 . S
N11 Cu0 1.985 . S
N11 C13 1.335 . S
N11 C14 1.390 . S
N12 C13 1.345 . S
N12 C15 1.336 . S
C13 N11 1.335 . S
C13 N12 1.345 . S
C13 H18 0.930 . S
C14 N11 1.390 . S
C14 C15 1.346 . S
C14 H19 0.930 . S
C15 N12 1.336 . S
C15 C14 1.346 . S
C15 H22 0.929 . S
C16 O6 1.293 . S
C16 O17 1.210 1_545 S
O17 C16 1.210 1_565 S
H18 C13 0.930 . S
H19 C14 0.930 . S
O20 Cu0 1.959 . S
O20 C7 1.251 . S
H21 C4 0.930 . S
H22 C15 0.929 . S
Cu23 N24 1.999 . S
Cu23 O29 1.974 . S
Cu23 N34 1.985 . S
Cu23 O43 1.959 . S
N24 Cu23 1.999 . S
N24 C26 1.263 . S
N24 C28 1.389 . S
N25 C26 1.358 . S
N25 C27 1.400 . S
C26 N24 1.263 . S
C26 N25 1.358 . S
C26 H32 0.930 . S
C27 N25 1.400 . S
C27 C28 1.351 . S
C27 H44 0.930 . S
C28 N24 1.389 . S
C28 C27 1.351 . S
C28 H33 0.930 . S
O29 Cu23 1.974 . S
O29 C39 1.282 . S
C30 O31 1.261 . S
C30 O43 1.251 . S
O31 C30 1.261 . S
H32 C26 0.930 . S
H33 C28 0.930 . S
N34 Cu23 1.985 . S
N34 C36 1.335 . S
N34 C37 1.390 . S
N35 C36 1.345 . S
N35 C38 1.336 . S
C36 N34 1.335 . S
C36 N35 1.345 . S
C36 H41 0.930 . S
C37 N34 1.390 . S
C37 C38 1.346 . S
C37 H42 0.930 . S
C38 N35 1.336 . S
C38 C37 1.346 . S
C38 H45 0.929 . S
C39 O29 1.282 . S
C39 O40 1.216 . S
O40 C39 1.216 . S
H41 C36 0.930 . S
H42 C37 0.930 . S
O43 Cu23 1.959 . S
O43 C30 1.251 . S
H44 C27 0.930 . S
H45 C38 0.929 . S
Cu46 N47 1.999 . S
Cu46 O52 1.974 . S
Cu46 N57 1.985 . S
Cu46 O66 1.959 . S
N47 Cu46 1.999 . S
N47 C49 1.263 1_455 S
N47 C51 1.389 . S
N48 C49 1.358 . S
N48 C50 1.400 1_655 S
C49 N47 1.263 1_655 S
C49 N48 1.358 . S
C49 H55 0.930 . S
C50 N48 1.400 1_455 S
C50 C51 1.351 . S
C50 H67 0.930 . S
C51 N47 1.389 . S
C51 C50 1.351 . S
C51 H56 0.930 . S
O52 Cu46 1.974 . S
O52 C62 1.282 1_455 S
C53 O54 1.261 . S
C53 O66 1.251 1_655 S
O54 C53 1.261 . S
H55 C49 0.930 . S
H56 C51 0.930 . S
N57 Cu46 1.985 . S
N57 C59 1.335 . S
N57 C60 1.390 . S
N58 C59 1.345 . S
N58 C61 1.336 . S
C59 N57 1.335 . S
C59 N58 1.345 . S
C59 H64 0.930 . S
C60 N57 1.390 . S
C60 C61 1.346 . S
C60 H65 0.930 . S
C61 N58 1.336 . S
C61 C60 1.346 . S
C61 H68 0.929 . S
C62 O52 1.282 1_655 S
C62 O63 1.216 . S
O63 C62 1.216 . S
H64 C59 0.930 . S
H65 C60 0.930 . S
O66 Cu46 1.959 . S
O66 C53 1.251 1_455 S
H67 C50 0.930 . S
H68 C61 0.929 . S
Cu69 N70 1.999 1_564 S
Cu69 O75 1.974 1_565 S
Cu69 N80 1.985 . S
Cu69 O89 1.959 . S
N70 Cu69 1.999 1_546 S
N70 C72 1.263 . S
N70 C74 1.389 1_545 S
N71 C72 1.358 . S
N71 C73 1.400 . S
C72 N70 1.263 . S
C72 N71 1.358 . S
C72 H78 0.930 . S
C73 N71 1.400 . S
C73 C74 1.351 1_545 S
C73 H90 0.930 . S
C74 N70 1.389 1_565 S
C74 C73 1.351 1_565 S
C74 H79 0.930 . S
O75 Cu69 1.974 1_545 S
O75 C85 1.282 . S
C76 O77 1.261 . S
C76 O89 1.251 1_545 S
O77 C76 1.261 . S
H78 C72 0.930 . S
H79 C74 0.930 . S
N80 Cu69 1.985 . S
N80 C82 1.335 . S
N80 C83 1.390 1_565 S
N81 C82 1.345 . S
N81 C84 1.336 . S
C82 N80 1.335 . S
C82 N81 1.345 . S
C82 H87 0.930 . S
C83 N80 1.390 1_545 S
C83 C84 1.346 1_545 S
C83 H88 0.930 . S
C84 N81 1.336 . S
C84 C83 1.346 1_565 S
C84 H91 0.929 . S
C85 O75 1.282 . S
C85 O86 1.216 . S
O86 C85 1.216 . S
H87 C82 0.930 . S
H88 C83 0.930 . S
O89 Cu69 1.959 . S
O89 C76 1.251 1_565 S
H90 C73 0.930 . S
H91 C84 0.929 . S
Cu92 N93 1.999 . S
Cu92 O98 1.974 . S
Cu92 N103 1.985 . S
Cu92 O112 1.959 . S
N93 Cu92 1.999 . S
N93 C95 1.263 . S
N93 C97 1.389 . S
N94 C95 1.358 . S
N94 C96 1.400 . S
C95 N93 1.263 . S
C95 N94 1.358 . S
C95 H101 0.930 . S
C96 N94 1.400 . S
C96 C97 1.351 . S
C96 H113 0.930 . S
C97 N93 1.389 . S
C97 C96 1.351 . S
C97 H102 0.930 . S
O98 Cu92 1.974 . S
O98 C108 1.282 . S
C99 O100 1.261 . S
C99 O112 1.251 . S
O100 C99 1.261 . S
H101 C95 0.930 . S
H102 C97 0.930 . S
N103 Cu92 1.985 . S
N103 C105 1.335 . S
N103 C106 1.390 . S
N104 C105 1.345 . S
N104 C107 1.336 . S
C105 N103 1.335 . S
C105 N104 1.345 . S
C105 H110 0.930 . S
C106 N103 1.390 . S
C106 C107 1.346 . S
C106 H111 0.930 . S
C107 N104 1.336 . S
C107 C106 1.346 . S
C107 H114 0.929 . S
C108 O98 1.282 . S
C108 O109 1.216 . S
O109 C108 1.216 . S
H110 C105 0.930 . S
H111 C106 0.930 . S
O112 Cu92 1.959 . S
O112 C99 1.251 . S
H113 C96 0.930 . S
H114 C107 0.929 . S
Cu115 N116 1.999 . S
Cu115 O121 1.974 . S
Cu115 N126 1.985 . S
Cu115 O135 1.959 . S
N116 Cu115 1.999 . S
N116 C118 1.263 . S
N116 C120 1.389 . S
N117 C118 1.358 . S
N117 C119 1.400 . S
C118 N116 1.263 . S
C118 N117 1.358 . S
C118 H124 0.930 . S
C119 N117 1.400 . S
C119 C120 1.351 . S
C119 H136 0.930 . S
C120 N116 1.389 . S
C120 C119 1.351 . S
C120 H125 0.930 . S
O121 Cu115 1.974 . S
O121 C131 1.282 . S
C122 O123 1.259 . S
C122 O135 1.251 . S
O123 C122 1.259 . S
H124 C118 0.930 . S
H125 C120 0.930 . S
N126 Cu115 1.985 . S
N126 C128 1.335 . S
N126 C129 1.390 . S
N127 C128 1.345 . S
N127 C130 1.336 . S
C128 N126 1.335 . S
C128 N127 1.345 . S
C128 H133 0.930 . S
C129 N126 1.390 . S
C129 C130 1.346 . S
C129 H134 0.930 . S
C130 N127 1.336 . S
C130 C129 1.346 . S
C130 H137 0.929 . S
C131 O121 1.282 . S
C131 O132 1.216 . S
O132 C131 1.216 . S
H133 C128 0.930 . S
H134 C129 0.930 . S
O135 Cu115 1.959 . S
O135 C122 1.251 . S
H136 C119 0.930 . S
H137 C130 0.929 . S
C138 C139 1.387 . S
C138 H142 0.950 . S
C138 C147 1.390 . S
C139 C138 1.387 . S
C139 C141 1.387 . S
H140 C147 0.950 . S
C141 C139 1.387 . S
C141 C143 1.390 . S
C141 H145 0.950 . S
H142 C138 0.950 . S
C143 C141 1.390 . S
C143 C144 1.387 . S
C143 H146 0.950 . S
C144 C143 1.387 . S
C144 C147 1.387 . S
H145 C141 0.950 . S
H146 C143 0.950 . S
C147 C138 1.390 . S
C147 H140 0.950 . S
C147 C144 1.387 . S
C148 C149 1.387 . S
C148 H152 0.950 . S
C148 C157 1.390 . S
C149 C148 1.387 . S
C149 C151 1.387 . S
H150 C157 0.950 . S
C151 C149 1.387 . S
C151 C153 1.390 . S
C151 H155 0.950 . S
H152 C148 0.950 . S
C153 C151 1.390 . S
C153 C154 1.387 . S
C153 H156 0.950 . S
C154 C153 1.387 . S
C154 C157 1.387 . S
H155 C151 0.950 . S
H156 C153 0.950 . S
C157 C148 1.390 . S
C157 H150 0.950 . S
C157 C154 1.387 . S
C158 C159 1.387 . S
C158 H162 0.950 . S
C158 C167 1.390 . S
C159 C158 1.387 . S
C159 C161 1.387 . S
H160 C167 0.950 . S
C161 C159 1.387 . S
C161 C163 1.390 . S
C161 H165 0.950 . S
H162 C158 0.950 . S
C163 C161 1.390 . S
C163 C164 1.387 . S
C163 H166 0.950 1_655 S
C164 C163 1.387 . S
C164 C167 1.387 . S
H165 C161 0.950 . S
H166 C163 0.950 1_455 S
C167 C158 1.390 . S
C167 H160 0.950 . S
C167 C164 1.387 . S
C168 C169 1.387 . S
C168 H172 0.950 . S
C168 C177 1.390 . S
C169 C168 1.387 . S
C169 C171 1.387 . S
H170 C177 0.950 . S
C171 C169 1.387 . S
C171 C173 1.390 . S
C171 H175 0.950 . S
H172 C168 0.950 . S
C173 C171 1.390 . S
C173 C174 1.387 . S
C173 H176 0.950 . S
C174 C173 1.387 . S
C174 C177 1.387 . S
H175 C171 0.950 . S
H176 C173 0.950 . S
C177 C168 1.390 . S
C177 H170 0.950 . S
C177 C174 1.387 . S
C178 C179 1.387 . S
C178 H182 0.950 . S
C178 C187 1.390 . S
C179 C178 1.387 . S
C179 C181 1.385 1_455 S
H180 C187 0.950 . S
C181 C179 1.385 1_655 S
C181 C183 1.397 . S
C181 H185 0.945 . S
H182 C178 0.950 . S
C183 C181 1.397 . S
C183 C184 1.387 . S
C183 H186 0.950 . S
C184 C183 1.387 . S
C184 C187 1.387 1_655 S
H185 C181 0.945 . S
H186 C183 0.950 . S
C187 C178 1.390 . S
C187 H180 0.950 . S
C187 C184 1.387 1_455 S
C188 C189 1.387 . S
C188 H192 0.950 . S
C188 C197 1.390 . S
C189 C188 1.387 . S
C189 C191 1.387 . S
H190 C197 0.950 . S
C191 C189 1.387 . S
C191 C193 1.390 . S
C191 H195 0.950 . S
H192 C188 0.950 . S
C193 C191 1.390 . S
C193 C194 1.387 . S
C193 H196 0.950 . S
C194 C193 1.387 . S
C194 C197 1.387 . S
H195 C191 0.950 . S
H196 C193 0.950 . S
C197 C188 1.390 . S
C197 H190 0.950 . S
C197 C194 1.387 . S
C198 C199 1.387 . S
C198 H202 0.950 . S
C198 C207 1.390 . S
C199 C198 1.387 . S
C199 C201 1.371 1_554 S
H200 C207 0.950 . S
C201 C199 1.371 1_556 S
C201 C203 1.390 . S
C201 H205 0.966 . S
H202 C198 0.950 . S
C203 C201 1.390 . S
C203 C204 1.371 1_556 S
C203 H206 0.966 . S
C204 C203 1.371 1_554 S
C204 C207 1.387 . S
H205 C201 0.966 . S
H206 C203 0.966 . S
C207 C198 1.390 . S
C207 H200 0.950 . S
C207 C204 1.387 . S
C208 C209 1.387 1_545 S
C208 H212 0.950 1_545 S
C208 C217 1.390 . S
C209 C208 1.387 1_565 S
C209 C211 1.387 1_565 S
H210 C217 0.950 . S
C211 C209 1.387 1_545 S
C211 C213 1.390 . S
C211 H215 0.950 1_545 S
H212 C208 0.950 1_565 S
C213 C211 1.390 . S
C213 C214 1.387 . S
C213 H216 0.950 . S
C214 C213 1.387 . S
C214 C217 1.387 . S
H215 C211 0.950 1_565 S
H216 C213 0.950 . S
C217 C208 1.390 . S
C217 H210 0.950 . S
C217 C214 1.387 . S
C218 C219 1.387 . S
C218 H222 0.950 . S
C218 C227 1.390 . S
C219 C218 1.387 . S
C219 C221 1.387 . S
H220 C227 0.950 . S
C221 C219 1.387 . S
C221 C223 1.390 . S
C221 H225 0.950 . S
H222 C218 0.950 . S
C223 C221 1.390 . S
C223 C224 1.387 . S
C223 H226 0.950 . S
C224 C223 1.387 . S
C224 C227 1.387 . S
H225 C221 0.950 . S
H226 C223 0.950 . S
C227 C218 1.390 . S
C227 H220 0.950 . S
C227 C224 1.387 . S
C228 C229 1.387 . S
C228 H232 0.950 . S
C228 C237 1.390 . S
C229 C228 1.387 . S
C229 C231 1.387 1_554 S
H230 C237 0.950 . S
C231 C229 1.387 1_556 S
C231 C233 1.390 . S
C231 H235 0.950 . S
H232 C228 0.950 . S
C233 C231 1.390 . S
C233 C234 1.387 1_556 S
C233 H236 0.950 . S
C234 C233 1.387 1_554 S
C234 C237 1.387 . S
H235 C231 0.950 . S
H236 C233 0.950 . S
C237 C228 1.390 . S
C237 H230 0.950 . S
C237 C234 1.387 . S
C238 C239 1.387 . S
C238 H242 0.950 . S
C238 C247 1.390 . S
C239 C238 1.387 . S
C239 C241 1.387 . S
H240 C247 0.950 . S
C241 C239 1.387 . S
C241 C243 1.390 . S
C241 H245 0.950 . S
H242 C238 0.950 . S
C243 C241 1.390 . S
C243 C244 1.387 . S
C243 H246 0.950 . S
C244 C243 1.387 . S
C244 C247 1.387 . S
H245 C241 0.950 . S
H246 C243 0.950 . S
C247 C238 1.390 . S
C247 H240 0.950 . S
C247 C244 1.387 . S
C248 C249 1.387 . S
C248 H252 0.950 . S
C248 C257 1.390 . S
C249 C248 1.387 . S
C249 C251 1.387 . S
H250 C257 0.950 . S
C251 C249 1.387 . S
C251 C253 1.390 . S
C251 H255 0.950 . S
H252 C248 0.950 . S
C253 C251 1.390 . S
C253 C254 1.387 . S
C253 H256 0.950 . S
C254 C253 1.387 . S
C254 C257 1.387 . S
H255 C251 0.950 . S
H256 C253 0.950 . S
C257 C248 1.390 . S
C257 H250 0.950 . S
C257 C254 1.387 . S
C139 N12 1.684 . S
C144 N25 1.577 . S
C149 N35 1.619 . S
C154 N58 1.601 . S
C159 N71 1.700 . S
C164 N48 1.669 . S
C169 N81 1.683 . S
C174 N94 1.574 . S
C179 N127 1.603 . S
C184 N104 1.620 . S
C189 N2 1.701 1_565 S
C194 N117 1.666 . S
C199 C7 1.738 . S
C204 C76 1.738 1_455 S
C209 C99 0.456 1_455 S
C214 C30 0.456 . S
C219 C53 1.762 1_455 S
C224 C122 1.760 1_545 S
C229 C85 1.760 . S
C234 C16 1.754 . S
C239 C108 1.333 . S
C244 C39 1.333 . S
C249 C131 2.152 . S
C254 C62 2.152 1_455 S
