# Generated by pormake.
# Topology lon, (4)-cn, num edge types: 1
# Building blocks:
#     Node 0, Type 0, BuildingBlock: CEKHIL_clean_sbu_0, # of connection points: 4
#     Node 1, Type 0, BuildingBlock: CEKHIL_clean_sbu_0, # of connection points: 4
#     Node 2, Type 0, BuildingBlock: CEKHIL_clean_sbu_0, # of connection points: 4
#     Node 3, Type 0, BuildingBlock: CEKHIL_clean_sbu_0, # of connection points: 4
#     Edge 4, Type (0, 0), BuildingBlock: CIFDUS_clean_linker_0, # of connection points: 2
#     Edge 5, Type (0, 0), BuildingBlock: CIFDUS_clean_linker_0, # of connection points: 2
#     Edge 6, Type (0, 0), BuildingBlock: CIFDUS_clean_linker_0, # of connection points: 2
#     Edge 7, Type (0, 0), BuildingBlock: CIFDUS_clean_linker_0, # of connection points: 2
#     Edge 8, Type (0, 0), BuildingBlock: CIFDUS_clean_linker_0, # of connection points: 2
#     Edge 9, Type (0, 0), BuildingBlock: CIFDUS_clean_linker_0, # of connection points: 2
#     Edge 10, Type (0, 0), BuildingBlock: CIFDUS_clean_linker_0, # of connection points: 2
#     Edge 11, Type (0, 0), BuildingBlock: CIFDUS_clean_linker_0, # of connection points: 2
# Relax obj value: 0.141
# Max RMSD: 0.174
# Mean RMSD: 0.173
data_MOF--net-lon--node1-CEKHIL_clean_sbu_0--edge1-CIFDUS_clean_linker_0
_symmetry_space_group_name_H-M    P1
_symmetry_Int_Tables_number       1
_symmetry_cell_setting            triclinic
loop_
_symmetry_equiv_pos_as_xyz
'x, y, z'
_cell_length_a     19.761928
_cell_length_b     21.427265
_cell_length_c     35.522776
_cell_angle_alpha  91.375125
_cell_angle_beta   89.190939
_cell_angle_gamma 117.35755
loop_
_atom_site_label
_atom_site_type_symbol
_atom_site_fract_x
_atom_site_fract_y
_atom_site_fract_z
_atom_type_partial_charge
Co0 Co 0.38371 0.72846 0.09106 0.0
O1 O 0.34141 0.76549 0.13051 0.0
O2 O 0.38539 0.68894 0.1389 0.0
C3 C 0.45951 0.83333 0.06424 0.0
O4 O 0.43511 0.67934 0.06105 0.0
Co5 Co 0.36858 0.73581 1.00563 0.0
O6 O 0.44077 0.6956 0.99892 0.0
C7 C 0.2371 0.6336 0.04969 0.0
C8 C 0.35613 0.72709 0.15363 0.0
C9 C 0.45704 0.67123 0.02779 0.0
O10 O 0.27833 0.64929 0.07963 0.0
O11 O 0.26164 0.66526 0.01851 0.0
O12 O 0.48126 0.81382 0.09419 0.0
O13 O 0.39179 0.791 0.0524 0.0
Co14 Co 0.64867 0.33583 0.58813 0.0
O15 O 0.57948 0.29679 0.63018 0.0
O16 O 0.70284 0.32929 0.63181 0.0
C17 C 0.60458 0.41294 0.57356 0.0
O18 O 0.7394 0.38043 0.55164 0.0
Co19 Co 0.59164 0.32815 0.50641 0.0
O20 O 0.69991 0.38541 0.49323 0.0
C21 C 0.59412 0.20322 0.53902 0.0
C22 C 0.63819 0.3055 0.64977 0.0
C23 C 0.75278 0.39733 0.51669 0.0
O24 O 0.62634 0.23829 0.56928 0.0
O25 O 0.57212 0.22863 0.51233 0.0
O26 O 0.65502 0.428 0.59985 0.0
O27 O 0.5799 0.35117 0.55824 0.0
Co28 Co 0.31465 0.66704 0.44107 0.0
O29 O 0.28922 0.70667 0.39738 0.0
O30 O 0.3704 0.66253 0.39753 0.0
C31 C 0.19413 0.60154 0.46217 0.0
O32 O 0.35566 0.61721 0.47503 0.0
Co33 Co 0.28321 0.68088 0.52569 0.0
O34 O 0.32756 0.61704 0.5363 0.0
C35 C 0.40601 0.80093 0.48643 0.0
C36 C 0.33601 0.69017 0.37847 0.0
C37 C 0.35789 0.59935 0.50905 0.0
O38 O 0.3986 0.76312 0.45641 0.0
O39 O 0.36234 0.77856 0.51518 0.0
O40 O 0.22017 0.57923 0.43384 0.0
O41 O 0.2393 0.66317 0.47542 0.0
Co42 Co 0.68496 0.31257 0.93828 0.0
O43 O 0.61765 0.28307 0.89433 0.0
O44 O 0.74059 0.35644 0.89369 0.0
C45 C 0.64198 0.20336 0.962 0.0
O46 O 0.77792 0.35461 0.97213 0.0
Co47 Co 0.64935 0.29811 0.02223 0.0
O48 O 0.75974 0.3373 0.03375 0.0
C49 C 0.63005 0.40648 0.97952 0.0
C50 C 0.67842 0.32181 0.87477 0.0
C51 C 0.80402 0.3615 1.00567 0.0
O52 O 0.66056 0.39365 0.94985 0.0
O53 O 0.6167 0.37084 1.00958 0.0
O54 O 0.6916 0.22411 0.93475 0.0
O55 O 0.61871 0.24767 0.97385 0.0
H56 H 0.41531 0.67915 0.20677 0.0
H57 H 0.27026 0.77789 0.19367 0.0
H58 H 0.25098 0.77678 0.26226 0.0
H59 H 0.27469 0.74521 0.32655 0.0
H60 H 0.425 0.65043 0.33655 0.0
H61 H 0.44279 0.65299 0.26901 0.0
C62 C 0.37922 0.70037 0.21878 0.0
C63 C 0.34377 0.72796 0.19502 0.0
C64 C 0.36944 0.70045 0.25798 0.0
C65 C 0.29811 0.75609 0.21129 0.0
C66 C 0.2871 0.75544 0.25054 0.0
C67 C 0.31159 0.72557 0.31389 0.0
C68 C 0.34808 0.69742 0.33695 0.0
C69 C 0.3224 0.7275 0.2743 0.0
C70 C 0.39589 0.67235 0.31988 0.0
C71 C 0.40619 0.67358 0.28104 0.0
H72 H 0.75332 0.35791 0.7006 0.0
H73 H 0.50974 0.23347 0.69217 0.0
H74 H 0.49925 0.22658 0.7609 0.0
H75 H 0.55974 0.25907 0.82412 0.0
H76 H 0.80327 0.38884 0.83082 0.0
H77 H 0.81286 0.39072 0.76266 0.0
C78 C 0.698 0.32854 0.71375 0.0
C79 C 0.63258 0.29581 0.6912 0.0
C80 C 0.69216 0.32639 0.75328 0.0
C81 C 0.56118 0.25895 0.70884 0.0
C82 C 0.55508 0.25521 0.7482 0.0
C83 C 0.61474 0.2879 0.81061 0.0
C84 C 0.68051 0.32386 0.83286 0.0
C85 C 0.62016 0.28939 0.77085 0.0
C86 C 0.7514 0.36087 0.81471 0.0
C87 C 0.75722 0.36186 0.77554 0.0
H88 H 0.49522 0.62206 0.96241 0.0
H89 H 0.51468 0.62516 0.08359 0.0
H90 H 0.57448 0.54852 0.07854 0.0
H91 H 0.61401 0.4749 0.04094 0.0
H92 H 0.59529 0.46755 0.91993 0.0
H93 H 0.54377 0.55241 0.92372 0.0
C94 C 0.5132 0.60651 0.98768 0.0
C95 C 0.49947 0.62916 0.0234 0.0
C96 C 0.54761 0.56151 0.98467 0.0
C97 C 0.52352 0.60837 0.05575 0.0
C98 C 0.55794 0.56442 0.05294 0.0
C99 C 0.59906 0.49191 0.01523 0.0
C100 C 0.60772 0.4641 0.9802 0.0
C101 C 0.56899 0.53974 0.0177 0.0
C102 C 0.58927 0.488 0.94727 0.0
C103 C 0.55937 0.53623 0.94948 0.0
H104 H 0.06412 0.50964 0.4267 0.0
H105 H 0.15297 0.60328 0.53528 0.0
H106 H 0.0252 0.54569 0.5626 0.0
H107 H 0.88636 0.47369 0.55489 0.0
H108 H 0.79709 0.38813 0.44489 0.0
H109 H 0.92572 0.43733 0.41906 0.0
C110 C 0.05542 0.51646 0.45643 0.0
C111 C 0.1178 0.56025 0.47896 0.0
C112 C 0.98125 0.48524 0.47169 0.0
C113 C 0.10575 0.56977 0.51732 0.0
C114 C 0.03263 0.53698 0.53298 0.0
C115 C 0.89519 0.46567 0.52533 0.0
C116 C 0.832 0.42766 0.50191 0.0
C117 C 0.96964 0.4955 0.51031 0.0
C118 C 0.84453 0.41796 0.46356 0.0
C119 C 0.91821 0.44579 0.44871 0.0
H120 H 0.69694 0.13394 1.00599 0.0
H121 H 0.49753 0.10977 0.94665 0.0
H122 H 0.42452 0.99127 0.97105 0.0
H123 H 0.41516 0.89709 1.01191 0.0
H124 H 0.61115 0.92266 0.07517 0.0
H125 H 0.68769 0.03734 0.04672 0.0
C126 C 0.63788 0.10198 0.99806 0.0
C127 C 0.60263 0.1297 0.97419 0.0
C128 C 0.59552 0.03438 1.01317 0.0
C129 C 0.52573 0.08887 0.96468 0.0
C130 C 0.48397 0.02131 0.97874 0.0
C131 C 0.4748 0.92743 0.01926 0.0
C132 C 0.50733 0.90122 0.04564 0.0
C133 C 0.51791 0.99386 1.0034 0.0
C134 C 0.58459 0.94162 0.05503 0.0
C135 C 0.62842 1.00726 0.03874 0.0
H136 H 0.51851 0.40452 0.51318 0.0
H137 H 0.60967 0.52276 0.61619 0.0
H138 H 0.53861 0.58911 0.60632 0.0
H139 H 0.44716 0.61103 0.56911 0.0
H140 H 0.36284 0.49735 0.46425 0.0
H141 H 0.43386 0.43118 0.47427 0.0
C142 C 0.52325 0.44519 0.53332 0.0
C143 C 0.56892 0.45851 0.56544 0.0
C144 C 0.48267 0.48332 0.52734 0.0
C145 C 0.57507 0.51172 0.59115 0.0
C146 C 0.53404 0.54933 0.58566 0.0
C147 C 0.44403 0.57135 0.54868 0.0
C148 C 0.39907 0.55822 0.51628 0.0
C149 C 0.48687 0.53496 0.55409 0.0
C150 C 0.39678 0.50796 0.48951 0.0
C151 C 0.43747 0.47027 0.49518 0.0
H152 H 0.15712 0.55345 0.99077 0.0
H153 H 0.13768 0.5853 0.10991 0.0
H154 H 1.002 0.49945 0.10793 0.0
H155 H 0.88628 0.4219 0.07058 0.0
H156 H 0.91156 0.39286 0.95133 0.0
H157 H 0.04716 0.47056 0.95533 0.0
C158 C 0.12345 0.54152 0.01644 0.0
C159 C 0.15731 0.57652 0.05032 0.0
C160 C 0.0461 0.49259 0.01504 0.0
C161 C 0.11302 0.55924 0.08341 0.0
C162 C 0.03534 0.51035 0.08223 0.0
C163 C 0.92171 0.43184 0.04564 0.0
C164 C 0.88803 0.402 1.0106 0.0
C165 C 1.00079 0.47755 0.04798 0.0
C166 C 0.93516 0.41555 0.97859 0.0
C167 C 0.01306 0.46012 0.98078 0.0
H168 H 0.57137 0.12751 0.47387 0.0
H169 H 0.58187 0.11186 0.59441 0.0
H170 H 0.53595 0.98499 0.58755 0.0
H171 H 0.47598 0.87784 0.54833 0.0
H172 H 0.46148 0.89264 0.42808 0.0
H173 H 0.52788 0.02115 0.43369 0.0
C174 C 0.56439 0.09648 0.49866 0.0
C175 C 0.57836 0.12885 0.53473 0.0
C176 C 0.53728 0.02361 0.49451 0.0
C177 C 0.5709 0.08822 0.56641 0.0
C178 C 0.54441 0.01566 0.5625 0.0
C179 C 0.4887 0.90921 0.52323 0.0
C180 C 0.46276 0.87596 0.48789 0.0
C181 C 0.52495 0.98267 0.52684 0.0
C182 C 0.4808 0.91702 0.45556 0.0
C183 C 0.518 0.99045 0.45884 0.0
loop_
_geom_bond_atom_site_label_1
_geom_bond_atom_site_label_2
_geom_bond_distance
_geom_bond_site_symmetry_2
_ccdc_geom_bond_type
Co0 O1 2.216 . S
Co0 O2 2.091 . S
Co0 O4 2.004 . S
Co0 O10 2.021 . S
Co0 O12 2.137 . S
Co0 O13 2.244 . S
O1 Co0 2.216 . S
O1 C8 1.247 . S
O2 Co0 2.091 . S
O2 C8 1.261 . S
C3 O12 1.247 . S
C3 O13 1.272 . S
O4 Co0 2.004 . S
O4 C9 1.259 . S
Co5 O6 2.061 . S
Co5 O11 2.052 1_556 S
Co5 O13 2.135 1_556 S
O6 Co5 2.061 . S
O6 C9 1.235 1_556 S
C7 O10 1.238 . S
C7 O11 1.241 . S
C8 O1 1.247 . S
C8 O2 1.261 . S
C9 O4 1.259 . S
C9 O6 1.235 1_554 S
O10 Co0 2.021 . S
O10 C7 1.238 . S
O11 Co5 2.052 1_554 S
O11 C7 1.241 . S
O12 Co0 2.137 . S
O12 C3 1.247 . S
O13 Co0 2.244 . S
O13 C3 1.272 . S
O13 Co5 2.135 1_554 S
Co14 O15 2.216 . S
Co14 O16 2.091 . S
Co14 O18 2.004 . S
Co14 O24 2.021 . S
Co14 O26 2.137 . S
Co14 O27 2.244 . S
O15 Co14 2.216 . S
O15 C22 1.247 . S
O16 Co14 2.091 . S
O16 C22 1.261 . S
C17 O26 1.247 . S
C17 O27 1.272 . S
O18 Co14 2.004 . S
O18 C23 1.259 . S
Co19 O20 2.061 . S
Co19 O25 2.052 . S
Co19 O27 2.135 . S
O20 Co19 2.061 . S
O20 C23 1.235 . S
C21 O24 1.238 . S
C21 O25 1.241 . S
C22 O15 1.247 . S
C22 O16 1.261 . S
C23 O18 1.259 . S
C23 O20 1.235 . S
O24 Co14 2.021 . S
O24 C21 1.238 . S
O25 Co19 2.052 . S
O25 C21 1.241 . S
O26 Co14 2.137 . S
O26 C17 1.247 . S
O27 Co14 2.244 . S
O27 C17 1.272 . S
O27 Co19 2.135 . S
Co28 O29 2.216 . S
Co28 O30 2.091 . S
Co28 O32 2.004 . S
Co28 O38 2.021 . S
Co28 O40 2.137 . S
Co28 O41 2.244 . S
O29 Co28 2.216 . S
O29 C36 1.247 . S
O30 Co28 2.091 . S
O30 C36 1.261 . S
C31 O40 1.247 . S
C31 O41 1.272 . S
O32 Co28 2.004 . S
O32 C37 1.259 . S
Co33 O34 2.061 . S
Co33 O39 2.052 . S
Co33 O41 2.135 . S
O34 Co33 2.061 . S
O34 C37 1.235 . S
C35 O38 1.238 . S
C35 O39 1.241 . S
C36 O29 1.247 . S
C36 O30 1.261 . S
C37 O32 1.259 . S
C37 O34 1.235 . S
O38 Co28 2.021 . S
O38 C35 1.238 . S
O39 Co33 2.052 . S
O39 C35 1.241 . S
O40 Co28 2.137 . S
O40 C31 1.247 . S
O41 Co28 2.244 . S
O41 C31 1.272 . S
O41 Co33 2.135 . S
Co42 O43 2.216 . S
Co42 O44 2.091 . S
Co42 O46 2.004 . S
Co42 O52 2.021 . S
Co42 O54 2.137 . S
Co42 O55 2.244 . S
O43 Co42 2.216 . S
O43 C50 1.247 . S
O44 Co42 2.091 . S
O44 C50 1.261 . S
C45 O54 1.247 . S
C45 O55 1.272 . S
O46 Co42 2.004 . S
O46 C51 1.259 . S
Co47 O48 2.061 . S
Co47 O53 2.052 1_554 S
Co47 O55 2.135 1_554 S
O48 Co47 2.061 . S
O48 C51 1.235 1_554 S
C49 O52 1.238 . S
C49 O53 1.241 . S
C50 O43 1.247 . S
C50 O44 1.261 . S
C51 O46 1.259 . S
C51 O48 1.235 1_556 S
O52 Co42 2.021 . S
O52 C49 1.238 . S
O53 Co47 2.052 1_556 S
O53 C49 1.241 . S
O54 Co42 2.137 . S
O54 C45 1.247 . S
O55 Co42 2.244 . S
O55 C45 1.272 . S
O55 Co47 2.135 1_556 S
H56 C62 0.930 . S
H57 C65 0.930 . S
H58 C66 0.930 . S
H59 C67 0.930 . S
H60 C70 0.930 . S
H61 C71 0.930 . S
C62 H56 0.930 . S
C62 C63 1.355 . S
C62 C64 1.415 . S
C63 C62 1.355 . S
C63 C65 1.419 . S
C64 C62 1.415 . S
C64 C69 1.425 . S
C64 C71 1.409 . S
C65 H57 0.930 . S
C65 C63 1.419 . S
C65 C66 1.362 . S
C66 H58 0.930 . S
C66 C65 1.362 . S
C66 C69 1.409 . S
C67 H59 0.930 . S
C67 C68 1.355 . S
C67 C69 1.415 . S
C68 C67 1.355 . S
C68 C70 1.419 . S
C69 C64 1.425 . S
C69 C66 1.409 . S
C69 C67 1.415 . S
C70 H60 0.930 . S
C70 C68 1.419 . S
C70 C71 1.362 . S
C71 H61 0.930 . S
C71 C64 1.409 . S
C71 C70 1.362 . S
H72 C78 0.930 . S
H73 C81 0.930 . S
H74 C82 0.930 . S
H75 C83 0.930 . S
H76 C86 0.930 . S
H77 C87 0.930 . S
C78 H72 0.930 . S
C78 C79 1.355 . S
C78 C80 1.415 . S
C79 C78 1.355 . S
C79 C81 1.419 . S
C80 C78 1.415 . S
C80 C85 1.425 . S
C80 C87 1.409 . S
C81 H73 0.930 . S
C81 C79 1.419 . S
C81 C82 1.362 . S
C82 H74 0.930 . S
C82 C81 1.362 . S
C82 C85 1.409 . S
C83 H75 0.930 . S
C83 C84 1.355 . S
C83 C85 1.415 . S
C84 C83 1.355 . S
C84 C86 1.419 . S
C85 C80 1.425 . S
C85 C82 1.409 . S
C85 C83 1.415 . S
C86 H76 0.930 . S
C86 C84 1.419 . S
C86 C87 1.362 . S
C87 H77 0.930 . S
C87 C80 1.409 . S
C87 C86 1.362 . S
H88 C94 0.930 . S
H89 C97 0.930 . S
H90 C98 0.930 . S
H91 C99 0.930 . S
H92 C102 0.930 . S
H93 C103 0.930 . S
C94 H88 0.930 . S
C94 C95 1.355 . S
C94 C96 1.415 1_554 S
C95 C94 1.355 . S
C95 C97 1.419 . S
C96 C94 1.415 1_556 S
C96 C101 1.425 . S
C96 C103 1.409 . S
C97 H89 0.930 . S
C97 C95 1.419 . S
C97 C98 1.362 1_554 S
C98 H90 0.930 . S
C98 C97 1.362 1_556 S
C98 C101 1.409 . S
C99 H91 0.930 . S
C99 C100 1.355 . S
C99 C101 1.415 . S
C100 C99 1.355 . S
C100 C102 1.419 . S
C101 C96 1.425 . S
C101 C98 1.409 . S
C101 C99 1.415 . S
C102 H92 0.930 . S
C102 C100 1.419 . S
C102 C103 1.362 . S
C103 H93 0.930 . S
C103 C96 1.409 . S
C103 C102 1.362 . S
H104 C110 0.930 . S
H105 C113 0.930 . S
H106 C114 0.930 . S
H107 C115 0.930 . S
H108 C118 0.930 . S
H109 C119 0.930 . S
C110 H104 0.930 . S
C110 C111 1.355 . S
C110 C112 1.415 1_455 S
C111 C110 1.355 . S
C111 C113 1.419 . S
C112 C110 1.415 1_655 S
C112 C117 1.425 . S
C112 C119 1.409 . S
C113 H105 0.930 . S
C113 C111 1.419 . S
C113 C114 1.362 . S
C114 H106 0.930 . S
C114 C113 1.362 . S
C114 C117 1.409 1_455 S
C115 H107 0.930 . S
C115 C116 1.355 . S
C115 C117 1.415 . S
C116 C115 1.355 . S
C116 C118 1.419 . S
C117 C112 1.425 . S
C117 C114 1.409 1_655 S
C117 C115 1.415 . S
C118 H108 0.930 . S
C118 C116 1.419 . S
C118 C119 1.362 . S
C119 H109 0.930 . S
C119 C112 1.409 . S
C119 C118 1.362 . S
H120 C126 0.930 . S
H121 C129 0.930 . S
H122 C130 0.930 . S
H123 C131 0.930 . S
H124 C134 0.930 . S
H125 C135 0.930 . S
C126 H120 0.930 . S
C126 C127 1.355 . S
C126 C128 1.402 1_556 S
C127 C126 1.355 . S
C127 C129 1.419 . S
C128 C126 1.402 1_554 S
C128 C133 1.424 1_544 S
C128 C135 1.424 1_545 S
C129 H121 0.930 . S
C129 C127 1.419 . S
C129 C130 1.362 . S
C130 H122 0.930 . S
C130 C129 1.362 . S
C130 C133 1.423 1_545 S
C131 H123 0.930 . S
C131 C132 1.355 . S
C131 C133 1.402 1_554 S
C132 C131 1.355 . S
C132 C134 1.419 . S
C133 C128 1.424 1_566 S
C133 C130 1.423 1_565 S
C133 C131 1.402 1_556 S
C134 H124 0.930 . S
C134 C132 1.419 . S
C134 C135 1.362 . S
C135 H125 0.930 . S
C135 C128 1.424 1_565 S
C135 C134 1.362 . S
H136 C142 0.930 . S
H137 C145 0.930 . S
H138 C146 0.930 . S
H139 C147 0.930 . S
H140 C150 0.930 . S
H141 C151 0.930 . S
C142 H136 0.930 . S
C142 C143 1.355 . S
C142 C144 1.415 . S
C143 C142 1.355 . S
C143 C145 1.419 . S
C144 C142 1.415 . S
C144 C149 1.425 . S
C144 C151 1.409 . S
C145 H137 0.930 . S
C145 C143 1.419 . S
C145 C146 1.362 . S
C146 H138 0.930 . S
C146 C145 1.362 . S
C146 C149 1.409 . S
C147 H139 0.930 . S
C147 C148 1.355 . S
C147 C149 1.415 . S
C148 C147 1.355 . S
C148 C150 1.419 . S
C149 C144 1.425 . S
C149 C146 1.409 . S
C149 C147 1.415 . S
C150 H140 0.930 . S
C150 C148 1.419 . S
C150 C151 1.362 . S
C151 H141 0.930 . S
C151 C144 1.409 . S
C151 C150 1.362 . S
H152 C158 0.930 1_556 S
H153 C161 0.930 . S
H154 C162 0.930 1_655 S
H155 C163 0.930 . S
H156 C166 0.930 . S
H157 C167 0.930 1_455 S
C158 H152 0.930 1_554 S
C158 C159 1.355 . S
C158 C160 1.411 1_554 S
C159 C158 1.355 . S
C159 C161 1.419 . S
C160 C158 1.411 1_556 S
C160 C165 1.405 1_456 S
C160 C167 1.432 1_455 S
C161 H153 0.930 . S
C161 C159 1.419 . S
C161 C162 1.362 . S
C162 H154 0.930 1_455 S
C162 C161 1.362 . S
C162 C165 1.409 1_455 S
C163 H155 0.930 . S
C163 C164 1.355 1_554 S
C163 C165 1.415 . S
C164 C163 1.355 1_556 S
C164 C166 1.419 . S
C165 C160 1.405 1_654 S
C165 C162 1.409 1_655 S
C165 C163 1.415 . S
C166 H156 0.930 . S
C166 C164 1.419 . S
C166 C167 1.362 . S
C167 H157 0.930 1_655 S
C167 C160 1.432 1_655 S
C167 C166 1.362 . S
H168 C174 0.930 . S
H169 C177 0.930 . S
H170 C178 0.930 . S
H171 C179 0.930 . S
H172 C182 0.930 . S
H173 C183 0.930 . S
C174 H168 0.930 . S
C174 C175 1.355 . S
C174 C176 1.415 . S
C175 C174 1.355 . S
C175 C177 1.419 . S
C176 C174 1.415 . S
C176 C181 1.425 1_545 S
C176 C183 1.409 . S
C177 H169 0.930 . S
C177 C175 1.419 . S
C177 C178 1.362 1_545 S
C178 H170 0.930 . S
C178 C177 1.362 1_565 S
C178 C181 1.409 . S
C179 H171 0.930 . S
C179 C180 1.355 . S
C179 C181 1.415 . S
C180 C179 1.355 . S
C180 C182 1.419 . S
C181 C176 1.425 1_565 S
C181 C178 1.409 . S
C181 C179 1.415 . S
C182 H172 0.930 . S
C182 C180 1.419 . S
C182 C183 1.362 1_565 S
C183 H173 0.930 . S
C183 C176 1.409 . S
C183 C182 1.362 1_545 S
C63 C8 1.578 . S
C68 C36 1.546 . S
C79 C22 1.575 . S
C84 C50 1.546 . S
C95 C9 1.544 . S
C100 C49 1.504 . S
C111 C31 1.563 . S
C116 C23 1.558 . S
C127 C45 1.577 . S
C132 C3 1.585 . S
C143 C17 1.559 . S
C148 C37 1.548 . S
C159 C7 1.522 . S
C164 C51 1.544 . S
C175 C21 1.487 . S
C180 C35 1.500 . S
