# Generated by pormake.
# Topology uoc, (4)-cn, num edge types: 1
# Building blocks:
#     Node 0, Type 0, BuildingBlock: ESEHIV_clean_sbu_0, # of connection points: 4
#     Node 1, Type 0, BuildingBlock: ESEHIV_clean_sbu_0, # of connection points: 4
#     Node 2, Type 0, BuildingBlock: ESEHIV_clean_sbu_0, # of connection points: 4
#     Node 3, Type 0, BuildingBlock: ESEHIV_clean_sbu_0, # of connection points: 4
#     Node 4, Type 0, BuildingBlock: ESEHIV_clean_sbu_0, # of connection points: 4
#     Node 5, Type 0, BuildingBlock: ESEHIV_clean_sbu_0, # of connection points: 4
#     Node 6, Type 0, BuildingBlock: ESEHIV_clean_sbu_0, # of connection points: 4
#     Node 7, Type 0, BuildingBlock: ESEHIV_clean_sbu_0, # of connection points: 4
#     Edge 8, Type (0, 0), None
#     Edge 9, Type (0, 0), None
#     Edge 10, Type (0, 0), None
#     Edge 11, Type (0, 0), None
#     Edge 12, Type (0, 0), None
#     Edge 13, Type (0, 0), None
#     Edge 14, Type (0, 0), None
#     Edge 15, Type (0, 0), None
#     Edge 16, Type (0, 0), None
#     Edge 17, Type (0, 0), None
#     Edge 18, Type (0, 0), None
#     Edge 19, Type (0, 0), None
#     Edge 20, Type (0, 0), None
#     Edge 21, Type (0, 0), None
#     Edge 22, Type (0, 0), None
#     Edge 23, Type (0, 0), None
# Relax obj value: 0.086
# Max RMSD: 0.310
# Mean RMSD: 0.310
data_MOF--net-uoc--node1-ESEHIV_clean_sbu_0--edge1-none
_symmetry_space_group_name_H-M    P1
_symmetry_Int_Tables_number       1
_symmetry_cell_setting            triclinic
loop_
_symmetry_equiv_pos_as_xyz
'x, y, z'
_cell_length_a     17.660044
_cell_length_b     17.660028
_cell_length_c     20.408355
_cell_angle_alpha  89.970027
_cell_angle_beta   89.970033
_cell_angle_gamma 94.222633
loop_
_atom_site_label
_atom_site_type_symbol
_atom_site_fract_x
_atom_site_fract_y
_atom_site_fract_z
_atom_type_partial_charge
Cu0 Cu 0.09031 0.26986 0.19019 0.0
N1 N 0.0314 0.17808 0.18353 0.0
N2 N 1.0042 0.05299 0.17965 0.0
C3 C 0.0597 0.10945 0.17959 0.0
C4 C 0.93829 0.08672 0.18361 0.0
C5 C 0.95538 0.16431 0.18603 0.0
O6 O 0.15811 0.27503 0.11586 0.0
C7 C 0.19601 0.3123 0.29225 0.0
O8 O 0.23578 0.35046 0.24712 0.0
H9 H 0.11969 0.10107 0.17911 0.0
H10 H 0.91531 0.20736 0.19109 0.0
N11 N 0.03318 0.35394 0.18386 0.0
N12 N 1.00719 0.47523 0.18916 0.0
C13 C 0.05382 0.4228 0.20909 0.0
C14 C 0.97171 0.36337 0.14651 0.0
C15 C 0.95516 0.43849 0.14995 0.0
C16 C 0.21527 0.23617 0.11022 0.0
O17 O 0.23884 0.19908 0.1612 0.0
H18 H 0.10364 0.4346 0.23919 0.0
H19 H 0.94308 0.31959 0.11659 0.0
O20 O 0.13635 0.27223 0.27625 0.0
H21 H 0.88223 0.05769 0.18585 0.0
H22 H 0.91036 0.46429 0.12388 0.0
Cu23 Cu 0.76931 0.59051 0.47613 0.0
N24 N 0.67756 0.53151 0.48249 0.0
N25 N 0.55247 0.50419 0.48615 0.0
C26 C 0.60892 0.55969 0.48708 0.0
C27 C 0.58624 0.4384 0.48098 0.0
C28 C 0.66381 0.45557 0.47868 0.0
O29 O 0.7743 0.65798 0.55063 0.0
C30 C 0.81203 0.69653 0.37423 0.0
O31 O 0.85021 0.73613 0.41938 0.0
H32 H 0.60053 0.61966 0.48856 0.0
H33 H 0.70687 0.41566 0.47271 0.0
N34 N 0.85337 0.53334 0.48234 0.0
N35 N 0.97465 0.50729 0.47712 0.0
C36 C 0.9224 0.55428 0.45752 0.0
C37 C 0.86249 0.47129 0.51909 0.0
C38 C 0.93762 0.45471 0.5157 0.0
C39 C 0.73569 0.71531 0.55634 0.0
O40 O 0.69878 0.73921 0.5054 0.0
H41 H 0.93442 0.60451 0.42791 0.0
H42 H 0.81848 0.4422 0.54853 0.0
O43 O 0.77185 0.6369 0.39018 0.0
H44 H 0.55722 0.3824 0.47773 0.0
H45 H 0.96319 0.40944 0.54134 0.0
Cu46 Cu 0.43161 0.25282 0.6905 0.0
N47 N 0.49061 0.34456 0.68414 0.0
N48 N 0.51794 0.46965 0.68048 0.0
C49 C 0.46243 0.4132 0.67955 0.0
C50 C 0.58373 0.43589 0.68566 0.0
C51 C 0.56656 0.35831 0.68796 0.0
O52 O 0.36414 0.24783 0.616 0.0
C53 C 0.32559 0.2101 0.79241 0.0
O54 O 0.28599 0.17191 0.74725 0.0
H55 H 0.40246 0.42159 0.67806 0.0
H56 H 0.60646 0.31525 0.69393 0.0
N57 N 0.48878 0.16876 0.68429 0.0
N58 N 0.51483 0.04748 0.68951 0.0
C59 C 0.46784 0.09972 0.70911 0.0
C60 C 0.55084 0.15963 0.64755 0.0
C61 C 0.56742 0.08451 0.65094 0.0
C62 C 0.30682 0.28643 0.61029 0.0
O63 O 0.28292 0.32335 0.66123 0.0
H64 H 0.41761 0.0877 0.73872 0.0
H65 H 0.57993 0.20365 0.61811 0.0
O66 O 0.38522 0.25027 0.77646 0.0
H67 H 0.63972 0.4649 0.68891 0.0
H68 H 0.61269 0.05894 0.62529 0.0
Cu69 Cu 0.75227 0.93181 0.97644 0.0
N70 N 0.84404 0.99072 0.9831 0.0
N71 N 0.96913 0.01792 0.98698 0.0
C72 C 0.91267 0.96242 0.98704 0.0
C73 C 0.9354 0.08384 0.98303 0.0
C74 C 0.85781 0.06674 0.98061 0.0
O75 O 0.74709 0.86401 1.05077 0.0
C76 C 0.70982 0.82612 0.87438 0.0
O77 O 0.67166 0.78634 0.91951 0.0
H78 H 0.92105 0.90243 0.98751 0.0
H79 H 0.81476 0.10681 0.97556 0.0
N80 N 0.66818 0.98895 0.98277 0.0
N81 N 0.54689 0.01493 0.97747 0.0
C82 C 0.59932 0.96831 0.95754 0.0
C83 C 0.65875 0.05041 1.02012 0.0
C84 C 0.58363 0.06696 1.01668 0.0
C85 C 0.78595 0.80686 1.05641 0.0
O86 O 0.82304 0.78328 1.00543 0.0
H87 H 0.58752 0.91849 0.92744 0.0
H88 H 0.70253 0.07904 1.05005 0.0
O89 O 0.74989 0.88577 0.89038 0.0
H90 H 0.96444 0.13989 0.98079 0.0
H91 H 0.55783 0.11176 1.04276 0.0
Cu92 Cu 0.59142 0.76434 0.70513 0.0
N93 N 0.53356 0.67285 0.69397 0.0
N94 N 0.50837 0.54828 0.68185 0.0
C95 C 0.56177 0.60413 0.69621 0.0
C96 C 0.444 0.58257 0.66999 0.0
C97 C 0.45996 0.65995 0.6772 0.0
O98 O 0.65607 0.77536 0.62891 0.0
C99 C 0.69267 0.81303 0.80477 0.0
O100 O 0.71594 0.86449 0.7613 0.0
H101 H 0.62025 0.59554 0.70781 0.0
H102 H 0.42113 0.70371 0.66961 0.0
N103 N 0.53306 0.8476 0.70808 0.0
N104 N 0.50703 0.96882 0.7027 0.0
C105 C 0.5551 0.91692 0.68451 0.0
C106 C 0.46918 0.85609 0.74256 0.0
C107 C 0.45266 0.93124 0.73914 0.0
C108 C 0.71368 0.7373 0.62254 0.0
O109 O 0.73781 0.70002 0.6732 0.0
H110 H 0.60705 0.92937 0.65722 0.0
H111 H 0.43878 0.81154 0.77053 0.0
O112 O 0.64313 0.76084 0.78847 0.0
H113 H 0.39001 0.55417 0.65614 0.0
H114 H 0.40597 0.95635 0.76315 0.0
Cu115 Cu 0.26379 0.09146 0.96166 0.0
N116 N 0.1723 0.03361 0.97298 0.0
N117 N 0.04776 1.00836 0.98537 0.0
C118 C 0.10361 0.06193 0.97137 0.0
C119 C 0.08201 0.94376 0.99637 0.0
C120 C 0.15938 0.95976 0.98899 0.0
O121 O 0.27489 0.15611 1.0378 0.0
C122 C 0.3124 0.19284 0.86201 0.0
O123 O 0.36375 0.21613 0.90549 0.0
H124 H 0.09503 0.12057 0.96036 0.0
H125 H 0.20312 0.92074 0.99585 0.0
N126 N 0.34707 0.03313 0.95861 0.0
N127 N 0.4683 1.00718 0.96407 0.0
C128 C 0.41624 0.05497 0.98251 0.0
C129 C 0.35581 0.96969 0.92366 0.0
C130 C 0.43097 0.95321 0.92713 0.0
C131 C 0.23723 0.21401 1.04407 0.0
O132 O 0.20022 0.23837 0.99335 0.0
H133 H 0.42851 0.10662 1.01019 0.0
H134 H 0.31145 0.9396 0.89532 0.0
O135 O 0.26025 0.14321 0.87829 0.0
H136 H 0.05359 0.88957 1.00968 0.0
H137 H 0.45626 0.90685 0.9028 0.0
Cu138 Cu 0.93066 0.75833 0.20497 0.0
N139 N 0.98851 0.84982 0.19364 0.0
N140 N 0.01376 0.97436 0.18126 0.0
C141 C 0.96019 0.91851 0.19526 0.0
C142 C 0.07836 0.94011 0.17026 0.0
C143 C 0.06236 0.86274 0.17764 0.0
O144 O 0.86601 0.74723 0.12883 0.0
C145 C 0.82928 0.70973 0.30462 0.0
O146 O 0.806 0.65837 0.26114 0.0
H147 H 0.90155 0.92709 0.20627 0.0
H148 H 0.10138 0.819 0.17077 0.0
N149 N 0.98899 0.67505 0.20801 0.0
N150 N 0.01495 0.55382 0.20256 0.0
C151 C 0.96716 0.60588 0.18412 0.0
C152 C 0.05244 0.66631 0.24297 0.0
C153 C 0.06892 0.59116 0.2395 0.0
C154 C 0.80812 0.78489 0.12257 0.0
O155 O 0.78375 0.82191 0.17328 0.0
H156 H 0.9155 0.59361 0.15644 0.0
H157 H 0.08252 0.71068 0.2713 0.0
O158 O 0.87892 0.76187 0.28834 0.0
H159 H 0.13255 0.96853 0.15693 0.0
H160 H 0.11527 0.56586 0.26383 0.0
Cu161 Cu 0.25778 0.43071 0.4615 0.0
N162 N 0.34928 0.48856 0.47266 0.0
N163 N 0.47384 0.51375 0.48478 0.0
C164 C 0.418 0.46035 0.47043 0.0
C165 C 0.43956 0.57813 0.49663 0.0
C166 C 0.36217 0.56216 0.48942 0.0
O167 O 0.24677 0.36605 0.53772 0.0
C168 C 0.20909 0.32945 0.36186 0.0
O169 O 0.15763 0.30618 0.40533 0.0
H170 H 0.42658 0.40187 0.45883 0.0
H171 H 0.31841 0.60099 0.497 0.0
N172 N 0.17452 0.48907 0.45855 0.0
N173 N 0.0533 0.51509 0.46393 0.0
C174 C 0.10521 0.46702 0.48212 0.0
C175 C 0.16603 0.55294 0.42406 0.0
C176 C 0.09088 0.56946 0.42749 0.0
C177 C 0.28483 0.30845 0.54409 0.0
O178 O 0.3221 0.28431 0.49343 0.0
H179 H 0.09275 0.41508 0.50941 0.0
H180 H 0.21058 0.58334 0.3961 0.0
O181 O 0.26128 0.37899 0.37816 0.0
H182 H 0.46796 0.63212 0.51048 0.0
H183 H 0.06577 0.61615 0.40348 0.0
loop_
_geom_bond_atom_site_label_1
_geom_bond_atom_site_label_2
_geom_bond_distance
_geom_bond_site_symmetry_2
_ccdc_geom_bond_type
Cu0 N1 1.999 . S
Cu0 O6 1.974 . S
Cu0 N11 1.985 . S
Cu0 O20 1.959 . S
N1 Cu0 1.999 . S
N1 C3 1.263 . S
N1 C5 1.389 . S
N2 C3 1.358 . S
N2 C4 1.400 . S
C3 N1 1.263 . S
C3 N2 1.358 . S
C3 H9 0.930 . S
C4 N2 1.400 . S
C4 C5 1.351 . S
C4 H21 0.930 1_455 S
C5 N1 1.389 . S
C5 C4 1.351 . S
C5 H10 0.930 1_455 S
O6 Cu0 1.974 . S
O6 C16 1.282 . S
C7 O8 1.261 . S
C7 O20 1.251 . S
O8 C7 1.261 . S
H9 C3 0.930 . S
H10 C5 0.930 1_655 S
N11 Cu0 1.985 . S
N11 C13 1.335 . S
N11 C14 1.390 . S
N12 C13 1.345 . S
N12 C15 1.336 . S
C13 N11 1.335 . S
C13 N12 1.345 . S
C13 H18 0.930 . S
C14 N11 1.390 . S
C14 C15 1.346 . S
C14 H19 0.930 . S
C15 N12 1.336 . S
C15 C14 1.346 . S
C15 H22 0.929 . S
C16 O6 1.282 . S
C16 O17 1.216 . S
O17 C16 1.216 . S
H18 C13 0.930 . S
H19 C14 0.930 . S
O20 Cu0 1.959 . S
O20 C7 1.251 . S
H21 C4 0.930 1_655 S
H22 C15 0.929 . S
Cu23 N24 1.999 . S
Cu23 O29 1.974 . S
Cu23 N34 1.985 . S
Cu23 O43 1.959 . S
N24 Cu23 1.999 . S
N24 C26 1.263 . S
N24 C28 1.389 . S
N25 C26 1.358 . S
N25 C27 1.400 . S
C26 N24 1.263 . S
C26 N25 1.358 . S
C26 H32 0.930 . S
C27 N25 1.400 . S
C27 C28 1.351 . S
C27 H44 0.930 . S
C28 N24 1.389 . S
C28 C27 1.351 . S
C28 H33 0.930 . S
O29 Cu23 1.974 . S
O29 C39 1.282 . S
C30 O31 1.261 . S
C30 O43 1.251 . S
O31 C30 1.261 . S
H32 C26 0.930 . S
H33 C28 0.930 . S
N34 Cu23 1.985 . S
N34 C36 1.335 . S
N34 C37 1.390 . S
N35 C36 1.345 . S
N35 C38 1.336 . S
C36 N34 1.335 . S
C36 N35 1.345 . S
C36 H41 0.930 . S
C37 N34 1.390 . S
C37 C38 1.346 . S
C37 H42 0.930 . S
C38 N35 1.336 . S
C38 C37 1.346 . S
C38 H45 0.929 . S
C39 O29 1.282 . S
C39 O40 1.216 . S
O40 C39 1.216 . S
H41 C36 0.930 . S
H42 C37 0.930 . S
O43 Cu23 1.959 . S
O43 C30 1.251 . S
H44 C27 0.930 . S
H45 C38 0.929 . S
Cu46 N47 1.999 . S
Cu46 O52 1.974 . S
Cu46 N57 1.985 . S
Cu46 O66 1.959 . S
N47 Cu46 1.999 . S
N47 C49 1.263 . S
N47 C51 1.389 . S
N48 C49 1.358 . S
N48 C50 1.400 . S
C49 N47 1.263 . S
C49 N48 1.358 . S
C49 H55 0.930 . S
C50 N48 1.400 . S
C50 C51 1.351 . S
C50 H67 0.930 . S
C51 N47 1.389 . S
C51 C50 1.351 . S
C51 H56 0.930 . S
O52 Cu46 1.974 . S
O52 C62 1.282 . S
C53 O54 1.261 . S
C53 O66 1.251 . S
O54 C53 1.261 . S
H55 C49 0.930 . S
H56 C51 0.930 . S
N57 Cu46 1.985 . S
N57 C59 1.335 . S
N57 C60 1.390 . S
N58 C59 1.345 . S
N58 C61 1.336 . S
C59 N57 1.335 . S
C59 N58 1.345 . S
C59 H64 0.930 . S
C60 N57 1.390 . S
C60 C61 1.346 . S
C60 H65 0.930 . S
C61 N58 1.336 . S
C61 C60 1.346 . S
C61 H68 0.929 . S
C62 O52 1.282 . S
C62 O63 1.216 . S
O63 C62 1.216 . S
H64 C59 0.930 . S
H65 C60 0.930 . S
O66 Cu46 1.959 . S
O66 C53 1.251 . S
H67 C50 0.930 . S
H68 C61 0.929 . S
Cu69 N70 1.999 . S
Cu69 O75 1.974 . S
Cu69 N80 1.985 . S
Cu69 O89 1.959 . S
N70 Cu69 1.999 . S
N70 C72 1.263 . S
N70 C74 1.389 . S
N71 C72 1.358 . S
N71 C73 1.400 . S
C72 N70 1.263 . S
C72 N71 1.358 . S
C72 H78 0.930 . S
C73 N71 1.400 . S
C73 C74 1.351 . S
C73 H90 0.930 1_565 S
C74 N70 1.389 . S
C74 C73 1.351 . S
C74 H79 0.930 1_565 S
O75 Cu69 1.974 . S
O75 C85 1.282 . S
C76 O77 1.261 . S
C76 O89 1.251 . S
O77 C76 1.261 . S
H78 C72 0.930 . S
H79 C74 0.930 1_545 S
N80 Cu69 1.985 . S
N80 C82 1.335 . S
N80 C83 1.390 . S
N81 C82 1.345 . S
N81 C84 1.336 . S
C82 N80 1.335 . S
C82 N81 1.345 . S
C82 H87 0.930 . S
C83 N80 1.390 . S
C83 C84 1.346 . S
C83 H88 0.930 . S
C84 N81 1.336 . S
C84 C83 1.346 . S
C84 H91 0.929 . S
C85 O75 1.282 . S
C85 O86 1.216 . S
O86 C85 1.216 . S
H87 C82 0.930 . S
H88 C83 0.930 . S
O89 Cu69 1.959 . S
O89 C76 1.251 . S
H90 C73 0.930 1_545 S
H91 C84 0.929 . S
Cu92 N93 1.999 . S
Cu92 O98 1.974 . S
Cu92 N103 1.985 . S
Cu92 O112 1.959 . S
N93 Cu92 1.999 . S
N93 C95 1.263 . S
N93 C97 1.389 . S
N94 C95 1.358 . S
N94 C96 1.400 . S
C95 N93 1.263 . S
C95 N94 1.358 . S
C95 H101 0.930 . S
C96 N94 1.400 . S
C96 C97 1.351 . S
C96 H113 0.930 . S
C97 N93 1.389 . S
C97 C96 1.351 . S
C97 H102 0.930 . S
O98 Cu92 1.974 . S
O98 C108 1.282 . S
C99 O100 1.261 . S
C99 O112 1.251 . S
O100 C99 1.261 . S
H101 C95 0.930 . S
H102 C97 0.930 . S
N103 Cu92 1.985 . S
N103 C105 1.335 . S
N103 C106 1.390 . S
N104 C105 1.345 . S
N104 C107 1.336 . S
C105 N103 1.335 . S
C105 N104 1.345 . S
C105 H110 0.930 . S
C106 N103 1.390 . S
C106 C107 1.346 . S
C106 H111 0.930 . S
C107 N104 1.336 . S
C107 C106 1.346 . S
C107 H114 0.929 . S
C108 O98 1.282 . S
C108 O109 1.216 . S
O109 C108 1.216 . S
H110 C105 0.930 . S
H111 C106 0.930 . S
O112 Cu92 1.959 . S
O112 C99 1.251 . S
H113 C96 0.930 . S
H114 C107 0.929 . S
Cu115 N116 1.999 . S
Cu115 O121 1.974 . S
Cu115 N126 1.985 . S
Cu115 O135 1.959 . S
N116 Cu115 1.999 . S
N116 C118 1.263 . S
N116 C120 1.389 . S
N117 C118 1.358 . S
N117 C119 1.400 . S
C118 N116 1.263 . S
C118 N117 1.358 . S
C118 H124 0.930 . S
C119 N117 1.400 . S
C119 C120 1.351 . S
C119 H136 0.930 1_545 S
C120 N116 1.389 . S
C120 C119 1.351 . S
C120 H125 0.930 1_545 S
O121 Cu115 1.974 . S
O121 C131 1.282 . S
C122 O123 1.261 . S
C122 O135 1.251 . S
O123 C122 1.261 . S
H124 C118 0.930 . S
H125 C120 0.930 1_565 S
N126 Cu115 1.985 . S
N126 C128 1.335 . S
N126 C129 1.390 . S
N127 C128 1.345 . S
N127 C130 1.336 . S
C128 N126 1.335 . S
C128 N127 1.345 . S
C128 H133 0.930 . S
C129 N126 1.390 . S
C129 C130 1.346 . S
C129 H134 0.930 . S
C130 N127 1.336 . S
C130 C129 1.346 . S
C130 H137 0.929 . S
C131 O121 1.282 . S
C131 O132 1.216 . S
O132 C131 1.216 . S
H133 C128 0.930 . S
H134 C129 0.930 . S
O135 Cu115 1.959 . S
O135 C122 1.251 . S
H136 C119 0.930 1_565 S
H137 C130 0.929 . S
Cu138 N139 1.999 . S
Cu138 O144 1.974 . S
Cu138 N149 1.985 . S
Cu138 O158 1.959 . S
N139 Cu138 1.999 . S
N139 C141 1.263 . S
N139 C143 1.389 . S
N140 C141 1.358 . S
N140 C142 1.400 . S
C141 N139 1.263 . S
C141 N140 1.358 . S
C141 H147 0.930 . S
C142 N140 1.400 . S
C142 C143 1.351 . S
C142 H159 0.930 1_655 S
C143 N139 1.389 . S
C143 C142 1.351 . S
C143 H148 0.930 1_655 S
O144 Cu138 1.974 . S
O144 C154 1.282 . S
C145 O146 1.261 . S
C145 O158 1.251 . S
O146 C145 1.261 . S
H147 C141 0.930 . S
H148 C143 0.930 1_455 S
N149 Cu138 1.985 . S
N149 C151 1.335 . S
N149 C152 1.390 . S
N150 C151 1.345 . S
N150 C153 1.336 . S
C151 N149 1.335 . S
C151 N150 1.345 . S
C151 H156 0.930 . S
C152 N149 1.390 . S
C152 C153 1.346 . S
C152 H157 0.930 . S
C153 N150 1.336 . S
C153 C152 1.346 . S
C153 H160 0.929 . S
C154 O144 1.282 . S
C154 O155 1.216 . S
O155 C154 1.216 . S
H156 C151 0.930 . S
H157 C152 0.930 . S
O158 Cu138 1.959 . S
O158 C145 1.251 . S
H159 C142 0.930 1_455 S
H160 C153 0.929 . S
Cu161 N162 1.999 . S
Cu161 O167 1.974 . S
Cu161 N172 1.985 . S
Cu161 O181 1.959 . S
N162 Cu161 1.999 . S
N162 C164 1.263 . S
N162 C166 1.389 . S
N163 C164 1.358 . S
N163 C165 1.400 . S
C164 N162 1.263 . S
C164 N163 1.358 . S
C164 H170 0.930 . S
C165 N163 1.400 . S
C165 C166 1.351 . S
C165 H182 0.930 . S
C166 N162 1.389 . S
C166 C165 1.351 . S
C166 H171 0.930 . S
O167 Cu161 1.974 . S
O167 C177 1.282 . S
C168 O169 1.261 . S
C168 O181 1.251 . S
O169 C168 1.261 . S
H170 C164 0.930 . S
H171 C166 0.930 . S
N172 Cu161 1.985 . S
N172 C174 1.335 . S
N172 C175 1.390 . S
N173 C174 1.345 . S
N173 C176 1.336 . S
C174 N172 1.335 . S
C174 N173 1.345 . S
C174 H179 0.930 . S
C175 N172 1.390 . S
C175 C176 1.346 . S
C175 H180 0.930 . S
C176 N173 1.336 . S
C176 C175 1.346 . S
C176 H183 0.929 . S
C177 O167 1.282 . S
C177 O178 1.216 . S
O178 C177 1.216 . S
H179 C174 0.930 . S
H180 C175 0.930 . S
O181 Cu161 1.959 . S
O181 C168 1.251 . S
H182 C165 0.930 . S
H183 C176 0.929 . S
C16 C131 2.243 1_554 S
C30 C145 2.438 . S
C62 C177 2.243 . S
C76 C99 2.438 . S
C168 C7 2.438 . S
C108 C39 2.243 . S
C53 C122 2.438 . S
C154 C85 2.243 1_554 S
N2 N140 2.428 1_445 S
N173 N35 3.080 1_455 S
N48 N94 2.428 . S
N81 N127 3.080 1_565 S
N150 N12 3.080 1_655 S
N163 N25 2.428 . S
N58 N104 3.080 1_545 S
N71 N117 2.428 1_665 S
