# Generated by pormake.
# Topology hex, (8)-cn, num edge types: 1
# Building blocks:
#     Node 0, Type 0, BuildingBlock: TAGTUT_clean_sbu_3, # of connection points: 8
#     Edge 1, Type (0, 0), BuildingBlock: EYOCIG_clean_linker_4, # of connection points: 2
#     Edge 2, Type (0, 0), BuildingBlock: EYOCIG_clean_linker_4, # of connection points: 2
#     Edge 3, Type (0, 0), BuildingBlock: EYOCIG_clean_linker_4, # of connection points: 2
#     Edge 4, Type (0, 0), BuildingBlock: EYOCIG_clean_linker_4, # of connection points: 2
# Relax obj value: 0.103
# Max RMSD: 0.228
# Mean RMSD: 0.228
data_MOF--net-hex--node1-TAGTUT_clean_sbu_3--edge1-EYOCIG_clean_linker_4
_symmetry_space_group_name_H-M    P1
_symmetry_Int_Tables_number       1
_symmetry_cell_setting            triclinic
loop_
_symmetry_equiv_pos_as_xyz
'x, y, z'
_cell_length_a     16.305015
_cell_length_b     15.580166
_cell_length_c     12.873771
_cell_angle_alpha  99.303625
_cell_angle_beta   94.749965
_cell_angle_gamma 134.13883
loop_
_atom_site_label
_atom_site_type_symbol
_atom_site_fract_x
_atom_site_fract_y
_atom_site_fract_z
_atom_type_partial_charge
C0 C 0.92213 0.93239 0.72397 0.0
C1 C 0.1814 0.87096 0.87049 0.0
C2 C 0.01946 0.75709 0.09725 0.0
Mg3 Mg 0.80433 -0.00132 0.85695 0.0
Mg4 Mg 0.90716 0.14964 0.12234 0.0
O5 O 0.86911 0.02613 0.01127 0.0
Mg6 Mg -0.02784 0.00115 -0.0129 0.0
O7 O 0.05921 0.96061 0.95 0.0
Mg8 Mg 0.92573 0.77842 0.86628 0.0
Mg9 Mg 0.17405 0.01057 0.06503 0.0
C10 C -0.00177 0.06259 0.25567 0.0
O11 O 0.15379 0.20849 0.02952 0.0
O12 O 0.67261 0.98969 0.91201 0.0
O13 O 0.28526 0.21072 0.10665 0.0
O14 O 0.92483 0.21767 0.89502 0.0
O15 O 0.73528 0.08686 0.09259 0.0
O16 O 0.02884 0.30961 0.07157 0.0
O17 O 0.8035 0.78998 0.93753 0.0
O18 O 0.67957 0.78869 0.84675 0.0
C19 C 0.69828 0.73407 0.89173 0.0
C20 C 0.65847 0.02459 -0.00129 0.0
O21 O 0.00237 0.01104 0.17042 0.0
O22 O 0.07153 0.79548 0.81727 0.0
O23 O -0.0291 0.12218 0.25362 0.0
O24 O 0.95323 0.71768 0.00342 0.0
O25 O 0.23226 0.95663 0.96098 0.0
O26 O 0.10143 0.87373 0.15244 0.0
O27 O 0.94093 0.00266 0.81123 0.0
O28 O 0.91157 0.84356 0.7258 0.0
C29 C -0.00132 0.31508 0.98074 0.0
C30 C 0.26076 0.2644 0.06947 0.0
C31 C 0.02387 0.50359 0.03123 0.0
C32 C 0.00806 0.41535 -0.00734 0.0
C33 C 0.0315 0.59765 0.08299 0.0
C34 C 0.03644 0.67968 0.1093 0.0
C35 C 0.45286 0.93965 0.93665 0.0
C36 C 0.54884 0.98725 0.98369 0.0
C37 C 0.34323 0.88359 0.87266 0.0
C38 C 0.25225 0.85334 0.84272 0.0
C39 C 0.43389 0.4613 0.00983 0.0
C40 C 0.35321 0.37159 0.03609 0.0
C41 C 0.52474 0.55361 0.96582 0.0
C42 C 0.60393 0.6359 0.93208 0.0
C43 C -0.02905 -0.00169 0.54499 0.0
C44 C 0.94947 0.97503 0.62954 0.0
C45 C -0.00387 0.02075 0.4447 0.0
C46 C 0.00142 0.03372 0.35499 0.0
loop_
_geom_bond_atom_site_label_1
_geom_bond_atom_site_label_2
_geom_bond_distance
_geom_bond_site_symmetry_2
_ccdc_geom_bond_type
C0 O27 1.312 1_565 S
C0 O28 1.208 . S
C1 O22 1.331 . S
C1 O25 1.244 . S
C2 O24 1.264 1_454 S
C2 O26 1.273 . S
Mg3 O5 1.936 1_566 S
Mg3 O12 2.081 . S
Mg3 O14 2.023 1_565 S
Mg3 O18 2.031 . S
Mg3 O27 2.291 1_565 S
Mg4 O5 1.963 . S
Mg4 O15 1.942 . S
Mg4 O16 1.955 1_655 S
Mg4 O23 1.986 1_655 S
O5 Mg3 1.936 1_544 S
O5 Mg4 1.963 . S
O5 Mg6 1.915 1_655 S
Mg6 O5 1.915 1_455 S
Mg6 O7 1.915 1_544 S
Mg6 O11 2.013 . S
Mg6 O17 2.114 1_444 S
Mg6 O21 2.013 1_545 S
Mg6 O27 2.114 1_454 S
O7 Mg6 1.915 1_566 S
O7 Mg8 1.936 1_455 S
O7 Mg9 1.963 1_566 S
Mg8 O7 1.936 1_655 S
Mg8 O17 2.291 . S
Mg8 O22 2.081 1_655 S
Mg8 O24 2.023 . S
Mg8 O28 2.031 . S
Mg9 O7 1.963 1_544 S
Mg9 O13 1.986 . S
Mg9 O25 1.942 1_544 S
Mg9 O26 1.955 1_545 S
C10 O21 1.191 1_545 S
C10 O23 1.307 . S
O11 Mg6 2.013 . S
O11 C30 1.191 . S
O12 Mg3 2.081 . S
O12 C20 1.331 1_566 S
O13 Mg9 1.986 . S
O13 C30 1.307 . S
O14 Mg3 2.023 1_545 S
O14 C29 1.264 . S
O15 Mg4 1.942 . S
O15 C20 1.244 . S
O16 Mg4 1.955 1_455 S
O16 C29 1.273 1_454 S
O17 Mg6 2.114 1_666 S
O17 Mg8 2.291 . S
O17 C19 1.312 . S
O18 Mg3 2.031 . S
O18 C19 1.208 . S
C19 O17 1.312 . S
C19 O18 1.208 . S
C20 O12 1.331 1_544 S
C20 O15 1.244 . S
O21 Mg6 2.013 1_565 S
O21 C10 1.191 1_565 S
O22 C1 1.331 . S
O22 Mg8 2.081 1_455 S
O23 Mg4 1.986 1_455 S
O23 C10 1.307 . S
O24 C2 1.264 1_656 S
O24 Mg8 2.023 . S
O25 C1 1.244 . S
O25 Mg9 1.942 1_566 S
O26 C2 1.273 . S
O26 Mg9 1.955 1_565 S
O27 C0 1.312 1_545 S
O27 Mg3 2.291 1_545 S
O27 Mg6 2.114 1_656 S
O28 C0 1.208 . S
O28 Mg8 2.031 . S
C29 O14 1.264 . S
C29 O16 1.273 1_656 S
C30 O11 1.191 . S
C30 O13 1.307 . S
C31 C32 1.170 . S
C31 C33 1.380 1_556 S
C32 C31 1.170 . S
C33 C31 1.380 1_554 S
C33 C34 1.170 . S
C34 C33 1.170 . S
C35 C36 1.170 . S
C35 C37 1.380 1_554 S
C36 C35 1.170 . S
C37 C35 1.380 1_556 S
C37 C38 1.170 . S
C38 C37 1.170 . S
C39 C40 1.170 . S
C39 C41 1.380 1_554 S
C40 C39 1.170 . S
C41 C39 1.380 1_556 S
C41 C42 1.170 . S
C42 C41 1.170 . S
C43 C44 1.170 . S
C43 C45 1.380 . S
C44 C43 1.170 . S
C45 C43 1.380 . S
C45 C46 1.170 1_665 S
C46 C45 1.170 1_445 S
C32 C29 1.546 1_455 S
C34 C2 1.530 . S
C36 C20 1.468 1_565 S
C38 C1 1.358 . S
C40 C30 1.769 . S
C42 C19 1.814 . S
C44 C0 1.461 . S
C46 C10 1.490 . S
