# Generated by pormake.
# Topology est, (5)-cn, num edge types: 1
# Building blocks:
#     Node 0, Type 0, BuildingBlock: XOMCOT_clean_sbu_0, # of connection points: 5
#     Node 1, Type 0, BuildingBlock: XOMCOT_clean_sbu_0, # of connection points: 5
#     Node 2, Type 0, BuildingBlock: XOMCOT_clean_sbu_0, # of connection points: 5
#     Node 3, Type 0, BuildingBlock: XOMCOT_clean_sbu_0, # of connection points: 5
#     Edge 4, Type (0, 0), None
#     Edge 5, Type (0, 0), None
#     Edge 6, Type (0, 0), None
#     Edge 7, Type (0, 0), None
#     Edge 8, Type (0, 0), None
#     Edge 9, Type (0, 0), None
#     Edge 10, Type (0, 0), None
#     Edge 11, Type (0, 0), None
#     Edge 12, Type (0, 0), None
#     Edge 13, Type (0, 0), None
# Relax obj value: 0.214
# Max RMSD: 0.231
# Mean RMSD: 0.231
data_MOF--net-est--node1-XOMCOT_clean_sbu_0--edge1-none
_symmetry_space_group_name_H-M    P1
_symmetry_Int_Tables_number       1
_symmetry_cell_setting            triclinic
loop_
_symmetry_equiv_pos_as_xyz
'x, y, z'
_cell_length_a     8.8015553
_cell_length_b     8.9106755
_cell_length_c     26.718737
_cell_angle_alpha  76.649258
_cell_angle_beta   92.552084
_cell_angle_gamma 87.913738
loop_
_atom_site_label
_atom_site_type_symbol
_atom_site_fract_x
_atom_site_fract_y
_atom_site_fract_z
_atom_type_partial_charge
Co0 Co 0.2287 0.17636 0.58422 0.0
C1 C 0.91682 0.22189 0.604 0.0
C2 C 0.96435 0.33228 0.52681 0.0
C3 C 0.82128 0.27541 0.52633 0.0
N4 N 0.03067 0.28729 0.57496 0.0
N5 N 0.79302 0.20417 0.57463 0.0
H6 H 0.93643 0.15808 0.6435 0.0
H7 H 0.02711 0.36979 0.49257 0.0
C8 C 0.47461 0.42692 0.56028 0.0
O9 O 0.54062 0.37949 0.60659 0.0
N10 N 0.42535 0.06074 0.59324 0.0
C11 C 0.49908 -0.00903 0.63871 0.0
C12 C 0.65165 0.0198 0.63638 0.0
C13 C 0.53875 0.11245 0.56236 0.0
N14 N 0.67443 0.10223 0.58869 0.0
C15 C 0.22102 0.0892 0.69413 0.0
C16 C 0.2691 0.37516 0.71354 0.0
C17 C 0.24873 0.24998 0.75471 0.0
C18 C 0.22347 0.10594 0.74472 0.0
C19 C 0.26708 0.35246 0.6634 0.0
N20 N 0.24946 0.20976 0.6541 0.0
H21 H 0.19615 0.97773 0.68733 0.0
H22 H 0.27628 0.44995 0.63227 0.0
H23 H 0.44656 0.9362 0.67335 0.0
H24 H 0.51756 0.18102 0.52346 0.0
O25 O 0.1145 -0.01222 0.59979 0.0
O26 O 0.17268 0.10649 0.52172 0.0
O27 O 0.34382 0.37392 0.54939 0.0
C28 C 0.08817 0.00779 0.55047 0.0
H29 H 0.75343 0.26632 0.49252 0.0
H30 H 0.73477 -0.0041 0.6686 0.0
H31 H 0.28356 0.4896 0.71995 0.0
H32 H 0.20241 0.00782 0.77568 0.0
Co33 Co 0.83694 0.67779 0.09683 0.0
C34 C 0.84085 0.34488 0.13374 0.0
C35 C 0.63454 0.43416 0.091 0.0
C36 C 0.66945 0.28956 0.08351 0.0
N37 N 0.75053 0.47626 0.11699 0.0
N38 N 0.80064 0.23401 0.10987 0.0
H39 H 0.94886 0.34017 0.15514 0.0
H40 H 0.54067 0.51143 0.07516 0.0
C41 C 0.55434 0.9276 0.065 0.0
O42 O 0.55689 -0.01721 0.10647 0.0
N43 N 0.9389 0.87537 0.0846 0.0
C44 C 0.04458 0.89843 0.12033 0.0
C45 C 1.01333 0.03751 0.13324 0.0
C46 C 0.86138 0.01409 0.07124 0.0
N47 N 0.89362 0.10751 0.10303 0.0
C48 C 0.93885 0.6371 0.20245 0.0
C49 C 0.66519 0.72042 0.23763 0.0
C50 C 0.79366 0.68681 0.2717 0.0
C51 C 0.93076 0.64043 0.2542 0.0
C52 C 0.67861 0.71438 0.18617 0.0
N53 N 0.81707 0.68601 0.16831 0.0
H54 H 0.04369 0.59585 0.18965 0.0
H55 H 0.57703 0.72706 0.16132 0.0
H56 H 0.12855 0.81188 0.14055 0.0
H57 H 0.78585 0.04906 1.0375 0.0
O58 O 0.03313 0.55891 0.09717 0.0
O59 O 0.87732 0.63565 1.02945 0.0
O60 O 0.63145 0.79957 0.06533 0.0
C61 C 0.99078 0.54466 0.05094 0.0
H62 H 0.61352 0.23858 0.05606 0.0
H63 H 0.06697 0.0778 0.16461 0.0
H64 H 0.55575 0.7499 0.25075 0.0
H65 H 0.03085 0.60859 0.28015 0.0
Co66 Co 0.80736 0.78 0.49521 0.0
C67 C 0.11924 0.73447 0.47542 0.0
C68 C 0.07172 0.62407 0.55261 0.0
C69 C 0.21478 0.68094 0.5531 0.0
N70 N 1.00539 0.66907 0.50447 0.0
N71 N 0.24305 0.75218 0.5048 0.0
H72 H 0.09963 0.79828 0.43593 0.0
H73 H 1.00896 0.58656 0.58685 0.0
C74 C 0.56145 0.52944 0.51914 0.0
O75 O 0.49545 0.57687 0.47284 0.0
N76 N 0.61072 0.89562 0.48619 0.0
C77 C 0.53698 0.9654 0.44072 0.0
C78 C 0.38442 0.93656 0.44305 0.0
C79 C 0.49732 0.84391 0.51707 0.0
N80 N 0.36164 0.85413 0.49073 0.0
C81 C 0.81505 0.86717 0.3853 0.0
C82 C 0.76698 0.58122 0.36589 0.0
C83 C 0.78736 0.7064 0.32472 0.0
C84 C 0.81262 0.85043 0.33471 0.0
C85 C 0.76898 0.60392 0.41603 0.0
N86 N 0.7866 0.74661 0.42533 0.0
H87 H 0.83992 -0.02136 0.39211 0.0
H88 H 0.75978 0.50642 0.44716 0.0
H89 H 0.58951 0.02018 0.40608 0.0
H90 H 0.51851 0.77534 0.55597 0.0
O91 O 0.92156 0.96859 0.47964 0.0
O92 O 0.86338 0.84986 0.55771 0.0
O93 O 0.69225 0.58245 0.53004 0.0
C94 C 0.94792 0.94854 0.52896 0.0
H95 H 0.28264 0.69003 0.58691 0.0
H96 H 0.3013 0.96046 0.41083 0.0
H97 H 0.75251 0.46678 0.35947 0.0
H98 H 0.83369 0.94856 0.30375 0.0
Co99 Co 0.19905 0.27859 0.98259 0.0
C100 C 0.19532 0.6115 0.94568 0.0
C101 C 0.40138 0.52211 0.98857 0.0
C102 C 0.36635 0.66666 0.99608 0.0
N103 N 0.28558 0.48009 0.96247 0.0
N104 N 0.23533 0.7223 0.96963 0.0
H105 H 0.08741 0.61625 0.92422 0.0
H106 H 0.49511 0.44476 1.00448 0.0
C107 C 0.48157 0.02864 1.01443 0.0
O108 O 0.47894 0.97337 0.97298 0.0
N109 N 0.09702 0.08105 0.99479 0.0
C110 C 0.99142 0.05797 0.95905 0.0
C111 C 0.02268 0.91884 0.94617 0.0
C112 C 0.17448 0.9423 1.0082 0.0
N113 N 0.14231 0.84882 0.97642 0.0
C114 C 0.09724 0.31939 0.87696 0.0
C115 C 0.37087 0.23586 0.84181 0.0
C116 C 0.24242 0.26957 0.80772 0.0
C117 C 0.10535 0.31607 0.82522 0.0
C118 C 0.35743 0.24192 0.89327 0.0
N119 N 0.21898 0.2704 0.91112 0.0
H120 H 0.99241 0.3607 0.88976 0.0
H121 H 0.45899 0.22914 0.91813 0.0
H122 H 0.90751 0.14453 0.93879 0.0
H123 H 0.24998 0.9074 0.04195 0.0
O124 O 1.0029 0.39756 0.98223 0.0
O125 O 0.15861 0.3207 0.04998 0.0
O126 O 0.4045 0.15669 1.0141 0.0
C127 C 0.04525 0.41179 1.02846 0.0
H128 H 0.42202 0.71753 1.02362 0.0
H129 H 0.96911 0.87852 0.9148 0.0
H130 H 0.48029 0.20629 0.82871 0.0
H131 H 1.00529 0.34798 0.79925 0.0
loop_
_geom_bond_atom_site_label_1
_geom_bond_atom_site_label_2
_geom_bond_distance
_geom_bond_site_symmetry_2
_ccdc_geom_bond_type
Co0 N4 2.148 . S
Co0 N10 2.128 . S
Co0 N20 2.194 . S
Co0 O25 2.351 . S
Co0 O26 2.155 . S
Co0 O27 2.096 . S
C1 N4 1.301 1_655 S
C1 N5 1.328 . S
C1 H6 0.930 . S
C2 C3 1.333 . S
C2 N4 1.317 1_655 S
C2 H7 0.930 1_655 S
C3 C2 1.333 . S
C3 N5 1.350 . S
C3 H29 0.931 . S
N4 Co0 2.148 . S
N4 C1 1.301 1_455 S
N4 C2 1.317 1_455 S
N5 C1 1.328 . S
N5 C3 1.350 . S
H6 C1 0.930 . S
H7 C2 0.930 1_455 S
C8 O9 1.224 . S
C8 O27 1.247 . S
O9 C8 1.224 . S
N10 Co0 2.128 . S
N10 C11 1.355 . S
N10 C13 1.311 . S
C11 N10 1.355 . S
C11 C12 1.363 . S
C11 H23 0.929 . S
C12 C11 1.363 . S
C12 N14 1.375 . S
C12 H30 0.931 1_545 S
C13 N10 1.311 . S
C13 N14 1.347 . S
C13 H24 0.929 . S
N14 C12 1.375 . S
N14 C13 1.347 . S
C15 C18 1.365 . S
C15 N20 1.328 . S
C15 H21 0.929 . S
C16 C17 1.362 . S
C16 C19 1.378 . S
C16 H31 0.929 . S
C17 C16 1.362 . S
C17 C18 1.366 . S
C18 C15 1.365 . S
C18 C17 1.366 . S
C18 H32 0.930 . S
C19 C16 1.378 . S
C19 N20 1.315 . S
C19 H22 0.930 . S
N20 Co0 2.194 . S
N20 C15 1.328 . S
N20 C19 1.315 . S
H21 C15 0.929 . S
H22 C19 0.930 . S
H23 C11 0.929 . S
H24 C13 0.929 . S
O25 Co0 2.351 . S
O25 C28 1.244 . S
O26 Co0 2.155 . S
O26 C28 1.240 . S
O27 Co0 2.096 . S
O27 C8 1.247 . S
C28 O25 1.244 . S
C28 O26 1.240 . S
H29 C3 0.931 . S
H30 C12 0.931 1_565 S
H31 C16 0.929 . S
H32 C18 0.930 . S
Co33 N37 2.148 . S
Co33 N43 2.128 . S
Co33 N53 2.194 . S
Co33 O58 2.351 . S
Co33 O59 2.155 1_554 S
Co33 O60 2.096 1_554 S
C34 N37 1.301 . S
C34 N38 1.328 . S
C34 H39 0.930 . S
C35 C36 1.333 . S
C35 N37 1.317 . S
C35 H40 0.930 . S
C36 C35 1.333 . S
C36 N38 1.350 . S
C36 H62 0.931 . S
N37 Co33 2.148 . S
N37 C34 1.301 . S
N37 C35 1.317 . S
N38 C34 1.328 . S
N38 C36 1.350 . S
H39 C34 0.930 . S
H40 C35 0.930 . S
C41 O42 1.224 . S
C41 O60 1.247 1_554 S
O42 C41 1.224 . S
N43 Co33 2.128 . S
N43 C44 1.355 . S
N43 C46 1.311 1_565 S
C44 N43 1.355 . S
C44 C45 1.363 1_565 S
C44 H56 0.929 . S
C45 C44 1.363 1_545 S
C45 N47 1.375 . S
C45 H63 0.931 1_655 S
C46 N43 1.311 1_545 S
C46 N47 1.347 . S
C46 H57 0.929 . S
N47 C45 1.375 . S
N47 C46 1.347 . S
C48 C51 1.365 . S
C48 N53 1.328 . S
C48 H54 0.929 . S
C49 C50 1.362 . S
C49 C52 1.378 . S
C49 H64 0.929 . S
C50 C49 1.362 . S
C50 C51 1.366 . S
C51 C48 1.365 . S
C51 C50 1.366 . S
C51 H65 0.930 . S
C52 C49 1.378 . S
C52 N53 1.315 . S
C52 H55 0.930 . S
N53 Co33 2.194 . S
N53 C48 1.328 . S
N53 C52 1.315 . S
H54 C48 0.929 . S
H55 C52 0.930 . S
H56 C44 0.929 . S
H57 C46 0.929 . S
O58 Co33 2.351 . S
O58 C61 1.244 . S
O59 Co33 2.155 1_556 S
O59 C61 1.240 1_556 S
O60 Co33 2.096 1_556 S
O60 C41 1.247 1_556 S
C61 O58 1.244 . S
C61 O59 1.240 1_554 S
H62 C36 0.931 . S
H63 C45 0.931 1_455 S
H64 C49 0.929 . S
H65 C51 0.930 . S
Co66 N70 2.148 . S
Co66 N76 2.128 . S
Co66 N86 2.194 . S
Co66 O91 2.351 . S
Co66 O92 2.155 . S
Co66 O93 2.096 . S
C67 N70 1.301 1_455 S
C67 N71 1.328 . S
C67 H72 0.930 . S
C68 C69 1.333 . S
C68 N70 1.317 1_455 S
C68 H73 0.930 1_455 S
C69 C68 1.333 . S
C69 N71 1.350 . S
C69 H95 0.931 . S
N70 Co66 2.148 . S
N70 C67 1.301 1_655 S
N70 C68 1.317 1_655 S
N71 C67 1.328 . S
N71 C69 1.350 . S
H72 C67 0.930 . S
H73 C68 0.930 1_655 S
C74 O75 1.224 . S
C74 O93 1.247 . S
O75 C74 1.224 . S
N76 Co66 2.128 . S
N76 C77 1.355 . S
N76 C79 1.311 . S
C77 N76 1.355 . S
C77 C78 1.363 . S
C77 H89 0.929 . S
C78 C77 1.363 . S
C78 N80 1.375 . S
C78 H96 0.931 1_565 S
C79 N76 1.311 . S
C79 N80 1.347 . S
C79 H90 0.929 . S
N80 C78 1.375 . S
N80 C79 1.347 . S
C81 C84 1.365 . S
C81 N86 1.328 . S
C81 H87 0.929 . S
C82 C83 1.362 . S
C82 C85 1.378 . S
C82 H97 0.929 . S
C83 C82 1.362 . S
C83 C84 1.366 . S
C84 C81 1.365 . S
C84 C83 1.366 . S
C84 H98 0.930 . S
C85 C82 1.378 . S
C85 N86 1.315 . S
C85 H88 0.930 . S
N86 Co66 2.194 . S
N86 C81 1.328 . S
N86 C85 1.315 . S
H87 C81 0.929 . S
H88 C85 0.930 . S
H89 C77 0.929 . S
H90 C79 0.929 . S
O91 Co66 2.351 . S
O91 C94 1.244 . S
O92 Co66 2.155 . S
O92 C94 1.240 . S
O93 Co66 2.096 . S
O93 C74 1.247 . S
C94 O91 1.244 . S
C94 O92 1.240 . S
H95 C69 0.931 . S
H96 C78 0.931 1_545 S
H97 C82 0.929 . S
H98 C84 0.930 . S
Co99 N103 2.148 . S
Co99 N109 2.128 . S
Co99 N119 2.194 . S
Co99 O124 2.351 . S
Co99 O125 2.155 1_556 S
Co99 O126 2.096 1_556 S
C100 N103 1.301 . S
C100 N104 1.328 . S
C100 H105 0.930 . S
C101 C102 1.333 . S
C101 N103 1.317 . S
C101 H106 0.930 . S
C102 C101 1.333 . S
C102 N104 1.350 . S
C102 H128 0.931 . S
N103 Co99 2.148 . S
N103 C100 1.301 . S
N103 C101 1.317 . S
N104 C100 1.328 . S
N104 C102 1.350 . S
H105 C100 0.930 . S
H106 C101 0.930 . S
C107 O108 1.224 . S
C107 O126 1.247 1_556 S
O108 C107 1.224 . S
N109 Co99 2.128 . S
N109 C110 1.355 . S
N109 C112 1.311 1_545 S
C110 N109 1.355 . S
C110 C111 1.363 1_545 S
C110 H122 0.929 . S
C111 C110 1.363 1_565 S
C111 N113 1.375 . S
C111 H129 0.931 1_455 S
C112 N109 1.311 1_565 S
C112 N113 1.347 . S
C112 H123 0.929 . S
N113 C111 1.375 . S
N113 C112 1.347 . S
C114 C117 1.365 . S
C114 N119 1.328 . S
C114 H120 0.929 . S
C115 C116 1.362 . S
C115 C118 1.378 . S
C115 H130 0.929 . S
C116 C115 1.362 . S
C116 C117 1.366 . S
C117 C114 1.365 . S
C117 C116 1.366 . S
C117 H131 0.930 . S
C118 C115 1.378 . S
C118 N119 1.315 . S
C118 H121 0.930 . S
N119 Co99 2.194 . S
N119 C114 1.328 . S
N119 C118 1.315 . S
H120 C114 0.929 . S
H121 C118 0.930 . S
H122 C110 0.929 . S
H123 C112 0.929 . S
O124 Co99 2.351 . S
O124 C127 1.244 . S
O125 Co99 2.155 1_554 S
O125 C127 1.240 1_554 S
O126 Co99 2.096 1_554 S
O126 C107 1.247 1_554 S
C127 O124 1.244 . S
C127 O125 1.240 1_556 S
H128 C102 0.931 . S
H129 C111 0.931 1_655 S
H130 C115 0.929 . S
H131 C117 0.930 . S
N5 N14 2.586 . S
N38 N47 2.586 . S
N80 N71 2.586 . S
N113 N104 2.586 . S
C116 C17 1.505 . S
C50 C83 1.505 . S
C8 C74 2.466 . S
C107 C41 2.441 1_546 S
C94 C28 2.366 1_665 S
C61 C127 2.376 1_654 S
