# Generated by pormake.
# Topology vme, (6)-cn, num edge types: 1
# Building blocks:
#     Node 0, Type 0, BuildingBlock: VOLQOD_clean_sbu_1, # of connection points: 6
#     Node 1, Type 0, BuildingBlock: VOLQOD_clean_sbu_1, # of connection points: 6
#     Node 2, Type 0, BuildingBlock: VOLQOD_clean_sbu_1, # of connection points: 6
#     Node 3, Type 0, BuildingBlock: VOLQOD_clean_sbu_1, # of connection points: 6
#     Edge 4, Type (0, 0), BuildingBlock: AJUNOK_clean_linker_0, # of connection points: 2
#     Edge 5, Type (0, 0), BuildingBlock: AJUNOK_clean_linker_0, # of connection points: 2
#     Edge 6, Type (0, 0), BuildingBlock: AJUNOK_clean_linker_0, # of connection points: 2
#     Edge 7, Type (0, 0), BuildingBlock: AJUNOK_clean_linker_0, # of connection points: 2
#     Edge 8, Type (0, 0), BuildingBlock: AJUNOK_clean_linker_0, # of connection points: 2
#     Edge 9, Type (0, 0), BuildingBlock: AJUNOK_clean_linker_0, # of connection points: 2
#     Edge 10, Type (0, 0), BuildingBlock: AJUNOK_clean_linker_0, # of connection points: 2
#     Edge 11, Type (0, 0), BuildingBlock: AJUNOK_clean_linker_0, # of connection points: 2
#     Edge 12, Type (0, 0), BuildingBlock: AJUNOK_clean_linker_0, # of connection points: 2
#     Edge 13, Type (0, 0), BuildingBlock: AJUNOK_clean_linker_0, # of connection points: 2
#     Edge 14, Type (0, 0), BuildingBlock: AJUNOK_clean_linker_0, # of connection points: 2
#     Edge 15, Type (0, 0), BuildingBlock: AJUNOK_clean_linker_0, # of connection points: 2
# Relax obj value: 0.302
# Max RMSD: 0.247
# Mean RMSD: 0.247
data_MOF--net-vme--node1-VOLQOD_clean_sbu_1--edge1-AJUNOK_clean_linker_0
_symmetry_space_group_name_H-M    P1
_symmetry_Int_Tables_number       1
_symmetry_cell_setting            triclinic
loop_
_symmetry_equiv_pos_as_xyz
'x, y, z'
_cell_length_a     20.879339
_cell_length_b     20.985196
_cell_length_c     22.089712
_cell_angle_alpha  90.02785
_cell_angle_beta   115.01232
_cell_angle_gamma 89.911936
loop_
_atom_site_label
_atom_site_type_symbol
_atom_site_fract_x
_atom_site_fract_y
_atom_site_fract_z
_atom_type_partial_charge
O0 O 0.05619 0.39104 0.40305 0.0
Zn1 Zn 0.08954 0.36286 0.33567 0.0
O2 O 0.19044 0.36301 0.37513 0.0
Zn3 Zn 0.22751 0.27817 0.38075 0.0
Zn4 Zn 0.22287 0.40276 0.46034 0.0
Zn5 Zn 0.22135 0.41875 0.32512 0.0
O6 O 0.27534 0.27455 0.31528 0.0
O7 O 0.23899 0.36586 0.2588 0.0
O8 O 0.04875 0.27514 0.30585 0.0
O9 O 0.14571 0.21555 0.34581 0.0
O10 O 0.28233 0.25285 0.48095 0.0
O11 O 0.25283 0.3354 0.5275 0.0
O12 O 0.31137 0.45238 0.4829 0.0
O13 O 0.05063 0.43263 0.26714 0.0
O14 O 0.31647 0.45461 0.38509 0.0
O15 O 0.1472 0.48845 0.28495 0.0
C16 C 0.08104 0.43336 0.44817 0.0
C17 C 0.26778 0.31097 0.26582 0.0
C18 C 0.28014 0.28057 0.53191 0.0
C19 C 0.07851 0.22057 0.31741 0.0
C20 C 0.3446 0.465 0.44772 0.0
C21 C 0.07995 0.48441 0.26203 0.0
O22 O 0.1454 0.45084 0.47064 0.0
O23 O 0.93512 0.89188 0.10693 0.0
Zn24 Zn 0.90487 0.86337 0.17707 0.0
O25 O 0.80333 0.863 0.14003 0.0
Zn26 Zn 0.76511 0.7793 0.13485 0.0
Zn27 Zn 0.76909 0.9019 0.05474 0.0
Zn28 Zn 0.77142 0.91844 0.18919 0.0
O29 O 0.71653 0.77626 0.19994 0.0
O30 O 0.75521 0.86697 0.25644 0.0
O31 O 0.94607 0.77438 0.20716 0.0
O32 O 0.84699 0.71782 0.17071 0.0
O33 O 0.71125 0.75286 0.03495 0.0
O34 O 0.74196 0.83432 0.98812 0.0
O35 O 0.67901 0.94871 0.03165 0.0
O36 O 0.94351 0.93541 0.24437 0.0
O37 O 0.6753 0.95355 0.12988 0.0
O38 O 0.84478 0.98736 0.22883 0.0
C39 C 0.90826 0.93597 0.06395 0.0
C40 C 0.72502 0.81299 0.24948 0.0
C41 C 0.71447 0.7797 0.98407 0.0
C42 C 0.91429 0.72073 0.19753 0.0
C43 C 0.64611 0.96195 0.06695 0.0
C44 C 0.912 0.98565 0.25057 0.0
O45 O 0.84412 0.95305 0.04481 0.0
O46 O 0.92879 0.59445 0.59977 0.0
Zn47 Zn 0.90211 0.62313 0.6717 0.0
O48 O 0.80148 0.6228 0.63837 0.0
Zn49 Zn 0.76449 0.70749 0.63374 0.0
Zn50 Zn 0.764 0.5825 0.55335 0.0
Zn51 Zn 0.77456 0.56763 0.69168 0.0
O52 O 0.71734 0.71043 0.69979 0.0
O53 O 0.75923 0.62113 0.7586 0.0
O54 O 0.94351 0.71129 0.70024 0.0
O55 O 0.84622 0.77008 0.66863 0.0
O56 O 0.7096 0.73363 0.53377 0.0
O57 O 0.73478 0.64961 0.48616 0.0
O58 O 0.67491 0.5351 0.53487 0.0
O59 O 0.94463 0.55323 0.73963 0.0
O60 O 0.67867 0.53073 0.63618 0.0
O61 O 0.84986 0.4989 0.73089 0.0
C62 C 0.90125 0.55088 0.55643 0.0
C63 C 0.72783 0.67482 0.75059 0.0
C64 C 0.71048 0.70563 0.48239 0.0
C65 C 0.9134 0.76555 0.69275 0.0
C66 C 0.64599 0.52153 0.57359 0.0
C67 C 0.9166 0.50245 0.74922 0.0
O68 O 0.838 0.53226 0.53973 0.0
O69 O 0.06227 0.09925 0.91312 0.0
Zn70 Zn 0.08957 0.12354 0.84036 0.0
O71 O 0.19082 0.12251 0.87578 0.0
Zn72 Zn 0.22932 0.20647 0.88139 0.0
Zn73 Zn 0.22669 0.082 0.96103 0.0
Zn74 Zn 0.21925 0.0683 0.82295 0.0
O75 O 0.27824 0.2102 0.81686 0.0
O76 O 0.23638 0.12166 0.7571 0.0
O77 O 0.04875 0.21214 0.80851 0.0
O78 O 0.14802 0.26841 0.84473 0.0
O79 O 0.28262 0.23318 0.9812 0.0
O80 O 0.25792 0.149 0.02883 0.0
O81 O 0.31477 0.03195 0.98011 0.0
O82 O 0.04811 0.05046 0.77492 0.0
O83 O 0.31388 0.03029 0.87976 0.0
O84 O 0.14475 0.00038 0.78153 0.0
C85 C 0.08798 0.05598 0.9572 0.0
C86 C 0.26807 0.17512 0.76582 0.0
C87 C 0.28256 0.20483 0.03266 0.0
C88 C 0.08074 0.26559 0.81743 0.0
C89 C 0.34477 0.019 0.94208 0.0
C90 C 0.07806 0.00154 0.76368 0.0
O91 O 0.15038 0.03464 0.974 0.0
C92 C 0.02739 0.04483 0.29467 0.0
C93 C 0.9536 0.0457 0.27391 0.0
C94 C 0.06692 0.10132 0.30824 0.0
C95 C 0.03459 0.16153 0.30139 0.0
H96 H 0.05505 0.00012 0.29924 0.0
H97 H 0.12338 0.09755 0.32355 0.0
S98 S 0.8433 0.19077 0.25179 0.0
N99 N 0.85012 0.11254 0.24972 0.0
N100 N 0.92421 0.21832 0.27496 0.0
C101 C 0.96102 0.16321 0.28206 0.0
C102 C 0.92073 0.10556 0.26859 0.0
C103 C 0.06731 0.60292 0.24097 0.0
C104 C 0.03557 0.54323 0.23918 0.0
C105 C 0.02823 0.65994 0.22839 0.0
C106 C 0.95558 0.65994 0.21346 0.0
H107 H 0.12328 0.60596 0.25351 0.0
H108 H 0.05536 0.70437 0.23035 0.0
S109 S 0.84641 0.51663 0.20213 0.0
N110 N 0.92607 0.48812 0.22032 0.0
N111 N 0.85341 0.59454 0.19749 0.0
C112 C 0.92296 0.60054 0.21082 0.0
C113 C 0.9626 0.54254 0.22333 0.0
C114 C 0.96425 0.94066 0.72764 0.0
C115 C 0.03588 0.94194 0.73873 0.0
C116 C 0.92549 0.88369 0.71299 0.0
C117 C 0.95651 0.82508 0.70905 0.0
H118 H 0.93793 0.98384 0.73185 0.0
H119 H 0.87086 0.88566 0.7057 0.0
S120 S 0.14079 0.80229 0.72856 0.0
N121 N 0.13509 0.87927 0.74079 0.0
N122 N 0.06241 0.77252 0.71356 0.0
C123 C 0.02752 0.82573 0.71817 0.0
C124 C 0.067 0.88393 0.73273 0.0
C125 C 0.93052 0.38543 0.77791 0.0
C126 C 0.96109 0.44376 0.77231 0.0
C127 C 0.96894 0.32802 0.79134 0.0
C128 C 0.03972 0.32634 0.79992 0.0
H129 H 0.87593 0.38372 0.77074 0.0
H130 H 0.94293 0.28468 0.79542 0.0
S131 S 0.14486 0.46515 0.7892 0.0
N132 N 0.06727 0.49554 0.7763 0.0
N133 N 0.13866 0.38824 0.80101 0.0
C134 C 0.07116 0.38428 0.79486 0.0
C135 C 0.0322 0.44269 0.78133 0.0
C136 C 0.01922 0.52456 0.56097 0.0
C137 C 0.94515 0.52048 0.52719 0.0
C138 C 0.06273 0.4963 0.53499 0.0
C139 C 0.0338 0.46287 0.47427 0.0
H140 H 0.04405 0.54924 0.60836 0.0
H141 H 0.11946 0.50027 0.56312 0.0
S142 S 0.84276 0.44136 0.36445 0.0
N143 N 0.8445 0.48239 0.42887 0.0
N144 N 0.92626 0.42922 0.37953 0.0
C145 C 0.95968 0.45886 0.43955 0.0
C146 C 0.91535 0.48764 0.46616 0.0
C147 C 0.01703 0.93962 0.04418 0.0
C148 C 0.95321 0.96821 0.03698 0.0
C149 C 0.06099 0.96896 0.01938 0.0
C150 C 0.04278 0.02799 0.98647 0.0
H151 H 0.03295 0.89376 0.06848 0.0
H152 H 0.10893 0.94449 0.02506 0.0
S153 S 0.88416 0.12535 0.95961 0.0
N154 N 0.8758 0.06057 0.99793 0.0
N155 N 0.95851 0.11596 0.95131 0.0
C156 C 0.97984 0.05789 0.98023 0.0
C157 C 0.93499 0.02791 1.00541 0.0
C158 C 0.27514 0.30048 0.09662 0.0
C159 C 0.30031 0.23847 0.09672 0.0
C160 C 0.26887 0.32487 0.15312 0.0
C161 C 0.28739 0.28812 0.21185 0.0
H162 H 0.25456 0.32832 0.05103 0.0
H163 H 0.24527 0.37158 0.149 0.0
S164 S 0.37013 0.12767 0.24127 0.0
N165 N 0.35438 0.14459 0.16324 0.0
N166 N 0.34256 0.19013 0.26918 0.0
C167 C 0.31915 0.22843 0.21444 0.0
C168 C 0.32569 0.20378 0.157 0.0
C169 C 0.68363 0.72768 0.3041 0.0
C170 C 0.7051 0.79097 0.30344 0.0
C171 C 0.67771 0.70248 0.36022 0.0
C172 C 0.69327 0.73929 0.41827 0.0
H173 H 0.67536 0.69607 0.26268 0.0
H174 H 0.66557 0.65224 0.35977 0.0
S175 S 0.73752 0.91114 0.43742 0.0
N176 N 0.73047 0.89305 0.3621 0.0
N177 N 0.72084 0.84459 0.46788 0.0
C178 C 0.7076 0.80423 0.41584 0.0
C179 C 0.71341 0.83024 0.35846 0.0
C180 C 0.72145 0.68418 0.92014 0.0
C181 C 0.69562 0.74585 0.92013 0.0
C182 C 0.72753 0.6602 0.86343 0.0
C183 C 0.70821 0.69711 0.80468 0.0
H184 H 0.74282 0.65646 0.96581 0.0
H185 H 0.75167 0.61376 0.86742 0.0
S186 S 0.62343 0.85665 0.7758 0.0
N187 N 0.64001 0.83945 0.85395 0.0
N188 N 0.6514 0.7947 0.74751 0.0
C189 C 0.67561 0.75634 0.80221 0.0
C190 C 0.66927 0.78054 0.85987 0.0
C191 C 0.27076 0.16053 0.65393 0.0
C192 C 0.28794 0.19793 0.71206 0.0
C193 C 0.27635 0.18481 0.59712 0.0
C194 C 0.29952 0.24733 0.59636 0.0
H195 H 0.24862 0.11331 0.65046 0.0
H196 H 0.25661 0.15643 0.55191 0.0
S197 S 0.36569 0.36017 0.73919 0.0
N198 N 0.34 0.29727 0.768 0.0
N199 N 0.35073 0.34255 0.6615 0.0
C200 C 0.32395 0.28272 0.65617 0.0
C201 C 0.31805 0.2582 0.71391 0.0
C202 C 0.45998 0.48846 0.44342 0.0
C203 C 0.42044 0.48292 0.48131 0.0
C204 C 0.53303 0.49854 0.47397 0.0
C205 C 0.57004 0.50368 0.54386 0.0
H206 H 0.43461 0.48421 0.38951 0.0
H207 H 0.56046 0.50297 0.44209 0.0
S208 S 0.49157 0.4928 0.66643 0.0
N209 N 0.42404 0.48344 0.59306 0.0
N210 N 0.56127 0.50246 0.65037 0.0
C211 C 0.53128 0.49818 0.58259 0.0
C212 C 0.45664 0.48802 0.5514 0.0
C213 C 0.45959 0.00342 0.04216 0.0
C214 C 0.42037 -4e-05 0.97237 0.0
C215 C 0.53269 0.99305 0.07199 0.0
C216 C 0.56991 0.97873 0.03341 0.0
H217 H 0.43401 0.01543 0.07431 0.0
H218 H 0.56008 -0.00395 0.12591 0.0
S219 S 0.49174 0.96135 0.84849 0.0
N220 N 0.42412 0.97929 0.86546 0.0
N221 N 0.56132 0.95991 0.92126 0.0
C222 C 0.53128 0.97453 0.96346 0.0
C223 C 0.45668 0.98492 0.93309 0.0
loop_
_geom_bond_atom_site_label_1
_geom_bond_atom_site_label_2
_geom_bond_distance
_geom_bond_site_symmetry_2
_ccdc_geom_bond_type
O0 Zn1 1.953 . S
O0 C16 1.225 . S
Zn1 O0 1.953 . S
Zn1 O2 1.949 . S
Zn1 O8 1.919 . S
Zn1 O13 1.924 . S
O2 Zn1 1.949 . S
O2 Zn3 1.923 . S
O2 Zn4 1.950 . S
O2 Zn5 1.945 . S
Zn3 O2 1.923 . S
Zn3 O6 1.933 . S
Zn3 O9 1.941 . S
Zn3 O10 1.965 . S
Zn4 O2 1.950 . S
Zn4 O11 1.938 . S
Zn4 O12 1.906 . S
Zn4 O22 1.953 . S
Zn5 O2 1.945 . S
Zn5 O7 1.932 . S
Zn5 O14 1.977 . S
Zn5 O15 1.910 . S
O6 Zn3 1.933 . S
O6 C17 1.226 . S
O7 Zn5 1.932 . S
O7 C17 1.307 . S
O8 Zn1 1.919 . S
O8 C19 1.253 . S
O9 Zn3 1.941 . S
O9 C19 1.283 . S
O10 Zn3 1.965 . S
O10 C18 1.303 . S
O11 Zn4 1.938 . S
O11 C18 1.247 . S
O12 Zn4 1.906 . S
O12 C20 1.304 . S
O13 Zn1 1.924 . S
O13 C21 1.311 . S
O14 Zn5 1.977 . S
O14 C20 1.272 . S
O15 Zn5 1.910 . S
O15 C21 1.231 . S
C16 O0 1.225 . S
C16 O22 1.298 . S
C17 O6 1.226 . S
C17 O7 1.307 . S
C18 O10 1.303 . S
C18 O11 1.247 . S
C19 O8 1.253 . S
C19 O9 1.283 . S
C20 O12 1.304 . S
C20 O14 1.272 . S
C21 O13 1.311 . S
C21 O15 1.231 . S
O22 Zn4 1.953 . S
O22 C16 1.298 . S
O23 Zn24 1.953 . S
O23 C39 1.225 . S
Zn24 O23 1.953 . S
Zn24 O25 1.949 . S
Zn24 O31 1.919 . S
Zn24 O36 1.924 . S
O25 Zn24 1.949 . S
O25 Zn26 1.923 . S
O25 Zn27 1.950 . S
O25 Zn28 1.945 . S
Zn26 O25 1.923 . S
Zn26 O29 1.933 . S
Zn26 O32 1.941 . S
Zn26 O33 1.965 . S
Zn27 O25 1.950 . S
Zn27 O34 1.938 1_554 S
Zn27 O35 1.906 . S
Zn27 O45 1.953 1_554 S
Zn28 O25 1.945 . S
Zn28 O30 1.932 . S
Zn28 O37 1.977 . S
Zn28 O38 1.910 . S
O29 Zn26 1.933 . S
O29 C40 1.226 . S
O30 Zn28 1.932 . S
O30 C40 1.307 . S
O31 Zn24 1.919 . S
O31 C42 1.253 . S
O32 Zn26 1.941 . S
O32 C42 1.283 . S
O33 Zn26 1.965 . S
O33 C41 1.303 1_554 S
O34 Zn27 1.938 1_556 S
O34 C41 1.247 . S
O35 Zn27 1.906 . S
O35 C43 1.304 . S
O36 Zn24 1.924 . S
O36 C44 1.311 1_565 S
O37 Zn28 1.977 . S
O37 C43 1.272 . S
O38 Zn28 1.910 . S
O38 C44 1.231 1_565 S
C39 O23 1.225 . S
C39 O45 1.298 1_554 S
C40 O29 1.226 . S
C40 O30 1.307 . S
C41 O33 1.303 1_556 S
C41 O34 1.247 . S
C42 O31 1.253 . S
C42 O32 1.283 . S
C43 O35 1.304 . S
C43 O37 1.272 . S
C44 O36 1.311 1_545 S
C44 O38 1.231 1_545 S
O45 Zn27 1.953 1_556 S
O45 C39 1.298 1_556 S
O46 Zn47 1.953 . S
O46 C62 1.225 . S
Zn47 O46 1.953 . S
Zn47 O48 1.949 . S
Zn47 O54 1.919 . S
Zn47 O59 1.924 . S
O48 Zn47 1.949 . S
O48 Zn49 1.923 . S
O48 Zn50 1.950 . S
O48 Zn51 1.945 . S
Zn49 O48 1.923 . S
Zn49 O52 1.933 . S
Zn49 O55 1.941 . S
Zn49 O56 1.965 . S
Zn50 O48 1.950 . S
Zn50 O57 1.938 . S
Zn50 O58 1.906 . S
Zn50 O68 1.953 . S
Zn51 O48 1.945 . S
Zn51 O53 1.932 . S
Zn51 O60 1.977 . S
Zn51 O61 1.910 . S
O52 Zn49 1.933 . S
O52 C63 1.226 . S
O53 Zn51 1.932 . S
O53 C63 1.307 . S
O54 Zn47 1.919 . S
O54 C65 1.253 . S
O55 Zn49 1.941 . S
O55 C65 1.283 . S
O56 Zn49 1.965 . S
O56 C64 1.303 . S
O57 Zn50 1.938 . S
O57 C64 1.247 . S
O58 Zn50 1.906 . S
O58 C66 1.304 . S
O59 Zn47 1.924 . S
O59 C67 1.311 . S
O60 Zn51 1.977 . S
O60 C66 1.272 . S
O61 Zn51 1.910 . S
O61 C67 1.231 . S
C62 O46 1.225 . S
C62 O68 1.298 . S
C63 O52 1.226 . S
C63 O53 1.307 . S
C64 O56 1.303 . S
C64 O57 1.247 . S
C65 O54 1.253 . S
C65 O55 1.283 . S
C66 O58 1.304 . S
C66 O60 1.272 . S
C67 O59 1.311 . S
C67 O61 1.231 . S
O68 Zn50 1.953 . S
O68 C62 1.298 . S
O69 Zn70 1.953 . S
O69 C85 1.225 . S
Zn70 O69 1.953 . S
Zn70 O71 1.949 . S
Zn70 O77 1.919 . S
Zn70 O82 1.924 . S
O71 Zn70 1.949 . S
O71 Zn72 1.923 . S
O71 Zn73 1.950 . S
O71 Zn74 1.945 . S
Zn72 O71 1.923 . S
Zn72 O75 1.933 . S
Zn72 O78 1.941 . S
Zn72 O79 1.965 . S
Zn73 O71 1.950 . S
Zn73 O80 1.938 1_556 S
Zn73 O81 1.906 . S
Zn73 O91 1.953 1_556 S
Zn74 O71 1.945 . S
Zn74 O76 1.932 . S
Zn74 O83 1.977 . S
Zn74 O84 1.910 . S
O75 Zn72 1.933 . S
O75 C86 1.226 . S
O76 Zn74 1.932 . S
O76 C86 1.307 . S
O77 Zn70 1.919 . S
O77 C88 1.253 . S
O78 Zn72 1.941 . S
O78 C88 1.283 . S
O79 Zn72 1.965 . S
O79 C87 1.303 1_556 S
O80 Zn73 1.938 1_554 S
O80 C87 1.247 . S
O81 Zn73 1.906 . S
O81 C89 1.304 . S
O82 Zn70 1.924 . S
O82 C90 1.311 1_545 S
O83 Zn74 1.977 . S
O83 C89 1.272 . S
O84 Zn74 1.910 . S
O84 C90 1.231 1_545 S
C85 O69 1.225 . S
C85 O91 1.298 1_556 S
C86 O75 1.226 . S
C86 O76 1.307 . S
C87 O79 1.303 1_554 S
C87 O80 1.247 . S
C88 O77 1.253 . S
C88 O78 1.283 . S
C89 O81 1.304 . S
C89 O83 1.272 . S
C90 O82 1.311 1_565 S
C90 O84 1.231 1_565 S
O91 Zn73 1.953 1_554 S
O91 C85 1.298 1_554 S
C92 C93 1.369 . S
C92 C94 1.419 1_655 S
C92 H96 0.930 1_655 S
C93 C92 1.369 . S
C93 C102 1.429 . S
C94 C92 1.419 1_455 S
C94 C95 1.363 . S
C94 H97 0.929 . S
C95 C94 1.363 . S
C95 C101 1.428 1_455 S
H96 C92 0.930 1_455 S
H97 C94 0.929 . S
S98 N99 1.613 . S
S98 N100 1.610 . S
N99 S98 1.613 . S
N99 C102 1.350 . S
N100 S98 1.610 . S
N100 C101 1.351 . S
C101 C95 1.428 1_655 S
C101 N100 1.351 . S
C101 C102 1.434 . S
C102 C93 1.429 . S
C102 N99 1.350 . S
C102 C101 1.434 . S
C103 C104 1.369 . S
C103 C105 1.419 . S
C103 H107 0.930 . S
C104 C103 1.369 . S
C104 C113 1.429 1_455 S
C105 C103 1.419 . S
C105 C106 1.363 1_455 S
C105 H108 0.929 . S
C106 C105 1.363 1_655 S
C106 C112 1.428 . S
H107 C103 0.930 . S
H108 C105 0.929 . S
S109 N110 1.613 . S
S109 N111 1.610 . S
N110 S109 1.613 . S
N110 C113 1.350 . S
N111 S109 1.610 . S
N111 C112 1.351 . S
C112 C106 1.428 . S
C112 N111 1.351 . S
C112 C113 1.434 . S
C113 C104 1.429 1_655 S
C113 N110 1.350 . S
C113 C112 1.434 . S
C114 C115 1.369 . S
C114 C116 1.419 1_455 S
C114 H118 0.930 1_455 S
C115 C114 1.369 . S
C115 C124 1.429 . S
C116 C114 1.419 1_655 S
C116 C117 1.363 . S
C116 H119 0.929 . S
C117 C116 1.363 . S
C117 C123 1.428 1_655 S
H118 C114 0.930 1_655 S
H119 C116 0.929 . S
S120 N121 1.613 . S
S120 N122 1.610 . S
N121 S120 1.613 . S
N121 C124 1.350 . S
N122 S120 1.610 . S
N122 C123 1.351 . S
C123 C117 1.428 1_455 S
C123 N122 1.351 . S
C123 C124 1.434 . S
C124 C115 1.429 . S
C124 N121 1.350 . S
C124 C123 1.434 . S
C125 C126 1.369 . S
C125 C127 1.419 . S
C125 H129 0.930 . S
C126 C125 1.369 . S
C126 C135 1.429 . S
C127 C125 1.419 . S
C127 C128 1.363 1_655 S
C127 H130 0.929 . S
C128 C127 1.363 1_455 S
C128 C134 1.428 . S
H129 C125 0.930 . S
H130 C127 0.929 . S
S131 N132 1.613 . S
S131 N133 1.610 . S
N132 S131 1.613 . S
N132 C135 1.350 1_455 S
N133 S131 1.610 . S
N133 C134 1.351 . S
C134 C128 1.428 . S
C134 N133 1.351 . S
C134 C135 1.434 1_455 S
C135 C126 1.429 . S
C135 N132 1.350 1_655 S
C135 C134 1.434 1_655 S
C136 C137 1.369 . S
C136 C138 1.419 1_655 S
C136 H140 0.930 . S
C137 C136 1.369 . S
C137 C146 1.429 . S
C138 C136 1.419 1_455 S
C138 C139 1.363 . S
C138 H141 0.929 . S
C139 C138 1.363 . S
C139 C145 1.428 . S
H140 C136 0.930 . S
H141 C138 0.929 . S
S142 N143 1.613 . S
S142 N144 1.610 . S
N143 S142 1.613 . S
N143 C146 1.350 . S
N144 S142 1.610 . S
N144 C145 1.351 1_655 S
C145 C139 1.428 . S
C145 N144 1.351 1_455 S
C145 C146 1.434 1_455 S
C146 C137 1.429 . S
C146 N143 1.350 . S
C146 C145 1.434 1_655 S
C147 C148 1.369 1_554 S
C147 C149 1.419 1_655 S
C147 H151 0.930 . S
C148 C147 1.369 1_556 S
C148 C157 1.429 1_565 S
C149 C147 1.419 1_455 S
C149 C150 1.363 1_565 S
C149 H152 0.929 . S
C150 C149 1.363 1_545 S
C150 C156 1.428 1_554 S
H151 C147 0.930 . S
H152 C149 0.929 . S
S153 N154 1.613 . S
S153 N155 1.610 1_655 S
N154 S153 1.613 . S
N154 C157 1.350 . S
N155 S153 1.610 1_455 S
N155 C156 1.351 . S
C156 C150 1.428 1_556 S
C156 N155 1.351 . S
C156 C157 1.434 1_455 S
C157 C148 1.429 1_545 S
C157 N154 1.350 . S
C157 C156 1.434 1_655 S
C158 C159 1.369 . S
C158 C160 1.419 . S
C158 H162 0.930 . S
C159 C158 1.369 . S
C159 C168 1.429 . S
C160 C158 1.419 . S
C160 C161 1.363 . S
C160 H163 0.929 . S
C161 C160 1.363 . S
C161 C167 1.428 . S
H162 C158 0.930 . S
H163 C160 0.929 . S
S164 N165 1.613 . S
S164 N166 1.610 . S
N165 S164 1.613 . S
N165 C168 1.350 . S
N166 S164 1.610 . S
N166 C167 1.351 . S
C167 C161 1.428 . S
C167 N166 1.351 . S
C167 C168 1.434 . S
C168 C159 1.429 . S
C168 N165 1.350 . S
C168 C167 1.434 . S
C169 C170 1.369 . S
C169 C171 1.419 . S
C169 H173 0.930 . S
C170 C169 1.369 . S
C170 C179 1.429 . S
C171 C169 1.419 . S
C171 C172 1.363 . S
C171 H174 0.929 . S
C172 C171 1.363 . S
C172 C178 1.428 . S
H173 C169 0.930 . S
H174 C171 0.929 . S
S175 N176 1.613 . S
S175 N177 1.610 . S
N176 S175 1.613 . S
N176 C179 1.350 . S
N177 S175 1.610 . S
N177 C178 1.351 . S
C178 C172 1.428 . S
C178 N177 1.351 . S
C178 C179 1.434 . S
C179 C170 1.429 . S
C179 N176 1.350 . S
C179 C178 1.434 . S
C180 C181 1.369 . S
C180 C182 1.419 . S
C180 H184 0.930 . S
C181 C180 1.369 . S
C181 C190 1.429 . S
C182 C180 1.419 . S
C182 C183 1.363 . S
C182 H185 0.929 . S
C183 C182 1.363 . S
C183 C189 1.428 . S
H184 C180 0.930 . S
H185 C182 0.929 . S
S186 N187 1.613 . S
S186 N188 1.610 . S
N187 S186 1.613 . S
N187 C190 1.350 . S
N188 S186 1.610 . S
N188 C189 1.351 . S
C189 C183 1.428 . S
C189 N188 1.351 . S
C189 C190 1.434 . S
C190 C181 1.429 . S
C190 N187 1.350 . S
C190 C189 1.434 . S
C191 C192 1.369 . S
C191 C193 1.419 . S
C191 H195 0.930 . S
C192 C191 1.369 . S
C192 C201 1.429 . S
C193 C191 1.419 . S
C193 C194 1.363 . S
C193 H196 0.929 . S
C194 C193 1.363 . S
C194 C200 1.428 . S
H195 C191 0.930 . S
H196 C193 0.929 . S
S197 N198 1.613 . S
S197 N199 1.610 . S
N198 S197 1.613 . S
N198 C201 1.350 . S
N199 S197 1.610 . S
N199 C200 1.351 . S
C200 C194 1.428 . S
C200 N199 1.351 . S
C200 C201 1.434 . S
C201 C192 1.429 . S
C201 N198 1.350 . S
C201 C200 1.434 . S
C202 C203 1.369 . S
C202 C204 1.419 . S
C202 H206 0.930 . S
C203 C202 1.369 . S
C203 C212 1.429 . S
C204 C202 1.419 . S
C204 C205 1.363 . S
C204 H207 0.929 . S
C205 C204 1.363 . S
C205 C211 1.428 . S
H206 C202 0.930 . S
H207 C204 0.929 . S
S208 N209 1.613 . S
S208 N210 1.610 . S
N209 S208 1.613 . S
N209 C212 1.350 . S
N210 S208 1.610 . S
N210 C211 1.351 . S
C211 C205 1.428 . S
C211 N210 1.351 . S
C211 C212 1.434 . S
C212 C203 1.429 . S
C212 N209 1.350 . S
C212 C211 1.434 . S
C213 C214 1.369 1_554 S
C213 C215 1.419 . S
C213 H217 0.930 . S
C214 C213 1.369 1_556 S
C214 C223 1.429 1_545 S
C215 C213 1.419 . S
C215 C216 1.363 1_545 S
C215 H218 0.929 . S
C216 C215 1.363 1_565 S
C216 C222 1.428 1_554 S
H217 C213 0.930 . S
H218 C215 0.929 . S
S219 N220 1.613 . S
S219 N221 1.610 . S
N220 S219 1.613 . S
N220 C223 1.350 . S
N221 S219 1.610 . S
N221 C222 1.351 . S
C222 C216 1.428 1_556 S
C222 N221 1.351 . S
C222 C223 1.434 . S
C223 C214 1.429 1_565 S
C223 N220 1.350 . S
C223 C222 1.434 . S
C93 C44 1.702 . S
C95 C19 1.637 . S
C104 C21 1.703 . S
C106 C42 1.632 . S
C115 C90 1.704 . S
C117 C65 1.631 . S
C126 C67 1.702 . S
C128 C88 1.635 . S
C137 C62 1.102 . S
C139 C16 1.090 . S
C148 C39 1.103 1_556 S
C150 C85 1.090 1_554 S
C159 C87 1.664 . S
C161 C17 1.651 . S
C170 C40 1.648 . S
C172 C64 1.667 . S
C181 C41 1.661 . S
C183 C63 1.654 . S
C192 C86 1.655 . S
C194 C18 1.662 . S
C203 C20 1.400 . S
C205 C66 1.400 . S
C214 C89 1.400 . S
C216 C43 1.400 . S
