# Generated by pormake.
# Topology smk, (6)-cn, num edge types: 1
# Building blocks:
#     Node 0, Type 0, BuildingBlock: LEVNOQ01_clean_sbu_1, # of connection points: 6
#     Node 1, Type 0, BuildingBlock: LEVNOQ01_clean_sbu_1, # of connection points: 6
#     Node 2, Type 0, BuildingBlock: LEVNOQ01_clean_sbu_1, # of connection points: 6
#     Node 3, Type 0, BuildingBlock: LEVNOQ01_clean_sbu_1, # of connection points: 6
#     Node 4, Type 0, BuildingBlock: LEVNOQ01_clean_sbu_1, # of connection points: 6
#     Node 5, Type 0, BuildingBlock: LEVNOQ01_clean_sbu_1, # of connection points: 6
#     Edge 6, Type (0, 0), None
#     Edge 7, Type (0, 0), None
#     Edge 8, Type (0, 0), None
#     Edge 9, Type (0, 0), None
#     Edge 10, Type (0, 0), None
#     Edge 11, Type (0, 0), None
#     Edge 12, Type (0, 0), None
#     Edge 13, Type (0, 0), None
#     Edge 14, Type (0, 0), None
#     Edge 15, Type (0, 0), None
#     Edge 16, Type (0, 0), None
#     Edge 17, Type (0, 0), None
#     Edge 18, Type (0, 0), None
#     Edge 19, Type (0, 0), None
#     Edge 20, Type (0, 0), None
#     Edge 21, Type (0, 0), None
#     Edge 22, Type (0, 0), None
#     Edge 23, Type (0, 0), None
# Relax obj value: 0.262
# Max RMSD: 0.247
# Mean RMSD: 0.247
data_MOF--net-smk--node1-LEVNOQ01_clean_sbu_1--edge1-none
_symmetry_space_group_name_H-M    P1
_symmetry_Int_Tables_number       1
_symmetry_cell_setting            triclinic
loop_
_symmetry_equiv_pos_as_xyz
'x, y, z'
_cell_length_a     20.205329
_cell_length_b     20.249492
_cell_length_c     7.6630187
_cell_angle_alpha  89.995909
_cell_angle_beta   90.010404
_cell_angle_gamma 119.85328
loop_
_atom_site_label
_atom_site_type_symbol
_atom_site_fract_x
_atom_site_fract_y
_atom_site_fract_z
_atom_type_partial_charge
O0 O 0.31486 0.1 0.9208 0.0
Mg1 Mg 0.29503 0.13361 0.66804 0.0
O2 O 0.43228 0.19157 0.8792 0.0
Mg3 Mg 0.41245 0.18295 0.58417 0.0
O4 O 0.33219 0.24304 0.61133 0.0
O5 O 0.21663 0.1622 0.72338 0.0
O6 O 0.39185 0.17209 0.28073 0.0
O7 O 0.50283 0.30708 0.53219 0.0
Mg8 Mg 0.53943 0.16979 0.33632 0.0
O9 O 0.50147 0.14912 0.57812 0.0
O10 O 0.44423 0.10637 0.17544 0.0
O11 O 0.57155 0.28923 0.32774 0.0
O12 O 0.59185 0.12623 0.50337 0.0
C13 C 0.27116 0.01567 0.49925 0.0
C14 C 0.38102 0.14343 -0.02004 0.0
C15 C 0.26564 0.2289 0.66839 0.0
C16 C 0.40116 0.13484 0.1574 0.0
C17 C 0.55113 0.33193 0.40699 0.0
C18 C 0.56062 0.14543 0.62469 0.0
O19 O 0.24636 0.05888 0.45528 0.0
O20 O 0.33042 0.04464 0.59523 0.0
O21 O 0.19659 0.32582 0.08388 0.0
Mg22 Mg 0.14392 0.30606 0.82937 0.0
O23 O 0.21949 0.44233 0.04425 0.0
Mg24 Mg 0.2088 0.42212 0.74955 0.0
O25 O 0.06857 0.33996 0.77789 0.0
O26 O 0.03821 0.22414 0.88049 0.0
O27 O 0.19945 0.40131 0.4457 0.0
O28 O 0.17243 0.51084 0.69551 0.0
Mg29 Mg 0.34763 0.55017 0.50136 0.0
O30 O 0.3307 0.5121 0.74292 0.0
O31 O 0.31746 0.45555 0.33972 0.0
O32 O 0.25932 0.58128 0.49362 0.0
O33 O 0.44314 0.60347 0.66901 0.0
C34 C 0.24039 0.28487 0.66349 0.0
C35 C 0.21755 0.39138 0.14435 0.0
C36 C 0.018 0.27217 0.83112 0.0
C37 C 0.2462 0.41155 0.32195 0.0
C38 C 0.19593 0.56005 0.57236 0.0
C39 C 0.3928 0.5715 0.79004 0.0
O40 O 0.17329 0.26101 0.61347 0.0
O41 O 0.26851 0.34259 0.76366 0.0
O42 O 0.85173 0.20224 0.25236 0.0
Mg43 Mg 0.81893 0.14944 -0.00129 0.0
O44 O 0.75855 0.22625 0.21164 0.0
Mg45 Mg 0.76754 0.21539 0.91676 0.0
O46 O 0.70948 0.0756 0.94518 0.0
O47 O 0.79336 0.04339 0.05165 0.0
O48 O 0.77865 0.20568 0.6131 0.0
O49 O 0.64255 0.17993 0.86425 0.0
Mg50 Mg 0.77843 0.35391 0.66833 0.0
O51 O 0.79958 0.33742 0.91042 0.0
O52 O 0.84305 0.32341 0.50759 0.0
O53 O 0.65899 0.26628 0.66085 0.0
O54 O 0.82157 0.44992 0.83394 0.0
C55 C 0.93631 0.24504 0.83087 0.0
C56 C 0.80726 0.22373 0.31215 0.0
C57 C 0.72563 0.02435 0.00028 0.0
C58 C 0.81554 0.25224 0.48969 0.0
C59 C 0.61683 0.20336 0.74061 0.0
C60 C 0.80307 0.4001 0.95608 0.0
O61 O 0.8939 0.17735 0.78509 0.0
O62 O 0.90643 0.27395 0.92843 0.0
O63 O 0.62637 0.8587 0.42118 0.0
Mg64 Mg 0.64635 0.82513 0.16861 0.0
O65 O 0.50897 0.76717 0.37903 0.0
Mg66 Mg 0.52883 0.77581 0.0841 0.0
O67 O 0.60908 0.71572 0.11124 0.0
O68 O 0.72448 0.79625 0.2246 0.0
O69 O 0.54941 0.78668 0.78077 0.0
O70 O 0.43843 0.65166 0.03229 0.0
Mg71 Mg 0.40153 0.7887 0.83648 0.0
O72 O 0.43982 0.80965 0.07805 0.0
O73 O 0.49657 0.85195 0.67513 0.0
O74 O 0.36926 0.66922 0.82832 0.0
O75 O 0.34933 0.83244 0.00362 0.0
C76 C 0.67044 0.94309 -0.00034 0.0
C77 C 0.56016 0.81526 0.48 0.0
C78 C 0.6755 0.72968 0.16886 0.0
C79 C 0.53988 0.82375 0.65733 0.0
C80 C 0.38987 0.62666 0.90758 0.0
C81 C 0.38068 0.81331 0.12483 0.0
O82 O 0.69538 0.89994 0.95625 0.0
O83 O 0.61099 0.91412 0.095 0.0
O84 O 0.74477 0.6329 0.58385 0.0
Mg85 Mg 0.79736 0.65267 0.32923 0.0
O86 O 0.72194 0.5164 0.5443 0.0
Mg87 Mg 0.73256 0.53662 0.24963 0.0
O88 O 0.87279 0.61885 0.27797 0.0
O89 O 0.90305 0.73472 0.38002 0.0
O90 O 0.74191 0.55746 0.94579 0.0
O91 O 0.76898 0.44795 0.19553 0.0
Mg92 Mg 0.59377 0.40858 0.0015 0.0
O93 O 0.61066 0.44661 0.2431 0.0
O94 O 0.62393 0.5031 0.83954 0.0
O95 O 0.68189 0.37722 -0.00592 0.0
O96 O 0.49808 0.35542 0.16855 0.0
C97 C 0.7007 0.67367 0.16355 0.0
C98 C 0.72387 0.56735 0.64436 0.0
C99 C 0.92332 0.6867 0.33093 0.0
C100 C 0.69518 0.54717 0.82192 0.0
C101 C 0.74531 0.39852 0.07283 0.0
C102 C 0.54839 0.38728 0.28972 0.0
O103 O 0.76775 0.69752 0.11321 0.0
O104 O 0.67272 0.61603 0.26393 0.0
O105 O 0.08965 0.7566 0.75241 0.0
Mg106 Mg 0.12239 0.80945 0.49885 0.0
O107 O 0.18277 0.73251 0.71154 0.0
Mg108 Mg 0.17379 0.74336 0.41668 0.0
O109 O 0.23185 0.88312 0.44496 0.0
O110 O 0.14822 0.91555 0.5519 0.0
O111 O 0.16269 0.75307 0.11305 0.0
O112 O 0.29879 0.77878 0.36438 0.0
Mg113 Mg 0.16293 0.60485 0.16848 0.0
O114 O 0.14173 0.62132 0.41051 0.0
O115 O 0.0984 0.63536 0.00741 0.0
O116 O 0.28242 0.69241 0.16117 0.0
O117 O 0.11956 0.50871 0.33372 0.0
C118 C 0.00502 0.7139 0.33082 0.0
C119 C 0.1341 0.73505 0.8121 0.0
C120 C 0.21587 0.93445 0.50019 0.0
C121 C 0.12585 0.70652 -0.01041 0.0
C122 C 0.32455 0.75536 0.24085 0.0
C123 C 0.13811 0.55854 0.45587 0.0
O124 O 0.0474 0.78163 0.28533 0.0
O125 O 0.03492 0.68492 0.42815 0.0
loop_
_geom_bond_atom_site_label_1
_geom_bond_atom_site_label_2
_geom_bond_distance
_geom_bond_site_symmetry_2
_ccdc_geom_bond_type
O0 Mg1 1.990 1_554 S
O0 C14 1.254 . S
Mg1 O0 1.990 1_556 S
Mg1 O4 2.180 . S
Mg1 O5 2.117 . S
Mg1 O19 2.030 . S
O2 Mg3 2.072 . S
O2 C14 1.257 1_556 S
Mg3 O2 2.072 . S
Mg3 O4 2.099 . S
Mg3 O6 2.079 . S
Mg3 O7 2.072 . S
Mg3 O9 2.099 . S
Mg3 O20 2.079 . S
O4 Mg1 2.180 . S
O4 Mg3 2.099 . S
O4 C15 1.279 . S
O5 Mg1 2.117 . S
O5 C15 1.250 . S
O6 Mg3 2.079 . S
O6 C16 1.264 . S
O7 Mg3 2.072 . S
O7 C17 1.260 . S
Mg8 O9 2.180 . S
Mg8 O10 2.030 . S
Mg8 O11 1.990 . S
Mg8 O12 2.117 . S
O9 Mg3 2.099 . S
O9 Mg8 2.180 . S
O9 C18 1.279 . S
O10 Mg8 2.030 . S
O10 C16 1.248 . S
O11 Mg8 1.990 . S
O11 C17 1.253 . S
O12 Mg8 2.117 . S
O12 C18 1.250 . S
C13 O19 1.248 . S
C13 O20 1.264 . S
C14 O0 1.254 . S
C14 O2 1.257 1_554 S
C15 O4 1.279 . S
C15 O5 1.250 . S
C16 O6 1.264 . S
C16 O10 1.248 . S
C17 O7 1.260 . S
C17 O11 1.253 . S
C18 O9 1.279 . S
C18 O12 1.250 . S
O19 Mg1 2.030 . S
O19 C13 1.248 . S
O20 Mg3 2.079 . S
O20 C13 1.264 . S
O21 Mg22 1.990 . S
O21 C35 1.253 . S
Mg22 O21 1.990 . S
Mg22 O25 2.180 1_554 S
Mg22 O26 2.117 1_554 S
Mg22 O40 2.030 1_554 S
O23 Mg24 2.072 1_554 S
O23 C35 1.260 . S
Mg24 O23 2.072 1_556 S
Mg24 O25 2.099 . S
Mg24 O27 2.079 . S
Mg24 O28 2.072 . S
Mg24 O30 2.099 . S
Mg24 O41 2.079 . S
O25 Mg22 2.180 1_556 S
O25 Mg24 2.099 . S
O25 C36 1.279 . S
O26 Mg22 2.117 1_556 S
O26 C36 1.250 . S
O27 Mg24 2.079 . S
O27 C37 1.264 . S
O28 Mg24 2.072 . S
O28 C38 1.260 . S
Mg29 O30 2.180 . S
Mg29 O31 2.030 . S
Mg29 O32 1.990 . S
Mg29 O33 2.117 . S
O30 Mg24 2.099 . S
O30 Mg29 2.180 . S
O30 C39 1.279 . S
O31 Mg29 2.030 . S
O31 C37 1.248 . S
O32 Mg29 1.990 . S
O32 C38 1.253 . S
O33 Mg29 2.117 . S
O33 C39 1.250 . S
C34 O40 1.248 . S
C34 O41 1.264 . S
C35 O21 1.253 . S
C35 O23 1.260 . S
C36 O25 1.279 . S
C36 O26 1.250 . S
C37 O27 1.264 . S
C37 O31 1.248 . S
C38 O28 1.260 . S
C38 O32 1.253 . S
C39 O30 1.279 . S
C39 O33 1.250 . S
O40 Mg22 2.030 1_556 S
O40 C34 1.248 . S
O41 Mg24 2.079 . S
O41 C34 1.264 . S
O42 Mg43 1.990 . S
O42 C56 1.253 . S
Mg43 O42 1.990 . S
Mg43 O46 2.180 1_554 S
Mg43 O47 2.117 . S
Mg43 O61 2.030 . S
O44 Mg45 2.072 1_554 S
O44 C56 1.260 . S
Mg45 O44 2.072 1_556 S
Mg45 O46 2.099 . S
Mg45 O48 2.079 . S
Mg45 O49 2.072 . S
Mg45 O51 2.099 . S
Mg45 O62 2.079 . S
O46 Mg43 2.180 1_556 S
O46 Mg45 2.099 . S
O46 C57 1.279 . S
O47 Mg43 2.117 . S
O47 C57 1.250 1_554 S
O48 Mg45 2.079 . S
O48 C58 1.264 . S
O49 Mg45 2.072 . S
O49 C59 1.260 . S
Mg50 O51 2.180 . S
Mg50 O52 2.030 . S
Mg50 O53 1.990 . S
Mg50 O54 2.117 . S
O51 Mg45 2.099 . S
O51 Mg50 2.180 . S
O51 C60 1.279 . S
O52 Mg50 2.030 . S
O52 C58 1.248 . S
O53 Mg50 1.990 . S
O53 C59 1.253 . S
O54 Mg50 2.117 . S
O54 C60 1.250 . S
C55 O61 1.248 . S
C55 O62 1.264 1_554 S
C56 O42 1.253 . S
C56 O44 1.260 . S
C57 O46 1.279 . S
C57 O47 1.250 1_556 S
C58 O48 1.264 . S
C58 O52 1.248 . S
C59 O49 1.260 . S
C59 O53 1.253 . S
C60 O51 1.279 . S
C60 O54 1.250 . S
O61 Mg43 2.030 . S
O61 C55 1.248 . S
O62 Mg45 2.079 . S
O62 C55 1.264 1_556 S
O63 Mg64 1.990 . S
O63 C77 1.253 . S
Mg64 O63 1.990 . S
Mg64 O67 2.180 . S
Mg64 O68 2.117 . S
Mg64 O82 2.030 . S
O65 Mg66 2.072 . S
O65 C77 1.260 . S
Mg66 O65 2.072 . S
Mg66 O67 2.099 . S
Mg66 O69 2.079 1_554 S
Mg66 O70 2.072 . S
Mg66 O72 2.099 . S
Mg66 O83 2.079 . S
O67 Mg64 2.180 . S
O67 Mg66 2.099 . S
O67 C78 1.279 . S
O68 Mg64 2.117 . S
O68 C78 1.250 . S
O69 Mg66 2.079 1_556 S
O69 C79 1.264 . S
O70 Mg66 2.072 . S
O70 C80 1.260 1_554 S
Mg71 O72 2.180 1_556 S
Mg71 O73 2.030 . S
Mg71 O74 1.990 . S
Mg71 O75 2.117 1_556 S
O72 Mg66 2.099 . S
O72 Mg71 2.180 1_554 S
O72 C81 1.279 . S
O73 Mg71 2.030 . S
O73 C79 1.248 . S
O74 Mg71 1.990 . S
O74 C80 1.253 . S
O75 Mg71 2.117 1_554 S
O75 C81 1.250 . S
C76 O82 1.248 . S
C76 O83 1.264 . S
C77 O63 1.253 . S
C77 O65 1.260 . S
C78 O67 1.279 . S
C78 O68 1.250 . S
C79 O69 1.264 . S
C79 O73 1.248 . S
C80 O70 1.260 1_556 S
C80 O74 1.253 . S
C81 O72 1.279 . S
C81 O75 1.250 . S
O82 Mg64 2.030 . S
O82 C76 1.248 . S
O83 Mg66 2.079 . S
O83 C76 1.264 . S
O84 Mg85 1.990 . S
O84 C98 1.253 . S
Mg85 O84 1.990 . S
Mg85 O88 2.180 . S
Mg85 O89 2.117 . S
Mg85 O103 2.030 . S
O86 Mg87 2.072 . S
O86 C98 1.260 . S
Mg87 O86 2.072 . S
Mg87 O88 2.099 . S
Mg87 O90 2.079 1_554 S
Mg87 O91 2.072 . S
Mg87 O93 2.099 . S
Mg87 O104 2.079 . S
O88 Mg85 2.180 . S
O88 Mg87 2.099 . S
O88 C99 1.279 . S
O89 Mg85 2.117 . S
O89 C99 1.250 . S
O90 Mg87 2.079 1_556 S
O90 C100 1.264 . S
O91 Mg87 2.072 . S
O91 C101 1.260 . S
Mg92 O93 2.180 1_556 S
Mg92 O94 2.030 . S
Mg92 O95 1.990 1_556 S
Mg92 O96 2.117 1_556 S
O93 Mg87 2.099 . S
O93 Mg92 2.180 1_554 S
O93 C102 1.279 . S
O94 Mg92 2.030 . S
O94 C100 1.248 . S
O95 Mg92 1.990 1_554 S
O95 C101 1.253 . S
O96 Mg92 2.117 1_554 S
O96 C102 1.250 . S
C97 O103 1.248 . S
C97 O104 1.264 . S
C98 O84 1.253 . S
C98 O86 1.260 . S
C99 O88 1.279 . S
C99 O89 1.250 . S
C100 O90 1.264 . S
C100 O94 1.248 . S
C101 O91 1.260 . S
C101 O95 1.253 . S
C102 O93 1.279 . S
C102 O96 1.250 . S
O103 Mg85 2.030 . S
O103 C97 1.248 . S
O104 Mg87 2.079 . S
O104 C97 1.264 . S
O105 Mg106 1.990 . S
O105 C119 1.253 . S
Mg106 O105 1.990 . S
Mg106 O109 2.180 . S
Mg106 O110 2.117 . S
Mg106 O124 2.030 . S
O107 Mg108 2.072 . S
O107 C119 1.260 . S
Mg108 O107 2.072 . S
Mg108 O109 2.099 . S
Mg108 O111 2.079 . S
Mg108 O112 2.072 . S
Mg108 O114 2.099 . S
Mg108 O125 2.079 . S
O109 Mg106 2.180 . S
O109 Mg108 2.099 . S
O109 C120 1.279 . S
O110 Mg106 2.117 . S
O110 C120 1.250 . S
O111 Mg108 2.079 . S
O111 C121 1.264 1_554 S
O112 Mg108 2.072 . S
O112 C122 1.260 . S
Mg113 O114 2.180 . S
Mg113 O115 2.030 1_554 S
Mg113 O116 1.990 . S
Mg113 O117 2.117 . S
O114 Mg108 2.099 . S
O114 Mg113 2.180 . S
O114 C123 1.279 . S
O115 Mg113 2.030 1_556 S
O115 C121 1.248 . S
O116 Mg113 1.990 . S
O116 C122 1.253 . S
O117 Mg113 2.117 . S
O117 C123 1.250 . S
C118 O124 1.248 . S
C118 O125 1.264 . S
C119 O105 1.253 . S
C119 O107 1.260 . S
C120 O109 1.279 . S
C120 O110 1.250 . S
C121 O111 1.264 1_556 S
C121 O115 1.248 . S
C122 O112 1.260 . S
C122 O116 1.253 . S
C123 O114 1.279 . S
C123 O117 1.250 . S
O124 Mg106 2.030 . S
O124 C118 1.248 . S
O125 Mg108 2.079 . S
O125 C118 1.264 . S
C16 C14 1.214 . S
C37 C35 1.212 . S
C56 C58 1.212 . S
C77 C79 1.212 . S
C98 C100 1.212 . S
C121 C119 1.212 . S
C13 C120 2.034 1_545 S
C15 C34 2.034 . S
C55 C36 2.034 1_654 S
C76 C57 2.034 1_564 S
C97 C78 2.034 . S
C99 C118 2.034 1_655 S
C17 C102 1.731 . S
C38 C123 1.731 . S
C59 C18 1.731 . S
C80 C39 1.731 . S
C101 C60 1.731 1_554 S
C81 C122 1.731 . S
