# Generated by pormake.
# Topology kag, (6)-cn, num edge types: 1
# Building blocks:
#     Node 0, Type 0, BuildingBlock: CIFDUS_clean_sbu_1, # of connection points: 6
#     Node 1, Type 0, BuildingBlock: CIFDUS_clean_sbu_1, # of connection points: 6
#     Node 2, Type 0, BuildingBlock: CIFDUS_clean_sbu_1, # of connection points: 6
#     Edge 3, Type (0, 0), BuildingBlock: AJUNOK_clean_linker_0, # of connection points: 2
#     Edge 4, Type (0, 0), BuildingBlock: AJUNOK_clean_linker_0, # of connection points: 2
#     Edge 5, Type (0, 0), BuildingBlock: AJUNOK_clean_linker_0, # of connection points: 2
#     Edge 6, Type (0, 0), BuildingBlock: AJUNOK_clean_linker_0, # of connection points: 2
#     Edge 7, Type (0, 0), BuildingBlock: AJUNOK_clean_linker_0, # of connection points: 2
#     Edge 8, Type (0, 0), BuildingBlock: AJUNOK_clean_linker_0, # of connection points: 2
#     Edge 9, Type (0, 0), BuildingBlock: AJUNOK_clean_linker_0, # of connection points: 2
#     Edge 10, Type (0, 0), BuildingBlock: AJUNOK_clean_linker_0, # of connection points: 2
#     Edge 11, Type (0, 0), BuildingBlock: AJUNOK_clean_linker_0, # of connection points: 2
# Relax obj value: 0.123
# Max RMSD: 0.164
# Mean RMSD: 0.158
data_MOF--net-kag--node1-CIFDUS_clean_sbu_1--edge1-AJUNOK_clean_linker_0
_symmetry_space_group_name_H-M    P1
_symmetry_Int_Tables_number       1
_symmetry_cell_setting            triclinic
loop_
_symmetry_equiv_pos_as_xyz
'x, y, z'
_cell_length_a     22.999313
_cell_length_b     22.841894
_cell_length_c     11.653429
_cell_angle_alpha  89.804152
_cell_angle_beta   105.08535
_cell_angle_gamma 119.56582
loop_
_atom_site_label
_atom_site_type_symbol
_atom_site_fract_x
_atom_site_fract_y
_atom_site_fract_z
_atom_type_partial_charge
O0 O 0.11871 0.46798 0.0121 0.0
Mn1 Mn 0.05455 0.50751 0.02282 0.0
O2 O 0.2155 0.54974 0.13974 0.0
Mn3 Mn 0.16802 0.57667 0.21064 0.0
O4 O 0.99115 0.54753 0.03754 0.0
O5 O 0.02713 0.499 0.83264 0.0
Mn6 Mn 0.93784 0.44479 0.82561 0.0
O7 O 0.97614 0.40617 0.03626 0.0
O8 O 0.89488 0.47924 0.89158 0.0
O9 O 0.13199 0.60877 1.00674 0.0
O10 O 0.17492 0.65809 0.19088 0.0
O11 O 0.92704 0.45496 0.6753 0.0
O12 O 0.92056 0.36021 0.84857 0.0
C13 C 0.11934 0.52957 0.32828 0.0
C14 C 0.18434 0.49586 0.06541 0.0
C15 C 0.92772 0.5275 0.97789 0.0
C16 C 0.99483 0.48794 0.71539 0.0
C17 C 0.93249 0.35303 0.95686 0.0
C18 C 0.16763 0.66391 0.08274 0.0
O19 O 0.08206 0.51571 0.2132 0.0
O20 O 0.18686 0.56801 0.36128 0.0
O21 O 0.65667 0.07427 0.01682 0.0
Mn22 Mn 0.55473 0.00355 0.02655 0.0
O23 O 0.71495 0.14288 0.18967 0.0
Mn24 Mn 0.63018 0.12622 0.19854 0.0
O25 O 0.45268 0.93337 0.03693 0.0
O26 O 0.53802 0.96891 0.84549 0.0
Mn27 Mn 0.47556 0.88347 0.85338 0.0
O28 O 0.5896 0.93724 0.0924 0.0
O29 O 0.39266 0.87385 0.85711 0.0
O30 O 0.5182 0.0684 0.95893 0.0
O31 O 0.58819 0.16343 0.09194 0.0
O32 O 0.48144 0.87343 0.708 0.0
O33 O 0.51072 0.84223 0.96301 0.0
C34 C 0.58741 0.0677 0.31865 0.0
C35 C 0.71434 0.12159 0.0898 0.0
C36 C 0.39374 0.89136 0.95997 0.0
C37 C 0.52285 0.93883 0.7355 0.0
C38 C 0.56128 0.87336 0.05802 0.0
C39 C 0.54002 0.13065 0.99488 0.0
O40 O 0.57275 0.03906 0.20772 0.0
O41 O 0.62549 0.1334 0.34594 0.0
O42 O 0.51824 0.40077 0.95931 0.0
Mn43 Mn 0.55197 0.50155 0.02813 0.0
O44 O 0.56485 0.36155 0.11024 0.0
Mn45 Mn 0.6192 0.44415 0.20598 0.0
O46 O 0.58498 0.60185 0.09598 0.0
O47 O 0.53292 0.51835 0.84761 0.0
Mn48 Mn 0.47869 0.55246 0.85119 0.0
O49 O 0.44947 0.4686 0.03598 0.0
O50 O 0.52589 0.63361 0.95077 0.0
O51 O 0.65545 0.53506 0.02357 0.0
O52 O 0.70353 0.50163 0.18153 0.0
O53 O 0.48154 0.55852 0.7017 0.0
O54 O 0.39437 0.48872 0.86844 0.0
C55 C 0.58292 0.47444 0.32126 0.0
C56 C 0.52623 0.35298 1.00483 0.0
C57 C 0.56919 0.64569 0.05294 0.0
C58 C 0.51917 0.53049 0.73523 0.0
C59 C 0.39338 0.46256 0.96386 0.0
C60 C 0.70851 0.53392 0.09283 0.0
O61 O 0.57091 0.48497 0.20792 0.0
O62 O 0.61802 0.44417 0.35755 0.0
C63 C 0.99186 0.49685 0.50186 0.0
C64 C 0.03133 0.50428 0.62215 0.0
C65 C 0.01869 0.50046 0.40585 0.0
C66 C 0.08658 0.51254 0.42612 0.0
H67 H 0.93897 0.48749 0.48066 0.0
H68 H 0.98675 0.49594 0.31588 0.0
S69 S 0.2139 0.54022 0.72295 0.0
N70 N 0.14323 0.52751 0.75568 0.0
N71 N 0.19382 0.53305 0.57523 0.0
C72 C 0.12707 0.52053 0.5458 0.0
C73 C 0.09976 0.51736 0.64388 0.0
C74 C 0.55573 0.0624 0.50929 0.0
C75 C 0.56509 0.03003 0.41793 0.0
C76 C 0.54702 0.03567 0.61649 0.0
C77 C 0.5474 0.97541 0.63682 0.0
H78 H 0.55576 0.10954 0.49831 0.0
H79 H 0.53781 0.06119 0.68188 0.0
S80 S 0.57672 0.87436 0.43332 0.0
N81 N 0.57799 0.93651 0.35919 0.0
N82 N 0.56229 0.88618 0.56037 0.0
C83 C 0.55808 0.94324 0.54744 0.0
C84 C 0.56633 0.97023 0.43793 0.0
C85 C 0.60331 0.5538 0.62008 0.0
C86 C 0.53868 0.50974 0.63926 0.0
C87 C 0.61492 0.54611 0.50991 0.0
C88 C 0.56149 0.49607 0.41341 0.0
H89 H 0.6445 0.59547 0.6894 0.0
H90 H 0.6668 0.57848 0.50099 0.0
S91 S 0.38078 0.37226 0.41573 0.0
N92 N 0.41948 0.41707 0.55164 0.0
N93 N 0.44075 0.40312 0.344 0.0
C94 C 0.49601 0.4531 0.4306 0.0
C95 C 0.48478 0.46001 0.54346 0.0
C96 C 0.29084 0.48654 0.138 0.0
C97 C 0.22728 0.46681 0.04772 0.0
C98 C 0.34182 0.47501 0.11692 0.0
C99 C 0.3314 0.44394 1.00409 0.0
H100 H 0.30362 0.51541 0.22348 0.0
H101 H 0.39238 0.49744 0.18466 0.0
S102 S 0.16732 0.36479 0.75048 0.0
N103 N 0.15092 0.40047 0.85156 0.0
N104 N 0.24801 0.38059 0.81055 0.0
C105 C 0.26473 0.41569 0.91927 0.0
C106 C 0.21225 0.42672 0.94125 0.0
C107 C 0.84152 0.20926 0.13053 0.0
C108 C 0.77482 0.16741 0.04671 0.0
C109 C 0.89399 0.2679 0.10094 0.0
C110 C 0.88175 0.28665 0.98606 0.0
H111 H 0.85176 0.19886 0.22213 0.0
H112 H 0.94323 0.29998 0.16962 0.0
S113 S 0.71604 0.19325 0.733 0.0
N114 N 0.70067 0.14785 0.84319 0.0
N115 N 0.79741 0.25657 0.78662 0.0
C116 C 0.81623 0.24283 0.89959 0.0
C117 C 0.76339 0.18344 0.92984 0.0
C118 C 0.64241 0.82997 0.09629 0.0
C119 C 0.58701 0.83161 0.12294 0.0
C120 C 0.64525 0.7699 0.09613 0.0
C121 C 0.59338 0.71044 0.12435 0.0
H122 H 0.67759 0.87166 0.0587 0.0
H123 H 0.68212 0.76732 0.05743 0.0
S124 S 0.44317 0.69155 0.21545 0.0
N125 N 0.48326 0.77088 0.18879 0.0
N126 N 0.49108 0.65971 0.19514 0.0
C127 C 0.54388 0.71472 0.16759 0.0
C128 C 0.5398 0.77495 0.16461 0.0
C129 C 0.89049 0.56884 0.12821 0.0
C130 C 0.88772 0.55657 1.00865 0.0
C131 C 0.83544 0.57121 0.15477 0.0
C132 C 0.77539 0.56015 0.06288 0.0
H133 H 0.93142 0.56974 0.20117 0.0
H134 H 0.83674 0.57487 0.24819 0.0
S135 S 0.75398 0.54473 0.73594 0.0
N136 N 0.8295 0.54945 0.79861 0.0
N137 N 0.72439 0.55028 0.84796 0.0
C138 C 0.77722 0.55752 0.94362 0.0
C139 C 0.83387 0.55643 0.91686 0.0
C140 C 0.21231 0.74474 0.93703 0.0
C141 C 0.21934 0.73001 0.05508 0.0
C142 C 0.26666 0.80213 0.90921 0.0
C143 C 0.33075 0.84622 0.99782 0.0
H144 H 0.16583 0.71034 0.86496 0.0
H145 H 0.26012 0.80944 0.81581 0.0
S146 S 0.37383 0.8332 0.32302 0.0
N147 N 0.294 0.76798 0.26383 0.0
N148 N 0.39551 0.87375 0.21004 0.0
C149 C 0.33649 0.8347 0.11748 0.0
C150 C 0.28111 0.77694 0.14627 0.0
C151 C 0.54269 0.281 0.87791 0.0
C152 C 0.4981 0.28682 0.93385 0.0
C153 C 0.54749 0.22207 0.87736 0.0
C154 C 0.50702 0.16712 0.93099 0.0
H155 H 0.58179 0.32568 0.85195 0.0
H156 H 0.58981 0.22347 0.8504 0.0
S157 S 0.37299 0.15258 0.06728 0.0
N158 N 0.40531 0.2291 0.02651 0.0
N159 N 0.41343 0.11794 0.02342 0.0
C160 C 0.45492 0.16849 0.97005 0.0
C161 C 0.45051 0.22861 0.97164 0.0
loop_
_geom_bond_atom_site_label_1
_geom_bond_atom_site_label_2
_geom_bond_distance
_geom_bond_site_symmetry_2
_ccdc_geom_bond_type
O0 Mn1 2.163 1_556 S
O0 C14 1.244 1_556 S
Mn1 O0 2.163 1_554 S
Mn1 O4 2.160 1_455 S
Mn1 O5 2.221 1_554 S
Mn1 O7 2.163 1_455 S
Mn1 O9 2.160 . S
Mn1 O19 2.221 . S
O2 Mn3 2.087 . S
O2 C14 1.256 . S
Mn3 O2 2.087 . S
Mn3 O10 2.089 . S
Mn3 O19 2.290 . S
Mn3 O20 2.251 . S
O4 Mn1 2.160 1_655 S
O4 C15 1.239 1_554 S
O5 Mn1 2.221 1_556 S
O5 Mn6 2.290 1_455 S
O5 C16 1.278 . S
Mn6 O5 2.290 1_655 S
Mn6 O8 2.089 . S
Mn6 O11 2.251 . S
Mn6 O12 2.087 . S
O7 Mn1 2.163 1_655 S
O7 C17 1.244 1_554 S
O8 Mn6 2.089 . S
O8 C15 1.256 . S
O9 Mn1 2.160 . S
O9 C18 1.239 . S
O10 Mn3 2.089 . S
O10 C18 1.256 . S
O11 Mn6 2.251 . S
O11 C16 1.241 1_655 S
O12 Mn6 2.087 . S
O12 C17 1.256 . S
C13 O19 1.278 . S
C13 O20 1.241 . S
C14 O0 1.244 1_554 S
C14 O2 1.256 . S
C15 O4 1.239 1_556 S
C15 O8 1.256 . S
C16 O5 1.278 . S
C16 O11 1.241 1_455 S
C17 O7 1.244 1_556 S
C17 O12 1.256 . S
C18 O9 1.239 . S
C18 O10 1.256 . S
O19 Mn1 2.221 . S
O19 Mn3 2.290 . S
O19 C13 1.278 . S
O20 Mn3 2.251 . S
O20 C13 1.241 . S
O21 Mn22 2.163 1_556 S
O21 C35 1.244 1_556 S
Mn22 O21 2.163 1_554 S
Mn22 O25 2.160 1_545 S
Mn22 O26 2.221 1_544 S
Mn22 O28 2.163 1_545 S
Mn22 O30 2.160 1_554 S
Mn22 O40 2.221 . S
O23 Mn24 2.087 . S
O23 C35 1.256 . S
Mn24 O23 2.087 . S
Mn24 O31 2.089 . S
Mn24 O40 2.290 . S
Mn24 O41 2.251 . S
O25 Mn22 2.160 1_565 S
O25 C36 1.239 1_554 S
O26 Mn22 2.221 1_566 S
O26 Mn27 2.290 . S
O26 C37 1.278 . S
Mn27 O26 2.290 . S
Mn27 O29 2.089 . S
Mn27 O32 2.251 . S
Mn27 O33 2.087 . S
O28 Mn22 2.163 1_565 S
O28 C38 1.244 . S
O29 Mn27 2.089 . S
O29 C36 1.256 . S
O30 Mn22 2.160 1_556 S
O30 C39 1.239 1_556 S
O31 Mn24 2.089 . S
O31 C39 1.256 . S
O32 Mn27 2.251 . S
O32 C37 1.241 . S
O33 Mn27 2.087 . S
O33 C38 1.256 1_556 S
C34 O40 1.278 . S
C34 O41 1.241 . S
C35 O21 1.244 1_554 S
C35 O23 1.256 . S
C36 O25 1.239 1_556 S
C36 O29 1.256 . S
C37 O26 1.278 . S
C37 O32 1.241 . S
C38 O28 1.244 . S
C38 O33 1.256 1_554 S
C39 O30 1.239 1_554 S
C39 O31 1.256 . S
O40 Mn22 2.221 . S
O40 Mn24 2.290 . S
O40 C34 1.278 . S
O41 Mn24 2.251 . S
O41 C34 1.241 . S
O42 Mn43 2.163 1_556 S
O42 C56 1.244 1_556 S
Mn43 O42 2.163 1_554 S
Mn43 O46 2.160 . S
Mn43 O47 2.221 1_554 S
Mn43 O49 2.163 . S
Mn43 O51 2.160 . S
Mn43 O61 2.221 . S
O44 Mn45 2.087 . S
O44 C56 1.256 . S
Mn45 O44 2.087 . S
Mn45 O52 2.089 . S
Mn45 O61 2.290 . S
Mn45 O62 2.251 . S
O46 Mn43 2.160 . S
O46 C57 1.239 . S
O47 Mn43 2.221 1_556 S
O47 Mn48 2.290 . S
O47 C58 1.278 . S
Mn48 O47 2.290 . S
Mn48 O50 2.089 . S
Mn48 O53 2.251 . S
Mn48 O54 2.087 . S
O49 Mn43 2.163 . S
O49 C59 1.244 1_554 S
O50 Mn48 2.089 . S
O50 C57 1.256 1_556 S
O51 Mn43 2.160 . S
O51 C60 1.239 . S
O52 Mn45 2.089 . S
O52 C60 1.256 . S
O53 Mn48 2.251 . S
O53 C58 1.241 . S
O54 Mn48 2.087 . S
O54 C59 1.256 . S
C55 O61 1.278 . S
C55 O62 1.241 . S
C56 O42 1.244 1_554 S
C56 O44 1.256 . S
C57 O46 1.239 . S
C57 O50 1.256 1_554 S
C58 O47 1.278 . S
C58 O53 1.241 . S
C59 O49 1.244 1_556 S
C59 O54 1.256 . S
C60 O51 1.239 . S
C60 O52 1.256 . S
O61 Mn43 2.221 . S
O61 Mn45 2.290 . S
O61 C55 1.278 . S
O62 Mn45 2.251 . S
O62 C55 1.241 . S
C63 C64 1.369 1_655 S
C63 C65 1.419 . S
C63 H67 0.930 . S
C64 C63 1.369 1_455 S
C64 C73 1.429 . S
C65 C63 1.419 . S
C65 C66 1.363 1_655 S
C65 H68 0.929 . S
C66 C65 1.363 1_455 S
C66 C72 1.428 . S
H67 C63 0.930 . S
H68 C65 0.929 . S
S69 N70 1.613 . S
S69 N71 1.610 . S
N70 S69 1.613 . S
N70 C73 1.350 . S
N71 S69 1.610 . S
N71 C72 1.351 . S
C72 C66 1.428 . S
C72 N71 1.351 . S
C72 C73 1.434 . S
C73 C64 1.429 . S
C73 N70 1.350 . S
C73 C72 1.434 . S
C74 C75 1.369 . S
C74 C76 1.419 . S
C74 H78 0.930 . S
C75 C74 1.369 . S
C75 C84 1.429 1_545 S
C76 C74 1.419 . S
C76 C77 1.363 . S
C76 H79 0.929 . S
C77 C76 1.363 . S
C77 C83 1.428 1_545 S
H78 C74 0.930 . S
H79 C76 0.929 . S
S80 N81 1.613 . S
S80 N82 1.610 . S
N81 S80 1.613 . S
N81 C84 1.350 . S
N82 S80 1.610 . S
N82 C83 1.351 . S
C83 C77 1.428 1_565 S
C83 N82 1.351 . S
C83 C84 1.434 . S
C84 C75 1.429 1_565 S
C84 N81 1.350 . S
C84 C83 1.434 . S
C85 C86 1.369 . S
C85 C87 1.419 . S
C85 H89 0.930 . S
C86 C85 1.369 . S
C86 C95 1.429 . S
C87 C85 1.419 . S
C87 C88 1.363 . S
C87 H90 0.929 . S
C88 C87 1.363 . S
C88 C94 1.428 . S
H89 C85 0.930 . S
H90 C87 0.929 . S
S91 N92 1.613 . S
S91 N93 1.610 . S
N92 S91 1.613 . S
N92 C95 1.350 . S
N93 S91 1.610 . S
N93 C94 1.351 . S
C94 C88 1.428 . S
C94 N93 1.351 . S
C94 C95 1.434 . S
C95 C86 1.429 . S
C95 N92 1.350 . S
C95 C94 1.434 . S
C96 C97 1.369 . S
C96 C98 1.419 . S
C96 H100 0.930 . S
C97 C96 1.369 . S
C97 C106 1.429 1_554 S
C98 C96 1.419 . S
C98 C99 1.363 . S
C98 H101 0.929 . S
C99 C98 1.363 . S
C99 C105 1.428 1_554 S
H100 C96 0.930 . S
H101 C98 0.929 . S
S102 N103 1.613 . S
S102 N104 1.610 . S
N103 S102 1.613 . S
N103 C106 1.350 . S
N104 S102 1.610 . S
N104 C105 1.351 . S
C105 C99 1.428 1_556 S
C105 N104 1.351 . S
C105 C106 1.434 . S
C106 C97 1.429 1_556 S
C106 N103 1.350 . S
C106 C105 1.434 . S
C107 C108 1.369 . S
C107 C109 1.419 . S
C107 H111 0.930 . S
C108 C107 1.369 . S
C108 C117 1.429 1_554 S
C109 C107 1.419 . S
C109 C110 1.363 . S
C109 H112 0.929 . S
C110 C109 1.363 . S
C110 C116 1.428 1_554 S
H111 C107 0.930 . S
H112 C109 0.929 . S
S113 N114 1.613 . S
S113 N115 1.610 . S
N114 S113 1.613 . S
N114 C117 1.350 . S
N115 S113 1.610 . S
N115 C116 1.351 . S
C116 C110 1.428 1_556 S
C116 N115 1.351 . S
C116 C117 1.434 . S
C117 C108 1.429 1_556 S
C117 N114 1.350 . S
C117 C116 1.434 . S
C118 C119 1.369 . S
C118 C120 1.419 . S
C118 H122 0.930 . S
C119 C118 1.369 . S
C119 C128 1.429 . S
C120 C118 1.419 . S
C120 C121 1.363 . S
C120 H123 0.929 . S
C121 C120 1.363 . S
C121 C127 1.428 . S
H122 C118 0.930 . S
H123 C120 0.929 . S
S124 N125 1.613 . S
S124 N126 1.610 . S
N125 S124 1.613 . S
N125 C128 1.350 . S
N126 S124 1.610 . S
N126 C127 1.351 . S
C127 C121 1.428 . S
C127 N126 1.351 . S
C127 C128 1.434 . S
C128 C119 1.429 . S
C128 N125 1.350 . S
C128 C127 1.434 . S
C129 C130 1.369 . S
C129 C131 1.419 . S
C129 H133 0.930 . S
C130 C129 1.369 . S
C130 C139 1.429 1_554 S
C131 C129 1.419 . S
C131 C132 1.363 . S
C131 H134 0.929 . S
C132 C131 1.363 . S
C132 C138 1.428 1_554 S
H133 C129 0.930 . S
H134 C131 0.929 . S
S135 N136 1.613 . S
S135 N137 1.610 . S
N136 S135 1.613 . S
N136 C139 1.350 . S
N137 S135 1.610 . S
N137 C138 1.351 . S
C138 C132 1.428 1_556 S
C138 N137 1.351 . S
C138 C139 1.434 . S
C139 C130 1.429 1_556 S
C139 N136 1.350 . S
C139 C138 1.434 . S
C140 C141 1.369 1_556 S
C140 C142 1.419 . S
C140 H144 0.930 . S
C141 C140 1.369 1_554 S
C141 C150 1.429 . S
C142 C140 1.419 . S
C142 C143 1.363 1_556 S
C142 H145 0.929 . S
C143 C142 1.363 1_554 S
C143 C149 1.428 . S
H144 C140 0.930 . S
H145 C142 0.929 . S
S146 N147 1.613 . S
S146 N148 1.610 . S
N147 S146 1.613 . S
N147 C150 1.350 . S
N148 S146 1.610 . S
N148 C149 1.351 . S
C149 C143 1.428 . S
C149 N148 1.351 . S
C149 C150 1.434 . S
C150 C141 1.429 . S
C150 N147 1.350 . S
C150 C149 1.434 . S
C151 C152 1.369 . S
C151 C153 1.419 . S
C151 H155 0.930 . S
C152 C151 1.369 . S
C152 C161 1.429 1_556 S
C153 C151 1.419 . S
C153 C154 1.363 . S
C153 H156 0.929 . S
C154 C153 1.363 . S
C154 C160 1.428 1_556 S
H155 C151 0.930 . S
H156 C153 0.929 . S
S157 N158 1.613 . S
S157 N159 1.610 . S
N158 S157 1.613 . S
N158 C161 1.350 . S
N159 S157 1.610 . S
N159 C160 1.351 . S
C160 C154 1.428 1_554 S
C160 N159 1.351 . S
C160 C161 1.434 . S
C161 C152 1.429 1_554 S
C161 N158 1.350 . S
C161 C160 1.434 . S
C64 C16 1.307 . S
C66 C13 1.292 . S
C75 C34 1.279 . S
C77 C37 1.264 1_545 S
C86 C58 1.273 . S
C88 C55 1.269 . S
C97 C14 1.255 . S
C99 C59 1.251 1_554 S
C108 C35 1.253 . S
C110 C17 1.247 1_554 S
C119 C38 1.224 . S
C121 C57 1.232 . S
C130 C15 1.219 1_554 S
C132 C60 1.223 . S
C141 C18 1.213 . S
C143 C36 1.216 1_554 S
C152 C56 1.223 1_556 S
C154 C39 1.234 1_556 S
