# Generated by pormake.
# Topology qtz-x, (6)-cn, num edge types: 1
# Building blocks:
#     Node 0, Type 0, BuildingBlock: JUFBIX_clean_sbu_0, # of connection points: 6
#     Node 1, Type 0, BuildingBlock: JUFBIX_clean_sbu_0, # of connection points: 6
#     Node 2, Type 0, BuildingBlock: JUFBIX_clean_sbu_0, # of connection points: 6
#     Edge 3, Type (0, 0), BuildingBlock: EZIPEK_clean_linker_0, # of connection points: 2
#     Edge 4, Type (0, 0), BuildingBlock: EZIPEK_clean_linker_0, # of connection points: 2
#     Edge 5, Type (0, 0), BuildingBlock: EZIPEK_clean_linker_0, # of connection points: 2
#     Edge 6, Type (0, 0), BuildingBlock: EZIPEK_clean_linker_0, # of connection points: 2
#     Edge 7, Type (0, 0), BuildingBlock: EZIPEK_clean_linker_0, # of connection points: 2
#     Edge 8, Type (0, 0), BuildingBlock: EZIPEK_clean_linker_0, # of connection points: 2
#     Edge 9, Type (0, 0), BuildingBlock: EZIPEK_clean_linker_0, # of connection points: 2
#     Edge 10, Type (0, 0), BuildingBlock: EZIPEK_clean_linker_0, # of connection points: 2
#     Edge 11, Type (0, 0), BuildingBlock: EZIPEK_clean_linker_0, # of connection points: 2
# Relax obj value: 0.506
# Max RMSD: 0.298
# Mean RMSD: 0.298
data_MOF--net-qtz-x--node1-JUFBIX_clean_sbu_0--edge1-EZIPEK_clean_linker_0
_symmetry_space_group_name_H-M    P1
_symmetry_Int_Tables_number       1
_symmetry_cell_setting            triclinic
loop_
_symmetry_equiv_pos_as_xyz
'x, y, z'
_cell_length_a     10.995324
_cell_length_b     11.04114
_cell_length_c     33.192094
_cell_angle_alpha  89.919071
_cell_angle_beta   90.05057
_cell_angle_gamma 120.12217
loop_
_atom_site_label
_atom_site_type_symbol
_atom_site_fract_x
_atom_site_fract_y
_atom_site_fract_z
_atom_type_partial_charge
Co0 Co 0.17393 0.52706 0.1527 0.0
C1 C 0.06888 0.70994 0.16614 0.0
Co2 Co 0.96012 0.42411 0.17878 0.0
C3 C 0.36294 0.57335 0.08771 0.0
C4 C 0.43505 0.75415 0.12515 0.0
N5 N 0.34103 0.61564 0.12373 0.0
N6 N 0.45929 0.68143 0.06539 0.0
C7 C 0.50533 0.79529 0.08902 0.0
H8 H 0.29642 0.46904 0.07588 0.0
H9 H 0.43995 0.82396 0.14874 0.0
C10 C 0.06374 0.24005 0.16495 0.0
N11 N 0.79354 0.34185 0.20815 0.0
C12 C 0.78138 0.37147 0.24693 0.0
C13 C 0.66971 0.22642 0.19955 0.0
N14 N 0.65885 0.27555 0.26356 0.0
C15 C 0.5867 0.18532 0.23366 0.0
C16 C 0.93969 0.41423 0.09855 0.0
O17 O 0.17343 0.35197 0.15333 0.0
O18 O 0.95708 0.24797 0.17627 0.0
O19 O 0.86116 0.38105 0.12937 0.0
O20 O 0.07229 0.47618 0.10285 0.0
O21 O 0.96344 0.60044 0.18036 0.0
H22 H 0.64591 0.16919 0.17149 0.0
H23 H 0.86609 0.4534 0.26424 0.0
O24 O 0.17194 0.70034 0.15294 0.0
O25 O 0.27368 0.57683 0.20207 0.0
O26 O 0.06228 0.46659 0.22818 0.0
C27 C 0.19454 0.53341 0.23279 0.0
H28 H 0.57632 0.90211 0.07962 0.0
H29 H 0.4866 0.09039 0.23703 0.0
Co30 Co 0.44285 0.90721 0.48609 0.0
C31 C 0.73081 1.01017 0.49873 0.0
Co32 Co 0.55579 0.12105 0.51156 0.0
C33 C 0.30411 0.71789 0.42094 0.0
C34 C 0.39649 0.63886 0.46245 0.0
N35 N 0.3615 0.73915 0.45803 0.0
N36 N 0.31069 0.61479 0.401 0.0
C37 C 0.36787 0.56414 0.42717 0.0
H38 H 0.27627 0.78898 0.40671 0.0
H39 H 0.45566 0.63219 0.48757 0.0
C40 C 0.26808 1.01898 0.49874 0.0
N41 N 0.64391 0.28809 0.54024 0.0
C42 C 0.69008 0.30148 0.57862 0.0
C43 C 0.65247 0.41155 0.53165 0.0
N44 N 0.71926 0.42434 0.59513 0.0
C45 C 0.69868 0.49555 0.56546 0.0
C46 C 0.56324 0.13886 0.43113 0.0
O47 O 0.26971 0.91037 0.4863 0.0
O48 O 0.38304 0.12462 0.51028 0.0
O49 O 0.6078 0.21786 0.46178 0.0
O50 O 0.49481 1.00676 0.43578 0.0
O51 O 0.72833 0.11707 0.5119 0.0
H52 H 0.61621 0.43451 0.50393 0.0
H53 H 0.68834 0.21742 0.59588 0.0
O54 O 0.61658 0.90604 0.48679 0.0
O55 O 0.39217 0.81005 0.53582 0.0
O56 O 0.50006 1.02107 0.5615 0.0
C57 C 0.43228 0.88943 0.56639 0.0
H58 H 0.39904 0.48801 0.42 0.0
H59 H 0.70475 0.59564 0.56892 0.0
Co60 Co 0.57307 0.635 0.81837 0.0
C61 C 0.3915 0.34687 0.83108 0.0
Co62 Co 0.67757 0.52501 0.84349 0.0
C63 C 0.51767 0.77087 0.75337 0.0
C64 C 0.34723 0.67799 0.79537 0.0
N65 N 0.48277 0.71268 0.79037 0.0
N66 N 0.40712 0.76607 0.73414 0.0
C67 C 0.29988 0.70849 0.76058 0.0
H68 H 0.61648 0.7992 0.73876 0.0
H69 H 0.28228 0.61892 0.82064 0.0
C70 C 0.85959 0.81281 0.8308 0.0
N71 N 0.76177 0.44308 0.8727 0.0
C72 C 0.72365 0.39084 0.91038 0.0
C73 C 0.89236 0.4632 0.86789 0.0
N74 N 0.82764 0.38502 0.93007 0.0
C75 C 0.93345 0.42863 0.9033 0.0
C76 C 0.68784 0.51887 0.76318 0.0
O77 O 0.74854 0.80967 0.81793 0.0
O78 O 0.85134 0.69948 0.84288 0.0
O79 O 0.72666 0.47716 0.79367 0.0
O80 O 0.62054 0.58352 0.76818 0.0
O81 O 0.50328 0.35033 0.84303 0.0
H82 H 0.95953 0.5157 0.84234 0.0
H83 H 0.62907 0.37502 0.92516 0.0
O84 O 0.39947 0.46045 0.81983 0.0
O85 O 0.52561 0.68437 0.86785 0.0
O86 O 0.62827 0.57565 0.89349 0.0
C87 C 0.56303 0.642 0.89833 0.0
H88 H 0.19222 0.67902 0.75393 0.0
H89 H 0.03821 0.45009 0.91024 0.0
C90 C 0.03863 0.89596 0.20112 0.0
C91 C 0.0726 0.84805 0.16558 0.0
C92 C 0.10517 0.05926 0.12971 0.0
C93 C 0.06023 0.10134 0.16463 0.0
N94 N 0.95776 0.04093 0.23152 0.0
N95 N 0.13084 0.88037 0.09467 0.0
C96 C 1.01829 1.01369 0.19954 0.0
C97 C 0.10554 0.9296 0.12962 0.0
N98 N 0.03546 0.83494 0.23733 0.0
N99 N 0.14468 0.14187 0.09602 0.0
H100 H 0.13614 0.78913 0.09287 0.0
H101 H 0.13711 0.92391 0.0664 0.0
H102 H 0.1245 0.22367 0.09198 0.0
H103 H 0.20048 0.13195 0.07219 0.0
H104 H 1.02833 0.87562 0.26495 0.0
H105 H 0.05645 0.75316 0.24035 0.0
H106 H 0.90731 0.96981 0.25485 0.0
H107 H 0.9489 0.12976 0.23388 0.0
C108 C 0.0865 0.06369 0.53321 0.0
C109 C 0.13304 1.02251 0.49843 0.0
C110 C 0.91187 0.96632 0.46367 0.0
C111 C 0.86539 1.00643 0.49868 0.0
N112 N 0.89077 0.05191 0.57007 0.0
N113 N 0.10526 0.97043 0.42735 0.0
C114 C 0.94853 0.04508 0.5342 0.0
C115 C 0.04897 0.98192 0.46294 0.0
N116 N 0.17454 0.1245 0.56523 0.0
N117 N 0.82444 0.90958 0.43124 0.0
H118 H 0.20691 0.98693 0.4248 0.0
H119 H 0.05807 0.95998 0.39939 0.0
H120 H 0.72787 0.90439 0.42832 0.0
H121 H 0.84339 0.85857 0.40783 0.0
H122 H 0.1541 0.17524 0.58842 0.0
H123 H 0.27319 0.1346 0.56763 0.0
H124 H 0.93874 0.06195 0.59789 0.0
H125 H 0.78741 0.0306 0.57286 0.0
C126 C 0.08372 0.99348 0.86626 0.0
C127 C 0.99841 0.9472 0.83089 0.0
C128 C 0.16287 0.16863 0.79693 0.0
C129 C 0.25275 0.21226 0.83142 0.0
N130 N 0.29649 0.16821 0.89966 0.0
N131 N 0.97783 0.97552 0.75965 0.0
C132 C 0.21273 0.12444 0.86612 0.0
C133 C 0.04335 0.03107 0.79557 0.0
N134 N 0.03855 0.91553 0.90077 0.0
N135 N 0.18941 0.25777 0.76523 0.0
H136 H 0.89345 0.87378 0.75672 0.0
H137 H 1.01665 0.02407 0.73194 0.0
H138 H 0.27982 0.35487 0.76212 0.0
H139 H 0.11625 0.23859 0.74258 0.0
H140 H 0.08468 0.94959 0.92892 0.0
H141 H 0.94855 0.81779 0.90233 0.0
H142 H 0.28979 0.10249 0.92309 0.0
H143 H 0.37542 0.27161 0.90418 0.0
C144 C 0.39472 0.58593 0.95554 0.0
C145 C 0.53154 0.66727 0.9396 0.0
C146 C 0.62291 0.753 0.00707 0.0
C147 C 0.48398 0.68073 0.02261 0.0
N148 N 0.23611 0.5741 0.00732 0.0
N149 N 0.7676 0.85749 0.94778 0.0
C150 C 0.36892 0.60983 0.99567 0.0
C151 C 0.64339 0.76042 0.9647 0.0
N152 N 0.29004 0.48294 0.93309 0.0
N153 N 0.73502 0.81053 0.03264 0.0
H154 H 0.77822 0.87258 0.91667 0.0
H155 H 0.85266 0.93312 0.96416 0.0
H156 H 0.72472 0.79683 0.06376 0.0
H157 H 0.83892 0.86098 0.02283 0.0
H158 H 0.19504 0.40811 0.94591 0.0
H159 H 0.30281 0.46529 0.90293 0.0
H160 H 0.15104 0.53017 0.98753 0.0
H161 H 0.21515 0.60624 0.03465 0.0
C162 C 0.52192 0.2461 0.36943 0.0
C163 C 0.6017 0.19655 0.38985 0.0
C164 C 0.71416 0.19389 0.32658 0.0
C165 C 0.63741 0.2472 0.30617 0.0
N166 N 0.48959 0.34877 0.30842 0.0
N167 N 0.79296 0.151 0.39063 0.0
C168 C 0.54734 0.28056 0.32773 0.0
C169 C 0.70468 0.18004 0.36917 0.0
N170 N 0.41857 0.25519 0.38952 0.0
N171 N 0.79136 0.15134 0.30482 0.0
H172 H 0.79543 0.1523 0.42204 0.0
H173 H 0.8692 0.13406 0.37796 0.0
H174 H 0.79394 0.15388 0.27351 0.0
H175 H 0.8419 0.10157 0.31705 0.0
H176 H 0.34464 0.27243 0.3751 0.0
H177 H 0.40243 0.23794 0.42047 0.0
H178 H 0.43772 0.39226 0.32348 0.0
H179 H 0.50401 0.37152 0.27766 0.0
C180 C 0.43774 0.71154 0.6639 0.0
C181 C 0.39627 0.78219 0.69136 0.0
C182 C 0.32866 0.87542 0.63421 0.0
C183 C 0.40163 0.83297 0.6079 0.0
N184 N 0.53939 0.72016 0.5989 0.0
N185 N 0.30555 0.93746 0.7026 0.0
C186 C 0.45908 0.7525 0.62289 0.0
C187 C 0.34169 0.86553 0.67651 0.0
N188 N 0.44905 0.60003 0.67643 0.0
N189 N 0.24316 0.9199 0.61849 0.0
H190 H 0.32271 0.94012 0.73355 0.0
H191 H 0.26529 1.00014 0.69321 0.0
H192 H 0.22386 0.91533 0.58761 0.0
H193 H 0.17821 0.94252 0.63585 0.0
H194 H 0.46511 0.53731 0.6563 0.0
H195 H 0.4228 0.55929 0.70552 0.0
H196 H 0.59702 0.67678 0.61059 0.0
H197 H 0.55789 0.74734 0.56851 0.0
C198 C 0.81903 0.26442 0.99361 0.0
C199 C 0.84174 0.38638 0.97328 0.0
C200 C 0.88111 0.50671 0.03806 0.0
C201 C 0.88127 0.39296 0.05738 0.0
N202 N 0.85635 0.16421 0.05412 0.0
N203 N 0.90524 0.62912 0.97529 0.0
C204 C 0.85043 0.27116 0.03542 0.0
C205 C 0.87495 0.50921 0.99534 0.0
N206 N 0.76301 0.14117 0.97314 0.0
N207 N 0.88535 0.6113 0.06088 0.0
H208 H 0.90163 0.63372 0.94405 0.0
H209 H 0.94482 0.7262 0.98916 0.0
H210 H 0.88148 0.60738 0.09229 0.0
H211 H 0.88238 0.69637 0.04894 0.0
H212 H 0.72416 0.04549 0.98781 0.0
H213 H 0.74258 0.13438 0.94225 0.0
H214 H 0.856 0.0829 0.03829 0.0
H215 H 0.87023 0.16195 0.08517 0.0
C216 C 0.21214 0.43854 0.29927 0.0
C217 C 0.25163 0.55631 0.27416 0.0
C218 C 0.36722 0.70851 0.33152 0.0
C219 C 0.29798 0.59261 0.35797 0.0
N220 N 0.14864 0.34382 0.36676 0.0
N221 N 0.35647 0.80687 0.26769 0.0
C222 C 0.21929 0.45597 0.34178 0.0
C223 C 0.32747 0.69259 0.29046 0.0
N224 N 0.1721 0.31163 0.28223 0.0
N225 N 0.47675 0.8316 0.34498 0.0
H226 H 0.3308 0.8009 0.23722 0.0
H227 H 0.39527 0.90564 0.28049 0.0
H228 H 0.51788 0.84349 0.37396 0.0
H229 H 0.5381 0.91372 0.32548 0.0
H230 H 0.15208 0.22309 0.29866 0.0
H231 H 0.17732 0.30094 0.25116 0.0
H232 H 0.0894 0.24163 0.35635 0.0
H233 H 0.14297 0.35379 0.39782 0.0
C234 C 0.58224 0.38055 0.70114 0.0
C235 C 0.7045 0.48018 0.72171 0.0
C236 C 0.84014 0.53315 0.65906 0.0
C237 C 0.71463 0.44607 0.63777 0.0
N238 N 0.46331 0.29573 0.637 0.0
N239 N 0.94815 0.66008 0.72065 0.0
C240 C 0.58459 0.37157 0.6585 0.0
C241 C 0.83363 0.55812 0.70089 0.0
N242 N 0.46416 0.29507 0.72282 0.0
N243 N 0.96563 0.58862 0.63933 0.0
H244 H 0.94868 0.67676 0.75161 0.0
H245 H 0.03932 0.73274 0.70591 0.0
H246 H 0.97219 0.57479 0.60846 0.0
H247 H 0.06206 0.63786 0.65412 0.0
H248 H 0.36829 0.22317 0.71036 0.0
H249 H 0.46452 0.29105 0.75419 0.0
H250 H 0.36302 0.24531 0.64944 0.0
H251 H 0.46172 0.29309 0.60568 0.0
loop_
_geom_bond_atom_site_label_1
_geom_bond_atom_site_label_2
_geom_bond_distance
_geom_bond_site_symmetry_2
_ccdc_geom_bond_type
Co0 N5 2.057 . S
Co0 O17 2.021 . S
Co0 O20 2.062 1_455 S
Co0 O24 2.117 . S
Co0 O25 2.020 . S
C1 O21 1.259 . S
C1 O24 1.258 1_655 S
Co2 N11 2.057 . S
Co2 O18 2.117 . S
Co2 O19 2.020 . S
Co2 O21 2.021 . S
Co2 O26 2.062 1_655 S
C3 N5 1.316 . S
C3 N6 1.347 . S
C3 H8 0.931 . S
C4 N5 1.375 . S
C4 C7 1.350 . S
C4 H9 0.930 . S
N5 Co0 2.057 . S
N5 C3 1.316 . S
N5 C4 1.375 . S
N6 C3 1.347 . S
N6 C7 1.373 . S
C7 C4 1.350 . S
C7 N6 1.373 . S
C7 H28 0.931 . S
H8 C3 0.931 . S
H9 C4 0.930 . S
C10 O17 1.259 . S
C10 O18 1.258 1_455 S
N11 Co2 2.057 . S
N11 C12 1.316 . S
N11 C13 1.375 . S
C12 N11 1.316 . S
C12 N14 1.347 . S
C12 H23 0.931 . S
C13 N11 1.375 . S
C13 C15 1.350 . S
C13 H22 0.930 . S
N14 C12 1.347 . S
N14 C15 1.373 . S
C15 C13 1.350 . S
C15 N14 1.373 . S
C15 H29 0.931 . S
C16 O19 1.256 . S
C16 O20 1.255 . S
O17 Co0 2.021 . S
O17 C10 1.259 . S
O18 Co2 2.117 . S
O18 C10 1.258 1_655 S
O19 Co2 2.020 . S
O19 C16 1.256 . S
O20 Co0 2.062 1_655 S
O20 C16 1.255 . S
O21 C1 1.259 . S
O21 Co2 2.021 . S
H22 C13 0.930 . S
H23 C12 0.931 . S
O24 Co0 2.117 . S
O24 C1 1.258 1_455 S
O25 Co0 2.020 . S
O25 C27 1.256 . S
O26 Co2 2.062 1_455 S
O26 C27 1.255 . S
C27 O25 1.256 . S
C27 O26 1.255 . S
H28 C7 0.931 . S
H29 C15 0.931 . S
Co30 N35 2.057 . S
Co30 O47 2.021 . S
Co30 O50 2.062 1_565 S
Co30 O54 2.117 . S
Co30 O55 2.020 . S
C31 O51 1.259 . S
C31 O54 1.258 1_545 S
Co32 N41 2.057 . S
Co32 O48 2.117 . S
Co32 O49 2.020 . S
Co32 O51 2.021 . S
Co32 O56 2.062 1_545 S
C33 N35 1.316 . S
C33 N36 1.347 . S
C33 H38 0.931 . S
C34 N35 1.375 . S
C34 C37 1.350 . S
C34 H39 0.930 . S
N35 Co30 2.057 . S
N35 C33 1.316 . S
N35 C34 1.375 . S
N36 C33 1.347 . S
N36 C37 1.373 . S
C37 C34 1.350 . S
C37 N36 1.373 . S
C37 H58 0.931 . S
H38 C33 0.931 . S
H39 C34 0.930 . S
C40 O47 1.259 1_545 S
C40 O48 1.258 . S
N41 Co32 2.057 . S
N41 C42 1.316 . S
N41 C43 1.375 . S
C42 N41 1.316 . S
C42 N44 1.347 . S
C42 H53 0.931 . S
C43 N41 1.375 . S
C43 C45 1.350 . S
C43 H52 0.930 . S
N44 C42 1.347 . S
N44 C45 1.373 . S
C45 C43 1.350 . S
C45 N44 1.373 . S
C45 H59 0.931 . S
C46 O49 1.256 . S
C46 O50 1.255 . S
O47 Co30 2.021 . S
O47 C40 1.259 1_565 S
O48 Co32 2.117 . S
O48 C40 1.258 . S
O49 Co32 2.020 . S
O49 C46 1.256 . S
O50 Co30 2.062 1_545 S
O50 C46 1.255 . S
O51 C31 1.259 . S
O51 Co32 2.021 . S
H52 C43 0.930 . S
H53 C42 0.931 . S
O54 Co30 2.117 . S
O54 C31 1.258 1_565 S
O55 Co30 2.020 . S
O55 C57 1.256 . S
O56 Co32 2.062 1_565 S
O56 C57 1.255 . S
C57 O55 1.256 . S
C57 O56 1.255 . S
H58 C37 0.931 . S
H59 C45 0.931 . S
Co60 N65 2.057 . S
Co60 O77 2.021 . S
Co60 O80 2.062 . S
Co60 O84 2.117 . S
Co60 O85 2.020 . S
C61 O81 1.259 . S
C61 O84 1.258 . S
Co62 N71 2.057 . S
Co62 O78 2.117 . S
Co62 O79 2.020 . S
Co62 O81 2.021 . S
Co62 O86 2.062 . S
C63 N65 1.316 . S
C63 N66 1.347 . S
C63 H68 0.931 . S
C64 N65 1.375 . S
C64 C67 1.350 . S
C64 H69 0.930 . S
N65 Co60 2.057 . S
N65 C63 1.316 . S
N65 C64 1.375 . S
N66 C63 1.347 . S
N66 C67 1.373 . S
C67 C64 1.350 . S
C67 N66 1.373 . S
C67 H88 0.931 . S
H68 C63 0.931 . S
H69 C64 0.930 . S
C70 O77 1.259 . S
C70 O78 1.258 . S
N71 Co62 2.057 . S
N71 C72 1.316 . S
N71 C73 1.375 . S
C72 N71 1.316 . S
C72 N74 1.347 . S
C72 H83 0.931 . S
C73 N71 1.375 . S
C73 C75 1.350 . S
C73 H82 0.930 . S
N74 C72 1.347 . S
N74 C75 1.373 . S
C75 C73 1.350 . S
C75 N74 1.373 . S
C75 H89 0.931 . S
C76 O79 1.256 . S
C76 O80 1.255 . S
O77 Co60 2.021 . S
O77 C70 1.259 . S
O78 Co62 2.117 . S
O78 C70 1.258 . S
O79 Co62 2.020 . S
O79 C76 1.256 . S
O80 Co60 2.062 . S
O80 C76 1.255 . S
O81 C61 1.259 . S
O81 Co62 2.021 . S
H82 C73 0.930 . S
H83 C72 0.931 . S
O84 Co60 2.117 . S
O84 C61 1.258 . S
O85 Co60 2.020 . S
O85 C87 1.256 . S
O86 Co62 2.062 . S
O86 C87 1.255 . S
C87 O85 1.256 . S
C87 O86 1.255 . S
H88 C67 0.931 . S
H89 C75 0.931 . S
C90 C91 1.362 1_655 S
C90 C96 1.379 1_565 S
C90 N98 1.356 . S
C91 C90 1.362 1_455 S
C91 C97 1.363 . S
C92 C93 1.364 1_455 S
C92 C97 1.379 1_545 S
C92 N99 1.356 . S
C93 C92 1.364 1_655 S
C93 C96 1.363 . S
N94 C96 1.356 . S
N94 H106 0.984 . S
N94 H107 0.985 . S
N95 C97 1.356 . S
N95 H100 0.984 . S
N95 H101 0.985 . S
C96 C90 1.379 1_545 S
C96 C93 1.363 . S
C96 N94 1.356 . S
C97 C91 1.363 . S
C97 C92 1.379 1_565 S
C97 N95 1.356 . S
N98 C90 1.356 . S
N98 H104 0.984 . S
N98 H105 0.984 . S
N99 C92 1.356 . S
N99 H102 0.984 . S
N99 H103 0.985 . S
H100 N95 0.984 . S
H101 N95 0.985 . S
H102 N99 0.984 . S
H103 N99 0.985 . S
H104 N98 0.984 . S
H105 N98 0.984 . S
H106 N94 0.984 . S
H107 N94 0.985 . S
C108 C109 1.363 . S
C108 C114 1.379 . S
C108 N116 1.356 . S
C109 C108 1.363 . S
C109 C115 1.363 1_545 S
C110 C111 1.363 1_565 S
C110 C115 1.379 1_655 S
C110 N117 1.356 . S
C111 C110 1.363 1_545 S
C111 C114 1.363 1_655 S
N112 C114 1.356 1_655 S
N112 H124 0.984 1_655 S
N112 H125 0.985 . S
N113 C115 1.356 . S
N113 H118 0.984 . S
N113 H119 0.985 . S
C114 C108 1.379 . S
C114 C111 1.363 1_455 S
C114 N112 1.356 1_455 S
C115 C109 1.363 1_565 S
C115 C110 1.379 1_455 S
C115 N113 1.356 . S
N116 C108 1.356 . S
N116 H122 0.984 . S
N116 H123 0.984 . S
N117 C110 1.356 . S
N117 H120 0.984 . S
N117 H121 0.985 . S
H118 N113 0.984 . S
H119 N113 0.985 . S
H120 N117 0.984 . S
H121 N117 0.985 . S
H122 N116 0.984 . S
H123 N116 0.984 . S
H124 N112 0.984 1_455 S
H125 N112 0.985 . S
C126 C127 1.363 . S
C126 C132 1.379 1_665 S
C126 N134 1.356 . S
C127 C126 1.363 . S
C127 C133 1.363 1_655 S
C128 C129 1.363 . S
C128 C133 1.379 1_545 S
C128 N135 1.356 . S
C129 C128 1.363 . S
C129 C132 1.363 . S
N130 C132 1.356 . S
N130 H142 0.984 . S
N130 H143 0.985 . S
N131 C133 1.356 1_655 S
N131 H136 0.984 . S
N131 H137 0.985 . S
C132 C126 1.379 1_445 S
C132 C129 1.363 . S
C132 N130 1.356 . S
C133 C127 1.363 1_455 S
C133 C128 1.379 1_565 S
C133 N131 1.356 1_455 S
N134 C126 1.356 . S
N134 H140 0.984 . S
N134 H141 0.984 . S
N135 C128 1.356 . S
N135 H138 0.984 . S
N135 H139 0.985 . S
H136 N131 0.984 . S
H137 N131 0.985 . S
H138 N135 0.984 . S
H139 N135 0.985 . S
H140 N134 0.984 . S
H141 N134 0.984 . S
H142 N130 0.984 . S
H143 N130 0.985 . S
C144 C145 1.363 . S
C144 C150 1.379 . S
C144 N152 1.356 . S
C145 C144 1.363 . S
C145 C151 1.363 . S
C146 C147 1.363 1_556 S
C146 C151 1.379 . S
C146 N153 1.356 1_556 S
C147 C146 1.363 1_554 S
C147 C150 1.363 1_554 S
N148 C150 1.356 1_554 S
N148 H160 0.984 . S
N148 H161 0.985 . S
N149 C151 1.356 . S
N149 H154 0.984 . S
N149 H155 0.985 . S
C150 C144 1.379 . S
C150 C147 1.363 1_556 S
C150 N148 1.356 1_556 S
C151 C145 1.363 . S
C151 C146 1.379 . S
C151 N149 1.356 . S
N152 C144 1.356 . S
N152 H158 0.984 . S
N152 H159 0.984 . S
N153 C146 1.356 1_554 S
N153 H156 0.984 . S
N153 H157 0.985 1_554 S
H154 N149 0.984 . S
H155 N149 0.985 . S
H156 N153 0.984 . S
H157 N153 0.985 1_556 S
H158 N152 0.984 . S
H159 N152 0.984 . S
H160 N148 0.984 . S
H161 N148 0.985 . S
C162 C163 1.363 . S
C162 C168 1.379 . S
C162 N170 1.356 . S
C163 C162 1.363 . S
C163 C169 1.363 . S
C164 C165 1.363 . S
C164 C169 1.379 . S
C164 N171 1.356 . S
C165 C164 1.363 . S
C165 C168 1.363 . S
N166 C168 1.356 . S
N166 H178 0.984 . S
N166 H179 0.985 . S
N167 C169 1.356 . S
N167 H172 0.984 . S
N167 H173 0.985 . S
C168 C162 1.379 . S
C168 C165 1.363 . S
C168 N166 1.356 . S
C169 C163 1.363 . S
C169 C164 1.379 . S
C169 N167 1.356 . S
N170 C162 1.356 . S
N170 H176 0.984 . S
N170 H177 0.984 . S
N171 C164 1.356 . S
N171 H174 0.984 . S
N171 H175 0.985 . S
H172 N167 0.984 . S
H173 N167 0.985 . S
H174 N171 0.984 . S
H175 N171 0.985 . S
H176 N170 0.984 . S
H177 N170 0.984 . S
H178 N166 0.984 . S
H179 N166 0.985 . S
C180 C181 1.363 . S
C180 C186 1.379 . S
C180 N188 1.356 . S
C181 C180 1.363 . S
C181 C187 1.363 . S
C182 C183 1.363 . S
C182 C187 1.379 . S
C182 N189 1.356 . S
C183 C182 1.363 . S
C183 C186 1.363 . S
N184 C186 1.356 . S
N184 H196 0.984 . S
N184 H197 0.985 . S
N185 C187 1.356 . S
N185 H190 0.984 . S
N185 H191 0.985 . S
C186 C180 1.379 . S
C186 C183 1.363 . S
C186 N184 1.356 . S
C187 C181 1.363 . S
C187 C182 1.379 . S
C187 N185 1.356 . S
N188 C180 1.356 . S
N188 H194 0.984 . S
N188 H195 0.984 . S
N189 C182 1.356 . S
N189 H192 0.984 . S
N189 H193 0.985 1_565 S
H190 N185 0.984 . S
H191 N185 0.985 . S
H192 N189 0.984 . S
H193 N189 0.985 1_545 S
H194 N188 0.984 . S
H195 N188 0.984 . S
H196 N184 0.984 . S
H197 N184 0.985 . S
C198 C199 1.363 1_554 S
C198 C204 1.379 . S
C198 N206 1.349 1_554 S
C199 C198 1.363 1_556 S
C199 C205 1.363 1_556 S
C200 C201 1.363 . S
C200 C205 1.379 . S
C200 N207 1.356 . S
C201 C200 1.363 . S
C201 C204 1.363 . S
N202 C204 1.356 . S
N202 H214 0.984 . S
N202 H215 0.985 . S
N203 C205 1.356 1_556 S
N203 H208 0.984 . S
N203 H209 0.985 . S
C204 C198 1.379 . S
C204 C201 1.363 . S
C204 N202 1.356 . S
C205 C199 1.363 1_554 S
C205 C200 1.379 . S
C205 N203 1.356 1_554 S
N206 C198 1.349 1_556 S
N206 H212 0.979 1_556 S
N206 H213 0.997 . S
N207 C200 1.356 . S
N207 H210 0.984 . S
N207 H211 0.985 1_655 S
H208 N203 0.984 . S
H209 N203 0.985 . S
H210 N207 0.984 . S
H211 N207 0.985 1_455 S
H212 N206 0.979 1_554 S
H213 N206 0.997 . S
H214 N202 0.984 . S
H215 N202 0.985 . S
C216 C217 1.363 . S
C216 C222 1.379 . S
C216 N224 1.356 . S
C217 C216 1.363 . S
C217 C223 1.363 . S
C218 C219 1.363 . S
C218 C223 1.379 . S
C218 N225 1.356 . S
C219 C218 1.363 . S
C219 C222 1.363 . S
N220 C222 1.356 . S
N220 H232 0.984 . S
N220 H233 0.985 . S
N221 C223 1.356 . S
N221 H226 0.984 . S
N221 H227 0.985 . S
C222 C216 1.379 . S
C222 C219 1.363 . S
C222 N220 1.356 . S
C223 C217 1.363 . S
C223 C218 1.379 . S
C223 N221 1.356 . S
N224 C216 1.356 . S
N224 H230 0.984 1_455 S
N224 H231 0.984 . S
N225 C218 1.356 . S
N225 H228 0.984 . S
N225 H229 0.985 . S
H226 N221 0.984 . S
H227 N221 0.985 . S
H228 N225 0.984 . S
H229 N225 0.985 . S
H230 N224 0.984 1_655 S
H231 N224 0.984 . S
H232 N220 0.984 . S
H233 N220 0.985 . S
C234 C235 1.363 . S
C234 C240 1.379 . S
C234 N242 1.356 . S
C235 C234 1.363 . S
C235 C241 1.363 . S
C236 C237 1.363 . S
C236 C241 1.379 . S
C236 N243 1.356 . S
C237 C236 1.363 . S
C237 C240 1.363 . S
N238 C240 1.356 . S
N238 H250 0.984 . S
N238 H251 0.985 . S
N239 C241 1.356 . S
N239 H244 0.984 . S
N239 H245 0.985 . S
C240 C234 1.379 . S
C240 C237 1.363 . S
C240 N238 1.356 . S
C241 C235 1.363 . S
C241 C236 1.379 . S
C241 N239 1.356 . S
N242 C234 1.356 . S
N242 H248 0.984 . S
N242 H249 0.984 . S
N243 C236 1.356 . S
N243 H246 0.984 . S
N243 H247 0.985 . S
H244 N239 0.984 . S
H245 N239 0.985 . S
H246 N243 0.984 . S
H247 N243 0.985 . S
H248 N242 0.984 . S
H249 N242 0.984 . S
H250 N238 0.984 . S
H251 N238 0.985 . S
C91 C1 1.758 1_455 S
C93 C10 1.757 1_655 S
C109 C40 1.758 . S
C111 C31 1.758 . S
C127 C70 1.758 . S
C129 C61 1.758 . S
C145 C87 1.258 . S
C147 N6 1.260 . S
C163 C46 1.223 . S
C165 N14 1.163 . S
C181 N66 1.261 . S
C183 C57 1.258 . S
C199 N74 1.163 . S
C201 C16 1.223 . S
C217 C27 1.258 . S
C219 N36 1.261 . S
C235 C76 1.223 . S
C237 N44 1.163 . S
