# Generated by pormake.
# Topology pcu, (6)-cn, num edge types: 1
# Building blocks:
#     Node 0, Type 0, BuildingBlock: BETDEL_clean_sbu_0, # of connection points: 6
#     Edge 1, Type (0, 0), BuildingBlock: FUNLAD_clean_linker_1, # of connection points: 2
#     Edge 2, Type (0, 0), BuildingBlock: FUNLAD_clean_linker_1, # of connection points: 2
#     Edge 3, Type (0, 0), BuildingBlock: FUNLAD_clean_linker_1, # of connection points: 2
# Relax obj value: 0.000
# Max RMSD: 0.000
# Mean RMSD: 0.000
data_MOF--net-pcu--node1-BETDEL_clean_sbu_0--edge1-FUNLAD_clean_linker_1
_symmetry_space_group_name_H-M    P1
_symmetry_Int_Tables_number       1
_symmetry_cell_setting            triclinic
loop_
_symmetry_equiv_pos_as_xyz
'x, y, z'
_cell_length_a     15.888779
_cell_length_b     18.528957
_cell_length_c     14.670966
_cell_angle_alpha  96.278917
_cell_angle_beta   90.399025
_cell_angle_gamma 116.50699
loop_
_atom_site_label
_atom_site_type_symbol
_atom_site_fract_x
_atom_site_fract_y
_atom_site_fract_z
_atom_type_partial_charge
Dy0 Dy 0.03563 0.09827 1.02262 0.0
C1 C 0.95397 0.77117 0.05828 0.0
C2 C 0.05214 0.24771 0.99761 0.0
Dy3 Dy 0.97066 0.92075 0.03366 0.0
O4 O 0.02918 0.21415 0.07237 0.0
O5 O 0.06799 0.2002 0.93563 0.0
O6 O 0.12033 0.12961 0.15588 0.0
O7 O 0.99124 0.02321 0.13532 0.0
C8 C 0.0627 0.06495 0.18986 0.0
C9 C 0.94373 0.95458 0.86648 0.0
O10 O 0.83587 0.92401 0.06723 0.0
O11 O 0.8778 0.0449 1.00651 0.0
O12 O 0.97707 0.80489 0.98363 0.0
O13 O 0.9381 0.81859 0.12035 0.0
O14 O 0.88591 0.88991 0.90032 0.0
O15 O 0.01518 0.99577 0.92111 0.0
O16 O 0.17047 0.09503 0.98922 0.0
O17 O 0.12849 0.97415 0.04999 0.0
C18 C 0.81436 0.97949 0.03909 0.0
C19 C 0.19197 0.03957 1.01744 0.0
H20 H 0.1309 0.10008 0.32926 0.0
C21 C 0.06698 0.05797 0.28837 0.0
H22 H 0.92839 0.96413 0.29013 0.0
H23 H 0.02194 0.87777 0.6753 0.0
H24 H 0.01284 0.76215 0.57316 0.0
H25 H 0.99562 0.75735 0.40503 0.0
H26 H 0.98806 0.86855 0.3381 0.0
C27 C 0.99263 1.0071 0.32994 0.0
C28 C 0.99663 1.00808 0.43142 0.0
C29 C 0.99868 0.94182 0.46941 0.0
C30 C 0.00679 0.94397 0.56638 0.0
C31 C 0.01282 0.87838 0.60232 0.0
C32 C 0.00843 0.81182 0.54439 0.0
C33 C 0.9989 0.80917 0.44974 0.0
C34 C 0.99449 0.87337 0.41226 0.0
H35 H 0.87579 0.91985 0.727 0.0
C36 C 0.93972 0.96177 0.76801 0.0
H37 H 0.07852 0.05535 0.76652 0.0
H38 H 0.98508 0.14197 0.38128 0.0
H39 H 0.99424 0.2576 0.48342 0.0
H40 H 0.01154 0.26243 0.65155 0.0
H41 H 0.01913 0.15123 0.71847 0.0
C42 C 0.01426 0.01257 0.72661 0.0
C43 C 0.01046 0.01167 0.62514 0.0
C44 C 0.00844 0.07795 0.58715 0.0
C45 C 1.00031 0.07579 0.49018 0.0
C46 C 0.99424 0.14138 0.45425 0.0
C47 C 0.99866 0.20794 0.51218 0.0
C48 C 0.00824 0.21061 0.60683 0.0
C49 C 0.01267 0.1464 0.64431 0.0
H50 H 0.3401 0.10103 0.98023 0.0
C51 C 0.28965 0.05074 1.01317 0.0
H52 H 0.266 0.94807 0.07923 0.0
H53 H 0.58989 0.88558 0.90208 0.0
H54 H 0.45119 0.77149 0.82581 0.0
H55 H 0.29303 0.76284 0.84543 0.0
H56 H 0.27279 0.8684 0.94109 0.0
C57 C 0.31657 0.99954 0.04802 0.0
C58 C 0.41238 1.00556 0.03765 0.0
C59 C 0.42272 0.9423 0.98299 0.0
C60 C 0.51373 0.94663 0.97283 0.0
C61 C 0.52232 0.88432 0.9146 0.0
C62 C 0.44326 0.8187 0.86969 0.0
C63 C 0.35426 0.81392 0.88055 0.0
C64 C 0.34367 0.87488 0.93612 0.0
H65 H 0.66624 0.91805 0.07637 0.0
C66 C 0.71668 0.96833 0.04342 0.0
H67 H 0.74032 0.07098 0.97732 0.0
H68 H 0.41644 0.13351 0.15448 0.0
H69 H 0.55516 0.24766 0.23063 0.0
H70 H 0.71333 0.25635 0.21095 0.0
H71 H 0.73356 0.15073 0.11537 0.0
C72 C 0.68975 0.01953 1.00856 0.0
C73 C 0.59395 0.01351 1.01892 0.0
C74 C 0.58361 0.07679 0.07355 0.0
C75 C 0.4926 0.07246 0.08373 0.0
C76 C 0.48402 0.13478 0.14193 0.0
C77 C 0.56309 0.20044 0.18678 0.0
C78 C 0.65209 0.20524 0.17588 0.0
C79 C 0.66267 0.14425 0.12036 0.0
H80 H 0.93351 0.66958 0.1368 0.0
C81 C 0.95354 0.69344 0.07168 0.0
H82 H 0.00572 0.68039 0.94213 0.0
H83 H 0.19916 0.46996 0.05753 0.0
H84 H 0.33555 0.60098 0.05929 0.0
H85 H 0.31666 0.72405 0.04297 0.0
H86 H 0.1612 0.71687 1.02389 0.0
C87 C 0.98194 0.65448 1.00563 0.0
C88 C 0.99212 0.58043 1.01925 0.0
C89 C 0.08361 0.58546 0.02814 0.0
C90 C 0.09457 0.51443 0.03722 0.0
C91 C 0.18669 0.52166 0.0488 0.0
C92 C 0.26567 0.5966 0.05031 0.0
C93 C 0.25503 0.66591 0.04096 0.0
C94 C 0.16532 0.66083 0.02997 0.0
H95 H 0.07245 0.34914 0.91888 0.0
C96 C 0.05249 0.32538 0.98405 0.0
H97 H 1.00042 0.33859 0.11363 0.0
H98 H 0.8069 0.5489 0.99809 0.0
H99 H 0.67051 0.4179 0.99646 0.0
H100 H 0.6894 0.29484 1.01287 0.0
H101 H 0.84487 0.30201 0.03185 0.0
C102 C 0.02413 0.36441 0.05006 0.0
C103 C 0.01394 0.43844 0.03638 0.0
C104 C 0.92246 0.43341 1.02751 0.0
C105 C 0.9115 0.50443 1.01841 0.0
C106 C 0.81937 0.4972 1.00684 0.0
C107 C 0.74039 0.42227 1.00541 0.0
C108 C 0.75103 0.35297 1.0148 0.0
C109 C 0.84075 0.35804 1.02574 0.0
loop_
_geom_bond_atom_site_label_1
_geom_bond_atom_site_label_2
_geom_bond_distance
_geom_bond_site_symmetry_2
_ccdc_geom_bond_type
Dy0 O4 2.398 . S
Dy0 O5 2.491 1_554 S
Dy0 O6 2.403 . S
Dy0 O7 2.663 1_545 S
Dy0 O11 2.326 1_455 S
Dy0 O15 2.309 1_454 S
Dy0 O16 2.351 . S
C1 O12 1.185 . S
C1 O13 1.355 1_556 S
C2 O4 1.185 . S
C2 O5 1.355 1_554 S
Dy3 O7 2.309 1_656 S
Dy3 O10 2.351 . S
Dy3 O12 2.398 . S
Dy3 O13 2.491 1_556 S
Dy3 O14 2.403 . S
Dy3 O15 2.663 1_565 S
Dy3 O17 2.326 1_655 S
O4 Dy0 2.398 . S
O4 C2 1.185 . S
O5 Dy0 2.491 1_556 S
O5 C2 1.355 1_556 S
O6 Dy0 2.403 . S
O6 C8 1.254 . S
O7 Dy0 2.663 1_565 S
O7 Dy3 2.309 1_454 S
O7 C8 1.267 1_565 S
C8 O6 1.254 . S
C8 O7 1.267 1_545 S
C9 O14 1.254 . S
C9 O15 1.267 1_565 S
O10 Dy3 2.351 . S
O10 C18 1.249 1_556 S
O11 Dy0 2.326 1_655 S
O11 C18 1.267 1_545 S
O12 C1 1.185 . S
O12 Dy3 2.398 . S
O13 C1 1.355 1_554 S
O13 Dy3 2.491 1_554 S
O14 Dy3 2.403 . S
O14 C9 1.254 . S
O15 Dy0 2.309 1_656 S
O15 Dy3 2.663 1_545 S
O15 C9 1.267 1_545 S
O16 Dy0 2.351 . S
O16 C19 1.249 1_554 S
O17 Dy3 2.326 1_455 S
O17 C19 1.267 1_565 S
C18 O10 1.249 1_554 S
C18 O11 1.267 1_565 S
C19 O16 1.249 1_556 S
C19 O17 1.267 1_545 S
H20 C21 0.951 . S
C21 H20 0.951 . S
C21 C27 1.265 1_445 S
H22 C27 0.950 . S
H23 C31 0.949 . S
H24 C32 0.950 . S
H25 C33 0.951 . S
H26 C34 0.951 . S
C27 C21 1.265 1_665 S
C27 H22 0.950 . S
C27 C28 1.478 . S
C28 C27 1.478 . S
C28 C29 1.397 . S
C28 C45 1.394 1_665 S
C29 C28 1.397 . S
C29 C30 1.438 . S
C29 C34 1.429 . S
C30 C29 1.438 . S
C30 C31 1.428 . S
C30 C43 1.394 1_665 S
C31 H23 0.949 . S
C31 C30 1.428 . S
C31 C32 1.345 . S
C32 H24 0.950 . S
C32 C31 1.345 . S
C32 C33 1.424 . S
C33 H25 0.951 . S
C33 C32 1.424 . S
C33 C34 1.347 . S
C34 H26 0.951 . S
C34 C29 1.429 . S
C34 C33 1.347 . S
H35 C36 0.951 . S
C36 H35 0.951 . S
C36 C42 1.265 1_665 S
H37 C42 0.950 . S
H38 C46 0.949 . S
H39 C47 0.950 . S
H40 C48 0.951 . S
H41 C49 0.951 . S
C42 C36 1.265 1_445 S
C42 H37 0.950 . S
C42 C43 1.478 . S
C43 C30 1.394 1_445 S
C43 C42 1.478 . S
C43 C44 1.397 . S
C44 C43 1.397 . S
C44 C45 1.438 . S
C44 C49 1.429 . S
C45 C28 1.394 1_445 S
C45 C44 1.438 . S
C45 C46 1.428 . S
C46 H38 0.949 . S
C46 C45 1.428 . S
C46 C47 1.345 . S
C47 H39 0.950 . S
C47 C46 1.345 . S
C47 C48 1.424 . S
C48 H40 0.951 . S
C48 C47 1.424 . S
C48 C49 1.347 . S
C49 H41 0.951 . S
C49 C44 1.429 . S
C49 C48 1.347 . S
H50 C51 0.952 . S
C51 H50 0.952 . S
C51 C57 1.265 1_544 S
H52 C57 0.950 . S
H53 C61 0.949 . S
H54 C62 0.950 . S
H55 C63 0.951 . S
H56 C64 0.951 . S
C57 C51 1.265 1_566 S
C57 H52 0.950 . S
C57 C58 1.478 . S
C58 C57 1.478 . S
C58 C59 1.397 . S
C58 C75 1.394 1_566 S
C59 C58 1.397 . S
C59 C60 1.438 . S
C59 C64 1.429 . S
C60 C59 1.438 . S
C60 C61 1.428 . S
C60 C73 1.394 1_566 S
C61 H53 0.949 . S
C61 C60 1.428 . S
C61 C62 1.345 . S
C62 H54 0.950 . S
C62 C61 1.345 . S
C62 C63 1.424 . S
C63 H55 0.951 . S
C63 C62 1.424 . S
C63 C64 1.347 . S
C64 H56 0.951 . S
C64 C59 1.429 . S
C64 C63 1.347 . S
H65 C66 0.952 . S
C66 H65 0.952 . S
C66 C72 1.265 1_566 S
H67 C72 0.950 . S
H68 C76 0.949 . S
H69 C77 0.950 . S
H70 C78 0.951 . S
H71 C79 0.951 . S
C72 C66 1.265 1_544 S
C72 H67 0.950 . S
C72 C73 1.478 . S
C73 C60 1.394 1_544 S
C73 C72 1.478 . S
C73 C74 1.397 . S
C74 C73 1.397 . S
C74 C75 1.438 . S
C74 C79 1.429 . S
C75 C58 1.394 1_544 S
C75 C74 1.438 . S
C75 C76 1.428 . S
C76 H68 0.949 . S
C76 C75 1.428 . S
C76 C77 1.345 . S
C77 H69 0.950 . S
C77 C76 1.345 . S
C77 C78 1.424 . S
C78 H70 0.951 . S
C78 C77 1.424 . S
C78 C79 1.347 . S
C79 H71 0.951 . S
C79 C74 1.429 . S
C79 C78 1.347 . S
H80 C81 0.952 . S
C81 H80 0.952 . S
C81 C87 1.265 1_454 S
H82 C87 0.950 . S
H83 C91 0.949 . S
H84 C92 0.950 . S
H85 C93 0.951 . S
H86 C94 0.951 . S
C87 C81 1.265 1_656 S
C87 H82 0.950 . S
C87 C88 1.478 . S
C88 C87 1.478 . S
C88 C89 1.397 . S
C88 C105 1.394 1_656 S
C89 C88 1.397 . S
C89 C90 1.438 . S
C89 C94 1.429 . S
C90 C89 1.438 . S
C90 C91 1.428 . S
C90 C103 1.394 1_656 S
C91 H83 0.949 . S
C91 C90 1.428 . S
C91 C92 1.345 . S
C92 H84 0.950 . S
C92 C91 1.345 . S
C92 C93 1.424 . S
C93 H85 0.951 . S
C93 C92 1.424 . S
C93 C94 1.347 . S
C94 H86 0.951 . S
C94 C89 1.429 . S
C94 C93 1.347 . S
H95 C96 0.952 . S
C96 H95 0.952 . S
C96 C102 1.265 1_656 S
H97 C102 0.950 . S
H98 C106 0.949 . S
H99 C107 0.950 . S
H100 C108 0.951 . S
H101 C109 0.951 . S
C102 C96 1.265 1_454 S
C102 H97 0.950 . S
C102 C103 1.478 . S
C103 C90 1.394 1_454 S
C103 C102 1.478 . S
C103 C104 1.397 . S
C104 C103 1.397 . S
C104 C105 1.438 . S
C104 C109 1.429 . S
C105 C88 1.394 1_454 S
C105 C104 1.438 . S
C105 C106 1.428 . S
C106 H98 0.949 . S
C106 C105 1.428 . S
C106 C107 1.345 . S
C107 H99 0.950 . S
C107 C106 1.345 . S
C107 C108 1.424 . S
C108 H100 0.951 . S
C108 C107 1.424 . S
C108 C109 1.347 . S
C109 H101 0.951 . S
C109 C104 1.429 . S
C109 C108 1.347 . S
C21 C8 1.431 . S
C36 C9 1.431 . S
C51 C19 1.473 1_554 S
C66 C18 1.473 1_556 S
C81 C1 1.497 1_454 S
C96 C2 1.498 1_656 S
