# Generated by pormake.
# Topology uog, (4)-cn, num edge types: 1
# Building blocks:
#     Node 0, Type 0, BuildingBlock: QUQFOY_clean_sbu_1, # of connection points: 4
#     Node 1, Type 0, BuildingBlock: QUQFOY_clean_sbu_1, # of connection points: 4
#     Node 2, Type 0, BuildingBlock: QUQFOY_clean_sbu_1, # of connection points: 4
#     Node 3, Type 0, BuildingBlock: QUQFOY_clean_sbu_1, # of connection points: 4
#     Node 4, Type 0, BuildingBlock: QUQFOY_clean_sbu_1, # of connection points: 4
#     Node 5, Type 0, BuildingBlock: QUQFOY_clean_sbu_1, # of connection points: 4
#     Edge 6, Type (0, 0), BuildingBlock: AJUNOK_clean_linker_0, # of connection points: 2
#     Edge 7, Type (0, 0), BuildingBlock: AJUNOK_clean_linker_0, # of connection points: 2
#     Edge 8, Type (0, 0), BuildingBlock: AJUNOK_clean_linker_0, # of connection points: 2
#     Edge 9, Type (0, 0), BuildingBlock: AJUNOK_clean_linker_0, # of connection points: 2
#     Edge 10, Type (0, 0), BuildingBlock: AJUNOK_clean_linker_0, # of connection points: 2
#     Edge 11, Type (0, 0), BuildingBlock: AJUNOK_clean_linker_0, # of connection points: 2
#     Edge 12, Type (0, 0), BuildingBlock: AJUNOK_clean_linker_0, # of connection points: 2
#     Edge 13, Type (0, 0), BuildingBlock: AJUNOK_clean_linker_0, # of connection points: 2
#     Edge 14, Type (0, 0), BuildingBlock: AJUNOK_clean_linker_0, # of connection points: 2
#     Edge 15, Type (0, 0), BuildingBlock: AJUNOK_clean_linker_0, # of connection points: 2
#     Edge 16, Type (0, 0), BuildingBlock: AJUNOK_clean_linker_0, # of connection points: 2
#     Edge 17, Type (0, 0), BuildingBlock: AJUNOK_clean_linker_0, # of connection points: 2
# Relax obj value: 0.102
# Max RMSD: 0.153
# Mean RMSD: 0.153
data_MOF--net-uog--node1-QUQFOY_clean_sbu_1--edge1-AJUNOK_clean_linker_0
_symmetry_space_group_name_H-M    P1
_symmetry_Int_Tables_number       1
_symmetry_cell_setting            triclinic
loop_
_symmetry_equiv_pos_as_xyz
'x, y, z'
_cell_length_a     21.410808
_cell_length_b     21.419029
_cell_length_c     32.117784
_cell_angle_alpha  90.015561
_cell_angle_beta   89.968203
_cell_angle_gamma 120.12569
loop_
_atom_site_label
_atom_site_type_symbol
_atom_site_fract_x
_atom_site_fract_y
_atom_site_fract_z
_atom_type_partial_charge
O0 O 0.63911 0.44361 0.1919 0.0
Cd1 Cd 0.68602 0.38277 0.18697 0.0
Cd2 Cd 0.55819 0.27877 0.17336 0.0
O3 O 0.53593 0.34811 0.20962 0.0
O4 O 0.76424 0.41616 0.23026 0.0
O5 O 0.65645 0.31853 0.23634 0.0
C6 C 0.71722 0.36356 0.2531 0.0
C7 C 0.53695 0.16001 0.1843 0.0
C8 C 0.57603 0.41685 0.20688 0.0
C9 C 0.64826 0.34605 0.0996 0.0
O10 O 0.58417 0.31491 0.11369 0.0
O11 O 0.70135 0.3652 0.12456 0.0
O12 O 0.48441 0.17139 0.17579 0.0
O13 O 0.60032 0.21572 0.18808 0.0
O14 O 0.21161 0.62677 0.52531 0.0
Cd15 Cd 0.31969 0.67455 0.52046 0.0
Cd16 Cd 0.29584 0.54762 0.50568 0.0
O17 O 0.20391 0.52347 0.5421 0.0
O18 O 0.36365 0.75487 0.56249 0.0
O19 O 0.35573 0.64866 0.57088 0.0
C20 C 0.37047 0.70994 0.58643 0.0
C21 C 0.39702 0.53245 0.51653 0.0
C22 C 0.17514 0.56335 0.53977 0.0
C23 C 0.31875 0.63864 0.4327 0.0
O24 O 0.28534 0.57427 0.44628 0.0
O25 O 0.35287 0.69111 0.45805 0.0
O26 O 0.33423 0.47781 0.50779 0.0
O27 O 0.40112 0.59411 0.52075 0.0
O28 O 0.60169 0.20926 0.85881 0.0
Cd29 Cd 0.66073 0.31768 0.85403 0.0
Cd30 Cd 0.76457 0.29468 0.8394 0.0
O31 O 0.69767 0.20212 0.87531 0.0
O32 O 0.62207 0.35845 0.89637 0.0
O33 O 0.72378 0.3565 0.90381 0.0
C34 C 0.67512 0.36758 0.91995 0.0
C35 C 0.88393 0.3912 0.84998 0.0
C36 C 0.62891 0.17301 0.87305 0.0
C37 C 0.69469 0.31815 0.76661 0.0
O38 O 0.72657 0.28566 0.78007 0.0
O39 O 0.67571 0.35155 0.79199 0.0
O40 O 0.87165 0.32769 0.83945 0.0
O41 O 0.82869 0.39878 0.85612 0.0
O42 O 0.40938 0.59166 0.19226 0.0
Cd43 Cd 0.36286 0.65278 0.1872 0.0
Cd44 Cd 0.49046 0.75566 0.17312 0.0
O45 O 0.51277 0.68696 0.2099 0.0
O46 O 0.28236 0.61633 0.2291 0.0
O47 O 0.38907 0.71432 0.23783 0.0
C48 C 0.32764 0.66759 0.25328 0.0
C49 C 0.50571 0.8721 0.18418 0.0
C50 C 0.47206 0.61824 0.20769 0.0
C51 C 0.40054 0.68868 0.09964 0.0
O52 O 0.46469 0.71897 0.11356 0.0
O53 O 0.34775 0.67048 0.12474 0.0
O54 O 0.56048 0.86408 0.17591 0.0
O55 O 0.44382 0.81437 0.18778 0.0
O56 O 0.83147 0.39689 0.52531 0.0
Cd57 Cd 0.72373 0.35288 0.52082 0.0
Cd58 Cd 0.75132 0.48059 0.50579 0.0
O59 O 0.84248 0.50164 0.54211 0.0
O60 O 0.67754 0.27447 0.56384 0.0
O61 O 0.691 0.38327 0.57086 0.0
C62 C 0.67389 0.32188 0.58722 0.0
C63 C 0.65396 0.50179 0.5167 0.0
C64 C 0.86915 0.45987 0.54013 0.0
C65 C 0.72353 0.38862 0.4329 0.0
O66 O 0.75983 0.45301 0.44626 0.0
O67 O 0.68925 0.33685 0.45867 0.0
O68 O 0.71804 0.55433 0.50806 0.0
O69 O 0.64617 0.4385 0.52073 0.0
O70 O 0.45375 0.82986 0.85846 0.0
Cd71 Cd 0.39136 0.72201 0.85375 0.0
Cd72 Cd 0.2901 0.74809 0.83877 0.0
O73 O 0.35906 0.83899 0.87563 0.0
O74 O 0.4262 0.67723 0.89604 0.0
O75 O 0.32926 0.68762 0.90428 0.0
C76 C 0.375 0.67196 0.91998 0.0
C77 C 0.17321 0.64709 0.84937 0.0
C78 C 0.42772 0.86661 0.87353 0.0
C79 C 0.35662 0.72346 0.76593 0.0
O80 O 0.32747 0.75857 0.77942 0.0
O81 O 0.37347 0.68836 0.79138 0.0
O82 O 0.1818 0.71013 0.84118 0.0
O83 O 0.23063 0.64262 0.85324 0.0
C84 C 0.58775 0.07676 0.18573 0.0
C85 C 0.52698 0.08597 0.18729 0.0
C86 C 0.58059 1.00781 0.18553 0.0
C87 C 0.51236 0.94485 0.18734 0.0
H88 H 0.6416 0.12323 0.18362 0.0
H89 H 0.62906 1.004 0.18338 0.0
S90 S 0.33601 0.93901 0.19474 0.0
N91 N 0.39631 0.02592 0.19253 0.0
N92 N 0.38251 0.89666 0.19275 0.0
C93 C 0.45112 0.95331 0.19025 0.0
C94 C 0.4585 0.02363 0.19004 0.0
C95 C 0.45782 0.45782 0.51777 0.0
C96 C 0.4632 0.52598 0.51956 0.0
C97 C 0.51968 0.45081 0.518 0.0
C98 C 0.58983 0.51163 0.51955 0.0
H99 H 0.40541 0.40934 0.51567 0.0
H100 H 0.51221 0.39698 0.51593 0.0
S101 S 0.63418 0.70246 0.52665 0.0
N102 N 0.54514 0.65583 0.52473 0.0
N103 N 0.66074 0.64229 0.52457 0.0
C104 C 0.59609 0.58006 0.52219 0.0
C105 C 0.53306 0.58727 0.52237 0.0
C106 C 0.96835 0.52528 0.85335 0.0
C107 C 0.9584 0.45496 0.85263 0.0
C108 C 0.03764 0.5869 0.85293 0.0
C109 C 0.1002 0.58106 0.85228 0.0
H110 H 0.92214 0.53309 0.85326 0.0
H111 H 0.04204 0.63954 0.85269 0.0
S112 S 0.10428 0.4094 0.8524 0.0
N113 N 1.01748 0.38336 0.85261 0.0
N114 N 0.14736 0.49847 0.85239 0.0
C115 C 0.09108 0.51098 0.85271 0.0
C116 C 1.02042 0.44824 0.8527 0.0
C117 C 0.07105 0.58435 0.54858 0.0
C118 C 0.09767 0.53585 0.5494 0.0
C119 C 0.99683 0.55983 0.54887 0.0
C120 C 0.94611 0.4858 0.54997 0.0
H121 H 0.1077 0.64186 0.54552 0.0
H122 H 0.97931 0.59906 0.54553 0.0
S123 S 0.98707 0.33714 0.56099 0.0
N124 N 0.06707 0.41086 0.55748 0.0
N125 N 0.92755 0.36454 0.55851 0.0
C126 C 0.9719 0.43705 0.55478 0.0
C127 C 0.04764 0.46212 0.55443 0.0
C128 C 0.45435 0.99379 0.88192 0.0
C129 C 0.47824 0.94369 0.88341 0.0
C130 C 0.50378 0.06813 0.88151 0.0
C131 C 0.57911 0.09546 0.88258 0.0
H132 H 0.39746 0.97568 0.87835 0.0
H133 H 0.48249 0.1043 0.87816 0.0
S134 S 0.66857 0.98664 0.89514 0.0
N135 N 0.58162 0.92647 0.89254 0.0
N136 N 0.67428 0.06619 0.89127 0.0
C137 C 0.60334 0.04604 0.88797 0.0
C138 C 0.55296 0.97021 0.88845 0.0
C139 C 0.57285 0.5919 0.21527 0.0
C140 C 0.49888 0.56821 0.21784 0.0
C141 C 0.59744 0.54234 0.21474 0.0
C142 C 0.54907 0.46707 0.21675 0.0
H143 H 0.61172 0.64862 0.21086 0.0
H144 H 0.65476 0.56337 0.21047 0.0
S145 S 0.35114 0.37859 0.23259 0.0
N146 N 0.37829 0.46545 0.22917 0.0
N147 N 0.42466 0.3725 0.2277 0.0
C148 C 0.47566 0.44324 0.22333 0.0
C149 C 0.45056 0.49375 0.22393 0.0
C150 C 0.72832 0.37665 0.9907 0.0
C151 C 0.67431 0.37724 0.96574 0.0
C152 C 0.72119 0.36924 0.03417 0.0
C153 C 0.65951 0.36159 0.0543 0.0
H154 H 0.77509 0.37845 0.97649 0.0
H155 H 0.76271 0.36626 0.05183 0.0
S156 S 0.50839 0.37209 1.00431 0.0
N157 N 0.56143 0.37854 0.96526 0.0
N158 N 0.54785 0.36464 0.04662 0.0
C159 C 0.60758 0.36723 0.03007 0.0
C160 C 0.61509 0.37522 0.98591 0.0
C161 C 0.37124 0.71979 0.32427 0.0
C162 C 0.31626 0.66666 0.29897 0.0
C163 C 0.37058 0.71218 0.36772 0.0
C164 C 0.31519 0.65089 0.38749 0.0
H165 H 0.41719 0.76614 0.31033 0.0
H166 H 0.41544 0.75288 0.38564 0.0
S167 S 0.15219 0.50245 0.33656 0.0
N168 N 0.20033 0.5553 0.29778 0.0
N169 N 0.19888 0.54086 0.37916 0.0
C170 C 0.25724 0.60004 0.36293 0.0
C171 C 0.25772 0.60803 0.31878 0.0
C172 C 0.67582 0.37034 0.70101 0.0
C173 C 0.678 0.31366 0.72155 0.0
C174 C 0.66888 0.3699 0.65752 0.0
C175 C 0.66324 0.31248 0.633 0.0
H176 H 0.68316 0.41695 0.71834 0.0
H177 H 0.6716 0.41679 0.64292 0.0
S178 S 0.65197 0.14465 0.67303 0.0
N179 N 0.66371 0.19391 0.71497 0.0
N180 N 0.65053 0.19312 0.6335 0.0
C181 C 0.65932 0.25282 0.65366 0.0
C182 C 0.66691 0.2535 0.69784 0.0
C183 C 0.32201 0.66359 0.99073 0.0
C184 C 0.37486 0.66087 0.96567 0.0
C185 C 0.32877 0.66959 0.03425 0.0
C186 C 0.38891 0.67367 0.05433 0.0
H187 H 0.2766 0.66457 0.97658 0.0
H188 H 0.2884 0.67449 0.052 0.0
S189 S 0.53588 0.65619 1.00403 0.0
N190 N 0.48452 0.6535 0.96498 0.0
N191 N 0.49736 0.66476 0.04649 0.0
C192 C 0.43938 0.66573 0.02997 0.0
C193 C 0.43224 0.65916 0.98575 0.0
C194 C 0.77767 0.43152 0.36246 0.0
C195 C 0.72485 0.3759 0.38748 0.0
C196 C 0.77851 0.42467 0.31915 0.0
C197 C 0.72621 0.36207 0.29885 0.0
H198 H 0.81811 0.48192 0.37626 0.0
H199 H 0.81821 0.4705 0.3014 0.0
S200 S 0.58141 0.1969 0.35012 0.0
N201 N 0.62301 0.25327 0.38894 0.0
N202 N 0.6241 0.24021 0.3074 0.0
C203 C 0.67567 0.30414 0.32361 0.0
C204 C 0.67507 0.31108 0.36791 0.0
C205 C 0.37277 0.66781 0.70096 0.0
C206 C 0.3714 0.72559 0.72066 0.0
C207 C 0.37795 0.66582 0.65745 0.0
C208 C 0.38241 0.72176 0.63202 0.0
H209 H 0.36627 0.6222 0.71901 0.0
H210 H 0.37479 0.61818 0.64362 0.0
S211 S 0.39507 0.89168 0.66932 0.0
N212 N 0.38521 0.84488 0.71209 0.0
N213 N 0.39486 0.84096 0.63056 0.0
C214 C 0.38699 0.78247 0.65171 0.0
C215 C 0.38134 0.78434 0.69594 0.0
loop_
_geom_bond_atom_site_label_1
_geom_bond_atom_site_label_2
_geom_bond_distance
_geom_bond_site_symmetry_2
_ccdc_geom_bond_type
O0 Cd1 2.223 . S
O0 C8 1.315 . S
Cd1 O0 2.223 . S
Cd1 O4 2.297 . S
Cd1 O5 2.439 . S
Cd1 O11 2.240 . S
Cd2 O3 2.240 . S
Cd2 O10 2.223 . S
Cd2 O12 2.297 . S
Cd2 O13 2.439 . S
O3 Cd2 2.240 . S
O3 C8 1.279 . S
O4 Cd1 2.297 . S
O4 C6 1.247 . S
O5 Cd1 2.439 . S
O5 C6 1.208 . S
C6 O4 1.247 . S
C6 O5 1.208 . S
C7 O12 1.247 . S
C7 O13 1.208 . S
C8 O0 1.315 . S
C8 O3 1.279 . S
C9 O10 1.315 . S
C9 O11 1.279 . S
O10 Cd2 2.223 . S
O10 C9 1.315 . S
O11 Cd1 2.240 . S
O11 C9 1.279 . S
O12 Cd2 2.297 . S
O12 C7 1.247 . S
O13 Cd2 2.439 . S
O13 C7 1.208 . S
O14 Cd15 2.223 . S
O14 C22 1.315 . S
Cd15 O14 2.223 . S
Cd15 O18 2.297 . S
Cd15 O19 2.439 . S
Cd15 O25 2.240 . S
Cd16 O17 2.240 . S
Cd16 O24 2.223 . S
Cd16 O26 2.297 . S
Cd16 O27 2.439 . S
O17 Cd16 2.240 . S
O17 C22 1.279 . S
O18 Cd15 2.297 . S
O18 C20 1.247 . S
O19 Cd15 2.439 . S
O19 C20 1.208 . S
C20 O18 1.247 . S
C20 O19 1.208 . S
C21 O26 1.247 . S
C21 O27 1.208 . S
C22 O14 1.315 . S
C22 O17 1.279 . S
C23 O24 1.315 . S
C23 O25 1.279 . S
O24 Cd16 2.223 . S
O24 C23 1.315 . S
O25 Cd15 2.240 . S
O25 C23 1.279 . S
O26 Cd16 2.297 . S
O26 C21 1.247 . S
O27 Cd16 2.439 . S
O27 C21 1.208 . S
O28 Cd29 2.223 . S
O28 C36 1.315 . S
Cd29 O28 2.223 . S
Cd29 O32 2.297 . S
Cd29 O33 2.439 . S
Cd29 O39 2.240 . S
Cd30 O31 2.240 . S
Cd30 O38 2.223 . S
Cd30 O40 2.297 . S
Cd30 O41 2.439 . S
O31 Cd30 2.240 . S
O31 C36 1.279 . S
O32 Cd29 2.297 . S
O32 C34 1.247 . S
O33 Cd29 2.439 . S
O33 C34 1.208 . S
C34 O32 1.247 . S
C34 O33 1.208 . S
C35 O40 1.247 . S
C35 O41 1.208 . S
C36 O28 1.315 . S
C36 O31 1.279 . S
C37 O38 1.315 . S
C37 O39 1.279 . S
O38 Cd30 2.223 . S
O38 C37 1.315 . S
O39 Cd29 2.240 . S
O39 C37 1.279 . S
O40 Cd30 2.297 . S
O40 C35 1.247 . S
O41 Cd30 2.439 . S
O41 C35 1.208 . S
O42 Cd43 2.223 . S
O42 C50 1.315 . S
Cd43 O42 2.223 . S
Cd43 O46 2.297 . S
Cd43 O47 2.439 . S
Cd43 O53 2.240 . S
Cd44 O45 2.240 . S
Cd44 O52 2.223 . S
Cd44 O54 2.297 . S
Cd44 O55 2.439 . S
O45 Cd44 2.240 . S
O45 C50 1.279 . S
O46 Cd43 2.297 . S
O46 C48 1.247 . S
O47 Cd43 2.439 . S
O47 C48 1.208 . S
C48 O46 1.247 . S
C48 O47 1.208 . S
C49 O54 1.247 . S
C49 O55 1.208 . S
C50 O42 1.315 . S
C50 O45 1.279 . S
C51 O52 1.315 . S
C51 O53 1.279 . S
O52 Cd44 2.223 . S
O52 C51 1.315 . S
O53 Cd43 2.240 . S
O53 C51 1.279 . S
O54 Cd44 2.297 . S
O54 C49 1.247 . S
O55 Cd44 2.439 . S
O55 C49 1.208 . S
O56 Cd57 2.223 . S
O56 C64 1.315 . S
Cd57 O56 2.223 . S
Cd57 O60 2.297 . S
Cd57 O61 2.439 . S
Cd57 O67 2.240 . S
Cd58 O59 2.240 . S
Cd58 O66 2.223 . S
Cd58 O68 2.297 . S
Cd58 O69 2.439 . S
O59 Cd58 2.240 . S
O59 C64 1.279 . S
O60 Cd57 2.297 . S
O60 C62 1.247 . S
O61 Cd57 2.439 . S
O61 C62 1.208 . S
C62 O60 1.247 . S
C62 O61 1.208 . S
C63 O68 1.247 . S
C63 O69 1.208 . S
C64 O56 1.315 . S
C64 O59 1.279 . S
C65 O66 1.315 . S
C65 O67 1.279 . S
O66 Cd58 2.223 . S
O66 C65 1.315 . S
O67 Cd57 2.240 . S
O67 C65 1.279 . S
O68 Cd58 2.297 . S
O68 C63 1.247 . S
O69 Cd58 2.439 . S
O69 C63 1.208 . S
O70 Cd71 2.223 . S
O70 C78 1.315 . S
Cd71 O70 2.223 . S
Cd71 O74 2.297 . S
Cd71 O75 2.439 . S
Cd71 O81 2.240 . S
Cd72 O73 2.240 . S
Cd72 O80 2.223 . S
Cd72 O82 2.297 . S
Cd72 O83 2.439 . S
O73 Cd72 2.240 . S
O73 C78 1.279 . S
O74 Cd71 2.297 . S
O74 C76 1.247 . S
O75 Cd71 2.439 . S
O75 C76 1.208 . S
C76 O74 1.247 . S
C76 O75 1.208 . S
C77 O82 1.247 . S
C77 O83 1.208 . S
C78 O70 1.315 . S
C78 O73 1.279 . S
C79 O80 1.315 . S
C79 O81 1.279 . S
O80 Cd72 2.223 . S
O80 C79 1.315 . S
O81 Cd71 2.240 . S
O81 C79 1.279 . S
O82 Cd72 2.297 . S
O82 C77 1.247 . S
O83 Cd72 2.439 . S
O83 C77 1.208 . S
C84 C85 1.369 . S
C84 C86 1.419 1_545 S
C84 H88 0.930 . S
C85 C84 1.369 . S
C85 C94 1.429 . S
C86 C84 1.419 1_565 S
C86 C87 1.363 . S
C86 H89 0.929 . S
C87 C86 1.363 . S
C87 C93 1.428 . S
H88 C84 0.930 . S
H89 C86 0.929 . S
S90 N91 1.613 1_565 S
S90 N92 1.610 . S
N91 S90 1.613 1_545 S
N91 C94 1.350 . S
N92 S90 1.610 . S
N92 C93 1.351 . S
C93 C87 1.428 . S
C93 N92 1.351 . S
C93 C94 1.434 1_565 S
C94 C85 1.429 . S
C94 N91 1.350 . S
C94 C93 1.434 1_545 S
C95 C96 1.369 . S
C95 C97 1.419 . S
C95 H99 0.930 . S
C96 C95 1.369 . S
C96 C105 1.429 . S
C97 C95 1.419 . S
C97 C98 1.363 . S
C97 H100 0.929 . S
C98 C97 1.363 . S
C98 C104 1.428 . S
H99 C95 0.930 . S
H100 C97 0.929 . S
S101 N102 1.613 . S
S101 N103 1.610 . S
N102 S101 1.613 . S
N102 C105 1.350 . S
N103 S101 1.610 . S
N103 C104 1.351 . S
C104 C98 1.428 . S
C104 N103 1.351 . S
C104 C105 1.434 . S
C105 C96 1.429 . S
C105 N102 1.350 . S
C105 C104 1.434 . S
C106 C107 1.369 . S
C106 C108 1.419 1_655 S
C106 H110 0.930 . S
C107 C106 1.369 . S
C107 C116 1.429 . S
C108 C106 1.419 1_455 S
C108 C109 1.363 . S
C108 H111 0.929 . S
C109 C108 1.363 . S
C109 C115 1.428 . S
H110 C106 0.930 . S
H111 C108 0.929 . S
S112 N113 1.613 1_455 S
S112 N114 1.610 . S
N113 S112 1.613 1_655 S
N113 C116 1.350 . S
N114 S112 1.610 . S
N114 C115 1.351 . S
C115 C109 1.428 . S
C115 N114 1.351 . S
C115 C116 1.434 1_455 S
C116 C107 1.429 . S
C116 N113 1.350 . S
C116 C115 1.434 1_655 S
C117 C118 1.369 . S
C117 C119 1.419 1_455 S
C117 H121 0.930 . S
C118 C117 1.369 . S
C118 C127 1.429 . S
C119 C117 1.419 1_655 S
C119 C120 1.363 . S
C119 H122 0.929 . S
C120 C119 1.363 . S
C120 C126 1.428 . S
H121 C117 0.930 . S
H122 C119 0.929 . S
S123 N124 1.613 1_655 S
S123 N125 1.610 . S
N124 S123 1.613 1_455 S
N124 C127 1.350 . S
N125 S123 1.610 . S
N125 C126 1.351 . S
C126 C120 1.428 . S
C126 N125 1.351 . S
C126 C127 1.434 1_655 S
C127 C118 1.429 . S
C127 N124 1.350 . S
C127 C126 1.434 1_455 S
C128 C129 1.369 . S
C128 C130 1.419 1_565 S
C128 H132 0.930 . S
C129 C128 1.369 . S
C129 C138 1.429 . S
C130 C128 1.419 1_545 S
C130 C131 1.363 . S
C130 H133 0.929 . S
C131 C130 1.363 . S
C131 C137 1.428 . S
H132 C128 0.930 . S
H133 C130 0.929 . S
S134 N135 1.613 . S
S134 N136 1.610 1_565 S
N135 S134 1.613 . S
N135 C138 1.350 . S
N136 S134 1.610 1_545 S
N136 C137 1.351 . S
C137 C131 1.428 . S
C137 N136 1.351 . S
C137 C138 1.434 1_545 S
C138 C129 1.429 . S
C138 N135 1.350 . S
C138 C137 1.434 1_565 S
C139 C140 1.369 . S
C139 C141 1.419 . S
C139 H143 0.930 . S
C140 C139 1.369 . S
C140 C149 1.429 . S
C141 C139 1.419 . S
C141 C142 1.363 . S
C141 H144 0.929 . S
C142 C141 1.363 . S
C142 C148 1.428 . S
H143 C139 0.930 . S
H144 C141 0.929 . S
S145 N146 1.613 . S
S145 N147 1.610 . S
N146 S145 1.613 . S
N146 C149 1.350 . S
N147 S145 1.610 . S
N147 C148 1.351 . S
C148 C142 1.428 . S
C148 N147 1.351 . S
C148 C149 1.434 . S
C149 C140 1.429 . S
C149 N146 1.350 . S
C149 C148 1.434 . S
C150 C151 1.369 . S
C150 C152 1.419 1_556 S
C150 H154 0.930 . S
C151 C150 1.369 . S
C151 C160 1.429 . S
C152 C150 1.419 1_554 S
C152 C153 1.363 . S
C152 H155 0.929 . S
C153 C152 1.363 . S
C153 C159 1.428 . S
H154 C150 0.930 . S
H155 C152 0.929 . S
S156 N157 1.613 1_554 S
S156 N158 1.610 . S
N157 S156 1.613 1_556 S
N157 C160 1.350 . S
N158 S156 1.610 . S
N158 C159 1.351 . S
C159 C153 1.428 . S
C159 N158 1.351 . S
C159 C160 1.434 1_554 S
C160 C151 1.429 . S
C160 N157 1.350 . S
C160 C159 1.434 1_556 S
C161 C162 1.369 . S
C161 C163 1.419 . S
C161 H165 0.930 . S
C162 C161 1.369 . S
C162 C171 1.429 . S
C163 C161 1.419 . S
C163 C164 1.363 . S
C163 H166 0.929 . S
C164 C163 1.363 . S
C164 C170 1.428 . S
H165 C161 0.930 . S
H166 C163 0.929 . S
S167 N168 1.613 . S
S167 N169 1.610 . S
N168 S167 1.613 . S
N168 C171 1.350 . S
N169 S167 1.610 . S
N169 C170 1.351 . S
C170 C164 1.428 . S
C170 N169 1.351 . S
C170 C171 1.434 . S
C171 C162 1.429 . S
C171 N168 1.350 . S
C171 C170 1.434 . S
C172 C173 1.369 . S
C172 C174 1.419 . S
C172 H176 0.930 . S
C173 C172 1.369 . S
C173 C182 1.429 . S
C174 C172 1.419 . S
C174 C175 1.363 . S
C174 H177 0.929 . S
C175 C174 1.363 . S
C175 C181 1.428 . S
H176 C172 0.930 . S
H177 C174 0.929 . S
S178 N179 1.613 . S
S178 N180 1.610 . S
N179 S178 1.613 . S
N179 C182 1.350 . S
N180 S178 1.610 . S
N180 C181 1.351 . S
C181 C175 1.428 . S
C181 N180 1.351 . S
C181 C182 1.434 . S
C182 C173 1.429 . S
C182 N179 1.350 . S
C182 C181 1.434 . S
C183 C184 1.369 . S
C183 C185 1.419 1_556 S
C183 H187 0.930 . S
C184 C183 1.369 . S
C184 C193 1.429 . S
C185 C183 1.419 1_554 S
C185 C186 1.363 . S
C185 H188 0.929 . S
C186 C185 1.363 . S
C186 C192 1.428 . S
H187 C183 0.930 . S
H188 C185 0.929 . S
S189 N190 1.613 1_554 S
S189 N191 1.610 . S
N190 S189 1.613 1_556 S
N190 C193 1.350 . S
N191 S189 1.610 . S
N191 C192 1.351 . S
C192 C186 1.428 . S
C192 N191 1.351 . S
C192 C193 1.434 1_554 S
C193 C184 1.429 . S
C193 N190 1.350 . S
C193 C192 1.434 1_556 S
C194 C195 1.369 . S
C194 C196 1.419 . S
C194 H198 0.930 . S
C195 C194 1.369 . S
C195 C204 1.429 . S
C196 C194 1.419 . S
C196 C197 1.363 . S
C196 H199 0.929 . S
C197 C196 1.363 . S
C197 C203 1.428 . S
H198 C194 0.930 . S
H199 C196 0.929 . S
S200 N201 1.613 . S
S200 N202 1.610 . S
N201 S200 1.613 . S
N201 C204 1.350 . S
N202 S200 1.610 . S
N202 C203 1.351 . S
C203 C197 1.428 . S
C203 N202 1.351 . S
C203 C204 1.434 . S
C204 C195 1.429 . S
C204 N201 1.350 . S
C204 C203 1.434 . S
C205 C206 1.369 . S
C205 C207 1.419 . S
C205 H209 0.930 . S
C206 C205 1.369 . S
C206 C215 1.429 . S
C207 C205 1.419 . S
C207 C208 1.363 . S
C207 H210 0.929 . S
C208 C207 1.363 . S
C208 C214 1.428 . S
H209 C205 0.930 . S
H210 C207 0.929 . S
S211 N212 1.613 . S
S211 N213 1.610 . S
N212 S211 1.613 . S
N212 C215 1.350 . S
N213 S211 1.610 . S
N213 C214 1.351 . S
C214 C208 1.428 . S
C214 N213 1.351 . S
C214 C215 1.434 . S
C215 C206 1.429 . S
C215 N212 1.350 . S
C215 C214 1.434 . S
C85 C7 1.255 . S
C87 C49 1.257 . S
C96 C21 1.258 . S
C98 C63 1.256 . S
C107 C35 1.253 . S
C109 C77 1.255 . S
C118 C22 1.738 . S
C120 C64 1.734 . S
C129 C78 1.735 . S
C131 C36 1.739 . S
C140 C50 1.734 . S
C142 C8 1.736 . S
C151 C34 1.507 . S
C153 C9 1.359 . S
C162 C48 1.507 . S
C164 C23 1.360 . S
C173 C37 1.366 . S
C175 C62 1.506 . S
C184 C76 1.508 . S
C186 C51 1.359 . S
C195 C65 1.371 . S
C197 C6 1.505 . S
C206 C79 1.357 . S
C208 C20 1.507 . S
