# Generated by pormake.
# Topology pcu, (6)-cn, num edge types: 1
# Building blocks:
#     Node 0, Type 0, BuildingBlock: BETDAH_clean_sbu_0, # of connection points: 6
#     Edge 1, Type (0, 0), BuildingBlock: TEMPAE_clean_linker_10, # of connection points: 2
#     Edge 2, Type (0, 0), BuildingBlock: TEMPAE_clean_linker_10, # of connection points: 2
#     Edge 3, Type (0, 0), BuildingBlock: TEMPAE_clean_linker_10, # of connection points: 2
# Relax obj value: 0.000
# Max RMSD: 0.000
# Mean RMSD: 0.000
data_MOF--net-pcu--node1-BETDAH_clean_sbu_0--edge1-TEMPAE_clean_linker_10
_symmetry_space_group_name_H-M    P1
_symmetry_Int_Tables_number       1
_symmetry_cell_setting            triclinic
loop_
_symmetry_equiv_pos_as_xyz
'x, y, z'
_cell_length_a     25.459844
_cell_length_b     15.650895
_cell_length_c     14.61435
_cell_angle_alpha  87.274834
_cell_angle_beta   95.720674
_cell_angle_gamma 124.87713
loop_
_atom_site_label
_atom_site_type_symbol
_atom_site_fract_x
_atom_site_fract_y
_atom_site_fract_z
_atom_type_partial_charge
Ho0 Ho 0.95425 0.90971 0.01437 0.0
Ho1 Ho 0.09871 0.0451 0.99635 0.0
C2 C 0.03133 0.16121 0.99542 0.0
C3 C 0.83981 0.83379 0.06115 0.0
C4 C 0.79242 0.86124 0.04997 0.0
C5 C 0.79395 0.92788 0.11317 0.0
C6 C 0.74747 0.94979 0.10413 0.0
C7 C 0.69809 0.90527 0.03194 0.0
C8 C 0.69687 0.8391 0.96858 0.0
C9 C 0.74321 0.81705 0.9777 0.0
C10 C 0.98724 0.931 0.84052 0.0
C11 C 1.0222 0.79301 0.01552 0.0
C12 C 0.21488 0.12457 0.95535 0.0
C13 C 0.26147 0.09543 0.96461 0.0
C14 C 0.26377 0.03969 0.89416 0.0
C15 C 0.3094 0.016 0.90145 0.0
C16 C 0.35408 0.04779 0.97917 0.0
C17 C 0.35162 0.10327 0.04966 0.0
C18 C 0.3061 0.12711 0.04233 0.0
C19 C 0.06365 0.02342 0.16882 0.0
O20 O 0.98254 0.07425 0.0281 0.0
O21 O 0.07902 0.16544 0.96187 0.0
O22 O 0.85102 0.80547 0.98689 0.0
O23 O 0.89221 0.89302 0.11543 0.0
O24 O 0.93589 0.8496 0.86996 0.0
O25 O 1.01463 0.00184 0.90126 0.0
O26 O 0.07312 0.88168 0.98891 0.0
O27 O 0.97176 0.78611 0.04184 0.0
O28 O 0.20151 0.14694 0.03103 0.0
O29 O 0.16397 0.07007 0.8974 0.0
O30 O 0.11176 0.109 0.13769 0.0
O31 O 0.03848 0.95219 0.10875 0.0
H32 H 0.83064 0.96232 0.17037 0.0
H33 H 0.74946 -9e-05 0.15499 0.0
H34 H 0.66015 0.80445 0.91145 0.0
H35 H 0.74017 0.76469 0.92821 0.0
H36 H 0.23055 0.01482 0.83292 0.0
H37 H 0.30949 0.97231 0.84625 0.0
H38 H 0.38588 0.1304 0.10982 0.0
H39 H 0.30642 0.17148 0.09731 0.0
C40 C 0.07115 0.09629 0.32106 0.0
C41 C 0.0476 0.00906 0.26518 0.0
C42 C 0.05946 0.08526 0.4142 0.0
C43 C 1.02441 -0.01544 0.45276 0.0
C44 C 0.99972 0.896 0.39612 0.0
C45 C 1.01107 0.90929 0.3026 0.0
C46 C 0.08543 0.18147 0.47164 0.0
C47 C 0.96278 0.78744 0.43484 0.0
C48 C 0.05284 0.96415 0.71106 0.0
C49 C 0.99799 0.94889 0.74239 0.0
C50 C 0.06199 0.97562 0.61688 0.0
C51 C 1.01516 0.97228 0.55287 0.0
C52 C 0.95971 0.95739 0.58469 0.0
C53 C 0.95148 0.94474 0.6792 0.0
C54 C 0.12127 -0.01029 0.5858 0.0
C55 C 0.90916 0.95484 0.51895 0.0
H56 H 0.09897 0.17352 0.29191 0.0
H57 H 0.99292 0.84179 0.25941 0.0
H58 H 0.04608 0.17436 0.50577 0.0
H59 H 0.12136 0.18951 0.52666 0.0
H60 H 0.10856 0.25353 0.43008 0.0
H61 H 0.94588 0.72673 0.38139 0.0
H62 H 0.99368 0.7805 0.48941 0.0
H63 H 0.92051 0.77189 0.46709 0.0
H64 H 0.0876 0.96387 0.75985 0.0
H65 H 0.90878 0.93204 0.70392 0.0
H66 H 0.14925 0.06393 0.54816 0.0
H67 H 0.1071 0.92585 0.5375 0.0
H68 H 0.15295 -0.00964 0.64427 0.0
H69 H 0.93129 0.02813 0.47932 0.0
H70 H 0.8696 0.94489 0.55497 0.0
H71 H 0.88837 0.88996 0.46865 0.0
C72 C 0.41955 -0.0067 0.06978 0.0
C73 C 0.40382 0.02496 0.98614 0.0
C74 C 0.46719 0.97354 0.07779 0.0
C75 C 0.5001 -0.01434 1.00032 0.0
C76 C 0.48427 0.01705 0.91558 0.0
C77 C 0.43641 0.03627 0.90952 0.0
C78 C 0.48234 0.93973 0.16927 0.0
C79 C 0.51819 0.03098 0.83136 0.0
C80 C 0.66331 0.02633 0.0406 0.0
C81 C 0.64746 0.92627 0.02347 0.0
C82 C 0.61596 0.04676 0.03327 0.0
C83 C 0.55102 0.96533 1.00794 0.0
C84 C 0.53469 0.8643 0.99028 0.0
C85 C 0.58295 0.84598 0.99845 0.0
C86 C 0.63545 0.15562 0.05259 0.0
C87 C 0.46609 0.77528 0.96311 0.0
H88 H 0.3941 -0.01702 0.12904 0.0
H89 H 0.42527 0.06202 0.84494 0.0
H90 H 0.47431 0.86279 0.16165 0.0
H91 H 0.53374 -0.00408 0.1933 0.0
H92 H 0.45246 0.93394 0.22289 0.0
H93 H 0.4999 0.05484 0.7704 0.0
H94 H 0.57052 0.09092 0.84523 0.0
H95 H 0.51202 0.95718 0.81454 0.0
H96 H 0.71303 0.08926 0.05873 0.0
H97 H 0.5699 0.76804 0.98645 0.0
H98 H 0.60933 0.15436 0.10961 0.0
H99 H 0.62203 0.18592 0.99118 0.0
H100 H 0.68791 0.21033 0.07144 0.0
H101 H 0.43519 0.76199 0.01809 0.0
H102 H 0.4614 0.70166 0.95055 0.0
H103 H 0.44743 0.79505 0.8998 0.0
C104 C 0.96744 0.60313 0.98887 0.0
C105 C 1.02306 0.69992 0.01683 0.0
C106 C 0.96908 0.51543 0.98346 0.0
C107 C 1.0272 0.5246 1.00987 0.0
C108 C 0.08305 0.62186 0.04064 0.0
C109 C 0.08057 0.70894 0.04209 0.0
C110 C 0.90908 0.41362 0.94777 0.0
C111 C 0.14525 0.63384 0.07254 0.0
C112 C 1.01172 0.27472 0.07612 0.0
C113 C 0.03216 0.25556 0.99896 0.0
C114 C 1.01126 0.36337 0.08143 0.0
C115 C 0.02943 0.43217 1.00618 0.0
C116 C 0.04957 0.41249 0.92757 0.0
C117 C 0.05186 0.32508 0.92564 0.0
C118 C 0.99172 0.38365 0.16772 0.0
C119 C 0.06744 0.48255 0.84496 0.0
H120 H 0.92324 0.59687 0.96829 0.0
H121 H 0.12349 0.78404 0.06414 0.0
H122 H 0.91912 0.38598 0.88765 0.0
H123 H 0.89388 0.35313 1.00133 0.0
H124 H 0.86853 0.42063 0.92687 0.0
H125 H 0.18352 0.71401 0.09787 0.0
H126 H 0.13714 0.57825 0.12862 0.0
H127 H 0.16268 0.61503 0.01533 0.0
H128 H 0.99709 0.22104 0.13316 0.0
H129 H 0.06716 0.30933 0.86578 0.0
H130 H 0.94761 0.38185 0.15159 0.0
H131 H 0.03006 0.46242 0.19569 0.0
H132 H 0.98238 0.32542 0.22186 0.0
H133 H 1.0267 0.48725 0.81893 0.0
H134 H 0.08018 0.45455 0.78827 0.0
H135 H 0.10888 0.56266 0.86474 0.0
loop_
_geom_bond_atom_site_label_1
_geom_bond_atom_site_label_2
_geom_bond_distance
_geom_bond_site_symmetry_2
_ccdc_geom_bond_type
Ho0 C3 2.811 . S
Ho0 O20 2.322 1_565 S
Ho0 O22 2.378 . S
Ho0 O23 2.524 1_556 S
Ho0 O24 2.381 . S
Ho0 O25 2.669 1_665 S
Ho0 O27 2.346 . S
Ho0 O31 2.305 1_556 S
Ho1 C12 2.811 . S
Ho1 O21 2.346 . S
Ho1 O25 2.305 1_554 S
Ho1 O26 2.322 1_545 S
Ho1 O28 2.378 . S
Ho1 O29 2.524 1_554 S
Ho1 O30 2.381 . S
Ho1 O31 2.669 1_445 S
C2 O20 1.259 1_455 S
C2 O21 1.268 1_556 S
C3 Ho0 2.811 . S
C3 C4 1.490 . S
C3 O22 1.215 . S
C3 O23 1.289 1_556 S
C4 C3 1.490 . S
C4 C5 1.338 1_566 S
C4 C9 1.422 . S
C5 C4 1.338 1_544 S
C5 C6 1.442 . S
C5 H32 0.930 . S
C6 C5 1.442 . S
C6 C7 1.381 1_544 S
C6 H33 0.931 . S
C7 C6 1.381 1_566 S
C7 C8 1.321 . S
C8 C7 1.321 . S
C8 C9 1.403 . S
C8 H34 0.934 . S
C9 C4 1.422 . S
C9 C8 1.403 . S
C9 H35 0.930 . S
C10 O24 1.275 . S
C10 O25 1.256 1_665 S
C11 O26 1.259 1_655 S
C11 O27 1.268 1_554 S
C12 Ho1 2.811 . S
C12 C13 1.488 . S
C12 O28 1.215 . S
C12 O29 1.289 1_554 S
C13 C12 1.488 . S
C13 C14 1.348 1_544 S
C13 C18 1.413 . S
C14 C13 1.348 1_566 S
C14 C15 1.442 . S
C14 H36 0.930 . S
C15 C14 1.442 . S
C15 C16 1.381 1_566 S
C15 H37 0.931 . S
C16 C15 1.381 1_544 S
C16 C17 1.321 . S
C17 C16 1.321 . S
C17 C18 1.403 . S
C17 H38 0.934 . S
C18 C13 1.413 . S
C18 C17 1.403 . S
C18 H39 0.930 . S
C19 O30 1.275 . S
C19 O31 1.256 1_445 S
O20 Ho0 2.322 1_545 S
O20 C2 1.259 1_655 S
O21 Ho1 2.346 . S
O21 C2 1.268 1_554 S
O22 Ho0 2.378 . S
O22 C3 1.215 . S
O23 Ho0 2.524 1_554 S
O23 C3 1.289 1_554 S
O24 Ho0 2.381 . S
O24 C10 1.275 . S
O25 Ho0 2.669 1_445 S
O25 Ho1 2.305 1_556 S
O25 C10 1.256 1_445 S
O26 Ho1 2.322 1_565 S
O26 C11 1.259 1_455 S
O27 Ho0 2.346 . S
O27 C11 1.268 1_556 S
O28 Ho1 2.378 . S
O28 C12 1.215 . S
O29 Ho1 2.524 1_556 S
O29 C12 1.289 1_556 S
O30 Ho1 2.381 . S
O30 C19 1.275 . S
O31 Ho0 2.305 1_554 S
O31 Ho1 2.669 1_665 S
O31 C19 1.256 1_665 S
H32 C5 0.930 . S
H33 C6 0.931 . S
H34 C8 0.934 . S
H35 C9 0.930 . S
H36 C14 0.930 . S
H37 C15 0.931 . S
H38 C17 0.934 . S
H39 C18 0.930 . S
C40 C41 1.386 1_445 S
C40 C42 1.394 . S
C40 H56 0.931 . S
C41 C40 1.386 1_665 S
C41 C45 1.380 . S
C42 C40 1.394 . S
C42 C43 1.372 1_455 S
C42 C46 1.531 . S
C43 C42 1.372 1_655 S
C43 C44 1.406 1_545 S
C43 C51 1.504 1_545 S
C44 C43 1.406 1_565 S
C44 C45 1.392 . S
C44 C47 1.511 . S
C45 C41 1.380 . S
C45 C44 1.392 . S
C45 H57 0.929 . S
C46 C42 1.531 . S
C46 H58 0.960 . S
C46 H59 0.962 . S
C46 H60 0.960 . S
C47 C44 1.511 . S
C47 H61 0.961 . S
C47 H62 0.961 . S
C47 H63 0.961 . S
C48 C49 1.375 1_445 S
C48 C50 1.363 . S
C48 H64 0.931 . S
C49 C48 1.375 1_665 S
C49 C53 1.403 . S
C50 C48 1.363 . S
C50 C51 1.370 1_445 S
C50 C54 1.524 . S
C51 C43 1.504 1_565 S
C51 C50 1.370 1_665 S
C51 C52 1.403 . S
C52 C51 1.403 . S
C52 C53 1.404 . S
C52 C55 1.539 . S
C53 C49 1.403 . S
C53 C52 1.404 . S
C53 H65 0.930 . S
C54 C50 1.524 . S
C54 H66 0.956 . S
C54 H67 0.961 1_545 S
C54 H68 0.961 . S
C55 C52 1.539 . S
C55 H69 0.958 1_565 S
C55 H70 0.961 . S
C55 H71 0.960 . S
H56 C40 0.931 . S
H57 C45 0.929 . S
H58 C46 0.960 . S
H59 C46 0.962 . S
H60 C46 0.960 . S
H61 C47 0.961 . S
H62 C47 0.961 . S
H63 C47 0.961 . S
H64 C48 0.931 . S
H65 C53 0.930 . S
H66 C54 0.956 . S
H67 C54 0.961 1_565 S
H68 C54 0.961 . S
H69 C55 0.958 1_545 S
H70 C55 0.961 . S
H71 C55 0.960 . S
C72 C73 1.391 1_554 S
C72 C74 1.394 . S
C72 H88 0.931 . S
C73 C72 1.391 1_556 S
C73 C77 1.376 1_565 S
C74 C72 1.394 . S
C74 C75 1.369 1_554 S
C74 C78 1.531 . S
C75 C74 1.369 1_556 S
C75 C76 1.410 1_565 S
C75 C83 1.503 . S
C76 C75 1.410 1_545 S
C76 C77 1.392 . S
C76 C79 1.511 . S
C77 C73 1.376 1_545 S
C77 C76 1.392 . S
C77 H89 0.929 . S
C78 C74 1.531 . S
C78 H90 0.960 . S
C78 H91 0.962 . S
C78 H92 0.960 . S
C79 C76 1.511 . S
C79 H93 0.961 . S
C79 H94 0.961 . S
C79 H95 0.961 1_545 S
C80 C81 1.370 1_544 S
C80 C82 1.363 . S
C80 H96 0.931 . S
C81 C80 1.370 1_566 S
C81 C85 1.408 . S
C82 C80 1.363 . S
C82 C83 1.370 1_544 S
C82 C86 1.524 . S
C83 C75 1.503 . S
C83 C82 1.370 1_566 S
C83 C84 1.403 . S
C84 C83 1.403 . S
C84 C85 1.404 . S
C84 C87 1.539 . S
C85 C81 1.408 . S
C85 C84 1.404 . S
C85 H97 0.930 . S
C86 C82 1.524 . S
C86 H98 0.956 . S
C86 H99 0.961 1_554 S
C86 H100 0.961 . S
C87 C84 1.539 . S
C87 H101 0.958 1_556 S
C87 H102 0.961 . S
C87 H103 0.960 . S
H88 C72 0.931 . S
H89 C77 0.929 . S
H90 C78 0.960 . S
H91 C78 0.962 . S
H92 C78 0.960 . S
H93 C79 0.961 . S
H94 C79 0.961 . S
H95 C79 0.961 1_565 S
H96 C80 0.931 . S
H97 C85 0.930 . S
H98 C86 0.956 . S
H99 C86 0.961 1_556 S
H100 C86 0.961 . S
H101 C87 0.958 1_554 S
H102 C87 0.961 . S
H103 C87 0.960 . S
C104 C105 1.391 1_655 S
C104 C106 1.394 . S
C104 H120 0.931 . S
C105 C104 1.391 1_455 S
C105 C109 1.376 1_556 S
C106 C104 1.394 . S
C106 C107 1.369 1_655 S
C106 C110 1.531 . S
C107 C106 1.369 1_455 S
C107 C108 1.410 1_556 S
C107 C115 1.503 . S
C108 C107 1.410 1_554 S
C108 C109 1.392 . S
C108 C111 1.511 . S
C109 C105 1.376 1_554 S
C109 C108 1.392 . S
C109 H121 0.929 . S
C110 C106 1.531 . S
C110 H122 0.960 . S
C110 H123 0.962 . S
C110 H124 0.960 . S
C111 C108 1.511 . S
C111 H125 0.961 . S
C111 H126 0.961 . S
C111 H127 0.961 . S
C112 C113 1.370 1_654 S
C112 C114 1.363 . S
C112 H128 0.931 . S
C113 C112 1.370 1_456 S
C113 C117 1.408 . S
C114 C112 1.363 . S
C114 C115 1.370 1_654 S
C114 C118 1.524 . S
C115 C107 1.503 . S
C115 C114 1.370 1_456 S
C115 C116 1.403 . S
C116 C115 1.403 . S
C116 C117 1.404 . S
C116 C119 1.539 . S
C117 C113 1.408 . S
C117 C116 1.404 . S
C117 H129 0.930 . S
C118 C114 1.524 . S
C118 H130 0.956 . S
C118 H131 0.961 . S
C118 H132 0.961 . S
C119 C116 1.539 . S
C119 H133 0.958 . S
C119 H134 0.961 . S
C119 H135 0.960 . S
H120 C104 0.931 . S
H121 C109 0.929 . S
H122 C110 0.960 . S
H123 C110 0.962 . S
H124 C110 0.960 . S
H125 C111 0.961 . S
H126 C111 0.961 . S
H127 C111 0.961 . S
H128 C112 0.931 . S
H129 C117 0.930 . S
H130 C118 0.956 . S
H131 C118 0.961 . S
H132 C118 0.961 . S
H133 C119 0.958 . S
H134 C119 0.961 . S
H135 C119 0.960 . S
C41 C19 1.480 1_665 S
C49 C10 1.448 . S
C73 C16 1.498 1_566 S
C81 C7 1.497 . S
C105 C11 1.499 1_456 S
C113 C2 1.485 . S
