# Generated by pormake.
# Topology cds, (4)-cn, num edge types: 1
# Building blocks:
#     Node 0, Type 0, BuildingBlock: NAWXER_clean_sbu_0, # of connection points: 4
#     Node 1, Type 0, BuildingBlock: NAWXER_clean_sbu_0, # of connection points: 4
#     Edge 2, Type (0, 0), BuildingBlock: FUNLAD_clean_linker_0, # of connection points: 2
#     Edge 3, Type (0, 0), BuildingBlock: FUNLAD_clean_linker_0, # of connection points: 2
#     Edge 4, Type (0, 0), BuildingBlock: FUNLAD_clean_linker_0, # of connection points: 2
#     Edge 5, Type (0, 0), BuildingBlock: FUNLAD_clean_linker_0, # of connection points: 2
# Relax obj value: 0.000
# Max RMSD: 0.000
# Mean RMSD: 0.000
data_MOF--net-cds--node1-NAWXER_clean_sbu_0--edge1-FUNLAD_clean_linker_0
_symmetry_space_group_name_H-M    P1
_symmetry_Int_Tables_number       1
_symmetry_cell_setting            triclinic
loop_
_symmetry_equiv_pos_as_xyz
'x, y, z'
_cell_length_a     17.266659
_cell_length_b     17.272364
_cell_length_c     34.128109
_cell_angle_alpha  96.445342
_cell_angle_beta   96.848246
_cell_angle_gamma 89.233986
loop_
_atom_site_label
_atom_site_type_symbol
_atom_site_fract_x
_atom_site_fract_y
_atom_site_fract_z
_atom_type_partial_charge
C0 C 0.09548 0.86546 0.98988 0.0
C1 C 0.8132 0.85038 0.99163 0.0
O2 O 0.05397 0.80416 0.98574 0.0
Zn3 Zn 0.95456 0.85603 0.99086 0.0
O4 O 0.06297 0.9323 0.99569 0.0
Zn5 Zn 0.94867 0.97951 1.00088 0.0
O6 O 0.9583 0.03205 0.05419 0.0
O7 O 0.96804 0.90422 0.05241 0.0
O8 O 0.83935 0.92038 0.99699 0.0
O9 O 0.86029 0.79393 0.98655 0.0
O10 O 0.93698 0.91528 0.93804 0.0
O11 O 0.93387 0.04162 0.95697 0.0
C12 C 0.96796 0.97177 0.0724 0.0
C13 C 0.93052 0.98564 0.92927 0.0
C14 C 0.11429 0.21406 0.51858 0.0
C15 C 0.12895 0.93136 0.52035 0.0
O16 O 0.17559 0.17294 0.52343 0.0
Zn17 Zn 0.12341 0.07295 0.5199 0.0
O18 O 0.04725 0.18103 0.51419 0.0
Zn19 Zn 0.99979 0.06633 0.5116 0.0
O20 O 0.94103 0.07355 0.55646 0.0
O21 O 0.0681 0.08245 0.57379 0.0
O22 O 0.05884 0.95712 0.51563 0.0
O23 O 0.1856 0.97889 0.52384 0.0
O24 O 0.07089 0.05808 0.45877 0.0
O25 O 0.94334 0.05319 0.45908 0.0
C26 C 0.99855 0.08147 0.58351 0.0
C27 C 1.00201 0.05181 0.4398 0.0
C28 C 0.9587 0.04748 0.139 0.0
C29 C 0.97846 0.97853 0.11637 0.0
C30 C 0.96701 0.05253 0.18054 0.0
C31 C 0.99598 0.98887 0.20022 0.0
C32 C 0.0172 0.92074 0.17759 0.0
C33 C 0.00779 0.91525 0.13614 0.0
C34 C 0.00751 0.99241 0.24423 0.0
C35 C 0.96185 0.03474 0.26795 0.0
C36 C 0.9731 0.03676 0.31194 0.0
C37 C 0.90846 0.04962 0.33319 0.0
C38 C 0.91739 0.05305 0.37466 0.0
C39 C 0.99156 0.04509 0.3958 0.0
H40 H 0.09883 0.0209 0.31785 0.0
C41 C 0.05638 0.03291 0.37453 0.0
C42 C 0.04732 0.0287 0.33309 0.0
H43 H 0.11442 0.02703 0.38988 0.0
H44 H 0.93618 0.09732 0.12464 0.0
H45 H 0.95201 0.1067 0.1971 0.0
H46 H 0.04037 0.87117 0.19202 0.0
H47 H 0.02409 0.86148 0.11961 0.0
H48 H 0.05235 0.95512 0.25725 0.0
H49 H 0.91201 0.06577 0.25473 0.0
H50 H 0.85075 0.05665 0.31765 0.0
H51 H 0.86633 0.06306 0.39014 0.0
C52 C 0.93488 0.07534 0.87645 0.0
C53 C 0.92181 1.00069 0.88708 0.0
C54 C 0.93156 0.08775 0.83642 0.0
C55 C 0.91453 0.02574 0.80624 0.0
C56 C 0.8985 0.95203 0.81693 0.0
C57 C 0.9028 0.9394 0.85685 0.0
C58 C 0.91354 0.03534 0.76344 0.0
C59 C 0.96015 0.08594 0.75007 0.0
C60 C 0.96675 0.08814 0.70716 0.0
C61 C 0.03829 0.10944 0.69583 0.0
C62 C 0.04824 0.10815 0.65572 0.0
C63 C 0.98631 0.08686 0.62598 0.0
H64 H 0.84735 0.05428 0.68519 0.0
C65 C 0.91368 0.06845 0.63732 0.0
C66 C 0.904 0.06888 0.6775 0.0
H67 H 0.86466 0.05228 0.61516 0.0
H68 H 0.94922 0.12386 0.89903 0.0
H69 H 0.94213 0.14586 0.82924 0.0
H70 H 0.88453 0.90344 0.7943 0.0
H71 H 0.89171 0.88132 0.86399 0.0
H72 H 0.87898 0.99405 0.74224 0.0
H73 H 1.00053 0.12176 0.77121 0.0
H74 H 0.08736 0.12521 0.71806 0.0
H75 H 0.10478 0.12331 0.64804 0.0
C76 C 0.67988 0.90057 1.00123 0.0
C77 C 0.72854 0.83713 0.99161 0.0
C78 C 0.59991 0.89019 1.00082 0.0
C79 C 0.56589 0.81608 0.9902 0.0
C80 C 0.61461 0.7521 0.98163 0.0
C81 C 0.69522 0.7625 0.98216 0.0
C82 C 0.48027 0.80448 0.98911 0.0
C83 C 0.42867 0.86128 0.98057 0.0
C84 C 0.34324 0.85803 0.98278 0.0
C85 C 0.30219 0.92874 0.98432 0.0
C86 C 0.22226 0.9306 0.9868 0.0
C87 C 0.18061 0.8615 0.9874 0.0
H88 H 0.33085 0.73249 0.98131 0.0
C89 C 0.22112 0.79022 0.98538 0.0
C90 C 0.30183 0.7884 0.98318 0.0
H91 H 0.19059 0.73592 0.98558 0.0
H92 H 0.70355 0.9587 0.00936 0.0
H93 H 0.56525 0.9405 0.00945 0.0
H94 H 0.59014 0.69419 0.97398 0.0
H95 H 0.7312 0.71231 0.97489 0.0
H96 H 0.46032 0.74864 0.99571 0.0
H97 H 0.4504 0.91547 0.97267 0.0
H98 H 0.33225 0.9833 0.98395 0.0
H99 H 0.19311 0.98659 0.98807 0.0
C100 C 0.07793 0.79747 0.52196 0.0
C101 C 0.14208 0.84671 0.52203 0.0
C102 C 0.08831 0.71763 0.52325 0.0
C103 C 0.16322 0.68431 0.52407 0.0
C104 C 0.22775 0.73358 0.52513 0.0
C105 C 0.21734 0.81406 0.52396 0.0
C106 C 0.17495 0.5989 0.52516 0.0
C107 C 0.11969 0.54681 0.50859 0.0
C108 C 0.12258 0.46163 0.51188 0.0
C109 C 0.0521 0.42026 0.50353 0.0
C110 C 0.04992 0.34046 0.50612 0.0
C111 C 0.1185 0.29924 0.51675 0.0
H112 H 0.24748 0.45004 0.5285 0.0
C113 C 0.18959 0.34011 0.52483 0.0
C114 C 0.1917 0.42071 0.52252 0.0
H115 H 0.24352 0.3099 0.53289 0.0
H116 H 0.0192 0.82058 0.5212 0.0
H117 H 0.03728 0.68258 0.52428 0.0
H118 H 0.2862 0.70966 0.52639 0.0
H119 H 0.26805 0.85049 0.52436 0.0
H120 H 0.22951 0.57949 0.54014 0.0
H121 H 0.06691 0.56791 0.49255 0.0
H122 H 0.99794 0.44995 0.49518 0.0
H123 H 0.99411 0.31105 0.49945 0.0
loop_
_geom_bond_atom_site_label_1
_geom_bond_atom_site_label_2
_geom_bond_distance
_geom_bond_site_symmetry_2
_ccdc_geom_bond_type
C0 O2 1.251 1_554 S
C0 O4 1.257 1_565 S
C1 O8 1.255 1_556 S
C1 O9 1.254 1_545 S
O2 C0 1.251 1_556 S
O2 Zn3 2.025 . S
Zn3 O2 2.025 . S
Zn3 O7 2.035 1_556 S
Zn3 O9 2.036 1_455 S
Zn3 O10 2.028 1_455 S
O4 C0 1.257 1_545 S
O4 Zn5 2.036 . S
Zn5 O4 2.036 . S
Zn5 O6 2.028 . S
Zn5 O8 2.025 1_455 S
Zn5 O11 2.035 1_454 S
O6 Zn5 2.028 . S
O6 C12 1.251 . S
O7 Zn3 2.035 1_554 S
O7 C12 1.254 1_565 S
O8 C1 1.255 1_554 S
O8 Zn5 2.025 1_655 S
O9 C1 1.254 1_565 S
O9 Zn3 2.036 1_655 S
O10 Zn3 2.028 1_655 S
O10 C13 1.248 . S
O11 Zn5 2.035 1_656 S
O11 C13 1.257 1_545 S
C12 O6 1.251 . S
C12 O7 1.254 1_545 S
C13 O10 1.248 . S
C13 O11 1.257 1_565 S
C14 O16 1.251 . S
C14 O18 1.254 1_455 S
C15 O22 1.248 . S
C15 O23 1.257 1_655 S
O16 C14 1.251 . S
O16 Zn17 2.043 . S
Zn17 O16 2.043 . S
Zn17 O21 2.034 . S
Zn17 O23 2.020 1_545 S
Zn17 O24 2.029 1_545 S
O18 C14 1.254 1_655 S
O18 Zn19 2.024 1_545 S
Zn19 O18 2.024 1_565 S
Zn19 O20 2.029 1_565 S
Zn19 O22 2.039 . S
Zn19 O25 2.034 . S
O20 Zn19 2.029 1_545 S
O20 C26 1.248 . S
O21 Zn17 2.034 . S
O21 C26 1.257 1_455 S
O22 C15 1.248 . S
O22 Zn19 2.039 . S
O23 C15 1.257 1_455 S
O23 Zn17 2.020 1_565 S
O24 Zn17 2.029 1_565 S
O24 C27 1.251 . S
O25 Zn19 2.034 . S
O25 C27 1.254 1_655 S
C26 O20 1.248 . S
C26 O21 1.257 1_655 S
C27 O24 1.251 . S
C27 O25 1.254 1_455 S
C28 C29 1.381 1_645 S
C28 C30 1.383 . S
C28 H44 0.951 . S
C29 C28 1.381 1_465 S
C29 C33 1.387 . S
C30 C28 1.383 . S
C30 C31 1.402 1_645 S
C30 H45 0.951 . S
C31 C30 1.402 1_465 S
C31 C32 1.375 . S
C31 C34 1.481 . S
C32 C31 1.375 . S
C32 C33 1.367 . S
C32 H46 0.951 . S
C33 C29 1.387 . S
C33 C32 1.367 . S
C33 H47 0.950 . S
C34 C31 1.481 . S
C34 C35 1.297 1_455 S
C34 H48 0.950 . S
C35 C34 1.297 1_655 S
C35 C36 1.479 . S
C35 H49 0.950 1_565 S
C36 C35 1.479 . S
C36 C37 1.375 1_565 S
C36 C42 1.404 1_655 S
C37 C36 1.375 1_545 S
C37 C38 1.369 . S
C37 H50 0.950 . S
C38 C37 1.369 . S
C38 C39 1.392 1_545 S
C38 H51 0.951 . S
C39 C38 1.392 1_565 S
C39 C41 1.384 1_655 S
H40 C42 0.949 . S
C41 C39 1.384 1_455 S
C41 C42 1.385 . S
C41 H43 0.950 . S
C42 C36 1.404 1_455 S
C42 H40 0.949 . S
C42 C41 1.385 . S
H43 C41 0.950 . S
H44 C28 0.951 . S
H45 C30 0.951 . S
H46 C32 0.951 . S
H47 C33 0.950 . S
H48 C34 0.950 . S
H49 C35 0.950 1_545 S
H50 C37 0.950 . S
H51 C38 0.951 . S
C52 C53 1.386 1_445 S
C52 C54 1.383 . S
C52 H68 0.951 . S
C53 C52 1.386 1_665 S
C53 C57 1.383 . S
C54 C52 1.383 . S
C54 C55 1.402 1_445 S
C54 H69 0.951 . S
C55 C54 1.402 1_665 S
C55 C56 1.375 . S
C55 C58 1.481 . S
C56 C55 1.375 . S
C56 C57 1.367 . S
C56 H70 0.951 . S
C57 C53 1.383 . S
C57 C56 1.367 . S
C57 H71 0.950 . S
C58 C55 1.481 . S
C58 C59 1.297 1_655 S
C58 H72 0.950 . S
C59 C58 1.297 1_455 S
C59 C60 1.479 . S
C59 H73 0.950 1_565 S
C60 C59 1.479 . S
C60 C61 1.375 1_565 S
C60 C66 1.404 1_455 S
C61 C60 1.375 1_545 S
C61 C62 1.369 . S
C61 H74 0.950 . S
C62 C61 1.369 . S
C62 C63 1.392 1_545 S
C62 H75 0.951 . S
C63 C62 1.392 1_565 S
C63 C65 1.384 1_455 S
H64 C66 0.949 . S
C65 C63 1.384 1_655 S
C65 C66 1.385 . S
C65 H67 0.950 . S
C66 C60 1.404 1_655 S
C66 H64 0.949 . S
C66 C65 1.385 . S
H67 C65 0.950 . S
H68 C52 0.951 . S
H69 C54 0.951 . S
H70 C56 0.951 . S
H71 C57 0.950 . S
H72 C58 0.950 . S
H73 C59 0.950 1_545 S
H74 C61 0.950 . S
H75 C62 0.951 . S
C76 C77 1.370 1_546 S
C76 C78 1.383 . S
C76 H92 0.951 . S
C77 C76 1.370 1_564 S
C77 C81 1.403 . S
C78 C76 1.383 . S
C78 C79 1.402 1_546 S
C78 H93 0.951 . S
C79 C78 1.402 1_564 S
C79 C80 1.375 . S
C79 C82 1.481 . S
C80 C79 1.375 . S
C80 C81 1.367 . S
C80 H94 0.951 . S
C81 C77 1.403 . S
C81 C80 1.367 . S
C81 H95 0.950 . S
C82 C79 1.481 . S
C82 C83 1.297 1_554 S
C82 H96 0.950 . S
C83 C82 1.297 1_556 S
C83 C84 1.479 . S
C83 H97 0.950 . S
C84 C83 1.479 . S
C84 C85 1.375 1_565 S
C84 C90 1.404 1_556 S
C85 C84 1.375 1_545 S
C85 C86 1.369 . S
C85 H98 0.950 . S
C86 C85 1.369 . S
C86 C87 1.392 1_545 S
C86 H99 0.951 . S
C87 C86 1.392 1_565 S
C87 C89 1.384 1_556 S
H88 C90 0.949 . S
C89 C87 1.384 1_554 S
C89 C90 1.385 . S
C89 H91 0.950 . S
C90 C84 1.404 1_554 S
C90 H88 0.949 . S
C90 C89 1.385 . S
H91 C89 0.950 . S
H92 C76 0.951 . S
H93 C78 0.951 . S
H94 C80 0.951 . S
H95 C81 0.950 . S
H96 C82 0.950 . S
H97 C83 0.950 . S
H98 C85 0.950 . S
H99 C86 0.951 . S
C100 C101 1.386 1_655 S
C100 C102 1.383 . S
C100 H116 0.951 . S
C101 C100 1.386 1_455 S
C101 C105 1.383 . S
C102 C100 1.383 . S
C102 C103 1.402 1_655 S
C102 H117 0.951 . S
C103 C102 1.402 1_455 S
C103 C104 1.375 . S
C103 C106 1.481 . S
C104 C103 1.375 . S
C104 C105 1.367 . S
C104 H118 0.951 . S
C105 C101 1.383 . S
C105 C104 1.367 . S
C105 H119 0.950 . S
C106 C103 1.481 . S
C106 C107 1.297 1_455 S
C106 H120 0.950 . S
C107 C106 1.297 1_655 S
C107 C108 1.479 . S
C107 H121 0.950 . S
C108 C107 1.479 . S
C108 C109 1.375 . S
C108 C114 1.404 1_655 S
C109 C108 1.375 . S
C109 C110 1.369 . S
C109 H122 0.950 . S
C110 C109 1.369 . S
C110 C111 1.392 . S
C110 H123 0.951 . S
C111 C110 1.392 . S
C111 C113 1.384 1_655 S
H112 C114 0.949 . S
C113 C111 1.384 1_455 S
C113 C114 1.385 . S
C113 H115 0.950 . S
C114 C108 1.404 1_455 S
C114 H112 0.949 . S
C114 C113 1.385 . S
H115 C113 0.950 . S
H116 C100 0.951 . S
H117 C102 0.951 . S
H118 C104 0.951 . S
H119 C105 0.950 . S
H120 C106 0.950 . S
H121 C107 0.950 . S
H122 C109 0.950 . S
H123 C110 0.951 . S
C29 C12 1.495 1_565 S
C39 C27 1.479 1_655 S
C53 C13 1.493 . S
C63 C26 1.497 1_465 S
C77 C1 1.491 1_564 S
C87 C0 1.491 1_556 S
C101 C15 1.491 1_455 S
C111 C14 1.495 1_655 S
