# Generated by pormake.
# Topology msp, (4)-cn, num edge types: 1
# Building blocks:
#     Node 0, Type 0, BuildingBlock: CEKHIL_clean_sbu_0, # of connection points: 4
#     Node 1, Type 0, BuildingBlock: CEKHIL_clean_sbu_0, # of connection points: 4
#     Node 2, Type 0, BuildingBlock: CEKHIL_clean_sbu_0, # of connection points: 4
#     Node 3, Type 0, BuildingBlock: CEKHIL_clean_sbu_0, # of connection points: 4
#     Node 4, Type 0, BuildingBlock: CEKHIL_clean_sbu_0, # of connection points: 4
#     Node 5, Type 0, BuildingBlock: CEKHIL_clean_sbu_0, # of connection points: 4
#     Node 6, Type 0, BuildingBlock: CEKHIL_clean_sbu_0, # of connection points: 4
#     Node 7, Type 0, BuildingBlock: CEKHIL_clean_sbu_0, # of connection points: 4
#     Edge 8, Type (0, 0), None
#     Edge 9, Type (0, 0), None
#     Edge 10, Type (0, 0), None
#     Edge 11, Type (0, 0), None
#     Edge 12, Type (0, 0), None
#     Edge 13, Type (0, 0), None
#     Edge 14, Type (0, 0), None
#     Edge 15, Type (0, 0), None
#     Edge 16, Type (0, 0), None
#     Edge 17, Type (0, 0), None
#     Edge 18, Type (0, 0), None
#     Edge 19, Type (0, 0), None
#     Edge 20, Type (0, 0), None
#     Edge 21, Type (0, 0), None
#     Edge 22, Type (0, 0), None
#     Edge 23, Type (0, 0), None
# Relax obj value: 0.164
# Max RMSD: 0.212
# Mean RMSD: 0.212
data_MOF--net-msp--node1-CEKHIL_clean_sbu_0--edge1-none
_symmetry_space_group_name_H-M    P1
_symmetry_Int_Tables_number       1
_symmetry_cell_setting            triclinic
loop_
_symmetry_equiv_pos_as_xyz
'x, y, z'
_cell_length_a     10.110528
_cell_length_b     9.5732853
_cell_length_c     18.284438
_cell_angle_alpha  90.000867
_cell_angle_beta   98.667111
_cell_angle_gamma 90.005558
loop_
_atom_site_label
_atom_site_type_symbol
_atom_site_fract_x
_atom_site_fract_y
_atom_site_fract_z
_atom_type_partial_charge
Co0 Co 0.99843 0.31297 0.3402 0.0
O1 O 0.86979 0.40168 0.26501 0.0
O2 O 0.86929 0.17748 0.29294 0.0
C3 C 1.00265 0.47263 0.43643 0.0
O4 O 0.11003 0.18649 0.41402 0.0
Co5 Co 0.27179 0.44778 0.39131 0.0
O6 O 0.31307 0.24387 0.39624 0.0
C7 C 0.23568 0.29866 0.25193 0.0
C8 C 0.81707 0.27923 0.25114 0.0
C9 C 0.23737 0.17369 0.43104 0.0
O10 O 0.11563 0.26942 0.26223 0.0
O11 O 0.31567 0.37234 0.29662 0.0
O12 O 0.90757 0.38052 0.4224 0.0
O13 O 0.08025 0.4793 0.38627 0.0
Co14 Co 0.52418 0.31278 0.60071 0.0
O15 O 0.65277 0.40159 0.67592 0.0
O16 O 0.6534 0.17741 0.648 0.0
C17 C 0.51992 0.47252 0.5045 0.0
O18 O 0.41273 0.18611 0.52691 0.0
Co19 Co 0.25068 0.44723 0.54948 0.0
O20 O 0.20965 0.2432 0.54485 0.0
C21 C 0.28695 0.2986 0.68901 0.0
C22 C 0.70556 0.27919 0.68981 0.0
C23 C 0.28538 0.17317 0.51001 0.0
O24 O 0.40696 0.26922 0.67868 0.0
O25 O 0.20697 0.37223 0.6443 0.0
O26 O 0.61503 0.38046 0.51852 0.0
O27 O 0.44223 0.47903 0.55461 0.0
Co28 Co 0.0242 0.72283 0.60075 0.0
O29 O 0.15285 0.63412 0.67594 0.0
O30 O 0.15335 0.85832 0.64801 0.0
C31 C 0.01998 0.56317 0.50452 0.0
O32 O 0.91261 0.84932 0.52694 0.0
Co33 Co 0.75085 0.58802 0.54964 0.0
O34 O 0.70958 0.79194 0.54472 0.0
C35 C 0.78696 0.73713 0.68903 0.0
C36 C 0.20557 0.75657 0.68981 0.0
C37 C 0.78526 0.86211 0.50991 0.0
O38 O 0.90701 0.76638 0.67872 0.0
O39 O 0.70697 0.66345 0.64433 0.0
O40 O 0.11507 0.65528 0.51855 0.0
O41 O 0.94239 0.55651 0.55468 0.0
Co42 Co 0.49844 0.72302 0.34025 0.0
O43 O 0.36985 0.6342 0.26504 0.0
O44 O 0.36922 0.85839 0.29296 0.0
C45 C 0.50271 0.56327 0.43646 0.0
O46 O 0.6099 0.84968 0.41405 0.0
Co47 Co 0.77195 0.58856 0.39147 0.0
O48 O 0.81298 0.79258 0.39611 0.0
C49 C 0.73567 0.73719 0.25195 0.0
C50 C 0.31707 0.75661 0.25115 0.0
C51 C 0.73725 0.86262 0.43094 0.0
O52 O 0.61566 0.76657 0.26228 0.0
O53 O 0.81565 0.66356 0.29666 0.0
O54 O 0.4076 0.65534 0.42244 0.0
O55 O 0.58039 0.55676 0.38635 0.0
Co56 Co 0.49844 0.81296 0.8402 0.0
O57 O 0.3698 0.90168 0.76501 0.0
O58 O 0.3693 0.67748 0.79294 0.0
C59 C 0.50266 0.97262 0.93643 0.0
O60 O 0.61002 0.68647 0.91402 0.0
Co61 Co 0.7718 0.94775 0.89132 0.0
O62 O 0.81306 0.74384 0.89624 0.0
C63 C 0.73569 0.79869 0.75193 0.0
C64 C 0.31709 0.77923 0.75113 0.0
C65 C 0.73737 0.67367 0.93105 0.0
O66 O 0.61564 0.76942 0.76223 0.0
O67 O 0.81568 0.87235 0.79663 0.0
O68 O 0.40757 0.88052 0.9224 0.0
O69 O 0.58026 0.97929 0.88628 0.0
Co70 Co 0.02418 0.81278 0.10071 0.0
O71 O 0.15277 0.9016 0.17592 0.0
O72 O 0.15339 0.67741 0.148 0.0
C73 C 0.01992 0.97253 0.0045 0.0
O74 O 0.91273 0.68612 0.02691 0.0
Co75 Co 0.75067 0.94722 0.04948 0.0
O76 O 0.70965 0.7432 0.04485 0.0
C77 C 0.78695 0.79862 0.18901 0.0
C78 C 0.20555 0.77919 0.18981 0.0
C79 C 0.78538 0.67317 0.01001 0.0
O80 O 0.90695 0.76922 0.17868 0.0
O81 O 0.70696 0.87223 0.14429 0.0
O82 O 0.11503 0.88046 0.01852 0.0
O83 O 0.94223 0.97903 0.05461 0.0
Co84 Co 0.5242 0.22283 0.10075 0.0
O85 O 0.65284 0.13412 0.17594 0.0
O86 O 0.65334 0.35831 0.14801 0.0
C87 C 0.51998 0.06317 0.00453 0.0
O88 O 0.41261 0.34932 0.02694 0.0
Co89 Co 0.25084 0.08803 0.04964 0.0
O90 O 0.20957 0.29194 0.04472 0.0
C91 C 0.28696 0.2371 0.18903 0.0
C92 C 0.70556 0.25657 0.18982 0.0
C93 C 0.28526 0.36211 0.00991 0.0
O94 O 0.407 0.26637 0.17872 0.0
O95 O 0.20696 0.16344 0.14433 0.0
O96 O 0.61507 0.15528 0.01855 0.0
O97 O 0.44238 0.0565 0.05468 0.0
Co98 Co 0.99845 0.22302 0.84025 0.0
O99 O 0.86986 0.1342 0.76504 0.0
O100 O 0.86923 0.35839 0.79296 0.0
C101 C 1.00271 0.06328 0.93647 0.0
O102 O 0.1099 0.34969 0.91405 0.0
Co103 Co 0.27196 0.08858 0.89148 0.0
O104 O 0.31297 0.2926 0.89611 0.0
C105 C 0.23567 0.23717 0.75194 0.0
C106 C 0.81708 0.25661 0.75115 0.0
C107 C 0.23725 0.36263 0.93094 0.0
O108 O 0.11567 0.26657 0.76228 0.0
O109 O 0.31566 0.16356 0.79667 0.0
O110 O 0.9076 0.15534 0.92244 0.0
O111 O 0.0804 0.05677 0.88635 0.0
loop_
_geom_bond_atom_site_label_1
_geom_bond_atom_site_label_2
_geom_bond_distance
_geom_bond_site_symmetry_2
_ccdc_geom_bond_type
Co0 O1 2.216 1_455 S
Co0 O2 2.091 1_455 S
Co0 O4 2.004 . S
Co0 O10 2.021 . S
Co0 O12 2.137 1_455 S
Co0 O13 2.244 . S
O1 Co0 2.216 1_655 S
O1 C8 1.247 . S
O2 Co0 2.091 1_655 S
O2 C8 1.261 . S
C3 O12 1.247 . S
C3 O13 1.272 1_655 S
O4 Co0 2.004 . S
O4 C9 1.259 . S
Co5 O6 2.061 . S
Co5 O11 2.052 . S
Co5 O13 2.135 . S
O6 Co5 2.061 . S
O6 C9 1.235 . S
C7 O10 1.238 . S
C7 O11 1.241 . S
C8 O1 1.247 . S
C8 O2 1.261 . S
C9 O4 1.259 . S
C9 O6 1.235 . S
O10 Co0 2.021 . S
O10 C7 1.238 . S
O11 Co5 2.052 . S
O11 C7 1.241 . S
O12 Co0 2.137 1_655 S
O12 C3 1.247 . S
O13 Co0 2.244 . S
O13 C3 1.272 1_455 S
O13 Co5 2.135 . S
Co14 O15 2.216 . S
Co14 O16 2.091 . S
Co14 O18 2.004 . S
Co14 O24 2.021 . S
Co14 O26 2.137 . S
Co14 O27 2.244 . S
O15 Co14 2.216 . S
O15 C22 1.247 . S
O16 Co14 2.091 . S
O16 C22 1.261 . S
C17 O26 1.247 . S
C17 O27 1.272 . S
O18 Co14 2.004 . S
O18 C23 1.259 . S
Co19 O20 2.061 . S
Co19 O25 2.052 . S
Co19 O27 2.135 . S
O20 Co19 2.061 . S
O20 C23 1.235 . S
C21 O24 1.238 . S
C21 O25 1.241 . S
C22 O15 1.247 . S
C22 O16 1.261 . S
C23 O18 1.259 . S
C23 O20 1.235 . S
O24 Co14 2.021 . S
O24 C21 1.238 . S
O25 Co19 2.052 . S
O25 C21 1.241 . S
O26 Co14 2.137 . S
O26 C17 1.247 . S
O27 Co14 2.244 . S
O27 C17 1.272 . S
O27 Co19 2.135 . S
Co28 O29 2.216 1_655 S
Co28 O30 2.091 1_655 S
Co28 O32 2.004 . S
Co28 O38 2.021 . S
Co28 O40 2.137 1_655 S
Co28 O41 2.244 . S
O29 Co28 2.216 1_455 S
O29 C36 1.247 . S
O30 Co28 2.091 1_455 S
O30 C36 1.261 . S
C31 O40 1.247 . S
C31 O41 1.272 1_455 S
O32 Co28 2.004 . S
O32 C37 1.259 . S
Co33 O34 2.061 . S
Co33 O39 2.052 . S
Co33 O41 2.135 . S
O34 Co33 2.061 . S
O34 C37 1.235 . S
C35 O38 1.238 . S
C35 O39 1.241 . S
C36 O29 1.247 . S
C36 O30 1.261 . S
C37 O32 1.259 . S
C37 O34 1.235 . S
O38 Co28 2.021 . S
O38 C35 1.238 . S
O39 Co33 2.052 . S
O39 C35 1.241 . S
O40 Co28 2.137 1_455 S
O40 C31 1.247 . S
O41 Co28 2.244 . S
O41 C31 1.272 1_655 S
O41 Co33 2.135 . S
Co42 O43 2.216 . S
Co42 O44 2.091 . S
Co42 O46 2.004 . S
Co42 O52 2.021 . S
Co42 O54 2.137 . S
Co42 O55 2.244 . S
O43 Co42 2.216 . S
O43 C50 1.247 . S
O44 Co42 2.091 . S
O44 C50 1.261 . S
C45 O54 1.247 . S
C45 O55 1.272 . S
O46 Co42 2.004 . S
O46 C51 1.259 . S
Co47 O48 2.061 . S
Co47 O53 2.052 . S
Co47 O55 2.135 . S
O48 Co47 2.061 . S
O48 C51 1.235 . S
C49 O52 1.238 . S
C49 O53 1.241 . S
C50 O43 1.247 . S
C50 O44 1.261 . S
C51 O46 1.259 . S
C51 O48 1.235 . S
O52 Co42 2.021 . S
O52 C49 1.238 . S
O53 Co47 2.052 . S
O53 C49 1.241 . S
O54 Co42 2.137 . S
O54 C45 1.247 . S
O55 Co42 2.244 . S
O55 C45 1.272 . S
O55 Co47 2.135 . S
Co56 O57 2.216 . S
Co56 O58 2.091 . S
Co56 O60 2.004 . S
Co56 O66 2.021 . S
Co56 O68 2.137 . S
Co56 O69 2.244 . S
O57 Co56 2.216 . S
O57 C64 1.247 . S
O58 Co56 2.091 . S
O58 C64 1.261 . S
C59 O68 1.247 . S
C59 O69 1.272 . S
O60 Co56 2.004 . S
O60 C65 1.259 . S
Co61 O62 2.061 . S
Co61 O67 2.052 . S
Co61 O69 2.135 . S
O62 Co61 2.061 . S
O62 C65 1.235 . S
C63 O66 1.238 . S
C63 O67 1.241 . S
C64 O57 1.247 . S
C64 O58 1.261 . S
C65 O60 1.259 . S
C65 O62 1.235 . S
O66 Co56 2.021 . S
O66 C63 1.238 . S
O67 Co61 2.052 . S
O67 C63 1.241 . S
O68 Co56 2.137 . S
O68 C59 1.247 . S
O69 Co56 2.244 . S
O69 C59 1.272 . S
O69 Co61 2.135 . S
Co70 O71 2.216 1_655 S
Co70 O72 2.091 1_655 S
Co70 O74 2.004 . S
Co70 O80 2.021 . S
Co70 O82 2.137 1_655 S
Co70 O83 2.244 . S
O71 Co70 2.216 1_455 S
O71 C78 1.247 . S
O72 Co70 2.091 1_455 S
O72 C78 1.261 . S
C73 O82 1.247 . S
C73 O83 1.272 1_455 S
O74 Co70 2.004 . S
O74 C79 1.259 . S
Co75 O76 2.061 . S
Co75 O81 2.052 . S
Co75 O83 2.135 . S
O76 Co75 2.061 . S
O76 C79 1.235 . S
C77 O80 1.238 . S
C77 O81 1.241 . S
C78 O71 1.247 . S
C78 O72 1.261 . S
C79 O74 1.259 . S
C79 O76 1.235 . S
O80 Co70 2.021 . S
O80 C77 1.238 . S
O81 Co75 2.052 . S
O81 C77 1.241 . S
O82 Co70 2.137 1_455 S
O82 C73 1.247 . S
O83 Co70 2.244 . S
O83 C73 1.272 1_655 S
O83 Co75 2.135 . S
Co84 O85 2.216 . S
Co84 O86 2.091 . S
Co84 O88 2.004 . S
Co84 O94 2.021 . S
Co84 O96 2.137 . S
Co84 O97 2.244 . S
O85 Co84 2.216 . S
O85 C92 1.247 . S
O86 Co84 2.091 . S
O86 C92 1.261 . S
C87 O96 1.247 . S
C87 O97 1.272 . S
O88 Co84 2.004 . S
O88 C93 1.259 . S
Co89 O90 2.061 . S
Co89 O95 2.052 . S
Co89 O97 2.135 . S
O90 Co89 2.061 . S
O90 C93 1.235 . S
C91 O94 1.238 . S
C91 O95 1.241 . S
C92 O85 1.247 . S
C92 O86 1.261 . S
C93 O88 1.259 . S
C93 O90 1.235 . S
O94 Co84 2.021 . S
O94 C91 1.238 . S
O95 Co89 2.052 . S
O95 C91 1.241 . S
O96 Co84 2.137 . S
O96 C87 1.247 . S
O97 Co84 2.244 . S
O97 C87 1.272 . S
O97 Co89 2.135 . S
Co98 O99 2.216 1_455 S
Co98 O100 2.091 1_455 S
Co98 O102 2.004 . S
Co98 O108 2.021 . S
Co98 O110 2.137 1_455 S
Co98 O111 2.244 . S
O99 Co98 2.216 1_655 S
O99 C106 1.247 . S
O100 Co98 2.091 1_655 S
O100 C106 1.261 . S
C101 O110 1.247 . S
C101 O111 1.272 1_655 S
O102 Co98 2.004 . S
O102 C107 1.259 . S
Co103 O104 2.061 . S
Co103 O109 2.052 . S
Co103 O111 2.135 . S
O104 Co103 2.061 . S
O104 C107 1.235 . S
C105 O108 1.238 . S
C105 O109 1.241 . S
C106 O99 1.247 . S
C106 O100 1.261 . S
C107 O102 1.259 . S
C107 O104 1.235 . S
O108 Co98 2.021 . S
O108 C105 1.238 . S
O109 Co103 2.052 . S
O109 C105 1.241 . S
O110 Co98 2.137 1_655 S
O110 C101 1.247 . S
O111 Co98 2.244 . S
O111 C101 1.272 1_455 S
O111 Co103 2.135 . S
C3 C31 1.774 1_655 S
C45 C17 1.774 . S
C87 C59 1.774 1_544 S
C73 C101 1.774 1_464 S
C92 C8 2.418 . S
C22 C106 2.418 . S
C36 C64 2.418 . S
C50 C78 2.418 . S
C91 C7 1.425 . S
C21 C105 1.425 . S
C63 C35 1.425 . S
C77 C49 1.425 . S
C23 C9 0.710 . S
C37 C51 0.710 . S
C79 C65 0.710 1_554 S
C93 C107 0.710 1_554 S
