# Generated by pormake.
# Topology sxb, (6)-cn, num edge types: 1
# Building blocks:
#     Node 0, Type 0, BuildingBlock: BETDEL_clean_sbu_0, # of connection points: 6
#     Node 1, Type 0, BuildingBlock: BETDEL_clean_sbu_0, # of connection points: 6
#     Node 2, Type 0, BuildingBlock: BETDEL_clean_sbu_0, # of connection points: 6
#     Node 3, Type 0, BuildingBlock: BETDEL_clean_sbu_0, # of connection points: 6
#     Edge 4, Type (0, 0), None
#     Edge 5, Type (0, 0), None
#     Edge 6, Type (0, 0), None
#     Edge 7, Type (0, 0), None
#     Edge 8, Type (0, 0), None
#     Edge 9, Type (0, 0), None
#     Edge 10, Type (0, 0), None
#     Edge 11, Type (0, 0), None
#     Edge 12, Type (0, 0), None
#     Edge 13, Type (0, 0), None
#     Edge 14, Type (0, 0), None
#     Edge 15, Type (0, 0), None
# Relax obj value: 0.257
# Max RMSD: 0.068
# Mean RMSD: 0.063
data_MOF--net-sxb--node1-BETDEL_clean_sbu_0--edge1-none
_symmetry_space_group_name_H-M    P1
_symmetry_Int_Tables_number       1
_symmetry_cell_setting            triclinic
loop_
_symmetry_equiv_pos_as_xyz
'x, y, z'
_cell_length_a     7.2427564
_cell_length_b     14.673233
_cell_length_c     13.083199
_cell_angle_alpha  97.083205
_cell_angle_beta   100.54167
_cell_angle_gamma 78.423275
loop_
_atom_site_label
_atom_site_type_symbol
_atom_site_fract_x
_atom_site_fract_y
_atom_site_fract_z
_atom_type_partial_charge
Dy0 Dy 0.98134 0.99441 0.96126 0.0
C1 C 0.59722 0.04787 0.04096 0.0
C2 C 0.5843 0.99196 0.95457 0.0
Dy3 Dy 0.20018 0.04545 0.03429 0.0
O4 O 0.71027 0.94925 0.89108 0.0
O5 O 0.72446 0.03456 0.02595 0.0
O6 O 1.05887 0.94628 0.80345 0.0
O7 O 1.09024 0.08162 0.87237 0.0
C8 C 0.10164 0.02554 0.79161 0.0
C9 C 1.07998 1.01436 0.20399 0.0
O10 O 1.07398 0.19977 0.04434 0.0
O11 O 0.81974 0.14757 0.95544 0.0
O12 O 0.47125 0.0906 0.10445 0.0
O13 O 0.45704 1.00527 0.96958 0.0
O14 O 0.12289 0.09359 0.19217 0.0
O15 O 0.09119 0.95833 0.12319 0.0
O16 O 0.10748 0.84009 0.95122 0.0
O17 O 0.36174 0.89228 0.0401 0.0
C18 C 0.89563 0.22009 -0.00031 0.0
C19 C 0.28583 0.81976 0.99587 0.0
Dy20 Dy 0.12172 0.91992 0.49026 0.0
C21 C 0.25555 0.25676 0.50938 0.0
C22 C 0.92739 0.78332 0.48751 0.0
Dy23 Dy 1.06038 0.12032 0.50569 0.0
O24 O 0.9177 0.83045 0.40914 0.0
O25 O 1.07406 0.79637 0.55959 0.0
O26 O 0.20475 0.90239 0.33273 0.0
O27 O 0.99839 1.01975 0.37546 0.0
C28 C 0.09838 0.98143 0.30663 0.0
C29 C 1.08311 0.05846 0.68896 0.0
O30 O 0.74217 0.10264 0.47015 0.0
O31 O 0.83258 0.96497 0.5432 0.0
O32 O 0.26545 0.20909 0.58733 0.0
O33 O 0.10843 0.24427 0.43735 0.0
O34 O 0.97653 0.13747 0.66294 0.0
O35 O 0.18391 0.02045 0.62036 0.0
O36 O 0.4398 0.93775 0.52546 0.0
O37 O 0.349 0.07529 0.45214 0.0
C38 C 0.69391 0.02774 0.5013 0.0
C39 C 0.48786 1.01261 0.49408 0.0
Dy40 Dy 0.48134 0.49441 0.96126 0.0
C41 C 0.09722 0.54787 0.04096 0.0
C42 C 1.0843 0.49196 0.95457 0.0
Dy43 Dy 0.70018 0.54544 0.03429 0.0
O44 O 0.21027 0.44926 0.89107 0.0
O45 O 0.22447 0.53456 0.02595 0.0
O46 O 0.55887 0.4463 0.80343 0.0
O47 O 0.59025 0.58163 0.87237 0.0
C48 C 0.60164 0.52556 0.79161 0.0
C49 C 0.57999 0.51434 0.204 0.0
O50 O 0.57398 0.69976 0.04435 0.0
O51 O 0.31974 0.64758 0.95544 0.0
O52 O 0.97125 0.59059 0.10445 0.0
O53 O 0.95705 0.50527 0.96958 0.0
O54 O 0.62291 0.59357 0.19219 0.0
O55 O 0.59118 0.45832 0.12318 0.0
O56 O 0.60749 0.34009 0.95121 0.0
O57 O 0.86174 0.39228 0.0401 0.0
C58 C 0.39564 0.7201 -0.0003 0.0
C59 C 0.78583 0.31976 0.99587 0.0
Dy60 Dy 0.62171 0.41989 0.49028 0.0
C61 C 0.75575 0.75663 0.5093 0.0
C62 C 0.42718 0.28345 0.48759 0.0
Dy63 Dy 0.56039 0.62035 0.50567 0.0
O64 O 0.41754 0.33049 0.40915 0.0
O65 O 0.57398 0.29637 0.55964 0.0
O66 O 0.7047 0.40235 0.33273 0.0
O67 O 0.49841 0.51972 0.37549 0.0
C68 C 0.59836 0.4814 0.30663 0.0
C69 C 0.58315 0.5585 0.68896 0.0
O70 O 0.24218 0.60264 0.47011 0.0
O71 O 0.33261 0.46503 0.54327 0.0
O72 O 0.76558 0.70906 0.58732 0.0
O73 O 0.60854 0.74426 0.43728 0.0
O74 O 0.4766 0.63752 0.66294 0.0
O75 O 0.6839 0.52048 0.62033 0.0
O76 O 0.9398 0.43775 0.5255 0.0
O77 O 0.84898 0.57523 0.45207 0.0
C78 C 0.19392 0.52775 0.50131 0.0
C79 C 0.98786 0.51259 0.49407 0.0
loop_
_geom_bond_atom_site_label_1
_geom_bond_atom_site_label_2
_geom_bond_distance
_geom_bond_site_symmetry_2
_ccdc_geom_bond_type
Dy0 O4 2.398 . S
Dy0 O5 2.491 1_566 S
Dy0 O6 2.403 . S
Dy0 O7 2.664 1_655 S
Dy0 O11 2.326 1_565 S
Dy0 O15 2.310 1_566 S
Dy0 O16 2.351 1_655 S
C1 O12 1.185 1_565 S
C1 O13 1.355 1_554 S
C2 O4 1.185 1_545 S
C2 O5 1.355 1_556 S
Dy3 O7 2.310 1_544 S
Dy3 O10 2.351 1_455 S
Dy3 O12 2.398 . S
Dy3 O13 2.491 1_544 S
Dy3 O14 2.403 . S
Dy3 O15 2.664 1_455 S
Dy3 O17 2.326 1_545 S
O4 Dy0 2.398 . S
O4 C2 1.185 1_565 S
O5 Dy0 2.491 1_544 S
O5 C2 1.355 1_554 S
O6 Dy0 2.403 . S
O6 C8 1.254 . S
O7 Dy0 2.664 1_455 S
O7 Dy3 2.310 1_566 S
O7 C8 1.268 1_455 S
C8 O6 1.254 . S
C8 O7 1.268 1_655 S
C9 O14 1.254 . S
C9 O15 1.268 1_455 S
O10 Dy3 2.351 1_655 S
O10 C18 1.249 1_554 S
O11 Dy0 2.326 1_545 S
O11 C18 1.267 . S
O12 C1 1.185 1_545 S
O12 Dy3 2.398 . S
O13 C1 1.355 1_556 S
O13 Dy3 2.491 1_566 S
O14 Dy3 2.403 . S
O14 C9 1.254 . S
O15 Dy0 2.310 1_544 S
O15 Dy3 2.664 1_655 S
O15 C9 1.268 1_655 S
O16 Dy0 2.351 1_455 S
O16 C19 1.249 1_556 S
O17 Dy3 2.326 1_565 S
O17 C19 1.267 . S
C18 O10 1.249 1_556 S
C18 O11 1.267 . S
C19 O16 1.249 1_554 S
C19 O17 1.267 . S
Dy20 O24 2.398 1_455 S
Dy20 O25 2.491 1_455 S
Dy20 O26 2.403 1_455 S
Dy20 O27 2.664 1_565 S
Dy20 O31 2.326 1_455 S
Dy20 O35 2.310 1_455 S
Dy20 O36 2.351 . S
C21 O32 1.185 . S
C21 O33 1.355 . S
C22 O24 1.185 . S
C22 O25 1.355 . S
Dy23 O27 2.310 1_655 S
Dy23 O30 2.351 . S
Dy23 O32 2.398 1_655 S
Dy23 O33 2.491 1_655 S
Dy23 O34 2.403 1_655 S
Dy23 O35 2.664 1_545 S
Dy23 O37 2.326 1_655 S
O24 Dy20 2.398 1_655 S
O24 C22 1.185 . S
O25 Dy20 2.491 1_655 S
O25 C22 1.355 . S
O26 Dy20 2.403 1_655 S
O26 C28 1.254 1_655 S
O27 Dy20 2.664 1_545 S
O27 Dy23 2.310 1_455 S
O27 C28 1.268 1_545 S
C28 O26 1.254 1_455 S
C28 O27 1.268 1_565 S
C29 O34 1.254 1_655 S
C29 O35 1.268 1_545 S
O30 Dy23 2.351 . S
O30 C38 1.249 . S
O31 Dy20 2.326 1_655 S
O31 C38 1.267 1_565 S
O32 C21 1.185 . S
O32 Dy23 2.398 1_455 S
O33 C21 1.355 . S
O33 Dy23 2.491 1_455 S
O34 Dy23 2.403 1_455 S
O34 C29 1.254 1_455 S
O35 Dy20 2.310 1_655 S
O35 Dy23 2.664 1_565 S
O35 C29 1.268 1_565 S
O36 Dy20 2.351 . S
O36 C39 1.249 . S
O37 Dy23 2.326 1_455 S
O37 C39 1.267 1_545 S
C38 O30 1.249 . S
C38 O31 1.267 1_545 S
C39 O36 1.249 . S
C39 O37 1.267 1_565 S
Dy40 O44 2.398 . S
Dy40 O45 2.491 1_556 S
Dy40 O46 2.403 . S
Dy40 O47 2.664 . S
Dy40 O51 2.326 . S
Dy40 O55 2.310 1_556 S
Dy40 O56 2.351 . S
C41 O52 1.185 1_455 S
C41 O53 1.355 1_454 S
C42 O44 1.185 1_655 S
C42 O45 1.355 1_656 S
Dy43 O47 2.310 1_554 S
Dy43 O50 2.351 . S
Dy43 O52 2.398 . S
Dy43 O53 2.491 1_554 S
Dy43 O54 2.403 . S
Dy43 O55 2.664 . S
Dy43 O57 2.326 . S
O44 Dy40 2.398 . S
O44 C42 1.185 1_455 S
O45 Dy40 2.491 1_554 S
O45 C42 1.355 1_454 S
O46 Dy40 2.403 . S
O46 C48 1.254 . S
O47 Dy40 2.664 . S
O47 Dy43 2.310 1_556 S
O47 C48 1.268 . S
C48 O46 1.254 . S
C48 O47 1.268 . S
C49 O54 1.254 . S
C49 O55 1.268 . S
O50 Dy43 2.351 . S
O50 C58 1.249 1_554 S
O51 Dy40 2.326 . S
O51 C58 1.267 . S
O52 C41 1.185 1_655 S
O52 Dy43 2.398 . S
O53 C41 1.355 1_656 S
O53 Dy43 2.491 1_556 S
O54 Dy43 2.403 . S
O54 C49 1.254 . S
O55 Dy40 2.310 1_554 S
O55 Dy43 2.664 . S
O55 C49 1.268 . S
O56 Dy40 2.351 . S
O56 C59 1.249 1_556 S
O57 Dy43 2.326 . S
O57 C59 1.267 . S
C58 O50 1.249 1_556 S
C58 O51 1.267 . S
C59 O56 1.249 1_554 S
C59 O57 1.267 . S
Dy60 O64 2.398 . S
Dy60 O65 2.491 . S
Dy60 O66 2.403 . S
Dy60 O67 2.664 . S
Dy60 O71 2.326 . S
Dy60 O75 2.310 . S
Dy60 O76 2.351 . S
C61 O72 1.185 . S
C61 O73 1.355 . S
C62 O64 1.185 . S
C62 O65 1.355 . S
Dy63 O67 2.310 . S
Dy63 O70 2.351 . S
Dy63 O72 2.398 . S
Dy63 O73 2.491 . S
Dy63 O74 2.403 . S
Dy63 O75 2.664 . S
Dy63 O77 2.326 . S
O64 Dy60 2.398 . S
O64 C62 1.185 . S
O65 Dy60 2.491 . S
O65 C62 1.355 . S
O66 Dy60 2.403 . S
O66 C68 1.254 . S
O67 Dy60 2.664 . S
O67 Dy63 2.310 . S
O67 C68 1.268 . S
C68 O66 1.254 . S
C68 O67 1.268 . S
C69 O74 1.254 . S
C69 O75 1.268 . S
O70 Dy63 2.351 . S
O70 C78 1.249 . S
O71 Dy60 2.326 . S
O71 C78 1.267 . S
O72 C61 1.185 . S
O72 Dy63 2.398 . S
O73 C61 1.355 . S
O73 Dy63 2.491 . S
O74 Dy63 2.403 . S
O74 C69 1.254 . S
O75 Dy60 2.310 . S
O75 Dy63 2.664 . S
O75 C69 1.268 . S
O76 Dy60 2.351 . S
O76 C79 1.249 . S
O77 Dy63 2.326 . S
O77 C79 1.267 . S
C78 O70 1.249 . S
C78 O71 1.267 . S
C79 O76 1.249 . S
C79 O77 1.267 . S
C58 C19 2.679 1_556 S
C59 C18 2.679 1_554 S
C21 C62 1.222 . S
C22 C61 1.222 . S
C1 C2 0.427 1_564 S
C39 C38 3.429 1_565 S
C41 C42 0.427 1_454 S
C78 C79 3.429 1_455 S
C28 C9 1.462 1_565 S
C8 C29 1.464 1_565 S
C68 C49 1.462 . S
C69 C48 1.464 . S
