# Generated by pormake.
# Topology pcl, (4)-cn, num edge types: 1
# Building blocks:
#     Node 0, Type 0, BuildingBlock: CEKHIL_clean_sbu_0, # of connection points: 4
#     Node 1, Type 0, BuildingBlock: CEKHIL_clean_sbu_0, # of connection points: 4
#     Node 2, Type 0, BuildingBlock: CEKHIL_clean_sbu_0, # of connection points: 4
#     Node 3, Type 0, BuildingBlock: CEKHIL_clean_sbu_0, # of connection points: 4
#     Node 4, Type 0, BuildingBlock: CEKHIL_clean_sbu_0, # of connection points: 4
#     Node 5, Type 0, BuildingBlock: CEKHIL_clean_sbu_0, # of connection points: 4
#     Node 6, Type 0, BuildingBlock: CEKHIL_clean_sbu_0, # of connection points: 4
#     Node 7, Type 0, BuildingBlock: CEKHIL_clean_sbu_0, # of connection points: 4
#     Node 8, Type 0, BuildingBlock: CEKHIL_clean_sbu_0, # of connection points: 4
#     Node 9, Type 0, BuildingBlock: CEKHIL_clean_sbu_0, # of connection points: 4
#     Node 10, Type 0, BuildingBlock: CEKHIL_clean_sbu_0, # of connection points: 4
#     Node 11, Type 0, BuildingBlock: CEKHIL_clean_sbu_0, # of connection points: 4
#     Node 12, Type 0, BuildingBlock: CEKHIL_clean_sbu_0, # of connection points: 4
#     Node 13, Type 0, BuildingBlock: CEKHIL_clean_sbu_0, # of connection points: 4
#     Node 14, Type 0, BuildingBlock: CEKHIL_clean_sbu_0, # of connection points: 4
#     Node 15, Type 0, BuildingBlock: CEKHIL_clean_sbu_0, # of connection points: 4
#     Edge 16, Type (0, 0), None
#     Edge 17, Type (0, 0), None
#     Edge 18, Type (0, 0), None
#     Edge 19, Type (0, 0), None
#     Edge 20, Type (0, 0), None
#     Edge 21, Type (0, 0), None
#     Edge 22, Type (0, 0), None
#     Edge 23, Type (0, 0), None
#     Edge 24, Type (0, 0), None
#     Edge 25, Type (0, 0), None
#     Edge 26, Type (0, 0), None
#     Edge 27, Type (0, 0), None
#     Edge 28, Type (0, 0), None
#     Edge 29, Type (0, 0), None
#     Edge 30, Type (0, 0), None
#     Edge 31, Type (0, 0), None
#     Edge 32, Type (0, 0), None
#     Edge 33, Type (0, 0), None
#     Edge 34, Type (0, 0), None
#     Edge 35, Type (0, 0), None
#     Edge 36, Type (0, 0), None
#     Edge 37, Type (0, 0), None
#     Edge 38, Type (0, 0), None
#     Edge 39, Type (0, 0), None
#     Edge 40, Type (0, 0), None
#     Edge 41, Type (0, 0), None
#     Edge 42, Type (0, 0), None
#     Edge 43, Type (0, 0), None
#     Edge 44, Type (0, 0), None
#     Edge 45, Type (0, 0), None
#     Edge 46, Type (0, 0), None
#     Edge 47, Type (0, 0), None
# Relax obj value: 0.067
# Max RMSD: 0.056
# Mean RMSD: 0.055
data_MOF--net-pcl--node1-CEKHIL_clean_sbu_0--edge1-none
_symmetry_space_group_name_H-M    P1
_symmetry_Int_Tables_number       1
_symmetry_cell_setting            triclinic
loop_
_symmetry_equiv_pos_as_xyz
'x, y, z'
_cell_length_a     22.585829
_cell_length_b     18.272216
_cell_length_c     18.751188
_cell_angle_alpha  90.000001
_cell_angle_beta   89.999987
_cell_angle_gamma 89.999018
loop_
_atom_site_label
_atom_site_type_symbol
_atom_site_fract_x
_atom_site_fract_y
_atom_site_fract_z
_atom_type_partial_charge
Co0 Co 0.16137 0.35079 0.0649 0.0
O1 O 0.24316 0.34188 0.03236 0.0
O2 O 0.17683 0.25563 0.01836 0.0
C3 C 0.14865 0.46363 0.01715 0.0
O4 O 0.0705 0.34903 0.09286 0.0
Co5 Co 0.14257 0.48216 0.17167 0.0
O6 O 0.05991 0.44804 0.16465 0.0
C7 C 0.21436 0.35727 0.20674 0.0
C8 C 0.2308 0.27848 0.0067 0.0
C9 C 1.03799 0.39318 0.13148 0.0
O10 O 0.18619 0.31496 0.16359 0.0
O11 O 0.21608 0.42624 0.19636 0.0
O12 O 0.14151 0.40603 0.97762 0.0
O13 O 0.16814 0.45071 0.07987 0.0
Co14 Co 0.91656 0.65057 0.5649 0.0
O15 O 0.83477 0.65948 0.53236 0.0
O16 O 0.9011 0.74572 0.51836 0.0
C17 C 0.92929 0.53773 0.51715 0.0
O18 O 1.00743 0.65232 0.59286 0.0
Co19 Co 0.93536 0.5192 0.67167 0.0
O20 O 1.01803 0.55332 0.66465 0.0
C21 C 0.86357 0.64409 0.70674 0.0
C22 C 0.84713 0.72288 0.5067 0.0
C23 C 0.03994 0.60818 0.63148 0.0
O24 O 0.89174 0.6864 0.66359 0.0
O25 O 0.86186 0.57512 0.69636 0.0
O26 O 0.93642 0.59533 0.47762 0.0
O27 O 0.90979 0.55065 0.57987 0.0
Co28 Co 0.16138 0.65058 0.94075 0.0
O29 O 0.24317 0.6595 0.97329 0.0
O30 O 0.17683 0.74575 0.98726 0.0
C31 C 0.14869 0.53776 0.98854 0.0
O32 O 0.07051 0.65233 0.91278 0.0
Co33 Co 0.14257 0.51916 0.83403 0.0
O34 O 0.05991 0.55329 0.84104 0.0
C35 C 0.21436 0.64406 0.79889 0.0
C36 C 0.23081 0.7229 0.99893 0.0
C37 C 1.03799 0.60817 0.87418 0.0
O38 O 0.1862 0.68638 0.84204 0.0
O39 O 0.21605 0.57508 0.80926 0.0
O40 O 0.14152 0.59537 0.02805 0.0
O41 O 0.16816 0.55065 0.9258 0.0
Co42 Co 0.91655 0.35078 0.44075 0.0
O43 O 0.83476 0.34186 0.47329 0.0
O44 O 0.9011 0.25561 0.48726 0.0
C45 C 0.92924 0.46359 0.48854 0.0
O46 O 1.00742 0.34903 0.41278 0.0
Co47 Co 0.93536 0.48219 0.33403 0.0
O48 O 1.01803 0.44807 0.34104 0.0
C49 C 0.86358 0.3573 0.29889 0.0
C50 C 0.84713 0.27845 0.49893 0.0
C51 C 0.03994 0.39319 0.37418 0.0
O52 O 0.89173 0.31498 0.34204 0.0
O53 O 0.86188 0.42628 0.30926 0.0
O54 O 0.93641 0.40599 0.52805 0.0
O55 O 0.90977 0.4507 0.4258 0.0
Co56 Co 0.84378 0.66996 0.89977 0.0
O57 O 0.76006 0.69304 0.91365 0.0
O58 O 0.83262 0.74582 0.97259 0.0
C59 C 0.84313 0.66567 0.77845 0.0
O60 O 0.9364 0.65676 0.89945 0.0
Co61 Co 0.86892 0.5201 0.8232 0.0
O62 O 0.95098 0.55857 0.82862 0.0
C63 C 0.82817 0.52133 0.96983 0.0
C64 C 0.77564 0.73772 0.96367 0.0
C65 C 0.97125 0.61098 0.86679 0.0
O66 O 0.83654 0.59102 0.97373 0.0
O67 O 0.83117 0.4844 0.91217 0.0
O68 O 0.84971 0.72899 0.8095 0.0
O69 O 0.83078 0.61324 0.82074 0.0
Co70 Co 0.23415 0.33139 0.39977 0.0
O71 O 0.31788 0.30832 0.41365 0.0
O72 O 0.24532 0.25554 0.47259 0.0
C73 C 0.2348 0.33569 0.27845 0.0
O74 O 0.14153 0.3446 0.39945 0.0
Co75 Co 0.20901 0.48126 0.3232 0.0
O76 O 0.12695 0.44278 0.32862 0.0
C77 C 0.24976 0.48002 0.46983 0.0
C78 C 0.30229 0.26364 0.46367 0.0
C79 C 0.10668 0.39037 0.36679 0.0
O80 O 0.24139 0.41034 0.47373 0.0
O81 O 0.24676 0.51696 0.41217 0.0
O82 O 0.22822 0.27236 0.3095 0.0
O83 O 0.24715 0.38811 0.32074 0.0
Co84 Co 0.84377 0.33141 0.10587 0.0
O85 O 0.76005 0.30835 0.09197 0.0
O86 O 0.83262 0.25556 0.03305 0.0
C87 C 0.84312 0.33572 0.22718 0.0
O88 O 0.93639 0.34461 0.1062 0.0
Co89 Co 0.86891 0.48129 0.18242 0.0
O90 O 0.95098 0.44281 0.17701 0.0
C91 C 0.82813 0.48003 0.03581 0.0
C92 C 0.77565 0.26366 0.04196 0.0
C93 C 0.97124 0.39039 0.13885 0.0
O94 O 0.83654 0.41036 0.0319 0.0
O95 O 0.83115 0.51698 0.09346 0.0
O96 O 0.8497 0.27239 0.19614 0.0
O97 O 0.83078 0.38814 0.18489 0.0
Co98 Co 0.23416 0.66994 0.60587 0.0
O99 O 0.31788 0.69301 0.59197 0.0
O100 O 0.24531 0.7458 0.53305 0.0
C101 C 0.23481 0.66563 0.72718 0.0
O102 O 0.14154 0.65675 0.6062 0.0
Co103 Co 0.20902 0.52007 0.68242 0.0
O104 O 0.12696 0.55855 0.67701 0.0
C105 C 0.2498 0.52132 0.53581 0.0
C106 C 0.30229 0.73769 0.54196 0.0
C107 C 0.10669 0.61097 0.63885 0.0
O108 O 0.24139 0.591 0.5319 0.0
O109 O 0.24678 0.48437 0.59346 0.0
O110 O 0.22823 0.72897 0.69614 0.0
O111 O 0.24715 0.61321 0.68489 0.0
Co112 Co 0.66137 0.85079 0.0649 0.0
O113 O 0.74316 0.84188 0.03235 0.0
O114 O 0.67683 0.75563 0.01836 0.0
C115 C 0.64864 0.96363 0.01715 0.0
O116 O 0.5705 0.84903 0.09286 0.0
Co117 Co 0.64257 0.98216 0.17167 0.0
O118 O 0.55991 0.94804 0.16465 0.0
C119 C 0.71436 0.85727 0.20674 0.0
C120 C 0.7308 0.77848 0.00669 0.0
C121 C 0.53799 0.89318 0.13148 0.0
O122 O 0.68619 0.81496 0.16359 0.0
O123 O 0.71608 0.92624 0.19636 0.0
O124 O 0.64151 0.90603 0.97762 0.0
O125 O 0.66814 0.95071 0.07987 0.0
Co126 Co 0.41656 0.15057 0.5649 0.0
O127 O 0.33477 0.15948 0.53235 0.0
O128 O 0.40111 0.24572 0.51836 0.0
C129 C 0.42929 0.03773 0.51715 0.0
O130 O 0.50743 0.15232 0.59286 0.0
Co131 Co 0.43536 0.0192 0.67167 0.0
O132 O 0.51803 0.05332 0.66465 0.0
C133 C 0.36357 0.14409 0.70674 0.0
C134 C 0.34713 0.22288 0.50669 0.0
C135 C 0.53994 0.10818 0.63148 0.0
O136 O 0.39174 0.1864 0.66359 0.0
O137 O 0.36186 0.07512 0.69636 0.0
O138 O 0.43643 0.09533 0.47762 0.0
O139 O 0.40979 0.05065 0.57987 0.0
Co140 Co 0.66138 0.15058 0.94075 0.0
O141 O 0.74317 0.1595 0.97329 0.0
O142 O 0.67683 0.24575 0.98726 0.0
C143 C 0.64869 0.03776 0.98854 0.0
O144 O 0.57051 0.15233 0.91278 0.0
Co145 Co 0.64257 0.01916 0.83403 0.0
O146 O 0.55991 0.05329 0.84104 0.0
C147 C 0.71436 0.14406 0.79889 0.0
C148 C 0.7308 0.2229 0.99894 0.0
C149 C 0.53799 0.10817 0.87418 0.0
O150 O 0.6862 0.18638 0.84204 0.0
O151 O 0.71606 0.07508 0.80926 0.0
O152 O 0.64152 0.09537 0.02805 0.0
O153 O 0.66816 0.05065 0.9258 0.0
Co154 Co 0.41655 0.85078 0.44075 0.0
O155 O 0.33476 0.84186 0.47329 0.0
O156 O 0.4011 0.75561 0.48726 0.0
C157 C 0.42924 0.96359 0.48854 0.0
O158 O 0.50742 0.84903 0.41278 0.0
Co159 Co 0.43536 0.98219 0.33403 0.0
O160 O 0.51803 0.94807 0.34104 0.0
C161 C 0.36358 0.8573 0.29889 0.0
C162 C 0.34713 0.77846 0.49894 0.0
C163 C 0.53994 0.89319 0.37418 0.0
O164 O 0.39173 0.81498 0.34204 0.0
O165 O 0.36188 0.92628 0.30926 0.0
O166 O 0.43642 0.90599 0.52805 0.0
O167 O 0.40977 0.9507 0.4258 0.0
Co168 Co 0.34378 0.16997 0.89977 0.0
O169 O 0.26006 0.19304 0.91365 0.0
O170 O 0.33262 0.24582 0.97259 0.0
C171 C 0.34313 0.16567 0.77845 0.0
O172 O 0.4364 0.15676 0.89945 0.0
Co173 Co 0.36892 0.0201 0.8232 0.0
O174 O 0.45098 0.05857 0.82862 0.0
C175 C 0.32817 0.02133 0.96983 0.0
C176 C 0.27565 0.23772 0.96367 0.0
C177 C 0.47125 0.11098 0.86679 0.0
O178 O 0.33654 0.09102 0.97373 0.0
O179 O 0.33117 0.9844 0.91217 0.0
O180 O 0.34971 0.22899 0.8095 0.0
O181 O 0.33078 0.11324 0.82074 0.0
Co182 Co 0.73415 0.83139 0.39977 0.0
O183 O 0.81788 0.80832 0.41365 0.0
O184 O 0.74531 0.75554 0.47259 0.0
C185 C 0.73481 0.83569 0.27845 0.0
O186 O 0.64153 0.8446 0.39945 0.0
Co187 Co 0.70901 0.98126 0.3232 0.0
O188 O 0.62695 0.94278 0.32862 0.0
C189 C 0.74976 0.98002 0.46983 0.0
C190 C 0.80229 0.76363 0.46367 0.0
C191 C 0.60668 0.89037 0.36679 0.0
O192 O 0.74139 0.91034 0.47373 0.0
O193 O 0.74676 0.01696 0.41217 0.0
O194 O 0.72822 0.77236 0.3095 0.0
O195 O 0.74715 0.88811 0.32074 0.0
Co196 Co 0.34377 0.83141 0.10587 0.0
O197 O 0.26005 0.80835 0.09197 0.0
O198 O 0.33262 0.75556 0.03305 0.0
C199 C 0.34312 0.83572 0.22718 0.0
O200 O 0.43639 0.84461 0.1062 0.0
Co201 Co 0.36891 0.98129 0.18242 0.0
O202 O 0.45098 0.94281 0.17701 0.0
C203 C 0.32813 0.98003 0.03581 0.0
C204 C 0.27565 0.76366 0.04196 0.0
C205 C 0.47124 0.89039 0.13886 0.0
O206 O 0.33654 0.91036 0.0319 0.0
O207 O 0.33115 0.01698 0.09346 0.0
O208 O 0.3497 0.77239 0.19614 0.0
O209 O 0.33078 0.88814 0.18489 0.0
Co210 Co 0.73416 0.16994 0.60587 0.0
O211 O 0.81788 0.19301 0.59197 0.0
O212 O 0.74531 0.2458 0.53305 0.0
C213 C 0.73481 0.16563 0.72718 0.0
O214 O 0.64154 0.15675 0.6062 0.0
Co215 Co 0.70902 0.02007 0.68242 0.0
O216 O 0.62696 0.05855 0.67701 0.0
C217 C 0.7498 0.02132 0.53581 0.0
C218 C 0.80229 0.2377 0.54196 0.0
C219 C 0.60669 0.11097 0.63886 0.0
O220 O 0.74139 0.091 0.5319 0.0
O221 O 0.74678 0.98437 0.59346 0.0
O222 O 0.72823 0.22897 0.69614 0.0
O223 O 0.74716 0.11321 0.68489 0.0
loop_
_geom_bond_atom_site_label_1
_geom_bond_atom_site_label_2
_geom_bond_distance
_geom_bond_site_symmetry_2
_ccdc_geom_bond_type
Co0 O1 2.216 . S
Co0 O2 2.091 . S
Co0 O4 2.004 . S
Co0 O10 2.021 . S
Co0 O12 2.137 1_554 S
Co0 O13 2.244 . S
O1 Co0 2.216 . S
O1 C8 1.247 . S
O2 Co0 2.091 . S
O2 C8 1.261 . S
C3 O12 1.247 1_554 S
C3 O13 1.272 . S
O4 Co0 2.004 . S
O4 C9 1.259 . S
Co5 O6 2.061 . S
Co5 O11 2.052 . S
Co5 O13 2.135 . S
O6 Co5 2.061 . S
O6 C9 1.235 . S
C7 O10 1.238 . S
C7 O11 1.241 . S
C8 O1 1.247 . S
C8 O2 1.261 . S
C9 O4 1.259 . S
C9 O6 1.235 . S
O10 Co0 2.021 . S
O10 C7 1.238 . S
O11 Co5 2.052 . S
O11 C7 1.241 . S
O12 Co0 2.137 1_556 S
O12 C3 1.247 1_556 S
O13 Co0 2.244 . S
O13 C3 1.272 . S
O13 Co5 2.135 . S
Co14 O15 2.216 . S
Co14 O16 2.091 . S
Co14 O18 2.004 . S
Co14 O24 2.021 . S
Co14 O26 2.137 . S
Co14 O27 2.244 . S
O15 Co14 2.216 . S
O15 C22 1.247 . S
O16 Co14 2.091 . S
O16 C22 1.261 . S
C17 O26 1.247 . S
C17 O27 1.272 . S
O18 Co14 2.004 . S
O18 C23 1.259 . S
Co19 O20 2.061 . S
Co19 O25 2.052 . S
Co19 O27 2.135 . S
O20 Co19 2.061 . S
O20 C23 1.235 . S
C21 O24 1.238 . S
C21 O25 1.241 . S
C22 O15 1.247 . S
C22 O16 1.261 . S
C23 O18 1.259 . S
C23 O20 1.235 . S
O24 Co14 2.021 . S
O24 C21 1.238 . S
O25 Co19 2.052 . S
O25 C21 1.241 . S
O26 Co14 2.137 . S
O26 C17 1.247 . S
O27 Co14 2.244 . S
O27 C17 1.272 . S
O27 Co19 2.135 . S
Co28 O29 2.216 . S
Co28 O30 2.091 . S
Co28 O32 2.004 . S
Co28 O38 2.021 . S
Co28 O40 2.137 1_556 S
Co28 O41 2.244 . S
O29 Co28 2.216 . S
O29 C36 1.247 . S
O30 Co28 2.091 . S
O30 C36 1.261 . S
C31 O40 1.247 1_556 S
C31 O41 1.272 . S
O32 Co28 2.004 . S
O32 C37 1.259 . S
Co33 O34 2.061 . S
Co33 O39 2.052 . S
Co33 O41 2.135 . S
O34 Co33 2.061 . S
O34 C37 1.235 . S
C35 O38 1.238 . S
C35 O39 1.241 . S
C36 O29 1.247 . S
C36 O30 1.261 . S
C37 O32 1.259 . S
C37 O34 1.235 . S
O38 Co28 2.021 . S
O38 C35 1.238 . S
O39 Co33 2.052 . S
O39 C35 1.241 . S
O40 Co28 2.137 1_554 S
O40 C31 1.247 1_554 S
O41 Co28 2.244 . S
O41 C31 1.272 . S
O41 Co33 2.135 . S
Co42 O43 2.216 . S
Co42 O44 2.091 . S
Co42 O46 2.004 . S
Co42 O52 2.021 . S
Co42 O54 2.137 . S
Co42 O55 2.244 . S
O43 Co42 2.216 . S
O43 C50 1.247 . S
O44 Co42 2.091 . S
O44 C50 1.261 . S
C45 O54 1.247 . S
C45 O55 1.272 . S
O46 Co42 2.004 . S
O46 C51 1.259 . S
Co47 O48 2.061 . S
Co47 O53 2.052 . S
Co47 O55 2.135 . S
O48 Co47 2.061 . S
O48 C51 1.235 . S
C49 O52 1.238 . S
C49 O53 1.241 . S
C50 O43 1.247 . S
C50 O44 1.261 . S
C51 O46 1.259 . S
C51 O48 1.235 . S
O52 Co42 2.021 . S
O52 C49 1.238 . S
O53 Co47 2.052 . S
O53 C49 1.241 . S
O54 Co42 2.137 . S
O54 C45 1.247 . S
O55 Co42 2.244 . S
O55 C45 1.272 . S
O55 Co47 2.135 . S
Co56 O57 2.216 . S
Co56 O58 2.091 . S
Co56 O60 2.004 . S
Co56 O66 2.021 . S
Co56 O68 2.137 . S
Co56 O69 2.244 . S
O57 Co56 2.216 . S
O57 C64 1.247 . S
O58 Co56 2.091 . S
O58 C64 1.261 . S
C59 O68 1.247 . S
C59 O69 1.272 . S
O60 Co56 2.004 . S
O60 C65 1.259 . S
Co61 O62 2.061 . S
Co61 O67 2.052 . S
Co61 O69 2.135 . S
O62 Co61 2.061 . S
O62 C65 1.235 . S
C63 O66 1.238 . S
C63 O67 1.241 . S
C64 O57 1.247 . S
C64 O58 1.261 . S
C65 O60 1.259 . S
C65 O62 1.235 . S
O66 Co56 2.021 . S
O66 C63 1.238 . S
O67 Co61 2.052 . S
O67 C63 1.241 . S
O68 Co56 2.137 . S
O68 C59 1.247 . S
O69 Co56 2.244 . S
O69 C59 1.272 . S
O69 Co61 2.135 . S
Co70 O71 2.216 . S
Co70 O72 2.091 . S
Co70 O74 2.004 . S
Co70 O80 2.021 . S
Co70 O82 2.137 . S
Co70 O83 2.244 . S
O71 Co70 2.216 . S
O71 C78 1.247 . S
O72 Co70 2.091 . S
O72 C78 1.261 . S
C73 O82 1.247 . S
C73 O83 1.272 . S
O74 Co70 2.004 . S
O74 C79 1.259 . S
Co75 O76 2.061 . S
Co75 O81 2.052 . S
Co75 O83 2.135 . S
O76 Co75 2.061 . S
O76 C79 1.235 . S
C77 O80 1.238 . S
C77 O81 1.241 . S
C78 O71 1.247 . S
C78 O72 1.261 . S
C79 O74 1.259 . S
C79 O76 1.235 . S
O80 Co70 2.021 . S
O80 C77 1.238 . S
O81 Co75 2.052 . S
O81 C77 1.241 . S
O82 Co70 2.137 . S
O82 C73 1.247 . S
O83 Co70 2.244 . S
O83 C73 1.272 . S
O83 Co75 2.135 . S
Co84 O85 2.216 . S
Co84 O86 2.091 . S
Co84 O88 2.004 . S
Co84 O94 2.021 . S
Co84 O96 2.137 . S
Co84 O97 2.244 . S
O85 Co84 2.216 . S
O85 C92 1.247 . S
O86 Co84 2.091 . S
O86 C92 1.261 . S
C87 O96 1.247 . S
C87 O97 1.272 . S
O88 Co84 2.004 . S
O88 C93 1.259 . S
Co89 O90 2.061 . S
Co89 O95 2.052 . S
Co89 O97 2.135 . S
O90 Co89 2.061 . S
O90 C93 1.235 . S
C91 O94 1.238 . S
C91 O95 1.241 . S
C92 O85 1.247 . S
C92 O86 1.261 . S
C93 O88 1.259 . S
C93 O90 1.235 . S
O94 Co84 2.021 . S
O94 C91 1.238 . S
O95 Co89 2.052 . S
O95 C91 1.241 . S
O96 Co84 2.137 . S
O96 C87 1.247 . S
O97 Co84 2.244 . S
O97 C87 1.272 . S
O97 Co89 2.135 . S
Co98 O99 2.216 . S
Co98 O100 2.091 . S
Co98 O102 2.004 . S
Co98 O108 2.021 . S
Co98 O110 2.137 . S
Co98 O111 2.244 . S
O99 Co98 2.216 . S
O99 C106 1.247 . S
O100 Co98 2.091 . S
O100 C106 1.261 . S
C101 O110 1.247 . S
C101 O111 1.272 . S
O102 Co98 2.004 . S
O102 C107 1.259 . S
Co103 O104 2.061 . S
Co103 O109 2.052 . S
Co103 O111 2.135 . S
O104 Co103 2.061 . S
O104 C107 1.235 . S
C105 O108 1.238 . S
C105 O109 1.241 . S
C106 O99 1.247 . S
C106 O100 1.261 . S
C107 O102 1.259 . S
C107 O104 1.235 . S
O108 Co98 2.021 . S
O108 C105 1.238 . S
O109 Co103 2.052 . S
O109 C105 1.241 . S
O110 Co98 2.137 . S
O110 C101 1.247 . S
O111 Co98 2.244 . S
O111 C101 1.272 . S
O111 Co103 2.135 . S
Co112 O113 2.216 . S
Co112 O114 2.091 . S
Co112 O116 2.004 . S
Co112 O122 2.021 . S
Co112 O124 2.137 1_554 S
Co112 O125 2.244 . S
O113 Co112 2.216 . S
O113 C120 1.247 . S
O114 Co112 2.091 . S
O114 C120 1.261 . S
C115 O124 1.247 1_554 S
C115 O125 1.272 . S
O116 Co112 2.004 . S
O116 C121 1.259 . S
Co117 O118 2.061 . S
Co117 O123 2.052 . S
Co117 O125 2.135 . S
O118 Co117 2.061 . S
O118 C121 1.235 . S
C119 O122 1.238 . S
C119 O123 1.241 . S
C120 O113 1.247 . S
C120 O114 1.261 . S
C121 O116 1.259 . S
C121 O118 1.235 . S
O122 Co112 2.021 . S
O122 C119 1.238 . S
O123 Co117 2.052 . S
O123 C119 1.241 . S
O124 Co112 2.137 1_556 S
O124 C115 1.247 1_556 S
O125 Co112 2.244 . S
O125 C115 1.272 . S
O125 Co117 2.135 . S
Co126 O127 2.216 . S
Co126 O128 2.091 . S
Co126 O130 2.004 . S
Co126 O136 2.021 . S
Co126 O138 2.137 . S
Co126 O139 2.244 . S
O127 Co126 2.216 . S
O127 C134 1.247 . S
O128 Co126 2.091 . S
O128 C134 1.261 . S
C129 O138 1.247 . S
C129 O139 1.272 . S
O130 Co126 2.004 . S
O130 C135 1.259 . S
Co131 O132 2.061 . S
Co131 O137 2.052 . S
Co131 O139 2.135 . S
O132 Co131 2.061 . S
O132 C135 1.235 . S
C133 O136 1.238 . S
C133 O137 1.241 . S
C134 O127 1.247 . S
C134 O128 1.261 . S
C135 O130 1.259 . S
C135 O132 1.235 . S
O136 Co126 2.021 . S
O136 C133 1.238 . S
O137 Co131 2.052 . S
O137 C133 1.241 . S
O138 Co126 2.137 . S
O138 C129 1.247 . S
O139 Co126 2.244 . S
O139 C129 1.272 . S
O139 Co131 2.135 . S
Co140 O141 2.216 . S
Co140 O142 2.091 . S
Co140 O144 2.004 . S
Co140 O150 2.021 . S
Co140 O152 2.137 1_556 S
Co140 O153 2.244 . S
O141 Co140 2.216 . S
O141 C148 1.247 . S
O142 Co140 2.091 . S
O142 C148 1.261 . S
C143 O152 1.247 1_556 S
C143 O153 1.272 . S
O144 Co140 2.004 . S
O144 C149 1.259 . S
Co145 O146 2.061 . S
Co145 O151 2.052 . S
Co145 O153 2.135 . S
O146 Co145 2.061 . S
O146 C149 1.235 . S
C147 O150 1.238 . S
C147 O151 1.241 . S
C148 O141 1.247 . S
C148 O142 1.261 . S
C149 O144 1.259 . S
C149 O146 1.235 . S
O150 Co140 2.021 . S
O150 C147 1.238 . S
O151 Co145 2.052 . S
O151 C147 1.241 . S
O152 Co140 2.137 1_554 S
O152 C143 1.247 1_554 S
O153 Co140 2.244 . S
O153 C143 1.272 . S
O153 Co145 2.135 . S
Co154 O155 2.216 . S
Co154 O156 2.091 . S
Co154 O158 2.004 . S
Co154 O164 2.021 . S
Co154 O166 2.137 . S
Co154 O167 2.244 . S
O155 Co154 2.216 . S
O155 C162 1.247 . S
O156 Co154 2.091 . S
O156 C162 1.261 . S
C157 O166 1.247 . S
C157 O167 1.272 . S
O158 Co154 2.004 . S
O158 C163 1.259 . S
Co159 O160 2.061 . S
Co159 O165 2.052 . S
Co159 O167 2.135 . S
O160 Co159 2.061 . S
O160 C163 1.235 . S
C161 O164 1.238 . S
C161 O165 1.241 . S
C162 O155 1.247 . S
C162 O156 1.261 . S
C163 O158 1.259 . S
C163 O160 1.235 . S
O164 Co154 2.021 . S
O164 C161 1.238 . S
O165 Co159 2.052 . S
O165 C161 1.241 . S
O166 Co154 2.137 . S
O166 C157 1.247 . S
O167 Co154 2.244 . S
O167 C157 1.272 . S
O167 Co159 2.135 . S
Co168 O169 2.216 . S
Co168 O170 2.091 . S
Co168 O172 2.004 . S
Co168 O178 2.021 . S
Co168 O180 2.137 . S
Co168 O181 2.244 . S
O169 Co168 2.216 . S
O169 C176 1.247 . S
O170 Co168 2.091 . S
O170 C176 1.261 . S
C171 O180 1.247 . S
C171 O181 1.272 . S
O172 Co168 2.004 . S
O172 C177 1.259 . S
Co173 O174 2.061 . S
Co173 O179 2.053 . S
Co173 O181 2.135 . S
O174 Co173 2.061 . S
O174 C177 1.235 . S
C175 O178 1.238 . S
C175 O179 1.243 . S
C176 O169 1.247 . S
C176 O170 1.261 . S
C177 O172 1.259 . S
C177 O174 1.235 . S
O178 Co168 2.021 . S
O178 C175 1.238 . S
O179 Co173 2.053 . S
O179 C175 1.243 . S
O180 Co168 2.137 . S
O180 C171 1.247 . S
O181 Co168 2.244 . S
O181 C171 1.272 . S
O181 Co173 2.135 . S
Co182 O183 2.216 . S
Co182 O184 2.091 . S
Co182 O186 2.004 . S
Co182 O192 2.021 . S
Co182 O194 2.137 . S
Co182 O195 2.244 . S
O183 Co182 2.216 . S
O183 C190 1.247 . S
O184 Co182 2.091 . S
O184 C190 1.261 . S
C185 O194 1.247 . S
C185 O195 1.272 . S
O186 Co182 2.004 . S
O186 C191 1.259 . S
Co187 O188 2.061 . S
Co187 O193 2.053 . S
Co187 O195 2.135 . S
O188 Co187 2.061 . S
O188 C191 1.235 . S
C189 O192 1.238 . S
C189 O193 1.243 . S
C190 O183 1.247 . S
C190 O184 1.261 . S
C191 O186 1.259 . S
C191 O188 1.235 . S
O192 Co182 2.021 . S
O192 C189 1.238 . S
O193 Co187 2.053 . S
O193 C189 1.243 . S
O194 Co182 2.137 . S
O194 C185 1.247 . S
O195 Co182 2.244 . S
O195 C185 1.272 . S
O195 Co187 2.135 . S
Co196 O197 2.216 . S
Co196 O198 2.091 . S
Co196 O200 2.004 . S
Co196 O206 2.021 . S
Co196 O208 2.137 . S
Co196 O209 2.244 . S
O197 Co196 2.216 . S
O197 C204 1.247 . S
O198 Co196 2.091 . S
O198 C204 1.261 . S
C199 O208 1.247 . S
C199 O209 1.272 . S
O200 Co196 2.004 . S
O200 C205 1.259 . S
Co201 O202 2.061 . S
Co201 O207 2.053 . S
Co201 O209 2.135 . S
O202 Co201 2.061 . S
O202 C205 1.235 . S
C203 O206 1.238 . S
C203 O207 1.243 . S
C204 O197 1.247 . S
C204 O198 1.261 . S
C205 O200 1.259 . S
C205 O202 1.235 . S
O206 Co196 2.021 . S
O206 C203 1.238 . S
O207 Co201 2.053 . S
O207 C203 1.243 . S
O208 Co196 2.137 . S
O208 C199 1.247 . S
O209 Co196 2.244 . S
O209 C199 1.272 . S
O209 Co201 2.135 . S
Co210 O211 2.216 . S
Co210 O212 2.091 . S
Co210 O214 2.004 . S
Co210 O220 2.021 . S
Co210 O222 2.137 . S
Co210 O223 2.244 . S
O211 Co210 2.216 . S
O211 C218 1.247 . S
O212 Co210 2.091 . S
O212 C218 1.261 . S
C213 O222 1.247 . S
C213 O223 1.272 . S
O214 Co210 2.004 . S
O214 C219 1.259 . S
Co215 O216 2.061 . S
Co215 O221 2.053 . S
Co215 O223 2.135 . S
O216 Co215 2.061 . S
O216 C219 1.235 . S
C217 O220 1.238 . S
C217 O221 1.243 . S
C218 O211 1.247 . S
C218 O212 1.261 . S
C219 O214 1.259 . S
C219 O216 1.235 . S
O220 Co210 2.021 . S
O220 C217 1.238 . S
O221 Co215 2.053 . S
O221 C217 1.243 . S
O222 Co210 2.137 . S
O222 C213 1.247 . S
O223 Co210 2.244 . S
O223 C213 1.272 . S
O223 Co215 2.135 . S
C9 C93 1.361 1_455 S
C23 C107 1.361 1_655 S
C65 C37 1.361 1_655 S
C79 C51 1.361 1_455 S
C205 C121 1.361 . S
C219 C135 1.361 . S
C149 C177 1.361 . S
C163 C191 1.361 . S
C7 C73 1.454 . S
C21 C59 1.454 . S
C35 C101 1.454 . S
C87 C49 1.454 . S
C185 C119 1.454 . S
C171 C133 1.454 . S
C147 C213 1.454 . S
C199 C161 1.454 . S
C176 C8 1.469 1_556 S
C22 C190 1.469 . S
C204 C36 1.469 1_554 S
C218 C50 1.469 . S
C120 C64 1.469 1_554 S
C134 C78 1.469 . S
C92 C148 1.469 1_554 S
C106 C162 1.469 . S
C31 C3 1.607 1_556 S
C17 C45 1.607 . S
C91 C63 1.309 1_554 S
C77 C105 1.309 . S
C143 C115 1.607 1_546 S
C157 C129 1.607 1_565 S
C203 C175 1.309 1_564 S
C217 C189 1.309 1_545 S
