# Generated by pormake.
# Topology uog, (4)-cn, num edge types: 1
# Building blocks:
#     Node 0, Type 0, BuildingBlock: NAWXER_clean_sbu_0, # of connection points: 4
#     Node 1, Type 0, BuildingBlock: NAWXER_clean_sbu_0, # of connection points: 4
#     Node 2, Type 0, BuildingBlock: NAWXER_clean_sbu_0, # of connection points: 4
#     Node 3, Type 0, BuildingBlock: NAWXER_clean_sbu_0, # of connection points: 4
#     Node 4, Type 0, BuildingBlock: NAWXER_clean_sbu_0, # of connection points: 4
#     Node 5, Type 0, BuildingBlock: NAWXER_clean_sbu_0, # of connection points: 4
#     Edge 6, Type (0, 0), None
#     Edge 7, Type (0, 0), None
#     Edge 8, Type (0, 0), None
#     Edge 9, Type (0, 0), None
#     Edge 10, Type (0, 0), None
#     Edge 11, Type (0, 0), None
#     Edge 12, Type (0, 0), None
#     Edge 13, Type (0, 0), None
#     Edge 14, Type (0, 0), None
#     Edge 15, Type (0, 0), None
#     Edge 16, Type (0, 0), None
#     Edge 17, Type (0, 0), None
# Relax obj value: 0.013
# Max RMSD: 0.240
# Mean RMSD: 0.240
data_MOF--net-uog--node1-NAWXER_clean_sbu_0--edge1-none
_symmetry_space_group_name_H-M    P1
_symmetry_Int_Tables_number       1
_symmetry_cell_setting            triclinic
loop_
_symmetry_equiv_pos_as_xyz
'x, y, z'
_cell_length_a     12.820723
_cell_length_b     12.821038
_cell_length_c     19.047257
_cell_angle_alpha  89.999943
_cell_angle_beta   90.000325
_cell_angle_gamma 120.00249
loop_
_atom_site_label
_atom_site_type_symbol
_atom_site_fract_x
_atom_site_fract_y
_atom_site_fract_z
_atom_type_partial_charge
C0 C 0.51848 0.45414 0.1871 0.0
C1 C 0.51847 0.06863 0.16718 0.0
O2 O 0.42551 0.34924 0.18596 0.0
Zn3 Zn 0.50645 0.25538 0.17714 0.0
O4 O 0.62327 0.4656 0.18414 0.0
Zn5 Zn 0.70013 0.35222 0.17714 0.0
O6 O 0.78153 0.40186 0.0868 0.0
O7 O 0.58359 0.31096 0.07648 0.0
O8 O 0.62326 0.16197 0.17013 0.0
O9 O 0.4255 0.08056 0.16833 0.0
O10 O 0.5836 0.27693 0.2778 0.0
O11 O 0.78154 0.38397 0.26747 0.0
C12 C 0.68805 0.36631 0.0487 0.0
C13 C 0.68806 0.32602 0.30557 0.0
C14 C 0.37059 0.68378 0.63891 0.0
C15 C 0.33029 0.68378 0.38203 0.0
O16 O 0.40614 0.77726 0.60081 0.0
Zn17 Zn 0.35649 0.69586 0.51047 0.0
O18 O 0.31523 0.57932 0.61113 0.0
Zn19 Zn 0.25964 0.50219 0.51047 0.0
O20 O 0.3535 0.42123 0.50165 0.0
O21 O 0.46987 0.61899 0.50346 0.0
O22 O 0.2812 0.57933 0.40981 0.0
O23 O 0.38824 0.77726 0.42014 0.0
O24 O 0.16624 0.61899 0.51748 0.0
O25 O 0.08483 0.42123 0.51928 0.0
C26 C 0.4584 0.5142 0.50051 0.0
C27 C 0.0729 0.5142 0.52044 0.0
C28 C 0.69537 0.36631 0.97224 0.0
C29 C 0.65505 0.32601 0.71537 0.0
O30 O 0.63743 0.40186 0.93414 0.0
Zn31 Zn 0.66918 0.35221 0.84381 0.0
O32 O 0.74448 0.31096 0.94446 0.0
Zn33 Zn 0.76602 0.25538 0.8438 0.0
O34 O 0.94084 0.34924 0.83498 0.0
O35 O 0.85943 0.46559 0.8368 0.0
O36 O 0.71042 0.27692 0.74314 0.0
O37 O 0.61952 0.38395 0.75347 0.0
O38 O 0.55581 0.16196 0.85081 0.0
O39 O 0.67217 0.08057 0.85262 0.0
C40 C 0.95276 0.45414 0.83384 0.0
C41 C 0.56727 0.06863 0.85377 0.0
C42 C 0.33762 0.6911 0.30557 0.0
C43 C 0.3376 0.65078 0.0487 0.0
O44 O 0.24413 0.63315 0.26748 0.0
Zn45 Zn 0.32553 0.66491 0.17714 0.0
O46 O 0.44208 0.74021 0.27779 0.0
Zn47 Zn 0.51921 0.76176 0.17713 0.0
O48 O 0.60016 0.93657 0.16832 0.0
O49 O 0.4024 0.85516 0.17013 0.0
O50 O 0.44206 0.70615 0.07648 0.0
O51 O 0.24413 0.61525 0.0868 0.0
O52 O 0.40241 0.55154 0.18415 0.0
O53 O 0.60017 0.6679 0.18595 0.0
C54 C 0.50719 0.94849 0.16718 0.0
C55 C 0.5072 0.563 0.1871 0.0
C56 C 0.56726 0.50292 0.50051 0.0
C57 C 0.95276 0.50292 0.52044 0.0
O58 O 0.67216 0.59589 0.50165 0.0
Zn59 Zn 0.76602 0.51494 0.51047 0.0
O60 O 0.5558 0.39813 0.50346 0.0
Zn61 Zn 0.66917 0.32126 0.51047 0.0
O62 O 0.61952 0.23986 0.60081 0.0
O63 O 0.71043 0.4378 0.61113 0.0
O64 O 0.85943 0.39813 0.51748 0.0
O65 O 0.94084 0.59589 0.51929 0.0
O66 O 0.74448 0.4378 0.40981 0.0
O67 O 0.63742 0.23985 0.42013 0.0
C68 C 0.65507 0.33334 0.6389 0.0
C69 C 0.69538 0.33334 0.38204 0.0
C70 C 0.45841 0.94849 0.85377 0.0
C71 C 0.07291 0.563 0.83384 0.0
O72 O 0.35351 0.93656 0.85263 0.0
Zn73 Zn 0.25965 0.76175 0.84381 0.0
O74 O 0.46987 0.85517 0.85081 0.0
Zn75 Zn 0.35649 0.66492 0.8438 0.0
O76 O 0.40614 0.63317 0.75347 0.0
O77 O 0.31524 0.74021 0.74315 0.0
O78 O 0.16624 0.55154 0.83679 0.0
O79 O 0.08484 0.66789 0.83499 0.0
O80 O 0.28119 0.70615 0.94446 0.0
O81 O 0.38824 0.61526 0.93414 0.0
C82 C 0.3706 0.69111 0.71537 0.0
C83 C 0.33028 0.65078 0.97223 0.0
loop_
_geom_bond_atom_site_label_1
_geom_bond_atom_site_label_2
_geom_bond_distance
_geom_bond_site_symmetry_2
_ccdc_geom_bond_type
C0 O2 1.247 . S
C0 O4 1.258 . S
C1 O8 1.247 . S
C1 O9 1.258 . S
O2 C0 1.247 . S
O2 Zn3 2.028 . S
Zn3 O2 2.028 . S
Zn3 O7 2.035 . S
Zn3 O9 2.035 . S
Zn3 O10 2.028 . S
O4 C0 1.258 . S
O4 Zn5 2.035 . S
Zn5 O4 2.035 . S
Zn5 O6 2.028 . S
Zn5 O8 2.028 . S
Zn5 O11 2.035 . S
O6 Zn5 2.028 . S
O6 C12 1.247 . S
O7 Zn3 2.035 . S
O7 C12 1.258 . S
O8 C1 1.247 . S
O8 Zn5 2.028 . S
O9 C1 1.258 . S
O9 Zn3 2.035 . S
O10 Zn3 2.028 . S
O10 C13 1.247 . S
O11 Zn5 2.035 . S
O11 C13 1.258 . S
C12 O6 1.247 . S
C12 O7 1.258 . S
C13 O10 1.247 . S
C13 O11 1.258 . S
C14 O16 1.247 . S
C14 O18 1.258 . S
C15 O22 1.247 . S
C15 O23 1.258 . S
O16 C14 1.247 . S
O16 Zn17 2.028 . S
Zn17 O16 2.028 . S
Zn17 O21 2.035 . S
Zn17 O23 2.035 . S
Zn17 O24 2.028 . S
O18 C14 1.258 . S
O18 Zn19 2.035 . S
Zn19 O18 2.035 . S
Zn19 O20 2.028 . S
Zn19 O22 2.028 . S
Zn19 O25 2.035 . S
O20 Zn19 2.028 . S
O20 C26 1.247 . S
O21 Zn17 2.035 . S
O21 C26 1.258 . S
O22 C15 1.247 . S
O22 Zn19 2.028 . S
O23 C15 1.258 . S
O23 Zn17 2.035 . S
O24 Zn17 2.028 . S
O24 C27 1.247 . S
O25 Zn19 2.035 . S
O25 C27 1.258 . S
C26 O20 1.247 . S
C26 O21 1.258 . S
C27 O24 1.247 . S
C27 O25 1.258 . S
C28 O30 1.247 . S
C28 O32 1.258 . S
C29 O36 1.247 . S
C29 O37 1.258 . S
O30 C28 1.247 . S
O30 Zn31 2.028 . S
Zn31 O30 2.028 . S
Zn31 O35 2.035 . S
Zn31 O37 2.035 . S
Zn31 O38 2.028 . S
O32 C28 1.258 . S
O32 Zn33 2.035 . S
Zn33 O32 2.035 . S
Zn33 O34 2.028 . S
Zn33 O36 2.028 . S
Zn33 O39 2.035 . S
O34 Zn33 2.028 . S
O34 C40 1.247 . S
O35 Zn31 2.035 . S
O35 C40 1.258 . S
O36 C29 1.247 . S
O36 Zn33 2.028 . S
O37 C29 1.258 . S
O37 Zn31 2.035 . S
O38 Zn31 2.028 . S
O38 C41 1.247 . S
O39 Zn33 2.035 . S
O39 C41 1.258 . S
C40 O34 1.247 . S
C40 O35 1.258 . S
C41 O38 1.247 . S
C41 O39 1.258 . S
C42 O44 1.247 . S
C42 O46 1.258 . S
C43 O50 1.247 . S
C43 O51 1.258 . S
O44 C42 1.247 . S
O44 Zn45 2.028 . S
Zn45 O44 2.028 . S
Zn45 O49 2.035 . S
Zn45 O51 2.035 . S
Zn45 O52 2.028 . S
O46 C42 1.258 . S
O46 Zn47 2.035 . S
Zn47 O46 2.035 . S
Zn47 O48 2.028 . S
Zn47 O50 2.028 . S
Zn47 O53 2.035 . S
O48 Zn47 2.028 . S
O48 C54 1.247 . S
O49 Zn45 2.035 . S
O49 C54 1.258 . S
O50 C43 1.247 . S
O50 Zn47 2.028 . S
O51 C43 1.258 . S
O51 Zn45 2.035 . S
O52 Zn45 2.028 . S
O52 C55 1.247 . S
O53 Zn47 2.035 . S
O53 C55 1.258 . S
C54 O48 1.247 . S
C54 O49 1.258 . S
C55 O52 1.247 . S
C55 O53 1.258 . S
C56 O58 1.247 . S
C56 O60 1.258 . S
C57 O64 1.247 . S
C57 O65 1.258 . S
O58 C56 1.247 . S
O58 Zn59 2.028 . S
Zn59 O58 2.028 . S
Zn59 O63 2.035 . S
Zn59 O65 2.035 . S
Zn59 O66 2.028 . S
O60 C56 1.258 . S
O60 Zn61 2.035 . S
Zn61 O60 2.035 . S
Zn61 O62 2.028 . S
Zn61 O64 2.028 . S
Zn61 O67 2.035 . S
O62 Zn61 2.028 . S
O62 C68 1.247 . S
O63 Zn59 2.035 . S
O63 C68 1.258 . S
O64 C57 1.247 . S
O64 Zn61 2.028 . S
O65 C57 1.258 . S
O65 Zn59 2.035 . S
O66 Zn59 2.028 . S
O66 C69 1.247 . S
O67 Zn61 2.035 . S
O67 C69 1.258 . S
C68 O62 1.247 . S
C68 O63 1.258 . S
C69 O66 1.247 . S
C69 O67 1.258 . S
C70 O72 1.247 . S
C70 O74 1.258 . S
C71 O78 1.247 . S
C71 O79 1.258 . S
O72 C70 1.247 . S
O72 Zn73 2.028 . S
Zn73 O72 2.028 . S
Zn73 O77 2.035 . S
Zn73 O79 2.035 . S
Zn73 O80 2.028 . S
O74 C70 1.258 . S
O74 Zn75 2.035 . S
Zn75 O74 2.035 . S
Zn75 O76 2.028 . S
Zn75 O78 2.028 . S
Zn75 O81 2.035 . S
O76 Zn75 2.028 . S
O76 C82 1.247 . S
O77 Zn73 2.035 . S
O77 C82 1.258 . S
O78 C71 1.247 . S
O78 Zn75 2.028 . S
O79 C71 1.258 . S
O79 Zn73 2.035 . S
O80 Zn73 2.028 . S
O80 C83 1.247 . S
O81 Zn75 2.035 . S
O81 C83 1.258 . S
C82 O76 1.247 . S
C82 O77 1.258 . S
C83 O80 1.247 . S
C83 O81 1.258 . S
C1 C54 2.080 1_545 S
C26 C56 2.073 . S
C40 C71 2.080 1_655 S
C27 C57 2.087 1_455 S
C70 C41 2.080 1_565 S
C55 C0 2.080 . S
C28 C12 2.132 1_556 S
C42 C15 2.138 . S
C29 C68 2.138 . S
C83 C43 2.145 1_556 S
C69 C13 2.145 . S
C82 C14 2.132 . S
