# Generated by pormake.
# Topology qzd, (4)-cn, num edge types: 1
# Building blocks:
#     Node 0, Type 0, BuildingBlock: ESEHIV_clean_sbu_0, # of connection points: 4
#     Node 1, Type 0, BuildingBlock: ESEHIV_clean_sbu_0, # of connection points: 4
#     Node 2, Type 0, BuildingBlock: ESEHIV_clean_sbu_0, # of connection points: 4
#     Edge 3, Type (0, 0), BuildingBlock: FUNLAD_clean_linker_0, # of connection points: 2
#     Edge 4, Type (0, 0), BuildingBlock: FUNLAD_clean_linker_0, # of connection points: 2
#     Edge 5, Type (0, 0), BuildingBlock: FUNLAD_clean_linker_0, # of connection points: 2
#     Edge 6, Type (0, 0), BuildingBlock: FUNLAD_clean_linker_0, # of connection points: 2
#     Edge 7, Type (0, 0), BuildingBlock: FUNLAD_clean_linker_0, # of connection points: 2
#     Edge 8, Type (0, 0), BuildingBlock: FUNLAD_clean_linker_0, # of connection points: 2
# Relax obj value: 0.000
# Max RMSD: 0.159
# Mean RMSD: 0.075
data_MOF--net-qzd--node1-ESEHIV_clean_sbu_0--edge1-FUNLAD_clean_linker_0
_symmetry_space_group_name_H-M    P1
_symmetry_Int_Tables_number       1
_symmetry_cell_setting            triclinic
loop_
_symmetry_equiv_pos_as_xyz
'x, y, z'
_cell_length_a     16.94342
_cell_length_b     19.447404
_cell_length_c     53.47263
_cell_angle_alpha  99.756329
_cell_angle_beta   99.548676
_cell_angle_gamma 115.02391
loop_
_atom_site_label
_atom_site_type_symbol
_atom_site_fract_x
_atom_site_fract_y
_atom_site_fract_z
_atom_type_partial_charge
Cu0 Cu 0.29421 0.16805 0.03713 0.0
N1 N 0.28574 0.12049 0.06491 0.0
N2 N 0.26399 0.0968 0.10341 0.0
C3 C 0.25705 0.13819 0.08596 0.0
C4 C 0.29847 0.05128 0.09279 0.0
C5 C 0.31188 0.0661 0.06908 0.0
O6 O 0.21711 0.21984 0.03722 0.0
C7 C 0.48453 0.26085 0.06092 0.0
O8 O 0.46397 0.25179 0.08317 0.0
H9 H 0.23419 0.18246 0.08873 0.0
H10 H 0.33999 0.03998 0.05599 0.0
N11 N 0.25163 0.09188 1.0049 0.0
N12 N 0.21998 0.03816 0.96166 0.0
C13 C 0.25806 0.10569 0.98126 0.0
C14 C 0.20812 1.0131 1.00022 0.0
C15 C 0.18844 0.97984 0.97363 0.0
C16 C 0.13231 0.17356 0.03 0.0
O17 O 0.10447 0.09725 0.0232 0.0
H18 H 0.29058 0.16427 0.97863 0.0
H19 H 0.19068 0.98202 0.01503 0.0
O20 O 0.4211 0.23605 0.03994 0.0
H21 H 0.31298 1.01009 0.10145 0.0
H22 H 0.15179 0.91745 0.96389 0.0
Cu23 Cu 0.10949 0.20892 0.37371 0.0
N24 N 0.14989 0.31625 0.37629 0.0
N25 N 0.23984 0.44049 0.377 0.0
C26 C 0.22996 0.36654 0.37351 0.0
C27 C 0.16275 0.4363 0.38209 0.0
C28 C 0.1074 0.35967 0.38157 0.0
O29 O 0.14277 0.16682 0.34364 0.0
C30 C 0.16183 0.23989 0.42821 0.0
O31 O 0.13575 0.29376 0.42607 0.0
H32 H 0.28053 0.34933 0.36949 0.0
H33 H 0.04148 0.33757 0.38529 0.0
N34 N 0.98369 0.15648 0.36717 0.0
N35 N 0.84569 0.06552 0.36582 0.0
C36 C 0.9355 0.08967 0.37351 0.0
C37 C 0.92243 0.17531 0.35504 0.0
C38 C 0.8374 0.11946 0.35419 0.0
C39 C 0.10751 0.17248 0.32157 0.0
O40 O 0.05293 0.20439 0.32096 0.0
H41 H 0.96609 0.0599 0.38375 0.0
H42 H 0.93818 0.22554 0.34703 0.0
O43 O 0.15918 0.19534 0.40727 0.0
H44 H 0.14713 0.48497 0.38578 0.0
H45 H 0.77438 0.11795 0.34519 0.0
Cu46 Cu 1.00949 0.99784 0.67299 0.0
N47 N 0.93725 0.04814 0.67553 0.0
N48 N 0.89346 0.14183 0.67692 0.0
C49 C 0.95881 0.12169 0.67353 0.0
C50 C 0.82842 0.07858 0.68134 0.0
C51 C 0.85552 1.02075 0.68038 0.0
O52 O 0.07987 0.03547 0.64824 0.0
C53 C 1.0357 0.98528 0.72393 0.0
O54 O 0.94834 0.93922 0.71445 0.0
H55 H 1.02184 0.16001 0.67001 0.0
H56 H 0.81838 0.96289 0.68309 0.0
N57 N 0.93787 0.88902 0.6594 0.0
N58 N 0.89432 0.75996 0.65127 0.0
C59 C 0.95935 0.83303 0.6649 0.0
C60 C 0.85651 0.85016 0.64169 0.0
C61 C 0.82957 0.77045 0.63657 0.0
C62 C 1.03452 0.03408 0.62642 0.0
O63 O 0.94698 1.00805 0.62244 0.0
H64 H 1.02214 0.84581 0.67834 0.0
H65 H 0.81952 0.87785 0.63307 0.0
O66 O 0.0804 1.01882 0.70871 0.0
H67 H 0.76538 0.07411 0.68472 0.0
H68 H 0.76685 0.72385 0.62329 0.0
C69 C 0.0817 0.2739 0.04641 0.0
C70 C 0.06399 0.20241 0.02941 0.0
C71 C 1.01205 0.29487 0.0473 0.0
C72 C 0.92392 0.245 0.03091 0.0
C73 C 0.90811 0.17569 0.01314 0.0
C74 C 0.97676 0.15427 0.01258 0.0
C75 C 0.84562 0.26107 0.03174 0.0
C76 C 0.83789 0.30248 0.05332 0.0
C77 C 0.75116 0.30332 0.05512 0.0
C78 C 0.73265 0.31189 0.07978 0.0
C79 C 0.64756 0.30249 0.08188 0.0
C80 C 0.57902 0.2849 0.05932 0.0
H81 H 0.6974 0.28764 0.01354 0.0
C82 C 0.59968 0.28212 0.03487 0.0
C83 C 0.68477 0.29145 0.03278 0.0
H84 H 0.549 0.26969 0.01711 0.0
H85 H 0.14836 0.31217 0.05959 0.0
H86 H 1.02735 0.34973 0.06083 0.0
H87 H 0.84138 0.13641 1.00012 0.0
H88 H 0.96103 0.09913 0.99908 0.0
H89 H 0.78758 0.22938 0.01466 0.0
H90 H 0.89274 0.32845 0.07122 0.0
H91 H 0.7827 0.32214 0.09739 0.0
H92 H 0.63447 0.30572 0.10108 0.0
C93 C 0.78594 0.93053 0.37165 0.0
C94 C 0.77356 0.99625 0.36891 0.0
C95 C 0.71543 0.863 0.3742 0.0
C96 C 0.63052 0.85948 0.37392 0.0
C97 C 0.61882 0.92565 0.37165 0.0
C98 C 0.6892 0.99304 0.36909 0.0
C99 C 0.5532 0.78925 0.37661 0.0
C100 C 0.54541 0.71597 0.37132 0.0
C101 C 0.46632 0.64585 0.37335 0.0
C102 C 0.44785 0.57057 0.35918 0.0
C103 C 0.3739 0.50326 0.3604 0.0
C104 C 0.31683 0.50967 0.37595 0.0
H105 H 0.42384 0.70848 0.40145 0.0
C106 C 0.33621 0.58485 0.39052 0.0
C107 C 0.41027 0.65211 0.38938 0.0
H108 H 0.29496 0.59173 0.40319 0.0
H109 H 0.8498 0.93071 0.37151 0.0
H110 H 0.72848 0.81442 0.3767 0.0
H111 H 0.55465 0.92516 0.3717 0.0
H112 H 0.67759 0.04292 0.36752 0.0
H113 H 0.49836 0.79819 0.38183 0.0
H114 H 0.5962 0.70552 0.36382 0.0
H115 H 0.49017 0.5638 0.34684 0.0
H116 H 0.36063 0.44632 0.34881 0.0
C117 C 0.93673 0.67765 0.67543 0.0
C118 C 0.89445 0.68631 0.6521 0.0
C119 C 0.93672 0.60611 0.67625 0.0
C120 C 0.89486 0.54184 0.65363 0.0
C121 C 0.85392 0.55098 0.63023 0.0
C122 C 0.85285 0.62215 0.62952 0.0
C123 C 0.89556 0.46562 0.65356 0.0
C124 C 0.89503 0.43734 0.6749 0.0
C125 C 0.89418 0.36049 0.67469 0.0
C126 C 0.85233 0.31777 0.69153 0.0
C127 C 0.85115 0.24568 0.69205 0.0
C128 C 0.89352 0.21556 0.67611 0.0
H129 H 0.97166 0.36269 0.64601 0.0
C130 C 0.93663 0.25885 0.65953 0.0
C131 C 0.93676 0.33044 0.65875 0.0
H132 H 0.96956 0.23696 0.64697 0.0
H133 H 0.96908 0.72601 0.69315 0.0
H134 H 0.97093 0.60187 0.69446 0.0
H135 H 0.82206 0.5027 0.61247 0.0
H136 H 0.82086 0.62744 0.61118 0.0
H137 H 0.89126 0.42985 0.63493 0.0
H138 H 0.88998 0.46934 0.69279 0.0
H139 H 0.81987 0.33998 0.70421 0.0
H140 H 0.81847 0.21416 0.70526 0.0
C141 C 0.07177 0.13688 0.27264 0.0
C142 C 0.12864 0.14748 0.29685 0.0
C143 C 0.09363 0.12046 0.24908 0.0
C144 C 0.17415 0.1156 0.24906 0.0
C145 C 0.22903 0.12243 0.27316 0.0
C146 C 0.20658 0.1383 0.29687 0.0
C147 C 0.20186 0.10322 0.22424 0.0
C148 C 0.17566 0.12626 0.20325 0.0
C149 C 0.19973 0.11586 0.17771 0.0
C150 C 0.1588 0.13628 0.15713 0.0
C151 C 0.1792 0.12941 0.13286 0.0
C152 C 0.2416 0.10207 0.12839 0.0
H153 H 0.29592 0.072 0.18842 0.0
C154 C 0.28236 0.08102 0.14887 0.0
C155 C 0.26184 0.08784 0.17325 0.0
H156 H 0.33157 0.06064 0.1463 0.0
H157 H 1.01014 0.14185 0.27184 0.0
H158 H 0.04686 0.11163 0.23096 0.0
H159 H 0.29067 0.11762 0.27373 0.0
H160 H 0.25155 0.14582 0.31522 0.0
H161 H 0.24675 0.07684 0.22385 0.0
H162 H 0.13412 0.15584 0.20475 0.0
H163 H 0.11042 0.15774 0.1598 0.0
H164 H 0.14528 0.14501 0.11753 0.0
C165 C 1.03467 0.0895 0.58785 0.0
C166 C 0.07695 0.06194 0.60558 0.0
C167 C 0.06846 0.11083 0.56677 0.0
C168 C 0.14529 0.10461 0.56268 0.0
C169 C 0.18793 0.07699 0.58036 0.0
C170 C 0.15482 0.05689 0.60192 0.0
C171 C 0.17746 0.12305 0.53918 0.0
C172 C 0.17505 0.18342 0.53048 0.0
C173 C 0.18991 0.19897 0.50489 0.0
C174 C 0.20683 0.27364 0.50175 0.0
C175 C 0.20367 0.28774 0.47699 0.0
C176 C 0.18309 0.22738 0.45458 0.0
H177 H 0.16077 0.08094 0.48437 0.0
C178 C 0.17226 0.15388 0.45781 0.0
C179 C 0.17537 0.13961 0.4828 0.0
H180 H 0.15583 0.10611 0.44088 0.0
H181 H 0.97446 0.09394 0.5901 0.0
H182 H 1.03248 0.12995 0.5532 0.0
H183 H 0.24673 0.07097 0.57748 0.0
H184 H 0.18818 0.03505 0.61516 0.0
H185 H 0.20187 0.08616 0.52893 0.0
H186 H 0.15823 0.22337 0.54262 0.0
H187 H 0.21838 0.32052 0.51835 0.0
H188 H 0.21332 0.34532 0.47527 0.0
C189 C 1.0296 0.94924 0.7664 0.0
C190 C 0.07811 0.99878 0.7521 0.0
C191 C 0.06434 0.96362 0.79337 0.0
C192 C 0.14899 1.02804 0.80688 0.0
C193 C 0.19808 0.07741 0.7926 0.0
C194 C 0.16342 0.06253 0.7654 0.0
C195 C 0.1838 0.04749 0.83602 0.0
C196 C 0.16179 0.99207 0.84941 0.0
C197 C 0.18583 1.00893 0.87867 0.0
C198 C 0.18239 0.94791 0.88994 0.0
C199 C 0.1957 0.95815 0.91709 0.0
C200 C 0.21184 1.02959 0.93378 0.0
H201 H 0.20507 0.12912 0.88741 0.0
C202 C 0.21705 0.0914 0.92256 0.0
C203 C 0.20413 0.08124 0.89533 0.0
H204 H 0.22811 0.14691 0.93462 0.0
H205 H 0.96352 0.8997 0.75684 0.0
H206 H 1.02291 0.92554 0.80366 0.0
H207 H 0.26304 0.12794 0.80254 0.0
H208 H 0.20215 0.10212 0.75498 0.0
H209 H 0.22877 0.10875 0.84652 0.0
H210 H 0.12405 0.9304 0.83842 0.0
H211 H 0.16815 0.89148 0.87764 0.0
H212 H 0.19272 0.90959 0.92491 0.0
loop_
_geom_bond_atom_site_label_1
_geom_bond_atom_site_label_2
_geom_bond_distance
_geom_bond_site_symmetry_2
_ccdc_geom_bond_type
Cu0 N1 1.999 . S
Cu0 O6 1.974 1_455 S
Cu0 N11 1.985 1_554 S
Cu0 O20 1.959 . S
N1 Cu0 1.999 . S
N1 C3 1.263 1_455 S
N1 C5 1.389 . S
N2 C3 1.358 1_455 S
N2 C4 1.400 . S
C3 N1 1.263 1_655 S
C3 N2 1.358 1_655 S
C3 H9 0.930 1_545 S
C4 N2 1.400 . S
C4 C5 1.351 . S
C4 H21 0.930 . S
C5 N1 1.389 . S
C5 C4 1.351 . S
C5 H10 0.930 . S
O6 Cu0 1.974 1_655 S
O6 C16 1.282 1_545 S
C7 O8 1.261 . S
C7 O20 1.251 1_565 S
O8 C7 1.261 . S
H9 C3 0.930 1_565 S
H10 C5 0.930 . S
N11 Cu0 1.985 1_556 S
N11 C13 1.335 . S
N11 C14 1.390 1_445 S
N12 C13 1.345 . S
N12 C15 1.336 1_445 S
C13 N11 1.335 . S
C13 N12 1.345 . S
C13 H18 0.930 . S
C14 N11 1.390 1_665 S
C14 C15 1.346 . S
C14 H19 0.930 . S
C15 N12 1.336 1_665 S
C15 C14 1.346 . S
C15 H22 0.929 . S
C16 O6 1.282 1_565 S
C16 O17 1.216 1_554 S
O17 C16 1.216 1_556 S
H18 C13 0.930 . S
H19 C14 0.930 . S
O20 Cu0 1.959 . S
O20 C7 1.251 1_545 S
H21 C4 0.930 . S
H22 C15 0.929 . S
Cu23 N24 1.999 . S
Cu23 O29 1.974 . S
Cu23 N34 1.985 1_455 S
Cu23 O43 1.959 . S
N24 Cu23 1.999 . S
N24 C26 1.263 . S
N24 C28 1.389 . S
N25 C26 1.358 . S
N25 C27 1.400 . S
C26 N24 1.263 . S
C26 N25 1.358 . S
C26 H32 0.930 . S
C27 N25 1.400 . S
C27 C28 1.351 . S
C27 H44 0.930 . S
C28 N24 1.389 . S
C28 C27 1.351 . S
C28 H33 0.930 . S
O29 Cu23 1.974 . S
O29 C39 1.282 1_455 S
C30 O31 1.261 1_455 S
C30 O43 1.251 . S
O31 C30 1.261 1_655 S
H32 C26 0.930 . S
H33 C28 0.930 . S
N34 Cu23 1.985 1_655 S
N34 C36 1.335 1_545 S
N34 C37 1.390 1_545 S
N35 C36 1.345 . S
N35 C38 1.336 . S
C36 N34 1.335 1_565 S
C36 N35 1.345 . S
C36 H41 0.930 . S
C37 N34 1.390 1_565 S
C37 C38 1.346 . S
C37 H42 0.930 . S
C38 N35 1.336 . S
C38 C37 1.346 . S
C38 H45 0.929 . S
C39 O29 1.282 1_655 S
C39 O40 1.216 . S
O40 C39 1.216 . S
H41 C36 0.930 . S
H42 C37 0.930 . S
O43 Cu23 1.959 . S
O43 C30 1.251 . S
H44 C27 0.930 . S
H45 C38 0.929 . S
Cu46 N47 1.999 . S
Cu46 O52 1.974 . S
Cu46 N57 1.985 . S
Cu46 O66 1.959 . S
N47 Cu46 1.999 . S
N47 C49 1.263 . S
N47 C51 1.389 . S
N48 C49 1.358 . S
N48 C50 1.400 . S
C49 N47 1.263 . S
C49 N48 1.358 . S
C49 H55 0.930 . S
C50 N48 1.400 . S
C50 C51 1.351 . S
C50 H67 0.930 . S
C51 N47 1.389 . S
C51 C50 1.351 . S
C51 H56 0.930 . S
O52 Cu46 1.974 . S
O52 C62 1.282 . S
C53 O54 1.261 . S
C53 O66 1.251 . S
O54 C53 1.261 . S
H55 C49 0.930 . S
H56 C51 0.930 . S
N57 Cu46 1.985 . S
N57 C59 1.335 . S
N57 C60 1.390 1_545 S
N58 C59 1.345 1_565 S
N58 C61 1.336 . S
C59 N57 1.335 . S
C59 N58 1.345 1_545 S
C59 H64 0.930 . S
C60 N57 1.390 1_565 S
C60 C61 1.346 . S
C60 H65 0.930 . S
C61 N58 1.336 . S
C61 C60 1.346 . S
C61 H68 0.929 . S
C62 O52 1.282 . S
C62 O63 1.216 . S
O63 C62 1.216 . S
H64 C59 0.930 . S
H65 C60 0.930 . S
O66 Cu46 1.959 . S
O66 C53 1.251 . S
H67 C50 0.930 . S
H68 C61 0.929 . S
C69 C70 1.386 1_545 S
C69 C71 1.383 . S
C69 H85 0.951 . S
C70 C69 1.386 1_565 S
C70 C74 1.383 1_554 S
C71 C69 1.383 . S
C71 C72 1.402 1_544 S
C71 H86 0.951 . S
C72 C71 1.402 1_566 S
C72 C73 1.375 . S
C72 C75 1.481 . S
C73 C72 1.375 . S
C73 C74 1.367 . S
C73 H87 0.951 . S
C74 C70 1.383 1_556 S
C74 C73 1.367 . S
C74 H88 0.950 . S
C75 C72 1.481 . S
C75 C76 1.307 . S
C75 H89 0.950 . S
C76 C75 1.307 . S
C76 C77 1.476 . S
C76 H90 0.943 1_565 S
C77 C76 1.476 . S
C77 C78 1.375 1_566 S
C77 C83 1.404 . S
C78 C77 1.375 1_544 S
C78 C79 1.369 . S
C78 H91 0.950 . S
C79 C78 1.369 . S
C79 C80 1.392 1_545 S
C79 H92 0.951 . S
C80 C79 1.392 1_565 S
C80 C82 1.384 1_554 S
H81 C83 0.949 . S
C82 C80 1.384 1_556 S
C82 C83 1.385 . S
C82 H84 0.950 . S
C83 C77 1.404 . S
C83 H81 0.949 . S
C83 C82 1.385 . S
H84 C82 0.950 . S
H85 C69 0.951 . S
H86 C71 0.951 . S
H87 C73 0.951 . S
H88 C74 0.950 . S
H89 C75 0.950 . S
H90 C76 0.943 1_545 S
H91 C78 0.950 . S
H92 C79 0.951 . S
C93 C94 1.386 . S
C93 C95 1.383 . S
C93 H109 0.951 . S
C94 C93 1.386 . S
C94 C98 1.383 . S
C95 C93 1.383 . S
C95 C96 1.402 . S
C95 H110 0.951 . S
C96 C95 1.402 . S
C96 C97 1.375 . S
C96 C99 1.481 . S
C97 C96 1.375 . S
C97 C98 1.367 . S
C97 H111 0.951 . S
C98 C94 1.383 . S
C98 C97 1.367 . S
C98 H112 0.950 . S
C99 C96 1.481 . S
C99 C100 1.297 . S
C99 H113 0.950 . S
C100 C99 1.297 . S
C100 C101 1.479 . S
C100 H114 0.950 . S
C101 C100 1.479 . S
C101 C102 1.375 . S
C101 C107 1.404 . S
C102 C101 1.375 . S
C102 C103 1.369 . S
C102 H115 0.950 . S
C103 C102 1.369 . S
C103 C104 1.392 . S
C103 H116 0.951 . S
C104 C103 1.392 . S
C104 C106 1.384 . S
H105 C107 0.949 . S
C106 C104 1.384 . S
C106 C107 1.385 . S
C106 H108 0.950 . S
C107 C101 1.404 . S
C107 H105 0.949 . S
C107 C106 1.385 . S
H108 C106 0.950 . S
H109 C93 0.951 . S
H110 C95 0.951 . S
H111 C97 0.951 . S
H112 C98 0.950 . S
H113 C99 0.950 . S
H114 C100 0.950 . S
H115 C102 0.950 . S
H116 C103 0.951 . S
C117 C118 1.386 . S
C117 C119 1.383 . S
C117 H133 0.951 . S
C118 C117 1.386 . S
C118 C122 1.383 . S
C119 C117 1.383 . S
C119 C120 1.402 . S
C119 H134 0.951 . S
C120 C119 1.402 . S
C120 C121 1.375 . S
C120 C123 1.481 . S
C121 C120 1.375 . S
C121 C122 1.367 . S
C121 H135 0.951 . S
C122 C118 1.383 . S
C122 C121 1.367 . S
C122 H136 0.950 . S
C123 C120 1.481 . S
C123 C124 1.297 . S
C123 H137 0.950 . S
C124 C123 1.297 . S
C124 C125 1.479 . S
C124 H138 0.950 . S
C125 C124 1.479 . S
C125 C126 1.375 . S
C125 C131 1.404 . S
C126 C125 1.375 . S
C126 C127 1.369 . S
C126 H139 0.950 . S
C127 C126 1.369 . S
C127 C128 1.392 . S
C127 H140 0.951 . S
C128 C127 1.392 . S
C128 C130 1.384 . S
H129 C131 0.949 . S
C130 C128 1.384 . S
C130 C131 1.385 . S
C130 H132 0.950 . S
C131 C125 1.404 . S
C131 H129 0.949 . S
C131 C130 1.385 . S
H132 C130 0.950 . S
H133 C117 0.951 . S
H134 C119 0.951 . S
H135 C121 0.951 . S
H136 C122 0.950 . S
H137 C123 0.950 . S
H138 C124 0.950 . S
H139 C126 0.950 . S
H140 C127 0.951 . S
C141 C142 1.386 . S
C141 C143 1.383 . S
C141 H157 0.951 . S
C142 C141 1.386 . S
C142 C146 1.383 1_655 S
C143 C141 1.383 . S
C143 C144 1.402 1_655 S
C143 H158 0.951 . S
C144 C143 1.402 1_455 S
C144 C145 1.375 . S
C144 C147 1.481 . S
C145 C144 1.375 . S
C145 C146 1.367 . S
C145 H159 0.951 1_545 S
C146 C142 1.383 1_455 S
C146 C145 1.367 . S
C146 H160 0.950 . S
C147 C144 1.481 . S
C147 C148 1.297 . S
C147 H161 0.950 . S
C148 C147 1.297 . S
C148 C149 1.479 . S
C148 H162 0.950 . S
C149 C148 1.479 . S
C149 C150 1.375 . S
C149 C155 1.404 . S
C150 C149 1.375 . S
C150 C151 1.369 . S
C150 H163 0.950 1_455 S
C151 C150 1.369 . S
C151 C152 1.392 . S
C151 H164 0.951 1_455 S
C152 C151 1.392 . S
C152 C154 1.379 1_545 S
H153 C155 0.949 1_565 S
C154 C152 1.379 1_565 S
C154 C155 1.384 1_565 S
C154 H156 0.956 . S
C155 C149 1.404 . S
C155 H153 0.949 1_545 S
C155 C154 1.384 1_545 S
H156 C154 0.956 . S
H157 C141 0.951 . S
H158 C143 0.951 . S
H159 C145 0.951 1_565 S
H160 C146 0.950 . S
H161 C147 0.950 . S
H162 C148 0.950 . S
H163 C150 0.950 1_655 S
H164 C151 0.951 1_655 S
C165 C166 1.386 . S
C165 C167 1.383 . S
C165 H181 0.951 . S
C166 C165 1.386 . S
C166 C170 1.383 . S
C167 C165 1.383 . S
C167 C168 1.402 . S
C167 H182 0.951 . S
C168 C167 1.402 . S
C168 C169 1.375 . S
C168 C171 1.481 . S
C169 C168 1.375 . S
C169 C170 1.367 . S
C169 H183 0.951 . S
C170 C166 1.383 . S
C170 C169 1.367 . S
C170 H184 0.950 . S
C171 C168 1.481 . S
C171 C172 1.297 . S
C171 H185 0.950 . S
C172 C171 1.297 . S
C172 C173 1.479 . S
C172 H186 0.950 . S
C173 C172 1.479 . S
C173 C174 1.375 1_455 S
C173 C179 1.404 . S
C174 C173 1.375 1_655 S
C174 C175 1.369 . S
C174 H187 0.950 . S
C175 C174 1.369 . S
C175 C176 1.392 1_655 S
C175 H188 0.951 . S
C176 C175 1.392 1_455 S
C176 C178 1.384 . S
H177 C179 0.949 . S
C178 C176 1.384 . S
C178 C179 1.385 . S
C178 H180 0.950 . S
C179 C173 1.404 . S
C179 H177 0.949 . S
C179 C178 1.385 . S
H180 C178 0.950 . S
H181 C165 0.951 . S
H182 C167 0.951 . S
H183 C169 0.951 . S
H184 C170 0.950 . S
H185 C171 0.950 . S
H186 C172 0.950 . S
H187 C174 0.950 . S
H188 C175 0.951 . S
C189 C190 1.386 . S
C189 C191 1.383 . S
C189 H205 0.951 . S
C190 C189 1.386 . S
C190 C194 1.383 . S
C191 C189 1.383 . S
C191 C192 1.402 . S
C191 H206 0.951 . S
C192 C191 1.402 . S
C192 C193 1.375 . S
C192 C195 1.481 . S
C193 C192 1.375 . S
C193 C194 1.367 . S
C193 H207 0.951 . S
C194 C190 1.383 . S
C194 C193 1.367 . S
C194 H208 0.950 . S
C195 C192 1.481 . S
C195 C196 1.297 . S
C195 H209 0.950 . S
C196 C195 1.297 . S
C196 C197 1.479 . S
C196 H210 0.950 . S
C197 C196 1.479 . S
C197 C198 1.375 . S
C197 C203 1.404 . S
C198 C197 1.375 . S
C198 C199 1.369 1_545 S
C198 H211 0.950 1_545 S
C199 C198 1.369 1_565 S
C199 C200 1.392 1_565 S
C199 H212 0.951 . S
C200 C199 1.392 1_545 S
C200 C202 1.384 . S
H201 C203 0.949 . S
C202 C200 1.384 . S
C202 C203 1.385 . S
C202 H204 0.950 . S
C203 C197 1.404 . S
C203 H201 0.949 . S
C203 C202 1.385 . S
H204 C202 0.950 . S
H205 C189 0.951 . S
H206 C191 0.951 . S
H207 C193 0.951 . S
H208 C194 0.950 . S
H209 C195 0.950 . S
H210 C196 0.950 . S
H211 C198 0.950 1_565 S
H212 C199 0.951 . S
C70 C16 1.463 . S
C80 C7 1.481 . S
C94 N35 1.474 . S
C104 N25 1.405 . S
C118 N58 1.439 . S
C128 N48 1.455 . S
C142 C39 1.581 . S
C152 N2 1.472 . S
C166 C62 1.587 . S
C176 C30 1.582 . S
C190 C53 1.524 . S
C200 N12 1.522 . S
