# Generated by pormake.
# Topology umw, (4)-cn, num edge types: 1
# Building blocks:
#     Node 0, Type 0, BuildingBlock: GALJAG_clean_sbu_0, # of connection points: 4
#     Node 1, Type 0, BuildingBlock: GALJAG_clean_sbu_0, # of connection points: 4
#     Node 2, Type 0, BuildingBlock: GALJAG_clean_sbu_0, # of connection points: 4
#     Node 3, Type 0, BuildingBlock: GALJAG_clean_sbu_0, # of connection points: 4
#     Node 4, Type 0, BuildingBlock: GALJAG_clean_sbu_0, # of connection points: 4
#     Node 5, Type 0, BuildingBlock: GALJAG_clean_sbu_0, # of connection points: 4
#     Node 6, Type 0, BuildingBlock: GALJAG_clean_sbu_0, # of connection points: 4
#     Node 7, Type 0, BuildingBlock: GALJAG_clean_sbu_0, # of connection points: 4
#     Edge 8, Type (0, 0), None
#     Edge 9, Type (0, 0), None
#     Edge 10, Type (0, 0), None
#     Edge 11, Type (0, 0), None
#     Edge 12, Type (0, 0), None
#     Edge 13, Type (0, 0), None
#     Edge 14, Type (0, 0), None
#     Edge 15, Type (0, 0), None
#     Edge 16, Type (0, 0), None
#     Edge 17, Type (0, 0), None
#     Edge 18, Type (0, 0), None
#     Edge 19, Type (0, 0), None
#     Edge 20, Type (0, 0), None
#     Edge 21, Type (0, 0), None
#     Edge 22, Type (0, 0), None
#     Edge 23, Type (0, 0), None
# Relax obj value: 0.089
# Max RMSD: 0.077
# Mean RMSD: 0.077
data_MOF--net-umw--node1-GALJAG_clean_sbu_0--edge1-none
_symmetry_space_group_name_H-M    P1
_symmetry_Int_Tables_number       1
_symmetry_cell_setting            triclinic
loop_
_symmetry_equiv_pos_as_xyz
'x, y, z'
_cell_length_a     18.608833
_cell_length_b     18.610381
_cell_length_c     12.03862
_cell_angle_alpha  90.000081
_cell_angle_beta   89.997383
_cell_angle_gamma 90.003394
loop_
_atom_site_label
_atom_site_type_symbol
_atom_site_fract_x
_atom_site_fract_y
_atom_site_fract_z
_atom_type_partial_charge
In0 In 0.39629 0.16151 0.34253 0.0
O1 O 0.28286 0.19605 0.39382 0.0
O2 O 0.36669 0.27378 0.40503 0.0
C3 C 0.38541 0.01741 0.338 0.0
C4 C 0.46106 0.16258 0.53616 0.0
C5 C 0.4592 0.19422 0.14356 0.0
O6 O 0.33062 0.05629 0.32169 0.0
O7 O 0.44348 0.05094 0.34962 0.0
O8 O 0.49278 0.19382 0.23435 0.0
O9 O 0.39223 0.18291 0.15287 0.0
C10 C 0.30291 0.25677 0.42959 0.0
O11 O 0.49404 0.17983 0.44837 0.0
O12 O 0.3967 0.1435 0.52586 0.0
In13 In 0.79479 0.39633 0.59251 0.0
O14 O 0.77647 0.49407 0.69835 0.0
O15 O 0.81281 0.39675 0.77583 0.0
C16 C 0.76208 0.45924 0.39354 0.0
C17 C 0.69954 0.30294 0.67958 0.0
C18 C 0.9389 0.38544 0.58797 0.0
O19 O 0.7625 0.49281 0.48434 0.0
O20 O 0.77338 0.39228 0.40285 0.0
O21 O 0.90001 0.33066 0.57165 0.0
O22 O 0.90538 0.44351 0.5996 0.0
C23 C 0.79372 0.4611 0.78615 0.0
O24 O 0.76026 0.28291 0.64378 0.0
O25 O 0.68252 0.36671 0.65501 0.0
In26 In 0.56003 0.79483 0.84252 0.0
O27 O 0.67345 0.7603 0.89379 0.0
O28 O 0.58963 0.68256 0.90502 0.0
C29 C 0.57091 0.93893 0.83798 0.0
C30 C 0.49526 0.79377 0.03616 0.0
C31 C 0.49712 0.76212 0.64355 0.0
O32 O 0.6257 0.90005 0.82167 0.0
O33 O 0.51283 0.9054 0.84961 0.0
O34 O 0.46354 0.76252 0.73435 0.0
O35 O 0.56409 0.77343 0.65286 0.0
C36 C 0.65341 0.69958 0.92958 0.0
O37 O 0.46228 0.77651 0.94837 0.0
O38 O 0.55961 0.81285 0.02584 0.0
In39 In 0.16153 0.56002 0.09251 0.0
O40 O 0.17985 0.46229 0.19835 0.0
O41 O 0.1435 0.5596 0.27584 0.0
C42 C 0.19423 0.49711 0.89354 0.0
C43 C 0.25678 0.65341 0.17958 0.0
C44 C 0.01741 0.57092 0.08798 0.0
O45 O 0.19381 0.46354 0.98434 0.0
O46 O 0.18294 0.56408 0.90285 0.0
O47 O 0.05631 0.62569 0.07165 0.0
O48 O 0.05093 0.51284 0.09961 0.0
C49 C 0.16259 0.49525 0.28615 0.0
O50 O 0.19605 0.67345 0.1438 0.0
O51 O 0.2738 0.58964 0.15501 0.0
In52 In 0.39631 0.79482 0.33613 0.0
O53 O 0.28288 0.76028 0.28483 0.0
O54 O 0.3667 0.68255 0.27361 0.0
C55 C 0.38541 0.93892 0.34069 0.0
C56 C 0.46109 0.79377 0.14249 0.0
C57 C 0.45923 0.76215 0.53508 0.0
O58 O 0.33063 0.90002 0.357 0.0
O59 O 0.44349 0.9054 0.32904 0.0
O60 O 0.4928 0.76254 0.44428 0.0
O61 O 0.39225 0.77341 0.52579 0.0
C62 C 0.30293 0.69957 0.24903 0.0
O63 O 0.49405 0.7765 0.23028 0.0
O64 O 0.39673 0.81286 0.15281 0.0
In65 In 0.16152 0.39632 0.58611 0.0
O66 O 0.17986 0.49405 0.48027 0.0
O67 O 0.14349 0.39674 0.40279 0.0
C68 C 0.19419 0.45923 0.78507 0.0
C69 C 0.25676 0.30293 0.49903 0.0
C70 C 0.0174 0.38544 0.59066 0.0
O71 O 0.19383 0.4928 0.69427 0.0
O72 O 0.18291 0.39226 0.77577 0.0
O73 O 0.05629 0.33066 0.60696 0.0
O74 O 0.05093 0.44351 0.57903 0.0
C75 C 0.16259 0.46108 0.39247 0.0
O76 O 0.19603 0.28289 0.53482 0.0
O77 O 0.27379 0.36669 0.52361 0.0
In78 In 0.56001 0.16152 0.83612 0.0
O79 O 0.46226 0.17984 0.73028 0.0
O80 O 0.55959 0.14349 0.6528 0.0
C81 C 0.49709 0.19418 0.03508 0.0
C82 C 0.65338 0.25678 0.74901 0.0
C83 C 0.57091 0.01742 0.84067 0.0
O84 O 0.46351 0.1938 0.94428 0.0
O85 O 0.56407 0.18293 0.02578 0.0
O86 O 0.62569 0.05632 0.85697 0.0
O87 O 0.51283 0.05094 0.82904 0.0
C88 C 0.49523 0.16257 0.64249 0.0
O89 O 0.67343 0.19607 0.78481 0.0
O90 O 0.58961 0.27379 0.77361 0.0
In91 In 0.7948 0.56004 0.08611 0.0
O92 O 0.77645 0.46231 0.98027 0.0
O93 O 0.81284 0.55961 0.90278 0.0
C94 C 0.76213 0.49713 0.28507 0.0
C95 C 0.69956 0.65342 0.99902 0.0
C96 C 0.93891 0.57092 0.09066 0.0
O97 O 0.7625 0.46355 0.19427 0.0
O98 O 0.77339 0.5641 0.27577 0.0
O99 O 0.90003 0.6257 0.10696 0.0
O100 O 0.90538 0.51285 0.07901 0.0
C101 C 0.79373 0.49527 0.89247 0.0
O102 O 0.76029 0.67346 0.0348 0.0
O103 O 0.68253 0.58966 0.02361 0.0
loop_
_geom_bond_atom_site_label_1
_geom_bond_atom_site_label_2
_geom_bond_distance
_geom_bond_site_symmetry_2
_ccdc_geom_bond_type
In0 O1 2.294 . S
In0 O2 2.326 . S
In0 O6 2.266 . S
In0 O7 2.326 . S
In0 O8 2.266 . S
In0 O9 2.326 . S
In0 O11 2.294 . S
In0 O12 2.326 . S
O1 In0 2.294 . S
O1 C10 1.240 . S
O2 In0 2.326 . S
O2 C10 1.252 . S
C3 O6 1.252 . S
C3 O7 1.260 . S
C4 O11 1.240 . S
C4 O12 1.252 . S
C5 O8 1.252 . S
C5 O9 1.260 . S
O6 In0 2.266 . S
O6 C3 1.252 . S
O7 In0 2.326 . S
O7 C3 1.260 . S
O8 In0 2.266 . S
O8 C5 1.252 . S
O9 In0 2.326 . S
O9 C5 1.260 . S
C10 O1 1.240 . S
C10 O2 1.252 . S
O11 In0 2.294 . S
O11 C4 1.240 . S
O12 In0 2.326 . S
O12 C4 1.252 . S
In13 O14 2.294 . S
In13 O15 2.326 . S
In13 O19 2.266 . S
In13 O20 2.326 . S
In13 O21 2.266 . S
In13 O22 2.326 . S
In13 O24 2.294 . S
In13 O25 2.326 . S
O14 In13 2.294 . S
O14 C23 1.240 . S
O15 In13 2.326 . S
O15 C23 1.252 . S
C16 O19 1.252 . S
C16 O20 1.260 . S
C17 O24 1.240 . S
C17 O25 1.252 . S
C18 O21 1.252 . S
C18 O22 1.260 . S
O19 In13 2.266 . S
O19 C16 1.252 . S
O20 In13 2.326 . S
O20 C16 1.260 . S
O21 In13 2.266 . S
O21 C18 1.252 . S
O22 In13 2.326 . S
O22 C18 1.260 . S
C23 O14 1.240 . S
C23 O15 1.252 . S
O24 In13 2.294 . S
O24 C17 1.240 . S
O25 In13 2.326 . S
O25 C17 1.252 . S
In26 O27 2.294 . S
In26 O28 2.326 . S
In26 O32 2.266 . S
In26 O33 2.326 . S
In26 O34 2.266 . S
In26 O35 2.326 . S
In26 O37 2.294 . S
In26 O38 2.326 1_556 S
O27 In26 2.294 . S
O27 C36 1.240 . S
O28 In26 2.326 . S
O28 C36 1.252 . S
C29 O32 1.252 . S
C29 O33 1.260 . S
C30 O37 1.240 1_554 S
C30 O38 1.252 . S
C31 O34 1.252 . S
C31 O35 1.260 . S
O32 In26 2.266 . S
O32 C29 1.252 . S
O33 In26 2.326 . S
O33 C29 1.260 . S
O34 In26 2.266 . S
O34 C31 1.252 . S
O35 In26 2.326 . S
O35 C31 1.260 . S
C36 O27 1.240 . S
C36 O28 1.252 . S
O37 In26 2.294 . S
O37 C30 1.240 1_556 S
O38 In26 2.326 1_554 S
O38 C30 1.252 . S
In39 O40 2.294 . S
In39 O41 2.326 . S
In39 O45 2.266 1_554 S
In39 O46 2.326 1_554 S
In39 O47 2.266 . S
In39 O48 2.326 . S
In39 O50 2.294 . S
In39 O51 2.326 . S
O40 In39 2.294 . S
O40 C49 1.240 . S
O41 In39 2.326 . S
O41 C49 1.252 . S
C42 O45 1.252 . S
C42 O46 1.260 . S
C43 O50 1.240 . S
C43 O51 1.252 . S
C44 O47 1.252 . S
C44 O48 1.260 . S
O45 In39 2.266 1_556 S
O45 C42 1.252 . S
O46 In39 2.326 1_556 S
O46 C42 1.260 . S
O47 In39 2.266 . S
O47 C44 1.252 . S
O48 In39 2.326 . S
O48 C44 1.260 . S
C49 O40 1.240 . S
C49 O41 1.252 . S
O50 In39 2.294 . S
O50 C43 1.240 . S
O51 In39 2.326 . S
O51 C43 1.252 . S
In52 O53 2.294 . S
In52 O54 2.326 . S
In52 O58 2.266 . S
In52 O59 2.326 . S
In52 O60 2.266 . S
In52 O61 2.326 . S
In52 O63 2.294 . S
In52 O64 2.326 . S
O53 In52 2.294 . S
O53 C62 1.240 . S
O54 In52 2.326 . S
O54 C62 1.252 . S
C55 O58 1.252 . S
C55 O59 1.260 . S
C56 O63 1.240 . S
C56 O64 1.252 . S
C57 O60 1.252 . S
C57 O61 1.260 . S
O58 In52 2.266 . S
O58 C55 1.252 . S
O59 In52 2.326 . S
O59 C55 1.260 . S
O60 In52 2.266 . S
O60 C57 1.252 . S
O61 In52 2.326 . S
O61 C57 1.260 . S
C62 O53 1.240 . S
C62 O54 1.252 . S
O63 In52 2.294 . S
O63 C56 1.240 . S
O64 In52 2.326 . S
O64 C56 1.252 . S
In65 O66 2.294 . S
In65 O67 2.326 . S
In65 O71 2.266 . S
In65 O72 2.326 . S
In65 O73 2.266 . S
In65 O74 2.326 . S
In65 O76 2.294 . S
In65 O77 2.326 . S
O66 In65 2.294 . S
O66 C75 1.240 . S
O67 In65 2.326 . S
O67 C75 1.252 . S
C68 O71 1.252 . S
C68 O72 1.260 . S
C69 O76 1.240 . S
C69 O77 1.252 . S
C70 O73 1.252 . S
C70 O74 1.260 . S
O71 In65 2.266 . S
O71 C68 1.252 . S
O72 In65 2.326 . S
O72 C68 1.260 . S
O73 In65 2.266 . S
O73 C70 1.252 . S
O74 In65 2.326 . S
O74 C70 1.260 . S
C75 O66 1.240 . S
C75 O67 1.252 . S
O76 In65 2.294 . S
O76 C69 1.240 . S
O77 In65 2.326 . S
O77 C69 1.252 . S
In78 O79 2.294 . S
In78 O80 2.326 . S
In78 O84 2.266 . S
In78 O85 2.326 . S
In78 O86 2.266 . S
In78 O87 2.326 . S
In78 O89 2.294 . S
In78 O90 2.326 . S
O79 In78 2.294 . S
O79 C88 1.240 . S
O80 In78 2.326 . S
O80 C88 1.252 . S
C81 O84 1.252 1_554 S
C81 O85 1.260 1_554 S
C82 O89 1.240 . S
C82 O90 1.252 . S
C83 O86 1.252 . S
C83 O87 1.260 . S
O84 In78 2.266 . S
O84 C81 1.252 1_556 S
O85 In78 2.326 . S
O85 C81 1.260 1_556 S
O86 In78 2.266 . S
O86 C83 1.252 . S
O87 In78 2.326 . S
O87 C83 1.260 . S
C88 O79 1.240 . S
C88 O80 1.252 . S
O89 In78 2.294 . S
O89 C82 1.240 . S
O90 In78 2.326 . S
O90 C82 1.252 . S
In91 O92 2.294 1_554 S
In91 O93 2.326 1_554 S
In91 O97 2.266 . S
In91 O98 2.326 . S
In91 O99 2.266 . S
In91 O100 2.326 . S
In91 O102 2.294 . S
In91 O103 2.326 . S
O92 In91 2.294 1_556 S
O92 C101 1.240 . S
O93 In91 2.326 1_556 S
O93 C101 1.252 . S
C94 O97 1.252 . S
C94 O98 1.260 . S
C95 O102 1.240 . S
C95 O103 1.252 . S
C96 O99 1.252 . S
C96 O100 1.260 . S
O97 In91 2.266 . S
O97 C94 1.252 . S
O98 In91 2.326 . S
O98 C94 1.260 . S
O99 In91 2.266 . S
O99 C96 1.252 . S
O100 In91 2.326 . S
O100 C96 1.260 . S
C101 O92 1.240 . S
C101 O93 1.252 . S
O102 In91 2.294 . S
O102 C95 1.240 . S
O103 In91 2.326 . S
O103 C95 1.252 . S
C4 C88 0.889 . S
C23 C101 0.889 . S
C56 C30 0.889 . S
C75 C49 0.889 . S
C10 C69 1.728 . S
C17 C82 1.728 . S
C95 C36 1.728 1_554 S
C43 C62 1.728 . S
C55 C3 1.715 1_565 S
C18 C70 1.715 1_655 S
C29 C83 1.715 1_565 S
C96 C44 1.715 1_655 S
C81 C5 1.683 . S
C94 C16 1.683 . S
C31 C57 1.683 . S
C42 C68 1.683 . S
