# Generated by pormake.
# Topology pcu, (6)-cn, num edge types: 1
# Building blocks:
#     Node 0, Type 0, BuildingBlock: BETDAH_clean_sbu_0, # of connection points: 6
#     Edge 1, Type (0, 0), BuildingBlock: MIFKUJ_clean_linker_0, # of connection points: 2
#     Edge 2, Type (0, 0), BuildingBlock: MIFKUJ_clean_linker_0, # of connection points: 2
#     Edge 3, Type (0, 0), BuildingBlock: MIFKUJ_clean_linker_0, # of connection points: 2
# Relax obj value: 0.000
# Max RMSD: 0.000
# Mean RMSD: 0.000
data_MOF--net-pcu--node1-BETDAH_clean_sbu_0--edge1-MIFKUJ_clean_linker_0
_symmetry_space_group_name_H-M    P1
_symmetry_Int_Tables_number       1
_symmetry_cell_setting            triclinic
loop_
_symmetry_equiv_pos_as_xyz
'x, y, z'
_cell_length_a     29.854435
_cell_length_b     19.76621
_cell_length_c     18.841833
_cell_angle_alpha  86.963939
_cell_angle_beta   94.545579
_cell_angle_gamma 125.09319
loop_
_atom_site_label
_atom_site_type_symbol
_atom_site_fract_x
_atom_site_fract_y
_atom_site_fract_z
_atom_type_partial_charge
Ho0 Ho 0.96528 0.94263 0.02639 0.0
Ho1 Ho 0.0849 0.03729 0.99434 0.0
C2 C 0.03835 0.14208 1.00793 0.0
C3 C 0.87135 0.89108 0.0739 0.0
C4 C 0.83118 0.91248 0.06469 0.0
C5 C 0.80678 0.91399 0.12454 0.0
C6 C 0.76638 0.92939 0.11733 0.0
C7 C 0.74907 0.94312 0.04971 0.0
C8 C 0.77469 0.94363 0.98979 0.0
C9 C 0.81542 0.92873 0.99722 0.0
C10 C 0.9842 0.95644 0.88628 0.0
C11 C 1.01181 0.83785 0.01257 0.0
C12 C 0.17896 0.08897 0.94718 0.0
C13 C 0.21906 0.06742 0.95631 0.0
C14 C 0.24336 0.06577 0.89641 0.0
C15 C 0.28372 0.05029 0.90356 0.0
C16 C 0.30109 0.03662 0.97116 0.0
C17 C 0.27557 0.03625 0.03112 0.0
C18 C 0.23488 0.05123 0.02377 0.0
C19 C 0.06566 0.02336 0.13444 0.0
O20 O 0.99792 0.07644 0.04029 0.0
O21 O 0.07292 0.13814 0.97188 0.0
O22 O 0.87688 0.85903 0.01919 0.0
O23 O 0.91827 0.94457 0.10753 0.0
O24 O 0.94238 0.89236 0.91497 0.0
O25 O 1.0119 0.01247 0.93188 0.0
O26 O 0.05224 0.90351 0.98024 0.0
O27 O 0.97726 0.84177 0.04869 0.0
O28 O 0.17331 0.12069 1.00203 0.0
O29 O 0.13212 0.03576 0.91325 0.0
O30 O 0.10745 0.0876 0.10583 0.0
O31 O 0.0383 0.96741 0.08873 0.0
H32 H 0.81861 0.90218 0.17696 0.0
H33 H 0.74862 0.93028 0.1649 0.0
H34 H 0.76236 0.95342 0.93683 0.0
H35 H 0.83385 0.92851 0.95004 0.0
H36 H 0.23148 0.07754 0.844 0.0
H37 H 0.3014 0.0493 0.85595 0.0
H38 H 0.28796 0.0265 0.08407 0.0
H39 H 0.21654 0.05157 0.07099 0.0
H40 H 0.98647 0.88651 0.20662 0.0
H41 H 0.97177 0.87466 0.33432 0.0
H42 H 0.10544 0.13164 0.36122 0.0
H43 H 0.1209 0.143 0.23445 0.0
H44 H 0.11449 0.04374 0.46182 0.0
H45 H 0.96703 0.05864 0.36198 0.0
H46 H 0.88352 0.01861 0.28793 0.0
H47 H 0.79505 0.77906 0.38827 0.0
H48 H 0.87822 0.8171 0.46207 0.0
H49 H 0.06339 0.09299 0.81385 0.0
H50 H 0.07794 0.10451 0.68614 0.0
H51 H 0.94403 0.84761 0.65965 0.0
H52 H 0.92868 0.83659 0.78644 0.0
H53 H 0.93507 0.93524 0.55883 0.0
H54 H 0.08248 0.92037 0.65881 0.0
H55 H 0.16596 0.96042 0.73293 0.0
H56 H 0.25453 0.19984 0.63237 0.0
H57 H 0.17138 0.1618 0.5585 0.0
C58 C 1.01252 0.94038 0.23991 0.0
C59 C 0.05496 0.01558 0.21077 0.0
C60 C 1.00394 0.93376 0.31279 0.0
C61 C 0.03723 0.00248 0.35758 0.0
C62 C 0.07929 0.07767 0.32804 0.0
C63 C 0.08803 0.08415 0.25549 0.0
C64 C 0.02978 -0.00401 0.43556 0.0
C65 C 0.07536 0.02104 0.48299 0.0
C66 C 0.97848 0.96437 0.46348 0.0
C67 C 0.92903 0.94052 0.41715 0.0
C68 C 0.92996 -0.00291 0.36765 0.0
C69 C 0.88263 0.97483 0.32587 0.0
C70 C 0.834 0.8964 0.33354 0.0
C71 C 0.83273 0.83981 0.38247 0.0
C72 C 0.87994 0.86167 0.42426 0.0
C73 C 0.03724 0.03906 0.78065 0.0
C74 C 0.99478 0.96399 0.80992 0.0
C75 C 0.04575 0.0455 0.70776 0.0
C76 C 1.01236 0.9767 0.66308 0.0
C77 C 0.97026 0.90163 0.69274 0.0
C78 C 0.96158 0.89535 0.7653 0.0
C79 C 1.01978 0.98301 0.5851 0.0
C80 C 0.97419 0.95792 0.53767 0.0
C81 C 0.07108 0.0146 0.55718 0.0
C82 C 0.12052 0.03843 0.60351 0.0
C83 C 0.11956 0.9819 0.6531 0.0
C84 C 0.16688 0.00417 0.69492 0.0
C85 C 0.21552 0.08256 0.68721 0.0
C86 C 0.21684 0.13911 0.63819 0.0
C87 C 0.16964 0.11725 0.59637 0.0
H88 H 0.2523 0.09943 0.71896 0.0
H89 H 0.79721 0.87953 0.30182 0.0
H90 H 0.39458 0.11541 0.8974 0.0
H91 H 0.46922 0.09768 0.91026 0.0
H92 H 0.38726 0.91691 0.07687 0.0
H93 H 0.31174 0.93314 0.06358 0.0
H94 H 0.49623 0.02744 0.11261 0.0
H95 H 0.38712 0.85586 0.91333 0.0
H96 H 0.33668 0.82277 0.79598 0.0
H97 H 0.48527 0.00812 0.69754 0.0
H98 H 0.5365 0.04319 0.81455 0.0
H99 H 0.6555 0.86417 0.1233 0.0
H100 H 0.58085 0.88188 0.11039 0.0
H101 H 0.6629 0.0628 0.94391 0.0
H102 H 0.73845 0.04662 0.95727 0.0
H103 H 0.55389 0.9522 0.9081 0.0
H104 H 0.66299 0.12377 0.10738 0.0
H105 H 0.71343 0.15684 0.22475 0.0
H106 H 0.56484 0.97147 0.32316 0.0
H107 H 0.51361 0.93642 0.20614 0.0
C108 C 0.39182 0.07086 0.93611 0.0
C109 C 0.34662 0.02523 0.97903 0.0
C110 C 0.4348 0.06109 0.94359 0.0
C111 C 0.43371 0.00538 0.99407 0.0
C112 C 0.38907 0.96034 0.03758 0.0
C113 C 0.34591 0.96989 0.03 0.0
C114 C 0.47944 -0.00516 1.00173 0.0
C115 C 0.50832 0.00981 0.06814 0.0
C116 C 0.49617 0.97383 0.94332 0.0
C117 C 0.46554 0.95271 0.87283 0.0
C118 C 0.40897 0.89004 0.86675 0.0
C119 C 0.38025 0.87084 0.80028 0.0
C120 C 0.40772 0.91347 0.73937 0.0
C121 C 0.46403 0.97524 0.74479 0.0
C122 C 0.49294 -0.00524 0.81117 0.0
C123 C 0.65829 0.90875 0.08461 0.0
C124 C 0.70352 0.95445 0.04176 0.0
C125 C 0.6153 0.9185 0.07709 0.0
C126 C 0.61641 0.97425 0.02664 0.0
C127 C 0.66108 0.01934 0.98318 0.0
C128 C 0.70424 0.00982 0.9908 0.0
C129 C 0.57069 0.98479 0.01898 0.0
C130 C 0.54181 0.96983 0.95257 0.0
C131 C 0.55395 0.0058 0.07738 0.0
C132 C 0.58457 0.02692 0.14788 0.0
C133 C 0.64115 0.08958 0.15396 0.0
C134 C 0.66987 0.10877 0.22044 0.0
C135 C 0.64239 0.06613 0.28135 0.0
C136 C 0.58609 0.00436 0.27591 0.0
C137 C 0.55718 0.98486 0.20953 0.0
H138 H 0.66469 0.08109 0.33277 0.0
H139 H 0.38541 0.8985 0.68794 0.0
H140 H 0.98171 0.72094 0.11707 0.0
H141 H 0.98553 0.60001 0.11502 0.0
H142 H 0.03456 0.65917 0.89871 0.0
H143 H 0.0329 0.78149 0.90128 0.0
H144 H 0.93985 0.46946 0.95437 0.0
H145 H 0.13172 0.71234 0.96768 0.0
H146 H 0.20529 0.84778 0.01827 0.0
H147 H 0.1799 0.73911 0.22759 0.0
H148 H 0.10537 0.60311 0.1781 0.0
H149 H 0.06832 0.25879 0.9033 0.0
H150 H 0.06449 0.37972 0.90525 0.0
H151 H 1.01569 0.32093 0.12166 0.0
H152 H 1.01737 0.1986 0.1192 0.0
H153 H 0.11029 0.51046 0.06592 0.0
H154 H 0.91848 0.2676 0.05266 0.0
H155 H 0.84487 0.13214 1.00214 0.0
H156 H 0.8701 0.24073 0.79279 0.0
H157 H 0.94466 0.37675 0.84222 0.0
C158 C 0.99251 0.70723 0.06891 0.0
C159 C 1.00739 0.76027 1.00952 0.0
C160 C 0.99469 0.63856 0.0678 0.0
C161 C 1.0104 0.62147 1.00673 0.0
C162 C 1.02235 0.67183 0.94614 0.0
C163 C 1.02161 0.74154 0.94785 0.0
C164 C 1.01865 0.55495 1.00797 0.0
C165 C 0.97716 0.47843 0.97827 0.0
C166 C 0.06721 0.56706 0.03963 0.0
C167 C 0.11262 0.64801 0.06939 0.0
C168 C 0.14151 0.71756 0.02457 0.0
C169 C 0.18343 0.79437 0.05301 0.0
C170 C 0.19715 0.80217 0.12618 0.0
C171 C 0.16913 0.73302 0.17096 0.0
C172 C 0.12706 0.65606 0.14274 0.0
C173 C 0.05757 0.27258 0.95145 0.0
C174 C 0.04276 0.21965 0.01091 0.0
C175 C 0.05538 0.34125 0.9525 0.0
C176 C 0.03973 0.35844 0.01358 0.0
C177 C 0.02785 0.30819 0.07423 0.0
C178 C 0.02859 0.23848 0.07258 0.0
C179 C 0.0315 0.42497 0.01231 0.0
C180 C 0.07298 0.50149 0.04201 0.0
C181 C 0.98293 0.41286 0.98065 0.0
C182 C 0.9375 0.33189 0.95093 0.0
C183 C 0.90865 0.26236 0.99577 0.0
C184 C 0.86671 0.18554 0.96738 0.0
C185 C 0.85293 0.17772 0.89423 0.0
C186 C 0.88091 0.24685 0.84942 0.0
C187 C 0.92301 0.32381 0.87759 0.0
H188 H 0.8205 0.11817 0.87229 0.0
H189 H 0.22956 0.86171 0.14815 0.0
loop_
_geom_bond_atom_site_label_1
_geom_bond_atom_site_label_2
_geom_bond_distance
_geom_bond_site_symmetry_2
_ccdc_geom_bond_type
Ho0 C3 2.811 . S
Ho0 O20 2.322 1_565 S
Ho0 O22 2.378 . S
Ho0 O23 2.524 1_556 S
Ho0 O24 2.381 . S
Ho0 O25 2.669 1_665 S
Ho0 O27 2.346 . S
Ho0 O31 2.305 1_556 S
Ho1 C12 2.811 . S
Ho1 O21 2.346 . S
Ho1 O25 2.305 1_554 S
Ho1 O26 2.322 1_545 S
Ho1 O28 2.378 . S
Ho1 O29 2.524 1_554 S
Ho1 O30 2.381 . S
Ho1 O31 2.669 1_445 S
C2 O20 1.259 1_455 S
C2 O21 1.268 1_556 S
C3 Ho0 2.811 . S
C3 C4 1.490 . S
C3 O22 1.215 . S
C3 O23 1.289 1_556 S
C4 C3 1.490 . S
C4 C5 1.339 1_566 S
C4 C9 1.421 . S
C5 C4 1.339 1_544 S
C5 C6 1.442 . S
C5 H32 0.930 . S
C6 C5 1.442 . S
C6 C7 1.368 1_544 S
C6 H33 0.931 . S
C7 C6 1.368 1_566 S
C7 C8 1.336 . S
C8 C7 1.336 . S
C8 C9 1.403 . S
C8 H34 0.934 . S
C9 C4 1.421 . S
C9 C8 1.403 . S
C9 H35 0.930 . S
C10 O24 1.275 . S
C10 O25 1.256 1_665 S
C11 O26 1.259 1_655 S
C11 O27 1.268 1_554 S
C12 Ho1 2.811 . S
C12 C13 1.490 . S
C12 O28 1.215 . S
C12 O29 1.289 1_554 S
C13 C12 1.490 . S
C13 C14 1.336 1_544 S
C13 C18 1.424 . S
C14 C13 1.336 1_566 S
C14 C15 1.442 . S
C14 H36 0.930 . S
C15 C14 1.442 . S
C15 C16 1.381 1_566 S
C15 H37 0.931 . S
C16 C15 1.381 1_544 S
C16 C17 1.321 . S
C17 C16 1.321 . S
C17 C18 1.403 . S
C17 H38 0.934 . S
C18 C13 1.424 . S
C18 C17 1.403 . S
C18 H39 0.930 . S
C19 O30 1.275 . S
C19 O31 1.256 1_445 S
O20 Ho0 2.322 1_545 S
O20 C2 1.259 1_655 S
O21 Ho1 2.346 . S
O21 C2 1.268 1_554 S
O22 Ho0 2.378 . S
O22 C3 1.215 . S
O23 Ho0 2.524 1_554 S
O23 C3 1.289 1_554 S
O24 Ho0 2.381 . S
O24 C10 1.275 . S
O25 Ho0 2.669 1_445 S
O25 Ho1 2.305 1_556 S
O25 C10 1.256 1_445 S
O26 Ho1 2.322 1_565 S
O26 C11 1.259 1_455 S
O27 Ho0 2.346 . S
O27 C11 1.268 1_556 S
O28 Ho1 2.378 . S
O28 C12 1.215 . S
O29 Ho1 2.524 1_556 S
O29 C12 1.289 1_556 S
O30 Ho1 2.381 . S
O30 C19 1.275 . S
O31 Ho0 2.305 1_554 S
O31 Ho1 2.669 1_665 S
O31 C19 1.256 1_665 S
H32 C5 0.930 . S
H33 C6 0.931 . S
H34 C8 0.934 . S
H35 C9 0.930 . S
H36 C14 0.930 . S
H37 C15 0.931 . S
H38 C17 0.934 . S
H39 C18 0.930 . S
H40 C58 0.951 . S
H41 C60 0.951 . S
H42 C62 0.950 . S
H43 C63 0.950 . S
H44 C65 0.950 . S
H45 C68 0.950 . S
H46 C69 0.950 . S
H47 C71 0.950 . S
H48 C72 0.950 . S
H49 C73 0.951 . S
H50 C75 0.951 . S
H51 C77 0.950 . S
H52 C78 0.950 . S
H53 C80 0.950 . S
H54 C83 0.950 . S
H55 C84 0.950 . S
H56 C86 0.950 . S
H57 C87 0.950 . S
C58 H40 0.951 . S
C58 C59 1.365 1_565 S
C58 C60 1.388 . S
C59 C58 1.365 1_545 S
C59 C63 1.385 1_455 S
C60 H41 0.951 . S
C60 C58 1.388 . S
C60 C61 1.366 1_455 S
C61 C60 1.366 1_655 S
C61 C62 1.414 1_565 S
C61 C64 1.499 . S
C62 H42 0.950 . S
C62 C61 1.414 1_545 S
C62 C63 1.374 . S
C63 H43 0.950 . S
C63 C59 1.385 1_655 S
C63 C62 1.374 . S
C64 C61 1.499 . S
C64 C65 1.373 1_665 S
C64 C66 1.389 . S
C65 H44 0.950 . S
C65 C64 1.373 1_445 S
C65 C81 1.377 . S
C66 C64 1.389 . S
C66 C67 1.524 . S
C66 C80 1.377 . S
C67 C66 1.524 . S
C67 C68 1.397 . S
C67 C72 1.363 . S
C68 H45 0.950 . S
C68 C67 1.397 . S
C68 C69 1.334 . S
C69 H46 0.950 . S
C69 C68 1.334 . S
C69 C70 1.287 . S
C70 C69 1.287 . S
C70 C71 1.524 . S
C70 H89 0.913 . S
C71 H47 0.950 . S
C71 C70 1.524 . S
C71 C72 1.415 . S
C72 H48 0.950 . S
C72 C67 1.363 . S
C72 C71 1.415 . S
C73 H49 0.951 . S
C73 C74 1.368 1_645 S
C73 C75 1.388 . S
C74 C73 1.368 1_465 S
C74 C78 1.382 . S
C75 H50 0.951 . S
C75 C73 1.388 . S
C75 C76 1.366 1_655 S
C76 C75 1.366 1_455 S
C76 C77 1.414 1_545 S
C76 C79 1.499 . S
C77 H51 0.950 . S
C77 C76 1.414 1_565 S
C77 C78 1.374 . S
C78 H52 0.950 . S
C78 C74 1.382 . S
C78 C77 1.374 . S
C79 C76 1.499 . S
C79 C80 1.373 1_445 S
C79 C81 1.389 . S
C80 H53 0.950 . S
C80 C66 1.377 . S
C80 C79 1.373 1_665 S
C81 C65 1.377 . S
C81 C79 1.389 . S
C81 C82 1.524 . S
C82 C81 1.524 . S
C82 C83 1.397 . S
C82 C87 1.363 . S
C83 H54 0.950 . S
C83 C82 1.397 . S
C83 C84 1.334 . S
C84 H55 0.950 . S
C84 C83 1.334 . S
C84 C85 1.287 . S
C85 C84 1.287 . S
C85 C86 1.524 . S
C85 H88 0.999 . S
C86 H56 0.950 . S
C86 C85 1.524 . S
C86 C87 1.415 . S
C87 H57 0.950 . S
C87 C82 1.363 . S
C87 C86 1.415 . S
H88 C85 0.999 . S
H89 C70 0.913 . S
H90 C108 0.951 . S
H91 C110 0.951 . S
H92 C112 0.950 . S
H93 C113 0.950 . S
H94 C115 0.950 . S
H95 C118 0.950 . S
H96 C119 0.950 . S
H97 C121 0.950 . S
H98 C122 0.950 . S
H99 C123 0.951 . S
H100 C125 0.951 . S
H101 C127 0.950 . S
H102 C128 0.950 . S
H103 C130 0.950 . S
H104 C133 0.950 . S
H105 C134 0.950 . S
H106 C136 0.950 . S
H107 C137 0.950 . S
C108 H90 0.951 . S
C108 C109 1.365 1_556 S
C108 C110 1.388 . S
C109 C108 1.365 1_554 S
C109 C113 1.385 1_545 S
C110 H91 0.951 . S
C110 C108 1.388 . S
C110 C111 1.366 1_545 S
C111 C110 1.366 1_565 S
C111 C112 1.414 1_556 S
C111 C114 1.499 . S
C112 H92 0.950 . S
C112 C111 1.414 1_554 S
C112 C113 1.374 . S
C113 H93 0.950 . S
C113 C109 1.385 1_565 S
C113 C112 1.374 . S
C114 C111 1.499 . S
C114 C115 1.373 1_556 S
C114 C116 1.389 1_565 S
C115 H94 0.950 . S
C115 C114 1.373 1_554 S
C115 C131 1.377 . S
C116 C114 1.389 1_545 S
C116 C117 1.524 . S
C116 C130 1.377 . S
C117 C116 1.524 . S
C117 C118 1.397 1_545 S
C117 C122 1.363 . S
C118 H95 0.950 . S
C118 C117 1.397 1_565 S
C118 C119 1.334 . S
C119 H96 0.950 . S
C119 C118 1.334 . S
C119 C120 1.282 1_565 S
C120 C119 1.282 1_545 S
C120 C121 1.527 . S
C120 H139 0.916 1_545 S
C121 H97 0.950 . S
C121 C120 1.527 . S
C121 C122 1.415 . S
C122 H98 0.950 . S
C122 C117 1.363 . S
C122 C121 1.415 . S
C123 H99 0.951 . S
C123 C124 1.367 1_564 S
C123 C125 1.388 . S
C124 C123 1.367 1_546 S
C124 C128 1.383 . S
C125 H100 0.951 . S
C125 C123 1.388 . S
C125 C126 1.366 1_565 S
C126 C125 1.366 1_545 S
C126 C127 1.414 1_554 S
C126 C129 1.499 . S
C127 H101 0.950 . S
C127 C126 1.414 1_556 S
C127 C128 1.374 . S
C128 H102 0.950 . S
C128 C124 1.383 . S
C128 C127 1.374 . S
C129 C126 1.499 . S
C129 C130 1.373 1_554 S
C129 C131 1.389 1_545 S
C130 H103 0.950 . S
C130 C116 1.377 . S
C130 C129 1.373 1_556 S
C131 C115 1.377 . S
C131 C129 1.389 1_565 S
C131 C132 1.524 . S
C132 C131 1.524 . S
C132 C133 1.397 1_565 S
C132 C137 1.363 . S
C133 H104 0.950 . S
C133 C132 1.397 1_545 S
C133 C134 1.334 . S
C134 H105 0.950 . S
C134 C133 1.334 . S
C134 C135 1.284 1_545 S
C135 C134 1.284 1_565 S
C135 C136 1.526 . S
C135 H138 1.001 . S
C136 H106 0.950 . S
C136 C135 1.526 . S
C136 C137 1.415 . S
C137 H107 0.950 . S
C137 C132 1.363 . S
C137 C136 1.415 . S
H138 C135 1.001 . S
H139 C120 0.916 1_565 S
H140 C158 0.951 . S
H141 C160 0.945 . S
H142 C162 0.950 . S
H143 C163 0.950 . S
H144 C165 0.950 . S
H145 C168 0.950 . S
H146 C169 0.950 . S
H147 C171 0.950 . S
H148 C172 0.950 . S
H149 C173 0.951 . S
H150 C175 0.951 . S
H151 C177 0.950 . S
H152 C178 0.950 . S
H153 C180 0.950 . S
H154 C183 0.950 . S
H155 C184 0.950 . S
H156 C186 0.950 . S
H157 C187 0.950 . S
C158 H140 0.951 . S
C158 C159 1.364 1_655 S
C158 C160 1.405 . S
C159 C158 1.364 1_455 S
C159 C163 1.384 1_554 S
C160 H141 0.945 . S
C160 C158 1.405 . S
C160 C161 1.360 1_655 S
C161 C160 1.360 1_455 S
C161 C162 1.409 1_554 S
C161 C164 1.498 1_554 S
C162 H142 0.950 . S
C162 C161 1.409 1_556 S
C162 C163 1.374 . S
C163 H143 0.950 . S
C163 C159 1.384 1_556 S
C163 C162 1.374 . S
C164 C161 1.498 1_556 S
C164 C165 1.373 1_455 S
C164 C166 1.389 1_556 S
C165 H144 0.950 . S
C165 C164 1.373 1_655 S
C165 C181 1.377 . S
C166 C164 1.389 1_554 S
C166 C167 1.524 . S
C166 C180 1.377 . S
C167 C166 1.524 . S
C167 C168 1.397 . S
C167 C172 1.363 . S
C168 H145 0.950 . S
C168 C167 1.397 . S
C168 C169 1.334 . S
C169 H146 0.950 . S
C169 C168 1.334 . S
C169 C170 1.287 . S
C170 C169 1.287 . S
C170 C171 1.524 . S
C170 H189 0.913 . S
C171 H147 0.950 . S
C171 C170 1.524 . S
C171 C172 1.415 . S
C172 H148 0.950 . S
C172 C167 1.363 . S
C172 C171 1.415 . S
C173 H149 0.951 . S
C173 C174 1.364 1_556 S
C173 C175 1.388 . S
C174 C173 1.364 1_554 S
C174 C178 1.384 1_455 S
C175 H150 0.951 . S
C175 C173 1.388 . S
C175 C176 1.367 1_455 S
C176 C175 1.367 1_655 S
C176 C177 1.412 1_556 S
C176 C179 1.498 1_556 S
C177 H151 0.950 . S
C177 C176 1.412 1_554 S
C177 C178 1.374 . S
C178 H152 0.950 . S
C178 C174 1.384 1_655 S
C178 C177 1.374 . S
C179 C176 1.498 1_554 S
C179 C180 1.373 1_655 S
C179 C181 1.389 1_554 S
C180 H153 0.950 . S
C180 C166 1.377 . S
C180 C179 1.373 1_455 S
C181 C165 1.377 . S
C181 C179 1.389 1_556 S
C181 C182 1.524 . S
C182 C181 1.524 . S
C182 C183 1.397 . S
C182 C187 1.363 . S
C183 H154 0.950 . S
C183 C182 1.397 . S
C183 C184 1.334 . S
C184 H155 0.950 . S
C184 C183 1.334 . S
C184 C185 1.287 . S
C185 C184 1.287 . S
C185 C186 1.524 . S
C185 H188 0.999 . S
C186 H156 0.950 . S
C186 C185 1.524 . S
C186 C187 1.415 . S
C187 H157 0.950 . S
C187 C182 1.363 . S
C187 C186 1.415 . S
H188 C185 0.999 . S
H189 C170 0.913 . S
C59 C19 1.461 . S
C74 C10 1.461 1_455 S
C109 C16 1.500 . S
C124 C7 1.498 1_545 S
C159 C11 1.493 1_455 S
C174 C2 1.493 1_554 S
