# Generated by pormake.
# Topology wje, (4)-cn, num edge types: 1
# Building blocks:
#     Node 0, Type 0, BuildingBlock: NAHDIM_clean_sbu_0, # of connection points: 4
#     Node 1, Type 0, BuildingBlock: NAHDIM_clean_sbu_0, # of connection points: 4
#     Node 2, Type 0, BuildingBlock: NAHDIM_clean_sbu_0, # of connection points: 4
#     Node 3, Type 0, BuildingBlock: NAHDIM_clean_sbu_0, # of connection points: 4
#     Node 4, Type 0, BuildingBlock: NAHDIM_clean_sbu_0, # of connection points: 4
#     Node 5, Type 0, BuildingBlock: NAHDIM_clean_sbu_0, # of connection points: 4
#     Node 6, Type 0, BuildingBlock: NAHDIM_clean_sbu_0, # of connection points: 4
#     Node 7, Type 0, BuildingBlock: NAHDIM_clean_sbu_0, # of connection points: 4
#     Node 8, Type 0, BuildingBlock: NAHDIM_clean_sbu_0, # of connection points: 4
#     Node 9, Type 0, BuildingBlock: NAHDIM_clean_sbu_0, # of connection points: 4
#     Node 10, Type 0, BuildingBlock: NAHDIM_clean_sbu_0, # of connection points: 4
#     Node 11, Type 0, BuildingBlock: NAHDIM_clean_sbu_0, # of connection points: 4
#     Edge 12, Type (0, 0), BuildingBlock: EYOCIG_clean_linker_4, # of connection points: 2
#     Edge 13, Type (0, 0), BuildingBlock: EYOCIG_clean_linker_4, # of connection points: 2
#     Edge 14, Type (0, 0), BuildingBlock: EYOCIG_clean_linker_4, # of connection points: 2
#     Edge 15, Type (0, 0), BuildingBlock: EYOCIG_clean_linker_4, # of connection points: 2
#     Edge 16, Type (0, 0), BuildingBlock: EYOCIG_clean_linker_4, # of connection points: 2
#     Edge 17, Type (0, 0), BuildingBlock: EYOCIG_clean_linker_4, # of connection points: 2
#     Edge 18, Type (0, 0), BuildingBlock: EYOCIG_clean_linker_4, # of connection points: 2
#     Edge 19, Type (0, 0), BuildingBlock: EYOCIG_clean_linker_4, # of connection points: 2
#     Edge 20, Type (0, 0), BuildingBlock: EYOCIG_clean_linker_4, # of connection points: 2
#     Edge 21, Type (0, 0), BuildingBlock: EYOCIG_clean_linker_4, # of connection points: 2
#     Edge 22, Type (0, 0), BuildingBlock: EYOCIG_clean_linker_4, # of connection points: 2
#     Edge 23, Type (0, 0), BuildingBlock: EYOCIG_clean_linker_4, # of connection points: 2
#     Edge 24, Type (0, 0), BuildingBlock: EYOCIG_clean_linker_4, # of connection points: 2
#     Edge 25, Type (0, 0), BuildingBlock: EYOCIG_clean_linker_4, # of connection points: 2
#     Edge 26, Type (0, 0), BuildingBlock: EYOCIG_clean_linker_4, # of connection points: 2
#     Edge 27, Type (0, 0), BuildingBlock: EYOCIG_clean_linker_4, # of connection points: 2
#     Edge 28, Type (0, 0), BuildingBlock: EYOCIG_clean_linker_4, # of connection points: 2
#     Edge 29, Type (0, 0), BuildingBlock: EYOCIG_clean_linker_4, # of connection points: 2
#     Edge 30, Type (0, 0), BuildingBlock: EYOCIG_clean_linker_4, # of connection points: 2
#     Edge 31, Type (0, 0), BuildingBlock: EYOCIG_clean_linker_4, # of connection points: 2
#     Edge 32, Type (0, 0), BuildingBlock: EYOCIG_clean_linker_4, # of connection points: 2
#     Edge 33, Type (0, 0), BuildingBlock: EYOCIG_clean_linker_4, # of connection points: 2
#     Edge 34, Type (0, 0), BuildingBlock: EYOCIG_clean_linker_4, # of connection points: 2
#     Edge 35, Type (0, 0), BuildingBlock: EYOCIG_clean_linker_4, # of connection points: 2
# Relax obj value: 0.163
# Max RMSD: 0.138
# Mean RMSD: 0.138
data_MOF--net-wje--node1-NAHDIM_clean_sbu_0--edge1-EYOCIG_clean_linker_4
_symmetry_space_group_name_H-M    P1
_symmetry_Int_Tables_number       1
_symmetry_cell_setting            triclinic
loop_
_symmetry_equiv_pos_as_xyz
'x, y, z'
_cell_length_a     33.264896
_cell_length_b     33.259625
_cell_length_c     29.793801
_cell_angle_alpha  90.003476
_cell_angle_beta   89.986492
_cell_angle_gamma 119.98585
loop_
_atom_site_label
_atom_site_type_symbol
_atom_site_fract_x
_atom_site_fract_y
_atom_site_fract_z
_atom_type_partial_charge
C0 C 0.29644 0.05848 0.20307 0.0
O1 O 0.28289 0.01913 0.18198 0.0
O2 O 0.24605 0.9516 0.26988 0.0
Zn3 Zn 0.30939 0.0091 0.27514 0.0
O4 O 0.36187 0.00151 0.24918 0.0
C5 C 0.30168 -0.01237 0.36893 0.0
O6 O 0.28008 0.94527 0.35314 0.0
O7 O 0.30917 0.06275 0.24379 0.0
C8 C 0.38296 0.98622 0.27307 0.0
O9 O 0.36948 0.97278 0.31439 0.0
C10 C 0.24053 0.91108 0.26707 0.0
O11 O 0.27652 0.90583 0.2598 0.0
O12 O 0.31907 0.02213 0.34224 0.0
C13 C 0.22675 0.30404 0.5366 0.0
O14 O 0.25321 0.29162 0.51504 0.0
O15 O 0.28306 0.25233 0.60286 0.0
Zn16 Zn 0.28838 0.31542 0.60884 0.0
O17 O 0.34831 0.36842 0.58339 0.0
C18 C 0.30263 0.30707 0.70232 0.0
O19 O 0.32328 0.28558 0.68599 0.0
O20 O 0.23444 0.31538 0.57771 0.0
C21 C 0.38456 0.38942 0.60745 0.0
O22 O 0.38453 0.37545 0.64855 0.0
C23 C 0.31825 0.24716 0.59964 0.0
O24 O 0.35924 0.28338 0.59202 0.0
O25 O 0.2852 0.32452 0.67608 0.0
C26 C 0.91076 0.23212 0.87007 0.0
O27 O 0.95005 0.25792 0.84891 0.0
O28 O 0.01787 0.28878 0.93555 0.0
Zn29 Zn 0.9605 0.29467 0.94161 0.0
O30 O 0.96776 0.3545 0.91547 0.0
C31 C -0.01651 0.30951 0.03505 0.0
O32 O 0.02558 0.33007 0.01858 0.0
O33 O 0.90655 0.24062 0.91081 0.0
C34 C -0.01696 0.39097 0.93922 0.0
O35 O -0.00333 0.39117 -0.0195 0.0
C36 C 0.05834 0.32369 0.93199 0.0
O37 O 0.0635 0.36486 0.92443 0.0
O38 O 0.94855 0.29202 0.00891 0.0
C39 C 0.66667 0.91735 0.203 0.0
O40 O 0.6802 0.95682 0.18215 0.0
O41 O 0.71664 0.02397 0.26938 0.0
Zn42 Zn 0.65346 0.96639 0.27512 0.0
O43 O 0.60061 0.9735 0.24935 0.0
C44 C 0.66148 -0.01126 0.3687 0.0
O45 O 0.682 0.0309 0.35242 0.0
O46 O 0.65382 0.9128 0.24371 0.0
C47 C 0.57916 -0.01159 0.27323 0.0
O48 O 0.59245 0.00185 0.31458 0.0
C49 C 0.72216 0.06448 0.2665 0.0
O50 O 0.68613 0.06972 0.25937 0.0
O51 O 0.64449 0.95392 0.34238 0.0
C52 C 0.73638 0.67281 0.53558 0.0
O53 O 0.71047 0.68659 0.51507 0.0
O54 O 0.68045 0.72298 0.60298 0.0
Zn55 Zn 0.67475 0.65969 0.60828 0.0
O56 O 0.61451 0.60711 0.58296 0.0
C57 C 0.66175 0.6677 0.70212 0.0
O58 O 0.64201 0.69033 0.68645 0.0
O59 O 0.72828 0.65985 0.57627 0.0
C60 C 0.57832 0.58653 0.60716 0.0
O61 O 0.57869 0.60075 0.64824 0.0
C62 C 0.64546 0.7285 0.60002 0.0
O63 O 0.60424 0.69249 0.59276 0.0
O64 O 0.67829 0.64982 0.67531 0.0
C65 C 0.05163 0.74299 0.86924 0.0
O66 O 0.01225 0.71683 0.84837 0.0
O67 O 0.94508 0.68642 0.93609 0.0
Zn68 Zn 0.0027 0.68076 0.94129 0.0
O69 O -0.00458 0.62102 0.91494 0.0
C70 C 0.98092 0.6661 0.03498 0.0
O71 O 0.93865 0.64612 0.01903 0.0
O72 O 0.05619 0.73486 0.91 0.0
C73 C 0.98032 0.58462 0.93875 0.0
O74 O 0.96678 0.58447 -0.01993 0.0
C75 C 0.90461 0.65145 0.93289 0.0
O76 O 0.89946 0.61029 0.92528 0.0
O77 O 0.01554 0.68335 0.00841 0.0
C78 C 0.91067 0.67264 0.42318 0.0
O79 O 0.95004 0.68609 0.44419 0.0
O80 O 0.01757 0.72283 0.35703 0.0
Zn81 Zn 0.96 0.6596 0.35126 0.0
O82 O 0.96708 0.60681 0.37702 0.0
C83 C -0.01786 0.66768 0.25759 0.0
O84 O 0.02434 0.69053 0.27362 0.0
O85 O 0.9063 0.6599 0.38244 0.0
C86 C -0.01726 0.58612 0.35303 0.0
O87 O -0.00289 0.60047 0.31209 0.0
C88 C 0.05806 0.72838 0.36037 0.0
O89 O 0.06325 0.69237 0.36777 0.0
O90 O 0.94747 0.64977 0.28407 0.0
C91 C 0.22603 0.91774 0.75723 0.0
O92 O 0.25229 0.9569 0.77843 0.0
O93 O 0.28346 0.02505 0.69127 0.0
Zn94 Zn 0.28839 0.96709 0.68526 0.0
O95 O 0.3481 0.97368 0.711 0.0
C96 C 0.30277 -0.01028 0.5917 0.0
O97 O 0.32411 0.03186 0.60802 0.0
O98 O 0.23417 0.91354 0.71638 0.0
C99 C 0.38438 -0.01149 0.68704 0.0
O100 O 0.38449 0.00204 0.64574 0.0
C101 C 0.31872 0.06533 0.69455 0.0
O102 O 0.35969 0.06998 0.702 0.0
O103 O 0.28504 0.95486 0.61798 0.0
C104 C 0.29648 0.23326 0.09146 0.0
O105 O 0.28263 0.25911 0.11197 0.0
O106 O 0.24619 0.28888 0.02352 0.0
Zn107 Zn 0.30961 0.29484 0.0187 0.0
O108 O 0.36188 0.35518 0.04423 0.0
C109 C 0.30215 0.3079 0.92485 0.0
O110 O 0.27988 0.32809 0.94037 0.0
O111 O 0.30947 0.24139 0.05078 0.0
C112 C 0.38266 0.39141 0.02012 0.0
O113 O 0.3689 0.39106 0.97885 0.0
C114 C 0.24055 0.32382 0.02621 0.0
O115 O 0.27643 0.36508 0.03363 0.0
O116 O 0.31975 0.29119 0.95177 0.0
C117 C 0.0522 0.30415 0.42465 0.0
O118 O 0.01283 0.29098 0.44557 0.0
O119 O 0.94536 0.25229 0.35718 0.0
Zn120 Zn 0.00279 0.3157 0.35168 0.0
O121 O -0.00517 0.3682 0.37683 0.0
C122 C -0.01831 0.30733 0.25777 0.0
O123 O 0.93931 0.28465 0.27342 0.0
O124 O 0.05647 0.31606 0.38366 0.0
C125 C 0.97934 0.38883 0.35253 0.0
O126 O 0.96578 0.37473 0.31136 0.0
C127 C 0.90483 0.24673 0.36002 0.0
O128 O 0.89955 0.28273 0.3671 0.0
O129 O 0.01607 0.32535 0.2846 0.0
C130 C 0.73643 0.05764 0.75786 0.0
O131 O 0.71028 0.01807 0.77848 0.0
O132 O 0.68047 0.95145 0.69067 0.0
Zn133 Zn 0.67489 0.00907 0.68521 0.0
O134 O 0.61476 0.00161 0.71084 0.0
C135 C 0.66133 0.98753 0.59147 0.0
O136 O 0.64006 0.94523 0.60742 0.0
O137 O 0.72854 0.06241 0.71709 0.0
C138 C 0.57849 0.98657 0.68684 0.0
O139 O 0.57863 0.97332 0.64546 0.0
C140 C 0.64541 0.91099 0.69349 0.0
O141 O 0.6042 0.90588 0.7006 0.0
O142 O 0.6787 0.02213 0.61806 0.0
C143 C 0.66675 0.74311 0.09033 0.0
O144 O 0.67981 0.71682 0.11125 0.0
O145 O 0.7169 0.6865 0.02384 0.0
Zn146 Zn 0.65377 0.68107 0.0182 0.0
O147 O 0.60087 0.62131 0.04409 0.0
C148 C 0.66142 0.6663 0.92471 0.0
O149 O 0.68273 0.64546 0.94101 0.0
O150 O 0.65429 0.73514 0.0495 0.0
C151 C 0.57956 0.58496 0.0202 0.0
O152 O 0.59322 0.58473 0.97902 0.0
C153 C 0.72232 0.65147 0.02703 0.0
O154 O 0.68626 0.61033 0.03455 0.0
O155 O 0.64431 0.68405 0.95099 0.0
C156 C 0.29771 0.12839 0.15967 0.0
C157 C 0.29729 0.09674 0.17985 0.0
C158 C 0.2977 0.165 0.13564 0.0
C159 C 0.29726 0.19608 0.1152 0.0
C160 C 0.15846 0.30592 0.4931 0.0
C161 C 0.18948 0.30524 0.51342 0.0
C162 C 0.12196 0.30595 0.46885 0.0
C163 C 0.09038 0.30528 0.4483 0.0
C164 C 0.80454 0.127 0.80228 0.0
C165 C 0.77355 0.09558 0.78168 0.0
C166 C 0.84098 0.16352 0.82656 0.0
C167 C 0.8725 0.1947 0.84688 0.0
C168 C 0.66561 0.81144 0.13451 0.0
C169 C 0.66596 0.78037 0.11394 0.0
C170 C 0.66558 0.84785 0.15893 0.0
C171 C 0.6659 0.87927 0.17947 0.0
C172 C 0.841 0.67152 0.46692 0.0
C173 C 0.87251 0.67185 0.44654 0.0
C174 C 0.80454 0.67157 0.4912 0.0
C175 C 0.77352 0.67199 0.51178 0.0
C176 C 0.15748 0.84803 0.80092 0.0
C177 C 0.18865 0.87955 0.78056 0.0
C178 C 0.12103 0.8115 0.82519 0.0
C179 C 0.08963 0.78034 0.84568 0.0
C180 C 0.45979 0.98719 0.24984 0.0
C181 C 0.42454 -0.01202 0.25715 0.0
C182 C 0.50208 0.98686 0.24986 0.0
C183 C 0.53746 0.98634 0.25721 0.0
C184 C 0.50246 0.5093 0.58488 0.0
C185 C 0.53842 0.54468 0.59193 0.0
C186 C 0.46001 0.4669 0.58489 0.0
C187 C 0.42419 0.43139 0.59199 0.0
C188 C -0.01807 0.5091 0.91554 0.0
C189 C -0.01756 0.54501 0.9228 0.0
C190 C -0.01828 0.46656 0.9157 0.0
C191 C 0.98109 0.43063 0.92318 0.0
C192 C 0.9805 0.50842 0.37516 0.0
C193 C 0.98025 0.544 0.36825 0.0
C194 C 0.98051 0.46598 0.37494 0.0
C195 C 0.98114 0.43063 0.36778 0.0
C196 C 0.50261 0.98743 0.71017 0.0
C197 C 0.53864 -0.01175 0.70279 0.0
C198 C 0.45997 0.98704 0.71025 0.0
C199 C 0.42403 0.98647 0.70298 0.0
C200 C 0.45957 0.46735 0.04293 0.0
C201 C 0.42431 0.43134 0.03567 0.0
C202 C 0.50199 0.50979 0.04305 0.0
C203 C 0.53757 0.54553 0.03591 0.0
C204 C 0.12788 0.80372 0.32495 0.0
C205 C 0.09585 0.76943 0.34108 0.0
C206 C 0.16547 0.84144 0.3031 0.0
C207 C 0.19958 0.87346 0.2867 0.0
C208 C 0.3138 0.17276 0.63629 0.0
C209 C 0.31559 0.20663 0.6196 0.0
C210 C 0.31401 0.13539 0.65853 0.0
C211 C 0.31606 0.10335 0.67496 0.0
C212 C 0.16567 0.31826 -0.01036 0.0
C213 C 0.19971 0.32043 0.00629 0.0
C214 C 0.12816 0.31832 0.96759 0.0
C215 C 0.09615 0.32055 0.95137 0.0
C216 C 0.83512 0.17151 0.32432 0.0
C217 C 0.8672 0.20567 0.34056 0.0
C218 C 0.79739 0.13399 0.30242 0.0
C219 C 0.76315 0.1021 0.28606 0.0
C220 C 0.65093 0.80368 0.63579 0.0
C221 C 0.64876 0.76949 0.6195 0.0
C222 C 0.65089 0.8413 0.65766 0.0
C223 C 0.6487 0.8733 0.67398 0.0
C224 C 0.79725 0.65666 -0.00912 0.0
C225 C 0.76313 0.65452 0.00735 0.0
C226 C 0.83483 0.6567 0.96885 0.0
C227 C 0.86685 0.65458 0.95247 0.0
C228 C 0.30436 -0.0082 0.45682 0.0
C229 C 0.30506 -0.00634 0.41651 0.0
C230 C 0.30164 0.98645 0.50375 0.0
C231 C 0.30033 0.9843 0.54405 0.0
C232 C 0.30564 0.30713 0.83706 0.0
C233 C 0.30615 0.3056 0.87734 0.0
C234 C 0.30265 0.30994 0.7902 0.0
C235 C 0.3008 0.31058 0.74995 0.0
C236 C -0.01401 0.31145 0.16993 0.0
C237 C -0.01214 0.31162 0.21023 0.0
C238 C 0.98053 0.30898 0.12301 0.0
C239 C 0.97825 0.30746 0.08272 0.0
C240 C 0.66001 0.9856 0.45665 0.0
C241 C 0.65885 0.9833 0.41635 0.0
C242 C 0.66292 -0.00875 0.50356 0.0
C243 C 0.66409 -0.00663 0.54386 0.0
C244 C 0.65864 0.66644 0.8368 0.0
C245 C 0.65798 0.66824 0.87707 0.0
C246 C 0.66168 0.66366 0.78993 0.0
C247 C 0.66354 0.6634 0.74966 0.0
C248 C 0.97878 0.66319 0.16973 0.0
C249 C 0.97652 0.66319 0.21 0.0
C250 C -0.01551 0.66584 0.12284 0.0
C251 C -0.01331 0.66777 0.08256 0.0
loop_
_geom_bond_atom_site_label_1
_geom_bond_atom_site_label_2
_geom_bond_distance
_geom_bond_site_symmetry_2
_ccdc_geom_bond_type
C0 O1 1.160 . S
C0 O7 1.185 . S
O1 C0 1.160 . S
O2 Zn3 1.899 1_565 S
O2 C10 1.284 . S
Zn3 O2 1.899 1_545 S
Zn3 O4 2.032 . S
Zn3 O7 2.086 . S
Zn3 O12 1.977 . S
O4 Zn3 2.032 . S
O4 C8 1.278 1_545 S
C5 O6 1.203 1_545 S
C5 O12 1.267 . S
O6 C5 1.203 1_565 S
O7 C0 1.185 . S
O7 Zn3 2.086 . S
C8 O4 1.278 1_565 S
C8 O9 1.211 . S
O9 C8 1.211 . S
C10 O2 1.284 . S
C10 O11 1.273 . S
O11 C10 1.273 . S
O12 Zn3 1.977 . S
O12 C5 1.267 . S
C13 O14 1.160 . S
C13 O20 1.185 . S
O14 C13 1.160 . S
O15 Zn16 1.899 . S
O15 C23 1.284 . S
Zn16 O15 1.899 . S
Zn16 O17 2.032 . S
Zn16 O20 2.086 . S
Zn16 O25 1.977 . S
O17 Zn16 2.032 . S
O17 C21 1.278 . S
C18 O19 1.203 . S
C18 O25 1.267 . S
O19 C18 1.203 . S
O20 C13 1.185 . S
O20 Zn16 2.086 . S
C21 O17 1.278 . S
C21 O22 1.211 . S
O22 C21 1.211 . S
C23 O15 1.284 . S
C23 O24 1.273 . S
O24 C23 1.273 . S
O25 Zn16 1.977 . S
O25 C18 1.267 . S
C26 O27 1.160 . S
C26 O33 1.185 . S
O27 C26 1.160 . S
O28 Zn29 1.899 1_455 S
O28 C36 1.284 . S
Zn29 O28 1.899 1_655 S
Zn29 O30 2.032 . S
Zn29 O33 2.086 . S
Zn29 O38 1.977 1_556 S
O30 Zn29 2.032 . S
O30 C34 1.278 1_655 S
C31 O32 1.203 1_655 S
C31 O38 1.267 . S
O32 C31 1.203 1_455 S
O33 C26 1.185 . S
O33 Zn29 2.086 . S
C34 O30 1.278 1_455 S
C34 O35 1.211 . S
O35 C34 1.211 . S
C36 O28 1.284 . S
C36 O37 1.273 . S
O37 C36 1.273 . S
O38 Zn29 1.977 1_554 S
O38 C31 1.267 . S
C39 O40 1.160 . S
C39 O46 1.185 . S
O40 C39 1.160 . S
O41 Zn42 1.899 1_545 S
O41 C49 1.284 . S
Zn42 O41 1.899 1_565 S
Zn42 O43 2.032 . S
Zn42 O46 2.086 . S
Zn42 O51 1.977 . S
O43 Zn42 2.032 . S
O43 C47 1.278 1_565 S
C44 O45 1.203 1_565 S
C44 O51 1.267 . S
O45 C44 1.203 1_545 S
O46 C39 1.185 . S
O46 Zn42 2.086 . S
C47 O43 1.278 1_545 S
C47 O48 1.211 . S
O48 C47 1.211 . S
C49 O41 1.284 . S
C49 O50 1.273 . S
O50 C49 1.273 . S
O51 Zn42 1.977 . S
O51 C44 1.267 . S
C52 O53 1.160 . S
C52 O59 1.185 . S
O53 C52 1.160 . S
O54 Zn55 1.899 . S
O54 C62 1.284 . S
Zn55 O54 1.899 . S
Zn55 O56 2.032 . S
Zn55 O59 2.086 . S
Zn55 O64 1.977 . S
O56 Zn55 2.032 . S
O56 C60 1.278 . S
C57 O58 1.203 . S
C57 O64 1.267 . S
O58 C57 1.203 . S
O59 C52 1.185 . S
O59 Zn55 2.086 . S
C60 O56 1.278 . S
C60 O61 1.211 . S
O61 C60 1.211 . S
C62 O54 1.284 . S
C62 O63 1.273 . S
O63 C62 1.273 . S
O64 Zn55 1.977 . S
O64 C57 1.267 . S
C65 O66 1.160 . S
C65 O72 1.185 . S
O66 C65 1.160 . S
O67 Zn68 1.899 1_655 S
O67 C75 1.284 . S
Zn68 O67 1.899 1_455 S
Zn68 O69 2.032 . S
Zn68 O72 2.086 . S
Zn68 O77 1.977 1_556 S
O69 Zn68 2.032 . S
O69 C73 1.278 1_455 S
C70 O71 1.203 1_455 S
C70 O77 1.267 . S
O71 C70 1.203 1_655 S
O72 C65 1.185 . S
O72 Zn68 2.086 . S
C73 O69 1.278 1_655 S
C73 O74 1.211 . S
O74 C73 1.211 . S
C75 O67 1.284 . S
C75 O76 1.273 . S
O76 C75 1.273 . S
O77 Zn68 1.977 1_554 S
O77 C70 1.267 . S
C78 O79 1.160 . S
C78 O85 1.185 . S
O79 C78 1.160 . S
O80 Zn81 1.899 1_455 S
O80 C88 1.284 . S
Zn81 O80 1.899 1_655 S
Zn81 O82 2.032 . S
Zn81 O85 2.086 . S
Zn81 O90 1.977 . S
O82 Zn81 2.032 . S
O82 C86 1.278 1_655 S
C83 O84 1.203 1_655 S
C83 O90 1.267 . S
O84 C83 1.203 1_455 S
O85 C78 1.185 . S
O85 Zn81 2.086 . S
C86 O82 1.278 1_455 S
C86 O87 1.211 . S
O87 C86 1.211 . S
C88 O80 1.284 . S
C88 O89 1.273 . S
O89 C88 1.273 . S
O90 Zn81 1.977 . S
O90 C83 1.267 . S
C91 O92 1.160 . S
C91 O98 1.185 . S
O92 C91 1.160 . S
O93 Zn94 1.899 1_545 S
O93 C101 1.284 . S
Zn94 O93 1.899 1_565 S
Zn94 O95 2.032 . S
Zn94 O98 2.086 . S
Zn94 O103 1.977 . S
O95 Zn94 2.032 . S
O95 C99 1.278 1_565 S
C96 O97 1.203 1_565 S
C96 O103 1.267 . S
O97 C96 1.203 1_545 S
O98 C91 1.185 . S
O98 Zn94 2.086 . S
C99 O95 1.278 1_545 S
C99 O100 1.211 . S
O100 C99 1.211 . S
C101 O93 1.284 . S
C101 O102 1.273 . S
O102 C101 1.273 . S
O103 Zn94 1.977 . S
O103 C96 1.267 . S
C104 O105 1.160 . S
C104 O111 1.185 . S
O105 C104 1.160 . S
O106 Zn107 1.899 . S
O106 C114 1.284 . S
Zn107 O106 1.899 . S
Zn107 O108 2.032 . S
Zn107 O111 2.086 . S
Zn107 O116 1.977 1_554 S
O108 Zn107 2.032 . S
O108 C112 1.278 . S
C109 O110 1.203 . S
C109 O116 1.267 . S
O110 C109 1.203 . S
O111 C104 1.185 . S
O111 Zn107 2.086 . S
C112 O108 1.278 . S
C112 O113 1.211 . S
O113 C112 1.211 . S
C114 O106 1.284 . S
C114 O115 1.273 . S
O115 C114 1.273 . S
O116 Zn107 1.977 1_556 S
O116 C109 1.267 . S
C117 O118 1.160 . S
C117 O124 1.185 . S
O118 C117 1.160 . S
O119 Zn120 1.899 1_655 S
O119 C127 1.284 . S
Zn120 O119 1.899 1_455 S
Zn120 O121 2.032 . S
Zn120 O124 2.086 . S
Zn120 O129 1.977 . S
O121 Zn120 2.032 . S
O121 C125 1.278 1_455 S
C122 O123 1.203 1_455 S
C122 O129 1.267 . S
O123 C122 1.203 1_655 S
O124 C117 1.185 . S
O124 Zn120 2.086 . S
C125 O121 1.278 1_655 S
C125 O126 1.211 . S
O126 C125 1.211 . S
C127 O119 1.284 . S
C127 O128 1.273 . S
O128 C127 1.273 . S
O129 Zn120 1.977 . S
O129 C122 1.267 . S
C130 O131 1.160 . S
C130 O137 1.185 . S
O131 C130 1.160 . S
O132 Zn133 1.899 1_565 S
O132 C140 1.284 . S
Zn133 O132 1.899 1_545 S
Zn133 O134 2.032 . S
Zn133 O137 2.086 . S
Zn133 O142 1.977 . S
O134 Zn133 2.032 . S
O134 C138 1.278 1_545 S
C135 O136 1.203 1_545 S
C135 O142 1.267 . S
O136 C135 1.203 1_565 S
O137 C130 1.185 . S
O137 Zn133 2.086 . S
C138 O134 1.278 1_565 S
C138 O139 1.211 . S
O139 C138 1.211 . S
C140 O132 1.284 . S
C140 O141 1.273 . S
O141 C140 1.273 . S
O142 Zn133 1.977 . S
O142 C135 1.267 . S
C143 O144 1.160 . S
C143 O150 1.185 . S
O144 C143 1.160 . S
O145 Zn146 1.899 . S
O145 C153 1.284 . S
Zn146 O145 1.899 . S
Zn146 O147 2.032 . S
Zn146 O150 2.086 . S
Zn146 O155 1.977 1_554 S
O147 Zn146 2.032 . S
O147 C151 1.278 . S
C148 O149 1.203 . S
C148 O155 1.267 . S
O149 C148 1.203 . S
O150 C143 1.185 . S
O150 Zn146 2.086 . S
C151 O147 1.278 . S
C151 O152 1.211 . S
O152 C151 1.211 . S
C153 O145 1.284 . S
C153 O154 1.273 . S
O154 C153 1.273 . S
O155 Zn146 1.977 1_556 S
O155 C148 1.267 . S
C156 C157 1.170 . S
C156 C158 1.380 . S
C157 C156 1.170 . S
C158 C156 1.380 . S
C158 C159 1.170 . S
C159 C158 1.170 . S
C160 C161 1.170 . S
C160 C162 1.380 . S
C161 C160 1.170 . S
C162 C160 1.380 . S
C162 C163 1.170 . S
C163 C162 1.170 . S
C164 C165 1.170 . S
C164 C166 1.380 . S
C165 C164 1.170 . S
C166 C164 1.380 . S
C166 C167 1.170 . S
C167 C166 1.170 . S
C168 C169 1.170 . S
C168 C170 1.380 . S
C169 C168 1.170 . S
C170 C168 1.380 . S
C170 C171 1.170 . S
C171 C170 1.170 . S
C172 C173 1.170 . S
C172 C174 1.380 . S
C173 C172 1.170 . S
C174 C172 1.380 . S
C174 C175 1.170 . S
C175 C174 1.170 . S
C176 C177 1.170 . S
C176 C178 1.380 . S
C177 C176 1.170 . S
C178 C176 1.380 . S
C178 C179 1.170 . S
C179 C178 1.170 . S
C180 C181 1.170 . S
C180 C182 1.379 1_565 S
C181 C180 1.170 . S
C182 C180 1.379 1_545 S
C182 C183 1.171 . S
C183 C182 1.171 . S
C184 C185 1.170 . S
C184 C186 1.380 . S
C185 C184 1.170 . S
C186 C184 1.380 . S
C186 C187 1.170 . S
C187 C186 1.170 . S
C188 C189 1.171 1_455 S
C188 C190 1.379 . S
C189 C188 1.171 1_655 S
C190 C188 1.379 . S
C190 C191 1.170 . S
C191 C190 1.170 . S
C192 C193 1.174 1_655 S
C192 C194 1.376 . S
C193 C192 1.174 1_455 S
C194 C192 1.376 . S
C194 C195 1.170 . S
C195 C194 1.170 . S
C196 C197 1.170 . S
C196 C198 1.380 1_565 S
C197 C196 1.170 . S
C198 C196 1.380 1_545 S
C198 C199 1.170 . S
C199 C198 1.170 . S
C200 C201 1.170 . S
C200 C202 1.380 . S
C201 C200 1.170 . S
C202 C200 1.380 . S
C202 C203 1.170 . S
C203 C202 1.170 . S
C204 C205 1.170 . S
C204 C206 1.380 . S
C205 C204 1.170 . S
C206 C204 1.380 . S
C206 C207 1.170 . S
C207 C206 1.170 . S
C208 C209 1.170 . S
C208 C210 1.380 . S
C209 C208 1.170 . S
C210 C208 1.380 . S
C210 C211 1.170 . S
C211 C210 1.170 . S
C212 C213 1.170 . S
C212 C214 1.380 1_554 S
C213 C212 1.170 . S
C214 C212 1.380 1_556 S
C214 C215 1.170 . S
C215 C214 1.170 . S
C216 C217 1.170 . S
C216 C218 1.380 . S
C217 C216 1.170 . S
C218 C216 1.380 . S
C218 C219 1.170 . S
C219 C218 1.170 . S
C220 C221 1.170 . S
C220 C222 1.380 . S
C221 C220 1.170 . S
C222 C220 1.380 . S
C222 C223 1.170 . S
C223 C222 1.170 . S
C224 C225 1.170 . S
C224 C226 1.380 1_554 S
C225 C224 1.170 . S
C226 C224 1.380 1_556 S
C226 C227 1.170 . S
C227 C226 1.170 . S
C228 C229 1.170 . S
C228 C230 1.380 1_545 S
C229 C228 1.170 . S
C230 C228 1.380 1_565 S
C230 C231 1.170 . S
C231 C230 1.170 . S
C232 C233 1.170 . S
C232 C234 1.380 . S
C233 C232 1.170 . S
C234 C232 1.380 . S
C234 C235 1.170 . S
C235 C234 1.170 . S
C236 C237 1.170 . S
C236 C238 1.380 1_455 S
C237 C236 1.170 . S
C238 C236 1.380 1_655 S
C238 C239 1.170 . S
C239 C238 1.170 . S
C240 C241 1.170 . S
C240 C242 1.380 1_565 S
C241 C240 1.170 . S
C242 C240 1.380 1_545 S
C242 C243 1.170 . S
C243 C242 1.170 . S
C244 C245 1.170 . S
C244 C246 1.380 . S
C245 C244 1.170 . S
C246 C244 1.380 . S
C246 C247 1.170 . S
C247 C246 1.170 . S
C248 C249 1.170 . S
C248 C250 1.380 1_655 S
C249 C248 1.170 . S
C250 C248 1.380 1_455 S
C250 C251 1.170 . S
C251 C250 1.170 . S
C157 C0 1.663 . S
C159 C104 1.651 . S
C161 C13 1.677 . S
C163 C117 1.668 . S
C165 C130 1.652 . S
C167 C26 1.656 . S
C169 C143 1.654 . S
C171 C39 1.652 . S
C173 C78 1.658 . S
C175 C52 1.650 . S
C177 C91 1.655 . S
C179 C65 1.650 . S
C181 C8 1.396 . S
C183 C47 1.390 . S
C185 C60 1.355 . S
C187 C21 1.347 . S
C189 C73 1.387 . S
C191 C34 1.392 . S
C193 C86 1.347 . S
C195 C125 1.361 . S
C197 C138 1.393 . S
C199 C99 1.389 . S
C201 C112 1.381 . S
C203 C151 1.359 . S
C205 C88 1.216 . S
C207 C10 1.201 . S
C209 C23 1.162 . S
C211 C101 1.209 . S
C213 C114 1.186 . S
C215 C36 1.221 . S
C217 C127 1.216 . S
C219 C49 1.199 . S
C221 C62 1.209 . S
C223 C140 1.208 . S
C225 C153 1.192 . S
C227 C75 1.220 . S
C229 C5 1.097 . S
C231 C96 1.036 . S
C233 C109 1.109 . S
C235 C18 1.038 . S
C237 C122 1.109 . S
C239 C31 1.035 . S
C241 C44 1.046 . S
C243 C135 1.083 . S
C245 C148 1.042 . S
C247 C57 1.108 . S
C249 C83 1.077 . S
C251 C70 1.080 . S
