# Generated by pormake.
# Topology dia, (4)-cn, num edge types: 1
# Building blocks:
#     Node 0, Type 0, BuildingBlock: NAHDIM_clean_sbu_0, # of connection points: 4
#     Node 1, Type 0, BuildingBlock: NAHDIM_clean_sbu_0, # of connection points: 4
#     Node 2, Type 0, BuildingBlock: NAHDIM_clean_sbu_0, # of connection points: 4
#     Node 3, Type 0, BuildingBlock: NAHDIM_clean_sbu_0, # of connection points: 4
#     Node 4, Type 0, BuildingBlock: NAHDIM_clean_sbu_0, # of connection points: 4
#     Node 5, Type 0, BuildingBlock: NAHDIM_clean_sbu_0, # of connection points: 4
#     Node 6, Type 0, BuildingBlock: NAHDIM_clean_sbu_0, # of connection points: 4
#     Node 7, Type 0, BuildingBlock: NAHDIM_clean_sbu_0, # of connection points: 4
#     Edge 8, Type (0, 0), None
#     Edge 9, Type (0, 0), None
#     Edge 10, Type (0, 0), None
#     Edge 11, Type (0, 0), None
#     Edge 12, Type (0, 0), None
#     Edge 13, Type (0, 0), None
#     Edge 14, Type (0, 0), None
#     Edge 15, Type (0, 0), None
#     Edge 16, Type (0, 0), None
#     Edge 17, Type (0, 0), None
#     Edge 18, Type (0, 0), None
#     Edge 19, Type (0, 0), None
#     Edge 20, Type (0, 0), None
#     Edge 21, Type (0, 0), None
#     Edge 22, Type (0, 0), None
#     Edge 23, Type (0, 0), None
# Relax obj value: 0.005
# Max RMSD: 0.031
# Mean RMSD: 0.031
data_MOF--net-dia--node1-NAHDIM_clean_sbu_0--edge1-none
_symmetry_space_group_name_H-M    P1
_symmetry_Int_Tables_number       1
_symmetry_cell_setting            triclinic
loop_
_symmetry_equiv_pos_as_xyz
'x, y, z'
_cell_length_a     16.471123
_cell_length_b     15.996731
_cell_length_c     16.100715
_cell_angle_alpha  83.574085
_cell_angle_beta   97.040422
_cell_angle_gamma 97.418094
loop_
_atom_site_label
_atom_site_type_symbol
_atom_site_fract_x
_atom_site_fract_y
_atom_site_fract_z
_atom_type_partial_charge
C0 C 0.0486 0.17746 0.75644 0.0
O1 O 0.08189 0.11117 0.79453 0.0
O2 O 0.21081 0.08469 0.69429 0.0
Zn3 Zn 0.12135 0.13587 0.61459 0.0
O4 O 0.04176 0.04358 0.56338 0.0
C5 C 0.24258 0.21363 0.50344 0.0
O6 O 0.28609 0.1541 0.54069 0.0
O7 O 0.05748 0.20032 0.67963 0.0
C8 C 0.04082 0.02682 0.48797 0.0
O9 O 0.0937 0.06995 0.43993 0.0
C10 C 0.22954 0.01085 0.68967 0.0
O11 O 0.19107 0.96535 0.63061 0.0
O12 O 0.17129 0.21773 0.52415 0.0
C13 C 1.00143 0.22486 0.80245 0.0
O14 O 0.99751 0.20502 0.88333 0.0
O15 O 0.84749 0.27067 0.91759 0.0
Zn16 Zn 0.89995 0.35104 0.82762 0.0
O17 O 0.97969 0.44294 0.87923 0.0
C18 C 0.79374 0.47651 0.75032 0.0
O19 O 0.83134 0.52157 0.8101 0.0
O20 O 0.96417 0.28526 0.76437 0.0
C21 C 0.98089 0.45937 0.95479 0.0
O22 O 0.92816 0.41606 0.00288 0.0
C23 C 0.77608 0.27491 0.93787 0.0
O24 O 0.73264 0.33435 0.90024 0.0
O25 O 0.8125 0.40266 0.74577 0.0
C26 C 0.5486 0.17746 0.25644 0.0
O27 O 0.5819 0.11117 0.29453 0.0
O28 O 0.71081 0.08469 0.19429 0.0
Zn29 Zn 0.62135 0.13587 0.11459 0.0
O30 O 0.54176 0.04358 0.06338 0.0
C31 C 0.74258 0.21363 0.00344 0.0
O32 O 0.78609 0.1541 0.04069 0.0
O33 O 0.55748 0.20032 0.17963 0.0
C34 C 0.54082 0.02682 -0.01203 0.0
O35 O 0.5937 0.06995 0.93993 0.0
C36 C 0.72954 0.01085 0.18967 0.0
O37 O 0.69107 0.96535 0.13061 0.0
O38 O 0.67129 0.21773 0.02415 0.0
C39 C 1.00143 0.72486 0.30245 0.0
O40 O 0.99751 0.70502 0.38333 0.0
O41 O 0.84749 0.77067 0.41759 0.0
Zn42 Zn 0.89995 0.85104 0.32762 0.0
O43 O 0.97969 0.94294 0.37923 0.0
C44 C 0.79374 0.97651 0.25032 0.0
O45 O 0.83134 0.02157 0.3101 0.0
O46 O 0.96417 0.78526 0.26437 0.0
C47 C 0.98089 0.95937 0.45479 0.0
O48 O 0.92816 0.91606 0.50288 0.0
C49 C 0.77608 0.77491 0.43787 0.0
O50 O 0.73264 0.83435 0.40024 0.0
O51 O 0.8125 0.90266 0.24577 0.0
C52 C 0.0486 0.67746 0.25644 0.0
O53 O 0.08189 0.61117 0.29453 0.0
O54 O 0.21081 0.58469 0.19429 0.0
Zn55 Zn 0.12135 0.63587 0.11459 0.0
O56 O 0.04176 0.54358 0.06338 0.0
C57 C 0.24258 0.71363 0.00344 0.0
O58 O 0.28609 0.6541 0.04069 0.0
O59 O 0.05748 0.70032 0.17963 0.0
C60 C 0.04082 0.52682 -0.01203 0.0
O61 O 0.0937 0.56995 0.93993 0.0
C62 C 0.22954 0.51085 0.18967 0.0
O63 O 0.19107 0.46535 0.13061 0.0
O64 O 0.17129 0.71773 0.02415 0.0
C65 C 0.50143 0.22487 0.30245 0.0
O66 O 0.49751 0.20502 0.38333 0.0
O67 O 0.34749 0.27067 0.41759 0.0
Zn68 Zn 0.39995 0.35104 0.32762 0.0
O69 O 0.47969 0.44294 0.37923 0.0
C70 C 0.29374 0.47651 0.25032 0.0
O71 O 0.33134 0.52157 0.3101 0.0
O72 O 0.46417 0.28526 0.26437 0.0
C73 C 0.48089 0.45937 0.45479 0.0
O74 O 0.42816 0.41606 0.50288 0.0
C75 C 0.27608 0.27491 0.43787 0.0
O76 O 0.23264 0.33435 0.40024 0.0
O77 O 0.3125 0.40266 0.24577 0.0
C78 C 0.50143 0.72487 0.80245 0.0
O79 O 0.49751 0.70502 0.88333 0.0
O80 O 0.34749 0.77067 0.91759 0.0
Zn81 Zn 0.39995 0.85104 0.82762 0.0
O82 O 0.47969 0.94294 0.87923 0.0
C83 C 0.29374 0.97651 0.75032 0.0
O84 O 0.33134 0.02157 0.8101 0.0
O85 O 0.46417 0.78526 0.76437 0.0
C86 C 0.48089 0.95937 0.95479 0.0
O87 O 0.42816 0.91606 0.00288 0.0
C88 C 0.27608 0.77491 0.93787 0.0
O89 O 0.23264 0.83435 0.90024 0.0
O90 O 0.3125 0.90266 0.74577 0.0
C91 C 0.5486 0.67746 0.75644 0.0
O92 O 0.5819 0.61117 0.79453 0.0
O93 O 0.71081 0.58469 0.69429 0.0
Zn94 Zn 0.62135 0.63587 0.61459 0.0
O95 O 0.54176 0.54358 0.56338 0.0
C96 C 0.74258 0.71363 0.50344 0.0
O97 O 0.78609 0.6541 0.54069 0.0
O98 O 0.55748 0.70032 0.67963 0.0
C99 C 0.54082 0.52682 0.48797 0.0
O100 O 0.5937 0.56995 0.43993 0.0
C101 C 0.72954 0.51085 0.68967 0.0
O102 O 0.69107 0.46535 0.63061 0.0
O103 O 0.67129 0.71773 0.52415 0.0
loop_
_geom_bond_atom_site_label_1
_geom_bond_atom_site_label_2
_geom_bond_distance
_geom_bond_site_symmetry_2
_ccdc_geom_bond_type
C0 O1 1.160 . S
C0 O7 1.185 . S
O1 C0 1.160 . S
O2 Zn3 1.899 . S
O2 C10 1.284 . S
Zn3 O2 1.899 . S
Zn3 O4 2.032 . S
Zn3 O7 2.086 . S
Zn3 O12 1.977 . S
O4 Zn3 2.032 . S
O4 C8 1.278 . S
C5 O6 1.203 . S
C5 O12 1.267 . S
O6 C5 1.203 . S
O7 C0 1.185 . S
O7 Zn3 2.086 . S
C8 O4 1.278 . S
C8 O9 1.211 . S
O9 C8 1.211 . S
C10 O2 1.284 . S
C10 O11 1.273 1_545 S
O11 C10 1.273 1_565 S
O12 Zn3 1.977 . S
O12 C5 1.267 . S
C13 O14 1.160 . S
C13 O20 1.185 . S
O14 C13 1.160 . S
O15 Zn16 1.899 . S
O15 C23 1.284 . S
Zn16 O15 1.899 . S
Zn16 O17 2.032 . S
Zn16 O20 2.086 . S
Zn16 O25 1.977 . S
O17 Zn16 2.032 . S
O17 C21 1.278 . S
C18 O19 1.203 . S
C18 O25 1.267 . S
O19 C18 1.203 . S
O20 C13 1.185 . S
O20 Zn16 2.086 . S
C21 O17 1.278 . S
C21 O22 1.211 . S
O22 C21 1.211 . S
C23 O15 1.284 . S
C23 O24 1.273 1_556 S
O24 C23 1.273 1_554 S
O25 Zn16 1.977 . S
O25 C18 1.267 . S
C26 O27 1.160 . S
C26 O33 1.185 . S
O27 C26 1.160 . S
O28 Zn29 1.899 . S
O28 C36 1.284 . S
Zn29 O28 1.899 . S
Zn29 O30 2.032 . S
Zn29 O33 2.086 . S
Zn29 O38 1.977 . S
O30 Zn29 2.032 . S
O30 C34 1.278 . S
C31 O32 1.203 . S
C31 O38 1.267 . S
O32 C31 1.203 . S
O33 C26 1.185 . S
O33 Zn29 2.086 . S
C34 O30 1.278 . S
C34 O35 1.211 1_554 S
O35 C34 1.211 1_556 S
C36 O28 1.284 . S
C36 O37 1.273 1_545 S
O37 C36 1.273 1_565 S
O38 Zn29 1.977 . S
O38 C31 1.267 . S
C39 O40 1.160 . S
C39 O46 1.185 . S
O40 C39 1.160 . S
O41 Zn42 1.899 . S
O41 C49 1.284 . S
Zn42 O41 1.899 . S
Zn42 O43 2.032 . S
Zn42 O46 2.086 . S
Zn42 O51 1.977 . S
O43 Zn42 2.032 . S
O43 C47 1.278 . S
C44 O45 1.203 . S
C44 O51 1.267 . S
O45 C44 1.203 . S
O46 C39 1.185 . S
O46 Zn42 2.086 . S
C47 O43 1.278 . S
C47 O48 1.211 1_565 S
O48 C47 1.211 1_545 S
C49 O41 1.284 . S
C49 O50 1.273 . S
O50 C49 1.273 . S
O51 Zn42 1.977 . S
O51 C44 1.267 . S
C52 O53 1.160 . S
C52 O59 1.185 . S
O53 C52 1.160 . S
O54 Zn55 1.899 . S
O54 C62 1.284 . S
Zn55 O54 1.899 . S
Zn55 O56 2.032 . S
Zn55 O59 2.086 . S
Zn55 O64 1.977 . S
O56 Zn55 2.032 . S
O56 C60 1.278 . S
C57 O58 1.203 . S
C57 O64 1.267 . S
O58 C57 1.203 . S
O59 C52 1.185 . S
O59 Zn55 2.086 . S
C60 O56 1.278 . S
C60 O61 1.211 1_554 S
O61 C60 1.211 1_556 S
C62 O54 1.284 . S
C62 O63 1.273 . S
O63 C62 1.273 . S
O64 Zn55 1.977 . S
O64 C57 1.267 . S
C65 O66 1.160 . S
C65 O72 1.185 . S
O66 C65 1.160 . S
O67 Zn68 1.899 . S
O67 C75 1.284 . S
Zn68 O67 1.899 . S
Zn68 O69 2.032 . S
Zn68 O72 2.086 . S
Zn68 O77 1.977 . S
O69 Zn68 2.032 . S
O69 C73 1.278 . S
C70 O71 1.203 . S
C70 O77 1.267 . S
O71 C70 1.203 . S
O72 C65 1.185 . S
O72 Zn68 2.086 . S
C73 O69 1.278 . S
C73 O74 1.211 . S
O74 C73 1.211 . S
C75 O67 1.284 . S
C75 O76 1.273 . S
O76 C75 1.273 . S
O77 Zn68 1.977 . S
O77 C70 1.267 . S
C78 O79 1.160 . S
C78 O85 1.185 . S
O79 C78 1.160 . S
O80 Zn81 1.899 . S
O80 C88 1.284 . S
Zn81 O80 1.899 . S
Zn81 O82 2.032 . S
Zn81 O85 2.086 . S
Zn81 O90 1.977 . S
O82 Zn81 2.032 . S
O82 C86 1.278 . S
C83 O84 1.203 . S
C83 O90 1.267 . S
O84 C83 1.203 . S
O85 C78 1.185 . S
O85 Zn81 2.086 . S
C86 O82 1.278 . S
C86 O87 1.211 1_565 S
O87 C86 1.211 1_545 S
C88 O80 1.284 . S
C88 O89 1.273 1_556 S
O89 C88 1.273 1_554 S
O90 Zn81 1.977 . S
O90 C83 1.267 . S
C91 O92 1.160 . S
C91 O98 1.185 . S
O92 C91 1.160 . S
O93 Zn94 1.899 . S
O93 C101 1.284 . S
Zn94 O93 1.899 . S
Zn94 O95 2.032 . S
Zn94 O98 2.086 . S
Zn94 O103 1.977 . S
O95 Zn94 2.032 . S
O95 C99 1.278 . S
C96 O97 1.203 . S
C96 O103 1.267 . S
O97 C96 1.203 . S
O98 C91 1.185 . S
O98 Zn94 2.086 . S
C99 O95 1.278 . S
C99 O100 1.211 . S
O100 C99 1.211 . S
C101 O93 1.284 . S
C101 O102 1.273 . S
O102 C101 1.273 . S
O103 Zn94 1.977 . S
O103 C96 1.267 . S
C75 C5 1.473 . S
C101 C18 1.473 . S
C34 C86 1.450 1_544 S
C39 C52 1.446 1_655 S
C83 C10 1.473 1_565 S
C21 C60 1.450 1_656 S
C65 C26 1.446 . S
C49 C96 1.473 . S
C62 C70 1.473 . S
C23 C31 1.473 1_556 S
C44 C36 1.473 1_565 S
C47 C8 1.450 1_665 S
C13 C0 1.446 1_655 S
C91 C78 1.446 . S
C57 C88 1.473 1_554 S
C73 C99 1.450 . S
