# Generated by pormake.
# Topology pcu, (6)-cn, num edge types: 1
# Building blocks:
#     Node 0, Type 0, BuildingBlock: NUHQIS_clean_sbu_0, # of connection points: 6
#     Edge 1, Type (0, 0), BuildingBlock: EZIPEK_clean_linker_0, # of connection points: 2
#     Edge 2, Type (0, 0), BuildingBlock: EZIPEK_clean_linker_0, # of connection points: 2
#     Edge 3, Type (0, 0), BuildingBlock: EZIPEK_clean_linker_0, # of connection points: 2
# Relax obj value: 0.000
# Max RMSD: 0.000
# Mean RMSD: 0.000
data_MOF--net-pcu--node1-NUHQIS_clean_sbu_0--edge1-EZIPEK_clean_linker_0
_symmetry_space_group_name_H-M    P1
_symmetry_Int_Tables_number       1
_symmetry_cell_setting            triclinic
loop_
_symmetry_equiv_pos_as_xyz
'x, y, z'
_cell_length_a     21.174565
_cell_length_b     11.221907
_cell_length_c     11.17806
_cell_angle_alpha  92.805773
_cell_angle_beta   97.167784
_cell_angle_gamma 122.03512
loop_
_atom_site_label
_atom_site_type_symbol
_atom_site_fract_x
_atom_site_fract_y
_atom_site_fract_z
_atom_type_partial_charge
Tb0 Tb 0.94546 0.8951 0.95198 0.0
Eu1 Eu 0.13671 0.0798 -0.00181 0.0
C2 C 1.03625 -0.01321 0.73102 0.0
C3 C 1.03512 0.74116 0.96136 0.0
C4 C 0.74983 0.80902 0.94754 0.0
C5 C 0.71423 0.98289 0.94822 0.0
C6 C 0.76558 0.94461 0.92887 0.0
C7 C 0.68258 0.71367 -0.01179 0.0
C8 C 0.63144 0.75244 0.00852 0.0
C9 C 0.64662 0.88698 -0.01234 0.0
C10 C 0.80271 0.76597 0.92433 0.0
O11 O 0.98726 -0.00604 0.14094 0.0
O12 O 0.09667 -0.00407 0.17077 0.0
O13 O 0.10712 0.24543 0.01259 0.0
O14 O 0.97686 0.11134 0.94702 0.0
C15 C 0.04098 -0.00672 0.21262 0.0
O16 O 0.24587 0.18516 0.12228 0.0
O17 O 0.24242 0.17357 0.92786 0.0
O18 O 0.09928 0.08194 0.80357 0.0
O19 O 0.97614 0.88995 0.7724 0.0
O20 O 0.97656 0.74206 -0.01233 0.0
O21 O 0.09576 0.85365 0.93712 0.0
C22 C 0.04179 0.23332 0.9777 0.0
O23 O 0.84161 0.82181 0.83862 0.0
O24 O 0.84476 0.76549 0.01964 0.0
C25 C 0.33936 0.16225 0.04328 0.0
C26 C 0.4393 0.06852 0.03959 0.0
C27 C 0.37999 0.00478 0.10613 0.0
C28 C 0.33005 0.0508 0.10747 0.0
C29 C 0.39975 0.22762 0.97917 0.0
C30 C 0.44917 0.18093 0.97702 0.0
C31 C 0.28441 0.20602 0.03444 0.0
H32 H 0.72703 0.08722 0.93192 0.0
H33 H 0.81731 0.02071 0.89845 0.0
H34 H 0.66946 0.60892 0.00368 0.0
H35 H 0.57966 0.67715 0.03925 0.0
H36 H 0.37151 0.91769 0.15477 0.0
H37 H 0.2836 -0.00218 0.15682 0.0
H38 H 0.40777 0.31315 0.92854 0.0
H39 H 0.49462 0.23133 0.92529 0.0
C40 C 0.08239 0.11877 0.42567 0.0
C41 C 1.03932 -0.00934 0.34448 0.0
C42 C 1.0025 0.85779 0.51755 0.0
C43 C 1.03532 -0.0129 0.59702 0.0
N44 N 0.09369 0.24264 0.61714 0.0
N45 N 0.94964 0.73742 0.31065 0.0
C46 C 0.07166 0.11835 0.54845 0.0
C47 C 0.99602 0.85993 0.38957 0.0
N48 N 0.13537 0.24047 0.38691 0.0
N49 N 0.98329 0.73468 0.56366 0.0
H50 H 0.94551 0.73413 0.21646 0.0
H51 H 0.91106 0.64158 0.33862 0.0
H52 H 0.99496 0.73103 0.65616 0.0
H53 H 0.96522 0.64022 0.50949 0.0
H54 H 0.17338 0.3341 0.44566 0.0
H55 H 0.14691 0.24336 0.29873 0.0
H56 H 0.11299 0.33753 0.58093 0.0
H57 H 0.08552 0.24936 0.70641 0.0
C58 C 0.46903 0.90209 0.94065 0.0
C59 C 0.49023 0.01558 0.0319 0.0
C60 C 0.60911 0.03094 0.10429 0.0
C61 C 0.59138 0.92754 0.00538 0.0
N62 N 0.50947 0.77796 0.81932 0.0
N63 N 0.58302 0.19868 0.19331 0.0
C64 C 0.52239 0.8659 0.92119 0.0
C65 C 0.56105 0.08298 0.11182 0.0
N66 N 0.39758 0.82821 0.87304 0.0
N67 N 0.67067 0.07597 0.19315 0.0
H68 H 0.5481 0.23609 0.205 0.0
H69 H 0.63749 0.26328 0.2437 0.0
H70 H 0.70678 0.03951 0.19107 0.0
H71 H 0.68252 0.14001 0.27393 0.0
H72 H 0.37559 0.73422 0.81525 0.0
H73 H 0.35783 0.85469 0.88147 0.0
H74 H 0.46444 0.74224 0.74768 0.0
H75 H 0.54719 0.74942 0.80119 0.0
C76 C 0.98781 0.49211 0.87571 0.0
C77 C 1.0351 0.61008 0.96698 0.0
C78 C 0.07777 0.47334 0.07406 0.0
C79 C 1.03963 0.36332 0.97384 0.0
N80 N 0.96736 0.27951 0.76812 0.0
N81 N 0.13286 0.72063 0.14658 0.0
C82 C 0.99679 0.37539 0.87159 0.0
C83 C 0.08299 0.60351 0.06359 0.0
N84 N 0.93381 0.49051 0.79339 0.0
N85 N 0.10399 0.45006 0.18259 0.0
H86 H 0.13589 0.81629 0.14686 0.0
H87 H 0.17506 0.72561 0.20979 0.0
H88 H 0.09487 0.35169 0.19704 0.0
H89 H 0.12588 0.52194 0.2621 0.0
H90 H 0.89222 0.40062 0.73351 0.0
H91 H 0.92603 0.57472 0.79213 0.0
H92 H 0.94365 0.2935 0.68687 0.0
H93 H 0.97279 0.19287 0.75846 0.0
loop_
_geom_bond_atom_site_label_1
_geom_bond_atom_site_label_2
_geom_bond_distance
_geom_bond_site_symmetry_2
_ccdc_geom_bond_type
Tb0 C10 2.825 . S
Tb0 O11 2.347 1_556 S
Tb0 O14 2.366 1_565 S
Tb0 O19 2.418 . S
Tb0 O20 2.384 . S
Tb0 O23 2.479 . S
Tb0 O24 2.471 1_556 S
Eu1 O12 2.418 . S
Eu1 O13 2.384 . S
Eu1 O16 2.479 . S
Eu1 O17 2.471 1_554 S
Eu1 O18 2.347 1_554 S
Eu1 O21 2.366 1_545 S
Eu1 C31 2.825 . S
C2 O18 1.259 1_665 S
C2 O19 1.265 . S
C3 O20 1.255 1_554 S
C3 O21 1.265 1_655 S
C4 C6 1.380 . S
C4 C7 1.374 1_566 S
C4 C10 1.507 . S
C5 C6 1.384 . S
C5 C9 1.387 . S
C5 H32 0.930 . S
C6 C4 1.380 . S
C6 C5 1.384 . S
C6 H33 0.931 . S
C7 C4 1.374 1_544 S
C7 C8 1.390 . S
C7 H34 0.930 . S
C8 C7 1.390 . S
C8 C9 1.391 1_544 S
C8 H35 0.930 . S
C9 C5 1.387 . S
C9 C8 1.391 1_566 S
C10 Tb0 2.825 . S
C10 C4 1.507 . S
C10 O23 1.238 . S
C10 O24 1.247 1_556 S
O11 Tb0 2.347 1_554 S
O11 C15 1.259 1_665 S
O12 Eu1 2.418 . S
O12 C15 1.265 . S
O13 Eu1 2.384 . S
O13 C22 1.255 . S
O14 Tb0 2.366 1_545 S
O14 C22 1.265 1_656 S
C15 O11 1.259 1_445 S
C15 O12 1.265 . S
O16 Eu1 2.479 . S
O16 C31 1.238 . S
O17 Eu1 2.471 1_556 S
O17 C31 1.247 1_556 S
O18 Eu1 2.347 1_556 S
O18 C2 1.259 1_445 S
O19 Tb0 2.418 . S
O19 C2 1.265 . S
O20 Tb0 2.384 . S
O20 C3 1.255 1_556 S
O21 Eu1 2.366 1_565 S
O21 C3 1.265 1_455 S
C22 O13 1.255 . S
C22 O14 1.265 1_454 S
O23 Tb0 2.479 . S
O23 C10 1.238 . S
O24 Tb0 2.471 1_554 S
O24 C10 1.247 1_554 S
C25 C28 1.380 . S
C25 C29 1.374 1_544 S
C25 C31 1.507 . S
C26 C27 1.387 . S
C26 C30 1.391 1_544 S
C27 C26 1.387 . S
C27 C28 1.384 . S
C27 H36 0.930 . S
C28 C25 1.380 . S
C28 C27 1.384 . S
C28 H37 0.931 . S
C29 C25 1.374 1_566 S
C29 C30 1.390 . S
C29 H38 0.930 . S
C30 C26 1.391 1_566 S
C30 C29 1.390 . S
C30 H39 0.930 . S
C31 Eu1 2.825 . S
C31 O16 1.238 . S
C31 O17 1.247 1_554 S
C31 C25 1.507 . S
H32 C5 0.930 . S
H33 C6 0.931 . S
H34 C7 0.930 . S
H35 C8 0.930 . S
H36 C27 0.930 . S
H37 C28 0.931 . S
H38 C29 0.930 . S
H39 C30 0.930 . S
C40 C41 1.363 . S
C40 C46 1.379 . S
C40 N48 1.356 . S
C41 C40 1.363 . S
C41 C47 1.363 1_445 S
C42 C43 1.363 1_665 S
C42 C47 1.379 . S
C42 N49 1.356 . S
C43 C42 1.363 1_445 S
C43 C46 1.363 . S
N44 C46 1.356 . S
N44 H56 0.984 . S
N44 H57 0.985 . S
N45 C47 1.356 . S
N45 H50 0.984 . S
N45 H51 0.985 . S
C46 C40 1.379 . S
C46 C43 1.363 . S
C46 N44 1.356 . S
C47 C41 1.363 1_665 S
C47 C42 1.379 . S
C47 N45 1.356 . S
N48 C40 1.356 . S
N48 H54 0.984 . S
N48 H55 0.984 . S
N49 C42 1.356 . S
N49 H52 0.984 . S
N49 H53 0.985 . S
H50 N45 0.984 . S
H51 N45 0.985 . S
H52 N49 0.984 . S
H53 N49 0.985 . S
H54 N48 0.984 . S
H55 N48 0.984 . S
H56 N44 0.984 . S
H57 N44 0.985 . S
C58 C59 1.363 1_566 S
C58 C64 1.379 . S
C58 N66 1.356 . S
C59 C58 1.363 1_544 S
C59 C65 1.363 . S
C60 C61 1.363 . S
C60 C65 1.379 . S
C60 N67 1.356 . S
C61 C60 1.363 . S
C61 C64 1.363 1_544 S
N62 C64 1.356 . S
N62 H74 0.984 . S
N62 H75 0.985 . S
N63 C65 1.356 . S
N63 H68 0.984 . S
N63 H69 0.985 . S
C64 C58 1.379 . S
C64 C61 1.363 1_566 S
C64 N62 1.356 . S
C65 C59 1.363 . S
C65 C60 1.379 . S
C65 N63 1.356 . S
N66 C58 1.356 . S
N66 H72 0.984 . S
N66 H73 0.984 . S
N67 C60 1.356 . S
N67 H70 0.984 . S
N67 H71 0.985 . S
H68 N63 0.984 . S
H69 N63 0.985 . S
H70 N67 0.984 . S
H71 N67 0.985 . S
H72 N66 0.984 . S
H73 N66 0.984 . S
H74 N62 0.984 . S
H75 N62 0.985 . S
C76 C77 1.363 1_656 S
C76 C82 1.379 . S
C76 N84 1.356 . S
C77 C76 1.363 1_454 S
C77 C83 1.363 . S
C78 C79 1.363 . S
C78 C83 1.379 . S
C78 N85 1.356 . S
C79 C78 1.363 . S
C79 C82 1.363 1_454 S
N80 C82 1.356 . S
N80 H92 0.984 . S
N80 H93 0.985 . S
N81 C83 1.356 . S
N81 H86 0.984 . S
N81 H87 0.985 . S
C82 C76 1.379 . S
C82 C79 1.363 1_656 S
C82 N80 1.356 . S
C83 C77 1.363 . S
C83 C78 1.379 . S
C83 N81 1.356 . S
N84 C76 1.356 . S
N84 H90 0.984 . S
N84 H91 0.984 . S
N85 C78 1.356 . S
N85 H88 0.984 . S
N85 H89 0.985 . S
H86 N81 0.984 . S
H87 N81 0.985 . S
H88 N85 0.984 . S
H89 N85 0.985 . S
H90 N84 0.984 . S
H91 N84 0.984 . S
H92 N80 0.984 . S
H93 N80 0.985 . S
C41 C15 1.469 . S
C43 C2 1.469 1_445 S
C59 C26 1.494 . S
C61 C9 1.494 1_544 S
C77 C3 1.500 1_455 S
C79 C22 1.500 . S
