# Generated by pormake.
# Topology pcu, (6)-cn, num edge types: 1
# Building blocks:
#     Node 0, Type 0, BuildingBlock: MIFKUJ_clean_sbu_0, # of connection points: 6
#     Edge 1, Type (0, 0), BuildingBlock: ZUJKAS_clean_linker_0, # of connection points: 2
#     Edge 2, Type (0, 0), BuildingBlock: ZUJKAS_clean_linker_0, # of connection points: 2
#     Edge 3, Type (0, 0), BuildingBlock: ZUJKAS_clean_linker_0, # of connection points: 2
# Relax obj value: 0.000
# Max RMSD: 0.000
# Mean RMSD: 0.000
data_MOF--net-pcu--node1-MIFKUJ_clean_sbu_0--edge1-ZUJKAS_clean_linker_0
_symmetry_space_group_name_H-M    P1
_symmetry_Int_Tables_number       1
_symmetry_cell_setting            triclinic
loop_
_symmetry_equiv_pos_as_xyz
'x, y, z'
_cell_length_a     21.498543
_cell_length_b     23.340049
_cell_length_c     18.774123
_cell_angle_alpha  100.41203
_cell_angle_beta   89.276622
_cell_angle_gamma 110.7245
loop_
_atom_site_label
_atom_site_type_symbol
_atom_site_fract_x
_atom_site_fract_y
_atom_site_fract_z
_atom_type_partial_charge
Zn0 Zn 0.02322 0.90649 0.97537 0.0
Zn1 Zn 0.98077 0.05034 -0.00787 0.0
C2 C 0.15593 0.91737 0.96046 0.0
O3 O 0.12566 0.87766 0.90153 0.0
C4 C 0.85468 0.0355 0.05227 0.0
O5 O 0.89325 0.07955 0.10343 0.0
O6 O 0.99391 0.81343 0.96747 0.0
O7 O 0.97192 0.93912 0.05132 0.0
O8 O 0.02706 0.03959 0.07792 0.0
C9 C 0.01383 0.79377 0.01841 0.0
O10 O 0.04899 0.83449 0.07429 0.0
O11 O 0.12154 0.93996 0.00476 0.0
C12 C 0.96872 0.15712 0.95213 0.0
O13 O 0.92908 0.11314 0.90167 0.0
O14 O 0.99955 0.14189 -0.00152 0.0
O15 O 1.00326 0.01772 0.89249 0.0
O16 O 0.01579 0.92569 0.87693 0.0
O17 O 0.88139 0.01258 -0.00076 0.0
C18 C 0.00765 -0.0134 0.09621 0.0
C19 C 0.01269 0.97186 0.85209 0.0
H20 H 0.95939 0.88256 0.1567 0.0
H21 H 0.96928 0.87608 0.28422 0.0
H22 H 0.08998 0.0717 0.33427 0.0
H23 H 0.08098 0.0788 0.20656 0.0
H24 H 0.13332 -0.01408 0.40438 0.0
H25 H 0.86798 0.96276 0.43516 0.0
H26 H 0.88406 0.90956 0.36171 0.0
H27 H 0.91419 -0.0085 0.36006 0.0
C28 C 0.98877 0.9241 0.19456 0.0
C29 C 0.01883 -0.0186 0.17174 0.0
C30 C 0.99424 0.92024 0.26731 0.0
C31 C 0.02968 0.97356 0.31826 0.0
C32 C 0.06231 0.03016 0.29538 0.0
H33 H 0.99878 0.05743 0.77789 0.0
H34 H 0.00723 0.05685 0.64811 0.0
C35 C 0.05686 0.03413 0.22258 0.0
C36 C 0.02884 0.97134 0.39613 0.0
H37 H 0.92653 0.95685 0.53721 0.0
C38 C 0.08822 -0.02064 0.43362 0.0
C39 C 0.96988 0.96344 0.43365 0.0
C40 C 0.90537 0.95676 0.39598 0.0
C41 C 0.09002 -0.02059 0.5083 0.0
C42 C 0.03086 0.97091 0.5456 0.0
C43 C 0.97161 0.96301 0.50801 0.0
C44 C 0.02947 0.97219 0.62431 0.0
C45 C 0.15521 -0.01014 0.54716 0.0
C46 C 0.03902 0.92452 0.65344 0.0
C47 C 0.03401 0.92447 0.72766 0.0
C48 C 0.01922 0.97211 0.77372 0.0
C49 C 0.01023 0.02003 0.74408 0.0
C50 C 0.01506 0.01987 0.66998 0.0
H51 H 0.19832 0.00709 0.51344 0.0
H52 H 0.16265 0.02394 0.5988 0.0
H53 H 0.15431 0.94519 0.56057 0.0
H54 H 0.04923 0.88687 0.6186 0.0
H55 H 0.0413 0.88694 0.74877 0.0
H56 H 0.23461 -0.00776 0.08038 0.0
H57 H 0.35413 0.01584 0.10354 0.0
H58 H 0.35899 0.90048 0.89795 0.0
H59 H 0.24064 0.87728 0.87404 0.0
H60 H 0.42147 0.93136 0.10973 0.0
H61 H 0.51035 0.06581 0.89015 0.0
H62 H 0.42746 0.04929 0.92231 0.0
H63 H 0.44684 -0.00914 0.85942 0.0
C64 C 0.26131 0.97229 0.03994 0.0
C65 C 0.22819 0.93322 0.97515 0.0
C66 C 0.32946 -0.01432 0.05334 0.0
C67 C 0.36553 0.96064 0.00194 0.0
C68 C 0.3324 0.92129 0.93767 0.0
H69 H 0.7614 0.95567 0.94754 0.0
H70 H 0.642 0.93658 0.94126 0.0
C71 C 0.26457 0.90788 0.92428 0.0
C72 C 0.43757 0.9742 0.01541 0.0
H73 H 0.58852 0.0321 0.94304 0.0
C74 C 0.45822 0.95401 0.07387 0.0
C75 C 0.48529 0.00378 0.96848 0.0
C76 C 0.46659 0.02925 0.90697 0.0
C77 C 0.52513 0.96054 0.08501 0.0
C78 C 0.57244 -0.01138 0.03687 0.0
C79 C 0.55197 0.01004 0.97944 0.0
C80 C 0.64355 -0.0039 0.04444 0.0
C81 C 0.54434 0.93561 0.14668 0.0
C82 C 0.68385 0.03545 0.1049 0.0
C83 C 0.75216 0.04649 0.10869 0.0
C84 C 0.78143 0.01856 0.05188 0.0
C85 C 0.7405 -0.02217 -0.00771 0.0
C86 C 0.67228 0.96696 0.98851 0.0
H87 H 0.50016 0.90337 0.16862 0.0
H88 H 0.57893 0.91066 0.12889 0.0
H89 H 0.57032 0.97513 0.19125 0.0
H90 H 0.66286 0.05917 0.14811 0.0
H91 H 0.78225 0.07826 0.15525 0.0
H92 H 0.058 0.73906 0.1135 0.0
H93 H 0.04701 0.6298 0.09968 0.0
H94 H 0.93327 0.58721 0.89697 0.0
H95 H 0.94503 0.69686 0.9096 0.0
H96 H 0.93507 0.5222 0.08617 0.0
H97 H 0.08219 0.52018 0.8409 0.0
H98 H 0.08113 0.59145 0.89654 0.0
H99 H 0.01271 0.54466 0.83259 0.0
C100 C 0.03045 0.70651 0.06601 0.0
C101 C 1.00283 0.72677 0.01233 0.0
C102 C 0.02423 0.64406 0.05825 0.0
C103 C 0.99041 0.60069 -0.00331 0.0
C104 C 0.96089 0.62026 0.9441 0.0
H105 H 0.91208 0.20464 0.85929 0.0
H106 H 0.91647 0.31206 0.8706 0.0
C107 C 0.96727 0.68284 0.95167 0.0
C108 C 0.98646 0.5351 0.98779 0.0
H109 H 0.03091 0.42357 0.87876 0.0
C110 C 0.95609 0.50062 0.04091 0.0
C111 C 0.01406 0.50719 0.92869 0.0
C112 C 0.04991 0.54283 0.8717 0.0
C113 C 0.95198 0.43868 0.03615 0.0
C114 C 0.9798 0.41092 0.97725 0.0
C115 C 0.00969 0.44515 0.92383 0.0
C116 C 0.97843 0.34631 0.97017 0.0
C117 C 0.91707 0.40311 0.09358 0.0
C118 C 0.01291 0.33039 0.02177 0.0
C119 C 0.01068 0.26909 0.01543 0.0
C120 C 0.97401 0.22269 0.95723 0.0
C121 C 0.9406 0.23918 0.9049 0.0
C122 C 0.94303 0.30051 0.9112 0.0
H123 H 0.88513 0.42575 0.1251 0.0
H124 H 0.88575 0.35447 0.06893 0.0
H125 H 0.95486 0.40123 0.13192 0.0
H126 H 0.04149 0.36542 0.06698 0.0
H127 H 0.03712 0.25798 0.05652 0.0
loop_
_geom_bond_atom_site_label_1
_geom_bond_atom_site_label_2
_geom_bond_distance
_geom_bond_site_symmetry_2
_ccdc_geom_bond_type
Zn0 O6 1.969 . S
Zn0 O7 1.965 1_456 S
Zn0 O11 2.024 1_556 S
Zn0 O16 1.969 . S
Zn1 O8 1.969 . S
Zn1 O14 1.969 . S
Zn1 O15 1.965 1_654 S
Zn1 O17 2.024 1_554 S
C2 O3 1.229 . S
C2 O11 1.058 1_556 S
O3 C2 1.229 . S
C4 O5 1.229 . S
C4 O17 1.058 1_554 S
O5 C4 1.229 . S
O6 Zn0 1.969 . S
O6 C9 1.267 1_556 S
O7 Zn0 1.965 1_654 S
O7 C18 1.266 . S
O8 Zn1 1.969 . S
O8 C18 1.250 1_545 S
C9 O6 1.267 1_554 S
C9 O10 1.228 . S
O10 C9 1.228 . S
O11 Zn0 2.024 1_554 S
O11 C2 1.058 1_554 S
C12 O13 1.228 . S
C12 O14 1.267 1_556 S
O13 C12 1.228 . S
O14 Zn1 1.969 . S
O14 C12 1.267 1_554 S
O15 Zn1 1.965 1_456 S
O15 C19 1.269 . S
O16 Zn0 1.969 . S
O16 C19 1.245 1_565 S
O17 Zn1 2.024 1_556 S
O17 C4 1.058 1_556 S
C18 O7 1.266 . S
C18 O8 1.250 1_565 S
C19 O15 1.269 . S
C19 O16 1.245 1_545 S
H20 C28 0.929 . S
H21 C30 0.930 . S
H22 C32 0.930 . S
H23 C35 0.929 . S
H24 C38 0.930 . S
H25 C40 0.960 . S
H26 C40 0.960 . S
H27 C40 0.960 . S
C28 H20 0.929 . S
C28 C29 1.385 . S
C28 C30 1.384 . S
C29 C28 1.385 . S
C29 C35 1.383 1_665 S
C30 H21 0.930 . S
C30 C28 1.384 . S
C30 C31 1.372 . S
C31 C30 1.372 . S
C31 C32 1.400 1_665 S
C31 C36 1.490 . S
C32 H22 0.930 . S
C32 C31 1.400 1_445 S
C32 C35 1.386 . S
H33 C49 0.930 . S
H34 C50 0.931 . S
C35 H23 0.929 . S
C35 C29 1.383 1_445 S
C35 C32 1.386 . S
C36 C31 1.490 . S
C36 C38 1.395 1_655 S
C36 C39 1.403 1_565 S
H37 C43 0.930 . S
C38 H24 0.930 . S
C38 C36 1.395 1_455 S
C38 C41 1.403 . S
C39 C36 1.403 1_545 S
C39 C40 1.524 . S
C39 C43 1.400 . S
C40 H25 0.960 . S
C40 H26 0.960 . S
C40 H27 0.960 . S
C40 C39 1.524 . S
C41 C38 1.403 . S
C41 C42 1.392 . S
C41 C45 1.495 . S
C42 C41 1.392 . S
C42 C43 1.385 1_465 S
C42 C44 1.478 . S
C43 H37 0.930 . S
C43 C39 1.400 . S
C43 C42 1.385 1_645 S
C44 C42 1.478 . S
C44 C46 1.381 1_455 S
C44 C50 1.383 1_565 S
C45 C41 1.495 . S
C45 H51 0.959 . S
C45 H52 0.961 . S
C45 H53 0.960 1_455 S
C46 C44 1.381 1_655 S
C46 C47 1.394 . S
C46 H54 0.930 . S
C47 C46 1.394 . S
C47 C48 1.383 1_655 S
C47 H55 0.929 . S
C48 C47 1.383 1_455 S
C48 C49 1.377 1_565 S
C49 H33 0.930 . S
C49 C48 1.377 1_545 S
C49 C50 1.379 . S
C50 H34 0.931 . S
C50 C44 1.383 1_545 S
C50 C49 1.379 . S
H51 C45 0.959 . S
H52 C45 0.961 . S
H53 C45 0.960 1_655 S
H54 C46 0.930 . S
H55 C47 0.929 . S
H56 C64 0.929 . S
H57 C66 0.930 . S
H58 C68 0.930 . S
H59 C71 0.929 . S
H60 C74 0.930 . S
H61 C76 0.960 . S
H62 C76 0.960 . S
H63 C76 0.960 . S
C64 H56 0.929 . S
C64 C65 1.387 . S
C64 C66 1.384 . S
C65 C64 1.387 . S
C65 C71 1.380 1_544 S
C66 H57 0.930 . S
C66 C64 1.384 . S
C66 C67 1.372 . S
C67 C66 1.372 . S
C67 C68 1.400 1_544 S
C67 C72 1.490 . S
C68 H58 0.930 . S
C68 C67 1.400 1_566 S
C68 C71 1.386 . S
H69 C85 0.930 . S
H70 C86 0.931 . S
C71 H59 0.929 . S
C71 C65 1.380 1_566 S
C71 C68 1.386 . S
C72 C67 1.490 . S
C72 C74 1.395 1_545 S
C72 C75 1.403 1_554 S
H73 C79 0.930 . S
C74 H60 0.930 . S
C74 C72 1.395 1_565 S
C74 C77 1.403 . S
C75 C72 1.403 1_556 S
C75 C76 1.524 . S
C75 C79 1.400 . S
C76 H61 0.960 . S
C76 H62 0.960 . S
C76 H63 0.960 . S
C76 C75 1.524 . S
C77 C74 1.403 . S
C77 C78 1.392 . S
C77 C81 1.495 . S
C78 C77 1.392 . S
C78 C79 1.385 1_564 S
C78 C80 1.478 . S
C79 H73 0.930 . S
C79 C75 1.400 . S
C79 C78 1.385 1_546 S
C80 C78 1.478 . S
C80 C82 1.381 1_565 S
C80 C86 1.383 1_554 S
C81 C77 1.495 . S
C81 H87 0.959 . S
C81 H88 0.961 . S
C81 H89 0.960 . S
C82 C80 1.381 1_545 S
C82 C83 1.394 . S
C82 H90 0.930 . S
C83 C82 1.394 . S
C83 C84 1.383 1_545 S
C83 H91 0.929 . S
C84 C83 1.383 1_565 S
C84 C85 1.377 1_554 S
C85 H69 0.930 . S
C85 C84 1.377 1_556 S
C85 C86 1.379 . S
C86 H70 0.931 . S
C86 C80 1.383 1_556 S
C86 C85 1.379 . S
H87 C81 0.959 . S
H88 C81 0.961 . S
H89 C81 0.960 . S
H90 C82 0.930 . S
H91 C83 0.929 . S
H92 C100 0.929 . S
H93 C102 0.930 . S
H94 C104 0.930 . S
H95 C107 0.929 . S
H96 C110 0.930 . S
H97 C112 0.960 . S
H98 C112 0.960 . S
H99 C112 0.960 . S
C100 H92 0.929 . S
C100 C101 1.391 1_554 S
C100 C102 1.384 . S
C101 C100 1.391 1_556 S
C101 C107 1.381 1_455 S
C102 H93 0.930 . S
C102 C100 1.384 . S
C102 C103 1.372 1_554 S
C103 C102 1.372 1_556 S
C103 C104 1.400 1_455 S
C103 C108 1.489 1_556 S
C104 H94 0.930 . S
C104 C103 1.400 1_655 S
C104 C107 1.386 . S
H105 C121 0.930 . S
H106 C122 0.931 . S
C107 H95 0.929 . S
C107 C101 1.381 1_655 S
C107 C104 1.386 . S
C108 C103 1.489 1_554 S
C108 C110 1.395 . S
C108 C111 1.403 1_454 S
H109 C115 0.930 . S
C110 H96 0.930 . S
C110 C108 1.395 . S
C110 C113 1.403 . S
C111 C108 1.403 1_656 S
C111 C112 1.524 . S
C111 C115 1.400 . S
C112 H97 0.960 . S
C112 H98 0.960 . S
C112 H99 0.960 . S
C112 C111 1.524 . S
C113 C110 1.403 . S
C113 C114 1.392 . S
C113 C117 1.495 . S
C114 C113 1.392 . S
C114 C115 1.385 1_454 S
C114 C116 1.478 . S
C115 H109 0.930 . S
C115 C111 1.400 . S
C115 C114 1.385 1_656 S
C116 C114 1.478 . S
C116 C118 1.381 . S
C116 C122 1.383 1_455 S
C117 C113 1.495 . S
C117 H123 0.959 . S
C117 H124 0.961 . S
C117 H125 0.960 . S
C118 C116 1.381 . S
C118 C119 1.394 . S
C118 H126 0.930 . S
C119 C118 1.394 . S
C119 C120 1.383 . S
C119 H127 0.929 . S
C120 C119 1.383 . S
C120 C121 1.377 1_455 S
C121 H105 0.930 . S
C121 C120 1.377 1_655 S
C121 C122 1.379 . S
C122 H106 0.931 . S
C122 C116 1.383 1_655 S
C122 C121 1.379 . S
H123 C117 0.959 . S
H124 C117 0.961 . S
H125 C117 0.960 . S
H126 C118 0.930 . S
H127 C119 0.929 . S
C29 C18 1.480 . S
C48 C19 1.467 1_565 S
C65 C2 1.421 1_544 S
C84 C4 1.435 1_565 S
C101 C9 1.454 1_556 S
C120 C12 1.471 1_454 S
