# Generated by pormake.
# Topology msp, (4)-cn, num edge types: 1
# Building blocks:
#     Node 0, Type 0, BuildingBlock: GALJAG_clean_sbu_0, # of connection points: 4
#     Node 1, Type 0, BuildingBlock: GALJAG_clean_sbu_0, # of connection points: 4
#     Node 2, Type 0, BuildingBlock: GALJAG_clean_sbu_0, # of connection points: 4
#     Node 3, Type 0, BuildingBlock: GALJAG_clean_sbu_0, # of connection points: 4
#     Node 4, Type 0, BuildingBlock: GALJAG_clean_sbu_0, # of connection points: 4
#     Node 5, Type 0, BuildingBlock: GALJAG_clean_sbu_0, # of connection points: 4
#     Node 6, Type 0, BuildingBlock: GALJAG_clean_sbu_0, # of connection points: 4
#     Node 7, Type 0, BuildingBlock: GALJAG_clean_sbu_0, # of connection points: 4
#     Edge 8, Type (0, 0), BuildingBlock: EYOCIG_clean_linker_4, # of connection points: 2
#     Edge 9, Type (0, 0), BuildingBlock: EYOCIG_clean_linker_4, # of connection points: 2
#     Edge 10, Type (0, 0), BuildingBlock: EYOCIG_clean_linker_4, # of connection points: 2
#     Edge 11, Type (0, 0), BuildingBlock: EYOCIG_clean_linker_4, # of connection points: 2
#     Edge 12, Type (0, 0), BuildingBlock: EYOCIG_clean_linker_4, # of connection points: 2
#     Edge 13, Type (0, 0), BuildingBlock: EYOCIG_clean_linker_4, # of connection points: 2
#     Edge 14, Type (0, 0), BuildingBlock: EYOCIG_clean_linker_4, # of connection points: 2
#     Edge 15, Type (0, 0), BuildingBlock: EYOCIG_clean_linker_4, # of connection points: 2
#     Edge 16, Type (0, 0), BuildingBlock: EYOCIG_clean_linker_4, # of connection points: 2
#     Edge 17, Type (0, 0), BuildingBlock: EYOCIG_clean_linker_4, # of connection points: 2
#     Edge 18, Type (0, 0), BuildingBlock: EYOCIG_clean_linker_4, # of connection points: 2
#     Edge 19, Type (0, 0), BuildingBlock: EYOCIG_clean_linker_4, # of connection points: 2
#     Edge 20, Type (0, 0), BuildingBlock: EYOCIG_clean_linker_4, # of connection points: 2
#     Edge 21, Type (0, 0), BuildingBlock: EYOCIG_clean_linker_4, # of connection points: 2
#     Edge 22, Type (0, 0), BuildingBlock: EYOCIG_clean_linker_4, # of connection points: 2
#     Edge 23, Type (0, 0), BuildingBlock: EYOCIG_clean_linker_4, # of connection points: 2
# Relax obj value: 0.108
# Max RMSD: 0.183
# Mean RMSD: 0.183
data_MOF--net-msp--node1-GALJAG_clean_sbu_0--edge1-EYOCIG_clean_linker_4
_symmetry_space_group_name_H-M    P1
_symmetry_Int_Tables_number       1
_symmetry_cell_setting            triclinic
loop_
_symmetry_equiv_pos_as_xyz
'x, y, z'
_cell_length_a     17.741633
_cell_length_b     17.126908
_cell_length_c     33.883477
_cell_angle_alpha  89.993146
_cell_angle_beta   98.257111
_cell_angle_gamma 89.99983
loop_
_atom_site_label
_atom_site_type_symbol
_atom_site_fract_x
_atom_site_fract_y
_atom_site_fract_z
_atom_type_partial_charge
In0 In 0.01456 0.26232 0.37603 0.0
O1 O 0.91248 0.18545 0.35007 0.0
O2 O 0.91927 0.30304 0.32966 0.0
C3 C 0.1019 0.18649 0.43315 0.0
C4 C 0.11071 0.25174 0.32213 0.0
C5 C -0.01109 0.37407 0.42828 0.0
O6 O 0.03617 0.16062 0.41978 0.0
O7 O 0.12262 0.24777 0.41724 0.0
O8 O 0.02748 0.38697 0.40034 0.0
O9 O 0.95856 0.3074 0.42802 0.0
C10 C 0.88397 0.23908 0.32684 0.0
O11 O 0.08926 0.3168 0.33421 0.0
O12 O 0.08351 0.19211 0.3368 0.0
In13 In 0.45367 0.26182 0.63661 0.0
O14 O 0.55545 0.1845 0.66233 0.0
O15 O 0.54868 0.30168 0.68334 0.0
C16 C 0.36711 0.18656 0.57897 0.0
C17 C 0.3567 0.25137 0.69015 0.0
C18 C 0.48205 0.37348 0.58487 0.0
O19 O 0.43236 0.16024 0.59287 0.0
O20 O 0.34625 0.24801 0.59469 0.0
O21 O 0.44259 0.38669 0.61241 0.0
O22 O 0.51147 0.30638 0.58517 0.0
C23 C 0.58404 0.23776 0.68575 0.0
O24 O 0.3783 0.3164 0.67811 0.0
O25 O 0.38419 0.19172 0.67565 0.0
In26 In 0.95293 0.72592 0.63612 0.0
O27 O 0.87727 0.67079 0.67744 0.0
O28 O 0.8834 0.79543 0.67539 0.0
C29 C 0.98169 0.61412 0.58441 0.0
C30 C 0.08407 0.74944 0.6851 0.0
C31 C 0.86443 0.80297 0.57953 0.0
O32 O 0.94236 0.60088 0.612 0.0
O33 O 0.01051 0.68149 0.5845 0.0
O34 O 0.92952 0.82957 0.59354 0.0
O35 O 0.84528 0.73962 0.59411 0.0
C36 C 0.85548 0.73569 0.68955 0.0
O37 O 0.05583 0.80251 0.66145 0.0
O38 O 0.04781 0.68607 0.68313 0.0
In39 In 0.51515 0.72552 0.37665 0.0
O40 O 0.41246 0.80235 0.35094 0.0
O41 O 0.41917 0.68515 0.33027 0.0
C42 C 0.60023 0.80381 0.43415 0.0
C43 C 0.61323 0.73295 0.32346 0.0
C44 C 0.48937 0.61357 0.42883 0.0
O45 O 0.53505 0.82911 0.41947 0.0
O46 O 0.62187 0.74183 0.41926 0.0
O47 O 0.52818 0.60084 0.40099 0.0
O48 O 0.45908 0.68023 0.42859 0.0
C49 C 0.38339 0.7488 0.32787 0.0
O50 O 0.58998 0.66863 0.33546 0.0
O51 O 0.5865 0.79335 0.33762 0.0
In52 In 0.51533 0.76241 0.87656 0.0
O53 O 0.5903 0.81942 0.83557 0.0
O54 O 0.58427 0.69468 0.83636 0.0
C55 C 0.48646 0.87384 0.92823 0.0
C56 C 0.38451 0.74089 0.82706 0.0
C57 C 0.60329 0.68403 0.9331 0.0
O58 O 0.52653 0.8869 0.90096 0.0
O59 O 0.45711 0.80669 0.92794 0.0
O60 O 0.53809 0.65802 0.91886 0.0
O61 O 0.62296 0.74733 0.91867 0.0
C62 C 0.61163 0.75514 0.82256 0.0
O63 O 0.41235 0.68681 0.85019 0.0
O64 O 0.42083 0.80421 0.82993 0.0
In65 In 0.95227 0.76175 0.13612 0.0
O66 O 0.0546 0.68592 0.16306 0.0
O67 O 0.04704 0.80394 0.18255 0.0
C68 C 0.86635 0.68289 0.07903 0.0
C69 C 0.8562 0.75442 0.1902 0.0
C70 C 0.98073 0.87217 0.08383 0.0
O71 O 0.93149 0.65748 0.09374 0.0
O72 O 0.84522 0.74544 0.09362 0.0
O73 O 0.94013 0.8856 0.11084 0.0
O74 O 0.01102 0.80541 0.08483 0.0
C75 C 0.08276 0.74026 0.18591 0.0
O76 O 0.87766 0.81883 0.17738 0.0
O77 O 0.88295 0.69407 0.176 0.0
In78 In 0.45255 0.22548 0.13613 0.0
O79 O 0.37793 0.16856 0.17728 0.0
O80 O 0.38286 0.29333 0.17593 0.0
C81 C 0.4786 0.11459 0.08366 0.0
C82 C 0.5845 0.24746 0.18462 0.0
C83 C 0.36394 0.30336 0.07995 0.0
O84 O 0.44022 0.10117 0.11159 0.0
O85 O 0.50831 0.18156 0.08387 0.0
O86 O 0.42913 0.3298 0.09392 0.0
O87 O 0.34469 0.24006 0.09451 0.0
C88 C 0.35557 0.23286 0.18976 0.0
O89 O 0.55608 0.30123 0.16148 0.0
O90 O 0.54796 0.18427 0.18243 0.0
In91 In 0.01553 0.22486 0.87651 0.0
O92 O 0.09087 0.16843 0.83561 0.0
O93 O 0.0852 0.29316 0.83679 0.0
C94 C -0.01049 0.11264 0.92831 0.0
C95 C 0.88396 0.24612 0.82763 0.0
C96 C 0.10023 0.30306 0.93415 0.0
O97 O 0.02875 0.10025 0.90063 0.0
O98 O 0.95911 0.17925 0.92818 0.0
O99 O 0.03494 0.32818 0.91952 0.0
O100 O 0.12221 0.24142 0.91908 0.0
C101 C 0.11266 0.23279 0.82295 0.0
O102 O 0.91218 0.30027 0.85056 0.0
O103 O 0.92043 0.18289 0.83027 0.0
C104 C -0.0126 0.46945 0.48974 0.0
C105 C -0.01122 0.42677 0.46142 0.0
C106 C -0.01281 0.51768 0.52373 0.0
C107 C -0.01594 0.5609 0.55167 0.0
C108 C 0.4873 0.51783 0.49006 0.0
C109 C 0.48891 0.56071 0.46185 0.0
C110 C 0.48705 0.46951 0.524 0.0
C111 C 0.48416 0.42644 0.55201 0.0
C112 C 0.48051 0.01922 0.02238 0.0
C113 C 0.47908 0.06205 0.05057 0.0
C114 C 0.48064 0.97064 0.98859 0.0
C115 C 0.4838 0.92706 0.96085 0.0
C116 C -0.0138 0.96746 0.02281 0.0
C117 C 0.98326 0.92449 0.05081 0.0
C118 C -0.01339 0.01604 0.98902 0.0
C119 C -0.01143 0.05937 0.96107 0.0
C120 C 0.70561 0.24936 0.23921 0.0
C121 C 0.65191 0.25618 0.21324 0.0
C122 C 0.76528 0.23547 0.27081 0.0
C123 C 0.818 0.22934 0.29738 0.0
C124 C 0.70358 0.23368 0.7412 0.0
C125 C 0.65048 0.22774 0.71485 0.0
C126 C 0.76337 0.24753 0.77272 0.0
C127 C 0.81687 0.25446 0.79878 0.0
C128 C 0.20485 0.7529 0.73995 0.0
C129 C 0.15126 0.75899 0.71383 0.0
C130 C 0.26482 0.73919 0.77146 0.0
C131 C 0.31794 0.73245 0.7978 0.0
C132 C 0.26208 0.75193 0.27329 0.0
C133 C 0.31599 0.75817 0.29923 0.0
C134 C 0.20197 0.73825 0.24184 0.0
C135 C 0.14897 0.73169 0.21541 0.0
C136 C 0.25776 0.23957 0.24139 0.0
C137 C 0.30243 0.23694 0.21781 0.0
C138 C 0.20629 0.24237 0.26944 0.0
C139 C 0.16262 0.24594 0.29351 0.0
C140 C 0.26055 0.24207 0.74255 0.0
C141 C 0.30448 0.2456 0.71861 0.0
C142 C 0.20927 0.23944 0.7707 0.0
C143 C 0.16513 0.23697 0.79456 0.0
C144 C 0.70688 0.74817 0.76958 0.0
C145 C 0.66337 0.75102 0.79377 0.0
C146 C 0.75809 0.74503 0.74138 0.0
C147 C 0.80258 0.74128 0.71771 0.0
C148 C 0.76207 0.74627 0.24366 0.0
C149 C 0.80505 0.74993 0.21925 0.0
C150 C 0.71107 0.74175 0.27189 0.0
C151 C 0.66641 0.73739 0.29543 0.0
C152 C 0.2674 0.13808 0.52039 0.0
C153 C 0.31882 0.15222 0.54643 0.0
C154 C 0.2031 0.13789 0.49099 0.0
C155 C 0.15095 0.15194 0.46534 0.0
C156 C 0.76166 0.85489 0.52305 0.0
C157 C 0.8142 0.83944 0.54831 0.0
C158 C 0.69781 0.8548 0.49326 0.0
C159 C 0.64731 0.83955 0.46683 0.0
C160 C 0.76826 0.63116 0.02021 0.0
C161 C 0.81887 0.6467 0.04657 0.0
C162 C 0.70478 0.63131 0.99013 0.0
C163 C 0.65282 0.64723 0.96457 0.0
C164 C 0.2612 0.35448 0.02332 0.0
C165 C 0.31383 0.33961 0.04862 0.0
C166 C 0.19737 0.35386 0.99351 0.0
C167 C 0.14705 0.3386 0.96699 0.0
loop_
_geom_bond_atom_site_label_1
_geom_bond_atom_site_label_2
_geom_bond_distance
_geom_bond_site_symmetry_2
_ccdc_geom_bond_type
In0 O1 2.294 1_455 S
In0 O2 2.326 1_455 S
In0 O6 2.266 . S
In0 O7 2.326 . S
In0 O8 2.266 . S
In0 O9 2.326 1_455 S
In0 O11 2.294 . S
In0 O12 2.326 . S
O1 In0 2.294 1_655 S
O1 C10 1.240 . S
O2 In0 2.326 1_655 S
O2 C10 1.252 . S
C3 O6 1.252 . S
C3 O7 1.260 . S
C4 O11 1.240 . S
C4 O12 1.252 . S
C5 O8 1.252 . S
C5 O9 1.260 1_455 S
O6 In0 2.266 . S
O6 C3 1.252 . S
O7 In0 2.326 . S
O7 C3 1.260 . S
O8 In0 2.266 . S
O8 C5 1.252 . S
O9 In0 2.326 1_655 S
O9 C5 1.260 1_655 S
C10 O1 1.240 . S
C10 O2 1.252 . S
O11 In0 2.294 . S
O11 C4 1.240 . S
O12 In0 2.326 . S
O12 C4 1.252 . S
In13 O14 2.294 . S
In13 O15 2.326 . S
In13 O19 2.266 . S
In13 O20 2.326 . S
In13 O21 2.266 . S
In13 O22 2.326 . S
In13 O24 2.294 . S
In13 O25 2.326 . S
O14 In13 2.294 . S
O14 C23 1.240 . S
O15 In13 2.326 . S
O15 C23 1.252 . S
C16 O19 1.252 . S
C16 O20 1.260 . S
C17 O24 1.240 . S
C17 O25 1.252 . S
C18 O21 1.252 . S
C18 O22 1.260 . S
O19 In13 2.266 . S
O19 C16 1.252 . S
O20 In13 2.326 . S
O20 C16 1.260 . S
O21 In13 2.266 . S
O21 C18 1.252 . S
O22 In13 2.326 . S
O22 C18 1.260 . S
C23 O14 1.240 . S
C23 O15 1.252 . S
O24 In13 2.294 . S
O24 C17 1.240 . S
O25 In13 2.326 . S
O25 C17 1.252 . S
In26 O27 2.294 . S
In26 O28 2.326 . S
In26 O32 2.266 . S
In26 O33 2.326 1_655 S
In26 O34 2.266 . S
In26 O35 2.326 . S
In26 O37 2.294 1_655 S
In26 O38 2.326 1_655 S
O27 In26 2.294 . S
O27 C36 1.240 . S
O28 In26 2.326 . S
O28 C36 1.252 . S
C29 O32 1.252 . S
C29 O33 1.260 1_655 S
C30 O37 1.240 . S
C30 O38 1.252 . S
C31 O34 1.252 . S
C31 O35 1.260 . S
O32 In26 2.266 . S
O32 C29 1.252 . S
O33 In26 2.326 1_455 S
O33 C29 1.260 1_455 S
O34 In26 2.266 . S
O34 C31 1.252 . S
O35 In26 2.326 . S
O35 C31 1.260 . S
C36 O27 1.240 . S
C36 O28 1.252 . S
O37 In26 2.294 1_455 S
O37 C30 1.240 . S
O38 In26 2.326 1_455 S
O38 C30 1.252 . S
In39 O40 2.294 . S
In39 O41 2.326 . S
In39 O45 2.266 . S
In39 O46 2.326 . S
In39 O47 2.266 . S
In39 O48 2.326 . S
In39 O50 2.294 . S
In39 O51 2.326 . S
O40 In39 2.294 . S
O40 C49 1.240 . S
O41 In39 2.326 . S
O41 C49 1.252 . S
C42 O45 1.252 . S
C42 O46 1.260 . S
C43 O50 1.240 . S
C43 O51 1.252 . S
C44 O47 1.252 . S
C44 O48 1.260 . S
O45 In39 2.266 . S
O45 C42 1.252 . S
O46 In39 2.326 . S
O46 C42 1.260 . S
O47 In39 2.266 . S
O47 C44 1.252 . S
O48 In39 2.326 . S
O48 C44 1.260 . S
C49 O40 1.240 . S
C49 O41 1.252 . S
O50 In39 2.294 . S
O50 C43 1.240 . S
O51 In39 2.326 . S
O51 C43 1.252 . S
In52 O53 2.294 . S
In52 O54 2.326 . S
In52 O58 2.266 . S
In52 O59 2.326 . S
In52 O60 2.266 . S
In52 O61 2.326 . S
In52 O63 2.294 . S
In52 O64 2.326 . S
O53 In52 2.294 . S
O53 C62 1.240 . S
O54 In52 2.326 . S
O54 C62 1.252 . S
C55 O58 1.252 . S
C55 O59 1.260 . S
C56 O63 1.240 . S
C56 O64 1.252 . S
C57 O60 1.252 . S
C57 O61 1.260 . S
O58 In52 2.266 . S
O58 C55 1.252 . S
O59 In52 2.326 . S
O59 C55 1.260 . S
O60 In52 2.266 . S
O60 C57 1.252 . S
O61 In52 2.326 . S
O61 C57 1.260 . S
C62 O53 1.240 . S
C62 O54 1.252 . S
O63 In52 2.294 . S
O63 C56 1.240 . S
O64 In52 2.326 . S
O64 C56 1.252 . S
In65 O66 2.294 1_655 S
In65 O67 2.326 1_655 S
In65 O71 2.266 . S
In65 O72 2.326 . S
In65 O73 2.266 . S
In65 O74 2.326 1_655 S
In65 O76 2.294 . S
In65 O77 2.326 . S
O66 In65 2.294 1_455 S
O66 C75 1.240 . S
O67 In65 2.326 1_455 S
O67 C75 1.252 . S
C68 O71 1.252 . S
C68 O72 1.260 . S
C69 O76 1.240 . S
C69 O77 1.252 . S
C70 O73 1.252 . S
C70 O74 1.260 1_655 S
O71 In65 2.266 . S
O71 C68 1.252 . S
O72 In65 2.326 . S
O72 C68 1.260 . S
O73 In65 2.266 . S
O73 C70 1.252 . S
O74 In65 2.326 1_455 S
O74 C70 1.260 1_455 S
C75 O66 1.240 . S
C75 O67 1.252 . S
O76 In65 2.294 . S
O76 C69 1.240 . S
O77 In65 2.326 . S
O77 C69 1.252 . S
In78 O79 2.294 . S
In78 O80 2.326 . S
In78 O84 2.266 . S
In78 O85 2.326 . S
In78 O86 2.266 . S
In78 O87 2.326 . S
In78 O89 2.294 . S
In78 O90 2.326 . S
O79 In78 2.294 . S
O79 C88 1.240 . S
O80 In78 2.326 . S
O80 C88 1.252 . S
C81 O84 1.252 . S
C81 O85 1.260 . S
C82 O89 1.240 . S
C82 O90 1.252 . S
C83 O86 1.252 . S
C83 O87 1.260 . S
O84 In78 2.266 . S
O84 C81 1.252 . S
O85 In78 2.326 . S
O85 C81 1.260 . S
O86 In78 2.266 . S
O86 C83 1.252 . S
O87 In78 2.326 . S
O87 C83 1.260 . S
C88 O79 1.240 . S
C88 O80 1.252 . S
O89 In78 2.294 . S
O89 C82 1.240 . S
O90 In78 2.326 . S
O90 C82 1.252 . S
In91 O92 2.294 . S
In91 O93 2.326 . S
In91 O97 2.266 . S
In91 O98 2.326 1_455 S
In91 O99 2.266 . S
In91 O100 2.326 . S
In91 O102 2.294 1_455 S
In91 O103 2.326 1_455 S
O92 In91 2.294 . S
O92 C101 1.240 . S
O93 In91 2.326 . S
O93 C101 1.252 . S
C94 O97 1.252 . S
C94 O98 1.260 1_455 S
C95 O102 1.240 . S
C95 O103 1.252 . S
C96 O99 1.252 . S
C96 O100 1.260 . S
O97 In91 2.266 . S
O97 C94 1.252 . S
O98 In91 2.326 1_655 S
O98 C94 1.260 1_655 S
O99 In91 2.266 . S
O99 C96 1.252 . S
O100 In91 2.326 . S
O100 C96 1.260 . S
C101 O92 1.240 . S
C101 O93 1.252 . S
O102 In91 2.294 1_655 S
O102 C95 1.240 . S
O103 In91 2.326 1_655 S
O103 C95 1.252 . S
C104 C105 1.170 . S
C104 C106 1.380 . S
C105 C104 1.170 . S
C106 C104 1.380 . S
C106 C107 1.170 . S
C107 C106 1.170 . S
C108 C109 1.170 . S
C108 C110 1.380 . S
C109 C108 1.170 . S
C110 C108 1.380 . S
C110 C111 1.170 . S
C111 C110 1.170 . S
C112 C113 1.170 . S
C112 C114 1.380 1_544 S
C113 C112 1.170 . S
C114 C112 1.380 1_566 S
C114 C115 1.170 . S
C115 C114 1.170 . S
C116 C117 1.170 . S
C116 C118 1.380 1_564 S
C117 C116 1.170 . S
C118 C116 1.380 1_546 S
C118 C119 1.170 . S
C119 C118 1.170 . S
C120 C121 1.170 . S
C120 C122 1.380 . S
C121 C120 1.170 . S
C122 C120 1.380 . S
C122 C123 1.170 . S
C123 C122 1.170 . S
C124 C125 1.170 . S
C124 C126 1.380 . S
C125 C124 1.170 . S
C126 C124 1.380 . S
C126 C127 1.170 . S
C127 C126 1.170 . S
C128 C129 1.170 . S
C128 C130 1.380 . S
C129 C128 1.170 . S
C130 C128 1.380 . S
C130 C131 1.170 . S
C131 C130 1.170 . S
C132 C133 1.170 . S
C132 C134 1.380 . S
C133 C132 1.170 . S
C134 C132 1.380 . S
C134 C135 1.170 . S
C135 C134 1.170 . S
C136 C137 1.170 . S
C136 C138 1.380 . S
C137 C136 1.170 . S
C138 C136 1.380 . S
C138 C139 1.170 . S
C139 C138 1.170 . S
C140 C141 1.170 . S
C140 C142 1.380 . S
C141 C140 1.170 . S
C142 C140 1.380 . S
C142 C143 1.170 . S
C143 C142 1.170 . S
C144 C145 1.170 . S
C144 C146 1.380 . S
C145 C144 1.170 . S
C146 C144 1.380 . S
C146 C147 1.170 . S
C147 C146 1.170 . S
C148 C149 1.170 . S
C148 C150 1.380 . S
C149 C148 1.170 . S
C150 C148 1.380 . S
C150 C151 1.170 . S
C151 C150 1.170 . S
C152 C153 1.170 . S
C152 C154 1.380 . S
C153 C152 1.170 . S
C154 C152 1.380 . S
C154 C155 1.170 . S
C155 C154 1.170 . S
C156 C157 1.170 . S
C156 C158 1.380 . S
C157 C156 1.170 . S
C158 C156 1.380 . S
C158 C159 1.170 . S
C159 C158 1.170 . S
C160 C161 1.170 . S
C160 C162 1.380 1_554 S
C161 C160 1.170 . S
C162 C160 1.380 1_556 S
C162 C163 1.170 . S
C163 C162 1.170 . S
C164 C165 1.170 . S
C164 C166 1.380 1_554 S
C165 C164 1.170 . S
C166 C164 1.380 1_556 S
C166 C167 1.170 . S
C167 C166 1.170 . S
C105 C5 1.549 . S
C107 C29 1.567 1_455 S
C109 C44 1.544 . S
C111 C18 1.562 . S
C113 C81 1.543 . S
C115 C55 1.566 . S
C117 C70 1.552 1_455 S
C119 C94 1.551 . S
C121 C82 1.752 . S
C123 C10 1.750 . S
C125 C23 1.762 . S
C127 C95 1.735 . S
C129 C30 1.763 . S
C131 C56 1.730 . S
C133 C49 1.762 . S
C135 C75 1.736 . S
C137 C88 1.561 . S
C139 C4 1.570 . S
C141 C17 1.569 . S
C143 C101 1.563 . S
C145 C62 1.564 . S
C147 C36 1.562 . S
C149 C69 1.569 . S
C151 C43 1.559 . S
C153 C16 0.783 . S
C155 C3 0.766 . S
C157 C31 0.808 . S
C159 C42 0.816 . S
C161 C68 0.832 . S
C163 C57 0.802 . S
C165 C83 0.797 . S
C167 C96 0.806 . S
