# Generated by pormake.
# Topology pcu, (6)-cn, num edge types: 1
# Building blocks:
#     Node 0, Type 0, BuildingBlock: NUHQIS_clean_sbu_0, # of connection points: 6
#     Edge 1, Type (0, 0), BuildingBlock: XIVTED_clean_linker_0, # of connection points: 2
#     Edge 2, Type (0, 0), BuildingBlock: XIVTED_clean_linker_0, # of connection points: 2
#     Edge 3, Type (0, 0), BuildingBlock: XIVTED_clean_linker_0, # of connection points: 2
# Relax obj value: 0.000
# Max RMSD: 0.000
# Mean RMSD: 0.000
data_MOF--net-pcu--node1-NUHQIS_clean_sbu_0--edge1-XIVTED_clean_linker_0
_symmetry_space_group_name_H-M    P1
_symmetry_Int_Tables_number       1
_symmetry_cell_setting            triclinic
loop_
_symmetry_equiv_pos_as_xyz
'x, y, z'
_cell_length_a     25.410405
_cell_length_b     15.477935
_cell_length_c     15.349371
_cell_angle_alpha  90.265479
_cell_angle_beta   97.568605
_cell_angle_gamma 122.29298
loop_
_atom_site_label
_atom_site_type_symbol
_atom_site_fract_x
_atom_site_fract_y
_atom_site_fract_z
_atom_type_partial_charge
Tb0 Tb 0.94756 0.90864 0.9732 0.0
Eu1 Eu 0.10494 0.04475 0.00839 0.0
C2 C 1.02538 0.96989 0.81649 0.0
C3 C 1.0216 0.79677 -0.01398 0.0
C4 C 0.78265 0.84549 0.95037 0.0
C5 C 0.67609 0.80685 0.90882 0.0
C6 C 0.72064 0.78019 0.90701 0.0
C7 C 0.79992 0.9388 -0.00559 0.0
C8 C 0.75545 0.96552 -0.00364 0.0
C9 C 0.69277 0.89943 0.95426 0.0
C10 C 0.8283 0.81428 0.95148 0.0
O11 O 0.98001 0.90263 0.11019 0.0
O12 O 0.07247 0.05923 0.13341 0.0
O13 O 0.07653 0.15684 0.97416 0.0
O14 O 0.97511 0.06572 0.00583 0.0
C15 C 1.02511 -0.01853 0.1635 0.0
O16 O 0.19262 0.09255 0.09581 0.0
O17 O 0.19584 0.14807 0.96609 0.0
O18 O 0.07292 0.9763 0.86815 0.0
O19 O 0.9789 0.96645 0.84858 0.0
O20 O 0.97113 0.79517 0.94957 0.0
O21 O 0.07293 0.88072 0.02516 0.0
C22 C 1.02493 0.15134 -0.01166 0.0
O23 O 0.86089 0.84042 0.88695 0.0
O24 O 0.86371 0.83092 0.02689 0.0
C25 C 0.27545 0.11884 0.02371 0.0
C26 C 0.36665 0.07118 0.00616 0.0
C27 C 0.38387 0.16385 0.05197 0.0
C28 C 0.33866 0.18734 0.06062 0.0
C29 C 0.25784 0.02658 0.97735 0.0
C30 C 0.30309 0.00305 0.96841 0.0
C31 C 0.22809 0.14263 0.03705 0.0
H32 H 0.62817 0.75367 0.87648 0.0
H33 H 0.70641 0.70779 0.87281 0.0
H34 H 0.84761 -0.00957 0.02826 0.0
H35 H 0.77023 0.03805 0.03082 0.0
H36 H 0.43244 0.21864 0.08082 0.0
H37 H 0.35302 0.2588 0.09679 0.0
H38 H 0.20902 0.97232 0.94902 0.0
H39 H 0.28806 0.93056 0.93362 0.0
H40 H 0.92375 0.86596 0.24764 0.0
H41 H 0.12537 0.03061 0.72946 0.0
H42 H 0.12369 0.09347 0.29762 0.0
H43 H 0.92601 0.91203 0.68445 0.0
H44 H 0.12515 0.03449 0.57015 0.0
H45 H 0.92317 0.86292 0.40708 0.0
C46 C 0.96752 0.91514 0.29215 0.0
C47 C 1.02388 -0.01991 0.25943 0.0
C48 C 0.08152 0.0078 0.59527 0.0
C49 C 1.02356 0.97613 0.44141 0.0
C50 C 0.08149 0.00501 0.68609 0.0
C51 C 1.02559 0.97101 0.72027 0.0
C52 C 1.02508 0.97478 0.5381 0.0
C53 C 0.9702 0.93922 0.66092 0.0
C54 C 0.96707 0.91363 0.38298 0.0
C55 C 0.07915 0.0426 0.32003 0.0
N56 N 0.97125 0.9413 0.5726 0.0
N57 N 0.07771 0.03851 0.40817 0.0
H58 H 0.46277 0.1015 0.13368 0.0
H59 H 0.59808 0.87141 0.82422 0.0
H60 H 0.38021 -0.01832 0.8626 0.0
H61 H 0.67742 -0.01311 0.09685 0.0
H62 H 0.51826 0.9117 0.83622 0.0
H63 H 0.5423 0.06141 0.12046 0.0
C64 C 0.46155 0.06732 0.07112 0.0
C65 C 0.41477 0.04546 -0.00099 0.0
C66 C 0.55317 0.9283 0.89339 0.0
C67 C 0.50569 -0.00177 0.98362 0.0
C68 C 0.59863 0.90488 0.88671 0.0
C69 C 0.64469 0.9257 0.95963 0.0
C70 C 0.55351 0.97278 0.97364 0.0
C71 C 0.6435 0.97067 0.0385 0.0
C72 C 0.50685 0.04389 0.06377 0.0
C73 C 0.41496 -0.00087 0.92018 0.0
N74 N 0.59869 -0.00753 0.04339 0.0
N75 N 0.45975 0.97732 0.91455 0.0
H76 H 0.12346 0.77879 0.01579 0.0
H77 H 0.92196 0.16675 0.98325 0.0
H78 H 0.92046 0.59755 0.94881 0.0
H79 H 0.1233 0.34996 -0.01345 0.0
H80 H 0.92003 0.32288 0.97932 0.0
H81 H 0.1238 0.62177 0.01381 0.0
C82 C 0.07883 0.70589 0.00078 0.0
C83 C 1.02174 0.70136 0.98282 0.0
C84 C 0.96457 0.32877 0.98071 0.0
C85 C 1.02193 0.52079 0.98064 0.0
C86 C 0.96581 0.23972 0.98343 0.0
C87 C 1.02297 0.24517 -0.01432 0.0
C88 C 1.02096 0.42415 0.98107 0.0
C89 C 0.07816 0.34191 0.98488 0.0
C90 C 0.07915 0.61618 -0.00068 0.0
C91 C 0.96554 0.60462 0.96297 0.0
N92 N 0.0758 0.42753 0.98308 0.0
N93 N 0.967 0.51799 0.96294 0.0
loop_
_geom_bond_atom_site_label_1
_geom_bond_atom_site_label_2
_geom_bond_distance
_geom_bond_site_symmetry_2
_ccdc_geom_bond_type
Tb0 C10 2.825 . S
Tb0 O11 2.347 1_556 S
Tb0 O14 2.366 1_565 S
Tb0 O19 2.418 . S
Tb0 O20 2.384 . S
Tb0 O23 2.479 . S
Tb0 O24 2.471 1_556 S
Eu1 O12 2.418 . S
Eu1 O13 2.384 . S
Eu1 O16 2.479 . S
Eu1 O17 2.471 1_554 S
Eu1 O18 2.347 1_554 S
Eu1 O21 2.366 1_545 S
Eu1 C31 2.825 . S
C2 O18 1.259 1_665 S
C2 O19 1.265 . S
C3 O20 1.255 1_554 S
C3 O21 1.265 1_655 S
C4 C6 1.380 . S
C4 C7 1.374 1_566 S
C4 C10 1.507 . S
C5 C6 1.384 . S
C5 C9 1.387 . S
C5 H32 0.930 . S
C6 C4 1.380 . S
C6 C5 1.384 . S
C6 H33 0.931 . S
C7 C4 1.374 1_544 S
C7 C8 1.390 . S
C7 H34 0.930 . S
C8 C7 1.390 . S
C8 C9 1.391 1_544 S
C8 H35 0.930 . S
C9 C5 1.387 . S
C9 C8 1.391 1_566 S
C10 Tb0 2.825 . S
C10 C4 1.507 . S
C10 O23 1.238 . S
C10 O24 1.247 1_556 S
O11 Tb0 2.347 1_554 S
O11 C15 1.259 1_665 S
O12 Eu1 2.418 . S
O12 C15 1.265 . S
O13 Eu1 2.384 . S
O13 C22 1.255 . S
O14 Tb0 2.366 1_545 S
O14 C22 1.265 1_656 S
C15 O11 1.259 1_445 S
C15 O12 1.265 . S
O16 Eu1 2.479 . S
O16 C31 1.238 . S
O17 Eu1 2.471 1_556 S
O17 C31 1.247 1_556 S
O18 Eu1 2.347 1_556 S
O18 C2 1.259 1_445 S
O19 Tb0 2.418 . S
O19 C2 1.265 . S
O20 Tb0 2.384 . S
O20 C3 1.255 1_556 S
O21 Eu1 2.366 1_565 S
O21 C3 1.265 1_455 S
C22 O13 1.255 . S
C22 O14 1.265 1_454 S
O23 Tb0 2.479 . S
O23 C10 1.238 . S
O24 Tb0 2.471 1_554 S
O24 C10 1.247 1_554 S
C25 C28 1.380 . S
C25 C29 1.374 1_544 S
C25 C31 1.507 . S
C26 C27 1.387 . S
C26 C30 1.391 1_544 S
C27 C26 1.387 . S
C27 C28 1.384 . S
C27 H36 0.930 . S
C28 C25 1.380 . S
C28 C27 1.384 . S
C28 H37 0.931 . S
C29 C25 1.374 1_566 S
C29 C30 1.390 . S
C29 H38 0.930 . S
C30 C26 1.391 1_566 S
C30 C29 1.390 . S
C30 H39 0.930 . S
C31 Eu1 2.825 . S
C31 O16 1.238 . S
C31 O17 1.247 1_554 S
C31 C25 1.507 . S
H32 C5 0.930 . S
H33 C6 0.931 . S
H34 C7 0.930 . S
H35 C8 0.930 . S
H36 C27 0.930 . S
H37 C28 0.931 . S
H38 C29 0.930 . S
H39 C30 0.930 . S
H40 C46 0.930 . S
H41 C50 0.930 . S
H42 C55 0.929 . S
H43 C53 0.929 . S
H44 C48 0.929 . S
H45 C54 0.929 . S
C46 H40 0.930 . S
C46 C47 1.367 . S
C46 C54 1.378 . S
C47 C46 1.367 . S
C47 C55 1.433 1_665 S
C48 H44 0.929 . S
C48 C50 1.378 . S
C48 C52 1.350 . S
C49 C52 1.463 1_665 S
C49 C54 1.350 . S
C49 N57 1.427 1_665 S
C50 H41 0.930 . S
C50 C48 1.378 . S
C50 C51 1.367 . S
C51 C50 1.367 . S
C51 C53 1.433 1_445 S
C52 C48 1.350 . S
C52 C49 1.463 1_445 S
C52 N56 1.427 1_445 S
C53 H43 0.929 . S
C53 C51 1.433 1_665 S
C53 N56 1.384 . S
C54 H45 0.929 . S
C54 C46 1.378 . S
C54 C49 1.350 . S
C55 H42 0.929 . S
C55 C47 1.433 1_445 S
C55 N57 1.384 . S
N56 C52 1.427 1_665 S
N56 C53 1.384 . S
N57 C49 1.427 1_445 S
N57 C55 1.384 . S
H58 C64 0.930 . S
H59 C68 0.930 . S
H60 C73 0.929 . S
H61 C71 0.929 . S
H62 C66 0.929 . S
H63 C72 0.929 . S
C64 H58 0.930 . S
C64 C65 1.371 . S
C64 C72 1.378 . S
C65 C64 1.371 . S
C65 C73 1.428 1_564 S
C66 H62 0.929 . S
C66 C68 1.378 . S
C66 C70 1.357 . S
C67 C70 1.460 1_564 S
C67 C72 1.350 . S
C67 N75 1.427 1_564 S
C68 H59 0.930 . S
C68 C66 1.378 . S
C68 C69 1.370 . S
C69 C68 1.370 . S
C69 C71 1.429 1_546 S
C70 C66 1.357 . S
C70 C67 1.460 1_546 S
C70 N74 1.422 1_546 S
C71 H61 0.929 . S
C71 C69 1.429 1_564 S
C71 N74 1.384 . S
C72 H63 0.929 . S
C72 C64 1.378 . S
C72 C67 1.350 . S
C73 H60 0.929 . S
C73 C65 1.428 1_546 S
C73 N75 1.384 . S
N74 C70 1.422 1_564 S
N74 C71 1.384 . S
N75 C67 1.427 1_546 S
N75 C73 1.384 . S
H76 C82 0.930 . S
H77 C86 0.930 . S
H78 C91 0.929 . S
H79 C89 0.929 . S
H80 C84 0.929 . S
H81 C90 0.929 . S
C82 H76 0.930 . S
C82 C83 1.386 . S
C82 C90 1.378 . S
C83 C82 1.386 . S
C83 C91 1.427 1_456 S
C84 H80 0.929 . S
C84 C86 1.378 . S
C84 C88 1.350 . S
C85 C88 1.463 1_456 S
C85 C90 1.350 . S
C85 N93 1.427 1_456 S
C86 H77 0.930 . S
C86 C84 1.378 . S
C86 C87 1.382 . S
C87 C86 1.382 . S
C87 C89 1.428 1_654 S
C88 C84 1.350 . S
C88 C85 1.463 1_654 S
C88 N92 1.427 1_654 S
C89 H79 0.929 . S
C89 C87 1.428 1_456 S
C89 N92 1.384 . S
C90 H81 0.929 . S
C90 C82 1.378 . S
C90 C85 1.350 . S
C91 H78 0.929 . S
C91 C83 1.427 1_654 S
C91 N93 1.384 . S
N92 C88 1.427 1_456 S
N92 C89 1.384 . S
N93 C85 1.427 1_654 S
N93 C91 1.384 . S
C47 C15 1.475 1_665 S
C51 C2 1.475 1_445 S
C65 C26 1.497 1_565 S
C69 C9 1.496 1_545 S
C83 C3 1.486 1_456 S
C87 C22 1.489 1_655 S
