# Generated by pormake.
# Topology sxb, (6)-cn, num edge types: 1
# Building blocks:
#     Node 0, Type 0, BuildingBlock: JUFBIX_clean_sbu_0, # of connection points: 6
#     Node 1, Type 0, BuildingBlock: JUFBIX_clean_sbu_0, # of connection points: 6
#     Node 2, Type 0, BuildingBlock: JUFBIX_clean_sbu_0, # of connection points: 6
#     Node 3, Type 0, BuildingBlock: JUFBIX_clean_sbu_0, # of connection points: 6
#     Edge 4, Type (0, 0), BuildingBlock: AJUNOK_clean_linker_0, # of connection points: 2
#     Edge 5, Type (0, 0), BuildingBlock: AJUNOK_clean_linker_0, # of connection points: 2
#     Edge 6, Type (0, 0), BuildingBlock: AJUNOK_clean_linker_0, # of connection points: 2
#     Edge 7, Type (0, 0), BuildingBlock: AJUNOK_clean_linker_0, # of connection points: 2
#     Edge 8, Type (0, 0), BuildingBlock: AJUNOK_clean_linker_0, # of connection points: 2
#     Edge 9, Type (0, 0), BuildingBlock: AJUNOK_clean_linker_0, # of connection points: 2
#     Edge 10, Type (0, 0), BuildingBlock: AJUNOK_clean_linker_0, # of connection points: 2
#     Edge 11, Type (0, 0), BuildingBlock: AJUNOK_clean_linker_0, # of connection points: 2
#     Edge 12, Type (0, 0), BuildingBlock: AJUNOK_clean_linker_0, # of connection points: 2
#     Edge 13, Type (0, 0), BuildingBlock: AJUNOK_clean_linker_0, # of connection points: 2
#     Edge 14, Type (0, 0), BuildingBlock: AJUNOK_clean_linker_0, # of connection points: 2
#     Edge 15, Type (0, 0), BuildingBlock: AJUNOK_clean_linker_0, # of connection points: 2
# Relax obj value: 0.039
# Max RMSD: 0.066
# Mean RMSD: 0.066
data_MOF--net-sxb--node1-JUFBIX_clean_sbu_0--edge1-AJUNOK_clean_linker_0
_symmetry_space_group_name_H-M    P1
_symmetry_Int_Tables_number       1
_symmetry_cell_setting            triclinic
loop_
_symmetry_equiv_pos_as_xyz
'x, y, z'
_cell_length_a     10.871992
_cell_length_b     29.195405
_cell_length_c     21.826548
_cell_angle_alpha  89.952065
_cell_angle_beta   92.784681
_cell_angle_gamma 89.988854
loop_
_atom_site_label
_atom_site_type_symbol
_atom_site_fract_x
_atom_site_fract_y
_atom_site_fract_z
_atom_type_partial_charge
Co0 Co 0.97021 1.01498 1.00524 0.0
C1 C 0.96897 0.05838 0.11943 0.0
Co2 Co 0.96691 0.09105 1.00088 0.0
C3 C 0.07193 0.92338 0.99416 0.0
C4 C 0.90534 0.92345 0.0424 0.0
N5 N -0.01947 0.95118 0.01191 0.0
N6 N 0.05725 0.87956 0.01271 0.0
C7 C 0.95223 0.87959 0.04307 0.0
H8 H 0.15126 0.93556 0.97091 0.0
H9 H 0.82415 0.93472 0.06487 0.0
C10 C 0.96985 1.04849 0.88676 0.0
N11 N 0.95581 0.15476 0.99443 0.0
C12 C 0.8669 0.18219 0.01557 0.0
C13 C 0.02455 0.18261 0.96065 0.0
N14 N 0.87533 0.22582 0.99511 0.0
C15 C -0.02433 0.22615 0.96109 0.0
C16 C 0.20233 0.05613 1.00652 0.0
O17 O 0.97028 1.01131 0.91745 0.0
O18 O 0.96628 0.08644 0.91503 0.0
O19 O 0.14235 0.09357 1.00372 0.0
O20 O 0.14449 1.01849 0.00903 0.0
O21 O 0.9678 0.09488 0.08757 0.0
H22 H 0.10193 0.17157 0.93506 0.0
H23 H 0.79617 0.16994 0.04465 0.0
O24 O 0.97051 1.01981 0.09227 0.0
O25 O 0.7943 1.01252 1.00164 0.0
O26 O 0.79294 0.08759 0.99703 0.0
C27 C 0.73464 1.04999 0.99791 0.0
H28 H 0.91338 0.85017 0.06534 0.0
H29 H 0.00827 0.2553 0.93585 0.0
Co30 Co 0.96954 1.01596 0.50183 0.0
C31 C 0.96559 0.05973 0.38683 0.0
Co32 Co 0.97087 0.09208 0.50462 0.0
C33 C 0.87485 0.92328 0.51312 0.0
C34 C 0.04055 0.92522 0.46422 0.0
N35 N 0.96348 0.95212 0.49479 0.0
N36 N 0.89335 0.87961 0.4951 0.0
C37 C -0.00218 0.88078 0.46432 0.0
H38 H 0.79646 0.93423 0.53811 0.0
H39 H 0.11997 0.93743 0.44107 0.0
C40 C -0.02387 1.04875 0.61962 0.0
N41 N -0.02456 0.15603 0.51258 0.0
C42 C 0.06222 0.18586 0.49482 0.0
C43 C 0.90033 0.18152 0.54626 0.0
N44 N 0.0467 0.22842 0.51777 0.0
C45 C 0.94333 0.22585 0.54927 0.0
C46 C 0.73746 0.05556 0.50054 0.0
O47 O 0.97326 1.01158 0.58914 0.0
O48 O -0.02484 0.08667 0.59097 0.0
O49 O 0.79771 0.0928 0.50246 0.0
O50 O 0.79538 1.01785 0.4996 0.0
O51 O 0.96699 0.09653 0.41807 0.0
H52 H 0.82219 0.1683 0.5695 0.0
H53 H 0.13843 0.17612 0.46772 0.0
O54 O 0.96591 1.02135 0.41466 0.0
O55 O 0.14539 1.01534 0.50407 0.0
O56 O 0.14316 0.09037 0.50662 0.0
C57 C 0.20342 1.05323 0.50556 0.0
H58 H 0.03735 0.85208 0.44085 0.0
H59 H 0.90239 0.25376 0.57374 0.0
Co60 Co 0.47552 0.51631 1.0077 0.0
C61 C 0.48076 0.55832 0.12422 0.0
Co62 Co 0.47438 0.59245 0.00797 0.0
C63 C 0.56262 0.4223 0.99501 0.0
C64 C 0.40835 0.42755 0.05167 0.0
N65 N 0.47934 0.45251 0.0152 0.0
N66 N 0.54747 0.37971 0.01805 0.0
C67 C 0.45011 0.38307 0.05375 0.0
H68 H 0.63548 0.43167 0.96548 0.0
H69 H 0.3354 0.44142 0.0781 0.0
C70 C 0.46892 0.55032 0.89143 0.0
N71 N 0.46889 0.65644 1.00116 0.0
C72 C 0.37699 0.6852 0.01575 0.0
C73 C 0.54911 0.68327 0.97241 0.0
N74 N 0.39546 0.7285 0.99616 0.0
C75 C 0.50466 0.72745 0.96951 0.0
C76 C 0.70831 0.55506 0.00893 0.0
O77 O 0.47067 0.51265 0.92088 0.0
O78 O 0.46991 0.58785 0.92111 0.0
O79 O 0.65009 0.59286 0.0098 0.0
O80 O 0.6486 0.51773 0.00904 0.0
O81 O 0.47864 0.59607 0.09497 0.0
H82 H 0.6324 0.67122 0.95257 0.0
H83 H 0.29489 0.67425 0.03774 0.0
O84 O 0.48055 0.521 0.09432 0.0
O85 O 0.30161 0.51571 1.00587 0.0
O86 O 0.30027 0.59074 1.00614 0.0
C87 C 0.24195 0.55312 1.00539 0.0
H88 H 0.41603 0.35616 0.0825 0.0
H89 H 0.54879 0.75636 0.94864 0.0
Co90 Co 0.47233 0.51511 0.50759 0.0
C91 C 0.47287 0.55662 0.39137 0.0
Co92 Co 0.47373 0.59126 0.50781 0.0
C93 C 0.37332 0.42308 0.52107 0.0
C94 C 0.53392 0.42393 0.46829 0.0
N95 N 0.46276 0.45116 0.50175 0.0
N96 N 0.38487 0.37967 0.5003 0.0
C97 C 0.48632 0.3802 0.46722 0.0
H98 H 0.29701 0.43493 0.54682 0.0
H99 H 0.61178 0.43563 0.44352 0.0
C100 C 0.47312 0.55003 0.62408 0.0
N101 N 0.4835 0.65524 0.5133 0.0
C102 C 0.57642 0.68268 0.49639 0.0
C103 C 0.40715 0.68343 0.54234 0.0
N104 N 0.56237 0.72657 0.51469 0.0
C105 C 0.45491 0.72718 0.54297 0.0
C106 C 0.23976 0.55526 0.50305 0.0
O107 O 0.47298 0.51232 0.59475 0.0
O108 O 0.47435 0.5875 0.59435 0.0
O109 O 0.29769 0.59318 0.50422 0.0
O110 O 0.3002 0.51816 0.504 0.0
O111 O 0.47319 0.59417 0.42093 0.0
H112 H 0.32469 0.67255 0.56405 0.0
H113 H 0.65415 0.67046 0.47195 0.0
O114 O 0.47157 0.51905 0.42087 0.0
O115 O 0.64609 0.51289 0.51097 0.0
O116 O 0.6481 0.58792 0.51138 0.0
C117 C 0.70622 0.5502 0.51157 0.0
H118 H 0.52171 0.3513 0.44247 0.0
H119 H 0.41632 0.75674 0.56499 0.0
C120 C 0.24165 0.77292 0.05137 0.0
C121 C 0.31138 0.76676 0.99937 0.0
C122 C 0.15888 0.80966 0.05531 0.0
C123 C 0.14207 0.84172 1.0073 0.0
H124 H 0.25246 0.74945 0.08969 0.0
H125 H 0.10903 0.81338 0.09675 0.0
S126 S 0.29241 0.83823 0.85841 0.0
N127 N 0.35141 0.79408 0.89696 0.0
N128 N 0.19623 0.86294 0.90444 0.0
C129 C 0.20953 0.83547 0.95458 0.0
C130 C 0.29392 0.79808 0.95057 0.0
C131 C 0.7553 0.34662 1.00769 0.0
C132 C 0.62771 0.34052 0.01227 0.0
C133 C 0.83517 0.30911 1.00301 0.0
C134 C 0.7912 0.2637 1.003 0.0
H135 H 0.79406 0.3807 0.00891 0.0
H136 H 0.93265 0.31577 0.99996 0.0
S137 S 0.46358 0.22915 0.01273 0.0
N138 N 0.4605 0.28559 0.01542 0.0
N139 N 0.60969 0.21511 1.00706 0.0
C140 C 0.66348 0.25709 0.00789 0.0
C141 C 0.58219 0.29542 0.01242 0.0
C142 C 0.1946 0.27456 0.46071 0.0
C143 C 0.13002 0.26697 0.51411 0.0
C144 C 0.27738 0.31131 0.45656 0.0
C145 C 0.29938 0.342 0.50573 0.0
H146 H 0.18 0.25217 0.4215 0.0
H147 H 0.32326 0.31606 0.41414 0.0
S148 S 0.1636 0.33472 0.65803 0.0
N149 N 0.10071 0.29163 0.61889 0.0
N150 N 0.2552 0.36059 0.61077 0.0
C151 C 0.23683 0.33445 0.55967 0.0
C152 C 0.15263 0.297 0.564 0.0
C153 C 0.68317 0.84682 0.49657 0.0
C154 C 0.81183 0.8409 0.50145 0.0
C155 C 0.60262 0.80937 0.50054 0.0
C156 C 0.64731 0.76445 0.50957 0.0
H157 H 0.64442 0.88057 0.48846 0.0
H158 H 0.50443 0.81553 0.49574 0.0
S159 S -0.02379 0.73128 0.53215 0.0
N160 N -0.02012 0.78709 0.52007 0.0
N161 N 0.82913 0.71696 0.52804 0.0
C162 C 0.7758 0.75824 0.51586 0.0
C163 C 0.85776 0.79636 0.51169 0.0
C164 C 0.40656 1.02081 0.03468 0.0
C165 C 0.33781 0.0555 1.00399 0.0
C166 C 0.53497 1.01846 0.03137 0.0
C167 C 0.59878 1.05066 0.99709 0.0
H168 H 0.36089 0.99554 0.06198 0.0
H169 H 0.58477 0.99188 0.05683 0.0
S170 S 0.45921 0.1427 0.89921 0.0
N171 N 0.34138 0.11925 0.9325 0.0
N172 N 0.58264 0.11497 0.92633 0.0
C173 C 0.53066 0.08445 0.96438 0.0
C174 C 0.40012 0.08687 0.96783 0.0
C175 C 0.4079 1.01373 0.50673 0.0
C176 C 0.33948 0.05462 0.50455 0.0
C177 C 0.53648 1.01434 0.50501 0.0
C178 C 0.60157 0.05586 0.50088 0.0
H179 H 0.36206 0.98093 0.5099 0.0
H180 H 0.58501 0.98192 0.50722 0.0
S181 S 0.46591 0.17259 0.49231 0.0
N182 N 0.3472 0.13792 0.49747 0.0
N183 N 0.58772 0.1389 0.4934 0.0
C184 C 0.53434 0.09698 0.4982 0.0
C185 C 0.40369 0.0964 0.50028 0.0
C186 C 0.91386 0.59292 0.02414 0.0
C187 C 0.84403 0.55415 1.00669 0.0
C188 C 0.04262 0.59242 0.0232 0.0
C189 C 0.10613 0.55311 1.00478 0.0
H190 H 0.86899 0.62374 0.03935 0.0
H191 H 0.09267 0.6229 0.0378 0.0
S192 S 0.9659 0.44437 0.94834 0.0
N193 N 0.84795 0.47651 0.96601 0.0
N194 N 0.08947 0.47559 0.96478 0.0
C195 C 0.03741 0.5145 0.98591 0.0
C196 C 0.90649 0.51502 0.98671 0.0
C197 C 0.03595 0.59316 0.51528 0.0
C198 C 0.10368 0.55348 0.50313 0.0
C199 C 0.90768 0.59157 0.51854 0.0
C200 C 0.84213 0.55028 0.50985 0.0
H201 H 0.08228 0.62563 0.5231 0.0
H202 H 0.85966 0.623 0.52829 0.0
S203 S -0.02434 0.43684 0.47429 0.0
N204 N 0.09485 0.47176 0.48021 0.0
N205 N 0.85462 0.46886 0.48719 0.0
C206 C 0.90862 0.51037 0.49726 0.0
C207 C 0.03906 0.51198 0.49359 0.0
C208 C 0.96877 1.01966 0.28565 0.0
C209 C 0.96531 0.06099 0.31873 0.0
C210 C 0.96999 1.01933 0.22154 0.0
C211 C 0.9678 0.06031 0.18747 0.0
H212 H 0.97092 0.98704 0.30936 0.0
H213 H 0.9728 0.98647 0.19862 0.0
S214 S 0.95738 0.17804 0.25165 0.0
N215 N 0.95901 0.14423 0.31233 0.0
N216 N 0.96113 0.14362 0.19183 0.0
C217 C 0.96396 0.102 0.21984 0.0
C218 C 0.96278 0.10234 0.28535 0.0
C219 C 0.9533 1.00811 0.7848 0.0
C220 C -0.02455 1.04845 0.81888 0.0
C221 C 0.95512 1.00818 0.72041 0.0
C222 C -0.02064 1.04857 0.68775 0.0
H223 H 0.93266 0.97636 0.80787 0.0
H224 H 0.93562 0.97647 0.6961 0.0
S225 S 0.05411 0.16256 0.7557 0.0
N226 N 0.02986 0.12933 0.81502 0.0
N227 N 0.03329 0.12943 0.69495 0.0
C228 C 0.00478 0.08885 0.7215 0.0
C229 C 0.00284 0.0888 0.78675 0.0
C230 C 0.47186 0.59775 0.29022 0.0
C231 C 0.47552 0.55632 0.32338 0.0
C232 C 0.47442 0.5982 0.22598 0.0
C233 C 0.48095 0.55724 0.1923 0.0
H234 H 0.46658 0.63021 0.31395 0.0
H235 H 0.47065 0.63096 0.20264 0.0
S236 S 0.4952 0.43938 0.25719 0.0
N237 N 0.48763 0.47313 0.31742 0.0
N238 N 0.49288 0.47394 0.19737 0.0
C239 C 0.48556 0.51554 0.22498 0.0
C240 C 0.48271 0.51509 0.29025 0.0
C241 C 0.4777 0.50968 0.72591 0.0
C242 C 0.47079 0.55078 0.69211 0.0
C243 C 0.47625 0.50975 0.7902 0.0
C244 C 0.46768 0.55092 0.82331 0.0
H245 H 0.48487 0.4771 0.70264 0.0
H246 H 0.48265 0.47722 0.81404 0.0
S247 S 0.44338 0.66803 0.75664 0.0
N248 N 0.45242 0.63389 0.69688 0.0
N249 N 0.44953 0.63399 0.81704 0.0
C250 C 0.45953 0.59228 0.79001 0.0
C251 C 0.46113 0.59221 0.72467 0.0
loop_
_geom_bond_atom_site_label_1
_geom_bond_atom_site_label_2
_geom_bond_distance
_geom_bond_site_symmetry_2
_ccdc_geom_bond_type
Co0 N5 2.057 1_556 S
Co0 O17 2.021 . S
Co0 O20 2.062 . S
Co0 O24 2.117 1_556 S
Co0 O25 2.020 1_455 S
C1 O21 1.259 1_455 S
C1 O24 1.258 1_545 S
Co2 N11 2.057 1_554 S
Co2 O18 2.117 1_554 S
Co2 O19 2.020 1_655 S
Co2 O21 2.021 . S
Co2 O26 2.062 . S
C3 N5 1.316 1_556 S
C3 N6 1.347 1_556 S
C3 H8 0.931 . S
C4 N5 1.375 . S
C4 C7 1.350 . S
C4 H9 0.930 . S
N5 Co0 2.057 1_554 S
N5 C3 1.316 1_554 S
N5 C4 1.375 . S
N6 C3 1.347 1_554 S
N6 C7 1.373 . S
C7 C4 1.350 . S
C7 N6 1.373 . S
C7 H28 0.931 . S
H8 C3 0.931 . S
H9 C4 0.930 . S
C10 O17 1.259 1_655 S
C10 O18 1.258 1_565 S
N11 Co2 2.057 1_556 S
N11 C12 1.316 1_556 S
N11 C13 1.375 . S
C12 N11 1.316 1_554 S
C12 N14 1.347 1_554 S
C12 H23 0.931 . S
C13 N11 1.375 . S
C13 C15 1.350 . S
C13 H22 0.930 . S
N14 C12 1.347 1_556 S
N14 C15 1.373 . S
C15 C13 1.350 . S
C15 N14 1.373 . S
C15 H29 0.931 . S
C16 O19 1.258 . S
C16 O20 1.254 1_544 S
O17 Co0 2.021 . S
O17 C10 1.259 1_455 S
O18 Co2 2.117 1_556 S
O18 C10 1.258 1_545 S
O19 Co2 2.020 1_455 S
O19 C16 1.258 . S
O20 Co0 2.062 . S
O20 C16 1.254 1_566 S
O21 C1 1.259 1_655 S
O21 Co2 2.021 . S
H22 C13 0.930 . S
H23 C12 0.931 . S
O24 Co0 2.117 1_554 S
O24 C1 1.258 1_565 S
O25 Co0 2.020 1_655 S
O25 C27 1.257 . S
O26 Co2 2.062 . S
O26 C27 1.254 1_544 S
C27 O25 1.257 . S
C27 O26 1.254 1_566 S
H28 C7 0.931 . S
H29 C15 0.931 . S
Co30 N35 2.057 . S
Co30 O47 2.021 . S
Co30 O50 2.062 . S
Co30 O54 2.117 . S
Co30 O55 2.020 1_655 S
C31 O51 1.259 1_655 S
C31 O54 1.258 1_545 S
Co32 N41 2.057 . S
Co32 O48 2.117 . S
Co32 O49 2.020 1_455 S
Co32 O51 2.021 . S
Co32 O56 2.062 . S
C33 N35 1.316 . S
C33 N36 1.347 . S
C33 H38 0.931 . S
C34 N35 1.375 . S
C34 C37 1.350 . S
C34 H39 0.930 . S
N35 Co30 2.057 . S
N35 C33 1.316 . S
N35 C34 1.375 . S
N36 C33 1.347 . S
N36 C37 1.373 . S
C37 C34 1.350 . S
C37 N36 1.373 . S
C37 H58 0.931 . S
H38 C33 0.931 . S
H39 C34 0.930 . S
C40 O47 1.259 1_455 S
C40 O48 1.258 1_565 S
N41 Co32 2.057 . S
N41 C42 1.316 . S
N41 C43 1.375 . S
C42 N41 1.316 . S
C42 N44 1.347 . S
C42 H53 0.931 . S
C43 N41 1.375 . S
C43 C45 1.350 . S
C43 H52 0.930 . S
N44 C42 1.347 . S
N44 C45 1.373 . S
C45 C43 1.350 . S
C45 N44 1.373 . S
C45 H59 0.931 . S
C46 O49 1.256 . S
C46 O50 1.255 1_545 S
O47 Co30 2.021 . S
O47 C40 1.259 1_655 S
O48 Co32 2.117 . S
O48 C40 1.258 1_545 S
O49 Co32 2.020 1_655 S
O49 C46 1.256 . S
O50 Co30 2.062 . S
O50 C46 1.255 1_565 S
O51 C31 1.259 1_455 S
O51 Co32 2.021 . S
H52 C43 0.930 . S
H53 C42 0.931 . S
O54 Co30 2.117 . S
O54 C31 1.258 1_565 S
O55 Co30 2.020 1_455 S
O55 C57 1.256 . S
O56 Co32 2.062 . S
O56 C57 1.255 1_545 S
C57 O55 1.256 . S
C57 O56 1.255 1_565 S
H58 C37 0.931 . S
H59 C45 0.931 . S
Co60 N65 2.057 1_556 S
Co60 O77 2.021 . S
Co60 O80 2.062 . S
Co60 O84 2.117 1_556 S
Co60 O85 2.020 . S
C61 O81 1.259 . S
C61 O84 1.258 . S
Co62 N71 2.057 1_554 S
Co62 O78 2.117 1_554 S
Co62 O79 2.020 . S
Co62 O81 2.021 . S
Co62 O86 2.062 . S
C63 N65 1.316 1_556 S
C63 N66 1.347 1_556 S
C63 H68 0.931 . S
C64 N65 1.375 . S
C64 C67 1.350 . S
C64 H69 0.930 . S
N65 Co60 2.057 1_554 S
N65 C63 1.316 1_554 S
N65 C64 1.375 . S
N66 C63 1.347 1_554 S
N66 C67 1.373 . S
C67 C64 1.350 . S
C67 N66 1.373 . S
C67 H88 0.931 . S
H68 C63 0.931 . S
H69 C64 0.930 . S
C70 O77 1.259 . S
C70 O78 1.258 . S
N71 Co62 2.057 1_556 S
N71 C72 1.316 1_556 S
N71 C73 1.375 . S
C72 N71 1.316 1_554 S
C72 N74 1.347 1_554 S
C72 H83 0.931 . S
C73 N71 1.375 . S
C73 C75 1.350 . S
C73 H82 0.930 . S
N74 C72 1.347 1_556 S
N74 C75 1.373 . S
C75 C73 1.350 . S
C75 N74 1.373 . S
C75 H89 0.931 . S
C76 O79 1.258 . S
C76 O80 1.254 1_554 S
O77 Co60 2.021 . S
O77 C70 1.259 . S
O78 Co62 2.117 1_556 S
O78 C70 1.258 . S
O79 Co62 2.020 . S
O79 C76 1.258 . S
O80 Co60 2.062 . S
O80 C76 1.254 1_556 S
O81 C61 1.259 . S
O81 Co62 2.021 . S
H82 C73 0.930 . S
H83 C72 0.931 . S
O84 Co60 2.117 1_554 S
O84 C61 1.258 . S
O85 Co60 2.020 . S
O85 C87 1.257 . S
O86 Co62 2.062 . S
O86 C87 1.254 1_554 S
C87 O85 1.257 . S
C87 O86 1.254 1_556 S
H88 C67 0.931 . S
H89 C75 0.931 . S
Co90 N95 2.057 . S
Co90 O107 2.021 . S
Co90 O110 2.062 . S
Co90 O114 2.117 . S
Co90 O115 2.020 . S
C91 O111 1.259 . S
C91 O114 1.258 . S
Co92 N101 2.057 . S
Co92 O108 2.117 . S
Co92 O109 2.020 . S
Co92 O111 2.021 . S
Co92 O116 2.062 . S
C93 N95 1.316 . S
C93 N96 1.347 . S
C93 H98 0.931 . S
C94 N95 1.375 . S
C94 C97 1.350 . S
C94 H99 0.930 . S
N95 Co90 2.057 . S
N95 C93 1.316 . S
N95 C94 1.375 . S
N96 C93 1.347 . S
N96 C97 1.373 . S
C97 C94 1.350 . S
C97 N96 1.373 . S
C97 H118 0.931 . S
H98 C93 0.931 . S
H99 C94 0.930 . S
C100 O107 1.259 . S
C100 O108 1.258 . S
N101 Co92 2.057 . S
N101 C102 1.316 . S
N101 C103 1.375 . S
C102 N101 1.316 . S
C102 N104 1.347 . S
C102 H113 0.931 . S
C103 N101 1.375 . S
C103 C105 1.350 . S
C103 H112 0.930 . S
N104 C102 1.347 . S
N104 C105 1.373 . S
C105 C103 1.350 . S
C105 N104 1.373 . S
C105 H119 0.931 . S
C106 O109 1.256 . S
C106 O110 1.255 . S
O107 Co90 2.021 . S
O107 C100 1.259 . S
O108 Co92 2.117 . S
O108 C100 1.258 . S
O109 Co92 2.020 . S
O109 C106 1.256 . S
O110 Co90 2.062 . S
O110 C106 1.255 . S
O111 C91 1.259 . S
O111 Co92 2.021 . S
H112 C103 0.930 . S
H113 C102 0.931 . S
O114 Co90 2.117 . S
O114 C91 1.258 . S
O115 Co90 2.020 . S
O115 C117 1.256 . S
O116 Co92 2.062 . S
O116 C117 1.255 . S
C117 O115 1.256 . S
C117 O116 1.255 . S
H118 C97 0.931 . S
H119 C105 0.931 . S
C120 C121 1.369 . S
C120 C122 1.419 . S
C120 H124 0.930 . S
C121 C120 1.369 . S
C121 C130 1.429 1_554 S
C122 C120 1.419 . S
C122 C123 1.363 1_554 S
C122 H125 0.929 . S
C123 C122 1.363 1_556 S
C123 C129 1.428 . S
H124 C120 0.930 . S
H125 C122 0.929 . S
S126 N127 1.613 . S
S126 N128 1.610 . S
N127 S126 1.613 . S
N127 C130 1.350 . S
N128 S126 1.610 . S
N128 C129 1.351 . S
C129 C123 1.428 . S
C129 N128 1.351 . S
C129 C130 1.434 . S
C130 C121 1.429 1_556 S
C130 N127 1.350 . S
C130 C129 1.434 . S
C131 C132 1.369 . S
C131 C133 1.419 . S
C131 H135 0.930 . S
C132 C131 1.369 . S
C132 C141 1.429 1_556 S
C133 C131 1.419 . S
C133 C134 1.363 1_556 S
C133 H136 0.929 . S
C134 C133 1.363 1_554 S
C134 C140 1.428 . S
H135 C131 0.930 . S
H136 C133 0.929 . S
S137 N138 1.613 . S
S137 N139 1.610 . S
N138 S137 1.613 . S
N138 C141 1.350 . S
N139 S137 1.610 . S
N139 C140 1.351 . S
C140 C134 1.428 . S
C140 N139 1.351 . S
C140 C141 1.434 . S
C141 C132 1.429 1_554 S
C141 N138 1.350 . S
C141 C140 1.434 . S
C142 C143 1.369 . S
C142 C144 1.419 . S
C142 H146 0.930 . S
C143 C142 1.369 . S
C143 C152 1.429 . S
C144 C142 1.419 . S
C144 C145 1.363 . S
C144 H147 0.929 . S
C145 C144 1.363 . S
C145 C151 1.428 . S
H146 C142 0.930 . S
H147 C144 0.929 . S
S148 N149 1.613 . S
S148 N150 1.610 . S
N149 S148 1.613 . S
N149 C152 1.350 . S
N150 S148 1.610 . S
N150 C151 1.351 . S
C151 C145 1.428 . S
C151 N150 1.351 . S
C151 C152 1.434 . S
C152 C143 1.429 . S
C152 N149 1.350 . S
C152 C151 1.434 . S
C153 C154 1.369 . S
C153 C155 1.419 . S
C153 H157 0.930 . S
C154 C153 1.369 . S
C154 C163 1.429 . S
C155 C153 1.419 . S
C155 C156 1.363 . S
C155 H158 0.929 . S
C156 C155 1.363 . S
C156 C162 1.428 . S
H157 C153 0.930 . S
H158 C155 0.929 . S
S159 N160 1.613 . S
S159 N161 1.610 1_455 S
N160 S159 1.613 . S
N160 C163 1.350 1_455 S
N161 S159 1.610 1_655 S
N161 C162 1.351 . S
C162 C156 1.428 . S
C162 N161 1.351 . S
C162 C163 1.434 . S
C163 C154 1.429 . S
C163 N160 1.350 1_655 S
C163 C162 1.434 . S
C164 C165 1.369 1_565 S
C164 C166 1.419 . S
C164 H168 0.930 . S
C165 C164 1.369 1_545 S
C165 C174 1.429 1_554 S
C166 C164 1.419 . S
C166 C167 1.363 1_554 S
C166 H169 0.929 . S
C167 C166 1.363 1_556 S
C167 C173 1.428 1_565 S
H168 C164 0.930 . S
H169 C166 0.929 . S
S170 N171 1.613 . S
S170 N172 1.610 . S
N171 S170 1.613 . S
N171 C174 1.350 . S
N172 S170 1.610 . S
N172 C173 1.351 . S
C173 C167 1.428 1_545 S
C173 N172 1.351 . S
C173 C174 1.434 . S
C174 C165 1.429 1_556 S
C174 N171 1.350 . S
C174 C173 1.434 . S
C175 C176 1.369 . S
C175 C177 1.419 . S
C175 H179 0.930 . S
C176 C175 1.369 . S
C176 C185 1.429 1_565 S
C177 C175 1.419 . S
C177 C178 1.363 1_565 S
C177 H180 0.929 . S
C178 C177 1.363 1_545 S
C178 C184 1.428 . S
H179 C175 0.930 . S
H180 C177 0.929 . S
S181 N182 1.613 . S
S181 N183 1.610 . S
N182 S181 1.613 . S
N182 C185 1.350 . S
N183 S181 1.610 . S
N183 C184 1.351 . S
C184 C178 1.428 . S
C184 N183 1.351 . S
C184 C185 1.434 . S
C185 C176 1.429 1_545 S
C185 N182 1.350 . S
C185 C184 1.434 . S
C186 C187 1.369 . S
C186 C188 1.419 1_655 S
C186 H190 0.930 . S
C187 C186 1.369 . S
C187 C196 1.429 1_554 S
C188 C186 1.419 1_455 S
C188 C189 1.363 1_554 S
C188 H191 0.929 . S
C189 C188 1.363 1_556 S
C189 C195 1.428 . S
H190 C186 0.930 . S
H191 C188 0.929 . S
S192 N193 1.613 . S
S192 N194 1.610 1_655 S
N193 S192 1.613 . S
N193 C196 1.350 . S
N194 S192 1.610 1_455 S
N194 C195 1.351 . S
C195 C189 1.428 . S
C195 N194 1.351 . S
C195 C196 1.434 1_455 S
C196 C187 1.429 1_556 S
C196 N193 1.350 . S
C196 C195 1.434 1_655 S
C197 C198 1.369 . S
C197 C199 1.419 1_455 S
C197 H201 0.930 . S
C198 C197 1.369 . S
C198 C207 1.429 . S
C199 C197 1.419 1_655 S
C199 C200 1.363 . S
C199 H202 0.929 . S
C200 C199 1.363 . S
C200 C206 1.428 . S
H201 C197 0.930 . S
H202 C199 0.929 . S
S203 N204 1.613 1_655 S
S203 N205 1.610 . S
N204 S203 1.613 1_455 S
N204 C207 1.350 . S
N205 S203 1.610 . S
N205 C206 1.351 . S
C206 C200 1.428 . S
C206 N205 1.351 . S
C206 C207 1.434 1_655 S
C207 C198 1.429 . S
C207 N204 1.350 . S
C207 C206 1.434 1_455 S
C208 C209 1.368 1_465 S
C208 C210 1.418 . S
C208 H212 0.931 . S
C209 C208 1.368 1_645 S
C209 C218 1.429 . S
C210 C208 1.418 . S
C210 C211 1.368 1_565 S
C210 H213 0.931 . S
C211 C210 1.368 1_545 S
C211 C217 1.422 1_455 S
H212 C208 0.931 . S
H213 C210 0.931 . S
S214 N215 1.613 . S
S214 N216 1.610 . S
N215 S214 1.613 . S
N215 C218 1.350 . S
N216 S214 1.610 . S
N216 C217 1.351 . S
C217 C211 1.422 1_655 S
C217 N216 1.351 . S
C217 C218 1.434 . S
C218 C209 1.429 . S
C218 N215 1.350 . S
C218 C217 1.434 . S
C219 C220 1.369 . S
C219 C221 1.419 . S
C219 H223 0.930 . S
C220 C219 1.369 . S
C220 C229 1.429 1_665 S
C221 C219 1.419 . S
C221 C222 1.363 1_655 S
C221 H224 0.929 . S
C222 C221 1.363 1_455 S
C222 C228 1.428 1_565 S
H223 C219 0.930 . S
H224 C221 0.929 . S
S225 N226 1.613 . S
S225 N227 1.610 . S
N226 S225 1.613 . S
N226 C229 1.350 . S
N227 S225 1.610 . S
N227 C228 1.351 . S
C228 C222 1.428 1_545 S
C228 N227 1.351 . S
C228 C229 1.434 . S
C229 C220 1.429 1_445 S
C229 N226 1.350 . S
C229 C228 1.434 . S
C230 C231 1.369 . S
C230 C232 1.419 . S
C230 H234 0.930 . S
C231 C230 1.369 . S
C231 C240 1.429 . S
C232 C230 1.419 . S
C232 C233 1.363 . S
C232 H235 0.929 . S
C233 C232 1.363 . S
C233 C239 1.428 . S
H234 C230 0.930 . S
H235 C232 0.929 . S
S236 N237 1.613 . S
S236 N238 1.610 . S
N237 S236 1.613 . S
N237 C240 1.350 . S
N238 S236 1.610 . S
N238 C239 1.351 . S
C239 C233 1.428 . S
C239 N238 1.351 . S
C239 C240 1.434 . S
C240 C231 1.429 . S
C240 N237 1.350 . S
C240 C239 1.434 . S
C241 C242 1.369 . S
C241 C243 1.419 . S
C241 H245 0.930 . S
C242 C241 1.369 . S
C242 C251 1.429 . S
C243 C241 1.419 . S
C243 C244 1.363 . S
C243 H246 0.929 . S
C244 C243 1.363 . S
C244 C250 1.428 . S
H245 C241 0.930 . S
H246 C243 0.929 . S
S247 N248 1.613 . S
S247 N249 1.610 . S
N248 S247 1.613 . S
N248 C251 1.350 . S
N249 S247 1.610 . S
N249 C250 1.351 . S
C250 C244 1.428 . S
C250 N249 1.351 . S
C250 C251 1.434 . S
C251 C242 1.429 . S
C251 N248 1.350 . S
C251 C250 1.434 . S
C121 N74 1.536 1_554 S
C123 N6 1.544 1_556 S
C132 N66 1.536 1_556 S
C134 N14 1.539 1_554 S
C143 N44 1.536 . S
C145 N96 1.539 . S
C154 N36 1.538 . S
C156 N104 1.543 . S
C165 C16 1.139 . S
C167 C27 1.139 . S
C176 C57 1.138 . S
C178 C46 1.141 . S
C187 C76 1.137 . S
C189 C87 1.141 . S
C198 C106 1.141 . S
C200 C117 1.139 . S
C209 C31 1.498 . S
C211 C1 1.497 . S
C220 C10 1.499 . S
C222 C40 1.501 . S
C231 C91 1.499 . S
C233 C61 1.496 . S
C242 C100 1.499 . S
C244 C70 1.501 . S
