# Generated by pormake.
# Topology umb, (4)-cn, num edge types: 1
# Building blocks:
#     Node 0, Type 0, BuildingBlock: GALJAG_clean_sbu_0, # of connection points: 4
#     Node 1, Type 0, BuildingBlock: GALJAG_clean_sbu_0, # of connection points: 4
#     Node 2, Type 0, BuildingBlock: GALJAG_clean_sbu_0, # of connection points: 4
#     Node 3, Type 0, BuildingBlock: GALJAG_clean_sbu_0, # of connection points: 4
#     Node 4, Type 0, BuildingBlock: GALJAG_clean_sbu_0, # of connection points: 4
#     Node 5, Type 0, BuildingBlock: GALJAG_clean_sbu_0, # of connection points: 4
#     Node 6, Type 0, BuildingBlock: GALJAG_clean_sbu_0, # of connection points: 4
#     Node 7, Type 0, BuildingBlock: GALJAG_clean_sbu_0, # of connection points: 4
#     Node 8, Type 0, BuildingBlock: GALJAG_clean_sbu_0, # of connection points: 4
#     Node 9, Type 0, BuildingBlock: GALJAG_clean_sbu_0, # of connection points: 4
#     Node 10, Type 0, BuildingBlock: GALJAG_clean_sbu_0, # of connection points: 4
#     Node 11, Type 0, BuildingBlock: GALJAG_clean_sbu_0, # of connection points: 4
#     Edge 12, Type (0, 0), None
#     Edge 13, Type (0, 0), None
#     Edge 14, Type (0, 0), None
#     Edge 15, Type (0, 0), None
#     Edge 16, Type (0, 0), None
#     Edge 17, Type (0, 0), None
#     Edge 18, Type (0, 0), None
#     Edge 19, Type (0, 0), None
#     Edge 20, Type (0, 0), None
#     Edge 21, Type (0, 0), None
#     Edge 22, Type (0, 0), None
#     Edge 23, Type (0, 0), None
#     Edge 24, Type (0, 0), None
#     Edge 25, Type (0, 0), None
#     Edge 26, Type (0, 0), None
#     Edge 27, Type (0, 0), None
#     Edge 28, Type (0, 0), None
#     Edge 29, Type (0, 0), None
#     Edge 30, Type (0, 0), None
#     Edge 31, Type (0, 0), None
#     Edge 32, Type (0, 0), None
#     Edge 33, Type (0, 0), None
#     Edge 34, Type (0, 0), None
#     Edge 35, Type (0, 0), None
# Relax obj value: 0.193
# Max RMSD: 0.208
# Mean RMSD: 0.208
data_MOF--net-umb--node1-GALJAG_clean_sbu_0--edge1-none
_symmetry_space_group_name_H-M    P1
_symmetry_Int_Tables_number       1
_symmetry_cell_setting            triclinic
loop_
_symmetry_equiv_pos_as_xyz
'x, y, z'
_cell_length_a     22.830169
_cell_length_b     22.832442
_cell_length_c     15.509922
_cell_angle_alpha  90.000956
_cell_angle_beta   90.001286
_cell_angle_gamma 120.00704
loop_
_atom_site_label
_atom_site_type_symbol
_atom_site_fract_x
_atom_site_fract_y
_atom_site_fract_z
_atom_type_partial_charge
In0 In 0.49094 0.11573 0.35734 0.0
O1 O 0.50756 0.03877 0.28603 0.0
O2 O 0.40647 0.01146 0.32215 0.0
C3 C 0.6075 0.2242 0.39184 0.0
C4 C 0.49062 0.07924 0.52168 0.0
C5 C 0.4494 0.1855 0.25706 0.0
O6 O 0.60497 0.17828 0.34312 0.0
O7 O 0.55188 0.21657 0.41801 0.0
O8 O 0.43008 0.17002 0.33456 0.0
O9 O 0.48558 0.16195 0.22919 0.0
C10 C 0.44595 -0.00689 0.29056 0.0
O11 O 0.4439 0.08854 0.49192 0.0
O12 O 0.53405 0.08441 0.46758 0.0
In13 In 0.3326 0.51229 0.69071 0.0
O14 O 0.31276 0.46526 0.8253 0.0
O15 O 0.40706 0.5554 0.80095 0.0
C16 C 0.22129 0.47075 0.59042 0.0
C17 C 0.41021 0.46727 0.62394 0.0
C18 C 0.34071 0.62884 0.72518 0.0
O19 O 0.21744 0.45145 0.66793 0.0
O20 O 0.28103 0.50692 0.56255 0.0
O21 O 0.38411 0.62631 0.67648 0.0
O22 O 0.29272 0.57323 0.75137 0.0
C23 C 0.36878 0.51197 0.85506 0.0
O24 O 0.42619 0.52888 0.61941 0.0
O25 O 0.35237 0.42781 0.65554 0.0
In26 In 0.77767 0.35391 1.02405 0.0
O27 O 0.80486 0.33407 0.15863 0.0
O28 O 0.80902 0.42836 0.13428 0.0
C29 C 0.70789 0.24261 0.92374 0.0
C30 C 0.90031 0.43152 0.95727 0.0
C31 C 0.66921 0.362 1.05853 0.0
O32 O 0.72334 0.23876 1.00126 0.0
O33 O 0.73146 0.30234 0.89588 0.0
O34 O 0.71514 0.4054 1.00983 0.0
O35 O 0.67682 0.31401 0.08469 0.0
C36 C 0.81418 0.39009 0.18839 0.0
O37 O 0.85466 0.44749 0.95273 0.0
O38 O 0.88193 0.37369 0.98887 0.0
In39 In 0.38118 0.79901 0.35735 0.0
O40 O 0.42821 0.82621 0.49194 0.0
O41 O 0.33806 0.83032 0.46758 0.0
C42 C 0.42273 0.72925 0.25707 0.0
C43 C 0.42615 0.92161 0.29062 0.0
C44 C 0.26463 0.69053 0.39183 0.0
O45 O 0.44203 0.74471 0.33458 0.0
O46 O 0.38657 0.75281 0.22919 0.0
O47 O 0.26715 0.73646 0.34313 0.0
O48 O 0.32024 0.69816 0.41799 0.0
C49 C 0.38149 0.83549 0.52169 0.0
O50 O 0.36454 0.87595 0.28601 0.0
O51 O 0.46565 0.90329 0.32221 0.0
In52 In 0.53951 0.40245 0.69071 0.0
O53 O 0.55935 0.44948 0.8253 0.0
O54 O 0.46505 0.35933 0.80095 0.0
C55 C 0.65081 0.44399 0.59042 0.0
C56 C 0.4619 0.44745 0.624 0.0
C57 C 0.53141 0.2859 0.72517 0.0
O58 O 0.65467 0.46329 0.66794 0.0
O59 O 0.59108 0.40784 0.56254 0.0
O60 O 0.488 0.28843 0.67648 0.0
O61 O 0.57941 0.34151 0.75134 0.0
C62 C 0.50333 0.40276 0.85506 0.0
O63 O 0.44592 0.38584 0.61938 0.0
O64 O 0.51974 0.48694 0.65558 0.0
In65 In 0.09445 0.56083 1.02404 0.0
O66 O 0.01746 0.46725 0.95271 0.0
O67 O -0.00983 0.54105 0.9889 0.0
C68 C 0.20291 0.55275 1.05852 0.0
C69 C 0.05795 0.52466 0.18838 0.0
C70 C 0.16421 0.67212 0.92373 0.0
O71 O 0.15697 0.50934 1.00983 0.0
O72 O 0.1953 0.60075 0.08468 0.0
O73 O 0.14877 0.67598 1.00125 0.0
O74 O 0.14063 0.61239 0.89586 0.0
C75 C -0.02818 0.48321 0.95732 0.0
O76 O 0.06726 0.58067 0.15863 0.0
O77 O 0.0631 0.48639 0.13427 0.0
In78 In 0.77767 0.40245 0.44532 0.0
O79 O 0.80488 0.44947 0.31073 0.0
O80 O 0.809 0.35932 0.3351 0.0
C81 C 0.70786 0.44394 0.54554 0.0
C82 C 0.90031 0.44748 0.51211 0.0
C83 C 0.6692 0.2859 0.41087 0.0
O84 O 0.72339 0.46332 0.46806 0.0
O85 O 0.73142 0.40779 0.57346 0.0
O86 O 0.71513 0.28843 0.45956 0.0
O87 O 0.67682 0.3415 0.38466 0.0
C88 C 0.81414 0.40274 0.28099 0.0
O89 O 0.85466 0.38587 0.51665 0.0
O90 O 0.88194 0.48694 0.48051 0.0
In91 In 0.33262 0.79899 0.77862 0.0
O92 O 0.4262 0.876 0.84995 0.0
O93 O 0.35237 0.90323 0.8138 0.0
C94 C 0.34071 0.69053 0.74419 0.0
C95 C 0.3688 0.83545 0.6143 0.0
C96 C 0.22131 0.72917 0.87884 0.0
O97 O 0.38412 0.73647 0.79289 0.0
O98 O 0.29273 0.69815 0.71798 0.0
O99 O 0.21745 0.74468 0.80136 0.0
O100 O 0.28103 0.75274 0.90677 0.0
C101 C 0.41021 0.92162 0.84541 0.0
O102 O 0.31279 0.82617 0.64403 0.0
O103 O 0.40709 0.83033 0.66841 0.0
In104 In 0.49096 0.35391 0.11199 0.0
O105 O 0.44393 0.33408 0.9774 0.0
O106 O 0.5341 0.42836 1.00177 0.0
C107 C 0.44945 0.2426 0.2122 0.0
C108 C 0.44595 0.43152 0.17878 0.0
C109 C 0.60751 0.36199 0.07755 0.0
O110 O 0.43006 0.23875 0.13472 0.0
O111 O 0.48562 0.30231 0.24012 0.0
O112 O 0.60499 0.4054 0.12625 0.0
O113 O 0.5519 0.31402 1.05134 0.0
C114 C 0.49068 0.39008 0.94766 0.0
O115 O 0.50757 0.44749 0.18332 0.0
O116 O 0.40648 0.37369 0.14718 0.0
In117 In 0.09444 0.5123 0.44532 0.0
O118 O 0.01747 0.52891 0.51666 0.0
O119 O -0.00984 0.42781 0.48047 0.0
C120 C 0.20293 0.62884 0.41086 0.0
C121 C 0.05798 0.51201 0.28098 0.0
C122 C 0.16424 0.4708 0.54554 0.0
O123 O 0.15699 0.62631 0.45954 0.0
O124 O 0.1953 0.57323 0.38468 0.0
O125 O 0.14871 0.45142 0.46806 0.0
O126 O 0.14069 0.50696 0.57346 0.0
C127 C -0.02818 0.4673 0.51206 0.0
O128 O 0.06724 0.46527 0.31072 0.0
O129 O 0.06312 0.55543 0.33509 0.0
In130 In 0.53948 0.11575 0.77862 0.0
O131 O 0.55931 0.08856 0.64403 0.0
O132 O 0.46502 0.08442 0.66839 0.0
C133 C 0.65079 0.18556 0.87886 0.0
C134 C 0.46189 -0.00687 0.84536 0.0
C135 C 0.53141 0.22421 0.74419 0.0
O136 O 0.65465 0.17005 0.80137 0.0
O137 O 0.59108 0.16199 0.90678 0.0
O138 O 0.48799 0.17827 0.79286 0.0
O139 O 0.57939 0.2166 0.71799 0.0
C140 C 0.5033 0.07929 0.61429 0.0
O141 O 0.4459 0.03876 0.84996 0.0
O142 O 0.51973 0.0115 0.81377 0.0
In143 In 0.38116 0.56083 0.112 0.0
O144 O 0.42818 0.58066 0.97741 0.0
O145 O 0.338 0.48638 1.00177 0.0
C146 C 0.42268 0.67215 0.2122 0.0
C147 C 0.42615 0.48322 0.17873 0.0
C148 C 0.26461 0.55276 0.07755 0.0
O149 O 0.44205 0.67599 0.13472 0.0
O150 O 0.38653 0.61244 0.24014 0.0
O151 O 0.26713 0.50935 0.12624 0.0
O152 O 0.32022 0.60074 1.05135 0.0
C153 C 0.38143 0.52465 0.94766 0.0
O154 O 0.36453 0.46725 0.18334 0.0
O155 O 0.46564 0.54105 0.14715 0.0
loop_
_geom_bond_atom_site_label_1
_geom_bond_atom_site_label_2
_geom_bond_distance
_geom_bond_site_symmetry_2
_ccdc_geom_bond_type
In0 O1 2.294 . S
In0 O2 2.326 . S
In0 O6 2.266 . S
In0 O7 2.326 . S
In0 O8 2.266 . S
In0 O9 2.326 . S
In0 O11 2.294 . S
In0 O12 2.326 . S
O1 In0 2.294 . S
O1 C10 1.240 . S
O2 In0 2.326 . S
O2 C10 1.252 . S
C3 O6 1.252 . S
C3 O7 1.260 . S
C4 O11 1.240 . S
C4 O12 1.252 . S
C5 O8 1.252 . S
C5 O9 1.260 . S
O6 In0 2.266 . S
O6 C3 1.252 . S
O7 In0 2.326 . S
O7 C3 1.260 . S
O8 In0 2.266 . S
O8 C5 1.252 . S
O9 In0 2.326 . S
O9 C5 1.260 . S
C10 O1 1.240 . S
C10 O2 1.252 . S
O11 In0 2.294 . S
O11 C4 1.240 . S
O12 In0 2.326 . S
O12 C4 1.252 . S
In13 O14 2.294 . S
In13 O15 2.326 . S
In13 O19 2.266 . S
In13 O20 2.326 . S
In13 O21 2.266 . S
In13 O22 2.326 . S
In13 O24 2.294 . S
In13 O25 2.326 . S
O14 In13 2.294 . S
O14 C23 1.240 . S
O15 In13 2.326 . S
O15 C23 1.252 . S
C16 O19 1.252 . S
C16 O20 1.260 . S
C17 O24 1.240 . S
C17 O25 1.252 . S
C18 O21 1.252 . S
C18 O22 1.260 . S
O19 In13 2.266 . S
O19 C16 1.252 . S
O20 In13 2.326 . S
O20 C16 1.260 . S
O21 In13 2.266 . S
O21 C18 1.252 . S
O22 In13 2.326 . S
O22 C18 1.260 . S
C23 O14 1.240 . S
C23 O15 1.252 . S
O24 In13 2.294 . S
O24 C17 1.240 . S
O25 In13 2.326 . S
O25 C17 1.252 . S
In26 O27 2.281 1_556 S
In26 O28 2.313 1_556 S
In26 O32 2.271 . S
In26 O33 2.340 . S
In26 O34 2.271 . S
In26 O35 2.325 1_556 S
In26 O37 2.297 . S
In26 O38 2.326 1_556 S
O27 In26 2.281 1_554 S
O27 C36 1.240 . S
O28 In26 2.313 1_554 S
O28 C36 1.252 . S
C29 O32 1.252 . S
C29 O33 1.260 . S
C30 O37 1.240 . S
C30 O38 1.252 1_556 S
C31 O34 1.252 . S
C31 O35 1.260 1_556 S
O32 In26 2.271 . S
O32 C29 1.252 . S
O33 In26 2.340 . S
O33 C29 1.260 . S
O34 In26 2.271 . S
O34 C31 1.252 . S
O35 In26 2.325 1_554 S
O35 C31 1.260 1_554 S
C36 O27 1.240 . S
C36 O28 1.252 . S
O37 In26 2.297 . S
O37 C30 1.240 . S
O38 In26 2.326 1_554 S
O38 C30 1.252 1_554 S
In39 O40 2.294 . S
In39 O41 2.326 . S
In39 O45 2.266 . S
In39 O46 2.326 . S
In39 O47 2.266 . S
In39 O48 2.326 . S
In39 O50 2.294 . S
In39 O51 2.326 . S
O40 In39 2.294 . S
O40 C49 1.240 . S
O41 In39 2.326 . S
O41 C49 1.252 . S
C42 O45 1.252 . S
C42 O46 1.260 . S
C43 O50 1.240 . S
C43 O51 1.252 . S
C44 O47 1.252 . S
C44 O48 1.260 . S
O45 In39 2.266 . S
O45 C42 1.252 . S
O46 In39 2.326 . S
O46 C42 1.260 . S
O47 In39 2.266 . S
O47 C44 1.252 . S
O48 In39 2.326 . S
O48 C44 1.260 . S
C49 O40 1.240 . S
C49 O41 1.252 . S
O50 In39 2.294 . S
O50 C43 1.240 . S
O51 In39 2.326 . S
O51 C43 1.252 . S
In52 O53 2.294 . S
In52 O54 2.326 . S
In52 O58 2.266 . S
In52 O59 2.326 . S
In52 O60 2.266 . S
In52 O61 2.326 . S
In52 O63 2.294 . S
In52 O64 2.326 . S
O53 In52 2.294 . S
O53 C62 1.240 . S
O54 In52 2.326 . S
O54 C62 1.252 . S
C55 O58 1.252 . S
C55 O59 1.260 . S
C56 O63 1.240 . S
C56 O64 1.252 . S
C57 O60 1.252 . S
C57 O61 1.260 . S
O58 In52 2.266 . S
O58 C55 1.252 . S
O59 In52 2.326 . S
O59 C55 1.260 . S
O60 In52 2.266 . S
O60 C57 1.252 . S
O61 In52 2.326 . S
O61 C57 1.260 . S
C62 O53 1.240 . S
C62 O54 1.252 . S
O63 In52 2.294 . S
O63 C56 1.240 . S
O64 In52 2.326 . S
O64 C56 1.252 . S
In65 O66 2.297 . S
In65 O67 2.326 1_556 S
In65 O71 2.271 . S
In65 O72 2.325 1_556 S
In65 O73 2.271 . S
In65 O74 2.340 . S
In65 O76 2.281 1_556 S
In65 O77 2.313 1_556 S
O66 In65 2.297 . S
O66 C75 1.240 . S
O67 In65 2.326 1_554 S
O67 C75 1.252 1_554 S
C68 O71 1.252 . S
C68 O72 1.260 1_556 S
C69 O76 1.240 . S
C69 O77 1.252 . S
C70 O73 1.252 . S
C70 O74 1.260 . S
O71 In65 2.271 . S
O71 C68 1.252 . S
O72 In65 2.325 1_554 S
O72 C68 1.260 1_554 S
O73 In65 2.271 . S
O73 C70 1.252 . S
O74 In65 2.340 . S
O74 C70 1.260 . S
C75 O66 1.240 . S
C75 O67 1.252 1_556 S
O76 In65 2.281 1_554 S
O76 C69 1.240 . S
O77 In65 2.313 1_554 S
O77 C69 1.252 . S
In78 O79 2.294 . S
In78 O80 2.326 . S
In78 O84 2.266 . S
In78 O85 2.326 . S
In78 O86 2.266 . S
In78 O87 2.326 . S
In78 O89 2.294 . S
In78 O90 2.326 . S
O79 In78 2.294 . S
O79 C88 1.240 . S
O80 In78 2.326 . S
O80 C88 1.252 . S
C81 O84 1.252 . S
C81 O85 1.260 . S
C82 O89 1.240 . S
C82 O90 1.252 . S
C83 O86 1.252 . S
C83 O87 1.260 . S
O84 In78 2.266 . S
O84 C81 1.252 . S
O85 In78 2.326 . S
O85 C81 1.260 . S
O86 In78 2.266 . S
O86 C83 1.252 . S
O87 In78 2.326 . S
O87 C83 1.260 . S
C88 O79 1.240 . S
C88 O80 1.252 . S
O89 In78 2.294 . S
O89 C82 1.240 . S
O90 In78 2.326 . S
O90 C82 1.252 . S
In91 O92 2.294 . S
In91 O93 2.326 . S
In91 O97 2.266 . S
In91 O98 2.326 . S
In91 O99 2.266 . S
In91 O100 2.326 . S
In91 O102 2.294 . S
In91 O103 2.326 . S
O92 In91 2.294 . S
O92 C101 1.240 . S
O93 In91 2.326 . S
O93 C101 1.252 . S
C94 O97 1.252 . S
C94 O98 1.260 . S
C95 O102 1.240 . S
C95 O103 1.252 . S
C96 O99 1.252 . S
C96 O100 1.260 . S
O97 In91 2.266 . S
O97 C94 1.252 . S
O98 In91 2.326 . S
O98 C94 1.260 . S
O99 In91 2.266 . S
O99 C96 1.252 . S
O100 In91 2.326 . S
O100 C96 1.260 . S
C101 O92 1.240 . S
C101 O93 1.252 . S
O102 In91 2.294 . S
O102 C95 1.240 . S
O103 In91 2.326 . S
O103 C95 1.252 . S
In104 O105 2.294 1_554 S
In104 O106 2.326 1_554 S
In104 O110 2.266 . S
In104 O111 2.326 . S
In104 O112 2.266 . S
In104 O113 2.326 1_554 S
In104 O115 2.294 . S
In104 O116 2.326 1_554 S
O105 In104 2.294 1_556 S
O105 C114 1.240 . S
O106 In104 2.326 1_556 S
O106 C114 1.252 . S
C107 O110 1.252 . S
C107 O111 1.260 . S
C108 O115 1.240 . S
C108 O116 1.252 1_554 S
C109 O112 1.252 . S
C109 O113 1.260 1_554 S
O110 In104 2.266 . S
O110 C107 1.252 . S
O111 In104 2.326 . S
O111 C107 1.260 . S
O112 In104 2.266 . S
O112 C109 1.252 . S
O113 In104 2.326 1_556 S
O113 C109 1.260 1_556 S
C114 O105 1.240 . S
C114 O106 1.252 . S
O115 In104 2.294 . S
O115 C108 1.240 . S
O116 In104 2.326 1_556 S
O116 C108 1.252 1_556 S
In117 O118 2.294 . S
In117 O119 2.326 . S
In117 O123 2.266 . S
In117 O124 2.326 . S
In117 O125 2.266 . S
In117 O126 2.326 . S
In117 O128 2.294 . S
In117 O129 2.326 . S
O118 In117 2.294 . S
O118 C127 1.240 . S
O119 In117 2.326 . S
O119 C127 1.252 . S
C120 O123 1.252 . S
C120 O124 1.260 . S
C121 O128 1.240 . S
C121 O129 1.252 . S
C122 O125 1.252 . S
C122 O126 1.260 . S
O123 In117 2.266 . S
O123 C120 1.252 . S
O124 In117 2.326 . S
O124 C120 1.260 . S
O125 In117 2.266 . S
O125 C122 1.252 . S
O126 In117 2.326 . S
O126 C122 1.260 . S
C127 O118 1.240 . S
C127 O119 1.252 . S
O128 In117 2.294 . S
O128 C121 1.240 . S
O129 In117 2.326 . S
O129 C121 1.252 . S
In130 O131 2.294 . S
In130 O132 2.326 . S
In130 O136 2.266 . S
In130 O137 2.326 . S
In130 O138 2.266 . S
In130 O139 2.326 . S
In130 O141 2.294 . S
In130 O142 2.326 . S
O131 In130 2.294 . S
O131 C140 1.240 . S
O132 In130 2.326 . S
O132 C140 1.252 . S
C133 O136 1.252 . S
C133 O137 1.260 . S
C134 O141 1.240 . S
C134 O142 1.252 . S
C135 O138 1.252 . S
C135 O139 1.260 . S
O136 In130 2.266 . S
O136 C133 1.252 . S
O137 In130 2.326 . S
O137 C133 1.260 . S
O138 In130 2.266 . S
O138 C135 1.252 . S
O139 In130 2.326 . S
O139 C135 1.260 . S
C140 O131 1.240 . S
C140 O132 1.252 . S
O141 In130 2.294 . S
O141 C134 1.240 . S
O142 In130 2.326 . S
O142 C134 1.252 . S
In143 O144 2.294 1_554 S
In143 O145 2.326 1_554 S
In143 O149 2.266 . S
In143 O150 2.326 . S
In143 O151 2.266 . S
In143 O152 2.326 1_554 S
In143 O154 2.294 . S
In143 O155 2.326 1_554 S
O144 In143 2.294 1_556 S
O144 C153 1.240 . S
O145 In143 2.326 1_556 S
O145 C153 1.252 . S
C146 O149 1.252 . S
C146 O150 1.260 . S
C147 O154 1.240 . S
C147 O155 1.252 1_554 S
C148 O151 1.252 . S
C148 O152 1.260 1_554 S
O149 In143 2.266 . S
O149 C146 1.252 . S
O150 In143 2.326 . S
O150 C146 1.260 . S
O151 In143 2.266 . S
O151 C148 1.252 . S
O152 In143 2.326 1_556 S
O152 C148 1.260 1_556 S
C153 O144 1.240 . S
C153 O145 1.252 . S
O154 In143 2.294 . S
O154 C147 1.240 . S
O155 In143 2.326 1_556 S
O155 C147 1.252 1_556 S
C4 C140 2.825 . S
C23 C153 2.824 . S
C88 C36 2.824 . S
C49 C95 2.825 . S
C114 C62 2.824 . S
C121 C69 2.825 . S
C83 C3 1.121 . S
C94 C18 1.121 . S
C109 C31 1.121 1_554 S
C44 C120 1.121 . S
C57 C135 1.121 . S
C68 C148 1.121 1_556 S
C10 C43 1.704 1_545 S
C17 C56 1.705 . S
C30 C75 1.704 1_655 S
C127 C82 1.704 1_455 S
C134 C101 1.705 1_545 S
C147 C108 1.704 . S
C5 C107 2.016 . S
C122 C16 2.015 . S
C29 C133 2.016 . S
C146 C42 2.016 . S
C55 C81 2.015 . S
C70 C96 2.016 . S
