# Generated by pormake.
# Topology qzd, (4)-cn, num edge types: 1
# Building blocks:
#     Node 0, Type 0, BuildingBlock: NAWXER_clean_sbu_0, # of connection points: 4
#     Node 1, Type 0, BuildingBlock: NAWXER_clean_sbu_0, # of connection points: 4
#     Node 2, Type 0, BuildingBlock: NAWXER_clean_sbu_0, # of connection points: 4
#     Edge 3, Type (0, 0), BuildingBlock: TEMPAE_clean_linker_10, # of connection points: 2
#     Edge 4, Type (0, 0), BuildingBlock: TEMPAE_clean_linker_10, # of connection points: 2
#     Edge 5, Type (0, 0), BuildingBlock: TEMPAE_clean_linker_10, # of connection points: 2
#     Edge 6, Type (0, 0), BuildingBlock: TEMPAE_clean_linker_10, # of connection points: 2
#     Edge 7, Type (0, 0), BuildingBlock: TEMPAE_clean_linker_10, # of connection points: 2
#     Edge 8, Type (0, 0), BuildingBlock: TEMPAE_clean_linker_10, # of connection points: 2
# Relax obj value: 0.000
# Max RMSD: 0.038
# Mean RMSD: 0.038
data_MOF--net-qzd--node1-NAWXER_clean_sbu_0--edge1-TEMPAE_clean_linker_10
_symmetry_space_group_name_H-M    P1
_symmetry_Int_Tables_number       1
_symmetry_cell_setting            triclinic
loop_
_symmetry_equiv_pos_as_xyz
'x, y, z'
_cell_length_a     14.920266
_cell_length_b     14.916444
_cell_length_c     44.597705
_cell_angle_alpha  94.864905
_cell_angle_beta   94.788909
_cell_angle_gamma 120.00892
loop_
_atom_site_label
_atom_site_type_symbol
_atom_site_fract_x
_atom_site_fract_y
_atom_site_fract_z
_atom_type_partial_charge
C0 C 0.18346 0.87163 0.02665 0.0
C1 C 0.85668 0.87172 0.02674 0.0
O2 O 0.09151 0.79319 0.02441 0.0
Zn3 Zn 0.01955 0.8708 0.02679 0.0
O4 O 0.19813 0.96446 0.03042 0.0
Zn5 Zn 0.10461 0.0361 0.03509 0.0
O6 O 0.15324 0.10991 0.07603 0.0
O7 O 0.06007 0.93857 0.07417 0.0
O8 O 0.93722 0.96435 0.03231 0.0
O9 O 0.86822 0.79341 0.02124 0.0
O10 O 0.05157 0.9473 0.9867 0.0
O11 O 0.13539 0.11753 1.00202 0.0
C12 C 0.11143 0.03049 0.08974 0.0
C13 C 0.09582 0.04127 0.98047 0.0
C14 C 0.16416 0.18129 0.42807 0.0
C15 C 0.12278 0.13213 0.31717 0.0
O16 O 0.11317 0.22144 0.41644 0.0
Zn17 Zn 0.06231 0.23888 0.37166 0.0
O18 O 0.19914 0.13789 0.41067 0.0
Zn19 Zn 0.14473 0.15768 0.37264 0.0
O20 O 0.23952 0.32325 0.37187 0.0
O21 O 0.13608 0.38926 0.37299 0.0
O22 O 0.1669 0.10045 0.33553 0.0
O23 O 0.08142 0.18352 0.32767 0.0
O24 O 0.91166 0.16501 0.3695 0.0
O25 O 0.97841 0.06254 0.37255 0.0
C26 C 0.22659 0.40208 0.37215 0.0
C27 C 0.89916 0.07497 0.37123 0.0
C28 C 0.08636 0.10903 0.75741 0.0
C29 C 0.10604 0.10716 0.64868 0.0
O30 O 0.99562 0.06298 0.74124 0.0
Zn31 Zn 0.93164 0.02366 0.69365 0.0
O32 O 0.16751 0.1467 0.74435 0.0
Zn33 Zn 0.09679 0.10852 0.70307 0.0
O34 O 0.02474 0.20284 0.70172 0.0
O35 O 0.85421 0.09516 0.68976 0.0
O36 O 0.18096 0.14973 0.67065 0.0
O37 O 1.01141 0.05811 0.65428 0.0
O38 O 0.85414 0.87248 0.68866 0.0
O39 O 0.02543 0.9405 0.69617 0.0
C40 C 0.93211 0.18782 0.69608 0.0
C41 C 0.93261 0.8602 0.69122 0.0
C42 C 0.66677 0.78373 1.00565 0.0
C43 C 0.75167 0.85767 0.02717 0.0
C44 C 0.56887 0.77663 1.00451 0.0
C45 C 0.55518 0.84262 0.02609 0.0
C46 C 0.63978 0.91396 0.04873 0.0
C47 C 0.73747 0.92193 0.04863 0.0
C48 C 0.48163 0.70194 0.97947 0.0
C49 C 0.62779 0.98349 0.07271 0.0
C50 C 0.35507 0.92449 0.00947 0.0
C51 C 0.27397 0.85758 0.02463 0.0
C52 C 0.44461 0.91662 0.00847 0.0
C53 C 0.45498 0.84258 0.02401 0.0
C54 C 0.37254 0.77386 0.03908 0.0
C55 C 0.28196 0.781 0.03876 0.0
C56 C 0.5291 0.98917 0.99133 0.0
C57 C 0.38198 0.69615 0.05668 0.0
H58 H 0.67814 0.73456 0.98893 0.0
H59 H 0.80302 0.97842 0.06547 0.0
H60 H 0.41024 0.65008 0.98917 0.0
H61 H 0.46149 0.74695 0.96449 0.0
H62 H 0.50327 0.65261 0.96537 0.0
H63 H 0.69782 0.02679 0.09044 0.0
H64 H 0.61485 0.04124 0.06196 0.0
H65 H 0.55846 0.93618 0.08388 0.0
H66 H 0.34827 0.98304 0.99828 0.0
H67 H 0.21936 0.72977 0.05065 0.0
H68 H 0.55115 0.94391 0.97568 0.0
H69 H 0.60016 0.04523 0.00757 0.0
H70 H 0.50425 0.03443 0.97789 0.0
H71 H 0.40137 0.64628 0.04201 0.0
H72 H 0.30898 0.64491 0.06589 0.0
H73 H 0.4469 0.73876 0.07593 0.0
C74 C 0.78487 0.911 0.39152 0.0
C75 C 0.79478 0.98448 0.37248 0.0
C76 C 0.68754 0.82166 0.39225 0.0
C77 C 0.59861 0.8034 0.37261 0.0
C78 C 0.60801 0.87814 0.35354 0.0
C79 C 0.70595 0.96898 0.3541 0.0
C80 C 0.68043 0.7457 0.41361 0.0
C81 C 0.51582 0.85997 0.33163 0.0
C82 C 0.3923 0.51555 0.35255 0.0
C83 C 0.31713 0.50636 0.37084 0.0
C84 C 0.48162 0.61289 0.35179 0.0
C85 C 0.49808 0.70259 0.37068 0.0
C86 C 0.42167 0.69386 0.38901 0.0
C87 C 0.33094 0.59585 0.38846 0.0
C88 C 0.55942 0.61921 0.33121 0.0
C89 C 0.43789 0.78691 0.41015 0.0
H90 H 0.85355 0.92373 0.40598 0.0
H91 H 0.71396 0.02569 0.33926 0.0
H92 H 0.61549 0.72743 0.42703 0.0
H93 H 0.66314 0.67115 0.40032 0.0
H94 H 0.75411 0.77674 0.42958 0.0
H95 H 0.53475 0.92793 0.31946 0.0
H96 H 0.4903 0.79004 0.31456 0.0
H97 H 0.44868 0.84387 0.34382 0.0
H98 H 0.3809 0.44632 0.33867 0.0
H99 H 0.27291 0.58837 0.40274 0.0
H100 H 0.63344 0.63794 0.34512 0.0
H101 H 0.57814 0.68294 0.31727 0.0
H102 H 0.52986 0.54473 0.31573 0.0
H103 H 0.50691 0.81379 0.42768 0.0
H104 H 0.36887 0.76832 0.42178 0.0
H105 H 0.45445 0.85304 0.39745 0.0
C106 C 0.84083 0.67754 0.70348 0.0
C107 C 0.91847 0.75457 0.68948 0.0
C108 C 0.83414 0.58048 0.70467 0.0
C109 C 0.90446 0.55907 0.69058 0.0
C110 C 0.97968 0.63511 0.67515 0.0
C111 C 0.98708 0.73271 0.67532 0.0
C112 C 0.75517 0.50294 0.72216 0.0
C113 C 0.0539 0.61428 0.659 0.0
C114 C 0.98117 0.36868 0.71746 0.0
C115 C 0.91779 0.27883 0.69614 0.0
C116 C 0.97379 0.45866 0.71676 0.0
C117 C 0.90417 0.46009 0.69343 0.0
C118 C 0.8391 0.36895 0.672 0.0
C119 C 0.84544 0.27862 0.67395 0.0
C120 C 0.04212 0.5529 0.74064 0.0
C121 C 0.76634 0.36834 0.64624 0.0
H122 H 0.78848 0.69502 0.7147 0.0
H123 H 0.04669 0.79221 0.66432 0.0
H124 H 0.70615 0.42582 0.70767 0.0
H125 H 0.79667 0.49115 0.74189 0.0
H126 H 0.70318 0.52951 0.73068 0.0
H127 H 0.10025 0.67711 0.64553 0.0
H128 H 0.10888 0.60822 0.67587 0.0
H129 H 1.00983 0.53862 0.64354 0.0
H130 H 0.03664 0.36848 0.73476 0.0
H131 H 0.79718 0.20933 0.65727 0.0
H132 H 0.99419 0.5812 0.7511 0.0
H133 H 0.10098 0.61757 0.72994 0.0
H134 H 0.08401 0.53553 0.75891 0.0
H135 H 0.71376 0.39313 0.65519 0.0
H136 H 0.71777 0.28998 0.63225 0.0
H137 H 0.8128 0.42542 0.6313 0.0
C138 C 0.05687 0.13095 0.26361 0.0
C139 C 0.12117 0.11283 0.28391 0.0
C140 C 0.05627 0.11599 0.23208 0.0
C141 C 0.1225 0.0833 0.22053 0.0
C142 C 0.18748 0.06464 0.24087 0.0
C143 C 0.18556 0.079 0.27231 0.0
C144 C 0.9848 0.13537 0.21113 0.0
C145 C 0.25985 0.03064 0.22942 0.0
C146 C 0.05312 0.9584 0.13774 0.0
C147 C 0.11806 0.04333 0.12334 0.0
C148 C 0.05455 0.97004 0.16937 0.0
C149 C 0.12348 0.06871 0.18713 0.0
C150 C 0.19086 0.15423 0.17283 0.0
C151 C 0.18688 0.1407 0.14109 0.0
C152 C 0.98062 0.87727 0.1837 0.0
C153 C 0.26627 0.26038 0.19105 0.0
H154 H 1.00653 0.15667 0.27235 0.0
H155 H 0.23588 0.06536 0.28785 0.0
H156 H 0.0317 0.19831 0.19781 0.0
H157 H 0.93183 0.06379 0.19464 0.0
H158 H 0.93649 0.1584 0.2237 0.0
H159 H 0.30555 0.01955 0.24819 0.0
H160 H 0.21415 0.95609 0.21354 0.0
H161 H 0.31521 0.09001 0.21652 0.0
H162 H 0.99932 0.88297 0.1242 0.0
H163 H 0.23763 0.20658 0.13016 0.0
H164 H 0.92644 0.89494 0.19492 0.0
H165 H 0.02511 0.86147 0.20155 0.0
H166 H 0.93354 0.80529 0.1668 0.0
H167 H 0.22224 0.29187 0.20236 0.0
H168 H 0.31677 0.3175 0.1767 0.0
H169 H 0.317 0.25336 0.20921 0.0
C170 C 0.04461 0.05566 0.59274 0.0
C171 C 0.1264 0.1162 0.61677 0.0
C172 C 0.06009 0.06714 0.56239 0.0
C173 C 0.15962 0.14171 0.55582 0.0
C174 C 0.24333 0.20133 0.57989 0.0
C175 C 0.22584 0.18755 0.6101 0.0
C176 C 0.969 1.00117 0.53738 0.0
C177 C 0.35039 0.28194 0.57378 0.0
C178 C 0.20367 0.11244 0.47366 0.0
C179 C 0.17517 0.17967 0.46133 0.0
C180 C 0.20272 0.1019 0.50468 0.0
C181 C 0.17356 0.16073 0.52383 0.0
C182 C 0.1496 0.23234 0.51179 0.0
C183 C 0.15019 0.24054 0.48069 0.0
C184 C 0.22821 0.02432 0.51663 0.0
C185 C 0.11926 0.29741 0.5315 0.0
H186 H 0.96774 0.9997 0.59764 0.0
H187 H 0.28945 0.23468 0.62853 0.0
H188 H 0.9486 0.05224 0.52542 0.0
H189 H 0.99072 0.95959 0.52032 0.0
H190 H 0.89845 0.94241 0.54617 0.0
H191 H 0.40882 0.31689 0.59477 0.0
H192 H 0.37843 0.24627 0.55693 0.0
H193 H 0.34591 0.34556 0.56385 0.0
H194 H 0.22291 0.06499 0.45886 0.0
H195 H 0.1289 0.29333 0.47142 0.0
H196 H 0.15676 0.95876 0.52307 0.0
H197 H 0.28726 0.06171 0.5374 0.0
H198 H 0.25837 0.99163 0.49955 0.0
H199 H 0.0434 0.24553 0.5392 0.0
H200 H 0.11151 0.3556 0.51928 0.0
H201 H 0.17833 0.33949 0.55214 0.0
C202 C 0.18907 0.13797 0.8084 0.0
C203 C 0.0951 0.11395 0.79094 0.0
C204 C 0.19516 0.13408 0.83985 0.0
C205 C 0.10548 0.10669 0.85419 0.0
C206 C 1.0117 0.08651 0.83688 0.0
C207 C 1.00747 0.08977 0.80547 0.0
C208 C 0.29634 0.15534 0.85749 0.0
C209 C 0.91472 0.0583 0.85137 0.0
C210 C 0.07373 0.97663 0.92526 0.0
C211 C 0.10098 0.05965 0.94833 0.0
C212 C 0.07694 0.9916 0.89465 0.0
C213 C 0.10715 0.09188 0.8868 0.0
C214 C 0.13552 0.17633 0.90996 0.0
C215 C 0.13259 0.15934 0.94049 0.0
C216 C 0.04703 0.89967 0.87067 0.0
C217 C 0.16728 0.28414 0.90243 0.0
H218 H 0.25709 0.1566 0.79735 0.0
H219 H 0.93479 0.07204 0.79221 0.0
H220 H 0.32054 0.21554 0.87766 0.0
H221 H 0.28473 0.08294 0.86595 0.0
H222 H 0.36076 0.1823 0.84345 0.0
H223 H 0.85064 0.0528 0.83525 0.0
H224 H 0.88616 0.98185 0.85967 0.0
H225 H 0.93312 0.11742 0.87135 0.0
H226 H 0.04997 0.89951 0.93109 0.0
H227 H 0.15369 0.2239 0.95817 0.0
H228 H 0.11144 0.91871 0.85699 0.0
H229 H 0.9772 0.88284 0.85487 0.0
H230 H 0.02924 0.82779 0.88065 0.0
H231 H 0.23409 0.31188 0.88935 0.0
H232 H 0.18989 0.34214 0.92312 0.0
H233 H 0.10155 0.28108 0.88783 0.0
loop_
_geom_bond_atom_site_label_1
_geom_bond_atom_site_label_2
_geom_bond_distance
_geom_bond_site_symmetry_2
_ccdc_geom_bond_type
C0 O2 1.248 . S
C0 O4 1.256 1_565 S
C1 O8 1.250 . S
C1 O9 1.253 1_545 S
O2 C0 1.248 . S
O2 Zn3 2.028 1_455 S
Zn3 O2 2.028 1_655 S
Zn3 O7 2.035 . S
Zn3 O9 2.035 . S
Zn3 O10 2.028 1_554 S
O4 C0 1.256 1_545 S
O4 Zn5 2.035 . S
Zn5 O4 2.035 . S
Zn5 O6 2.028 . S
Zn5 O8 2.028 1_455 S
Zn5 O11 2.035 1_554 S
O6 Zn5 2.028 . S
O6 C12 1.250 . S
O7 Zn3 2.035 . S
O7 C12 1.255 1_665 S
O8 C1 1.250 . S
O8 Zn5 2.028 1_655 S
O9 C1 1.253 1_565 S
O9 Zn3 2.035 . S
O10 Zn3 2.028 1_556 S
O10 C13 1.247 1_655 S
O11 Zn5 2.035 1_556 S
O11 C13 1.258 1_545 S
C12 O6 1.250 . S
C12 O7 1.255 1_445 S
C13 O10 1.247 1_455 S
C13 O11 1.258 1_565 S
C14 O16 1.247 1_455 S
C14 O18 1.258 . S
C15 O22 1.244 1_655 S
C15 O23 1.261 . S
O16 C14 1.247 1_655 S
O16 Zn17 2.028 . S
Zn17 O16 2.028 . S
Zn17 O21 2.035 1_655 S
Zn17 O23 2.035 . S
Zn17 O24 2.028 1_545 S
O18 C14 1.258 . S
O18 Zn19 2.035 . S
Zn19 O18 2.035 . S
Zn19 O20 2.028 . S
Zn19 O22 2.028 . S
Zn19 O25 2.035 1_445 S
O20 Zn19 2.028 . S
O20 C26 1.247 . S
O21 Zn17 2.035 1_455 S
O21 C26 1.258 . S
O22 C15 1.244 1_455 S
O22 Zn19 2.028 . S
O23 C15 1.261 . S
O23 Zn17 2.035 . S
O24 Zn17 2.028 1_565 S
O24 C27 1.247 . S
O25 Zn19 2.035 1_665 S
O25 C27 1.258 . S
C26 O20 1.247 . S
C26 O21 1.258 . S
C27 O24 1.247 . S
C27 O25 1.258 . S
C28 O30 1.247 . S
C28 O32 1.258 . S
C29 O36 1.247 . S
C29 O37 1.258 . S
O30 C28 1.247 . S
O30 Zn31 2.028 1_455 S
Zn31 O30 2.028 1_655 S
Zn31 O35 2.035 1_655 S
Zn31 O37 2.035 1_655 S
Zn31 O38 2.028 1_645 S
O32 C28 1.258 . S
O32 Zn33 2.035 . S
Zn33 O32 2.035 . S
Zn33 O34 2.028 . S
Zn33 O36 2.028 . S
Zn33 O39 2.035 . S
O34 Zn33 2.028 . S
O34 C40 1.247 . S
O35 Zn31 2.035 1_455 S
O35 C40 1.258 . S
O36 C29 1.247 . S
O36 Zn33 2.028 . S
O37 C29 1.258 . S
O37 Zn31 2.035 1_455 S
O38 Zn31 2.028 1_465 S
O38 C41 1.247 . S
O39 Zn33 2.035 . S
O39 C41 1.258 1_545 S
C40 O34 1.247 . S
C40 O35 1.258 . S
C41 O38 1.247 . S
C41 O39 1.258 1_565 S
C42 C43 1.391 . S
C42 C44 1.394 . S
C42 H58 0.931 1_554 S
C43 C42 1.391 . S
C43 C47 1.376 1_565 S
C44 C42 1.394 . S
C44 C45 1.369 . S
C44 C48 1.531 1_554 S
C45 C44 1.369 . S
C45 C46 1.410 1_565 S
C45 C53 1.503 . S
C46 C45 1.410 1_545 S
C46 C47 1.392 . S
C46 C49 1.511 . S
C47 C43 1.376 1_545 S
C47 C46 1.392 . S
C47 H59 0.929 . S
C48 C44 1.531 1_556 S
C48 H60 0.981 . S
C48 H61 0.962 . S
C48 H62 0.960 . S
C49 C46 1.511 . S
C49 H63 0.961 . S
C49 H64 0.961 . S
C49 H65 0.961 . S
C50 C51 1.370 1_545 S
C50 C52 1.363 . S
C50 H66 0.931 1_554 S
C51 C50 1.370 1_565 S
C51 C55 1.408 . S
C52 C50 1.363 . S
C52 C53 1.370 1_545 S
C52 C56 1.524 1_554 S
C53 C45 1.503 . S
C53 C52 1.370 1_565 S
C53 C54 1.403 . S
C54 C53 1.403 . S
C54 C55 1.404 . S
C54 C57 1.539 . S
C55 C51 1.408 . S
C55 C54 1.404 . S
C55 H67 0.930 . S
C56 C52 1.524 1_556 S
C56 H68 0.956 . S
C56 H69 0.961 . S
C56 H70 0.961 . S
C57 C54 1.539 . S
C57 H71 0.958 . S
C57 H72 0.961 . S
C57 H73 0.960 . S
H58 C42 0.931 1_556 S
H59 C47 0.929 . S
H60 C48 0.981 . S
H61 C48 0.962 . S
H62 C48 0.960 . S
H63 C49 0.961 . S
H64 C49 0.961 . S
H65 C49 0.961 . S
H66 C50 0.931 1_556 S
H67 C55 0.930 . S
H68 C56 0.956 . S
H69 C56 0.961 . S
H70 C56 0.961 . S
H71 C57 0.958 . S
H72 C57 0.961 . S
H73 C57 0.960 . S
C74 C75 1.391 . S
C74 C76 1.394 . S
C74 H90 0.931 . S
C75 C74 1.391 . S
C75 C79 1.376 . S
C76 C74 1.394 . S
C76 C77 1.369 . S
C76 C80 1.531 . S
C77 C76 1.369 . S
C77 C78 1.410 . S
C77 C85 1.503 . S
C78 C77 1.410 . S
C78 C79 1.392 . S
C78 C81 1.511 . S
C79 C75 1.376 . S
C79 C78 1.392 . S
C79 H91 0.929 . S
C80 C76 1.531 . S
C80 H92 0.960 . S
C80 H93 0.962 . S
C80 H94 0.960 . S
C81 C78 1.511 . S
C81 H95 0.961 . S
C81 H96 0.961 . S
C81 H97 0.961 . S
C82 C83 1.370 . S
C82 C84 1.363 . S
C82 H98 0.931 . S
C83 C82 1.370 . S
C83 C87 1.408 . S
C84 C82 1.363 . S
C84 C85 1.370 . S
C84 C88 1.524 . S
C85 C77 1.503 . S
C85 C84 1.370 . S
C85 C86 1.403 . S
C86 C85 1.403 . S
C86 C87 1.404 . S
C86 C89 1.539 . S
C87 C83 1.408 . S
C87 C86 1.404 . S
C87 H99 0.930 . S
C88 C84 1.524 . S
C88 H100 0.956 . S
C88 H101 0.961 . S
C88 H102 0.961 . S
C89 C86 1.539 . S
C89 H103 0.958 . S
C89 H104 0.961 . S
C89 H105 0.960 . S
H90 C74 0.931 . S
H91 C79 0.929 . S
H92 C80 0.960 . S
H93 C80 0.962 . S
H94 C80 0.960 . S
H95 C81 0.961 . S
H96 C81 0.961 . S
H97 C81 0.961 . S
H98 C82 0.931 . S
H99 C87 0.930 . S
H100 C88 0.956 . S
H101 C88 0.961 . S
H102 C88 0.961 . S
H103 C89 0.958 . S
H104 C89 0.961 . S
H105 C89 0.960 . S
C106 C107 1.391 . S
C106 C108 1.394 . S
C106 H122 0.931 1_455 S
C107 C106 1.391 . S
C107 C111 1.376 . S
C108 C106 1.394 . S
C108 C109 1.369 . S
C108 C112 1.531 1_455 S
C109 C108 1.369 . S
C109 C110 1.410 . S
C109 C117 1.503 . S
C110 C109 1.410 . S
C110 C111 1.392 . S
C110 C113 1.511 . S
C111 C107 1.376 . S
C111 C110 1.392 . S
C111 H123 0.929 . S
C112 C108 1.531 1_655 S
C112 H124 0.960 . S
C112 H125 0.962 . S
C112 H126 0.960 . S
C113 C110 1.511 . S
C113 H127 0.961 . S
C113 H128 0.961 . S
C113 H129 0.961 . S
C114 C115 1.370 . S
C114 C116 1.363 . S
C114 H130 0.931 . S
C115 C114 1.370 . S
C115 C119 1.408 . S
C116 C114 1.363 . S
C116 C117 1.370 . S
C116 C120 1.524 . S
C117 C109 1.503 . S
C117 C116 1.370 . S
C117 C118 1.403 . S
C118 C117 1.403 . S
C118 C119 1.404 . S
C118 C121 1.539 1_455 S
C119 C115 1.408 . S
C119 C118 1.404 . S
C119 H131 0.929 1_455 S
C120 C116 1.524 . S
C120 H132 0.956 . S
C120 H133 0.961 . S
C120 H134 0.961 . S
C121 C118 1.539 1_655 S
C121 H135 0.958 . S
C121 H136 0.961 . S
C121 H137 0.960 . S
H122 C106 0.931 1_655 S
H123 C111 0.929 . S
H124 C112 0.960 . S
H125 C112 0.962 . S
H126 C112 0.960 . S
H127 C113 0.961 . S
H128 C113 0.961 . S
H129 C113 0.961 . S
H130 C114 0.931 . S
H131 C119 0.929 1_655 S
H132 C120 0.956 . S
H133 C120 0.961 . S
H134 C120 0.961 . S
H135 C121 0.958 . S
H136 C121 0.961 . S
H137 C121 0.960 . S
C138 C139 1.391 . S
C138 C140 1.394 . S
C138 H154 0.931 . S
C139 C138 1.391 . S
C139 C143 1.376 1_445 S
C140 C138 1.394 . S
C140 C141 1.369 . S
C140 C144 1.531 . S
C141 C140 1.369 . S
C141 C142 1.410 1_445 S
C141 C149 1.503 . S
C142 C141 1.410 1_665 S
C142 C143 1.392 . S
C142 C145 1.511 . S
C143 C139 1.376 1_665 S
C143 C142 1.392 . S
C143 H155 0.929 . S
C144 C140 1.531 . S
C144 H156 0.960 . S
C144 H157 0.962 . S
C144 H158 0.960 . S
C145 C142 1.511 . S
C145 H159 0.961 . S
C145 H160 0.961 . S
C145 H161 0.961 . S
C146 C147 1.370 1_655 S
C146 C148 1.363 . S
C146 H162 0.931 . S
C147 C146 1.370 1_455 S
C147 C151 1.408 . S
C148 C146 1.363 . S
C148 C149 1.370 1_655 S
C148 C152 1.524 . S
C149 C141 1.503 . S
C149 C148 1.370 1_455 S
C149 C150 1.403 . S
C150 C149 1.403 . S
C150 C151 1.404 . S
C150 C153 1.539 . S
C151 C147 1.408 . S
C151 C150 1.404 . S
C151 H163 0.930 1_545 S
C152 C148 1.524 . S
C152 H164 0.956 . S
C152 H165 0.961 . S
C152 H166 0.961 . S
C153 C150 1.539 . S
C153 H167 0.958 . S
C153 H168 0.961 1_545 S
C153 H169 0.960 1_545 S
H154 C138 0.931 . S
H155 C143 0.929 . S
H156 C144 0.960 . S
H157 C144 0.962 . S
H158 C144 0.960 . S
H159 C145 0.961 . S
H160 C145 0.961 . S
H161 C145 0.961 . S
H162 C146 0.931 . S
H163 C151 0.930 1_565 S
H164 C152 0.956 . S
H165 C152 0.961 . S
H166 C152 0.961 . S
H167 C153 0.958 . S
H168 C153 0.961 1_565 S
H169 C153 0.960 1_565 S
C170 C171 1.391 . S
C170 C172 1.394 . S
C170 H186 0.931 . S
C171 C170 1.391 . S
C171 C175 1.376 . S
C172 C170 1.394 . S
C172 C173 1.369 . S
C172 C176 1.531 1_455 S
C173 C172 1.369 . S
C173 C174 1.410 . S
C173 C181 1.503 . S
C174 C173 1.410 . S
C174 C175 1.392 . S
C174 C177 1.511 . S
C175 C171 1.376 . S
C175 C174 1.392 . S
C175 H187 0.929 . S
C176 C172 1.531 1_655 S
C176 H188 0.960 1_655 S
C176 H189 0.962 . S
C176 H190 0.960 . S
C177 C174 1.511 . S
C177 H191 0.961 1_545 S
C177 H192 0.961 . S
C177 H193 0.961 . S
C178 C179 1.370 1_655 S
C178 C180 1.363 . S
C178 H194 0.931 1_545 S
C179 C178 1.370 1_455 S
C179 C183 1.408 . S
C180 C178 1.363 . S
C180 C181 1.370 1_655 S
C180 C184 1.524 1_545 S
C181 C173 1.503 . S
C181 C180 1.370 1_455 S
C181 C182 1.403 . S
C182 C181 1.403 . S
C182 C183 1.404 . S
C182 C185 1.539 . S
C183 C179 1.408 . S
C183 C182 1.404 . S
C183 H195 0.930 . S
C184 C180 1.524 1_565 S
C184 H196 0.956 . S
C184 H197 0.961 . S
C184 H198 0.961 . S
C185 C182 1.539 . S
C185 H199 0.958 . S
C185 H200 0.961 . S
C185 H201 0.960 . S
H186 C170 0.931 . S
H187 C175 0.929 . S
H188 C176 0.960 1_455 S
H189 C176 0.962 . S
H190 C176 0.960 . S
H191 C177 0.961 1_565 S
H192 C177 0.961 . S
H193 C177 0.961 . S
H194 C178 0.931 1_565 S
H195 C183 0.930 . S
H196 C184 0.956 . S
H197 C184 0.961 . S
H198 C184 0.961 . S
H199 C185 0.958 . S
H200 C185 0.961 . S
H201 C185 0.960 . S
C202 C203 1.391 1_565 S
C202 C204 1.394 . S
C202 H218 0.931 . S
C203 C202 1.391 1_545 S
C203 C207 1.376 . S
C204 C202 1.394 . S
C204 C205 1.369 1_565 S
C204 C208 1.531 . S
C205 C204 1.369 1_545 S
C205 C206 1.410 . S
C205 C213 1.503 . S
C206 C205 1.410 . S
C206 C207 1.392 . S
C206 C209 1.511 . S
C207 C203 1.376 . S
C207 C206 1.392 . S
C207 H219 0.929 . S
C208 C204 1.531 . S
C208 H220 0.960 . S
C208 H221 0.962 1_455 S
C208 H222 0.960 . S
C209 C206 1.511 . S
C209 H223 0.961 . S
C209 H224 0.961 . S
C209 H225 0.961 . S
C210 C211 1.370 1_665 S
C210 C212 1.363 . S
C210 H226 0.931 . S
C211 C210 1.370 1_445 S
C211 C215 1.408 . S
C212 C210 1.363 . S
C212 C213 1.370 1_665 S
C212 C216 1.524 . S
C213 C205 1.503 . S
C213 C212 1.370 1_445 S
C213 C214 1.403 . S
C214 C213 1.403 . S
C214 C215 1.404 . S
C214 C217 1.539 . S
C215 C211 1.408 . S
C215 C214 1.404 . S
C215 H227 0.930 . S
C216 C212 1.524 . S
C216 H228 0.956 . S
C216 H229 0.961 1_565 S
C216 H230 0.961 . S
C217 C214 1.539 . S
C217 H231 0.958 . S
C217 H232 0.961 . S
C217 H233 0.960 . S
H218 C202 0.931 . S
H219 C207 0.929 . S
H220 C208 0.960 . S
H221 C208 0.962 1_655 S
H222 C208 0.960 . S
H223 C209 0.961 . S
H224 C209 0.961 . S
H225 C209 0.961 . S
H226 C210 0.931 . S
H227 C215 0.930 . S
H228 C216 0.956 . S
H229 C216 0.961 1_545 S
H230 C216 0.961 . S
H231 C217 0.958 . S
H232 C217 0.961 . S
H233 C217 0.960 . S
C43 C1 1.501 1_565 S
C51 C0 1.497 . S
C75 C27 1.497 . S
C83 C26 1.497 . S
C107 C41 1.489 . S
C115 C40 1.500 . S
C139 C15 1.514 1_455 S
C147 C12 1.524 . S
C171 C29 1.529 . S
C179 C14 1.520 . S
C203 C28 1.529 . S
C211 C13 1.526 1_545 S
