# Generated by pormake.
# Topology sxb, (6)-cn, num edge types: 1
# Building blocks:
#     Node 0, Type 0, BuildingBlock: VOLQOD_clean_sbu_1, # of connection points: 6
#     Node 1, Type 0, BuildingBlock: VOLQOD_clean_sbu_1, # of connection points: 6
#     Node 2, Type 0, BuildingBlock: VOLQOD_clean_sbu_1, # of connection points: 6
#     Node 3, Type 0, BuildingBlock: VOLQOD_clean_sbu_1, # of connection points: 6
#     Edge 4, Type (0, 0), BuildingBlock: AJUNOK_clean_linker_0, # of connection points: 2
#     Edge 5, Type (0, 0), BuildingBlock: AJUNOK_clean_linker_0, # of connection points: 2
#     Edge 6, Type (0, 0), BuildingBlock: AJUNOK_clean_linker_0, # of connection points: 2
#     Edge 7, Type (0, 0), BuildingBlock: AJUNOK_clean_linker_0, # of connection points: 2
#     Edge 8, Type (0, 0), BuildingBlock: AJUNOK_clean_linker_0, # of connection points: 2
#     Edge 9, Type (0, 0), BuildingBlock: AJUNOK_clean_linker_0, # of connection points: 2
#     Edge 10, Type (0, 0), BuildingBlock: AJUNOK_clean_linker_0, # of connection points: 2
#     Edge 11, Type (0, 0), BuildingBlock: AJUNOK_clean_linker_0, # of connection points: 2
#     Edge 12, Type (0, 0), BuildingBlock: AJUNOK_clean_linker_0, # of connection points: 2
#     Edge 13, Type (0, 0), BuildingBlock: AJUNOK_clean_linker_0, # of connection points: 2
#     Edge 14, Type (0, 0), BuildingBlock: AJUNOK_clean_linker_0, # of connection points: 2
#     Edge 15, Type (0, 0), BuildingBlock: AJUNOK_clean_linker_0, # of connection points: 2
# Relax obj value: 0.284
# Max RMSD: 0.223
# Mean RMSD: 0.222
data_MOF--net-sxb--node1-VOLQOD_clean_sbu_1--edge1-AJUNOK_clean_linker_0
_symmetry_space_group_name_H-M    P1
_symmetry_Int_Tables_number       1
_symmetry_cell_setting            triclinic
loop_
_symmetry_equiv_pos_as_xyz
'x, y, z'
_cell_length_a     12.12097
_cell_length_b     23.059525
_cell_length_c     26.464233
_cell_angle_alpha  89.818317
_cell_angle_beta   91.132211
_cell_angle_gamma 90.010167
loop_
_atom_site_label
_atom_site_type_symbol
_atom_site_fract_x
_atom_site_fract_y
_atom_site_fract_z
_atom_type_partial_charge
O0 O 0.94459 0.96419 0.88736 0.0
Zn1 Zn 0.90094 0.94833 0.95896 0.0
O2 O -0.03462 0.00761 0.00352 0.0
Zn3 Zn 0.07966 0.9749 0.04416 0.0
Zn4 Zn 0.01244 0.07472 0.96365 0.0
Zn5 Zn 0.85498 0.02961 0.05097 0.0
O6 O 0.06074 0.98093 0.1189 0.0
O7 O 0.90512 0.03008 0.12404 0.0
O8 O -0.0374 0.86658 0.97517 0.0
O9 O 0.1024 0.89335 0.02559 0.0
O10 O 0.21517 0.01449 0.02744 0.0
O11 O 0.17742 0.09032 0.97754 0.0
O12 O 0.90043 0.14201 0.97187 0.0
O13 O 0.73534 0.96257 0.96086 0.0
O14 O 0.79253 0.10606 0.0314 0.0
O15 O 0.73227 0.97396 0.04316 0.0
C16 C -0.01344 0.00795 0.86545 0.0
C17 C -0.01149 0.00602 0.14517 0.0
C18 C 0.24568 0.0584 0.00245 0.0
C19 C 0.05231 0.85507 -0.00047 0.0
C20 C 0.81531 0.14565 -0.00028 0.0
C21 C 0.68209 0.97404 0.00063 0.0
O22 O 0.0118 0.05363 0.88991 0.0
O23 O 0.04724 0.96059 0.3888 0.0
Zn24 Zn 0.06414 0.93966 0.46257 0.0
O25 O 0.01756 0.00493 0.50432 0.0
Zn26 Zn 0.13066 0.03543 0.54791 0.0
Zn27 Zn 0.95146 0.0659 0.46153 0.0
Zn28 Zn 0.90749 0.98107 0.55077 0.0
O29 O 0.10378 0.03073 0.62328 0.0
O30 O 0.95428 0.97631 0.62296 0.0
O31 O 0.23127 0.92834 0.47325 0.0
O32 O 0.26615 0.99404 0.53325 0.0
O33 O 0.16141 0.11639 0.52808 0.0
O34 O 0.02411 0.14517 0.47668 0.0
O35 O 0.78451 0.05489 0.46584 0.0
O36 O -0.03877 0.86902 0.47368 0.0
O37 O 0.78842 0.03873 0.54728 0.0
O38 O 0.84676 0.90536 0.53029 0.0
C39 C 0.01575 0.00598 0.36512 0.0
C40 C 0.03116 0.00222 0.64695 0.0
C41 C 0.11488 0.15504 0.50083 0.0
C42 C 0.29793 0.95496 0.50323 0.0
C43 C 0.73451 0.04101 0.50597 0.0
C44 C 0.87523 0.86488 0.50087 0.0
O45 O -0.01954 0.05012 0.38854 0.0
O46 O 0.38906 0.4591 0.87522 0.0
Zn47 Zn 0.36217 0.43405 0.94685 0.0
O48 O 0.41957 0.49211 -0.00521 0.0
Zn49 Zn 0.52518 0.45827 0.04022 0.0
Zn50 Zn 0.47353 0.55932 0.95899 0.0
Zn51 Zn 0.30399 0.51582 0.03855 0.0
O52 O 0.49804 0.47011 0.11392 0.0
O53 O 0.34705 0.52352 0.11195 0.0
O54 O 0.44121 0.35539 0.95777 0.0
O55 O 0.54543 0.3748 0.02595 0.0
O56 O 0.66682 0.49302 0.02474 0.0
O57 O 0.63994 0.56454 0.96892 0.0
O58 O 0.38334 0.63075 0.97704 0.0
O59 O 0.19476 0.43848 0.95209 0.0
O60 O 0.23913 0.59162 0.0153 0.0
O61 O 0.19535 0.45294 0.03391 0.0
C62 C 0.4209 0.50693 0.85627 0.0
C63 C 0.42536 0.49928 0.13662 0.0
C64 C 0.70321 0.53289 -0.0035 0.0
C65 C 0.51255 0.34018 0.99159 0.0
C66 C 0.28616 0.63488 -0.00522 0.0
C67 C 0.14252 0.44875 0.99239 0.0
O68 O 0.45147 0.54891 0.88426 0.0
O69 O 0.46629 0.47673 0.38302 0.0
Zn70 Zn 0.50181 0.46591 0.45626 0.0
O71 O 0.43651 0.52827 0.49516 0.0
Zn72 Zn 0.54503 0.55374 0.54407 0.0
Zn73 Zn 0.39203 0.59205 0.44928 0.0
Zn74 Zn 0.32043 0.49839 0.53514 0.0
O75 O 0.49968 0.55188 0.61586 0.0
O76 O 0.34313 0.50329 0.61082 0.0
O77 O 0.66702 0.48088 0.45934 0.0
O78 O 0.67661 0.50433 0.53968 0.0
O79 O 0.59353 0.63273 0.52738 0.0
O80 O 0.49238 0.66371 0.46159 0.0
O81 O 0.22535 0.60518 0.45609 0.0
O82 O 0.43701 0.38595 0.47494 0.0
O83 O 0.18711 0.54022 0.516 0.0
O84 O 0.29136 0.41675 0.51712 0.0
C85 C 0.43658 0.51992 0.3561 0.0
C86 C 0.41837 0.52802 0.63704 0.0
C87 C 0.56953 0.67128 0.49467 0.0
C88 C 0.72252 0.49916 0.49741 0.0
C89 C 0.15745 0.57947 0.48497 0.0
C90 C 0.3437 0.37651 0.49541 0.0
O91 O 0.41006 0.56795 0.37623 0.0
C92 C 0.11031 0.69289 -0.00457 0.0
C93 C 0.22662 0.69117 0.99253 0.0
C94 C 0.05257 0.74586 -0.00441 0.0
C95 C 0.10948 0.79881 -0.00613 0.0
H96 H 0.06344 0.653 -0.0021 0.0
H97 H -0.03638 0.74537 -0.00119 0.0
S98 S 0.41258 0.81852 0.98316 0.0
N99 N 0.39523 0.74759 0.98555 0.0
N100 N 0.28765 0.8465 0.9863 0.0
C101 C 0.22525 0.79762 0.98962 0.0
C102 C 0.2836 0.74401 0.98883 0.0
C103 C 0.58544 0.25055 0.03192 0.0
C104 C 0.5733 0.28488 0.9883 0.0
C105 C 0.66373 0.20595 0.03484 0.0
C106 C 0.73568 0.19467 -0.00525 0.0
H107 H 0.5363 0.25953 0.06476 0.0
H108 H 0.66959 0.18104 0.06957 0.0
S109 S 0.73638 0.2725 0.87177 0.0
N110 N 0.63784 0.30456 0.9037 0.0
N111 N 0.78657 0.22098 0.9092 0.0
C112 C 0.72318 0.22823 0.95046 0.0
C113 C 0.64158 0.27316 0.94722 0.0
C114 C 0.11584 0.26337 0.49289 0.0
C115 C 0.17387 0.21088 0.49528 0.0
C116 C 0.17231 0.31645 0.4921 0.0
C117 C 0.28888 0.31907 0.49259 0.0
H118 H 0.02649 0.26353 0.49335 0.0
H119 H 0.12387 0.35595 0.49147 0.0
S120 S 0.47887 0.19327 0.49355 0.0
N121 N 0.35436 0.16425 0.49476 0.0
N122 N 0.45971 0.26419 0.49232 0.0
C123 C 0.34772 0.26679 0.49256 0.0
C124 C 0.29038 0.21269 0.49424 0.0
C125 C 0.76725 0.7893 0.45242 0.0
C126 C 0.80263 0.81332 0.49883 0.0
C127 C 0.68623 0.74538 0.4506 0.0
C128 C 0.63935 0.7239 0.49519 0.0
H129 H 0.80051 0.80537 0.41736 0.0
H130 H 0.6626 0.72701 0.41435 0.0
S131 S 0.70526 0.77192 0.62602 0.0
N132 N 0.78478 0.8122 0.59013 0.0
N133 N 0.6346 0.72989 0.58677 0.0
C134 C 0.67456 0.74766 0.54161 0.0
C135 C 0.75566 0.79226 0.54342 0.0
C136 C 0.43274 0.06237 0.03804 0.0
C137 C 0.36468 0.06104 -0.00538 0.0
C138 C 0.53531 0.03468 0.03912 0.0
C139 C 0.57416 0.00445 -0.00327 0.0
H140 H 0.40189 0.08006 0.07293 0.0
H141 H 0.58239 0.03533 0.07433 0.0
S142 S 0.43221 0.99547 0.87142 0.0
N143 N 0.34664 0.03278 0.90664 0.0
N144 N 0.54081 0.9811 0.90806 0.0
C145 C 0.51083 0.00728 0.95161 0.0
C146 C 0.40613 0.03585 0.95063 0.0
C147 C 0.4581 0.98579 0.45492 0.0
C148 C 0.41725 0.95407 0.49601 0.0
C149 C 0.56147 0.01322 0.45799 0.0
C150 C 0.62715 0.00995 0.50237 0.0
H151 H 0.40537 0.99433 0.42218 0.0
H152 H 0.58748 0.03942 0.42633 0.0
S153 S 0.56358 0.9228 0.61694 0.0
N154 N 0.45458 0.91448 0.57932 0.0
N155 N 0.64908 0.96476 0.58569 0.0
C156 C 0.59066 0.9738 0.54197 0.0
C157 C 0.48599 0.94588 0.53848 0.0
C158 C 0.89036 0.53246 0.03191 0.0
C159 C 0.82185 0.53101 0.98878 0.0
C160 C -0.00661 0.5057 0.0323 0.0
C161 C 0.03215 0.4762 0.98948 0.0
H162 H 0.86039 0.55044 0.06687 0.0
H163 H 0.04141 0.50698 0.06723 0.0
S164 S 0.88556 0.46444 0.86552 0.0
N165 N 0.80037 0.50144 0.90119 0.0
N166 N -0.00395 0.45138 0.90132 0.0
C167 C -0.03308 0.47771 0.94493 0.0
C168 C 0.86151 0.50533 0.94466 0.0
C169 C -0.00674 0.54547 0.43946 0.0
C170 C 0.03836 0.58278 0.47639 0.0
C171 C 0.89006 0.5192 0.44594 0.0
C172 C 0.82898 0.52935 0.48969 0.0
H173 H 0.04308 0.53155 0.40817 0.0
H174 H 0.86092 0.48842 0.41787 0.0
S175 S 0.90211 0.63438 0.59161 0.0
N176 N 0.00824 0.63596 0.55351 0.0
N177 N 0.81387 0.58788 0.56613 0.0
C178 C 0.86875 0.57154 0.52418 0.0
C179 C -0.02678 0.59828 0.51718 0.0
C180 C 0.94296 0.04453 0.28263 0.0
C181 C 0.01472 0.00669 0.30913 0.0
C182 C 0.93554 0.04415 0.22976 0.0
C183 C 0.0006 0.00646 0.20111 0.0
H184 H 0.8901 0.07393 0.30288 0.0
H185 H 0.87798 0.07367 0.21128 0.0
S186 S 0.20611 0.90078 0.25225 0.0
N187 N 0.15495 0.93181 0.30278 0.0
N188 N 0.14199 0.9313 0.20342 0.0
C189 C 0.07469 0.96924 0.22712 0.0
C190 C 0.08138 0.96927 0.28106 0.0
C191 C 0.94354 0.9666 0.7803 0.0
C192 C 0.00496 0.00559 0.8103 0.0
C193 C 0.95528 0.96488 0.72787 0.0
C194 C 0.02975 0.00174 0.70308 0.0
H195 H 0.88364 0.93797 0.79724 0.0
H196 H 0.90392 0.93484 0.70659 0.0
S197 S 0.21832 0.10797 0.76513 0.0
N198 N 0.14866 0.07933 0.81203 0.0
N199 N 0.17123 0.076 0.7133 0.0
C200 C 0.09501 0.03945 0.73287 0.0
C201 C 0.08235 0.04152 0.78643 0.0
C202 C 0.37337 0.55283 0.26986 0.0
C203 C 0.43543 0.51417 0.30027 0.0
C204 C 0.37042 0.54766 0.21704 0.0
C205 C 0.43067 0.50417 0.19251 0.0
H206 H 0.32559 0.58699 0.28695 0.0
H207 H 0.32091 0.57829 0.19531 0.0
S208 S 0.60814 0.39255 0.25478 0.0
N209 N 0.55983 0.4312 0.3018 0.0
N210 N 0.55465 0.42176 0.20286 0.0
C211 C 0.49389 0.46553 0.22247 0.0
C212 C 0.49608 0.47043 0.27621 0.0
C213 C 0.35222 0.4833 0.7172 0.0
C214 C 0.41564 0.52586 0.69298 0.0
C215 C 0.35494 0.47737 0.76992 0.0
C216 C 0.42003 0.51421 0.80058 0.0
H217 H 0.3019 0.4534 0.69529 0.0
H218 H 0.30518 0.44364 0.78672 0.0
S219 S 0.59823 0.63427 0.75594 0.0
N220 N 0.54331 0.6066 0.7038 0.0
N221 N 0.54795 0.59564 0.80277 0.0
C222 C 0.48224 0.55775 0.77691 0.0
C223 C 0.48015 0.56348 0.72319 0.0
loop_
_geom_bond_atom_site_label_1
_geom_bond_atom_site_label_2
_geom_bond_distance
_geom_bond_site_symmetry_2
_ccdc_geom_bond_type
O0 Zn1 1.953 . S
O0 C16 1.225 1_665 S
Zn1 O0 1.953 . S
Zn1 O2 1.949 1_666 S
Zn1 O8 1.919 1_655 S
Zn1 O13 1.924 . S
O2 Zn1 1.949 1_444 S
O2 Zn3 1.923 1_545 S
O2 Zn4 1.950 1_554 S
O2 Zn5 1.945 1_455 S
Zn3 O2 1.923 1_565 S
Zn3 O6 1.933 . S
Zn3 O9 1.941 . S
Zn3 O10 1.965 1_565 S
Zn4 O2 1.950 1_556 S
Zn4 O11 1.938 . S
Zn4 O12 1.906 . S
Zn4 O22 1.953 . S
Zn5 O2 1.945 1_655 S
Zn5 O7 1.932 . S
Zn5 O14 1.977 . S
Zn5 O15 1.910 . S
O6 Zn3 1.933 . S
O6 C17 1.226 1_565 S
O7 Zn5 1.932 . S
O7 C17 1.307 1_655 S
O8 Zn1 1.919 1_455 S
O8 C19 1.253 1_556 S
O9 Zn3 1.941 . S
O9 C19 1.283 . S
O10 Zn3 1.965 1_545 S
O10 C18 1.303 1_554 S
O11 Zn4 1.938 . S
O11 C18 1.247 . S
O12 Zn4 1.906 . S
O12 C20 1.304 1_456 S
O13 Zn1 1.924 . S
O13 C21 1.311 . S
O14 Zn5 1.977 . S
O14 C20 1.272 . S
O15 Zn5 1.910 . S
O15 C21 1.231 1_544 S
C16 O0 1.225 1_445 S
C16 O22 1.298 . S
C17 O6 1.226 1_545 S
C17 O7 1.307 1_455 S
C18 O10 1.303 1_556 S
C18 O11 1.247 . S
C19 O8 1.253 1_554 S
C19 O9 1.283 . S
C20 O12 1.304 1_654 S
C20 O14 1.272 . S
C21 O13 1.311 . S
C21 O15 1.231 1_566 S
O22 Zn4 1.953 . S
O22 C16 1.298 . S
O23 Zn24 1.953 . S
O23 C39 1.225 1_565 S
Zn24 O23 1.953 . S
Zn24 O25 1.954 1_565 S
Zn24 O31 1.919 . S
Zn24 O36 1.924 . S
O25 Zn24 1.954 1_545 S
O25 Zn26 1.928 . S
O25 Zn27 1.945 1_455 S
O25 Zn28 1.939 1_445 S
Zn26 O25 1.928 . S
Zn26 O29 1.933 . S
Zn26 O32 1.941 . S
Zn26 O33 1.965 . S
Zn27 O25 1.945 1_655 S
Zn27 O34 1.938 . S
Zn27 O35 1.906 . S
Zn27 O45 1.953 . S
Zn28 O25 1.939 1_665 S
Zn28 O30 1.932 . S
Zn28 O37 1.977 . S
Zn28 O38 1.910 . S
O29 Zn26 1.933 . S
O29 C40 1.226 . S
O30 Zn28 1.932 . S
O30 C40 1.307 1_665 S
O31 Zn24 1.919 . S
O31 C42 1.253 . S
O32 Zn26 1.941 . S
O32 C42 1.283 1_545 S
O33 Zn26 1.965 . S
O33 C41 1.303 . S
O34 Zn27 1.938 . S
O34 C41 1.247 1_655 S
O35 Zn27 1.906 . S
O35 C43 1.304 . S
O36 Zn24 1.924 . S
O36 C44 1.311 1_455 S
O37 Zn28 1.977 . S
O37 C43 1.272 1_565 S
O38 Zn28 1.910 . S
O38 C44 1.231 . S
C39 O23 1.225 1_545 S
C39 O45 1.298 1_455 S
C40 O29 1.226 . S
C40 O30 1.307 1_445 S
C41 O33 1.303 . S
C41 O34 1.247 1_455 S
C42 O31 1.253 . S
C42 O32 1.283 1_565 S
C43 O35 1.304 . S
C43 O37 1.272 1_545 S
C44 O36 1.311 1_655 S
C44 O38 1.231 . S
O45 Zn27 1.953 . S
O45 C39 1.298 1_655 S
O46 Zn47 1.953 . S
O46 C62 1.225 . S
Zn47 O46 1.953 . S
Zn47 O48 1.949 1_556 S
Zn47 O54 1.919 . S
Zn47 O59 1.924 . S
O48 Zn47 1.949 1_554 S
O48 Zn49 1.923 . S
O48 Zn50 1.950 1_554 S
O48 Zn51 1.945 . S
Zn49 O48 1.923 . S
Zn49 O52 1.933 . S
Zn49 O55 1.941 . S
Zn49 O56 1.965 . S
Zn50 O48 1.950 1_556 S
Zn50 O57 1.938 . S
Zn50 O58 1.906 . S
Zn50 O68 1.953 . S
Zn51 O48 1.945 . S
Zn51 O53 1.932 . S
Zn51 O60 1.977 . S
Zn51 O61 1.910 . S
O52 Zn49 1.933 . S
O52 C63 1.226 . S
O53 Zn51 1.932 . S
O53 C63 1.307 . S
O54 Zn47 1.919 . S
O54 C65 1.253 1_556 S
O55 Zn49 1.941 . S
O55 C65 1.283 . S
O56 Zn49 1.965 . S
O56 C64 1.303 1_554 S
O57 Zn50 1.938 . S
O57 C64 1.247 . S
O58 Zn50 1.906 . S
O58 C66 1.304 1_556 S
O59 Zn47 1.924 . S
O59 C67 1.311 . S
O60 Zn51 1.977 . S
O60 C66 1.272 . S
O61 Zn51 1.910 . S
O61 C67 1.231 1_554 S
C62 O46 1.225 . S
C62 O68 1.298 . S
C63 O52 1.226 . S
C63 O53 1.307 . S
C64 O56 1.303 1_556 S
C64 O57 1.247 . S
C65 O54 1.253 1_554 S
C65 O55 1.283 . S
C66 O58 1.304 1_554 S
C66 O60 1.272 . S
C67 O59 1.311 . S
C67 O61 1.231 1_556 S
O68 Zn50 1.953 . S
O68 C62 1.298 . S
O69 Zn70 1.953 . S
O69 C85 1.225 . S
Zn70 O69 1.953 . S
Zn70 O71 1.949 . S
Zn70 O77 1.919 . S
Zn70 O82 1.924 . S
O71 Zn70 1.949 . S
O71 Zn72 1.923 . S
O71 Zn73 1.950 . S
O71 Zn74 1.945 . S
Zn72 O71 1.923 . S
Zn72 O75 1.933 . S
Zn72 O78 1.941 . S
Zn72 O79 1.965 . S
Zn73 O71 1.950 . S
Zn73 O80 1.938 . S
Zn73 O81 1.906 . S
Zn73 O91 1.953 . S
Zn74 O71 1.945 . S
Zn74 O76 1.932 . S
Zn74 O83 1.977 . S
Zn74 O84 1.910 . S
O75 Zn72 1.933 . S
O75 C86 1.226 . S
O76 Zn74 1.932 . S
O76 C86 1.307 . S
O77 Zn70 1.919 . S
O77 C88 1.253 . S
O78 Zn72 1.941 . S
O78 C88 1.283 . S
O79 Zn72 1.965 . S
O79 C87 1.303 . S
O80 Zn73 1.938 . S
O80 C87 1.247 . S
O81 Zn73 1.906 . S
O81 C89 1.304 . S
O82 Zn70 1.924 . S
O82 C90 1.311 . S
O83 Zn74 1.977 . S
O83 C89 1.272 . S
O84 Zn74 1.910 . S
O84 C90 1.231 . S
C85 O69 1.225 . S
C85 O91 1.298 . S
C86 O75 1.226 . S
C86 O76 1.307 . S
C87 O79 1.303 . S
C87 O80 1.247 . S
C88 O77 1.253 . S
C88 O78 1.283 . S
C89 O81 1.304 . S
C89 O83 1.272 . S
C90 O82 1.311 . S
C90 O84 1.231 . S
O91 Zn73 1.953 . S
O91 C85 1.298 . S
C92 C93 1.369 1_556 S
C92 C94 1.419 . S
C92 H96 0.930 . S
C93 C92 1.369 1_554 S
C93 C102 1.429 . S
C94 C92 1.419 . S
C94 C95 1.363 1_556 S
C94 H97 0.929 . S
C95 C94 1.363 1_554 S
C95 C101 1.428 . S
H96 C92 0.930 . S
H97 C94 0.929 . S
S98 N99 1.613 . S
S98 N100 1.610 . S
N99 S98 1.613 . S
N99 C102 1.350 . S
N100 S98 1.610 . S
N100 C101 1.351 . S
C101 C95 1.428 . S
C101 N100 1.351 . S
C101 C102 1.434 . S
C102 C93 1.429 . S
C102 N99 1.350 . S
C102 C101 1.434 . S
C103 C104 1.369 . S
C103 C105 1.419 . S
C103 H107 0.930 . S
C104 C103 1.369 . S
C104 C113 1.429 1_554 S
C105 C103 1.419 . S
C105 C106 1.363 . S
C105 H108 0.929 . S
C106 C105 1.363 . S
C106 C112 1.428 1_554 S
H107 C103 0.930 . S
H108 C105 0.929 . S
S109 N110 1.613 . S
S109 N111 1.610 . S
N110 S109 1.613 . S
N110 C113 1.350 . S
N111 S109 1.610 . S
N111 C112 1.351 . S
C112 C106 1.428 1_556 S
C112 N111 1.351 . S
C112 C113 1.434 . S
C113 C104 1.429 1_556 S
C113 N110 1.350 . S
C113 C112 1.434 . S
C114 C115 1.369 . S
C114 C116 1.419 . S
C114 H118 0.930 . S
C115 C114 1.369 . S
C115 C124 1.429 . S
C116 C114 1.419 . S
C116 C117 1.363 . S
C116 H119 0.929 . S
C117 C116 1.363 . S
C117 C123 1.428 . S
H118 C114 0.930 . S
H119 C116 0.929 . S
S120 N121 1.613 . S
S120 N122 1.610 . S
N121 S120 1.613 . S
N121 C124 1.350 . S
N122 S120 1.610 . S
N122 C123 1.351 . S
C123 C117 1.428 . S
C123 N122 1.351 . S
C123 C124 1.434 . S
C124 C115 1.429 . S
C124 N121 1.350 . S
C124 C123 1.434 . S
C125 C126 1.369 . S
C125 C127 1.419 . S
C125 H129 0.930 . S
C126 C125 1.369 . S
C126 C135 1.429 . S
C127 C125 1.419 . S
C127 C128 1.363 . S
C127 H130 0.929 . S
C128 C127 1.363 . S
C128 C134 1.428 . S
H129 C125 0.930 . S
H130 C127 0.929 . S
S131 N132 1.613 . S
S131 N133 1.610 . S
N132 S131 1.613 . S
N132 C135 1.350 . S
N133 S131 1.610 . S
N133 C134 1.351 . S
C134 C128 1.428 . S
C134 N133 1.351 . S
C134 C135 1.434 . S
C135 C126 1.429 . S
C135 N132 1.350 . S
C135 C134 1.434 . S
C136 C137 1.369 . S
C136 C138 1.419 . S
C136 H140 0.930 . S
C137 C136 1.369 . S
C137 C146 1.429 1_545 S
C138 C136 1.419 . S
C138 C139 1.363 1_545 S
C138 H141 0.935 . S
C139 C138 1.363 1_565 S
C139 C145 1.428 . S
H140 C136 0.930 . S
H141 C138 0.935 . S
S142 N143 1.613 . S
S142 N144 1.610 . S
N143 S142 1.613 . S
N143 C146 1.350 . S
N144 S142 1.610 . S
N144 C145 1.351 . S
C145 C139 1.428 . S
C145 N144 1.351 . S
C145 C146 1.434 . S
C146 C137 1.429 1_565 S
C146 N143 1.350 . S
C146 C145 1.434 . S
C147 C148 1.369 . S
C147 C149 1.419 . S
C147 H151 0.930 . S
C148 C147 1.369 . S
C148 C157 1.429 1_565 S
C149 C147 1.419 . S
C149 C150 1.363 1_565 S
C149 H152 0.929 . S
C150 C149 1.363 1_545 S
C150 C156 1.428 . S
H151 C147 0.930 . S
H152 C149 0.929 . S
S153 N154 1.613 . S
S153 N155 1.610 . S
N154 S153 1.613 . S
N154 C157 1.350 . S
N155 S153 1.610 . S
N155 C156 1.351 . S
C156 C150 1.428 . S
C156 N155 1.351 . S
C156 C157 1.434 . S
C157 C148 1.429 1_545 S
C157 N154 1.350 . S
C157 C156 1.434 . S
C158 C159 1.369 1_554 S
C158 C160 1.419 1_655 S
C158 H162 0.930 . S
C159 C158 1.369 1_556 S
C159 C168 1.429 . S
C160 C158 1.419 1_455 S
C160 C161 1.363 1_554 S
C160 H163 0.929 . S
C161 C160 1.363 1_556 S
C161 C167 1.428 . S
H162 C158 0.930 . S
H163 C160 0.929 . S
S164 N165 1.613 . S
S164 N166 1.610 1_655 S
N165 S164 1.613 . S
N165 C168 1.350 . S
N166 S164 1.610 1_455 S
N166 C167 1.351 . S
C167 C161 1.428 . S
C167 N166 1.351 . S
C167 C168 1.434 1_455 S
C168 C159 1.429 . S
C168 N165 1.350 . S
C168 C167 1.434 1_655 S
C169 C170 1.369 . S
C169 C171 1.419 1_455 S
C169 H173 0.930 . S
C170 C169 1.369 . S
C170 C179 1.429 1_455 S
C171 C169 1.419 1_655 S
C171 C172 1.363 . S
C171 H174 0.929 . S
C172 C171 1.363 . S
C172 C178 1.428 . S
H173 C169 0.930 . S
H174 C171 0.929 . S
S175 N176 1.613 . S
S175 N177 1.610 . S
N176 S175 1.613 . S
N176 C179 1.350 . S
N177 S175 1.610 . S
N177 C178 1.351 . S
C178 C172 1.428 . S
C178 N177 1.351 . S
C178 C179 1.434 . S
C179 C170 1.429 1_655 S
C179 N176 1.350 . S
C179 C178 1.434 . S
C180 C181 1.369 1_665 S
C180 C182 1.419 . S
C180 H184 0.930 . S
C181 C180 1.369 1_445 S
C181 C190 1.429 . S
C182 C180 1.419 . S
C182 C183 1.363 1_665 S
C182 H185 0.929 . S
C183 C182 1.363 1_445 S
C183 C189 1.428 . S
H184 C180 0.930 . S
H185 C182 0.929 . S
S186 N187 1.613 . S
S186 N188 1.610 . S
N187 S186 1.613 . S
N187 C190 1.350 . S
N188 S186 1.610 . S
N188 C189 1.351 . S
C189 C183 1.428 . S
C189 N188 1.351 . S
C189 C190 1.434 . S
C190 C181 1.429 . S
C190 N187 1.350 . S
C190 C189 1.434 . S
C191 C192 1.369 1_665 S
C191 C193 1.419 . S
C191 H195 0.930 . S
C192 C191 1.369 1_445 S
C192 C201 1.429 . S
C193 C191 1.419 . S
C193 C194 1.363 1_665 S
C193 H196 0.929 . S
C194 C193 1.363 1_445 S
C194 C200 1.428 . S
H195 C191 0.930 . S
H196 C193 0.929 . S
S197 N198 1.613 . S
S197 N199 1.610 . S
N198 S197 1.613 . S
N198 C201 1.350 . S
N199 S197 1.610 . S
N199 C200 1.351 . S
C200 C194 1.428 . S
C200 N199 1.351 . S
C200 C201 1.434 . S
C201 C192 1.429 . S
C201 N198 1.350 . S
C201 C200 1.434 . S
C202 C203 1.369 . S
C202 C204 1.419 . S
C202 H206 0.930 . S
C203 C202 1.369 . S
C203 C212 1.429 . S
C204 C202 1.419 . S
C204 C205 1.363 . S
C204 H207 0.929 . S
C205 C204 1.363 . S
C205 C211 1.428 . S
H206 C202 0.930 . S
H207 C204 0.929 . S
S208 N209 1.613 . S
S208 N210 1.610 . S
N209 S208 1.613 . S
N209 C212 1.350 . S
N210 S208 1.610 . S
N210 C211 1.351 . S
C211 C205 1.428 . S
C211 N210 1.351 . S
C211 C212 1.434 . S
C212 C203 1.429 . S
C212 N209 1.350 . S
C212 C211 1.434 . S
C213 C214 1.369 . S
C213 C215 1.419 . S
C213 H217 0.930 . S
C214 C213 1.369 . S
C214 C223 1.429 . S
C215 C213 1.419 . S
C215 C216 1.363 . S
C215 H218 0.929 . S
C216 C215 1.363 . S
C216 C222 1.428 . S
H217 C213 0.930 . S
H218 C215 0.929 . S
S219 N220 1.613 . S
S219 N221 1.610 . S
N220 S219 1.613 . S
N220 C223 1.350 . S
N221 S219 1.610 . S
N221 C222 1.351 . S
C222 C216 1.428 . S
C222 N221 1.351 . S
C222 C223 1.434 . S
C223 C214 1.429 . S
C223 N220 1.350 . S
C223 C222 1.434 . S
C93 C66 1.595 . S
C95 C19 1.598 . S
C104 C65 1.592 . S
C106 C20 1.590 . S
C115 C41 1.710 . S
C117 C90 1.680 . S
C126 C44 1.676 . S
C128 C87 1.710 . S
C137 C18 1.007 . S
C139 C21 0.996 . S
C148 C42 0.915 . S
C150 C43 0.932 . S
C159 C64 1.012 . S
C161 C67 0.997 . S
C170 C89 0.935 . S
C172 C88 0.919 . S
C181 C39 1.499 . S
C183 C17 1.498 . S
C192 C16 1.500 . S
C194 C40 1.499 . S
C203 C85 1.499 . S
C205 C63 1.499 . S
C214 C86 1.499 . S
C216 C62 1.500 . S
