# Generated by pormake.
# Topology bcu, (8)-cn, num edge types: 1
# Building blocks:
#     Node 0, Type 0, BuildingBlock: TAGTUT_clean_sbu_3, # of connection points: 8
#     Node 1, Type 0, BuildingBlock: TAGTUT_clean_sbu_3, # of connection points: 8
#     Edge 2, Type (0, 0), BuildingBlock: FUNLAD_clean_linker_0, # of connection points: 2
#     Edge 3, Type (0, 0), BuildingBlock: FUNLAD_clean_linker_0, # of connection points: 2
#     Edge 4, Type (0, 0), BuildingBlock: FUNLAD_clean_linker_0, # of connection points: 2
#     Edge 5, Type (0, 0), BuildingBlock: FUNLAD_clean_linker_0, # of connection points: 2
#     Edge 6, Type (0, 0), BuildingBlock: FUNLAD_clean_linker_0, # of connection points: 2
#     Edge 7, Type (0, 0), BuildingBlock: FUNLAD_clean_linker_0, # of connection points: 2
#     Edge 8, Type (0, 0), BuildingBlock: FUNLAD_clean_linker_0, # of connection points: 2
#     Edge 9, Type (0, 0), BuildingBlock: FUNLAD_clean_linker_0, # of connection points: 2
# Relax obj value: 0.014
# Max RMSD: 0.066
# Mean RMSD: 0.066
data_MOF--net-bcu--node1-TAGTUT_clean_sbu_3--edge1-FUNLAD_clean_linker_0
_symmetry_space_group_name_H-M    P1
_symmetry_Int_Tables_number       1
_symmetry_cell_setting            triclinic
loop_
_symmetry_equiv_pos_as_xyz
'x, y, z'
_cell_length_a     22.004028
_cell_length_b     21.892411
_cell_length_c     25.205804
_cell_angle_alpha  90.301331
_cell_angle_beta   90.378002
_cell_angle_gamma 104.84818
loop_
_atom_site_label
_atom_site_type_symbol
_atom_site_fract_x
_atom_site_fract_y
_atom_site_fract_z
_atom_type_partial_charge
C0 C 0.12599 0.09242 0.02002 0.0
C1 C 0.18729 0.88547 0.0233 0.0
C2 C 0.10301 0.84928 0.86543 0.0
Mg3 Mg 1.0076 0.13232 -0.03015 0.0
Mg4 Mg 0.87215 0.02949 0.95008 0.0
O5 O 0.9585 0.0507 0.93717 0.0
Mg6 Mg 0.01239 0.99349 0.95729 0.0
O7 O 0.07257 0.94309 -0.02284 0.0
Mg8 Mg 0.14939 0.9866 0.93643 0.0
Mg9 Mg 0.05157 0.85493 -0.02307 0.0
C10 C 0.88851 0.90207 0.89751 0.0
O11 O 0.94658 0.94103 0.02216 0.0
O12 O 0.9438 0.18026 0.91917 0.0
O13 O 0.96104 0.84255 0.01448 0.0
O14 O 0.94037 0.12664 0.04108 0.0
O15 O 0.85361 0.10556 0.90432 0.0
O16 O 0.855 0.04664 0.03168 0.0
O17 O 0.08207 0.0367 0.89182 0.0
O18 O 0.07193 0.13539 0.89968 0.0
C19 C 0.09529 0.09435 0.87691 0.0
C20 C 0.88886 0.1615 0.89776 0.0
O21 O 0.94901 0.91791 0.90199 0.0
O22 O 0.2044 0.9333 -0.00769 0.0
O23 O 0.85308 0.93468 0.91732 0.0
O24 O 0.13517 0.90594 0.87436 0.0
O25 O 0.131 0.8503 0.02451 0.0
O26 O 0.0627 0.81983 0.89865 0.0
O27 O 0.06647 0.07318 0.01297 0.0
O28 O 0.16386 0.06588 -0.00327 0.0
C29 C 0.88798 0.09307 0.05848 0.0
C30 C 0.93113 0.8815 0.03247 0.0
C31 C 0.61818 0.59215 0.52738 0.0
C32 C 0.6955 0.38795 0.51353 0.0
C33 C 0.60853 0.3658 0.35813 0.0
Mg34 Mg 0.49582 0.62658 0.47813 0.0
Mg35 Mg 0.36675 0.5174 0.45042 0.0
O36 O 0.45351 0.54586 0.44043 0.0
Mg37 Mg 0.51172 0.49261 0.45893 0.0
O38 O 0.57568 0.44614 0.47791 0.0
Mg39 Mg 0.65092 0.49613 0.43844 0.0
Mg40 Mg 0.55799 0.35866 0.46963 0.0
C41 C 0.39524 0.39807 0.39283 0.0
O42 O 0.44622 0.43201 0.52003 0.0
O43 O 0.42941 0.67199 0.4283 0.0
O44 O 0.46803 0.33723 0.50877 0.0
O45 O 0.42431 0.61018 0.54728 0.0
O46 O 0.34399 0.59358 0.40759 0.0
O47 O 0.34435 0.52606 0.53226 0.0
O48 O 0.58126 0.54535 0.39677 0.0
O49 O 0.5644 0.64062 0.41014 0.0
C50 C 0.59192 0.60414 0.38558 0.0
C51 C 0.37612 0.65128 0.4045 0.0
O52 O 0.45534 0.41792 0.39909 0.0
O53 O 0.70904 0.4416 0.48966 0.0
O54 O 0.35598 0.42583 0.41326 0.0
O55 O 0.64189 0.42065 0.37164 0.0
O56 O 0.64077 0.34942 0.51071 0.0
O57 O 0.5655 0.33447 0.38816 0.0
O58 O 0.55909 0.57006 0.51906 0.0
O59 O 0.65893 0.5701 0.50321 0.0
C60 C 0.3729 0.57195 0.56187 0.0
C61 C 0.43464 0.37212 0.52818 0.0
C62 C 0.12602 0.14358 0.10872 0.0
C63 C 0.1533 0.14251 0.05871 0.0
C64 C 0.16043 0.18034 0.14977 0.0
C65 C 0.22217 0.21697 0.1409 0.0
C66 C 0.24683 0.22 0.08963 0.0
C67 C 0.21306 0.18253 0.04904 0.0
C68 C 0.26289 0.25128 0.18418 0.0
C69 C 0.26037 0.22959 0.23416 0.0
C70 C 0.30091 0.26487 0.27713 0.0
C71 C 0.27545 0.26525 0.32786 0.0
C72 C 0.30866 0.30547 0.36716 0.0
C73 C 0.36854 0.34487 0.35673 0.0
H74 H 0.38472 0.29911 0.22969 0.0
C75 C 0.39679 0.33984 0.30774 0.0
C76 C 0.363 0.30033 0.26797 0.0
H77 H 0.44301 0.36965 0.29887 0.0
H78 H 0.08002 0.11298 0.11704 0.0
H79 H 0.13924 0.17886 0.18853 0.0
H80 H 0.29379 0.24872 0.08162 0.0
H81 H 0.2349 0.18263 0.01061 0.0
H82 H 0.29793 0.29425 0.17382 0.0
H83 H 0.22529 0.18678 0.24477 0.0
H84 H 0.22821 0.23742 0.3361 0.0
H85 H 0.28619 0.30817 0.40493 0.0
C86 C 0.79586 0.09155 0.11702 0.0
C87 C 0.85998 0.11594 0.10555 0.0
C88 C 0.76575 0.12251 0.15312 0.0
C89 C 0.79929 0.17851 0.1786 0.0
C90 C 0.86438 0.19957 0.17058 0.0
C91 C 0.8944 0.16888 0.13432 0.0
C92 C 0.76845 0.21742 0.21253 0.0
C93 C 0.70694 0.21635 0.20917 0.0
C94 C 0.67897 0.25862 0.24188 0.0
C95 C 0.61743 0.23635 0.26068 0.0
C96 C 0.59241 0.273 0.29588 0.0
C97 C 0.62819 0.33315 0.31214 0.0
H98 H 0.75956 0.34011 0.23937 0.0
C99 C 0.68774 0.35744 0.28958 0.0
C100 C 0.71296 0.32051 0.25499 0.0
H101 H 0.71648 0.40374 0.30079 0.0
H102 H 0.76799 0.05042 0.09608 0.0
H103 H 0.7161 0.10304 0.15992 0.0
H104 H 0.89169 0.24181 0.19048 0.0
H105 H 0.94399 0.18863 0.12697 0.0
H106 H 0.7986 0.25062 0.23976 0.0
H107 H 0.67558 0.18303 0.18293 0.0
H108 H 0.5898 0.18931 0.25021 0.0
H109 H 0.54616 0.25304 0.31212 0.0
C110 C 0.8491 0.79099 0.06713 0.0
C111 C 0.87879 0.85592 0.06863 0.0
C112 C 0.80589 0.76402 0.10579 0.0
C113 C 0.79223 0.80138 0.14725 0.0
C114 C 0.8185 0.86703 0.14662 0.0
C115 C 0.86153 0.89423 0.10753 0.0
C116 C 0.75143 0.77328 0.19187 0.0
C117 C 0.74376 0.71286 0.20731 0.0
C118 C 0.7041 0.68481 0.25274 0.0
C119 C 0.6569 0.71135 0.27228 0.0
C120 C 0.62144 0.68499 0.31567 0.0
C121 C 0.63104 0.63059 0.33998 0.0
H122 H 0.74838 0.60758 0.26142 0.0
C123 C 0.67647 0.60237 0.31952 0.0
C124 C 0.71291 0.62952 0.27626 0.0
H125 H 0.68433 0.56006 0.33727 0.0
H126 H 0.86028 0.76062 0.03664 0.0
H127 H 0.78405 0.71383 0.10326 0.0
H128 H 0.80758 0.897 0.17756 0.0
H129 H 0.88338 0.94454 0.10928 0.0
H130 H 0.73081 0.80497 0.21459 0.0
H131 H 0.76971 0.68331 0.1877 0.0
H132 H 0.64612 0.75193 0.25402 0.0
H133 H 0.58551 0.70692 0.32957 0.0
C134 C 0.21079 0.88804 0.11883 0.0
C135 C 0.22892 0.87772 0.06705 0.0
C136 C 0.24301 0.87246 0.16229 0.0
C137 C 0.29333 0.84472 0.15485 0.0
C138 C 0.31409 0.83819 0.10289 0.0
C139 C 0.28192 0.8545 0.05907 0.0
C140 C 0.32222 0.81938 0.20048 0.0
C141 C 0.28811 0.79473 0.24318 0.0
C142 C 0.31206 0.76206 0.28693 0.0
C143 C 0.26912 0.71406 0.31399 0.0
C144 C 0.28966 0.67959 0.35357 0.0
C145 C 0.35355 0.69331 0.36781 0.0
H146 H 0.40981 0.81535 0.28321 0.0
C147 C 0.39625 0.74355 0.34267 0.0
C148 C 0.37576 0.77746 0.30232 0.0
H149 H 0.44586 0.75509 0.35269 0.0
H150 H 0.17035 0.90669 0.12567 0.0
H151 H 0.22732 0.88081 0.20165 0.0
H152 H 0.3533 0.81771 0.09614 0.0
H153 H 0.29648 0.84624 0.01929 0.0
H154 H 0.37019 0.8154 0.19655 0.0
H155 H 0.23834 0.79297 0.24405 0.0
H156 H 0.21965 0.70177 0.30333 0.0
H157 H 0.25561 0.64136 0.37237 0.0
C158 C 0.10544 0.74795 0.81925 0.0
C159 C 0.12115 0.81444 0.82008 0.0
C160 C 0.1341 0.71532 0.78322 0.0
C161 C 0.17896 0.74868 0.7471 0.0
C162 C 0.19068 0.81481 0.74538 0.0
C163 C 0.1624 0.84733 0.78146 0.0
C164 C 0.21695 0.71785 0.71213 0.0
C165 C 0.22084 0.6575 0.7162 0.0
C166 C 0.264 0.63245 0.68221 0.0
C167 C 0.24486 0.57055 0.66205 0.0
C168 C 0.28228 0.5488 0.62541 0.0
C169 C 0.34008 0.58834 0.60903 0.0
H170 H 0.34105 0.7172 0.68558 0.0
C171 C 0.3615 0.64827 0.63299 0.0
C172 C 0.32382 0.67014 0.669 0.0
H173 H 0.40597 0.67985 0.62186 0.0
H174 H 0.07361 0.72108 0.84831 0.0
H175 H 0.12198 0.66434 0.78506 0.0
H176 H 0.22416 0.84189 0.71752 0.0
H177 H 0.1752 0.89851 0.78059 0.0
H178 H 0.24556 0.7477 0.68247 0.0
H179 H 0.19144 0.62512 0.74361 0.0
H180 H 0.19952 0.54012 0.67255 0.0
H181 H 0.26459 0.50213 0.60817 0.0
C182 C 0.35668 0.37662 0.59892 0.0
C183 C 0.38214 0.34135 0.56261 0.0
C184 C 0.31168 0.34585 0.63522 0.0
C185 C 0.29162 0.27954 0.63579 0.0
C186 C 0.31423 0.24463 0.5972 0.0
C187 C 0.35931 0.27525 0.56122 0.0
C188 C 0.24763 0.24849 0.67739 0.0
C189 C 0.24287 0.18896 0.69394 0.0
C190 C 0.20159 0.16055 0.73821 0.0
C191 C 0.14828 0.18147 0.75116 0.0
C192 C 0.1138 0.15886 0.79599 0.0
C193 C 0.13062 0.11356 0.8281 0.0
H194 H 0.25666 0.09482 0.75878 0.0
C195 C 0.18092 0.08889 0.81335 0.0
C196 C 0.21646 0.11258 0.76865 0.0
H197 H 0.19402 0.05325 0.83728 0.0
H198 H 0.37309 0.42767 0.60063 0.0
H199 H 0.29402 0.37385 0.66401 0.0
H200 H 0.29769 0.19371 0.59467 0.0
H201 H 0.3769 0.24688 0.53271 0.0
H202 H 0.22192 0.27775 0.69769 0.0
H203 H 0.27332 0.1618 0.67759 0.0
H204 H 0.13304 0.21566 0.72712 0.0
H205 H 0.07375 0.17705 0.80558 0.0
C206 C 0.91106 0.24889 0.83086 0.0
C207 C 0.8675 0.20285 0.85954 0.0
C208 C 0.89116 0.27941 0.78781 0.0
C209 C 0.8271 0.26478 0.77316 0.0
C210 C 0.78352 0.22185 0.80426 0.0
C211 C 0.80339 0.19107 0.8467 0.0
C212 C 0.80325 0.28814 0.72388 0.0
C213 C 0.83785 0.3286 0.68873 0.0
C214 C 0.80903 0.34279 0.63833 0.0
C215 C 0.82245 0.4048 0.61894 0.0
C216 C 0.78864 0.41943 0.57551 0.0
C217 C 0.74136 0.37199 0.55075 0.0
H218 H 0.75635 0.24598 0.62314 0.0
C219 C 0.73224 0.30917 0.5674 0.0
C220 C 0.7658 0.29471 0.61051 0.0
H221 H 0.6971 0.2713 0.54854 0.0
H222 H 0.96089 0.25875 0.83969 0.0
H223 H 0.92648 0.3122 0.76523 0.0
H224 H 0.73384 0.20989 0.79437 0.0
H225 H 0.7686 0.15624 0.86828 0.0
H226 H 0.75349 0.26898 0.71513 0.0
H227 H 0.88643 0.35293 0.69705 0.0
H228 H 0.85645 0.44243 0.63919 0.0
H229 H 0.79686 0.46829 0.5635 0.0
C230 C 0.61382 0.63871 0.61752 0.0
C231 C 0.64195 0.64153 0.56751 0.0
C232 C 0.64573 0.67595 0.65945 0.0
C233 C 0.70579 0.71683 0.65145 0.0
C234 C 0.73087 0.7234 0.60023 0.0
C235 C 0.69963 0.68563 0.5588 0.0
C236 C 0.74499 0.7519 0.69527 0.0
C237 C 0.74193 0.73127 0.74561 0.0
C238 C 0.78398 0.76689 0.78749 0.0
C239 C 0.75918 0.77344 0.83758 0.0
C240 C 0.79519 0.81434 0.8752 0.0
C241 C 0.8571 0.84808 0.8637 0.0
H242 H 0.86839 0.79073 0.73964 0.0
C243 C 0.88399 0.8368 0.81554 0.0
C244 C 0.84751 0.79674 0.77747 0.0
H245 H 0.93163 0.86219 0.80581 0.0
H246 H 0.56932 0.60496 0.62506 0.0
H247 H 0.62399 0.67149 0.6981 0.0
H248 H 0.77648 0.75533 0.59282 0.0
H249 H 0.72201 0.68886 0.52037 0.0
H250 H 0.78041 0.79466 0.68494 0.0
H251 H 0.7065 0.68916 0.75708 0.0
H252 H 0.71072 0.75 0.84644 0.0
H253 H 0.77364 0.82192 0.91236 0.0
loop_
_geom_bond_atom_site_label_1
_geom_bond_atom_site_label_2
_geom_bond_distance
_geom_bond_site_symmetry_2
_ccdc_geom_bond_type
C0 O27 1.312 . S
C0 O28 1.208 . S
C1 O22 1.331 . S
C1 O25 1.244 . S
C2 O24 1.264 . S
C2 O26 1.273 . S
Mg3 O5 1.936 . S
Mg3 O12 2.081 . S
Mg3 O14 2.023 1_556 S
Mg3 O18 2.031 1_655 S
Mg3 O27 2.291 1_656 S
Mg4 O5 1.963 . S
Mg4 O15 1.942 . S
Mg4 O16 1.955 1_556 S
Mg4 O23 1.986 1_545 S
O5 Mg3 1.936 . S
O5 Mg4 1.963 . S
O5 Mg6 1.915 1_546 S
Mg6 O5 1.915 1_564 S
Mg6 O7 1.915 1_655 S
Mg6 O11 2.013 . S
Mg6 O17 2.114 1_664 S
Mg6 O21 2.013 1_554 S
Mg6 O27 2.114 1_665 S
O7 Mg6 1.915 1_455 S
O7 Mg8 1.936 . S
O7 Mg9 1.963 . S
Mg8 O7 1.936 . S
Mg8 O17 2.291 1_564 S
Mg8 O22 2.081 . S
Mg8 O24 2.023 1_554 S
Mg8 O28 2.031 1_565 S
Mg9 O7 1.963 . S
Mg9 O13 1.986 1_455 S
Mg9 O25 1.942 . S
Mg9 O26 1.955 1_554 S
C10 O21 1.191 . S
C10 O23 1.307 . S
O11 Mg6 2.013 . S
O11 C30 1.191 . S
O12 Mg3 2.081 . S
O12 C20 1.331 . S
O13 Mg9 1.986 1_655 S
O13 C30 1.307 . S
O14 Mg3 2.023 1_554 S
O14 C29 1.264 . S
O15 Mg4 1.942 . S
O15 C20 1.244 . S
O16 Mg4 1.955 1_554 S
O16 C29 1.273 . S
O17 Mg6 2.114 1_446 S
O17 Mg8 2.291 1_546 S
O17 C19 1.312 . S
O18 Mg3 2.031 1_455 S
O18 C19 1.208 . S
C19 O17 1.312 . S
C19 O18 1.208 . S
C20 O12 1.331 . S
C20 O15 1.244 . S
O21 Mg6 2.013 1_556 S
O21 C10 1.191 . S
O22 C1 1.331 . S
O22 Mg8 2.081 . S
O23 Mg4 1.986 1_565 S
O23 C10 1.307 . S
O24 C2 1.264 . S
O24 Mg8 2.023 1_556 S
O25 C1 1.244 . S
O25 Mg9 1.942 . S
O26 C2 1.273 . S
O26 Mg9 1.955 1_556 S
O27 C0 1.312 . S
O27 Mg3 2.291 1_454 S
O27 Mg6 2.114 1_445 S
O28 C0 1.208 . S
O28 Mg8 2.031 1_545 S
C29 O14 1.264 . S
C29 O16 1.273 . S
C30 O11 1.191 . S
C30 O13 1.307 . S
C31 O58 1.312 . S
C31 O59 1.208 . S
C32 O53 1.331 . S
C32 O56 1.244 . S
C33 O55 1.264 . S
C33 O57 1.273 . S
Mg34 O36 1.936 . S
Mg34 O43 2.081 . S
Mg34 O45 2.023 . S
Mg34 O49 2.031 . S
Mg34 O58 2.291 . S
Mg35 O36 1.963 . S
Mg35 O46 1.942 . S
Mg35 O47 1.955 . S
Mg35 O54 1.986 . S
O36 Mg34 1.936 . S
O36 Mg35 1.963 . S
O36 Mg37 1.915 . S
Mg37 O36 1.915 . S
Mg37 O38 1.915 . S
Mg37 O42 2.013 . S
Mg37 O48 2.114 . S
Mg37 O52 2.013 . S
Mg37 O58 2.114 . S
O38 Mg37 1.915 . S
O38 Mg39 1.936 . S
O38 Mg40 1.963 . S
Mg39 O38 1.936 . S
Mg39 O48 2.291 . S
Mg39 O53 2.081 . S
Mg39 O55 2.023 . S
Mg39 O59 2.031 . S
Mg40 O38 1.963 . S
Mg40 O44 1.986 . S
Mg40 O56 1.942 . S
Mg40 O57 1.955 . S
C41 O52 1.191 . S
C41 O54 1.307 . S
O42 Mg37 2.013 . S
O42 C61 1.191 . S
O43 Mg34 2.081 . S
O43 C51 1.331 . S
O44 Mg40 1.986 . S
O44 C61 1.307 . S
O45 Mg34 2.023 . S
O45 C60 1.264 . S
O46 Mg35 1.942 . S
O46 C51 1.244 . S
O47 Mg35 1.955 . S
O47 C60 1.273 . S
O48 Mg37 2.114 . S
O48 Mg39 2.291 . S
O48 C50 1.312 . S
O49 Mg34 2.031 . S
O49 C50 1.208 . S
C50 O48 1.312 . S
C50 O49 1.208 . S
C51 O43 1.331 . S
C51 O46 1.244 . S
O52 Mg37 2.013 . S
O52 C41 1.191 . S
O53 C32 1.331 . S
O53 Mg39 2.081 . S
O54 Mg35 1.986 . S
O54 C41 1.307 . S
O55 C33 1.264 . S
O55 Mg39 2.023 . S
O56 C32 1.244 . S
O56 Mg40 1.942 . S
O57 C33 1.273 . S
O57 Mg40 1.955 . S
O58 C31 1.312 . S
O58 Mg34 2.291 . S
O58 Mg37 2.114 . S
O59 C31 1.208 . S
O59 Mg39 2.031 . S
C60 O45 1.264 . S
C60 O47 1.273 . S
C61 O42 1.191 . S
C61 O44 1.307 . S
C62 C63 1.386 . S
C62 C64 1.383 . S
C62 H78 0.951 . S
C63 C62 1.386 . S
C63 C67 1.383 . S
C64 C62 1.383 . S
C64 C65 1.402 . S
C64 H79 0.951 . S
C65 C64 1.402 . S
C65 C66 1.375 . S
C65 C68 1.481 . S
C66 C65 1.375 . S
C66 C67 1.367 . S
C66 H80 0.951 . S
C67 C63 1.383 . S
C67 C66 1.367 . S
C67 H81 0.950 . S
C68 C65 1.481 . S
C68 C69 1.297 . S
C68 H82 0.950 . S
C69 C68 1.297 . S
C69 C70 1.479 . S
C69 H83 0.950 . S
C70 C69 1.479 . S
C70 C71 1.375 . S
C70 C76 1.404 . S
C71 C70 1.375 . S
C71 C72 1.369 . S
C71 H84 0.950 . S
C72 C71 1.369 . S
C72 C73 1.392 . S
C72 H85 0.951 . S
C73 C72 1.392 . S
C73 C75 1.384 . S
H74 C76 0.949 . S
C75 C73 1.384 . S
C75 C76 1.385 . S
C75 H77 0.950 . S
C76 C70 1.404 . S
C76 H74 0.949 . S
C76 C75 1.385 . S
H77 C75 0.950 . S
H78 C62 0.951 . S
H79 C64 0.951 . S
H80 C66 0.951 . S
H81 C67 0.950 . S
H82 C68 0.950 . S
H83 C69 0.950 . S
H84 C71 0.950 . S
H85 C72 0.951 . S
C86 C87 1.386 . S
C86 C88 1.383 . S
C86 H102 0.951 . S
C87 C86 1.386 . S
C87 C91 1.383 . S
C88 C86 1.383 . S
C88 C89 1.402 . S
C88 H103 0.951 . S
C89 C88 1.402 . S
C89 C90 1.375 . S
C89 C92 1.481 . S
C90 C89 1.375 . S
C90 C91 1.367 . S
C90 H104 0.951 . S
C91 C87 1.383 . S
C91 C90 1.367 . S
C91 H105 0.950 . S
C92 C89 1.481 . S
C92 C93 1.297 . S
C92 H106 0.950 . S
C93 C92 1.297 . S
C93 C94 1.479 . S
C93 H107 0.950 . S
C94 C93 1.479 . S
C94 C95 1.375 . S
C94 C100 1.404 . S
C95 C94 1.375 . S
C95 C96 1.369 . S
C95 H108 0.950 . S
C96 C95 1.369 . S
C96 C97 1.392 . S
C96 H109 0.951 . S
C97 C96 1.392 . S
C97 C99 1.384 . S
H98 C100 0.949 . S
C99 C97 1.384 . S
C99 C100 1.385 . S
C99 H101 0.950 . S
C100 C94 1.404 . S
C100 H98 0.949 . S
C100 C99 1.385 . S
H101 C99 0.950 . S
H102 C86 0.951 . S
H103 C88 0.951 . S
H104 C90 0.951 . S
H105 C91 0.950 . S
H106 C92 0.950 . S
H107 C93 0.950 . S
H108 C95 0.950 . S
H109 C96 0.951 . S
C110 C111 1.386 . S
C110 C112 1.383 . S
C110 H126 0.951 . S
C111 C110 1.386 . S
C111 C115 1.383 . S
C112 C110 1.383 . S
C112 C113 1.402 . S
C112 H127 0.951 . S
C113 C112 1.402 . S
C113 C114 1.375 . S
C113 C116 1.481 . S
C114 C113 1.375 . S
C114 C115 1.367 . S
C114 H128 0.951 . S
C115 C111 1.383 . S
C115 C114 1.367 . S
C115 H129 0.950 . S
C116 C113 1.481 . S
C116 C117 1.297 . S
C116 H130 0.950 . S
C117 C116 1.297 . S
C117 C118 1.479 . S
C117 H131 0.950 . S
C118 C117 1.479 . S
C118 C119 1.375 . S
C118 C124 1.404 . S
C119 C118 1.375 . S
C119 C120 1.369 . S
C119 H132 0.950 . S
C120 C119 1.369 . S
C120 C121 1.392 . S
C120 H133 0.951 . S
C121 C120 1.392 . S
C121 C123 1.384 . S
H122 C124 0.949 . S
C123 C121 1.384 . S
C123 C124 1.385 . S
C123 H125 0.950 . S
C124 C118 1.404 . S
C124 H122 0.949 . S
C124 C123 1.385 . S
H125 C123 0.950 . S
H126 C110 0.951 . S
H127 C112 0.951 . S
H128 C114 0.951 . S
H129 C115 0.950 . S
H130 C116 0.950 . S
H131 C117 0.950 . S
H132 C119 0.950 . S
H133 C120 0.951 . S
C134 C135 1.386 . S
C134 C136 1.383 . S
C134 H150 0.951 . S
C135 C134 1.386 . S
C135 C139 1.383 . S
C136 C134 1.383 . S
C136 C137 1.402 . S
C136 H151 0.951 . S
C137 C136 1.402 . S
C137 C138 1.375 . S
C137 C140 1.481 . S
C138 C137 1.375 . S
C138 C139 1.367 . S
C138 H152 0.951 . S
C139 C135 1.383 . S
C139 C138 1.367 . S
C139 H153 0.950 . S
C140 C137 1.481 . S
C140 C141 1.297 . S
C140 H154 0.950 . S
C141 C140 1.297 . S
C141 C142 1.479 . S
C141 H155 0.950 . S
C142 C141 1.479 . S
C142 C143 1.375 . S
C142 C148 1.404 . S
C143 C142 1.375 . S
C143 C144 1.369 . S
C143 H156 0.950 . S
C144 C143 1.369 . S
C144 C145 1.392 . S
C144 H157 0.951 . S
C145 C144 1.392 . S
C145 C147 1.384 . S
H146 C148 0.949 . S
C147 C145 1.384 . S
C147 C148 1.385 . S
C147 H149 0.950 . S
C148 C142 1.404 . S
C148 H146 0.949 . S
C148 C147 1.385 . S
H149 C147 0.950 . S
H150 C134 0.951 . S
H151 C136 0.951 . S
H152 C138 0.951 . S
H153 C139 0.950 . S
H154 C140 0.950 . S
H155 C141 0.950 . S
H156 C143 0.950 . S
H157 C144 0.951 . S
C158 C159 1.386 . S
C158 C160 1.383 . S
C158 H174 0.951 . S
C159 C158 1.386 . S
C159 C163 1.383 . S
C160 C158 1.383 . S
C160 C161 1.402 . S
C160 H175 0.951 . S
C161 C160 1.402 . S
C161 C162 1.375 . S
C161 C164 1.481 . S
C162 C161 1.375 . S
C162 C163 1.367 . S
C162 H176 0.951 . S
C163 C159 1.383 . S
C163 C162 1.367 . S
C163 H177 0.950 . S
C164 C161 1.481 . S
C164 C165 1.297 . S
C164 H178 0.950 . S
C165 C164 1.297 . S
C165 C166 1.479 . S
C165 H179 0.950 . S
C166 C165 1.479 . S
C166 C167 1.375 . S
C166 C172 1.404 . S
C167 C166 1.375 . S
C167 C168 1.369 . S
C167 H180 0.950 . S
C168 C167 1.369 . S
C168 C169 1.392 . S
C168 H181 0.951 . S
C169 C168 1.392 . S
C169 C171 1.384 . S
H170 C172 0.949 . S
C171 C169 1.384 . S
C171 C172 1.385 . S
C171 H173 0.950 . S
C172 C166 1.404 . S
C172 H170 0.949 . S
C172 C171 1.385 . S
H173 C171 0.950 . S
H174 C158 0.951 . S
H175 C160 0.951 . S
H176 C162 0.951 . S
H177 C163 0.950 . S
H178 C164 0.950 . S
H179 C165 0.950 . S
H180 C167 0.950 . S
H181 C168 0.951 . S
C182 C183 1.386 . S
C182 C184 1.383 . S
C182 H198 0.951 . S
C183 C182 1.386 . S
C183 C187 1.383 . S
C184 C182 1.383 . S
C184 C185 1.402 . S
C184 H199 0.951 . S
C185 C184 1.402 . S
C185 C186 1.375 . S
C185 C188 1.481 . S
C186 C185 1.375 . S
C186 C187 1.367 . S
C186 H200 0.951 . S
C187 C183 1.383 . S
C187 C186 1.367 . S
C187 H201 0.950 . S
C188 C185 1.481 . S
C188 C189 1.297 . S
C188 H202 0.950 . S
C189 C188 1.297 . S
C189 C190 1.479 . S
C189 H203 0.950 . S
C190 C189 1.479 . S
C190 C191 1.375 . S
C190 C196 1.404 . S
C191 C190 1.375 . S
C191 C192 1.369 . S
C191 H204 0.950 . S
C192 C191 1.369 . S
C192 C193 1.392 . S
C192 H205 0.951 . S
C193 C192 1.392 . S
C193 C195 1.384 . S
H194 C196 0.949 . S
C195 C193 1.384 . S
C195 C196 1.385 . S
C195 H197 0.950 . S
C196 C190 1.404 . S
C196 H194 0.949 . S
C196 C195 1.385 . S
H197 C195 0.950 . S
H198 C182 0.951 . S
H199 C184 0.951 . S
H200 C186 0.951 . S
H201 C187 0.950 . S
H202 C188 0.950 . S
H203 C189 0.950 . S
H204 C191 0.950 . S
H205 C192 0.951 . S
C206 C207 1.386 . S
C206 C208 1.383 . S
C206 H222 0.951 . S
C207 C206 1.386 . S
C207 C211 1.383 . S
C208 C206 1.383 . S
C208 C209 1.402 . S
C208 H223 0.951 . S
C209 C208 1.402 . S
C209 C210 1.375 . S
C209 C212 1.481 . S
C210 C209 1.375 . S
C210 C211 1.367 . S
C210 H224 0.951 . S
C211 C207 1.383 . S
C211 C210 1.367 . S
C211 H225 0.950 . S
C212 C209 1.481 . S
C212 C213 1.297 . S
C212 H226 0.950 . S
C213 C212 1.297 . S
C213 C214 1.479 . S
C213 H227 0.950 . S
C214 C213 1.479 . S
C214 C215 1.375 . S
C214 C220 1.404 . S
C215 C214 1.375 . S
C215 C216 1.369 . S
C215 H228 0.950 . S
C216 C215 1.369 . S
C216 C217 1.392 . S
C216 H229 0.951 . S
C217 C216 1.392 . S
C217 C219 1.384 . S
H218 C220 0.949 . S
C219 C217 1.384 . S
C219 C220 1.385 . S
C219 H221 0.950 . S
C220 C214 1.404 . S
C220 H218 0.949 . S
C220 C219 1.385 . S
H221 C219 0.950 . S
H222 C206 0.951 . S
H223 C208 0.951 . S
H224 C210 0.951 . S
H225 C211 0.950 . S
H226 C212 0.950 . S
H227 C213 0.950 . S
H228 C215 0.950 . S
H229 C216 0.951 . S
C230 C231 1.386 . S
C230 C232 1.383 . S
C230 H246 0.951 . S
C231 C230 1.386 . S
C231 C235 1.383 . S
C232 C230 1.383 . S
C232 C233 1.402 . S
C232 H247 0.951 . S
C233 C232 1.402 . S
C233 C234 1.375 . S
C233 C236 1.481 . S
C234 C233 1.375 . S
C234 C235 1.367 . S
C234 H248 0.951 . S
C235 C231 1.383 . S
C235 C234 1.367 . S
C235 H249 0.950 . S
C236 C233 1.481 . S
C236 C237 1.297 . S
C236 H250 0.950 . S
C237 C236 1.297 . S
C237 C238 1.479 . S
C237 H251 0.950 . S
C238 C237 1.479 . S
C238 C239 1.375 . S
C238 C244 1.404 . S
C239 C238 1.375 . S
C239 C240 1.369 . S
C239 H252 0.950 . S
C240 C239 1.369 . S
C240 C241 1.392 . S
C240 H253 0.951 . S
C241 C240 1.392 . S
C241 C243 1.384 . S
H242 C244 0.949 . S
C243 C241 1.384 . S
C243 C244 1.385 . S
C243 H245 0.950 . S
C244 C238 1.404 . S
C244 H242 0.949 . S
C244 C243 1.385 . S
H245 C243 0.950 . S
H246 C230 0.951 . S
H247 C232 0.951 . S
H248 C234 0.951 . S
H249 C235 0.950 . S
H250 C236 0.950 . S
H251 C237 0.950 . S
H252 C239 0.950 . S
H253 C240 0.951 . S
C63 C0 1.136 . S
C73 C41 1.228 . S
C87 C29 1.744 . S
C97 C33 1.717 . S
C111 C30 1.167 . S
C121 C50 1.228 . S
C135 C1 1.599 . S
C145 C51 1.626 . S
C159 C2 1.772 . S
C169 C60 1.725 . S
C183 C61 1.155 . S
C193 C19 1.211 . S
C207 C20 1.619 . S
C217 C32 1.574 . S
C231 C31 1.140 . S
C241 C10 1.189 . S
