# Generated by pormake.
# Topology qzd, (4)-cn, num edge types: 1
# Building blocks:
#     Node 0, Type 0, BuildingBlock: NAWXER_clean_sbu_0, # of connection points: 4
#     Node 1, Type 0, BuildingBlock: NAWXER_clean_sbu_0, # of connection points: 4
#     Node 2, Type 0, BuildingBlock: NAWXER_clean_sbu_0, # of connection points: 4
#     Edge 3, Type (0, 0), BuildingBlock: XUDNAN_clean_linker_2, # of connection points: 2
#     Edge 4, Type (0, 0), BuildingBlock: XUDNAN_clean_linker_2, # of connection points: 2
#     Edge 5, Type (0, 0), BuildingBlock: XUDNAN_clean_linker_2, # of connection points: 2
#     Edge 6, Type (0, 0), BuildingBlock: XUDNAN_clean_linker_2, # of connection points: 2
#     Edge 7, Type (0, 0), BuildingBlock: XUDNAN_clean_linker_2, # of connection points: 2
#     Edge 8, Type (0, 0), BuildingBlock: XUDNAN_clean_linker_2, # of connection points: 2
# Relax obj value: 0.000
# Max RMSD: 0.038
# Mean RMSD: 0.038
data_MOF--net-qzd--node1-NAWXER_clean_sbu_0--edge1-XUDNAN_clean_linker_2
_symmetry_space_group_name_H-M    P1
_symmetry_Int_Tables_number       1
_symmetry_cell_setting            triclinic
loop_
_symmetry_equiv_pos_as_xyz
'x, y, z'
_cell_length_a     14.652925
_cell_length_b     14.700825
_cell_length_c     43.566286
_cell_angle_alpha  94.617071
_cell_angle_beta   94.579484
_cell_angle_gamma 119.94101
loop_
_atom_site_label
_atom_site_type_symbol
_atom_site_fract_x
_atom_site_fract_y
_atom_site_fract_z
_atom_type_partial_charge
C0 C 0.0639 0.8806 0.01884 0.0
C1 C 0.73037 0.88256 0.01843 0.0
O2 O 0.97243 0.80513 1.00655 0.0
Zn3 Zn 0.89607 0.88074 0.01463 0.0
O4 O 0.07572 0.97013 0.0296 0.0
Zn5 Zn 0.98207 0.04345 0.03469 0.0
O6 O 1.01328 0.08765 0.07902 0.0
O7 O 0.92656 0.9136 0.0654 0.0
O8 O 0.81352 0.9719 0.02913 0.0
O9 O 0.74015 0.80662 1.00646 0.0
O10 O 0.94527 0.98943 0.98124 0.0
O11 O 0.03236 0.15063 1.00725 0.0
C12 C 0.97137 0.99477 0.08665 0.0
C13 C 0.99726 0.09012 0.98144 0.0
C14 C 0.0491 0.08869 0.42584 0.0
C15 C 0.03875 1.01269 0.31393 0.0
O16 O 1.00684 0.11344 0.40392 0.0
Zn17 Zn 0.04698 0.05423 0.36987 0.0
O18 O 0.09848 0.03958 0.4194 0.0
Zn19 Zn 0.13225 0.97698 0.37827 0.0
O20 O 0.28362 0.05103 0.38285 0.0
O21 O 0.21884 0.15524 0.37483 0.0
O22 O 0.08667 0.97548 0.32993 0.0
O23 O 1.00374 0.0659 0.32779 0.0
O24 O 0.95101 0.88488 0.37242 0.0
O25 O 0.06433 0.82973 0.38171 0.0
C26 C 0.2991 0.14238 0.37958 0.0
C27 C 0.9691 0.80981 0.37726 0.0
C28 C 0.10395 0.215 0.76606 0.0
C29 C 0.07347 0.17685 0.65277 0.0
O30 O 1.02011 0.16521 0.74639 0.0
Zn31 Zn 0.08906 0.19402 0.70941 0.0
O32 O 0.19513 0.26037 0.75653 0.0
Zn33 Zn 0.2549 0.27757 0.71237 0.0
O34 O 0.33552 0.42762 0.71376 0.0
O35 O 0.16316 0.36544 0.7114 0.0
O36 O 0.1707 0.22589 0.66563 0.0
O37 O 0.99947 0.1444 0.66966 0.0
O38 O 0.16196 0.09641 0.70989 0.0
O39 O 0.33457 0.20725 0.71378 0.0
C40 C 0.25835 0.44424 0.71285 0.0
C41 C 0.25719 0.11308 0.71181 0.0
H42 H 0.53981 0.78984 0.97829 0.0
H43 H 0.68858 0.94475 0.07228 0.0
H44 H 0.52437 0.93918 0.08361 0.0
H45 H 0.41015 0.93231 0.96631 0.0
H46 H 0.28964 0.82469 0.9441 0.0
H47 H 0.41248 0.82471 0.94411 0.0
H48 H 0.32522 0.64024 0.96272 0.0
H49 H 0.20179 0.63952 0.96269 0.0
H50 H 0.26253 0.6213 0.99748 0.0
H51 H 0.35806 0.93763 0.08382 0.0
H52 H 0.1931 0.94169 0.07275 0.0
H53 H 0.14264 0.78838 0.97856 0.0
C54 C 0.53611 0.81978 1.00141 0.0
C55 C 0.62628 0.86701 0.02457 0.0
C56 C 0.62021 0.90822 0.05431 0.0
C57 C 0.52714 0.9049 0.06102 0.0
C58 C 0.44041 0.86042 0.03769 0.0
C59 C 0.44323 0.81839 1.00846 0.0
C60 C 0.34111 0.78479 0.98701 0.0
C61 C 0.36481 0.84526 0.95872 0.0
C62 C 0.27898 0.66429 0.97688 0.0
C63 C 0.28281 0.81794 1.00856 0.0
C64 C 0.34174 0.85996 0.03777 0.0
C65 C 0.31017 0.90341 0.06124 0.0
C66 C 0.21665 0.90578 0.05468 0.0
C67 C 0.15512 0.86469 0.02495 0.0
C68 C 0.18734 0.81823 1.00168 0.0
H69 H 0.75436 0.73848 0.37022 0.0
H70 H 0.98265 0.63509 0.3866 0.0
H71 H 0.83615 0.45458 0.38923 0.0
H72 H 0.57621 0.58137 0.42172 0.0
H73 H 0.45746 0.55125 0.39687 0.0
H74 H 0.58011 0.67292 0.39596 0.0
H75 H 0.56586 0.62419 0.33659 0.0
H76 H 0.44303 0.50249 0.33729 0.0
H77 H 0.55183 0.49914 0.32174 0.0
H78 H 0.66679 0.28629 0.39045 0.0
H79 H 0.48366 0.13877 0.38944 0.0
H80 H 0.36342 0.34954 0.37222 0.0
C81 C 0.77356 0.67786 0.37428 0.0
C82 C 0.88019 0.70114 0.3782 0.0
C83 C 0.90177 0.61942 0.38352 0.0
C84 C 0.81908 0.51652 0.38508 0.0
C85 C 0.71513 0.4964 0.38126 0.0
C86 C 0.69187 0.57447 0.37591 0.0
C87 C 0.57298 0.53131 0.37264 0.0
C88 C 0.54509 0.58756 0.39833 0.0
C89 C 0.53098 0.53978 0.34013 0.0
C90 C 0.53328 0.41683 0.37697 0.0
C91 C 0.61679 0.39867 0.38194 0.0
C92 C 0.60062 0.29939 0.38656 0.0
C93 C 0.49616 0.21608 0.38595 0.0
C94 C 0.40894 0.23236 0.38075 0.0
C95 C 0.42824 0.33443 0.37628 0.0
H96 H 0.11109 0.90015 0.70924 0.0
H97 H 0.44957 0.12424 0.7149 0.0
H98 H 0.4855 0.97768 0.7158 0.0
H99 H 0.13459 0.73045 0.76045 0.0
H100 H 0.02695 0.60971 0.73841 0.0
H101 H 0.02682 0.73204 0.73792 0.0
H102 H 1.01033 0.70785 0.67776 0.0
H103 H 1.01028 0.58537 0.67809 0.0
H104 H 0.10671 0.6895 0.65917 0.0
H105 H 0.48596 0.80862 0.71637 0.0
H106 H 0.45071 0.62629 0.71622 0.0
H107 H 0.11198 0.51008 0.71023 0.0
C108 C 0.19274 0.91841 0.71062 0.0
C109 C 0.27749 0.02393 0.712 0.0
C110 C 0.38322 0.04426 0.71382 0.0
C111 C 0.40456 0.96151 0.71435 0.0
C112 C 0.31942 0.85869 0.71305 0.0
C113 C 0.21561 0.8366 0.71118 0.0
C114 C 0.13894 0.71877 0.71013 0.0
C115 C 0.07827 0.69647 0.73841 0.0
C116 C 0.06204 0.67268 0.67946 0.0
C117 C 0.21606 0.67837 0.71172 0.0
C118 C 0.3197 0.76056 0.71339 0.0
C119 C 0.40514 0.74349 0.71506 0.0
C120 C 0.38419 0.6395 0.71497 0.0
C121 C 0.27857 0.55365 0.71322 0.0
C122 C 0.19359 0.57384 0.71161 0.0
H123 H 0.02515 0.13619 0.27146 0.0
H124 H 1.01943 0.84093 0.27907 0.0
H125 H 0.99703 0.80315 0.22189 0.0
H126 H 0.83425 0.04553 0.20135 0.0
H127 H 0.9057 0.16734 0.18518 0.0
H128 H 0.91559 0.16918 0.22673 0.0
H129 H 0.12074 0.2626 0.23069 0.0
H130 H 0.11148 0.26092 0.18915 0.0
H131 H 0.17974 0.20268 0.20807 0.0
H132 H 0.97283 0.79533 0.16437 0.0
H133 H 0.96093 0.82366 0.10953 0.0
H134 H 0.99447 0.1297 0.13839 0.0
C135 C 1.01812 0.06322 0.26099 0.0
C136 C 0.02317 0.99096 0.27962 0.0
C137 C 1.01577 0.89726 0.2652 0.0
C138 C 1.0027 0.87496 0.23276 0.0
C139 C 0.99872 0.94789 0.21503 0.0
C140 C 1.00723 0.04065 0.22853 0.0
C141 C 1.00581 0.10781 0.20399 0.0
C142 C 0.90959 0.12334 0.20434 0.0
C143 C 0.1107 0.21483 0.20823 0.0
C144 C 0.99476 0.03797 0.17465 0.0
C145 C 0.98961 0.94562 0.18164 0.0
C146 C 0.97718 0.86749 0.15858 0.0
C147 C 0.97016 0.88419 0.12749 0.0
C148 C 0.97706 0.97892 0.1197 0.0
C149 C 0.98978 0.05688 0.14367 0.0
H150 H 0.19379 0.16262 0.60995 0.0
H151 H 0.89795 0.15664 0.61834 0.0
H152 H 0.86241 0.14104 0.56104 0.0
H153 H 0.26707 0.31129 0.546 0.0
H154 H 0.31803 0.23509 0.52749 0.0
H155 H 0.32117 0.24833 0.56908 0.0
H156 H 0.21621 0.04384 0.56656 0.0
H157 H 0.21363 0.02999 0.52501 0.0
H158 H 0.09103 0.96692 0.54145 0.0
H159 H 0.86415 0.13408 0.50262 0.0
H160 H 0.89143 0.11355 0.44768 0.0
H161 H 0.1798 0.11175 0.47791 0.0
C162 C 0.12156 0.15811 0.59971 0.0
C163 C 0.04889 0.16159 0.61851 0.0
C164 C 0.95451 0.1539 0.60429 0.0
C165 C 0.93402 0.14565 0.57182 0.0
C166 C 1.00793 0.14351 0.55393 0.0
C167 C 0.09889 0.14769 0.56738 0.0
C168 C 0.16323 0.13904 0.54299 0.0
C169 C 0.27392 0.23943 0.54662 0.0
C170 C 0.17145 0.03899 0.54407 0.0
C171 C 0.09475 0.13007 0.51369 0.0
C172 C 1.00626 0.1343 0.52045 0.0
C173 C 0.93277 0.12991 0.49707 0.0
C174 C 0.94919 0.11888 0.46597 0.0
C175 C 0.0374 0.11063 0.45858 0.0
C176 C 0.11123 0.11714 0.48285 0.0
H177 H 0.95678 0.0642 0.79672 0.0
H178 H 0.23915 0.37723 0.81139 0.0
H179 H 0.23396 0.38534 0.86812 0.0
H180 H 0.82395 0.10376 0.8598 0.0
H181 H 0.77696 0.97278 0.87011 0.0
H182 H 0.79631 0.99603 0.83053 0.0
H183 H 0.92153 0.91907 0.83138 0.0
H184 H 0.90247 0.89549 0.8709 0.0
H185 H 0.0349 0.97431 0.86125 0.0
H186 H 0.20004 0.35772 0.92333 0.0
H187 H 0.15061 0.28973 0.97314 0.0
H188 H 0.89793 0.98971 0.92261 0.0
C189 C 1.01631 0.13507 0.81189 0.0
C190 C 0.09762 0.22072 0.79976 0.0
C191 C 0.17599 0.31101 0.8203 0.0
C192 C 0.17338 0.3165 0.8525 0.0
C193 C 0.09272 0.23036 0.8638 0.0
C194 C 1.01626 0.14084 0.84416 0.0
C195 C 0.94372 0.0557 0.86241 0.0
C196 C 0.8284 0.03063 0.85529 0.0
C197 C 0.95117 0.95524 0.85611 0.0
C198 C 0.99178 0.111 0.89536 0.0
C199 C 0.07646 0.21235 0.89565 0.0
C200 C 0.13384 0.27846 0.92339 0.0
C201 C 0.105 0.23927 0.95157 0.0
C202 C 1.0207 0.13436 0.95178 0.0
C203 C 0.96295 0.07015 0.92323 0.0
loop_
_geom_bond_atom_site_label_1
_geom_bond_atom_site_label_2
_geom_bond_distance
_geom_bond_site_symmetry_2
_ccdc_geom_bond_type
C0 O2 1.248 . S
C0 O4 1.255 1_565 S
C1 O8 1.250 . S
C1 O9 1.253 1_545 S
O2 C0 1.248 . S
O2 Zn3 2.028 1_455 S
Zn3 O2 2.028 1_655 S
Zn3 O7 2.035 . S
Zn3 O9 2.035 . S
Zn3 O10 2.028 1_554 S
O4 C0 1.255 1_545 S
O4 Zn5 2.035 . S
Zn5 O4 2.035 . S
Zn5 O6 2.028 . S
Zn5 O8 2.028 1_455 S
Zn5 O11 2.035 1_554 S
O6 Zn5 2.028 . S
O6 C12 1.250 . S
O7 Zn3 2.035 . S
O7 C12 1.255 1_665 S
O8 C1 1.250 . S
O8 Zn5 2.028 1_655 S
O9 C1 1.253 1_565 S
O9 Zn3 2.035 . S
O10 Zn3 2.028 1_556 S
O10 C13 1.247 1_655 S
O11 Zn5 2.035 1_556 S
O11 C13 1.258 1_545 S
C12 O6 1.250 . S
C12 O7 1.255 1_445 S
C13 O10 1.247 1_455 S
C13 O11 1.258 1_565 S
C14 O16 1.247 1_455 S
C14 O18 1.258 . S
C15 O22 1.243 1_655 S
C15 O23 1.263 . S
O16 C14 1.247 1_655 S
O16 Zn17 2.028 . S
Zn17 O16 2.028 . S
Zn17 O21 2.035 1_655 S
Zn17 O23 2.035 . S
Zn17 O24 2.028 1_545 S
O18 C14 1.258 . S
O18 Zn19 2.035 . S
Zn19 O18 2.035 . S
Zn19 O20 2.028 . S
Zn19 O22 2.028 . S
Zn19 O25 2.035 1_445 S
O20 Zn19 2.028 . S
O20 C26 1.247 . S
O21 Zn17 2.035 1_455 S
O21 C26 1.258 . S
O22 C15 1.243 1_455 S
O22 Zn19 2.028 . S
O23 C15 1.263 . S
O23 Zn17 2.035 . S
O24 Zn17 2.028 1_565 S
O24 C27 1.247 . S
O25 Zn19 2.035 1_665 S
O25 C27 1.258 . S
C26 O20 1.247 . S
C26 O21 1.258 . S
C27 O24 1.247 . S
C27 O25 1.258 . S
C28 O30 1.247 . S
C28 O32 1.258 . S
C29 O36 1.247 . S
C29 O37 1.258 . S
O30 C28 1.247 . S
O30 Zn31 2.028 1_455 S
Zn31 O30 2.028 1_655 S
Zn31 O35 2.035 1_655 S
Zn31 O37 2.035 1_655 S
Zn31 O38 2.028 1_645 S
O32 C28 1.258 . S
O32 Zn33 2.035 . S
Zn33 O32 2.035 . S
Zn33 O34 2.028 . S
Zn33 O36 2.028 . S
Zn33 O39 2.042 . S
O34 Zn33 2.028 . S
O34 C40 1.247 . S
O35 Zn31 2.035 1_455 S
O35 C40 1.258 . S
O36 C29 1.247 . S
O36 Zn33 2.028 . S
O37 C29 1.258 . S
O37 Zn31 2.035 1_455 S
O38 Zn31 2.028 1_465 S
O38 C41 1.247 . S
O39 Zn33 2.042 . S
O39 C41 1.255 1_545 S
C40 O34 1.247 . S
C40 O35 1.258 . S
C41 O38 1.247 . S
C41 O39 1.255 1_565 S
H42 C54 0.930 . S
H43 C56 0.930 . S
H44 C57 0.930 . S
H45 C61 0.959 . S
H46 C61 0.959 . S
H47 C61 0.961 . S
H48 C62 0.960 . S
H49 C62 0.961 . S
H50 C62 0.959 . S
H51 C65 0.929 . S
H52 C66 0.931 . S
H53 C68 0.930 . S
C54 H42 0.930 . S
C54 C55 1.399 1_565 S
C54 C59 1.399 . S
C55 C54 1.399 1_545 S
C55 C56 1.376 . S
C56 H43 0.930 . S
C56 C55 1.376 . S
C56 C57 1.388 . S
C57 H44 0.930 . S
C57 C56 1.388 . S
C57 C58 1.390 . S
C58 C57 1.390 . S
C58 C59 1.394 1_545 S
C58 C64 1.465 . S
C59 C54 1.399 . S
C59 C58 1.394 1_565 S
C59 C60 1.516 . S
C60 C59 1.516 . S
C60 C61 1.502 1_554 S
C60 C62 1.561 . S
C60 C63 1.526 . S
C61 H45 0.959 . S
C61 H46 0.959 . S
C61 H47 0.961 . S
C61 C60 1.502 1_556 S
C62 H48 0.960 . S
C62 H49 0.961 . S
C62 H50 0.959 . S
C62 C60 1.561 . S
C63 C60 1.526 . S
C63 C64 1.396 1_565 S
C63 C68 1.390 . S
C64 C58 1.465 . S
C64 C63 1.396 1_545 S
C64 C65 1.399 . S
C65 H51 0.929 . S
C65 C64 1.399 . S
C65 C66 1.385 . S
C66 H52 0.931 . S
C66 C65 1.385 . S
C66 C67 1.389 . S
C67 C66 1.389 . S
C67 C68 1.387 1_545 S
C68 H53 0.930 . S
C68 C63 1.390 . S
C68 C67 1.387 1_565 S
H69 C81 0.930 . S
H70 C83 0.930 . S
H71 C84 0.930 . S
H72 C88 0.959 . S
H73 C88 0.959 . S
H74 C88 0.961 . S
H75 C89 0.960 . S
H76 C89 0.961 . S
H77 C89 0.959 . S
H78 C92 0.929 . S
H79 C93 0.931 . S
H80 C95 0.930 . S
C81 H69 0.930 . S
C81 C82 1.399 . S
C81 C86 1.399 . S
C82 C81 1.399 . S
C82 C83 1.376 . S
C83 H70 0.930 . S
C83 C82 1.376 . S
C83 C84 1.388 . S
C84 H71 0.930 . S
C84 C83 1.388 . S
C84 C85 1.390 . S
C85 C84 1.390 . S
C85 C86 1.394 . S
C85 C91 1.465 . S
C86 C81 1.399 . S
C86 C85 1.394 . S
C86 C87 1.516 . S
C87 C86 1.516 . S
C87 C88 1.502 . S
C87 C89 1.561 . S
C87 C90 1.526 . S
C88 H72 0.959 . S
C88 H73 0.959 . S
C88 H74 0.961 . S
C88 C87 1.502 . S
C89 H75 0.960 . S
C89 H76 0.961 . S
C89 H77 0.959 . S
C89 C87 1.561 . S
C90 C87 1.526 . S
C90 C91 1.396 . S
C90 C95 1.390 . S
C91 C85 1.465 . S
C91 C90 1.396 . S
C91 C92 1.399 . S
C92 H78 0.929 . S
C92 C91 1.399 . S
C92 C93 1.385 . S
C93 H79 0.931 . S
C93 C92 1.385 . S
C93 C94 1.389 . S
C94 C93 1.389 . S
C94 C95 1.387 . S
C95 H80 0.930 . S
C95 C90 1.390 . S
C95 C94 1.387 . S
H96 C108 0.930 . S
H97 C110 0.930 . S
H98 C111 0.930 . S
H99 C115 0.959 . S
H100 C115 0.959 . S
H101 C115 0.961 . S
H102 C116 0.960 . S
H103 C116 0.961 . S
H104 C116 0.959 . S
H105 C119 0.929 . S
H106 C120 0.931 . S
H107 C122 0.930 . S
C108 H96 0.930 . S
C108 C109 1.399 . S
C108 C113 1.399 . S
C109 C108 1.399 . S
C109 C110 1.376 . S
C110 H97 0.930 . S
C110 C109 1.376 . S
C110 C111 1.388 . S
C111 H98 0.930 . S
C111 C110 1.388 . S
C111 C112 1.390 . S
C112 C111 1.390 . S
C112 C113 1.394 . S
C112 C118 1.465 . S
C113 C108 1.399 . S
C113 C112 1.394 . S
C113 C114 1.516 . S
C114 C113 1.516 . S
C114 C115 1.502 1_455 S
C114 C116 1.561 . S
C114 C117 1.526 . S
C115 H99 0.959 . S
C115 H100 0.959 . S
C115 H101 0.961 . S
C115 C114 1.502 1_655 S
C116 H102 0.960 . S
C116 H103 0.961 . S
C116 H104 0.959 . S
C116 C114 1.561 . S
C117 C114 1.526 . S
C117 C118 1.396 . S
C117 C122 1.390 . S
C118 C112 1.465 . S
C118 C117 1.396 . S
C118 C119 1.399 . S
C119 H105 0.929 . S
C119 C118 1.399 . S
C119 C120 1.385 . S
C120 H106 0.931 . S
C120 C119 1.385 . S
C120 C121 1.389 . S
C121 C120 1.389 . S
C121 C122 1.387 . S
C122 H107 0.930 . S
C122 C117 1.390 . S
C122 C121 1.387 . S
H123 C135 0.930 . S
H124 C137 0.930 . S
H125 C138 0.930 . S
H126 C142 0.959 . S
H127 C142 0.959 . S
H128 C142 0.961 . S
H129 C143 0.960 . S
H130 C143 0.961 . S
H131 C143 0.959 . S
H132 C146 0.929 . S
H133 C147 0.931 . S
H134 C149 0.930 . S
C135 H123 0.930 . S
C135 C136 1.399 . S
C135 C140 1.399 . S
C136 C135 1.399 . S
C136 C137 1.376 1_545 S
C137 H124 0.930 . S
C137 C136 1.376 1_565 S
C137 C138 1.388 . S
C138 H125 0.930 . S
C138 C137 1.388 . S
C138 C139 1.390 1_565 S
C139 C138 1.390 1_545 S
C139 C140 1.394 . S
C139 C145 1.465 1_545 S
C140 C135 1.399 . S
C140 C139 1.394 . S
C140 C141 1.516 . S
C141 C140 1.516 . S
C141 C142 1.502 1_455 S
C141 C143 1.561 . S
C141 C144 1.526 . S
C142 H126 0.959 . S
C142 H127 0.959 . S
C142 H128 0.961 . S
C142 C141 1.502 1_655 S
C143 H129 0.960 . S
C143 H130 0.961 . S
C143 H131 0.959 . S
C143 C141 1.561 . S
C144 C141 1.526 . S
C144 C145 1.396 1_545 S
C144 C149 1.390 . S
C145 C139 1.465 1_565 S
C145 C144 1.396 1_565 S
C145 C146 1.399 . S
C146 H132 0.929 . S
C146 C145 1.399 . S
C146 C147 1.385 1_455 S
C147 H133 0.931 . S
C147 C146 1.385 1_655 S
C147 C148 1.389 1_655 S
C148 C147 1.389 1_455 S
C148 C149 1.387 1_565 S
C149 H134 0.930 . S
C149 C144 1.390 . S
C149 C148 1.387 1_545 S
H150 C162 0.930 1_565 S
H151 C164 0.930 . S
H152 C165 0.930 . S
H153 C169 0.959 . S
H154 C169 0.959 . S
H155 C169 0.961 . S
H156 C170 0.960 . S
H157 C170 0.961 . S
H158 C170 0.959 . S
H159 C173 0.929 . S
H160 C174 0.931 . S
H161 C176 0.930 1_665 S
C162 H150 0.930 1_545 S
C162 C163 1.399 . S
C162 C167 1.399 . S
C163 C162 1.399 . S
C163 C164 1.376 . S
C164 H151 0.930 . S
C164 C163 1.376 . S
C164 C165 1.388 . S
C165 H152 0.930 . S
C165 C164 1.388 . S
C165 C166 1.390 . S
C166 C165 1.390 . S
C166 C167 1.394 . S
C166 C172 1.465 . S
C167 C162 1.399 . S
C167 C166 1.394 . S
C167 C168 1.516 1_545 S
C168 C167 1.516 1_565 S
C168 C169 1.502 . S
C168 C170 1.561 1_455 S
C168 C171 1.526 1_565 S
C169 H153 0.959 . S
C169 H154 0.959 . S
C169 H155 0.961 . S
C169 C168 1.502 . S
C170 H156 0.960 . S
C170 H157 0.961 . S
C170 H158 0.959 . S
C170 C168 1.561 1_655 S
C171 C168 1.526 1_545 S
C171 C172 1.396 . S
C171 C176 1.390 . S
C172 C166 1.465 . S
C172 C171 1.396 . S
C172 C173 1.399 . S
C173 H159 0.929 . S
C173 C172 1.399 . S
C173 C174 1.385 . S
C174 H160 0.931 . S
C174 C173 1.385 . S
C174 C175 1.389 . S
C175 C174 1.389 . S
C175 C176 1.387 . S
C176 H161 0.930 1_445 S
C176 C171 1.390 . S
C176 C175 1.387 . S
H177 C189 0.930 1_655 S
H178 C191 0.930 . S
H179 C192 0.930 . S
H180 C196 0.959 . S
H181 C196 0.959 . S
H182 C196 0.961 . S
H183 C197 0.960 . S
H184 C197 0.961 . S
H185 C197 0.959 1_455 S
H186 C200 0.929 . S
H187 C201 0.931 . S
H188 C203 0.930 . S
C189 H177 0.930 1_455 S
C189 C190 1.399 1_565 S
C189 C194 1.399 1_565 S
C190 C189 1.399 1_545 S
C190 C191 1.376 . S
C191 H178 0.930 . S
C191 C190 1.376 . S
C191 C192 1.388 . S
C192 H179 0.930 . S
C192 C191 1.388 . S
C192 C193 1.390 . S
C193 C192 1.390 . S
C193 C194 1.394 . S
C193 C199 1.465 . S
C194 C189 1.399 1_545 S
C194 C193 1.394 . S
C194 C195 1.516 1_445 S
C195 C194 1.516 1_665 S
C195 C196 1.502 . S
C195 C197 1.561 . S
C195 C198 1.526 1_655 S
C196 H180 0.959 . S
C196 H181 0.959 . S
C196 H182 0.961 . S
C196 C195 1.502 . S
C197 H183 0.960 . S
C197 H184 0.961 . S
C197 H185 0.959 1_655 S
C197 C195 1.561 . S
C198 C195 1.526 1_455 S
C198 C199 1.396 1_565 S
C198 C203 1.390 1_455 S
C199 C193 1.465 . S
C199 C198 1.396 1_545 S
C199 C200 1.399 . S
C200 H186 0.929 . S
C200 C199 1.399 . S
C200 C201 1.385 . S
C201 H187 0.931 . S
C201 C200 1.385 . S
C201 C202 1.389 . S
C202 C201 1.389 . S
C202 C203 1.387 1_445 S
C203 H188 0.930 . S
C203 C198 1.390 1_655 S
C203 C202 1.387 1_665 S
C55 C1 1.499 . S
C67 C0 1.490 1_545 S
C82 C27 1.495 . S
C94 C26 1.486 . S
C109 C41 1.497 . S
C121 C40 1.485 . S
C136 C15 1.505 1_455 S
C148 C12 1.523 1_565 S
C163 C29 1.521 . S
C175 C14 1.519 . S
C190 C28 1.527 . S
C202 C13 1.515 1_545 S
