# Generated by pormake.
# Topology pcu, (6)-cn, num edge types: 1
# Building blocks:
#     Node 0, Type 0, BuildingBlock: CIFDUS_clean_sbu_1, # of connection points: 6
#     Edge 1, Type (0, 0), BuildingBlock: XUDNAN_clean_linker_2, # of connection points: 2
#     Edge 2, Type (0, 0), BuildingBlock: XUDNAN_clean_linker_2, # of connection points: 2
#     Edge 3, Type (0, 0), BuildingBlock: XUDNAN_clean_linker_2, # of connection points: 2
# Relax obj value: 0.009
# Max RMSD: 0.057
# Mean RMSD: 0.057
data_MOF--net-pcu--node1-CIFDUS_clean_sbu_1--edge1-XUDNAN_clean_linker_2
_symmetry_space_group_name_H-M    P1
_symmetry_Int_Tables_number       1
_symmetry_cell_setting            triclinic
loop_
_symmetry_equiv_pos_as_xyz
'x, y, z'
_cell_length_a     15.704219
_cell_length_b     15.729939
_cell_length_c     15.472263
_cell_angle_alpha  76.428463
_cell_angle_beta   105.63157
_cell_angle_gamma 98.563337
loop_
_atom_site_label
_atom_site_type_symbol
_atom_site_fract_x
_atom_site_fract_y
_atom_site_fract_z
_atom_type_partial_charge
O0 O 0.99164 0.86304 1.0212 0.0
Mn1 Mn 1.01176 0.998 0.02235 0.0
O2 O 0.11775 0.825 0.11842 0.0
Mn3 Mn 0.13062 0.91358 0.18165 0.0
O4 O 0.02963 0.13237 0.02716 0.0
O5 O 0.99315 0.02116 0.88059 0.0
Mn6 Mn 0.91747 0.102 0.84851 0.0
O7 O 0.87443 0.99726 1.01982 0.0
O8 O 0.96113 0.20385 0.8897 0.0
O9 O 0.14926 0.00692 0.02314 0.0
O10 O 0.22725 0.9891 0.16804 0.0
O11 O 0.93129 0.09695 0.74016 0.0
O12 O 0.81295 0.05079 0.87316 0.0
C13 C 0.0264 0.91948 0.23831 0.0
C14 C 0.04706 0.80592 0.06194 0.0
C15 C 1.00571 0.20379 0.97102 0.0
C16 C 0.98118 0.03607 0.79075 0.0
C17 C 0.80594 0.0196 0.95422 0.0
C18 C 0.22382 0.01361 0.0834 0.0
O19 O 0.03811 0.97612 0.16425 0.0
O20 O 0.08957 0.86918 0.28098 0.0
H21 H 0.05212 0.06437 0.31069 0.0
H22 H 0.90506 0.80874 0.31365 0.0
H23 H 0.89499 0.80121 0.47194 0.0
H24 H 0.18584 0.01691 0.52099 0.0
H25 H 0.1891 0.11945 0.55539 0.0
H26 H 0.16745 0.11685 0.43572 0.0
H27 H 0.01847 0.18548 0.3987 0.0
H28 H 0.04313 0.19498 0.51679 0.0
H29 H 0.93947 0.13875 0.46659 0.0
H30 H 0.92074 0.81281 0.63835 0.0
H31 H 0.94195 0.86288 0.78364 0.0
H32 H 0.08465 0.10362 0.67487 0.0
C33 C 1.01255 0.00972 0.34247 0.0
C34 C 0.97784 0.93784 0.29963 0.0
C35 C 0.92997 0.8654 0.34471 0.0
C36 C 0.92584 0.8597 0.43544 0.0
C37 C 0.96955 0.92737 0.47955 0.0
C38 C 1.00899 0.0026 0.43344 0.0
C39 C 0.05517 0.06393 0.49746 0.0
C40 C 0.15532 0.08016 0.50265 0.0
C41 C 1.01142 0.15089 0.46818 0.0
C42 C 0.03746 0.0106 0.5871 0.0
C43 C 0.98808 0.93193 0.57564 0.0
C44 C 0.95928 0.87437 0.64804 0.0
C45 C 0.97374 0.90206 0.73143 0.0
C46 C 0.01608 0.98636 0.74077 0.0
C47 C 0.05439 0.03771 0.67034 0.0
H48 H 0.37903 0.93891 0.17137 0.0
H49 H 0.25718 0.12394 0.92926 0.0
H50 H 0.39692 0.14823 0.87856 0.0
H51 H 0.60374 0.04731 0.2092 0.0
H52 H 0.65605 0.94614 0.24159 0.0
H53 H 0.54893 0.94785 0.26266 0.0
H54 H 0.48382 0.82481 0.17137 0.0
H55 H 0.59056 0.82244 0.1499 0.0
H56 H 0.49413 0.84008 0.05537 0.0
H57 H 0.5437 0.15287 0.85433 0.0
H58 H 0.68976 0.13179 0.84461 0.0
H59 H 0.72291 0.93418 0.09834 0.0
C60 C 0.38249 0.98574 0.10847 0.0
C61 C 0.30809 0.03119 0.05477 0.0
C62 C 0.31374 0.0895 0.97152 0.0
C63 C 0.39275 0.10366 0.94252 0.0
C64 C 0.4646 0.05772 0.99688 0.0
C65 C 0.46034 0.99918 0.07744 0.0
C66 C 0.54585 0.95408 0.11899 0.0
C67 C 0.59138 0.97511 0.21374 0.0
C68 C 0.52749 0.85444 0.1242 0.0
C69 C 0.59927 0.99692 0.04885 0.0
C70 C 0.55022 0.05688 0.98004 0.0
C71 C 0.58236 0.1055 0.90699 0.0
C72 C 0.66607 0.09192 0.90222 0.0
C73 C 0.71831 0.02912 0.96948 0.0
C74 C 0.68485 0.98181 0.0453 0.0
H75 H 0.98184 0.72057 0.91425 0.0
H76 H 0.0683 0.67756 0.21103 0.0
H77 H 0.06791 0.51974 0.22035 0.0
H78 H 0.83598 0.50572 0.9146 0.0
H79 H 0.8613 0.48987 0.81292 0.0
H80 H 0.85936 0.59942 0.82886 0.0
H81 H 0.01987 0.63782 0.80776 0.0
H82 H 0.02283 0.52804 0.79352 0.0
H83 H 0.1066 0.57185 0.88109 0.0
H84 H 0.07599 0.37008 0.19906 0.0
H85 H 0.06919 0.23147 0.14723 0.0
H86 H 0.97352 0.36737 0.8654 0.0
C87 C 0.99785 0.67731 0.98092 0.0
C88 C 0.02573 0.71127 0.06185 0.0
C89 C 0.04745 0.65282 0.14808 0.0
C90 C 0.04761 0.56299 0.15432 0.0
C91 C 0.02439 0.53165 0.07371 0.0
C92 C 0.99754 0.58614 0.98869 0.0
C93 C 0.97676 0.53406 0.91332 0.0
C94 C 0.87746 0.53217 0.86453 0.0
C95 C 0.03503 0.57014 0.84492 0.0
C96 C 1.0006 0.44389 0.96923 0.0
C97 C 0.02734 0.44387 0.06164 0.0
C98 C 0.0541 0.36873 0.12677 0.0
C99 C 0.05088 0.29048 0.0967 0.0
C100 C 0.02105 0.28819 1.00236 0.0
C101 C 0.99681 0.36657 0.93811 0.0
loop_
_geom_bond_atom_site_label_1
_geom_bond_atom_site_label_2
_geom_bond_distance
_geom_bond_site_symmetry_2
_ccdc_geom_bond_type
O0 Mn1 2.163 1_666 S
O0 C14 1.244 1_656 S
Mn1 O0 2.163 1_444 S
Mn1 O4 2.160 . S
Mn1 O5 2.221 1_454 S
Mn1 O7 2.163 1_445 S
Mn1 O9 2.160 1_554 S
Mn1 O19 2.221 1_545 S
O2 Mn3 2.087 . S
O2 C14 1.256 . S
Mn3 O2 2.087 . S
Mn3 O10 2.089 . S
Mn3 O19 2.290 . S
Mn3 O20 2.251 . S
O4 Mn1 2.160 . S
O4 C15 1.239 1_454 S
O5 Mn1 2.221 1_656 S
O5 Mn6 2.290 . S
O5 C16 1.278 . S
Mn6 O5 2.290 . S
Mn6 O8 2.089 . S
Mn6 O11 2.251 . S
Mn6 O12 2.087 . S
O7 Mn1 2.163 1_665 S
O7 C17 1.244 1_564 S
O8 Mn6 2.089 . S
O8 C15 1.256 . S
O9 Mn1 2.160 1_556 S
O9 C18 1.239 1_546 S
O10 Mn3 2.089 . S
O10 C18 1.256 . S
O11 Mn6 2.251 . S
O11 C16 1.241 . S
O12 Mn6 2.087 . S
O12 C17 1.256 . S
C13 O19 1.278 . S
C13 O20 1.241 . S
C14 O0 1.244 1_454 S
C14 O2 1.256 . S
C15 O4 1.239 1_656 S
C15 O8 1.256 . S
C16 O5 1.278 . S
C16 O11 1.241 . S
C17 O7 1.244 1_546 S
C17 O12 1.256 . S
C18 O9 1.239 1_564 S
C18 O10 1.256 . S
O19 Mn1 2.221 1_565 S
O19 Mn3 2.290 . S
O19 C13 1.278 . S
O20 Mn3 2.251 . S
O20 C13 1.241 . S
H21 C33 0.930 . S
H22 C35 0.930 . S
H23 C36 0.930 . S
H24 C40 0.959 . S
H25 C40 0.959 . S
H26 C40 0.961 . S
H27 C41 0.960 . S
H28 C41 0.961 . S
H29 C41 0.959 . S
H30 C44 0.929 . S
H31 C45 0.931 . S
H32 C47 0.930 . S
C33 H21 0.930 . S
C33 C34 1.399 1_445 S
C33 C38 1.399 1_455 S
C34 C33 1.399 1_665 S
C34 C35 1.376 . S
C35 H22 0.930 . S
C35 C34 1.376 . S
C35 C36 1.388 . S
C36 H23 0.930 . S
C36 C35 1.388 . S
C36 C37 1.390 . S
C37 C36 1.390 . S
C37 C38 1.394 1_565 S
C37 C43 1.465 . S
C38 C33 1.399 1_655 S
C38 C37 1.394 1_545 S
C38 C39 1.516 1_655 S
C39 C38 1.516 1_455 S
C39 C40 1.502 . S
C39 C41 1.561 1_455 S
C39 C42 1.526 1_455 S
C40 H24 0.959 . S
C40 H25 0.959 . S
C40 H26 0.961 . S
C40 C39 1.502 . S
C41 H27 0.960 . S
C41 H28 0.961 . S
C41 H29 0.959 . S
C41 C39 1.561 1_655 S
C42 C39 1.526 1_655 S
C42 C43 1.396 1_545 S
C42 C47 1.390 1_655 S
C43 C37 1.465 . S
C43 C42 1.396 1_565 S
C43 C44 1.399 . S
C44 H30 0.929 . S
C44 C43 1.399 . S
C44 C45 1.385 . S
C45 H31 0.931 . S
C45 C44 1.385 . S
C45 C46 1.389 . S
C46 C45 1.389 . S
C46 C47 1.387 1_665 S
C47 H32 0.930 . S
C47 C42 1.390 1_455 S
C47 C46 1.387 1_445 S
H48 C60 0.930 . S
H49 C62 0.930 . S
H50 C63 0.930 . S
H51 C67 0.959 1_545 S
H52 C67 0.959 . S
H53 C67 0.961 . S
H54 C68 0.960 . S
H55 C68 0.961 . S
H56 C68 0.959 . S
H57 C71 0.929 . S
H58 C72 0.931 . S
H59 C74 0.930 . S
C60 H48 0.930 . S
C60 C61 1.399 1_564 S
C60 C65 1.399 . S
C61 C60 1.399 1_546 S
C61 C62 1.376 . S
C62 H49 0.930 . S
C62 C61 1.376 . S
C62 C63 1.388 . S
C63 H50 0.930 . S
C63 C62 1.388 . S
C63 C64 1.390 . S
C64 C63 1.390 . S
C64 C65 1.394 1_546 S
C64 C70 1.465 . S
C65 C60 1.399 . S
C65 C64 1.394 1_564 S
C65 C66 1.516 . S
C66 C65 1.516 . S
C66 C67 1.502 . S
C66 C68 1.561 . S
C66 C69 1.526 . S
C67 H51 0.959 1_565 S
C67 H52 0.959 . S
C67 H53 0.961 . S
C67 C66 1.502 . S
C68 H54 0.960 . S
C68 H55 0.961 . S
C68 H56 0.959 . S
C68 C66 1.561 . S
C69 C66 1.526 . S
C69 C70 1.396 1_564 S
C69 C74 1.390 . S
C70 C64 1.465 . S
C70 C69 1.396 1_546 S
C70 C71 1.399 . S
C71 H57 0.929 . S
C71 C70 1.399 . S
C71 C72 1.385 . S
C72 H58 0.931 . S
C72 C71 1.385 . S
C72 C73 1.389 . S
C73 C72 1.389 . S
C73 C74 1.387 1_546 S
C74 H59 0.930 . S
C74 C69 1.390 . S
C74 C73 1.387 1_564 S
H75 C87 0.930 . S
H76 C89 0.930 . S
H77 C90 0.930 . S
H78 C94 0.959 . S
H79 C94 0.959 . S
H80 C94 0.961 . S
H81 C95 0.960 . S
H82 C95 0.961 . S
H83 C95 0.959 . S
H84 C98 0.929 . S
H85 C99 0.931 . S
H86 C101 0.930 . S
C87 H75 0.930 . S
C87 C88 1.399 1_656 S
C87 C92 1.399 . S
C88 C87 1.399 1_454 S
C88 C89 1.376 . S
C89 H76 0.930 . S
C89 C88 1.376 . S
C89 C90 1.388 . S
C90 H77 0.930 . S
C90 C89 1.388 . S
C90 C91 1.390 . S
C91 C90 1.390 . S
C91 C92 1.394 1_454 S
C91 C97 1.465 . S
C92 C87 1.399 . S
C92 C91 1.394 1_656 S
C92 C93 1.516 . S
C93 C92 1.516 . S
C93 C94 1.502 . S
C93 C95 1.561 1_655 S
C93 C96 1.526 . S
C94 H78 0.959 . S
C94 H79 0.959 . S
C94 H80 0.961 . S
C94 C93 1.502 . S
C95 H81 0.960 . S
C95 H82 0.961 . S
C95 H83 0.959 . S
C95 C93 1.561 1_455 S
C96 C93 1.526 . S
C96 C97 1.396 1_656 S
C96 C101 1.390 . S
C97 C91 1.465 . S
C97 C96 1.396 1_454 S
C97 C98 1.399 . S
C98 H84 0.929 . S
C98 C97 1.399 . S
C98 C99 1.385 . S
C99 H85 0.931 . S
C99 C98 1.385 . S
C99 C100 1.389 . S
C100 C99 1.389 . S
C100 C101 1.387 1_454 S
C101 H86 0.930 . S
C101 C96 1.390 . S
C101 C100 1.387 1_656 S
C34 C13 1.298 1_655 S
C46 C16 1.320 1_565 S
C61 C18 1.475 1_546 S
C73 C17 1.409 . S
C88 C14 1.414 . S
C100 C15 1.482 1_454 S
