# Generated by pormake.
# Topology pcu, (6)-cn, num edge types: 1
# Building blocks:
#     Node 0, Type 0, BuildingBlock: JUFBIX_clean_sbu_0, # of connection points: 6
#     Edge 1, Type (0, 0), BuildingBlock: XUDNAN_clean_linker_2, # of connection points: 2
#     Edge 2, Type (0, 0), BuildingBlock: XUDNAN_clean_linker_2, # of connection points: 2
#     Edge 3, Type (0, 0), BuildingBlock: XUDNAN_clean_linker_2, # of connection points: 2
# Relax obj value: 0.000
# Max RMSD: 0.000
# Mean RMSD: 0.000
data_MOF--net-pcu--node1-JUFBIX_clean_sbu_0--edge1-XUDNAN_clean_linker_2
_symmetry_space_group_name_H-M    P1
_symmetry_Int_Tables_number       1
_symmetry_cell_setting            triclinic
loop_
_symmetry_equiv_pos_as_xyz
'x, y, z'
_cell_length_a     14.919583
_cell_length_b     19.736583
_cell_length_c     14.907892
_cell_angle_alpha  82.409048
_cell_angle_beta   93.341919
_cell_angle_gamma 98.26952
loop_
_atom_site_label
_atom_site_type_symbol
_atom_site_fract_x
_atom_site_fract_y
_atom_site_fract_z
_atom_type_partial_charge
Co0 Co 1.00162 0.97972 0.99906 0.0
C1 C 0.01488 0.0466 0.15715 0.0
Co2 Co 0.02295 0.09382 0.97828 0.0
C3 C 0.03112 0.83584 1.00482 0.0
C4 C 0.91841 0.84929 0.08017 0.0
N5 N 0.98422 0.88452 0.0272 0.0
N6 N 0.99608 0.77174 0.04114 0.0
C7 C 0.92518 0.78019 0.0884 0.0
H8 H 0.08903 0.84707 0.96215 0.0
H9 H 0.86897 0.87248 0.11176 0.0
C10 C 0.0153 0.02966 0.81991 0.0
N11 N 0.03552 0.18951 0.94892 0.0
C12 C 0.07159 0.24192 0.99583 0.0
C13 C 0.99635 0.2207 0.87352 0.0
N14 N 0.05574 0.30379 0.95209 0.0
C15 C 1.00848 0.29051 0.87549 0.0
C16 C 0.18338 0.0399 0.99956 0.0
O17 O 1.00106 0.97213 0.87031 0.0
O18 O 0.02395 0.08493 0.85583 0.0
O19 O 0.14763 0.09521 0.98648 0.0
O20 O 0.13247 0.98177 1.00643 0.0
O21 O 0.02355 0.10148 0.10159 0.0
H22 H 0.95685 0.19418 0.82228 0.0
H23 H 0.1038 0.2347 0.06272 0.0
O24 O 1.00362 0.98834 0.12712 0.0
O25 O 0.87092 0.98009 0.99189 0.0
O26 O 0.89822 0.09267 0.97115 0.0
C27 C 0.84172 0.03822 0.98089 0.0
H28 H 0.88213 0.7393 0.12739 0.0
H29 H 0.98093 0.32857 0.82663 0.0
H30 H 0.95744 0.94831 0.30098 0.0
H31 H 0.0953 0.15704 0.23499 0.0
H32 H 0.11653 0.16923 0.39654 0.0
H33 H 0.83718 0.98646 0.48697 0.0
H34 H 0.8464 0.9057 0.55674 0.0
H35 H 0.84546 0.91015 0.43521 0.0
H36 H 0.99781 0.86057 0.44719 0.0
H37 H 0.9994 0.85621 0.56883 0.0
H38 H 0.09389 0.90308 0.50679 0.0
H39 H 0.12313 0.162 0.55917 0.0
H40 H 0.10553 0.13974 0.72224 0.0
H41 H 0.95827 0.93624 0.69419 0.0
C42 C 0.99245 0.99629 0.32098 0.0
C43 C 0.02485 0.05177 0.25529 0.0
C44 C 0.06946 0.11403 0.28378 0.0
C45 C 0.08243 0.12137 0.37553 0.0
C46 C 0.04987 0.06619 0.43839 0.0
C47 C 1.00506 1.00501 0.41323 0.0
C48 C 0.97329 0.95577 0.49639 0.0
C49 C 0.8694 0.93852 0.49364 0.0
C50 C 0.01883 0.89 0.5053 0.0
C51 C 1.00687 0.99948 0.5716 0.0
C52 C 0.05164 0.06254 0.53541 0.0
C53 C 0.08808 0.11298 0.5886 0.0
C54 C 0.07719 0.09965 0.68152 0.0
C55 C 0.02957 0.03639 0.72142 0.0
C56 C 0.99515 0.9849 0.66577 0.0
H57 H 0.29632 0.94112 0.9835 0.0
H58 H 0.29703 0.15318 0.03446 0.0
H59 H 0.46251 0.17133 0.0385 0.0
H60 H 0.50112 0.91149 0.12809 0.0
H61 H 0.54334 0.86075 0.05205 0.0
H62 H 0.42302 0.86109 0.05762 0.0
H63 H 0.41267 0.89903 0.88482 0.0
H64 H 0.53297 0.89925 0.87875 0.0
H65 H 0.48302 0.97585 0.83708 0.0
H66 H 0.62237 0.17223 0.02716 0.0
H67 H 0.77824 0.15406 0.01016 0.0
H68 H 0.68664 0.94026 0.97016 0.0
C69 C 0.3317 0.9909 0.99669 0.0
C70 C 0.2834 0.04584 1.0081 0.0
C71 C 0.33202 0.11044 0.02459 0.0
C72 C 0.42632 0.12138 0.02734 0.0
C73 C 0.47183 0.06722 0.01391 0.0
C74 C 0.42717 1.00302 0.99967 0.0
C75 C 0.49504 0.95505 0.98513 0.0
C76 C 0.49034 0.89344 0.06021 0.0
C77 C 0.48 0.93088 0.89082 0.0
C78 C 0.58401 1.00313 0.99223 0.0
C79 C 0.56771 0.0674 1.00877 0.0
C80 C 0.6365 0.12203 0.01499 0.0
C81 C 0.7251 0.11104 1.0046 0.0
C82 C 0.74518 0.04566 0.98858 0.0
C83 C 0.67347 0.99065 0.98269 0.0
H84 H 0.88907 0.65112 0.02759 0.0
H85 H 0.16951 0.74578 0.03311 0.0
H86 H 0.21856 0.63171 0.02485 0.0
H87 H 0.91911 0.48957 0.16154 0.0
H88 H 0.83678 0.43967 0.09441 0.0
H89 H 0.82531 0.52794 0.10453 0.0
H90 H 0.82207 0.55723 0.92964 0.0
H91 H 0.83215 0.46893 0.91905 0.0
H92 H 0.91289 0.53758 0.86708 0.0
H93 H 0.23477 0.50472 0.01549 0.0
H94 H 0.21531 0.38166 0.98745 0.0
H95 H 0.92437 0.37472 0.9852 0.0
C96 C 0.96086 0.64772 0.02795 0.0
C97 C 0.02565 0.70686 0.0319 0.0
C98 C 0.11894 0.70088 0.02986 0.0
C99 C 0.14724 0.63631 0.02601 0.0
C100 C 0.08122 0.57864 0.02357 0.0
C101 C 0.98988 0.58425 0.02326 0.0
C102 C 0.93165 0.51602 0.01474 0.0
C103 C 0.87489 0.4919 0.09883 0.0
C104 C 0.87118 0.52021 0.92744 0.0
C105 C 1.00421 0.4708 0.00985 0.0
C106 C 0.09028 0.50722 0.01628 0.0
C107 C 0.16766 0.47579 0.01087 0.0
C108 C 0.15632 0.40606 0.99575 0.0
C109 C 0.06852 0.36946 0.98538 0.0
C110 C 0.99204 0.40192 0.99425 0.0
loop_
_geom_bond_atom_site_label_1
_geom_bond_atom_site_label_2
_geom_bond_distance
_geom_bond_site_symmetry_2
_ccdc_geom_bond_type
Co0 N5 2.057 1_556 S
Co0 O17 2.021 . S
Co0 O20 2.062 1_655 S
Co0 O24 2.117 1_556 S
Co0 O25 2.020 . S
C1 O21 1.259 . S
C1 O24 1.258 1_445 S
Co2 N11 2.057 1_554 S
Co2 O18 2.117 1_554 S
Co2 O19 2.020 . S
Co2 O21 2.021 . S
Co2 O26 2.062 1_455 S
C3 N5 1.316 1_556 S
C3 N6 1.347 1_556 S
C3 H8 0.931 . S
C4 N5 1.375 . S
C4 C7 1.350 . S
C4 H9 0.930 . S
N5 Co0 2.057 1_554 S
N5 C3 1.316 1_554 S
N5 C4 1.375 . S
N6 C3 1.347 1_554 S
N6 C7 1.373 . S
C7 C4 1.350 . S
C7 N6 1.373 . S
C7 H28 0.931 . S
H8 C3 0.931 . S
H9 C4 0.930 . S
C10 O17 1.259 . S
C10 O18 1.258 1_665 S
N11 Co2 2.057 1_556 S
N11 C12 1.316 1_556 S
N11 C13 1.375 . S
C12 N11 1.316 1_554 S
C12 N14 1.347 1_554 S
C12 H23 0.931 . S
C13 N11 1.375 . S
C13 C15 1.350 . S
C13 H22 0.930 . S
N14 C12 1.347 1_556 S
N14 C15 1.373 . S
C15 C13 1.350 . S
C15 N14 1.373 . S
C15 H29 0.931 . S
C16 O19 1.264 1_556 S
C16 O20 1.248 1_545 S
O17 Co0 2.021 . S
O17 C10 1.259 . S
O18 Co2 2.117 1_556 S
O18 C10 1.258 1_445 S
O19 Co2 2.020 . S
O19 C16 1.264 1_554 S
O20 Co0 2.062 1_455 S
O20 C16 1.248 1_565 S
O21 C1 1.259 . S
O21 Co2 2.021 . S
H22 C13 0.930 . S
H23 C12 0.931 . S
O24 Co0 2.117 1_554 S
O24 C1 1.258 1_665 S
O25 Co0 2.020 . S
O25 C27 1.260 1_556 S
O26 Co2 2.062 1_655 S
O26 C27 1.251 1_545 S
C27 O25 1.260 1_554 S
C27 O26 1.251 1_565 S
H28 C7 0.931 . S
H29 C15 0.931 . S
H30 C42 0.930 . S
H31 C44 0.930 . S
H32 C45 0.930 . S
H33 C49 0.959 . S
H34 C49 0.959 . S
H35 C49 0.961 . S
H36 C50 0.960 . S
H37 C50 0.961 . S
H38 C50 0.959 . S
H39 C53 0.929 . S
H40 C54 0.931 . S
H41 C56 0.930 . S
C42 H30 0.930 . S
C42 C43 1.399 1_665 S
C42 C47 1.399 . S
C43 C42 1.399 1_445 S
C43 C44 1.376 . S
C44 H31 0.930 . S
C44 C43 1.376 . S
C44 C45 1.388 . S
C45 H32 0.930 . S
C45 C44 1.388 . S
C45 C46 1.390 . S
C46 C45 1.390 . S
C46 C47 1.394 1_445 S
C46 C52 1.465 . S
C47 C42 1.399 . S
C47 C46 1.394 1_665 S
C47 C48 1.516 . S
C48 C47 1.516 . S
C48 C49 1.502 . S
C48 C50 1.561 1_655 S
C48 C51 1.526 . S
C49 H33 0.959 . S
C49 H34 0.959 . S
C49 H35 0.961 . S
C49 C48 1.502 . S
C50 H36 0.960 . S
C50 H37 0.961 . S
C50 H38 0.959 . S
C50 C48 1.561 1_455 S
C51 C48 1.526 . S
C51 C52 1.396 1_665 S
C51 C56 1.390 . S
C52 C46 1.465 . S
C52 C51 1.396 1_445 S
C52 C53 1.399 . S
C53 H39 0.929 . S
C53 C52 1.399 . S
C53 C54 1.385 . S
C54 H40 0.931 . S
C54 C53 1.385 . S
C54 C55 1.389 . S
C55 C54 1.389 . S
C55 C56 1.387 1_445 S
C56 H41 0.930 . S
C56 C51 1.390 . S
C56 C55 1.387 1_665 S
H57 C69 0.930 . S
H58 C71 0.930 . S
H59 C72 0.930 . S
H60 C76 0.959 . S
H61 C76 0.959 . S
H62 C76 0.961 . S
H63 C77 0.960 . S
H64 C77 0.961 . S
H65 C77 0.959 . S
H66 C80 0.929 . S
H67 C81 0.931 . S
H68 C83 0.930 . S
C69 H57 0.930 . S
C69 C70 1.399 1_566 S
C69 C74 1.398 . S
C70 C69 1.399 1_544 S
C70 C71 1.376 . S
C71 H58 0.930 . S
C71 C70 1.376 . S
C71 C72 1.388 . S
C72 H59 0.930 . S
C72 C71 1.388 . S
C72 C73 1.390 . S
C73 C72 1.390 . S
C73 C74 1.392 1_544 S
C73 C79 1.465 . S
C74 C69 1.398 . S
C74 C73 1.392 1_566 S
C74 C75 1.519 . S
C75 C74 1.519 . S
C75 C76 1.502 . S
C75 C77 1.561 1_565 S
C75 C78 1.526 . S
C76 H60 0.959 . S
C76 H61 0.959 . S
C76 H62 0.961 . S
C76 C75 1.502 . S
C77 H63 0.960 . S
C77 H64 0.961 . S
C77 H65 0.959 . S
C77 C75 1.561 1_545 S
C78 C75 1.526 . S
C78 C79 1.392 1_566 S
C78 C83 1.393 . S
C79 C73 1.465 . S
C79 C78 1.392 1_544 S
C79 C80 1.399 . S
C80 H66 0.929 . S
C80 C79 1.399 . S
C80 C81 1.385 . S
C81 H67 0.931 . S
C81 C80 1.385 . S
C81 C82 1.389 . S
C82 C81 1.389 . S
C82 C83 1.387 1_544 S
C83 H68 0.930 . S
C83 C78 1.393 . S
C83 C82 1.387 1_566 S
H84 C96 0.930 . S
H85 C98 0.930 . S
H86 C99 0.930 . S
H87 C103 0.959 . S
H88 C103 0.959 . S
H89 C103 0.961 . S
H90 C104 0.959 1_655 S
H91 C104 0.960 1_655 S
H92 C104 0.963 . S
H93 C107 0.929 . S
H94 C108 0.931 . S
H95 C110 0.930 . S
C96 H84 0.930 . S
C96 C97 1.399 1_656 S
C96 C101 1.399 . S
C97 C96 1.399 1_454 S
C97 C98 1.376 . S
C98 H85 0.930 . S
C98 C97 1.376 . S
C98 C99 1.388 . S
C99 H86 0.930 . S
C99 C98 1.388 . S
C99 C100 1.390 . S
C100 C99 1.390 . S
C100 C101 1.394 1_454 S
C100 C106 1.465 . S
C101 C96 1.399 . S
C101 C100 1.394 1_656 S
C101 C102 1.516 . S
C102 C101 1.516 . S
C102 C103 1.502 . S
C102 C104 1.559 1_655 S
C102 C105 1.526 . S
C103 H87 0.959 . S
C103 H88 0.959 . S
C103 H89 0.961 . S
C103 C102 1.502 . S
C104 H90 0.959 1_455 S
C104 H91 0.960 1_455 S
C104 H92 0.963 . S
C104 C102 1.559 1_455 S
C105 C102 1.526 . S
C105 C106 1.396 1_656 S
C105 C110 1.390 . S
C106 C100 1.465 . S
C106 C105 1.396 1_454 S
C106 C107 1.399 . S
C107 H93 0.929 . S
C107 C106 1.399 . S
C107 C108 1.385 . S
C108 H94 0.931 . S
C108 C107 1.385 . S
C108 C109 1.389 . S
C109 C108 1.389 . S
C109 C110 1.387 1_454 S
C110 H95 0.930 . S
C110 C105 1.390 . S
C110 C109 1.387 1_656 S
C43 C1 1.478 . S
C55 C10 1.500 1_445 S
C70 C16 1.493 1_554 S
C82 C27 1.491 1_545 S
C97 N6 1.457 1_455 S
C109 N14 1.469 1_554 S
