# Generated by pormake.
# Topology uog, (4)-cn, num edge types: 1
# Building blocks:
#     Node 0, Type 0, BuildingBlock: QUQFOY_clean_sbu_1, # of connection points: 4
#     Node 1, Type 0, BuildingBlock: QUQFOY_clean_sbu_1, # of connection points: 4
#     Node 2, Type 0, BuildingBlock: QUQFOY_clean_sbu_1, # of connection points: 4
#     Node 3, Type 0, BuildingBlock: QUQFOY_clean_sbu_1, # of connection points: 4
#     Node 4, Type 0, BuildingBlock: QUQFOY_clean_sbu_1, # of connection points: 4
#     Node 5, Type 0, BuildingBlock: QUQFOY_clean_sbu_1, # of connection points: 4
#     Edge 6, Type (0, 0), BuildingBlock: OJICUG_clean_linker_0, # of connection points: 2
#     Edge 7, Type (0, 0), BuildingBlock: OJICUG_clean_linker_0, # of connection points: 2
#     Edge 8, Type (0, 0), BuildingBlock: OJICUG_clean_linker_0, # of connection points: 2
#     Edge 9, Type (0, 0), BuildingBlock: OJICUG_clean_linker_0, # of connection points: 2
#     Edge 10, Type (0, 0), BuildingBlock: OJICUG_clean_linker_0, # of connection points: 2
#     Edge 11, Type (0, 0), BuildingBlock: OJICUG_clean_linker_0, # of connection points: 2
#     Edge 12, Type (0, 0), BuildingBlock: OJICUG_clean_linker_0, # of connection points: 2
#     Edge 13, Type (0, 0), BuildingBlock: OJICUG_clean_linker_0, # of connection points: 2
#     Edge 14, Type (0, 0), BuildingBlock: OJICUG_clean_linker_0, # of connection points: 2
#     Edge 15, Type (0, 0), BuildingBlock: OJICUG_clean_linker_0, # of connection points: 2
#     Edge 16, Type (0, 0), BuildingBlock: OJICUG_clean_linker_0, # of connection points: 2
#     Edge 17, Type (0, 0), BuildingBlock: OJICUG_clean_linker_0, # of connection points: 2
# Relax obj value: 0.102
# Max RMSD: 0.153
# Mean RMSD: 0.153
data_MOF--net-uog--node1-QUQFOY_clean_sbu_1--edge1-OJICUG_clean_linker_0
_symmetry_space_group_name_H-M    P1
_symmetry_Int_Tables_number       1
_symmetry_cell_setting            triclinic
loop_
_symmetry_equiv_pos_as_xyz
'x, y, z'
_cell_length_a     21.247191
_cell_length_b     21.254288
_cell_length_c     31.981882
_cell_angle_alpha  90.047827
_cell_angle_beta   89.955945
_cell_angle_gamma 119.99654
loop_
_atom_site_label
_atom_site_type_symbol
_atom_site_fract_x
_atom_site_fract_y
_atom_site_fract_z
_atom_type_partial_charge
O0 O 0.64012 0.44271 0.18913 0.0
Cd1 Cd 0.68722 0.38119 0.1831 0.0
Cd2 Cd 0.55843 0.27827 0.16828 0.0
O3 O 0.53537 0.34653 0.20552 0.0
O4 O 0.76773 0.41664 0.22544 0.0
O5 O 0.6606 0.31699 0.23295 0.0
C6 C 0.72205 0.36369 0.24893 0.0
C7 C 0.53963 0.15977 0.17847 0.0
C8 C 0.5764 0.41567 0.20382 0.0
C9 C 0.64978 0.34634 0.09485 0.0
O10 O 0.58511 0.31623 0.10871 0.0
O11 O 0.70276 0.36454 0.12015 0.0
O12 O 0.48569 0.16987 0.17019 0.0
O13 O 0.60283 0.2165 0.18248 0.0
O14 O 0.21533 0.63064 0.52354 0.0
Cd15 Cd 0.32413 0.67888 0.51783 0.0
Cd16 Cd 0.29907 0.55049 0.50248 0.0
O17 O 0.20709 0.52589 0.5394 0.0
O18 O 0.36736 0.75908 0.56038 0.0
O19 O 0.36249 0.65311 0.56765 0.0
C20 C 0.3755 0.71391 0.58382 0.0
C21 C 0.3985 0.53123 0.51247 0.0
C22 C 0.17871 0.56668 0.53785 0.0
C23 C 0.32257 0.64324 0.42951 0.0
O24 O 0.2884 0.5784 0.44308 0.0
O25 O 0.35689 0.69597 0.45503 0.0
O26 O 0.33463 0.47768 0.50346 0.0
O27 O 0.40489 0.59424 0.51741 0.0
O28 O 0.59332 0.20546 0.85527 0.0
Cd29 Cd 0.65564 0.31398 0.84965 0.0
Cd30 Cd 0.75813 0.28774 0.83499 0.0
O31 O 0.68919 0.19676 0.87228 0.0
O32 O 0.62138 0.35958 0.89243 0.0
O33 O 0.71991 0.34997 0.89956 0.0
C34 C 0.67397 0.36559 0.91579 0.0
C35 C 0.87661 0.3876 0.84517 0.0
C36 C 0.62006 0.16874 0.87025 0.0
C37 C 0.69123 0.31143 0.76147 0.0
O38 O 0.72055 0.27621 0.77538 0.0
O39 O 0.6734 0.34659 0.78675 0.0
O40 O 0.86654 0.32344 0.83733 0.0
O41 O 0.81985 0.39416 0.84876 0.0
O42 O 0.40728 0.58904 0.18983 0.0
Cd43 Cd 0.36034 0.65076 0.18437 0.0
Cd44 Cd 0.48876 0.75329 0.16894 0.0
O45 O 0.51224 0.68517 0.20595 0.0
O46 O 0.28068 0.61571 0.22726 0.0
O47 O 0.38811 0.71521 0.23422 0.0
C48 C 0.32693 0.66866 0.25056 0.0
C49 C 0.50773 0.87188 0.17897 0.0
C50 C 0.47115 0.61604 0.20427 0.0
C51 C 0.39635 0.68507 0.09599 0.0
O52 O 0.4612 0.71495 0.1095 0.0
O53 O 0.34379 0.66722 0.12159 0.0
O54 O 0.56154 0.86167 0.17044 0.0
O55 O 0.44459 0.81521 0.18339 0.0
O56 O 0.83617 0.39752 0.5221 0.0
Cd57 Cd 0.72763 0.35147 0.51632 0.0
Cd58 Cd 0.75412 0.48018 0.50134 0.0
O59 O 0.84509 0.50237 0.53866 0.0
O60 O 0.68152 0.27161 0.55901 0.0
O61 O 0.69141 0.37985 0.56614 0.0
C62 C 0.67538 0.3182 0.58233 0.0
C63 C 0.65436 0.49899 0.51155 0.0
C64 C 0.873 0.46115 0.53688 0.0
C65 C 0.73016 0.38896 0.428 0.0
O66 O 0.76543 0.45363 0.44176 0.0
O67 O 0.69511 0.33622 0.4534 0.0
O68 O 0.71853 0.55298 0.5036 0.0
O69 O 0.64774 0.43568 0.51519 0.0
O70 O 0.44726 0.82643 0.857 0.0
Cd71 Cd 0.38657 0.71769 0.85114 0.0
Cd72 Cd 0.28332 0.7429 0.83557 0.0
O73 O 0.35066 0.83489 0.87248 0.0
O74 O 0.42312 0.67398 0.89358 0.0
O75 O 0.32218 0.67921 0.90091 0.0
C76 C 0.36971 0.66578 0.91701 0.0
C77 C 0.16462 0.64352 0.84565 0.0
C78 C 0.41985 0.86314 0.87113 0.0
C79 C 0.3529 0.71925 0.76271 0.0
O80 O 0.32207 0.75338 0.77617 0.0
O81 O 0.37129 0.68508 0.78832 0.0
O82 O 0.17491 0.70734 0.83658 0.0
O83 O 0.22127 0.63717 0.85056 0.0
C84 C 0.46192 0.02348 0.18179 0.0
C85 C 0.53103 0.086 0.18126 0.0
H86 H 0.40051 0.90721 0.18208 0.0
C87 C 0.59271 0.07749 0.18175 0.0
H88 H 0.41335 0.028 0.18148 0.0
C89 C 0.58547 1.00821 0.18161 0.0
C90 C 0.51636 0.9457 0.18154 0.0
H91 H 0.64688 0.12448 0.18128 0.0
H92 H 0.63403 1.00369 0.18115 0.0
C93 C 0.45469 0.95421 0.1822 0.0
C94 C 0.53385 0.58408 0.51604 0.0
C95 C 0.46364 0.52249 0.51495 0.0
H96 H 0.64898 0.62527 0.51555 0.0
C97 C 0.45699 0.45337 0.51446 0.0
H98 H 0.54107 0.63826 0.51634 0.0
C99 C 0.51899 0.44604 0.51449 0.0
C100 C 0.58921 0.50766 0.51443 0.0
H101 H 0.40389 0.40488 0.51365 0.0
H102 H 0.51176 0.39187 0.51359 0.0
C103 C 0.59587 0.57676 0.5155 0.0
C104 C 0.95892 0.52297 0.84787 0.0
C105 C 0.9504 0.45279 0.84796 0.0
H106 H 0.03278 0.63805 0.8468 0.0
C107 C 1.0129 0.4462 0.84907 0.0
H108 H 0.91194 0.53015 0.84694 0.0
C109 C 0.08221 0.50824 0.84948 0.0
C110 C 0.09075 0.57839 0.84824 0.0
H111 H 1.00836 0.39313 0.84923 0.0
H112 H 0.12921 0.50105 0.84982 0.0
C113 C 0.02823 0.58499 0.84772 0.0
C114 C 0.05147 0.46426 0.54887 0.0
C115 C 0.10112 0.53901 0.54769 0.0
H116 H 0.93984 0.38098 0.54699 0.0
C117 C 0.07459 0.58792 0.5502 0.0
H118 H 0.07006 0.42525 0.54724 0.0
C119 C 0.99992 0.56273 0.54997 0.0
C120 C 0.95033 0.48811 0.54711 0.0
H121 H 0.11158 0.64606 0.54997 0.0
H122 H 0.9814 0.60183 0.54925 0.0
C123 C 0.97678 0.43906 0.54853 0.0
C124 C 0.44464 0.99037 0.88212 0.0
C125 C 0.46974 0.94071 0.88099 0.0
H126 H 0.473 0.10197 0.88023 0.0
C127 C 0.54518 0.9672 0.88358 0.0
H128 H 0.38705 0.97181 0.88042 0.0
C129 C 0.59466 0.04184 0.88338 0.0
C130 C 0.56965 0.09144 0.88047 0.0
H131 H 0.56633 0.93021 0.88339 0.0
H132 H 0.6523 0.06035 0.88272 0.0
C133 C 0.49413 0.06501 0.8818 0.0
C134 C 0.57312 0.59081 0.21614 0.0
C135 C 0.49841 0.56583 0.21419 0.0
H136 H 0.65637 0.56238 0.21505 0.0
C137 C 0.44934 0.49038 0.21612 0.0
H138 H 0.61224 0.64841 0.21499 0.0
C139 C 0.47447 0.44085 0.21608 0.0
C140 C 0.54917 0.46584 0.21399 0.0
H141 H 0.39121 0.46929 0.21529 0.0
H142 H 0.43534 0.38326 0.21488 0.0
C143 C 0.59824 0.54129 0.21599 0.0
C144 C 0.61252 0.3684 0.9817 0.0
C145 C 0.67473 0.37647 0.96156 0.0
H146 H 0.55587 0.35188 0.03941 0.0
C147 C 0.73241 0.38192 0.98608 0.0
H148 H 0.56708 0.36375 0.96384 0.0
C149 C 0.726 0.37491 0.02968 0.0
C150 C 0.66148 0.36147 0.04943 0.0
H151 H 0.7812 0.38814 0.97145 0.0
H152 H 0.77009 0.3767 0.04761 0.0
C153 C 0.60582 0.36061 0.02507 0.0
C154 C 0.26291 0.60686 0.3164 0.0
C155 C 0.31699 0.66918 0.29636 0.0
H156 H 0.22295 0.54985 0.37397 0.0
C157 C 0.36926 0.72669 0.32097 0.0
H158 H 0.22205 0.56156 0.29847 0.0
C159 C 0.37001 0.71999 0.36455 0.0
C160 C 0.319 0.65534 0.38416 0.0
H161 H 0.4118 0.77556 0.30643 0.0
H162 H 0.41236 0.76393 0.38255 0.0
C163 C 0.26413 0.59988 0.35973 0.0
C164 C 0.67726 0.25351 0.69158 0.0
C165 C 0.67681 0.30851 0.71598 0.0
H166 H 0.67471 0.21194 0.6303 0.0
C167 C 0.66469 0.36038 0.6962 0.0
H168 H 0.68499 0.21171 0.70593 0.0
C169 C 0.65858 0.36028 0.65256 0.0
C170 C 0.66368 0.30783 0.62802 0.0
H171 H 0.66326 0.40287 0.71416 0.0
H172 H 0.65337 0.40341 0.63794 0.0
C173 C 0.6704 0.25295 0.64816 0.0
C174 C 0.43217 0.66327 0.98249 0.0
C175 C 0.36959 0.65497 0.96275 0.0
H176 H 0.48962 0.67987 0.03984 0.0
C177 C 0.31214 0.64924 0.98766 0.0
H178 H 0.47743 0.66807 0.96434 0.0
C179 C 0.31913 0.65626 0.03124 0.0
C180 C 0.384 0.66991 0.05059 0.0
H181 H 0.26307 0.64285 0.97336 0.0
H182 H 0.27521 0.65429 0.04949 0.0
C183 C 0.43942 0.671 0.02584 0.0
C184 C 0.78718 0.43247 0.35786 0.0
C185 C 0.73283 0.37699 0.38253 0.0
H186 H 0.82793 0.47086 0.29639 0.0
C187 C 0.68138 0.31238 0.36304 0.0
H188 H 0.82866 0.48249 0.37197 0.0
C189 C 0.68121 0.30571 0.31943 0.0
C190 C 0.73295 0.36323 0.29462 0.0
H191 H 0.6394 0.26841 0.38121 0.0
H192 H 0.63837 0.25685 0.30504 0.0
C193 C 0.78746 0.42554 0.31447 0.0
C194 C 0.38374 0.67227 0.69804 0.0
C195 C 0.36878 0.72263 0.71738 0.0
H196 H 0.39903 0.63079 0.64018 0.0
C197 C 0.36725 0.77672 0.69269 0.0
H198 H 0.38609 0.63055 0.71624 0.0
C199 C 0.37589 0.77778 0.64939 0.0
C200 C 0.38551 0.7243 0.62962 0.0
H201 H 0.35738 0.81741 0.7067 0.0
H202 H 0.37072 0.818 0.63127 0.0
C203 C 0.39164 0.67286 0.6545 0.0
loop_
_geom_bond_atom_site_label_1
_geom_bond_atom_site_label_2
_geom_bond_distance
_geom_bond_site_symmetry_2
_ccdc_geom_bond_type
O0 Cd1 2.223 . S
O0 C8 1.315 . S
Cd1 O0 2.223 . S
Cd1 O4 2.297 . S
Cd1 O5 2.439 . S
Cd1 O11 2.240 . S
Cd2 O3 2.240 . S
Cd2 O10 2.223 . S
Cd2 O12 2.297 . S
Cd2 O13 2.439 . S
O3 Cd2 2.240 . S
O3 C8 1.279 . S
O4 Cd1 2.297 . S
O4 C6 1.247 . S
O5 Cd1 2.439 . S
O5 C6 1.208 . S
C6 O4 1.247 . S
C6 O5 1.208 . S
C7 O12 1.247 . S
C7 O13 1.208 . S
C8 O0 1.315 . S
C8 O3 1.279 . S
C9 O10 1.315 . S
C9 O11 1.279 . S
O10 Cd2 2.223 . S
O10 C9 1.315 . S
O11 Cd1 2.240 . S
O11 C9 1.279 . S
O12 Cd2 2.297 . S
O12 C7 1.247 . S
O13 Cd2 2.439 . S
O13 C7 1.208 . S
O14 Cd15 2.223 . S
O14 C22 1.315 . S
Cd15 O14 2.223 . S
Cd15 O18 2.297 . S
Cd15 O19 2.439 . S
Cd15 O25 2.240 . S
Cd16 O17 2.240 . S
Cd16 O24 2.223 . S
Cd16 O26 2.297 . S
Cd16 O27 2.439 . S
O17 Cd16 2.240 . S
O17 C22 1.279 . S
O18 Cd15 2.297 . S
O18 C20 1.247 . S
O19 Cd15 2.439 . S
O19 C20 1.208 . S
C20 O18 1.247 . S
C20 O19 1.208 . S
C21 O26 1.247 . S
C21 O27 1.208 . S
C22 O14 1.315 . S
C22 O17 1.279 . S
C23 O24 1.315 . S
C23 O25 1.279 . S
O24 Cd16 2.223 . S
O24 C23 1.315 . S
O25 Cd15 2.240 . S
O25 C23 1.279 . S
O26 Cd16 2.297 . S
O26 C21 1.247 . S
O27 Cd16 2.439 . S
O27 C21 1.208 . S
O28 Cd29 2.223 . S
O28 C36 1.315 . S
Cd29 O28 2.223 . S
Cd29 O32 2.297 . S
Cd29 O33 2.439 . S
Cd29 O39 2.240 . S
Cd30 O31 2.240 . S
Cd30 O38 2.223 . S
Cd30 O40 2.297 . S
Cd30 O41 2.439 . S
O31 Cd30 2.240 . S
O31 C36 1.279 . S
O32 Cd29 2.297 . S
O32 C34 1.247 . S
O33 Cd29 2.439 . S
O33 C34 1.208 . S
C34 O32 1.247 . S
C34 O33 1.208 . S
C35 O40 1.247 . S
C35 O41 1.208 . S
C36 O28 1.315 . S
C36 O31 1.279 . S
C37 O38 1.315 . S
C37 O39 1.279 . S
O38 Cd30 2.223 . S
O38 C37 1.315 . S
O39 Cd29 2.240 . S
O39 C37 1.279 . S
O40 Cd30 2.297 . S
O40 C35 1.247 . S
O41 Cd30 2.439 . S
O41 C35 1.208 . S
O42 Cd43 2.223 . S
O42 C50 1.315 . S
Cd43 O42 2.223 . S
Cd43 O46 2.297 . S
Cd43 O47 2.439 . S
Cd43 O53 2.240 . S
Cd44 O45 2.240 . S
Cd44 O52 2.223 . S
Cd44 O54 2.297 . S
Cd44 O55 2.439 . S
O45 Cd44 2.240 . S
O45 C50 1.279 . S
O46 Cd43 2.297 . S
O46 C48 1.247 . S
O47 Cd43 2.439 . S
O47 C48 1.208 . S
C48 O46 1.247 . S
C48 O47 1.208 . S
C49 O54 1.247 . S
C49 O55 1.208 . S
C50 O42 1.315 . S
C50 O45 1.279 . S
C51 O52 1.315 . S
C51 O53 1.279 . S
O52 Cd44 2.223 . S
O52 C51 1.315 . S
O53 Cd43 2.240 . S
O53 C51 1.279 . S
O54 Cd44 2.297 . S
O54 C49 1.247 . S
O55 Cd44 2.439 . S
O55 C49 1.208 . S
O56 Cd57 2.223 . S
O56 C64 1.315 . S
Cd57 O56 2.223 . S
Cd57 O60 2.297 . S
Cd57 O61 2.439 . S
Cd57 O67 2.240 . S
Cd58 O59 2.240 . S
Cd58 O66 2.223 . S
Cd58 O68 2.297 . S
Cd58 O69 2.439 . S
O59 Cd58 2.240 . S
O59 C64 1.279 . S
O60 Cd57 2.297 . S
O60 C62 1.247 . S
O61 Cd57 2.439 . S
O61 C62 1.208 . S
C62 O60 1.247 . S
C62 O61 1.208 . S
C63 O68 1.247 . S
C63 O69 1.208 . S
C64 O56 1.315 . S
C64 O59 1.279 . S
C65 O66 1.315 . S
C65 O67 1.279 . S
O66 Cd58 2.223 . S
O66 C65 1.315 . S
O67 Cd57 2.240 . S
O67 C65 1.279 . S
O68 Cd58 2.297 . S
O68 C63 1.247 . S
O69 Cd58 2.439 . S
O69 C63 1.208 . S
O70 Cd71 2.223 . S
O70 C78 1.315 . S
Cd71 O70 2.223 . S
Cd71 O74 2.297 . S
Cd71 O75 2.439 . S
Cd71 O81 2.240 . S
Cd72 O73 2.240 . S
Cd72 O80 2.223 . S
Cd72 O82 2.297 . S
Cd72 O83 2.439 . S
O73 Cd72 2.240 . S
O73 C78 1.279 . S
O74 Cd71 2.297 . S
O74 C76 1.247 . S
O75 Cd71 2.439 . S
O75 C76 1.208 . S
C76 O74 1.247 . S
C76 O75 1.208 . S
C77 O82 1.247 . S
C77 O83 1.208 . S
C78 O70 1.315 . S
C78 O73 1.279 . S
C79 O80 1.315 . S
C79 O81 1.279 . S
O80 Cd72 2.223 . S
O80 C79 1.315 . S
O81 Cd71 2.240 . S
O81 C79 1.279 . S
O82 Cd72 2.297 . S
O82 C77 1.247 . S
O83 Cd72 2.439 . S
O83 C77 1.208 . S
C84 C85 1.387 . S
C84 H88 0.950 . S
C84 C93 1.390 1_545 S
C85 C84 1.387 . S
C85 C87 1.387 . S
H86 C93 0.950 . S
C87 C85 1.387 . S
C87 C89 1.390 1_545 S
C87 H91 0.950 . S
H88 C84 0.950 . S
C89 C87 1.390 1_565 S
C89 C90 1.387 . S
C89 H92 0.950 . S
C90 C89 1.387 . S
C90 C93 1.387 . S
H91 C87 0.950 . S
H92 C89 0.950 . S
C93 C84 1.390 1_565 S
C93 H86 0.950 . S
C93 C90 1.387 . S
C94 C95 1.387 . S
C94 H98 0.950 . S
C94 C103 1.390 . S
C95 C94 1.387 . S
C95 C97 1.387 . S
H96 C103 0.950 . S
C97 C95 1.387 . S
C97 C99 1.390 . S
C97 H101 0.950 . S
H98 C94 0.950 . S
C99 C97 1.390 . S
C99 C100 1.387 . S
C99 H102 0.950 . S
C100 C99 1.387 . S
C100 C103 1.387 . S
H101 C97 0.950 . S
H102 C99 0.950 . S
C103 C94 1.390 . S
C103 H96 0.950 . S
C103 C100 1.387 . S
C104 C105 1.387 . S
C104 H108 0.950 . S
C104 C113 1.390 1_655 S
C105 C104 1.387 . S
C105 C107 1.387 . S
H106 C113 0.950 . S
C107 C105 1.387 . S
C107 C109 1.390 1_655 S
C107 H111 0.950 . S
H108 C104 0.950 . S
C109 C107 1.390 1_455 S
C109 C110 1.387 . S
C109 H112 0.950 . S
C110 C109 1.387 . S
C110 C113 1.387 . S
H111 C107 0.950 . S
H112 C109 0.950 . S
C113 C104 1.390 1_455 S
C113 H106 0.950 . S
C113 C110 1.387 . S
C114 C115 1.387 . S
C114 H118 0.950 . S
C114 C123 1.390 1_455 S
C115 C114 1.387 . S
C115 C117 1.387 . S
H116 C123 0.950 . S
C117 C115 1.387 . S
C117 C119 1.390 1_455 S
C117 H121 0.950 . S
H118 C114 0.950 . S
C119 C117 1.390 1_655 S
C119 C120 1.387 . S
C119 H122 0.950 . S
C120 C119 1.387 . S
C120 C123 1.387 . S
H121 C117 0.950 . S
H122 C119 0.950 . S
C123 C114 1.390 1_655 S
C123 H116 0.950 . S
C123 C120 1.387 . S
C124 C125 1.387 . S
C124 H128 0.950 . S
C124 C133 1.390 1_565 S
C125 C124 1.387 . S
C125 C127 1.387 . S
H126 C133 0.950 . S
C127 C125 1.387 . S
C127 C129 1.390 1_565 S
C127 H131 0.950 . S
H128 C124 0.950 . S
C129 C127 1.390 1_545 S
C129 C130 1.387 . S
C129 H132 0.950 . S
C130 C129 1.387 . S
C130 C133 1.387 . S
H131 C127 0.950 . S
H132 C129 0.950 . S
C133 C124 1.390 1_545 S
C133 H126 0.950 . S
C133 C130 1.387 . S
C134 C135 1.387 . S
C134 H138 0.950 . S
C134 C143 1.390 . S
C135 C134 1.387 . S
C135 C137 1.387 . S
H136 C143 0.950 . S
C137 C135 1.387 . S
C137 C139 1.390 . S
C137 H141 0.950 . S
H138 C134 0.950 . S
C139 C137 1.390 . S
C139 C140 1.387 . S
C139 H142 0.950 . S
C140 C139 1.387 . S
C140 C143 1.387 . S
H141 C137 0.950 . S
H142 C139 0.950 . S
C143 C134 1.390 . S
C143 H136 0.950 . S
C143 C140 1.387 . S
C144 C145 1.387 . S
C144 H148 0.950 . S
C144 C153 1.390 1_556 S
C145 C144 1.387 . S
C145 C147 1.387 . S
H146 C153 0.950 . S
C147 C145 1.387 . S
C147 C149 1.390 1_556 S
C147 H151 0.950 . S
H148 C144 0.950 . S
C149 C147 1.390 1_554 S
C149 C150 1.387 . S
C149 H152 0.950 . S
C150 C149 1.387 . S
C150 C153 1.387 . S
H151 C147 0.950 . S
H152 C149 0.950 . S
C153 C144 1.390 1_554 S
C153 H146 0.950 . S
C153 C150 1.387 . S
C154 C155 1.387 . S
C154 H158 0.950 . S
C154 C163 1.390 . S
C155 C154 1.387 . S
C155 C157 1.387 . S
H156 C163 0.950 . S
C157 C155 1.387 . S
C157 C159 1.390 . S
C157 H161 0.950 . S
H158 C154 0.950 . S
C159 C157 1.390 . S
C159 C160 1.387 . S
C159 H162 0.950 . S
C160 C159 1.387 . S
C160 C163 1.387 . S
H161 C157 0.950 . S
H162 C159 0.950 . S
C163 C154 1.390 . S
C163 H156 0.950 . S
C163 C160 1.387 . S
C164 C165 1.387 . S
C164 H168 0.950 . S
C164 C173 1.390 . S
C165 C164 1.387 . S
C165 C167 1.387 . S
H166 C173 0.950 . S
C167 C165 1.387 . S
C167 C169 1.390 . S
C167 H171 0.950 . S
H168 C164 0.950 . S
C169 C167 1.390 . S
C169 C170 1.387 . S
C169 H172 0.950 . S
C170 C169 1.387 . S
C170 C173 1.387 . S
H171 C167 0.950 . S
H172 C169 0.950 . S
C173 C164 1.390 . S
C173 H166 0.950 . S
C173 C170 1.387 . S
C174 C175 1.403 . S
C174 H178 0.956 . S
C174 C183 1.369 1_556 S
C175 C174 1.403 . S
C175 C177 1.387 . S
H176 C183 0.950 . S
C177 C175 1.387 . S
C177 C179 1.390 1_556 S
C177 H181 0.950 . S
H178 C174 0.956 . S
C179 C177 1.390 1_554 S
C179 C180 1.387 . S
C179 H182 0.950 . S
C180 C179 1.387 . S
C180 C183 1.387 . S
H181 C177 0.950 . S
H182 C179 0.950 . S
C183 C174 1.369 1_554 S
C183 H176 0.950 . S
C183 C180 1.387 . S
C184 C185 1.387 . S
C184 H188 0.950 . S
C184 C193 1.390 . S
C185 C184 1.387 . S
C185 C187 1.387 . S
H186 C193 0.950 . S
C187 C185 1.387 . S
C187 C189 1.390 . S
C187 H191 0.950 . S
H188 C184 0.950 . S
C189 C187 1.390 . S
C189 C190 1.387 . S
C189 H192 0.950 . S
C190 C189 1.387 . S
C190 C193 1.387 . S
H191 C187 0.950 . S
H192 C189 0.950 . S
C193 C184 1.390 . S
C193 H186 0.950 . S
C193 C190 1.387 . S
C194 C195 1.387 . S
C194 H198 0.950 . S
C194 C203 1.390 . S
C195 C194 1.387 . S
C195 C197 1.387 . S
H196 C203 0.950 . S
C197 C195 1.387 . S
C197 C199 1.390 . S
C197 H201 0.950 . S
H198 C194 0.950 . S
C199 C197 1.390 . S
C199 C200 1.387 . S
C199 H202 0.950 . S
C200 C199 1.387 . S
C200 C203 1.387 . S
H201 C197 0.950 . S
H202 C199 0.950 . S
C203 C194 1.390 . S
C203 H196 0.950 . S
C203 C200 1.387 . S
C85 C7 1.257 . S
C90 C49 1.257 . S
C95 C21 1.259 . S
C100 C63 1.259 . S
C105 C35 1.257 . S
C110 C77 1.257 . S
C115 C22 1.735 . S
C120 C64 1.735 . S
C125 C78 1.735 . S
C130 C36 1.735 . S
C135 C50 1.737 . S
C140 C8 1.737 . S
C145 C34 1.511 . S
C150 C9 1.365 . S
C155 C48 1.511 . S
C160 C23 1.365 . S
C165 C37 1.364 . S
C170 C62 1.511 . S
C175 C76 1.512 . S
C180 C51 1.368 . S
C185 C65 1.365 . S
C190 C6 1.511 . S
C195 C79 1.370 . S
C200 C20 1.512 . S
