# Generated by pormake.
# Topology unj, (4)-cn, num edge types: 1
# Building blocks:
#     Node 0, Type 0, BuildingBlock: GALJAG_clean_sbu_0, # of connection points: 4
#     Node 1, Type 0, BuildingBlock: GALJAG_clean_sbu_0, # of connection points: 4
#     Node 2, Type 0, BuildingBlock: GALJAG_clean_sbu_0, # of connection points: 4
#     Node 3, Type 0, BuildingBlock: GALJAG_clean_sbu_0, # of connection points: 4
#     Node 4, Type 0, BuildingBlock: GALJAG_clean_sbu_0, # of connection points: 4
#     Node 5, Type 0, BuildingBlock: GALJAG_clean_sbu_0, # of connection points: 4
#     Edge 6, Type (0, 0), None
#     Edge 7, Type (0, 0), None
#     Edge 8, Type (0, 0), None
#     Edge 9, Type (0, 0), None
#     Edge 10, Type (0, 0), None
#     Edge 11, Type (0, 0), None
#     Edge 12, Type (0, 0), None
#     Edge 13, Type (0, 0), None
#     Edge 14, Type (0, 0), None
#     Edge 15, Type (0, 0), None
#     Edge 16, Type (0, 0), None
#     Edge 17, Type (0, 0), None
# Relax obj value: 0.013
# Max RMSD: 0.059
# Mean RMSD: 0.059
data_MOF--net-unj--node1-GALJAG_clean_sbu_0--edge1-none
_symmetry_space_group_name_H-M    P1
_symmetry_Int_Tables_number       1
_symmetry_cell_setting            triclinic
loop_
_symmetry_equiv_pos_as_xyz
'x, y, z'
_cell_length_a     14.643802
_cell_length_b     14.64483
_cell_length_c     16.952739
_cell_angle_alpha  89.999981
_cell_angle_beta   90.000029
_cell_angle_gamma 120.00805
loop_
_atom_site_label
_atom_site_type_symbol
_atom_site_fract_x
_atom_site_fract_y
_atom_site_fract_z
_atom_type_partial_charge
In0 In 0.44864 0.21744 0.61688 0.0
O1 O 0.58292 0.27212 0.52757 0.0
O2 O 0.47176 0.32319 0.51052 0.0
C3 C 0.55324 0.21592 0.74769 0.0
C4 C 0.34365 0.02485 0.55191 0.0
C5 C 0.34375 0.30508 0.68193 0.0
O6 O 0.58309 0.29714 0.70605 0.0
O7 O 0.47192 0.13493 0.72325 0.0
O8 O 0.29757 0.2078 0.66568 0.0
O9 O 0.44027 0.35646 0.66456 0.0
C10 C 0.55302 0.3235 0.48599 0.0
O11 O 0.29749 0.07595 0.56821 0.0
O12 O 0.44019 0.07001 0.5692 0.0
In13 In 0.20409 0.46222 0.78354 0.0
O14 O 0.19439 0.31108 0.73486 0.0
O15 O 0.34307 0.45376 0.73586 0.0
C16 C 0.01154 0.35732 0.84859 0.0
C17 C 0.20242 0.5666 0.65265 0.0
C18 C 0.31021 0.56682 0.91434 0.0
O19 O 0.06264 0.31115 0.83234 0.0
O20 O 0.05668 0.45383 0.83122 0.0
O21 O 0.25883 0.59665 0.87271 0.0
O22 O 0.3099 0.48552 0.88991 0.0
C23 C 0.29166 0.35722 0.71857 0.0
O24 O 0.2837 0.5965 0.69423 0.0
O25 O 0.12145 0.48534 0.67718 0.0
In26 In 0.7147 0.21765 0.95022 0.0
O27 O 0.66006 0.29725 0.8609 0.0
O28 O 0.60892 0.13501 0.84386 0.0
C29 C 0.71622 0.32377 0.08101 0.0
C30 C 0.9073 0.30523 0.88524 0.0
C31 C 0.62707 0.02511 1.01527 0.0
O32 O 0.63499 0.27236 0.03938 0.0
O33 O 0.79722 0.32347 0.05658 0.0
O34 O 0.72436 0.07625 0.99903 0.0
O35 O 0.57568 0.07022 0.99789 0.0
C36 C 0.60865 0.21598 0.81933 0.0
O37 O 0.85616 0.20796 0.90153 0.0
O38 O 0.86217 0.35663 0.90254 0.0
In39 In 0.46994 0.72828 0.11688 0.0
O40 O 0.33566 0.6736 1.02757 0.0
O41 O 0.44682 0.62254 1.01052 0.0
C42 C 0.36534 0.7298 0.24769 0.0
C43 C 0.57493 0.92087 0.05191 0.0
C44 C 0.57483 0.64065 0.18193 0.0
O45 O 0.33549 0.64859 0.20605 0.0
O46 O 0.44666 0.81079 0.22325 0.0
O47 O 0.62101 0.73793 0.16568 0.0
O48 O 0.47831 0.58927 0.16456 0.0
C49 C 0.36556 0.62223 0.98599 0.0
O50 O 0.62109 0.86977 0.06821 0.0
O51 O 0.47839 0.87571 0.0692 0.0
In52 In 0.71449 0.4835 0.28354 0.0
O53 O 0.63488 0.34923 0.19423 0.0
O54 O 0.79713 0.46039 0.17718 0.0
C55 C 0.60837 0.3789 0.41434 0.0
C56 C 0.62692 0.5885 0.21857 0.0
C57 C 0.90704 0.5884 0.34859 0.0
O58 O 0.65975 0.34907 0.37271 0.0
O59 O 0.60868 0.4602 0.38991 0.0
O60 O 0.85594 0.63457 0.33234 0.0
O61 O 0.8619 0.49189 0.33122 0.0
C62 C 0.71616 0.37912 0.15265 0.0
O63 O 0.72419 0.63465 0.23486 0.0
O64 O 0.57551 0.49197 0.23586 0.0
In65 In 0.20387 0.72808 0.45022 0.0
O66 O 0.06242 0.73776 0.40153 0.0
O67 O 0.0564 0.58909 0.40254 0.0
C68 C 0.29151 0.92061 0.51527 0.0
C69 C 0.30993 0.72975 0.31933 0.0
C70 C 0.20236 0.62196 0.58101 0.0
O71 O 0.19422 0.86948 0.49903 0.0
O72 O 0.3429 0.87551 0.49789 0.0
O73 O 0.28359 0.67337 0.53939 0.0
O74 O 0.12136 0.62225 0.55658 0.0
C75 C 0.01128 0.64049 0.38524 0.0
O76 O 0.25852 0.64847 0.3609 0.0
O77 O 0.30966 0.81072 0.34386 0.0
loop_
_geom_bond_atom_site_label_1
_geom_bond_atom_site_label_2
_geom_bond_distance
_geom_bond_site_symmetry_2
_ccdc_geom_bond_type
In0 O1 2.294 . S
In0 O2 2.326 . S
In0 O6 2.266 . S
In0 O7 2.326 . S
In0 O8 2.266 . S
In0 O9 2.326 . S
In0 O11 2.294 . S
In0 O12 2.326 . S
O1 In0 2.294 . S
O1 C10 1.240 . S
O2 In0 2.326 . S
O2 C10 1.252 . S
C3 O6 1.252 . S
C3 O7 1.260 . S
C4 O11 1.240 . S
C4 O12 1.252 . S
C5 O8 1.252 . S
C5 O9 1.260 . S
O6 In0 2.266 . S
O6 C3 1.252 . S
O7 In0 2.326 . S
O7 C3 1.260 . S
O8 In0 2.266 . S
O8 C5 1.252 . S
O9 In0 2.326 . S
O9 C5 1.260 . S
C10 O1 1.240 . S
C10 O2 1.252 . S
O11 In0 2.294 . S
O11 C4 1.240 . S
O12 In0 2.326 . S
O12 C4 1.252 . S
In13 O14 2.294 . S
In13 O15 2.326 . S
In13 O19 2.266 . S
In13 O20 2.326 . S
In13 O21 2.266 . S
In13 O22 2.326 . S
In13 O24 2.294 . S
In13 O25 2.326 . S
O14 In13 2.294 . S
O14 C23 1.240 . S
O15 In13 2.326 . S
O15 C23 1.252 . S
C16 O19 1.252 . S
C16 O20 1.260 . S
C17 O24 1.240 . S
C17 O25 1.252 . S
C18 O21 1.252 . S
C18 O22 1.260 . S
O19 In13 2.266 . S
O19 C16 1.252 . S
O20 In13 2.326 . S
O20 C16 1.260 . S
O21 In13 2.266 . S
O21 C18 1.252 . S
O22 In13 2.326 . S
O22 C18 1.260 . S
C23 O14 1.240 . S
C23 O15 1.252 . S
O24 In13 2.294 . S
O24 C17 1.240 . S
O25 In13 2.326 . S
O25 C17 1.252 . S
In26 O27 2.294 . S
In26 O28 2.326 . S
In26 O32 2.266 . S
In26 O33 2.326 1_556 S
In26 O34 2.266 . S
In26 O35 2.326 . S
In26 O37 2.294 . S
In26 O38 2.326 . S
O27 In26 2.294 . S
O27 C36 1.240 . S
O28 In26 2.326 . S
O28 C36 1.252 . S
C29 O32 1.252 1_554 S
C29 O33 1.260 . S
C30 O37 1.240 . S
C30 O38 1.252 . S
C31 O34 1.252 . S
C31 O35 1.260 . S
O32 In26 2.266 . S
O32 C29 1.252 1_556 S
O33 In26 2.326 1_554 S
O33 C29 1.260 . S
O34 In26 2.266 . S
O34 C31 1.252 . S
O35 In26 2.326 . S
O35 C31 1.260 . S
C36 O27 1.240 . S
C36 O28 1.252 . S
O37 In26 2.294 . S
O37 C30 1.240 . S
O38 In26 2.326 . S
O38 C30 1.252 . S
In39 O40 2.294 . S
In39 O41 2.326 1_554 S
In39 O45 2.266 . S
In39 O46 2.326 . S
In39 O47 2.266 . S
In39 O48 2.326 . S
In39 O50 2.294 . S
In39 O51 2.326 . S
O40 In39 2.294 . S
O40 C49 1.240 1_554 S
O41 In39 2.326 1_556 S
O41 C49 1.252 . S
C42 O45 1.252 . S
C42 O46 1.260 . S
C43 O50 1.240 . S
C43 O51 1.252 . S
C44 O47 1.252 . S
C44 O48 1.260 . S
O45 In39 2.266 . S
O45 C42 1.252 . S
O46 In39 2.326 . S
O46 C42 1.260 . S
O47 In39 2.266 . S
O47 C44 1.252 . S
O48 In39 2.326 . S
O48 C44 1.260 . S
C49 O40 1.240 1_556 S
C49 O41 1.252 . S
O50 In39 2.294 . S
O50 C43 1.240 . S
O51 In39 2.326 . S
O51 C43 1.252 . S
In52 O53 2.294 . S
In52 O54 2.326 . S
In52 O58 2.266 . S
In52 O59 2.326 . S
In52 O60 2.266 . S
In52 O61 2.326 . S
In52 O63 2.294 . S
In52 O64 2.326 . S
O53 In52 2.294 . S
O53 C62 1.240 . S
O54 In52 2.326 . S
O54 C62 1.252 . S
C55 O58 1.252 . S
C55 O59 1.260 . S
C56 O63 1.240 . S
C56 O64 1.252 . S
C57 O60 1.252 . S
C57 O61 1.260 . S
O58 In52 2.266 . S
O58 C55 1.252 . S
O59 In52 2.326 . S
O59 C55 1.260 . S
O60 In52 2.266 . S
O60 C57 1.252 . S
O61 In52 2.326 . S
O61 C57 1.260 . S
C62 O53 1.240 . S
C62 O54 1.252 . S
O63 In52 2.294 . S
O63 C56 1.240 . S
O64 In52 2.326 . S
O64 C56 1.252 . S
In65 O66 2.294 . S
In65 O67 2.326 . S
In65 O71 2.266 . S
In65 O72 2.326 . S
In65 O73 2.266 . S
In65 O74 2.326 . S
In65 O76 2.294 . S
In65 O77 2.326 . S
O66 In65 2.294 . S
O66 C75 1.240 . S
O67 In65 2.326 . S
O67 C75 1.252 . S
C68 O71 1.252 . S
C68 O72 1.260 . S
C69 O76 1.240 . S
C69 O77 1.252 . S
C70 O73 1.252 . S
C70 O74 1.260 . S
O71 In65 2.266 . S
O71 C68 1.252 . S
O72 In65 2.326 . S
O72 C68 1.260 . S
O73 In65 2.266 . S
O73 C70 1.252 . S
O74 In65 2.326 . S
O74 C70 1.260 . S
C75 O66 1.240 . S
C75 O67 1.252 . S
O76 In65 2.294 . S
O76 C69 1.240 . S
O77 In65 2.326 . S
O77 C69 1.252 . S
C4 C68 1.612 1_545 S
C5 C23 1.613 . S
C30 C16 1.613 1_655 S
C43 C31 1.612 1_564 S
C56 C44 1.612 . S
C75 C57 1.613 1_455 S
C10 C55 1.466 . S
C70 C17 1.466 . S
C36 C3 1.466 . S
C18 C49 1.466 . S
C29 C62 1.466 . S
C69 C42 1.466 . S
