# Generated by pormake.
# Topology vby, (6)-cn, num edge types: 1
# Building blocks:
#     Node 0, Type 0, BuildingBlock: MIFKUJ_clean_sbu_0, # of connection points: 6
#     Node 1, Type 0, BuildingBlock: MIFKUJ_clean_sbu_0, # of connection points: 6
#     Node 2, Type 0, BuildingBlock: MIFKUJ_clean_sbu_0, # of connection points: 6
#     Node 3, Type 0, BuildingBlock: MIFKUJ_clean_sbu_0, # of connection points: 6
#     Node 4, Type 0, BuildingBlock: MIFKUJ_clean_sbu_0, # of connection points: 6
#     Node 5, Type 0, BuildingBlock: MIFKUJ_clean_sbu_0, # of connection points: 6
#     Node 6, Type 0, BuildingBlock: MIFKUJ_clean_sbu_0, # of connection points: 6
#     Node 7, Type 0, BuildingBlock: MIFKUJ_clean_sbu_0, # of connection points: 6
#     Edge 8, Type (0, 0), None
#     Edge 9, Type (0, 0), None
#     Edge 10, Type (0, 0), None
#     Edge 11, Type (0, 0), None
#     Edge 12, Type (0, 0), None
#     Edge 13, Type (0, 0), None
#     Edge 14, Type (0, 0), None
#     Edge 15, Type (0, 0), None
#     Edge 16, Type (0, 0), None
#     Edge 17, Type (0, 0), None
#     Edge 18, Type (0, 0), None
#     Edge 19, Type (0, 0), None
#     Edge 20, Type (0, 0), None
#     Edge 21, Type (0, 0), None
#     Edge 22, Type (0, 0), None
#     Edge 23, Type (0, 0), None
#     Edge 24, Type (0, 0), None
#     Edge 25, Type (0, 0), None
#     Edge 26, Type (0, 0), None
#     Edge 27, Type (0, 0), None
#     Edge 28, Type (0, 0), None
#     Edge 29, Type (0, 0), None
#     Edge 30, Type (0, 0), None
#     Edge 31, Type (0, 0), None
# Relax obj value: 0.119
# Max RMSD: 0.178
# Mean RMSD: 0.178
data_MOF--net-vby--node1-MIFKUJ_clean_sbu_0--edge1-none
_symmetry_space_group_name_H-M    P1
_symmetry_Int_Tables_number       1
_symmetry_cell_setting            triclinic
loop_
_symmetry_equiv_pos_as_xyz
'x, y, z'
_cell_length_a     8.9056715
_cell_length_b     39.652474
_cell_length_c     10.791489
_cell_angle_alpha  87.866475
_cell_angle_beta   90.186449
_cell_angle_gamma 90.67621
loop_
_atom_site_label
_atom_site_type_symbol
_atom_site_fract_x
_atom_site_fract_y
_atom_site_fract_z
_atom_type_partial_charge
Zn0 Zn 0.26003 0.33564 0.99428 0.0
Zn1 Zn 0.97758 0.4162 0.925 0.0
C2 C 0.5364 0.37499 0.92532 0.0
O3 O 0.45203 0.39439 0.85357 0.0
C4 C 0.69829 0.38164 0.93657 0.0
O5 O 0.77892 0.36229 0.01165 0.0
O6 O 0.26668 0.28666 0.04527 0.0
O7 O 0.14003 0.36297 0.12587 0.0
O8 O 0.99428 0.40894 0.1092 0.0
C9 C 0.23793 0.27062 0.14651 0.0
O10 O 0.19374 0.28666 0.24395 0.0
O11 O 0.4775 0.35086 0.98982 0.0
C12 C 0.9938 0.48614 0.92724 0.0
O13 O 0.8862 0.47999 1.00823 0.0
O14 O 0.0513 0.46191 0.87206 0.0
O15 O 0.11757 0.38369 0.87131 0.0
O16 O 0.1748 0.33444 0.81817 0.0
O17 O 0.76064 0.40672 0.8796 0.0
C18 C 0.05662 0.38532 0.17379 0.0
C19 C 0.10699 0.36144 0.79208 0.0
Zn20 Zn 0.80164 0.67073 0.0162 0.0
Zn21 Zn 0.08688 0.58964 0.98418 0.0
C22 C 0.52773 0.6295 0.96207 0.0
O23 O 0.61356 0.60855 0.90414 0.0
C24 C 0.36552 0.62326 0.9734 0.0
O25 O 0.2836 0.64462 0.03314 0.0
O26 O 0.79392 0.71985 0.05197 0.0
O27 O 0.92269 0.6459 0.15948 0.0
O28 O 0.07679 0.60141 0.16053 0.0
C29 C 0.74893 0.73378 0.1491 0.0
O30 O 0.70407 0.71532 0.24583 0.0
O31 O 0.58519 0.65492 0.01375 0.0
C32 C 0.05708 0.52009 0.91151 0.0
O33 O 0.17356 0.5262 0.83947 0.0
O34 O 1.00612 0.54305 0.97715 0.0
O35 O 0.94511 0.62089 0.91057 0.0
O36 O 0.89122 0.67036 0.84219 0.0
O37 O 0.3039 0.59673 0.93266 0.0
C38 C 1.01034 0.62482 0.21557 0.0
C39 C 0.9588 0.64318 0.82537 0.0
Zn40 Zn 0.24225 0.67045 0.53247 0.0
Zn41 Zn 0.9458 0.58684 0.59241 0.0
C42 C 0.51107 0.62892 0.6018 0.0
O43 O 0.42347 0.60855 0.66828 0.0
C44 C 0.67239 0.62244 0.59172 0.0
O45 O 0.75651 0.64335 0.52422 0.0
O46 O 0.26104 0.71999 0.4839 0.0
O47 O 0.11647 0.64594 0.39883 0.0
O48 O 0.96061 0.60084 0.41223 0.0
C49 C 0.29698 0.73359 0.37937 0.0
O50 O 0.32106 0.71478 0.28401 0.0
O51 O 0.45602 0.65389 0.54072 0.0
C52 C 0.90151 0.51552 0.56738 0.0
O53 O 0.77072 0.52639 0.52729 0.0
O54 O 0.99771 0.53673 0.60607 0.0
O55 O 0.09628 0.61759 0.66401 0.0
O56 O 0.14697 0.66944 0.70245 0.0
O57 O 0.73063 0.59602 0.641 0.0
C58 C 0.02571 0.62482 0.35015 0.0
C59 C 0.07902 0.6423 0.73332 0.0
Zn60 Zn 0.82842 0.33659 0.50081 0.0
Zn61 Zn 0.12351 0.41992 0.54704 0.0
C62 C 0.55867 0.37714 0.55786 0.0
O63 O 0.6463 0.39672 0.62249 0.0
C64 C 0.39764 0.38405 0.54512 0.0
O65 O 0.31321 0.36421 0.47863 0.0
O66 O 0.81205 0.287 0.46738 0.0
O67 O 0.95375 0.36368 0.36384 0.0
O68 O 0.10279 0.41006 0.36521 0.0
C69 C 0.81628 0.27043 0.369 0.0
O70 O 0.83891 0.28604 0.26111 0.0
O71 O 0.61356 0.35254 0.5017 0.0
C72 C 0.93808 0.47952 0.5573 0.0
O73 O 0.83634 0.45861 0.51505 0.0
O74 O 0.0698 0.46882 0.57988 0.0
O75 O 0.98038 0.38654 0.61651 0.0
O76 O 0.91744 0.33603 0.67393 0.0
O77 O 0.33982 0.40976 0.59244 0.0
C78 C 0.03994 0.38574 0.30889 0.0
C79 C 0.99082 0.36249 0.69594 0.0
Zn80 Zn 0.75995 0.83564 0.99427 0.0
Zn81 Zn 0.4775 0.9162 0.925 0.0
C82 C 0.03632 0.87499 0.92532 0.0
O83 O 0.95195 0.89439 0.85358 0.0
C84 C 0.19821 0.88164 0.93657 0.0
O85 O 0.27885 0.86229 0.01163 0.0
O86 O 0.76655 0.78666 0.04524 0.0
O87 O 0.63995 0.86298 0.12586 0.0
O88 O 0.49421 0.90894 0.1092 0.0
C89 C 0.73847 0.77063 0.14664 0.0
O90 O 0.69512 0.78669 0.2443 0.0
O91 O 0.97743 0.85085 0.98981 0.0
C92 C 0.49378 0.98614 0.92728 0.0
O93 O 0.38623 0.97999 1.00832 0.0
O94 O 0.55122 0.96191 0.87206 0.0
O95 O 0.61748 0.88369 0.8713 0.0
O96 O 0.67473 0.83444 0.81815 0.0
O97 O 0.26056 0.90672 0.8796 0.0
C98 C 0.55655 0.88532 0.17378 0.0
C99 C 0.60691 0.86144 0.79207 0.0
Zn100 Zn 0.30167 0.17073 0.01625 0.0
Zn101 Zn 0.58692 0.08964 0.98424 0.0
C102 C 0.02776 0.1295 0.96212 0.0
O103 O 0.11359 0.10856 0.9042 0.0
C104 C 0.86555 0.12326 0.97345 0.0
O105 O 0.78362 0.14462 0.03318 0.0
O106 O 0.294 0.21985 0.05203 0.0
O107 O 0.42272 0.1459 0.15952 0.0
O108 O 0.57682 0.10141 0.16059 0.0
C109 C 0.2484 0.23377 0.14898 0.0
O110 O 0.20281 0.2153 0.24545 0.0
O111 O 0.08521 0.15493 0.0138 0.0
C112 C 0.55708 0.02009 0.91155 0.0
O113 O 0.67351 0.0262 0.83947 0.0
O114 O 0.50616 0.04305 0.97721 0.0
O115 O 0.44515 0.12089 0.91062 0.0
O116 O 0.39124 0.17036 0.84223 0.0
O117 O 0.80394 0.09673 0.93272 0.0
C118 C 0.51037 0.12482 0.21562 0.0
C119 C 0.45882 0.14318 0.82542 0.0
Zn120 Zn 0.74228 0.17045 0.53251 0.0
Zn121 Zn 0.44582 0.08684 0.59245 0.0
C122 C 1.01109 0.12892 0.60186 0.0
O123 O 0.9235 0.10855 0.66835 0.0
C124 C 0.17242 0.12244 0.59177 0.0
O125 O 0.25653 0.14335 0.52426 0.0
O126 O 0.7611 0.21999 0.48396 0.0
O127 O 0.61649 0.14594 0.39887 0.0
O128 O 0.46063 0.10085 0.41228 0.0
C129 C 0.79643 0.23361 0.37931 0.0
O130 O 0.81979 0.21481 0.28378 0.0
O131 O 0.95604 0.15388 0.54077 0.0
C132 C 0.40149 0.01552 0.5674 0.0
O133 O 0.2707 0.0264 0.52733 0.0
O134 O 0.4977 0.03673 0.6061 0.0
O135 O 0.59632 0.11758 0.66407 0.0
O136 O 0.64698 0.16944 0.70249 0.0
O137 O 0.23066 0.09602 0.64106 0.0
C138 C 0.52573 0.12482 0.3502 0.0
C139 C 0.57905 0.1423 0.73336 0.0
Zn140 Zn 0.32835 0.83659 0.50079 0.0
Zn141 Zn 0.62343 0.91991 0.54703 0.0
C142 C 0.05859 0.87714 0.55786 0.0
O143 O 0.14622 0.89672 0.62251 0.0
C144 C 0.89756 0.88405 0.54511 0.0
O145 O 0.81315 0.86421 0.47861 0.0
O146 O 0.31194 0.787 0.46735 0.0
O147 O 0.45367 0.86368 0.36382 0.0
O148 O 0.60272 0.91006 0.3652 0.0
C149 C 0.31683 0.77042 0.36904 0.0
O150 O 0.34033 0.786 0.26125 0.0
O151 O 0.1135 0.85254 0.50169 0.0
C152 C 0.43803 0.97953 0.55731 0.0
O153 O 0.33627 0.95862 0.51506 0.0
O154 O 0.56975 0.96882 0.57988 0.0
O155 O 0.48029 0.88654 0.6165 0.0
O156 O 0.41737 0.83603 0.67391 0.0
O157 O 0.83974 0.90976 0.59245 0.0
C158 C 0.53987 0.88574 0.30888 0.0
C159 C 0.49074 0.86249 0.69592 0.0
loop_
_geom_bond_atom_site_label_1
_geom_bond_atom_site_label_2
_geom_bond_distance
_geom_bond_site_symmetry_2
_ccdc_geom_bond_type
Zn0 O6 1.969 . S
Zn0 O7 1.965 1_556 S
Zn0 O11 2.024 1_556 S
Zn0 O16 1.969 . S
Zn1 O8 1.969 . S
Zn1 O14 1.969 . S
Zn1 O15 1.965 1_654 S
Zn1 O17 2.024 1_554 S
C2 O3 1.229 . S
C2 O11 1.058 1_556 S
O3 C2 1.229 . S
C4 O5 1.229 . S
C4 O17 1.058 1_554 S
O5 C4 1.229 . S
O6 Zn0 1.969 . S
O6 C9 1.267 1_556 S
O7 Zn0 1.965 1_554 S
O7 C18 1.260 . S
O8 Zn1 1.969 . S
O8 C18 1.258 1_655 S
C9 O6 1.267 1_554 S
C9 O10 1.228 . S
O10 C9 1.228 . S
O11 Zn0 2.024 1_554 S
O11 C2 1.058 1_554 S
C12 O13 1.228 . S
C12 O14 1.267 1_556 S
O13 C12 1.228 . S
O14 Zn1 1.969 . S
O14 C12 1.267 1_554 S
O15 Zn1 1.965 1_456 S
O15 C19 1.260 . S
O16 Zn0 1.969 . S
O16 C19 1.258 . S
O17 Zn1 2.024 1_556 S
O17 C4 1.058 1_556 S
C18 O7 1.260 . S
C18 O8 1.258 1_455 S
C19 O15 1.260 . S
C19 O16 1.258 . S
Zn20 O26 1.969 . S
Zn20 O27 1.965 1_556 S
Zn20 O31 2.024 1_556 S
Zn20 O36 1.969 . S
Zn21 O28 1.969 . S
Zn21 O34 1.969 . S
Zn21 O35 1.965 1_454 S
Zn21 O37 2.024 1_554 S
C22 O23 1.229 . S
C22 O31 1.058 1_556 S
O23 C22 1.229 . S
C24 O25 1.229 . S
C24 O37 1.058 1_554 S
O25 C24 1.229 . S
O26 Zn20 1.969 . S
O26 C29 1.267 1_556 S
O27 Zn20 1.965 1_554 S
O27 C38 1.260 . S
O28 Zn21 1.969 . S
O28 C38 1.258 1_455 S
C29 O26 1.267 1_554 S
C29 O30 1.228 . S
O30 C29 1.228 . S
O31 Zn20 2.024 1_554 S
O31 C22 1.058 1_554 S
C32 O33 1.228 . S
C32 O34 1.267 1_556 S
O33 C32 1.228 . S
O34 Zn21 1.969 . S
O34 C32 1.267 1_554 S
O35 Zn21 1.965 1_656 S
O35 C39 1.260 . S
O36 Zn20 1.969 . S
O36 C39 1.258 . S
O37 Zn21 2.024 1_556 S
O37 C24 1.058 1_556 S
C38 O27 1.260 . S
C38 O28 1.258 1_655 S
C39 O35 1.260 . S
C39 O36 1.258 . S
Zn40 O46 1.969 . S
Zn40 O47 1.965 . S
Zn40 O51 2.024 . S
Zn40 O56 1.969 . S
Zn41 O48 1.969 . S
Zn41 O54 1.969 . S
Zn41 O55 1.965 1_655 S
Zn41 O57 2.024 . S
C42 O43 1.229 . S
C42 O51 1.058 . S
O43 C42 1.229 . S
C44 O45 1.229 . S
C44 O57 1.058 . S
O45 C44 1.229 . S
O46 Zn40 1.969 . S
O46 C49 1.267 . S
O47 Zn40 1.965 . S
O47 C58 1.260 . S
O48 Zn41 1.969 . S
O48 C58 1.258 1_655 S
C49 O46 1.267 . S
C49 O50 1.228 . S
O50 C49 1.228 . S
O51 Zn40 2.024 . S
O51 C42 1.058 . S
C52 O53 1.228 . S
C52 O54 1.267 . S
O53 C52 1.228 . S
O54 Zn41 1.969 . S
O54 C52 1.267 . S
O55 Zn41 1.965 1_455 S
O55 C59 1.260 . S
O56 Zn40 1.969 . S
O56 C59 1.258 . S
O57 Zn41 2.024 . S
O57 C44 1.058 . S
C58 O47 1.260 . S
C58 O48 1.258 1_455 S
C59 O55 1.260 . S
C59 O56 1.258 . S
Zn60 O66 1.969 . S
Zn60 O67 1.965 . S
Zn60 O71 2.024 . S
Zn60 O76 1.969 . S
Zn61 O68 1.969 . S
Zn61 O74 1.969 . S
Zn61 O75 1.965 1_455 S
Zn61 O77 2.024 . S
C62 O63 1.229 . S
C62 O71 1.058 . S
O63 C62 1.229 . S
C64 O65 1.229 . S
C64 O77 1.058 . S
O65 C64 1.229 . S
O66 Zn60 1.969 . S
O66 C69 1.267 . S
O67 Zn60 1.965 . S
O67 C78 1.260 . S
O68 Zn61 1.969 . S
O68 C78 1.258 1_455 S
C69 O66 1.267 . S
C69 O70 1.228 . S
O70 C69 1.228 . S
O71 Zn60 2.024 . S
O71 C62 1.058 . S
C72 O73 1.228 . S
C72 O74 1.267 . S
O73 C72 1.228 . S
O74 Zn61 1.969 . S
O74 C72 1.267 . S
O75 Zn61 1.965 1_655 S
O75 C79 1.260 . S
O76 Zn60 1.969 . S
O76 C79 1.258 . S
O77 Zn61 2.024 . S
O77 C64 1.058 . S
C78 O67 1.260 . S
C78 O68 1.258 1_655 S
C79 O75 1.260 . S
C79 O76 1.258 . S
Zn80 O86 1.969 . S
Zn80 O87 1.965 1_556 S
Zn80 O91 2.024 1_556 S
Zn80 O96 1.969 . S
Zn81 O88 1.969 . S
Zn81 O94 1.969 . S
Zn81 O95 1.965 1_554 S
Zn81 O97 2.024 1_554 S
C82 O83 1.229 . S
C82 O91 1.058 1_556 S
O83 C82 1.229 . S
C84 O85 1.229 . S
C84 O97 1.058 1_554 S
O85 C84 1.229 . S
O86 Zn80 1.969 . S
O86 C89 1.267 1_556 S
O87 Zn80 1.965 1_554 S
O87 C98 1.260 . S
O88 Zn81 1.969 . S
O88 C98 1.258 . S
C89 O86 1.267 1_554 S
C89 O90 1.228 . S
O90 C89 1.228 . S
O91 Zn80 2.024 1_554 S
O91 C82 1.058 1_554 S
C92 O93 1.228 . S
C92 O94 1.267 1_556 S
O93 C92 1.228 . S
O94 Zn81 1.969 . S
O94 C92 1.267 1_554 S
O95 Zn81 1.965 1_556 S
O95 C99 1.260 . S
O96 Zn80 1.969 . S
O96 C99 1.258 . S
O97 Zn81 2.024 1_556 S
O97 C84 1.058 1_556 S
C98 O87 1.260 . S
C98 O88 1.258 . S
C99 O95 1.260 . S
C99 O96 1.258 . S
Zn100 O106 1.969 . S
Zn100 O107 1.965 1_556 S
Zn100 O111 2.024 1_556 S
Zn100 O116 1.969 . S
Zn101 O108 1.969 . S
Zn101 O114 1.969 . S
Zn101 O115 1.965 1_554 S
Zn101 O117 2.024 1_554 S
C102 O103 1.229 . S
C102 O111 1.058 1_556 S
O103 C102 1.229 . S
C104 O105 1.229 . S
C104 O117 1.058 1_554 S
O105 C104 1.229 . S
O106 Zn100 1.969 . S
O106 C109 1.267 1_556 S
O107 Zn100 1.965 1_554 S
O107 C118 1.260 . S
O108 Zn101 1.969 . S
O108 C118 1.258 . S
C109 O106 1.267 1_554 S
C109 O110 1.228 . S
O110 C109 1.228 . S
O111 Zn100 2.024 1_554 S
O111 C102 1.058 1_554 S
C112 O113 1.228 . S
C112 O114 1.267 1_556 S
O113 C112 1.228 . S
O114 Zn101 1.969 . S
O114 C112 1.267 1_554 S
O115 Zn101 1.965 1_556 S
O115 C119 1.260 . S
O116 Zn100 1.969 . S
O116 C119 1.258 . S
O117 Zn101 2.024 1_556 S
O117 C104 1.058 1_556 S
C118 O107 1.260 . S
C118 O108 1.258 . S
C119 O115 1.260 . S
C119 O116 1.258 . S
Zn120 O126 1.969 . S
Zn120 O127 1.965 . S
Zn120 O131 2.024 . S
Zn120 O136 1.969 . S
Zn121 O128 1.969 . S
Zn121 O134 1.969 . S
Zn121 O135 1.965 . S
Zn121 O137 2.024 . S
C122 O123 1.229 . S
C122 O131 1.058 . S
O123 C122 1.229 . S
C124 O125 1.229 . S
C124 O137 1.058 . S
O125 C124 1.229 . S
O126 Zn120 1.969 . S
O126 C129 1.267 . S
O127 Zn120 1.965 . S
O127 C138 1.260 . S
O128 Zn121 1.969 . S
O128 C138 1.258 . S
C129 O126 1.267 . S
C129 O130 1.228 . S
O130 C129 1.228 . S
O131 Zn120 2.024 . S
O131 C122 1.058 . S
C132 O133 1.228 . S
C132 O134 1.267 . S
O133 C132 1.228 . S
O134 Zn121 1.969 . S
O134 C132 1.267 . S
O135 Zn121 1.965 . S
O135 C139 1.260 . S
O136 Zn120 1.969 . S
O136 C139 1.258 . S
O137 Zn121 2.024 . S
O137 C124 1.058 . S
C138 O127 1.260 . S
C138 O128 1.258 . S
C139 O135 1.260 . S
C139 O136 1.258 . S
Zn140 O146 1.969 . S
Zn140 O147 1.965 . S
Zn140 O151 2.024 . S
Zn140 O156 1.969 . S
Zn141 O148 1.969 . S
Zn141 O154 1.969 . S
Zn141 O155 1.965 . S
Zn141 O157 2.024 . S
C142 O143 1.229 . S
C142 O151 1.058 . S
O143 C142 1.229 . S
C144 O145 1.229 . S
C144 O157 1.058 . S
O145 C144 1.229 . S
O146 Zn140 1.969 . S
O146 C149 1.267 . S
O147 Zn140 1.965 . S
O147 C158 1.260 . S
O148 Zn141 1.969 . S
O148 C158 1.258 . S
C149 O146 1.267 . S
C149 O150 1.228 . S
O150 C149 1.228 . S
O151 Zn140 2.024 . S
O151 C142 1.058 . S
C152 O153 1.228 . S
C152 O154 1.267 . S
O153 C152 1.228 . S
O154 Zn141 1.969 . S
O154 C152 1.267 . S
O155 Zn141 1.965 . S
O155 C159 1.260 . S
O156 Zn140 1.969 . S
O156 C159 1.258 . S
O157 Zn141 2.024 . S
O157 C144 1.058 . S
C158 O147 1.260 . S
C158 O148 1.258 . S
C159 O155 1.260 . S
C159 O156 1.258 . S
C2 C4 2.291 1_556 S
C24 C22 2.291 1_554 S
C44 C42 2.291 . S
C62 C64 2.291 . S
C82 C84 2.291 1_656 S
C102 C104 2.291 1_456 S
C124 C122 2.291 1_455 S
C144 C142 2.291 1_655 S
C32 C12 3.164 1_455 S
C72 C52 3.164 1_455 S
C92 C112 3.164 1_565 S
C132 C152 3.164 1_545 S
C9 C109 1.526 . S
C89 C29 1.526 . S
C49 C149 1.526 . S
C69 C129 1.526 . S
C18 C78 1.541 1_455 S
C38 C58 1.541 1_655 S
C39 C59 2.120 1_655 S
C79 C19 2.120 1_655 S
C98 C158 1.541 . S
C118 C138 1.541 . S
C119 C139 2.120 . S
C159 C99 2.120 . S
