# Generated by pormake.
# Topology unc, (4)-cn, num edge types: 1
# Building blocks:
#     Node 0, Type 0, BuildingBlock: GALJAG_clean_sbu_0, # of connection points: 4
#     Node 1, Type 0, BuildingBlock: GALJAG_clean_sbu_0, # of connection points: 4
#     Node 2, Type 0, BuildingBlock: GALJAG_clean_sbu_0, # of connection points: 4
#     Node 3, Type 0, BuildingBlock: GALJAG_clean_sbu_0, # of connection points: 4
#     Edge 4, Type (0, 0), BuildingBlock: CIFDUS_clean_linker_0, # of connection points: 2
#     Edge 5, Type (0, 0), BuildingBlock: CIFDUS_clean_linker_0, # of connection points: 2
#     Edge 6, Type (0, 0), BuildingBlock: CIFDUS_clean_linker_0, # of connection points: 2
#     Edge 7, Type (0, 0), BuildingBlock: CIFDUS_clean_linker_0, # of connection points: 2
#     Edge 8, Type (0, 0), BuildingBlock: CIFDUS_clean_linker_0, # of connection points: 2
#     Edge 9, Type (0, 0), BuildingBlock: CIFDUS_clean_linker_0, # of connection points: 2
#     Edge 10, Type (0, 0), BuildingBlock: CIFDUS_clean_linker_0, # of connection points: 2
#     Edge 11, Type (0, 0), BuildingBlock: CIFDUS_clean_linker_0, # of connection points: 2
# Relax obj value: 0.013
# Max RMSD: 0.034
# Mean RMSD: 0.034
data_MOF--net-unc--node1-GALJAG_clean_sbu_0--edge1-CIFDUS_clean_linker_0
_symmetry_space_group_name_H-M    P1
_symmetry_Int_Tables_number       1
_symmetry_cell_setting            triclinic
loop_
_symmetry_equiv_pos_as_xyz
'x, y, z'
_cell_length_a     27.099866
_cell_length_b     27.280532
_cell_length_c     18.286496
_cell_angle_alpha  89.795941
_cell_angle_beta   90.319987
_cell_angle_gamma 89.431692
loop_
_atom_site_label
_atom_site_type_symbol
_atom_site_fract_x
_atom_site_fract_y
_atom_site_fract_z
_atom_type_partial_charge
In0 In 1.0112 0.68452 -0.00233 0.0
O1 O 0.08577 0.71969 0.97788 0.0
O2 O 0.04671 0.73874 0.07506 0.0
C3 C 1.00629 0.61804 0.88882 0.0
C4 C 0.94513 0.75421 0.95803 0.0
C5 C 0.01344 0.62248 0.11252 0.0
O6 O 0.04645 0.6378 0.90695 0.0
O7 O 0.96925 0.63308 0.92363 0.0
O8 O 0.97412 0.64442 0.09338 0.0
O9 O 0.05075 0.63254 0.07488 0.0
C10 C 0.08501 0.7441 0.0367 0.0
O11 O 0.93508 0.72169 0.0049 0.0
O12 O 0.98802 0.75166 0.93187 0.0
In13 In 0.33568 0.01311 0.22039 0.0
O14 O 0.31273 0.94222 0.16456 0.0
O15 O 0.26827 0.96825 0.25183 0.0
C16 C 0.40902 0.99152 0.31687 0.0
C17 C 0.27461 0.08794 0.25839 0.0
C18 C 0.38727 0.03187 0.09727 0.0
O19 O 0.37871 0.95951 0.29621 0.0
O20 O 0.40149 0.03345 0.29007 0.0
O21 O 0.39764 0.05082 0.1581 0.0
O22 O 0.34926 1.00561 0.09765 0.0
C23 C 0.27447 0.93652 0.20257 0.0
O24 O 0.28301 0.07732 0.19246 0.0
O25 O 0.29752 0.06154 0.30413 0.0
In26 In 0.01239 0.33141 0.49904 0.0
O27 O 0.08156 0.28485 0.51649 0.0
O28 O 0.05019 0.28663 0.40955 0.0
C29 C 0.02439 0.39288 0.61341 0.0
C30 C 0.93977 0.26961 0.5391 0.0
C31 C 1.00163 0.3983 0.3911 0.0
O32 O 0.06042 0.37233 0.58227 0.0
O33 O 0.98278 0.38065 0.58904 0.0
O34 O 0.9706 0.36471 0.40104 0.0
O35 O 0.03829 0.39686 0.43375 0.0
C36 C 0.08411 0.27048 0.45103 0.0
O37 O 0.93139 0.30916 0.50512 0.0
O38 O 0.98472 0.26092 0.55232 0.0
In39 In 0.68481 1.003 0.72583 0.0
O40 O 0.70863 0.92221 0.73569 0.0
O41 O 0.73864 0.97322 0.81111 0.0
C42 C 0.63186 0.9994 0.60058 0.0
C43 C 0.75718 0.06237 0.6796 0.0
C44 C 0.61471 0.02563 0.82555 0.0
O45 O 0.64929 0.03834 0.62643 0.0
O46 O 0.64224 0.96111 0.63687 0.0
O47 O 0.65544 0.04759 0.82333 0.0
O48 O 0.61001 0.99234 0.7787 0.0
C49 C 0.73717 0.92947 0.78937 0.0
O50 O 0.71968 0.07828 0.71321 0.0
O51 O 0.75814 0.01659 0.66931 0.0
H52 H 0.94223 0.5593 0.15601 0.0
H53 H 0.09196 0.60317 0.19954 0.0
H54 H 0.1012 0.53785 0.29028 0.0
H55 H 0.06808 0.46673 0.35374 0.0
H56 H 0.92011 0.41876 0.30675 0.0
H57 H 0.90888 0.48677 0.22013 0.0
C58 C 0.97652 0.55479 0.18626 0.0
C59 C 0.01625 0.58601 0.17185 0.0
C60 C 0.98211 0.51608 0.23674 0.0
C61 C 0.06091 0.57948 0.21008 0.0
C62 C 0.06627 0.54211 0.26169 0.0
C63 C 0.03336 0.47108 0.3245 0.0
C64 C 0.99502 0.4378 0.33644 0.0
C65 C 0.02738 0.50984 0.27472 0.0
C66 C 0.95029 0.44383 0.29809 0.0
C67 C 0.94378 0.48281 0.24887 0.0
H68 H 0.48521 0.05102 0.34494 0.0
H69 H 0.42597 0.91004 0.40257 0.0
H70 H 0.49296 0.89755 0.49185 0.0
H71 H 0.56548 0.92985 0.55904 0.0
H72 H 0.62206 0.07194 0.5004 0.0
H73 H 0.55939 0.08053 0.40515 0.0
C74 C 0.48697 0.01742 0.37682 0.0
C75 C 0.45046 0.98174 0.36788 0.0
C76 C 0.52525 0.01068 0.42767 0.0
C77 C 0.4536 0.93815 0.40883 0.0
C78 C 0.49186 0.93104 0.45982 0.0
C79 C 0.56448 0.96224 0.52448 0.0
C80 C 0.59818 1.00031 0.53687 0.0
C81 C 0.52756 0.96742 0.47043 0.0
C82 C 0.59635 0.04227 0.49216 0.0
C83 C 0.56045 0.0473 0.43782 0.0
H84 H 0.08115 0.56456 0.82829 0.0
H85 H 0.92258 0.58107 0.83029 0.0
H86 H 0.91436 0.51152 0.7481 0.0
H87 H 0.95168 0.44603 0.67608 0.0
H88 H 0.10999 0.42826 0.67241 0.0
H89 H 0.11886 0.49782 0.75567 0.0
C90 C 0.0449 0.5531 0.81015 0.0
C91 C 1.00256 0.57803 0.83502 0.0
C92 C 0.04034 0.51256 0.76337 0.0
C93 C 0.95575 0.56254 0.81178 0.0
C94 C 0.95096 0.52267 0.76497 0.0
C95 C 0.98815 0.4571 0.6939 0.0
C96 C 0.0301 0.43197 0.66839 0.0
C97 C 0.99293 0.49729 0.74078 0.0
C98 C 0.0771 0.44692 0.69165 0.0
C99 C 0.08219 0.48682 0.7389 0.0
H100 H 0.47508 0.07887 0.08892 0.0
H101 H 0.37555 0.98848 0.96454 0.0
H102 H 0.43673 0.9806 0.86773 0.0
H103 H 0.5207 0.99361 0.82332 0.0
H104 H 0.6209 0.08347 0.94707 0.0
H105 H 0.55718 0.09742 0.03936 0.0
C106 C 0.46649 0.05813 0.04006 0.0
C107 C 0.42095 0.03407 0.03408 0.0
C108 C 0.50215 0.05315 -0.01497 0.0
C109 C 0.41033 1.00732 0.9705 0.0
C110 C 0.4454 1.00256 0.91529 0.0
C111 C 0.52853 0.01647 0.87031 0.0
C112 C 0.57558 0.037 0.87894 0.0
C113 C 0.49181 0.02431 0.92284 0.0
C114 C 0.58501 0.06705 0.93952 0.0
C115 C 0.54862 0.075 -0.00775 0.0
H116 H 0.27333 0.87432 0.08707 0.0
H117 H 0.19157 0.91504 0.27972 0.0
H118 H 0.12609 0.85831 0.24601 0.0
H119 H 0.09054 0.79971 0.15921 0.0
H120 H 0.17141 0.7604 0.96508 0.0
H121 H 0.23871 0.81414 0.00185 0.0
C122 C 0.24144 0.87036 0.12211 0.0
C123 C 0.23735 0.89875 0.18588 0.0
C124 C 0.20359 0.83828 0.10177 0.0
C125 C 0.19564 0.8935 0.23043 0.0
C126 C 0.15811 0.86121 0.21105 0.0
C127 C 0.12294 0.80283 0.12502 0.0
C128 C 0.1259 0.77626 0.05937 0.0
C129 C 0.16141 0.83389 0.14638 0.0
C130 C 0.16815 0.78061 0.01574 0.0
C131 C 0.20669 0.81126 0.03678 0.0
H132 H 0.25752 0.1197 0.3959 0.0
H133 H 0.21107 0.14142 0.17201 0.0
H134 H 0.14802 0.20036 0.2117 0.0
H135 H 0.10442 0.24367 0.31091 0.0
H136 H 0.1524 0.22208 0.53428 0.0
H137 H 0.2165 0.16506 0.49387 0.0
C138 C 0.23378 0.13751 0.35569 0.0
C139 C 0.23881 0.1261 0.28117 0.0
C140 C 0.19773 0.17118 0.37888 0.0
C141 C 0.20793 0.14964 0.22972 0.0
C142 C 0.1718 0.1832 0.25241 0.0
C143 C 0.12897 0.22649 0.35065 0.0
C144 C 0.12348 0.23687 0.42552 0.0
C145 C 0.16604 0.19389 0.32696 0.0
C146 C 0.15578 0.21466 0.47636 0.0
C147 C 0.19246 0.18203 0.45332 0.0
H148 H 0.74992 0.15924 0.64753 0.0
H149 H 0.85282 0.03769 0.65267 0.0
H150 H 0.91888 0.09129 0.6108 0.0
H151 H 0.9474 0.17297 0.57315 0.0
H152 H 0.84303 0.29304 0.5593 0.0
H153 H 0.77746 0.23988 0.60384 0.0
C154 C 0.78688 0.14463 0.63962 0.0
C155 C 0.79672 0.09481 0.65366 0.0
C156 C 0.8243 0.17536 0.6138 0.0
C157 C 0.84447 0.076 0.64218 0.0
C158 C 0.88222 0.10661 0.61835 0.0
C159 C 0.91027 0.18739 0.57989 0.0
C160 C 0.90002 0.23683 0.56343 0.0
C161 C 0.87257 0.15636 0.60405 0.0
C162 C 0.85171 0.25503 0.57152 0.0
C163 C 0.81427 0.22471 0.59716 0.0
H164 H 0.82636 0.94084 0.85226 0.0
H165 H 0.71878 0.83133 0.79799 0.0
H166 H 0.77206 0.76731 0.85173 0.0
H167 H 0.85094 0.74244 0.91106 0.0
H168 H 0.96181 0.85138 0.95091 0.0
H169 H 0.90568 0.91593 0.90658 0.0
C170 C 0.81451 0.90296 0.8527 0.0
C171 C 0.76868 0.89068 0.82199 0.0
C172 C 0.84599 0.86641 0.88121 0.0
C173 C 0.75399 0.84148 0.82149 0.0
C174 C 0.78438 0.80498 0.85227 0.0
C175 C 0.86232 0.78045 0.9106 0.0
C176 C 0.90989 0.79261 0.93494 0.0
C177 C 0.83061 0.81699 0.88198 0.0
C178 C 0.9251 0.84157 0.9327 0.0
C179 C 0.89312 0.87833 0.90731 0.0
loop_
_geom_bond_atom_site_label_1
_geom_bond_atom_site_label_2
_geom_bond_distance
_geom_bond_site_symmetry_2
_ccdc_geom_bond_type
In0 O1 2.294 1_554 S
In0 O2 2.326 . S
In0 O6 2.266 1_554 S
In0 O7 2.326 1_454 S
In0 O8 2.266 1_455 S
In0 O9 2.326 . S
In0 O11 2.294 1_455 S
In0 O12 2.326 1_454 S
O1 In0 2.294 1_556 S
O1 C10 1.240 1_556 S
O2 In0 2.326 . S
O2 C10 1.252 . S
C3 O6 1.253 . S
C3 O7 1.259 1_455 S
C4 O11 1.240 1_556 S
C4 O12 1.252 . S
C5 O8 1.253 1_455 S
C5 O9 1.259 . S
O6 In0 2.266 1_556 S
O6 C3 1.253 . S
O7 In0 2.326 1_656 S
O7 C3 1.259 1_655 S
O8 In0 2.266 1_655 S
O8 C5 1.253 1_655 S
O9 In0 2.326 . S
O9 C5 1.259 . S
C10 O1 1.240 1_554 S
C10 O2 1.252 . S
O11 In0 2.294 1_655 S
O11 C4 1.240 1_554 S
O12 In0 2.326 1_656 S
O12 C4 1.252 . S
In13 O14 2.294 1_545 S
In13 O15 2.326 1_545 S
In13 O19 2.266 1_545 S
In13 O20 2.326 . S
In13 O21 2.266 . S
In13 O22 2.326 1_545 S
In13 O24 2.294 . S
In13 O25 2.326 . S
O14 In13 2.294 1_565 S
O14 C23 1.240 . S
O15 In13 2.326 1_565 S
O15 C23 1.252 . S
C16 O19 1.253 1_545 S
C16 O20 1.259 . S
C17 O24 1.240 . S
C17 O25 1.252 . S
C18 O21 1.253 . S
C18 O22 1.259 1_545 S
O19 In13 2.266 1_565 S
O19 C16 1.253 1_565 S
O20 In13 2.326 . S
O20 C16 1.259 . S
O21 In13 2.266 . S
O21 C18 1.253 . S
O22 In13 2.326 1_565 S
O22 C18 1.259 1_565 S
C23 O14 1.240 . S
C23 O15 1.252 . S
O24 In13 2.294 . S
O24 C17 1.240 . S
O25 In13 2.326 . S
O25 C17 1.252 . S
In26 O27 2.294 . S
In26 O28 2.326 . S
In26 O32 2.266 . S
In26 O33 2.326 1_455 S
In26 O34 2.266 1_455 S
In26 O35 2.326 . S
In26 O37 2.294 1_455 S
In26 O38 2.326 1_455 S
O27 In26 2.294 . S
O27 C36 1.240 . S
O28 In26 2.326 . S
O28 C36 1.252 . S
C29 O32 1.253 . S
C29 O33 1.259 1_455 S
C30 O37 1.240 . S
C30 O38 1.252 . S
C31 O34 1.253 1_455 S
C31 O35 1.259 . S
O32 In26 2.266 . S
O32 C29 1.253 . S
O33 In26 2.326 1_655 S
O33 C29 1.259 1_655 S
O34 In26 2.266 1_655 S
O34 C31 1.253 1_655 S
O35 In26 2.326 . S
O35 C31 1.259 . S
C36 O27 1.240 . S
C36 O28 1.252 . S
O37 In26 2.294 1_655 S
O37 C30 1.240 . S
O38 In26 2.326 1_655 S
O38 C30 1.252 . S
In39 O40 2.294 1_545 S
In39 O41 2.326 1_545 S
In39 O45 2.266 1_545 S
In39 O46 2.326 . S
In39 O47 2.266 . S
In39 O48 2.326 1_545 S
In39 O50 2.294 . S
In39 O51 2.326 . S
O40 In39 2.294 1_565 S
O40 C49 1.240 . S
O41 In39 2.326 1_565 S
O41 C49 1.252 . S
C42 O45 1.253 1_545 S
C42 O46 1.259 . S
C43 O50 1.240 . S
C43 O51 1.252 . S
C44 O47 1.253 . S
C44 O48 1.259 1_545 S
O45 In39 2.266 1_565 S
O45 C42 1.253 1_565 S
O46 In39 2.326 . S
O46 C42 1.259 . S
O47 In39 2.266 . S
O47 C44 1.253 . S
O48 In39 2.326 1_565 S
O48 C44 1.259 1_565 S
C49 O40 1.240 . S
C49 O41 1.252 . S
O50 In39 2.294 . S
O50 C43 1.240 . S
O51 In39 2.326 . S
O51 C43 1.252 . S
H52 C58 0.930 . S
H53 C61 0.930 . S
H54 C62 0.930 . S
H55 C63 0.930 . S
H56 C66 0.930 . S
H57 C67 0.930 . S
C58 H52 0.930 . S
C58 C59 1.355 1_655 S
C58 C60 1.415 . S
C59 C58 1.355 1_455 S
C59 C61 1.419 . S
C60 C58 1.415 . S
C60 C65 1.425 1_655 S
C60 C67 1.409 . S
C61 H53 0.930 . S
C61 C59 1.419 . S
C61 C62 1.362 . S
C62 H54 0.930 . S
C62 C61 1.362 . S
C62 C65 1.409 . S
C63 H55 0.930 . S
C63 C64 1.355 1_455 S
C63 C65 1.415 . S
C64 C63 1.355 1_655 S
C64 C66 1.419 . S
C65 C60 1.425 1_455 S
C65 C62 1.409 . S
C65 C63 1.415 . S
C66 H56 0.930 . S
C66 C64 1.419 . S
C66 C67 1.362 . S
C67 H57 0.930 . S
C67 C60 1.409 . S
C67 C66 1.362 . S
H68 C74 0.930 . S
H69 C77 0.930 . S
H70 C78 0.930 . S
H71 C79 0.930 . S
H72 C82 0.930 . S
H73 C83 0.931 . S
C74 H68 0.930 . S
C74 C75 1.355 . S
C74 C76 1.415 . S
C75 C74 1.355 . S
C75 C77 1.419 . S
C76 C74 1.415 . S
C76 C81 1.425 . S
C76 C83 1.409 1_565 S
C77 H69 0.930 . S
C77 C75 1.419 . S
C77 C78 1.362 . S
C78 H70 0.930 . S
C78 C77 1.362 . S
C78 C81 1.409 . S
C79 H71 0.930 . S
C79 C80 1.355 . S
C79 C81 1.414 1_545 S
C80 C79 1.355 . S
C80 C82 1.419 . S
C81 C76 1.425 . S
C81 C78 1.409 . S
C81 C79 1.414 1_565 S
C82 H72 0.930 . S
C82 C80 1.419 . S
C82 C83 1.362 . S
C83 H73 0.931 . S
C83 C76 1.409 1_545 S
C83 C82 1.362 . S
H84 C90 0.930 . S
H85 C93 0.930 . S
H86 C94 0.930 . S
H87 C95 0.930 . S
H88 C98 0.930 . S
H89 C99 0.930 . S
C90 H84 0.930 . S
C90 C91 1.355 1_455 S
C90 C92 1.415 . S
C91 C90 1.355 1_655 S
C91 C93 1.419 . S
C92 C90 1.415 . S
C92 C97 1.425 1_455 S
C92 C99 1.409 . S
C93 H85 0.930 . S
C93 C91 1.419 . S
C93 C94 1.362 . S
C94 H86 0.930 . S
C94 C93 1.362 . S
C94 C97 1.409 . S
C95 H87 0.930 . S
C95 C96 1.355 1_655 S
C95 C97 1.415 . S
C96 C95 1.355 1_455 S
C96 C98 1.419 . S
C97 C92 1.425 1_655 S
C97 C94 1.409 . S
C97 C95 1.415 . S
C98 H88 0.930 . S
C98 C96 1.419 . S
C98 C99 1.362 . S
C99 H89 0.930 . S
C99 C92 1.409 . S
C99 C98 1.362 . S
H100 C106 0.930 1_556 S
H101 C109 0.930 . S
H102 C110 0.930 . S
H103 C111 0.929 1_564 S
H104 C114 0.930 . S
H105 C115 0.930 . S
C106 H100 0.930 1_554 S
C106 C107 1.354 1_545 S
C106 C108 1.415 1_554 S
C107 C106 1.354 1_565 S
C107 C109 1.420 . S
C108 C106 1.415 1_556 S
C108 C113 1.425 1_546 S
C108 C115 1.409 . S
C109 H101 0.930 . S
C109 C107 1.420 . S
C109 C110 1.362 . S
C110 H102 0.930 . S
C110 C109 1.362 . S
C110 C113 1.409 . S
C111 H103 0.929 1_546 S
C111 C112 1.356 . S
C111 C113 1.414 1_546 S
C112 C111 1.356 . S
C112 C114 1.419 . S
C113 C108 1.425 1_564 S
C113 C110 1.409 . S
C113 C111 1.414 1_564 S
C114 H104 0.930 . S
C114 C112 1.419 . S
C114 C115 1.362 . S
C115 H105 0.930 . S
C115 C108 1.409 . S
C115 C114 1.362 . S
H116 C122 0.930 . S
H117 C125 0.930 . S
H118 C126 0.930 . S
H119 C127 0.930 . S
H120 C130 0.930 . S
H121 C131 0.930 . S
C122 H116 0.930 . S
C122 C123 1.355 . S
C122 C124 1.415 . S
C123 C122 1.355 . S
C123 C125 1.419 . S
C124 C122 1.415 . S
C124 C129 1.425 . S
C124 C131 1.409 . S
C125 H117 0.930 . S
C125 C123 1.419 . S
C125 C126 1.362 . S
C126 H118 0.930 . S
C126 C125 1.362 . S
C126 C129 1.409 . S
C127 H119 0.930 . S
C127 C128 1.355 . S
C127 C129 1.415 . S
C128 C127 1.355 . S
C128 C130 1.419 . S
C129 C124 1.425 . S
C129 C126 1.409 . S
C129 C127 1.415 . S
C130 H120 0.930 . S
C130 C128 1.419 . S
C130 C131 1.362 . S
C131 H121 0.930 . S
C131 C124 1.409 . S
C131 C130 1.362 . S
H132 C138 0.930 . S
H133 C141 0.930 . S
H134 C142 0.930 . S
H135 C143 0.930 . S
H136 C146 0.930 . S
H137 C147 0.930 . S
C138 H132 0.930 . S
C138 C139 1.355 . S
C138 C140 1.415 . S
C139 C138 1.355 . S
C139 C141 1.419 . S
C140 C138 1.415 . S
C140 C145 1.425 . S
C140 C147 1.409 . S
C141 H133 0.930 . S
C141 C139 1.419 . S
C141 C142 1.362 . S
C142 H134 0.930 . S
C142 C141 1.362 . S
C142 C145 1.409 . S
C143 H135 0.930 . S
C143 C144 1.355 . S
C143 C145 1.415 . S
C144 C143 1.355 . S
C144 C146 1.419 . S
C145 C140 1.425 . S
C145 C142 1.409 . S
C145 C143 1.415 . S
C146 H136 0.930 . S
C146 C144 1.419 . S
C146 C147 1.362 . S
C147 H137 0.930 . S
C147 C140 1.409 . S
C147 C146 1.362 . S
H148 C154 0.930 . S
H149 C157 0.930 . S
H150 C158 0.930 . S
H151 C159 0.930 . S
H152 C162 0.930 . S
H153 C163 0.930 . S
C154 H148 0.930 . S
C154 C155 1.355 . S
C154 C156 1.415 . S
C155 C154 1.355 . S
C155 C157 1.419 . S
C156 C154 1.415 . S
C156 C161 1.425 . S
C156 C163 1.409 . S
C157 H149 0.930 . S
C157 C155 1.419 . S
C157 C158 1.362 . S
C158 H150 0.930 . S
C158 C157 1.362 . S
C158 C161 1.409 . S
C159 H151 0.930 . S
C159 C160 1.355 . S
C159 C161 1.415 . S
C160 C159 1.355 . S
C160 C162 1.419 . S
C161 C156 1.425 . S
C161 C158 1.409 . S
C161 C159 1.415 . S
C162 H152 0.930 . S
C162 C160 1.419 . S
C162 C163 1.362 . S
C163 H153 0.930 . S
C163 C156 1.409 . S
C163 C162 1.362 . S
H164 C170 0.930 . S
H165 C173 0.930 . S
H166 C174 0.930 . S
H167 C175 0.930 . S
H168 C178 0.930 . S
H169 C179 0.930 . S
C170 H164 0.930 . S
C170 C171 1.355 . S
C170 C172 1.415 . S
C171 C170 1.355 . S
C171 C173 1.419 . S
C172 C170 1.415 . S
C172 C177 1.425 . S
C172 C179 1.409 . S
C173 H165 0.930 . S
C173 C171 1.419 . S
C173 C174 1.362 . S
C174 H166 0.930 . S
C174 C173 1.362 . S
C174 C177 1.409 . S
C175 H167 0.930 . S
C175 C176 1.355 . S
C175 C177 1.415 . S
C176 C175 1.355 . S
C176 C178 1.419 . S
C177 C172 1.425 . S
C177 C174 1.409 . S
C177 C175 1.415 . S
C178 H168 0.930 . S
C178 C176 1.419 . S
C178 C179 1.362 . S
C179 H169 0.930 . S
C179 C172 1.409 . S
C179 C178 1.362 . S
C59 C5 1.467 . S
C64 C31 1.469 1_655 S
C75 C16 1.470 1_565 S
C80 C42 1.468 . S
C91 C3 1.457 1_655 S
C96 C29 1.462 . S
C107 C18 1.456 1_565 S
C112 C44 1.458 . S
C123 C23 1.542 . S
C128 C10 1.540 . S
C139 C17 1.546 . S
C144 C36 1.541 . S
C155 C43 1.544 . S
C160 C30 1.543 . S
C171 C49 1.544 . S
C176 C4 1.549 . S
