# Generated by pormake.
# Topology uov, (4)-cn, num edge types: 1
# Building blocks:
#     Node 0, Type 0, BuildingBlock: QUQFOY_clean_sbu_1, # of connection points: 4
#     Node 1, Type 0, BuildingBlock: QUQFOY_clean_sbu_1, # of connection points: 4
#     Node 2, Type 0, BuildingBlock: QUQFOY_clean_sbu_1, # of connection points: 4
#     Node 3, Type 0, BuildingBlock: QUQFOY_clean_sbu_1, # of connection points: 4
#     Node 4, Type 0, BuildingBlock: QUQFOY_clean_sbu_1, # of connection points: 4
#     Node 5, Type 0, BuildingBlock: QUQFOY_clean_sbu_1, # of connection points: 4
#     Node 6, Type 0, BuildingBlock: QUQFOY_clean_sbu_1, # of connection points: 4
#     Node 7, Type 0, BuildingBlock: QUQFOY_clean_sbu_1, # of connection points: 4
#     Edge 8, Type (0, 0), BuildingBlock: EYOCIG_clean_linker_4, # of connection points: 2
#     Edge 9, Type (0, 0), BuildingBlock: EYOCIG_clean_linker_4, # of connection points: 2
#     Edge 10, Type (0, 0), BuildingBlock: EYOCIG_clean_linker_4, # of connection points: 2
#     Edge 11, Type (0, 0), BuildingBlock: EYOCIG_clean_linker_4, # of connection points: 2
#     Edge 12, Type (0, 0), BuildingBlock: EYOCIG_clean_linker_4, # of connection points: 2
#     Edge 13, Type (0, 0), BuildingBlock: EYOCIG_clean_linker_4, # of connection points: 2
#     Edge 14, Type (0, 0), BuildingBlock: EYOCIG_clean_linker_4, # of connection points: 2
#     Edge 15, Type (0, 0), BuildingBlock: EYOCIG_clean_linker_4, # of connection points: 2
#     Edge 16, Type (0, 0), BuildingBlock: EYOCIG_clean_linker_4, # of connection points: 2
#     Edge 17, Type (0, 0), BuildingBlock: EYOCIG_clean_linker_4, # of connection points: 2
#     Edge 18, Type (0, 0), BuildingBlock: EYOCIG_clean_linker_4, # of connection points: 2
#     Edge 19, Type (0, 0), BuildingBlock: EYOCIG_clean_linker_4, # of connection points: 2
#     Edge 20, Type (0, 0), BuildingBlock: EYOCIG_clean_linker_4, # of connection points: 2
#     Edge 21, Type (0, 0), BuildingBlock: EYOCIG_clean_linker_4, # of connection points: 2
#     Edge 22, Type (0, 0), BuildingBlock: EYOCIG_clean_linker_4, # of connection points: 2
#     Edge 23, Type (0, 0), BuildingBlock: EYOCIG_clean_linker_4, # of connection points: 2
# Relax obj value: 0.029
# Max RMSD: 0.047
# Mean RMSD: 0.047
data_MOF--net-uov--node1-QUQFOY_clean_sbu_1--edge1-EYOCIG_clean_linker_4
_symmetry_space_group_name_H-M    P1
_symmetry_Int_Tables_number       1
_symmetry_cell_setting            triclinic
loop_
_symmetry_equiv_pos_as_xyz
'x, y, z'
_cell_length_a     25.734469
_cell_length_b     25.741532
_cell_length_c     33.738826
_cell_angle_alpha  89.936099
_cell_angle_beta   90.047181
_cell_angle_gamma 90.02472
loop_
_atom_site_label
_atom_site_type_symbol
_atom_site_fract_x
_atom_site_fract_y
_atom_site_fract_z
_atom_type_partial_charge
O0 O 0.9541 0.26136 0.5994 0.0
Cd1 Cd 0.0245 0.29524 0.61237 0.0
Cd2 Cd 0.04078 0.20274 0.64761 0.0
O3 O 0.9625 0.1916 0.63705 0.0
O4 O 0.01192 0.37038 0.60424 0.0
O5 O 0.03253 0.33645 0.66273 0.0
C6 C 0.01995 0.37638 0.64162 0.0
C7 C 0.07751 0.1794 0.70812 0.0
C8 C 0.93565 0.21985 0.61394 0.0
C9 C 0.10311 0.22926 0.5743 0.0
O10 O 0.08865 0.19507 0.59907 0.0
O11 O 0.08539 0.27519 0.57564 0.0
O12 O 0.06277 0.14473 0.68307 0.0
O13 O 0.07018 0.22775 0.69961 0.0
O14 O 0.26127 0.04329 0.48126 0.0
Cd15 Cd 0.29512 0.97291 0.46842 0.0
Cd16 Cd 0.20254 0.95654 0.43329 0.0
O17 O 0.19142 0.0348 0.44372 0.0
O18 O 0.37029 0.98553 0.4765 0.0
O19 O 0.33633 0.96484 0.41806 0.0
C20 C 0.37628 0.97745 0.43914 0.0
C21 C 0.17918 0.91975 0.37286 0.0
C22 C 0.21972 0.06168 0.46673 0.0
C23 C 0.22914 0.89431 0.5067 0.0
O24 O 0.19492 0.90871 0.48193 0.0
O25 O 0.27509 0.91206 0.50529 0.0
O26 O 0.14451 0.93447 0.3979 0.0
O27 O 0.22754 0.92713 0.38134 0.0
O28 O 0.04321 0.73606 0.59998 0.0
Cd29 Cd 0.97284 0.70207 0.61283 0.0
Cd30 Cd 0.95646 0.79454 0.64802 0.0
O31 O 0.03475 0.80574 0.63758 0.0
O32 O 0.98552 0.627 0.60456 0.0
O33 O 0.96486 0.66051 0.66309 0.0
C34 C 0.97749 0.62074 0.64191 0.0
C35 C 0.91968 0.81783 0.70844 0.0
C36 C 0.06162 0.77756 0.61453 0.0
C37 C 0.89419 0.76811 0.57463 0.0
O38 O 0.90862 0.80225 0.5994 0.0
O39 O 0.91194 0.72218 0.57602 0.0
O40 O 0.93443 0.85252 0.68337 0.0
O41 O 0.92703 0.76949 0.7 0.0
O42 O 0.73592 0.95404 0.48111 0.0
Cd43 Cd 0.70199 0.02439 0.4681 0.0
Cd44 Cd 0.79453 0.04075 0.43294 0.0
O45 O 0.80569 0.96251 0.44356 0.0
O46 O 0.62687 0.01173 0.47629 0.0
O47 O 0.66057 0.03236 0.41777 0.0
C48 C 0.62072 0.01976 0.43892 0.0
C49 C 0.81786 0.07746 0.37244 0.0
C50 C 0.77745 0.93564 0.46663 0.0
C51 C 0.76804 0.10306 0.50619 0.0
O52 O 0.80221 0.08864 0.48146 0.0
O53 O 0.7221 0.08529 0.50482 0.0
O54 O 0.85254 0.06278 0.39754 0.0
O55 O 0.7695 0.0701 0.38089 0.0
O56 O 0.04325 0.26135 0.09954 0.0
Cd57 Cd 0.97284 0.29519 0.1124 0.0
Cd58 Cd 0.9565 0.20265 0.14758 0.0
O59 O 0.03478 0.19154 0.13712 0.0
O60 O 0.98544 0.37034 0.1043 0.0
O61 O 0.96477 0.33638 0.16275 0.0
C62 C 0.97736 0.37632 0.14166 0.0
C63 C 0.91973 0.17928 0.20803 0.0
C64 C 0.06166 0.21982 0.11408 0.0
C65 C 0.89423 0.22918 0.07418 0.0
O66 O 0.90864 0.19499 0.09896 0.0
O67 O 0.91198 0.27512 0.07556 0.0
O68 O 0.93445 0.14462 0.183 0.0
O69 O 0.92709 0.22764 0.19953 0.0
O70 O 0.26117 0.95416 0.98139 0.0
Cd71 Cd 0.2951 0.02453 0.96839 0.0
Cd72 Cd 0.20256 0.04086 0.93319 0.0
O73 O 0.19137 0.9626 0.94379 0.0
O74 O 0.37025 0.01191 0.97651 0.0
O75 O 0.33633 0.03253 0.91802 0.0
C76 C 0.37626 0.01994 0.93913 0.0
C77 C 0.17925 0.07758 0.87268 0.0
C78 C 0.21962 0.93575 0.96688 0.0
C79 C 0.22916 0.10316 1.00647 0.0
O80 O 0.19494 0.08872 0.98172 0.0
O81 O 0.27509 0.08541 1.00511 0.0
O82 O 0.14455 0.06289 0.89774 0.0
O83 O 0.2276 0.07022 0.88119 0.0
O84 O 0.9538 0.73599 0.09991 0.0
Cd85 Cd 0.02418 0.70206 0.11284 0.0
Cd86 Cd 0.04057 0.79456 0.14804 0.0
O87 O 0.9623 0.80572 0.13747 0.0
O88 O 0.01151 0.62697 0.1046 0.0
O89 O 0.0322 0.66056 0.16313 0.0
C90 C 0.01958 0.62075 0.14195 0.0
C91 C 0.07732 0.81786 0.20852 0.0
C92 C 0.93541 0.7775 0.11441 0.0
C93 C 0.10284 0.76815 0.07473 0.0
O94 O 0.08844 0.80228 0.09949 0.0
O95 O 0.08506 0.72222 0.07609 0.0
O96 O 0.06261 0.85254 0.18342 0.0
O97 O 0.06996 0.76952 0.20007 0.0
O98 O 0.73593 0.04326 0.98098 0.0
Cd99 Cd 0.70194 0.97289 0.96814 0.0
Cd100 Cd 0.79448 0.95649 0.93302 0.0
O101 O 0.80569 0.03475 0.94344 0.0
O102 O 0.62683 0.98558 0.97633 0.0
O103 O 0.66048 0.96488 0.91784 0.0
C104 C 0.62065 0.97751 0.93898 0.0
C105 C 0.8178 0.9197 0.87262 0.0
C106 C 0.77746 0.06164 0.96645 0.0
C107 C 0.76792 0.89427 1.00642 0.0
O108 O 0.80211 0.90867 0.98166 0.0
O109 O 0.72199 0.91203 1.005 0.0
O110 O 0.85249 0.93443 0.89769 0.0
O111 O 0.76944 0.92707 0.88104 0.0
C112 C 0.99305 0.52526 0.66637 0.0
C113 C 0.98464 0.57029 0.65906 0.0
C114 C 0.00445 0.47169 0.6663 0.0
C115 C 0.01283 0.42671 0.65888 0.0
C116 C 0.52525 0.00426 0.41438 0.0
C117 C 0.57029 0.01264 0.42172 0.0
C118 C 0.47165 0.99289 0.41443 0.0
C119 C 0.42664 0.98453 0.42185 0.0
C120 C 0.99277 0.47167 0.16635 0.0
C121 C 0.98443 0.42667 0.15893 0.0
C122 C 0.00412 0.52526 0.16643 0.0
C123 C 0.01248 0.5703 0.15912 0.0
C124 C 0.47161 0.00443 0.91446 0.0
C125 C 0.42661 0.01282 0.92187 0.0
C126 C 0.52519 0.99304 0.91442 0.0
C127 C 0.57022 0.98464 0.92177 0.0
C128 C 0.18532 0.15025 0.49575 0.0
C129 C 0.20026 0.10974 0.48207 0.0
C130 C 0.16162 0.18929 0.51873 0.0
C131 C 0.13562 0.21311 0.54214 0.0
C132 C 0.18922 0.83581 0.56241 0.0
C133 C 0.21302 0.86181 0.53893 0.0
C134 C 0.15019 0.81209 0.58545 0.0
C135 C 0.10968 0.79711 0.59917 0.0
C136 C 0.81193 0.84712 0.49586 0.0
C137 C 0.79695 0.88761 0.48208 0.0
C138 C 0.83566 0.8081 0.51893 0.0
C139 C 0.86168 0.78429 0.54241 0.0
C140 C 0.80802 0.16164 0.56178 0.0
C141 C 0.7842 0.1356 0.53835 0.0
C142 C 0.84707 0.18539 0.5848 0.0
C143 C 0.88758 0.20036 0.59853 0.0
C144 C 0.81198 0.1502 0.99549 0.0
C145 C 0.797 0.1097 0.9818 0.0
C146 C 0.83571 0.18924 1.01851 0.0
C147 C 0.86172 0.21304 0.04197 0.0
C148 C 0.18925 0.16169 0.06205 0.0
C149 C 0.21304 0.13568 1.03863 0.0
C150 C 0.15022 0.18541 0.08504 0.0
C151 C 0.10972 0.20036 0.09873 0.0
C152 C 0.16138 0.80817 1.01911 0.0
C153 C 0.13536 0.78434 0.04255 0.0
C154 C 0.18513 0.8472 0.99607 0.0
C155 C 0.20011 0.8877 0.98231 0.0
C156 C 0.80784 0.83574 0.06215 0.0
C157 C 0.78405 0.86176 1.03865 0.0
C158 C 0.84686 0.812 0.08522 0.0
C159 C 0.88736 0.79702 0.09898 0.0
C160 C 0.12353 0.14671 0.77353 0.0
C161 C 0.10277 0.16383 0.74422 0.0
C162 C 0.14659 0.12363 0.80727 0.0
C163 C 0.1637 0.10286 0.83658 0.0
C164 C 0.12338 0.85054 0.27387 0.0
C165 C 0.10261 0.83341 0.24459 0.0
C166 C 0.14646 0.87365 0.30756 0.0
C167 C 0.1636 0.89444 0.33683 0.0
C168 C 0.87358 0.85049 0.77371 0.0
C169 C 0.89437 0.83337 0.74447 0.0
C170 C 0.85049 0.87359 0.80736 0.0
C171 C 0.83336 0.89439 0.8366 0.0
C172 C 0.85055 0.1235 0.30707 0.0
C173 C 0.83342 0.10274 0.33636 0.0
C174 C 0.87364 0.14657 0.27336 0.0
C175 C 0.89443 0.1637 0.24408 0.0
loop_
_geom_bond_atom_site_label_1
_geom_bond_atom_site_label_2
_geom_bond_distance
_geom_bond_site_symmetry_2
_ccdc_geom_bond_type
O0 Cd1 2.223 . S
O0 C8 1.315 . S
Cd1 O0 2.223 . S
Cd1 O4 2.297 . S
Cd1 O5 2.439 . S
Cd1 O11 2.240 . S
Cd2 O3 2.240 . S
Cd2 O10 2.223 . S
Cd2 O12 2.297 . S
Cd2 O13 2.439 . S
O3 Cd2 2.240 . S
O3 C8 1.279 . S
O4 Cd1 2.297 . S
O4 C6 1.247 . S
O5 Cd1 2.439 . S
O5 C6 1.208 . S
C6 O4 1.247 . S
C6 O5 1.208 . S
C7 O12 1.247 . S
C7 O13 1.208 . S
C8 O0 1.315 . S
C8 O3 1.279 . S
C9 O10 1.315 . S
C9 O11 1.279 . S
O10 Cd2 2.223 . S
O10 C9 1.315 . S
O11 Cd1 2.240 . S
O11 C9 1.279 . S
O12 Cd2 2.297 . S
O12 C7 1.247 . S
O13 Cd2 2.439 . S
O13 C7 1.208 . S
O14 Cd15 2.223 . S
O14 C22 1.315 . S
Cd15 O14 2.223 . S
Cd15 O18 2.297 . S
Cd15 O19 2.439 . S
Cd15 O25 2.240 . S
Cd16 O17 2.240 . S
Cd16 O24 2.223 . S
Cd16 O26 2.297 . S
Cd16 O27 2.439 . S
O17 Cd16 2.240 . S
O17 C22 1.279 . S
O18 Cd15 2.297 . S
O18 C20 1.247 . S
O19 Cd15 2.439 . S
O19 C20 1.208 . S
C20 O18 1.247 . S
C20 O19 1.208 . S
C21 O26 1.247 . S
C21 O27 1.208 . S
C22 O14 1.315 . S
C22 O17 1.279 . S
C23 O24 1.315 . S
C23 O25 1.279 . S
O24 Cd16 2.223 . S
O24 C23 1.315 . S
O25 Cd15 2.240 . S
O25 C23 1.279 . S
O26 Cd16 2.297 . S
O26 C21 1.247 . S
O27 Cd16 2.439 . S
O27 C21 1.208 . S
O28 Cd29 2.223 . S
O28 C36 1.315 . S
Cd29 O28 2.223 . S
Cd29 O32 2.297 . S
Cd29 O33 2.439 . S
Cd29 O39 2.240 . S
Cd30 O31 2.240 . S
Cd30 O38 2.223 . S
Cd30 O40 2.297 . S
Cd30 O41 2.439 . S
O31 Cd30 2.240 . S
O31 C36 1.279 . S
O32 Cd29 2.297 . S
O32 C34 1.247 . S
O33 Cd29 2.439 . S
O33 C34 1.208 . S
C34 O32 1.247 . S
C34 O33 1.208 . S
C35 O40 1.247 . S
C35 O41 1.208 . S
C36 O28 1.315 . S
C36 O31 1.279 . S
C37 O38 1.315 . S
C37 O39 1.279 . S
O38 Cd30 2.223 . S
O38 C37 1.315 . S
O39 Cd29 2.240 . S
O39 C37 1.279 . S
O40 Cd30 2.297 . S
O40 C35 1.247 . S
O41 Cd30 2.439 . S
O41 C35 1.208 . S
O42 Cd43 2.223 . S
O42 C50 1.315 . S
Cd43 O42 2.223 . S
Cd43 O46 2.297 . S
Cd43 O47 2.439 . S
Cd43 O53 2.240 . S
Cd44 O45 2.240 . S
Cd44 O52 2.223 . S
Cd44 O54 2.297 . S
Cd44 O55 2.439 . S
O45 Cd44 2.240 . S
O45 C50 1.279 . S
O46 Cd43 2.297 . S
O46 C48 1.247 . S
O47 Cd43 2.439 . S
O47 C48 1.208 . S
C48 O46 1.247 . S
C48 O47 1.208 . S
C49 O54 1.247 . S
C49 O55 1.208 . S
C50 O42 1.315 . S
C50 O45 1.279 . S
C51 O52 1.315 . S
C51 O53 1.279 . S
O52 Cd44 2.223 . S
O52 C51 1.315 . S
O53 Cd43 2.240 . S
O53 C51 1.279 . S
O54 Cd44 2.297 . S
O54 C49 1.247 . S
O55 Cd44 2.439 . S
O55 C49 1.208 . S
O56 Cd57 2.223 . S
O56 C64 1.315 . S
Cd57 O56 2.223 . S
Cd57 O60 2.297 . S
Cd57 O61 2.439 . S
Cd57 O67 2.240 . S
Cd58 O59 2.240 . S
Cd58 O66 2.223 . S
Cd58 O68 2.297 . S
Cd58 O69 2.439 . S
O59 Cd58 2.240 . S
O59 C64 1.279 . S
O60 Cd57 2.297 . S
O60 C62 1.247 . S
O61 Cd57 2.439 . S
O61 C62 1.208 . S
C62 O60 1.247 . S
C62 O61 1.208 . S
C63 O68 1.247 . S
C63 O69 1.208 . S
C64 O56 1.315 . S
C64 O59 1.279 . S
C65 O66 1.315 . S
C65 O67 1.279 . S
O66 Cd58 2.223 . S
O66 C65 1.315 . S
O67 Cd57 2.240 . S
O67 C65 1.279 . S
O68 Cd58 2.297 . S
O68 C63 1.247 . S
O69 Cd58 2.439 . S
O69 C63 1.208 . S
O70 Cd71 2.223 . S
O70 C78 1.315 . S
Cd71 O70 2.223 . S
Cd71 O74 2.297 . S
Cd71 O75 2.439 . S
Cd71 O81 2.240 . S
Cd72 O73 2.240 . S
Cd72 O80 2.223 . S
Cd72 O82 2.297 . S
Cd72 O83 2.439 . S
O73 Cd72 2.240 . S
O73 C78 1.279 . S
O74 Cd71 2.297 . S
O74 C76 1.247 . S
O75 Cd71 2.439 . S
O75 C76 1.208 . S
C76 O74 1.247 . S
C76 O75 1.208 . S
C77 O82 1.247 . S
C77 O83 1.208 . S
C78 O70 1.315 . S
C78 O73 1.279 . S
C79 O80 1.315 . S
C79 O81 1.279 . S
O80 Cd72 2.223 . S
O80 C79 1.315 . S
O81 Cd71 2.240 . S
O81 C79 1.279 . S
O82 Cd72 2.297 . S
O82 C77 1.247 . S
O83 Cd72 2.439 . S
O83 C77 1.208 . S
O84 Cd85 2.223 . S
O84 C92 1.315 . S
Cd85 O84 2.223 . S
Cd85 O88 2.297 . S
Cd85 O89 2.439 . S
Cd85 O95 2.240 . S
Cd86 O87 2.240 . S
Cd86 O94 2.223 . S
Cd86 O96 2.297 . S
Cd86 O97 2.439 . S
O87 Cd86 2.240 . S
O87 C92 1.279 . S
O88 Cd85 2.297 . S
O88 C90 1.247 . S
O89 Cd85 2.439 . S
O89 C90 1.208 . S
C90 O88 1.247 . S
C90 O89 1.208 . S
C91 O96 1.247 . S
C91 O97 1.208 . S
C92 O84 1.315 . S
C92 O87 1.279 . S
C93 O94 1.315 . S
C93 O95 1.279 . S
O94 Cd86 2.223 . S
O94 C93 1.315 . S
O95 Cd85 2.240 . S
O95 C93 1.279 . S
O96 Cd86 2.297 . S
O96 C91 1.247 . S
O97 Cd86 2.439 . S
O97 C91 1.208 . S
O98 Cd99 2.223 . S
O98 C106 1.315 . S
Cd99 O98 2.223 . S
Cd99 O102 2.297 . S
Cd99 O103 2.439 . S
Cd99 O109 2.240 . S
Cd100 O101 2.240 . S
Cd100 O108 2.223 . S
Cd100 O110 2.297 . S
Cd100 O111 2.439 . S
O101 Cd100 2.240 . S
O101 C106 1.279 . S
O102 Cd99 2.297 . S
O102 C104 1.247 . S
O103 Cd99 2.439 . S
O103 C104 1.208 . S
C104 O102 1.247 . S
C104 O103 1.208 . S
C105 O110 1.247 . S
C105 O111 1.208 . S
C106 O98 1.315 . S
C106 O101 1.279 . S
C107 O108 1.315 . S
C107 O109 1.279 . S
O108 Cd100 2.223 . S
O108 C107 1.315 . S
O109 Cd99 2.240 . S
O109 C107 1.279 . S
O110 Cd100 2.297 . S
O110 C105 1.247 . S
O111 Cd100 2.439 . S
O111 C105 1.208 . S
C112 C113 1.170 . S
C112 C114 1.380 1_655 S
C113 C112 1.170 . S
C114 C112 1.380 1_455 S
C114 C115 1.170 . S
C115 C114 1.170 . S
C116 C117 1.170 . S
C116 C118 1.380 1_545 S
C117 C116 1.170 . S
C118 C116 1.380 1_565 S
C118 C119 1.170 . S
C119 C118 1.170 . S
C120 C121 1.170 . S
C120 C122 1.380 1_655 S
C121 C120 1.170 . S
C122 C120 1.380 1_455 S
C122 C123 1.170 . S
C123 C122 1.170 . S
C124 C125 1.170 . S
C124 C126 1.380 1_545 S
C125 C124 1.170 . S
C126 C124 1.380 1_565 S
C126 C127 1.170 . S
C127 C126 1.170 . S
C128 C129 1.170 . S
C128 C130 1.380 . S
C129 C128 1.170 . S
C130 C128 1.380 . S
C130 C131 1.170 . S
C131 C130 1.170 . S
C132 C133 1.170 . S
C132 C134 1.380 . S
C133 C132 1.170 . S
C134 C132 1.380 . S
C134 C135 1.170 . S
C135 C134 1.170 . S
C136 C137 1.170 . S
C136 C138 1.380 . S
C137 C136 1.170 . S
C138 C136 1.380 . S
C138 C139 1.170 . S
C139 C138 1.170 . S
C140 C141 1.170 . S
C140 C142 1.380 . S
C141 C140 1.170 . S
C142 C140 1.380 . S
C142 C143 1.170 . S
C143 C142 1.170 . S
C144 C145 1.170 . S
C144 C146 1.380 1_556 S
C145 C144 1.170 . S
C146 C144 1.380 1_554 S
C146 C147 1.170 . S
C147 C146 1.170 . S
C148 C149 1.170 . S
C148 C150 1.380 1_556 S
C149 C148 1.170 . S
C150 C148 1.380 1_554 S
C150 C151 1.170 . S
C151 C150 1.170 . S
C152 C153 1.170 . S
C152 C154 1.380 1_554 S
C153 C152 1.170 . S
C154 C152 1.380 1_556 S
C154 C155 1.170 . S
C155 C154 1.170 . S
C156 C157 1.170 . S
C156 C158 1.380 1_556 S
C157 C156 1.170 . S
C158 C156 1.380 1_554 S
C158 C159 1.170 . S
C159 C158 1.170 . S
C160 C161 1.170 . S
C160 C162 1.380 . S
C161 C160 1.170 . S
C162 C160 1.380 . S
C162 C163 1.170 . S
C163 C162 1.170 . S
C164 C165 1.170 . S
C164 C166 1.380 . S
C165 C164 1.170 . S
C166 C164 1.380 . S
C166 C167 1.170 . S
C167 C166 1.170 . S
C168 C169 1.170 . S
C168 C170 1.380 . S
C169 C168 1.170 . S
C170 C168 1.380 . S
C170 C171 1.170 . S
C171 C170 1.170 . S
C172 C173 1.170 . S
C172 C174 1.380 . S
C173 C172 1.170 . S
C174 C172 1.380 . S
C174 C175 1.170 . S
C175 C174 1.170 . S
C113 C34 1.452 . S
C115 C6 1.460 . S
C117 C48 1.478 . S
C119 C20 1.463 . S
C121 C62 1.478 . S
C123 C90 1.456 . S
C125 C76 1.470 . S
C127 C104 1.477 . S
C129 C22 1.477 1_545 S
C131 C9 1.415 . S
C133 C23 1.434 . S
C135 C36 1.462 1_455 S
C137 C50 1.470 1_565 S
C139 C37 1.434 . S
C141 C51 1.430 . S
C143 C8 1.456 1_655 S
C145 C106 1.476 1_545 S
C147 C65 1.406 . S
C149 C79 1.390 . S
C151 C64 1.467 1_455 S
C153 C93 1.388 . S
C155 C78 1.475 1_565 S
C157 C107 1.400 . S
C159 C92 1.473 1_655 S
C161 C7 1.577 . S
C163 C77 1.577 . S
C165 C91 1.562 . S
C167 C21 1.572 . S
C169 C35 1.558 . S
C171 C105 1.550 . S
C173 C49 1.563 . S
C175 C63 1.552 . S
