# Generated by pormake.
# Topology crb, (4)-cn, num edge types: 1
# Building blocks:
#     Node 0, Type 0, BuildingBlock: GALJAG_clean_sbu_0, # of connection points: 4
#     Node 1, Type 0, BuildingBlock: GALJAG_clean_sbu_0, # of connection points: 4
#     Node 2, Type 0, BuildingBlock: GALJAG_clean_sbu_0, # of connection points: 4
#     Node 3, Type 0, BuildingBlock: GALJAG_clean_sbu_0, # of connection points: 4
#     Node 4, Type 0, BuildingBlock: GALJAG_clean_sbu_0, # of connection points: 4
#     Node 5, Type 0, BuildingBlock: GALJAG_clean_sbu_0, # of connection points: 4
#     Node 6, Type 0, BuildingBlock: GALJAG_clean_sbu_0, # of connection points: 4
#     Node 7, Type 0, BuildingBlock: GALJAG_clean_sbu_0, # of connection points: 4
#     Edge 8, Type (0, 0), None
#     Edge 9, Type (0, 0), None
#     Edge 10, Type (0, 0), None
#     Edge 11, Type (0, 0), None
#     Edge 12, Type (0, 0), None
#     Edge 13, Type (0, 0), None
#     Edge 14, Type (0, 0), None
#     Edge 15, Type (0, 0), None
#     Edge 16, Type (0, 0), None
#     Edge 17, Type (0, 0), None
#     Edge 18, Type (0, 0), None
#     Edge 19, Type (0, 0), None
#     Edge 20, Type (0, 0), None
#     Edge 21, Type (0, 0), None
#     Edge 22, Type (0, 0), None
#     Edge 23, Type (0, 0), None
# Relax obj value: 0.077
# Max RMSD: 0.151
# Mean RMSD: 0.151
data_MOF--net-crb--node1-GALJAG_clean_sbu_0--edge1-none
_symmetry_space_group_name_H-M    P1
_symmetry_Int_Tables_number       1
_symmetry_cell_setting            triclinic
loop_
_symmetry_equiv_pos_as_xyz
'x, y, z'
_cell_length_a     20.124238
_cell_length_b     20.124239
_cell_length_c     10.242959
_cell_angle_alpha  89.999177
_cell_angle_beta   90.007846
_cell_angle_gamma 89.999802
loop_
_atom_site_label
_atom_site_type_symbol
_atom_site_fract_x
_atom_site_fract_y
_atom_site_fract_z
_atom_type_partial_charge
In0 In 0.34155 0.34155 -0.03596 0.0
O1 O 0.2575 0.33229 0.81563 0.0
O2 O 0.33229 0.25749 0.81567 0.0
C3 C 0.33323 0.47534 -0.03597 0.0
C4 C 0.27896 0.27897 0.16123 0.0
C5 C 0.47534 0.33324 -0.03597 0.0
O6 O 0.33484 0.44178 0.86018 0.0
O7 O 0.33484 0.44178 0.06789 0.0
O8 O 0.44179 0.33484 0.06789 0.0
O9 O 0.44177 0.33484 0.86018 0.0
C10 C 0.27896 0.27896 0.76683 0.0
O11 O 0.33229 0.25751 0.11244 0.0
O12 O 0.25749 0.33229 0.1124 0.0
In13 In 0.68184 0.34155 -0.03599 0.0
O14 O 0.76589 0.33229 0.11242 0.0
O15 O 0.6911 0.25749 0.11238 0.0
C16 C 0.69015 0.47534 -0.03598 0.0
C17 C 0.74443 0.27897 0.76682 0.0
C18 C 0.54805 0.33325 -0.03598 0.0
O19 O 0.68855 0.44178 0.06788 0.0
O20 O 0.68855 0.44178 0.86017 0.0
O21 O 0.5816 0.33484 0.86016 0.0
O22 O 0.58162 0.33484 0.06787 0.0
C23 C 0.74442 0.27896 0.16123 0.0
O24 O 0.6911 0.25751 0.81562 0.0
O25 O 0.76589 0.33229 0.81565 0.0
In26 In 0.68184 0.68184 -0.03598 0.0
O27 O 0.6911 0.76588 0.11241 0.0
O28 O 0.7659 0.6911 0.11239 0.0
C29 C 0.54805 0.69016 -0.03598 0.0
C30 C 0.74442 0.74443 0.76682 0.0
C31 C 0.69014 0.54805 -0.03597 0.0
O32 O 0.58162 0.68855 0.06788 0.0
O33 O 0.5816 0.68855 0.86016 0.0
O34 O 0.68855 0.58161 0.86017 0.0
O35 O 0.68855 0.58161 0.06788 0.0
C36 C 0.74443 0.74443 0.16123 0.0
O37 O 0.76588 0.6911 0.81563 0.0
O38 O 0.6911 0.7659 0.81565 0.0
In39 In 0.34155 0.68184 -0.03596 0.0
O40 O 0.25751 0.6911 0.11243 0.0
O41 O 0.33229 0.7659 0.11241 0.0
C42 C 0.33324 0.54805 -0.03597 0.0
C43 C 0.27896 0.74443 0.76683 0.0
C44 C 0.47534 0.69015 -0.03597 0.0
O45 O 0.33484 0.58161 0.06789 0.0
O46 O 0.33484 0.58161 0.86018 0.0
O47 O 0.44177 0.68855 0.86018 0.0
O48 O 0.44179 0.68855 0.06789 0.0
C49 C 0.27897 0.74443 0.16123 0.0
O50 O 0.33229 0.76588 0.81565 0.0
O51 O 0.25749 0.6911 0.81566 0.0
In52 In 0.84155 0.84155 0.46404 0.0
O53 O 0.7575 0.83229 0.31563 0.0
O54 O 0.83229 0.75749 0.31567 0.0
C55 C 0.83323 0.97534 0.46403 0.0
C56 C 0.77896 0.77897 0.66123 0.0
C57 C 0.97534 0.83324 0.46403 0.0
O58 O 0.83484 0.94178 0.36018 0.0
O59 O 0.83484 0.94178 0.56789 0.0
O60 O 0.94179 0.83484 0.56789 0.0
O61 O 0.94177 0.83484 0.36018 0.0
C62 C 0.77896 0.77896 0.26683 0.0
O63 O 0.83229 0.75751 0.61243 0.0
O64 O 0.75749 0.83229 0.6124 0.0
In65 In 0.18184 0.84155 0.46401 0.0
O66 O 0.26589 0.83229 0.61242 0.0
O67 O 0.1911 0.75749 0.61238 0.0
C68 C 0.19016 0.97534 0.46402 0.0
C69 C 0.24443 0.77897 0.26682 0.0
C70 C 0.04805 0.83325 0.46402 0.0
O71 O 0.18855 0.94178 0.56788 0.0
O72 O 0.18855 0.94178 0.36017 0.0
O73 O 0.0816 0.83484 0.36016 0.0
O74 O 0.08162 0.83484 0.56787 0.0
C75 C 0.24442 0.77896 0.66122 0.0
O76 O 0.1911 0.75751 0.31562 0.0
O77 O 0.26589 0.83229 0.31565 0.0
In78 In 0.18184 0.18184 0.46402 0.0
O79 O 0.1911 0.26588 0.61241 0.0
O80 O 0.2659 0.1911 0.6124 0.0
C81 C 0.04805 0.19016 0.46402 0.0
C82 C 0.24442 0.24443 0.26682 0.0
C83 C 0.19014 0.04805 0.46403 0.0
O84 O 0.08162 0.18855 0.56788 0.0
O85 O 0.0816 0.18855 0.36016 0.0
O86 O 0.18855 0.08161 0.36017 0.0
O87 O 0.18855 0.08161 0.56788 0.0
C88 C 0.24443 0.24443 0.66123 0.0
O89 O 0.26588 0.1911 0.31563 0.0
O90 O 0.1911 0.2659 0.31565 0.0
In91 In 0.84155 0.18184 0.46404 0.0
O92 O 0.75751 0.1911 0.61243 0.0
O93 O 0.83229 0.2659 0.61241 0.0
C94 C 0.83324 0.04805 0.46403 0.0
C95 C 0.77895 0.24443 0.26683 0.0
C96 C 0.97534 0.19015 0.46403 0.0
O97 O 0.83484 0.08161 0.56789 0.0
O98 O 0.83484 0.08161 0.36018 0.0
O99 O 0.94177 0.18855 0.36018 0.0
O100 O 0.94179 0.18855 0.56789 0.0
C101 C 0.77896 0.24443 0.66123 0.0
O102 O 0.83229 0.26588 0.31565 0.0
O103 O 0.75749 0.1911 0.31566 0.0
loop_
_geom_bond_atom_site_label_1
_geom_bond_atom_site_label_2
_geom_bond_distance
_geom_bond_site_symmetry_2
_ccdc_geom_bond_type
In0 O1 2.294 1_554 S
In0 O2 2.326 1_554 S
In0 O6 2.266 1_554 S
In0 O7 2.326 . S
In0 O8 2.266 . S
In0 O9 2.326 1_554 S
In0 O11 2.294 . S
In0 O12 2.326 . S
O1 In0 2.294 1_556 S
O1 C10 1.240 . S
O2 In0 2.326 1_556 S
O2 C10 1.252 . S
C3 O6 1.252 1_554 S
C3 O7 1.260 . S
C4 O11 1.240 . S
C4 O12 1.252 . S
C5 O8 1.252 1_556 S
C5 O9 1.260 . S
O6 In0 2.266 1_556 S
O6 C3 1.252 1_556 S
O7 In0 2.326 . S
O7 C3 1.260 . S
O8 In0 2.266 . S
O8 C5 1.252 1_554 S
O9 In0 2.326 1_556 S
O9 C5 1.260 . S
C10 O1 1.240 . S
C10 O2 1.252 . S
O11 In0 2.294 . S
O11 C4 1.240 . S
O12 In0 2.326 . S
O12 C4 1.252 . S
In13 O14 2.294 . S
In13 O15 2.326 . S
In13 O19 2.266 . S
In13 O20 2.326 1_554 S
In13 O21 2.266 1_554 S
In13 O22 2.326 . S
In13 O24 2.294 1_554 S
In13 O25 2.326 1_554 S
O14 In13 2.294 . S
O14 C23 1.240 . S
O15 In13 2.326 . S
O15 C23 1.252 . S
C16 O19 1.252 1_556 S
C16 O20 1.260 . S
C17 O24 1.240 . S
C17 O25 1.252 . S
C18 O21 1.252 1_554 S
C18 O22 1.260 . S
O19 In13 2.266 . S
O19 C16 1.252 1_554 S
O20 In13 2.326 1_556 S
O20 C16 1.260 . S
O21 In13 2.266 1_556 S
O21 C18 1.252 1_556 S
O22 In13 2.326 . S
O22 C18 1.260 . S
C23 O14 1.240 . S
C23 O15 1.252 . S
O24 In13 2.294 1_556 S
O24 C17 1.240 . S
O25 In13 2.326 1_556 S
O25 C17 1.252 . S
In26 O27 2.294 . S
In26 O28 2.326 . S
In26 O32 2.266 . S
In26 O33 2.326 1_554 S
In26 O34 2.266 1_554 S
In26 O35 2.326 . S
In26 O37 2.294 1_554 S
In26 O38 2.326 1_554 S
O27 In26 2.294 . S
O27 C36 1.240 . S
O28 In26 2.326 . S
O28 C36 1.252 . S
C29 O32 1.252 1_556 S
C29 O33 1.260 . S
C30 O37 1.240 . S
C30 O38 1.252 . S
C31 O34 1.252 1_554 S
C31 O35 1.260 . S
O32 In26 2.266 . S
O32 C29 1.252 1_554 S
O33 In26 2.326 1_556 S
O33 C29 1.260 . S
O34 In26 2.266 1_556 S
O34 C31 1.252 1_556 S
O35 In26 2.326 . S
O35 C31 1.260 . S
C36 O27 1.240 . S
C36 O28 1.252 . S
O37 In26 2.294 1_556 S
O37 C30 1.240 . S
O38 In26 2.326 1_556 S
O38 C30 1.252 . S
In39 O40 2.294 . S
In39 O41 2.326 . S
In39 O45 2.266 . S
In39 O46 2.326 1_554 S
In39 O47 2.266 1_554 S
In39 O48 2.326 . S
In39 O50 2.294 1_554 S
In39 O51 2.326 1_554 S
O40 In39 2.294 . S
O40 C49 1.240 . S
O41 In39 2.326 . S
O41 C49 1.252 . S
C42 O45 1.252 1_556 S
C42 O46 1.260 . S
C43 O50 1.240 . S
C43 O51 1.252 . S
C44 O47 1.252 1_554 S
C44 O48 1.260 . S
O45 In39 2.266 . S
O45 C42 1.252 1_554 S
O46 In39 2.326 1_556 S
O46 C42 1.260 . S
O47 In39 2.266 1_556 S
O47 C44 1.252 1_556 S
O48 In39 2.326 . S
O48 C44 1.260 . S
C49 O40 1.240 . S
C49 O41 1.252 . S
O50 In39 2.294 1_556 S
O50 C43 1.240 . S
O51 In39 2.326 1_556 S
O51 C43 1.252 . S
In52 O53 2.294 . S
In52 O54 2.326 . S
In52 O58 2.266 . S
In52 O59 2.326 . S
In52 O60 2.266 . S
In52 O61 2.326 . S
In52 O63 2.294 . S
In52 O64 2.326 . S
O53 In52 2.294 . S
O53 C62 1.240 . S
O54 In52 2.326 . S
O54 C62 1.252 . S
C55 O58 1.252 . S
C55 O59 1.260 . S
C56 O63 1.240 . S
C56 O64 1.252 . S
C57 O60 1.252 . S
C57 O61 1.260 . S
O58 In52 2.266 . S
O58 C55 1.252 . S
O59 In52 2.326 . S
O59 C55 1.260 . S
O60 In52 2.266 . S
O60 C57 1.252 . S
O61 In52 2.326 . S
O61 C57 1.260 . S
C62 O53 1.240 . S
C62 O54 1.252 . S
O63 In52 2.294 . S
O63 C56 1.240 . S
O64 In52 2.326 . S
O64 C56 1.252 . S
In65 O66 2.294 . S
In65 O67 2.326 . S
In65 O71 2.266 . S
In65 O72 2.326 . S
In65 O73 2.266 . S
In65 O74 2.326 . S
In65 O76 2.294 . S
In65 O77 2.326 . S
O66 In65 2.294 . S
O66 C75 1.240 . S
O67 In65 2.326 . S
O67 C75 1.252 . S
C68 O71 1.252 . S
C68 O72 1.260 . S
C69 O76 1.240 . S
C69 O77 1.252 . S
C70 O73 1.252 . S
C70 O74 1.260 . S
O71 In65 2.266 . S
O71 C68 1.252 . S
O72 In65 2.326 . S
O72 C68 1.260 . S
O73 In65 2.266 . S
O73 C70 1.252 . S
O74 In65 2.326 . S
O74 C70 1.260 . S
C75 O66 1.240 . S
C75 O67 1.252 . S
O76 In65 2.294 . S
O76 C69 1.240 . S
O77 In65 2.326 . S
O77 C69 1.252 . S
In78 O79 2.294 . S
In78 O80 2.326 . S
In78 O84 2.266 . S
In78 O85 2.326 . S
In78 O86 2.266 . S
In78 O87 2.326 . S
In78 O89 2.294 . S
In78 O90 2.326 . S
O79 In78 2.294 . S
O79 C88 1.240 . S
O80 In78 2.326 . S
O80 C88 1.252 . S
C81 O84 1.252 . S
C81 O85 1.260 . S
C82 O89 1.240 . S
C82 O90 1.252 . S
C83 O86 1.252 . S
C83 O87 1.260 . S
O84 In78 2.266 . S
O84 C81 1.252 . S
O85 In78 2.326 . S
O85 C81 1.260 . S
O86 In78 2.266 . S
O86 C83 1.252 . S
O87 In78 2.326 . S
O87 C83 1.260 . S
C88 O79 1.240 . S
C88 O80 1.252 . S
O89 In78 2.294 . S
O89 C82 1.240 . S
O90 In78 2.326 . S
O90 C82 1.252 . S
In91 O92 2.294 . S
In91 O93 2.326 . S
In91 O97 2.266 . S
In91 O98 2.326 . S
In91 O99 2.266 . S
In91 O100 2.326 . S
In91 O102 2.294 . S
In91 O103 2.326 . S
O92 In91 2.294 . S
O92 C101 1.240 . S
O93 In91 2.326 . S
O93 C101 1.252 . S
C94 O97 1.252 . S
C94 O98 1.260 . S
C95 O102 1.240 . S
C95 O103 1.252 . S
C96 O99 1.252 . S
C96 O100 1.260 . S
O97 In91 2.266 . S
O97 C94 1.252 . S
O98 In91 2.326 . S
O98 C94 1.260 . S
O99 In91 2.266 . S
O99 C96 1.252 . S
O100 In91 2.326 . S
O100 C96 1.260 . S
C101 O92 1.240 . S
C101 O93 1.252 . S
O102 In91 2.294 . S
O102 C95 1.240 . S
O103 In91 2.326 . S
O103 C95 1.252 . S
C3 C42 1.783 1_554 S
C5 C18 1.783 1_556 S
C16 C31 1.783 1_556 S
C44 C29 1.783 1_554 S
C55 C94 1.783 1_565 S
C70 C57 1.783 1_455 S
C83 C68 1.783 1_545 S
C96 C81 1.783 1_655 S
C82 C4 1.572 . S
C23 C95 1.572 . S
C62 C36 1.572 . S
C69 C49 1.572 . S
C75 C43 1.574 . S
C10 C88 1.574 . S
C17 C101 1.574 . S
C30 C56 1.574 . S
