# Generated by pormake.
# Topology lon, (4)-cn, num edge types: 1
# Building blocks:
#     Node 0, Type 0, BuildingBlock: AZAVOO_clean_sbu_0, # of connection points: 4
#     Node 1, Type 0, BuildingBlock: AZAVOO_clean_sbu_0, # of connection points: 4
#     Node 2, Type 0, BuildingBlock: AZAVOO_clean_sbu_0, # of connection points: 4
#     Node 3, Type 0, BuildingBlock: AZAVOO_clean_sbu_0, # of connection points: 4
#     Edge 4, Type (0, 0), BuildingBlock: KIFKEQ_clean_linker_1, # of connection points: 2
#     Edge 5, Type (0, 0), BuildingBlock: KIFKEQ_clean_linker_1, # of connection points: 2
#     Edge 6, Type (0, 0), BuildingBlock: KIFKEQ_clean_linker_1, # of connection points: 2
#     Edge 7, Type (0, 0), BuildingBlock: KIFKEQ_clean_linker_1, # of connection points: 2
#     Edge 8, Type (0, 0), BuildingBlock: KIFKEQ_clean_linker_1, # of connection points: 2
#     Edge 9, Type (0, 0), BuildingBlock: KIFKEQ_clean_linker_1, # of connection points: 2
#     Edge 10, Type (0, 0), BuildingBlock: KIFKEQ_clean_linker_1, # of connection points: 2
#     Edge 11, Type (0, 0), BuildingBlock: KIFKEQ_clean_linker_1, # of connection points: 2
# Relax obj value: 0.020
# Max RMSD: 0.071
# Mean RMSD: 0.063
data_MOF--net-lon--node1-AZAVOO_clean_sbu_0--edge1-KIFKEQ_clean_linker_1
_symmetry_space_group_name_H-M    P1
_symmetry_Int_Tables_number       1
_symmetry_cell_setting            triclinic
loop_
_symmetry_equiv_pos_as_xyz
'x, y, z'
_cell_length_a     25.68297
_cell_length_b     24.887037
_cell_length_c     43.203081
_cell_angle_alpha  96.658436
_cell_angle_beta   90.171658
_cell_angle_gamma 120.94906
loop_
_atom_site_label
_atom_site_type_symbol
_atom_site_fract_x
_atom_site_fract_y
_atom_site_fract_z
_atom_type_partial_charge
Mg0 Mg 0.40392 0.67711 0.0623 0.0
O1 O 0.30125 0.62429 0.04467 0.0
O2 O 0.26346 0.67823 0.07074 0.0
Mg3 Mg 0.33638 0.76049 0.10463 0.0
C4 C 0.25694 0.63284 0.05071 0.0
C5 C 0.47146 0.61731 0.03411 0.0
O6 O 0.49483 0.64232 0.06291 0.0
O7 O 0.4257 0.7577 0.03397 0.0
O8 O 0.38738 0.80776 0.06314 0.0
O9 O 0.3834 0.62021 0.10194 0.0
O10 O 0.38528 0.71014 0.10467 0.0
C11 C 0.41612 0.80336 0.03984 0.0
C12 C 0.37668 0.66309 0.11813 0.0
O13 O 0.42818 0.62316 0.02403 0.0
Mg14 Mg 0.66099 0.37166 0.56276 0.0
O15 O 0.59954 0.2667 0.5407 0.0
O16 O 0.51426 0.23034 0.5659 0.0
Mg17 Mg 0.52219 0.30579 0.60451 0.0
C18 C 0.54573 0.22246 0.54502 0.0
C19 C 0.78142 0.43509 0.5377 0.0
O20 O 0.78715 0.45349 0.56792 0.0
O21 O 0.60141 0.39936 0.53784 0.0
O22 O 0.52142 0.36419 0.5671 0.0
O23 O 0.70326 0.34583 0.59871 0.0
O24 O 0.62132 0.35219 0.60503 0.0
C25 C 0.55059 0.39371 0.54475 0.0
C26 C 0.66069 0.3409 0.61625 0.0
O27 O 0.72826 0.39617 0.52483 0.0
Mg28 Mg 0.29286 0.6404 0.40327 0.0
O29 O 0.3387 0.74761 0.42058 0.0
O30 O 0.28974 0.78125 0.39308 0.0
Mg31 Mg 0.21979 0.70066 0.35688 0.0
C32 C 0.32999 0.79145 0.41416 0.0
C33 C 0.37469 0.60624 0.4336 0.0
O34 O 0.33891 0.62416 0.44644 0.0
O35 O 0.20778 0.61985 0.4286 0.0
O36 O 0.16195 0.64957 0.39629 0.0
O37 O 0.358 0.6572 0.36648 0.0
O38 O 0.27049 0.65236 0.35943 0.0
C39 C 0.16246 0.62441 0.42039 0.0
C40 C 0.31989 0.66019 0.34815 0.0
O41 O 0.33919 0.6239 0.44481 0.0
Mg42 Mg 0.71849 0.30653 0.90066 0.0
O43 O 0.66845 0.35898 0.91854 0.0
O44 O 0.57709 0.30581 0.892 0.0
Mg45 Mg 0.56808 0.22432 0.85765 0.0
C46 C 0.6157 0.35066 0.91235 0.0
C47 C 0.84542 0.36514 0.92929 0.0
O48 O 0.84368 0.34021 0.90049 0.0
O49 O 0.65957 0.22502 0.92835 0.0
O50 O 0.57155 0.17583 0.8988 0.0
O51 O 0.75508 0.36483 0.86162 0.0
O52 O 0.6672 0.2748 0.85806 0.0
C53 C 0.60444 0.17951 0.92214 0.0
C54 C 0.70567 0.3225 0.84509 0.0
O55 O 0.79642 0.35953 0.93925 0.0
H56 H 0.35407 0.74301 0.15652 0.0
H57 H 0.36928 0.57764 0.155 0.0
H58 H 0.34012 0.74405 0.21215 0.0
H59 H 0.35603 0.57942 0.21105 0.0
H60 H 0.25266 0.6763 0.30498 0.0
H61 H 0.26358 0.67553 0.2489 0.0
H62 H 0.42005 0.65611 0.25968 0.0
H63 H 0.40963 0.65737 0.31586 0.0
C64 C 0.35351 0.70627 0.16786 0.0
C65 C 0.3624 0.65997 0.15121 0.0
C66 C 0.34565 0.70705 0.19981 0.0
C67 C 0.3474 0.6621 0.21586 0.0
C68 C 0.35519 0.61506 0.19921 0.0
C69 C 0.36229 0.61378 0.16712 0.0
C70 C 0.28993 0.67282 0.29552 0.0
C71 C 0.33039 0.6671 0.31489 0.0
C72 C 0.29605 0.67223 0.2634 0.0
C73 C 0.34224 0.66508 0.25001 0.0
C74 C 0.38349 0.66074 0.26941 0.0
C75 C 0.37786 0.66211 0.30158 0.0
H76 H 0.57481 0.32176 0.65808 0.0
H77 H 0.74909 0.3365 0.64871 0.0
H78 H 0.58337 0.31774 0.71399 0.0
H79 H 0.75764 0.33308 0.70457 0.0
H80 H 0.78426 0.40929 0.80922 0.0
H81 H 0.77013 0.40985 0.75332 0.0
H82 H 0.58919 0.246 0.75048 0.0
H83 H 0.60331 0.24462 0.80604 0.0
C84 C 0.61444 0.32319 0.66781 0.0
C85 C 0.66126 0.32945 0.64897 0.0
C86 C 0.61936 0.32105 0.69981 0.0
C87 C 0.67153 0.326 0.71355 0.0
C88 C 0.7174 0.33021 0.69458 0.0
C89 C 0.71216 0.33153 0.66256 0.0
C90 C 0.74122 0.37381 0.79676 0.0
C91 C 0.69485 0.32706 0.81215 0.0
C92 C 0.73335 0.37388 0.76476 0.0
C93 C 0.67872 0.32767 0.74766 0.0
C94 C 0.63161 0.2823 0.7632 0.0
C95 C 0.63976 0.28169 0.79508 0.0
H96 H 0.44018 0.56444 0.97231 0.0
H97 H 0.55588 0.58995 0.05228 0.0
H98 H 0.47851 0.50486 0.94161 0.0
H99 H 0.59251 0.52914 0.02216 0.0
H100 H 0.50369 0.33825 0.90935 0.0
H101 H 0.47145 0.40512 0.9373 0.0
H102 H 0.65344 0.52824 0.98098 0.0
H103 H 0.68553 0.45977 0.95353 0.0
C104 C 0.47365 0.55728 -0.01665 0.0
C105 C 0.49478 0.58191 0.01477 0.0
C106 C 0.49547 0.52284 0.96582 0.0
C107 C 0.53871 0.51196 0.97936 0.0
C108 C 0.56013 0.5373 0.0107 0.0
C109 C 0.53862 0.57188 0.0281 0.0
C110 C 0.53714 0.37964 0.92483 0.0
C111 C 0.59735 0.39333 0.92921 0.0
C112 C 0.51859 0.41843 0.94073 0.0
C113 C 0.5597 0.47238 0.96141 0.0
C114 C 0.6202 0.48662 0.96556 0.0
C115 C 0.63876 0.44749 0.94972 0.0
H116 H 0.05472 0.61727 0.40706 0.0
H117 H 0.14413 0.56802 0.47358 0.0
H118 H 0.96235 0.56853 0.43466 0.0
H119 H 0.05108 0.51862 0.501 0.0
H120 H 0.89924 0.50766 0.56116 0.0
H121 H 0.99063 0.55171 0.53281 0.0
H122 H 0.88082 0.46276 0.44552 0.0
H123 H 0.78845 0.41877 0.47406 0.0
C124 C 0.05484 0.59616 0.4276 0.0
C125 C 0.10714 0.59685 0.43814 0.0
C126 C 0.00155 0.56767 0.44323 0.0
C127 C 0.99927 0.53943 0.46989 0.0
C128 C 0.05158 0.54042 0.48062 0.0
C129 C 0.10489 0.56868 0.46488 0.0
C130 C 0.89432 0.49724 0.53591 0.0
C131 C 0.83644 0.45983 0.51984 0.0
C132 C 0.9469 0.52221 0.51969 0.0
C133 C 0.94303 0.5107 0.48695 0.0
C134 C 0.88519 0.47293 0.47078 0.0
C135 C 0.83235 0.4475 0.48708 0.0
H136 H 0.48432 0.09425 0.92561 0.0
H137 H 0.66367 0.14477 0.96099 0.0
H138 H 0.43909 0.00175 0.95272 0.0
H139 H 0.61777 0.05152 -0.01156 0.0
H140 H 0.51012 0.83754 0.0014 0.0
H141 H 0.55746 0.93046 0.97371 0.0
H142 H 0.4279 0.98027 0.00795 0.0
H143 H 0.38066 0.88809 0.03531 0.0
C144 C 0.51414 0.08587 0.93937 0.0
C145 C 0.57765 0.12693 0.94116 0.0
C146 C 0.48812 0.03287 0.95494 0.0
C147 C 0.52493 0.01932 0.97254 0.0
C148 C 0.58843 0.06058 0.97471 0.0
C149 C 0.61459 0.11424 0.95932 0.0
C150 C 0.4914 0.86797 0.00266 0.0
C151 C 0.44164 0.85544 0.02051 0.0
C152 C 0.51889 0.92145 -0.01286 0.0
C153 C 0.4965 0.96266 -0.01114 0.0
C154 C 0.44593 0.94918 0.00609 0.0
C155 C 0.41897 0.89638 0.0218 0.0
H156 H 0.606 0.47746 0.50256 0.0
H157 H 0.43883 0.38136 0.54853 0.0
H158 H 0.56687 0.53369 0.47734 0.0
H159 H 0.39934 0.43624 0.52278 0.0
H160 H 0.36751 0.58861 0.49626 0.0
H161 H 0.41296 0.5396 0.52309 0.0
H162 H 0.49153 0.51609 0.43799 0.0
H163 H 0.44746 0.56656 0.41161 0.0
C164 C 0.56071 0.46779 0.50704 0.0
C165 C 0.52566 0.42489 0.52762 0.0
C166 C 0.53822 0.50001 0.49256 0.0
C167 C 0.48007 0.48986 0.4982 0.0
C168 C 0.44477 0.44625 0.51841 0.0
C169 C 0.46729 0.41429 0.53296 0.0
C170 C 0.39504 0.57356 0.48346 0.0
C171 C 0.40413 0.58126 0.45183 0.0
C172 C 0.4207 0.54503 0.49872 0.0
C173 C 0.45565 0.52352 0.48264 0.0
C174 C 0.46558 0.53271 0.45122 0.0
C175 C 0.44013 0.56133 0.43605 0.0
H176 H 0.21722 0.52282 0.01018 0.0
H177 H 0.15741 0.64544 0.05343 0.0
H178 H 0.11648 0.45394 -0.01706 0.0
H179 H 0.0581 0.57816 0.02566 0.0
H180 H 0.8675 0.41891 -0.00904 0.0
H181 H 0.96552 0.47865 0.02167 0.0
H182 H 0.05428 0.45229 0.94152 0.0
H183 H 0.95677 0.39135 0.9114 0.0
C184 C 0.1828 0.53524 0.01384 0.0
C185 C 0.19576 0.58985 0.03402 0.0
C186 C 0.125 0.49588 -0.00189 0.0
C187 C 0.07883 0.51032 0.00204 0.0
C188 C 0.09186 0.56469 0.02241 0.0
C189 C 0.14931 0.60371 0.0382 0.0
C190 C 0.90794 0.42562 0.98002 0.0
C191 C 0.90415 0.4004 0.9487 0.0
C192 C 0.96427 0.46016 -0.00245 0.0
C193 C 0.01816 0.47053 -0.01587 0.0
C194 C 0.01393 0.44454 0.9529 0.0
C195 C 0.9578 0.40989 0.9355 0.0
H196 H 0.60183 0.17152 0.50836 0.0
H197 H 0.42547 0.13142 0.53672 0.0
H198 H 0.55315 0.06743 0.47606 0.0
H199 H 0.37758 0.02877 0.50454 0.0
H200 H 0.30822 0.888 0.4153 0.0
H201 H 0.36382 0.99237 0.44591 0.0
H202 H 0.4896 0.94705 0.48435 0.0
H203 H 0.43349 0.84144 0.45368 0.0
C204 C 0.55286 0.14075 0.50767 0.0
C205 C 0.51761 0.15996 0.52512 0.0
C206 C 0.52511 0.0811 0.48936 0.0
C207 C 0.46156 0.04017 0.48771 0.0
C208 C 0.42656 0.05951 0.50511 0.0
C209 C 0.45418 0.11835 0.52368 0.0
C210 C 0.34787 0.90004 0.43011 0.0
C211 C 0.36608 0.85595 0.43211 0.0
C212 C 0.3796 0.95992 0.44774 0.0
C213 C 0.43086 0.97776 0.46762 0.0
C214 C 0.45038 0.93461 0.46909 0.0
C215 C 0.41802 0.87407 0.45168 0.0
loop_
_geom_bond_atom_site_label_1
_geom_bond_atom_site_label_2
_geom_bond_distance
_geom_bond_site_symmetry_2
_ccdc_geom_bond_type
Mg0 O1 2.028 . S
Mg0 O7 1.986 . S
Mg0 O9 2.114 . S
Mg0 O10 2.251 . S
Mg0 O13 2.010 . S
O1 Mg0 2.028 . S
O1 C4 1.250 . S
O2 Mg3 2.028 . S
O2 C4 1.248 . S
Mg3 O2 2.028 . S
Mg3 O8 2.032 . S
Mg3 O10 2.079 . S
C4 O1 1.250 . S
C4 O2 1.248 . S
C5 O6 1.264 . S
C5 O13 1.249 . S
O6 C5 1.264 . S
O7 Mg0 1.986 . S
O7 C11 1.246 . S
O8 Mg3 2.032 . S
O8 C11 1.259 . S
O9 Mg0 2.114 . S
O9 C12 1.252 . S
O10 Mg0 2.251 . S
O10 Mg3 2.079 . S
O10 C12 1.273 . S
C11 O7 1.246 . S
C11 O8 1.259 . S
C12 O9 1.252 . S
C12 O10 1.273 . S
O13 Mg0 2.010 . S
O13 C5 1.249 . S
Mg14 O15 2.028 . S
Mg14 O21 1.986 . S
Mg14 O23 2.114 . S
Mg14 O24 2.251 . S
Mg14 O27 2.010 . S
O15 Mg14 2.028 . S
O15 C18 1.250 . S
O16 Mg17 2.028 . S
O16 C18 1.248 . S
Mg17 O16 2.028 . S
Mg17 O22 2.032 . S
Mg17 O24 2.079 . S
C18 O15 1.250 . S
C18 O16 1.248 . S
C19 O20 1.264 . S
C19 O27 1.249 . S
O20 C19 1.264 . S
O21 Mg14 1.986 . S
O21 C25 1.246 . S
O22 Mg17 2.032 . S
O22 C25 1.259 . S
O23 Mg14 2.114 . S
O23 C26 1.252 . S
O24 Mg14 2.251 . S
O24 Mg17 2.079 . S
O24 C26 1.273 . S
C25 O21 1.246 . S
C25 O22 1.259 . S
C26 O23 1.252 . S
C26 O24 1.273 . S
O27 Mg14 2.010 . S
O27 C19 1.249 . S
Mg28 O29 2.028 . S
Mg28 O35 1.986 . S
Mg28 O37 2.114 . S
Mg28 O38 2.251 . S
Mg28 O41 2.010 . S
O29 Mg28 2.028 . S
O29 C32 1.250 . S
O30 Mg31 2.028 . S
O30 C32 1.248 . S
Mg31 O30 2.028 . S
Mg31 O36 2.032 . S
Mg31 O38 2.079 . S
C32 O29 1.250 . S
C32 O30 1.248 . S
C33 O34 1.264 . S
C33 O41 1.249 . S
O34 C33 1.264 . S
O35 Mg28 1.986 . S
O35 C39 1.246 . S
O36 Mg31 2.032 . S
O36 C39 1.259 . S
O37 Mg28 2.114 . S
O37 C40 1.252 . S
O38 Mg28 2.251 . S
O38 Mg31 2.079 . S
O38 C40 1.273 . S
C39 O35 1.246 . S
C39 O36 1.259 . S
C40 O37 1.252 . S
C40 O38 1.273 . S
O41 Mg28 2.010 . S
O41 C33 1.249 . S
Mg42 O43 2.028 . S
Mg42 O49 1.986 . S
Mg42 O51 2.114 . S
Mg42 O52 2.251 . S
Mg42 O55 2.010 . S
O43 Mg42 2.028 . S
O43 C46 1.250 . S
O44 Mg45 2.028 . S
O44 C46 1.248 . S
Mg45 O44 2.028 . S
Mg45 O50 2.032 . S
Mg45 O52 2.079 . S
C46 O43 1.250 . S
C46 O44 1.248 . S
C47 O48 1.264 . S
C47 O55 1.249 . S
O48 C47 1.264 . S
O49 Mg42 1.986 . S
O49 C53 1.246 . S
O50 Mg45 2.032 . S
O50 C53 1.259 . S
O51 Mg42 2.114 . S
O51 C54 1.252 . S
O52 Mg42 2.251 . S
O52 Mg45 2.079 . S
O52 C54 1.273 . S
C53 O49 1.246 . S
C53 O50 1.259 . S
C54 O51 1.252 . S
C54 O52 1.273 . S
O55 Mg42 2.010 . S
O55 C47 1.249 . S
H56 C64 0.950 . S
H57 C69 0.950 . S
H58 C66 0.950 . S
H59 C68 0.950 . S
H60 C70 0.950 . S
H61 C72 0.950 . S
H62 C74 0.950 . S
H63 C75 0.950 . S
C64 H56 0.950 . S
C64 C65 1.386 . S
C64 C66 1.391 . S
C65 C64 1.386 . S
C65 C69 1.393 . S
C66 H58 0.950 . S
C66 C64 1.391 . S
C66 C67 1.400 . S
C67 C66 1.400 . S
C67 C68 1.398 . S
C67 C73 1.491 . S
C68 H59 0.950 . S
C68 C67 1.398 . S
C68 C69 1.391 . S
C69 H57 0.950 . S
C69 C65 1.393 . S
C69 C68 1.391 . S
C70 H60 0.950 . S
C70 C71 1.386 . S
C70 C72 1.391 . S
C71 C70 1.386 . S
C71 C75 1.393 . S
C72 H61 0.950 . S
C72 C70 1.391 . S
C72 C73 1.400 . S
C73 C67 1.491 . S
C73 C72 1.400 . S
C73 C74 1.398 . S
C74 H62 0.950 . S
C74 C73 1.398 . S
C74 C75 1.391 . S
C75 H63 0.950 . S
C75 C71 1.393 . S
C75 C74 1.391 . S
H76 C84 0.950 . S
H77 C89 0.950 . S
H78 C86 0.950 . S
H79 C88 0.950 . S
H80 C90 0.950 . S
H81 C92 0.950 . S
H82 C94 0.950 . S
H83 C95 0.950 . S
C84 H76 0.950 . S
C84 C85 1.386 . S
C84 C86 1.391 . S
C85 C84 1.386 . S
C85 C89 1.393 . S
C86 H78 0.950 . S
C86 C84 1.391 . S
C86 C87 1.400 . S
C87 C86 1.400 . S
C87 C88 1.398 . S
C87 C93 1.491 . S
C88 H79 0.950 . S
C88 C87 1.398 . S
C88 C89 1.391 . S
C89 H77 0.950 . S
C89 C85 1.393 . S
C89 C88 1.391 . S
C90 H80 0.950 . S
C90 C91 1.386 . S
C90 C92 1.391 . S
C91 C90 1.386 . S
C91 C95 1.393 . S
C92 H81 0.950 . S
C92 C90 1.391 . S
C92 C93 1.400 . S
C93 C87 1.491 . S
C93 C92 1.400 . S
C93 C94 1.398 . S
C94 H82 0.950 . S
C94 C93 1.398 . S
C94 C95 1.391 . S
C95 H83 0.950 . S
C95 C91 1.393 . S
C95 C94 1.391 . S
H96 C104 0.950 . S
H97 C109 0.950 . S
H98 C106 0.950 . S
H99 C108 0.950 . S
H100 C110 0.950 1_554 S
H101 C112 0.950 . S
H102 C114 0.950 . S
H103 C115 0.950 . S
C104 H96 0.950 . S
C104 C105 1.386 1_556 S
C104 C106 1.391 . S
C105 C104 1.386 1_554 S
C105 C109 1.393 . S
C106 H98 0.950 . S
C106 C104 1.391 . S
C106 C107 1.400 1_556 S
C107 C106 1.400 1_554 S
C107 C108 1.398 . S
C107 C113 1.491 1_554 S
C108 H99 0.950 . S
C108 C107 1.398 . S
C108 C109 1.391 . S
C109 H97 0.950 . S
C109 C105 1.393 . S
C109 C108 1.391 . S
C110 H100 0.950 1_556 S
C110 C111 1.386 . S
C110 C112 1.391 1_556 S
C111 C110 1.386 . S
C111 C115 1.393 . S
C112 H101 0.950 . S
C112 C110 1.391 1_554 S
C112 C113 1.400 1_554 S
C113 C107 1.491 1_556 S
C113 C112 1.400 1_556 S
C113 C114 1.398 . S
C114 H102 0.950 . S
C114 C113 1.398 . S
C114 C115 1.391 . S
C115 H103 0.950 . S
C115 C111 1.393 . S
C115 C114 1.391 . S
H116 C124 0.950 . S
H117 C129 0.950 . S
H118 C126 0.950 . S
H119 C128 0.950 . S
H120 C130 0.950 . S
H121 C132 0.950 . S
H122 C134 0.950 . S
H123 C135 0.950 . S
C124 H116 0.950 . S
C124 C125 1.386 . S
C124 C126 1.391 . S
C125 C124 1.386 . S
C125 C129 1.393 . S
C126 H118 0.950 . S
C126 C124 1.391 . S
C126 C127 1.400 . S
C127 C126 1.400 . S
C127 C128 1.398 . S
C127 C133 1.491 1_455 S
C128 H119 0.950 . S
C128 C127 1.398 . S
C128 C129 1.391 . S
C129 H117 0.950 . S
C129 C125 1.393 . S
C129 C128 1.391 . S
C130 H120 0.950 . S
C130 C131 1.386 . S
C130 C132 1.391 . S
C131 C130 1.386 . S
C131 C135 1.393 . S
C132 H121 0.950 . S
C132 C130 1.391 . S
C132 C133 1.400 . S
C133 C127 1.491 1_655 S
C133 C132 1.400 . S
C133 C134 1.398 . S
C134 H122 0.950 . S
C134 C133 1.398 . S
C134 C135 1.391 . S
C135 H123 0.950 . S
C135 C131 1.393 . S
C135 C134 1.391 . S
H136 C144 0.950 . S
H137 C149 0.950 1_554 S
H138 C146 0.950 . S
H139 C148 0.950 . S
H140 C150 0.950 . S
H141 C152 0.950 . S
H142 C154 0.950 . S
H143 C155 0.950 1_556 S
C144 H136 0.950 . S
C144 C145 1.386 . S
C144 C146 1.391 . S
C145 C144 1.386 . S
C145 C149 1.393 . S
C146 H138 0.950 . S
C146 C144 1.391 . S
C146 C147 1.400 . S
C147 C146 1.400 . S
C147 C148 1.398 1_556 S
C147 C153 1.491 1_546 S
C148 H139 0.950 . S
C148 C147 1.398 1_554 S
C148 C149 1.391 1_554 S
C149 H137 0.950 1_556 S
C149 C145 1.393 . S
C149 C148 1.391 1_556 S
C150 H140 0.950 . S
C150 C151 1.386 . S
C150 C152 1.391 . S
C151 C150 1.386 . S
C151 C155 1.393 . S
C152 H141 0.950 . S
C152 C150 1.391 . S
C152 C153 1.400 . S
C153 C147 1.491 1_564 S
C153 C152 1.400 . S
C153 C154 1.398 1_554 S
C154 H142 0.950 . S
C154 C153 1.398 1_556 S
C154 C155 1.391 1_556 S
C155 H143 0.950 1_554 S
C155 C151 1.393 . S
C155 C154 1.391 1_554 S
H156 C164 0.950 . S
H157 C169 0.950 . S
H158 C166 0.950 . S
H159 C168 0.950 . S
H160 C170 0.950 . S
H161 C172 0.950 . S
H162 C174 0.950 . S
H163 C175 0.950 . S
C164 H156 0.950 . S
C164 C165 1.386 . S
C164 C166 1.391 . S
C165 C164 1.386 . S
C165 C169 1.393 . S
C166 H158 0.950 . S
C166 C164 1.391 . S
C166 C167 1.400 . S
C167 C166 1.400 . S
C167 C168 1.398 . S
C167 C173 1.491 . S
C168 H159 0.950 . S
C168 C167 1.398 . S
C168 C169 1.391 . S
C169 H157 0.950 . S
C169 C165 1.393 . S
C169 C168 1.391 . S
C170 H160 0.950 . S
C170 C171 1.386 . S
C170 C172 1.391 . S
C171 C170 1.386 . S
C171 C175 1.393 . S
C172 H161 0.950 . S
C172 C170 1.391 . S
C172 C173 1.400 . S
C173 C167 1.491 . S
C173 C172 1.400 . S
C173 C174 1.398 . S
C174 H162 0.950 . S
C174 C173 1.398 . S
C174 C175 1.391 . S
C175 H163 0.950 . S
C175 C171 1.393 . S
C175 C174 1.391 . S
H176 C184 0.960 . S
H177 C189 0.950 . S
H178 C186 0.950 . S
H179 C188 0.950 . S
H180 C190 0.950 . S
H181 C192 0.950 . S
H182 C194 0.950 1_455 S
H183 C195 0.950 . S
C184 H176 0.960 . S
C184 C185 1.371 1_556 S
C184 C186 1.396 . S
C185 C184 1.371 1_554 S
C185 C189 1.393 . S
C186 H178 0.950 . S
C186 C184 1.396 . S
C186 C187 1.400 1_556 S
C187 C186 1.400 1_554 S
C187 C188 1.398 . S
C187 C193 1.485 1_454 S
C188 H179 0.950 . S
C188 C187 1.398 . S
C188 C189 1.391 . S
C189 H177 0.950 . S
C189 C185 1.393 . S
C189 C188 1.391 . S
C190 H180 0.950 . S
C190 C191 1.386 1_554 S
C190 C192 1.391 . S
C191 C190 1.386 1_556 S
C191 C195 1.393 . S
C192 H181 0.950 . S
C192 C190 1.391 . S
C192 C193 1.387 1_554 S
C193 C187 1.485 1_656 S
C193 C192 1.387 1_556 S
C193 C194 1.418 . S
C194 H182 0.950 1_655 S
C194 C193 1.418 . S
C194 C195 1.391 . S
C195 H183 0.950 . S
C195 C191 1.393 . S
C195 C194 1.391 . S
H196 C204 0.950 . S
H197 C209 0.950 . S
H198 C206 0.950 . S
H199 C208 0.950 . S
H200 C210 0.950 . S
H201 C212 0.950 . S
H202 C214 0.950 . S
H203 C215 0.950 . S
C204 H196 0.950 . S
C204 C205 1.386 . S
C204 C206 1.391 . S
C205 C204 1.386 . S
C205 C209 1.393 . S
C206 H198 0.950 . S
C206 C204 1.391 . S
C206 C207 1.400 . S
C207 C206 1.400 . S
C207 C208 1.398 . S
C207 C213 1.491 1_545 S
C208 H199 0.950 . S
C208 C207 1.398 . S
C208 C209 1.391 . S
C209 H197 0.950 . S
C209 C205 1.393 . S
C209 C208 1.391 . S
C210 H200 0.950 . S
C210 C211 1.386 . S
C210 C212 1.391 . S
C211 C210 1.386 . S
C211 C215 1.393 . S
C212 H201 0.950 . S
C212 C210 1.391 . S
C212 C213 1.400 . S
C213 C207 1.491 1_565 S
C213 C212 1.400 . S
C213 C214 1.398 . S
C214 H202 0.950 . S
C214 C213 1.398 . S
C214 C215 1.391 . S
C215 H203 0.950 . S
C215 C211 1.393 . S
C215 C214 1.391 . S
C65 C12 1.505 . S
C71 C40 1.501 . S
C85 C26 1.504 . S
C91 C54 1.503 . S
C105 C5 1.275 . S
C111 C46 1.549 . S
C125 C39 1.395 . S
C131 C19 1.110 . S
C145 C53 1.292 . S
C151 C11 1.278 . S
C165 C25 1.401 . S
C171 C33 1.138 . S
C185 C4 1.571 . S
C191 C47 1.325 . S
C205 C18 1.660 . S
C211 C32 1.675 . S
