# Generated by pormake.
# Topology pcu, (6)-cn, num edge types: 1
# Building blocks:
#     Node 0, Type 0, BuildingBlock: VOLQOD_clean_sbu_1, # of connection points: 6
#     Edge 1, Type (0, 0), BuildingBlock: XIVTED_clean_linker_0, # of connection points: 2
#     Edge 2, Type (0, 0), BuildingBlock: XIVTED_clean_linker_0, # of connection points: 2
#     Edge 3, Type (0, 0), BuildingBlock: XIVTED_clean_linker_0, # of connection points: 2
# Relax obj value: 0.082
# Max RMSD: 0.143
# Mean RMSD: 0.143
data_MOF--net-pcu--node1-VOLQOD_clean_sbu_1--edge1-XIVTED_clean_linker_0
_symmetry_space_group_name_H-M    P1
_symmetry_Int_Tables_number       1
_symmetry_cell_setting            triclinic
loop_
_symmetry_equiv_pos_as_xyz
'x, y, z'
_cell_length_a     17.43432
_cell_length_b     17.402612
_cell_length_c     17.467241
_cell_angle_alpha  90.982065
_cell_angle_beta   90.114053
_cell_angle_gamma 90.560015
loop_
_atom_site_label
_atom_site_type_symbol
_atom_site_fract_x
_atom_site_fract_y
_atom_site_fract_z
_atom_type_partial_charge
O0 O 0.02577 0.02502 0.16693 0.0
Zn1 Zn 0.0442 0.04467 0.05478 0.0
O2 O -0.02116 -0.02071 -0.01151 0.0
Zn3 Zn 0.04309 0.91445 0.92253 0.0
Zn4 Zn 0.9136 0.91564 0.05344 0.0
Zn5 Zn 0.91402 0.04203 0.92303 0.0
O6 O 0.0252 0.93407 0.81057 0.0
O7 O 0.93193 0.01992 0.81098 0.0
O8 O 0.15642 0.02486 0.0348 0.0
O9 O 0.15516 0.93557 0.94227 0.0
O10 O 0.02162 0.80211 0.94137 0.0
O11 O 0.93521 0.80325 0.03494 0.0
O12 O 0.80154 0.93466 0.03381 0.0
O13 O 0.02332 0.15688 0.03585 0.0
O14 O 0.80166 0.02251 0.943 0.0
O15 O 0.9368 0.15446 0.94195 0.0
C16 C 0.97829 -0.01799 0.20175 0.0
C17 C -0.02134 0.97674 0.7751 0.0
C18 C -0.02151 0.76696 -0.01162 0.0
C19 C 0.19146 -0.01965 -0.01171 0.0
C20 C 0.7659 -0.02145 -0.0114 0.0
C21 C -0.0197 0.19137 -0.01135 0.0
O22 O 0.9315 0.93837 0.16525 0.0
H23 H 0.85764 0.94902 0.29541 0.0
H24 H 0.09851 0.9436 0.67977 0.0
H25 H 0.09685 0.01515 0.30022 0.0
H26 H 0.86079 0.01045 0.67825 0.0
H27 H 0.09894 0.94639 0.53937 0.0
H28 H 0.85748 0.94842 0.43575 0.0
C29 C 0.91013 0.96323 0.32603 0.0
C30 C 0.97736 -0.01769 0.2863 0.0
C31 C 0.04684 0.96047 0.57001 0.0
C32 C 0.9777 -0.01953 0.44616 0.0
C33 C 0.04637 0.95847 0.64987 0.0
C34 C -0.0205 0.97693 0.69055 0.0
C35 C -0.02048 -0.0208 0.53068 0.0
C36 C 0.91363 -0.00376 0.64904 0.0
C37 C 0.90984 0.96318 0.4059 0.0
C38 C 0.04371 0.00058 0.32875 0.0
N39 N 0.91506 -0.00379 0.57123 0.0
N40 N 0.04246 -0.00153 0.40653 0.0
H41 H 0.28568 0.94604 0.86804 0.0
H42 H 0.67086 0.945 0.10791 0.0
H43 H 0.28967 0.01508 0.10651 0.0
H44 H 0.66849 0.0127 0.87139 0.0
H45 H 0.53016 0.9468 0.10831 0.0
H46 H 0.42637 0.94669 0.86779 0.0
C47 C 0.31619 0.96107 0.92036 0.0
C48 C 0.27615 -0.01933 0.9874 0.0
C49 C 0.56067 0.96132 0.05649 0.0
C50 C 0.43633 -0.01972 0.98764 0.0
C51 C 0.6407 0.95991 0.05603 0.0
C52 C 0.68121 -0.02115 -0.01049 0.0
C53 C 0.52103 -0.02014 -0.01055 0.0
C54 C 0.63938 -0.00184 0.92396 0.0
C55 C 0.39623 0.96177 0.92001 0.0
C56 C 0.31844 6e-05 0.05354 0.0
N57 N 0.56142 -0.00254 0.92532 0.0
N58 N 0.39639 -0.00136 0.05224 0.0
H59 H 0.9456 0.67361 0.10843 0.0
H60 H 0.94807 0.28397 0.86835 0.0
H61 H 0.01263 0.66745 0.8707 0.0
H62 H 0.0136 0.29163 0.10677 0.0
H63 H 0.94894 0.42486 0.86798 0.0
H64 H 0.94764 0.5327 0.10898 0.0
C65 C 0.96043 0.64259 0.05632 0.0
C66 C -0.02094 0.68211 -0.0106 0.0
C67 C 0.96323 0.39549 0.92022 0.0
C68 C -0.01959 0.52162 -0.01046 0.0
C69 C 0.96239 0.31532 0.92064 0.0
C70 C -0.01911 0.27622 0.9877 0.0
C71 C -0.01917 0.43672 -0.01222 0.0
C72 C -0.00058 0.31962 0.05377 0.0
C73 C 0.96198 0.56242 0.05686 0.0
C74 C -0.00171 0.63915 0.92358 0.0
N75 N -0.00181 0.3977 0.0524 0.0
N76 N -0.00223 0.56107 0.92506 0.0
loop_
_geom_bond_atom_site_label_1
_geom_bond_atom_site_label_2
_geom_bond_distance
_geom_bond_site_symmetry_2
_ccdc_geom_bond_type
O0 Zn1 1.953 . S
O0 C16 1.225 . S
Zn1 O0 1.953 . S
Zn1 O2 1.940 1_454 S
Zn1 O8 1.919 . S
Zn1 O13 1.924 . S
O2 Zn1 1.940 1_656 S
O2 Zn3 1.932 1_645 S
O2 Zn4 1.941 1_546 S
O2 Zn5 1.953 . S
Zn3 O2 1.932 1_465 S
Zn3 O6 1.933 . S
Zn3 O9 1.941 . S
Zn3 O10 1.965 . S
Zn4 O2 1.941 1_564 S
Zn4 O11 1.938 . S
Zn4 O12 1.906 . S
Zn4 O22 1.953 . S
Zn5 O2 1.953 . S
Zn5 O7 1.932 . S
Zn5 O14 1.977 . S
Zn5 O15 1.910 . S
O6 Zn3 1.933 . S
O6 C17 1.231 . S
O7 Zn5 1.932 . S
O7 C17 1.302 1_645 S
O8 Zn1 1.919 . S
O8 C19 1.253 1_544 S
O9 Zn3 1.941 . S
O9 C19 1.283 . S
O10 Zn3 1.965 . S
O10 C18 1.303 1_456 S
O11 Zn4 1.938 . S
O11 C18 1.247 . S
O12 Zn4 1.906 . S
O12 C20 1.304 1_564 S
O13 Zn1 1.924 . S
O13 C21 1.311 . S
O14 Zn5 1.977 . S
O14 C20 1.272 . S
O15 Zn5 1.910 . S
O15 C21 1.231 1_656 S
C16 O0 1.225 . S
C16 O22 1.298 1_445 S
C17 O6 1.231 . S
C17 O7 1.302 1_465 S
C18 O10 1.303 1_654 S
C18 O11 1.247 . S
C19 O8 1.253 1_566 S
C19 O9 1.283 . S
C20 O12 1.304 1_546 S
C20 O14 1.272 . S
C21 O13 1.311 . S
C21 O15 1.231 1_454 S
O22 Zn4 1.953 . S
O22 C16 1.298 1_665 S
H23 C29 0.930 . S
H24 C33 0.930 . S
H25 C38 0.929 . S
H26 C36 0.929 . S
H27 C31 0.929 . S
H28 C37 0.929 . S
C29 H23 0.930 . S
C29 C30 1.367 1_655 S
C29 C37 1.378 . S
C30 C29 1.367 1_455 S
C30 C38 1.433 1_545 S
C31 H27 0.929 . S
C31 C33 1.378 . S
C31 C35 1.351 1_565 S
C32 C35 1.462 . S
C32 C37 1.350 1_455 S
C32 N40 1.427 1_545 S
C33 H24 0.930 . S
C33 C31 1.378 . S
C33 C34 1.358 1_565 S
C34 C33 1.358 1_545 S
C34 C36 1.442 1_455 S
C35 C31 1.351 1_545 S
C35 C32 1.462 . S
C35 N39 1.426 1_455 S
C36 H26 0.929 . S
C36 C34 1.442 1_655 S
C36 N39 1.384 . S
C37 H28 0.929 . S
C37 C29 1.378 . S
C37 C32 1.350 1_655 S
C38 H25 0.929 . S
C38 C30 1.433 1_565 S
C38 N40 1.384 . S
N39 C35 1.426 1_655 S
N39 C36 1.384 . S
N40 C32 1.427 1_565 S
N40 C38 1.384 . S
H41 C47 0.930 . S
H42 C51 0.930 . S
H43 C56 0.929 . S
H44 C54 0.929 . S
H45 C49 0.929 . S
H46 C55 0.929 . S
C47 H41 0.930 . S
C47 C48 1.367 1_545 S
C47 C55 1.378 . S
C48 C47 1.367 1_565 S
C48 C56 1.433 1_556 S
C49 H45 0.929 . S
C49 C51 1.378 . S
C49 C53 1.350 1_554 S
C50 C53 1.463 . S
C50 C55 1.350 1_565 S
C50 N58 1.427 1_556 S
C51 H42 0.930 . S
C51 C49 1.378 . S
C51 C52 1.367 1_554 S
C52 C51 1.367 1_556 S
C52 C54 1.433 1_565 S
C53 C49 1.350 1_556 S
C53 C50 1.463 . S
C53 N57 1.427 1_565 S
C54 H44 0.929 . S
C54 C52 1.433 1_545 S
C54 N57 1.384 . S
C55 H46 0.929 . S
C55 C47 1.378 . S
C55 C50 1.350 1_545 S
C56 H43 0.929 . S
C56 C48 1.433 1_554 S
C56 N58 1.384 . S
N57 C53 1.427 1_545 S
N57 C54 1.384 . S
N58 C50 1.427 1_554 S
N58 C56 1.384 . S
H59 C65 0.930 . S
H60 C69 0.930 . S
H61 C74 0.929 . S
H62 C72 0.929 . S
H63 C67 0.929 . S
H64 C73 0.929 . S
C65 H59 0.930 . S
C65 C66 1.362 1_655 S
C65 C73 1.378 . S
C66 C65 1.362 1_455 S
C66 C74 1.439 1_554 S
C67 H63 0.929 . S
C67 C69 1.378 . S
C67 C71 1.350 1_556 S
C68 C71 1.463 . S
C68 C73 1.347 1_455 S
C68 N76 1.430 1_554 S
C69 H60 0.930 . S
C69 C67 1.378 . S
C69 C70 1.367 1_556 S
C70 C69 1.367 1_554 S
C70 C72 1.433 1_455 S
C71 C67 1.350 1_554 S
C71 C68 1.463 . S
C71 N75 1.427 1_455 S
C72 H62 0.929 . S
C72 C70 1.433 1_655 S
C72 N75 1.384 . S
C73 H64 0.929 . S
C73 C65 1.378 . S
C73 C68 1.347 1_655 S
C74 H61 0.929 . S
C74 C66 1.439 1_556 S
C74 N76 1.384 . S
N75 C71 1.427 1_655 S
N75 C72 1.384 . S
N76 C68 1.430 1_556 S
N76 C74 1.384 . S
C30 C16 1.499 . S
C34 C17 1.498 1_545 S
C48 C19 1.444 . S
C52 C20 1.445 1_565 S
C66 C18 1.435 1_455 S
C70 C21 1.434 . S
