# Generated by pormake.
# Topology pcu, (6)-cn, num edge types: 1
# Building blocks:
#     Node 0, Type 0, BuildingBlock: KUMBOL_clean_sbu_1, # of connection points: 6
#     Edge 1, Type (0, 0), BuildingBlock: ZUJKAS_clean_linker_0, # of connection points: 2
#     Edge 2, Type (0, 0), BuildingBlock: ZUJKAS_clean_linker_0, # of connection points: 2
#     Edge 3, Type (0, 0), BuildingBlock: ZUJKAS_clean_linker_0, # of connection points: 2
# Relax obj value: 0.000
# Max RMSD: 0.000
# Mean RMSD: 0.000
data_MOF--net-pcu--node1-KUMBOL_clean_sbu_1--edge1-ZUJKAS_clean_linker_0
_symmetry_space_group_name_H-M    P1
_symmetry_Int_Tables_number       1
_symmetry_cell_setting            triclinic
loop_
_symmetry_equiv_pos_as_xyz
'x, y, z'
_cell_length_a     19.391885
_cell_length_b     29.082283
_cell_length_c     19.469106
_cell_angle_alpha  114.12442
_cell_angle_beta   89.255776
_cell_angle_gamma 115.32545
loop_
_atom_site_label
_atom_site_type_symbol
_atom_site_fract_x
_atom_site_fract_y
_atom_site_fract_z
_atom_type_partial_charge
C0 C 0.2491 0.1628 0.11648 0.0
C1 C 0.31479 0.17873 0.01543 0.0
C2 C 0.24548 0.15698 0.04186 0.0
C3 C 0.38708 0.20417 0.06368 0.0
C4 C 0.32153 0.18892 0.1654 0.0
C5 C 0.39044 0.20924 0.13842 0.0
N6 N 0.18147 0.141 0.14029 0.0
C7 C 0.18186 0.14565 0.21292 0.0
C8 C 0.32247 0.19314 0.23971 0.0
C9 C 0.25231 0.17161 0.26363 0.0
Gd10 Gd 0.96383 0.92446 0.9421 0.0
Gd11 Gd 0.06634 0.09802 0.05151 0.0
N12 N 0.17451 0.13141 0.99594 0.0
C13 C 0.30946 0.17552 0.94187 0.0
C14 C 0.16958 0.13311 0.9272 0.0
C15 C 0.23655 0.15362 0.89821 0.0
H16 H 0.11473 0.12084 0.89544 0.0
H17 H 0.23192 0.15366 0.84289 0.0
H18 H 0.91641 0.90144 0.09821 0.0
H19 H 0.12773 0.12958 0.23174 0.0
H20 H 0.79969 0.86891 0.15152 0.0
H21 H 0.36129 0.19181 0.91952 0.0
H22 H 0.4408 0.22071 0.04404 0.0
H23 H 0.90145 0.89297 0.76218 0.0
H24 H 0.37696 0.21291 0.279 0.0
H25 H 0.25248 0.17498 0.3211 0.0
H26 H 0.58987 0.80257 0.95181 0.0
H27 H 0.44665 0.22914 0.17501 0.0
H28 H 0.65221 0.81013 0.71638 0.0
H29 H 0.77629 0.84774 0.67351 0.0
N30 N 0.8483 0.8817 0.85397 0.0
C31 C 0.7809 0.86006 0.8782 0.0
C32 C 0.84748 0.87699 0.78131 0.0
C33 C 0.70687 0.82979 0.75536 0.0
C34 C 0.7768 0.85115 0.731 0.0
C35 C 0.70826 0.83407 0.8297 0.0
H36 H 0.58323 0.79414 0.82085 0.0
N37 N 0.85613 0.89127 -0.0017 0.0
C38 C 0.78497 0.86589 0.95282 0.0
C39 C 0.72167 0.8474 0.05314 0.0
C40 C 0.71591 0.84426 0.97966 0.0
C41 C 0.86145 0.88942 0.0669 0.0
C42 C 0.79474 0.86905 0.09629 0.0
O43 O 0.1374 0.05357 0.05432 0.0
O44 O 0.08913 0.97417 0.93816 0.0
O45 O 0.98112 0.85868 0.95787 0.0
O46 O 0.95546 0.85076 0.84356 0.0
O47 O 1.01098 0.05331 0.92478 0.0
O48 O 0.02519 0.97127 0.87385 0.0
O49 O 0.89299 0.96903 0.93911 0.0
O50 O 0.94114 0.04815 0.05547 0.0
O51 O 0.04871 0.16351 0.03523 0.0
O52 O 0.0744 0.17176 0.14974 0.0
O53 O 0.01956 0.96922 0.06872 0.0
O54 O 1.00498 0.05108 0.11963 0.0
C55 C 0.14594 0.01369 0.99693 0.0
C56 C 0.01558 0.01132 0.86641 0.0
C57 C 0.97239 0.77362 0.84621 0.0
C58 C 0.97517 0.69041 0.84777 0.0
C59 C 0.97091 0.69815 0.7283 0.0
C60 C 0.97028 0.75014 0.7667 0.0
C61 C 0.97308 0.66842 0.76825 0.0
C62 C 0.97581 0.74376 0.88702 0.0
C63 C 0.96936 0.82845 0.88396 0.0
C64 C 0.64341 0.81899 0.93184 0.0
C65 C 0.6396 0.81392 0.85711 0.0
H66 H 0.67003 0.8312 0.0758 0.0
C67 C 0.88445 1.0089 0.99653 0.0
C68 C 0.01489 0.01116 0.12712 0.0
C69 C 0.05701 0.24857 0.14655 0.0
C70 C 0.05407 0.33162 0.14458 0.0
C71 C 0.05777 0.32395 0.26414 0.0
C72 C 0.05869 0.27205 0.22599 0.0
C73 C 0.05574 0.35361 0.22403 0.0
C74 C 0.05371 0.27835 0.10556 0.0
C75 C 0.06034 0.19385 0.10909 0.0
H76 H 0.96948 0.6807 0.66712 0.0
H77 H 0.96807 0.77196 0.73372 0.0
H78 H 0.97386 0.62817 0.73683 0.0
H79 H 0.9771 0.76111 0.94824 0.0
H80 H 0.05888 0.34139 0.32527 0.0
H81 H 0.06078 0.25028 0.25909 0.0
H82 H 0.05475 0.3938 0.25526 0.0
H83 H 0.05274 0.26101 0.04441 0.0
H84 H 0.06596 0.95342 0.17661 0.0
H85 H 0.06606 0.95316 0.30218 0.0
H86 H 0.97049 0.07103 0.37663 0.0
H87 H 0.97026 0.0717 0.25146 0.0
H88 H 0.09611 0.0994 0.48409 0.0
H89 H 0.87147 0.87445 0.37891 0.0
H90 H 0.95238 0.88492 0.33056 0.0
H91 H 0.88777 0.91264 0.32194 0.0
C92 C 0.04474 0.97916 0.21962 0.0
C93 C 0.01745 0.01218 0.20379 0.0
C94 C 0.04459 0.9788 0.29121 0.0
C95 C 0.01706 0.01134 0.34818 0.0
C96 C 0.99154 0.04536 0.33323 0.0
H97 H 0.96521 0.06941 0.81699 0.0
H98 H 0.96526 0.06966 0.69142 0.0
C99 C 0.99155 0.04571 0.26168 0.0
C100 C 0.01536 1.01032 0.42368 0.0
H101 H 0.9348 0.92309 0.50941 0.0
C102 C 0.06066 0.06095 0.48977 0.0
C103 C 0.96901 0.96004 0.43073 0.0
C104 C 0.91681 0.90497 0.36194 0.0
C105 C 0.06193 0.06245 0.56277 0.0
C106 C 0.01555 0.01217 0.56983 0.0
C107 C 0.97026 0.96154 0.50373 0.0
C108 C 1.01376 0.01116 0.64534 0.0
C109 C 0.11419 0.1175 0.63154 0.0
C110 C 0.0389 0.97695 0.66025 0.0
C111 C 0.03877 0.97659 0.7318 0.0
C112 C 1.01314 1.01031 0.78974 0.0
C113 C 0.98622 0.04352 0.77395 0.0
C114 C 0.98647 0.04388 0.70235 0.0
H115 H 0.15968 0.14793 0.61454 0.0
H116 H 0.0787 0.13769 0.66279 0.0
H117 H 0.14305 0.10982 0.67165 0.0
H118 H 0.05975 0.95113 0.61682 0.0
H119 H 0.05976 0.95044 0.74197 0.0
H120 H 0.19957 0.95983 0.87518 0.0
H121 H 0.32517 0.95903 0.87626 0.0
H122 H 0.39084 0.0676 0.12017 0.0
H123 H 0.26423 0.06683 0.12005 0.0
H124 H 0.47527 0.05096 0.92239 0.0
H125 H 0.42948 0.9348 0.09889 0.0
H126 H 0.35089 0.93751 0.05476 0.0
H127 H 0.4156 0.9971 0.14146 0.0
C128 C 0.24054 0.98326 0.92917 0.0
C129 C 0.22218 0.01372 0.99754 0.0
C130 C 0.31237 0.98294 0.92959 0.0
C131 C 0.3669 0.01269 -0.00161 0.0
C132 C 0.3491 0.04361 0.06663 0.0
H133 H 0.83081 0.06281 0.1182 0.0
H134 H 0.70535 0.06381 0.11701 0.0
C135 C 0.27714 0.04378 0.0663 0.0
C136 C 0.44264 0.01167 -0.00162 0.0
H137 H 0.55538 0.97204 0.07081 0.0
C138 C 0.49276 0.03353 0.95456 0.0
C139 C 0.46514 0.98889 0.04047 0.0
C140 C 0.41229 0.96275 0.08606 0.0
C141 C 0.56552 0.03412 0.95273 0.0
C142 C 0.58803 0.01133 0.99482 0.0
C143 C 0.5379 0.98948 0.03863 0.0
C144 C 0.66376 1.01031 0.99483 0.0
C145 C 0.61838 0.06026 0.90715 0.0
C146 C 0.68162 0.97943 0.9266 0.0
C147 C 0.7535 0.97915 0.927 0.0
C148 C 0.80832 1.00904 0.99582 0.0
C149 C 0.78993 0.03949 0.06417 0.0
C150 C 0.71818 0.03993 0.06368 0.0
H151 H 0.60122 0.08826 0.89439 0.0
H152 H 0.67979 0.08547 0.93843 0.0
H153 H 0.61503 0.02593 0.85173 0.0
H154 H 0.63995 0.95553 0.87301 0.0
H155 H 0.76645 0.95612 0.87325 0.0
H156 H 0.8808 0.57806 0.80466 0.0
H157 H 0.89424 0.51819 0.85679 0.0
H158 H 0.08838 0.6649 0.03037 0.0
H159 H 0.07442 0.72534 0.97857 0.0
H160 H 0.01984 0.49975 0.8631 0.0
H161 H 0.96209 0.58931 0.15617 0.0
H162 H 0.93865 0.6052 0.08183 0.0
H163 H 0.03708 0.64096 0.1335 0.0
C164 C 0.92567 0.59775 0.8547 0.0
C165 C 0.97666 0.65646 0.88747 0.0
C166 C 0.93339 0.56342 0.88435 0.0
C167 C 0.99212 0.58684 0.94771 0.0
C168 C 0.04168 0.64585 0.98228 0.0
H169 H 0.14852 0.44392 0.18757 0.0
H170 H 0.13518 0.50375 0.13527 0.0
C171 C 0.03368 0.68043 0.95274 0.0
C172 C 1.00379 0.54871 0.97408 0.0
H173 H 1.00962 0.52214 0.12888 0.0
C174 C 0.01729 0.50452 0.92118 0.0
C175 C 1.00058 0.55484 0.04982 0.0
C176 C 0.98311 0.59978 0.10851 0.0
C177 C 0.0289 0.46704 0.94216 0.0
C178 C 0.02569 0.47318 0.01791 0.0
C179 C 1.01218 0.51736 0.0708 0.0
C180 C 0.03738 0.43506 0.0443 0.0
C181 C 0.04636 0.4221 0.88347 0.0
C182 C 0.98784 0.37604 0.00973 0.0
C183 C 0.99579 0.34149 0.03936 0.0
C184 C 0.05273 0.36551 0.10472 0.0
C185 C 0.10372 0.42421 0.13747 0.0
C186 C 0.09606 0.45851 0.10772 0.0
H187 H 0.0674 0.43258 0.83583 0.0
H188 H 0.09081 0.41667 0.91015 0.0
H189 H 0.99238 0.38092 0.85847 0.0
H190 H 0.94118 0.35697 0.9616 0.0
H191 H 0.95506 0.29659 0.01355 0.0
loop_
_geom_bond_atom_site_label_1
_geom_bond_atom_site_label_2
_geom_bond_distance
_geom_bond_site_symmetry_2
_ccdc_geom_bond_type
C0 C2 1.422 . S
C0 C4 1.415 . S
C0 N6 1.369 . S
C1 C2 1.421 . S
C1 C3 1.417 . S
C1 C13 1.422 . S
C2 C0 1.422 . S
C2 C1 1.421 . S
C2 N12 1.359 . S
C3 C1 1.417 . S
C3 C5 1.329 . S
C3 H22 0.930 . S
C4 C0 1.415 . S
C4 C5 1.437 . S
C4 C8 1.413 . S
C5 C3 1.329 . S
C5 C4 1.437 . S
C5 H27 0.929 . S
N6 C0 1.369 . S
N6 C7 1.338 . S
N6 Gd11 2.622 . S
C7 N6 1.338 . S
C7 C9 1.378 . S
C7 H19 0.929 . S
C8 C4 1.413 . S
C8 C9 1.348 . S
C8 H24 0.931 . S
C9 C7 1.378 . S
C9 C8 1.348 . S
C9 H25 0.930 . S
Gd10 N30 2.622 . S
Gd10 N37 2.570 . S
Gd10 O44 2.353 1_655 S
Gd10 O45 2.468 . S
Gd10 O46 2.427 . S
Gd10 O48 2.388 . S
Gd10 O49 2.386 . S
Gd10 O53 2.307 1_556 S
Gd10 C63 2.805 . S
Gd11 N6 2.622 . S
Gd11 N12 2.570 . S
Gd11 O43 2.386 . S
Gd11 O47 2.307 1_554 S
Gd11 O50 2.353 1_455 S
Gd11 O51 2.468 . S
Gd11 O52 2.427 . S
Gd11 O54 2.388 . S
Gd11 C75 2.805 . S
N12 C2 1.359 . S
N12 Gd11 2.570 . S
N12 C14 1.343 1_554 S
C13 C1 1.422 . S
C13 C15 1.321 1_554 S
C13 H21 0.931 1_554 S
C14 N12 1.343 1_556 S
C14 C15 1.390 . S
C14 H16 0.931 . S
C15 C13 1.321 1_556 S
C15 C14 1.390 . S
C15 H17 0.930 . S
H16 C14 0.931 . S
H17 C15 0.930 . S
H18 C41 0.931 . S
H19 C7 0.929 . S
H20 C42 0.930 . S
H21 C13 0.931 1_556 S
H22 C3 0.930 . S
H23 C32 0.929 . S
H24 C8 0.931 . S
H25 C9 0.930 . S
H26 C64 0.930 . S
H27 C5 0.929 . S
H28 C33 0.931 . S
H29 C34 0.930 . S
N30 Gd10 2.622 . S
N30 C31 1.369 . S
N30 C32 1.338 . S
C31 N30 1.369 . S
C31 C35 1.415 . S
C31 C38 1.422 . S
C32 H23 0.929 . S
C32 N30 1.338 . S
C32 C34 1.378 . S
C33 H28 0.931 . S
C33 C34 1.348 . S
C33 C35 1.413 . S
C34 H29 0.930 . S
C34 C32 1.378 . S
C34 C33 1.348 . S
C35 C31 1.415 . S
C35 C33 1.413 . S
C35 C65 1.437 . S
H36 C65 0.929 . S
N37 Gd10 2.570 . S
N37 C38 1.359 . S
N37 C41 1.343 1_556 S
C38 C31 1.422 . S
C38 N37 1.359 . S
C38 C40 1.421 . S
C39 C40 1.422 . S
C39 C42 1.321 1_556 S
C39 H66 0.931 1_556 S
C40 C38 1.421 . S
C40 C39 1.422 . S
C40 C64 1.417 . S
C41 H18 0.931 . S
C41 N37 1.343 1_554 S
C41 C42 1.390 . S
C42 H20 0.930 . S
C42 C39 1.321 1_554 S
C42 C41 1.390 . S
O43 Gd11 2.386 . S
O43 C55 1.264 1_545 S
O44 Gd10 2.353 1_455 S
O44 C55 1.243 1_556 S
O45 Gd10 2.468 . S
O45 C63 1.263 . S
O46 Gd10 2.427 . S
O46 C63 1.252 . S
O47 Gd11 2.307 1_556 S
O47 C56 1.261 1_545 S
O48 Gd10 2.388 . S
O48 C56 1.252 1_655 S
O49 Gd10 2.386 . S
O49 C67 1.259 1_565 S
O50 Gd11 2.353 1_655 S
O50 C67 1.245 1_554 S
O51 Gd11 2.468 . S
O51 C75 1.263 . S
O52 Gd11 2.427 . S
O52 C75 1.252 . S
O53 Gd10 2.307 1_554 S
O53 C68 1.261 1_565 S
O54 Gd11 2.388 . S
O54 C68 1.252 1_455 S
C55 O43 1.264 1_565 S
C55 O44 1.243 1_554 S
C56 O47 1.261 1_565 S
C56 O48 1.252 1_455 S
C57 C60 1.394 . S
C57 C62 1.370 . S
C57 C63 1.500 . S
C58 C61 1.383 . S
C58 C62 1.395 . S
C59 C60 1.396 . S
C59 C61 1.365 . S
C59 H76 0.929 . S
C60 C57 1.394 . S
C60 C59 1.396 . S
C60 H77 0.930 . S
C61 C58 1.383 . S
C61 C59 1.365 . S
C61 H78 0.931 . S
C62 C57 1.370 . S
C62 C58 1.395 . S
C62 H79 0.930 1_556 S
C63 Gd10 2.805 . S
C63 O45 1.263 . S
C63 O46 1.252 . S
C63 C57 1.500 . S
C64 H26 0.930 . S
C64 C40 1.417 . S
C64 C65 1.329 . S
C65 C35 1.437 . S
C65 H36 0.929 . S
C65 C64 1.329 . S
H66 C39 0.931 1_554 S
C67 O49 1.259 1_545 S
C67 O50 1.245 1_556 S
C68 O53 1.261 1_545 S
C68 O54 1.252 1_655 S
C69 C72 1.394 . S
C69 C74 1.370 . S
C69 C75 1.500 . S
C70 C73 1.383 . S
C70 C74 1.395 . S
C71 C72 1.396 . S
C71 C73 1.365 . S
C71 H80 0.929 . S
C72 C69 1.394 . S
C72 C71 1.396 . S
C72 H81 0.930 . S
C73 C70 1.383 . S
C73 C71 1.365 . S
C73 H82 0.931 . S
C74 C69 1.370 . S
C74 C70 1.395 . S
C74 H83 0.930 1_554 S
C75 Gd11 2.805 . S
C75 O51 1.263 . S
C75 O52 1.252 . S
C75 C69 1.500 . S
H76 C59 0.929 . S
H77 C60 0.930 . S
H78 C61 0.931 . S
H79 C62 0.930 1_554 S
H80 C71 0.929 . S
H81 C72 0.930 . S
H82 C73 0.931 . S
H83 C74 0.930 1_556 S
H84 C92 0.929 . S
H85 C94 0.930 . S
H86 C96 0.930 . S
H87 C99 0.929 . S
H88 C102 0.930 . S
H89 C104 0.960 . S
H90 C104 0.963 . S
H91 C104 0.960 . S
C92 H84 0.929 . S
C92 C93 1.390 1_545 S
C92 C94 1.384 . S
C93 C92 1.390 1_565 S
C93 C99 1.379 1_455 S
C94 H85 0.930 . S
C94 C92 1.384 . S
C94 C95 1.372 . S
C95 C94 1.372 . S
C95 C96 1.400 1_445 S
C95 C100 1.490 . S
C96 H86 0.930 . S
C96 C95 1.400 1_665 S
C96 C99 1.386 . S
H97 C113 0.930 . S
H98 C114 0.931 . S
C99 H87 0.929 . S
C99 C93 1.379 1_655 S
C99 C96 1.386 . S
C100 C95 1.490 . S
C100 C102 1.395 . S
C100 C103 1.403 1_445 S
H101 C107 0.930 . S
C102 H88 0.930 . S
C102 C100 1.395 . S
C102 C105 1.403 . S
C103 C100 1.403 1_665 S
C103 C104 1.524 . S
C103 C107 1.400 . S
C104 H89 0.960 . S
C104 H90 0.963 . S
C104 H91 0.960 . S
C104 C103 1.524 . S
C105 C102 1.403 . S
C105 C106 1.392 . S
C105 C109 1.495 . S
C106 C105 1.392 . S
C106 C107 1.385 1_445 S
C106 C108 1.478 . S
C107 H101 0.930 . S
C107 C103 1.400 . S
C107 C106 1.385 1_665 S
C108 C106 1.478 . S
C108 C110 1.381 . S
C108 C114 1.383 1_445 S
C109 C105 1.495 . S
C109 H115 0.959 . S
C109 H116 0.961 . S
C109 H117 0.960 . S
C110 C108 1.381 . S
C110 C111 1.394 . S
C110 H118 0.930 . S
C111 C110 1.394 . S
C111 C112 1.383 . S
C111 H119 0.929 . S
C112 C111 1.383 . S
C112 C113 1.377 1_445 S
C113 H97 0.930 . S
C113 C112 1.377 1_665 S
C113 C114 1.379 . S
C114 H98 0.931 . S
C114 C108 1.383 1_665 S
C114 C113 1.379 . S
H115 C109 0.959 . S
H116 C109 0.961 . S
H117 C109 0.960 . S
H118 C110 0.930 . S
H119 C111 0.929 . S
H120 C128 0.929 . S
H121 C130 0.930 . S
H122 C132 0.930 . S
H123 C135 0.929 . S
H124 C138 0.930 . S
H125 C140 0.960 . S
H126 C140 0.960 1_556 S
H127 C140 0.960 . S
C128 H120 0.929 . S
C128 C129 1.390 . S
C128 C130 1.384 . S
C129 C128 1.390 . S
C129 C135 1.385 1_566 S
C130 H121 0.930 . S
C130 C128 1.384 . S
C130 C131 1.372 . S
C131 C130 1.372 . S
C131 C132 1.400 1_566 S
C131 C136 1.491 1_565 S
C132 H122 0.930 . S
C132 C131 1.400 1_544 S
C132 C135 1.386 . S
H133 C149 0.930 . S
H134 C150 0.931 . S
C135 H123 0.929 . S
C135 C129 1.385 1_544 S
C135 C132 1.386 . S
C136 C131 1.491 1_545 S
C136 C138 1.396 . S
C136 C139 1.400 1_546 S
H137 C143 0.930 . S
C138 H124 0.930 . S
C138 C136 1.396 . S
C138 C141 1.403 . S
C139 C136 1.400 1_564 S
C139 C140 1.524 . S
C139 C143 1.400 . S
C140 H125 0.960 . S
C140 H126 0.960 1_554 S
C140 H127 0.960 . S
C140 C139 1.524 . S
C141 C138 1.403 . S
C141 C142 1.392 . S
C141 C145 1.495 . S
C142 C141 1.392 . S
C142 C143 1.385 1_546 S
C142 C144 1.478 . S
C143 H137 0.930 . S
C143 C139 1.400 . S
C143 C142 1.385 1_564 S
C144 C142 1.478 . S
C144 C146 1.381 1_545 S
C144 C150 1.383 1_556 S
C145 C141 1.495 . S
C145 H151 0.959 . S
C145 H152 0.961 . S
C145 H153 0.960 . S
C146 C144 1.381 1_565 S
C146 C147 1.394 . S
C146 H154 0.930 . S
C147 C146 1.394 . S
C147 C148 1.383 1_565 S
C147 H155 0.929 . S
C148 C147 1.383 1_545 S
C148 C149 1.377 1_556 S
C149 H133 0.930 . S
C149 C148 1.377 1_554 S
C149 C150 1.379 . S
C150 H134 0.931 . S
C150 C144 1.383 1_554 S
C150 C149 1.379 . S
H151 C145 0.959 . S
H152 C145 0.961 . S
H153 C145 0.960 . S
H154 C146 0.930 . S
H155 C147 0.929 . S
H156 C164 0.929 . S
H157 C166 0.930 . S
H158 C168 0.930 . S
H159 C171 0.929 . S
H160 C174 0.930 . S
H161 C176 0.960 . S
H162 C176 0.960 1_655 S
H163 C176 0.960 . S
C164 H156 0.929 . S
C164 C165 1.385 1_556 S
C164 C166 1.384 . S
C165 C164 1.385 1_554 S
C165 C171 1.380 1_655 S
C166 H157 0.930 . S
C166 C164 1.384 . S
C166 C167 1.372 . S
C167 C166 1.372 . S
C167 C168 1.400 1_656 S
C167 C172 1.490 . S
C168 H158 0.930 . S
C168 C167 1.400 1_454 S
C168 C171 1.386 . S
H169 C185 0.930 . S
H170 C186 0.931 . S
C171 H159 0.929 . S
C171 C165 1.380 1_455 S
C171 C168 1.386 . S
C172 C167 1.490 . S
C172 C174 1.395 . S
C172 C175 1.403 1_656 S
H173 C179 0.930 . S
C174 H160 0.930 . S
C174 C172 1.395 . S
C174 C177 1.403 . S
C175 C172 1.403 1_454 S
C175 C176 1.524 . S
C175 C179 1.400 . S
C176 H161 0.960 . S
C176 H162 0.960 1_455 S
C176 H163 0.960 . S
C176 C175 1.524 . S
C177 C174 1.403 . S
C177 C178 1.392 . S
C177 C181 1.495 . S
C178 C177 1.392 . S
C178 C179 1.385 1_656 S
C178 C180 1.478 . S
C179 H173 0.930 . S
C179 C175 1.400 . S
C179 C178 1.385 1_454 S
C180 C178 1.478 . S
C180 C182 1.381 . S
C180 C186 1.383 1_656 S
C181 C177 1.495 . S
C181 H187 0.959 . S
C181 H188 0.961 1_655 S
C181 H189 0.960 . S
C182 C180 1.381 . S
C182 C183 1.394 . S
C182 H190 0.930 . S
C183 C182 1.394 . S
C183 C184 1.392 . S
C183 H191 0.929 . S
C184 C183 1.392 . S
C184 C185 1.372 1_656 S
C185 H169 0.930 . S
C185 C184 1.372 1_454 S
C185 C186 1.379 . S
C186 H170 0.931 . S
C186 C180 1.383 1_454 S
C186 C185 1.379 . S
H187 C181 0.959 . S
H188 C181 0.961 1_455 S
H189 C181 0.960 . S
H190 C182 0.930 . S
H191 C183 0.929 . S
C93 C68 1.480 1_465 S
C112 C56 1.491 1_545 S
C129 C55 1.488 1_556 S
C148 C67 1.490 . S
C165 C58 1.358 1_554 S
C184 C70 1.392 1_656 S
