# Generated by pormake.
# Topology bcu, (8)-cn, num edge types: 1
# Building blocks:
#     Node 0, Type 0, BuildingBlock: TAGTUT_clean_sbu_3, # of connection points: 8
#     Node 1, Type 0, BuildingBlock: TAGTUT_clean_sbu_3, # of connection points: 8
#     Edge 2, Type (0, 0), BuildingBlock: UKIBIB_clean_linker_0, # of connection points: 2
#     Edge 3, Type (0, 0), BuildingBlock: UKIBIB_clean_linker_0, # of connection points: 2
#     Edge 4, Type (0, 0), BuildingBlock: UKIBIB_clean_linker_0, # of connection points: 2
#     Edge 5, Type (0, 0), BuildingBlock: UKIBIB_clean_linker_0, # of connection points: 2
#     Edge 6, Type (0, 0), BuildingBlock: UKIBIB_clean_linker_0, # of connection points: 2
#     Edge 7, Type (0, 0), BuildingBlock: UKIBIB_clean_linker_0, # of connection points: 2
#     Edge 8, Type (0, 0), BuildingBlock: UKIBIB_clean_linker_0, # of connection points: 2
#     Edge 9, Type (0, 0), BuildingBlock: UKIBIB_clean_linker_0, # of connection points: 2
# Relax obj value: 0.017
# Max RMSD: 0.070
# Mean RMSD: 0.070
data_MOF--net-bcu--node1-TAGTUT_clean_sbu_3--edge1-UKIBIB_clean_linker_0
_symmetry_space_group_name_H-M    P1
_symmetry_Int_Tables_number       1
_symmetry_cell_setting            triclinic
loop_
_symmetry_equiv_pos_as_xyz
'x, y, z'
_cell_length_a     26.604409
_cell_length_b     26.237657
_cell_length_c     27.636414
_cell_angle_alpha  90.990892
_cell_angle_beta   88.853354
_cell_angle_gamma 103.81441
loop_
_atom_site_label
_atom_site_type_symbol
_atom_site_fract_x
_atom_site_fract_y
_atom_site_fract_z
_atom_type_partial_charge
C0 C 0.05746 0.05575 0.05284 0.0
C1 C 0.10592 0.87604 0.05513 0.0
C2 C 0.06617 0.86256 0.90467 0.0
Mg3 Mg 0.96751 0.09251 -0.00824 0.0
Mg4 Mg 0.86103 0.00352 0.97384 0.0
O5 O 0.93236 0.02349 0.9625 0.0
Mg6 Mg 0.97506 0.9761 -0.01477 0.0
O7 O 0.02211 0.93309 0.00794 0.0
Mg8 Mg 0.09039 0.96978 0.97915 0.0
Mg9 Mg 0.00391 0.86057 -0.00151 0.0
C10 C 0.88217 0.90274 0.92173 0.0
O11 O 0.91423 0.93109 0.03976 0.0
O12 O 0.91669 0.12669 0.93768 0.0
O13 O 0.926 0.84924 0.02681 0.0
O14 O 0.90498 0.09237 0.05145 0.0
O15 O 0.84447 0.06166 0.92842 0.0
O16 O 0.83836 0.0229 0.04564 0.0
O17 O 0.04091 0.01295 0.93251 0.0
O18 O 0.02976 0.09461 0.9336 0.0
C19 C 0.05353 0.06041 0.91837 0.0
C20 C 0.87203 0.10747 0.91878 0.0
O21 O 0.93133 0.91522 0.92925 0.0
O22 O 0.12553 0.91911 0.03262 0.0
O23 O 0.85016 0.92612 0.94261 0.0
O24 O 0.09106 0.90753 0.91985 0.0
O25 O 0.06018 0.84822 0.04758 0.0
O26 O 0.02555 0.83739 0.92692 0.0
O27 O 0.01065 0.04272 0.0387 0.0
O28 O 0.09135 0.03194 0.03745 0.0
C29 C 0.86176 0.06488 0.06728 0.0
C30 C 0.90086 0.88102 0.04574 0.0
C31 C 0.55917 0.5538 0.55167 0.0
C32 C 0.60473 0.37546 0.55352 0.0
C33 C 0.56158 0.3584 0.40408 0.0
Mg34 Mg 0.4666 0.59134 0.49311 0.0
Mg35 Mg 0.35998 0.5017 0.47285 0.0
O36 O 0.43188 0.52329 0.46239 0.0
Mg37 Mg 0.47548 0.47675 0.48421 0.0
O38 O 0.52181 0.433 0.50575 0.0
Mg39 Mg 0.58941 0.46812 0.47518 0.0
Mg40 Mg 0.50128 0.36001 0.49963 0.0
C41 C 0.38371 0.40118 0.42124 0.0
O42 O 0.41553 0.4334 0.53952 0.0
O43 O 0.41585 0.62592 0.4394 0.0
O44 O 0.42394 0.34985 0.53072 0.0
O45 O 0.40396 0.58911 0.55181 0.0
O46 O 0.34403 0.56076 0.42814 0.0
O47 O 0.33652 0.52081 0.54523 0.0
O48 O 0.54101 0.51401 0.42977 0.0
O49 O 0.52865 0.59496 0.4367 0.0
C50 C 0.55341 0.56276 0.41895 0.0
C51 C 0.37162 0.60689 0.41967 0.0
O52 O 0.43254 0.41589 0.42917 0.0
O53 O 0.62461 0.41709 0.52895 0.0
O54 O 0.35019 0.42437 0.43959 0.0
O55 O 0.5874 0.40417 0.41628 0.0
O56 O 0.55822 0.34865 0.54808 0.0
O57 O 0.52283 0.33378 0.42917 0.0
O58 O 0.51158 0.54225 0.53926 0.0
O59 O 0.59167 0.52999 0.53306 0.0
C60 C 0.36016 0.56263 0.56723 0.0
C61 C 0.40083 0.38405 0.54807 0.0
C62 C 0.08225 0.07268 0.13771 0.0
C63 C 0.07257 0.09273 0.09301 0.0
C64 C 0.11259 0.10529 0.17178 0.0
C65 C 0.35817 0.38348 0.33668 0.0
C66 C 0.3657 0.36369 0.38209 0.0
C67 C 0.33021 0.35049 0.30149 0.0
H68 H 0.08446 0.16218 0.04914 0.0
H69 H 0.13723 0.22004 0.10968 0.0
H70 H 0.35273 0.29445 0.42635 0.0
H71 H 0.3038 0.23584 0.36387 0.0
C72 C 0.09055 0.14645 0.08395 0.0
C73 C 0.121 0.17918 0.11816 0.0
C74 C 0.34769 0.31001 0.3912 0.0
C75 C 0.31976 0.27684 0.35577 0.0
C76 C 0.13367 0.15811 0.16126 0.0
C77 C 0.17237 0.18885 0.19228 0.0
C78 C 0.20463 0.21334 0.21913 0.0
C79 C 0.30951 0.29749 0.31156 0.0
C80 C 0.27304 0.26624 0.27889 0.0
C81 C 0.24265 0.24122 0.2507 0.0
H82 H 0.0696 0.03101 0.14473 0.0
H83 H 0.1222 0.08854 0.20494 0.0
H84 H 0.37134 0.42507 0.32949 0.0
H85 H 0.32239 0.36695 0.26754 0.0
C86 C 0.79665 0.11631 0.08425 0.0
C87 C 0.83247 0.09005 0.10217 0.0
C88 C 0.77142 0.14494 0.11541 0.0
C89 C 0.61896 0.29866 0.38716 0.0
C90 C 0.58646 0.32872 0.3692 0.0
C91 C 0.64787 0.27427 0.35557 0.0
H92 H 0.87107 0.07367 0.16617 0.0
H93 H 0.82533 0.12301 0.22157 0.0
H94 H 0.5593 0.35814 0.30454 0.0
H95 H 0.60923 0.31371 0.24853 0.0
C96 C 0.84292 0.09295 0.15184 0.0
C97 C 0.81712 0.12129 0.18326 0.0
C98 C 0.58336 0.33425 0.31901 0.0
C99 C 0.61207 0.30928 0.28721 0.0
C100 C 0.7814 0.14758 0.16505 0.0
C101 C 0.75452 0.1771 0.19675 0.0
C102 C 0.7307 0.20242 0.22109 0.0
C103 C 0.64462 0.27937 0.30547 0.0
C104 C 0.67471 0.25353 0.27342 0.0
C105 C 0.70091 0.23088 0.24887 0.0
H106 H 0.78904 0.11559 0.04582 0.0
H107 H 0.74431 0.16529 0.10065 0.0
H108 H 0.62292 0.29509 0.42584 0.0
H109 H 0.67308 0.25173 0.37034 0.0
C110 C 0.8373 0.8035 0.07707 0.0
C111 C 0.85867 0.85787 0.0798 0.0
C112 C 0.80562 0.77807 0.11404 0.0
C113 C 0.61916 0.63891 0.38954 0.0
C114 C 0.59599 0.58498 0.38506 0.0
C115 C 0.65116 0.66502 0.35318 0.0
H116 H 0.86157 0.92877 0.12245 0.0
H117 H 0.80436 0.88334 0.18771 0.0
H118 H 0.59059 0.5153 0.34024 0.0
H119 H 0.6488 0.56194 0.27579 0.0
C120 C 0.84516 0.88691 0.11921 0.0
C121 C 0.81302 0.86108 0.15656 0.0
C122 C 0.60834 0.55676 0.34464 0.0
C123 C 0.64102 0.58332 0.30785 0.0
C124 C 0.79426 0.80639 0.15423 0.0
C125 C 0.76527 0.77721 0.19307 0.0
C126 C 0.74124 0.74415 0.2197 0.0
C127 C 0.66125 0.63779 0.31185 0.0
C128 C 0.69009 0.66808 0.27352 0.0
C129 C 0.71422 0.70171 0.24749 0.0
H130 H 0.84687 0.78001 0.04722 0.0
H131 H 0.7913 0.73579 0.11192 0.0
H132 H 0.6106 0.66172 0.42035 0.0
H133 H 0.66658 0.70707 0.35666 0.0
C134 C 0.18813 0.85846 0.08509 0.0
C135 C 0.13558 0.85731 0.09236 0.0
C136 C 0.21369 0.83395 0.11798 0.0
C137 C 0.29876 0.63957 0.38866 0.0
C138 C 0.35095 0.63763 0.38465 0.0
C139 C 0.27637 0.66332 0.35292 0.0
H140 H 0.06915 0.83286 0.14072 0.0
H141 H 0.1145 0.79103 0.19874 0.0
H142 H 0.42015 0.65616 0.33938 0.0
H143 H 0.38043 0.6981 0.2761 0.0
C144 C 0.10964 0.83369 0.13413 0.0
C145 C 0.13535 0.80983 0.1672 0.0
C146 C 0.38035 0.659 0.34391 0.0
C147 C 0.35761 0.68222 0.30768 0.0
C148 C 0.1871 0.80891 0.1586 0.0
C149 C 0.21245 0.78078 0.19049 0.0
C150 C 0.23423 0.75738 0.21686 0.0
C151 C 0.30565 0.68465 0.31237 0.0
C152 C 0.2823 0.71023 0.27661 0.0
C153 C 0.26031 0.73105 0.24813 0.0
H154 H 0.20866 0.87612 0.05301 0.0
H155 H 0.2538 0.83344 0.1111 0.0
H156 H 0.27521 0.62235 0.41939 0.0
H157 H 0.23613 0.66485 0.35688 0.0
C158 C 0.06588 0.78608 0.84799 0.0
C159 C 0.09017 0.83652 0.86531 0.0
C160 C 0.09244 0.75874 0.81649 0.0
C161 C 0.35861 0.63518 0.62721 0.0
C162 C 0.33354 0.58652 0.60627 0.0
C163 C 0.33151 0.6628 0.65764 0.0
H164 H 0.16119 0.89819 0.86158 0.0
H165 H 0.20698 0.85016 0.8069 0.0
H166 H 0.26045 0.52833 0.60261 0.0
H167 H 0.21342 0.57663 0.65667 0.0
C168 C 0.14093 0.85962 0.84885 0.0
C169 C 0.16741 0.83215 0.81769 0.0
C170 C 0.28114 0.56531 0.6183 0.0
C171 C 0.25411 0.59304 0.64893 0.0
C172 C 0.14364 0.78128 0.80201 0.0
C173 C 0.1726 0.75158 0.77285 0.0
C174 C 0.19714 0.72708 0.74848 0.0
C175 C 0.27894 0.64228 0.66799 0.0
C176 C 0.25015 0.67256 0.69668 0.0
C177 C 0.22597 0.69778 0.72065 0.0
H178 H 0.02702 0.76705 0.85993 0.0
H179 H 0.07347 0.71944 0.80451 0.0
H180 H 0.39881 0.65306 0.61868 0.0
H181 H 0.35135 0.7008 0.67206 0.0
C182 C 0.31202 0.33829 0.57405 0.0
C183 C 0.36205 0.36618 0.58597 0.0
C184 C 0.2792 0.31064 0.60979 0.0
C185 C 0.14289 0.10186 0.89192 0.0
C186 C 0.09214 0.07625 0.87995 0.0
C187 C 0.17553 0.13161 0.85725 0.0
H188 H 0.41728 0.38892 0.64354 0.0
H189 H 0.35974 0.33991 0.7062 0.0
H190 H 0.03568 0.05917 0.82296 0.0
H191 H 0.09326 0.11101 0.76187 0.0
C192 C 0.37826 0.36834 0.63412 0.0
C193 C 0.34568 0.3403 0.6697 0.0
C194 C 0.07523 0.07783 0.83236 0.0
C195 C 0.1078 0.10766 0.79775 0.0
C196 C 0.2967 0.31015 0.65723 0.0
C197 C 0.26687 0.27428 0.69148 0.0
C198 C 0.24125 0.24393 0.71961 0.0
C199 C 0.15729 0.13614 0.8107 0.0
C200 C 0.18706 0.17414 0.77815 0.0
C201 C 0.21222 0.20605 0.75104 0.0
H202 H 0.29941 0.33575 0.53687 0.0
H203 H 0.24136 0.28735 0.59984 0.0
H204 H 0.15597 0.10187 0.92881 0.0
H205 H 0.21375 0.15359 0.8676 0.0
C206 C 0.88075 0.1617 0.84415 0.0
C207 C 0.85073 0.1376 0.88354 0.0
C208 C 0.85795 0.18509 0.80805 0.0
C209 C 0.60901 0.33264 0.63229 0.0
C210 C 0.63488 0.35725 0.59084 0.0
C211 C 0.63512 0.3093 0.66542 0.0
H212 H 0.77375 0.11772 0.9159 0.0
H213 H 0.7345 0.16033 0.85365 0.0
H214 H 0.70849 0.37867 0.55252 0.0
H215 H 0.75438 0.33702 0.61085 0.0
C216 C 0.79778 0.13691 0.88622 0.0
C217 C 0.77529 0.1608 0.85062 0.0
C218 C 0.68787 0.36011 0.58421 0.0
C219 C 0.71389 0.3362 0.61726 0.0
C220 C 0.80526 0.185 0.81152 0.0
C221 C 0.78189 0.21106 0.77607 0.0
C222 C 0.76026 0.23226 0.74753 0.0
C223 C 0.68731 0.30998 0.65739 0.0
C224 C 0.71301 0.28212 0.6893 0.0
C225 C 0.73464 0.25882 0.71597 0.0
H226 H 0.92122 0.16105 0.84057 0.0
H227 H 0.88135 0.20321 0.77758 0.0
H228 H 0.56823 0.33057 0.6386 0.0
H229 H 0.61421 0.28962 0.69656 0.0
C230 C 0.60961 0.56876 0.62629 0.0
C231 C 0.57687 0.58644 0.59461 0.0
C232 C 0.63778 0.60251 0.66056 0.0
C233 C 0.82469 0.8833 0.85193 0.0
C234 C 0.86109 0.86792 0.88106 0.0
C235 C 0.79894 0.85 0.81619 0.0
H236 H 0.54405 0.65152 0.57662 0.0
H237 H 0.59402 0.71157 0.63798 0.0
H238 H 0.90236 0.80758 0.89327 0.0
H239 H 0.85567 0.74771 0.82989 0.0
C240 C 0.56914 0.63724 0.60066 0.0
C241 C 0.59777 0.6714 0.63532 0.0
C242 C 0.87396 0.81981 0.87159 0.0
C243 C 0.8475 0.7859 0.83558 0.0
C244 C 0.6336 0.65443 0.66388 0.0
C245 C 0.67017 0.69028 0.69328 0.0
C246 C 0.7035 0.71465 0.7192 0.0
C247 C 0.80894 0.80065 0.80888 0.0
C248 C 0.77564 0.76469 0.77694 0.0
C249 C 0.74385 0.74067 0.7494 0.0
H250 H 0.61572 0.52945 0.62271 0.0
H251 H 0.66498 0.58876 0.68265 0.0
H252 H 0.81511 0.92089 0.85761 0.0
H253 H 0.76968 0.86211 0.79549 0.0
loop_
_geom_bond_atom_site_label_1
_geom_bond_atom_site_label_2
_geom_bond_distance
_geom_bond_site_symmetry_2
_ccdc_geom_bond_type
C0 O27 1.312 . S
C0 O28 1.208 . S
C1 O22 1.331 . S
C1 O25 1.244 . S
C2 O24 1.264 . S
C2 O26 1.273 . S
Mg3 O5 1.936 . S
Mg3 O12 2.081 . S
Mg3 O14 2.023 1_556 S
Mg3 O18 2.031 1_655 S
Mg3 O27 2.291 1_656 S
Mg4 O5 1.963 . S
Mg4 O15 1.942 . S
Mg4 O16 1.955 1_556 S
Mg4 O23 1.986 1_545 S
O5 Mg3 1.936 . S
O5 Mg4 1.963 . S
O5 Mg6 1.915 1_546 S
Mg6 O5 1.915 1_564 S
Mg6 O7 1.915 1_655 S
Mg6 O11 2.013 . S
Mg6 O17 2.114 1_664 S
Mg6 O21 2.013 1_554 S
Mg6 O27 2.114 1_665 S
O7 Mg6 1.915 1_455 S
O7 Mg8 1.936 . S
O7 Mg9 1.963 . S
Mg8 O7 1.936 . S
Mg8 O17 2.291 1_564 S
Mg8 O22 2.081 . S
Mg8 O24 2.023 1_554 S
Mg8 O28 2.031 1_565 S
Mg9 O7 1.963 . S
Mg9 O13 1.986 1_455 S
Mg9 O25 1.942 . S
Mg9 O26 1.955 1_554 S
C10 O21 1.191 . S
C10 O23 1.307 . S
O11 Mg6 2.013 . S
O11 C30 1.191 . S
O12 Mg3 2.081 . S
O12 C20 1.331 . S
O13 Mg9 1.986 1_655 S
O13 C30 1.307 . S
O14 Mg3 2.023 1_554 S
O14 C29 1.264 . S
O15 Mg4 1.942 . S
O15 C20 1.244 . S
O16 Mg4 1.955 1_554 S
O16 C29 1.273 . S
O17 Mg6 2.114 1_446 S
O17 Mg8 2.291 1_546 S
O17 C19 1.312 . S
O18 Mg3 2.031 1_455 S
O18 C19 1.208 . S
C19 O17 1.312 . S
C19 O18 1.208 . S
C20 O12 1.331 . S
C20 O15 1.244 . S
O21 Mg6 2.013 1_556 S
O21 C10 1.191 . S
O22 C1 1.331 . S
O22 Mg8 2.081 . S
O23 Mg4 1.986 1_565 S
O23 C10 1.307 . S
O24 C2 1.264 . S
O24 Mg8 2.023 1_556 S
O25 C1 1.244 . S
O25 Mg9 1.942 . S
O26 C2 1.273 . S
O26 Mg9 1.955 1_556 S
O27 C0 1.312 . S
O27 Mg3 2.291 1_454 S
O27 Mg6 2.114 1_445 S
O28 C0 1.208 . S
O28 Mg8 2.031 1_545 S
C29 O14 1.264 . S
C29 O16 1.273 . S
C30 O11 1.191 . S
C30 O13 1.307 . S
C31 O58 1.312 . S
C31 O59 1.208 . S
C32 O53 1.331 . S
C32 O56 1.244 . S
C33 O55 1.264 . S
C33 O57 1.273 . S
Mg34 O36 1.936 . S
Mg34 O43 2.081 . S
Mg34 O45 2.023 . S
Mg34 O49 2.031 . S
Mg34 O58 2.291 . S
Mg35 O36 1.963 . S
Mg35 O46 1.942 . S
Mg35 O47 1.955 . S
Mg35 O54 1.986 . S
O36 Mg34 1.936 . S
O36 Mg35 1.963 . S
O36 Mg37 1.915 . S
Mg37 O36 1.915 . S
Mg37 O38 1.915 . S
Mg37 O42 2.013 . S
Mg37 O48 2.114 . S
Mg37 O52 2.013 . S
Mg37 O58 2.114 . S
O38 Mg37 1.915 . S
O38 Mg39 1.936 . S
O38 Mg40 1.963 . S
Mg39 O38 1.936 . S
Mg39 O48 2.291 . S
Mg39 O53 2.081 . S
Mg39 O55 2.023 . S
Mg39 O59 2.031 . S
Mg40 O38 1.963 . S
Mg40 O44 1.986 . S
Mg40 O56 1.942 . S
Mg40 O57 1.955 . S
C41 O52 1.191 . S
C41 O54 1.307 . S
O42 Mg37 2.013 . S
O42 C61 1.191 . S
O43 Mg34 2.081 . S
O43 C51 1.331 . S
O44 Mg40 1.986 . S
O44 C61 1.307 . S
O45 Mg34 2.023 . S
O45 C60 1.264 . S
O46 Mg35 1.942 . S
O46 C51 1.244 . S
O47 Mg35 1.955 . S
O47 C60 1.273 . S
O48 Mg37 2.114 . S
O48 Mg39 2.291 . S
O48 C50 1.312 . S
O49 Mg34 2.031 . S
O49 C50 1.208 . S
C50 O48 1.312 . S
C50 O49 1.208 . S
C51 O43 1.331 . S
C51 O46 1.244 . S
O52 Mg37 2.013 . S
O52 C41 1.191 . S
O53 C32 1.331 . S
O53 Mg39 2.081 . S
O54 Mg35 1.986 . S
O54 C41 1.307 . S
O55 C33 1.264 . S
O55 Mg39 2.023 . S
O56 C32 1.244 . S
O56 Mg40 1.942 . S
O57 C33 1.273 . S
O57 Mg40 1.955 . S
O58 C31 1.312 . S
O58 Mg34 2.291 . S
O58 Mg37 2.114 . S
O59 C31 1.208 . S
O59 Mg39 2.031 . S
C60 O45 1.264 . S
C60 O47 1.273 . S
C61 O42 1.191 . S
C61 O44 1.307 . S
C62 C63 1.332 . S
C62 C64 1.345 . S
C62 H82 0.932 . S
C63 C62 1.332 . S
C63 C72 1.332 . S
C64 C62 1.345 . S
C64 C76 1.334 . S
C64 H83 0.928 . S
C65 C66 1.332 . S
C65 C67 1.345 . S
C65 H84 0.932 . S
C66 C65 1.332 . S
C66 C74 1.332 . S
C67 C65 1.345 . S
C67 C79 1.334 . S
C67 H85 0.928 . S
H68 C72 0.932 . S
H69 C73 0.928 . S
H70 C74 0.932 . S
H71 C75 0.928 . S
C72 C63 1.332 . S
C72 H68 0.932 . S
C72 C73 1.345 . S
C73 H69 0.928 . S
C73 C72 1.345 . S
C73 C76 1.334 . S
C74 C66 1.332 . S
C74 H70 0.932 . S
C74 C75 1.345 . S
C75 H71 0.928 . S
C75 C74 1.345 . S
C75 C79 1.334 . S
C76 C64 1.334 . S
C76 C73 1.334 . S
C76 C77 1.487 . S
C77 C76 1.487 . S
C77 C78 1.185 . S
C78 C77 1.185 . S
C78 C81 1.482 . S
C79 C67 1.334 . S
C79 C75 1.334 . S
C79 C80 1.487 . S
C80 C79 1.487 . S
C80 C81 1.185 . S
C81 C78 1.482 . S
C81 C80 1.185 . S
H82 C62 0.932 . S
H83 C64 0.928 . S
H84 C65 0.932 . S
H85 C67 0.928 . S
C86 C87 1.332 . S
C86 C88 1.345 . S
C86 H106 0.932 . S
C87 C86 1.332 . S
C87 C96 1.332 . S
C88 C86 1.345 . S
C88 C100 1.334 . S
C88 H107 0.928 . S
C89 C90 1.332 . S
C89 C91 1.345 . S
C89 H108 0.932 . S
C90 C89 1.332 . S
C90 C98 1.332 . S
C91 C89 1.345 . S
C91 C103 1.334 . S
C91 H109 0.928 . S
H92 C96 0.932 . S
H93 C97 0.928 . S
H94 C98 0.932 . S
H95 C99 0.928 . S
C96 C87 1.332 . S
C96 H92 0.932 . S
C96 C97 1.345 . S
C97 H93 0.928 . S
C97 C96 1.345 . S
C97 C100 1.334 . S
C98 C90 1.332 . S
C98 H94 0.932 . S
C98 C99 1.345 . S
C99 H95 0.928 . S
C99 C98 1.345 . S
C99 C103 1.334 . S
C100 C88 1.334 . S
C100 C97 1.334 . S
C100 C101 1.487 . S
C101 C100 1.487 . S
C101 C102 1.185 . S
C102 C101 1.185 . S
C102 C105 1.482 . S
C103 C91 1.334 . S
C103 C99 1.334 . S
C103 C104 1.487 . S
C104 C103 1.487 . S
C104 C105 1.185 . S
C105 C102 1.482 . S
C105 C104 1.185 . S
H106 C86 0.932 . S
H107 C88 0.928 . S
H108 C89 0.932 . S
H109 C91 0.928 . S
C110 C111 1.332 . S
C110 C112 1.345 . S
C110 H130 0.932 . S
C111 C110 1.332 . S
C111 C120 1.332 . S
C112 C110 1.345 . S
C112 C124 1.334 . S
C112 H131 0.928 . S
C113 C114 1.332 . S
C113 C115 1.345 . S
C113 H132 0.932 . S
C114 C113 1.332 . S
C114 C122 1.332 . S
C115 C113 1.345 . S
C115 C127 1.334 . S
C115 H133 0.928 . S
H116 C120 0.932 . S
H117 C121 0.928 . S
H118 C122 0.932 . S
H119 C123 0.928 . S
C120 C111 1.332 . S
C120 H116 0.932 . S
C120 C121 1.345 . S
C121 H117 0.928 . S
C121 C120 1.345 . S
C121 C124 1.334 . S
C122 C114 1.332 . S
C122 H118 0.932 . S
C122 C123 1.345 . S
C123 H119 0.928 . S
C123 C122 1.345 . S
C123 C127 1.334 . S
C124 C112 1.334 . S
C124 C121 1.334 . S
C124 C125 1.487 . S
C125 C124 1.487 . S
C125 C126 1.185 . S
C126 C125 1.185 . S
C126 C129 1.482 . S
C127 C115 1.334 . S
C127 C123 1.334 . S
C127 C128 1.487 . S
C128 C127 1.487 . S
C128 C129 1.185 . S
C129 C126 1.482 . S
C129 C128 1.185 . S
H130 C110 0.932 . S
H131 C112 0.928 . S
H132 C113 0.932 . S
H133 C115 0.928 . S
C134 C135 1.332 . S
C134 C136 1.345 . S
C134 H154 0.932 . S
C135 C134 1.332 . S
C135 C144 1.332 . S
C136 C134 1.345 . S
C136 C148 1.334 . S
C136 H155 0.928 . S
C137 C138 1.332 . S
C137 C139 1.345 . S
C137 H156 0.932 . S
C138 C137 1.332 . S
C138 C146 1.332 . S
C139 C137 1.345 . S
C139 C151 1.334 . S
C139 H157 0.928 . S
H140 C144 0.932 . S
H141 C145 0.928 . S
H142 C146 0.932 . S
H143 C147 0.928 . S
C144 C135 1.332 . S
C144 H140 0.932 . S
C144 C145 1.345 . S
C145 H141 0.928 . S
C145 C144 1.345 . S
C145 C148 1.334 . S
C146 C138 1.332 . S
C146 H142 0.932 . S
C146 C147 1.345 . S
C147 H143 0.928 . S
C147 C146 1.345 . S
C147 C151 1.334 . S
C148 C136 1.334 . S
C148 C145 1.334 . S
C148 C149 1.487 . S
C149 C148 1.487 . S
C149 C150 1.185 . S
C150 C149 1.185 . S
C150 C153 1.482 . S
C151 C139 1.334 . S
C151 C147 1.334 . S
C151 C152 1.487 . S
C152 C151 1.487 . S
C152 C153 1.185 . S
C153 C150 1.482 . S
C153 C152 1.185 . S
H154 C134 0.932 . S
H155 C136 0.928 . S
H156 C137 0.932 . S
H157 C139 0.928 . S
C158 C159 1.332 . S
C158 C160 1.345 . S
C158 H178 0.932 . S
C159 C158 1.332 . S
C159 C168 1.332 . S
C160 C158 1.345 . S
C160 C172 1.334 . S
C160 H179 0.928 . S
C161 C162 1.332 . S
C161 C163 1.345 . S
C161 H180 0.932 . S
C162 C161 1.332 . S
C162 C170 1.332 . S
C163 C161 1.345 . S
C163 C175 1.334 . S
C163 H181 0.928 . S
H164 C168 0.932 . S
H165 C169 0.928 . S
H166 C170 0.932 . S
H167 C171 0.928 . S
C168 C159 1.332 . S
C168 H164 0.932 . S
C168 C169 1.345 . S
C169 H165 0.928 . S
C169 C168 1.345 . S
C169 C172 1.334 . S
C170 C162 1.332 . S
C170 H166 0.932 . S
C170 C171 1.345 . S
C171 H167 0.928 . S
C171 C170 1.345 . S
C171 C175 1.334 . S
C172 C160 1.334 . S
C172 C169 1.334 . S
C172 C173 1.487 . S
C173 C172 1.487 . S
C173 C174 1.185 . S
C174 C173 1.185 . S
C174 C177 1.482 . S
C175 C163 1.334 . S
C175 C171 1.334 . S
C175 C176 1.487 . S
C176 C175 1.487 . S
C176 C177 1.185 . S
C177 C174 1.482 . S
C177 C176 1.185 . S
H178 C158 0.932 . S
H179 C160 0.928 . S
H180 C161 0.932 . S
H181 C163 0.928 . S
C182 C183 1.332 . S
C182 C184 1.345 . S
C182 H202 0.932 . S
C183 C182 1.332 . S
C183 C192 1.332 . S
C184 C182 1.345 . S
C184 C196 1.334 . S
C184 H203 0.928 . S
C185 C186 1.332 . S
C185 C187 1.345 . S
C185 H204 0.932 . S
C186 C185 1.332 . S
C186 C194 1.332 . S
C187 C185 1.345 . S
C187 C199 1.334 . S
C187 H205 0.928 . S
H188 C192 0.932 . S
H189 C193 0.928 . S
H190 C194 0.932 . S
H191 C195 0.928 . S
C192 C183 1.332 . S
C192 H188 0.932 . S
C192 C193 1.345 . S
C193 H189 0.928 . S
C193 C192 1.345 . S
C193 C196 1.334 . S
C194 C186 1.332 . S
C194 H190 0.932 . S
C194 C195 1.345 . S
C195 H191 0.928 . S
C195 C194 1.345 . S
C195 C199 1.334 . S
C196 C184 1.334 . S
C196 C193 1.334 . S
C196 C197 1.487 . S
C197 C196 1.487 . S
C197 C198 1.185 . S
C198 C197 1.185 . S
C198 C201 1.482 . S
C199 C187 1.334 . S
C199 C195 1.334 . S
C199 C200 1.487 . S
C200 C199 1.487 . S
C200 C201 1.185 . S
C201 C198 1.482 . S
C201 C200 1.185 . S
H202 C182 0.932 . S
H203 C184 0.928 . S
H204 C185 0.932 . S
H205 C187 0.928 . S
C206 C207 1.332 . S
C206 C208 1.345 . S
C206 H226 0.932 . S
C207 C206 1.332 . S
C207 C216 1.332 . S
C208 C206 1.345 . S
C208 C220 1.334 . S
C208 H227 0.928 . S
C209 C210 1.332 . S
C209 C211 1.345 . S
C209 H228 0.932 . S
C210 C209 1.332 . S
C210 C218 1.332 . S
C211 C209 1.345 . S
C211 C223 1.334 . S
C211 H229 0.928 . S
H212 C216 0.932 . S
H213 C217 0.928 . S
H214 C218 0.932 . S
H215 C219 0.928 . S
C216 C207 1.332 . S
C216 H212 0.932 . S
C216 C217 1.345 . S
C217 H213 0.928 . S
C217 C216 1.345 . S
C217 C220 1.334 . S
C218 C210 1.332 . S
C218 H214 0.932 . S
C218 C219 1.345 . S
C219 H215 0.928 . S
C219 C218 1.345 . S
C219 C223 1.334 . S
C220 C208 1.334 . S
C220 C217 1.334 . S
C220 C221 1.487 . S
C221 C220 1.487 . S
C221 C222 1.185 . S
C222 C221 1.185 . S
C222 C225 1.482 . S
C223 C211 1.334 . S
C223 C219 1.334 . S
C223 C224 1.487 . S
C224 C223 1.487 . S
C224 C225 1.185 . S
C225 C222 1.482 . S
C225 C224 1.185 . S
H226 C206 0.932 . S
H227 C208 0.928 . S
H228 C209 0.932 . S
H229 C211 0.928 . S
C230 C231 1.332 . S
C230 C232 1.345 . S
C230 H250 0.932 . S
C231 C230 1.332 . S
C231 C240 1.332 . S
C232 C230 1.345 . S
C232 C244 1.334 . S
C232 H251 0.928 . S
C233 C234 1.332 . S
C233 C235 1.345 . S
C233 H252 0.932 . S
C234 C233 1.332 . S
C234 C242 1.332 . S
C235 C233 1.345 . S
C235 C247 1.334 . S
C235 H253 0.928 . S
H236 C240 0.932 . S
H237 C241 0.928 . S
H238 C242 0.932 . S
H239 C243 0.928 . S
C240 C231 1.332 . S
C240 H236 0.932 . S
C240 C241 1.345 . S
C241 H237 0.928 . S
C241 C240 1.345 . S
C241 C244 1.334 . S
C242 C234 1.332 . S
C242 H238 0.932 . S
C242 C243 1.345 . S
C243 H239 0.928 . S
C243 C242 1.345 . S
C243 C247 1.334 . S
C244 C232 1.334 . S
C244 C241 1.334 . S
C244 C245 1.487 . S
C245 C244 1.487 . S
C245 C246 1.185 . S
C246 C245 1.185 . S
C246 C249 1.482 . S
C247 C235 1.334 . S
C247 C243 1.334 . S
C247 C248 1.487 . S
C248 C247 1.487 . S
C248 C249 1.185 . S
C249 C246 1.482 . S
C249 C248 1.185 . S
H250 C230 0.932 . S
H251 C232 0.928 . S
H252 C233 0.932 . S
H253 C235 0.928 . S
C63 C0 1.098 . S
C66 C41 1.109 . S
C87 C29 1.821 . S
C90 C33 1.819 . S
C111 C30 1.113 . S
C114 C50 1.097 . S
C135 C1 1.678 . S
C138 C51 1.676 . S
C159 C2 1.821 . S
C162 C60 1.822 . S
C183 C61 1.113 . S
C186 C19 1.098 . S
C207 C20 1.678 . S
C210 C32 1.680 . S
C231 C31 1.098 . S
C234 C10 1.117 . S
