# Generated by pormake.
# Topology pcu, (6)-cn, num edge types: 1
# Building blocks:
#     Node 0, Type 0, BuildingBlock: VOLQOD_clean_sbu_1, # of connection points: 6
#     Edge 1, Type (0, 0), BuildingBlock: EZIPEK_clean_linker_0, # of connection points: 2
#     Edge 2, Type (0, 0), BuildingBlock: EZIPEK_clean_linker_0, # of connection points: 2
#     Edge 3, Type (0, 0), BuildingBlock: EZIPEK_clean_linker_0, # of connection points: 2
# Relax obj value: 0.082
# Max RMSD: 0.143
# Mean RMSD: 0.143
data_MOF--net-pcu--node1-VOLQOD_clean_sbu_1--edge1-EZIPEK_clean_linker_0
_symmetry_space_group_name_H-M    P1
_symmetry_Int_Tables_number       1
_symmetry_cell_setting            triclinic
loop_
_symmetry_equiv_pos_as_xyz
'x, y, z'
_cell_length_a     13.204998
_cell_length_b     13.190003
_cell_length_c     13.200041
_cell_angle_alpha  91.109296
_cell_angle_beta   90.088053
_cell_angle_gamma 91.499509
loop_
_atom_site_label
_atom_site_type_symbol
_atom_site_fract_x
_atom_site_fract_y
_atom_site_fract_z
_atom_type_partial_charge
O0 O 0.04267 0.03559 0.22365 0.0
Zn1 Zn 0.06529 0.06499 0.07602 0.0
O2 O 0.97818 0.97726 0.98949 0.0
Zn3 Zn 0.06225 0.8916 0.90307 0.0
Zn4 Zn 0.89081 0.89173 0.07399 0.0
Zn5 Zn 0.89396 0.06071 0.90432 0.0
O6 O 0.04003 0.91916 0.75516 0.0
O7 O 0.91714 0.03122 0.75628 0.0
O8 O 0.21307 0.04344 0.0463 0.0
O9 O 0.21021 0.91654 0.9329 0.0
O10 O 0.03203 0.74357 0.92608 0.0
O11 O 0.91895 0.74386 0.05075 0.0
O12 O 0.74298 0.91324 0.04512 0.0
O13 O 0.03689 0.21273 0.05509 0.0
O14 O 0.74586 0.03688 0.933 0.0
O15 O 0.92465 0.20888 0.92923 0.0
C16 C -0.02099 -0.02101 0.26983 0.0
C17 C -0.0212 0.97511 0.7087 0.0
C18 C 0.97548 0.69671 0.98872 0.0
C19 C 0.25865 -0.01985 0.98963 0.0
C20 C 0.6974 0.97506 0.98908 0.0
C21 C -0.01914 0.25784 -0.00743 0.0
O22 O 0.91484 0.92243 0.22201 0.0
C23 C 0.97611 0.07064 0.43862 0.0
C24 C -0.01993 -0.02187 0.38217 0.0
C25 C 0.97156 0.88339 0.53991 0.0
C26 C -0.02004 0.97593 0.59638 0.0
N27 N 0.01427 0.15693 0.59788 0.0
N28 N 0.00557 0.79723 0.38077 0.0
C29 C -0.01092 0.06952 0.54535 0.0
C30 C -0.01539 0.88455 0.43322 0.0
N31 N 0.95563 0.1591 0.39132 0.0
N32 N 0.94687 0.79484 0.58718 0.0
H33 H 0.01987 0.79509 0.3031 0.0
H34 H 0.01954 0.72902 0.41613 0.0
H35 H 0.93281 0.79091 0.66473 0.0
H36 H 0.92989 0.72727 0.54781 0.0
H37 H 0.94193 0.22659 0.43068 0.0
H38 H 0.94163 0.163 0.31375 0.0
H39 H 0.03164 0.22517 0.56256 0.0
H40 H 0.02859 0.15913 0.67562 0.0
C41 C 0.42473 0.97377 0.0827 0.0
C42 C 0.37099 -0.0201 0.98984 0.0
C43 C 0.53074 0.96904 0.89663 0.0
C44 C 0.58508 0.97583 0.98952 0.0
N45 N 0.58308 0.00823 0.17044 0.0
N46 N 0.37557 0.00664 0.80923 0.0
C47 C 0.53196 -0.01518 0.08259 0.0
C48 C 0.42471 -0.01588 0.89687 0.0
N49 N 0.37421 0.95303 0.17052 0.0
N50 N 0.57929 0.94405 0.80859 0.0
H51 H 0.29863 0.02235 0.80648 0.0
H52 H 0.41332 0.02044 0.7414 0.0
H53 H 0.65621 0.92828 0.80542 0.0
H54 H 0.54108 0.92835 0.74072 0.0
H55 H 0.41115 0.93776 0.23815 0.0
H56 H 0.29603 0.94033 0.17372 0.0
H57 H 0.54661 0.02558 0.23831 0.0
H58 H 0.66129 0.02103 0.17349 0.0
C59 C 0.88476 0.52676 0.98462 0.0
C60 C 0.9769 0.58442 0.9907 0.0
C61 C 0.0722 0.42749 0.98777 0.0
C62 C -0.02005 0.37024 -0.00619 0.0
N63 N 0.79909 0.36781 0.02241 0.0
N64 N 0.15737 0.58887 0.02261 0.0
C65 C 0.88625 0.42051 -0.00077 0.0
C66 C 0.07053 0.53464 -0.00072 0.0
N67 N 0.79631 0.57236 0.96068 0.0
N68 N 0.16096 0.38047 0.96662 0.0
H69 H 0.15914 0.66709 0.03585 0.0
H70 H 0.2255 0.55476 0.03955 0.0
H71 H 0.16535 0.30248 0.9537 0.0
H72 H 0.22834 0.42013 0.95139 0.0
H73 H 0.72909 0.53174 0.94539 0.0
H74 H 0.79222 0.64944 0.94551 0.0
H75 H 0.73069 0.40293 0.03696 0.0
H76 H 0.79723 0.29058 0.03802 0.0
loop_
_geom_bond_atom_site_label_1
_geom_bond_atom_site_label_2
_geom_bond_distance
_geom_bond_site_symmetry_2
_ccdc_geom_bond_type
O0 Zn1 1.953 . S
O0 C16 1.225 . S
Zn1 O0 1.953 . S
Zn1 O2 1.949 1_454 S
Zn1 O8 1.919 . S
Zn1 O13 1.924 . S
O2 Zn1 1.949 1_656 S
O2 Zn3 1.923 1_645 S
O2 Zn4 1.950 1_546 S
O2 Zn5 1.945 . S
Zn3 O2 1.923 1_465 S
Zn3 O6 1.933 . S
Zn3 O9 1.941 . S
Zn3 O10 1.965 . S
Zn4 O2 1.950 1_564 S
Zn4 O11 1.938 . S
Zn4 O12 1.906 . S
Zn4 O22 1.953 . S
Zn5 O2 1.945 . S
Zn5 O7 1.932 . S
Zn5 O14 1.977 . S
Zn5 O15 1.910 . S
O6 Zn3 1.933 . S
O6 C17 1.231 . S
O7 Zn5 1.932 . S
O7 C17 1.302 1_645 S
O8 Zn1 1.919 . S
O8 C19 1.253 1_544 S
O9 Zn3 1.941 . S
O9 C19 1.283 . S
O10 Zn3 1.965 . S
O10 C18 1.303 1_456 S
O11 Zn4 1.938 . S
O11 C18 1.247 . S
O12 Zn4 1.906 . S
O12 C20 1.304 1_564 S
O13 Zn1 1.924 . S
O13 C21 1.311 . S
O14 Zn5 1.977 . S
O14 C20 1.272 . S
O15 Zn5 1.910 . S
O15 C21 1.231 1_656 S
C16 O0 1.225 . S
C16 O22 1.298 1_445 S
C17 O6 1.231 . S
C17 O7 1.302 1_465 S
C18 O10 1.303 1_654 S
C18 O11 1.247 . S
C19 O8 1.253 1_566 S
C19 O9 1.283 . S
C20 O12 1.304 1_546 S
C20 O14 1.272 . S
C21 O13 1.311 . S
C21 O15 1.231 1_454 S
O22 Zn4 1.953 . S
O22 C16 1.298 1_665 S
C23 C24 1.363 . S
C23 C29 1.379 . S
C23 N31 1.356 . S
C24 C23 1.363 . S
C24 C30 1.363 1_445 S
C25 C26 1.363 1_665 S
C25 C30 1.379 . S
C25 N32 1.356 . S
C26 C25 1.363 1_445 S
C26 C29 1.363 . S
N27 C29 1.356 . S
N27 H39 0.984 . S
N27 H40 0.985 . S
N28 C30 1.356 . S
N28 H33 0.984 . S
N28 H34 0.985 . S
C29 C23 1.379 . S
C29 C26 1.363 . S
C29 N27 1.356 . S
C30 C24 1.363 1_665 S
C30 C25 1.379 . S
C30 N28 1.356 . S
N31 C23 1.356 . S
N31 H37 0.984 . S
N31 H38 0.984 . S
N32 C25 1.356 . S
N32 H35 0.984 . S
N32 H36 0.985 . S
H33 N28 0.984 . S
H34 N28 0.985 . S
H35 N32 0.984 . S
H36 N32 0.985 . S
H37 N31 0.984 . S
H38 N31 0.984 . S
H39 N27 0.984 . S
H40 N27 0.985 . S
C41 C42 1.363 1_544 S
C41 C47 1.379 . S
C41 N49 1.356 . S
C42 C41 1.363 1_566 S
C42 C48 1.363 . S
C43 C44 1.363 . S
C43 C48 1.379 . S
C43 N50 1.356 . S
C44 C43 1.363 . S
C44 C47 1.363 1_566 S
N45 C47 1.356 . S
N45 H57 0.984 . S
N45 H58 0.985 . S
N46 C48 1.356 . S
N46 H51 0.984 . S
N46 H52 0.985 . S
C47 C41 1.379 . S
C47 C44 1.363 1_544 S
C47 N45 1.356 . S
C48 C42 1.363 . S
C48 C43 1.379 . S
C48 N46 1.356 . S
N49 C41 1.356 . S
N49 H55 0.984 . S
N49 H56 0.984 . S
N50 C43 1.356 . S
N50 H53 0.984 . S
N50 H54 0.985 . S
H51 N46 0.984 . S
H52 N46 0.985 . S
H53 N50 0.984 . S
H54 N50 0.985 . S
H55 N49 0.984 . S
H56 N49 0.984 . S
H57 N45 0.984 . S
H58 N45 0.985 . S
C59 C60 1.363 1_656 S
C59 C65 1.379 . S
C59 N67 1.356 . S
C60 C59 1.363 1_454 S
C60 C66 1.363 . S
C61 C62 1.363 . S
C61 C66 1.379 . S
C61 N68 1.356 . S
C62 C61 1.363 . S
C62 C65 1.363 1_454 S
N63 C65 1.356 . S
N63 H75 0.984 . S
N63 H76 0.985 . S
N64 C66 1.356 . S
N64 H69 0.984 . S
N64 H70 0.985 . S
C65 C59 1.379 . S
C65 C62 1.363 1_656 S
C65 N63 1.356 . S
C66 C60 1.363 . S
C66 C61 1.379 . S
C66 N64 1.356 . S
N67 C59 1.356 . S
N67 H73 0.984 . S
N67 H74 0.984 . S
N68 C61 1.356 . S
N68 H71 0.984 . S
N68 H72 0.985 . S
H69 N64 0.984 . S
H70 N64 0.985 . S
H71 N68 0.984 . S
H72 N68 0.985 . S
H73 N67 0.984 . S
H74 N67 0.984 . S
H75 N63 0.984 . S
H76 N63 0.985 . S
C24 C16 1.500 . S
C26 C17 1.499 1_545 S
C42 C19 1.457 . S
C44 C20 1.467 1_565 S
C60 C18 1.456 1_455 S
C62 C21 1.461 . S
