# Generated by pormake.
# Topology sxa, (6)-cn, num edge types: 1
# Building blocks:
#     Node 0, Type 0, BuildingBlock: UKALOJ_clean_sbu_0, # of connection points: 6
#     Node 1, Type 0, BuildingBlock: UKALOJ_clean_sbu_0, # of connection points: 6
#     Node 2, Type 0, BuildingBlock: UKALOJ_clean_sbu_0, # of connection points: 6
#     Node 3, Type 0, BuildingBlock: UKALOJ_clean_sbu_0, # of connection points: 6
#     Edge 4, Type (0, 0), None
#     Edge 5, Type (0, 0), None
#     Edge 6, Type (0, 0), None
#     Edge 7, Type (0, 0), None
#     Edge 8, Type (0, 0), None
#     Edge 9, Type (0, 0), None
#     Edge 10, Type (0, 0), None
#     Edge 11, Type (0, 0), None
#     Edge 12, Type (0, 0), None
#     Edge 13, Type (0, 0), None
#     Edge 14, Type (0, 0), None
#     Edge 15, Type (0, 0), None
# Relax obj value: 0.081
# Max RMSD: 0.171
# Mean RMSD: 0.171
data_MOF--net-sxa--node1-UKALOJ_clean_sbu_0--edge1-none
_symmetry_space_group_name_H-M    P1
_symmetry_Int_Tables_number       1
_symmetry_cell_setting            triclinic
loop_
_symmetry_equiv_pos_as_xyz
'x, y, z'
_cell_length_a     10.474813
_cell_length_b     22.215915
_cell_length_c     8.8425354
_cell_angle_alpha  89.869378
_cell_angle_beta   89.999673
_cell_angle_gamma 89.996874
loop_
_atom_site_label
_atom_site_type_symbol
_atom_site_fract_x
_atom_site_fract_y
_atom_site_fract_z
_atom_type_partial_charge
Zn0 Zn 0.98738 0.86525 0.13884 0.0
O1 O 0.11803 0.8639 0.3235 0.0
C2 C 0.1993 0.8133 -0.02779 0.0
Zn3 Zn 0.98647 0.76333 0.1426 0.0
C4 C 0.16335 0.81382 0.37226 0.0
O5 O 0.12013 0.7635 0.32319 0.0
C6 C 0.81252 0.81524 -0.08013 0.0
O7 O 0.82647 0.76389 0.29064 0.0
O8 O 0.82435 0.86382 0.28412 0.0
N9 N 0.98448 0.67095 0.09345 0.0
C10 C -0.00996 0.64581 -0.0473 0.0
C11 C 0.9675 0.57426 0.11055 0.0
N12 N 0.97022 0.6261 0.1908 0.0
N13 N 0.97973 0.58536 -0.03917 0.0
C14 C 0.00525 0.98621 -0.03921 0.0
C15 C 0.90935 1.05012 0.09962 0.0
N16 N 0.98176 0.95866 0.09613 0.0
N17 N 0.92112 0.99865 0.18108 0.0
N18 N 0.96156 1.04315 -0.03871 0.0
H19 H 0.17436 0.95384 0.85258 0.0
H20 H 0.06394 0.98631 0.7241 0.0
H21 H 0.03081 0.9134 0.80122 0.0
C22 C 0.07113 0.95825 0.82712 0.0
C23 C 0.00427 0.6793 0.80507 0.0
H24 H 0.91773 0.67185 0.7352 0.0
H25 H 0.08759 0.6612 0.74234 0.0
H26 H 0.01701 0.72816 0.81523 0.0
O27 O 0.85367 0.76651 -0.02715 0.0
O28 O 0.8606 0.86435 -0.03886 0.0
C29 C 0.7748 0.81398 0.32728 0.0
O30 O 0.14766 0.86253 0.00656 0.0
O31 O 0.14595 0.76449 0.00651 0.0
Zn32 Zn 0.48536 0.26333 0.14254 0.0
O33 O 0.32554 0.26387 0.29082 0.0
C34 C 0.31109 0.31519 -0.07974 0.0
Zn35 Zn 0.48624 0.36525 0.1389 0.0
C36 C 0.27391 0.31397 0.32759 0.0
O37 O 0.32341 0.36382 0.28445 0.0
C38 C 0.69792 0.31334 -0.02814 0.0
O39 O 0.61713 0.36394 0.32328 0.0
O40 O 0.61921 0.26355 0.32292 0.0
N41 N 0.48078 0.45865 0.09584 0.0
C42 C 0.50388 0.48604 -0.03979 0.0
C43 C 0.41024 0.55043 0.09982 0.0
N44 N 0.42152 0.49893 0.18129 0.0
N45 N 0.46137 0.54317 -0.039 0.0
C46 C 0.48921 0.14582 -0.04736 0.0
C47 C 0.46762 0.07422 0.11053 0.0
N48 N 0.4836 0.17095 0.0934 0.0
N49 N 0.46994 0.12606 0.19078 0.0
N50 N 0.47953 0.08534 -0.03921 0.0
H51 H 0.41647 0.17173 0.73525 0.0
H52 H 0.58642 0.16137 0.74212 0.0
H53 H 0.51544 0.22821 0.81509 0.0
C54 C 0.50304 0.17933 0.80498 0.0
C55 C 0.56852 0.4578 0.82604 0.0
H56 H 0.67202 0.45356 0.85012 0.0
H57 H 0.56014 0.48557 0.72269 0.0
H58 H 0.52826 0.41283 0.80133 0.0
O59 O 0.64634 0.36256 0.00637 0.0
O60 O 0.64462 0.26452 0.00621 0.0
C61 C 0.66248 0.31386 0.37195 0.0
O62 O 0.35237 0.26645 -0.02697 0.0
O63 O 0.35914 0.3643 -0.03841 0.0
Zn64 Zn 0.98534 0.36488 0.6583 0.0
O65 O 0.82552 0.36432 0.51002 0.0
C66 C 0.8111 0.31303 0.88058 0.0
Zn67 Zn 0.98625 0.26295 0.66194 0.0
C68 C 0.77391 0.31423 0.47325 0.0
O69 O 0.82343 0.26438 0.51639 0.0
C70 C 0.19792 0.31487 0.82897 0.0
O71 O 0.11715 0.26425 0.47757 0.0
O72 O 0.11919 0.36465 0.47792 0.0
N73 N 0.98079 0.16956 0.70508 0.0
C74 C 0.00384 0.1422 0.84076 0.0
C75 C 0.91026 0.07778 0.70121 0.0
N76 N 0.92157 0.12926 0.61966 0.0
N77 N 0.96127 0.08508 0.84006 0.0
C78 C -0.01082 0.48239 0.84819 0.0
C79 C 0.96762 0.55399 0.69029 0.0
N80 N 0.98358 0.45726 0.70743 0.0
N81 N 0.96993 0.50215 0.61004 0.0
N82 N 0.9795 0.54287 0.84003 0.0
H83 H 0.91645 0.45649 0.06559 0.0
H84 H 0.0864 0.46684 0.05869 0.0
H85 H 0.01541 0.4 -0.01426 0.0
C86 C 0.00301 0.44888 -0.00416 0.0
C87 C 0.06847 0.17046 -0.02509 0.0
H88 H 0.17198 0.17467 -0.04912 0.0
H89 H 0.06001 0.14272 0.07831 0.0
H90 H 0.02824 0.21544 -0.00046 0.0
O91 O 0.14636 0.26565 0.79447 0.0
O92 O 0.14461 0.36369 0.79463 0.0
C93 C 0.16247 0.31433 0.42889 0.0
O94 O 0.85235 0.36177 0.82781 0.0
O95 O 0.85914 0.26392 0.83924 0.0
Zn96 Zn 0.48645 0.86488 0.65824 0.0
O97 O 0.32646 0.86431 0.5102 0.0
C98 C 0.31252 0.81298 0.88097 0.0
Zn99 Zn 0.4874 0.76296 0.662 0.0
C100 C 0.2748 0.81422 0.47357 0.0
O101 O 0.32436 0.76438 0.51672 0.0
C102 C 0.6993 0.81491 0.82862 0.0
O103 O 0.61805 0.7643 0.47734 0.0
O104 O 0.62012 0.86469 0.47764 0.0
N105 N 0.48178 0.66955 0.70479 0.0
C106 C 0.5052 0.64203 0.84018 0.0
C107 C 0.40936 0.57809 0.7014 0.0
N108 N 0.42117 0.62954 0.61986 0.0
N109 N 0.46145 0.58511 0.83978 0.0
C110 C 0.49001 0.98239 0.84812 0.0
C111 C 0.4675 1.05395 0.69027 0.0
N112 N 0.48445 0.95726 0.70738 0.0
N113 N 0.47021 1.00211 0.61002 0.0
N114 N 0.47969 1.04285 0.83999 0.0
H115 H 0.41771 0.95637 0.06564 0.0
H116 H 0.58757 0.967 0.05847 0.0
H117 H 0.51698 0.90005 -0.0144 0.0
C118 C 0.50425 0.9489 -0.00425 0.0
C119 C 0.57107 0.67001 -0.02616 0.0
H120 H 0.67431 0.67439 -0.05159 0.0
H121 H 0.56381 0.64198 0.0769 0.0
H122 H 0.53079 0.71488 -0.00035 0.0
O123 O 0.64768 0.76568 0.79428 0.0
O124 O 0.64593 0.86373 0.79433 0.0
C125 C 0.66335 0.81437 0.42858 0.0
O126 O 0.35365 0.8617 0.82799 0.0
O127 O 0.36061 0.76387 0.8397 0.0
loop_
_geom_bond_atom_site_label_1
_geom_bond_atom_site_label_2
_geom_bond_distance
_geom_bond_site_symmetry_2
_ccdc_geom_bond_type
Zn0 O1 2.055 1_655 S
Zn0 O8 2.046 . S
Zn0 N16 2.036 . S
Zn0 O28 2.053 . S
Zn0 O30 2.066 1_655 S
O1 Zn0 2.055 1_455 S
O1 C4 1.259 . S
C2 O30 1.256 1_556 S
C2 O31 1.244 1_556 S
Zn3 O5 2.046 . S
Zn3 O7 2.055 1_455 S
Zn3 N9 2.036 . S
Zn3 O27 2.066 1_455 S
Zn3 O31 2.053 . S
C4 O1 1.259 . S
C4 O5 1.254 . S
O5 Zn3 2.046 . S
O5 C4 1.254 . S
C6 O27 1.256 1_556 S
C6 O28 1.244 1_556 S
O7 Zn3 2.055 1_655 S
O7 C29 1.259 . S
O8 Zn0 2.046 . S
O8 C29 1.254 . S
N9 Zn3 2.036 . S
N9 C10 1.298 1_455 S
N9 N12 1.398 . S
C10 N9 1.298 1_655 S
C10 N13 1.367 . S
C10 C23 1.481 . S
C11 N12 1.299 . S
C11 N13 1.379 1_455 S
N12 N9 1.398 . S
N12 C11 1.299 . S
N13 C10 1.367 . S
N13 C11 1.379 1_655 S
C14 N16 1.298 1_455 S
C14 N18 1.367 . S
C14 C22 1.481 . S
C15 N17 1.299 . S
C15 N18 1.379 1_655 S
N16 Zn0 2.036 . S
N16 C14 1.298 1_655 S
N16 N17 1.398 . S
N17 C15 1.299 . S
N17 N16 1.398 . S
N18 C14 1.367 . S
N18 C15 1.379 1_455 S
H19 C22 0.980 . S
H20 C22 0.981 . S
H21 C22 0.981 . S
C22 C14 1.481 . S
C22 H19 0.980 . S
C22 H20 0.981 . S
C22 H21 0.981 . S
C23 C10 1.481 . S
C23 H24 0.980 . S
C23 H25 0.981 . S
C23 H26 0.981 . S
H24 C23 0.980 . S
H25 C23 0.981 . S
H26 C23 0.981 . S
O27 Zn3 2.066 1_655 S
O27 C6 1.256 1_554 S
O28 Zn0 2.053 . S
O28 C6 1.244 1_554 S
C29 O7 1.259 . S
C29 O8 1.254 . S
O30 Zn0 2.066 1_455 S
O30 C2 1.256 1_554 S
O31 C2 1.244 1_554 S
O31 Zn3 2.053 . S
Zn32 O33 2.055 . S
Zn32 O40 2.046 . S
Zn32 N48 2.036 . S
Zn32 O60 2.053 . S
Zn32 O62 2.066 . S
O33 Zn32 2.055 . S
O33 C36 1.259 . S
C34 O62 1.256 1_556 S
C34 O63 1.244 1_556 S
Zn35 O37 2.046 . S
Zn35 O39 2.055 . S
Zn35 N41 2.036 . S
Zn35 O59 2.066 . S
Zn35 O63 2.053 . S
C36 O33 1.259 . S
C36 O37 1.254 . S
O37 Zn35 2.046 . S
O37 C36 1.254 . S
C38 O59 1.256 1_556 S
C38 O60 1.244 1_556 S
O39 Zn35 2.055 . S
O39 C61 1.259 . S
O40 Zn32 2.046 . S
O40 C61 1.254 . S
N41 Zn35 2.036 . S
N41 C42 1.298 . S
N41 N44 1.398 . S
C42 N41 1.298 . S
C42 N45 1.367 . S
C42 C55 1.481 . S
C43 N44 1.299 . S
C43 N45 1.379 . S
N44 N41 1.398 . S
N44 C43 1.299 . S
N45 C42 1.367 . S
N45 C43 1.379 . S
C46 N48 1.298 . S
C46 N50 1.367 . S
C46 C54 1.481 . S
C47 N49 1.299 . S
C47 N50 1.379 . S
N48 Zn32 2.036 . S
N48 C46 1.298 . S
N48 N49 1.398 . S
N49 C47 1.299 . S
N49 N48 1.398 . S
N50 C46 1.367 . S
N50 C47 1.379 . S
H51 C54 0.980 . S
H52 C54 0.981 . S
H53 C54 0.981 . S
C54 C46 1.481 . S
C54 H51 0.980 . S
C54 H52 0.981 . S
C54 H53 0.981 . S
C55 C42 1.481 . S
C55 H56 0.980 . S
C55 H57 0.981 . S
C55 H58 0.981 . S
H56 C55 0.980 . S
H57 C55 0.981 . S
H58 C55 0.981 . S
O59 Zn35 2.066 . S
O59 C38 1.256 1_554 S
O60 Zn32 2.053 . S
O60 C38 1.244 1_554 S
C61 O39 1.259 . S
C61 O40 1.254 . S
O62 Zn32 2.066 . S
O62 C34 1.256 1_554 S
O63 C34 1.244 1_554 S
O63 Zn35 2.053 . S
Zn64 O65 2.055 1_455 S
Zn64 O72 2.046 . S
Zn64 N80 2.036 . S
Zn64 O92 2.053 . S
Zn64 O94 2.066 1_455 S
O65 Zn64 2.055 1_655 S
O65 C68 1.259 . S
C66 O94 1.256 1_554 S
C66 O95 1.244 1_554 S
Zn67 O69 2.046 . S
Zn67 O71 2.055 1_655 S
Zn67 N73 2.036 . S
Zn67 O91 2.066 1_655 S
Zn67 O95 2.053 . S
C68 O65 1.259 . S
C68 O69 1.254 . S
O69 Zn67 2.046 . S
O69 C68 1.254 . S
C70 O91 1.256 1_554 S
C70 O92 1.244 1_554 S
O71 Zn67 2.055 1_455 S
O71 C93 1.259 . S
O72 Zn64 2.046 . S
O72 C93 1.254 . S
N73 Zn67 2.036 . S
N73 C74 1.298 1_655 S
N73 N76 1.398 . S
C74 N73 1.298 1_455 S
C74 N77 1.367 . S
C74 C87 1.481 . S
C75 N76 1.299 . S
C75 N77 1.379 1_655 S
N76 N73 1.398 . S
N76 C75 1.299 . S
N77 C74 1.367 . S
N77 C75 1.379 1_455 S
C78 N80 1.298 1_655 S
C78 N82 1.367 . S
C78 C86 1.481 . S
C79 N81 1.299 . S
C79 N82 1.379 1_455 S
N80 Zn64 2.036 . S
N80 C78 1.298 1_455 S
N80 N81 1.398 . S
N81 C79 1.299 . S
N81 N80 1.398 . S
N82 C78 1.367 . S
N82 C79 1.379 1_655 S
H83 C86 0.980 . S
H84 C86 0.981 . S
H85 C86 0.981 . S
C86 C78 1.481 . S
C86 H83 0.980 . S
C86 H84 0.981 . S
C86 H85 0.981 . S
C87 C74 1.481 . S
C87 H88 0.980 . S
C87 H89 0.981 . S
C87 H90 0.981 . S
H88 C87 0.980 . S
H89 C87 0.981 . S
H90 C87 0.981 . S
O91 Zn67 2.066 1_455 S
O91 C70 1.256 1_556 S
O92 Zn64 2.053 . S
O92 C70 1.244 1_556 S
C93 O71 1.259 . S
C93 O72 1.254 . S
O94 Zn64 2.066 1_655 S
O94 C66 1.256 1_556 S
O95 C66 1.244 1_556 S
O95 Zn67 2.053 . S
Zn96 O97 2.055 . S
Zn96 O104 2.046 . S
Zn96 N112 2.036 . S
Zn96 O124 2.053 . S
Zn96 O126 2.066 . S
O97 Zn96 2.055 . S
O97 C100 1.259 . S
C98 O126 1.256 1_554 S
C98 O127 1.244 1_554 S
Zn99 O101 2.046 . S
Zn99 O103 2.055 . S
Zn99 N105 2.036 . S
Zn99 O123 2.066 . S
Zn99 O127 2.053 . S
C100 O97 1.259 . S
C100 O101 1.254 . S
O101 Zn99 2.046 . S
O101 C100 1.254 . S
C102 O123 1.256 1_554 S
C102 O124 1.244 1_554 S
O103 Zn99 2.055 . S
O103 C125 1.259 . S
O104 Zn96 2.046 . S
O104 C125 1.254 . S
N105 Zn99 2.036 . S
N105 C106 1.298 . S
N105 N108 1.398 . S
C106 N105 1.298 . S
C106 N109 1.367 . S
C106 C119 1.481 . S
C107 N108 1.299 . S
C107 N109 1.379 . S
N108 N105 1.398 . S
N108 C107 1.299 . S
N109 C106 1.367 . S
N109 C107 1.379 . S
C110 N112 1.298 . S
C110 N114 1.367 . S
C110 C118 1.481 . S
C111 N113 1.299 . S
C111 N114 1.379 . S
N112 Zn96 2.036 . S
N112 C110 1.298 . S
N112 N113 1.398 . S
N113 C111 1.299 . S
N113 N112 1.398 . S
N114 C110 1.367 . S
N114 C111 1.379 . S
H115 C118 0.980 . S
H116 C118 0.981 . S
H117 C118 0.981 . S
C118 C110 1.481 . S
C118 H115 0.980 . S
C118 H116 0.981 . S
C118 H117 0.981 . S
C119 C106 1.481 . S
C119 H120 0.980 . S
C119 H121 0.981 . S
C119 H122 0.981 . S
H120 C119 0.980 . S
H121 C119 0.981 . S
H122 C119 0.981 . S
O123 Zn99 2.066 . S
O123 C102 1.256 1_556 S
O124 Zn96 2.053 . S
O124 C102 1.244 1_556 S
C125 O103 1.259 . S
C125 O104 1.254 . S
O126 Zn96 2.066 . S
O126 C98 1.256 1_556 S
O127 C98 1.244 1_556 S
O127 Zn99 2.053 . S
N82 N13 2.153 1_556 S
N45 N109 2.153 1_554 S
N114 N50 2.153 1_566 S
N18 N77 2.153 1_564 S
C100 C4 1.480 . S
C93 C36 1.480 . S
C68 C61 1.482 . S
C29 C125 1.482 . S
C98 C2 1.522 1_554 S
C70 C34 1.522 1_554 S
C38 C66 1.524 1_556 S
C6 C102 1.524 1_556 S
