# Generated by pormake.
# Topology uoq, (4)-cn, num edge types: 1
# Building blocks:
#     Node 0, Type 0, BuildingBlock: NAHDIM_clean_sbu_0, # of connection points: 4
#     Node 1, Type 0, BuildingBlock: NAHDIM_clean_sbu_0, # of connection points: 4
#     Node 2, Type 0, BuildingBlock: NAHDIM_clean_sbu_0, # of connection points: 4
#     Node 3, Type 0, BuildingBlock: NAHDIM_clean_sbu_0, # of connection points: 4
#     Node 4, Type 0, BuildingBlock: NAHDIM_clean_sbu_0, # of connection points: 4
#     Node 5, Type 0, BuildingBlock: NAHDIM_clean_sbu_0, # of connection points: 4
#     Node 6, Type 0, BuildingBlock: NAHDIM_clean_sbu_0, # of connection points: 4
#     Node 7, Type 0, BuildingBlock: NAHDIM_clean_sbu_0, # of connection points: 4
#     Node 8, Type 0, BuildingBlock: NAHDIM_clean_sbu_0, # of connection points: 4
#     Node 9, Type 0, BuildingBlock: NAHDIM_clean_sbu_0, # of connection points: 4
#     Node 10, Type 0, BuildingBlock: NAHDIM_clean_sbu_0, # of connection points: 4
#     Node 11, Type 0, BuildingBlock: NAHDIM_clean_sbu_0, # of connection points: 4
#     Edge 12, Type (0, 0), None
#     Edge 13, Type (0, 0), None
#     Edge 14, Type (0, 0), None
#     Edge 15, Type (0, 0), None
#     Edge 16, Type (0, 0), None
#     Edge 17, Type (0, 0), None
#     Edge 18, Type (0, 0), None
#     Edge 19, Type (0, 0), None
#     Edge 20, Type (0, 0), None
#     Edge 21, Type (0, 0), None
#     Edge 22, Type (0, 0), None
#     Edge 23, Type (0, 0), None
#     Edge 24, Type (0, 0), None
#     Edge 25, Type (0, 0), None
#     Edge 26, Type (0, 0), None
#     Edge 27, Type (0, 0), None
#     Edge 28, Type (0, 0), None
#     Edge 29, Type (0, 0), None
#     Edge 30, Type (0, 0), None
#     Edge 31, Type (0, 0), None
#     Edge 32, Type (0, 0), None
#     Edge 33, Type (0, 0), None
#     Edge 34, Type (0, 0), None
#     Edge 35, Type (0, 0), None
# Relax obj value: 0.055
# Max RMSD: 0.071
# Mean RMSD: 0.071
data_MOF--net-uoq--node1-NAHDIM_clean_sbu_0--edge1-none
_symmetry_space_group_name_H-M    P1
_symmetry_Int_Tables_number       1
_symmetry_cell_setting            triclinic
loop_
_symmetry_equiv_pos_as_xyz
'x, y, z'
_cell_length_a     26.402377
_cell_length_b     26.402524
_cell_length_c     11.853513
_cell_angle_alpha  90.001301
_cell_angle_beta   89.997412
_cell_angle_gamma 120.00074
loop_
_atom_site_label
_atom_site_type_symbol
_atom_site_fract_x
_atom_site_fract_y
_atom_site_fract_z
_atom_type_partial_charge
C0 C 0.25755 0.48444 0.0168 0.0
O1 O 0.2871 0.53371 0.07256 0.0
O2 O 0.3684 0.5272 0.21074 0.0
Zn3 Zn 0.29685 0.446 0.20423 0.0
O4 O 0.23735 0.43546 0.32303 0.0
C5 C 0.35731 0.38861 0.2999 0.0
O6 O 0.37148 0.42774 0.37966 0.0
O7 O 0.25579 0.43842 0.05434 0.0
C8 C 0.23685 0.42605 0.4282 0.0
O9 O 0.2791 0.4211 0.47494 0.0
C10 C 0.39082 0.55671 0.29994 0.0
O11 O 0.36669 0.53555 0.39827 0.0
O12 O 0.3262 0.38786 0.21702 0.0
C13 C 0.77429 0.25696 0.35012 0.0
O14 O 0.75459 0.28652 0.40588 0.0
O15 O 0.84238 0.3678 0.54407 0.0
Zn16 Zn 0.85204 0.29626 0.53756 0.0
O17 O 0.80307 0.23676 0.65636 0.0
C18 C 0.96989 0.35672 0.63323 0.0
O19 O 0.94493 0.3709 0.71299 0.0
O20 O 0.81856 0.2552 0.38767 0.0
C21 C 0.81198 0.23626 0.76152 0.0
O22 O 0.85919 0.27851 0.80826 0.0
C23 C 0.83529 0.39023 0.63327 0.0
O24 O 0.83232 0.36609 0.7316 0.0
O25 O 0.93953 0.32561 0.55035 0.0
C26 C 0.51852 0.7737 0.68345 0.0
O27 O 0.46926 0.754 0.7392 0.0
O28 O 0.47577 0.84179 0.87741 0.0
Zn29 Zn 0.55697 0.85144 0.8709 0.0
O30 O 0.56751 0.80248 -0.01031 0.0
C31 C 0.61436 0.9693 -0.03344 0.0
O32 O 0.57522 0.94434 0.04633 0.0
O33 O 0.56455 0.81797 0.721 0.0
C34 C 0.57691 0.81139 0.09485 0.0
O35 O 0.58187 0.8586 0.1416 0.0
C36 C 0.44626 0.8347 -0.0334 0.0
O37 O 0.46742 0.83173 0.06494 0.0
O38 O 0.61511 0.93894 0.88369 0.0
C39 C 0.74601 0.51793 0.0168 0.0
O40 O 0.71646 0.46866 0.07256 0.0
O41 O 0.63517 0.47517 0.21075 0.0
Zn42 Zn 0.70671 0.55637 0.20424 0.0
O43 O 0.76622 0.56692 0.32303 0.0
C44 C 0.64625 0.61377 0.2999 0.0
O45 O 0.63208 0.57464 0.37967 0.0
O46 O 0.74777 0.56395 0.05435 0.0
C47 C 0.76671 0.57632 0.4282 0.0
O48 O 0.72446 0.58127 0.47495 0.0
C49 C 0.61274 0.44566 0.29995 0.0
O50 O 0.63687 0.46683 0.39828 0.0
O51 O 0.67737 0.61452 0.21702 0.0
C52 C 0.22927 0.74541 0.35012 0.0
O53 O 0.24898 0.71585 0.40586 0.0
O54 O 0.16118 0.63457 0.54408 0.0
Zn55 Zn 0.15153 0.70611 0.53757 0.0
O56 O 0.20049 0.76562 0.65636 0.0
C57 C 0.03367 0.64565 0.63323 0.0
O58 O 0.05863 0.63148 0.713 0.0
O59 O 0.18501 0.74717 0.38768 0.0
C60 C 0.19158 0.76612 0.76153 0.0
O61 O 0.14437 0.72386 0.80828 0.0
C62 C 0.16827 0.61214 0.63328 0.0
O63 O 0.17123 0.63628 0.73161 0.0
O64 O 0.06404 0.67677 0.55036 0.0
C65 C 0.48504 0.22867 0.68344 0.0
O66 O 0.5343 0.24838 0.73918 0.0
O67 O 0.5278 0.16059 0.87741 0.0
Zn68 Zn 0.4466 0.15093 0.87089 0.0
O69 O 0.43605 0.19989 -0.01031 0.0
C70 C 0.3892 0.03307 -0.03344 0.0
O71 O 0.42834 0.05804 0.04633 0.0
O72 O 0.43902 0.18441 0.72101 0.0
C73 C 0.42665 0.19099 0.09486 0.0
O74 O 0.42168 0.14377 0.1416 0.0
C75 C 0.55731 0.16767 -0.0334 0.0
O76 O 0.53614 0.17064 0.06494 0.0
O77 O 0.38845 0.06344 0.88369 0.0
C78 C 0.51852 0.74539 0.57681 0.0
O79 O 0.46925 0.71582 0.52109 0.0
O80 O 0.47576 0.63457 0.38281 0.0
Zn81 Zn 0.55696 0.70612 0.38932 0.0
O82 O 0.5675 0.76562 0.27054 0.0
C83 C 0.61436 0.64567 0.29362 0.0
O84 O 0.57522 0.63148 0.21385 0.0
O85 O 0.56454 0.74717 0.53922 0.0
C86 C 0.57692 0.76613 0.16537 0.0
O87 O 0.58189 0.72388 0.11862 0.0
C88 C 0.44625 0.61215 0.29361 0.0
O89 O 0.46742 0.63628 0.19527 0.0
O90 O 0.61511 0.67677 0.37651 0.0
C91 C 0.77432 0.51792 0.91017 0.0
O92 O 0.75463 0.46865 0.85445 0.0
O93 O 0.84238 0.47517 0.71614 0.0
Zn94 Zn 0.85203 0.55637 0.72266 0.0
O95 O 0.80306 0.56691 0.60388 0.0
C96 C 0.96988 0.61376 0.62696 0.0
O97 O 0.94493 0.57462 0.54719 0.0
O98 O 0.81856 0.56395 0.87256 0.0
C99 C 0.81197 0.57632 0.49872 0.0
O100 O 0.85919 0.5813 0.45197 0.0
C101 C 0.83529 0.44566 0.62695 0.0
O102 O 0.83232 0.46682 0.52861 0.0
O103 O 0.93952 0.61452 0.70985 0.0
C104 C 0.25758 0.77372 0.24349 0.0
O105 O 0.28716 0.75403 0.18776 0.0
O106 O 0.3684 0.84179 0.04947 0.0
Zn107 Zn 0.29685 0.85144 0.056 0.0
O108 O 0.23734 0.80247 0.93721 0.0
C109 C 0.35731 0.96929 0.96029 0.0
O110 O 0.37149 0.94433 0.88053 0.0
O111 O 0.2558 0.81797 0.2059 0.0
C112 C 0.23684 0.81138 0.83205 0.0
O113 O 0.27908 0.8586 0.7853 0.0
C114 C 0.39082 0.8347 0.96028 0.0
O115 O 0.36669 0.83173 0.86194 0.0
O116 O 0.3262 0.93893 0.04318 0.0
C117 C 0.48504 0.25698 0.57681 0.0
O118 O 0.53431 0.28655 0.52108 0.0
O119 O 0.5278 0.3678 0.38281 0.0
Zn120 Zn 0.44659 0.29626 0.38933 0.0
O121 O 0.43606 0.23675 0.27055 0.0
C122 C 0.3892 0.35671 0.29362 0.0
O123 O 0.42834 0.3709 0.21386 0.0
O124 O 0.43901 0.25521 0.53923 0.0
C125 C 0.42664 0.23624 0.16538 0.0
O126 O 0.42167 0.27849 0.11864 0.0
C127 C 0.55731 0.39023 0.29362 0.0
O128 O 0.53614 0.36609 0.19528 0.0
O129 O 0.38845 0.3256 0.37652 0.0
C130 C 0.22924 0.48445 0.91017 0.0
O131 O 0.24894 0.53372 0.85445 0.0
O132 O 0.16118 0.52721 0.71615 0.0
Zn133 Zn 0.15152 0.44601 0.72267 0.0
O134 O 0.20049 0.43547 0.60389 0.0
C135 C 0.03368 0.38862 0.62696 0.0
O136 O 0.05864 0.42776 0.5472 0.0
O137 O 0.18499 0.43842 0.87257 0.0
C138 C 0.19158 0.42605 0.49872 0.0
O139 O 0.14437 0.42107 0.45198 0.0
C140 C 0.16827 0.55671 0.62695 0.0
O141 O 0.17124 0.53555 0.52862 0.0
O142 O 0.06403 0.38786 0.70985 0.0
C143 C 0.74598 0.22865 0.24349 0.0
O144 O 0.71641 0.24835 0.18777 0.0
O145 O 0.63516 0.16059 0.04948 0.0
Zn146 Zn 0.70671 0.15093 0.056 0.0
O147 O 0.76621 0.1999 0.93721 0.0
C148 C 0.64625 0.03309 0.96029 0.0
O149 O 0.63207 0.05804 0.88053 0.0
O150 O 0.74776 0.1844 0.20589 0.0
C151 C 0.76672 0.19099 0.83205 0.0
O152 O 0.72448 0.14378 0.7853 0.0
C153 C 0.61274 0.16767 0.96028 0.0
O154 O 0.63688 0.17065 0.86195 0.0
O155 O 0.67736 0.06344 0.04318 0.0
loop_
_geom_bond_atom_site_label_1
_geom_bond_atom_site_label_2
_geom_bond_distance
_geom_bond_site_symmetry_2
_ccdc_geom_bond_type
C0 O1 1.160 . S
C0 O7 1.185 . S
O1 C0 1.160 . S
O2 Zn3 1.899 . S
O2 C10 1.284 . S
Zn3 O2 1.899 . S
Zn3 O4 2.032 . S
Zn3 O7 2.086 . S
Zn3 O12 1.977 . S
O4 Zn3 2.032 . S
O4 C8 1.278 . S
C5 O6 1.203 . S
C5 O12 1.267 . S
O6 C5 1.203 . S
O7 C0 1.185 . S
O7 Zn3 2.086 . S
C8 O4 1.278 . S
C8 O9 1.211 . S
O9 C8 1.211 . S
C10 O2 1.284 . S
C10 O11 1.273 . S
O11 C10 1.273 . S
O12 Zn3 1.977 . S
O12 C5 1.267 . S
C13 O14 1.160 . S
C13 O20 1.185 . S
O14 C13 1.160 . S
O15 Zn16 1.899 . S
O15 C23 1.284 . S
Zn16 O15 1.899 . S
Zn16 O17 2.032 . S
Zn16 O20 2.086 . S
Zn16 O25 1.977 . S
O17 Zn16 2.032 . S
O17 C21 1.278 . S
C18 O19 1.203 . S
C18 O25 1.267 . S
O19 C18 1.203 . S
O20 C13 1.185 . S
O20 Zn16 2.086 . S
C21 O17 1.278 . S
C21 O22 1.211 . S
O22 C21 1.211 . S
C23 O15 1.284 . S
C23 O24 1.273 . S
O24 C23 1.273 . S
O25 Zn16 1.977 . S
O25 C18 1.267 . S
C26 O27 1.160 . S
C26 O33 1.185 . S
O27 C26 1.160 . S
O28 Zn29 1.899 . S
O28 C36 1.284 . S
Zn29 O28 1.899 . S
Zn29 O30 2.032 1_556 S
Zn29 O33 2.086 . S
Zn29 O38 1.977 . S
O30 Zn29 2.032 1_554 S
O30 C34 1.278 . S
C31 O32 1.203 . S
C31 O38 1.267 1_554 S
O32 C31 1.203 . S
O33 C26 1.185 . S
O33 Zn29 2.086 . S
C34 O30 1.278 . S
C34 O35 1.211 . S
O35 C34 1.211 . S
C36 O28 1.284 . S
C36 O37 1.273 1_556 S
O37 C36 1.273 1_554 S
O38 Zn29 1.977 . S
O38 C31 1.267 1_556 S
C39 O40 1.160 . S
C39 O46 1.185 . S
O40 C39 1.160 . S
O41 Zn42 1.899 . S
O41 C49 1.284 . S
Zn42 O41 1.899 . S
Zn42 O43 2.032 . S
Zn42 O46 2.086 . S
Zn42 O51 1.977 . S
O43 Zn42 2.032 . S
O43 C47 1.278 . S
C44 O45 1.203 . S
C44 O51 1.267 . S
O45 C44 1.203 . S
O46 C39 1.185 . S
O46 Zn42 2.086 . S
C47 O43 1.278 . S
C47 O48 1.211 . S
O48 C47 1.211 . S
C49 O41 1.284 . S
C49 O50 1.273 . S
O50 C49 1.273 . S
O51 Zn42 1.977 . S
O51 C44 1.267 . S
C52 O53 1.160 . S
C52 O59 1.185 . S
O53 C52 1.160 . S
O54 Zn55 1.899 . S
O54 C62 1.284 . S
Zn55 O54 1.899 . S
Zn55 O56 2.032 . S
Zn55 O59 2.086 . S
Zn55 O64 1.977 . S
O56 Zn55 2.032 . S
O56 C60 1.278 . S
C57 O58 1.203 . S
C57 O64 1.267 . S
O58 C57 1.203 . S
O59 C52 1.185 . S
O59 Zn55 2.086 . S
C60 O56 1.278 . S
C60 O61 1.211 . S
O61 C60 1.211 . S
C62 O54 1.284 . S
C62 O63 1.273 . S
O63 C62 1.273 . S
O64 Zn55 1.977 . S
O64 C57 1.267 . S
C65 O66 1.160 . S
C65 O72 1.185 . S
O66 C65 1.160 . S
O67 Zn68 1.899 . S
O67 C75 1.284 . S
Zn68 O67 1.899 . S
Zn68 O69 2.032 1_556 S
Zn68 O72 2.086 . S
Zn68 O77 1.977 . S
O69 Zn68 2.032 1_554 S
O69 C73 1.278 . S
C70 O71 1.203 . S
C70 O77 1.267 1_554 S
O71 C70 1.203 . S
O72 C65 1.185 . S
O72 Zn68 2.086 . S
C73 O69 1.278 . S
C73 O74 1.211 . S
O74 C73 1.211 . S
C75 O67 1.284 . S
C75 O76 1.273 1_556 S
O76 C75 1.273 1_554 S
O77 Zn68 1.977 . S
O77 C70 1.267 1_556 S
C78 O79 1.160 . S
C78 O85 1.185 . S
O79 C78 1.160 . S
O80 Zn81 1.899 . S
O80 C88 1.284 . S
Zn81 O80 1.899 . S
Zn81 O82 2.032 . S
Zn81 O85 2.086 . S
Zn81 O90 1.977 . S
O82 Zn81 2.032 . S
O82 C86 1.278 . S
C83 O84 1.203 . S
C83 O90 1.267 . S
O84 C83 1.203 . S
O85 C78 1.185 . S
O85 Zn81 2.086 . S
C86 O82 1.278 . S
C86 O87 1.211 . S
O87 C86 1.211 . S
C88 O80 1.284 . S
C88 O89 1.273 . S
O89 C88 1.273 . S
O90 Zn81 1.977 . S
O90 C83 1.267 . S
C91 O92 1.160 . S
C91 O98 1.185 . S
O92 C91 1.160 . S
O93 Zn94 1.899 . S
O93 C101 1.284 . S
Zn94 O93 1.899 . S
Zn94 O95 2.032 . S
Zn94 O98 2.086 . S
Zn94 O103 1.977 . S
O95 Zn94 2.032 . S
O95 C99 1.278 . S
C96 O97 1.203 . S
C96 O103 1.267 . S
O97 C96 1.203 . S
O98 C91 1.185 . S
O98 Zn94 2.086 . S
C99 O95 1.278 . S
C99 O100 1.211 . S
O100 C99 1.211 . S
C101 O93 1.284 . S
C101 O102 1.273 . S
O102 C101 1.273 . S
O103 Zn94 1.977 . S
O103 C96 1.267 . S
C104 O105 1.160 . S
C104 O111 1.185 . S
O105 C104 1.160 . S
O106 Zn107 1.899 . S
O106 C114 1.284 . S
Zn107 O106 1.899 . S
Zn107 O108 2.032 1_554 S
Zn107 O111 2.086 . S
Zn107 O116 1.977 . S
O108 Zn107 2.032 1_556 S
O108 C112 1.278 . S
C109 O110 1.203 . S
C109 O116 1.267 1_556 S
O110 C109 1.203 . S
O111 C104 1.185 . S
O111 Zn107 2.086 . S
C112 O108 1.278 . S
C112 O113 1.211 . S
O113 C112 1.211 . S
C114 O106 1.284 . S
C114 O115 1.273 1_554 S
O115 C114 1.273 1_556 S
O116 Zn107 1.977 . S
O116 C109 1.267 1_554 S
C117 O118 1.160 . S
C117 O124 1.185 . S
O118 C117 1.160 . S
O119 Zn120 1.899 . S
O119 C127 1.284 . S
Zn120 O119 1.899 . S
Zn120 O121 2.032 . S
Zn120 O124 2.086 . S
Zn120 O129 1.977 . S
O121 Zn120 2.032 . S
O121 C125 1.278 . S
C122 O123 1.203 . S
C122 O129 1.267 . S
O123 C122 1.203 . S
O124 C117 1.185 . S
O124 Zn120 2.086 . S
C125 O121 1.278 . S
C125 O126 1.211 . S
O126 C125 1.211 . S
C127 O119 1.284 . S
C127 O128 1.273 . S
O128 C127 1.273 . S
O129 Zn120 1.977 . S
O129 C122 1.267 . S
C130 O131 1.160 . S
C130 O137 1.185 . S
O131 C130 1.160 . S
O132 Zn133 1.899 . S
O132 C140 1.284 . S
Zn133 O132 1.899 . S
Zn133 O134 2.032 . S
Zn133 O137 2.086 . S
Zn133 O142 1.977 . S
O134 Zn133 2.032 . S
O134 C138 1.278 . S
C135 O136 1.203 . S
C135 O142 1.267 . S
O136 C135 1.203 . S
O137 C130 1.185 . S
O137 Zn133 2.086 . S
C138 O134 1.278 . S
C138 O139 1.211 . S
O139 C138 1.211 . S
C140 O132 1.284 . S
C140 O141 1.273 . S
O141 C140 1.273 . S
O142 Zn133 1.977 . S
O142 C135 1.267 . S
C143 O144 1.160 . S
C143 O150 1.185 . S
O144 C143 1.160 . S
O145 Zn146 1.899 . S
O145 C153 1.284 . S
Zn146 O145 1.899 . S
Zn146 O147 2.032 1_554 S
Zn146 O150 2.086 . S
Zn146 O155 1.977 . S
O147 Zn146 2.032 1_556 S
O147 C151 1.278 . S
C148 O149 1.203 . S
C148 O155 1.267 1_556 S
O149 C148 1.203 . S
O150 C143 1.185 . S
O150 Zn146 2.086 . S
C151 O147 1.278 . S
C151 O152 1.211 . S
O152 C151 1.211 . S
C153 O145 1.284 . S
C153 O154 1.273 1_554 S
O154 C153 1.273 1_556 S
O155 Zn146 1.977 . S
O155 C148 1.267 1_554 S
C5 C122 1.287 . S
C18 C135 1.287 1_655 S
C31 C148 1.287 1_564 S
C44 C83 1.287 . S
C96 C57 1.287 1_655 S
C109 C70 1.287 1_566 S
C130 C0 1.440 1_556 S
C13 C143 1.440 . S
C26 C78 1.440 . S
C39 C91 1.440 1_554 S
C52 C104 1.440 . S
C65 C117 1.440 . S
C138 C8 1.142 . S
C21 C151 1.142 . S
C34 C86 1.142 . S
C47 C99 1.142 . S
C60 C112 1.142 . S
C73 C125 1.142 . S
C10 C88 1.518 . S
C101 C23 1.518 . S
C36 C114 1.518 1_556 S
C49 C127 1.518 . S
C62 C140 1.518 . S
C153 C75 1.518 1_554 S
