# Generated by pormake.
# Topology npo, (4)-cn, num edge types: 1
# Building blocks:
#     Node 0, Type 0, BuildingBlock: QUQFOY_clean_sbu_3, # of connection points: 4
#     Node 1, Type 0, BuildingBlock: QUQFOY_clean_sbu_3, # of connection points: 4
#     Node 2, Type 0, BuildingBlock: QUQFOY_clean_sbu_3, # of connection points: 4
#     Node 3, Type 0, BuildingBlock: QUQFOY_clean_sbu_3, # of connection points: 4
#     Node 4, Type 0, BuildingBlock: QUQFOY_clean_sbu_3, # of connection points: 4
#     Node 5, Type 0, BuildingBlock: QUQFOY_clean_sbu_3, # of connection points: 4
#     Edge 6, Type (0, 0), BuildingBlock: AJUNOK_clean_linker_0, # of connection points: 2
#     Edge 7, Type (0, 0), BuildingBlock: AJUNOK_clean_linker_0, # of connection points: 2
#     Edge 8, Type (0, 0), BuildingBlock: AJUNOK_clean_linker_0, # of connection points: 2
#     Edge 9, Type (0, 0), BuildingBlock: AJUNOK_clean_linker_0, # of connection points: 2
#     Edge 10, Type (0, 0), BuildingBlock: AJUNOK_clean_linker_0, # of connection points: 2
#     Edge 11, Type (0, 0), BuildingBlock: AJUNOK_clean_linker_0, # of connection points: 2
#     Edge 12, Type (0, 0), BuildingBlock: AJUNOK_clean_linker_0, # of connection points: 2
#     Edge 13, Type (0, 0), BuildingBlock: AJUNOK_clean_linker_0, # of connection points: 2
#     Edge 14, Type (0, 0), BuildingBlock: AJUNOK_clean_linker_0, # of connection points: 2
#     Edge 15, Type (0, 0), BuildingBlock: AJUNOK_clean_linker_0, # of connection points: 2
#     Edge 16, Type (0, 0), BuildingBlock: AJUNOK_clean_linker_0, # of connection points: 2
#     Edge 17, Type (0, 0), BuildingBlock: AJUNOK_clean_linker_0, # of connection points: 2
# Relax obj value: 0.288
# Max RMSD: 0.251
# Mean RMSD: 0.241
data_MOF--net-npo--node1-QUQFOY_clean_sbu_3--edge1-AJUNOK_clean_linker_0
_symmetry_space_group_name_H-M    P1
_symmetry_Int_Tables_number       1
_symmetry_cell_setting            triclinic
loop_
_symmetry_equiv_pos_as_xyz
'x, y, z'
_cell_length_a     34.866172
_cell_length_b     34.296606
_cell_length_c     19.118978
_cell_angle_alpha  91.970772
_cell_angle_beta   90.370018
_cell_angle_gamma 121.39198
loop_
_atom_site_label
_atom_site_type_symbol
_atom_site_fract_x
_atom_site_fract_y
_atom_site_fract_z
_atom_type_partial_charge
C0 C 0.48506 0.17113 0.16387 0.0
O1 O 0.49295 0.16031 0.10394 0.0
Cd2 Cd 0.51928 0.11044 0.08358 0.0
O3 O 0.48924 0.15303 0.21861 0.0
Cd4 Cd 0.50846 0.09229 0.23682 0.0
C5 C 0.61294 0.16723 0.1925 0.0
O6 O 0.46518 0.04333 0.14028 0.0
O7 O 0.52633 0.04405 0.15725 0.0
O8 O 0.45267 0.05232 0.32784 0.0
C9 C 0.48841 0.02593 0.12557 0.0
O10 O 0.59725 0.15465 0.13003 0.0
C11 C 0.47867 0.04552 0.36537 0.0
O12 O 0.5869 0.15176 0.24381 0.0
O13 O 0.51845 0.06209 0.34437 0.0
C14 C 0.30096 0.49721 0.68086 0.0
O15 O 0.31391 0.50465 0.6182 0.0
Cd16 Cd 0.39004 0.53664 0.5871 0.0
O17 O 0.32893 0.50504 0.73072 0.0
Cd18 Cd 0.41022 0.53205 0.74571 0.0
C19 C 0.43446 0.63493 0.68978 0.0
O20 O 0.41171 0.48961 0.64507 0.0
O21 O 0.47738 0.5414 0.68416 0.0
O22 O 0.39305 0.48099 0.84322 0.0
C23 C 0.45367 0.50709 0.64281 0.0
O24 O 0.42479 0.61745 0.62758 0.0
C25 C 0.42396 0.5116 0.88363 0.0
O26 O 0.4302 0.61041 0.74082 0.0
O27 O 0.44785 0.551 0.8594 0.0
C28 C 0.79228 0.47258 0.23742 0.0
O29 O 0.80168 0.46815 0.29974 0.0
Cd30 Cd 0.84662 0.43715 0.32768 0.0
O31 O 0.80902 0.46242 0.1858 0.0
Cd32 Cd 0.8617 0.43482 0.16494 0.0
C33 C 0.78431 0.33521 0.23352 0.0
O34 O 0.91234 0.47934 0.25968 0.0
O35 O 0.92002 0.42421 0.22211 0.0
O36 O 0.89366 0.48366 0.06458 0.0
C37 C 0.93468 0.45996 0.26139 0.0
O38 O 0.79653 0.35546 0.29384 0.0
C39 C 0.89063 0.45197 0.02403 0.0
O40 O 0.80164 0.35711 0.17881 0.0
O41 O 0.87384 0.41278 0.04924 0.0
C42 C 0.29451 0.78763 0.77847 0.0
O43 O 0.3096 0.79018 0.84013 0.0
Cd44 Cd 0.38366 0.83554 0.88348 0.0
O45 O 0.32034 0.81231 0.73033 0.0
Cd46 Cd 0.40274 0.87558 0.72689 0.0
C47 C 0.43057 0.797 0.76186 0.0
O48 O 0.39807 0.90452 0.83766 0.0
O49 O 0.4663 0.93261 0.81001 0.0
O50 O 0.38717 0.91837 0.64086 0.0
C51 C 0.43872 0.93201 0.85348 0.0
O52 O 0.42107 0.79994 0.82531 0.0
C53 C 0.4219 0.92922 0.6056 0.0
O54 O 0.42479 0.81914 0.71517 0.0
O55 O 0.44624 0.91407 0.62592 0.0
C56 C 0.63248 0.4779 0.18086 0.0
O57 O 0.61913 0.47258 0.11739 0.0
Cd58 Cd 0.5435 0.44494 0.08201 0.0
O59 O 0.6053 0.4704 0.23023 0.0
Cd60 Cd 0.52499 0.44661 0.24261 0.0
C61 C 0.49614 0.34438 0.16771 0.0
O62 O 0.52268 0.49058 0.1495 0.0
O63 O 0.45757 0.43734 0.17951 0.0
O64 O 0.54135 0.4963 0.34846 0.0
C65 C 0.48059 0.47185 0.14297 0.0
O66 O 0.50464 0.36364 0.10927 0.0
C67 C 0.51077 0.46468 0.38354 0.0
O68 O 0.50326 0.36757 0.22467 0.0
O69 O 0.48791 0.42557 0.35274 0.0
C70 C 0.13304 0.48527 0.73847 0.0
O71 O 0.12354 0.48938 0.80119 0.0
Cd72 Cd 0.07356 0.51447 0.83214 0.0
O73 O 0.11397 0.49262 0.68776 0.0
Cd74 Cd 0.05715 0.51455 0.66975 0.0
C75 C 0.12915 0.61636 0.74954 0.0
O76 O 0.00766 0.46942 0.75976 0.0
O77 O -0.00264 0.5225 0.72708 0.0
O78 O 0.0256 0.46561 0.56242 0.0
C79 C -0.01543 0.48802 0.764 0.0
O80 O 0.11654 0.59614 0.80706 0.0
C81 C 0.02909 0.49766 0.52618 0.0
O82 O 0.11487 0.59392 0.6914 0.0
O83 O 0.04537 0.53655 0.5573 0.0
C84 C 0.49004 0.23775 0.23061 0.0
C85 C 0.47706 0.20951 0.1693 0.0
C86 C 0.49316 0.28022 0.23102 0.0
C87 C 0.48355 0.29598 0.17008 0.0
H88 H 0.50082 0.22852 0.27719 0.0
H89 H 0.50599 0.30201 0.27824 0.0
S90 S 0.43849 0.23041 0.0008 0.0
N91 N 0.44725 0.19687 0.04966 0.0
N92 N 0.45361 0.27679 0.05042 0.0
C93 C 0.46655 0.26621 0.11051 0.0
C94 C 0.46313 0.22293 0.11017 0.0
C95 C 0.22632 0.48351 0.64163 0.0
C96 C 0.2543 0.48464 0.69612 0.0
C97 C 0.18554 0.48044 0.65547 0.0
C98 C 0.17092 0.47829 0.7244 0.0
H99 H 0.23692 0.48743 0.58788 0.0
H100 H 0.16659 0.48222 0.61186 0.0
S101 S 0.22733 0.47076 0.88459 0.0
N102 N 0.26134 0.47656 0.82078 0.0
N103 N 0.18452 0.4706 0.84694 0.0
C104 C 0.19654 0.47515 0.77884 0.0
C105 C 0.23826 0.47839 0.76468 0.0
C106 C 0.67399 0.22796 0.27119 0.0
C107 C 0.66042 0.20454 0.20525 0.0
C108 C 0.71565 0.26868 0.28135 0.0
C109 C 0.74541 0.28759 0.22597 0.0
H110 H 0.6513 0.2163 0.31452 0.0
H111 H 0.72327 0.28674 0.33192 0.0
S112 S 0.73005 0.23462 0.04722 0.0
N113 N 0.68307 0.19961 0.08674 0.0
N114 N 0.7614 0.27604 0.10581 0.0
C115 C 0.73401 0.26238 0.16155 0.0
C116 C 0.69153 0.22091 0.15119 0.0
C117 C 0.43197 0.74316 0.67183 0.0
C118 C 0.44197 0.76233 0.74071 0.0
C119 C 0.43299 0.70371 0.6541 0.0
C120 C 0.44419 0.68206 0.70455 0.0
H121 H 0.42034 0.75682 0.63229 0.0
H122 H 0.42208 0.68855 0.60167 0.0
S123 S 0.48314 0.72484 0.888 0.0
N124 N 0.47054 0.76114 0.85644 0.0
N125 N 0.47292 0.68733 0.82319 0.0
C126 C 0.4586 0.70357 0.77172 0.0
C127 C 0.45734 0.74359 0.7898 0.0
C128 C 0.70333 0.48357 0.14178 0.0
C129 C 0.67806 0.48657 0.1966 0.0
C130 C 0.74204 0.48218 0.1554 0.0
C131 C 0.75723 0.48389 0.22441 0.0
H132 H 0.69188 0.47964 0.08776 0.0
H133 H 0.75871 0.47729 0.11136 0.0
S134 S 0.70848 0.5015 0.38617 0.0
N135 N 0.6748 0.4982 0.32217 0.0
N136 N 0.74778 0.4959 0.34799 0.0
C137 C 0.73469 0.49123 0.27953 0.0
C138 C 0.69507 0.49248 0.26559 0.0
C139 C 0.23562 0.72433 0.70065 0.0
C140 C 0.24731 0.75138 0.763 0.0
C141 C 0.19519 0.68183 0.6944 0.0
C142 C 0.16541 0.66511 0.75043 0.0
H143 H 0.25935 0.73416 0.65884 0.0
H144 H 0.18899 0.66056 0.64743 0.0
S145 S 0.17595 0.72827 0.91776 0.0
N146 N 0.22244 0.76249 0.87649 0.0
N147 N 0.14679 0.68262 0.86491 0.0
C148 C 0.17465 0.69411 0.80989 0.0
C149 C 0.21553 0.73731 0.81608 0.0
C150 C 0.49751 -0.01756 0.94553 0.0
C151 C 0.45198 0.95304 0.92532 0.0
C152 C 0.50981 0.00384 0.01283 0.0
C153 C 0.4769 -0.00352 0.06163 0.0
H154 H 0.52369 -0.01009 0.90866 0.0
H155 H 0.54501 0.02798 0.02539 0.0
S156 S 0.3537 0.91909 0.03821 0.0
N157 N 0.3742 0.91506 0.96265 0.0
N158 N 0.39772 0.95539 0.08796 0.0
C159 C 0.43165 0.96562 0.04335 0.0
C160 C 0.41906 0.9439 -0.02455 0.0
C161 C 0.52441 0.5177 0.48712 0.0
C162 C 0.50001 0.47346 0.45506 0.0
C163 C 0.51114 0.52798 0.55085 0.0
C164 C 0.47278 0.49444 0.58409 0.0
H165 H 0.55299 0.54504 0.46165 0.0
H166 H 0.52952 0.5629 0.57207 0.0
S167 S 0.40094 0.37216 0.52762 0.0
N168 N 0.43847 0.39476 0.46608 0.0
N169 N 0.41338 0.41452 0.58482 0.0
C170 C 0.44976 0.44961 0.55495 0.0
C171 C 0.46342 0.43898 0.49069 0.0
C172 C 0.9351 0.43505 0.85299 0.0
C173 C 0.95407 0.4779 0.82307 0.0
C174 C 0.9127 0.42642 0.9162 0.0
C175 C 0.90884 0.46052 0.95262 0.0
H176 H 0.93897 0.40835 0.8286 0.0
H177 H 0.90006 0.39328 0.93804 0.0
S178 S 0.94877 0.57721 0.89298 0.0
N179 N -0.03563 0.55374 0.83144 0.0
N180 N 0.92257 0.53772 0.951 0.0
C181 C 0.92549 0.5028 0.92139 0.0
C182 C 0.94797 0.51143 0.85636 0.0
C183 C 0.49168 0.00513 0.46027 0.0
C184 C 0.46323 0.01739 0.42822 0.0
C185 C 0.47775 0.97658 0.51707 0.0
C186 C 0.43484 0.95921 0.54496 0.0
H187 H 0.52497 0.01714 0.44081 0.0
H188 H 0.50108 0.96819 0.53934 0.0
S189 S 0.34752 -0.01842 0.48139 0.0
N190 N 0.39004 0.01026 0.42922 0.0
N191 N 0.36402 0.95689 0.53671 0.0
C192 C 0.40611 0.97159 0.51417 0.0
C193 C 0.42024 0.00055 0.4557 0.0
C194 C 0.47381 0.53478 -0.00991 0.0
C195 C 0.43399 0.50181 0.95406 0.0
C196 C 0.48721 0.52532 0.05307 0.0
C197 C 0.46118 0.48268 0.08315 0.0
H198 H 0.49585 0.56776 0.96832 0.0
H199 H 0.51904 0.55126 0.07732 0.0
S200 S 0.35155 0.38617 0.01401 0.0
N201 N 0.36674 0.42589 0.95597 0.0
N202 N 0.39191 0.40825 0.07515 0.0
C203 C 0.41995 0.45023 0.05004 0.0
C204 C 0.40642 0.45973 -0.01477 0.0
C205 C -0.01181 0.44491 0.42224 0.0
C206 C 0.01197 0.4896 0.45275 0.0
C207 C -0.03409 0.4357 0.35689 0.0
C208 C -0.03351 0.47086 0.32037 0.0
H209 H -0.01506 0.4165 0.45037 0.0
H210 H 0.94577 0.40052 0.33717 0.0
S211 S 0.0298 0.59444 0.37121 0.0
N212 N 0.03949 0.57011 0.43643 0.0
N213 N -0.00312 0.55236 0.31457 0.0
C214 C -0.00727 0.51594 0.3477 0.0
C215 C 0.0157 0.52545 0.41369 0.0
loop_
_geom_bond_atom_site_label_1
_geom_bond_atom_site_label_2
_geom_bond_distance
_geom_bond_site_symmetry_2
_ccdc_geom_bond_type
C0 O1 1.306 . S
C0 O3 1.160 . S
O1 C0 1.306 . S
O1 Cd2 2.228 . S
Cd2 O1 2.228 . S
Cd2 O6 2.273 . S
Cd2 O10 2.277 . S
O3 C0 1.160 . S
O3 Cd4 2.203 . S
Cd4 O3 2.203 . S
Cd4 O6 2.411 . S
Cd4 O7 2.333 . S
Cd4 O8 2.352 . S
Cd4 O12 2.277 . S
Cd4 O13 2.356 . S
C5 O10 1.209 . S
C5 O12 1.226 . S
O6 Cd2 2.273 . S
O6 Cd4 2.411 . S
O6 C9 1.320 . S
O7 Cd4 2.333 . S
O7 C9 1.214 . S
O8 Cd4 2.352 . S
O8 C11 1.258 . S
C9 O6 1.320 . S
C9 O7 1.214 . S
O10 Cd2 2.277 . S
O10 C5 1.209 . S
C11 O8 1.258 . S
C11 O13 1.282 . S
O12 Cd4 2.277 . S
O12 C5 1.226 . S
O13 Cd4 2.356 . S
O13 C11 1.282 . S
C14 O15 1.306 . S
C14 O17 1.160 . S
O15 C14 1.306 . S
O15 Cd16 2.228 . S
Cd16 O15 2.228 . S
Cd16 O20 2.273 . S
Cd16 O24 2.277 . S
O17 C14 1.160 . S
O17 Cd18 2.203 . S
Cd18 O17 2.203 . S
Cd18 O20 2.411 . S
Cd18 O21 2.333 . S
Cd18 O22 2.352 . S
Cd18 O26 2.277 . S
Cd18 O27 2.356 . S
C19 O24 1.209 . S
C19 O26 1.226 . S
O20 Cd16 2.273 . S
O20 Cd18 2.411 . S
O20 C23 1.320 . S
O21 Cd18 2.333 . S
O21 C23 1.214 . S
O22 Cd18 2.352 . S
O22 C25 1.258 . S
C23 O20 1.320 . S
C23 O21 1.214 . S
O24 Cd16 2.277 . S
O24 C19 1.209 . S
C25 O22 1.258 . S
C25 O27 1.282 . S
O26 Cd18 2.277 . S
O26 C19 1.226 . S
O27 Cd18 2.356 . S
O27 C25 1.282 . S
C28 O29 1.306 . S
C28 O31 1.160 . S
O29 C28 1.306 . S
O29 Cd30 2.228 . S
Cd30 O29 2.228 . S
Cd30 O34 2.273 . S
Cd30 O38 2.277 . S
O31 C28 1.160 . S
O31 Cd32 2.203 . S
Cd32 O31 2.203 . S
Cd32 O34 2.411 . S
Cd32 O35 2.333 . S
Cd32 O36 2.352 . S
Cd32 O40 2.277 . S
Cd32 O41 2.356 . S
C33 O38 1.209 . S
C33 O40 1.226 . S
O34 Cd30 2.273 . S
O34 Cd32 2.411 . S
O34 C37 1.320 . S
O35 Cd32 2.333 . S
O35 C37 1.214 . S
O36 Cd32 2.352 . S
O36 C39 1.258 . S
C37 O34 1.320 . S
C37 O35 1.214 . S
O38 Cd30 2.277 . S
O38 C33 1.209 . S
C39 O36 1.258 . S
C39 O41 1.282 . S
O40 Cd32 2.277 . S
O40 C33 1.226 . S
O41 Cd32 2.356 . S
O41 C39 1.282 . S
C42 O43 1.306 . S
C42 O45 1.160 . S
O43 C42 1.306 . S
O43 Cd44 2.228 . S
Cd44 O43 2.228 . S
Cd44 O48 2.273 . S
Cd44 O52 2.277 . S
O45 C42 1.160 . S
O45 Cd46 2.203 . S
Cd46 O45 2.203 . S
Cd46 O48 2.411 . S
Cd46 O49 2.333 . S
Cd46 O50 2.352 . S
Cd46 O54 2.277 . S
Cd46 O55 2.356 . S
C47 O52 1.209 . S
C47 O54 1.226 . S
O48 Cd44 2.273 . S
O48 Cd46 2.411 . S
O48 C51 1.320 . S
O49 Cd46 2.333 . S
O49 C51 1.214 . S
O50 Cd46 2.352 . S
O50 C53 1.258 . S
C51 O48 1.320 . S
C51 O49 1.214 . S
O52 Cd44 2.277 . S
O52 C47 1.209 . S
C53 O50 1.258 . S
C53 O55 1.282 . S
O54 Cd46 2.277 . S
O54 C47 1.226 . S
O55 Cd46 2.356 . S
O55 C53 1.282 . S
C56 O57 1.306 . S
C56 O59 1.160 . S
O57 C56 1.306 . S
O57 Cd58 2.228 . S
Cd58 O57 2.228 . S
Cd58 O62 2.273 . S
Cd58 O66 2.277 . S
O59 C56 1.160 . S
O59 Cd60 2.203 . S
Cd60 O59 2.203 . S
Cd60 O62 2.411 . S
Cd60 O63 2.333 . S
Cd60 O64 2.352 . S
Cd60 O68 2.277 . S
Cd60 O69 2.356 . S
C61 O66 1.209 . S
C61 O68 1.226 . S
O62 Cd58 2.273 . S
O62 Cd60 2.411 . S
O62 C65 1.320 . S
O63 Cd60 2.333 . S
O63 C65 1.214 . S
O64 Cd60 2.352 . S
O64 C67 1.258 . S
C65 O62 1.320 . S
C65 O63 1.214 . S
O66 Cd58 2.277 . S
O66 C61 1.209 . S
C67 O64 1.258 . S
C67 O69 1.282 . S
O68 Cd60 2.277 . S
O68 C61 1.226 . S
O69 Cd60 2.356 . S
O69 C67 1.282 . S
C70 O71 1.306 . S
C70 O73 1.160 . S
O71 C70 1.306 . S
O71 Cd72 2.228 . S
Cd72 O71 2.228 . S
Cd72 O76 2.273 . S
Cd72 O80 2.277 . S
O73 C70 1.160 . S
O73 Cd74 2.203 . S
Cd74 O73 2.203 . S
Cd74 O76 2.411 . S
Cd74 O77 2.333 . S
Cd74 O78 2.352 . S
Cd74 O82 2.277 . S
Cd74 O83 2.356 . S
C75 O80 1.209 . S
C75 O82 1.226 . S
O76 Cd72 2.273 . S
O76 Cd74 2.411 . S
O76 C79 1.320 . S
O77 Cd74 2.333 . S
O77 C79 1.214 . S
O78 Cd74 2.352 . S
O78 C81 1.258 . S
C79 O76 1.320 . S
C79 O77 1.214 . S
O80 Cd72 2.277 . S
O80 C75 1.209 . S
C81 O78 1.258 . S
C81 O83 1.282 . S
O82 Cd74 2.277 . S
O82 C75 1.226 . S
O83 Cd74 2.356 . S
O83 C81 1.282 . S
C84 C85 1.369 . S
C84 C86 1.419 . S
C84 H88 0.930 . S
C85 C84 1.369 . S
C85 C94 1.429 . S
C86 C84 1.419 . S
C86 C87 1.363 . S
C86 H89 0.929 . S
C87 C86 1.363 . S
C87 C93 1.428 . S
H88 C84 0.930 . S
H89 C86 0.929 . S
S90 N91 1.613 . S
S90 N92 1.610 . S
N91 S90 1.613 . S
N91 C94 1.350 . S
N92 S90 1.610 . S
N92 C93 1.351 . S
C93 C87 1.428 . S
C93 N92 1.351 . S
C93 C94 1.434 . S
C94 C85 1.429 . S
C94 N91 1.350 . S
C94 C93 1.434 . S
C95 C96 1.369 . S
C95 C97 1.419 . S
C95 H99 0.930 . S
C96 C95 1.369 . S
C96 C105 1.429 . S
C97 C95 1.419 . S
C97 C98 1.363 . S
C97 H100 0.929 . S
C98 C97 1.363 . S
C98 C104 1.428 . S
H99 C95 0.930 . S
H100 C97 0.929 . S
S101 N102 1.613 . S
S101 N103 1.610 . S
N102 S101 1.613 . S
N102 C105 1.350 . S
N103 S101 1.610 . S
N103 C104 1.351 . S
C104 C98 1.428 . S
C104 N103 1.351 . S
C104 C105 1.434 . S
C105 C96 1.429 . S
C105 N102 1.350 . S
C105 C104 1.434 . S
C106 C107 1.369 . S
C106 C108 1.419 . S
C106 H110 0.930 . S
C107 C106 1.369 . S
C107 C116 1.429 . S
C108 C106 1.419 . S
C108 C109 1.363 . S
C108 H111 0.929 . S
C109 C108 1.363 . S
C109 C115 1.428 . S
H110 C106 0.930 . S
H111 C108 0.929 . S
S112 N113 1.613 . S
S112 N114 1.610 . S
N113 S112 1.613 . S
N113 C116 1.350 . S
N114 S112 1.610 . S
N114 C115 1.351 . S
C115 C109 1.428 . S
C115 N114 1.351 . S
C115 C116 1.434 . S
C116 C107 1.429 . S
C116 N113 1.350 . S
C116 C115 1.434 . S
C117 C118 1.369 . S
C117 C119 1.419 . S
C117 H121 0.930 . S
C118 C117 1.369 . S
C118 C127 1.429 . S
C119 C117 1.419 . S
C119 C120 1.363 . S
C119 H122 0.929 . S
C120 C119 1.363 . S
C120 C126 1.428 . S
H121 C117 0.930 . S
H122 C119 0.929 . S
S123 N124 1.613 . S
S123 N125 1.610 . S
N124 S123 1.613 . S
N124 C127 1.350 . S
N125 S123 1.610 . S
N125 C126 1.351 . S
C126 C120 1.428 . S
C126 N125 1.351 . S
C126 C127 1.434 . S
C127 C118 1.429 . S
C127 N124 1.350 . S
C127 C126 1.434 . S
C128 C129 1.369 . S
C128 C130 1.419 . S
C128 H132 0.930 . S
C129 C128 1.369 . S
C129 C138 1.429 . S
C130 C128 1.419 . S
C130 C131 1.363 . S
C130 H133 0.929 . S
C131 C130 1.363 . S
C131 C137 1.428 . S
H132 C128 0.930 . S
H133 C130 0.929 . S
S134 N135 1.613 . S
S134 N136 1.610 . S
N135 S134 1.613 . S
N135 C138 1.350 . S
N136 S134 1.610 . S
N136 C137 1.351 . S
C137 C131 1.428 . S
C137 N136 1.351 . S
C137 C138 1.434 . S
C138 C129 1.429 . S
C138 N135 1.350 . S
C138 C137 1.434 . S
C139 C140 1.369 . S
C139 C141 1.419 . S
C139 H143 0.930 . S
C140 C139 1.369 . S
C140 C149 1.429 . S
C141 C139 1.419 . S
C141 C142 1.363 . S
C141 H144 0.929 . S
C142 C141 1.363 . S
C142 C148 1.428 . S
H143 C139 0.930 . S
H144 C141 0.929 . S
S145 N146 1.613 . S
S145 N147 1.610 . S
N146 S145 1.613 . S
N146 C149 1.350 . S
N147 S145 1.610 . S
N147 C148 1.351 . S
C148 C142 1.428 . S
C148 N147 1.351 . S
C148 C149 1.434 . S
C149 C140 1.429 . S
C149 N146 1.350 . S
C149 C148 1.434 . S
C150 C151 1.369 . S
C150 C152 1.419 1_566 S
C150 H154 0.930 . S
C151 C150 1.369 . S
C151 C160 1.429 . S
C152 C150 1.419 1_544 S
C152 C153 1.363 . S
C152 H155 0.929 . S
C153 C152 1.363 . S
C153 C159 1.428 . S
H154 C150 0.930 . S
H155 C152 0.929 . S
S156 N157 1.613 1_554 S
S156 N158 1.610 1_565 S
N157 S156 1.613 1_556 S
N157 C160 1.350 . S
N158 S156 1.610 1_545 S
N158 C159 1.351 . S
C159 C153 1.428 . S
C159 N158 1.351 . S
C159 C160 1.434 1_544 S
C160 C151 1.429 . S
C160 N157 1.350 . S
C160 C159 1.434 1_566 S
C161 C162 1.369 . S
C161 C163 1.419 . S
C161 H165 0.930 . S
C162 C161 1.369 . S
C162 C171 1.429 . S
C163 C161 1.419 . S
C163 C164 1.363 . S
C163 H166 0.929 . S
C164 C163 1.363 . S
C164 C170 1.428 . S
H165 C161 0.930 . S
H166 C163 0.929 . S
S167 N168 1.613 . S
S167 N169 1.610 . S
N168 S167 1.613 . S
N168 C171 1.350 . S
N169 S167 1.610 . S
N169 C170 1.351 . S
C170 C164 1.428 . S
C170 N169 1.351 . S
C170 C171 1.434 . S
C171 C162 1.429 . S
C171 N168 1.350 . S
C171 C170 1.434 . S
C172 C173 1.369 1_655 S
C172 C174 1.419 . S
C172 H176 0.930 . S
C173 C172 1.369 1_455 S
C173 C182 1.429 . S
C174 C172 1.419 . S
C174 C175 1.363 1_556 S
C174 H177 0.929 . S
C175 C174 1.363 1_554 S
C175 C181 1.428 1_655 S
H176 C172 0.930 . S
H177 C174 0.929 . S
S178 N179 1.613 . S
S178 N180 1.610 . S
N179 S178 1.613 . S
N179 C182 1.350 1_554 S
N180 S178 1.610 . S
N180 C181 1.351 . S
C181 C175 1.428 1_455 S
C181 N180 1.351 . S
C181 C182 1.434 1_554 S
C182 C173 1.429 . S
C182 N179 1.350 1_556 S
C182 C181 1.434 1_556 S
C183 C184 1.369 . S
C183 C185 1.419 . S
C183 H187 0.930 . S
C184 C183 1.369 . S
C184 C193 1.429 1_545 S
C185 C183 1.419 . S
C185 C186 1.363 1_545 S
C185 H188 0.929 . S
C186 C185 1.363 1_565 S
C186 C192 1.428 . S
H187 C183 0.930 . S
H188 C185 0.929 . S
S189 N190 1.613 . S
S189 N191 1.610 . S
N190 S189 1.613 . S
N190 C193 1.350 . S
N191 S189 1.610 . S
N191 C192 1.351 . S
C192 C186 1.428 . S
C192 N191 1.351 . S
C192 C193 1.434 . S
C193 C184 1.429 1_565 S
C193 N190 1.350 . S
C193 C192 1.434 . S
C194 C195 1.369 . S
C194 C196 1.419 1_556 S
C194 H198 0.930 . S
C195 C194 1.369 . S
C195 C204 1.429 1_556 S
C196 C194 1.419 1_554 S
C196 C197 1.363 . S
C196 H199 0.929 . S
C197 C196 1.363 . S
C197 C203 1.428 . S
H198 C194 0.930 . S
H199 C196 0.929 . S
S200 N201 1.613 . S
S200 N202 1.610 . S
N201 S200 1.613 . S
N201 C204 1.350 . S
N202 S200 1.610 . S
N202 C203 1.351 . S
C203 C197 1.428 . S
C203 N202 1.351 . S
C203 C204 1.434 . S
C204 C195 1.429 1_554 S
C204 N201 1.350 . S
C204 C203 1.434 . S
C205 C206 1.369 1_655 S
C205 C207 1.419 . S
C205 H209 0.930 . S
C206 C205 1.369 1_455 S
C206 C215 1.429 . S
C207 C205 1.419 . S
C207 C208 1.363 . S
C207 H210 0.929 . S
C208 C207 1.363 . S
C208 C214 1.428 1_655 S
H209 C205 0.930 . S
H210 C207 0.929 . S
S211 N212 1.613 . S
S211 N213 1.610 . S
N212 S211 1.613 . S
N212 C215 1.350 . S
N213 S211 1.610 . S
N213 C214 1.351 . S
C214 C208 1.428 1_455 S
C214 N213 1.351 . S
C214 C215 1.434 . S
C215 C206 1.429 . S
C215 N212 1.350 . S
C215 C214 1.434 . S
C85 C0 1.217 . S
C87 C61 1.263 . S
C96 C14 1.235 . S
C98 C70 1.232 . S
C107 C5 1.263 . S
C109 C33 1.264 . S
C118 C47 1.262 . S
C120 C19 1.268 . S
C129 C56 1.243 . S
C131 C28 1.235 . S
C140 C42 1.219 . S
C142 C75 1.264 . S
C151 C51 1.412 . S
C153 C9 1.412 . S
C162 C67 1.436 . S
C164 C23 1.458 . S
C173 C79 1.442 . S
C175 C39 1.428 . S
C184 C11 1.439 . S
C186 C53 1.437 . S
C195 C25 1.428 . S
C197 C65 1.441 . S
C206 C81 1.433 . S
C208 C37 1.458 . S
