# Generated by pormake.
# Topology lon, (4)-cn, num edge types: 1
# Building blocks:
#     Node 0, Type 0, BuildingBlock: QUQFOY_clean_sbu_3, # of connection points: 4
#     Node 1, Type 0, BuildingBlock: QUQFOY_clean_sbu_3, # of connection points: 4
#     Node 2, Type 0, BuildingBlock: QUQFOY_clean_sbu_3, # of connection points: 4
#     Node 3, Type 0, BuildingBlock: QUQFOY_clean_sbu_3, # of connection points: 4
#     Edge 4, Type (0, 0), BuildingBlock: EZIPEK_clean_linker_0, # of connection points: 2
#     Edge 5, Type (0, 0), BuildingBlock: EZIPEK_clean_linker_0, # of connection points: 2
#     Edge 6, Type (0, 0), BuildingBlock: EZIPEK_clean_linker_0, # of connection points: 2
#     Edge 7, Type (0, 0), BuildingBlock: EZIPEK_clean_linker_0, # of connection points: 2
#     Edge 8, Type (0, 0), BuildingBlock: EZIPEK_clean_linker_0, # of connection points: 2
#     Edge 9, Type (0, 0), BuildingBlock: EZIPEK_clean_linker_0, # of connection points: 2
#     Edge 10, Type (0, 0), BuildingBlock: EZIPEK_clean_linker_0, # of connection points: 2
#     Edge 11, Type (0, 0), BuildingBlock: EZIPEK_clean_linker_0, # of connection points: 2
# Relax obj value: 0.137
# Max RMSD: 0.174
# Mean RMSD: 0.169
data_MOF--net-lon--node1-QUQFOY_clean_sbu_3--edge1-EZIPEK_clean_linker_0
_symmetry_space_group_name_H-M    P1
_symmetry_Int_Tables_number       1
_symmetry_cell_setting            triclinic
loop_
_symmetry_equiv_pos_as_xyz
'x, y, z'
_cell_length_a     17.903956
_cell_length_b     19.36743
_cell_length_c     31.231331
_cell_angle_alpha  89.415325
_cell_angle_beta   90.310101
_cell_angle_gamma 118.13612
loop_
_atom_site_label
_atom_site_type_symbol
_atom_site_fract_x
_atom_site_fract_y
_atom_site_fract_z
_atom_type_partial_charge
C0 C 0.15443 0.64462 0.02263 0.0
O1 O 0.17055 0.71445 0.03063 0.0
Cd2 Cd 0.30721 0.81308 0.05383 0.0
O3 O 0.21065 0.62247 0.02695 0.0
Cd4 Cd 0.35982 0.67526 0.04835 0.0
C5 C 0.32559 0.72811 0.14676 0.0
O6 O 0.40588 0.79579 0.00957 0.0
O7 O 0.50242 0.78995 0.04897 0.0
O8 O 0.38118 0.5961 -0.00524 0.0
C9 C 0.48204 0.82772 0.02208 0.0
O10 O 0.31877 0.78447 0.12923 0.0
C11 C 0.40105 0.55769 0.0215 0.0
O12 O 0.33592 0.67842 0.12473 0.0
O13 O 0.40169 0.57399 0.06083 0.0
C14 C 0.51002 0.36396 0.50492 0.0
O15 O 0.50602 0.32687 0.471 0.0
Cd16 Cd 0.57081 0.24509 0.46308 0.0
O17 O 0.5451 0.35577 0.53876 0.0
Cd18 Cd 0.61217 0.27723 0.5644 0.0
C19 C 0.7721 0.37446 0.49483 0.0
O20 O 0.52985 0.16027 0.52412 0.0
O21 O 0.64235 0.1676 0.55447 0.0
O22 O 0.53117 0.2463 0.63059 0.0
C23 C 0.57573 0.12838 0.53283 0.0
O24 O 0.72269 0.33524 0.46464 0.0
C25 C 0.59576 0.2717 0.65475 0.0
O26 O 0.74714 0.36702 0.53346 0.0
O27 O 0.66811 0.30113 0.63709 0.0
C28 C 0.12525 0.58942 0.477 0.0
O29 O 0.15861 0.62196 0.51211 0.0
Cd30 Cd 0.30576 0.70666 0.52216 0.0
O31 O 0.16906 0.60181 0.4431 0.0
Cd32 Cd 0.3178 0.6824 0.42089 0.0
C33 C 0.37838 0.58193 0.48913 0.0
O34 O 0.35006 0.7965 0.46313 0.0
O35 O 0.45763 0.79366 0.43356 0.0
O36 O 0.26757 0.71055 0.35361 0.0
C37 C 0.42868 0.83062 0.45522 0.0
O38 O 0.37003 0.62029 0.51991 0.0
C39 C 0.31332 0.69218 0.33036 0.0
O40 O 0.35959 0.59053 0.45082 0.0
O41 O 0.35981 0.6679 0.34901 0.0
C42 C 0.49296 0.32518 0.96346 0.0
O43 O 0.43806 0.25388 0.95928 0.0
Cd44 Cd 0.4746 0.15758 0.93332 0.0
O45 O 0.57091 0.34782 0.95581 0.0
Cd46 Cd 0.66643 0.29453 0.9359 0.0
C47 C 0.57412 0.24189 0.83871 0.0
O48 O 0.59306 0.17493 0.97662 0.0
O49 O 0.69425 0.18147 0.93658 0.0
O50 O 0.7619 0.38375 0.98875 0.0
C51 C 0.63709 0.14374 0.964 0.0
O52 O 0.51023 0.18714 0.85733 0.0
C53 C 0.82571 0.41297 0.96409 0.0
O54 O 0.63748 0.29111 0.85986 0.0
O55 O 0.81551 0.38758 0.92602 0.0
C56 C 0.39284 0.77009 0.21869 0.0
C57 C 0.32156 0.72008 0.1938 0.0
C58 C 0.24615 0.64904 0.25838 0.0
C59 C 0.31541 0.70208 0.28345 0.0
N60 N 0.44858 0.82041 0.28907 0.0
N61 N 0.176 0.61985 0.18921 0.0
C62 C 0.38718 0.76471 0.26405 0.0
C63 C 0.24687 0.66165 0.21344 0.0
N64 N 0.46679 0.8209 0.19889 0.0
N65 N 0.18113 0.58525 0.27742 0.0
H66 H 0.17458 0.62721 0.15613 0.0
H67 H 0.11688 0.58232 0.20207 0.0
H68 H 0.17807 0.57478 0.31036 0.0
H69 H 0.13339 0.53969 0.26045 0.0
H70 H 0.52382 0.85259 0.21505 0.0
H71 H 0.47294 0.82718 0.16569 0.0
H72 H 0.49765 0.87213 0.27699 0.0
H73 H 0.44693 0.81812 0.32246 0.0
C74 C 0.57299 0.19179 0.72123 0.0
C75 C 0.58693 0.26325 0.70166 0.0
C76 C 0.58102 0.31644 0.77158 0.0
C77 C 0.57567 0.24803 0.79149 0.0
N78 N 0.57947 0.12543 0.78619 0.0
N79 N 0.61328 0.39685 0.70731 0.0
C80 C 0.57454 0.18664 0.76658 0.0
C81 C 0.59365 0.32664 0.72659 0.0
N82 N 0.55771 0.12866 0.69643 0.0
N83 N 0.57056 0.37007 0.79548 0.0
H84 H 0.61991 0.40547 0.67422 0.0
H85 H 0.62866 0.44793 0.72417 0.0
H86 H 0.55976 0.36389 0.82843 0.0
H87 H 0.56505 0.41705 0.78229 0.0
H88 H 0.53744 0.07248 0.70875 0.0
H89 H 0.55905 0.13097 0.66304 0.0
H90 H 0.58853 0.08352 0.7697 0.0
H91 H 0.58186 0.11988 0.81933 0.0
C92 C 0.49729 0.49644 0.0233 0.0
C93 C 0.42319 0.4969 0.00731 0.0
C94 C 0.39918 0.38921 0.95928 0.0
C95 C 0.46718 0.38273 0.97906 0.0
N96 N 0.5666 0.41783 0.03788 0.0
N97 N 0.29213 0.43054 0.9676 0.0
C98 C 0.51212 0.43271 0.01345 0.0
C99 C 0.37066 0.43948 0.97743 0.0
N100 N 0.5558 0.55836 0.04613 0.0
N101 N 0.36412 0.35034 0.92218 0.0
H102 H 0.26688 0.46355 0.98168 0.0
H103 H 0.24852 0.38454 0.94911 0.0
H104 H 0.38529 0.31534 0.90673 0.0
H105 H 0.3201 0.35951 0.9044 0.0
H106 H 0.6146 0.56372 0.05478 0.0
H107 H 0.55005 0.60843 0.05228 0.0
H108 H 0.59462 0.4485 0.06574 0.0
H109 H 0.57635 0.36943 0.03323 0.0
C110 C 0.00965 0.45632 0.49492 0.0
C111 C 0.03502 0.53144 0.4766 0.0
C112 C 0.8872 0.50176 0.46732 0.0
C113 C 0.86193 0.42658 0.48546 0.0
N114 N 0.89561 0.32534 0.50847 0.0
N115 N 0.00127 0.62182 0.43832 0.0
C116 C 0.92223 0.40173 0.49686 0.0
C117 C 0.9747 0.55283 0.46035 0.0
N118 N 0.06928 0.43794 0.51113 0.0
N119 N 0.82773 0.52534 0.45857 0.0
H120 H 0.06509 0.66157 0.43378 0.0
H121 H 0.96065 0.6374 0.42189 0.0
H122 H 0.76301 0.48866 0.46253 0.0
H123 H 0.84224 0.58232 0.4499 0.0
H124 H 0.05495 0.38828 0.52966 0.0
H125 H 0.13419 0.47461 0.50781 0.0
H126 H 0.93617 0.30124 0.51304 0.0
H127 H 0.83178 0.28378 0.51025 0.0
C128 C 0.58569 0.00154 0.94839 0.0
C129 C 0.61625 0.06381 0.97817 0.0
C130 C 0.57142 0.97049 0.03803 0.0
C131 C 0.54092 0.90828 0.00824 0.0
N132 N 0.54048 0.86396 0.93646 0.0
N133 N 0.66057 0.10926 0.05 0.0
C134 C 0.55552 0.9238 0.96381 0.0
C135 C 0.61662 0.04869 0.02263 0.0
N136 N 0.57977 0.01567 0.90585 0.0
N137 N 0.55245 0.95551 0.08057 0.0
H138 H 0.69504 0.16718 0.03944 0.0
H139 H 0.66981 0.1013 0.08225 0.0
H140 H 0.51929 0.89916 0.09333 0.0
H141 H 0.56424 -0.00088 0.10286 0.0
H142 H 0.54851 0.97142 0.88363 0.0
H143 H 0.60023 0.07155 0.89304 0.0
H144 H 0.55732 0.87258 0.90422 0.0
H145 H 0.51896 0.80639 0.94707 0.0
C146 C 0.40463 0.40742 0.52673 0.0
C147 C 0.47904 0.42211 0.50392 0.0
C148 C 0.4949 0.54841 0.47883 0.0
C149 C 0.41536 0.52945 0.49727 0.0
N150 N 0.2905 0.43994 0.53625 0.0
N151 N 0.59352 0.50338 0.45625 0.0
C152 C 0.36944 0.45909 0.52102 0.0
C153 C 0.52382 0.49177 0.47939 0.0
N154 N 0.36753 0.344 0.55362 0.0
N155 N 0.54411 0.6218 0.46224 0.0
H156 H 0.61996 0.46566 0.45776 0.0
H157 H 0.62243 0.5479 0.43357 0.0
H158 H 0.5254 0.66532 0.46193 0.0
H159 H 0.60649 0.64222 0.45238 0.0
H160 H 0.319 0.33488 0.57481 0.0
H161 H 0.38887 0.30256 0.55689 0.0
H162 H 0.24938 0.38546 0.54928 0.0
H163 H 0.26344 0.47705 0.53341 0.0
C164 C 0.02254 0.51764 0.03272 0.0
C165 C 0.06877 0.58727 0.00845 0.0
C166 C 0.95064 0.54665 0.95804 0.0
C167 C 0.90901 0.47319 0.97944 0.0
N168 N 0.91242 0.38289 0.03242 0.0
N169 N 0.08367 0.66257 0.94394 0.0
C170 C 0.94672 0.45701 0.01559 0.0
C171 C 0.03469 0.60053 0.97001 0.0
N172 N 0.04956 0.51041 0.07274 0.0
N173 N 0.90891 0.56619 0.92739 0.0
H174 H 0.1461 0.70286 0.95115 0.0
H175 H 0.06506 0.67003 0.91333 0.0
H176 H 0.84663 0.5289 0.91825 0.0
H177 H 0.9331 0.62209 0.91399 0.0
H178 H 0.0136 0.46439 0.09361 0.0
H179 H 0.10407 0.55423 0.08681 0.0
H180 H 0.94244 0.36613 0.05585 0.0
H181 H 0.85807 0.33602 0.02017 0.0
C182 C 0.52399 -0.01553 0.5397 0.0
C183 C 0.55722 0.05294 0.51387 0.0
C184 C 0.52096 0.97506 0.44877 0.0
C185 C 0.48473 0.90653 0.47457 0.0
N186 N 0.47713 0.84491 0.54286 0.0
N187 N 0.61408 0.11511 0.44604 0.0
C188 C 0.49442 0.91089 0.51963 0.0
C189 C 0.56436 0.04877 0.46897 0.0
N190 N 0.51731 -0.01049 0.583 0.0
N191 N 0.51057 0.96991 0.40532 0.0
H192 H 0.64969 0.16912 0.46073 0.0
H193 H 0.62729 0.11514 0.41361 0.0
H194 H 0.48081 0.91658 0.38934 0.0
H195 H 0.52704 0.01835 0.38537 0.0
H196 H 0.48448 0.94095 0.60284 0.0
H197 H 0.54071 0.04283 0.59886 0.0
H198 H 0.48915 0.84516 0.57553 0.0
H199 H 0.45952 0.79112 0.52835 0.0
loop_
_geom_bond_atom_site_label_1
_geom_bond_atom_site_label_2
_geom_bond_distance
_geom_bond_site_symmetry_2
_ccdc_geom_bond_type
C0 O1 1.306 . S
C0 O3 1.160 . S
O1 C0 1.306 . S
O1 Cd2 2.228 . S
Cd2 O1 2.228 . S
Cd2 O6 2.273 . S
Cd2 O10 2.277 . S
O3 C0 1.160 . S
O3 Cd4 2.203 . S
Cd4 O3 2.203 . S
Cd4 O6 2.411 . S
Cd4 O7 2.333 . S
Cd4 O8 2.352 1_554 S
Cd4 O12 2.277 . S
Cd4 O13 2.356 . S
C5 O10 1.209 . S
C5 O12 1.226 . S
O6 Cd2 2.273 . S
O6 Cd4 2.411 . S
O6 C9 1.320 . S
O7 Cd4 2.333 . S
O7 C9 1.214 . S
O8 Cd4 2.352 1_556 S
O8 C11 1.258 1_556 S
C9 O6 1.320 . S
C9 O7 1.214 . S
O10 Cd2 2.277 . S
O10 C5 1.209 . S
C11 O8 1.258 1_554 S
C11 O13 1.282 . S
O12 Cd4 2.277 . S
O12 C5 1.226 . S
O13 Cd4 2.356 . S
O13 C11 1.282 . S
C14 O15 1.306 . S
C14 O17 1.160 . S
O15 C14 1.306 . S
O15 Cd16 2.228 . S
Cd16 O15 2.228 . S
Cd16 O20 2.273 . S
Cd16 O24 2.277 . S
O17 C14 1.160 . S
O17 Cd18 2.203 . S
Cd18 O17 2.203 . S
Cd18 O20 2.411 . S
Cd18 O21 2.333 . S
Cd18 O22 2.352 . S
Cd18 O26 2.277 . S
Cd18 O27 2.356 . S
C19 O24 1.209 . S
C19 O26 1.226 . S
O20 Cd16 2.273 . S
O20 Cd18 2.411 . S
O20 C23 1.320 . S
O21 Cd18 2.333 . S
O21 C23 1.214 . S
O22 Cd18 2.352 . S
O22 C25 1.258 . S
C23 O20 1.320 . S
C23 O21 1.214 . S
O24 Cd16 2.277 . S
O24 C19 1.209 . S
C25 O22 1.258 . S
C25 O27 1.282 . S
O26 Cd18 2.277 . S
O26 C19 1.226 . S
O27 Cd18 2.356 . S
O27 C25 1.282 . S
C28 O29 1.306 . S
C28 O31 1.160 . S
O29 C28 1.306 . S
O29 Cd30 2.228 . S
Cd30 O29 2.228 . S
Cd30 O34 2.273 . S
Cd30 O38 2.277 . S
O31 C28 1.160 . S
O31 Cd32 2.203 . S
Cd32 O31 2.203 . S
Cd32 O34 2.411 . S
Cd32 O35 2.333 . S
Cd32 O36 2.352 . S
Cd32 O40 2.277 . S
Cd32 O41 2.356 . S
C33 O38 1.209 . S
C33 O40 1.226 . S
O34 Cd30 2.273 . S
O34 Cd32 2.411 . S
O34 C37 1.320 . S
O35 Cd32 2.333 . S
O35 C37 1.214 . S
O36 Cd32 2.352 . S
O36 C39 1.258 . S
C37 O34 1.320 . S
C37 O35 1.214 . S
O38 Cd30 2.277 . S
O38 C33 1.209 . S
C39 O36 1.258 . S
C39 O41 1.282 . S
O40 Cd32 2.277 . S
O40 C33 1.226 . S
O41 Cd32 2.356 . S
O41 C39 1.282 . S
C42 O43 1.306 . S
C42 O45 1.160 . S
O43 C42 1.306 . S
O43 Cd44 2.228 . S
Cd44 O43 2.228 . S
Cd44 O48 2.273 . S
Cd44 O52 2.277 . S
O45 C42 1.160 . S
O45 Cd46 2.203 . S
Cd46 O45 2.203 . S
Cd46 O48 2.411 . S
Cd46 O49 2.333 . S
Cd46 O50 2.352 1_556 S
Cd46 O54 2.277 . S
Cd46 O55 2.356 . S
C47 O52 1.209 . S
C47 O54 1.226 . S
O48 Cd44 2.273 . S
O48 Cd46 2.411 . S
O48 C51 1.320 . S
O49 Cd46 2.333 . S
O49 C51 1.214 . S
O50 Cd46 2.352 1_554 S
O50 C53 1.258 1_554 S
C51 O48 1.320 . S
C51 O49 1.214 . S
O52 Cd44 2.277 . S
O52 C47 1.209 . S
C53 O50 1.258 1_556 S
C53 O55 1.282 . S
O54 Cd46 2.277 . S
O54 C47 1.226 . S
O55 Cd46 2.356 . S
O55 C53 1.282 . S
C56 C57 1.363 . S
C56 C62 1.379 . S
C56 N64 1.356 . S
C57 C56 1.363 . S
C57 C63 1.363 . S
C58 C59 1.363 . S
C58 C63 1.379 . S
C58 N65 1.356 . S
C59 C58 1.363 . S
C59 C62 1.363 . S
N60 C62 1.356 . S
N60 H72 0.984 . S
N60 H73 0.985 . S
N61 C63 1.356 . S
N61 H66 0.984 . S
N61 H67 0.985 . S
C62 C56 1.379 . S
C62 C59 1.363 . S
C62 N60 1.356 . S
C63 C57 1.363 . S
C63 C58 1.379 . S
C63 N61 1.356 . S
N64 C56 1.356 . S
N64 H70 0.984 . S
N64 H71 0.984 . S
N65 C58 1.356 . S
N65 H68 0.984 . S
N65 H69 0.985 . S
H66 N61 0.984 . S
H67 N61 0.985 . S
H68 N65 0.984 . S
H69 N65 0.985 . S
H70 N64 0.984 . S
H71 N64 0.984 . S
H72 N60 0.984 . S
H73 N60 0.985 . S
C74 C75 1.363 . S
C74 C80 1.379 . S
C74 N82 1.356 . S
C75 C74 1.363 . S
C75 C81 1.363 . S
C76 C77 1.363 . S
C76 C81 1.379 . S
C76 N83 1.356 . S
C77 C76 1.363 . S
C77 C80 1.363 . S
N78 C80 1.356 . S
N78 H90 0.984 . S
N78 H91 0.985 . S
N79 C81 1.356 . S
N79 H84 0.984 . S
N79 H85 0.985 . S
C80 C74 1.379 . S
C80 C77 1.363 . S
C80 N78 1.356 . S
C81 C75 1.363 . S
C81 C76 1.379 . S
C81 N79 1.356 . S
N82 C74 1.356 . S
N82 H88 0.984 . S
N82 H89 0.984 . S
N83 C76 1.356 . S
N83 H86 0.984 . S
N83 H87 0.985 . S
H84 N79 0.984 . S
H85 N79 0.985 . S
H86 N83 0.984 . S
H87 N83 0.985 . S
H88 N82 0.984 . S
H89 N82 0.984 . S
H90 N78 0.984 . S
H91 N78 0.985 . S
C92 C93 1.363 1_554 S
C92 C98 1.379 . S
C92 N100 1.356 . S
C93 C92 1.363 1_556 S
C93 C99 1.363 . S
C94 C95 1.363 . S
C94 C99 1.379 . S
C94 N101 1.356 . S
C95 C94 1.363 . S
C95 C98 1.363 1_556 S
N96 C98 1.356 . S
N96 H108 0.984 . S
N96 H109 0.985 . S
N97 C99 1.356 . S
N97 H102 0.984 . S
N97 H103 0.985 . S
C98 C92 1.379 . S
C98 C95 1.363 1_554 S
C98 N96 1.356 . S
C99 C93 1.363 . S
C99 C94 1.379 . S
C99 N97 1.356 . S
N100 C92 1.356 . S
N100 H106 0.984 . S
N100 H107 0.984 . S
N101 C94 1.356 . S
N101 H104 0.984 . S
N101 H105 0.985 . S
H102 N97 0.984 . S
H103 N97 0.985 . S
H104 N101 0.984 . S
H105 N101 0.985 . S
H106 N100 0.984 . S
H107 N100 0.984 . S
H108 N96 0.984 . S
H109 N96 0.985 . S
C110 C111 1.363 . S
C110 C116 1.379 1_455 S
C110 N118 1.356 . S
C111 C110 1.363 . S
C111 C117 1.363 . S
C112 C113 1.363 . S
C112 C117 1.379 1_655 S
C112 N119 1.356 . S
C113 C112 1.363 . S
C113 C116 1.363 . S
N114 C116 1.356 . S
N114 H126 0.984 . S
N114 H127 0.985 . S
N115 C117 1.356 . S
N115 H120 0.984 . S
N115 H121 0.985 . S
C116 C110 1.379 1_655 S
C116 C113 1.363 . S
C116 N114 1.356 . S
C117 C111 1.363 . S
C117 C112 1.379 1_455 S
C117 N115 1.356 . S
N118 C110 1.356 . S
N118 H124 0.984 . S
N118 H125 0.984 . S
N119 C112 1.356 . S
N119 H122 0.984 . S
N119 H123 0.985 . S
H120 N115 0.984 . S
H121 N115 0.985 . S
H122 N119 0.984 . S
H123 N119 0.985 . S
H124 N118 0.984 . S
H125 N118 0.984 . S
H126 N114 0.984 . S
H127 N114 0.985 . S
C128 C129 1.363 . S
C128 C134 1.379 1_545 S
C128 N136 1.356 . S
C129 C128 1.363 . S
C129 C135 1.363 1_556 S
C130 C131 1.363 . S
C130 C135 1.379 1_565 S
C130 N137 1.356 . S
C131 C130 1.363 . S
C131 C134 1.363 1_554 S
N132 C134 1.356 . S
N132 H144 0.984 . S
N132 H145 0.985 . S
N133 C135 1.356 . S
N133 H138 0.984 . S
N133 H139 0.985 . S
C134 C128 1.379 1_565 S
C134 C131 1.363 1_556 S
C134 N132 1.356 . S
C135 C129 1.363 1_554 S
C135 C130 1.379 1_545 S
C135 N133 1.356 . S
N136 C128 1.356 . S
N136 H142 0.984 . S
N136 H143 0.984 . S
N137 C130 1.356 . S
N137 H140 0.984 . S
N137 H141 0.985 . S
H138 N133 0.984 . S
H139 N133 0.985 . S
H140 N137 0.984 . S
H141 N137 0.985 . S
H142 N136 0.984 . S
H143 N136 0.984 . S
H144 N132 0.984 . S
H145 N132 0.985 . S
C146 C147 1.363 . S
C146 C152 1.379 . S
C146 N154 1.356 . S
C147 C146 1.363 . S
C147 C153 1.363 . S
C148 C149 1.363 . S
C148 C153 1.379 . S
C148 N155 1.356 . S
C149 C148 1.363 . S
C149 C152 1.363 . S
N150 C152 1.356 . S
N150 H162 0.984 . S
N150 H163 0.985 . S
N151 C153 1.356 . S
N151 H156 0.984 . S
N151 H157 0.985 . S
C152 C146 1.379 . S
C152 C149 1.363 . S
C152 N150 1.356 . S
C153 C147 1.363 . S
C153 C148 1.379 . S
C153 N151 1.356 . S
N154 C146 1.356 . S
N154 H160 0.984 . S
N154 H161 0.984 . S
N155 C148 1.356 . S
N155 H158 0.984 . S
N155 H159 0.985 . S
H156 N151 0.984 . S
H157 N151 0.985 . S
H158 N155 0.984 . S
H159 N155 0.985 . S
H160 N154 0.984 . S
H161 N154 0.984 . S
H162 N150 0.984 . S
H163 N150 0.985 . S
C164 C165 1.363 . S
C164 C170 1.379 1_455 S
C164 N172 1.356 . S
C165 C164 1.363 . S
C165 C171 1.363 1_554 S
C166 C167 1.363 1_556 S
C166 C171 1.379 1_655 S
C166 N173 1.356 . S
C167 C166 1.363 1_554 S
C167 C170 1.363 . S
N168 C170 1.356 . S
N168 H180 0.984 . S
N168 H181 0.985 . S
N169 C171 1.356 . S
N169 H174 0.973 1_556 S
N169 H175 0.985 . S
C170 C164 1.379 1_655 S
C170 C167 1.363 . S
C170 N168 1.356 . S
C171 C165 1.363 1_556 S
C171 C166 1.379 1_455 S
C171 N169 1.356 . S
N172 C164 1.356 . S
N172 H178 0.984 . S
N172 H179 0.984 . S
N173 C166 1.356 . S
N173 H176 0.984 . S
N173 H177 0.985 . S
H174 N169 0.973 1_554 S
H175 N169 0.985 . S
H176 N173 0.984 . S
H177 N173 0.985 . S
H178 N172 0.984 . S
H179 N172 0.984 . S
H180 N168 0.984 . S
H181 N168 0.985 . S
C182 C183 1.363 . S
C182 C188 1.379 1_545 S
C182 N190 1.356 . S
C183 C182 1.363 . S
C183 C189 1.363 . S
C184 C185 1.363 . S
C184 C189 1.379 1_565 S
C184 N191 1.356 . S
C185 C184 1.363 . S
C185 C188 1.363 . S
N186 C188 1.356 . S
N186 H198 0.984 . S
N186 H199 0.985 . S
N187 C189 1.356 . S
N187 H192 0.984 . S
N187 H193 0.985 . S
C188 C182 1.379 1_565 S
C188 C185 1.363 . S
C188 N186 1.356 . S
C189 C183 1.363 . S
C189 C184 1.379 1_545 S
C189 N187 1.356 . S
N190 C182 1.356 . S
N190 H196 0.984 1_545 S
N190 H197 0.984 . S
N191 C184 1.356 . S
N191 H194 0.984 . S
N191 H195 0.985 1_565 S
H192 N187 0.984 . S
H193 N187 0.985 . S
H194 N191 0.984 . S
H195 N191 0.985 1_545 S
H196 N190 0.984 1_565 S
H197 N190 0.984 . S
H198 N186 0.984 . S
H199 N186 0.985 . S
C57 C5 1.577 . S
C59 C39 1.562 . S
C75 C25 1.562 . S
C77 C47 1.577 . S
C93 C11 1.451 1_556 S
C95 C42 1.467 . S
C111 C28 1.637 . S
C113 C19 1.634 . S
C129 C51 1.527 . S
C131 C9 1.527 . S
C147 C14 1.637 . S
C149 C33 1.634 . S
C165 C0 1.467 . S
C167 C53 1.451 1_554 S
C183 C23 1.590 . S
C185 C37 1.590 . S
