# Generated by pormake.
# Topology pcu, (6)-cn, num edge types: 1
# Building blocks:
#     Node 0, Type 0, BuildingBlock: BETGAK_clean_sbu_0, # of connection points: 6
#     Edge 1, Type (0, 0), BuildingBlock: FUNLAD_clean_linker_0, # of connection points: 2
#     Edge 2, Type (0, 0), BuildingBlock: FUNLAD_clean_linker_0, # of connection points: 2
#     Edge 3, Type (0, 0), BuildingBlock: FUNLAD_clean_linker_0, # of connection points: 2
# Relax obj value: 0.000
# Max RMSD: 0.000
# Mean RMSD: 0.000
data_MOF--net-pcu--node1-BETGAK_clean_sbu_0--edge1-FUNLAD_clean_linker_0
_symmetry_space_group_name_H-M    P1
_symmetry_Int_Tables_number       1
_symmetry_cell_setting            triclinic
loop_
_symmetry_equiv_pos_as_xyz
'x, y, z'
_cell_length_a     17.947108
_cell_length_b     27.731
_cell_length_c     16.526331
_cell_angle_alpha  100.13813
_cell_angle_beta   88.497412
_cell_angle_gamma 122.90722
loop_
_atom_site_label
_atom_site_type_symbol
_atom_site_fract_x
_atom_site_fract_y
_atom_site_fract_z
_atom_type_partial_charge
La0 La 0.07815 0.09272 1.02036 0.0
La1 La 0.9773 0.96631 0.04069 0.0
C2 C 0.13142 0.18685 0.97106 0.0
C3 C 0.10626 0.22967 0.97467 0.0
C4 C 0.05645 0.23657 0.03722 0.0
C5 C 0.03767 0.27985 0.04165 0.0
C6 C 0.06781 0.31666 0.98326 0.0
C7 C 0.11617 0.30859 0.91988 0.0
C8 C 0.13523 0.26561 0.91578 0.0
C9 C 0.0746 0.07684 0.17328 0.0
C10 C 0.86748 1.02227 0.03737 0.0
C11 C 0.92383 0.872 0.08952 0.0
C12 C 0.94914 0.82926 0.08604 0.0
C13 C 0.99914 0.82245 1.02362 0.0
C14 C 1.018 0.77922 1.01926 0.0
C15 C 0.98774 0.74236 0.07759 0.0
C16 C 0.93922 0.75034 0.14086 0.0
C17 C 0.92007 0.79329 0.14488 0.0
C18 C 0.98099 0.98252 0.88784 0.0
C19 C 0.18798 0.0368 1.02392 0.0
O20 O 0.16061 0.18432 0.0409 0.0
O21 O 0.07705 0.13478 0.92644 0.0
O22 O 0.14018 0.1209 0.14648 0.0
O23 O 1.01183 0.04673 0.11745 0.0
O24 O 0.93851 0.06671 1.01239 0.0
O25 O 0.87125 0.98138 0.06437 0.0
O26 O 0.89511 0.87469 1.01956 0.0
O27 O 0.97781 0.924 0.13451 0.0
O28 O 0.91522 0.93848 0.91453 0.0
O29 O 0.04363 1.01229 0.94378 0.0
O30 O 0.11695 0.99238 0.04893 0.0
O31 O 0.1842 0.07764 0.9968 0.0
H32 H 0.03292 0.20895 0.08302 0.0
H33 H 0.99927 0.28434 0.09058 0.0
H34 H 0.14123 0.33648 0.87444 0.0
H35 H 0.17386 0.26099 0.86713 0.0
H36 H 0.02274 0.8501 0.97785 0.0
H37 H 0.05652 0.77478 0.97042 0.0
H38 H 0.91408 0.72242 0.18625 0.0
H39 H 0.8813 0.79783 0.19343 0.0
C40 C 0.99202 1.02292 0.28508 0.0
C41 C 0.07094 0.06718 0.25869 0.0
C42 C 0.98882 1.01435 0.3664 0.0
C43 C 0.06463 0.05029 0.42316 0.0
C44 C 0.14371 0.09393 0.39593 0.0
C45 C 0.14677 0.1025 0.31475 0.0
C46 C 0.06509 0.04291 0.51028 0.0
C47 C 0.99115 1.01705 0.55111 0.0
C48 C 0.9915 1.00957 0.63819 0.0
C49 C 0.91223 0.96607 0.66536 0.0
C50 C 0.90901 0.95736 0.74647 0.0
C51 C 0.98487 0.99239 0.80254 0.0
H52 H 0.12906 0.08049 0.67771 0.0
C53 C 0.064 0.03651 0.77621 0.0
C54 C 0.06736 0.04522 0.69495 0.0
H55 H 0.12338 0.06432 0.81841 0.0
H56 H 0.93267 0.99488 0.24289 0.0
H57 H 0.92729 0.97896 0.38369 0.0
H58 H 0.20332 0.12191 0.43786 0.0
H59 H 0.20865 0.13679 0.29587 0.0
H60 H 0.12955 0.06039 0.54173 0.0
H61 H 0.92671 0.99961 0.51964 0.0
H62 H 0.85258 0.93831 0.62344 0.0
H63 H 0.84697 0.92318 0.7653 0.0
C64 C 0.27817 0.99646 0.05207 0.0
C65 C 0.27268 0.03951 1.02397 0.0
C66 C 0.35857 0.99967 0.05419 0.0
C67 C 0.43537 0.04591 1.02757 0.0
C68 C 0.42979 0.08902 0.99993 0.0
C69 C 0.3494 0.08582 0.99783 0.0
C70 C 0.52299 0.05201 1.03017 0.0
C71 C 0.53251 1.00712 1.03138 0.0
C72 C 0.62013 1.01321 1.03395 0.0
C73 C 0.62571 0.97009 0.06153 0.0
C74 C 0.70609 0.97327 0.06357 0.0
C75 C 0.78281 1.01958 0.03742 0.0
H76 H 0.69535 0.09265 0.98304 0.0
C77 C 0.77731 0.06265 1.00938 0.0
C78 C 0.69692 0.05945 1.00732 0.0
H79 H 0.83491 0.09867 0.98803 0.0
H80 H 0.22056 0.96044 0.07341 0.0
H81 H 0.36015 0.96649 0.07851 0.0
H82 H 0.48792 0.12537 0.97966 0.0
H83 H 0.34772 0.1199 0.97619 0.0
H84 H 0.58147 0.09541 1.03033 0.0
H85 H 0.47403 0.96371 1.03122 0.0
H86 H 0.56759 0.93374 0.0818 0.0
H87 H 0.70778 0.93918 0.08517 0.0
C88 C 0.99586 0.65986 0.99547 0.0
C89 C 1.00492 0.69498 0.07198 0.0
C90 C 1.00848 0.61384 0.99072 0.0
C91 C 0.03041 0.60175 0.06263 0.0
C92 C 0.04152 0.63781 0.13869 0.0
C93 C 0.02852 0.68359 0.14345 0.0
C94 C 0.0445 0.55323 0.06122 0.0
C95 C 1.01115 0.50583 0.99974 0.0
C96 C 0.02523 0.45731 0.99831 0.0
C97 C 1.01398 0.4212 0.92225 0.0
C98 C 0.02696 0.37541 0.91747 0.0
C99 C 0.05068 0.36406 0.98891 0.0
H100 H 0.05399 0.47061 0.13046 0.0
C101 C 0.05989 0.39923 0.06541 0.0
C102 C 0.04729 0.44526 0.07019 0.0
H103 H 0.07835 0.39182 0.12165 0.0
H104 H 0.97749 0.66729 0.93921 0.0
H105 H 1.0019 0.58852 0.93046 0.0
H106 H 0.05951 0.6302 0.19502 0.0
H107 H 0.03749 0.71033 0.20325 0.0
H108 H 0.08308 0.55686 0.11404 0.0
H109 H 0.97256 0.50221 0.94693 0.0
H110 H 0.99589 0.42878 0.86595 0.0
H111 H 1.01787 0.34863 0.85767 0.0
loop_
_geom_bond_atom_site_label_1
_geom_bond_atom_site_label_2
_geom_bond_distance
_geom_bond_site_symmetry_2
_ccdc_geom_bond_type
La0 C2 2.928 . S
La0 O20 2.521 . S
La0 O21 2.628 1_554 S
La0 O22 2.554 . S
La0 O23 2.757 1_545 S
La0 O24 2.470 1_455 S
La0 O29 2.482 1_454 S
La0 O31 2.503 . S
La1 C11 2.928 . S
La1 O23 2.482 1_656 S
La1 O25 2.503 . S
La1 O26 2.521 . S
La1 O27 2.628 1_556 S
La1 O28 2.554 . S
La1 O29 2.757 1_565 S
La1 O30 2.470 1_655 S
C2 La0 2.928 . S
C2 C3 1.503 . S
C2 O20 1.261 . S
C2 O21 1.243 1_554 S
C3 C2 1.503 . S
C3 C4 1.394 . S
C3 C8 1.373 1_454 S
C4 C3 1.394 . S
C4 C5 1.380 . S
C4 H32 0.930 . S
C5 C4 1.380 . S
C5 C6 1.387 . S
C5 H33 0.930 . S
C6 C5 1.387 . S
C6 C7 1.361 1_454 S
C7 C6 1.361 1_656 S
C7 C8 1.396 . S
C7 H34 0.929 . S
C8 C3 1.373 1_656 S
C8 C7 1.396 . S
C8 H35 0.929 . S
C9 O22 1.240 . S
C9 O23 1.289 1_545 S
C10 O24 1.258 1_565 S
C10 O25 1.255 1_554 S
C11 La1 2.928 . S
C11 C12 1.503 . S
C11 O26 1.261 . S
C11 O27 1.243 1_556 S
C12 C11 1.503 . S
C12 C13 1.394 . S
C12 C17 1.373 1_656 S
C13 C12 1.394 . S
C13 C14 1.380 . S
C13 H36 0.930 . S
C14 C13 1.380 . S
C14 C15 1.384 . S
C14 H37 0.930 . S
C15 C14 1.384 . S
C15 C16 1.364 1_656 S
C16 C15 1.364 1_454 S
C16 C17 1.396 . S
C16 H38 0.929 . S
C17 C12 1.373 1_454 S
C17 C16 1.396 . S
C17 H39 0.929 . S
C18 O28 1.240 . S
C18 O29 1.289 1_565 S
C19 O30 1.258 1_545 S
C19 O31 1.255 1_556 S
O20 La0 2.521 . S
O20 C2 1.261 . S
O21 La0 2.628 1_556 S
O21 C2 1.243 1_556 S
O22 La0 2.554 . S
O22 C9 1.240 . S
O23 La0 2.757 1_565 S
O23 La1 2.482 1_454 S
O23 C9 1.289 1_565 S
O24 La0 2.470 1_655 S
O24 C10 1.258 1_545 S
O25 La1 2.503 . S
O25 C10 1.255 1_556 S
O26 La1 2.521 . S
O26 C11 1.261 . S
O27 La1 2.628 1_554 S
O27 C11 1.243 1_554 S
O28 La1 2.554 . S
O28 C18 1.240 . S
O29 La0 2.482 1_656 S
O29 La1 2.757 1_545 S
O29 C18 1.289 1_545 S
O30 La1 2.470 1_455 S
O30 C19 1.258 1_565 S
O31 La0 2.503 . S
O31 C19 1.255 1_554 S
H32 C4 0.930 . S
H33 C5 0.930 . S
H34 C7 0.929 . S
H35 C8 0.929 . S
H36 C13 0.930 . S
H37 C14 0.930 . S
H38 C16 0.929 . S
H39 C17 0.929 . S
C40 C41 1.386 1_565 S
C40 C42 1.383 . S
C40 H56 0.948 . S
C41 C40 1.386 1_545 S
C41 C45 1.383 . S
C42 C40 1.383 . S
C42 C43 1.402 1_565 S
C42 H57 0.951 . S
C43 C42 1.402 1_545 S
C43 C44 1.375 . S
C43 C46 1.481 . S
C44 C43 1.375 . S
C44 C45 1.367 . S
C44 H58 0.951 . S
C45 C41 1.383 . S
C45 C44 1.367 . S
C45 H59 0.950 . S
C46 C43 1.481 . S
C46 C47 1.297 . S
C46 H60 0.950 . S
C47 C46 1.297 . S
C47 C48 1.479 . S
C47 H61 0.950 1_545 S
C48 C47 1.479 . S
C48 C49 1.375 1_545 S
C48 C54 1.404 . S
C49 C48 1.375 1_565 S
C49 C50 1.369 . S
C49 H62 0.950 . S
C50 C49 1.369 . S
C50 C51 1.392 1_565 S
C50 H63 0.951 1_455 S
C51 C50 1.392 1_545 S
C51 C53 1.384 . S
H52 C54 0.949 . S
C53 C51 1.384 . S
C53 C54 1.385 . S
C53 H55 0.950 . S
C54 C48 1.404 . S
C54 H52 0.949 . S
C54 C53 1.385 . S
H55 C53 0.950 . S
H56 C40 0.948 . S
H57 C42 0.951 . S
H58 C44 0.951 . S
H59 C45 0.950 . S
H60 C46 0.950 . S
H61 C47 0.950 1_565 S
H62 C49 0.950 . S
H63 C50 0.951 1_655 S
C64 C65 1.386 1_554 S
C64 C66 1.383 . S
C64 H80 0.951 . S
C65 C64 1.386 1_556 S
C65 C69 1.383 1_565 S
C66 C64 1.383 . S
C66 C67 1.402 1_554 S
C66 H81 0.951 . S
C67 C66 1.402 1_556 S
C67 C68 1.375 . S
C67 C70 1.481 . S
C68 C67 1.375 . S
C68 C69 1.367 1_565 S
C68 H82 0.951 1_565 S
C69 C65 1.383 1_545 S
C69 C68 1.367 1_545 S
C69 H83 0.950 . S
C70 C67 1.481 . S
C70 C71 1.297 1_556 S
C70 H84 0.950 . S
C71 C70 1.297 1_554 S
C71 C72 1.479 . S
C71 H85 0.950 . S
C72 C71 1.479 . S
C72 C73 1.375 . S
C72 C78 1.404 1_554 S
C73 C72 1.375 . S
C73 C74 1.369 . S
C73 H86 0.950 . S
C74 C73 1.369 . S
C74 C75 1.380 1_554 S
C74 H87 0.951 . S
C75 C74 1.380 1_556 S
C75 C77 1.397 . S
H76 C78 0.949 . S
C77 C75 1.397 . S
C77 C78 1.385 . S
C77 H79 0.950 . S
C78 C72 1.404 1_556 S
C78 H76 0.949 . S
C78 C77 1.385 . S
H79 C77 0.950 . S
H80 C64 0.951 . S
H81 C66 0.951 . S
H82 C68 0.951 1_545 S
H83 C69 0.950 . S
H84 C70 0.950 . S
H85 C71 0.950 . S
H86 C73 0.950 . S
H87 C74 0.951 . S
C88 C89 1.385 1_655 S
C88 C90 1.383 . S
C88 H104 0.951 . S
C89 C88 1.385 1_455 S
C89 C93 1.383 1_556 S
C90 C88 1.383 . S
C90 C91 1.404 1_655 S
C90 H105 0.951 . S
C91 C90 1.404 1_455 S
C91 C92 1.373 1_556 S
C91 C94 1.480 1_556 S
C92 C91 1.373 1_554 S
C92 C93 1.367 . S
C92 H106 0.951 . S
C93 C89 1.383 1_554 S
C93 C92 1.367 . S
C93 H107 0.950 . S
C94 C91 1.480 1_554 S
C94 C95 1.297 1_554 S
C94 H108 0.950 . S
C95 C94 1.297 1_556 S
C95 C96 1.479 . S
C95 H109 0.950 1_455 S
C96 C95 1.479 . S
C96 C97 1.375 1_455 S
C96 C102 1.404 1_556 S
C97 C96 1.375 1_655 S
C97 C98 1.369 . S
C97 H110 0.950 . S
C98 C97 1.369 . S
C98 C99 1.392 1_655 S
C98 H111 0.951 . S
C99 C98 1.392 1_455 S
C99 C101 1.384 1_556 S
H100 C102 0.949 . S
C101 C99 1.384 1_554 S
C101 C102 1.385 . S
C101 H103 0.950 . S
C102 C96 1.404 1_554 S
C102 H100 0.949 . S
C102 C101 1.385 . S
H103 C101 0.950 . S
H104 C88 0.951 . S
H105 C90 0.951 . S
H106 C92 0.951 . S
H107 C93 0.950 . S
H108 C94 0.950 . S
H109 C95 0.950 1_655 S
H110 C97 0.950 . S
H111 C98 0.951 . S
C41 C9 1.418 . S
C51 C18 1.460 1_445 S
C65 C19 1.471 1_565 S
C75 C10 1.460 1_556 S
C89 C15 1.497 1_455 S
C99 C6 1.484 1_556 S
