# Generated by pormake.
# Topology fee, (5)-cn, num edge types: 1
# Building blocks:
#     Node 0, Type 0, BuildingBlock: XOMCOT_clean_sbu_0, # of connection points: 5
#     Node 1, Type 0, BuildingBlock: XOMCOT_clean_sbu_0, # of connection points: 5
#     Node 2, Type 0, BuildingBlock: XOMCOT_clean_sbu_0, # of connection points: 5
#     Node 3, Type 0, BuildingBlock: XOMCOT_clean_sbu_0, # of connection points: 5
#     Edge 4, Type (0, 0), BuildingBlock: AJUNOK_clean_linker_0, # of connection points: 2
#     Edge 5, Type (0, 0), BuildingBlock: AJUNOK_clean_linker_0, # of connection points: 2
#     Edge 6, Type (0, 0), BuildingBlock: AJUNOK_clean_linker_0, # of connection points: 2
#     Edge 7, Type (0, 0), BuildingBlock: AJUNOK_clean_linker_0, # of connection points: 2
#     Edge 8, Type (0, 0), BuildingBlock: AJUNOK_clean_linker_0, # of connection points: 2
#     Edge 9, Type (0, 0), BuildingBlock: AJUNOK_clean_linker_0, # of connection points: 2
#     Edge 10, Type (0, 0), BuildingBlock: AJUNOK_clean_linker_0, # of connection points: 2
#     Edge 11, Type (0, 0), BuildingBlock: AJUNOK_clean_linker_0, # of connection points: 2
#     Edge 12, Type (0, 0), BuildingBlock: AJUNOK_clean_linker_0, # of connection points: 2
#     Edge 13, Type (0, 0), BuildingBlock: AJUNOK_clean_linker_0, # of connection points: 2
# Relax obj value: 0.155
# Max RMSD: 0.169
# Mean RMSD: 0.149
data_MOF--net-fee--node1-XOMCOT_clean_sbu_0--edge1-AJUNOK_clean_linker_0
_symmetry_space_group_name_H-M    P1
_symmetry_Int_Tables_number       1
_symmetry_cell_setting            triclinic
loop_
_symmetry_equiv_pos_as_xyz
'x, y, z'
_cell_length_a     28.876323
_cell_length_b     28.98536
_cell_length_c     13.687537
_cell_angle_alpha  96.050566
_cell_angle_beta   95.911628
_cell_angle_gamma 89.755362
loop_
_atom_site_label
_atom_site_type_symbol
_atom_site_fract_x
_atom_site_fract_y
_atom_site_fract_z
_atom_type_partial_charge
Co0 Co 0.17905 0.55309 0.09309 0.0
C1 C 0.18163 0.55073 0.3129 0.0
C2 C 0.19218 0.6188 0.27154 0.0
C3 C 0.19384 0.62177 0.37261 0.0
N4 N 0.18533 0.57416 0.2336 0.0
N5 N 0.18746 0.57894 0.39844 0.0
H6 H 0.17416 0.51423 0.30954 0.0
H7 H 0.19431 0.64783 0.22897 0.0
C8 C 0.23468 0.63568 0.06187 0.0
O9 O 0.19556 0.65618 0.03423 0.0
N10 N 0.1726 0.53278 0.95325 0.0
C11 C 0.15998 0.48975 0.91247 0.0
C12 C 0.15986 0.48802 0.81169 0.0
C13 C 0.17962 0.55682 0.87687 0.0
N14 N 0.17245 0.5301 0.78944 0.0
C15 C 0.20478 0.46324 0.15175 0.0
C16 C 0.28602 0.45611 0.06127 0.0
C17 C 0.27143 0.41787 0.10551 0.0
C18 C 0.2303 0.42217 0.15204 0.0
C19 C 0.2605 0.49716 0.06617 0.0
N20 N 0.22045 0.50068 0.11167 0.0
H21 H 0.17114 0.46382 0.17938 0.0
H22 H 0.27149 0.52476 0.02657 0.0
H23 H 0.15173 0.46144 0.95338 0.0
H24 H 0.18887 0.59313 0.88465 0.0
O25 O 0.12061 0.52336 0.1037 0.0
O26 O 0.12791 0.59635 0.07404 0.0
O27 O 0.23411 0.59366 0.08127 0.0
C28 C 0.10059 0.56225 0.08635 0.0
H29 H 0.19767 0.65325 0.42293 0.0
H30 H 0.15179 0.45792 0.75889 0.0
H31 H 0.31578 0.45396 1.01904 0.0
H32 H 0.21706 0.39359 0.18619 0.0
Co33 Co 0.45755 0.18942 0.13134 0.0
C34 C 0.45442 0.18692 0.34862 0.0
C35 C 0.43679 0.25389 0.30369 0.0
C36 C 0.43484 0.25563 0.4041 0.0
N37 N 0.44838 0.21059 0.26816 0.0
N38 N 0.44618 0.21359 0.4319 0.0
H39 H 0.46528 0.15117 0.34764 0.0
H40 H 0.43146 0.28284 0.26065 0.0
C41 C 0.36972 0.24087 0.09688 0.0
O42 O 0.3485 0.20614 0.12827 0.0
N43 N 0.46736 0.16846 0.99451 0.0
C44 C 0.494 0.13236 0.96429 0.0
C45 C 0.49492 0.13007 0.86399 0.0
C46 C 0.45255 0.18766 0.9108 0.0
N47 N 0.46974 0.16541 0.83031 0.0
C48 C 0.54703 0.22852 0.20351 0.0
C49 C 0.54494 0.29675 0.07621 0.0
C50 C 0.58456 0.29291 0.14285 0.0
C51 C 0.58547 0.25816 0.20712 0.0
C52 C 0.50772 0.26628 0.07429 0.0
N53 N 0.50886 0.23285 0.13764 0.0
H54 H 0.54794 0.20182 0.25316 0.0
H55 H 0.47819 0.26977 1.0209 0.0
H56 H 0.51245 0.10916 1.0112 0.0
H57 H 0.43098 0.2182 0.90885 0.0
O58 O 0.49132 0.13658 0.17395 0.0
O59 O 0.41531 0.1373 0.13177 0.0
O60 O 0.41304 0.23824 0.08717 0.0
C61 C 0.45202 0.11396 0.16042 0.0
H62 H 0.42756 0.28586 0.45352 0.0
H63 H 0.51282 0.10404 0.81962 0.0
H64 H 0.54255 0.32332 0.0259 0.0
H65 H 0.61574 0.25345 0.25863 0.0
Co66 Co 0.82305 0.56292 0.11207 0.0
C67 C 0.82504 0.56767 0.8947 0.0
C68 C 0.75582 0.56695 0.93759 0.0
C69 C 0.75308 0.5711 0.83812 0.0
N70 N 0.80091 0.56536 0.97366 0.0
N71 N 0.79665 0.57172 0.81088 0.0
H72 H 0.86242 0.56515 0.89785 0.0
H73 H 0.72674 0.56505 0.98066 0.0
C74 C 0.77125 0.65076 0.12882 0.0
O75 O 0.80685 0.66994 0.09582 0.0
N76 N 0.84444 0.56026 0.25137 0.0
C77 C 0.88209 0.53725 0.2881 0.0
C78 C 0.88428 0.54157 0.38928 0.0
C79 C 0.82397 0.57779 0.33179 0.0
N80 N 0.84777 0.56689 0.41643 0.0
C81 C 0.7878 0.47048 0.06362 0.0
C82 C 0.71672 0.47845 0.18519 0.0
C83 C 0.72399 0.43552 0.13199 0.0
C84 C 0.75978 0.43186 0.06968 0.0
C85 C 0.74565 0.51595 0.17772 0.0
N86 N 0.78076 0.51171 0.11774 0.0
H87 H 0.81533 0.46729 1.01556 0.0
H88 H 0.73956 0.5482 0.22103 0.0
H89 H 0.90589 0.51712 0.24519 0.0
H90 H 0.79186 0.59716 0.32908 0.0
O91 O 0.87681 0.52826 0.07568 0.0
O92 O 0.87461 0.60476 0.10212 0.0
O93 O 0.77312 0.60845 0.1461 0.0
C94 C 0.89888 0.56762 0.08192 0.0
H95 H 0.7213 0.57373 0.7898 0.0
H96 H 0.90934 0.5253 0.439 0.0
H97 H 0.68851 0.48331 0.23156 0.0
H98 H 0.76628 0.39938 0.02663 0.0
Co99 Co 0.45639 0.83507 0.11893 0.0
C100 C 0.45765 0.83981 0.90032 0.0
C101 C 0.38907 0.8405 0.94701 0.0
C102 C 0.38515 0.84325 0.8468 0.0
N103 N 0.43448 0.83818 0.98084 0.0
N104 N 0.42832 0.84298 0.81776 0.0
H105 H 0.49494 0.83922 0.90066 0.0
H106 H 0.3606 0.84016 0.99244 0.0
C107 C 0.39837 0.75446 0.17436 0.0
O108 O 0.42358 0.75187 0.25897 0.0
N109 N 0.47744 0.83326 0.2579 0.0
C110 C 0.522 0.82999 0.29709 0.0
C111 C 0.52327 0.83301 0.39804 0.0
C112 C 0.45242 0.84037 0.33631 0.0
N113 N 0.47956 0.83933 0.4228 0.0
C114 C 0.54554 0.81176 0.05451 0.0
C115 C 0.55111 0.72408 0.1155 0.0
C116 C 0.59176 0.74454 0.09094 0.0
C117 C 0.58763 0.7879 0.05429 0.0
C118 C 0.50903 0.74832 0.11029 0.0
N119 N 0.50688 0.79268 0.08472 0.0
H120 H 0.54524 0.84701 0.03601 0.0
H121 H 0.47954 0.73198 0.13359 0.0
H122 H 0.55196 0.82645 0.25588 0.0
H123 H 0.41501 0.84453 0.3297 0.0
O124 O 0.48986 0.89265 0.12423 0.0
O125 O 0.41612 0.88712 0.15285 0.0
O126 O 0.40907 0.78311 0.11524 0.0
C127 C 0.45197 0.91343 0.14707 0.0
H128 H 0.35303 0.84423 0.79879 0.0
H129 H 0.55413 0.83117 0.44954 0.0
H130 H 0.55199 0.69045 0.14336 0.0
H131 H 0.61707 0.80439 0.02898 0.0
C132 C 0.14666 0.52358 0.61078 0.0
C133 C 0.17679 0.54311 0.69194 0.0
C134 C 0.15063 0.53501 0.51497 0.0
C135 C 0.18472 0.56657 0.49683 0.0
H136 H 0.11939 0.4997 0.6216 0.0
H137 H 0.12631 0.51975 0.45488 0.0
S138 S 0.27493 0.62408 0.68163 0.0
N139 N 0.24388 0.59319 0.74631 0.0
N140 N 0.2509 0.61506 0.56639 0.0
C141 C 0.21549 0.58586 0.57685 0.0
C142 C 0.21162 0.57407 0.67436 0.0
C143 C 0.42337 0.19906 0.69265 0.0
C144 C 0.46452 0.17794 0.73021 0.0
C145 C 0.41754 0.21076 0.59505 0.0
C146 C 0.45235 0.20118 0.53134 0.0
H147 H 0.39526 0.20605 0.73854 0.0
H148 H 0.38537 0.2268 0.56856 0.0
S149 S 0.56857 0.15188 0.59524 0.0
N150 N 0.54252 0.15244 0.69721 0.0
N151 N 0.53031 0.17277 0.51344 0.0
C152 C 0.49382 0.18098 0.56796 0.0
C153 C 0.50022 0.16977 0.66746 0.0
C154 C 0.77799 0.55737 0.62939 0.0
C155 C 0.80924 0.57391 0.71174 0.0
C156 C 0.78987 0.55732 0.53259 0.0
C157 C 0.83365 0.57317 0.51445 0.0
H158 H 0.74453 0.54297 0.63952 0.0
H159 H 0.7655 0.54294 0.47164 0.0
S160 S 0.92641 0.62451 0.70034 0.0
N161 N 0.88451 0.61096 0.76594 0.0
N162 N 0.90729 0.60834 0.58392 0.0
C163 C 0.86477 0.59088 0.59487 0.0
C164 C 0.85249 0.59185 0.6935 0.0
C165 C 0.47698 0.81488 0.68648 0.0
C166 C 0.44062 0.84307 0.71839 0.0
C167 C 0.48913 0.81372 0.58984 0.0
C168 C 0.46556 0.84087 0.52124 0.0
H169 H 0.49568 0.79293 0.73622 0.0
H170 H 0.5169 0.79087 0.56825 0.0
S171 S 0.37026 0.92347 0.5705 0.0
N172 N 0.3826 0.90057 0.67555 0.0
N173 N 0.40572 0.89861 0.49373 0.0
C174 C 0.42945 0.86965 0.55245 0.0
C175 C 0.41695 0.87072 0.65105 0.0
C176 C 0.97393 0.5263 0.06751 0.0
C177 C 0.94981 0.5686 0.07465 0.0
C178 C 0.0224 0.52504 0.07016 0.0
C179 C 0.04913 0.56598 0.07919 0.0
H180 H 0.95541 0.49357 0.06223 0.0
H181 H 0.03903 0.4914 0.06587 0.0
S182 S 1.00311 0.68596 0.09464 0.0
N183 N 0.95627 0.65273 0.08727 0.0
N184 N 0.04783 0.65028 0.0911 0.0
C185 C 0.02558 0.60864 0.08313 0.0
C186 C 0.97587 0.60997 0.0812 0.0
C187 C 0.40949 0.98867 0.13558 0.0
C188 C 0.45033 0.9646 0.16323 0.0
C189 C 0.40962 0.03734 0.13849 0.0
C190 C 0.45047 0.06347 0.17017 0.0
H191 H 0.37785 0.96971 0.10725 0.0
H192 H 0.37795 0.05437 0.11245 0.0
S193 S 0.56457 0.01673 0.2647 0.0
N194 N 0.53118 0.97044 0.23268 0.0
N195 N 0.53146 0.06144 0.24002 0.0
C196 C 0.49068 0.03971 0.20386 0.0
C197 C 0.4906 0.99038 0.19984 0.0
C198 C 0.29667 0.28784 0.0813 0.0
C199 C 0.34557 0.28606 0.08989 0.0
C200 C 0.27312 0.33037 0.0846 0.0
C201 C 0.29745 0.37307 0.09911 0.0
H202 H 0.27631 0.25609 0.07243 0.0
H203 H 0.23543 0.32961 0.07582 0.0
S204 S 0.42612 0.38763 0.12797 0.0
N205 N 0.41763 0.33104 0.11038 0.0
N206 N 0.37367 0.41049 0.12476 0.0
C207 C 0.34645 0.37173 0.10751 0.0
C208 C 0.37038 0.32843 0.10088 0.0
C209 C 0.67292 0.37003 0.05093 0.0
C210 C 0.69272 0.39561 0.13805 0.0
C211 C 0.63934 0.33564 0.05375 0.0
C212 C 0.62418 0.3255 0.14374 0.0
H213 H 0.68208 0.37782 0.97963 0.0
H214 H 0.62435 0.31751 0.98452 0.0
S215 S 0.66828 0.37975 0.39345 0.0
N216 N 0.69779 0.40577 0.31758 0.0
N217 N 0.63333 0.34226 0.32256 0.0
C218 C 0.64513 0.34944 0.23175 0.0
C219 C 0.6796 0.3843 0.22893 0.0
C220 C 0.64137 0.67273 0.08846 0.0
C221 C 0.63808 0.72136 0.10582 0.0
C222 C 0.68427 0.65015 0.10101 0.0
C223 C 0.72605 0.67523 0.12819 0.0
H224 H 0.6107 0.65174 0.06307 0.0
H225 H 0.68468 0.61276 0.08618 0.0
S226 S 0.73684 0.80212 0.19607 0.0
N227 N 0.68057 0.79317 0.16509 0.0
N228 N 0.7614 0.7507 0.18037 0.0
C229 C 0.72345 0.72357 0.14841 0.0
C230 C 0.67954 0.7466 0.13903 0.0
C231 C 0.32273 0.73382 0.07186 0.0
C232 C 0.35822 0.7223 0.14369 0.0
C233 C 0.28341 0.70521 0.04431 0.0
C234 C 0.27833 0.66344 0.08602 0.0
H235 H 0.32471 0.76581 0.03812 0.0
H236 H 0.25662 0.71614 0.99037 0.0
S237 S 0.36227 0.61612 0.27419 0.0
N238 N 0.38621 0.66538 0.25394 0.0
N239 N 0.31291 0.61139 0.20142 0.0
C240 C 0.31417 0.65083 0.15604 0.0
C241 C 0.35387 0.68032 0.18515 0.0
loop_
_geom_bond_atom_site_label_1
_geom_bond_atom_site_label_2
_geom_bond_distance
_geom_bond_site_symmetry_2
_ccdc_geom_bond_type
Co0 N4 2.148 . S
Co0 N10 2.128 1_554 S
Co0 N20 2.194 . S
Co0 O25 2.351 . S
Co0 O26 2.155 . S
Co0 O27 2.096 . S
C1 N4 1.301 . S
C1 N5 1.328 . S
C1 H6 0.930 . S
C2 C3 1.333 . S
C2 N4 1.317 . S
C2 H7 0.930 . S
C3 C2 1.333 . S
C3 N5 1.350 . S
C3 H29 0.931 . S
N4 Co0 2.148 . S
N4 C1 1.301 . S
N4 C2 1.317 . S
N5 C1 1.328 . S
N5 C3 1.350 . S
H6 C1 0.930 . S
H7 C2 0.930 . S
C8 O9 1.224 . S
C8 O27 1.247 . S
O9 C8 1.224 . S
N10 Co0 2.128 1_556 S
N10 C11 1.355 . S
N10 C13 1.311 . S
C11 N10 1.355 . S
C11 C12 1.363 . S
C11 H23 0.929 . S
C12 C11 1.363 . S
C12 N14 1.375 . S
C12 H30 0.931 . S
C13 N10 1.311 . S
C13 N14 1.347 . S
C13 H24 0.929 . S
N14 C12 1.375 . S
N14 C13 1.347 . S
C15 C18 1.365 . S
C15 N20 1.328 . S
C15 H21 0.929 . S
C16 C17 1.362 . S
C16 C19 1.378 . S
C16 H31 0.929 . S
C17 C16 1.362 . S
C17 C18 1.366 . S
C18 C15 1.365 . S
C18 C17 1.366 . S
C18 H32 0.930 . S
C19 C16 1.378 . S
C19 N20 1.315 . S
C19 H22 0.930 . S
N20 Co0 2.194 . S
N20 C15 1.328 . S
N20 C19 1.315 . S
H21 C15 0.929 . S
H22 C19 0.930 . S
H23 C11 0.929 . S
H24 C13 0.929 . S
O25 Co0 2.351 . S
O25 C28 1.244 . S
O26 Co0 2.155 . S
O26 C28 1.240 . S
O27 Co0 2.096 . S
O27 C8 1.247 . S
C28 O25 1.244 . S
C28 O26 1.240 . S
H29 C3 0.931 . S
H30 C12 0.931 . S
H31 C16 0.929 . S
H32 C18 0.930 . S
Co33 N37 2.148 . S
Co33 N43 2.128 1_554 S
Co33 N53 2.194 . S
Co33 O58 2.351 . S
Co33 O59 2.155 . S
Co33 O60 2.096 . S
C34 N37 1.301 . S
C34 N38 1.328 . S
C34 H39 0.930 . S
C35 C36 1.333 . S
C35 N37 1.317 . S
C35 H40 0.930 . S
C36 C35 1.333 . S
C36 N38 1.350 . S
C36 H62 0.931 . S
N37 Co33 2.148 . S
N37 C34 1.301 . S
N37 C35 1.317 . S
N38 C34 1.328 . S
N38 C36 1.350 . S
H39 C34 0.930 . S
H40 C35 0.930 . S
C41 O42 1.224 . S
C41 O60 1.247 . S
O42 C41 1.224 . S
N43 Co33 2.128 1_556 S
N43 C44 1.355 . S
N43 C46 1.311 . S
C44 N43 1.355 . S
C44 C45 1.363 . S
C44 H56 0.929 . S
C45 C44 1.363 . S
C45 N47 1.375 . S
C45 H63 0.931 . S
C46 N43 1.311 . S
C46 N47 1.347 . S
C46 H57 0.929 . S
N47 C45 1.375 . S
N47 C46 1.347 . S
C48 C51 1.365 . S
C48 N53 1.328 . S
C48 H54 0.929 . S
C49 C50 1.362 . S
C49 C52 1.378 . S
C49 H64 0.929 . S
C50 C49 1.362 . S
C50 C51 1.366 . S
C51 C48 1.365 . S
C51 C50 1.366 . S
C51 H65 0.930 . S
C52 C49 1.378 . S
C52 N53 1.315 . S
C52 H55 0.930 . S
N53 Co33 2.194 . S
N53 C48 1.328 . S
N53 C52 1.315 . S
H54 C48 0.929 . S
H55 C52 0.930 . S
H56 C44 0.929 . S
H57 C46 0.929 . S
O58 Co33 2.351 . S
O58 C61 1.244 . S
O59 Co33 2.155 . S
O59 C61 1.240 . S
O60 Co33 2.096 . S
O60 C41 1.247 . S
C61 O58 1.244 . S
C61 O59 1.240 . S
H62 C36 0.931 . S
H63 C45 0.931 . S
H64 C49 0.929 . S
H65 C51 0.930 . S
Co66 N70 2.148 1_554 S
Co66 N76 2.128 . S
Co66 N86 2.194 . S
Co66 O91 2.351 . S
Co66 O92 2.155 . S
Co66 O93 2.096 . S
C67 N70 1.301 . S
C67 N71 1.328 . S
C67 H72 0.930 . S
C68 C69 1.333 . S
C68 N70 1.317 . S
C68 H73 0.930 . S
C69 C68 1.333 . S
C69 N71 1.350 . S
C69 H95 0.931 . S
N70 Co66 2.148 1_556 S
N70 C67 1.301 . S
N70 C68 1.317 . S
N71 C67 1.328 . S
N71 C69 1.350 . S
H72 C67 0.930 . S
H73 C68 0.930 . S
C74 O75 1.224 . S
C74 O93 1.247 . S
O75 C74 1.224 . S
N76 Co66 2.128 . S
N76 C77 1.355 . S
N76 C79 1.311 . S
C77 N76 1.355 . S
C77 C78 1.363 . S
C77 H89 0.929 . S
C78 C77 1.363 . S
C78 N80 1.375 . S
C78 H96 0.931 . S
C79 N76 1.311 . S
C79 N80 1.347 . S
C79 H90 0.929 . S
N80 C78 1.375 . S
N80 C79 1.347 . S
C81 C84 1.365 . S
C81 N86 1.328 . S
C81 H87 0.929 . S
C82 C83 1.362 . S
C82 C85 1.378 . S
C82 H97 0.929 . S
C83 C82 1.362 . S
C83 C84 1.366 . S
C84 C81 1.365 . S
C84 C83 1.366 . S
C84 H98 0.930 . S
C85 C82 1.378 . S
C85 N86 1.315 . S
C85 H88 0.930 . S
N86 Co66 2.194 . S
N86 C81 1.328 . S
N86 C85 1.315 . S
H87 C81 0.929 . S
H88 C85 0.930 . S
H89 C77 0.929 . S
H90 C79 0.929 . S
O91 Co66 2.351 . S
O91 C94 1.244 . S
O92 Co66 2.155 . S
O92 C94 1.240 . S
O93 Co66 2.096 . S
O93 C74 1.247 . S
C94 O91 1.244 . S
C94 O92 1.240 . S
H95 C69 0.931 . S
H96 C78 0.931 . S
H97 C82 0.929 . S
H98 C84 0.930 . S
Co99 N103 2.148 1_554 S
Co99 N109 2.128 . S
Co99 N119 2.194 . S
Co99 O124 2.351 . S
Co99 O125 2.155 . S
Co99 O126 2.096 . S
C100 N103 1.301 . S
C100 N104 1.328 . S
C100 H105 0.930 . S
C101 C102 1.333 . S
C101 N103 1.317 . S
C101 H106 0.930 . S
C102 C101 1.333 . S
C102 N104 1.350 . S
C102 H128 0.931 . S
N103 Co99 2.148 1_556 S
N103 C100 1.301 . S
N103 C101 1.317 . S
N104 C100 1.328 . S
N104 C102 1.350 . S
H105 C100 0.930 . S
H106 C101 0.930 . S
C107 O108 1.224 . S
C107 O126 1.247 . S
O108 C107 1.224 . S
N109 Co99 2.128 . S
N109 C110 1.355 . S
N109 C112 1.311 . S
C110 N109 1.355 . S
C110 C111 1.363 . S
C110 H122 0.929 . S
C111 C110 1.363 . S
C111 N113 1.375 . S
C111 H129 0.931 . S
C112 N109 1.311 . S
C112 N113 1.347 . S
C112 H123 0.929 . S
N113 C111 1.375 . S
N113 C112 1.347 . S
C114 C117 1.365 . S
C114 N119 1.328 . S
C114 H120 0.929 . S
C115 C116 1.362 . S
C115 C118 1.378 . S
C115 H130 0.929 . S
C116 C115 1.362 . S
C116 C117 1.366 . S
C117 C114 1.365 . S
C117 C116 1.366 . S
C117 H131 0.930 . S
C118 C115 1.378 . S
C118 N119 1.315 . S
C118 H121 0.930 . S
N119 Co99 2.194 . S
N119 C114 1.328 . S
N119 C118 1.315 . S
H120 C114 0.929 . S
H121 C118 0.930 . S
H122 C110 0.929 . S
H123 C112 0.929 . S
O124 Co99 2.351 . S
O124 C127 1.244 . S
O125 Co99 2.155 . S
O125 C127 1.240 . S
O126 Co99 2.096 . S
O126 C107 1.247 . S
C127 O124 1.244 . S
C127 O125 1.240 . S
H128 C102 0.931 . S
H129 C111 0.931 . S
H130 C115 0.929 . S
H131 C117 0.930 . S
C132 C133 1.369 . S
C132 C134 1.419 . S
C132 H136 0.930 . S
C133 C132 1.369 . S
C133 C142 1.429 . S
C134 C132 1.419 . S
C134 C135 1.363 . S
C134 H137 0.929 . S
C135 C134 1.363 . S
C135 C141 1.428 . S
H136 C132 0.930 . S
H137 C134 0.929 . S
S138 N139 1.613 . S
S138 N140 1.610 . S
N139 S138 1.613 . S
N139 C142 1.350 . S
N140 S138 1.610 . S
N140 C141 1.351 . S
C141 C135 1.428 . S
C141 N140 1.351 . S
C141 C142 1.434 . S
C142 C133 1.429 . S
C142 N139 1.350 . S
C142 C141 1.434 . S
C143 C144 1.369 . S
C143 C145 1.419 . S
C143 H147 0.930 . S
C144 C143 1.369 . S
C144 C153 1.429 . S
C145 C143 1.419 . S
C145 C146 1.363 . S
C145 H148 0.929 . S
C146 C145 1.363 . S
C146 C152 1.428 . S
H147 C143 0.930 . S
H148 C145 0.929 . S
S149 N150 1.613 . S
S149 N151 1.610 . S
N150 S149 1.613 . S
N150 C153 1.350 . S
N151 S149 1.610 . S
N151 C152 1.351 . S
C152 C146 1.428 . S
C152 N151 1.351 . S
C152 C153 1.434 . S
C153 C144 1.429 . S
C153 N150 1.350 . S
C153 C152 1.434 . S
C154 C155 1.369 . S
C154 C156 1.419 . S
C154 H158 0.930 . S
C155 C154 1.369 . S
C155 C164 1.429 . S
C156 C154 1.419 . S
C156 C157 1.363 . S
C156 H159 0.929 . S
C157 C156 1.363 . S
C157 C163 1.428 . S
H158 C154 0.930 . S
H159 C156 0.929 . S
S160 N161 1.613 . S
S160 N162 1.610 . S
N161 S160 1.613 . S
N161 C164 1.350 . S
N162 S160 1.610 . S
N162 C163 1.351 . S
C163 C157 1.428 . S
C163 N162 1.351 . S
C163 C164 1.434 . S
C164 C155 1.429 . S
C164 N161 1.350 . S
C164 C163 1.434 . S
C165 C166 1.369 . S
C165 C167 1.419 . S
C165 H169 0.930 . S
C166 C165 1.369 . S
C166 C175 1.429 . S
C167 C165 1.419 . S
C167 C168 1.363 . S
C167 H170 0.929 . S
C168 C167 1.363 . S
C168 C174 1.428 . S
H169 C165 0.930 . S
H170 C167 0.929 . S
S171 N172 1.613 . S
S171 N173 1.610 . S
N172 S171 1.613 . S
N172 C175 1.350 . S
N173 S171 1.610 . S
N173 C174 1.351 . S
C174 C168 1.428 . S
C174 N173 1.351 . S
C174 C175 1.434 . S
C175 C166 1.429 . S
C175 N172 1.350 . S
C175 C174 1.434 . S
C176 C177 1.369 . S
C176 C178 1.419 1_655 S
C176 H180 0.930 . S
C177 C176 1.369 . S
C177 C186 1.429 . S
C178 C176 1.419 1_455 S
C178 C179 1.363 . S
C178 H181 0.929 . S
C179 C178 1.363 . S
C179 C185 1.428 . S
H180 C176 0.930 . S
H181 C178 0.929 . S
S182 N183 1.613 . S
S182 N184 1.610 1_655 S
N183 S182 1.613 . S
N183 C186 1.350 . S
N184 S182 1.610 1_455 S
N184 C185 1.351 . S
C185 C179 1.428 . S
C185 N184 1.351 . S
C185 C186 1.434 1_455 S
C186 C177 1.429 . S
C186 N183 1.350 . S
C186 C185 1.434 1_655 S
C187 C188 1.369 . S
C187 C189 1.419 1_565 S
C187 H191 0.930 1_554 S
C188 C187 1.369 . S
C188 C197 1.429 1_565 S
C189 C187 1.419 1_545 S
C189 C190 1.363 . S
C189 H192 0.929 1_554 S
C190 C189 1.363 . S
C190 C196 1.428 . S
H191 C187 0.930 1_556 S
H192 C189 0.929 1_556 S
S193 N194 1.613 1_545 S
S193 N195 1.610 . S
N194 S193 1.613 1_565 S
N194 C197 1.350 1_565 S
N195 S193 1.610 . S
N195 C196 1.351 . S
C196 C190 1.428 . S
C196 N195 1.351 . S
C196 C197 1.434 . S
C197 C188 1.429 1_545 S
C197 N194 1.350 1_545 S
C197 C196 1.434 . S
C198 C199 1.369 1_556 S
C198 C200 1.419 . S
C198 H202 0.930 . S
C199 C198 1.369 1_554 S
C199 C208 1.429 . S
C200 C198 1.419 . S
C200 C201 1.363 1_556 S
C200 H203 0.929 . S
C201 C200 1.363 1_554 S
C201 C207 1.428 . S
H202 C198 0.930 . S
H203 C200 0.929 . S
S204 N205 1.613 . S
S204 N206 1.610 . S
N205 S204 1.613 . S
N205 C208 1.350 . S
N206 S204 1.610 . S
N206 C207 1.351 . S
C207 C201 1.428 . S
C207 N206 1.351 . S
C207 C208 1.434 . S
C208 C199 1.429 . S
C208 N205 1.350 . S
C208 C207 1.434 . S
C209 C210 1.369 . S
C209 C211 1.419 . S
C209 H213 0.930 1_554 S
C210 C209 1.369 . S
C210 C219 1.429 . S
C211 C209 1.419 . S
C211 C212 1.363 . S
C211 H214 0.929 1_554 S
C212 C211 1.363 . S
C212 C218 1.428 . S
H213 C209 0.930 1_556 S
H214 C211 0.929 1_556 S
S215 N216 1.613 . S
S215 N217 1.610 . S
N216 S215 1.613 . S
N216 C219 1.350 . S
N217 S215 1.610 . S
N217 C218 1.351 . S
C218 C212 1.428 . S
C218 N217 1.351 . S
C218 C219 1.434 . S
C219 C210 1.429 . S
C219 N216 1.350 . S
C219 C218 1.434 . S
C220 C221 1.369 . S
C220 C222 1.419 . S
C220 H224 0.930 . S
C221 C220 1.369 . S
C221 C230 1.429 . S
C222 C220 1.419 . S
C222 C223 1.363 . S
C222 H225 0.929 . S
C223 C222 1.363 . S
C223 C229 1.428 . S
H224 C220 0.930 . S
H225 C222 0.929 . S
S226 N227 1.613 . S
S226 N228 1.610 . S
N227 S226 1.613 . S
N227 C230 1.350 . S
N228 S226 1.610 . S
N228 C229 1.351 . S
C229 C223 1.428 . S
C229 N228 1.351 . S
C229 C230 1.434 . S
C230 C221 1.429 . S
C230 N227 1.350 . S
C230 C229 1.434 . S
C231 C232 1.369 . S
C231 C233 1.419 . S
C231 H235 0.930 . S
C232 C231 1.369 . S
C232 C241 1.429 . S
C233 C231 1.419 . S
C233 C234 1.363 . S
C233 H236 0.929 . S
C234 C233 1.363 . S
C234 C240 1.428 . S
H235 C231 0.930 . S
H236 C233 0.929 . S
S237 N238 1.613 . S
S237 N239 1.610 . S
N238 S237 1.613 . S
N238 C241 1.350 . S
N239 S237 1.610 . S
N239 C240 1.351 . S
C240 C234 1.428 . S
C240 N239 1.351 . S
C240 C241 1.434 . S
C241 C232 1.429 . S
C241 N238 1.350 . S
C241 C240 1.434 . S
C133 N14 1.460 . S
C135 N5 1.460 . S
C144 N47 1.464 . S
C146 N38 1.475 . S
C155 N71 1.477 . S
C157 N80 1.462 . S
C166 N104 1.461 . S
C168 N113 1.458 . S
C177 C94 1.101 . S
C179 C28 1.101 . S
C188 C127 1.102 . S
C190 C61 1.100 . S
C199 C41 1.519 . S
C201 C17 1.558 . S
C210 C83 1.298 . S
C212 C50 1.298 . S
C221 C116 1.560 . S
C223 C74 1.525 . S
C232 C107 1.847 . S
C234 C8 1.848 . S
