# Generated by pormake.
# Topology lon, (4)-cn, num edge types: 1
# Building blocks:
#     Node 0, Type 0, BuildingBlock: ICAMEG_clean_sbu_1, # of connection points: 4
#     Node 1, Type 0, BuildingBlock: ICAMEG_clean_sbu_1, # of connection points: 4
#     Node 2, Type 0, BuildingBlock: ICAMEG_clean_sbu_1, # of connection points: 4
#     Node 3, Type 0, BuildingBlock: ICAMEG_clean_sbu_1, # of connection points: 4
#     Edge 4, Type (0, 0), BuildingBlock: EYOCIG_clean_linker_4, # of connection points: 2
#     Edge 5, Type (0, 0), BuildingBlock: EYOCIG_clean_linker_4, # of connection points: 2
#     Edge 6, Type (0, 0), BuildingBlock: EYOCIG_clean_linker_4, # of connection points: 2
#     Edge 7, Type (0, 0), BuildingBlock: EYOCIG_clean_linker_4, # of connection points: 2
#     Edge 8, Type (0, 0), BuildingBlock: EYOCIG_clean_linker_4, # of connection points: 2
#     Edge 9, Type (0, 0), BuildingBlock: EYOCIG_clean_linker_4, # of connection points: 2
#     Edge 10, Type (0, 0), BuildingBlock: EYOCIG_clean_linker_4, # of connection points: 2
#     Edge 11, Type (0, 0), BuildingBlock: EYOCIG_clean_linker_4, # of connection points: 2
# Relax obj value: 0.244
# Max RMSD: 0.268
# Mean RMSD: 0.258
data_MOF--net-lon--node1-ICAMEG_clean_sbu_1--edge1-EYOCIG_clean_linker_4
_symmetry_space_group_name_H-M    P1
_symmetry_Int_Tables_number       1
_symmetry_cell_setting            triclinic
loop_
_symmetry_equiv_pos_as_xyz
'x, y, z'
_cell_length_a     17.533571
_cell_length_b     20.601667
_cell_length_c     34.329526
_cell_angle_alpha  95.850953
_cell_angle_beta   89.994391
_cell_angle_gamma 115.20797
loop_
_atom_site_label
_atom_site_type_symbol
_atom_site_fract_x
_atom_site_fract_y
_atom_site_fract_z
_atom_type_partial_charge
Co0 Co 0.3638 0.73724 0.05765 0.0
Co1 Co 0.39655 0.65912 0.13601 0.0
O2 O 0.40402 0.74388 0.11191 0.0
C3 C 0.53739 0.85613 0.05975 0.0
O4 O 0.56697 0.81516 0.07505 0.0
C5 C 0.32297 0.72891 0.19589 0.0
O6 O 0.27516 0.73479 0.16836 0.0
O7 O 0.27276 0.60891 0.12224 0.0
O8 O 0.26564 0.64185 0.06238 0.0
H9 H 0.30614 0.39389 0.14169 0.0
H10 H 0.39445 0.86743 0.11254 0.0
O11 O 0.45895 0.83352 0.05146 0.0
H12 H 0.09509 0.76966 0.06792 0.0
H13 H 0.29854 0.8351 0.93976 0.0
H14 H 0.29926 0.62067 0.99151 0.0
H15 H 0.18383 0.70981 0.04332 0.0
H16 H 0.34739 0.8421 1.0081 0.0
O17 O 0.37368 0.70059 0.18779 0.0
H18 H 0.31771 0.50146 0.11175 0.0
H19 H 0.45645 0.63731 0.21295 0.0
H20 H 0.24913 0.61109 0.92307 0.0
H21 H 0.30811 0.92946 0.1376 0.0
H22 H 0.24846 0.71883 0.89682 0.0
H23 H 0.15724 0.88045 0.11532 0.0
O24 O 0.43552 0.68805 1.03864 0.0
H25 H 0.66335 0.87109 0.18894 0.0
H26 H 0.54098 0.6185 0.12812 0.0
H27 H 0.69403 0.68178 0.14411 0.0
H28 H 0.75616 0.80894 0.17486 0.0
H29 H 0.51061 0.80596 0.17213 0.0
H30 H 0.44565 0.53122 0.24413 0.0
H31 H 0.37048 0.40846 0.20834 0.0
O32 O 0.42229 0.6157 0.08547 0.0
C33 C 0.23281 0.60383 0.0902 0.0
C34 C 0.33928 0.44712 0.15753 0.0
C35 C 0.41749 0.52419 0.21504 0.0
N36 N 0.38822 0.57559 0.16044 0.0
C37 C 0.34621 0.50821 0.14069 0.0
C38 C 0.42318 0.58404 0.19727 0.0
C39 C 0.37533 0.45532 0.19494 0.0
C40 C 0.32901 0.84612 0.10249 0.0
N41 N 0.2944 0.78526 0.07639 0.0
C42 C 0.28036 0.88132 0.11688 0.0
C43 C 0.19569 0.85375 0.10441 0.0
C44 C 0.16076 0.79156 0.07784 0.0
C45 C 0.21131 0.75778 0.0641 0.0
C46 C 0.29839 0.78774 0.95088 0.0
C47 C 0.29882 0.66769 0.98032 0.0
C48 C 0.32621 0.79142 0.98952 0.0
N49 N 0.3256 0.73168 1.00385 0.0
C50 C 0.27055 0.66199 0.94153 0.0
C51 C 0.27027 0.72248 0.92681 0.0
C52 C 0.44647 0.6371 0.05215 0.0
C53 C 0.63699 0.81563 0.17564 0.0
C54 C 0.56752 0.67394 0.14132 0.0
C55 C 0.65424 0.70943 0.15041 0.0
C56 C 0.68905 0.78076 0.16769 0.0
N57 N 0.51681 0.70844 0.14933 0.0
C58 C 0.55053 0.77842 0.16617 0.0
Co59 Co 0.61831 0.32135 0.55748 0.0
Co60 Co 0.74598 0.32536 0.63427 0.0
O61 O 0.65412 0.34396 0.61322 0.0
C62 C 0.63794 0.47227 0.57549 0.0
O63 O 0.71189 0.4901 0.59281 0.0
C64 C 0.6097 0.26399 0.69042 0.0
O65 O 0.55482 0.22921 0.66107 0.0
O66 O 0.68706 0.22194 0.61196 0.0
O67 O 0.63989 0.23279 0.55314 0.0
H68 H 0.95956 0.2223 0.62884 0.0
H69 H 0.50455 0.34416 0.61556 0.0
O70 O 0.5934 0.40808 0.56011 0.0
H71 H 0.34204 0.0987 0.54867 0.0
H72 H 0.43473 0.30143 0.43983 0.0
H73 H 0.68444 0.27381 0.48608 0.0
H74 H 0.48655 0.17342 0.53004 0.0
H75 H 0.47807 0.32578 0.51014 0.0
O76 O 0.6867 0.30271 0.68454 0.0
H77 H 0.84628 0.24875 0.60241 0.0
H78 H 0.83704 0.35916 0.71249 0.0
H79 H 0.64283 0.2482 0.41554 0.0
H80 H 0.35974 0.27153 0.63483 0.0
H81 H 0.51717 0.26204 0.39202 0.0
H82 H 0.27757 0.14779 0.60134 0.0
O83 O 0.73607 0.38078 0.54325 0.0
H84 H 0.76236 0.55566 0.70708 0.0
H85 H 0.92234 0.44025 0.63376 0.0
H86 H 0.99457 0.56879 0.65981 0.0
H87 H 0.91455 0.62728 0.69692 0.0
H88 H 0.69228 0.42743 0.68007 0.0
H89 H 0.94971 0.33346 0.74017 0.0
H90 H 1.01199 0.26479 0.6982 0.0
O91 O 0.81007 0.35003 0.5853 0.0
C92 C 0.65588 0.19645 0.57718 0.0
C93 C 0.93309 0.25244 0.64739 0.0
C94 C 0.92749 0.31474 0.70989 0.0
N95 N 0.83546 0.30585 0.65578 0.0
C96 C 0.86908 0.26772 0.63256 0.0
C97 C 0.86354 0.32898 0.69407 0.0
C98 C 0.96242 0.27624 0.68632 0.0
C99 C 0.4689 0.29059 0.60064 0.0
N100 N 0.50386 0.26324 0.57161 0.0
C101 C 0.38706 0.24961 0.61177 0.0
C102 C 0.34103 0.18015 0.593 0.0
C103 C 0.37718 0.15256 0.56347 0.0
C104 C 0.45916 0.19508 0.55313 0.0
C105 C 0.4895 0.29506 0.44973 0.0
C106 C 0.62936 0.27948 0.47609 0.0
C107 C 0.51448 0.30894 0.4895 0.0
N108 N 0.58342 0.30074 0.50223 0.0
C109 C 0.60624 0.2651 0.4361 0.0
C110 C 0.53578 0.27295 0.42292 0.0
C111 C 0.80414 0.37948 0.55524 0.0
C112 C 0.79796 0.53073 0.69106 0.0
C113 C 0.88688 0.46536 0.64966 0.0
C114 C 0.92824 0.53814 0.66446 0.0
C115 C 0.88332 0.57091 0.6853 0.0
N116 N 0.80315 0.42623 0.6555 0.0
C117 C 0.75869 0.45806 0.67583 0.0
Co118 Co 0.32195 0.72835 0.52052 0.0
Co119 Co 0.44572 0.72448 0.44374 0.0
O120 O 0.33521 0.7058 0.46477 0.0
C121 C 0.19058 0.57742 0.50246 0.0
O122 O 0.24672 0.55962 0.48514 0.0
C123 C 0.37084 0.78581 0.38759 0.0
O124 O 0.35072 0.82057 0.41694 0.0
O125 O 0.49019 0.82788 0.46607 0.0
O126 O 0.43214 0.81694 0.52488 0.0
H127 H 0.76246 0.82773 0.44923 0.0
H128 H 0.1854 0.70555 0.46242 0.0
O129 O 0.21026 0.6416 0.51785 0.0
H130 H 0.2684 0.95094 0.52938 0.0
H131 H 0.15815 0.74808 0.63815 0.0
H132 H 0.43558 0.77585 0.59193 0.0
H133 H 0.33814 0.87623 0.548 0.0
H134 H 0.17721 0.72382 0.56784 0.0
O135 O 0.40913 0.74713 0.39347 0.0
H136 H 0.62265 0.80118 0.47563 0.0
H137 H 0.50309 0.69078 0.36553 0.0
H138 H 0.41952 0.80137 0.66247 0.0
H139 H 0.11327 0.77817 0.44316 0.0
H140 H 0.27997 0.78746 0.68598 0.0
H141 H 0.15487 0.90188 0.47669 0.0
O142 O 0.38025 0.66892 0.53472 0.0
H143 H 0.23182 0.49414 0.37088 0.0
H144 H 0.50722 0.60967 0.44424 0.0
H145 H 0.45093 0.48115 0.41817 0.0
H146 H 0.31242 0.4226 0.38104 0.0
H147 H 0.28995 0.62236 0.39791 0.0
H148 H 0.64155 0.7166 0.33787 0.0
H149 H 0.77249 0.78531 0.37987 0.0
O150 O 0.4851 0.69981 0.49271 0.0
C151 C 0.48448 0.85333 0.50085 0.0
C152 C 0.70585 0.79757 0.43067 0.0
C153 C 0.638 0.73528 0.36815 0.0
N154 N 0.55478 0.74408 0.42225 0.0
C155 C 0.62651 0.78223 0.44548 0.0
C156 C 0.55977 0.72099 0.38396 0.0
C157 C 0.71144 0.77381 0.39174 0.0
C158 C 0.20334 0.7591 0.47735 0.0
N159 N 0.26564 0.78644 0.50639 0.0
C160 C 0.1625 0.80007 0.46623 0.0
C161 C 0.18594 0.86952 0.48502 0.0
C162 C 0.24967 0.8971 0.51456 0.0
C163 C 0.28911 0.85459 0.5249 0.0
C164 C 0.21931 0.75448 0.62825 0.0
C165 C 0.37481 0.77014 0.60191 0.0
C166 C 0.23046 0.74066 0.58849 0.0
N167 N 0.30761 0.74889 0.57576 0.0
C168 C 0.36603 0.78447 0.6419 0.0
C169 C 0.28769 0.77659 0.65508 0.0
C170 C 0.44965 0.67028 0.52275 0.0
C171 C 0.29236 0.5191 0.38691 0.0
C172 C 0.44666 0.58454 0.42833 0.0
C173 C 0.41524 0.51177 0.41352 0.0
C174 C 0.33755 0.47897 0.39267 0.0
N175 N 0.40204 0.62363 0.42249 0.0
C176 C 0.32574 0.59177 0.40215 0.0
Co177 Co 0.65139 0.31274 1.02032 0.0
Co178 Co 0.76231 0.39084 0.94195 0.0
O179 O 0.68498 0.3061 0.96607 0.0
C180 C 0.70616 0.19396 1.01823 0.0
O181 O 0.77671 0.23497 1.00292 0.0
C182 C 0.61883 0.32102 0.88211 0.0
O183 O 0.56515 0.31514 0.90965 0.0
O184 O 0.6888 0.44107 0.95573 0.0
O185 O 0.6486 0.40808 1.01558 0.0
H186 H 0.93737 0.65606 0.93621 0.0
H187 H 0.55182 0.18249 0.96546 0.0
O188 O 0.65029 0.2165 1.02653 0.0
H189 H 0.35016 0.28011 1.01007 0.0
H190 H 0.48825 0.21487 0.13824 0.0
H191 H 0.70343 0.42935 0.08645 0.0
H192 H 0.4988 0.34006 1.03465 0.0
H193 H 0.53012 0.20787 0.0699 0.0
O194 O 0.69789 0.34935 0.89018 0.0
H195 H 0.8413 0.54851 0.96618 0.0
H196 H 0.84396 0.41261 0.86498 0.0
H197 H 0.66286 0.43894 0.15489 0.0
H198 H 0.40341 0.12036 0.94042 0.0
H199 H 0.55444 0.33117 0.18116 0.0
H200 H 0.30151 0.16929 0.96268 0.0
O201 O 0.77234 0.36201 0.03933 0.0
H202 H 0.81689 0.17884 0.88899 0.0
H203 H 0.94739 0.43144 0.94979 0.0
H204 H 0.03709 0.36815 0.93377 0.0
H205 H 0.97191 0.24097 0.90303 0.0
H206 H 0.72936 0.24398 0.90582 0.0
H207 H 0.93931 0.51867 0.83377 0.0
H208 H 0.98705 0.64145 0.86955 0.0
O209 O 0.83155 0.43428 0.99246 0.0
C210 C 0.65389 0.44613 0.98777 0.0
C211 C 0.91721 0.60282 0.92038 0.0
C212 C 0.91822 0.52572 0.86286 0.0
N213 N 0.83756 0.47436 0.9175 0.0
C214 C 0.86301 0.54174 0.93724 0.0
C215 C 0.86402 0.46588 0.88065 0.0
C216 C 0.94501 0.5946 0.88296 0.0
C217 C 0.50768 0.20377 0.9755 0.0
N218 N 0.53393 0.26465 1.00159 0.0
C219 C 0.4238 0.16851 0.96113 0.0
C220 C 0.36668 0.19604 0.97359 0.0
C221 C 0.39395 0.25824 1.00015 0.0
C222 C 0.4783 0.29208 1.01388 0.0
C223 C 0.53546 0.26224 0.12711 0.0
C224 C 0.65595 0.38231 0.09764 0.0
C225 C 0.55961 0.25855 0.08847 0.0
N226 N 0.61874 0.3183 0.07413 0.0
C227 C 0.63338 0.38802 0.13644 0.0
C228 C 0.5726 0.32751 0.15117 0.0
C229 C 0.83429 0.41292 1.0258 0.0
C230 C 0.84605 0.2343 0.90229 0.0
C231 C 0.91843 0.376 0.93659 0.0
C232 C 0.96962 0.3405 0.92749 0.0
C233 C 0.93302 0.26916 0.91022 0.0
N234 N 0.83318 0.3415 0.92861 0.0
C235 C 0.79685 0.27152 0.91177 0.0
C236 C 0.32211 0.76967 0.27134 0.0
C237 C 0.318 0.7529 0.23634 0.0
C238 C 0.33326 0.7831 0.31278 0.0
C239 C 0.34731 0.78813 0.34771 0.0
C240 C 0.57481 0.26674 0.76523 0.0
C241 C 0.58383 0.26168 0.73029 0.0
C242 C 0.57711 0.28019 0.80666 0.0
C243 C 0.58981 0.29699 0.84166 0.0
C244 C 0.5317 0.57201 1.01497 0.0
C245 C 0.49336 0.60403 1.03014 0.0
C246 C 0.5776 0.5323 1.00135 0.0
C247 C 0.6139 0.49466 0.99285 0.0
C248 C 0.03295 0.48549 0.51127 0.0
C249 C 0.10579 0.5239 0.50592 0.0
C250 C 0.94904 0.44619 0.52211 0.0
C251 C 0.88067 0.4168 0.53567 0.0
C252 C 0.66755 0.06094 1.03402 0.0
C253 C 0.69001 0.12195 1.02595 0.0
C254 C 0.63172 0.9892 0.04398 0.0
C255 C 0.59322 0.92817 0.05204 0.0
C256 C 0.5723 0.56419 0.56667 0.0
C257 C 0.60669 0.52577 0.57201 0.0
C258 C 0.52774 0.60351 0.55584 0.0
C259 C 0.48882 0.63293 0.54229 0.0
C260 C 0.07028 0.5177 0.07661 0.0
C261 C 0.14425 0.55532 0.08512 0.0
C262 C 0.98465 0.47802 0.06298 0.0
C263 C 0.91427 0.44601 0.04781 0.0
C264 C 0.61135 0.06062 0.54862 0.0
C265 C 0.63364 0.12176 0.56393 0.0
C266 C 0.57567 0.98919 0.52942 0.0
C267 C 0.53687 0.92804 0.51411 0.0
loop_
_geom_bond_atom_site_label_1
_geom_bond_atom_site_label_2
_geom_bond_distance
_geom_bond_site_symmetry_2
_ccdc_geom_bond_type
Co0 O2 2.143 . S
Co0 O8 2.074 . S
Co0 O11 2.093 . S
Co0 O24 2.097 . S
Co0 N41 2.151 . S
Co0 N49 2.214 1_554 S
Co1 O2 2.160 . S
Co1 O7 2.058 . S
Co1 O17 2.057 . S
Co1 O32 2.037 . S
Co1 N36 2.145 . S
Co1 N57 2.257 . S
O2 Co0 2.143 . S
O2 Co1 2.160 . S
C3 O4 1.278 . S
C3 O11 1.224 . S
O4 C3 1.278 . S
C5 O6 1.245 . S
C5 O17 1.232 . S
O6 C5 1.245 . S
O7 Co1 2.058 . S
O7 C33 1.269 . S
O8 Co0 2.074 . S
O8 C33 1.257 . S
H9 C34 0.930 . S
H10 C40 0.930 . S
O11 Co0 2.093 . S
O11 C3 1.224 . S
H12 C44 0.929 1_556 S
H13 C46 0.930 . S
H14 C47 0.930 . S
H15 C45 0.929 1_556 S
H16 C48 0.928 . S
O17 Co1 2.057 . S
O17 C5 1.232 . S
H18 C37 0.929 . S
H19 C38 0.929 . S
H20 C50 0.931 . S
H21 C42 0.929 . S
H22 C51 0.930 . S
H23 C43 0.931 . S
O24 Co0 2.097 . S
O24 C52 1.214 . S
H25 C53 0.929 . S
H26 C54 0.929 . S
H27 C55 0.930 . S
H28 C56 0.929 . S
H29 C58 0.930 . S
H30 C35 0.930 . S
H31 C39 0.930 . S
O32 Co1 2.037 . S
O32 C52 1.234 . S
C33 O7 1.269 . S
C33 O8 1.257 . S
C34 H9 0.930 . S
C34 C37 1.388 . S
C34 C39 1.418 . S
C35 H30 0.930 . S
C35 C38 1.404 . S
C35 C39 1.353 . S
N36 Co1 2.145 . S
N36 C37 1.397 . S
N36 C38 1.334 . S
C37 H18 0.929 . S
C37 C34 1.388 . S
C37 N36 1.397 . S
C38 H19 0.929 . S
C38 C35 1.404 . S
C38 N36 1.334 . S
C39 H31 0.930 . S
C39 C34 1.418 . S
C39 C35 1.353 . S
C40 H10 0.930 . S
C40 N41 1.330 . S
C40 C42 1.446 . S
N41 Co0 2.151 . S
N41 C40 1.330 . S
N41 C45 1.418 . S
C42 H21 0.929 . S
C42 C40 1.446 . S
C42 C43 1.332 . S
C43 H23 0.931 . S
C43 C42 1.332 . S
C43 C44 1.267 . S
C44 H12 0.929 1_554 S
C44 C43 1.267 . S
C44 C45 1.251 . S
C45 H15 0.929 1_554 S
C45 N41 1.418 . S
C45 C44 1.251 . S
C46 H13 0.930 . S
C46 C48 1.406 . S
C46 C51 1.261 . S
C47 H14 0.930 . S
C47 N49 1.325 . S
C47 C50 1.357 . S
C48 H16 0.928 . S
C48 C46 1.406 . S
C48 N49 1.261 . S
N49 Co0 2.214 1_556 S
N49 C47 1.325 . S
N49 C48 1.261 . S
C50 H20 0.931 . S
C50 C47 1.357 . S
C50 C51 1.312 . S
C51 H22 0.930 . S
C51 C46 1.261 . S
C51 C50 1.312 . S
C52 O24 1.214 . S
C52 O32 1.234 . S
C53 H25 0.929 . S
C53 C56 1.391 . S
C53 C58 1.391 . S
C54 H26 0.929 . S
C54 C55 1.390 . S
C54 N57 1.391 . S
C55 H27 0.930 . S
C55 C54 1.390 . S
C55 C56 1.392 . S
C56 H28 0.929 . S
C56 C53 1.391 . S
C56 C55 1.392 . S
N57 Co1 2.257 . S
N57 C54 1.391 . S
N57 C58 1.388 . S
C58 H29 0.930 . S
C58 C53 1.391 . S
C58 N57 1.388 . S
Co59 O61 2.143 . S
Co59 O67 2.074 . S
Co59 O70 2.093 . S
Co59 O83 2.097 . S
Co59 N100 2.151 . S
Co59 N108 2.214 . S
Co60 O61 2.160 . S
Co60 O66 2.058 . S
Co60 O76 2.057 . S
Co60 O91 2.037 . S
Co60 N95 2.145 . S
Co60 N116 2.257 . S
O61 Co59 2.143 . S
O61 Co60 2.160 . S
C62 O63 1.278 . S
C62 O70 1.224 . S
O63 C62 1.278 . S
C64 O65 1.245 . S
C64 O76 1.232 . S
O65 C64 1.245 . S
O66 Co60 2.058 . S
O66 C92 1.269 . S
O67 Co59 2.074 . S
O67 C92 1.257 . S
H68 C93 0.930 . S
H69 C99 0.930 . S
O70 Co59 2.093 . S
O70 C62 1.224 . S
H71 C103 0.929 . S
H72 C105 0.930 . S
H73 C106 0.930 . S
H74 C104 0.929 . S
H75 C107 0.928 . S
O76 Co60 2.057 . S
O76 C64 1.232 . S
H77 C96 0.929 . S
H78 C97 0.929 . S
H79 C109 0.931 . S
H80 C101 0.929 . S
H81 C110 0.930 . S
H82 C102 0.931 . S
O83 Co59 2.097 . S
O83 C111 1.214 . S
H84 C112 0.929 . S
H85 C113 0.929 . S
H86 C114 0.930 . S
H87 C115 0.929 . S
H88 C117 0.930 . S
H89 C94 0.930 . S
H90 C98 0.933 . S
O91 Co60 2.037 . S
O91 C111 1.234 . S
C92 O66 1.269 . S
C92 O67 1.257 . S
C93 H68 0.930 . S
C93 C96 1.388 . S
C93 C98 1.418 . S
C94 H89 0.930 . S
C94 C97 1.404 . S
C94 C98 1.353 . S
N95 Co60 2.145 . S
N95 C96 1.397 . S
N95 C97 1.334 . S
C96 H77 0.929 . S
C96 C93 1.388 . S
C96 N95 1.397 . S
C97 H78 0.929 . S
C97 C94 1.404 . S
C97 N95 1.334 . S
C98 H90 0.933 . S
C98 C93 1.418 . S
C98 C94 1.353 . S
C99 H69 0.930 . S
C99 N100 1.330 . S
C99 C101 1.446 . S
N100 Co59 2.151 . S
N100 C99 1.330 . S
N100 C104 1.418 . S
C101 H80 0.929 . S
C101 C99 1.446 . S
C101 C102 1.332 . S
C102 H82 0.931 . S
C102 C101 1.332 . S
C102 C103 1.267 . S
C103 H71 0.929 . S
C103 C102 1.267 . S
C103 C104 1.251 . S
C104 H74 0.929 . S
C104 N100 1.418 . S
C104 C103 1.251 . S
C105 H72 0.930 . S
C105 C107 1.406 . S
C105 C110 1.261 . S
C106 H73 0.930 . S
C106 N108 1.325 . S
C106 C109 1.357 . S
C107 H75 0.928 . S
C107 C105 1.406 . S
C107 N108 1.261 . S
N108 Co59 2.214 . S
N108 C106 1.325 . S
N108 C107 1.261 . S
C109 H79 0.931 . S
C109 C106 1.357 . S
C109 C110 1.312 . S
C110 H81 0.930 . S
C110 C105 1.261 . S
C110 C109 1.312 . S
C111 O83 1.214 . S
C111 O91 1.234 . S
C112 H84 0.929 . S
C112 C115 1.391 . S
C112 C117 1.391 . S
C113 H85 0.929 . S
C113 C114 1.390 . S
C113 N116 1.391 . S
C114 H86 0.930 . S
C114 C113 1.390 . S
C114 C115 1.392 . S
C115 H87 0.929 . S
C115 C112 1.391 . S
C115 C114 1.392 . S
N116 Co60 2.257 . S
N116 C113 1.391 . S
N116 C117 1.388 . S
C117 H88 0.930 . S
C117 C112 1.391 . S
C117 N116 1.388 . S
Co118 O120 2.143 . S
Co118 O126 2.074 . S
Co118 O129 2.093 . S
Co118 O142 2.097 . S
Co118 N159 2.151 . S
Co118 N167 2.214 . S
Co119 O120 2.160 . S
Co119 O125 2.058 . S
Co119 O135 2.057 . S
Co119 O150 2.037 . S
Co119 N154 2.145 . S
Co119 N175 2.257 . S
O120 Co118 2.143 . S
O120 Co119 2.160 . S
C121 O122 1.278 . S
C121 O129 1.224 . S
O122 C121 1.278 . S
C123 O124 1.245 . S
C123 O135 1.232 . S
O124 C123 1.245 . S
O125 Co119 2.058 . S
O125 C151 1.269 . S
O126 Co118 2.074 . S
O126 C151 1.257 . S
H127 C152 0.930 . S
H128 C158 0.930 . S
O129 Co118 2.093 . S
O129 C121 1.224 . S
H130 C162 0.929 . S
H131 C164 0.930 . S
H132 C165 0.930 . S
H133 C163 0.929 . S
H134 C166 0.928 . S
O135 Co119 2.057 . S
O135 C123 1.232 . S
H136 C155 0.929 . S
H137 C156 0.929 . S
H138 C168 0.931 . S
H139 C160 0.929 . S
H140 C169 0.930 . S
H141 C161 0.931 . S
O142 Co118 2.097 . S
O142 C170 1.214 . S
H143 C171 0.929 . S
H144 C172 0.929 . S
H145 C173 0.930 . S
H146 C174 0.929 . S
H147 C176 0.930 . S
H148 C153 0.930 . S
H149 C157 0.930 . S
O150 Co119 2.037 . S
O150 C170 1.234 . S
C151 O125 1.269 . S
C151 O126 1.257 . S
C152 H127 0.930 . S
C152 C155 1.388 . S
C152 C157 1.418 . S
C153 H148 0.930 . S
C153 C156 1.404 . S
C153 C157 1.353 . S
N154 Co119 2.145 . S
N154 C155 1.397 . S
N154 C156 1.334 . S
C155 H136 0.929 . S
C155 C152 1.388 . S
C155 N154 1.397 . S
C156 H137 0.929 . S
C156 C153 1.404 . S
C156 N154 1.334 . S
C157 H149 0.930 . S
C157 C152 1.418 . S
C157 C153 1.353 . S
C158 H128 0.930 . S
C158 N159 1.330 . S
C158 C160 1.446 . S
N159 Co118 2.151 . S
N159 C158 1.330 . S
N159 C163 1.418 . S
C160 H139 0.929 . S
C160 C158 1.446 . S
C160 C161 1.332 . S
C161 H141 0.931 . S
C161 C160 1.332 . S
C161 C162 1.267 . S
C162 H130 0.929 . S
C162 C161 1.267 . S
C162 C163 1.251 . S
C163 H133 0.929 . S
C163 N159 1.418 . S
C163 C162 1.251 . S
C164 H131 0.930 . S
C164 C166 1.406 . S
C164 C169 1.261 . S
C165 H132 0.930 . S
C165 N167 1.325 . S
C165 C168 1.357 . S
C166 H134 0.928 . S
C166 C164 1.406 . S
C166 N167 1.261 . S
N167 Co118 2.214 . S
N167 C165 1.325 . S
N167 C166 1.261 . S
C168 H138 0.931 . S
C168 C165 1.357 . S
C168 C169 1.312 . S
C169 H140 0.930 . S
C169 C164 1.261 . S
C169 C168 1.312 . S
C170 O142 1.214 . S
C170 O150 1.234 . S
C171 H143 0.929 . S
C171 C174 1.391 . S
C171 C176 1.391 . S
C172 H144 0.929 . S
C172 C173 1.390 . S
C172 N175 1.391 . S
C173 H145 0.930 . S
C173 C172 1.390 . S
C173 C174 1.392 . S
C174 H146 0.929 . S
C174 C171 1.391 . S
C174 C173 1.392 . S
N175 Co119 2.257 . S
N175 C172 1.391 . S
N175 C176 1.388 . S
C176 H147 0.930 . S
C176 C171 1.391 . S
C176 N175 1.388 . S
Co177 O179 2.143 . S
Co177 O185 2.074 . S
Co177 O188 2.093 . S
Co177 O201 2.097 . S
Co177 N218 2.151 . S
Co177 N226 2.214 1_556 S
Co178 O179 2.160 . S
Co178 O184 2.058 . S
Co178 O194 2.057 . S
Co178 O209 2.037 . S
Co178 N213 2.145 . S
Co178 N234 2.257 . S
O179 Co177 2.143 . S
O179 Co178 2.160 . S
C180 O181 1.278 . S
C180 O188 1.224 . S
O181 C180 1.278 . S
C182 O183 1.245 . S
C182 O194 1.232 . S
O183 C182 1.245 . S
O184 Co178 2.058 . S
O184 C210 1.269 . S
O185 Co177 2.074 . S
O185 C210 1.257 . S
H186 C211 0.930 . S
H187 C217 0.930 . S
O188 Co177 2.093 . S
O188 C180 1.224 . S
H189 C221 0.929 1_554 S
H190 C223 0.930 . S
H191 C224 0.930 . S
H192 C222 0.929 1_554 S
H193 C225 0.928 . S
O194 Co178 2.057 . S
O194 C182 1.232 . S
H195 C214 0.929 . S
H196 C215 0.929 . S
H197 C227 0.931 . S
H198 C219 0.929 . S
H199 C228 0.930 . S
H200 C220 0.931 . S
O201 Co177 2.097 . S
O201 C229 1.214 . S
H202 C230 0.929 . S
H203 C231 0.929 . S
H204 C232 0.930 . S
H205 C233 0.929 . S
H206 C235 0.930 . S
H207 C212 0.930 . S
H208 C216 0.930 . S
O209 Co178 2.037 . S
O209 C229 1.234 . S
C210 O184 1.269 . S
C210 O185 1.257 . S
C211 H186 0.930 . S
C211 C214 1.388 . S
C211 C216 1.418 . S
C212 H207 0.930 . S
C212 C215 1.404 . S
C212 C216 1.353 . S
N213 Co178 2.145 . S
N213 C214 1.397 . S
N213 C215 1.334 . S
C214 H195 0.929 . S
C214 C211 1.388 . S
C214 N213 1.397 . S
C215 H196 0.929 . S
C215 C212 1.404 . S
C215 N213 1.334 . S
C216 H208 0.930 . S
C216 C211 1.418 . S
C216 C212 1.353 . S
C217 H187 0.930 . S
C217 N218 1.330 . S
C217 C219 1.446 . S
N218 Co177 2.151 . S
N218 C217 1.330 . S
N218 C222 1.418 . S
C219 H198 0.929 . S
C219 C217 1.446 . S
C219 C220 1.332 . S
C220 H200 0.931 . S
C220 C219 1.332 . S
C220 C221 1.267 . S
C221 H189 0.929 1_556 S
C221 C220 1.267 . S
C221 C222 1.251 . S
C222 H192 0.929 1_556 S
C222 N218 1.418 . S
C222 C221 1.251 . S
C223 H190 0.930 . S
C223 C225 1.406 . S
C223 C228 1.261 . S
C224 H191 0.930 . S
C224 N226 1.325 . S
C224 C227 1.357 . S
C225 H193 0.928 . S
C225 C223 1.406 . S
C225 N226 1.261 . S
N226 Co177 2.214 1_554 S
N226 C224 1.325 . S
N226 C225 1.261 . S
C227 H197 0.931 . S
C227 C224 1.357 . S
C227 C228 1.312 . S
C228 H199 0.930 . S
C228 C223 1.261 . S
C228 C227 1.312 . S
C229 O201 1.214 . S
C229 O209 1.234 . S
C230 H202 0.929 . S
C230 C233 1.391 . S
C230 C235 1.391 . S
C231 H203 0.929 . S
C231 C232 1.390 . S
C231 N234 1.391 . S
C232 H204 0.930 . S
C232 C231 1.390 . S
C232 C233 1.392 . S
C233 H205 0.929 . S
C233 C230 1.391 . S
C233 C232 1.392 . S
N234 Co178 2.257 . S
N234 C231 1.391 . S
N234 C235 1.388 . S
C235 H206 0.930 . S
C235 C230 1.391 . S
C235 N234 1.388 . S
C236 C237 1.170 . S
C236 C238 1.380 . S
C237 C236 1.170 . S
C238 C236 1.380 . S
C238 C239 1.170 . S
C239 C238 1.170 . S
C240 C241 1.170 . S
C240 C242 1.380 . S
C241 C240 1.170 . S
C242 C240 1.380 . S
C242 C243 1.170 . S
C243 C242 1.170 . S
C244 C245 1.170 . S
C244 C246 1.380 . S
C245 C244 1.170 . S
C246 C244 1.380 . S
C246 C247 1.170 . S
C247 C246 1.170 . S
C248 C249 1.167 1_655 S
C248 C250 1.383 . S
C249 C248 1.167 1_455 S
C250 C248 1.383 . S
C250 C251 1.170 . S
C251 C250 1.170 . S
C252 C253 1.170 . S
C252 C254 1.380 1_546 S
C253 C252 1.170 . S
C254 C252 1.380 1_564 S
C254 C255 1.170 . S
C255 C254 1.170 . S
C256 C257 1.170 . S
C256 C258 1.380 . S
C257 C256 1.170 . S
C258 C256 1.380 . S
C258 C259 1.170 . S
C259 C258 1.170 . S
C260 C261 1.170 . S
C260 C262 1.380 1_455 S
C261 C260 1.170 . S
C262 C260 1.380 1_655 S
C262 C263 1.169 1_554 S
C263 C262 1.169 1_556 S
C264 C265 1.170 . S
C264 C266 1.380 1_545 S
C265 C264 1.170 . S
C266 C264 1.380 1_565 S
C266 C267 1.170 . S
C267 C266 1.170 . S
C237 C5 1.615 . S
C239 C123 1.611 . S
C241 C64 1.619 . S
C243 C182 1.619 . S
C245 C52 1.703 1_556 S
C247 C210 1.721 . S
C249 C121 1.513 . S
C251 C111 1.516 . S
C253 C180 1.388 . S
C255 C3 1.412 . S
C257 C62 1.514 . S
C259 C170 1.509 . S
C261 C33 1.723 . S
C263 C229 1.701 . S
C265 C92 1.911 . S
C267 C151 1.909 . S
