# Generated by pormake.
# Topology cab, (5)-cn, num edge types: 1
# Building blocks:
#     Node 0, Type 0, BuildingBlock: XOMCOT_clean_sbu_1, # of connection points: 5
#     Node 1, Type 0, BuildingBlock: XOMCOT_clean_sbu_1, # of connection points: 5
#     Node 2, Type 0, BuildingBlock: XOMCOT_clean_sbu_1, # of connection points: 5
#     Node 3, Type 0, BuildingBlock: XOMCOT_clean_sbu_1, # of connection points: 5
#     Node 4, Type 0, BuildingBlock: XOMCOT_clean_sbu_1, # of connection points: 5
#     Node 5, Type 0, BuildingBlock: XOMCOT_clean_sbu_1, # of connection points: 5
#     Edge 6, Type (0, 0), None
#     Edge 7, Type (0, 0), None
#     Edge 8, Type (0, 0), None
#     Edge 9, Type (0, 0), None
#     Edge 10, Type (0, 0), None
#     Edge 11, Type (0, 0), None
#     Edge 12, Type (0, 0), None
#     Edge 13, Type (0, 0), None
#     Edge 14, Type (0, 0), None
#     Edge 15, Type (0, 0), None
#     Edge 16, Type (0, 0), None
#     Edge 17, Type (0, 0), None
#     Edge 18, Type (0, 0), None
#     Edge 19, Type (0, 0), None
#     Edge 20, Type (0, 0), None
# Relax obj value: 0.917
# Max RMSD: 0.230
# Mean RMSD: 0.226
data_MOF--net-cab--node1-XOMCOT_clean_sbu_1--edge1-none
_symmetry_space_group_name_H-M    P1
_symmetry_Int_Tables_number       1
_symmetry_cell_setting            triclinic
loop_
_symmetry_equiv_pos_as_xyz
'x, y, z'
_cell_length_a     19.816557
_cell_length_b     18.632663
_cell_length_c     19.816226
_cell_angle_alpha  79.27799
_cell_angle_beta   63.670948
_cell_angle_gamma 79.304714
loop_
_atom_site_label
_atom_site_type_symbol
_atom_site_fract_x
_atom_site_fract_y
_atom_site_fract_z
_atom_type_partial_charge
C0 C -0.00433 0.90501 0.48106 0.0
C1 C 0.0215 0.83163 0.47211 0.0
N2 N 0.09056 0.8275 0.41352 0.0
N3 N 0.04734 0.94665 0.42666 0.0
C4 C 0.10419 0.89777 0.38664 0.0
H5 H 0.94016 0.9267 0.5202 0.0
Co6 Co 0.03491 0.04811 0.40012 0.0
C7 C 0.19001 0.08743 0.3132 0.0
O8 O 0.17075 0.14059 0.35595 0.0
N9 N 0.0232 0.15024 0.36842 0.0
C10 C 0.00653 0.27237 0.34448 0.0
C11 C -0.00011 0.21407 0.40011 0.0
C12 C 0.04192 0.17219 0.29376 0.0
N13 N 0.03217 0.24526 0.27808 0.0
O14 O -0.00148 0.0327 0.3293 0.0
H15 H -0.02032 0.22015 0.45906 0.0
H16 H 0.06561 0.13519 0.25053 0.0
O17 O 0.14085 0.04576 0.32271 0.0
C18 C 0.92665 0.04805 0.35722 0.0
O19 O 0.89028 0.06121 0.42828 0.0
N20 N 0.0636 0.06172 0.47513 0.0
C21 C 0.10717 0.09841 0.57946 0.0
C22 C 0.15222 0.04548 0.52982 0.0
C23 C 0.12929 0.02772 0.47863 0.0
C24 C 0.01288 0.10136 0.53173 0.0
C25 C 0.03467 0.12386 0.58181 0.0
H26 H 0.16582 0.98844 0.43994 0.0
H27 H 0.95593 0.11802 0.53626 0.0
H28 H 0.15083 0.91268 0.33325 0.0
H29 H -0.01087 0.78561 0.50124 0.0
H30 H -0.0069 0.33014 0.35239 0.0
H31 H 0.20493 0.01694 0.52965 0.0
H32 H -0.00557 0.16103 0.62095 0.0
C33 C 0.0534 0.01012 0.85738 0.0
C34 C -0.01212 0.99091 0.91828 0.0
N35 N -0.02084 0.02353 0.97735 0.0
N36 N 0.08586 0.05389 0.87869 0.0
C37 C 0.03821 0.06258 0.95159 0.0
H38 H 0.07929 0.98821 0.80345 0.0
Co39 Co 0.18785 0.06956 0.83327 0.0
C40 C 0.15575 0.22593 0.86869 0.0
O41 O 0.17149 0.24965 0.79737 0.0
N42 N 0.29237 0.08289 0.79181 0.0
C43 C 0.39867 0.1318 0.75913 0.0
C44 C 0.3274 0.14439 0.7604 0.0
C45 C 0.34572 0.03303 0.80457 0.0
N46 N 0.40982 0.06154 0.78743 0.0
O47 O 0.19813 1.00192 0.91393 0.0
H48 H 0.30162 0.19688 0.74469 0.0
H49 H 0.33516 0.97916 0.83552 0.0
O50 O 0.16114 0.15662 0.89051 0.0
C51 C 0.1994 0.93925 0.89491 0.0
O52 O 0.20593 0.93626 0.82645 0.0
N53 N 0.17626 0.12456 0.74783 0.0
C54 C 0.13365 0.12102 0.63186 0.0
C55 C 0.08312 0.15402 0.69748 0.0
C56 C 0.10635 0.15715 0.75378 0.0
C57 C 0.22909 0.10269 0.68015 0.0
C58 C 0.20976 0.10352 0.62062 0.0
H59 H 0.06422 0.17591 0.80672 0.0
H60 H 0.28426 0.0757 0.67396 0.0
H61 H 0.05117 0.08948 -0.01233 0.0
H62 H 0.95164 0.95298 0.92007 0.0
H63 H 0.43563 0.17317 0.7469 0.0
H64 H 0.02433 0.17183 0.70959 0.0
H65 H 0.25369 0.08411 0.56897 0.0
C66 C 0.38254 0.08948 0.18652 0.0
C67 C 0.32164 0.10871 0.252 0.0
N68 N 0.26256 0.07608 0.26072 0.0
N69 N 0.36122 0.04569 0.15409 0.0
C70 C 0.28831 0.03699 0.20175 0.0
H71 H 0.43649 0.11139 0.16062 0.0
Co72 Co 0.4066 0.03004 0.05211 0.0
C73 C 0.37114 0.87365 0.08429 0.0
O74 O 0.44246 0.84995 0.06849 0.0
N75 N 0.44802 0.01671 0.94761 0.0
C76 C 0.48082 0.96773 0.8413 0.0
C77 C 0.47959 0.95524 0.91257 0.0
C78 C 0.43509 0.0665 0.89427 0.0
N79 N 0.45228 0.03789 0.83023 0.0
O80 O 0.32594 0.09764 0.04183 0.0
H81 H 0.49549 0.90283 0.93835 0.0
H82 H 0.40405 0.12031 0.9048 0.0
O83 O 0.34934 0.94295 0.0789 0.0
C84 C 0.34499 0.16032 0.04051 0.0
O85 O 0.41345 0.16334 0.03395 0.0
N86 N 0.49204 0.97508 0.06371 0.0
C87 C 0.60802 0.9786 0.1063 0.0
C88 C 0.54241 0.94556 0.15683 0.0
C89 C 0.48609 0.94244 0.13362 0.0
C90 C 0.55969 0.99706 0.01088 0.0
C91 C 0.61923 0.99622 0.03019 0.0
H92 H 0.43316 0.92364 0.17575 0.0
H93 H 0.56585 0.02412 0.95572 0.0
H94 H 0.25223 0.01006 0.18881 0.0
H95 H 0.31987 0.14664 0.28822 0.0
H96 H 0.49323 0.92638 0.8043 0.0
H97 H 0.5303 0.92768 0.21562 0.0
H98 H 0.67086 0.0157 -0.01373 0.0
C99 C 0.23629 0.3319 0.08249 0.0
C100 C 0.30197 0.28508 0.0709 0.0
N101 N 0.29493 0.22197 0.05181 0.0
N102 N 0.19044 0.29948 0.06658 0.0
C103 C 0.2267 0.23155 0.05091 0.0
H104 H 0.22272 0.38576 0.10134 0.0
Co105 Co 0.09394 0.33025 0.07148 0.0
C106 C 0.13445 0.28244 0.92018 0.0
O107 O 0.13481 0.3513 0.89001 0.0
N108 N -0.00733 0.35491 0.07871 0.0
C109 C 0.89755 0.35938 0.04611 0.0
C110 C 0.96986 0.37709 0.02236 0.0
C111 C 0.93048 0.32934 0.13736 0.0
N112 N 0.87312 0.32903 0.11869 0.0
O113 O 0.06223 0.253 0.15076 0.0
H114 H 0.00546 0.39782 0.96522 0.0
H115 H 0.92958 0.30012 0.18991 0.0
O116 O 0.11715 0.26653 -0.00881 0.0
C117 C 0.04897 0.28391 0.20888 0.0
O118 O 0.05009 0.35544 0.20093 0.0
N119 N 0.12826 0.41633 0.00259 0.0
C120 C 0.19848 0.52954 0.00802 0.0
C121 C 0.24112 0.47532 0.96022 0.0
C122 C 0.20398 0.41969 0.9563 0.0
C123 C 0.08517 0.47743 0.03506 0.0
C124 C 0.1193 0.53486 0.03802 0.0
H125 H 0.2388 0.37217 0.92914 0.0
H126 H 0.02551 0.47703 0.0714 0.0
H127 H 0.20322 0.18926 0.04006 0.0
H128 H 0.34964 0.29537 0.07921 0.0
H129 H 0.86913 0.36026 0.01021 0.0
H130 H 0.30248 0.47031 0.93456 0.0
H131 H 0.08419 0.57777 0.07298 0.0
C132 C 0.7586 0.19439 0.24397 0.0
C133 C 0.76761 0.2678 0.21819 0.0
N134 N 0.82672 0.27186 0.1495 0.0
N135 N 0.81342 0.15276 0.1926 0.0
C136 C 0.85379 0.20164 0.13597 0.0
H137 H 0.71901 0.17267 0.29925 0.0
Co138 Co 0.83987 0.0513 0.20505 0.0
C139 C 0.92672 0.01211 0.04992 0.0
O140 O 0.88394 0.95895 0.06919 0.0
N141 N 0.87148 0.94918 0.21677 0.0
C142 C 0.89536 0.82704 0.2335 0.0
C143 C 0.83976 0.88534 0.24013 0.0
C144 C 0.94614 0.92725 0.198 0.0
N145 N 0.96178 0.85417 0.20779 0.0
O146 O 0.91071 0.06666 0.24143 0.0
H147 H 0.7808 0.87924 0.26041 0.0
H148 H -0.01062 0.96426 0.17427 0.0
O149 O 0.91724 0.05373 0.09909 0.0
C150 C 0.88277 0.0513 0.31332 0.0
O151 O 0.81169 0.03817 0.34969 0.0
N152 N 0.76483 0.03775 0.17636 0.0
C153 C 0.66044 1.00117 0.13279 0.0
C154 C 0.71011 0.05413 0.08775 0.0
C155 C 0.76133 0.07183 0.11068 0.0
C156 C 0.70822 0.99806 0.22707 0.0
C157 C 0.65811 0.97562 0.20528 0.0
H158 H 0.80003 0.11115 0.07417 0.0
H159 H 0.70368 0.98134 0.28402 0.0
H160 H 0.90742 0.18677 0.08962 0.0
H161 H 0.73806 0.31385 0.25034 0.0
H162 H 0.88743 0.76928 0.24699 0.0
H163 H 0.71028 0.08274 0.03505 0.0
H164 H 0.61896 0.93842 0.24551 0.0
C165 C 0.15744 0.7676 0.00365 0.0
C166 C 0.16905 0.81444 0.93795 0.0
N167 N 0.18812 0.87757 0.94498 0.0
N168 N 0.17332 0.80004 0.04951 0.0
C169 C 0.18899 0.86799 0.01322 0.0
H170 H 0.1386 0.71373 0.01724 0.0
Co171 Co 0.16834 0.7693 0.14605 0.0
C172 C 0.31959 0.81714 0.10574 0.0
O173 O 0.34966 0.74827 0.10566 0.0
N174 N 0.16105 0.74469 0.24736 0.0
C175 C 0.19369 0.73985 0.34256 0.0
C176 C 0.2173 0.72212 0.27028 0.0
C177 C 0.10256 0.77058 0.30945 0.0
N178 N 0.12131 0.77064 0.36677 0.0
O179 O 0.0891 0.84651 0.17765 0.0
H180 H 0.27431 0.70101 0.23477 0.0
H181 H 0.05016 0.8001 0.31028 0.0
O182 O 0.24863 0.83305 0.12283 0.0
C183 C 0.03096 0.81556 0.19101 0.0
O184 O 0.03888 0.74402 0.19 0.0
N185 N 0.2372 0.68325 0.11183 0.0
C186 C 0.23186 0.57011 0.04152 0.0
C187 C 0.27975 0.62432 -0.00106 0.0
C188 C 0.28361 0.67993 0.03613 0.0
C189 C 0.20461 0.62216 0.15489 0.0
C190 C 0.20169 0.56476 0.12072 0.0
H191 H 0.31083 0.72746 0.00135 0.0
H192 H 0.16814 0.62257 0.21453 0.0
H193 H 0.19981 0.91029 0.03671 0.0
H194 H 0.16076 0.80414 0.89027 0.0
H195 H 0.22958 0.73861 0.37109 0.0
H196 H 0.30552 0.62934 0.93758 0.0
H197 H 0.16665 0.52185 0.15578 0.0
loop_
_geom_bond_atom_site_label_1
_geom_bond_atom_site_label_2
_geom_bond_distance
_geom_bond_site_symmetry_2
_ccdc_geom_bond_type
C0 C1 1.351 1_655 S
C0 N3 1.368 1_655 S
C0 H5 0.931 . S
C1 C0 1.351 1_455 S
C1 N2 1.373 . S
C1 H29 0.930 1_455 S
N2 C1 1.373 . S
N2 C4 1.340 . S
N3 C0 1.368 1_455 S
N3 C4 1.321 . S
N3 Co6 2.135 1_565 S
C4 N2 1.340 . S
C4 N3 1.321 . S
C4 H28 0.930 . S
H5 C0 0.931 . S
Co6 N3 2.135 1_545 S
Co6 N9 2.121 . S
Co6 O14 2.055 1_455 S
Co6 O17 2.039 1_545 S
Co6 N20 2.140 . S
C7 O8 1.227 . S
C7 O17 1.265 . S
O8 C7 1.227 . S
N9 Co6 2.121 . S
N9 C11 1.375 . S
N9 C12 1.313 . S
C10 C11 1.338 . S
C10 N13 1.377 . S
C10 H30 0.930 . S
C11 N9 1.375 . S
C11 C10 1.338 . S
C11 H15 0.931 . S
C12 N9 1.313 . S
C12 N13 1.344 . S
C12 H16 0.930 1_455 S
N13 C10 1.377 . S
N13 C12 1.344 . S
O14 Co6 2.055 1_655 S
O14 C18 1.253 . S
H15 C11 0.931 . S
H16 C12 0.930 1_655 S
O17 Co6 2.039 1_565 S
O17 C7 1.265 . S
C18 O14 1.253 . S
C18 O19 1.227 . S
O19 C18 1.227 . S
N20 Co6 2.140 . S
N20 C23 1.346 1_545 S
N20 C24 1.345 . S
C21 C22 1.387 1_545 S
C21 C25 1.391 . S
C22 C21 1.387 1_565 S
C22 C23 1.369 . S
C22 H31 0.929 . S
C23 N20 1.346 1_565 S
C23 C22 1.369 . S
C23 H26 0.928 . S
C24 N20 1.345 . S
C24 C25 1.371 . S
C24 H27 0.931 1_455 S
C25 C21 1.391 . S
C25 C24 1.371 . S
C25 H32 0.930 1_455 S
H26 C23 0.928 . S
H27 C24 0.931 1_655 S
H28 C4 0.930 . S
H29 C1 0.930 1_655 S
H30 C10 0.930 . S
H31 C22 0.929 . S
H32 C25 0.930 1_655 S
C33 C34 1.351 . S
C33 N36 1.368 . S
C33 H38 0.931 1_545 S
C34 C33 1.351 . S
C34 N35 1.373 1_455 S
C34 H62 0.930 1_445 S
N35 C34 1.373 1_655 S
N35 C37 1.340 1_655 S
N36 C33 1.368 . S
N36 C37 1.321 . S
N36 Co39 2.135 . S
C37 N35 1.340 1_455 S
C37 N36 1.321 . S
C37 H61 0.930 . S
H38 C33 0.931 1_565 S
Co39 N36 2.135 . S
Co39 N42 2.121 . S
Co39 O47 2.055 . S
Co39 O50 2.039 . S
Co39 N53 2.140 . S
C40 O41 1.227 . S
C40 O50 1.265 . S
O41 C40 1.227 . S
N42 Co39 2.121 . S
N42 C44 1.375 . S
N42 C45 1.313 . S
C43 C44 1.338 . S
C43 N46 1.377 . S
C43 H63 0.930 . S
C44 N42 1.375 . S
C44 C43 1.338 . S
C44 H48 0.931 . S
C45 N42 1.313 . S
C45 N46 1.344 . S
C45 H49 0.930 . S
N46 C43 1.377 . S
N46 C45 1.344 . S
O47 Co39 2.055 . S
O47 C51 1.253 1_545 S
H48 C44 0.931 . S
H49 C45 0.930 . S
O50 Co39 2.039 . S
O50 C40 1.265 . S
C51 O47 1.253 1_565 S
C51 O52 1.227 . S
O52 C51 1.227 . S
N53 Co39 2.140 . S
N53 C56 1.346 . S
N53 C57 1.345 . S
C54 C55 1.387 . S
C54 C58 1.391 . S
C55 C54 1.387 . S
C55 C56 1.369 . S
C55 H64 0.929 . S
C56 N53 1.346 . S
C56 C55 1.369 . S
C56 H59 0.928 . S
C57 N53 1.345 . S
C57 C58 1.371 . S
C57 H60 0.931 . S
C58 C54 1.391 . S
C58 C57 1.371 . S
C58 H65 0.930 . S
H59 C56 0.928 . S
H60 C57 0.931 . S
H61 C37 0.930 . S
H62 C34 0.930 1_665 S
H63 C43 0.930 . S
H64 C55 0.929 . S
H65 C58 0.930 . S
C66 C67 1.351 . S
C66 N69 1.368 . S
C66 H71 0.931 . S
C67 C66 1.351 . S
C67 N68 1.373 1_545 S
C67 H95 0.930 . S
N68 C67 1.373 1_565 S
N68 C70 1.340 . S
N69 C66 1.368 . S
N69 C70 1.321 1_545 S
N69 Co72 2.135 . S
C70 N68 1.340 . S
C70 N69 1.321 1_565 S
C70 H94 0.930 . S
H71 C66 0.931 . S
Co72 N69 2.135 . S
Co72 N75 2.121 1_544 S
Co72 O80 2.055 . S
Co72 O83 2.039 1_545 S
Co72 N86 2.140 . S
C73 O74 1.227 . S
C73 O83 1.265 . S
O74 C73 1.227 . S
N75 Co72 2.121 1_566 S
N75 C77 1.375 . S
N75 C78 1.313 1_565 S
C76 C77 1.338 . S
C76 N79 1.377 1_565 S
C76 H96 0.930 . S
C77 N75 1.375 . S
C77 C76 1.338 . S
C77 H81 0.931 . S
C78 N75 1.313 1_545 S
C78 N79 1.344 . S
C78 H82 0.930 . S
N79 C76 1.377 1_545 S
N79 C78 1.344 . S
O80 Co72 2.055 . S
O80 C84 1.253 . S
H81 C77 0.931 . S
H82 C78 0.930 . S
O83 Co72 2.039 1_565 S
O83 C73 1.265 . S
C84 O80 1.253 . S
C84 O85 1.227 . S
O85 C84 1.227 . S
N86 Co72 2.140 . S
N86 C89 1.346 1_545 S
N86 C90 1.345 1_554 S
C87 C88 1.387 1_545 S
C87 C91 1.390 1_554 S
C88 C87 1.387 1_565 S
C88 C89 1.369 . S
C88 H97 0.929 . S
C89 N86 1.346 1_565 S
C89 C88 1.369 . S
C89 H92 0.928 . S
C90 N86 1.345 1_556 S
C90 C91 1.371 . S
C90 H93 0.931 . S
C91 C87 1.390 1_556 S
C91 C90 1.371 . S
C91 H98 0.931 . S
H92 C89 0.928 . S
H93 C90 0.931 . S
H94 C70 0.930 . S
H95 C67 0.930 . S
H96 C76 0.930 . S
H97 C88 0.929 . S
H98 C91 0.931 . S
C99 C100 1.351 . S
C99 N102 1.368 . S
C99 H104 0.931 . S
C100 C99 1.351 . S
C100 N101 1.373 . S
C100 H128 0.930 . S
N101 C100 1.373 . S
N101 C103 1.340 1_554 S
N102 C99 1.368 . S
N102 C103 1.321 1_554 S
N102 Co105 2.135 . S
C103 N101 1.340 1_556 S
C103 N102 1.321 1_556 S
C103 H127 0.930 . S
H104 C99 0.931 . S
Co105 N102 2.135 . S
Co105 N108 2.121 1_455 S
Co105 O113 2.055 . S
Co105 O116 2.039 1_554 S
Co105 N119 2.140 . S
C106 O107 1.227 . S
C106 O116 1.265 . S
O107 C106 1.227 . S
N108 Co105 2.121 1_655 S
N108 C110 1.375 . S
N108 C111 1.313 . S
C109 C110 1.338 . S
C109 N112 1.377 . S
C109 H129 0.930 . S
C110 N108 1.375 . S
C110 C109 1.338 . S
C110 H114 0.931 1_554 S
C111 N108 1.313 . S
C111 N112 1.344 . S
C111 H115 0.930 . S
N112 C109 1.377 . S
N112 C111 1.344 . S
O113 Co105 2.055 . S
O113 C117 1.253 . S
H114 C110 0.931 1_556 S
H115 C111 0.930 . S
O116 Co105 2.039 1_556 S
O116 C106 1.265 . S
C117 O113 1.253 . S
C117 O118 1.227 . S
O118 C117 1.227 . S
N119 Co105 2.140 . S
N119 C122 1.346 . S
N119 C123 1.345 . S
C120 C121 1.387 . S
C120 C124 1.391 . S
C121 C120 1.387 . S
C121 C122 1.369 . S
C121 H130 0.929 1_554 S
C122 N119 1.346 . S
C122 C121 1.369 . S
C122 H125 0.928 1_554 S
C123 N119 1.345 . S
C123 C124 1.371 . S
C123 H126 0.931 . S
C124 C120 1.391 . S
C124 C123 1.371 . S
C124 H131 0.930 . S
H125 C122 0.928 1_556 S
H126 C123 0.931 . S
H127 C103 0.930 . S
H128 C100 0.930 . S
H129 C109 0.930 . S
H130 C121 0.929 1_556 S
H131 C124 0.930 . S
C132 C133 1.351 . S
C132 N135 1.368 . S
C132 H137 0.931 . S
C133 C132 1.351 . S
C133 N134 1.373 . S
C133 H161 0.930 . S
N134 C133 1.373 . S
N134 C136 1.340 . S
N135 C132 1.368 . S
N135 C136 1.321 . S
N135 Co138 2.135 . S
C136 N134 1.340 . S
C136 N135 1.321 . S
C136 H160 0.930 . S
H137 C132 0.931 . S
Co138 N135 2.135 . S
Co138 N141 2.121 1_545 S
Co138 O146 2.055 . S
Co138 O149 2.039 . S
Co138 N152 2.140 . S
C139 O140 1.227 . S
C139 O149 1.265 . S
O140 C139 1.227 . S
N141 Co138 2.121 1_565 S
N141 C143 1.375 . S
N141 C144 1.313 . S
C142 C143 1.338 . S
C142 N145 1.377 . S
C142 H162 0.930 . S
C143 N141 1.375 . S
C143 C142 1.338 . S
C143 H147 0.931 . S
C144 N141 1.313 . S
C144 N145 1.344 . S
C144 H148 0.930 . S
N145 C142 1.377 . S
N145 C144 1.344 . S
O146 Co138 2.055 . S
O146 C150 1.253 . S
H147 C143 0.931 . S
H148 C144 0.930 . S
O149 Co138 2.039 . S
O149 C139 1.265 . S
C150 O146 1.253 . S
C150 O151 1.227 . S
O151 C150 1.227 . S
N152 Co138 2.140 . S
N152 C155 1.346 . S
N152 C156 1.345 . S
C153 C154 1.387 . S
C153 C157 1.391 . S
C154 C153 1.387 . S
C154 C155 1.369 . S
C154 H163 0.929 . S
C155 N152 1.346 . S
C155 C154 1.369 . S
C155 H158 0.928 . S
C156 N152 1.345 . S
C156 C157 1.371 . S
C156 H159 0.931 1_545 S
C157 C153 1.391 . S
C157 C156 1.371 . S
C157 H164 0.930 1_545 S
H158 C155 0.928 . S
H159 C156 0.931 1_565 S
H160 C136 0.930 . S
H161 C133 0.930 . S
H162 C142 0.930 . S
H163 C154 0.929 . S
H164 C157 0.930 1_565 S
C165 C166 1.351 1_554 S
C165 N168 1.368 . S
C165 H170 0.931 . S
C166 C165 1.351 1_556 S
C166 N167 1.373 . S
C166 H194 0.930 . S
N167 C166 1.373 . S
N167 C169 1.340 . S
N168 C165 1.368 . S
N168 C169 1.321 1_554 S
N168 Co171 2.135 . S
C169 N167 1.340 . S
C169 N168 1.321 1_556 S
C169 H193 0.930 . S
H170 C165 0.931 . S
Co171 N168 2.135 . S
Co171 N174 2.121 . S
Co171 O179 2.055 . S
Co171 O182 2.039 . S
Co171 N185 2.140 . S
C172 O173 1.227 . S
C172 O182 1.265 . S
O173 C172 1.227 . S
N174 Co171 2.121 . S
N174 C176 1.375 . S
N174 C177 1.313 . S
C175 C176 1.338 . S
C175 N178 1.377 . S
C175 H195 0.930 . S
C176 N174 1.375 . S
C176 C175 1.338 . S
C176 H180 0.931 . S
C177 N174 1.313 . S
C177 N178 1.344 . S
C177 H181 0.930 . S
N178 C175 1.377 . S
N178 C177 1.344 . S
O179 Co171 2.055 . S
O179 C183 1.253 . S
H180 C176 0.931 . S
H181 C177 0.930 . S
O182 Co171 2.039 . S
O182 C172 1.265 . S
C183 O179 1.253 . S
C183 O184 1.227 . S
O184 C183 1.227 . S
N185 Co171 2.140 . S
N185 C188 1.346 . S
N185 C189 1.345 . S
C186 C187 1.387 . S
C186 C190 1.391 . S
C187 C186 1.387 . S
C187 C188 1.369 . S
C187 H196 0.929 . S
C188 N185 1.346 . S
C188 C187 1.369 . S
C188 H191 0.928 . S
C189 N185 1.345 . S
C189 C190 1.371 . S
C189 H192 0.931 . S
C190 C186 1.391 . S
C190 C189 1.371 . S
C190 H197 0.930 . S
H191 C188 0.928 . S
H192 C189 0.931 . S
H193 C169 0.930 . S
H194 C166 0.930 . S
H195 C175 0.930 . S
H196 C187 0.929 . S
H197 C190 0.930 . S
C117 N13 2.448 . S
C150 C18 1.219 . S
N2 N178 1.549 . S
N68 C7 2.016 . S
N167 C51 2.171 . S
N79 N46 1.415 . S
C40 C106 1.524 . S
C139 N35 2.016 1_554 S
C84 N101 2.171 . S
C73 C172 1.523 . S
N134 N112 1.549 . S
C183 N145 2.448 1_455 S
C54 C21 2.874 . S
C153 C87 2.873 . S
C186 C120 2.993 . S
