# Generated by pormake.
# Topology qtz, (4)-cn, num edge types: 1
# Building blocks:
#     Node 0, Type 0, BuildingBlock: GALJAG_clean_sbu_0, # of connection points: 4
#     Node 1, Type 0, BuildingBlock: GALJAG_clean_sbu_0, # of connection points: 4
#     Node 2, Type 0, BuildingBlock: GALJAG_clean_sbu_0, # of connection points: 4
#     Edge 3, Type (0, 0), BuildingBlock: UVAHIK_clean_linker_0, # of connection points: 2
#     Edge 4, Type (0, 0), BuildingBlock: UVAHIK_clean_linker_0, # of connection points: 2
#     Edge 5, Type (0, 0), BuildingBlock: UVAHIK_clean_linker_0, # of connection points: 2
#     Edge 6, Type (0, 0), BuildingBlock: UVAHIK_clean_linker_0, # of connection points: 2
#     Edge 7, Type (0, 0), BuildingBlock: UVAHIK_clean_linker_0, # of connection points: 2
#     Edge 8, Type (0, 0), BuildingBlock: UVAHIK_clean_linker_0, # of connection points: 2
# Relax obj value: 0.004
# Max RMSD: 0.037
# Mean RMSD: 0.037
data_MOF--net-qtz--node1-GALJAG_clean_sbu_0--edge1-UVAHIK_clean_linker_0
_symmetry_space_group_name_H-M    P1
_symmetry_Int_Tables_number       1
_symmetry_cell_setting            triclinic
loop_
_symmetry_equiv_pos_as_xyz
'x, y, z'
_cell_length_a     32.163676
_cell_length_b     32.156198
_cell_length_c     34.427621
_cell_angle_alpha  90.140809
_cell_angle_beta   90.080313
_cell_angle_gamma 119.98272
loop_
_atom_site_label
_atom_site_type_symbol
_atom_site_fract_x
_atom_site_fract_y
_atom_site_fract_z
_atom_type_partial_charge
In0 In 0.00013 0.5014 0.16359 0.0
O1 O 0.97173 0.43118 0.19725 0.0
O2 O 0.93579 0.47108 0.20411 0.0
C3 C 0.06205 0.49305 0.11539 0.0
C4 C 0.93856 0.50744 0.11363 0.0
C5 C 0.05909 0.57129 0.21344 0.0
O6 O 0.02943 0.45764 0.13335 0.0
O7 O 0.06311 0.53218 0.12159 0.0
O8 O 0.0368 0.57842 0.18649 0.0
O9 O 0.05123 0.52881 0.21554 0.0
C10 C 0.93774 0.43403 0.21289 0.0
O11 O 0.96641 0.54185 0.13541 0.0
O12 O 0.94229 0.47035 0.11664 0.0
In13 In 0.50157 0.00112 0.49682 0.0
O14 O 0.57738 0.03811 0.4718 0.0
O15 O 0.52866 0.05939 0.45063 0.0
C16 C 0.51385 0.94008 0.54312 0.0
C17 C 0.49652 0.06589 0.54355 0.0
C18 C 0.42805 0.93881 0.45096 0.0
O19 O 0.53691 0.95657 0.51204 0.0
O20 O 0.48505 0.95468 0.55099 0.0
O21 O 0.4216 0.95568 0.48198 0.0
O22 O 0.47141 0.95361 0.44295 0.0
C23 C 0.57041 0.06506 0.44936 0.0
O24 O 0.46247 0.03815 0.5214 0.0
O25 O 0.53282 0.06056 0.54242 0.0
In26 In 0.50047 0.50248 0.82981 0.0
O27 O 0.54172 0.57956 0.80758 0.0
O28 O 0.47818 0.5303 0.77746 0.0
C29 C 0.56716 0.5083 0.88075 0.0
C30 C 0.42871 0.49372 0.87637 0.0
C31 C 0.49627 0.43582 0.77969 0.0
O32 O 0.57348 0.54327 0.86002 0.0
O33 O 0.52694 0.47079 0.87633 0.0
O34 O 0.45918 0.43287 0.79491 0.0
O35 O 0.53514 0.47261 0.78935 0.0
C36 C 0.51293 0.57268 0.78012 0.0
O37 O 0.42751 0.45811 0.85981 0.0
O38 O 0.46603 0.53324 0.86975 0.0
C39 C 0.3902 0.53192 0.91385 0.0
C40 C 0.38919 0.49005 0.90068 0.0
C41 C 0.35244 0.52902 0.93585 0.0
C42 C 0.25365 0.45029 0.00015 0.0
H43 H 0.20484 0.53537 0.97432 0.0
C44 C 0.09294 0.44491 0.08123 0.0
C45 C 0.09678 0.4895 0.08951 0.0
C46 C 0.12628 0.44211 0.05686 0.0
C47 C 0.21835 0.5117 0.98222 0.0
H48 H 0.34822 0.41226 0.90068 0.0
H49 H 0.28214 0.40718 0.93965 0.0
H50 H 0.26777 0.53584 0.93477 0.0
H51 H 0.13865 0.56611 0.07911 0.0
H52 H 0.19713 0.56145 0.03743 0.0
H53 H 0.20499 0.42694 0.04819 0.0
C54 C 0.31223 0.44221 0.93282 0.0
C55 C 0.25433 0.51191 0.95947 0.0
C56 C 0.34991 0.44512 0.91043 0.0
C57 C 0.13455 0.53118 0.07307 0.0
C58 C 0.16792 0.52843 0.04893 0.0
C59 C 0.2178 0.45032 0.02315 0.0
C60 C 0.31296 0.48418 0.94545 0.0
C61 C 0.27279 0.48166 0.96845 0.0
C62 C 0.16419 0.48389 0.0404 0.0
C63 C 0.20016 0.4815 0.01474 0.0
H64 H 0.42001 0.56706 0.90686 0.0
H65 H 0.35431 0.56196 0.94562 0.0
H66 H 0.26745 0.42683 0.00791 0.0
H67 H 0.0641 0.41217 0.09345 0.0
H68 H 0.12204 0.40718 0.05059 0.0
C69 C 0.90782 0.35797 0.25084 0.0
C70 C 0.90182 0.39619 0.23827 0.0
C71 C 0.87284 0.32145 0.27383 0.0
C72 C 0.74464 0.26218 0.29653 0.0
H73 H 0.77894 0.21889 0.38988 0.0
C74 C 0.60141 0.13585 0.40522 0.0
C75 C 0.60837 0.10123 0.42422 0.0
C76 C 0.63763 0.17088 0.38217 0.0
C77 C 0.76873 0.22996 0.36358 0.0
H78 H 0.85477 0.42637 0.24006 0.0
H79 H 0.79358 0.36242 0.27985 0.0
H80 H 0.84182 0.28172 0.3504 0.0
H81 H 0.65836 0.07558 0.43362 0.0
H82 H 0.72117 0.13584 0.39244 0.0
H83 H 0.67179 0.21014 0.30905 0.0
C84 C 0.82524 0.36064 0.27188 0.0
C85 C 0.8048 0.26609 0.34107 0.0
C86 C 0.86039 0.39737 0.24931 0.0
C87 C 0.6521 0.10199 0.41944 0.0
C88 C 0.6882 0.13676 0.39604 0.0
C89 C 0.70864 0.22574 0.31876 0.0
C90 C 0.83099 0.32221 0.28423 0.0
C91 C 0.79305 0.28286 0.30753 0.0
C92 C 0.68151 0.1718 0.37722 0.0
C93 C 0.72013 0.20944 0.3528 0.0
H94 H 0.93941 0.35615 0.24275 0.0
H95 H 0.87804 0.29209 0.28279 0.0
H96 H 0.73462 0.27391 0.27047 0.0
H97 H 0.56818 0.13636 0.4086 0.0
H98 H 0.63143 0.19775 0.36879 0.0
C99 C 0.49396 0.89003 0.60305 0.0
C100 C 0.51901 0.9054 0.56781 0.0
C101 C 0.49745 0.85602 0.62586 0.0
C102 C 0.52417 0.75786 0.61959 0.0
H103 H 0.53517 0.77132 0.73171 0.0
C104 C 0.48716 0.60132 0.72238 0.0
C105 C 0.51833 0.61154 0.75411 0.0
C106 C 0.49084 0.6383 0.69877 0.0
C107 C 0.53252 0.76725 0.70041 0.0
H108 H 0.56775 0.89767 0.52897 0.0
H109 H 0.57379 0.83811 0.56887 0.0
H110 H 0.53583 0.83489 0.6926 0.0
H111 H 0.57822 0.66835 0.78576 0.0
H112 H 0.58454 0.73303 0.74455 0.0
H113 H 0.52063 0.69009 0.62745 0.0
C114 C 0.55125 0.85218 0.57871 0.0
C115 C 0.53243 0.80342 0.67806 0.0
C116 C 0.54799 0.88644 0.55599 0.0
C117 C 0.55367 0.6594 0.7615 0.0
C118 C 0.55713 0.69643 0.73806 0.0
C119 C 0.52391 0.72152 0.64197 0.0
C120 C 0.52585 0.83647 0.61382 0.0
C121 C 0.52797 0.79899 0.63743 0.0
C122 C 0.52556 0.6863 0.70658 0.0
C123 C 0.52781 0.7257 0.68264 0.0
H124 H 0.47129 0.90395 0.61289 0.0
H125 H 0.47702 0.84424 0.65254 0.0
H126 H 0.52029 0.75323 0.58838 0.0
H127 H 0.45954 0.56477 0.71599 0.0
H128 H 0.4657 0.62942 0.67497 0.0
C129 C 0.60064 0.46752 0.92121 0.0
C130 C 0.60486 0.51013 0.90641 0.0
C131 C 0.63761 0.46871 0.94339 0.0
C132 C 0.73971 0.54506 0.00571 0.0
H133 H 0.78614 0.45886 0.97673 0.0
C134 C 0.90427 0.55326 0.08116 0.0
C135 C 0.90283 0.50953 0.08798 0.0
C136 C 0.86932 0.55477 0.05796 0.0
C137 C 0.77323 0.48271 0.98565 0.0
H138 H 0.65042 0.58748 0.90397 0.0
H139 H 0.71478 0.58961 0.94358 0.0
H140 H 0.7212 0.45821 0.93973 0.0
H141 H 0.86373 0.43309 0.07607 0.0
H142 H 0.80199 0.43531 0.03676 0.0
H143 H 0.79053 0.56865 0.05233 0.0
C144 C 0.68295 0.55534 0.93773 0.0
C145 C 0.73614 0.48242 0.9643 0.0
C146 C 0.64625 0.55409 0.91502 0.0
C147 C 0.86596 0.4674 0.07105 0.0
C148 C 0.8307 0.46878 0.04829 0.0
C149 C 0.7764 0.54491 0.02744 0.0
C150 C 0.67922 0.51259 0.95168 0.0
C151 C 0.71894 0.51348 0.97418 0.0
C152 C 0.83181 0.51247 0.04147 0.0
C153 C 0.79358 0.51361 0.01777 0.0
H154 H 0.56918 0.4331 0.91498 0.0
H155 H 0.63367 0.43529 0.95412 0.0
H156 H 0.72681 0.56911 0.01409 0.0
H157 H 0.93244 0.58635 0.09372 0.0
H158 H 0.87191 0.5892 0.05283 0.0
C159 C 0.39764 0.88812 0.39108 0.0
C160 C 0.38813 0.90368 0.42639 0.0
C161 C 0.36008 0.8539 0.36827 0.0
C162 C 0.23532 0.75566 0.37438 0.0
H163 H 0.23691 0.76926 0.26239 0.0
C164 C 0.11437 0.5995 0.27083 0.0
C165 C 0.09312 0.60998 0.23952 0.0
C166 C 0.1481 0.63632 0.29452 0.0
C167 C 0.23575 0.76514 0.29365 0.0
H168 H 0.33186 0.89598 0.4654 0.0
H169 H 0.26612 0.83601 0.42552 0.0
H170 H 0.30017 0.83271 0.30168 0.0
H171 H 0.08998 0.66709 0.20871 0.0
H172 H 0.14909 0.73148 0.25005 0.0
H173 H 0.17099 0.68797 0.3663 0.0
C174 C 0.30268 0.85013 0.41561 0.0
C175 C 0.2722 0.80124 0.3161 0.0
C176 C 0.34027 0.88461 0.43832 0.0
C177 C 0.1058 0.65793 0.23263 0.0
C178 C 0.13981 0.6948 0.25615 0.0
C179 C 0.19905 0.71938 0.35189 0.0
C180 C 0.31221 0.8343 0.3804 0.0
C181 C 0.27252 0.79679 0.35669 0.0
C182 C 0.16152 0.68441 0.28721 0.0
C183 C 0.199 0.72364 0.31128 0.0
H184 H 0.43418 0.90213 0.38115 0.0
H185 H 0.3686 0.84203 0.3415 0.0
H186 H 0.23481 0.75102 0.40556 0.0
H187 H 0.10531 0.56286 0.27682 0.0
H188 H 0.16455 0.62724 0.31801 0.0
C189 C 0.53745 0.40009 0.7425 0.0
C190 C 0.49471 0.39852 0.75361 0.0
C191 C 0.53626 0.36409 0.71894 0.0
C192 C 0.45511 0.23901 0.68579 0.0
H193 H 0.55519 0.27121 0.60948 0.0
C194 C 0.45164 0.10347 0.57239 0.0
C195 C 0.49469 0.10272 0.56804 0.0
C196 C 0.45035 0.13911 0.59485 0.0
C197 C 0.52719 0.26167 0.63086 0.0
H198 H 0.4172 0.35851 0.74833 0.0
H199 H 0.41505 0.29623 0.70626 0.0
H200 H 0.55482 0.33482 0.64781 0.0
H201 H 0.57007 0.13848 0.58381 0.0
H202 H 0.5679 0.20099 0.62269 0.0
H203 H 0.42722 0.16579 0.66817 0.0
C204 C 0.44951 0.32468 0.71644 0.0
C205 C 0.52701 0.29808 0.65293 0.0
C206 C 0.45072 0.36053 0.74032 0.0
C207 C 0.53637 0.13814 0.58666 0.0
C208 C 0.5352 0.17407 0.60871 0.0
C209 C 0.45504 0.20263 0.66339 0.0
C210 C 0.49229 0.32587 0.7056 0.0
C211 C 0.49124 0.28721 0.68097 0.0
C212 C 0.49223 0.17499 0.61296 0.0
C213 C 0.49134 0.21358 0.63597 0.0
H214 H 0.57191 0.42876 0.75252 0.0
H215 H 0.56987 0.36582 0.71184 0.0
H216 H 0.42742 0.22915 0.70748 0.0
H217 H 0.41896 0.07659 0.55837 0.0
H218 H 0.41681 0.13915 0.59745 0.0
loop_
_geom_bond_atom_site_label_1
_geom_bond_atom_site_label_2
_geom_bond_distance
_geom_bond_site_symmetry_2
_ccdc_geom_bond_type
In0 O1 2.294 1_455 S
In0 O2 2.326 1_455 S
In0 O6 2.266 . S
In0 O7 2.326 . S
In0 O8 2.266 . S
In0 O9 2.326 . S
In0 O11 2.294 1_455 S
In0 O12 2.326 1_455 S
O1 In0 2.294 1_655 S
O1 C10 1.240 . S
O2 In0 2.326 1_655 S
O2 C10 1.252 . S
C3 O6 1.252 . S
C3 O7 1.260 . S
C4 O11 1.240 . S
C4 O12 1.252 . S
C5 O8 1.252 . S
C5 O9 1.260 . S
O6 In0 2.266 . S
O6 C3 1.252 . S
O7 In0 2.326 . S
O7 C3 1.260 . S
O8 In0 2.266 . S
O8 C5 1.252 . S
O9 In0 2.326 . S
O9 C5 1.260 . S
C10 O1 1.240 . S
C10 O2 1.252 . S
O11 In0 2.294 1_655 S
O11 C4 1.240 . S
O12 In0 2.326 1_655 S
O12 C4 1.252 . S
In13 O14 2.294 . S
In13 O15 2.326 . S
In13 O19 2.266 1_545 S
In13 O20 2.326 1_545 S
In13 O21 2.266 1_545 S
In13 O22 2.326 1_545 S
In13 O24 2.294 . S
In13 O25 2.326 . S
O14 In13 2.294 . S
O14 C23 1.240 . S
O15 In13 2.326 . S
O15 C23 1.252 . S
C16 O19 1.252 . S
C16 O20 1.260 . S
C17 O24 1.240 . S
C17 O25 1.252 . S
C18 O21 1.252 . S
C18 O22 1.260 . S
O19 In13 2.266 1_565 S
O19 C16 1.252 . S
O20 In13 2.326 1_565 S
O20 C16 1.260 . S
O21 In13 2.266 1_565 S
O21 C18 1.252 . S
O22 In13 2.326 1_565 S
O22 C18 1.260 . S
C23 O14 1.240 . S
C23 O15 1.252 . S
O24 In13 2.294 . S
O24 C17 1.240 . S
O25 In13 2.326 . S
O25 C17 1.252 . S
In26 O27 2.294 . S
In26 O28 2.326 . S
In26 O32 2.266 . S
In26 O33 2.326 . S
In26 O34 2.266 . S
In26 O35 2.326 . S
In26 O37 2.294 . S
In26 O38 2.326 . S
O27 In26 2.294 . S
O27 C36 1.240 . S
O28 In26 2.326 . S
O28 C36 1.252 . S
C29 O32 1.252 . S
C29 O33 1.260 . S
C30 O37 1.240 . S
C30 O38 1.252 . S
C31 O34 1.252 . S
C31 O35 1.260 . S
O32 In26 2.266 . S
O32 C29 1.252 . S
O33 In26 2.326 . S
O33 C29 1.260 . S
O34 In26 2.266 . S
O34 C31 1.252 . S
O35 In26 2.326 . S
O35 C31 1.260 . S
C36 O27 1.240 . S
C36 O28 1.252 . S
O37 In26 2.294 . S
O37 C30 1.240 . S
O38 In26 2.326 . S
O38 C30 1.252 . S
C39 C40 1.349 . S
C39 C41 1.327 . S
C39 H64 0.950 . S
C40 C39 1.349 . S
C40 C56 1.349 . S
C41 C39 1.327 . S
C41 C60 1.429 . S
C41 H65 0.950 . S
C42 C59 1.574 . S
C42 C61 1.368 1_554 S
C42 H66 0.949 . S
H43 C47 0.949 . S
C44 C45 1.349 . S
C44 C46 1.327 . S
C44 H67 0.950 . S
C45 C44 1.349 . S
C45 C57 1.349 . S
C46 C44 1.327 . S
C46 C62 1.429 . S
C46 H68 0.950 . S
C47 H43 0.949 . S
C47 C55 1.584 . S
C47 C63 1.359 1_556 S
H48 C56 0.950 . S
H49 C54 0.950 . S
H50 C55 0.949 . S
H51 C57 0.950 . S
H52 C58 0.950 . S
H53 C59 0.949 . S
C54 H49 0.950 . S
C54 C56 1.327 . S
C54 C60 1.429 . S
C55 C47 1.584 . S
C55 H50 0.949 . S
C55 C61 1.368 . S
C56 C40 1.349 . S
C56 H48 0.950 . S
C56 C54 1.327 . S
C57 C45 1.349 . S
C57 H51 0.950 . S
C57 C58 1.327 . S
C58 H52 0.950 . S
C58 C57 1.327 . S
C58 C62 1.429 . S
C59 C42 1.574 . S
C59 H53 0.949 . S
C59 C63 1.368 . S
C60 C41 1.429 . S
C60 C54 1.429 . S
C60 C61 1.523 . S
C61 C42 1.368 1_556 S
C61 C55 1.368 . S
C61 C60 1.523 . S
C62 C46 1.429 . S
C62 C58 1.429 . S
C62 C63 1.523 . S
C63 C47 1.359 1_554 S
C63 C59 1.368 . S
C63 C62 1.523 . S
H64 C39 0.950 . S
H65 C41 0.950 . S
H66 C42 0.949 . S
H67 C44 0.950 . S
H68 C46 0.950 . S
C69 C70 1.349 . S
C69 C71 1.327 . S
C69 H94 0.950 . S
C70 C69 1.349 . S
C70 C86 1.349 . S
C71 C69 1.327 . S
C71 C90 1.429 . S
C71 H95 0.950 . S
C72 C89 1.574 . S
C72 C91 1.368 . S
C72 H96 0.949 . S
H73 C77 0.949 . S
C74 C75 1.349 . S
C74 C76 1.327 . S
C74 H97 0.950 . S
C75 C74 1.349 . S
C75 C87 1.349 . S
C76 C74 1.327 . S
C76 C92 1.429 . S
C76 H98 0.950 . S
C77 H73 0.949 . S
C77 C85 1.574 . S
C77 C93 1.368 . S
H78 C86 0.950 . S
H79 C84 0.950 . S
H80 C85 0.949 . S
H81 C87 0.950 . S
H82 C88 0.950 . S
H83 C89 0.949 . S
C84 H79 0.950 . S
C84 C86 1.327 . S
C84 C90 1.429 . S
C85 C77 1.574 . S
C85 H80 0.949 . S
C85 C91 1.368 . S
C86 C70 1.349 . S
C86 H78 0.950 . S
C86 C84 1.327 . S
C87 C75 1.349 . S
C87 H81 0.950 . S
C87 C88 1.327 . S
C88 H82 0.950 . S
C88 C87 1.327 . S
C88 C92 1.429 . S
C89 C72 1.574 . S
C89 H83 0.949 . S
C89 C93 1.368 . S
C90 C71 1.429 . S
C90 C84 1.429 . S
C90 C91 1.523 . S
C91 C72 1.368 . S
C91 C85 1.368 . S
C91 C90 1.523 . S
C92 C76 1.429 . S
C92 C88 1.429 . S
C92 C93 1.523 . S
C93 C77 1.368 . S
C93 C89 1.368 . S
C93 C92 1.523 . S
H94 C69 0.950 . S
H95 C71 0.950 . S
H96 C72 0.949 . S
H97 C74 0.950 . S
H98 C76 0.950 . S
C99 C100 1.349 . S
C99 C101 1.327 . S
C99 H124 0.950 . S
C100 C99 1.349 . S
C100 C116 1.349 . S
C101 C99 1.327 . S
C101 C120 1.429 . S
C101 H125 0.950 . S
C102 C119 1.574 . S
C102 C121 1.368 . S
C102 H126 0.949 . S
H103 C107 0.949 . S
C104 C105 1.349 . S
C104 C106 1.327 . S
C104 H127 0.950 . S
C105 C104 1.349 . S
C105 C117 1.349 . S
C106 C104 1.327 . S
C106 C122 1.429 . S
C106 H128 0.950 . S
C107 H103 0.949 . S
C107 C115 1.574 . S
C107 C123 1.368 . S
H108 C116 0.950 . S
H109 C114 0.950 . S
H110 C115 0.949 . S
H111 C117 0.950 . S
H112 C118 0.950 . S
H113 C119 0.949 . S
C114 H109 0.950 . S
C114 C116 1.327 . S
C114 C120 1.429 . S
C115 C107 1.574 . S
C115 H110 0.949 . S
C115 C121 1.368 . S
C116 C100 1.349 . S
C116 H108 0.950 . S
C116 C114 1.327 . S
C117 C105 1.349 . S
C117 H111 0.950 . S
C117 C118 1.327 . S
C118 H112 0.950 . S
C118 C117 1.327 . S
C118 C122 1.429 . S
C119 C102 1.574 . S
C119 H113 0.949 . S
C119 C123 1.368 . S
C120 C101 1.429 . S
C120 C114 1.429 . S
C120 C121 1.523 . S
C121 C102 1.368 . S
C121 C115 1.368 . S
C121 C120 1.523 . S
C122 C106 1.429 . S
C122 C118 1.429 . S
C122 C123 1.523 . S
C123 C107 1.368 . S
C123 C119 1.368 . S
C123 C122 1.523 . S
H124 C99 0.950 . S
H125 C101 0.950 . S
H126 C102 0.949 . S
H127 C104 0.950 . S
H128 C106 0.950 . S
C129 C130 1.349 . S
C129 C131 1.327 . S
C129 H154 0.950 . S
C130 C129 1.349 . S
C130 C146 1.349 . S
C131 C129 1.327 . S
C131 C150 1.429 . S
C131 H155 0.950 . S
C132 C149 1.574 . S
C132 C151 1.368 1_554 S
C132 H156 0.949 . S
H133 C137 0.949 . S
C134 C135 1.349 . S
C134 C136 1.327 . S
C134 H157 0.950 . S
C135 C134 1.349 . S
C135 C147 1.349 . S
C136 C134 1.327 . S
C136 C152 1.429 . S
C136 H158 0.950 . S
C137 H133 0.949 . S
C137 C145 1.574 . S
C137 C153 1.368 1_556 S
H138 C146 0.950 . S
H139 C144 0.950 . S
H140 C145 0.949 . S
H141 C147 0.950 . S
H142 C148 0.950 . S
H143 C149 0.949 . S
C144 H139 0.950 . S
C144 C146 1.327 . S
C144 C150 1.429 . S
C145 C137 1.574 . S
C145 H140 0.949 . S
C145 C151 1.368 . S
C146 C130 1.349 . S
C146 H138 0.950 . S
C146 C144 1.327 . S
C147 C135 1.349 . S
C147 H141 0.950 . S
C147 C148 1.327 . S
C148 H142 0.950 . S
C148 C147 1.327 . S
C148 C152 1.429 . S
C149 C132 1.574 . S
C149 H143 0.949 . S
C149 C153 1.368 . S
C150 C131 1.429 . S
C150 C144 1.429 . S
C150 C151 1.523 . S
C151 C132 1.368 1_556 S
C151 C145 1.368 . S
C151 C150 1.523 . S
C152 C136 1.429 . S
C152 C148 1.429 . S
C152 C153 1.523 . S
C153 C137 1.368 1_554 S
C153 C149 1.368 . S
C153 C152 1.523 . S
H154 C129 0.950 . S
H155 C131 0.950 . S
H156 C132 0.949 . S
H157 C134 0.950 . S
H158 C136 0.950 . S
C159 C160 1.349 . S
C159 C161 1.327 . S
C159 H184 0.950 . S
C160 C159 1.349 . S
C160 C176 1.349 . S
C161 C159 1.327 . S
C161 C180 1.429 . S
C161 H185 0.950 . S
C162 C179 1.574 . S
C162 C181 1.368 . S
C162 H186 0.949 . S
H163 C167 0.949 . S
C164 C165 1.349 . S
C164 C166 1.327 . S
C164 H187 0.950 . S
C165 C164 1.349 . S
C165 C177 1.349 . S
C166 C164 1.327 . S
C166 C182 1.429 . S
C166 H188 0.950 . S
C167 H163 0.949 . S
C167 C175 1.574 . S
C167 C183 1.368 . S
H168 C176 0.950 . S
H169 C174 0.950 . S
H170 C175 0.949 . S
H171 C177 0.950 . S
H172 C178 0.950 . S
H173 C179 0.949 . S
C174 H169 0.950 . S
C174 C176 1.327 . S
C174 C180 1.429 . S
C175 C167 1.574 . S
C175 H170 0.949 . S
C175 C181 1.368 . S
C176 C160 1.349 . S
C176 H168 0.950 . S
C176 C174 1.327 . S
C177 C165 1.349 . S
C177 H171 0.950 . S
C177 C178 1.327 . S
C178 H172 0.950 . S
C178 C177 1.327 . S
C178 C182 1.429 . S
C179 C162 1.574 . S
C179 H173 0.949 . S
C179 C183 1.368 . S
C180 C161 1.429 . S
C180 C174 1.429 . S
C180 C181 1.523 . S
C181 C162 1.368 . S
C181 C175 1.368 . S
C181 C180 1.523 . S
C182 C166 1.429 . S
C182 C178 1.429 . S
C182 C183 1.523 . S
C183 C167 1.368 . S
C183 C179 1.368 . S
C183 C182 1.523 . S
H184 C159 0.950 . S
H185 C161 0.950 . S
H186 C162 0.949 . S
H187 C164 0.950 . S
H188 C166 0.950 . S
C189 C190 1.349 . S
C189 C191 1.327 . S
C189 H214 0.950 . S
C190 C189 1.349 . S
C190 C206 1.349 . S
C191 C189 1.327 . S
C191 C210 1.429 . S
C191 H215 0.950 . S
C192 C209 1.574 . S
C192 C211 1.368 . S
C192 H216 0.949 . S
H193 C197 0.949 . S
C194 C195 1.349 . S
C194 C196 1.327 . S
C194 H217 0.950 . S
C195 C194 1.349 . S
C195 C207 1.349 . S
C196 C194 1.327 . S
C196 C212 1.429 . S
C196 H218 0.950 . S
C197 H193 0.949 . S
C197 C205 1.574 . S
C197 C213 1.368 . S
H198 C206 0.950 . S
H199 C204 0.950 . S
H200 C205 0.949 . S
H201 C207 0.950 . S
H202 C208 0.950 . S
H203 C209 0.949 . S
C204 H199 0.950 . S
C204 C206 1.327 . S
C204 C210 1.429 . S
C205 C197 1.574 . S
C205 H200 0.949 . S
C205 C211 1.368 . S
C206 C190 1.349 . S
C206 H198 0.950 . S
C206 C204 1.327 . S
C207 C195 1.349 . S
C207 H201 0.950 . S
C207 C208 1.327 . S
C208 H202 0.950 . S
C208 C207 1.327 . S
C208 C212 1.429 . S
C209 C192 1.574 . S
C209 H203 0.949 . S
C209 C213 1.368 . S
C210 C191 1.429 . S
C210 C204 1.429 . S
C210 C211 1.523 . S
C211 C192 1.368 . S
C211 C205 1.368 . S
C211 C210 1.523 . S
C212 C196 1.429 . S
C212 C208 1.429 . S
C212 C213 1.523 . S
C213 C197 1.368 . S
C213 C209 1.368 . S
C213 C212 1.523 . S
H214 C189 0.950 . S
H215 C191 0.950 . S
H216 C192 0.949 . S
H217 C194 0.950 . S
H218 C196 0.950 . S
C40 C30 1.561 . S
C45 C3 1.561 . S
C70 C10 1.553 . S
C75 C23 1.553 . S
C100 C16 1.561 . S
C105 C36 1.561 . S
C130 C29 1.561 . S
C135 C4 1.560 . S
C160 C18 1.568 . S
C165 C5 1.568 . S
C190 C31 1.561 . S
C195 C17 1.560 . S
