# Generated by pormake.
# Topology hex, (8)-cn, num edge types: 1
# Building blocks:
#     Node 0, Type 0, BuildingBlock: VETTIZ_charged_sbu_0, # of connection points: 8
#     Edge 1, Type (0, 0), BuildingBlock: CIFDUS_clean_linker_0, # of connection points: 2
#     Edge 2, Type (0, 0), BuildingBlock: CIFDUS_clean_linker_0, # of connection points: 2
#     Edge 3, Type (0, 0), BuildingBlock: CIFDUS_clean_linker_0, # of connection points: 2
#     Edge 4, Type (0, 0), BuildingBlock: CIFDUS_clean_linker_0, # of connection points: 2
# Relax obj value: 0.198
# Max RMSD: 0.293
# Mean RMSD: 0.293
data_MOF--net-hex--node1-VETTIZ_charged_sbu_0--edge1-CIFDUS_clean_linker_0
_symmetry_space_group_name_H-M    P1
_symmetry_Int_Tables_number       1
_symmetry_cell_setting            triclinic
loop_
_symmetry_equiv_pos_as_xyz
'x, y, z'
_cell_length_a     14.424697
_cell_length_b     15.263036
_cell_length_c     16.30177
_cell_angle_alpha  79.779525
_cell_angle_beta   94.372768
_cell_angle_gamma 126.3142
loop_
_atom_site_label
_atom_site_type_symbol
_atom_site_fract_x
_atom_site_fract_y
_atom_site_fract_z
_atom_type_partial_charge
Fe0 Fe 0.04917 0.87986 0.13632 0.0
O1 O 0.09257 1.00613 0.03617 0.0
Fe2 Fe 0.92642 0.03243 0.06489 0.0
Fe3 Fe 0.14429 1.02237 0.90826 0.0
O4 O 0.04516 1.0035 0.06051 0.0
O5 O 0.97814 0.04867 0.93698 0.0
O6 O 1.02555 0.05129 0.91264 0.0
Fe7 Fe 1.02154 0.17494 0.83684 0.0
C8 C 0.26639 1.00481 0.06864 0.0
O9 O 0.05072 0.79828 0.05049 0.0
O10 O 1.02711 0.85203 0.9175 0.0
O11 O 0.83917 0.09112 0.82917 0.0
O12 O 0.87892 0.04662 0.94679 0.0
O13 O 0.80012 0.8701 0.0697 0.0
O14 O 0.87003 0.77604 0.12399 0.0
O15 O 0.13563 0.03905 0.77987 0.0
O16 O 1.02741 0.10208 0.74408 0.0
C17 C 0.7886 0.78064 0.0929 0.0
O18 O 1.01999 0.25651 0.92267 0.0
O19 O 0.0436 0.20277 0.05565 0.0
O20 O 0.23155 0.96367 0.14399 0.0
O21 O 0.1918 1.00817 0.02636 0.0
C22 C 1.03267 0.78564 0.97454 0.0
C23 C 0.07944 0.0622 0.72701 0.0
C24 C 0.28211 0.27416 0.88026 0.0
O25 O 0.27059 0.18469 0.90346 0.0
O26 O 0.20068 0.27876 0.84916 0.0
C27 C 0.80432 0.04999 0.90451 0.0
O28 O 0.93509 1.01574 0.19329 0.0
O29 O 0.0433 0.95272 0.22907 0.0
C30 C 0.03804 0.26916 -0.00139 0.0
C31 C 0.99127 0.9926 0.24614 0.0
H32 H 0.89621 0.32143 0.94117 0.0
H33 H 0.1956 0.42999 0.08967 0.0
H34 H 0.22796 0.6084 0.08412 0.0
H35 H 0.17451 0.73337 0.03199 0.0
H36 H 0.87511 0.62481 0.88349 0.0
H37 H 0.84275 0.4464 0.88904 0.0
C38 C 0.96769 0.38379 0.97349 0.0
C39 C 0.04339 0.36311 0.01642 0.0
C40 C 0.98782 0.48634 0.9668 0.0
C41 C 0.13534 0.44362 0.05797 0.0
C42 C 0.15482 0.5459 0.05319 0.0
C43 C 0.10302 0.671 -0.00033 0.0
C44 C 1.02732 0.69169 0.95674 0.0
C45 C 0.08289 0.56845 0.00636 0.0
C46 C 0.93537 0.61117 0.91518 0.0
C47 C 0.9159 0.5089 0.91996 0.0
H48 H 0.63221 0.06057 0.8326 0.0
H49 H 0.76153 1.01274 0.07085 0.0
H50 H 0.60957 0.99464 0.1432 0.0
H51 H 0.4385 0.99423 0.14056 0.0
H52 H 0.30918 0.04205 0.9023 0.0
H53 H 0.46115 0.06016 0.82995 0.0
C54 C 0.62644 0.0455 0.90021 0.0
C55 C 0.70708 0.03567 0.94565 0.0
C56 C 0.53891 0.03679 0.94235 0.0
C57 C 0.69916 1.01756 0.03356 0.0
C58 C 0.61253 1.00832 0.07559 0.0
C59 C 0.44428 1.0093 0.07294 0.0
C60 C 0.36363 1.01913 0.0275 0.0
C61 C 0.5318 1.018 0.0308 0.0
C62 C 0.37155 0.03723 0.93959 0.0
C63 C 0.45818 0.04648 0.89756 0.0
H64 H 0.30905 0.44092 0.94497 0.0
H65 H 0.49681 0.32397 0.87797 0.0
H66 H 0.66614 0.46104 0.94682 0.0
H67 H 0.76166 0.61388 0.02819 0.0
H68 H 0.5739 0.73082 0.09519 0.0
H69 H 0.40457 0.59376 0.02633 0.0
C70 C 0.38811 0.44765 0.94337 0.0
C71 C 0.39072 0.37372 0.90446 0.0
C72 C 0.48464 0.52482 0.98559 0.0
C73 C 0.49298 0.38124 0.9058 0.0
C74 C 0.5896 0.4588 0.9462 0.0
C75 C 0.68261 0.60715 0.02978 0.0
C76 C 0.67999 0.68108 0.0687 0.0
C77 C 0.58607 0.52998 -0.01244 0.0
C78 C 0.57773 0.67356 0.06735 0.0
C79 C 0.48111 0.596 0.02695 0.0
H80 H 0.96752 0.0977 0.59818 0.0
H81 H 0.1791 0.98239 0.65985 0.0
H82 H 0.17031 0.95142 0.51681 0.0
H83 H 0.10319 0.9571 0.37498 0.0
H84 H 0.89162 0.07241 0.3133 0.0
H85 H 0.9004 0.10338 0.45635 0.0
C86 C 1.01193 0.06576 0.58072 0.0
C87 C 0.07399 0.04253 0.64021 0.0
C88 C 1.00667 0.04816 0.4984 0.0
C89 C 0.13064 1.00108 0.61577 0.0
C90 C 0.12572 0.98334 0.53387 0.0
C91 C 0.05878 0.98903 0.39244 0.0
C92 C 0.99672 1.01226 0.33295 0.0
C93 C 0.06404 1.00664 0.47475 0.0
C94 C 0.94008 0.05372 0.35738 0.0
C95 C 0.94499 0.07146 0.43929 0.0
loop_
_geom_bond_atom_site_label_1
_geom_bond_atom_site_label_2
_geom_bond_distance
_geom_bond_site_symmetry_2
_ccdc_geom_bond_type
Fe0 O1 1.886 1_554 S
Fe0 O4 1.715 1_455 S
Fe0 O9 2.077 1_455 S
Fe0 O14 1.935 1_455 S
Fe0 O20 2.077 . S
Fe0 O29 1.935 . S
O1 Fe0 1.886 1_556 S
O1 Fe3 1.715 1_565 S
Fe2 O4 1.886 . S
Fe2 O5 1.715 1_565 S
Fe2 O12 1.935 . S
Fe2 O13 2.077 . S
Fe2 O19 1.935 1_565 S
Fe2 O28 2.077 1_565 S
Fe3 O1 1.715 1_545 S
Fe3 O6 1.886 . S
Fe3 O10 1.935 1_545 S
Fe3 O15 2.077 1_545 S
Fe3 O21 1.935 . S
Fe3 O25 2.077 . S
O4 Fe0 1.715 1_655 S
O4 Fe2 1.886 . S
O5 Fe2 1.715 1_545 S
O5 Fe7 1.886 1_554 S
O6 Fe3 1.886 . S
O6 Fe7 1.715 1_455 S
Fe7 O5 1.886 1_556 S
Fe7 O6 1.715 1_655 S
Fe7 O11 2.077 . S
Fe7 O16 1.935 . S
Fe7 O18 2.077 1_655 S
Fe7 O26 1.935 1_655 S
C8 O20 1.381 . S
C8 O21 1.421 1_564 S
O9 Fe0 2.077 1_655 S
O9 C22 1.381 1_654 S
O10 Fe3 1.935 1_565 S
O10 C22 1.421 . S
O11 Fe7 2.077 . S
O11 C27 1.381 . S
O12 Fe2 1.935 . S
O12 C27 1.421 1_564 S
O13 Fe2 2.077 . S
O13 C17 1.381 . S
O14 Fe0 1.935 1_655 S
O14 C17 1.421 . S
O15 Fe3 2.077 1_565 S
O15 C23 1.381 1_565 S
O16 Fe7 1.935 . S
O16 C23 1.421 1_655 S
C17 O13 1.381 . S
C17 O14 1.421 . S
O18 Fe7 2.077 1_455 S
O18 C30 1.381 1_456 S
O19 Fe2 1.935 1_545 S
O19 C30 1.421 . S
O20 Fe0 2.077 . S
O20 C8 1.381 . S
O21 Fe3 1.935 . S
O21 C8 1.421 1_546 S
C22 O9 1.381 1_456 S
C22 O10 1.421 . S
C23 O15 1.381 1_545 S
C23 O16 1.421 1_455 S
C24 O25 1.381 . S
C24 O26 1.421 . S
O25 Fe3 2.077 . S
O25 C24 1.381 . S
O26 Fe7 1.935 1_455 S
O26 C24 1.421 . S
C27 O11 1.381 . S
C27 O12 1.421 1_546 S
O28 Fe2 2.077 1_545 S
O28 C31 1.381 1_545 S
O29 Fe0 1.935 . S
O29 C31 1.421 1_455 S
C30 O18 1.381 1_654 S
C30 O19 1.421 . S
C31 O28 1.381 1_565 S
C31 O29 1.421 1_655 S
H32 C38 0.930 . S
H33 C41 0.930 . S
H34 C42 0.930 . S
H35 C43 0.930 . S
H36 C46 0.930 . S
H37 C47 0.930 . S
C38 H32 0.930 . S
C38 C39 1.355 1_655 S
C38 C40 1.411 1_554 S
C39 C38 1.355 1_455 S
C39 C41 1.419 . S
C40 C38 1.411 1_556 S
C40 C45 1.425 1_656 S
C40 C47 1.412 . S
C41 H33 0.930 . S
C41 C39 1.419 . S
C41 C42 1.362 . S
C42 H34 0.930 . S
C42 C41 1.362 . S
C42 C45 1.413 . S
C43 H35 0.930 . S
C43 C44 1.355 1_455 S
C43 C45 1.410 1_556 S
C44 C43 1.355 1_655 S
C44 C46 1.419 . S
C45 C40 1.425 1_454 S
C45 C42 1.413 . S
C45 C43 1.410 1_554 S
C46 H36 0.930 . S
C46 C44 1.419 . S
C46 C47 1.362 . S
C47 H37 0.930 . S
C47 C40 1.412 . S
C47 C46 1.362 . S
H48 C54 0.930 . S
H49 C57 0.930 . S
H50 C58 0.930 . S
H51 C59 0.930 . S
H52 C62 0.930 . S
H53 C63 0.930 . S
C54 H48 0.930 . S
C54 C55 1.355 . S
C54 C56 1.415 . S
C55 C54 1.355 . S
C55 C57 1.419 1_546 S
C56 C54 1.415 . S
C56 C61 1.425 1_546 S
C56 C63 1.409 . S
C57 H49 0.930 . S
C57 C55 1.419 1_564 S
C57 C58 1.362 . S
C58 H50 0.930 . S
C58 C57 1.362 . S
C58 C61 1.409 . S
C59 H51 0.930 . S
C59 C60 1.355 . S
C59 C61 1.415 . S
C60 C59 1.355 . S
C60 C62 1.419 1_564 S
C61 C56 1.425 1_564 S
C61 C58 1.409 . S
C61 C59 1.415 . S
C62 H52 0.930 . S
C62 C60 1.419 1_546 S
C62 C63 1.362 . S
C63 H53 0.930 . S
C63 C56 1.409 . S
C63 C62 1.362 . S
H64 C70 0.930 . S
H65 C73 0.930 . S
H66 C74 0.930 . S
H67 C75 0.930 . S
H68 C78 0.930 . S
H69 C79 0.930 . S
C70 H64 0.930 . S
C70 C71 1.355 . S
C70 C72 1.415 . S
C71 C70 1.355 . S
C71 C73 1.419 . S
C72 C70 1.415 . S
C72 C77 1.425 1_556 S
C72 C79 1.409 . S
C73 H65 0.930 . S
C73 C71 1.419 . S
C73 C74 1.362 1_556 S
C74 H66 0.930 . S
C74 C73 1.362 1_554 S
C74 C77 1.409 . S
C75 H67 0.930 . S
C75 C76 1.355 . S
C75 C77 1.415 . S
C76 C75 1.355 . S
C76 C78 1.419 . S
C77 C72 1.425 1_554 S
C77 C74 1.409 . S
C77 C75 1.415 . S
C78 H68 0.930 . S
C78 C76 1.419 . S
C78 C79 1.362 1_554 S
C79 H69 0.930 . S
C79 C72 1.409 . S
C79 C78 1.362 1_556 S
H80 C86 0.930 . S
H81 C89 0.930 . S
H82 C90 0.930 . S
H83 C91 0.930 . S
H84 C94 0.930 . S
H85 C95 0.930 . S
C86 H80 0.930 . S
C86 C87 1.355 1_565 S
C86 C88 1.414 1_455 S
C87 C86 1.355 1_545 S
C87 C89 1.419 . S
C88 C86 1.414 1_655 S
C88 C93 1.435 1_665 S
C88 C95 1.406 . S
C89 H81 0.930 . S
C89 C87 1.419 . S
C89 C90 1.362 . S
C90 H82 0.930 . S
C90 C89 1.362 . S
C90 C93 1.405 . S
C91 H83 0.930 . S
C91 C92 1.355 1_545 S
C91 C93 1.414 1_655 S
C92 C91 1.355 1_565 S
C92 C94 1.419 . S
C93 C88 1.435 1_445 S
C93 C90 1.405 . S
C93 C91 1.414 1_455 S
C94 H84 0.930 . S
C94 C92 1.419 . S
C94 C95 1.362 . S
C95 H85 0.930 . S
C95 C88 1.406 . S
C95 C94 1.362 . S
C39 C30 1.578 1_455 S
C44 C22 1.578 1_655 S
C55 C27 1.436 . S
C60 C8 1.436 . S
C71 C24 1.708 . S
C76 C17 1.708 . S
C87 C23 1.415 . S
C92 C31 1.415 . S
