# Generated by pormake.
# Topology upa, (4)-cn, num edge types: 1
# Building blocks:
#     Node 0, Type 0, BuildingBlock: QUQFOY_clean_sbu_1, # of connection points: 4
#     Node 1, Type 0, BuildingBlock: QUQFOY_clean_sbu_1, # of connection points: 4
#     Node 2, Type 0, BuildingBlock: QUQFOY_clean_sbu_1, # of connection points: 4
#     Node 3, Type 0, BuildingBlock: QUQFOY_clean_sbu_1, # of connection points: 4
#     Node 4, Type 0, BuildingBlock: QUQFOY_clean_sbu_1, # of connection points: 4
#     Node 5, Type 0, BuildingBlock: QUQFOY_clean_sbu_1, # of connection points: 4
#     Node 6, Type 0, BuildingBlock: QUQFOY_clean_sbu_1, # of connection points: 4
#     Node 7, Type 0, BuildingBlock: QUQFOY_clean_sbu_1, # of connection points: 4
#     Edge 8, Type (0, 0), None
#     Edge 9, Type (0, 0), None
#     Edge 10, Type (0, 0), None
#     Edge 11, Type (0, 0), None
#     Edge 12, Type (0, 0), None
#     Edge 13, Type (0, 0), None
#     Edge 14, Type (0, 0), None
#     Edge 15, Type (0, 0), None
#     Edge 16, Type (0, 0), None
#     Edge 17, Type (0, 0), None
#     Edge 18, Type (0, 0), None
#     Edge 19, Type (0, 0), None
#     Edge 20, Type (0, 0), None
#     Edge 21, Type (0, 0), None
#     Edge 22, Type (0, 0), None
#     Edge 23, Type (0, 0), None
# Relax obj value: 0.075
# Max RMSD: 0.072
# Mean RMSD: 0.072
data_MOF--net-upa--node1-QUQFOY_clean_sbu_1--edge1-none
_symmetry_space_group_name_H-M    P1
_symmetry_Int_Tables_number       1
_symmetry_cell_setting            triclinic
loop_
_symmetry_equiv_pos_as_xyz
'x, y, z'
_cell_length_a     14.683701
_cell_length_b     14.683697
_cell_length_c     18.207281
_cell_angle_alpha  89.999875
_cell_angle_beta   90.000123
_cell_angle_gamma 90.0
loop_
_atom_site_label
_atom_site_type_symbol
_atom_site_fract_x
_atom_site_fract_y
_atom_site_fract_z
_atom_type_partial_charge
O0 O 0.22089 0.13363 0.44894 0.0
Cd1 Cd 0.21389 0.10833 0.33751 0.0
Cd2 Cd 0.04797 0.23331 0.36382 0.0
O3 O 0.11131 0.23609 0.46626 0.0
O4 O 0.33919 0.06638 0.30743 0.0
O5 O 0.27115 0.18992 0.26356 0.0
C6 C 0.34173 0.1373 0.26566 0.0
C7 C 0.92615 0.32804 0.33211 0.0
C8 C 0.17627 0.18681 0.49077 0.0
C9 C 0.02963 0.03452 0.30872 0.0
O10 O 4e-05 0.11067 0.33009 0.0
O11 O 0.11458 0.01793 0.3058 0.0
O12 O 0.92164 0.27421 0.38743 0.0
O13 O 0.00428 0.3388 0.30086 0.0
O14 O 0.3606 0.72089 0.94895 0.0
Cd15 Cd 0.38591 0.7139 0.83752 0.0
Cd16 Cd 0.26092 0.54796 0.86382 0.0
O17 O 0.25815 0.61131 0.96626 0.0
O18 O 0.42785 0.83919 0.80743 0.0
O19 O 0.30431 0.77115 0.76357 0.0
C20 C 0.35694 0.84174 0.76567 0.0
C21 C 0.1662 0.42615 0.83211 0.0
C22 C 0.30742 0.67627 0.99077 0.0
C23 C 0.45972 0.52963 0.80872 0.0
O24 O 0.38356 0.50004 0.83009 0.0
O25 O 0.4763 0.61458 0.80581 0.0
O26 O 0.22003 0.42164 0.88743 0.0
O27 O 0.15543 0.50428 0.80087 0.0
O28 O 0.77334 0.86061 0.44894 0.0
Cd29 Cd 0.78033 0.88593 0.33752 0.0
Cd30 Cd 0.94627 0.76091 0.36382 0.0
O31 O 0.88293 0.75816 0.46625 0.0
O32 O 0.65503 0.92787 0.30743 0.0
O33 O 0.72308 0.80433 0.26357 0.0
C34 C 0.65249 0.85696 0.26567 0.0
C35 C 0.06808 0.66618 0.33212 0.0
C36 C 0.81796 0.80743 0.49077 0.0
C37 C 0.9646 0.95969 0.30868 0.0
O38 O 0.9942 0.88354 0.33007 0.0
O39 O 0.87965 0.97631 0.30581 0.0
O40 O 0.07259 0.72002 0.38743 0.0
O41 O 0.98995 0.6554 0.30087 0.0
O42 O 0.63362 0.27334 0.94894 0.0
Cd43 Cd 0.60831 0.28033 0.83751 0.0
Cd44 Cd 0.73332 0.44627 0.86381 0.0
O45 O 0.73608 0.38292 0.96625 0.0
O46 O 0.56636 0.15504 0.80742 0.0
O47 O 0.6899 0.22308 0.76356 0.0
C48 C 0.63727 0.15249 0.76566 0.0
C49 C 0.82806 0.56808 0.83211 0.0
C50 C 0.68681 0.31796 0.99076 0.0
C51 C 0.53454 0.4646 0.80868 0.0
O52 O 0.61069 0.4942 0.83007 0.0
O53 O 0.51792 0.37966 0.80581 0.0
O54 O 0.77422 0.57259 0.88743 0.0
O55 O 0.83883 0.48995 0.80087 0.0
O56 O 0.72089 0.3606 0.11261 0.0
Cd57 Cd 0.7139 0.38591 0.22404 0.0
Cd58 Cd 0.54795 0.26092 0.19773 0.0
O59 O 0.61131 0.25814 0.0953 0.0
O60 O 0.8392 0.42787 0.25412 0.0
O61 O 0.77116 0.30432 0.29798 0.0
C62 C 0.84175 0.35695 0.29588 0.0
C63 C 0.42614 0.16623 0.22944 0.0
C64 C 0.67628 0.3074 0.07079 0.0
C65 C 0.52963 0.45972 0.25284 0.0
O66 O 0.50004 0.38356 0.23146 0.0
O67 O 0.61458 0.4763 0.25575 0.0
O68 O 0.42162 0.22004 0.17411 0.0
O69 O 0.50426 0.15543 0.26069 0.0
O70 O 0.13363 0.22089 0.61261 0.0
Cd71 Cd 0.10832 0.2139 0.72404 0.0
Cd72 Cd 0.23332 0.04795 0.69773 0.0
O73 O 0.23609 0.11131 0.5953 0.0
O74 O 0.06636 0.3392 0.75412 0.0
O75 O 0.18991 0.27116 0.79799 0.0
C76 C 0.13728 0.34174 0.79588 0.0
C77 C 0.32801 0.92615 0.72945 0.0
C78 C 0.18683 0.17629 0.5708 0.0
C79 C 0.03452 0.02963 0.75284 0.0
O80 O 0.11067 4e-05 0.73146 0.0
O81 O 0.01793 0.11458 0.75575 0.0
O82 O 0.27419 0.92162 0.67412 0.0
O83 O 0.3388 0.00427 0.76069 0.0
O84 O 0.27334 0.63362 0.11262 0.0
Cd85 Cd 0.28032 0.6083 0.22404 0.0
Cd86 Cd 0.44628 0.73333 0.19774 0.0
O87 O 0.38292 0.73609 0.09531 0.0
O88 O 0.15503 0.56634 0.25413 0.0
O89 O 0.22307 0.68989 0.29799 0.0
C90 C 0.15249 0.63726 0.29589 0.0
C91 C 0.56808 0.82803 0.22944 0.0
C92 C 0.31794 0.68683 0.0708 0.0
C93 C 0.4646 0.53454 0.25287 0.0
O94 O 0.4942 0.61069 0.23149 0.0
O95 O 0.37966 0.51792 0.25575 0.0
O96 O 0.5726 0.77421 0.17412 0.0
O97 O 0.48996 0.83883 0.26069 0.0
O98 O 0.86061 0.77334 0.61261 0.0
Cd99 Cd 0.88594 0.78032 0.72404 0.0
Cd100 Cd 0.76091 0.94628 0.69773 0.0
O101 O 0.75815 0.88293 0.5953 0.0
O102 O 0.92789 0.65503 0.75412 0.0
O103 O 0.80434 0.72307 0.79798 0.0
C104 C 0.85697 0.65248 0.79588 0.0
C105 C 0.6662 0.06809 0.72944 0.0
C106 C 0.80741 0.81795 0.5708 0.0
C107 C 0.95969 0.9646 0.75287 0.0
O108 O 0.88354 0.9942 0.73149 0.0
O109 O 0.97631 0.87965 0.75574 0.0
O110 O 0.72003 0.07261 0.67411 0.0
O111 O 0.65541 0.98996 0.76068 0.0
loop_
_geom_bond_atom_site_label_1
_geom_bond_atom_site_label_2
_geom_bond_distance
_geom_bond_site_symmetry_2
_ccdc_geom_bond_type
O0 Cd1 2.223 . S
O0 C8 1.315 . S
Cd1 O0 2.223 . S
Cd1 O4 2.297 . S
Cd1 O5 2.439 . S
Cd1 O11 2.240 . S
Cd2 O3 2.240 1_655 S
Cd2 O10 2.223 . S
Cd2 O12 2.297 . S
Cd2 O13 2.439 . S
O3 Cd2 2.240 1_455 S
O3 C8 1.279 . S
O4 Cd1 2.297 . S
O4 C6 1.247 . S
O5 Cd1 2.439 . S
O5 C6 1.208 . S
C6 O4 1.247 . S
C6 O5 1.208 . S
C7 O12 1.247 . S
C7 O13 1.208 . S
C8 O0 1.315 . S
C8 O3 1.279 . S
C9 O10 1.315 . S
C9 O11 1.279 1_655 S
O10 Cd2 2.223 . S
O10 C9 1.315 . S
O11 Cd1 2.240 . S
O11 C9 1.279 1_455 S
O12 Cd2 2.297 . S
O12 C7 1.247 . S
O13 Cd2 2.439 . S
O13 C7 1.208 . S
O14 Cd15 2.223 . S
O14 C22 1.315 . S
Cd15 O14 2.223 . S
Cd15 O18 2.297 . S
Cd15 O19 2.439 . S
Cd15 O25 2.240 . S
Cd16 O17 2.240 . S
Cd16 O24 2.223 . S
Cd16 O26 2.297 . S
Cd16 O27 2.439 . S
O17 Cd16 2.240 . S
O17 C22 1.279 . S
O18 Cd15 2.297 . S
O18 C20 1.247 . S
O19 Cd15 2.439 . S
O19 C20 1.208 . S
C20 O18 1.247 . S
C20 O19 1.208 . S
C21 O26 1.247 . S
C21 O27 1.208 . S
C22 O14 1.315 . S
C22 O17 1.279 . S
C23 O24 1.315 . S
C23 O25 1.279 . S
O24 Cd16 2.223 . S
O24 C23 1.315 . S
O25 Cd15 2.240 . S
O25 C23 1.279 . S
O26 Cd16 2.297 . S
O26 C21 1.247 . S
O27 Cd16 2.439 . S
O27 C21 1.208 . S
O28 Cd29 2.223 . S
O28 C36 1.315 . S
Cd29 O28 2.223 . S
Cd29 O32 2.297 . S
Cd29 O33 2.439 . S
Cd29 O39 2.240 . S
Cd30 O31 2.240 1_455 S
Cd30 O38 2.223 . S
Cd30 O40 2.297 . S
Cd30 O41 2.439 . S
O31 Cd30 2.240 1_655 S
O31 C36 1.279 . S
O32 Cd29 2.297 . S
O32 C34 1.247 . S
O33 Cd29 2.439 . S
O33 C34 1.208 . S
C34 O32 1.247 . S
C34 O33 1.208 . S
C35 O40 1.247 . S
C35 O41 1.208 . S
C36 O28 1.315 . S
C36 O31 1.279 . S
C37 O38 1.315 . S
C37 O39 1.279 1_455 S
O38 Cd30 2.223 . S
O38 C37 1.315 . S
O39 Cd29 2.240 . S
O39 C37 1.279 1_655 S
O40 Cd30 2.297 . S
O40 C35 1.247 . S
O41 Cd30 2.439 . S
O41 C35 1.208 . S
O42 Cd43 2.223 . S
O42 C50 1.315 . S
Cd43 O42 2.223 . S
Cd43 O46 2.297 . S
Cd43 O47 2.439 . S
Cd43 O53 2.240 . S
Cd44 O45 2.240 . S
Cd44 O52 2.223 . S
Cd44 O54 2.297 . S
Cd44 O55 2.439 . S
O45 Cd44 2.240 . S
O45 C50 1.279 . S
O46 Cd43 2.297 . S
O46 C48 1.247 . S
O47 Cd43 2.439 . S
O47 C48 1.208 . S
C48 O46 1.247 . S
C48 O47 1.208 . S
C49 O54 1.247 . S
C49 O55 1.208 . S
C50 O42 1.315 . S
C50 O45 1.279 . S
C51 O52 1.315 . S
C51 O53 1.279 . S
O52 Cd44 2.223 . S
O52 C51 1.315 . S
O53 Cd43 2.240 . S
O53 C51 1.279 . S
O54 Cd44 2.297 . S
O54 C49 1.247 . S
O55 Cd44 2.439 . S
O55 C49 1.208 . S
O56 Cd57 2.223 . S
O56 C64 1.315 . S
Cd57 O56 2.223 . S
Cd57 O60 2.297 . S
Cd57 O61 2.439 . S
Cd57 O67 2.240 . S
Cd58 O59 2.240 . S
Cd58 O66 2.223 . S
Cd58 O68 2.297 . S
Cd58 O69 2.439 . S
O59 Cd58 2.240 . S
O59 C64 1.279 . S
O60 Cd57 2.297 . S
O60 C62 1.247 . S
O61 Cd57 2.439 . S
O61 C62 1.208 . S
C62 O60 1.247 . S
C62 O61 1.208 . S
C63 O68 1.247 . S
C63 O69 1.208 . S
C64 O56 1.315 . S
C64 O59 1.279 . S
C65 O66 1.315 . S
C65 O67 1.279 . S
O66 Cd58 2.223 . S
O66 C65 1.315 . S
O67 Cd57 2.240 . S
O67 C65 1.279 . S
O68 Cd58 2.297 . S
O68 C63 1.247 . S
O69 Cd58 2.439 . S
O69 C63 1.208 . S
O70 Cd71 2.223 . S
O70 C78 1.315 . S
Cd71 O70 2.223 . S
Cd71 O74 2.297 . S
Cd71 O75 2.439 . S
Cd71 O81 2.240 . S
Cd72 O73 2.240 1_565 S
Cd72 O80 2.223 . S
Cd72 O82 2.297 . S
Cd72 O83 2.439 . S
O73 Cd72 2.240 1_545 S
O73 C78 1.279 . S
O74 Cd71 2.297 . S
O74 C76 1.247 . S
O75 Cd71 2.439 . S
O75 C76 1.208 . S
C76 O74 1.247 . S
C76 O75 1.208 . S
C77 O82 1.247 . S
C77 O83 1.208 . S
C78 O70 1.315 . S
C78 O73 1.279 . S
C79 O80 1.315 . S
C79 O81 1.279 1_565 S
O80 Cd72 2.223 . S
O80 C79 1.315 . S
O81 Cd71 2.240 . S
O81 C79 1.279 1_545 S
O82 Cd72 2.297 . S
O82 C77 1.247 . S
O83 Cd72 2.439 . S
O83 C77 1.208 . S
O84 Cd85 2.223 . S
O84 C92 1.315 . S
Cd85 O84 2.223 . S
Cd85 O88 2.297 . S
Cd85 O89 2.439 . S
Cd85 O95 2.240 . S
Cd86 O87 2.240 . S
Cd86 O94 2.223 . S
Cd86 O96 2.297 . S
Cd86 O97 2.439 . S
O87 Cd86 2.240 . S
O87 C92 1.279 . S
O88 Cd85 2.297 . S
O88 C90 1.247 . S
O89 Cd85 2.439 . S
O89 C90 1.208 . S
C90 O88 1.247 . S
C90 O89 1.208 . S
C91 O96 1.247 . S
C91 O97 1.208 . S
C92 O84 1.315 . S
C92 O87 1.279 . S
C93 O94 1.315 . S
C93 O95 1.279 . S
O94 Cd86 2.223 . S
O94 C93 1.315 . S
O95 Cd85 2.240 . S
O95 C93 1.279 . S
O96 Cd86 2.297 . S
O96 C91 1.247 . S
O97 Cd86 2.439 . S
O97 C91 1.208 . S
O98 Cd99 2.223 . S
O98 C106 1.315 . S
Cd99 O98 2.223 . S
Cd99 O102 2.297 . S
Cd99 O103 2.439 . S
Cd99 O109 2.240 . S
Cd100 O101 2.240 1_545 S
Cd100 O108 2.223 . S
Cd100 O110 2.297 . S
Cd100 O111 2.439 . S
O101 Cd100 2.240 1_565 S
O101 C106 1.279 . S
O102 Cd99 2.297 . S
O102 C104 1.247 . S
O103 Cd99 2.439 . S
O103 C104 1.208 . S
C104 O102 1.247 . S
C104 O103 1.208 . S
C105 O110 1.247 . S
C105 O111 1.208 . S
C106 O98 1.315 . S
C106 O101 1.279 . S
C107 O108 1.315 . S
C107 O109 1.279 1_545 S
O108 Cd100 2.223 . S
O108 C107 1.315 . S
O109 Cd99 2.240 . S
O109 C107 1.279 1_565 S
O110 Cd100 2.297 . S
O110 C105 1.247 . S
O111 Cd100 2.439 . S
O111 C105 1.208 . S
C9 C37 1.229 1_645 S
C23 C51 1.229 . S
C65 C93 1.229 . S
C79 C107 1.229 1_465 S
C8 C78 1.314 . S
C22 C92 1.314 1_556 S
C106 C36 1.314 . S
C50 C64 1.314 1_556 S
C63 C6 1.904 . S
C20 C77 1.905 . S
C34 C91 1.904 . S
C48 C105 1.905 . S
C7 C62 1.905 . S
C76 C21 1.904 . S
C90 C35 1.905 . S
C49 C104 1.904 . S
