# Generated by pormake.
# Topology pcu, (6)-cn, num edge types: 1
# Building blocks:
#     Node 0, Type 0, BuildingBlock: UKALOJ_clean_sbu_0, # of connection points: 6
#     Edge 1, Type (0, 0), BuildingBlock: AJUNOK_clean_linker_0, # of connection points: 2
#     Edge 2, Type (0, 0), BuildingBlock: AJUNOK_clean_linker_0, # of connection points: 2
#     Edge 3, Type (0, 0), BuildingBlock: AJUNOK_clean_linker_0, # of connection points: 2
# Relax obj value: 0.010
# Max RMSD: 0.054
# Mean RMSD: 0.054
data_MOF--net-pcu--node1-UKALOJ_clean_sbu_0--edge1-AJUNOK_clean_linker_0
_symmetry_space_group_name_H-M    P1
_symmetry_Int_Tables_number       1
_symmetry_cell_setting            triclinic
loop_
_symmetry_equiv_pos_as_xyz
'x, y, z'
_cell_length_a     11.358153
_cell_length_b     11.353135
_cell_length_c     16.146452
_cell_angle_alpha  97.398536
_cell_angle_beta   82.180992
_cell_angle_gamma 93.633677
loop_
_atom_site_label
_atom_site_type_symbol
_atom_site_fract_x
_atom_site_fract_y
_atom_site_fract_z
_atom_type_partial_charge
Zn0 Zn 0.95875 0.0007 0.10432 0.0
O1 O 0.95356 0.81286 0.10601 0.0
C2 C 0.2153 -0.00381 0.03382 0.0
Zn3 Zn -0.01532 0.9776 0.96426 0.0
C4 C 0.96649 0.74606 0.03613 0.0
O5 O -0.02102 0.79312 0.96815 0.0
C6 C -0.02101 0.23216 0.03095 0.0
O7 O 0.79909 0.97118 0.96458 0.0
O8 O 0.77117 -0.00576 0.1025 0.0
N9 N 0.01106 0.9467 0.83557 0.0
C10 C 0.96991 -0.0035 0.77431 0.0
C11 C 0.07673 0.85409 0.71437 0.0
N12 N 0.07758 0.8585 0.79803 0.0
N13 N 0.00989 0.93988 0.69791 0.0
C14 C 0.96871 0.97557 0.29356 0.0
C15 C 0.86489 0.11934 0.35504 0.0
N16 N 0.93165 0.03021 0.23302 0.0
N17 N 0.8671 0.11933 0.27144 0.0
N18 N 0.92711 0.02938 0.37063 0.0
H19 H -0.00373 0.78918 0.26964 0.0
H20 H 0.10271 0.87264 0.32996 0.0
H21 H 0.1115 0.8789 0.21802 0.0
C22 C 0.0502 0.87388 0.27696 0.0
C23 C 0.88583 0.09585 0.78898 0.0
H24 H 0.81574 0.07687 0.74679 0.0
H25 H 0.93535 0.17906 0.77334 0.0
H26 H 0.84405 0.11001 0.85518 0.0
O27 O -0.0084 0.16309 0.9622 0.0
O28 O 0.96395 0.18767 0.1002 0.0
C29 C 0.72842 0.98195 0.03288 0.0
O30 O 0.14718 0.00795 0.1035 0.0
O31 O 0.1695 0.98309 0.96556 0.0
C32 C -0.01129 0.09681 0.50993 0.0
C33 C 0.94754 0.00482 0.45247 0.0
C34 C 0.00848 0.07546 0.59043 0.0
C35 C -0.01333 0.96162 0.61612 0.0
H36 H 0.00719 0.18538 0.49184 0.0
H37 H 0.04304 0.14767 0.63227 0.0
S38 S 0.8679 0.6938 0.49232 0.0
N39 N 0.87748 0.79822 0.42895 0.0
N40 N 0.91697 0.7575 0.57984 0.0
C41 C 0.94396 0.86947 0.55977 0.0
C42 C 0.92334 0.89128 0.47806 0.0
C43 C 0.39667 0.00053 0.10747 0.0
C44 C 0.34637 -0.00608 0.03188 0.0
C45 C 0.51986 -0.00426 0.10718 0.0
C46 C 0.59799 0.98391 0.03129 0.0
H47 H 0.34057 0.00907 0.16761 0.0
H48 H 0.55388 0.00151 0.16715 0.0
S49 S 0.51193 0.96336 0.81563 0.0
N50 N 0.3851 0.97553 0.87869 0.0
N51 N 0.61558 0.96587 0.8782 0.0
C52 C 0.54887 0.97711 0.95515 0.0
C53 C 0.42353 0.98231 0.95543 0.0
C54 C 0.94285 0.56074 0.10754 0.0
C55 C 0.97027 0.61502 0.03326 0.0
C56 C 0.94686 0.43727 0.10628 0.0
C57 C -0.02133 0.36294 0.03069 0.0
H58 H 0.91734 0.61376 0.16728 0.0
H59 H 0.92384 0.39992 0.16513 0.0
S60 S 0.06409 0.46101 0.81901 0.0
N61 N 0.03366 0.58462 0.88196 0.0
N62 N 0.04208 0.35361 0.87993 0.0
C63 C 0.00774 0.41622 0.95607 0.0
C64 C 0.00327 0.54181 0.95725 0.0
loop_
_geom_bond_atom_site_label_1
_geom_bond_atom_site_label_2
_geom_bond_distance
_geom_bond_site_symmetry_2
_ccdc_geom_bond_type
Zn0 O1 2.055 . S
Zn0 O8 2.046 . S
Zn0 N16 2.036 1_565 S
Zn0 O28 2.053 1_565 S
Zn0 O30 2.066 1_665 S
O1 Zn0 2.055 . S
O1 C4 1.259 1_554 S
C2 O30 1.256 1_565 S
C2 O31 1.244 1_554 S
Zn3 O5 2.046 . S
Zn3 O7 2.055 . S
Zn3 N9 2.036 1_655 S
Zn3 O27 2.066 1_665 S
Zn3 O31 2.053 1_655 S
C4 O1 1.259 1_556 S
C4 O5 1.254 . S
O5 Zn3 2.046 . S
O5 C4 1.254 . S
C6 O27 1.256 1_655 S
C6 O28 1.244 1_556 S
O7 Zn3 2.055 . S
O7 C29 1.259 1_556 S
O8 Zn0 2.046 . S
O8 C29 1.254 . S
N9 Zn3 2.036 1_455 S
N9 C10 1.298 1_465 S
N9 N12 1.398 . S
C10 N9 1.298 1_645 S
C10 N13 1.367 1_655 S
C10 C23 1.481 . S
C11 N12 1.299 . S
C11 N13 1.379 1_565 S
N12 N9 1.398 . S
N12 C11 1.299 . S
N13 C10 1.367 1_455 S
N13 C11 1.379 1_545 S
C14 N16 1.298 1_465 S
C14 N18 1.367 1_565 S
C14 C22 1.481 . S
C15 N17 1.299 . S
C15 N18 1.379 1_655 S
N16 Zn0 2.036 1_545 S
N16 C14 1.298 1_645 S
N16 N17 1.398 . S
N17 C15 1.299 . S
N17 N16 1.398 . S
N18 C14 1.367 1_545 S
N18 C15 1.379 1_455 S
H19 C22 0.980 . S
H20 C22 0.981 . S
H21 C22 0.981 . S
C22 C14 1.481 . S
C22 H19 0.980 . S
C22 H20 0.981 . S
C22 H21 0.981 . S
C23 C10 1.481 . S
C23 H24 0.980 . S
C23 H25 0.981 . S
C23 H26 0.981 . S
H24 C23 0.980 . S
H25 C23 0.981 . S
H26 C23 0.981 . S
O27 Zn3 2.066 1_445 S
O27 C6 1.256 1_455 S
O28 Zn0 2.053 1_545 S
O28 C6 1.244 1_554 S
C29 O7 1.259 1_554 S
C29 O8 1.254 . S
O30 Zn0 2.066 1_445 S
O30 C2 1.256 1_545 S
O31 C2 1.244 1_556 S
O31 Zn3 2.053 1_455 S
C32 C33 1.369 . S
C32 C34 1.419 . S
C32 H36 0.930 . S
C33 C32 1.369 . S
C33 C42 1.429 1_445 S
C34 C32 1.419 . S
C34 C35 1.363 . S
C34 H37 0.929 . S
C35 C34 1.363 . S
C35 C41 1.428 1_445 S
H36 C32 0.930 . S
H37 C34 0.929 . S
S38 N39 1.613 . S
S38 N40 1.610 . S
N39 S38 1.613 . S
N39 C42 1.350 . S
N40 S38 1.610 . S
N40 C41 1.351 . S
C41 C35 1.428 1_665 S
C41 N40 1.351 . S
C41 C42 1.434 . S
C42 C33 1.429 1_665 S
C42 N39 1.350 . S
C42 C41 1.434 . S
C43 C44 1.369 . S
C43 C45 1.419 . S
C43 H47 0.930 . S
C44 C43 1.369 . S
C44 C53 1.429 1_564 S
C45 C43 1.419 . S
C45 C46 1.363 . S
C45 H48 0.929 . S
C46 C45 1.363 . S
C46 C52 1.428 1_564 S
H47 C43 0.930 . S
H48 C45 0.929 . S
S49 N50 1.613 . S
S49 N51 1.610 . S
N50 S49 1.613 . S
N50 C53 1.350 . S
N51 S49 1.610 . S
N51 C52 1.351 . S
C52 C46 1.428 1_546 S
C52 N51 1.351 . S
C52 C53 1.434 . S
C53 C44 1.429 1_546 S
C53 N50 1.350 . S
C53 C52 1.434 . S
C54 C55 1.369 1_554 S
C54 C56 1.419 . S
C54 H58 0.930 . S
C55 C54 1.369 1_556 S
C55 C64 1.429 1_655 S
C56 C54 1.419 . S
C56 C57 1.363 1_554 S
C56 H59 0.929 . S
C57 C56 1.363 1_556 S
C57 C63 1.428 1_655 S
H58 C54 0.930 . S
H59 C56 0.929 . S
S60 N61 1.613 . S
S60 N62 1.610 . S
N61 S60 1.613 . S
N61 C64 1.350 . S
N62 S60 1.610 . S
N62 C63 1.351 . S
C63 C57 1.428 1_455 S
C63 N62 1.351 . S
C63 C64 1.434 . S
C64 C55 1.429 1_455 S
C64 N61 1.350 . S
C64 C63 1.434 . S
C33 N18 1.460 . S
C35 N13 1.462 . S
C44 C2 1.499 . S
C46 C29 1.496 . S
C55 C4 1.496 . S
C57 C6 1.499 . S
