# Generated by pormake.
# Topology rob, (6)-cn, num edge types: 1
# Building blocks:
#     Node 0, Type 0, BuildingBlock: NUHQIS_clean_sbu_0, # of connection points: 6
#     Node 1, Type 0, BuildingBlock: NUHQIS_clean_sbu_0, # of connection points: 6
#     Node 2, Type 0, BuildingBlock: NUHQIS_clean_sbu_0, # of connection points: 6
#     Node 3, Type 0, BuildingBlock: NUHQIS_clean_sbu_0, # of connection points: 6
#     Edge 4, Type (0, 0), None
#     Edge 5, Type (0, 0), None
#     Edge 6, Type (0, 0), None
#     Edge 7, Type (0, 0), None
#     Edge 8, Type (0, 0), None
#     Edge 9, Type (0, 0), None
#     Edge 10, Type (0, 0), None
#     Edge 11, Type (0, 0), None
#     Edge 12, Type (0, 0), None
#     Edge 13, Type (0, 0), None
#     Edge 14, Type (0, 0), None
#     Edge 15, Type (0, 0), None
# Relax obj value: 0.045
# Max RMSD: 0.196
# Mean RMSD: 0.196
data_MOF--net-rob--node1-NUHQIS_clean_sbu_0--edge1-none
_symmetry_space_group_name_H-M    P1
_symmetry_Int_Tables_number       1
_symmetry_cell_setting            triclinic
loop_
_symmetry_equiv_pos_as_xyz
'x, y, z'
_cell_length_a     11.040094
_cell_length_b     10.094668
_cell_length_c     20.334759
_cell_angle_alpha  89.663362
_cell_angle_beta   90.00568
_cell_angle_gamma 89.993362
loop_
_atom_site_label
_atom_site_type_symbol
_atom_site_fract_x
_atom_site_fract_y
_atom_site_fract_z
_atom_type_partial_charge
Tb0 Tb 0.10535 0.31099 0.09059 0.0
Eu1 Eu 0.24967 0.1047 1.04387 0.0
C2 C 0.37049 0.41074 0.06766 0.0
C3 C 0.15081 0.28695 0.9409 0.0
C4 C -0.04764 0.39561 0.2365 0.0
C5 C 0.74974 0.48666 0.36651 0.0
C6 C 0.91774 0.53327 0.27959 0.0
C7 C 0.88825 0.24408 0.25622 0.0
C8 C 0.77967 0.21137 0.31637 0.0
C9 C 0.71521 0.3232 0.37034 0.0
C10 C -0.02191 0.43298 0.16767 0.0
O11 O -0.03196 0.14314 0.06886 0.0
O12 O 0.09203 -0.03438 0.06858 0.0
O13 O 0.21397 0.03557 0.14688 0.0
O14 O 0.20562 0.24544 0.17466 0.0
C15 C -0.01962 0.01065 0.06906 0.0
O16 O 0.27228 0.93689 0.97844 0.0
O17 O 0.42977 0.0535 1.00958 0.0
O18 O 0.38739 0.27965 0.06763 0.0
O19 O 0.25664 0.45078 0.06742 0.0
O20 O 0.13542 0.37367 0.98823 0.0
O21 O 0.14549 0.16487 0.95712 0.0
C22 C 0.19798 0.12401 0.19273 0.0
O23 O 0.08799 0.47102 0.15524 0.0
O24 O -0.07006 0.36187 0.12091 0.0
C25 C 0.40118 0.01648 0.89506 0.0
C26 C 0.63772 0.08536 0.76061 0.0
C27 C 0.60372 0.92223 0.76572 0.0
C28 C 0.43555 0.87776 0.85298 0.0
C29 C 0.46527 0.1674 0.87441 0.0
C30 C 0.5738 0.19835 0.81415 0.0
C31 C 0.37998 -0.01985 0.96412 0.0
H32 H 0.70417 0.55197 0.40164 0.0
H33 H -0.0387 0.62552 0.26344 0.0
H34 H 0.91145 0.16205 0.22463 0.0
H35 H 0.75705 0.10812 0.32392 0.0
H36 H 0.6486 0.85655 0.73051 0.0
H37 H 0.39195 0.78591 0.86969 0.0
H38 H 0.4424 0.25018 0.90559 0.0
H39 H 0.59645 0.30143 0.80604 0.0
Tb40 Tb 0.60534 0.81099 0.09058 0.0
Eu41 Eu 0.74967 0.6047 1.04387 0.0
C42 C 0.87049 0.91074 0.06766 0.0
C43 C 0.6508 0.78694 0.9409 0.0
C44 C 0.45235 0.8956 0.2365 0.0
C45 C 0.24975 -0.01334 0.36651 0.0
C46 C 0.41774 0.03325 0.27959 0.0
C47 C 0.38824 0.74406 0.25622 0.0
C48 C 0.27965 0.71137 0.31637 0.0
C49 C 0.21521 0.8232 0.37034 0.0
C50 C 0.47808 0.93296 0.16766 0.0
O51 O 0.46804 0.64314 0.06885 0.0
O52 O 0.59203 0.46562 0.06858 0.0
O53 O 0.71397 0.53557 0.14688 0.0
O54 O 0.70562 0.74544 0.17465 0.0
C55 C 0.48038 0.51065 0.06906 0.0
O56 O 0.77226 0.43689 0.97843 0.0
O57 O -0.07024 0.55348 1.00958 0.0
O58 O 0.88739 0.77965 0.06762 0.0
O59 O 0.75664 0.95078 0.06743 0.0
O60 O 0.63542 0.87366 0.98823 0.0
O61 O 0.64549 0.66486 0.95712 0.0
C62 C 0.69798 0.624 0.19273 0.0
O63 O 0.58797 -0.02898 0.15523 0.0
O64 O 0.42993 0.86184 0.1209 0.0
C65 C 0.90116 0.51646 0.89506 0.0
C66 C 0.13772 0.58537 0.76062 0.0
C67 C 0.10373 0.42223 0.76572 0.0
C68 C -0.06444 0.37775 0.85298 0.0
C69 C -0.03475 0.66739 0.87441 0.0
C70 C 0.07378 0.69835 0.81415 0.0
C71 C 0.87996 0.48014 0.96412 0.0
H72 H 0.20418 0.05197 0.40165 0.0
H73 H 0.46131 0.1255 0.26343 0.0
H74 H 0.41142 0.66204 0.22462 0.0
H75 H 0.25703 0.60812 0.32392 0.0
H76 H 0.14862 0.35656 0.73052 0.0
H77 H 0.89195 0.2859 0.86968 0.0
H78 H -0.05763 0.75017 0.90559 0.0
H79 H 0.09643 0.80143 0.80604 0.0
Tb80 Tb 0.10536 0.59904 0.54143 0.0
Eu81 Eu 0.24964 0.8053 0.58825 0.0
C82 C 0.37049 0.49928 0.56441 0.0
C83 C 0.15061 0.62299 0.69111 0.0
C84 C -0.0474 0.51463 0.39539 0.0
C85 C 0.74957 0.42346 0.26556 0.0
C86 C 0.91793 0.37696 0.35233 0.0
C87 C 0.88832 0.66614 0.37572 0.0
C88 C 0.7795 0.6988 0.31568 0.0
C89 C 0.71491 0.58691 0.26179 0.0
C90 C -0.02173 0.47718 0.46423 0.0
O91 O -0.03196 0.76689 0.56317 0.0
O92 O 0.09202 0.94439 0.56349 0.0
O93 O 0.21408 0.87455 0.48524 0.0
O94 O 0.20571 0.66465 0.45742 0.0
C95 C -0.01962 0.89937 0.56299 0.0
O96 O 0.27207 -0.02703 0.65379 0.0
O97 O 0.42967 0.85648 0.62266 0.0
O98 O 0.38738 0.63037 0.56448 0.0
O99 O 0.25664 0.45924 0.56462 0.0
O100 O 0.13531 0.53627 0.64378 0.0
O101 O 0.14534 0.74508 0.67492 0.0
C102 C 0.19815 0.78612 0.43938 0.0
O103 O 0.08815 0.43912 0.4767 0.0
O104 O -0.06999 0.54818 0.511 0.0
C105 C 0.40092 0.89328 0.7372 0.0
C106 C 0.63806 0.82457 0.87137 0.0
C107 C 0.60391 -0.01232 0.86633 0.0
C108 C 0.43534 0.03202 0.77925 0.0
C109 C 0.46521 0.74239 0.75779 0.0
C110 C 0.574 0.7115 0.81793 0.0
C111 C 0.37977 0.9297 0.66814 0.0
H112 H 0.70392 0.35814 0.23047 0.0
H113 H -0.03839 0.28473 0.36844 0.0
H114 H 0.91156 0.74818 0.4073 0.0
H115 H 0.75679 0.80204 0.30814 0.0
H116 H 0.64887 0.05338 0.9015 0.0
H117 H 0.39159 0.12384 0.76259 0.0
H118 H 0.44229 0.6596 0.72663 0.0
H119 H 0.59676 0.60845 0.82603 0.0
Tb120 Tb 0.60536 0.09904 0.54143 0.0
Eu121 Eu 0.74964 0.3053 0.58825 0.0
C122 C 0.87049 -0.00072 0.5644 0.0
C123 C 0.65062 0.12299 0.69111 0.0
C124 C 0.45261 0.01462 0.39538 0.0
C125 C 0.24957 0.92346 0.26556 0.0
C126 C 0.41793 0.87694 0.35232 0.0
C127 C 0.38834 0.16613 0.37572 0.0
C128 C 0.27951 0.1988 0.31568 0.0
C129 C 0.21492 0.08691 0.2618 0.0
C130 C 0.47829 -0.02284 0.46422 0.0
O131 O 0.46804 0.26689 0.56316 0.0
O132 O 0.59201 0.44439 0.5635 0.0
O133 O 0.71408 0.37455 0.48524 0.0
O134 O 0.70571 0.16465 0.45742 0.0
C135 C 0.48037 0.39936 0.563 0.0
O136 O 0.7721 0.47297 0.65378 0.0
O137 O -0.07032 0.35646 0.62266 0.0
O138 O 0.88738 0.13037 0.56447 0.0
O139 O 0.75664 -0.04076 0.56462 0.0
O140 O 0.63531 0.03627 0.64377 0.0
O141 O 0.64535 0.24508 0.67492 0.0
C142 C 0.69815 0.28611 0.43938 0.0
O143 O 0.58818 0.93912 0.47669 0.0
O144 O 0.43002 0.04815 0.51099 0.0
C145 C 0.90093 0.39327 0.73719 0.0
C146 C 0.13806 0.32457 0.87137 0.0
C147 C 0.1039 0.48768 0.86633 0.0
C148 C -0.06466 0.53201 0.77925 0.0
C149 C -0.03477 0.24238 0.75779 0.0
C150 C 0.07402 0.2115 0.81793 0.0
C151 C 0.87978 0.42968 0.66813 0.0
H152 H 0.2039 0.85814 0.23047 0.0
H153 H 0.4616 0.78471 0.36843 0.0
H154 H 0.41158 0.24817 0.4073 0.0
H155 H 0.25681 0.30204 0.30814 0.0
H156 H 0.14886 0.55338 0.9015 0.0
H157 H 0.89159 0.62383 0.76259 0.0
H158 H -0.05769 0.15959 0.72662 0.0
H159 H 0.09679 0.10845 0.82603 0.0
loop_
_geom_bond_atom_site_label_1
_geom_bond_atom_site_label_2
_geom_bond_distance
_geom_bond_site_symmetry_2
_ccdc_geom_bond_type
Tb0 C10 2.825 . S
Tb0 O11 2.347 . S
Tb0 O14 2.366 . S
Tb0 O19 2.418 . S
Tb0 O20 2.384 1_554 S
Tb0 O23 2.479 . S
Tb0 O24 2.471 1_455 S
Eu1 O12 2.418 1_545 S
Eu1 O13 2.384 1_556 S
Eu1 O16 2.479 1_545 S
Eu1 O17 2.471 . S
Eu1 O18 2.347 . S
Eu1 O21 2.366 . S
Eu1 C31 2.825 . S
C2 O18 1.259 1_554 S
C2 O19 1.265 . S
C3 O20 1.255 . S
C3 O21 1.265 . S
C4 C6 1.380 . S
C4 C7 1.374 . S
C4 C10 1.507 1_655 S
C5 C6 1.384 . S
C5 C9 1.387 . S
C5 H32 0.930 . S
C6 C4 1.380 . S
C6 C5 1.384 . S
C6 H33 0.931 . S
C7 C4 1.374 . S
C7 C8 1.390 . S
C7 H34 0.930 . S
C8 C7 1.390 . S
C8 C9 1.391 . S
C8 H35 0.930 . S
C9 C5 1.387 . S
C9 C8 1.391 . S
C10 Tb0 2.825 . S
C10 C4 1.507 1_455 S
C10 O23 1.238 . S
C10 O24 1.247 1_455 S
O11 Tb0 2.347 . S
O11 C15 1.259 1_554 S
O12 Eu1 2.418 1_565 S
O12 C15 1.265 1_565 S
O13 Eu1 2.384 1_554 S
O13 C22 1.255 . S
O14 Tb0 2.366 . S
O14 C22 1.265 . S
C15 O11 1.259 1_556 S
C15 O12 1.265 1_545 S
O16 Eu1 2.479 1_565 S
O16 C31 1.238 1_565 S
O17 Eu1 2.471 . S
O17 C31 1.247 . S
O18 Eu1 2.347 . S
O18 C2 1.259 1_556 S
O19 Tb0 2.418 . S
O19 C2 1.265 . S
O20 Tb0 2.384 1_556 S
O20 C3 1.255 . S
O21 Eu1 2.366 . S
O21 C3 1.265 . S
C22 O13 1.255 . S
C22 O14 1.265 . S
O23 Tb0 2.479 . S
O23 C10 1.238 . S
O24 Tb0 2.471 1_655 S
O24 C10 1.247 1_655 S
C25 C28 1.380 1_545 S
C25 C29 1.374 . S
C25 C31 1.507 . S
C26 C27 1.387 1_545 S
C26 C30 1.391 . S
C27 C26 1.387 1_565 S
C27 C28 1.384 . S
C27 H36 0.930 . S
C28 C25 1.380 1_565 S
C28 C27 1.384 . S
C28 H37 0.931 . S
C29 C25 1.374 . S
C29 C30 1.390 . S
C29 H38 0.930 . S
C30 C26 1.391 . S
C30 C29 1.390 . S
C30 H39 0.930 . S
C31 Eu1 2.825 . S
C31 O16 1.238 1_545 S
C31 O17 1.247 . S
C31 C25 1.507 . S
H32 C5 0.930 . S
H33 C6 0.931 . S
H34 C7 0.930 . S
H35 C8 0.930 . S
H36 C27 0.930 . S
H37 C28 0.931 . S
H38 C29 0.930 . S
H39 C30 0.930 . S
Tb40 C50 2.825 . S
Tb40 O51 2.347 . S
Tb40 O54 2.366 . S
Tb40 O59 2.418 1_565 S
Tb40 O60 2.384 1_554 S
Tb40 O63 2.479 1_565 S
Tb40 O64 2.471 . S
Eu41 O52 2.418 . S
Eu41 O53 2.384 1_556 S
Eu41 O56 2.479 . S
Eu41 O57 2.471 1_655 S
Eu41 O58 2.347 . S
Eu41 O61 2.366 . S
Eu41 C71 2.825 . S
C42 O58 1.259 1_554 S
C42 O59 1.265 1_565 S
C43 O60 1.255 . S
C43 O61 1.265 . S
C44 C46 1.380 1_565 S
C44 C47 1.374 . S
C44 C50 1.507 . S
C45 C46 1.384 . S
C45 C49 1.387 1_545 S
C45 H72 0.930 . S
C46 C44 1.380 1_545 S
C46 C45 1.384 . S
C46 H73 0.931 . S
C47 C44 1.374 . S
C47 C48 1.390 . S
C47 H74 0.930 . S
C48 C47 1.390 . S
C48 C49 1.391 . S
C48 H75 0.930 . S
C49 C45 1.387 1_565 S
C49 C48 1.391 . S
C50 Tb40 2.825 . S
C50 C44 1.507 . S
C50 O63 1.238 1_565 S
C50 O64 1.247 . S
O51 Tb40 2.347 . S
O51 C55 1.259 1_554 S
O52 Eu41 2.418 . S
O52 C55 1.265 . S
O53 Eu41 2.384 1_554 S
O53 C62 1.255 . S
O54 Tb40 2.366 . S
O54 C62 1.265 . S
C55 O51 1.259 1_556 S
C55 O52 1.265 . S
O56 Eu41 2.479 . S
O56 C71 1.238 . S
O57 Eu41 2.471 1_455 S
O57 C71 1.247 1_455 S
O58 Eu41 2.347 . S
O58 C42 1.259 1_556 S
O59 Tb40 2.418 1_545 S
O59 C42 1.265 1_545 S
O60 Tb40 2.384 1_556 S
O60 C43 1.255 . S
O61 Eu41 2.366 . S
O61 C43 1.265 . S
C62 O53 1.255 . S
C62 O54 1.265 . S
O63 Tb40 2.479 1_545 S
O63 C50 1.238 1_545 S
O64 Tb40 2.471 . S
O64 C50 1.247 . S
C65 C68 1.380 . S
C65 C69 1.374 . S
C65 C71 1.507 1_455 S
C66 C67 1.387 . S
C66 C70 1.391 . S
C67 C66 1.387 . S
C67 C68 1.384 . S
C67 H76 0.930 . S
C68 C65 1.380 . S
C68 C67 1.384 . S
C68 H77 0.931 . S
C69 C65 1.374 . S
C69 C70 1.390 . S
C69 H78 0.930 . S
C70 C66 1.391 . S
C70 C69 1.390 . S
C70 H79 0.930 . S
C71 Eu41 2.825 . S
C71 O56 1.238 . S
C71 O57 1.247 1_655 S
C71 C65 1.507 1_655 S
H72 C45 0.930 . S
H73 C46 0.931 . S
H74 C47 0.930 . S
H75 C48 0.930 . S
H76 C67 0.930 . S
H77 C68 0.931 . S
H78 C69 0.930 . S
H79 C70 0.930 . S
Tb80 C90 2.825 . S
Tb80 O91 2.347 . S
Tb80 O94 2.366 . S
Tb80 O99 2.418 . S
Tb80 O100 2.384 . S
Tb80 O103 2.479 . S
Tb80 O104 2.471 1_455 S
Eu81 O92 2.418 1_565 S
Eu81 O93 2.384 . S
Eu81 O96 2.479 1_565 S
Eu81 O97 2.471 . S
Eu81 O98 2.347 . S
Eu81 O101 2.366 . S
Eu81 C111 2.825 . S
C82 O98 1.259 . S
C82 O99 1.265 . S
C83 O100 1.255 . S
C83 O101 1.265 . S
C84 C86 1.380 . S
C84 C87 1.374 . S
C84 C90 1.507 1_655 S
C85 C86 1.384 . S
C85 C89 1.387 . S
C85 H112 0.930 . S
C86 C84 1.380 . S
C86 C85 1.384 . S
C86 H113 0.931 . S
C87 C84 1.374 . S
C87 C88 1.390 . S
C87 H114 0.930 . S
C88 C87 1.390 . S
C88 C89 1.391 . S
C88 H115 0.930 . S
C89 C85 1.387 . S
C89 C88 1.391 . S
C90 Tb80 2.825 . S
C90 C84 1.507 1_455 S
C90 O103 1.238 . S
C90 O104 1.247 1_455 S
O91 Tb80 2.347 . S
O91 C95 1.259 . S
O92 Eu81 2.418 1_545 S
O92 C95 1.265 1_545 S
O93 Eu81 2.384 . S
O93 C102 1.255 . S
O94 Tb80 2.366 . S
O94 C102 1.265 . S
C95 O91 1.259 . S
C95 O92 1.265 1_565 S
O96 Eu81 2.479 1_545 S
O96 C111 1.238 1_545 S
O97 Eu81 2.471 . S
O97 C111 1.247 . S
O98 Eu81 2.347 . S
O98 C82 1.259 . S
O99 Tb80 2.418 . S
O99 C82 1.265 . S
O100 Tb80 2.384 . S
O100 C83 1.255 . S
O101 Eu81 2.366 . S
O101 C83 1.265 . S
C102 O93 1.255 . S
C102 O94 1.265 . S
O103 Tb80 2.479 . S
O103 C90 1.238 . S
O104 Tb80 2.471 1_655 S
O104 C90 1.247 1_655 S
C105 C108 1.380 1_565 S
C105 C109 1.374 . S
C105 C111 1.507 . S
C106 C107 1.387 1_565 S
C106 C110 1.391 . S
C107 C106 1.387 1_545 S
C107 C108 1.384 . S
C107 H116 0.930 . S
C108 C105 1.380 1_545 S
C108 C107 1.384 . S
C108 H117 0.931 . S
C109 C105 1.374 . S
C109 C110 1.390 . S
C109 H118 0.930 . S
C110 C106 1.391 . S
C110 C109 1.390 . S
C110 H119 0.930 . S
C111 Eu81 2.825 . S
C111 O96 1.238 1_565 S
C111 O97 1.247 . S
C111 C105 1.507 . S
H112 C85 0.930 . S
H113 C86 0.931 . S
H114 C87 0.930 . S
H115 C88 0.930 . S
H116 C107 0.930 . S
H117 C108 0.931 . S
H118 C109 0.930 . S
H119 C110 0.930 . S
Tb120 C130 2.825 . S
Tb120 O131 2.347 . S
Tb120 O134 2.366 . S
Tb120 O139 2.418 1_545 S
Tb120 O140 2.384 . S
Tb120 O143 2.479 1_545 S
Tb120 O144 2.471 . S
Eu121 O132 2.418 . S
Eu121 O133 2.384 . S
Eu121 O136 2.479 . S
Eu121 O137 2.471 1_655 S
Eu121 O138 2.347 . S
Eu121 O141 2.366 . S
Eu121 C151 2.825 . S
C122 O138 1.259 . S
C122 O139 1.265 1_545 S
C123 O140 1.255 . S
C123 O141 1.265 . S
C124 C126 1.380 1_545 S
C124 C127 1.374 . S
C124 C130 1.507 . S
C125 C126 1.384 . S
C125 C129 1.387 1_565 S
C125 H152 0.930 . S
C126 C124 1.380 1_565 S
C126 C125 1.384 . S
C126 H153 0.931 . S
C127 C124 1.374 . S
C127 C128 1.390 . S
C127 H154 0.930 . S
C128 C127 1.390 . S
C128 C129 1.391 . S
C128 H155 0.930 . S
C129 C125 1.387 1_545 S
C129 C128 1.391 . S
C130 Tb120 2.825 . S
C130 C124 1.507 . S
C130 O143 1.238 1_545 S
C130 O144 1.247 . S
O131 Tb120 2.347 . S
O131 C135 1.259 . S
O132 Eu121 2.418 . S
O132 C135 1.265 . S
O133 Eu121 2.384 . S
O133 C142 1.255 . S
O134 Tb120 2.366 . S
O134 C142 1.265 . S
C135 O131 1.259 . S
C135 O132 1.265 . S
O136 Eu121 2.479 . S
O136 C151 1.238 . S
O137 Eu121 2.471 1_455 S
O137 C151 1.247 1_455 S
O138 Eu121 2.347 . S
O138 C122 1.259 . S
O139 Tb120 2.418 1_565 S
O139 C122 1.265 1_565 S
O140 Tb120 2.384 . S
O140 C123 1.255 . S
O141 Eu121 2.366 . S
O141 C123 1.265 . S
C142 O133 1.255 . S
C142 O134 1.265 . S
O143 Tb120 2.479 1_565 S
O143 C130 1.238 1_565 S
O144 Tb120 2.471 . S
O144 C130 1.247 . S
C145 C148 1.380 . S
C145 C149 1.374 . S
C145 C151 1.507 1_455 S
C146 C147 1.387 . S
C146 C150 1.391 . S
C147 C146 1.387 . S
C147 C148 1.384 . S
C147 H156 0.930 . S
C148 C145 1.380 . S
C148 C147 1.384 . S
C148 H157 0.931 . S
C149 C145 1.374 . S
C149 C150 1.390 . S
C149 H158 0.930 . S
C150 C146 1.391 . S
C150 C149 1.390 . S
C150 H159 0.930 . S
C151 Eu121 2.825 . S
C151 O136 1.238 . S
C151 O137 1.247 1_655 S
C151 C145 1.507 1_655 S
H152 C125 0.930 . S
H153 C126 0.931 . S
H154 C127 0.930 . S
H155 C128 0.930 . S
H156 C147 0.930 . S
H157 C148 0.931 . S
H158 C149 0.930 . S
H159 C150 0.930 . S
C55 C2 2.033 1_556 S
C82 C135 2.033 . S
C15 C42 2.033 1_446 S
C122 C95 2.033 1_645 S
C129 C22 2.033 . S
C49 C102 2.033 . S
C43 C106 2.036 . S
C123 C26 2.036 . S
C62 C89 2.033 . S
C142 C9 2.033 . S
C146 C3 2.036 . S
C83 C66 2.036 . S
