# Generated by pormake.
# Topology cdl, (4)-cn, num edge types: 1
# Building blocks:
#     Node 0, Type 0, BuildingBlock: NAWXER_clean_sbu_0, # of connection points: 4
#     Node 1, Type 0, BuildingBlock: NAWXER_clean_sbu_0, # of connection points: 4
#     Node 2, Type 0, BuildingBlock: NAWXER_clean_sbu_0, # of connection points: 4
#     Node 3, Type 0, BuildingBlock: NAWXER_clean_sbu_0, # of connection points: 4
#     Edge 4, Type (0, 0), BuildingBlock: OJICUG_clean_linker_0, # of connection points: 2
#     Edge 5, Type (0, 0), BuildingBlock: OJICUG_clean_linker_0, # of connection points: 2
#     Edge 6, Type (0, 0), BuildingBlock: OJICUG_clean_linker_0, # of connection points: 2
#     Edge 7, Type (0, 0), BuildingBlock: OJICUG_clean_linker_0, # of connection points: 2
#     Edge 8, Type (0, 0), BuildingBlock: OJICUG_clean_linker_0, # of connection points: 2
#     Edge 9, Type (0, 0), BuildingBlock: OJICUG_clean_linker_0, # of connection points: 2
#     Edge 10, Type (0, 0), BuildingBlock: OJICUG_clean_linker_0, # of connection points: 2
#     Edge 11, Type (0, 0), BuildingBlock: OJICUG_clean_linker_0, # of connection points: 2
# Relax obj value: 0.000
# Max RMSD: 0.003
# Mean RMSD: 0.003
data_MOF--net-cdl--node1-NAWXER_clean_sbu_0--edge1-OJICUG_clean_linker_0
_symmetry_space_group_name_H-M    P1
_symmetry_Int_Tables_number       1
_symmetry_cell_setting            triclinic
loop_
_symmetry_equiv_pos_as_xyz
'x, y, z'
_cell_length_a     10.706276
_cell_length_b     10.705444
_cell_length_c     42.180067
_cell_angle_alpha  94.901174
_cell_angle_beta   94.826876
_cell_angle_gamma 88.576289
loop_
_atom_site_label
_atom_site_type_symbol
_atom_site_fract_x
_atom_site_fract_y
_atom_site_fract_z
_atom_type_partial_charge
C0 C 0.85836 0.33078 0.13667 0.0
C1 C 0.85768 0.87183 0.13586 0.0
O2 O 0.96693 0.27733 0.13773 0.0
Zn3 Zn 0.05198 0.09568 0.1379 0.0
O4 O 0.76085 0.26418 0.1355 0.0
Zn5 Zn 0.85032 0.10218 0.13623 0.0
O6 O 0.94662 0.11796 0.18333 0.0
O7 O 0.1506 0.10137 0.17836 0.0
O8 O 0.7607 0.94309 0.13531 0.0
O9 O 0.96607 0.92019 0.13666 0.0
O10 O 0.13587 0.08277 0.09895 0.0
O11 O 0.92945 0.08824 0.09071 0.0
C12 C 0.05982 0.11515 0.19598 0.0
C13 C 0.03787 0.08211 0.0797 0.0
C14 C 0.43372 0.81982 0.63388 0.0
C15 C 0.9742 0.81908 0.63141 0.0
O16 O 0.36612 0.72267 0.63055 0.0
Zn17 Zn 0.20424 0.81257 0.63234 0.0
O18 O 0.38123 0.92845 0.63712 0.0
Zn19 Zn 0.2005 1.01276 0.63853 0.0
O20 O 0.20385 0.09993 0.68004 0.0
O21 O 0.21148 0.8939 0.68145 0.0
O22 O 0.02341 0.92759 0.63486 0.0
O23 O 0.04479 0.72196 0.62858 0.0
O24 O 0.19254 0.90775 0.58868 0.0
O25 O 0.18971 0.1112 0.60265 0.0
C26 C 0.20918 1.00433 0.69599 0.0
C27 C 0.18801 0.02141 0.58092 0.0
C28 C 0.90514 0.28091 0.8761 0.0
C29 C 0.90516 0.8215 0.87408 0.0
O30 O 0.01301 0.22904 0.88177 0.0
Zn31 Zn 0.09765 0.04861 0.88603 0.0
O32 O 0.80829 0.213 0.87112 0.0
Zn33 Zn 0.89731 0.05193 0.87493 0.0
O34 O 0.95964 0.06203 0.92488 0.0
O35 O 0.16659 0.05784 0.93 0.0
O36 O 0.80886 0.89124 0.86883 0.0
O37 O 1.01255 0.87167 0.88044 0.0
O38 O 0.20933 0.03388 0.85218 0.0
O39 O 1.0089 0.04465 0.83462 0.0
C40 C 0.06288 0.06314 0.94273 0.0
C41 C 0.12507 0.03756 0.82916 0.0
C42 C 0.3785 0.33358 0.39822 0.0
C43 C 0.91957 0.33316 0.39752 0.0
O44 O 0.32918 0.2252 0.39425 0.0
Zn45 Zn 0.1529 0.13991 0.39056 0.0
O46 O 0.30808 0.43051 0.40164 0.0
Zn47 Zn 0.14825 0.34063 0.39819 0.0
O48 O 0.16175 0.2407 0.44086 0.0
O49 O 0.16523 0.03788 0.42603 0.0
O50 O 0.9872 0.43036 0.40157 0.0
O51 O 0.9719 0.22472 0.39327 0.0
O52 O 0.14618 0.0581 0.34813 0.0
O53 O 0.13094 0.26476 0.34883 0.0
C54 C 0.16696 0.12644 0.44812 0.0
C55 C 0.13293 0.15642 0.33324 0.0
C56 C 0.73753 0.53789 0.13498 0.0
C57 C 0.85161 0.46932 0.13659 0.0
H58 H 0.64867 0.72053 0.13345 0.0
C59 C 0.96431 0.5346 0.13796 0.0
H60 H 0.64906 0.4902 0.13388 0.0
C61 C 0.96406 0.66395 0.13765 0.0
C62 C 0.8511 0.7336 0.136 0.0
H63 H 0.05429 0.48592 0.13924 0.0
H64 H 0.05392 0.70915 0.13875 0.0
C65 C 0.73728 0.66945 0.1347 0.0
C66 C 0.63959 0.69887 0.62889 0.0
C67 C 0.57216 0.81281 0.63347 0.0
H68 H 0.82115 0.61017 0.62455 0.0
C69 C 0.63839 0.92537 0.63722 0.0
H70 H 0.59113 0.61053 0.62587 0.0
C71 C 0.76749 0.92519 0.63632 0.0
C72 C 0.83601 0.81242 0.63172 0.0
H73 H 0.59062 0.01524 0.6408 0.0
H74 H 0.81339 0.01498 0.63935 0.0
C75 C 0.77094 0.69867 0.62806 0.0
C76 C 0.78493 0.4866 0.87022 0.0
C77 C 0.89869 0.41908 0.87495 0.0
H78 H 0.69647 0.66837 0.86616 0.0
C79 C 1.01137 0.48508 0.8786 0.0
H80 H 0.69651 0.4383 0.86724 0.0
C81 C 1.01135 0.61429 0.87787 0.0
C82 C 0.89863 0.68304 0.87353 0.0
H83 H 0.10113 0.43711 0.8821 0.0
H84 H 0.10115 0.66015 0.8809 0.0
C85 C 0.7849 0.61799 0.86954 0.0
C86 C 0.58201 0.45391 0.40284 0.0
C87 C 0.51678 0.3403 0.39829 0.0
H88 H 0.76212 0.54201 0.40621 0.0
C89 C 0.58537 0.22769 0.39347 0.0
H90 H 0.53176 0.54227 0.40659 0.0
C91 C 0.71472 0.22754 0.3932 0.0
C92 C 0.78108 0.33998 0.39778 0.0
H93 H 0.53934 0.13801 0.38981 0.0
H94 H 0.76253 0.13781 0.38939 0.0
C95 C 0.71358 0.45375 0.4026 0.0
C96 C 0.1695 0.06796 0.99842 0.0
C97 C 0.05902 0.06862 0.97786 0.0
H98 H 0.24996 0.07142 0.04684 0.0
C99 C 0.94277 0.07322 0.99114 0.0
H100 H 0.26056 0.0643 0.98895 0.0
C101 C 0.93672 0.07702 0.02409 0.0
C102 C 0.04675 0.07641 0.04473 0.0
H103 H 0.85568 0.07374 0.97609 0.0
H104 H 0.8452 0.08064 0.03333 0.0
C105 C 0.16341 0.07184 0.03157 0.0
C106 C 0.17363 0.19724 0.50638 0.0
C107 C 0.17311 0.09887 0.48205 0.0
H108 H 0.17847 0.25015 0.5565 0.0
C109 C 0.1772 0.97452 0.49051 0.0
H110 H 0.17039 0.29415 0.50073 0.0
C111 C 0.1817 0.94922 0.52259 0.0
C112 C 0.18222 0.04772 0.5469 0.0
H113 H 0.17675 0.89652 0.47237 0.0
H114 H 0.18487 0.8524 0.5283 0.0
C115 C 0.17813 0.17198 0.5384 0.0
C116 C 0.03104 0.22649 0.28238 0.0
C117 C 0.11698 0.14681 0.29811 0.0
H118 H 0.94381 0.27642 0.23748 0.0
C119 C 0.18664 0.0583 0.28003 0.0
H120 H 0.97603 0.29516 0.29587 0.0
C121 C 0.17129 0.05053 0.24663 0.0
C122 C 0.08286 0.1281 0.23098 0.0
H123 H 0.25386 0.99629 0.29171 0.0
H124 H 0.2259 0.98177 0.23307 0.0
C125 C 1.0125 0.21565 0.2491 0.0
C126 C 0.25828 0.93341 0.75085 0.0
C127 C 0.19983 0.01965 0.73078 0.0
H128 H 0.28352 0.8743 0.79847 0.0
C129 C 0.12382 0.11621 0.74386 0.0
H130 H 0.3172 0.85809 0.74126 0.0
C131 C 0.10167 0.12289 0.7761 0.0
C132 C 0.15854 0.03583 0.79605 0.0
H133 H 0.07684 0.18322 0.72886 0.0
H134 H 0.03884 0.19532 0.78541 0.0
C135 C 0.23949 0.94283 0.78345 0.0
loop_
_geom_bond_atom_site_label_1
_geom_bond_atom_site_label_2
_geom_bond_distance
_geom_bond_site_symmetry_2
_ccdc_geom_bond_type
C0 O2 1.247 . S
C0 O4 1.258 1_455 S
C1 O8 1.247 1_455 S
C1 O9 1.258 . S
O2 C0 1.247 . S
O2 Zn3 2.028 . S
Zn3 O2 2.028 . S
Zn3 O7 2.035 . S
Zn3 O9 2.035 1_545 S
Zn3 O10 2.028 . S
O4 C0 1.258 1_655 S
O4 Zn5 2.035 . S
Zn5 O4 2.035 . S
Zn5 O6 2.028 . S
Zn5 O8 2.028 1_545 S
Zn5 O11 2.035 . S
O6 Zn5 2.028 . S
O6 C12 1.247 1_655 S
O7 Zn3 2.035 . S
O7 C12 1.258 . S
O8 C1 1.247 1_655 S
O8 Zn5 2.028 1_565 S
O9 C1 1.258 . S
O9 Zn3 2.035 1_565 S
O10 Zn3 2.028 . S
O10 C13 1.247 . S
O11 Zn5 2.035 . S
O11 C13 1.258 1_655 S
C12 O6 1.247 1_455 S
C12 O7 1.258 . S
C13 O10 1.247 . S
C13 O11 1.258 1_455 S
C14 O16 1.247 1_545 S
C14 O18 1.258 . S
C15 O22 1.247 . S
C15 O23 1.258 1_545 S
O16 C14 1.247 1_565 S
O16 Zn17 2.028 . S
Zn17 O16 2.028 . S
Zn17 O21 2.035 . S
Zn17 O23 2.035 1_455 S
Zn17 O24 2.028 . S
O18 C14 1.258 . S
O18 Zn19 2.035 . S
Zn19 O18 2.035 . S
Zn19 O20 2.028 . S
Zn19 O22 2.028 1_455 S
Zn19 O25 2.035 . S
O20 Zn19 2.028 . S
O20 C26 1.247 . S
O21 Zn17 2.035 . S
O21 C26 1.258 1_565 S
O22 C15 1.247 . S
O22 Zn19 2.028 1_655 S
O23 C15 1.258 1_565 S
O23 Zn17 2.035 1_655 S
O24 Zn17 2.028 . S
O24 C27 1.247 1_565 S
O25 Zn19 2.035 . S
O25 C27 1.258 . S
C26 O20 1.247 . S
C26 O21 1.258 1_545 S
C27 O24 1.247 1_545 S
C27 O25 1.258 . S
C28 O30 1.247 . S
C28 O32 1.258 1_455 S
C29 O36 1.247 1_455 S
C29 O37 1.258 . S
O30 C28 1.247 . S
O30 Zn31 2.028 . S
Zn31 O30 2.028 . S
Zn31 O35 2.035 . S
Zn31 O37 2.035 1_545 S
Zn31 O38 2.028 . S
O32 C28 1.258 1_655 S
O32 Zn33 2.035 . S
Zn33 O32 2.035 . S
Zn33 O34 2.028 . S
Zn33 O36 2.028 1_545 S
Zn33 O39 2.035 . S
O34 Zn33 2.028 . S
O34 C40 1.247 1_655 S
O35 Zn31 2.035 . S
O35 C40 1.258 . S
O36 C29 1.247 1_655 S
O36 Zn33 2.028 1_565 S
O37 C29 1.258 . S
O37 Zn31 2.035 1_565 S
O38 Zn31 2.028 . S
O38 C41 1.247 . S
O39 Zn33 2.035 . S
O39 C41 1.258 1_655 S
C40 O34 1.247 1_455 S
C40 O35 1.258 . S
C41 O38 1.247 . S
C41 O39 1.258 1_455 S
C42 O44 1.247 1_545 S
C42 O46 1.258 . S
C43 O50 1.247 . S
C43 O51 1.258 1_545 S
O44 C42 1.247 1_565 S
O44 Zn45 2.028 . S
Zn45 O44 2.028 . S
Zn45 O49 2.035 . S
Zn45 O51 2.035 1_455 S
Zn45 O52 2.028 . S
O46 C42 1.258 . S
O46 Zn47 2.035 . S
Zn47 O46 2.035 . S
Zn47 O48 2.028 . S
Zn47 O50 2.028 1_455 S
Zn47 O53 2.035 . S
O48 Zn47 2.028 . S
O48 C54 1.247 . S
O49 Zn45 2.035 . S
O49 C54 1.258 1_565 S
O50 C43 1.247 . S
O50 Zn47 2.028 1_655 S
O51 C43 1.258 1_565 S
O51 Zn45 2.035 1_655 S
O52 Zn45 2.028 . S
O52 C55 1.247 1_565 S
O53 Zn47 2.035 . S
O53 C55 1.258 . S
C54 O48 1.247 . S
C54 O49 1.258 1_545 S
C55 O52 1.247 1_545 S
C55 O53 1.258 . S
C56 C57 1.387 1_655 S
C56 H60 0.950 . S
C56 C65 1.390 . S
C57 C56 1.387 1_455 S
C57 C59 1.387 . S
H58 C65 0.950 . S
C59 C57 1.387 . S
C59 C61 1.390 . S
C59 H63 0.950 . S
H60 C56 0.950 . S
C61 C59 1.390 . S
C61 C62 1.387 . S
C61 H64 0.950 . S
C62 C61 1.387 . S
C62 C65 1.387 1_455 S
H63 C59 0.950 . S
H64 C61 0.950 . S
C65 C56 1.390 . S
C65 H58 0.950 . S
C65 C62 1.387 1_655 S
C66 C67 1.387 1_565 S
C66 H70 0.950 . S
C66 C75 1.390 . S
C67 C66 1.387 1_545 S
C67 C69 1.387 . S
H68 C75 0.950 . S
C69 C67 1.387 . S
C69 C71 1.390 . S
C69 H73 0.950 . S
H70 C66 0.950 . S
C71 C69 1.390 . S
C71 C72 1.387 . S
C71 H74 0.950 . S
C72 C71 1.387 . S
C72 C75 1.387 1_545 S
H73 C69 0.950 . S
H74 C71 0.950 . S
C75 C66 1.390 . S
C75 H68 0.950 . S
C75 C72 1.387 1_565 S
C76 C77 1.387 1_655 S
C76 H80 0.950 . S
C76 C85 1.390 . S
C77 C76 1.387 1_455 S
C77 C79 1.387 . S
H78 C85 0.950 . S
C79 C77 1.387 . S
C79 C81 1.390 . S
C79 H83 0.950 . S
H80 C76 0.950 . S
C81 C79 1.390 . S
C81 C82 1.387 . S
C81 H84 0.950 . S
C82 C81 1.387 . S
C82 C85 1.387 1_455 S
H83 C79 0.950 . S
H84 C81 0.950 . S
C85 C76 1.390 . S
C85 H78 0.950 . S
C85 C82 1.387 1_655 S
C86 C87 1.387 . S
C86 H90 0.950 . S
C86 C95 1.390 . S
C87 C86 1.387 . S
C87 C89 1.387 1_545 S
H88 C95 0.950 . S
C89 C87 1.387 1_565 S
C89 C91 1.390 . S
C89 H93 0.950 . S
H90 C86 0.950 . S
C91 C89 1.390 . S
C91 C92 1.387 1_565 S
C91 H94 0.950 . S
C92 C91 1.387 1_545 S
C92 C95 1.387 . S
H93 C89 0.950 . S
H94 C91 0.950 . S
C95 C86 1.390 . S
C95 H88 0.950 . S
C95 C92 1.387 . S
C96 C97 1.387 1_565 S
C96 H100 0.950 . S
C96 C105 1.390 1_556 S
C97 C96 1.387 1_545 S
C97 C99 1.387 . S
H98 C105 0.950 . S
C99 C97 1.387 . S
C99 C101 1.390 1_556 S
C99 H103 0.950 . S
H100 C96 0.950 . S
C101 C99 1.390 1_554 S
C101 C102 1.387 . S
C101 H104 0.950 . S
C102 C101 1.387 . S
C102 C105 1.387 1_545 S
H103 C99 0.950 . S
H104 C101 0.950 . S
C105 C96 1.390 1_554 S
C105 H98 0.950 . S
C105 C102 1.387 1_565 S
C106 C107 1.387 . S
C106 H110 0.950 . S
C106 C115 1.390 . S
C107 C106 1.387 . S
C107 C109 1.387 1_545 S
H108 C115 0.950 . S
C109 C107 1.387 1_565 S
C109 C111 1.390 . S
C109 H113 0.950 . S
H110 C106 0.950 . S
C111 C109 1.390 . S
C111 C112 1.387 1_565 S
C111 H114 0.950 . S
C112 C111 1.387 1_545 S
C112 C115 1.387 . S
H113 C109 0.950 . S
H114 C111 0.950 . S
C115 C106 1.390 . S
C115 H108 0.950 . S
C115 C112 1.387 . S
C116 C117 1.387 . S
C116 H120 0.950 . S
C116 C125 1.390 . S
C117 C116 1.387 . S
C117 C119 1.387 1_545 S
H118 C125 0.950 . S
C119 C117 1.387 1_565 S
C119 C121 1.390 . S
C119 H123 0.950 . S
H120 C116 0.950 . S
C121 C119 1.390 . S
C121 C122 1.387 1_565 S
C121 H124 0.950 . S
C122 C121 1.387 1_545 S
C122 C125 1.387 . S
H123 C119 0.950 . S
H124 C121 0.950 . S
C125 C116 1.390 . S
C125 H118 0.950 . S
C125 C122 1.387 . S
C126 C127 1.387 1_565 S
C126 H130 0.950 . S
C126 C135 1.390 . S
C127 C126 1.387 1_545 S
C127 C129 1.387 1_455 S
H128 C135 0.950 . S
C129 C127 1.387 1_655 S
C129 C131 1.390 . S
C129 H133 0.950 . S
H130 C126 0.950 . S
C131 C129 1.390 . S
C131 C132 1.387 1_655 S
C131 H134 0.950 . S
C132 C131 1.387 1_455 S
C132 C135 1.387 1_545 S
H133 C129 0.950 . S
H134 C131 0.950 . S
C135 C126 1.390 . S
C135 H128 0.950 . S
C135 C132 1.387 1_565 S
C57 C0 1.499 . S
C62 C1 1.499 . S
C67 C14 1.498 . S
C72 C15 1.498 . S
C77 C28 1.499 . S
C82 C29 1.499 . S
C87 C42 1.499 . S
C92 C43 1.499 . S
C97 C40 1.499 . S
C102 C13 1.499 . S
C107 C54 1.498 . S
C112 C27 1.498 . S
C117 C55 1.499 . S
C122 C12 1.499 . S
C127 C26 1.499 . S
C132 C41 1.499 . S
