# Generated by pormake.
# Topology hex, (8)-cn, num edge types: 1
# Building blocks:
#     Node 0, Type 0, BuildingBlock: TAGTUT_clean_sbu_1, # of connection points: 8
#     Edge 1, Type (0, 0), BuildingBlock: KIFKEQ_clean_linker_1, # of connection points: 2
#     Edge 2, Type (0, 0), BuildingBlock: KIFKEQ_clean_linker_1, # of connection points: 2
#     Edge 3, Type (0, 0), BuildingBlock: KIFKEQ_clean_linker_1, # of connection points: 2
#     Edge 4, Type (0, 0), BuildingBlock: KIFKEQ_clean_linker_1, # of connection points: 2
# Relax obj value: 0.054
# Max RMSD: 0.157
# Mean RMSD: 0.157
data_MOF--net-hex--node1-TAGTUT_clean_sbu_1--edge1-KIFKEQ_clean_linker_1
_symmetry_space_group_name_H-M    P1
_symmetry_Int_Tables_number       1
_symmetry_cell_setting            triclinic
loop_
_symmetry_equiv_pos_as_xyz
'x, y, z'
_cell_length_a     18.567876
_cell_length_b     20.302871
_cell_length_c     16.142989
_cell_angle_alpha  88.319711
_cell_angle_beta   100.63269
_cell_angle_gamma 131.64393
loop_
_atom_site_label
_atom_site_type_symbol
_atom_site_fract_x
_atom_site_fract_y
_atom_site_fract_z
_atom_type_partial_charge
C0 C 0.92694 0.22656 -0.00719 0.0
C1 C 0.72116 0.96062 0.03068 0.0
C2 C 0.04105 0.00827 0.1974 0.0
Mg3 Mg 0.84935 0.05097 0.90272 0.0
O4 O 0.95646 0.08265 0.98223 0.0
Mg5 Mg 0.97162 0.11154 0.10498 0.0
Mg6 Mg 0.98147 0.00196 0.99133 0.0
O7 O 0.00874 0.92248 0.0 0.0
Mg8 Mg 0.12148 0.96064 0.07591 0.0
Mg9 Mg -0.00549 0.89566 0.87657 0.0
C10 C 0.92666 0.99882 0.78432 0.0
C11 C 0.78033 0.79691 0.92056 0.0
O12 O 0.96069 0.21347 0.06169 0.0
O13 O 0.88228 0.17321 0.92365 0.0
O14 O 0.79911 0.01236 0.09059 0.0
O15 O 0.72661 0.95167 0.95483 0.0
O16 O 0.87344 0.01705 0.79057 0.0
O17 O 0.97582 0.99678 0.84995 0.0
C18 C 0.18456 0.20662 0.06115 0.0
O19 O 0.14352 0.13369 0.01672 0.0
O20 O 0.13714 0.21214 0.10463 0.0
O21 O 0.01012 0.79608 0.91848 0.0
O22 O 0.09167 0.84002 0.05585 0.0
O23 O 0.1643 0.99331 0.88759 0.0
C24 C 0.04731 0.78586 0.98732 0.0
O25 O 0.24213 0.06058 0.02039 0.0
O26 O 0.09602 0.99282 0.18777 0.0
C27 C 0.24355 0.0423 0.94622 0.0
O28 O -0.01145 0.00869 0.13344 0.0
O29 O 0.81777 0.86856 0.9653 0.0
O30 O 0.83102 0.79493 0.87832 0.0
H31 H 0.82832 0.26011 0.88126 0.0
H32 H 0.06594 0.37779 0.10359 0.0
H33 H 0.86017 0.39748 0.88032 0.0
H34 H 0.10006 0.51578 0.10079 0.0
H35 H 0.05836 0.71066 0.1254 0.0
H36 H 0.02831 0.57449 0.12654 0.0
H37 H -0.01741 0.54843 0.85261 0.0
H38 H 0.00923 0.68315 0.85129 0.0
C39 C 0.88761 0.3155 0.92955 0.0
C40 C 0.94438 0.30837 -0.00733 0.0
C41 C 0.90629 0.39422 0.92871 0.0
C42 C -0.01723 0.46732 0.99038 0.0
C43 C 0.03961 0.46007 0.0533 0.0
C44 C 0.02019 0.38112 0.05475 0.0
C45 C 0.04248 0.6761 0.06551 0.0
C46 C 0.03551 0.70695 0.98823 0.0
C47 C 0.0256 0.59833 0.06617 0.0
C48 C 0.00274 0.55074 0.98962 0.0
C49 C -0.00186 0.58285 0.91244 0.0
C50 C 0.0139 0.66012 0.91172 0.0
H51 H 0.54126 0.84907 0.92105 0.0
H52 H 0.69415 0.02766 0.15509 0.0
H53 H 0.42795 0.87185 0.89391 0.0
H54 H 0.57408 0.04427 0.13234 0.0
H55 H 0.44047 0.15795 0.02442 0.0
H56 H 0.54442 0.12253 0.05416 0.0
H57 H 0.30601 0.86386 0.90729 0.0
H58 H 0.20849 0.90323 0.8712 0.0
C59 C 0.54783 0.89002 0.96906 0.0
C60 C 0.62923 0.93894 0.03872 0.0
C61 C 0.48229 0.90353 0.95334 0.0
C62 C 0.49348 0.96338 0.00894 0.0
C63 C 0.56583 0.00148 0.08543 0.0
C64 C 0.63332 0.98979 0.09998 0.0
C65 C 0.41263 0.09528 -0.00436 0.0
C66 C 0.31706 0.03452 0.94404 0.0
C67 C 0.47094 0.0735 0.01465 0.0
C68 C 0.43372 0.98908 0.98498 0.0
C69 C 0.33928 0.93003 0.93066 0.0
C70 C 0.28284 0.95307 0.90924 0.0
H71 H 0.2718 0.23467 0.92963 0.0
H72 H 0.31126 0.36956 0.1587 0.0
H73 H 0.40632 0.37564 0.88932 0.0
H74 H 0.45145 0.51143 0.12147 0.0
H75 H 0.70525 0.63185 0.86861 0.0
H76 H 0.57027 0.49197 0.90814 0.0
H77 H 0.49894 0.62117 0.03441 0.0
H78 H 0.64072 0.76424 -0.00054 0.0
C79 C 0.31148 0.29433 0.97303 0.0
C80 C 0.28062 0.2904 0.04768 0.0
C81 C 0.38927 0.37596 0.94979 0.0
C82 C 0.44057 0.45637 0.00152 0.0
C83 C 0.41267 0.45182 0.0785 0.0
C84 C 0.33321 0.37007 0.10083 0.0
C85 C 0.66028 0.63093 0.90376 0.0
C86 C 0.68451 0.71011 0.93068 0.0
C87 C 0.58177 0.54968 0.92648 0.0
C88 C 0.52265 0.5439 0.97518 0.0
C89 C 0.5438 0.62258 -0.00127 0.0
C90 C 0.62428 0.70476 0.97743 0.0
H91 H 0.79684 0.94266 0.63307 0.0
H92 H 0.08661 0.03895 0.74399 0.0
H93 H 0.82708 0.94815 0.49139 0.0
H94 H 0.11954 0.04947 0.60317 0.0
H95 H 0.11352 0.97743 0.33948 0.0
H96 H 0.08192 0.96891 0.4792 0.0
H97 H 0.91728 0.04877 0.39631 0.0
H98 H 0.94417 0.05201 0.2532 0.0
C99 C 0.86681 0.96449 0.62692 0.0
C100 C 0.93917 0.98979 0.69926 0.0
C101 C 0.88478 0.96893 0.54585 0.0
C102 C 0.97623 0.00033 0.53555 0.0
C103 C 0.04766 0.0237 0.60828 0.0
C104 C 0.02886 0.01753 0.68921 0.0
C105 C 0.07123 0.9941 0.3507 0.0
C106 C 0.03131 0.01545 0.28476 0.0
C107 C 0.05347 0.98956 0.43153 0.0
C108 C -0.00309 0.00798 0.44947 0.0
C109 C 0.95958 0.03238 0.38434 0.0
C110 C 0.97597 0.0354 0.30252 0.0
loop_
_geom_bond_atom_site_label_1
_geom_bond_atom_site_label_2
_geom_bond_distance
_geom_bond_site_symmetry_2
_ccdc_geom_bond_type
C0 O12 1.241 1_556 S
C0 O13 1.280 . S
C1 O14 1.277 . S
C1 O15 1.245 1_544 S
C2 O26 1.248 1_545 S
C2 O28 1.291 . S
Mg3 O4 1.926 . S
Mg3 O13 1.984 . S
Mg3 O15 1.988 1_545 S
Mg3 O16 2.064 . S
O4 Mg3 1.926 . S
O4 Mg5 1.986 1_556 S
O4 Mg6 1.917 1_656 S
Mg5 O4 1.986 1_554 S
Mg5 O12 2.042 . S
Mg5 O14 2.041 . S
Mg5 O20 2.038 1_655 S
Mg5 O28 2.235 1_655 S
Mg6 O4 1.917 1_454 S
Mg6 O7 1.917 1_545 S
Mg6 O17 2.107 1_444 S
Mg6 O19 2.079 . S
Mg6 O28 2.108 . S
Mg6 O29 2.079 1_444 S
O7 Mg6 1.917 1_565 S
O7 Mg8 1.926 . S
O7 Mg9 1.986 1_554 S
Mg8 O7 1.926 . S
Mg8 O22 1.984 . S
Mg8 O25 1.988 1_565 S
Mg8 O26 2.061 . S
Mg9 O7 1.986 1_556 S
Mg9 O17 2.237 1_455 S
Mg9 O21 2.042 . S
Mg9 O23 2.041 . S
Mg9 O30 2.038 1_455 S
C10 O16 1.245 1_565 S
C10 O17 1.290 . S
C11 O29 1.245 . S
C11 O30 1.274 . S
O12 C0 1.241 1_554 S
O12 Mg5 2.042 . S
O13 C0 1.280 . S
O13 Mg3 1.984 . S
O14 C1 1.277 . S
O14 Mg5 2.041 . S
O15 C1 1.245 1_566 S
O15 Mg3 1.988 1_565 S
O16 Mg3 2.064 . S
O16 C10 1.245 1_545 S
O17 Mg6 2.107 1_666 S
O17 Mg9 2.237 1_655 S
O17 C10 1.290 . S
C18 O19 1.245 . S
C18 O20 1.274 . S
O19 Mg6 2.079 . S
O19 C18 1.245 . S
O20 Mg5 2.038 1_455 S
O20 C18 1.274 . S
O21 Mg9 2.042 . S
O21 C24 1.241 1_556 S
O22 Mg8 1.984 . S
O22 C24 1.280 . S
O23 Mg9 2.041 . S
O23 C27 1.277 . S
C24 O21 1.241 1_554 S
C24 O22 1.280 . S
O25 Mg8 1.988 1_545 S
O25 C27 1.245 1_544 S
O26 C2 1.248 1_565 S
O26 Mg8 2.061 . S
C27 O23 1.277 . S
C27 O25 1.245 1_566 S
O28 C2 1.291 . S
O28 Mg5 2.235 1_455 S
O28 Mg6 2.108 . S
O29 Mg6 2.079 1_666 S
O29 C11 1.245 . S
O30 Mg9 2.038 1_655 S
O30 C11 1.274 . S
H31 C39 0.950 . S
H32 C44 0.950 1_554 S
H33 C41 0.950 . S
H34 C43 0.950 . S
H35 C45 0.950 . S
H36 C47 0.950 . S
H37 C49 0.950 . S
H38 C50 0.950 1_556 S
C39 H31 0.950 . S
C39 C40 1.386 1_455 S
C39 C41 1.391 . S
C40 C39 1.386 1_655 S
C40 C44 1.393 . S
C41 H33 0.950 . S
C41 C39 1.391 . S
C41 C42 1.400 1_455 S
C42 C41 1.400 1_655 S
C42 C43 1.398 1_556 S
C42 C48 1.491 1_656 S
C43 H34 0.950 . S
C43 C42 1.398 1_554 S
C43 C44 1.391 1_554 S
C44 H32 0.950 1_556 S
C44 C40 1.393 . S
C44 C43 1.391 1_556 S
C45 H35 0.950 . S
C45 C46 1.386 1_655 S
C45 C47 1.391 . S
C46 C45 1.386 1_455 S
C46 C50 1.393 . S
C47 H36 0.950 . S
C47 C45 1.391 . S
C47 C48 1.400 1_655 S
C48 C42 1.491 1_454 S
C48 C47 1.400 1_455 S
C48 C49 1.398 1_554 S
C49 H37 0.950 . S
C49 C48 1.398 1_556 S
C49 C50 1.391 1_556 S
C50 H38 0.950 1_554 S
C50 C46 1.393 . S
C50 C49 1.391 1_554 S
H51 C59 0.950 . S
H52 C64 0.950 . S
H53 C61 0.950 . S
H54 C63 0.950 . S
H55 C65 0.950 . S
H56 C67 0.950 . S
H57 C69 0.950 . S
H58 C70 0.950 . S
C59 H51 0.950 . S
C59 C60 1.386 1_556 S
C59 C61 1.391 . S
C60 C59 1.386 1_554 S
C60 C64 1.393 1_565 S
C61 H53 0.950 . S
C61 C59 1.391 . S
C61 C62 1.400 1_556 S
C62 C61 1.400 1_554 S
C62 C63 1.398 1_565 S
C62 C68 1.491 1_564 S
C63 H54 0.950 . S
C63 C62 1.398 1_545 S
C63 C64 1.391 . S
C64 H52 0.950 . S
C64 C60 1.393 1_545 S
C64 C63 1.391 . S
C65 H55 0.950 . S
C65 C66 1.386 1_554 S
C65 C67 1.391 . S
C66 C65 1.386 1_556 S
C66 C70 1.393 1_545 S
C67 H56 0.950 . S
C67 C65 1.391 . S
C67 C68 1.400 1_554 S
C68 C62 1.491 1_546 S
C68 C67 1.400 1_556 S
C68 C69 1.398 1_545 S
C69 H57 0.950 . S
C69 C68 1.398 1_565 S
C69 C70 1.391 . S
C70 H58 0.950 . S
C70 C66 1.393 1_565 S
C70 C69 1.391 . S
H71 C79 0.950 . S
H72 C84 0.950 . S
H73 C81 0.950 . S
H74 C83 0.950 . S
H75 C85 0.950 . S
H76 C87 0.950 . S
H77 C89 0.950 . S
H78 C90 0.950 . S
C79 H71 0.950 . S
C79 C80 1.386 1_556 S
C79 C81 1.391 . S
C80 C79 1.386 1_554 S
C80 C84 1.393 . S
C81 H73 0.950 . S
C81 C79 1.391 . S
C81 C82 1.400 1_556 S
C82 C81 1.400 1_554 S
C82 C83 1.398 . S
C82 C88 1.491 1_554 S
C83 H74 0.950 . S
C83 C82 1.398 . S
C83 C84 1.391 . S
C84 H72 0.950 . S
C84 C80 1.393 . S
C84 C83 1.391 . S
C85 H75 0.950 . S
C85 C86 1.386 1_554 S
C85 C87 1.391 . S
C86 C85 1.386 1_556 S
C86 C90 1.393 . S
C87 H76 0.950 . S
C87 C85 1.391 . S
C87 C88 1.400 1_554 S
C88 C82 1.491 1_556 S
C88 C87 1.400 1_556 S
C88 C89 1.398 . S
C89 H77 0.950 . S
C89 C88 1.398 . S
C89 C90 1.391 . S
C90 H78 0.950 . S
C90 C86 1.393 . S
C90 C89 1.391 . S
H91 C99 0.950 . S
H92 C104 0.950 . S
H93 C101 0.950 . S
H94 C103 0.950 . S
H95 C105 0.950 . S
H96 C107 0.950 . S
H97 C109 0.950 . S
H98 C110 0.950 . S
C99 H91 0.950 . S
C99 C100 1.385 1_645 S
C99 C101 1.391 . S
C100 C99 1.385 1_465 S
C100 C104 1.393 . S
C101 H93 0.950 . S
C101 C99 1.391 . S
C101 C102 1.407 1_655 S
C102 C101 1.407 1_455 S
C102 C103 1.391 1_545 S
C102 C108 1.493 1_445 S
C103 H94 0.950 . S
C103 C102 1.391 1_565 S
C103 C104 1.391 . S
C104 H92 0.950 . S
C104 C100 1.393 . S
C104 C103 1.391 . S
C105 H95 0.950 . S
C105 C106 1.385 1_565 S
C105 C107 1.391 . S
C106 C105 1.385 1_545 S
C106 C110 1.393 1_455 S
C107 H96 0.950 . S
C107 C105 1.391 . S
C107 C108 1.392 1_455 S
C108 C102 1.493 1_665 S
C108 C107 1.392 1_655 S
C108 C109 1.405 1_565 S
C109 H97 0.950 . S
C109 C108 1.405 1_545 S
C109 C110 1.391 . S
C110 H98 0.950 . S
C110 C106 1.393 1_655 S
C110 C109 1.391 . S
C40 C0 1.298 . S
C46 C24 1.298 . S
C60 C1 1.295 1_565 S
C66 C27 1.295 1_545 S
C80 C18 1.857 . S
C86 C11 1.857 . S
C100 C10 1.469 1_455 S
C106 C2 1.469 . S
