# Generated by pormake.
# Topology pcu, (6)-cn, num edge types: 1
# Building blocks:
#     Node 0, Type 0, BuildingBlock: INOVEN_clean_sbu_0, # of connection points: 6
#     Edge 1, Type (0, 0), BuildingBlock: KIFKEQ_clean_linker_1, # of connection points: 2
#     Edge 2, Type (0, 0), BuildingBlock: KIFKEQ_clean_linker_1, # of connection points: 2
#     Edge 3, Type (0, 0), BuildingBlock: KIFKEQ_clean_linker_1, # of connection points: 2
# Relax obj value: 0.000
# Max RMSD: 0.000
# Mean RMSD: 0.000
data_MOF--net-pcu--node1-INOVEN_clean_sbu_0--edge1-KIFKEQ_clean_linker_1
_symmetry_space_group_name_H-M    P1
_symmetry_Int_Tables_number       1
_symmetry_cell_setting            triclinic
loop_
_symmetry_equiv_pos_as_xyz
'x, y, z'
_cell_length_a     25.41093
_cell_length_b     15.760182
_cell_length_c     14.631489
_cell_angle_alpha  87.854456
_cell_angle_beta   97.404719
_cell_angle_gamma 123.76788
loop_
_atom_site_label
_atom_site_type_symbol
_atom_site_fract_x
_atom_site_fract_y
_atom_site_fract_z
_atom_type_partial_charge
Gd0 Gd 0.9627 0.91788 0.02563 0.0
Gd1 Gd 0.1038 0.04691 1.00947 0.0
C2 C 0.03698 0.16589 1.0114 0.0
C3 C 0.84995 0.84398 0.07073 0.0
C4 C 0.80118 0.86865 0.05936 0.0
C5 C 0.7804 0.88927 0.97275 0.0
C6 C 0.77411 0.86997 0.1366 0.0
C7 C 0.70515 0.90984 0.04091 0.0
C8 C 0.72677 0.89057 0.12762 0.0
C9 C 0.73274 0.90928 0.96362 0.0
C10 C 0.99158 0.93791 0.85134 0.0
C11 C 1.02981 0.79994 0.02446 0.0
C12 C 0.21611 0.121 0.96217 0.0
C13 C 0.26237 0.09186 0.96753 0.0
C14 C 0.25707 0.01519 0.02555 0.0
C15 C 0.31325 0.14275 0.91499 0.0
C16 C 0.3545 0.0428 0.98011 0.0
C17 C 0.35883 0.1185 0.92108 0.0
C18 C 0.30281 -0.00894 0.03198 0.0
C19 C 0.07549 0.02705 0.18439 0.0
O20 O 0.98757 0.07946 0.03668 0.0
O21 O 0.08611 0.1704 0.98457 0.0
O22 O 0.86001 0.81342 0.99684 0.0
O23 O 0.90265 0.90612 0.12514 0.0
O24 O 0.94475 0.85464 0.88088 0.0
O25 O 1.01871 0.00802 0.91343 0.0
O26 O 0.07729 0.88487 0.99383 0.0
O27 O 0.98278 0.7975 0.05666 0.0
O28 O 0.20673 0.14441 0.04057 0.0
O29 O 0.16315 0.06501 0.90616 0.0
O30 O 0.1234 0.10902 0.15509 0.0
O31 O 0.04767 0.95722 0.12196 0.0
H32 H 0.80074 0.8896 0.91197 0.0
H33 H 0.78927 0.85418 0.20404 0.0
H34 H 0.70619 0.88937 0.18842 0.0
H35 H 0.71785 0.92514 0.89606 0.0
H36 H 0.21784 0.97454 0.06629 0.0
H37 H 0.31813 0.20217 0.86986 0.0
H38 H 0.39827 0.1607 0.88096 0.0
H39 H 0.2975 0.93147 0.07716 0.0
H40 H 0.97272 0.86688 0.25658 0.0
H41 H 0.15094 0.15535 0.3322 0.0
H42 H 0.95181 0.847 0.4166 0.0
H43 H 0.13294 0.13288 0.49299 0.0
H44 H 0.05905 0.11651 0.76322 0.0
H45 H 0.07742 0.13775 0.60211 0.0
H46 H 0.97709 0.80986 0.56259 0.0
H47 H 0.95546 0.78953 0.72208 0.0
C48 C 1.00761 0.92572 0.3077 0.0
C49 C 0.06313 0.01301 0.28177 0.0
C50 C 0.99611 0.91396 0.39997 0.0
C51 C 0.04061 -0.01176 0.46903 0.0
C52 C 0.09664 0.07491 0.44242 0.0
C53 C 0.10738 0.08754 0.35 0.0
C54 C 0.04096 0.04921 0.71974 0.0
C55 C 1.00559 0.95141 0.75487 0.0
C56 C 0.05184 0.06116 0.62725 0.0
C57 C 1.02882 0.97558 0.56802 0.0
C58 C 0.99441 0.87775 0.60453 0.0
C59 C 0.98243 0.86588 0.69645 0.0
H60 H 0.40971 0.00658 0.13699 0.0
H61 H 0.41261 0.02682 0.84231 0.0
H62 H 0.49279 0.97211 0.15112 0.0
H63 H 0.4973 -0.00389 0.85676 0.0
H64 H 0.60294 0.8357 0.90535 0.0
H65 H 0.51757 0.86499 0.89073 0.0
H66 H 0.60525 0.05755 0.13968 0.0
H67 H 0.69031 0.02758 0.15454 0.0
C68 C 0.42783 0.0032 0.07511 0.0
C69 C 0.40436 0.01952 0.9885 0.0
C70 C 0.4761 -0.01531 0.08335 0.0
C71 C 0.50211 -0.01829 1.00515 0.0
C72 C 0.47812 -0.00305 0.91842 0.0
C73 C 0.42997 0.01569 0.91023 0.0
C74 C 0.60431 0.88503 0.95652 0.0
C75 C 0.65355 0.92923 0.03114 0.0
C76 C 0.55531 0.90186 0.94816 0.0
C77 C 0.5543 0.96356 1.01408 0.0
C78 C 0.60375 0.00812 0.08849 0.0
C79 C 0.65266 -0.00891 0.09696 0.0
H80 H 0.95817 0.62319 0.11424 0.0
H81 H 0.10358 0.76659 0.93208 0.0
H82 H 0.96106 0.47121 0.11282 0.0
H83 H 0.10451 0.61363 0.92715 0.0
H84 H 0.13761 0.36455 1.00737 0.0
H85 H 0.13632 0.51757 1.01382 0.0
H86 H 0.93214 0.32949 0.01939 0.0
H87 H 0.93411 0.17711 0.01713 0.0
C88 C 0.99036 0.62191 0.07331 0.0
C89 C 1.03068 0.70695 0.02345 0.0
C90 C 0.99179 0.53451 0.07196 0.0
C91 C 0.033 0.52972 0.01975 0.0
C92 C 0.07303 0.61493 0.96955 0.0
C93 C 0.07218 0.70262 0.97187 0.0
C94 C 0.09248 0.35604 1.0098 0.0
C95 C 0.03603 0.25882 1.01182 0.0
C96 C 0.09161 0.44379 1.01308 0.0
C97 C 0.03409 0.43628 0.01714 0.0
C98 C 0.97754 0.33863 0.01815 0.0
C99 C 0.97858 0.25104 0.01614 0.0
loop_
_geom_bond_atom_site_label_1
_geom_bond_atom_site_label_2
_geom_bond_distance
_geom_bond_site_symmetry_2
_ccdc_geom_bond_type
Gd0 C3 2.818 . S
Gd0 O20 2.377 1_565 S
Gd0 O22 2.448 . S
Gd0 O23 2.506 1_556 S
Gd0 O24 2.435 . S
Gd0 O25 2.717 1_665 S
Gd0 O27 2.395 . S
Gd0 O31 2.327 1_556 S
Gd1 C12 2.818 . S
Gd1 O21 2.395 . S
Gd1 O25 2.327 1_554 S
Gd1 O26 2.377 1_545 S
Gd1 O28 2.448 . S
Gd1 O29 2.506 1_554 S
Gd1 O30 2.435 . S
Gd1 O31 2.717 1_445 S
C2 O20 1.240 1_455 S
C2 O21 1.240 1_556 S
C3 Gd0 2.818 . S
C3 C4 1.510 . S
C3 O22 1.249 . S
C3 O23 1.252 1_556 S
C4 C3 1.510 . S
C4 C5 1.404 . S
C4 C6 1.352 1_566 S
C5 C4 1.404 . S
C5 C9 1.389 . S
C5 H32 0.930 . S
C6 C4 1.352 1_544 S
C6 C8 1.374 . S
C6 H33 0.931 . S
C7 C8 1.359 1_565 S
C7 C9 1.364 1_554 S
C8 C6 1.374 . S
C8 C7 1.359 1_545 S
C8 H34 0.931 . S
C9 C5 1.389 . S
C9 C7 1.364 1_556 S
C9 H35 0.931 . S
C10 O24 1.256 . S
C10 O25 1.257 1_665 S
C11 O26 1.240 1_655 S
C11 O27 1.240 1_554 S
C12 Gd1 2.818 . S
C12 C13 1.510 . S
C12 O28 1.249 . S
C12 O29 1.252 1_554 S
C13 C12 1.510 . S
C13 C14 1.404 . S
C13 C15 1.352 1_544 S
C14 C13 1.404 . S
C14 C18 1.389 . S
C14 H36 0.930 . S
C15 C13 1.352 1_566 S
C15 C17 1.374 . S
C15 H37 0.931 . S
C16 C17 1.359 1_545 S
C16 C18 1.364 1_556 S
C17 C15 1.374 . S
C17 C16 1.359 1_565 S
C17 H38 0.931 . S
C18 C14 1.389 . S
C18 C16 1.364 1_554 S
C18 H39 0.931 . S
C19 O30 1.256 . S
C19 O31 1.257 1_445 S
O20 Gd0 2.377 1_545 S
O20 C2 1.240 1_655 S
O21 Gd1 2.395 . S
O21 C2 1.240 1_554 S
O22 Gd0 2.448 . S
O22 C3 1.249 . S
O23 Gd0 2.506 1_554 S
O23 C3 1.252 1_554 S
O24 Gd0 2.435 . S
O24 C10 1.256 . S
O25 Gd0 2.717 1_445 S
O25 Gd1 2.327 1_556 S
O25 C10 1.257 1_445 S
O26 Gd1 2.377 1_565 S
O26 C11 1.240 1_455 S
O27 Gd0 2.395 . S
O27 C11 1.240 1_556 S
O28 Gd1 2.448 . S
O28 C12 1.249 . S
O29 Gd1 2.506 1_556 S
O29 C12 1.252 1_556 S
O30 Gd1 2.435 . S
O30 C19 1.256 . S
O31 Gd0 2.327 1_554 S
O31 Gd1 2.717 1_665 S
O31 C19 1.257 1_665 S
H32 C5 0.930 . S
H33 C6 0.931 . S
H34 C8 0.931 . S
H35 C9 0.931 . S
H36 C14 0.930 . S
H37 C15 0.931 . S
H38 C17 0.931 . S
H39 C18 0.931 . S
H40 C48 0.950 . S
H41 C53 0.950 . S
H42 C50 0.950 . S
H43 C52 0.950 . S
H44 C54 0.950 . S
H45 C56 0.950 . S
H46 C58 0.950 . S
H47 C59 0.950 . S
C48 H40 0.950 . S
C48 C49 1.386 1_545 S
C48 C50 1.391 . S
C49 C48 1.386 1_565 S
C49 C53 1.393 1_655 S
C50 H42 0.950 . S
C50 C48 1.391 . S
C50 C51 1.413 1_545 S
C51 C50 1.413 1_565 S
C51 C52 1.383 1_655 S
C51 C57 1.496 1_665 S
C52 H43 0.950 . S
C52 C51 1.383 1_455 S
C52 C53 1.391 . S
C53 H41 0.950 . S
C53 C49 1.393 1_455 S
C53 C52 1.391 . S
C54 H44 0.950 . S
C54 C55 1.386 1_565 S
C54 C56 1.391 . S
C55 C54 1.386 1_545 S
C55 C59 1.393 1_455 S
C56 H45 0.950 . S
C56 C54 1.391 . S
C56 C57 1.417 1_565 S
C57 C51 1.496 1_445 S
C57 C56 1.417 1_545 S
C57 C58 1.379 1_455 S
C58 H46 0.950 . S
C58 C57 1.379 1_655 S
C58 C59 1.391 . S
C59 H47 0.950 . S
C59 C55 1.393 1_655 S
C59 C58 1.391 . S
H60 C68 0.950 . S
H61 C73 0.950 . S
H62 C70 0.950 . S
H63 C72 0.950 . S
H64 C74 0.950 . S
H65 C76 0.950 . S
H66 C78 0.950 . S
H67 C79 0.950 . S
C68 H60 0.950 . S
C68 C69 1.386 1_545 S
C68 C70 1.391 . S
C69 C68 1.386 1_565 S
C69 C73 1.393 1_554 S
C70 H62 0.950 . S
C70 C68 1.391 . S
C70 C71 1.407 1_545 S
C71 C70 1.407 1_565 S
C71 C72 1.392 1_554 S
C71 C77 1.489 1_564 S
C72 H63 0.950 . S
C72 C71 1.392 1_556 S
C72 C73 1.391 . S
C73 H61 0.950 . S
C73 C69 1.393 1_556 S
C73 C72 1.391 . S
C74 H64 0.950 . S
C74 C75 1.394 1_565 S
C74 C76 1.391 . S
C75 C74 1.394 1_545 S
C75 C79 1.383 1_556 S
C76 H65 0.950 . S
C76 C74 1.391 . S
C76 C77 1.405 1_565 S
C77 C71 1.489 1_546 S
C77 C76 1.405 1_545 S
C77 C78 1.394 1_556 S
C78 H66 0.950 . S
C78 C77 1.394 1_554 S
C78 C79 1.391 . S
C79 H67 0.950 . S
C79 C75 1.383 1_554 S
C79 C78 1.391 . S
H80 C88 0.950 . S
H81 C93 0.950 . S
H82 C90 0.950 . S
H83 C92 0.950 . S
H84 C94 0.950 . S
H85 C96 0.950 . S
H86 C98 0.950 . S
H87 C99 0.950 . S
C88 H80 0.950 . S
C88 C89 1.386 1_655 S
C88 C90 1.391 . S
C89 C88 1.386 1_455 S
C89 C93 1.393 1_556 S
C90 H82 0.950 . S
C90 C88 1.391 . S
C90 C91 1.384 1_655 S
C91 C90 1.384 1_455 S
C91 C92 1.403 1_556 S
C91 C97 1.509 1_456 S
C92 H83 0.950 . S
C92 C91 1.403 1_554 S
C92 C93 1.391 . S
C93 H81 0.950 . S
C93 C89 1.393 1_554 S
C93 C92 1.391 . S
C94 H84 0.950 . S
C94 C95 1.386 1_455 S
C94 C96 1.391 . S
C95 C94 1.386 1_655 S
C95 C99 1.393 1_554 S
C96 H85 0.950 . S
C96 C94 1.391 . S
C96 C97 1.389 1_455 S
C97 C91 1.509 1_654 S
C97 C96 1.389 1_655 S
C97 C98 1.402 1_554 S
C98 H86 0.950 . S
C98 C97 1.402 1_556 S
C98 C99 1.391 . S
C99 H87 0.950 . S
C99 C95 1.393 1_556 S
C99 C98 1.391 . S
C49 C19 1.465 1_665 S
C55 C10 1.465 1_445 S
C69 C16 1.500 1_564 S
C75 C7 1.501 1_546 S
C89 C11 1.498 1_456 S
C95 C2 1.498 1_654 S
