# Generated by pormake.
# Topology uog, (4)-cn, num edge types: 1
# Building blocks:
#     Node 0, Type 0, BuildingBlock: GALJAG_clean_sbu_0, # of connection points: 4
#     Node 1, Type 0, BuildingBlock: GALJAG_clean_sbu_0, # of connection points: 4
#     Node 2, Type 0, BuildingBlock: GALJAG_clean_sbu_0, # of connection points: 4
#     Node 3, Type 0, BuildingBlock: GALJAG_clean_sbu_0, # of connection points: 4
#     Node 4, Type 0, BuildingBlock: GALJAG_clean_sbu_0, # of connection points: 4
#     Node 5, Type 0, BuildingBlock: GALJAG_clean_sbu_0, # of connection points: 4
#     Edge 6, Type (0, 0), BuildingBlock: OJICUG_clean_linker_0, # of connection points: 2
#     Edge 7, Type (0, 0), BuildingBlock: OJICUG_clean_linker_0, # of connection points: 2
#     Edge 8, Type (0, 0), BuildingBlock: OJICUG_clean_linker_0, # of connection points: 2
#     Edge 9, Type (0, 0), BuildingBlock: OJICUG_clean_linker_0, # of connection points: 2
#     Edge 10, Type (0, 0), BuildingBlock: OJICUG_clean_linker_0, # of connection points: 2
#     Edge 11, Type (0, 0), BuildingBlock: OJICUG_clean_linker_0, # of connection points: 2
#     Edge 12, Type (0, 0), BuildingBlock: OJICUG_clean_linker_0, # of connection points: 2
#     Edge 13, Type (0, 0), BuildingBlock: OJICUG_clean_linker_0, # of connection points: 2
#     Edge 14, Type (0, 0), BuildingBlock: OJICUG_clean_linker_0, # of connection points: 2
#     Edge 15, Type (0, 0), BuildingBlock: OJICUG_clean_linker_0, # of connection points: 2
#     Edge 16, Type (0, 0), BuildingBlock: OJICUG_clean_linker_0, # of connection points: 2
#     Edge 17, Type (0, 0), BuildingBlock: OJICUG_clean_linker_0, # of connection points: 2
# Relax obj value: 0.035
# Max RMSD: 0.144
# Mean RMSD: 0.144
data_MOF--net-uog--node1-GALJAG_clean_sbu_0--edge1-OJICUG_clean_linker_0
_symmetry_space_group_name_H-M    P1
_symmetry_Int_Tables_number       1
_symmetry_cell_setting            triclinic
loop_
_symmetry_equiv_pos_as_xyz
'x, y, z'
_cell_length_a     21.133579
_cell_length_b     21.163309
_cell_length_c     31.864951
_cell_angle_alpha  90.253992
_cell_angle_beta   89.586899
_cell_angle_gamma 119.8735
loop_
_atom_site_label
_atom_site_type_symbol
_atom_site_fract_x
_atom_site_fract_y
_atom_site_fract_z
_atom_type_partial_charge
In0 In 0.59334 0.29718 0.15131 0.0
O1 O 0.50263 0.32552 0.15746 0.0
O2 O 0.61396 0.4115 0.15956 0.0
C3 C 0.54683 0.1549 0.14288 0.0
C4 C 0.64084 0.3077 0.22976 0.0
C5 C 0.63729 0.33158 0.07185 0.0
O6 O 0.50238 0.17854 0.14706 0.0
O7 O 0.61357 0.20322 0.14247 0.0
O8 O 0.68234 0.34237 0.10099 0.0
O9 O 0.57141 0.30411 0.08324 0.0
C10 C 0.54724 0.39346 0.16057 0.0
O11 O 0.68456 0.34153 0.19976 0.0
O12 O 0.57451 0.26941 0.21973 0.0
In13 In 0.30292 0.59397 0.4865 0.0
O14 O 0.34764 0.68326 0.53636 0.0
O15 O 0.31 0.57276 0.55469 0.0
C16 C 0.31278 0.64018 0.40773 0.0
C17 C 0.16037 0.54713 0.49504 0.0
C18 C 0.39926 0.5479 0.47717 0.0
O19 O 0.34702 0.68433 0.43733 0.0
O20 O 0.27449 0.57413 0.41832 0.0
O21 O 0.33124 0.50342 0.48069 0.0
O22 O 0.41741 0.61455 0.47793 0.0
C23 C 0.337 0.63857 0.56574 0.0
O24 O 0.1843 0.50289 0.4913 0.0
O25 O 0.20857 0.61384 0.49503 0.0
In26 In 0.70271 0.29278 0.81698 0.0
O27 O 0.65835 0.33895 0.86656 0.0
O28 O 0.73097 0.30095 0.88513 0.0
C29 C 0.66861 0.30306 0.73785 0.0
C30 C 0.60626 0.15087 0.82591 0.0
C31 C 0.84508 0.38894 0.80881 0.0
O32 O 0.65747 0.33688 0.76743 0.0
O33 O 0.69617 0.26462 0.74864 0.0
O34 O 0.8218 0.32099 0.81209 0.0
O35 O 0.79635 0.407 0.80905 0.0
C36 C 0.69254 0.32878 0.89601 0.0
O37 O 0.67427 0.17396 0.8223 0.0
O38 O 0.58819 0.19953 0.82537 0.0
In39 In 0.41166 0.70685 0.15258 0.0
O40 O 0.50262 0.67871 0.15681 0.0
O41 O 0.39141 0.5928 0.16107 0.0
C42 C 0.45779 0.84889 0.14357 0.0
C43 C 0.36758 0.69797 0.23206 0.0
C44 C 0.36419 0.66998 0.07404 0.0
O45 O 0.5024 0.82534 0.14652 0.0
O46 O 0.39107 0.8006 0.14469 0.0
O47 O 0.32049 0.66049 0.1041 0.0
O48 O 0.43047 0.69738 0.08408 0.0
C49 C 0.45815 0.61088 0.16082 0.0
O50 O 0.32261 0.66364 0.20287 0.0
O51 O 0.43344 0.73619 0.2207 0.0
In52 In 0.71153 0.41068 0.48393 0.0
O53 O 0.83007 0.5015 0.48961 0.0
O54 O 0.80555 0.39047 0.49232 0.0
C55 C 0.61611 0.45787 0.47555 0.0
C56 C 0.6738 0.3636 0.56263 0.0
C57 C 0.70194 0.36517 0.40478 0.0
O58 O 0.68411 0.502 0.47925 0.0
O59 O 0.59764 0.39114 0.47558 0.0
O60 O 0.66767 0.32089 0.43438 0.0
O61 O 0.7406 0.43108 0.41557 0.0
C62 C 0.85377 0.45714 0.49309 0.0
O63 O 0.66469 0.31985 0.53281 0.0
O64 O 0.70137 0.42973 0.5523 0.0
In65 In 0.29313 0.70288 0.82018 0.0
O66 O 0.32074 0.82165 0.82502 0.0
O67 O 0.40715 0.79672 0.82827 0.0
C68 C 0.15103 0.60663 0.81123 0.0
C69 C 0.30334 0.66773 0.89917 0.0
C70 C 0.33051 0.69332 0.74127 0.0
O71 O 0.17409 0.67448 0.81497 0.0
O72 O 0.1998 0.58865 0.81163 0.0
O73 O 0.34038 0.65917 0.77087 0.0
O74 O 0.30223 0.7314 0.75191 0.0
C75 C 0.38879 0.84516 0.82842 0.0
O76 O 0.33729 0.65714 0.86939 0.0
O77 O 0.26476 0.6953 0.88866 0.0
C78 C 0.44945 0.02345 0.14106 0.0
C79 C 0.52365 0.07657 0.14058 0.0
H80 H 0.37055 0.90974 0.14209 0.0
C81 C 0.57623 0.05424 0.13937 0.0
H82 H 0.40776 0.03899 0.14193 0.0
C83 C 0.55504 0.98025 0.13964 0.0
C84 C 0.48085 0.92715 0.14093 0.0
H85 H 0.63395 0.09397 0.13895 0.0
H86 H 0.59674 0.96471 0.13938 0.0
C87 C 0.42825 0.94946 0.14114 0.0
C88 C 0.52931 0.57701 0.47398 0.0
C89 C 0.45451 0.52468 0.47426 0.0
H90 H 0.63924 0.59702 0.47416 0.0
C91 C 0.43352 0.45053 0.47317 0.0
H92 H 0.54721 0.63468 0.47476 0.0
C93 C 0.48628 0.4291 0.47265 0.0
C94 C 0.56107 0.48138 0.4734 0.0
H95 H 0.37637 0.40904 0.47328 0.0
H96 H 0.46834 0.37141 0.47241 0.0
C97 C 0.58209 0.55556 0.47364 0.0
C98 C 0.94527 0.51896 0.80681 0.0
C99 C 0.92344 0.44432 0.80695 0.0
H100 H 0.03433 0.62891 0.80809 0.0
C101 C 0.97706 0.42371 0.80688 0.0
H102 H 0.90515 0.5366 0.80684 0.0
C103 C 0.05102 0.47667 0.80745 0.0
C104 C 0.07281 0.55129 0.80827 0.0
H105 H 0.96193 0.3667 0.80695 0.0
H106 H 0.09112 0.45903 0.80793 0.0
C107 C 0.01922 0.57191 0.80755 0.0
C108 C 0.02888 0.44955 0.49693 0.0
C109 C 0.08186 0.52372 0.49713 0.0
H110 H 0.91512 0.37044 0.49576 0.0
C111 C 0.05923 0.57602 0.49771 0.0
H112 H 0.04466 0.40807 0.49652 0.0
C113 C 0.98509 0.55459 0.49709 0.0
C114 C 0.93214 0.48044 0.49605 0.0
H115 H 0.09885 0.63371 0.4979 0.0
H116 H 0.96933 0.59609 0.49686 0.0
C117 C 0.95473 0.42812 0.49649 0.0
C118 C 0.5188 0.94545 0.83067 0.0
C119 C 0.44402 0.92347 0.83028 0.0
H120 H 0.62881 0.03455 0.82955 0.0
C121 C 0.42319 0.97687 0.83007 0.0
H122 H 0.53661 0.90551 0.83085 0.0
C123 C 0.47611 0.05078 0.82947 0.0
C124 C 0.55088 0.07272 0.82889 0.0
H125 H 0.36607 0.96161 0.8298 0.0
H126 H 0.45833 0.09073 0.82877 0.0
C127 C 0.5717 0.01933 0.82989 0.0
C128 C 0.42877 0.48103 0.16436 0.0
C129 C 0.48134 0.55564 0.16321 0.0
H130 H 0.40828 0.37111 0.16443 0.0
C131 C 0.55555 0.57635 0.16296 0.0
H132 H 0.37105 0.46333 0.16462 0.0
C133 C 0.57676 0.52345 0.16302 0.0
C134 C 0.52417 0.44881 0.16316 0.0
H135 H 0.59724 0.63336 0.16215 0.0
H136 H 0.63447 0.54113 0.16222 0.0
C137 C 0.44998 0.42812 0.16424 0.0
C138 C 0.6225 0.34438 0.95464 0.0
C139 C 0.68436 0.34218 0.94057 0.0
H140 H 0.55904 0.34255 0.00775 0.0
C141 C 0.73512 0.34538 0.97003 0.0
H142 H 0.58259 0.34197 0.93258 0.0
C143 C 0.72224 0.34669 0.01299 0.0
C144 C 0.65777 0.34357 0.02711 0.0
H145 H 0.78361 0.34428 0.95991 0.0
H146 H 0.76069 0.34609 0.03505 0.0
C147 C 0.609 0.34445 -0.00238 0.0
C148 C 0.39575 0.73919 0.30643 0.0
C149 C 0.34708 0.68963 0.27681 0.0
H150 H 0.42223 0.76309 0.37152 0.0
C151 C 0.2828 0.62846 0.29079 0.0
H152 H 0.44556 0.78713 0.2964 0.0
C153 C 0.27005 0.61432 0.33371 0.0
C154 C 0.32075 0.66176 0.36328 0.0
H155 H 0.24443 0.58946 0.26864 0.0
H156 H 0.22172 0.56483 0.3437 0.0
C157 C 0.38237 0.72567 0.34937 0.0
C158 C 0.65429 0.37376 0.67984 0.0
C159 C 0.65706 0.3122 0.69326 0.0
H160 H 0.65763 0.43833 0.62747 0.0
C161 C 0.65641 0.26298 0.66321 0.0
H162 H 0.65475 0.4125 0.70234 0.0
C163 C 0.6571 0.27718 0.62039 0.0
C164 C 0.65969 0.34145 0.60702 0.0
H165 H 0.65803 0.21476 0.6728 0.0
H166 H 0.65969 0.23999 0.5979 0.0
C167 C 0.65622 0.38858 0.63703 0.0
C168 C 0.37397 0.65218 0.95669 0.0
C169 C 0.3125 0.65553 0.94366 0.0
H170 H 0.43855 0.65429 0.00868 0.0
C171 C 0.2634 0.65469 0.974 0.0
H172 H 0.41262 0.65275 0.93397 0.0
C173 C 0.27765 0.65459 0.01674 0.0
C174 C 0.34186 0.65658 0.02973 0.0
H175 H 0.21525 0.65675 0.96472 0.0
H176 H 0.24057 0.65706 0.03947 0.0
C177 C 0.38885 0.65332 -0.00059 0.0
C178 C 0.742 0.39189 0.33002 0.0
C179 C 0.69281 0.34389 0.36019 0.0
H180 H 0.76479 0.41723 0.26466 0.0
C181 C 0.63116 0.27961 0.34692 0.0
H182 H 0.79029 0.4417 0.3395 0.0
C183 C 0.61618 0.2662 0.30416 0.0
C184 C 0.66324 0.31626 0.27404 0.0
H185 H 0.59243 0.24174 0.36951 0.0
H186 H 0.56634 0.21791 0.29472 0.0
C187 C 0.72764 0.37786 0.28724 0.0
C188 C 0.34854 0.62436 0.68307 0.0
C189 C 0.34485 0.68546 0.6968 0.0
H190 H 0.34883 0.56159 0.6303 0.0
C191 C 0.34764 0.73574 0.66707 0.0
H192 H 0.34651 0.58485 0.70534 0.0
C193 C 0.34997 0.72304 0.62419 0.0
C194 C 0.3483 0.65924 0.61041 0.0
H195 H 0.34541 0.78367 0.67691 0.0
H196 H 0.34896 0.76104 0.60191 0.0
C197 C 0.34963 0.61104 0.64018 0.0
loop_
_geom_bond_atom_site_label_1
_geom_bond_atom_site_label_2
_geom_bond_distance
_geom_bond_site_symmetry_2
_ccdc_geom_bond_type
In0 O1 2.294 . S
In0 O2 2.326 . S
In0 O6 2.266 . S
In0 O7 2.326 . S
In0 O8 2.266 . S
In0 O9 2.326 . S
In0 O11 2.294 . S
In0 O12 2.326 . S
O1 In0 2.294 . S
O1 C10 1.240 . S
O2 In0 2.326 . S
O2 C10 1.252 . S
C3 O6 1.252 . S
C3 O7 1.260 . S
C4 O11 1.240 . S
C4 O12 1.252 . S
C5 O8 1.252 . S
C5 O9 1.260 . S
O6 In0 2.266 . S
O6 C3 1.252 . S
O7 In0 2.326 . S
O7 C3 1.260 . S
O8 In0 2.266 . S
O8 C5 1.252 . S
O9 In0 2.326 . S
O9 C5 1.260 . S
C10 O1 1.240 . S
C10 O2 1.252 . S
O11 In0 2.294 . S
O11 C4 1.240 . S
O12 In0 2.326 . S
O12 C4 1.252 . S
In13 O14 2.294 . S
In13 O15 2.326 . S
In13 O19 2.266 . S
In13 O20 2.326 . S
In13 O21 2.266 . S
In13 O22 2.326 . S
In13 O24 2.294 . S
In13 O25 2.326 . S
O14 In13 2.294 . S
O14 C23 1.240 . S
O15 In13 2.326 . S
O15 C23 1.252 . S
C16 O19 1.252 . S
C16 O20 1.260 . S
C17 O24 1.240 . S
C17 O25 1.252 . S
C18 O21 1.252 . S
C18 O22 1.260 . S
O19 In13 2.266 . S
O19 C16 1.252 . S
O20 In13 2.326 . S
O20 C16 1.260 . S
O21 In13 2.266 . S
O21 C18 1.252 . S
O22 In13 2.326 . S
O22 C18 1.260 . S
C23 O14 1.240 . S
C23 O15 1.252 . S
O24 In13 2.294 . S
O24 C17 1.240 . S
O25 In13 2.326 . S
O25 C17 1.252 . S
In26 O27 2.294 . S
In26 O28 2.326 . S
In26 O32 2.266 . S
In26 O33 2.326 . S
In26 O34 2.266 . S
In26 O35 2.326 . S
In26 O37 2.294 . S
In26 O38 2.326 . S
O27 In26 2.294 . S
O27 C36 1.240 . S
O28 In26 2.326 . S
O28 C36 1.252 . S
C29 O32 1.252 . S
C29 O33 1.260 . S
C30 O37 1.240 . S
C30 O38 1.252 . S
C31 O34 1.252 . S
C31 O35 1.260 . S
O32 In26 2.266 . S
O32 C29 1.252 . S
O33 In26 2.326 . S
O33 C29 1.260 . S
O34 In26 2.266 . S
O34 C31 1.252 . S
O35 In26 2.326 . S
O35 C31 1.260 . S
C36 O27 1.240 . S
C36 O28 1.252 . S
O37 In26 2.294 . S
O37 C30 1.240 . S
O38 In26 2.326 . S
O38 C30 1.252 . S
In39 O40 2.294 . S
In39 O41 2.326 . S
In39 O45 2.266 . S
In39 O46 2.326 . S
In39 O47 2.266 . S
In39 O48 2.326 . S
In39 O50 2.294 . S
In39 O51 2.326 . S
O40 In39 2.294 . S
O40 C49 1.240 . S
O41 In39 2.326 . S
O41 C49 1.252 . S
C42 O45 1.252 . S
C42 O46 1.260 . S
C43 O50 1.240 . S
C43 O51 1.252 . S
C44 O47 1.252 . S
C44 O48 1.260 . S
O45 In39 2.266 . S
O45 C42 1.252 . S
O46 In39 2.326 . S
O46 C42 1.260 . S
O47 In39 2.266 . S
O47 C44 1.252 . S
O48 In39 2.326 . S
O48 C44 1.260 . S
C49 O40 1.240 . S
C49 O41 1.252 . S
O50 In39 2.294 . S
O50 C43 1.240 . S
O51 In39 2.326 . S
O51 C43 1.252 . S
In52 O53 2.294 . S
In52 O54 2.326 . S
In52 O58 2.266 . S
In52 O59 2.326 . S
In52 O60 2.266 . S
In52 O61 2.326 . S
In52 O63 2.294 . S
In52 O64 2.326 . S
O53 In52 2.294 . S
O53 C62 1.240 . S
O54 In52 2.326 . S
O54 C62 1.252 . S
C55 O58 1.252 . S
C55 O59 1.260 . S
C56 O63 1.240 . S
C56 O64 1.252 . S
C57 O60 1.252 . S
C57 O61 1.260 . S
O58 In52 2.266 . S
O58 C55 1.252 . S
O59 In52 2.326 . S
O59 C55 1.260 . S
O60 In52 2.266 . S
O60 C57 1.252 . S
O61 In52 2.326 . S
O61 C57 1.260 . S
C62 O53 1.240 . S
C62 O54 1.252 . S
O63 In52 2.294 . S
O63 C56 1.240 . S
O64 In52 2.326 . S
O64 C56 1.252 . S
In65 O66 2.294 . S
In65 O67 2.326 . S
In65 O71 2.266 . S
In65 O72 2.326 . S
In65 O73 2.266 . S
In65 O74 2.326 . S
In65 O76 2.294 . S
In65 O77 2.326 . S
O66 In65 2.294 . S
O66 C75 1.240 . S
O67 In65 2.326 . S
O67 C75 1.252 . S
C68 O71 1.252 . S
C68 O72 1.260 . S
C69 O76 1.240 . S
C69 O77 1.252 . S
C70 O73 1.252 . S
C70 O74 1.260 . S
O71 In65 2.266 . S
O71 C68 1.252 . S
O72 In65 2.326 . S
O72 C68 1.260 . S
O73 In65 2.266 . S
O73 C70 1.252 . S
O74 In65 2.326 . S
O74 C70 1.260 . S
C75 O66 1.240 . S
C75 O67 1.252 . S
O76 In65 2.294 . S
O76 C69 1.240 . S
O77 In65 2.326 . S
O77 C69 1.252 . S
C78 C79 1.387 . S
C78 H82 0.950 . S
C78 C87 1.390 1_545 S
C79 C78 1.387 . S
C79 C81 1.387 . S
H80 C87 0.950 . S
C81 C79 1.387 . S
C81 C83 1.390 1_545 S
C81 H85 0.950 . S
H82 C78 0.950 . S
C83 C81 1.390 1_565 S
C83 C84 1.387 . S
C83 H86 0.950 . S
C84 C83 1.387 . S
C84 C87 1.387 . S
H85 C81 0.950 . S
H86 C83 0.950 . S
C87 C78 1.390 1_565 S
C87 H80 0.950 . S
C87 C84 1.387 . S
C88 C89 1.387 . S
C88 H92 0.950 . S
C88 C97 1.390 . S
C89 C88 1.387 . S
C89 C91 1.387 . S
H90 C97 0.950 . S
C91 C89 1.387 . S
C91 C93 1.390 . S
C91 H95 0.950 . S
H92 C88 0.950 . S
C93 C91 1.390 . S
C93 C94 1.387 . S
C93 H96 0.950 . S
C94 C93 1.387 . S
C94 C97 1.387 . S
H95 C91 0.950 . S
H96 C93 0.950 . S
C97 C88 1.390 . S
C97 H90 0.950 . S
C97 C94 1.387 . S
C98 C99 1.387 . S
C98 H102 0.950 . S
C98 C107 1.390 1_655 S
C99 C98 1.387 . S
C99 C101 1.387 . S
H100 C107 0.950 . S
C101 C99 1.387 . S
C101 C103 1.390 1_655 S
C101 H105 0.950 . S
H102 C98 0.950 . S
C103 C101 1.390 1_455 S
C103 C104 1.387 . S
C103 H106 0.950 . S
C104 C103 1.387 . S
C104 C107 1.387 . S
H105 C101 0.950 . S
H106 C103 0.950 . S
C107 C98 1.390 1_455 S
C107 H100 0.950 . S
C107 C104 1.387 . S
C108 C109 1.387 . S
C108 H112 0.950 . S
C108 C117 1.390 1_455 S
C109 C108 1.387 . S
C109 C111 1.387 . S
H110 C117 0.950 . S
C111 C109 1.387 . S
C111 C113 1.390 1_455 S
C111 H115 0.950 . S
H112 C108 0.950 . S
C113 C111 1.390 1_655 S
C113 C114 1.387 . S
C113 H116 0.950 . S
C114 C113 1.387 . S
C114 C117 1.387 . S
H115 C111 0.950 . S
H116 C113 0.950 . S
C117 C108 1.390 1_655 S
C117 H110 0.950 . S
C117 C114 1.387 . S
C118 C119 1.387 . S
C118 H122 0.950 . S
C118 C127 1.390 1_565 S
C119 C118 1.387 . S
C119 C121 1.387 . S
H120 C127 0.950 . S
C121 C119 1.387 . S
C121 C123 1.390 1_565 S
C121 H125 0.950 . S
H122 C118 0.950 . S
C123 C121 1.390 1_545 S
C123 C124 1.387 . S
C123 H126 0.950 . S
C124 C123 1.387 . S
C124 C127 1.387 . S
H125 C121 0.950 . S
H126 C123 0.950 . S
C127 C118 1.390 1_545 S
C127 H120 0.950 . S
C127 C124 1.387 . S
C128 C129 1.387 . S
C128 H132 0.950 . S
C128 C137 1.390 . S
C129 C128 1.387 . S
C129 C131 1.387 . S
H130 C137 0.950 . S
C131 C129 1.387 . S
C131 C133 1.390 . S
C131 H135 0.950 . S
H132 C128 0.950 . S
C133 C131 1.390 . S
C133 C134 1.387 . S
C133 H136 0.950 . S
C134 C133 1.387 . S
C134 C137 1.387 . S
H135 C131 0.950 . S
H136 C133 0.950 . S
C137 C128 1.390 . S
C137 H130 0.950 . S
C137 C134 1.387 . S
C138 C139 1.387 . S
C138 H142 0.950 . S
C138 C147 1.390 1_556 S
C139 C138 1.387 . S
C139 C141 1.387 . S
H140 C147 0.950 . S
C141 C139 1.387 . S
C141 C143 1.390 1_556 S
C141 H145 0.950 . S
H142 C138 0.950 . S
C143 C141 1.390 1_554 S
C143 C144 1.387 . S
C143 H146 0.950 . S
C144 C143 1.387 . S
C144 C147 1.387 . S
H145 C141 0.950 . S
H146 C143 0.950 . S
C147 C138 1.390 1_554 S
C147 H140 0.950 . S
C147 C144 1.387 . S
C148 C149 1.387 . S
C148 H152 0.950 . S
C148 C157 1.390 . S
C149 C148 1.387 . S
C149 C151 1.387 . S
H150 C157 0.950 . S
C151 C149 1.387 . S
C151 C153 1.390 . S
C151 H155 0.950 . S
H152 C148 0.950 . S
C153 C151 1.390 . S
C153 C154 1.387 . S
C153 H156 0.950 . S
C154 C153 1.387 . S
C154 C157 1.387 . S
H155 C151 0.950 . S
H156 C153 0.950 . S
C157 C148 1.390 . S
C157 H150 0.950 . S
C157 C154 1.387 . S
C158 C159 1.387 . S
C158 H162 0.950 . S
C158 C167 1.390 . S
C159 C158 1.387 . S
C159 C161 1.387 . S
H160 C167 0.950 . S
C161 C159 1.387 . S
C161 C163 1.390 . S
C161 H165 0.950 . S
H162 C158 0.950 . S
C163 C161 1.390 . S
C163 C164 1.387 . S
C163 H166 0.950 . S
C164 C163 1.387 . S
C164 C167 1.387 . S
H165 C161 0.950 . S
H166 C163 0.950 . S
C167 C158 1.390 . S
C167 H160 0.950 . S
C167 C164 1.387 . S
C168 C169 1.387 . S
C168 H172 0.950 . S
C168 C177 1.390 1_556 S
C169 C168 1.387 . S
C169 C171 1.387 . S
H170 C177 0.950 . S
C171 C169 1.387 . S
C171 C173 1.390 1_556 S
C171 H175 0.950 . S
H172 C168 0.950 . S
C173 C171 1.390 1_554 S
C173 C174 1.387 . S
C173 H176 0.950 . S
C174 C173 1.387 . S
C174 C177 1.387 . S
H175 C171 0.950 . S
H176 C173 0.950 . S
C177 C168 1.390 1_554 S
C177 H170 0.950 . S
C177 C174 1.387 . S
C178 C179 1.387 . S
C178 H182 0.950 . S
C178 C187 1.390 . S
C179 C178 1.387 . S
C179 C181 1.387 . S
H180 C187 0.950 . S
C181 C179 1.387 . S
C181 C183 1.390 . S
C181 H185 0.950 . S
H182 C178 0.950 . S
C183 C181 1.390 . S
C183 C184 1.387 . S
C183 H186 0.950 . S
C184 C183 1.387 . S
C184 C187 1.387 . S
H185 C181 0.950 . S
H186 C183 0.950 . S
C187 C178 1.390 . S
C187 H180 0.950 . S
C187 C184 1.387 . S
C188 C189 1.387 . S
C188 H192 0.950 . S
C188 C197 1.390 . S
C189 C188 1.387 . S
C189 C191 1.387 . S
H190 C197 0.950 . S
C191 C189 1.387 . S
C191 C193 1.390 . S
C191 H195 0.950 . S
H192 C188 0.950 . S
C193 C191 1.390 . S
C193 C194 1.387 . S
C193 H196 0.950 . S
C194 C193 1.387 . S
C194 C197 1.387 . S
H195 C191 0.950 . S
H196 C193 0.950 . S
C197 C188 1.390 . S
C197 H190 0.950 . S
C197 C194 1.387 . S
C79 C3 1.472 . S
C84 C42 1.472 . S
C89 C18 1.472 . S
C94 C55 1.472 . S
C99 C31 1.475 . S
C104 C68 1.475 . S
C109 C17 1.463 . S
C114 C62 1.463 . S
C119 C75 1.460 . S
C124 C30 1.460 . S
C129 C49 1.460 . S
C134 C10 1.460 . S
C139 C36 1.406 . S
C144 C5 1.403 . S
C149 C43 1.406 . S
C154 C16 1.403 . S
C159 C29 1.403 . S
C164 C56 1.405 . S
C169 C69 1.404 . S
C174 C44 1.401 . S
C179 C57 1.402 . S
C184 C4 1.406 . S
C189 C70 1.403 . S
C194 C23 1.405 . S
