# Generated by pormake.
# Topology sxc, (6)-cn, num edge types: 1
# Building blocks:
#     Node 0, Type 0, BuildingBlock: MIDCAF_clean_sbu_0, # of connection points: 6
#     Node 1, Type 0, BuildingBlock: MIDCAF_clean_sbu_0, # of connection points: 6
#     Node 2, Type 0, BuildingBlock: MIDCAF_clean_sbu_0, # of connection points: 6
#     Edge 3, Type (0, 0), None
#     Edge 4, Type (0, 0), None
#     Edge 5, Type (0, 0), None
#     Edge 6, Type (0, 0), None
#     Edge 7, Type (0, 0), None
#     Edge 8, Type (0, 0), None
#     Edge 9, Type (0, 0), None
#     Edge 10, Type (0, 0), None
#     Edge 11, Type (0, 0), None
# Relax obj value: 0.323
# Max RMSD: 0.265
# Mean RMSD: 0.264
data_MOF--net-sxc--node1-MIDCAF_clean_sbu_0--edge1-none
_symmetry_space_group_name_H-M    P1
_symmetry_Int_Tables_number       1
_symmetry_cell_setting            triclinic
loop_
_symmetry_equiv_pos_as_xyz
'x, y, z'
_cell_length_a     7.3322476
_cell_length_b     7.3318911
_cell_length_c     21.801201
_cell_angle_alpha  92.314483
_cell_angle_beta   92.318133
_cell_angle_gamma 118.51941
loop_
_atom_site_label
_atom_site_type_symbol
_atom_site_fract_x
_atom_site_fract_y
_atom_site_fract_z
_atom_type_partial_charge
Zn0 Zn 0.86416 0.14889 0.98615 0.0
Zn1 Zn 0.51329 0.18562 0.12092 0.0
Zn2 Zn 0.21818 0.15929 0.0171 0.0
C3 C 0.31703 0.78481 0.06111 0.0
C4 C 0.10664 0.19139 0.15092 0.0
O5 O 0.32282 0.46069 0.05908 0.0
O6 O 0.03994 0.46026 0.02167 0.0
C7 C 0.03449 0.14892 0.8784 0.0
O8 O 0.22964 0.87787 0.03444 0.0
O9 O 0.46951 0.88617 0.10006 0.0
O10 O 0.28159 0.20501 0.16753 0.0
O11 O 0.0438 0.16707 0.09392 0.0
O12 O 0.86866 0.13916 0.8961 0.0
O13 O 0.17345 0.1584 0.91761 0.0
O14 O 0.02011 0.86985 0.05742 0.0
O15 O 0.72999 0.85167 0.01938 0.0
C16 C 0.82322 0.76669 0.04658 0.0
O17 O 0.51754 0.44046 0.03629 0.0
O18 O 0.76602 0.46618 0.10169 0.0
C19 C 0.22167 0.55786 0.04832 0.0
C20 C 0.70196 0.54721 0.06181 0.0
Zn21 Zn 0.24019 0.59788 0.4263 0.0
Zn22 Zn 0.62968 -0.01263 0.26651 0.0
Zn23 Zn -0.05428 0.28184 0.34641 0.0
C24 C 0.85562 0.85231 0.36097 0.0
C25 C -0.02837 0.18468 0.19949 0.0
O26 O 0.86952 0.53445 0.3568 0.0
O27 O 0.13998 0.80894 0.40252 0.0
C28 C 0.04294 0.25593 0.49333 0.0
O29 O 0.90392 0.0214 0.39282 0.0
O30 O 0.74412 0.80843 0.31074 0.0
O31 O 0.77665 0.09135 0.18883 0.0
O32 O 0.0523 0.24694 0.25504 0.0
O33 O 0.13624 0.45092 0.50399 0.0
O34 O -0.01935 0.17526 0.43779 0.0
O35 O 0.20615 0.32363 0.30001 0.0
O36 O 0.41914 0.48344 0.38208 0.0
C37 C 0.37526 0.37194 0.33186 0.0
O38 O 0.6931 0.35803 0.33602 0.0
O39 O 0.41862 0.08759 0.2903 0.0
C40 C -0.04233 0.72616 0.3767 0.0
C41 C 0.50138 0.26987 0.31612 0.0
Zn42 Zn 0.07874 0.36346 0.70666 0.0
Zn43 Zn 0.04203 0.71427 0.57191 0.0
Zn44 Zn 0.06836 0.00939 0.67572 0.0
C45 C 0.44283 0.9105 0.63171 0.0
C46 C 0.03621 0.1209 0.54191 0.0
O47 O 0.76695 0.90476 0.63375 0.0
O48 O 0.76735 0.18764 0.67115 0.0
C49 C 0.07875 0.19316 0.81442 0.0
O50 O 0.34976 -0.00211 0.65839 0.0
O51 O 0.34149 0.75803 0.59276 0.0
O52 O 0.02261 -0.05405 0.5253 0.0
O53 O 0.06056 0.18377 0.5989 0.0
O54 O 0.08847 0.35899 0.79671 0.0
O55 O 0.06928 0.05418 0.77522 0.0
O56 O 0.35781 0.20744 0.63541 0.0
O57 O 0.37599 0.49756 0.67345 0.0
C58 C 0.46097 0.40433 0.64625 0.0
O59 O 0.78716 0.71002 0.65655 0.0
O60 O 0.76145 0.46156 0.59114 0.0
C61 C 0.66977 0.0059 0.64451 0.0
C62 C 0.68043 0.52561 0.63103 0.0
loop_
_geom_bond_atom_site_label_1
_geom_bond_atom_site_label_2
_geom_bond_distance
_geom_bond_site_symmetry_2
_ccdc_geom_bond_type
Zn0 O6 1.920 1_655 S
Zn0 O12 1.898 . S
Zn0 O15 1.905 . S
Zn1 O9 1.905 . S
Zn1 O10 1.898 . S
Zn1 O18 1.920 . S
Zn2 O5 2.080 . S
Zn2 O8 2.114 . S
Zn2 O11 2.120 . S
Zn2 O13 2.120 1_554 S
Zn2 O14 2.114 1_455 S
Zn2 O17 2.080 . S
C3 O8 1.166 . S
C3 O9 1.182 . S
C4 O10 1.167 . S
C4 O11 1.299 . S
O5 Zn2 2.080 . S
O5 C19 1.305 1_554 S
O6 Zn0 1.920 1_455 S
O6 C19 1.234 . S
C7 O12 1.167 1_455 S
C7 O13 1.299 . S
O8 Zn2 2.114 . S
O8 C3 1.166 . S
O9 Zn1 1.905 . S
O9 C3 1.182 . S
O10 Zn1 1.898 . S
O10 C4 1.167 . S
O11 Zn2 2.120 . S
O11 C4 1.299 . S
O12 Zn0 1.898 . S
O12 C7 1.167 1_655 S
O13 Zn2 2.120 1_556 S
O13 C7 1.299 . S
O14 Zn2 2.114 1_655 S
O14 C16 1.166 . S
O15 Zn0 1.905 . S
O15 C16 1.182 1_556 S
C16 O14 1.166 . S
C16 O15 1.182 1_554 S
O17 Zn2 2.080 . S
O17 C20 1.305 . S
O18 Zn1 1.920 . S
O18 C20 1.234 . S
C19 O5 1.305 1_556 S
C19 O6 1.234 . S
C20 O17 1.305 . S
C20 O18 1.234 . S
Zn21 O27 1.920 . S
Zn21 O33 1.898 . S
Zn21 O36 1.905 . S
Zn22 O30 1.905 . S
Zn22 O31 1.898 . S
Zn22 O39 1.920 1_565 S
Zn23 O26 2.080 . S
Zn23 O29 2.114 1_545 S
Zn23 O32 2.120 . S
Zn23 O34 2.120 . S
Zn23 O35 2.114 . S
Zn23 O38 2.080 1_455 S
C24 O29 1.166 1_655 S
C24 O30 1.182 . S
C25 O31 1.167 1_445 S
C25 O32 1.299 . S
O26 Zn23 2.080 . S
O26 C40 1.305 . S
O27 Zn21 1.920 . S
O27 C40 1.234 . S
C28 O33 1.167 . S
C28 O34 1.299 . S
O29 Zn23 2.114 1_565 S
O29 C24 1.166 1_455 S
O30 Zn22 1.905 . S
O30 C24 1.182 . S
O31 Zn22 1.898 . S
O31 C25 1.167 1_665 S
O32 Zn23 2.120 . S
O32 C25 1.299 . S
O33 Zn21 1.898 . S
O33 C28 1.167 . S
O34 Zn23 2.120 . S
O34 C28 1.299 . S
O35 Zn23 2.114 . S
O35 C37 1.166 . S
O36 Zn21 1.905 . S
O36 C37 1.182 . S
C37 O35 1.166 . S
C37 O36 1.182 . S
O38 Zn23 2.080 1_655 S
O38 C41 1.305 . S
O39 Zn22 1.920 1_545 S
O39 C41 1.234 . S
C40 O26 1.305 . S
C40 O27 1.234 . S
C41 O38 1.305 . S
C41 O39 1.234 . S
Zn42 O48 1.920 1_455 S
Zn42 O54 1.898 . S
Zn42 O57 1.905 . S
Zn43 O51 1.905 . S
Zn43 O52 1.898 . S
Zn43 O60 1.920 1_455 S
Zn44 O47 2.080 1_455 S
Zn44 O50 2.114 1_545 S
Zn44 O53 2.120 1_455 S
Zn44 O55 2.120 . S
Zn44 O56 2.114 . S
Zn44 O59 2.080 1_445 S
C45 O50 1.166 . S
C45 O51 1.182 . S
C46 O52 1.167 1_545 S
C46 O53 1.299 1_455 S
O47 Zn44 2.080 1_655 S
O47 C61 1.305 . S
O48 Zn42 1.920 1_655 S
O48 C61 1.234 . S
C49 O54 1.167 . S
C49 O55 1.299 . S
O50 Zn44 2.114 1_565 S
O50 C45 1.166 . S
O51 Zn43 1.905 . S
O51 C45 1.182 . S
O52 Zn43 1.898 . S
O52 C46 1.167 1_565 S
O53 Zn44 2.120 1_655 S
O53 C46 1.299 1_655 S
O54 Zn42 1.898 . S
O54 C49 1.167 . S
O55 Zn44 2.120 . S
O55 C49 1.299 . S
O56 Zn44 2.114 . S
O56 C58 1.166 . S
O57 Zn42 1.905 . S
O57 C58 1.182 . S
C58 O56 1.166 . S
C58 O57 1.182 . S
O59 Zn44 2.080 1_665 S
O59 C62 1.305 . S
O60 Zn43 1.920 1_655 S
O60 C62 1.234 . S
C61 O47 1.305 . S
C61 O48 1.234 . S
C62 O59 1.305 . S
C62 O60 1.234 . S
C19 C3 2.457 1_566 S
C37 C41 2.614 . S
C62 C58 2.550 . S
C61 C45 2.457 1_545 S
C16 C20 2.550 1_545 S
C40 C24 2.614 1_455 S
C25 C4 1.717 . S
C28 C46 1.717 . S
C49 C7 0.914 . S
