# Generated by pormake.
# Topology dmp, (4)-cn, num edge types: 1
# Building blocks:
#     Node 0, Type 0, BuildingBlock: NAHDIM_clean_sbu_0, # of connection points: 4
#     Node 1, Type 0, BuildingBlock: NAHDIM_clean_sbu_0, # of connection points: 4
#     Node 2, Type 0, BuildingBlock: NAHDIM_clean_sbu_0, # of connection points: 4
#     Node 3, Type 0, BuildingBlock: NAHDIM_clean_sbu_0, # of connection points: 4
#     Edge 4, Type (0, 0), BuildingBlock: AJUNOK_clean_linker_0, # of connection points: 2
#     Edge 5, Type (0, 0), BuildingBlock: AJUNOK_clean_linker_0, # of connection points: 2
#     Edge 6, Type (0, 0), BuildingBlock: AJUNOK_clean_linker_0, # of connection points: 2
#     Edge 7, Type (0, 0), BuildingBlock: AJUNOK_clean_linker_0, # of connection points: 2
#     Edge 8, Type (0, 0), BuildingBlock: AJUNOK_clean_linker_0, # of connection points: 2
#     Edge 9, Type (0, 0), BuildingBlock: AJUNOK_clean_linker_0, # of connection points: 2
#     Edge 10, Type (0, 0), BuildingBlock: AJUNOK_clean_linker_0, # of connection points: 2
#     Edge 11, Type (0, 0), BuildingBlock: AJUNOK_clean_linker_0, # of connection points: 2
# Relax obj value: 0.243
# Max RMSD: 0.269
# Mean RMSD: 0.269
data_MOF--net-dmp--node1-NAHDIM_clean_sbu_0--edge1-AJUNOK_clean_linker_0
_symmetry_space_group_name_H-M    P1
_symmetry_Int_Tables_number       1
_symmetry_cell_setting            triclinic
loop_
_symmetry_equiv_pos_as_xyz
'x, y, z'
_cell_length_a     28.101656
_cell_length_b     12.895857
_cell_length_c     14.258995
_cell_angle_alpha  90.079479
_cell_angle_beta   90.494892
_cell_angle_gamma 96.138007
loop_
_atom_site_label
_atom_site_type_symbol
_atom_site_fract_x
_atom_site_fract_y
_atom_site_fract_z
_atom_type_partial_charge
C0 C 0.02737 0.36192 0.33556 0.0
O1 O 0.02779 0.39179 0.24751 0.0
O2 O 0.05979 0.11543 0.18844 0.0
Zn3 Zn 0.09432 0.23197 0.26448 0.0
O4 O 0.12327 0.3493 0.18468 0.0
C5 C 0.15408 0.09551 0.3675 0.0
O6 O 0.11526 0.02976 0.3755 0.0
O7 O 0.05233 0.28971 0.35969 0.0
C8 C 0.16038 0.33438 0.1385 0.0
O9 O 0.17282 0.23919 0.1328 0.0
C10 C 0.0468 0.12949 0.10434 0.0
O11 O 0.05474 0.22318 0.06787 0.0
O12 O 0.15131 0.18222 0.32732 0.0
C13 C 0.4423 0.61625 0.33828 0.0
O14 O 0.42855 0.57048 0.25872 0.0
O15 O 0.4193 0.87173 0.18415 0.0
Zn16 Zn 0.38348 0.76934 0.27113 0.0
O17 O 0.34293 0.65824 0.19959 0.0
C18 C 0.3379 0.93883 0.35427 0.0
O19 O 0.37535 -0.00224 0.32273 0.0
O20 O 0.42798 0.70378 0.35803 0.0
C21 C 0.30501 0.6817 0.15927 0.0
O22 O 0.29615 0.77968 0.15836 0.0
C23 C 0.42288 0.85297 0.09717 0.0
O24 O 0.40421 0.76252 0.06395 0.0
O25 O 0.33627 0.84066 0.34506 0.0
C26 C 0.93663 0.58582 0.62761 0.0
O27 O 0.93771 0.55146 0.71425 0.0
O28 O 0.93162 0.82181 0.79678 0.0
Zn29 Zn 0.88412 0.73283 0.71688 0.0
O30 O 0.84683 0.6184 0.78984 0.0
C31 C 0.82447 0.8968 0.71637 0.0
O32 O 0.85101 0.92361 0.79054 0.0
O33 O 0.91626 0.66716 0.6108 0.0
C34 C 0.81592 0.63826 0.84998 0.0
O35 O 0.8134 0.7352 0.87575 0.0
C36 C 0.94514 0.7985 0.87859 0.0
O37 O 0.9298 0.70705 0.91374 0.0
O38 O 0.83418 0.82003 0.66689 0.0
C39 C 0.54385 0.39025 0.61492 0.0
O40 O 0.55047 0.42641 0.70072 0.0
O41 O 0.53726 0.14577 0.77711 0.0
Zn42 Zn 0.58754 0.22732 0.69978 0.0
O43 O 0.62785 0.3355 0.77641 0.0
C44 C 0.63849 0.04883 0.69821 0.0
O45 O 0.60808 0.02254 0.76568 0.0
O46 O 0.55657 0.30106 0.59545 0.0
C47 C 0.66093 0.31307 0.83174 0.0
O48 O 0.66676 0.21479 0.8467 0.0
C49 C 0.52981 0.16385 0.86294 0.0
O50 O 0.55353 0.24542 0.90343 0.0
O51 O 0.63409 0.13119 0.65154 0.0
C52 C 0.25158 0.91788 0.39846 0.0
C53 C 0.29349 0.98457 0.37966 0.0
C54 C 0.20675 0.95569 0.40159 0.0
C55 C 0.20205 0.06169 0.38613 0.0
H56 H 0.25282 0.83456 0.40535 0.0
H57 H 0.17539 0.90011 0.41042 0.0
S58 S 0.30163 0.27237 0.35352 0.0
N59 N 0.32812 0.16433 0.35975 0.0
N60 N 0.24396 0.23564 0.36606 0.0
C61 C 0.24413 0.13086 0.37647 0.0
C62 C 0.28983 0.09226 0.3732 0.0
C63 C 0.24473 0.40994 0.11569 0.0
C64 C 0.19585 0.42449 0.11811 0.0
C65 C 0.28005 0.49477 0.1223 0.0
C66 C 0.26785 0.59737 0.13043 0.0
H67 H 0.25603 0.33221 0.11588 0.0
H68 H 0.31714 0.47915 0.12629 0.0
S69 S 0.14493 0.67832 0.1211 0.0
N70 N 0.13702 0.54974 0.11539 0.0
N71 N 0.20341 0.70967 0.12677 0.0
C72 C 0.21919 0.61371 0.12322 0.0
C73 C 0.18316 0.52706 0.11736 0.0
C74 C 0.70439 0.97645 0.78359 0.0
C75 C 0.68445 0.00366 0.6975 0.0
C76 C 0.75017 0.9442 0.78844 0.0
C77 C 0.77725 0.93511 0.70715 0.0
H78 H 0.68516 0.98327 0.84846 0.0
H79 H 0.76421 0.92497 0.85652 0.0
S80 S 0.74057 -0.00824 0.46405 0.0
N81 N 0.69487 0.01831 0.52882 0.0
N82 N 0.78059 0.95195 0.53761 0.0
C83 C 0.75737 0.95887 0.62015 0.0
C84 C 0.71105 -0.00515 0.61543 0.0
C85 C 0.78446 0.45197 0.87093 0.0
C86 C 0.77607 0.55744 0.86956 0.0
C87 C 0.74642 0.37243 0.86729 0.0
C88 C 0.69877 0.39589 0.85974 0.0
H89 H 0.82075 0.43082 0.86995 0.0
H90 H 0.75473 0.29243 0.86322 0.0
S91 S 0.65749 0.65957 0.86413 0.0
N92 N 0.71642 0.68114 0.87001 0.0
N93 N 0.64499 0.53154 0.8608 0.0
C94 C 0.68976 0.50085 0.86494 0.0
C95 C 0.72845 0.58178 0.87051 0.0
C96 C 0.00443 0.0622 0.95842 0.0
C97 C 0.02271 0.04204 0.04789 0.0
C98 C 0.9805 0.9825 0.90385 0.0
C99 C 0.97366 0.87892 0.93628 0.0
H100 H 0.00804 0.14061 0.9303 0.0
H101 H 0.96648 0.00313 0.83618 0.0
S102 S 0.01774 0.78272 0.16294 0.0
N103 N 0.03459 0.90931 0.1647 0.0
N104 N -0.01063 0.75941 0.062 0.0
C105 C -0.00727 0.85686 0.02475 0.0
C106 C 0.01727 0.93832 0.08052 0.0
C107 C 0.49554 0.10157 0.01664 0.0
C108 C 0.49927 0.08684 0.91932 0.0
C109 C 0.47039 0.0261 0.07311 0.0
C110 C 0.44793 0.93255 0.03472 0.0
H111 H 0.5129 0.17116 0.05016 0.0
H112 H 0.46919 0.04095 0.1478 0.0
S113 S 0.44418 0.85844 0.7827 0.0
N114 N 0.47626 0.97329 0.7861 0.0
N115 N 0.42912 0.8316 0.89228 0.0
C116 C 0.45026 0.91785 0.9371 0.0
C117 C 0.47582 -0.0051 0.87944 0.0
C118 C -0.01354 0.44868 0.57326 0.0
C119 C 0.9583 0.52925 0.55109 0.0
C120 C 0.00778 0.39397 0.50305 0.0
C121 C 0.00183 0.41738 0.40754 0.0
H122 H -0.00738 0.42804 0.64564 0.0
H123 H 0.02967 0.33371 0.52428 0.0
S124 S 0.92885 0.61705 0.31149 0.0
N125 N 0.92379 0.62684 0.42629 0.0
N126 N 0.96385 0.52399 0.29424 0.0
C127 C 0.97295 0.49644 0.38409 0.0
C128 C 0.95125 0.55239 0.4558 0.0
C129 C 0.4767 0.45634 0.3947 0.0
C130 C 0.471 0.56263 0.40701 0.0
C131 C 0.50102 0.40169 0.4614 0.0
C132 C 0.52053 0.4511 0.54318 0.0
H133 H 0.46139 0.41405 0.33401 0.0
H134 H 0.50361 0.31949 0.44959 0.0
S135 S 0.51992 0.73104 0.60434 0.0
N136 N 0.48997 0.71715 0.50424 0.0
N137 N 0.53561 0.61447 0.62951 0.0
C138 C 0.51645 0.55817 0.55504 0.0
C139 C 0.49173 0.61391 0.48702 0.0
loop_
_geom_bond_atom_site_label_1
_geom_bond_atom_site_label_2
_geom_bond_distance
_geom_bond_site_symmetry_2
_ccdc_geom_bond_type
C0 O1 1.160 . S
C0 O7 1.185 . S
O1 C0 1.160 . S
O2 Zn3 1.899 . S
O2 C10 1.284 . S
Zn3 O2 1.899 . S
Zn3 O4 2.032 . S
Zn3 O7 2.086 . S
Zn3 O12 1.977 . S
O4 Zn3 2.032 . S
O4 C8 1.278 . S
C5 O6 1.203 . S
C5 O12 1.267 . S
O6 C5 1.203 . S
O7 C0 1.185 . S
O7 Zn3 2.086 . S
C8 O4 1.278 . S
C8 O9 1.211 . S
O9 C8 1.211 . S
C10 O2 1.284 . S
C10 O11 1.273 . S
O11 C10 1.273 . S
O12 Zn3 1.977 . S
O12 C5 1.267 . S
C13 O14 1.160 . S
C13 O20 1.185 . S
O14 C13 1.160 . S
O15 Zn16 1.899 . S
O15 C23 1.284 . S
Zn16 O15 1.899 . S
Zn16 O17 2.032 . S
Zn16 O20 2.086 . S
Zn16 O25 1.977 . S
O17 Zn16 2.032 . S
O17 C21 1.278 . S
C18 O19 1.203 . S
C18 O25 1.267 . S
O19 C18 1.203 . S
O20 C13 1.185 . S
O20 Zn16 2.086 . S
C21 O17 1.278 . S
C21 O22 1.211 . S
O22 C21 1.211 . S
C23 O15 1.284 . S
C23 O24 1.273 . S
O24 C23 1.273 . S
O25 Zn16 1.977 . S
O25 C18 1.267 . S
C26 O27 1.160 . S
C26 O33 1.185 . S
O27 C26 1.160 . S
O28 Zn29 1.899 . S
O28 C36 1.284 . S
Zn29 O28 1.899 . S
Zn29 O30 2.032 . S
Zn29 O33 2.086 . S
Zn29 O38 1.977 . S
O30 Zn29 2.032 . S
O30 C34 1.278 . S
C31 O32 1.203 . S
C31 O38 1.267 . S
O32 C31 1.203 . S
O33 C26 1.185 . S
O33 Zn29 2.086 . S
C34 O30 1.278 . S
C34 O35 1.211 . S
O35 C34 1.211 . S
C36 O28 1.284 . S
C36 O37 1.273 . S
O37 C36 1.273 . S
O38 Zn29 1.977 . S
O38 C31 1.267 . S
C39 O40 1.160 . S
C39 O46 1.185 . S
O40 C39 1.160 . S
O41 Zn42 1.899 . S
O41 C49 1.284 . S
Zn42 O41 1.899 . S
Zn42 O43 2.032 . S
Zn42 O46 2.086 . S
Zn42 O51 1.977 . S
O43 Zn42 2.032 . S
O43 C47 1.278 . S
C44 O45 1.203 . S
C44 O51 1.267 . S
O45 C44 1.203 . S
O46 C39 1.185 . S
O46 Zn42 2.086 . S
C47 O43 1.278 . S
C47 O48 1.211 . S
O48 C47 1.211 . S
C49 O41 1.284 . S
C49 O50 1.273 . S
O50 C49 1.273 . S
O51 Zn42 1.977 . S
O51 C44 1.267 . S
C52 C53 1.369 . S
C52 C54 1.419 . S
C52 H56 0.930 . S
C53 C52 1.369 . S
C53 C62 1.429 1_565 S
C54 C52 1.419 . S
C54 C55 1.363 1_565 S
C54 H57 0.929 . S
C55 C54 1.363 1_545 S
C55 C61 1.428 . S
H56 C52 0.930 . S
H57 C54 0.929 . S
S58 N59 1.613 . S
S58 N60 1.610 . S
N59 S58 1.613 . S
N59 C62 1.350 . S
N60 S58 1.610 . S
N60 C61 1.351 . S
C61 C55 1.428 . S
C61 N60 1.351 . S
C61 C62 1.434 . S
C62 C53 1.429 1_545 S
C62 N59 1.350 . S
C62 C61 1.434 . S
C63 C64 1.369 . S
C63 C65 1.419 . S
C63 H67 0.930 . S
C64 C63 1.369 . S
C64 C73 1.429 . S
C65 C63 1.419 . S
C65 C66 1.363 . S
C65 H68 0.929 . S
C66 C65 1.363 . S
C66 C72 1.428 . S
H67 C63 0.930 . S
H68 C65 0.929 . S
S69 N70 1.613 . S
S69 N71 1.610 . S
N70 S69 1.613 . S
N70 C73 1.350 . S
N71 S69 1.610 . S
N71 C72 1.351 . S
C72 C66 1.428 . S
C72 N71 1.351 . S
C72 C73 1.434 . S
C73 C64 1.429 . S
C73 N70 1.350 . S
C73 C72 1.434 . S
C74 C75 1.369 . S
C74 C76 1.419 . S
C74 H78 0.930 . S
C75 C74 1.369 . S
C75 C84 1.429 1_545 S
C76 C74 1.419 . S
C76 C77 1.363 1_545 S
C76 H79 0.929 . S
C77 C76 1.363 1_565 S
C77 C83 1.428 . S
H78 C74 0.930 . S
H79 C76 0.929 . S
S80 N81 1.613 . S
S80 N82 1.610 . S
N81 S80 1.613 . S
N81 C84 1.350 . S
N82 S80 1.610 . S
N82 C83 1.351 . S
C83 C77 1.428 . S
C83 N82 1.351 . S
C83 C84 1.434 . S
C84 C75 1.429 1_565 S
C84 N81 1.350 . S
C84 C83 1.434 . S
C85 C86 1.369 . S
C85 C87 1.419 . S
C85 H89 0.930 . S
C86 C85 1.369 . S
C86 C95 1.429 . S
C87 C85 1.419 . S
C87 C88 1.363 . S
C87 H90 0.929 . S
C88 C87 1.363 . S
C88 C94 1.428 . S
H89 C85 0.930 . S
H90 C87 0.929 . S
S91 N92 1.613 . S
S91 N93 1.610 . S
N92 S91 1.613 . S
N92 C95 1.350 . S
N93 S91 1.610 . S
N93 C94 1.351 . S
C94 C88 1.428 . S
C94 N93 1.351 . S
C94 C95 1.434 . S
C95 C86 1.429 . S
C95 N92 1.350 . S
C95 C94 1.434 . S
C96 C97 1.369 1_556 S
C96 C98 1.419 1_545 S
C96 H100 0.930 . S
C97 C96 1.369 1_554 S
C97 C106 1.429 1_455 S
C98 C96 1.419 1_565 S
C98 C99 1.363 1_455 S
C98 H101 0.929 . S
C99 C98 1.363 1_655 S
C99 C105 1.428 1_556 S
H100 C96 0.930 . S
H101 C98 0.929 . S
S102 N103 1.613 1_565 S
S102 N104 1.610 . S
N103 S102 1.613 1_545 S
N103 C106 1.350 . S
N104 S102 1.610 . S
N104 C105 1.351 . S
C105 C99 1.428 1_554 S
C105 N104 1.351 . S
C105 C106 1.434 1_565 S
C106 C97 1.429 1_655 S
C106 N103 1.350 . S
C106 C105 1.434 1_545 S
C107 C108 1.369 1_554 S
C107 C109 1.419 1_545 S
C107 H111 0.930 . S
C108 C107 1.369 1_556 S
C108 C117 1.429 . S
C109 C107 1.419 1_565 S
C109 C110 1.363 . S
C109 H112 0.929 . S
C110 C109 1.363 . S
C110 C116 1.428 1_554 S
H111 C107 0.930 . S
H112 C109 0.929 . S
S113 N114 1.607 1_565 S
S113 N115 1.610 . S
N114 S113 1.607 1_545 S
N114 C117 1.350 . S
N115 S113 1.610 . S
N115 C116 1.351 . S
C116 C110 1.428 1_556 S
C116 N115 1.351 . S
C116 C117 1.434 1_565 S
C117 C108 1.429 . S
C117 N114 1.350 . S
C117 C116 1.434 1_545 S
C118 C119 1.369 . S
C118 C120 1.419 1_655 S
C118 H122 0.930 . S
C119 C118 1.369 . S
C119 C128 1.429 . S
C120 C118 1.419 1_455 S
C120 C121 1.363 . S
C120 H123 0.929 . S
C121 C120 1.363 . S
C121 C127 1.428 . S
H122 C118 0.930 . S
H123 C120 0.929 . S
S124 N125 1.613 . S
S124 N126 1.610 1_655 S
N125 S124 1.613 . S
N125 C128 1.350 . S
N126 S124 1.610 1_455 S
N126 C127 1.351 . S
C127 C121 1.428 . S
C127 N126 1.351 . S
C127 C128 1.434 1_455 S
C128 C119 1.429 . S
C128 N125 1.350 . S
C128 C127 1.434 1_655 S
C129 C130 1.369 . S
C129 C131 1.419 . S
C129 H133 0.930 . S
C130 C129 1.369 . S
C130 C139 1.429 . S
C131 C129 1.419 . S
C131 C132 1.363 . S
C131 H134 0.929 . S
C132 C131 1.363 . S
C132 C138 1.428 . S
H133 C129 0.930 . S
H134 C131 0.929 . S
S135 N136 1.613 . S
S135 N137 1.610 . S
N136 S135 1.613 . S
N136 C139 1.350 . S
N137 S135 1.610 . S
N137 C138 1.351 . S
C138 C132 1.428 . S
C138 N137 1.351 . S
C138 C139 1.434 . S
C139 C130 1.429 . S
C139 N136 1.350 . S
C139 C138 1.434 . S
C53 C18 1.117 . S
C55 C5 1.108 . S
C64 C8 0.924 . S
C66 C21 0.923 . S
C75 C44 1.119 . S
C77 C31 1.113 . S
C86 C34 0.918 . S
C88 C47 0.935 . S
C97 C10 1.641 . S
C99 C36 1.643 . S
C108 C49 1.641 . S
C110 C23 1.643 . S
C119 C26 1.593 . S
C121 C0 1.584 . S
C130 C13 1.587 . S
C132 C39 1.588 . S
