# Generated by pormake.
# Topology qtz-x, (6)-cn, num edge types: 1
# Building blocks:
#     Node 0, Type 0, BuildingBlock: MIFKUJ_clean_sbu_0, # of connection points: 6
#     Node 1, Type 0, BuildingBlock: MIFKUJ_clean_sbu_0, # of connection points: 6
#     Node 2, Type 0, BuildingBlock: MIFKUJ_clean_sbu_0, # of connection points: 6
#     Edge 3, Type (0, 0), BuildingBlock: XIVTED_clean_linker_0, # of connection points: 2
#     Edge 4, Type (0, 0), BuildingBlock: XIVTED_clean_linker_0, # of connection points: 2
#     Edge 5, Type (0, 0), BuildingBlock: XIVTED_clean_linker_0, # of connection points: 2
#     Edge 6, Type (0, 0), BuildingBlock: XIVTED_clean_linker_0, # of connection points: 2
#     Edge 7, Type (0, 0), BuildingBlock: XIVTED_clean_linker_0, # of connection points: 2
#     Edge 8, Type (0, 0), BuildingBlock: XIVTED_clean_linker_0, # of connection points: 2
#     Edge 9, Type (0, 0), BuildingBlock: XIVTED_clean_linker_0, # of connection points: 2
#     Edge 10, Type (0, 0), BuildingBlock: XIVTED_clean_linker_0, # of connection points: 2
#     Edge 11, Type (0, 0), BuildingBlock: XIVTED_clean_linker_0, # of connection points: 2
# Relax obj value: 0.172
# Max RMSD: 0.240
# Mean RMSD: 0.239
data_MOF--net-qtz-x--node1-MIFKUJ_clean_sbu_0--edge1-XIVTED_clean_linker_0
_symmetry_space_group_name_H-M    P1
_symmetry_Int_Tables_number       1
_symmetry_cell_setting            triclinic
loop_
_symmetry_equiv_pos_as_xyz
'x, y, z'
_cell_length_a     14.767272
_cell_length_b     14.834907
_cell_length_c     45.406469
_cell_angle_alpha  94.266855
_cell_angle_beta   89.841206
_cell_angle_gamma 119.81538
loop_
_atom_site_label
_atom_site_type_symbol
_atom_site_fract_x
_atom_site_fract_y
_atom_site_fract_z
_atom_type_partial_charge
Zn0 Zn 0.09336 0.48885 0.20526 0.0
Zn1 Zn 0.93558 0.40605 0.15454 0.0
C2 C 0.95332 0.48061 0.24969 0.0
O3 O 0.02114 0.581 0.25268 0.0
C4 C 0.0443 0.39567 0.10593 0.0
O5 O -0.03527 0.30044 0.10608 0.0
O6 O 0.20372 0.54485 0.23811 0.0
O7 O 0.1016 0.37313 0.18169 0.0
O8 O 0.93118 0.28519 0.17378 0.0
C9 C 0.18778 0.48322 0.25805 0.0
O10 O 0.11274 0.38565 0.25358 0.0
O11 O -0.03819 0.42475 0.22842 0.0
C12 C 0.82678 0.42503 0.10874 0.0
O13 O 0.90455 0.52001 0.11551 0.0
O14 O 0.81431 0.35337 0.12486 0.0
O15 O 0.93479 0.52509 0.17891 0.0
O16 O 0.10507 0.61113 0.18534 0.0
O17 O 0.05801 0.46162 0.1275 0.0
C18 C 0.01719 0.28633 0.1775 0.0
C19 C 0.01983 0.61139 0.18208 0.0
Zn20 Zn 0.45576 0.96301 0.5416 0.0
Zn21 Zn 0.52937 0.08419 0.48586 0.0
C22 C 0.56537 0.11601 0.58895 0.0
O23 O 0.60246 0.05334 0.59283 0.0
C24 C 0.38675 0.9064 0.44774 0.0
O25 O 0.33891 0.9608 0.44685 0.0
O26 O 0.39354 0.86297 0.57325 0.0
O27 O 0.33485 0.9419 0.51619 0.0
O28 O 0.41574 0.10412 0.50455 0.0
C29 C 0.33561 0.88101 0.59067 0.0
O30 O 0.31293 0.95326 0.58497 0.0
O31 O 0.51132 0.10115 0.56547 0.0
C32 C 0.64036 0.15098 0.43485 0.0
O33 O 0.65787 0.07623 0.4416 0.0
O34 O 0.58739 0.17651 0.45216 0.0
O35 O 0.65286 0.11071 0.51118 0.0
O36 O 0.57432 0.94979 0.52395 0.0
O37 O 0.46731 0.93998 0.46469 0.0
C38 C 0.33219 0.02335 0.51077 0.0
C39 C 0.65745 0.03168 0.51814 0.0
Zn40 Zn 0.43858 0.41639 0.867 0.0
Zn41 Zn 0.35094 0.48886 0.82079 0.0
C42 C 0.4226 0.53125 0.91843 0.0
O43 O 0.52355 0.5661 0.92067 0.0
C44 C 0.35174 0.36662 0.77119 0.0
O45 O 0.25385 0.34456 0.77149 0.0
O46 O 0.50738 0.36708 0.89465 0.0
O47 O 0.32188 0.2909 0.84395 0.0
O48 O 0.23412 0.37411 0.84154 0.0
C49 C 0.45446 0.3086 0.91454 0.0
O50 O 0.35263 0.26912 0.91381 0.0
O51 O 0.3713 0.47396 0.89544 0.0
C52 C 0.31388 0.63462 0.78893 0.0
O53 O 0.38015 0.70838 0.80829 0.0
O54 O 0.28673 0.54025 0.79206 0.0
O55 O 0.46741 0.61458 0.84396 0.0
O56 O 0.55525 0.53198 0.84651 0.0
O57 O 0.41371 0.42488 0.79254 0.0
C58 C 0.23495 0.28912 0.84269 0.0
C59 C 0.55438 0.61686 0.84551 0.0
H60 H 0.85118 0.63746 0.17368 0.0
H61 H 0.18666 0.26121 0.18605 0.0
H62 H 0.18577 0.8114 0.18927 0.0
H63 H 0.85251 0.08612 0.16954 0.0
H64 H 0.18812 0.09766 0.18723 0.0
H65 H 0.85043 0.80113 0.17227 0.0
C66 C 0.92458 0.71009 0.17688 0.0
C67 C 0.01874 0.71056 0.18164 0.0
C68 C 0.11448 0.09496 0.18331 0.0
C69 C 0.01836 0.89874 0.17995 0.0
C70 C 0.11353 0.1884 0.1826 0.0
C71 C 0.01924 0.18755 0.17769 0.0
C72 C 0.02046 -0.00032 0.1791 0.0
C73 C 0.92702 0.09068 0.17342 0.0
C74 C 0.92406 0.80364 0.17602 0.0
C75 C 0.11135 0.80722 0.18554 0.0
N76 N 0.92997 0.00075 0.17425 0.0
N77 N 0.10881 0.89738 0.18461 0.0
H78 H 0.14153 0.86659 0.52532 0.0
H79 H 0.84814 0.18963 0.50375 0.0
H80 H 0.29517 0.18083 0.49867 0.0
H81 H 0.69679 0.87739 0.53187 0.0
H82 H 0.0128 0.18845 0.50201 0.0
H83 H -0.0221 0.86931 0.52773 0.0
C84 C 0.14087 0.93614 0.51988 0.0
C85 C 0.23227 0.02361 0.51172 0.0
C86 C 0.94363 0.12029 0.50862 0.0
C87 C 0.04494 0.02731 0.51456 0.0
C88 C 0.84954 0.12094 0.50968 0.0
C89 C 0.7584 0.03342 0.51797 0.0
C90 C 0.94674 0.03146 0.51588 0.0
C91 C 0.765 0.94657 0.52533 0.0
C92 C 0.04733 0.93768 0.52133 0.0
C93 C 0.22664 0.11161 0.50505 0.0
N94 N 0.85749 0.94777 0.52406 0.0
N95 N 0.13453 0.11119 0.50661 0.0
H96 H 0.58201 0.81286 0.84216 0.0
H97 H 0.20716 0.09348 0.84678 0.0
H98 H 0.75371 0.64928 0.84886 0.0
H99 H 0.03566 0.257 0.83947 0.0
H100 H 0.0418 0.93007 0.84774 0.0
H101 H 0.74733 -0.0235 0.84147 0.0
C102 C 0.6544 0.81126 0.84351 0.0
C103 C 0.65383 0.717 0.84552 0.0
C104 C 0.04031 0.00168 0.84591 0.0
C105 C 0.84363 0.90433 0.84474 0.0
C106 C 0.13478 0.09509 0.84533 0.0
C107 C 0.13543 0.18923 0.84302 0.0
C108 C 0.94557 0.0022 0.84417 0.0
C109 C 0.03907 0.1864 0.84128 0.0
C110 C 0.74886 0.90482 0.84311 0.0
C111 C 0.75023 0.71994 0.84724 0.0
N112 N 0.94816 0.09448 0.8419 0.0
N113 N 0.8411 0.81197 0.84679 0.0
H114 H 0.21133 0.43851 0.92422 0.0
H115 H 0.23534 0.57036 0.09903 0.0
H116 H 0.50418 0.63202 0.97323 0.0
H117 H -0.01222 0.29573 0.05098 0.0
H118 H 0.32792 0.62129 0.05261 0.0
H119 H 0.11955 0.41793 0.97012 0.0
C120 C 0.25637 0.47829 0.94453 0.0
C121 C 0.36585 0.53594 0.9449 0.0
C122 C 0.25326 0.55004 0.05241 0.0
C123 C 0.26093 0.51173 0.99762 0.0
C124 C 0.20069 0.5209 0.0788 0.0
C125 C 0.10444 0.42807 0.07891 0.0
C126 C 0.20778 0.48693 0.02602 0.0
C127 C 0.06246 0.36715 0.05207 0.0
C128 C 0.20387 0.46584 0.97077 0.0
C129 C 0.41976 0.58606 0.97196 0.0
N130 N 0.11411 0.39785 0.02677 0.0
N131 N 0.36679 0.57204 0.99735 0.0
H132 H 0.70028 0.07387 0.38731 0.0
H133 H 0.91177 0.57457 0.29797 0.0
H134 H 0.66073 0.33437 0.41775 0.0
H135 H 0.84334 0.27276 0.25817 0.0
H136 H 0.82416 0.49272 0.34237 0.0
H137 H 0.76045 0.15069 0.34061 0.0
C138 C 0.70448 0.14754 0.38419 0.0
C139 C 0.67611 0.19822 0.40655 0.0
C140 C 0.82701 0.44438 0.32372 0.0
C141 C 0.7451 0.28675 0.35293 0.0
C142 C 0.87682 0.49091 0.29835 0.0
C143 C 0.88535 0.43051 0.27434 0.0
C144 C 0.7869 0.33702 0.32522 0.0
C145 C 0.83873 0.3225 0.2761 0.0
C146 C 0.73812 0.19096 0.3574 0.0
C147 C 0.68207 0.29291 0.40109 0.0
N148 N 0.79282 0.27951 0.30125 0.0
N149 N 0.71696 0.3348 0.37488 0.0
H150 H 0.2336 0.50817 0.73779 0.0
H151 H 0.28918 0.95912 0.64101 0.0
H152 H 0.34003 0.82282 0.77495 0.0
H153 H 0.3242 0.70025 0.60577 0.0
H154 H 0.26314 0.89235 0.68984 0.0
H155 H 0.2202 0.5607 0.68903 0.0
C156 C 0.25226 0.58788 0.73585 0.0
C157 C 0.28893 0.66161 0.76051 0.0
C158 C 0.27532 0.84967 0.67132 0.0
C159 C 0.27359 0.72167 0.70469 0.0
C160 C 0.28956 0.8872 0.64343 0.0
C161 C 0.30901 0.83501 0.61933 0.0
C162 C 0.27888 0.75848 0.67502 0.0
C163 C 0.30989 0.74296 0.62381 0.0
C164 C 0.24521 0.61777 0.70794 0.0
C165 C 0.31221 0.76374 0.75652 0.0
N166 N 0.29503 0.70751 0.65116 0.0
N167 N 0.30457 0.79097 0.72908 0.0
H168 H 0.36892 0.19329 0.96204 0.0
H169 H 0.87381 0.55046 0.06393 0.0
H170 H 0.66342 0.41944 0.92882 0.0
H171 H 0.64632 0.24521 0.08857 0.0
H172 H 0.78443 0.50989 0.01589 0.0
H173 H 0.45818 0.21304 1.00963 0.0
C174 C 0.45245 0.24574 0.96456 0.0
C175 C 0.50866 0.30537 0.94145 0.0
C176 C 0.75399 0.45154 0.03174 0.0
C177 C 0.61 0.32955 0.99581 0.0
C178 C 0.80444 0.47493 0.05934 0.0
C179 C 0.76736 0.40111 0.08038 0.0
C180 C 0.6646 0.35406 0.02506 0.0
C181 C 0.67739 0.3043 0.07297 0.0
C182 C 0.50308 0.25695 0.99171 0.0
C183 C 0.6167 0.37209 0.94597 0.0
N184 N 0.62839 0.28362 0.04588 0.0
N185 N 0.66343 0.38342 0.97272 0.0
H186 H 0.37604 0.6556 0.27493 0.0
H187 H 0.19319 0.7589 0.42615 0.0
H188 H 0.09593 0.4117 0.30969 0.0
H189 H 0.52047 0.86321 0.41655 0.0
H190 H 0.15232 0.63657 0.38218 0.0
H191 H 0.43158 0.74134 0.32521 0.0
C192 C 0.32743 0.61922 0.29321 0.0
C193 C 0.23156 0.52658 0.28825 0.0
C194 C 0.23287 0.6848 0.3901 0.0
C195 C 0.29272 0.62505 0.34522 0.0
C196 C 0.25607 0.75439 0.41507 0.0
C197 C 0.36007 0.82045 0.42491 0.0
C198 C 0.31459 0.68434 0.37436 0.0
C199 C 0.43916 0.81263 0.40973 0.0
C200 C 0.35913 0.66784 0.32179 0.0
C201 C 0.17089 0.48268 0.31261 0.0
N202 N 0.41501 0.74739 0.38472 0.0
N203 N 0.20138 0.53355 0.34 0.0
H204 H 0.25262 0.29262 0.71718 0.0
H205 H 0.66329 0.16057 0.64371 0.0
H206 H 0.53957 0.3713 0.76422 0.0
H207 H 0.44639 0.21026 0.59345 0.0
H208 H 0.61967 0.23096 0.68863 0.0
H209 H 0.31836 0.24888 0.67241 0.0
C210 C 0.32937 0.30009 0.71817 0.0
C211 C 0.39056 0.33529 0.74455 0.0
C212 C 0.58314 0.22796 0.66765 0.0
C213 C 0.46666 0.28565 0.69309 0.0
C214 C 0.60818 0.18819 0.64198 0.0
C215 C 0.55787 0.17871 0.61476 0.0
C216 C 0.50617 0.25681 0.66608 0.0
C217 C 0.48702 0.21567 0.61389 0.0
C218 C 0.36725 0.27602 0.69247 0.0
C219 C 0.48985 0.34429 0.74434 0.0
N220 N 0.46211 0.25147 0.63923 0.0
N221 N 0.52469 0.31883 0.71899 0.0
loop_
_geom_bond_atom_site_label_1
_geom_bond_atom_site_label_2
_geom_bond_distance
_geom_bond_site_symmetry_2
_ccdc_geom_bond_type
Zn0 O6 1.969 . S
Zn0 O7 1.965 . S
Zn0 O11 2.024 1_455 S
Zn0 O16 1.969 . S
Zn1 O8 1.969 . S
Zn1 O14 1.969 1_455 S
Zn1 O15 1.965 1_455 S
Zn1 O17 2.024 . S
C2 O3 1.229 . S
C2 O11 1.058 . S
O3 C2 1.229 . S
C4 O5 1.229 . S
C4 O17 1.058 . S
O5 C4 1.229 . S
O6 Zn0 1.969 . S
O6 C9 1.267 . S
O7 Zn0 1.965 . S
O7 C18 1.260 . S
O8 Zn1 1.969 . S
O8 C18 1.258 . S
C9 O6 1.267 . S
C9 O10 1.228 . S
O10 C9 1.228 . S
O11 Zn0 2.024 1_655 S
O11 C2 1.058 . S
C12 O13 1.228 . S
C12 O14 1.267 . S
O13 C12 1.228 . S
O14 Zn1 1.969 1_655 S
O14 C12 1.267 . S
O15 Zn1 1.965 1_655 S
O15 C19 1.260 1_655 S
O16 Zn0 1.969 . S
O16 C19 1.258 . S
O17 Zn1 2.024 . S
O17 C4 1.058 . S
C18 O7 1.260 . S
C18 O8 1.258 . S
C19 O15 1.260 1_455 S
C19 O16 1.258 . S
Zn20 O26 1.969 1_545 S
Zn20 O27 1.965 1_545 S
Zn20 O31 2.024 . S
Zn20 O36 1.969 . S
Zn21 O28 1.969 . S
Zn21 O34 1.969 . S
Zn21 O35 1.965 . S
Zn21 O37 2.024 1_545 S
C22 O23 1.229 . S
C22 O31 1.058 . S
O23 C22 1.229 . S
C24 O25 1.229 . S
C24 O37 1.058 . S
O25 C24 1.229 . S
O26 Zn20 1.969 1_565 S
O26 C29 1.267 . S
O27 Zn20 1.965 1_565 S
O27 C38 1.260 . S
O28 Zn21 1.969 . S
O28 C38 1.258 1_545 S
C29 O26 1.267 . S
C29 O30 1.228 . S
O30 C29 1.228 . S
O31 Zn20 2.024 . S
O31 C22 1.058 . S
C32 O33 1.228 . S
C32 O34 1.267 . S
O33 C32 1.228 . S
O34 Zn21 1.969 . S
O34 C32 1.267 . S
O35 Zn21 1.965 . S
O35 C39 1.260 . S
O36 Zn20 1.969 . S
O36 C39 1.258 . S
O37 Zn21 2.024 1_565 S
O37 C24 1.058 . S
C38 O27 1.260 . S
C38 O28 1.258 1_565 S
C39 O35 1.260 . S
C39 O36 1.258 . S
Zn40 O46 1.969 . S
Zn40 O47 1.965 . S
Zn40 O51 2.024 . S
Zn40 O56 1.969 . S
Zn41 O48 1.969 . S
Zn41 O54 1.969 . S
Zn41 O55 1.965 . S
Zn41 O57 2.024 . S
C42 O43 1.229 . S
C42 O51 1.058 . S
O43 C42 1.229 . S
C44 O45 1.229 . S
C44 O57 1.058 . S
O45 C44 1.229 . S
O46 Zn40 1.969 . S
O46 C49 1.267 . S
O47 Zn40 1.965 . S
O47 C58 1.260 . S
O48 Zn41 1.969 . S
O48 C58 1.258 . S
C49 O46 1.267 . S
C49 O50 1.228 . S
O50 C49 1.228 . S
O51 Zn40 2.024 . S
O51 C42 1.058 . S
C52 O53 1.228 . S
C52 O54 1.267 . S
O53 C52 1.228 . S
O54 Zn41 1.969 . S
O54 C52 1.267 . S
O55 Zn41 1.965 . S
O55 C59 1.260 . S
O56 Zn40 1.969 . S
O56 C59 1.258 . S
O57 Zn41 2.024 . S
O57 C44 1.058 . S
C58 O47 1.260 . S
C58 O48 1.258 . S
C59 O55 1.260 . S
C59 O56 1.258 . S
H60 C66 0.930 . S
H61 C70 0.930 . S
H62 C75 0.929 . S
H63 C73 0.929 1_655 S
H64 C68 0.929 . S
H65 C74 0.929 . S
C66 H60 0.930 . S
C66 C67 1.367 1_655 S
C66 C74 1.378 . S
C67 C66 1.367 1_455 S
C67 C75 1.433 . S
C68 H64 0.929 . S
C68 C70 1.378 . S
C68 C72 1.350 . S
C69 C72 1.463 1_565 S
C69 C74 1.350 1_455 S
C69 N77 1.427 . S
C70 H61 0.930 . S
C70 C68 1.378 . S
C70 C71 1.367 . S
C71 C70 1.367 . S
C71 C73 1.433 . S
C72 C68 1.350 . S
C72 C69 1.463 1_545 S
C72 N76 1.427 1_455 S
C73 H63 0.929 1_455 S
C73 C71 1.433 . S
C73 N76 1.384 1_455 S
C74 H65 0.929 . S
C74 C66 1.378 . S
C74 C69 1.350 1_655 S
C75 H62 0.929 . S
C75 C67 1.433 . S
C75 N77 1.384 . S
N76 C72 1.427 1_655 S
N76 C73 1.384 1_655 S
N77 C69 1.427 . S
N77 C75 1.384 . S
H78 C84 0.930 . S
H79 C88 0.930 . S
H80 C93 0.929 . S
H81 C91 0.929 . S
H82 C86 0.929 1_455 S
H83 C92 0.929 . S
C84 H78 0.930 . S
C84 C85 1.367 1_565 S
C84 C92 1.378 . S
C85 C84 1.367 1_545 S
C85 C93 1.433 . S
C86 H82 0.929 1_655 S
C86 C88 1.378 . S
C86 C90 1.350 . S
C87 C90 1.463 1_455 S
C87 C92 1.350 1_545 S
C87 N95 1.427 . S
C88 H79 0.930 . S
C88 C86 1.378 . S
C88 C89 1.367 . S
C89 C88 1.367 . S
C89 C91 1.433 1_545 S
C90 C86 1.350 . S
C90 C87 1.463 1_655 S
C90 N94 1.427 1_545 S
C91 H81 0.929 . S
C91 C89 1.433 1_565 S
C91 N94 1.384 . S
C92 H83 0.929 . S
C92 C84 1.378 . S
C92 C87 1.350 1_565 S
C93 H80 0.929 . S
C93 C85 1.433 . S
C93 N95 1.384 . S
N94 C90 1.427 1_565 S
N94 C91 1.384 . S
N95 C87 1.427 . S
N95 C93 1.384 . S
H96 C102 0.930 . S
H97 C106 0.930 . S
H98 C111 0.929 . S
H99 C109 0.929 . S
H100 C104 0.929 . S
H101 C110 0.929 . S
C102 H96 0.930 . S
C102 C103 1.367 . S
C102 C110 1.378 . S
C103 C102 1.367 . S
C103 C111 1.433 . S
C104 H100 0.929 . S
C104 C106 1.378 . S
C104 C108 1.350 . S
C105 C108 1.463 1_665 S
C105 C110 1.350 . S
C105 N113 1.427 . S
C106 H97 0.930 . S
C106 C104 1.378 . S
C106 C107 1.367 . S
C107 C106 1.367 . S
C107 C109 1.433 . S
C108 C104 1.350 . S
C108 C105 1.463 1_445 S
C108 N112 1.427 . S
C109 H99 0.929 . S
C109 C107 1.433 . S
C109 N112 1.384 . S
C110 H101 0.929 . S
C110 C102 1.378 . S
C110 C105 1.350 . S
C111 H98 0.929 . S
C111 C103 1.433 . S
C111 N113 1.384 . S
N112 C108 1.427 . S
N112 C109 1.384 . S
N113 C105 1.427 . S
N113 C111 1.384 . S
H114 C120 0.930 . S
H115 C124 0.930 . S
H116 C129 0.929 . S
H117 C127 0.929 . S
H118 C122 0.929 . S
H119 C128 0.929 . S
C120 H114 0.930 . S
C120 C121 1.367 . S
C120 C128 1.378 . S
C121 C120 1.367 . S
C121 C129 1.433 . S
C122 H118 0.929 . S
C122 C124 1.378 . S
C122 C126 1.350 . S
C123 C126 1.463 1_556 S
C123 C128 1.350 . S
C123 N131 1.427 . S
C124 H115 0.930 . S
C124 C122 1.378 . S
C124 C125 1.367 . S
C125 C124 1.367 . S
C125 C127 1.433 . S
C126 C122 1.350 . S
C126 C123 1.463 1_554 S
C126 N130 1.427 . S
C127 H117 0.929 . S
C127 C125 1.433 . S
C127 N130 1.384 . S
C128 H119 0.929 . S
C128 C120 1.378 . S
C128 C123 1.350 . S
C129 H116 0.929 . S
C129 C121 1.433 . S
C129 N131 1.384 . S
N130 C126 1.427 . S
N130 C127 1.384 . S
N131 C123 1.427 . S
N131 C129 1.384 . S
H132 C138 0.930 . S
H133 C142 0.930 . S
H134 C147 0.929 . S
H135 C145 0.929 . S
H136 C140 0.929 . S
H137 C146 0.929 . S
C138 H132 0.930 . S
C138 C139 1.367 . S
C138 C146 1.378 . S
C139 C138 1.367 . S
C139 C147 1.433 . S
C140 H136 0.929 . S
C140 C142 1.378 . S
C140 C144 1.350 . S
C141 C144 1.463 . S
C141 C146 1.350 . S
C141 N149 1.427 . S
C142 H133 0.930 . S
C142 C140 1.378 . S
C142 C143 1.367 . S
C143 C142 1.367 . S
C143 C145 1.433 . S
C144 C140 1.350 . S
C144 C141 1.463 . S
C144 N148 1.427 . S
C145 H135 0.929 . S
C145 C143 1.433 . S
C145 N148 1.384 . S
C146 H137 0.929 . S
C146 C138 1.378 . S
C146 C141 1.350 . S
C147 H134 0.929 . S
C147 C139 1.433 . S
C147 N149 1.384 . S
N148 C144 1.427 . S
N148 C145 1.384 . S
N149 C141 1.427 . S
N149 C147 1.384 . S
H150 C156 0.930 . S
H151 C160 0.930 . S
H152 C165 0.929 . S
H153 C163 0.929 . S
H154 C158 0.929 . S
H155 C164 0.929 . S
C156 H150 0.930 . S
C156 C157 1.367 . S
C156 C164 1.378 . S
C157 C156 1.367 . S
C157 C165 1.433 . S
C158 H154 0.929 . S
C158 C160 1.378 . S
C158 C162 1.350 . S
C159 C162 1.463 . S
C159 C164 1.350 . S
C159 N167 1.427 . S
C160 H151 0.930 . S
C160 C158 1.378 . S
C160 C161 1.367 . S
C161 C160 1.367 . S
C161 C163 1.433 . S
C162 C158 1.350 . S
C162 C159 1.463 . S
C162 N166 1.427 . S
C163 H153 0.929 . S
C163 C161 1.433 . S
C163 N166 1.384 . S
C164 H155 0.929 . S
C164 C156 1.378 . S
C164 C159 1.350 . S
C165 H152 0.929 . S
C165 C157 1.433 . S
C165 N167 1.384 . S
N166 C162 1.427 . S
N166 C163 1.384 . S
N167 C159 1.427 . S
N167 C165 1.384 . S
H168 C174 0.930 . S
H169 C178 0.930 . S
H170 C183 0.929 . S
H171 C181 0.929 . S
H172 C176 0.929 . S
H173 C182 0.929 . S
C174 H168 0.930 . S
C174 C175 1.367 . S
C174 C182 1.378 . S
C175 C174 1.367 . S
C175 C183 1.433 . S
C176 H172 0.929 . S
C176 C178 1.378 . S
C176 C180 1.350 . S
C177 C180 1.463 1_556 S
C177 C182 1.350 . S
C177 N185 1.427 . S
C178 H169 0.930 . S
C178 C176 1.378 . S
C178 C179 1.367 . S
C179 C178 1.367 . S
C179 C181 1.433 . S
C180 C176 1.350 . S
C180 C177 1.463 1_554 S
C180 N184 1.427 . S
C181 H171 0.929 . S
C181 C179 1.433 . S
C181 N184 1.384 . S
C182 H173 0.929 . S
C182 C174 1.378 . S
C182 C177 1.350 . S
C183 H170 0.929 . S
C183 C175 1.433 . S
C183 N185 1.384 . S
N184 C180 1.427 . S
N184 C181 1.384 . S
N185 C177 1.427 . S
N185 C183 1.384 . S
H186 C192 0.930 . S
H187 C196 0.930 . S
H188 C201 0.929 . S
H189 C199 0.929 . S
H190 C194 0.929 . S
H191 C200 0.929 . S
C192 H186 0.930 . S
C192 C193 1.367 . S
C192 C200 1.378 . S
C193 C192 1.367 . S
C193 C201 1.433 . S
C194 H190 0.929 . S
C194 C196 1.378 . S
C194 C198 1.350 . S
C195 C198 1.463 . S
C195 C200 1.350 . S
C195 N203 1.427 . S
C196 H187 0.930 . S
C196 C194 1.378 . S
C196 C197 1.367 . S
C197 C196 1.367 . S
C197 C199 1.433 . S
C198 C194 1.350 . S
C198 C195 1.463 . S
C198 N202 1.427 . S
C199 H189 0.929 . S
C199 C197 1.433 . S
C199 N202 1.384 . S
C200 H191 0.929 . S
C200 C192 1.378 . S
C200 C195 1.350 . S
C201 H188 0.929 . S
C201 C193 1.433 . S
C201 N203 1.384 . S
N202 C198 1.427 . S
N202 C199 1.384 . S
N203 C195 1.427 . S
N203 C201 1.384 . S
H204 C210 0.930 . S
H205 C214 0.930 . S
H206 C219 0.929 . S
H207 C217 0.929 . S
H208 C212 0.929 . S
H209 C218 0.929 . S
C210 H204 0.930 . S
C210 C211 1.367 . S
C210 C218 1.378 . S
C211 C210 1.367 . S
C211 C219 1.433 . S
C212 H208 0.929 . S
C212 C214 1.378 . S
C212 C216 1.350 . S
C213 C216 1.463 . S
C213 C218 1.350 . S
C213 N221 1.427 . S
C214 H205 0.930 . S
C214 C212 1.378 . S
C214 C215 1.367 . S
C215 C214 1.367 . S
C215 C217 1.433 . S
C216 C212 1.350 . S
C216 C213 1.463 . S
C216 N220 1.427 . S
C217 H207 0.929 . S
C217 C215 1.433 . S
C217 N220 1.384 . S
C218 H209 0.929 . S
C218 C210 1.378 . S
C218 C213 1.350 . S
C219 H206 0.929 . S
C219 C211 1.433 . S
C219 N221 1.384 . S
N220 C216 1.427 . S
N220 C217 1.384 . S
N221 C213 1.427 . S
N221 C219 1.384 . S
C67 C19 1.502 . S
C71 C18 1.502 . S
C85 C38 1.495 1_545 S
C89 C39 1.495 . S
C103 C59 1.506 . S
C107 C58 1.506 . S
C121 C42 1.093 . S
C125 C4 1.139 . S
C139 C32 1.258 . S
C143 C2 1.199 . S
C157 C52 1.095 . S
C161 C29 1.093 . S
C175 C49 1.109 . S
C179 C12 1.093 . S
C193 C9 1.015 . S
C197 C24 0.997 . S
C211 C44 1.141 . S
C215 C22 1.117 . S
