# Generated by pormake.
# Topology sma, (6)-cn, num edge types: 1
# Building blocks:
#     Node 0, Type 0, BuildingBlock: GEDQOX_clean_sbu_0, # of connection points: 6
#     Node 1, Type 0, BuildingBlock: GEDQOX_clean_sbu_0, # of connection points: 6
#     Node 2, Type 0, BuildingBlock: GEDQOX_clean_sbu_0, # of connection points: 6
#     Edge 3, Type (0, 0), BuildingBlock: AJUNOK_clean_linker_0, # of connection points: 2
#     Edge 4, Type (0, 0), BuildingBlock: AJUNOK_clean_linker_0, # of connection points: 2
#     Edge 5, Type (0, 0), BuildingBlock: AJUNOK_clean_linker_0, # of connection points: 2
#     Edge 6, Type (0, 0), BuildingBlock: AJUNOK_clean_linker_0, # of connection points: 2
#     Edge 7, Type (0, 0), BuildingBlock: AJUNOK_clean_linker_0, # of connection points: 2
#     Edge 8, Type (0, 0), BuildingBlock: AJUNOK_clean_linker_0, # of connection points: 2
#     Edge 9, Type (0, 0), BuildingBlock: AJUNOK_clean_linker_0, # of connection points: 2
#     Edge 10, Type (0, 0), BuildingBlock: AJUNOK_clean_linker_0, # of connection points: 2
#     Edge 11, Type (0, 0), BuildingBlock: AJUNOK_clean_linker_0, # of connection points: 2
# Relax obj value: 0.150
# Max RMSD: 0.282
# Mean RMSD: 0.208
data_MOF--net-sma--node1-GEDQOX_clean_sbu_0--edge1-AJUNOK_clean_linker_0
_symmetry_space_group_name_H-M    P1
_symmetry_Int_Tables_number       1
_symmetry_cell_setting            triclinic
loop_
_symmetry_equiv_pos_as_xyz
'x, y, z'
_cell_length_a     32.930999
_cell_length_b     22.883011
_cell_length_c     10.447058
_cell_angle_alpha  96.43268
_cell_angle_beta   89.808568
_cell_angle_gamma 92.236612
loop_
_atom_site_label
_atom_site_type_symbol
_atom_site_fract_x
_atom_site_fract_y
_atom_site_fract_z
_atom_type_partial_charge
Nd0 Nd 0.07156 0.66032 0.01452 0.0
Nd1 Nd 0.04812 0.52931 0.01402 0.0
C2 C 0.08924 0.77329 0.0064 0.0
C3 C 0.12499 0.80985 0.05619 0.0
C4 C 0.16406 0.78704 0.04782 0.0
C5 C 0.19733 0.81945 0.10553 0.0
C6 C 0.19227 0.87528 0.1734 0.0
C7 C 0.15318 0.89808 0.18192 0.0
C8 C 0.11985 0.86569 0.1235 0.0
C9 C 0.07161 0.619 0.2498 0.0
C10 C 0.14584 0.571 -0.01129 0.0
C11 C 1.03064 0.42136 0.0716 0.0
C12 C 0.99452 0.39081 0.12079 0.0
C13 C 0.96293 0.42273 0.18178 0.0
C14 C 0.92832 0.39333 0.22531 0.0
C15 C 0.92462 0.33146 0.20835 0.0
C16 C 0.95612 0.29976 0.14563 0.0
C17 C 0.99079 0.32919 0.10255 0.0
C18 C 0.04967 0.56772 0.77546 0.0
C19 C 0.97576 0.61784 -0.00353 0.0
O20 O 0.0955 0.73328 0.9092 0.0
O21 O 0.06566 0.75367 0.09437 0.0
O22 O 0.09954 0.65452 0.21219 0.0
O23 O 0.04482 0.60656 0.16459 0.0
O24 O 0.13449 0.62482 -0.02237 0.0
O25 O 0.11919 0.52803 0.01074 0.0
O26 O 0.04888 0.4622 0.15166 0.0
O27 O 1.02726 0.43688 -0.04447 0.0
O28 O 1.02337 0.52826 0.80817 0.0
O29 O 0.07484 0.58255 0.86449 0.0
O30 O 0.98619 0.57015 0.04665 0.0
O31 O 1.0037 0.65507 -0.04246 0.0
H32 H 0.16883 0.74355 -0.00101 0.0
H33 H 0.22689 0.80017 0.09973 0.0
H34 H 0.14841 0.94094 0.23391 0.0
H35 H 0.08992 0.88375 0.13294 0.0
H36 H 0.96492 0.4704 0.19508 0.0
H37 H 0.90423 0.41902 0.27091 0.0
H38 H 0.95414 0.25211 0.13128 0.0
H39 H 1.01466 0.3038 0.05467 0.0
Nd40 Nd 0.51433 0.09017 0.58285 0.0
Nd41 Nd 0.60741 0.09542 0.57583 0.0
C42 C 0.43476 0.09713 0.61496 0.0
C43 C 0.39907 1.06259 0.5598 0.0
C44 C 0.36031 0.08578 0.57291 0.0
C45 C 0.32669 1.05503 0.5126 0.0
C46 C 0.33138 1.00073 0.43744 0.0
C47 C 0.37019 0.97695 0.42754 0.0
C48 C 0.40376 1.00773 0.48767 0.0
C49 C 0.54685 1.07008 0.3411 0.0
C50 C 0.55798 0.9668 0.58925 0.0
C51 C 0.6868 0.09302 0.53082 0.0
C52 C 0.71998 0.12969 0.481 0.0
C53 C 0.71515 0.15892 0.37087 0.0
C54 C 0.74744 0.19301 0.32618 0.0
C55 C 0.78481 0.19935 0.39216 0.0
C56 C 0.7894 0.17022 0.50243 0.0
C57 C 0.75736 0.13573 0.54613 0.0
C58 C 0.5745 0.11332 0.81751 0.0
C59 C 0.56302 0.21688 0.5971 0.0
O60 O 0.45803 1.07101 0.69051 0.0
O61 O 0.45554 0.12628 0.53439 0.0
O62 O 0.51425 1.04326 0.37806 0.0
O63 O 0.56001 0.10837 0.42869 0.0
O64 O 0.52392 0.99478 0.60889 0.0
O65 O 0.59296 0.99465 0.56668 0.0
O66 O 0.65933 1.06879 0.44946 0.0
O67 O 0.67129 0.11281 0.64169 0.0
O68 O 0.60704 0.14088 0.78229 0.0
O69 O 0.56178 1.07608 0.72794 0.0
O70 O 0.59387 0.18929 0.54089 0.0
O71 O 0.53196 0.18752 0.64309 0.0
H72 H 0.35617 0.12818 0.6278 0.0
H73 H 0.2972 1.07443 0.52191 0.0
H74 H 0.37463 0.93463 0.37275 0.0
H75 H 0.43349 0.98913 0.47638 0.0
H76 H 0.68647 0.15564 0.31971 0.0
H77 H 0.74306 0.21507 0.24106 0.0
H78 H 0.81802 0.17352 0.55405 0.0
H79 H 0.76181 0.11359 0.63115 0.0
Nd80 Nd 0.50652 0.59148 0.68553 0.0
Nd81 Nd 0.59993 0.6004 0.71661 0.0
C82 C 0.42838 0.57036 0.62736 0.0
C83 C 0.38952 0.55925 0.69321 0.0
C84 C 0.35563 0.53621 0.62073 0.0
C85 C 0.31759 0.53028 0.67947 0.0
C86 C 0.31271 0.54728 0.81215 0.0
C87 C 0.34707 0.56886 0.88516 0.0
C88 C 0.38514 0.57461 0.82637 0.0
C89 C 0.53295 0.60374 0.93572 0.0
C90 C 0.55141 0.72069 0.68619 0.0
C91 C 0.67631 0.61705 0.79035 0.0
C92 C 0.71964 0.62628 0.82729 0.0
C93 C 0.73152 0.63369 -0.04263 0.0
C94 C 0.77282 0.63807 -0.00921 0.0
C95 C 0.80294 0.63579 0.89476 0.0
C96 C 0.79094 0.62939 0.76489 0.0
C97 C 0.74979 0.62464 0.73155 0.0
C98 C 0.57251 0.58382 0.46663 0.0
C99 C 0.55884 0.47182 0.66544 0.0
O100 O 0.44514 0.62307 0.65219 0.0
O101 O 0.45493 0.52919 0.62162 0.0
O102 O 0.50023 0.62627 0.89829 0.0
O103 O 0.54897 0.57283 0.84382 0.0
O104 O 0.52025 0.68617 0.6422 0.0
O105 O 0.58358 0.69861 0.73615 0.0
O106 O 0.64613 0.62842 0.87047 0.0
O107 O 0.66551 0.59776 0.67236 0.0
O108 O 0.60584 0.56216 0.50335 0.0
O109 O 0.55727 0.61601 0.55771 0.0
O110 O 0.58839 0.50267 0.72942 0.0
O111 O 0.52715 0.49734 0.62143 0.0
H112 H 0.35832 0.52441 0.51776 0.0
H113 H 0.29166 0.51478 0.61988 0.0
H114 H 0.34429 0.58239 -0.01255 0.0
H115 H 0.41092 0.59245 0.88424 0.0
H116 H 0.70894 0.63478 0.03318 0.0
H117 H 0.78126 0.6428 0.09166 0.0
H118 H 0.81342 0.62627 0.68875 0.0
H119 H 0.74163 0.61875 0.63043 0.0
C120 C 0.21861 0.60557 -0.01342 0.0
C121 C 0.18931 0.55916 -0.03819 0.0
C122 C 0.25874 0.60017 0.94296 0.0
C123 C 0.27133 0.54833 0.87118 0.0
H124 H 0.21015 0.64735 0.03682 0.0
H125 H 0.27957 0.63803 -0.03946 0.0
S126 S 0.2075 0.41214 0.78789 0.0
N127 N 0.1764 0.45824 0.86712 0.0
N128 N 0.25194 0.44805 0.78477 0.0
C129 C 0.24286 0.50062 0.85015 0.0
C130 C 0.20192 0.50595 0.8959 0.0
C131 C 0.83302 0.2246 0.21767 0.0
C132 C 0.81927 0.23546 0.34553 0.0
C133 C 0.86697 0.25586 0.17399 0.0
C134 C 0.88812 0.29981 0.25593 0.0
H135 H 0.81795 0.19076 0.15169 0.0
H136 H 0.87671 0.24563 0.07514 0.0
S137 S 0.86349 0.34641 0.59815 0.0
N138 N 0.82876 0.29429 0.55249 0.0
N139 N 0.89245 0.35285 0.47075 0.0
C140 C 0.87419 0.31177 0.38329 0.0
C141 C 0.83988 0.27963 0.428 0.0
C142 C 0.59092 0.87702 0.65153 0.0
C143 C 0.55681 0.90322 0.60512 0.0
C144 C 0.58875 0.81838 0.67998 0.0
C145 C 0.55249 0.78359 0.66206 0.0
H146 H 0.61921 0.90236 0.66916 0.0
H147 H 0.61583 0.80025 0.71574 0.0
S148 S 0.45502 0.83115 0.53609 0.0
N149 N 0.48615 0.88947 0.53778 0.0
N150 N 0.48187 0.77998 0.59133 0.0
C151 C 0.51834 0.80927 0.61364 0.0
C152 C 0.52057 0.86881 0.58508 0.0
C153 C 0.86067 0.59656 0.01059 0.0
C154 C 0.8468 0.63635 0.92885 0.0
C155 C 0.90228 0.592 0.03411 0.0
C156 C 0.93179 0.6274 -0.02228 0.0
H157 H 0.83927 0.56723 0.05329 0.0
H158 H 0.91132 0.5596 0.09545 0.0
S159 S 0.91071 0.74215 0.7643 0.0
N160 N 0.86538 0.71436 0.79765 0.0
N161 N 0.94357 0.70605 0.84135 0.0
C162 C 0.91811 0.66898 0.89944 0.0
C163 C 0.87569 0.67331 0.87498 0.0
C164 C 0.25896 0.96127 0.43234 0.0
C165 C 0.29601 0.96953 0.36783 0.0
C166 C 0.2254 0.93148 0.36855 0.0
C167 C 0.22762 0.9088 0.23785 0.0
H168 H 0.25608 0.97712 0.5335 0.0
H169 H 0.19774 0.92516 0.42259 0.0
S170 S 0.31616 0.92394 0.02198 0.0
N171 N 0.33185 0.95622 0.16342 0.0
N172 N 0.26896 0.90008 0.04413 0.0
C173 C 0.26416 0.91789 0.17163 0.0
C174 C 0.29826 0.94825 0.23638 0.0
C175 C 0.52483 0.37192 0.63466 0.0
C176 C 0.56087 0.4071 0.64436 0.0
C177 C 0.52589 0.31041 0.61945 0.0
C178 C 0.56303 0.28183 0.61057 0.0
H179 H 0.49553 0.392 0.64148 0.0
H180 H 0.49734 0.28508 0.61391 0.0
S181 S 0.66606 0.35399 0.62552 0.0
N182 N 0.63481 0.40905 0.64149 0.0
N183 N 0.63678 0.29337 0.61047 0.0
C184 C 0.59932 0.31649 0.61756 0.0
C185 C 0.59825 0.37915 0.63527 0.0
C186 C 1.02848 0.55794 0.54528 0.0
C187 C 0.05557 0.58192 0.64266 0.0
C188 C 1.03418 0.56954 0.41763 0.0
C189 C 0.06715 0.60549 0.38346 0.0
H190 H 1.00274 0.52993 0.56758 0.0
H191 H 1.01252 0.55041 0.3455 0.0
S192 S 0.14676 0.67884 0.6028 0.0
N193 N 0.11665 0.64298 0.69633 0.0
N194 N 0.12723 0.66503 0.4568 0.0
C195 C 0.0945 0.62963 0.47985 0.0
C196 C 0.08869 0.61786 0.60958 0.0
C197 C 0.52173 0.09243 0.12949 0.0
C198 C 0.55388 1.07694 0.20553 0.0
C199 C 0.52864 0.10505 0.00308 0.0
C200 C 0.56793 0.10333 0.95116 0.0
H201 H 0.49131 0.09597 0.16879 0.0
H202 H 0.50336 0.11677 0.94623 0.0
S203 S 0.6606 1.05627 0.10425 0.0
N204 N 0.62491 1.05396 0.21517 0.0
N205 N 0.63836 1.07928 -0.02128 0.0
C206 C 0.59995 0.08613 0.0247 0.0
C207 C 0.59278 1.07259 0.15221 0.0
C208 C 0.58708 0.56542 0.23175 0.0
C209 C 0.56085 0.58591 0.33168 0.0
C210 C 0.57793 0.57176 0.10345 0.0
C211 C 0.54236 0.59897 0.07138 0.0
H212 H 0.61516 0.54526 0.25278 0.0
H213 H 0.59896 0.55552 0.02906 0.0
S214 S 0.46241 0.65646 0.29745 0.0
N215 N 0.49673 0.63125 0.38965 0.0
N216 N 0.48002 0.64446 0.14918 0.0
C217 C 0.51557 0.61876 0.1703 0.0
C218 C 0.52467 0.61175 0.30044 0.0
loop_
_geom_bond_atom_site_label_1
_geom_bond_atom_site_label_2
_geom_bond_distance
_geom_bond_site_symmetry_2
_ccdc_geom_bond_type
Nd0 C2 2.836 . S
Nd0 O20 2.500 . S
Nd0 O21 2.492 . S
Nd0 O22 2.487 . S
Nd0 O23 2.682 . S
Nd0 O24 2.410 . S
Nd0 O29 2.414 1_554 S
Nd0 O31 2.424 1_455 S
Nd1 C11 2.836 1_455 S
Nd1 O23 2.414 . S
Nd1 O25 2.424 . S
Nd1 O26 2.500 1_455 S
Nd1 O27 2.492 1_454 S
Nd1 O28 2.487 1_554 S
Nd1 O29 2.682 1_554 S
Nd1 O30 2.410 1_455 S
C2 Nd0 2.836 . S
C2 C3 1.498 . S
C2 O20 1.258 . S
C2 O21 1.239 . S
C3 C2 1.498 . S
C3 C4 1.366 . S
C3 C8 1.407 . S
C4 C3 1.366 . S
C4 C5 1.392 . S
C4 H32 0.930 1_554 S
C5 C4 1.392 . S
C5 C6 1.398 . S
C5 H33 0.929 1_554 S
C6 C5 1.398 . S
C6 C7 1.352 . S
C7 C6 1.352 . S
C7 C8 1.384 . S
C7 H34 0.930 . S
C8 C3 1.407 . S
C8 C7 1.384 . S
C8 H35 0.929 . S
C9 O22 1.241 . S
C9 O23 1.273 . S
C10 O24 1.251 . S
C10 O25 1.268 . S
C11 Nd1 2.836 1_655 S
C11 C12 1.498 . S
C11 O26 1.258 . S
C11 O27 1.239 1_554 S
C12 C11 1.498 . S
C12 C13 1.366 . S
C12 C17 1.407 1_554 S
C13 C12 1.366 . S
C13 C14 1.392 . S
C13 H36 0.930 . S
C14 C13 1.392 . S
C14 C15 1.398 . S
C14 H37 0.929 . S
C15 C14 1.398 . S
C15 C16 1.352 1_554 S
C16 C15 1.352 1_556 S
C16 C17 1.384 . S
C16 H38 0.930 . S
C17 C12 1.407 1_556 S
C17 C16 1.384 . S
C17 H39 0.929 . S
C18 O28 1.241 . S
C18 O29 1.273 . S
C19 O30 1.251 . S
C19 O31 1.268 . S
O20 Nd0 2.500 . S
O20 C2 1.258 . S
O21 Nd0 2.492 . S
O21 C2 1.239 . S
O22 Nd0 2.487 . S
O22 C9 1.241 . S
O23 Nd0 2.682 . S
O23 Nd1 2.414 . S
O23 C9 1.273 . S
O24 Nd0 2.410 . S
O24 C10 1.251 . S
O25 Nd1 2.424 . S
O25 C10 1.268 . S
O26 Nd1 2.500 1_655 S
O26 C11 1.258 . S
O27 Nd1 2.492 1_656 S
O27 C11 1.239 1_556 S
O28 Nd1 2.487 1_556 S
O28 C18 1.241 . S
O29 Nd0 2.414 1_556 S
O29 Nd1 2.682 1_556 S
O29 C18 1.273 . S
O30 Nd1 2.410 1_655 S
O30 C19 1.251 . S
O31 Nd0 2.424 1_655 S
O31 C19 1.268 . S
H32 C4 0.930 1_556 S
H33 C5 0.929 1_556 S
H34 C7 0.930 . S
H35 C8 0.929 . S
H36 C13 0.930 . S
H37 C14 0.929 . S
H38 C16 0.930 . S
H39 C17 0.929 . S
Nd40 C42 2.836 1_545 S
Nd40 O60 2.500 1_545 S
Nd40 O61 2.492 1_545 S
Nd40 O62 2.487 1_545 S
Nd40 O63 2.682 . S
Nd40 O64 2.410 1_545 S
Nd40 O69 2.414 . S
Nd40 O71 2.424 . S
Nd41 C51 2.836 . S
Nd41 O63 2.414 . S
Nd41 O65 2.424 1_545 S
Nd41 O66 2.500 . S
Nd41 O67 2.492 . S
Nd41 O68 2.487 . S
Nd41 O69 2.682 . S
Nd41 O70 2.410 . S
C42 Nd40 2.836 1_565 S
C42 C43 1.498 . S
C42 O60 1.258 . S
C42 O61 1.239 . S
C43 C42 1.498 . S
C43 C44 1.366 . S
C43 C48 1.407 . S
C44 C43 1.366 . S
C44 C45 1.392 . S
C44 H72 0.930 . S
C45 C44 1.392 . S
C45 C46 1.398 . S
C45 H73 0.929 . S
C46 C45 1.398 . S
C46 C47 1.352 . S
C47 C46 1.352 . S
C47 C48 1.384 . S
C47 H74 0.930 . S
C48 C43 1.407 . S
C48 C47 1.384 . S
C48 H75 0.929 . S
C49 O62 1.241 1_545 S
C49 O63 1.273 . S
C50 O64 1.251 . S
C50 O65 1.268 . S
C51 Nd41 2.836 . S
C51 C52 1.498 . S
C51 O66 1.258 . S
C51 O67 1.239 . S
C52 C51 1.498 . S
C52 C53 1.366 . S
C52 C57 1.407 . S
C53 C52 1.366 . S
C53 C54 1.392 . S
C53 H76 0.930 . S
C54 C53 1.392 . S
C54 C55 1.398 . S
C54 H77 0.929 . S
C55 C54 1.398 . S
C55 C56 1.352 . S
C56 C55 1.352 . S
C56 C57 1.384 . S
C56 H78 0.930 . S
C57 C52 1.407 . S
C57 C56 1.384 . S
C57 H79 0.929 . S
C58 O68 1.241 . S
C58 O69 1.273 . S
C59 O70 1.251 . S
C59 O71 1.268 . S
O60 Nd40 2.500 1_565 S
O60 C42 1.258 . S
O61 Nd40 2.492 1_565 S
O61 C42 1.239 . S
O62 Nd40 2.487 1_565 S
O62 C49 1.241 1_565 S
O63 Nd40 2.682 . S
O63 Nd41 2.414 . S
O63 C49 1.273 . S
O64 Nd40 2.410 1_565 S
O64 C50 1.251 . S
O65 Nd41 2.424 1_565 S
O65 C50 1.268 . S
O66 Nd41 2.500 . S
O66 C51 1.258 . S
O67 Nd41 2.492 . S
O67 C51 1.239 . S
O68 Nd41 2.487 . S
O68 C58 1.241 . S
O69 Nd40 2.414 . S
O69 Nd41 2.682 . S
O69 C58 1.273 . S
O70 Nd41 2.410 . S
O70 C59 1.251 . S
O71 Nd40 2.424 . S
O71 C59 1.268 . S
H72 C44 0.930 . S
H73 C45 0.929 . S
H74 C47 0.930 . S
H75 C48 0.929 . S
H76 C53 0.930 . S
H77 C54 0.929 . S
H78 C56 0.930 . S
H79 C57 0.929 . S
Nd80 C82 2.836 . S
Nd80 O100 2.500 . S
Nd80 O101 2.492 . S
Nd80 O102 2.487 1_556 S
Nd80 O103 2.682 . S
Nd80 O104 2.410 . S
Nd80 O109 2.414 . S
Nd80 O111 2.424 . S
Nd81 C91 2.836 . S
Nd81 O103 2.414 . S
Nd81 O105 2.424 . S
Nd81 O106 2.500 . S
Nd81 O107 2.492 . S
Nd81 O108 2.487 . S
Nd81 O109 2.682 . S
Nd81 O110 2.410 . S
C82 Nd80 2.836 . S
C82 C83 1.498 . S
C82 O100 1.258 . S
C82 O101 1.239 . S
C83 C82 1.498 . S
C83 C84 1.366 . S
C83 C88 1.407 . S
C84 C83 1.366 . S
C84 C85 1.392 . S
C84 H112 0.930 . S
C85 C84 1.392 . S
C85 C86 1.398 . S
C85 H113 0.929 . S
C86 C85 1.398 . S
C86 C87 1.352 . S
C87 C86 1.352 . S
C87 C88 1.384 . S
C87 H114 0.930 . S
C88 C83 1.407 . S
C88 C87 1.384 . S
C88 H115 0.929 . S
C89 O102 1.241 . S
C89 O103 1.273 1_554 S
C90 O104 1.251 . S
C90 O105 1.268 . S
C91 Nd81 2.836 . S
C91 C92 1.498 . S
C91 O106 1.258 . S
C91 O107 1.239 . S
C92 C91 1.498 . S
C92 C93 1.366 . S
C92 C97 1.407 . S
C93 C92 1.366 . S
C93 C94 1.392 . S
C93 H116 0.930 1_556 S
C94 C93 1.392 . S
C94 C95 1.398 . S
C94 H117 0.929 1_556 S
C95 C94 1.398 . S
C95 C96 1.352 . S
C96 C95 1.352 . S
C96 C97 1.384 . S
C96 H118 0.930 . S
C97 C92 1.407 . S
C97 C96 1.384 . S
C97 H119 0.929 . S
C98 O108 1.241 . S
C98 O109 1.273 . S
C99 O110 1.251 . S
C99 O111 1.268 . S
O100 Nd80 2.500 . S
O100 C82 1.258 . S
O101 Nd80 2.492 . S
O101 C82 1.239 . S
O102 Nd80 2.487 1_554 S
O102 C89 1.241 . S
O103 Nd80 2.682 . S
O103 Nd81 2.414 . S
O103 C89 1.273 1_556 S
O104 Nd80 2.410 . S
O104 C90 1.251 . S
O105 Nd81 2.424 . S
O105 C90 1.268 . S
O106 Nd81 2.500 . S
O106 C91 1.258 . S
O107 Nd81 2.492 . S
O107 C91 1.239 . S
O108 Nd81 2.487 . S
O108 C98 1.241 . S
O109 Nd80 2.414 . S
O109 Nd81 2.682 . S
O109 C98 1.273 . S
O110 Nd81 2.410 . S
O110 C99 1.251 . S
O111 Nd80 2.424 . S
O111 C99 1.268 . S
H112 C84 0.930 . S
H113 C85 0.929 . S
H114 C87 0.930 . S
H115 C88 0.929 . S
H116 C93 0.930 1_554 S
H117 C94 0.929 1_554 S
H118 C96 0.930 . S
H119 C97 0.929 . S
C120 C121 1.369 . S
C120 C122 1.419 . S
C120 H124 0.930 . S
C121 C120 1.369 . S
C121 C130 1.429 1_554 S
C122 C120 1.419 . S
C122 C123 1.363 1_554 S
C122 H125 0.929 . S
C123 C122 1.363 1_556 S
C123 C129 1.428 . S
H124 C120 0.930 . S
H125 C122 0.929 . S
S126 N127 1.613 . S
S126 N128 1.610 . S
N127 S126 1.613 . S
N127 C130 1.350 . S
N128 S126 1.610 . S
N128 C129 1.351 . S
C129 C123 1.428 . S
C129 N128 1.351 . S
C129 C130 1.434 . S
C130 C121 1.429 1_556 S
C130 N127 1.350 . S
C130 C129 1.434 . S
C131 C132 1.369 . S
C131 C133 1.419 . S
C131 H135 0.930 . S
C132 C131 1.369 . S
C132 C141 1.429 . S
C133 C131 1.419 . S
C133 C134 1.363 . S
C133 H136 0.929 . S
C134 C133 1.363 . S
C134 C140 1.428 . S
H135 C131 0.930 . S
H136 C133 0.929 . S
S137 N138 1.613 . S
S137 N139 1.610 . S
N138 S137 1.613 . S
N138 C141 1.350 . S
N139 S137 1.610 . S
N139 C140 1.351 . S
C140 C134 1.428 . S
C140 N139 1.351 . S
C140 C141 1.434 . S
C141 C132 1.429 . S
C141 N138 1.350 . S
C141 C140 1.434 . S
C142 C143 1.369 . S
C142 C144 1.419 . S
C142 H146 0.930 . S
C143 C142 1.369 . S
C143 C152 1.429 . S
C144 C142 1.419 . S
C144 C145 1.363 . S
C144 H147 0.929 . S
C145 C144 1.363 . S
C145 C151 1.428 . S
H146 C142 0.930 . S
H147 C144 0.929 . S
S148 N149 1.613 . S
S148 N150 1.610 . S
N149 S148 1.613 . S
N149 C152 1.350 . S
N150 S148 1.610 . S
N150 C151 1.351 . S
C151 C145 1.428 . S
C151 N150 1.351 . S
C151 C152 1.434 . S
C152 C143 1.429 . S
C152 N149 1.350 . S
C152 C151 1.434 . S
C153 C154 1.369 1_554 S
C153 C155 1.419 . S
C153 H157 0.930 . S
C154 C153 1.369 1_556 S
C154 C163 1.429 . S
C155 C153 1.419 . S
C155 C156 1.363 . S
C155 H158 0.929 . S
C156 C155 1.363 . S
C156 C162 1.428 1_554 S
H157 C153 0.930 . S
H158 C155 0.929 . S
S159 N160 1.613 . S
S159 N161 1.610 . S
N160 S159 1.613 . S
N160 C163 1.350 . S
N161 S159 1.610 . S
N161 C162 1.351 . S
C162 C156 1.428 1_556 S
C162 N161 1.351 . S
C162 C163 1.434 . S
C163 C154 1.429 . S
C163 N160 1.350 . S
C163 C162 1.434 . S
C164 C165 1.369 . S
C164 C166 1.419 . S
C164 H168 0.930 . S
C165 C164 1.369 . S
C165 C174 1.429 . S
C166 C164 1.419 . S
C166 C167 1.363 . S
C166 H169 0.929 . S
C167 C166 1.363 . S
C167 C173 1.428 . S
H168 C164 0.930 . S
H169 C166 0.929 . S
S170 N171 1.613 . S
S170 N172 1.610 . S
N171 S170 1.613 . S
N171 C174 1.350 . S
N172 S170 1.610 . S
N172 C173 1.351 . S
C173 C167 1.428 . S
C173 N172 1.351 . S
C173 C174 1.434 . S
C174 C165 1.429 . S
C174 N171 1.350 . S
C174 C173 1.434 . S
C175 C176 1.369 . S
C175 C177 1.419 . S
C175 H179 0.930 . S
C176 C175 1.369 . S
C176 C185 1.429 . S
C177 C175 1.419 . S
C177 C178 1.363 . S
C177 H180 0.929 . S
C178 C177 1.363 . S
C178 C184 1.428 . S
H179 C175 0.930 . S
H180 C177 0.929 . S
S181 N182 1.613 . S
S181 N183 1.610 . S
N182 S181 1.613 . S
N182 C185 1.350 . S
N183 S181 1.610 . S
N183 C184 1.351 . S
C184 C178 1.428 . S
C184 N183 1.351 . S
C184 C185 1.434 . S
C185 C176 1.429 . S
C185 N182 1.350 . S
C185 C184 1.434 . S
C186 C187 1.369 . S
C186 C188 1.419 . S
C186 H190 0.930 . S
C187 C186 1.369 . S
C187 C196 1.429 . S
C188 C186 1.419 . S
C188 C189 1.363 . S
C188 H191 0.929 . S
C189 C188 1.363 . S
C189 C195 1.428 . S
H190 C186 0.930 . S
H191 C188 0.929 . S
S192 N193 1.613 1_655 S
S192 N194 1.608 1_655 S
N193 S192 1.613 1_455 S
N193 C196 1.350 . S
N194 S192 1.608 1_455 S
N194 C195 1.357 . S
C195 C189 1.428 . S
C195 N194 1.357 . S
C195 C196 1.434 . S
C196 C187 1.429 . S
C196 N193 1.350 . S
C196 C195 1.434 . S
C197 C198 1.369 . S
C197 C199 1.419 1_554 S
C197 H201 0.930 . S
C198 C197 1.369 . S
C198 C207 1.429 . S
C199 C197 1.419 1_556 S
C199 C200 1.363 . S
C199 H202 0.929 . S
C200 C199 1.363 . S
C200 C206 1.428 . S
H201 C197 0.930 . S
H202 C199 0.929 . S
S203 N204 1.614 . S
S203 N205 1.610 1_554 S
N204 S203 1.614 . S
N204 C207 1.346 1_565 S
N205 S203 1.610 1_556 S
N205 C206 1.351 1_565 S
C206 C200 1.428 . S
C206 N205 1.351 1_545 S
C206 C207 1.434 1_556 S
C207 C198 1.429 . S
C207 N204 1.346 1_545 S
C207 C206 1.434 1_554 S
C208 C209 1.369 . S
C208 C210 1.419 . S
C208 H212 0.930 . S
C209 C208 1.369 . S
C209 C218 1.429 . S
C210 C208 1.419 . S
C210 C211 1.363 . S
C210 H213 0.929 . S
C211 C210 1.363 . S
C211 C217 1.428 . S
H212 C208 0.930 . S
H213 C210 0.929 . S
S214 N215 1.613 . S
S214 N216 1.610 . S
N215 S214 1.613 . S
N215 C218 1.350 . S
N216 S214 1.610 . S
N216 C217 1.351 . S
C217 C211 1.428 . S
C217 N216 1.351 . S
C217 C218 1.434 . S
C218 C209 1.429 . S
C218 N215 1.350 . S
C218 C217 1.434 . S
C121 C10 2.800 . S
C123 C86 2.579 . S
C132 C55 1.779 . S
C134 C15 1.770 . S
C143 C50 2.961 . S
C145 C90 2.882 . S
C154 C95 2.320 . S
C156 C19 2.359 . S
C165 C46 1.581 . S
C167 C6 1.611 . S
C176 C99 2.615 . S
C178 C59 2.684 . S
C187 C18 0.771 . S
C189 C9 0.764 . S
C198 C49 0.765 . S
C200 C58 0.750 . S
C209 C98 0.770 . S
C211 C89 0.759 . S
