# Generated by pormake.
# Topology bnn, (5)-cn, num edge types: 1
# Building blocks:
#     Node 0, Type 0, BuildingBlock: XOMCOT_clean_sbu_1, # of connection points: 5
#     Node 1, Type 0, BuildingBlock: XOMCOT_clean_sbu_1, # of connection points: 5
#     Edge 2, Type (0, 0), BuildingBlock: ZUJKAS_clean_linker_0, # of connection points: 2
#     Edge 3, Type (0, 0), BuildingBlock: ZUJKAS_clean_linker_0, # of connection points: 2
#     Edge 4, Type (0, 0), BuildingBlock: ZUJKAS_clean_linker_0, # of connection points: 2
#     Edge 5, Type (0, 0), BuildingBlock: ZUJKAS_clean_linker_0, # of connection points: 2
#     Edge 6, Type (0, 0), BuildingBlock: ZUJKAS_clean_linker_0, # of connection points: 2
# Relax obj value: 0.038
# Max RMSD: 0.098
# Mean RMSD: 0.098
data_MOF--net-bnn--node1-XOMCOT_clean_sbu_1--edge1-ZUJKAS_clean_linker_0
_symmetry_space_group_name_H-M    P1
_symmetry_Int_Tables_number       1
_symmetry_cell_setting            triclinic
loop_
_symmetry_equiv_pos_as_xyz
'x, y, z'
_cell_length_a     37.598966
_cell_length_b     35.094263
_cell_length_c     21.996016
_cell_angle_alpha  96.860591
_cell_angle_beta   90.684496
_cell_angle_gamma 122.56737
loop_
_atom_site_label
_atom_site_type_symbol
_atom_site_fract_x
_atom_site_fract_y
_atom_site_fract_z
_atom_type_partial_charge
C0 C 0.30316 0.62348 0.99125 0.0
C1 C 0.29549 0.61577 0.92825 0.0
N2 N 0.3077 0.65578 0.90875 0.0
N3 N 0.32042 0.66819 1.01165 0.0
C4 C 0.32231 0.68691 0.96051 0.0
H5 H 0.29765 0.59837 0.02034 0.0
Co6 Co 0.33815 0.69532 0.09392 0.0
C7 C 0.41127 0.78608 0.06231 0.0
O8 O 0.4399 0.77687 0.07441 0.0
N9 N 0.3548 0.72242 0.17806 0.0
C10 C 0.39162 0.7666 0.26593 0.0
C11 C 0.39161 0.76065 0.20318 0.0
C12 C 0.33305 0.70577 0.22734 0.0
N13 N 0.35477 0.73198 0.28138 0.0
O14 O 0.28965 0.6998 0.09622 0.0
H15 H 0.41795 0.78245 0.1787 0.0
H16 H 0.30225 0.67439 0.22395 0.0
O17 O 0.37217 0.75721 0.06891 0.0
C18 C 0.25861 0.66194 0.10866 0.0
O19 O 0.2656 0.63047 0.12 0.0
N20 N 0.38253 0.68431 0.09156 0.0
C21 C 0.42773 0.6415 0.0814 0.0
C22 C 0.42646 0.66487 0.03477 0.0
C23 C 0.40324 0.68546 0.04032 0.0
C24 C 0.38399 0.66203 0.13745 0.0
C25 C 0.40683 0.64118 0.13379 0.0
H26 H 0.40044 0.70059 1.00201 0.0
H27 H 0.36479 0.65706 0.17542 0.0
H28 H 0.33455 0.72278 0.96121 0.0
H29 H 0.28326 0.5834 0.89908 0.0
H30 H 0.41772 0.79338 0.2978 0.0
H31 H 0.442 0.66591 0.9933 0.0
H32 H 0.40562 0.62226 0.17003 0.0
C33 C 0.71574 0.42131 0.08988 0.0
C34 C 0.7218 0.42799 0.15298 0.0
N35 N 0.695 0.38788 0.17277 0.0
N36 N 0.68558 0.37714 0.06994 0.0
C37 C 0.67322 0.35765 0.12148 0.0
H38 H 0.73232 0.44696 0.06025 0.0
Co39 Co 0.66777 0.35238 0.98788 0.0
C40 C 0.64131 0.2559 0.97956 0.0
O41 O 0.66476 0.26252 0.9332 0.0
N42 N 0.6486 0.32757 0.90387 0.0
C43 C 0.60301 0.28422 0.82198 0.0
C44 C 0.60872 0.29199 0.88497 0.0
C45 C 0.66614 0.34146 0.85092 0.0
N46 N 0.63913 0.31554 0.80037 0.0
O47 O 0.61704 0.35174 0.99856 0.0
H48 H 0.5848 0.27322 0.91532 0.0
H49 H 0.6973 0.37118 0.84895 0.0
O50 O 0.64043 0.28945 1.00791 0.0
C51 C 0.6224 0.38708 0.97892 0.0
O52 O 0.65769 0.41322 0.95407 0.0
N53 N 0.7207 0.35968 0.9788 0.0
C54 C 0.80839 0.39854 0.98677 0.0
C55 C 0.78142 0.35932 1.01368 0.0
C56 C 0.73768 0.34091 1.01024 0.0
C57 C 0.74661 0.39795 0.9532 0.0
C58 C 0.79014 0.4173 0.95546 0.0
H59 H 0.71829 0.31392 0.03667 0.0
H60 H 0.73393 0.41616 0.93569 0.0
H61 H 0.64917 0.3219 0.12147 0.0
H62 H 0.74379 0.46002 0.18207 0.0
H63 H 0.57417 0.25772 0.79452 0.0
H64 H 0.79414 0.34422 0.03955 0.0
H65 H 0.8096 0.44881 0.93674 0.0
H66 H 0.42436 0.58796 0.97715 0.0
H67 H 0.45222 0.5389 0.96602 0.0
H68 H 0.50086 0.58145 0.15697 0.0
H69 H 0.47442 0.63196 0.16801 0.0
H70 H 0.5582 0.58182 0.08252 0.0
H71 H 0.40376 0.41676 0.02768 0.0
H72 H 0.41166 0.45699 0.97763 0.0
H73 H 0.40806 0.46933 0.05827 0.0
C74 C 0.44151 0.58745 1.01662 0.0
C75 C 0.44714 0.61396 0.07353 0.0
C76 C 0.45676 0.55872 1.01043 0.0
C77 C 0.47766 0.5556 0.06106 0.0
C78 C 0.48429 0.58284 0.1175 0.0
H79 H 0.56308 0.36505 0.06342 0.0
H80 H 0.52394 0.40231 0.08764 0.0
C81 C 0.46909 0.61162 0.12375 0.0
C82 C 0.49419 0.52541 0.0544 0.0
H83 H 0.46569 0.41533 1.00739 0.0
C84 C 0.53787 0.54535 0.06681 0.0
C85 C 0.46757 0.47764 0.03481 0.0
C86 C 0.42009 0.45379 0.02443 0.0
C87 C 0.55589 0.51925 0.05748 0.0
C88 C 0.52963 0.47207 0.03439 0.0
C89 C 0.48573 0.4516 0.02457 0.0
C90 C 0.54811 0.44483 1.01586 0.0
C91 C 0.6031 0.54252 0.07134 0.0
C92 C 0.57303 0.45513 0.96613 0.0
C93 C 0.59514 0.43412 0.95235 0.0
C94 C 0.59264 0.40212 0.98782 0.0
C95 C 0.56547 0.38949 0.03525 0.0
C96 C 0.5433 0.41083 0.04924 0.0
H97 H 0.61696 0.57538 0.10284 0.0
H98 H 0.61057 0.5201 0.09236 0.0
H99 H 0.61856 0.54995 0.02783 0.0
H100 H 0.57659 0.48074 0.93925 0.0
H101 H 0.61543 0.44421 0.91506 0.0
H102 H 0.86701 0.44211 0.90521 0.0
H103 H 0.94414 0.49121 0.9262 0.0
H104 H 0.93378 0.46067 0.11163 0.0
H105 H 0.85661 0.41249 0.09179 0.0
H106 H 0.98945 0.57043 0.02573 0.0
H107 H 0.02423 0.43647 0.04096 0.0
H108 H 0.9757 0.42423 1.00244 0.0
H109 H 0.98254 0.4323 0.08488 0.0
C110 C 0.88109 0.44566 0.95045 0.0
C111 C 0.85545 0.42325 0.9968 0.0
C112 C 0.92518 0.47372 0.96228 0.0
C113 C 0.9446 0.4795 0.02038 0.0
C114 C 0.91938 0.45626 0.06625 0.0
H115 H 0.19979 0.61718 0.18595 0.0
H116 H 0.12311 0.57856 0.16603 0.0
C117 C 0.87524 0.42841 0.05463 0.0
C118 C 0.99116 0.51088 0.0337 0.0
H119 H 0.08078 0.51321 0.06997 0.0
C120 C 1.00958 0.55806 0.0352 0.0
C121 C 0.01717 0.49454 0.04598 0.0
C122 C 0.99913 0.4441 0.04311 0.0
C123 C 0.05334 0.58953 0.05044 0.0
C124 C 0.07938 0.57318 0.0632 0.0
C125 C 0.06085 0.52585 0.06065 0.0
C126 C 0.12584 0.60402 0.08017 0.0
C127 C 0.071 0.63994 0.05454 0.0
C128 C 0.15314 0.63296 0.03994 0.0
C129 C 0.19726 0.65601 0.05213 0.0
C130 C 0.21445 0.64966 0.10406 0.0
C131 C 0.18722 0.62282 0.14581 0.0
C132 C 0.14342 0.6005 0.13422 0.0
H133 H 0.04586 0.6473 0.06049 0.0
H134 H 0.09598 0.66 0.09338 0.0
H135 H 0.08531 0.65177 1.01134 0.0
H136 H 0.14042 0.63554 0.99733 0.0
H137 H 0.21763 0.67571 0.01859 0.0
H138 H 0.48677 0.84651 0.02182 0.0
H139 H 0.51537 0.92601 1.01002 0.0
H140 H 0.39925 0.91196 0.0622 0.0
H141 H 0.3699 0.83156 0.07388 0.0
H142 H 0.46583 0.96122 0.93328 0.0
H143 H 0.51377 0.0254 0.18367 0.0
H144 H 0.51155 0.97468 0.1493 0.0
H145 H 0.46347 0.97316 0.15718 0.0
C146 C 0.46702 0.86004 0.03034 0.0
C147 C 0.42606 0.83266 0.04904 0.0
C148 C 0.48348 0.90553 0.02354 0.0
C149 C 0.45958 0.9249 0.03573 0.0
C150 C 0.41822 0.89757 0.05282 0.0
H151 H 0.57574 0.22303 0.05459 0.0
H152 H 0.52681 0.14302 0.06973 0.0
C153 C 0.40146 0.85165 0.05915 0.0
C154 C 0.47897 0.97405 0.03156 0.0
H155 H 0.53953 0.0804 0.11646 0.0
C156 C 0.48137 0.98733 0.97336 0.0
C157 C 0.49899 1.00795 0.08397 0.0
C158 C 0.49705 0.995 0.14733 0.0
C159 C 0.50451 0.03372 0.96595 0.0
C160 C 0.52686 0.06773 0.01796 0.0
C161 C 0.5227 0.05443 0.07657 0.0
C162 C 0.55716 0.11665 1.01157 0.0
C163 C 0.50517 0.04579 0.90222 0.0
C164 C 0.59131 0.12867 0.97572 0.0
C165 C 0.61908 0.17403 0.96699 0.0
C166 C 0.61378 0.20876 0.99448 0.0
C167 C 0.58066 0.19711 0.03266 0.0
C168 C 0.55261 0.15139 0.0412 0.0
H169 H 0.47643 1.01865 0.87223 0.0
H170 H 0.50724 0.07867 0.90352 0.0
H171 H 0.53316 0.04915 0.88098 0.0
H172 H 0.59633 0.10279 0.95393 0.0
H173 H 0.64449 0.18172 0.93792 0.0
H174 H 0.25983 0.59352 0.80834 0.0
H175 H 0.26455 0.60597 0.70109 0.0
H176 H 0.35941 0.74893 0.75765 0.0
H177 H 0.35638 0.73654 0.86472 0.0
H178 H 0.25106 0.66077 0.63853 0.0
H179 H 0.41848 0.71192 0.63427 0.0
H180 H 0.38727 0.68638 0.69651 0.0
H181 H 0.4109 0.74625 0.69319 0.0
C182 C 0.28203 0.62758 0.79817 0.0
C183 C 0.30811 0.66385 0.84563 0.0
C184 C 0.28442 0.63469 0.73668 0.0
C185 C 0.31294 0.67818 0.72111 0.0
C186 C 0.33785 0.71482 0.76837 0.0
H187 H 0.38323 0.79469 0.38452 0.0
H188 H 0.37001 0.78003 0.49018 0.0
C189 C 0.33565 0.70774 0.82987 0.0
C190 C 0.317 0.68505 0.65546 0.0
H191 H 0.38831 0.7223 0.54731 0.0
C192 C 0.28101 0.674 0.61848 0.0
C193 C 0.35603 0.70201 0.62912 0.0
C194 C 0.39528 0.7119 0.6651 0.0
C195 C 0.2833 0.68059 0.55642 0.0
C196 C 0.32249 0.69831 0.53059 0.0
C197 C 0.35834 0.70895 0.56735 0.0
C198 C 0.32747 0.70683 0.46576 0.0
C199 C 0.24407 0.66956 0.51924 0.0
C200 C 0.30765 0.67052 0.41672 0.0
C201 C 0.31547 0.67874 0.35596 0.0
C202 C 0.34342 0.72346 0.34317 0.0
C203 C 0.36216 0.75977 0.39252 0.0
C204 C 0.35445 0.7515 0.45305 0.0
H205 H 0.21869 0.66493 0.54884 0.0
H206 H 0.25161 0.69707 0.49156 0.0
H207 H 0.23168 0.63735 0.48698 0.0
H208 H 0.28719 0.63566 0.42557 0.0
H209 H 0.30085 0.6499 0.31937 0.0
H210 H 0.62385 0.32628 0.22098 0.0
H211 H 0.61644 0.31394 0.32861 0.0
H212 H 0.74927 0.41717 0.37412 0.0
H213 H 0.75666 0.43006 0.26695 0.0
H214 H 0.65425 0.28685 0.40307 0.0
H215 H 0.69607 0.46115 0.49815 0.0
H216 H 0.68493 0.44018 0.41681 0.0
H217 H 0.73613 0.46103 0.4548 0.0
C218 C 0.65147 0.34619 0.25392 0.0
C219 C 0.69074 0.37946 0.23563 0.0
C220 C 0.64719 0.33923 0.31541 0.0
C221 C 0.6821 0.36531 0.35969 0.0
C222 C 0.72161 0.39761 0.34117 0.0
H223 H 0.71506 0.36107 0.75152 0.0
H224 H 0.72664 0.37274 0.64429 0.0
C225 C 0.72582 0.40488 0.27987 0.0
C226 C 0.67726 0.35834 0.42507 0.0
H227 H 0.68997 0.41329 0.57056 0.0
C228 C 0.66194 0.31447 0.43964 0.0
C229 C 0.68726 0.39443 0.4728 0.0
C230 C 0.70162 0.44173 0.45993 0.0
C231 C 0.65671 0.30582 0.50065 0.0
C232 C 0.66693 0.34193 0.54816 0.0
C233 C 0.6825 0.38582 0.53386 0.0
C234 C 0.66002 0.33436 0.61284 0.0
C235 C 0.64057 0.25825 0.51414 0.0
C236 C 0.61873 0.30937 0.63055 0.0
C237 C 0.61192 0.30315 0.69184 0.0
C238 C 0.64633 0.32171 0.73684 0.0
C239 C 0.68777 0.34673 0.71862 0.0
C240 C 0.69451 0.35322 0.65724 0.0
H241 H 0.64182 0.23644 0.47433 0.0
H242 H 0.65934 0.25957 0.55464 0.0
H243 H 0.60714 0.24189 0.52517 0.0
H244 H 0.59172 0.29516 0.59699 0.0
H245 H 0.57959 0.28444 0.70386 0.0
loop_
_geom_bond_atom_site_label_1
_geom_bond_atom_site_label_2
_geom_bond_distance
_geom_bond_site_symmetry_2
_ccdc_geom_bond_type
C0 C1 1.351 . S
C0 N3 1.368 . S
C0 H5 0.931 . S
C1 C0 1.351 . S
C1 N2 1.373 . S
C1 H29 0.930 . S
N2 C1 1.373 . S
N2 C4 1.340 . S
N3 C0 1.368 . S
N3 C4 1.321 . S
N3 Co6 2.135 1_556 S
C4 N2 1.340 . S
C4 N3 1.321 . S
C4 H28 0.930 . S
H5 C0 0.931 . S
Co6 N3 2.135 1_554 S
Co6 N9 2.121 . S
Co6 O14 2.055 . S
Co6 O17 2.039 . S
Co6 N20 2.140 . S
C7 O8 1.227 . S
C7 O17 1.265 . S
O8 C7 1.227 . S
N9 Co6 2.121 . S
N9 C11 1.375 . S
N9 C12 1.313 . S
C10 C11 1.338 . S
C10 N13 1.377 . S
C10 H30 0.930 . S
C11 N9 1.375 . S
C11 C10 1.338 . S
C11 H15 0.931 . S
C12 N9 1.313 . S
C12 N13 1.344 . S
C12 H16 0.930 . S
N13 C10 1.377 . S
N13 C12 1.344 . S
O14 Co6 2.055 . S
O14 C18 1.253 . S
H15 C11 0.931 . S
H16 C12 0.930 . S
O17 Co6 2.039 . S
O17 C7 1.265 . S
C18 O14 1.253 . S
C18 O19 1.227 . S
O19 C18 1.227 . S
N20 Co6 2.140 . S
N20 C23 1.346 1_554 S
N20 C24 1.345 . S
C21 C22 1.387 1_554 S
C21 C25 1.391 . S
C22 C21 1.387 1_556 S
C22 C23 1.369 . S
C22 H31 0.929 . S
C23 N20 1.346 1_556 S
C23 C22 1.369 . S
C23 H26 0.928 . S
C24 N20 1.345 . S
C24 C25 1.371 . S
C24 H27 0.931 . S
C25 C21 1.391 . S
C25 C24 1.371 . S
C25 H32 0.930 . S
H26 C23 0.928 . S
H27 C24 0.931 . S
H28 C4 0.930 . S
H29 C1 0.930 . S
H30 C10 0.930 . S
H31 C22 0.929 . S
H32 C25 0.930 . S
C33 C34 1.351 . S
C33 N36 1.368 . S
C33 H38 0.931 . S
C34 C33 1.351 . S
C34 N35 1.373 . S
C34 H62 0.930 . S
N35 C34 1.373 . S
N35 C37 1.340 . S
N36 C33 1.368 . S
N36 C37 1.321 . S
N36 Co39 2.135 . S
C37 N35 1.340 . S
C37 N36 1.321 . S
C37 H61 0.930 . S
H38 C33 0.931 . S
Co39 N36 2.135 . S
Co39 N42 2.121 1_554 S
Co39 O47 2.055 . S
Co39 O50 2.039 . S
Co39 N53 2.140 . S
C40 O41 1.227 . S
C40 O50 1.265 . S
O41 C40 1.227 . S
N42 Co39 2.121 1_556 S
N42 C44 1.375 . S
N42 C45 1.313 . S
C43 C44 1.338 . S
C43 N46 1.377 . S
C43 H63 0.930 . S
C44 N42 1.375 . S
C44 C43 1.338 . S
C44 H48 0.931 . S
C45 N42 1.313 . S
C45 N46 1.344 . S
C45 H49 0.930 . S
N46 C43 1.377 . S
N46 C45 1.344 . S
O47 Co39 2.055 . S
O47 C51 1.253 . S
H48 C44 0.931 . S
H49 C45 0.930 . S
O50 Co39 2.039 . S
O50 C40 1.265 . S
C51 O47 1.253 . S
C51 O52 1.227 . S
O52 C51 1.227 . S
N53 Co39 2.140 . S
N53 C56 1.346 . S
N53 C57 1.345 1_554 S
C54 C55 1.387 . S
C54 C58 1.391 1_554 S
C55 C54 1.387 . S
C55 C56 1.369 . S
C55 H64 0.929 . S
C56 N53 1.346 . S
C56 C55 1.369 . S
C56 H59 0.928 . S
C57 N53 1.345 1_556 S
C57 C58 1.371 . S
C57 H60 0.931 . S
C58 C54 1.391 1_556 S
C58 C57 1.371 . S
C58 H65 0.930 . S
H59 C56 0.928 . S
H60 C57 0.931 . S
H61 C37 0.930 . S
H62 C34 0.930 . S
H63 C43 0.930 . S
H64 C55 0.929 . S
H65 C58 0.930 . S
H66 C74 0.929 . S
H67 C76 0.930 . S
H68 C78 0.930 . S
H69 C81 0.929 . S
H70 C84 0.930 . S
H71 C86 0.960 . S
H72 C86 0.960 . S
H73 C86 0.960 1_554 S
C74 H66 0.929 . S
C74 C75 1.377 1_556 S
C74 C76 1.384 . S
C75 C74 1.377 1_554 S
C75 C81 1.390 . S
C76 H67 0.930 . S
C76 C74 1.384 . S
C76 C77 1.372 1_556 S
C77 C76 1.372 1_554 S
C77 C78 1.400 . S
C77 C82 1.490 . S
C78 H68 0.930 . S
C78 C77 1.400 . S
C78 C81 1.386 . S
H79 C95 0.930 . S
H80 C96 0.931 . S
C81 H69 0.929 . S
C81 C75 1.390 . S
C81 C78 1.386 . S
C82 C77 1.490 . S
C82 C84 1.395 . S
C82 C85 1.403 . S
H83 C89 0.930 1_556 S
C84 H70 0.930 . S
C84 C82 1.395 . S
C84 C87 1.403 . S
C85 C82 1.403 . S
C85 C86 1.524 1_554 S
C85 C89 1.400 . S
C86 H71 0.960 . S
C86 H72 0.960 . S
C86 H73 0.960 1_556 S
C86 C85 1.524 1_556 S
C87 C84 1.403 . S
C87 C88 1.392 . S
C87 C91 1.495 . S
C88 C87 1.392 . S
C88 C89 1.385 . S
C88 C90 1.478 . S
C89 H83 0.930 1_554 S
C89 C85 1.400 . S
C89 C88 1.385 . S
C90 C88 1.478 . S
C90 C92 1.381 1_554 S
C90 C96 1.383 . S
C91 C87 1.495 . S
C91 H97 0.959 . S
C91 H98 0.961 . S
C91 H99 0.960 1_554 S
C92 C90 1.381 1_556 S
C92 C93 1.394 . S
C92 H100 0.930 . S
C93 C92 1.394 . S
C93 C94 1.383 1_556 S
C93 H101 0.929 . S
C94 C93 1.383 1_554 S
C94 C95 1.377 . S
C95 H79 0.930 . S
C95 C94 1.377 . S
C95 C96 1.379 . S
C96 H80 0.931 . S
C96 C90 1.383 . S
C96 C95 1.379 . S
H97 C91 0.959 . S
H98 C91 0.961 . S
H99 C91 0.960 1_556 S
H100 C92 0.930 . S
H101 C93 0.929 . S
H102 C110 0.929 . S
H103 C112 0.930 . S
H104 C114 0.930 . S
H105 C117 0.929 . S
H106 C120 0.930 1_556 S
H107 C122 0.938 1_455 S
H108 C122 0.960 . S
H109 C122 0.960 . S
C110 H102 0.929 . S
C110 C111 1.377 1_556 S
C110 C112 1.384 . S
C111 C110 1.377 1_554 S
C111 C117 1.390 . S
C112 H103 0.930 . S
C112 C110 1.384 . S
C112 C113 1.372 1_556 S
C113 C112 1.372 1_554 S
C113 C114 1.400 . S
C113 C118 1.490 . S
C114 H104 0.930 . S
C114 C113 1.400 . S
C114 C117 1.386 . S
H115 C131 0.930 . S
H116 C132 0.931 . S
C117 H105 0.929 . S
C117 C111 1.390 . S
C117 C114 1.386 . S
C118 C113 1.490 . S
C118 C120 1.395 . S
C118 C121 1.403 . S
H119 C125 0.930 . S
C120 H106 0.930 1_554 S
C120 C118 1.395 . S
C120 C123 1.403 1_655 S
C121 C118 1.403 . S
C121 C122 1.524 . S
C121 C125 1.400 1_655 S
C122 H107 0.938 1_655 S
C122 H108 0.960 . S
C122 H109 0.960 . S
C122 C121 1.524 . S
C123 C120 1.403 1_455 S
C123 C124 1.392 . S
C123 C127 1.495 1_554 S
C124 C123 1.392 . S
C124 C125 1.385 . S
C124 C126 1.478 . S
C125 H119 0.930 . S
C125 C121 1.400 1_455 S
C125 C124 1.385 . S
C126 C124 1.478 . S
C126 C128 1.381 1_554 S
C126 C132 1.383 . S
C127 C123 1.495 1_556 S
C127 H133 0.959 . S
C127 H134 0.961 1_556 S
C127 H135 0.960 . S
C128 C126 1.381 1_556 S
C128 C129 1.394 . S
C128 H136 0.930 . S
C129 C128 1.394 . S
C129 C130 1.383 1_556 S
C129 H137 0.929 . S
C130 C129 1.383 1_554 S
C130 C131 1.377 . S
C131 H115 0.930 . S
C131 C130 1.377 . S
C131 C132 1.379 . S
C132 H116 0.931 . S
C132 C126 1.383 . S
C132 C131 1.379 . S
H133 C127 0.959 . S
H134 C127 0.961 1_554 S
H135 C127 0.960 . S
H136 C128 0.930 . S
H137 C129 0.929 . S
H138 C146 0.929 . S
H139 C148 0.930 . S
H140 C150 0.930 . S
H141 C153 0.929 . S
H142 C156 0.930 . S
H143 C158 0.960 . S
H144 C158 0.960 . S
H145 C158 0.960 . S
C146 H138 0.929 . S
C146 C147 1.377 1_556 S
C146 C148 1.384 . S
C147 C146 1.377 1_554 S
C147 C153 1.390 . S
C148 H139 0.930 . S
C148 C146 1.384 . S
C148 C149 1.372 1_556 S
C149 C148 1.372 1_554 S
C149 C150 1.400 . S
C149 C154 1.490 . S
C150 H140 0.930 . S
C150 C149 1.400 . S
C150 C153 1.386 . S
H151 C167 0.930 . S
H152 C168 0.931 . S
C153 H141 0.929 . S
C153 C147 1.390 . S
C153 C150 1.386 . S
C154 C149 1.490 . S
C154 C156 1.395 1_554 S
C154 C157 1.403 . S
H155 C161 0.930 . S
C156 H142 0.930 . S
C156 C154 1.395 1_556 S
C156 C159 1.403 1_565 S
C157 C154 1.403 . S
C157 C158 1.524 . S
C157 C161 1.400 1_565 S
C158 H143 0.960 . S
C158 H144 0.960 . S
C158 H145 0.960 . S
C158 C157 1.524 . S
C159 C156 1.403 1_545 S
C159 C160 1.392 1_556 S
C159 C163 1.495 . S
C160 C159 1.392 1_554 S
C160 C161 1.385 . S
C160 C162 1.478 . S
C161 H155 0.930 . S
C161 C157 1.400 1_545 S
C161 C160 1.385 . S
C162 C160 1.478 . S
C162 C164 1.381 1_554 S
C162 C168 1.383 . S
C163 C159 1.495 . S
C163 H169 0.959 . S
C163 H170 0.961 . S
C163 H171 0.960 . S
C164 C162 1.381 1_556 S
C164 C165 1.394 . S
C164 H172 0.930 . S
C165 C164 1.394 . S
C165 C166 1.383 1_556 S
C165 H173 0.929 . S
C166 C165 1.383 1_554 S
C166 C167 1.377 . S
C167 H151 0.930 . S
C167 C166 1.377 . S
C167 C168 1.379 . S
C168 H152 0.931 . S
C168 C162 1.383 . S
C168 C167 1.379 . S
H169 C163 0.959 . S
H170 C163 0.961 . S
H171 C163 0.960 . S
H172 C164 0.930 . S
H173 C165 0.929 . S
H174 C182 0.929 . S
H175 C184 0.930 . S
H176 C186 0.930 . S
H177 C189 0.929 . S
H178 C192 0.930 . S
H179 C194 0.960 . S
H180 C194 0.960 . S
H181 C194 0.960 . S
C182 H174 0.929 . S
C182 C183 1.377 . S
C182 C184 1.384 . S
C183 C182 1.377 . S
C183 C189 1.390 . S
C184 H175 0.930 . S
C184 C182 1.384 . S
C184 C185 1.372 . S
C185 C184 1.372 . S
C185 C186 1.400 . S
C185 C190 1.490 . S
C186 H176 0.930 . S
C186 C185 1.400 . S
C186 C189 1.386 . S
H187 C203 0.930 . S
H188 C204 0.931 . S
C189 H177 0.929 . S
C189 C183 1.390 . S
C189 C186 1.386 . S
C190 C185 1.490 . S
C190 C192 1.395 . S
C190 C193 1.403 . S
H191 C197 0.930 . S
C192 H178 0.930 . S
C192 C190 1.395 . S
C192 C195 1.403 . S
C193 C190 1.403 . S
C193 C194 1.524 . S
C193 C197 1.400 . S
C194 H179 0.960 . S
C194 H180 0.960 . S
C194 H181 0.960 . S
C194 C193 1.524 . S
C195 C192 1.403 . S
C195 C196 1.392 . S
C195 C199 1.495 . S
C196 C195 1.392 . S
C196 C197 1.385 . S
C196 C198 1.478 . S
C197 H191 0.930 . S
C197 C193 1.400 . S
C197 C196 1.385 . S
C198 C196 1.478 . S
C198 C200 1.381 . S
C198 C204 1.383 . S
C199 C195 1.495 . S
C199 H205 0.959 . S
C199 H206 0.961 . S
C199 H207 0.960 . S
C200 C198 1.381 . S
C200 C201 1.394 . S
C200 H208 0.930 . S
C201 C200 1.394 . S
C201 C202 1.383 . S
C201 H209 0.929 . S
C202 C201 1.383 . S
C202 C203 1.377 . S
C203 H187 0.930 . S
C203 C202 1.377 . S
C203 C204 1.379 . S
C204 H188 0.931 . S
C204 C198 1.383 . S
C204 C203 1.379 . S
H205 C199 0.959 . S
H206 C199 0.961 . S
H207 C199 0.960 . S
H208 C200 0.930 . S
H209 C201 0.929 . S
H210 C218 0.929 . S
H211 C220 0.930 . S
H212 C222 0.930 . S
H213 C225 0.929 . S
H214 C228 0.930 . S
H215 C230 0.960 . S
H216 C230 0.960 . S
H217 C230 0.960 . S
C218 H210 0.929 . S
C218 C219 1.377 . S
C218 C220 1.384 . S
C219 C218 1.377 . S
C219 C225 1.390 . S
C220 H211 0.930 . S
C220 C218 1.384 . S
C220 C221 1.372 . S
C221 C220 1.372 . S
C221 C222 1.400 . S
C221 C226 1.490 . S
C222 H212 0.930 . S
C222 C221 1.400 . S
C222 C225 1.386 . S
H223 C239 0.930 . S
H224 C240 0.931 . S
C225 H213 0.929 . S
C225 C219 1.390 . S
C225 C222 1.386 . S
C226 C221 1.490 . S
C226 C228 1.395 . S
C226 C229 1.403 . S
H227 C233 0.930 . S
C228 H214 0.930 . S
C228 C226 1.395 . S
C228 C231 1.403 . S
C229 C226 1.403 . S
C229 C230 1.524 . S
C229 C233 1.400 . S
C230 H215 0.960 . S
C230 H216 0.960 . S
C230 H217 0.960 . S
C230 C229 1.524 . S
C231 C228 1.403 . S
C231 C232 1.392 . S
C231 C235 1.495 . S
C232 C231 1.392 . S
C232 C233 1.385 . S
C232 C234 1.478 . S
C233 H227 0.930 . S
C233 C229 1.400 . S
C233 C232 1.385 . S
C234 C232 1.478 . S
C234 C236 1.381 . S
C234 C240 1.383 . S
C235 C231 1.495 . S
C235 H241 0.959 . S
C235 H242 0.961 . S
C235 H243 0.960 . S
C236 C234 1.381 . S
C236 C237 1.394 . S
C236 H244 0.930 . S
C237 C236 1.394 . S
C237 C238 1.383 . S
C237 H245 0.929 . S
C238 C237 1.383 . S
C238 C239 1.377 . S
C239 H223 0.930 . S
C239 C238 1.377 . S
C239 C240 1.379 . S
C240 H224 0.931 . S
C240 C234 1.383 . S
C240 C239 1.379 . S
H241 C235 0.959 . S
H242 C235 0.961 . S
H243 C235 0.960 . S
H244 C236 0.930 . S
H245 C237 0.929 . S
C75 C21 1.507 . S
C94 C51 1.504 . S
C111 C54 1.506 . S
C130 C18 1.503 . S
C147 C7 1.495 . S
C166 C40 1.499 . S
C183 N2 1.443 . S
C202 N13 1.465 . S
C219 N35 1.438 . S
C238 N46 1.423 . S
