# Generated by pormake.
# Topology qtz, (4)-cn, num edge types: 1
# Building blocks:
#     Node 0, Type 0, BuildingBlock: GALJAG_clean_sbu_0, # of connection points: 4
#     Node 1, Type 0, BuildingBlock: GALJAG_clean_sbu_0, # of connection points: 4
#     Node 2, Type 0, BuildingBlock: GALJAG_clean_sbu_0, # of connection points: 4
#     Edge 3, Type (0, 0), None
#     Edge 4, Type (0, 0), None
#     Edge 5, Type (0, 0), None
#     Edge 6, Type (0, 0), None
#     Edge 7, Type (0, 0), None
#     Edge 8, Type (0, 0), None
# Relax obj value: 0.004
# Max RMSD: 0.037
# Mean RMSD: 0.037
data_MOF--net-qtz--node1-GALJAG_clean_sbu_0--edge1-none
_symmetry_space_group_name_H-M    P1
_symmetry_Int_Tables_number       1
_symmetry_cell_setting            triclinic
loop_
_symmetry_equiv_pos_as_xyz
'x, y, z'
_cell_length_a     10.340967
_cell_length_b     10.34315
_cell_length_c     13.405531
_cell_angle_alpha  90.080577
_cell_angle_beta   90.078449
_cell_angle_gamma 120.02067
loop_
_atom_site_label
_atom_site_type_symbol
_atom_site_fract_x
_atom_site_fract_y
_atom_site_fract_z
_atom_type_partial_charge
In0 In 0.07303 0.54567 0.11089 0.0
O1 O 0.98598 0.32827 0.20067 0.0
O2 O 0.87995 0.45848 0.2185 0.0
C3 C 0.26159 0.53207 -0.02099 0.0
C4 C 0.88383 0.55981 -0.02045 0.0
C5 C 0.26244 0.7487 0.24254 0.0
O6 O 0.16012 0.41564 0.02048 0.0
O7 O 0.26631 0.65202 0.00348 0.0
O8 O 0.16078 0.76338 0.20085 0.0
O9 O 0.26696 0.63325 0.21843 0.0
C10 C 0.88468 0.3432 0.24252 0.0
O11 O 0.98546 0.67601 0.02157 0.0
O12 O 0.8792 0.43972 0.00322 0.0
In13 In 0.5741 0.04672 0.44431 0.0
O14 O 0.79157 0.13386 0.35454 0.0
O15 O 0.66121 0.23973 0.33668 0.0
C16 C 0.5877 0.85819 0.57616 0.0
C17 C 0.55995 0.23592 0.57563 0.0
C18 C 0.37105 0.85731 0.31266 0.0
O19 O 0.70415 0.95963 0.53469 0.0
O20 O 0.46774 0.85348 0.55172 0.0
O21 O 0.35631 0.9589 0.35437 0.0
O22 O 0.48658 0.85287 0.33673 0.0
C23 C 0.77657 0.23509 0.31268 0.0
O24 O 0.44373 0.13431 0.53361 0.0
O25 O 0.68006 0.24052 0.55198 0.0
In26 In 0.57304 0.54673 0.77756 0.0
O27 O 0.7036 0.7646 0.68836 0.0
O28 O 0.46731 0.63429 0.66983 0.0
C29 C 0.77547 0.56009 0.90945 0.0
C30 C 0.36997 0.53234 0.9089 0.0
C31 C 0.55968 0.34429 0.6457 0.0
O32 O 0.79046 0.67656 0.86801 0.0
O33 O 0.66002 0.44018 0.885 0.0
O34 O 0.44318 0.32935 0.68711 0.0
O35 O 0.67962 0.45972 0.67015 0.0
C36 C 0.58743 0.74979 0.64625 0.0
O37 O 0.35513 0.41621 0.86675 0.0
O38 O 0.4855 0.65244 0.88532 0.0
loop_
_geom_bond_atom_site_label_1
_geom_bond_atom_site_label_2
_geom_bond_distance
_geom_bond_site_symmetry_2
_ccdc_geom_bond_type
In0 O1 2.294 1_455 S
In0 O2 2.326 1_455 S
In0 O6 2.266 . S
In0 O7 2.326 . S
In0 O8 2.266 . S
In0 O9 2.326 . S
In0 O11 2.294 1_455 S
In0 O12 2.326 1_455 S
O1 In0 2.294 1_655 S
O1 C10 1.240 . S
O2 In0 2.326 1_655 S
O2 C10 1.252 . S
C3 O6 1.252 . S
C3 O7 1.260 . S
C4 O11 1.240 . S
C4 O12 1.252 . S
C5 O8 1.252 . S
C5 O9 1.260 . S
O6 In0 2.266 . S
O6 C3 1.252 . S
O7 In0 2.326 . S
O7 C3 1.260 . S
O8 In0 2.266 . S
O8 C5 1.252 . S
O9 In0 2.326 . S
O9 C5 1.260 . S
C10 O1 1.240 . S
C10 O2 1.252 . S
O11 In0 2.294 1_655 S
O11 C4 1.240 . S
O12 In0 2.326 1_655 S
O12 C4 1.252 . S
In13 O14 2.294 . S
In13 O15 2.326 . S
In13 O19 2.266 1_545 S
In13 O20 2.326 1_545 S
In13 O21 2.266 1_545 S
In13 O22 2.326 1_545 S
In13 O24 2.294 . S
In13 O25 2.326 . S
O14 In13 2.294 . S
O14 C23 1.240 . S
O15 In13 2.326 . S
O15 C23 1.252 . S
C16 O19 1.252 . S
C16 O20 1.260 . S
C17 O24 1.240 . S
C17 O25 1.252 . S
C18 O21 1.252 . S
C18 O22 1.260 . S
O19 In13 2.266 1_565 S
O19 C16 1.252 . S
O20 In13 2.326 1_565 S
O20 C16 1.260 . S
O21 In13 2.266 1_565 S
O21 C18 1.252 . S
O22 In13 2.326 1_565 S
O22 C18 1.260 . S
C23 O14 1.240 . S
C23 O15 1.252 . S
O24 In13 2.294 . S
O24 C17 1.240 . S
O25 In13 2.326 . S
O25 C17 1.252 . S
In26 O27 2.294 . S
In26 O28 2.326 . S
In26 O32 2.266 . S
In26 O33 2.326 . S
In26 O34 2.266 . S
In26 O35 2.326 . S
In26 O37 2.294 . S
In26 O38 2.326 . S
O27 In26 2.294 . S
O27 C36 1.240 . S
O28 In26 2.326 . S
O28 C36 1.252 . S
C29 O32 1.252 . S
C29 O33 1.260 . S
C30 O37 1.240 . S
C30 O38 1.252 . S
C31 O34 1.252 . S
C31 O35 1.260 . S
O32 In26 2.266 . S
O32 C29 1.252 . S
O33 In26 2.326 . S
O33 C29 1.260 . S
O34 In26 2.266 . S
O34 C31 1.252 . S
O35 In26 2.326 . S
O35 C31 1.260 . S
C36 O27 1.240 . S
C36 O28 1.252 . S
O37 In26 2.294 . S
O37 C30 1.240 . S
O38 In26 2.326 . S
O38 C30 1.252 . S
C30 C3 1.545 1_556 S
C10 C23 1.538 . S
C16 C36 1.545 . S
C29 C4 1.544 1_556 S
C18 C5 1.552 . S
C31 C17 1.544 . S
