# Generated by pormake.
# Topology uon, (4)-cn, num edge types: 1
# Building blocks:
#     Node 0, Type 0, BuildingBlock: MUDLON_clean_sbu_0, # of connection points: 4
#     Node 1, Type 0, BuildingBlock: MUDLON_clean_sbu_0, # of connection points: 4
#     Node 2, Type 0, BuildingBlock: MUDLON_clean_sbu_0, # of connection points: 4
#     Node 3, Type 0, BuildingBlock: MUDLON_clean_sbu_0, # of connection points: 4
#     Node 4, Type 0, BuildingBlock: MUDLON_clean_sbu_0, # of connection points: 4
#     Node 5, Type 0, BuildingBlock: MUDLON_clean_sbu_0, # of connection points: 4
#     Edge 6, Type (0, 0), BuildingBlock: OJICUG_clean_linker_0, # of connection points: 2
#     Edge 7, Type (0, 0), BuildingBlock: OJICUG_clean_linker_0, # of connection points: 2
#     Edge 8, Type (0, 0), BuildingBlock: OJICUG_clean_linker_0, # of connection points: 2
#     Edge 9, Type (0, 0), BuildingBlock: OJICUG_clean_linker_0, # of connection points: 2
#     Edge 10, Type (0, 0), BuildingBlock: OJICUG_clean_linker_0, # of connection points: 2
#     Edge 11, Type (0, 0), BuildingBlock: OJICUG_clean_linker_0, # of connection points: 2
#     Edge 12, Type (0, 0), BuildingBlock: OJICUG_clean_linker_0, # of connection points: 2
#     Edge 13, Type (0, 0), BuildingBlock: OJICUG_clean_linker_0, # of connection points: 2
#     Edge 14, Type (0, 0), BuildingBlock: OJICUG_clean_linker_0, # of connection points: 2
#     Edge 15, Type (0, 0), BuildingBlock: OJICUG_clean_linker_0, # of connection points: 2
#     Edge 16, Type (0, 0), BuildingBlock: OJICUG_clean_linker_0, # of connection points: 2
#     Edge 17, Type (0, 0), BuildingBlock: OJICUG_clean_linker_0, # of connection points: 2
# Relax obj value: 0.139
# Max RMSD: 0.113
# Mean RMSD: 0.108
data_MOF--net-uon--node1-MUDLON_clean_sbu_0--edge1-OJICUG_clean_linker_0
_symmetry_space_group_name_H-M    P1
_symmetry_Int_Tables_number       1
_symmetry_cell_setting            triclinic
loop_
_symmetry_equiv_pos_as_xyz
'x, y, z'
_cell_length_a     27.058653
_cell_length_b     26.833368
_cell_length_c     12.638272
_cell_angle_alpha  87.358887
_cell_angle_beta   90.778368
_cell_angle_gamma 120.00048
loop_
_atom_site_label
_atom_site_type_symbol
_atom_site_fract_x
_atom_site_fract_y
_atom_site_fract_z
_atom_type_partial_charge
Mg0 Mg 0.29527 0.48762 0.13883 0.0
C1 C 0.38184 0.59353 0.02477 0.0
O2 O 0.40594 0.56148 0.03365 0.0
C3 C 0.18739 0.42131 0.27239 0.0
O4 O 0.22582 0.42412 0.34027 0.0
C5 C 0.27977 0.37795 0.04475 0.0
O6 O 0.22978 0.35584 0.09204 0.0
O7 O 0.31458 0.43171 0.04915 0.0
O8 O 0.33044 0.57198 0.05658 0.0
O9 O 0.34597 0.50648 0.28286 0.0
C10 C 0.36038 0.54554 0.34988 0.0
O11 O 0.39475 0.548 0.42647 0.0
O12 O 0.20366 0.44396 0.17939 0.0
Mg13 Mg 0.81957 0.26328 0.36616 0.0
C14 C 0.82528 0.37154 0.29825 0.0
O15 O 0.8767 0.38748 0.33377 0.0
C16 C 0.79777 0.14292 0.39373 0.0
O17 O 0.8516 0.17339 0.42052 0.0
C18 C 0.9499 0.3132 0.40547 0.0
O19 O 0.93556 0.30115 0.50621 0.0
O20 O 0.91124 0.30147 0.33692 0.0
O21 O 0.79185 0.31829 0.28322 0.0
O22 O 0.78727 0.26849 0.51879 0.0
C23 C 0.7345 0.25069 0.50252 0.0
O24 O 0.71336 0.23097 0.40944 0.0
O25 O 0.77314 0.16935 0.3545 0.0
Mg26 Mg 0.58535 0.82681 0.75924 0.0
C27 C 0.46981 0.79279 0.69167 0.0
O28 O 0.49673 0.84939 0.6874 0.0
C29 C 0.68001 0.80839 0.85126 0.0
O30 O 0.70284 0.86363 0.86693 0.0
C31 C 0.67728 0.91612 0.60095 0.0
O32 O 0.70486 0.88891 0.62848 0.0
O33 O 0.62782 0.8983 0.64013 0.0
O34 O 0.49839 0.76785 0.71299 0.0
O35 O 0.57243 0.86408 0.89871 0.0
C36 C 0.53141 0.83881 0.96569 0.0
O37 O 0.52597 0.86931 0.0382 0.0
O38 O 0.63268 0.78262 0.80317 0.0
Mg39 Mg 0.77859 0.58225 0.19103 0.0
C40 C 0.6741 0.47685 0.17154 0.0
O41 O 0.66229 0.51354 0.21402 0.0
C42 C 0.89767 0.66657 0.23805 0.0
O43 O 0.86854 0.68939 0.27449 0.0
C44 C 0.78082 0.68338 0.0568 0.0
O45 O 0.83641 0.70528 0.05784 0.0
O46 O 0.7489 0.63508 0.10513 0.0
O47 O 0.72536 0.4946 0.14237 0.0
O48 O 0.7544 0.57069 0.35742 0.0
C49 C 0.74882 0.52721 0.41284 0.0
O50 O 0.7277 0.51762 0.50933 0.0
O51 O 0.87105 0.62 0.1892 0.0
Mg52 Mg 0.21672 0.74555 0.53466 0.0
C53 C 0.25476 0.68424 0.39432 0.0
O54 O 0.20046 0.66002 0.37008 0.0
C55 C 0.24721 0.85217 0.65845 0.0
O56 O 0.21333 0.81245 0.72888 0.0
C57 C 0.12318 0.75345 0.41098 0.0
O58 O 0.15291 0.80721 0.43835 0.0
O59 O 0.14026 0.71855 0.43938 0.0
O60 O 0.27539 0.72601 0.45577 0.0
O61 O 0.1926 0.68972 0.67864 0.0
C62 C 0.22446 0.67545 0.73178 0.0
O63 O 0.20161 0.63637 0.80973 0.0
O64 O 0.25539 0.83676 0.56956 0.0
Mg65 Mg 0.45084 0.19627 0.88659 0.0
C66 C 0.56514 0.22402 0.80412 0.0
O67 O 0.56761 0.20695 0.90209 0.0
C68 C 0.35785 0.22714 0.90226 0.0
O69 O 0.32846 0.17228 0.93197 0.0
C70 C 0.38367 0.09068 0.76849 0.0
O71 O 0.40997 0.13074 0.6932 0.0
O72 O 0.39185 0.10521 0.86445 0.0
O73 O 0.52021 0.22424 0.77323 0.0
O74 O 0.49692 0.21995 0.034 0.0
C75 C 0.48772 0.2509 0.0946 0.0
O76 O 0.43772 0.24778 0.09096 0.0
O77 O 0.40924 0.24793 0.87115 0.0
C78 C 0.26087 0.27982 -8e-05 0.0
C79 C 0.29743 0.33987 -0.00399 0.0
H80 H 0.25096 0.19722 0.97228 0.0
C81 C 0.35219 0.3627 0.95089 0.0
H82 H 0.21829 0.26073 0.03351 0.0
C83 C 0.37088 0.32619 0.91529 0.0
C84 C 0.33529 0.266 0.92424 0.0
H85 H 0.38136 0.40877 0.94604 0.0
H86 H 0.41405 0.34517 0.88461 0.0
C87 C 0.2796 0.24334 0.96458 0.0
C88 C 0.02661 0.35917 0.26472 0.0
C89 C 1.01064 0.34065 0.3712 0.0
H90 H 0.09467 0.39928 0.14996 0.0
C91 C 0.05332 0.34884 0.4444 0.0
H92 H 0.99488 0.35369 0.20615 0.0
C93 C 0.11049 0.37473 0.41196 0.0
C94 C 0.1265 0.39343 0.30563 0.0
H95 H 0.04263 0.33512 0.52691 0.0
H96 H 0.14218 0.38032 0.47068 0.0
C97 C 0.08387 0.38542 0.2324 0.0
C98 C 0.79349 0.05126 0.45876 0.0
C99 C 0.76467 0.08112 0.4294 0.0
H100 H 0.78865 0.97588 0.53426 0.0
C101 C 0.70544 0.05373 0.44784 0.0
H102 H 0.83908 0.07101 0.44556 0.0
C103 C 0.67648 0.9992 0.50023 0.0
C104 C 0.70599 0.9706 0.53424 0.0
H105 H 0.68198 0.07565 0.42691 0.0
H106 H 0.63132 0.98029 0.51705 0.0
C107 C 0.76451 0.99661 0.50989 0.0
C108 C 0.78879 0.77425 0.97541 0.0
C109 C 0.75545 0.71489 0.00056 0.0
H110 H 0.791 0.85038 0.90924 0.0
C111 C 0.69755 0.68609 0.97227 0.0
H112 H 0.83348 0.79772 -0.0038 0.0
C113 C 0.67348 0.71607 0.92059 0.0
C114 C 0.70652 0.77573 0.8979 0.0
H115 H 0.67078 0.64031 0.99004 0.0
H116 H 0.6286 0.69279 0.90099 0.0
C117 C 0.76444 0.80444 0.92566 0.0
C118 C 0.98378 0.65611 0.27332 0.0
C119 C 0.95825 0.69068 0.26788 0.0
H120 H 0.05591 0.64862 0.32376 0.0
C121 C 0.98926 0.74729 0.30206 0.0
H122 H 0.96082 0.61219 0.2481 0.0
C123 C 0.04366 0.76826 0.34462 0.0
C124 C 0.06812 0.73284 0.35539 0.0
H125 H 0.97083 0.77507 0.29848 0.0
H126 H 0.06564 0.81164 0.37255 0.0
C127 C 0.03808 0.67688 0.31731 0.0
C128 C 0.31385 0.98683 0.81807 0.0
C129 C 0.34692 0.0298 0.7407 0.0
H130 H 0.25592 0.89713 0.85263 0.0
C131 C 0.34534 1.01404 0.63552 0.0
H132 H 0.31398 0.99755 0.89969 0.0
C133 C 0.31238 0.95658 0.60861 0.0
C134 C 0.27978 0.91347 0.68605 0.0
H135 H 0.37025 0.04601 0.57379 0.0
H136 H 0.3128 0.94593 0.52712 0.0
C137 C 0.28043 0.9293 0.79093 0.0
C138 C 0.26482 0.61021 0.29917 0.0
C139 C 0.28759 0.65574 0.36837 0.0
H140 H 0.26969 0.54045 0.23878 0.0
C141 C 0.33823 0.66878 0.4219 0.0
H142 H 0.22601 0.59915 0.25618 0.0
C143 C 0.36315 0.63436 0.4119 0.0
C144 C 0.33834 0.5865 0.34736 0.0
H145 H 0.35708 0.70375 0.47563 0.0
H146 H 0.40081 0.64419 0.45777 0.0
C147 C 0.29002 0.57622 0.28882 0.0
C148 C 0.60552 0.24622 0.62066 0.0
C149 C 0.61213 0.23794 0.72906 0.0
H150 H 0.6396 0.25729 0.46472 0.0
C151 C 0.66272 0.23983 0.76411 0.0
H152 H 0.56742 0.24554 0.59112 0.0
C153 C 0.7046 0.24704 0.69127 0.0
C154 C 0.69605 0.25177 0.58253 0.0
H155 H 0.66927 0.23414 0.84752 0.0
H156 H 0.74218 0.24622 0.71953 0.0
C157 C 0.64689 0.25281 0.54825 0.0
C158 C 0.51098 0.73786 0.9502 0.0
C159 C 0.49099 0.77607 0.96591 0.0
H160 H 0.49215 0.65042 0.95414 0.0
C161 C 0.43321 0.7536 0.99299 0.0
H162 H 0.55556 0.75402 0.93376 0.0
C163 C 0.39653 0.69396 0.00657 0.0
C164 C 0.41723 0.65576 -0.00554 0.0
H165 H 0.41674 0.78225 0.00621 0.0
H166 H 0.35269 0.67802 0.03067 0.0
C167 C 0.47455 0.67843 0.96354 0.0
C168 C 0.82328 0.50876 0.34185 0.0
C169 C 0.76621 0.48782 0.37056 0.0
H170 H 0.88643 0.48851 0.29336 0.0
C171 C 0.7272 0.42857 0.36586 0.0
H172 H 0.8545 0.55371 0.34987 0.0
C173 C 0.74522 0.39087 0.33308 0.0
C174 C 0.80298 0.41168 0.30762 0.0
H175 H 0.683 0.41137 0.38893 0.0
H176 H 0.71465 0.34517 0.3337 0.0
C177 C 0.8415 0.47122 0.31048 0.0
C178 C 0.31601 0.67283 0.73008 0.0
C179 C 0.2865 0.70301 0.71011 0.0
H180 H 0.39741 0.67718 0.73799 0.0
C181 C 0.31763 0.76136 0.67837 0.0
H182 H 0.29315 0.62776 0.75598 0.0
C183 C 0.37679 0.78953 0.66715 0.0
C184 C 0.40667 0.76006 0.6893 0.0
H185 H 0.29658 0.78599 0.66702 0.0
H186 H 0.39921 0.8351 0.64491 0.0
C187 C 0.37562 0.70104 0.71925 0.0
C188 C 0.52818 0.34338 0.18618 0.0
C189 C 0.53726 0.30365 0.13373 0.0
H190 H 0.56399 0.42898 0.23814 0.0
C191 C 0.59336 0.31951 0.10324 0.0
H192 H 0.48572 0.33257 0.21137 0.0
C193 C 0.63852 0.3754 0.11762 0.0
C194 C 0.62836 0.41625 0.16305 0.0
H195 H 0.602 0.28988 0.06297 0.0
H196 H 0.68084 0.38709 0.09005 0.0
C197 C 0.57314 0.39898 0.20056 0.0
loop_
_geom_bond_atom_site_label_1
_geom_bond_atom_site_label_2
_geom_bond_distance
_geom_bond_site_symmetry_2
_ccdc_geom_bond_type
Mg0 O7 2.141 . S
Mg0 O8 2.048 . S
Mg0 O9 2.048 . S
Mg0 O12 2.141 . S
C1 O2 1.313 . S
C1 O8 1.195 . S
O2 C1 1.313 . S
C3 O4 1.245 . S
C3 O12 1.289 . S
O4 C3 1.245 . S
C5 O6 1.245 . S
C5 O7 1.289 . S
O6 C5 1.245 . S
O7 Mg0 2.141 . S
O7 C5 1.289 . S
O8 Mg0 2.048 . S
O8 C1 1.195 . S
O9 Mg0 2.048 . S
O9 C10 1.195 . S
C10 O9 1.195 . S
C10 O11 1.313 . S
O11 C10 1.313 . S
O12 Mg0 2.141 . S
O12 C3 1.289 . S
Mg13 O20 2.141 . S
Mg13 O21 2.048 . S
Mg13 O22 2.048 . S
Mg13 O25 2.141 . S
C14 O15 1.313 . S
C14 O21 1.195 . S
O15 C14 1.313 . S
C16 O17 1.245 . S
C16 O25 1.289 . S
O17 C16 1.245 . S
C18 O19 1.245 . S
C18 O20 1.289 . S
O19 C18 1.245 . S
O20 Mg13 2.141 . S
O20 C18 1.289 . S
O21 Mg13 2.048 . S
O21 C14 1.195 . S
O22 Mg13 2.048 . S
O22 C23 1.195 . S
C23 O22 1.195 . S
C23 O24 1.313 . S
O24 C23 1.313 . S
O25 Mg13 2.141 . S
O25 C16 1.289 . S
Mg26 O33 2.141 . S
Mg26 O34 2.048 . S
Mg26 O35 2.048 1_556 S
Mg26 O38 2.141 . S
C27 O28 1.313 1_556 S
C27 O34 1.195 . S
O28 C27 1.313 1_554 S
C29 O30 1.245 . S
C29 O38 1.289 1_554 S
O30 C29 1.245 . S
C31 O32 1.245 . S
C31 O33 1.289 . S
O32 C31 1.245 . S
O33 Mg26 2.141 . S
O33 C31 1.289 . S
O34 Mg26 2.048 . S
O34 C27 1.195 . S
O35 Mg26 2.048 1_554 S
O35 C36 1.195 . S
C36 O35 1.195 . S
C36 O37 1.313 . S
O37 C36 1.313 . S
O38 Mg26 2.141 . S
O38 C29 1.289 1_556 S
Mg39 O46 2.141 . S
Mg39 O47 2.048 . S
Mg39 O48 2.048 . S
Mg39 O51 2.141 1_556 S
C40 O41 1.313 . S
C40 O47 1.195 . S
O41 C40 1.313 . S
C42 O43 1.245 . S
C42 O51 1.289 . S
O43 C42 1.245 . S
C44 O45 1.245 1_556 S
C44 O46 1.289 . S
O45 C44 1.245 1_554 S
O46 Mg39 2.141 . S
O46 C44 1.289 . S
O47 Mg39 2.048 . S
O47 C40 1.195 . S
O48 Mg39 2.048 . S
O48 C49 1.195 1_556 S
C49 O48 1.195 1_554 S
C49 O50 1.313 . S
O50 C49 1.313 . S
O51 Mg39 2.141 1_554 S
O51 C42 1.289 . S
Mg52 O59 2.141 . S
Mg52 O60 2.048 . S
Mg52 O61 2.048 . S
Mg52 O64 2.141 . S
C53 O54 1.313 . S
C53 O60 1.195 . S
O54 C53 1.313 . S
C55 O56 1.245 . S
C55 O64 1.289 . S
O56 C55 1.245 . S
C57 O58 1.245 . S
C57 O59 1.289 . S
O58 C57 1.245 . S
O59 Mg52 2.141 . S
O59 C57 1.289 . S
O60 Mg52 2.048 . S
O60 C53 1.195 . S
O61 Mg52 2.048 . S
O61 C62 1.195 . S
C62 O61 1.195 . S
C62 O63 1.313 . S
O63 C62 1.313 . S
O64 Mg52 2.141 . S
O64 C55 1.289 . S
Mg65 O72 2.141 . S
Mg65 O73 2.048 . S
Mg65 O74 2.048 . S
Mg65 O77 2.141 . S
C66 O67 1.313 . S
C66 O73 1.195 . S
O67 C66 1.313 . S
C68 O69 1.245 . S
C68 O77 1.289 . S
O69 C68 1.245 . S
C70 O71 1.245 . S
C70 O72 1.289 . S
O71 C70 1.245 . S
O72 Mg65 2.141 . S
O72 C70 1.289 . S
O73 Mg65 2.048 . S
O73 C66 1.195 . S
O74 Mg65 2.048 . S
O74 C75 1.195 . S
C75 O74 1.195 . S
C75 O76 1.313 . S
O76 C75 1.313 . S
O77 Mg65 2.141 . S
O77 C68 1.289 . S
C78 C79 1.387 . S
C78 H82 0.950 . S
C78 C87 1.390 1_554 S
C79 C78 1.387 . S
C79 C81 1.387 . S
H80 C87 0.950 . S
C81 C79 1.387 . S
C81 C83 1.390 1_554 S
C81 H85 0.950 . S
H82 C78 0.950 . S
C83 C81 1.390 1_556 S
C83 C84 1.387 . S
C83 H86 0.950 . S
C84 C83 1.387 . S
C84 C87 1.387 . S
H85 C81 0.950 . S
H86 C83 0.950 . S
C87 C78 1.390 1_556 S
C87 H80 0.950 . S
C87 C84 1.387 . S
C88 C89 1.387 . S
C88 H92 0.950 . S
C88 C97 1.390 1_655 S
C89 C88 1.387 . S
C89 C91 1.387 . S
H90 C97 0.950 . S
C91 C89 1.387 . S
C91 C93 1.390 1_655 S
C91 H95 0.950 . S
H92 C88 0.950 . S
C93 C91 1.390 1_455 S
C93 C94 1.387 . S
C93 H96 0.950 . S
C94 C93 1.387 . S
C94 C97 1.387 . S
H95 C91 0.950 . S
H96 C93 0.950 . S
C97 C88 1.390 1_455 S
C97 H90 0.950 . S
C97 C94 1.387 . S
C98 C99 1.387 . S
C98 H102 0.950 . S
C98 C107 1.390 1_545 S
C99 C98 1.387 . S
C99 C101 1.387 . S
H100 C107 0.950 . S
C101 C99 1.387 . S
C101 C103 1.390 1_545 S
C101 H105 0.950 . S
H102 C98 0.950 . S
C103 C101 1.390 1_565 S
C103 C104 1.387 . S
C103 H106 0.950 . S
C104 C103 1.387 . S
C104 C107 1.387 . S
H105 C101 0.950 . S
H106 C103 0.950 . S
C107 C98 1.390 1_565 S
C107 H100 0.950 . S
C107 C104 1.387 . S
C108 C109 1.387 1_554 S
C108 H112 0.950 . S
C108 C117 1.390 . S
C109 C108 1.387 1_556 S
C109 C111 1.387 . S
H110 C117 0.950 . S
C111 C109 1.387 . S
C111 C113 1.390 . S
C111 H115 0.950 . S
H112 C108 0.950 . S
C113 C111 1.390 . S
C113 C114 1.387 1_556 S
C113 H116 0.950 . S
C114 C113 1.387 1_554 S
C114 C117 1.387 . S
H115 C111 0.950 . S
H116 C113 0.950 . S
C117 C108 1.390 . S
C117 H110 0.950 . S
C117 C114 1.387 . S
C118 C119 1.387 1_455 S
C118 H122 0.950 . S
C118 C127 1.390 . S
C119 C118 1.387 1_655 S
C119 C121 1.387 . S
H120 C127 0.950 . S
C121 C119 1.387 . S
C121 C123 1.390 . S
C121 H125 0.950 . S
H122 C118 0.950 . S
C123 C121 1.390 . S
C123 C124 1.387 1_655 S
C123 H126 0.950 . S
C124 C123 1.387 1_455 S
C124 C127 1.387 . S
H125 C121 0.950 . S
H126 C123 0.950 . S
C127 C118 1.390 . S
C127 H120 0.950 . S
C127 C124 1.387 . S
C128 C129 1.387 . S
C128 H132 0.950 . S
C128 C137 1.390 1_545 S
C129 C128 1.387 . S
C129 C131 1.387 . S
H130 C137 0.950 . S
C131 C129 1.387 . S
C131 C133 1.390 1_545 S
C131 H135 0.950 . S
H132 C128 0.950 . S
C133 C131 1.390 1_565 S
C133 C134 1.387 . S
C133 H136 0.950 . S
C134 C133 1.387 . S
C134 C137 1.387 . S
H135 C131 0.950 . S
H136 C133 0.950 . S
C137 C128 1.390 1_565 S
C137 H130 0.950 . S
C137 C134 1.387 . S
C138 C139 1.387 . S
C138 H142 0.950 . S
C138 C147 1.390 . S
C139 C138 1.387 . S
C139 C141 1.387 . S
H140 C147 0.950 . S
C141 C139 1.387 . S
C141 C143 1.390 . S
C141 H145 0.950 . S
H142 C138 0.950 . S
C143 C141 1.390 . S
C143 C144 1.387 . S
C143 H146 0.950 . S
C144 C143 1.387 . S
C144 C147 1.387 . S
H145 C141 0.950 . S
H146 C143 0.950 . S
C147 C138 1.390 . S
C147 H140 0.950 . S
C147 C144 1.387 . S
C148 C149 1.387 . S
C148 H152 0.950 . S
C148 C157 1.390 . S
C149 C148 1.387 . S
C149 C151 1.387 . S
H150 C157 0.950 . S
C151 C149 1.387 . S
C151 C153 1.390 . S
C151 H155 0.950 . S
H152 C148 0.950 . S
C153 C151 1.390 . S
C153 C154 1.387 . S
C153 H156 0.950 . S
C154 C153 1.387 . S
C154 C157 1.387 . S
H155 C151 0.950 . S
H156 C153 0.950 . S
C157 C148 1.390 . S
C157 H150 0.950 . S
C157 C154 1.387 . S
C158 C159 1.387 . S
C158 H162 0.950 . S
C158 C167 1.390 . S
C159 C158 1.387 . S
C159 C161 1.387 . S
H160 C167 0.950 . S
C161 C159 1.387 . S
C161 C163 1.390 . S
C161 H165 0.950 . S
H162 C158 0.950 . S
C163 C161 1.390 . S
C163 C164 1.387 . S
C163 H166 0.950 . S
C164 C163 1.387 . S
C164 C167 1.387 . S
H165 C161 0.950 . S
H166 C163 0.950 . S
C167 C158 1.390 . S
C167 H160 0.950 . S
C167 C164 1.387 . S
C168 C169 1.387 . S
C168 H172 0.950 . S
C168 C177 1.390 . S
C169 C168 1.387 . S
C169 C171 1.387 1_554 S
H170 C177 0.950 . S
C171 C169 1.387 1_556 S
C171 C173 1.390 1_556 S
C171 H175 0.950 . S
H172 C168 0.950 . S
C173 C171 1.390 1_554 S
C173 C174 1.387 . S
C173 H176 0.950 1_554 S
C174 C173 1.387 . S
C174 C177 1.387 . S
H175 C171 0.950 . S
H176 C173 0.950 1_556 S
C177 C168 1.390 . S
C177 H170 0.950 . S
C177 C174 1.387 . S
C178 C179 1.387 . S
C178 H182 0.950 . S
C178 C187 1.390 . S
C179 C178 1.387 . S
C179 C181 1.387 . S
H180 C187 0.950 . S
C181 C179 1.387 . S
C181 C183 1.390 . S
C181 H185 0.950 . S
H182 C178 0.950 . S
C183 C181 1.390 . S
C183 C184 1.387 . S
C183 H186 0.950 . S
C184 C183 1.387 . S
C184 C187 1.387 . S
H185 C181 0.950 . S
H186 C183 0.950 . S
C187 C178 1.390 . S
C187 H180 0.950 . S
C187 C184 1.387 . S
C188 C189 1.387 . S
C188 H192 0.950 . S
C188 C197 1.390 . S
C189 C188 1.387 . S
C189 C191 1.387 . S
H190 C197 0.950 . S
C191 C189 1.387 . S
C191 C193 1.390 . S
C191 H195 0.950 . S
H192 C188 0.950 . S
C193 C191 1.390 . S
C193 C194 1.387 . S
C193 H196 0.950 . S
C194 C193 1.387 . S
C194 C197 1.387 . S
H195 C191 0.950 . S
H196 C193 0.950 . S
C197 C188 1.390 . S
C197 H190 0.950 . S
C197 C194 1.387 . S
C79 C5 1.873 . S
C84 C68 1.773 . S
C89 C18 1.794 . S
C94 C3 1.930 . S
C99 C16 1.755 . S
C104 C31 1.860 . S
C109 C44 1.691 . S
C114 C29 1.803 . S
C119 C42 1.762 . S
C124 C57 1.858 . S
C129 C70 1.789 . S
C134 C55 1.930 . S
C139 C53 1.732 . S
C144 C10 1.773 . S
C149 C66 1.732 . S
C154 C23 1.663 . S
C159 C36 1.786 . S
C164 C1 1.748 . S
C169 C49 1.622 . S
C174 C14 1.659 . S
C179 C62 1.709 . S
C184 C27 1.676 . S
C189 C75 1.676 . S
C194 C40 1.751 . S
