# Generated by pormake.
# Topology ilc, (8)-cn, num edge types: 1
# Building blocks:
#     Node 0, Type 0, BuildingBlock: EBIMEJ_clean_sbu_0, # of connection points: 8
#     Node 1, Type 0, BuildingBlock: EBIMEJ_clean_sbu_0, # of connection points: 8
#     Node 2, Type 0, BuildingBlock: EBIMEJ_clean_sbu_0, # of connection points: 8
#     Edge 3, Type (0, 0), None
#     Edge 4, Type (0, 0), None
#     Edge 5, Type (0, 0), None
#     Edge 6, Type (0, 0), None
#     Edge 7, Type (0, 0), None
#     Edge 8, Type (0, 0), None
#     Edge 9, Type (0, 0), None
#     Edge 10, Type (0, 0), None
#     Edge 11, Type (0, 0), None
#     Edge 12, Type (0, 0), None
#     Edge 13, Type (0, 0), None
#     Edge 14, Type (0, 0), None
# Relax obj value: 0.221
# Max RMSD: 0.235
# Mean RMSD: 0.235
data_MOF--net-ilc--node1-EBIMEJ_clean_sbu_0--edge1-none
_symmetry_space_group_name_H-M    P1
_symmetry_Int_Tables_number       1
_symmetry_cell_setting            triclinic
loop_
_symmetry_equiv_pos_as_xyz
'x, y, z'
_cell_length_a     13.666419
_cell_length_b     11.885861
_cell_length_c     8.92191
_cell_angle_alpha  87.72554
_cell_angle_beta   95.037882
_cell_angle_gamma 135.17482
loop_
_atom_site_label
_atom_site_type_symbol
_atom_site_fract_x
_atom_site_fract_y
_atom_site_fract_z
_atom_type_partial_charge
Co0 Co 0.98446 0.89766 0.30546 0.0
Co1 Co 0.08904 0.92184 1.01736 0.0
Co2 Co 0.9006 -0.01364 0.04936 0.0
H3 H 0.93086 0.90716 0.14406 0.0
O4 O 0.91878 0.83098 0.10763 0.0
H5 H 0.05909 0.00338 0.91292 0.0
O6 O 0.07146 0.07982 0.95132 0.0
Co7 Co -0.00135 0.01544 0.7479 0.0
O8 O 0.20727 0.11122 0.71672 0.0
O9 O 0.25558 0.0165 0.88927 0.0
O10 O 0.80166 0.94388 0.72347 0.0
O11 O 0.86233 0.10112 0.91058 0.0
O12 O 0.00935 0.90693 0.5195 0.0
O13 O 0.0093 0.90692 0.51913 0.0
O14 O 0.83662 0.77136 0.74204 0.0
O15 O 0.97629 0.74954 0.83834 0.0
C16 C 0.7167 0.80099 0.31497 0.0
C17 C 0.12463 0.80299 0.32409 0.0
C18 C 0.02757 0.0923 0.65861 0.0
C19 C 0.13241 0.22719 0.29473 0.0
C20 C 0.27712 0.08283 0.75952 0.0
C21 C 0.81682 0.05514 0.76889 0.0
C22 C 0.98965 -0.00212 0.52013 0.0
C23 C 0.87202 0.69741 0.74511 0.0
O24 O 0.7787 0.75729 0.3397 0.0
O25 O 0.74316 0.8854 0.19549 0.0
O26 O 0.11573 0.79786 0.17331 0.0
O27 O 0.10243 0.87207 0.39251 0.0
O28 O 0.96158 0.0586 0.53157 0.0
O29 O 0.14413 0.23615 0.68474 0.0
O30 O 0.1567 0.1418 0.3025 0.0
O31 O 0.02672 0.17568 0.2073 0.0
Co32 Co 0.65111 0.23101 0.63902 0.0
Co33 Co 0.75562 0.25512 0.35063 0.0
Co34 Co 0.56725 0.31964 0.3827 0.0
H35 H 0.59755 0.24051 0.47755 0.0
O36 O 0.58544 0.16432 0.44109 0.0
H37 H 0.72558 0.33655 0.24608 0.0
O38 O 0.73799 0.41302 0.28446 0.0
Co39 Co 0.66509 0.34852 0.08103 0.0
O40 O 0.87427 0.44549 0.05039 0.0
O41 O 0.92199 0.34967 0.22232 0.0
O42 O 0.46794 0.27654 0.05707 0.0
O43 O 0.52889 0.43422 0.24385 0.0
O44 O 0.67654 0.24009 0.85302 0.0
O45 O 0.67652 0.24008 0.85285 0.0
O46 O 0.5031 0.10445 0.07532 0.0
O47 O 0.64285 0.08276 0.17165 0.0
C48 C 0.38331 0.13423 0.64821 0.0
C49 C 0.7913 0.13632 0.65739 0.0
C50 C 0.69368 0.42499 0.99153 0.0
C51 C 0.79905 0.56051 0.62809 0.0
C52 C 0.94368 0.41635 0.09274 0.0
C53 C 0.48318 0.38795 0.10226 0.0
C54 C 0.65634 0.33059 0.85328 0.0
C55 C 0.53852 0.03052 0.07848 0.0
O56 O 0.44521 0.09041 0.67281 0.0
O57 O 0.40986 0.21878 0.52883 0.0
O58 O 0.78243 0.13124 0.5066 0.0
O59 O 0.76903 0.20528 0.72588 0.0
O60 O 0.62771 0.39075 0.86435 0.0
O61 O 0.80969 0.56922 1.01753 0.0
O62 O 0.82335 0.47513 0.63588 0.0
O63 O 0.69343 0.50907 0.54056 0.0
Co64 Co 0.31751 0.56394 0.97205 0.0
Co65 Co 0.42234 0.58847 0.68403 0.0
Co66 Co 0.23388 0.653 0.71597 0.0
H67 H 0.26404 0.57367 0.81065 0.0
O68 O 0.25197 0.49752 0.77415 0.0
H69 H 0.39235 0.66999 0.57957 0.0
O70 O 0.40473 0.74645 0.61794 0.0
Co71 Co 0.33176 0.68189 0.41456 0.0
O72 O 0.54022 0.77738 0.38315 0.0
O73 O 0.58904 0.68341 0.5561 0.0
O74 O 0.13476 0.61036 0.39025 0.0
O75 O 0.19567 0.76783 0.57726 0.0
O76 O 0.34251 0.57343 0.18607 0.0
O77 O 0.34246 0.57342 0.1857 0.0
O78 O 0.16978 0.43784 0.40886 0.0
O79 O 0.30973 0.41634 0.50486 0.0
C80 C 0.04982 0.46759 0.98141 0.0
C81 C 0.45768 0.46914 0.99066 0.0
C82 C 0.3606 0.75869 0.32526 0.0
C83 C 0.46557 0.8936 0.96148 0.0
C84 C 0.61042 0.7495 0.42622 0.0
C85 C 0.15004 0.72174 0.43561 0.0
C86 C 0.32264 0.66422 0.18677 0.0
C87 C 0.20532 0.36403 0.41181 0.0
O88 O 0.11171 0.42374 1.00611 0.0
O89 O 0.07642 0.55212 0.862 0.0
O90 O 0.449 0.46431 0.83987 0.0
O91 O 0.43529 0.53801 0.05911 0.0
O92 O 0.29452 0.72483 0.19823 0.0
O93 O 0.47698 0.90266 0.35131 0.0
O94 O 0.48978 0.80813 0.96932 0.0
O95 O 0.35999 0.84226 0.87393 0.0
loop_
_geom_bond_atom_site_label_1
_geom_bond_atom_site_label_2
_geom_bond_distance
_geom_bond_site_symmetry_2
_ccdc_geom_bond_type
Co0 H3 2.400 . S
Co0 O4 2.009 . S
Co0 O12 2.115 . S
Co0 O13 2.315 . S
Co0 O24 2.053 . S
Co0 O27 2.094 1_655 S
Co0 O30 2.122 1_665 S
Co1 O4 2.126 1_456 S
Co1 H5 2.388 1_565 S
Co1 O6 2.053 1_565 S
Co1 O9 2.047 1_565 S
Co1 O15 2.113 1_455 S
Co1 O26 2.063 1_556 S
Co2 H3 2.388 1_545 S
Co2 O4 2.053 1_545 S
Co2 O6 2.126 1_654 S
Co2 O11 2.063 1_554 S
Co2 O25 2.047 1_545 S
Co2 O31 2.113 1_655 S
H3 Co0 2.400 . S
H3 Co2 2.388 1_565 S
H3 O4 0.760 . S
O4 Co0 2.009 . S
O4 Co1 2.126 1_654 S
O4 Co2 2.053 1_565 S
O4 H3 0.760 . S
H5 Co1 2.388 1_545 S
H5 O6 0.760 . S
H5 Co7 2.400 . S
O6 Co1 2.053 1_545 S
O6 Co2 2.126 1_456 S
O6 H5 0.760 . S
O6 Co7 2.009 . S
Co7 H5 2.400 . S
Co7 O6 2.009 . S
Co7 O8 2.053 . S
Co7 O10 2.094 1_455 S
Co7 O14 2.122 1_445 S
Co7 O28 2.115 . S
Co7 O29 2.315 . S
O8 Co7 2.053 . S
O8 C20 1.259 . S
O9 Co1 2.047 1_545 S
O9 C20 1.257 . S
O10 Co7 2.094 1_655 S
O10 C21 1.253 . S
O11 Co2 2.063 1_556 S
O11 C21 1.268 . S
O12 Co0 2.115 . S
O12 C22 1.281 . S
O13 Co0 2.315 . S
O13 C22 1.252 . S
O14 Co7 2.122 1_665 S
O14 C23 1.272 . S
O15 Co1 2.113 1_655 S
O15 C23 1.245 . S
C16 O24 1.259 . S
C16 O25 1.257 . S
C17 O26 1.268 . S
C17 O27 1.253 . S
C18 O28 1.281 . S
C18 O29 1.252 . S
C19 O30 1.272 . S
C19 O31 1.245 . S
C20 O8 1.259 . S
C20 O9 1.257 . S
C21 O10 1.253 . S
C21 O11 1.268 . S
C22 O12 1.281 . S
C22 O13 1.252 . S
C23 O14 1.272 . S
C23 O15 1.245 . S
O24 Co0 2.053 . S
O24 C16 1.259 . S
O25 Co2 2.047 1_565 S
O25 C16 1.257 . S
O26 Co1 2.063 1_554 S
O26 C17 1.268 . S
O27 Co0 2.094 1_455 S
O27 C17 1.253 . S
O28 Co7 2.115 . S
O28 C18 1.281 . S
O29 Co7 2.315 . S
O29 C18 1.252 . S
O30 Co0 2.122 1_445 S
O30 C19 1.272 . S
O31 Co2 2.113 1_455 S
O31 C19 1.245 . S
Co32 H35 2.400 . S
Co32 O36 2.009 . S
Co32 O44 2.115 . S
Co32 O45 2.315 . S
Co32 O56 2.053 . S
Co32 O59 2.094 . S
Co32 O62 2.122 . S
Co33 O36 2.126 . S
Co33 H37 2.388 . S
Co33 O38 2.053 . S
Co33 O41 2.047 . S
Co33 O47 2.113 . S
Co33 O58 2.063 . S
Co34 H35 2.388 . S
Co34 O36 2.053 . S
Co34 O38 2.126 . S
Co34 O43 2.063 . S
Co34 O57 2.047 . S
Co34 O63 2.113 . S
H35 Co32 2.400 . S
H35 Co34 2.388 . S
H35 O36 0.760 . S
O36 Co32 2.009 . S
O36 Co33 2.126 . S
O36 Co34 2.053 . S
O36 H35 0.760 . S
H37 Co33 2.388 . S
H37 O38 0.760 . S
H37 Co39 2.400 . S
O38 Co33 2.053 . S
O38 Co34 2.126 . S
O38 H37 0.760 . S
O38 Co39 2.009 . S
Co39 H37 2.400 . S
Co39 O38 2.009 . S
Co39 O40 2.053 . S
Co39 O42 2.094 . S
Co39 O46 2.122 1_554 S
Co39 O60 2.115 1_554 S
Co39 O61 2.315 1_554 S
O40 Co39 2.053 . S
O40 C52 1.259 . S
O41 Co33 2.047 . S
O41 C52 1.257 . S
O42 Co39 2.094 . S
O42 C53 1.253 . S
O43 Co34 2.063 . S
O43 C53 1.268 . S
O44 Co32 2.115 . S
O44 C54 1.281 . S
O45 Co32 2.315 . S
O45 C54 1.252 . S
O46 Co39 2.122 1_556 S
O46 C55 1.272 1_556 S
O47 Co33 2.113 . S
O47 C55 1.245 . S
C48 O56 1.259 . S
C48 O57 1.257 . S
C49 O58 1.268 . S
C49 O59 1.253 . S
C50 O60 1.281 . S
C50 O61 1.252 . S
C51 O62 1.272 . S
C51 O63 1.245 . S
C52 O40 1.259 . S
C52 O41 1.257 . S
C53 O42 1.253 . S
C53 O43 1.268 . S
C54 O44 1.281 . S
C54 O45 1.252 . S
C55 O46 1.272 1_554 S
C55 O47 1.245 . S
O56 Co32 2.053 . S
O56 C48 1.259 . S
O57 Co34 2.047 . S
O57 C48 1.257 . S
O58 Co33 2.063 . S
O58 C49 1.268 . S
O59 Co32 2.094 . S
O59 C49 1.253 . S
O60 Co39 2.115 1_556 S
O60 C50 1.281 . S
O61 Co39 2.315 1_556 S
O61 C50 1.252 . S
O62 Co32 2.122 . S
O62 C51 1.272 . S
O63 Co34 2.113 . S
O63 C51 1.245 . S
Co64 H67 2.400 . S
Co64 O68 2.009 . S
Co64 O76 2.115 1_556 S
Co64 O77 2.315 1_556 S
Co64 O88 2.053 . S
Co64 O91 2.094 . S
Co64 O94 2.122 1_556 S
Co65 O68 2.126 . S
Co65 H69 2.388 . S
Co65 O70 2.053 . S
Co65 O73 2.047 . S
Co65 O79 2.113 . S
Co65 O90 2.063 . S
Co66 H67 2.388 . S
Co66 O68 2.053 . S
Co66 O70 2.126 . S
Co66 O75 2.063 . S
Co66 O89 2.047 . S
Co66 O95 2.113 . S
H67 Co64 2.400 . S
H67 Co66 2.388 . S
H67 O68 0.760 . S
O68 Co64 2.009 . S
O68 Co65 2.126 . S
O68 Co66 2.053 . S
O68 H67 0.760 . S
H69 Co65 2.388 . S
H69 O70 0.760 . S
H69 Co71 2.400 . S
O70 Co65 2.053 . S
O70 Co66 2.126 . S
O70 H69 0.760 . S
O70 Co71 2.009 . S
Co71 H69 2.400 . S
Co71 O70 2.009 . S
Co71 O72 2.053 . S
Co71 O74 2.094 . S
Co71 O78 2.122 . S
Co71 O92 2.115 . S
Co71 O93 2.315 . S
O72 Co71 2.053 . S
O72 C84 1.259 . S
O73 Co65 2.047 . S
O73 C84 1.257 . S
O74 Co71 2.094 . S
O74 C85 1.253 . S
O75 Co66 2.063 . S
O75 C85 1.268 . S
O76 Co64 2.115 1_554 S
O76 C86 1.281 . S
O77 Co64 2.315 1_554 S
O77 C86 1.252 . S
O78 Co71 2.122 . S
O78 C87 1.272 . S
O79 Co65 2.113 . S
O79 C87 1.245 . S
C80 O88 1.259 . S
C80 O89 1.257 . S
C81 O90 1.268 . S
C81 O91 1.253 . S
C82 O92 1.281 . S
C82 O93 1.252 . S
C83 O94 1.272 1_556 S
C83 O95 1.245 . S
C84 O72 1.259 . S
C84 O73 1.257 . S
C85 O74 1.253 . S
C85 O75 1.268 . S
C86 O76 1.281 . S
C86 O77 1.252 . S
C87 O78 1.272 . S
C87 O79 1.245 . S
O88 Co64 2.053 . S
O88 C80 1.259 . S
O89 Co66 2.047 . S
O89 C80 1.257 . S
O90 Co65 2.063 . S
O90 C81 1.268 . S
O91 Co64 2.094 . S
O91 C81 1.253 . S
O92 Co71 2.115 . S
O92 C82 1.281 . S
O93 Co71 2.315 . S
O93 C82 1.252 . S
O94 Co64 2.122 1_554 S
O94 C83 1.272 1_554 S
O95 Co66 2.113 . S
O95 C83 1.245 . S
C18 C22 3.482 1_445 S
C54 C50 3.482 . S
C86 C82 3.482 . S
C85 C17 2.928 . S
C87 C19 1.346 . S
C84 C16 2.364 . S
C49 C21 2.929 . S
C51 C23 1.348 . S
C48 C20 2.364 . S
C53 C81 2.928 1_554 S
C83 C55 1.347 1_566 S
C80 C52 2.364 1_456 S
