# Generated by pormake.
# Topology uki, (4)-cn, num edge types: 1
# Building blocks:
#     Node 0, Type 0, BuildingBlock: CEKHIL_clean_sbu_0, # of connection points: 4
#     Node 1, Type 0, BuildingBlock: CEKHIL_clean_sbu_0, # of connection points: 4
#     Node 2, Type 0, BuildingBlock: CEKHIL_clean_sbu_0, # of connection points: 4
#     Node 3, Type 0, BuildingBlock: CEKHIL_clean_sbu_0, # of connection points: 4
#     Node 4, Type 0, BuildingBlock: CEKHIL_clean_sbu_0, # of connection points: 4
#     Node 5, Type 0, BuildingBlock: CEKHIL_clean_sbu_0, # of connection points: 4
#     Node 6, Type 0, BuildingBlock: CEKHIL_clean_sbu_0, # of connection points: 4
#     Node 7, Type 0, BuildingBlock: CEKHIL_clean_sbu_0, # of connection points: 4
#     Node 8, Type 0, BuildingBlock: CEKHIL_clean_sbu_0, # of connection points: 4
#     Node 9, Type 0, BuildingBlock: CEKHIL_clean_sbu_0, # of connection points: 4
#     Node 10, Type 0, BuildingBlock: CEKHIL_clean_sbu_0, # of connection points: 4
#     Node 11, Type 0, BuildingBlock: CEKHIL_clean_sbu_0, # of connection points: 4
#     Node 12, Type 0, BuildingBlock: CEKHIL_clean_sbu_0, # of connection points: 4
#     Node 13, Type 0, BuildingBlock: CEKHIL_clean_sbu_0, # of connection points: 4
#     Node 14, Type 0, BuildingBlock: CEKHIL_clean_sbu_0, # of connection points: 4
#     Node 15, Type 0, BuildingBlock: CEKHIL_clean_sbu_0, # of connection points: 4
#     Edge 16, Type (0, 0), None
#     Edge 17, Type (0, 0), None
#     Edge 18, Type (0, 0), None
#     Edge 19, Type (0, 0), None
#     Edge 20, Type (0, 0), None
#     Edge 21, Type (0, 0), None
#     Edge 22, Type (0, 0), None
#     Edge 23, Type (0, 0), None
#     Edge 24, Type (0, 0), None
#     Edge 25, Type (0, 0), None
#     Edge 26, Type (0, 0), None
#     Edge 27, Type (0, 0), None
#     Edge 28, Type (0, 0), None
#     Edge 29, Type (0, 0), None
#     Edge 30, Type (0, 0), None
#     Edge 31, Type (0, 0), None
#     Edge 32, Type (0, 0), None
#     Edge 33, Type (0, 0), None
#     Edge 34, Type (0, 0), None
#     Edge 35, Type (0, 0), None
#     Edge 36, Type (0, 0), None
#     Edge 37, Type (0, 0), None
#     Edge 38, Type (0, 0), None
#     Edge 39, Type (0, 0), None
#     Edge 40, Type (0, 0), None
#     Edge 41, Type (0, 0), None
#     Edge 42, Type (0, 0), None
#     Edge 43, Type (0, 0), None
#     Edge 44, Type (0, 0), None
#     Edge 45, Type (0, 0), None
#     Edge 46, Type (0, 0), None
#     Edge 47, Type (0, 0), None
# Relax obj value: 0.093
# Max RMSD: 0.189
# Mean RMSD: 0.189
data_MOF--net-uki--node1-CEKHIL_clean_sbu_0--edge1-none
_symmetry_space_group_name_H-M    P1
_symmetry_Int_Tables_number       1
_symmetry_cell_setting            triclinic
loop_
_symmetry_equiv_pos_as_xyz
'x, y, z'
_cell_length_a     13.224492
_cell_length_b     13.22455
_cell_length_c     32.695916
_cell_angle_alpha  90.000021
_cell_angle_beta   90.000017
_cell_angle_gamma 90.000025
loop_
_atom_site_label
_atom_site_type_symbol
_atom_site_fract_x
_atom_site_fract_y
_atom_site_fract_z
_atom_type_partial_charge
Co0 Co 0.13555 0.21588 0.30919 0.0
O1 O 0.2657 0.17071 0.33211 0.0
O2 O 0.12713 0.17889 0.36797 0.0
C3 C 0.19714 0.36111 0.28118 0.0
O4 O 0.99066 0.26161 0.29188 0.0
Co5 Co 0.12508 0.22889 0.21334 0.0
O6 O 0.03062 0.33424 0.23226 0.0
C7 C 0.04043 0.05192 0.25795 0.0
C8 C 0.22487 0.16418 0.36774 0.0
C9 C 0.96532 0.31041 0.25901 0.0
O10 O 0.08973 0.07663 0.2907 0.0
O11 O 0.04915 0.09956 0.224 0.0
O12 O 0.17494 0.35304 0.31947 0.0
O13 O 0.19622 0.27599 0.26133 0.0
Co14 Co 0.21589 0.87845 0.71451 0.0
O15 O 0.17072 0.7483 0.69159 0.0
O16 O 0.17891 0.88687 0.65573 0.0
C17 C 0.36111 0.81686 0.74252 0.0
O18 O 0.26163 0.02334 0.73182 0.0
Co19 Co 0.22889 0.88893 0.81036 0.0
O20 O 0.33425 0.98338 0.79144 0.0
C21 C 0.05193 0.97359 0.76574 0.0
C22 C 0.16419 0.78913 0.65596 0.0
C23 C 0.31043 0.04868 0.76469 0.0
O24 O 0.07665 0.92428 0.73299 0.0
O25 O 0.09958 0.96487 0.7997 0.0
O26 O 0.35306 0.83905 0.70423 0.0
O27 O 0.27599 0.81778 0.76237 0.0
Co28 Co 0.87848 0.79811 0.30918 0.0
O29 O 0.74832 0.84328 0.33211 0.0
O30 O 0.88689 0.8351 0.36797 0.0
C31 C 0.81689 0.65289 0.28117 0.0
O32 O 0.02336 0.75238 0.29188 0.0
Co33 Co 0.88893 0.78512 0.21333 0.0
O34 O 0.9834 0.67977 0.23225 0.0
C35 C 0.9736 0.96208 0.25795 0.0
C36 C 0.78916 0.84981 0.36774 0.0
C37 C 0.0487 0.70359 0.259 0.0
O38 O 0.92429 0.93736 0.2907 0.0
O39 O 0.96487 0.91444 0.22399 0.0
O40 O 0.83908 0.66095 0.31947 0.0
O41 O 0.8178 0.73801 0.26133 0.0
Co42 Co 0.79813 0.13553 0.71451 0.0
O43 O 0.8433 0.26568 0.69158 0.0
O44 O 0.83512 0.12712 0.65572 0.0
C45 C 0.65291 0.19712 0.74252 0.0
O46 O 0.7524 0.99066 0.73182 0.0
Co47 Co 0.78515 0.12511 0.81036 0.0
O48 O 0.67981 0.03062 0.79145 0.0
C49 C 0.9621 0.04042 0.76574 0.0
C50 C 0.84982 0.22485 0.65595 0.0
C51 C 0.70362 0.96532 0.7647 0.0
O52 O 0.93738 0.08972 0.73299 0.0
O53 O 0.91446 0.04916 0.7997 0.0
O54 O 0.66097 0.17493 0.70422 0.0
O55 O 0.73803 0.19622 0.76236 0.0
Co56 Co 0.13555 0.29811 0.96452 0.0
O57 O 0.26572 0.34325 0.9416 0.0
O58 O 0.12717 0.33509 0.90573 0.0
C59 C 0.1971 0.15287 0.99253 0.0
O60 O 0.99066 0.2524 0.98182 0.0
Co61 Co 0.12506 0.28513 0.06037 0.0
O62 O 0.0306 0.17978 0.04144 0.0
C63 C 0.04047 0.46212 0.01574 0.0
C64 C 0.2249 0.34978 0.90596 0.0
C65 C 0.9653 0.20361 0.01469 0.0
O66 O 0.08975 0.43737 0.983 0.0
O67 O 0.04917 0.41448 0.04971 0.0
O68 O 0.17493 0.16093 0.95424 0.0
O69 O 0.1962 0.23799 0.01238 0.0
Co70 Co 0.29808 0.87851 0.05919 0.0
O71 O 0.34323 0.74832 0.08209 0.0
O72 O 0.33511 0.88686 0.11797 0.0
C73 C 0.15283 0.81694 0.03119 0.0
O74 O 0.25238 0.02344 0.04194 0.0
Co75 Co 0.28487 0.88931 0.96335 0.0
O76 O 0.1794 0.98352 0.98239 0.0
C77 C 0.46202 0.97368 1.00795 0.0
C78 C 0.3498 0.78912 0.11773 0.0
C79 C 0.20339 0.04881 1.00911 0.0
O80 O 0.43732 0.92434 0.04069 0.0
O81 O 0.4143 0.9651 0.97401 0.0
O82 O 0.16091 0.8391 0.06948 0.0
O83 O 0.23792 0.81793 1.01132 0.0
Co84 Co 0.87849 0.71591 0.96451 0.0
O85 O 0.74832 0.67074 0.9416 0.0
O86 O 0.88686 0.6789 0.90573 0.0
C87 C 0.81688 0.86114 0.99251 0.0
O88 O 0.02339 0.76163 0.98178 0.0
Co89 Co 0.88918 0.72906 0.06035 0.0
O90 O 0.98346 0.83451 0.04136 0.0
C91 C 0.97368 0.55199 0.01574 0.0
C92 C 0.78913 0.6642 0.90596 0.0
C93 C 0.04875 0.81057 0.01462 0.0
O94 O 0.92433 0.57667 0.983 0.0
O95 O 0.96504 0.59969 0.04969 0.0
O96 O 0.83907 0.85306 0.95422 0.0
O97 O 0.81786 0.77604 0.01237 0.0
Co98 Co 0.71592 0.13548 0.0592 0.0
O99 O 0.67082 0.26568 0.0821 0.0
O100 O 0.67886 0.12712 0.11798 0.0
C101 C 0.86121 0.19694 0.03122 0.0
O102 O 0.76155 0.99056 0.04191 0.0
Co103 Co 0.72907 0.12483 0.96337 0.0
O104 O 0.83447 0.03049 0.98235 0.0
C105 C 0.55194 0.04042 1.00795 0.0
C106 C 0.66422 0.22487 0.11774 0.0
C107 C 0.81051 0.9652 1.00908 0.0
O108 O 0.57665 0.08977 0.04069 0.0
O109 O 0.59965 0.04903 0.974 0.0
O110 O 0.85309 0.17476 0.06951 0.0
O111 O 0.77613 0.19612 1.01134 0.0
Co112 Co 0.63545 0.71593 0.8092 0.0
O113 O 0.76566 0.67083 0.8321 0.0
O114 O 0.62709 0.67885 0.86798 0.0
C115 C 0.69692 0.86123 0.78122 0.0
O116 O 0.49052 0.76156 0.79193 0.0
Co117 Co 0.62474 0.72913 0.71337 0.0
O118 O 0.53046 0.83455 0.73238 0.0
C119 C 0.54038 0.55196 0.75795 0.0
C120 C 0.72484 0.66426 0.86774 0.0
C121 C 0.46516 0.81055 0.7591 0.0
O122 O 0.58973 0.57667 0.79069 0.0
O123 O 0.54896 0.59969 0.72401 0.0
O124 O 0.67473 0.8531 0.81952 0.0
O125 O 0.69608 0.77615 0.76135 0.0
Co126 Co 0.71594 0.37855 0.2145 0.0
O127 O 0.67084 0.24834 0.1916 0.0
O128 O 0.67888 0.38691 0.15572 0.0
C129 C 0.86124 0.31708 0.24248 0.0
O130 O 0.76158 0.52348 0.23177 0.0
Co131 Co 0.72913 0.38927 0.31033 0.0
O132 O 0.83457 0.48354 0.29132 0.0
C133 C 0.55197 0.47364 0.26574 0.0
C134 C 0.66428 0.28916 0.15597 0.0
C135 C 0.81057 0.54884 0.26459 0.0
O136 O 0.57668 0.42428 0.23301 0.0
O137 O 0.59971 0.46506 0.29969 0.0
O138 O 0.85312 0.33926 0.20419 0.0
O139 O 0.77615 0.31793 0.26236 0.0
Co140 Co 0.37857 0.29807 0.8092 0.0
O141 O 0.24837 0.34316 0.8321 0.0
O142 O 0.38694 0.33513 0.86798 0.0
C143 C 0.31711 0.15277 0.78122 0.0
O144 O 0.5235 0.25244 0.79192 0.0
Co145 Co 0.38927 0.28488 0.71337 0.0
O146 O 0.48356 0.17945 0.73238 0.0
C147 C 0.47365 0.46203 0.75795 0.0
C148 C 0.28918 0.34972 0.86773 0.0
C149 C 0.54886 0.20345 0.7591 0.0
O150 O 0.4243 0.43733 0.79069 0.0
O151 O 0.46507 0.41431 0.724 0.0
O152 O 0.33929 0.16089 0.81951 0.0
O153 O 0.31795 0.23785 0.76134 0.0
Co154 Co 0.29808 0.63544 0.21449 0.0
O155 O 0.34318 0.76564 0.19159 0.0
O156 O 0.33515 0.62707 0.15571 0.0
C157 C 0.15279 0.69691 0.24247 0.0
O158 O 0.25245 0.49051 0.23177 0.0
Co159 Co 0.28491 0.62477 0.31032 0.0
O160 O 0.17949 0.53046 0.29133 0.0
C161 C 0.46206 0.54037 0.26574 0.0
C162 C 0.34974 0.72483 0.15596 0.0
C163 C 0.20348 0.46516 0.2646 0.0
O164 O 0.43735 0.58972 0.233 0.0
O165 O 0.41434 0.54897 0.29969 0.0
O166 O 0.16091 0.67472 0.20418 0.0
O167 O 0.23787 0.69607 0.26235 0.0
Co168 Co 0.63555 0.79811 0.46452 0.0
O169 O 0.76573 0.84324 0.44161 0.0
O170 O 0.62715 0.8351 0.40574 0.0
C171 C 0.6971 0.65287 0.49254 0.0
O172 O 0.49066 0.75241 0.48182 0.0
Co173 Co 0.62505 0.78512 0.56037 0.0
O174 O 0.53059 0.67977 0.54144 0.0
C175 C 0.54047 0.96212 0.51575 0.0
C176 C 0.72489 0.84974 0.40597 0.0
C177 C 0.4653 0.7036 0.51469 0.0
O178 O 0.58976 0.93737 0.483 0.0
O179 O 0.54917 0.91447 0.54971 0.0
O180 O 0.67492 0.66093 0.45424 0.0
O181 O 0.6962 0.73799 0.51238 0.0
Co182 Co 0.79808 0.37851 0.55919 0.0
O183 O 0.84323 0.24832 0.58208 0.0
O184 O 0.83512 0.38688 0.61797 0.0
C185 C 0.65283 0.31694 0.53118 0.0
O186 O 0.75239 0.52344 0.54193 0.0
Co187 Co 0.78487 0.38932 0.46335 0.0
O188 O 0.6794 0.48352 0.48239 0.0
C189 C 0.96202 0.47368 0.50795 0.0
C190 C 0.84976 0.28913 0.61772 0.0
C191 C 0.70339 0.54881 0.50911 0.0
O192 O 0.93732 0.42433 0.54069 0.0
O193 O 0.91429 0.4651 0.474 0.0
O194 O 0.66092 0.33911 0.56948 0.0
O195 O 0.73792 0.31793 0.51132 0.0
Co196 Co 0.37849 0.2159 0.46451 0.0
O197 O 0.24831 0.17073 0.44161 0.0
O198 O 0.38688 0.17888 0.40573 0.0
C199 C 0.31689 0.36113 0.49252 0.0
O200 O 0.5234 0.26162 0.48179 0.0
Co201 Co 0.38919 0.22907 0.56036 0.0
O202 O 0.48347 0.33451 0.54136 0.0
C203 C 0.47368 0.05199 0.51575 0.0
C204 C 0.28914 0.16423 0.40598 0.0
C205 C 0.54876 0.31057 0.51462 0.0
O206 O 0.42432 0.07667 0.48301 0.0
O207 O 0.46505 0.0997 0.5497 0.0
O208 O 0.33907 0.35306 0.45422 0.0
O209 O 0.31787 0.27604 0.51238 0.0
Co210 Co 0.21591 0.63548 0.55919 0.0
O211 O 0.17082 0.76568 0.58209 0.0
O212 O 0.17884 0.6271 0.61797 0.0
C213 C 0.36121 0.69694 0.53121 0.0
O214 O 0.26155 0.49056 0.54191 0.0
Co215 Co 0.22908 0.62482 0.46336 0.0
O216 O 0.33448 0.53049 0.48235 0.0
C217 C 0.05194 0.54042 0.50794 0.0
C218 C 0.16426 0.72486 0.61773 0.0
C219 C 0.31051 0.4652 0.50908 0.0
O220 O 0.07665 0.58977 0.54068 0.0
O221 O 0.09966 0.54902 0.474 0.0
O222 O 0.35309 0.67475 0.56951 0.0
O223 O 0.27613 0.69612 0.51134 0.0
loop_
_geom_bond_atom_site_label_1
_geom_bond_atom_site_label_2
_geom_bond_distance
_geom_bond_site_symmetry_2
_ccdc_geom_bond_type
Co0 O1 2.216 . S
Co0 O2 2.091 . S
Co0 O4 2.004 1_455 S
Co0 O10 2.021 . S
Co0 O12 2.137 . S
Co0 O13 2.244 . S
O1 Co0 2.216 . S
O1 C8 1.247 . S
O2 Co0 2.091 . S
O2 C8 1.261 . S
C3 O12 1.247 . S
C3 O13 1.272 . S
O4 Co0 2.004 1_655 S
O4 C9 1.259 . S
Co5 O6 2.061 1_455 S
Co5 O11 2.052 . S
Co5 O13 2.135 . S
O6 Co5 2.061 1_655 S
O6 C9 1.235 . S
C7 O10 1.238 . S
C7 O11 1.241 . S
C8 O1 1.247 . S
C8 O2 1.261 . S
C9 O4 1.259 . S
C9 O6 1.235 . S
O10 Co0 2.021 . S
O10 C7 1.238 . S
O11 Co5 2.052 . S
O11 C7 1.241 . S
O12 Co0 2.137 . S
O12 C3 1.247 . S
O13 Co0 2.244 . S
O13 C3 1.272 . S
O13 Co5 2.135 . S
Co14 O15 2.216 . S
Co14 O16 2.091 . S
Co14 O18 2.004 1_565 S
Co14 O24 2.021 . S
Co14 O26 2.137 . S
Co14 O27 2.244 . S
O15 Co14 2.216 . S
O15 C22 1.247 . S
O16 Co14 2.091 . S
O16 C22 1.261 . S
C17 O26 1.247 . S
C17 O27 1.272 . S
O18 Co14 2.004 1_545 S
O18 C23 1.259 . S
Co19 O20 2.061 1_565 S
Co19 O25 2.052 . S
Co19 O27 2.135 . S
O20 Co19 2.061 1_545 S
O20 C23 1.235 . S
C21 O24 1.238 . S
C21 O25 1.241 . S
C22 O15 1.247 . S
C22 O16 1.261 . S
C23 O18 1.259 . S
C23 O20 1.235 . S
O24 Co14 2.021 . S
O24 C21 1.238 . S
O25 Co19 2.052 . S
O25 C21 1.241 . S
O26 Co14 2.137 . S
O26 C17 1.247 . S
O27 Co14 2.244 . S
O27 C17 1.272 . S
O27 Co19 2.135 . S
Co28 O29 2.216 . S
Co28 O30 2.091 . S
Co28 O32 2.004 1_655 S
Co28 O38 2.021 . S
Co28 O40 2.137 . S
Co28 O41 2.244 . S
O29 Co28 2.216 . S
O29 C36 1.247 . S
O30 Co28 2.091 . S
O30 C36 1.261 . S
C31 O40 1.247 . S
C31 O41 1.272 . S
O32 Co28 2.004 1_455 S
O32 C37 1.259 . S
Co33 O34 2.061 1_655 S
Co33 O39 2.052 . S
Co33 O41 2.135 . S
O34 Co33 2.061 1_455 S
O34 C37 1.235 . S
C35 O38 1.238 . S
C35 O39 1.241 . S
C36 O29 1.247 . S
C36 O30 1.261 . S
C37 O32 1.259 . S
C37 O34 1.235 . S
O38 Co28 2.021 . S
O38 C35 1.238 . S
O39 Co33 2.052 . S
O39 C35 1.241 . S
O40 Co28 2.137 . S
O40 C31 1.247 . S
O41 Co28 2.244 . S
O41 C31 1.272 . S
O41 Co33 2.135 . S
Co42 O43 2.216 . S
Co42 O44 2.091 . S
Co42 O46 2.004 1_545 S
Co42 O52 2.021 . S
Co42 O54 2.137 . S
Co42 O55 2.244 . S
O43 Co42 2.216 . S
O43 C50 1.247 . S
O44 Co42 2.091 . S
O44 C50 1.261 . S
C45 O54 1.247 . S
C45 O55 1.272 . S
O46 Co42 2.004 1_565 S
O46 C51 1.259 . S
Co47 O48 2.061 1_545 S
Co47 O53 2.052 . S
Co47 O55 2.135 . S
O48 Co47 2.061 1_565 S
O48 C51 1.235 . S
C49 O52 1.238 . S
C49 O53 1.241 . S
C50 O43 1.247 . S
C50 O44 1.261 . S
C51 O46 1.259 . S
C51 O48 1.235 . S
O52 Co42 2.021 . S
O52 C49 1.238 . S
O53 Co47 2.052 . S
O53 C49 1.241 . S
O54 Co42 2.137 . S
O54 C45 1.247 . S
O55 Co42 2.244 . S
O55 C45 1.272 . S
O55 Co47 2.135 . S
Co56 O57 2.216 . S
Co56 O58 2.091 . S
Co56 O60 2.004 1_455 S
Co56 O66 2.021 . S
Co56 O68 2.137 . S
Co56 O69 2.244 1_556 S
O57 Co56 2.216 . S
O57 C64 1.247 . S
O58 Co56 2.091 . S
O58 C64 1.261 . S
C59 O68 1.247 1_554 S
C59 O69 1.272 . S
O60 Co56 2.004 1_655 S
O60 C65 1.259 . S
Co61 O62 2.061 1_455 S
Co61 O67 2.052 . S
Co61 O69 2.135 . S
O62 Co61 2.061 1_655 S
O62 C65 1.235 1_554 S
C63 O66 1.238 . S
C63 O67 1.241 1_556 S
C64 O57 1.247 . S
C64 O58 1.261 . S
C65 O60 1.259 . S
C65 O62 1.235 1_556 S
O66 Co56 2.021 . S
O66 C63 1.238 . S
O67 Co61 2.052 . S
O67 C63 1.241 1_554 S
O68 Co56 2.137 . S
O68 C59 1.247 1_556 S
O69 Co56 2.244 1_554 S
O69 C59 1.272 . S
O69 Co61 2.135 . S
Co70 O71 2.216 . S
Co70 O72 2.091 . S
Co70 O74 2.004 1_565 S
Co70 O80 2.021 . S
Co70 O82 2.137 . S
Co70 O83 2.244 1_554 S
O71 Co70 2.216 . S
O71 C78 1.247 . S
O72 Co70 2.091 . S
O72 C78 1.261 . S
C73 O82 1.247 1_556 S
C73 O83 1.272 . S
O74 Co70 2.004 1_545 S
O74 C79 1.259 . S
Co75 O76 2.061 1_565 S
Co75 O81 2.052 . S
Co75 O83 2.135 . S
O76 Co75 2.061 1_545 S
O76 C79 1.235 1_556 S
C77 O80 1.238 . S
C77 O81 1.241 1_554 S
C78 O71 1.247 . S
C78 O72 1.261 . S
C79 O74 1.259 . S
C79 O76 1.235 1_554 S
O80 Co70 2.021 . S
O80 C77 1.238 . S
O81 Co75 2.052 . S
O81 C77 1.241 1_556 S
O82 Co70 2.137 . S
O82 C73 1.247 1_554 S
O83 Co70 2.244 1_556 S
O83 C73 1.272 . S
O83 Co75 2.135 . S
Co84 O85 2.216 . S
Co84 O86 2.091 . S
Co84 O88 2.004 1_655 S
Co84 O94 2.021 . S
Co84 O96 2.137 . S
Co84 O97 2.244 1_556 S
O85 Co84 2.216 . S
O85 C92 1.247 . S
O86 Co84 2.091 . S
O86 C92 1.261 . S
C87 O96 1.247 1_554 S
C87 O97 1.272 . S
O88 Co84 2.004 1_455 S
O88 C93 1.259 . S
Co89 O90 2.061 1_655 S
Co89 O95 2.052 . S
Co89 O97 2.135 . S
O90 Co89 2.061 1_455 S
O90 C93 1.235 1_554 S
C91 O94 1.238 . S
C91 O95 1.241 1_556 S
C92 O85 1.247 . S
C92 O86 1.261 . S
C93 O88 1.259 . S
C93 O90 1.235 1_556 S
O94 Co84 2.021 . S
O94 C91 1.238 . S
O95 Co89 2.052 . S
O95 C91 1.241 1_554 S
O96 Co84 2.137 . S
O96 C87 1.247 1_556 S
O97 Co84 2.244 1_554 S
O97 C87 1.272 . S
O97 Co89 2.135 . S
Co98 O99 2.216 . S
Co98 O100 2.091 . S
Co98 O102 2.004 1_545 S
Co98 O108 2.021 . S
Co98 O110 2.137 . S
Co98 O111 2.244 1_554 S
O99 Co98 2.216 . S
O99 C106 1.247 . S
O100 Co98 2.091 . S
O100 C106 1.261 . S
C101 O110 1.247 1_556 S
C101 O111 1.272 . S
O102 Co98 2.004 1_565 S
O102 C107 1.259 . S
Co103 O104 2.061 1_545 S
Co103 O109 2.052 . S
Co103 O111 2.135 . S
O104 Co103 2.061 1_565 S
O104 C107 1.235 1_556 S
C105 O108 1.238 . S
C105 O109 1.241 1_554 S
C106 O99 1.247 . S
C106 O100 1.261 . S
C107 O102 1.259 . S
C107 O104 1.235 1_554 S
O108 Co98 2.021 . S
O108 C105 1.238 . S
O109 Co103 2.052 . S
O109 C105 1.241 1_556 S
O110 Co98 2.137 . S
O110 C101 1.247 1_554 S
O111 Co98 2.244 1_556 S
O111 C101 1.272 . S
O111 Co103 2.135 . S
Co112 O113 2.216 . S
Co112 O114 2.091 . S
Co112 O116 2.004 . S
Co112 O122 2.021 . S
Co112 O124 2.137 . S
Co112 O125 2.244 . S
O113 Co112 2.216 . S
O113 C120 1.247 . S
O114 Co112 2.091 . S
O114 C120 1.261 . S
C115 O124 1.247 . S
C115 O125 1.272 . S
O116 Co112 2.004 . S
O116 C121 1.259 . S
Co117 O118 2.061 . S
Co117 O123 2.052 . S
Co117 O125 2.135 . S
O118 Co117 2.061 . S
O118 C121 1.235 . S
C119 O122 1.238 . S
C119 O123 1.241 . S
C120 O113 1.247 . S
C120 O114 1.261 . S
C121 O116 1.259 . S
C121 O118 1.235 . S
O122 Co112 2.021 . S
O122 C119 1.238 . S
O123 Co117 2.052 . S
O123 C119 1.241 . S
O124 Co112 2.137 . S
O124 C115 1.247 . S
O125 Co112 2.244 . S
O125 C115 1.272 . S
O125 Co117 2.135 . S
Co126 O127 2.216 . S
Co126 O128 2.091 . S
Co126 O130 2.004 . S
Co126 O136 2.021 . S
Co126 O138 2.137 . S
Co126 O139 2.244 . S
O127 Co126 2.216 . S
O127 C134 1.247 . S
O128 Co126 2.091 . S
O128 C134 1.261 . S
C129 O138 1.247 . S
C129 O139 1.272 . S
O130 Co126 2.004 . S
O130 C135 1.259 . S
Co131 O132 2.061 . S
Co131 O137 2.052 . S
Co131 O139 2.135 . S
O132 Co131 2.061 . S
O132 C135 1.235 . S
C133 O136 1.238 . S
C133 O137 1.241 . S
C134 O127 1.247 . S
C134 O128 1.261 . S
C135 O130 1.259 . S
C135 O132 1.235 . S
O136 Co126 2.021 . S
O136 C133 1.238 . S
O137 Co131 2.052 . S
O137 C133 1.241 . S
O138 Co126 2.137 . S
O138 C129 1.247 . S
O139 Co126 2.244 . S
O139 C129 1.272 . S
O139 Co131 2.135 . S
Co140 O141 2.216 . S
Co140 O142 2.091 . S
Co140 O144 2.004 . S
Co140 O150 2.021 . S
Co140 O152 2.137 . S
Co140 O153 2.244 . S
O141 Co140 2.216 . S
O141 C148 1.247 . S
O142 Co140 2.091 . S
O142 C148 1.261 . S
C143 O152 1.247 . S
C143 O153 1.272 . S
O144 Co140 2.004 . S
O144 C149 1.259 . S
Co145 O146 2.061 . S
Co145 O151 2.052 . S
Co145 O153 2.135 . S
O146 Co145 2.061 . S
O146 C149 1.235 . S
C147 O150 1.238 . S
C147 O151 1.241 . S
C148 O141 1.247 . S
C148 O142 1.261 . S
C149 O144 1.259 . S
C149 O146 1.235 . S
O150 Co140 2.021 . S
O150 C147 1.238 . S
O151 Co145 2.052 . S
O151 C147 1.241 . S
O152 Co140 2.137 . S
O152 C143 1.247 . S
O153 Co140 2.244 . S
O153 C143 1.272 . S
O153 Co145 2.135 . S
Co154 O155 2.216 . S
Co154 O156 2.091 . S
Co154 O158 2.004 . S
Co154 O164 2.021 . S
Co154 O166 2.137 . S
Co154 O167 2.244 . S
O155 Co154 2.216 . S
O155 C162 1.247 . S
O156 Co154 2.091 . S
O156 C162 1.261 . S
C157 O166 1.247 . S
C157 O167 1.272 . S
O158 Co154 2.004 . S
O158 C163 1.259 . S
Co159 O160 2.061 . S
Co159 O165 2.052 . S
Co159 O167 2.135 . S
O160 Co159 2.061 . S
O160 C163 1.235 . S
C161 O164 1.238 . S
C161 O165 1.241 . S
C162 O155 1.247 . S
C162 O156 1.261 . S
C163 O158 1.259 . S
C163 O160 1.235 . S
O164 Co154 2.021 . S
O164 C161 1.238 . S
O165 Co159 2.052 . S
O165 C161 1.241 . S
O166 Co154 2.137 . S
O166 C157 1.247 . S
O167 Co154 2.244 . S
O167 C157 1.272 . S
O167 Co159 2.135 . S
Co168 O169 2.216 . S
Co168 O170 2.091 . S
Co168 O172 2.004 . S
Co168 O178 2.021 . S
Co168 O180 2.137 . S
Co168 O181 2.244 . S
O169 Co168 2.216 . S
O169 C176 1.247 . S
O170 Co168 2.091 . S
O170 C176 1.261 . S
C171 O180 1.247 . S
C171 O181 1.272 . S
O172 Co168 2.004 . S
O172 C177 1.259 . S
Co173 O174 2.061 . S
Co173 O179 2.052 . S
Co173 O181 2.135 . S
O174 Co173 2.061 . S
O174 C177 1.235 . S
C175 O178 1.238 . S
C175 O179 1.241 . S
C176 O169 1.247 . S
C176 O170 1.261 . S
C177 O172 1.259 . S
C177 O174 1.235 . S
O178 Co168 2.021 . S
O178 C175 1.238 . S
O179 Co173 2.052 . S
O179 C175 1.241 . S
O180 Co168 2.137 . S
O180 C171 1.247 . S
O181 Co168 2.244 . S
O181 C171 1.272 . S
O181 Co173 2.135 . S
Co182 O183 2.216 . S
Co182 O184 2.091 . S
Co182 O186 2.004 . S
Co182 O192 2.021 . S
Co182 O194 2.137 . S
Co182 O195 2.244 . S
O183 Co182 2.216 . S
O183 C190 1.247 . S
O184 Co182 2.091 . S
O184 C190 1.261 . S
C185 O194 1.247 . S
C185 O195 1.272 . S
O186 Co182 2.004 . S
O186 C191 1.259 . S
Co187 O188 2.061 . S
Co187 O193 2.052 . S
Co187 O195 2.135 . S
O188 Co187 2.061 . S
O188 C191 1.235 . S
C189 O192 1.238 . S
C189 O193 1.241 . S
C190 O183 1.247 . S
C190 O184 1.261 . S
C191 O186 1.259 . S
C191 O188 1.235 . S
O192 Co182 2.021 . S
O192 C189 1.238 . S
O193 Co187 2.052 . S
O193 C189 1.241 . S
O194 Co182 2.137 . S
O194 C185 1.247 . S
O195 Co182 2.244 . S
O195 C185 1.272 . S
O195 Co187 2.135 . S
Co196 O197 2.216 . S
Co196 O198 2.091 . S
Co196 O200 2.004 . S
Co196 O206 2.021 . S
Co196 O208 2.137 . S
Co196 O209 2.244 . S
O197 Co196 2.216 . S
O197 C204 1.247 . S
O198 Co196 2.091 . S
O198 C204 1.261 . S
C199 O208 1.247 . S
C199 O209 1.272 . S
O200 Co196 2.004 . S
O200 C205 1.259 . S
Co201 O202 2.061 . S
Co201 O207 2.052 . S
Co201 O209 2.135 . S
O202 Co201 2.061 . S
O202 C205 1.235 . S
C203 O206 1.238 . S
C203 O207 1.241 . S
C204 O197 1.247 . S
C204 O198 1.261 . S
C205 O200 1.259 . S
C205 O202 1.235 . S
O206 Co196 2.021 . S
O206 C203 1.238 . S
O207 Co201 2.052 . S
O207 C203 1.241 . S
O208 Co196 2.137 . S
O208 C199 1.247 . S
O209 Co196 2.244 . S
O209 C199 1.272 . S
O209 Co201 2.135 . S
Co210 O211 2.216 . S
Co210 O212 2.091 . S
Co210 O214 2.004 . S
Co210 O220 2.021 . S
Co210 O222 2.137 . S
Co210 O223 2.244 . S
O211 Co210 2.216 . S
O211 C218 1.247 . S
O212 Co210 2.091 . S
O212 C218 1.261 . S
C213 O222 1.247 . S
C213 O223 1.272 . S
O214 Co210 2.004 . S
O214 C219 1.259 . S
Co215 O216 2.061 . S
Co215 O221 2.052 . S
Co215 O223 2.135 . S
O216 Co215 2.061 . S
O216 C219 1.235 . S
C217 O220 1.238 . S
C217 O221 1.241 . S
C218 O211 1.247 . S
C218 O212 1.261 . S
C219 O214 1.259 . S
C219 O216 1.235 . S
O220 Co210 2.021 . S
O220 C217 1.238 . S
O221 Co215 2.052 . S
O221 C217 1.241 . S
O222 Co210 2.137 . S
O222 C213 1.247 . S
O223 Co210 2.244 . S
O223 C213 1.272 . S
O223 Co215 2.135 . S
C3 C163 1.303 . S
C121 C17 1.303 . S
C135 C31 1.303 . S
C149 C45 1.303 . S
C79 C59 1.303 . S
C73 C93 1.303 . S
C87 C107 1.303 . S
C101 C65 1.303 . S
C115 C51 1.303 . S
C9 C129 1.303 . S
C23 C143 1.303 . S
C37 C157 1.303 . S
C191 C171 1.303 . S
C185 C205 1.303 . S
C219 C199 1.303 . S
C177 C213 1.303 . S
C204 C8 1.678 . S
C218 C22 1.678 . S
C176 C36 1.678 . S
C50 C190 1.678 . S
C64 C148 1.678 . S
C162 C78 1.678 . S
C92 C120 1.678 . S
C106 C134 1.678 . S
C35 C7 1.578 1_665 S
C49 C21 1.578 1_645 S
C63 C91 1.578 1_455 S
C77 C105 1.578 1_565 S
C147 C119 1.578 . S
C133 C161 1.578 . S
C203 C175 1.578 1_545 S
C189 C217 1.578 1_655 S
