# Generated by pormake.
# Topology pcu, (6)-cn, num edge types: 1
# Building blocks:
#     Node 0, Type 0, BuildingBlock: JUFBIX_clean_sbu_0, # of connection points: 6
#     Edge 1, Type (0, 0), BuildingBlock: EYOCIG_clean_linker_4, # of connection points: 2
#     Edge 2, Type (0, 0), BuildingBlock: EYOCIG_clean_linker_4, # of connection points: 2
#     Edge 3, Type (0, 0), BuildingBlock: EYOCIG_clean_linker_4, # of connection points: 2
# Relax obj value: 0.000
# Max RMSD: 0.000
# Mean RMSD: 0.000
data_MOF--net-pcu--node1-JUFBIX_clean_sbu_0--edge1-EYOCIG_clean_linker_4
_symmetry_space_group_name_H-M    P1
_symmetry_Int_Tables_number       1
_symmetry_cell_setting            triclinic
loop_
_symmetry_equiv_pos_as_xyz
'x, y, z'
_cell_length_a     11.769793
_cell_length_b     16.779053
_cell_length_c     11.73814
_cell_angle_alpha  85.060746
_cell_angle_beta   93.270185
_cell_angle_gamma 97.586985
loop_
_atom_site_label
_atom_site_type_symbol
_atom_site_fract_x
_atom_site_fract_y
_atom_site_fract_z
_atom_type_partial_charge
Co0 Co 0.99687 0.96064 0.01966 0.0
C1 C 0.01771 0.03737 0.22447 0.0
Co2 Co 0.02422 0.09545 0.99964 0.0
C3 C 0.01054 0.78736 1.00405 0.0
C4 C 0.88806 0.81122 0.12071 0.0
N5 N 0.96561 0.8484 0.04652 0.0
N6 N 0.96348 0.71449 0.04939 0.0
C7 C 0.88666 0.72909 0.12254 0.0
H8 H 0.07654 0.79616 0.94196 0.0
H9 H 0.83607 0.84205 0.17114 0.0
C10 C 1.00338 1.01872 0.79483 0.0
N11 N 0.05548 0.20769 0.97278 0.0
C12 C 0.01048 0.26872 0.01517 0.0
C13 C 0.13309 0.24487 0.89865 0.0
N14 N 0.05756 0.3416 0.96984 0.0
C15 C 0.13447 0.327 0.89679 0.0
C16 C 0.22517 1.0209 0.01609 0.0
O17 O 0.99095 0.95317 0.85846 0.0
O18 O 0.0176 0.08597 0.83901 0.0
O19 O 0.18477 0.08784 1.0056 0.0
O20 O 0.15782 0.95509 0.02497 0.0
O21 O 0.03013 0.10292 0.16083 0.0
H22 H 0.18514 0.21404 0.84828 0.0
H23 H 0.94442 0.25992 0.0772 0.0
O24 O 1.0035 0.97012 0.18028 0.0
O25 O 0.83632 0.96825 0.0137 0.0
O26 O 0.86327 0.101 0.99432 0.0
C27 C 0.79592 0.03518 1.00321 0.0
H28 H 0.83381 0.68355 0.17396 0.0
H29 H 0.18735 0.37254 0.84541 0.0
C30 C 0.01309 0.03252 0.44944 0.0
C31 C 0.01589 0.03801 0.34651 0.0
C32 C 1.00801 1.02357 0.56986 0.0
C33 C 1.00521 1.01808 0.67279 0.0
C34 C 0.45015 1.02472 0.01179 0.0
C35 C 0.34712 1.02059 0.01412 0.0
C36 C 0.57094 0.03136 1.00751 0.0
C37 C 0.67398 0.03549 1.00518 0.0
C38 C 1.00323 0.56883 0.01535 0.0
C39 C 0.98803 0.63742 0.02805 0.0
C40 C 0.01774 0.48726 1.00381 0.0
C41 C 0.03297 0.41866 0.99114 0.0
loop_
_geom_bond_atom_site_label_1
_geom_bond_atom_site_label_2
_geom_bond_distance
_geom_bond_site_symmetry_2
_ccdc_geom_bond_type
Co0 N5 2.057 1_556 S
Co0 O17 2.021 . S
Co0 O20 2.062 1_655 S
Co0 O24 2.117 1_556 S
Co0 O25 2.020 . S
C1 O21 1.259 . S
C1 O24 1.258 1_445 S
Co2 N11 2.057 1_554 S
Co2 O18 2.117 1_554 S
Co2 O19 2.020 . S
Co2 O21 2.021 . S
Co2 O26 2.062 1_455 S
C3 N5 1.316 1_556 S
C3 N6 1.347 1_556 S
C3 H8 0.931 . S
C4 N5 1.375 . S
C4 C7 1.350 . S
C4 H9 0.930 . S
N5 Co0 2.057 1_554 S
N5 C3 1.316 1_554 S
N5 C4 1.375 . S
N6 C3 1.347 1_554 S
N6 C7 1.373 . S
C7 C4 1.350 . S
C7 N6 1.373 . S
C7 H28 0.931 . S
H8 C3 0.931 . S
H9 C4 0.930 . S
C10 O17 1.259 . S
C10 O18 1.258 1_665 S
N11 Co2 2.057 1_556 S
N11 C12 1.316 1_556 S
N11 C13 1.375 . S
C12 N11 1.316 1_554 S
C12 N14 1.347 1_554 S
C12 H23 0.931 . S
C13 N11 1.375 . S
C13 C15 1.350 . S
C13 H22 0.930 . S
N14 C12 1.347 1_556 S
N14 C15 1.373 . S
C15 C13 1.350 . S
C15 N14 1.373 . S
C15 H29 0.931 . S
C16 O19 1.264 1_556 S
C16 O20 1.248 1_545 S
O17 Co0 2.021 . S
O17 C10 1.259 . S
O18 Co2 2.117 1_556 S
O18 C10 1.258 1_445 S
O19 Co2 2.020 . S
O19 C16 1.264 1_554 S
O20 Co0 2.062 1_455 S
O20 C16 1.248 1_565 S
O21 C1 1.259 . S
O21 Co2 2.021 . S
H22 C13 0.930 . S
H23 C12 0.931 . S
O24 Co0 2.117 1_554 S
O24 C1 1.258 1_665 S
O25 Co0 2.020 . S
O25 C27 1.260 1_556 S
O26 Co2 2.062 1_655 S
O26 C27 1.251 1_545 S
C27 O25 1.260 1_554 S
C27 O26 1.251 1_565 S
H28 C7 0.931 . S
H29 C15 0.931 . S
C30 C31 1.170 . S
C30 C32 1.380 . S
C31 C30 1.170 . S
C32 C30 1.380 . S
C32 C33 1.170 . S
C33 C32 1.170 . S
C34 C35 1.170 . S
C34 C36 1.378 . S
C35 C34 1.170 . S
C36 C34 1.378 . S
C36 C37 1.174 1_565 S
C37 C36 1.174 1_545 S
C38 C39 1.170 . S
C38 C40 1.380 . S
C39 C38 1.170 . S
C40 C38 1.380 . S
C40 C41 1.170 . S
C41 C40 1.170 . S
C31 C1 1.488 . S
C33 C10 1.498 1_445 S
C35 C16 1.498 1_564 S
C37 C27 1.495 1_545 S
C39 N6 1.455 . S
C41 N14 1.479 1_654 S
