# Generated by pormake.
# Topology hex, (8)-cn, num edge types: 1
# Building blocks:
#     Node 0, Type 0, BuildingBlock: LIZSOE_clean_sbu_0, # of connection points: 8
#     Edge 1, Type (0, 0), BuildingBlock: XIVTED_clean_linker_0, # of connection points: 2
#     Edge 2, Type (0, 0), BuildingBlock: XIVTED_clean_linker_0, # of connection points: 2
#     Edge 3, Type (0, 0), BuildingBlock: XIVTED_clean_linker_0, # of connection points: 2
#     Edge 4, Type (0, 0), BuildingBlock: XIVTED_clean_linker_0, # of connection points: 2
# Relax obj value: 0.134
# Max RMSD: 0.233
# Mean RMSD: 0.233
data_MOF--net-hex--node1-LIZSOE_clean_sbu_0--edge1-XIVTED_clean_linker_0
_symmetry_space_group_name_H-M    P1
_symmetry_Int_Tables_number       1
_symmetry_cell_setting            triclinic
loop_
_symmetry_equiv_pos_as_xyz
'x, y, z'
_cell_length_a     15.554798
_cell_length_b     22.840539
_cell_length_c     15.644088
_cell_angle_alpha  105.55218
_cell_angle_beta   78.141096
_cell_angle_gamma 137.16897
loop_
_atom_site_label
_atom_site_type_symbol
_atom_site_fract_x
_atom_site_fract_y
_atom_site_fract_z
_atom_type_partial_charge
Co0 Co 0.09503 0.90496 0.99293 0.0
N1 N 0.06006 0.82179 0.03874 0.0
C2 C 0.95526 0.73493 0.01938 0.0
N3 N 0.07595 0.75003 0.0958 0.0
C4 C 0.13261 0.82894 0.08525 0.0
C5 C 0.96422 0.6911 0.05491 0.0
Co6 Co 0.9365 0.08787 0.96442 0.0
N7 N 0.96896 0.17931 0.94243 0.0
N8 N 1.02969 0.30526 0.95342 0.0
C9 C 0.95922 0.25128 0.88036 0.0
C10 C 0.92151 0.17375 0.87399 0.0
C11 C 1.03502 0.26085 0.98995 0.0
Co12 Co 1.0199 0.99473 0.96738 0.0
C13 C 0.86782 0.04488 0.03389 0.0
H14 H 0.85986 0.11592 0.82418 0.0
O15 O 0.13774 0.98255 0.94108 0.0
O16 O 0.181 0.12351 -0.00627 0.0
O17 O 1.01587 0.99373 0.09844 0.0
O18 O 0.86376 0.86508 0.93772 0.0
O19 O 0.92391 0.84149 0.02478 0.0
O20 O 0.10848 0.16557 0.95681 0.0
O21 O 0.89579 1.00164 0.99182 0.0
O22 O 0.93502 0.04678 0.84213 0.0
O23 O 0.13806 0.97536 0.10462 0.0
O24 O 0.04443 0.84183 0.88283 0.0
O25 O 1.02623 1.00162 0.83905 0.0
O26 O 0.94708 0.1211 0.08418 0.0
C27 C 0.0824 0.99771 0.14232 0.0
C28 C 0.10408 0.2983 0.07468 0.0
H29 H 0.14522 0.2748 0.07578 0.0
H30 H 0.18204 0.3708 0.08455 0.0
H31 H 1.03689 0.27905 0.13155 0.0
C32 C 0.19999 0.18142 0.97165 0.0
C33 C 0.83734 0.81537 0.98314 0.0
H34 H 0.88083 0.70463 0.97647 0.0
H35 H 0.33181 0.91315 0.09474 0.0
H36 H 0.25803 0.92024 0.19417 0.0
H37 H 0.28992 0.9704 0.10481 0.0
C38 C 0.26049 0.91356 0.12103 0.0
C39 C 0.14325 0.92536 0.90712 0.0
C40 C 0.982 0.01847 0.80007 0.0
H41 H 0.8995 0.62079 0.04369 0.0
H42 H 0.93191 0.26543 0.83737 0.0
H43 H 0.96971 0.34598 0.11562 0.0
H44 H 0.2714 0.78385 0.00553 0.0
H45 H 0.18486 0.44905 0.8785 0.0
H46 H 1.00315 0.65674 0.21712 0.0
H47 H 0.30554 0.69293 0.99081 0.0
H48 H 1.03836 0.48468 0.18051 0.0
C49 C 1.03316 0.39882 0.078 0.0
C50 C 0.07206 0.3871 0.99198 0.0
C51 C 0.24274 0.68706 0.0428 0.0
C52 C 0.14907 0.54472 0.06441 0.0
C53 C 0.22517 0.74011 0.05228 0.0
C54 C 0.13424 0.72706 0.11261 0.0
C55 C 0.16708 0.62009 0.09315 0.0
C56 C 0.07375 0.66798 0.16992 0.0
C57 C 0.07244 0.47777 0.11485 0.0
C58 C 0.15235 0.45619 0.94475 0.0
N59 N 0.08893 0.61495 0.15747 0.0
N60 N 0.18749 0.5322 0.98132 0.0
H61 H 0.68245 0.90684 0.9094 0.0
H62 H 0.37412 0.08369 0.97919 0.0
H63 H 0.77014 0.1069 0.12533 0.0
H64 H 0.19444 0.8309 0.82428 0.0
H65 H 0.54893 0.10848 0.00767 0.0
H66 H 0.51762 0.88472 0.86225 0.0
C67 C 0.66485 0.94424 0.94846 0.0
C68 C 0.74099 1.00892 0.02149 0.0
C69 C 0.47196 0.04815 0.96623 0.0
C70 C 0.55735 0.98723 0.9651 0.0
C71 C 0.373 0.03459 0.94876 0.0
C72 C 0.26774 0.95444 0.90067 0.0
C73 C 0.4657 0.98123 0.93522 0.0
C74 C 0.27213 0.89316 0.86321 0.0
C75 C 0.57245 0.93282 0.92047 0.0
C76 C 0.71461 0.05639 0.06852 0.0
N77 N 0.368 0.90715 0.88244 0.0
N78 N 0.62688 0.0456 0.03879 0.0
H79 H 0.35503 0.30897 0.11039 0.0
H80 H 0.70749 0.68971 0.8352 0.0
H81 H 0.31357 0.26041 0.829 0.0
H82 H 0.70584 0.72819 0.12029 0.0
H83 H 0.56409 0.53239 0.82937 0.0
H84 H 0.50124 0.46591 0.1127 0.0
C85 C 0.38195 0.33193 0.04843 0.0
C86 C 0.3246 0.27201 0.96911 0.0
C87 C 0.59306 0.57502 0.89334 0.0
C88 C 0.48554 0.45049 0.97158 0.0
C89 C 0.67243 0.66447 0.89661 0.0
C90 C 0.71702 0.72176 0.97837 0.0
C91 C 0.55932 0.54318 0.97235 0.0
C92 C 0.67222 0.68593 0.05594 0.0
C93 C 0.46258 0.42121 0.04996 0.0
C94 C 0.35816 0.30489 0.8912 0.0
N95 N 0.59752 0.59945 0.05103 0.0
N96 N 0.43512 0.39156 0.89445 0.0
H97 H 0.12367 1.0007 0.68497 0.0
H98 H 0.93075 1.00825 0.25387 0.0
H99 H 0.86894 0.02269 0.69257 0.0
H100 H 0.2205 0.01986 0.25491 0.0
H101 H 0.90544 1.01312 0.41458 0.0
H102 H 0.15411 1.00215 0.5256 0.0
C103 C 0.07335 1.0051 0.65314 0.0
C104 C 0.99394 1.01182 0.70244 0.0
C105 C 0.97506 0.01512 0.37953 0.0
C106 C 1.02923 0.01438 0.52019 0.0
C107 C 0.99007 1.01288 0.28785 0.0
C108 C 0.07703 1.0128 0.24052 0.0
C109 C 0.04725 0.01704 0.42398 0.0
C110 C 0.15112 0.01867 0.28824 0.0
C111 C 0.09147 1.00659 0.56223 0.0
C112 C 0.93177 0.01793 0.65751 0.0
N113 N 0.13387 0.01989 0.37703 0.0
N114 N 0.95079 0.01911 0.56907 0.0
loop_
_geom_bond_atom_site_label_1
_geom_bond_atom_site_label_2
_geom_bond_distance
_geom_bond_site_symmetry_2
_ccdc_geom_bond_type
Co0 N1 2.034 . S
Co0 O15 2.262 1_654 S
Co0 O19 1.958 1_554 S
Co0 O23 1.950 1_655 S
Co0 O24 2.057 1_654 S
N1 Co0 2.034 . S
N1 C2 1.366 . S
N1 C4 1.332 1_655 S
C2 N1 1.366 . S
C2 C5 1.377 . S
C2 H34 0.931 . S
N3 C4 1.341 . S
N3 C5 1.332 1_455 S
C4 N1 1.332 1_455 S
C4 N3 1.341 . S
C4 C38 1.361 . S
C5 C2 1.377 . S
C5 N3 1.332 1_655 S
C5 H41 0.930 . S
Co6 N7 2.034 1_655 S
Co6 O20 1.950 1_655 S
Co6 O21 2.257 1_556 S
Co6 O22 1.958 . S
Co6 O26 2.060 . S
N7 Co6 2.034 1_455 S
N7 C10 1.366 . S
N7 C11 1.332 . S
N8 C9 1.337 . S
N8 C11 1.346 . S
C9 N8 1.337 . S
C9 C10 1.377 . S
C9 H42 0.930 . S
C10 N7 1.366 . S
C10 C9 1.377 . S
C10 H14 0.931 . S
C11 N7 1.332 . S
C11 N8 1.346 . S
C11 C28 1.361 1_556 S
Co12 O15 2.097 1_655 S
Co12 O16 2.065 1_666 S
Co12 O17 2.065 1_566 S
Co12 O18 2.042 . S
Co12 O21 2.099 1_566 S
Co12 O25 2.042 1_655 S
C13 O21 1.253 . S
C13 O26 1.259 1_554 S
H14 C10 0.931 . S
O15 Co0 2.262 1_456 S
O15 Co12 2.097 1_455 S
O15 C39 1.253 . S
O16 Co12 2.065 1_444 S
O16 C32 1.221 . S
O17 Co12 2.065 1_544 S
O17 C27 1.221 1_545 S
O18 Co12 2.042 . S
O18 C33 1.237 . S
O19 Co0 1.958 1_556 S
O19 C33 1.278 . S
O20 Co6 1.950 1_455 S
O20 C32 1.277 1_556 S
O21 Co6 2.257 1_554 S
O21 Co12 2.099 1_544 S
O21 C13 1.253 . S
O22 Co6 1.958 . S
O22 C40 1.285 . S
O23 Co0 1.950 1_455 S
O23 C27 1.277 1_455 S
O24 Co0 2.057 1_456 S
O24 C39 1.263 . S
O25 Co12 2.042 1_455 S
O25 C40 1.232 1_465 S
O26 Co6 2.060 . S
O26 C13 1.259 1_556 S
C27 O17 1.221 1_565 S
C27 O23 1.277 1_655 S
C28 C11 1.361 1_554 S
C28 H29 0.960 . S
C28 H30 0.961 . S
C28 H31 0.961 1_455 S
H29 C28 0.960 . S
H30 C28 0.961 . S
H31 C28 0.961 1_655 S
C32 O16 1.221 . S
C32 O20 1.277 1_554 S
C33 O18 1.237 . S
C33 O19 1.278 . S
H34 C2 0.931 . S
H35 C38 0.961 . S
H36 C38 0.961 . S
H37 C38 0.960 . S
C38 C4 1.361 . S
C38 H35 0.961 . S
C38 H36 0.961 . S
C38 H37 0.960 . S
C39 O15 1.253 . S
C39 O24 1.263 . S
C40 O22 1.285 . S
C40 O25 1.232 1_645 S
H41 C5 0.930 . S
H42 C9 0.930 . S
H43 C49 0.930 . S
H44 C53 0.930 . S
H45 C58 0.929 . S
H46 C56 0.929 . S
H47 C51 0.929 . S
H48 C57 0.929 . S
C49 H43 0.930 . S
C49 C50 1.360 1_655 S
C49 C57 1.378 . S
C50 C49 1.360 1_455 S
C50 C58 1.436 . S
C51 H47 0.929 . S
C51 C53 1.378 . S
C51 C55 1.350 . S
C52 C55 1.463 1_556 S
C52 C57 1.350 1_455 S
C52 N60 1.427 . S
C53 H44 0.930 . S
C53 C51 1.378 . S
C53 C54 1.367 . S
C54 C53 1.367 . S
C54 C56 1.433 1_455 S
C55 C51 1.350 . S
C55 C52 1.463 1_554 S
C55 N59 1.427 1_455 S
C56 H46 0.929 . S
C56 C54 1.433 1_655 S
C56 N59 1.384 . S
C57 H48 0.929 . S
C57 C49 1.378 . S
C57 C52 1.350 1_655 S
C58 H45 0.929 . S
C58 C50 1.436 . S
C58 N60 1.384 . S
N59 C55 1.427 1_655 S
N59 C56 1.384 . S
N60 C52 1.427 . S
N60 C58 1.384 . S
H61 C67 0.930 . S
H62 C71 0.930 . S
H63 C76 0.929 . S
H64 C74 0.929 . S
H65 C69 0.929 . S
H66 C75 0.929 . S
C67 H61 0.930 . S
C67 C68 1.367 1_546 S
C67 C75 1.378 . S
C68 C67 1.367 1_564 S
C68 C76 1.433 . S
C69 H65 0.929 . S
C69 C71 1.378 . S
C69 C73 1.350 1_554 S
C70 C73 1.463 1_554 S
C70 C75 1.350 1_564 S
C70 N78 1.427 . S
C71 H62 0.930 . S
C71 C69 1.378 . S
C71 C72 1.367 1_554 S
C72 C71 1.367 1_556 S
C72 C74 1.433 1_565 S
C73 C69 1.350 1_556 S
C73 C70 1.463 1_556 S
C73 N77 1.427 1_565 S
C74 H64 0.929 . S
C74 C72 1.433 1_545 S
C74 N77 1.384 . S
C75 H66 0.929 . S
C75 C67 1.378 . S
C75 C70 1.350 1_546 S
C76 H63 0.929 . S
C76 C68 1.433 . S
C76 N78 1.384 . S
N77 C73 1.427 1_545 S
N77 C74 1.384 . S
N78 C70 1.427 . S
N78 C76 1.384 . S
H79 C85 0.930 . S
H80 C89 0.930 . S
H81 C94 0.929 . S
H82 C92 0.929 . S
H83 C87 0.929 . S
H84 C93 0.929 . S
C85 H79 0.930 . S
C85 C86 1.367 . S
C85 C93 1.378 . S
C86 C85 1.367 . S
C86 C94 1.433 1_554 S
C87 H83 0.929 . S
C87 C89 1.378 . S
C87 C91 1.350 . S
C88 C91 1.463 1_554 S
C88 C93 1.350 . S
C88 N96 1.427 1_554 S
C89 H80 0.930 . S
C89 C87 1.378 . S
C89 C90 1.367 . S
C90 C89 1.367 . S
C90 C92 1.433 1_556 S
C91 C87 1.350 . S
C91 C88 1.463 1_556 S
C91 N95 1.427 1_556 S
C92 H82 0.929 . S
C92 C90 1.433 1_554 S
C92 N95 1.384 . S
C93 H84 0.929 . S
C93 C85 1.378 . S
C93 C88 1.350 . S
C94 H81 0.929 . S
C94 C86 1.433 1_556 S
C94 N96 1.384 . S
N95 C91 1.427 1_554 S
N95 C92 1.384 . S
N96 C88 1.427 1_556 S
N96 C94 1.384 . S
H97 C103 0.930 . S
H98 C107 0.930 . S
H99 C112 0.929 . S
H100 C110 0.929 . S
H101 C105 0.929 . S
H102 C111 0.929 . S
C103 H97 0.930 . S
C103 C104 1.367 . S
C103 C111 1.378 . S
C104 C103 1.367 . S
C104 C112 1.433 1_665 S
C105 H101 0.929 . S
C105 C107 1.378 . S
C105 C109 1.354 . S
C106 C109 1.460 1_665 S
C106 C111 1.350 . S
C106 N114 1.427 1_665 S
C107 H98 0.930 . S
C107 C105 1.378 . S
C107 C108 1.367 . S
C108 C107 1.367 . S
C108 C110 1.433 1_445 S
C109 C105 1.354 . S
C109 C106 1.460 1_445 S
C109 N113 1.426 1_445 S
C110 H100 0.929 . S
C110 C108 1.433 1_665 S
C110 N113 1.384 . S
C111 H102 0.929 . S
C111 C103 1.378 . S
C111 C106 1.350 . S
C112 H99 0.929 . S
C112 C104 1.433 1_445 S
C112 N114 1.384 . S
N113 C109 1.426 1_665 S
N113 C110 1.384 . S
N114 C106 1.427 1_445 S
N114 C112 1.384 . S
C50 N8 1.542 . S
C54 N3 1.418 . S
C68 C13 1.633 1_565 S
C72 C39 1.653 . S
C86 C32 1.619 . S
C90 C33 1.636 . S
C104 C40 1.430 1_565 S
C108 C27 1.432 1_445 S
