# Generated by pormake.
# Topology pcu, (6)-cn, num edge types: 1
# Building blocks:
#     Node 0, Type 0, BuildingBlock: PAMTUU_clean_sbu_0, # of connection points: 6
#     Edge 1, Type (0, 0), BuildingBlock: FUNLAD_clean_linker_1, # of connection points: 2
#     Edge 2, Type (0, 0), BuildingBlock: FUNLAD_clean_linker_1, # of connection points: 2
#     Edge 3, Type (0, 0), BuildingBlock: FUNLAD_clean_linker_1, # of connection points: 2
# Relax obj value: 0.000
# Max RMSD: 0.000
# Mean RMSD: 0.000
data_MOF--net-pcu--node1-PAMTUU_clean_sbu_0--edge1-FUNLAD_clean_linker_1
_symmetry_space_group_name_H-M    P1
_symmetry_Int_Tables_number       1
_symmetry_cell_setting            triclinic
loop_
_symmetry_equiv_pos_as_xyz
'x, y, z'
_cell_length_a     25.812371
_cell_length_b     15.616248
_cell_length_c     15.624212
_cell_angle_alpha  82.802695
_cell_angle_beta   98.670014
_cell_angle_gamma 115.31464
loop_
_atom_site_label
_atom_site_type_symbol
_atom_site_fract_x
_atom_site_fract_y
_atom_site_fract_z
_atom_type_partial_charge
Tb0 Tb 0.10841 0.04201 0.02189 0.0
Tb1 Tb 0.96589 0.93191 0.97531 0.0
C2 C 1.02514 0.98141 0.16562 0.0
C3 C 0.26289 0.09054 0.03948 0.0
C4 C 0.35123 0.0374 0.01561 0.0
C5 C 0.36471 0.12584 0.04771 0.0
C6 C 0.32081 0.15183 0.05975 0.0
C7 C 0.24918 0.00307 0.00637 0.0
C8 C 0.29296 0.97695 0.99437 0.0
C9 C 0.217 0.11773 0.05346 0.0
O10 O 0.08367 0.89093 0.052 0.0
O11 O 0.99929 0.82881 0.9612 0.0
O12 O 1.00377 -0.00733 0.85455 0.0
O13 O 0.09297 -0.00746 0.89296 0.0
O14 O 0.88539 0.82335 0.00219 0.0
O15 O 0.89241 0.92458 0.89259 0.0
O16 O 0.98327 0.0725 0.0087 0.0
O17 O 0.07777 0.15233 0.97906 0.0
O18 O 0.07181 0.04792 0.13585 0.0
O19 O 0.98414 0.91944 0.11585 0.0
C20 C 0.04375 0.82092 0.00893 0.0
O21 O 0.1889 0.13878 0.98361 0.0
O22 O 0.18223 0.06268 0.10945 0.0
C23 C 0.05173 -0.00528 0.83389 0.0
C24 C 0.8098 0.87283 0.96456 0.0
C25 C 0.7183 0.91248 -0.00036 0.0
C26 C 0.70715 0.83157 0.95593 0.0
C27 C 0.75261 0.81239 0.9383 0.0
C28 C 0.82112 0.95174 0.01039 0.0
C29 C 0.7758 0.97122 0.02781 0.0
C30 C 0.8574 0.856 0.94027 0.0
C31 C 1.02812 0.15114 0.99145 0.0
H32 H 0.40886 0.17597 0.06258 0.0
H33 H 0.33212 0.21997 0.08475 0.0
H34 H 0.20459 0.95492 0.99004 0.0
H35 H 0.28119 0.90888 0.96887 0.0
H36 H 0.66373 0.78264 0.935 0.0
H37 H 0.74311 0.75086 0.9032 0.0
H38 H 0.86506 -0.00081 0.03141 0.0
H39 H 0.78587 0.03347 0.0622 0.0
H40 H 0.97623 0.92572 0.27942 0.0
C41 C 1.01744 0.97554 0.25805 0.0
H42 H 0.10083 0.07868 0.29564 0.0
H43 H 0.03998 0.17742 0.63538 0.0
H44 H 0.06209 0.32487 0.54608 0.0
H45 H 0.0787 0.33491 0.39307 0.0
H46 H 0.0729 0.19756 0.32807 0.0
C47 C 0.05976 0.02744 0.31627 0.0
C48 C 0.05076 0.02106 0.40919 0.0
C49 C 0.05339 0.1018 0.44558 0.0
C50 C 0.04334 0.09587 0.5336 0.0
C51 C 0.04681 0.17779 0.56865 0.0
C52 C 0.05949 0.26291 0.51814 0.0
C53 C 0.06878 0.26853 0.43195 0.0
C54 C 0.06556 0.18913 0.39559 0.0
H55 H 0.09905 -0.00362 0.72693 0.0
C56 C 0.05984 -0.00155 0.74198 0.0
H57 H 0.98214 0.00955 0.69055 0.0
H58 H 0.05129 0.85689 0.36432 0.0
H59 H 1.02703 0.70882 0.45281 0.0
H60 H 1.00173 0.69516 0.60155 0.0
H61 H 1.00231 0.83034 0.66348 0.0
C62 C 1.02066 0.00406 0.67708 0.0
C63 C 1.03057 0.00929 0.58494 0.0
C64 C 1.02788 0.92847 0.5487 0.0
C65 C 0.03943 0.93499 0.46137 0.0
C66 C 0.04009 0.85484 0.42871 0.0
C67 C 1.02675 0.76952 0.47913 0.0
C68 C 1.01282 0.76195 0.56302 0.0
C69 C 1.01348 0.84028 0.59784 0.0
H70 H 0.3831 0.94689 0.96099 0.0
C71 C 0.39622 0.00632 0.00121 0.0
H72 H 0.4658 0.10011 0.08201 0.0
H73 H 0.60246 0.84143 0.14087 0.0
H74 H 0.56994 0.82295 0.28238 0.0
H75 H 0.50239 0.88902 0.30661 0.0
H76 H 0.46662 0.97339 0.1892 0.0
C77 C 0.45146 0.04523 0.03667 0.0
C78 C 0.49369 0.00815 0.02183 0.0
C79 C 0.51523 0.96075 0.09159 0.0
C80 C 0.55503 0.92408 0.07798 0.0
C81 C 0.57371 0.87342 0.14803 0.0
C82 C 0.555 0.86158 0.22956 0.0
C83 C 0.51692 0.89866 0.24317 0.0
C84 C 0.49687 0.94725 0.17519 0.0
H85 H 0.68393 -0.00443 0.06017 0.0
C86 C 0.67192 0.93894 0.01705 0.0
H87 H 0.60347 0.84823 0.93252 0.0
H88 H 0.46491 0.10248 0.87567 0.0
H89 H 0.49755 0.12129 0.73424 0.0
H90 H 0.56559 0.05619 0.71016 0.0
H91 H 0.60165 0.97233 0.82754 0.0
C92 C 0.61699 0.90064 0.98007 0.0
C93 C 0.5743 0.93678 0.99496 0.0
C94 C 0.55272 0.98416 0.92517 0.0
C95 C 0.51281 0.0206 0.93874 0.0
C96 C 0.4939 0.07091 0.86861 0.0
C97 C 0.51264 0.08291 0.7871 0.0
C98 C 0.55099 0.04635 0.77357 0.0
C99 C 0.57119 -0.00201 0.84158 0.0
H100 H 0.08747 0.72743 0.05622 0.0
C101 C 0.05123 0.73213 0.01356 0.0
H102 H 0.98153 0.66353 0.9201 0.0
H103 H 0.08713 0.39396 0.82431 0.0
H104 H 0.09568 0.49817 0.69327 0.0
H105 H 0.07453 0.63868 0.6875 0.0
H106 H 0.04354 0.67494 0.81216 0.0
C107 C 1.01644 0.65884 0.96604 0.0
C108 C 1.02817 0.57307 0.96956 0.0
C109 C 0.04653 0.55335 0.89619 0.0
C110 C 0.05981 0.47335 0.90004 0.0
C111 C 0.07713 0.45438 0.82535 0.0
C112 C 0.08219 0.51359 0.74964 0.0
C113 C 0.07014 0.59261 0.74633 0.0
C114 C 0.05243 0.61258 0.81844 0.0
H115 H 0.97893 0.23534 0.99568 0.0
C116 C 1.0214 0.24039 0.98823 0.0
H117 H 0.10753 0.33348 0.96936 0.0
H118 H 0.98799 0.58431 0.11876 0.0
H119 H 0.98359 0.48442 0.25182 0.0
H120 H 1.01446 0.35389 0.26242 0.0
H121 H 0.04944 0.32203 0.13993 0.0
C122 C 0.06503 0.32638 0.97907 0.0
C123 C 0.05504 0.41367 0.9774 0.0
C124 C 0.03803 0.43479 0.05154 0.0
C125 C 1.02297 0.51293 0.0468 0.0
C126 C 1.00237 0.52848 0.11987 0.0
C127 C 0.99924 0.47126 0.19656 0.0
C128 C 1.01649 0.39764 0.20248 0.0
C129 C 1.03592 0.37952 0.13123 0.0
loop_
_geom_bond_atom_site_label_1
_geom_bond_atom_site_label_2
_geom_bond_distance
_geom_bond_site_symmetry_2
_ccdc_geom_bond_type
Tb0 C9 2.764 . S
Tb0 O10 2.325 1_545 S
Tb0 O13 2.303 1_554 S
Tb0 O17 2.322 . S
Tb0 O18 2.349 . S
Tb0 O21 2.415 1_554 S
Tb0 O22 2.399 . S
Tb1 O11 2.322 . S
Tb1 O12 2.349 . S
Tb1 O14 2.415 1_556 S
Tb1 O15 2.399 . S
Tb1 O16 2.325 1_565 S
Tb1 O19 2.303 1_556 S
Tb1 C30 2.764 . S
C2 O18 1.261 . S
C2 O19 1.257 1_445 S
C3 C6 1.358 . S
C3 C7 1.332 1_544 S
C3 C9 1.504 . S
C4 C5 1.373 1_566 S
C4 C8 1.308 . S
C5 C4 1.373 1_544 S
C5 C6 1.429 . S
C5 H32 0.932 . S
C6 C3 1.358 . S
C6 C5 1.429 . S
C6 H33 0.930 . S
C7 C3 1.332 1_566 S
C7 C8 1.394 . S
C7 H34 0.932 . S
C8 C4 1.308 . S
C8 C7 1.394 . S
C8 H35 0.929 . S
C9 Tb0 2.764 . S
C9 C3 1.504 . S
C9 O21 1.239 1_554 S
C9 O22 1.263 . S
O10 Tb0 2.325 1_565 S
O10 C20 1.232 1_455 S
O11 Tb1 2.322 . S
O11 C20 1.266 1_556 S
O12 Tb1 2.349 . S
O12 C23 1.261 . S
O13 Tb0 2.303 1_556 S
O13 C23 1.257 1_445 S
O14 Tb1 2.415 1_554 S
O14 C30 1.239 1_554 S
O15 Tb1 2.399 . S
O15 C30 1.263 . S
O16 Tb1 2.325 1_545 S
O16 C31 1.229 1_655 S
O17 Tb0 2.322 . S
O17 C31 1.271 1_554 S
O18 Tb0 2.349 . S
O18 C2 1.261 . S
O19 Tb1 2.303 1_554 S
O19 C2 1.257 1_665 S
C20 O10 1.232 1_655 S
C20 O11 1.266 1_554 S
O21 Tb0 2.415 1_556 S
O21 C9 1.239 1_556 S
O22 Tb0 2.399 . S
O22 C9 1.263 . S
C23 O12 1.261 . S
C23 O13 1.257 1_665 S
C24 C27 1.358 . S
C24 C28 1.332 1_566 S
C24 C30 1.504 . S
C25 C26 1.373 1_544 S
C25 C29 1.308 . S
C26 C25 1.373 1_566 S
C26 C27 1.429 . S
C26 H36 0.932 . S
C27 C24 1.358 . S
C27 C26 1.429 . S
C27 H37 0.930 . S
C28 C24 1.332 1_544 S
C28 C29 1.394 . S
C28 H38 0.932 . S
C29 C25 1.308 . S
C29 C28 1.394 . S
C29 H39 0.929 . S
C30 Tb1 2.764 . S
C30 O14 1.239 1_556 S
C30 O15 1.263 . S
C30 C24 1.504 . S
C31 O16 1.229 1_455 S
C31 O17 1.271 1_556 S
H32 C5 0.932 . S
H33 C6 0.930 . S
H34 C7 0.932 . S
H35 C8 0.929 . S
H36 C26 0.932 . S
H37 C27 0.930 . S
H38 C28 0.932 . S
H39 C29 0.929 . S
H40 C41 0.951 . S
C41 H40 0.951 . S
C41 C47 1.265 1_665 S
H42 C47 0.950 . S
H43 C51 0.949 . S
H44 C52 0.950 . S
H45 C53 0.951 . S
H46 C54 0.951 . S
C47 C41 1.265 1_445 S
C47 H42 0.950 . S
C47 C48 1.478 . S
C48 C47 1.478 . S
C48 C49 1.397 . S
C48 C65 1.394 1_445 S
C49 C48 1.397 . S
C49 C50 1.438 . S
C49 C54 1.429 . S
C50 C49 1.438 . S
C50 C51 1.428 . S
C50 C63 1.394 1_445 S
C51 H43 0.949 . S
C51 C50 1.428 . S
C51 C52 1.345 . S
C52 H44 0.950 . S
C52 C51 1.345 . S
C52 C53 1.424 . S
C53 H45 0.951 . S
C53 C52 1.424 . S
C53 C54 1.347 . S
C54 H46 0.951 . S
C54 C49 1.429 . S
C54 C53 1.347 . S
H55 C56 0.951 . S
C56 H55 0.951 . S
C56 C62 1.265 1_445 S
H57 C62 0.950 . S
H58 C66 0.949 . S
H59 C67 0.950 . S
H60 C68 0.951 . S
H61 C69 0.951 . S
C62 C56 1.265 1_665 S
C62 H57 0.950 . S
C62 C63 1.478 . S
C63 C50 1.394 1_665 S
C63 C62 1.478 . S
C63 C64 1.397 . S
C64 C63 1.397 . S
C64 C65 1.438 . S
C64 C69 1.429 . S
C65 C48 1.394 1_665 S
C65 C64 1.438 . S
C65 C66 1.428 . S
C66 H58 0.949 . S
C66 C65 1.428 . S
C66 C67 1.345 . S
C67 H59 0.950 . S
C67 C66 1.345 . S
C67 C68 1.424 . S
C68 H60 0.951 . S
C68 C67 1.424 . S
C68 C69 1.347 . S
C69 H61 0.951 . S
C69 C64 1.429 . S
C69 C68 1.347 . S
H70 C71 0.951 . S
C71 H70 0.951 . S
C71 C77 1.265 1_566 S
H72 C77 0.950 . S
H73 C81 0.949 . S
H74 C82 0.950 . S
H75 C83 0.951 . S
H76 C84 0.957 . S
C77 C71 1.265 1_544 S
C77 H72 0.950 . S
C77 C78 1.478 . S
C78 C77 1.478 . S
C78 C79 1.397 . S
C78 C95 1.394 1_554 S
C79 C78 1.397 . S
C79 C80 1.438 1_545 S
C79 C84 1.427 . S
C80 C79 1.438 1_565 S
C80 C81 1.428 . S
C80 C93 1.394 1_554 S
C81 H73 0.949 . S
C81 C80 1.428 . S
C81 C82 1.345 . S
C82 H74 0.950 . S
C82 C81 1.345 . S
C82 C83 1.424 . S
C83 H75 0.951 . S
C83 C82 1.424 . S
C83 C84 1.343 1_565 S
C84 H76 0.957 . S
C84 C79 1.427 . S
C84 C83 1.343 1_545 S
H85 C86 0.951 . S
C86 H85 0.951 . S
C86 C92 1.265 1_544 S
H87 C92 0.950 . S
H88 C96 0.949 . S
H89 C97 0.950 . S
H90 C98 0.951 . S
H91 C99 0.955 . S
C92 C86 1.265 1_566 S
C92 H87 0.950 . S
C92 C93 1.478 . S
C93 C80 1.394 1_556 S
C93 C92 1.478 . S
C93 C94 1.397 . S
C94 C93 1.397 . S
C94 C95 1.438 1_565 S
C94 C99 1.427 . S
C95 C78 1.394 1_556 S
C95 C94 1.438 1_545 S
C95 C96 1.428 . S
C96 H88 0.949 . S
C96 C95 1.428 . S
C96 C97 1.345 . S
C97 H89 0.950 . S
C97 C96 1.345 . S
C97 C98 1.424 . S
C98 H90 0.951 . S
C98 C97 1.424 . S
C98 C99 1.345 1_545 S
C99 H91 0.955 . S
C99 C94 1.427 . S
C99 C98 1.345 1_565 S
H100 C101 0.951 . S
C101 H100 0.951 . S
C101 C107 1.265 1_454 S
H102 C107 0.950 . S
H103 C111 0.949 . S
H104 C112 0.950 . S
H105 C113 0.951 . S
H106 C114 0.951 . S
C107 C101 1.265 1_656 S
C107 H102 0.950 . S
C107 C108 1.478 . S
C108 C107 1.478 . S
C108 C109 1.397 . S
C108 C125 1.394 1_656 S
C109 C108 1.397 . S
C109 C110 1.438 . S
C109 C114 1.429 . S
C110 C109 1.438 . S
C110 C111 1.428 . S
C110 C123 1.394 1_656 S
C111 H103 0.949 . S
C111 C110 1.428 . S
C111 C112 1.345 . S
C112 H104 0.950 . S
C112 C111 1.345 . S
C112 C113 1.424 . S
C113 H105 0.951 . S
C113 C112 1.424 . S
C113 C114 1.347 . S
C114 H106 0.951 . S
C114 C109 1.429 . S
C114 C113 1.347 . S
H115 C116 0.951 . S
C116 H115 0.951 . S
C116 C122 1.265 1_656 S
H117 C122 0.950 . S
H118 C126 0.949 . S
H119 C127 0.950 . S
H120 C128 0.951 . S
H121 C129 0.951 . S
C122 C116 1.265 1_454 S
C122 H117 0.950 . S
C122 C123 1.478 . S
C123 C110 1.394 1_454 S
C123 C122 1.478 . S
C123 C124 1.397 . S
C124 C123 1.397 . S
C124 C125 1.438 . S
C124 C129 1.429 . S
C125 C108 1.394 1_454 S
C125 C124 1.438 . S
C125 C126 1.428 . S
C126 H118 0.949 . S
C126 C125 1.428 . S
C126 C127 1.345 . S
C127 H119 0.950 . S
C127 C126 1.345 . S
C127 C128 1.424 . S
C128 H120 0.951 . S
C128 C127 1.424 . S
C128 C129 1.347 . S
C129 H121 0.951 . S
C129 C124 1.429 . S
C129 C128 1.347 . S
C41 C2 1.493 1_665 S
C56 C23 1.493 1_445 S
C71 C4 1.484 . S
C86 C25 1.484 . S
C101 C20 1.483 1_455 S
C116 C31 1.479 1_655 S
