# Generated by pormake.
# Topology rob, (6)-cn, num edge types: 1
# Building blocks:
#     Node 0, Type 0, BuildingBlock: MIFKUJ_clean_sbu_0, # of connection points: 6
#     Node 1, Type 0, BuildingBlock: MIFKUJ_clean_sbu_0, # of connection points: 6
#     Node 2, Type 0, BuildingBlock: MIFKUJ_clean_sbu_0, # of connection points: 6
#     Node 3, Type 0, BuildingBlock: MIFKUJ_clean_sbu_0, # of connection points: 6
#     Edge 4, Type (0, 0), BuildingBlock: OJICUG_clean_linker_0, # of connection points: 2
#     Edge 5, Type (0, 0), BuildingBlock: OJICUG_clean_linker_0, # of connection points: 2
#     Edge 6, Type (0, 0), BuildingBlock: OJICUG_clean_linker_0, # of connection points: 2
#     Edge 7, Type (0, 0), BuildingBlock: OJICUG_clean_linker_0, # of connection points: 2
#     Edge 8, Type (0, 0), BuildingBlock: OJICUG_clean_linker_0, # of connection points: 2
#     Edge 9, Type (0, 0), BuildingBlock: OJICUG_clean_linker_0, # of connection points: 2
#     Edge 10, Type (0, 0), BuildingBlock: OJICUG_clean_linker_0, # of connection points: 2
#     Edge 11, Type (0, 0), BuildingBlock: OJICUG_clean_linker_0, # of connection points: 2
#     Edge 12, Type (0, 0), BuildingBlock: OJICUG_clean_linker_0, # of connection points: 2
#     Edge 13, Type (0, 0), BuildingBlock: OJICUG_clean_linker_0, # of connection points: 2
#     Edge 14, Type (0, 0), BuildingBlock: OJICUG_clean_linker_0, # of connection points: 2
#     Edge 15, Type (0, 0), BuildingBlock: OJICUG_clean_linker_0, # of connection points: 2
# Relax obj value: 0.078
# Max RMSD: 0.184
# Mean RMSD: 0.184
data_MOF--net-rob--node1-MIFKUJ_clean_sbu_0--edge1-OJICUG_clean_linker_0
_symmetry_space_group_name_H-M    P1
_symmetry_Int_Tables_number       1
_symmetry_cell_setting            triclinic
loop_
_symmetry_equiv_pos_as_xyz
'x, y, z'
_cell_length_a     12.691617
_cell_length_b     15.819658
_cell_length_c     23.072185
_cell_angle_alpha  90.004701
_cell_angle_beta   81.928863
_cell_angle_gamma 90.000827
loop_
_atom_site_label
_atom_site_type_symbol
_atom_site_fract_x
_atom_site_fract_y
_atom_site_fract_z
_atom_type_partial_charge
Zn0 Zn 0.2163 0.27127 0.92128 0.0
Zn1 Zn 0.28227 0.18734 0.03892 0.0
C2 C 0.40728 0.29114 0.8523 0.0
O3 O 0.37064 0.36794 0.86365 0.0
C4 C 0.1032 0.17103 0.11632 0.0
O5 O 0.14547 0.09538 0.10843 0.0
O6 O 0.14606 0.31655 0.85366 0.0
O7 O 0.12054 0.17805 0.95667 0.0
O8 O 0.23669 0.09336 0.98949 0.0
C9 C 0.14903 0.25857 0.81514 0.0
O10 O 0.18396 0.18345 0.82761 0.0
O11 O 0.35592 0.22893 0.87714 0.0
C12 C 0.36352 0.2117 0.13956 0.0
O13 O 0.3286 0.28497 0.12338 0.0
O14 O 0.36092 0.14866 0.10536 0.0
O15 O 0.3754 0.27628 0.99732 0.0
O16 O 0.25118 0.36325 0.97687 0.0
O17 O 0.14645 0.23223 0.086 0.0
C18 C 0.14554 0.10542 0.9739 0.0
C19 C 0.33969 0.35083 0.9954 0.0
Zn20 Zn 0.63029 0.78788 1.00894 0.0
Zn21 Zn 0.7618 0.70128 0.11085 0.0
C22 C 0.74957 0.79919 0.90268 0.0
O23 O 0.70915 0.87447 0.91559 0.0
C24 C 0.62765 0.67692 0.21026 0.0
O25 O 0.66934 0.60332 0.19348 0.0
O26 O 0.51198 0.83152 0.96582 0.0
O27 O 0.5637 0.69801 0.06472 0.0
O28 O 0.69809 0.61106 0.06582 0.0
C29 C 0.47628 0.76963 0.93923 0.0
O30 O 0.51212 0.69352 0.94782 0.0
O31 O 0.73259 0.74081 0.9409 0.0
C32 C 0.90747 0.71789 0.1857 0.0
O33 O 0.87809 0.79491 0.1739 0.0
O34 O 0.87202 0.65624 0.15875 0.0
O35 O 0.83703 0.79317 0.06173 0.0
O36 O 0.71279 0.88152 0.04095 0.0
O37 O 0.64858 0.74023 0.17646 0.0
C38 C 0.6013 0.6236 0.05989 0.0
C39 C 0.80972 0.86534 0.04504 0.0
Zn40 Zn 0.22806 0.77118 0.62054 0.0
Zn41 Zn 0.16264 0.68731 0.50271 0.0
C42 C 0.03666 0.79058 0.68926 0.0
O43 O 0.07297 0.86749 0.678 0.0
C44 C 0.34197 0.67108 0.42547 0.0
O45 O 0.29979 0.59539 0.43331 0.0
O46 O 0.29794 0.81646 0.6883 0.0
O47 O 0.32415 0.67817 0.58513 0.0
O48 O 0.2081 0.59343 0.55226 0.0
C49 C 0.29491 0.7585 0.72684 0.0
O50 O 0.26005 0.68336 0.71434 0.0
O51 O 0.08842 0.72852 0.66445 0.0
C52 C 0.0818 0.71136 0.40191 0.0
O53 O 0.11657 0.78471 0.41806 0.0
O54 O 0.08429 0.64843 0.43619 0.0
O55 O 0.06927 0.77625 0.54414 0.0
O56 O 0.19323 0.86321 0.56498 0.0
O57 O 0.29853 0.73225 0.45574 0.0
C58 C 0.29924 0.60554 0.56786 0.0
C59 C 0.10489 0.85081 0.54625 0.0
Zn60 Zn 0.81429 0.2882 0.53274 0.0
Zn61 Zn 0.68317 0.20152 0.43085 0.0
C62 C 0.69454 0.29988 0.63884 0.0
O63 O 0.73506 0.37511 0.62586 0.0
C64 C 0.8176 0.177 0.33159 0.0
O65 O 0.77583 0.10344 0.34839 0.0
O66 O 0.93243 0.33178 0.57602 0.0
O67 O 0.88104 0.19816 0.47714 0.0
O68 O 0.74663 0.11126 0.47595 0.0
C69 C 0.96783 0.26986 0.60269 0.0
O70 O 0.93182 0.1938 0.5941 0.0
O71 O 0.71166 0.24136 0.60072 0.0
C72 C 0.5381 0.21834 0.35574 0.0
O73 O 0.56782 0.29527 0.36753 0.0
O74 O 0.57308 0.15661 0.38281 0.0
O75 O 0.60786 0.29342 0.47992 0.0
O76 O 0.73213 0.38185 0.50052 0.0
O77 O 0.79662 0.24038 0.36532 0.0
C78 C 0.8434 0.12376 0.48194 0.0
C79 C 0.63518 0.36565 0.49648 0.0
C80 C 0.42505 0.56747 0.04026 0.0
C81 C 0.53292 0.55332 0.04554 0.0
H82 H 0.27954 0.51497 1.01891 0.0
C83 C 0.5756 0.4722 0.03482 0.0
H84 H 0.38947 0.62928 0.0487 0.0
C85 C 0.51239 0.40691 1.01837 0.0
C86 C 0.40527 0.4214 1.01185 0.0
H87 H 0.65817 0.45916 0.03856 0.0
H88 H 0.54807 0.34506 1.01025 0.0
C89 C 0.36206 0.50227 0.02298 0.0
C90 C 0.36185 0.4641 0.52888 0.0
C91 C 0.3841 0.54176 0.55379 0.0
H92 H 0.42358 0.34884 0.49027 0.0
C93 C 0.49015 0.56107 0.56041 0.0
H94 H 0.28128 0.44733 0.52299 0.0
C95 C 0.57243 0.50459 0.54134 0.0
C96 C 0.55019 0.42764 0.51542 0.0
H97 H 0.51014 0.6206 0.57935 0.0
H98 H 0.65319 0.52126 0.54688 0.0
C99 C 0.44388 0.40787 0.50977 0.0
C100 C 0.95473 0.06076 0.98113 0.0
C101 C 0.06076 0.04157 0.9879 0.0
H102 H 0.79175 0.02082 0.99448 0.0
C103 C 0.083 0.96396 1.01288 0.0
H104 H 0.93475 0.12024 0.96213 0.0
C105 C 0.00099 0.90768 0.03192 0.0
C106 C 0.89471 0.92735 0.02614 0.0
H107 H 0.16354 0.94728 1.01889 0.0
H108 H 0.02128 0.8487 0.05149 0.0
C109 C 0.87248 0.00423 1.00013 0.0
C110 C 0.01952 0.06761 0.50176 0.0
C111 C 0.91175 0.05344 0.49626 0.0
H112 H 0.16492 0.01507 0.52322 0.0
C113 C 0.86912 0.97226 0.50673 0.0
H114 H 0.05506 0.12948 0.49352 0.0
C115 C 0.9323 0.90691 0.52313 0.0
C116 C 0.03933 0.92142 0.52985 0.0
H117 H 0.78663 0.9592 0.50282 0.0
H118 H 0.89668 0.84501 0.53103 0.0
C119 C 0.08248 0.00236 0.51899 0.0
C120 C 0.41693 0.27367 0.29011 0.0
C121 C 0.4789 0.20642 0.30579 0.0
H122 H 0.33211 0.3274 0.22607 0.0
C123 C 0.49548 0.13569 0.2686 0.0
H124 H 0.4023 0.32873 0.31805 0.0
C125 C 0.45554 0.13505 0.21475 0.0
C126 C 0.39892 0.20518 0.19779 0.0
H127 H 0.54405 0.08334 0.27955 0.0
H128 H 0.47247 0.08159 0.18561 0.0
C129 C 0.3774 0.27304 0.23698 0.0
C130 C 0.4994 0.7545 0.28587 0.0
C131 C 0.5631 0.6836 0.26862 0.0
H132 H 0.37863 0.80701 0.35079 0.0
C133 C 0.56362 0.61542 0.30764 0.0
H134 H 0.49826 0.80823 0.25688 0.0
C135 C 0.49702 0.61518 0.36081 0.0
C136 C 0.42828 0.68315 0.37657 0.0
H137 H 0.61341 0.56053 0.2965 0.0
H138 H 0.49601 0.55984 0.38862 0.0
C139 C 0.43207 0.75424 0.33973 0.0
C140 C 0.3419 0.71549 0.88146 0.0
C141 C 0.41116 0.78092 0.89186 0.0
H142 H 0.2503 0.65811 0.82171 0.0
C143 C 0.4322 0.8461 0.85038 0.0
H144 H 0.32431 0.66463 0.91284 0.0
C145 C 0.39064 0.84188 0.7971 0.0
C146 C 0.32793 0.77243 0.78508 0.0
H147 H 0.48669 0.89667 0.85723 0.0
H148 H 0.41221 0.89019 0.76432 0.0
C149 C 0.30049 0.71143 0.82888 0.0
C150 C 0.56189 0.21812 0.70927 0.0
C151 C 0.63211 0.28663 0.69712 0.0
H152 H 0.43468 0.1648 0.76972 0.0
C153 C 0.63868 0.34761 0.74075 0.0
H154 H 0.55585 0.16995 0.67654 0.0
C155 C 0.57074 0.34441 0.79344 0.0
C156 C 0.49501 0.27989 0.80406 0.0
H157 H 0.69366 0.40019 0.7334 0.0
H158 H 0.57384 0.39506 0.82482 0.0
C159 C 0.49346 0.21476 0.76265 0.0
C160 C 0.94954 0.63534 0.27298 0.0
C161 C 0.96672 0.70583 0.23562 0.0
H162 H 0.972 0.58151 0.35614 0.0
C163 C 0.02932 0.77281 0.25111 0.0
H164 H 0.90048 0.58321 0.26217 0.0
C165 C 0.06883 0.77221 0.30425 0.0
C166 C 0.04663 0.70466 0.34363 0.0
H167 H 0.04443 0.82766 0.22302 0.0
H168 H 0.11458 0.82638 0.31503 0.0
C169 C -0.01055 0.63474 0.32684 0.0
C170 C 0.88189 0.11525 0.23432 0.0
C171 C 0.88221 0.18358 0.27324 0.0
H172 H 0.94958 0.05955 0.15339 0.0
C173 C 0.94571 0.25455 0.25589 0.0
H174 H 0.83226 0.0603 0.24553 0.0
C175 C 0.01301 0.25425 0.20202 0.0
C176 C 0.01697 0.18304 0.16526 0.0
H177 H 0.94669 0.30839 0.2848 0.0
H178 H 0.06627 0.30711 0.19087 0.0
C179 C 0.94844 0.11498 0.18113 0.0
C180 C 0.10199 0.21555 0.66052 0.0
C181 C 0.03289 0.28107 0.6501 0.0
H182 H 0.1934 0.15806 0.72031 0.0
C183 C 0.01193 0.34628 0.69156 0.0
H184 H 0.1195 0.16466 0.62916 0.0
C185 C 0.05343 0.34202 0.74486 0.0
C186 C 0.11598 0.27249 0.75691 0.0
H187 H 0.95756 0.39692 0.68469 0.0
H188 H 0.03194 0.39037 0.77762 0.0
C189 C 0.14333 0.21144 0.71313 0.0
C190 C 0.87264 0.84322 0.7479 0.0
C191 C 0.94889 0.77906 0.73743 0.0
H192 H 0.74934 0.89874 0.80784 0.0
C193 C 0.95092 0.71418 0.77897 0.0
H194 H 0.86917 0.89366 0.71641 0.0
C195 C 0.88249 0.71752 0.83236 0.0
C196 C 0.8118 0.78575 0.84437 0.0
H197 H 0.0101 0.6645 0.77202 0.0
H198 H 0.88895 0.66962 0.8652 0.0
C199 C 0.80469 0.8464 0.80059 0.0
loop_
_geom_bond_atom_site_label_1
_geom_bond_atom_site_label_2
_geom_bond_distance
_geom_bond_site_symmetry_2
_ccdc_geom_bond_type
Zn0 O6 1.969 . S
Zn0 O7 1.965 . S
Zn0 O11 2.024 . S
Zn0 O16 1.969 . S
Zn1 O8 1.969 . S
Zn1 O14 1.969 . S
Zn1 O15 1.965 . S
Zn1 O17 2.024 . S
C2 O3 1.229 . S
C2 O11 1.058 . S
O3 C2 1.229 . S
C4 O5 1.229 . S
C4 O17 1.058 . S
O5 C4 1.229 . S
O6 Zn0 1.969 . S
O6 C9 1.267 . S
O7 Zn0 1.965 . S
O7 C18 1.260 1_556 S
O8 Zn1 1.969 . S
O8 C18 1.258 . S
C9 O6 1.267 . S
C9 O10 1.228 . S
O10 C9 1.228 . S
O11 Zn0 2.024 . S
O11 C2 1.058 . S
C12 O13 1.228 . S
C12 O14 1.267 . S
O13 C12 1.228 . S
O14 Zn1 1.969 . S
O14 C12 1.267 . S
O15 Zn1 1.965 . S
O15 C19 1.260 1_554 S
O16 Zn0 1.969 . S
O16 C19 1.258 . S
O17 Zn1 2.024 . S
O17 C4 1.058 . S
C18 O7 1.260 1_554 S
C18 O8 1.258 . S
C19 O15 1.260 1_556 S
C19 O16 1.258 . S
Zn20 O26 1.969 . S
Zn20 O27 1.965 . S
Zn20 O31 2.024 . S
Zn20 O36 1.969 . S
Zn21 O28 1.969 . S
Zn21 O34 1.969 . S
Zn21 O35 1.965 . S
Zn21 O37 2.024 . S
C22 O23 1.229 . S
C22 O31 1.058 . S
O23 C22 1.229 . S
C24 O25 1.229 . S
C24 O37 1.058 . S
O25 C24 1.229 . S
O26 Zn20 1.969 . S
O26 C29 1.267 . S
O27 Zn20 1.965 . S
O27 C38 1.260 1_556 S
O28 Zn21 1.969 . S
O28 C38 1.258 . S
C29 O26 1.267 . S
C29 O30 1.228 . S
O30 C29 1.228 . S
O31 Zn20 2.024 . S
O31 C22 1.058 . S
C32 O33 1.228 . S
C32 O34 1.267 . S
O33 C32 1.228 . S
O34 Zn21 1.969 . S
O34 C32 1.267 . S
O35 Zn21 1.965 . S
O35 C39 1.260 1_554 S
O36 Zn20 1.969 . S
O36 C39 1.258 . S
O37 Zn21 2.024 . S
O37 C24 1.058 . S
C38 O27 1.260 1_554 S
C38 O28 1.258 . S
C39 O35 1.260 1_556 S
C39 O36 1.258 . S
Zn40 O46 1.969 . S
Zn40 O47 1.965 . S
Zn40 O51 2.024 . S
Zn40 O56 1.969 . S
Zn41 O48 1.969 . S
Zn41 O54 1.969 . S
Zn41 O55 1.965 . S
Zn41 O57 2.024 . S
C42 O43 1.229 . S
C42 O51 1.058 . S
O43 C42 1.229 . S
C44 O45 1.229 . S
C44 O57 1.058 . S
O45 C44 1.229 . S
O46 Zn40 1.969 . S
O46 C49 1.267 . S
O47 Zn40 1.965 . S
O47 C58 1.260 . S
O48 Zn41 1.969 . S
O48 C58 1.258 . S
C49 O46 1.267 . S
C49 O50 1.228 . S
O50 C49 1.228 . S
O51 Zn40 2.024 . S
O51 C42 1.058 . S
C52 O53 1.228 . S
C52 O54 1.267 . S
O53 C52 1.228 . S
O54 Zn41 1.969 . S
O54 C52 1.267 . S
O55 Zn41 1.965 . S
O55 C59 1.260 . S
O56 Zn40 1.969 . S
O56 C59 1.258 . S
O57 Zn41 2.024 . S
O57 C44 1.058 . S
C58 O47 1.260 . S
C58 O48 1.258 . S
C59 O55 1.260 . S
C59 O56 1.258 . S
Zn60 O66 1.969 . S
Zn60 O67 1.965 . S
Zn60 O71 2.024 . S
Zn60 O76 1.969 . S
Zn61 O68 1.969 . S
Zn61 O74 1.969 . S
Zn61 O75 1.965 . S
Zn61 O77 2.024 . S
C62 O63 1.229 . S
C62 O71 1.058 . S
O63 C62 1.229 . S
C64 O65 1.229 . S
C64 O77 1.058 . S
O65 C64 1.229 . S
O66 Zn60 1.969 . S
O66 C69 1.267 . S
O67 Zn60 1.965 . S
O67 C78 1.260 . S
O68 Zn61 1.969 . S
O68 C78 1.258 . S
C69 O66 1.267 . S
C69 O70 1.228 . S
O70 C69 1.228 . S
O71 Zn60 2.024 . S
O71 C62 1.058 . S
C72 O73 1.228 . S
C72 O74 1.267 . S
O73 C72 1.228 . S
O74 Zn61 1.969 . S
O74 C72 1.267 . S
O75 Zn61 1.965 . S
O75 C79 1.260 . S
O76 Zn60 1.969 . S
O76 C79 1.258 . S
O77 Zn61 2.024 . S
O77 C64 1.058 . S
C78 O67 1.260 . S
C78 O68 1.258 . S
C79 O75 1.260 . S
C79 O76 1.258 . S
C80 C81 1.387 1_554 S
C80 H84 0.950 . S
C80 C89 1.390 . S
C81 C80 1.387 1_556 S
C81 C83 1.387 . S
H82 C89 0.950 . S
C83 C81 1.387 . S
C83 C85 1.390 . S
C83 H87 0.950 . S
H84 C80 0.950 . S
C85 C83 1.390 . S
C85 C86 1.387 1_556 S
C85 H88 0.950 . S
C86 C85 1.387 1_554 S
C86 C89 1.387 . S
H87 C83 0.950 . S
H88 C85 0.950 . S
C89 C80 1.390 . S
C89 H82 0.950 . S
C89 C86 1.387 . S
C90 C91 1.387 . S
C90 H94 0.950 . S
C90 C99 1.390 . S
C91 C90 1.387 . S
C91 C93 1.387 . S
H92 C99 0.950 . S
C93 C91 1.387 . S
C93 C95 1.390 . S
C93 H97 0.950 . S
H94 C90 0.950 . S
C95 C93 1.390 . S
C95 C96 1.387 . S
C95 H98 0.950 . S
C96 C95 1.387 . S
C96 C99 1.387 . S
H97 C93 0.950 . S
H98 C95 0.950 . S
C99 C90 1.390 . S
C99 H92 0.950 . S
C99 C96 1.387 . S
C100 C101 1.387 1_554 S
C100 H104 0.950 . S
C100 C109 1.390 1_445 S
C101 C100 1.387 1_556 S
C101 C103 1.387 . S
H102 C109 0.950 . S
C103 C101 1.387 . S
C103 C105 1.390 1_445 S
C103 H107 0.950 . S
H104 C100 0.950 . S
C105 C103 1.390 1_665 S
C105 C106 1.387 1_556 S
C105 H108 0.950 . S
C106 C105 1.387 1_554 S
C106 C109 1.387 . S
H107 C103 0.950 . S
H108 C105 0.950 . S
C109 C100 1.390 1_665 S
C109 H102 0.950 . S
C109 C106 1.387 . S
C110 C111 1.387 . S
C110 H114 0.950 . S
C110 C119 1.390 1_645 S
C111 C110 1.387 . S
C111 C113 1.387 . S
H112 C119 0.950 . S
C113 C111 1.387 . S
C113 C115 1.390 1_645 S
C113 H117 0.950 . S
H114 C110 0.950 . S
C115 C113 1.390 1_465 S
C115 C116 1.387 . S
C115 H118 0.950 . S
C116 C115 1.387 . S
C116 C119 1.387 . S
H117 C113 0.950 . S
H118 C115 0.950 . S
C119 C110 1.390 1_465 S
C119 H112 0.950 . S
C119 C116 1.387 . S
C120 C121 1.387 . S
C120 H124 0.950 . S
C120 C129 1.390 . S
C121 C120 1.387 . S
C121 C123 1.387 . S
H122 C129 0.950 . S
C123 C121 1.387 . S
C123 C125 1.390 . S
C123 H127 0.950 . S
H124 C120 0.950 . S
C125 C123 1.390 . S
C125 C126 1.387 . S
C125 H128 0.950 . S
C126 C125 1.387 . S
C126 C129 1.387 . S
H127 C123 0.950 . S
H128 C125 0.950 . S
C129 C120 1.390 . S
C129 H122 0.950 . S
C129 C126 1.387 . S
C130 C131 1.387 . S
C130 H134 0.950 . S
C130 C139 1.390 . S
C131 C130 1.387 . S
C131 C133 1.387 . S
H132 C139 0.950 . S
C133 C131 1.387 . S
C133 C135 1.390 . S
C133 H137 0.950 . S
H134 C130 0.950 . S
C135 C133 1.390 . S
C135 C136 1.387 . S
C135 H138 0.950 . S
C136 C135 1.387 . S
C136 C139 1.387 . S
H137 C133 0.950 . S
H138 C135 0.950 . S
C139 C130 1.390 . S
C139 H132 0.950 . S
C139 C136 1.387 . S
C140 C141 1.387 . S
C140 H144 0.950 . S
C140 C149 1.390 . S
C141 C140 1.387 . S
C141 C143 1.387 . S
H142 C149 0.950 . S
C143 C141 1.387 . S
C143 C145 1.390 . S
C143 H147 0.950 . S
H144 C140 0.950 . S
C145 C143 1.390 . S
C145 C146 1.387 . S
C145 H148 0.950 . S
C146 C145 1.387 . S
C146 C149 1.387 . S
H147 C143 0.950 . S
H148 C145 0.950 . S
C149 C140 1.390 . S
C149 H142 0.950 . S
C149 C146 1.387 . S
C150 C151 1.387 . S
C150 H154 0.950 . S
C150 C159 1.390 . S
C151 C150 1.387 . S
C151 C153 1.387 . S
H152 C159 0.950 . S
C153 C151 1.387 . S
C153 C155 1.390 . S
C153 H157 0.950 . S
H154 C150 0.950 . S
C155 C153 1.390 . S
C155 C156 1.387 . S
C155 H158 0.950 . S
C156 C155 1.387 . S
C156 C159 1.387 . S
H157 C153 0.950 . S
H158 C155 0.950 . S
C159 C150 1.390 . S
C159 H152 0.950 . S
C159 C156 1.387 . S
C160 C161 1.387 . S
C160 H164 0.950 . S
C160 C169 1.390 1_655 S
C161 C160 1.387 . S
C161 C163 1.387 . S
H162 C169 0.950 . S
C163 C161 1.387 . S
C163 C165 1.390 1_655 S
C163 H167 0.950 . S
H164 C160 0.950 . S
C165 C163 1.390 1_455 S
C165 C166 1.387 . S
C165 H168 0.950 . S
C166 C165 1.387 . S
C166 C169 1.387 . S
H167 C163 0.950 . S
H168 C165 0.950 . S
C169 C160 1.390 1_455 S
C169 H162 0.950 . S
C169 C166 1.387 . S
C170 C171 1.387 . S
C170 H174 0.950 . S
C170 C179 1.390 1_655 S
C171 C170 1.387 . S
C171 C173 1.387 . S
H172 C179 0.950 . S
C173 C171 1.387 . S
C173 C175 1.390 1_655 S
C173 H177 0.950 . S
H174 C170 0.950 . S
C175 C173 1.390 1_455 S
C175 C176 1.387 . S
C175 H178 0.950 . S
C176 C175 1.387 . S
C176 C179 1.387 . S
H177 C173 0.950 . S
H178 C175 0.950 . S
C179 C170 1.390 1_455 S
C179 H172 0.950 . S
C179 C176 1.387 . S
C180 C181 1.387 . S
C180 H184 0.950 . S
C180 C189 1.390 1_655 S
C181 C180 1.387 . S
C181 C183 1.387 . S
H182 C189 0.950 . S
C183 C181 1.387 . S
C183 C185 1.390 1_655 S
C183 H187 0.950 . S
H184 C180 0.950 . S
C185 C183 1.390 1_455 S
C185 C186 1.387 . S
C185 H188 0.950 . S
C186 C185 1.387 . S
C186 C189 1.387 . S
H187 C183 0.950 . S
H188 C185 0.950 . S
C189 C180 1.390 1_455 S
C189 H182 0.950 . S
C189 C186 1.387 . S
C190 C191 1.387 . S
C190 H194 0.950 . S
C190 C199 1.390 1_455 S
C191 C190 1.387 . S
C191 C193 1.387 . S
H192 C199 0.950 . S
C193 C191 1.387 . S
C193 C195 1.390 1_455 S
C193 H197 0.950 . S
H194 C190 0.950 . S
C195 C193 1.390 1_655 S
C195 C196 1.387 . S
C195 H198 0.950 . S
C196 C195 1.387 . S
C196 C199 1.387 . S
H197 C193 0.950 . S
H198 C195 0.950 . S
C199 C190 1.390 1_655 S
C199 H192 0.950 . S
C199 C196 1.387 . S
C81 C38 1.504 1_556 S
C86 C19 1.504 1_554 S
C91 C58 1.501 . S
C96 C79 1.501 . S
C101 C18 1.504 1_556 S
C106 C39 1.504 1_554 S
C111 C78 1.504 . S
C116 C59 1.504 . S
C121 C72 1.291 . S
C126 C12 1.291 . S
C131 C24 1.118 . S
C136 C44 1.118 . S
C141 C29 1.287 . S
C146 C49 1.287 . S
C151 C62 1.123 . S
C156 C2 1.123 . S
C161 C32 1.287 . S
C166 C52 1.287 . S
C171 C64 1.123 . S
C176 C4 1.123 . S
C181 C69 1.287 . S
C186 C9 1.287 . S
C191 C42 1.118 . S
C196 C22 1.118 . S
