# Generated by pormake.
# Topology tfs, (6)-cn, num edge types: 1
# Building blocks:
#     Node 0, Type 0, BuildingBlock: MIFKUJ_clean_sbu_0, # of connection points: 6
#     Node 1, Type 0, BuildingBlock: MIFKUJ_clean_sbu_0, # of connection points: 6
#     Node 2, Type 0, BuildingBlock: MIFKUJ_clean_sbu_0, # of connection points: 6
#     Node 3, Type 0, BuildingBlock: MIFKUJ_clean_sbu_0, # of connection points: 6
#     Node 4, Type 0, BuildingBlock: MIFKUJ_clean_sbu_0, # of connection points: 6
#     Node 5, Type 0, BuildingBlock: MIFKUJ_clean_sbu_0, # of connection points: 6
#     Edge 6, Type (0, 0), None
#     Edge 7, Type (0, 0), None
#     Edge 8, Type (0, 0), None
#     Edge 9, Type (0, 0), None
#     Edge 10, Type (0, 0), None
#     Edge 11, Type (0, 0), None
#     Edge 12, Type (0, 0), None
#     Edge 13, Type (0, 0), None
#     Edge 14, Type (0, 0), None
#     Edge 15, Type (0, 0), None
#     Edge 16, Type (0, 0), None
#     Edge 17, Type (0, 0), None
#     Edge 18, Type (0, 0), None
#     Edge 19, Type (0, 0), None
#     Edge 20, Type (0, 0), None
#     Edge 21, Type (0, 0), None
#     Edge 22, Type (0, 0), None
#     Edge 23, Type (0, 0), None
# Relax obj value: 0.492
# Max RMSD: 0.261
# Mean RMSD: 0.261
data_MOF--net-tfs--node1-MIFKUJ_clean_sbu_0--edge1-none
_symmetry_space_group_name_H-M    P1
_symmetry_Int_Tables_number       1
_symmetry_cell_setting            triclinic
loop_
_symmetry_equiv_pos_as_xyz
'x, y, z'
_cell_length_a     26.057993
_cell_length_b     26.057484
_cell_length_c     5.6352106
_cell_angle_alpha  89.994911
_cell_angle_beta   90.010297
_cell_angle_gamma 119.99837
loop_
_atom_site_label
_atom_site_type_symbol
_atom_site_fract_x
_atom_site_fract_y
_atom_site_fract_z
_atom_type_partial_charge
Zn0 Zn 0.20911 0.48786 -0.00254 0.0
Zn1 Zn 0.09721 0.2995 -0.00994 0.0
C2 C 0.34161 0.55067 0.96273 0.0
O3 O 0.343 0.52389 0.15802 0.0
C4 C 0.97514 0.2082 0.05476 0.0
O5 O -0.00339 0.17224 0.03881 0.0
O6 O 0.17201 0.53971 0.01056 0.0
O7 O 0.16718 0.41551 0.79002 0.0
O8 O 0.11498 0.32642 0.645 0.0
C9 C 0.19258 0.58497 0.87738 0.0
O10 O 0.22737 0.58958 0.70015 0.0
O11 O 0.29224 0.53977 0.87617 0.0
C12 C 0.18048 0.26147 0.05494 0.0
O13 O 0.21673 0.31891 0.0413 0.0
O14 O 0.12496 0.24116 0.0441 0.0
O15 O 0.14458 0.37189 0.1939 0.0
O16 O 0.20266 0.45991 0.33962 0.0
O17 O 0.00983 0.26385 0.04534 0.0
C18 C 0.14893 0.38158 0.6115 0.0
C19 C 0.16632 0.40519 0.37294 0.0
Zn20 Zn 0.71326 0.21311 -0.00263 0.0
Zn21 Zn 0.78973 0.10121 -0.00991 0.0
C22 C 0.78295 0.3456 0.96261 0.0
O23 O 0.81112 0.34698 0.15793 0.0
C24 C 0.75895 0.97913 0.05485 0.0
O25 O 0.81639 0.0006 0.03889 0.0
O26 O 0.62432 0.17601 0.01045 0.0
O27 O 0.74368 0.17117 0.78997 0.0
O28 O 0.78059 0.11898 0.64501 0.0
C29 C 0.59963 0.19658 0.87726 0.0
O30 O 0.62981 0.23138 0.70004 0.0
O31 O 0.74449 0.29624 0.87604 0.0
C32 C 0.91103 0.18447 0.0551 0.0
O33 O 0.88984 0.22073 0.04158 0.0
O34 O 0.87582 0.12895 0.04414 0.0
O35 O 0.76471 0.14858 0.19389 0.0
O36 O 0.73477 0.20665 0.33954 0.0
O37 O 0.738 0.01382 0.04541 0.0
C38 C 0.75937 0.15293 0.61147 0.0
C39 C 0.75314 0.17031 0.3729 0.0
Zn40 Zn 0.49218 0.71725 -0.00246 0.0
Zn41 Zn 0.68054 0.79372 -0.00972 0.0
C42 C 0.42936 0.78693 0.96271 0.0
O43 O 0.45615 0.8151 0.15802 0.0
C44 C 0.77185 0.76295 0.05477 0.0
O45 O 0.8078 0.82038 0.03846 0.0
O46 O 0.44033 0.6283 0.01066 0.0
O47 O 0.56452 0.74767 0.79015 0.0
O48 O 0.65362 0.78457 0.64519 0.0
C49 C 0.39508 0.60362 0.87742 0.0
O50 O 0.39045 0.63379 0.70014 0.0
O51 O 0.44027 0.74848 0.87616 0.0
C52 C 0.71857 0.91502 0.05522 0.0
O53 O 0.66113 0.89384 0.04171 0.0
O54 O 0.73888 0.8798 0.04428 0.0
O55 O 0.60815 0.7687 0.19406 0.0
O56 O 0.52013 0.73875 0.3397 0.0
O57 O 0.7162 0.74199 0.04564 0.0
C58 C 0.59846 0.76336 0.61165 0.0
C59 C 0.57485 0.75713 0.37307 0.0
Zn60 Zn 0.76695 0.49617 -0.00261 0.0
Zn61 Zn 0.87884 0.68454 0.99002 0.0
C62 C 0.63445 0.43336 0.96252 0.0
O63 O 0.63306 0.46015 0.1578 0.0
C64 C 0.00092 0.77584 0.05461 0.0
O65 O 0.97944 0.8118 0.03837 0.0
O66 O 0.80404 0.44432 0.01055 0.0
O67 O 0.80888 0.56852 0.78996 0.0
O68 O 0.86107 0.65762 0.64495 0.0
C69 C 0.78348 0.39908 0.8773 0.0
O70 O 0.74869 0.39446 0.69999 0.0
O71 O 0.68381 0.44427 0.87601 0.0
C72 C 0.79558 0.72257 0.05517 0.0
O73 O 0.75932 0.66512 0.04195 0.0
O74 O 0.8511 0.74288 0.04397 0.0
O75 O 0.83148 0.61215 0.19385 0.0
O76 O 0.77341 0.52413 0.33954 0.0
O77 O 0.96623 0.72019 0.0454 0.0
C78 C 0.82713 0.60246 0.61144 0.0
C79 C 0.80974 0.57884 0.37288 0.0
Zn80 Zn 0.26279 0.77093 -0.00256 0.0
Zn81 Zn 0.18632 0.88283 0.98995 0.0
C82 C 0.19309 0.63844 0.96263 0.0
O83 O 0.16491 0.63703 0.15789 0.0
C84 C 0.2171 0.00492 0.05448 0.0
O85 O 0.15967 0.98344 0.03827 0.0
O86 O 0.35173 0.80803 0.0106 0.0
O87 O 0.23237 0.81287 0.78996 0.0
O88 O 0.19547 0.86506 0.6449 0.0
C89 C 0.37642 0.78746 0.87738 0.0
O90 O 0.34625 0.75268 0.70009 0.0
O91 O 0.23156 0.6878 0.87612 0.0
C92 C 0.06503 0.79957 0.05502 0.0
O93 O 0.08621 0.76331 0.04175 0.0
O94 O 0.10024 0.85509 0.04389 0.0
O95 O 0.21135 0.83547 0.19382 0.0
O96 O 0.2413 0.77739 0.33957 0.0
O97 O 0.23805 0.97022 0.04528 0.0
C98 C 0.21668 0.83112 0.61142 0.0
C99 C 0.22292 0.81373 0.37288 0.0
Zn100 Zn 0.48388 0.26679 -0.00275 0.0
Zn101 Zn 0.29552 0.19032 0.98975 0.0
C102 C 0.54668 0.19709 0.9625 0.0
O103 O 0.5199 0.1689 0.15776 0.0
C104 C 0.20421 0.22109 0.05459 0.0
O105 O 0.16826 0.16366 0.03878 0.0
O106 O 0.53573 0.35574 0.01038 0.0
O107 O 0.41153 0.23638 0.78977 0.0
O108 O 0.32243 0.19947 0.6447 0.0
C109 C 0.58098 0.38042 0.87718 0.0
O110 O 0.5856 0.35025 0.69993 0.0
O111 O 0.53578 0.23556 0.87598 0.0
C112 C 0.25748 0.06902 0.05487 0.0
O113 O 0.31493 0.0902 0.04159 0.0
O114 O 0.23718 0.10424 0.04371 0.0
O115 O 0.36791 0.21535 0.19363 0.0
O116 O 0.45592 0.2453 0.33939 0.0
O117 O 0.25986 0.24205 0.04503 0.0
C118 C 0.37759 0.22069 0.61123 0.0
C119 C 0.40121 0.22692 0.37269 0.0
loop_
_geom_bond_atom_site_label_1
_geom_bond_atom_site_label_2
_geom_bond_distance
_geom_bond_site_symmetry_2
_ccdc_geom_bond_type
Zn0 O6 1.969 . S
Zn0 O7 1.965 1_554 S
Zn0 O11 2.024 1_554 S
Zn0 O16 1.969 . S
Zn1 O8 1.969 . S
Zn1 O14 1.969 . S
Zn1 O15 1.965 1_556 S
Zn1 O17 2.024 1_556 S
C2 O3 1.229 . S
C2 O11 1.058 1_554 S
O3 C2 1.229 . S
C4 O5 1.229 . S
C4 O17 1.058 1_556 S
O5 C4 1.229 . S
O6 Zn0 1.969 . S
O6 C9 1.267 1_554 S
O7 Zn0 1.965 1_556 S
O7 C18 1.260 . S
O8 Zn1 1.969 . S
O8 C18 1.258 . S
C9 O6 1.267 1_556 S
C9 O10 1.228 . S
O10 C9 1.228 . S
O11 Zn0 2.024 1_556 S
O11 C2 1.058 1_556 S
C12 O13 1.228 . S
C12 O14 1.267 1_554 S
O13 C12 1.228 . S
O14 Zn1 1.969 . S
O14 C12 1.267 1_556 S
O15 Zn1 1.965 1_554 S
O15 C19 1.260 . S
O16 Zn0 1.969 . S
O16 C19 1.258 . S
O17 Zn1 2.024 1_554 S
O17 C4 1.058 1_554 S
C18 O7 1.260 . S
C18 O8 1.258 . S
C19 O15 1.260 . S
C19 O16 1.258 . S
Zn20 O26 1.969 . S
Zn20 O27 1.965 1_554 S
Zn20 O31 2.024 1_554 S
Zn20 O36 1.969 . S
Zn21 O28 1.969 . S
Zn21 O34 1.969 . S
Zn21 O35 1.965 1_556 S
Zn21 O37 2.024 1_556 S
C22 O23 1.229 . S
C22 O31 1.058 1_554 S
O23 C22 1.229 . S
C24 O25 1.229 . S
C24 O37 1.058 1_556 S
O25 C24 1.229 . S
O26 Zn20 1.969 . S
O26 C29 1.267 1_554 S
O27 Zn20 1.965 1_556 S
O27 C38 1.260 . S
O28 Zn21 1.969 . S
O28 C38 1.258 . S
C29 O26 1.267 1_556 S
C29 O30 1.228 . S
O30 C29 1.228 . S
O31 Zn20 2.024 1_556 S
O31 C22 1.058 1_556 S
C32 O33 1.228 . S
C32 O34 1.267 1_554 S
O33 C32 1.228 . S
O34 Zn21 1.969 . S
O34 C32 1.267 1_556 S
O35 Zn21 1.965 1_554 S
O35 C39 1.260 . S
O36 Zn20 1.969 . S
O36 C39 1.258 . S
O37 Zn21 2.024 1_554 S
O37 C24 1.058 1_554 S
C38 O27 1.260 . S
C38 O28 1.258 . S
C39 O35 1.260 . S
C39 O36 1.258 . S
Zn40 O46 1.969 . S
Zn40 O47 1.965 1_554 S
Zn40 O51 2.024 1_554 S
Zn40 O56 1.969 . S
Zn41 O48 1.969 . S
Zn41 O54 1.969 . S
Zn41 O55 1.965 1_556 S
Zn41 O57 2.024 1_556 S
C42 O43 1.229 . S
C42 O51 1.058 1_554 S
O43 C42 1.229 . S
C44 O45 1.229 . S
C44 O57 1.058 1_556 S
O45 C44 1.229 . S
O46 Zn40 1.969 . S
O46 C49 1.267 1_554 S
O47 Zn40 1.965 1_556 S
O47 C58 1.260 . S
O48 Zn41 1.969 . S
O48 C58 1.258 . S
C49 O46 1.267 1_556 S
C49 O50 1.228 . S
O50 C49 1.228 . S
O51 Zn40 2.024 1_556 S
O51 C42 1.058 1_556 S
C52 O53 1.228 . S
C52 O54 1.267 1_554 S
O53 C52 1.228 . S
O54 Zn41 1.969 . S
O54 C52 1.267 1_556 S
O55 Zn41 1.965 1_554 S
O55 C59 1.260 . S
O56 Zn40 1.969 . S
O56 C59 1.258 . S
O57 Zn41 2.024 1_554 S
O57 C44 1.058 1_554 S
C58 O47 1.260 . S
C58 O48 1.258 . S
C59 O55 1.260 . S
C59 O56 1.258 . S
Zn60 O66 1.969 . S
Zn60 O67 1.965 1_554 S
Zn60 O71 2.024 1_554 S
Zn60 O76 1.969 . S
Zn61 O68 1.969 . S
Zn61 O74 1.969 . S
Zn61 O75 1.965 1_556 S
Zn61 O77 2.024 1_556 S
C62 O63 1.229 . S
C62 O71 1.058 1_554 S
O63 C62 1.229 . S
C64 O65 1.229 . S
C64 O77 1.058 1_556 S
O65 C64 1.229 . S
O66 Zn60 1.969 . S
O66 C69 1.267 1_554 S
O67 Zn60 1.965 1_556 S
O67 C78 1.260 . S
O68 Zn61 1.969 . S
O68 C78 1.258 . S
C69 O66 1.267 1_556 S
C69 O70 1.228 . S
O70 C69 1.228 . S
O71 Zn60 2.024 1_556 S
O71 C62 1.058 1_556 S
C72 O73 1.228 . S
C72 O74 1.267 1_554 S
O73 C72 1.228 . S
O74 Zn61 1.969 . S
O74 C72 1.267 1_556 S
O75 Zn61 1.965 1_554 S
O75 C79 1.260 . S
O76 Zn60 1.969 . S
O76 C79 1.258 . S
O77 Zn61 2.024 1_554 S
O77 C64 1.058 1_554 S
C78 O67 1.260 . S
C78 O68 1.258 . S
C79 O75 1.260 . S
C79 O76 1.258 . S
Zn80 O86 1.969 . S
Zn80 O87 1.965 1_554 S
Zn80 O91 2.024 1_554 S
Zn80 O96 1.969 . S
Zn81 O88 1.969 . S
Zn81 O94 1.969 . S
Zn81 O95 1.965 1_556 S
Zn81 O97 2.024 1_556 S
C82 O83 1.229 . S
C82 O91 1.058 1_554 S
O83 C82 1.229 . S
C84 O85 1.229 . S
C84 O97 1.058 1_556 S
O85 C84 1.229 . S
O86 Zn80 1.969 . S
O86 C89 1.267 1_554 S
O87 Zn80 1.965 1_556 S
O87 C98 1.260 . S
O88 Zn81 1.969 . S
O88 C98 1.258 . S
C89 O86 1.267 1_556 S
C89 O90 1.228 . S
O90 C89 1.228 . S
O91 Zn80 2.024 1_556 S
O91 C82 1.058 1_556 S
C92 O93 1.228 . S
C92 O94 1.267 1_554 S
O93 C92 1.228 . S
O94 Zn81 1.969 . S
O94 C92 1.267 1_556 S
O95 Zn81 1.965 1_554 S
O95 C99 1.260 . S
O96 Zn80 1.969 . S
O96 C99 1.258 . S
O97 Zn81 2.024 1_554 S
O97 C84 1.058 1_554 S
C98 O87 1.260 . S
C98 O88 1.258 . S
C99 O95 1.260 . S
C99 O96 1.258 . S
Zn100 O106 1.969 . S
Zn100 O107 1.965 1_554 S
Zn100 O111 2.024 1_554 S
Zn100 O116 1.969 . S
Zn101 O108 1.969 . S
Zn101 O114 1.969 . S
Zn101 O115 1.965 1_556 S
Zn101 O117 2.024 1_556 S
C102 O103 1.229 . S
C102 O111 1.058 1_554 S
O103 C102 1.229 . S
C104 O105 1.229 . S
C104 O117 1.058 1_556 S
O105 C104 1.229 . S
O106 Zn100 1.969 . S
O106 C109 1.267 1_554 S
O107 Zn100 1.965 1_556 S
O107 C118 1.260 . S
O108 Zn101 1.969 . S
O108 C118 1.258 . S
C109 O106 1.267 1_556 S
C109 O110 1.228 . S
O110 C109 1.228 . S
O111 Zn100 2.024 1_556 S
O111 C102 1.058 1_556 S
C112 O113 1.228 . S
C112 O114 1.267 1_554 S
O113 C112 1.228 . S
O114 Zn101 1.969 . S
O114 C112 1.267 1_556 S
O115 Zn101 1.965 1_554 S
O115 C119 1.260 . S
O116 Zn100 1.969 . S
O116 C119 1.258 . S
O117 Zn101 2.024 1_554 S
O117 C104 1.058 1_554 S
C118 O107 1.260 . S
C118 O108 1.258 . S
C119 O115 1.260 . S
C119 O116 1.258 . S
C104 C12 2.053 1_556 S
C4 C32 2.053 1_456 S
C24 C52 2.053 1_546 S
C72 C44 2.053 1_554 S
C92 C64 2.053 1_454 S
C84 C112 2.054 1_566 S
C82 C9 1.617 1_554 S
C102 C29 1.618 1_554 S
C49 C2 1.617 1_556 S
C69 C22 1.617 1_556 S
C89 C42 1.617 1_556 S
C62 C109 1.617 1_554 S
C18 C19 1.553 . S
C38 C39 1.553 . S
C58 C59 1.553 . S
C78 C79 1.553 . S
C99 C98 1.553 . S
C118 C119 1.553 . S
