# Generated by pormake.
# Topology smk, (6)-cn, num edge types: 1
# Building blocks:
#     Node 0, Type 0, BuildingBlock: OJICUG_clean_sbu_0, # of connection points: 6
#     Node 1, Type 0, BuildingBlock: OJICUG_clean_sbu_0, # of connection points: 6
#     Node 2, Type 0, BuildingBlock: OJICUG_clean_sbu_0, # of connection points: 6
#     Node 3, Type 0, BuildingBlock: OJICUG_clean_sbu_0, # of connection points: 6
#     Node 4, Type 0, BuildingBlock: OJICUG_clean_sbu_0, # of connection points: 6
#     Node 5, Type 0, BuildingBlock: OJICUG_clean_sbu_0, # of connection points: 6
#     Edge 6, Type (0, 0), None
#     Edge 7, Type (0, 0), None
#     Edge 8, Type (0, 0), None
#     Edge 9, Type (0, 0), None
#     Edge 10, Type (0, 0), None
#     Edge 11, Type (0, 0), None
#     Edge 12, Type (0, 0), None
#     Edge 13, Type (0, 0), None
#     Edge 14, Type (0, 0), None
#     Edge 15, Type (0, 0), None
#     Edge 16, Type (0, 0), None
#     Edge 17, Type (0, 0), None
#     Edge 18, Type (0, 0), None
#     Edge 19, Type (0, 0), None
#     Edge 20, Type (0, 0), None
#     Edge 21, Type (0, 0), None
#     Edge 22, Type (0, 0), None
#     Edge 23, Type (0, 0), None
# Relax obj value: 0.194
# Max RMSD: 0.221
# Mean RMSD: 0.221
data_MOF--net-smk--node1-OJICUG_clean_sbu_0--edge1-none
_symmetry_space_group_name_H-M    P1
_symmetry_Int_Tables_number       1
_symmetry_cell_setting            triclinic
loop_
_symmetry_equiv_pos_as_xyz
'x, y, z'
_cell_length_a     21.985317
_cell_length_b     21.91016
_cell_length_c     7.5190934
_cell_angle_alpha  89.999969
_cell_angle_beta   89.998066
_cell_angle_gamma 119.87228
loop_
_atom_site_label
_atom_site_type_symbol
_atom_site_fract_x
_atom_site_fract_y
_atom_site_fract_z
_atom_type_partial_charge
Sc0 Sc 0.45943 0.18432 0.41373 0.0
Sc1 Sc 0.30008 0.1475 0.59891 0.0
Sc2 Sc 0.45943 0.26958 0.78455 0.0
O3 O 0.40624 0.20044 0.59899 0.0
C4 C 0.55865 0.20272 0.69775 0.0
C5 C 0.33013 0.03015 0.49723 0.0
C6 C 0.34542 0.16498 1.00999 0.0
C7 C 0.34548 0.1751 0.18782 0.0
C8 C 0.5587 0.35038 0.50067 0.0
C9 C 0.3304 0.29488 0.70095 0.0
O10 O 0.51603 0.15685 0.59061 0.0
O11 O 0.30066 0.05071 0.60853 0.0
O12 O 0.40498 0.1819 0.94763 0.0
O13 O 0.40512 0.21756 0.25002 0.0
O14 O 0.51612 0.35368 0.60794 0.0
O15 O 0.30098 0.24503 0.5892 0.0
O16 O 0.54696 0.29318 0.42533 0.0
O17 O 0.29402 0.14027 0.29528 0.0
O18 O 0.37917 0.30148 0.80605 0.0
O19 O 0.37912 0.07221 0.39247 0.0
O20 O 0.54695 0.24822 0.773 0.0
O21 O 0.294 0.14865 0.90259 0.0
Sc22 Sc 0.28253 0.47119 0.64584 0.0
Sc23 Sc 0.14508 0.31037 0.7972 0.0
Sc24 Sc 0.16562 0.47337 0.92936 0.0
O25 O 0.19642 0.41642 0.79171 0.0
C26 C 0.33623 0.55903 0.95742 0.0
C27 C 0.29527 0.33548 0.73258 0.0
C28 C 0.15788 0.36066 0.20723 0.0
C29 C 0.1742 0.36246 0.38219 0.0
C30 C 0.21576 0.57374 0.63359 0.0
C31 C 0.01762 0.33765 0.84171 0.0
O32 O 0.34398 0.51391 0.87259 0.0
O33 O 0.23911 0.30514 0.82125 0.0
O34 O 0.17019 0.42048 0.15169 0.0
O35 O 0.21712 0.42484 0.43246 0.0
O36 O 0.15971 0.52684 0.70328 0.0
O37 O 0.04452 0.3021 0.78355 0.0
O38 O 0.26935 0.56569 0.61866 0.0
O39 O 0.14881 0.30947 0.49128 0.0
O40 O 0.05362 0.39951 0.90456 0.0
O41 O 0.31231 0.39022 0.64049 0.0
O42 O 0.27662 0.55613 0.97238 0.0
O43 O 0.13994 0.30828 0.10029 0.0
Sc44 Sc 0.79297 0.2869 0.76943 0.0
Sc45 Sc 0.81376 0.1446 0.90179 0.0
Sc46 Sc 0.67605 0.16774 0.05281 0.0
O47 O 0.76224 0.19917 0.90715 0.0
C48 C 0.74291 0.33708 0.06554 0.0
C49 C 0.94106 0.29935 0.85702 0.0
C50 C 0.78442 0.16735 0.31677 0.0
C51 C 0.80075 0.18194 0.49169 0.0
C52 C 0.6224 0.20207 0.74127 0.0
C53 C 0.66358 0.01936 0.96615 0.0
O54 O 0.79893 0.34624 0.99559 0.0
O55 O 0.91424 0.23695 0.91541 0.0
O56 O 0.7413 0.18657 0.2665 0.0
O57 O 0.78832 0.2294 0.54711 0.0
O58 O 0.61465 0.14917 0.82598 0.0
O59 O 0.71988 0.04523 0.87806 0.0
O60 O 0.68199 0.25877 0.72657 0.0
O61 O 0.81886 0.14764 0.59868 0.0
O62 O 0.64624 0.057 0.05753 0.0
O63 O 0.90499 0.32509 0.79389 0.0
O64 O 0.68931 0.27544 0.08042 0.0
O65 O 0.81007 0.14 0.20767 0.0
Sc66 Sc 0.49924 0.78944 0.91405 0.0
Sc67 Sc 0.6586 0.8264 0.0993 0.0
Sc68 Sc 0.49927 0.70418 0.28483 0.0
O69 O 0.55244 0.77336 0.09934 0.0
C70 C 0.40004 0.77104 0.19815 0.0
C71 C 0.62841 0.94363 0.9976 0.0
C72 C 0.61325 0.80881 0.51037 0.0
C73 C 0.61321 0.79871 0.6882 0.0
C74 C 0.39997 0.62338 1.00103 0.0
C75 C 0.62839 0.67902 0.20113 0.0
O76 O 0.44264 0.8169 0.09095 0.0
O77 O 0.6579 0.92313 0.10898 0.0
O78 O 0.55367 0.79182 0.44803 0.0
O79 O 0.55359 0.75621 0.75043 0.0
O80 O 0.44257 0.62008 0.1082 0.0
O81 O 0.65783 0.72894 0.08957 0.0
O82 O 0.41172 0.68059 0.92569 0.0
O83 O 0.66465 0.83362 0.79565 0.0
O84 O 0.57955 0.6723 0.30615 0.0
O85 O 0.57953 0.90155 0.89263 0.0
O86 O 0.41174 0.72553 0.27336 0.0
O87 O 0.66469 0.82524 0.40296 0.0
Sc88 Sc 0.67611 0.50262 0.1456 0.0
Sc89 Sc 0.81373 0.6634 0.29672 0.0
Sc90 Sc 0.79301 0.50035 0.42902 0.0
O91 O 0.76228 0.55735 0.29131 0.0
C92 C 0.62245 0.41473 0.45716 0.0
C93 C 0.66353 0.63842 0.23254 0.0
C94 C 0.80078 0.61308 0.70679 0.0
C95 C 0.78446 0.61132 0.88173 0.0
C96 C 0.74292 0.40009 0.13304 0.0
C97 C 0.94107 0.63598 0.34151 0.0
O98 O 0.61471 0.45987 0.37243 0.0
O99 O 0.71981 0.66881 0.32071 0.0
O100 O 0.78836 0.5532 0.65133 0.0
O101 O 0.74141 0.54898 0.93202 0.0
O102 O 0.79896 0.44694 0.20288 0.0
O103 O 0.91423 0.67154 0.28299 0.0
O104 O 0.68933 0.40815 0.11814 0.0
O105 O 0.81002 0.66431 0.99082 0.0
O106 O 0.90502 0.57417 0.40458 0.0
O107 O 0.64632 0.58358 0.14071 0.0
O108 O 0.68203 0.41757 0.47189 0.0
O109 O 0.81887 0.66547 0.59982 0.0
Sc110 Sc 0.16575 0.68687 0.26975 0.0
Sc111 Sc 0.14476 0.82903 0.40228 0.0
Sc112 Sc 0.28266 0.80612 0.55302 0.0
O113 O 0.1964 0.77458 0.40754 0.0
C114 C 0.21575 0.63674 0.56608 0.0
C115 C 0.0176 0.67427 0.3572 0.0
C116 C 0.17427 0.80647 0.81723 0.0
C117 C 0.15793 0.79182 0.99212 0.0
C118 C 0.33629 0.77167 0.24164 0.0
C119 C 0.29498 0.95442 0.466 0.0
O120 O 0.15974 0.62754 0.49595 0.0
O121 O 0.04435 0.73661 0.41598 0.0
O122 O 0.21754 0.78745 0.76694 0.0
O123 O 0.17049 0.74443 0.04746 0.0
O124 O 0.344 0.82459 0.32609 0.0
O125 O 0.23852 0.92848 0.37857 0.0
O126 O 0.27672 0.71495 0.22708 0.0
O127 O 0.13967 0.82597 0.09915 0.0
O128 O 0.31249 0.91686 0.55721 0.0
O129 O 0.05372 0.64864 0.29382 0.0
O130 O 0.26934 0.69839 0.58097 0.0
O131 O 0.14844 0.83364 0.70812 0.0
loop_
_geom_bond_atom_site_label_1
_geom_bond_atom_site_label_2
_geom_bond_distance
_geom_bond_site_symmetry_2
_ccdc_geom_bond_type
Sc0 O3 2.025 . S
Sc0 O10 2.105 . S
Sc0 O13 2.105 . S
Sc0 O16 2.105 . S
Sc0 O19 2.105 . S
Sc1 O3 2.025 . S
Sc1 O11 2.105 . S
Sc1 O15 2.105 . S
Sc1 O17 2.105 . S
Sc1 O21 2.105 . S
Sc2 O3 2.025 . S
Sc2 O12 2.105 . S
Sc2 O14 2.105 . S
Sc2 O18 2.105 . S
Sc2 O20 2.105 . S
O3 Sc0 2.025 . S
O3 Sc1 2.025 . S
O3 Sc2 2.025 . S
C4 O10 1.268 . S
C4 O20 1.268 . S
C5 O11 1.268 . S
C5 O19 1.268 . S
C6 O12 1.268 . S
C6 O21 1.268 . S
C7 O13 1.268 . S
C7 O17 1.268 . S
C8 O14 1.268 . S
C8 O16 1.268 . S
C9 O15 1.268 . S
C9 O18 1.268 . S
O10 Sc0 2.105 . S
O10 C4 1.268 . S
O11 Sc1 2.105 . S
O11 C5 1.268 . S
O12 Sc2 2.105 . S
O12 C6 1.268 . S
O13 Sc0 2.105 . S
O13 C7 1.268 . S
O14 Sc2 2.105 . S
O14 C8 1.268 . S
O15 Sc1 2.105 . S
O15 C9 1.268 . S
O16 Sc0 2.105 . S
O16 C8 1.268 . S
O17 Sc1 2.105 . S
O17 C7 1.268 . S
O18 Sc2 2.105 . S
O18 C9 1.268 . S
O19 Sc0 2.105 . S
O19 C5 1.268 . S
O20 Sc2 2.105 . S
O20 C4 1.268 . S
O21 Sc1 2.105 . S
O21 C6 1.268 . S
Sc22 O25 2.025 . S
Sc22 O32 2.105 . S
Sc22 O35 2.105 . S
Sc22 O38 2.105 . S
Sc22 O41 2.105 . S
Sc23 O25 2.025 . S
Sc23 O33 2.105 . S
Sc23 O37 2.105 . S
Sc23 O39 2.105 . S
Sc23 O43 2.105 1_556 S
Sc24 O25 2.025 . S
Sc24 O34 2.105 1_556 S
Sc24 O36 2.105 . S
Sc24 O40 2.105 . S
Sc24 O42 2.105 . S
O25 Sc22 2.025 . S
O25 Sc23 2.025 . S
O25 Sc24 2.025 . S
C26 O32 1.268 . S
C26 O42 1.268 . S
C27 O33 1.268 . S
C27 O41 1.268 . S
C28 O34 1.268 . S
C28 O43 1.268 . S
C29 O35 1.268 . S
C29 O39 1.268 . S
C30 O36 1.268 . S
C30 O38 1.268 . S
C31 O37 1.268 . S
C31 O40 1.268 . S
O32 Sc22 2.105 . S
O32 C26 1.268 . S
O33 Sc23 2.105 . S
O33 C27 1.268 . S
O34 Sc24 2.105 1_554 S
O34 C28 1.268 . S
O35 Sc22 2.105 . S
O35 C29 1.268 . S
O36 Sc24 2.105 . S
O36 C30 1.268 . S
O37 Sc23 2.105 . S
O37 C31 1.268 . S
O38 Sc22 2.105 . S
O38 C30 1.268 . S
O39 Sc23 2.105 . S
O39 C29 1.268 . S
O40 Sc24 2.105 . S
O40 C31 1.268 . S
O41 Sc22 2.105 . S
O41 C27 1.268 . S
O42 Sc24 2.105 . S
O42 C26 1.268 . S
O43 Sc23 2.105 1_554 S
O43 C28 1.268 . S
Sc44 O47 2.025 . S
Sc44 O54 2.105 . S
Sc44 O57 2.105 . S
Sc44 O60 2.105 . S
Sc44 O63 2.105 . S
Sc45 O47 2.025 . S
Sc45 O55 2.105 . S
Sc45 O59 2.105 . S
Sc45 O61 2.105 . S
Sc45 O65 2.105 1_556 S
Sc46 O47 2.025 1_554 S
Sc46 O56 2.105 . S
Sc46 O58 2.105 1_554 S
Sc46 O62 2.105 . S
Sc46 O64 2.105 . S
O47 Sc44 2.025 . S
O47 Sc45 2.025 . S
O47 Sc46 2.025 1_556 S
C48 O54 1.268 1_554 S
C48 O64 1.268 . S
C49 O55 1.268 . S
C49 O63 1.268 . S
C50 O56 1.268 . S
C50 O65 1.268 . S
C51 O57 1.268 . S
C51 O61 1.268 . S
C52 O58 1.268 . S
C52 O60 1.268 . S
C53 O59 1.268 . S
C53 O62 1.268 1_556 S
O54 Sc44 2.105 . S
O54 C48 1.268 1_556 S
O55 Sc45 2.105 . S
O55 C49 1.268 . S
O56 Sc46 2.105 . S
O56 C50 1.268 . S
O57 Sc44 2.105 . S
O57 C51 1.268 . S
O58 Sc46 2.105 1_556 S
O58 C52 1.268 . S
O59 Sc45 2.105 . S
O59 C53 1.268 . S
O60 Sc44 2.105 . S
O60 C52 1.268 . S
O61 Sc45 2.105 . S
O61 C51 1.268 . S
O62 Sc46 2.105 . S
O62 C53 1.268 1_554 S
O63 Sc44 2.105 . S
O63 C49 1.268 . S
O64 Sc46 2.105 . S
O64 C48 1.268 . S
O65 Sc45 2.105 1_554 S
O65 C50 1.268 . S
Sc66 O69 2.025 1_556 S
Sc66 O76 2.105 1_556 S
Sc66 O79 2.105 . S
Sc66 O82 2.105 . S
Sc66 O85 2.105 . S
Sc67 O69 2.025 . S
Sc67 O77 2.105 . S
Sc67 O81 2.105 . S
Sc67 O83 2.105 1_554 S
Sc67 O87 2.105 . S
Sc68 O69 2.025 . S
Sc68 O78 2.105 . S
Sc68 O80 2.105 . S
Sc68 O84 2.105 . S
Sc68 O86 2.105 . S
O69 Sc66 2.025 1_554 S
O69 Sc67 2.025 . S
O69 Sc68 2.025 . S
C70 O76 1.268 . S
C70 O86 1.268 . S
C71 O77 1.268 . S
C71 O85 1.268 1_554 S
C72 O78 1.268 . S
C72 O87 1.268 . S
C73 O79 1.268 . S
C73 O83 1.268 . S
C74 O80 1.268 1_556 S
C74 O82 1.268 . S
C75 O81 1.268 . S
C75 O84 1.268 . S
O76 Sc66 2.105 1_554 S
O76 C70 1.268 . S
O77 Sc67 2.105 . S
O77 C71 1.268 . S
O78 Sc68 2.105 . S
O78 C72 1.268 . S
O79 Sc66 2.105 . S
O79 C73 1.268 . S
O80 Sc68 2.105 . S
O80 C74 1.268 1_554 S
O81 Sc67 2.105 . S
O81 C75 1.268 . S
O82 Sc66 2.105 . S
O82 C74 1.268 . S
O83 Sc67 2.105 1_556 S
O83 C73 1.268 . S
O84 Sc68 2.105 . S
O84 C75 1.268 . S
O85 Sc66 2.105 . S
O85 C71 1.268 1_556 S
O86 Sc68 2.105 . S
O86 C70 1.268 . S
O87 Sc67 2.105 . S
O87 C72 1.268 . S
Sc88 O91 2.025 . S
Sc88 O98 2.105 . S
Sc88 O101 2.105 1_554 S
Sc88 O104 2.105 . S
Sc88 O107 2.105 . S
Sc89 O91 2.025 . S
Sc89 O99 2.105 . S
Sc89 O103 2.105 . S
Sc89 O105 2.105 1_554 S
Sc89 O109 2.105 . S
Sc90 O91 2.025 . S
Sc90 O100 2.105 . S
Sc90 O102 2.105 . S
Sc90 O106 2.105 . S
Sc90 O108 2.105 . S
O91 Sc88 2.025 . S
O91 Sc89 2.025 . S
O91 Sc90 2.025 . S
C92 O98 1.268 . S
C92 O108 1.268 . S
C93 O99 1.268 . S
C93 O107 1.268 . S
C94 O100 1.268 . S
C94 O109 1.268 . S
C95 O101 1.268 . S
C95 O105 1.268 . S
C96 O102 1.268 . S
C96 O104 1.268 . S
C97 O103 1.268 . S
C97 O106 1.268 . S
O98 Sc88 2.105 . S
O98 C92 1.268 . S
O99 Sc89 2.105 . S
O99 C93 1.268 . S
O100 Sc90 2.105 . S
O100 C94 1.268 . S
O101 Sc88 2.105 1_556 S
O101 C95 1.268 . S
O102 Sc90 2.105 . S
O102 C96 1.268 . S
O103 Sc89 2.105 . S
O103 C97 1.268 . S
O104 Sc88 2.105 . S
O104 C96 1.268 . S
O105 Sc89 2.105 1_556 S
O105 C95 1.268 . S
O106 Sc90 2.105 . S
O106 C97 1.268 . S
O107 Sc88 2.105 . S
O107 C93 1.268 . S
O108 Sc90 2.105 . S
O108 C92 1.268 . S
O109 Sc89 2.105 . S
O109 C94 1.268 . S
Sc110 O113 2.025 . S
Sc110 O120 2.105 . S
Sc110 O123 2.105 . S
Sc110 O126 2.105 . S
Sc110 O129 2.105 . S
Sc111 O113 2.025 . S
Sc111 O121 2.105 . S
Sc111 O125 2.105 . S
Sc111 O127 2.105 . S
Sc111 O131 2.105 . S
Sc112 O113 2.025 . S
Sc112 O122 2.105 . S
Sc112 O124 2.105 . S
Sc112 O128 2.105 . S
Sc112 O130 2.105 . S
O113 Sc110 2.025 . S
O113 Sc111 2.025 . S
O113 Sc112 2.025 . S
C114 O120 1.268 . S
C114 O130 1.268 . S
C115 O121 1.268 . S
C115 O129 1.268 . S
C116 O122 1.268 . S
C116 O131 1.268 . S
C117 O123 1.268 . S
C117 O127 1.268 . S
C118 O124 1.268 . S
C118 O126 1.268 . S
C119 O125 1.268 . S
C119 O128 1.268 . S
O120 Sc110 2.105 . S
O120 C114 1.268 . S
O121 Sc111 2.105 . S
O121 C115 1.268 . S
O122 Sc112 2.105 . S
O122 C116 1.268 . S
O123 Sc110 2.105 . S
O123 C117 1.268 . S
O124 Sc112 2.105 . S
O124 C118 1.268 . S
O125 Sc111 2.105 . S
O125 C119 1.268 . S
O126 Sc110 2.105 . S
O126 C118 1.268 . S
O127 Sc111 2.105 . S
O127 C117 1.268 . S
O128 Sc112 2.105 . S
O128 C119 1.268 . S
O129 Sc110 2.105 . S
O129 C115 1.268 . S
O130 Sc112 2.105 . S
O130 C114 1.268 . S
O131 Sc111 2.105 . S
O131 C116 1.268 . S
C7 C6 1.686 1_554 S
C29 C28 1.686 . S
C50 C51 1.686 . S
C72 C73 1.686 . S
C94 C95 1.686 . S
C117 C116 1.686 1_554 S
C5 C119 1.590 1_545 S
C9 C27 1.590 . S
C49 C31 1.590 1_655 S
C71 C53 1.590 1_564 S
C93 C75 1.590 . S
C97 C115 1.590 1_655 S
C8 C92 1.225 . S
C30 C114 1.225 . S
C52 C4 1.225 . S
C74 C26 1.225 . S
C96 C48 1.225 . S
C70 C118 1.225 . S
