# Generated by pormake.
# Topology hcp, (12)-cn, num edge types: 1
# Building blocks:
#     Node 0, Type 0, BuildingBlock: QEWDON_clean_sbu_0, # of connection points: 12
#     Node 1, Type 0, BuildingBlock: QEWDON_clean_sbu_0, # of connection points: 12
#     Edge 2, Type (0, 0), BuildingBlock: OJICUG_clean_linker_0, # of connection points: 2
#     Edge 3, Type (0, 0), BuildingBlock: OJICUG_clean_linker_0, # of connection points: 2
#     Edge 4, Type (0, 0), BuildingBlock: OJICUG_clean_linker_0, # of connection points: 2
#     Edge 5, Type (0, 0), BuildingBlock: OJICUG_clean_linker_0, # of connection points: 2
#     Edge 6, Type (0, 0), BuildingBlock: OJICUG_clean_linker_0, # of connection points: 2
#     Edge 7, Type (0, 0), BuildingBlock: OJICUG_clean_linker_0, # of connection points: 2
#     Edge 8, Type (0, 0), BuildingBlock: OJICUG_clean_linker_0, # of connection points: 2
#     Edge 9, Type (0, 0), BuildingBlock: OJICUG_clean_linker_0, # of connection points: 2
#     Edge 10, Type (0, 0), BuildingBlock: OJICUG_clean_linker_0, # of connection points: 2
#     Edge 11, Type (0, 0), BuildingBlock: OJICUG_clean_linker_0, # of connection points: 2
#     Edge 12, Type (0, 0), BuildingBlock: OJICUG_clean_linker_0, # of connection points: 2
#     Edge 13, Type (0, 0), BuildingBlock: OJICUG_clean_linker_0, # of connection points: 2
# Relax obj value: 0.198
# Max RMSD: 0.274
# Mean RMSD: 0.274
data_MOF--net-hcp--node1-QEWDON_clean_sbu_0--edge1-OJICUG_clean_linker_0
_symmetry_space_group_name_H-M    P1
_symmetry_Int_Tables_number       1
_symmetry_cell_setting            triclinic
loop_
_symmetry_equiv_pos_as_xyz
'x, y, z'
_cell_length_a     16.360705
_cell_length_b     14.484385
_cell_length_c     26.105623
_cell_angle_alpha  86.613816
_cell_angle_beta   90.549496
_cell_angle_gamma 126.09322
loop_
_atom_site_label
_atom_site_type_symbol
_atom_site_fract_x
_atom_site_fract_y
_atom_site_fract_z
_atom_type_partial_charge
Zn0 Zn 0.76904 0.26569 0.27407 0.0
Zn1 Zn 0.86157 0.46628 0.18765 0.0
O2 O 0.75422 0.38474 0.24346 0.0
H3 H 0.72325 0.41332 0.26156 0.0
C4 C 0.52927 0.97791 0.24698 0.0
O5 O 0.45748 0.95871 0.27812 0.0
Zn6 Zn 0.54817 0.56849 0.20129 0.0
Zn7 Zn 0.42464 0.36587 0.28421 0.0
O8 O 0.48639 0.40159 0.21147 0.0
H9 H 0.45218 0.34698 0.18549 0.0
Zn10 Zn 0.49497 0.12438 0.17682 0.0
O11 O 0.59212 0.29553 0.1682 0.0
Zn12 Zn 0.58012 0.34628 0.09773 0.0
H13 H 0.60539 0.34201 0.19645 0.0
Zn14 Zn 0.60205 0.43334 0.39254 0.0
O15 O 0.64117 0.48177 0.31781 0.0
H16 H 0.60326 0.43794 0.28915 0.0
Zn17 Zn 0.78251 0.62544 0.31709 0.0
C18 C 0.40484 0.25938 0.44511 0.0
O19 O 0.32161 0.15634 0.45567 0.0
O20 O 0.91934 0.34131 0.274 0.0
O21 O 0.96183 0.42838 0.19562 0.0
O22 O 0.38627 0.47294 0.29986 0.0
O23 O 0.44216 0.58245 0.22725 0.0
O24 O 0.45004 0.06764 0.10599 0.0
O25 O 0.47072 0.21337 0.05885 0.0
C26 C 0.94214 0.68055 0.23237 0.0
O27 O 0.72703 0.47592 0.43275 0.0
O28 O 0.85027 0.62174 0.382 0.0
O29 O 0.29911 0.19665 0.29635 0.0
C30 C -0.01516 0.40113 0.23791 0.0
O31 O 0.68918 0.17494 0.34104 0.0
C32 C 0.56786 0.55469 0.09335 0.0
O33 O 0.55494 0.04354 0.20669 0.0
C34 C 0.38526 0.54159 0.26754 0.0
O35 O 0.46614 0.27548 0.41016 0.0
C36 C 0.78641 0.43883 0.0727 0.0
O37 O 0.95293 0.6336 0.19624 0.0
O38 O 0.8572 0.62411 0.25664 0.0
C39 C 0.44402 0.11071 0.0636 0.0
O40 O 0.56753 0.61836 0.1247 0.0
O41 O 0.57012 0.4736 0.11216 0.0
C42 C 0.70379 0.73225 0.27291 0.0
O43 O 0.7031 0.40682 0.05324 0.0
O44 O 0.79031 0.43779 0.12129 0.0
C45 C 0.82046 0.55507 0.42277 0.0
O46 O 0.76552 0.75187 0.30806 0.0
O47 O 0.67208 0.64804 0.24551 0.0
C48 C 0.30402 0.1219 0.27686 0.0
O49 O 0.39022 0.1544 0.25538 0.0
C50 C 0.60505 0.15666 0.35158 0.0
O51 O 0.5683 0.19508 0.31893 0.0
Zn52 Zn 0.48111 0.55293 0.7698 0.0
Zn53 Zn 0.51362 0.71469 0.66943 0.0
O54 O 0.4224 0.62961 0.73257 0.0
H55 H 0.37997 0.64502 0.74972 0.0
C56 C 0.2627 0.3491 0.66441 0.0
O57 O 0.26062 0.40085 0.70352 0.0
Zn58 Zn 0.23383 0.85908 0.62356 0.0
Zn59 Zn 0.0408 0.60167 0.71853 0.0
O60 O 0.14559 0.68677 0.65199 0.0
H61 H 0.15279 0.63306 0.63671 0.0
Zn62 Zn 0.20916 0.49063 0.6196 0.0
O63 O 0.30548 0.64333 0.65533 0.0
Zn64 Zn 0.33518 0.71129 0.58361 0.0
H65 H 0.28919 0.6679 0.68469 0.0
Zn66 Zn 0.24707 0.67493 0.84134 0.0
O67 O 0.25879 0.76759 0.77566 0.0
H68 H 0.20338 0.76141 0.75846 0.0
Zn69 Zn 0.40433 0.90461 0.77085 0.0
C70 C 0.11968 0.57599 0.93421 0.0
O71 O 0.20583 0.60296 0.95237 0.0
O72 O 0.62127 0.61077 0.74177 0.0
O73 O 0.64588 0.74162 0.68242 0.0
O74 O 0.09131 0.74106 0.67024 0.0
O75 O 0.1292 0.8903 0.62333 0.0
O76 O 0.10621 0.48209 0.5689 0.0
O77 O 0.21023 0.66671 0.54628 0.0
C78 C 0.53751 0.92547 0.68712 0.0
O79 O 0.35804 0.78081 0.88972 0.0
O80 O 0.45446 0.94401 0.8421 0.0
O81 O 0.8982 0.44571 0.71521 0.0
C82 C 0.67797 0.6931 0.70874 0.0
O83 O 0.47286 0.52684 0.84935 0.0
C84 C 0.39494 0.92468 0.54496 0.0
O85 O 0.24072 0.37008 0.62058 0.0
C86 C 0.06769 0.80731 0.65486 0.0
O87 O 0.11352 0.59077 0.88606 0.0
C88 C 0.43462 0.6001 0.56247 0.0
O89 O 0.55819 0.87735 0.65594 0.0
O90 O 0.47427 0.86449 0.72389 0.0
C91 C 0.12501 0.57049 0.54323 0.0
O92 O 0.30984 0.90591 0.55471 0.0
O93 O 0.42826 0.88189 0.57475 0.0
C94 C 0.36584 1.03171 0.70259 0.0
O95 O 0.38847 0.64138 0.54571 0.0
O96 O 0.47315 0.6204 0.60671 0.0
C97 C 0.42731 0.88784 0.88553 0.0
O98 O 0.41233 0.04135 0.74315 0.0
O99 O 0.32991 0.94171 0.67893 0.0
C100 C 0.84328 0.40932 0.67608 0.0
O101 O 0.87563 0.47346 0.63285 0.0
C102 C 0.51733 0.61249 0.87688 0.0
O103 O 0.55883 0.71533 0.8548 0.0
C104 C 0.41387 0.88968 -0.01979 0.0
C105 C 0.44845 0.95056 0.93205 0.0
H106 H 0.37948 0.89006 0.05876 0.0
C107 C 0.47932 0.06429 0.92741 0.0
H108 H 0.38883 0.80173 -0.01494 0.0
C109 C 0.47186 0.11427 0.96948 0.0
C110 C 0.43449 0.05208 0.01725 0.0
H111 H 0.50487 0.11326 0.89071 0.0
H112 H 0.49708 0.20231 0.9647 0.0
C113 C 0.40642 0.93956 0.0222 0.0
C114 C 0.41755 0.51642 0.47826 0.0
C115 C 0.43902 0.52166 0.53078 0.0
H116 H 0.39214 0.42945 0.40956 0.0
C117 C 0.45802 0.44574 0.5535 0.0
H118 H 0.40329 0.57421 0.45954 0.0
C119 C 0.44972 0.36196 0.52505 0.0
C120 C 0.4251 0.35498 0.47323 0.0
H121 H 0.47484 0.44762 0.59382 0.0
H122 H 0.46026 0.30102 0.54378 0.0
C123 C 0.41152 0.4342 0.4496 0.0
C124 C 0.86158 0.47469 -0.01529 0.0
C125 C 0.87342 0.47548 0.03826 0.0
H126 H 0.92904 0.50478 0.91016 0.0
C127 C 0.96678 0.50821 0.05741 0.0
H128 H 0.79059 0.44976 0.96847 0.0
C129 C 0.04641 0.53907 0.02361 0.0
C130 C 0.03423 0.53833 0.97005 0.0
H131 H -0.02166 0.50998 0.09831 0.0
H132 H 0.1178 0.56462 0.03951 0.0
C133 C 0.94092 0.50588 0.95108 0.0
C134 C 0.54847 1.02005 0.4867 0.0
C135 C 0.44849 0.98306 0.4953 0.0
H136 H 0.67665 0.10489 0.43471 0.0
C137 C 0.39895 0.99916 0.45539 0.0
H138 H 0.58808 1.00666 0.51618 0.0
C139 C 0.44923 0.0539 0.40833 0.0
C140 C 0.55027 0.09438 0.40042 0.0
H141 H 0.32088 0.96843 0.46029 0.0
H142 H 0.40896 0.06477 0.37823 0.0
C143 C 0.59901 0.07563 0.43983 0.0
C144 C 0.57116 0.67122 0.01737 0.0
C145 C 0.56144 0.57274 0.03741 0.0
H146 H 0.56466 0.76091 0.95097 0.0
C147 C 0.53744 0.48787 0.0041 0.0
H148 H 0.58913 0.73807 0.04204 0.0
C149 C 0.52131 0.49983 0.95219 0.0
C150 C 0.53058 0.598 0.93224 0.0
H151 H 0.52897 0.41098 0.01825 0.0
H152 H 0.5025 0.43252 0.9276 0.0
C153 C 0.5567 0.68413 0.96525 0.0
C154 C -0.00171 0.65793 0.45158 0.0
C155 C 0.89684 0.5618 0.45619 0.0
H156 H 0.14969 0.7357 0.47531 0.0
C157 C 0.87061 0.46799 0.48984 0.0
H158 H 0.02094 0.73128 0.42584 0.0
C159 C 0.94484 0.46952 0.51753 0.0
C160 C 0.04631 0.56558 0.51272 0.0
H161 H 0.79314 0.39204 0.49383 0.0
H162 H 0.92261 0.39583 0.54288 0.0
C163 C 0.0721 0.66008 0.47977 0.0
C164 C 0.58622 0.8823 0.30435 0.0
C165 C 0.57416 0.91547 0.25492 0.0
H166 H 0.64014 0.79981 0.3489 0.0
C167 C 0.60614 0.88918 0.21192 0.0
H168 H 0.56222 0.90194 0.33799 0.0
C169 C 0.64859 0.8298 0.21808 0.0
C170 C 0.6617 0.79766 0.26731 0.0
H171 H 0.59692 0.91301 0.17333 0.0
H172 H 0.67174 0.80949 0.18435 0.0
C173 C 0.63123 0.82499 0.31054 0.0
C174 C 0.91353 0.70376 0.71203 0.0
C175 C -0.02768 0.78578 0.67168 0.0
H176 H 0.77413 0.60991 0.75556 0.0
C177 C 0.93718 0.8435 0.64628 0.0
H178 H 0.93983 0.66015 0.73327 0.0
C179 C 0.84246 0.8156 0.65941 0.0
C180 C 0.78148 0.72956 0.69821 0.0
H181 H -0.01853 0.90784 0.6153 0.0
H182 H 0.81617 0.85957 0.63821 0.0
C183 C 0.81877 0.67555 0.72509 0.0
C184 C 0.1165 0.96829 0.29157 0.0
C185 C 0.21123 1.00517 0.27069 0.0
H186 H 0.95606 0.83571 0.29639 0.0
C187 C 0.21595 0.93238 0.2399 0.0
H188 H 0.11058 1.02253 0.3157 0.0
C189 C 0.12822 0.82781 0.22828 0.0
C190 C 0.03279 0.79176 0.24748 0.0
H191 H 0.28729 0.95736 0.22332 0.0
H192 H 0.13574 0.77532 0.2037 0.0
C193 C 0.02791 0.86178 0.28036 0.0
C194 C 0.28579 0.20396 0.63248 0.0
C195 C 0.2912 0.26933 0.67206 0.0
H196 H 0.30928 0.08022 0.61016 0.0
C197 C 0.32468 0.25839 0.72013 0.0
H198 H 0.26096 0.21118 0.59483 0.0
C199 C 0.34997 0.18256 0.72899 0.0
C200 C 0.34266 0.11506 0.69009 0.0
H201 H 0.33088 0.308 0.75138 0.0
H202 H 0.37376 0.17564 0.76702 0.0
C203 C 0.31231 0.12813 0.64133 0.0
C204 C 0.21803 0.4711 0.30535 0.0
C205 C 0.29354 0.53821 0.26692 0.0
H206 H 0.06081 0.37115 0.3254 0.0
C207 C 0.26887 0.57257 0.22138 0.0
H208 H 0.23466 0.44444 0.34119 0.0
C209 C 0.16845 0.52847 0.21184 0.0
C210 C 0.09149 0.45085 0.24801 0.0
H211 H 0.3255 0.6256 0.19119 0.0
H212 H 0.15096 0.55222 0.17547 0.0
C213 C 0.11787 0.42709 0.29582 0.0
C214 C 0.71184 0.23175 0.63289 0.0
C215 C 0.75043 0.28994 0.67804 0.0
H216 H 0.61325 0.06948 0.6005 0.0
C217 C 0.70565 0.22941 0.72559 0.0
H218 H 0.74447 0.27588 0.59565 0.0
C219 C 0.62892 0.11159 0.72815 0.0
C220 C 0.59602 0.05172 0.68329 0.0
H221 H 0.73316 0.27205 0.76106 0.0
H222 H 0.60094 0.06618 0.76551 0.0
C223 C 0.63627 0.1135 0.63559 0.0
loop_
_geom_bond_atom_site_label_1
_geom_bond_atom_site_label_2
_geom_bond_distance
_geom_bond_site_symmetry_2
_ccdc_geom_bond_type
Zn0 O2 1.933 . S
Zn0 O20 1.985 . S
Zn0 O31 1.955 . S
Zn1 O2 1.911 . S
Zn1 O21 1.970 1_655 S
Zn1 O37 1.945 1_655 S
Zn1 O44 1.981 . S
O2 Zn0 1.933 . S
O2 Zn1 1.911 . S
O2 H3 0.841 . S
H3 O2 0.841 . S
C4 O5 1.246 . S
C4 O33 1.276 1_545 S
O5 C4 1.246 . S
Zn6 O8 1.911 . S
Zn6 O23 1.970 . S
Zn6 O40 1.945 . S
Zn6 O47 1.981 . S
Zn7 O8 1.933 . S
Zn7 O22 1.985 . S
Zn7 O29 1.955 . S
O8 Zn6 1.911 . S
O8 Zn7 1.933 . S
O8 H9 0.841 . S
H9 O8 0.841 . S
Zn10 O11 1.933 . S
Zn10 O24 1.985 . S
Zn10 O33 1.955 1_545 S
O11 Zn10 1.933 . S
O11 Zn12 1.911 . S
O11 H13 0.841 . S
Zn12 O11 1.911 . S
Zn12 O25 1.970 . S
Zn12 O41 1.981 . S
Zn12 O43 1.945 . S
H13 O11 0.841 . S
Zn14 O15 1.933 . S
Zn14 O27 1.985 . S
Zn14 O35 1.955 . S
O15 Zn14 1.933 . S
O15 H16 0.841 . S
O15 Zn17 1.911 . S
H16 O15 0.841 . S
Zn17 O15 1.911 . S
Zn17 O28 1.970 . S
Zn17 O38 1.981 . S
Zn17 O46 1.945 . S
C18 O19 1.246 . S
C18 O35 1.276 . S
O19 C18 1.246 . S
O20 Zn0 1.985 . S
O20 C30 1.245 . S
O21 Zn1 1.970 1_455 S
O21 C30 1.263 1_455 S
O22 Zn7 1.985 . S
O22 C34 1.245 . S
O23 Zn6 1.970 . S
O23 C34 1.263 . S
O24 Zn10 1.985 . S
O24 C39 1.245 . S
O25 Zn12 1.970 . S
O25 C39 1.263 . S
C26 O37 1.262 1_655 S
C26 O38 1.245 . S
O27 Zn14 1.985 . S
O27 C45 1.245 . S
O28 Zn17 1.970 . S
O28 C45 1.263 . S
O29 Zn7 1.955 . S
O29 C48 1.276 . S
C30 O20 1.245 . S
C30 O21 1.263 1_655 S
O31 Zn0 1.955 . S
O31 C50 1.276 . S
C32 O40 1.262 . S
C32 O41 1.245 . S
O33 C4 1.276 1_565 S
O33 Zn10 1.955 1_565 S
C34 O22 1.245 . S
C34 O23 1.263 . S
O35 Zn14 1.955 . S
O35 C18 1.276 . S
C36 O43 1.262 . S
C36 O44 1.245 . S
O37 Zn1 1.945 1_455 S
O37 C26 1.262 1_455 S
O38 Zn17 1.981 . S
O38 C26 1.245 . S
C39 O24 1.245 . S
C39 O25 1.263 . S
O40 Zn6 1.945 . S
O40 C32 1.262 . S
O41 Zn12 1.981 . S
O41 C32 1.245 . S
C42 O46 1.262 . S
C42 O47 1.245 . S
O43 Zn12 1.945 . S
O43 C36 1.262 . S
O44 Zn1 1.981 . S
O44 C36 1.245 . S
C45 O27 1.245 . S
C45 O28 1.263 . S
O46 Zn17 1.945 . S
O46 C42 1.262 . S
O47 Zn6 1.981 . S
O47 C42 1.245 . S
C48 O29 1.276 . S
C48 O49 1.246 . S
O49 C48 1.246 . S
C50 O31 1.276 . S
C50 O51 1.246 . S
O51 C50 1.246 . S
Zn52 O54 1.933 . S
Zn52 O72 1.985 . S
Zn52 O83 1.955 . S
Zn53 O54 1.911 . S
Zn53 O73 1.970 . S
Zn53 O89 1.945 . S
Zn53 O96 1.981 . S
O54 Zn52 1.933 . S
O54 Zn53 1.911 . S
O54 H55 0.841 . S
H55 O54 0.841 . S
C56 O57 1.246 . S
C56 O85 1.276 . S
O57 C56 1.246 . S
Zn58 O60 1.911 . S
Zn58 O75 1.970 . S
Zn58 O92 1.945 . S
Zn58 O99 1.981 . S
Zn59 O60 1.933 . S
Zn59 O74 1.985 1_455 S
Zn59 O81 1.955 1_455 S
O60 Zn58 1.911 . S
O60 Zn59 1.933 . S
O60 H61 0.841 . S
H61 O60 0.841 . S
Zn62 O63 1.933 . S
Zn62 O76 1.985 . S
Zn62 O85 1.955 . S
O63 Zn62 1.933 . S
O63 Zn64 1.911 . S
O63 H65 0.841 . S
Zn64 O63 1.911 . S
Zn64 O77 1.970 . S
Zn64 O93 1.981 . S
Zn64 O95 1.945 . S
H65 O63 0.841 . S
Zn66 O67 1.933 . S
Zn66 O79 1.985 . S
Zn66 O87 1.955 . S
O67 Zn66 1.933 . S
O67 H68 0.841 . S
O67 Zn69 1.911 . S
H68 O67 0.841 . S
Zn69 O67 1.911 . S
Zn69 O80 1.970 . S
Zn69 O90 1.981 . S
Zn69 O98 1.945 1_565 S
C70 O71 1.246 . S
C70 O87 1.276 . S
O71 C70 1.246 . S
O72 Zn52 1.985 . S
O72 C82 1.245 . S
O73 Zn53 1.970 . S
O73 C82 1.263 . S
O74 Zn59 1.985 1_655 S
O74 C86 1.245 1_655 S
O75 Zn58 1.970 . S
O75 C86 1.263 . S
O76 Zn62 1.985 . S
O76 C91 1.245 . S
O77 Zn64 1.970 . S
O77 C91 1.263 . S
C78 O89 1.262 . S
C78 O90 1.245 . S
O79 Zn66 1.985 . S
O79 C97 1.245 . S
O80 Zn69 1.970 . S
O80 C97 1.263 . S
O81 Zn59 1.955 1_655 S
O81 C100 1.276 1_655 S
C82 O72 1.245 . S
C82 O73 1.263 . S
O83 Zn52 1.955 . S
O83 C102 1.276 . S
C84 O92 1.262 . S
C84 O93 1.245 . S
O85 C56 1.276 . S
O85 Zn62 1.955 . S
C86 O74 1.245 1_455 S
C86 O75 1.263 . S
O87 Zn66 1.955 . S
O87 C70 1.276 . S
C88 O95 1.262 . S
C88 O96 1.245 . S
O89 Zn53 1.945 . S
O89 C78 1.262 . S
O90 Zn69 1.981 . S
O90 C78 1.245 . S
C91 O76 1.245 . S
C91 O77 1.263 . S
O92 Zn58 1.945 . S
O92 C84 1.262 . S
O93 Zn64 1.981 . S
O93 C84 1.245 . S
C94 O98 1.262 . S
C94 O99 1.245 1_545 S
O95 Zn64 1.945 . S
O95 C88 1.262 . S
O96 Zn53 1.981 . S
O96 C88 1.245 . S
C97 O79 1.245 . S
C97 O80 1.263 . S
O98 Zn69 1.945 1_545 S
O98 C94 1.262 . S
O99 Zn58 1.981 . S
O99 C94 1.245 1_565 S
C100 O81 1.276 1_455 S
C100 O101 1.246 . S
O101 C100 1.246 . S
C102 O83 1.276 . S
C102 O103 1.246 . S
O103 C102 1.246 . S
C104 C105 1.387 1_554 S
C104 H108 0.950 . S
C104 C113 1.390 . S
C105 C104 1.387 1_556 S
C105 C107 1.387 1_565 S
H106 C113 0.950 . S
C107 C105 1.387 1_545 S
C107 C109 1.390 . S
C107 H111 0.950 . S
H108 C104 0.950 . S
C109 C107 1.390 . S
C109 C110 1.387 1_556 S
C109 H112 0.950 . S
C110 C109 1.387 1_554 S
C110 C113 1.387 1_545 S
H111 C107 0.950 . S
H112 C109 0.950 . S
C113 C104 1.390 . S
C113 H106 0.950 . S
C113 C110 1.387 1_565 S
C114 C115 1.387 . S
C114 H118 0.950 . S
C114 C123 1.390 . S
C115 C114 1.387 . S
C115 C117 1.387 . S
H116 C123 0.950 . S
C117 C115 1.387 . S
C117 C119 1.390 . S
C117 H121 0.950 . S
H118 C114 0.950 . S
C119 C117 1.390 . S
C119 C120 1.387 . S
C119 H122 0.950 . S
C120 C119 1.387 . S
C120 C123 1.387 . S
H121 C117 0.950 . S
H122 C119 0.950 . S
C123 C114 1.390 . S
C123 H116 0.950 . S
C123 C120 1.387 . S
C124 C125 1.387 . S
C124 H128 0.950 . S
C124 C133 1.390 1_654 S
C125 C124 1.387 . S
C125 C127 1.387 . S
H126 C133 0.950 . S
C127 C125 1.387 . S
C127 C129 1.390 1_654 S
C127 H131 0.950 . S
H128 C124 0.950 . S
C129 C127 1.390 1_456 S
C129 C130 1.387 . S
C129 H132 0.950 . S
C130 C129 1.387 . S
C130 C133 1.387 . S
H131 C127 0.950 . S
H132 C129 0.950 . S
C133 C124 1.390 1_456 S
C133 H126 0.950 . S
C133 C130 1.387 . S
C134 C135 1.387 . S
C134 H138 0.950 . S
C134 C143 1.390 1_565 S
C135 C134 1.387 . S
C135 C137 1.387 . S
H136 C143 0.950 . S
C137 C135 1.387 . S
C137 C139 1.390 1_565 S
C137 H141 0.950 . S
H138 C134 0.950 . S
C139 C137 1.390 1_545 S
C139 C140 1.387 . S
C139 H142 0.950 . S
C140 C139 1.387 . S
C140 C143 1.387 . S
H141 C137 0.950 . S
H142 C139 0.950 . S
C143 C134 1.390 1_545 S
C143 H136 0.950 . S
C143 C140 1.387 . S
C144 C145 1.387 . S
C144 H148 0.950 . S
C144 C153 1.390 1_554 S
C145 C144 1.387 . S
C145 C147 1.387 . S
H146 C153 0.950 . S
C147 C145 1.387 . S
C147 C149 1.390 1_554 S
C147 H151 0.950 . S
H148 C144 0.950 . S
C149 C147 1.390 1_556 S
C149 C150 1.387 . S
C149 H152 0.950 . S
C150 C149 1.387 . S
C150 C153 1.387 . S
H151 C147 0.950 . S
H152 C149 0.950 . S
C153 C144 1.390 1_556 S
C153 H146 0.950 . S
C153 C150 1.387 . S
C154 C155 1.387 . S
C154 H158 0.950 . S
C154 C163 1.390 1_655 S
C155 C154 1.387 . S
C155 C157 1.387 . S
H156 C163 0.950 . S
C157 C155 1.387 . S
C157 C159 1.390 1_655 S
C157 H161 0.950 . S
H158 C154 0.950 . S
C159 C157 1.390 1_455 S
C159 C160 1.387 . S
C159 H162 0.950 . S
C160 C159 1.387 . S
C160 C163 1.387 . S
H161 C157 0.950 . S
H162 C159 0.950 . S
C163 C154 1.390 1_455 S
C163 H156 0.950 . S
C163 C160 1.387 . S
C164 C165 1.387 . S
C164 H168 0.950 . S
C164 C173 1.390 . S
C165 C164 1.387 . S
C165 C167 1.387 . S
H166 C173 0.950 . S
C167 C165 1.387 . S
C167 C169 1.390 . S
C167 H171 0.950 . S
H168 C164 0.950 . S
C169 C167 1.390 . S
C169 C170 1.387 . S
C169 H172 0.950 . S
C170 C169 1.387 . S
C170 C173 1.387 . S
H171 C167 0.950 . S
H172 C169 0.950 . S
C173 C164 1.390 . S
C173 H166 0.950 . S
C173 C170 1.387 . S
C174 C175 1.387 . S
C174 H178 0.950 . S
C174 C183 1.390 . S
C175 C174 1.387 . S
C175 C177 1.387 . S
H176 C183 0.950 . S
C177 C175 1.387 . S
C177 C179 1.390 . S
C177 H181 0.950 . S
H178 C174 0.950 . S
C179 C177 1.390 . S
C179 C180 1.387 . S
C179 H182 0.950 . S
C180 C179 1.387 . S
C180 C183 1.387 . S
H181 C177 0.950 . S
H182 C179 0.950 . S
C183 C174 1.390 . S
C183 H176 0.950 . S
C183 C180 1.387 . S
C184 C185 1.387 . S
C184 H188 0.950 . S
C184 C193 1.390 . S
C185 C184 1.387 . S
C185 C187 1.387 . S
H186 C193 0.950 . S
C187 C185 1.387 . S
C187 C189 1.390 . S
C187 H191 0.950 . S
H188 C184 0.950 . S
C189 C187 1.390 . S
C189 C190 1.387 . S
C189 H192 0.950 . S
C190 C189 1.387 . S
C190 C193 1.387 . S
H191 C187 0.950 . S
H192 C189 0.950 . S
C193 C184 1.390 . S
C193 H186 0.950 . S
C193 C190 1.387 . S
C194 C195 1.387 . S
C194 H198 0.950 . S
C194 C203 1.390 . S
C195 C194 1.387 . S
C195 C197 1.387 . S
H196 C203 0.950 . S
C197 C195 1.387 . S
C197 C199 1.390 . S
C197 H201 0.950 . S
H198 C194 0.950 . S
C199 C197 1.390 . S
C199 C200 1.387 . S
C199 H202 0.950 . S
C200 C199 1.387 . S
C200 C203 1.387 . S
H201 C197 0.950 . S
H202 C199 0.950 . S
C203 C194 1.390 . S
C203 H196 0.950 . S
C203 C200 1.387 . S
C204 C205 1.387 . S
C204 H208 0.950 . S
C204 C213 1.390 . S
C205 C204 1.387 . S
C205 C207 1.387 . S
H206 C213 0.950 . S
C207 C205 1.387 . S
C207 C209 1.390 . S
C207 H211 0.950 . S
H208 C204 0.950 . S
C209 C207 1.390 . S
C209 C210 1.387 . S
C209 H212 0.950 . S
C210 C209 1.387 . S
C210 C213 1.387 . S
H211 C207 0.950 . S
H212 C209 0.950 . S
C213 C204 1.390 . S
C213 H206 0.950 . S
C213 C210 1.387 . S
C214 C215 1.387 . S
C214 H218 0.950 . S
C214 C223 1.390 . S
C215 C214 1.387 . S
C215 C217 1.387 . S
H216 C223 0.950 . S
C217 C215 1.387 . S
C217 C219 1.390 . S
C217 H221 0.950 . S
H218 C214 0.950 . S
C219 C217 1.390 . S
C219 C220 1.387 . S
C219 H222 0.950 . S
C220 C219 1.387 . S
C220 C223 1.387 . S
H221 C217 0.950 . S
H222 C219 0.950 . S
C223 C214 1.390 . S
C223 H216 0.950 . S
C223 C220 1.387 . S
C105 C97 0.857 . S
C110 C39 0.858 . S
C115 C88 2.740 . S
C120 C18 2.710 . S
C125 C36 1.756 . S
C130 C70 1.741 . S
C135 C84 2.880 . S
C140 C50 2.887 . S
C145 C32 1.786 . S
C150 C102 1.769 . S
C155 C45 2.321 . S
C160 C91 2.323 . S
C165 C4 1.437 1_565 S
C170 C42 1.447 . S
C175 C86 0.984 1_655 S
C180 C82 0.985 . S
C185 C48 1.446 1_565 S
C190 C26 1.455 1_455 S
C195 C56 1.438 . S
C200 C94 1.448 . S
C205 C34 0.983 . S
C210 C30 0.984 1_455 S
C215 C100 1.442 1_655 S
C220 C78 1.451 1_545 S
