# Generated by pormake.
# Topology sra, (4)-cn, num edge types: 1
# Building blocks:
#     Node 0, Type 0, BuildingBlock: CEKHIL_clean_sbu_0, # of connection points: 4
#     Node 1, Type 0, BuildingBlock: CEKHIL_clean_sbu_0, # of connection points: 4
#     Node 2, Type 0, BuildingBlock: CEKHIL_clean_sbu_0, # of connection points: 4
#     Node 3, Type 0, BuildingBlock: CEKHIL_clean_sbu_0, # of connection points: 4
#     Node 4, Type 0, BuildingBlock: CEKHIL_clean_sbu_0, # of connection points: 4
#     Node 5, Type 0, BuildingBlock: CEKHIL_clean_sbu_0, # of connection points: 4
#     Node 6, Type 0, BuildingBlock: CEKHIL_clean_sbu_0, # of connection points: 4
#     Node 7, Type 0, BuildingBlock: CEKHIL_clean_sbu_0, # of connection points: 4
#     Edge 8, Type (0, 0), None
#     Edge 9, Type (0, 0), None
#     Edge 10, Type (0, 0), None
#     Edge 11, Type (0, 0), None
#     Edge 12, Type (0, 0), None
#     Edge 13, Type (0, 0), None
#     Edge 14, Type (0, 0), None
#     Edge 15, Type (0, 0), None
#     Edge 16, Type (0, 0), None
#     Edge 17, Type (0, 0), None
#     Edge 18, Type (0, 0), None
#     Edge 19, Type (0, 0), None
#     Edge 20, Type (0, 0), None
#     Edge 21, Type (0, 0), None
#     Edge 22, Type (0, 0), None
#     Edge 23, Type (0, 0), None
# Relax obj value: 0.033
# Max RMSD: 0.070
# Mean RMSD: 0.070
data_MOF--net-sra--node1-CEKHIL_clean_sbu_0--edge1-none
_symmetry_space_group_name_H-M    P1
_symmetry_Int_Tables_number       1
_symmetry_cell_setting            triclinic
loop_
_symmetry_equiv_pos_as_xyz
'x, y, z'
_cell_length_a     11.864174
_cell_length_b     23.030789
_cell_length_c     14.243208
_cell_angle_alpha  90.000002
_cell_angle_beta   90.0
_cell_angle_gamma 89.999991
loop_
_atom_site_label
_atom_site_type_symbol
_atom_site_fract_x
_atom_site_fract_y
_atom_site_fract_z
_atom_type_partial_charge
Co0 Co 0.05809 0.12126 0.14425 0.0
O1 O 0.06852 0.03898 0.11961 0.0
O2 O 0.02445 0.10458 0.01284 0.0
C3 C 0.22374 0.1261 0.22248 0.0
O4 O 0.03943 0.21133 0.15536 0.0
Co5 Co 0.03612 0.14264 0.36021 0.0
O6 O 0.03949 0.22351 0.31294 0.0
C7 C 0.83778 0.1066 0.25314 0.0
C8 C 0.04155 0.05006 0.0341 0.0
C9 C 0.03371 0.24412 0.22962 0.0
O10 O 0.89471 0.11166 0.17709 0.0
O11 O 0.88102 0.1116 0.33509 0.0
O12 O 0.22239 0.12974 0.13178 0.0
O13 O 0.12817 0.11353 0.26015 0.0
Co14 Co 0.99442 0.4319 0.14425 0.0
O15 O 0.98399 0.51418 0.11961 0.0
O16 O 0.02806 0.44857 0.01284 0.0
C17 C 0.82877 0.42706 0.22248 0.0
O18 O 0.01308 0.34182 0.15536 0.0
Co19 Co 0.01639 0.41052 0.36021 0.0
O20 O 0.01301 0.32965 0.31294 0.0
C21 C 0.21473 0.44655 0.25314 0.0
C22 C 0.01096 0.50309 0.0341 0.0
C23 C 0.0188 0.30903 0.22962 0.0
O24 O 0.1578 0.4415 0.17709 0.0
O25 O 0.1715 0.44155 0.33509 0.0
O26 O 0.83012 0.42341 0.13178 0.0
O27 O 0.92435 0.43963 0.26015 0.0
Co28 Co 0.0581 0.9319 0.85405 0.0
O29 O 0.06853 1.01417 0.8787 0.0
O30 O 0.02445 0.94857 0.98546 0.0
C31 C 0.22374 0.92705 0.77582 0.0
O32 O 0.03944 0.84182 0.84294 0.0
Co33 Co 0.03612 0.91052 0.63809 0.0
O34 O 0.0395 0.82965 0.68536 0.0
C35 C 0.83778 0.94655 0.74516 0.0
C36 C 0.04157 1.00309 0.96421 0.0
C37 C 0.03371 0.80903 0.76867 0.0
O38 O 0.89471 0.9415 0.82121 0.0
O39 O 0.88102 0.94155 0.66321 0.0
O40 O 0.22239 0.92341 0.86652 0.0
O41 O 0.12817 0.93963 0.73815 0.0
Co42 Co 0.99441 0.62126 0.85405 0.0
O43 O 0.98399 0.53898 0.8787 0.0
O44 O 0.02806 0.60459 0.98546 0.0
C45 C 0.82877 0.6261 0.77582 0.0
O46 O 0.01307 0.71133 0.84293 0.0
Co47 Co 0.01639 0.64264 0.63809 0.0
O48 O 0.01301 0.72351 0.68536 0.0
C49 C 0.21473 0.6066 0.74516 0.0
C50 C 0.01094 0.55007 0.96421 0.0
C51 C 0.01879 0.74412 0.76867 0.0
O52 O 0.1578 0.61166 0.82121 0.0
O53 O 0.17149 0.6116 0.66321 0.0
O54 O 0.83012 0.62975 0.86652 0.0
O55 O 0.92434 0.61353 0.73815 0.0
Co56 Co 0.55807 0.62125 0.64425 0.0
O57 O 0.56848 0.53898 0.61961 0.0
O58 O 0.52441 0.60458 0.51285 0.0
C59 C 0.72372 0.62607 0.72247 0.0
O60 O 0.53942 0.71133 0.65537 0.0
Co61 Co 0.53612 0.64264 0.86023 0.0
O62 O 0.5395 0.72351 0.81294 0.0
C63 C 0.33778 0.60658 0.75317 0.0
C64 C 0.54151 0.55006 0.5341 0.0
C65 C 0.53371 0.74412 0.72963 0.0
O66 O 0.39469 0.61166 0.67711 0.0
O67 O 0.38101 0.6116 0.83511 0.0
O68 O 0.72236 0.62973 0.63177 0.0
O69 O 0.62814 0.61352 0.76015 0.0
Co70 Co 0.49444 0.9319 0.64425 0.0
O71 O 0.48403 1.01418 0.61961 0.0
O72 O 0.5281 0.94857 0.51285 0.0
C73 C 0.32879 0.92709 0.72247 0.0
O74 O 0.51309 0.84183 0.65537 0.0
Co75 Co 0.51639 0.91052 0.86023 0.0
O76 O 0.51301 0.82965 0.81294 0.0
C77 C 0.71473 0.94658 0.75317 0.0
C78 C 0.51101 1.00309 0.5341 0.0
C79 C 0.5188 0.80903 0.72963 0.0
O80 O 0.65782 0.9415 0.67711 0.0
O81 O 0.6715 0.94156 0.83511 0.0
O82 O 0.33015 0.92342 0.63177 0.0
O83 O 0.42437 0.93964 0.76015 0.0
Co84 Co 0.55807 0.4319 0.35405 0.0
O85 O 0.56849 0.51418 0.3787 0.0
O86 O 0.52441 0.44857 0.48545 0.0
C87 C 0.72372 0.42709 0.27583 0.0
O88 O 0.53942 0.34182 0.34293 0.0
Co89 Co 0.53612 0.41052 0.13807 0.0
O90 O 0.5395 0.32965 0.18535 0.0
C91 C 0.33779 0.44658 0.24513 0.0
C92 C 0.54153 0.50309 0.4642 0.0
C93 C 0.53371 0.30903 0.26866 0.0
O94 O 0.39469 0.4415 0.3212 0.0
O95 O 0.38101 0.44156 0.16319 0.0
O96 O 0.72237 0.42342 0.36653 0.0
O97 O 0.62815 0.43964 0.23815 0.0
Co98 Co 0.49444 0.12125 0.35405 0.0
O99 O 0.48402 0.03898 0.3787 0.0
O100 O 0.5281 0.10459 0.48545 0.0
C101 C 0.32879 0.12607 0.27583 0.0
O102 O 0.51309 0.21133 0.34293 0.0
Co103 Co 0.51639 0.14264 0.13807 0.0
O104 O 0.51301 0.22351 0.18535 0.0
C105 C 0.71472 0.10658 0.24513 0.0
C106 C 0.51099 0.05007 0.4642 0.0
C107 C 0.51879 0.24412 0.26866 0.0
O108 O 0.65782 0.11166 0.3212 0.0
O109 O 0.6715 0.1116 0.16319 0.0
O110 O 0.33015 0.12974 0.36653 0.0
O111 O 0.42437 0.11352 0.23815 0.0
loop_
_geom_bond_atom_site_label_1
_geom_bond_atom_site_label_2
_geom_bond_distance
_geom_bond_site_symmetry_2
_ccdc_geom_bond_type
Co0 O1 2.216 . S
Co0 O2 2.091 1_554 S
Co0 O4 2.004 . S
Co0 O10 2.021 1_455 S
Co0 O12 2.137 . S
Co0 O13 2.244 . S
O1 Co0 2.216 . S
O1 C8 1.247 . S
O2 Co0 2.091 1_556 S
O2 C8 1.261 1_556 S
C3 O12 1.247 . S
C3 O13 1.272 . S
O4 Co0 2.004 . S
O4 C9 1.259 . S
Co5 O6 2.061 . S
Co5 O11 2.052 1_455 S
Co5 O13 2.135 . S
O6 Co5 2.061 . S
O6 C9 1.235 . S
C7 O10 1.238 . S
C7 O11 1.241 . S
C8 O1 1.247 . S
C8 O2 1.261 1_554 S
C9 O4 1.259 . S
C9 O6 1.235 . S
O10 Co0 2.021 1_655 S
O10 C7 1.238 . S
O11 Co5 2.052 1_655 S
O11 C7 1.241 . S
O12 Co0 2.137 . S
O12 C3 1.247 . S
O13 Co0 2.244 . S
O13 C3 1.272 . S
O13 Co5 2.135 . S
Co14 O15 2.216 . S
Co14 O16 2.091 1_554 S
Co14 O18 2.004 . S
Co14 O24 2.021 . S
Co14 O26 2.137 1_455 S
Co14 O27 2.244 1_455 S
O15 Co14 2.216 . S
O15 C22 1.247 . S
O16 Co14 2.091 1_556 S
O16 C22 1.261 1_556 S
C17 O26 1.247 . S
C17 O27 1.272 . S
O18 Co14 2.004 . S
O18 C23 1.259 . S
Co19 O20 2.061 . S
Co19 O25 2.052 . S
Co19 O27 2.135 1_455 S
O20 Co19 2.061 . S
O20 C23 1.235 . S
C21 O24 1.238 . S
C21 O25 1.241 . S
C22 O15 1.247 . S
C22 O16 1.261 1_554 S
C23 O18 1.259 . S
C23 O20 1.235 . S
O24 Co14 2.021 . S
O24 C21 1.238 . S
O25 Co19 2.052 . S
O25 C21 1.241 . S
O26 Co14 2.137 1_655 S
O26 C17 1.247 . S
O27 Co14 2.244 1_655 S
O27 C17 1.272 . S
O27 Co19 2.135 1_655 S
Co28 O29 2.216 . S
Co28 O30 2.091 1_556 S
Co28 O32 2.004 . S
Co28 O38 2.021 1_455 S
Co28 O40 2.137 . S
Co28 O41 2.244 . S
O29 Co28 2.216 . S
O29 C36 1.247 . S
O30 Co28 2.091 1_554 S
O30 C36 1.261 1_554 S
C31 O40 1.247 . S
C31 O41 1.272 . S
O32 Co28 2.004 . S
O32 C37 1.259 . S
Co33 O34 2.061 . S
Co33 O39 2.052 1_455 S
Co33 O41 2.135 . S
O34 Co33 2.061 . S
O34 C37 1.235 . S
C35 O38 1.238 . S
C35 O39 1.241 . S
C36 O29 1.247 . S
C36 O30 1.261 1_556 S
C37 O32 1.259 . S
C37 O34 1.235 . S
O38 Co28 2.021 1_655 S
O38 C35 1.238 . S
O39 Co33 2.052 1_655 S
O39 C35 1.241 . S
O40 Co28 2.137 . S
O40 C31 1.247 . S
O41 Co28 2.244 . S
O41 C31 1.272 . S
O41 Co33 2.135 . S
Co42 O43 2.216 . S
Co42 O44 2.091 1_556 S
Co42 O46 2.004 . S
Co42 O52 2.021 . S
Co42 O54 2.137 1_455 S
Co42 O55 2.244 1_455 S
O43 Co42 2.216 . S
O43 C50 1.247 . S
O44 Co42 2.091 1_554 S
O44 C50 1.261 1_554 S
C45 O54 1.247 . S
C45 O55 1.272 . S
O46 Co42 2.004 . S
O46 C51 1.259 . S
Co47 O48 2.061 . S
Co47 O53 2.052 . S
Co47 O55 2.135 1_455 S
O48 Co47 2.061 . S
O48 C51 1.235 . S
C49 O52 1.238 . S
C49 O53 1.241 . S
C50 O43 1.247 . S
C50 O44 1.261 1_556 S
C51 O46 1.259 . S
C51 O48 1.235 . S
O52 Co42 2.021 . S
O52 C49 1.238 . S
O53 Co47 2.052 . S
O53 C49 1.241 . S
O54 Co42 2.137 1_655 S
O54 C45 1.247 . S
O55 Co42 2.244 1_655 S
O55 C45 1.272 . S
O55 Co47 2.135 1_655 S
Co56 O57 2.216 . S
Co56 O58 2.091 . S
Co56 O60 2.004 . S
Co56 O66 2.021 . S
Co56 O68 2.137 . S
Co56 O69 2.244 . S
O57 Co56 2.216 . S
O57 C64 1.247 . S
O58 Co56 2.091 . S
O58 C64 1.261 . S
C59 O68 1.247 . S
C59 O69 1.272 . S
O60 Co56 2.004 . S
O60 C65 1.259 . S
Co61 O62 2.061 . S
Co61 O67 2.052 . S
Co61 O69 2.135 . S
O62 Co61 2.061 . S
O62 C65 1.235 . S
C63 O66 1.238 . S
C63 O67 1.241 . S
C64 O57 1.247 . S
C64 O58 1.261 . S
C65 O60 1.259 . S
C65 O62 1.235 . S
O66 Co56 2.021 . S
O66 C63 1.238 . S
O67 Co61 2.052 . S
O67 C63 1.241 . S
O68 Co56 2.137 . S
O68 C59 1.247 . S
O69 Co56 2.244 . S
O69 C59 1.272 . S
O69 Co61 2.135 . S
Co70 O71 2.216 . S
Co70 O72 2.091 . S
Co70 O74 2.004 . S
Co70 O80 2.021 . S
Co70 O82 2.137 . S
Co70 O83 2.244 . S
O71 Co70 2.216 . S
O71 C78 1.247 . S
O72 Co70 2.091 . S
O72 C78 1.261 . S
C73 O82 1.247 . S
C73 O83 1.272 . S
O74 Co70 2.004 . S
O74 C79 1.259 . S
Co75 O76 2.061 . S
Co75 O81 2.052 . S
Co75 O83 2.135 . S
O76 Co75 2.061 . S
O76 C79 1.235 . S
C77 O80 1.238 . S
C77 O81 1.241 . S
C78 O71 1.247 . S
C78 O72 1.261 . S
C79 O74 1.259 . S
C79 O76 1.235 . S
O80 Co70 2.021 . S
O80 C77 1.238 . S
O81 Co75 2.052 . S
O81 C77 1.241 . S
O82 Co70 2.137 . S
O82 C73 1.247 . S
O83 Co70 2.244 . S
O83 C73 1.272 . S
O83 Co75 2.135 . S
Co84 O85 2.216 . S
Co84 O86 2.091 . S
Co84 O88 2.004 . S
Co84 O94 2.021 . S
Co84 O96 2.137 . S
Co84 O97 2.244 . S
O85 Co84 2.216 . S
O85 C92 1.247 . S
O86 Co84 2.091 . S
O86 C92 1.261 . S
C87 O96 1.247 . S
C87 O97 1.272 . S
O88 Co84 2.004 . S
O88 C93 1.259 . S
Co89 O90 2.061 . S
Co89 O95 2.052 . S
Co89 O97 2.135 . S
O90 Co89 2.061 . S
O90 C93 1.235 . S
C91 O94 1.238 . S
C91 O95 1.241 . S
C92 O85 1.247 . S
C92 O86 1.261 . S
C93 O88 1.259 . S
C93 O90 1.235 . S
O94 Co84 2.021 . S
O94 C91 1.238 . S
O95 Co89 2.052 . S
O95 C91 1.241 . S
O96 Co84 2.137 . S
O96 C87 1.247 . S
O97 Co84 2.244 . S
O97 C87 1.272 . S
O97 Co89 2.135 . S
Co98 O99 2.216 . S
Co98 O100 2.091 . S
Co98 O102 2.004 . S
Co98 O108 2.021 . S
Co98 O110 2.137 . S
Co98 O111 2.244 . S
O99 Co98 2.216 . S
O99 C106 1.247 . S
O100 Co98 2.091 . S
O100 C106 1.261 . S
C101 O110 1.247 . S
C101 O111 1.272 . S
O102 Co98 2.004 . S
O102 C107 1.259 . S
Co103 O104 2.061 . S
Co103 O109 2.052 . S
Co103 O111 2.135 . S
O104 Co103 2.061 . S
O104 C107 1.235 . S
C105 O108 1.238 . S
C105 O109 1.241 . S
C106 O99 1.247 . S
C106 O100 1.261 . S
C107 O102 1.259 . S
C107 O104 1.235 . S
O108 Co98 2.021 . S
O108 C105 1.238 . S
O109 Co103 2.052 . S
O109 C105 1.241 . S
O110 Co98 2.137 . S
O110 C101 1.247 . S
O111 Co98 2.244 . S
O111 C101 1.272 . S
O111 Co103 2.135 . S
C23 C9 1.369 . S
C37 C51 1.369 . S
C65 C79 1.369 . S
C93 C107 1.369 . S
C101 C3 1.440 . S
C87 C17 1.439 . S
C31 C73 1.440 . S
C59 C45 1.439 . S
C77 C35 1.435 . S
C63 C49 1.435 . S
C105 C7 1.435 . S
C21 C91 1.435 . S
C8 C36 1.399 1_544 S
C50 C22 1.399 1_556 S
C92 C64 1.400 . S
C78 C106 1.399 1_565 S
