# Generated by pormake.
# Topology pcu, (6)-cn, num edge types: 1
# Building blocks:
#     Node 0, Type 0, BuildingBlock: FUNLAD_clean_sbu_0, # of connection points: 6
#     Edge 1, Type (0, 0), BuildingBlock: XUDNAN_clean_linker_2, # of connection points: 2
#     Edge 2, Type (0, 0), BuildingBlock: XUDNAN_clean_linker_2, # of connection points: 2
#     Edge 3, Type (0, 0), BuildingBlock: XUDNAN_clean_linker_2, # of connection points: 2
# Relax obj value: 0.000
# Max RMSD: 0.000
# Mean RMSD: 0.000
data_MOF--net-pcu--node1-FUNLAD_clean_sbu_0--edge1-XUDNAN_clean_linker_2
_symmetry_space_group_name_H-M    P1
_symmetry_Int_Tables_number       1
_symmetry_cell_setting            triclinic
loop_
_symmetry_equiv_pos_as_xyz
'x, y, z'
_cell_length_a     15.354455
_cell_length_b     15.350661
_cell_length_c     21.667495
_cell_angle_alpha  91.289039
_cell_angle_beta   93.36066
_cell_angle_gamma 95.65982
loop_
_atom_site_label
_atom_site_type_symbol
_atom_site_fract_x
_atom_site_fract_y
_atom_site_fract_z
_atom_type_partial_charge
C0 C 0.16045 0.00715 0.01714 0.0
N1 N 0.97223 -0.00272 0.86588 0.0
C2 C 0.03075 0.05061 0.83566 0.0
C3 C 0.03378 0.04282 0.77139 0.0
C4 C 0.97657 0.97903 0.73821 0.0
C5 C 0.91503 0.92702 0.77043 0.0
C6 C 0.91389 0.93736 0.83446 0.0
Zn7 Zn 0.97587 -0.00036 0.96044 0.0
C8 C 0.97448 0.82096 1.00735 0.0
N9 N 0.9866 0.00041 0.15786 0.0
C10 C 0.04393 0.05481 0.19478 0.0
C11 C 0.93048 0.93822 0.18239 0.0
C12 C 0.93205 0.92717 0.246 0.0
C13 C -0.00795 0.98042 0.28523 0.0
C14 C 0.04753 0.04611 0.25911 0.0
Zn15 Zn 0.98413 0.00296 0.06329 0.0
O16 O 0.11812 0.00408 0.96462 0.0
C17 C -0.01019 0.18157 1.01172 0.0
O18 O 0.11895 0.00991 0.06593 0.0
H19 H 0.8852 0.89573 0.15245 0.0
H20 H 0.07674 0.09762 0.86158 0.0
H21 H 0.08811 0.10368 0.17428 0.0
O22 O 0.98416 0.13423 0.96263 0.0
O23 O -0.01019 0.14516 0.06407 0.0
H24 H 0.86777 0.89578 0.85929 0.0
O25 O 0.84922 -0.00504 0.06008 0.0
O26 O 0.83344 -0.00598 0.95892 0.0
O27 O 0.98005 0.86084 0.05976 0.0
O28 O 0.96921 0.86481 0.95873 0.0
C29 C 0.79948 -0.00838 1.01118 0.0
H30 H 0.08253 0.08385 0.74828 0.0
H31 H 0.86891 0.87794 0.74643 0.0
H32 H 0.88699 0.8768 0.26427 0.0
H33 H 0.09495 0.08832 0.28782 0.0
H34 H 0.00501 0.10192 0.38198 0.0
H35 H -0.00838 0.82273 0.34057 0.0
H36 H -0.00897 0.79329 0.45186 0.0
H37 H 0.14775 0.10064 0.52411 0.0
H38 H 0.09269 0.18232 0.56319 0.0
H39 H 0.09663 0.18227 0.48023 0.0
H40 H 0.92714 0.17516 0.46905 0.0
H41 H 0.92264 0.17478 0.55189 0.0
H42 H 0.86233 0.08816 0.50486 0.0
H43 H 0.9841 0.79269 0.56595 0.0
H44 H 0.97514 0.82132 0.6777 0.0
H45 H -0.00572 0.10086 0.64702 0.0
C46 C 0.00337 0.03477 0.3965 0.0
C47 C -0.00221 0.96454 0.3526 0.0
C48 C -0.00538 0.87744 0.37334 0.0
C49 C -0.00522 0.86005 0.43644 0.0
C50 C -0.00137 0.93046 0.47841 0.0
C51 C 0.00339 0.01612 0.45956 0.0
C52 C 0.00419 0.07932 0.51449 0.0
C53 C 0.09046 0.1397 0.52087 0.0
C54 C 0.92431 0.13246 0.50977 0.0
C55 C -0.00201 0.01558 0.5669 0.0
C56 C -0.00491 0.93011 0.54489 0.0
C57 C 0.98671 0.85933 0.58387 0.0
C58 C 0.98101 0.87623 0.64717 0.0
C59 C 0.98365 0.96323 0.67097 0.0
C60 C -0.00709 0.03375 0.63019 0.0
H61 H 0.28507 0.02981 0.92847 0.0
H62 H 0.25199 0.9674 0.12109 0.0
H63 H 0.4082 0.9505 0.13595 0.0
H64 H 0.45132 0.88084 0.90173 0.0
H65 H 0.51532 0.95524 0.85485 0.0
H66 H 0.39867 0.96021 0.85657 0.0
H67 H 0.42463 0.12435 0.88948 0.0
H68 H 0.54128 0.11997 0.8876 0.0
H69 H 0.49548 0.15733 0.95699 0.0
H70 H 0.56305 0.93996 0.13299 0.0
H71 H 0.71857 0.94556 0.11434 0.0
H72 H 0.6633 0.01866 0.92424 0.0
C73 C 0.31103 0.01243 0.97358 0.0
C74 C 0.25593 1e-05 0.02358 0.0
C75 C 0.29241 0.97785 0.08207 0.0
C76 C 0.38126 0.96751 0.09106 0.0
C77 C 0.4336 0.98001 0.04132 0.0
C78 C 0.40092 0.00269 0.98381 0.0
C79 C 0.47441 0.01534 0.93959 0.0
C80 C 0.45898 0.94893 0.88494 0.0
C81 C 0.48454 0.10988 0.9171 0.0
C82 C 0.55282 -0.00349 0.98174 0.0
C83 C 0.52648 0.97558 0.03991 0.0
C84 C 0.58491 0.95643 0.08774 0.0
C85 C 0.67345 0.96009 0.07651 0.0
C86 C 0.70364 0.98323 0.01788 0.0
C87 C 0.64219 0.00055 0.96942 0.0
H88 H 0.95564 0.69177 0.09567 0.0
H89 H 0.01029 0.73493 0.90338 0.0
H90 H 0.02665 0.57947 0.88816 0.0
H91 H 0.10566 0.52391 0.12236 0.0
H92 H 0.03305 0.45751 0.16883 0.0
H93 H 0.02819 0.57431 0.16744 0.0
H94 H 0.86272 0.55025 0.13402 0.0
H95 H 0.86699 0.43344 0.13557 0.0
H96 H 0.82691 0.48298 0.06623 0.0
H97 H 0.03699 0.42437 0.89067 0.0
H98 H 0.03175 0.26775 0.90885 0.0
H99 H 0.96656 0.31325 0.09886 0.0
C100 C 0.97126 0.66817 0.05057 0.0
C101 C 0.98162 0.72586 1.00076 0.0
C102 C 0.00146 0.69246 0.94226 0.0
C103 C 0.01146 0.60407 0.93306 0.0
C104 C 0.00096 0.54912 0.98261 0.0
C105 C 0.98061 0.5788 0.04013 0.0
C106 C 0.96963 0.50297 0.08408 0.0
C107 C 0.03824 0.51545 0.13893 0.0
C108 C 0.87598 0.49176 0.10628 0.0
C109 C 0.98664 0.42675 0.04176 0.0
C110 C 0.00528 0.45613 0.98375 0.0
C111 C 0.02232 0.40014 0.9358 0.0
C112 C 0.01888 0.31096 0.94674 0.0
C113 C -0.00192 0.27775 1.00522 0.0
C114 C 0.98289 0.33671 0.0538 0.0
loop_
_geom_bond_atom_site_label_1
_geom_bond_atom_site_label_2
_geom_bond_distance
_geom_bond_site_symmetry_2
_ccdc_geom_bond_type
C0 O16 1.243 1_544 S
C0 O18 1.263 . S
N1 C2 1.333 1_665 S
N1 C6 1.307 . S
N1 Zn7 2.020 . S
C2 N1 1.333 1_445 S
C2 C3 1.379 . S
C2 H20 0.952 . S
C3 C2 1.379 . S
C3 C4 1.391 1_455 S
C3 H30 0.949 . S
C4 C3 1.391 1_655 S
C4 C5 1.355 1_545 S
C5 C4 1.355 1_565 S
C5 C6 1.370 . S
C5 H31 0.950 . S
C6 N1 1.307 . S
C6 C5 1.370 . S
C6 H24 0.948 . S
Zn7 N1 2.020 . S
Zn7 O16 2.039 1_655 S
Zn7 O22 2.034 1_665 S
Zn7 O26 2.025 . S
Zn7 O28 2.024 . S
C8 O27 1.246 1_556 S
C8 O28 1.249 . S
N9 C10 1.307 . S
N9 C11 1.333 1_445 S
N9 Zn15 2.020 . S
C10 N9 1.307 . S
C10 C14 1.370 . S
C10 H21 0.948 . S
C11 N9 1.333 1_665 S
C11 C12 1.379 . S
C11 H19 0.952 . S
C12 C11 1.379 . S
C12 C13 1.390 1_655 S
C12 H32 0.949 . S
C13 C12 1.390 1_455 S
C13 C14 1.356 1_565 S
C14 C10 1.370 . S
C14 C13 1.356 1_545 S
C14 H33 0.950 . S
Zn15 N9 2.020 . S
Zn15 O18 2.025 . S
Zn15 O23 2.024 . S
Zn15 O25 2.039 1_455 S
Zn15 O27 2.034 1_445 S
O16 C0 1.243 1_566 S
O16 Zn7 2.039 1_455 S
C17 O22 1.246 1_554 S
C17 O23 1.249 . S
O18 C0 1.263 . S
O18 Zn15 2.025 . S
H19 C11 0.952 . S
H20 C2 0.952 . S
H21 C10 0.948 . S
O22 Zn7 2.034 1_445 S
O22 C17 1.246 1_556 S
O23 Zn15 2.024 . S
O23 C17 1.249 . S
H24 C6 0.948 . S
O25 Zn15 2.039 1_655 S
O25 C29 1.246 1_544 S
O26 Zn7 2.025 . S
O26 C29 1.259 . S
O27 C8 1.246 1_554 S
O27 Zn15 2.034 1_665 S
O28 Zn7 2.024 . S
O28 C8 1.249 . S
C29 O25 1.246 1_566 S
C29 O26 1.259 . S
H30 C3 0.949 . S
H31 C5 0.950 . S
H32 C12 0.949 . S
H33 C14 0.950 . S
H34 C46 0.930 . S
H35 C48 0.930 . S
H36 C49 0.930 . S
H37 C53 0.959 . S
H38 C53 0.959 . S
H39 C53 0.961 . S
H40 C54 0.960 . S
H41 C54 0.961 . S
H42 C54 0.959 1_655 S
H43 C57 0.929 . S
H44 C58 0.931 . S
H45 C60 0.930 . S
C46 H34 0.930 . S
C46 C47 1.399 1_445 S
C46 C51 1.399 . S
C47 C46 1.399 1_665 S
C47 C48 1.376 . S
C48 H35 0.930 . S
C48 C47 1.376 . S
C48 C49 1.388 . S
C49 H36 0.930 . S
C49 C48 1.388 . S
C49 C50 1.390 . S
C50 C49 1.390 . S
C50 C51 1.394 1_665 S
C50 C56 1.465 . S
C51 C46 1.399 . S
C51 C50 1.394 1_445 S
C51 C52 1.516 . S
C52 C51 1.516 . S
C52 C53 1.502 . S
C52 C54 1.561 . S
C52 C55 1.526 . S
C53 H37 0.959 . S
C53 H38 0.959 . S
C53 H39 0.961 . S
C53 C52 1.502 . S
C54 H40 0.960 . S
C54 H41 0.961 . S
C54 H42 0.959 1_455 S
C54 C52 1.561 . S
C55 C52 1.526 . S
C55 C56 1.396 1_445 S
C55 C60 1.390 . S
C56 C50 1.465 . S
C56 C55 1.396 1_665 S
C56 C57 1.399 . S
C57 H43 0.929 . S
C57 C56 1.399 . S
C57 C58 1.385 . S
C58 H44 0.931 . S
C58 C57 1.385 . S
C58 C59 1.389 . S
C59 C58 1.389 . S
C59 C60 1.387 1_665 S
C60 H45 0.930 . S
C60 C55 1.390 . S
C60 C59 1.387 1_445 S
H61 C73 0.930 . S
H62 C75 0.930 . S
H63 C76 0.930 . S
H64 C80 0.959 . S
H65 C80 0.959 . S
H66 C80 0.961 . S
H67 C81 0.960 . S
H68 C81 0.961 . S
H69 C81 0.959 . S
H70 C84 0.929 . S
H71 C85 0.931 . S
H72 C87 0.930 . S
C73 H61 0.930 . S
C73 C74 1.399 1_556 S
C73 C78 1.399 . S
C74 C73 1.399 1_554 S
C74 C75 1.376 1_545 S
C75 H62 0.930 . S
C75 C74 1.376 1_565 S
C75 C76 1.388 . S
C76 H63 0.930 . S
C76 C75 1.388 . S
C76 C77 1.390 1_565 S
C77 C76 1.390 1_545 S
C77 C78 1.394 1_554 S
C77 C83 1.465 . S
C78 C73 1.399 . S
C78 C77 1.394 1_556 S
C78 C79 1.516 . S
C79 C78 1.516 . S
C79 C80 1.502 1_545 S
C79 C81 1.561 . S
C79 C82 1.526 . S
C80 H64 0.959 . S
C80 H65 0.959 . S
C80 H66 0.961 . S
C80 C79 1.502 1_565 S
C81 H67 0.960 . S
C81 H68 0.961 . S
C81 H69 0.959 . S
C81 C79 1.561 . S
C82 C79 1.526 . S
C82 C83 1.396 1_556 S
C82 C87 1.390 . S
C83 C77 1.465 . S
C83 C82 1.396 1_554 S
C83 C84 1.399 1_545 S
C84 H70 0.929 . S
C84 C83 1.399 1_565 S
C84 C85 1.385 . S
C85 H71 0.931 . S
C85 C84 1.385 . S
C85 C86 1.389 1_565 S
C86 C85 1.389 1_545 S
C86 C87 1.387 1_554 S
C87 H72 0.930 . S
C87 C82 1.390 . S
C87 C86 1.387 1_556 S
H88 C100 0.930 . S
H89 C102 0.930 . S
H90 C103 0.930 . S
H91 C107 0.959 . S
H92 C107 0.959 . S
H93 C107 0.961 . S
H94 C108 0.960 . S
H95 C108 0.961 . S
H96 C108 0.959 . S
H97 C111 0.929 . S
H98 C112 0.931 . S
H99 C114 0.930 . S
C100 H88 0.930 . S
C100 C101 1.399 1_654 S
C100 C105 1.399 . S
C101 C100 1.399 1_456 S
C101 C102 1.376 . S
C102 H89 0.930 . S
C102 C101 1.376 . S
C102 C103 1.388 . S
C103 H90 0.930 . S
C103 C102 1.388 . S
C103 C104 1.390 . S
C104 C103 1.390 . S
C104 C105 1.394 1_456 S
C104 C110 1.465 . S
C105 C100 1.399 . S
C105 C104 1.394 1_654 S
C105 C106 1.516 . S
C106 C105 1.516 . S
C106 C107 1.502 . S
C106 C108 1.561 1_554 S
C106 C109 1.526 . S
C107 H91 0.959 . S
C107 H92 0.959 . S
C107 H93 0.961 . S
C107 C106 1.502 . S
C108 H94 0.960 . S
C108 H95 0.961 . S
C108 H96 0.959 . S
C108 C106 1.561 1_556 S
C109 C106 1.526 . S
C109 C110 1.396 1_654 S
C109 C114 1.390 . S
C110 C104 1.465 . S
C110 C109 1.396 1_456 S
C110 C111 1.399 . S
C111 H97 0.929 . S
C111 C110 1.399 . S
C111 C112 1.385 . S
C112 H98 0.931 . S
C112 C111 1.385 . S
C112 C113 1.389 . S
C113 C112 1.389 . S
C113 C114 1.387 1_456 S
C114 H99 0.930 . S
C114 C109 1.390 . S
C114 C113 1.387 1_654 S
C47 C13 1.497 1_655 S
C59 C4 1.486 1_565 S
C74 C0 1.491 . S
C86 C29 1.493 1_544 S
C101 C8 1.493 1_455 S
C113 C17 1.485 1_556 S
