# Generated by pormake.
# Topology upa, (4)-cn, num edge types: 1
# Building blocks:
#     Node 0, Type 0, BuildingBlock: GALJAG_clean_sbu_0, # of connection points: 4
#     Node 1, Type 0, BuildingBlock: GALJAG_clean_sbu_0, # of connection points: 4
#     Node 2, Type 0, BuildingBlock: GALJAG_clean_sbu_0, # of connection points: 4
#     Node 3, Type 0, BuildingBlock: GALJAG_clean_sbu_0, # of connection points: 4
#     Node 4, Type 0, BuildingBlock: GALJAG_clean_sbu_0, # of connection points: 4
#     Node 5, Type 0, BuildingBlock: GALJAG_clean_sbu_0, # of connection points: 4
#     Node 6, Type 0, BuildingBlock: GALJAG_clean_sbu_0, # of connection points: 4
#     Node 7, Type 0, BuildingBlock: GALJAG_clean_sbu_0, # of connection points: 4
#     Edge 8, Type (0, 0), None
#     Edge 9, Type (0, 0), None
#     Edge 10, Type (0, 0), None
#     Edge 11, Type (0, 0), None
#     Edge 12, Type (0, 0), None
#     Edge 13, Type (0, 0), None
#     Edge 14, Type (0, 0), None
#     Edge 15, Type (0, 0), None
#     Edge 16, Type (0, 0), None
#     Edge 17, Type (0, 0), None
#     Edge 18, Type (0, 0), None
#     Edge 19, Type (0, 0), None
#     Edge 20, Type (0, 0), None
#     Edge 21, Type (0, 0), None
#     Edge 22, Type (0, 0), None
#     Edge 23, Type (0, 0), None
# Relax obj value: 0.230
# Max RMSD: 0.125
# Mean RMSD: 0.125
data_MOF--net-upa--node1-GALJAG_clean_sbu_0--edge1-none
_symmetry_space_group_name_H-M    P1
_symmetry_Int_Tables_number       1
_symmetry_cell_setting            triclinic
loop_
_symmetry_equiv_pos_as_xyz
'x, y, z'
_cell_length_a     11.051338
_cell_length_b     11.051343
_cell_length_c     20.599078
_cell_angle_alpha  89.998658
_cell_angle_beta   90.001337
_cell_angle_gamma 89.999986
loop_
_atom_site_label
_atom_site_type_symbol
_atom_site_fract_x
_atom_site_fract_y
_atom_site_fract_z
_atom_type_partial_charge
In0 In 0.262 0.2515 0.30829 0.0
O1 O 0.25351 0.37715 0.39592 0.0
O2 O 0.34886 0.2096 0.40502 0.0
C3 C 0.09975 0.3203 0.21798 0.0
C4 C 0.48326 0.25979 0.25176 0.0
C5 C 0.0966 0.08802 0.34142 0.0
O6 O 0.13485 0.39333 0.26178 0.0
O7 O 0.15786 0.22207 0.21529 0.0
O8 O 0.20124 0.05691 0.32188 0.0
O9 O 0.0792 0.19993 0.34773 0.0
C10 C 0.3114 0.30481 0.43225 0.0
O11 O 0.42428 0.16185 0.25598 0.0
O12 O 0.42896 0.35211 0.2736 0.0
In13 In 0.34049 0.76199 0.80829 0.0
O14 O 0.43013 0.92428 0.75598 0.0
O15 O 0.23988 0.92896 0.7736 0.0
C16 C 0.50397 0.59659 0.84142 0.0
C17 C 0.28718 0.81139 0.93225 0.0
C18 C 0.27168 0.59975 0.71799 0.0
O19 O 0.53507 0.70124 0.82188 0.0
O20 O 0.39205 0.57919 0.84773 0.0
O21 O 0.19866 0.63485 0.76179 0.0
O22 O 0.36992 0.65787 0.71529 0.0
C23 C 0.33219 0.98325 0.75176 0.0
O24 O 0.21484 0.7535 0.89592 0.0
O25 O 0.38238 0.84885 0.90502 0.0
In26 In 0.83001 0.84049 0.30829 0.0
O27 O 0.66772 0.93014 0.25598 0.0
O28 O 0.66304 0.73988 0.27361 0.0
C29 C 0.99544 1.00392 0.34139 0.0
C30 C 0.78061 0.7872 0.43225 0.0
C31 C 0.99224 0.77168 0.21798 0.0
O32 O 0.89079 1.03506 0.32186 0.0
O33 O 1.01283 0.89201 0.34773 0.0
O34 O 0.95715 0.69865 0.26178 0.0
O35 O 0.93413 0.86991 0.21528 0.0
C36 C 0.60874 0.8322 0.25176 0.0
O37 O 0.83848 0.71485 0.39592 0.0
O38 O 0.74316 0.88241 0.40502 0.0
In39 In 0.7515 0.33 0.80829 0.0
O40 O 0.66184 0.16772 0.75598 0.0
O41 O 0.8521 0.16304 0.7736 0.0
C42 C 0.58807 0.49543 0.84139 0.0
C43 C 0.80479 0.2806 0.93225 0.0
C44 C 0.82031 0.49224 0.71798 0.0
O45 O 0.55692 0.39079 0.82187 0.0
O46 O 0.69998 0.51282 0.84773 0.0
O47 O 0.89333 0.45715 0.76178 0.0
O48 O 0.72207 0.43413 0.71528 0.0
C49 C 0.75978 0.10874 0.75176 0.0
O50 O 0.87714 0.33847 0.89592 0.0
O51 O 0.70958 0.24316 0.90502 0.0
In52 In 0.762 0.34053 0.12695 0.0
O53 O 0.92428 0.43021 0.17925 0.0
O54 O 0.92896 0.23994 0.16166 0.0
C55 C 0.59659 0.50398 0.09378 0.0
C56 C 0.81133 0.28723 0.003 0.0
C57 C 0.59971 0.27181 0.21723 0.0
O58 O 0.70123 0.5351 0.11334 0.0
O59 O 0.57921 0.39206 0.08748 0.0
O60 O 0.63485 0.19871 0.17347 0.0
O61 O 0.65784 0.37003 0.21993 0.0
C62 C 0.98324 0.33227 0.1835 0.0
O63 O 0.75352 0.21484 0.03934 0.0
O64 O 0.84884 0.38243 0.03022 0.0
In65 In 0.25145 0.26201 0.62695 0.0
O66 O 0.16177 0.42429 0.67925 0.0
O67 O 0.35204 0.42897 0.66166 0.0
C68 C 0.08801 0.09661 0.59378 0.0
C69 C 0.30476 0.31135 0.503 0.0
C70 C 0.32018 0.09971 0.71723 0.0
O71 O 0.05689 0.20124 0.61334 0.0
O72 O 0.19992 0.07922 0.58748 0.0
O73 O 0.39327 0.13486 0.67347 0.0
O74 O 0.22195 0.15784 0.71994 0.0
C75 C 0.25971 0.48324 0.6835 0.0
O76 O 0.37715 0.25354 0.53934 0.0
O77 O 0.20955 0.34885 0.53022 0.0
In78 In 0.32999 0.75146 0.12695 0.0
O79 O 0.16772 0.66177 0.17925 0.0
O80 O 0.16303 0.85204 0.16165 0.0
C81 C 0.49542 0.58806 0.09382 0.0
C82 C 0.28065 0.80475 0.003 0.0
C83 C 0.49228 0.82019 0.21723 0.0
O84 O 0.39079 0.5569 0.11335 0.0
O85 O 0.51279 0.69997 0.08748 0.0
O86 O 0.45714 0.89328 0.17348 0.0
O87 O 0.43416 0.72196 0.21994 0.0
C88 C 0.10876 0.75971 0.1835 0.0
O89 O 0.33844 0.87715 0.03934 0.0
O90 O 0.24316 0.70954 0.03022 0.0
In91 In 0.84053 0.83 0.62695 0.0
O92 O 0.93021 0.66772 0.67925 0.0
O93 O 0.73994 0.66303 0.66165 0.0
C94 C 1.00393 0.99544 0.59382 0.0
C95 C 0.78724 0.78066 0.503 0.0
C96 C 0.7718 0.99229 0.71723 0.0
O97 O 1.03509 0.8908 0.61335 0.0
O98 O 0.89201 1.01281 0.58748 0.0
O99 O 0.6987 0.95714 0.67347 0.0
O100 O 0.87002 0.93416 0.71994 0.0
C101 C 0.83227 0.60876 0.6835 0.0
O102 O 0.71484 0.83846 0.53933 0.0
O103 O 0.88245 0.74317 0.53022 0.0
loop_
_geom_bond_atom_site_label_1
_geom_bond_atom_site_label_2
_geom_bond_distance
_geom_bond_site_symmetry_2
_ccdc_geom_bond_type
In0 O1 2.294 . S
In0 O2 2.326 . S
In0 O6 2.266 1_455 S
In0 O7 2.326 . S
In0 O8 2.266 . S
In0 O9 2.326 1_455 S
In0 O11 2.294 . S
In0 O12 2.326 . S
O1 In0 2.294 . S
O1 C10 1.240 . S
O2 In0 2.326 . S
O2 C10 1.252 . S
C3 O6 1.252 . S
C3 O7 1.260 1_655 S
C4 O11 1.240 . S
C4 O12 1.252 . S
C5 O8 1.252 . S
C5 O9 1.260 1_455 S
O6 In0 2.266 1_655 S
O6 C3 1.252 . S
O7 In0 2.326 . S
O7 C3 1.260 1_455 S
O8 In0 2.266 . S
O8 C5 1.252 . S
O9 In0 2.326 1_655 S
O9 C5 1.260 1_655 S
C10 O1 1.240 . S
C10 O2 1.252 . S
O11 In0 2.294 . S
O11 C4 1.240 . S
O12 In0 2.326 . S
O12 C4 1.252 . S
In13 O14 2.294 . S
In13 O15 2.326 . S
In13 O19 2.266 . S
In13 O20 2.326 . S
In13 O21 2.266 . S
In13 O22 2.326 . S
In13 O24 2.294 . S
In13 O25 2.326 . S
O14 In13 2.294 . S
O14 C23 1.240 . S
O15 In13 2.326 . S
O15 C23 1.252 . S
C16 O19 1.252 . S
C16 O20 1.260 . S
C17 O24 1.240 . S
C17 O25 1.252 . S
C18 O21 1.252 . S
C18 O22 1.260 . S
O19 In13 2.266 . S
O19 C16 1.252 . S
O20 In13 2.326 . S
O20 C16 1.260 . S
O21 In13 2.266 . S
O21 C18 1.252 . S
O22 In13 2.326 . S
O22 C18 1.260 . S
C23 O14 1.240 . S
C23 O15 1.252 . S
O24 In13 2.294 . S
O24 C17 1.240 . S
O25 In13 2.326 . S
O25 C17 1.252 . S
In26 O27 2.294 . S
In26 O28 2.326 . S
In26 O32 2.266 . S
In26 O33 2.326 1_655 S
In26 O34 2.266 1_655 S
In26 O35 2.326 . S
In26 O37 2.294 . S
In26 O38 2.326 . S
O27 In26 2.294 . S
O27 C36 1.240 . S
O28 In26 2.326 . S
O28 C36 1.252 . S
C29 O32 1.252 . S
C29 O33 1.260 1_655 S
C30 O37 1.240 . S
C30 O38 1.252 . S
C31 O34 1.252 . S
C31 O35 1.260 1_455 S
O32 In26 2.266 . S
O32 C29 1.252 . S
O33 In26 2.326 1_455 S
O33 C29 1.260 1_455 S
O34 In26 2.266 1_455 S
O34 C31 1.252 . S
O35 In26 2.326 . S
O35 C31 1.260 1_655 S
C36 O27 1.240 . S
C36 O28 1.252 . S
O37 In26 2.294 . S
O37 C30 1.240 . S
O38 In26 2.326 . S
O38 C30 1.252 . S
In39 O40 2.294 . S
In39 O41 2.326 . S
In39 O45 2.266 . S
In39 O46 2.326 . S
In39 O47 2.266 . S
In39 O48 2.326 . S
In39 O50 2.294 . S
In39 O51 2.326 . S
O40 In39 2.294 . S
O40 C49 1.240 . S
O41 In39 2.326 . S
O41 C49 1.252 . S
C42 O45 1.252 . S
C42 O46 1.260 . S
C43 O50 1.240 . S
C43 O51 1.252 . S
C44 O47 1.252 . S
C44 O48 1.260 . S
O45 In39 2.266 . S
O45 C42 1.252 . S
O46 In39 2.326 . S
O46 C42 1.260 . S
O47 In39 2.266 . S
O47 C44 1.252 . S
O48 In39 2.326 . S
O48 C44 1.260 . S
C49 O40 1.240 . S
C49 O41 1.252 . S
O50 In39 2.294 . S
O50 C43 1.240 . S
O51 In39 2.326 . S
O51 C43 1.252 . S
In52 O53 2.294 . S
In52 O54 2.326 . S
In52 O58 2.266 . S
In52 O59 2.326 . S
In52 O60 2.266 . S
In52 O61 2.326 . S
In52 O63 2.294 . S
In52 O64 2.326 . S
O53 In52 2.294 . S
O53 C62 1.240 . S
O54 In52 2.326 . S
O54 C62 1.252 . S
C55 O58 1.252 . S
C55 O59 1.260 . S
C56 O63 1.240 . S
C56 O64 1.252 . S
C57 O60 1.252 . S
C57 O61 1.260 . S
O58 In52 2.266 . S
O58 C55 1.252 . S
O59 In52 2.326 . S
O59 C55 1.260 . S
O60 In52 2.266 . S
O60 C57 1.252 . S
O61 In52 2.326 . S
O61 C57 1.260 . S
C62 O53 1.240 . S
C62 O54 1.252 . S
O63 In52 2.294 . S
O63 C56 1.240 . S
O64 In52 2.326 . S
O64 C56 1.252 . S
In65 O66 2.294 . S
In65 O67 2.326 . S
In65 O71 2.266 . S
In65 O72 2.326 1_545 S
In65 O73 2.266 1_545 S
In65 O74 2.326 . S
In65 O76 2.294 . S
In65 O77 2.326 . S
O66 In65 2.294 . S
O66 C75 1.240 . S
O67 In65 2.326 . S
O67 C75 1.252 . S
C68 O71 1.252 . S
C68 O72 1.260 1_545 S
C69 O76 1.240 . S
C69 O77 1.252 . S
C70 O73 1.252 . S
C70 O74 1.260 1_565 S
O71 In65 2.266 . S
O71 C68 1.252 . S
O72 In65 2.326 1_565 S
O72 C68 1.260 1_565 S
O73 In65 2.266 1_565 S
O73 C70 1.252 . S
O74 In65 2.326 . S
O74 C70 1.260 1_545 S
C75 O66 1.240 . S
C75 O67 1.252 . S
O76 In65 2.294 . S
O76 C69 1.240 . S
O77 In65 2.326 . S
O77 C69 1.252 . S
In78 O79 2.294 . S
In78 O80 2.326 . S
In78 O84 2.266 . S
In78 O85 2.326 . S
In78 O86 2.266 . S
In78 O87 2.326 . S
In78 O89 2.294 . S
In78 O90 2.326 . S
O79 In78 2.294 . S
O79 C88 1.240 . S
O80 In78 2.326 . S
O80 C88 1.252 . S
C81 O84 1.252 . S
C81 O85 1.260 . S
C82 O89 1.240 . S
C82 O90 1.252 . S
C83 O86 1.252 . S
C83 O87 1.260 . S
O84 In78 2.266 . S
O84 C81 1.252 . S
O85 In78 2.326 . S
O85 C81 1.260 . S
O86 In78 2.266 . S
O86 C83 1.252 . S
O87 In78 2.326 . S
O87 C83 1.260 . S
C88 O79 1.240 . S
C88 O80 1.252 . S
O89 In78 2.294 . S
O89 C82 1.240 . S
O90 In78 2.326 . S
O90 C82 1.252 . S
In91 O92 2.294 . S
In91 O93 2.326 . S
In91 O97 2.266 . S
In91 O98 2.326 1_565 S
In91 O99 2.266 1_565 S
In91 O100 2.326 . S
In91 O102 2.294 . S
In91 O103 2.326 . S
O92 In91 2.294 . S
O92 C101 1.240 . S
O93 In91 2.326 . S
O93 C101 1.252 . S
C94 O97 1.252 . S
C94 O98 1.260 1_565 S
C95 O102 1.240 . S
C95 O103 1.252 . S
C96 O99 1.252 . S
C96 O100 1.260 1_545 S
O97 In91 2.266 . S
O97 C94 1.252 . S
O98 In91 2.326 1_545 S
O98 C94 1.260 1_545 S
O99 In91 2.266 1_545 S
O99 C96 1.252 . S
O100 In91 2.326 . S
O100 C96 1.260 1_565 S
C101 O92 1.240 . S
C101 O93 1.252 . S
O102 In91 2.294 . S
O102 C95 1.240 . S
O103 In91 2.326 . S
O103 C95 1.252 . S
C5 C29 0.905 1_445 S
C16 C42 0.905 . S
C55 C81 0.905 . S
C68 C94 0.905 1_445 S
C10 C69 1.690 . S
C17 C82 1.690 1_556 S
C95 C30 1.690 . S
C43 C56 1.690 1_556 S
C57 C4 2.258 . S
C23 C70 2.258 . S
C36 C83 2.258 . S
C49 C96 2.258 . S
C3 C62 2.258 . S
C75 C18 2.258 . S
C88 C31 2.258 . S
C44 C101 2.258 . S
