# Generated by pormake.
# Topology pcu, (6)-cn, num edge types: 1
# Building blocks:
#     Node 0, Type 0, BuildingBlock: CIFDUS_clean_sbu_1, # of connection points: 6
#     Edge 1, Type (0, 0), BuildingBlock: KIFKEQ_clean_linker_1, # of connection points: 2
#     Edge 2, Type (0, 0), BuildingBlock: KIFKEQ_clean_linker_1, # of connection points: 2
#     Edge 3, Type (0, 0), BuildingBlock: KIFKEQ_clean_linker_1, # of connection points: 2
# Relax obj value: 0.009
# Max RMSD: 0.057
# Mean RMSD: 0.057
data_MOF--net-pcu--node1-CIFDUS_clean_sbu_1--edge1-KIFKEQ_clean_linker_1
_symmetry_space_group_name_H-M    P1
_symmetry_Int_Tables_number       1
_symmetry_cell_setting            triclinic
loop_
_symmetry_equiv_pos_as_xyz
'x, y, z'
_cell_length_a     16.018044
_cell_length_b     15.993789
_cell_length_c     15.536938
_cell_angle_alpha  74.01166
_cell_angle_beta   107.26374
_cell_angle_gamma 95.7497
loop_
_atom_site_label
_atom_site_type_symbol
_atom_site_fract_x
_atom_site_fract_y
_atom_site_fract_z
_atom_type_partial_charge
O0 O 0.02109 0.86051 0.03988 0.0
Mn1 Mn 0.02219 -0.00699 1.0388 0.0
O2 O 0.11096 0.79229 0.17796 0.0
Mn3 Mn 0.15199 0.89187 0.21535 0.0
O4 O 0.02361 0.12628 1.03759 0.0
O5 O 0.97874 0.02092 0.89666 0.0
Mn6 Mn 0.89157 0.09273 0.86396 0.0
O7 O 0.89342 0.97781 0.05152 0.0
O8 O 0.93319 0.19244 0.89945 0.0
O9 O 0.15221 0.0098 1.0273 0.0
O10 O 0.23935 0.95255 0.17082 0.0
O11 O 0.89772 0.08204 0.75374 0.0
O12 O 0.80322 0.0346 0.90986 0.0
C13 C 0.07651 0.95049 0.26994 0.0
C14 C 0.05686 0.79119 0.09964 0.0
C15 C 0.98679 0.19513 0.97744 0.0
C16 C 0.95996 0.02949 0.80711 0.0
C17 C 0.81636 -0.00704 0.99464 0.0
C18 C 0.2285 -0.00431 0.08673 0.0
O19 O 0.06357 0.96229 0.18074 0.0
O20 O 0.14127 0.90174 0.32457 0.0
H21 H 0.95353 0.85097 0.3342 0.0
H22 H 0.07999 0.10322 0.31443 0.0
H23 H 0.93759 0.84889 0.48456 0.0
H24 H 0.05742 0.10612 0.46195 0.0
H25 H 0.11422 0.06023 0.76427 0.0
H26 H 0.12601 0.04416 0.61676 0.0
H27 H 0.88807 0.88669 0.58889 0.0
H28 H 0.88227 0.89703 0.73914 0.0
C29 C 0.97201 0.90901 0.35922 0.0
C30 C 0.01825 0.97702 0.31336 0.0
C31 C 0.96446 0.90732 0.44681 0.0
C32 C 1.00004 0.97561 0.48838 0.0
C33 C 0.0335 0.0501 0.43477 0.0
C34 C 0.04329 0.05037 0.34823 0.0
C35 C 0.06834 0.0173 0.72928 0.0
C36 C 0.99748 0.97976 0.76256 0.0
C37 C 0.07272 0.01083 0.64278 0.0
C38 C 1.00522 0.9681 0.58772 0.0
C39 C 0.94102 0.92096 0.62776 0.0
C40 C 0.93839 0.92547 0.71522 0.0
H41 H 0.37852 0.0468 0.19384 0.0
H42 H 0.26437 -0.00208 0.92303 0.0
H43 H 0.52297 0.03901 0.18021 0.0
H44 H 0.41107 -0.00246 0.90464 0.0
H45 H 0.67383 0.89322 0.94096 0.0
H46 H 0.52899 0.90662 0.95655 0.0
H47 H 0.63663 0.08967 0.12322 0.0
H48 H 0.7814 0.06943 0.1135 0.0
C49 C 0.38462 0.03781 0.12932 0.0
C50 C 0.31019 0.02175 0.06001 0.0
C51 C 0.4681 0.03356 0.12125 0.0
C52 C 0.47991 0.01561 0.04215 0.0
C53 C 0.40492 0.00835 0.96824 0.0
C54 C 0.3206 0.0108 0.97737 0.0
C55 C 0.66642 0.93288 0.98454 0.0
C56 C 0.73866 0.9782 1.02851 0.0
C57 C 0.58307 0.94284 0.99127 0.0
C58 C 0.56973 0.00076 0.03955 0.0
C59 C 0.64343 0.04339 0.08653 0.0
C60 C 0.72703 0.03129 0.08199 0.0
H61 H 0.05364 0.63443 0.22263 0.0
H62 H 0.02306 0.75426 0.93016 0.0
H63 H 0.04124 0.49097 0.19443 0.0
H64 H 1.01449 0.61026 0.90191 0.0
H65 H 0.90928 0.34597 0.86607 0.0
H66 H 0.92424 0.48729 0.89507 0.0
H67 H 0.11522 0.38857 0.15976 0.0
H68 H 0.09719 0.24314 0.13219 0.0
C69 C 0.04412 0.62989 0.15203 0.0
C70 C 0.03886 0.70551 0.07838 0.0
C71 C 0.03818 0.54751 0.1361 0.0
C72 C 0.0279 0.53844 0.04618 0.0
C73 C 0.0213 0.61442 0.97205 0.0
C74 C 0.02593 0.69711 0.98788 0.0
C75 C 0.95499 0.35344 0.93078 0.0
C76 C 1.00212 0.28224 0.997 0.0
C77 C 0.96405 0.4356 0.9469 0.0
C78 C 0.02127 0.45021 1.02938 0.0
C79 C 0.06961 0.37955 0.09569 0.0
C80 C 0.0599 0.29625 0.07979 0.0
loop_
_geom_bond_atom_site_label_1
_geom_bond_atom_site_label_2
_geom_bond_distance
_geom_bond_site_symmetry_2
_ccdc_geom_bond_type
O0 Mn1 2.163 1_666 S
O0 C14 1.244 1_656 S
Mn1 O0 2.163 1_444 S
Mn1 O4 2.160 . S
Mn1 O5 2.221 1_454 S
Mn1 O7 2.163 1_445 S
Mn1 O9 2.160 1_554 S
Mn1 O19 2.221 1_545 S
O2 Mn3 2.087 . S
O2 C14 1.256 . S
Mn3 O2 2.087 . S
Mn3 O10 2.089 . S
Mn3 O19 2.290 . S
Mn3 O20 2.251 . S
O4 Mn1 2.160 . S
O4 C15 1.239 1_454 S
O5 Mn1 2.221 1_656 S
O5 Mn6 2.290 . S
O5 C16 1.278 . S
Mn6 O5 2.290 . S
Mn6 O8 2.089 . S
Mn6 O11 2.251 . S
Mn6 O12 2.087 . S
O7 Mn1 2.163 1_665 S
O7 C17 1.244 1_564 S
O8 Mn6 2.089 . S
O8 C15 1.256 . S
O9 Mn1 2.160 1_556 S
O9 C18 1.239 1_546 S
O10 Mn3 2.089 . S
O10 C18 1.256 . S
O11 Mn6 2.251 . S
O11 C16 1.241 . S
O12 Mn6 2.087 . S
O12 C17 1.256 . S
C13 O19 1.278 . S
C13 O20 1.241 . S
C14 O0 1.244 1_454 S
C14 O2 1.256 . S
C15 O4 1.239 1_656 S
C15 O8 1.256 . S
C16 O5 1.278 . S
C16 O11 1.241 . S
C17 O7 1.244 1_546 S
C17 O12 1.256 . S
C18 O9 1.239 1_564 S
C18 O10 1.256 . S
O19 Mn1 2.221 1_565 S
O19 Mn3 2.290 . S
O19 C13 1.278 . S
O20 Mn3 2.251 . S
O20 C13 1.241 . S
H21 C29 0.950 . S
H22 C34 0.950 . S
H23 C31 0.950 . S
H24 C33 0.950 . S
H25 C35 0.950 1_455 S
H26 C37 0.950 1_455 S
H27 C39 0.950 . S
H28 C40 0.950 . S
C29 H21 0.950 . S
C29 C30 1.386 . S
C29 C31 1.391 . S
C30 C29 1.386 . S
C30 C34 1.393 1_665 S
C31 H23 0.950 . S
C31 C29 1.391 . S
C31 C32 1.400 . S
C32 C31 1.400 . S
C32 C33 1.398 1_665 S
C32 C38 1.491 . S
C33 H24 0.950 . S
C33 C32 1.398 1_445 S
C33 C34 1.391 . S
C34 H22 0.950 . S
C34 C30 1.393 1_445 S
C34 C33 1.391 . S
C35 H25 0.950 1_655 S
C35 C36 1.386 1_545 S
C35 C37 1.391 . S
C36 C35 1.386 1_565 S
C36 C40 1.393 . S
C37 H26 0.950 1_655 S
C37 C35 1.391 . S
C37 C38 1.400 1_545 S
C38 C32 1.491 . S
C38 C37 1.400 1_565 S
C38 C39 1.398 . S
C39 H27 0.950 . S
C39 C38 1.398 . S
C39 C40 1.391 . S
C40 H28 0.950 . S
C40 C36 1.393 . S
C40 C39 1.391 . S
H41 C49 0.950 . S
H42 C54 0.950 . S
H43 C51 0.950 . S
H44 C53 0.950 . S
H45 C55 0.950 . S
H46 C57 0.950 . S
H47 C59 0.950 . S
H48 C60 0.950 . S
C49 H41 0.950 . S
C49 C50 1.386 . S
C49 C51 1.391 . S
C50 C49 1.386 . S
C50 C54 1.393 1_544 S
C51 H43 0.950 . S
C51 C49 1.391 . S
C51 C52 1.400 . S
C52 C51 1.400 . S
C52 C53 1.398 1_544 S
C52 C58 1.491 . S
C53 H44 0.950 . S
C53 C52 1.398 1_566 S
C53 C54 1.391 . S
C54 H42 0.950 . S
C54 C50 1.393 1_566 S
C54 C53 1.391 . S
C55 H45 0.950 . S
C55 C56 1.384 1_566 S
C55 C57 1.391 . S
C56 C55 1.384 1_544 S
C56 C60 1.394 . S
C57 H46 0.950 . S
C57 C55 1.391 . S
C57 C58 1.400 1_566 S
C58 C52 1.491 . S
C58 C57 1.400 1_544 S
C58 C59 1.398 . S
C59 H47 0.950 . S
C59 C58 1.398 . S
C59 C60 1.391 . S
C60 H48 0.950 . S
C60 C56 1.394 . S
C60 C59 1.391 . S
H61 C69 0.950 . S
H62 C74 0.950 . S
H63 C71 0.950 . S
H64 C73 0.950 . S
H65 C75 0.950 . S
H66 C77 0.950 . S
H67 C79 0.950 . S
H68 C80 0.950 . S
C69 H61 0.950 . S
C69 C70 1.386 1_654 S
C69 C71 1.391 . S
C70 C69 1.386 1_456 S
C70 C74 1.393 . S
C71 H63 0.950 . S
C71 C69 1.391 . S
C71 C72 1.400 1_654 S
C72 C71 1.400 1_456 S
C72 C73 1.398 . S
C72 C78 1.491 . S
C73 H64 0.950 . S
C73 C72 1.398 . S
C73 C74 1.391 . S
C74 H62 0.950 . S
C74 C70 1.393 . S
C74 C73 1.391 . S
C75 H65 0.950 . S
C75 C76 1.387 . S
C75 C77 1.391 . S
C76 C75 1.387 . S
C76 C80 1.391 1_456 S
C77 H66 0.950 . S
C77 C75 1.391 . S
C77 C78 1.400 . S
C78 C72 1.491 . S
C78 C77 1.400 . S
C78 C79 1.398 1_456 S
C79 H67 0.950 . S
C79 C78 1.398 1_654 S
C79 C80 1.391 . S
C80 H68 0.950 . S
C80 C76 1.391 1_654 S
C80 C79 1.391 . S
C30 C13 1.283 1_655 S
C36 C16 1.283 1_565 S
C50 C18 1.440 1_545 S
C56 C17 1.439 1_554 S
C70 C14 1.461 1_556 S
C76 C15 1.465 1_455 S
