# Generated by pormake.
# Topology hex, (8)-cn, num edge types: 1
# Building blocks:
#     Node 0, Type 0, BuildingBlock: VETTIZ_charged_sbu_0, # of connection points: 8
#     Edge 1, Type (0, 0), BuildingBlock: UVAHIK_clean_linker_0, # of connection points: 2
#     Edge 2, Type (0, 0), BuildingBlock: UVAHIK_clean_linker_0, # of connection points: 2
#     Edge 3, Type (0, 0), BuildingBlock: UVAHIK_clean_linker_0, # of connection points: 2
#     Edge 4, Type (0, 0), BuildingBlock: UVAHIK_clean_linker_0, # of connection points: 2
# Relax obj value: 0.198
# Max RMSD: 0.293
# Mean RMSD: 0.293
data_MOF--net-hex--node1-VETTIZ_charged_sbu_0--edge1-UVAHIK_clean_linker_0
_symmetry_space_group_name_H-M    P1
_symmetry_Int_Tables_number       1
_symmetry_cell_setting            triclinic
loop_
_symmetry_equiv_pos_as_xyz
'x, y, z'
_cell_length_a     21.621307
_cell_length_b     20.848003
_cell_length_c     21.891484
_cell_angle_alpha  86.390782
_cell_angle_beta   95.885424
_cell_angle_gamma 122.92602
loop_
_atom_site_label
_atom_site_type_symbol
_atom_site_fract_x
_atom_site_fract_y
_atom_site_fract_z
_atom_type_partial_charge
Fe0 Fe 0.01715 0.92195 0.10724 0.0
O1 O 0.02591 1.00152 0.0503 0.0
Fe2 Fe 0.94485 0.02689 0.04045 0.0
Fe3 Fe 0.04075 1.00407 0.96167 0.0
O4 O 0.02547 1.00659 0.0544 0.0
O5 O 0.95969 0.02945 0.95183 0.0
O6 O 0.96013 0.02437 0.94772 0.0
Fe7 Fe 0.96846 0.10901 0.89488 0.0
C8 C 0.158 0.98892 0.04249 0.0
O9 O 0.00193 0.85048 0.03994 0.0
O10 O 0.96724 0.88676 0.95189 0.0
O11 O 0.8568 0.05538 0.90738 0.0
O12 O 0.86021 0.04395 0.01346 0.0
O13 O 0.86788 0.91289 0.03123 0.0
O14 O 0.90196 0.86151 0.10887 0.0
O15 O 0.04699 1.01042 0.86604 0.0
O16 O 0.96096 0.03936 0.82861 0.0
C17 C 0.85361 0.85771 0.06772 0.0
O18 O 0.98368 0.18048 0.96218 0.0
O19 O 0.01837 0.1442 0.05023 0.0
O20 O 0.12881 0.97558 0.09474 0.0
O21 O 0.12539 0.98701 0.98866 0.0
C22 C 0.97129 0.83673 0.98568 0.0
C23 C 0.00293 1.01387 0.8226 0.0
C24 C 0.13199 0.17325 0.9344 0.0
O25 O 0.11773 0.11807 0.97089 0.0
O26 O 0.08364 0.16945 0.89326 0.0
C27 C 0.82761 0.04204 0.95964 0.0
O28 O 0.93861 0.02054 0.13608 0.0
O29 O 0.02464 0.9916 0.17351 0.0
C30 C 0.01431 0.19423 0.01644 0.0
C31 C 0.98268 0.01709 0.17952 0.0
C32 C 0.08554 0.33456 0.0105 0.0
C33 C 0.03393 0.2677 0.04077 0.0
C34 C 0.08085 0.39902 0.00776 0.0
C35 C 0.93486 0.43929 0.00629 0.0
H36 H 0.09663 0.65058 0.99359 0.0
C37 C 0.90007 0.6964 0.99162 0.0
C38 C 0.95167 0.76326 0.96136 0.0
C39 C 0.90476 0.63194 0.99436 0.0
C40 C 0.05074 0.59167 0.99584 0.0
H41 H 0.9407 0.21768 0.09604 0.0
H42 H 0.93385 0.3312 0.0934 0.0
H43 H 0.1229 0.5528 0.02449 0.0
H44 H 0.0449 0.81328 0.90608 0.0
H45 H 0.05175 0.69976 0.90872 0.0
H46 H 0.86271 0.47816 0.97764 0.0
C47 C 0.97736 0.33358 0.07083 0.0
C48 C 0.06587 0.53563 0.01415 0.0
C49 C 0.98238 0.26915 0.07374 0.0
C50 C 0.00323 0.76182 0.92838 0.0
C51 C 0.00825 0.69738 0.93129 0.0
C52 C 0.91974 0.49533 0.98797 0.0
C53 C 0.02393 0.39772 0.03492 0.0
C54 C 0.00815 0.45863 0.01971 0.0
C55 C 0.96168 0.63325 0.96721 0.0
C56 C 0.97746 0.57233 0.98241 0.0
H57 H 0.12449 0.33416 0.98334 0.0
H58 H 0.11761 0.44705 0.97958 0.0
H59 H 0.88898 0.38038 0.00853 0.0
H60 H 0.86112 0.6968 0.01878 0.0
H61 H 0.86799 0.58391 0.02254 0.0
C62 C 0.7266 0.06066 0.91726 0.0
C63 C 0.75262 0.02577 0.95982 0.0
C64 C 0.6602 0.05452 0.9249 0.0
C65 C 0.54532 0.02491 0.0485 0.0
H66 H 0.39947 0.99744 0.9164 0.0
C67 C 0.25901 0.9703 0.08486 0.0
C68 C 0.23299 1.00519 0.0423 0.0
C69 C 0.32541 0.97645 0.07722 0.0
C70 C 0.44028 1.00606 0.95362 0.0
H71 H 0.72747 0.95177 0.0402 0.0
H72 H 0.6113 0.93984 0.0526 0.0
H73 H 0.50654 0.99538 0.89389 0.0
H74 H 0.25813 0.07919 0.96192 0.0
H75 H 0.3743 0.09112 0.94952 0.0
H76 H 0.47907 0.03558 0.10823 0.0
C77 C 0.64293 0.97385 0.0147 0.0
C78 C 0.50129 1.00471 0.9407 0.0
C79 C 0.70914 0.9804 0.00737 0.0
C80 C 0.27647 0.05056 0.99476 0.0
C81 C 0.34268 0.05711 0.98743 0.0
C82 C 0.48431 0.02625 0.06143 0.0
C83 C 0.61917 1.01299 0.97489 0.0
C84 C 0.5542 1.01394 0.98805 0.0
C85 C 0.36644 0.01797 0.02723 0.0
C86 C 0.4314 0.01703 0.01407 0.0
H87 H 0.75937 0.09602 0.88034 0.0
H88 H 0.64291 0.08525 0.89358 0.0
H89 H 0.58614 0.03353 0.08572 0.0
H90 H 0.22624 0.93494 0.12179 0.0
H91 H 0.3427 0.94571 0.10855 0.0
C92 C 0.22517 0.3136 0.91417 0.0
C93 C 0.20747 0.24375 0.94235 0.0
C94 C 0.29526 0.38028 0.92678 0.0
C95 C 0.48758 0.44725 0.99073 0.0
H96 H 0.50045 0.63569 0.01985 0.0
C97 C 0.76043 0.71736 0.08795 0.0
C98 C 0.77814 0.78722 0.05977 0.0
C99 C 0.69035 0.65068 0.07535 0.0
C100 C 0.49802 0.58371 0.0114 0.0
H101 H 0.25095 0.18948 0.00479 0.0
H102 H 0.37136 0.30429 0.02631 0.0
H103 H 0.38073 0.52158 0.98974 0.0
H104 H 0.73465 0.84148 0.99733 0.0
H105 H 0.61424 0.72667 0.97581 0.0
H106 H 0.60487 0.50938 0.01238 0.0
C107 C 0.33183 0.30807 0.99423 0.0
C108 C 0.42928 0.51829 0.99384 0.0
C109 C 0.26216 0.24199 0.98202 0.0
C110 C 0.72345 0.78897 0.0201 0.0
C111 C 0.65378 0.72289 0.00789 0.0
C112 C 0.55633 0.51268 0.00829 0.0
C113 C 0.34932 0.37834 0.96734 0.0
C114 C 0.42306 0.44909 0.98333 0.0
C115 C 0.63628 0.65262 0.03478 0.0
C116 C 0.56255 0.58187 0.01879 0.0
H117 H 0.18446 0.31716 0.88357 0.0
H118 H 0.30709 0.43336 0.90477 0.0
H119 H 0.48516 0.39527 0.98227 0.0
H120 H 0.80114 0.7138 0.11855 0.0
H121 H 0.67852 0.5976 0.09735 0.0
C122 C 0.06902 0.02423 0.73225 0.0
C123 C 0.00263 0.99291 0.75994 0.0
C124 C 0.06791 0.02306 0.66833 0.0
C125 C 0.94557 0.9426 0.52528 0.0
H126 H 0.07693 0.14524 0.45893 0.0
C127 C 0.91659 1.00673 0.26987 0.0
C128 C 0.98297 0.03805 0.24218 0.0
C129 C 0.9177 1.0079 0.33379 0.0
C130 C 0.04004 0.08836 0.47684 0.0
H131 H 0.88327 0.92949 0.7446 0.0
H132 H 0.8811 0.92641 0.63359 0.0
H133 H 0.08602 0.12207 0.56912 0.0
H134 H 0.10234 0.10147 0.25752 0.0
H135 H 0.10451 0.10455 0.36853 0.0
H136 H 0.89959 0.90889 0.433 0.0
C137 C 0.93393 0.95221 0.66042 0.0
C138 C 0.0458 0.07485 0.53974 0.0
C139 C 0.93512 0.95405 0.72392 0.0
C140 C 0.05048 0.07691 0.2782 0.0
C141 C 0.05167 0.07875 0.3417 0.0
C142 C 0.9398 0.95611 0.46239 0.0
C143 C 0.00036 0.98983 0.63181 0.0
C144 C -0.00138 1.00184 0.56456 0.0
C145 C 0.98524 0.04113 0.37031 0.0
C146 C 0.98698 0.02912 0.43757 0.0
H147 H 0.12167 0.05493 0.75932 0.0
H148 H 0.11986 0.05149 0.64729 0.0
H149 H 0.90868 0.88572 0.54319 0.0
H150 H 0.86394 0.97603 0.24281 0.0
H151 H 0.86574 0.97947 0.35484 0.0
loop_
_geom_bond_atom_site_label_1
_geom_bond_atom_site_label_2
_geom_bond_distance
_geom_bond_site_symmetry_2
_ccdc_geom_bond_type
Fe0 O1 1.886 1_554 S
Fe0 O4 1.715 1_455 S
Fe0 O9 2.077 1_455 S
Fe0 O14 1.935 1_455 S
Fe0 O20 2.077 . S
Fe0 O29 1.935 . S
O1 Fe0 1.886 1_556 S
O1 Fe3 1.715 1_565 S
Fe2 O4 1.886 . S
Fe2 O5 1.715 1_565 S
Fe2 O12 1.935 . S
Fe2 O13 2.077 . S
Fe2 O19 1.935 1_565 S
Fe2 O28 2.077 1_565 S
Fe3 O1 1.715 1_545 S
Fe3 O6 1.886 . S
Fe3 O10 1.935 1_545 S
Fe3 O15 2.077 1_545 S
Fe3 O21 1.935 . S
Fe3 O25 2.077 . S
O4 Fe0 1.715 1_655 S
O4 Fe2 1.886 . S
O5 Fe2 1.715 1_545 S
O5 Fe7 1.886 1_554 S
O6 Fe3 1.886 . S
O6 Fe7 1.715 1_455 S
Fe7 O5 1.886 1_556 S
Fe7 O6 1.715 1_655 S
Fe7 O11 2.077 . S
Fe7 O16 1.935 . S
Fe7 O18 2.077 1_655 S
Fe7 O26 1.935 1_655 S
C8 O20 1.381 . S
C8 O21 1.421 1_564 S
O9 Fe0 2.077 1_655 S
O9 C22 1.381 1_654 S
O10 Fe3 1.935 1_565 S
O10 C22 1.421 . S
O11 Fe7 2.077 . S
O11 C27 1.381 . S
O12 Fe2 1.935 . S
O12 C27 1.421 1_564 S
O13 Fe2 2.077 . S
O13 C17 1.381 . S
O14 Fe0 1.935 1_655 S
O14 C17 1.421 . S
O15 Fe3 2.077 1_565 S
O15 C23 1.381 1_565 S
O16 Fe7 1.935 . S
O16 C23 1.421 1_655 S
C17 O13 1.381 . S
C17 O14 1.421 . S
O18 Fe7 2.077 1_455 S
O18 C30 1.381 1_456 S
O19 Fe2 1.935 1_545 S
O19 C30 1.421 . S
O20 Fe0 2.077 . S
O20 C8 1.381 . S
O21 Fe3 1.935 . S
O21 C8 1.421 1_546 S
C22 O9 1.381 1_456 S
C22 O10 1.421 . S
C23 O15 1.381 1_545 S
C23 O16 1.421 1_455 S
C24 O25 1.381 . S
C24 O26 1.421 . S
O25 Fe3 2.077 . S
O25 C24 1.381 . S
O26 Fe7 1.935 1_455 S
O26 C24 1.421 . S
C27 O11 1.381 . S
C27 O12 1.421 1_546 S
O28 Fe2 2.077 1_545 S
O28 C31 1.381 1_545 S
O29 Fe0 1.935 . S
O29 C31 1.421 1_455 S
C30 O18 1.381 1_654 S
C30 O19 1.421 . S
C31 O28 1.381 1_565 S
C31 O29 1.421 1_655 S
C32 C33 1.348 1_455 S
C32 C34 1.327 . S
C32 H57 0.950 . S
C33 C32 1.348 1_655 S
C33 C49 1.351 . S
C34 C32 1.327 . S
C34 C53 1.429 1_455 S
C34 H58 0.950 . S
C35 C52 1.574 . S
C35 C54 1.369 1_656 S
C35 H59 0.949 . S
H36 C40 0.949 . S
C37 C38 1.347 1_655 S
C37 C39 1.327 . S
C37 H60 0.950 . S
C38 C37 1.347 1_455 S
C38 C50 1.354 . S
C39 C37 1.327 . S
C39 C55 1.426 1_655 S
C39 H61 0.950 . S
C40 H36 0.949 . S
C40 C48 1.574 . S
C40 C56 1.369 1_554 S
H41 C49 0.950 . S
H42 C47 0.950 1_556 S
H43 C48 0.949 . S
H44 C50 0.957 . S
H45 C51 0.950 1_554 S
H46 C52 0.949 . S
C47 H42 0.950 1_554 S
C47 C49 1.327 . S
C47 C53 1.428 . S
C48 C40 1.574 . S
C48 H43 0.949 . S
C48 C54 1.368 . S
C49 C33 1.351 . S
C49 H41 0.950 . S
C49 C47 1.327 . S
C50 C38 1.354 . S
C50 H44 0.957 . S
C50 C51 1.327 . S
C51 H45 0.950 1_556 S
C51 C50 1.327 . S
C51 C55 1.429 . S
C52 C35 1.574 . S
C52 H46 0.949 . S
C52 C56 1.368 1_655 S
C53 C34 1.429 1_655 S
C53 C47 1.428 . S
C53 C54 1.522 1_655 S
C54 C35 1.369 1_454 S
C54 C48 1.368 . S
C54 C53 1.522 1_455 S
C55 C39 1.426 1_455 S
C55 C51 1.429 . S
C55 C56 1.524 . S
C56 C40 1.369 1_556 S
C56 C52 1.368 1_455 S
C56 C55 1.524 . S
H57 C32 0.950 . S
H58 C34 0.950 . S
H59 C35 0.949 . S
H60 C37 0.950 . S
H61 C39 0.950 . S
C62 C63 1.355 . S
C62 C64 1.327 . S
C62 H87 0.950 . S
C63 C62 1.355 . S
C63 C79 1.346 1_545 S
C64 C62 1.327 . S
C64 C83 1.430 . S
C64 H88 0.950 . S
C65 C82 1.574 . S
C65 C84 1.368 1_564 S
C65 H89 0.949 . S
H66 C70 0.949 . S
C67 C68 1.351 . S
C67 C69 1.327 . S
C67 H90 0.950 . S
C68 C67 1.351 . S
C68 C80 1.348 1_565 S
C69 C67 1.327 . S
C69 C85 1.428 . S
C69 H91 0.950 . S
C70 H66 0.949 . S
C70 C78 1.574 . S
C70 C86 1.368 1_556 S
H71 C79 0.950 . S
H72 C77 0.950 1_554 S
H73 C78 0.949 . S
H74 C80 0.950 . S
H75 C81 0.950 1_556 S
H76 C82 0.949 . S
C77 H72 0.950 1_556 S
C77 C79 1.327 . S
C77 C83 1.426 1_565 S
C78 C70 1.574 . S
C78 H73 0.949 . S
C78 C84 1.370 . S
C79 C63 1.346 1_565 S
C79 H71 0.950 . S
C79 C77 1.327 . S
C80 C68 1.348 1_545 S
C80 H74 0.950 . S
C80 C81 1.327 . S
C81 H75 0.950 1_554 S
C81 C80 1.327 . S
C81 C85 1.429 1_545 S
C82 C65 1.574 . S
C82 H76 0.949 . S
C82 C86 1.370 1_565 S
C83 C64 1.430 . S
C83 C77 1.426 1_545 S
C83 C84 1.524 . S
C84 C65 1.368 1_546 S
C84 C78 1.370 . S
C84 C83 1.524 . S
C85 C69 1.428 . S
C85 C81 1.429 1_565 S
C85 C86 1.522 1_565 S
C86 C70 1.368 1_554 S
C86 C82 1.370 1_545 S
C86 C85 1.522 1_545 S
H87 C62 0.950 . S
H88 C64 0.950 . S
H89 C65 0.949 . S
H90 C67 0.950 . S
H91 C69 0.950 . S
C92 C93 1.349 . S
C92 C94 1.327 . S
C92 H117 0.950 . S
C93 C92 1.349 . S
C93 C109 1.349 . S
C94 C92 1.327 . S
C94 C113 1.429 . S
C94 H118 0.950 . S
C95 C112 1.574 . S
C95 C114 1.368 1_554 S
C95 H119 0.949 . S
H96 C100 0.949 . S
C97 C98 1.349 . S
C97 C99 1.327 . S
C97 H120 0.950 . S
C98 C97 1.349 . S
C98 C110 1.349 . S
C99 C97 1.327 . S
C99 C115 1.429 . S
C99 H121 0.950 . S
C100 H96 0.949 . S
C100 C108 1.574 . S
C100 C116 1.368 1_556 S
H101 C109 0.958 . S
H102 C107 0.950 1_554 S
H103 C108 0.949 . S
H104 C110 0.950 . S
H105 C111 0.950 1_556 S
H106 C112 0.949 . S
C107 H102 0.950 1_556 S
C107 C109 1.327 . S
C107 C113 1.429 . S
C108 C100 1.574 . S
C108 H103 0.949 . S
C108 C114 1.368 . S
C109 C93 1.349 . S
C109 H101 0.958 . S
C109 C107 1.327 . S
C110 C98 1.349 . S
C110 H104 0.950 . S
C110 C111 1.327 . S
C111 H105 0.950 1_554 S
C111 C110 1.327 . S
C111 C115 1.429 . S
C112 C95 1.574 . S
C112 H106 0.949 . S
C112 C116 1.368 . S
C113 C94 1.429 . S
C113 C107 1.429 . S
C113 C114 1.523 . S
C114 C95 1.368 1_556 S
C114 C108 1.368 . S
C114 C113 1.523 . S
C115 C99 1.429 . S
C115 C111 1.429 . S
C115 C116 1.523 . S
C116 C100 1.368 1_554 S
C116 C112 1.368 . S
C116 C115 1.523 . S
H117 C92 0.950 . S
H118 C94 0.950 . S
H119 C95 0.949 . S
H120 C97 0.950 . S
H121 C99 0.950 . S
C122 C123 1.354 . S
C122 C124 1.327 . S
C122 H147 0.950 . S
C123 C122 1.354 . S
C123 C139 1.344 1_445 S
C124 C122 1.327 . S
C124 C143 1.431 . S
C124 H148 0.950 . S
C125 C142 1.574 . S
C125 C144 1.367 1_665 S
C125 H149 0.949 . S
H126 C130 0.949 . S
C127 C128 1.350 . S
C127 C129 1.327 . S
C127 H150 0.950 . S
C128 C127 1.350 . S
C128 C140 1.348 1_665 S
C129 C127 1.327 . S
C129 C145 1.428 . S
C129 H151 0.950 . S
C130 H126 0.949 . S
C130 C138 1.574 . S
C130 C146 1.367 . S
H131 C139 0.950 . S
H132 C137 0.950 . S
H133 C138 0.949 . S
H134 C140 0.950 . S
H135 C141 0.950 . S
H136 C142 0.949 . S
C137 H132 0.950 . S
C137 C139 1.327 . S
C137 C143 1.426 1_665 S
C138 C130 1.574 . S
C138 H133 0.949 . S
C138 C144 1.370 . S
C139 C123 1.344 1_665 S
C139 H131 0.950 . S
C139 C137 1.327 . S
C140 C128 1.348 1_445 S
C140 H134 0.950 . S
C140 C141 1.327 . S
C141 H135 0.950 . S
C141 C140 1.327 . S
C141 C145 1.430 1_445 S
C142 C125 1.574 . S
C142 H136 0.949 . S
C142 C146 1.370 1_665 S
C143 C124 1.431 . S
C143 C137 1.426 1_445 S
C143 C144 1.523 . S
C144 C125 1.367 1_445 S
C144 C138 1.370 . S
C144 C143 1.523 . S
C145 C129 1.428 . S
C145 C141 1.430 1_665 S
C145 C146 1.523 1_665 S
C146 C130 1.367 . S
C146 C142 1.370 1_445 S
C146 C145 1.523 1_445 S
H147 C122 0.950 . S
H148 C124 0.950 . S
H149 C125 0.949 . S
H150 C127 0.950 . S
H151 C129 0.950 . S
C33 C30 1.368 . S
C38 C22 1.367 . S
C63 C27 1.329 . S
C68 C8 1.330 . S
C93 C24 1.414 . S
C98 C17 1.414 . S
C123 C23 1.452 . S
C128 C31 1.451 . S
