# Generated by pormake.
# Topology umc, (4)-cn, num edge types: 1
# Building blocks:
#     Node 0, Type 0, BuildingBlock: QUQFOY_clean_sbu_1, # of connection points: 4
#     Node 1, Type 0, BuildingBlock: QUQFOY_clean_sbu_1, # of connection points: 4
#     Node 2, Type 0, BuildingBlock: QUQFOY_clean_sbu_1, # of connection points: 4
#     Node 3, Type 0, BuildingBlock: QUQFOY_clean_sbu_1, # of connection points: 4
#     Node 4, Type 0, BuildingBlock: QUQFOY_clean_sbu_1, # of connection points: 4
#     Node 5, Type 0, BuildingBlock: QUQFOY_clean_sbu_1, # of connection points: 4
#     Node 6, Type 0, BuildingBlock: QUQFOY_clean_sbu_1, # of connection points: 4
#     Node 7, Type 0, BuildingBlock: QUQFOY_clean_sbu_1, # of connection points: 4
#     Node 8, Type 0, BuildingBlock: QUQFOY_clean_sbu_1, # of connection points: 4
#     Node 9, Type 0, BuildingBlock: QUQFOY_clean_sbu_1, # of connection points: 4
#     Node 10, Type 0, BuildingBlock: QUQFOY_clean_sbu_1, # of connection points: 4
#     Node 11, Type 0, BuildingBlock: QUQFOY_clean_sbu_1, # of connection points: 4
#     Node 12, Type 0, BuildingBlock: QUQFOY_clean_sbu_1, # of connection points: 4
#     Node 13, Type 0, BuildingBlock: QUQFOY_clean_sbu_1, # of connection points: 4
#     Node 14, Type 0, BuildingBlock: QUQFOY_clean_sbu_1, # of connection points: 4
#     Node 15, Type 0, BuildingBlock: QUQFOY_clean_sbu_1, # of connection points: 4
#     Edge 16, Type (0, 0), None
#     Edge 17, Type (0, 0), None
#     Edge 18, Type (0, 0), None
#     Edge 19, Type (0, 0), None
#     Edge 20, Type (0, 0), None
#     Edge 21, Type (0, 0), None
#     Edge 22, Type (0, 0), None
#     Edge 23, Type (0, 0), None
#     Edge 24, Type (0, 0), None
#     Edge 25, Type (0, 0), None
#     Edge 26, Type (0, 0), None
#     Edge 27, Type (0, 0), None
#     Edge 28, Type (0, 0), None
#     Edge 29, Type (0, 0), None
#     Edge 30, Type (0, 0), None
#     Edge 31, Type (0, 0), None
#     Edge 32, Type (0, 0), None
#     Edge 33, Type (0, 0), None
#     Edge 34, Type (0, 0), None
#     Edge 35, Type (0, 0), None
#     Edge 36, Type (0, 0), None
#     Edge 37, Type (0, 0), None
#     Edge 38, Type (0, 0), None
#     Edge 39, Type (0, 0), None
#     Edge 40, Type (0, 0), None
#     Edge 41, Type (0, 0), None
#     Edge 42, Type (0, 0), None
#     Edge 43, Type (0, 0), None
#     Edge 44, Type (0, 0), None
#     Edge 45, Type (0, 0), None
#     Edge 46, Type (0, 0), None
#     Edge 47, Type (0, 0), None
# Relax obj value: 0.042
# Max RMSD: 0.109
# Mean RMSD: 0.109
data_MOF--net-umc--node1-QUQFOY_clean_sbu_1--edge1-none
_symmetry_space_group_name_H-M    P1
_symmetry_Int_Tables_number       1
_symmetry_cell_setting            triclinic
loop_
_symmetry_equiv_pos_as_xyz
'x, y, z'
_cell_length_a     16.050889
_cell_length_b     20.36213
_cell_length_c     25.015818
_cell_angle_alpha  89.99954
_cell_angle_beta   90.000019
_cell_angle_gamma 90.000172
loop_
_atom_site_label
_atom_site_type_symbol
_atom_site_fract_x
_atom_site_fract_y
_atom_site_fract_z
_atom_type_partial_charge
O0 O 0.34605 0.11375 0.49868 0.0
Cd1 Cd 0.36795 0.13853 0.42106 0.0
Cd2 Cd 0.31358 1.01388 0.41335 0.0
O3 O 0.27069 1.0232 0.49238 0.0
O4 O 0.38412 0.2368 0.42162 0.0
O5 O 0.27152 0.18967 0.38877 0.0
C6 C 0.31055 0.24241 0.40151 0.0
C7 C 0.25255 1.02263 0.32933 0.0
C8 C 0.3029 0.06885 0.52057 0.0
C9 C 0.49529 0.03495 0.39514 0.0
O10 O 0.43925 0.99358 0.40771 0.0
O11 O 0.47762 0.096 0.39127 0.0
O12 O 0.25359 0.96662 0.35388 0.0
O13 O 0.27643 0.07362 0.35536 0.0
O14 O 0.7324 0.93462 0.49868 0.0
Cd15 Cd 0.7105 0.90984 0.42106 0.0
Cd16 Cd 0.76487 0.03449 0.41335 0.0
O17 O 0.80776 0.02517 0.49238 0.0
O18 O 0.69432 0.81157 0.42162 0.0
O19 O 0.80692 0.8587 0.38877 0.0
C20 C 0.76789 0.80596 0.40151 0.0
C21 C 0.8259 0.02574 0.32933 0.0
C22 C 0.77554 0.97952 0.52057 0.0
C23 C 0.58317 1.01342 0.39513 0.0
O24 O 0.6392 0.05479 0.40771 0.0
O25 O 0.60083 0.95237 0.39127 0.0
O26 O 0.82487 0.08175 0.35388 0.0
O27 O 0.80202 0.97475 0.35536 0.0
O28 O 0.34604 0.93462 0.10138 0.0
Cd29 Cd 0.36794 0.90984 0.179 0.0
Cd30 Cd 0.31358 0.03449 0.18672 0.0
O31 O 0.27069 0.02518 0.10768 0.0
O32 O 0.38412 0.81157 0.17844 0.0
O33 O 0.27152 0.8587 0.21129 0.0
C34 C 0.31055 0.80596 0.19855 0.0
C35 C 0.25256 0.02575 0.27071 0.0
C36 C 0.3029 0.97953 0.07949 0.0
C37 C 0.49528 1.01342 0.20493 0.0
O38 O 0.43925 0.05479 0.19236 0.0
O39 O 0.47762 0.95236 0.20879 0.0
O40 O 0.25359 0.08177 0.24618 0.0
O41 O 0.27642 0.97475 0.2447 0.0
O42 O 0.7324 0.11374 0.10139 0.0
Cd43 Cd 0.7105 0.13852 0.179 0.0
Cd44 Cd 0.76487 1.01387 0.18672 0.0
O45 O 0.80775 1.02319 0.10768 0.0
O46 O 0.69432 0.23679 0.17844 0.0
O47 O 0.80692 0.18967 0.21129 0.0
C48 C 0.7679 0.2424 0.19855 0.0
C49 C 0.82589 1.02262 0.27071 0.0
C50 C 0.77555 0.06884 0.07949 0.0
C51 C 0.58317 0.03495 0.20493 0.0
O52 O 0.6392 0.99357 0.19236 0.0
O53 O 0.60083 0.096 0.20879 0.0
O54 O 0.82486 0.9666 0.24618 0.0
O55 O 0.80202 0.07361 0.2447 0.0
O56 O 0.7324 0.93461 0.60138 0.0
Cd57 Cd 0.7105 0.90984 0.679 0.0
Cd58 Cd 0.76487 0.03449 0.68671 0.0
O59 O 0.80776 0.02517 0.60768 0.0
O60 O 0.69432 0.81157 0.67845 0.0
O61 O 0.80693 0.8587 0.71129 0.0
C62 C 0.7679 0.80596 0.69856 0.0
C63 C 0.82589 0.02574 0.77073 0.0
C64 C 0.77555 0.97951 0.5795 0.0
C65 C 0.58316 1.01342 0.70493 0.0
O66 O 0.6392 0.05479 0.69235 0.0
O67 O 0.60083 0.95236 0.70879 0.0
O68 O 0.82486 0.08175 0.74618 0.0
O69 O 0.80202 0.97475 0.7447 0.0
O70 O 0.34605 0.11375 0.60139 0.0
Cd71 Cd 0.36795 0.13853 0.679 0.0
Cd72 Cd 0.31357 1.01387 0.68672 0.0
O73 O 0.27069 1.0232 0.60768 0.0
O74 O 0.38413 0.2368 0.67845 0.0
O75 O 0.27152 0.18967 0.7113 0.0
C76 C 0.31055 0.24241 0.69856 0.0
C77 C 0.25255 1.02263 0.77073 0.0
C78 C 0.3029 0.06885 0.5795 0.0
C79 C 0.49528 0.03495 0.70493 0.0
O80 O 0.43924 0.99357 0.69236 0.0
O81 O 0.47762 0.096 0.70879 0.0
O82 O 0.25358 0.96662 0.74618 0.0
O83 O 0.27643 0.07361 0.7447 0.0
O84 O 0.7324 0.11375 0.99868 0.0
Cd85 Cd 0.7105 0.13852 0.92106 0.0
Cd86 Cd 0.76487 1.01387 0.91335 0.0
O87 O 0.80775 1.02319 0.99238 0.0
O88 O 0.69432 0.2368 0.92162 0.0
O89 O 0.80693 0.18967 0.88877 0.0
C90 C 0.7679 0.24241 0.90151 0.0
C91 C 0.82588 1.02262 0.82935 0.0
C92 C 0.77555 0.06884 1.02057 0.0
C93 C 0.58316 0.03495 0.89514 0.0
O94 O 0.6392 0.99358 0.90771 0.0
O95 O 0.60083 0.096 0.89127 0.0
O96 O 0.82485 0.9666 0.85389 0.0
O97 O 0.80202 0.07361 0.85536 0.0
O98 O 0.34604 0.93462 0.99868 0.0
Cd99 Cd 0.36795 0.90984 0.92106 0.0
Cd100 Cd 0.31357 0.0345 0.91335 0.0
O101 O 0.27069 0.02518 0.99238 0.0
O102 O 0.38412 0.81157 0.92162 0.0
O103 O 0.27152 0.8587 0.88877 0.0
C104 C 0.31055 0.80596 0.90151 0.0
C105 C 0.25256 0.02575 0.82935 0.0
C106 C 0.3029 0.97953 1.02057 0.0
C107 C 0.49528 1.01342 0.89513 0.0
O108 O 0.43924 0.0548 0.9077 0.0
O109 O 0.47762 0.95237 0.89127 0.0
O110 O 0.25358 0.08177 0.85388 0.0
O111 O 0.27642 0.97476 0.85537 0.0
O112 O 0.84605 0.61375 0.49868 0.0
Cd113 Cd 0.86795 0.63853 0.42106 0.0
Cd114 Cd 0.81358 0.51388 0.41335 0.0
O115 O 0.77069 0.5232 0.49238 0.0
O116 O 0.88412 0.7368 0.42162 0.0
O117 O 0.77152 0.68966 0.38877 0.0
C118 C 0.81054 0.7424 0.40151 0.0
C119 C 0.75256 0.52263 0.32933 0.0
C120 C 0.8029 0.56885 0.52057 0.0
C121 C 0.99529 0.53495 0.39514 0.0
O122 O 0.93925 0.49358 0.40771 0.0
O123 O 0.97762 0.596 0.39127 0.0
O124 O 0.75359 0.46662 0.35388 0.0
O125 O 0.77643 0.57362 0.35536 0.0
O126 O 0.23239 0.43461 0.49868 0.0
Cd127 Cd 0.21049 0.40984 0.42106 0.0
Cd128 Cd 0.26487 0.53449 0.41335 0.0
O129 O 0.30776 0.52517 0.49238 0.0
O130 O 0.19432 0.31157 0.42162 0.0
O131 O 0.30693 0.35871 0.38877 0.0
C132 C 0.2679 0.30597 0.40151 0.0
C133 C 0.3259 0.52574 0.32933 0.0
C134 C 0.27554 0.47951 0.52057 0.0
C135 C 0.08317 0.51342 0.39513 0.0
O136 O 0.1392 0.55479 0.40771 0.0
O137 O 0.10083 0.45237 0.39127 0.0
O138 O 0.32487 0.58175 0.35388 0.0
O139 O 0.30202 0.47475 0.35536 0.0
O140 O 0.84605 0.43462 0.10138 0.0
Cd141 Cd 0.86795 0.40984 0.179 0.0
Cd142 Cd 0.81358 0.53449 0.18672 0.0
O143 O 0.77069 0.52518 0.10768 0.0
O144 O 0.88412 0.31157 0.17844 0.0
O145 O 0.77151 0.3587 0.21129 0.0
C146 C 0.81054 0.30597 0.19855 0.0
C147 C 0.75257 0.52575 0.27071 0.0
C148 C 0.8029 0.47952 0.07949 0.0
C149 C 0.99529 0.51342 0.20493 0.0
O150 O 0.93925 0.55479 0.19236 0.0
O151 O 0.97762 0.45236 0.20879 0.0
O152 O 0.75359 0.58177 0.24618 0.0
O153 O 0.77643 0.47475 0.2447 0.0
O154 O 0.2324 0.61375 0.10139 0.0
Cd155 Cd 0.2105 0.63853 0.179 0.0
Cd156 Cd 0.26487 0.51387 0.18672 0.0
O157 O 0.30775 0.52319 0.10768 0.0
O158 O 0.19432 0.7368 0.17844 0.0
O159 O 0.30693 0.68966 0.21129 0.0
C160 C 0.2679 0.7424 0.19855 0.0
C161 C 0.32589 0.52262 0.27071 0.0
C162 C 0.27554 0.56884 0.07949 0.0
C163 C 0.08317 0.53495 0.20493 0.0
O164 O 0.1392 0.49357 0.19236 0.0
O165 O 0.10083 0.596 0.20879 0.0
O166 O 0.32486 0.4666 0.24618 0.0
O167 O 0.30202 0.57361 0.2447 0.0
O168 O 0.23239 0.43461 0.60138 0.0
Cd169 Cd 0.2105 0.40984 0.679 0.0
Cd170 Cd 0.26487 0.53449 0.68671 0.0
O171 O 0.30776 0.52517 0.60768 0.0
O172 O 0.19432 0.31156 0.67845 0.0
O173 O 0.30693 0.35871 0.71129 0.0
C174 C 0.26791 0.30597 0.69855 0.0
C175 C 0.32589 0.52574 0.77073 0.0
C176 C 0.27554 0.47951 0.5795 0.0
C177 C 0.08316 0.51342 0.70493 0.0
O178 O 0.1392 0.55479 0.69235 0.0
O179 O 0.10083 0.45236 0.70879 0.0
O180 O 0.32486 0.58175 0.74618 0.0
O181 O 0.30201 0.47475 0.7447 0.0
O182 O 0.84605 0.61376 0.60139 0.0
Cd183 Cd 0.86795 0.63853 0.679 0.0
Cd184 Cd 0.81357 0.51387 0.68672 0.0
O185 O 0.77069 0.5232 0.60768 0.0
O186 O 0.88412 0.7368 0.67845 0.0
O187 O 0.77152 0.68966 0.7113 0.0
C188 C 0.81054 0.7424 0.69855 0.0
C189 C 0.75255 0.52263 0.77073 0.0
C190 C 0.8029 0.56885 0.5795 0.0
C191 C 0.99528 0.53495 0.70493 0.0
O192 O 0.93924 0.49357 0.69236 0.0
O193 O 0.97762 0.596 0.70879 0.0
O194 O 0.75358 0.46662 0.74618 0.0
O195 O 0.77643 0.57361 0.7447 0.0
O196 O 0.2324 0.61375 0.99868 0.0
Cd197 Cd 0.2105 0.63853 0.92106 0.0
Cd198 Cd 0.26487 0.51387 0.91335 0.0
O199 O 0.30775 0.52319 0.99238 0.0
O200 O 0.19433 0.7368 0.92162 0.0
O201 O 0.30693 0.68966 0.88877 0.0
C202 C 0.26791 0.7424 0.90151 0.0
C203 C 0.32588 0.52262 0.82935 0.0
C204 C 0.27555 0.56884 1.02057 0.0
C205 C 0.08316 0.53495 0.89514 0.0
O206 O 0.13919 0.49358 0.90771 0.0
O207 O 0.10083 0.596 0.89127 0.0
O208 O 0.32485 0.4666 0.85389 0.0
O209 O 0.30202 0.57361 0.85536 0.0
O210 O 0.84604 0.43462 0.99868 0.0
Cd211 Cd 0.86795 0.40984 0.92106 0.0
Cd212 Cd 0.81357 0.5345 0.91335 0.0
O213 O 0.77069 0.52518 0.99238 0.0
O214 O 0.88412 0.31157 0.92162 0.0
O215 O 0.77152 0.3587 0.88877 0.0
C216 C 0.81054 0.30597 0.90151 0.0
C217 C 0.75256 0.52575 0.82935 0.0
C218 C 0.8029 0.47952 1.02057 0.0
C219 C 0.99528 0.51342 0.89513 0.0
O220 O 0.93924 0.55479 0.9077 0.0
O221 O 0.97762 0.45237 0.89127 0.0
O222 O 0.75358 0.58177 0.85388 0.0
O223 O 0.77642 0.47476 0.85537 0.0
loop_
_geom_bond_atom_site_label_1
_geom_bond_atom_site_label_2
_geom_bond_distance
_geom_bond_site_symmetry_2
_ccdc_geom_bond_type
O0 Cd1 2.223 . S
O0 C8 1.315 . S
Cd1 O0 2.223 . S
Cd1 O4 2.297 . S
Cd1 O5 2.439 . S
Cd1 O11 2.240 . S
Cd2 O3 2.240 1_565 S
Cd2 O10 2.223 . S
Cd2 O12 2.297 . S
Cd2 O13 2.439 1_565 S
O3 Cd2 2.240 1_545 S
O3 C8 1.279 . S
O4 Cd1 2.297 . S
O4 C6 1.247 . S
O5 Cd1 2.439 . S
O5 C6 1.208 . S
C6 O4 1.247 . S
C6 O5 1.208 . S
C7 O12 1.247 . S
C7 O13 1.208 1_565 S
C8 O0 1.315 . S
C8 O3 1.279 . S
C9 O10 1.307 1_545 S
C9 O11 1.288 . S
O10 Cd2 2.223 . S
O10 C9 1.307 1_565 S
O11 Cd1 2.240 . S
O11 C9 1.288 . S
O12 Cd2 2.297 . S
O12 C7 1.247 . S
O13 Cd2 2.439 1_545 S
O13 C7 1.208 1_545 S
O14 Cd15 2.223 . S
O14 C22 1.315 . S
Cd15 O14 2.223 . S
Cd15 O18 2.297 . S
Cd15 O19 2.439 . S
Cd15 O25 2.240 . S
Cd16 O17 2.240 1_545 S
Cd16 O24 2.223 . S
Cd16 O26 2.297 . S
Cd16 O27 2.439 1_545 S
O17 Cd16 2.240 1_565 S
O17 C22 1.279 . S
O18 Cd15 2.297 . S
O18 C20 1.247 . S
O19 Cd15 2.439 . S
O19 C20 1.208 . S
C20 O18 1.247 . S
C20 O19 1.208 . S
C21 O26 1.247 . S
C21 O27 1.208 1_545 S
C22 O14 1.315 . S
C22 O17 1.279 . S
C23 O24 1.307 1_565 S
C23 O25 1.288 . S
O24 Cd16 2.223 . S
O24 C23 1.307 1_545 S
O25 Cd15 2.240 . S
O25 C23 1.288 . S
O26 Cd16 2.297 . S
O26 C21 1.247 . S
O27 Cd16 2.439 1_565 S
O27 C21 1.208 1_565 S
O28 Cd29 2.223 . S
O28 C36 1.315 . S
Cd29 O28 2.223 . S
Cd29 O32 2.297 . S
Cd29 O33 2.439 . S
Cd29 O39 2.240 . S
Cd30 O31 2.240 1_545 S
Cd30 O38 2.223 . S
Cd30 O40 2.297 . S
Cd30 O41 2.439 1_545 S
O31 Cd30 2.240 1_565 S
O31 C36 1.279 . S
O32 Cd29 2.297 . S
O32 C34 1.247 . S
O33 Cd29 2.439 . S
O33 C34 1.208 . S
C34 O32 1.247 . S
C34 O33 1.208 . S
C35 O40 1.247 . S
C35 O41 1.208 1_545 S
C36 O28 1.315 . S
C36 O31 1.279 . S
C37 O38 1.307 1_565 S
C37 O39 1.288 . S
O38 Cd30 2.223 . S
O38 C37 1.307 1_545 S
O39 Cd29 2.240 . S
O39 C37 1.288 . S
O40 Cd30 2.297 . S
O40 C35 1.247 . S
O41 Cd30 2.439 1_565 S
O41 C35 1.208 1_565 S
O42 Cd43 2.223 . S
O42 C50 1.315 . S
Cd43 O42 2.223 . S
Cd43 O46 2.297 . S
Cd43 O47 2.439 . S
Cd43 O53 2.240 . S
Cd44 O45 2.240 1_565 S
Cd44 O52 2.223 . S
Cd44 O54 2.297 . S
Cd44 O55 2.439 1_565 S
O45 Cd44 2.240 1_545 S
O45 C50 1.279 . S
O46 Cd43 2.297 . S
O46 C48 1.247 . S
O47 Cd43 2.439 . S
O47 C48 1.208 . S
C48 O46 1.247 . S
C48 O47 1.208 . S
C49 O54 1.247 . S
C49 O55 1.208 1_565 S
C50 O42 1.315 . S
C50 O45 1.279 . S
C51 O52 1.307 1_545 S
C51 O53 1.288 . S
O52 Cd44 2.223 . S
O52 C51 1.307 1_565 S
O53 Cd43 2.240 . S
O53 C51 1.288 . S
O54 Cd44 2.297 . S
O54 C49 1.247 . S
O55 Cd44 2.439 1_545 S
O55 C49 1.208 1_545 S
O56 Cd57 2.223 . S
O56 C64 1.315 . S
Cd57 O56 2.223 . S
Cd57 O60 2.297 . S
Cd57 O61 2.439 . S
Cd57 O67 2.240 . S
Cd58 O59 2.240 1_545 S
Cd58 O66 2.223 . S
Cd58 O68 2.297 . S
Cd58 O69 2.439 1_545 S
O59 Cd58 2.240 1_565 S
O59 C64 1.279 . S
O60 Cd57 2.297 . S
O60 C62 1.247 . S
O61 Cd57 2.439 . S
O61 C62 1.208 . S
C62 O60 1.247 . S
C62 O61 1.208 . S
C63 O68 1.247 . S
C63 O69 1.208 1_545 S
C64 O56 1.315 . S
C64 O59 1.279 . S
C65 O66 1.307 1_565 S
C65 O67 1.288 . S
O66 Cd58 2.223 . S
O66 C65 1.307 1_545 S
O67 Cd57 2.240 . S
O67 C65 1.288 . S
O68 Cd58 2.297 . S
O68 C63 1.247 . S
O69 Cd58 2.439 1_565 S
O69 C63 1.208 1_565 S
O70 Cd71 2.223 . S
O70 C78 1.315 . S
Cd71 O70 2.223 . S
Cd71 O74 2.297 . S
Cd71 O75 2.439 . S
Cd71 O81 2.240 . S
Cd72 O73 2.240 1_565 S
Cd72 O80 2.223 . S
Cd72 O82 2.297 . S
Cd72 O83 2.439 1_565 S
O73 Cd72 2.240 1_545 S
O73 C78 1.279 . S
O74 Cd71 2.297 . S
O74 C76 1.247 . S
O75 Cd71 2.439 . S
O75 C76 1.208 . S
C76 O74 1.247 . S
C76 O75 1.208 . S
C77 O82 1.247 . S
C77 O83 1.208 1_565 S
C78 O70 1.315 . S
C78 O73 1.279 . S
C79 O80 1.307 1_545 S
C79 O81 1.288 . S
O80 Cd72 2.223 . S
O80 C79 1.307 1_565 S
O81 Cd71 2.240 . S
O81 C79 1.288 . S
O82 Cd72 2.297 . S
O82 C77 1.247 . S
O83 Cd72 2.439 1_545 S
O83 C77 1.208 1_545 S
O84 Cd85 2.223 . S
O84 C92 1.315 . S
Cd85 O84 2.223 . S
Cd85 O88 2.297 . S
Cd85 O89 2.439 . S
Cd85 O95 2.240 . S
Cd86 O87 2.240 1_565 S
Cd86 O94 2.223 . S
Cd86 O96 2.297 . S
Cd86 O97 2.439 1_565 S
O87 Cd86 2.240 1_545 S
O87 C92 1.279 . S
O88 Cd85 2.297 . S
O88 C90 1.247 . S
O89 Cd85 2.439 . S
O89 C90 1.208 . S
C90 O88 1.247 . S
C90 O89 1.208 . S
C91 O96 1.247 . S
C91 O97 1.208 1_565 S
C92 O84 1.315 . S
C92 O87 1.279 . S
C93 O94 1.307 1_545 S
C93 O95 1.288 . S
O94 Cd86 2.223 . S
O94 C93 1.307 1_565 S
O95 Cd85 2.240 . S
O95 C93 1.288 . S
O96 Cd86 2.297 . S
O96 C91 1.247 . S
O97 Cd86 2.439 1_545 S
O97 C91 1.208 1_545 S
O98 Cd99 2.223 . S
O98 C106 1.315 . S
Cd99 O98 2.223 . S
Cd99 O102 2.297 . S
Cd99 O103 2.439 . S
Cd99 O109 2.240 . S
Cd100 O101 2.240 1_545 S
Cd100 O108 2.223 . S
Cd100 O110 2.297 . S
Cd100 O111 2.439 1_545 S
O101 Cd100 2.240 1_565 S
O101 C106 1.279 . S
O102 Cd99 2.297 . S
O102 C104 1.247 . S
O103 Cd99 2.439 . S
O103 C104 1.208 . S
C104 O102 1.247 . S
C104 O103 1.208 . S
C105 O110 1.247 . S
C105 O111 1.208 1_545 S
C106 O98 1.315 . S
C106 O101 1.279 . S
C107 O108 1.307 1_565 S
C107 O109 1.288 . S
O108 Cd100 2.223 . S
O108 C107 1.307 1_545 S
O109 Cd99 2.240 . S
O109 C107 1.288 . S
O110 Cd100 2.297 . S
O110 C105 1.247 . S
O111 Cd100 2.439 1_565 S
O111 C105 1.208 1_565 S
O112 Cd113 2.223 . S
O112 C120 1.315 . S
Cd113 O112 2.223 . S
Cd113 O116 2.297 . S
Cd113 O117 2.439 . S
Cd113 O123 2.240 . S
Cd114 O115 2.240 . S
Cd114 O122 2.223 . S
Cd114 O124 2.297 . S
Cd114 O125 2.439 . S
O115 Cd114 2.240 . S
O115 C120 1.279 . S
O116 Cd113 2.297 . S
O116 C118 1.247 . S
O117 Cd113 2.439 . S
O117 C118 1.208 . S
C118 O116 1.247 . S
C118 O117 1.208 . S
C119 O124 1.247 . S
C119 O125 1.208 . S
C120 O112 1.315 . S
C120 O115 1.279 . S
C121 O122 1.315 . S
C121 O123 1.279 . S
O122 Cd114 2.223 . S
O122 C121 1.315 . S
O123 Cd113 2.240 . S
O123 C121 1.279 . S
O124 Cd114 2.297 . S
O124 C119 1.247 . S
O125 Cd114 2.439 . S
O125 C119 1.208 . S
O126 Cd127 2.223 . S
O126 C134 1.315 . S
Cd127 O126 2.223 . S
Cd127 O130 2.297 . S
Cd127 O131 2.439 . S
Cd127 O137 2.240 . S
Cd128 O129 2.240 . S
Cd128 O136 2.223 . S
Cd128 O138 2.297 . S
Cd128 O139 2.439 . S
O129 Cd128 2.240 . S
O129 C134 1.279 . S
O130 Cd127 2.297 . S
O130 C132 1.247 . S
O131 Cd127 2.439 . S
O131 C132 1.208 . S
C132 O130 1.247 . S
C132 O131 1.208 . S
C133 O138 1.247 . S
C133 O139 1.208 . S
C134 O126 1.315 . S
C134 O129 1.279 . S
C135 O136 1.315 . S
C135 O137 1.279 . S
O136 Cd128 2.223 . S
O136 C135 1.315 . S
O137 Cd127 2.240 . S
O137 C135 1.279 . S
O138 Cd128 2.297 . S
O138 C133 1.247 . S
O139 Cd128 2.439 . S
O139 C133 1.208 . S
O140 Cd141 2.223 . S
O140 C148 1.315 . S
Cd141 O140 2.223 . S
Cd141 O144 2.297 . S
Cd141 O145 2.439 . S
Cd141 O151 2.240 . S
Cd142 O143 2.240 . S
Cd142 O150 2.223 . S
Cd142 O152 2.297 . S
Cd142 O153 2.439 . S
O143 Cd142 2.240 . S
O143 C148 1.279 . S
O144 Cd141 2.297 . S
O144 C146 1.247 . S
O145 Cd141 2.439 . S
O145 C146 1.208 . S
C146 O144 1.247 . S
C146 O145 1.208 . S
C147 O152 1.247 . S
C147 O153 1.208 . S
C148 O140 1.315 . S
C148 O143 1.279 . S
C149 O150 1.315 . S
C149 O151 1.279 . S
O150 Cd142 2.223 . S
O150 C149 1.315 . S
O151 Cd141 2.240 . S
O151 C149 1.279 . S
O152 Cd142 2.297 . S
O152 C147 1.247 . S
O153 Cd142 2.439 . S
O153 C147 1.208 . S
O154 Cd155 2.223 . S
O154 C162 1.315 . S
Cd155 O154 2.223 . S
Cd155 O158 2.297 . S
Cd155 O159 2.439 . S
Cd155 O165 2.240 . S
Cd156 O157 2.240 . S
Cd156 O164 2.223 . S
Cd156 O166 2.297 . S
Cd156 O167 2.439 . S
O157 Cd156 2.240 . S
O157 C162 1.279 . S
O158 Cd155 2.297 . S
O158 C160 1.247 . S
O159 Cd155 2.439 . S
O159 C160 1.208 . S
C160 O158 1.247 . S
C160 O159 1.208 . S
C161 O166 1.247 . S
C161 O167 1.208 . S
C162 O154 1.315 . S
C162 O157 1.279 . S
C163 O164 1.315 . S
C163 O165 1.279 . S
O164 Cd156 2.223 . S
O164 C163 1.315 . S
O165 Cd155 2.240 . S
O165 C163 1.279 . S
O166 Cd156 2.297 . S
O166 C161 1.247 . S
O167 Cd156 2.439 . S
O167 C161 1.208 . S
O168 Cd169 2.223 . S
O168 C176 1.315 . S
Cd169 O168 2.223 . S
Cd169 O172 2.297 . S
Cd169 O173 2.439 . S
Cd169 O179 2.240 . S
Cd170 O171 2.240 . S
Cd170 O178 2.223 . S
Cd170 O180 2.297 . S
Cd170 O181 2.439 . S
O171 Cd170 2.240 . S
O171 C176 1.279 . S
O172 Cd169 2.297 . S
O172 C174 1.247 . S
O173 Cd169 2.439 . S
O173 C174 1.208 . S
C174 O172 1.247 . S
C174 O173 1.208 . S
C175 O180 1.247 . S
C175 O181 1.208 . S
C176 O168 1.315 . S
C176 O171 1.279 . S
C177 O178 1.315 . S
C177 O179 1.279 . S
O178 Cd170 2.223 . S
O178 C177 1.315 . S
O179 Cd169 2.240 . S
O179 C177 1.279 . S
O180 Cd170 2.297 . S
O180 C175 1.247 . S
O181 Cd170 2.439 . S
O181 C175 1.208 . S
O182 Cd183 2.223 . S
O182 C190 1.315 . S
Cd183 O182 2.223 . S
Cd183 O186 2.297 . S
Cd183 O187 2.439 . S
Cd183 O193 2.240 . S
Cd184 O185 2.240 . S
Cd184 O192 2.223 . S
Cd184 O194 2.297 . S
Cd184 O195 2.439 . S
O185 Cd184 2.240 . S
O185 C190 1.279 . S
O186 Cd183 2.297 . S
O186 C188 1.247 . S
O187 Cd183 2.439 . S
O187 C188 1.208 . S
C188 O186 1.247 . S
C188 O187 1.208 . S
C189 O194 1.247 . S
C189 O195 1.208 . S
C190 O182 1.315 . S
C190 O185 1.279 . S
C191 O192 1.315 . S
C191 O193 1.279 . S
O192 Cd184 2.223 . S
O192 C191 1.315 . S
O193 Cd183 2.240 . S
O193 C191 1.279 . S
O194 Cd184 2.297 . S
O194 C189 1.247 . S
O195 Cd184 2.439 . S
O195 C189 1.208 . S
O196 Cd197 2.223 . S
O196 C204 1.315 . S
Cd197 O196 2.223 . S
Cd197 O200 2.297 . S
Cd197 O201 2.439 . S
Cd197 O207 2.240 . S
Cd198 O199 2.240 . S
Cd198 O206 2.223 . S
Cd198 O208 2.297 . S
Cd198 O209 2.439 . S
O199 Cd198 2.240 . S
O199 C204 1.279 . S
O200 Cd197 2.297 . S
O200 C202 1.247 . S
O201 Cd197 2.439 . S
O201 C202 1.208 . S
C202 O200 1.247 . S
C202 O201 1.208 . S
C203 O208 1.247 . S
C203 O209 1.208 . S
C204 O196 1.315 . S
C204 O199 1.279 . S
C205 O206 1.315 . S
C205 O207 1.279 . S
O206 Cd198 2.223 . S
O206 C205 1.315 . S
O207 Cd197 2.240 . S
O207 C205 1.279 . S
O208 Cd198 2.297 . S
O208 C203 1.247 . S
O209 Cd198 2.439 . S
O209 C203 1.208 . S
O210 Cd211 2.223 . S
O210 C218 1.315 . S
Cd211 O210 2.223 . S
Cd211 O214 2.297 . S
Cd211 O215 2.439 . S
Cd211 O221 2.240 . S
Cd212 O213 2.240 . S
Cd212 O220 2.223 . S
Cd212 O222 2.297 . S
Cd212 O223 2.439 . S
O213 Cd212 2.240 . S
O213 C218 1.279 . S
O214 Cd211 2.297 . S
O214 C216 1.247 . S
O215 Cd211 2.439 . S
O215 C216 1.208 . S
C216 O214 1.247 . S
C216 O215 1.208 . S
C217 O222 1.247 . S
C217 O223 1.208 . S
C218 O210 1.315 . S
C218 O213 1.279 . S
C219 O220 1.315 . S
C219 O221 1.279 . S
O220 Cd212 2.223 . S
O220 C219 1.315 . S
O221 Cd211 2.240 . S
O221 C219 1.279 . S
O222 Cd212 2.297 . S
O222 C217 1.247 . S
O223 Cd212 2.439 . S
O223 C217 1.208 . S
C8 C78 1.047 . S
C64 C22 1.047 . S
C36 C106 1.047 1_554 S
C92 C50 1.047 1_556 S
C190 C120 1.047 . S
C176 C134 1.047 . S
C218 C148 1.047 1_556 S
C162 C204 1.047 1_554 S
C23 C9 1.597 1_565 S
C37 C51 1.597 1_565 S
C65 C79 1.597 1_565 S
C93 C107 1.597 1_545 S
C121 C135 1.597 1_655 S
C163 C149 1.597 1_455 S
C191 C177 1.597 1_655 S
C205 C219 1.597 1_455 S
C132 C6 1.489 . S
C20 C118 1.489 . S
C160 C34 1.489 . S
C48 C146 1.489 . S
C62 C188 1.489 . S
C174 C76 1.489 . S
C90 C216 1.489 . S
C202 C104 1.489 . S
C7 C35 2.100 1_565 S
C49 C21 2.101 1_565 S
C91 C63 2.100 1_565 S
C105 C77 2.101 1_545 S
C147 C119 2.100 . S
C133 C161 2.101 . S
C203 C175 2.100 . S
C189 C217 2.101 . S
