# Generated by pormake.
# Topology fnt, (5)-cn, num edge types: 1
# Building blocks:
#     Node 0, Type 0, BuildingBlock: XOMCOT_clean_sbu_1, # of connection points: 5
#     Node 1, Type 0, BuildingBlock: XOMCOT_clean_sbu_1, # of connection points: 5
#     Node 2, Type 0, BuildingBlock: XOMCOT_clean_sbu_1, # of connection points: 5
#     Node 3, Type 0, BuildingBlock: XOMCOT_clean_sbu_1, # of connection points: 5
#     Node 4, Type 0, BuildingBlock: XOMCOT_clean_sbu_1, # of connection points: 5
#     Node 5, Type 0, BuildingBlock: XOMCOT_clean_sbu_1, # of connection points: 5
#     Edge 6, Type (0, 0), None
#     Edge 7, Type (0, 0), None
#     Edge 8, Type (0, 0), None
#     Edge 9, Type (0, 0), None
#     Edge 10, Type (0, 0), None
#     Edge 11, Type (0, 0), None
#     Edge 12, Type (0, 0), None
#     Edge 13, Type (0, 0), None
#     Edge 14, Type (0, 0), None
#     Edge 15, Type (0, 0), None
#     Edge 16, Type (0, 0), None
#     Edge 17, Type (0, 0), None
#     Edge 18, Type (0, 0), None
#     Edge 19, Type (0, 0), None
#     Edge 20, Type (0, 0), None
# Relax obj value: 0.138
# Max RMSD: 0.160
# Mean RMSD: 0.160
data_MOF--net-fnt--node1-XOMCOT_clean_sbu_1--edge1-none
_symmetry_space_group_name_H-M    P1
_symmetry_Int_Tables_number       1
_symmetry_cell_setting            triclinic
loop_
_symmetry_equiv_pos_as_xyz
'x, y, z'
_cell_length_a     13.244878
_cell_length_b     13.248219
_cell_length_c     25.525453
_cell_angle_alpha  90.168223
_cell_angle_beta   90.000953
_cell_angle_gamma 119.99713
loop_
_atom_site_label
_atom_site_type_symbol
_atom_site_fract_x
_atom_site_fract_y
_atom_site_fract_z
_atom_type_partial_charge
C0 C 0.15082 0.43665 0.13931 0.0
C1 C 0.12864 0.44669 0.19124 0.0
N2 N 0.15363 0.37589 0.21884 0.0
N3 N 0.18643 0.35768 0.13434 0.0
C4 C 0.1889 0.32334 0.18398 0.0
H5 H 0.14164 0.48368 0.10719 0.0
Co6 Co 0.22697 0.30609 0.07312 0.0
C7 C 0.03577 0.05567 0.11878 0.0
O8 O 0.96632 0.08261 0.14416 0.0
N9 N 0.26363 0.24561 1.01263 0.0
C10 C 0.22122 0.11925 0.94709 0.0
C11 C 0.18333 0.14072 0.99297 0.0
C12 C 0.35022 0.28818 0.97629 0.0
N13 N 0.32551 0.2119 0.93607 0.0
O14 O 0.37715 0.34979 0.10413 0.0
H15 H 0.09661 0.08649 1.0081 0.0
H16 H 0.42502 0.37531 0.9776 0.0
O17 O 0.13149 0.13629 0.09774 0.0
C18 C 0.43928 0.46315 0.10287 0.0
O19 O 0.38868 0.5229 0.08962 0.0
N20 N 0.10489 0.30148 1.0365 0.0
C21 C 1.01026 0.43353 1.00416 0.0
C22 C 0.94373 0.3338 1.03485 0.0
C23 C 0.99345 0.26746 1.05089 0.0
C24 C 0.16186 0.38824 1.00055 0.0
C25 C 0.1152 0.45453 0.9832 0.0
H26 H 0.94996 0.20267 0.08048 0.0
H27 H 0.25273 0.42107 0.99206 0.0
H28 H 0.21378 0.25953 0.19421 0.0
H29 H 0.09857 0.50242 0.20756 0.0
H30 H 0.17029 0.04551 0.92162 0.0
H31 H 0.86213 0.31737 1.05207 0.0
H32 H 0.16862 0.53211 0.96027 0.0
C33 C 0.73999 0.18236 0.48092 0.0
C34 C 0.71284 0.14831 0.53281 0.0
N35 N 0.81101 0.16633 0.55672 0.0
N36 N 0.85434 0.21978 0.47249 0.0
C37 C 0.89483 0.21101 0.51968 0.0
H38 H 0.67911 0.17547 0.45096 0.0
Co39 Co 0.95067 0.26607 0.41201 0.0
C40 C 1.01977 0.07419 0.416 0.0
O41 O 0.97695 0.04317 0.36854 0.0
N42 N 0.05456 0.31241 0.3526 0.0
C43 C 0.21093 0.34303 0.30582 0.0
C44 C 0.16028 0.3194 0.35472 0.0
C45 C 0.04668 0.33909 0.30182 0.0
N46 N 0.13903 0.35569 0.27317 0.0
O47 O 0.05453 0.41355 0.44533 0.0
H48 H 0.1986 0.30677 0.38968 0.0
H49 H 0.97471 0.34385 0.28476 0.0
O50 O 1.02034 0.16346 0.43785 0.0
C51 C 1.00309 0.47556 0.44414 0.0
O52 O 0.89103 0.42387 0.43409 0.0
N53 N 0.8344 0.14834 0.37487 0.0
C54 C 0.60959 0.05011 0.33841 0.0
C55 C 0.64513 0.98196 0.36677 0.0
C56 C 0.7594 0.03409 0.38578 0.0
C57 C 0.79981 0.21207 0.34605 0.0
C58 C 0.69012 0.16334 0.32492 0.0
H59 H 0.7816 0.98858 0.41451 0.0
H60 H 0.85098 0.30586 0.34639 0.0
H61 H 0.98419 0.23292 0.52612 0.0
H62 H 0.62744 0.10814 0.55057 0.0
H63 H 0.29372 0.35106 0.29514 0.0
H64 H 0.58204 0.89506 0.37975 0.0
H65 H 0.66361 0.2189 0.3053 0.0
C66 C 0.55784 0.72781 0.81503 0.0
C67 C 0.56278 0.69993 0.86703 0.0
N68 N 0.6533 0.793 0.88966 0.0
N69 N 0.64708 0.83665 0.80503 0.0
C70 C 0.7003 0.87456 0.85176 0.0
H71 H 0.49762 0.66976 0.78572 0.0
Co72 Co 0.7079 0.92597 0.74245 0.0
C73 C 0.96094 0.96958 0.77075 0.0
O74 O 0.9426 0.87626 0.74507 0.0
N75 N 0.77661 0.02109 0.68119 0.0
C76 C 0.90531 0.0958 0.61595 0.0
C77 C 0.87712 0.03425 0.66128 0.0
C78 C 0.74333 0.07488 0.64523 0.0
N79 N 0.82129 0.12092 0.60526 0.0
O80 O 0.66845 0.03817 0.77039 0.0
H81 H 0.92273 0.99225 0.67536 0.0
H82 H 0.66148 0.07449 0.64685 0.0
O83 O 0.87929 0.99757 0.77268 0.0
C84 C 0.5554 0.98843 0.76694 0.0
O85 O 0.49609 0.87998 0.75061 0.0
N86 N 0.70654 0.80115 0.70903 0.0
C87 C 0.56337 0.57541 0.67623 0.0
C88 C 0.64638 0.59955 0.7155 0.0
C89 C 0.71474 0.71354 0.7329 0.0
C90 C 0.63588 0.77782 0.66606 0.0
C91 C 0.56284 0.6651 0.64917 0.0
H92 H 0.75741 0.72691 0.77042 0.0
H93 H 0.61813 0.84233 0.65001 0.0
H94 H 0.77589 0.95975 0.85731 0.0
H95 H 0.50888 0.61648 0.88558 0.0
H96 H 0.9771 0.11144 0.59058 0.0
H97 H 0.64792 0.53012 0.73694 0.0
H98 H 0.49805 0.64775 0.61922 0.0
C99 C 0.83782 0.53348 0.14878 0.0
C100 C 0.87625 0.54589 0.20027 0.0
N101 N 0.86987 0.63545 0.22166 0.0
N102 N 0.81145 0.6177 0.13785 0.0
C103 C 0.82631 0.67354 0.18376 0.0
H104 H 0.83938 0.47401 0.12009 0.0
Co105 Co 0.78348 0.67728 0.07502 0.0
C106 C 0.99397 0.93079 0.10432 0.0
O107 O 0.07044 0.91238 0.08018 0.0
N108 N 0.75908 0.74624 1.01332 0.0
C109 C 0.81986 0.87615 0.94853 0.0
C110 C 0.85031 0.84375 0.99348 0.0
C111 C 0.6724 0.71884 0.97758 0.0
N112 N 0.70843 0.79783 0.93787 0.0
O113 O 0.63197 0.63944 0.10273 0.0
H114 H 0.93809 0.88431 1.00759 0.0
H115 H 0.58774 0.64064 0.97931 0.0
O116 O 0.8842 0.84934 0.10492 0.0
C117 C 0.56846 0.52617 0.10108 0.0
O118 O 0.61684 0.46543 0.08585 0.0
N119 N 0.9057 0.67298 1.04204 0.0
C120 C 0.98979 0.5313 1.00833 0.0
C121 C 0.05077 0.61714 1.04642 0.0
C122 C 1.00395 0.68392 0.06464 0.0
C123 C 0.85509 0.59898 1.00031 0.0
C124 C 0.89533 0.52655 0.98305 0.0
H125 H 0.03488 0.72732 0.10193 0.0
H126 H 0.77094 0.5795 0.98565 0.0
H127 H 0.81362 0.74752 0.18832 0.0
H128 H 0.91502 0.5 0.21873 0.0
H129 H 0.87903 0.94696 0.92355 0.0
H130 H 0.1247 0.62209 0.06668 0.0
H131 H 0.84583 0.45943 0.95423 0.0
C132 C 0.33363 0.88342 0.47434 0.0
C133 C 0.35402 0.90953 0.52726 0.0
N134 N 0.25395 0.89244 0.54868 0.0
N135 N 0.22187 0.85236 0.46297 0.0
C136 C 0.1756 0.8562 0.50926 0.0
H137 H 0.39683 0.889 0.44595 0.0
Co138 Co 0.13492 0.80958 0.40011 0.0
C139 C 0.07753 1.01111 0.43984 0.0
O140 O 0.15347 0.06179 0.47781 0.0
N141 N 0.04489 0.77169 0.33735 0.0
C142 C 0.97776 0.82029 0.26754 0.0
C143 C 0.04501 0.86049 0.31114 0.0
C144 C 0.97696 0.67622 0.30727 0.0
N145 N 0.93449 0.70473 0.26481 0.0
O146 O 1.01956 0.66692 0.43341 0.0
H147 H 0.0954 0.95152 0.32177 0.0
H148 H 0.96058 0.58931 0.31578 0.0
O149 O 0.07049 0.92102 0.41594 0.0
C150 C 0.06921 0.60343 0.43669 0.0
O151 O 0.17791 0.64801 0.4215 0.0
N152 N 0.25833 0.92155 0.36475 0.0
C153 C 0.48692 1.01673 0.33686 0.0
C154 C 0.4491 0.0845 0.36424 0.0
C155 C 0.33225 0.03418 0.37831 0.0
C156 C 0.29176 0.86109 0.33258 0.0
C157 C 0.40647 0.90753 0.31787 0.0
H158 H 0.30558 0.07884 0.40552 0.0
H159 H 0.23268 0.76998 0.32429 0.0
H160 H 0.08604 0.83544 0.51336 0.0
H161 H 0.43587 0.94156 0.54775 0.0
H162 H 0.96688 0.87368 0.23864 0.0
H163 H 0.51094 0.16941 0.37998 0.0
H164 H 0.43382 0.8539 0.29699 0.0
C165 C 0.45968 0.31525 0.81154 0.0
C166 C 0.45362 0.33478 0.86452 0.0
N167 N 0.37985 0.23164 0.88659 0.0
N168 N 0.38822 0.20102 0.80064 0.0
C169 C 0.34391 0.15263 0.84741 0.0
H170 H 0.50777 0.38088 0.7826 0.0
Co171 Co 0.33704 0.11273 0.73823 0.0
C172 C 0.08598 0.05237 0.78498 0.0
O173 O 0.11299 0.14785 0.81125 0.0
N174 N 0.2753 0.01889 0.67663 0.0
C175 C 0.14729 0.94197 0.61118 0.0
C176 C 0.17144 0.9992 0.65772 0.0
C177 C 0.31467 0.97413 0.63903 0.0
N178 N 0.23736 0.92703 0.59883 0.0
O179 O 0.37888 1.00338 0.76754 0.0
H180 H 0.12005 0.03406 0.67389 0.0
H181 H 0.40044 0.98298 0.63949 0.0
O182 O 0.16655 0.03825 0.763 0.0
C183 C 0.49227 0.0545 0.76788 0.0
O184 O 0.55322 0.16567 0.7562 0.0
N185 N 0.33401 0.23211 0.70373 0.0
C186 C 0.465 0.45819 0.67165 0.0
C187 C 0.36613 0.42519 0.70302 0.0
C188 C 0.30016 0.3092 0.71893 0.0
C189 C 0.42042 0.26203 0.66753 0.0
C190 C 0.48573 0.37463 0.65002 0.0
H191 H 0.23593 0.28754 0.74892 0.0
H192 H 0.4532 0.20404 0.65864 0.0
H193 H 0.28087 0.06115 0.85188 0.0
H194 H 0.49406 0.4183 0.88429 0.0
H195 H 0.07363 0.92276 0.58635 0.0
H196 H 0.35033 0.49039 0.7208 0.0
H197 H 0.56291 0.39895 0.62666 0.0
loop_
_geom_bond_atom_site_label_1
_geom_bond_atom_site_label_2
_geom_bond_distance
_geom_bond_site_symmetry_2
_ccdc_geom_bond_type
C0 C1 1.351 . S
C0 N3 1.368 . S
C0 H5 0.931 . S
C1 C0 1.351 . S
C1 N2 1.373 . S
C1 H29 0.930 . S
N2 C1 1.373 . S
N2 C4 1.340 . S
N3 C0 1.368 . S
N3 C4 1.321 . S
N3 Co6 2.135 . S
C4 N2 1.340 . S
C4 N3 1.321 . S
C4 H28 0.930 . S
H5 C0 0.931 . S
Co6 N3 2.135 . S
Co6 N9 2.121 1_554 S
Co6 O14 2.055 . S
Co6 O17 2.039 . S
Co6 N20 2.140 . S
C7 O8 1.227 1_455 S
C7 O17 1.265 . S
O8 C7 1.227 1_655 S
N9 Co6 2.121 1_556 S
N9 C11 1.375 . S
N9 C12 1.313 . S
C10 C11 1.338 . S
C10 N13 1.377 . S
C10 H30 0.930 . S
C11 N9 1.375 . S
C11 C10 1.338 . S
C11 H15 0.931 . S
C12 N9 1.313 . S
C12 N13 1.344 . S
C12 H16 0.930 . S
N13 C10 1.377 . S
N13 C12 1.344 . S
O14 Co6 2.055 . S
O14 C18 1.253 . S
H15 C11 0.931 . S
H16 C12 0.930 . S
O17 Co6 2.039 . S
O17 C7 1.265 . S
C18 O14 1.253 . S
C18 O19 1.227 . S
O19 C18 1.227 . S
N20 Co6 2.140 . S
N20 C23 1.346 . S
N20 C24 1.345 1_554 S
C21 C22 1.387 1_556 S
C21 C25 1.391 1_655 S
C22 C21 1.387 1_554 S
C22 C23 1.369 1_655 S
C22 H31 0.929 . S
C23 N20 1.346 . S
C23 C22 1.369 1_455 S
C23 H26 0.929 1_455 S
C24 N20 1.345 1_556 S
C24 C25 1.371 . S
C24 H27 0.931 . S
C25 C21 1.391 1_455 S
C25 C24 1.371 . S
C25 H32 0.930 . S
H26 C23 0.929 1_655 S
H27 C24 0.931 . S
H28 C4 0.930 . S
H29 C1 0.930 . S
H30 C10 0.930 . S
H31 C22 0.929 . S
H32 C25 0.930 . S
C33 C34 1.351 . S
C33 N36 1.368 . S
C33 H38 0.931 . S
C34 C33 1.351 . S
C34 N35 1.373 . S
C34 H62 0.930 . S
N35 C34 1.373 . S
N35 C37 1.340 . S
N36 C33 1.368 . S
N36 C37 1.321 . S
N36 Co39 2.135 . S
C37 N35 1.340 . S
C37 N36 1.321 . S
C37 H61 0.930 . S
H38 C33 0.931 . S
Co39 N36 2.135 . S
Co39 N42 2.121 . S
Co39 O47 2.055 1_655 S
Co39 O50 2.039 1_655 S
Co39 N53 2.140 . S
C40 O41 1.227 1_545 S
C40 O50 1.265 1_655 S
O41 C40 1.227 1_565 S
N42 Co39 2.121 . S
N42 C44 1.375 . S
N42 C45 1.313 . S
C43 C44 1.338 . S
C43 N46 1.377 . S
C43 H63 0.930 . S
C44 N42 1.375 . S
C44 C43 1.338 . S
C44 H48 0.931 . S
C45 N42 1.313 . S
C45 N46 1.344 . S
C45 H49 0.930 1_655 S
N46 C43 1.377 . S
N46 C45 1.344 . S
O47 Co39 2.055 1_455 S
O47 C51 1.253 . S
H48 C44 0.931 . S
H49 C45 0.930 1_455 S
O50 Co39 2.039 1_455 S
O50 C40 1.265 1_455 S
C51 O47 1.253 . S
C51 O52 1.227 1_455 S
O52 C51 1.227 1_655 S
N53 Co39 2.140 . S
N53 C56 1.346 . S
N53 C57 1.345 . S
C54 C55 1.387 . S
C54 C58 1.391 1_565 S
C55 C54 1.387 . S
C55 C56 1.369 1_565 S
C55 H64 0.929 . S
C56 N53 1.346 . S
C56 C55 1.369 1_545 S
C56 H59 0.925 1_545 S
C57 N53 1.345 . S
C57 C58 1.371 . S
C57 H60 0.931 . S
C58 C54 1.391 1_545 S
C58 C57 1.371 . S
C58 H65 0.930 . S
H59 C56 0.925 1_565 S
H60 C57 0.931 . S
H61 C37 0.930 . S
H62 C34 0.930 . S
H63 C43 0.930 . S
H64 C55 0.929 . S
H65 C58 0.930 . S
C66 C67 1.351 . S
C66 N69 1.368 . S
C66 H71 0.931 . S
C67 C66 1.351 . S
C67 N68 1.373 . S
C67 H95 0.930 . S
N68 C67 1.373 . S
N68 C70 1.340 . S
N69 C66 1.368 . S
N69 C70 1.321 . S
N69 Co72 2.135 . S
C70 N68 1.340 . S
C70 N69 1.321 . S
C70 H94 0.930 . S
H71 C66 0.931 . S
Co72 N69 2.135 . S
Co72 N75 2.121 . S
Co72 O80 2.055 1_565 S
Co72 O83 2.039 1_565 S
Co72 N86 2.140 . S
C73 O74 1.227 . S
C73 O83 1.265 1_565 S
O74 C73 1.227 . S
N75 Co72 2.121 . S
N75 C77 1.375 . S
N75 C78 1.313 . S
C76 C77 1.338 . S
C76 N79 1.377 . S
C76 H96 0.930 . S
C77 N75 1.375 . S
C77 C76 1.338 . S
C77 H81 0.931 . S
C78 N75 1.313 . S
C78 N79 1.344 . S
C78 H82 0.930 1_565 S
N79 C76 1.377 . S
N79 C78 1.344 . S
O80 Co72 2.055 1_545 S
O80 C84 1.253 . S
H81 C77 0.931 . S
H82 C78 0.930 1_545 S
O83 Co72 2.039 1_545 S
O83 C73 1.265 1_545 S
C84 O80 1.253 . S
C84 O85 1.227 1_545 S
O85 C84 1.227 1_565 S
N86 Co72 2.140 . S
N86 C89 1.346 . S
N86 C90 1.345 . S
C87 C88 1.387 . S
C87 C91 1.391 . S
C88 C87 1.387 . S
C88 C89 1.369 . S
C88 H97 0.929 . S
C89 N86 1.346 . S
C89 C88 1.369 . S
C89 H92 0.928 . S
C90 N86 1.345 . S
C90 C91 1.371 . S
C90 H93 0.931 . S
C91 C87 1.391 . S
C91 C90 1.371 . S
C91 H98 0.930 . S
H92 C89 0.928 . S
H93 C90 0.931 . S
H94 C70 0.930 . S
H95 C67 0.930 . S
H96 C76 0.930 . S
H97 C88 0.929 . S
H98 C91 0.930 . S
C99 C100 1.351 . S
C99 N102 1.368 . S
C99 H104 0.931 . S
C100 C99 1.351 . S
C100 N101 1.373 . S
C100 H128 0.930 . S
N101 C100 1.373 . S
N101 C103 1.340 . S
N102 C99 1.368 . S
N102 C103 1.321 . S
N102 Co105 2.135 . S
C103 N101 1.340 . S
C103 N102 1.321 . S
C103 H127 0.930 . S
H104 C99 0.931 . S
Co105 N102 2.135 . S
Co105 N108 2.121 1_554 S
Co105 O113 2.055 . S
Co105 O116 2.039 . S
Co105 N119 2.140 . S
C106 O107 1.227 1_655 S
C106 O116 1.265 . S
O107 C106 1.227 1_455 S
N108 Co105 2.121 1_556 S
N108 C110 1.375 . S
N108 C111 1.313 . S
C109 C110 1.338 . S
C109 N112 1.377 . S
C109 H129 0.930 . S
C110 N108 1.375 . S
C110 C109 1.338 . S
C110 H114 0.931 . S
C111 N108 1.313 . S
C111 N112 1.344 . S
C111 H115 0.930 . S
N112 C109 1.377 . S
N112 C111 1.344 . S
O113 Co105 2.055 . S
O113 C117 1.253 . S
H114 C110 0.931 . S
H115 C111 0.930 . S
O116 Co105 2.039 . S
O116 C106 1.265 . S
C117 O113 1.253 . S
C117 O118 1.227 . S
O118 C117 1.227 . S
N119 Co105 2.140 . S
N119 C122 1.346 . S
N119 C123 1.345 1_554 S
C120 C121 1.387 1_556 S
C120 C124 1.391 1_455 S
C121 C120 1.387 1_554 S
C121 C122 1.369 1_455 S
C121 H130 0.929 . S
C122 N119 1.346 . S
C122 C121 1.369 1_655 S
C122 H125 0.929 1_655 S
C123 N119 1.345 1_556 S
C123 C124 1.371 . S
C123 H126 0.931 . S
C124 C120 1.391 1_655 S
C124 C123 1.371 . S
C124 H131 0.930 . S
H125 C122 0.929 1_455 S
H126 C123 0.931 . S
H127 C103 0.930 . S
H128 C100 0.930 . S
H129 C109 0.930 . S
H130 C121 0.929 . S
H131 C124 0.930 . S
C132 C133 1.351 . S
C132 N135 1.368 . S
C132 H137 0.931 . S
C133 C132 1.351 . S
C133 N134 1.373 . S
C133 H161 0.930 . S
N134 C133 1.373 . S
N134 C136 1.340 . S
N135 C132 1.368 . S
N135 C136 1.321 . S
N135 Co138 2.135 . S
C136 N134 1.340 . S
C136 N135 1.321 . S
C136 H160 0.930 . S
H137 C132 0.931 . S
Co138 N135 2.135 . S
Co138 N141 2.121 . S
Co138 O146 2.055 1_455 S
Co138 O149 2.039 1_455 S
Co138 N152 2.140 . S
C139 O140 1.227 1_565 S
C139 O149 1.265 1_455 S
O140 C139 1.227 1_545 S
N141 Co138 2.121 . S
N141 C143 1.375 . S
N141 C144 1.313 . S
C142 C143 1.338 . S
C142 N145 1.377 . S
C142 H162 0.930 . S
C143 N141 1.375 . S
C143 C142 1.338 . S
C143 H147 0.931 . S
C144 N141 1.313 . S
C144 N145 1.344 . S
C144 H148 0.930 1_455 S
N145 C142 1.377 . S
N145 C144 1.344 . S
O146 Co138 2.055 1_655 S
O146 C150 1.253 . S
H147 C143 0.931 . S
H148 C144 0.930 1_655 S
O149 Co138 2.039 1_655 S
O149 C139 1.265 1_655 S
C150 O146 1.253 . S
C150 O151 1.227 1_655 S
O151 C150 1.227 1_455 S
N152 Co138 2.140 . S
N152 C155 1.346 . S
N152 C156 1.345 . S
C153 C154 1.387 . S
C153 C157 1.391 1_545 S
C154 C153 1.387 . S
C154 C155 1.369 1_545 S
C154 H163 0.929 . S
C155 N152 1.346 . S
C155 C154 1.369 1_565 S
C155 H158 0.925 1_565 S
C156 N152 1.345 . S
C156 C157 1.371 . S
C156 H159 0.931 . S
C157 C153 1.391 1_565 S
C157 C156 1.371 . S
C157 H164 0.930 . S
H158 C155 0.925 1_545 S
H159 C156 0.931 . S
H160 C136 0.930 . S
H161 C133 0.930 . S
H162 C142 0.930 . S
H163 C154 0.929 . S
H164 C157 0.930 . S
C165 C166 1.351 . S
C165 N168 1.368 . S
C165 H170 0.931 . S
C166 C165 1.351 . S
C166 N167 1.373 . S
C166 H194 0.930 . S
N167 C166 1.373 . S
N167 C169 1.340 . S
N168 C165 1.368 . S
N168 C169 1.321 . S
N168 Co171 2.135 . S
C169 N167 1.340 . S
C169 N168 1.321 . S
C169 H193 0.930 . S
H170 C165 0.931 . S
Co171 N168 2.135 . S
Co171 N174 2.121 . S
Co171 O179 2.055 1_545 S
Co171 O182 2.039 1_545 S
Co171 N185 2.140 . S
C172 O173 1.227 . S
C172 O182 1.265 1_545 S
O173 C172 1.227 . S
N174 Co171 2.121 . S
N174 C176 1.375 . S
N174 C177 1.313 . S
C175 C176 1.338 . S
C175 N178 1.377 . S
C175 H195 0.930 . S
C176 N174 1.375 . S
C176 C175 1.338 . S
C176 H180 0.931 . S
C177 N174 1.313 . S
C177 N178 1.344 . S
C177 H181 0.930 1_545 S
N178 C175 1.377 . S
N178 C177 1.344 . S
O179 Co171 2.055 1_565 S
O179 C183 1.253 . S
H180 C176 0.931 . S
H181 C177 0.930 1_565 S
O182 Co171 2.039 1_565 S
O182 C172 1.265 1_565 S
C183 O179 1.253 . S
C183 O184 1.227 1_565 S
O184 C183 1.227 1_545 S
N185 Co171 2.140 . S
N185 C188 1.346 . S
N185 C189 1.345 . S
C186 C187 1.387 . S
C186 C190 1.391 . S
C187 C186 1.387 . S
C187 C188 1.369 . S
C187 H196 0.929 . S
C188 N185 1.346 . S
C188 C187 1.369 . S
C188 H191 0.928 . S
C189 N185 1.345 . S
C189 C190 1.371 . S
C189 H192 0.931 . S
C190 C186 1.391 . S
C190 C189 1.371 . S
C190 H197 0.930 . S
H191 C188 0.928 . S
H192 C189 0.931 . S
H193 C169 0.930 . S
H194 C166 0.930 . S
H195 C175 0.930 . S
H196 C187 0.929 . S
H197 C190 0.930 . S
C18 C117 2.225 . S
C51 C150 2.225 1_455 S
C183 C84 2.225 1_565 S
C87 C186 0.989 . S
C120 C21 0.988 1_455 S
C153 C54 0.988 1_545 S
C7 C106 0.956 1_445 S
C139 C40 0.955 1_465 S
C172 C73 0.955 1_445 S
N13 N167 2.245 . S
N2 N46 2.245 1_455 S
N35 N79 2.245 1_545 S
N68 N112 2.245 . S
N101 N145 2.245 1_655 S
N178 N134 2.245 1_545 S
