# Generated by pormake.
# Topology uni, (4)-cn, num edge types: 1
# Building blocks:
#     Node 0, Type 0, BuildingBlock: CEKHIL_clean_sbu_0, # of connection points: 4
#     Node 1, Type 0, BuildingBlock: CEKHIL_clean_sbu_0, # of connection points: 4
#     Node 2, Type 0, BuildingBlock: CEKHIL_clean_sbu_0, # of connection points: 4
#     Node 3, Type 0, BuildingBlock: CEKHIL_clean_sbu_0, # of connection points: 4
#     Node 4, Type 0, BuildingBlock: CEKHIL_clean_sbu_0, # of connection points: 4
#     Node 5, Type 0, BuildingBlock: CEKHIL_clean_sbu_0, # of connection points: 4
#     Edge 6, Type (0, 0), BuildingBlock: OJICUG_clean_linker_0, # of connection points: 2
#     Edge 7, Type (0, 0), BuildingBlock: OJICUG_clean_linker_0, # of connection points: 2
#     Edge 8, Type (0, 0), BuildingBlock: OJICUG_clean_linker_0, # of connection points: 2
#     Edge 9, Type (0, 0), BuildingBlock: OJICUG_clean_linker_0, # of connection points: 2
#     Edge 10, Type (0, 0), BuildingBlock: OJICUG_clean_linker_0, # of connection points: 2
#     Edge 11, Type (0, 0), BuildingBlock: OJICUG_clean_linker_0, # of connection points: 2
#     Edge 12, Type (0, 0), BuildingBlock: OJICUG_clean_linker_0, # of connection points: 2
#     Edge 13, Type (0, 0), BuildingBlock: OJICUG_clean_linker_0, # of connection points: 2
#     Edge 14, Type (0, 0), BuildingBlock: OJICUG_clean_linker_0, # of connection points: 2
#     Edge 15, Type (0, 0), BuildingBlock: OJICUG_clean_linker_0, # of connection points: 2
#     Edge 16, Type (0, 0), BuildingBlock: OJICUG_clean_linker_0, # of connection points: 2
#     Edge 17, Type (0, 0), BuildingBlock: OJICUG_clean_linker_0, # of connection points: 2
# Relax obj value: 0.073
# Max RMSD: 0.104
# Mean RMSD: 0.096
data_MOF--net-uni--node1-CEKHIL_clean_sbu_0--edge1-OJICUG_clean_linker_0
_symmetry_space_group_name_H-M    P1
_symmetry_Int_Tables_number       1
_symmetry_cell_setting            triclinic
loop_
_symmetry_equiv_pos_as_xyz
'x, y, z'
_cell_length_a     27.743337
_cell_length_b     27.510266
_cell_length_c     16.808532
_cell_angle_alpha  89.935204
_cell_angle_beta   89.9995
_cell_angle_gamma 121.19051
loop_
_atom_site_label
_atom_site_type_symbol
_atom_site_fract_x
_atom_site_fract_y
_atom_site_fract_z
_atom_type_partial_charge
Co0 Co 0.68305 0.03524 0.06797 0.0
O1 O 0.71565 1.00617 0.14181 0.0
O2 O 0.6503 0.95465 0.05217 0.0
C3 C 0.76578 0.11145 0.0294 0.0
O4 O 0.64007 0.04743 0.97974 0.0
Co5 Co 0.69309 0.15176 0.08005 0.0
O6 O 0.65596 0.13586 0.97443 0.0
C7 C 0.61436 0.05762 0.18672 0.0
C8 C 0.68372 0.95711 0.10815 0.0
C9 C 0.63342 0.08575 0.94662 0.0
O10 O 0.6235 0.02235 0.14902 0.0
O11 O 0.64096 0.11096 0.17147 0.0
O12 O 0.74769 0.06203 0.99724 0.0
O13 O 0.73518 0.11326 0.08587 0.0
Co14 Co 0.68449 0.67719 0.2386 0.0
O15 O 0.75107 0.71317 0.30553 0.0
O16 O 0.72892 0.64298 0.22074 0.0
C17 C 0.69086 0.75871 0.19861 0.0
O18 O 0.6249 0.63074 0.15598 0.0
Co19 Co 0.57806 0.68437 0.25593 0.0
O20 O 0.55228 0.64442 0.15214 0.0
C21 C 0.59621 0.60977 0.36413 0.0
C22 C 0.76385 0.6784 0.27289 0.0
C23 C 0.57892 0.62197 0.12442 0.0
O24 O 0.63992 0.61933 0.32422 0.0
O25 O 0.56901 0.63476 0.34926 0.0
O26 O 0.72066 0.7408 0.16371 0.0
O27 O 0.66005 0.7286 0.25757 0.0
Co28 Co 0.04403 0.67521 0.38003 0.0
O29 O 1.01484 0.71217 0.31438 0.0
O30 O 0.96385 0.63914 0.39474 0.0
C31 C 0.11902 0.75645 0.42533 0.0
O32 O 0.05579 0.62732 0.4607 0.0
Co33 Co 0.15989 0.68668 0.36392 0.0
O34 O 0.14395 0.64494 0.46637 0.0
C35 C 0.06781 0.61283 0.25192 0.0
C36 C 0.9659 0.67613 0.34474 0.0
C37 C 0.09363 0.61988 0.49243 0.0
O38 O 0.03246 0.62034 0.29164 0.0
O39 O 0.12048 0.63866 0.26838 0.0
O40 O 0.06988 0.73617 0.45841 0.0
O41 O 0.12124 0.72882 0.36486 0.0
Co42 Co 0.40409 0.03466 0.568 0.0
O43 O 0.37147 0.06364 0.64186 0.0
O44 O 0.43685 0.11528 0.55212 0.0
C45 C 0.32141 0.9585 0.52947 0.0
O46 O 0.4471 0.02254 0.47979 0.0
Co47 Co 0.39404 0.91812 0.58048 0.0
O48 O 0.43117 0.93408 0.47479 0.0
C49 C 0.47274 0.01222 0.68685 0.0
C50 C 0.40343 0.11275 0.60817 0.0
C51 C 0.45372 0.9842 0.4468 0.0
O52 O 0.4636 0.04749 0.64902 0.0
O53 O 0.44614 0.95888 0.6718 0.0
O54 O 0.3395 1.00796 0.4973 0.0
O55 O 0.35195 0.95663 0.58601 0.0
Co56 Co 0.40305 0.39264 0.7391 0.0
O57 O 0.33645 0.35664 0.80612 0.0
O58 O 0.35869 0.42691 0.72119 0.0
C59 C 0.39664 0.31113 0.69921 0.0
O60 O 0.46268 0.43911 0.65638 0.0
Co61 Co 0.50943 0.38536 0.75647 0.0
O62 O 0.53524 0.42534 0.65255 0.0
C63 C 0.49136 0.45999 0.86443 0.0
C64 C 0.32372 0.39147 0.77342 0.0
C65 C 0.50865 0.44784 0.62478 0.0
O66 O 0.44762 0.45042 0.82459 0.0
O67 O 0.51856 0.435 0.84961 0.0
O68 O 0.36688 0.3291 0.66433 0.0
O69 O 0.42743 0.34116 0.75812 0.0
Co70 Co 0.04366 0.39488 0.88052 0.0
O71 O 0.07283 0.35794 0.81493 0.0
O72 O 0.12381 0.43086 0.8952 0.0
C73 C 0.96857 0.31361 0.92583 0.0
O74 O 0.03191 0.44274 0.96109 0.0
Co75 Co 0.92785 0.38355 0.86446 0.0
O76 O 0.9438 0.42527 0.96678 0.0
C77 C 1.02 0.45738 0.75224 0.0
C78 C 0.12176 0.39391 0.84527 0.0
C79 C 0.99411 0.45025 0.99279 0.0
O80 O 0.05534 0.44986 0.79202 0.0
O81 O 0.96733 0.43154 0.76876 0.0
O82 O 1.01766 0.3338 0.95896 0.0
O83 O 0.96645 0.34137 0.86536 0.0
C84 C 0.55606 0.07386 0.28433 0.0
C85 C 0.57104 0.03669 0.25065 0.0
H86 H 0.50747 0.08653 0.37087 0.0
C87 C 0.54482 0.98063 0.27958 0.0
H88 H 0.57479 0.11721 0.26338 0.0
C89 C 0.50565 0.96282 0.3421 0.0
C90 C 0.49181 1.00066 0.37675 0.0
H91 H 0.55521 0.95082 0.25495 0.0
H92 H 0.48701 0.91974 0.36412 0.0
C93 C 0.51708 0.05613 0.34621 0.0
C94 C 0.52291 0.55171 0.46564 0.0
C95 C 0.57467 0.56725 0.42958 0.0
H96 H 0.46176 0.50225 0.55358 0.0
C97 C 0.60442 0.54172 0.4568 0.0
H98 H 0.49837 0.5699 0.4462 0.0
C99 C 0.58306 0.50224 0.5196 0.0
C100 C 0.53149 0.48745 0.55599 0.0
H101 H 0.64436 0.5526 0.43023 0.0
H102 H 0.60714 0.48378 0.54002 0.0
C103 C 0.50167 0.51248 0.52756 0.0
C104 C 1.00216 0.50997 0.64635 0.0
C105 C 0.04028 0.49888 0.68548 0.0
H106 H 0.9889 0.55633 0.55646 0.0
C107 C 0.09702 0.52853 0.66092 0.0
H108 H 0.95818 0.48835 0.66342 0.0
C109 C 0.11492 0.56817 0.59846 0.0
C110 C 0.07645 0.57903 0.55965 0.0
H111 H 0.12757 0.52115 0.68981 0.0
H112 H 0.15877 0.5902 0.58065 0.0
C113 C 1.01994 0.54939 0.58468 0.0
C114 C 0.57004 0.01377 0.84637 0.0
C115 C 0.59531 0.06926 0.87665 0.0
H116 H 0.51232 0.95266 0.7638 0.0
C117 C 0.58145 0.10708 0.84184 0.0
H118 H 0.57966 0.98339 0.87116 0.0
C119 C 0.54227 0.08923 0.7794 0.0
C120 C 0.51605 0.03316 0.75072 0.0
H121 H 0.60008 0.15016 0.86367 0.0
H122 H 0.53186 0.11903 0.75464 0.0
C123 C 0.53104 0.99601 0.78456 0.0
C124 C 0.50448 0.5675 0.01952 0.0
C125 C 0.5561 0.58236 0.05577 0.0
H126 H 0.44314 0.51706 0.93042 0.0
C127 C 0.58596 0.5574 0.02737 0.0
H128 H 0.48037 0.58591 0.03991 0.0
C129 C 0.56471 0.51814 0.96561 0.0
C130 C 0.51291 0.50252 0.9297 0.0
H131 H 0.6259 0.56769 0.05329 0.0
H132 H 0.58929 0.50001 0.94618 0.0
C133 C 0.48312 0.528 0.95688 0.0
C134 C 0.06783 0.52073 0.08479 0.0
C135 C 1.01132 0.49111 0.05985 0.0
H136 H 0.12961 0.58178 0.16328 0.0
C137 C 0.97287 0.50201 0.0986 0.0
H138 H 0.09885 0.51374 0.05661 0.0
C139 C 0.99079 0.54168 0.16087 0.0
C140 C 0.04753 0.57131 0.18533 0.0
H141 H 0.92902 0.48001 0.08085 0.0
H142 H 0.96026 0.54909 0.18971 0.0
C143 C 0.08563 0.56017 0.14628 0.0
C144 C 0.68561 0.82062 0.09391 0.0
C145 C 0.6916 0.81049 0.17404 0.0
H146 H 0.67651 0.87458 0.01051 0.0
C147 C 0.69549 0.84901 0.23218 0.0
H148 H 0.68204 0.79115 0.04828 0.0
C149 C 0.6941 0.89736 0.21056 0.0
C150 C 0.68649 0.90677 0.13076 0.0
H151 H 0.70002 0.84187 0.29443 0.0
H152 H 0.69761 0.92668 0.25641 0.0
C153 C 0.68204 0.86793 0.07257 0.0
C154 C 0.86292 0.62622 0.31712 0.0
C155 C 0.91475 0.67733 0.32503 0.0
H156 H 0.77461 0.5868 0.29261 0.0
C157 C 0.91668 0.72916 0.31713 0.0
H158 H 0.86042 0.58575 0.32313 0.0
C159 C 0.86719 0.72974 0.30277 0.0
C160 C 0.81559 0.67852 0.29326 0.0
H161 H 0.95617 0.7691 0.32374 0.0
H162 H 0.86944 0.77011 0.29724 0.0
C163 C 0.81396 0.62682 0.29984 0.0
C164 C 0.18253 0.81845 0.53423 0.0
C165 C 0.16972 0.80867 0.45297 0.0
H166 H 0.24222 0.87333 0.622 0.0
C167 C 0.20677 0.84861 0.39709 0.0
H168 H 0.15467 0.78798 0.57819 0.0
C169 C 0.25558 0.89807 0.42208 0.0
C170 C 0.2692 0.90722 0.50315 0.0
H171 H 0.1976 0.84183 0.33403 0.0
H172 H 0.28333 0.92851 0.37799 0.0
C173 C 0.23254 0.86692 0.55906 0.0
C174 C 0.39298 0.22123 0.73274 0.0
C175 C 0.39594 0.2594 0.67457 0.0
H176 H 0.39144 0.1438 0.75684 0.0
C177 C 0.40087 0.2489 0.59425 0.0
H178 H 0.38924 0.22863 0.79512 0.0
C179 C 0.40433 0.20158 0.57271 0.0
C180 C 0.40078 0.16309 0.63094 0.0
H181 H 0.40368 0.27807 0.54857 0.0
H182 H 0.40904 0.19464 0.51048 0.0
C183 C 0.39424 0.17285 0.71097 0.0
C184 C 0.17091 0.34081 0.81776 0.0
C185 C 0.17289 0.39266 0.82558 0.0
H186 H 0.21808 0.2998 0.79793 0.0
C187 C 0.22476 0.44375 0.8176 0.0
H188 H 0.13138 0.30088 0.82442 0.0
C189 C 0.27369 0.44311 0.80032 0.0
C190 C 0.27201 0.39139 0.79382 0.0
H191 H 0.22729 0.48423 0.82355 0.0
H192 H 0.31307 0.48312 0.79303 0.0
C193 C 0.22037 0.34018 0.8034 0.0
C194 C 0.88092 0.2215 0.89738 0.0
C195 C 0.91782 0.26131 0.95335 0.0
H196 H 0.80437 0.14168 0.87805 0.0
C197 C 0.90476 0.25138 0.03457 0.0
H198 H 0.89028 0.22841 0.83435 0.0
C199 C 0.85464 0.20289 0.05924 0.0
C200 C 0.81813 0.16272 0.00323 0.0
H201 H 0.93249 0.28176 0.0786 0.0
H202 H 0.84477 0.19637 0.12215 0.0
C203 C 0.832 0.17202 0.92222 0.0
loop_
_geom_bond_atom_site_label_1
_geom_bond_atom_site_label_2
_geom_bond_distance
_geom_bond_site_symmetry_2
_ccdc_geom_bond_type
Co0 O1 2.216 1_545 S
Co0 O2 2.091 1_545 S
Co0 O4 2.004 1_554 S
Co0 O10 2.021 1_545 S
Co0 O12 2.137 1_554 S
Co0 O13 2.244 . S
O1 Co0 2.216 1_565 S
O1 C8 1.247 . S
O2 Co0 2.091 1_565 S
O2 C8 1.261 . S
C3 O12 1.247 1_554 S
C3 O13 1.272 . S
O4 Co0 2.004 1_556 S
O4 C9 1.259 . S
Co5 O6 2.061 1_554 S
Co5 O11 2.052 . S
Co5 O13 2.135 . S
O6 Co5 2.061 1_556 S
O6 C9 1.235 . S
C7 O10 1.238 1_545 S
C7 O11 1.241 . S
C8 O1 1.247 . S
C8 O2 1.261 . S
C9 O4 1.259 . S
C9 O6 1.235 . S
O10 Co0 2.021 1_565 S
O10 C7 1.238 1_565 S
O11 Co5 2.052 . S
O11 C7 1.241 . S
O12 Co0 2.137 1_556 S
O12 C3 1.247 1_556 S
O13 Co0 2.244 . S
O13 C3 1.272 . S
O13 Co5 2.135 . S
Co14 O15 2.216 . S
Co14 O16 2.091 . S
Co14 O18 2.004 . S
Co14 O24 2.021 . S
Co14 O26 2.137 . S
Co14 O27 2.244 . S
O15 Co14 2.216 . S
O15 C22 1.247 . S
O16 Co14 2.091 . S
O16 C22 1.261 . S
C17 O26 1.247 . S
C17 O27 1.272 . S
O18 Co14 2.004 . S
O18 C23 1.259 . S
Co19 O20 2.061 . S
Co19 O25 2.052 . S
Co19 O27 2.135 . S
O20 Co19 2.061 . S
O20 C23 1.235 . S
C21 O24 1.238 . S
C21 O25 1.241 . S
C22 O15 1.247 . S
C22 O16 1.261 . S
C23 O18 1.259 . S
C23 O20 1.235 . S
O24 Co14 2.021 . S
O24 C21 1.238 . S
O25 Co19 2.052 . S
O25 C21 1.241 . S
O26 Co14 2.137 . S
O26 C17 1.247 . S
O27 Co14 2.244 . S
O27 C17 1.272 . S
O27 Co19 2.135 . S
Co28 O29 2.216 1_455 S
Co28 O30 2.091 1_455 S
Co28 O32 2.004 . S
Co28 O38 2.021 1_455 S
Co28 O40 2.137 . S
Co28 O41 2.244 . S
O29 Co28 2.216 1_655 S
O29 C36 1.247 . S
O30 Co28 2.091 1_655 S
O30 C36 1.261 . S
C31 O40 1.247 . S
C31 O41 1.272 . S
O32 Co28 2.004 . S
O32 C37 1.259 . S
Co33 O34 2.061 . S
Co33 O39 2.052 . S
Co33 O41 2.135 . S
O34 Co33 2.061 . S
O34 C37 1.235 . S
C35 O38 1.238 1_455 S
C35 O39 1.241 . S
C36 O29 1.247 . S
C36 O30 1.261 . S
C37 O32 1.259 . S
C37 O34 1.235 . S
O38 Co28 2.021 1_655 S
O38 C35 1.238 1_655 S
O39 Co33 2.052 . S
O39 C35 1.241 . S
O40 Co28 2.137 . S
O40 C31 1.247 . S
O41 Co28 2.244 . S
O41 C31 1.272 . S
O41 Co33 2.135 . S
Co42 O43 2.216 . S
Co42 O44 2.091 . S
Co42 O46 2.004 . S
Co42 O52 2.021 . S
Co42 O54 2.137 1_545 S
Co42 O55 2.244 1_545 S
O43 Co42 2.216 . S
O43 C50 1.247 . S
O44 Co42 2.091 . S
O44 C50 1.261 . S
C45 O54 1.247 . S
C45 O55 1.272 . S
O46 Co42 2.004 . S
O46 C51 1.259 . S
Co47 O48 2.061 . S
Co47 O53 2.052 . S
Co47 O55 2.135 . S
O48 Co47 2.061 . S
O48 C51 1.235 1_565 S
C49 O52 1.238 . S
C49 O53 1.241 1_545 S
C50 O43 1.247 . S
C50 O44 1.261 . S
C51 O46 1.259 . S
C51 O48 1.235 1_545 S
O52 Co42 2.021 . S
O52 C49 1.238 . S
O53 Co47 2.052 . S
O53 C49 1.241 1_565 S
O54 Co42 2.137 1_565 S
O54 C45 1.247 . S
O55 Co42 2.244 1_565 S
O55 C45 1.272 . S
O55 Co47 2.135 . S
Co56 O57 2.216 . S
Co56 O58 2.091 . S
Co56 O60 2.004 . S
Co56 O66 2.021 . S
Co56 O68 2.137 . S
Co56 O69 2.244 . S
O57 Co56 2.216 . S
O57 C64 1.247 . S
O58 Co56 2.091 . S
O58 C64 1.261 . S
C59 O68 1.247 . S
C59 O69 1.272 . S
O60 Co56 2.004 . S
O60 C65 1.259 . S
Co61 O62 2.061 . S
Co61 O67 2.052 . S
Co61 O69 2.135 . S
O62 Co61 2.061 . S
O62 C65 1.235 . S
C63 O66 1.238 . S
C63 O67 1.241 . S
C64 O57 1.247 . S
C64 O58 1.261 . S
C65 O60 1.259 . S
C65 O62 1.235 . S
O66 Co56 2.021 . S
O66 C63 1.238 . S
O67 Co61 2.052 . S
O67 C63 1.241 . S
O68 Co56 2.137 . S
O68 C59 1.247 . S
O69 Co56 2.244 . S
O69 C59 1.272 . S
O69 Co61 2.135 . S
Co70 O71 2.216 . S
Co70 O72 2.091 . S
Co70 O74 2.004 1_556 S
Co70 O80 2.021 . S
Co70 O82 2.137 1_455 S
Co70 O83 2.244 1_455 S
O71 Co70 2.216 . S
O71 C78 1.247 . S
O72 Co70 2.091 . S
O72 C78 1.261 . S
C73 O82 1.247 . S
C73 O83 1.272 . S
O74 Co70 2.004 1_554 S
O74 C79 1.259 . S
Co75 O76 2.061 . S
Co75 O81 2.052 . S
Co75 O83 2.135 . S
O76 Co75 2.061 . S
O76 C79 1.235 1_656 S
C77 O80 1.238 . S
C77 O81 1.241 1_455 S
C78 O71 1.247 . S
C78 O72 1.261 . S
C79 O74 1.259 . S
C79 O76 1.235 1_454 S
O80 Co70 2.021 . S
O80 C77 1.238 . S
O81 Co75 2.052 . S
O81 C77 1.241 1_655 S
O82 Co70 2.137 1_655 S
O82 C73 1.247 . S
O83 Co70 2.244 1_655 S
O83 C73 1.272 . S
O83 Co75 2.135 . S
C84 C85 1.387 . S
C84 H88 0.950 . S
C84 C93 1.390 . S
C85 C84 1.387 . S
C85 C87 1.387 1_545 S
H86 C93 0.950 . S
C87 C85 1.387 1_565 S
C87 C89 1.390 . S
C87 H91 0.950 . S
H88 C84 0.950 . S
C89 C87 1.390 . S
C89 C90 1.387 1_565 S
C89 H92 0.950 . S
C90 C89 1.387 1_545 S
C90 C93 1.387 . S
H91 C87 0.950 . S
H92 C89 0.950 . S
C93 C84 1.390 . S
C93 H86 0.950 . S
C93 C90 1.387 . S
C94 C95 1.387 . S
C94 H98 0.950 . S
C94 C103 1.390 . S
C95 C94 1.387 . S
C95 C97 1.387 . S
H96 C103 0.950 . S
C97 C95 1.387 . S
C97 C99 1.390 . S
C97 H101 0.950 . S
H98 C94 0.950 . S
C99 C97 1.390 . S
C99 C100 1.387 . S
C99 H102 0.950 . S
C100 C99 1.387 . S
C100 C103 1.387 . S
H101 C97 0.950 . S
H102 C99 0.950 . S
C103 C94 1.390 . S
C103 H96 0.950 . S
C103 C100 1.387 . S
C104 C105 1.388 . S
C104 H108 0.949 1_455 S
C104 C113 1.390 . S
C105 C104 1.388 . S
C105 C107 1.387 . S
H106 C113 0.950 1_655 S
C107 C105 1.387 . S
C107 C109 1.390 . S
C107 H111 0.950 . S
H108 C104 0.949 1_655 S
C109 C107 1.390 . S
C109 C110 1.387 . S
C109 H112 0.950 . S
C110 C109 1.387 . S
C110 C113 1.387 . S
H111 C107 0.950 . S
H112 C109 0.950 . S
C113 C104 1.390 . S
C113 H106 0.950 1_455 S
C113 C110 1.387 . S
C114 C115 1.387 1_565 S
C114 H118 0.950 . S
C114 C123 1.390 . S
C115 C114 1.387 1_545 S
C115 C117 1.387 . S
H116 C123 0.950 . S
C117 C115 1.387 . S
C117 C119 1.390 . S
C117 H121 0.950 . S
H118 C114 0.950 . S
C119 C117 1.390 . S
C119 C120 1.387 . S
C119 H122 0.950 . S
C120 C119 1.387 . S
C120 C123 1.387 1_545 S
H121 C117 0.950 . S
H122 C119 0.950 . S
C123 C114 1.390 . S
C123 H116 0.950 . S
C123 C120 1.387 1_565 S
C124 C125 1.387 1_556 S
C124 H128 0.950 1_556 S
C124 C133 1.390 . S
C125 C124 1.387 1_554 S
C125 C127 1.384 1_554 S
H126 C133 0.950 . S
C127 C125 1.384 1_556 S
C127 C129 1.398 . S
C127 H131 0.945 1_556 S
H128 C124 0.950 1_554 S
C129 C127 1.398 . S
C129 C130 1.387 . S
C129 H132 0.950 . S
C130 C129 1.387 . S
C130 C133 1.387 . S
H131 C127 0.945 1_554 S
H132 C129 0.950 . S
C133 C124 1.390 . S
C133 H126 0.950 . S
C133 C130 1.387 . S
C134 C135 1.387 . S
C134 H138 0.950 . S
C134 C143 1.390 . S
C135 C134 1.387 . S
C135 C137 1.387 1_455 S
H136 C143 0.950 . S
C137 C135 1.387 1_655 S
C137 C139 1.390 . S
C137 H141 0.950 . S
H138 C134 0.950 . S
C139 C137 1.390 . S
C139 C140 1.387 1_655 S
C139 H142 0.950 . S
C140 C139 1.387 1_455 S
C140 C143 1.387 . S
H141 C137 0.950 . S
H142 C139 0.950 . S
C143 C134 1.390 . S
C143 H136 0.950 . S
C143 C140 1.387 . S
C144 C145 1.387 . S
C144 H148 0.950 . S
C144 C153 1.390 . S
C145 C144 1.387 . S
C145 C147 1.387 . S
H146 C153 0.950 . S
C147 C145 1.387 . S
C147 C149 1.390 . S
C147 H151 0.950 . S
H148 C144 0.950 . S
C149 C147 1.390 . S
C149 C150 1.387 . S
C149 H152 0.950 . S
C150 C149 1.387 . S
C150 C153 1.387 . S
H151 C147 0.950 . S
H152 C149 0.950 . S
C153 C144 1.390 . S
C153 H146 0.950 . S
C153 C150 1.387 . S
C154 C155 1.387 . S
C154 H158 0.950 . S
C154 C163 1.390 . S
C155 C154 1.387 . S
C155 C157 1.387 . S
H156 C163 0.950 . S
C157 C155 1.387 . S
C157 C159 1.390 . S
C157 H161 0.950 . S
H158 C154 0.950 . S
C159 C157 1.390 . S
C159 C160 1.387 . S
C159 H162 0.950 . S
C160 C159 1.387 . S
C160 C163 1.387 . S
H161 C157 0.950 . S
H162 C159 0.950 . S
C163 C154 1.390 . S
C163 H156 0.950 . S
C163 C160 1.387 . S
C164 C165 1.387 . S
C164 H168 0.950 . S
C164 C173 1.390 . S
C165 C164 1.387 . S
C165 C167 1.387 . S
H166 C173 0.950 . S
C167 C165 1.387 . S
C167 C169 1.390 . S
C167 H171 0.950 . S
H168 C164 0.950 . S
C169 C167 1.390 . S
C169 C170 1.387 . S
C169 H172 0.950 . S
C170 C169 1.387 . S
C170 C173 1.387 . S
H171 C167 0.950 . S
H172 C169 0.950 . S
C173 C164 1.390 . S
C173 H166 0.950 . S
C173 C170 1.387 . S
C174 C175 1.387 . S
C174 H178 0.950 . S
C174 C183 1.390 . S
C175 C174 1.387 . S
C175 C177 1.387 . S
H176 C183 0.950 . S
C177 C175 1.387 . S
C177 C179 1.390 . S
C177 H181 0.950 . S
H178 C174 0.950 . S
C179 C177 1.390 . S
C179 C180 1.387 . S
C179 H182 0.950 . S
C180 C179 1.387 . S
C180 C183 1.387 . S
H181 C177 0.950 . S
H182 C179 0.950 . S
C183 C174 1.390 . S
C183 H176 0.950 . S
C183 C180 1.387 . S
C184 C185 1.387 . S
C184 H188 0.950 . S
C184 C193 1.390 . S
C185 C184 1.387 . S
C185 C187 1.387 . S
H186 C193 0.950 . S
C187 C185 1.387 . S
C187 C189 1.390 . S
C187 H191 0.950 . S
H188 C184 0.950 . S
C189 C187 1.390 . S
C189 C190 1.387 . S
C189 H192 0.950 . S
C190 C189 1.387 . S
C190 C193 1.387 . S
H191 C187 0.950 . S
H192 C189 0.950 . S
C193 C184 1.390 . S
C193 H186 0.950 . S
C193 C190 1.387 . S
C194 C195 1.387 . S
C194 H198 0.950 . S
C194 C203 1.390 . S
C195 C194 1.387 . S
C195 C197 1.387 1_556 S
H196 C203 0.950 . S
C197 C195 1.387 1_554 S
C197 C199 1.390 . S
C197 H201 0.950 . S
H198 C194 0.950 . S
C199 C197 1.390 . S
C199 C200 1.387 1_554 S
C199 H202 0.950 . S
C200 C199 1.387 1_556 S
C200 C203 1.387 . S
H201 C197 0.950 . S
H202 C199 0.950 . S
C203 C194 1.390 . S
C203 H196 0.950 . S
C203 C200 1.387 . S
C85 C7 1.615 . S
C90 C51 1.643 . S
C95 C21 1.571 . S
C100 C65 1.595 . S
C105 C77 1.595 . S
C110 C37 1.619 . S
C115 C9 1.642 . S
C120 C49 1.615 . S
C125 C23 1.594 . S
C130 C63 1.569 . S
C135 C79 1.620 . S
C140 C35 1.596 . S
C145 C17 1.432 . S
C150 C8 1.425 . S
C155 C36 1.408 . S
C160 C22 1.405 . S
C165 C31 1.454 . S
C170 C45 1.454 . S
C175 C59 1.431 . S
C180 C50 1.426 . S
C185 C78 1.407 . S
C190 C64 1.405 . S
C195 C73 1.453 . S
C200 C3 1.455 1_556 S
