# Generated by pormake.
# Topology npo, (4)-cn, num edge types: 1
# Building blocks:
#     Node 0, Type 0, BuildingBlock: GALJAG_clean_sbu_0, # of connection points: 4
#     Node 1, Type 0, BuildingBlock: GALJAG_clean_sbu_0, # of connection points: 4
#     Node 2, Type 0, BuildingBlock: GALJAG_clean_sbu_0, # of connection points: 4
#     Node 3, Type 0, BuildingBlock: GALJAG_clean_sbu_0, # of connection points: 4
#     Node 4, Type 0, BuildingBlock: GALJAG_clean_sbu_0, # of connection points: 4
#     Node 5, Type 0, BuildingBlock: GALJAG_clean_sbu_0, # of connection points: 4
#     Edge 6, Type (0, 0), BuildingBlock: EYOCIG_clean_linker_4, # of connection points: 2
#     Edge 7, Type (0, 0), BuildingBlock: EYOCIG_clean_linker_4, # of connection points: 2
#     Edge 8, Type (0, 0), BuildingBlock: EYOCIG_clean_linker_4, # of connection points: 2
#     Edge 9, Type (0, 0), BuildingBlock: EYOCIG_clean_linker_4, # of connection points: 2
#     Edge 10, Type (0, 0), BuildingBlock: EYOCIG_clean_linker_4, # of connection points: 2
#     Edge 11, Type (0, 0), BuildingBlock: EYOCIG_clean_linker_4, # of connection points: 2
#     Edge 12, Type (0, 0), BuildingBlock: EYOCIG_clean_linker_4, # of connection points: 2
#     Edge 13, Type (0, 0), BuildingBlock: EYOCIG_clean_linker_4, # of connection points: 2
#     Edge 14, Type (0, 0), BuildingBlock: EYOCIG_clean_linker_4, # of connection points: 2
#     Edge 15, Type (0, 0), BuildingBlock: EYOCIG_clean_linker_4, # of connection points: 2
#     Edge 16, Type (0, 0), BuildingBlock: EYOCIG_clean_linker_4, # of connection points: 2
#     Edge 17, Type (0, 0), BuildingBlock: EYOCIG_clean_linker_4, # of connection points: 2
# Relax obj value: 0.168
# Max RMSD: 0.203
# Mean RMSD: 0.203
data_MOF--net-npo--node1-GALJAG_clean_sbu_0--edge1-EYOCIG_clean_linker_4
_symmetry_space_group_name_H-M    P1
_symmetry_Int_Tables_number       1
_symmetry_cell_setting            triclinic
loop_
_symmetry_equiv_pos_as_xyz
'x, y, z'
_cell_length_a     37.742626
_cell_length_b     37.762037
_cell_length_c     17.548895
_cell_angle_alpha  89.971696
_cell_angle_beta   89.996135
_cell_angle_gamma 120.03625
loop_
_atom_site_label
_atom_site_type_symbol
_atom_site_fract_x
_atom_site_fract_y
_atom_site_fract_z
_atom_type_partial_charge
In0 In 0.54543 0.11399 0.23391 0.0
O1 O 0.50872 0.07901 0.12932 0.0
O2 O 0.55647 0.06859 0.16629 0.0
C3 C 0.52177 0.17034 0.23985 0.0
C4 C 0.50865 0.06077 0.34933 0.0
C5 C 0.6257 0.16972 0.22553 0.0
O6 O 0.51504 0.14764 0.18272 0.0
O7 O 0.53868 0.16359 0.2955 0.0
O8 O 0.60979 0.14814 0.28402 0.0
O9 O 0.60185 0.16213 0.1699 0.0
C10 C 0.52785 0.05997 0.1198 0.0
O11 O 0.54678 0.079 0.33895 0.0
O12 O 0.48891 0.06987 0.30312 0.0
In13 In 0.42124 0.55232 0.73403 0.0
O14 O 0.41953 0.51529 0.62995 0.0
O15 O 0.47763 0.56373 0.66561 0.0
C16 C 0.3411 0.52846 0.74087 0.0
C17 C 0.43832 0.51613 0.84945 0.0
C18 C 0.44589 0.63254 0.72596 0.0
O19 O 0.35707 0.52222 0.68315 0.0
O20 O 0.36481 0.54498 0.79658 0.0
O21 O 0.45184 0.61662 0.78409 0.0
O22 O 0.4292 0.60869 0.6705 0.0
C23 C 0.45768 0.53478 0.61974 0.0
O24 O 0.4577 0.55426 0.83921 0.0
O25 O 0.40966 0.49605 0.80306 0.0
In26 In 0.85792 0.42566 0.23428 0.0
O27 O 0.89338 0.42519 0.12942 0.0
O28 O 0.90267 0.48279 0.1672 0.0
C29 C 0.80185 0.34544 0.23878 0.0
C30 C 0.91106 0.44177 0.34959 0.0
C31 C 0.80177 0.44959 0.22853 0.0
O32 O 0.82437 0.36191 0.18156 0.0
O33 O 0.80867 0.36868 0.29509 0.0
O34 O 0.82386 0.45541 0.28627 0.0
O35 O 0.80906 0.43349 0.17226 0.0
C36 C 0.91183 0.46339 0.12032 0.0
O37 O 0.8925 0.46137 0.34 0.0
O38 O 0.90238 0.41339 0.30254 0.0
In39 In 0.4205 0.86327 0.73374 0.0
O40 O 0.41816 0.89747 0.83905 0.0
O41 O 0.47658 0.9083 0.8028 0.0
C42 C 0.3405 0.80663 0.72773 0.0
C43 C 0.43677 0.91684 0.61901 0.0
C44 C 0.44572 0.80808 0.73947 0.0
O45 O 0.35651 0.829 0.78522 0.0
O46 O 0.36411 0.81377 0.67184 0.0
O47 O 0.45137 0.83021 0.68185 0.0
O48 O 0.42908 0.81481 0.79555 0.0
C49 C 0.45629 0.91648 0.84937 0.0
O50 O 0.45697 0.89895 0.62933 0.0
O51 O 0.40777 0.90732 0.66507 0.0
In52 In 0.54598 0.42619 0.23434 0.0
O53 O 0.54832 0.46332 0.12984 0.0
O54 O 0.48993 0.41529 0.16542 0.0
C55 C 0.6259 0.44965 0.24278 0.0
C56 C 0.52909 0.46241 0.34991 0.0
C57 C 0.52163 0.34608 0.22539 0.0
O58 O 0.61049 0.45672 0.18515 0.0
O59 O 0.60172 0.4325 0.29768 0.0
O60 O 0.51489 0.36159 0.28321 0.0
O61 O 0.53882 0.37025 0.1705 0.0
C62 C 0.51018 0.44411 0.1194 0.0
O63 O 0.5092 0.42434 0.33901 0.0
O64 O 0.55806 0.48237 0.30401 0.0
In65 In 0.10823 0.55104 0.73441 0.0
O66 O 0.07372 0.51523 0.8402 0.0
O67 O 0.06367 0.56311 0.80257 0.0
C68 C 0.16462 0.52746 0.7269 0.0
C69 C 0.0546 0.51394 0.61981 0.0
C70 C 0.16424 0.63109 0.742 0.0
O71 O 0.14185 0.52027 0.78416 0.0
O72 O 0.15786 0.54472 0.67188 0.0
O73 O 0.14194 0.61534 0.68427 0.0
O74 O 0.15721 0.60719 0.79734 0.0
C75 C 0.05513 0.53481 0.84979 0.0
O76 O 0.0732 0.55212 0.62925 0.0
O77 O 0.06345 0.49428 0.66667 0.0
C78 C 0.51131 0.23435 0.23424 0.0
C79 C 0.51617 0.20518 0.2372 0.0
C80 C 0.51125 0.2716 0.22892 0.0
C81 C 0.5161 0.30565 0.22676 0.0
C82 C 0.26648 0.51782 0.73646 0.0
C83 C 0.30058 0.52277 0.73895 0.0
C84 C 0.22905 0.51758 0.73137 0.0
C85 C 0.19968 0.52217 0.72896 0.0
C86 C 0.70047 0.23357 0.22815 0.0
C87 C 0.6663 0.20448 0.22644 0.0
C88 C 0.73786 0.27085 0.23288 0.0
C89 C 0.76706 0.30492 0.23573 0.0
C90 C 0.45715 0.74466 0.73422 0.0
C91 C 0.45187 0.77357 0.73692 0.0
C92 C 0.45715 0.70736 0.72926 0.0
C93 C 0.45191 0.67317 0.72725 0.0
C94 C 0.70033 0.45986 0.23914 0.0
C95 C 0.66631 0.45508 0.24136 0.0
C96 C 0.73764 0.45988 0.23389 0.0
C97 C 0.76686 0.4551 0.23099 0.0
C98 C 0.2659 0.7427 0.73276 0.0
C99 C 0.29999 0.77183 0.72999 0.0
C100 C 0.22847 0.70551 0.73793 0.0
C101 C 0.1992 0.6715 0.74021 0.0
C102 C 0.4899 0.97262 0.9568 0.0
C103 C 0.47533 0.94714 0.90732 0.0
C104 C 0.50515 0.00314 0.01369 0.0
C105 C 0.51618 0.02893 0.06261 0.0
C106 C 0.50707 0.49664 0.457 0.0
C107 C 0.51778 0.48181 0.40768 0.0
C108 C 0.49189 0.51208 0.51374 0.0
C109 C 0.47713 0.52315 0.5626 0.0
C110 C -0.0009 0.51344 0.95723 0.0
C111 C 0.02453 0.52388 0.90769 0.0
C112 C 0.96862 0.49838 0.01426 0.0
C113 C 0.94287 0.48344 0.06328 0.0
C114 C 0.47397 0.00413 0.45584 0.0
C115 C 0.48895 0.02984 0.40674 0.0
C116 C 0.45858 0.97347 0.51258 0.0
C117 C 0.44782 0.94777 0.56169 0.0
C118 C 0.46096 0.48217 0.95608 0.0
C119 C 0.44995 0.49684 0.90693 0.0
C120 C 0.47635 0.46692 0.0128 0.0
C121 C 0.49107 0.45592 0.06187 0.0
C122 C -0.00198 0.47911 0.51333 0.0
C123 C 0.02369 0.49415 0.56244 0.0
C124 C 0.96747 0.46367 0.45643 0.0
C125 C 0.94189 0.4529 0.40711 0.0
loop_
_geom_bond_atom_site_label_1
_geom_bond_atom_site_label_2
_geom_bond_distance
_geom_bond_site_symmetry_2
_ccdc_geom_bond_type
In0 O1 2.294 . S
In0 O2 2.326 . S
In0 O6 2.266 . S
In0 O7 2.326 . S
In0 O8 2.266 . S
In0 O9 2.326 . S
In0 O11 2.294 . S
In0 O12 2.326 . S
O1 In0 2.294 . S
O1 C10 1.240 . S
O2 In0 2.326 . S
O2 C10 1.252 . S
C3 O6 1.252 . S
C3 O7 1.260 . S
C4 O11 1.240 . S
C4 O12 1.252 . S
C5 O8 1.252 . S
C5 O9 1.260 . S
O6 In0 2.266 . S
O6 C3 1.252 . S
O7 In0 2.326 . S
O7 C3 1.260 . S
O8 In0 2.266 . S
O8 C5 1.252 . S
O9 In0 2.326 . S
O9 C5 1.260 . S
C10 O1 1.240 . S
C10 O2 1.252 . S
O11 In0 2.294 . S
O11 C4 1.240 . S
O12 In0 2.326 . S
O12 C4 1.252 . S
In13 O14 2.294 . S
In13 O15 2.326 . S
In13 O19 2.266 . S
In13 O20 2.326 . S
In13 O21 2.266 . S
In13 O22 2.326 . S
In13 O24 2.294 . S
In13 O25 2.326 . S
O14 In13 2.294 . S
O14 C23 1.240 . S
O15 In13 2.326 . S
O15 C23 1.252 . S
C16 O19 1.252 . S
C16 O20 1.260 . S
C17 O24 1.240 . S
C17 O25 1.252 . S
C18 O21 1.252 . S
C18 O22 1.260 . S
O19 In13 2.266 . S
O19 C16 1.252 . S
O20 In13 2.326 . S
O20 C16 1.260 . S
O21 In13 2.266 . S
O21 C18 1.252 . S
O22 In13 2.326 . S
O22 C18 1.260 . S
C23 O14 1.240 . S
C23 O15 1.252 . S
O24 In13 2.294 . S
O24 C17 1.240 . S
O25 In13 2.326 . S
O25 C17 1.252 . S
In26 O27 2.294 . S
In26 O28 2.326 . S
In26 O32 2.266 . S
In26 O33 2.326 . S
In26 O34 2.266 . S
In26 O35 2.326 . S
In26 O37 2.294 . S
In26 O38 2.326 . S
O27 In26 2.294 . S
O27 C36 1.240 . S
O28 In26 2.326 . S
O28 C36 1.252 . S
C29 O32 1.252 . S
C29 O33 1.260 . S
C30 O37 1.240 . S
C30 O38 1.252 . S
C31 O34 1.252 . S
C31 O35 1.260 . S
O32 In26 2.266 . S
O32 C29 1.252 . S
O33 In26 2.326 . S
O33 C29 1.260 . S
O34 In26 2.266 . S
O34 C31 1.252 . S
O35 In26 2.326 . S
O35 C31 1.260 . S
C36 O27 1.240 . S
C36 O28 1.252 . S
O37 In26 2.294 . S
O37 C30 1.240 . S
O38 In26 2.326 . S
O38 C30 1.252 . S
In39 O40 2.294 . S
In39 O41 2.326 . S
In39 O45 2.266 . S
In39 O46 2.326 . S
In39 O47 2.266 . S
In39 O48 2.326 . S
In39 O50 2.294 . S
In39 O51 2.326 . S
O40 In39 2.294 . S
O40 C49 1.240 . S
O41 In39 2.326 . S
O41 C49 1.252 . S
C42 O45 1.252 . S
C42 O46 1.260 . S
C43 O50 1.240 . S
C43 O51 1.252 . S
C44 O47 1.252 . S
C44 O48 1.260 . S
O45 In39 2.266 . S
O45 C42 1.252 . S
O46 In39 2.326 . S
O46 C42 1.260 . S
O47 In39 2.266 . S
O47 C44 1.252 . S
O48 In39 2.326 . S
O48 C44 1.260 . S
C49 O40 1.240 . S
C49 O41 1.252 . S
O50 In39 2.294 . S
O50 C43 1.240 . S
O51 In39 2.326 . S
O51 C43 1.252 . S
In52 O53 2.294 . S
In52 O54 2.326 . S
In52 O58 2.266 . S
In52 O59 2.326 . S
In52 O60 2.266 . S
In52 O61 2.326 . S
In52 O63 2.294 . S
In52 O64 2.326 . S
O53 In52 2.294 . S
O53 C62 1.240 . S
O54 In52 2.326 . S
O54 C62 1.252 . S
C55 O58 1.252 . S
C55 O59 1.260 . S
C56 O63 1.240 . S
C56 O64 1.252 . S
C57 O60 1.252 . S
C57 O61 1.260 . S
O58 In52 2.266 . S
O58 C55 1.252 . S
O59 In52 2.326 . S
O59 C55 1.260 . S
O60 In52 2.266 . S
O60 C57 1.252 . S
O61 In52 2.326 . S
O61 C57 1.260 . S
C62 O53 1.240 . S
C62 O54 1.252 . S
O63 In52 2.294 . S
O63 C56 1.240 . S
O64 In52 2.326 . S
O64 C56 1.252 . S
In65 O66 2.294 . S
In65 O67 2.326 . S
In65 O71 2.266 . S
In65 O72 2.326 . S
In65 O73 2.266 . S
In65 O74 2.326 . S
In65 O76 2.294 . S
In65 O77 2.326 . S
O66 In65 2.294 . S
O66 C75 1.240 . S
O67 In65 2.326 . S
O67 C75 1.252 . S
C68 O71 1.252 . S
C68 O72 1.260 . S
C69 O76 1.240 . S
C69 O77 1.252 . S
C70 O73 1.252 . S
C70 O74 1.260 . S
O71 In65 2.266 . S
O71 C68 1.252 . S
O72 In65 2.326 . S
O72 C68 1.260 . S
O73 In65 2.266 . S
O73 C70 1.252 . S
O74 In65 2.326 . S
O74 C70 1.260 . S
C75 O66 1.240 . S
C75 O67 1.252 . S
O76 In65 2.294 . S
O76 C69 1.240 . S
O77 In65 2.326 . S
O77 C69 1.252 . S
C78 C79 1.170 . S
C78 C80 1.380 . S
C79 C78 1.170 . S
C80 C78 1.380 . S
C80 C81 1.170 . S
C81 C80 1.170 . S
C82 C83 1.170 . S
C82 C84 1.380 . S
C83 C82 1.170 . S
C84 C82 1.380 . S
C84 C85 1.170 . S
C85 C84 1.170 . S
C86 C87 1.170 . S
C86 C88 1.380 . S
C87 C86 1.170 . S
C88 C86 1.380 . S
C88 C89 1.170 . S
C89 C88 1.170 . S
C90 C91 1.170 . S
C90 C92 1.380 . S
C91 C90 1.170 . S
C92 C90 1.380 . S
C92 C93 1.170 . S
C93 C92 1.170 . S
C94 C95 1.170 . S
C94 C96 1.380 . S
C95 C94 1.170 . S
C96 C94 1.380 . S
C96 C97 1.170 . S
C97 C96 1.170 . S
C98 C99 1.170 . S
C98 C100 1.380 . S
C99 C98 1.170 . S
C100 C98 1.380 . S
C100 C101 1.170 . S
C101 C100 1.170 . S
C102 C103 1.170 . S
C102 C104 1.380 1_566 S
C103 C102 1.170 . S
C104 C102 1.380 1_544 S
C104 C105 1.170 . S
C105 C104 1.170 . S
C106 C107 1.170 . S
C106 C108 1.380 . S
C107 C106 1.170 . S
C108 C106 1.380 . S
C108 C109 1.170 . S
C109 C108 1.170 . S
C110 C111 1.170 . S
C110 C112 1.380 1_456 S
C111 C110 1.170 . S
C112 C110 1.380 1_654 S
C112 C113 1.170 . S
C113 C112 1.170 . S
C114 C115 1.170 . S
C114 C116 1.380 1_545 S
C115 C114 1.170 . S
C116 C114 1.380 1_565 S
C116 C117 1.170 . S
C117 C116 1.170 . S
C118 C119 1.170 . S
C118 C120 1.380 1_556 S
C119 C118 1.170 . S
C120 C118 1.380 1_554 S
C120 C121 1.170 . S
C121 C120 1.170 . S
C122 C123 1.170 . S
C122 C124 1.380 1_455 S
C123 C122 1.170 . S
C124 C122 1.380 1_655 S
C124 C125 1.170 . S
C125 C124 1.170 . S
C79 C3 1.257 . S
C81 C57 1.277 . S
C83 C16 1.262 . S
C85 C68 1.259 . S
C87 C5 1.285 . S
C89 C29 1.261 . S
C91 C44 1.286 . S
C93 C18 1.295 . S
C95 C55 1.270 . S
C97 C31 1.256 . S
C99 C42 1.256 . S
C101 C70 1.274 . S
C103 C49 1.450 . S
C105 C10 1.449 . S
C107 C56 1.459 . S
C109 C23 1.457 . S
C111 C75 1.458 . S
C113 C36 1.456 . S
C115 C4 1.459 . S
C117 C43 1.459 . S
C119 C17 1.448 . S
C121 C62 1.448 . S
C123 C69 1.459 . S
C125 C30 1.459 . S
