# Generated by pormake.
# Topology pcu, (6)-cn, num edge types: 1
# Building blocks:
#     Node 0, Type 0, BuildingBlock: BETDEL_clean_sbu_0, # of connection points: 6
#     Edge 1, Type (0, 0), BuildingBlock: EYOCIG_clean_linker_4, # of connection points: 2
#     Edge 2, Type (0, 0), BuildingBlock: EYOCIG_clean_linker_4, # of connection points: 2
#     Edge 3, Type (0, 0), BuildingBlock: EYOCIG_clean_linker_4, # of connection points: 2
# Relax obj value: 0.000
# Max RMSD: 0.000
# Mean RMSD: 0.000
data_MOF--net-pcu--node1-BETDEL_clean_sbu_0--edge1-EYOCIG_clean_linker_4
_symmetry_space_group_name_H-M    P1
_symmetry_Int_Tables_number       1
_symmetry_cell_setting            triclinic
loop_
_symmetry_equiv_pos_as_xyz
'x, y, z'
_cell_length_a     12.068541
_cell_length_b     14.953936
_cell_length_c     11.17293
_cell_angle_alpha  104.17619
_cell_angle_beta   87.188132
_cell_angle_gamma 106.03568
loop_
_atom_site_label
_atom_site_type_symbol
_atom_site_fract_x
_atom_site_fract_y
_atom_site_fract_z
_atom_type_partial_charge
Dy0 Dy 0.02257 0.08511 0.0508 0.0
C1 C 0.94391 0.68747 0.03643 0.0
C2 C 0.03279 0.26545 1.03335 0.0
Dy3 Dy 0.95425 0.86799 1.01964 0.0
O4 O 0.04702 0.24211 0.13457 0.0
O5 O 0.01661 0.1913 0.94035 0.0
O6 O 0.09102 0.10645 0.24121 0.0
O7 O 0.94769 -0.01055 0.17082 0.0
C8 C 0.01916 0.02883 0.25937 0.0
C9 C 0.95778 0.92488 0.81131 0.0
O10 O 0.77903 0.88928 0.05772 0.0
O11 O 0.82969 0.04303 1.02423 0.0
O12 O 0.92957 0.71102 0.93539 0.0
O13 O 0.96027 0.7615 0.1296 0.0
O14 O 0.88569 0.84726 0.8292 0.0
O15 O 0.02921 0.96359 0.89991 0.0
O16 O 0.19784 0.06385 1.01303 0.0
O17 O 0.1471 0.91006 0.04641 0.0
C18 C 0.7518 0.96515 0.04032 0.0
C19 C 0.22502 -0.01204 1.03046 0.0
C20 C -0.00502 -0.01301 0.47665 0.0
C21 C 0.00508 0.00533 0.37695 0.0
C22 C 0.98251 0.96713 0.59428 0.0
C23 C 0.97224 0.94866 0.6939 0.0
C24 C 0.44045 -0.01903 1.0339 0.0
C25 C 0.34364 -0.01194 1.03147 0.0
C26 C 0.53637 0.97215 0.03705 0.0
C27 C 0.63317 0.96505 0.03941 0.0
C28 C 0.97725 0.52074 0.03743 0.0
C29 C 0.96243 0.59752 0.0397 0.0
C30 C -0.00063 0.43206 1.03187 0.0
C31 C 0.01423 0.35532 1.02973 0.0
loop_
_geom_bond_atom_site_label_1
_geom_bond_atom_site_label_2
_geom_bond_distance
_geom_bond_site_symmetry_2
_ccdc_geom_bond_type
Dy0 O4 2.398 . S
Dy0 O5 2.491 1_554 S
Dy0 O6 2.403 . S
Dy0 O7 2.663 1_545 S
Dy0 O11 2.326 1_455 S
Dy0 O15 2.309 1_454 S
Dy0 O16 2.351 . S
C1 O12 1.185 . S
C1 O13 1.355 1_556 S
C2 O4 1.185 . S
C2 O5 1.355 1_554 S
Dy3 O7 2.309 1_656 S
Dy3 O10 2.351 . S
Dy3 O12 2.398 . S
Dy3 O13 2.491 1_556 S
Dy3 O14 2.403 . S
Dy3 O15 2.663 1_565 S
Dy3 O17 2.326 1_655 S
O4 Dy0 2.398 . S
O4 C2 1.185 . S
O5 Dy0 2.491 1_556 S
O5 C2 1.355 1_556 S
O6 Dy0 2.403 . S
O6 C8 1.254 . S
O7 Dy0 2.663 1_565 S
O7 Dy3 2.309 1_454 S
O7 C8 1.267 1_565 S
C8 O6 1.254 . S
C8 O7 1.267 1_545 S
C9 O14 1.254 . S
C9 O15 1.267 1_565 S
O10 Dy3 2.351 . S
O10 C18 1.249 1_556 S
O11 Dy0 2.326 1_655 S
O11 C18 1.267 1_545 S
O12 C1 1.185 . S
O12 Dy3 2.398 . S
O13 C1 1.355 1_554 S
O13 Dy3 2.491 1_554 S
O14 Dy3 2.403 . S
O14 C9 1.254 . S
O15 Dy0 2.309 1_656 S
O15 Dy3 2.663 1_545 S
O15 C9 1.267 1_545 S
O16 Dy0 2.351 . S
O16 C19 1.249 1_554 S
O17 Dy3 2.326 1_455 S
O17 C19 1.267 1_565 S
C18 O10 1.249 1_554 S
C18 O11 1.267 1_565 S
C19 O16 1.249 1_556 S
C19 O17 1.267 1_545 S
C20 C21 1.170 . S
C20 C22 1.380 . S
C21 C20 1.170 . S
C22 C20 1.380 . S
C22 C23 1.170 . S
C23 C22 1.170 . S
C24 C25 1.170 . S
C24 C26 1.380 . S
C25 C24 1.170 . S
C26 C24 1.380 . S
C26 C27 1.170 . S
C27 C26 1.170 . S
C28 C29 1.170 . S
C28 C30 1.380 . S
C29 C28 1.170 . S
C30 C28 1.380 . S
C30 C31 1.171 1_554 S
C31 C30 1.171 1_556 S
C21 C8 1.473 1_665 S
C23 C9 1.444 . S
C25 C19 1.494 1_554 S
C27 C18 1.489 1_545 S
C29 C1 1.492 1_454 S
C31 C2 1.469 1_556 S
