# Generated by pormake.
# Topology smi, (6)-cn, num edge types: 1
# Building blocks:
#     Node 0, Type 0, BuildingBlock: IZENUY_clean_sbu_0, # of connection points: 6
#     Node 1, Type 0, BuildingBlock: IZENUY_clean_sbu_0, # of connection points: 6
#     Node 2, Type 0, BuildingBlock: IZENUY_clean_sbu_0, # of connection points: 6
#     Node 3, Type 0, BuildingBlock: IZENUY_clean_sbu_0, # of connection points: 6
#     Node 4, Type 0, BuildingBlock: IZENUY_clean_sbu_0, # of connection points: 6
#     Node 5, Type 0, BuildingBlock: IZENUY_clean_sbu_0, # of connection points: 6
#     Edge 6, Type (0, 0), None
#     Edge 7, Type (0, 0), None
#     Edge 8, Type (0, 0), None
#     Edge 9, Type (0, 0), None
#     Edge 10, Type (0, 0), None
#     Edge 11, Type (0, 0), None
#     Edge 12, Type (0, 0), None
#     Edge 13, Type (0, 0), None
#     Edge 14, Type (0, 0), None
#     Edge 15, Type (0, 0), None
#     Edge 16, Type (0, 0), None
#     Edge 17, Type (0, 0), None
#     Edge 18, Type (0, 0), None
#     Edge 19, Type (0, 0), None
#     Edge 20, Type (0, 0), None
#     Edge 21, Type (0, 0), None
#     Edge 22, Type (0, 0), None
#     Edge 23, Type (0, 0), None
# Relax obj value: 0.337
# Max RMSD: 0.277
# Mean RMSD: 0.276
data_MOF--net-smi--node1-IZENUY_clean_sbu_0--edge1-none
_symmetry_space_group_name_H-M    P1
_symmetry_Int_Tables_number       1
_symmetry_cell_setting            triclinic
loop_
_symmetry_equiv_pos_as_xyz
'x, y, z'
_cell_length_a     13.123933
_cell_length_b     13.035423
_cell_length_c     18.118951
_cell_angle_alpha  90.001477
_cell_angle_beta   89.99675
_cell_angle_gamma 120.13317
loop_
_atom_site_label
_atom_site_type_symbol
_atom_site_fract_x
_atom_site_fract_y
_atom_site_fract_z
_atom_type_partial_charge
Fe0 Fe 0.06742 0.5882 0.19905 0.0
Fe1 Fe 0.29539 0.64789 0.12242 0.0
O2 O 0.14096 0.56961 0.12245 0.0
Fe3 Fe 0.06734 0.47656 0.04582 0.0
O4 O 0.97914 0.54566 1.03181 0.0
O5 O 0.94964 0.59327 0.1429 0.0
O6 O 0.15534 0.75427 0.19919 0.0
C7 C 0.26505 0.80464 0.21276 0.0
C8 C 0.92669 0.34178 0.17108 0.0
O9 O 0.32043 0.75583 0.19189 0.0
C10 C 0.26579 0.4602 1.03267 0.0
O11 O 0.16887 0.57798 0.26393 0.0
O12 O 0.29322 0.55058 0.19422 0.0
O13 O 0.94884 0.35276 0.10189 0.0
O14 O 0.9793 0.43017 0.21303 0.0
C15 C 0.24258 0.69926 0.98882 0.0
O16 O 0.32034 0.56531 0.053 0.0
O17 O 0.15574 0.39933 0.04576 0.0
C18 C 0.24294 0.54269 0.25593 0.0
O19 O 0.29249 0.74256 0.05058 0.0
O20 O 0.16887 0.58902 0.9809 0.0
C21 C 0.9281 0.58297 0.07364 0.0
Fe22 Fe 0.58745 0.06478 0.21134 0.0
Fe23 Fe 0.65014 0.29474 0.28908 0.0
O24 O 0.57295 0.13952 0.28906 0.0
Fe25 Fe 0.48399 0.06461 0.36671 0.0
O26 O 0.55997 0.98237 0.3797 0.0
O27 O 0.58689 0.94231 0.26637 0.0
O28 O 0.75285 0.14924 0.21101 0.0
C29 C 0.8056 0.26075 0.19964 0.0
C30 C 0.34537 0.92546 0.24208 0.0
O31 O 0.75773 0.3176 0.22028 0.0
C32 C 0.46092 0.26027 0.37891 0.0
O33 O 0.58196 0.16945 0.1469 0.0
O34 O 0.55388 0.29302 0.21699 0.0
O35 O 0.36242 0.9425 0.31156 0.0
O36 O 0.42951 0.98254 0.1982 0.0
C37 C 0.70298 0.24338 0.42297 0.0
O38 O 0.56529 0.3176 0.35794 0.0
O39 O 0.40273 0.14888 0.36719 0.0
C40 C 0.54642 0.24333 0.1551 0.0
O41 O 0.7449 0.29338 0.36113 0.0
O42 O 0.59386 0.16917 0.43117 0.0
C43 C 0.58655 0.92479 0.33583 0.0
Fe44 Fe 0.35769 0.64779 0.45551 0.0
Fe45 Fe 0.41527 0.47689 0.53248 0.0
O46 O 0.4335 0.569 0.45547 0.0
Fe47 Fe 0.52438 0.58595 0.37851 0.0
O48 O 0.60386 0.75211 0.3782 0.0
O49 O 0.44129 0.7558 0.38622 0.0
O50 O 0.45503 0.74234 0.52745 0.0
C51 C 0.46143 0.69912 0.58928 0.0
C52 C 0.30439 0.54258 0.32192 0.0
O53 O 0.42477 0.58888 0.59725 0.0
C54 C 0.41974 0.34051 0.4075 0.0
O55 O 0.25023 0.56463 0.52471 0.0
O56 O 0.2497 0.39869 0.53255 0.0
O57 O 0.41346 0.57742 0.31381 0.0
O58 O 0.2624 0.55091 0.38364 0.0
C59 C 0.65973 0.58235 0.50378 0.0
O60 O 0.4117 0.35336 0.47683 0.0
O61 O 0.45224 0.42753 0.36479 0.0
C62 C 0.19983 0.45936 0.54494 0.0
O63 O 0.57269 0.54789 0.54633 0.0
O64 O 0.64661 0.58923 0.43436 0.0
C65 C 0.54531 0.8037 0.36518 0.0
Fe66 Fe 0.71225 0.35653 0.62243 0.0
Fe67 Fe 0.9403 0.52784 0.5458 0.0
O68 O 0.86668 0.43481 0.62244 0.0
Fe69 Fe 0.94022 0.41625 0.69906 0.0
O70 O 0.85231 0.25018 0.69921 0.0
O71 O 0.68721 0.24861 0.69191 0.0
O72 O 0.71512 0.26183 0.55059 0.0
C73 C 0.76511 0.30514 0.48885 0.0
C74 C 0.76468 0.46175 0.75593 0.0
O75 O 0.83876 0.41539 0.4809 0.0
C76 C 0.08096 0.66265 0.67105 0.0
O77 O 0.68731 0.4391 0.55301 0.0
O78 O 0.85192 0.60509 0.54573 0.0
O79 O 0.83876 0.42646 0.76394 0.0
O80 O 0.71442 0.45385 0.69422 0.0
C81 C 0.07945 0.42137 0.57364 0.0
O82 O 0.05883 0.65163 0.60185 0.0
O83 O 0.02831 0.57428 0.71301 0.0
C84 C 0.74186 0.54422 0.5327 0.0
O85 O 0.02847 0.4587 0.53177 0.0
O86 O 0.05802 0.41119 0.64291 0.0
C87 C 0.7426 0.1998 0.71277 0.0
Fe88 Fe 0.42018 0.93965 0.71134 0.0
Fe89 Fe 0.35747 0.70968 0.78908 0.0
O90 O 0.43467 0.86491 0.78906 0.0
Fe91 Fe 0.52362 0.93982 0.86671 0.0
O92 O 0.44767 0.02209 0.8797 0.0
O93 O 0.4207 0.06211 0.76637 0.0
O94 O 0.25478 0.85517 0.71101 0.0
C95 C 0.20205 0.74367 0.69961 0.0
C96 C 0.66226 0.07898 0.74208 0.0
O97 O 0.24991 0.68681 0.72026 0.0
C98 C 0.54666 0.74414 0.87893 0.0
O99 O 0.42571 0.835 0.64691 0.0
O100 O 0.45375 0.71139 0.717 0.0
O101 O 0.64521 0.06191 0.81156 0.0
O102 O 0.57812 0.02192 0.6982 0.0
C103 C 0.3046 0.76112 0.92293 0.0
O104 O 0.44229 0.68681 0.85796 0.0
O105 O 0.60486 0.85553 0.8672 0.0
C106 C 0.46131 0.76118 0.65513 0.0
O107 O 0.26267 0.71102 0.86112 0.0
O108 O 0.41373 0.83528 0.93116 0.0
C109 C 0.42106 0.07964 0.83582 0.0
Fe110 Fe 0.6499 0.35663 0.9555 0.0
Fe111 Fe 0.59231 0.52752 1.0325 0.0
O112 O 0.57408 0.43542 0.95547 0.0
Fe113 Fe 0.48322 0.41849 0.87851 0.0
O114 O 0.40373 0.25233 0.87819 0.0
O115 O 0.56631 0.24863 0.8862 0.0
O116 O 0.55256 0.26205 1.02744 0.0
C117 C 0.54609 0.30528 0.08926 0.0
C118 C 0.70322 0.46186 0.82192 0.0
O119 O 0.58282 0.41553 0.09725 0.0
C120 C 0.58784 0.66392 0.90753 0.0
O121 O 0.75734 0.43978 1.02469 0.0
O122 O 0.75788 0.60574 1.03257 0.0
O123 O 0.59415 0.42702 0.8138 0.0
O124 O 0.74519 0.45353 0.88364 0.0
C125 C 0.34789 0.422 1.00378 0.0
O126 O 0.59585 0.65105 0.97686 0.0
O127 O 0.55537 0.57691 0.86481 0.0
C128 C 0.80776 0.54506 0.0449 0.0
O129 O 0.43489 0.4565 0.04637 0.0
O130 O 0.36099 0.4152 0.93436 0.0
C131 C 0.46229 0.20074 0.86517 0.0
loop_
_geom_bond_atom_site_label_1
_geom_bond_atom_site_label_2
_geom_bond_distance
_geom_bond_site_symmetry_2
_ccdc_geom_bond_type
Fe0 O2 1.918 . S
Fe0 O5 1.997 1_455 S
Fe0 O6 2.002 . S
Fe0 O11 1.976 . S
Fe0 O14 1.996 1_455 S
Fe1 O2 1.918 . S
Fe1 O9 1.997 . S
Fe1 O12 1.996 . S
Fe1 O16 1.976 . S
Fe1 O19 2.002 1_554 S
O2 Fe0 1.918 . S
O2 Fe1 1.918 . S
O2 Fe3 1.918 . S
Fe3 O2 1.918 . S
Fe3 O4 2.002 1_454 S
Fe3 O13 1.976 1_455 S
Fe3 O17 1.995 1_554 S
Fe3 O20 1.997 1_554 S
O4 Fe3 2.002 1_656 S
O4 C21 1.295 1_556 S
O5 Fe0 1.997 1_655 S
O5 C21 1.235 . S
O6 Fe0 2.002 . S
O6 C7 1.295 . S
C7 O6 1.295 . S
C7 O9 1.235 . S
C8 O13 1.287 . S
C8 O14 1.255 . S
O9 Fe1 1.997 . S
O9 C7 1.235 . S
C10 O16 1.287 . S
C10 O17 1.251 1_554 S
O11 Fe0 1.976 . S
O11 C18 1.287 . S
O12 Fe1 1.996 . S
O12 C18 1.255 . S
O13 Fe3 1.976 1_655 S
O13 C8 1.287 . S
O14 Fe0 1.996 1_655 S
O14 C8 1.255 . S
C15 O19 1.295 . S
C15 O20 1.235 . S
O16 Fe1 1.976 . S
O16 C10 1.287 . S
O17 Fe3 1.995 1_556 S
O17 C10 1.251 1_556 S
C18 O11 1.287 . S
C18 O12 1.255 . S
O19 Fe1 2.002 1_556 S
O19 C15 1.295 . S
O20 Fe3 1.997 1_556 S
O20 C15 1.235 . S
C21 O4 1.295 1_554 S
C21 O5 1.235 . S
Fe22 O24 1.918 . S
Fe22 O27 1.997 1_545 S
Fe22 O28 2.002 . S
Fe22 O33 1.976 . S
Fe22 O36 1.996 1_545 S
Fe23 O24 1.918 . S
Fe23 O31 1.997 . S
Fe23 O34 1.996 . S
Fe23 O38 1.976 . S
Fe23 O41 2.002 . S
O24 Fe22 1.918 . S
O24 Fe23 1.918 . S
O24 Fe25 1.918 . S
Fe25 O24 1.918 . S
Fe25 O26 2.002 1_545 S
Fe25 O35 1.976 1_545 S
Fe25 O39 1.996 . S
Fe25 O42 1.997 . S
O26 Fe25 2.002 1_565 S
O26 C43 1.295 . S
O27 Fe22 1.997 1_565 S
O27 C43 1.235 . S
O28 Fe22 2.002 . S
O28 C29 1.295 . S
C29 O28 1.295 . S
C29 O31 1.235 . S
C30 O35 1.287 . S
C30 O36 1.255 . S
O31 Fe23 1.997 . S
O31 C29 1.235 . S
C32 O38 1.287 . S
C32 O39 1.255 . S
O33 Fe22 1.976 . S
O33 C40 1.287 . S
O34 Fe23 1.996 . S
O34 C40 1.255 . S
O35 Fe25 1.976 1_565 S
O35 C30 1.287 . S
O36 Fe22 1.996 1_565 S
O36 C30 1.255 . S
C37 O41 1.295 . S
C37 O42 1.235 . S
O38 Fe23 1.976 . S
O38 C32 1.287 . S
O39 Fe25 1.996 . S
O39 C32 1.255 . S
C40 O33 1.287 . S
C40 O34 1.255 . S
O41 Fe23 2.002 . S
O41 C37 1.295 . S
O42 Fe25 1.997 . S
O42 C37 1.235 . S
C43 O26 1.295 . S
C43 O27 1.235 . S
Fe44 O46 1.918 . S
Fe44 O49 1.997 . S
Fe44 O50 2.002 . S
Fe44 O55 1.976 . S
Fe44 O58 1.996 . S
Fe45 O46 1.918 . S
Fe45 O53 1.997 . S
Fe45 O56 1.996 . S
Fe45 O60 1.976 . S
Fe45 O63 2.002 . S
O46 Fe44 1.918 . S
O46 Fe45 1.918 . S
O46 Fe47 1.918 . S
Fe47 O46 1.918 . S
Fe47 O48 2.002 . S
Fe47 O57 1.976 . S
Fe47 O61 1.996 . S
Fe47 O64 1.997 . S
O48 Fe47 2.002 . S
O48 C65 1.295 . S
O49 Fe44 1.997 . S
O49 C65 1.235 . S
O50 Fe44 2.002 . S
O50 C51 1.295 . S
C51 O50 1.295 . S
C51 O53 1.235 . S
C52 O57 1.287 . S
C52 O58 1.255 . S
O53 Fe45 1.997 . S
O53 C51 1.235 . S
C54 O60 1.287 . S
C54 O61 1.255 . S
O55 Fe44 1.976 . S
O55 C62 1.287 . S
O56 Fe45 1.996 . S
O56 C62 1.255 . S
O57 Fe47 1.976 . S
O57 C52 1.287 . S
O58 Fe44 1.996 . S
O58 C52 1.255 . S
C59 O63 1.295 . S
C59 O64 1.235 . S
O60 Fe45 1.976 . S
O60 C54 1.287 . S
O61 Fe47 1.996 . S
O61 C54 1.255 . S
C62 O55 1.287 . S
C62 O56 1.255 . S
O63 Fe45 2.002 . S
O63 C59 1.295 . S
O64 Fe47 1.997 . S
O64 C59 1.235 . S
C65 O48 1.295 . S
C65 O49 1.235 . S
Fe66 O68 1.918 . S
Fe66 O71 1.997 . S
Fe66 O72 2.002 . S
Fe66 O77 1.976 . S
Fe66 O80 1.996 . S
Fe67 O68 1.918 . S
Fe67 O75 1.997 . S
Fe67 O78 1.996 . S
Fe67 O82 1.976 1_655 S
Fe67 O85 2.002 1_655 S
O68 Fe66 1.918 . S
O68 Fe67 1.918 . S
O68 Fe69 1.918 . S
Fe69 O68 1.918 . S
Fe69 O70 2.002 . S
Fe69 O79 1.976 . S
Fe69 O83 1.996 1_655 S
Fe69 O86 1.997 1_655 S
O70 Fe69 2.002 . S
O70 C87 1.295 . S
O71 Fe66 1.997 . S
O71 C87 1.235 . S
O72 Fe66 2.002 . S
O72 C73 1.295 . S
C73 O72 1.295 . S
C73 O75 1.235 . S
C74 O79 1.287 . S
C74 O80 1.255 . S
O75 Fe67 1.997 . S
O75 C73 1.235 . S
C76 O82 1.287 . S
C76 O83 1.255 . S
O77 Fe66 1.976 . S
O77 C84 1.287 . S
O78 Fe67 1.996 . S
O78 C84 1.255 . S
O79 Fe69 1.976 . S
O79 C74 1.287 . S
O80 Fe66 1.996 . S
O80 C74 1.255 . S
C81 O85 1.295 . S
C81 O86 1.235 . S
O82 Fe67 1.976 1_455 S
O82 C76 1.287 . S
O83 Fe69 1.996 1_455 S
O83 C76 1.255 . S
C84 O77 1.287 . S
C84 O78 1.255 . S
O85 Fe67 2.002 1_455 S
O85 C81 1.295 . S
O86 Fe69 1.997 1_455 S
O86 C81 1.235 . S
C87 O70 1.295 . S
C87 O71 1.235 . S
Fe88 O90 1.918 . S
Fe88 O93 1.997 1_565 S
Fe88 O94 2.002 . S
Fe88 O99 1.976 . S
Fe88 O102 1.996 1_565 S
Fe89 O90 1.918 . S
Fe89 O97 1.997 . S
Fe89 O100 1.996 . S
Fe89 O104 1.976 . S
Fe89 O107 2.002 . S
O90 Fe88 1.918 . S
O90 Fe89 1.918 . S
O90 Fe91 1.918 . S
Fe91 O90 1.918 . S
Fe91 O92 2.002 1_565 S
Fe91 O101 1.976 1_565 S
Fe91 O105 1.996 . S
Fe91 O108 1.997 . S
O92 Fe91 2.002 1_545 S
O92 C109 1.295 . S
O93 Fe88 1.997 1_545 S
O93 C109 1.235 . S
O94 Fe88 2.002 . S
O94 C95 1.295 . S
C95 O94 1.295 . S
C95 O97 1.235 . S
C96 O101 1.287 . S
C96 O102 1.255 . S
O97 Fe89 1.997 . S
O97 C95 1.235 . S
C98 O104 1.287 . S
C98 O105 1.255 . S
O99 Fe88 1.976 . S
O99 C106 1.287 . S
O100 Fe89 1.996 . S
O100 C106 1.255 . S
O101 Fe91 1.976 1_545 S
O101 C96 1.287 . S
O102 Fe88 1.996 1_545 S
O102 C96 1.255 . S
C103 O107 1.295 . S
C103 O108 1.235 . S
O104 Fe89 1.976 . S
O104 C98 1.287 . S
O105 Fe91 1.996 . S
O105 C98 1.255 . S
C106 O99 1.287 . S
C106 O100 1.255 . S
O107 Fe89 2.002 . S
O107 C103 1.295 . S
O108 Fe91 1.997 . S
O108 C103 1.235 . S
C109 O92 1.295 . S
C109 O93 1.235 . S
Fe110 O112 1.918 . S
Fe110 O115 1.997 . S
Fe110 O116 2.002 1_556 S
Fe110 O121 1.976 . S
Fe110 O124 1.996 . S
Fe111 O112 1.918 . S
Fe111 O119 1.997 1_556 S
Fe111 O122 1.995 1_556 S
Fe111 O126 1.976 . S
Fe111 O129 2.002 1_556 S
O112 Fe110 1.918 . S
O112 Fe111 1.918 . S
O112 Fe113 1.918 . S
Fe113 O112 1.918 . S
Fe113 O114 2.002 . S
Fe113 O123 1.976 . S
Fe113 O127 1.996 . S
Fe113 O130 1.997 . S
O114 Fe113 2.002 . S
O114 C131 1.295 . S
O115 Fe110 1.997 . S
O115 C131 1.235 . S
O116 Fe110 2.002 1_554 S
O116 C117 1.295 . S
C117 O116 1.295 . S
C117 O119 1.235 . S
C118 O123 1.287 . S
C118 O124 1.255 . S
O119 Fe111 1.997 1_554 S
O119 C117 1.235 . S
C120 O126 1.287 . S
C120 O127 1.255 . S
O121 Fe110 1.976 . S
O121 C128 1.287 . S
O122 Fe111 1.995 1_554 S
O122 C128 1.253 1_554 S
O123 Fe113 1.976 . S
O123 C118 1.287 . S
O124 Fe110 1.996 . S
O124 C118 1.255 . S
C125 O129 1.295 1_556 S
C125 O130 1.235 . S
O126 Fe111 1.976 . S
O126 C120 1.287 . S
O127 Fe113 1.996 . S
O127 C120 1.255 . S
C128 O121 1.287 . S
C128 O122 1.253 1_556 S
O129 Fe111 2.002 1_554 S
O129 C125 1.295 1_554 S
O130 Fe113 1.997 . S
O130 C125 1.235 . S
C131 O114 1.295 . S
C131 O115 1.235 . S
C18 C52 0.815 . S
C37 C73 0.973 . S
C106 C51 0.892 . S
C118 C74 0.815 . S
C15 C103 0.973 . S
C40 C117 0.892 . S
C125 C10 1.578 1_556 S
C8 C29 1.583 . S
C65 C43 1.583 . S
C84 C59 1.578 . S
C95 C76 1.583 . S
C131 C109 1.583 . S
C98 C120 1.566 . S
C21 C128 1.571 1_554 S
C30 C7 1.574 . S
C32 C54 1.566 . S
C81 C62 1.571 . S
C96 C87 1.574 . S
