# Generated by pormake.
# Topology umy, (4)-cn, num edge types: 1
# Building blocks:
#     Node 0, Type 0, BuildingBlock: QUQFOY_clean_sbu_3, # of connection points: 4
#     Node 1, Type 0, BuildingBlock: QUQFOY_clean_sbu_3, # of connection points: 4
#     Node 2, Type 0, BuildingBlock: QUQFOY_clean_sbu_3, # of connection points: 4
#     Node 3, Type 0, BuildingBlock: QUQFOY_clean_sbu_3, # of connection points: 4
#     Node 4, Type 0, BuildingBlock: QUQFOY_clean_sbu_3, # of connection points: 4
#     Node 5, Type 0, BuildingBlock: QUQFOY_clean_sbu_3, # of connection points: 4
#     Node 6, Type 0, BuildingBlock: QUQFOY_clean_sbu_3, # of connection points: 4
#     Node 7, Type 0, BuildingBlock: QUQFOY_clean_sbu_3, # of connection points: 4
#     Node 8, Type 0, BuildingBlock: QUQFOY_clean_sbu_3, # of connection points: 4
#     Node 9, Type 0, BuildingBlock: QUQFOY_clean_sbu_3, # of connection points: 4
#     Node 10, Type 0, BuildingBlock: QUQFOY_clean_sbu_3, # of connection points: 4
#     Node 11, Type 0, BuildingBlock: QUQFOY_clean_sbu_3, # of connection points: 4
#     Edge 12, Type (0, 0), None
#     Edge 13, Type (0, 0), None
#     Edge 14, Type (0, 0), None
#     Edge 15, Type (0, 0), None
#     Edge 16, Type (0, 0), None
#     Edge 17, Type (0, 0), None
#     Edge 18, Type (0, 0), None
#     Edge 19, Type (0, 0), None
#     Edge 20, Type (0, 0), None
#     Edge 21, Type (0, 0), None
#     Edge 22, Type (0, 0), None
#     Edge 23, Type (0, 0), None
#     Edge 24, Type (0, 0), None
#     Edge 25, Type (0, 0), None
#     Edge 26, Type (0, 0), None
#     Edge 27, Type (0, 0), None
#     Edge 28, Type (0, 0), None
#     Edge 29, Type (0, 0), None
#     Edge 30, Type (0, 0), None
#     Edge 31, Type (0, 0), None
#     Edge 32, Type (0, 0), None
#     Edge 33, Type (0, 0), None
#     Edge 34, Type (0, 0), None
#     Edge 35, Type (0, 0), None
# Relax obj value: 0.103
# Max RMSD: 0.079
# Mean RMSD: 0.079
data_MOF--net-umy--node1-QUQFOY_clean_sbu_3--edge1-none
_symmetry_space_group_name_H-M    P1
_symmetry_Int_Tables_number       1
_symmetry_cell_setting            triclinic
loop_
_symmetry_equiv_pos_as_xyz
'x, y, z'
_cell_length_a     19.969575
_cell_length_b     19.969555
_cell_length_c     22.068205
_cell_angle_alpha  90.001346
_cell_angle_beta   89.999291
_cell_angle_gamma 119.99715
loop_
_atom_site_label
_atom_site_type_symbol
_atom_site_fract_x
_atom_site_fract_y
_atom_site_fract_z
_atom_type_partial_charge
C0 C 0.8124 0.12934 0.17074 0.0
O1 O 0.83207 0.08478 0.14537 0.0
Cd2 Cd -0.03851 0.1285 0.11763 0.0
O3 O 0.85892 0.20234 0.17351 0.0
Cd4 Cd -0.00872 0.304 0.13591 0.0
C5 C 0.04641 0.23272 0.25041 0.0
O6 O -0.00601 0.23254 0.04957 0.0
O7 O 0.10568 0.3253 0.07518 0.0
O8 O -0.07089 0.37902 0.10786 0.0
C9 C 0.06589 0.26996 0.03925 0.0
O10 O 0.02172 0.17206 0.21801 0.0
C11 C -0.01163 0.44409 0.11892 0.0
O12 O 0.04437 0.29192 0.23166 0.0
O13 O 0.04829 0.4441 0.13797 0.0
C14 C 0.62751 0.84012 0.33741 0.0
O15 O 0.69173 0.85976 0.31204 0.0
Cd16 Cd 0.77747 -0.01083 0.28429 0.0
O17 O 0.60105 0.88666 0.34017 0.0
Cd18 Cd 0.63178 0.01901 0.30255 0.0
C19 C 0.75816 0.07412 0.41706 0.0
O20 O 0.70599 0.02173 0.21623 0.0
O21 O 0.72489 0.13344 0.24184 0.0
O22 O 0.49461 -0.04313 0.27445 0.0
C23 C 0.74048 0.09363 0.20595 0.0
O24 O 0.79413 0.04941 0.38467 0.0
C25 C 0.48879 0.01613 0.28552 0.0
O26 O 0.69693 0.0721 0.3983 0.0
O27 O 0.54869 0.07604 0.3046 0.0
C28 C 0.73183 0.65525 0.50411 0.0
O29 O 0.77641 0.71947 0.47874 0.0
Cd30 Cd 0.73273 0.8052 0.451 0.0
O31 O 0.65884 0.62879 0.50688 0.0
Cd32 Cd 0.55721 0.65952 0.46925 0.0
C33 C 0.62847 0.78588 0.58377 0.0
O34 O 0.62871 0.73372 0.38292 0.0
O35 O 0.53591 0.75264 0.40853 0.0
O36 O 0.48219 0.52235 0.44117 0.0
C37 C 0.59129 0.76821 0.37264 0.0
O38 O 0.68915 0.82185 0.55138 0.0
C39 C 0.41712 0.51654 0.45222 0.0
O40 O 0.56927 0.72467 0.565 0.0
O41 O 0.4171 0.57645 0.47128 0.0
C42 C 0.02104 0.75956 0.67078 0.0
O43 O 0.00139 0.80414 0.64542 0.0
Cd44 Cd 0.87198 0.76047 0.61768 0.0
O45 O -0.02549 0.68657 0.67355 0.0
Cd46 Cd 0.84214 0.58494 0.63593 0.0
C47 C 0.78705 0.65622 0.75046 0.0
O48 O 0.83944 0.65643 0.54961 0.0
O49 O 0.72772 0.56364 0.57523 0.0
O50 O 0.90429 0.50991 0.60784 0.0
C51 C 0.76753 0.61902 0.53933 0.0
O52 O 0.81176 0.71689 0.71806 0.0
C53 C 0.84503 0.44484 0.6189 0.0
O54 O 0.78907 0.59702 0.73169 0.0
O55 O 0.78512 0.44483 0.63797 0.0
C56 C 0.20591 0.04879 0.83744 0.0
O57 O 0.14168 0.02914 0.81207 0.0
Cd58 Cd 0.05595 0.89973 0.78434 0.0
O59 O 0.23237 0.00226 0.84021 0.0
Cd60 Cd 0.20165 0.86989 0.80261 0.0
C61 C 0.07527 0.8148 0.91712 0.0
O62 O 0.12744 0.86717 0.71628 0.0
O63 O 0.10854 0.75546 0.7419 0.0
O64 O 0.33881 0.93205 0.77452 0.0
C65 C 0.09296 0.79526 0.706 0.0
O66 O 0.03929 0.83951 0.88472 0.0
C67 C 0.34464 0.87279 0.78558 0.0
O68 O 0.13649 0.81682 0.89836 0.0
O69 O 0.28475 0.81288 0.80465 0.0
C70 C 0.10159 0.23372 1.00405 0.0
O71 O 0.05701 0.16947 0.97871 0.0
Cd72 Cd 0.10068 0.08372 0.95099 0.0
O73 O 0.17458 0.26018 1.00683 0.0
Cd74 Cd 0.27622 0.22943 0.96924 0.0
C75 C 0.20494 0.10306 0.08377 0.0
O76 O 0.20472 0.15521 0.88293 0.0
O77 O 0.29753 0.13631 0.90853 0.0
O78 O 0.35124 0.3666 0.94116 0.0
C79 C 0.24213 0.12072 0.87265 0.0
O80 O 0.14426 0.06709 0.05138 0.0
C81 C 0.41631 0.37241 0.95222 0.0
O82 O 0.26413 0.16428 0.065 0.0
O83 O 0.41632 0.31251 0.97129 0.0
C84 C 0.73183 0.04879 0.72426 0.0
O85 O 0.7764 0.02914 0.74963 0.0
Cd86 Cd 0.73271 0.89973 0.77739 0.0
O87 O 0.65884 0.00227 0.7215 0.0
Cd88 Cd 0.5572 0.86992 0.75913 0.0
C89 C 0.62846 0.81479 0.64462 0.0
O90 O 0.62868 0.86721 0.84547 0.0
O91 O 0.53593 0.75552 0.81985 0.0
O92 O 0.48217 0.93206 0.78721 0.0
C93 C 0.59126 0.79531 0.85578 0.0
O94 O 0.68914 0.83949 0.67701 0.0
C95 C 0.4171 0.8728 0.77616 0.0
O96 O 0.56927 0.81682 0.66337 0.0
O97 O 0.4171 0.81289 0.75709 0.0
C98 C 0.6275 0.75961 0.89098 0.0
O99 O 0.69174 0.80418 0.91633 0.0
Cd100 Cd 0.77745 0.76048 0.94407 0.0
O101 O 0.60103 0.68661 0.88821 0.0
Cd102 Cd 0.63175 0.58497 0.92581 0.0
C103 C 0.75815 0.65622 0.8113 0.0
O104 O 0.70594 0.65645 1.01214 0.0
O105 O 0.72485 0.56367 0.98655 0.0
O106 O 0.49457 0.50994 0.95386 0.0
C107 C 0.74041 0.61903 1.02247 0.0
O108 O 0.79412 0.7169 0.84369 0.0
C109 C 0.48877 0.44487 0.94281 0.0
O110 O 0.69692 0.59703 0.83006 0.0
O111 O 0.54868 0.44486 0.92376 0.0
C112 C 0.81235 0.65526 0.05767 0.0
O113 O 0.83201 0.71951 0.08301 0.0
Cd114 Cd -0.03857 0.80523 0.11074 0.0
O115 O 0.85887 0.62879 0.05489 0.0
Cd116 Cd -0.00876 0.65953 0.09248 0.0
C117 C 0.04636 0.7859 0.97797 0.0
O118 O -0.00603 0.73374 0.17881 0.0
O119 O 0.10565 0.75264 0.1532 0.0
O120 O -0.0709 0.52236 0.12057 0.0
C121 C 0.06587 0.76821 0.18912 0.0
O122 O 0.02166 0.82189 1.01036 0.0
C123 C -0.01163 0.51655 0.1095 0.0
O124 O 0.04432 0.72468 0.99673 0.0
O125 O 0.04827 0.57645 0.09043 0.0
C126 C 0.10158 0.84015 0.22431 0.0
O127 O 0.05702 0.85983 0.24966 0.0
Cd128 Cd 0.10072 -0.01075 0.2774 0.0
O129 O 0.17458 0.88667 0.22153 0.0
Cd130 Cd 0.27624 0.01904 0.2591 0.0
C131 C 0.20495 0.07416 0.14461 0.0
O132 O 0.20477 0.02176 0.34545 0.0
O133 O 0.29755 0.13344 0.31984 0.0
O134 O 0.35126 -0.04313 0.28716 0.0
C135 C 0.2422 0.09366 0.35577 0.0
O136 O 0.14428 0.04947 0.17701 0.0
C137 C 0.41633 0.01614 0.2761 0.0
O138 O 0.26414 0.07212 0.16336 0.0
O139 O 0.41634 0.07605 0.25705 0.0
C140 C 0.20596 0.12936 0.39096 0.0
O141 O 0.14172 0.08479 0.41631 0.0
Cd142 Cd 0.05599 0.12848 0.44403 0.0
O143 O 0.23243 0.20235 0.38819 0.0
Cd144 Cd 0.20168 0.30399 0.42577 0.0
C145 C 0.07531 0.23272 0.31125 0.0
O146 O 0.12749 0.23251 0.5121 0.0
O147 O 0.10856 0.32528 0.48649 0.0
O148 O 0.33885 0.37901 0.45385 0.0
C149 C 0.093 0.26993 0.52242 0.0
O150 O 0.03934 0.17205 0.34365 0.0
C151 C 0.34466 0.44409 0.4428 0.0
O152 O 0.13653 0.29192 0.33002 0.0
O153 O 0.28476 0.4441 0.42374 0.0
C154 C 0.02106 0.23368 0.55761 0.0
O155 O 0.0014 0.16944 0.58295 0.0
Cd156 Cd 0.87199 0.0837 0.61068 0.0
O157 O -0.02547 0.26015 0.55484 0.0
Cd158 Cd 0.84215 0.2294 0.59243 0.0
C159 C 0.78706 0.10303 0.47791 0.0
O160 O 0.83944 0.15519 0.67875 0.0
O161 O 0.72773 0.13629 0.65315 0.0
O162 O 0.9043 0.36656 0.62052 0.0
C163 C 0.76754 0.1207 0.68903 0.0
O164 O 0.81177 0.06705 0.5103 0.0
C165 C 0.84503 0.37238 0.60947 0.0
O166 O 0.78908 0.16425 0.49667 0.0
O167 O 0.78512 0.31248 0.5904 0.0
loop_
_geom_bond_atom_site_label_1
_geom_bond_atom_site_label_2
_geom_bond_distance
_geom_bond_site_symmetry_2
_ccdc_geom_bond_type
C0 O1 1.306 . S
C0 O3 1.160 . S
O1 C0 1.306 . S
O1 Cd2 2.228 1_655 S
Cd2 O1 2.228 1_455 S
Cd2 O6 2.273 . S
Cd2 O10 2.277 . S
O3 C0 1.160 . S
O3 Cd4 2.203 1_655 S
Cd4 O3 2.203 1_455 S
Cd4 O6 2.411 . S
Cd4 O7 2.333 . S
Cd4 O8 2.352 1_455 S
Cd4 O12 2.277 . S
Cd4 O13 2.356 . S
C5 O10 1.209 . S
C5 O12 1.226 . S
O6 Cd2 2.273 . S
O6 Cd4 2.411 . S
O6 C9 1.320 . S
O7 Cd4 2.333 . S
O7 C9 1.214 . S
O8 Cd4 2.352 1_655 S
O8 C11 1.258 1_655 S
C9 O6 1.320 . S
C9 O7 1.214 . S
O10 Cd2 2.277 . S
O10 C5 1.209 . S
C11 O8 1.258 1_455 S
C11 O13 1.282 . S
O12 Cd4 2.277 . S
O12 C5 1.226 . S
O13 Cd4 2.356 . S
O13 C11 1.282 . S
C14 O15 1.306 . S
C14 O17 1.160 . S
O15 C14 1.306 . S
O15 Cd16 2.228 1_565 S
Cd16 O15 2.228 1_545 S
Cd16 O20 2.273 . S
Cd16 O24 2.277 . S
O17 C14 1.160 . S
O17 Cd18 2.203 1_565 S
Cd18 O17 2.203 1_545 S
Cd18 O20 2.411 . S
Cd18 O21 2.333 . S
Cd18 O22 2.352 1_545 S
Cd18 O26 2.277 . S
Cd18 O27 2.356 . S
C19 O24 1.209 . S
C19 O26 1.226 . S
O20 Cd16 2.273 . S
O20 Cd18 2.411 . S
O20 C23 1.320 . S
O21 Cd18 2.333 . S
O21 C23 1.214 . S
O22 Cd18 2.352 1_565 S
O22 C25 1.258 1_565 S
C23 O20 1.320 . S
C23 O21 1.214 . S
O24 Cd16 2.277 . S
O24 C19 1.209 . S
C25 O22 1.258 1_545 S
C25 O27 1.282 . S
O26 Cd18 2.277 . S
O26 C19 1.226 . S
O27 Cd18 2.356 . S
O27 C25 1.282 . S
C28 O29 1.306 . S
C28 O31 1.160 . S
O29 C28 1.306 . S
O29 Cd30 2.228 . S
Cd30 O29 2.228 . S
Cd30 O34 2.273 . S
Cd30 O38 2.277 . S
O31 C28 1.160 . S
O31 Cd32 2.203 . S
Cd32 O31 2.203 . S
Cd32 O34 2.411 . S
Cd32 O35 2.333 . S
Cd32 O36 2.352 . S
Cd32 O40 2.277 . S
Cd32 O41 2.356 . S
C33 O38 1.209 . S
C33 O40 1.226 . S
O34 Cd30 2.273 . S
O34 Cd32 2.411 . S
O34 C37 1.320 . S
O35 Cd32 2.333 . S
O35 C37 1.214 . S
O36 Cd32 2.352 . S
O36 C39 1.258 . S
C37 O34 1.320 . S
C37 O35 1.214 . S
O38 Cd30 2.277 . S
O38 C33 1.209 . S
C39 O36 1.258 . S
C39 O41 1.282 . S
O40 Cd32 2.277 . S
O40 C33 1.226 . S
O41 Cd32 2.356 . S
O41 C39 1.282 . S
C42 O43 1.306 . S
C42 O45 1.160 . S
O43 C42 1.306 . S
O43 Cd44 2.228 1_455 S
Cd44 O43 2.228 1_655 S
Cd44 O48 2.273 . S
Cd44 O52 2.277 . S
O45 C42 1.160 . S
O45 Cd46 2.203 1_455 S
Cd46 O45 2.203 1_655 S
Cd46 O48 2.411 . S
Cd46 O49 2.333 . S
Cd46 O50 2.352 1_655 S
Cd46 O54 2.277 . S
Cd46 O55 2.356 . S
C47 O52 1.209 . S
C47 O54 1.226 . S
O48 Cd44 2.273 . S
O48 Cd46 2.411 . S
O48 C51 1.320 . S
O49 Cd46 2.333 . S
O49 C51 1.214 . S
O50 Cd46 2.352 1_455 S
O50 C53 1.258 1_455 S
C51 O48 1.320 . S
C51 O49 1.214 . S
O52 Cd44 2.277 . S
O52 C47 1.209 . S
C53 O50 1.258 1_655 S
C53 O55 1.282 . S
O54 Cd46 2.277 . S
O54 C47 1.226 . S
O55 Cd46 2.356 . S
O55 C53 1.282 . S
C56 O57 1.306 . S
C56 O59 1.160 . S
O57 C56 1.306 . S
O57 Cd58 2.228 1_545 S
Cd58 O57 2.228 1_565 S
Cd58 O62 2.273 . S
Cd58 O66 2.277 . S
O59 C56 1.160 . S
O59 Cd60 2.203 1_545 S
Cd60 O59 2.203 1_565 S
Cd60 O62 2.411 . S
Cd60 O63 2.333 . S
Cd60 O64 2.352 1_565 S
Cd60 O68 2.277 . S
Cd60 O69 2.356 . S
C61 O66 1.209 . S
C61 O68 1.226 . S
O62 Cd58 2.273 . S
O62 Cd60 2.411 . S
O62 C65 1.320 . S
O63 Cd60 2.333 . S
O63 C65 1.214 . S
O64 Cd60 2.352 1_545 S
O64 C67 1.258 1_545 S
C65 O62 1.320 . S
C65 O63 1.214 . S
O66 Cd58 2.277 . S
O66 C61 1.209 . S
C67 O64 1.258 1_565 S
C67 O69 1.282 . S
O68 Cd60 2.277 . S
O68 C61 1.226 . S
O69 Cd60 2.356 . S
O69 C67 1.282 . S
C70 O71 1.306 1_554 S
C70 O73 1.160 . S
O71 C70 1.306 1_556 S
O71 Cd72 2.228 . S
Cd72 O71 2.228 . S
Cd72 O76 2.273 . S
Cd72 O80 2.277 1_556 S
O73 C70 1.160 . S
O73 Cd74 2.203 1_554 S
Cd74 O73 2.203 1_556 S
Cd74 O76 2.411 . S
Cd74 O77 2.333 . S
Cd74 O78 2.352 . S
Cd74 O82 2.277 1_556 S
Cd74 O83 2.356 . S
C75 O80 1.209 . S
C75 O82 1.226 . S
O76 Cd72 2.273 . S
O76 Cd74 2.411 . S
O76 C79 1.320 . S
O77 Cd74 2.333 . S
O77 C79 1.214 . S
O78 Cd74 2.352 . S
O78 C81 1.258 . S
C79 O76 1.320 . S
C79 O77 1.214 . S
O80 Cd72 2.277 1_554 S
O80 C75 1.209 . S
C81 O78 1.258 . S
C81 O83 1.282 . S
O82 Cd74 2.277 1_554 S
O82 C75 1.226 . S
O83 Cd74 2.356 . S
O83 C81 1.282 . S
C84 O85 1.306 . S
C84 O87 1.160 . S
O85 C84 1.306 . S
O85 Cd86 2.228 1_545 S
Cd86 O85 2.228 1_565 S
Cd86 O90 2.273 . S
Cd86 O94 2.277 . S
O87 C84 1.160 . S
O87 Cd88 2.203 1_545 S
Cd88 O87 2.203 1_565 S
Cd88 O90 2.411 . S
Cd88 O91 2.333 . S
Cd88 O92 2.352 1_565 S
Cd88 O96 2.277 . S
Cd88 O97 2.356 . S
C89 O94 1.209 . S
C89 O96 1.226 . S
O90 Cd86 2.273 . S
O90 Cd88 2.411 . S
O90 C93 1.320 . S
O91 Cd88 2.333 . S
O91 C93 1.214 . S
O92 Cd88 2.352 1_545 S
O92 C95 1.258 1_545 S
C93 O90 1.320 . S
C93 O91 1.214 . S
O94 Cd86 2.277 . S
O94 C89 1.209 . S
C95 O92 1.258 1_565 S
C95 O97 1.282 . S
O96 Cd88 2.277 . S
O96 C89 1.226 . S
O97 Cd88 2.356 . S
O97 C95 1.282 . S
C98 O99 1.306 . S
C98 O101 1.160 . S
O99 C98 1.306 . S
O99 Cd100 2.228 . S
Cd100 O99 2.228 . S
Cd100 O104 2.273 . S
Cd100 O108 2.277 . S
O101 C98 1.160 . S
O101 Cd102 2.203 . S
Cd102 O101 2.203 . S
Cd102 O104 2.411 . S
Cd102 O105 2.333 . S
Cd102 O106 2.352 . S
Cd102 O110 2.277 . S
Cd102 O111 2.356 . S
C103 O108 1.209 . S
C103 O110 1.226 . S
O104 Cd100 2.273 . S
O104 Cd102 2.411 . S
O104 C107 1.320 . S
O105 Cd102 2.333 . S
O105 C107 1.214 . S
O106 Cd102 2.352 . S
O106 C109 1.258 . S
C107 O104 1.320 . S
C107 O105 1.214 . S
O108 Cd100 2.277 . S
O108 C103 1.209 . S
C109 O106 1.258 . S
C109 O111 1.282 . S
O110 Cd102 2.277 . S
O110 C103 1.226 . S
O111 Cd102 2.356 . S
O111 C109 1.282 . S
C112 O113 1.306 1_556 S
C112 O115 1.160 . S
O113 C112 1.306 1_554 S
O113 Cd114 2.228 1_655 S
Cd114 O113 2.228 1_455 S
Cd114 O118 2.273 . S
Cd114 O122 2.277 1_554 S
O115 C112 1.160 . S
O115 Cd116 2.203 1_656 S
Cd116 O115 2.203 1_454 S
Cd116 O118 2.411 . S
Cd116 O119 2.333 . S
Cd116 O120 2.352 1_455 S
Cd116 O124 2.277 1_554 S
Cd116 O125 2.356 . S
C117 O122 1.209 . S
C117 O124 1.226 . S
O118 Cd114 2.273 . S
O118 Cd116 2.411 . S
O118 C121 1.320 . S
O119 Cd116 2.333 . S
O119 C121 1.214 . S
O120 Cd116 2.352 1_655 S
O120 C123 1.258 1_655 S
C121 O118 1.320 . S
C121 O119 1.214 . S
O122 Cd114 2.277 1_556 S
O122 C117 1.209 . S
C123 O120 1.258 1_455 S
C123 O125 1.282 . S
O124 Cd116 2.277 1_556 S
O124 C117 1.226 . S
O125 Cd116 2.356 . S
O125 C123 1.282 . S
C126 O127 1.306 . S
C126 O129 1.160 . S
O127 C126 1.306 . S
O127 Cd128 2.228 1_565 S
Cd128 O127 2.228 1_545 S
Cd128 O132 2.273 . S
Cd128 O136 2.277 . S
O129 C126 1.160 . S
O129 Cd130 2.203 1_565 S
Cd130 O129 2.203 1_545 S
Cd130 O132 2.411 . S
Cd130 O133 2.333 . S
Cd130 O134 2.352 1_545 S
Cd130 O138 2.277 . S
Cd130 O139 2.356 . S
C131 O136 1.209 . S
C131 O138 1.226 . S
O132 Cd128 2.273 . S
O132 Cd130 2.411 . S
O132 C135 1.320 . S
O133 Cd130 2.333 . S
O133 C135 1.214 . S
O134 Cd130 2.352 1_565 S
O134 C137 1.258 1_565 S
C135 O132 1.320 . S
C135 O133 1.214 . S
O136 Cd128 2.277 . S
O136 C131 1.209 . S
C137 O134 1.258 1_545 S
C137 O139 1.282 . S
O138 Cd130 2.277 . S
O138 C131 1.226 . S
O139 Cd130 2.356 . S
O139 C137 1.282 . S
C140 O141 1.306 . S
C140 O143 1.160 . S
O141 C140 1.306 . S
O141 Cd142 2.228 . S
Cd142 O141 2.228 . S
Cd142 O146 2.273 . S
Cd142 O150 2.277 . S
O143 C140 1.160 . S
O143 Cd144 2.203 . S
Cd144 O143 2.203 . S
Cd144 O146 2.411 . S
Cd144 O147 2.333 . S
Cd144 O148 2.352 . S
Cd144 O152 2.277 . S
Cd144 O153 2.356 . S
C145 O150 1.209 . S
C145 O152 1.226 . S
O146 Cd142 2.273 . S
O146 Cd144 2.411 . S
O146 C149 1.320 . S
O147 Cd144 2.333 . S
O147 C149 1.214 . S
O148 Cd144 2.352 . S
O148 C151 1.258 . S
C149 O146 1.320 . S
C149 O147 1.214 . S
O150 Cd142 2.277 . S
O150 C145 1.209 . S
C151 O148 1.258 . S
C151 O153 1.282 . S
O152 Cd144 2.277 . S
O152 C145 1.226 . S
O153 Cd144 2.356 . S
O153 C151 1.282 . S
C154 O155 1.306 . S
C154 O157 1.160 . S
O155 C154 1.306 . S
O155 Cd156 2.228 1_455 S
Cd156 O155 2.228 1_655 S
Cd156 O160 2.273 . S
Cd156 O164 2.277 . S
O157 C154 1.160 . S
O157 Cd158 2.203 1_455 S
Cd158 O157 2.203 1_655 S
Cd158 O160 2.411 . S
Cd158 O161 2.333 . S
Cd158 O162 2.352 1_655 S
Cd158 O166 2.277 . S
Cd158 O167 2.356 . S
C159 O164 1.209 . S
C159 O166 1.226 . S
O160 Cd156 2.273 . S
O160 Cd158 2.411 . S
O160 C163 1.320 . S
O161 Cd158 2.333 . S
O161 C163 1.214 . S
O162 Cd158 2.352 1_455 S
O162 C165 1.258 1_455 S
C163 O160 1.320 . S
C163 O161 1.214 . S
O164 Cd156 2.277 . S
O164 C159 1.209 . S
C165 O162 1.258 1_655 S
C165 O167 1.282 . S
O166 Cd158 2.277 . S
O166 C159 1.226 . S
O167 Cd158 2.356 . S
O167 C165 1.282 . S
C123 C11 1.536 . S
C25 C137 1.536 . S
C39 C151 1.536 . S
C53 C165 1.536 . S
C95 C67 1.536 . S
C81 C109 1.536 . S
C9 C70 1.570 . S
C23 C0 1.570 . S
C37 C14 1.570 . S
C28 C51 1.570 . S
C42 C65 1.570 . S
C56 C79 1.570 . S
C98 C93 1.570 . S
C107 C112 1.570 . S
C126 C121 1.570 . S
C135 C140 1.570 . S
C149 C154 1.570 . S
C163 C84 1.570 . S
C145 C5 1.320 . S
C159 C19 1.320 . S
C89 C33 1.320 . S
C47 C103 1.320 . S
C61 C117 1.320 . S
C131 C75 1.320 . S
