# Generated by pormake.
# Topology kag, (6)-cn, num edge types: 1
# Building blocks:
#     Node 0, Type 0, BuildingBlock: BETGAK_clean_sbu_0, # of connection points: 6
#     Node 1, Type 0, BuildingBlock: BETGAK_clean_sbu_0, # of connection points: 6
#     Node 2, Type 0, BuildingBlock: BETGAK_clean_sbu_0, # of connection points: 6
#     Edge 3, Type (0, 0), BuildingBlock: EYOCIG_clean_linker_4, # of connection points: 2
#     Edge 4, Type (0, 0), BuildingBlock: EYOCIG_clean_linker_4, # of connection points: 2
#     Edge 5, Type (0, 0), BuildingBlock: EYOCIG_clean_linker_4, # of connection points: 2
#     Edge 6, Type (0, 0), BuildingBlock: EYOCIG_clean_linker_4, # of connection points: 2
#     Edge 7, Type (0, 0), BuildingBlock: EYOCIG_clean_linker_4, # of connection points: 2
#     Edge 8, Type (0, 0), BuildingBlock: EYOCIG_clean_linker_4, # of connection points: 2
#     Edge 9, Type (0, 0), BuildingBlock: EYOCIG_clean_linker_4, # of connection points: 2
#     Edge 10, Type (0, 0), BuildingBlock: EYOCIG_clean_linker_4, # of connection points: 2
#     Edge 11, Type (0, 0), BuildingBlock: EYOCIG_clean_linker_4, # of connection points: 2
# Relax obj value: 0.110
# Max RMSD: 0.225
# Mean RMSD: 0.119
data_MOF--net-kag--node1-BETGAK_clean_sbu_0--edge1-EYOCIG_clean_linker_4
_symmetry_space_group_name_H-M    P1
_symmetry_Int_Tables_number       1
_symmetry_cell_setting            triclinic
loop_
_symmetry_equiv_pos_as_xyz
'x, y, z'
_cell_length_a     24.677411
_cell_length_b     35.598721
_cell_length_c     11.478301
_cell_angle_alpha  95.437334
_cell_angle_beta   90.645239
_cell_angle_gamma 91.677135
loop_
_atom_site_label
_atom_site_type_symbol
_atom_site_fract_x
_atom_site_fract_y
_atom_site_fract_z
_atom_type_partial_charge
La0 La 1.07921 0.48298 1.00158 0.0
La1 La 0.09566 0.57125 0.02986 0.0
C2 C 1.05251 0.41874 0.05277 0.0
C3 C 1.00337 0.39448 0.03323 0.0
C4 C 0.99451 0.37157 0.92761 0.0
C5 C 0.95216 0.34458 0.9181 0.0
C6 C 0.9184 0.34055 1.01353 0.0
C7 C 0.92434 0.3652 0.11525 0.0
C8 C 0.96662 0.39209 0.12508 0.0
C9 C 1.07907 0.50974 0.79125 0.0
C10 C 0.97571 0.53548 1.00758 0.0
C11 C 0.12238 0.63552 0.97865 0.0
C12 C 0.17148 0.65989 0.99783 0.0
C13 C 0.18032 0.68291 0.10324 0.0
C14 C 0.22242 0.71011 0.11227 0.0
C15 C 0.25592 0.71427 0.01651 0.0
C16 C 0.2501 0.68947 0.91505 0.0
C17 C 0.20808 0.66237 0.90573 0.0
C18 C 0.09584 0.54445 0.24018 0.0
C19 C 0.19913 0.51874 0.02386 0.0
O20 O 1.08198 0.42452 0.96117 0.0
O21 O 1.0472 0.44937 0.12422 0.0
O22 O 1.07367 0.47442 0.80812 0.0
O23 O 1.08321 0.52757 0.8922 0.0
O24 O 0.9952 0.50119 1.00695 0.0
O25 O 1.00689 0.56667 1.00947 0.0
O26 O 0.09303 0.62973 0.0704 0.0
O27 O 0.12764 0.60489 0.90718 0.0
O28 O 0.10128 0.57977 0.22335 0.0
O29 O 0.09156 0.52666 0.13922 0.0
O30 O 0.17964 0.55303 0.02434 0.0
O31 O 0.16796 0.48756 0.02211 0.0
H32 H 1.02165 0.37317 0.85463 0.0
H33 H 0.94765 0.32555 0.83886 0.0
H34 H 0.89833 0.36227 0.18951 0.0
H35 H 0.97211 0.4097 0.20689 0.0
H36 H 0.1533 0.68127 0.17641 0.0
H37 H 0.22686 0.72922 0.19134 0.0
H38 H 0.27595 0.69248 0.84056 0.0
H39 H 0.20262 0.64468 0.82406 0.0
La40 La 0.64391 0.03125 0.01711 0.0
La41 La 0.53049 1.02349 1.01324 0.0
C42 C 0.73496 0.05978 0.98175 0.0
C43 C 0.75178 0.1002 0.9906 0.0
C44 C 0.77824 0.11695 0.09249 0.0
C45 C 0.79499 0.15491 0.10083 0.0
C46 C 0.78525 0.17653 1.00766 0.0
C47 C 0.75709 0.16063 0.90785 0.0
C48 C 0.74022 0.12271 0.89933 0.0
C49 C 0.60528 1.02409 0.22569 0.0
C50 C 0.57252 0.10568 0.03035 0.0
C51 C 0.43947 0.99525 0.04973 0.0
C52 C 0.42248 0.9549 0.04022 0.0
C53 C 0.39619 0.93833 0.93788 0.0
C54 C 0.37919 0.90044 0.92905 0.0
C55 C 0.38852 0.8787 0.02213 0.0
C56 C 0.41665 0.89438 0.12224 0.0
C57 C 0.43377 0.93225 0.13127 0.0
C58 C 0.56911 0.03062 0.80479 0.0
C59 C 0.60179 0.94898 0.9993 0.0
O60 O 0.7224 0.0461 0.08011 0.0
O61 O 0.70069 0.04819 0.89711 0.0
O62 O 0.64887 1.00863 0.18581 0.0
O63 O 0.5852 0.04394 0.15121 0.0
O64 O 0.61926 0.08985 1.0085 0.0
O65 O 0.52887 0.08487 0.04877 0.0
O66 O 0.45169 1.00915 0.95151 0.0
O67 O 0.47415 1.00648 0.13394 0.0
O68 O 0.52545 0.04603 0.84452 0.0
O69 O 0.58917 1.01075 0.87924 0.0
O70 O 0.55497 0.96479 0.0206 0.0
O71 O 0.64553 0.96984 0.98159 0.0
H72 H 0.78675 0.10058 0.16508 0.0
H73 H 0.81669 0.16706 0.17868 0.0
H74 H 0.7493 0.17728 0.83542 0.0
H75 H 0.71889 0.111 0.82059 0.0
H76 H 0.38799 0.9548 0.86538 0.0
H77 H 0.35759 0.88842 0.8509 0.0
H78 H 0.42421 0.87763 0.19451 0.0
H79 H 0.45504 0.94381 0.21025 0.0
La80 La 0.58724 0.56876 0.02942 0.0
La81 La 0.58756 0.48593 1.00174 0.0
C82 C 0.57663 0.6385 0.01677 0.0
C83 C 0.57123 0.68002 1.01452 0.0
C84 C 0.58488 0.70464 0.11458 0.0
C85 C 0.5859 0.74391 0.11023 0.0
C86 C 0.57332 0.75951 1.00588 0.0
C87 C 0.5571 0.73515 0.90724 0.0
C88 C 0.55609 0.69574 0.91146 0.0
C89 C 0.59725 0.53803 0.22921 0.0
C90 C 0.47384 0.52154 0.02072 0.0
C91 C 0.59804 0.41615 1.01372 0.0
C92 C 0.60339 0.37462 0.0156 0.0
C93 C 0.58978 0.35008 0.91531 0.0
C94 C 0.58867 0.3108 0.91933 0.0
C95 C 0.6011 0.2951 0.02359 0.0
C96 C 0.61728 0.31936 0.12247 0.0
C97 C 0.61838 0.35878 0.11857 0.0
C98 C 0.57746 0.51691 0.80215 0.0
C99 C 0.70097 0.53309 1.01078 0.0
O100 O 0.59179 0.62394 0.1116 0.0
O101 O 0.56633 0.61339 0.92756 0.0
O102 O 0.62192 0.5686 0.20448 0.0
O103 O 0.56647 0.52582 0.14449 0.0
O104 O 0.49929 0.5543 1.00901 0.0
O105 O 0.50104 0.49088 0.03501 0.0
O106 O 0.58311 0.43083 0.91893 0.0
O107 O 0.60823 0.44116 0.10323 0.0
O108 O 0.55263 0.48638 0.82681 0.0
O109 O 0.6084 0.52884 0.88682 0.0
O110 O 0.67549 0.50034 0.02248 0.0
O111 O 0.6738 0.56376 0.99639 0.0
H112 H 0.59642 0.69359 0.19572 0.0
H113 H 0.59813 0.76207 0.18775 0.0
H114 H 0.54678 0.74652 0.82587 0.0
H115 H 0.54504 0.67761 0.83315 0.0
H116 H 0.57834 0.36122 0.83424 0.0
H117 H 0.57647 0.29271 0.84165 0.0
H118 H 0.62749 0.30791 0.20377 0.0
H119 H 0.62939 0.37684 0.19707 0.0
C120 C 0.08632 0.52627 0.56883 0.0
C121 C 1.08377 0.52294 0.67417 0.0
C122 C 0.08865 0.52787 0.46257 0.0
C123 C 0.09116 0.53122 0.35725 0.0
C124 C 0.5886 0.02756 0.45361 0.0
C125 C 0.59344 0.02745 0.34884 0.0
C126 C 0.58563 0.02705 0.5768 0.0
C127 C 0.58087 0.0272 0.6816 0.0
C128 C 0.58692 0.52709 0.57752 0.0
C129 C 0.5852 0.52455 0.68197 0.0
C130 C 0.58789 0.52788 0.45389 0.0
C131 C 0.58959 0.5304 0.34942 0.0
C132 C 0.3073 0.51631 0.02415 0.0
C133 C 0.2579 0.5159 0.02399 0.0
C134 C 0.36539 0.5179 0.02327 0.0
C135 C 0.41479 0.51952 0.02212 0.0
C136 C 0.82606 0.2457 1.01201 0.0
C137 C 0.80754 0.21414 1.01049 0.0
C138 C 0.85361 0.28064 1.01159 0.0
C139 C 0.88305 0.30807 1.01338 0.0
C140 C 0.59661 0.87391 0.99488 0.0
C141 C 0.60282 0.90801 0.99518 0.0
C142 C 0.58706 0.83407 0.99653 0.0
C143 C 0.58053 0.8001 0.99884 0.0
C144 C 0.86753 0.53805 1.00732 0.0
C145 C 0.91694 0.53836 1.00747 0.0
C146 C 0.80943 0.53659 1.00822 0.0
C147 C 0.76003 0.53506 1.00936 0.0
C148 C 0.31976 0.77466 0.01742 0.0
C149 C 0.29078 0.747 0.01604 0.0
C150 C 0.34711 0.80968 0.01701 0.0
C151 C 0.3659 0.84117 0.01882 0.0
C152 C 0.58724 0.22054 0.03256 0.0
C153 C 0.59381 0.25451 0.03032 0.0
C154 C 0.57767 0.18071 0.03431 0.0
C155 C 0.57147 0.14663 0.03427 0.0
loop_
_geom_bond_atom_site_label_1
_geom_bond_atom_site_label_2
_geom_bond_distance
_geom_bond_site_symmetry_2
_ccdc_geom_bond_type
La0 C2 2.928 . S
La0 O20 2.521 . S
La0 O21 2.628 1_556 S
La0 O22 2.554 . S
La0 O23 2.757 1_655 S
La0 O24 2.470 . S
La0 O29 2.482 1_556 S
La0 O31 2.503 1_655 S
La1 C11 2.928 . S
La1 O23 2.482 1_554 S
La1 O25 2.503 1_455 S
La1 O26 2.521 . S
La1 O27 2.628 1_554 S
La1 O28 2.554 . S
La1 O29 2.757 1_455 S
La1 O30 2.470 . S
C2 La0 2.928 . S
C2 C3 1.503 . S
C2 O20 1.261 . S
C2 O21 1.243 1_556 S
C3 C2 1.503 . S
C3 C4 1.394 . S
C3 C8 1.373 1_556 S
C4 C3 1.394 . S
C4 C5 1.380 . S
C4 H32 0.930 . S
C5 C4 1.380 . S
C5 C6 1.376 . S
C5 H33 0.930 . S
C6 C5 1.376 . S
C6 C7 1.370 1_556 S
C7 C6 1.370 1_554 S
C7 C8 1.396 . S
C7 H34 0.929 . S
C8 C3 1.373 1_554 S
C8 C7 1.396 . S
C8 H35 0.929 . S
C9 O22 1.240 1_455 S
C9 O23 1.289 . S
C10 O24 1.258 . S
C10 O25 1.256 1_556 S
C11 La1 2.928 . S
C11 C12 1.503 . S
C11 O26 1.261 . S
C11 O27 1.243 1_554 S
C12 C11 1.503 . S
C12 C13 1.394 . S
C12 C17 1.373 1_554 S
C13 C12 1.394 . S
C13 C14 1.380 . S
C13 H36 0.930 . S
C14 C13 1.380 . S
C14 C15 1.376 . S
C14 H37 0.930 . S
C15 C14 1.376 . S
C15 C16 1.370 1_554 S
C16 C15 1.370 1_556 S
C16 C17 1.396 . S
C16 H38 0.929 . S
C17 C12 1.373 1_556 S
C17 C16 1.396 . S
C17 H39 0.929 . S
C18 O28 1.240 . S
C18 O29 1.289 1_455 S
C19 O30 1.258 . S
C19 O31 1.256 1_554 S
O20 La0 2.521 . S
O20 C2 1.261 . S
O21 La0 2.628 1_554 S
O21 C2 1.243 1_554 S
O22 La0 2.554 . S
O22 C9 1.240 1_655 S
O23 La0 2.757 1_455 S
O23 La1 2.482 1_556 S
O23 C9 1.289 . S
O24 La0 2.470 . S
O24 C10 1.258 . S
O25 La1 2.503 1_655 S
O25 C10 1.256 1_554 S
O26 La1 2.521 . S
O26 C11 1.261 . S
O27 La1 2.628 1_556 S
O27 C11 1.243 1_556 S
O28 La1 2.554 . S
O28 C18 1.240 . S
O29 La0 2.482 1_554 S
O29 La1 2.757 1_655 S
O29 C18 1.289 1_655 S
O30 La1 2.470 . S
O30 C19 1.258 . S
O31 La0 2.503 1_455 S
O31 C19 1.256 1_556 S
H32 C4 0.930 . S
H33 C5 0.930 . S
H34 C7 0.929 . S
H35 C8 0.929 . S
H36 C13 0.930 . S
H37 C14 0.930 . S
H38 C16 0.929 . S
H39 C17 0.929 . S
La40 C42 2.928 1_554 S
La40 O60 2.521 . S
La40 O61 2.628 1_554 S
La40 O62 2.554 . S
La40 O63 2.757 1_545 S
La40 O64 2.470 . S
La40 O69 2.482 1_554 S
La40 O71 2.503 1_544 S
La41 C51 2.928 1_556 S
La41 O63 2.482 1_556 S
La41 O65 2.503 1_566 S
La41 O66 2.521 . S
La41 O67 2.628 1_556 S
La41 O68 2.554 . S
La41 O69 2.757 1_565 S
La41 O70 2.470 . S
C42 La40 2.928 1_556 S
C42 C43 1.503 . S
C42 O60 1.261 1_556 S
C42 O61 1.243 . S
C43 C42 1.503 . S
C43 C44 1.394 1_556 S
C43 C48 1.373 . S
C44 C43 1.394 1_554 S
C44 C45 1.380 . S
C44 H72 0.930 . S
C45 C44 1.380 . S
C45 C46 1.376 1_554 S
C45 H73 0.930 . S
C46 C45 1.376 1_556 S
C46 C47 1.370 . S
C47 C46 1.370 . S
C47 C48 1.396 . S
C47 H74 0.929 . S
C48 C43 1.373 . S
C48 C47 1.396 . S
C48 H75 0.929 . S
C49 O62 1.240 . S
C49 O63 1.289 1_545 S
C50 O64 1.258 . S
C50 O65 1.256 . S
C51 La41 2.928 1_554 S
C51 C52 1.503 . S
C51 O66 1.261 1_554 S
C51 O67 1.243 . S
C52 C51 1.503 . S
C52 C53 1.394 1_554 S
C52 C57 1.373 . S
C53 C52 1.394 1_556 S
C53 C54 1.380 . S
C53 H76 0.930 . S
C54 C53 1.380 . S
C54 C55 1.376 1_556 S
C54 H77 0.930 . S
C55 C54 1.376 1_554 S
C55 C56 1.370 . S
C56 C55 1.370 . S
C56 C57 1.396 . S
C56 H78 0.929 . S
C57 C52 1.373 . S
C57 C56 1.396 . S
C57 H79 0.929 . S
C58 O68 1.240 . S
C58 O69 1.289 1_565 S
C59 O70 1.258 . S
C59 O71 1.256 . S
O60 La40 2.521 . S
O60 C42 1.261 1_554 S
O61 La40 2.628 1_556 S
O61 C42 1.243 . S
O62 La40 2.554 . S
O62 C49 1.240 . S
O63 La40 2.757 1_565 S
O63 La41 2.482 1_554 S
O63 C49 1.289 1_565 S
O64 La40 2.470 . S
O64 C50 1.258 . S
O65 La41 2.503 1_544 S
O65 C50 1.256 . S
O66 La41 2.521 . S
O66 C51 1.261 1_556 S
O67 La41 2.628 1_554 S
O67 C51 1.243 . S
O68 La41 2.554 . S
O68 C58 1.240 . S
O69 La40 2.482 1_556 S
O69 La41 2.757 1_545 S
O69 C58 1.289 1_545 S
O70 La41 2.470 . S
O70 C59 1.258 . S
O71 La40 2.503 1_566 S
O71 C59 1.256 . S
H72 C44 0.930 . S
H73 C45 0.930 . S
H74 C47 0.929 . S
H75 C48 0.929 . S
H76 C53 0.930 . S
H77 C54 0.930 . S
H78 C56 0.929 . S
H79 C57 0.929 . S
La80 C82 2.928 . S
La80 O100 2.521 . S
La80 O101 2.628 1_554 S
La80 O102 2.554 . S
La80 O103 2.757 . S
La80 O104 2.470 . S
La80 O109 2.482 1_554 S
La80 O111 2.503 . S
La81 C91 2.928 . S
La81 O103 2.482 1_556 S
La81 O105 2.503 . S
La81 O106 2.521 . S
La81 O107 2.628 1_556 S
La81 O108 2.554 . S
La81 O109 2.757 . S
La81 O110 2.470 . S
C82 La80 2.928 . S
C82 C83 1.503 . S
C82 O100 1.261 . S
C82 O101 1.243 1_554 S
C83 C82 1.503 . S
C83 C84 1.394 . S
C83 C88 1.373 1_554 S
C84 C83 1.394 . S
C84 C85 1.380 . S
C84 H112 0.930 . S
C85 C84 1.380 . S
C85 C86 1.377 . S
C85 H113 0.930 . S
C86 C85 1.377 . S
C86 C87 1.369 1_554 S
C87 C86 1.369 1_556 S
C87 C88 1.396 . S
C87 H114 0.929 . S
C88 C83 1.373 1_556 S
C88 C87 1.396 . S
C88 H115 0.929 . S
C89 O102 1.240 . S
C89 O103 1.289 . S
C90 O104 1.258 . S
C90 O105 1.256 1_554 S
C91 La81 2.928 . S
C91 C92 1.503 . S
C91 O106 1.261 . S
C91 O107 1.243 1_556 S
C92 C91 1.503 . S
C92 C93 1.394 . S
C92 C97 1.373 1_556 S
C93 C92 1.394 . S
C93 C94 1.380 . S
C93 H116 0.930 . S
C94 C93 1.380 . S
C94 C95 1.375 1_556 S
C94 H117 0.930 . S
C95 C94 1.375 1_554 S
C95 C96 1.371 . S
C96 C95 1.371 . S
C96 C97 1.396 . S
C96 H118 0.929 . S
C97 C92 1.373 1_554 S
C97 C96 1.396 . S
C97 H119 0.929 . S
C98 O108 1.240 . S
C98 O109 1.289 . S
C99 O110 1.258 . S
C99 O111 1.256 1_556 S
O100 La80 2.521 . S
O100 C82 1.261 . S
O101 La80 2.628 1_556 S
O101 C82 1.243 1_556 S
O102 La80 2.554 . S
O102 C89 1.240 . S
O103 La80 2.757 . S
O103 La81 2.482 1_554 S
O103 C89 1.289 . S
O104 La80 2.470 . S
O104 C90 1.258 . S
O105 La81 2.503 . S
O105 C90 1.256 1_556 S
O106 La81 2.521 . S
O106 C91 1.261 . S
O107 La81 2.628 1_554 S
O107 C91 1.243 1_554 S
O108 La81 2.554 . S
O108 C98 1.240 . S
O109 La80 2.482 1_556 S
O109 La81 2.757 . S
O109 C98 1.289 . S
O110 La81 2.470 . S
O110 C99 1.258 . S
O111 La80 2.503 . S
O111 C99 1.256 1_554 S
H112 C84 0.930 . S
H113 C85 0.930 . S
H114 C87 0.929 . S
H115 C88 0.929 . S
H116 C93 0.930 . S
H117 C94 0.930 . S
H118 C96 0.929 . S
H119 C97 0.929 . S
C120 C121 1.170 . S
C120 C122 1.380 . S
C121 C120 1.170 . S
C122 C120 1.380 . S
C122 C123 1.170 . S
C123 C122 1.170 . S
C124 C125 1.173 . S
C124 C126 1.380 . S
C125 C124 1.173 . S
C126 C124 1.380 . S
C126 C127 1.169 . S
C127 C126 1.169 . S
C128 C129 1.170 . S
C128 C130 1.380 . S
C129 C128 1.170 . S
C130 C128 1.380 . S
C130 C131 1.170 . S
C131 C130 1.170 . S
C132 C133 1.170 . S
C132 C134 1.380 . S
C133 C132 1.170 . S
C134 C132 1.380 . S
C134 C135 1.170 . S
C135 C134 1.170 . S
C136 C137 1.170 . S
C136 C138 1.380 . S
C137 C136 1.170 . S
C138 C136 1.380 . S
C138 C139 1.170 . S
C139 C138 1.170 . S
C140 C141 1.170 . S
C140 C142 1.380 . S
C141 C140 1.170 . S
C142 C140 1.380 . S
C142 C143 1.170 . S
C143 C142 1.170 . S
C144 C145 1.170 . S
C144 C146 1.380 . S
C145 C144 1.170 . S
C146 C144 1.380 . S
C146 C147 1.170 . S
C147 C146 1.170 . S
C148 C149 1.170 . S
C148 C150 1.380 . S
C149 C148 1.170 . S
C150 C148 1.380 . S
C150 C151 1.170 1_556 S
C151 C150 1.170 1_554 S
C152 C153 1.170 . S
C152 C154 1.380 . S
C153 C152 1.170 . S
C154 C152 1.380 . S
C154 C155 1.171 . S
C155 C154 1.171 . S
C121 C9 1.432 . S
C123 C18 1.468 . S
C125 C49 1.455 1_565 S
C127 C58 1.428 . S
C129 C98 1.471 . S
C131 C89 1.441 . S
C133 C19 2.651 1_556 S
C135 C90 2.570 1_556 S
C137 C46 0.894 . S
C139 C6 0.942 . S
C141 C59 2.209 . S
C143 C86 2.153 1_556 S
C145 C10 2.651 1_554 S
C147 C99 2.579 1_554 S
C149 C15 0.920 1_556 S
C151 C55 0.902 . S
C153 C95 2.135 1_556 S
C155 C50 2.230 1_556 S
