# Generated by pormake.
# Topology rob, (6)-cn, num edge types: 1
# Building blocks:
#     Node 0, Type 0, BuildingBlock: BETDIP_clean_sbu_0, # of connection points: 6
#     Node 1, Type 0, BuildingBlock: BETDIP_clean_sbu_0, # of connection points: 6
#     Node 2, Type 0, BuildingBlock: BETDIP_clean_sbu_0, # of connection points: 6
#     Node 3, Type 0, BuildingBlock: BETDIP_clean_sbu_0, # of connection points: 6
#     Edge 4, Type (0, 0), BuildingBlock: EYOCIG_clean_linker_4, # of connection points: 2
#     Edge 5, Type (0, 0), BuildingBlock: EYOCIG_clean_linker_4, # of connection points: 2
#     Edge 6, Type (0, 0), BuildingBlock: EYOCIG_clean_linker_4, # of connection points: 2
#     Edge 7, Type (0, 0), BuildingBlock: EYOCIG_clean_linker_4, # of connection points: 2
#     Edge 8, Type (0, 0), BuildingBlock: EYOCIG_clean_linker_4, # of connection points: 2
#     Edge 9, Type (0, 0), BuildingBlock: EYOCIG_clean_linker_4, # of connection points: 2
#     Edge 10, Type (0, 0), BuildingBlock: EYOCIG_clean_linker_4, # of connection points: 2
#     Edge 11, Type (0, 0), BuildingBlock: EYOCIG_clean_linker_4, # of connection points: 2
#     Edge 12, Type (0, 0), BuildingBlock: EYOCIG_clean_linker_4, # of connection points: 2
#     Edge 13, Type (0, 0), BuildingBlock: EYOCIG_clean_linker_4, # of connection points: 2
#     Edge 14, Type (0, 0), BuildingBlock: EYOCIG_clean_linker_4, # of connection points: 2
#     Edge 15, Type (0, 0), BuildingBlock: EYOCIG_clean_linker_4, # of connection points: 2
# Relax obj value: 0.039
# Max RMSD: 0.152
# Mean RMSD: 0.152
data_MOF--net-rob--node1-BETDIP_clean_sbu_0--edge1-EYOCIG_clean_linker_4
_symmetry_space_group_name_H-M    P1
_symmetry_Int_Tables_number       1
_symmetry_cell_setting            triclinic
loop_
_symmetry_equiv_pos_as_xyz
'x, y, z'
_cell_length_a     12.824331
_cell_length_b     18.303039
_cell_length_c     30.670117
_cell_angle_alpha  95.616378
_cell_angle_beta   90.00187
_cell_angle_gamma 89.999522
loop_
_atom_site_label
_atom_site_type_symbol
_atom_site_fract_x
_atom_site_fract_y
_atom_site_fract_z
_atom_type_partial_charge
Tb0 Tb 0.15678 0.31894 0.06059 0.0
Tb1 Tb 0.33826 0.24529 1.01269 0.0
C2 C 0.00796 0.34764 0.11283 0.0
C3 C 0.99394 0.34734 0.16074 0.0
C4 C 0.00777 0.2829 0.18167 0.0
C5 C 0.99422 0.28398 0.22699 0.0
C6 C 0.96717 0.34935 0.25205 0.0
C7 C 0.95422 0.41384 0.23153 0.0
C8 C 0.9673 0.4128 0.18616 0.0
C9 C 0.30732 0.40753 0.04165 0.0
C10 C 0.34178 0.24773 0.11328 0.0
C11 C 0.4869 0.21603 0.96042 0.0
C12 C 0.50106 0.21654 0.91254 0.0
C13 C 0.48616 0.28089 0.89164 0.0
C14 C 0.49982 0.27998 0.84633 0.0
C15 C 0.52803 0.21486 0.82127 0.0
C16 C 0.54199 0.15045 0.84177 0.0
C17 C 0.5288 0.15133 0.88713 0.0
C18 C 0.18732 0.15699 0.03181 0.0
C19 C 0.15352 0.31675 0.96002 0.0
O20 O 0.02019 0.28395 0.08988 0.0
O21 O 0.07144 0.39749 0.10035 0.0
O22 O 0.31858 0.34448 0.0541 0.0
O23 O 0.20955 0.42514 0.04214 0.0
O24 O 0.24379 0.27027 0.11247 0.0
O25 O 0.40142 0.24161 0.07803 0.0
O26 O 0.47534 0.27968 0.9835 0.0
O27 O 0.42275 0.16647 0.97276 0.0
O28 O 0.17662 0.21988 1.01914 0.0
O29 O 0.28505 0.13925 0.03143 0.0
O30 O 0.25156 0.29434 0.96087 0.0
O31 O 0.09375 0.32266 0.99522 0.0
H32 H 0.02886 0.23161 0.16313 0.0
H33 H 0.00425 0.23364 0.24242 0.0
H34 H 0.9332 0.46481 0.25049 0.0
H35 H 0.95649 0.46319 0.17087 0.0
H36 H 0.46414 0.33196 0.91019 0.0
H37 H 0.48897 0.33025 0.83092 0.0
H38 H 0.56388 0.09968 0.82281 0.0
H39 H 0.54038 0.10101 0.90241 0.0
Tb40 Tb 0.65674 0.81901 0.06065 0.0
Tb41 Tb 0.83819 0.74534 1.01274 0.0
C42 C 0.50793 0.84774 0.1129 0.0
C43 C 0.49392 0.84743 0.16081 0.0
C44 C 0.50753 0.78295 0.18172 0.0
C45 C 0.49399 0.78403 0.22704 0.0
C46 C 0.46717 0.84943 0.25212 0.0
C47 C 0.45444 0.91396 0.23162 0.0
C48 C 0.46751 0.91293 0.18624 0.0
C49 C 0.80731 0.90758 0.04172 0.0
C50 C 0.84172 0.74777 0.11333 0.0
C51 C 0.9868 0.71606 0.96047 0.0
C52 C 0.00095 0.7166 0.9126 0.0
C53 C 0.98564 0.7809 0.89168 0.0
C54 C -0.0007 0.78001 0.84637 0.0
C55 C 0.02791 0.71497 0.82132 0.0
C56 C 0.04227 0.65061 0.84184 0.0
C57 C 0.02909 0.65146 0.88719 0.0
C58 C 0.68722 0.65705 0.03186 0.0
C59 C 0.65347 0.81686 0.96008 0.0
O60 O 0.52014 0.78404 0.08995 0.0
O61 O 0.57143 0.89757 0.10042 0.0
O62 O 0.81855 0.84453 0.05415 0.0
O63 O 0.70954 0.92521 0.04221 0.0
O64 O 0.74374 0.77032 0.11252 0.0
O65 O 0.90136 0.74164 0.07808 0.0
O66 O 0.97529 0.77971 0.98356 0.0
O67 O 0.92262 0.66652 0.97279 0.0
O68 O 0.67653 0.71995 1.0192 0.0
O69 O 0.78495 0.63931 0.03148 0.0
O70 O 0.75151 0.79443 0.96093 0.0
O71 O 0.5937 0.82276 0.99529 0.0
H72 H 0.52843 0.73164 0.16317 0.0
H73 H 0.50385 0.73366 0.24246 0.0
H74 H 0.4336 0.96496 0.25059 0.0
H75 H 0.45687 0.96334 0.17097 0.0
H76 H 0.96331 0.8319 0.91022 0.0
H77 H 0.98814 0.83024 0.83095 0.0
H78 H 0.06446 0.5999 0.82288 0.0
H79 H 0.04096 0.60119 0.90248 0.0
Tb80 Tb 0.15674 0.74583 0.51281 0.0
Tb81 Tb 0.33826 0.81944 0.56071 0.0
C82 C 0.0079 0.71717 0.46057 0.0
C83 C 0.99389 0.71745 0.41266 0.0
C84 C 0.00722 0.78196 0.39175 0.0
C85 C 0.99369 0.78086 0.34642 0.0
C86 C 0.96713 0.71541 0.32134 0.0
C87 C 0.95466 0.65085 0.34184 0.0
C88 C 0.96773 0.6519 0.38721 0.0
C89 C 0.30728 0.65721 0.53173 0.0
C90 C 0.34176 0.81701 0.46012 0.0
C91 C 0.48692 0.84864 0.61297 0.0
C92 C 0.50107 0.84818 0.66086 0.0
C93 C 0.48703 0.78371 0.68173 0.0
C94 C 0.50067 0.78466 0.72705 0.0
C95 C 0.52802 0.84993 0.75215 0.0
C96 C 0.54115 0.91445 0.73168 0.0
C97 C 0.52799 0.91354 0.68632 0.0
C98 C 0.18734 0.90778 0.54161 0.0
C99 C 0.1535 0.74801 0.61338 0.0
O100 O 0.02019 0.78087 0.48351 0.0
O101 O 0.07133 0.6673 0.47307 0.0
O102 O 0.31854 0.72026 0.51929 0.0
O103 O 0.2095 0.63961 0.53125 0.0
O104 O 0.24376 0.7945 0.46093 0.0
O105 O 0.40141 0.82312 0.49537 0.0
O106 O 0.47528 0.78498 0.58992 0.0
O107 O 0.42286 0.89823 0.60061 0.0
O108 O 0.17662 0.84488 0.55427 0.0
O109 O 0.28507 0.9255 0.54199 0.0
O110 O 0.25154 0.77042 0.61254 0.0
O111 O 0.09372 0.74212 0.57818 0.0
H112 H 0.02791 0.83331 0.4103 0.0
H113 H 0.00334 0.83125 0.33102 0.0
H114 H 0.93402 0.59982 0.32286 0.0
H115 H 0.95729 0.60146 0.40248 0.0
H116 H 0.46569 0.73251 0.66316 0.0
H117 H 0.49047 0.73429 0.74243 0.0
H118 H 0.56239 0.96534 0.75067 0.0
H119 H 0.53893 0.96396 0.67107 0.0
Tb120 Tb 0.65677 0.24576 0.51275 0.0
Tb121 Tb 0.83822 0.31946 0.56066 0.0
C122 C 0.50797 0.21701 0.46051 0.0
C123 C 0.49395 0.21732 0.4126 0.0
C124 C 0.50771 0.28178 0.39168 0.0
C125 C 0.49416 0.2807 0.34636 0.0
C126 C 0.46719 0.21532 0.32129 0.0
C127 C 0.45431 0.15081 0.3418 0.0
C128 C 0.46738 0.15185 0.38718 0.0
C129 C 0.80735 0.15721 0.53171 0.0
C130 C 0.84174 0.31699 0.46007 0.0
C131 C 0.98684 0.34877 0.61293 0.0
C132 C 0.00101 0.34822 0.6608 0.0
C133 C 0.98562 0.28394 0.68172 0.0
C134 C -0.00071 0.28482 0.72703 0.0
C135 C 0.02798 0.34984 0.75207 0.0
C136 C 0.04241 0.41419 0.73156 0.0
C137 C 0.02922 0.41334 0.6862 0.0
C138 C 0.68724 0.40773 0.54152 0.0
C139 C 0.65353 0.24795 0.61333 0.0
O140 O 0.52015 0.28071 0.48346 0.0
O141 O 0.57148 0.16719 0.47299 0.0
O142 O 0.81859 0.22025 0.51926 0.0
O143 O 0.7096 0.13958 0.53122 0.0
O144 O 0.74376 0.29443 0.46088 0.0
O145 O 0.90138 0.32315 0.49532 0.0
O146 O 0.97535 0.28513 0.58984 0.0
O147 O 0.92262 0.3983 0.60061 0.0
O148 O 0.67656 0.34484 0.5542 0.0
O149 O 0.78496 0.42548 0.5419 0.0
O150 O 0.75156 0.27038 0.61248 0.0
O151 O 0.59375 0.24203 0.57812 0.0
H152 H 0.52873 0.33307 0.41022 0.0
H153 H 0.50414 0.33105 0.33094 0.0
H154 H 0.43335 0.09984 0.32284 0.0
H155 H 0.45663 0.10145 0.40246 0.0
H156 H 0.96322 0.23294 0.66318 0.0
H157 H 0.98807 0.23459 0.74245 0.0
H158 H 0.06467 0.46489 0.75051 0.0
H159 H 0.04116 0.46361 0.67091 0.0
C160 C 0.5362 0.55953 0.03593 0.0
C161 C 0.60394 0.60491 0.03394 0.0
C162 C 0.458 0.50531 0.03754 0.0
C163 C 0.39037 0.45986 0.03954 0.0
C164 C 0.45796 0.55944 0.53583 0.0
C165 C 0.39032 0.60488 0.53384 0.0
C166 C 0.53618 0.50523 0.53745 0.0
C167 C 0.60394 0.45987 0.53944 0.0
C168 C 0.03627 0.0595 0.03592 0.0
C169 C 0.10403 0.10485 0.03392 0.0
C170 C 0.95803 1.0053 0.03756 0.0
C171 C 0.89038 0.95988 0.03958 0.0
C172 C 0.95809 0.05949 0.53586 0.0
C173 C 0.89043 0.10491 0.53385 0.0
C174 C 0.03632 1.00529 0.5375 0.0
C175 C 0.10406 0.95993 0.5395 0.0
C176 C 0.43525 0.21741 0.23607 0.0
C177 C 0.44943 0.21525 0.27483 0.0
C178 C 0.4119 0.22409 0.19158 0.0
C179 C 0.38499 0.23387 0.1549 0.0
C180 C 0.43524 0.84734 0.33733 0.0
C181 C 0.44942 0.84951 0.29858 0.0
C182 C 0.41188 0.84066 0.38182 0.0
C183 C 0.38497 0.83088 0.4185 0.0
C184 C 0.58348 0.84077 0.8818 0.0
C185 C 0.61036 0.83085 0.91847 0.0
C186 C 0.5601 0.84759 0.83733 0.0
C187 C 0.54586 0.84986 0.79859 0.0
C188 C 0.58355 0.22407 0.69162 0.0
C189 C 0.61042 0.23397 0.65495 0.0
C190 C 0.56016 0.21727 0.73609 0.0
C191 C 0.5459 0.21499 0.77483 0.0
C192 C 0.91185 0.72413 0.19163 0.0
C193 C 0.88494 0.73391 0.15495 0.0
C194 C 0.93521 0.71746 0.23612 0.0
C195 C 0.94939 0.7153 0.27488 0.0
C196 C 0.91185 0.34061 0.38176 0.0
C197 C 0.88495 0.33085 0.41844 0.0
C198 C 0.93521 0.34727 0.33727 0.0
C199 C 0.9494 0.34942 0.29851 0.0
C200 C 0.06012 0.34739 0.83725 0.0
C201 C 0.04587 0.34967 0.79851 0.0
C202 C 0.08352 0.3406 0.88173 0.0
C203 C 0.1104 0.33071 0.91839 0.0
C204 C 0.08347 0.72419 0.69167 0.0
C205 C 0.11037 0.73407 0.655 0.0
C206 C 0.06006 0.7174 0.73614 0.0
C207 C 0.0458 0.71513 0.77489 0.0
loop_
_geom_bond_atom_site_label_1
_geom_bond_atom_site_label_2
_geom_bond_distance
_geom_bond_site_symmetry_2
_ccdc_geom_bond_type
Tb0 C2 2.809 . S
Tb0 O20 2.484 . S
Tb0 O21 2.440 . S
Tb0 O22 2.658 1_554 S
Tb0 O23 2.409 . S
Tb0 O24 2.378 . S
Tb0 O28 2.325 . S
Tb0 O31 2.341 1_554 S
Tb1 C11 2.809 . S
Tb1 O22 2.325 . S
Tb1 O25 2.341 1_556 S
Tb1 O26 2.484 . S
Tb1 O27 2.440 . S
Tb1 O28 2.658 1_556 S
Tb1 O29 2.409 . S
Tb1 O30 2.378 . S
C2 Tb0 2.809 . S
C2 C3 1.514 . S
C2 O20 1.248 . S
C2 O21 1.266 . S
C3 C2 1.514 . S
C3 C4 1.359 . S
C3 C8 1.348 . S
C4 C3 1.359 . S
C4 C5 1.380 1_455 S
C4 H32 0.929 . S
C5 C4 1.380 1_655 S
C5 C6 1.347 . S
C5 H33 0.931 . S
C6 C5 1.347 . S
C6 C7 1.369 . S
C7 C6 1.369 . S
C7 C8 1.408 1_655 S
C7 H34 0.930 . S
C8 C3 1.348 . S
C8 C7 1.408 1_455 S
C8 H35 0.930 . S
C9 O22 1.281 1_554 S
C9 O23 1.254 . S
C10 O24 1.236 . S
C10 O25 1.266 . S
C11 Tb1 2.809 . S
C11 C12 1.514 . S
C11 O26 1.248 . S
C11 O27 1.266 . S
C12 C11 1.514 . S
C12 C13 1.359 . S
C12 C17 1.348 . S
C13 C12 1.359 . S
C13 C14 1.380 . S
C13 H36 0.929 . S
C14 C13 1.380 . S
C14 C15 1.347 . S
C14 H37 0.931 . S
C15 C14 1.347 . S
C15 C16 1.369 . S
C16 C15 1.369 . S
C16 C17 1.408 . S
C16 H38 0.930 . S
C17 C12 1.348 . S
C17 C16 1.408 . S
C17 H39 0.930 . S
C18 O28 1.281 . S
C18 O29 1.254 1_554 S
C19 O30 1.236 . S
C19 O31 1.266 . S
O20 Tb0 2.484 . S
O20 C2 1.248 . S
O21 Tb0 2.440 . S
O21 C2 1.266 . S
O22 Tb0 2.658 1_556 S
O22 Tb1 2.325 . S
O22 C9 1.281 1_556 S
O23 Tb0 2.409 . S
O23 C9 1.254 . S
O24 Tb0 2.378 . S
O24 C10 1.236 . S
O25 Tb1 2.341 1_554 S
O25 C10 1.266 . S
O26 Tb1 2.484 . S
O26 C11 1.248 . S
O27 Tb1 2.440 . S
O27 C11 1.266 . S
O28 Tb0 2.325 . S
O28 Tb1 2.658 1_554 S
O28 C18 1.281 . S
O29 Tb1 2.409 . S
O29 C18 1.254 1_556 S
O30 Tb1 2.378 . S
O30 C19 1.236 . S
O31 Tb0 2.341 1_556 S
O31 C19 1.266 . S
H32 C4 0.929 . S
H33 C5 0.931 . S
H34 C7 0.930 . S
H35 C8 0.930 . S
H36 C13 0.929 . S
H37 C14 0.931 . S
H38 C16 0.930 . S
H39 C17 0.930 . S
Tb40 C42 2.809 . S
Tb40 O60 2.484 . S
Tb40 O61 2.440 . S
Tb40 O62 2.658 1_554 S
Tb40 O63 2.409 . S
Tb40 O64 2.378 . S
Tb40 O68 2.325 . S
Tb40 O71 2.341 1_554 S
Tb41 C51 2.809 . S
Tb41 O62 2.325 . S
Tb41 O65 2.341 1_556 S
Tb41 O66 2.484 . S
Tb41 O67 2.440 . S
Tb41 O68 2.658 1_556 S
Tb41 O69 2.409 . S
Tb41 O70 2.378 . S
C42 Tb40 2.809 . S
C42 C43 1.514 . S
C42 O60 1.248 . S
C42 O61 1.266 . S
C43 C42 1.514 . S
C43 C44 1.359 . S
C43 C48 1.348 . S
C44 C43 1.359 . S
C44 C45 1.380 . S
C44 H72 0.929 . S
C45 C44 1.380 . S
C45 C46 1.347 . S
C45 H73 0.931 . S
C46 C45 1.347 . S
C46 C47 1.369 . S
C47 C46 1.369 . S
C47 C48 1.408 . S
C47 H74 0.930 . S
C48 C43 1.348 . S
C48 C47 1.408 . S
C48 H75 0.930 . S
C49 O62 1.281 1_554 S
C49 O63 1.254 . S
C50 O64 1.236 . S
C50 O65 1.266 . S
C51 Tb41 2.809 . S
C51 C52 1.514 . S
C51 O66 1.248 . S
C51 O67 1.266 . S
C52 C51 1.514 . S
C52 C53 1.359 . S
C52 C57 1.348 . S
C53 C52 1.359 . S
C53 C54 1.380 1_655 S
C53 H76 0.929 . S
C54 C53 1.380 1_455 S
C54 C55 1.347 . S
C54 H77 0.931 . S
C55 C54 1.347 . S
C55 C56 1.369 . S
C56 C55 1.369 . S
C56 C57 1.408 1_455 S
C56 H78 0.930 . S
C57 C52 1.348 . S
C57 C56 1.408 1_655 S
C57 H79 0.930 . S
C58 O68 1.281 . S
C58 O69 1.254 1_554 S
C59 O70 1.236 . S
C59 O71 1.266 . S
O60 Tb40 2.484 . S
O60 C42 1.248 . S
O61 Tb40 2.440 . S
O61 C42 1.266 . S
O62 Tb40 2.658 1_556 S
O62 Tb41 2.325 . S
O62 C49 1.281 1_556 S
O63 Tb40 2.409 . S
O63 C49 1.254 . S
O64 Tb40 2.378 . S
O64 C50 1.236 . S
O65 Tb41 2.341 1_554 S
O65 C50 1.266 . S
O66 Tb41 2.484 . S
O66 C51 1.248 . S
O67 Tb41 2.440 . S
O67 C51 1.266 . S
O68 Tb40 2.325 . S
O68 Tb41 2.658 1_554 S
O68 C58 1.281 . S
O69 Tb41 2.409 . S
O69 C58 1.254 1_556 S
O70 Tb41 2.378 . S
O70 C59 1.236 . S
O71 Tb40 2.341 1_556 S
O71 C59 1.266 . S
H72 C44 0.929 . S
H73 C45 0.931 . S
H74 C47 0.930 . S
H75 C48 0.930 . S
H76 C53 0.929 . S
H77 C54 0.931 . S
H78 C56 0.930 . S
H79 C57 0.930 . S
Tb80 C82 2.809 . S
Tb80 O100 2.484 . S
Tb80 O101 2.440 . S
Tb80 O102 2.658 . S
Tb80 O103 2.409 . S
Tb80 O104 2.378 . S
Tb80 O108 2.325 . S
Tb80 O111 2.341 . S
Tb81 C91 2.809 . S
Tb81 O102 2.325 . S
Tb81 O105 2.341 . S
Tb81 O106 2.484 . S
Tb81 O107 2.440 . S
Tb81 O108 2.658 . S
Tb81 O109 2.409 . S
Tb81 O110 2.378 . S
C82 Tb80 2.809 . S
C82 C83 1.514 . S
C82 O100 1.248 . S
C82 O101 1.266 . S
C83 C82 1.514 . S
C83 C84 1.359 . S
C83 C88 1.348 . S
C84 C83 1.359 . S
C84 C85 1.380 1_455 S
C84 H112 0.929 . S
C85 C84 1.380 1_655 S
C85 C86 1.347 . S
C85 H113 0.931 . S
C86 C85 1.347 . S
C86 C87 1.369 . S
C87 C86 1.369 . S
C87 C88 1.408 1_655 S
C87 H114 0.930 . S
C88 C83 1.348 . S
C88 C87 1.408 1_455 S
C88 H115 0.930 . S
C89 O102 1.281 . S
C89 O103 1.254 . S
C90 O104 1.236 . S
C90 O105 1.266 . S
C91 Tb81 2.809 . S
C91 C92 1.514 . S
C91 O106 1.248 . S
C91 O107 1.266 . S
C92 C91 1.514 . S
C92 C93 1.359 . S
C92 C97 1.348 . S
C93 C92 1.359 . S
C93 C94 1.380 . S
C93 H116 0.929 . S
C94 C93 1.380 . S
C94 C95 1.347 . S
C94 H117 0.931 . S
C95 C94 1.347 . S
C95 C96 1.369 . S
C96 C95 1.369 . S
C96 C97 1.408 . S
C96 H118 0.930 . S
C97 C92 1.348 . S
C97 C96 1.408 . S
C97 H119 0.930 . S
C98 O108 1.281 . S
C98 O109 1.254 . S
C99 O110 1.236 . S
C99 O111 1.266 . S
O100 Tb80 2.484 . S
O100 C82 1.248 . S
O101 Tb80 2.440 . S
O101 C82 1.266 . S
O102 Tb80 2.658 . S
O102 Tb81 2.325 . S
O102 C89 1.281 . S
O103 Tb80 2.409 . S
O103 C89 1.254 . S
O104 Tb80 2.378 . S
O104 C90 1.236 . S
O105 Tb81 2.341 . S
O105 C90 1.266 . S
O106 Tb81 2.484 . S
O106 C91 1.248 . S
O107 Tb81 2.440 . S
O107 C91 1.266 . S
O108 Tb80 2.325 . S
O108 Tb81 2.658 . S
O108 C98 1.281 . S
O109 Tb81 2.409 . S
O109 C98 1.254 . S
O110 Tb81 2.378 . S
O110 C99 1.236 . S
O111 Tb80 2.341 . S
O111 C99 1.266 . S
H112 C84 0.929 . S
H113 C85 0.931 . S
H114 C87 0.930 . S
H115 C88 0.930 . S
H116 C93 0.929 . S
H117 C94 0.931 . S
H118 C96 0.930 . S
H119 C97 0.930 . S
Tb120 C122 2.809 . S
Tb120 O140 2.484 . S
Tb120 O141 2.440 . S
Tb120 O142 2.658 . S
Tb120 O143 2.409 . S
Tb120 O144 2.378 . S
Tb120 O148 2.325 . S
Tb120 O151 2.341 . S
Tb121 C131 2.809 . S
Tb121 O142 2.325 . S
Tb121 O145 2.341 . S
Tb121 O146 2.484 . S
Tb121 O147 2.440 . S
Tb121 O148 2.658 . S
Tb121 O149 2.409 . S
Tb121 O150 2.378 . S
C122 Tb120 2.809 . S
C122 C123 1.514 . S
C122 O140 1.248 . S
C122 O141 1.266 . S
C123 C122 1.514 . S
C123 C124 1.359 . S
C123 C128 1.348 . S
C124 C123 1.359 . S
C124 C125 1.380 . S
C124 H152 0.929 . S
C125 C124 1.380 . S
C125 C126 1.347 . S
C125 H153 0.931 . S
C126 C125 1.347 . S
C126 C127 1.369 . S
C127 C126 1.369 . S
C127 C128 1.408 . S
C127 H154 0.930 . S
C128 C123 1.348 . S
C128 C127 1.408 . S
C128 H155 0.930 . S
C129 O142 1.281 . S
C129 O143 1.254 . S
C130 O144 1.236 . S
C130 O145 1.266 . S
C131 Tb121 2.809 . S
C131 C132 1.514 . S
C131 O146 1.248 . S
C131 O147 1.266 . S
C132 C131 1.514 . S
C132 C133 1.359 . S
C132 C137 1.348 . S
C133 C132 1.359 . S
C133 C134 1.380 1_655 S
C133 H156 0.929 . S
C134 C133 1.380 1_455 S
C134 C135 1.347 . S
C134 H157 0.931 . S
C135 C134 1.347 . S
C135 C136 1.369 . S
C136 C135 1.369 . S
C136 C137 1.408 1_455 S
C136 H158 0.930 . S
C137 C132 1.348 . S
C137 C136 1.408 1_655 S
C137 H159 0.930 . S
C138 O148 1.281 . S
C138 O149 1.254 . S
C139 O150 1.236 . S
C139 O151 1.266 . S
O140 Tb120 2.484 . S
O140 C122 1.248 . S
O141 Tb120 2.440 . S
O141 C122 1.266 . S
O142 Tb120 2.658 . S
O142 Tb121 2.325 . S
O142 C129 1.281 . S
O143 Tb120 2.409 . S
O143 C129 1.254 . S
O144 Tb120 2.378 . S
O144 C130 1.236 . S
O145 Tb121 2.341 . S
O145 C130 1.266 . S
O146 Tb121 2.484 . S
O146 C131 1.248 . S
O147 Tb121 2.440 . S
O147 C131 1.266 . S
O148 Tb120 2.325 . S
O148 Tb121 2.658 . S
O148 C138 1.281 . S
O149 Tb121 2.409 . S
O149 C138 1.254 . S
O150 Tb121 2.378 . S
O150 C139 1.236 . S
O151 Tb120 2.341 . S
O151 C139 1.266 . S
H152 C124 0.929 . S
H153 C125 0.931 . S
H154 C127 0.930 . S
H155 C128 0.930 . S
H156 C133 0.929 . S
H157 C134 0.931 . S
H158 C136 0.930 . S
H159 C137 0.930 . S
C160 C161 1.170 . S
C160 C162 1.380 . S
C161 C160 1.170 . S
C162 C160 1.380 . S
C162 C163 1.170 . S
C163 C162 1.170 . S
C164 C165 1.170 . S
C164 C166 1.380 . S
C165 C164 1.170 . S
C166 C164 1.380 . S
C166 C167 1.170 . S
C167 C166 1.170 . S
C168 C169 1.170 . S
C168 C170 1.380 1_445 S
C169 C168 1.170 . S
C170 C168 1.380 1_665 S
C170 C171 1.170 . S
C171 C170 1.170 . S
C172 C173 1.170 . S
C172 C174 1.380 1_645 S
C173 C172 1.170 . S
C174 C172 1.380 1_465 S
C174 C175 1.170 . S
C175 C174 1.170 . S
C176 C177 1.170 . S
C176 C178 1.380 . S
C177 C176 1.170 . S
C178 C176 1.380 . S
C178 C179 1.170 . S
C179 C178 1.170 . S
C180 C181 1.170 . S
C180 C182 1.380 . S
C181 C180 1.170 . S
C182 C180 1.380 . S
C182 C183 1.170 . S
C183 C182 1.170 . S
C184 C185 1.170 . S
C184 C186 1.380 . S
C185 C184 1.170 . S
C186 C184 1.380 . S
C186 C187 1.170 . S
C187 C186 1.170 . S
C188 C189 1.170 . S
C188 C190 1.380 . S
C189 C188 1.170 . S
C190 C188 1.380 . S
C190 C191 1.170 . S
C191 C190 1.170 . S
C192 C193 1.170 . S
C192 C194 1.380 . S
C193 C192 1.170 . S
C194 C192 1.380 . S
C194 C195 1.170 . S
C195 C194 1.170 . S
C196 C197 1.170 . S
C196 C198 1.380 . S
C197 C196 1.170 . S
C198 C196 1.380 . S
C198 C199 1.170 . S
C199 C198 1.170 . S
C200 C201 1.170 . S
C200 C202 1.380 . S
C201 C200 1.170 . S
C202 C200 1.380 . S
C202 C203 1.170 . S
C203 C202 1.170 . S
C204 C205 1.170 . S
C204 C206 1.380 . S
C205 C204 1.170 . S
C206 C204 1.380 . S
C206 C207 1.170 . S
C207 C206 1.170 . S
C161 C58 1.529 . S
C163 C9 1.520 . S
C165 C89 1.532 . S
C167 C138 1.529 . S
C169 C18 1.535 . S
C171 C49 1.524 . S
C173 C129 1.538 . S
C175 C98 1.519 . S
C177 C126 1.383 . S
C179 C10 1.395 . S
C181 C46 1.385 . S
C183 C90 1.395 . S
C185 C59 1.395 . S
C187 C95 1.373 . S
C189 C139 1.395 . S
C191 C15 1.369 . S
C193 C50 1.394 . S
C195 C86 1.385 . S
C197 C130 1.392 . S
C199 C6 1.382 . S
C201 C135 1.385 . S
C203 C19 1.387 . S
C205 C99 1.391 . S
C207 C55 1.357 . S
