# Generated by pormake.
# Topology pcu, (6)-cn, num edge types: 1
# Building blocks:
#     Node 0, Type 0, BuildingBlock: MIDCAF_clean_sbu_0, # of connection points: 6
#     Edge 1, Type (0, 0), BuildingBlock: UKIBIB_clean_linker_0, # of connection points: 2
#     Edge 2, Type (0, 0), BuildingBlock: UKIBIB_clean_linker_0, # of connection points: 2
#     Edge 3, Type (0, 0), BuildingBlock: UKIBIB_clean_linker_0, # of connection points: 2
# Relax obj value: 0.148
# Max RMSD: 0.201
# Mean RMSD: 0.201
data_MOF--net-pcu--node1-MIDCAF_clean_sbu_0--edge1-UKIBIB_clean_linker_0
_symmetry_space_group_name_H-M    P1
_symmetry_Int_Tables_number       1
_symmetry_cell_setting            triclinic
loop_
_symmetry_equiv_pos_as_xyz
'x, y, z'
_cell_length_a     20.653644
_cell_length_b     20.639355
_cell_length_c     20.620055
_cell_angle_alpha  94.338806
_cell_angle_beta   96.035756
_cell_angle_gamma 96.02898
loop_
_atom_site_label
_atom_site_type_symbol
_atom_site_fract_x
_atom_site_fract_y
_atom_site_fract_z
_atom_type_partial_charge
Zn0 Zn 0.91412 0.93037 0.92628 0.0
Zn1 Zn 0.08172 0.07579 0.07737 0.0
Zn2 Zn 0.99884 0.00228 1.00279 0.0
C3 C 0.14305 0.05889 0.96809 0.0
C4 C 0.0625 0.96821 0.14496 0.0
O5 O 0.90688 0.05152 0.98987 0.0
O6 O 0.84207 0.9847 0.91597 0.0
C7 C 0.01858 0.94787 0.85524 0.0
O8 O 0.08997 0.01943 0.95274 0.0
O9 O 0.15058 0.09516 0.02086 0.0
O10 O 0.10219 0.01926 0.1474 0.0
O11 O 0.01896 0.95347 0.09498 0.0
O12 O 0.96261 0.91598 0.85072 0.0
O13 O 0.04117 0.984 0.90822 0.0
O14 O 0.97977 0.90851 0.04887 0.0
O15 O 0.90012 0.85573 0.97881 0.0
C16 C 0.93835 0.85751 0.0309 0.0
O17 O 0.9567 0.09628 0.02413 0.0
O18 O 0.03139 0.14816 0.10001 0.0
C19 C 0.85167 0.03647 0.9537 0.0
C20 C 0.97735 0.14644 0.06501 0.0
C21 C 0.00267 0.91818 0.23128 0.0
C22 C 0.0618 0.93324 0.20464 0.0
C23 C 0.0036 0.9086 0.298 0.0
C24 C 0.07546 0.00289 0.76942 0.0
C25 C 0.05371 0.94527 0.79672 0.0
C26 C 0.08763 1.00032 0.70359 0.0
H27 H 0.16762 0.94282 0.22425 0.0
H28 H 0.16898 0.92466 0.34009 0.0
H29 H 0.03379 0.83991 0.77959 0.0
H30 H 0.0564 0.83551 0.66552 0.0
C31 C 0.12145 0.93128 0.2437 0.0
C32 C 0.1223 0.92134 0.30993 0.0
C33 C 0.05062 0.8849 0.75954 0.0
C34 C 0.06315 0.88235 0.69434 0.0
C35 C 0.06355 0.91319 0.33797 0.0
C36 C 0.06565 0.91769 0.40827 0.0
C37 C 0.07058 0.92185 0.4673 0.0
C38 C 0.07879 0.94014 0.66531 0.0
C39 C 0.07815 0.93732 0.59518 0.0
C40 C 0.07657 0.93053 0.53639 0.0
H41 H 0.95607 0.92017 0.2024 0.0
H42 H 0.95773 0.90216 0.31914 0.0
H43 H 0.07736 0.05006 0.79689 0.0
H44 H 0.0998 0.04544 0.68163 0.0
C45 C 0.22754 0.99872 0.92006 0.0
C46 C 0.20004 0.05751 0.93093 0.0
C47 C 0.29389 1.00021 0.91032 0.0
C48 C 0.76518 0.09932 0.90734 0.0
C49 C 0.79473 0.07204 0.96168 0.0
C50 C 0.69862 0.1079 0.90267 0.0
H51 H 0.21739 0.16295 0.93311 0.0
H52 H 0.33252 0.1653 0.91435 0.0
H53 H 0.77965 0.03602 0.05547 0.0
H54 H 0.66289 0.05127 0.04734 0.0
C55 C 0.2375 0.11705 0.92446 0.0
C56 C 0.30334 0.11846 0.91429 0.0
C57 C 0.7583 0.05884 0.01394 0.0
C58 C 0.6915 0.0667 0.00893 0.0
C59 C 0.33258 0.06037 0.9106 0.0
C60 C 0.40305 0.06378 0.9161 0.0
C61 C 0.46215 0.06999 0.92088 0.0
C62 C 0.66092 0.08846 0.95194 0.0
C63 C 0.5904 0.08305 0.94043 0.0
C64 C 0.53137 0.07838 0.93117 0.0
H65 H 0.19996 0.9523 0.92588 0.0
H66 H 0.31597 0.95486 0.9075 0.0
H67 H 0.7921 0.10856 0.866 0.0
H68 H 0.67566 0.12494 0.85841 0.0
C69 C 0.87926 0.75551 0.06092 0.0
C70 C 0.93818 0.79721 0.06511 0.0
C71 C 0.87967 0.69014 0.07342 0.0
C72 C 0.94683 0.24289 0.12843 0.0
C73 C 0.94373 0.20597 0.06785 0.0
C74 C 0.93618 0.3086 0.13119 0.0
H75 H 0.04329 0.80484 0.0914 0.0
H76 H 0.04378 0.68935 0.11408 0.0
H77 H 0.92166 0.20694 0.96288 0.0
H78 H 0.90261 0.32295 0.96788 0.0
C79 C 0.99714 0.77389 0.08828 0.0
C80 C 0.99751 0.70792 0.10064 0.0
C81 C 0.92362 0.23418 0.01021 0.0
C82 C 0.9134 0.30046 0.013 0.0
C83 C 0.93896 0.6654 0.09052 0.0
C84 C 0.9394 0.59556 0.0902 0.0
C85 C 0.93469 0.53667 0.08861 0.0
C86 C 0.92242 0.33838 0.07341 0.0
C87 C 0.92506 0.40865 0.07641 0.0
C88 C 0.92795 0.46754 0.08216 0.0
H89 H 0.83315 0.77234 0.04338 0.0
H90 H 0.83401 0.65803 0.06572 0.0
H91 H 0.96228 0.22217 0.17349 0.0
H92 H 0.94295 0.33713 0.17823 0.0
loop_
_geom_bond_atom_site_label_1
_geom_bond_atom_site_label_2
_geom_bond_distance
_geom_bond_site_symmetry_2
_ccdc_geom_bond_type
Zn0 O6 1.920 . S
Zn0 O12 1.898 . S
Zn0 O15 1.905 . S
Zn1 O9 1.905 . S
Zn1 O10 1.898 . S
Zn1 O18 1.920 . S
Zn2 O5 2.075 1_455 S
Zn2 O8 2.120 . S
Zn2 O11 2.120 1_465 S
Zn2 O13 2.120 1_464 S
Zn2 O14 2.116 1_554 S
Zn2 O17 2.079 1_564 S
C3 O8 1.166 1_545 S
C3 O9 1.182 . S
C4 O10 1.175 . S
C4 O11 1.300 1_455 S
O5 Zn2 2.075 1_655 S
O5 C19 1.305 1_554 S
O6 Zn0 1.920 . S
O6 C19 1.234 . S
C7 O12 1.173 . S
C7 O13 1.300 1_565 S
O8 Zn2 2.120 . S
O8 C3 1.166 1_565 S
O9 Zn1 1.905 . S
O9 C3 1.182 . S
O10 Zn1 1.898 . S
O10 C4 1.175 . S
O11 Zn2 2.120 1_645 S
O11 C4 1.300 1_655 S
O12 Zn0 1.898 . S
O12 C7 1.173 . S
O13 Zn2 2.120 1_646 S
O13 C7 1.300 1_545 S
O14 Zn2 2.116 1_556 S
O14 C16 1.166 1_455 S
O15 Zn0 1.905 . S
O15 C16 1.182 . S
C16 O14 1.166 1_655 S
C16 O15 1.182 . S
O17 Zn2 2.079 1_546 S
O17 C20 1.305 1_556 S
O18 Zn1 1.920 . S
O18 C20 1.234 . S
C19 O5 1.305 1_556 S
C19 O6 1.234 . S
C20 O17 1.305 1_554 S
C20 O18 1.234 . S
C21 C22 1.332 1_655 S
C21 C23 1.345 . S
C21 H41 0.932 . S
C22 C21 1.332 1_455 S
C22 C31 1.332 1_565 S
C23 C21 1.345 . S
C23 C35 1.334 1_655 S
C23 H42 0.928 . S
C24 C25 1.332 1_545 S
C24 C26 1.345 . S
C24 H43 0.932 . S
C25 C24 1.332 1_565 S
C25 C33 1.332 1_455 S
C26 C24 1.345 . S
C26 C38 1.334 1_545 S
C26 H44 0.928 . S
H27 C31 0.932 . S
H28 C32 0.928 . S
H29 C33 0.932 . S
H30 C34 0.928 . S
C31 C22 1.332 1_545 S
C31 H27 0.932 . S
C31 C32 1.345 . S
C32 H28 0.928 . S
C32 C31 1.345 . S
C32 C35 1.334 1_545 S
C33 C25 1.332 1_655 S
C33 H29 0.932 . S
C33 C34 1.345 . S
C34 H30 0.928 . S
C34 C33 1.345 . S
C34 C38 1.334 1_655 S
C35 C23 1.334 1_455 S
C35 C32 1.334 1_565 S
C35 C36 1.487 . S
C36 C35 1.487 . S
C36 C37 1.185 . S
C37 C36 1.185 . S
C37 C40 1.482 . S
C38 C26 1.334 1_565 S
C38 C34 1.334 1_455 S
C38 C39 1.487 . S
C39 C38 1.487 . S
C39 C40 1.185 . S
C40 C37 1.482 . S
C40 C39 1.185 . S
H41 C21 0.932 . S
H42 C23 0.928 . S
H43 C24 0.932 . S
H44 C26 0.928 . S
C45 C46 1.332 1_565 S
C45 C47 1.345 . S
C45 H65 0.932 . S
C46 C45 1.332 1_545 S
C46 C55 1.332 . S
C47 C45 1.345 . S
C47 C59 1.334 1_565 S
C47 H66 0.928 . S
C48 C49 1.332 . S
C48 C50 1.345 . S
C48 H67 0.932 . S
C49 C48 1.332 . S
C49 C57 1.332 1_545 S
C50 C48 1.345 . S
C50 C62 1.334 . S
C50 H68 0.928 . S
H51 C55 0.932 . S
H52 C56 0.928 . S
H53 C57 0.932 . S
H54 C58 0.928 . S
C55 C46 1.332 . S
C55 H51 0.932 . S
C55 C56 1.345 . S
C56 H52 0.928 . S
C56 C55 1.345 . S
C56 C59 1.334 . S
C57 C49 1.332 1_565 S
C57 H53 0.932 . S
C57 C58 1.345 . S
C58 H54 0.928 . S
C58 C57 1.345 . S
C58 C62 1.334 1_565 S
C59 C47 1.334 1_545 S
C59 C56 1.334 . S
C59 C60 1.487 . S
C60 C59 1.487 . S
C60 C61 1.185 . S
C61 C60 1.185 . S
C61 C64 1.482 . S
C62 C50 1.334 . S
C62 C58 1.334 1_545 S
C62 C63 1.487 . S
C63 C62 1.487 . S
C63 C64 1.185 . S
C64 C61 1.482 . S
C64 C63 1.185 . S
H65 C45 0.932 . S
H66 C47 0.928 . S
H67 C48 0.932 . S
H68 C50 0.928 . S
C69 C70 1.332 1_556 S
C69 C71 1.345 . S
C69 H89 0.932 . S
C70 C69 1.332 1_554 S
C70 C79 1.332 . S
C71 C69 1.345 . S
C71 C83 1.334 1_556 S
C71 H90 0.928 . S
C72 C73 1.332 . S
C72 C74 1.345 . S
C72 H91 0.932 1_655 S
C73 C72 1.332 . S
C73 C81 1.332 1_554 S
C74 C72 1.345 . S
C74 C86 1.334 . S
C74 H92 0.928 1_655 S
H75 C79 0.932 1_455 S
H76 C80 0.928 1_455 S
H77 C81 0.932 . S
H78 C82 0.928 . S
C79 C70 1.332 . S
C79 H75 0.932 1_655 S
C79 C80 1.345 . S
C80 H76 0.928 1_655 S
C80 C79 1.345 . S
C80 C83 1.334 . S
C81 C73 1.332 1_556 S
C81 H77 0.932 . S
C81 C82 1.345 . S
C82 H78 0.928 . S
C82 C81 1.345 . S
C82 C86 1.334 1_556 S
C83 C71 1.334 1_554 S
C83 C80 1.334 . S
C83 C84 1.487 . S
C84 C83 1.487 . S
C84 C85 1.185 . S
C85 C84 1.185 . S
C85 C88 1.482 . S
C86 C74 1.334 . S
C86 C82 1.334 1_554 S
C86 C87 1.487 . S
C87 C86 1.487 . S
C87 C88 1.185 . S
C88 C85 1.482 . S
C88 C87 1.185 . S
H89 C69 0.932 . S
H90 C71 0.928 . S
H91 C72 0.932 1_455 S
H92 C74 0.928 1_455 S
C22 C4 1.274 1_565 S
C25 C7 1.276 1_455 S
C46 C3 1.301 1_556 S
C49 C19 1.299 1_545 S
C70 C16 1.301 1_554 S
C73 C20 1.299 1_655 S
