# Generated by pormake.
# Topology qzd, (4)-cn, num edge types: 1
# Building blocks:
#     Node 0, Type 0, BuildingBlock: KOZSID_clean_sbu_0, # of connection points: 4
#     Node 1, Type 0, BuildingBlock: KOZSID_clean_sbu_0, # of connection points: 4
#     Node 2, Type 0, BuildingBlock: KOZSID_clean_sbu_0, # of connection points: 4
#     Edge 3, Type (0, 0), BuildingBlock: EYOCIG_clean_linker_4, # of connection points: 2
#     Edge 4, Type (0, 0), BuildingBlock: EYOCIG_clean_linker_4, # of connection points: 2
#     Edge 5, Type (0, 0), BuildingBlock: EYOCIG_clean_linker_4, # of connection points: 2
#     Edge 6, Type (0, 0), BuildingBlock: EYOCIG_clean_linker_4, # of connection points: 2
#     Edge 7, Type (0, 0), BuildingBlock: EYOCIG_clean_linker_4, # of connection points: 2
#     Edge 8, Type (0, 0), BuildingBlock: EYOCIG_clean_linker_4, # of connection points: 2
# Relax obj value: 0.001
# Max RMSD: 0.088
# Mean RMSD: 0.087
data_MOF--net-qzd--node1-KOZSID_clean_sbu_0--edge1-EYOCIG_clean_linker_4
_symmetry_space_group_name_H-M    P1
_symmetry_Int_Tables_number       1
_symmetry_cell_setting            triclinic
loop_
_symmetry_equiv_pos_as_xyz
'x, y, z'
_cell_length_a     13.561657
_cell_length_b     13.567497
_cell_length_c     48.445944
_cell_angle_alpha  101.66852
_cell_angle_beta   101.6017
_cell_angle_gamma 120.02516
loop_
_atom_site_label
_atom_site_type_symbol
_atom_site_fract_x
_atom_site_fract_y
_atom_site_fract_z
_atom_type_partial_charge
C0 C 0.92824 0.22571 0.0289 0.0
C1 C 0.94378 0.33804 0.03743 0.0
C2 C 0.0664 0.42435 0.04868 0.0
C3 C 0.11839 0.36002 0.04641 0.0
N4 N 0.03631 0.23776 0.03376 0.0
Co5 Co 0.07129 0.10921 0.02789 0.0
N6 N 0.25169 0.23556 0.04684 0.0
C7 C 0.30924 0.35808 0.05803 0.0
C8 C 0.43386 0.42112 0.06805 0.0
C9 C 0.45748 0.33389 0.06238 0.0
C10 C 0.34533 0.22234 0.04918 0.0
N11 N 0.10608 0.98059 0.02257 0.0
C12 C 0.21402 0.99222 0.02789 0.0
C13 C 0.19831 0.8797 0.02065 0.0
C14 C 0.07564 0.79365 1.00974 0.0
C15 C 1.02384 0.85833 1.01101 0.0
N16 N 0.89113 0.98296 1.00837 0.0
C17 C 0.83397 0.86081 0.99616 0.0
C18 C 0.70931 0.79774 0.98513 0.0
C19 C 0.68528 0.88459 0.99108 0.0
C20 C 0.79724 0.99593 1.00552 0.0
N21 N 0.08098 0.11633 0.98788 0.0
C22 C 0.10797 0.12931 0.93249 0.0
C23 C 0.04501 1.01698 0.93593 0.0
C24 C 0.03235 1.0125 0.9637 0.0
C25 C 0.15542 0.23465 0.95669 0.0
C26 C 0.14088 0.22621 0.98399 0.0
N27 N 0.06159 0.1025 0.06792 0.0
C28 C 0.97199 0.98909 0.09876 0.0
C29 C 0.03272 0.09664 0.12349 0.0
C30 C 0.11037 0.20654 0.1205 0.0
C31 C 0.12367 0.20744 0.09272 0.0
C32 C 0.988 0.99397 0.07131 0.0
H33 H 0.18326 0.2944 0.09181 0.0
H34 H 0.93862 0.90909 0.05308 0.0
H35 H 0.98404 0.92429 0.96515 0.0
H36 H 0.18016 0.31007 1.00167 0.0
C37 C 0.24359 0.41126 0.05732 0.0
C38 C 0.80987 0.11029 1.01799 0.0
C39 C 0.33211 0.10701 0.0377 0.0
C40 C 0.8992 0.80749 0.99851 0.0
H41 H 0.87368 0.35545 0.03632 0.0
H42 H 0.11225 0.52216 0.05823 0.0
H43 H 0.49958 0.51894 0.07749 0.0
H44 H 0.54692 0.35041 0.06671 0.0
H45 H 0.26824 0.86189 0.02217 0.0
H46 H 0.02964 0.6957 1.00072 0.0
H47 H 0.6437 0.69994 0.97518 0.0
H48 H 0.59563 0.8678 0.98629 0.0
H49 H 1.00643 0.93318 0.91741 0.0
H50 H 0.20439 0.32343 0.95466 0.0
H51 H 0.91164 0.90188 0.10047 0.0
H52 H 0.15974 0.29175 0.13942 0.0
C53 C 0.80911 0.04761 0.35638 0.0
C54 C 0.70554 0.04868 0.35295 0.0
C55 C 0.74041 0.16443 0.35546 0.0
C56 C 0.86257 0.22689 0.3602 0.0
N57 N 0.90763 0.15767 0.36047 0.0
Co58 Co 0.08046 0.21121 0.36708 0.0
N59 N 0.13399 0.384 0.37372 0.0
C60 C 0.06473 0.42902 0.37403 0.0
C61 C 0.1272 0.55117 0.3788 0.0
C62 C 0.24301 0.58609 0.38133 0.0
C63 C 0.2441 0.48255 0.37785 0.0
N64 N 0.25296 0.2644 0.37314 0.0
C65 C 0.3509 0.37416 0.37679 0.0
C66 C 0.45348 0.37209 0.37899 0.0
C67 C 0.41859 0.25608 0.37613 0.0
C68 C 0.29733 0.19434 0.37237 0.0
N69 N 0.02728 0.03876 0.361 0.0
C70 C 0.09735 0.9944 0.36173 0.0
C71 C 0.03562 0.87317 0.35795 0.0
C72 C 0.91961 0.8383 0.35515 0.0
C73 C 0.91754 0.94086 0.35738 0.0
N74 N 0.04694 0.17743 0.32318 0.0
C75 C 1.01482 0.14166 0.26204 0.0
C76 C 0.06598 0.09229 0.27721 0.0
C77 C 0.0809 0.1109 0.30754 0.0
C78 C 0.97694 0.20671 0.2774 0.0
C79 C 0.99349 0.22321 0.30784 0.0
N80 N 0.11426 0.24478 0.41099 0.0
C81 C 0.19998 0.22641 0.45698 0.0
C82 C 0.15105 0.27806 0.47221 0.0
C83 C 0.08572 0.31563 0.45685 0.0
C84 C 0.06868 0.29847 0.42636 0.0
C85 C 0.18086 0.21089 0.4266 0.0
H86 H 1.01704 0.32776 0.41562 0.0
H87 H 0.21946 0.16961 0.4162 0.0
H88 H 0.12189 0.07204 0.3179 0.0
H89 H 0.96402 0.27469 0.31859 0.0
C90 C 0.93925 0.35234 0.36711 0.0
C91 C 0.81118 0.94238 0.35745 0.0
C92 C 0.34941 0.48053 0.37679 0.0
C93 C 0.22182 0.0699 0.36704 0.0
H94 H 0.61498 0.97425 0.34977 0.0
H95 H 0.68438 0.19987 0.35498 0.0
H96 H 0.09174 0.60719 0.37931 0.0
H97 H 0.31748 0.67666 0.38453 0.0
H98 H 0.54354 0.44629 0.38176 0.0
H99 H 0.47427 0.22033 0.37612 0.0
H100 H 0.07138 0.81751 0.35794 0.0
H101 H 0.84543 0.74828 0.35239 0.0
H102 H 0.09619 0.04103 0.26585 0.0
H103 H 0.93654 0.24615 0.26615 0.0
H104 H 0.25141 0.19639 0.46833 0.0
H105 H 0.04656 0.35635 0.46814 0.0
C106 C 0.08046 0.95983 0.68695 0.0
C107 C 0.96868 0.84785 0.67416 0.0
C108 C 0.88159 0.87174 0.66871 0.0
C109 C 0.94492 0.99633 0.67845 0.0
N110 N 0.06747 0.05358 0.68925 0.0
Co111 Co 0.19431 0.23394 0.70774 0.0
N112 N 0.06609 0.26941 0.70219 0.0
C113 C 0.9437 0.18757 0.68992 0.0
C114 C 0.87957 0.23979 0.68783 0.0
C115 C 0.9661 0.3623 0.69882 0.0
C116 C 0.07836 0.37755 0.707 0.0
N117 N 0.32107 0.41407 0.7268 0.0
C118 C 0.30837 0.50811 0.72967 0.0
C119 C 0.42 0.61994 0.74374 0.0
C120 C 0.50674 0.59566 0.74944 0.0
C121 C 0.44332 0.47099 0.73864 0.0
N122 N 0.32256 0.19861 0.71273 0.0
C123 C 0.44489 0.28057 0.7239 0.0
C124 C 0.50931 0.22848 0.72502 0.0
C125 C 0.42304 0.10595 0.71442 0.0
C126 C 0.31067 0.0906 0.7075 0.0
N127 N 0.19876 0.24156 0.66744 0.0
C128 C 0.20154 0.26698 0.61144 0.0
C129 C 0.30994 0.32837 0.63594 0.0
C130 C 0.30658 0.31409 0.66361 0.0
C131 C 0.09232 0.1905 0.6149 0.0
C132 C 0.09294 0.17892 0.64288 0.0
N133 N 0.18944 0.22627 0.74802 0.0
C134 C 0.29113 0.26376 0.7999 0.0
C135 C 0.1795 0.20166 0.80375 0.0
C136 C 0.07337 0.15397 0.7798 0.0
C137 C 0.0803 0.16734 0.75232 0.0
C138 C 0.2941 0.27527 0.77196 0.0
H139 H 0.99588 0.12791 0.73485 0.0
H140 H 0.38181 0.32295 0.77019 0.0
H141 H 0.39207 0.36389 0.68164 0.0
H142 H 1.00643 0.12013 0.64414 0.0
C143 C 0.89207 0.06228 0.67925 0.0
C144 C 0.19586 0.97283 0.69808 0.0
C145 C 0.19384 0.49566 0.71758 0.0
C146 C 0.49621 0.40536 0.73618 0.0
H147 H 0.95196 0.7584 0.66994 0.0
H148 H 0.7837 0.80625 0.6596 0.0
H149 H 0.78169 0.19414 0.67861 0.0
H150 H 0.94883 0.4325 0.69998 0.0
H151 H 0.43701 0.70965 0.74846 0.0
H152 H 0.60462 0.66108 0.75908 0.0
H153 H 0.60728 0.27426 0.73373 0.0
H154 H 0.44068 0.0359 0.71289 0.0
H155 H 0.39665 0.38786 0.63387 0.0
H156 H 1.00646 0.14069 0.59617 0.0
H157 H 0.37551 0.30251 0.81822 0.0
H158 H 0.9851 0.10566 0.78215 0.0
C159 C 0.61999 0.10767 0.02532 0.0
C160 C 0.70561 0.10877 0.02153 0.0
C161 C 0.52046 0.10686 0.03013 0.0
C162 C 0.43534 0.10667 0.034 0.0
C163 C 0.62751 0.75981 0.36473 0.0
C164 C 0.70996 0.8419 0.36093 0.0
C165 C 0.53206 0.66432 0.36956 0.0
C166 C 0.44997 0.58182 0.37334 0.0
C167 C 0.19646 0.78473 0.70559 0.0
C168 C 0.1964 0.86973 0.70176 0.0
C169 C 0.19598 0.68534 0.71035 0.0
C170 C 0.19515 0.59983 0.71409 0.0
C171 C 1.00203 0.11454 0.20556 0.0
C172 C 1.00619 0.12892 0.23126 0.0
C173 C 1.00608 0.1015 0.17624 0.0
C174 C 1.01581 0.09553 0.15186 0.0
C175 C 0.19403 0.29031 0.55831 0.0
C176 C 0.20113 0.28203 0.58285 0.0
C177 C 0.17987 0.2929 0.52885 0.0
C178 C 0.16475 0.28779 0.50308 0.0
C179 C 0.16023 0.16965 0.85494 0.0
C180 C 0.17256 0.186 0.83197 0.0
C181 C 0.1413 0.15063 0.88152 0.0
C182 C 0.12447 0.13767 0.90441 0.0
loop_
_geom_bond_atom_site_label_1
_geom_bond_atom_site_label_2
_geom_bond_distance
_geom_bond_site_symmetry_2
_ccdc_geom_bond_type
C0 C1 1.443 . S
C0 N4 1.376 . S
C0 C38 1.389 . S
C1 C0 1.443 . S
C1 C2 1.333 1_655 S
C1 H41 0.951 . S
C2 C1 1.333 1_455 S
C2 C3 1.448 . S
C2 H42 0.948 . S
C3 C2 1.448 . S
C3 N4 1.374 1_455 S
C3 C37 1.395 . S
N4 C0 1.376 . S
N4 C3 1.374 1_655 S
N4 Co5 2.011 1_655 S
Co5 N4 2.011 1_455 S
Co5 N6 1.995 . S
Co5 N11 2.005 1_544 S
Co5 N16 1.994 1_444 S
Co5 N21 2.283 1_554 S
Co5 N27 2.280 1_445 S
N6 Co5 1.995 . S
N6 C7 1.376 . S
N6 C10 1.383 . S
C7 N6 1.376 . S
C7 C8 1.446 . S
C7 C37 1.391 . S
C8 C7 1.446 . S
C8 C9 1.339 . S
C8 H43 0.949 . S
C9 C8 1.339 . S
C9 C10 1.439 . S
C9 H44 0.950 . S
C10 N6 1.383 . S
C10 C9 1.439 . S
C10 C39 1.392 1_545 S
N11 Co5 2.005 1_566 S
N11 C12 1.376 . S
N11 C15 1.374 1_455 S
C12 N11 1.376 . S
C12 C13 1.443 . S
C12 C39 1.389 1_556 S
C13 C12 1.443 . S
C13 C14 1.340 . S
C13 H45 0.951 . S
C14 C13 1.340 . S
C14 C15 1.439 1_455 S
C14 H46 0.950 1_455 S
C15 N11 1.374 1_655 S
C15 C14 1.439 1_655 S
C15 C40 1.395 . S
N16 Co5 1.994 1_666 S
N16 C17 1.376 . S
N16 C20 1.383 . S
C17 N16 1.376 . S
C17 C18 1.446 . S
C17 C40 1.391 . S
C18 C17 1.446 . S
C18 C19 1.339 . S
C18 H47 0.949 . S
C19 C18 1.339 . S
C19 C20 1.439 . S
C19 H48 0.950 . S
C20 N16 1.383 . S
C20 C19 1.439 . S
C20 C38 1.392 1_566 S
N21 Co5 2.283 1_556 S
N21 C24 1.332 1_445 S
N21 C26 1.332 . S
C22 C23 1.386 1_445 S
C22 C25 1.388 . S
C23 C22 1.386 1_665 S
C23 C24 1.382 . S
C23 H49 0.950 . S
C24 N21 1.332 1_665 S
C24 C23 1.382 . S
C24 H35 0.952 . S
C25 C22 1.388 . S
C25 C26 1.382 . S
C25 H50 0.950 . S
C26 N21 1.332 . S
C26 C25 1.382 . S
C26 H36 0.948 . S
N27 Co5 2.280 1_665 S
N27 C31 1.332 1_665 S
N27 C32 1.336 . S
C28 C29 1.388 . S
C28 C32 1.382 . S
C28 H51 0.950 . S
C29 C28 1.388 . S
C29 C30 1.386 1_665 S
C30 C29 1.386 1_445 S
C30 C31 1.382 . S
C30 H52 0.950 . S
C31 N27 1.332 1_445 S
C31 C30 1.382 . S
C31 H33 0.952 . S
C32 N27 1.336 . S
C32 C28 1.382 . S
C32 H34 0.948 . S
H33 C31 0.952 . S
H34 C32 0.948 . S
H35 C24 0.952 . S
H36 C26 0.948 . S
C37 C3 1.395 . S
C37 C7 1.391 . S
C38 C0 1.389 . S
C38 C20 1.392 1_544 S
C39 C10 1.392 1_565 S
C39 C12 1.389 1_554 S
C40 C15 1.395 . S
C40 C17 1.391 . S
H41 C1 0.951 . S
H42 C2 0.948 . S
H43 C8 0.949 . S
H44 C9 0.950 . S
H45 C13 0.951 . S
H46 C14 0.950 1_655 S
H47 C18 0.949 . S
H48 C19 0.950 . S
H49 C23 0.950 . S
H50 C25 0.950 . S
H51 C28 0.950 . S
H52 C30 0.950 . S
C53 C54 1.443 . S
C53 N57 1.376 . S
C53 C91 1.389 1_545 S
C54 C53 1.443 . S
C54 C55 1.340 . S
C54 H94 0.951 . S
C55 C54 1.340 . S
C55 C56 1.439 . S
C55 H95 0.950 . S
C56 C55 1.439 . S
C56 N57 1.374 . S
C56 C90 1.395 . S
N57 C53 1.376 . S
N57 C56 1.374 . S
N57 Co58 2.008 1_655 S
Co58 N57 2.008 1_455 S
Co58 N59 1.995 . S
Co58 N64 2.008 . S
Co58 N69 1.995 1_455 S
Co58 N74 2.282 1_455 S
Co58 N80 2.282 . S
N59 Co58 1.995 . S
N59 C60 1.376 . S
N59 C63 1.383 . S
C60 N59 1.376 . S
C60 C61 1.446 . S
C60 C90 1.391 1_455 S
C61 C60 1.446 . S
C61 C62 1.339 . S
C61 H96 0.949 . S
C62 C61 1.339 . S
C62 C63 1.439 . S
C62 H97 0.950 . S
C63 N59 1.383 . S
C63 C62 1.439 . S
C63 C92 1.392 . S
N64 Co58 2.008 . S
N64 C65 1.376 . S
N64 C68 1.374 . S
C65 N64 1.376 . S
C65 C66 1.443 . S
C65 C92 1.389 . S
C66 C65 1.443 . S
C66 C67 1.340 . S
C66 H98 0.951 . S
C67 C66 1.340 . S
C67 C68 1.439 . S
C67 H99 0.950 . S
C68 N64 1.374 . S
C68 C67 1.439 . S
C68 C93 1.395 . S
N69 Co58 1.995 1_655 S
N69 C70 1.376 1_655 S
N69 C73 1.383 1_545 S
C70 N69 1.376 1_455 S
C70 C71 1.446 1_445 S
C70 C93 1.391 . S
C71 C70 1.446 1_665 S
C71 C72 1.339 . S
C71 H100 0.949 . S
C72 C71 1.339 . S
C72 C73 1.439 . S
C72 H101 0.950 . S
C73 N69 1.383 1_565 S
C73 C72 1.439 . S
C73 C91 1.392 . S
N74 Co58 2.282 1_655 S
N74 C77 1.333 . S
N74 C79 1.332 . S
C75 C76 1.385 1_655 S
C75 C78 1.388 . S
C76 C75 1.385 1_455 S
C76 C77 1.381 1_455 S
C76 H102 0.950 . S
C77 N74 1.333 . S
C77 C76 1.381 1_655 S
C77 H88 0.951 1_655 S
C78 C75 1.388 . S
C78 C79 1.382 . S
C78 H103 0.950 . S
C79 N74 1.332 . S
C79 C78 1.382 . S
C79 H89 0.948 . S
N80 Co58 2.282 . S
N80 C84 1.332 . S
N80 C85 1.332 . S
C81 C82 1.388 . S
C81 C85 1.382 . S
C81 H104 0.950 . S
C82 C81 1.388 . S
C82 C83 1.386 . S
C83 C82 1.386 . S
C83 C84 1.382 . S
C83 H105 0.950 . S
C84 N80 1.332 . S
C84 C83 1.382 . S
C84 H86 0.952 . S
C85 N80 1.332 . S
C85 C81 1.382 . S
C85 H87 0.948 . S
H86 C84 0.952 . S
H87 C85 0.948 . S
H88 C77 0.951 1_455 S
H89 C79 0.948 . S
C90 C56 1.395 . S
C90 C60 1.391 1_655 S
C91 C53 1.389 1_565 S
C91 C73 1.392 . S
C92 C63 1.392 . S
C92 C65 1.389 . S
C93 C68 1.395 . S
C93 C70 1.391 . S
H94 C54 0.951 . S
H95 C55 0.950 . S
H96 C61 0.949 . S
H97 C62 0.950 . S
H98 C66 0.951 . S
H99 C67 0.950 . S
H100 C71 0.949 . S
H101 C72 0.950 . S
H102 C76 0.950 . S
H103 C78 0.950 . S
H104 C81 0.950 . S
H105 C83 0.950 . S
C106 C107 1.443 . S
C106 N110 1.376 1_565 S
C106 C144 1.389 . S
C107 C106 1.443 . S
C107 C108 1.340 1_455 S
C107 H147 0.951 . S
C108 C107 1.340 1_655 S
C108 C109 1.439 1_565 S
C108 H148 0.950 . S
C109 C108 1.439 1_545 S
C109 N110 1.374 1_655 S
C109 C143 1.395 . S
N110 C106 1.376 1_545 S
N110 C109 1.374 1_455 S
N110 Co111 2.008 . S
Co111 N110 2.008 . S
Co111 N112 1.995 . S
Co111 N117 2.008 . S
Co111 N122 1.995 . S
Co111 N127 2.282 . S
Co111 N133 2.282 . S
N112 Co111 1.995 . S
N112 C113 1.376 1_455 S
N112 C116 1.383 . S
C113 N112 1.376 1_655 S
C113 C114 1.446 . S
C113 C143 1.391 . S
C114 C113 1.446 . S
C114 C115 1.339 1_655 S
C114 H149 0.949 . S
C115 C114 1.339 1_455 S
C115 C116 1.439 . S
C115 H150 0.950 . S
C116 N112 1.383 . S
C116 C115 1.439 . S
C116 C145 1.392 . S
N117 Co111 2.008 . S
N117 C118 1.376 . S
N117 C121 1.374 . S
C118 N117 1.376 . S
C118 C119 1.443 . S
C118 C145 1.389 . S
C119 C118 1.443 . S
C119 C120 1.340 . S
C119 H151 0.951 . S
C120 C119 1.340 . S
C120 C121 1.439 . S
C120 H152 0.950 . S
C121 N117 1.374 . S
C121 C120 1.439 . S
C121 C146 1.395 . S
N122 Co111 1.995 . S
N122 C123 1.376 . S
N122 C126 1.383 . S
C123 N122 1.376 . S
C123 C124 1.446 . S
C123 C146 1.391 . S
C124 C123 1.446 . S
C124 C125 1.339 . S
C124 H153 0.949 . S
C125 C124 1.339 . S
C125 C126 1.439 . S
C125 H154 0.950 . S
C126 N122 1.383 . S
C126 C125 1.439 . S
C126 C144 1.392 1_545 S
N127 Co111 2.282 . S
N127 C130 1.332 . S
N127 C132 1.332 . S
C128 C129 1.386 . S
C128 C131 1.388 . S
C129 C128 1.386 . S
C129 C130 1.382 . S
C129 H155 0.950 . S
C130 N127 1.332 . S
C130 C129 1.382 . S
C130 H141 0.952 . S
C131 C128 1.388 . S
C131 C132 1.382 . S
C131 H156 0.950 . S
C132 N127 1.332 . S
C132 C131 1.382 . S
C132 H142 0.948 . S
N133 Co111 2.282 . S
N133 C137 1.332 . S
N133 C138 1.332 . S
C134 C135 1.388 . S
C134 C138 1.382 . S
C134 H157 0.950 . S
C135 C134 1.388 . S
C135 C136 1.386 . S
C136 C135 1.386 . S
C136 C137 1.382 . S
C136 H158 0.950 . S
C137 N133 1.332 . S
C137 C136 1.382 . S
C137 H139 0.952 . S
C138 N133 1.332 . S
C138 C134 1.382 . S
C138 H140 0.948 . S
H139 C137 0.952 . S
H140 C138 0.948 . S
H141 C130 0.952 . S
H142 C132 0.948 . S
C143 C109 1.395 . S
C143 C113 1.391 . S
C144 C106 1.389 . S
C144 C126 1.392 1_565 S
C145 C116 1.392 . S
C145 C118 1.389 . S
C146 C121 1.395 . S
C146 C123 1.391 . S
H147 C107 0.951 . S
H148 C108 0.950 . S
H149 C114 0.949 . S
H150 C115 0.950 . S
H151 C119 0.951 . S
H152 C120 0.950 . S
H153 C124 0.949 . S
H154 C125 0.950 . S
H155 C129 0.950 . S
H156 C131 0.950 . S
H157 C134 0.950 . S
H158 C136 0.950 . S
C159 C160 1.176 1_565 S
C159 C161 1.380 . S
C160 C159 1.176 1_545 S
C161 C159 1.380 . S
C161 C162 1.170 . S
C162 C161 1.170 . S
C163 C164 1.170 . S
C163 C165 1.380 . S
C164 C163 1.170 . S
C165 C163 1.380 . S
C165 C166 1.170 . S
C166 C165 1.170 . S
C167 C168 1.170 . S
C167 C169 1.380 . S
C168 C167 1.170 . S
C169 C167 1.380 . S
C169 C170 1.170 . S
C170 C169 1.170 . S
C171 C172 1.170 . S
C171 C173 1.380 . S
C172 C171 1.170 . S
C173 C171 1.380 . S
C173 C174 1.170 . S
C174 C173 1.170 . S
C175 C176 1.170 . S
C175 C177 1.380 . S
C176 C175 1.170 . S
C177 C175 1.380 . S
C177 C178 1.170 . S
C178 C177 1.170 . S
C179 C180 1.170 . S
C179 C181 1.380 . S
C180 C179 1.170 . S
C181 C179 1.380 . S
C181 C182 1.170 . S
C182 C181 1.170 . S
C160 C38 1.498 . S
C162 C39 1.498 . S
C164 C91 1.505 . S
C166 C92 1.503 . S
C168 C144 1.503 . S
C170 C145 1.501 . S
C172 C75 1.677 . S
C174 C29 1.701 1_545 S
C176 C128 1.677 . S
C178 C82 1.696 . S
C180 C135 1.715 . S
C182 C22 1.698 . S
