# Generated by pormake.
# Topology eta, (3)-cn, num edge types: 1
# Building blocks:
#     Node 0, Type 0, BuildingBlock: OLANEW_clean_sbu_2, # of connection points: 3
#     Node 1, Type 0, BuildingBlock: OLANEW_clean_sbu_2, # of connection points: 3
#     Node 2, Type 0, BuildingBlock: OLANEW_clean_sbu_2, # of connection points: 3
#     Node 3, Type 0, BuildingBlock: OLANEW_clean_sbu_2, # of connection points: 3
#     Node 4, Type 0, BuildingBlock: OLANEW_clean_sbu_2, # of connection points: 3
#     Node 5, Type 0, BuildingBlock: OLANEW_clean_sbu_2, # of connection points: 3
#     Edge 6, Type (0, 0), None
#     Edge 7, Type (0, 0), None
#     Edge 8, Type (0, 0), None
#     Edge 9, Type (0, 0), None
#     Edge 10, Type (0, 0), None
#     Edge 11, Type (0, 0), None
#     Edge 12, Type (0, 0), None
#     Edge 13, Type (0, 0), None
#     Edge 14, Type (0, 0), None
# Relax obj value: 0.001
# Max RMSD: 0.041
# Mean RMSD: 0.024
data_MOF--net-eta--node1-OLANEW_clean_sbu_2--edge1-none
_symmetry_space_group_name_H-M    P1
_symmetry_Int_Tables_number       1
_symmetry_cell_setting            triclinic
loop_
_symmetry_equiv_pos_as_xyz
'x, y, z'
_cell_length_a     28.4963
_cell_length_b     26.398071
_cell_length_c     13.516642
_cell_angle_alpha  72.860623
_cell_angle_beta   99.125786
_cell_angle_gamma 129.81272
loop_
_atom_site_label
_atom_site_type_symbol
_atom_site_fract_x
_atom_site_fract_y
_atom_site_fract_z
_atom_type_partial_charge
O0 O 0.2087 0.61563 0.16212 0.0
Cd1 Cd 0.11155 0.57695 0.08136 0.0
O2 O 0.26941 0.71381 0.0482 0.0
Cd3 Cd 0.35789 0.81148 0.98502 0.0
O4 O 0.43916 0.91194 0.90521 0.0
C5 C 0.47342 0.92113 0.84056 0.0
O6 O 0.52049 0.98357 0.79537 0.0
C7 C 0.26199 0.67113 0.13204 0.0
C8 C 0.0222 0.48735 0.24083 0.0
O9 O 0.03796 0.46574 0.19064 0.0
O10 O 0.04664 0.55065 0.21317 0.0
O11 O 0.66777 0.23479 0.43492 0.0
Cd12 Cd 0.55841 0.14356 0.47801 0.0
O13 O 0.68851 0.19193 0.58457 0.0
Cd14 Cd 0.59624 0.12904 0.65047 0.0
O15 O 0.54138 0.12969 0.74454 0.0
C16 C 0.53601 0.176 0.71124 0.0
O17 O 0.55836 0.21702 0.6183 0.0
C18 C 0.70645 0.23474 0.49647 0.0
C19 C 0.51929 0.02617 0.43078 0.0
O20 O 0.50367 0.06145 0.37547 0.0
O21 O 0.55256 0.04564 0.50818 0.0
O22 O 0.46178 0.63362 0.62696 0.0
Cd23 Cd 0.47822 0.57988 0.79452 0.0
O24 O 0.47306 0.70155 0.70725 0.0
Cd25 Cd 0.48074 0.78758 0.71895 0.0
O26 O 0.49544 0.87342 0.7502 0.0
C27 C 0.46139 0.86305 0.81666 0.0
O28 O 0.41661 0.80028 0.86535 0.0
C29 C 0.4641 0.68373 0.62407 0.0
C30 C 0.52107 0.51274 0.77899 0.0
O31 O 0.46407 0.47957 0.79679 0.0
O32 O 0.55765 0.57739 0.76753 0.0
O33 O 0.8092 0.28378 0.53407 0.0
Cd34 Cd 0.92089 0.3636 0.52646 0.0
O35 O 0.79293 0.3345 0.38824 0.0
Cd36 Cd 0.73133 0.34208 0.27813 0.0
O37 O 0.66303 0.33067 0.16601 0.0
C38 C 0.6764 0.38084 0.09104 0.0
O39 O 0.73117 0.4402 0.08303 0.0
C40 C 0.77237 0.28616 0.47029 0.0
C41 C 0.98208 0.44231 0.33429 0.0
O42 O 0.96519 0.38197 0.37064 0.0
O43 O 0.96784 0.4645 0.38644 0.0
O44 O 0.45914 0.77049 0.52295 0.0
Cd45 Cd 0.46601 0.84882 0.36303 0.0
O46 O 0.45241 0.70485 0.44223 0.0
Cd47 Cd 0.43173 0.74791 0.29408 0.0
O48 O 0.36694 0.74169 0.17665 0.0
C49 C 0.31348 0.68479 0.19709 0.0
O50 O 0.30354 0.63812 0.28145 0.0
C51 C 0.45793 0.72119 0.52538 0.0
C52 C 0.50063 0.9655 0.40556 0.0
O53 O 0.44589 0.9217 0.38042 0.0
O54 O 0.53883 0.95475 0.40961 0.0
O55 O 0.65194 0.417 0.9235 0.0
Cd56 Cd 0.59067 0.41164 0.77204 0.0
O57 O 0.5813 0.31233 0.0146 0.0
Cd58 Cd 0.52485 0.28471 0.88075 0.0
O59 O 0.52347 0.24701 0.75622 0.0
C60 C 0.51746 0.19271 0.78356 0.0
O61 O 0.50625 0.15936 0.88178 0.0
C62 C 0.634 0.37012 0.00694 0.0
C63 C 0.54433 0.47748 0.77431 0.0
O64 O 0.59872 0.5112 0.73899 0.0
O65 O 0.51134 0.41253 0.80761 0.0
loop_
_geom_bond_atom_site_label_1
_geom_bond_atom_site_label_2
_geom_bond_distance
_geom_bond_site_symmetry_2
_ccdc_geom_bond_type
O0 Cd1 2.300 . S
O0 C7 1.275 . S
Cd1 O0 2.300 . S
Cd1 O9 2.381 . S
Cd1 O10 2.378 . S
O2 Cd3 2.385 . S
O2 C7 1.255 . S
Cd3 O2 2.385 . S
Cd3 O4 2.317 . S
O4 Cd3 2.317 . S
O4 C5 1.232 . S
C5 O4 1.232 . S
C5 O6 1.218 . S
O6 C5 1.218 . S
C7 O0 1.275 . S
C7 O2 1.255 . S
C8 O9 1.258 . S
C8 O10 1.256 . S
O9 Cd1 2.381 . S
O9 C8 1.258 . S
O10 Cd1 2.378 . S
O10 C8 1.256 . S
O11 Cd12 2.300 . S
O11 C18 1.275 . S
Cd12 O11 2.300 . S
Cd12 O20 2.381 . S
Cd12 O21 2.378 . S
O13 Cd14 2.385 . S
O13 C18 1.255 . S
Cd14 O13 2.385 . S
Cd14 O15 2.317 . S
O15 Cd14 2.317 . S
O15 C16 1.232 . S
C16 O15 1.232 . S
C16 O17 1.218 . S
O17 C16 1.218 . S
C18 O11 1.275 . S
C18 O13 1.255 . S
C19 O20 1.258 . S
C19 O21 1.256 . S
O20 Cd12 2.381 . S
O20 C19 1.258 . S
O21 Cd12 2.378 . S
O21 C19 1.256 . S
O22 Cd23 2.300 . S
O22 C29 1.275 . S
Cd23 O22 2.300 . S
Cd23 O31 2.381 . S
Cd23 O32 2.378 . S
O24 Cd25 2.385 . S
O24 C29 1.255 . S
Cd25 O24 2.385 . S
Cd25 O26 2.317 1_556 S
O26 Cd25 2.317 1_554 S
O26 C27 1.232 . S
C27 O26 1.232 . S
C27 O28 1.218 1_554 S
O28 C27 1.218 1_556 S
C29 O22 1.275 . S
C29 O24 1.255 . S
C30 O31 1.258 . S
C30 O32 1.256 . S
O31 Cd23 2.381 . S
O31 C30 1.258 . S
O32 Cd23 2.378 . S
O32 C30 1.256 . S
O33 Cd34 2.300 . S
O33 C40 1.275 . S
Cd34 O33 2.300 . S
Cd34 O42 2.381 . S
Cd34 O43 2.378 . S
O35 Cd36 2.385 . S
O35 C40 1.255 . S
Cd36 O35 2.385 . S
Cd36 O37 2.317 . S
O37 Cd36 2.317 . S
O37 C38 1.232 1_554 S
C38 O37 1.232 1_556 S
C38 O39 1.218 1_556 S
O39 C38 1.218 1_554 S
C40 O33 1.275 . S
C40 O35 1.255 . S
C41 O42 1.258 . S
C41 O43 1.256 . S
O42 Cd34 2.381 . S
O42 C41 1.258 . S
O43 Cd34 2.378 . S
O43 C41 1.256 . S
O44 Cd45 2.300 . S
O44 C51 1.275 . S
Cd45 O44 2.300 . S
Cd45 O53 2.381 . S
Cd45 O54 2.378 . S
O46 Cd47 2.385 . S
O46 C51 1.255 . S
Cd47 O46 2.385 . S
Cd47 O48 2.317 . S
O48 Cd47 2.317 . S
O48 C49 1.232 . S
C49 O48 1.232 . S
C49 O50 1.218 . S
O50 C49 1.218 . S
C51 O44 1.275 . S
C51 O46 1.255 . S
C52 O53 1.258 . S
C52 O54 1.256 . S
O53 Cd45 2.381 . S
O53 C52 1.258 . S
O54 Cd45 2.378 . S
O54 C52 1.256 . S
O55 Cd56 2.300 . S
O55 C62 1.275 . S
Cd56 O55 2.300 . S
Cd56 O64 2.381 . S
Cd56 O65 2.378 . S
O57 Cd58 2.385 . S
O57 C62 1.255 . S
Cd58 O57 2.385 . S
Cd58 O59 2.317 . S
O59 Cd58 2.317 . S
O59 C60 1.232 . S
C60 O59 1.232 . S
C60 O61 1.218 . S
O61 C60 1.218 . S
C62 O55 1.275 . S
C62 O57 1.255 . S
C63 O64 1.258 . S
C63 O65 1.256 . S
O64 Cd56 2.381 . S
O64 C63 1.258 . S
O65 Cd56 2.378 . S
O65 C63 1.256 . S
C27 C5 0.843 . S
C18 C40 1.430 . S
C29 C51 1.397 . S
C38 C62 1.191 . S
C49 C7 1.616 . S
C60 C16 1.091 . S
C8 C41 1.573 1_455 S
C19 C52 1.517 1_545 S
C30 C63 1.471 . S
