# Generated by pormake.
# Topology reo, (8)-cn, num edge types: 1
# Building blocks:
#     Node 0, Type 0, BuildingBlock: LIZSOE_clean_sbu_0, # of connection points: 8
#     Node 1, Type 0, BuildingBlock: LIZSOE_clean_sbu_0, # of connection points: 8
#     Node 2, Type 0, BuildingBlock: LIZSOE_clean_sbu_0, # of connection points: 8
#     Edge 3, Type (0, 0), BuildingBlock: OJICUG_clean_linker_0, # of connection points: 2
#     Edge 4, Type (0, 0), BuildingBlock: OJICUG_clean_linker_0, # of connection points: 2
#     Edge 5, Type (0, 0), BuildingBlock: OJICUG_clean_linker_0, # of connection points: 2
#     Edge 6, Type (0, 0), BuildingBlock: OJICUG_clean_linker_0, # of connection points: 2
#     Edge 7, Type (0, 0), BuildingBlock: OJICUG_clean_linker_0, # of connection points: 2
#     Edge 8, Type (0, 0), BuildingBlock: OJICUG_clean_linker_0, # of connection points: 2
#     Edge 9, Type (0, 0), BuildingBlock: OJICUG_clean_linker_0, # of connection points: 2
#     Edge 10, Type (0, 0), BuildingBlock: OJICUG_clean_linker_0, # of connection points: 2
#     Edge 11, Type (0, 0), BuildingBlock: OJICUG_clean_linker_0, # of connection points: 2
#     Edge 12, Type (0, 0), BuildingBlock: OJICUG_clean_linker_0, # of connection points: 2
#     Edge 13, Type (0, 0), BuildingBlock: OJICUG_clean_linker_0, # of connection points: 2
#     Edge 14, Type (0, 0), BuildingBlock: OJICUG_clean_linker_0, # of connection points: 2
# Relax obj value: 0.346
# Max RMSD: 0.293
# Mean RMSD: 0.254
data_MOF--net-reo--node1-LIZSOE_clean_sbu_0--edge1-OJICUG_clean_linker_0
_symmetry_space_group_name_H-M    P1
_symmetry_Int_Tables_number       1
_symmetry_cell_setting            triclinic
loop_
_symmetry_equiv_pos_as_xyz
'x, y, z'
_cell_length_a     22.393508
_cell_length_b     17.930251
_cell_length_c     14.434274
_cell_angle_alpha  89.043058
_cell_angle_beta   109.2938
_cell_angle_gamma 116.63044
loop_
_atom_site_label
_atom_site_type_symbol
_atom_site_fract_x
_atom_site_fract_y
_atom_site_fract_z
_atom_type_partial_charge
Co0 Co 0.12544 0.0283 0.45369 0.0
N1 N 0.20819 0.09025 0.41919 0.0
C2 C 0.25901 0.16696 0.47136 0.0
N3 N 0.30947 0.12978 0.3852 0.0
C4 C 0.23947 0.07078 0.36325 0.0
C5 C 0.32008 0.19081 0.4513 0.0
Co6 Co 0.92168 1.00465 0.71717 0.0
N7 N 0.83662 0.94923 0.74816 0.0
N8 N 0.73903 0.92155 0.78651 0.0
C9 C 0.75995 0.86307 0.81703 0.0
C10 C 0.81932 0.88 0.79372 0.0
C11 C 0.78562 0.97255 0.74424 0.0
Co12 Co 0.02565 0.0222 0.58557 0.0
C13 C 0.98271 0.12711 0.70198 0.0
H14 H 0.85024 0.84629 0.8148 0.0
O15 O 0.04549 0.9656 0.48103 0.0
O16 O 0.92351 0.97675 0.48554 0.0
O17 O 0.04611 0.13098 0.5287 0.0
O18 O 0.12801 0.06924 0.68534 0.0
O19 O 0.18428 0.06578 0.58632 0.0
O20 O 0.86407 0.97193 0.58337 0.0
O21 O 1.0038 0.06984 0.69352 0.0
O22 O 0.93252 0.90526 0.72278 0.0
O23 O 0.10923 0.12529 0.44112 0.0
O24 O 0.06755 0.98617 0.33435 0.0
O25 O 1.00508 0.91395 0.64267 0.0
O26 O 0.92042 0.10065 0.70867 0.0
C27 C 0.07937 0.16158 0.46945 0.0
C28 C 0.78121 0.04743 0.70041 0.0
H29 H 0.79282 0.05339 0.63105 0.0
H30 H 0.72707 0.0417 0.68295 0.0
H31 H 0.82065 0.1058 0.75476 0.0
C32 C 0.86555 0.96359 0.49757 0.0
C33 C 0.18495 0.0799 0.67212 0.0
H34 H 0.25364 0.20179 0.52587 0.0
H35 H 0.22483 0.95742 0.28853 0.0
H36 H 0.19744 0.02397 0.20836 0.0
H37 H 0.1423 0.96126 0.27018 0.0
C38 C 0.1988 0.99855 0.27909 0.0
C39 C 0.05882 0.94129 0.4061 0.0
C40 C 0.96755 0.87622 0.69516 0.0
H41 H 0.36973 0.24829 0.48597 0.0
H42 H 0.73746 0.81554 0.8602 0.0
Co43 Co 0.5468 0.20646 0.20431 0.0
N44 N 0.57058 0.31945 0.22078 0.0
C45 C 0.63541 0.38756 0.23888 0.0
N46 N 0.55997 0.43667 0.22416 0.0
C47 C 0.52598 0.35178 0.21404 0.0
C48 C 0.62873 0.46012 0.23979 0.0
Co49 Co 0.50938 0.85771 0.97734 0.0
N50 N 0.4943 0.75084 0.97767 0.0
N51 N 0.50979 0.63916 0.95845 0.0
C52 C 0.43899 0.61284 0.92695 0.0
C53 C 0.42955 0.68209 0.93969 0.0
C54 C 0.5423 0.72316 0.98719 0.0
Co55 Co 0.52802 0.03743 0.08879 0.0
C56 C 0.56193 1.01057 0.92232 0.0
H57 H 0.379 0.68359 0.91542 0.0
O58 O 0.52802 0.10142 0.19846 0.0
O59 O 0.59577 1.00291 0.18904 0.0
O60 O 0.61181 0.13011 0.07298 0.0
O61 O 0.46137 0.07196 0.99006 0.0
O62 O 0.47673 0.18801 0.07248 0.0
O63 O 0.58737 0.89388 0.10152 0.0
O64 O 0.5246 0.96887 0.97376 0.0
O65 O 0.44374 0.83321 1.04599 0.0
O66 O 0.62132 0.2399 0.15356 0.0
O67 O 0.60654 0.21395 0.32492 0.0
O68 O 0.44435 0.94652 0.10618 0.0
O69 O 0.52509 0.96718 0.9721 0.0
C70 C 0.6422 0.20789 0.10223 0.0
C71 C 0.62092 0.78045 1.01024 0.0
H72 H 0.65079 0.78331 0.08975 0.0
H73 H 0.64182 0.75606 0.965 0.0
H74 H 0.63163 0.84515 0.99594 0.0
C75 C 0.61696 0.94861 0.17926 0.0
C76 C 0.44517 0.1314 0.99562 0.0
H77 H 0.68452 0.38503 0.24989 0.0
H78 H 0.42989 0.23223 0.1816 0.0
H79 H 0.41396 0.32002 0.14679 0.0
H80 H 0.44338 0.30896 0.27516 0.0
C81 C 0.44887 0.29985 0.20311 0.0
C82 C 0.54199 0.15344 0.27465 0.0
C83 C 0.42045 0.86792 0.09127 0.0
H84 H 0.67031 0.52441 0.24977 0.0
H85 H 0.39757 0.5494 0.89227 0.0
Co86 Co 0.13242 0.44964 1.05919 0.0
N87 N 0.21779 0.44482 0.11276 0.0
C88 C 0.2249 0.38722 0.17085 0.0
N89 N 0.33306 0.47684 0.17905 0.0
C90 C 0.28494 0.49727 0.11636 0.0
C91 C 0.29556 0.40732 0.21248 0.0
Co92 Co 0.89002 0.54402 1.04715 0.0
N93 N 0.79912 0.52547 0.96109 0.0
N94 N 0.69495 0.52959 0.90843 0.0
C95 C 0.68461 0.45993 0.85881 0.0
C96 C 0.7488 0.45856 0.88932 0.0
C97 C 0.76508 0.57061 0.96555 0.0
Co98 Co 0.02616 0.51872 0.08102 0.0
C99 C 0.95862 0.61825 0.18516 0.0
H100 H 0.7567 0.41024 0.86045 0.0
O101 O 0.05276 0.45083 1.00336 0.0
O102 O 1.0014 0.57372 0.95412 0.0
O103 O 0.11861 0.62337 0.1249 0.0
O104 O 0.0539 0.46935 0.20876 0.0
O105 O 0.10679 0.40291 0.16562 0.0
O106 O 0.93361 0.62741 0.98086 0.0
O107 O 0.98538 0.5793 0.14454 0.0
O108 O 0.88421 0.46712 0.95532 0.0
O109 O 0.18277 0.55857 0.13357 0.0
O110 O 0.15154 0.49824 0.95614 0.0
O111 O 0.93869 0.41 1.04736 0.0
O112 O 0.89646 0.61054 0.13423 0.0
C113 C 0.17866 0.62431 0.15163 0.0
C114 C 0.80194 0.66099 1.01541 0.0
H115 H 0.85641 0.69551 1.01238 0.0
H116 H 0.77088 0.69398 0.97822 0.0
H117 H 0.80616 0.66321 0.09419 0.0
C118 C 0.97329 0.62472 0.93622 0.0
C119 C 0.07997 0.41706 0.22382 0.0
H120 H 0.18137 0.33335 0.18236 0.0
H121 H 0.28977 0.5347 0.97653 0.0
H122 H 0.36172 0.60987 0.08248 0.0
H123 H 0.27361 0.6006 1.04591 0.0
C124 C 0.30364 0.56483 1.05237 0.0
C125 C 0.09217 0.43833 0.95918 0.0
C126 C 0.88083 0.40162 0.98858 0.0
H127 H 0.31751 0.37101 0.25923 0.0
H128 H 0.63355 0.41129 0.80861 0.0
C129 C 0.1454 0.36319 0.35874 0.0
C130 C 0.08246 0.36985 0.31045 0.0
H131 H 0.19348 0.29269 0.44505 0.0
C132 C 0.0201 0.31436 0.32814 0.0
H133 H 0.19443 0.40473 0.34709 0.0
C134 C 0.02 0.25023 0.38697 0.0
C135 C 0.08183 0.23948 0.4274 0.0
H136 H 0.97026 0.31614 0.29036 0.0
H137 H 0.97024 0.20519 0.3943 0.0
C138 C 0.1449 0.29861 0.41492 0.0
C139 C 0.79733 0.95377 0.3137 0.0
C140 C 0.79945 0.95023 0.4121 0.0
H141 H 0.73745 0.95539 0.16292 0.0
C142 C 0.73925 0.94319 0.43141 0.0
H143 H 0.84228 0.95952 0.29556 0.0
C144 C 0.68106 0.94474 0.35681 0.0
C145 C 0.67958 0.94955 0.25937 0.0
H146 H 0.73735 0.93811 0.50523 0.0
H147 H 0.63668 0.94093 0.3751 0.0
C148 C 0.73754 0.95218 0.23798 0.0
C149 C 0.97258 0.78301 0.36367 0.0
C150 C 0.04121 0.84968 0.38169 0.0
H151 H 0.89612 0.65544 0.29695 0.0
C152 C 0.09005 0.82934 0.35965 0.0
H153 H 0.93348 0.79418 0.38101 0.0
C154 C 0.06754 0.75053 0.304 0.0
C155 C 0.99616 0.68682 0.27558 0.0
H156 H 0.14557 0.87607 0.3819 0.0
H157 H 0.10461 0.74203 0.27809 0.0
C158 C 0.95137 0.70281 0.3145 0.0
C159 C 0.411 0.08671 0.24646 0.0
C160 C 0.48241 0.13474 0.31146 0.0
H161 H 0.30236 0.05442 0.21153 0.0
C162 C 0.4952 0.17451 0.40379 0.0
H163 H 0.39895 0.05629 0.1737 0.0
C164 C 0.43813 0.16914 0.42864 0.0
C165 C 0.36662 0.12674 0.36051 0.0
H166 H 0.54942 0.21169 0.45597 0.0
H167 H 0.45067 0.20022 0.50112 0.0
C168 C 0.35432 0.08491 0.26915 0.0
C169 C 0.90577 0.73218 0.73507 0.0
C170 C 0.96932 0.79989 0.73439 0.0
H171 H 0.85774 0.6205 0.79537 0.0
C172 C 0.03486 0.79961 0.78591 0.0
H173 H 0.85467 0.7308 0.69641 0.0
C174 C 0.03698 0.73656 0.84481 0.0
C175 C 0.97336 0.67241 0.85116 0.0
H176 H 0.08482 0.8519 0.78758 0.0
H177 H 0.08834 0.7422 0.89156 0.0
C178 C 0.90771 0.6688 0.79151 0.0
C179 C 0.3331 0.14919 0.93093 0.0
C180 C 0.38261 0.12855 0.91286 0.0
H181 H 0.23089 0.14878 0.87035 0.0
C182 C 0.36742 0.0956 0.81574 0.0
H183 H 0.3426 0.17325 1.00548 0.0
C184 C 0.30456 0.08282 0.73892 0.0
C185 C 0.25345 0.10057 0.75659 0.0
H186 H 0.40384 0.07837 0.79922 0.0
H187 H 0.29519 0.05623 0.66553 0.0
C188 C 0.26874 0.13446 0.85379 0.0
C189 C 0.0441 0.35587 0.78644 0.0
C190 C 0.06265 0.35778 0.89008 0.0
H191 H 1.00626 0.28157 0.64378 0.0
C192 C 0.06882 0.28805 0.92914 0.0
H193 H 0.04146 0.40965 0.75377 0.0
C194 C 0.05438 0.21759 0.86682 0.0
C195 C 0.03153 0.21303 0.7625 0.0
H196 H 0.08499 0.28784 1.0085 0.0
H197 H 0.05518 0.1632 0.89994 0.0
C198 C 0.02688 0.28378 0.72352 0.0
C199 C 0.57505 0.90376 0.82705 0.0
C200 C 0.60426 0.98177 0.88703 0.0
H201 H 0.59641 0.82284 0.74799 0.0
C202 C 0.67775 0.03689 0.91503 0.0
H203 H 0.51859 0.85965 0.80534 0.0
C204 C 0.72126 1.01674 0.88188 0.0
C205 C 0.69257 0.94029 0.82013 0.0
H206 H 0.70241 0.09523 0.96499 0.0
H207 H 0.77789 0.06067 0.90535 0.0
C208 C 0.61928 0.88292 0.79424 0.0
C209 C 0.45757 0.52428 0.28315 0.0
C210 C 0.40522 0.50498 0.1883 0.0
H211 H 0.55393 0.51987 0.36887 0.0
C212 C 0.41854 0.48984 0.10445 0.0
H213 H 0.44689 0.53487 0.3483 0.0
C214 C 0.47897 0.48144 0.11621 0.0
C215 C 0.52609 0.48836 0.21168 0.0
H216 H 0.37722 0.47157 1.03139 0.0
H217 H 0.48243 0.45541 1.05217 0.0
C218 C 0.51862 0.51656 0.29481 0.0
C219 C 0.24255 0.77129 0.12345 0.0
C220 C 0.24512 0.70413 0.17296 0.0
H221 H 0.2973 0.87579 1.05689 0.0
C222 C 0.31095 0.7025 0.21334 0.0
H223 H 0.19286 0.77475 0.09242 0.0
C224 C 0.36904 0.75705 0.18805 0.0
C225 C 0.36287 0.81644 0.12682 0.0
H226 H 0.31464 0.65213 0.25341 0.0
H227 H 0.41732 0.75017 0.21219 0.0
C228 C 0.30158 0.82767 0.10102 0.0
C229 C 0.69933 0.24068 0.97706 0.0
C230 C 0.70181 0.26129 0.07212 0.0
H231 H 0.75682 0.2668 0.8777 0.0
C232 C 0.76286 0.32905 0.13884 0.0
H233 H 0.65145 0.19013 0.92354 0.0
C234 C 0.82188 0.37409 0.11155 0.0
C235 C 0.82017 0.35116 1.01774 0.0
H236 H 0.76568 0.34554 0.21253 0.0
H237 H 0.86894 0.42665 0.1636 0.0
C238 C 0.75899 0.28404 0.95079 0.0
C239 C 0.64491 0.56572 1.0161 0.0
C240 C 0.64023 0.5442 0.92015 0.0
H241 H 0.60677 0.6161 0.10273 0.0
C242 C 0.58354 0.53975 0.8372 0.0
H243 H 0.68661 0.56588 0.08107 0.0
C244 C 0.53528 0.56374 0.85026 0.0
C245 C 0.54448 0.59267 0.94604 0.0
H246 H 0.57913 0.52221 0.7629 0.0
H247 H 0.49446 0.56609 0.7859 0.0
C248 C 0.59854 0.59209 1.02878 0.0
loop_
_geom_bond_atom_site_label_1
_geom_bond_atom_site_label_2
_geom_bond_distance
_geom_bond_site_symmetry_2
_ccdc_geom_bond_type
Co0 N1 2.034 . S
Co0 O15 2.262 1_545 S
Co0 O19 1.958 . S
Co0 O23 1.950 . S
Co0 O24 2.057 1_545 S
N1 Co0 2.034 . S
N1 C2 1.366 . S
N1 C4 1.332 . S
C2 N1 1.366 . S
C2 C5 1.377 . S
C2 H34 0.931 . S
N3 C4 1.346 . S
N3 C5 1.337 . S
C4 N1 1.332 . S
C4 N3 1.346 . S
C4 C38 1.361 . S
C5 C2 1.377 . S
C5 N3 1.337 . S
C5 H41 0.930 . S
Co6 N7 2.034 . S
Co6 O20 1.950 . S
Co6 O21 2.262 1_565 S
Co6 O22 1.958 . S
Co6 O26 2.057 1_565 S
N7 Co6 2.034 . S
N7 C10 1.366 . S
N7 C11 1.332 . S
N8 C9 1.337 . S
N8 C11 1.346 . S
C9 N8 1.337 . S
C9 C10 1.377 . S
C9 H42 0.930 . S
C10 N7 1.366 . S
C10 C9 1.377 . S
C10 H14 0.931 . S
C11 N7 1.332 . S
C11 N8 1.346 . S
C11 C28 1.361 1_565 S
Co12 O15 2.097 1_545 S
Co12 O16 2.065 1_445 S
Co12 O17 2.065 . S
Co12 O18 2.042 . S
Co12 O21 2.097 1_455 S
Co12 O25 2.042 1_445 S
C13 O21 1.253 . S
C13 O26 1.263 . S
H14 C10 0.931 . S
O15 Co0 2.262 1_565 S
O15 Co12 2.097 1_565 S
O15 C39 1.253 . S
O16 Co12 2.065 1_665 S
O16 C32 1.221 . S
O17 Co12 2.065 . S
O17 C27 1.221 . S
O18 Co12 2.042 . S
O18 C33 1.237 . S
O19 Co0 1.958 . S
O19 C33 1.278 . S
O20 Co6 1.950 . S
O20 C32 1.277 . S
O21 Co6 2.262 1_545 S
O21 Co12 2.097 1_655 S
O21 C13 1.253 . S
O22 Co6 1.958 . S
O22 C40 1.278 . S
O23 Co0 1.950 . S
O23 C27 1.277 . S
O24 Co0 2.057 1_565 S
O24 C39 1.263 . S
O25 Co12 2.042 1_665 S
O25 C40 1.237 . S
O26 Co6 2.057 1_545 S
O26 C13 1.263 . S
C27 O17 1.221 . S
C27 O23 1.277 . S
C28 C11 1.361 1_545 S
C28 H29 0.960 . S
C28 H30 0.961 1_545 S
C28 H31 0.961 . S
H29 C28 0.960 . S
H30 C28 0.961 1_565 S
H31 C28 0.961 . S
C32 O16 1.221 . S
C32 O20 1.277 . S
C33 O18 1.237 . S
C33 O19 1.278 . S
H34 C2 0.931 . S
H35 C38 0.961 . S
H36 C38 0.961 . S
H37 C38 0.960 . S
C38 C4 1.361 . S
C38 H35 0.961 . S
C38 H36 0.961 . S
C38 H37 0.960 . S
C39 O15 1.253 . S
C39 O24 1.263 . S
C40 O22 1.278 . S
C40 O25 1.237 . S
H41 C5 0.930 . S
H42 C9 0.930 . S
Co43 N44 2.034 1_554 S
Co43 O58 2.262 . S
Co43 O62 1.958 1_554 S
Co43 O66 1.950 . S
Co43 O67 2.057 . S
N44 Co43 2.034 1_556 S
N44 C45 1.366 . S
N44 C47 1.332 1_556 S
C45 N44 1.366 . S
C45 C48 1.377 . S
C45 H77 0.931 . S
N46 C47 1.346 . S
N46 C48 1.337 1_554 S
C47 N44 1.332 1_554 S
C47 N46 1.346 . S
C47 C81 1.361 . S
C48 C45 1.377 . S
C48 N46 1.337 1_556 S
C48 H84 0.930 . S
Co49 N50 2.034 1_556 S
Co49 O63 1.950 1_556 S
Co49 O64 2.262 . S
Co49 O65 1.958 . S
Co49 O69 2.057 . S
N50 Co49 2.034 1_554 S
N50 C53 1.366 . S
N50 C54 1.332 . S
N51 C52 1.337 . S
N51 C54 1.346 . S
C52 N51 1.337 . S
C52 C53 1.377 . S
C52 H85 0.930 . S
C53 N50 1.366 . S
C53 C52 1.377 . S
C53 H57 0.931 . S
C54 N50 1.332 . S
C54 N51 1.346 . S
C54 C71 1.361 . S
Co55 O58 2.097 . S
Co55 O59 2.065 . S
Co55 O60 2.065 . S
Co55 O61 2.042 1_554 S
Co55 O64 2.097 1_544 S
Co55 O68 2.042 1_545 S
C56 O64 1.253 . S
C56 O69 1.263 . S
H57 C53 0.931 . S
O58 Co43 2.262 . S
O58 Co55 2.097 . S
O58 C82 1.253 . S
O59 Co55 2.065 . S
O59 C75 1.221 1_545 S
O60 Co55 2.065 . S
O60 C70 1.221 . S
O61 Co55 2.042 1_556 S
O61 C76 1.237 . S
O62 Co43 1.958 1_556 S
O62 C76 1.278 . S
O63 Co49 1.950 1_554 S
O63 C75 1.277 . S
O64 Co49 2.262 . S
O64 Co55 2.097 1_566 S
O64 C56 1.253 . S
O65 Co49 1.958 . S
O65 C83 1.278 . S
O66 Co43 1.950 . S
O66 C70 1.277 . S
O67 Co43 2.057 . S
O67 C82 1.263 . S
O68 Co55 2.042 1_565 S
O68 C83 1.237 1_554 S
O69 Co49 2.057 . S
O69 C56 1.263 . S
C70 O60 1.221 . S
C70 O66 1.277 . S
C71 C54 1.361 . S
C71 H72 0.960 . S
C71 H73 0.961 . S
C71 H74 0.961 . S
H72 C71 0.960 . S
H73 C71 0.961 . S
H74 C71 0.961 . S
C75 O59 1.221 1_565 S
C75 O63 1.277 . S
C76 O61 1.237 . S
C76 O62 1.278 . S
H77 C45 0.931 . S
H78 C81 0.961 . S
H79 C81 0.961 . S
H80 C81 0.960 . S
C81 C47 1.361 . S
C81 H78 0.961 . S
C81 H79 0.961 . S
C81 H80 0.960 . S
C82 O58 1.253 . S
C82 O67 1.263 . S
C83 O65 1.278 . S
C83 O68 1.237 1_556 S
H84 C48 0.930 . S
H85 C52 0.930 . S
Co86 N87 2.034 . S
Co86 O101 2.262 1_554 S
Co86 O105 1.958 . S
Co86 O109 1.950 . S
Co86 O110 2.057 1_554 S
N87 Co86 2.034 . S
N87 C88 1.366 . S
N87 C90 1.332 . S
C88 N87 1.366 . S
C88 C91 1.377 . S
C88 H120 0.931 . S
N89 C90 1.346 . S
N89 C91 1.337 . S
C90 N87 1.332 . S
C90 N89 1.346 . S
C90 C124 1.361 1_554 S
C91 C88 1.377 . S
C91 N89 1.337 . S
C91 H127 0.930 . S
Co92 N93 2.034 1_554 S
Co92 O106 1.950 1_554 S
Co92 O107 2.262 . S
Co92 O108 1.958 1_554 S
Co92 O112 2.057 . S
N93 Co92 2.034 1_556 S
N93 C96 1.366 . S
N93 C97 1.332 . S
N94 C95 1.337 . S
N94 C97 1.346 . S
C95 N94 1.337 . S
C95 C96 1.377 . S
C95 H128 0.930 . S
C96 N93 1.366 . S
C96 C95 1.377 . S
C96 H100 0.931 . S
C97 N93 1.332 . S
C97 N94 1.346 . S
C97 C114 1.361 . S
Co98 O101 2.097 1_554 S
Co98 O102 2.065 1_454 S
Co98 O103 2.065 . S
Co98 O104 2.042 . S
Co98 O107 2.097 1_455 S
Co98 O111 2.042 1_454 S
C99 O107 1.253 . S
C99 O112 1.263 . S
H100 C96 0.931 . S
O101 Co86 2.262 1_556 S
O101 Co98 2.097 1_556 S
O101 C125 1.253 . S
O102 Co98 2.065 1_656 S
O102 C118 1.221 . S
O103 Co98 2.065 . S
O103 C113 1.221 . S
O104 Co98 2.042 . S
O104 C119 1.237 . S
O105 Co86 1.958 . S
O105 C119 1.278 . S
O106 Co92 1.950 1_556 S
O106 C118 1.277 . S
O107 Co92 2.262 . S
O107 Co98 2.097 1_655 S
O107 C99 1.253 . S
O108 Co92 1.958 1_556 S
O108 C126 1.278 . S
O109 Co86 1.950 . S
O109 C113 1.277 . S
O110 Co86 2.057 1_556 S
O110 C125 1.263 . S
O111 Co98 2.042 1_656 S
O111 C126 1.237 . S
O112 Co92 2.057 . S
O112 C99 1.263 . S
C113 O103 1.221 . S
C113 O109 1.277 . S
C114 C97 1.361 . S
C114 H115 0.960 . S
C114 H116 0.961 . S
C114 H117 0.961 1_556 S
H115 C114 0.960 . S
H116 C114 0.961 . S
H117 C114 0.961 1_554 S
C118 O102 1.221 . S
C118 O106 1.277 . S
C119 O104 1.237 . S
C119 O105 1.278 . S
H120 C88 0.931 . S
H121 C124 0.961 . S
H122 C124 0.961 . S
H123 C124 0.960 . S
C124 C90 1.361 1_556 S
C124 H121 0.961 . S
C124 H122 0.961 . S
C124 H123 0.960 . S
C125 O101 1.253 . S
C125 O110 1.263 . S
C126 O108 1.278 . S
C126 O111 1.237 . S
H127 C91 0.930 . S
H128 C95 0.930 . S
C129 C130 1.387 . S
C129 H133 0.950 . S
C129 C138 1.390 . S
C130 C129 1.387 . S
C130 C132 1.387 1_455 S
H131 C138 0.950 . S
C132 C130 1.387 1_655 S
C132 C134 1.390 . S
C132 H136 0.950 . S
H133 C129 0.950 . S
C134 C132 1.390 . S
C134 C135 1.387 1_655 S
C134 H137 0.950 . S
C135 C134 1.387 1_455 S
C135 C138 1.387 . S
H136 C132 0.950 . S
H137 C134 0.950 . S
C138 C129 1.390 . S
C138 H131 0.950 . S
C138 C135 1.387 . S
C139 C140 1.387 1_545 S
C139 H143 0.950 . S
C139 C148 1.390 . S
C140 C139 1.387 1_565 S
C140 C142 1.387 . S
H141 C148 0.950 . S
C142 C140 1.387 . S
C142 C144 1.390 . S
C142 H146 0.950 . S
H143 C139 0.950 . S
C144 C142 1.390 . S
C144 C145 1.387 . S
C144 H147 0.950 . S
C145 C144 1.387 . S
C145 C148 1.387 1_565 S
H146 C142 0.950 . S
H147 C144 0.950 . S
C148 C139 1.390 . S
C148 H141 0.950 . S
C148 C145 1.387 1_545 S
C149 C150 1.387 . S
C149 H153 0.950 . S
C149 C158 1.390 . S
C150 C149 1.387 . S
C150 C152 1.387 1_655 S
H151 C158 0.950 . S
C152 C150 1.387 1_455 S
C152 C154 1.390 . S
C152 H156 0.950 . S
H153 C149 0.950 . S
C154 C152 1.390 . S
C154 C155 1.387 . S
C154 H157 0.950 . S
C155 C154 1.387 . S
C155 C158 1.387 1_455 S
H156 C152 0.950 . S
H157 C154 0.950 . S
C158 C149 1.390 . S
C158 H151 0.950 . S
C158 C155 1.387 1_655 S
C159 C160 1.387 . S
C159 H163 0.950 . S
C159 C168 1.390 . S
C160 C159 1.387 . S
C160 C162 1.387 . S
H161 C168 0.950 . S
C162 C160 1.387 . S
C162 C164 1.390 . S
C162 H166 0.950 1_545 S
H163 C159 0.950 . S
C164 C162 1.390 . S
C164 C165 1.387 . S
C164 H167 0.950 . S
C165 C164 1.387 . S
C165 C168 1.387 . S
H166 C162 0.950 1_565 S
H167 C164 0.950 . S
C168 C159 1.390 . S
C168 H161 0.950 . S
C168 C165 1.387 . S
C169 C170 1.387 . S
C169 H173 0.950 . S
C169 C178 1.390 . S
C170 C169 1.387 . S
C170 C172 1.387 1_655 S
H171 C178 0.950 . S
C172 C170 1.387 1_455 S
C172 C174 1.390 . S
C172 H176 0.950 . S
H173 C169 0.950 . S
C174 C172 1.390 . S
C174 C175 1.387 1_455 S
C174 H177 0.950 . S
C175 C174 1.387 1_655 S
C175 C178 1.387 . S
H176 C172 0.950 . S
H177 C174 0.950 . S
C178 C169 1.390 . S
C178 H171 0.950 . S
C178 C175 1.387 . S
C179 C180 1.387 1_565 S
C179 H183 0.950 . S
C179 C188 1.382 1_565 S
C180 C179 1.387 1_545 S
C180 C182 1.387 . S
H181 C188 0.951 1_565 S
C182 C180 1.387 . S
C182 C184 1.390 . S
C182 H186 0.950 . S
H183 C179 0.950 . S
C184 C182 1.390 . S
C184 C185 1.387 . S
C184 H187 0.950 . S
C185 C184 1.387 . S
C185 C188 1.394 . S
H186 C182 0.950 . S
H187 C184 0.950 . S
C188 C179 1.382 1_545 S
C188 H181 0.951 1_545 S
C188 C185 1.394 . S
C189 C190 1.398 . S
C189 H193 0.950 . S
C189 C198 1.390 . S
C190 C189 1.398 . S
C190 C192 1.389 1_455 S
H191 C198 0.950 . S
C192 C190 1.389 1_655 S
C192 C194 1.390 . S
C192 H196 0.950 . S
H193 C189 0.950 . S
C194 C192 1.390 . S
C194 C195 1.387 1_655 S
C194 H197 0.950 . S
C195 C194 1.387 1_455 S
C195 C198 1.387 . S
H196 C192 0.950 . S
H197 C194 0.950 . S
C198 C189 1.390 . S
C198 H191 0.950 . S
C198 C195 1.387 . S
C199 C200 1.387 . S
C199 H203 0.950 . S
C199 C208 1.390 . S
C200 C199 1.387 . S
C200 C202 1.387 1_565 S
H201 C208 0.950 . S
C202 C200 1.387 1_545 S
C202 C204 1.390 1_545 S
C202 H206 0.950 . S
H203 C199 0.950 . S
C204 C202 1.390 1_565 S
C204 C205 1.387 . S
C204 H207 0.950 1_565 S
C205 C204 1.387 . S
C205 C208 1.387 . S
H206 C202 0.950 . S
H207 C204 0.950 1_545 S
C208 C199 1.390 . S
C208 H201 0.950 . S
C208 C205 1.387 . S
C209 C210 1.387 . S
C209 H213 0.950 . S
C209 C218 1.390 . S
C210 C209 1.387 . S
C210 C212 1.387 1_554 S
H211 C218 0.950 . S
C212 C210 1.387 1_556 S
C212 C214 1.390 . S
C212 H216 0.950 . S
H213 C209 0.950 . S
C214 C212 1.390 . S
C214 C215 1.387 1_556 S
C214 H217 0.950 . S
C215 C214 1.387 1_554 S
C215 C218 1.387 . S
H216 C212 0.950 . S
H217 C214 0.950 . S
C218 C209 1.390 . S
C218 H211 0.950 . S
C218 C215 1.387 . S
C219 C220 1.387 1_556 S
C219 H223 0.950 . S
C219 C228 1.390 . S
C220 C219 1.387 1_554 S
C220 C222 1.387 . S
H221 C228 0.950 . S
C222 C220 1.387 . S
C222 C224 1.390 . S
C222 H226 0.950 . S
H223 C219 0.950 . S
C224 C222 1.390 . S
C224 C225 1.387 1_554 S
C224 H227 0.950 . S
C225 C224 1.387 1_556 S
C225 C228 1.387 . S
H226 C222 0.950 . S
H227 C224 0.950 . S
C228 C219 1.390 . S
C228 H221 0.950 . S
C228 C225 1.387 . S
C229 C230 1.387 1_556 S
C229 H233 0.950 . S
C229 C238 1.390 . S
C230 C229 1.387 1_554 S
C230 C232 1.387 . S
H231 C238 0.950 . S
C232 C230 1.387 . S
C232 C234 1.390 . S
C232 H236 0.950 . S
H233 C229 0.950 . S
C234 C232 1.390 . S
C234 C235 1.387 1_554 S
C234 H237 0.950 . S
C235 C234 1.387 1_556 S
C235 C238 1.387 . S
H236 C232 0.950 . S
H237 C234 0.950 . S
C238 C229 1.390 . S
C238 H231 0.950 . S
C238 C235 1.387 . S
C239 C240 1.387 . S
C239 H243 0.950 . S
C239 C248 1.390 1_556 S
C240 C239 1.387 . S
C240 C242 1.387 . S
H241 C248 0.950 . S
C242 C240 1.387 . S
C242 C244 1.390 . S
C242 H246 0.950 . S
H243 C239 0.950 . S
C244 C242 1.390 . S
C244 C245 1.387 1_556 S
C244 H247 0.950 . S
C245 C244 1.387 1_554 S
C245 C248 1.387 . S
H246 C242 0.950 . S
H247 C244 0.950 . S
C248 C239 1.390 1_554 S
C248 H241 0.950 . S
C248 C245 1.387 . S
C130 C119 1.965 . S
C135 C27 2.119 . S
C140 C32 1.693 . S
C145 C75 1.593 . S
C150 C39 1.951 1_655 S
C155 C99 1.886 1_455 S
C160 C82 1.114 . S
C165 N3 1.384 . S
C170 C40 2.089 . S
C175 C118 1.985 . S
C180 C76 1.384 . S
C185 C33 1.457 . S
C190 C125 1.934 . S
C195 C13 2.018 1_455 S
C200 C56 1.098 . S
C205 N8 1.323 . S
C210 N89 0.694 . S
C215 N46 0.703 . S
C220 C113 0.900 . S
C225 C83 0.918 . S
C230 C70 0.911 . S
C235 C126 0.888 . S
C240 N94 0.661 . S
C245 N51 0.641 . S
