# Generated by pormake.
# Topology unh, (4)-cn, num edge types: 1
# Building blocks:
#     Node 0, Type 0, BuildingBlock: ESEHIV_clean_sbu_0, # of connection points: 4
#     Node 1, Type 0, BuildingBlock: ESEHIV_clean_sbu_0, # of connection points: 4
#     Node 2, Type 0, BuildingBlock: ESEHIV_clean_sbu_0, # of connection points: 4
#     Node 3, Type 0, BuildingBlock: ESEHIV_clean_sbu_0, # of connection points: 4
#     Node 4, Type 0, BuildingBlock: ESEHIV_clean_sbu_0, # of connection points: 4
#     Node 5, Type 0, BuildingBlock: ESEHIV_clean_sbu_0, # of connection points: 4
#     Edge 6, Type (0, 0), BuildingBlock: OJICUG_clean_linker_0, # of connection points: 2
#     Edge 7, Type (0, 0), BuildingBlock: OJICUG_clean_linker_0, # of connection points: 2
#     Edge 8, Type (0, 0), BuildingBlock: OJICUG_clean_linker_0, # of connection points: 2
#     Edge 9, Type (0, 0), BuildingBlock: OJICUG_clean_linker_0, # of connection points: 2
#     Edge 10, Type (0, 0), BuildingBlock: OJICUG_clean_linker_0, # of connection points: 2
#     Edge 11, Type (0, 0), BuildingBlock: OJICUG_clean_linker_0, # of connection points: 2
#     Edge 12, Type (0, 0), BuildingBlock: OJICUG_clean_linker_0, # of connection points: 2
#     Edge 13, Type (0, 0), BuildingBlock: OJICUG_clean_linker_0, # of connection points: 2
#     Edge 14, Type (0, 0), BuildingBlock: OJICUG_clean_linker_0, # of connection points: 2
#     Edge 15, Type (0, 0), BuildingBlock: OJICUG_clean_linker_0, # of connection points: 2
#     Edge 16, Type (0, 0), BuildingBlock: OJICUG_clean_linker_0, # of connection points: 2
#     Edge 17, Type (0, 0), BuildingBlock: OJICUG_clean_linker_0, # of connection points: 2
# Relax obj value: 0.010
# Max RMSD: 0.159
# Mean RMSD: 0.159
data_MOF--net-unh--node1-ESEHIV_clean_sbu_0--edge1-OJICUG_clean_linker_0
_symmetry_space_group_name_H-M    P1
_symmetry_Int_Tables_number       1
_symmetry_cell_setting            triclinic
loop_
_symmetry_equiv_pos_as_xyz
'x, y, z'
_cell_length_a     37.74268
_cell_length_b     37.984474
_cell_length_c     15.561161
_cell_angle_alpha  90.170328
_cell_angle_beta   89.934815
_cell_angle_gamma 119.51448
loop_
_atom_site_label
_atom_site_type_symbol
_atom_site_fract_x
_atom_site_fract_y
_atom_site_fract_z
_atom_type_partial_charge
Cu0 Cu 0.17083 0.5687 0.1404 0.0
N1 N 0.13821 0.53756 0.04957 0.0
N2 N 0.08707 0.51354 0.95489 0.0
C3 C 0.10656 0.5405 1.01842 0.0
C4 C 0.10734 0.49274 0.94578 0.0
C5 C 0.13902 0.50774 1.00425 0.0
O6 O 0.1339 0.56821 0.22772 0.0
C7 C 0.23254 0.62914 0.04221 0.0
O8 O 0.23513 0.598 1.01291 0.0
H9 H 0.09763 0.56164 0.04322 0.0
H10 H 0.16098 0.4976 1.01307 0.0
N11 N 0.20318 0.54822 0.18418 0.0
N12 N 0.25733 0.54719 0.23966 0.0
C13 C 0.2416 0.57049 0.21313 0.0
C14 C 0.19413 0.50943 0.19278 0.0
C15 C 0.22744 0.50868 0.22715 0.0
C16 C 0.10767 0.53426 0.25861 0.0
O17 O 0.10852 0.5015 0.23466 0.0
H18 H 0.25757 0.60322 0.21492 0.0
H19 H 0.1655 0.48348 0.17453 0.0
O20 O 0.20601 0.62327 0.09926 0.0
H21 H 0.1002 0.46887 0.89939 0.0
H22 H 0.22973 0.48189 0.23998 0.0
Cu23 Cu 0.61186 0.15557 0.30852 0.0
N24 N 0.61311 0.12399 0.21792 0.0
N25 N 0.5891 0.07343 0.12242 0.0
C26 C 0.57978 0.09217 0.18498 0.0
C27 C 0.63008 0.09436 0.11582 0.0
C28 C 0.64484 0.12568 0.17482 0.0
O29 O 0.5755 0.11797 0.39391 0.0
C30 C 0.61112 0.21505 0.20629 0.0
O31 O 0.64477 0.21693 0.1776 0.0
H32 H 0.54929 0.08255 0.20795 0.0
H33 H 0.67639 0.14797 0.18561 0.0
N34 N 0.66357 0.18818 0.3557 0.0
N35 N 0.71659 0.24156 0.41651 0.0
C36 C 0.67827 0.22613 0.38584 0.0
C37 C 0.69356 0.17923 0.36754 0.0
C38 C 0.72626 0.21205 0.40513 0.0
C39 C 0.58351 0.09105 0.42081 0.0
O40 O 0.61681 0.09172 0.39367 0.0
H41 H 0.66094 0.24188 0.38597 0.0
H42 H 0.6919 0.15093 0.34968 0.0
O43 O 0.59122 0.18984 0.26529 0.0
H44 H 0.64804 0.08789 0.07086 0.0
H45 H 0.75516 0.21423 0.42129 0.0
Cu46 Cu 0.48371 0.60242 0.45554 0.0
N47 N 0.51604 0.60703 0.36071 0.0
N48 N 0.54683 0.59077 0.25743 0.0
C49 C 0.52259 0.57793 0.32766 0.0
C50 C 0.55583 0.62959 0.2464 0.0
C51 C 0.53684 0.63949 0.31013 0.0
O52 O 0.48925 0.56776 0.53926 0.0
C53 C 0.41985 0.60168 0.3646 0.0
O54 O 0.44976 0.63645 0.33775 0.0
H55 H 0.50988 0.548 0.35505 0.0
H56 H 0.53771 0.66818 0.31848 0.0
N57 N 0.50195 0.65317 0.50564 0.0
N58 N 0.50202 0.70623 0.56846 0.0
C59 C 0.47902 0.66883 0.53479 0.0
C60 C 0.54074 0.68144 0.5215 0.0
C61 C 0.54091 0.71422 0.56024 0.0
C62 C 0.47048 0.52937 0.53374 0.0
O63 O 0.44433 0.51165 0.47091 0.0
H64 H 0.44609 0.65281 0.53228 0.0
H65 H 0.56703 0.6784 0.50574 0.0
O66 O 0.42772 0.58103 0.41772 0.0
H67 H 0.57404 0.64929 0.1949 0.0
H68 H 0.56764 0.74199 0.57956 0.0
Cu69 Cu 0.88647 0.46304 0.64149 0.0
N70 N 0.91819 0.49063 0.54673 0.0
N71 N 0.96945 0.5142 0.45259 0.0
C72 C 0.95214 0.49034 0.52157 0.0
C73 C 0.94533 0.53006 0.43353 0.0
C74 C 0.9136 0.51533 0.49163 0.0
O75 O 0.92376 0.46369 0.72819 0.0
C76 C 0.82112 0.40149 0.5509 0.0
O77 O 0.81869 0.43237 0.51988 0.0
H78 H 0.96421 0.47339 0.55424 0.0
H79 H 0.88896 0.52213 0.49355 0.0
N80 N 0.85833 0.48879 0.68222 0.0
N81 N 0.80892 0.49911 0.73416 0.0
C82 C 0.82074 0.47152 0.71694 0.0
C83 C 0.87074 0.52858 0.67803 0.0
C84 C 0.84034 0.53503 0.70976 0.0
C85 C 0.95234 0.49781 0.75354 0.0
O86 O 0.95383 0.53092 0.72432 0.0
H87 H 0.80195 0.43925 0.72657 0.0
H88 H 0.89965 0.55128 0.65222 0.0
O89 O 0.84838 0.40799 0.60656 0.0
H90 H 0.94987 0.55026 0.38055 0.0
H91 H 0.84124 0.5639 0.71422 0.0
Cu92 Cu 0.44684 0.87273 0.8069 0.0
N93 N 0.44629 0.90396 0.71541 0.0
N94 N 0.47046 0.95457 0.62068 0.0
C95 C 0.4796 0.9363 0.68425 0.0
C96 C 0.42963 0.93276 0.6115 0.0
C97 C 0.41477 0.90142 0.67006 0.0
O98 O 0.48322 0.9105 0.89258 0.0
C99 C 0.44672 0.8114 0.70788 0.0
O100 O 0.41294 0.80906 0.67886 0.0
H101 H 0.50991 0.94666 0.70929 0.0
H102 H 0.38329 0.87858 0.67913 0.0
N103 N 0.39473 0.8412 0.85286 0.0
N104 N 0.34022 0.78846 0.91076 0.0
C105 C 0.37873 0.80302 0.88196 0.0
C106 C 0.3654 0.8512 0.86348 0.0
C107 C 0.33178 0.81879 0.89934 0.0
C108 C 0.47594 0.93817 0.91809 0.0
O109 O 0.44332 0.93832 0.88924 0.0
H110 H 0.39521 0.78642 0.88247 0.0
H111 H 0.36808 0.8799 0.84562 0.0
O112 O 0.46689 0.83753 0.76551 0.0
H113 H 0.41185 0.93868 0.56517 0.0
H114 H 0.30309 0.8174 0.9141 0.0
Cu115 Cu 0.57858 0.425 0.95277 0.0
N116 N 0.54781 0.42089 0.85571 0.0
N117 N 0.51707 0.43701 0.75263 0.0
C118 C 0.53796 0.44844 0.82749 0.0
C119 C 0.51352 0.40066 0.73372 0.0
C120 C 0.53253 0.39085 0.79736 0.0
O121 O 0.57258 0.45988 0.0361 0.0
C122 C 0.65226 0.46768 0.85719 0.0
O123 O 0.63255 0.48259 0.8149 0.0
H124 H 0.54639 0.47646 0.86101 0.0
H125 H 0.53574 0.36411 0.80013 0.0
N126 N 0.55859 0.37406 1.00191 0.0
N127 N 0.55714 0.32034 0.06377 0.0
C128 C 0.58075 0.35732 1.0292 0.0
C129 C 0.51964 0.34691 1.01958 0.0
C130 C 0.51862 0.31371 0.05785 0.0
C131 C 0.5924 0.49834 0.03415 0.0
O132 O 0.62038 0.51663 0.97498 0.0
H133 H 0.61362 0.37239 1.02511 0.0
H134 H 0.49386 0.35107 1.00573 0.0
O135 O 0.63492 0.44387 0.91992 0.0
H136 H 0.49941 0.38294 0.67662 0.0
H137 H 0.49158 0.28666 0.07875 0.0
C138 C 0.04664 0.54228 0.89315 0.0
C139 C 0.0525 0.50892 0.90632 0.0
H140 H 1.01055 0.56487 0.83514 0.0
C141 C 1.02418 0.47125 0.87116 0.0
H142 H 0.06808 0.57179 0.91846 0.0
C143 C 0.99088 0.46717 0.82345 0.0
C144 C 0.98554 0.50081 0.80919 0.0
H145 H 1.02764 0.44491 0.88096 0.0
H146 H 0.96981 0.43789 0.79642 0.0
C147 C 1.0137 0.53832 0.84498 0.0
C148 C 0.54427 0.97804 0.98985 0.0
C149 C 0.50485 0.97163 0.97406 0.0
H150 H 0.60222 1.01573 0.04951 0.0
C151 C 0.49361 0.99888 1.0089 0.0
H152 H 0.5539 0.95766 0.9636 0.0
C153 C 0.52116 0.03196 0.0577 0.0
C154 C 0.56077 0.03884 0.07266 0.0
H155 H 0.46353 0.99492 0.99788 0.0
H156 H 0.51161 0.05266 0.08222 0.0
C157 C 0.57205 1.01147 0.03835 0.0
C158 C 0.59314 0.58706 0.14887 0.0
C159 C 0.55926 0.56759 0.20379 0.0
H160 H 0.63029 0.58067 0.05279 0.0
C161 C 0.53731 0.52501 0.20421 0.0
H162 H 0.61124 0.6197 0.14754 0.0
C163 C 0.54857 0.50261 0.15046 0.0
C164 C 0.58196 0.52215 0.09453 0.0
H165 H 0.5108 0.50878 0.24456 0.0
H166 H 0.53056 0.46991 0.15174 0.0
C167 C 0.60429 0.56463 0.09479 0.0
C168 C 0.03053 0.55687 0.3648 0.0
C169 C 1.00539 0.52027 0.40742 0.0
H170 H 0.08313 0.59041 0.28551 0.0
C171 C 1.01549 0.4893 0.40418 0.0
H172 H 1.02376 0.58144 0.36701 0.0
C173 C 0.0493 0.49435 0.35756 0.0
C174 C 0.07408 0.53065 0.31375 0.0
H175 H 0.99657 0.46065 0.43567 0.0
H176 H 0.05568 0.46951 0.35491 0.0
C177 C 0.06471 0.56213 0.31884 0.0
C178 C 0.51467 0.0499 0.4893 0.0
C179 C 0.55465 0.05739 0.47601 0.0
H180 H 0.45632 1.01102 0.54583 0.0
C181 C 0.56649 0.03096 0.51236 0.0
H182 H 0.50458 0.06963 0.46182 0.0
C183 C 0.53897 0.99757 0.56007 0.0
C184 C 0.49879 0.98955 0.57235 0.0
H185 H 0.59702 0.03579 0.50328 0.0
H186 H 0.54899 0.97748 0.58574 0.0
C187 C 0.48693 1.01615 0.53669 0.0
C188 C 0.47256 0.4405 0.63971 0.0
C189 C 0.50381 0.45991 0.70084 0.0
H190 H 0.43732 0.447 0.53955 0.0
C191 C 0.52266 0.50225 0.70878 0.0
H192 H 0.4569 0.40794 0.63257 0.0
C193 C 0.51117 0.52461 0.65593 0.0
C194 C 0.48059 0.50527 0.59356 0.0
H195 H 0.54712 0.51842 0.75419 0.0
H196 H 0.52691 0.55722 0.66293 0.0
C197 C 0.46112 0.4629 0.58666 0.0
C198 C 0.30603 0.53615 0.32671 0.0
C199 C 0.29794 0.56071 0.27177 0.0
H200 H 0.35073 0.52977 0.39966 0.0
C201 C 0.33028 0.59872 0.24812 0.0
H202 H 0.28178 0.50689 0.34689 0.0
C203 C 0.36967 0.61183 0.27841 0.0
C204 C 0.3778 0.58735 0.33334 0.0
H205 H 0.32537 0.61819 0.20498 0.0
H206 H 0.39379 0.64125 0.25842 0.0
C207 C 0.34552 0.54935 0.35734 0.0
C208 C 0.73679 0.3141 0.42763 0.0
C209 C 0.74212 0.28141 0.45214 0.0
H210 H 0.75744 0.37742 0.43927 0.0
C211 C 0.77315 0.28843 0.51116 0.0
H212 H 0.71354 0.30992 0.38165 0.0
C213 C 0.79843 0.32723 0.54428 0.0
C214 C 0.79341 0.35998 0.51878 0.0
H215 H 0.77777 0.26387 0.53226 0.0
H216 H 0.82215 0.33159 0.58924 0.0
C217 C 0.76217 0.3529 0.46038 0.0
C218 C 0.43741 0.75433 0.61207 0.0
C219 C 0.46094 0.7841 0.67316 0.0
H220 H 0.43212 0.70661 0.53039 0.0
C221 C 0.49811 0.7876 0.69984 0.0
H222 H 0.40864 0.7508 0.58994 0.0
C223 C 0.51154 0.76206 0.66572 0.0
C224 C 0.48804 0.73234 0.60439 0.0
H225 H 0.51694 0.81014 0.74693 0.0
H226 H 0.54015 0.76536 0.68811 0.0
C227 C 0.45076 0.72875 0.57823 0.0
C228 C 0.7103 0.45299 0.85657 0.0
C229 C 0.69337 0.47672 0.82868 0.0
H230 H 0.7604 0.44142 0.8477 0.0
C231 C 0.71544 0.50827 0.77039 0.0
H232 H 0.694 0.42834 0.90122 0.0
C233 C 0.75346 0.51585 0.74036 0.0
C234 C 0.77011 0.49173 0.76699 0.0
H235 H 0.70326 0.52709 0.74756 0.0
H236 H 0.76944 0.54006 0.69468 0.0
C237 C 0.74815 0.46024 0.82551 0.0
C238 C 0.2822 0.74223 1.00259 0.0
C239 C 0.31342 0.74864 0.94457 0.0
H240 H 0.23234 0.69965 0.0794 0.0
C241 C 0.31784 0.71543 0.91954 0.0
H242 H 0.27823 0.76721 1.02394 0.0
C243 C 0.29159 0.67675 0.9513 0.0
C244 C 0.26036 0.67032 1.00922 0.0
H245 H 0.34118 0.71914 0.87418 0.0
H246 H 0.29581 0.65186 0.93021 0.0
C247 C 0.25603 0.70353 0.03475 0.0
C248 C 0.54715 0.26508 0.16258 0.0
C249 C 0.57043 0.29374 0.09957 0.0
H250 H 0.54175 0.21792 0.24615 0.0
C251 C 0.60705 0.29612 0.07221 0.0
H252 H 0.51904 0.26272 0.18586 0.0
C253 C 0.62012 0.27057 0.10692 0.0
C254 C 0.59694 0.24201 0.17003 0.0
H255 H 0.62546 0.31738 1.02303 0.0
H256 H 0.64845 0.27325 0.08401 0.0
C257 C 0.5603 0.23954 0.19754 0.0
loop_
_geom_bond_atom_site_label_1
_geom_bond_atom_site_label_2
_geom_bond_distance
_geom_bond_site_symmetry_2
_ccdc_geom_bond_type
Cu0 N1 1.999 1_554 S
Cu0 O6 1.974 . S
Cu0 N11 1.985 . S
Cu0 O20 1.959 1_554 S
N1 Cu0 1.999 1_556 S
N1 C3 1.263 . S
N1 C5 1.389 . S
N2 C3 1.358 . S
N2 C4 1.400 . S
C3 N1 1.263 . S
C3 N2 1.358 . S
C3 H9 0.930 1_556 S
C4 N2 1.400 . S
C4 C5 1.351 . S
C4 H21 0.930 . S
C5 N1 1.389 . S
C5 C4 1.351 . S
C5 H10 0.930 . S
O6 Cu0 1.974 . S
O6 C16 1.282 . S
C7 O8 1.260 1_556 S
C7 O20 1.251 . S
O8 C7 1.260 1_554 S
H9 C3 0.930 1_554 S
H10 C5 0.930 . S
N11 Cu0 1.985 . S
N11 C13 1.335 . S
N11 C14 1.390 . S
N12 C13 1.345 . S
N12 C15 1.336 . S
C13 N11 1.335 . S
C13 N12 1.345 . S
C13 H18 0.930 . S
C14 N11 1.390 . S
C14 C15 1.346 . S
C14 H19 0.930 . S
C15 N12 1.336 . S
C15 C14 1.346 . S
C15 H22 0.929 . S
C16 O6 1.282 . S
C16 O17 1.216 . S
O17 C16 1.216 . S
H18 C13 0.930 . S
H19 C14 0.930 . S
O20 Cu0 1.959 1_556 S
O20 C7 1.251 . S
H21 C4 0.930 . S
H22 C15 0.929 . S
Cu23 N24 1.999 . S
Cu23 O29 1.974 . S
Cu23 N34 1.985 . S
Cu23 O43 1.959 . S
N24 Cu23 1.999 . S
N24 C26 1.263 . S
N24 C28 1.389 . S
N25 C26 1.358 . S
N25 C27 1.400 . S
C26 N24 1.263 . S
C26 N25 1.358 . S
C26 H32 0.930 . S
C27 N25 1.400 . S
C27 C28 1.351 . S
C27 H44 0.930 1_554 S
C28 N24 1.389 . S
C28 C27 1.351 . S
C28 H33 0.930 . S
O29 Cu23 1.974 . S
O29 C39 1.282 . S
C30 O31 1.261 . S
C30 O43 1.251 . S
O31 C30 1.261 . S
H32 C26 0.930 . S
H33 C28 0.930 . S
N34 Cu23 1.985 . S
N34 C36 1.335 . S
N34 C37 1.390 . S
N35 C36 1.345 . S
N35 C38 1.336 . S
C36 N34 1.335 . S
C36 N35 1.345 . S
C36 H41 0.930 . S
C37 N34 1.390 . S
C37 C38 1.346 . S
C37 H42 0.930 . S
C38 N35 1.336 . S
C38 C37 1.346 . S
C38 H45 0.929 . S
C39 O29 1.282 . S
C39 O40 1.216 . S
O40 C39 1.216 . S
H41 C36 0.930 . S
H42 C37 0.930 . S
O43 Cu23 1.959 . S
O43 C30 1.251 . S
H44 C27 0.930 1_556 S
H45 C38 0.929 . S
Cu46 N47 1.999 . S
Cu46 O52 1.974 . S
Cu46 N57 1.985 . S
Cu46 O66 1.959 . S
N47 Cu46 1.999 . S
N47 C49 1.263 . S
N47 C51 1.389 . S
N48 C49 1.358 . S
N48 C50 1.400 . S
C49 N47 1.263 . S
C49 N48 1.358 . S
C49 H55 0.930 . S
C50 N48 1.400 . S
C50 C51 1.351 . S
C50 H67 0.930 . S
C51 N47 1.389 . S
C51 C50 1.351 . S
C51 H56 0.930 . S
O52 Cu46 1.974 . S
O52 C62 1.282 . S
C53 O54 1.261 . S
C53 O66 1.251 . S
O54 C53 1.261 . S
H55 C49 0.930 . S
H56 C51 0.930 . S
N57 Cu46 1.985 . S
N57 C59 1.335 . S
N57 C60 1.390 . S
N58 C59 1.345 . S
N58 C61 1.336 . S
C59 N57 1.335 . S
C59 N58 1.345 . S
C59 H64 0.930 . S
C60 N57 1.390 . S
C60 C61 1.346 . S
C60 H65 0.930 . S
C61 N58 1.336 . S
C61 C60 1.346 . S
C61 H68 0.929 . S
C62 O52 1.282 . S
C62 O63 1.216 . S
O63 C62 1.216 . S
H64 C59 0.930 . S
H65 C60 0.930 . S
O66 Cu46 1.959 . S
O66 C53 1.251 . S
H67 C50 0.930 . S
H68 C61 0.929 . S
Cu69 N70 1.999 . S
Cu69 O75 1.974 . S
Cu69 N80 1.985 . S
Cu69 O89 1.959 . S
N70 Cu69 1.999 . S
N70 C72 1.263 . S
N70 C74 1.389 . S
N71 C72 1.358 . S
N71 C73 1.400 . S
C72 N70 1.263 . S
C72 N71 1.358 . S
C72 H78 0.930 . S
C73 N71 1.400 . S
C73 C74 1.351 . S
C73 H90 0.930 . S
C74 N70 1.389 . S
C74 C73 1.351 . S
C74 H79 0.930 . S
O75 Cu69 1.974 . S
O75 C85 1.282 . S
C76 O77 1.261 . S
C76 O89 1.251 . S
O77 C76 1.261 . S
H78 C72 0.930 . S
H79 C74 0.930 . S
N80 Cu69 1.985 . S
N80 C82 1.335 . S
N80 C83 1.390 . S
N81 C82 1.345 . S
N81 C84 1.336 . S
C82 N80 1.335 . S
C82 N81 1.345 . S
C82 H87 0.930 . S
C83 N80 1.390 . S
C83 C84 1.346 . S
C83 H88 0.930 . S
C84 N81 1.336 . S
C84 C83 1.346 . S
C84 H91 0.929 . S
C85 O75 1.282 . S
C85 O86 1.216 . S
O86 C85 1.216 . S
H87 C82 0.930 . S
H88 C83 0.930 . S
O89 Cu69 1.959 . S
O89 C76 1.251 . S
H90 C73 0.930 . S
H91 C84 0.929 . S
Cu92 N93 1.999 . S
Cu92 O98 1.974 . S
Cu92 N103 1.985 . S
Cu92 O112 1.959 . S
N93 Cu92 1.999 . S
N93 C95 1.263 . S
N93 C97 1.389 . S
N94 C95 1.358 . S
N94 C96 1.400 . S
C95 N93 1.263 . S
C95 N94 1.358 . S
C95 H101 0.930 . S
C96 N94 1.400 . S
C96 C97 1.351 . S
C96 H113 0.930 . S
C97 N93 1.389 . S
C97 C96 1.351 . S
C97 H102 0.930 . S
O98 Cu92 1.974 . S
O98 C108 1.282 . S
C99 O100 1.261 . S
C99 O112 1.251 . S
O100 C99 1.261 . S
H101 C95 0.930 . S
H102 C97 0.930 . S
N103 Cu92 1.985 . S
N103 C105 1.335 . S
N103 C106 1.390 . S
N104 C105 1.345 . S
N104 C107 1.336 . S
C105 N103 1.335 . S
C105 N104 1.345 . S
C105 H110 0.930 . S
C106 N103 1.390 . S
C106 C107 1.346 . S
C106 H111 0.930 . S
C107 N104 1.336 . S
C107 C106 1.346 . S
C107 H114 0.929 1_556 S
C108 O98 1.282 . S
C108 O109 1.216 . S
O109 C108 1.216 . S
H110 C105 0.930 . S
H111 C106 0.930 . S
O112 Cu92 1.959 . S
O112 C99 1.251 . S
H113 C96 0.930 . S
H114 C107 0.929 1_554 S
Cu115 N116 1.999 . S
Cu115 O121 1.974 . S
Cu115 N126 1.985 . S
Cu115 O135 1.959 . S
N116 Cu115 1.999 . S
N116 C118 1.263 . S
N116 C120 1.389 . S
N117 C118 1.358 . S
N117 C119 1.400 . S
C118 N116 1.263 . S
C118 N117 1.358 . S
C118 H124 0.930 . S
C119 N117 1.400 . S
C119 C120 1.351 . S
C119 H136 0.930 . S
C120 N116 1.389 . S
C120 C119 1.351 . S
C120 H125 0.930 . S
O121 Cu115 1.974 . S
O121 C131 1.282 1_556 S
C122 O123 1.261 . S
C122 O135 1.251 . S
O123 C122 1.261 . S
H124 C118 0.930 . S
H125 C120 0.930 . S
N126 Cu115 1.985 . S
N126 C128 1.335 . S
N126 C129 1.390 1_556 S
N127 C128 1.345 1_554 S
N127 C130 1.336 . S
C128 N126 1.335 . S
C128 N127 1.345 1_556 S
C128 H133 0.930 . S
C129 N126 1.390 1_554 S
C129 C130 1.346 . S
C129 H134 0.930 . S
C130 N127 1.336 . S
C130 C129 1.346 . S
C130 H137 0.929 . S
C131 O121 1.282 1_554 S
C131 O132 1.216 . S
O132 C131 1.216 . S
H133 C128 0.930 . S
H134 C129 0.930 . S
O135 Cu115 1.959 . S
O135 C122 1.251 . S
H136 C119 0.930 . S
H137 C130 0.929 . S
C138 C139 1.387 1_655 S
C138 H142 0.950 . S
C138 C147 1.390 . S
C139 C138 1.387 1_455 S
C139 C141 1.387 . S
H140 C147 0.950 . S
C141 C139 1.387 . S
C141 C143 1.390 1_455 S
C141 H145 0.950 . S
H142 C138 0.950 . S
C143 C141 1.390 1_655 S
C143 C144 1.387 . S
C143 H146 0.950 . S
C144 C143 1.387 . S
C144 C147 1.387 . S
H145 C141 0.950 . S
H146 C143 0.950 . S
C147 C138 1.390 . S
C147 H140 0.950 . S
C147 C144 1.387 . S
C148 C149 1.387 . S
C148 H152 0.950 . S
C148 C157 1.390 1_556 S
C149 C148 1.387 . S
C149 C151 1.387 . S
H150 C157 0.950 1_545 S
C151 C149 1.387 . S
C151 C153 1.392 1_566 S
C151 H155 0.950 . S
H152 C148 0.950 . S
C153 C151 1.392 1_544 S
C153 C154 1.386 . S
C153 H156 0.950 . S
C154 C153 1.386 . S
C154 C157 1.387 1_545 S
H155 C151 0.950 . S
H156 C153 0.950 . S
C157 C148 1.390 1_554 S
C157 H150 0.950 1_565 S
C157 C154 1.387 1_565 S
C158 C159 1.387 . S
C158 H162 0.950 . S
C158 C167 1.390 . S
C159 C158 1.387 . S
C159 C161 1.387 . S
H160 C167 0.950 . S
C161 C159 1.387 . S
C161 C163 1.390 . S
C161 H165 0.950 . S
H162 C158 0.950 . S
C163 C161 1.390 . S
C163 C164 1.387 . S
C163 H166 0.950 . S
C164 C163 1.387 . S
C164 C167 1.387 . S
H165 C161 0.950 . S
H166 C163 0.950 . S
C167 C158 1.390 . S
C167 H160 0.950 . S
C167 C164 1.387 . S
C168 C169 1.387 . S
C168 H172 0.950 . S
C168 C177 1.390 1_655 S
C169 C168 1.387 . S
C169 C171 1.387 1_655 S
H170 C177 0.950 . S
C171 C169 1.387 1_455 S
C171 C173 1.390 . S
C171 H175 0.950 . S
H172 C168 0.950 . S
C173 C171 1.390 . S
C173 C174 1.387 . S
C173 H176 0.950 . S
C174 C173 1.387 . S
C174 C177 1.387 . S
H175 C171 0.950 . S
H176 C173 0.950 . S
C177 C168 1.390 1_455 S
C177 H170 0.950 . S
C177 C174 1.387 . S
C178 C179 1.387 . S
C178 H182 0.950 . S
C178 C187 1.390 1_545 S
C179 C178 1.387 . S
C179 C181 1.387 . S
H180 C187 0.950 . S
C181 C179 1.387 . S
C181 C183 1.390 . S
C181 H185 0.950 . S
H182 C178 0.950 . S
C183 C181 1.390 . S
C183 C184 1.387 1_545 S
C183 H186 0.950 . S
C184 C183 1.387 1_565 S
C184 C187 1.387 . S
H185 C181 0.950 . S
H186 C183 0.950 . S
C187 C178 1.390 1_565 S
C187 H180 0.950 . S
C187 C184 1.387 . S
C188 C189 1.387 . S
C188 H192 0.950 . S
C188 C197 1.390 . S
C189 C188 1.387 . S
C189 C191 1.387 . S
H190 C197 0.950 . S
C191 C189 1.387 . S
C191 C193 1.390 . S
C191 H195 0.950 . S
H192 C188 0.950 . S
C193 C191 1.390 . S
C193 C194 1.387 . S
C193 H196 0.950 . S
C194 C193 1.387 . S
C194 C197 1.387 . S
H195 C191 0.950 . S
H196 C193 0.950 . S
C197 C188 1.390 . S
C197 H190 0.950 . S
C197 C194 1.387 . S
C198 C199 1.387 . S
C198 H202 0.950 . S
C198 C207 1.390 . S
C199 C198 1.387 . S
C199 C201 1.387 . S
H200 C207 0.950 . S
C201 C199 1.387 . S
C201 C203 1.390 . S
C201 H205 0.950 . S
H202 C198 0.950 . S
C203 C201 1.390 . S
C203 C204 1.387 . S
C203 H206 0.950 . S
C204 C203 1.387 . S
C204 C207 1.387 . S
H205 C201 0.950 . S
H206 C203 0.950 . S
C207 C198 1.390 . S
C207 H200 0.950 . S
C207 C204 1.387 . S
C208 C209 1.387 . S
C208 H212 0.950 . S
C208 C217 1.390 . S
C209 C208 1.387 . S
C209 C211 1.387 . S
H210 C217 0.950 . S
C211 C209 1.387 . S
C211 C213 1.390 . S
C211 H215 0.950 . S
H212 C208 0.950 . S
C213 C211 1.390 . S
C213 C214 1.387 . S
C213 H216 0.950 . S
C214 C213 1.387 . S
C214 C217 1.387 . S
H215 C211 0.950 . S
H216 C213 0.950 . S
C217 C208 1.390 . S
C217 H210 0.950 . S
C217 C214 1.387 . S
C218 C219 1.387 . S
C218 H222 0.950 . S
C218 C227 1.390 . S
C219 C218 1.387 . S
C219 C221 1.387 . S
H220 C227 0.950 . S
C221 C219 1.387 . S
C221 C223 1.390 . S
C221 H225 0.950 . S
H222 C218 0.950 . S
C223 C221 1.390 . S
C223 C224 1.387 . S
C223 H226 0.950 . S
C224 C223 1.387 . S
C224 C227 1.387 . S
H225 C221 0.950 . S
H226 C223 0.950 . S
C227 C218 1.390 . S
C227 H220 0.950 . S
C227 C224 1.387 . S
C228 C229 1.387 . S
C228 H232 0.950 . S
C228 C237 1.390 . S
C229 C228 1.387 . S
C229 C231 1.387 . S
H230 C237 0.950 . S
C231 C229 1.387 . S
C231 C233 1.390 . S
C231 H235 0.950 . S
H232 C228 0.950 . S
C233 C231 1.390 . S
C233 C234 1.387 . S
C233 H236 0.950 . S
C234 C233 1.387 . S
C234 C237 1.387 . S
H235 C231 0.950 . S
H236 C233 0.950 . S
C237 C228 1.390 . S
C237 H230 0.950 . S
C237 C234 1.387 . S
C238 C239 1.387 . S
C238 H242 0.950 1_556 S
C238 C247 1.390 1_556 S
C239 C238 1.387 . S
C239 C241 1.387 . S
H240 C247 0.950 . S
C241 C239 1.387 . S
C241 C243 1.390 . S
C241 H245 0.950 . S
H242 C238 0.950 1_554 S
C243 C241 1.390 . S
C243 C244 1.387 . S
C243 H246 0.950 . S
C244 C243 1.387 . S
C244 C247 1.387 1_556 S
H245 C241 0.950 . S
H246 C243 0.950 . S
C247 C238 1.390 1_554 S
C247 H240 0.950 . S
C247 C244 1.387 1_554 S
C248 C249 1.387 . S
C248 H252 0.950 . S
C248 C257 1.390 . S
C249 C248 1.387 . S
C249 C251 1.387 . S
H250 C257 0.950 . S
C251 C249 1.387 . S
C251 C253 1.390 . S
C251 H255 0.950 1_554 S
H252 C248 0.950 . S
C253 C251 1.390 . S
C253 C254 1.387 . S
C253 H256 0.950 . S
C254 C253 1.387 . S
C254 C257 1.387 . S
H255 C251 0.950 1_556 S
H256 C253 0.950 . S
C257 C248 1.390 . S
C257 H250 0.950 . S
C257 C254 1.387 . S
C139 N2 1.584 . S
C144 C85 1.658 . S
C149 C108 1.659 . S
C154 N25 1.588 . S
C159 N48 1.585 . S
C164 C131 1.657 . S
C169 N71 1.588 . S
C174 C16 1.658 . S
C179 C39 1.658 . S
C184 N94 1.588 . S
C189 N117 1.585 . S
C194 C62 1.657 . S
C199 N12 1.614 . S
C204 C53 1.614 . S
C209 N35 1.613 . S
C214 C76 1.615 . S
C219 C99 1.615 . S
C224 N58 1.613 . S
C229 C122 1.614 . S
C234 N81 1.614 . S
C239 N104 1.614 . S
C244 C7 1.615 . S
C249 N127 1.614 . S
C254 C30 1.614 . S
