# Generated by pormake.
# Topology fnu, (5)-cn, num edge types: 1
# Building blocks:
#     Node 0, Type 0, BuildingBlock: XOMCOT_clean_sbu_1, # of connection points: 5
#     Node 1, Type 0, BuildingBlock: XOMCOT_clean_sbu_1, # of connection points: 5
#     Node 2, Type 0, BuildingBlock: XOMCOT_clean_sbu_1, # of connection points: 5
#     Node 3, Type 0, BuildingBlock: XOMCOT_clean_sbu_1, # of connection points: 5
#     Node 4, Type 0, BuildingBlock: XOMCOT_clean_sbu_1, # of connection points: 5
#     Node 5, Type 0, BuildingBlock: XOMCOT_clean_sbu_1, # of connection points: 5
#     Edge 6, Type (0, 0), None
#     Edge 7, Type (0, 0), None
#     Edge 8, Type (0, 0), None
#     Edge 9, Type (0, 0), None
#     Edge 10, Type (0, 0), None
#     Edge 11, Type (0, 0), None
#     Edge 12, Type (0, 0), None
#     Edge 13, Type (0, 0), None
#     Edge 14, Type (0, 0), None
#     Edge 15, Type (0, 0), None
#     Edge 16, Type (0, 0), None
#     Edge 17, Type (0, 0), None
#     Edge 18, Type (0, 0), None
#     Edge 19, Type (0, 0), None
#     Edge 20, Type (0, 0), None
# Relax obj value: 0.236
# Max RMSD: 0.153
# Mean RMSD: 0.153
data_MOF--net-fnu--node1-XOMCOT_clean_sbu_1--edge1-none
_symmetry_space_group_name_H-M    P1
_symmetry_Int_Tables_number       1
_symmetry_cell_setting            triclinic
loop_
_symmetry_equiv_pos_as_xyz
'x, y, z'
_cell_length_a     12.301485
_cell_length_b     13.990203
_cell_length_c     17.869395
_cell_angle_alpha  90.570093
_cell_angle_beta   91.079578
_cell_angle_gamma 124.58619
loop_
_atom_site_label
_atom_site_type_symbol
_atom_site_fract_x
_atom_site_fract_y
_atom_site_fract_z
_atom_type_partial_charge
C0 C 0.24582 0.15924 0.38863 0.0
C1 C 0.24024 0.14281 0.46424 0.0
N2 N 0.13698 1.03477 0.47744 0.0
N3 N 0.14442 0.0632 0.35271 0.0
C4 C 1.07835 0.98748 0.4091 0.0
H5 H 0.31138 0.24127 0.36234 0.0
Co6 Co 1.09853 0.07889 0.2529 0.0
C7 C 1.00989 0.19747 0.29322 0.0
O8 O 0.9272 0.09721 0.3243 0.0
N9 N 1.05509 0.10055 0.15857 0.0
C10 C 0.95275 0.09724 0.05446 0.0
C11 C 0.93586 0.05255 0.12482 0.0
C12 C 0.14107 0.17944 0.11035 0.0
N13 N 1.08331 0.17547 0.04522 0.0
O14 O 0.28481 0.1568 0.22105 0.0
H15 H 0.84362 0.9896 0.14975 0.0
H16 H 0.24577 0.23735 0.12091 0.0
O17 O 0.12456 0.22252 0.27952 0.0
C18 C 0.40986 0.20557 0.21815 0.0
O19 O 0.47698 0.21669 0.27938 0.0
N20 N 1.05505 0.93135 0.22052 0.0
C21 C 0.94033 0.73546 0.12339 0.0
C22 C 0.86324 0.74802 0.17415 0.0
C23 C 0.92275 0.84652 0.22235 0.0
C24 C 0.13268 0.91671 0.17493 0.0
C25 C 1.07734 0.82063 0.12602 0.0
H26 H 0.8612 0.85958 0.25733 0.0
H27 H 0.23715 0.98109 0.17224 0.0
H28 H 0.98386 0.90493 0.40119 0.0
H29 H 0.30057 0.20801 0.50707 0.0
H30 H 0.87592 0.06889 1.01191 0.0
H31 H 0.7581 0.68269 0.17652 0.0
H32 H 0.14269 0.81398 0.09005 0.0
C33 C 1.05182 0.88989 0.65249 0.0
C34 C 1.05027 0.88551 0.57462 0.0
N35 N 1.09266 0.99149 0.55008 0.0
N36 N 1.09752 0.99888 0.67694 0.0
C37 C 0.12046 0.05778 0.61271 0.0
H38 H 1.02708 0.81916 0.68876 0.0
Co39 Co 0.13756 0.06506 0.77677 0.0
C40 C 0.23822 0.27609 0.7432 0.0
O41 O 0.3252 0.25676 0.72027 0.0
N42 N 0.17603 0.13183 0.87067 0.0
C43 C 0.27819 0.2475 0.96966 0.0
C44 C 0.29527 0.20548 0.90429 0.0
C45 C 1.08962 0.13291 0.91495 0.0
N46 N 0.14774 0.19873 0.97689 0.0
O47 O 0.94883 0.95856 0.80333 0.0
H48 H 0.38825 0.22896 0.88187 0.0
H49 H 0.98521 0.08607 0.90299 0.0
O50 O 0.11862 0.18705 0.74785 0.0
C51 C 0.82322 0.88623 0.80804 0.0
O52 O 0.7512 0.83436 0.74696 0.0
N53 N 0.17824 0.96171 0.81228 0.0
C54 C 0.29873 0.89088 0.91164 0.0
C55 C 0.37211 0.97422 0.85752 0.0
C56 C 0.30995 1.00789 0.80823 0.0
C57 C 0.10338 0.87559 0.86148 0.0
C58 C 0.16161 0.83929 0.91128 0.0
H59 H 0.36954 0.07851 0.77078 0.0
H60 H 0.99974 0.83849 0.8663 0.0
H61 H 0.1616 0.14937 0.61124 0.0
H62 H 1.02909 0.81303 0.5395 0.0
H63 H 0.35514 0.30569 1.01009 0.0
H64 H 0.47665 1.01354 0.85338 0.0
H65 H 1.09892 0.77204 0.95002 0.0
C66 C 0.91435 0.48897 0.72416 0.0
C67 C 0.90861 0.47721 0.80038 0.0
N68 N 0.79956 0.37326 0.81562 0.0
N69 N 0.80869 0.39338 0.69015 0.0
C70 C 0.73906 0.32353 0.74814 0.0
H71 H 0.9838 0.56828 0.69603 0.0
Co72 Co 0.7619 0.40238 0.58939 0.0
C73 C 0.66553 0.5174 0.62036 0.0
O74 O 0.58233 0.41571 0.64958 0.0
N75 N 0.71849 0.41832 0.49446 0.0
C76 C 0.61005 0.42103 0.39562 0.0
C77 C 0.59834 0.36685 0.4616 0.0
C78 C 0.80062 0.50476 0.44904 0.0
N79 N 0.73866 0.50622 0.38726 0.0
O80 O 0.94874 0.48139 0.55794 0.0
H81 H 0.50924 0.29654 0.48509 0.0
H82 H 0.9046 0.56699 0.46054 0.0
O83 O 0.78345 0.54628 0.61181 0.0
C84 C 1.07397 0.5313 0.55398 0.0
O85 O 0.14351 0.54424 0.61453 0.0
N86 N 0.71997 0.25344 0.56086 0.0
C87 C 0.60251 0.05963 0.46117 0.0
C88 C 0.52615 0.07278 0.51226 0.0
C89 C 0.5871 0.16964 0.56206 0.0
C90 C 0.79702 0.23748 0.51568 0.0
C91 C 0.74034 0.14203 0.46573 0.0
H92 H 0.52566 0.18393 0.59625 0.0
H93 H 0.90187 0.30132 0.51361 0.0
H94 H 0.64122 0.24403 0.74166 0.0
H95 H 0.97389 0.54307 0.84187 0.0
H96 H 0.53144 0.39705 0.35544 0.0
H97 H 0.41997 1.01066 0.51255 0.0
H98 H 0.80508 0.13468 0.42978 0.0
C99 C 0.70388 0.2408 0.99422 0.0
C100 C 0.70715 0.23176 0.91697 0.0
N101 N 0.75156 0.33599 0.88855 0.0
N102 N 0.74916 0.35122 1.01469 0.0
C103 C 0.77667 0.4064 0.94849 0.0
H104 H 0.67792 0.17263 0.03309 0.0
Co105 Co 0.78924 0.42143 0.11322 0.0
C106 C 0.8863 0.62815 0.07572 0.0
O107 O 0.97298 0.6078 0.05381 0.0
N108 N 0.82834 0.49158 0.20624 0.0
C109 C 0.93118 0.59779 0.30861 0.0
C110 C 0.94763 0.56494 0.23946 0.0
C111 C 0.74209 0.48608 0.25394 0.0
N112 N 0.80056 0.54444 0.31828 0.0
O113 O 0.60245 0.31438 0.1421 0.0
H114 H 1.03958 0.59219 0.21484 0.0
H115 H 0.63703 0.4362 0.24382 0.0
O116 O 0.76683 0.53961 0.08166 0.0
C117 C 0.47737 0.23888 0.14469 0.0
O118 O 0.41084 0.18142 0.08334 0.0
N119 N 0.83229 0.32108 0.15059 0.0
C120 C 0.95179 0.24587 0.24596 0.0
C121 C 1.02543 0.33016 0.19233 0.0
C122 C 0.9634 0.36599 0.14493 0.0
C123 C 0.75801 0.23553 0.20026 0.0
C124 C 0.81582 0.19714 0.24815 0.0
H125 H 1.0224 0.43638 0.10724 0.0
H126 H 0.65512 0.19975 0.20678 0.0
H127 H 0.81999 0.49811 0.94376 0.0
H128 H 0.69035 0.1581 0.88525 0.0
H129 H 1.00841 0.64971 0.35048 0.0
H130 H 0.13011 0.3689 0.18737 0.0
H131 H 0.75379 0.13029 0.28731 0.0
C132 C 0.60788 0.78239 0.05815 0.0
C133 C 0.59704 0.76151 0.13364 0.0
N134 N 0.47223 0.67451 0.14668 0.0
N135 N 0.49114 0.70712 0.02198 0.0
C136 C 0.40926 0.64314 0.07818 0.0
H137 H 0.69044 0.85843 0.03379 0.0
Co138 Co 0.44723 0.72611 0.92245 0.0
C139 C 0.35882 0.84733 0.96284 0.0
O140 O 0.27652 0.75126 0.99819 0.0
N141 N 0.40385 0.74877 0.82891 0.0
C142 C 0.29577 0.75382 0.73055 0.0
C143 C 0.28293 0.70227 0.79784 0.0
C144 C 0.48756 0.83048 0.78129 0.0
N145 N 0.42556 0.83283 0.7198 0.0
O146 O 0.63551 0.8041 0.8896 0.0
H147 H 0.19215 0.63673 0.82311 0.0
H148 H 0.59262 0.88817 0.7907 0.0
O149 O 0.4734 0.87017 0.95033 0.0
C150 C 0.76055 0.85296 0.88281 0.0
O151 O 0.83386 0.86691 0.94177 0.0
N152 N 0.40128 0.57786 0.88937 0.0
C153 C 0.2911 0.3825 0.79195 0.0
C154 C 0.21033 0.3985 0.83723 0.0
C155 C 0.26771 0.4961 0.88612 0.0
C156 C 0.48181 0.55989 0.8494 0.0
C157 C 0.42881 0.46377 0.80057 0.0
H158 H 0.20406 0.51145 0.91711 0.0
H159 H 0.58736 0.62143 0.85171 0.0
H160 H 0.30346 0.58272 0.06991 0.0
H161 H 0.66992 0.81515 0.17682 0.0
H162 H 0.21645 0.73171 0.69131 0.0
H163 H 0.10399 0.33706 0.83455 0.0
H164 H 0.49667 0.4541 0.7695 0.0
C165 C 0.2872 0.6482 0.30498 0.0
C166 C 0.29433 0.62897 0.22995 0.0
N167 N 0.41401 0.65198 0.21788 0.0
N168 N 0.40073 0.68049 0.34156 0.0
C169 C 0.47737 0.68387 0.28624 0.0
H170 H 0.21034 0.65231 0.32899 0.0
Co171 Co 0.45088 0.74462 0.44128 0.0
C172 C 0.54445 0.95647 0.40834 0.0
O173 O 0.62788 0.94135 0.37466 0.0
N174 N 0.50147 0.8116 0.53548 0.0
C175 C 0.61364 0.91435 0.63738 0.0
C176 C 0.62373 0.88084 0.56671 0.0
C177 C 0.42062 0.80925 0.586 0.0
N178 N 0.48465 0.86609 0.64972 0.0
O179 O 0.26438 0.63883 0.4759 0.0
H180 H 0.71385 0.90466 0.54013 0.0
H181 H 0.31545 0.76382 0.57794 0.0
O182 O 0.42811 0.8656 0.41762 0.0
C183 C 0.13882 0.56413 0.48002 0.0
O184 O 1.06789 0.50785 0.41943 0.0
N185 N 0.49195 0.63875 0.47088 0.0
C186 C 0.60796 0.5634 0.5697 0.0
C187 C 0.68481 0.65223 0.51928 0.0
C188 C 0.62461 0.68755 0.46977 0.0
C189 C 0.41419 0.54629 0.51546 0.0
C190 C 0.47025 0.50813 0.56529 0.0
H191 H 0.68622 0.76233 0.43564 0.0
H192 H 0.30917 0.50481 0.51683 0.0
H193 H 0.58083 0.71824 0.2949 0.0
H194 H 0.22401 0.61288 0.18611 0.0
H195 H 0.69398 0.96451 0.67787 0.0
H196 H 0.79059 0.69525 0.51864 0.0
H197 H 0.40536 0.43651 0.60104 0.0
loop_
_geom_bond_atom_site_label_1
_geom_bond_atom_site_label_2
_geom_bond_distance
_geom_bond_site_symmetry_2
_ccdc_geom_bond_type
C0 C1 1.351 . S
C0 N3 1.368 . S
C0 H5 0.931 . S
C1 C0 1.351 . S
C1 N2 1.373 . S
C1 H29 0.930 . S
N2 C1 1.373 . S
N2 C4 1.340 . S
N3 C0 1.368 . S
N3 C4 1.321 . S
N3 Co6 2.135 . S
C4 N2 1.340 . S
C4 N3 1.321 . S
C4 H28 0.930 1_455 S
H5 C0 0.931 . S
Co6 N3 2.135 . S
Co6 N9 2.121 . S
Co6 O14 2.055 . S
Co6 O17 2.039 1_455 S
Co6 N20 2.140 1_445 S
C7 O8 1.227 . S
C7 O17 1.265 . S
O8 C7 1.227 . S
N9 Co6 2.121 . S
N9 C11 1.375 1_455 S
N9 C12 1.313 . S
C10 C11 1.338 1_556 S
C10 N13 1.377 1_655 S
C10 H30 0.930 1_545 S
C11 N9 1.375 1_655 S
C11 C10 1.338 1_554 S
C11 H15 0.931 . S
C12 N9 1.313 . S
C12 N13 1.344 1_554 S
C12 H16 0.930 . S
N13 C10 1.377 1_455 S
N13 C12 1.344 1_556 S
O14 Co6 2.055 . S
O14 C18 1.253 . S
H15 C11 0.931 . S
H16 C12 0.930 . S
O17 Co6 2.039 1_655 S
O17 C7 1.265 . S
C18 O14 1.253 . S
C18 O19 1.227 . S
O19 C18 1.227 . S
N20 Co6 2.140 1_665 S
N20 C23 1.346 . S
N20 C24 1.345 . S
C21 C22 1.387 . S
C21 C25 1.391 . S
C22 C21 1.387 . S
C22 C23 1.369 . S
C22 H31 0.929 . S
C23 N20 1.346 . S
C23 C22 1.369 . S
C23 H26 0.928 . S
C24 N20 1.345 . S
C24 C25 1.371 . S
C24 H27 0.931 1_655 S
C25 C21 1.391 . S
C25 C24 1.371 . S
C25 H32 0.930 . S
H26 C23 0.928 . S
H27 C24 0.931 1_455 S
H28 C4 0.930 1_655 S
H29 C1 0.930 . S
H30 C10 0.930 1_565 S
H31 C22 0.929 . S
H32 C25 0.930 . S
C33 C34 1.351 . S
C33 N36 1.368 . S
C33 H38 0.931 . S
C34 C33 1.351 . S
C34 N35 1.373 1_565 S
C34 H62 0.930 . S
N35 C34 1.373 1_545 S
N35 C37 1.340 . S
N36 C33 1.368 . S
N36 C37 1.321 1_565 S
N36 Co39 2.135 1_565 S
C37 N35 1.340 . S
C37 N36 1.321 1_545 S
C37 H61 0.930 1_655 S
H38 C33 0.931 . S
Co39 N36 2.135 1_545 S
Co39 N42 2.121 1_655 S
Co39 O47 2.055 1_545 S
Co39 O50 2.039 1_655 S
Co39 N53 2.140 1_645 S
C40 O41 1.227 . S
C40 O50 1.265 . S
O41 C40 1.227 . S
N42 Co39 2.121 1_455 S
N42 C44 1.375 . S
N42 C45 1.313 1_445 S
C43 C44 1.338 1_554 S
C43 N46 1.377 1_455 S
C43 H63 0.930 . S
C44 N42 1.375 . S
C44 C43 1.338 1_556 S
C44 H48 0.931 . S
C45 N42 1.313 1_665 S
C45 N46 1.344 1_566 S
C45 H49 0.930 . S
N46 C43 1.377 1_655 S
N46 C45 1.344 1_544 S
O47 Co39 2.055 1_565 S
O47 C51 1.253 . S
H48 C44 0.931 . S
H49 C45 0.930 . S
O50 Co39 2.039 1_455 S
O50 C40 1.265 . S
C51 O47 1.253 . S
C51 O52 1.227 . S
O52 C51 1.227 . S
N53 Co39 2.140 1_465 S
N53 C56 1.346 . S
N53 C57 1.345 . S
C54 C55 1.387 . S
C54 C58 1.391 . S
C55 C54 1.387 . S
C55 C56 1.369 . S
C55 H64 0.929 . S
C56 N53 1.346 . S
C56 C55 1.369 . S
C56 H59 0.928 1_565 S
C57 N53 1.345 . S
C57 C58 1.371 . S
C57 H60 0.931 . S
C58 C54 1.391 . S
C58 C57 1.371 . S
C58 H65 0.930 . S
H59 C56 0.928 1_545 S
H60 C57 0.931 . S
H61 C37 0.930 1_455 S
H62 C34 0.930 . S
H63 C43 0.930 . S
H64 C55 0.929 . S
H65 C58 0.930 . S
C66 C67 1.351 . S
C66 N69 1.368 . S
C66 H71 0.931 . S
C67 C66 1.351 . S
C67 N68 1.373 . S
C67 H95 0.930 . S
N68 C67 1.373 . S
N68 C70 1.340 . S
N69 C66 1.368 . S
N69 C70 1.321 . S
N69 Co72 2.135 . S
C70 N68 1.340 . S
C70 N69 1.321 . S
C70 H94 0.930 . S
H71 C66 0.931 . S
Co72 N69 2.135 . S
Co72 N75 2.121 . S
Co72 O80 2.055 . S
Co72 O83 2.039 . S
Co72 N86 2.140 . S
C73 O74 1.227 . S
C73 O83 1.265 . S
O74 C73 1.227 . S
N75 Co72 2.121 . S
N75 C77 1.375 . S
N75 C78 1.313 . S
C76 C77 1.338 . S
C76 N79 1.377 . S
C76 H96 0.930 . S
C77 N75 1.375 . S
C77 C76 1.338 . S
C77 H81 0.931 . S
C78 N75 1.313 . S
C78 N79 1.344 . S
C78 H82 0.930 . S
N79 C76 1.377 . S
N79 C78 1.344 . S
O80 Co72 2.055 . S
O80 C84 1.253 . S
H81 C77 0.931 . S
H82 C78 0.930 . S
O83 Co72 2.039 . S
O83 C73 1.265 . S
C84 O80 1.253 . S
C84 O85 1.227 . S
O85 C84 1.227 . S
N86 Co72 2.140 . S
N86 C89 1.346 . S
N86 C90 1.345 . S
C87 C88 1.387 . S
C87 C91 1.391 . S
C88 C87 1.387 . S
C88 C89 1.369 . S
C88 H97 0.929 . S
C89 N86 1.346 . S
C89 C88 1.369 . S
C89 H92 0.928 . S
C90 N86 1.345 . S
C90 C91 1.371 . S
C90 H93 0.931 . S
C91 C87 1.391 . S
C91 C90 1.371 . S
C91 H98 0.930 . S
H92 C89 0.928 . S
H93 C90 0.931 . S
H94 C70 0.930 . S
H95 C67 0.930 . S
H96 C76 0.930 . S
H97 C88 0.929 . S
H98 C91 0.930 . S
C99 C100 1.351 . S
C99 N102 1.368 1_556 S
C99 H104 0.931 . S
C100 C99 1.351 . S
C100 N101 1.373 . S
C100 H128 0.930 . S
N101 C100 1.373 . S
N101 C103 1.340 . S
N102 C99 1.368 1_554 S
N102 C103 1.321 1_554 S
N102 Co105 2.135 . S
C103 N101 1.340 . S
C103 N102 1.321 1_556 S
C103 H127 0.930 . S
H104 C99 0.931 . S
Co105 N102 2.135 . S
Co105 N108 2.121 . S
Co105 O113 2.055 . S
Co105 O116 2.039 . S
Co105 N119 2.140 . S
C106 O107 1.227 . S
C106 O116 1.265 . S
O107 C106 1.227 . S
N108 Co105 2.121 . S
N108 C110 1.375 . S
N108 C111 1.313 . S
C109 C110 1.338 . S
C109 N112 1.377 . S
C109 H129 0.930 . S
C110 N108 1.375 . S
C110 C109 1.338 . S
C110 H114 0.931 . S
C111 N108 1.313 . S
C111 N112 1.344 . S
C111 H115 0.930 . S
N112 C109 1.377 . S
N112 C111 1.344 . S
O113 Co105 2.055 . S
O113 C117 1.253 . S
H114 C110 0.931 . S
H115 C111 0.930 . S
O116 Co105 2.039 . S
O116 C106 1.265 . S
C117 O113 1.253 . S
C117 O118 1.227 . S
O118 C117 1.227 . S
N119 Co105 2.140 . S
N119 C122 1.346 . S
N119 C123 1.345 . S
C120 C121 1.387 . S
C120 C124 1.391 . S
C121 C120 1.387 . S
C121 C122 1.369 . S
C121 H130 0.929 . S
C122 N119 1.346 . S
C122 C121 1.369 . S
C122 H125 0.928 . S
C123 N119 1.345 . S
C123 C124 1.371 . S
C123 H126 0.931 . S
C124 C120 1.391 . S
C124 C123 1.371 . S
C124 H131 0.930 . S
H125 C122 0.928 . S
H126 C123 0.931 . S
H127 C103 0.930 . S
H128 C100 0.930 . S
H129 C109 0.930 . S
H130 C121 0.929 . S
H131 C124 0.930 . S
C132 C133 1.351 . S
C132 N135 1.368 1_554 S
C132 H137 0.931 . S
C133 C132 1.351 . S
C133 N134 1.373 . S
C133 H161 0.930 . S
N134 C133 1.373 . S
N134 C136 1.340 . S
N135 C132 1.368 1_556 S
N135 C136 1.321 1_556 S
N135 Co138 2.135 . S
C136 N134 1.340 . S
C136 N135 1.321 1_554 S
C136 H160 0.930 . S
H137 C132 0.931 . S
Co138 N135 2.135 . S
Co138 N141 2.121 . S
Co138 O146 2.055 . S
Co138 O149 2.039 . S
Co138 N152 2.140 . S
C139 O140 1.227 . S
C139 O149 1.265 . S
O140 C139 1.227 . S
N141 Co138 2.121 . S
N141 C143 1.375 . S
N141 C144 1.313 . S
C142 C143 1.338 . S
C142 N145 1.377 . S
C142 H162 0.930 . S
C143 N141 1.375 . S
C143 C142 1.338 . S
C143 H147 0.931 . S
C144 N141 1.313 . S
C144 N145 1.344 . S
C144 H148 0.930 . S
N145 C142 1.377 . S
N145 C144 1.344 . S
O146 Co138 2.055 . S
O146 C150 1.253 . S
H147 C143 0.931 . S
H148 C144 0.930 . S
O149 Co138 2.039 . S
O149 C139 1.265 . S
C150 O146 1.253 . S
C150 O151 1.227 . S
O151 C150 1.227 . S
N152 Co138 2.140 . S
N152 C155 1.346 . S
N152 C156 1.345 . S
C153 C154 1.387 . S
C153 C157 1.391 . S
C154 C153 1.387 . S
C154 C155 1.369 . S
C154 H163 0.929 . S
C155 N152 1.346 . S
C155 C154 1.369 . S
C155 H158 0.928 . S
C156 N152 1.345 . S
C156 C157 1.371 . S
C156 H159 0.931 . S
C157 C153 1.391 . S
C157 C156 1.371 . S
C157 H164 0.930 . S
H158 C155 0.928 . S
H159 C156 0.931 . S
H160 C136 0.930 . S
H161 C133 0.930 . S
H162 C142 0.930 . S
H163 C154 0.929 . S
H164 C157 0.930 . S
C165 C166 1.351 . S
C165 N168 1.368 . S
C165 H170 0.931 . S
C166 C165 1.351 . S
C166 N167 1.373 . S
C166 H194 0.930 . S
N167 C166 1.373 . S
N167 C169 1.340 . S
N168 C165 1.368 . S
N168 C169 1.321 . S
N168 Co171 2.135 . S
C169 N167 1.340 . S
C169 N168 1.321 . S
C169 H193 0.930 . S
H170 C165 0.931 . S
Co171 N168 2.135 . S
Co171 N174 2.121 . S
Co171 O179 2.055 . S
Co171 O182 2.039 . S
Co171 N185 2.140 . S
C172 O173 1.227 . S
C172 O182 1.265 . S
O173 C172 1.227 . S
N174 Co171 2.121 . S
N174 C176 1.375 . S
N174 C177 1.313 . S
C175 C176 1.338 . S
C175 N178 1.377 . S
C175 H195 0.930 . S
C176 N174 1.375 . S
C176 C175 1.338 . S
C176 H180 0.931 . S
C177 N174 1.313 . S
C177 N178 1.344 . S
C177 H181 0.930 . S
N178 C175 1.377 . S
N178 C177 1.344 . S
O179 Co171 2.055 . S
O179 C183 1.253 . S
H180 C176 0.931 . S
H181 C177 0.930 . S
O182 Co171 2.039 . S
O182 C172 1.265 . S
C183 O179 1.253 . S
C183 O184 1.227 . S
O184 C183 1.227 . S
N185 Co171 2.140 . S
N185 C188 1.346 . S
N185 C189 1.345 . S
C186 C187 1.387 . S
C186 C190 1.391 . S
C187 C186 1.387 . S
C187 C188 1.369 . S
C187 H196 0.929 . S
C188 N185 1.346 . S
C188 C187 1.369 . S
C188 H191 0.928 . S
C189 N185 1.345 . S
C189 C190 1.371 . S
C189 H192 0.931 . S
C190 C186 1.391 . S
C190 C189 1.371 . S
C190 H197 0.930 . S
H191 C188 0.928 . S
H192 C189 0.931 . S
H193 C169 0.930 . S
H194 C166 0.930 . S
H195 C175 0.930 . S
H196 C187 0.929 . S
H197 C190 0.930 . S
C18 C117 2.387 . S
C7 C120 2.279 . S
C106 C21 2.278 . S
C40 C153 2.277 . S
C150 C51 2.387 . S
C54 C139 2.280 . S
C84 C183 2.387 1_655 S
C73 C186 2.279 . S
C172 C87 2.278 1_565 S
N35 N2 2.656 1_655 S
N101 N68 2.656 . S
N167 N134 2.656 . S
N13 N46 0.911 1_456 S
N112 N79 0.911 . S
N178 N145 0.912 . S
