# Generated by pormake.
# Topology sma, (6)-cn, num edge types: 1
# Building blocks:
#     Node 0, Type 0, BuildingBlock: VOLQOD_clean_sbu_1, # of connection points: 6
#     Node 1, Type 0, BuildingBlock: VOLQOD_clean_sbu_1, # of connection points: 6
#     Node 2, Type 0, BuildingBlock: VOLQOD_clean_sbu_1, # of connection points: 6
#     Edge 3, Type (0, 0), BuildingBlock: EZIPEK_clean_linker_0, # of connection points: 2
#     Edge 4, Type (0, 0), BuildingBlock: EZIPEK_clean_linker_0, # of connection points: 2
#     Edge 5, Type (0, 0), BuildingBlock: EZIPEK_clean_linker_0, # of connection points: 2
#     Edge 6, Type (0, 0), BuildingBlock: EZIPEK_clean_linker_0, # of connection points: 2
#     Edge 7, Type (0, 0), BuildingBlock: EZIPEK_clean_linker_0, # of connection points: 2
#     Edge 8, Type (0, 0), BuildingBlock: EZIPEK_clean_linker_0, # of connection points: 2
#     Edge 9, Type (0, 0), BuildingBlock: EZIPEK_clean_linker_0, # of connection points: 2
#     Edge 10, Type (0, 0), BuildingBlock: EZIPEK_clean_linker_0, # of connection points: 2
#     Edge 11, Type (0, 0), BuildingBlock: EZIPEK_clean_linker_0, # of connection points: 2
# Relax obj value: 0.284
# Max RMSD: 0.234
# Mean RMSD: 0.234
data_MOF--net-sma--node1-VOLQOD_clean_sbu_1--edge1-EZIPEK_clean_linker_0
_symmetry_space_group_name_H-M    P1
_symmetry_Int_Tables_number       1
_symmetry_cell_setting            triclinic
loop_
_symmetry_equiv_pos_as_xyz
'x, y, z'
_cell_length_a     23.510484
_cell_length_b     23.932334
_cell_length_c     12.898809
_cell_angle_alpha  89.734692
_cell_angle_beta   90.017075
_cell_angle_gamma 120.96394
loop_
_atom_site_label
_atom_site_type_symbol
_atom_site_fract_x
_atom_site_fract_y
_atom_site_fract_z
_atom_type_partial_charge
O0 O 0.04791 0.56917 0.90176 0.0
Zn1 Zn 0.02963 0.58682 0.04839 0.0
O2 O 0.00329 0.50925 0.12424 0.0
Zn3 Zn 0.0764 0.51958 0.2037 0.0
Zn4 Zn 0.97505 0.43741 0.03408 0.0
Zn5 Zn 0.93207 0.49491 0.21108 0.0
O6 O 0.04559 0.497 0.35274 0.0
O7 O 0.96799 0.52484 0.35373 0.0
O8 O 0.10083 0.66362 0.13417 0.0
O9 O 0.14597 0.61331 0.21144 0.0
O10 O 0.12166 0.47616 0.13588 0.0
O11 O 0.0508 0.42407 0.0081 0.0
O12 O 0.89906 0.35477 0.10099 0.0
O13 O 0.95255 0.59923 0.02976 0.0
O14 O 0.87251 0.39963 0.22877 0.0
O15 O 0.88057 0.53382 0.14689 0.0
C16 C 0.00649 0.51898 0.84948 0.0
C17 C 0.00801 0.51239 0.40114 0.0
C18 C 0.1056 0.44243 0.05323 0.0
C19 C 0.14444 0.66482 0.19487 0.0
C20 C 0.86547 0.3499 0.18202 0.0
C21 C 0.89644 0.57545 0.07362 0.0
O22 O 0.96194 0.46646 0.89384 0.0
O23 O 0.48804 0.04766 0.26708 0.0
Zn24 Zn 0.45398 0.02803 0.4125 0.0
O25 O 0.51244 0.01213 0.49103 0.0
Zn26 Zn 0.56927 0.08714 0.57173 0.0
Zn27 Zn 0.56615 -0.00635 0.40425 0.0
Zn28 Zn 0.45621 0.93877 0.57644 0.0
O29 O 0.55743 0.05789 0.72343 0.0
O30 O 0.45619 0.968 0.71919 0.0
O31 O 0.43892 0.09419 0.49293 0.0
O32 O 0.53811 0.15035 0.5648 0.0
O33 O 0.66212 0.13903 0.51061 0.0
O34 O 0.65441 0.0734 0.38348 0.0
O35 O 0.57366 0.9182 0.4634 0.0
O36 O 0.37077 0.94384 0.38472 0.0
O37 O 0.49694 0.88405 0.58797 0.0
O38 O 0.36425 0.88202 0.51654 0.0
C39 C 0.50775 0.01502 0.21583 0.0
C40 C 0.50513 0.01286 0.76866 0.0
C41 C 0.68545 0.12785 0.42927 0.0
C42 C 0.4812 0.14209 0.54819 0.0
C43 C 0.5421 0.88057 0.53969 0.0
C44 C 0.34117 0.88946 0.43171 0.0
O45 O 0.53017 0.98279 0.26157 0.0
O46 O 0.45087 0.48723 0.56956 0.0
Zn47 Zn 0.42609 0.44897 0.71133 0.0
O48 O 0.49897 0.50361 0.80045 0.0
Zn49 Zn 0.47554 0.5556 0.88068 0.0
Zn50 Zn 0.5763 0.5597 0.72009 0.0
Zn51 Zn 0.51744 0.45029 0.88654 0.0
O52 O 0.50159 0.5557 0.0278 0.0
O53 O 0.49394 0.45865 0.03289 0.0
O54 O 0.33872 0.43539 0.7673 0.0
O55 O 0.37763 0.51144 0.88951 0.0
O56 O 0.51006 0.64404 0.81242 0.0
O57 O 0.58205 0.64527 0.69915 0.0
O58 O 0.65986 0.57373 0.79439 0.0
O59 O 0.41674 0.36161 0.69669 0.0
O60 O 0.61485 0.48657 0.89712 0.0
O61 O 0.47543 0.35912 0.828 0.0
C62 C 0.50635 0.50641 0.5246 0.0
C63 C 0.49879 0.50834 0.0783 0.0
C64 C 0.55204 0.67147 0.7391 0.0
C65 C 0.32959 0.46468 0.84197 0.0
C66 C 0.66541 0.53813 0.86307 0.0
C67 C 0.43758 0.33124 0.75043 0.0
O68 O 0.55983 0.52384 0.57492 0.0
C69 C 0.18324 0.47998 0.90218 0.0
C70 C 0.15787 0.44021 -0.00734 0.0
C71 C 0.23795 0.40471 0.97047 0.0
C72 C 0.26228 0.44392 0.87961 0.0
N73 N 0.24782 0.50451 0.74403 0.0
N74 N 0.15203 0.35616 0.10311 0.0
C75 C 0.23097 0.47634 0.84018 0.0
C76 C 0.18235 0.39966 0.02373 0.0
N77 N 0.16539 0.52478 0.87957 0.0
N78 N 0.26962 0.37424 0.00729 0.0
H79 H 0.11184 0.35234 0.14395 0.0
H80 H 0.16342 0.32096 0.12383 0.0
H81 H 0.308 0.37422 0.96664 0.0
H82 H 0.25976 0.35119 0.07924 0.0
H83 H 0.18712 0.55942 0.82068 0.0
H84 H 0.13332 0.53175 0.9259 0.0
H85 H 0.22224 0.52355 0.70637 0.0
H86 H 0.2833 0.50284 0.69767 0.0
C87 C 0.70839 0.21445 0.2998 0.0
C88 C 0.73346 0.18387 0.36507 0.0
C89 C 0.84557 0.25675 0.29733 0.0
C90 C 0.81992 0.28587 0.23026 0.0
N91 N 0.72671 0.28429 0.15099 0.0
N92 N 0.82244 0.1674 0.41437 0.0
C93 C 0.75114 0.26206 0.22651 0.0
C94 C 0.80108 0.20227 0.36 0.0
N95 N 0.64389 0.19898 0.30938 0.0
N96 N 0.91262 0.28307 0.30442 0.0
H97 H 0.79134 0.12889 0.46364 0.0
H98 H 0.86948 0.17381 0.40588 0.0
H99 H 0.94643 0.32145 0.25731 0.0
H100 H 0.93505 0.26942 0.36052 0.0
H101 H 0.62535 0.22559 0.27425 0.0
H102 H 0.60948 0.16233 0.35827 0.0
H103 H 0.67632 0.26427 0.13662 0.0
H104 H 0.75716 0.31891 0.09582 0.0
C105 C 0.59429 0.84378 0.67097 0.0
C106 C 0.55783 0.8317 0.57752 0.0
C107 C 0.51924 0.71556 0.5899 0.0
C108 C 0.55566 0.7274 0.68354 0.0
N109 N 0.63637 0.80243 0.80469 0.0
N110 N 0.49793 0.76069 0.43586 0.0
C111 C 0.59599 0.79158 0.72147 0.0
C112 C 0.52459 0.76898 0.5328 0.0
N113 N 0.62568 0.90494 0.71247 0.0
N114 N 0.47686 0.6529 0.55845 0.0
H115 H 0.5005 0.79903 0.39305 0.0
H116 H 0.47868 0.71761 0.39406 0.0
H117 H 0.4711 0.61227 0.59821 0.0
H118 H 0.44364 0.64056 0.49735 0.0
H119 H 0.64653 0.91596 0.78617 0.0
H120 H 0.62854 0.94481 0.67407 0.0
H121 H 0.67172 0.84856 0.83084 0.0
H122 H 0.63748 0.76483 0.84413 0.0
C123 C 0.72971 0.56235 0.0295 0.0
C124 C 0.72931 0.5614 0.91882 0.0
C125 C 0.849 0.60636 0.92187 0.0
C126 C 0.84517 0.58831 0.02808 0.0
N127 N 0.78587 0.56605 0.18958 0.0
N128 N 0.79035 0.58019 0.75899 0.0
C129 C 0.78652 0.57141 0.08408 0.0
C130 C 0.78956 0.58338 0.86459 0.0
N131 N 0.67709 0.55794 0.08209 0.0
N132 N 0.90858 0.6491 0.8773 0.0
H133 H 0.74774 0.56212 0.71381 0.0
H134 H 0.83262 0.58994 0.71759 0.0
H135 H 0.95188 0.67522 0.92051 0.0
H136 H 0.91274 0.66657 0.8018 0.0
H137 H 0.6759 0.5629 0.16201 0.0
H138 H 0.63692 0.55599 0.04461 0.0
H139 H 0.74273 0.54407 0.2341 0.0
H140 H 0.82938 0.58424 0.23269 0.0
C141 C 0.27451 0.76835 0.39402 0.0
C142 C 0.28559 0.83192 0.37775 0.0
C143 C 0.20891 0.78858 0.22984 0.0
C144 C 0.1901 0.72373 0.25863 0.0
N145 N 0.18685 0.6574 0.40571 0.0
N146 N 0.24381 0.89558 0.2973 0.0
C147 C 0.21689 0.71505 0.35252 0.0
C148 C 0.24664 0.84008 0.30109 0.0
N149 N 0.31977 0.75752 0.44213 0.0
N150 N 0.1944 0.80254 0.13425 0.0
H151 H 0.26546 0.93175 0.35356 0.0
H152 H 0.21253 0.90117 0.2465 0.0
H153 H 0.17282 0.7683 0.07545 0.0
H154 H 0.2119 0.85023 0.10943 0.0
H155 H 0.31241 0.71077 0.44946 0.0
H156 H 0.36803 0.79418 0.45923 0.0
H157 H 0.20488 0.65201 0.47673 0.0
H158 H 0.13949 0.61924 0.38834 0.0
C159 C 0.45944 0.23958 0.7648 0.0
C160 C 0.42868 0.26815 0.71099 0.0
C161 C 0.4236 0.20754 0.55422 0.0
C162 C 0.46275 0.18558 0.60415 0.0
N163 N 0.52734 0.19232 0.75818 0.0
N164 N 0.35114 0.25097 0.5751 0.0
C165 C 0.48323 0.20466 0.70962 0.0
C166 C 0.40156 0.2438 0.61151 0.0
N167 N 0.46094 0.24119 0.87075 0.0
N168 N 0.41233 0.19915 0.44989 0.0
H169 H 0.3281 0.2694 0.62102 0.0
H170 H 0.32564 0.22982 0.50673 0.0
H171 H 0.43171 0.17766 0.40281 0.0
H172 H 0.39054 0.22048 0.40776 0.0
H173 H 0.4795 0.21809 0.9161 0.0
H174 H 0.43514 0.25808 0.91349 0.0
H175 H 0.55298 0.21716 0.82467 0.0
H176 H 0.53932 0.15822 0.73516 0.0
C177 C 0.01302 0.57134 0.67611 0.0
C178 C 0.01129 0.52006 0.73462 0.0
C179 C 0.00202 0.46162 0.57416 0.0
C180 C 0.01049 0.51566 0.51565 0.0
N181 N 0.03893 0.62819 0.51153 0.0
N182 N 0.02266 0.42517 0.73665 0.0
C183 C 0.02045 0.57247 0.56673 0.0
C184 C 0.01129 0.46776 0.68288 0.0
N185 N 0.00425 0.61723 0.72378 0.0
N186 N 0.98192 0.40328 0.52709 0.0
H187 H 0.03254 0.42941 0.81574 0.0
H188 H 0.02977 0.39031 0.70067 0.0
H189 H 0.9717 0.39557 0.44806 0.0
H190 H 0.9685 0.36068 0.56836 0.0
H191 H -0.00221 0.6513 0.68315 0.0
H192 H -0.00308 0.61751 0.80331 0.0
H193 H 0.05388 0.67282 0.54649 0.0
H194 H 0.0458 0.63164 0.4314 0.0
C195 C 0.49718 0.95781 0.04634 0.0
C196 C 0.50291 0.0124 0.10066 0.0
C197 C 0.48753 0.05281 0.93607 0.0
C198 C 0.50143 0.01025 0.88228 0.0
N199 N 0.52261 0.92174 0.88745 0.0
N200 N 0.51894 0.12142 0.08491 0.0
C201 C 0.50785 0.96278 0.93778 0.0
C202 C 0.50224 0.06279 0.04251 0.0
N203 N 0.47601 0.89961 0.09541 0.0
N204 N 0.45619 0.0802 0.88805 0.0
H205 H 0.5395 0.13594 0.15833 0.0
H206 H 0.52109 0.15904 0.0405 0.0
H207 H 0.43986 0.06928 0.81146 0.0
H208 H 0.4393 0.10636 0.92903 0.0
H209 H 0.46741 0.85798 0.05615 0.0
H210 H 0.45719 0.88992 0.17072 0.0
H211 H 0.53358 0.89025 0.92676 0.0
H212 H 0.52864 0.92282 0.80722 0.0
C213 C 0.46516 0.44947 0.35636 0.0
C214 C 0.5076 0.50758 0.4107 0.0
C215 C 0.54796 0.56697 0.24685 0.0
C216 C 0.50025 0.51009 0.19296 0.0
N217 N 0.40074 0.40334 0.2014 0.0
N218 N 0.57928 0.62465 0.40988 0.0
C219 C 0.4552 0.45296 0.24908 0.0
C220 C 0.54624 0.56728 0.35672 0.0
N221 N 0.4356 0.39065 0.40658 0.0
N222 N 0.59665 0.61982 0.19444 0.0
H223 H 0.57972 0.62715 0.4905 0.0
H224 H 0.60126 0.67016 0.37383 0.0
H225 H 0.60125 0.62272 0.11414 0.0
H226 H 0.63678 0.65881 0.23137 0.0
H227 H 0.4093 0.34627 0.36803 0.0
H228 H 0.44323 0.38594 0.48501 0.0
H229 H 0.36332 0.36341 0.24156 0.0
H230 H 0.38878 0.4057 0.12433 0.0
loop_
_geom_bond_atom_site_label_1
_geom_bond_atom_site_label_2
_geom_bond_distance
_geom_bond_site_symmetry_2
_ccdc_geom_bond_type
O0 Zn1 1.953 1_556 S
O0 C16 1.225 . S
Zn1 O0 1.953 1_554 S
Zn1 O2 1.949 . S
Zn1 O8 1.919 . S
Zn1 O13 1.924 1_455 S
O2 Zn1 1.949 . S
O2 Zn3 1.923 . S
O2 Zn4 1.945 . S
O2 Zn5 1.945 1_455 S
Zn3 O2 1.923 . S
Zn3 O6 1.933 . S
Zn3 O9 1.941 . S
Zn3 O10 1.965 . S
Zn4 O2 1.945 . S
Zn4 O11 1.957 . S
Zn4 O12 1.899 1_455 S
Zn4 O22 1.951 1_454 S
Zn5 O2 1.945 1_655 S
Zn5 O7 1.932 . S
Zn5 O14 1.977 . S
Zn5 O15 1.910 . S
O6 Zn3 1.933 . S
O6 C17 1.226 . S
O7 Zn5 1.932 . S
O7 C17 1.307 1_655 S
O8 Zn1 1.919 . S
O8 C19 1.253 . S
O9 Zn3 1.941 . S
O9 C19 1.283 . S
O10 Zn3 1.965 . S
O10 C18 1.303 . S
O11 Zn4 1.957 . S
O11 C18 1.247 . S
O12 Zn4 1.899 1_655 S
O12 C20 1.304 . S
O13 Zn1 1.924 1_655 S
O13 C21 1.311 . S
O14 Zn5 1.977 . S
O14 C20 1.272 . S
O15 Zn5 1.910 . S
O15 C21 1.231 . S
C16 O0 1.225 . S
C16 O22 1.298 1_455 S
C17 O6 1.226 . S
C17 O7 1.307 1_455 S
C18 O10 1.303 . S
C18 O11 1.247 . S
C19 O8 1.253 . S
C19 O9 1.283 . S
C20 O12 1.304 . S
C20 O14 1.272 . S
C21 O13 1.311 . S
C21 O15 1.231 . S
O22 Zn4 1.951 1_656 S
O22 C16 1.298 1_655 S
O23 Zn24 1.953 . S
O23 C39 1.225 . S
Zn24 O23 1.953 . S
Zn24 O25 1.949 . S
Zn24 O31 1.919 . S
Zn24 O36 1.924 1_545 S
O25 Zn24 1.949 . S
O25 Zn26 1.923 . S
O25 Zn27 1.950 . S
O25 Zn28 1.945 1_545 S
Zn26 O25 1.923 . S
Zn26 O29 1.933 . S
Zn26 O32 1.941 . S
Zn26 O33 1.965 . S
Zn27 O25 1.950 . S
Zn27 O34 1.938 . S
Zn27 O35 1.906 1_545 S
Zn27 O45 1.955 1_545 S
Zn28 O25 1.945 1_565 S
Zn28 O30 1.932 . S
Zn28 O37 1.977 . S
Zn28 O38 1.910 . S
O29 Zn26 1.933 . S
O29 C40 1.226 . S
O30 Zn28 1.932 . S
O30 C40 1.307 1_565 S
O31 Zn24 1.919 . S
O31 C42 1.253 . S
O32 Zn26 1.941 . S
O32 C42 1.283 . S
O33 Zn26 1.965 . S
O33 C41 1.303 . S
O34 Zn27 1.938 . S
O34 C41 1.247 . S
O35 Zn27 1.906 1_565 S
O35 C43 1.304 . S
O36 Zn24 1.924 1_565 S
O36 C44 1.311 . S
O37 Zn28 1.977 . S
O37 C43 1.272 . S
O38 Zn28 1.910 . S
O38 C44 1.231 . S
C39 O23 1.225 . S
C39 O45 1.285 1_545 S
C40 O29 1.226 . S
C40 O30 1.307 1_545 S
C41 O33 1.303 . S
C41 O34 1.247 . S
C42 O31 1.253 . S
C42 O32 1.283 . S
C43 O35 1.304 . S
C43 O37 1.272 . S
C44 O36 1.311 . S
C44 O38 1.231 . S
O45 Zn27 1.955 1_565 S
O45 C39 1.285 1_565 S
O46 Zn47 1.953 . S
O46 C62 1.225 . S
Zn47 O46 1.953 . S
Zn47 O48 1.949 . S
Zn47 O54 1.919 . S
Zn47 O59 1.924 . S
O48 Zn47 1.949 . S
O48 Zn49 1.923 . S
O48 Zn50 1.950 . S
O48 Zn51 1.945 . S
Zn49 O48 1.923 . S
Zn49 O52 1.933 1_556 S
Zn49 O55 1.941 . S
Zn49 O56 1.965 . S
Zn50 O48 1.950 . S
Zn50 O57 1.938 . S
Zn50 O58 1.906 . S
Zn50 O68 1.953 . S
Zn51 O48 1.945 . S
Zn51 O53 1.932 1_556 S
Zn51 O60 1.977 . S
Zn51 O61 1.910 . S
O52 Zn49 1.933 1_554 S
O52 C63 1.226 . S
O53 Zn51 1.932 1_554 S
O53 C63 1.307 . S
O54 Zn47 1.919 . S
O54 C65 1.253 . S
O55 Zn49 1.941 . S
O55 C65 1.283 . S
O56 Zn49 1.965 . S
O56 C64 1.303 . S
O57 Zn50 1.938 . S
O57 C64 1.247 . S
O58 Zn50 1.906 . S
O58 C66 1.304 . S
O59 Zn47 1.924 . S
O59 C67 1.311 . S
O60 Zn51 1.977 . S
O60 C66 1.272 . S
O61 Zn51 1.910 . S
O61 C67 1.231 . S
C62 O46 1.225 . S
C62 O68 1.298 . S
C63 O52 1.226 . S
C63 O53 1.307 . S
C64 O56 1.303 . S
C64 O57 1.247 . S
C65 O54 1.253 . S
C65 O55 1.283 . S
C66 O58 1.304 . S
C66 O60 1.272 . S
C67 O59 1.311 . S
C67 O61 1.231 . S
O68 Zn50 1.953 . S
O68 C62 1.298 . S
C69 C70 1.363 1_556 S
C69 C75 1.379 . S
C69 N77 1.356 1_556 S
C70 C69 1.363 1_554 S
C70 C76 1.363 . S
C71 C72 1.363 1_554 S
C71 C76 1.379 . S
C71 N78 1.356 1_554 S
C72 C71 1.363 1_556 S
C72 C75 1.363 . S
N73 C75 1.356 . S
N73 H85 0.984 . S
N73 H86 0.985 . S
N74 C76 1.356 . S
N74 H79 0.984 . S
N74 H80 0.985 . S
C75 C69 1.379 . S
C75 C72 1.363 . S
C75 N73 1.356 . S
C76 C70 1.363 . S
C76 C71 1.379 . S
C76 N74 1.356 . S
N77 C69 1.356 1_554 S
N77 H83 0.984 1_554 S
N77 H84 0.984 . S
N78 C71 1.356 1_556 S
N78 H81 0.984 . S
N78 H82 0.985 1_556 S
H79 N74 0.984 . S
H80 N74 0.985 . S
H81 N78 0.984 . S
H82 N78 0.985 1_554 S
H83 N77 0.984 1_556 S
H84 N77 0.984 . S
H85 N73 0.984 . S
H86 N73 0.985 . S
C87 C88 1.363 . S
C87 C93 1.379 . S
C87 N95 1.356 . S
C88 C87 1.363 . S
C88 C94 1.363 . S
C89 C90 1.363 . S
C89 C94 1.379 . S
C89 N96 1.356 . S
C90 C89 1.363 . S
C90 C93 1.363 . S
N91 C93 1.356 . S
N91 H103 0.984 . S
N91 H104 0.985 . S
N92 C94 1.356 . S
N92 H97 0.984 . S
N92 H98 0.985 . S
C93 C87 1.379 . S
C93 C90 1.363 . S
C93 N91 1.356 . S
C94 C88 1.363 . S
C94 C89 1.379 . S
C94 N92 1.356 . S
N95 C87 1.356 . S
N95 H101 0.984 . S
N95 H102 0.984 . S
N96 C89 1.356 . S
N96 H99 0.984 . S
N96 H100 0.985 . S
H97 N92 0.984 . S
H98 N92 0.985 . S
H99 N96 0.984 . S
H100 N96 0.985 . S
H101 N95 0.984 . S
H102 N95 0.984 . S
H103 N91 0.984 . S
H104 N91 0.985 . S
C105 C106 1.363 . S
C105 C111 1.379 . S
C105 N113 1.356 . S
C106 C105 1.363 . S
C106 C112 1.363 . S
C107 C108 1.363 . S
C107 C112 1.379 . S
C107 N114 1.356 . S
C108 C107 1.363 . S
C108 C111 1.363 . S
N109 C111 1.356 . S
N109 H121 0.984 . S
N109 H122 0.985 . S
N110 C112 1.356 . S
N110 H115 0.984 . S
N110 H116 0.985 . S
C111 C105 1.379 . S
C111 C108 1.363 . S
C111 N109 1.356 . S
C112 C106 1.363 . S
C112 C107 1.379 . S
C112 N110 1.356 . S
N113 C105 1.356 . S
N113 H119 0.984 . S
N113 H120 0.984 . S
N114 C107 1.356 . S
N114 H117 0.984 . S
N114 H118 0.985 . S
H115 N110 0.984 . S
H116 N110 0.985 . S
H117 N114 0.984 . S
H118 N114 0.985 . S
H119 N113 0.984 . S
H120 N113 0.984 . S
H121 N109 0.984 . S
H122 N109 0.985 . S
C123 C124 1.363 1_554 S
C123 C129 1.379 . S
C123 N131 1.356 1_554 S
C124 C123 1.363 1_556 S
C124 C130 1.363 . S
C125 C126 1.363 1_556 S
C125 C130 1.379 . S
C125 N132 1.356 1_556 S
C126 C125 1.363 1_554 S
C126 C129 1.363 . S
N127 C129 1.356 . S
N127 H139 0.984 . S
N127 H140 0.985 . S
N128 C130 1.356 . S
N128 H133 0.984 . S
N128 H134 0.985 . S
C129 C123 1.379 . S
C129 C126 1.363 . S
C129 N127 1.356 . S
C130 C124 1.363 . S
C130 C125 1.379 . S
C130 N128 1.356 . S
N131 C123 1.356 1_556 S
N131 H137 0.984 1_556 S
N131 H138 0.984 . S
N132 C125 1.356 1_554 S
N132 H135 0.984 . S
N132 H136 0.985 1_554 S
H133 N128 0.984 . S
H134 N128 0.985 . S
H135 N132 0.984 . S
H136 N132 0.985 1_556 S
H137 N131 0.984 1_554 S
H138 N131 0.984 . S
H139 N127 0.984 . S
H140 N127 0.985 . S
C141 C142 1.363 . S
C141 C147 1.379 . S
C141 N149 1.356 . S
C142 C141 1.363 . S
C142 C148 1.363 . S
C143 C144 1.363 . S
C143 C148 1.379 . S
C143 N150 1.356 . S
C144 C143 1.363 . S
C144 C147 1.363 . S
N145 C147 1.356 . S
N145 H157 0.984 . S
N145 H158 0.985 . S
N146 C148 1.356 . S
N146 H151 0.984 . S
N146 H152 0.985 . S
C147 C141 1.379 . S
C147 C144 1.363 . S
C147 N145 1.356 . S
C148 C142 1.363 . S
C148 C143 1.379 . S
C148 N146 1.356 . S
N149 C141 1.356 . S
N149 H155 0.984 . S
N149 H156 0.984 . S
N150 C143 1.356 . S
N150 H153 0.984 . S
N150 H154 0.985 . S
H151 N146 0.984 . S
H152 N146 0.985 . S
H153 N150 0.984 . S
H154 N150 0.985 . S
H155 N149 0.984 . S
H156 N149 0.984 . S
H157 N145 0.984 . S
H158 N145 0.985 . S
C159 C160 1.363 . S
C159 C165 1.379 . S
C159 N167 1.356 . S
C160 C159 1.363 . S
C160 C166 1.363 . S
C161 C162 1.363 . S
C161 C166 1.379 . S
C161 N168 1.356 . S
C162 C161 1.363 . S
C162 C165 1.363 . S
N163 C165 1.356 . S
N163 H175 0.984 . S
N163 H176 0.985 . S
N164 C166 1.356 . S
N164 H169 0.984 . S
N164 H170 0.985 . S
C165 C159 1.379 . S
C165 C162 1.363 . S
C165 N163 1.356 . S
C166 C160 1.363 . S
C166 C161 1.379 . S
C166 N164 1.356 . S
N167 C159 1.356 . S
N167 H173 0.984 . S
N167 H174 0.984 . S
N168 C161 1.356 . S
N168 H171 0.984 . S
N168 H172 0.985 . S
H169 N164 0.984 . S
H170 N164 0.985 . S
H171 N168 0.984 . S
H172 N168 0.985 . S
H173 N167 0.984 . S
H174 N167 0.984 . S
H175 N163 0.984 . S
H176 N163 0.985 . S
C177 C178 1.363 . S
C177 C183 1.379 . S
C177 N185 1.356 . S
C178 C177 1.363 . S
C178 C184 1.363 . S
C179 C180 1.363 . S
C179 C184 1.379 . S
C179 N186 1.356 . S
C180 C179 1.363 . S
C180 C183 1.363 . S
N181 C183 1.356 . S
N181 H193 0.984 . S
N181 H194 0.985 . S
N182 C184 1.356 . S
N182 H187 0.984 . S
N182 H188 0.985 . S
C183 C177 1.379 . S
C183 C180 1.363 . S
C183 N181 1.356 . S
C184 C178 1.363 . S
C184 C179 1.379 . S
C184 N182 1.356 . S
N185 C177 1.356 . S
N185 H191 0.984 . S
N185 H192 0.984 . S
N186 C179 1.356 . S
N186 H189 0.984 . S
N186 H190 0.985 . S
H187 N182 0.984 . S
H188 N182 0.985 . S
H189 N186 0.984 . S
H190 N186 0.985 . S
H191 N185 0.984 . S
H192 N185 0.984 . S
H193 N181 0.984 . S
H194 N181 0.985 . S
C195 C196 1.363 1_565 S
C195 C201 1.379 1_554 S
C195 N203 1.356 . S
C196 C195 1.363 1_545 S
C196 C202 1.363 . S
C197 C198 1.363 . S
C197 C202 1.379 1_556 S
C197 N204 1.356 . S
C198 C197 1.363 . S
C198 C201 1.363 1_545 S
N199 C201 1.356 . S
N199 H211 0.984 . S
N199 H212 0.985 . S
N200 C202 1.356 . S
N200 H205 0.984 . S
N200 H206 0.985 . S
C201 C195 1.379 1_556 S
C201 C198 1.363 1_565 S
C201 N199 1.356 . S
C202 C196 1.363 . S
C202 C197 1.379 1_554 S
C202 N200 1.356 . S
N203 C195 1.356 . S
N203 H209 0.984 . S
N203 H210 0.984 . S
N204 C197 1.356 . S
N204 H207 0.984 . S
N204 H208 0.985 . S
H205 N200 0.984 . S
H206 N200 0.985 . S
H207 N204 0.984 . S
H208 N204 0.985 . S
H209 N203 0.984 . S
H210 N203 0.984 . S
H211 N199 0.984 . S
H212 N199 0.985 . S
C213 C214 1.363 . S
C213 C219 1.379 . S
C213 N221 1.356 . S
C214 C213 1.363 . S
C214 C220 1.363 . S
C215 C216 1.363 . S
C215 C220 1.379 . S
C215 N222 1.356 . S
C216 C215 1.363 . S
C216 C219 1.363 . S
N217 C219 1.356 . S
N217 H229 0.984 . S
N217 H230 0.985 . S
N218 C220 1.356 . S
N218 H223 0.984 . S
N218 H224 0.985 . S
C219 C213 1.379 . S
C219 C216 1.363 . S
C219 N217 1.356 . S
C220 C214 1.363 . S
C220 C215 1.379 . S
C220 N218 1.356 . S
N221 C213 1.356 . S
N221 H227 0.984 . S
N221 H228 0.984 . S
N222 C215 1.356 . S
N222 H225 0.984 . S
N222 H226 0.985 . S
H223 N218 0.984 . S
H224 N218 0.985 . S
H225 N222 0.984 . S
H226 N222 0.985 . S
H227 N221 0.984 . S
H228 N221 0.984 . S
H229 N217 0.984 . S
H230 N217 0.985 . S
C70 C18 1.523 . S
C72 C65 1.507 . S
C88 C41 1.515 . S
C90 C20 1.483 . S
C106 C43 1.461 . S
C108 C64 1.494 . S
C124 C66 1.444 . S
C126 C21 1.479 . S
C142 C44 1.485 . S
C144 C19 1.469 . S
C160 C67 1.507 . S
C162 C42 1.491 . S
C178 C16 1.090 . S
C180 C17 1.089 . S
C196 C39 1.089 . S
C198 C40 1.089 . S
C214 C62 1.089 . S
C216 C63 1.089 . S
