# Generated by pormake.
# Topology pcu, (6)-cn, num edge types: 1
# Building blocks:
#     Node 0, Type 0, BuildingBlock: KUMBOL_clean_sbu_1, # of connection points: 6
#     Edge 1, Type (0, 0), BuildingBlock: XIVTED_clean_linker_0, # of connection points: 2
#     Edge 2, Type (0, 0), BuildingBlock: XIVTED_clean_linker_0, # of connection points: 2
#     Edge 3, Type (0, 0), BuildingBlock: XIVTED_clean_linker_0, # of connection points: 2
# Relax obj value: 0.000
# Max RMSD: 0.000
# Mean RMSD: 0.000
data_MOF--net-pcu--node1-KUMBOL_clean_sbu_1--edge1-XIVTED_clean_linker_0
_symmetry_space_group_name_H-M    P1
_symmetry_Int_Tables_number       1
_symmetry_cell_setting            triclinic
loop_
_symmetry_equiv_pos_as_xyz
'x, y, z'
_cell_length_a     15.032926
_cell_length_b     24.522697
_cell_length_c     15.137956
_cell_angle_alpha  114.30861
_cell_angle_beta   88.96381
_cell_angle_gamma 115.69126
loop_
_atom_site_label
_atom_site_type_symbol
_atom_site_fract_x
_atom_site_fract_y
_atom_site_fract_z
_atom_type_partial_charge
C0 C 0.31521 0.20352 0.16282 0.0
C1 C 0.4075 0.22542 0.03793 0.0
C2 C 0.31543 0.19666 0.06692 0.0
C3 C 0.49862 0.25895 0.10521 0.0
C4 C 0.40647 0.23759 0.2308 0.0
C5 C 0.4981 0.26501 0.20132 0.0
N6 N 0.22557 0.17472 0.18854 0.0
C7 C 0.22136 0.17978 0.2815 0.0
C8 C 0.40286 0.24233 0.32608 0.0
C9 C 0.30985 0.21348 0.35159 0.0
Gd10 Gd 0.95518 0.91322 0.92301 0.0
Gd11 Gd 0.08128 0.11924 0.06668 0.0
N12 N 0.22591 0.16303 0.00278 0.0
C13 C 0.40529 0.22082 0.94273 0.0
C14 C 0.22361 0.16357 0.91304 0.0
C15 C 0.31287 0.19081 0.8807 0.0
H16 H 0.15379 0.14556 0.86711 0.0
H17 H 0.31026 0.18986 0.80865 0.0
H18 H 0.88265 0.88691 0.12258 0.0
H19 H 0.14959 0.15844 0.30182 0.0
H20 H 0.72617 0.84261 0.18102 0.0
H21 H 0.47431 0.24233 0.9177 0.0
H22 H 0.56995 0.28097 0.0839 0.0
H23 H 0.88689 0.87402 0.68786 0.0
H24 H 0.47133 0.26813 0.38042 0.0
H25 H 0.30628 0.21727 0.42524 0.0
H26 H 0.4665 0.75149 0.90575 0.0
H27 H 0.56901 0.29113 0.25239 0.0
H28 H 0.56515 0.76433 0.60923 0.0
H29 H 0.73021 0.81519 0.56443 0.0
N30 N 0.8109 0.85774 0.80113 0.0
C31 C 0.72125 0.82894 0.82685 0.0
C32 C 0.81512 0.85268 0.70817 0.0
C33 C 0.63362 0.79013 0.66358 0.0
C34 C 0.72663 0.81898 0.63808 0.0
C35 C 0.63 0.79486 0.75886 0.0
H36 H 0.46746 0.74133 0.73726 0.0
N37 N 0.81054 0.86942 0.98689 0.0
C38 C 0.72102 0.8358 0.92274 0.0
C39 C 0.63116 0.81164 0.04693 0.0
C40 C 0.62895 0.80704 0.95173 0.0
C41 C 0.81283 0.86889 0.07664 0.0
C42 C 0.72357 0.84166 0.10897 0.0
O43 O 0.17812 0.07027 0.07176 0.0
O44 O 0.1162 0.97726 0.92108 0.0
O45 O 0.98314 0.83906 0.94811 0.0
O46 O 0.95323 0.82725 0.79886 0.0
O47 O 1.01339 0.06676 0.90242 0.0
O48 O 0.03551 0.97099 0.83804 0.0
O49 O 0.85834 0.96219 0.91793 0.0
O50 O 0.92026 0.0552 0.0686 0.0
O51 O 0.05332 0.1934 0.04158 0.0
O52 O 0.08324 0.20521 0.19082 0.0
O53 O 0.02307 0.96569 0.08727 0.0
O54 O 1.00095 0.06147 0.15165 0.0
C55 C 0.18829 0.02198 -0.00128 0.0
C56 C 0.02053 0.01725 0.82752 0.0
C57 C 0.98363 0.74058 0.8091 0.0
C58 C 1.00389 0.6498 0.82149 0.0
C59 C 0.99909 0.65451 0.66432 0.0
C60 C 0.98739 0.71267 0.70815 0.0
C61 C 1.00726 0.62325 0.72026 0.0
C62 C 0.99168 0.70875 0.86566 0.0
C63 C 0.97323 0.80331 0.85361 0.0
C64 C 0.53783 0.77351 0.88445 0.0
C65 C 0.53836 0.76745 0.78833 0.0
H66 H 0.56213 0.79014 0.07196 0.0
C67 C 0.84817 1.01048 0.99097 0.0
C68 C 1.01593 1.0152 0.16216 0.0
C69 C 0.05284 0.29188 0.18059 0.0
C70 C 0.03258 0.38266 0.1682 0.0
C71 C 0.03739 0.37796 0.32537 0.0
C72 C 0.04909 0.31979 0.28154 0.0
C73 C 0.02921 0.40922 0.26944 0.0
C74 C 0.04479 0.32371 0.12403 0.0
C75 C 0.06324 0.22915 0.13608 0.0
H76 H 1.00166 0.63345 0.58646 0.0
H77 H 0.98179 0.73598 0.66275 0.0
H78 H 1.01473 0.5775 0.68366 0.0
H79 H 0.98959 0.73011 0.94369 0.0
H80 H 0.03482 0.39901 0.40323 0.0
H81 H 0.05469 0.29648 0.32694 0.0
H82 H 0.02175 0.45496 0.30604 0.0
H83 H 0.04687 0.30236 0.046 0.0
H84 H 0.955 0.08618 0.32069 0.0
H85 H 0.08147 0.94629 0.669 0.0
H86 H 0.07917 0.94674 0.22861 0.0
H87 H 0.95728 0.08572 0.76107 0.0
H88 H 0.0806 0.94555 0.50741 0.0
H89 H 0.95587 0.08692 0.48228 0.0
C90 C 0.98275 0.05579 0.33446 0.0
C91 C 1.01714 0.01631 0.26079 0.0
C92 C 0.05349 0.97631 0.56284 0.0
C93 C 1.0178 0.01672 0.4461 0.0
C94 C 0.05371 0.97667 0.65523 0.0
C95 C 0.01932 0.01615 0.7289 0.0
C96 C 0.01866 1.01574 0.54358 0.0
C97 C 0.98477 0.0547 0.70669 0.0
C98 C 0.98298 0.05615 0.42685 0.0
C99 C 0.05168 0.97775 0.283 0.0
N100 N 0.98537 0.05355 0.61607 0.0
N101 N 0.05108 0.97891 0.37361 0.0
H102 H 0.34843 0.09305 0.15364 0.0
H103 H 0.68803 0.93941 0.83605 0.0
H104 H 0.25028 0.94764 0.84561 0.0
H105 H 0.78617 0.08481 0.14408 0.0
H106 H 0.52665 0.94104 0.83825 0.0
H107 H 0.50981 0.09142 0.15144 0.0
C108 C 0.36108 0.06129 0.08533 0.0
C109 C 0.28612 0.02118 -0.00058 0.0
C110 C 0.58342 0.9725 0.90543 0.0
C111 C 0.46995 0.01776 -0.00322 0.0
C112 C 0.67537 0.97117 0.90436 0.0
C113 C 0.75034 1.01128 0.99027 0.0
C114 C 0.56651 1.01469 0.99291 0.0
C115 C 0.73057 0.05287 0.07606 0.0
C116 C 0.45303 0.05995 0.08426 0.0
C117 C 0.30589 0.97958 0.91363 0.0
N118 N 0.64065 0.05345 0.07518 0.0
N119 N 0.39581 0.979 0.91451 0.0
H120 H 0.89345 0.62296 0.95884 0.0
H121 H 0.14302 0.4095 0.03085 0.0
H122 H 0.13118 0.59554 0.81399 0.0
H123 H 0.9053 0.43692 0.17571 0.0
H124 H 0.13795 0.47591 0.94841 0.0
H125 H 0.89851 0.55655 0.04128 0.0
C126 C 0.94744 0.60363 0.94518 0.0
C127 C 1.01151 0.61457 0.87887 0.0
C128 C 0.08672 0.46727 -0.00191 0.0
C129 C 1.01682 0.53756 0.97188 0.0
C130 C 0.08903 0.42883 0.04451 0.0
C131 C 0.02496 0.41789 0.11082 0.0
C132 C 0.01965 0.4949 0.01781 0.0
C133 C 0.95729 0.44495 0.12646 0.0
C134 C 0.94975 0.56519 0.9916 0.0
C135 C 0.07919 0.58751 0.86324 0.0
N136 N 0.95662 0.48225 0.08065 0.0
N137 N 0.07985 0.55022 0.90905 0.0
loop_
_geom_bond_atom_site_label_1
_geom_bond_atom_site_label_2
_geom_bond_distance
_geom_bond_site_symmetry_2
_ccdc_geom_bond_type
C0 C2 1.422 . S
C0 C4 1.415 . S
C0 N6 1.369 . S
C1 C2 1.421 . S
C1 C3 1.417 . S
C1 C13 1.422 . S
C2 C0 1.422 . S
C2 C1 1.421 . S
C2 N12 1.359 . S
C3 C1 1.417 . S
C3 C5 1.329 . S
C3 H22 0.930 . S
C4 C0 1.415 . S
C4 C5 1.437 . S
C4 C8 1.413 . S
C5 C3 1.329 . S
C5 C4 1.437 . S
C5 H27 0.929 . S
N6 C0 1.369 . S
N6 C7 1.338 . S
N6 Gd11 2.622 . S
C7 N6 1.338 . S
C7 C9 1.378 . S
C7 H19 0.929 . S
C8 C4 1.413 . S
C8 C9 1.348 . S
C8 H24 0.931 . S
C9 C7 1.378 . S
C9 C8 1.348 . S
C9 H25 0.930 . S
Gd10 N30 2.622 . S
Gd10 N37 2.570 . S
Gd10 O44 2.353 1_655 S
Gd10 O45 2.468 . S
Gd10 O46 2.427 . S
Gd10 O48 2.388 . S
Gd10 O49 2.386 . S
Gd10 O53 2.307 1_556 S
Gd10 C63 2.805 . S
Gd11 N6 2.622 . S
Gd11 N12 2.570 . S
Gd11 O43 2.386 . S
Gd11 O47 2.307 1_554 S
Gd11 O50 2.353 1_455 S
Gd11 O51 2.468 . S
Gd11 O52 2.427 . S
Gd11 O54 2.388 . S
Gd11 C75 2.805 . S
N12 C2 1.359 . S
N12 Gd11 2.570 . S
N12 C14 1.343 1_554 S
C13 C1 1.422 . S
C13 C15 1.321 1_554 S
C13 H21 0.931 1_554 S
C14 N12 1.343 1_556 S
C14 C15 1.390 . S
C14 H16 0.931 . S
C15 C13 1.321 1_556 S
C15 C14 1.390 . S
C15 H17 0.930 . S
H16 C14 0.931 . S
H17 C15 0.930 . S
H18 C41 0.931 . S
H19 C7 0.929 . S
H20 C42 0.930 . S
H21 C13 0.931 1_556 S
H22 C3 0.930 . S
H23 C32 0.929 . S
H24 C8 0.931 . S
H25 C9 0.930 . S
H26 C64 0.930 . S
H27 C5 0.929 . S
H28 C33 0.931 . S
H29 C34 0.930 . S
N30 Gd10 2.622 . S
N30 C31 1.369 . S
N30 C32 1.338 . S
C31 N30 1.369 . S
C31 C35 1.415 . S
C31 C38 1.422 . S
C32 H23 0.929 . S
C32 N30 1.338 . S
C32 C34 1.378 . S
C33 H28 0.931 . S
C33 C34 1.348 . S
C33 C35 1.413 . S
C34 H29 0.930 . S
C34 C32 1.378 . S
C34 C33 1.348 . S
C35 C31 1.415 . S
C35 C33 1.413 . S
C35 C65 1.437 . S
H36 C65 0.929 . S
N37 Gd10 2.570 . S
N37 C38 1.359 . S
N37 C41 1.343 1_556 S
C38 C31 1.422 . S
C38 N37 1.359 . S
C38 C40 1.421 . S
C39 C40 1.422 . S
C39 C42 1.321 1_556 S
C39 H66 0.931 1_556 S
C40 C38 1.421 . S
C40 C39 1.422 . S
C40 C64 1.417 . S
C41 H18 0.931 . S
C41 N37 1.343 1_554 S
C41 C42 1.390 . S
C42 H20 0.930 . S
C42 C39 1.321 1_554 S
C42 C41 1.390 . S
O43 Gd11 2.386 . S
O43 C55 1.263 1_545 S
O44 Gd10 2.353 1_455 S
O44 C55 1.243 1_556 S
O45 Gd10 2.468 . S
O45 C63 1.263 . S
O46 Gd10 2.427 . S
O46 C63 1.252 . S
O47 Gd11 2.307 1_556 S
O47 C56 1.261 1_545 S
O48 Gd10 2.388 . S
O48 C56 1.252 1_655 S
O49 Gd10 2.386 . S
O49 C67 1.259 1_565 S
O50 Gd11 2.353 1_655 S
O50 C67 1.245 1_554 S
O51 Gd11 2.468 . S
O51 C75 1.263 . S
O52 Gd11 2.427 . S
O52 C75 1.252 . S
O53 Gd10 2.307 1_554 S
O53 C68 1.261 1_565 S
O54 Gd11 2.388 . S
O54 C68 1.252 1_455 S
C55 O43 1.263 1_565 S
C55 O44 1.243 1_554 S
C56 O47 1.261 1_565 S
C56 O48 1.252 1_455 S
C57 C60 1.394 . S
C57 C62 1.370 . S
C57 C63 1.500 . S
C58 C61 1.383 . S
C58 C62 1.395 . S
C59 C60 1.396 . S
C59 C61 1.365 . S
C59 H76 0.929 . S
C60 C57 1.394 . S
C60 C59 1.396 . S
C60 H77 0.930 . S
C61 C58 1.383 . S
C61 C59 1.365 . S
C61 H78 0.931 . S
C62 C57 1.370 . S
C62 C58 1.395 . S
C62 H79 0.930 1_556 S
C63 Gd10 2.805 . S
C63 O45 1.263 . S
C63 O46 1.252 . S
C63 C57 1.500 . S
C64 H26 0.930 . S
C64 C40 1.417 . S
C64 C65 1.329 . S
C65 C35 1.437 . S
C65 H36 0.929 . S
C65 C64 1.329 . S
H66 C39 0.931 1_554 S
C67 O49 1.259 1_545 S
C67 O50 1.245 1_556 S
C68 O53 1.261 1_545 S
C68 O54 1.252 1_655 S
C69 C72 1.394 . S
C69 C74 1.370 . S
C69 C75 1.500 . S
C70 C73 1.383 . S
C70 C74 1.395 . S
C71 C72 1.396 . S
C71 C73 1.365 . S
C71 H80 0.929 . S
C72 C69 1.394 . S
C72 C71 1.396 . S
C72 H81 0.930 . S
C73 C70 1.383 . S
C73 C71 1.365 . S
C73 H82 0.931 . S
C74 C69 1.370 . S
C74 C70 1.395 . S
C74 H83 0.930 1_554 S
C75 Gd11 2.805 . S
C75 O51 1.263 . S
C75 O52 1.252 . S
C75 C69 1.500 . S
H76 C59 0.929 . S
H77 C60 0.930 . S
H78 C61 0.931 . S
H79 C62 0.930 1_554 S
H80 C71 0.929 . S
H81 C72 0.930 . S
H82 C73 0.931 . S
H83 C74 0.930 1_556 S
H84 C90 0.930 . S
H85 C94 0.930 . S
H86 C99 0.929 . S
H87 C97 0.929 . S
H88 C92 0.929 . S
H89 C98 0.929 . S
C90 H84 0.930 . S
C90 C91 1.385 . S
C90 C98 1.378 . S
C91 C90 1.385 . S
C91 C99 1.407 1_645 S
C92 H88 0.929 . S
C92 C94 1.378 . S
C92 C96 1.350 . S
C93 C96 1.463 1_645 S
C93 C98 1.350 . S
C93 N101 1.427 1_645 S
C94 H85 0.930 . S
C94 C92 1.378 . S
C94 C95 1.374 . S
C95 C94 1.374 . S
C95 C97 1.420 1_465 S
C96 C92 1.350 . S
C96 C93 1.463 1_465 S
C96 N100 1.427 1_465 S
C97 H87 0.929 . S
C97 C95 1.420 1_645 S
C97 N100 1.384 . S
C98 H89 0.929 . S
C98 C90 1.378 . S
C98 C93 1.350 . S
C99 H86 0.929 . S
C99 C91 1.407 1_465 S
C99 N101 1.384 . S
N100 C96 1.427 1_645 S
N100 C97 1.384 . S
N101 C93 1.427 1_465 S
N101 C99 1.384 . S
H102 C108 0.930 . S
H103 C112 0.930 . S
H104 C117 0.929 . S
H105 C115 0.929 . S
H106 C110 0.929 . S
H107 C116 0.929 . S
C108 H102 0.930 . S
C108 C109 1.365 . S
C108 C116 1.378 . S
C109 C108 1.365 . S
C109 C117 1.435 1_544 S
C110 H106 0.929 . S
C110 C112 1.378 . S
C110 C114 1.349 . S
C111 C114 1.463 1_544 S
C111 C116 1.348 . S
C111 N119 1.429 1_544 S
C112 H103 0.930 . S
C112 C110 1.378 . S
C112 C113 1.366 . S
C113 C112 1.366 . S
C113 C115 1.434 1_566 S
C114 C110 1.349 . S
C114 C111 1.463 1_566 S
C114 N118 1.429 1_566 S
C115 H105 0.929 . S
C115 C113 1.434 1_544 S
C115 N118 1.384 . S
C116 H107 0.929 . S
C116 C108 1.378 . S
C116 C111 1.348 . S
C117 H104 0.929 . S
C117 C109 1.435 1_566 S
C117 N119 1.384 . S
N118 C114 1.429 1_544 S
N118 C115 1.384 . S
N119 C111 1.429 1_566 S
N119 C117 1.384 . S
H120 C126 0.930 . S
H121 C130 0.930 . S
H122 C135 0.929 . S
H123 C133 0.929 . S
H124 C128 0.929 . S
H125 C134 0.929 . S
C126 H120 0.930 . S
C126 C127 1.367 . S
C126 C134 1.378 . S
C127 C126 1.367 . S
C127 C135 1.433 1_654 S
C128 H124 0.929 . S
C128 C130 1.378 . S
C128 C132 1.350 . S
C129 C132 1.463 1_654 S
C129 C134 1.350 . S
C129 N137 1.427 1_654 S
C130 H121 0.930 . S
C130 C128 1.378 . S
C130 C131 1.367 . S
C131 C130 1.367 . S
C131 C133 1.433 1_456 S
C132 C128 1.350 . S
C132 C129 1.463 1_456 S
C132 N136 1.427 1_456 S
C133 H123 0.929 . S
C133 C131 1.433 1_654 S
C133 N136 1.384 . S
C134 H125 0.929 . S
C134 C126 1.378 . S
C134 C129 1.350 . S
C135 H122 0.929 . S
C135 C127 1.433 1_456 S
C135 N137 1.384 . S
N136 C132 1.427 1_654 S
N136 C133 1.384 . S
N137 C129 1.427 1_456 S
N137 C135 1.384 . S
C91 C68 1.488 . S
C95 C56 1.483 . S
C109 C55 1.497 1_545 S
C113 C67 1.499 1_565 S
C127 C58 1.364 1_554 S
C131 C70 1.364 1_556 S
