# Generated by pormake.
# Topology utk, (3)-cn, num edge types: 1
# Building blocks:
#     Node 0, Type 0, BuildingBlock: OLANEW_clean_sbu_2, # of connection points: 3
#     Node 1, Type 0, BuildingBlock: OLANEW_clean_sbu_2, # of connection points: 3
#     Node 2, Type 0, BuildingBlock: OLANEW_clean_sbu_2, # of connection points: 3
#     Node 3, Type 0, BuildingBlock: OLANEW_clean_sbu_2, # of connection points: 3
#     Node 4, Type 0, BuildingBlock: OLANEW_clean_sbu_2, # of connection points: 3
#     Node 5, Type 0, BuildingBlock: OLANEW_clean_sbu_2, # of connection points: 3
#     Node 6, Type 0, BuildingBlock: OLANEW_clean_sbu_2, # of connection points: 3
#     Node 7, Type 0, BuildingBlock: OLANEW_clean_sbu_2, # of connection points: 3
#     Edge 8, Type (0, 0), BuildingBlock: OJICUG_clean_linker_0, # of connection points: 2
#     Edge 9, Type (0, 0), BuildingBlock: OJICUG_clean_linker_0, # of connection points: 2
#     Edge 10, Type (0, 0), BuildingBlock: OJICUG_clean_linker_0, # of connection points: 2
#     Edge 11, Type (0, 0), BuildingBlock: OJICUG_clean_linker_0, # of connection points: 2
#     Edge 12, Type (0, 0), BuildingBlock: OJICUG_clean_linker_0, # of connection points: 2
#     Edge 13, Type (0, 0), BuildingBlock: OJICUG_clean_linker_0, # of connection points: 2
#     Edge 14, Type (0, 0), BuildingBlock: OJICUG_clean_linker_0, # of connection points: 2
#     Edge 15, Type (0, 0), BuildingBlock: OJICUG_clean_linker_0, # of connection points: 2
#     Edge 16, Type (0, 0), BuildingBlock: OJICUG_clean_linker_0, # of connection points: 2
#     Edge 17, Type (0, 0), BuildingBlock: OJICUG_clean_linker_0, # of connection points: 2
#     Edge 18, Type (0, 0), BuildingBlock: OJICUG_clean_linker_0, # of connection points: 2
#     Edge 19, Type (0, 0), BuildingBlock: OJICUG_clean_linker_0, # of connection points: 2
# Relax obj value: 0.000
# Max RMSD: 0.029
# Mean RMSD: 0.029
data_MOF--net-utk--node1-OLANEW_clean_sbu_2--edge1-OJICUG_clean_linker_0
_symmetry_space_group_name_H-M    P1
_symmetry_Int_Tables_number       1
_symmetry_cell_setting            triclinic
loop_
_symmetry_equiv_pos_as_xyz
'x, y, z'
_cell_length_a     33.941974
_cell_length_b     33.83336
_cell_length_c     23.785567
_cell_angle_alpha  89.906164
_cell_angle_beta   89.865537
_cell_angle_gamma 89.88344
loop_
_atom_site_label
_atom_site_type_symbol
_atom_site_fract_x
_atom_site_fract_y
_atom_site_fract_z
_atom_type_partial_charge
O0 O 0.14158 0.37918 0.20654 0.0
Cd1 Cd 0.13029 0.30863 0.1914 0.0
O2 O 0.07797 0.3916 0.20412 0.0
Cd3 Cd 0.06047 0.33381 0.17214 0.0
O4 O 0.02855 0.30417 0.1048 0.0
C5 C 0.04622 0.29712 0.05872 0.0
O6 O 0.08419 0.30422 0.05518 0.0
C7 C 0.1131 0.40341 0.21166 0.0
C8 C 0.17277 0.26287 0.26803 0.0
O9 O 0.18598 0.2691 0.21828 0.0
O10 O 0.13946 0.27811 0.28146 0.0
O11 O 0.57883 0.16533 0.43876 0.0
Cd12 Cd 0.64882 0.16818 0.4146 0.0
O13 O 0.58889 0.10878 0.48227 0.0
Cd14 Cd 0.64549 0.09738 0.44142 0.0
O15 O 0.67166 0.06515 0.37105 0.0
C16 C 0.67023 0.08032 0.32217 0.0
O17 O 0.6566 0.11649 0.31655 0.0
C18 C 0.56617 0.13744 0.46983 0.0
C19 C 0.69119 0.20676 0.49849 0.0
O20 O 0.68206 0.22467 0.45281 0.0
O21 O 0.6806 0.17067 0.50438 0.0
O22 O 0.83486 0.60344 0.6945 0.0
Cd23 Cd 0.84231 0.67479 0.68153 0.0
O24 O 0.89932 0.5965 0.69523 0.0
Cd25 Cd 0.91471 0.65567 0.66572 0.0
O26 O 0.95211 0.68479 0.6034 0.0
C27 C 0.93843 0.69227 0.55484 0.0
O28 O 0.90081 0.68609 0.54537 0.0
C29 C 0.86512 0.58165 0.70063 0.0
C30 C 0.79975 0.71758 0.76157 0.0
O31 O 0.78583 0.71179 0.71222 0.0
O32 O 0.83373 0.70318 0.77309 0.0
O33 O 0.39765 0.79804 0.92548 0.0
Cd34 Cd 0.32951 0.78251 0.9013 0.0
O35 O 0.38185 0.85482 0.96437 0.0
Cd36 Cd 0.32469 0.85816 0.92259 0.0
O37 O 0.2975 0.89234 0.85491 0.0
C38 C 0.28803 0.92801 0.86493 0.0
O39 O 0.29106 0.94122 0.91667 0.0
C40 C 0.40737 0.82823 0.95395 0.0
C41 C 0.29232 0.75047 -0.00431 0.0
O42 O 0.31375 0.72908 0.96336 0.0
O43 O 0.28773 0.78701 -0.01707 0.0
O44 O 0.17475 0.58099 0.27354 0.0
Cd45 Cd 0.19105 0.64985 0.29343 0.0
O46 O 0.11066 0.59085 0.27249 0.0
Cd47 Cd 0.11157 0.65039 0.30779 0.0
O48 O 0.08004 0.68155 0.37458 0.0
C49 C 0.04401 0.69004 0.36628 0.0
O50 O 0.02899 0.68376 0.31622 0.0
C51 C 0.14009 0.56804 0.26566 0.0
C52 C 0.22374 0.68461 0.19762 0.0
O53 O 0.24469 0.66357 0.231 0.0
O54 O 0.1873 0.68983 0.20984 0.0
O55 O 0.37493 0.13971 0.49822 0.0
Cd56 Cd 0.30465 0.1246 0.50447 0.0
O57 O 0.39099 0.09152 0.55615 0.0
Cd58 Cd 0.33214 0.07108 0.57946 0.0
O59 O 0.30247 0.02977 0.63614 0.0
C60 C 0.29228 0.0412 0.68493 0.0
O61 O 0.29626 0.07873 0.69787 0.0
C62 C 0.40111 0.11969 0.52378 0.0
C63 C 0.26125 0.16945 0.42777 0.0
O64 O 0.26414 0.18011 0.47928 0.0
O65 O 0.2787 0.13758 0.4126 0.0
O66 O 0.82026 0.39583 0.74678 0.0
Cd67 Cd 0.81923 0.32401 0.75895 0.0
O68 O 0.88467 0.39487 0.75686 0.0
Cd69 Cd 0.89028 0.33468 0.78921 0.0
O70 O 0.91878 0.3039 0.85889 0.0
C71 C 0.95559 0.29725 0.85566 0.0
O72 O 0.97394 0.30513 0.80826 0.0
C73 C 0.85316 0.41375 0.74591 0.0
C74 C 0.77704 0.28628 0.67409 0.0
O75 O 0.76164 0.29186 0.72269 0.0
O76 O 0.81223 0.29852 0.66553 0.0
O77 O 0.59736 0.83342 -0.00404 0.0
Cd78 Cd 0.66741 0.84821 0.00633 0.0
O79 O 0.57853 0.88548 0.04457 0.0
Cd80 Cd 0.63638 0.9045 0.07393 0.0
O81 O 0.66549 0.9412 0.13683 0.0
C82 C 0.66597 0.97841 0.12941 0.0
O83 O 0.65245 -0.00717 0.08186 0.0
C84 C 0.57002 0.85539 0.01508 0.0
C85 C 0.71163 0.80616 0.92728 0.0
O86 O 0.70817 0.79359 0.97791 0.0
O87 O 0.69455 0.83869 0.9142 0.0
C88 C 0.15896 0.45974 0.23291 0.0
C89 C 0.12045 0.44549 0.22531 0.0
H90 H 0.19547 0.50964 0.25132 0.0
C91 C 0.0887 0.47203 0.23015 0.0
H92 H 0.18409 0.44012 0.22931 0.0
C93 C 0.0952 0.51178 0.24258 0.0
C94 C 0.13364 0.52607 0.2505 0.0
H95 H 0.05864 0.46215 0.22442 0.0
H96 H 0.06996 0.53125 0.24626 0.0
C97 C 0.16549 0.49963 0.24537 0.0
C98 C 0.51194 0.10758 0.52689 0.0
C99 C 0.52443 0.13633 0.48812 0.0
H100 H 0.46356 0.08008 0.56883 0.0
C101 C 0.49621 0.16175 0.46417 0.0
H102 H 0.53289 0.08769 0.54643 0.0
C103 C 0.45614 0.15723 0.47684 0.0
C104 C 0.44357 0.12736 0.51394 0.0
H105 H 0.50489 0.18422 0.43414 0.0
H106 H 0.43497 0.17646 0.45645 0.0
C107 C 0.47207 0.10322 0.53974 0.0
C108 C 0.89521 0.51572 0.72071 0.0
C109 C 0.86122 0.53882 0.71271 0.0
H110 H 0.9193 0.45863 0.73706 0.0
C111 C 0.82414 0.52035 0.71527 0.0
H112 H 0.92428 0.52884 0.71897 0.0
C113 C 0.82126 0.47963 0.72557 0.0
C114 C 0.8554 0.45667 0.73363 0.0
H115 H 0.79738 0.53729 0.70913 0.0
H116 H 0.79234 0.46622 0.72746 0.0
C117 C 0.89235 0.47528 0.73105 0.0
C118 C 0.51771 0.81368 0.9699 0.0
C119 C 0.52821 0.84692 0.0019 0.0
H120 H 0.4713 0.78149 0.92999 0.0
C121 C 0.49836 0.87283 0.02012 0.0
H122 H 0.53994 0.79306 0.95535 0.0
C123 C 0.45911 0.86625 0.00554 0.0
C124 C 0.44866 0.83353 0.97252 0.0
H125 H 0.50533 0.89867 0.04498 0.0
H126 H 0.43702 0.88721 0.01956 0.0
C127 C 0.47833 0.80702 0.95546 0.0
C128 C 0.22442 0.21232 0.29031 0.0
C129 C 0.19533 0.2389 0.30886 0.0
H130 H 0.26764 0.16903 0.3134 0.0
C131 C 0.18805 0.24245 0.36682 0.0
H132 H 0.23059 0.20889 0.24588 0.0
C133 C 0.20975 0.22017 0.40551 0.0
C134 C 0.23854 0.19328 0.38693 0.0
H135 H 0.16591 0.26281 0.38236 0.0
H136 H 0.20366 0.22369 0.44995 0.0
C137 C 0.24552 0.18942 0.32893 0.0
C138 C 0.70688 0.2171 0.59997 0.0
C139 C 0.7131 0.22719 0.54333 0.0
H140 H 0.72164 0.22874 0.68598 0.0
C141 C 0.74036 0.25694 0.52998 0.0
H142 H 0.68588 0.19436 0.61134 0.0
C143 C 0.76156 0.27581 0.57251 0.0
C144 C 0.75492 0.26612 0.62919 0.0
H145 H 0.74575 0.26516 0.4866 0.0
H146 H 0.78274 0.29838 0.56113 0.0
C147 C 0.72716 0.23685 0.64259 0.0
C148 C 0.78499 0.73531 0.8616 0.0
C149 C 0.77728 0.74026 0.80399 0.0
H150 H 0.76977 0.75184 0.94588 0.0
C151 C 0.74792 0.76712 0.78726 0.0
H152 H 0.80737 0.71471 0.8757 0.0
C153 C 0.72699 0.78893 0.82734 0.0
C154 C 0.73436 0.78363 0.88497 0.0
H155 H 0.74145 0.77163 0.74314 0.0
H156 H 0.70464 0.80956 0.8132 0.0
C157 C 0.7634 0.75645 0.90174 0.0
C158 C 0.24092 0.75117 0.07157 0.0
C159 C 0.2743 0.73359 0.04697 0.0
H160 H 0.19825 0.74897 0.13819 0.0
C161 C 0.29084 0.69992 0.07229 0.0
H162 H 0.22755 0.77713 0.05286 0.0
C163 C 0.27468 0.6844 0.12166 0.0
C164 C 0.24106 0.70168 0.14598 0.0
H165 H 0.3167 0.68588 0.05443 0.0
H166 H 0.28822 0.65855 0.14041 0.0
C167 C 0.22413 0.73504 0.12026 0.0
C168 C 0.9818 0.28709 0.00944 0.0
C169 C 0.02317 0.28876 0.00728 0.0
H170 H 0.92786 0.28795 0.96309 0.0
C171 C 0.04197 0.28707 0.95462 0.0
H172 H 0.96636 0.28794 0.04933 0.0
C173 C 0.01986 0.28707 0.90512 0.0
C174 C 0.9785 0.28875 0.90725 0.0
H175 H 0.0738 0.28789 0.95144 0.0
H176 H 0.03531 0.2879 0.86523 0.0
C177 C 0.95969 0.28708 0.95993 0.0
C178 C 0.67093 0.07107 0.21775 0.0
C179 C 0.6767 0.05535 0.27185 0.0
H180 H 0.66351 0.05915 0.13015 0.0
C181 C 0.68438 0.01467 0.27749 0.0
H182 H 0.66531 0.10232 0.21182 0.0
C183 C 0.68332 0.98985 0.23055 0.0
C184 C 0.67458 0.0052 0.17703 0.0
H185 H 0.68926 0.00162 0.3185 0.0
H186 H 0.68742 0.95839 0.23674 0.0
C187 C 0.6699 0.04627 0.17085 0.0
C188 C 0.9511 0.70312 0.4522 0.0
C189 C 0.96566 0.70003 0.5073 0.0
H190 H 0.96451 0.70296 0.36431 0.0
C191 C 0.00668 0.69972 0.51561 0.0
H192 H 0.91969 0.70384 0.4443 0.0
C193 C 0.03244 0.69918 0.46965 0.0
C194 C 0.01771 0.69898 0.41445 0.0
H195 H 0.01892 0.69773 0.55753 0.0
H196 H 0.06378 0.69678 0.47747 0.0
C197 C 0.97685 0.70262 0.40626 0.0
C198 C 0.27583 -0.00348 0.82888 0.0
C199 C 0.28124 0.95604 0.81797 0.0
H200 H 0.27459 0.0552 0.7953 0.0
C201 C 0.28462 0.94347 0.76184 0.0
H202 H 0.27274 0.0072 0.87157 0.0
C203 C 0.28567 0.97106 0.718 0.0
C204 C 0.28337 0.01178 0.7294 0.0
H205 H 0.28851 0.91248 0.75189 0.0
H206 H 0.29032 0.96052 0.67552 0.0
C207 C 0.27689 0.02409 0.78508 0.0
loop_
_geom_bond_atom_site_label_1
_geom_bond_atom_site_label_2
_geom_bond_distance
_geom_bond_site_symmetry_2
_ccdc_geom_bond_type
O0 Cd1 2.300 . S
O0 C7 1.275 . S
Cd1 O0 2.300 . S
Cd1 O9 2.381 . S
Cd1 O10 2.378 . S
O2 Cd3 2.385 . S
O2 C7 1.255 . S
Cd3 O2 2.385 . S
Cd3 O4 2.317 . S
O4 Cd3 2.317 . S
O4 C5 1.232 . S
C5 O4 1.232 . S
C5 O6 1.218 . S
O6 C5 1.218 . S
C7 O0 1.275 . S
C7 O2 1.255 . S
C8 O9 1.258 . S
C8 O10 1.256 . S
O9 Cd1 2.381 . S
O9 C8 1.258 . S
O10 Cd1 2.378 . S
O10 C8 1.256 . S
O11 Cd12 2.300 . S
O11 C18 1.275 . S
Cd12 O11 2.300 . S
Cd12 O20 2.381 . S
Cd12 O21 2.378 . S
O13 Cd14 2.385 . S
O13 C18 1.255 . S
Cd14 O13 2.385 . S
Cd14 O15 2.317 . S
O15 Cd14 2.317 . S
O15 C16 1.232 . S
C16 O15 1.232 . S
C16 O17 1.218 . S
O17 C16 1.218 . S
C18 O11 1.275 . S
C18 O13 1.255 . S
C19 O20 1.258 . S
C19 O21 1.256 . S
O20 Cd12 2.381 . S
O20 C19 1.258 . S
O21 Cd12 2.378 . S
O21 C19 1.256 . S
O22 Cd23 2.300 . S
O22 C29 1.275 . S
Cd23 O22 2.300 . S
Cd23 O31 2.381 . S
Cd23 O32 2.378 . S
O24 Cd25 2.385 . S
O24 C29 1.255 . S
Cd25 O24 2.385 . S
Cd25 O26 2.317 . S
O26 Cd25 2.317 . S
O26 C27 1.232 . S
C27 O26 1.232 . S
C27 O28 1.218 . S
O28 C27 1.218 . S
C29 O22 1.275 . S
C29 O24 1.255 . S
C30 O31 1.258 . S
C30 O32 1.256 . S
O31 Cd23 2.381 . S
O31 C30 1.258 . S
O32 Cd23 2.378 . S
O32 C30 1.256 . S
O33 Cd34 2.300 . S
O33 C40 1.275 . S
Cd34 O33 2.300 . S
Cd34 O42 2.381 . S
Cd34 O43 2.378 . S
O35 Cd36 2.385 . S
O35 C40 1.256 1_556 S
Cd36 O35 2.385 . S
Cd36 O37 2.317 . S
O37 Cd36 2.317 . S
O37 C38 1.232 . S
C38 O37 1.232 . S
C38 O39 1.218 . S
O39 C38 1.218 . S
C40 O33 1.275 . S
C40 O35 1.256 1_554 S
C41 O42 1.258 . S
C41 O43 1.256 . S
O42 Cd34 2.381 . S
O42 C41 1.258 . S
O43 Cd34 2.378 . S
O43 C41 1.256 . S
O44 Cd45 2.300 . S
O44 C51 1.275 . S
Cd45 O44 2.300 . S
Cd45 O53 2.381 . S
Cd45 O54 2.378 . S
O46 Cd47 2.385 . S
O46 C51 1.255 . S
Cd47 O46 2.385 . S
Cd47 O48 2.317 . S
O48 Cd47 2.317 . S
O48 C49 1.232 . S
C49 O48 1.232 . S
C49 O50 1.218 . S
O50 C49 1.218 . S
C51 O44 1.275 . S
C51 O46 1.255 . S
C52 O53 1.258 . S
C52 O54 1.256 . S
O53 Cd45 2.381 . S
O53 C52 1.258 . S
O54 Cd45 2.378 . S
O54 C52 1.256 . S
O55 Cd56 2.300 . S
O55 C62 1.275 . S
Cd56 O55 2.300 . S
Cd56 O64 2.381 . S
Cd56 O65 2.378 . S
O57 Cd58 2.385 . S
O57 C62 1.255 . S
Cd58 O57 2.385 . S
Cd58 O59 2.317 . S
O59 Cd58 2.317 . S
O59 C60 1.232 . S
C60 O59 1.232 . S
C60 O61 1.218 . S
O61 C60 1.218 . S
C62 O55 1.275 . S
C62 O57 1.255 . S
C63 O64 1.258 . S
C63 O65 1.256 . S
O64 Cd56 2.381 . S
O64 C63 1.258 . S
O65 Cd56 2.378 . S
O65 C63 1.256 . S
O66 Cd67 2.300 . S
O66 C73 1.275 . S
Cd67 O66 2.300 . S
Cd67 O75 2.381 . S
Cd67 O76 2.378 . S
O68 Cd69 2.385 . S
O68 C73 1.255 . S
Cd69 O68 2.385 . S
Cd69 O70 2.317 . S
O70 Cd69 2.317 . S
O70 C71 1.232 . S
C71 O70 1.232 . S
C71 O72 1.218 . S
O72 C71 1.218 . S
C73 O66 1.275 . S
C73 O68 1.255 . S
C74 O75 1.258 . S
C74 O76 1.256 . S
O75 Cd67 2.381 . S
O75 C74 1.258 . S
O76 Cd67 2.378 . S
O76 C74 1.256 . S
O77 Cd78 2.300 . S
O77 C84 1.275 . S
Cd78 O77 2.300 . S
Cd78 O86 2.381 . S
Cd78 O87 2.378 . S
O79 Cd80 2.385 . S
O79 C84 1.256 1_554 S
Cd80 O79 2.385 . S
Cd80 O81 2.317 . S
O81 Cd80 2.317 . S
O81 C82 1.232 . S
C82 O81 1.232 . S
C82 O83 1.218 . S
O83 C82 1.218 . S
C84 O77 1.275 . S
C84 O79 1.256 1_556 S
C85 O86 1.258 . S
C85 O87 1.256 . S
O86 Cd78 2.381 . S
O86 C85 1.258 . S
O87 Cd78 2.378 . S
O87 C85 1.256 . S
C88 C89 1.387 . S
C88 H92 0.950 . S
C88 C97 1.390 . S
C89 C88 1.387 . S
C89 C91 1.387 . S
H90 C97 0.950 . S
C91 C89 1.387 . S
C91 C93 1.390 . S
C91 H95 0.950 . S
H92 C88 0.950 . S
C93 C91 1.390 . S
C93 C94 1.387 . S
C93 H96 0.950 . S
C94 C93 1.387 . S
C94 C97 1.387 . S
H95 C91 0.950 . S
H96 C93 0.950 . S
C97 C88 1.390 . S
C97 H90 0.950 . S
C97 C94 1.387 . S
C98 C99 1.387 . S
C98 H102 0.950 . S
C98 C107 1.390 . S
C99 C98 1.387 . S
C99 C101 1.387 . S
H100 C107 0.950 . S
C101 C99 1.387 . S
C101 C103 1.390 . S
C101 H105 0.950 . S
H102 C98 0.950 . S
C103 C101 1.390 . S
C103 C104 1.387 . S
C103 H106 0.950 . S
C104 C103 1.387 . S
C104 C107 1.387 . S
H105 C101 0.950 . S
H106 C103 0.950 . S
C107 C98 1.390 . S
C107 H100 0.950 . S
C107 C104 1.387 . S
C108 C109 1.387 . S
C108 H112 0.950 . S
C108 C117 1.390 . S
C109 C108 1.387 . S
C109 C111 1.387 . S
H110 C117 0.950 . S
C111 C109 1.387 . S
C111 C113 1.390 . S
C111 H115 0.950 . S
H112 C108 0.950 . S
C113 C111 1.390 . S
C113 C114 1.387 . S
C113 H116 0.950 . S
C114 C113 1.387 . S
C114 C117 1.387 . S
H115 C111 0.950 . S
H116 C113 0.950 . S
C117 C108 1.390 . S
C117 H110 0.950 . S
C117 C114 1.387 . S
C118 C119 1.387 . S
C118 H122 0.950 . S
C118 C127 1.390 1_554 S
C119 C118 1.387 . S
C119 C121 1.387 . S
H120 C127 0.950 . S
C121 C119 1.387 . S
C121 C123 1.390 1_554 S
C121 H125 0.950 . S
H122 C118 0.950 . S
C123 C121 1.390 1_556 S
C123 C124 1.387 . S
C123 H126 0.950 . S
C124 C123 1.387 . S
C124 C127 1.387 . S
H125 C121 0.950 . S
H126 C123 0.950 . S
C127 C118 1.390 1_556 S
C127 H120 0.950 . S
C127 C124 1.387 . S
C128 C129 1.387 . S
C128 H132 0.950 . S
C128 C137 1.390 . S
C129 C128 1.387 . S
C129 C131 1.387 . S
H130 C137 0.950 . S
C131 C129 1.387 . S
C131 C133 1.390 . S
C131 H135 0.950 . S
H132 C128 0.950 . S
C133 C131 1.390 . S
C133 C134 1.387 . S
C133 H136 0.950 . S
C134 C133 1.387 . S
C134 C137 1.387 . S
H135 C131 0.950 . S
H136 C133 0.950 . S
C137 C128 1.390 . S
C137 H130 0.950 . S
C137 C134 1.387 . S
C138 C139 1.387 . S
C138 H142 0.950 . S
C138 C147 1.390 . S
C139 C138 1.387 . S
C139 C141 1.387 . S
H140 C147 0.950 . S
C141 C139 1.387 . S
C141 C143 1.390 . S
C141 H145 0.950 . S
H142 C138 0.950 . S
C143 C141 1.390 . S
C143 C144 1.387 . S
C143 H146 0.950 . S
C144 C143 1.387 . S
C144 C147 1.387 . S
H145 C141 0.950 . S
H146 C143 0.950 . S
C147 C138 1.390 . S
C147 H140 0.950 . S
C147 C144 1.387 . S
C148 C149 1.387 . S
C148 H152 0.950 . S
C148 C157 1.390 . S
C149 C148 1.387 . S
C149 C151 1.387 . S
H150 C157 0.950 . S
C151 C149 1.387 . S
C151 C153 1.390 . S
C151 H155 0.950 . S
H152 C148 0.950 . S
C153 C151 1.390 . S
C153 C154 1.387 . S
C153 H156 0.950 . S
C154 C153 1.387 . S
C154 C157 1.387 . S
H155 C151 0.950 . S
H156 C153 0.950 . S
C157 C148 1.390 . S
C157 H150 0.950 . S
C157 C154 1.387 . S
C158 C159 1.387 . S
C158 H162 0.950 . S
C158 C167 1.390 . S
C159 C158 1.387 . S
C159 C161 1.387 . S
H160 C167 0.950 . S
C161 C159 1.387 . S
C161 C163 1.390 . S
C161 H165 0.950 . S
H162 C158 0.950 . S
C163 C161 1.390 . S
C163 C164 1.387 . S
C163 H166 0.950 . S
C164 C163 1.387 . S
C164 C167 1.387 . S
H165 C161 0.950 . S
H166 C163 0.950 . S
C167 C158 1.390 . S
C167 H160 0.950 . S
C167 C164 1.387 . S
C168 C169 1.387 . S
C168 H172 0.950 . S
C168 C177 1.390 1_454 S
C169 C168 1.387 . S
C169 C171 1.387 . S
H170 C177 0.950 . S
C171 C169 1.387 . S
C171 C173 1.390 1_454 S
C171 H175 0.950 . S
H172 C168 0.950 . S
C173 C171 1.390 1_656 S
C173 C174 1.387 . S
C173 H176 0.950 . S
C174 C173 1.387 . S
C174 C177 1.387 . S
H175 C171 0.950 . S
H176 C173 0.950 . S
C177 C168 1.390 1_656 S
C177 H170 0.950 . S
C177 C174 1.387 . S
C178 C179 1.387 . S
C178 H182 0.950 . S
C178 C187 1.390 1_545 S
C179 C178 1.387 . S
C179 C181 1.387 . S
H180 C187 0.950 . S
C181 C179 1.387 . S
C181 C183 1.390 1_545 S
C181 H185 0.950 . S
H182 C178 0.950 . S
C183 C181 1.390 1_565 S
C183 C184 1.387 . S
C183 H186 0.950 . S
C184 C183 1.387 . S
C184 C187 1.387 . S
H185 C181 0.950 . S
H186 C183 0.950 . S
C187 C178 1.390 1_565 S
C187 H180 0.950 . S
C187 C184 1.387 . S
C188 C189 1.387 . S
C188 H192 0.950 . S
C188 C197 1.390 1_655 S
C189 C188 1.387 . S
C189 C191 1.387 . S
H190 C197 0.950 . S
C191 C189 1.387 . S
C191 C193 1.390 1_655 S
C191 H195 0.950 . S
H192 C188 0.950 . S
C193 C191 1.390 1_455 S
C193 C194 1.387 . S
C193 H196 0.950 . S
C194 C193 1.387 . S
C194 C197 1.387 . S
H195 C191 0.950 . S
H196 C193 0.950 . S
C197 C188 1.390 1_455 S
C197 H190 0.950 . S
C197 C194 1.387 . S
C198 C199 1.387 . S
C198 H202 0.950 . S
C198 C207 1.390 1_565 S
C199 C198 1.387 . S
C199 C201 1.387 . S
H200 C207 0.950 . S
C201 C199 1.387 . S
C201 C203 1.390 1_565 S
C201 H205 0.950 . S
H202 C198 0.950 . S
C203 C201 1.390 1_545 S
C203 C204 1.387 . S
C203 H206 0.950 . S
C204 C203 1.387 . S
C204 C207 1.387 . S
H205 C201 0.950 . S
H206 C203 0.950 . S
C207 C198 1.390 1_545 S
C207 H200 0.950 . S
C207 C204 1.387 . S
C89 C7 1.486 . S
C94 C51 1.486 . S
C99 C18 1.488 . S
C104 C62 1.488 . S
C109 C29 1.488 . S
C114 C73 1.488 . S
C119 C84 1.486 1_554 S
C124 C40 1.486 1_556 S
C129 C8 1.509 . S
C134 C63 1.509 . S
C139 C19 1.509 . S
C144 C74 1.509 . S
C149 C30 1.510 . S
C154 C85 1.509 . S
C159 C41 1.509 . S
C164 C52 1.509 . S
C169 C5 1.357 . S
C174 C71 1.357 . S
C179 C16 1.352 . S
C184 C82 1.352 . S
C189 C27 1.352 . S
C194 C49 1.352 . S
C199 C38 1.352 . S
C204 C60 1.352 . S
