# Generated by pormake.
# Topology pcu, (6)-cn, num edge types: 1
# Building blocks:
#     Node 0, Type 0, BuildingBlock: LEVNOQ01_clean_sbu_1, # of connection points: 6
#     Edge 1, Type (0, 0), BuildingBlock: UVAHIK_clean_linker_0, # of connection points: 2
#     Edge 2, Type (0, 0), BuildingBlock: UVAHIK_clean_linker_0, # of connection points: 2
#     Edge 3, Type (0, 0), BuildingBlock: UVAHIK_clean_linker_0, # of connection points: 2
# Relax obj value: 0.007
# Max RMSD: 0.050
# Mean RMSD: 0.050
data_MOF--net-pcu--node1-LEVNOQ01_clean_sbu_1--edge1-UVAHIK_clean_linker_0
_symmetry_space_group_name_H-M    P1
_symmetry_Int_Tables_number       1
_symmetry_cell_setting            triclinic
loop_
_symmetry_equiv_pos_as_xyz
'x, y, z'
_cell_length_a     20.274757
_cell_length_b     20.396744
_cell_length_c     20.086258
_cell_angle_alpha  72.950107
_cell_angle_beta   102.54439
_cell_angle_gamma 99.353264
loop_
_atom_site_label
_atom_site_type_symbol
_atom_site_fract_x
_atom_site_fract_y
_atom_site_fract_z
_atom_type_partial_charge
O0 O 0.83473 0.07542 0.89281 0.0
Mg1 Mg 0.93097 0.12051 0.86916 0.0
O2 O 0.87353 0.00156 0.9943 0.0
Mg3 Mg 0.9913 0.00381 1.00774 0.0
O4 O 0.99165 0.0449 0.88933 0.0
O5 O 0.96364 0.11403 0.78145 0.0
O6 O 0.10574 0.00198 0.021 0.0
O7 O 0.97325 0.89733 0.97467 0.0
Mg8 Mg 0.00294 0.89347 0.09581 0.0
O9 O 0.99573 0.97155 0.13528 0.0
O10 O 0.10086 0.89055 0.07221 0.0
O11 O 0.91216 0.84139 0.05298 0.0
O12 O 0.00904 0.86213 0.20032 0.0
C13 C 0.00823 0.1773 0.9889 0.0
C14 C 0.82433 0.02929 0.94877 0.0
C15 C 0.99597 0.06358 0.82299 0.0
C16 C 0.13423 0.94646 0.0443 0.0
C17 C 0.93263 0.84491 0.99725 0.0
C18 C 0.00246 0.92503 0.19626 0.0
O19 O 0.98317 0.19184 0.92347 0.0
O20 O 0.0107 0.11492 0.02701 0.0
C21 C 0.04013 0.00596 0.27312 0.0
C22 C 0.00663 0.94292 0.26296 0.0
C23 C 0.05465 0.01659 0.34084 0.0
C24 C 0.04981 0.0381 0.48303 0.0
H25 H 0.08812 0.88004 0.64428 0.0
C26 C 0.08624 0.07252 0.75614 0.0
C27 C 0.03638 0.03058 0.79262 0.0
C28 C 0.10473 0.05451 0.70151 0.0
C29 C 0.07805 0.92463 0.59972 0.0
H30 H 0.95813 0.84344 0.31369 0.0
H31 H 0.98013 0.8631 0.43037 0.0
H32 H 0.07237 0.8677 0.5243 0.0
H33 H 0.97228 0.93367 0.8073 0.0
H34 H 0.00436 0.90177 0.71125 0.0
H35 H 0.05471 0.09478 0.55827 0.0
C36 C 0.99812 0.90326 0.38746 0.0
C37 C 0.06837 0.9176 0.53099 0.0
C38 C 0.98462 0.89235 0.32037 0.0
C39 C 0.01153 0.96621 0.7802 0.0
C40 C 0.02971 0.94826 0.725 0.0
C41 C 0.06028 0.04527 0.55159 0.0
C42 C 0.03502 0.96464 0.39909 0.0
C43 C 0.05229 0.97385 0.47183 0.0
C44 C 0.0728 -0.00527 0.68211 0.0
C45 C 0.07309 0.98832 0.61063 0.0
H46 H 0.05825 0.0454 0.22972 0.0
H47 H 0.08331 0.06447 0.34789 0.0
H48 H 0.03678 0.08227 0.439 0.0
H49 H 0.10566 0.12261 0.76495 0.0
H50 H 0.13908 0.09051 0.67016 0.0
C51 C 0.24321 0.89217 0.07904 0.0
C52 C 0.20531 0.94672 0.03759 0.0
C53 C 0.31029 0.89222 0.07193 0.0
C54 C 0.42548 0.95911 0.94559 0.0
H55 H 0.57129 0.93931 0.10877 0.0
C56 C 0.70135 0.0465 0.91498 0.0
C57 C 0.75355 0.00927 0.96099 0.0
C58 C 0.63456 0.02976 0.92597 0.0
C59 C 0.53109 0.94351 0.06283 0.0
H60 H 0.20755 0.04363 0.95585 0.0
H61 H 0.32432 0.04305 0.94271 0.0
H62 H 0.45341 0.92698 0.12526 0.0
H63 H 0.77618 0.92455 0.05452 0.0
H64 H 0.65838 0.8944 0.07321 0.0
H65 H 0.50228 0.97544 0.88293 0.0
C66 C 0.30218 0.00054 0.98087 0.0
C67 C 0.46373 0.93675 0.07231 0.0
C68 C 0.23559 0.00109 0.98874 0.0
C69 C 0.73713 0.95433 0.01822 0.0
C70 C 0.66977 0.93726 0.02906 0.0
C71 C 0.49251 0.96503 0.93617 0.0
C72 C 0.34008 0.94614 0.02236 0.0
C73 C 0.4106 0.94626 0.01355 0.0
C74 C 0.61776 0.9749 0.98293 0.0
C75 C 0.5463 0.95929 0.99443 0.0
H76 H 0.22116 0.84964 0.11723 0.0
H77 H 0.33852 0.84964 0.10433 0.0
H78 H 0.3852 0.96537 0.89958 0.0
H79 H 0.71203 0.08953 0.87066 0.0
H80 H 0.59623 0.06098 0.89038 0.0
C81 C 0.88677 0.72243 1.006 0.0
C82 C 0.92997 0.78023 0.97719 0.0
C83 C 0.89793 0.65638 1.00715 0.0
C84 C 0.98987 0.55636 0.93785 0.0
H85 H 0.99248 0.42789 0.1241 0.0
C86 C 0.07271 0.29034 0.98937 0.0
C87 C 0.02746 0.23586 0.01991 0.0
C88 C 0.07117 0.35691 0.99415 0.0
C89 C 0.9917 0.46296 0.07176 0.0
H90 H 0.01415 0.81479 0.92015 0.0
H91 H 0.03311 0.69924 0.92145 0.0
H92 H 0.96053 0.54363 0.10222 0.0
H93 H 0.9491 0.20626 0.08408 0.0
H94 H 0.94566 0.32269 0.09227 0.0
H95 H 0.01965 0.47562 0.90676 0.0
C96 C 0.9911 0.70503 0.94388 0.0
C97 C 0.97306 0.52916 0.05906 0.0
C98 C 0.97998 0.77131 0.94279 0.0
C99 C 0.98544 0.24737 0.0614 0.0
C100 C 0.98318 0.3143 0.06547 0.0
C101 C 0.00817 0.49008 0.95041 0.0
C102 C 0.95225 0.64677 0.97916 0.0
C103 C 0.97146 0.57638 0.99182 0.0
C104 C 0.02331 0.37035 0.02838 0.0
C105 C 0.00911 0.44243 0.01747 0.0
H106 H 0.84728 0.72772 0.0322 0.0
H107 H 0.86593 0.61254 0.03287 0.0
H108 H 0.98871 0.59143 0.88545 0.0
H109 H 0.10504 0.28254 0.95648 0.0
H110 H 0.10415 0.39858 0.96675 0.0
loop_
_geom_bond_atom_site_label_1
_geom_bond_atom_site_label_2
_geom_bond_distance
_geom_bond_site_symmetry_2
_ccdc_geom_bond_type
O0 Mg1 1.990 . S
O0 C14 1.253 . S
Mg1 O0 1.990 . S
Mg1 O4 2.180 . S
Mg1 O5 2.117 . S
Mg1 O19 2.030 . S
O2 Mg3 2.072 1_665 S
O2 C14 1.260 1_564 S
Mg3 O2 2.072 1_445 S
Mg3 O4 2.099 1_454 S
Mg3 O6 2.079 1_554 S
Mg3 O7 2.072 1_444 S
Mg3 O9 2.099 1_545 S
Mg3 O20 2.079 . S
O4 Mg1 2.180 . S
O4 Mg3 2.099 1_656 S
O4 C15 1.279 . S
O5 Mg1 2.117 . S
O5 C15 1.250 . S
O6 Mg3 2.079 1_556 S
O6 C16 1.264 1_546 S
O7 Mg3 2.072 1_666 S
O7 C17 1.260 1_656 S
Mg8 O9 2.180 . S
Mg8 O10 2.030 . S
Mg8 O11 1.990 . S
Mg8 O12 2.117 . S
O9 Mg3 2.099 1_565 S
O9 Mg8 2.180 . S
O9 C18 1.279 . S
O10 Mg8 2.030 . S
O10 C16 1.248 . S
O11 Mg8 1.990 . S
O11 C17 1.253 . S
O12 Mg8 2.117 . S
O12 C18 1.250 . S
C13 O19 1.248 . S
C13 O20 1.264 1_656 S
C14 O0 1.253 . S
C14 O2 1.260 1_546 S
C15 O4 1.279 . S
C15 O5 1.250 . S
C16 O6 1.264 1_564 S
C16 O10 1.248 . S
C17 O7 1.260 1_454 S
C17 O11 1.253 . S
C18 O9 1.279 . S
C18 O12 1.250 . S
O19 Mg1 2.030 . S
O19 C13 1.248 . S
O20 Mg3 2.079 . S
O20 C13 1.264 1_454 S
C21 C22 1.349 1_455 S
C21 C23 1.327 . S
C21 H46 0.950 . S
C22 C21 1.349 1_655 S
C22 C38 1.349 1_565 S
C23 C21 1.327 . S
C23 C42 1.429 1_455 S
C23 H47 0.950 . S
C24 C41 1.574 . S
C24 C43 1.368 1_545 S
C24 H48 0.949 . S
H25 C29 0.949 . S
C26 C27 1.349 1_545 S
C26 C28 1.327 . S
C26 H49 0.950 . S
C27 C26 1.349 1_565 S
C27 C39 1.349 1_655 S
C28 C26 1.327 . S
C28 C44 1.429 1_545 S
C28 H50 0.950 . S
C29 H25 0.949 . S
C29 C37 1.574 . S
C29 C45 1.368 1_455 S
H30 C38 0.950 . S
H31 C36 0.950 . S
H32 C37 0.949 . S
H33 C39 0.950 . S
H34 C40 0.950 . S
H35 C41 0.949 . S
C36 H31 0.950 . S
C36 C38 1.327 . S
C36 C42 1.429 1_545 S
C37 C29 1.574 . S
C37 H32 0.949 . S
C37 C43 1.368 1_455 S
C38 C22 1.349 1_545 S
C38 H30 0.950 . S
C38 C36 1.327 . S
C39 C27 1.349 1_455 S
C39 H33 0.950 . S
C39 C40 1.327 . S
C40 H34 0.950 . S
C40 C39 1.327 . S
C40 C44 1.429 1_455 S
C41 C24 1.574 . S
C41 H35 0.949 . S
C41 C45 1.368 1_545 S
C42 C23 1.429 1_655 S
C42 C36 1.429 1_565 S
C42 C43 1.523 . S
C43 C24 1.368 1_565 S
C43 C37 1.368 1_655 S
C43 C42 1.523 . S
C44 C28 1.429 1_565 S
C44 C40 1.429 1_655 S
C44 C45 1.523 . S
C45 C29 1.368 1_655 S
C45 C41 1.368 1_565 S
C45 C44 1.523 . S
H46 C21 0.950 . S
H47 C23 0.950 . S
H48 C24 0.949 . S
H49 C26 0.950 . S
H50 C28 0.950 . S
C51 C52 1.349 1_565 S
C51 C53 1.327 . S
C51 H76 0.950 . S
C52 C51 1.349 1_545 S
C52 C68 1.349 1_554 S
C53 C51 1.327 . S
C53 C72 1.429 1_565 S
C53 H77 0.950 . S
C54 C71 1.574 . S
C54 C73 1.368 1_556 S
C54 H78 0.949 . S
H55 C59 0.949 . S
C56 C57 1.349 1_556 S
C56 C58 1.327 . S
C56 H79 0.950 . S
C57 C56 1.349 1_554 S
C57 C69 1.349 1_545 S
C58 C56 1.327 . S
C58 C74 1.429 1_556 S
C58 H80 0.950 . S
C59 H55 0.949 . S
C59 C67 1.574 . S
C59 C75 1.368 1_565 S
H60 C68 0.950 . S
H61 C66 0.950 . S
H62 C67 0.949 . S
H63 C69 0.950 . S
H64 C70 0.950 . S
H65 C71 0.949 . S
C66 H61 0.950 . S
C66 C68 1.327 . S
C66 C72 1.429 1_556 S
C67 C59 1.574 . S
C67 H62 0.949 . S
C67 C73 1.368 1_565 S
C68 C52 1.349 1_556 S
C68 H60 0.950 . S
C68 C66 1.327 . S
C69 C57 1.349 1_565 S
C69 H63 0.950 . S
C69 C70 1.327 . S
C70 H64 0.950 . S
C70 C69 1.327 . S
C70 C74 1.429 1_565 S
C71 C54 1.574 . S
C71 H65 0.949 . S
C71 C75 1.368 1_556 S
C72 C53 1.429 1_545 S
C72 C66 1.429 1_554 S
C72 C73 1.523 . S
C73 C54 1.368 1_554 S
C73 C67 1.368 1_545 S
C73 C72 1.523 . S
C74 C58 1.429 1_554 S
C74 C70 1.429 1_545 S
C74 C75 1.523 . S
C75 C59 1.368 1_545 S
C75 C71 1.368 1_554 S
C75 C74 1.523 . S
H76 C51 0.950 . S
H77 C53 0.950 . S
H78 C54 0.949 . S
H79 C56 0.950 . S
H80 C58 0.950 . S
C81 C82 1.349 1_654 S
C81 C83 1.327 . S
C81 H106 0.950 . S
C82 C81 1.349 1_456 S
C82 C98 1.349 . S
C83 C81 1.327 . S
C83 C102 1.429 1_654 S
C83 H107 0.950 . S
C84 C101 1.574 . S
C84 C103 1.368 . S
C84 H108 0.949 . S
H85 C89 0.949 . S
C86 C87 1.349 . S
C86 C88 1.327 . S
C86 H109 0.950 . S
C87 C86 1.349 . S
C87 C99 1.349 1_456 S
C88 C86 1.327 . S
C88 C104 1.429 . S
C88 H110 0.950 . S
C89 H85 0.949 . S
C89 C97 1.574 . S
C89 C105 1.368 1_654 S
H90 C98 0.950 . S
H91 C96 0.950 . S
H92 C97 0.949 . S
H93 C99 0.950 . S
H94 C100 0.950 . S
H95 C101 0.949 . S
C96 H91 0.950 . S
C96 C98 1.327 . S
C96 C102 1.429 . S
C97 C89 1.574 . S
C97 H92 0.949 . S
C97 C103 1.368 1_654 S
C98 C82 1.349 . S
C98 H90 0.950 . S
C98 C96 1.327 . S
C99 C87 1.349 1_654 S
C99 H93 0.950 . S
C99 C100 1.327 . S
C100 H94 0.950 . S
C100 C99 1.327 . S
C100 C104 1.429 1_654 S
C101 C84 1.574 . S
C101 H95 0.949 . S
C101 C105 1.368 . S
C102 C83 1.429 1_456 S
C102 C96 1.429 . S
C102 C103 1.523 . S
C103 C84 1.368 . S
C103 C97 1.368 1_456 S
C103 C102 1.523 . S
C104 C88 1.429 . S
C104 C100 1.429 1_456 S
C104 C105 1.523 . S
C105 C89 1.368 1_456 S
C105 C101 1.368 . S
C105 C104 1.523 . S
H106 C81 0.950 . S
H107 C83 0.950 . S
H108 C84 0.949 . S
H109 C86 0.950 . S
H110 C88 0.950 . S
C22 C18 1.297 1_655 S
C27 C15 1.297 1_565 S
C52 C16 1.451 1_545 S
C57 C14 1.445 1_554 S
C82 C17 1.445 1_556 S
C87 C13 1.451 1_455 S
