# Generated by pormake.
# Topology dia, (4)-cn, num edge types: 1
# Building blocks:
#     Node 0, Type 0, BuildingBlock: QUQFOY_clean_sbu_1, # of connection points: 4
#     Node 1, Type 0, BuildingBlock: QUQFOY_clean_sbu_1, # of connection points: 4
#     Node 2, Type 0, BuildingBlock: QUQFOY_clean_sbu_1, # of connection points: 4
#     Node 3, Type 0, BuildingBlock: QUQFOY_clean_sbu_1, # of connection points: 4
#     Node 4, Type 0, BuildingBlock: QUQFOY_clean_sbu_1, # of connection points: 4
#     Node 5, Type 0, BuildingBlock: QUQFOY_clean_sbu_1, # of connection points: 4
#     Node 6, Type 0, BuildingBlock: QUQFOY_clean_sbu_1, # of connection points: 4
#     Node 7, Type 0, BuildingBlock: QUQFOY_clean_sbu_1, # of connection points: 4
#     Edge 8, Type (0, 0), BuildingBlock: EYOCIG_clean_linker_4, # of connection points: 2
#     Edge 9, Type (0, 0), BuildingBlock: EYOCIG_clean_linker_4, # of connection points: 2
#     Edge 10, Type (0, 0), BuildingBlock: EYOCIG_clean_linker_4, # of connection points: 2
#     Edge 11, Type (0, 0), BuildingBlock: EYOCIG_clean_linker_4, # of connection points: 2
#     Edge 12, Type (0, 0), BuildingBlock: EYOCIG_clean_linker_4, # of connection points: 2
#     Edge 13, Type (0, 0), BuildingBlock: EYOCIG_clean_linker_4, # of connection points: 2
#     Edge 14, Type (0, 0), BuildingBlock: EYOCIG_clean_linker_4, # of connection points: 2
#     Edge 15, Type (0, 0), BuildingBlock: EYOCIG_clean_linker_4, # of connection points: 2
#     Edge 16, Type (0, 0), BuildingBlock: EYOCIG_clean_linker_4, # of connection points: 2
#     Edge 17, Type (0, 0), BuildingBlock: EYOCIG_clean_linker_4, # of connection points: 2
#     Edge 18, Type (0, 0), BuildingBlock: EYOCIG_clean_linker_4, # of connection points: 2
#     Edge 19, Type (0, 0), BuildingBlock: EYOCIG_clean_linker_4, # of connection points: 2
#     Edge 20, Type (0, 0), BuildingBlock: EYOCIG_clean_linker_4, # of connection points: 2
#     Edge 21, Type (0, 0), BuildingBlock: EYOCIG_clean_linker_4, # of connection points: 2
#     Edge 22, Type (0, 0), BuildingBlock: EYOCIG_clean_linker_4, # of connection points: 2
#     Edge 23, Type (0, 0), BuildingBlock: EYOCIG_clean_linker_4, # of connection points: 2
# Relax obj value: 0.198
# Max RMSD: 0.230
# Mean RMSD: 0.230
data_MOF--net-dia--node1-QUQFOY_clean_sbu_1--edge1-EYOCIG_clean_linker_4
_symmetry_space_group_name_H-M    P1
_symmetry_Int_Tables_number       1
_symmetry_cell_setting            triclinic
loop_
_symmetry_equiv_pos_as_xyz
'x, y, z'
_cell_length_a     27.877004
_cell_length_b     27.873424
_cell_length_c     30.905576
_cell_angle_alpha  89.996546
_cell_angle_beta   90.000833
_cell_angle_gamma 97.320792
loop_
_atom_site_label
_atom_site_type_symbol
_atom_site_fract_x
_atom_site_fract_y
_atom_site_fract_z
_atom_type_partial_charge
O0 O 0.1249 0.16267 0.59622 0.0
Cd1 Cd 0.08111 0.12134 0.6394 0.0
Cd2 Cd 0.15287 0.07101 0.63963 0.0
O3 O 0.19158 0.13281 0.61431 0.0
O4 O 0.03314 0.16398 0.65789 0.0
O5 O 0.08659 0.13816 0.70274 0.0
C6 C 0.05207 0.16401 0.69586 0.0
C7 C 0.18214 0.02836 0.69601 0.0
C8 C 0.17034 0.1633 0.59358 0.0
C9 C 0.06392 0.02921 0.59302 0.0
O10 O 0.10933 0.02974 0.5961 0.0
O11 O 0.04251 0.05969 0.6136 0.0
O12 O 0.20103 0.02853 0.65802 0.0
O13 O 0.14742 0.05395 0.70293 0.0
O14 O 0.80076 0.33822 0.93995 0.0
Cd15 Cd 0.84216 0.38145 0.89636 0.0
Cd16 Cd 0.89174 0.30936 0.89648 0.0
O17 O 0.82968 0.27107 0.92173 0.0
O18 O 0.79996 0.4297 0.87756 0.0
O19 O 0.82516 0.37555 0.83307 0.0
C20 C 0.79969 0.41043 0.83971 0.0
C21 C 0.93463 0.28047 0.84012 0.0
C22 C 0.79966 0.29273 0.94265 0.0
C23 C 0.93412 0.39802 0.94282 0.0
O24 O 0.93298 0.35253 0.94017 0.0
O25 O 0.90416 0.41969 0.92183 0.0
O26 O 0.93409 0.26115 0.87796 0.0
O27 O 0.90912 0.31529 0.83331 0.0
O28 O 0.62487 0.16239 0.09657 0.0
Cd29 Cd 0.58131 0.12096 0.13984 0.0
Cd30 Cd 0.65305 0.07086 0.13964 0.0
O31 O 0.69174 0.13296 0.11477 0.0
O32 O 0.53346 0.16356 0.15855 0.0
O33 O 0.5872 0.13776 0.20314 0.0
C34 C 0.55264 0.16362 0.19642 0.0
C35 C 0.68193 0.02734 0.19561 0.0
C36 C 0.67035 0.16334 0.09404 0.0
C37 C 0.56408 0.02915 0.09324 0.0
O38 O 0.60954 0.03002 0.09589 0.0
O39 O 0.54262 0.05928 0.11423 0.0
O40 O 0.70104 0.02804 0.15768 0.0
O41 O 0.64731 0.053 0.20274 0.0
O42 O 0.80003 0.83824 0.43977 0.0
Cd43 Cd 0.84146 0.88159 0.3963 0.0
Cd44 Cd 0.89161 0.80986 0.39645 0.0
O45 O 0.82978 0.77137 0.42209 0.0
O46 O 0.79895 0.92946 0.37734 0.0
O47 O 0.82457 0.87539 0.33301 0.0
C48 C 0.79881 0.91006 0.33955 0.0
C49 C 0.93393 0.78068 0.3398 0.0
C50 C 0.7993 0.7928 0.44265 0.0
C51 C 0.93381 0.89907 0.44234 0.0
O52 O 0.93314 0.85362 0.43963 0.0
O53 O 0.90328 0.92034 0.42169 0.0
O54 O 0.93398 0.76172 0.37776 0.0
O55 O 0.90826 0.81538 0.33307 0.0
O56 O 0.12369 0.66159 0.09618 0.0
Cd57 Cd 0.08039 0.62013 0.13974 0.0
Cd58 Cd 0.15276 0.57043 0.13954 0.0
O59 O 0.19085 0.63259 0.11422 0.0
O60 O 0.03181 0.6623 0.15782 0.0
O61 O 0.08569 0.63772 0.20293 0.0
C62 C 0.05078 0.66301 0.1958 0.0
C63 C 0.18222 0.52755 0.19564 0.0
C64 C 0.16919 0.66273 0.09346 0.0
C65 C 0.06376 0.52773 0.0938 0.0
O66 O 0.10927 0.52896 0.09621 0.0
O67 O 0.04221 0.55787 0.11469 0.0
O68 O 0.20119 0.52813 0.15766 0.0
O69 O 0.14745 0.55303 0.20274 0.0
O70 O 0.30114 0.33811 0.43968 0.0
Cd71 Cd 0.34223 0.38145 0.39597 0.0
Cd72 Cd 0.39224 0.30963 0.39626 0.0
O73 O 0.33044 0.27109 0.42169 0.0
O74 O 0.29962 0.42939 0.37735 0.0
O75 O 0.32492 0.3754 0.33276 0.0
C76 C 0.29927 0.41011 0.33951 0.0
C77 C 0.43532 0.2806 0.34016 0.0
C78 C 0.30026 0.29265 0.4425 0.0
C79 C 0.43449 0.39875 0.44194 0.0
O80 O 0.43346 0.35326 0.43956 0.0
O81 O 0.40425 0.42014 0.42103 0.0
O82 O 0.43491 0.26159 0.37812 0.0
O83 O 0.40956 0.31515 0.33307 0.0
O84 O 0.30022 0.8391 0.94007 0.0
Cd85 Cd 0.34203 0.882 0.8965 0.0
Cd86 Cd 0.39164 0.80951 0.89706 0.0
O87 O 0.32964 0.77182 0.9231 0.0
O88 O 0.30001 0.93052 0.87801 0.0
O89 O 0.32485 0.87644 0.83325 0.0
C90 C 0.29954 0.91139 0.8401 0.0
C91 C 0.43363 0.77933 0.84064 0.0
C92 C 0.29926 0.79366 0.94338 0.0
C93 C 0.43439 0.8989 0.94251 0.0
O94 O 0.43346 0.85341 0.93993 0.0
O95 O 0.40403 0.92032 0.9218 0.0
O96 O 0.4336 0.76078 0.87877 0.0
O97 O 0.40822 0.81417 0.83362 0.0
O98 O 0.62393 0.66176 0.59633 0.0
Cd99 Cd 0.58062 0.61991 0.63961 0.0
Cd100 Cd 0.65317 0.57047 0.63937 0.0
O101 O 0.69115 0.63273 0.61413 0.0
O102 O 0.53179 0.6617 0.65798 0.0
O103 O 0.58555 0.63674 0.70298 0.0
C104 C 0.55054 0.66195 0.69603 0.0
C105 C 0.68262 0.52766 0.69557 0.0
C106 C 0.66942 0.66291 0.59348 0.0
C107 C 0.56453 0.52796 0.59295 0.0
O108 O 0.61002 0.52911 0.59571 0.0
O109 O 0.54278 0.5579 0.61388 0.0
O110 O 0.70174 0.52835 0.65764 0.0
O111 O 0.64767 0.55294 0.70256 0.0
C112 C 0.24447 0.24528 0.50153 0.0
C113 C 0.26999 0.26679 0.47455 0.0
C114 C 0.21821 0.21914 0.53487 0.0
C115 C 0.19649 0.19358 0.56172 0.0
C116 C 0.71891 0.47326 0.75358 0.0
C117 C 0.70041 0.49883 0.72889 0.0
C118 C 0.74567 0.44643 0.78122 0.0
C119 C 0.77111 0.42799 0.80608 0.0
C120 C 0.5166 -0.02686 0.03439 0.0
C121 C 0.53808 -0.0012 0.06131 0.0
C122 C 0.49047 0.94673 1.00111 0.0
C123 C 0.46483 0.92497 0.97434 0.0
C124 C 0.98765 0.7444 0.28127 0.0
C125 C 0.96233 0.76295 0.30614 0.0
C126 C 0.01436 0.71749 0.25365 0.0
C127 C 0.0329 0.69189 0.22902 0.0
C128 C 0.24546 0.94771 0.7819 0.0
C129 C 0.27091 0.92916 0.80666 0.0
C130 C 0.21861 -0.02554 0.75429 0.0
C131 C 0.20001 -0.00015 0.72951 0.0
C132 C 0.98993 0.44523 1.00193 0.0
C133 C 0.96439 0.42381 0.97491 0.0
C134 C 0.01615 0.47142 0.03527 0.0
C135 C 0.03776 0.49718 0.06203 0.0
C136 C 0.49008 0.24473 0.28228 0.0
C137 C 0.4643 0.26307 0.30688 0.0
C138 C 0.51696 0.21793 0.25477 0.0
C139 C 0.53528 0.19232 0.23001 0.0
C140 C 0.74291 0.74529 0.50125 0.0
C141 C 0.76872 0.76684 0.47446 0.0
C142 C 0.7166 0.71908 0.53455 0.0
C143 C 0.69511 0.69341 0.56147 0.0
C144 C 0.21835 0.47295 0.25356 0.0
C145 C 0.19994 0.49862 0.2289 0.0
C146 C 0.24506 0.44604 0.28116 0.0
C147 C 0.27059 0.42763 0.30595 0.0
C148 C 0.74399 0.24568 1.00195 0.0
C149 C 0.76948 0.26698 0.97483 0.0
C150 C 0.7179 0.21961 0.03544 0.0
C151 C 0.69638 0.19384 0.06225 0.0
C152 C 0.74457 0.94559 0.28101 0.0
C153 C 0.77014 0.92732 0.30587 0.0
C154 C 0.71781 -0.02756 0.25342 0.0
C155 C 0.69949 -0.00175 0.22883 0.0
C156 C 0.99009 0.94696 0.50082 0.0
C157 C 0.96434 0.92524 0.47408 0.0
C158 C 0.01643 -0.02672 0.53407 0.0
C159 C 0.03802 -0.00114 0.56101 0.0
C160 C 0.98916 0.24477 0.78191 0.0
C161 C 0.96351 0.26303 0.80668 0.0
C162 C 0.01602 0.21812 0.75422 0.0
C163 C 0.03443 0.19263 0.7294 0.0
C164 C 0.51365 0.71548 0.75441 0.0
C165 C 0.53237 0.69029 0.72952 0.0
C166 C 0.48699 0.74225 0.78222 0.0
C167 C 0.46187 0.76105 0.80712 0.0
C168 C 0.21653 0.71941 0.03496 0.0
C169 C 0.19505 0.69347 0.0617 0.0
C170 C 0.24273 0.74622 1.00193 0.0
C171 C 0.26845 0.76809 0.97525 0.0
C172 C 0.491 0.44633 0.50034 0.0
C173 C 0.46509 0.42486 0.4736 0.0
C174 C 0.51736 0.47234 0.5337 0.0
C175 C 0.53884 0.49776 0.56077 0.0
loop_
_geom_bond_atom_site_label_1
_geom_bond_atom_site_label_2
_geom_bond_distance
_geom_bond_site_symmetry_2
_ccdc_geom_bond_type
O0 Cd1 2.223 . S
O0 C8 1.315 . S
Cd1 O0 2.223 . S
Cd1 O4 2.297 . S
Cd1 O5 2.439 . S
Cd1 O11 2.240 . S
Cd2 O3 2.240 . S
Cd2 O10 2.223 . S
Cd2 O12 2.297 . S
Cd2 O13 2.439 . S
O3 Cd2 2.240 . S
O3 C8 1.279 . S
O4 Cd1 2.297 . S
O4 C6 1.247 . S
O5 Cd1 2.439 . S
O5 C6 1.208 . S
C6 O4 1.247 . S
C6 O5 1.208 . S
C7 O12 1.247 . S
C7 O13 1.208 . S
C8 O0 1.315 . S
C8 O3 1.279 . S
C9 O10 1.315 . S
C9 O11 1.279 . S
O10 Cd2 2.223 . S
O10 C9 1.315 . S
O11 Cd1 2.240 . S
O11 C9 1.279 . S
O12 Cd2 2.297 . S
O12 C7 1.247 . S
O13 Cd2 2.439 . S
O13 C7 1.208 . S
O14 Cd15 2.223 . S
O14 C22 1.315 . S
Cd15 O14 2.223 . S
Cd15 O18 2.297 . S
Cd15 O19 2.439 . S
Cd15 O25 2.240 . S
Cd16 O17 2.240 . S
Cd16 O24 2.223 . S
Cd16 O26 2.297 . S
Cd16 O27 2.439 . S
O17 Cd16 2.240 . S
O17 C22 1.279 . S
O18 Cd15 2.297 . S
O18 C20 1.247 . S
O19 Cd15 2.439 . S
O19 C20 1.208 . S
C20 O18 1.247 . S
C20 O19 1.208 . S
C21 O26 1.247 . S
C21 O27 1.208 . S
C22 O14 1.315 . S
C22 O17 1.279 . S
C23 O24 1.315 . S
C23 O25 1.279 . S
O24 Cd16 2.223 . S
O24 C23 1.315 . S
O25 Cd15 2.240 . S
O25 C23 1.279 . S
O26 Cd16 2.297 . S
O26 C21 1.247 . S
O27 Cd16 2.439 . S
O27 C21 1.208 . S
O28 Cd29 2.223 . S
O28 C36 1.315 . S
Cd29 O28 2.223 . S
Cd29 O32 2.297 . S
Cd29 O33 2.439 . S
Cd29 O39 2.240 . S
Cd30 O31 2.240 . S
Cd30 O38 2.223 . S
Cd30 O40 2.297 . S
Cd30 O41 2.439 . S
O31 Cd30 2.240 . S
O31 C36 1.279 . S
O32 Cd29 2.297 . S
O32 C34 1.247 . S
O33 Cd29 2.439 . S
O33 C34 1.208 . S
C34 O32 1.247 . S
C34 O33 1.208 . S
C35 O40 1.247 . S
C35 O41 1.208 . S
C36 O28 1.315 . S
C36 O31 1.279 . S
C37 O38 1.315 . S
C37 O39 1.279 . S
O38 Cd30 2.223 . S
O38 C37 1.315 . S
O39 Cd29 2.240 . S
O39 C37 1.279 . S
O40 Cd30 2.297 . S
O40 C35 1.247 . S
O41 Cd30 2.439 . S
O41 C35 1.208 . S
O42 Cd43 2.223 . S
O42 C50 1.315 . S
Cd43 O42 2.223 . S
Cd43 O46 2.297 . S
Cd43 O47 2.439 . S
Cd43 O53 2.240 . S
Cd44 O45 2.240 . S
Cd44 O52 2.223 . S
Cd44 O54 2.297 . S
Cd44 O55 2.439 . S
O45 Cd44 2.240 . S
O45 C50 1.279 . S
O46 Cd43 2.297 . S
O46 C48 1.247 . S
O47 Cd43 2.439 . S
O47 C48 1.208 . S
C48 O46 1.247 . S
C48 O47 1.208 . S
C49 O54 1.247 . S
C49 O55 1.208 . S
C50 O42 1.315 . S
C50 O45 1.279 . S
C51 O52 1.315 . S
C51 O53 1.279 . S
O52 Cd44 2.223 . S
O52 C51 1.315 . S
O53 Cd43 2.240 . S
O53 C51 1.279 . S
O54 Cd44 2.297 . S
O54 C49 1.247 . S
O55 Cd44 2.439 . S
O55 C49 1.208 . S
O56 Cd57 2.223 . S
O56 C64 1.315 . S
Cd57 O56 2.223 . S
Cd57 O60 2.297 . S
Cd57 O61 2.439 . S
Cd57 O67 2.240 . S
Cd58 O59 2.240 . S
Cd58 O66 2.223 . S
Cd58 O68 2.297 . S
Cd58 O69 2.439 . S
O59 Cd58 2.240 . S
O59 C64 1.279 . S
O60 Cd57 2.297 . S
O60 C62 1.247 . S
O61 Cd57 2.439 . S
O61 C62 1.208 . S
C62 O60 1.247 . S
C62 O61 1.208 . S
C63 O68 1.247 . S
C63 O69 1.208 . S
C64 O56 1.315 . S
C64 O59 1.279 . S
C65 O66 1.315 . S
C65 O67 1.279 . S
O66 Cd58 2.223 . S
O66 C65 1.315 . S
O67 Cd57 2.240 . S
O67 C65 1.279 . S
O68 Cd58 2.297 . S
O68 C63 1.247 . S
O69 Cd58 2.439 . S
O69 C63 1.208 . S
O70 Cd71 2.223 . S
O70 C78 1.315 . S
Cd71 O70 2.223 . S
Cd71 O74 2.297 . S
Cd71 O75 2.439 . S
Cd71 O81 2.240 . S
Cd72 O73 2.240 . S
Cd72 O80 2.223 . S
Cd72 O82 2.297 . S
Cd72 O83 2.439 . S
O73 Cd72 2.240 . S
O73 C78 1.279 . S
O74 Cd71 2.297 . S
O74 C76 1.247 . S
O75 Cd71 2.439 . S
O75 C76 1.208 . S
C76 O74 1.247 . S
C76 O75 1.208 . S
C77 O82 1.247 . S
C77 O83 1.208 . S
C78 O70 1.315 . S
C78 O73 1.279 . S
C79 O80 1.315 . S
C79 O81 1.279 . S
O80 Cd72 2.223 . S
O80 C79 1.315 . S
O81 Cd71 2.240 . S
O81 C79 1.279 . S
O82 Cd72 2.297 . S
O82 C77 1.247 . S
O83 Cd72 2.439 . S
O83 C77 1.208 . S
O84 Cd85 2.223 . S
O84 C92 1.315 . S
Cd85 O84 2.223 . S
Cd85 O88 2.297 . S
Cd85 O89 2.439 . S
Cd85 O95 2.240 . S
Cd86 O87 2.240 . S
Cd86 O94 2.223 . S
Cd86 O96 2.297 . S
Cd86 O97 2.439 . S
O87 Cd86 2.240 . S
O87 C92 1.279 . S
O88 Cd85 2.297 . S
O88 C90 1.247 . S
O89 Cd85 2.439 . S
O89 C90 1.208 . S
C90 O88 1.247 . S
C90 O89 1.208 . S
C91 O96 1.247 . S
C91 O97 1.208 . S
C92 O84 1.315 . S
C92 O87 1.279 . S
C93 O94 1.315 . S
C93 O95 1.279 . S
O94 Cd86 2.223 . S
O94 C93 1.315 . S
O95 Cd85 2.240 . S
O95 C93 1.279 . S
O96 Cd86 2.297 . S
O96 C91 1.247 . S
O97 Cd86 2.439 . S
O97 C91 1.208 . S
O98 Cd99 2.223 . S
O98 C106 1.315 . S
Cd99 O98 2.223 . S
Cd99 O102 2.297 . S
Cd99 O103 2.439 . S
Cd99 O109 2.240 . S
Cd100 O101 2.240 . S
Cd100 O108 2.223 . S
Cd100 O110 2.297 . S
Cd100 O111 2.439 . S
O101 Cd100 2.240 . S
O101 C106 1.279 . S
O102 Cd99 2.297 . S
O102 C104 1.247 . S
O103 Cd99 2.439 . S
O103 C104 1.208 . S
C104 O102 1.247 . S
C104 O103 1.208 . S
C105 O110 1.247 . S
C105 O111 1.208 . S
C106 O98 1.315 . S
C106 O101 1.279 . S
C107 O108 1.315 . S
C107 O109 1.279 . S
O108 Cd100 2.223 . S
O108 C107 1.315 . S
O109 Cd99 2.240 . S
O109 C107 1.279 . S
O110 Cd100 2.297 . S
O110 C105 1.247 . S
O111 Cd100 2.439 . S
O111 C105 1.208 . S
C112 C113 1.170 . S
C112 C114 1.380 . S
C113 C112 1.170 . S
C114 C112 1.380 . S
C114 C115 1.170 . S
C115 C114 1.170 . S
C116 C117 1.170 . S
C116 C118 1.380 . S
C117 C116 1.170 . S
C118 C116 1.380 . S
C118 C119 1.170 . S
C119 C118 1.170 . S
C120 C121 1.170 . S
C120 C122 1.380 1_544 S
C121 C120 1.170 . S
C122 C120 1.380 1_566 S
C122 C123 1.170 . S
C123 C122 1.170 . S
C124 C125 1.170 1_455 S
C124 C126 1.380 . S
C125 C124 1.170 1_655 S
C126 C124 1.380 . S
C126 C127 1.170 . S
C127 C126 1.170 . S
C128 C129 1.170 . S
C128 C130 1.380 . S
C129 C128 1.170 . S
C130 C128 1.380 . S
C130 C131 1.170 1_565 S
C131 C130 1.170 1_545 S
C132 C133 1.170 . S
C132 C134 1.381 1_656 S
C133 C132 1.170 . S
C134 C132 1.381 1_454 S
C134 C135 1.170 . S
C135 C134 1.170 . S
C136 C137 1.170 . S
C136 C138 1.380 . S
C137 C136 1.170 . S
C138 C136 1.380 . S
C138 C139 1.170 . S
C139 C138 1.170 . S
C140 C141 1.170 . S
C140 C142 1.380 . S
C141 C140 1.170 . S
C142 C140 1.380 . S
C142 C143 1.170 . S
C143 C142 1.170 . S
C144 C145 1.170 . S
C144 C146 1.380 . S
C145 C144 1.170 . S
C146 C144 1.380 . S
C146 C147 1.170 . S
C147 C146 1.170 . S
C148 C149 1.170 . S
C148 C150 1.380 1_556 S
C149 C148 1.170 . S
C150 C148 1.380 1_554 S
C150 C151 1.170 . S
C151 C150 1.170 . S
C152 C153 1.170 . S
C152 C154 1.380 . S
C153 C152 1.170 . S
C154 C152 1.380 . S
C154 C155 1.170 1_565 S
C155 C154 1.170 1_545 S
C156 C157 1.170 1_455 S
C156 C158 1.380 1_565 S
C157 C156 1.170 1_655 S
C158 C156 1.380 1_545 S
C158 C159 1.170 . S
C159 C158 1.170 . S
C160 C161 1.170 1_455 S
C160 C162 1.380 . S
C161 C160 1.170 1_655 S
C162 C160 1.380 . S
C162 C163 1.170 . S
C163 C162 1.170 . S
C164 C165 1.170 . S
C164 C166 1.380 . S
C165 C164 1.170 . S
C166 C164 1.380 . S
C166 C167 1.170 . S
C167 C166 1.170 . S
C168 C169 1.170 . S
C168 C170 1.380 1_554 S
C169 C168 1.170 . S
C170 C168 1.380 1_556 S
C170 C171 1.170 . S
C171 C170 1.170 . S
C172 C173 1.170 . S
C172 C174 1.380 . S
C173 C172 1.170 . S
C174 C172 1.380 . S
C174 C175 1.170 . S
C175 C174 1.170 . S
C113 C78 1.595 . S
C115 C8 1.596 . S
C117 C105 1.523 . S
C119 C20 1.551 . S
C121 C37 1.595 . S
C123 C93 1.596 . S
C125 C49 1.546 . S
C127 C62 1.514 . S
C129 C90 1.520 . S
C131 C7 1.527 . S
C133 C23 1.589 . S
C135 C65 1.593 . S
C137 C77 1.533 . S
C139 C34 1.548 . S
C141 C50 1.592 . S
C143 C106 1.589 . S
C145 C63 1.525 . S
C147 C76 1.551 . S
C149 C22 1.590 . S
C151 C36 1.593 . S
C153 C48 1.550 . S
C155 C35 1.527 . S
C157 C51 1.596 . S
C159 C9 1.593 . S
C161 C21 1.541 . S
C163 C6 1.542 . S
C165 C104 1.523 . S
C167 C91 1.523 . S
C169 C64 1.589 . S
C171 C92 1.588 . S
C173 C79 1.592 . S
C175 C107 1.589 . S
