# Generated by pormake.
# Topology pcu, (6)-cn, num edge types: 1
# Building blocks:
#     Node 0, Type 0, BuildingBlock: INOVEN_clean_sbu_0, # of connection points: 6
#     Edge 1, Type (0, 0), BuildingBlock: ZUJKAS_clean_linker_0, # of connection points: 2
#     Edge 2, Type (0, 0), BuildingBlock: ZUJKAS_clean_linker_0, # of connection points: 2
#     Edge 3, Type (0, 0), BuildingBlock: ZUJKAS_clean_linker_0, # of connection points: 2
# Relax obj value: 0.000
# Max RMSD: 0.000
# Mean RMSD: 0.000
data_MOF--net-pcu--node1-INOVEN_clean_sbu_0--edge1-ZUJKAS_clean_linker_0
_symmetry_space_group_name_H-M    P1
_symmetry_Int_Tables_number       1
_symmetry_cell_setting            triclinic
loop_
_symmetry_equiv_pos_as_xyz
'x, y, z'
_cell_length_a     30.022939
_cell_length_b     19.883711
_cell_length_c     18.927657
_cell_angle_alpha  85.398197
_cell_angle_beta   97.631395
_cell_angle_gamma 124.89
loop_
_atom_site_label
_atom_site_type_symbol
_atom_site_fract_x
_atom_site_fract_y
_atom_site_fract_z
_atom_type_partial_charge
Gd0 Gd 0.96261 0.93806 0.01837 0.0
Gd1 Gd 0.08371 0.04204 1.00026 0.0
C2 C 0.02817 0.13618 0.99625 0.0
C3 C 0.86682 0.88219 0.05556 0.0
C4 C 0.82629 0.90367 0.04784 0.0
C5 C 0.79921 0.90341 0.98107 0.0
C6 C 0.81223 0.92056 0.10877 0.0
C7 C 0.74389 0.93442 0.03679 0.0
C8 C 0.77175 0.93593 0.10337 0.0
C9 C 0.75861 0.91859 0.97565 0.0
C10 C 0.9859 0.95073 0.88265 0.0
C11 C 1.01812 0.84392 0.02205 0.0
C12 C 0.17967 0.09811 0.96356 0.0
C13 C 0.22013 0.07649 0.97121 0.0
C14 C 0.24728 0.07679 0.03794 0.0
C15 C 0.23412 0.05951 0.91025 0.0
C16 C 0.30247 0.04562 0.98214 0.0
C17 C 0.27456 0.04407 0.91559 0.0
C18 C 0.28784 0.06154 0.0433 0.0
C19 C 0.06006 0.02919 0.13591 0.0
O20 O 0.9872 0.06797 0.02243 0.0
O21 O 0.06854 0.13908 0.97216 0.0
O22 O 0.87436 0.8583 0.99855 0.0
O23 O 0.91232 0.92906 0.09651 0.0
O24 O 0.94522 0.88532 0.90932 0.0
O25 O 1.01042 0.00822 0.92739 0.0
O26 O 0.05908 0.91214 0.99586 0.0
O27 O 0.97781 0.84102 0.0463 0.0
O28 O 0.17194 0.12152 0.0207 0.0
O29 O 0.1343 0.05164 0.92226 0.0
O30 O 0.10068 0.09477 0.10932 0.0
O31 O 0.03593 0.97183 0.09112 0.0
H32 H 0.80869 0.89024 0.93292 0.0
H33 H 0.8322 0.92098 0.16097 0.0
H34 H 0.76238 0.94915 0.15158 0.0
H35 H 0.73779 0.91581 0.92354 0.0
H36 H 0.23787 0.09005 0.08611 0.0
H37 H 0.21412 0.05908 0.85807 0.0
H38 H 0.28388 0.03079 0.86736 0.0
H39 H 0.30871 0.06435 0.09539 0.0
H40 H 0.98404 0.89132 0.20576 0.0
H41 H 0.97036 0.87812 0.33268 0.0
H42 H 0.10073 0.13365 0.36371 0.0
H43 H 0.11404 0.14733 0.23742 0.0
H44 H 0.04592 0.90728 0.45146 0.0
H45 H 0.97757 0.11371 0.45408 0.0
H46 H 0.97924 0.07414 0.37262 0.0
H47 H 0.04096 0.1597 0.41667 0.0
C48 C 1.00943 0.9447 0.23966 0.0
C49 C 0.05002 0.02039 0.2117 0.0
C50 C 1.00167 0.93711 0.31211 0.0
C51 C 0.03401 0.00519 0.3576 0.0
C52 C 0.07451 0.08069 0.32952 0.0
H53 H 0.062 0.08828 0.81259 0.0
H54 H 0.07544 0.10118 0.68561 0.0
C55 C 0.08229 0.08828 0.25734 0.0
C56 C 0.02695 -0.00298 0.43489 0.0
H57 H 0.9995 0.07193 0.56696 0.0
C58 C 0.0354 0.94285 0.47664 0.0
C59 C 1.01357 0.04385 0.46787 0.0
C60 C 1.0018 0.10059 0.42548 0.0
C61 C 0.03183 0.93533 0.55055 0.0
C62 C 1.01849 0.9822 0.58352 0.0
C63 C 1.01001 0.03635 0.54178 0.0
C64 C 1.01154 0.97417 0.66085 0.0
C65 C 0.04356 0.87855 0.59295 0.0
C66 C 0.97098 0.8988 0.68904 0.0
C67 C 0.96332 0.89137 0.76125 0.0
C68 C 0.99579 0.95931 0.80682 0.0
C69 C 0.03645 0.03486 0.77874 0.0
C70 C 0.04408 0.04229 0.70626 0.0
H71 H 0.06763 0.86518 0.56427 0.0
H72 H 0.06626 0.90512 0.64572 0.0
H73 H 1.00438 0.81956 0.60196 0.0
H74 H 0.94464 0.84582 0.6549 0.0
H75 H 0.93152 0.83243 0.78126 0.0
H76 H 0.38046 0.09867 0.89026 0.0
H77 H 0.45355 0.0774 0.89913 0.0
H78 H 0.40168 0.94541 0.09657 0.0
H79 H 0.3271 0.96349 0.08676 0.0
H80 H 0.53976 0.12755 1.00198 0.0
H81 H 0.4113 0.78816 0.98683 0.0
H82 H 0.38365 0.8483 0.96478 0.0
H83 H 0.3971 0.82738 0.05643 0.0
C84 C 0.38384 0.06382 0.93503 0.0
C85 C 0.34726 0.03234 0.98749 0.0
C86 C 0.42611 0.05231 0.94032 0.0
C87 C 0.43286 0.00868 0.99794 0.0
C88 C 0.39682 0.97781 0.05076 0.0
H89 H 0.66582 0.88125 0.12856 0.0
H90 H 0.59271 0.90249 0.11963 0.0
C91 C 0.35447 -0.01082 0.0455 0.0
C92 C 0.47844 -0.00249 1.00357 0.0
H93 H 0.50655 0.85238 0.01678 0.0
C94 C 0.53244 0.06734 1.00485 0.0
C95 C 0.46912 0.91899 1.00749 0.0
C96 C 0.41216 0.84137 1.00315 0.0
C97 C 0.57719 0.06094 0.01127 0.0
C98 C 0.56787 0.98243 0.01519 0.0
C99 C 0.51388 0.9126 0.0139 0.0
C100 C 0.61345 0.97126 0.02084 0.0
C101 C 0.63415 0.13857 0.01562 0.0
C102 C 0.64953 0.00216 0.96806 0.0
C103 C 0.69189 -0.00918 0.97336 0.0
C104 C 0.69908 0.94764 0.03137 0.0
C105 C 0.66246 0.91611 0.08379 0.0
C106 C 0.62018 0.92761 0.07846 0.0
H107 H 0.635 0.19178 0.03195 0.0
H108 H 0.66265 0.13164 0.054 0.0
H109 H 0.64922 0.15257 0.96234 0.0
H110 H 0.64469 0.03458 0.92226 0.0
H111 H 0.71929 0.01654 0.93214 0.0
H112 H 0.09505 0.83165 0.9756 0.0
H113 H 0.09501 0.70983 0.97174 0.0
H114 H 0.94366 0.56751 0.06765 0.0
H115 H 0.94265 0.68972 0.07083 0.0
H116 H 0.09428 0.60926 0.08426 0.0
H117 H 0.91197 0.44024 0.88522 0.0
H118 H 0.94724 0.54845 0.90157 0.0
H119 H 0.90186 0.47433 0.96294 0.0
C120 C 0.06159 0.77463 0.99601 0.0
C121 C 1.01856 0.77017 0.02319 0.0
C122 C 0.06179 0.70514 0.99377 0.0
C123 C 1.01904 0.6299 0.01852 0.0
C124 C 0.97651 0.62512 0.04716 0.0
H125 H 0.95119 0.14848 0.04246 0.0
H126 H 0.95122 0.27031 0.04613 0.0
C127 C 0.97616 0.69489 0.04929 0.0
C128 C 1.01959 0.55686 0.01403 0.0
H129 H 0.952 0.37086 0.93362 0.0
C130 C 0.06326 0.55703 0.05136 0.0
C131 C 0.97915 0.48954 0.97058 0.0
C132 C 0.93259 0.48798 0.92723 0.0
C133 C 0.06713 0.49059 0.04731 0.0
C134 C 0.02668 0.42325 1.00386 0.0
C135 C 0.98302 0.4231 0.96652 0.0
C136 C 0.02722 0.3502 0.99942 0.0
C137 C 0.11368 0.49214 0.09067 0.0
C138 C 0.06976 0.35495 0.97086 0.0
C139 C 0.07012 0.28517 0.96883 0.0
C140 C 0.02771 0.20991 0.99496 0.0
C141 C 0.98465 0.20548 0.02203 0.0
C142 C 0.98444 0.27498 0.02416 0.0
H143 H 0.13429 0.53988 0.13268 0.0
H144 H 0.09903 0.43167 0.11634 0.0
H145 H 0.14441 0.50578 0.05497 0.0
H146 H 0.10262 0.41253 0.95036 0.0
H147 H 0.10365 0.29032 0.94736 0.0
loop_
_geom_bond_atom_site_label_1
_geom_bond_atom_site_label_2
_geom_bond_distance
_geom_bond_site_symmetry_2
_ccdc_geom_bond_type
Gd0 C3 2.818 . S
Gd0 O20 2.377 1_565 S
Gd0 O22 2.448 . S
Gd0 O23 2.506 1_556 S
Gd0 O24 2.435 . S
Gd0 O25 2.717 1_665 S
Gd0 O27 2.395 . S
Gd0 O31 2.327 1_556 S
Gd1 C12 2.818 . S
Gd1 O21 2.395 . S
Gd1 O25 2.327 1_554 S
Gd1 O26 2.377 1_545 S
Gd1 O28 2.448 . S
Gd1 O29 2.506 1_554 S
Gd1 O30 2.435 . S
Gd1 O31 2.717 1_445 S
C2 O20 1.240 1_455 S
C2 O21 1.240 1_556 S
C3 Gd0 2.818 . S
C3 C4 1.510 . S
C3 O22 1.249 . S
C3 O23 1.252 1_556 S
C4 C3 1.510 . S
C4 C5 1.404 . S
C4 C6 1.352 1_566 S
C5 C4 1.404 . S
C5 C9 1.389 . S
C5 H32 0.930 . S
C6 C4 1.352 1_544 S
C6 C8 1.374 . S
C6 H33 0.931 . S
C7 C8 1.359 1_565 S
C7 C9 1.364 1_554 S
C8 C6 1.374 . S
C8 C7 1.359 1_545 S
C8 H34 0.931 . S
C9 C5 1.389 . S
C9 C7 1.364 1_556 S
C9 H35 0.931 . S
C10 O24 1.256 . S
C10 O25 1.257 1_665 S
C11 O26 1.240 1_655 S
C11 O27 1.240 1_554 S
C12 Gd1 2.818 . S
C12 C13 1.510 . S
C12 O28 1.249 . S
C12 O29 1.252 1_554 S
C13 C12 1.510 . S
C13 C14 1.404 . S
C13 C15 1.352 1_544 S
C14 C13 1.404 . S
C14 C18 1.389 . S
C14 H36 0.930 . S
C15 C13 1.352 1_566 S
C15 C17 1.374 . S
C15 H37 0.931 . S
C16 C17 1.359 1_545 S
C16 C18 1.364 1_556 S
C17 C15 1.374 . S
C17 C16 1.359 1_565 S
C17 H38 0.931 . S
C18 C14 1.389 . S
C18 C16 1.364 1_554 S
C18 H39 0.931 . S
C19 O30 1.256 . S
C19 O31 1.257 1_445 S
O20 Gd0 2.377 1_545 S
O20 C2 1.240 1_655 S
O21 Gd1 2.395 . S
O21 C2 1.240 1_554 S
O22 Gd0 2.448 . S
O22 C3 1.249 . S
O23 Gd0 2.506 1_554 S
O23 C3 1.252 1_554 S
O24 Gd0 2.435 . S
O24 C10 1.256 . S
O25 Gd0 2.717 1_445 S
O25 Gd1 2.327 1_556 S
O25 C10 1.257 1_445 S
O26 Gd1 2.377 1_565 S
O26 C11 1.240 1_455 S
O27 Gd0 2.395 . S
O27 C11 1.240 1_556 S
O28 Gd1 2.448 . S
O28 C12 1.249 . S
O29 Gd1 2.506 1_556 S
O29 C12 1.252 1_556 S
O30 Gd1 2.435 . S
O30 C19 1.256 . S
O31 Gd0 2.327 1_554 S
O31 Gd1 2.717 1_665 S
O31 C19 1.257 1_665 S
H32 C5 0.930 . S
H33 C6 0.931 . S
H34 C8 0.931 . S
H35 C9 0.931 . S
H36 C14 0.930 . S
H37 C15 0.931 . S
H38 C17 0.931 . S
H39 C18 0.931 . S
H40 C48 0.929 . S
H41 C50 0.930 . S
H42 C52 0.930 . S
H43 C55 0.929 . S
H44 C58 0.930 . S
H45 C60 0.960 . S
H46 C60 0.960 . S
H47 C60 0.960 . S
C48 H40 0.929 . S
C48 C49 1.385 1_565 S
C48 C50 1.384 . S
C49 C48 1.385 1_545 S
C49 C55 1.384 1_655 S
C50 H41 0.930 . S
C50 C48 1.384 . S
C50 C51 1.372 . S
C51 C50 1.372 . S
C51 C52 1.400 1_665 S
C51 C56 1.490 . S
C52 H42 0.930 . S
C52 C51 1.400 1_445 S
C52 C55 1.386 . S
H53 C69 0.930 . S
H54 C70 0.931 . S
C55 H43 0.929 . S
C55 C49 1.384 1_455 S
C55 C52 1.386 . S
C56 C51 1.490 . S
C56 C58 1.395 . S
C56 C59 1.403 1_665 S
H57 C63 0.930 . S
C58 H44 0.930 . S
C58 C56 1.395 . S
C58 C61 1.403 . S
C59 C56 1.403 1_445 S
C59 C60 1.524 . S
C59 C63 1.400 . S
C60 H45 0.960 . S
C60 H46 0.960 . S
C60 H47 0.960 . S
C60 C59 1.524 . S
C61 C58 1.403 . S
C61 C62 1.392 . S
C61 C65 1.495 . S
C62 C61 1.392 . S
C62 C63 1.385 1_665 S
C62 C64 1.478 . S
C63 H57 0.930 . S
C63 C59 1.400 . S
C63 C62 1.385 1_445 S
C64 C62 1.478 . S
C64 C66 1.381 . S
C64 C70 1.383 1_665 S
C65 C61 1.495 . S
C65 H71 0.959 . S
C65 H72 0.961 . S
C65 H73 0.960 . S
C66 C64 1.381 . S
C66 C67 1.394 . S
C66 H74 0.930 . S
C67 C66 1.394 . S
C67 C68 1.383 . S
C67 H75 0.929 . S
C68 C67 1.383 . S
C68 C69 1.377 1_665 S
C69 H53 0.930 . S
C69 C68 1.377 1_445 S
C69 C70 1.379 . S
C70 H54 0.931 . S
C70 C64 1.383 1_445 S
C70 C69 1.379 . S
H71 C65 0.959 . S
H72 C65 0.961 . S
H73 C65 0.960 . S
H74 C66 0.930 . S
H75 C67 0.929 . S
H76 C84 0.929 . S
H77 C86 0.930 . S
H78 C88 0.930 . S
H79 C91 0.929 . S
H80 C94 0.930 . S
H81 C96 0.960 . S
H82 C96 0.960 1_556 S
H83 C96 0.960 . S
C84 H76 0.929 . S
C84 C85 1.390 1_545 S
C84 C86 1.384 . S
C85 C84 1.390 1_565 S
C85 C91 1.385 1_556 S
C86 H77 0.930 . S
C86 C84 1.384 . S
C86 C87 1.372 . S
C87 C86 1.372 . S
C87 C88 1.400 1_546 S
C87 C92 1.490 . S
C88 H78 0.930 . S
C88 C87 1.400 1_564 S
C88 C91 1.386 . S
H89 C105 0.930 . S
H90 C106 0.931 . S
C91 H79 0.929 . S
C91 C85 1.385 1_554 S
C91 C88 1.386 . S
C92 C87 1.490 . S
C92 C94 1.395 . S
C92 C95 1.403 1_546 S
H93 C99 0.930 . S
C94 H80 0.930 . S
C94 C92 1.395 . S
C94 C97 1.403 . S
C95 C92 1.403 1_564 S
C95 C96 1.524 . S
C95 C99 1.400 . S
C96 H81 0.960 . S
C96 H82 0.960 1_554 S
C96 H83 0.960 . S
C96 C95 1.524 . S
C97 C94 1.403 . S
C97 C98 1.392 . S
C97 C101 1.495 . S
C98 C97 1.392 . S
C98 C99 1.385 1_546 S
C98 C100 1.478 . S
C99 H93 0.930 . S
C99 C95 1.400 . S
C99 C98 1.385 1_564 S
C100 C98 1.478 . S
C100 C102 1.381 . S
C100 C106 1.383 1_546 S
C101 C97 1.495 . S
C101 H107 0.959 . S
C101 H108 0.961 1_556 S
C101 H109 0.960 . S
C102 C100 1.381 . S
C102 C103 1.394 . S
C102 H110 0.930 . S
C103 C102 1.394 . S
C103 C104 1.383 . S
C103 H111 0.929 . S
C104 C103 1.383 . S
C104 C105 1.377 1_546 S
C105 H89 0.930 . S
C105 C104 1.377 1_564 S
C105 C106 1.379 . S
C106 H90 0.931 . S
C106 C100 1.383 1_564 S
C106 C105 1.379 . S
H107 C101 0.959 . S
H108 C101 0.961 1_554 S
H109 C101 0.960 . S
H110 C102 0.930 . S
H111 C103 0.929 . S
H112 C120 0.929 . S
H113 C122 0.930 . S
H114 C124 0.930 . S
H115 C127 0.929 . S
H116 C130 0.930 . S
H117 C132 0.960 . S
H118 C132 0.960 . S
H119 C132 0.960 . S
C120 H112 0.929 . S
C120 C121 1.388 . S
C120 C122 1.384 . S
C121 C120 1.388 . S
C121 C127 1.382 1_456 S
C122 H113 0.930 . S
C122 C120 1.384 . S
C122 C123 1.372 . S
C123 C122 1.372 . S
C123 C124 1.400 1_456 S
C123 C128 1.490 . S
C124 H114 0.930 . S
C124 C123 1.400 1_654 S
C124 C127 1.386 . S
H125 C141 0.930 . S
H126 C142 0.931 . S
C127 H115 0.929 . S
C127 C121 1.382 1_654 S
C127 C124 1.386 . S
C128 C123 1.490 . S
C128 C130 1.395 1_556 S
C128 C131 1.403 1_455 S
H129 C135 0.930 . S
C130 H116 0.930 . S
C130 C128 1.395 1_554 S
C130 C133 1.403 . S
C131 C128 1.403 1_655 S
C131 C132 1.524 . S
C131 C135 1.400 . S
C132 H117 0.960 . S
C132 H118 0.960 . S
C132 H119 0.960 . S
C132 C131 1.524 . S
C133 C130 1.403 . S
C133 C134 1.392 . S
C133 C137 1.495 . S
C134 C133 1.392 . S
C134 C135 1.385 1_454 S
C134 C136 1.478 . S
C135 H129 0.930 . S
C135 C131 1.400 . S
C135 C134 1.385 1_656 S
C136 C134 1.478 . S
C136 C138 1.381 1_554 S
C136 C142 1.383 1_455 S
C137 C133 1.495 . S
C137 H143 0.959 . S
C137 H144 0.961 . S
C137 H145 0.960 . S
C138 C136 1.381 1_556 S
C138 C139 1.394 . S
C138 H146 0.930 . S
C139 C138 1.394 . S
C139 C140 1.383 1_556 S
C139 H147 0.929 . S
C140 C139 1.383 1_554 S
C140 C141 1.377 1_455 S
C141 H125 0.930 . S
C141 C140 1.377 1_655 S
C141 C142 1.379 . S
C142 H126 0.931 . S
C142 C136 1.383 1_655 S
C142 C141 1.379 . S
H143 C137 0.959 . S
H144 C137 0.961 . S
H145 C137 0.960 . S
H146 C138 0.930 . S
H147 C139 0.929 . S
C49 C19 1.458 1_655 S
C68 C10 1.449 . S
C85 C16 1.492 1_565 S
C104 C7 1.499 1_546 S
C121 C11 1.493 1_456 S
C140 C2 1.493 1_554 S
