# Generated by pormake.
# Topology qtz, (4)-cn, num edge types: 1
# Building blocks:
#     Node 0, Type 0, BuildingBlock: GALJAG_clean_sbu_0, # of connection points: 4
#     Node 1, Type 0, BuildingBlock: GALJAG_clean_sbu_0, # of connection points: 4
#     Node 2, Type 0, BuildingBlock: GALJAG_clean_sbu_0, # of connection points: 4
#     Edge 3, Type (0, 0), BuildingBlock: XIVTED_clean_linker_0, # of connection points: 2
#     Edge 4, Type (0, 0), BuildingBlock: XIVTED_clean_linker_0, # of connection points: 2
#     Edge 5, Type (0, 0), BuildingBlock: XIVTED_clean_linker_0, # of connection points: 2
#     Edge 6, Type (0, 0), BuildingBlock: XIVTED_clean_linker_0, # of connection points: 2
#     Edge 7, Type (0, 0), BuildingBlock: XIVTED_clean_linker_0, # of connection points: 2
#     Edge 8, Type (0, 0), BuildingBlock: XIVTED_clean_linker_0, # of connection points: 2
# Relax obj value: 0.004
# Max RMSD: 0.037
# Mean RMSD: 0.037
data_MOF--net-qtz--node1-GALJAG_clean_sbu_0--edge1-XIVTED_clean_linker_0
_symmetry_space_group_name_H-M    P1
_symmetry_Int_Tables_number       1
_symmetry_cell_setting            triclinic
loop_
_symmetry_equiv_pos_as_xyz
'x, y, z'
_cell_length_a     25.000941
_cell_length_b     25.009185
_cell_length_c     26.736303
_cell_angle_alpha  90.151223
_cell_angle_beta   90.161062
_cell_angle_gamma 119.97764
loop_
_atom_site_label
_atom_site_type_symbol
_atom_site_fract_x
_atom_site_fract_y
_atom_site_fract_z
_atom_type_partial_charge
In0 In 0.00188 0.50191 0.16129 0.0
O1 O 0.95726 0.40629 0.19813 0.0
O2 O 0.9217 0.46516 0.21594 0.0
C3 C 0.0825 0.49272 0.10025 0.0
C4 C 0.92996 0.5185 0.09471 0.0
C5 C 0.08335 0.58879 0.22487 0.0
O6 O 0.04027 0.44646 0.12262 0.0
O7 O 0.08309 0.54279 0.1081 0.0
O8 O 0.04819 0.59806 0.19679 0.0
O9 O 0.07658 0.53544 0.22161 0.0
C10 C 0.91822 0.41367 0.22239 0.0
O11 O 0.95529 0.55404 0.13154 0.0
O12 O 0.94103 0.47464 0.09125 0.0
In13 In 0.50149 0.00385 0.49866 0.0
O14 O 0.59596 0.04441 0.46027 0.0
O15 O 0.54374 0.08895 0.44897 0.0
C16 C 0.51053 0.9228 0.55932 0.0
C17 C 0.48268 0.07446 0.56499 0.0
C18 C 0.41472 0.9246 0.43379 0.0
O19 O 0.55745 0.96803 0.54022 0.0
O20 O 0.45977 0.9194 0.54845 0.0
O21 O 0.40467 0.95712 0.46426 0.0
O22 O 0.46879 0.93297 0.43531 0.0
C23 C 0.59268 0.08809 0.43987 0.0
O24 O 0.45092 0.05322 0.52564 0.0
O25 O 0.52381 0.05987 0.57112 0.0
In26 In 0.50427 0.50256 0.8296 0.0
O27 O 0.55942 0.59552 0.78913 0.0
O28 O 0.4634 0.54044 0.77396 0.0
C29 C 0.60948 0.53035 0.87928 0.0
C30 C 0.41674 0.49364 0.89351 0.0
C31 C 0.47481 0.39754 0.77918 0.0
O32 O 0.60305 0.5192 0.83294 0.0
O33 O 0.56374 0.52912 0.90009 0.0
O34 O 0.48298 0.40226 0.82595 0.0
O35 O 0.48 0.44501 0.75829 0.0
C36 C 0.51292 0.59002 0.76577 0.0
O37 O 0.41194 0.44704 0.87087 0.0
O38 O 0.4657 0.54346 0.88461 0.0
H39 H 0.41552 0.59058 0.9384 0.0
H40 H 0.08926 0.39032 0.07269 0.0
H41 H 0.30715 0.39259 0.922 0.0
H42 H 0.18295 0.5884 0.05696 0.0
H43 H 0.17072 0.38835 0.02294 0.0
H44 H 0.33358 0.58883 0.98852 0.0
C45 C 0.37449 0.54659 0.94556 0.0
C46 C 0.36806 0.49163 0.92593 0.0
C47 C 0.17319 0.43212 0.03031 0.0
C48 C 0.27364 0.48929 0.98334 0.0
C49 C 0.12682 0.43329 0.05864 0.0
C50 C 0.12943 0.48963 0.06892 0.0
C51 C 0.22262 0.48775 0.01264 0.0
C52 C 0.17904 0.54394 0.04991 0.0
C53 C 0.32754 0.54566 0.97405 0.0
C54 C 0.31384 0.43601 0.93642 0.0
N55 N 0.22371 0.54164 0.02291 0.0
N56 N 0.26857 0.43621 0.9645 0.0
H57 H 0.82441 0.41714 0.27094 0.0
H58 H 0.698 0.09117 0.40663 0.0
H59 H 0.90541 0.30175 0.24864 0.0
H60 H 0.59957 0.1919 0.40107 0.0
H61 H 0.77881 0.17042 0.35391 0.0
H62 H 0.74618 0.33791 0.3243 0.0
C63 C 0.82577 0.37508 0.27735 0.0
C64 C 0.87139 0.36593 0.25525 0.0
C65 C 0.73945 0.17503 0.36423 0.0
C66 C 0.78184 0.27484 0.31648 0.0
C67 C 0.69344 0.12994 0.39434 0.0
C68 C 0.64203 0.135 0.40816 0.0
C69 C 0.73413 0.22568 0.34827 0.0
C70 C 0.63835 0.1861 0.39122 0.0
C71 C 0.78098 0.32976 0.30776 0.0
C72 C 0.87092 0.31054 0.26489 0.0
N73 N 0.6838 0.22946 0.36232 0.0
N74 N 0.82683 0.26703 0.2949 0.0
H75 H 0.61382 0.92124 0.59262 0.0
H76 H 0.41637 0.58814 0.71729 0.0
H77 H 0.4147 0.8173 0.59648 0.0
H78 H 0.61283 0.70224 0.7407 0.0
H79 H 0.41725 0.66958 0.66713 0.0
H80 H 0.61669 0.84015 0.64219 0.0
C81 C 0.57079 0.88149 0.60401 0.0
C82 C 0.51393 0.87592 0.59048 0.0
C83 C 0.46029 0.677 0.68313 0.0
C84 C 0.51685 0.78316 0.64658 0.0
C85 C 0.45986 0.63034 0.71167 0.0
C86 C 0.51462 0.6385 0.73328 0.0
C87 C 0.51595 0.73241 0.67584 0.0
C88 C 0.56958 0.69417 0.7247 0.0
C89 C 0.57246 0.83531 0.63224 0.0
C90 C 0.45956 0.82354 0.60612 0.0
N91 N 0.56889 0.73917 0.6966 0.0
N92 N 0.4624 0.77919 0.63315 0.0
H93 H 0.64364 0.57588 0.97399 0.0
H94 H 0.88551 0.46082 0.00465 0.0
H95 H 0.69754 0.50248 0.85016 0.0
H96 H 0.88072 0.59384 0.10489 0.0
H97 H 0.81321 0.47102 0.94888 0.0
H98 H 0.72733 0.57934 0.02416 0.0
C99 C 0.67353 0.56106 0.95724 0.0
C100 C 0.66369 0.53875 0.90794 0.0
C101 C 0.82842 0.49835 0.98288 0.0
C102 C 0.75871 0.5416 0.96529 0.0
C103 C 0.86943 0.49236 0.01478 0.0
C104 C 0.88886 0.52638 0.05949 0.0
C105 C 0.80597 0.53785 0.99625 0.0
C106 C 0.86683 0.56674 0.07077 0.0
C107 C 0.72128 0.56312 0.98584 0.0
C108 C 0.70371 0.52014 0.88802 0.0
N109 N 0.82605 0.5709 0.0396 0.0
N110 N 0.74906 0.52124 0.91699 0.0
H111 H 0.30079 0.90955 0.41278 0.0
H112 H 0.18079 0.58872 0.27092 0.0
H113 H 0.41771 0.83234 0.38147 0.0
H114 H 0.09449 0.69971 0.25136 0.0
H115 H 0.2621 0.6718 0.32094 0.0
H116 H 0.21889 0.82765 0.36191 0.0
C117 C 0.30927 0.87552 0.39503 0.0
C118 C 0.36606 0.87769 0.40121 0.0
C119 C 0.22534 0.67793 0.30571 0.0
C120 C 0.27258 0.78371 0.34384 0.0
C121 C 0.17877 0.63045 0.27745 0.0
C122 C 0.13094 0.63747 0.25701 0.0
C123 C 0.22358 0.73245 0.31419 0.0
C124 C 0.13069 0.69258 0.26639 0.0
C125 C 0.26262 0.82893 0.36602 0.0
C126 C 0.37467 0.83247 0.37748 0.0
N127 N 0.17623 0.73795 0.29453 0.0
N128 N 0.32825 0.78703 0.35014 0.0
H129 H 0.43627 0.36862 0.68235 0.0
H130 H 0.53127 0.11077 0.65894 0.0
H131 H 0.49277 0.30341 0.81003 0.0
H132 H 0.41503 0.13145 0.55027 0.0
H133 H 0.52119 0.18354 0.71418 0.0
H134 H 0.43093 0.28406 0.63234 0.0
C135 C 0.44696 0.33609 0.69995 0.0
C136 C 0.46515 0.34302 0.75031 0.0
C137 C 0.49746 0.1717 0.67843 0.0
C138 C 0.46007 0.24684 0.69319 0.0
C139 C 0.50339 0.13041 0.64685 0.0
C140 C 0.47416 0.11536 0.59993 0.0
C141 C 0.46291 0.19885 0.66256 0.0
C142 C 0.43837 0.14188 0.58615 0.0
C143 C 0.44382 0.28782 0.67143 0.0
C144 C 0.47845 0.29959 0.77131 0.0
N145 N 0.43428 0.18285 0.61711 0.0
N146 N 0.47639 0.25372 0.74247 0.0
loop_
_geom_bond_atom_site_label_1
_geom_bond_atom_site_label_2
_geom_bond_distance
_geom_bond_site_symmetry_2
_ccdc_geom_bond_type
In0 O1 2.294 1_455 S
In0 O2 2.326 1_455 S
In0 O6 2.266 . S
In0 O7 2.326 . S
In0 O8 2.266 . S
In0 O9 2.326 . S
In0 O11 2.294 1_455 S
In0 O12 2.326 1_455 S
O1 In0 2.294 1_655 S
O1 C10 1.240 . S
O2 In0 2.326 1_655 S
O2 C10 1.252 . S
C3 O6 1.252 . S
C3 O7 1.260 . S
C4 O11 1.240 . S
C4 O12 1.252 . S
C5 O8 1.252 . S
C5 O9 1.260 . S
O6 In0 2.266 . S
O6 C3 1.252 . S
O7 In0 2.326 . S
O7 C3 1.260 . S
O8 In0 2.266 . S
O8 C5 1.252 . S
O9 In0 2.326 . S
O9 C5 1.260 . S
C10 O1 1.240 . S
C10 O2 1.252 . S
O11 In0 2.294 1_655 S
O11 C4 1.240 . S
O12 In0 2.326 1_655 S
O12 C4 1.252 . S
In13 O14 2.294 . S
In13 O15 2.326 . S
In13 O19 2.266 1_545 S
In13 O20 2.326 1_545 S
In13 O21 2.266 1_545 S
In13 O22 2.326 1_545 S
In13 O24 2.294 . S
In13 O25 2.326 . S
O14 In13 2.294 . S
O14 C23 1.240 . S
O15 In13 2.326 . S
O15 C23 1.252 . S
C16 O19 1.252 . S
C16 O20 1.260 . S
C17 O24 1.240 . S
C17 O25 1.252 . S
C18 O21 1.252 . S
C18 O22 1.260 . S
O19 In13 2.266 1_565 S
O19 C16 1.252 . S
O20 In13 2.326 1_565 S
O20 C16 1.260 . S
O21 In13 2.266 1_565 S
O21 C18 1.252 . S
O22 In13 2.326 1_565 S
O22 C18 1.260 . S
C23 O14 1.240 . S
C23 O15 1.252 . S
O24 In13 2.294 . S
O24 C17 1.240 . S
O25 In13 2.326 . S
O25 C17 1.252 . S
In26 O27 2.294 . S
In26 O28 2.326 . S
In26 O32 2.266 . S
In26 O33 2.326 . S
In26 O34 2.266 . S
In26 O35 2.326 . S
In26 O37 2.294 . S
In26 O38 2.326 . S
O27 In26 2.294 . S
O27 C36 1.240 . S
O28 In26 2.326 . S
O28 C36 1.252 . S
C29 O32 1.252 . S
C29 O33 1.260 . S
C30 O37 1.240 . S
C30 O38 1.252 . S
C31 O34 1.252 . S
C31 O35 1.260 . S
O32 In26 2.266 . S
O32 C29 1.252 . S
O33 In26 2.326 . S
O33 C29 1.260 . S
O34 In26 2.266 . S
O34 C31 1.252 . S
O35 In26 2.326 . S
O35 C31 1.260 . S
C36 O27 1.240 . S
C36 O28 1.252 . S
O37 In26 2.294 . S
O37 C30 1.240 . S
O38 In26 2.326 . S
O38 C30 1.252 . S
H39 C45 0.930 . S
H40 C49 0.930 . S
H41 C54 0.929 . S
H42 C52 0.929 . S
H43 C47 0.929 . S
H44 C53 0.929 . S
C45 H39 0.930 . S
C45 C46 1.367 . S
C45 C53 1.378 . S
C46 C45 1.367 . S
C46 C54 1.433 . S
C47 H43 0.929 . S
C47 C49 1.378 . S
C47 C51 1.350 . S
C48 C51 1.463 1_556 S
C48 C53 1.350 . S
C48 N56 1.427 . S
C49 H40 0.930 . S
C49 C47 1.378 . S
C49 C50 1.367 . S
C50 C49 1.367 . S
C50 C52 1.433 . S
C51 C47 1.350 . S
C51 C48 1.463 1_554 S
C51 N55 1.427 . S
C52 H42 0.929 . S
C52 C50 1.433 . S
C52 N55 1.384 . S
C53 H44 0.929 . S
C53 C45 1.378 . S
C53 C48 1.350 . S
C54 H41 0.929 . S
C54 C46 1.433 . S
C54 N56 1.384 . S
N55 C51 1.427 . S
N55 C52 1.384 . S
N56 C48 1.427 . S
N56 C54 1.384 . S
H57 C63 0.930 . S
H58 C67 0.930 . S
H59 C72 0.929 . S
H60 C70 0.929 . S
H61 C65 0.929 . S
H62 C71 0.929 . S
C63 H57 0.930 . S
C63 C64 1.367 . S
C63 C71 1.378 . S
C64 C63 1.367 . S
C64 C72 1.433 . S
C65 H61 0.929 . S
C65 C67 1.378 . S
C65 C69 1.350 . S
C66 C69 1.463 . S
C66 C71 1.350 . S
C66 N74 1.427 . S
C67 H58 0.930 . S
C67 C65 1.378 . S
C67 C68 1.367 . S
C68 C67 1.367 . S
C68 C70 1.433 . S
C69 C65 1.350 . S
C69 C66 1.463 . S
C69 N73 1.427 . S
C70 H60 0.929 . S
C70 C68 1.433 . S
C70 N73 1.384 . S
C71 H62 0.929 . S
C71 C63 1.378 . S
C71 C66 1.350 . S
C72 H59 0.929 . S
C72 C64 1.433 . S
C72 N74 1.384 . S
N73 C69 1.427 . S
N73 C70 1.384 . S
N74 C66 1.427 . S
N74 C72 1.384 . S
H75 C81 0.930 . S
H76 C85 0.930 . S
H77 C90 0.929 . S
H78 C88 0.929 . S
H79 C83 0.929 . S
H80 C89 0.929 . S
C81 H75 0.930 . S
C81 C82 1.367 . S
C81 C89 1.378 . S
C82 C81 1.367 . S
C82 C90 1.433 . S
C83 H79 0.929 . S
C83 C85 1.378 . S
C83 C87 1.350 . S
C84 C87 1.463 . S
C84 C89 1.350 . S
C84 N92 1.427 . S
C85 H76 0.930 . S
C85 C83 1.378 . S
C85 C86 1.367 . S
C86 C85 1.367 . S
C86 C88 1.433 . S
C87 C83 1.350 . S
C87 C84 1.463 . S
C87 N91 1.427 . S
C88 H78 0.929 . S
C88 C86 1.433 . S
C88 N91 1.384 . S
C89 H80 0.929 . S
C89 C81 1.378 . S
C89 C84 1.350 . S
C90 H77 0.929 . S
C90 C82 1.433 . S
C90 N92 1.384 . S
N91 C87 1.427 . S
N91 C88 1.384 . S
N92 C84 1.427 . S
N92 C90 1.384 . S
H93 C99 0.930 . S
H94 C103 0.930 . S
H95 C108 0.929 . S
H96 C106 0.929 . S
H97 C101 0.929 . S
H98 C107 0.929 . S
C99 H93 0.930 . S
C99 C100 1.367 . S
C99 C107 1.378 1_556 S
C100 C99 1.367 . S
C100 C108 1.433 . S
C101 H97 0.929 . S
C101 C103 1.378 1_556 S
C101 C105 1.350 1_556 S
C102 C105 1.463 1_556 S
C102 C107 1.350 1_556 S
C102 N110 1.427 . S
C103 H94 0.930 . S
C103 C101 1.378 1_554 S
C103 C104 1.367 . S
C104 C103 1.367 . S
C104 C106 1.433 . S
C105 C101 1.350 1_554 S
C105 C102 1.463 1_554 S
C105 N109 1.427 . S
C106 H96 0.929 . S
C106 C104 1.433 . S
C106 N109 1.384 . S
C107 H98 0.929 . S
C107 C99 1.378 1_554 S
C107 C102 1.350 1_554 S
C108 H95 0.929 . S
C108 C100 1.433 . S
C108 N110 1.384 . S
N109 C105 1.427 . S
N109 C106 1.384 . S
N110 C102 1.427 . S
N110 C108 1.384 . S
H111 C117 0.930 . S
H112 C121 0.930 . S
H113 C126 0.929 . S
H114 C124 0.929 . S
H115 C119 0.929 . S
H116 C125 0.929 . S
C117 H111 0.930 . S
C117 C118 1.367 . S
C117 C125 1.378 . S
C118 C117 1.367 . S
C118 C126 1.433 . S
C119 H115 0.929 . S
C119 C121 1.378 . S
C119 C123 1.350 . S
C120 C123 1.463 . S
C120 C125 1.350 . S
C120 N128 1.427 . S
C121 H112 0.930 . S
C121 C119 1.378 . S
C121 C122 1.367 . S
C122 C121 1.367 . S
C122 C124 1.433 . S
C123 C119 1.350 . S
C123 C120 1.463 . S
C123 N127 1.427 . S
C124 H114 0.929 . S
C124 C122 1.433 . S
C124 N127 1.384 . S
C125 H116 0.929 . S
C125 C117 1.378 . S
C125 C120 1.350 . S
C126 H113 0.929 . S
C126 C118 1.433 . S
C126 N128 1.384 . S
N127 C123 1.427 . S
N127 C124 1.384 . S
N128 C120 1.427 . S
N128 C126 1.384 . S
H129 C135 0.930 . S
H130 C139 0.930 . S
H131 C144 0.929 . S
H132 C142 0.929 . S
H133 C137 0.929 . S
H134 C143 0.929 . S
C135 H129 0.930 . S
C135 C136 1.367 . S
C135 C143 1.378 . S
C136 C135 1.367 . S
C136 C144 1.433 . S
C137 H133 0.929 . S
C137 C139 1.378 . S
C137 C141 1.350 . S
C138 C141 1.463 . S
C138 C143 1.350 . S
C138 N146 1.427 . S
C139 H130 0.930 . S
C139 C137 1.378 . S
C139 C140 1.367 . S
C140 C139 1.367 . S
C140 C142 1.433 . S
C141 C137 1.350 . S
C141 C138 1.463 . S
C141 N145 1.427 . S
C142 H132 0.929 . S
C142 C140 1.433 . S
C142 N145 1.384 . S
C143 H134 0.929 . S
C143 C135 1.378 . S
C143 C138 1.350 . S
C144 H131 0.929 . S
C144 C136 1.433 . S
C144 N146 1.384 . S
N145 C141 1.427 . S
N145 C142 1.384 . S
N146 C138 1.427 . S
N146 C144 1.384 . S
C46 C30 1.547 . S
C50 C3 1.548 . S
C64 C10 1.541 . S
C68 C23 1.541 . S
C82 C16 1.548 . S
C86 C36 1.547 . S
C100 C29 1.548 . S
C104 C4 1.548 . S
C118 C18 1.553 . S
C122 C5 1.553 . S
C136 C31 1.548 . S
C140 C17 1.547 . S
