# Generated by pormake.
# Topology sxa, (6)-cn, num edge types: 1
# Building blocks:
#     Node 0, Type 0, BuildingBlock: IZENUY_clean_sbu_0, # of connection points: 6
#     Node 1, Type 0, BuildingBlock: IZENUY_clean_sbu_0, # of connection points: 6
#     Node 2, Type 0, BuildingBlock: IZENUY_clean_sbu_0, # of connection points: 6
#     Node 3, Type 0, BuildingBlock: IZENUY_clean_sbu_0, # of connection points: 6
#     Edge 4, Type (0, 0), BuildingBlock: OJICUG_clean_linker_0, # of connection points: 2
#     Edge 5, Type (0, 0), BuildingBlock: OJICUG_clean_linker_0, # of connection points: 2
#     Edge 6, Type (0, 0), BuildingBlock: OJICUG_clean_linker_0, # of connection points: 2
#     Edge 7, Type (0, 0), BuildingBlock: OJICUG_clean_linker_0, # of connection points: 2
#     Edge 8, Type (0, 0), BuildingBlock: OJICUG_clean_linker_0, # of connection points: 2
#     Edge 9, Type (0, 0), BuildingBlock: OJICUG_clean_linker_0, # of connection points: 2
#     Edge 10, Type (0, 0), BuildingBlock: OJICUG_clean_linker_0, # of connection points: 2
#     Edge 11, Type (0, 0), BuildingBlock: OJICUG_clean_linker_0, # of connection points: 2
#     Edge 12, Type (0, 0), BuildingBlock: OJICUG_clean_linker_0, # of connection points: 2
#     Edge 13, Type (0, 0), BuildingBlock: OJICUG_clean_linker_0, # of connection points: 2
#     Edge 14, Type (0, 0), BuildingBlock: OJICUG_clean_linker_0, # of connection points: 2
#     Edge 15, Type (0, 0), BuildingBlock: OJICUG_clean_linker_0, # of connection points: 2
# Relax obj value: 0.274
# Max RMSD: 0.267
# Mean RMSD: 0.267
data_MOF--net-sxa--node1-IZENUY_clean_sbu_0--edge1-OJICUG_clean_linker_0
_symmetry_space_group_name_H-M    P1
_symmetry_Int_Tables_number       1
_symmetry_cell_setting            triclinic
loop_
_symmetry_equiv_pos_as_xyz
'x, y, z'
_cell_length_a     17.926849
_cell_length_b     20.298388
_cell_length_c     11.792844
_cell_angle_alpha  90.004053
_cell_angle_beta   90.008333
_cell_angle_gamma 90.002435
loop_
_atom_site_label
_atom_site_type_symbol
_atom_site_fract_x
_atom_site_fract_y
_atom_site_fract_z
_atom_type_partial_charge
Fe0 Fe 0.02164 0.87513 0.37584 0.0
Fe1 Fe 0.01393 0.72195 0.37841 0.0
O2 O 0.01713 0.79817 0.30319 0.0
Fe3 Fe 0.01562 0.79744 0.152 0.0
O4 O 0.10761 0.83117 0.14679 0.0
O5 O 0.08825 0.91104 0.27238 0.0
O6 O 0.10355 0.85119 0.4548 0.0
C7 C 0.12239 0.79743 0.49953 0.0
C8 C 0.9384 0.91727 0.19821 0.0
O9 O 0.08208 0.74636 0.48876 0.0
C10 C 0.906 0.71042 0.20039 0.0
O11 O 0.9556 0.85194 0.48977 0.0
O12 O 0.93356 0.74678 0.4601 0.0
O13 O 0.97538 0.88012 0.13346 0.0
O14 O 0.94053 0.90777 0.30323 0.0
C15 C 0.09383 0.67811 0.19836 0.0
O16 O 0.94531 0.68503 0.27914 0.0
O17 O 0.92357 0.76375 0.15225 0.0
C18 C 0.91545 0.80105 0.50363 0.0
O19 O 0.09354 0.68836 0.30325 0.0
O20 O 0.05553 0.71461 0.13426 0.0
C21 C 0.12589 0.88512 0.19226 0.0
Fe22 Fe 0.51647 0.30223 0.152 0.0
Fe23 Fe 0.51808 0.37776 0.37838 0.0
O24 O 0.5149 0.30153 0.30319 0.0
Fe25 Fe 0.51037 0.22459 0.37587 0.0
O26 O 0.59149 0.19192 0.30336 0.0
O27 O 0.55671 0.21954 0.13355 0.0
O28 O 0.60852 0.33591 0.15234 0.0
C29 C 0.62607 0.38925 0.20048 0.0
C30 C 0.40618 0.21455 0.19216 0.0
O31 O 0.58673 0.41466 0.27916 0.0
C32 C 0.40959 0.30232 0.49943 0.0
O33 O 0.47656 0.38506 0.13418 0.0
O34 O 0.43849 0.41133 0.30311 0.0
O35 O 0.44379 0.18865 0.27236 0.0
O36 O 0.42447 0.2685 0.1467 0.0
C37 C 0.61652 0.29869 0.50373 0.0
O38 O 0.4499 0.35339 0.48868 0.0
O39 O 0.42843 0.24855 0.45473 0.0
C40 C 0.43823 0.42156 0.19823 0.0
O41 O 0.59843 0.35296 0.46016 0.0
O42 O 0.57637 0.2478 0.48985 0.0
C43 C 0.59366 0.1824 0.19835 0.0
Fe44 Fe 0.01647 0.29743 1.07168 0.0
Fe45 Fe 0.01039 0.37513 0.84788 0.0
O46 O 0.01491 0.29816 0.92049 0.0
Fe47 Fe 0.01809 0.22195 0.84525 0.0
O48 O 0.9385 0.18835 0.92045 0.0
O49 O 0.97655 0.2146 1.08942 0.0
O50 O 0.92447 0.33115 1.07696 0.0
C51 C 0.90618 0.38511 1.03153 0.0
C52 C 0.12607 0.21042 1.0232 0.0
O53 O 0.94381 0.41103 0.95138 0.0
C54 C 0.11655 0.30105 0.72 0.0
O55 O 0.05671 0.38011 1.09023 0.0
O56 O 0.09152 0.40777 0.92046 0.0
O57 O 0.08674 0.18503 0.94447 0.0
O58 O 0.10851 0.26375 1.07137 0.0
C59 C 0.90961 0.29742 0.72421 0.0
O60 O 0.0764 0.35195 0.73391 0.0
O61 O 0.09845 0.24678 0.76353 0.0
C62 C 0.09367 0.41727 1.02547 0.0
O63 O 0.92846 0.35119 0.76895 0.0
O64 O 0.94992 0.24635 0.73495 0.0
C65 C 0.93824 0.1781 1.02533 0.0
Fe66 Fe 0.51396 0.87776 0.84533 0.0
Fe67 Fe 0.52165 0.72458 0.8478 0.0
O68 O 0.51715 0.80152 0.9205 0.0
Fe69 Fe 0.51561 0.80222 1.07169 0.0
O70 O 0.42356 0.8359 1.0714 0.0
O71 O 0.44532 0.91465 0.9446 0.0
O72 O 0.43359 0.85295 0.76359 0.0
C73 C 0.41548 0.79869 0.72001 0.0
C74 C 0.59384 0.92156 1.02547 0.0
O75 O 0.45563 0.7478 0.73386 0.0
C76 C 0.62588 0.71455 1.03144 0.0
O77 O 0.58211 0.85339 0.735 0.0
O78 O 0.60357 0.74854 0.76889 0.0
O79 O 0.55553 0.88505 1.08951 0.0
O80 O 0.59357 0.91132 0.92058 0.0
C81 C 0.4384 0.68239 1.02534 0.0
O82 O 0.58825 0.68865 0.95126 0.0
O83 O 0.60761 0.76849 1.07693 0.0
C84 C 0.62241 0.80232 0.72421 0.0
O85 O 0.44054 0.69191 0.92034 0.0
O86 O 0.47536 0.71953 1.09014 0.0
C87 C 0.406 0.88924 1.0233 0.0
C88 C 0.12234 0.49408 0.18641 0.0
C89 C 0.11811 0.48258 1.06898 0.0
H90 H 0.12036 0.56539 0.32001 0.0
C91 C 0.123 0.53686 0.99501 0.0
H92 H 0.11954 0.4534 0.24572 0.0
C93 C 0.12237 0.60126 1.03761 0.0
C94 C 0.11815 0.61276 0.15502 0.0
H95 H 0.12045 0.52999 0.90401 0.0
H96 H 0.11962 0.64195 0.97831 0.0
C97 C 0.12299 0.55849 0.22901 0.0
C98 C 0.40981 0.49839 1.03739 0.0
C99 C 0.41392 0.4869 0.15481 0.0
H100 H 0.41182 0.56964 0.90379 0.0
C101 C 0.40899 0.54117 0.22879 0.0
H102 H 0.41264 0.45769 0.9781 0.0
C103 C 0.40962 0.60558 0.18619 0.0
C104 C 0.41396 0.61707 1.06877 0.0
H105 H 0.41151 0.53427 0.31979 0.0
H106 H 0.41234 0.64627 0.24552 0.0
C107 C 0.40917 0.56278 0.99479 0.0
C108 C 0.62308 1.04116 0.9949 0.0
C109 C 0.61815 0.9869 1.06889 0.0
H110 H 0.61972 0.14625 0.97817 0.0
C111 C 0.62227 0.9984 0.18631 0.0
H112 H 0.62055 1.03425 0.90391 0.0
C113 C 0.6229 0.0628 0.2289 0.0
C114 C 0.61811 0.11708 0.15492 0.0
H115 H 0.61944 0.95771 0.24561 0.0
H116 H 0.62026 0.06968 0.3199 0.0
C117 C 0.62244 0.10558 1.0375 0.0
C118 C 0.90908 1.03686 0.22868 0.0
C119 C 0.91397 0.98258 0.1547 0.0
H120 H 0.91246 0.14195 0.2454 0.0
C121 C 0.90973 0.99407 1.03727 0.0
H122 H 0.91163 1.02999 0.31968 0.0
C123 C 0.90909 0.05848 0.99467 0.0
C124 C 0.91392 0.11275 1.06868 0.0
H125 H 0.91253 0.95339 0.97795 0.0
H126 H 0.91171 0.06538 0.90368 0.0
C127 C 0.9097 0.10126 0.18609 0.0
C128 C 0.30573 0.85484 0.62951 0.0
C129 C 0.34251 0.79574 0.65749 0.0
H130 H 0.2091 0.90166 0.56143 0.0
C131 C 0.30487 0.73597 0.63575 0.0
H132 H 0.332 0.90203 0.64525 0.0
C133 C 0.23248 0.73575 0.58786 0.0
C134 C 0.19606 0.7953 0.56032 0.0
H135 H 0.33071 0.68944 0.65759 0.0
H136 H 0.20551 0.68901 0.57116 0.0
C137 C 0.23429 0.85463 0.58187 0.0
C138 C 0.22624 0.24492 0.62936 0.0
C139 C 0.1895 0.30402 0.65745 0.0
H140 H 0.32283 0.1981 0.56117 0.0
C141 C 0.22715 0.36379 0.63578 0.0
H142 H 0.19996 0.19773 0.64504 0.0
C143 C 0.29953 0.364 0.58785 0.0
C144 C 0.33591 0.30445 0.56021 0.0
H145 H 0.20134 0.41031 0.65769 0.0
H146 H 0.32651 0.41074 0.57122 0.0
C147 C 0.29767 0.24513 0.58169 0.0
C148 C 0.79952 0.23575 0.63583 0.0
C149 C 0.83593 0.2953 0.66344 0.0
H150 H 0.7013 0.18944 0.56604 0.0
C151 C 0.79769 0.35463 0.64197 0.0
H152 H 0.8265 0.18901 0.65247 0.0
C153 C 0.72625 0.35484 0.59433 0.0
C154 C 0.68949 0.29573 0.56626 0.0
H155 H 0.82287 0.40165 0.66246 0.0
H156 H 0.69997 0.40202 0.57864 0.0
C157 C 0.72713 0.23597 0.58794 0.0
C158 C 0.80487 0.86378 0.58793 0.0
C159 C 0.84249 0.80401 0.56615 0.0
H160 H 0.70555 0.91074 0.65257 0.0
C161 C 0.80571 0.74491 0.59415 0.0
H162 H 0.83071 0.9103 0.5661 0.0
C163 C 0.73429 0.74512 0.64182 0.0
C164 C 0.69607 0.80445 0.66339 0.0
H165 H 0.83196 0.69772 0.5784 0.0
H166 H 0.70909 0.69809 0.66227 0.0
C167 C 0.7325 0.86399 0.63585 0.0
C168 C 0.32554 0.92835 0.17825 0.0
C169 C 0.33717 0.9206 1.06114 0.0
H170 H 0.2457 0.92518 0.31329 0.0
C171 C 0.2763 0.92176 0.98701 0.0
H172 H 0.37232 0.92727 0.23647 0.0
C173 C 0.20418 0.91943 1.03099 0.0
C174 C 0.19304 0.91713 0.1489 0.0
H175 H 0.28437 0.9152 0.8966 0.0
H176 H 0.15787 0.91181 0.97336 0.0
C177 C 0.25333 0.92722 0.22218 0.0
C178 C 0.20655 0.17126 0.1781 0.0
C179 C 0.1949 0.17905 1.06101 0.0
H180 H 0.28642 0.17441 0.31315 0.0
C181 C 0.25576 0.17793 0.98686 0.0
H182 H 0.15978 0.1723 0.23632 0.0
C183 C 0.32788 0.18027 1.03085 0.0
C184 C 0.33904 0.18254 0.14877 0.0
H185 H 0.24767 0.18452 0.89647 0.0
H186 H 0.37418 0.18792 0.97323 0.0
C187 C 0.27877 0.1724 0.22203 0.0
C188 C 0.75577 0.42171 0.23682 0.0
C189 C 0.69491 0.42061 0.16266 0.0
H190 H 0.87419 0.4117 0.25049 0.0
C191 C 0.70656 0.42841 1.04557 0.0
H192 H 0.74768 0.41511 0.32721 0.0
C193 C 0.77878 0.42726 1.00166 0.0
C194 C 0.83905 0.41711 1.07494 0.0
H195 H 0.65979 0.42738 0.98733 0.0
H196 H 0.78643 0.42527 0.91055 0.0
C197 C 0.82789 0.41937 0.19286 0.0
C198 C 0.82552 0.6713 1.04544 0.0
C199 C 0.83717 0.67906 0.16254 0.0
H200 H 0.74565 0.67447 0.9104 0.0
C201 C 0.77632 0.67789 0.23669 0.0
H202 H 0.87228 0.67238 0.98722 0.0
C203 C 0.70419 0.68022 0.19271 0.0
C204 C 0.69302 0.68253 1.07479 0.0
H205 H 0.7844 0.68445 0.32709 0.0
H206 H 0.65789 0.68784 0.25033 0.0
C207 C 0.7533 0.67244 1.00151 0.0
loop_
_geom_bond_atom_site_label_1
_geom_bond_atom_site_label_2
_geom_bond_distance
_geom_bond_site_symmetry_2
_ccdc_geom_bond_type
Fe0 O2 1.918 . S
Fe0 O5 1.997 . S
Fe0 O6 2.002 . S
Fe0 O11 1.976 1_455 S
Fe0 O14 1.996 . S
Fe1 O2 1.918 1_655 S
Fe1 O9 1.997 1_655 S
Fe1 O12 1.996 . S
Fe1 O16 1.976 . S
Fe1 O19 2.002 1_655 S
O2 Fe0 1.918 . S
O2 Fe1 1.918 1_455 S
O2 Fe3 1.918 . S
Fe3 O2 1.918 . S
Fe3 O4 2.002 . S
Fe3 O13 1.976 . S
Fe3 O17 1.996 1_455 S
Fe3 O20 1.997 . S
O4 Fe3 2.002 . S
O4 C21 1.295 . S
O5 Fe0 1.997 . S
O5 C21 1.235 . S
O6 Fe0 2.002 . S
O6 C7 1.295 . S
C7 O6 1.295 . S
C7 O9 1.235 . S
C8 O13 1.287 . S
C8 O14 1.255 . S
O9 Fe1 1.997 1_455 S
O9 C7 1.235 . S
C10 O16 1.287 . S
C10 O17 1.255 . S
O11 Fe0 1.976 1_655 S
O11 C18 1.287 . S
O12 Fe1 1.996 . S
O12 C18 1.255 . S
O13 Fe3 1.976 . S
O13 C8 1.287 . S
O14 Fe0 1.996 . S
O14 C8 1.255 . S
C15 O19 1.295 . S
C15 O20 1.235 . S
O16 Fe1 1.976 . S
O16 C10 1.287 . S
O17 Fe3 1.996 1_655 S
O17 C10 1.255 . S
C18 O11 1.287 . S
C18 O12 1.255 . S
O19 Fe1 2.002 1_455 S
O19 C15 1.295 . S
O20 Fe3 1.997 . S
O20 C15 1.235 . S
C21 O4 1.295 . S
C21 O5 1.235 . S
Fe22 O24 1.918 . S
Fe22 O27 1.997 . S
Fe22 O28 2.002 . S
Fe22 O33 1.976 . S
Fe22 O36 1.996 . S
Fe23 O24 1.918 . S
Fe23 O31 1.997 . S
Fe23 O34 1.996 . S
Fe23 O38 1.976 . S
Fe23 O41 2.002 . S
O24 Fe22 1.918 . S
O24 Fe23 1.918 . S
O24 Fe25 1.918 . S
Fe25 O24 1.918 . S
Fe25 O26 2.002 . S
Fe25 O35 1.976 . S
Fe25 O39 1.996 . S
Fe25 O42 1.997 . S
O26 Fe25 2.002 . S
O26 C43 1.295 . S
O27 Fe22 1.997 . S
O27 C43 1.235 . S
O28 Fe22 2.002 . S
O28 C29 1.295 . S
C29 O28 1.295 . S
C29 O31 1.235 . S
C30 O35 1.287 . S
C30 O36 1.255 . S
O31 Fe23 1.997 . S
O31 C29 1.235 . S
C32 O38 1.287 . S
C32 O39 1.255 . S
O33 Fe22 1.976 . S
O33 C40 1.287 . S
O34 Fe23 1.996 . S
O34 C40 1.255 . S
O35 Fe25 1.976 . S
O35 C30 1.287 . S
O36 Fe22 1.996 . S
O36 C30 1.255 . S
C37 O41 1.295 . S
C37 O42 1.235 . S
O38 Fe23 1.976 . S
O38 C32 1.287 . S
O39 Fe25 1.996 . S
O39 C32 1.255 . S
C40 O33 1.287 . S
C40 O34 1.255 . S
O41 Fe23 2.002 . S
O41 C37 1.295 . S
O42 Fe25 1.997 . S
O42 C37 1.235 . S
C43 O26 1.295 . S
C43 O27 1.235 . S
Fe44 O46 1.918 . S
Fe44 O49 1.997 . S
Fe44 O50 2.002 1_455 S
Fe44 O55 1.976 . S
Fe44 O58 1.996 . S
Fe45 O46 1.918 1_655 S
Fe45 O53 1.997 . S
Fe45 O56 1.996 1_655 S
Fe45 O60 1.976 1_655 S
Fe45 O63 2.002 . S
O46 Fe44 1.918 . S
O46 Fe45 1.918 1_455 S
O46 Fe47 1.918 . S
Fe47 O46 1.918 . S
Fe47 O48 2.002 . S
Fe47 O57 1.976 . S
Fe47 O61 1.996 . S
Fe47 O64 1.998 . S
O48 Fe47 2.002 . S
O48 C65 1.295 . S
O49 Fe44 1.997 . S
O49 C65 1.235 . S
O50 Fe44 2.002 1_655 S
O50 C51 1.295 . S
C51 O50 1.295 . S
C51 O53 1.235 . S
C52 O57 1.287 . S
C52 O58 1.255 . S
O53 Fe45 1.997 . S
O53 C51 1.235 . S
C54 O60 1.287 . S
C54 O61 1.255 . S
O55 Fe44 1.976 . S
O55 C62 1.287 . S
O56 Fe45 1.996 1_455 S
O56 C62 1.255 . S
O57 Fe47 1.976 . S
O57 C52 1.287 . S
O58 Fe44 1.996 . S
O58 C52 1.255 . S
C59 O63 1.295 . S
C59 O64 1.233 1_655 S
O60 Fe45 1.976 1_455 S
O60 C54 1.287 . S
O61 Fe47 1.996 . S
O61 C54 1.255 . S
C62 O55 1.287 . S
C62 O56 1.255 . S
O63 Fe45 2.002 . S
O63 C59 1.295 . S
O64 Fe47 1.998 . S
O64 C59 1.233 1_455 S
C65 O48 1.295 . S
C65 O49 1.235 . S
Fe66 O68 1.918 . S
Fe66 O71 1.997 . S
Fe66 O72 2.002 . S
Fe66 O77 1.976 . S
Fe66 O80 1.996 . S
Fe67 O68 1.918 . S
Fe67 O75 1.997 . S
Fe67 O78 1.996 . S
Fe67 O82 1.976 . S
Fe67 O85 2.002 . S
O68 Fe66 1.918 . S
O68 Fe67 1.918 . S
O68 Fe69 1.918 . S
Fe69 O68 1.918 . S
Fe69 O70 2.002 . S
Fe69 O79 1.976 . S
Fe69 O83 1.996 . S
Fe69 O86 1.997 . S
O70 Fe69 2.002 . S
O70 C87 1.295 . S
O71 Fe66 1.997 . S
O71 C87 1.235 . S
O72 Fe66 2.002 . S
O72 C73 1.295 . S
C73 O72 1.295 . S
C73 O75 1.235 . S
C74 O79 1.287 . S
C74 O80 1.255 . S
O75 Fe67 1.997 . S
O75 C73 1.235 . S
C76 O82 1.287 . S
C76 O83 1.255 . S
O77 Fe66 1.976 . S
O77 C84 1.287 . S
O78 Fe67 1.996 . S
O78 C84 1.255 . S
O79 Fe69 1.976 . S
O79 C74 1.287 . S
O80 Fe66 1.996 . S
O80 C74 1.255 . S
C81 O85 1.295 . S
C81 O86 1.235 . S
O82 Fe67 1.976 . S
O82 C76 1.287 . S
O83 Fe69 1.996 . S
O83 C76 1.255 . S
C84 O77 1.287 . S
C84 O78 1.255 . S
O85 Fe67 2.002 . S
O85 C81 1.295 . S
O86 Fe69 1.997 . S
O86 C81 1.235 . S
C87 O70 1.295 . S
C87 O71 1.235 . S
C88 C89 1.387 1_655 S
C88 H92 0.950 . S
C88 C97 1.390 1_556 S
C89 C88 1.387 1_455 S
C89 C91 1.387 . S
H90 C97 0.950 . S
C91 C89 1.387 . S
C91 C93 1.390 1_556 S
C91 H95 0.950 . S
H92 C88 0.950 . S
C93 C91 1.390 1_554 S
C93 C94 1.387 . S
C93 H96 0.950 . S
C94 C93 1.387 . S
C94 C97 1.387 1_455 S
H95 C91 0.950 . S
H96 C93 0.950 . S
C97 C88 1.390 1_554 S
C97 H90 0.950 . S
C97 C94 1.387 1_655 S
C98 C99 1.387 1_556 S
C98 H102 0.950 . S
C98 C107 1.390 . S
C99 C98 1.387 1_554 S
C99 C101 1.387 . S
H100 C107 0.950 . S
C101 C99 1.387 . S
C101 C103 1.390 . S
C101 H105 0.950 . S
H102 C98 0.950 . S
C103 C101 1.390 . S
C103 C104 1.387 1_554 S
C103 H106 0.950 . S
C104 C103 1.387 1_556 S
C104 C107 1.387 . S
H105 C101 0.950 . S
H106 C103 0.950 . S
C107 C98 1.390 . S
C107 H100 0.950 . S
C107 C104 1.387 . S
C108 C109 1.387 . S
C108 H112 0.950 . S
C108 C117 1.390 1_566 S
C109 C108 1.387 . S
C109 C111 1.387 . S
H110 C117 0.950 . S
C111 C109 1.387 . S
C111 C113 1.390 1_566 S
C111 H115 0.950 . S
H112 C108 0.950 . S
C113 C111 1.390 1_544 S
C113 C114 1.387 . S
C113 H116 0.950 . S
C114 C113 1.387 . S
C114 C117 1.387 . S
H115 C111 0.950 . S
H116 C113 0.950 . S
C117 C108 1.390 1_544 S
C117 H110 0.950 . S
C117 C114 1.387 . S
C118 C119 1.387 . S
C118 H122 0.950 . S
C118 C127 1.390 1_564 S
C119 C118 1.387 . S
C119 C121 1.387 1_455 S
H120 C127 0.950 . S
C121 C119 1.387 1_655 S
C121 C123 1.390 1_564 S
C121 H125 0.950 . S
H122 C118 0.950 . S
C123 C121 1.390 1_546 S
C123 C124 1.387 1_655 S
C123 H126 0.950 . S
C124 C123 1.387 1_455 S
C124 C127 1.387 . S
H125 C121 0.950 . S
H126 C123 0.950 . S
C127 C118 1.390 1_546 S
C127 H120 0.950 . S
C127 C124 1.387 . S
C128 C129 1.387 . S
C128 H132 0.950 . S
C128 C137 1.390 . S
C129 C128 1.387 . S
C129 C131 1.387 . S
H130 C137 0.950 . S
C131 C129 1.387 . S
C131 C133 1.390 . S
C131 H135 0.950 . S
H132 C128 0.950 . S
C133 C131 1.390 . S
C133 C134 1.387 . S
C133 H136 0.950 . S
C134 C133 1.387 . S
C134 C137 1.387 . S
H135 C131 0.950 . S
H136 C133 0.950 . S
C137 C128 1.390 . S
C137 H130 0.950 . S
C137 C134 1.387 . S
C138 C139 1.387 . S
C138 H142 0.950 . S
C138 C147 1.390 . S
C139 C138 1.387 . S
C139 C141 1.387 . S
H140 C147 0.950 . S
C141 C139 1.387 . S
C141 C143 1.390 . S
C141 H145 0.950 . S
H142 C138 0.950 . S
C143 C141 1.390 . S
C143 C144 1.387 . S
C143 H146 0.950 . S
C144 C143 1.387 . S
C144 C147 1.387 . S
H145 C141 0.950 . S
H146 C143 0.950 . S
C147 C138 1.390 . S
C147 H140 0.950 . S
C147 C144 1.387 . S
C148 C149 1.387 . S
C148 H152 0.950 . S
C148 C157 1.390 . S
C149 C148 1.387 . S
C149 C151 1.387 . S
H150 C157 0.950 . S
C151 C149 1.387 . S
C151 C153 1.390 . S
C151 H155 0.950 . S
H152 C148 0.950 . S
C153 C151 1.390 . S
C153 C154 1.387 . S
C153 H156 0.950 . S
C154 C153 1.387 . S
C154 C157 1.387 . S
H155 C151 0.950 . S
H156 C153 0.950 . S
C157 C148 1.390 . S
C157 H150 0.950 . S
C157 C154 1.387 . S
C158 C159 1.387 . S
C158 H162 0.950 . S
C158 C167 1.390 . S
C159 C158 1.387 . S
C159 C161 1.387 . S
H160 C167 0.950 . S
C161 C159 1.387 . S
C161 C163 1.390 . S
C161 H165 0.950 . S
H162 C158 0.950 . S
C163 C161 1.390 . S
C163 C164 1.387 . S
C163 H166 0.950 . S
C164 C163 1.387 . S
C164 C167 1.387 . S
H165 C161 0.950 . S
H166 C163 0.950 . S
C167 C158 1.390 . S
C167 H160 0.950 . S
C167 C164 1.387 . S
C168 C169 1.387 . S
C168 H172 0.950 . S
C168 C177 1.390 1_556 S
C169 C168 1.387 . S
C169 C171 1.387 . S
H170 C177 0.950 . S
C171 C169 1.387 . S
C171 C173 1.390 1_556 S
C171 H175 0.950 . S
H172 C168 0.950 . S
C173 C171 1.390 1_554 S
C173 C174 1.387 . S
C173 H176 0.950 . S
C174 C173 1.387 . S
C174 C177 1.387 . S
H175 C171 0.950 . S
H176 C173 0.950 . S
C177 C168 1.390 1_554 S
C177 H170 0.950 . S
C177 C174 1.387 . S
C178 C179 1.387 . S
C178 H182 0.950 . S
C178 C187 1.390 1_556 S
C179 C178 1.387 . S
C179 C181 1.387 . S
H180 C187 0.950 . S
C181 C179 1.387 . S
C181 C183 1.390 1_556 S
C181 H185 0.950 . S
H182 C178 0.950 . S
C183 C181 1.390 1_554 S
C183 C184 1.387 . S
C183 H186 0.950 . S
C184 C183 1.387 . S
C184 C187 1.387 . S
H185 C181 0.950 . S
H186 C183 0.950 . S
C187 C178 1.390 1_554 S
C187 H180 0.950 . S
C187 C184 1.387 . S
C188 C189 1.387 . S
C188 H192 0.950 . S
C188 C197 1.390 1_554 S
C189 C188 1.387 . S
C189 C191 1.387 . S
H190 C197 0.950 . S
C191 C189 1.387 . S
C191 C193 1.390 1_554 S
C191 H195 0.950 . S
H192 C188 0.950 . S
C193 C191 1.390 1_556 S
C193 C194 1.387 . S
C193 H196 0.950 . S
C194 C193 1.387 . S
C194 C197 1.387 . S
H195 C191 0.950 . S
H196 C193 0.950 . S
C197 C188 1.390 1_556 S
C197 H190 0.950 . S
C197 C194 1.387 . S
C198 C199 1.387 . S
C198 H202 0.950 . S
C198 C207 1.390 1_554 S
C199 C198 1.387 . S
C199 C201 1.387 . S
H200 C207 0.950 . S
C201 C199 1.387 . S
C201 C203 1.390 1_554 S
C201 H205 0.950 . S
H202 C198 0.950 . S
C203 C201 1.390 1_556 S
C203 C204 1.387 . S
C203 H206 0.950 . S
C204 C203 1.387 . S
C204 C207 1.387 . S
H205 C201 0.950 . S
H206 C203 0.950 . S
C207 C198 1.390 1_556 S
C207 H200 0.950 . S
C207 C204 1.387 . S
C89 C62 1.571 . S
C94 C15 1.551 . S
C99 C40 1.571 . S
C104 C81 1.552 . S
C109 C74 1.571 . S
C114 C43 1.550 . S
C119 C8 1.571 . S
C124 C65 1.551 . S
C129 C73 2.147 . S
C134 C7 2.147 . S
C139 C54 2.099 . S
C144 C32 2.099 . S
C149 C59 2.147 . S
C154 C37 2.147 . S
C159 C18 2.101 . S
C164 C84 2.101 . S
C169 C87 0.748 . S
C174 C21 0.748 . S
C179 C52 0.640 . S
C184 C30 0.640 . S
C189 C29 0.754 . S
C194 C51 0.754 . S
C199 C10 0.640 . S
C204 C76 0.640 . S
