# Generated by pormake.
# Topology pcu, (6)-cn, num edge types: 1
# Building blocks:
#     Node 0, Type 0, BuildingBlock: INOVEN_clean_sbu_0, # of connection points: 6
#     Edge 1, Type (0, 0), None
#     Edge 2, Type (0, 0), None
#     Edge 3, Type (0, 0), None
# Relax obj value: 0.000
# Max RMSD: 0.000
# Mean RMSD: 0.000
data_MOF--net-pcu--node1-INOVEN_clean_sbu_0--edge1-none
_symmetry_space_group_name_H-M    P1
_symmetry_Int_Tables_number       1
_symmetry_cell_setting            triclinic
loop_
_symmetry_equiv_pos_as_xyz
'x, y, z'
_cell_length_a     16.94752
_cell_length_b     6.9511718
_cell_length_c     5.9667908
_cell_angle_alpha  83.788544
_cell_angle_beta   98.777989
_cell_length_gamma 118.239
loop_
_atom_site_label
_atom_site_type_symbol
_atom_site_fract_x
_atom_site_fract_y
_atom_site_fract_z
_atom_type_partial_charge
Gd0 Gd 0.94095 0.83067 1.00743 0.0
Gd1 Gd 0.14978 0.08091 0.07745 0.0
C2 C 0.04675 0.36277 1.04087 0.0
C3 C 0.77041 0.67393 1.03447 0.0
C4 C 0.70576 0.75841 1.03799 0.0
C5 C 0.6167 0.63882 0.93949 0.0
C6 C 0.73194 -0.04191 0.13489 0.0
C7 C 0.57952 0.91507 1.03877 0.0
C8 C 0.6694 0.03559 0.13544 0.0
C9 C 0.55411 0.71606 0.93992 0.0
C10 C 1.02286 0.93098 0.63122 0.0
C11 C 1.0441 0.54913 0.0432 0.0
C12 C 0.32023 0.23462 0.05172 0.0
C13 C 0.38524 0.1498 0.04662 0.0
C14 C 0.45097 0.17888 0.23268 0.0
C15 C 0.38416 0.04471 0.85679 0.0
C16 C 0.51259 -0.00372 1.04128 0.0
C17 C 0.44711 -0.03108 0.85425 0.0
C18 C 0.5136 0.10206 0.23072 0.0
C19 C 0.06751 -0.0193 0.45322 0.0
O20 O 0.97178 0.17808 0.06356 0.0
O21 O 0.12367 0.36904 1.01327 0.0
O22 O 0.80377 0.70325 0.84254 0.0
O23 O 0.83066 0.70907 0.21235 0.0
O24 O 0.94931 0.75161 0.65766 0.0
O25 O 0.04645 0.05298 0.79528 0.0
O26 O 0.119 0.73385 1.01997 0.0
O27 O 0.96725 0.54283 0.07154 0.0
O28 O 0.2866 0.20514 0.24345 0.0
O29 O 0.26057 0.20563 0.87348 0.0
O30 O 0.14104 0.16018 0.42693 0.0
O31 O 1.04434 0.85877 0.28931 0.0
H32 H 0.59546 0.48512 0.86244 0.0
H33 H 0.80072 0.05448 0.20959 0.0
H34 H 0.69185 0.1913 0.2092 0.0
H35 H 0.48553 0.61819 0.86528 0.0
H36 H 0.45401 0.26144 0.3802 0.0
H37 H 0.33502 0.02152 0.70941 0.0
H38 H 0.44514 0.89145 0.70407 0.0
H39 H 0.56225 0.12387 0.37893 0.0
loop_
_geom_bond_atom_site_label_1
_geom_bond_atom_site_label_2
_geom_bond_distance
_geom_bond_site_symmetry_2
_ccdc_geom_bond_type
Gd0 C3 2.818 . S
Gd0 O20 2.377 1_565 S
Gd0 O22 2.448 . S
Gd0 O23 2.506 1_556 S
Gd0 O24 2.435 . S
Gd0 O25 2.717 1_665 S
Gd0 O27 2.395 . S
Gd0 O31 2.327 1_556 S
Gd1 C12 2.818 . S
Gd1 O21 2.395 . S
Gd1 O25 2.327 1_554 S
Gd1 O26 2.377 1_545 S
Gd1 O28 2.448 . S
Gd1 O29 2.506 1_554 S
Gd1 O30 2.435 . S
Gd1 O31 2.717 1_445 S
C2 O20 1.240 1_455 S
C2 O21 1.240 1_556 S
C3 Gd0 2.818 . S
C3 C4 1.510 . S
C3 O22 1.249 . S
C3 O23 1.252 1_556 S
C4 C3 1.510 . S
C4 C5 1.404 . S
C4 C6 1.352 1_566 S
C5 C4 1.404 . S
C5 C9 1.389 . S
C5 H32 0.930 . S
C6 C4 1.352 1_544 S
C6 C8 1.374 . S
C6 H33 0.931 . S
C7 C8 1.359 1_565 S
C7 C9 1.364 1_554 S
C8 C6 1.374 . S
C8 C7 1.359 1_545 S
C8 H34 0.931 . S
C9 C5 1.389 . S
C9 C7 1.364 1_556 S
C9 H35 0.931 . S
C10 O24 1.256 . S
C10 O25 1.257 1_665 S
C11 O26 1.240 1_655 S
C11 O27 1.240 1_554 S
C12 Gd1 2.818 . S
C12 C13 1.510 . S
C12 O28 1.249 . S
C12 O29 1.252 1_554 S
C13 C12 1.510 . S
C13 C14 1.404 . S
C13 C15 1.352 1_544 S
C14 C13 1.404 . S
C14 C18 1.389 . S
C14 H36 0.930 . S
C15 C13 1.352 1_566 S
C15 C17 1.374 . S
C15 H37 0.931 . S
C16 C17 1.359 1_545 S
C16 C18 1.364 1_556 S
C17 C15 1.374 . S
C17 C16 1.359 1_565 S
C17 H38 0.931 . S
C18 C14 1.389 . S
C18 C16 1.364 1_554 S
C18 H39 0.931 . S
C19 O30 1.256 . S
C19 O31 1.257 1_445 S
O20 Gd0 2.377 1_545 S
O20 C2 1.240 1_655 S
O21 Gd1 2.395 . S
O21 C2 1.240 1_554 S
O22 Gd0 2.448 . S
O22 C3 1.249 . S
O23 Gd0 2.506 1_554 S
O23 C3 1.252 1_554 S
O24 Gd0 2.435 . S
O24 C10 1.256 . S
O25 Gd0 2.717 1_445 S
O25 Gd1 2.327 1_556 S
O25 C10 1.257 1_445 S
O26 Gd1 2.377 1_565 S
O26 C11 1.240 1_455 S
O27 Gd0 2.395 . S
O27 C11 1.240 1_556 S
O28 Gd1 2.448 . S
O28 C12 1.249 . S
O29 Gd1 2.506 1_556 S
O29 C12 1.252 1_556 S
O30 Gd1 2.435 . S
O30 C19 1.256 . S
O31 Gd0 2.327 1_554 S
O31 Gd1 2.717 1_665 S
O31 C19 1.257 1_665 S
H32 C5 0.930 . S
H33 C6 0.931 . S
H34 C8 0.931 . S
H35 C9 0.931 . S
H36 C14 0.930 . S
H37 C15 0.931 . S
H38 C17 0.931 . S
H39 C18 0.931 . S
C19 C10 1.500 1_445 S
C16 C7 1.500 1_546 S
C11 C2 1.500 1_654 S
