# Generated by pormake.
# Topology uog, (4)-cn, num edge types: 1
# Building blocks:
#     Node 0, Type 0, BuildingBlock: QUQFOY_clean_sbu_1, # of connection points: 4
#     Node 1, Type 0, BuildingBlock: QUQFOY_clean_sbu_1, # of connection points: 4
#     Node 2, Type 0, BuildingBlock: QUQFOY_clean_sbu_1, # of connection points: 4
#     Node 3, Type 0, BuildingBlock: QUQFOY_clean_sbu_1, # of connection points: 4
#     Node 4, Type 0, BuildingBlock: QUQFOY_clean_sbu_1, # of connection points: 4
#     Node 5, Type 0, BuildingBlock: QUQFOY_clean_sbu_1, # of connection points: 4
#     Edge 6, Type (0, 0), None
#     Edge 7, Type (0, 0), None
#     Edge 8, Type (0, 0), None
#     Edge 9, Type (0, 0), None
#     Edge 10, Type (0, 0), None
#     Edge 11, Type (0, 0), None
#     Edge 12, Type (0, 0), None
#     Edge 13, Type (0, 0), None
#     Edge 14, Type (0, 0), None
#     Edge 15, Type (0, 0), None
#     Edge 16, Type (0, 0), None
#     Edge 17, Type (0, 0), None
# Relax obj value: 0.126
# Max RMSD: 0.150
# Mean RMSD: 0.150
data_MOF--net-uog--node1-QUQFOY_clean_sbu_1--edge1-none
_symmetry_space_group_name_H-M    P1
_symmetry_Int_Tables_number       1
_symmetry_cell_setting            triclinic
loop_
_symmetry_equiv_pos_as_xyz
'x, y, z'
_cell_length_a     13.086738
_cell_length_b     13.087977
_cell_length_c     19.503411
_cell_angle_alpha  89.999733
_cell_angle_beta   90.001514
_cell_angle_gamma 120.00901
loop_
_atom_site_label
_atom_site_type_symbol
_atom_site_fract_x
_atom_site_fract_y
_atom_site_fract_z
_atom_type_partial_charge
O0 O 0.67723 0.53782 0.21348 0.0
Cd1 Cd 0.73793 0.42574 0.2084 0.0
Cd2 Cd 0.54337 0.2678 0.18174 0.0
O3 O 0.50871 0.38171 0.24258 0.0
O4 O 0.85301 0.47125 0.2843 0.0
O5 O 0.66893 0.32068 0.29146 0.0
C6 C 0.7665 0.39311 0.32124 0.0
C7 C 0.54635 0.08786 0.19392 0.0
C8 C 0.57409 0.4942 0.23734 0.0
C9 C 0.67353 0.3791 0.06252 0.0
O10 O 0.56937 0.33191 0.08562 0.0
O11 O 0.75868 0.39854 0.10303 0.0
O12 O 0.44797 0.08875 0.18938 0.0
O13 O 0.6428 0.18819 0.19441 0.0
O14 O 0.17136 0.66127 0.54683 0.0
Cd15 Cd 0.34416 0.72199 0.54173 0.0
Cd16 Cd 0.30749 0.52744 0.51508 0.0
O17 O 0.15894 0.49278 0.57594 0.0
O18 O 0.41377 0.83708 0.61762 0.0
O19 O 0.38025 0.65302 0.6248 0.0
C20 C 0.40539 0.75058 0.65457 0.0
C21 C 0.49041 0.53041 0.52724 0.0
C22 C 0.11183 0.55815 0.5707 0.0
C23 C 0.32636 0.65759 0.39586 0.0
O24 O 0.26935 0.55345 0.41896 0.0
O25 O 0.39212 0.74274 0.43636 0.0
O26 O 0.39112 0.43204 0.5227 0.0
O27 O 0.48656 0.62685 0.52773 0.0
O28 O 0.542 0.15537 0.88017 0.0
Cd29 Cd 0.65407 0.32816 0.87507 0.0
Cd30 Cd 0.81197 0.29153 0.8484 0.0
O31 O 0.69811 0.143 0.90928 0.0
O32 O 0.60854 0.39771 0.95096 0.0
O33 O 0.75916 0.36427 0.95813 0.0
C34 C 0.6867 0.38936 0.98789 0.0
C35 C 0.99194 0.47446 0.86055 0.0
C36 C 0.58562 0.09587 0.90404 0.0
C37 C 0.70063 0.31037 0.72919 0.0
O38 O 0.74778 0.25338 0.75228 0.0
O39 O 0.68124 0.37611 0.7697 0.0
O40 O 0.99102 0.37519 0.856 0.0
O41 O 0.89162 0.47058 0.86105 0.0
O42 O 0.41849 0.52601 0.2135 0.0
Cd43 Cd 0.35782 0.6381 0.20841 0.0
Cd44 Cd 0.5524 0.79604 0.18175 0.0
O45 O 0.58706 0.68213 0.24259 0.0
O46 O 0.24273 0.59262 0.2843 0.0
O47 O 0.42685 0.74318 0.29146 0.0
C48 C 0.32927 0.67076 0.32123 0.0
C49 C 0.54942 0.97598 0.19392 0.0
C50 C 0.52163 0.56964 0.23736 0.0
C51 C 0.42223 0.68474 0.06252 0.0
O52 O 0.52639 0.73192 0.08563 0.0
O53 O 0.33708 0.6653 0.10303 0.0
O54 O 0.6478 0.9751 0.18938 0.0
O55 O 0.45297 0.87566 0.1944 0.0
O56 O 0.92439 0.40255 0.54685 0.0
Cd57 Cd 0.75159 0.34186 0.54174 0.0
Cd58 Cd 0.78829 0.53643 0.51508 0.0
O59 O 0.93685 0.57109 0.57594 0.0
O60 O 0.68197 0.22677 0.61763 0.0
O61 O 0.71553 0.41085 0.6248 0.0
C62 C 0.69037 0.31328 0.65456 0.0
C63 C 0.60537 0.53347 0.52724 0.0
C64 C 0.98391 0.50568 0.57071 0.0
C65 C 0.7694 0.40628 0.39586 0.0
O66 O 0.82642 0.51043 0.41896 0.0
O67 O 0.70366 0.32113 0.43637 0.0
O68 O 0.70466 0.63184 0.5227 0.0
O69 O 0.60922 0.43702 0.52773 0.0
O70 O 0.55381 0.90848 0.88019 0.0
Cd71 Cd 0.44171 0.73569 0.87508 0.0
Cd72 Cd 0.28381 0.77234 0.8484 0.0
O73 O 0.39768 0.92087 0.90928 0.0
O74 O 0.48721 0.66611 0.95097 0.0
O75 O 0.33662 0.69959 0.95813 0.0
C76 C 0.40906 0.67447 0.9879 0.0
C77 C 0.10384 0.58941 0.86055 0.0
C78 C 0.51017 0.96796 0.90405 0.0
C79 C 0.39513 0.75349 0.72919 0.0
O80 O 0.34798 0.81049 0.75229 0.0
O81 O 0.41453 0.68776 0.7697 0.0
O82 O 0.10475 0.68868 0.85601 0.0
O83 O 0.20416 0.59329 0.86104 0.0
loop_
_geom_bond_atom_site_label_1
_geom_bond_atom_site_label_2
_geom_bond_distance
_geom_bond_site_symmetry_2
_ccdc_geom_bond_type
O0 Cd1 2.223 . S
O0 C8 1.315 . S
Cd1 O0 2.223 . S
Cd1 O4 2.297 . S
Cd1 O5 2.439 . S
Cd1 O11 2.240 . S
Cd2 O3 2.240 . S
Cd2 O10 2.223 . S
Cd2 O12 2.297 . S
Cd2 O13 2.439 . S
O3 Cd2 2.240 . S
O3 C8 1.279 . S
O4 Cd1 2.297 . S
O4 C6 1.247 . S
O5 Cd1 2.439 . S
O5 C6 1.208 . S
C6 O4 1.247 . S
C6 O5 1.208 . S
C7 O12 1.247 . S
C7 O13 1.208 . S
C8 O0 1.315 . S
C8 O3 1.279 . S
C9 O10 1.315 . S
C9 O11 1.279 . S
O10 Cd2 2.223 . S
O10 C9 1.315 . S
O11 Cd1 2.240 . S
O11 C9 1.279 . S
O12 Cd2 2.297 . S
O12 C7 1.247 . S
O13 Cd2 2.439 . S
O13 C7 1.208 . S
O14 Cd15 2.223 . S
O14 C22 1.315 . S
Cd15 O14 2.223 . S
Cd15 O18 2.297 . S
Cd15 O19 2.439 . S
Cd15 O25 2.240 . S
Cd16 O17 2.240 . S
Cd16 O24 2.223 . S
Cd16 O26 2.297 . S
Cd16 O27 2.439 . S
O17 Cd16 2.240 . S
O17 C22 1.279 . S
O18 Cd15 2.297 . S
O18 C20 1.247 . S
O19 Cd15 2.439 . S
O19 C20 1.208 . S
C20 O18 1.247 . S
C20 O19 1.208 . S
C21 O26 1.247 . S
C21 O27 1.208 . S
C22 O14 1.315 . S
C22 O17 1.279 . S
C23 O24 1.315 . S
C23 O25 1.279 . S
O24 Cd16 2.223 . S
O24 C23 1.315 . S
O25 Cd15 2.240 . S
O25 C23 1.279 . S
O26 Cd16 2.297 . S
O26 C21 1.247 . S
O27 Cd16 2.439 . S
O27 C21 1.208 . S
O28 Cd29 2.223 . S
O28 C36 1.315 . S
Cd29 O28 2.223 . S
Cd29 O32 2.297 . S
Cd29 O33 2.439 . S
Cd29 O39 2.240 . S
Cd30 O31 2.240 . S
Cd30 O38 2.223 . S
Cd30 O40 2.297 . S
Cd30 O41 2.439 . S
O31 Cd30 2.240 . S
O31 C36 1.279 . S
O32 Cd29 2.297 . S
O32 C34 1.247 . S
O33 Cd29 2.439 . S
O33 C34 1.208 . S
C34 O32 1.247 . S
C34 O33 1.208 . S
C35 O40 1.247 . S
C35 O41 1.208 . S
C36 O28 1.315 . S
C36 O31 1.279 . S
C37 O38 1.315 . S
C37 O39 1.279 . S
O38 Cd30 2.223 . S
O38 C37 1.315 . S
O39 Cd29 2.240 . S
O39 C37 1.279 . S
O40 Cd30 2.297 . S
O40 C35 1.247 . S
O41 Cd30 2.439 . S
O41 C35 1.208 . S
O42 Cd43 2.223 . S
O42 C50 1.315 . S
Cd43 O42 2.223 . S
Cd43 O46 2.297 . S
Cd43 O47 2.439 . S
Cd43 O53 2.240 . S
Cd44 O45 2.240 . S
Cd44 O52 2.223 . S
Cd44 O54 2.297 . S
Cd44 O55 2.439 . S
O45 Cd44 2.240 . S
O45 C50 1.279 . S
O46 Cd43 2.297 . S
O46 C48 1.247 . S
O47 Cd43 2.439 . S
O47 C48 1.208 . S
C48 O46 1.247 . S
C48 O47 1.208 . S
C49 O54 1.247 . S
C49 O55 1.208 . S
C50 O42 1.315 . S
C50 O45 1.279 . S
C51 O52 1.315 . S
C51 O53 1.279 . S
O52 Cd44 2.223 . S
O52 C51 1.315 . S
O53 Cd43 2.240 . S
O53 C51 1.279 . S
O54 Cd44 2.297 . S
O54 C49 1.247 . S
O55 Cd44 2.439 . S
O55 C49 1.208 . S
O56 Cd57 2.223 . S
O56 C64 1.315 . S
Cd57 O56 2.223 . S
Cd57 O60 2.297 . S
Cd57 O61 2.439 . S
Cd57 O67 2.240 . S
Cd58 O59 2.240 . S
Cd58 O66 2.223 . S
Cd58 O68 2.297 . S
Cd58 O69 2.439 . S
O59 Cd58 2.240 . S
O59 C64 1.279 . S
O60 Cd57 2.297 . S
O60 C62 1.247 . S
O61 Cd57 2.439 . S
O61 C62 1.208 . S
C62 O60 1.247 . S
C62 O61 1.208 . S
C63 O68 1.247 . S
C63 O69 1.208 . S
C64 O56 1.315 . S
C64 O59 1.279 . S
C65 O66 1.315 . S
C65 O67 1.279 . S
O66 Cd58 2.223 . S
O66 C65 1.315 . S
O67 Cd57 2.240 . S
O67 C65 1.279 . S
O68 Cd58 2.297 . S
O68 C63 1.247 . S
O69 Cd58 2.439 . S
O69 C63 1.208 . S
O70 Cd71 2.223 . S
O70 C78 1.315 . S
Cd71 O70 2.223 . S
Cd71 O74 2.297 . S
Cd71 O75 2.439 . S
Cd71 O81 2.240 . S
Cd72 O73 2.240 . S
Cd72 O80 2.223 . S
Cd72 O82 2.297 . S
Cd72 O83 2.439 . S
O73 Cd72 2.240 . S
O73 C78 1.279 . S
O74 Cd71 2.297 . S
O74 C76 1.247 . S
O75 Cd71 2.439 . S
O75 C76 1.208 . S
C76 O74 1.247 . S
C76 O75 1.208 . S
C77 O82 1.247 . S
C77 O83 1.208 . S
C78 O70 1.315 . S
C78 O73 1.279 . S
C79 O80 1.315 . S
C79 O81 1.279 . S
O80 Cd72 2.223 . S
O80 C79 1.315 . S
O81 Cd71 2.240 . S
O81 C79 1.279 . S
O82 Cd72 2.297 . S
O82 C77 1.247 . S
O83 Cd72 2.439 . S
O83 C77 1.208 . S
C7 C49 1.404 1_545 S
C21 C63 1.404 . S
C35 C77 1.404 1_655 S
C22 C64 1.964 1_455 S
C78 C36 1.965 1_565 S
C50 C8 1.965 . S
C34 C9 1.844 1_556 S
C48 C23 1.844 . S
C37 C62 1.844 . S
C76 C51 1.844 1_556 S
C65 C6 1.844 . S
C79 C20 1.844 . S
