# Generated by pormake.
# Topology gsi, (4)-cn, num edge types: 1
# Building blocks:
#     Node 0, Type 0, BuildingBlock: QUQFOY_clean_sbu_3, # of connection points: 4
#     Node 1, Type 0, BuildingBlock: QUQFOY_clean_sbu_3, # of connection points: 4
#     Node 2, Type 0, BuildingBlock: QUQFOY_clean_sbu_3, # of connection points: 4
#     Node 3, Type 0, BuildingBlock: QUQFOY_clean_sbu_3, # of connection points: 4
#     Node 4, Type 0, BuildingBlock: QUQFOY_clean_sbu_3, # of connection points: 4
#     Node 5, Type 0, BuildingBlock: QUQFOY_clean_sbu_3, # of connection points: 4
#     Node 6, Type 0, BuildingBlock: QUQFOY_clean_sbu_3, # of connection points: 4
#     Node 7, Type 0, BuildingBlock: QUQFOY_clean_sbu_3, # of connection points: 4
#     Node 8, Type 0, BuildingBlock: QUQFOY_clean_sbu_3, # of connection points: 4
#     Node 9, Type 0, BuildingBlock: QUQFOY_clean_sbu_3, # of connection points: 4
#     Node 10, Type 0, BuildingBlock: QUQFOY_clean_sbu_3, # of connection points: 4
#     Node 11, Type 0, BuildingBlock: QUQFOY_clean_sbu_3, # of connection points: 4
#     Node 12, Type 0, BuildingBlock: QUQFOY_clean_sbu_3, # of connection points: 4
#     Node 13, Type 0, BuildingBlock: QUQFOY_clean_sbu_3, # of connection points: 4
#     Node 14, Type 0, BuildingBlock: QUQFOY_clean_sbu_3, # of connection points: 4
#     Node 15, Type 0, BuildingBlock: QUQFOY_clean_sbu_3, # of connection points: 4
#     Edge 16, Type (0, 0), None
#     Edge 17, Type (0, 0), None
#     Edge 18, Type (0, 0), None
#     Edge 19, Type (0, 0), None
#     Edge 20, Type (0, 0), None
#     Edge 21, Type (0, 0), None
#     Edge 22, Type (0, 0), None
#     Edge 23, Type (0, 0), None
#     Edge 24, Type (0, 0), None
#     Edge 25, Type (0, 0), None
#     Edge 26, Type (0, 0), None
#     Edge 27, Type (0, 0), None
#     Edge 28, Type (0, 0), None
#     Edge 29, Type (0, 0), None
#     Edge 30, Type (0, 0), None
#     Edge 31, Type (0, 0), None
#     Edge 32, Type (0, 0), None
#     Edge 33, Type (0, 0), None
#     Edge 34, Type (0, 0), None
#     Edge 35, Type (0, 0), None
#     Edge 36, Type (0, 0), None
#     Edge 37, Type (0, 0), None
#     Edge 38, Type (0, 0), None
#     Edge 39, Type (0, 0), None
#     Edge 40, Type (0, 0), None
#     Edge 41, Type (0, 0), None
#     Edge 42, Type (0, 0), None
#     Edge 43, Type (0, 0), None
#     Edge 44, Type (0, 0), None
#     Edge 45, Type (0, 0), None
#     Edge 46, Type (0, 0), None
#     Edge 47, Type (0, 0), None
# Relax obj value: 0.129
# Max RMSD: 0.125
# Mean RMSD: 0.121
data_MOF--net-gsi--node1-QUQFOY_clean_sbu_3--edge1-none
_symmetry_space_group_name_H-M    P1
_symmetry_Int_Tables_number       1
_symmetry_cell_setting            triclinic
loop_
_symmetry_equiv_pos_as_xyz
'x, y, z'
_cell_length_a     23.587942
_cell_length_b     19.066294
_cell_length_c     21.334784
_cell_angle_alpha  90.00078
_cell_angle_beta   90.004133
_cell_angle_gamma 90.003367
loop_
_atom_site_label
_atom_site_type_symbol
_atom_site_fract_x
_atom_site_fract_y
_atom_site_fract_z
_atom_type_partial_charge
C0 C -0.03815 0.18894 0.1708 0.0
O1 O -0.01682 0.18418 0.22524 0.0
Cd2 Cd 0.06914 0.15875 0.27364 0.0
O3 O -0.00885 0.17301 0.12211 0.0
Cd4 Cd 0.0952 0.12592 0.12559 0.0
C5 C 0.07621 -0.01167 0.22915 0.0
O6 O 0.1258 0.21291 0.1983 0.0
O7 O 0.18446 0.12792 0.1871 0.0
O8 O 0.1412 0.18143 0.03436 0.0
C9 C 0.17411 0.18811 0.2091 0.0
O10 O 0.07705 0.03194 0.2742 0.0
C11 C 0.16145 0.12477 0.01246 0.0
O12 O 0.07752 0.00881 0.17214 0.0
O13 O 0.14485 0.06815 0.03784 0.0
C14 C 0.90189 0.21233 0.1708 0.0
O15 O 0.88058 0.2171 0.22525 0.0
Cd16 Cd 0.79462 0.24252 0.27366 0.0
O17 O 0.87258 0.22826 0.12212 0.0
Cd18 Cd 0.76853 0.27535 0.12562 0.0
C19 C 0.78753 0.41294 0.22917 0.0
O20 O 0.73794 0.18836 0.19833 0.0
O21 O 0.67928 0.27335 0.18712 0.0
O22 O 0.72252 0.21982 0.0344 0.0
C23 C 0.68963 0.21316 0.20913 0.0
O24 O 0.78671 0.36933 0.27422 0.0
C25 C 0.70227 0.27647 0.01248 0.0
O26 O 0.78621 0.39246 0.17217 0.0
O27 O 0.71887 0.3331 0.03785 0.0
C28 C -0.03815 0.71233 0.30174 0.0
O29 O -0.01684 0.7171 0.2473 0.0
Cd30 Cd 0.06912 0.74252 0.19888 0.0
O31 O -0.00883 0.72826 0.35042 0.0
Cd32 Cd 0.09522 0.77535 0.34692 0.0
C33 C 0.07621 0.91294 0.24337 0.0
O34 O 0.12581 0.68836 0.2742 0.0
O35 O 0.18447 0.77336 0.28541 0.0
O36 O 0.14122 0.71982 0.43814 0.0
C37 C 0.17411 0.71316 0.26341 0.0
O38 O 0.07703 0.86933 0.19832 0.0
C39 C 0.16148 0.77647 0.46005 0.0
O40 O 0.07753 0.89246 0.30038 0.0
O41 O 0.14489 0.8331 0.43468 0.0
C42 C 0.9019 0.68894 0.30174 0.0
O43 O 0.88056 0.68418 0.24731 0.0
Cd44 Cd 0.7946 0.65875 0.19891 0.0
O45 O 0.87259 0.673 0.35043 0.0
Cd46 Cd 0.76854 0.62592 0.34695 0.0
C47 C 0.78753 0.48833 0.2434 0.0
O48 O 0.73794 0.71291 0.27425 0.0
O49 O 0.67928 0.62791 0.28544 0.0
O50 O 0.72254 0.68143 0.43818 0.0
C51 C 0.68964 0.68811 0.26345 0.0
O52 O 0.78669 0.53194 0.19834 0.0
C53 C 0.70229 0.62477 0.46008 0.0
O54 O 0.78622 0.50881 0.3004 0.0
O55 O 0.71887 0.56815 0.4347 0.0
C56 C 0.4019 0.7123 0.6708 0.0
O57 O 0.38058 0.71707 0.72524 0.0
Cd58 Cd 0.29462 0.74248 0.77364 0.0
O59 O 0.37259 0.72823 0.62211 0.0
Cd60 Cd 0.26855 0.77531 0.6256 0.0
C61 C 0.28753 0.9129 0.72916 0.0
O62 O 0.23795 0.68831 0.6983 0.0
O63 O 0.17929 0.7733 0.6871 0.0
O64 O 0.22253 0.71981 0.53437 0.0
C65 C 0.18964 0.71311 0.7091 0.0
O66 O 0.2867 0.86929 0.77421 0.0
C67 C 0.20229 0.77646 0.51246 0.0
O68 O 0.28623 0.89242 0.67216 0.0
O69 O 0.21889 0.83309 0.53784 0.0
C70 C 0.90087 0.70112 0.8785 0.0
O71 O 0.87418 0.64339 0.87967 0.0
Cd72 Cd 0.77523 0.63356 0.85746 0.0
O73 O 0.87551 0.75839 0.86564 0.0
Cd74 Cd 0.77938 0.79887 0.83507 0.0
C75 C 0.70164 0.74325 0.95936 0.0
O76 O 0.7602 0.70023 0.76547 0.0
O77 O 0.69042 0.76962 0.78986 0.0
O78 O 0.80248 0.85894 0.73721 0.0
C79 C 0.70976 0.72047 0.75606 0.0
O80 O 0.71606 0.68338 0.93837 0.0
C81 C 0.79552 0.92047 0.75768 0.0
O82 O 0.72094 0.7994 0.93446 0.0
O83 O 0.78381 0.9269 0.81565 0.0
C84 C -0.03707 0.70007 0.87851 0.0
O85 O -0.01038 0.75781 0.87964 0.0
Cd86 Cd 0.08855 0.76764 0.85741 0.0
O87 O -0.01172 0.64279 0.86564 0.0
Cd88 Cd 0.0844 0.60232 0.83504 0.0
C89 C 0.16214 0.65796 0.95932 0.0
O90 O 0.10356 0.70095 0.76543 0.0
O91 O 0.17335 0.63155 0.78981 0.0
O92 O 0.06124 0.54224 0.73719 0.0
C93 C 0.154 0.6807 0.75601 0.0
O94 O 0.14773 0.71782 0.93833 0.0
C95 C 0.06824 0.48071 0.75767 0.0
O96 O 0.14285 0.6018 0.93443 0.0
O97 O 0.07998 0.47428 0.81563 0.0
C98 C 0.90083 0.20007 0.59405 0.0
O99 O 0.87414 0.25781 0.59291 0.0
Cd100 Cd 0.77521 0.26764 0.61514 0.0
O101 O 0.87547 0.1428 0.60691 0.0
Cd102 Cd 0.77935 0.10232 0.63751 0.0
C103 C 0.70161 0.15795 0.51323 0.0
O104 O 0.76018 0.20095 0.70712 0.0
O105 O 0.6904 0.13154 0.68272 0.0
O106 O 0.80251 0.04225 0.73536 0.0
C107 C 0.70974 0.1807 0.71652 0.0
O108 O 0.71602 0.21782 0.53422 0.0
C109 C 0.7955 -0.01928 0.71489 0.0
O110 O 0.7209 0.1018 0.53811 0.0
O111 O 0.78376 -0.02572 0.65693 0.0
C112 C -0.03711 0.20112 0.59402 0.0
O113 O -0.01043 0.14339 0.59286 0.0
Cd114 Cd 0.08851 0.13355 0.61508 0.0
O115 O -0.01176 0.2584 0.6069 0.0
Cd116 Cd 0.08438 0.29887 0.63748 0.0
C117 C 0.16211 0.24325 0.51319 0.0
O118 O 0.10354 0.20022 0.70707 0.0
O119 O 0.17333 0.26962 0.68269 0.0
O120 O 0.06127 0.35893 0.73534 0.0
C121 C 0.15399 0.22047 0.71648 0.0
O122 O 0.14769 0.18338 0.53417 0.0
C123 C 0.06825 0.42046 0.71487 0.0
O124 O 0.14282 0.2994 0.53809 0.0
O125 O 0.07995 0.4269 0.6569 0.0
C126 C 0.46289 0.20009 0.3785 0.0
O127 O 0.48959 0.25782 0.37966 0.0
Cd128 Cd 0.58852 0.26765 0.35745 0.0
O129 O 0.48825 0.14282 0.36563 0.0
Cd130 Cd 0.58438 0.10235 0.33505 0.0
C131 C 0.66212 0.15796 0.45935 0.0
O132 O 0.60355 0.20099 0.26545 0.0
O133 O 0.67333 0.1316 0.28985 0.0
O134 O 0.56126 0.04228 0.23719 0.0
C135 C 0.65399 0.18075 0.25604 0.0
O136 O 0.6477 0.21783 0.43836 0.0
C137 C 0.56824 -0.01925 0.25767 0.0
O138 O 0.64282 0.10181 0.43445 0.0
O139 O 0.57995 -0.02568 0.31563 0.0
C140 C 0.46186 0.68891 0.6708 0.0
O141 O 0.48317 0.68414 0.72525 0.0
Cd142 Cd 0.56912 0.65871 0.77368 0.0
O143 O 0.49117 0.67298 0.62212 0.0
Cd144 Cd 0.59522 0.62589 0.62561 0.0
C145 C 0.57621 0.4883 0.72916 0.0
O146 O 0.6258 0.71286 0.69836 0.0
O147 O 0.68448 0.62788 0.68712 0.0
O148 O 0.64123 0.68142 0.5344 0.0
C149 C 0.6741 0.68805 0.70916 0.0
O150 O 0.57703 0.5319 0.77422 0.0
C151 C 0.66147 0.62477 0.51249 0.0
O152 O 0.57753 0.50878 0.67216 0.0
O153 O 0.64487 0.56814 0.53785 0.0
C154 C 0.46184 0.2123 0.80175 0.0
O155 O 0.48315 0.21707 0.74731 0.0
Cd156 Cd 0.5691 0.24249 0.69888 0.0
O157 O 0.49115 0.22823 0.85043 0.0
Cd158 Cd 0.5952 0.27531 0.84694 0.0
C159 C 0.5762 0.4129 0.74338 0.0
O160 O 0.62578 0.18833 0.77421 0.0
O161 O 0.68447 0.2733 0.78545 0.0
O162 O 0.64121 0.2198 0.93817 0.0
C163 C 0.67408 0.21314 0.76341 0.0
O164 O 0.57703 0.3693 0.69832 0.0
C165 C 0.66146 0.27646 0.96007 0.0
O166 O 0.57752 0.39242 0.80038 0.0
O167 O 0.64487 0.33309 0.93469 0.0
C168 C 0.40188 0.1889 0.80175 0.0
O169 O 0.38056 0.18414 0.7473 0.0
Cd170 Cd 0.29461 0.1587 0.69887 0.0
O171 O 0.37257 0.17298 0.85043 0.0
Cd172 Cd 0.26852 0.12588 0.84693 0.0
C173 C 0.28753 -0.01171 0.74338 0.0
O174 O 0.23794 0.21286 0.77419 0.0
O175 O 0.17925 0.12787 0.78542 0.0
O176 O 0.22251 0.18142 0.93814 0.0
C177 C 0.18964 0.18804 0.76338 0.0
O178 O 0.28671 0.03189 0.69833 0.0
C179 C 0.20226 0.12477 0.96005 0.0
O180 O 0.28621 0.00877 0.80039 0.0
O181 O 0.21885 0.06813 0.93469 0.0
C182 C 0.40083 0.20115 0.37851 0.0
O183 O 0.37415 0.14341 0.37965 0.0
Cd184 Cd 0.27521 0.13358 0.35742 0.0
O185 O 0.37548 0.25842 0.36565 0.0
Cd186 Cd 0.27936 0.2989 0.33506 0.0
C187 C 0.20161 0.24326 0.45932 0.0
O188 O 0.26019 0.20027 0.26544 0.0
O189 O 0.19041 0.26967 0.28982 0.0
O190 O 0.30249 0.35898 0.23721 0.0
C191 C 0.20975 0.22052 0.25602 0.0
O192 O 0.21602 0.18339 0.43833 0.0
C193 C 0.29551 0.42051 0.25768 0.0
O194 O 0.2209 0.29941 0.43444 0.0
O195 O 0.28379 0.42694 0.31565 0.0
C196 C 0.40086 0.70009 0.09404 0.0
O197 O 0.37417 0.75783 0.09288 0.0
Cd198 Cd 0.27523 0.76766 0.1151 0.0
O199 O 0.3755 0.64282 0.10691 0.0
Cd200 Cd 0.27937 0.60235 0.1375 0.0
C201 C 0.20164 0.65796 0.0132 0.0
O202 O 0.2602 0.70099 0.20709 0.0
O203 O 0.19041 0.63159 0.1827 0.0
O204 O 0.3025 0.54229 0.23536 0.0
C205 C 0.20976 0.68075 0.2165 0.0
O206 O 0.21605 0.71784 0.03419 0.0
C207 C 0.2955 0.48076 0.21488 0.0
O208 O 0.22092 0.60181 0.0381 0.0
O209 O 0.28378 0.47432 0.15692 0.0
C210 C 0.46292 0.70114 0.09403 0.0
O211 O 0.4896 0.64341 0.09289 0.0
Cd212 Cd 0.58854 0.63358 0.11512 0.0
O213 O 0.48827 0.75842 0.10689 0.0
Cd214 Cd 0.5844 0.7989 0.13749 0.0
C215 C 0.66215 0.74326 0.01322 0.0
O216 O 0.60355 0.70027 0.2071 0.0
O217 O 0.67335 0.76967 0.18273 0.0
O218 O 0.56125 0.85897 0.23534 0.0
C219 C 0.654 0.72052 0.21653 0.0
O220 O 0.64773 0.68339 0.03421 0.0
C221 C 0.56825 0.9205 0.21487 0.0
O222 O 0.64286 0.79941 0.03811 0.0
O223 O 0.57998 0.92693 0.1569 0.0
loop_
_geom_bond_atom_site_label_1
_geom_bond_atom_site_label_2
_geom_bond_distance
_geom_bond_site_symmetry_2
_ccdc_geom_bond_type
C0 O1 1.306 . S
C0 O3 1.160 . S
O1 C0 1.306 . S
O1 Cd2 2.228 . S
Cd2 O1 2.228 . S
Cd2 O6 2.273 . S
Cd2 O10 2.277 . S
O3 C0 1.160 . S
O3 Cd4 2.203 . S
Cd4 O3 2.203 . S
Cd4 O6 2.411 . S
Cd4 O7 2.333 . S
Cd4 O8 2.352 . S
Cd4 O12 2.277 . S
Cd4 O13 2.356 . S
C5 O10 1.209 . S
C5 O12 1.226 . S
O6 Cd2 2.273 . S
O6 Cd4 2.411 . S
O6 C9 1.320 . S
O7 Cd4 2.333 . S
O7 C9 1.214 . S
O8 Cd4 2.352 . S
O8 C11 1.258 . S
C9 O6 1.320 . S
C9 O7 1.214 . S
O10 Cd2 2.277 . S
O10 C5 1.209 . S
C11 O8 1.258 . S
C11 O13 1.282 . S
O12 Cd4 2.277 . S
O12 C5 1.226 . S
O13 Cd4 2.356 . S
O13 C11 1.282 . S
C14 O15 1.306 . S
C14 O17 1.160 . S
O15 C14 1.306 . S
O15 Cd16 2.228 . S
Cd16 O15 2.228 . S
Cd16 O20 2.273 . S
Cd16 O24 2.277 . S
O17 C14 1.160 . S
O17 Cd18 2.203 . S
Cd18 O17 2.203 . S
Cd18 O20 2.411 . S
Cd18 O21 2.333 . S
Cd18 O22 2.352 . S
Cd18 O26 2.277 . S
Cd18 O27 2.356 . S
C19 O24 1.209 . S
C19 O26 1.226 . S
O20 Cd16 2.273 . S
O20 Cd18 2.411 . S
O20 C23 1.320 . S
O21 Cd18 2.333 . S
O21 C23 1.214 . S
O22 Cd18 2.352 . S
O22 C25 1.258 . S
C23 O20 1.320 . S
C23 O21 1.214 . S
O24 Cd16 2.277 . S
O24 C19 1.209 . S
C25 O22 1.258 . S
C25 O27 1.282 . S
O26 Cd18 2.277 . S
O26 C19 1.226 . S
O27 Cd18 2.356 . S
O27 C25 1.282 . S
C28 O29 1.306 . S
C28 O31 1.160 . S
O29 C28 1.306 . S
O29 Cd30 2.228 . S
Cd30 O29 2.228 . S
Cd30 O34 2.273 . S
Cd30 O38 2.277 . S
O31 C28 1.160 . S
O31 Cd32 2.203 . S
Cd32 O31 2.203 . S
Cd32 O34 2.411 . S
Cd32 O35 2.333 . S
Cd32 O36 2.352 . S
Cd32 O40 2.277 . S
Cd32 O41 2.356 . S
C33 O38 1.209 . S
C33 O40 1.226 . S
O34 Cd30 2.273 . S
O34 Cd32 2.411 . S
O34 C37 1.320 . S
O35 Cd32 2.333 . S
O35 C37 1.214 . S
O36 Cd32 2.352 . S
O36 C39 1.258 . S
C37 O34 1.320 . S
C37 O35 1.214 . S
O38 Cd30 2.277 . S
O38 C33 1.209 . S
C39 O36 1.258 . S
C39 O41 1.282 . S
O40 Cd32 2.277 . S
O40 C33 1.226 . S
O41 Cd32 2.356 . S
O41 C39 1.282 . S
C42 O43 1.306 . S
C42 O45 1.160 . S
O43 C42 1.306 . S
O43 Cd44 2.228 . S
Cd44 O43 2.228 . S
Cd44 O48 2.273 . S
Cd44 O52 2.277 . S
O45 C42 1.160 . S
O45 Cd46 2.203 . S
Cd46 O45 2.203 . S
Cd46 O48 2.411 . S
Cd46 O49 2.333 . S
Cd46 O50 2.352 . S
Cd46 O54 2.277 . S
Cd46 O55 2.356 . S
C47 O52 1.209 . S
C47 O54 1.226 . S
O48 Cd44 2.273 . S
O48 Cd46 2.411 . S
O48 C51 1.320 . S
O49 Cd46 2.333 . S
O49 C51 1.214 . S
O50 Cd46 2.352 . S
O50 C53 1.258 . S
C51 O48 1.320 . S
C51 O49 1.214 . S
O52 Cd44 2.277 . S
O52 C47 1.209 . S
C53 O50 1.258 . S
C53 O55 1.282 . S
O54 Cd46 2.277 . S
O54 C47 1.226 . S
O55 Cd46 2.356 . S
O55 C53 1.282 . S
C56 O57 1.306 . S
C56 O59 1.160 . S
O57 C56 1.306 . S
O57 Cd58 2.228 . S
Cd58 O57 2.228 . S
Cd58 O62 2.273 . S
Cd58 O66 2.277 . S
O59 C56 1.160 . S
O59 Cd60 2.203 . S
Cd60 O59 2.203 . S
Cd60 O62 2.411 . S
Cd60 O63 2.333 . S
Cd60 O64 2.352 . S
Cd60 O68 2.277 . S
Cd60 O69 2.356 . S
C61 O66 1.209 . S
C61 O68 1.226 . S
O62 Cd58 2.273 . S
O62 Cd60 2.411 . S
O62 C65 1.320 . S
O63 Cd60 2.333 . S
O63 C65 1.214 . S
O64 Cd60 2.352 . S
O64 C67 1.258 . S
C65 O62 1.320 . S
C65 O63 1.214 . S
O66 Cd58 2.277 . S
O66 C61 1.209 . S
C67 O64 1.258 . S
C67 O69 1.282 . S
O68 Cd60 2.277 . S
O68 C61 1.226 . S
O69 Cd60 2.356 . S
O69 C67 1.282 . S
C70 O71 1.306 . S
C70 O73 1.160 . S
O71 C70 1.306 . S
O71 Cd72 2.228 . S
Cd72 O71 2.228 . S
Cd72 O76 2.273 . S
Cd72 O80 2.277 . S
O73 C70 1.160 . S
O73 Cd74 2.203 . S
Cd74 O73 2.203 . S
Cd74 O76 2.411 . S
Cd74 O77 2.333 . S
Cd74 O78 2.352 . S
Cd74 O82 2.277 . S
Cd74 O83 2.356 . S
C75 O80 1.209 . S
C75 O82 1.226 . S
O76 Cd72 2.273 . S
O76 Cd74 2.411 . S
O76 C79 1.320 . S
O77 Cd74 2.333 . S
O77 C79 1.214 . S
O78 Cd74 2.352 . S
O78 C81 1.258 . S
C79 O76 1.320 . S
C79 O77 1.214 . S
O80 Cd72 2.277 . S
O80 C75 1.209 . S
C81 O78 1.258 . S
C81 O83 1.282 . S
O82 Cd74 2.277 . S
O82 C75 1.226 . S
O83 Cd74 2.356 . S
O83 C81 1.282 . S
C84 O85 1.306 . S
C84 O87 1.160 . S
O85 C84 1.306 . S
O85 Cd86 2.228 . S
Cd86 O85 2.228 . S
Cd86 O90 2.273 . S
Cd86 O94 2.277 . S
O87 C84 1.160 . S
O87 Cd88 2.203 . S
Cd88 O87 2.203 . S
Cd88 O90 2.411 . S
Cd88 O91 2.333 . S
Cd88 O92 2.352 . S
Cd88 O96 2.277 . S
Cd88 O97 2.356 . S
C89 O94 1.209 . S
C89 O96 1.226 . S
O90 Cd86 2.273 . S
O90 Cd88 2.411 . S
O90 C93 1.320 . S
O91 Cd88 2.333 . S
O91 C93 1.214 . S
O92 Cd88 2.352 . S
O92 C95 1.258 . S
C93 O90 1.320 . S
C93 O91 1.214 . S
O94 Cd86 2.277 . S
O94 C89 1.209 . S
C95 O92 1.258 . S
C95 O97 1.282 . S
O96 Cd88 2.277 . S
O96 C89 1.226 . S
O97 Cd88 2.356 . S
O97 C95 1.282 . S
C98 O99 1.306 . S
C98 O101 1.160 . S
O99 C98 1.306 . S
O99 Cd100 2.228 . S
Cd100 O99 2.228 . S
Cd100 O104 2.273 . S
Cd100 O108 2.277 . S
O101 C98 1.160 . S
O101 Cd102 2.203 . S
Cd102 O101 2.203 . S
Cd102 O104 2.411 . S
Cd102 O105 2.333 . S
Cd102 O106 2.352 . S
Cd102 O110 2.277 . S
Cd102 O111 2.356 . S
C103 O108 1.209 . S
C103 O110 1.226 . S
O104 Cd100 2.273 . S
O104 Cd102 2.411 . S
O104 C107 1.320 . S
O105 Cd102 2.333 . S
O105 C107 1.214 . S
O106 Cd102 2.352 . S
O106 C109 1.258 . S
C107 O104 1.320 . S
C107 O105 1.214 . S
O108 Cd100 2.277 . S
O108 C103 1.209 . S
C109 O106 1.258 . S
C109 O111 1.282 . S
O110 Cd102 2.277 . S
O110 C103 1.226 . S
O111 Cd102 2.356 . S
O111 C109 1.282 . S
C112 O113 1.306 . S
C112 O115 1.160 . S
O113 C112 1.306 . S
O113 Cd114 2.228 . S
Cd114 O113 2.228 . S
Cd114 O118 2.273 . S
Cd114 O122 2.277 . S
O115 C112 1.160 . S
O115 Cd116 2.203 . S
Cd116 O115 2.203 . S
Cd116 O118 2.411 . S
Cd116 O119 2.333 . S
Cd116 O120 2.352 . S
Cd116 O124 2.277 . S
Cd116 O125 2.356 . S
C117 O122 1.209 . S
C117 O124 1.226 . S
O118 Cd114 2.273 . S
O118 Cd116 2.411 . S
O118 C121 1.320 . S
O119 Cd116 2.333 . S
O119 C121 1.214 . S
O120 Cd116 2.352 . S
O120 C123 1.258 . S
C121 O118 1.320 . S
C121 O119 1.214 . S
O122 Cd114 2.277 . S
O122 C117 1.209 . S
C123 O120 1.258 . S
C123 O125 1.282 . S
O124 Cd116 2.277 . S
O124 C117 1.226 . S
O125 Cd116 2.356 . S
O125 C123 1.282 . S
C126 O127 1.306 . S
C126 O129 1.160 . S
O127 C126 1.306 . S
O127 Cd128 2.228 . S
Cd128 O127 2.228 . S
Cd128 O132 2.273 . S
Cd128 O136 2.277 . S
O129 C126 1.160 . S
O129 Cd130 2.203 . S
Cd130 O129 2.203 . S
Cd130 O132 2.411 . S
Cd130 O133 2.333 . S
Cd130 O134 2.352 . S
Cd130 O138 2.277 . S
Cd130 O139 2.356 . S
C131 O136 1.209 . S
C131 O138 1.226 . S
O132 Cd128 2.273 . S
O132 Cd130 2.411 . S
O132 C135 1.320 . S
O133 Cd130 2.333 . S
O133 C135 1.214 . S
O134 Cd130 2.352 . S
O134 C137 1.258 . S
C135 O132 1.320 . S
C135 O133 1.214 . S
O136 Cd128 2.277 . S
O136 C131 1.209 . S
C137 O134 1.258 . S
C137 O139 1.282 . S
O138 Cd130 2.277 . S
O138 C131 1.226 . S
O139 Cd130 2.356 . S
O139 C137 1.282 . S
C140 O141 1.306 . S
C140 O143 1.160 . S
O141 C140 1.306 . S
O141 Cd142 2.228 . S
Cd142 O141 2.228 . S
Cd142 O146 2.273 . S
Cd142 O150 2.277 . S
O143 C140 1.160 . S
O143 Cd144 2.203 . S
Cd144 O143 2.203 . S
Cd144 O146 2.411 . S
Cd144 O147 2.333 . S
Cd144 O148 2.352 . S
Cd144 O152 2.277 . S
Cd144 O153 2.356 . S
C145 O150 1.209 . S
C145 O152 1.226 . S
O146 Cd142 2.273 . S
O146 Cd144 2.411 . S
O146 C149 1.320 . S
O147 Cd144 2.333 . S
O147 C149 1.214 . S
O148 Cd144 2.352 . S
O148 C151 1.258 . S
C149 O146 1.320 . S
C149 O147 1.214 . S
O150 Cd142 2.277 . S
O150 C145 1.209 . S
C151 O148 1.258 . S
C151 O153 1.282 . S
O152 Cd144 2.277 . S
O152 C145 1.226 . S
O153 Cd144 2.356 . S
O153 C151 1.282 . S
C154 O155 1.306 . S
C154 O157 1.160 . S
O155 C154 1.306 . S
O155 Cd156 2.228 . S
Cd156 O155 2.228 . S
Cd156 O160 2.273 . S
Cd156 O164 2.277 . S
O157 C154 1.160 . S
O157 Cd158 2.203 . S
Cd158 O157 2.203 . S
Cd158 O160 2.411 . S
Cd158 O161 2.333 . S
Cd158 O162 2.352 . S
Cd158 O166 2.277 . S
Cd158 O167 2.356 . S
C159 O164 1.209 . S
C159 O166 1.226 . S
O160 Cd156 2.273 . S
O160 Cd158 2.411 . S
O160 C163 1.320 . S
O161 Cd158 2.333 . S
O161 C163 1.214 . S
O162 Cd158 2.352 . S
O162 C165 1.258 . S
C163 O160 1.320 . S
C163 O161 1.214 . S
O164 Cd156 2.277 . S
O164 C159 1.209 . S
C165 O162 1.258 . S
C165 O167 1.282 . S
O166 Cd158 2.277 . S
O166 C159 1.226 . S
O167 Cd158 2.356 . S
O167 C165 1.282 . S
C168 O169 1.306 . S
C168 O171 1.160 . S
O169 C168 1.306 . S
O169 Cd170 2.228 . S
Cd170 O169 2.228 . S
Cd170 O174 2.273 . S
Cd170 O178 2.277 . S
O171 C168 1.160 . S
O171 Cd172 2.203 . S
Cd172 O171 2.203 . S
Cd172 O174 2.411 . S
Cd172 O175 2.333 . S
Cd172 O176 2.352 . S
Cd172 O180 2.277 . S
Cd172 O181 2.356 . S
C173 O178 1.209 . S
C173 O180 1.226 . S
O174 Cd170 2.273 . S
O174 Cd172 2.411 . S
O174 C177 1.320 . S
O175 Cd172 2.333 . S
O175 C177 1.214 . S
O176 Cd172 2.352 . S
O176 C179 1.258 . S
C177 O174 1.320 . S
C177 O175 1.214 . S
O178 Cd170 2.277 . S
O178 C173 1.209 . S
C179 O176 1.258 . S
C179 O181 1.282 . S
O180 Cd172 2.277 . S
O180 C173 1.226 . S
O181 Cd172 2.356 . S
O181 C179 1.282 . S
C182 O183 1.306 . S
C182 O185 1.160 . S
O183 C182 1.306 . S
O183 Cd184 2.228 . S
Cd184 O183 2.228 . S
Cd184 O188 2.273 . S
Cd184 O192 2.277 . S
O185 C182 1.160 . S
O185 Cd186 2.203 . S
Cd186 O185 2.203 . S
Cd186 O188 2.411 . S
Cd186 O189 2.333 . S
Cd186 O190 2.352 . S
Cd186 O194 2.277 . S
Cd186 O195 2.356 . S
C187 O192 1.209 . S
C187 O194 1.226 . S
O188 Cd184 2.273 . S
O188 Cd186 2.411 . S
O188 C191 1.320 . S
O189 Cd186 2.333 . S
O189 C191 1.214 . S
O190 Cd186 2.352 . S
O190 C193 1.258 . S
C191 O188 1.320 . S
C191 O189 1.214 . S
O192 Cd184 2.277 . S
O192 C187 1.209 . S
C193 O190 1.258 . S
C193 O195 1.282 . S
O194 Cd186 2.277 . S
O194 C187 1.226 . S
O195 Cd186 2.356 . S
O195 C193 1.282 . S
C196 O197 1.306 . S
C196 O199 1.160 . S
O197 C196 1.306 . S
O197 Cd198 2.228 . S
Cd198 O197 2.228 . S
Cd198 O202 2.273 . S
Cd198 O206 2.277 . S
O199 C196 1.160 . S
O199 Cd200 2.203 . S
Cd200 O199 2.203 . S
Cd200 O202 2.411 . S
Cd200 O203 2.333 . S
Cd200 O204 2.352 . S
Cd200 O208 2.277 . S
Cd200 O209 2.356 . S
C201 O206 1.209 . S
C201 O208 1.226 . S
O202 Cd198 2.273 . S
O202 Cd200 2.411 . S
O202 C205 1.320 . S
O203 Cd200 2.333 . S
O203 C205 1.214 . S
O204 Cd200 2.352 . S
O204 C207 1.258 . S
C205 O202 1.320 . S
C205 O203 1.214 . S
O206 Cd198 2.277 . S
O206 C201 1.209 . S
C207 O204 1.258 . S
C207 O209 1.282 . S
O208 Cd200 2.277 . S
O208 C201 1.226 . S
O209 Cd200 2.356 . S
O209 C207 1.282 . S
C210 O211 1.306 . S
C210 O213 1.160 . S
O211 C210 1.306 . S
O211 Cd212 2.228 . S
Cd212 O211 2.228 . S
Cd212 O216 2.273 . S
Cd212 O220 2.277 . S
O213 C210 1.160 . S
O213 Cd214 2.203 . S
Cd214 O213 2.203 . S
Cd214 O216 2.411 . S
Cd214 O217 2.333 . S
Cd214 O218 2.352 . S
Cd214 O222 2.277 . S
Cd214 O223 2.356 . S
C215 O220 1.209 . S
C215 O222 1.226 . S
O216 Cd212 2.273 . S
O216 Cd214 2.411 . S
O216 C219 1.320 . S
O217 Cd214 2.333 . S
O217 C219 1.214 . S
O218 Cd214 2.352 . S
O218 C221 1.258 . S
C219 O216 1.320 . S
C219 O217 1.214 . S
O220 Cd212 2.277 . S
O220 C215 1.209 . S
C221 O218 1.258 . S
C221 O223 1.282 . S
O222 Cd214 2.277 . S
O222 C215 1.226 . S
O223 Cd214 2.356 . S
O223 C221 1.282 . S
C9 C191 1.342 . S
C23 C135 1.342 . S
C205 C37 1.342 . S
C51 C219 1.342 . S
C65 C93 1.342 . S
C149 C79 1.342 . S
C163 C107 1.342 . S
C121 C177 1.342 . S
C33 C5 1.677 1_565 S
C19 C47 1.677 . S
C179 C11 1.813 1_556 S
C25 C165 1.813 1_554 S
C67 C39 1.813 . S
C151 C53 1.813 . S
C14 C0 1.568 1_655 S
C42 C28 1.568 1_655 S
C140 C56 1.568 . S
C109 C81 1.575 1_545 S
C95 C123 1.575 . S
C215 C75 2.035 1_554 S
C89 C201 2.035 1_556 S
C131 C103 2.035 . S
C117 C187 2.035 . S
C84 C70 1.532 1_455 S
C112 C98 1.532 1_455 S
C126 C182 1.532 . S
C145 C159 1.677 . S
C173 C61 1.677 1_545 S
C168 C154 1.568 . S
C207 C193 1.575 . S
C137 C221 1.575 1_545 S
C210 C196 1.532 . S
