# Generated by pormake.
# Topology sxc, (6)-cn, num edge types: 1
# Building blocks:
#     Node 0, Type 0, BuildingBlock: UKALOJ_clean_sbu_0, # of connection points: 6
#     Node 1, Type 0, BuildingBlock: UKALOJ_clean_sbu_0, # of connection points: 6
#     Node 2, Type 0, BuildingBlock: UKALOJ_clean_sbu_0, # of connection points: 6
#     Edge 3, Type (0, 0), BuildingBlock: EZIPEK_clean_linker_0, # of connection points: 2
#     Edge 4, Type (0, 0), BuildingBlock: EZIPEK_clean_linker_0, # of connection points: 2
#     Edge 5, Type (0, 0), BuildingBlock: EZIPEK_clean_linker_0, # of connection points: 2
#     Edge 6, Type (0, 0), BuildingBlock: EZIPEK_clean_linker_0, # of connection points: 2
#     Edge 7, Type (0, 0), BuildingBlock: EZIPEK_clean_linker_0, # of connection points: 2
#     Edge 8, Type (0, 0), BuildingBlock: EZIPEK_clean_linker_0, # of connection points: 2
#     Edge 9, Type (0, 0), BuildingBlock: EZIPEK_clean_linker_0, # of connection points: 2
#     Edge 10, Type (0, 0), BuildingBlock: EZIPEK_clean_linker_0, # of connection points: 2
#     Edge 11, Type (0, 0), BuildingBlock: EZIPEK_clean_linker_0, # of connection points: 2
# Relax obj value: 0.104
# Max RMSD: 0.184
# Mean RMSD: 0.184
data_MOF--net-sxc--node1-UKALOJ_clean_sbu_0--edge1-EZIPEK_clean_linker_0
_symmetry_space_group_name_H-M    P1
_symmetry_Int_Tables_number       1
_symmetry_cell_setting            triclinic
loop_
_symmetry_equiv_pos_as_xyz
'x, y, z'
_cell_length_a     10.956652
_cell_length_b     11.05239
_cell_length_c     47.656964
_cell_angle_alpha  90.81813
_cell_angle_beta   89.156959
_cell_angle_gamma 119.69343
loop_
_atom_site_label
_atom_site_type_symbol
_atom_site_fract_x
_atom_site_fract_y
_atom_site_fract_z
_atom_type_partial_charge
Zn0 Zn -0.00268 0.0924 1.01685 0.0
O1 O 0.05741 0.93548 1.02012 0.0
C2 C 0.71713 0.87338 0.0344 0.0
Zn3 Zn -0.02005 0.0888 0.06336 0.0
C4 C 0.05766 0.87996 0.04338 0.0
O5 O 0.03549 0.93087 0.0657 0.0
C6 C 0.91937 0.30159 0.03746 0.0
O7 O 0.19037 0.25321 0.06767 0.0
O8 O 0.2041 0.25738 1.02169 0.0
N9 N 0.94378 0.08032 0.10586 0.0
C10 C 0.02774 0.11381 0.12842 0.0
C11 C 0.82072 0.04998 0.14363 0.0
N12 N 0.8152 0.04007 0.11543 0.0
N13 N 0.95299 0.09588 0.15229 0.0
C14 C 0.01235 0.01577 0.95306 0.0
C15 C 0.08787 0.21454 0.93423 0.0
N16 N 0.02771 0.10632 0.97392 0.0
N17 N 0.07455 0.22951 0.96203 0.0
N18 N 0.04924 0.08125 0.92816 0.0
H19 H 0.05381 0.84658 0.95163 0.0
H20 H 0.8801 0.80196 0.9415 0.0
H21 H 0.92655 0.82919 0.97815 0.0
C22 C -0.03513 0.86459 0.95665 0.0
C23 C 0.18265 0.16705 0.12704 0.0
H24 H 0.20761 0.11438 0.10974 0.0
H25 H 0.22158 0.15019 0.14714 0.0
H26 H 0.23761 0.28059 0.1229 0.0
O27 O 0.92316 0.2475 0.06059 0.0
O28 O 0.93867 0.24944 1.01504 0.0
C29 C 0.25611 0.31228 0.04528 0.0
O30 O 0.78779 0.92959 1.01232 0.0
O31 O 0.77091 0.92513 0.05809 0.0
Zn32 Zn 0.09758 0.22689 0.3548 0.0
O33 O 0.88341 0.17057 0.3511 0.0
C34 C 0.13366 0.48515 0.38168 0.0
Zn35 Zn 0.08319 0.2139 0.40134 0.0
C36 C 0.81099 0.15161 0.37335 0.0
O37 O 0.86776 0.15534 0.39671 0.0
C38 C 0.37013 0.2907 0.38298 0.0
O39 O 0.04185 0.00785 0.3979 0.0
O40 O 0.05618 0.02008 0.35181 0.0
N41 N 0.05433 0.19925 0.44407 0.0
C42 C 0.08045 0.13065 0.46419 0.0
C43 C -0.01038 0.24115 0.48444 0.0
N44 N -0.00204 0.2677 0.45676 0.0
N45 N 0.04076 0.15542 0.48957 0.0
C46 C 0.05585 0.17728 0.28989 0.0
C47 C 0.24496 0.34905 0.27426 0.0
N48 N 0.13095 0.25103 0.31231 0.0
N49 N 0.24857 0.35727 0.3025 0.0
N50 N 0.12514 0.23675 0.26587 0.0
H51 H 0.88569 0.0101 0.31301 0.0
H52 H 0.9149 0.96565 0.27786 0.0
H53 H 0.83488 0.07143 0.28269 0.0
C54 C 0.91476 0.04846 0.29126 0.0
C55 C 0.13991 0.036 0.45906 0.0
H56 H 0.05196 0.92781 0.45647 0.0
H57 H 0.20335 0.03834 0.47721 0.0
H58 H 0.20535 0.06533 0.43977 0.0
O59 O 0.29779 0.2721 0.40523 0.0
O60 O 0.31301 0.28568 0.3596 0.0
C61 C 0.04724 0.95581 0.37429 0.0
O62 O 0.13694 0.43221 0.35808 0.0
O63 O 0.12645 0.42151 0.40411 0.0
Zn64 Zn 0.07338 0.88246 0.72961 0.0
O65 O 0.91695 0.93523 0.73323 0.0
C66 C 0.8565 0.61354 0.70238 0.0
Zn67 Zn 0.07395 0.87843 0.68287 0.0
C68 C 0.85711 0.93405 0.71062 0.0
O69 O 0.91045 0.92781 0.68709 0.0
C70 C 0.28847 0.82468 0.70193 0.0
O71 O 0.23979 0.08888 0.68672 0.0
O72 O 0.23263 0.08849 0.73288 0.0
N73 N 0.07596 0.89189 0.64013 0.0
C74 C 0.06322 -0.02129 0.62236 0.0
C75 C 0.08903 0.83088 0.59742 0.0
N76 N 0.09206 0.80036 0.62456 0.0
N77 N 0.07107 0.94234 0.59552 0.0
C78 C 0.0617 0.9338 0.79379 0.0
C79 C 0.08156 0.76825 0.81147 0.0
N80 N 0.07266 0.85918 0.77224 0.0
N81 N 0.08495 0.75638 0.78329 0.0
N82 N 0.06682 0.87875 0.8185 0.0
H83 H 0.08662 0.1121 0.77076 0.0
H84 H 0.0932 0.13231 0.80857 0.0
H85 H 0.92875 0.02329 0.79152 0.0
C86 C 0.04276 0.0583 0.79088 0.0
C87 C 0.03942 0.0959 0.6312 0.0
H88 H 0.08214 0.13455 0.65242 0.0
H89 H 0.9247 0.05751 0.63178 0.0
H90 H 0.08833 0.18228 0.61591 0.0
O91 O 0.22907 0.82363 0.67933 0.0
O92 O 0.23513 0.83238 0.7253 0.0
C93 C 0.29271 0.14715 0.71013 0.0
O94 O 0.90929 0.67346 0.72563 0.0
O95 O 0.9164 0.67142 0.6796 0.0
C96 C 0.9167 0.50222 0.06332 0.0
C97 C 0.92932 0.44325 0.03751 0.0
C98 C 0.06051 0.67901 1.0178 0.0
C99 C 0.04705 0.73806 0.04348 0.0
N100 N 0.01686 0.70513 0.09362 0.0
N101 N -0.04115 0.47709 0.98735 0.0
C102 C -0.01006 0.64961 0.06715 0.0
C103 C -0.01398 0.53191 1.01387 0.0
N104 N 0.82729 0.41756 0.08365 0.0
N105 N 0.15281 0.76305 0.99778 0.0
H106 H 0.88634 0.37287 0.98334 0.0
H107 H -0.01053 0.53853 0.96942 0.0
H108 H 0.21983 0.8693 1.00125 0.0
H109 H 0.17628 0.72446 0.97964 0.0
H110 H 0.80458 0.45537 0.10198 0.0
H111 H 0.76099 0.31109 0.08029 0.0
H112 H -0.01329 0.64446 0.11165 0.0
H113 H 0.08916 0.8095 0.09756 0.0
C114 C 0.58059 0.30691 0.3576 0.0
C115 C 0.50269 0.28114 0.38298 0.0
C116 C 0.60141 0.13717 0.39884 0.0
C117 C 0.67914 0.16258 0.37343 0.0
N118 N 0.69066 0.2226 0.32454 0.0
N119 N 0.49325 0.2234 0.43194 0.0
C120 C 0.65483 0.23421 0.35158 0.0
C121 C 0.52772 0.21038 0.40487 0.0
N122 N 0.58949 0.40691 0.33986 0.0
N123 N 0.59194 0.03703 0.4166 0.0
H124 H 0.46082 0.29423 0.43788 0.0
H125 H 0.51831 0.18167 0.44892 0.0
H126 H 0.63496 -0.02632 0.41149 0.0
H127 H 0.52646 0.00484 0.43425 0.0
H128 H 0.65512 0.43973 0.32224 0.0
H129 H 0.54562 0.46953 0.34496 0.0
H130 H 0.66641 0.26507 0.30757 0.0
H131 H 0.72221 0.15128 0.31853 0.0
C132 C 0.68834 0.37547 0.71984 0.0
C133 C 0.71449 0.48867 0.70238 0.0
C134 C 0.46065 0.38827 0.69468 0.0
C135 C 0.43529 0.27089 0.71049 0.0
N136 N 0.52449 0.14691 0.73744 0.0
N137 N 0.62597 0.59719 0.67053 0.0
C138 C 0.5487 0.26347 0.72319 0.0
C139 C 0.60111 0.49287 0.6888 0.0
N140 N 0.79808 0.37518 0.73317 0.0
N141 N 0.34947 0.40362 0.68676 0.0
H142 H 0.72331 0.68457 0.66712 0.0
H143 H 0.54994 0.59384 0.65719 0.0
H144 H 0.24538 0.33071 0.69155 0.0
H145 H 0.35974 0.4942 0.67812 0.0
H146 H 0.78647 0.30904 0.74956 0.0
H147 H 0.90307 0.44507 0.72841 0.0
H148 H 0.60294 0.12657 0.74376 0.0
H149 H 0.42541 0.06484 0.74208 0.0
C150 C 0.60119 0.79189 0.72393 0.0
C151 C 0.71308 0.91332 0.71122 0.0
C152 C 0.54386 0.9605 0.68793 0.0
C153 C 0.43164 0.84281 0.70164 0.0
N154 N 0.35101 0.64854 0.73296 0.0
N155 N 0.79338 0.12821 0.68676 0.0
C156 C 0.46007 0.75935 0.71971 0.0
C157 C 0.68482 0.0012 0.69466 0.0
N158 N 0.62845 0.70375 0.73904 0.0
N159 N 0.51759 0.03533 0.66869 0.0
H160 H 0.89756 0.16259 0.69215 0.0
H161 H 0.77988 0.20561 0.67756 0.0
H162 H 0.41889 0.02044 0.66409 0.0
H163 H 0.5946 0.10843 0.6555 0.0
H164 H 0.55242 0.60389 0.74492 0.0
H165 H 0.72785 0.72619 0.74518 0.0
H166 H 0.36291 0.59615 0.74973 0.0
H167 H 0.24609 0.61053 0.72765 0.0
C168 C 0.57697 0.62496 1.01739 0.0
C169 C 0.58346 0.73655 0.03369 0.0
C170 C 0.36873 0.5682 0.0587 0.0
C171 C 0.37856 0.45626 0.04551 0.0
N172 N 0.51409 0.38233 1.01724 0.0
N173 N 0.4808 0.81556 0.06941 0.0
C174 C 0.49036 0.48641 1.02655 0.0
C175 C 0.47811 0.70804 0.05436 0.0
N176 N 0.64521 0.64906 0.99218 0.0
N177 N 0.25209 0.54325 0.07399 0.0
H178 H 0.54547 0.91965 0.06393 0.0
H179 H 0.42196 0.80188 0.08765 0.0
H180 H 0.16906 0.44478 0.07838 0.0
H181 H 0.2325 0.62154 0.08106 0.0
H182 H 0.63794 0.56939 0.9791 0.0
H183 H 0.68646 0.74422 0.98207 0.0
H184 H 0.60241 0.40134 1.00534 0.0
H185 H 0.45412 0.27977 1.02411 0.0
C186 C -0.01343 0.59751 0.39142 0.0
C187 C 0.11655 0.60946 0.38225 0.0
C188 C 0.19509 0.84393 0.36478 0.0
C189 C 0.06483 0.83177 0.37386 0.0
N190 N 0.82783 0.69157 0.39062 0.0
N191 N 0.35355 0.74942 0.3655 0.0
C192 C -0.04147 0.70731 0.38596 0.0
C193 C 0.22296 0.73394 0.37019 0.0
N194 N 0.89109 0.48295 0.40598 0.0
N195 N 0.29103 0.95885 0.35038 0.0
H196 H 0.37764 0.67135 0.36985 0.0
H197 H 0.4417 0.8427 0.35984 0.0
H198 H 0.27891 0.04441 0.34651 0.0
H199 H 0.37894 0.96611 0.34017 0.0
H200 H 0.8035 0.476 0.41627 0.0
H201 H 0.90361 0.39769 0.40993 0.0
H202 H 0.73987 0.59821 0.39632 0.0
H203 H 0.80343 0.76936 0.38621 0.0
C204 C 0.08438 0.08509 0.22435 0.0
C205 C 0.07985 0.19893 0.23731 0.0
C206 C 0.00938 0.2542 0.19295 0.0
C207 C 0.00172 0.13332 0.18066 0.0
N208 N 0.0145 0.92368 0.18483 0.0
N209 N 0.01845 0.37935 0.23582 0.0
C210 C 0.03457 0.04579 0.19644 0.0
C211 C 0.03692 0.28022 0.22208 0.0
N212 N 0.14018 0.01775 0.23856 0.0
N213 N -0.00581 0.34582 0.17644 0.0
H214 H 0.03607 0.39888 0.25728 0.0
H215 H -0.02545 0.43359 0.22658 0.0
H216 H -0.02398 0.3299 0.15492 0.0
H217 H 0.01163 0.44269 0.18347 0.0
H218 H 0.159 0.94219 0.22951 0.0
H219 H 0.17701 0.04498 0.25904 0.0
H220 H 0.02337 0.84816 0.19599 0.0
H221 H -0.02053 0.89393 0.1643 0.0
C222 C 0.17446 0.172 0.532 0.0
C223 C 0.04824 0.10308 0.51656 0.0
C224 C 0.93219 0.94108 0.55529 0.0
C225 C 0.06113 0.00342 0.56984 0.0
N226 N 0.30757 0.16883 0.57209 0.0
N227 N 0.81111 0.91674 0.51143 0.0
C228 C 0.18311 0.11702 0.55824 0.0
C229 C 0.92782 -0.01383 0.52771 0.0
N230 N 0.28461 0.29124 0.52157 0.0
N231 N 0.81413 0.84025 0.56827 0.0
H232 H 0.80594 0.94882 0.49121 0.0
H233 H 0.72323 0.82316 0.51705 0.0
H234 H 0.81587 0.80592 0.58847 0.0
H235 H 0.71358 0.79755 0.56004 0.0
H236 H 0.37583 0.35475 0.53269 0.0
H237 H 0.28105 0.33136 0.5021 0.0
H238 H 0.404 0.24272 0.56378 0.0
H239 H 0.31523 0.1318 0.59163 0.0
C240 C 0.93099 0.90035 0.85812 0.0
C241 C 0.06154 0.92716 0.84645 0.0
C242 C 0.1809 0.04299 0.89 0.0
C243 C 0.05229 0.02536 0.90087 0.0
N244 N 0.80784 0.95114 0.89523 0.0
N245 N 0.31285 0.03734 0.84908 0.0
C246 C 0.92778 0.95745 0.8849 0.0
C247 C 0.18728 0.00187 0.86186 0.0
N248 N 0.81041 0.81749 0.84372 0.0
N249 N 0.29578 0.09664 0.90696 0.0
H250 H 0.31989 0.00874 0.82841 0.0
H251 H 0.41001 0.10309 0.85807 0.0
H252 H 0.29326 0.12821 0.9276 0.0
H253 H 0.38991 0.1006 0.90141 0.0
H254 H 0.71004 0.78294 0.8519 0.0
H255 H 0.81092 0.77523 0.82403 0.0
H256 H 0.71607 0.9151 0.88374 0.0
H257 H 0.80305 -0.00957 0.915 0.0
loop_
_geom_bond_atom_site_label_1
_geom_bond_atom_site_label_2
_geom_bond_distance
_geom_bond_site_symmetry_2
_ccdc_geom_bond_type
Zn0 O1 2.055 1_545 S
Zn0 O8 2.046 . S
Zn0 N16 2.036 . S
Zn0 O28 2.053 1_455 S
Zn0 O30 2.066 1_445 S
O1 Zn0 2.055 1_565 S
O1 C4 1.259 1_556 S
C2 O30 1.256 1_554 S
C2 O31 1.244 . S
Zn3 O5 2.046 1_545 S
Zn3 O7 2.055 . S
Zn3 N9 2.036 1_455 S
Zn3 O27 2.066 1_455 S
Zn3 O31 2.053 1_445 S
C4 O1 1.259 1_554 S
C4 O5 1.254 . S
O5 Zn3 2.046 1_565 S
O5 C4 1.254 . S
C6 O27 1.256 . S
C6 O28 1.244 1_554 S
O7 Zn3 2.055 . S
O7 C29 1.259 . S
O8 Zn0 2.046 . S
O8 C29 1.254 1_556 S
N9 Zn3 2.036 1_655 S
N9 C10 1.298 1_655 S
N9 N12 1.398 1_545 S
C10 N9 1.298 1_455 S
C10 N13 1.367 1_455 S
C10 C23 1.481 . S
C11 N12 1.299 . S
C11 N13 1.379 1_565 S
N12 N9 1.398 1_565 S
N12 C11 1.299 . S
N13 C10 1.367 1_655 S
N13 C11 1.379 1_545 S
C14 N16 1.298 1_655 S
C14 N18 1.367 . S
C14 C22 1.481 1_545 S
C15 N17 1.299 1_655 S
C15 N18 1.379 . S
N16 Zn0 2.036 . S
N16 C14 1.298 1_455 S
N16 N17 1.398 . S
N17 C15 1.299 1_455 S
N17 N16 1.398 . S
N18 C14 1.367 . S
N18 C15 1.379 . S
H19 C22 0.980 1_455 S
H20 C22 0.981 . S
H21 C22 0.981 . S
C22 C14 1.481 1_565 S
C22 H19 0.980 1_655 S
C22 H20 0.981 . S
C22 H21 0.981 . S
C23 C10 1.481 . S
C23 H24 0.980 . S
C23 H25 0.981 . S
C23 H26 0.981 . S
H24 C23 0.980 . S
H25 C23 0.981 . S
H26 C23 0.981 . S
O27 Zn3 2.066 1_655 S
O27 C6 1.256 . S
O28 Zn0 2.053 1_655 S
O28 C6 1.244 1_556 S
C29 O7 1.259 . S
C29 O8 1.254 1_554 S
O30 Zn0 2.066 1_665 S
O30 C2 1.256 1_556 S
O31 C2 1.244 . S
O31 Zn3 2.053 1_665 S
Zn32 O33 2.055 1_455 S
Zn32 O40 2.046 1_545 S
Zn32 N48 2.036 . S
Zn32 O60 2.053 . S
Zn32 O62 2.066 . S
O33 Zn32 2.055 1_655 S
O33 C36 1.259 . S
C34 O62 1.256 . S
C34 O63 1.244 . S
Zn35 O37 2.046 1_455 S
Zn35 O39 2.055 1_545 S
Zn35 N41 2.036 . S
Zn35 O59 2.066 . S
Zn35 O63 2.053 . S
C36 O33 1.259 . S
C36 O37 1.254 . S
O37 Zn35 2.046 1_655 S
O37 C36 1.254 . S
C38 O59 1.256 . S
C38 O60 1.244 . S
O39 Zn35 2.055 1_565 S
O39 C61 1.259 . S
O40 Zn32 2.046 1_565 S
O40 C61 1.254 . S
N41 Zn35 2.036 . S
N41 C42 1.298 . S
N41 N44 1.398 . S
C42 N41 1.298 . S
C42 N45 1.367 . S
C42 C55 1.481 1_545 S
C43 N44 1.299 . S
C43 N45 1.379 . S
N44 N41 1.398 . S
N44 C43 1.299 . S
N45 C42 1.367 . S
N45 C43 1.379 . S
C46 N48 1.298 . S
C46 N50 1.367 . S
C46 C54 1.481 1_455 S
C47 N49 1.299 . S
C47 N50 1.379 . S
N48 Zn32 2.036 . S
N48 C46 1.298 . S
N48 N49 1.398 . S
N49 C47 1.299 . S
N49 N48 1.398 . S
N50 C46 1.367 . S
N50 C47 1.379 . S
H51 C54 0.980 . S
H52 C54 0.981 . S
H53 C54 0.981 1_455 S
C54 C46 1.481 1_655 S
C54 H51 0.980 . S
C54 H52 0.981 . S
C54 H53 0.981 1_655 S
C55 C42 1.481 1_565 S
C55 H56 0.980 . S
C55 H57 0.981 . S
C55 H58 0.981 1_565 S
H56 C55 0.980 . S
H57 C55 0.981 . S
H58 C55 0.981 1_545 S
O59 Zn35 2.066 . S
O59 C38 1.256 . S
O60 Zn32 2.053 . S
O60 C38 1.244 . S
C61 O39 1.259 . S
C61 O40 1.254 . S
O62 Zn32 2.066 . S
O62 C34 1.256 . S
O63 C34 1.244 . S
O63 Zn35 2.053 . S
Zn64 O65 2.055 1_455 S
Zn64 O72 2.046 . S
Zn64 N80 2.036 . S
Zn64 O92 2.053 1_545 S
Zn64 O94 2.066 1_445 S
O65 Zn64 2.055 1_655 S
O65 C68 1.259 . S
C66 O94 1.256 . S
C66 O95 1.244 . S
Zn67 O69 2.046 1_455 S
Zn67 O71 2.055 . S
Zn67 N73 2.036 1_545 S
Zn67 O91 2.066 1_545 S
Zn67 O95 2.053 1_445 S
C68 O65 1.259 . S
C68 O69 1.254 . S
O69 Zn67 2.046 1_655 S
O69 C68 1.254 . S
C70 O91 1.256 . S
C70 O92 1.244 . S
O71 Zn67 2.055 . S
O71 C93 1.259 . S
O72 Zn64 2.046 . S
O72 C93 1.254 . S
N73 Zn67 2.036 1_565 S
N73 C74 1.298 1_565 S
N73 N76 1.398 1_455 S
C74 N73 1.298 1_545 S
C74 N77 1.367 1_545 S
C74 C87 1.481 . S
C75 N76 1.299 . S
C75 N77 1.379 1_655 S
N76 N73 1.398 1_655 S
N76 C75 1.299 . S
N77 C74 1.367 1_565 S
N77 C75 1.379 1_455 S
C78 N80 1.298 1_565 S
C78 N82 1.367 . S
C78 C86 1.481 1_455 S
C79 N81 1.299 1_565 S
C79 N82 1.379 . S
N80 Zn64 2.036 . S
N80 C78 1.298 1_545 S
N80 N81 1.398 . S
N81 C79 1.299 1_545 S
N81 N80 1.398 . S
N82 C78 1.367 . S
N82 C79 1.379 . S
H83 C86 0.980 1_545 S
H84 C86 0.981 . S
H85 C86 0.981 . S
C86 C78 1.481 1_655 S
C86 H83 0.980 1_565 S
C86 H84 0.981 . S
C86 H85 0.981 . S
C87 C74 1.481 . S
C87 H88 0.980 . S
C87 H89 0.981 . S
C87 H90 0.981 . S
H88 C87 0.980 . S
H89 C87 0.981 . S
H90 C87 0.981 . S
O91 Zn67 2.066 1_565 S
O91 C70 1.256 . S
O92 Zn64 2.053 1_565 S
O92 C70 1.244 . S
C93 O71 1.259 . S
C93 O72 1.254 . S
O94 Zn64 2.066 1_665 S
O94 C66 1.256 . S
O95 C66 1.244 . S
O95 Zn67 2.053 1_665 S
C96 C97 1.363 . S
C96 C102 1.379 . S
C96 N104 1.356 . S
C97 C96 1.363 . S
C97 C103 1.363 1_654 S
C98 C99 1.363 1_556 S
C98 C103 1.379 . S
C98 N105 1.356 . S
C99 C98 1.363 1_554 S
C99 C102 1.363 1_455 S
N100 C102 1.356 . S
N100 H112 0.984 . S
N100 H113 0.985 . S
N101 C103 1.356 . S
N101 H106 0.984 . S
N101 H107 0.985 . S
C102 C96 1.379 . S
C102 C99 1.363 1_655 S
C102 N100 1.356 . S
C103 C97 1.363 1_456 S
C103 C98 1.379 . S
C103 N101 1.356 . S
N104 C96 1.356 . S
N104 H110 0.984 . S
N104 H111 0.984 . S
N105 C98 1.356 . S
N105 H108 0.984 . S
N105 H109 0.985 . S
H106 N101 0.984 . S
H107 N101 0.985 . S
H108 N105 0.984 . S
H109 N105 0.985 . S
H110 N104 0.984 . S
H111 N104 0.984 . S
H112 N100 0.984 . S
H113 N100 0.985 . S
C114 C115 1.363 . S
C114 C120 1.379 . S
C114 N122 1.356 . S
C115 C114 1.363 . S
C115 C121 1.363 . S
C116 C117 1.363 . S
C116 C121 1.379 . S
C116 N123 1.356 . S
C117 C116 1.363 . S
C117 C120 1.363 . S
N118 C120 1.356 1_565 S
N118 H130 0.984 . S
N118 H131 0.985 . S
N119 C121 1.356 . S
N119 H124 0.984 . S
N119 H125 0.985 . S
C120 C114 1.379 . S
C120 C117 1.363 . S
C120 N118 1.356 1_545 S
C121 C115 1.363 . S
C121 C116 1.379 . S
C121 N119 1.356 . S
N122 C114 1.356 . S
N122 H128 0.984 1_545 S
N122 H129 0.984 . S
N123 C116 1.356 . S
N123 H126 0.984 . S
N123 H127 0.985 . S
H124 N119 0.984 . S
H125 N119 0.985 . S
H126 N123 0.984 . S
H127 N123 0.985 . S
H128 N122 0.984 1_565 S
H129 N122 0.984 . S
H130 N118 0.984 . S
H131 N118 0.985 . S
C132 C133 1.363 . S
C132 C138 1.379 . S
C132 N140 1.356 . S
C133 C132 1.363 . S
C133 C139 1.363 . S
C134 C135 1.363 . S
C134 C139 1.379 . S
C134 N141 1.356 . S
C135 C134 1.363 . S
C135 C138 1.363 . S
N136 C138 1.356 . S
N136 H148 0.984 . S
N136 H149 0.985 . S
N137 C139 1.356 . S
N137 H142 0.984 . S
N137 H143 0.985 . S
C138 C132 1.379 . S
C138 C135 1.363 . S
C138 N136 1.356 . S
C139 C133 1.363 . S
C139 C134 1.379 . S
C139 N137 1.356 . S
N140 C132 1.356 . S
N140 H146 0.984 . S
N140 H147 0.984 . S
N141 C134 1.356 . S
N141 H144 0.984 . S
N141 H145 0.985 . S
H142 N137 0.984 . S
H143 N137 0.985 . S
H144 N141 0.984 . S
H145 N141 0.985 . S
H146 N140 0.984 . S
H147 N140 0.984 . S
H148 N136 0.984 . S
H149 N136 0.985 . S
C150 C151 1.363 1_565 S
C150 C156 1.379 . S
C150 N158 1.356 . S
C151 C150 1.363 1_545 S
C151 C157 1.363 . S
C152 C153 1.363 1_545 S
C152 C157 1.379 . S
C152 N159 1.356 . S
C153 C152 1.363 1_565 S
C153 C156 1.363 . S
N154 C156 1.356 . S
N154 H166 0.984 . S
N154 H167 0.985 . S
N155 C157 1.356 . S
N155 H160 0.984 . S
N155 H161 0.985 . S
C156 C150 1.379 . S
C156 C153 1.363 . S
C156 N154 1.356 . S
C157 C151 1.363 . S
C157 C152 1.379 . S
C157 N155 1.356 . S
N158 C150 1.356 . S
N158 H164 0.984 . S
N158 H165 0.984 . S
N159 C152 1.356 . S
N159 H162 0.984 . S
N159 H163 0.985 . S
H160 N155 0.984 . S
H161 N155 0.985 . S
H162 N159 0.984 . S
H163 N159 0.985 . S
H164 N158 0.984 . S
H165 N158 0.984 . S
H166 N154 0.984 . S
H167 N154 0.985 . S
C168 C169 1.363 1_556 S
C168 C174 1.379 . S
C168 N176 1.356 . S
C169 C168 1.363 1_554 S
C169 C175 1.363 . S
C170 C171 1.363 . S
C170 C175 1.379 . S
C170 N177 1.356 . S
C171 C170 1.363 . S
C171 C174 1.363 1_554 S
N172 C174 1.356 . S
N172 H184 0.984 . S
N172 H185 0.985 . S
N173 C175 1.356 . S
N173 H178 0.984 . S
N173 H179 0.985 . S
C174 C168 1.379 . S
C174 C171 1.363 1_556 S
C174 N172 1.356 . S
C175 C169 1.363 . S
C175 C170 1.379 . S
C175 N173 1.356 . S
N176 C168 1.356 . S
N176 H182 0.984 . S
N176 H183 0.984 . S
N177 C170 1.356 . S
N177 H180 0.984 . S
N177 H181 0.985 . S
H178 N173 0.984 . S
H179 N173 0.985 . S
H180 N177 0.984 . S
H181 N177 0.985 . S
H182 N176 0.984 . S
H183 N176 0.984 . S
H184 N172 0.984 . S
H185 N172 0.985 . S
C186 C187 1.363 . S
C186 C192 1.379 . S
C186 N194 1.356 . S
C187 C186 1.363 . S
C187 C193 1.363 . S
C188 C189 1.363 . S
C188 C193 1.379 . S
C188 N195 1.356 . S
C189 C188 1.363 . S
C189 C192 1.363 . S
N190 C192 1.356 1_655 S
N190 H202 0.984 . S
N190 H203 0.985 . S
N191 C193 1.356 . S
N191 H196 0.984 . S
N191 H197 0.985 . S
C192 C186 1.379 . S
C192 C189 1.363 . S
C192 N190 1.356 1_455 S
C193 C187 1.363 . S
C193 C188 1.379 . S
C193 N191 1.356 . S
N194 C186 1.356 . S
N194 H200 0.984 1_455 S
N194 H201 0.984 . S
N195 C188 1.356 . S
N195 H198 0.984 . S
N195 H199 0.985 . S
H196 N191 0.984 . S
H197 N191 0.985 . S
H198 N195 0.984 . S
H199 N195 0.985 . S
H200 N194 0.984 1_655 S
H201 N194 0.984 . S
H202 N190 0.984 . S
H203 N190 0.985 . S
C204 C205 1.363 . S
C204 C210 1.379 . S
C204 N212 1.356 . S
C205 C204 1.363 . S
C205 C211 1.363 . S
C206 C207 1.363 . S
C206 C211 1.379 . S
C206 N213 1.356 . S
C207 C206 1.363 . S
C207 C210 1.363 . S
N208 C210 1.356 1_665 S
N208 H220 0.984 . S
N208 H221 0.985 . S
N209 C211 1.356 . S
N209 H214 0.984 . S
N209 H215 0.985 . S
C210 C204 1.379 . S
C210 C207 1.363 . S
C210 N208 1.356 1_445 S
C211 C205 1.363 . S
C211 C206 1.379 . S
C211 N209 1.356 . S
N212 C204 1.356 . S
N212 H218 0.984 1_545 S
N212 H219 0.984 . S
N213 C206 1.356 . S
N213 H216 0.984 . S
N213 H217 0.985 . S
H214 N209 0.984 . S
H215 N209 0.985 . S
H216 N213 0.984 . S
H217 N213 0.985 . S
H218 N212 0.984 1_565 S
H219 N212 0.984 . S
H220 N208 0.984 . S
H221 N208 0.985 . S
C222 C223 1.363 . S
C222 C228 1.379 . S
C222 N230 1.356 . S
C223 C222 1.363 . S
C223 C229 1.363 . S
C224 C225 1.363 1_565 S
C224 C229 1.379 1_565 S
C224 N231 1.356 . S
C225 C224 1.363 1_545 S
C225 C228 1.363 . S
N226 C228 1.356 . S
N226 H238 0.984 . S
N226 H239 0.985 . S
N227 C229 1.356 1_565 S
N227 H232 0.984 1_565 S
N227 H233 0.985 1_455 S
C228 C222 1.379 . S
C228 C225 1.363 . S
C228 N226 1.356 . S
C229 C223 1.363 . S
C229 C224 1.379 1_545 S
C229 N227 1.356 1_545 S
N230 C222 1.356 . S
N230 H236 0.984 . S
N230 H237 0.984 . S
N231 C224 1.356 . S
N231 H234 0.984 . S
N231 H235 0.985 1_455 S
H232 N227 0.984 1_545 S
H233 N227 0.985 1_655 S
H234 N231 0.984 . S
H235 N231 0.985 1_655 S
H236 N230 0.984 . S
H237 N230 0.984 . S
H238 N226 0.984 . S
H239 N226 0.985 . S
C240 C241 1.363 . S
C240 C246 1.379 . S
C240 N248 1.356 . S
C241 C240 1.363 . S
C241 C247 1.363 1_665 S
C242 C243 1.363 1_445 S
C242 C247 1.379 . S
C242 N249 1.356 . S
C243 C242 1.363 1_665 S
C243 C246 1.363 . S
N244 C246 1.356 . S
N244 H256 0.984 . S
N244 H257 0.985 . S
N245 C247 1.356 . S
N245 H250 0.984 . S
N245 H251 0.985 . S
C246 C240 1.379 . S
C246 C243 1.363 . S
C246 N244 1.356 . S
C247 C241 1.363 1_445 S
C247 C242 1.379 . S
C247 N245 1.356 . S
N248 C240 1.356 . S
N248 H254 0.984 . S
N248 H255 0.984 . S
N249 C242 1.356 . S
N249 H252 0.984 . S
N249 H253 0.985 . S
H250 N245 0.984 . S
H251 N245 0.985 . S
H252 N249 0.984 . S
H253 N249 0.985 . S
H254 N248 0.984 . S
H255 N248 0.984 . S
H256 N244 0.984 . S
H257 N244 0.985 . S
C97 C6 1.348 . S
C99 C4 1.360 . S
C115 C38 1.348 . S
C117 C36 1.360 . S
C133 C66 1.348 . S
C135 C93 1.360 . S
C151 C68 1.360 . S
C153 C70 1.348 . S
C169 C2 1.348 . S
C171 C29 1.360 . S
C187 C34 1.348 . S
C189 C61 1.360 . S
C205 N50 1.612 . S
C207 N13 1.612 1_455 S
C223 N45 1.612 . S
C225 N77 1.611 1_545 S
C241 N82 1.612 1_655 S
C243 N18 1.611 1_565 S
