# Generated by pormake.
# Topology pcu, (6)-cn, num edge types: 1
# Building blocks:
#     Node 0, Type 0, BuildingBlock: HISSIN_clean_sbu_0, # of connection points: 6
#     Edge 1, Type (0, 0), BuildingBlock: EYOCIG_clean_linker_4, # of connection points: 2
#     Edge 2, Type (0, 0), BuildingBlock: EYOCIG_clean_linker_4, # of connection points: 2
#     Edge 3, Type (0, 0), BuildingBlock: EYOCIG_clean_linker_4, # of connection points: 2
# Relax obj value: 0.000
# Max RMSD: 0.000
# Mean RMSD: 0.000
data_MOF--net-pcu--node1-HISSIN_clean_sbu_0--edge1-EYOCIG_clean_linker_4
_symmetry_space_group_name_H-M    P1
_symmetry_Int_Tables_number       1
_symmetry_cell_setting            triclinic
loop_
_symmetry_equiv_pos_as_xyz
'x, y, z'
_cell_length_a     11.933397
_cell_length_b     22.676148
_cell_length_c     12.101274
_cell_angle_alpha  121.87852
_cell_angle_beta   91.928194
_cell_angle_gamma 97.425577
loop_
_atom_site_label
_atom_site_type_symbol
_atom_site_fract_x
_atom_site_fract_y
_atom_site_fract_z
_atom_type_partial_charge
Eu0 Eu 0.97565 0.93482 0.91122 0.0
Eu1 Eu 0.02162 0.114 0.06635 0.0
C2 C 0.22471 0.02722 -0.00314 0.0
C3 C 0.96006 0.74931 0.85539 0.0
C4 C 0.06007 0.75369 0.92657 0.0
C5 C 0.87629 0.64537 0.85531 0.0
C6 C 0.06829 0.70381 0.96022 0.0
C7 C 0.86806 0.69503 0.82133 0.0
C8 C 0.97679 0.64903 0.92363 0.0
C9 C 0.95134 0.79843 0.81077 0.0
O10 O 0.02874 0.07001 0.85212 0.0
O11 O 0.94249 0.95284 0.74791 0.0
C12 C 0.98284 1.00939 0.74716 0.0
O13 O 0.8049 0.96781 0.96323 0.0
O14 O 0.13656 0.20809 0.10606 0.0
O15 O 0.97462 0.21843 0.18409 0.0
O16 O 0.83366 0.07956 -0.00178 0.0
C17 C 0.76718 1.0236 0.98015 0.0
O18 O 0.0217 0.978 0.12466 0.0
O19 O 0.99009 0.0932 0.22647 0.0
O20 O 0.18614 0.08109 0.09131 0.0
O21 O 0.86724 0.83347 0.84507 0.0
O22 O 0.04507 0.83709 0.81698 0.0
O23 O 0.15656 0.97243 0.90023 0.0
C24 C 0.04821 0.30044 0.12621 0.0
C25 C 0.9456 0.29454 0.05737 0.0
C26 C 0.1247 0.40477 0.12415 0.0
C27 C 0.93254 0.34396 0.02361 0.0
C28 C 0.13773 0.35563 0.15813 0.0
C29 C 0.02187 0.39956 0.05768 0.0
C30 C 0.06465 0.25026 0.16601 0.0
C31 C 0.00495 0.03716 0.22803 0.0
H32 H 0.13244 0.795 0.95478 0.0
H33 H 0.80466 0.6035 0.82653 0.0
H34 H 0.14655 0.70753 0.01334 0.0
H35 H 0.79019 0.69041 0.76655 0.0
H36 H 0.87554 0.2521 0.03032 0.0
H37 H 0.19475 0.44719 0.15078 0.0
H38 H 0.85258 0.339 0.97176 0.0
H39 H 0.21777 0.36098 0.2103 0.0
C40 C 0.99212 0.02936 0.43642 0.0
C41 C 0.99691 0.0377 0.34626 0.0
C42 C 0.98377 1.015 0.53608 0.0
C43 C 0.97913 1.00669 0.62628 0.0
C44 C 0.44601 0.02737 -0.00728 0.0
C45 C 0.34537 0.02853 -0.00323 0.0
C46 C 0.54646 0.02576 0.98765 0.0
C47 C 0.64716 0.02459 0.98417 0.0
C48 C 0.9929 0.55043 0.97661 0.0
C49 C 0.98653 0.59561 0.95302 0.0
C50 C 0.00041 0.49696 0.00292 0.0
C51 C 0.00825 0.45203 0.02683 0.0
loop_
_geom_bond_atom_site_label_1
_geom_bond_atom_site_label_2
_geom_bond_distance
_geom_bond_site_symmetry_2
_ccdc_geom_bond_type
Eu0 C9 2.828 . S
Eu0 O11 2.392 . S
Eu0 O13 2.418 . S
Eu0 O18 2.373 1_556 S
Eu0 O21 2.488 . S
Eu0 O22 2.471 1_655 S
Eu0 O23 2.349 1_655 S
Eu1 O10 2.373 1_554 S
Eu1 O14 2.488 . S
Eu1 O15 2.471 1_455 S
Eu1 O16 2.349 1_455 S
Eu1 O19 2.392 . S
Eu1 O20 2.418 . S
Eu1 C30 2.828 . S
C2 O20 1.244 . S
C2 O23 1.265 1_544 S
C3 C4 1.379 1_656 S
C3 C7 1.373 . S
C3 C9 1.505 . S
C4 C3 1.379 1_454 S
C4 C6 1.369 . S
C4 H32 0.930 . S
C5 C7 1.383 . S
C5 C8 1.382 . S
C5 H33 0.930 . S
C6 C4 1.369 . S
C6 C8 1.392 1_454 S
C6 H34 0.930 . S
C7 C3 1.373 . S
C7 C5 1.383 . S
C7 H35 0.931 . S
C8 C5 1.382 . S
C8 C6 1.392 1_656 S
C9 Eu0 2.828 . S
C9 C3 1.505 . S
C9 O21 1.249 . S
C9 O22 1.244 1_655 S
O10 Eu1 2.373 1_556 S
O10 C12 1.258 1_545 S
O11 Eu0 2.392 . S
O11 C12 1.242 1_655 S
C12 O10 1.258 1_565 S
C12 O11 1.242 1_455 S
O13 Eu0 2.418 . S
O13 C17 1.244 . S
O14 Eu1 2.488 . S
O14 C30 1.249 . S
O15 Eu1 2.471 1_655 S
O15 C30 1.244 1_655 S
O16 Eu1 2.349 1_655 S
O16 C17 1.265 1_544 S
C17 O13 1.244 . S
C17 O16 1.265 1_566 S
O18 Eu0 2.373 1_554 S
O18 C31 1.258 1_665 S
O19 Eu1 2.392 . S
O19 C31 1.242 . S
O20 Eu1 2.418 . S
O20 C2 1.244 . S
O21 Eu0 2.488 . S
O21 C9 1.249 . S
O22 Eu0 2.471 1_455 S
O22 C9 1.244 1_455 S
O23 Eu0 2.349 1_455 S
O23 C2 1.265 1_566 S
C24 C25 1.379 1_454 S
C24 C28 1.373 . S
C24 C30 1.505 . S
C25 C24 1.379 1_656 S
C25 C27 1.369 . S
C25 H36 0.930 . S
C26 C28 1.383 . S
C26 C29 1.382 . S
C26 H37 0.930 . S
C27 C25 1.369 . S
C27 C29 1.392 1_656 S
C27 H38 0.930 . S
C28 C24 1.373 . S
C28 C26 1.383 . S
C28 H39 0.931 . S
C29 C26 1.382 . S
C29 C27 1.392 1_454 S
C30 Eu1 2.828 . S
C30 O14 1.249 . S
C30 O15 1.244 1_455 S
C30 C24 1.505 . S
C31 O18 1.258 1_445 S
C31 O19 1.242 . S
H32 C4 0.930 . S
H33 C5 0.930 . S
H34 C6 0.930 . S
H35 C7 0.931 . S
H36 C25 0.930 . S
H37 C26 0.930 . S
H38 C27 0.930 . S
H39 C28 0.931 . S
C40 C41 1.170 . S
C40 C42 1.380 . S
C41 C40 1.170 . S
C42 C40 1.380 . S
C42 C43 1.166 . S
C43 C42 1.166 . S
C44 C45 1.168 . S
C44 C46 1.380 . S
C45 C44 1.168 . S
C46 C44 1.380 . S
C46 C47 1.170 . S
C47 C46 1.170 . S
C48 C49 1.170 1_455 S
C48 C50 1.380 . S
C49 C48 1.170 1_655 S
C50 C48 1.380 . S
C50 C51 1.170 . S
C51 C50 1.170 . S
C41 C31 1.499 1_665 S
C43 C12 1.502 1_655 S
C45 C2 1.469 . S
C47 C17 1.475 1_544 S
C49 C8 1.498 1_554 S
C51 C29 1.484 . S
