# Generated by pormake.
# Topology hex, (8)-cn, num edge types: 1
# Building blocks:
#     Node 0, Type 0, BuildingBlock: EYACOX_clean_sbu_0, # of connection points: 8
#     Edge 1, Type (0, 0), BuildingBlock: XIVTED_clean_linker_0, # of connection points: 2
#     Edge 2, Type (0, 0), BuildingBlock: XIVTED_clean_linker_0, # of connection points: 2
#     Edge 3, Type (0, 0), BuildingBlock: XIVTED_clean_linker_0, # of connection points: 2
#     Edge 4, Type (0, 0), BuildingBlock: XIVTED_clean_linker_0, # of connection points: 2
# Relax obj value: 0.024
# Max RMSD: 0.062
# Mean RMSD: 0.062
data_MOF--net-hex--node1-EYACOX_clean_sbu_0--edge1-XIVTED_clean_linker_0
_symmetry_space_group_name_H-M    P1
_symmetry_Int_Tables_number       1
_symmetry_cell_setting            triclinic
loop_
_symmetry_equiv_pos_as_xyz
'x, y, z'
_cell_length_a     24.513907
_cell_length_b     23.583034
_cell_length_c     15.541493
_cell_angle_alpha  113.28977
_cell_angle_beta   70.930334
_cell_angle_gamma 143.03777
loop_
_atom_site_label
_atom_site_type_symbol
_atom_site_fract_x
_atom_site_fract_y
_atom_site_fract_z
_atom_type_partial_charge
Eu0 Eu 0.03702 0.88766 0.93907 0.0
Eu1 Eu 0.96088 -0.02919 0.02342 0.0
O2 O 0.15107 0.91726 0.88776 0.0
O3 O 0.01694 0.77258 0.90057 0.0
O4 O 0.94904 0.92591 0.86668 0.0
O5 O 0.04514 0.92102 0.81541 0.0
O6 O 0.88787 0.762 0.90704 0.0
O7 O 0.85477 0.81972 0.0386 0.0
C8 C 0.14138 0.82467 0.93507 0.0
C9 C 0.20972 0.8111 0.0287 0.0
C10 C 0.11672 0.7348 0.01509 0.0
C11 C 0.08233 0.74201 0.96948 0.0
C12 C 0.27039 0.88951 -0.01192 0.0
C13 C 0.23636 0.89681 0.94111 0.0
C14 C 0.10335 0.83085 0.88697 0.0
C15 C 0.99734 0.9235 0.8004 0.0
O16 O 0.84246 0.93111 0.03768 0.0
O17 O 0.96919 0.07765 0.10045 0.0
C18 C 0.82859 0.74862 0.96843 0.0
O19 O 1.00845 -0.00487 0.14995 0.0
O20 O 1.00279 0.88405 0.09102 0.0
O21 O 0.10496 0.0918 0.97458 0.0
O22 O 0.15158 0.04753 0.00368 0.0
C23 C 0.8725 0.05576 0.04311 0.0
C24 C 0.76968 0.03024 -0.01121 0.0
C25 C 0.78342 -0.00312 0.02603 0.0
C26 C 0.84449 0.12157 0.96924 0.0
C27 C 0.9319 0.18324 -0.00767 0.0
C28 C 0.94643 0.15058 0.02877 0.0
C29 C 0.88659 0.01898 0.07974 0.0
C30 C 1.00813 0.94247 0.16156 0.0
C31 C 0.17 0.11163 -0.01389 0.0
H32 H 0.23618 0.80263 0.05972 0.0
H33 H 1.01005 0.68129 0.95747 0.0
H34 H 0.28321 -0.04343 0.90784 0.0
H35 H 0.72534 0.92642 0.04275 0.0
H36 H 0.83344 0.14924 0.94517 0.0
H37 H 0.01446 0.19967 0.04773 0.0
H38 H 1.0059 0.26504 0.84615 0.0
H39 H 0.0926 0.69031 0.1718 0.0
H40 H 1.00118 0.32865 0.14734 0.0
H41 H 0.03198 0.57215 0.878 0.0
H42 H 0.0684 0.56635 0.16763 0.0
H43 H 0.04402 0.40012 0.85733 0.0
C44 C 0.01776 0.31096 0.9145 0.0
C45 C 1.00011 0.28599 -0.00405 0.0
C46 C 0.05856 0.56636 0.10459 0.0
C47 C 0.03835 0.43627 0.00973 0.0
C48 C 0.07026 0.63547 0.10752 0.0
C49 C 0.06407 0.64098 0.02512 0.0
C50 C 0.04136 0.50338 0.01853 0.0
C51 C 0.03661 0.5697 0.94315 0.0
C52 C 0.0368 0.38612 0.92108 0.0
C53 C 0.01468 0.34628 0.08305 0.0
N54 N 0.02797 0.50488 0.94144 0.0
N55 N 0.03093 0.41762 0.08791 0.0
H56 H 0.65825 0.00474 0.13427 0.0
H57 H 0.36292 0.89379 0.83022 0.0
H58 H 0.68572 -0.03955 0.83398 0.0
H59 H 0.38703 0.00308 0.12976 0.0
H60 H 0.48102 0.91784 0.82682 0.0
H61 H 0.54659 -0.01173 0.13177 0.0
C62 C 0.63766 -0.01275 0.06746 0.0
C63 C 0.67995 -0.0177 0.98411 0.0
C64 C 0.46221 0.93896 0.89309 0.0
C65 C 0.55604 -0.03157 0.98074 0.0
C66 C 0.39645 0.92758 0.89467 0.0
C67 C 0.36566 0.94711 0.98032 0.0
C68 C 0.49656 -0.03078 0.9779 0.0
C69 C 0.40959 -0.01193 0.06221 0.0
C70 C 0.57576 -0.01962 0.06613 0.0
C71 C 0.65328 -0.03702 0.89954 0.0
N72 N 0.47129 -0.00427 0.05928 0.0
N73 N 0.59362 -0.04243 0.90002 0.0
H74 H 0.23735 0.26933 0.96398 0.0
H75 H 0.69243 0.71934 0.0316 0.0
H76 H 0.32057 0.16829 0.98334 0.0
H77 H 0.74253 0.56537 0.88592 0.0
H78 H 0.53043 0.56546 0.0281 0.0
H79 H 0.39653 0.42441 0.94619 0.0
C80 C 0.28905 0.28001 0.96534 0.0
C81 C 0.26574 0.20643 0.97691 0.0
C82 C 0.57639 0.56495 -0.00495 0.0
C83 C 0.44772 0.38365 0.95743 0.0
C84 C 0.66907 0.6528 -0.00197 0.0
C85 C 0.73077 0.65477 0.95931 0.0
C86 C 0.54491 0.47806 0.95372 0.0
C87 C 0.69689 0.56663 0.91624 0.0
C88 C 0.37989 0.36866 0.95557 0.0
C89 C 0.33555 0.22363 0.97624 0.0
N90 N 0.60581 0.48129 0.91586 0.0
N91 N 0.42352 0.31059 0.96665 0.0
H92 H 0.06389 0.88967 0.63723 0.0
H93 H 0.98117 0.01883 0.32954 0.0
H94 H 0.93758 -0.03462 0.74816 0.0
H95 H 0.04162 0.87358 0.21129 0.0
H96 H 0.9802 0.01637 0.48618 0.0
H97 H 0.07045 0.89883 0.48244 0.0
C98 C 0.03741 0.90808 0.6291 0.0
C99 C 0.99974 0.92632 0.70578 0.0
C100 C 0.99369 -0.01486 0.42579 0.0
C101 C 1.00773 0.93768 0.52888 0.0
C102 C 0.99467 -0.01309 0.33647 0.0
C103 C 1.01103 0.94592 0.25716 0.0
C104 C 1.01009 0.94299 0.43574 0.0
C105 C 0.02797 0.90538 0.27033 0.0
C106 C 0.0411 0.91321 0.54067 0.0
C107 C 0.96659 -0.05001 0.69095 0.0
N108 N 0.02713 0.90503 0.35784 0.0
N109 N 0.97161 -0.04472 0.60427 0.0
loop_
_geom_bond_atom_site_label_1
_geom_bond_atom_site_label_2
_geom_bond_distance
_geom_bond_site_symmetry_2
_ccdc_geom_bond_type
Eu0 O2 2.472 . S
Eu0 O3 2.507 1_455 S
Eu0 O5 2.336 1_455 S
Eu0 O6 2.389 1_455 S
Eu0 C14 2.835 . S
Eu0 O20 2.396 1_456 S
Eu0 O22 2.323 1_565 S
Eu1 O4 2.396 1_654 S
Eu1 O7 2.323 1_545 S
Eu1 O16 2.472 . S
Eu1 O17 2.507 1_655 S
Eu1 O19 2.336 1_655 S
Eu1 O21 2.389 1_655 S
Eu1 C29 2.835 . S
O2 Eu0 2.472 . S
O2 C14 1.258 . S
O3 Eu0 2.507 1_655 S
O3 C14 1.246 1_655 S
O4 Eu1 2.396 1_456 S
O4 C15 1.216 1_445 S
O5 Eu0 2.336 1_655 S
O5 C15 1.279 . S
O6 Eu0 2.389 1_655 S
O6 C18 1.239 . S
O7 Eu1 2.323 1_565 S
O7 C18 1.249 1_554 S
C8 C11 1.390 . S
C8 C13 1.370 . S
C8 C14 1.489 . S
C9 C10 1.344 . S
C9 C12 1.414 . S
C9 H32 0.931 . S
C10 C9 1.344 . S
C10 C11 1.423 1_554 S
C11 C8 1.390 . S
C11 C10 1.423 1_556 S
C11 H33 0.930 1_455 S
C12 C9 1.414 . S
C12 C13 1.395 1_554 S
C13 C8 1.370 . S
C13 C12 1.395 1_556 S
C13 H34 0.932 1_565 S
C14 Eu0 2.835 . S
C14 O2 1.258 . S
C14 O3 1.246 1_455 S
C14 C8 1.489 . S
C15 O4 1.216 1_665 S
C15 O5 1.279 . S
O16 Eu1 2.472 . S
O16 C29 1.258 . S
O17 Eu1 2.507 1_455 S
O17 C29 1.246 1_455 S
C18 O6 1.239 . S
C18 O7 1.249 1_556 S
O19 Eu1 2.336 1_455 S
O19 C30 1.279 . S
O20 Eu0 2.396 1_654 S
O20 C30 1.216 1_665 S
O21 Eu1 2.389 1_455 S
O21 C31 1.239 . S
O22 Eu0 2.323 1_545 S
O22 C31 1.249 1_556 S
C23 C25 1.370 . S
C23 C28 1.390 . S
C23 C29 1.489 . S
C24 C25 1.396 1_556 S
C24 C26 1.413 . S
C25 C23 1.370 . S
C25 C24 1.396 1_554 S
C25 H35 0.932 1_545 S
C26 C24 1.413 . S
C26 C27 1.345 . S
C26 H36 0.931 . S
C27 C26 1.345 . S
C27 C28 1.417 1_556 S
C28 C23 1.390 . S
C28 C27 1.417 1_554 S
C28 H37 0.930 1_655 S
C29 Eu1 2.835 . S
C29 O16 1.258 . S
C29 O17 1.246 1_655 S
C29 C23 1.489 . S
C30 O19 1.279 . S
C30 O20 1.216 1_445 S
C31 O21 1.239 . S
C31 O22 1.249 1_554 S
H32 C9 0.931 . S
H33 C11 0.930 1_655 S
H34 C13 0.932 1_545 S
H35 C25 0.932 1_565 S
H36 C26 0.931 . S
H37 C28 0.930 1_455 S
H38 C44 0.930 . S
H39 C48 0.930 . S
H40 C53 0.929 . S
H41 C51 0.929 . S
H42 C46 0.929 . S
H43 C52 0.929 . S
C44 H38 0.930 . S
C44 C45 1.367 1_455 S
C44 C52 1.378 . S
C45 C44 1.367 1_655 S
C45 C53 1.433 1_556 S
C46 H42 0.929 . S
C46 C48 1.378 . S
C46 C50 1.350 1_655 S
C47 C50 1.463 1_656 S
C47 C52 1.350 1_655 S
C47 N55 1.427 1_556 S
C48 H39 0.930 . S
C48 C46 1.378 . S
C48 C49 1.367 1_655 S
C49 C48 1.367 1_455 S
C49 C51 1.433 1_554 S
C50 C46 1.350 1_455 S
C50 C47 1.463 1_454 S
C50 N54 1.427 1_554 S
C51 H41 0.929 . S
C51 C49 1.433 1_556 S
C51 N54 1.384 . S
C52 H43 0.929 . S
C52 C44 1.378 . S
C52 C47 1.350 1_455 S
C53 H40 0.929 . S
C53 C45 1.433 1_554 S
C53 N55 1.384 . S
N54 C50 1.427 1_556 S
N54 C51 1.384 . S
N55 C47 1.427 1_554 S
N55 C53 1.384 . S
H56 C62 0.930 . S
H57 C66 0.930 . S
H58 C71 0.929 . S
H59 C69 0.929 . S
H60 C64 0.927 . S
H61 C70 0.929 . S
C62 H56 0.930 . S
C62 C63 1.367 . S
C62 C70 1.377 1_545 S
C63 C62 1.367 . S
C63 C71 1.433 1_554 S
C64 H60 0.927 . S
C64 C66 1.381 1_545 S
C64 C68 1.336 1_545 S
C65 C68 1.482 1_544 S
C65 C70 1.351 1_545 S
C65 N73 1.427 1_554 S
C66 H57 0.930 . S
C66 C64 1.381 1_565 S
C66 C67 1.367 . S
C67 C66 1.367 . S
C67 C69 1.433 1_556 S
C68 C64 1.336 1_565 S
C68 C65 1.482 1_566 S
C68 N72 1.421 1_556 S
C69 H59 0.929 . S
C69 C67 1.433 1_554 S
C69 N72 1.384 . S
C70 H61 0.929 . S
C70 C62 1.377 1_565 S
C70 C65 1.351 1_565 S
C71 H58 0.929 . S
C71 C63 1.433 1_556 S
C71 N73 1.384 . S
N72 C68 1.421 1_554 S
N72 C69 1.384 . S
N73 C65 1.427 1_556 S
N73 C71 1.384 . S
H74 C80 0.930 . S
H75 C84 0.930 . S
H76 C89 0.929 . S
H77 C87 0.929 . S
H78 C82 0.929 . S
H79 C88 0.929 . S
C80 H74 0.930 . S
C80 C81 1.367 . S
C80 C88 1.378 . S
C81 C80 1.367 . S
C81 C89 1.433 1_556 S
C82 H78 0.929 . S
C82 C84 1.378 . S
C82 C86 1.350 . S
C83 C86 1.463 1_556 S
C83 C88 1.350 . S
C83 N91 1.427 1_556 S
C84 H75 0.930 . S
C84 C82 1.378 . S
C84 C85 1.367 . S
C85 C84 1.367 . S
C85 C87 1.433 1_554 S
C86 C82 1.350 . S
C86 C83 1.463 1_554 S
C86 N90 1.427 1_554 S
C87 H77 0.929 . S
C87 C85 1.433 1_556 S
C87 N90 1.384 . S
C88 H79 0.929 . S
C88 C80 1.378 . S
C88 C83 1.350 . S
C89 H76 0.929 . S
C89 C81 1.433 1_554 S
C89 N91 1.384 . S
N90 C86 1.427 1_556 S
N90 C87 1.384 . S
N91 C83 1.427 1_554 S
N91 C89 1.384 . S
H92 C98 0.930 . S
H93 C102 0.930 . S
H94 C107 0.929 . S
H95 C105 0.929 . S
H96 C100 0.929 . S
H97 C106 0.929 . S
C98 H92 0.930 . S
C98 C99 1.362 . S
C98 C106 1.378 . S
C99 C98 1.362 . S
C99 C107 1.446 1_665 S
C100 H96 0.929 . S
C100 C102 1.378 . S
C100 C104 1.350 . S
C101 C104 1.463 1_665 S
C101 C106 1.350 . S
C101 N109 1.427 1_665 S
C102 H93 0.930 . S
C102 C100 1.378 . S
C102 C103 1.367 . S
C103 C102 1.367 . S
C103 C105 1.433 1_445 S
C104 C100 1.350 . S
C104 C101 1.463 1_445 S
C104 N108 1.427 1_445 S
C105 H95 0.929 . S
C105 C103 1.433 1_665 S
C105 N108 1.384 . S
C106 H97 0.929 . S
C106 C98 1.378 . S
C106 C101 1.350 . S
C107 H94 0.929 . S
C107 C99 1.446 1_445 S
C107 N109 1.384 . S
N108 C104 1.427 1_665 S
N108 C105 1.384 . S
N109 C101 1.427 1_445 S
N109 C107 1.384 . S
C45 C27 1.168 . S
C49 C10 1.164 . S
C63 C24 2.011 1_554 S
C67 C12 2.012 1_556 S
C81 C31 0.890 1_556 S
C85 C18 0.890 1_554 S
C99 C15 1.487 . S
C103 C30 1.493 . S
