# Generated by pormake.
# Topology qtz, (4)-cn, num edge types: 1
# Building blocks:
#     Node 0, Type 0, BuildingBlock: AZAVOO_clean_sbu_0, # of connection points: 4
#     Node 1, Type 0, BuildingBlock: AZAVOO_clean_sbu_0, # of connection points: 4
#     Node 2, Type 0, BuildingBlock: AZAVOO_clean_sbu_0, # of connection points: 4
#     Edge 3, Type (0, 0), BuildingBlock: AJUNOK_clean_linker_0, # of connection points: 2
#     Edge 4, Type (0, 0), BuildingBlock: AJUNOK_clean_linker_0, # of connection points: 2
#     Edge 5, Type (0, 0), BuildingBlock: AJUNOK_clean_linker_0, # of connection points: 2
#     Edge 6, Type (0, 0), BuildingBlock: AJUNOK_clean_linker_0, # of connection points: 2
#     Edge 7, Type (0, 0), BuildingBlock: AJUNOK_clean_linker_0, # of connection points: 2
#     Edge 8, Type (0, 0), BuildingBlock: AJUNOK_clean_linker_0, # of connection points: 2
# Relax obj value: 0.164
# Max RMSD: 0.231
# Mean RMSD: 0.199
data_MOF--net-qtz--node1-AZAVOO_clean_sbu_0--edge1-AJUNOK_clean_linker_0
_symmetry_space_group_name_H-M    P1
_symmetry_Int_Tables_number       1
_symmetry_cell_setting            triclinic
loop_
_symmetry_equiv_pos_as_xyz
'x, y, z'
_cell_length_a     17.167904
_cell_length_b     17.295982
_cell_length_c     22.213583
_cell_angle_alpha  91.93
_cell_angle_beta   99.202855
_cell_angle_gamma 124.73517
loop_
_atom_site_label
_atom_site_type_symbol
_atom_site_fract_x
_atom_site_fract_y
_atom_site_fract_z
_atom_type_partial_charge
Mg0 Mg 0.98123 0.48319 0.11257 0.0
O1 O 0.09172 0.61527 0.18646 0.0
O2 O 0.00772 0.63918 0.2422 0.0
Mg3 Mg 0.84632 0.51787 0.2092 0.0
C4 C 0.08794 0.66286 0.22971 0.0
C5 C 0.12344 0.46751 0.05145 0.0
O6 O 0.08274 0.38926 0.07648 0.0
O7 O 0.9326 0.56462 0.05758 0.0
O8 O 0.84489 0.57469 0.1178 0.0
O9 O 0.98354 0.3867 0.1776 0.0
O10 O 0.88244 0.42775 0.16841 0.0
C11 C 0.87763 0.58872 0.06852 0.0
C12 C 0.91245 0.38174 0.19486 0.0
O13 O 0.09823 0.52281 0.05904 0.0
Mg14 Mg 0.64079 0.13548 0.47921 0.0
O15 O 0.49935 0.01695 0.41039 0.0
O16 O 0.45907 0.09094 0.3453 0.0
Mg17 Mg 0.57807 0.25117 0.36604 0.0
C18 C 0.44224 0.01522 0.36471 0.0
C19 C 0.61929 0.961 0.53856 0.0
O20 O 0.62958 0.93851 0.48476 0.0
O21 O 0.55822 0.1792 0.52505 0.0
O22 O 0.53244 0.25774 0.45618 0.0
O23 O 0.73332 0.13155 0.41981 0.0
O24 O 0.6799 0.22136 0.4116 0.0
C25 C 0.52721 0.22876 0.50846 0.0
C26 C 0.72677 0.19249 0.39147 0.0
O27 O 0.61934 0.03395 0.54789 0.0
Mg28 Mg 0.43624 0.52733 0.78404 0.0
O29 O 0.57773 0.58168 0.85287 0.0
O30 O 0.62206 0.71162 0.91346 0.0
Mg31 Mg 0.50714 0.73955 0.88338 0.0
C32 C 0.63643 0.65005 0.89707 0.0
C33 C 0.41518 0.40031 0.67205 0.0
O34 O 0.35502 0.42093 0.64849 0.0
O35 O 0.51493 0.64692 0.72804 0.0
O36 O 0.54653 0.77128 0.78862 0.0
O37 O 0.35028 0.44003 0.85083 0.0
O38 O 0.39707 0.58722 0.84523 0.0
C39 C 0.54718 0.73439 0.73801 0.0
C40 C 0.35349 0.51285 0.87178 0.0
O41 O 0.46017 0.43325 0.72802 0.0
C42 C 0.26271 0.42828 0.95254 0.0
C43 C 0.30459 0.50866 0.92229 0.0
C44 C 0.20711 0.41725 -0.0043 0.0
C45 C 0.1908 0.48604 0.01037 0.0
H46 H 0.27081 0.372 0.94178 0.0
H47 H 0.17454 0.3528 0.0164 0.0
S48 S 0.2897 0.71311 0.94736 0.0
N49 N 0.32922 0.66052 0.91223 0.0
N50 N 0.22631 0.64051 -0.00607 0.0
C51 C 0.23545 0.56865 -0.01767 0.0
C52 C 0.29189 0.57978 0.9382 0.0
C53 C 0.77363 0.30324 0.24648 0.0
C54 C 0.86551 0.32621 0.24312 0.0
C55 C 0.72745 0.25548 0.2928 0.0
C56 C 0.77117 0.229 0.33809 0.0
H57 H 0.73679 0.32289 0.21322 0.0
H58 H 0.65709 0.23999 0.29314 0.0
S59 S 0.00816 0.2659 0.3479 0.0
N60 N 0.99634 0.31351 0.28693 0.0
N61 N 0.90918 0.22397 0.37508 0.0
C62 C 0.861 0.24727 0.33392 0.0
C63 C 0.90838 0.29604 0.28625 0.0
C64 C 0.61825 0.94044 0.6491 0.0
C65 C 0.60818 0.90326 0.5888 0.0
C66 C 0.60305 0.88685 0.69728 0.0
C67 C 0.57625 0.79307 0.68747 0.0
H68 H 0.63686 0.01148 0.65931 0.0
H69 H 0.60975 0.91884 0.74231 0.0
S70 S 0.54651 0.66411 0.5387 0.0
N71 N 0.57492 0.76849 0.52235 0.0
N72 N 0.5456 0.66706 0.61293 0.0
C73 C 0.56944 0.756 0.62777 0.0
C74 C 0.58549 0.81114 0.57852 0.0
C75 C 0.75476 0.69784 -0.00308 0.0
C76 C 0.71609 0.65062 0.93558 0.0
C77 C 0.81416 0.68346 0.03858 0.0
C78 C 0.83883 0.62272 0.02041 0.0
H79 H 0.73385 0.74124 0.01429 0.0
H80 H 0.83662 0.71616 0.08634 0.0
S81 S 0.77057 0.49505 0.86258 0.0
N82 N 0.71703 0.54994 0.85677 0.0
N83 N 0.82976 0.52398 0.93521 0.0
C84 C 0.80839 0.58213 0.95794 0.0
C85 C 0.74661 0.5957 0.91552 0.0
C86 C 0.26676 0.91653 0.31266 0.0
C87 C 0.35253 0.92301 0.33288 0.0
C88 C 0.18124 0.8315 0.28036 0.0
C89 C 0.17896 0.7505 0.26538 0.0
H90 H 0.26556 0.97766 0.32219 0.0
H91 H 0.1169 0.82984 0.26581 0.0
S92 S 0.38371 0.72998 0.30778 0.0
N93 N 0.42946 0.84052 0.33678 0.0
N94 N 0.2694 0.68146 0.27385 0.0
C95 C 0.26416 0.75588 0.28515 0.0
C96 C 0.35072 0.84188 0.31959 0.0
C97 C 0.40424 0.33129 0.56791 0.0
C98 C 0.43636 0.34671 0.63233 0.0
C99 C 0.43074 0.28938 0.52856 0.0
C100 C 0.48973 0.26016 0.55187 0.0
H101 H 0.36084 0.35462 0.54732 0.0
H102 H 0.40646 0.28187 0.47923 0.0
S103 S 0.58646 0.27692 0.71736 0.0
N104 N 0.5255 0.32383 0.71804 0.0
N105 N 0.57483 0.24444 0.64388 0.0
C106 C 0.51855 0.2708 0.61632 0.0
C107 C 0.49219 0.31438 0.65656 0.0
loop_
_geom_bond_atom_site_label_1
_geom_bond_atom_site_label_2
_geom_bond_distance
_geom_bond_site_symmetry_2
_ccdc_geom_bond_type
Mg0 O1 2.028 1_655 S
Mg0 O7 1.986 . S
Mg0 O9 2.114 . S
Mg0 O10 2.251 . S
Mg0 O13 2.010 1_655 S
O1 Mg0 2.028 1_455 S
O1 C4 1.250 . S
O2 Mg3 2.028 1_455 S
O2 C4 1.248 . S
Mg3 O2 2.028 1_655 S
Mg3 O8 2.032 . S
Mg3 O10 2.079 . S
C4 O1 1.250 . S
C4 O2 1.248 . S
C5 O6 1.264 . S
C5 O13 1.249 . S
O6 C5 1.264 . S
O7 Mg0 1.986 . S
O7 C11 1.246 . S
O8 Mg3 2.032 . S
O8 C11 1.259 . S
O9 Mg0 2.114 . S
O9 C12 1.252 . S
O10 Mg0 2.251 . S
O10 Mg3 2.079 . S
O10 C12 1.273 . S
C11 O7 1.246 . S
C11 O8 1.259 . S
C12 O9 1.252 . S
C12 O10 1.273 . S
O13 Mg0 2.010 1_455 S
O13 C5 1.249 . S
Mg14 O15 2.028 1_545 S
Mg14 O21 1.986 . S
Mg14 O23 2.114 . S
Mg14 O24 2.251 . S
Mg14 O27 2.010 . S
O15 Mg14 2.028 1_565 S
O15 C18 1.250 . S
O16 Mg17 2.028 . S
O16 C18 1.248 1_545 S
Mg17 O16 2.028 . S
Mg17 O22 2.032 . S
Mg17 O24 2.079 . S
C18 O15 1.250 . S
C18 O16 1.248 1_565 S
C19 O20 1.264 . S
C19 O27 1.249 1_565 S
O20 C19 1.264 . S
O21 Mg14 1.986 . S
O21 C25 1.246 . S
O22 Mg17 2.032 . S
O22 C25 1.259 . S
O23 Mg14 2.114 . S
O23 C26 1.252 . S
O24 Mg14 2.251 . S
O24 Mg17 2.079 . S
O24 C26 1.273 . S
C25 O21 1.246 . S
C25 O22 1.259 . S
C26 O23 1.252 . S
C26 O24 1.273 . S
O27 Mg14 2.010 . S
O27 C19 1.249 1_545 S
Mg28 O29 2.028 . S
Mg28 O35 1.986 . S
Mg28 O37 2.114 . S
Mg28 O38 2.251 . S
Mg28 O41 2.010 . S
O29 Mg28 2.028 . S
O29 C32 1.250 . S
O30 Mg31 2.028 . S
O30 C32 1.248 . S
Mg31 O30 2.028 . S
Mg31 O36 2.032 . S
Mg31 O38 2.079 . S
C32 O29 1.250 . S
C32 O30 1.248 . S
C33 O34 1.264 . S
C33 O41 1.249 . S
O34 C33 1.264 . S
O35 Mg28 1.986 . S
O35 C39 1.246 . S
O36 Mg31 2.032 . S
O36 C39 1.259 . S
O37 Mg28 2.114 . S
O37 C40 1.252 . S
O38 Mg28 2.251 . S
O38 Mg31 2.079 . S
O38 C40 1.273 . S
C39 O35 1.246 . S
C39 O36 1.259 . S
C40 O37 1.252 . S
C40 O38 1.273 . S
O41 Mg28 2.010 . S
O41 C33 1.249 . S
C42 C43 1.369 . S
C42 C44 1.419 . S
C42 H46 0.930 . S
C43 C42 1.369 . S
C43 C52 1.429 1_556 S
C44 C42 1.419 . S
C44 C45 1.363 1_556 S
C44 H47 0.929 . S
C45 C44 1.363 1_554 S
C45 C51 1.428 . S
H46 C42 0.930 . S
H47 C44 0.929 . S
S48 N49 1.613 . S
S48 N50 1.610 . S
N49 S48 1.613 . S
N49 C52 1.350 . S
N50 S48 1.610 . S
N50 C51 1.351 . S
C51 C45 1.428 . S
C51 N50 1.351 . S
C51 C52 1.434 . S
C52 C43 1.429 1_554 S
C52 N49 1.350 . S
C52 C51 1.434 . S
C53 C54 1.369 . S
C53 C55 1.419 . S
C53 H57 0.930 . S
C54 C53 1.369 . S
C54 C63 1.429 . S
C55 C53 1.419 . S
C55 C56 1.363 . S
C55 H58 0.929 . S
C56 C55 1.363 . S
C56 C62 1.428 . S
H57 C53 0.930 . S
H58 C55 0.929 . S
S59 N60 1.613 . S
S59 N61 1.610 . S
N60 S59 1.613 . S
N60 C63 1.350 . S
N61 S59 1.610 . S
N61 C62 1.351 . S
C62 C56 1.428 . S
C62 N61 1.351 . S
C62 C63 1.434 . S
C63 C54 1.429 . S
C63 N60 1.350 . S
C63 C62 1.434 . S
C64 C65 1.369 . S
C64 C66 1.419 . S
C64 H68 0.930 . S
C65 C64 1.369 . S
C65 C74 1.429 . S
C66 C64 1.419 . S
C66 C67 1.363 . S
C66 H69 0.929 . S
C67 C66 1.363 . S
C67 C73 1.428 . S
H68 C64 0.930 . S
H69 C66 0.929 . S
S70 N71 1.613 . S
S70 N72 1.610 . S
N71 S70 1.613 . S
N71 C74 1.350 . S
N72 S70 1.610 . S
N72 C73 1.351 . S
C73 C67 1.428 . S
C73 N72 1.351 . S
C73 C74 1.434 . S
C74 C65 1.429 . S
C74 N71 1.350 . S
C74 C73 1.434 . S
C75 C76 1.369 1_554 S
C75 C77 1.419 . S
C75 H79 0.930 . S
C76 C75 1.369 1_556 S
C76 C85 1.429 . S
C77 C75 1.419 . S
C77 C78 1.363 . S
C77 H80 0.929 . S
C78 C77 1.363 . S
C78 C84 1.428 1_554 S
H79 C75 0.930 . S
H80 C77 0.929 . S
S81 N82 1.613 . S
S81 N83 1.610 . S
N82 S81 1.613 . S
N82 C85 1.350 . S
N83 S81 1.610 . S
N83 C84 1.351 . S
C84 C78 1.428 1_556 S
C84 N83 1.351 . S
C84 C85 1.434 . S
C85 C76 1.429 . S
C85 N82 1.350 . S
C85 C84 1.434 . S
C86 C87 1.369 . S
C86 C88 1.419 . S
C86 H90 0.930 . S
C87 C86 1.369 . S
C87 C96 1.429 . S
C88 C86 1.419 . S
C88 C89 1.363 . S
C88 H91 0.929 . S
C89 C88 1.363 . S
C89 C95 1.428 . S
H90 C86 0.930 . S
H91 C88 0.929 . S
S92 N93 1.613 . S
S92 N94 1.610 . S
N93 S92 1.613 . S
N93 C96 1.350 . S
N94 S92 1.610 . S
N94 C95 1.351 . S
C95 C89 1.428 . S
C95 N94 1.351 . S
C95 C96 1.434 . S
C96 C87 1.429 . S
C96 N93 1.350 . S
C96 C95 1.434 . S
C97 C98 1.369 . S
C97 C99 1.419 . S
C97 H101 0.930 . S
C98 C97 1.369 . S
C98 C107 1.429 . S
C99 C97 1.419 . S
C99 C100 1.363 . S
C99 H102 0.929 . S
C100 C99 1.363 . S
C100 C106 1.428 . S
H101 C97 0.930 . S
H102 C99 0.929 . S
S103 N104 1.613 . S
S103 N105 1.610 . S
N104 S103 1.613 . S
N104 C107 1.350 . S
N105 S103 1.610 . S
N105 C106 1.351 . S
C106 C100 1.428 . S
C106 N105 1.351 . S
C106 C107 1.434 . S
C107 C98 1.429 . S
C107 N104 1.350 . S
C107 C106 1.434 . S
C43 C40 1.382 . S
C45 C5 1.165 . S
C54 C12 1.412 . S
C56 C26 1.405 . S
C65 C19 1.139 . S
C67 C39 1.319 . S
C76 C32 1.326 . S
C78 C11 1.333 . S
C87 C18 1.379 . S
C89 C4 1.377 . S
C98 C33 1.164 . S
C100 C25 1.312 . S
