# Generated by pormake.
# Topology ure, (4)-cn, num edge types: 1
# Building blocks:
#     Node 0, Type 0, BuildingBlock: AZAVOO_clean_sbu_0, # of connection points: 4
#     Node 1, Type 0, BuildingBlock: AZAVOO_clean_sbu_0, # of connection points: 4
#     Node 2, Type 0, BuildingBlock: AZAVOO_clean_sbu_0, # of connection points: 4
#     Node 3, Type 0, BuildingBlock: AZAVOO_clean_sbu_0, # of connection points: 4
#     Node 4, Type 0, BuildingBlock: AZAVOO_clean_sbu_0, # of connection points: 4
#     Node 5, Type 0, BuildingBlock: AZAVOO_clean_sbu_0, # of connection points: 4
#     Node 6, Type 0, BuildingBlock: AZAVOO_clean_sbu_0, # of connection points: 4
#     Node 7, Type 0, BuildingBlock: AZAVOO_clean_sbu_0, # of connection points: 4
#     Node 8, Type 0, BuildingBlock: AZAVOO_clean_sbu_0, # of connection points: 4
#     Node 9, Type 0, BuildingBlock: AZAVOO_clean_sbu_0, # of connection points: 4
#     Node 10, Type 0, BuildingBlock: AZAVOO_clean_sbu_0, # of connection points: 4
#     Node 11, Type 0, BuildingBlock: AZAVOO_clean_sbu_0, # of connection points: 4
#     Node 12, Type 0, BuildingBlock: AZAVOO_clean_sbu_0, # of connection points: 4
#     Node 13, Type 0, BuildingBlock: AZAVOO_clean_sbu_0, # of connection points: 4
#     Node 14, Type 0, BuildingBlock: AZAVOO_clean_sbu_0, # of connection points: 4
#     Node 15, Type 0, BuildingBlock: AZAVOO_clean_sbu_0, # of connection points: 4
#     Edge 16, Type (0, 0), None
#     Edge 17, Type (0, 0), None
#     Edge 18, Type (0, 0), None
#     Edge 19, Type (0, 0), None
#     Edge 20, Type (0, 0), None
#     Edge 21, Type (0, 0), None
#     Edge 22, Type (0, 0), None
#     Edge 23, Type (0, 0), None
#     Edge 24, Type (0, 0), None
#     Edge 25, Type (0, 0), None
#     Edge 26, Type (0, 0), None
#     Edge 27, Type (0, 0), None
#     Edge 28, Type (0, 0), None
#     Edge 29, Type (0, 0), None
#     Edge 30, Type (0, 0), None
#     Edge 31, Type (0, 0), None
#     Edge 32, Type (0, 0), None
#     Edge 33, Type (0, 0), None
#     Edge 34, Type (0, 0), None
#     Edge 35, Type (0, 0), None
#     Edge 36, Type (0, 0), None
#     Edge 37, Type (0, 0), None
#     Edge 38, Type (0, 0), None
#     Edge 39, Type (0, 0), None
#     Edge 40, Type (0, 0), None
#     Edge 41, Type (0, 0), None
#     Edge 42, Type (0, 0), None
#     Edge 43, Type (0, 0), None
#     Edge 44, Type (0, 0), None
#     Edge 45, Type (0, 0), None
#     Edge 46, Type (0, 0), None
#     Edge 47, Type (0, 0), None
# Relax obj value: 0.085
# Max RMSD: 0.080
# Mean RMSD: 0.075
data_MOF--net-ure--node1-AZAVOO_clean_sbu_0--edge1-none
_symmetry_space_group_name_H-M    P1
_symmetry_Int_Tables_number       1
_symmetry_cell_setting            triclinic
loop_
_symmetry_equiv_pos_as_xyz
'x, y, z'
_cell_length_a     14.375129
_cell_length_b     14.34417
_cell_length_c     15.532757
_cell_angle_alpha  90.886326
_cell_angle_beta   90.87676
_cell_angle_gamma 91.09842
loop_
_atom_site_label
_atom_site_type_symbol
_atom_site_fract_x
_atom_site_fract_y
_atom_site_fract_z
_atom_type_partial_charge
Mg0 Mg 0.22114 0.25138 0.27126 0.0
O1 O 0.18146 0.40492 0.21724 0.0
O2 O 0.27965 0.5145 0.27745 0.0
Mg3 Mg 0.3723 0.42043 0.39679 0.0
C4 C 0.20717 0.49098 0.23101 0.0
C5 C 0.19831 0.09347 0.13296 0.0
O6 O 0.26438 0.05363 0.1773 0.0
O7 O 0.3898 0.23271 0.22322 0.0
O8 O 0.47808 0.3381 0.29474 0.0
O9 O 0.22023 0.15507 0.3959 0.0
O10 O 0.24557 0.30338 0.39703 0.0
C11 C 0.46948 0.2755 0.23722 0.0
C12 C 0.23055 0.23079 0.44066 0.0
O13 O 0.16978 0.17306 0.15509 0.0
Mg14 Mg 0.02706 -0.00261 0.44841 0.0
O15 O 0.03973 0.15895 0.42479 0.0
O16 O 0.92122 0.18984 0.50827 0.0
Mg17 Mg 0.81962 0.06461 0.54488 0.0
C18 C 0.99098 0.21802 0.46551 0.0
C19 C 0.10115 0.90381 0.26984 0.0
O20 O 0.09022 0.86791 0.19204 0.0
O21 O 0.04158 0.0393 0.5996 0.0
O22 O 0.90253 0.99588 0.64173 0.0
O23 O 0.88803 0.06025 0.39241 0.0
O24 O 0.86958 0.9449 0.46789 0.0
C25 C 0.98666 0.01397 0.65908 0.0
C26 C 0.83094 0.00087 0.41914 0.0
O27 O 0.0325 0.94305 0.30615 0.0
Mg28 Mg 0.22503 0.71877 0.72321 0.0
O29 O 0.29234 0.57227 0.74867 0.0
O30 O 0.15186 0.53379 0.79103 0.0
Mg31 Mg 0.05432 0.6531 0.81084 0.0
C32 C 0.23317 0.51005 0.77227 0.0
C33 C 0.38037 0.8572 0.62938 0.0
O34 O 0.46292 0.89801 0.63143 0.0
O35 O 0.12124 0.83714 0.69371 0.0
O36 O 0.0687 0.69963 0.67192 0.0
O37 O 0.30639 0.76476 0.85216 0.0
O38 O 0.16308 0.75941 0.8579 0.0
C39 C 0.04973 0.78401 0.67885 0.0
C40 C 0.23741 0.77184 0.90001 0.0
O41 O 0.35657 0.80706 0.69289 0.0
Mg42 Mg 0.50233 0.96311 -0.00811 0.0
O43 O 0.43725 1e-05 0.1339 0.0
O44 O 0.57159 0.95889 0.17839 0.0
Mg45 Mg 0.59937 0.9628 0.03457 0.0
C46 C 0.49231 0.98485 0.19749 0.0
C47 C 0.34704 0.04501 0.85636 0.0
O48 O 0.29749 0.03655 0.78489 0.0
O49 O 0.59765 0.09328 0.95119 0.0
O50 O 0.66847 0.10063 0.07196 0.0
O51 O 0.4287 0.8182 0.00161 0.0
O52 O 0.57224 0.81359 -0.01955 0.0
C53 C 0.67499 0.10225 -0.00802 0.0
C54 C 0.49799 0.76725 -0.01187 0.0
O55 O 0.39936 0.97824 0.87801 0.0
Mg56 Mg 0.28519 0.73866 0.18096 0.0
O57 O 0.20971 0.80257 0.05546 0.0
O58 O 0.29739 0.69079 0.0174 0.0
Mg59 Mg 0.29374 0.65197 0.16065 0.0
C60 C 0.24767 0.75676 -0.0054 0.0
C61 C 0.19262 0.90265 0.31295 0.0
O62 O 0.20704 0.95783 0.38002 0.0
O63 O 0.15997 0.64417 0.23521 0.0
O64 O 0.16468 0.57422 0.11347 0.0
O65 O 0.42799 0.80982 0.157 0.0
O66 O 0.43246 0.68755 0.23028 0.0
C67 C 0.15359 0.56732 0.19307 0.0
C68 C 0.47876 0.75347 0.19795 0.0
O69 O 0.2596 0.8528 0.2863 0.0
Mg70 Mg 0.49813 0.95666 0.46989 0.0
O71 O 0.66672 0.97054 0.45503 0.0
O72 O 0.70468 0.08266 0.36588 0.0
Mg73 Mg 0.57951 0.16747 0.35109 0.0
C74 C 0.72767 0.01458 0.41064 0.0
C75 C 0.31737 0.87269 0.55556 0.0
O76 O 0.23127 0.8411 0.55646 0.0
O77 O 0.43678 0.1107 0.49058 0.0
O78 O 0.57376 0.16288 0.49246 0.0
O79 O 0.46499 0.90157 0.32617 0.0
O80 O 0.48424 0.04262 0.34474 0.0
C81 C 0.49005 0.18225 0.49873 0.0
C82 C 0.46633 0.97928 0.28998 0.0
O83 O 0.34588 0.91598 0.48959 0.0
Mg84 Mg 0.24607 0.21043 0.74063 0.0
O85 O 0.08631 0.20966 0.76508 0.0
O86 O 0.06664 0.31925 0.66908 0.0
Mg87 Mg 0.20175 0.41051 0.6274 0.0
C88 C 0.03221 0.25594 0.71691 0.0
C89 C 0.33931 0.12975 0.91013 0.0
O90 O 0.37381 0.13195 -0.0111 0.0
O91 O 0.20092 0.19709 0.59077 0.0
O92 O 0.28992 0.31289 0.5564 0.0
O93 O 0.1869 0.35193 0.79664 0.0
O94 O 0.30398 0.36713 0.72443 0.0
C95 C 0.24877 0.23854 0.53418 0.0
C96 C 0.24951 0.40726 0.77301 0.0
O97 O 0.29769 0.20095 0.8814 0.0
Mg98 Mg 0.99202 0.02347 0.92407 0.0
O99 O 0.83672 0.06819 -0.02756 0.0
O100 O 0.72558 0.96907 0.9162 0.0
Mg101 Mg 0.81796 0.87992 0.79604 0.0
C102 C 0.75031 0.04314 0.95989 0.0
C103 C 0.15178 0.04595 0.06089 0.0
O104 O 0.19594 0.98734 0.01128 0.0
O105 O 0.00873 0.85217 0.96415 0.0
O106 O 0.902 0.7673 0.89104 0.0
O107 O 0.08277 0.03094 0.79316 0.0
O108 O 0.93581 0.00696 0.8001 0.0
C109 C 0.96619 0.7729 0.94723 0.0
C110 C 0.0046 0.02309 0.75269 0.0
O111 O 0.06954 0.06924 0.04236 0.0
Mg112 Mg 0.74609 0.26449 0.64511 0.0
O113 O 0.80124 0.35096 0.52187 0.0
O114 O 0.66436 0.30089 0.49885 0.0
Mg115 Mg 0.74836 0.23795 0.60993 0.0
C116 C 0.73646 0.33429 0.46611 0.0
C117 C 0.68939 0.40544 0.80473 0.0
O118 O 0.71342 0.45838 0.87132 0.0
O119 O 0.68742 0.16521 0.74184 0.0
O120 O 0.67659 0.095 0.61838 0.0
O121 O 0.87442 0.30456 0.74096 0.0
O122 O 0.88756 0.18696 0.66476 0.0
C123 C 0.67404 0.08977 0.69913 0.0
C124 C 0.9281 0.24167 0.71698 0.0
O125 O 0.75341 0.37452 0.75609 0.0
Mg126 Mg 0.06251 0.47228 0.94927 0.0
O127 O 0.19973 0.37573 -0.03486 0.0
O128 O 0.24978 0.51821 -0.02997 0.0
Mg129 Mg 0.09441 0.52398 0.93922 0.0
C130 C 0.26955 0.43303 -0.03122 0.0
C131 C 0.90993 0.31703 0.04933 0.0
O132 O 0.84639 0.25292 0.03026 0.0
O133 O 0.9553 0.60502 0.94963 0.0
O134 O 0.08265 0.67077 -0.00515 0.0
O135 O 0.0102 0.42156 0.81436 0.0
O136 O 0.94493 0.53697 0.87286 0.0
C137 C -0.00101 0.68045 -0.02512 0.0
C138 C 0.94637 0.48098 0.80793 0.0
O139 O 0.95276 0.35711 -0.01192 0.0
Mg140 Mg 0.80012 0.68356 0.20567 0.0
O141 O 0.63767 0.70259 0.23284 0.0
O142 O 0.61811 0.80938 0.13471 0.0
Mg143 Mg 0.73089 0.88822 0.05671 0.0
C144 C 0.58357 0.75489 0.18977 0.0
C145 C 0.8661 0.65764 0.40137 0.0
O146 O 0.89823 0.68346 0.47783 0.0
O147 O 0.76012 0.62466 0.06338 0.0
O148 O 0.81133 0.76452 0.06591 0.0
O149 O 0.83954 0.83142 0.28239 0.0
O150 O 0.82812 0.83129 0.14947 0.0
C151 C 0.77567 0.69835 0.022 0.0
C152 C 0.84506 0.88048 0.21515 0.0
O153 O 0.84586 0.72004 0.34626 0.0
Mg154 Mg 0.98914 0.50101 0.54267 0.0
O155 O 0.89645 0.44609 0.66133 0.0
O156 O 0.95697 0.57885 0.69068 0.0
Mg157 Mg 0.01962 0.49054 0.5835 0.0
C158 C 0.91626 0.50799 0.71937 0.0
C159 C 0.84961 0.55763 0.38149 0.0
O160 O 0.79725 0.53347 0.31458 0.0
O161 O 0.09173 0.56111 0.45135 0.0
O162 O 0.16013 0.5643 0.57625 0.0
O163 O 0.94552 0.37635 0.44546 0.0
O164 O 0.06806 0.35928 0.51452 0.0
C165 C 0.16665 0.56984 0.49562 0.0
C166 C 0.0097 0.32132 0.46383 0.0
O167 O 0.88243 0.49334 0.42886 0.0
Mg168 Mg 0.56605 0.44453 -0.01408 0.0
O169 O 0.54799 0.60688 0.96178 0.0
O170 O 0.44088 0.63215 0.05946 0.0
Mg171 Mg 0.3609 0.51722 0.13434 0.0
C172 C 0.49645 0.66326 0.00324 0.0
C173 C 0.5897 0.38533 0.78729 0.0
O174 O 0.56275 0.35401 0.71086 0.0
O175 O 0.62508 0.48063 0.12841 0.0
O176 O 0.48313 0.43645 0.12251 0.0
O177 O 0.42174 0.4103 0.90503 0.0
O178 O 0.41695 0.42126 0.03875 0.0
C179 C 0.54958 0.46902 0.16779 0.0
C180 C 0.3703 0.40701 -0.02905 0.0
O181 O 0.52841 0.40207 0.84439 0.0
Mg182 Mg 0.71506 0.76991 0.76975 0.0
O183 O 0.68206 0.9241 0.71685 0.0
O184 O 0.77741 0.02426 0.79181 0.0
Mg185 Mg 0.87117 0.92312 0.90803 0.0
C186 C 0.71043 0.00731 0.73836 0.0
C187 C 0.68027 0.61766 0.6311 0.0
O188 O 0.73668 0.57365 0.68245 0.0
O189 O 0.88248 0.76346 0.71097 0.0
O190 O 0.97667 0.85418 0.79339 0.0
O191 O 0.72818 0.65448 0.87421 0.0
O192 O 0.7459 0.80247 0.90569 0.0
C193 C 0.96351 0.80336 0.72715 0.0
C194 C 0.74036 0.71807 0.93323 0.0
O195 O 0.65942 0.70118 0.64798 0.0
Mg196 Mg 0.77312 0.1857 0.23446 0.0
O197 O 0.87686 0.05198 0.22681 0.0
O198 O 0.73817 0.00315 0.19823 0.0
Mg199 Mg 0.72415 0.15731 0.23321 0.0
C200 C 0.82109 0.98225 0.21349 0.0
C201 C 0.92796 0.3419 0.13965 0.0
O202 O 0.9882 0.40918 0.15884 0.0
O203 O 0.63583 0.28896 0.22904 0.0
O204 O 0.57018 0.15874 0.18971 0.0
O205 O 0.8188 0.23574 0.37097 0.0
O206 O 0.70244 0.29948 0.31271 0.0
C207 C 0.56046 0.24365 0.2059 0.0
C208 C 0.75843 0.29827 0.37771 0.0
O209 O 0.88584 0.30062 0.20069 0.0
Mg210 Mg 0.48278 0.52352 0.42105 0.0
O211 O 0.33089 0.5563 0.47682 0.0
O212 O 0.22801 0.46263 0.40334 0.0
Mg213 Mg 0.32424 0.36872 0.28611 0.0
C214 C 0.2472 0.52936 0.4567 0.0
C215 C 0.63704 0.56969 0.55749 0.0
O216 O 0.68766 0.52358 0.50276 0.0
O217 O 0.49638 0.35357 0.47301 0.0
O218 O 0.39962 0.25979 0.39677 0.0
O219 O 0.59511 0.51416 0.31523 0.0
O220 O 0.44643 0.49523 0.28582 0.0
C221 C 0.45868 0.27122 0.45759 0.0
C222 C 0.53044 0.50183 0.25731 0.0
O223 O 0.5508 0.57826 0.54336 0.0
loop_
_geom_bond_atom_site_label_1
_geom_bond_atom_site_label_2
_geom_bond_distance
_geom_bond_site_symmetry_2
_ccdc_geom_bond_type
Mg0 O1 2.028 . S
Mg0 O7 1.986 . S
Mg0 O9 2.114 . S
Mg0 O10 2.251 . S
Mg0 O13 2.010 . S
O1 Mg0 2.028 . S
O1 C4 1.250 . S
O2 Mg3 2.028 . S
O2 C4 1.248 . S
Mg3 O2 2.028 . S
Mg3 O8 2.032 . S
Mg3 O10 2.079 . S
C4 O1 1.250 . S
C4 O2 1.248 . S
C5 O6 1.264 . S
C5 O13 1.249 . S
O6 C5 1.264 . S
O7 Mg0 1.986 . S
O7 C11 1.246 . S
O8 Mg3 2.032 . S
O8 C11 1.259 . S
O9 Mg0 2.114 . S
O9 C12 1.252 . S
O10 Mg0 2.251 . S
O10 Mg3 2.079 . S
O10 C12 1.273 . S
C11 O7 1.246 . S
C11 O8 1.259 . S
C12 O9 1.252 . S
C12 O10 1.273 . S
O13 Mg0 2.010 . S
O13 C5 1.249 . S
Mg14 O15 2.028 1_565 S
Mg14 O21 1.986 . S
Mg14 O23 2.114 . S
Mg14 O24 2.251 1_565 S
Mg14 O27 2.010 1_655 S
O15 Mg14 2.028 1_545 S
O15 C18 1.250 . S
O16 Mg17 2.028 . S
O16 C18 1.248 . S
Mg17 O16 2.028 . S
Mg17 O22 2.032 . S
Mg17 O24 2.079 . S
C18 O15 1.250 . S
C18 O16 1.248 . S
C19 O20 1.264 . S
C19 O27 1.249 . S
O20 C19 1.264 . S
O21 Mg14 1.986 . S
O21 C25 1.246 1_565 S
O22 Mg17 2.032 . S
O22 C25 1.259 . S
O23 Mg14 2.114 . S
O23 C26 1.252 1_565 S
O24 Mg14 2.251 1_545 S
O24 Mg17 2.079 . S
O24 C26 1.273 . S
C25 O21 1.246 1_545 S
C25 O22 1.259 . S
C26 O23 1.252 1_545 S
C26 O24 1.273 . S
O27 Mg14 2.010 1_455 S
O27 C19 1.249 . S
Mg28 O29 2.028 . S
Mg28 O35 1.986 . S
Mg28 O37 2.114 . S
Mg28 O38 2.251 . S
Mg28 O41 2.010 . S
O29 Mg28 2.028 . S
O29 C32 1.250 . S
O30 Mg31 2.028 . S
O30 C32 1.248 . S
Mg31 O30 2.028 . S
Mg31 O36 2.032 . S
Mg31 O38 2.079 . S
C32 O29 1.250 . S
C32 O30 1.248 . S
C33 O34 1.264 . S
C33 O41 1.249 . S
O34 C33 1.264 . S
O35 Mg28 1.986 . S
O35 C39 1.246 . S
O36 Mg31 2.032 . S
O36 C39 1.259 . S
O37 Mg28 2.114 . S
O37 C40 1.252 . S
O38 Mg28 2.251 . S
O38 Mg31 2.079 . S
O38 C40 1.273 . S
C39 O35 1.246 . S
C39 O36 1.259 . S
C40 O37 1.252 . S
C40 O38 1.273 . S
O41 Mg28 2.010 . S
O41 C33 1.249 . S
Mg42 O43 2.028 1_556 S
Mg42 O49 1.986 . S
Mg42 O51 2.114 . S
Mg42 O52 2.251 1_556 S
Mg42 O55 2.010 1_565 S
O43 Mg42 2.028 1_554 S
O43 C46 1.250 . S
O44 Mg45 2.028 . S
O44 C46 1.248 . S
Mg45 O44 2.028 . S
Mg45 O50 2.032 . S
Mg45 O52 2.079 . S
C46 O43 1.250 . S
C46 O44 1.248 . S
C47 O48 1.264 . S
C47 O55 1.249 . S
O48 C47 1.264 . S
O49 Mg42 1.986 . S
O49 C53 1.246 . S
O50 Mg45 2.032 . S
O50 C53 1.259 1_554 S
O51 Mg42 2.114 . S
O51 C54 1.252 1_556 S
O52 Mg42 2.251 1_554 S
O52 Mg45 2.079 . S
O52 C54 1.273 . S
C53 O49 1.246 . S
C53 O50 1.259 1_556 S
C54 O51 1.252 1_554 S
C54 O52 1.273 . S
O55 Mg42 2.010 1_545 S
O55 C47 1.249 . S
Mg56 O57 2.028 . S
Mg56 O63 1.986 . S
Mg56 O65 2.114 . S
Mg56 O66 2.251 . S
Mg56 O69 2.010 . S
O57 Mg56 2.028 . S
O57 C60 1.250 . S
O58 Mg59 2.028 . S
O58 C60 1.248 . S
Mg59 O58 2.028 . S
Mg59 O64 2.032 . S
Mg59 O66 2.079 . S
C60 O57 1.250 . S
C60 O58 1.248 . S
C61 O62 1.264 . S
C61 O69 1.249 . S
O62 C61 1.264 . S
O63 Mg56 1.986 . S
O63 C67 1.246 . S
O64 Mg59 2.032 . S
O64 C67 1.259 . S
O65 Mg56 2.114 . S
O65 C68 1.252 . S
O66 Mg56 2.251 . S
O66 Mg59 2.079 . S
O66 C68 1.273 . S
C67 O63 1.246 . S
C67 O64 1.259 . S
C68 O65 1.252 . S
C68 O66 1.273 . S
O69 Mg56 2.010 . S
O69 C61 1.249 . S
Mg70 O71 2.028 1_545 S
Mg70 O77 1.986 . S
Mg70 O79 2.114 1_545 S
Mg70 O80 2.251 . S
Mg70 O83 2.010 1_545 S
O71 Mg70 2.028 1_565 S
O71 C74 1.250 1_565 S
O72 Mg73 2.028 . S
O72 C74 1.248 . S
Mg73 O72 2.028 . S
Mg73 O78 2.032 . S
Mg73 O80 2.079 . S
C74 O71 1.250 1_545 S
C74 O72 1.248 . S
C75 O76 1.264 . S
C75 O83 1.249 . S
O76 C75 1.264 . S
O77 Mg70 1.986 . S
O77 C81 1.246 . S
O78 Mg73 2.032 . S
O78 C81 1.259 . S
O79 Mg70 2.114 1_565 S
O79 C82 1.252 . S
O80 Mg70 2.251 . S
O80 Mg73 2.079 . S
O80 C82 1.273 1_545 S
C81 O77 1.246 . S
C81 O78 1.259 . S
C82 O79 1.252 . S
C82 O80 1.273 1_565 S
O83 Mg70 2.010 1_565 S
O83 C75 1.249 . S
Mg84 O85 2.028 . S
Mg84 O91 1.986 . S
Mg84 O93 2.114 . S
Mg84 O94 2.251 . S
Mg84 O97 2.010 . S
O85 Mg84 2.028 . S
O85 C88 1.250 . S
O86 Mg87 2.028 . S
O86 C88 1.248 . S
Mg87 O86 2.028 . S
Mg87 O92 2.032 . S
Mg87 O94 2.079 . S
C88 O85 1.250 . S
C88 O86 1.248 . S
C89 O90 1.264 . S
C89 O97 1.249 . S
O90 C89 1.264 . S
O91 Mg84 1.986 . S
O91 C95 1.246 . S
O92 Mg87 2.032 . S
O92 C95 1.259 . S
O93 Mg84 2.114 . S
O93 C96 1.252 . S
O94 Mg84 2.251 . S
O94 Mg87 2.079 . S
O94 C96 1.273 . S
C95 O91 1.246 . S
C95 O92 1.259 . S
C96 O93 1.252 . S
C96 O94 1.273 . S
O97 Mg84 2.010 . S
O97 C89 1.249 . S
Mg98 O99 2.028 1_466 S
Mg98 O105 1.986 . S
Mg98 O107 2.114 1_465 S
Mg98 O108 2.251 1_455 S
Mg98 O111 2.010 1_566 S
O99 Mg98 2.028 1_644 S
O99 C102 1.250 1_544 S
O100 Mg101 2.028 . S
O100 C102 1.248 . S
Mg101 O100 2.028 . S
Mg101 O106 2.032 . S
Mg101 O108 2.079 . S
C102 O99 1.250 1_566 S
C102 O100 1.248 . S
C103 O104 1.264 . S
C103 O111 1.249 . S
O104 C103 1.264 . S
O105 Mg98 1.986 . S
O105 C109 1.246 1_455 S
O106 Mg101 2.032 . S
O106 C109 1.259 . S
O107 Mg98 2.114 1_645 S
O107 C110 1.252 . S
O108 Mg98 2.251 1_655 S
O108 Mg101 2.079 . S
O108 C110 1.273 1_565 S
C109 O105 1.246 1_655 S
C109 O106 1.259 . S
C110 O107 1.252 . S
C110 O108 1.273 1_545 S
O111 Mg98 2.010 1_544 S
O111 C103 1.249 . S
Mg112 O113 2.028 . S
Mg112 O119 1.986 . S
Mg112 O121 2.114 . S
Mg112 O122 2.251 . S
Mg112 O125 2.010 . S
O113 Mg112 2.028 . S
O113 C116 1.250 . S
O114 Mg115 2.028 . S
O114 C116 1.248 . S
Mg115 O114 2.028 . S
Mg115 O120 2.032 . S
Mg115 O122 2.079 . S
C116 O113 1.250 . S
C116 O114 1.248 . S
C117 O118 1.264 . S
C117 O125 1.249 . S
O118 C117 1.264 . S
O119 Mg112 1.986 . S
O119 C123 1.246 . S
O120 Mg115 2.032 . S
O120 C123 1.259 . S
O121 Mg112 2.114 . S
O121 C124 1.252 . S
O122 Mg112 2.251 . S
O122 Mg115 2.079 . S
O122 C124 1.273 . S
C123 O119 1.246 . S
C123 O120 1.259 . S
C124 O121 1.252 . S
C124 O122 1.273 . S
O125 Mg112 2.010 . S
O125 C117 1.249 . S
Mg126 O127 2.028 1_655 S
Mg126 O133 1.986 . S
Mg126 O135 2.114 . S
Mg126 O136 2.251 1_655 S
Mg126 O139 2.010 1_556 S
O127 Mg126 2.028 1_455 S
O127 C130 1.250 . S
O128 Mg129 2.028 . S
O128 C130 1.248 . S
Mg129 O128 2.028 . S
Mg129 O134 2.032 . S
Mg129 O136 2.079 . S
C130 O127 1.250 . S
C130 O128 1.248 . S
C131 O132 1.264 . S
C131 O139 1.249 . S
O132 C131 1.264 . S
O133 Mg126 1.986 . S
O133 C137 1.246 1_655 S
O134 Mg129 2.032 . S
O134 C137 1.259 . S
O135 Mg126 2.114 . S
O135 C138 1.252 1_655 S
O136 Mg126 2.251 1_455 S
O136 Mg129 2.079 . S
O136 C138 1.273 . S
C137 O133 1.246 1_455 S
C137 O134 1.259 . S
C138 O135 1.252 1_455 S
C138 O136 1.273 . S
O139 Mg126 2.010 1_554 S
O139 C131 1.249 . S
Mg140 O141 2.028 . S
Mg140 O147 1.986 . S
Mg140 O149 2.114 . S
Mg140 O150 2.251 . S
Mg140 O153 2.010 . S
O141 Mg140 2.028 . S
O141 C144 1.250 . S
O142 Mg143 2.028 . S
O142 C144 1.248 . S
Mg143 O142 2.028 . S
Mg143 O148 2.032 . S
Mg143 O150 2.079 . S
C144 O141 1.250 . S
C144 O142 1.248 . S
C145 O146 1.264 . S
C145 O153 1.249 . S
O146 C145 1.264 . S
O147 Mg140 1.986 . S
O147 C151 1.246 . S
O148 Mg143 2.032 . S
O148 C151 1.259 . S
O149 Mg140 2.114 . S
O149 C152 1.252 . S
O150 Mg140 2.251 . S
O150 Mg143 2.079 . S
O150 C152 1.273 . S
C151 O147 1.246 . S
C151 O148 1.259 . S
C152 O149 1.252 . S
C152 O150 1.273 . S
O153 Mg140 2.010 . S
O153 C145 1.249 . S
Mg154 O155 2.028 1_455 S
Mg154 O161 1.986 . S
Mg154 O163 2.114 1_455 S
Mg154 O164 2.251 . S
Mg154 O167 2.010 1_455 S
O155 Mg154 2.028 1_655 S
O155 C158 1.250 1_655 S
O156 Mg157 2.028 . S
O156 C158 1.248 . S
Mg157 O156 2.028 . S
Mg157 O162 2.032 . S
Mg157 O164 2.079 . S
C158 O155 1.250 1_455 S
C158 O156 1.248 . S
C159 O160 1.264 . S
C159 O167 1.249 . S
O160 C159 1.264 . S
O161 Mg154 1.986 . S
O161 C165 1.246 . S
O162 Mg157 2.032 . S
O162 C165 1.259 . S
O163 Mg154 2.114 1_655 S
O163 C166 1.252 . S
O164 Mg154 2.251 . S
O164 Mg157 2.079 . S
O164 C166 1.273 1_455 S
C165 O161 1.246 . S
C165 O162 1.259 . S
C166 O163 1.252 . S
C166 O164 1.273 1_655 S
O167 Mg154 2.010 1_655 S
O167 C159 1.249 . S
Mg168 O169 2.028 1_554 S
Mg168 O175 1.986 . S
Mg168 O177 2.114 1_554 S
Mg168 O178 2.251 . S
Mg168 O181 2.010 1_554 S
O169 Mg168 2.028 1_556 S
O169 C172 1.250 1_556 S
O170 Mg171 2.028 . S
O170 C172 1.248 . S
Mg171 O170 2.028 . S
Mg171 O176 2.032 . S
Mg171 O178 2.079 . S
C172 O169 1.250 1_554 S
C172 O170 1.248 . S
C173 O174 1.264 . S
C173 O181 1.249 . S
O174 C173 1.264 . S
O175 Mg168 1.986 . S
O175 C179 1.246 . S
O176 Mg171 2.032 . S
O176 C179 1.259 . S
O177 Mg168 2.114 1_556 S
O177 C180 1.252 . S
O178 Mg168 2.251 . S
O178 Mg171 2.079 . S
O178 C180 1.273 1_554 S
C179 O175 1.246 . S
C179 O176 1.259 . S
C180 O177 1.252 . S
C180 O178 1.273 1_556 S
O181 Mg168 2.010 1_556 S
O181 C173 1.249 . S
Mg182 O183 2.028 . S
Mg182 O189 1.986 . S
Mg182 O191 2.114 . S
Mg182 O192 2.251 . S
Mg182 O195 2.010 . S
O183 Mg182 2.028 . S
O183 C186 1.250 . S
O184 Mg185 2.028 . S
O184 C186 1.248 . S
Mg185 O184 2.028 . S
Mg185 O190 2.032 . S
Mg185 O192 2.079 . S
C186 O183 1.250 . S
C186 O184 1.248 . S
C187 O188 1.264 . S
C187 O195 1.249 . S
O188 C187 1.264 . S
O189 Mg182 1.986 . S
O189 C193 1.246 . S
O190 Mg185 2.032 . S
O190 C193 1.259 . S
O191 Mg182 2.114 . S
O191 C194 1.252 . S
O192 Mg182 2.251 . S
O192 Mg185 2.079 . S
O192 C194 1.273 . S
C193 O189 1.246 . S
C193 O190 1.259 . S
C194 O191 1.252 . S
C194 O192 1.273 . S
O195 Mg182 2.010 . S
O195 C187 1.249 . S
Mg196 O197 2.028 . S
Mg196 O203 1.986 . S
Mg196 O205 2.114 . S
Mg196 O206 2.251 . S
Mg196 O209 2.010 . S
O197 Mg196 2.028 . S
O197 C200 1.250 . S
O198 Mg199 2.028 . S
O198 C200 1.248 . S
Mg199 O198 2.028 . S
Mg199 O204 2.032 . S
Mg199 O206 2.079 . S
C200 O197 1.250 . S
C200 O198 1.248 . S
C201 O202 1.264 . S
C201 O209 1.249 . S
O202 C201 1.264 . S
O203 Mg196 1.986 . S
O203 C207 1.246 . S
O204 Mg199 2.032 . S
O204 C207 1.259 . S
O205 Mg196 2.114 . S
O205 C208 1.252 . S
O206 Mg196 2.251 . S
O206 Mg199 2.079 . S
O206 C208 1.273 . S
C207 O203 1.246 . S
C207 O204 1.259 . S
C208 O205 1.252 . S
C208 O206 1.273 . S
O209 Mg196 2.010 . S
O209 C201 1.249 . S
Mg210 O211 2.028 . S
Mg210 O217 1.986 . S
Mg210 O219 2.114 . S
Mg210 O220 2.251 . S
Mg210 O223 2.010 . S
O211 Mg210 2.028 . S
O211 C214 1.250 . S
O212 Mg213 2.028 . S
O212 C214 1.248 . S
Mg213 O212 2.028 . S
Mg213 O218 2.032 . S
Mg213 O220 2.079 . S
C214 O211 1.250 . S
C214 O212 1.248 . S
C215 O216 1.264 . S
C215 O223 1.249 . S
O216 C215 1.264 . S
O217 Mg210 1.986 . S
O217 C221 1.246 . S
O218 Mg213 2.032 . S
O218 C221 1.259 . S
O219 Mg210 2.114 . S
O219 C222 1.252 . S
O220 Mg210 2.251 . S
O220 Mg213 2.079 . S
O220 C222 1.273 . S
C221 O217 1.246 . S
C221 O218 1.259 . S
C222 O219 1.252 . S
C222 O220 1.273 . S
O223 Mg210 2.010 . S
O223 C215 1.249 . S
C5 C103 0.956 . S
C19 C61 1.188 . S
C75 C33 1.383 . S
C47 C89 1.188 . S
C117 C173 1.188 . S
C131 C201 1.383 . S
C159 C145 1.188 . S
C215 C187 0.956 . S
C12 C95 1.181 . S
C110 C25 1.181 . S
C40 C60 1.339 1_556 S
C82 C46 1.339 . S
C11 C207 1.041 . S
C166 C18 1.235 . S
C193 C39 1.041 1_655 S
C172 C54 1.235 . S
C144 C68 1.235 . S
C81 C221 1.041 . S
C88 C124 1.235 1_455 S
C109 C137 1.041 1_655 S
C4 C67 1.104 . S
C123 C186 1.104 1_545 S
C180 C130 1.217 . S
C200 C152 1.217 1_545 S
C102 C53 1.104 . S
C32 C96 1.217 . S
C165 C214 1.104 . S
C194 C151 1.181 1_556 S
C222 C179 1.181 . S
C208 C116 1.339 . S
C158 C138 1.339 . S
C26 C74 1.217 . S
