# Generated by pormake.
# Topology pcu, (6)-cn, num edge types: 1
# Building blocks:
#     Node 0, Type 0, BuildingBlock: PAMTUU_clean_sbu_0, # of connection points: 6
#     Edge 1, Type (0, 0), BuildingBlock: CIFDUS_clean_linker_0, # of connection points: 2
#     Edge 2, Type (0, 0), BuildingBlock: CIFDUS_clean_linker_0, # of connection points: 2
#     Edge 3, Type (0, 0), BuildingBlock: CIFDUS_clean_linker_0, # of connection points: 2
# Relax obj value: 0.000
# Max RMSD: 0.000
# Mean RMSD: 0.000
data_MOF--net-pcu--node1-PAMTUU_clean_sbu_0--edge1-CIFDUS_clean_linker_0
_symmetry_space_group_name_H-M    P1
_symmetry_Int_Tables_number       1
_symmetry_cell_setting            triclinic
loop_
_symmetry_equiv_pos_as_xyz
'x, y, z'
_cell_length_a     23.86123
_cell_length_b     13.276981
_cell_length_c     13.25128
_cell_angle_alpha  84.338215
_cell_angle_beta   98.439789
_cell_angle_gamma 117.37458
loop_
_atom_site_label
_atom_site_type_symbol
_atom_site_fract_x
_atom_site_fract_y
_atom_site_fract_z
_atom_type_partial_charge
Tb0 Tb 0.10904 0.04668 0.01689 0.0
Tb1 Tb 0.95149 0.94693 0.95875 0.0
C2 C 1.0177 0.98954 0.18551 0.0
C3 C 0.27918 0.08931 0.05412 0.0
C4 C 0.3852 0.04964 0.04463 0.0
C5 C 0.36475 0.04911 0.13905 0.0
C6 C 0.31257 0.06908 0.14366 0.0
C7 C 0.29849 0.08737 0.95932 0.0
C8 C 0.35091 0.06761 0.95468 0.0
C9 C 0.22764 0.1197 0.06273 0.0
O10 O 0.06851 0.86325 0.03636 0.0
O11 O 0.97154 0.80718 0.93791 0.0
O12 O 0.99607 0.00989 0.81882 0.0
O13 O 0.08859 -0.00601 0.8604 0.0
O14 O 0.85717 0.83289 0.98288 0.0
O15 O 0.87758 0.95693 0.85786 0.0
O16 O 0.98613 0.119 0.00552 0.0
O17 O 0.0905 0.19225 0.97424 0.0
O18 O 0.07251 0.05913 0.15313 0.0
O19 O 0.96784 0.92577 0.12361 0.0
C20 C 1.01704 0.78561 0.98717 0.0
O21 O 0.20178 0.15043 0.97961 0.0
O22 O 0.18546 0.05493 0.12318 0.0
C23 C 0.04487 0.00228 0.79247 0.0
C24 C 0.77982 0.89931 0.92266 0.0
C25 C 0.67115 0.92681 0.94217 0.0
C26 C 0.69067 0.93306 0.8457 0.0
C27 C 0.74417 0.91916 0.83617 0.0
C28 C 0.76155 0.89548 0.01969 0.0
C29 C 0.70771 0.90934 0.02932 0.0
C30 C 0.83347 0.87774 0.90739 0.0
C31 C 0.04105 0.20529 -0.01 0.0
H32 H 0.38929 0.03374 0.20973 0.0
H33 H 0.29887 0.07051 0.21774 0.0
H34 H 0.27399 0.10326 0.88884 0.0
H35 H 0.36568 0.06974 0.8807 0.0
H36 H 0.66447 0.94857 0.77715 0.0
H37 H 0.75733 0.92257 0.76056 0.0
H38 H 0.78816 0.88019 0.0878 0.0
H39 H 0.69379 0.90343 0.10472 0.0
H40 H 0.1124 0.04279 0.34221 0.0
H41 H 0.9099 0.92409 0.27603 0.0
H42 H 0.90074 0.91889 0.45806 0.0
H43 H 0.95034 0.94924 0.63562 0.0
H44 H 0.152 0.05857 0.70272 0.0
H45 H 0.16141 0.06596 0.5205 0.0
C46 C 0.06628 0.01612 0.36763 0.0
C47 C 1.01196 0.98465 0.29571 0.0
C48 C 0.06124 0.01151 0.47243 0.0
C49 C 0.95241 0.94858 0.32988 0.0
C50 C 0.94717 0.94583 0.4339 0.0
C51 C 0.9964 0.97498 0.61037 0.0
C52 C 0.05049 0.00416 0.68253 0.0
C53 C 1.00127 0.97733 0.50577 0.0
C54 C 0.10965 0.03561 0.64873 0.0
C55 C 0.11507 0.04013 0.54456 0.0
H56 H 0.40398 0.9276 0.91025 0.0
H57 H 0.49733 0.1396 0.16998 0.0
H58 H 0.59276 0.11753 0.16374 0.0
H59 H 0.65122 0.04241 0.08162 0.0
H60 H 0.55783 0.83143 0.82128 0.0
H61 H 0.46184 0.85082 0.82952 0.0
C62 C 0.44533 0.96969 0.96506 0.0
C63 C 0.44316 0.03496 0.04055 0.0
C64 C 0.50043 0.95747 0.96062 0.0
C65 C 0.49709 0.08744 0.11187 0.0
C66 C 0.55197 0.07551 0.10802 0.0
C67 C 0.60967 -0.00026 0.02735 0.0
C68 C 0.6121 0.93618 0.95058 0.0
C69 C 0.55429 0.01093 0.03259 0.0
C70 C 0.55784 0.88248 0.88019 0.0
C71 C 0.50268 0.89297 0.88512 0.0
H72 H 0.11191 0.72307 0.01576 0.0
H73 H 0.90822 0.58859 0.95264 0.0
H74 H 0.89774 0.39703 0.94913 0.0
H75 H 0.94635 0.26798 0.96395 0.0
H76 H 0.15038 0.40324 0.01932 0.0
H77 H 0.16079 0.59449 0.02558 0.0
C78 C 0.0652 0.65175 0.00171 0.0
C79 C 1.01089 0.66987 0.98513 0.0
C80 C 0.0596 0.54216 -0.00189 0.0
C81 C 0.95078 0.57689 0.96548 0.0
C82 C 0.94473 0.46733 0.96362 0.0
C83 C 0.99312 0.33924 0.97765 0.0
C84 C 0.04748 0.32132 -0.00834 0.0
C85 C 0.99881 0.44902 0.97983 0.0
C86 C 0.10776 0.41475 0.00802 0.0
C87 C 0.11376 0.52409 0.01191 0.0
loop_
_geom_bond_atom_site_label_1
_geom_bond_atom_site_label_2
_geom_bond_distance
_geom_bond_site_symmetry_2
_ccdc_geom_bond_type
Tb0 C9 2.764 . S
Tb0 O10 2.325 1_545 S
Tb0 O13 2.303 1_554 S
Tb0 O17 2.322 . S
Tb0 O18 2.349 . S
Tb0 O21 2.415 1_554 S
Tb0 O22 2.399 . S
Tb1 O11 2.322 . S
Tb1 O12 2.349 . S
Tb1 O14 2.415 1_556 S
Tb1 O15 2.399 . S
Tb1 O16 2.325 1_565 S
Tb1 O19 2.303 1_556 S
Tb1 C30 2.764 . S
C2 O18 1.261 . S
C2 O19 1.257 1_445 S
C3 C6 1.358 . S
C3 C7 1.332 1_544 S
C3 C9 1.504 . S
C4 C5 1.373 1_566 S
C4 C8 1.308 . S
C5 C4 1.373 1_544 S
C5 C6 1.429 . S
C5 H32 0.932 . S
C6 C3 1.358 . S
C6 C5 1.429 . S
C6 H33 0.930 . S
C7 C3 1.332 1_566 S
C7 C8 1.394 . S
C7 H34 0.932 . S
C8 C4 1.308 . S
C8 C7 1.394 . S
C8 H35 0.929 . S
C9 Tb0 2.764 . S
C9 C3 1.504 . S
C9 O21 1.239 1_554 S
C9 O22 1.263 . S
O10 Tb0 2.325 1_565 S
O10 C20 1.232 1_455 S
O11 Tb1 2.322 . S
O11 C20 1.267 1_556 S
O12 Tb1 2.349 . S
O12 C23 1.261 . S
O13 Tb0 2.303 1_556 S
O13 C23 1.257 1_445 S
O14 Tb1 2.415 1_554 S
O14 C30 1.239 1_554 S
O15 Tb1 2.399 . S
O15 C30 1.263 . S
O16 Tb1 2.325 1_545 S
O16 C31 1.229 1_655 S
O17 Tb0 2.322 . S
O17 C31 1.271 1_554 S
O18 Tb0 2.349 . S
O18 C2 1.261 . S
O19 Tb1 2.303 1_554 S
O19 C2 1.257 1_665 S
C20 O10 1.232 1_655 S
C20 O11 1.267 1_554 S
O21 Tb0 2.415 1_556 S
O21 C9 1.239 1_556 S
O22 Tb0 2.399 . S
O22 C9 1.263 . S
C23 O12 1.261 . S
C23 O13 1.257 1_665 S
C24 C27 1.358 . S
C24 C28 1.332 1_566 S
C24 C30 1.504 . S
C25 C26 1.373 1_544 S
C25 C29 1.308 . S
C26 C25 1.373 1_566 S
C26 C27 1.429 . S
C26 H36 0.932 . S
C27 C24 1.358 . S
C27 C26 1.429 . S
C27 H37 0.930 . S
C28 C24 1.332 1_544 S
C28 C29 1.394 . S
C28 H38 0.932 . S
C29 C25 1.308 . S
C29 C28 1.394 . S
C29 H39 0.929 . S
C30 Tb1 2.764 . S
C30 O14 1.239 1_556 S
C30 O15 1.263 . S
C30 C24 1.504 . S
C31 O16 1.229 1_455 S
C31 O17 1.271 1_556 S
H32 C5 0.932 . S
H33 C6 0.930 . S
H34 C7 0.932 . S
H35 C8 0.929 . S
H36 C26 0.932 . S
H37 C27 0.930 . S
H38 C28 0.932 . S
H39 C29 0.929 . S
H40 C46 0.930 . S
H41 C49 0.930 . S
H42 C50 0.930 . S
H43 C51 0.930 . S
H44 C54 0.930 . S
H45 C55 0.930 . S
C46 H40 0.930 . S
C46 C47 1.355 1_465 S
C46 C48 1.415 . S
C47 C46 1.355 1_645 S
C47 C49 1.419 . S
C48 C46 1.415 . S
C48 C53 1.425 1_465 S
C48 C55 1.409 . S
C49 H41 0.930 . S
C49 C47 1.419 . S
C49 C50 1.362 . S
C50 H42 0.930 . S
C50 C49 1.362 . S
C50 C53 1.409 . S
C51 H43 0.930 . S
C51 C52 1.355 1_645 S
C51 C53 1.415 . S
C52 C51 1.355 1_465 S
C52 C54 1.419 . S
C53 C48 1.425 1_645 S
C53 C50 1.409 . S
C53 C51 1.415 . S
C54 H44 0.930 . S
C54 C52 1.419 . S
C54 C55 1.362 . S
C55 H45 0.930 . S
C55 C48 1.409 . S
C55 C54 1.362 . S
H56 C62 0.930 . S
H57 C65 0.930 . S
H58 C66 0.930 . S
H59 C67 0.930 . S
H60 C70 0.930 . S
H61 C71 0.930 . S
C62 H56 0.930 . S
C62 C63 1.355 1_566 S
C62 C64 1.415 . S
C63 C62 1.355 1_544 S
C63 C65 1.419 . S
C64 C62 1.415 . S
C64 C69 1.425 1_566 S
C64 C71 1.409 . S
C65 H57 0.930 . S
C65 C63 1.419 . S
C65 C66 1.362 . S
C66 H58 0.930 . S
C66 C65 1.362 . S
C66 C69 1.409 . S
C67 H59 0.930 . S
C67 C68 1.355 1_544 S
C67 C69 1.415 . S
C68 C67 1.355 1_566 S
C68 C70 1.419 . S
C69 C64 1.425 1_544 S
C69 C66 1.409 . S
C69 C67 1.415 . S
C70 H60 0.930 . S
C70 C68 1.419 . S
C70 C71 1.362 . S
C71 H61 0.930 . S
C71 C64 1.409 . S
C71 C70 1.362 . S
H72 C78 0.930 . S
H73 C81 0.930 . S
H74 C82 0.930 . S
H75 C83 0.930 . S
H76 C86 0.930 . S
H77 C87 0.930 . S
C78 H72 0.930 . S
C78 C79 1.355 1_654 S
C78 C80 1.415 . S
C79 C78 1.355 1_456 S
C79 C81 1.419 . S
C80 C78 1.415 . S
C80 C85 1.425 1_654 S
C80 C87 1.409 . S
C81 H73 0.930 . S
C81 C79 1.419 . S
C81 C82 1.362 . S
C82 H74 0.930 . S
C82 C81 1.362 . S
C82 C85 1.409 . S
C83 H75 0.930 . S
C83 C84 1.355 1_456 S
C83 C85 1.415 . S
C84 C83 1.355 1_654 S
C84 C86 1.419 . S
C85 C80 1.425 1_456 S
C85 C82 1.409 . S
C85 C83 1.415 . S
C86 H76 0.930 . S
C86 C84 1.419 . S
C86 C87 1.362 . S
C87 H77 0.930 . S
C87 C80 1.409 . S
C87 C86 1.362 . S
C47 C2 1.485 1_655 S
C52 C23 1.485 1_455 S
C63 C4 1.497 1_544 S
C68 C25 1.497 1_566 S
C79 C20 1.494 1_456 S
C84 C31 1.491 1_654 S
