# Generated by pormake.
# Topology sma, (6)-cn, num edge types: 1
# Building blocks:
#     Node 0, Type 0, BuildingBlock: BETDIP_clean_sbu_0, # of connection points: 6
#     Node 1, Type 0, BuildingBlock: BETDIP_clean_sbu_0, # of connection points: 6
#     Node 2, Type 0, BuildingBlock: BETDIP_clean_sbu_0, # of connection points: 6
#     Edge 3, Type (0, 0), BuildingBlock: OJICUG_clean_linker_0, # of connection points: 2
#     Edge 4, Type (0, 0), BuildingBlock: OJICUG_clean_linker_0, # of connection points: 2
#     Edge 5, Type (0, 0), BuildingBlock: OJICUG_clean_linker_0, # of connection points: 2
#     Edge 6, Type (0, 0), BuildingBlock: OJICUG_clean_linker_0, # of connection points: 2
#     Edge 7, Type (0, 0), BuildingBlock: OJICUG_clean_linker_0, # of connection points: 2
#     Edge 8, Type (0, 0), BuildingBlock: OJICUG_clean_linker_0, # of connection points: 2
#     Edge 9, Type (0, 0), BuildingBlock: OJICUG_clean_linker_0, # of connection points: 2
#     Edge 10, Type (0, 0), BuildingBlock: OJICUG_clean_linker_0, # of connection points: 2
#     Edge 11, Type (0, 0), BuildingBlock: OJICUG_clean_linker_0, # of connection points: 2
# Relax obj value: 0.055
# Max RMSD: 0.158
# Mean RMSD: 0.158
data_MOF--net-sma--node1-BETDIP_clean_sbu_0--edge1-OJICUG_clean_linker_0
_symmetry_space_group_name_H-M    P1
_symmetry_Int_Tables_number       1
_symmetry_cell_setting            triclinic
loop_
_symmetry_equiv_pos_as_xyz
'x, y, z'
_cell_length_a     31.633772
_cell_length_b     31.652396
_cell_length_c     10.052154
_cell_angle_alpha  89.939279
_cell_angle_beta   89.941363
_cell_angle_gamma 119.97119
loop_
_atom_site_label
_atom_site_type_symbol
_atom_site_fract_x
_atom_site_fract_y
_atom_site_fract_z
_atom_type_partial_charge
Tb0 Tb 0.08855 0.5884 0.10288 0.0
Tb1 Tb 1.02956 0.47996 0.04993 0.0
C2 C 0.14168 0.66885 0.21647 0.0
C3 C 0.19343 0.70687 0.23584 0.0
C4 C 0.21505 0.7131 0.36182 0.0
C5 C 0.26149 0.75289 0.38721 0.0
C6 C 0.28704 0.78763 0.28747 0.0
C7 C 0.26614 0.78038 0.16012 0.0
C8 C 0.21989 0.74053 0.13456 0.0
C9 C 0.07402 0.56498 0.85009 0.0
C10 C 0.14298 0.52674 0.05808 0.0
C11 C 0.97027 0.39383 -0.01899 0.0
C12 C 0.92495 0.35457 0.04202 0.0
C13 C 0.88238 0.33018 -0.03454 0.0
C14 C 0.83878 0.29418 0.02279 0.0
C15 C 0.83688 0.28162 0.15798 0.0
C16 C 0.87971 0.3057 0.23418 0.0
C17 C 0.92321 0.34198 0.1771 0.0
C18 C 1.04132 0.50558 0.30272 0.0
C19 C 0.97907 0.54544 0.0351 0.0
O20 O 0.12666 0.62649 0.27382 0.0
O21 O 0.12288 0.66459 0.0978 0.0
O22 O 0.08098 0.5418 0.94053 0.0
O23 O 0.08134 0.60633 0.89641 0.0
O24 O 0.14469 0.56596 0.1118 0.0
O25 O 0.10202 0.49175 0.00501 0.0
O26 O 0.96839 0.43169 0.93646 0.0
O27 O 1.01091 0.40648 0.04457 0.0
O28 O 1.03424 0.5271 0.20853 0.0
O29 O 1.03754 0.46566 0.25898 0.0
O30 O 0.97955 0.50592 -0.00569 0.0
O31 O 1.01572 0.57979 0.10442 0.0
H32 H 0.19531 0.68811 0.44229 0.0
H33 H 0.27641 0.75762 0.48656 0.0
H34 H 0.28521 0.80612 0.08058 0.0
H35 H 0.20437 0.73704 0.03646 0.0
H36 H 0.88277 0.33924 0.86131 0.0
H37 H 0.80655 0.27592 -0.03905 0.0
H38 H 0.87936 0.29725 0.33876 0.0
H39 H 0.95532 0.36045 0.23928 0.0
Tb40 Tb 0.58577 1.01981 0.43658 0.0
Tb41 Tb 0.53624 0.0788 0.38313 0.0
C42 C 0.61307 0.96663 0.5507 0.0
C43 C 0.59934 0.91488 0.57002 0.0
C44 C 0.58539 0.89364 0.69703 0.0
C45 C 0.5787 0.84714 0.72193 0.0
C46 C 0.58639 0.82114 0.62058 0.0
C47 C 0.59856 0.84167 0.49234 0.0
C48 C 0.60499 0.88799 0.46727 0.0
C49 C 0.57695 1.03446 0.1837 0.0
C50 C 0.46971 0.96544 0.3918 0.0
C51 C 0.50937 0.13814 0.31379 0.0
C52 C 0.51551 0.18345 0.37455 0.0
C53 C 0.53267 0.22575 0.29697 0.0
C54 C 0.54034 0.26935 0.35402 0.0
C55 C 0.53076 0.2715 0.48994 0.0
C56 C 0.51304 0.22893 0.56721 0.0
C57 C 0.50576 0.18544 0.51039 0.0
C58 C 0.55003 0.06692 0.636 0.0
C59 C 0.65222 0.12929 0.3685 0.0
O60 O 0.58555 0.98151 0.60772 0.0
O61 O 0.6278 0.9856 0.43212 0.0
O62 O 0.54678 1.02747 0.27415 0.0
O63 O 0.61098 1.02709 0.23009 0.0
O64 O 0.50722 0.96369 0.44559 0.0
O65 O 0.47564 1.00642 0.33858 0.0
O66 O 0.54909 0.13995 0.26905 0.0
O67 O 0.48142 0.09754 0.37783 0.0
O68 O 0.57866 0.07404 0.54179 0.0
O69 O 0.51387 0.07071 0.59221 0.0
O70 O 0.61223 0.12885 0.32753 0.0
O71 O 0.64991 0.0926 0.43798 0.0
H72 H 0.58132 0.91373 0.77849 0.0
H73 H 0.56967 0.8325 0.82194 0.0
H74 H 0.60405 0.82224 0.41166 0.0
H75 H 0.61583 0.9032 0.36829 0.0
H76 H 0.54049 0.22515 0.19223 0.0
H77 H 0.55351 0.30137 0.29142 0.0
H78 H 0.50581 0.2295 0.67234 0.0
H79 H 0.49295 0.15354 0.57331 0.0
Tb80 Tb 0.52031 0.52241 0.76845 0.0
Tb81 Tb 0.62877 0.57193 0.71436 0.0
C82 C 0.43978 0.49503 0.88274 0.0
C83 C 0.40169 0.50873 0.90208 0.0
C84 C 0.39541 0.52421 0.02792 0.0
C85 C 0.35559 0.53089 0.05329 0.0
C86 C 0.32088 0.52165 0.95369 0.0
C87 C 0.32819 0.50791 0.82646 0.0
C88 C 0.36807 0.50147 0.80091 0.0
C89 C 0.5437 0.53133 0.51537 0.0
C90 C 0.58183 0.6384 0.72299 0.0
C91 C 0.71502 0.59885 0.64495 0.0
C92 C 0.75431 0.59297 0.70625 0.0
C93 C 0.77892 0.57486 0.63006 0.0
C94 C 0.81487 0.56731 0.68778 0.0
C95 C 0.82717 0.57797 0.82298 0.0
C96 C 0.80289 0.59668 0.89879 0.0
C97 C 0.76666 0.60385 0.84132 0.0
C98 C 0.60317 0.55806 -0.03256 0.0
C99 C 0.56341 0.45607 0.70009 0.0
O100 O 0.48214 0.52245 0.93963 0.0
O101 O 0.44408 0.48042 0.76419 0.0
O102 O 0.56687 0.56146 0.60557 0.0
O103 O 0.50236 0.49728 0.56215 0.0
O104 O 0.54268 0.60091 0.77741 0.0
O105 O 0.61683 0.63247 0.66933 0.0
O106 O 0.6772 0.55901 0.60109 0.0
O107 O 0.70223 0.62687 0.70793 0.0
O108 O 0.58167 0.52946 0.87349 0.0
O109 O 0.64304 0.59423 0.92326 0.0
O110 O 0.60284 0.49605 0.65854 0.0
O111 O 0.5291 0.45834 0.77018 0.0
H112 H 0.42038 0.52951 0.10829 0.0
H113 H 0.35081 0.54115 0.15254 0.0
H114 H 0.30248 0.5012 0.74703 0.0
H115 H 0.3716 0.48937 0.70292 0.0
H116 H 0.77004 0.56617 0.52593 0.0
H117 H 0.83328 0.55337 0.62624 0.0
H118 H 0.81115 0.60477 0.00337 0.0
H119 H 0.74803 0.61744 0.90322 0.0
C120 C 0.18748 0.48663 -0.03508 0.0
C121 C 0.18864 0.52509 0.03783 0.0
H122 H 0.22794 0.45544 0.8821 0.0
C123 C 0.2338 0.56232 0.08551 0.0
H124 H 0.15344 0.4572 0.9269 0.0
C125 C 0.27685 0.56127 0.05929 0.0
C126 C 0.2756 0.52322 -0.01611 0.0
H127 H 0.23602 0.5925 0.1419 0.0
H128 H 0.3112 0.59068 0.09583 0.0
C129 C 0.23034 0.48579 0.9381 0.0
C130 C 0.74408 0.17154 0.35727 0.0
C131 C 0.70022 0.17038 0.32557 0.0
H132 H 0.82165 0.2074 0.32868 0.0
C133 C 0.70216 0.2073 0.24318 0.0
H134 H 0.74396 0.14362 0.41992 0.0
C135 C 0.74647 0.24351 0.19052 0.0
C136 C 0.79016 0.24403 0.21923 0.0
H137 H 0.66923 0.20781 0.21665 0.0
H138 H 0.74648 0.27114 0.12678 0.0
C139 C 0.78861 0.2081 0.30503 0.0
C140 C 0.54765 0.73794 0.72854 0.0
C141 C 0.58489 0.7743 0.6498 0.0
H142 H 0.51717 0.66629 0.8134 0.0
C143 C 0.62166 0.76608 0.59989 0.0
H144 H 0.51877 0.74319 0.76828 0.0
C145 C 0.62097 0.72245 0.62626 0.0
C146 C 0.58332 0.6856 0.70272 0.0
H147 H 0.65138 0.79368 0.54111 0.0
H148 H 0.64988 0.71753 0.5851 0.0
C149 C 0.54672 0.6939 0.75421 0.0
C150 C 0.90043 0.60312 -0.0295 0.0
C151 C 0.86462 0.56879 0.88471 0.0
H152 H 0.96472 0.62287 0.08576 0.0
C153 C 0.86513 0.52561 0.85647 0.0
H154 H 0.90112 0.63686 -0.0062 0.0
C155 C 0.90123 0.51745 0.90956 0.0
C156 C 0.93805 0.55239 -0.00809 0.0
H157 H 0.83759 0.49803 0.79277 0.0
H158 H 0.90073 0.48402 0.88335 0.0
C159 C 0.93688 0.59511 0.02316 0.0
C160 C 0.41455 0.87464 0.41966 0.0
C161 C 0.42247 0.9198 0.37158 0.0
H162 H 0.36561 0.79728 0.43033 0.0
C163 C 0.38522 0.92097 0.29826 0.0
H164 H 0.44247 0.87241 0.47637 0.0
C165 C 0.3416 0.87814 0.27144 0.0
C166 C 0.3338 0.83289 0.31765 0.0
H167 H 0.38982 0.95501 0.2599 0.0
H168 H 0.31371 0.88055 0.21511 0.0
C169 C 0.37054 0.83162 0.39345 0.0
C170 C 0.51417 0.36422 0.69102 0.0
C171 C 0.55646 0.40812 0.65699 0.0
H172 H 0.47272 0.28662 0.66451 0.0
C173 C 0.59095 0.40626 0.57224 0.0
H174 H 0.48677 0.36429 0.75554 0.0
C175 C 0.58275 0.36196 0.51966 0.0
C176 C 0.53999 0.31822 0.55086 0.0
H177 H 0.62403 0.43921 0.54379 0.0
H178 H 0.60996 0.362 0.45408 0.0
C179 C 0.50613 0.31971 0.63891 0.0
C180 C 1.06449 0.5072 0.67013 0.0
C181 C 0.06462 0.54968 0.71043 0.0
H182 H 1.05731 0.46028 0.5084 0.0
C183 C 1.05586 0.57721 0.6164 0.0
H184 H 0.07087 0.48519 0.74098 0.0
C185 C 1.04756 0.56263 0.4833 0.0
C186 C 1.04852 0.5207 0.44272 0.0
H187 H 1.05539 0.60991 0.64569 0.0
H188 H 1.04064 0.58422 0.41226 0.0
C189 C 1.05668 0.49293 0.53724 0.0
C190 C 0.60725 0.05246 0.94975 0.0
C191 C 0.57101 0.0438 0.04393 0.0
H192 H 0.62937 0.06753 0.74538 0.0
C193 C 0.52864 0.04397 0.00371 0.0
H194 H 0.64042 0.05289 -0.02102 0.0
C195 C 0.52212 0.0517 0.87073 0.0
C196 C 0.55799 0.05977 0.77606 0.0
H197 H 0.50028 1.03766 0.07468 0.0
H198 H 0.48882 0.05111 0.84195 0.0
C199 C 0.6009 0.06069 0.81655 0.0
C200 C 0.60147 0.57958 0.33484 0.0
C201 C 0.559 0.53724 0.37555 0.0
H202 H 0.64841 0.61933 0.17267 0.0
C203 C 0.5315 0.50096 0.2818 0.0
H204 H 0.62347 0.60796 0.40547 0.0
C205 C 0.5461 0.50725 0.14856 0.0
C206 C 0.58803 0.55014 0.10758 0.0
H207 H 0.49881 0.4678 0.3114 0.0
H208 H 0.52453 0.47876 0.07773 0.0
C209 C 0.61576 0.58605 0.20182 0.0
loop_
_geom_bond_atom_site_label_1
_geom_bond_atom_site_label_2
_geom_bond_distance
_geom_bond_site_symmetry_2
_ccdc_geom_bond_type
Tb0 C2 2.809 . S
Tb0 O20 2.484 . S
Tb0 O21 2.440 . S
Tb0 O22 2.658 1_455 S
Tb0 O23 2.409 1_554 S
Tb0 O24 2.378 . S
Tb0 O28 2.325 . S
Tb0 O31 2.341 1_455 S
Tb1 C11 2.809 . S
Tb1 O22 2.325 . S
Tb1 O25 2.341 1_655 S
Tb1 O26 2.484 . S
Tb1 O27 2.440 . S
Tb1 O28 2.658 1_655 S
Tb1 O29 2.409 . S
Tb1 O30 2.378 . S
C2 Tb0 2.809 . S
C2 C3 1.514 . S
C2 O20 1.248 . S
C2 O21 1.266 . S
C3 C2 1.514 . S
C3 C4 1.359 . S
C3 C8 1.348 . S
C4 C3 1.359 . S
C4 C5 1.380 . S
C4 H32 0.929 . S
C5 C4 1.380 . S
C5 C6 1.347 . S
C5 H33 0.931 . S
C6 C5 1.347 . S
C6 C7 1.369 . S
C7 C6 1.369 . S
C7 C8 1.408 . S
C7 H34 0.930 . S
C8 C3 1.348 . S
C8 C7 1.408 . S
C8 H35 0.930 1_554 S
C9 O22 1.281 1_456 S
C9 O23 1.254 . S
C10 O24 1.236 . S
C10 O25 1.266 . S
C11 Tb1 2.809 . S
C11 C12 1.514 . S
C11 O26 1.248 . S
C11 O27 1.266 . S
C12 C11 1.514 . S
C12 C13 1.359 . S
C12 C17 1.348 . S
C13 C12 1.359 . S
C13 C14 1.380 1_554 S
C13 H36 0.929 1_554 S
C14 C13 1.380 1_556 S
C14 C15 1.346 1_556 S
C14 H37 0.932 . S
C15 C14 1.346 1_554 S
C15 C16 1.369 . S
C16 C15 1.369 . S
C16 C17 1.408 . S
C16 H38 0.930 . S
C17 C12 1.348 . S
C17 C16 1.408 . S
C17 H39 0.930 . S
C18 O28 1.277 1_655 S
C18 O29 1.256 . S
C19 O30 1.236 . S
C19 O31 1.266 . S
O20 Tb0 2.484 . S
O20 C2 1.248 . S
O21 Tb0 2.440 . S
O21 C2 1.266 . S
O22 Tb0 2.658 1_655 S
O22 Tb1 2.325 . S
O22 C9 1.281 1_654 S
O23 Tb0 2.409 1_556 S
O23 C9 1.254 . S
O24 Tb0 2.378 . S
O24 C10 1.236 . S
O25 Tb1 2.341 1_455 S
O25 C10 1.266 . S
O26 Tb1 2.484 . S
O26 C11 1.248 . S
O27 Tb1 2.440 . S
O27 C11 1.266 . S
O28 Tb0 2.325 . S
O28 Tb1 2.658 1_455 S
O28 C18 1.277 1_455 S
O29 Tb1 2.409 . S
O29 C18 1.256 . S
O30 Tb1 2.378 . S
O30 C19 1.236 . S
O31 Tb0 2.341 1_655 S
O31 C19 1.266 . S
H32 C4 0.929 . S
H33 C5 0.931 . S
H34 C7 0.930 . S
H35 C8 0.930 1_556 S
H36 C13 0.929 1_556 S
H37 C14 0.932 . S
H38 C16 0.930 . S
H39 C17 0.930 . S
Tb40 C42 2.809 . S
Tb40 O60 2.484 . S
Tb40 O61 2.440 . S
Tb40 O62 2.658 1_565 S
Tb40 O63 2.409 . S
Tb40 O64 2.378 . S
Tb40 O68 2.325 . S
Tb40 O71 2.341 1_565 S
Tb41 C51 2.809 . S
Tb41 O62 2.325 . S
Tb41 O65 2.341 1_545 S
Tb41 O66 2.484 . S
Tb41 O67 2.440 . S
Tb41 O68 2.658 1_545 S
Tb41 O69 2.409 . S
Tb41 O70 2.378 . S
C42 Tb40 2.809 . S
C42 C43 1.514 . S
C42 O60 1.248 . S
C42 O61 1.266 . S
C43 C42 1.514 . S
C43 C44 1.359 . S
C43 C48 1.348 . S
C44 C43 1.359 . S
C44 C45 1.380 . S
C44 H72 0.929 . S
C45 C44 1.380 . S
C45 C46 1.347 . S
C45 H73 0.931 . S
C46 C45 1.347 . S
C46 C47 1.369 . S
C47 C46 1.369 . S
C47 C48 1.408 . S
C47 H74 0.930 . S
C48 C43 1.348 . S
C48 C47 1.408 . S
C48 H75 0.930 . S
C49 O62 1.275 1_565 S
C49 O63 1.265 . S
C50 O64 1.236 . S
C50 O65 1.266 . S
C51 Tb41 2.809 . S
C51 C52 1.514 . S
C51 O66 1.248 . S
C51 O67 1.266 . S
C52 C51 1.514 . S
C52 C53 1.359 . S
C52 C57 1.348 . S
C53 C52 1.359 . S
C53 C54 1.380 . S
C53 H76 0.929 . S
C54 C53 1.380 . S
C54 C55 1.347 . S
C54 H77 0.931 . S
C55 C54 1.347 . S
C55 C56 1.369 . S
C56 C55 1.369 . S
C56 C57 1.408 . S
C56 H78 0.930 . S
C57 C52 1.348 . S
C57 C56 1.408 . S
C57 H79 0.930 . S
C58 O68 1.281 1_545 S
C58 O69 1.254 . S
C59 O70 1.236 . S
C59 O71 1.266 . S
O60 Tb40 2.484 . S
O60 C42 1.248 . S
O61 Tb40 2.440 . S
O61 C42 1.266 . S
O62 Tb40 2.658 1_545 S
O62 Tb41 2.325 . S
O62 C49 1.275 1_545 S
O63 Tb40 2.409 . S
O63 C49 1.265 . S
O64 Tb40 2.378 . S
O64 C50 1.236 . S
O65 Tb41 2.341 1_565 S
O65 C50 1.266 . S
O66 Tb41 2.484 . S
O66 C51 1.248 . S
O67 Tb41 2.440 . S
O67 C51 1.266 . S
O68 Tb40 2.325 . S
O68 Tb41 2.658 1_565 S
O68 C58 1.281 1_565 S
O69 Tb41 2.409 . S
O69 C58 1.254 . S
O70 Tb41 2.378 . S
O70 C59 1.236 . S
O71 Tb40 2.341 1_545 S
O71 C59 1.266 . S
H72 C44 0.929 . S
H73 C45 0.931 . S
H74 C47 0.930 . S
H75 C48 0.930 . S
H76 C53 0.929 . S
H77 C54 0.931 . S
H78 C56 0.930 . S
H79 C57 0.930 . S
Tb80 C82 2.809 . S
Tb80 O100 2.484 . S
Tb80 O101 2.440 . S
Tb80 O102 2.658 . S
Tb80 O103 2.409 . S
Tb80 O104 2.378 . S
Tb80 O108 2.325 . S
Tb80 O111 2.341 . S
Tb81 C91 2.809 . S
Tb81 O102 2.325 . S
Tb81 O105 2.341 . S
Tb81 O106 2.484 . S
Tb81 O107 2.440 . S
Tb81 O108 2.658 . S
Tb81 O109 2.409 1_556 S
Tb81 O110 2.378 . S
C82 Tb80 2.809 . S
C82 C83 1.514 . S
C82 O100 1.248 . S
C82 O101 1.266 . S
C83 C82 1.514 . S
C83 C84 1.359 . S
C83 C88 1.348 . S
C84 C83 1.359 . S
C84 C85 1.380 1_556 S
C84 H112 0.929 1_556 S
C85 C84 1.380 1_554 S
C85 C86 1.346 1_554 S
C85 H113 0.932 . S
C86 C85 1.346 1_556 S
C86 C87 1.369 . S
C87 C86 1.369 . S
C87 C88 1.408 . S
C87 H114 0.930 . S
C88 C83 1.348 . S
C88 C87 1.408 . S
C88 H115 0.930 . S
C89 O102 1.281 . S
C89 O103 1.254 . S
C90 O104 1.236 . S
C90 O105 1.266 . S
C91 Tb81 2.809 . S
C91 C92 1.514 . S
C91 O106 1.248 . S
C91 O107 1.266 . S
C92 C91 1.514 . S
C92 C93 1.359 . S
C92 C97 1.348 . S
C93 C92 1.359 . S
C93 C94 1.380 . S
C93 H116 0.929 . S
C94 C93 1.380 . S
C94 C95 1.347 . S
C94 H117 0.931 . S
C95 C94 1.347 . S
C95 C96 1.369 . S
C96 C95 1.369 . S
C96 C97 1.408 . S
C96 H118 0.930 . S
C97 C92 1.348 . S
C97 C96 1.408 . S
C97 H119 0.930 1_556 S
C98 O108 1.281 1_554 S
C98 O109 1.254 . S
C99 O110 1.236 . S
C99 O111 1.266 . S
O100 Tb80 2.484 . S
O100 C82 1.248 . S
O101 Tb80 2.440 . S
O101 C82 1.266 . S
O102 Tb80 2.658 . S
O102 Tb81 2.325 . S
O102 C89 1.281 . S
O103 Tb80 2.409 . S
O103 C89 1.254 . S
O104 Tb80 2.378 . S
O104 C90 1.236 . S
O105 Tb81 2.341 . S
O105 C90 1.266 . S
O106 Tb81 2.484 . S
O106 C91 1.248 . S
O107 Tb81 2.440 . S
O107 C91 1.266 . S
O108 Tb80 2.325 . S
O108 Tb81 2.658 . S
O108 C98 1.281 1_556 S
O109 Tb81 2.409 1_554 S
O109 C98 1.254 . S
O110 Tb81 2.378 . S
O110 C99 1.236 . S
O111 Tb80 2.341 . S
O111 C99 1.266 . S
H112 C84 0.929 1_554 S
H113 C85 0.932 . S
H114 C87 0.930 . S
H115 C88 0.930 . S
H116 C93 0.929 . S
H117 C94 0.931 . S
H118 C96 0.930 . S
H119 C97 0.930 1_554 S
C120 C121 1.387 . S
C120 H124 0.950 . S
C120 C129 1.390 1_554 S
C121 C120 1.387 . S
C121 C123 1.387 . S
H122 C129 0.950 . S
C123 C121 1.387 . S
C123 C125 1.390 . S
C123 H127 0.950 . S
H124 C120 0.950 . S
C125 C123 1.390 . S
C125 C126 1.387 1_554 S
C125 H128 0.950 1_554 S
C126 C125 1.387 1_556 S
C126 C129 1.387 . S
H127 C123 0.950 . S
H128 C125 0.950 1_556 S
C129 C120 1.390 1_556 S
C129 H122 0.950 . S
C129 C126 1.387 . S
C130 C131 1.387 . S
C130 H134 0.950 . S
C130 C139 1.390 . S
C131 C130 1.387 . S
C131 C133 1.387 . S
H132 C139 0.950 . S
C133 C131 1.387 . S
C133 C135 1.390 . S
C133 H137 0.950 . S
H134 C130 0.950 . S
C135 C133 1.390 . S
C135 C136 1.387 . S
C135 H138 0.950 . S
C136 C135 1.387 . S
C136 C139 1.387 . S
H137 C133 0.950 . S
H138 C135 0.950 . S
C139 C130 1.390 . S
C139 H132 0.950 . S
C139 C136 1.387 . S
C140 C141 1.387 . S
C140 H144 0.950 . S
C140 C149 1.390 . S
C141 C140 1.387 . S
C141 C143 1.387 . S
H142 C149 0.950 . S
C143 C141 1.387 . S
C143 C145 1.390 . S
C143 H147 0.950 . S
H144 C140 0.950 . S
C145 C143 1.390 . S
C145 C146 1.387 . S
C145 H148 0.950 . S
C146 C145 1.387 . S
C146 C149 1.387 . S
H147 C143 0.950 . S
H148 C145 0.950 . S
C149 C140 1.390 . S
C149 H142 0.950 . S
C149 C146 1.387 . S
C150 C151 1.387 . S
C150 H154 0.950 . S
C150 C159 1.390 1_556 S
C151 C150 1.387 . S
C151 C153 1.387 . S
H152 C159 0.950 . S
C153 C151 1.387 . S
C153 C155 1.390 1_556 S
C153 H157 0.950 . S
H154 C150 0.950 . S
C155 C153 1.390 1_554 S
C155 C156 1.387 . S
C155 H158 0.950 . S
C156 C155 1.387 . S
C156 C159 1.387 . S
H157 C153 0.950 . S
H158 C155 0.950 . S
C159 C150 1.390 1_554 S
C159 H152 0.950 . S
C159 C156 1.387 . S
C160 C161 1.387 . S
C160 H164 0.950 . S
C160 C169 1.390 . S
C161 C160 1.387 . S
C161 C163 1.387 . S
H162 C169 0.950 . S
C163 C161 1.387 . S
C163 C165 1.390 . S
C163 H167 0.950 . S
H164 C160 0.950 . S
C165 C163 1.390 . S
C165 C166 1.387 . S
C165 H168 0.950 . S
C166 C165 1.387 . S
C166 C169 1.387 . S
H167 C163 0.950 . S
H168 C165 0.950 . S
C169 C160 1.390 . S
C169 H162 0.950 . S
C169 C166 1.387 . S
C170 C171 1.387 . S
C170 H174 0.950 . S
C170 C179 1.390 . S
C171 C170 1.387 . S
C171 C173 1.387 . S
H172 C179 0.950 . S
C173 C171 1.387 . S
C173 C175 1.390 . S
C173 H177 0.950 . S
H174 C170 0.950 . S
C175 C173 1.390 . S
C175 C176 1.387 . S
C175 H178 0.950 . S
C176 C175 1.387 . S
C176 C179 1.387 . S
H177 C173 0.950 . S
H178 C175 0.950 . S
C179 C170 1.390 . S
C179 H172 0.950 . S
C179 C176 1.387 . S
C180 C181 1.387 1_455 S
C180 H184 0.950 . S
C180 C189 1.390 . S
C181 C180 1.387 1_655 S
C181 C183 1.387 . S
H182 C189 0.950 . S
C183 C181 1.387 . S
C183 C185 1.390 . S
C183 H187 0.950 . S
H184 C180 0.950 . S
C185 C183 1.390 . S
C185 C186 1.387 1_655 S
C185 H188 0.950 . S
C186 C185 1.387 1_455 S
C186 C189 1.387 . S
H187 C183 0.950 . S
H188 C185 0.950 . S
C189 C180 1.390 . S
C189 H182 0.950 . S
C189 C186 1.387 . S
C190 C191 1.387 . S
C190 H194 0.950 . S
C190 C199 1.390 1_554 S
C191 C190 1.387 . S
C191 C193 1.387 1_545 S
H192 C199 0.950 . S
C193 C191 1.387 1_565 S
C193 C195 1.390 1_554 S
C193 H197 0.950 . S
H194 C190 0.950 . S
C195 C193 1.390 1_556 S
C195 C196 1.387 . S
C195 H198 0.950 . S
C196 C195 1.387 . S
C196 C199 1.387 1_565 S
H197 C193 0.950 . S
H198 C195 0.950 . S
C199 C190 1.390 1_556 S
C199 H192 0.950 . S
C199 C196 1.387 1_545 S
C200 C201 1.387 . S
C200 H204 0.950 . S
C200 C209 1.390 . S
C201 C200 1.387 . S
C201 C203 1.387 . S
H202 C209 0.950 . S
C203 C201 1.387 . S
C203 C205 1.390 . S
C203 H207 0.950 . S
H204 C200 0.950 . S
C205 C203 1.390 . S
C205 C206 1.387 . S
C205 H208 0.950 . S
C206 C205 1.387 . S
C206 C209 1.387 . S
H207 C203 0.950 . S
H208 C205 0.950 . S
C209 C200 1.390 . S
C209 H202 0.950 . S
C209 C206 1.387 . S
C121 C10 1.805 . S
C126 C86 1.867 . S
C131 C59 2.200 . S
C136 C15 2.109 . S
C141 C46 1.866 . S
C146 C90 1.804 . S
C151 C95 2.109 . S
C156 C19 2.200 . S
C161 C50 1.803 . S
C166 C6 1.866 . S
C171 C99 2.200 . S
C176 C55 2.108 . S
C181 C9 0.775 1_655 S
C186 C18 0.778 1_455 S
C191 C49 0.777 1_545 S
C196 C58 0.782 1_565 S
C201 C89 0.776 . S
C206 C98 0.776 . S
