# Generated by pormake.
# Topology ukb, (4)-cn, num edge types: 1
# Building blocks:
#     Node 0, Type 0, BuildingBlock: NAHDIM_clean_sbu_0, # of connection points: 4
#     Node 1, Type 0, BuildingBlock: NAHDIM_clean_sbu_0, # of connection points: 4
#     Node 2, Type 0, BuildingBlock: NAHDIM_clean_sbu_0, # of connection points: 4
#     Node 3, Type 0, BuildingBlock: NAHDIM_clean_sbu_0, # of connection points: 4
#     Node 4, Type 0, BuildingBlock: NAHDIM_clean_sbu_0, # of connection points: 4
#     Node 5, Type 0, BuildingBlock: NAHDIM_clean_sbu_0, # of connection points: 4
#     Node 6, Type 0, BuildingBlock: NAHDIM_clean_sbu_0, # of connection points: 4
#     Node 7, Type 0, BuildingBlock: NAHDIM_clean_sbu_0, # of connection points: 4
#     Node 8, Type 0, BuildingBlock: NAHDIM_clean_sbu_0, # of connection points: 4
#     Node 9, Type 0, BuildingBlock: NAHDIM_clean_sbu_0, # of connection points: 4
#     Node 10, Type 0, BuildingBlock: NAHDIM_clean_sbu_0, # of connection points: 4
#     Node 11, Type 0, BuildingBlock: NAHDIM_clean_sbu_0, # of connection points: 4
#     Node 12, Type 0, BuildingBlock: NAHDIM_clean_sbu_0, # of connection points: 4
#     Node 13, Type 0, BuildingBlock: NAHDIM_clean_sbu_0, # of connection points: 4
#     Node 14, Type 0, BuildingBlock: NAHDIM_clean_sbu_0, # of connection points: 4
#     Node 15, Type 0, BuildingBlock: NAHDIM_clean_sbu_0, # of connection points: 4
#     Edge 16, Type (0, 0), None
#     Edge 17, Type (0, 0), None
#     Edge 18, Type (0, 0), None
#     Edge 19, Type (0, 0), None
#     Edge 20, Type (0, 0), None
#     Edge 21, Type (0, 0), None
#     Edge 22, Type (0, 0), None
#     Edge 23, Type (0, 0), None
#     Edge 24, Type (0, 0), None
#     Edge 25, Type (0, 0), None
#     Edge 26, Type (0, 0), None
#     Edge 27, Type (0, 0), None
#     Edge 28, Type (0, 0), None
#     Edge 29, Type (0, 0), None
#     Edge 30, Type (0, 0), None
#     Edge 31, Type (0, 0), None
#     Edge 32, Type (0, 0), None
#     Edge 33, Type (0, 0), None
#     Edge 34, Type (0, 0), None
#     Edge 35, Type (0, 0), None
#     Edge 36, Type (0, 0), None
#     Edge 37, Type (0, 0), None
#     Edge 38, Type (0, 0), None
#     Edge 39, Type (0, 0), None
#     Edge 40, Type (0, 0), None
#     Edge 41, Type (0, 0), None
#     Edge 42, Type (0, 0), None
#     Edge 43, Type (0, 0), None
#     Edge 44, Type (0, 0), None
#     Edge 45, Type (0, 0), None
#     Edge 46, Type (0, 0), None
#     Edge 47, Type (0, 0), None
# Relax obj value: 0.149
# Max RMSD: 0.165
# Mean RMSD: 0.165
data_MOF--net-ukb--node1-NAHDIM_clean_sbu_0--edge1-none
_symmetry_space_group_name_H-M    P1
_symmetry_Int_Tables_number       1
_symmetry_cell_setting            triclinic
loop_
_symmetry_equiv_pos_as_xyz
'x, y, z'
_cell_length_a     20.024795
_cell_length_b     20.024794
_cell_length_c     16.845627
_cell_angle_alpha  89.999978
_cell_angle_beta   90.000018
_cell_angle_gamma 89.999861
loop_
_atom_site_label
_atom_site_type_symbol
_atom_site_fract_x
_atom_site_fract_y
_atom_site_fract_z
_atom_type_partial_charge
C0 C 0.37368 0.16303 0.22358 0.0
O1 O 0.37683 0.15127 0.14696 0.0
O2 O 0.49217 0.22913 0.0792 0.0
Zn3 Zn 0.50591 0.20734 0.19565 0.0
O4 O 0.5555 0.11896 0.20721 0.0
C5 C 0.55959 0.33876 0.25773 0.0
O6 O 0.50388 0.36989 0.23985 0.0
O7 O 0.42085 0.19498 0.25655 0.0
C8 C 0.61859 0.11964 0.21573 0.0
O9 O 0.65081 0.17661 0.21226 0.0
C10 C 0.54581 0.23999 0.04103 0.0
O11 O 0.6031 0.23729 0.07856 0.0
O12 O 0.56548 0.27658 0.2452 0.0
C13 C 0.33124 0.37369 0.72356 0.0
O14 O 0.343 0.37683 0.64694 0.0
O15 O 0.26514 0.49217 0.57918 0.0
Zn16 Zn 0.28693 0.50591 0.69563 0.0
O17 O 0.3753 0.55551 0.70719 0.0
C18 C 0.1555 0.55959 0.75772 0.0
O19 O 0.12438 0.50387 0.73986 0.0
O20 O 0.29928 0.42086 0.75654 0.0
C21 C 0.37463 0.61859 0.71574 0.0
O22 O 0.31765 0.65081 0.7123 0.0
C23 C 0.25434 0.54581 0.54099 0.0
O24 O 0.25709 0.60311 0.57851 0.0
O25 O 0.21768 0.56549 0.74517 0.0
C26 C 0.12058 0.33123 0.22356 0.0
O27 O 0.11743 0.343 0.14694 0.0
O28 O 0.00209 0.26514 0.07918 0.0
Zn29 Zn 0.98835 0.28693 0.19563 0.0
O30 O 0.93876 0.3753 0.20719 0.0
C31 C 0.93468 0.1555 0.25772 0.0
O32 O 0.99039 0.12437 0.23983 0.0
O33 O 0.07341 0.29928 0.25653 0.0
C34 C 0.87568 0.37462 0.21575 0.0
O35 O 0.84346 0.31765 0.21232 0.0
C36 C 0.94845 0.25434 0.041 0.0
O37 O 0.89115 0.25711 0.07851 0.0
O38 O 0.92878 0.21768 0.24518 0.0
C39 C 0.16303 0.12058 0.72357 0.0
O40 O 0.15128 0.11743 0.64695 0.0
O41 O 0.22913 0.00209 0.5792 0.0
Zn42 Zn 0.20734 0.98836 0.69565 0.0
O43 O 0.11896 0.93877 0.70721 0.0
C44 C 0.33876 0.93468 0.75773 0.0
O45 O 0.36989 0.99039 0.73982 0.0
O46 O 0.19499 0.07341 0.75655 0.0
C47 C 0.11964 0.87568 0.71574 0.0
O48 O 0.17661 0.84346 0.71227 0.0
C49 C 0.24 0.94845 0.54103 0.0
O50 O 0.2373 0.89116 0.57856 0.0
O51 O 0.27658 0.92878 0.74521 0.0
C52 C 0.37367 0.33123 0.77327 0.0
O53 O 0.37675 0.34296 0.8499 0.0
O54 O 0.49217 0.26519 0.91765 0.0
Zn55 Zn 0.50592 0.28696 0.8012 0.0
O56 O 0.55552 0.37533 0.78964 0.0
C57 C 0.55957 0.15553 0.73911 0.0
O58 O 0.50384 0.12441 0.75693 0.0
O59 O 0.42087 0.29933 0.74029 0.0
C60 C 0.61861 0.37464 0.78106 0.0
O61 O 0.65082 0.31766 0.78448 0.0
C62 C 0.54581 0.25443 0.95585 0.0
O63 O 0.60311 0.25722 0.91835 0.0
O64 O 0.56548 0.2177 0.75168 0.0
C65 C 0.16304 0.37366 0.27326 0.0
O66 O 0.15131 0.37674 0.34989 0.0
O67 O 0.22908 0.49217 0.41763 0.0
Zn68 Zn 0.2073 0.50591 0.30118 0.0
O69 O 0.11894 0.55552 0.28962 0.0
C70 C 0.33874 0.55957 0.23909 0.0
O71 O 0.36986 0.50385 0.25695 0.0
O72 O 0.19494 0.42086 0.24027 0.0
C73 C 0.11962 0.61861 0.28107 0.0
O74 O 0.1766 0.65082 0.28451 0.0
C75 C 0.2399 0.54581 0.45581 0.0
O76 O 0.23717 0.60311 0.41829 0.0
O77 O 0.27656 0.56548 0.25165 0.0
C78 C 0.1206 0.16305 0.77327 0.0
O79 O 0.11752 0.15132 0.8499 0.0
O80 O 0.00209 0.22908 0.91763 0.0
Zn81 Zn 0.98835 0.20731 0.80118 0.0
O82 O 0.93875 0.11894 0.78962 0.0
C83 C 0.9347 0.33874 0.7391 0.0
O84 O 0.99041 0.36986 0.75698 0.0
O85 O 0.0734 0.19494 0.74028 0.0
C86 C 0.87566 0.11962 0.78106 0.0
O87 O 0.84345 0.1766 0.7845 0.0
C88 C 0.94845 0.2399 0.95581 0.0
O89 O 0.89115 0.23717 0.91829 0.0
O90 O 0.92879 0.27656 0.75164 0.0
C91 C 0.33122 0.1206 0.27328 0.0
O92 O 0.34295 0.11752 0.34991 0.0
O93 O 0.26518 0.00209 0.41765 0.0
Zn94 Zn 0.28696 0.98835 0.3012 0.0
O95 O 0.37533 0.93874 0.28964 0.0
C96 C 0.15552 0.9347 0.23911 0.0
O97 O 0.1244 0.99042 0.25696 0.0
O98 O 0.29932 0.0734 0.24029 0.0
C99 C 0.37464 0.87566 0.28105 0.0
O100 O 0.31766 0.84345 0.28445 0.0
C101 C 0.25444 0.94845 0.45585 0.0
O102 O 0.25724 0.89115 0.41835 0.0
O103 O 0.2177 0.92879 0.25167 0.0
C104 C 0.62058 0.83124 0.77324 0.0
O105 O 0.61743 0.843 0.84986 0.0
O106 O 0.5021 0.76514 0.91762 0.0
Zn107 Zn 0.48836 0.78693 0.80117 0.0
O108 O 0.43876 0.8753 0.78961 0.0
C109 C 0.43469 0.6555 0.73908 0.0
O110 O 0.49039 0.62437 0.75698 0.0
O111 O 0.57341 0.79928 0.74026 0.0
C112 C 0.37567 0.87462 0.78108 0.0
O113 O 0.34345 0.81765 0.78455 0.0
C114 C 0.44846 0.75428 0.95578 0.0
O115 O 0.39116 0.75697 0.91825 0.0
O116 O 0.42879 0.71768 0.75161 0.0
C117 C 0.66303 0.62058 0.27325 0.0
O118 O 0.65126 0.61743 0.34987 0.0
O119 O 0.72913 0.5021 0.41764 0.0
Zn120 Zn 0.70734 0.48836 0.30119 0.0
O121 O 0.61897 0.43876 0.28963 0.0
C122 C 0.83877 0.43469 0.23909 0.0
O123 O 0.8699 0.4904 0.25696 0.0
O124 O 0.69498 0.57341 0.24028 0.0
C125 C 0.61965 0.37567 0.28107 0.0
O126 O 0.67662 0.34345 0.28452 0.0
C127 C 0.73993 0.44846 0.45582 0.0
O128 O 0.73717 0.39116 0.41831 0.0
O129 O 0.77659 0.42879 0.25164 0.0
C130 C 0.87369 0.66303 0.77326 0.0
O131 O 0.87684 0.65127 0.84988 0.0
O132 O 0.99218 0.72913 0.91763 0.0
Zn133 Zn 0.00591 0.70734 0.80118 0.0
O134 O 0.05551 0.61897 0.78963 0.0
C135 C 0.05958 0.83877 0.73909 0.0
O136 O 0.00387 0.86991 0.757 0.0
O137 O 0.92086 0.69498 0.74028 0.0
C138 C 0.11859 0.61965 0.78106 0.0
O139 O 0.15082 0.67663 0.78449 0.0
C140 C 0.04582 0.73992 0.95582 0.0
O141 O 0.10312 0.73716 0.91831 0.0
O142 O 0.06548 0.77659 0.75163 0.0
C143 C 0.83123 0.87368 0.27325 0.0
O144 O 0.84299 0.87683 0.34987 0.0
O145 O 0.76513 0.99218 0.41762 0.0
Zn146 Zn 0.78693 0.00591 0.30117 0.0
O147 O 0.8753 0.0555 0.28961 0.0
C148 C 0.6555 0.05958 0.23908 0.0
O149 O 0.62437 0.00388 0.25701 0.0
O150 O 0.79928 0.92085 0.24027 0.0
C151 C 0.87462 0.11859 0.28107 0.0
O152 O 0.81765 0.15081 0.28454 0.0
C153 C 0.75427 0.04582 0.45578 0.0
O154 O 0.75696 0.10311 0.41825 0.0
O155 O 0.71769 0.06548 0.2516 0.0
C156 C 0.6206 0.66304 0.22354 0.0
O157 O 0.61752 0.65131 0.14691 0.0
O158 O 0.5021 0.72908 0.07916 0.0
Zn159 Zn 0.48835 0.70731 0.19561 0.0
O160 O 0.43874 0.61894 0.20718 0.0
C161 C 0.4347 0.83874 0.25772 0.0
O162 O 0.49043 0.86987 0.23988 0.0
O163 O 0.5734 0.69494 0.25653 0.0
C164 C 0.37566 0.61963 0.21576 0.0
O165 O 0.34344 0.67661 0.21234 0.0
C166 C 0.44846 0.73984 0.04097 0.0
O167 O 0.39115 0.73705 0.07847 0.0
O168 O 0.42879 0.77657 0.24514 0.0
C169 C 0.83122 0.6206 0.72355 0.0
O170 O 0.84296 0.61752 0.64692 0.0
O171 O 0.76518 0.5021 0.57918 0.0
Zn172 Zn 0.78696 0.48835 0.69564 0.0
O173 O 0.87533 0.43874 0.7072 0.0
C174 C 0.65552 0.4347 0.75773 0.0
O175 O 0.6244 0.49042 0.73986 0.0
O176 O 0.79933 0.5734 0.75654 0.0
C177 C 0.87464 0.37566 0.71575 0.0
O178 O 0.81766 0.34344 0.71231 0.0
C179 C 0.75436 0.44846 0.541 0.0
O180 O 0.75709 0.39116 0.57852 0.0
O181 O 0.7177 0.42879 0.74518 0.0
C182 C 0.87366 0.83122 0.22354 0.0
O183 O 0.87675 0.84295 0.14691 0.0
O184 O 0.99218 0.76518 0.07918 0.0
Zn185 Zn 0.00592 0.78696 0.19563 0.0
O186 O 0.05552 0.87533 0.2072 0.0
C187 C 0.05956 0.65552 0.25772 0.0
O188 O 0.00385 0.6244 0.23983 0.0
O189 O 0.92086 0.79932 0.25654 0.0
C190 C 0.11861 0.87464 0.21576 0.0
O191 O 0.15082 0.81766 0.21232 0.0
C192 C 0.04582 0.75436 0.041 0.0
O193 O 0.10312 0.7571 0.07852 0.0
O194 O 0.06548 0.7177 0.24518 0.0
C195 C 0.66305 0.87367 0.72353 0.0
O196 O 0.65131 0.87675 0.6469 0.0
O197 O 0.72909 0.99217 0.57916 0.0
Zn198 Zn 0.70731 0.00592 0.69562 0.0
O199 O 0.61894 0.05553 0.70718 0.0
C200 C 0.83875 0.05956 0.75772 0.0
O201 O 0.86987 0.00385 0.73985 0.0
O202 O 0.69494 0.92087 0.75652 0.0
C203 C 0.61964 0.11861 0.71577 0.0
O204 O 0.67662 0.15082 0.71237 0.0
C205 C 0.73983 0.04582 0.54097 0.0
O206 O 0.73703 0.10312 0.57847 0.0
O207 O 0.77657 0.06547 0.74516 0.0
loop_
_geom_bond_atom_site_label_1
_geom_bond_atom_site_label_2
_geom_bond_distance
_geom_bond_site_symmetry_2
_ccdc_geom_bond_type
C0 O1 1.160 . S
C0 O7 1.185 . S
O1 C0 1.160 . S
O2 Zn3 1.899 . S
O2 C10 1.284 . S
Zn3 O2 1.899 . S
Zn3 O4 2.032 . S
Zn3 O7 2.086 . S
Zn3 O12 1.977 . S
O4 Zn3 2.032 . S
O4 C8 1.278 . S
C5 O6 1.203 . S
C5 O12 1.267 . S
O6 C5 1.203 . S
O7 C0 1.185 . S
O7 Zn3 2.086 . S
C8 O4 1.278 . S
C8 O9 1.211 . S
O9 C8 1.211 . S
C10 O2 1.284 . S
C10 O11 1.273 . S
O11 C10 1.273 . S
O12 Zn3 1.977 . S
O12 C5 1.267 . S
C13 O14 1.160 . S
C13 O20 1.185 . S
O14 C13 1.160 . S
O15 Zn16 1.899 . S
O15 C23 1.284 . S
Zn16 O15 1.899 . S
Zn16 O17 2.032 . S
Zn16 O20 2.086 . S
Zn16 O25 1.977 . S
O17 Zn16 2.032 . S
O17 C21 1.278 . S
C18 O19 1.203 . S
C18 O25 1.267 . S
O19 C18 1.203 . S
O20 C13 1.185 . S
O20 Zn16 2.086 . S
C21 O17 1.278 . S
C21 O22 1.211 . S
O22 C21 1.211 . S
C23 O15 1.284 . S
C23 O24 1.273 . S
O24 C23 1.273 . S
O25 Zn16 1.977 . S
O25 C18 1.267 . S
C26 O27 1.160 . S
C26 O33 1.185 . S
O27 C26 1.160 . S
O28 Zn29 1.899 1_455 S
O28 C36 1.284 1_455 S
Zn29 O28 1.899 1_655 S
Zn29 O30 2.032 . S
Zn29 O33 2.086 1_655 S
Zn29 O38 1.977 . S
O30 Zn29 2.032 . S
O30 C34 1.278 . S
C31 O32 1.203 . S
C31 O38 1.267 . S
O32 C31 1.203 . S
O33 C26 1.185 . S
O33 Zn29 2.086 1_455 S
C34 O30 1.278 . S
C34 O35 1.211 . S
O35 C34 1.211 . S
C36 O28 1.284 1_655 S
C36 O37 1.273 . S
O37 C36 1.273 . S
O38 Zn29 1.977 . S
O38 C31 1.267 . S
C39 O40 1.160 . S
C39 O46 1.185 . S
O40 C39 1.160 . S
O41 Zn42 1.899 1_545 S
O41 C49 1.284 1_545 S
Zn42 O41 1.899 1_565 S
Zn42 O43 2.032 . S
Zn42 O46 2.086 1_565 S
Zn42 O51 1.977 . S
O43 Zn42 2.032 . S
O43 C47 1.278 . S
C44 O45 1.203 . S
C44 O51 1.267 . S
O45 C44 1.203 . S
O46 C39 1.185 . S
O46 Zn42 2.086 1_545 S
C47 O43 1.278 . S
C47 O48 1.211 . S
O48 C47 1.211 . S
C49 O41 1.284 1_565 S
C49 O50 1.273 . S
O50 C49 1.273 . S
O51 Zn42 1.977 . S
O51 C44 1.267 . S
C52 O53 1.160 . S
C52 O59 1.185 . S
O53 C52 1.160 . S
O54 Zn55 1.899 . S
O54 C62 1.284 . S
Zn55 O54 1.899 . S
Zn55 O56 2.032 . S
Zn55 O59 2.086 . S
Zn55 O64 1.977 . S
O56 Zn55 2.032 . S
O56 C60 1.278 . S
C57 O58 1.203 . S
C57 O64 1.267 . S
O58 C57 1.203 . S
O59 C52 1.185 . S
O59 Zn55 2.086 . S
C60 O56 1.278 . S
C60 O61 1.211 . S
O61 C60 1.211 . S
C62 O54 1.284 . S
C62 O63 1.273 . S
O63 C62 1.273 . S
O64 Zn55 1.977 . S
O64 C57 1.267 . S
C65 O66 1.160 . S
C65 O72 1.185 . S
O66 C65 1.160 . S
O67 Zn68 1.899 . S
O67 C75 1.284 . S
Zn68 O67 1.899 . S
Zn68 O69 2.032 . S
Zn68 O72 2.086 . S
Zn68 O77 1.977 . S
O69 Zn68 2.032 . S
O69 C73 1.278 . S
C70 O71 1.203 . S
C70 O77 1.267 . S
O71 C70 1.203 . S
O72 C65 1.185 . S
O72 Zn68 2.086 . S
C73 O69 1.278 . S
C73 O74 1.211 . S
O74 C73 1.211 . S
C75 O67 1.284 . S
C75 O76 1.273 . S
O76 C75 1.273 . S
O77 Zn68 1.977 . S
O77 C70 1.267 . S
C78 O79 1.160 . S
C78 O85 1.185 . S
O79 C78 1.160 . S
O80 Zn81 1.899 1_455 S
O80 C88 1.284 1_455 S
Zn81 O80 1.899 1_655 S
Zn81 O82 2.032 . S
Zn81 O85 2.086 1_655 S
Zn81 O90 1.977 . S
O82 Zn81 2.032 . S
O82 C86 1.278 . S
C83 O84 1.203 . S
C83 O90 1.267 . S
O84 C83 1.203 . S
O85 C78 1.185 . S
O85 Zn81 2.086 1_455 S
C86 O82 1.278 . S
C86 O87 1.211 . S
O87 C86 1.211 . S
C88 O80 1.284 1_655 S
C88 O89 1.273 . S
O89 C88 1.273 . S
O90 Zn81 1.977 . S
O90 C83 1.267 . S
C91 O92 1.160 . S
C91 O98 1.185 . S
O92 C91 1.160 . S
O93 Zn94 1.899 1_545 S
O93 C101 1.284 1_545 S
Zn94 O93 1.899 1_565 S
Zn94 O95 2.032 . S
Zn94 O98 2.086 1_565 S
Zn94 O103 1.977 . S
O95 Zn94 2.032 . S
O95 C99 1.278 . S
C96 O97 1.203 . S
C96 O103 1.267 . S
O97 C96 1.203 . S
O98 C91 1.185 . S
O98 Zn94 2.086 1_545 S
C99 O95 1.278 . S
C99 O100 1.211 . S
O100 C99 1.211 . S
C101 O93 1.284 1_565 S
C101 O102 1.273 . S
O102 C101 1.273 . S
O103 Zn94 1.977 . S
O103 C96 1.267 . S
C104 O105 1.160 . S
C104 O111 1.185 . S
O105 C104 1.160 . S
O106 Zn107 1.899 . S
O106 C114 1.284 . S
Zn107 O106 1.899 . S
Zn107 O108 2.032 . S
Zn107 O111 2.086 . S
Zn107 O116 1.977 . S
O108 Zn107 2.032 . S
O108 C112 1.278 . S
C109 O110 1.203 . S
C109 O116 1.267 . S
O110 C109 1.203 . S
O111 C104 1.185 . S
O111 Zn107 2.086 . S
C112 O108 1.278 . S
C112 O113 1.211 . S
O113 C112 1.211 . S
C114 O106 1.284 . S
C114 O115 1.273 . S
O115 C114 1.273 . S
O116 Zn107 1.977 . S
O116 C109 1.267 . S
C117 O118 1.160 . S
C117 O124 1.185 . S
O118 C117 1.160 . S
O119 Zn120 1.899 . S
O119 C127 1.284 . S
Zn120 O119 1.899 . S
Zn120 O121 2.032 . S
Zn120 O124 2.086 . S
Zn120 O129 1.977 . S
O121 Zn120 2.032 . S
O121 C125 1.278 . S
C122 O123 1.203 . S
C122 O129 1.267 . S
O123 C122 1.203 . S
O124 C117 1.185 . S
O124 Zn120 2.086 . S
C125 O121 1.278 . S
C125 O126 1.211 . S
O126 C125 1.211 . S
C127 O119 1.284 . S
C127 O128 1.273 . S
O128 C127 1.273 . S
O129 Zn120 1.977 . S
O129 C122 1.267 . S
C130 O131 1.160 . S
C130 O137 1.185 . S
O131 C130 1.160 . S
O132 Zn133 1.899 1_655 S
O132 C140 1.284 1_655 S
Zn133 O132 1.899 1_455 S
Zn133 O134 2.032 . S
Zn133 O137 2.086 1_455 S
Zn133 O142 1.977 . S
O134 Zn133 2.032 . S
O134 C138 1.278 . S
C135 O136 1.203 . S
C135 O142 1.267 . S
O136 C135 1.203 . S
O137 C130 1.185 . S
O137 Zn133 2.086 1_655 S
C138 O134 1.278 . S
C138 O139 1.211 . S
O139 C138 1.211 . S
C140 O132 1.284 1_455 S
C140 O141 1.273 . S
O141 C140 1.273 . S
O142 Zn133 1.977 . S
O142 C135 1.267 . S
C143 O144 1.160 . S
C143 O150 1.185 . S
O144 C143 1.160 . S
O145 Zn146 1.899 1_565 S
O145 C153 1.284 1_565 S
Zn146 O145 1.899 1_545 S
Zn146 O147 2.032 . S
Zn146 O150 2.086 1_545 S
Zn146 O155 1.977 . S
O147 Zn146 2.032 . S
O147 C151 1.278 . S
C148 O149 1.203 . S
C148 O155 1.267 . S
O149 C148 1.203 . S
O150 C143 1.185 . S
O150 Zn146 2.086 1_565 S
C151 O147 1.278 . S
C151 O152 1.211 . S
O152 C151 1.211 . S
C153 O145 1.284 1_545 S
C153 O154 1.273 . S
O154 C153 1.273 . S
O155 Zn146 1.977 . S
O155 C148 1.267 . S
C156 O157 1.160 . S
C156 O163 1.185 . S
O157 C156 1.160 . S
O158 Zn159 1.899 . S
O158 C166 1.284 . S
Zn159 O158 1.899 . S
Zn159 O160 2.032 . S
Zn159 O163 2.086 . S
Zn159 O168 1.977 . S
O160 Zn159 2.032 . S
O160 C164 1.278 . S
C161 O162 1.203 . S
C161 O168 1.267 . S
O162 C161 1.203 . S
O163 C156 1.185 . S
O163 Zn159 2.086 . S
C164 O160 1.278 . S
C164 O165 1.211 . S
O165 C164 1.211 . S
C166 O158 1.284 . S
C166 O167 1.273 . S
O167 C166 1.273 . S
O168 Zn159 1.977 . S
O168 C161 1.267 . S
C169 O170 1.160 . S
C169 O176 1.185 . S
O170 C169 1.160 . S
O171 Zn172 1.899 . S
O171 C179 1.284 . S
Zn172 O171 1.899 . S
Zn172 O173 2.032 . S
Zn172 O176 2.086 . S
Zn172 O181 1.977 . S
O173 Zn172 2.032 . S
O173 C177 1.278 . S
C174 O175 1.203 . S
C174 O181 1.267 . S
O175 C174 1.203 . S
O176 C169 1.185 . S
O176 Zn172 2.086 . S
C177 O173 1.278 . S
C177 O178 1.211 . S
O178 C177 1.211 . S
C179 O171 1.284 . S
C179 O180 1.273 . S
O180 C179 1.273 . S
O181 Zn172 1.977 . S
O181 C174 1.267 . S
C182 O183 1.160 . S
C182 O189 1.185 . S
O183 C182 1.160 . S
O184 Zn185 1.899 1_655 S
O184 C192 1.284 1_655 S
Zn185 O184 1.899 1_455 S
Zn185 O186 2.032 . S
Zn185 O189 2.086 1_455 S
Zn185 O194 1.977 . S
O186 Zn185 2.032 . S
O186 C190 1.278 . S
C187 O188 1.203 . S
C187 O194 1.267 . S
O188 C187 1.203 . S
O189 C182 1.185 . S
O189 Zn185 2.086 1_655 S
C190 O186 1.278 . S
C190 O191 1.211 . S
O191 C190 1.211 . S
C192 O184 1.284 1_455 S
C192 O193 1.273 . S
O193 C192 1.273 . S
O194 Zn185 1.977 . S
O194 C187 1.267 . S
C195 O196 1.160 . S
C195 O202 1.185 . S
O196 C195 1.160 . S
O197 Zn198 1.899 1_565 S
O197 C205 1.284 1_565 S
Zn198 O197 1.899 1_545 S
Zn198 O199 2.032 . S
Zn198 O202 2.086 1_545 S
Zn198 O207 1.977 . S
O199 Zn198 2.032 . S
O199 C203 1.278 . S
C200 O201 1.203 . S
C200 O207 1.267 . S
O201 C200 1.203 . S
O202 C195 1.185 . S
O202 Zn198 2.086 1_565 S
C203 O199 1.278 . S
C203 O204 1.211 . S
O204 C203 1.211 . S
C205 O197 1.284 1_545 S
C205 O206 1.273 . S
O206 C205 1.273 . S
O207 Zn198 1.977 . S
O207 C200 1.267 . S
C0 C91 1.240 . S
C13 C52 1.240 . S
C26 C65 1.240 . S
C39 C78 1.240 . S
C104 C195 1.240 . S
C156 C117 1.240 . S
C130 C169 1.240 . S
C143 C182 1.240 . S
C5 C125 1.485 . S
C18 C138 1.485 . S
C151 C31 1.485 . S
C44 C112 1.485 . S
C57 C203 1.485 . S
C164 C70 1.485 . S
C177 C83 1.485 . S
C190 C96 1.485 . S
C21 C109 1.485 . S
C34 C122 1.485 . S
C135 C47 1.485 . S
C8 C148 1.485 . S
C161 C99 1.485 . S
C174 C60 1.485 . S
C73 C187 1.485 . S
C86 C200 1.485 . S
C10 C62 1.554 1_554 S
C75 C23 1.554 . S
C36 C88 1.554 1_554 S
C101 C49 1.554 . S
C114 C166 1.554 1_556 S
C179 C127 1.554 . S
C192 C140 1.554 1_554 S
C205 C153 1.554 . S
