# Generated by pormake.
# Topology umx, (4)-cn, num edge types: 1
# Building blocks:
#     Node 0, Type 0, BuildingBlock: MUDLON_clean_sbu_0, # of connection points: 4
#     Node 1, Type 0, BuildingBlock: MUDLON_clean_sbu_0, # of connection points: 4
#     Node 2, Type 0, BuildingBlock: MUDLON_clean_sbu_0, # of connection points: 4
#     Node 3, Type 0, BuildingBlock: MUDLON_clean_sbu_0, # of connection points: 4
#     Node 4, Type 0, BuildingBlock: MUDLON_clean_sbu_0, # of connection points: 4
#     Node 5, Type 0, BuildingBlock: MUDLON_clean_sbu_0, # of connection points: 4
#     Node 6, Type 0, BuildingBlock: MUDLON_clean_sbu_0, # of connection points: 4
#     Node 7, Type 0, BuildingBlock: MUDLON_clean_sbu_0, # of connection points: 4
#     Edge 8, Type (0, 0), BuildingBlock: OJICUG_clean_linker_0, # of connection points: 2
#     Edge 9, Type (0, 0), BuildingBlock: OJICUG_clean_linker_0, # of connection points: 2
#     Edge 10, Type (0, 0), BuildingBlock: OJICUG_clean_linker_0, # of connection points: 2
#     Edge 11, Type (0, 0), BuildingBlock: OJICUG_clean_linker_0, # of connection points: 2
#     Edge 12, Type (0, 0), BuildingBlock: OJICUG_clean_linker_0, # of connection points: 2
#     Edge 13, Type (0, 0), BuildingBlock: OJICUG_clean_linker_0, # of connection points: 2
#     Edge 14, Type (0, 0), BuildingBlock: OJICUG_clean_linker_0, # of connection points: 2
#     Edge 15, Type (0, 0), BuildingBlock: OJICUG_clean_linker_0, # of connection points: 2
#     Edge 16, Type (0, 0), BuildingBlock: OJICUG_clean_linker_0, # of connection points: 2
#     Edge 17, Type (0, 0), BuildingBlock: OJICUG_clean_linker_0, # of connection points: 2
#     Edge 18, Type (0, 0), BuildingBlock: OJICUG_clean_linker_0, # of connection points: 2
#     Edge 19, Type (0, 0), BuildingBlock: OJICUG_clean_linker_0, # of connection points: 2
#     Edge 20, Type (0, 0), BuildingBlock: OJICUG_clean_linker_0, # of connection points: 2
#     Edge 21, Type (0, 0), BuildingBlock: OJICUG_clean_linker_0, # of connection points: 2
#     Edge 22, Type (0, 0), BuildingBlock: OJICUG_clean_linker_0, # of connection points: 2
#     Edge 23, Type (0, 0), BuildingBlock: OJICUG_clean_linker_0, # of connection points: 2
# Relax obj value: 0.023
# Max RMSD: 0.223
# Mean RMSD: 0.222
data_MOF--net-umx--node1-MUDLON_clean_sbu_0--edge1-OJICUG_clean_linker_0
_symmetry_space_group_name_H-M    P1
_symmetry_Int_Tables_number       1
_symmetry_cell_setting            triclinic
loop_
_symmetry_equiv_pos_as_xyz
'x, y, z'
_cell_length_a     30.197644
_cell_length_b     30.238476
_cell_length_c     21.711915
_cell_angle_alpha  90.956493
_cell_angle_beta   91.277669
_cell_angle_gamma 89.918205
loop_
_atom_site_label
_atom_site_type_symbol
_atom_site_fract_x
_atom_site_fract_y
_atom_site_fract_z
_atom_type_partial_charge
Mg0 Mg 0.18086 0.44253 0.04478 0.0
C1 C 0.09664 0.48645 1.00787 0.0
O2 O 0.12601 0.50985 0.97895 0.0
C3 C 0.23943 0.36568 1.02516 0.0
O4 O 0.25943 0.39732 0.99586 0.0
C5 C 0.20392 0.45294 0.17693 0.0
O6 O 0.19448 0.41061 0.17221 0.0
O7 O 0.20299 0.47601 0.12851 0.0
O8 O 0.10964 0.45354 0.03942 0.0
O9 O 0.20713 0.47097 0.9623 0.0
C10 C 0.19835 0.45005 0.91224 0.0
O11 O 0.17697 0.4123 0.9145 0.0
O12 O 0.20288 0.37408 0.05083 0.0
Mg13 Mg 0.53359 0.18531 0.55236 0.0
C14 C 0.51207 0.23689 0.43178 0.0
O15 O 0.53395 0.26994 0.45799 0.0
C16 C 0.50845 0.23513 0.66994 0.0
O17 O 0.53437 0.26564 0.64796 0.0
C18 C 0.627 0.22298 0.52706 0.0
O19 O 0.62116 0.20761 0.47051 0.0
O20 O 0.59769 0.216 0.5668 0.0
O21 O 0.50531 0.20196 0.46212 0.0
O22 O 0.53476 0.11372 0.55078 0.0
C23 C 0.49648 0.09612 0.54787 0.0
O24 O 0.46153 0.12206 0.54634 0.0
O25 O 0.49864 0.20131 0.63666 0.0
Mg26 Mg 0.82201 0.5548 0.05593 0.0
C27 C 0.91559 0.54812 1.0058 0.0
O28 O 0.89565 0.55794 0.95342 0.0
C29 C 0.75568 0.62411 0.04294 0.0
O30 O 0.73461 0.58749 1.02728 0.0
C31 C 0.83027 0.53612 0.18591 0.0
O32 O 0.86319 0.56295 0.17467 0.0
O33 O 0.8036 0.52534 0.14208 0.0
O34 O 0.89351 0.54791 0.05489 0.0
O35 O 0.7983 0.51999 0.97309 0.0
C36 C 0.79375 0.54148 0.92341 0.0
O37 O 0.80003 0.58448 0.92497 0.0
O38 O 0.7965 0.62191 0.05803 0.0
Mg39 Mg 0.44186 0.81651 0.5281 0.0
C40 C 0.47475 0.76781 0.41018 0.0
O41 O 0.45867 0.73186 0.43429 0.0
C42 C 0.45562 0.80315 0.66037 0.0
O43 O 0.41358 0.81391 0.65461 0.0
C44 C 0.38833 0.73893 0.54663 0.0
O45 O 0.4293 0.72746 0.56047 0.0
O46 O 0.38094 0.77836 0.52964 0.0
O47 O 0.47394 0.80413 0.44059 0.0
O48 O 0.43633 0.88787 0.53375 0.0
C49 C 0.47434 0.90606 0.53718 0.0
O50 O 0.50964 0.88058 0.53707 0.0
O51 O 0.47864 0.80023 0.612 0.0
Mg52 Mg 0.1766 0.54892 0.54757 0.0
C53 C 0.2012 0.537 0.41654 0.0
O54 O 0.19883 0.58032 0.42102 0.0
C55 C 0.20574 0.53446 0.67776 0.0
O56 O 0.20469 0.57788 0.67685 0.0
C57 C 0.25371 0.60359 0.55226 0.0
O58 O 0.2671 0.56226 0.55462 0.0
O59 O 0.21231 0.61116 0.54903 0.0
O60 O 0.19414 0.51414 0.46392 0.0
O61 O 0.10491 0.54991 0.54998 0.0
C62 C 0.08881 0.5112 0.55421 0.0
O63 O 0.11617 0.47738 0.5559 0.0
O64 O 0.19706 0.51276 0.62835 0.0
Mg65 Mg 0.45087 0.18412 0.0461 0.0
C66 C 0.47184 0.23613 0.16911 0.0
O67 O 0.45183 0.26987 0.14318 0.0
C68 C 0.47533 0.23503 0.93153 0.0
O69 O 0.44784 0.26445 0.95425 0.0
C70 C 0.35689 0.2209 0.07199 0.0
O71 O 0.36336 0.20748 0.12873 0.0
O72 O 0.38605 0.21301 1.03199 0.0
O73 O 0.47759 0.2006 0.13802 0.0
O74 O 0.45143 0.11262 0.04238 0.0
C75 C 0.49008 0.09578 0.04214 0.0
O76 O 0.5245 0.12236 0.04418 0.0
O77 O 0.48629 0.2017 0.9636 0.0
Mg78 Mg 0.81259 0.43832 0.55403 0.0
C79 C 0.90001 0.47984 0.5616 0.0
O80 O 0.87232 0.51333 0.55819 0.0
C81 C 0.74935 0.36512 0.57686 0.0
O82 O 0.73371 0.39676 0.6124 0.0
C83 C 0.82456 0.45871 0.42589 0.0
O84 O 0.85547 0.42959 0.43932 0.0
O85 O 0.79762 0.47038 0.46732 0.0
O86 O 0.88431 0.44079 0.56225 0.0
O87 O 0.7904 0.47281 0.63636 0.0
C88 C 0.79946 0.45334 0.68662 0.0
O89 O 0.81886 0.41444 0.68427 0.0
O90 O 0.7842 0.37228 0.54682 0.0
Mg91 Mg 0.55002 0.81731 0.03636 0.0
C92 C 0.52725 0.76874 0.15535 0.0
O93 O 0.55147 0.73659 0.13243 0.0
C94 C 0.53519 0.79934 0.90452 0.0
O95 O 0.57816 0.80557 0.91007 0.0
C96 C 0.64406 0.77764 0.06465 0.0
O97 O 0.64598 0.80288 0.11447 0.0
O98 O 0.61076 0.78003 1.02812 0.0
O99 O 0.51972 0.80302 0.1236 0.0
O100 O 0.55429 0.88869 0.03558 0.0
C101 C 0.51593 0.90621 0.03557 0.0
O102 O 0.48117 0.8801 0.03554 0.0
O103 O 0.51211 0.80071 0.95292 0.0
C104 C 0.21284 0.52036 0.24461 0.0
C105 C 0.20927 0.47418 0.23842 0.0
H106 H 0.21331 0.57646 0.30591 0.0
C107 C 0.20717 0.44863 0.29177 0.0
H108 H 0.21472 0.54097 0.20442 0.0
C109 C 0.20628 0.46895 0.34993 0.0
C110 C 0.20749 0.51525 0.35592 0.0
H111 H 0.2047 0.41292 0.28861 0.0
H112 H 0.20319 0.44839 0.38998 0.0
C113 C 0.21195 0.5407 0.30281 0.0
C114 C 0.49472 0.27576 0.7697 0.0
C115 C 0.49833 0.23569 0.73641 0.0
H116 H 0.48403 0.30704 0.85778 0.0
C117 C 0.49574 0.1957 0.76821 0.0
H118 H 0.49696 0.30706 0.74642 0.0
C119 C 0.49014 0.19573 0.83195 0.0
C120 C 0.48576 0.23572 0.8652 0.0
H121 H 0.49908 0.16429 0.74403 0.0
H122 H 0.48813 0.16431 0.85497 0.0
C123 C 0.48768 0.27576 0.83337 0.0
C124 C 0.78506 0.489 0.33268 0.0
C125 C 0.82459 0.47978 0.36535 0.0
H126 H 0.75579 0.51309 0.24837 0.0
C127 C 0.86531 0.48929 0.3388 0.0
H128 H 0.75331 0.48162 0.35232 0.0
C129 C 0.8667 0.50803 0.28077 0.0
C130 C 0.82743 0.51645 0.24726 0.0
H131 H 0.89622 0.48257 0.36323 0.0
H132 H 0.89869 0.51522 0.26163 0.0
C133 C 0.7865 0.5066 0.27336 0.0
C134 C 0.54088 0.79237 0.78993 0.0
C135 C 0.51432 0.79549 0.8423 0.0
H136 H 0.54328 0.79203 0.69138 0.0
C137 C 0.46815 0.79789 0.83415 0.0
H138 H 0.5766 0.79022 0.79459 0.0
C139 C 0.4491 0.79906 0.7749 0.0
C140 C 0.47579 0.79766 0.72256 0.0
H141 H 0.44677 0.80026 0.87348 0.0
H142 H 0.41344 0.80208 0.77025 0.0
C143 C 0.52182 0.79334 0.73069 0.0
C144 C 0.78303 0.52062 0.7513 0.0
C145 C 0.79185 0.47508 0.747 0.0
H146 H 0.77651 0.57738 0.81069 0.0
C147 C 0.7966 0.45084 0.80146 0.0
H148 H 0.77908 0.54017 0.71018 0.0
C149 C 0.79477 0.47203 0.85902 0.0
C150 C 0.78859 0.51801 0.86332 0.0
H151 H 0.80302 0.41559 0.7997 0.0
H152 H 0.80016 0.45262 0.9 0.0
C153 C 0.78163 0.54192 0.80891 0.0
C154 C 0.51184 0.72787 0.25256 0.0
C155 C 0.51303 0.76771 0.22016 0.0
H156 H 0.49842 0.6965 0.33816 0.0
C157 C 0.50225 0.80735 0.25108 0.0
H158 H 0.5201 0.69682 0.22999 0.0
C159 C 0.49089 0.80729 0.31304 0.0
C160 C 0.4892 0.76749 0.34541 0.0
H161 H 0.50323 0.83868 0.22768 0.0
H162 H 0.48276 0.8385 0.33529 0.0
C163 C 0.49955 0.7277 0.31446 0.0
C164 C 0.21865 0.51492 0.84868 0.0
C165 C 0.20687 0.47013 0.85217 0.0
H166 H 0.22772 0.57044 0.79051 0.0
C167 C 0.19956 0.44557 0.79739 0.0
H168 H 0.22464 0.53468 0.8901 0.0
C169 C 0.20154 0.46598 0.74033 0.0
C170 C 0.21055 0.51144 0.737 0.0
H171 H 0.19082 0.41087 0.79858 0.0
H172 H 0.19409 0.44651 0.69908 0.0
C173 C 0.22032 0.53543 0.79161 0.0
C174 C 0.49716 0.27746 0.33285 0.0
C175 C 0.50052 0.23751 0.36494 0.0
H176 H 0.48493 0.30852 0.24573 0.0
C177 C 0.4949 0.19747 0.33188 0.0
H178 H 0.50147 0.30885 0.357 0.0
C179 C 0.48665 0.19725 0.26829 0.0
C180 C 0.48284 0.2371 0.23614 0.0
H181 H 0.49769 0.16606 0.35495 0.0
H182 H 0.48258 0.16571 0.24447 0.0
C183 C 0.48783 0.27727 0.26917 0.0
C184 C 0.97832 0.50652 0.05518 0.0
C185 C 0.96208 0.53281 1.00678 0.0
H186 H 0.0334 0.47021 0.09272 0.0
C187 C 0.99007 0.54261 0.95813 0.0
H188 H 0.95735 0.49803 0.09304 0.0
C189 C 0.03367 0.52708 0.95836 0.0
C190 C 0.04985 0.50065 1.00656 0.0
H191 H 0.97842 0.56261 0.92012 0.0
H192 H 0.0547 0.53566 0.92059 0.0
C193 C 0.02167 0.4902 0.05474 0.0
C194 C 0.4426 0.98286 0.53977 0.0
C195 C 0.47959 0.95471 0.54058 0.0
H196 H 0.41893 0.04957 0.54145 0.0
C197 C 0.52223 0.97346 0.54427 0.0
H198 H 0.40935 0.96948 0.53697 0.0
C199 C 0.52779 0.01931 0.54683 0.0
C200 C 0.49083 0.04749 0.54576 0.0
H201 H 0.55151 0.95272 0.54504 0.0
H202 H 0.56107 0.03262 0.54949 0.0
C203 C 0.44816 0.02877 0.54232 0.0
C204 C 0.01045 0.53903 0.55578 0.0
C205 C 0.04048 0.50357 0.55712 0.0
H206 H 0.94258 0.55933 0.55642 0.0
C207 C 0.02396 0.46023 0.56113 0.0
H208 H 0.02209 0.57277 0.55282 0.0
C209 C 0.97842 0.45246 0.56322 0.0
C210 C 0.94835 0.48787 0.56141 0.0
H211 H 0.04619 0.43211 0.56237 0.0
H212 H 0.96681 0.41868 0.56586 0.0
C213 C 0.96486 0.53126 0.55793 0.0
C214 C 0.54618 0.98352 0.03794 0.0
C215 C 0.50972 0.95476 0.0365 0.0
H216 H 0.56855 0.05063 0.04087 0.0
C217 C 0.46672 0.97276 0.03648 0.0
H218 H 0.57969 0.9707 0.03799 0.0
C219 C 0.46027 0.0185 0.03814 0.0
C220 C 0.4967 0.04729 0.03987 0.0
H221 H 0.43784 0.95153 0.03535 0.0
H222 H 0.42673 0.03124 0.03823 0.0
C223 C 0.53973 0.02933 0.03962 0.0
C224 C 0.26007 0.29999 0.08866 0.0
C225 C 0.26243 0.32313 1.03326 0.0
H226 H 0.28859 0.24915 0.14491 0.0
C227 C 0.29169 0.30849 0.98804 0.0
H228 H 0.23781 0.31084 0.12434 0.0
C229 C 0.32014 0.27311 0.99928 0.0
C230 C 0.32059 0.25209 0.0566 0.0
H231 H 0.29386 0.32559 0.94474 0.0
H232 H 0.34348 0.26396 0.9641 0.0
C233 C 0.28924 0.26486 0.10047 0.0
C234 C 0.69305 0.31172 0.61171 0.0
C235 C 0.72349 0.32409 0.56731 0.0
H236 H 0.63957 0.26953 0.63444 0.0
C237 C 0.72551 0.29956 0.51187 0.0
H238 H 0.69106 0.32977 0.6551 0.0
C239 C 0.69541 0.26513 0.49946 0.0
C240 C 0.66331 0.25438 0.54269 0.0
H241 H 0.74868 0.30847 0.47679 0.0
H242 H 0.69623 0.24812 0.4552 0.0
C243 C 0.66356 0.27707 0.59979 0.0
C244 C 0.69398 0.67123 1.00521 0.0
C245 C 0.73122 0.6663 0.04415 0.0
H246 H 0.63811 0.71054 0.98012 0.0
C247 C 0.74229 0.7003 0.08664 0.0
H248 H 0.68495 0.6457 0.97165 0.0
C249 C 0.71483 0.73755 0.0924 0.0
C250 C 0.67649 0.74156 0.0549 0.0
H251 H 0.77089 0.69715 0.11726 0.0
H252 H 0.72296 0.7625 0.12718 0.0
C253 C 0.6672 0.70856 1.01007 0.0
C254 C 0.36378 0.66191 0.56452 0.0
C255 C 0.35268 0.7056 0.54956 0.0
H256 H 0.34146 0.596 0.57723 0.0
C257 C 0.30803 0.7162 0.53707 0.0
H258 H 0.39777 0.65249 0.5746 0.0
C259 C 0.27528 0.68337 0.5389 0.0
C260 C 0.28684 0.63952 0.55281 0.0
H261 H 0.29847 0.74964 0.52556 0.0
H262 H 0.24117 0.69214 0.5285 0.0
C263 C 0.33138 0.62935 0.56597 0.0
loop_
_geom_bond_atom_site_label_1
_geom_bond_atom_site_label_2
_geom_bond_distance
_geom_bond_site_symmetry_2
_ccdc_geom_bond_type
Mg0 O7 2.141 . S
Mg0 O8 2.048 . S
Mg0 O9 2.048 1_554 S
Mg0 O12 2.141 . S
C1 O2 1.313 1_554 S
C1 O8 1.195 . S
O2 C1 1.313 1_556 S
C3 O4 1.245 . S
C3 O12 1.289 . S
O4 C3 1.245 . S
C5 O6 1.245 . S
C5 O7 1.289 . S
O6 C5 1.245 . S
O7 Mg0 2.141 . S
O7 C5 1.289 . S
O8 Mg0 2.048 . S
O8 C1 1.195 . S
O9 Mg0 2.048 1_556 S
O9 C10 1.195 . S
C10 O9 1.195 . S
C10 O11 1.313 . S
O11 C10 1.313 . S
O12 Mg0 2.141 . S
O12 C3 1.289 . S
Mg13 O20 2.141 . S
Mg13 O21 2.048 . S
Mg13 O22 2.048 . S
Mg13 O25 2.141 . S
C14 O15 1.313 . S
C14 O21 1.195 . S
O15 C14 1.313 . S
C16 O17 1.245 . S
C16 O25 1.289 . S
O17 C16 1.245 . S
C18 O19 1.245 . S
C18 O20 1.289 . S
O19 C18 1.245 . S
O20 Mg13 2.141 . S
O20 C18 1.289 . S
O21 Mg13 2.048 . S
O21 C14 1.195 . S
O22 Mg13 2.048 . S
O22 C23 1.195 . S
C23 O22 1.195 . S
C23 O24 1.313 . S
O24 C23 1.313 . S
O25 Mg13 2.141 . S
O25 C16 1.289 . S
Mg26 O33 2.141 . S
Mg26 O34 2.048 . S
Mg26 O35 2.048 1_554 S
Mg26 O38 2.141 . S
C27 O28 1.313 1_554 S
C27 O34 1.195 . S
O28 C27 1.313 1_556 S
C29 O30 1.245 . S
C29 O38 1.289 . S
O30 C29 1.245 . S
C31 O32 1.245 . S
C31 O33 1.289 . S
O32 C31 1.245 . S
O33 Mg26 2.141 . S
O33 C31 1.289 . S
O34 Mg26 2.048 . S
O34 C27 1.195 . S
O35 Mg26 2.048 1_556 S
O35 C36 1.195 . S
C36 O35 1.195 . S
C36 O37 1.313 . S
O37 C36 1.313 . S
O38 Mg26 2.141 . S
O38 C29 1.289 . S
Mg39 O46 2.141 . S
Mg39 O47 2.048 . S
Mg39 O48 2.048 . S
Mg39 O51 2.141 . S
C40 O41 1.313 . S
C40 O47 1.195 . S
O41 C40 1.313 . S
C42 O43 1.245 . S
C42 O51 1.289 . S
O43 C42 1.245 . S
C44 O45 1.245 . S
C44 O46 1.289 . S
O45 C44 1.245 . S
O46 Mg39 2.141 . S
O46 C44 1.289 . S
O47 Mg39 2.048 . S
O47 C40 1.195 . S
O48 Mg39 2.048 . S
O48 C49 1.195 . S
C49 O48 1.195 . S
C49 O50 1.313 . S
O50 C49 1.313 . S
O51 Mg39 2.141 . S
O51 C42 1.289 . S
Mg52 O59 2.141 . S
Mg52 O60 2.048 . S
Mg52 O61 2.048 . S
Mg52 O64 2.141 . S
C53 O54 1.313 . S
C53 O60 1.195 . S
O54 C53 1.313 . S
C55 O56 1.245 . S
C55 O64 1.289 . S
O56 C55 1.245 . S
C57 O58 1.245 . S
C57 O59 1.289 . S
O58 C57 1.245 . S
O59 Mg52 2.141 . S
O59 C57 1.289 . S
O60 Mg52 2.048 . S
O60 C53 1.195 . S
O61 Mg52 2.048 . S
O61 C62 1.195 . S
C62 O61 1.195 . S
C62 O63 1.313 . S
O63 C62 1.313 . S
O64 Mg52 2.141 . S
O64 C55 1.289 . S
Mg65 O72 2.141 . S
Mg65 O73 2.048 . S
Mg65 O74 2.048 . S
Mg65 O77 2.141 1_554 S
C66 O67 1.313 . S
C66 O73 1.195 . S
O67 C66 1.313 . S
C68 O69 1.245 . S
C68 O77 1.289 . S
O69 C68 1.245 . S
C70 O71 1.245 . S
C70 O72 1.289 . S
O71 C70 1.245 . S
O72 Mg65 2.141 . S
O72 C70 1.289 . S
O73 Mg65 2.048 . S
O73 C66 1.195 . S
O74 Mg65 2.048 . S
O74 C75 1.195 . S
C75 O74 1.195 . S
C75 O76 1.313 . S
O76 C75 1.313 . S
O77 Mg65 2.141 1_556 S
O77 C68 1.289 . S
Mg78 O85 2.141 . S
Mg78 O86 2.048 . S
Mg78 O87 2.048 . S
Mg78 O90 2.141 . S
C79 O80 1.313 . S
C79 O86 1.195 . S
O80 C79 1.313 . S
C81 O82 1.245 . S
C81 O90 1.289 . S
O82 C81 1.245 . S
C83 O84 1.245 . S
C83 O85 1.289 . S
O84 C83 1.245 . S
O85 Mg78 2.141 . S
O85 C83 1.289 . S
O86 Mg78 2.048 . S
O86 C79 1.195 . S
O87 Mg78 2.048 . S
O87 C88 1.195 . S
C88 O87 1.195 . S
C88 O89 1.313 . S
O89 C88 1.313 . S
O90 Mg78 2.141 . S
O90 C81 1.289 . S
Mg91 O98 2.141 . S
Mg91 O99 2.048 . S
Mg91 O100 2.048 . S
Mg91 O103 2.141 1_554 S
C92 O93 1.313 . S
C92 O99 1.195 . S
O93 C92 1.313 . S
C94 O95 1.245 . S
C94 O103 1.289 . S
O95 C94 1.245 . S
C96 O97 1.245 . S
C96 O98 1.289 . S
O97 C96 1.245 . S
O98 Mg91 2.141 . S
O98 C96 1.289 . S
O99 Mg91 2.048 . S
O99 C92 1.195 . S
O100 Mg91 2.048 . S
O100 C101 1.195 . S
C101 O100 1.195 . S
C101 O102 1.313 . S
O102 C101 1.313 . S
O103 Mg91 2.141 1_556 S
O103 C94 1.289 . S
C104 C105 1.387 . S
C104 H108 0.950 . S
C104 C113 1.390 . S
C105 C104 1.387 . S
C105 C107 1.387 . S
H106 C113 0.950 . S
C107 C105 1.387 . S
C107 C109 1.390 . S
C107 H111 0.950 . S
H108 C104 0.950 . S
C109 C107 1.390 . S
C109 C110 1.387 . S
C109 H112 0.950 . S
C110 C109 1.387 . S
C110 C113 1.387 . S
H111 C107 0.950 . S
H112 C109 0.950 . S
C113 C104 1.390 . S
C113 H106 0.950 . S
C113 C110 1.387 . S
C114 C115 1.387 . S
C114 H118 0.950 . S
C114 C123 1.390 . S
C115 C114 1.387 . S
C115 C117 1.387 . S
H116 C123 0.950 . S
C117 C115 1.387 . S
C117 C119 1.390 . S
C117 H121 0.950 . S
H118 C114 0.950 . S
C119 C117 1.390 . S
C119 C120 1.387 . S
C119 H122 0.950 . S
C120 C119 1.387 . S
C120 C123 1.387 . S
H121 C117 0.950 . S
H122 C119 0.950 . S
C123 C114 1.390 . S
C123 H116 0.950 . S
C123 C120 1.387 . S
C124 C125 1.387 . S
C124 H128 0.950 . S
C124 C133 1.390 . S
C125 C124 1.387 . S
C125 C127 1.387 . S
H126 C133 0.950 . S
C127 C125 1.387 . S
C127 C129 1.390 . S
C127 H131 0.950 . S
H128 C124 0.950 . S
C129 C127 1.390 . S
C129 C130 1.387 . S
C129 H132 0.950 . S
C130 C129 1.387 . S
C130 C133 1.387 . S
H131 C127 0.950 . S
H132 C129 0.950 . S
C133 C124 1.390 . S
C133 H126 0.950 . S
C133 C130 1.387 . S
C134 C135 1.387 . S
C134 H138 0.950 . S
C134 C143 1.390 . S
C135 C134 1.387 . S
C135 C137 1.387 . S
H136 C143 0.950 . S
C137 C135 1.387 . S
C137 C139 1.390 . S
C137 H141 0.950 . S
H138 C134 0.950 . S
C139 C137 1.390 . S
C139 C140 1.387 . S
C139 H142 0.950 . S
C140 C139 1.387 . S
C140 C143 1.387 . S
H141 C137 0.950 . S
H142 C139 0.950 . S
C143 C134 1.390 . S
C143 H136 0.950 . S
C143 C140 1.387 . S
C144 C145 1.387 . S
C144 H148 0.950 . S
C144 C153 1.390 . S
C145 C144 1.387 . S
C145 C147 1.387 . S
H146 C153 0.950 . S
C147 C145 1.387 . S
C147 C149 1.390 . S
C147 H151 0.950 . S
H148 C144 0.950 . S
C149 C147 1.390 . S
C149 C150 1.387 . S
C149 H152 0.950 . S
C150 C149 1.387 . S
C150 C153 1.387 . S
H151 C147 0.950 . S
H152 C149 0.950 . S
C153 C144 1.390 . S
C153 H146 0.950 . S
C153 C150 1.387 . S
C154 C155 1.387 . S
C154 H158 0.950 . S
C154 C163 1.390 . S
C155 C154 1.387 . S
C155 C157 1.387 . S
H156 C163 0.950 . S
C157 C155 1.387 . S
C157 C159 1.390 . S
C157 H161 0.950 . S
H158 C154 0.950 . S
C159 C157 1.390 . S
C159 C160 1.387 . S
C159 H162 0.950 . S
C160 C159 1.387 . S
C160 C163 1.387 . S
H161 C157 0.950 . S
H162 C159 0.950 . S
C163 C154 1.390 . S
C163 H156 0.950 . S
C163 C160 1.387 . S
C164 C165 1.387 . S
C164 H168 0.950 . S
C164 C173 1.390 . S
C165 C164 1.387 . S
C165 C167 1.387 . S
H166 C173 0.950 . S
C167 C165 1.387 . S
C167 C169 1.390 . S
C167 H171 0.950 . S
H168 C164 0.950 . S
C169 C167 1.390 . S
C169 C170 1.387 . S
C169 H172 0.950 . S
C170 C169 1.387 . S
C170 C173 1.387 . S
H171 C167 0.950 . S
H172 C169 0.950 . S
C173 C164 1.390 . S
C173 H166 0.950 . S
C173 C170 1.387 . S
C174 C175 1.387 . S
C174 H178 0.950 . S
C174 C183 1.390 . S
C175 C174 1.387 . S
C175 C177 1.387 . S
H176 C183 0.950 . S
C177 C175 1.387 . S
C177 C179 1.390 . S
C177 H181 0.950 . S
H178 C174 0.950 . S
C179 C177 1.390 . S
C179 C180 1.387 . S
C179 H182 0.950 . S
C180 C179 1.387 . S
C180 C183 1.387 . S
H181 C177 0.950 . S
H182 C179 0.950 . S
C183 C174 1.390 . S
C183 H176 0.950 . S
C183 C180 1.387 . S
C184 C185 1.387 . S
C184 H188 0.950 . S
C184 C193 1.390 1_655 S
C185 C184 1.387 . S
C185 C187 1.387 1_554 S
H186 C193 0.950 . S
C187 C185 1.387 1_556 S
C187 C189 1.390 1_655 S
C187 H191 0.950 . S
H188 C184 0.950 . S
C189 C187 1.390 1_455 S
C189 C190 1.387 1_556 S
C189 H192 0.950 . S
C190 C189 1.387 1_554 S
C190 C193 1.387 . S
H191 C187 0.950 . S
H192 C189 0.950 . S
C193 C184 1.390 1_455 S
C193 H186 0.950 . S
C193 C190 1.387 . S
C194 C195 1.387 . S
C194 H198 0.950 . S
C194 C203 1.390 1_565 S
C195 C194 1.387 . S
C195 C197 1.387 . S
H196 C203 0.950 . S
C197 C195 1.387 . S
C197 C199 1.390 1_565 S
C197 H201 0.950 . S
H198 C194 0.950 . S
C199 C197 1.390 1_545 S
C199 C200 1.387 . S
C199 H202 0.950 . S
C200 C199 1.387 . S
C200 C203 1.387 . S
H201 C197 0.950 . S
H202 C199 0.950 . S
C203 C194 1.390 1_545 S
C203 H196 0.950 . S
C203 C200 1.387 . S
C204 C205 1.387 . S
C204 H208 0.950 . S
C204 C213 1.390 1_455 S
C205 C204 1.387 . S
C205 C207 1.387 . S
H206 C213 0.950 . S
C207 C205 1.387 . S
C207 C209 1.390 1_455 S
C207 H211 0.950 . S
H208 C204 0.950 . S
C209 C207 1.390 1_655 S
C209 C210 1.387 . S
C209 H212 0.950 . S
C210 C209 1.387 . S
C210 C213 1.387 . S
H211 C207 0.950 . S
H212 C209 0.950 . S
C213 C204 1.390 1_655 S
C213 H206 0.950 . S
C213 C210 1.387 . S
C214 C215 1.387 . S
C214 H218 0.950 . S
C214 C223 1.390 1_565 S
C215 C214 1.387 . S
C215 C217 1.387 1_554 S
H216 C223 0.950 . S
C217 C215 1.387 1_556 S
C217 C219 1.390 1_565 S
C217 H221 0.950 . S
H218 C214 0.950 . S
C219 C217 1.390 1_545 S
C219 C220 1.387 1_556 S
C219 H222 0.950 . S
C220 C219 1.387 1_554 S
C220 C223 1.387 . S
H221 C217 0.950 . S
H222 C219 0.950 . S
C223 C214 1.390 1_545 S
C223 H216 0.950 . S
C223 C220 1.387 . S
C224 C225 1.387 . S
C224 H228 0.950 . S
C224 C233 1.390 . S
C225 C224 1.387 . S
C225 C227 1.387 1_554 S
H226 C233 0.950 . S
C227 C225 1.387 1_556 S
C227 C229 1.390 . S
C227 H231 0.950 . S
H228 C224 0.950 . S
C229 C227 1.390 . S
C229 C230 1.387 1_556 S
C229 H232 0.950 . S
C230 C229 1.387 1_554 S
C230 C233 1.387 . S
H231 C227 0.950 . S
H232 C229 0.950 . S
C233 C224 1.390 . S
C233 H226 0.950 . S
C233 C230 1.387 . S
C234 C235 1.387 . S
C234 H238 0.950 . S
C234 C243 1.390 . S
C235 C234 1.387 . S
C235 C237 1.387 . S
H236 C243 0.950 . S
C237 C235 1.387 . S
C237 C239 1.390 . S
C237 H241 0.950 . S
H238 C234 0.950 . S
C239 C237 1.390 . S
C239 C240 1.387 . S
C239 H242 0.950 . S
C240 C239 1.387 . S
C240 C243 1.387 . S
H241 C237 0.950 . S
H242 C239 0.950 . S
C243 C234 1.390 . S
C243 H236 0.950 . S
C243 C240 1.387 . S
C244 C245 1.387 1_556 S
C244 H248 0.950 . S
C244 C253 1.390 . S
C245 C244 1.387 1_554 S
C245 C247 1.387 . S
H246 C253 0.950 . S
C247 C245 1.387 . S
C247 C249 1.390 . S
C247 H251 0.950 . S
H248 C244 0.950 . S
C249 C247 1.390 . S
C249 C250 1.387 . S
C249 H252 0.950 . S
C250 C249 1.387 . S
C250 C253 1.387 1_554 S
H251 C247 0.950 . S
H252 C249 0.950 . S
C253 C244 1.390 . S
C253 H246 0.950 . S
C253 C250 1.387 1_556 S
C254 C255 1.387 . S
C254 H258 0.950 . S
C254 C263 1.390 . S
C255 C254 1.387 . S
C255 C257 1.387 . S
H256 C263 0.950 . S
C257 C255 1.387 . S
C257 C259 1.390 . S
C257 H261 0.950 . S
H258 C254 0.950 . S
C259 C257 1.390 . S
C259 C260 1.387 . S
C259 H262 0.950 . S
C260 C259 1.387 . S
C260 C263 1.387 . S
H261 C257 0.950 . S
H262 C259 0.950 . S
C263 C254 1.390 . S
C263 H256 0.950 . S
C263 C260 1.387 . S
C105 C5 1.546 . S
C110 C53 1.538 . S
C115 C16 1.491 . S
C120 C68 1.491 . S
C125 C83 1.533 . S
C130 C31 1.533 . S
C135 C94 1.490 . S
C140 C42 1.489 . S
C145 C88 1.629 . S
C150 C36 1.628 . S
C155 C92 1.586 . S
C160 C40 1.585 . S
C165 C10 1.616 . S
C170 C55 1.624 . S
C175 C14 1.583 . S
C180 C66 1.583 . S
C185 C27 1.922 . S
C190 C1 1.921 . S
C195 C49 2.055 . S
C200 C23 2.054 . S
C205 C62 1.926 . S
C210 C79 1.926 . S
C215 C101 2.054 . S
C220 C75 2.054 . S
C225 C3 1.802 . S
C230 C70 1.871 . S
C235 C81 1.799 . S
C240 C18 1.872 . S
C245 C29 1.799 . S
C250 C96 1.872 . S
C255 C44 1.872 . S
C260 C57 1.805 . S
