# Generated by pormake.
# Topology hex, (8)-cn, num edge types: 1
# Building blocks:
#     Node 0, Type 0, BuildingBlock: TAGTUT_clean_sbu_1, # of connection points: 8
#     Edge 1, Type (0, 0), BuildingBlock: UVAHIK_clean_linker_0, # of connection points: 2
#     Edge 2, Type (0, 0), BuildingBlock: UVAHIK_clean_linker_0, # of connection points: 2
#     Edge 3, Type (0, 0), BuildingBlock: UVAHIK_clean_linker_0, # of connection points: 2
#     Edge 4, Type (0, 0), BuildingBlock: UVAHIK_clean_linker_0, # of connection points: 2
# Relax obj value: 0.052
# Max RMSD: 0.156
# Mean RMSD: 0.156
data_MOF--net-hex--node1-TAGTUT_clean_sbu_1--edge1-UVAHIK_clean_linker_0
_symmetry_space_group_name_H-M    P1
_symmetry_Int_Tables_number       1
_symmetry_cell_setting            triclinic
loop_
_symmetry_equiv_pos_as_xyz
'x, y, z'
_cell_length_a     22.198792
_cell_length_b     24.149342
_cell_length_c     20.297847
_cell_angle_alpha  91.209586
_cell_angle_beta   100.0909
_cell_angle_gamma 128.20707
loop_
_atom_site_label
_atom_site_type_symbol
_atom_site_fract_x
_atom_site_fract_y
_atom_site_fract_z
_atom_type_partial_charge
C0 C 0.91334 0.16127 0.00016 0.0
C1 C 0.77326 0.95174 0.03592 0.0
C2 C 0.0473 0.00865 0.15869 0.0
Mg3 Mg 0.86493 0.02018 0.92878 0.0
O4 O 0.95954 0.05541 0.98829 0.0
Mg5 Mg 0.97319 0.08082 0.08732 0.0
Mg6 Mg -0.01085 -0.00676 -0.00589 0.0
O7 O 0.01874 0.93109 3e-05 0.0
Mg8 Mg 0.11311 0.96598 0.05979 0.0
Mg9 Mg 0.00517 0.90566 0.90109 0.0
C10 C 0.93064 0.97749 0.82968 0.0
C11 C 0.8332 0.82724 0.93658 0.0
O12 O 0.94815 0.15616 0.05437 0.0
O13 O 0.87889 0.11581 0.94524 0.0
O14 O 0.83792 -0.00275 0.08086 0.0
O15 O 0.77293 0.94227 0.97377 0.0
O16 O 0.88253 0.98866 0.83739 0.0
O17 O 0.97889 0.98337 0.88048 0.0
C18 C 0.1451 0.15926 0.05165 0.0
O19 O 0.11636 0.10025 0.01518 0.0
O20 O 0.10379 0.16374 0.08498 0.0
O21 O 0.02998 0.83018 0.93409 0.0
O22 O 0.09893 0.87025 0.04331 0.0
O23 O 0.14051 0.9892 0.90777 0.0
C24 C 0.06456 0.82489 0.98833 0.0
O25 O 0.20534 0.04388 0.01498 0.0
O26 O 0.09533 -0.00268 0.1512 0.0
C27 C 0.20512 0.03458 0.95283 0.0
O28 O -0.00043 0.00319 0.10769 0.0
O29 O 0.86193 0.88623 0.97306 0.0
O30 O 0.87452 0.82277 0.90325 0.0
C31 C 0.95207 0.27358 0.06028 0.0
C32 C 0.91774 0.22448 0.0001 0.0
C33 C 0.9647 0.33751 0.05898 0.0
C34 C 0.00069 0.46233 0.94423 0.0
H35 H 0.96523 0.54586 0.08233 0.0
C36 C 0.02554 0.71247 0.92814 0.0
C37 C 0.05993 0.76156 0.98835 0.0
C38 C 0.01269 0.64845 0.92939 0.0
C39 C 0.97637 0.52343 0.04404 0.0
H40 H 0.86543 0.20176 0.89212 0.0
H41 H 0.88736 0.31372 0.8902 0.0
H42 H 0.92461 0.42626 0.08432 0.0
H43 H 0.1121 0.7841 0.09634 0.0
H44 H 0.08981 0.67197 0.09817 0.0
H45 H 0.05248 0.55951 0.90396 0.0
C46 C 0.90546 0.30291 0.93797 0.0
C47 C 0.95279 0.4551 0.04497 0.0
C48 C 0.8926 0.23882 0.93924 0.0
C49 C 0.08489 0.74707 0.0492 0.0
C50 C 0.07181 0.68288 0.05042 0.0
C51 C 0.02428 0.53066 0.9433 0.0
C52 C 0.94323 0.35332 -0.00245 0.0
C53 C 0.96477 0.42411 -0.00494 0.0
C54 C 0.034 0.63251 0.99081 0.0
C55 C 0.01232 0.56166 0.99322 0.0
H56 H 0.9715 0.2638 0.1081 0.0
H57 H -0.00571 0.37582 0.10553 0.0
H58 H 0.01185 0.43991 0.90595 0.0
H59 H 0.00623 0.72236 0.88032 0.0
H60 H 0.98307 0.61017 0.88282 0.0
C61 C 0.6286 0.8863 -0.00223 0.0
C62 C 0.69876 0.93129 0.04911 0.0
C63 C 0.57064 0.89425 0.99055 0.0
C64 C 0.56993 0.04327 0.02424 0.0
H65 H 0.34562 0.90322 0.94324 0.0
C66 C 0.34977 0.10004 0.9911 0.0
C67 C 0.27966 0.05508 0.93971 0.0
C68 C 0.40776 0.09212 -0.00165 0.0
C69 C 0.40854 0.94316 0.96466 0.0
H70 H 0.75532 0.00935 0.14104 0.0
H71 H 0.6532 0.02142 0.12952 0.0
H72 H 0.42168 0.86333 0.98022 0.0
H73 H 0.22322 0.9771 0.84773 0.0
H74 H 0.32537 0.96508 0.85931 0.0
H75 H 0.55677 0.1231 0.00869 0.0
C76 C 0.64491 0.98269 0.09281 0.0
C77 C 0.45192 0.92015 0.98651 0.0
C78 C 0.70288 0.97473 0.10005 0.0
C79 C 0.27562 0.0117 0.88876 0.0
C80 C 0.33361 0.00376 0.89603 0.0
C81 C 0.52654 0.06628 0.00239 0.0
C82 C 0.58128 0.94649 0.03521 0.0
C83 C 0.53315 0.96989 0.0167 0.0
C84 C 0.39719 0.03994 0.95367 0.0
C85 C 0.44532 0.01653 0.97219 0.0
H86 H 0.6228 0.85126 0.95832 0.0
H87 H 0.52173 0.86456 0.94613 0.0
H88 H 0.63284 0.08321 0.04566 0.0
H89 H 0.35551 0.13503 0.03057 0.0
H90 H 0.45663 0.12178 0.04281 0.0
C91 C 0.25438 0.29177 0.08559 0.0
C92 C 0.2237 0.22619 0.04818 0.0
C93 C 0.32145 0.35637 0.07456 0.0
C94 C 0.43316 0.43488 0.94222 0.0
H95 H 0.58864 0.59554 0.08726 0.0
C96 C 0.72389 0.69474 0.90258 0.0
C97 C 0.75459 0.76031 0.94002 0.0
C98 C 0.65683 0.63012 0.9136 0.0
C99 C 0.54515 0.55158 0.04597 0.0
H100 H 0.24254 0.17761 0.97187 0.0
H101 H 0.36035 0.29013 0.95367 0.0
H102 H 0.48161 0.48159 0.11406 0.0
H103 H 0.73578 0.80885 0.01639 0.0
H104 H 0.61797 0.69632 0.03457 0.0
H105 H 0.49669 0.50487 0.87413 0.0
C106 C 0.33144 0.29159 0.99067 0.0
C107 C 0.48381 0.48601 0.06141 0.0
C108 C 0.26428 0.22686 0.00173 0.0
C109 C 0.71402 0.75962 0.98649 0.0
C110 C 0.64686 0.69488 -0.00245 0.0
C111 C 0.49449 0.50045 0.92678 0.0
C112 C 0.35988 0.35735 0.02582 0.0
C113 C 0.42693 0.4267 0.00976 0.0
C114 C 0.61842 0.62913 0.96236 0.0
C115 C 0.55137 0.55977 0.97843 0.0
H116 H 0.22485 0.29361 0.12173 0.0
H117 H 0.34112 0.40578 0.10231 0.0
H118 H 0.38967 0.39092 0.90092 0.0
H119 H 0.75342 0.69291 0.86642 0.0
H120 H 0.63716 0.58072 0.88583 0.0
C121 C 0.87559 0.9483 0.7046 0.0
C122 C 0.9351 0.96479 0.75993 0.0
C123 C 0.88609 0.94997 0.63879 0.0
C124 C 0.00765 0.95575 0.53185 0.0
H125 H 0.95436 0.05903 0.42784 0.0
C126 C 0.10189 0.03778 0.28381 0.0
C127 C 0.04252 0.02126 0.22832 0.0
C128 C 0.09108 0.03593 0.34952 0.0
C129 C 0.96896 0.02964 0.45604 0.0
H130 H 0.04993 0.99109 0.78921 0.0
H131 H 0.06846 -0.00567 0.674 0.0
H132 H 0.92658 0.03748 0.53965 0.0
H133 H 0.92759 -0.00529 0.19863 0.0
H134 H 0.90851 0.99118 0.3137 0.0
H135 H 0.05007 0.94794 0.44826 0.0
C136 C 0.0136 0.97995 0.68162 0.0
C137 C 0.9528 0.01701 0.51991 0.0
C138 C 0.00296 0.97803 0.74763 0.0
C139 C 0.97446 0.00782 0.24036 0.0
C140 C 0.96351 0.00572 0.30627 0.0
C141 C 0.02382 0.96839 0.46799 0.0
C142 C 0.95636 0.96832 0.62689 0.0
C143 C 0.97189 0.97985 0.55843 0.0
C144 C 0.02061 0.01735 0.36115 0.0
C145 C 0.00479 0.0056 0.4295 0.0
H146 H 0.82208 0.93689 0.71232 0.0
H147 H 0.84009 0.93894 0.59737 0.0
H148 H 0.02226 0.92636 0.56004 0.0
H149 H 0.15553 0.04935 0.27629 0.0
H150 H 0.13698 0.04698 0.39106 0.0
loop_
_geom_bond_atom_site_label_1
_geom_bond_atom_site_label_2
_geom_bond_distance
_geom_bond_site_symmetry_2
_ccdc_geom_bond_type
C0 O12 1.241 1_556 S
C0 O13 1.280 . S
C1 O14 1.277 . S
C1 O15 1.245 1_544 S
C2 O26 1.247 1_545 S
C2 O28 1.287 1_455 S
Mg3 O4 1.926 . S
Mg3 O13 1.984 . S
Mg3 O15 1.988 1_545 S
Mg3 O16 2.061 . S
O4 Mg3 1.926 . S
O4 Mg5 1.986 1_556 S
O4 Mg6 1.917 1_656 S
Mg5 O4 1.986 1_554 S
Mg5 O12 2.042 . S
Mg5 O14 2.041 . S
Mg5 O20 2.038 1_655 S
Mg5 O28 2.240 . S
Mg6 O4 1.917 1_454 S
Mg6 O7 1.917 1_545 S
Mg6 O17 2.103 1_544 S
Mg6 O19 2.079 . S
Mg6 O28 2.105 1_455 S
Mg6 O29 2.079 1_444 S
O7 Mg6 1.917 1_565 S
O7 Mg8 1.926 . S
O7 Mg9 1.986 1_554 S
Mg8 O7 1.926 . S
Mg8 O22 1.984 . S
Mg8 O25 1.988 1_565 S
Mg8 O26 2.061 . S
Mg9 O7 1.986 1_556 S
Mg9 O17 2.243 . S
Mg9 O21 2.042 . S
Mg9 O23 2.041 . S
Mg9 O30 2.038 1_455 S
C10 O16 1.247 1_565 S
C10 O17 1.285 1_655 S
C11 O29 1.245 . S
C11 O30 1.274 . S
O12 C0 1.241 1_554 S
O12 Mg5 2.042 . S
O13 C0 1.280 . S
O13 Mg3 1.984 . S
O14 C1 1.277 . S
O14 Mg5 2.041 . S
O15 C1 1.245 1_566 S
O15 Mg3 1.988 1_565 S
O16 Mg3 2.061 . S
O16 C10 1.247 1_545 S
O17 Mg6 2.103 1_566 S
O17 Mg9 2.243 . S
O17 C10 1.285 1_455 S
C18 O19 1.245 . S
C18 O20 1.274 . S
O19 Mg6 2.079 . S
O19 C18 1.245 . S
O20 Mg5 2.038 1_455 S
O20 C18 1.274 . S
O21 Mg9 2.042 . S
O21 C24 1.241 1_556 S
O22 Mg8 1.984 . S
O22 C24 1.280 . S
O23 Mg9 2.041 . S
O23 C27 1.277 . S
C24 O21 1.241 1_554 S
C24 O22 1.280 . S
O25 Mg8 1.988 1_545 S
O25 C27 1.245 1_544 S
O26 C2 1.247 1_565 S
O26 Mg8 2.061 . S
C27 O23 1.277 . S
C27 O25 1.245 1_566 S
O28 C2 1.287 1_655 S
O28 Mg5 2.240 . S
O28 Mg6 2.105 1_655 S
O29 Mg6 2.079 1_666 S
O29 C11 1.245 . S
O30 Mg9 2.038 1_655 S
O30 C11 1.274 . S
C31 C32 1.357 . S
C31 C33 1.327 . S
C31 H56 0.950 . S
C32 C31 1.357 . S
C32 C48 1.348 1_656 S
C33 C31 1.327 . S
C33 C52 1.429 . S
C33 H57 0.950 . S
C34 C51 1.574 . S
C34 C53 1.368 1_454 S
C34 H58 0.949 . S
H35 C39 0.949 . S
C36 C37 1.360 . S
C36 C38 1.327 . S
C36 H59 0.950 . S
C37 C36 1.360 . S
C37 C49 1.348 1_454 S
C38 C36 1.327 . S
C38 C54 1.429 . S
C38 H60 0.950 . S
C39 H35 0.949 . S
C39 C47 1.574 . S
C39 C55 1.368 1_656 S
H40 C48 0.950 . S
H41 C46 0.950 . S
H42 C47 0.949 . S
H43 C49 0.950 . S
H44 C50 0.950 . S
H45 C51 0.949 . S
C46 H41 0.950 . S
C46 C48 1.327 . S
C46 C52 1.426 1_454 S
C47 C39 1.574 . S
C47 H42 0.949 . S
C47 C53 1.368 . S
C48 C32 1.348 1_454 S
C48 H40 0.950 . S
C48 C46 1.327 . S
C49 C37 1.348 1_656 S
C49 H43 0.950 . S
C49 C50 1.327 . S
C50 H44 0.950 . S
C50 C49 1.327 . S
C50 C54 1.423 1_656 S
C51 C34 1.574 . S
C51 H45 0.949 . S
C51 C55 1.371 . S
C52 C33 1.429 . S
C52 C46 1.426 1_656 S
C52 C53 1.526 . S
C53 C34 1.368 1_656 S
C53 C47 1.368 . S
C53 C52 1.526 . S
C54 C38 1.429 . S
C54 C50 1.423 1_454 S
C54 C55 1.526 . S
C55 C39 1.368 1_454 S
C55 C51 1.371 . S
C55 C54 1.526 . S
H56 C31 0.950 . S
H57 C33 0.950 . S
H58 C34 0.949 . S
H59 C36 0.950 . S
H60 C38 0.950 . S
C61 C62 1.353 . S
C61 C63 1.327 . S
C61 H86 0.950 . S
C62 C61 1.353 . S
C62 C78 1.333 1_565 S
C63 C61 1.327 . S
C63 C82 1.435 . S
C63 H87 0.950 . S
C64 C81 1.574 . S
C64 C83 1.367 1_546 S
C64 H88 0.949 . S
H65 C69 0.949 . S
C66 C67 1.349 . S
C66 C68 1.327 . S
C66 H89 0.950 . S
C67 C66 1.349 . S
C67 C79 1.349 1_545 S
C68 C66 1.327 . S
C68 C84 1.439 . S
C68 H90 0.950 . S
C69 H65 0.949 . S
C69 C77 1.574 . S
C69 C85 1.364 1_564 S
H70 C78 0.950 1_556 S
H71 C76 0.950 . S
H72 C77 0.949 . S
H73 C79 0.950 1_554 S
H74 C80 0.950 . S
H75 C81 0.949 . S
C76 H71 0.950 . S
C76 C78 1.327 1_556 S
C76 C82 1.427 1_546 S
C77 C69 1.574 . S
C77 H72 0.949 . S
C77 C83 1.369 . S
C78 C62 1.333 1_545 S
C78 H70 0.950 1_554 S
C78 C76 1.327 1_554 S
C79 C67 1.349 1_565 S
C79 H73 0.950 1_556 S
C79 C80 1.327 1_556 S
C80 H74 0.950 . S
C80 C79 1.327 1_554 S
C80 C84 1.426 1_564 S
C81 C64 1.574 . S
C81 H75 0.949 . S
C81 C85 1.370 . S
C82 C63 1.435 . S
C82 C76 1.427 1_564 S
C82 C83 1.519 . S
C83 C64 1.367 1_564 S
C83 C77 1.369 . S
C83 C82 1.519 . S
C84 C68 1.439 . S
C84 C80 1.426 1_546 S
C84 C85 1.519 . S
C85 C69 1.364 1_546 S
C85 C81 1.370 . S
C85 C84 1.519 . S
H86 C61 0.950 . S
H87 C63 0.950 . S
H88 C64 0.949 . S
H89 C66 0.950 . S
H90 C68 0.950 . S
C91 C92 1.349 . S
C91 C93 1.327 . S
C91 H116 0.950 . S
C92 C91 1.349 . S
C92 C108 1.349 1_554 S
C93 C91 1.327 . S
C93 C112 1.429 . S
C93 H117 0.950 . S
C94 C111 1.574 . S
C94 C113 1.368 1_556 S
C94 H118 0.949 . S
H95 C99 0.949 . S
C96 C97 1.349 . S
C96 C98 1.327 . S
C96 H119 0.950 . S
C97 C96 1.349 . S
C97 C109 1.349 1_556 S
C98 C96 1.327 . S
C98 C114 1.429 . S
C98 H120 0.950 . S
C99 H95 0.949 . S
C99 C107 1.574 . S
C99 C115 1.368 1_554 S
H100 C108 0.950 . S
H101 C106 0.950 . S
H102 C107 0.949 . S
H103 C109 0.950 . S
H104 C110 0.950 . S
H105 C111 0.949 . S
C106 H101 0.950 . S
C106 C108 1.327 . S
C106 C112 1.429 1_556 S
C107 C99 1.574 . S
C107 H102 0.949 . S
C107 C113 1.368 . S
C108 C92 1.349 1_556 S
C108 H100 0.950 . S
C108 C106 1.327 . S
C109 C97 1.349 1_554 S
C109 H103 0.950 . S
C109 C110 1.327 . S
C110 H104 0.950 . S
C110 C109 1.327 . S
C110 C114 1.429 1_554 S
C111 C94 1.574 . S
C111 H105 0.949 . S
C111 C115 1.368 . S
C112 C93 1.429 . S
C112 C106 1.429 1_554 S
C112 C113 1.523 . S
C113 C94 1.368 1_554 S
C113 C107 1.368 . S
C113 C112 1.523 . S
C114 C98 1.429 . S
C114 C110 1.429 1_556 S
C114 C115 1.523 . S
C115 C99 1.368 1_556 S
C115 C111 1.368 . S
C115 C114 1.523 . S
H116 C91 0.950 . S
H117 C93 0.950 . S
H118 C94 0.949 . S
H119 C96 0.950 . S
H120 C98 0.950 . S
C121 C122 1.349 . S
C121 C123 1.327 . S
C121 H146 0.950 . S
C122 C121 1.349 . S
C122 C138 1.349 1_665 S
C123 C121 1.327 . S
C123 C142 1.429 . S
C123 H147 0.950 . S
C124 C141 1.574 . S
C124 C143 1.360 1_445 S
C124 H148 0.949 . S
H125 C129 0.949 . S
C126 C127 1.349 . S
C126 C128 1.327 . S
C126 H149 0.950 . S
C127 C126 1.349 . S
C127 C139 1.349 1_445 S
C128 C126 1.327 . S
C128 C144 1.429 . S
C128 H150 0.950 . S
C129 H125 0.949 . S
C129 C137 1.574 . S
C129 C145 1.356 1_665 S
H130 C138 0.950 . S
H131 C136 0.950 . S
H132 C137 0.949 . S
H133 C139 0.950 . S
H134 C140 0.950 . S
H135 C141 0.949 . S
C136 H131 0.950 . S
C136 C138 1.327 . S
C136 C142 1.429 1_445 S
C137 C129 1.574 . S
C137 H132 0.949 . S
C137 C143 1.375 . S
C138 C122 1.349 1_445 S
C138 H130 0.950 . S
C138 C136 1.327 . S
C139 C127 1.349 1_665 S
C139 H133 0.950 . S
C139 C140 1.327 . S
C140 H134 0.950 . S
C140 C139 1.327 . S
C140 C144 1.429 1_665 S
C141 C124 1.574 . S
C141 H135 0.949 . S
C141 C145 1.379 . S
C142 C123 1.429 . S
C142 C136 1.429 1_665 S
C142 C143 1.525 . S
C143 C124 1.360 1_665 S
C143 C137 1.375 . S
C143 C142 1.525 . S
C144 C128 1.429 . S
C144 C140 1.429 1_445 S
C144 C145 1.526 . S
C145 C129 1.356 1_445 S
C145 C141 1.379 . S
C145 C144 1.526 . S
H146 C121 0.950 . S
H147 C123 0.950 . S
H148 C124 0.949 . S
H149 C126 0.950 . S
H150 C128 0.950 . S
C32 C0 1.286 . S
C37 C24 1.285 . S
C62 C1 1.225 1_565 S
C67 C27 1.219 1_545 S
C92 C18 1.808 . S
C97 C11 1.808 . S
C122 C10 1.459 . S
C127 C2 1.459 . S
