# Generated by pormake.
# Topology unc, (4)-cn, num edge types: 1
# Building blocks:
#     Node 0, Type 0, BuildingBlock: QUQFOY_clean_sbu_1, # of connection points: 4
#     Node 1, Type 0, BuildingBlock: QUQFOY_clean_sbu_1, # of connection points: 4
#     Node 2, Type 0, BuildingBlock: QUQFOY_clean_sbu_1, # of connection points: 4
#     Node 3, Type 0, BuildingBlock: QUQFOY_clean_sbu_1, # of connection points: 4
#     Edge 4, Type (0, 0), BuildingBlock: KIFKEQ_clean_linker_1, # of connection points: 2
#     Edge 5, Type (0, 0), BuildingBlock: KIFKEQ_clean_linker_1, # of connection points: 2
#     Edge 6, Type (0, 0), BuildingBlock: KIFKEQ_clean_linker_1, # of connection points: 2
#     Edge 7, Type (0, 0), BuildingBlock: KIFKEQ_clean_linker_1, # of connection points: 2
#     Edge 8, Type (0, 0), BuildingBlock: KIFKEQ_clean_linker_1, # of connection points: 2
#     Edge 9, Type (0, 0), BuildingBlock: KIFKEQ_clean_linker_1, # of connection points: 2
#     Edge 10, Type (0, 0), BuildingBlock: KIFKEQ_clean_linker_1, # of connection points: 2
#     Edge 11, Type (0, 0), BuildingBlock: KIFKEQ_clean_linker_1, # of connection points: 2
# Relax obj value: 0.070
# Max RMSD: 0.106
# Mean RMSD: 0.106
data_MOF--net-unc--node1-QUQFOY_clean_sbu_1--edge1-KIFKEQ_clean_linker_1
_symmetry_space_group_name_H-M    P1
_symmetry_Int_Tables_number       1
_symmetry_cell_setting            triclinic
loop_
_symmetry_equiv_pos_as_xyz
'x, y, z'
_cell_length_a     31.777858
_cell_length_b     31.824245
_cell_length_c     23.377638
_cell_angle_alpha  90.178844
_cell_angle_beta   90.099143
_cell_angle_gamma 90.080804
loop_
_atom_site_label
_atom_site_type_symbol
_atom_site_fract_x
_atom_site_fract_y
_atom_site_fract_z
_atom_type_partial_charge
O0 O 0.98687 0.6257 0.92104 0.0
Cd1 Cd 0.96876 0.66659 0.98419 0.0
Cd2 Cd 0.0528 0.66583 0.00116 0.0
O3 O 0.05578 0.63327 0.92427 0.0
O4 O 0.91057 0.68107 0.96024 0.0
O5 O 0.96137 0.72836 0.96691 0.0
C6 C 0.92295 0.71929 0.95348 0.0
C7 C 0.10147 0.71818 0.02497 0.0
C8 C 0.02314 0.61706 0.90166 0.0
C9 C 0.99575 0.62556 0.09016 0.0
O10 O 0.03258 0.63179 0.07081 0.0
O11 O 0.96383 0.63982 0.06388 0.0
O12 O 0.11189 0.67911 0.02263 0.0
O13 O 0.06348 0.72809 0.01063 0.0
O14 O 0.39604 0.03259 0.31795 0.0
Cd15 Cd 0.36165 0.05578 0.25068 0.0
Cd16 Cd 0.3622 0.97135 0.22416 0.0
O17 O 0.39387 0.96439 0.30106 0.0
O18 O 0.34862 0.11347 0.27809 0.0
O19 O 0.29934 0.06592 0.26129 0.0
C20 C 0.30947 0.10299 0.27938 0.0
C21 C 0.30992 0.92395 0.19562 0.0
C22 C 0.40554 0.99525 0.33191 0.0
C23 C 0.40551 0.0325 0.14329 0.0
O24 O 0.39647 0.995 0.15713 0.0
O25 O 0.39332 0.06316 0.17403 0.0
O26 O 0.34908 0.91358 0.19686 0.0
O27 O 0.29988 0.96106 0.21352 0.0
O28 O 0.03548 0.39547 0.41039 0.0
Cd29 Cd 0.05424 0.35943 0.47882 0.0
Cd30 Cd 0.97091 0.35676 0.49341 0.0
O31 O 0.96699 0.38504 0.41447 0.0
O32 O 0.11347 0.34593 0.45903 0.0
O33 O 0.064 0.29736 0.46668 0.0
C34 C 0.1024 0.3071 0.45429 0.0
C35 C 0.92723 0.30079 0.51865 0.0
C36 C 0.99883 0.40108 0.39004 0.0
C37 C 0.02265 0.40492 0.58013 0.0
O38 O 0.98661 0.39655 0.55935 0.0
O39 O 0.05561 0.38971 0.55736 0.0
O40 O 0.91268 0.33817 0.51136 0.0
O41 O 0.96682 0.29458 0.50945 0.0
O42 O 0.63151 0.9943 0.81818 0.0
Cd43 Cd 0.66653 0.97286 0.75031 0.0
Cd44 Cd 0.66734 0.05626 0.72786 0.0
O45 O 0.63689 0.06266 0.80554 0.0
O46 O 0.67967 0.91454 0.77444 0.0
O47 O 0.72881 0.96275 0.76135 0.0
C48 C 0.71876 0.92515 0.77699 0.0
C49 C 0.72321 0.10012 0.70276 0.0
C50 C 0.62353 0.03159 0.83428 0.0
C51 C 0.62226 0.99891 0.64421 0.0
O52 O 0.63101 0.03613 0.66019 0.0
O53 O 0.63534 0.96761 0.67283 0.0
O54 O 0.68521 0.11395 0.70631 0.0
O55 O 0.73002 0.06126 0.71568 0.0
H56 H 0.05327 0.60912 0.17304 0.0
H57 H 0.92722 0.57762 0.11824 0.0
H58 H 0.05029 0.55423 0.24492 0.0
H59 H 0.92469 0.52134 0.18916 0.0
H60 H 0.92821 0.44488 0.35913 0.0
H61 H 0.92388 0.50183 0.28938 0.0
H62 H 0.05328 0.47942 0.2416 0.0
H63 H 0.05792 0.42384 0.31225 0.0
C64 C 0.02474 0.59064 0.17675 0.0
C65 C 0.99062 0.59742 0.13976 0.0
C66 C 0.02318 0.55885 0.21752 0.0
C67 C 0.98769 0.5326 0.22177 0.0
C68 C 0.95253 0.54094 0.18697 0.0
C69 C 0.95392 0.57323 0.14644 0.0
C70 C 0.95546 0.45177 0.33302 0.0
C71 C 0.99354 0.4302 0.34151 0.0
C72 C 0.95301 0.48444 0.29315 0.0
C73 C 0.98852 0.49585 0.26085 0.0
C74 C 0.02573 0.47242 0.26708 0.0
C75 C 0.02829 0.44021 0.30716 0.0
H76 H 0.45633 0.92768 0.35668 0.0
H77 H 0.41773 0.04928 0.42023 0.0
H78 H 0.51054 0.92432 0.43145 0.0
H79 H 0.47083 0.04557 0.49473 0.0
H80 H 0.60091 0.05686 0.56424 0.0
H81 H 0.54756 0.05099 0.49029 0.0
H82 H 0.52469 0.92195 0.53788 0.0
H83 H 0.57909 0.92757 0.61205 0.0
C84 C 0.45881 0.95321 0.38727 0.0
C85 C 0.43321 0.98903 0.38209 0.0
C86 C 0.48985 0.9513 0.42995 0.0
C87 C 0.49558 0.98515 0.46803 0.0
C88 C 0.46803 0.01955 0.46497 0.0
C89 C 0.43738 0.02154 0.42246 0.0
C90 C 0.58488 0.02705 0.55876 0.0
C91 C 0.5939 0.99285 0.59455 0.0
C92 C 0.55407 0.02377 0.51657 0.0
C93 C 0.53122 0.98631 0.50918 0.0
C94 C 0.5417 0.95126 0.54275 0.0
C95 C 0.57283 0.9545 0.58515 0.0
H96 H 0.96414 0.56001 0.87104 0.0
H97 H 0.08975 0.60169 0.82881 0.0
H98 H 0.96737 0.50753 0.79641 0.0
H99 H 0.09234 0.54955 0.7512 0.0
H100 H 0.09122 0.42349 0.64831 0.0
H101 H 0.09429 0.47449 0.72715 0.0
H102 H 0.96422 0.50691 0.69599 0.0
H103 H 0.96071 0.4555 0.62 0.0
C104 C 0.99237 0.55834 0.84521 0.0
C105 C 0.02646 0.58552 0.85528 0.0
C106 C 0.99416 0.5282 0.80214 0.0
C107 C 0.02979 0.52477 0.76697 0.0
C108 C 0.06447 0.55129 0.77766 0.0
C109 C 0.06289 0.58132 0.82173 0.0
C110 C 0.0633 0.44137 0.65882 0.0
C111 C 0.02556 0.43496 0.62845 0.0
C112 C 0.06514 0.4708 0.7036 0.0
C113 C 0.02936 0.49446 0.7184 0.0
C114 C 0.99208 0.48849 0.68697 0.0
C115 C 0.99011 0.45897 0.64307 0.0
H116 H 0.45493 0.10124 0.1189 0.0
H117 H 0.41947 0.97849 0.0555 0.0
H118 H 0.50965 0.10565 0.04514 0.0
H119 H 0.4731 0.98321 0.98205 0.0
H120 H 0.6039 0.97446 0.91595 0.0
H121 H 0.55016 0.97984 -0.01084 0.0
H122 H 0.52442 0.1076 0.93828 0.0
H123 H 0.57921 0.10246 0.86475 0.0
C124 C 0.4582 0.07567 0.08856 0.0
C125 C 0.43335 0.03924 0.09351 0.0
C126 C 0.48952 0.07818 0.04646 0.0
C127 C 0.49631 0.04433 0.00879 0.0
C128 C 0.46947 1.00929 0.01154 0.0
C129 C 0.43853 1.0067 0.05344 0.0
C130 C 0.5872 1.00392 0.92061 0.0
C131 C 0.59546 0.03785 0.88402 0.0
C132 C 0.55617 1.00691 0.96237 0.0
C133 C 0.53235 0.0438 0.96849 0.0
C134 C 0.54218 0.07872 0.93432 0.0
C135 C 0.57355 0.07578 0.89234 0.0
H136 H 0.22356 0.92991 0.19862 0.0
H137 H 0.32499 0.85223 0.13604 0.0
H138 H 0.17244 0.88124 0.15627 0.0
H139 H 0.27457 0.80503 0.09197 0.0
H140 H 0.17737 0.70327 0.0743 0.0
H141 H 0.22566 0.75336 0.11669 0.0
H142 H 0.14324 0.85521 0.06808 0.0
H143 H 0.09359 0.80429 0.02743 0.0
C144 C 0.23492 0.90254 0.17575 0.0
C145 C 0.2783 0.89467 0.1713 0.0
C146 C 0.20566 0.87484 0.15102 0.0
C147 C 0.21927 0.83895 0.12089 0.0
C148 C 0.26275 0.83168 0.11592 0.0
C149 C 0.29179 0.85894 0.1411 0.0
C150 C 0.16954 0.73635 0.07222 0.0
C151 C 0.13171 0.74978 0.04711 0.0
C152 C 0.19743 0.76523 0.09642 0.0
C153 C 0.18867 0.80852 0.09556 0.0
C154 C 0.15085 0.82209 0.07012 0.0
C155 C 0.12256 0.79298 0.04633 0.0
H156 H 0.22307 0.09763 0.27517 0.0
H157 H 0.32498 0.17352 0.34137 0.0
H158 H 0.17225 0.1459 0.31847 0.0
H159 H 0.27488 0.22022 0.38649 0.0
H160 H 0.17882 0.3223 0.40695 0.0
H161 H 0.22674 0.27266 0.36338 0.0
H162 H 0.14278 0.17063 0.40672 0.0
H163 H 0.09348 0.22116 0.44843 0.0
C164 C 0.23459 0.12452 0.29904 0.0
C165 C 0.27802 0.13204 0.30421 0.0
C166 C 0.20551 0.15198 0.32433 0.0
C167 C 0.21934 0.18724 0.35578 0.0
C168 C 0.26288 0.19412 0.36149 0.0
C169 C 0.29174 0.16714 0.3357 0.0
C170 C 0.17058 0.28927 0.40763 0.0
C171 C 0.13242 0.27568 0.43154 0.0
C172 C 0.19826 0.26064 0.38275 0.0
C173 C 0.18896 0.21742 0.38179 0.0
C174 C 0.15081 0.20369 0.40606 0.0
C175 C 0.12272 0.23258 0.43047 0.0
H176 H 0.72299 0.18533 0.69861 0.0
H177 H 0.79931 0.07742 0.65682 0.0
H178 H 0.77423 0.23119 0.65373 0.0
H179 H 0.85024 0.12336 0.60945 0.0
H180 H 0.94958 0.22757 0.57235 0.0
H181 H 0.90264 0.17756 0.61969 0.0
H182 H 0.79516 0.24818 0.55997 0.0
H183 H 0.84189 0.29861 0.51508 0.0
C184 C 0.75085 0.17141 0.67983 0.0
C185 C 0.75699 0.12776 0.68093 0.0
C186 C 0.7801 0.19768 0.65352 0.0
C187 C 0.81601 0.18098 0.6267 0.0
C188 C 0.82302 0.13736 0.62973 0.0
C189 C 0.79385 0.11101 0.65683 0.0
C190 C 0.91589 0.23201 0.56894 0.0
C191 C 0.8994 0.26721 0.54051 0.0
C192 C 0.88896 0.20336 0.59602 0.0
C193 C 0.84505 0.20923 0.5947 0.0
C194 C 0.82878 0.24332 0.56355 0.0
C195 C 0.85558 0.27208 0.53726 0.0
H196 H 0.80516 0.93146 0.77573 0.0
H197 H 0.70317 0.85246 0.83338 0.0
H198 H 0.85588 0.88252 0.81773 0.0
H199 H 0.75308 0.80507 0.87723 0.0
H200 H 0.84913 0.70409 0.89889 0.0
H201 H 0.80237 0.75392 0.85359 0.0
H202 H 0.88398 0.85597 0.90571 0.0
H203 H 0.93223 0.80523 0.94908 0.0
C204 C 0.79361 0.90372 0.79738 0.0
C205 C 0.75019 0.89559 0.80063 0.0
C206 C 0.82262 0.87585 0.82191 0.0
C207 C 0.80871 0.83956 0.85065 0.0
C208 C 0.76518 0.83199 0.85428 0.0
C209 C 0.73641 0.85938 0.82926 0.0
C210 C 0.85713 0.73716 0.90099 0.0
C211 C 0.89422 0.75073 0.92808 0.0
C212 C 0.83012 0.76589 0.87513 0.0
C213 C 0.83898 0.8092 0.87643 0.0
C214 C 0.8763 0.82286 0.90334 0.0
C215 C 0.90378 0.79386 0.92866 0.0
loop_
_geom_bond_atom_site_label_1
_geom_bond_atom_site_label_2
_geom_bond_distance
_geom_bond_site_symmetry_2
_ccdc_geom_bond_type
O0 Cd1 2.223 1_556 S
O0 C8 1.315 . S
Cd1 O0 2.223 1_554 S
Cd1 O4 2.297 1_554 S
Cd1 O5 2.439 1_554 S
Cd1 O11 2.240 . S
Cd2 O3 2.240 . S
Cd2 O10 2.223 1_556 S
Cd2 O12 2.297 1_556 S
Cd2 O13 2.439 1_556 S
O3 Cd2 2.240 . S
O3 C8 1.279 1_455 S
O4 Cd1 2.297 1_556 S
O4 C6 1.247 . S
O5 Cd1 2.439 1_556 S
O5 C6 1.208 . S
C6 O4 1.247 . S
C6 O5 1.208 . S
C7 O12 1.247 . S
C7 O13 1.208 . S
C8 O0 1.315 . S
C8 O3 1.279 1_655 S
C9 O10 1.315 . S
C9 O11 1.279 1_455 S
O10 Cd2 2.223 1_554 S
O10 C9 1.315 . S
O11 Cd1 2.240 . S
O11 C9 1.279 1_655 S
O12 Cd2 2.297 1_554 S
O12 C7 1.247 . S
O13 Cd2 2.439 1_554 S
O13 C7 1.208 . S
O14 Cd15 2.223 . S
O14 C22 1.315 . S
Cd15 O14 2.223 . S
Cd15 O18 2.297 . S
Cd15 O19 2.439 . S
Cd15 O25 2.240 . S
Cd16 O17 2.240 . S
Cd16 O24 2.223 . S
Cd16 O26 2.297 . S
Cd16 O27 2.439 . S
O17 Cd16 2.240 . S
O17 C22 1.279 1_565 S
O18 Cd15 2.297 . S
O18 C20 1.247 . S
O19 Cd15 2.439 . S
O19 C20 1.208 . S
C20 O18 1.247 . S
C20 O19 1.208 . S
C21 O26 1.247 . S
C21 O27 1.208 . S
C22 O14 1.315 . S
C22 O17 1.279 1_545 S
C23 O24 1.315 . S
C23 O25 1.279 1_565 S
O24 Cd16 2.223 . S
O24 C23 1.315 . S
O25 Cd15 2.240 . S
O25 C23 1.279 1_545 S
O26 Cd16 2.297 . S
O26 C21 1.247 . S
O27 Cd16 2.439 . S
O27 C21 1.208 . S
O28 Cd29 2.223 . S
O28 C36 1.315 . S
Cd29 O28 2.223 . S
Cd29 O32 2.297 . S
Cd29 O33 2.439 . S
Cd29 O39 2.240 . S
Cd30 O31 2.240 . S
Cd30 O38 2.223 . S
Cd30 O40 2.297 . S
Cd30 O41 2.439 . S
O31 Cd30 2.240 . S
O31 C36 1.279 1_655 S
O32 Cd29 2.297 . S
O32 C34 1.247 . S
O33 Cd29 2.439 . S
O33 C34 1.208 . S
C34 O32 1.247 . S
C34 O33 1.208 . S
C35 O40 1.247 . S
C35 O41 1.208 . S
C36 O28 1.315 . S
C36 O31 1.279 1_455 S
C37 O38 1.315 . S
C37 O39 1.279 1_655 S
O38 Cd30 2.223 . S
O38 C37 1.315 . S
O39 Cd29 2.240 . S
O39 C37 1.279 1_455 S
O40 Cd30 2.297 . S
O40 C35 1.247 . S
O41 Cd30 2.439 . S
O41 C35 1.208 . S
O42 Cd43 2.223 . S
O42 C50 1.315 . S
Cd43 O42 2.223 . S
Cd43 O46 2.297 . S
Cd43 O47 2.439 . S
Cd43 O53 2.240 . S
Cd44 O45 2.240 . S
Cd44 O52 2.223 . S
Cd44 O54 2.297 . S
Cd44 O55 2.439 . S
O45 Cd44 2.240 . S
O45 C50 1.279 1_545 S
O46 Cd43 2.297 . S
O46 C48 1.247 . S
O47 Cd43 2.439 . S
O47 C48 1.208 . S
C48 O46 1.247 . S
C48 O47 1.208 . S
C49 O54 1.247 . S
C49 O55 1.208 . S
C50 O42 1.315 . S
C50 O45 1.279 1_565 S
C51 O52 1.315 . S
C51 O53 1.279 1_545 S
O52 Cd44 2.223 . S
O52 C51 1.315 . S
O53 Cd43 2.240 . S
O53 C51 1.279 1_565 S
O54 Cd44 2.297 . S
O54 C49 1.247 . S
O55 Cd44 2.439 . S
O55 C49 1.208 . S
H56 C64 0.950 . S
H57 C69 0.950 . S
H58 C66 0.950 . S
H59 C68 0.950 . S
H60 C70 0.950 . S
H61 C72 0.950 . S
H62 C74 0.950 . S
H63 C75 0.950 . S
C64 H56 0.950 . S
C64 C65 1.386 . S
C64 C66 1.391 . S
C65 C64 1.386 . S
C65 C69 1.393 1_455 S
C66 H58 0.950 . S
C66 C64 1.391 . S
C66 C67 1.400 . S
C67 C66 1.400 . S
C67 C68 1.398 1_455 S
C67 C73 1.491 . S
C68 H59 0.950 . S
C68 C67 1.398 1_655 S
C68 C69 1.391 . S
C69 H57 0.950 . S
C69 C65 1.393 1_655 S
C69 C68 1.391 . S
C70 H60 0.950 . S
C70 C71 1.386 1_655 S
C70 C72 1.391 . S
C71 C70 1.386 1_455 S
C71 C75 1.393 . S
C72 H61 0.950 . S
C72 C70 1.391 . S
C72 C73 1.400 1_655 S
C73 C67 1.491 . S
C73 C72 1.400 1_455 S
C73 C74 1.398 . S
C74 H62 0.950 . S
C74 C73 1.398 . S
C74 C75 1.391 . S
C75 H63 0.950 . S
C75 C71 1.393 . S
C75 C74 1.391 . S
H76 C84 0.950 . S
H77 C89 0.950 . S
H78 C86 0.950 . S
H79 C88 0.950 . S
H80 C90 0.950 . S
H81 C92 0.950 . S
H82 C94 0.950 . S
H83 C95 0.950 . S
C84 H76 0.950 . S
C84 C85 1.386 1_565 S
C84 C86 1.391 . S
C85 C84 1.386 1_545 S
C85 C89 1.393 . S
C86 H78 0.950 . S
C86 C84 1.391 . S
C86 C87 1.400 1_565 S
C87 C86 1.400 1_545 S
C87 C88 1.398 . S
C87 C93 1.491 . S
C88 H79 0.950 . S
C88 C87 1.398 . S
C88 C89 1.391 . S
C89 H77 0.950 . S
C89 C85 1.393 . S
C89 C88 1.391 . S
C90 H80 0.950 . S
C90 C91 1.386 . S
C90 C92 1.391 . S
C91 C90 1.386 . S
C91 C95 1.393 1_545 S
C92 H81 0.950 . S
C92 C90 1.391 . S
C92 C93 1.400 . S
C93 C87 1.491 . S
C93 C92 1.400 . S
C93 C94 1.398 1_545 S
C94 H82 0.950 . S
C94 C93 1.398 1_565 S
C94 C95 1.391 . S
C95 H83 0.950 . S
C95 C91 1.393 1_565 S
C95 C94 1.391 . S
H96 C104 0.950 . S
H97 C109 0.950 . S
H98 C106 0.950 . S
H99 C108 0.950 . S
H100 C110 0.950 . S
H101 C112 0.950 . S
H102 C114 0.950 . S
H103 C115 0.950 . S
C104 H96 0.950 . S
C104 C105 1.386 . S
C104 C106 1.391 . S
C105 C104 1.386 . S
C105 C109 1.393 1_655 S
C106 H98 0.950 . S
C106 C104 1.391 . S
C106 C107 1.400 . S
C107 C106 1.400 . S
C107 C108 1.398 1_655 S
C107 C113 1.491 . S
C108 H99 0.950 . S
C108 C107 1.398 1_455 S
C108 C109 1.391 . S
C109 H97 0.950 . S
C109 C105 1.393 1_455 S
C109 C108 1.391 . S
C110 H100 0.950 . S
C110 C111 1.386 1_455 S
C110 C112 1.391 . S
C111 C110 1.386 1_655 S
C111 C115 1.393 . S
C112 H101 0.950 . S
C112 C110 1.391 . S
C112 C113 1.400 1_455 S
C113 C107 1.491 . S
C113 C112 1.400 1_655 S
C113 C114 1.398 . S
C114 H102 0.950 . S
C114 C113 1.398 . S
C114 C115 1.391 . S
C115 H103 0.950 . S
C115 C111 1.393 . S
C115 C114 1.391 . S
H116 C124 0.950 1_545 S
H117 C129 0.950 . S
H118 C126 0.950 1_545 S
H119 C128 0.950 1_556 S
H120 C130 0.950 . S
H121 C132 0.950 . S
H122 C134 0.950 1_554 S
H123 C135 0.950 . S
C124 H116 0.950 1_565 S
C124 C125 1.386 . S
C124 C126 1.391 . S
C125 C124 1.386 . S
C125 C129 1.393 . S
C126 H118 0.950 1_565 S
C126 C124 1.391 . S
C126 C127 1.400 . S
C127 C126 1.400 . S
C127 C128 1.398 . S
C127 C133 1.491 1_554 S
C128 H119 0.950 1_554 S
C128 C127 1.398 . S
C128 C129 1.391 . S
C129 H117 0.950 . S
C129 C125 1.393 . S
C129 C128 1.391 . S
C130 H120 0.950 . S
C130 C131 1.386 . S
C130 C132 1.391 . S
C131 C130 1.386 . S
C131 C135 1.393 1_565 S
C132 H121 0.950 . S
C132 C130 1.391 . S
C132 C133 1.400 . S
C133 C127 1.491 1_556 S
C133 C132 1.400 . S
C133 C134 1.398 1_565 S
C134 H122 0.950 1_556 S
C134 C133 1.398 1_545 S
C134 C135 1.391 . S
C135 H123 0.950 . S
C135 C131 1.393 1_545 S
C135 C134 1.391 . S
H136 C144 0.950 . S
H137 C149 0.950 . S
H138 C146 0.950 . S
H139 C148 0.950 . S
H140 C150 0.950 . S
H141 C152 0.950 . S
H142 C154 0.950 . S
H143 C155 0.950 . S
C144 H136 0.950 . S
C144 C145 1.386 . S
C144 C146 1.391 . S
C145 C144 1.386 . S
C145 C149 1.393 . S
C146 H138 0.950 . S
C146 C144 1.391 . S
C146 C147 1.400 . S
C147 C146 1.400 . S
C147 C148 1.398 . S
C147 C153 1.491 . S
C148 H139 0.950 . S
C148 C147 1.398 . S
C148 C149 1.391 . S
C149 H137 0.950 . S
C149 C145 1.393 . S
C149 C148 1.391 . S
C150 H140 0.950 . S
C150 C151 1.386 . S
C150 C152 1.391 . S
C151 C150 1.386 . S
C151 C155 1.393 . S
C152 H141 0.950 . S
C152 C150 1.391 . S
C152 C153 1.400 . S
C153 C147 1.491 . S
C153 C152 1.400 . S
C153 C154 1.398 . S
C154 H142 0.950 . S
C154 C153 1.398 . S
C154 C155 1.391 . S
C155 H143 0.950 . S
C155 C151 1.393 . S
C155 C154 1.391 . S
H156 C164 0.950 . S
H157 C169 0.950 . S
H158 C166 0.950 . S
H159 C168 0.950 . S
H160 C170 0.950 . S
H161 C172 0.950 . S
H162 C174 0.950 . S
H163 C175 0.950 . S
C164 H156 0.950 . S
C164 C165 1.386 . S
C164 C166 1.391 . S
C165 C164 1.386 . S
C165 C169 1.393 . S
C166 H158 0.950 . S
C166 C164 1.391 . S
C166 C167 1.400 . S
C167 C166 1.400 . S
C167 C168 1.398 . S
C167 C173 1.491 . S
C168 H159 0.950 . S
C168 C167 1.398 . S
C168 C169 1.391 . S
C169 H157 0.950 . S
C169 C165 1.393 . S
C169 C168 1.391 . S
C170 H160 0.950 . S
C170 C171 1.386 . S
C170 C172 1.391 . S
C171 C170 1.386 . S
C171 C175 1.393 . S
C172 H161 0.950 . S
C172 C170 1.391 . S
C172 C173 1.400 . S
C173 C167 1.491 . S
C173 C172 1.400 . S
C173 C174 1.398 . S
C174 H162 0.950 . S
C174 C173 1.398 . S
C174 C175 1.391 . S
C175 H163 0.950 . S
C175 C171 1.393 . S
C175 C174 1.391 . S
H176 C184 0.950 . S
H177 C189 0.950 . S
H178 C186 0.950 . S
H179 C188 0.950 . S
H180 C190 0.950 . S
H181 C192 0.950 . S
H182 C194 0.950 . S
H183 C195 0.950 . S
C184 H176 0.950 . S
C184 C185 1.386 . S
C184 C186 1.391 . S
C185 C184 1.386 . S
C185 C189 1.393 . S
C186 H178 0.950 . S
C186 C184 1.391 . S
C186 C187 1.400 . S
C187 C186 1.400 . S
C187 C188 1.398 . S
C187 C193 1.491 . S
C188 H179 0.950 . S
C188 C187 1.398 . S
C188 C189 1.391 . S
C189 H177 0.950 . S
C189 C185 1.393 . S
C189 C188 1.391 . S
C190 H180 0.950 . S
C190 C191 1.386 . S
C190 C192 1.391 . S
C191 C190 1.386 . S
C191 C195 1.393 . S
C192 H181 0.950 . S
C192 C190 1.391 . S
C192 C193 1.400 . S
C193 C187 1.491 . S
C193 C192 1.400 . S
C193 C194 1.398 . S
C194 H182 0.950 . S
C194 C193 1.398 . S
C194 C195 1.391 . S
C195 H183 0.950 . S
C195 C191 1.393 . S
C195 C194 1.391 . S
H196 C204 0.950 . S
H197 C209 0.950 . S
H198 C206 0.950 . S
H199 C208 0.950 . S
H200 C210 0.950 . S
H201 C212 0.950 . S
H202 C214 0.950 . S
H203 C215 0.950 . S
C204 H196 0.950 . S
C204 C205 1.386 . S
C204 C206 1.391 . S
C205 C204 1.386 . S
C205 C209 1.393 . S
C206 H198 0.950 . S
C206 C204 1.391 . S
C206 C207 1.400 . S
C207 C206 1.400 . S
C207 C208 1.398 . S
C207 C213 1.491 . S
C208 H199 0.950 . S
C208 C207 1.398 . S
C208 C209 1.391 . S
C209 H197 0.950 . S
C209 C205 1.393 . S
C209 C208 1.391 . S
C210 H200 0.950 . S
C210 C211 1.386 . S
C210 C212 1.391 . S
C211 C210 1.386 . S
C211 C215 1.393 . S
C212 H201 0.950 . S
C212 C210 1.391 . S
C212 C213 1.400 . S
C213 C207 1.491 . S
C213 C212 1.400 . S
C213 C214 1.398 . S
C214 H202 0.950 . S
C214 C213 1.398 . S
C214 C215 1.391 . S
C215 H203 0.950 . S
C215 C211 1.393 . S
C215 C214 1.391 . S
C65 C9 1.649 . S
C71 C36 1.633 . S
C85 C22 1.637 . S
C91 C51 1.650 . S
C105 C8 1.635 . S
C111 C37 1.646 . S
C125 C23 1.635 . S
C131 C50 1.649 . S
C145 C21 1.471 . S
C151 C7 1.459 . S
C165 C20 1.470 . S
C171 C34 1.454 . S
C185 C49 1.453 . S
C191 C35 1.457 . S
C205 C48 1.470 . S
C211 C6 1.471 . S
