# Generated by pormake.
# Topology mok, (4)-cn, num edge types: 1
# Building blocks:
#     Node 0, Type 0, BuildingBlock: NAHDIM_clean_sbu_0, # of connection points: 4
#     Node 1, Type 0, BuildingBlock: NAHDIM_clean_sbu_0, # of connection points: 4
#     Node 2, Type 0, BuildingBlock: NAHDIM_clean_sbu_0, # of connection points: 4
#     Node 3, Type 0, BuildingBlock: NAHDIM_clean_sbu_0, # of connection points: 4
#     Node 4, Type 0, BuildingBlock: NAHDIM_clean_sbu_0, # of connection points: 4
#     Node 5, Type 0, BuildingBlock: NAHDIM_clean_sbu_0, # of connection points: 4
#     Node 6, Type 0, BuildingBlock: NAHDIM_clean_sbu_0, # of connection points: 4
#     Node 7, Type 0, BuildingBlock: NAHDIM_clean_sbu_0, # of connection points: 4
#     Edge 8, Type (0, 0), BuildingBlock: OJICUG_clean_linker_0, # of connection points: 2
#     Edge 9, Type (0, 0), BuildingBlock: OJICUG_clean_linker_0, # of connection points: 2
#     Edge 10, Type (0, 0), BuildingBlock: OJICUG_clean_linker_0, # of connection points: 2
#     Edge 11, Type (0, 0), BuildingBlock: OJICUG_clean_linker_0, # of connection points: 2
#     Edge 12, Type (0, 0), BuildingBlock: OJICUG_clean_linker_0, # of connection points: 2
#     Edge 13, Type (0, 0), BuildingBlock: OJICUG_clean_linker_0, # of connection points: 2
#     Edge 14, Type (0, 0), BuildingBlock: OJICUG_clean_linker_0, # of connection points: 2
#     Edge 15, Type (0, 0), BuildingBlock: OJICUG_clean_linker_0, # of connection points: 2
#     Edge 16, Type (0, 0), BuildingBlock: OJICUG_clean_linker_0, # of connection points: 2
#     Edge 17, Type (0, 0), BuildingBlock: OJICUG_clean_linker_0, # of connection points: 2
#     Edge 18, Type (0, 0), BuildingBlock: OJICUG_clean_linker_0, # of connection points: 2
#     Edge 19, Type (0, 0), BuildingBlock: OJICUG_clean_linker_0, # of connection points: 2
#     Edge 20, Type (0, 0), BuildingBlock: OJICUG_clean_linker_0, # of connection points: 2
#     Edge 21, Type (0, 0), BuildingBlock: OJICUG_clean_linker_0, # of connection points: 2
#     Edge 22, Type (0, 0), BuildingBlock: OJICUG_clean_linker_0, # of connection points: 2
#     Edge 23, Type (0, 0), BuildingBlock: OJICUG_clean_linker_0, # of connection points: 2
# Relax obj value: 0.049
# Max RMSD: 0.061
# Mean RMSD: 0.061
data_MOF--net-mok--node1-NAHDIM_clean_sbu_0--edge1-OJICUG_clean_linker_0
_symmetry_space_group_name_H-M    P1
_symmetry_Int_Tables_number       1
_symmetry_cell_setting            triclinic
loop_
_symmetry_equiv_pos_as_xyz
'x, y, z'
_cell_length_a     35.887819
_cell_length_b     15.094128
_cell_length_c     18.033711
_cell_angle_alpha  90.003695
_cell_angle_beta   89.667643
_cell_angle_gamma 89.994709
loop_
_atom_site_label
_atom_site_type_symbol
_atom_site_fract_x
_atom_site_fract_y
_atom_site_fract_z
_atom_type_partial_charge
C0 C 0.57619 0.12152 0.94732 0.0
O1 O 0.58518 0.15325 0.8818 0.0
O2 O 0.61539 0.32388 0.89773 0.0
Zn3 Zn 0.62228 0.26663 0.99738 0.0
O4 O 0.60826 0.35168 0.07886 0.0
C5 C 0.69713 0.22629 0.94969 0.0
O6 O 0.68084 0.22449 0.88466 0.0
O7 O 0.58973 0.15751 0.005 0.0
C8 C 0.62132 0.42993 0.07851 0.0
O9 O 0.64296 0.45468 0.02325 0.0
C10 C 0.58929 0.37556 0.87833 0.0
O11 O 0.56329 0.39746 0.92653 0.0
O12 O 0.67729 0.2387 0.00748 0.0
C13 C 0.4705 0.83282 0.97052 0.0
O14 O 0.45747 0.79591 0.91 0.0
O15 O 0.44574 0.61279 0.94906 0.0
Zn16 Zn 0.43031 0.68889 0.03544 0.0
O17 O 0.438 0.62198 0.13064 0.0
C18 C 0.35837 0.71398 0.96506 0.0
O19 O 0.37805 0.70368 0.90403 0.0
O20 O 0.46153 0.80019 0.03317 0.0
C21 C 0.42338 0.65238 0.18975 0.0
O22 O 0.40562 0.72845 0.18714 0.0
C23 C 0.42977 0.53908 0.93758 0.0
O24 O 0.40463 0.51106 0.98538 0.0
O25 O 0.37497 0.71431 0.0272 0.0
C26 C 0.56012 0.83287 0.55707 0.0
O27 O 0.57317 0.79599 0.6176 0.0
O28 O 0.58487 0.61283 0.57857 0.0
Zn29 Zn 0.6003 0.68889 0.49217 0.0
O30 O 0.59262 0.62196 0.39697 0.0
C31 C 0.67227 0.71387 0.56249 0.0
O32 O 0.65262 0.70345 0.62355 0.0
O33 O 0.56908 0.80019 0.49443 0.0
C34 C 0.60728 0.6523 0.33789 0.0
O35 O 0.62507 0.72832 0.34054 0.0
C36 C 0.6008 0.53906 0.59002 0.0
O37 O 0.6259 0.51094 0.54218 0.0
O38 O 0.65564 0.71431 0.50039 0.0
C39 C 0.45441 0.12157 0.58026 0.0
O40 O 0.4454 0.1533 0.64578 0.0
O41 O 0.41517 0.32393 0.62984 0.0
Zn42 Zn 0.40831 0.26668 0.53017 0.0
O43 O 0.42234 0.35173 0.44871 0.0
C44 C 0.33345 0.22635 0.57779 0.0
O45 O 0.34972 0.22458 0.64284 0.0
O46 O 0.44087 0.15756 0.52257 0.0
C47 C 0.40933 0.43003 0.44912 0.0
O48 O 0.38774 0.45486 0.50443 0.0
C49 C 0.4413 0.37549 0.64928 0.0
O50 O 0.46734 0.39725 0.60114 0.0
O51 O 0.35331 0.23874 0.52002 0.0
C52 C 0.07616 0.6215 0.94707 0.0
O53 O 0.08513 0.65325 0.88154 0.0
O54 O 0.11538 0.82381 0.89743 0.0
Zn55 Zn 0.12227 0.7666 0.99709 0.0
O56 O 0.10824 0.85166 0.07855 0.0
C57 C 0.19716 0.72643 0.94946 0.0
O58 O 0.1809 0.72475 0.88439 0.0
O59 O 0.08973 0.65747 0.00473 0.0
C60 C 0.12129 0.92992 0.07818 0.0
O61 O 0.14292 0.9547 0.02292 0.0
C62 C 0.08928 0.87546 0.87802 0.0
O63 O 0.06327 0.89735 0.92621 0.0
O64 O 0.17729 0.7387 0.00723 0.0
C65 C 0.97047 0.33282 0.9704 0.0
O66 O 0.9574 0.29594 0.90989 0.0
O67 O 0.94576 0.11277 0.94893 0.0
Zn68 Zn 0.93033 0.18885 0.03533 0.0
O69 O 0.93802 0.12194 0.13052 0.0
C70 C 0.85835 0.21379 0.96501 0.0
O71 O 0.878 0.20334 0.90396 0.0
O72 O 0.96153 0.30016 0.03305 0.0
C73 C 0.92338 0.15232 0.18962 0.0
O74 O 0.90561 0.22837 0.18699 0.0
C75 C 0.92984 0.039 0.93749 0.0
O76 O 0.90475 0.01086 0.98533 0.0
O77 O 0.87498 0.21425 0.02711 0.0
C78 C 0.06011 0.33275 0.55682 0.0
O79 O 0.07315 0.29585 0.61733 0.0
O80 O 0.08485 0.11271 0.57826 0.0
Zn81 Zn 0.10028 0.1888 0.49188 0.0
O82 O 0.0926 0.1219 0.39667 0.0
C83 C 0.17224 0.21378 0.56226 0.0
O84 O 0.15257 0.20338 0.62329 0.0
O85 O 0.06907 0.30011 0.49416 0.0
C86 C 0.10725 0.15227 0.33758 0.0
O87 O 0.12503 0.2283 0.34023 0.0
C88 C 0.10078 0.03895 0.5897 0.0
O89 O 0.12589 0.01084 0.54187 0.0
O90 O 0.15563 0.21421 0.50014 0.0
C91 C 0.95442 0.6215 0.5801 0.0
O92 O 0.94543 0.65322 0.64563 0.0
O93 O 0.91524 0.82387 0.62974 0.0
Zn94 Zn 0.90834 0.76665 0.53007 0.0
O95 O 0.92236 0.85169 0.44861 0.0
C96 C 0.83349 0.72636 0.57779 0.0
O97 O 0.84978 0.72456 0.64281 0.0
O98 O 0.94088 0.6575 0.52243 0.0
C99 C 0.90934 0.92998 0.449 0.0
O100 O 0.88773 0.9548 0.50429 0.0
C101 C 0.94134 0.87552 0.64914 0.0
O102 O 0.96735 0.8974 0.60095 0.0
O103 O 0.85333 0.73876 0.51999 0.0
C104 C 0.79551 0.2263 0.02666 0.0
C105 C 0.81711 0.21827 0.96164 0.0
H106 H 0.74071 0.23455 0.07413 0.0
C107 C 0.79884 0.21143 0.89315 0.0
H108 H 0.80868 0.23132 0.08039 0.0
C109 C 0.75996 0.21271 0.88963 0.0
C110 C 0.73832 0.22102 0.95449 0.0
H111 H 0.81456 0.20472 0.842 0.0
H112 H 0.74691 0.20768 0.83579 0.0
C113 C 0.75653 0.22773 0.02311 0.0
C114 C 0.26002 0.71304 0.8895 0.0
C115 C 0.23835 0.72119 0.95433 0.0
H116 H 0.31464 0.7052 0.84195 0.0
C117 C 0.25652 0.72775 0.023 0.0
H118 H 0.247 0.70813 0.83562 0.0
C119 C 0.2955 0.72633 0.02661 0.0
C120 C 0.31713 0.71846 0.96163 0.0
H121 H 0.24068 0.73444 0.07399 0.0
H122 H 0.30864 0.73123 0.08037 0.0
C123 C 0.2989 0.71177 0.89309 0.0
C124 C 0.77066 0.71282 0.63786 0.0
C125 C 0.7923 0.72111 0.57299 0.0
H126 H 0.71607 0.70485 0.6855 0.0
C127 C 0.77408 0.7278 0.50437 0.0
H128 H 0.78371 0.7078 0.6917 0.0
C129 C 0.73511 0.72638 0.50083 0.0
C130 C 0.71351 0.71836 0.56585 0.0
H131 H 0.7899 0.73461 0.45336 0.0
H132 H 0.72193 0.73138 0.44711 0.0
C133 C 0.73178 0.71154 0.63434 0.0
C134 C 0.23172 0.21148 0.63419 0.0
C135 C 0.21348 0.21828 0.56568 0.0
H136 H 0.28363 0.20778 0.69162 0.0
C137 C 0.2351 0.22629 0.50069 0.0
H138 H 0.21599 0.2048 0.68533 0.0
C139 C 0.27407 0.22774 0.50428 0.0
C140 C 0.29226 0.22107 0.57293 0.0
H141 H 0.22194 0.23128 0.44694 0.0
H142 H 0.28991 0.23454 0.45329 0.0
C143 C 0.2706 0.21278 0.63777 0.0
C144 C 0.63063 0.57492 0.14333 0.0
C145 C 0.61472 0.48988 0.14225 0.0
H146 H 0.64053 0.69309 0.20561 0.0
C147 C 0.59401 0.46122 0.2042 0.0
H148 H 0.64657 0.59927 0.09641 0.0
C149 C 0.59054 0.51509 0.26695 0.0
C150 C 0.60767 0.59881 0.26905 0.0
H151 H 0.58121 0.39623 0.20504 0.0
H152 H 0.5752 0.49015 0.31445 0.0
C153 C 0.62712 0.62881 0.206 0.0
C154 C 0.4036 0.62896 0.32169 0.0
C155 C 0.42299 0.59889 0.25859 0.0
H156 H 0.38419 0.59949 0.43132 0.0
C157 C 0.44007 0.51511 0.26064 0.0
H158 H 0.39023 0.6933 0.32212 0.0
C159 C 0.43661 0.46124 0.32339 0.0
C160 C 0.41595 0.48997 0.38538 0.0
H161 H 0.45538 0.49011 0.2131 0.0
H162 H 0.44936 0.3962 0.32251 0.0
C163 C 0.4001 0.57509 0.38436 0.0
C164 C 0.41371 0.41807 0.8488 0.0
C165 C 0.43568 0.49193 0.86658 0.0
H166 H 0.3983 0.32352 0.76636 0.0
C167 C 0.46139 0.52387 0.81376 0.0
H168 H 0.3937 0.39168 0.88819 0.0
C169 C 0.46412 0.4845 0.7437 0.0
C170 C 0.44102 0.41293 0.72503 0.0
H171 H 0.47877 0.58068 0.82579 0.0
H172 H 0.48346 0.51188 0.70351 0.0
C173 C 0.41627 0.37919 0.77876 0.0
C174 C 0.61426 0.37912 0.7488 0.0
C175 C 0.58956 0.41297 0.80258 0.0
H176 H 0.63679 0.39149 0.63934 0.0
C177 C 0.5665 0.48465 0.78396 0.0
H178 H 0.6322 0.32337 0.76117 0.0
C179 C 0.56923 0.52399 0.7139 0.0
C180 C 0.59489 0.49194 0.66103 0.0
H181 H 0.5472 0.51212 0.82419 0.0
H182 H 0.55188 0.58089 0.7019 0.0
C183 C 0.61681 0.41798 0.67877 0.0
C184 C 0.09398 0.9612 0.20388 0.0
C185 C 0.11468 -0.01013 0.14192 0.0
H186 H 0.07518 -0.00989 0.31414 0.0
C187 C 0.13058 0.07494 0.143 0.0
H188 H 0.08119 0.8962 0.20472 0.0
C189 C 0.12708 0.12881 0.20567 0.0
C190 C 0.10764 0.09879 0.26873 0.0
H191 H 0.14651 0.0993 0.09606 0.0
H192 H 0.14047 0.1931 0.20528 0.0
C193 C 0.09052 0.01507 0.26664 0.0
C194 C 0.90008 0.07502 0.38421 0.0
C195 C 0.91595 -0.01008 0.38526 0.0
H196 H 0.8902 0.19321 0.32196 0.0
C197 C 0.93663 0.96121 0.32328 0.0
H198 H 0.88416 0.09941 0.43116 0.0
C199 C 0.94009 0.01507 0.26053 0.0
C200 C 0.923 0.09884 0.25847 0.0
H201 H 0.94939 0.89618 0.32242 0.0
H202 H 0.95541 -0.00991 0.21301 0.0
C203 C 0.90358 0.12889 0.32155 0.0
C204 C 0.91639 0.87905 0.77869 0.0
C205 C 0.94108 0.91292 0.7249 0.0
H206 H 0.89388 0.8914 0.88816 0.0
C207 C 0.96413 0.98461 0.74353 0.0
H208 H 0.89847 0.82329 0.76632 0.0
C209 C 0.96141 0.02394 0.8136 0.0
C210 C 0.93576 -0.00813 0.86647 0.0
H211 H 0.98343 0.0121 0.70329 0.0
H212 H 0.97875 0.08085 0.82559 0.0
C213 C 0.91384 0.9179 0.84873 0.0
C214 C 0.11424 0.87901 0.74849 0.0
C215 C 0.08954 0.91287 0.80227 0.0
H216 H 0.13677 0.89138 0.63902 0.0
C217 C 0.06648 0.98454 0.78364 0.0
H218 H 0.13218 0.82326 0.76085 0.0
C219 C 0.0692 0.02388 0.71358 0.0
C220 C 0.09487 -0.00818 0.66071 0.0
H221 H 0.04718 0.01201 0.82387 0.0
H222 H 0.05186 0.08077 0.70158 0.0
C223 C 0.11679 0.91786 0.67845 0.0
C224 C 0.50756 0.9414 0.89542 0.0
C225 C 0.49695 0.90792 0.96517 0.0
H226 H 0.54089 0.03441 0.83509 0.0
C227 C 0.51272 0.94516 0.02919 0.0
H228 H 0.49603 0.91421 0.84491 0.0
C229 C 0.53862 0.01417 0.02352 0.0
C230 C 0.54931 0.04737 0.95371 0.0
H231 H 0.50522 0.92077 0.08375 0.0
H232 H 0.55024 0.04146 0.0739 0.0
C233 C 0.53342 0.01027 0.88976 0.0
C234 C 0.51789 0.94519 0.4984 0.0
C235 C 0.53366 0.90797 0.56242 0.0
H236 H 0.48036 0.04147 0.45368 0.0
C237 C 0.52306 0.94147 0.63217 0.0
H238 H 0.52539 0.92078 0.44384 0.0
C239 C 0.49719 0.01034 0.63783 0.0
C240 C 0.48129 0.04742 0.57388 0.0
H241 H 0.53459 0.9143 0.68268 0.0
H242 H 0.48972 0.0345 0.6925 0.0
C243 C 0.49198 0.0142 0.50406 0.0
C244 C 0.03863 0.51413 0.02331 0.0
C245 C 0.04928 0.54736 0.95349 0.0
H246 H 1.00525 0.42072 0.08358 0.0
C247 C 0.03336 0.51028 0.88956 0.0
H248 H 0.05027 0.5414 0.07368 0.0
C249 C 1.0075 0.44142 0.89525 0.0
C250 C 0.99692 0.40792 0.96501 0.0
H251 H 0.0408 0.53443 0.83488 0.0
H252 H 0.99594 0.41425 0.84476 0.0
C253 C 1.01272 0.44513 0.02902 0.0
C254 C 0.01788 0.44512 0.49818 0.0
C255 C 0.03365 0.40786 0.56219 0.0
H256 H 0.98036 0.54143 0.4535 0.0
C257 C 0.02306 0.44134 0.63195 0.0
H258 H 0.02537 0.42072 0.44361 0.0
C259 C 0.99719 0.51022 0.63763 0.0
C260 C 0.9813 0.54733 0.57369 0.0
H261 H 0.03459 0.41414 0.68245 0.0
H262 H 0.98973 0.53435 0.69231 0.0
C263 C 0.99198 0.51413 0.50387 0.0
loop_
_geom_bond_atom_site_label_1
_geom_bond_atom_site_label_2
_geom_bond_distance
_geom_bond_site_symmetry_2
_ccdc_geom_bond_type
C0 O1 1.160 1_554 S
C0 O7 1.185 . S
O1 C0 1.160 1_556 S
O2 Zn3 1.899 1_556 S
O2 C10 1.284 . S
Zn3 O2 1.899 1_554 S
Zn3 O4 2.032 . S
Zn3 O7 2.086 . S
Zn3 O12 1.977 . S
O4 Zn3 2.032 . S
O4 C8 1.278 . S
C5 O6 1.203 1_554 S
C5 O12 1.267 . S
O6 C5 1.203 1_556 S
O7 C0 1.185 . S
O7 Zn3 2.086 . S
C8 O4 1.278 . S
C8 O9 1.211 . S
O9 C8 1.211 . S
C10 O2 1.284 . S
C10 O11 1.273 . S
O11 C10 1.273 . S
O12 Zn3 1.977 . S
O12 C5 1.267 . S
C13 O14 1.160 1_554 S
C13 O20 1.185 . S
O14 C13 1.160 1_556 S
O15 Zn16 1.899 1_556 S
O15 C23 1.284 . S
Zn16 O15 1.899 1_554 S
Zn16 O17 2.032 . S
Zn16 O20 2.086 . S
Zn16 O25 1.977 . S
O17 Zn16 2.032 . S
O17 C21 1.278 . S
C18 O19 1.203 1_554 S
C18 O25 1.267 . S
O19 C18 1.203 1_556 S
O20 C13 1.185 . S
O20 Zn16 2.086 . S
C21 O17 1.278 . S
C21 O22 1.211 . S
O22 C21 1.211 . S
C23 O15 1.284 . S
C23 O24 1.273 . S
O24 C23 1.273 . S
O25 Zn16 1.977 . S
O25 C18 1.267 . S
C26 O27 1.160 . S
C26 O33 1.185 . S
O27 C26 1.160 . S
O28 Zn29 1.899 . S
O28 C36 1.284 . S
Zn29 O28 1.899 . S
Zn29 O30 2.032 . S
Zn29 O33 2.086 . S
Zn29 O38 1.977 . S
O30 Zn29 2.032 . S
O30 C34 1.278 . S
C31 O32 1.203 . S
C31 O38 1.267 . S
O32 C31 1.203 . S
O33 C26 1.185 . S
O33 Zn29 2.086 . S
C34 O30 1.278 . S
C34 O35 1.211 . S
O35 C34 1.211 . S
C36 O28 1.284 . S
C36 O37 1.273 . S
O37 C36 1.273 . S
O38 Zn29 1.977 . S
O38 C31 1.267 . S
C39 O40 1.160 . S
C39 O46 1.185 . S
O40 C39 1.160 . S
O41 Zn42 1.899 . S
O41 C49 1.284 . S
Zn42 O41 1.899 . S
Zn42 O43 2.032 . S
Zn42 O46 2.086 . S
Zn42 O51 1.977 . S
O43 Zn42 2.032 . S
O43 C47 1.278 . S
C44 O45 1.203 . S
C44 O51 1.267 . S
O45 C44 1.203 . S
O46 C39 1.185 . S
O46 Zn42 2.086 . S
C47 O43 1.278 . S
C47 O48 1.211 . S
O48 C47 1.211 . S
C49 O41 1.284 . S
C49 O50 1.273 . S
O50 C49 1.273 . S
O51 Zn42 1.977 . S
O51 C44 1.267 . S
C52 O53 1.160 1_554 S
C52 O59 1.185 . S
O53 C52 1.160 1_556 S
O54 Zn55 1.899 1_556 S
O54 C62 1.284 . S
Zn55 O54 1.899 1_554 S
Zn55 O56 2.032 . S
Zn55 O59 2.086 . S
Zn55 O64 1.977 . S
O56 Zn55 2.032 . S
O56 C60 1.278 . S
C57 O58 1.203 1_554 S
C57 O64 1.267 . S
O58 C57 1.203 1_556 S
O59 C52 1.185 . S
O59 Zn55 2.086 . S
C60 O56 1.278 . S
C60 O61 1.211 . S
O61 C60 1.211 . S
C62 O54 1.284 . S
C62 O63 1.273 . S
O63 C62 1.273 . S
O64 Zn55 1.977 . S
O64 C57 1.267 . S
C65 O66 1.160 1_554 S
C65 O72 1.185 . S
O66 C65 1.160 1_556 S
O67 Zn68 1.899 1_556 S
O67 C75 1.284 . S
Zn68 O67 1.899 1_554 S
Zn68 O69 2.032 . S
Zn68 O72 2.086 . S
Zn68 O77 1.977 . S
O69 Zn68 2.032 . S
O69 C73 1.278 . S
C70 O71 1.203 1_554 S
C70 O77 1.267 . S
O71 C70 1.203 1_556 S
O72 C65 1.185 . S
O72 Zn68 2.086 . S
C73 O69 1.278 . S
C73 O74 1.211 . S
O74 C73 1.211 . S
C75 O67 1.284 . S
C75 O76 1.273 . S
O76 C75 1.273 . S
O77 Zn68 1.977 . S
O77 C70 1.267 . S
C78 O79 1.160 . S
C78 O85 1.185 . S
O79 C78 1.160 . S
O80 Zn81 1.899 . S
O80 C88 1.284 . S
Zn81 O80 1.899 . S
Zn81 O82 2.032 . S
Zn81 O85 2.086 . S
Zn81 O90 1.977 . S
O82 Zn81 2.032 . S
O82 C86 1.278 . S
C83 O84 1.203 . S
C83 O90 1.267 . S
O84 C83 1.203 . S
O85 C78 1.185 . S
O85 Zn81 2.086 . S
C86 O82 1.278 . S
C86 O87 1.211 . S
O87 C86 1.211 . S
C88 O80 1.284 . S
C88 O89 1.273 . S
O89 C88 1.273 . S
O90 Zn81 1.977 . S
O90 C83 1.267 . S
C91 O92 1.160 . S
C91 O98 1.185 . S
O92 C91 1.160 . S
O93 Zn94 1.899 . S
O93 C101 1.284 . S
Zn94 O93 1.899 . S
Zn94 O95 2.032 . S
Zn94 O98 2.086 . S
Zn94 O103 1.977 . S
O95 Zn94 2.032 . S
O95 C99 1.278 . S
C96 O97 1.203 . S
C96 O103 1.267 . S
O97 C96 1.203 . S
O98 C91 1.185 . S
O98 Zn94 2.086 . S
C99 O95 1.278 . S
C99 O100 1.211 . S
O100 C99 1.211 . S
C101 O93 1.284 . S
C101 O102 1.273 . S
O102 C101 1.273 . S
O103 Zn94 1.977 . S
O103 C96 1.267 . S
C104 C105 1.387 . S
C104 H108 0.950 . S
C104 C113 1.390 . S
C105 C104 1.387 . S
C105 C107 1.387 1_554 S
H106 C113 0.950 . S
C107 C105 1.387 1_556 S
C107 C109 1.390 . S
C107 H111 0.950 . S
H108 C104 0.950 . S
C109 C107 1.390 . S
C109 C110 1.387 1_556 S
C109 H112 0.950 . S
C110 C109 1.387 1_554 S
C110 C113 1.387 . S
H111 C107 0.950 . S
H112 C109 0.950 . S
C113 C104 1.390 . S
C113 H106 0.950 . S
C113 C110 1.387 . S
C114 C115 1.387 1_556 S
C114 H118 0.950 . S
C114 C123 1.390 . S
C115 C114 1.387 1_554 S
C115 C117 1.387 . S
H116 C123 0.950 . S
C117 C115 1.387 . S
C117 C119 1.390 . S
C117 H121 0.950 . S
H118 C114 0.950 . S
C119 C117 1.390 . S
C119 C120 1.387 . S
C119 H122 0.950 . S
C120 C119 1.387 . S
C120 C123 1.387 1_554 S
H121 C117 0.950 . S
H122 C119 0.950 . S
C123 C114 1.390 . S
C123 H116 0.950 . S
C123 C120 1.387 1_556 S
C124 C125 1.387 . S
C124 H128 0.950 . S
C124 C133 1.390 . S
C125 C124 1.387 . S
C125 C127 1.387 . S
H126 C133 0.950 . S
C127 C125 1.387 . S
C127 C129 1.390 . S
C127 H131 0.950 . S
H128 C124 0.950 . S
C129 C127 1.390 . S
C129 C130 1.387 . S
C129 H132 0.950 . S
C130 C129 1.387 . S
C130 C133 1.387 . S
H131 C127 0.950 . S
H132 C129 0.950 . S
C133 C124 1.390 . S
C133 H126 0.950 . S
C133 C130 1.387 . S
C134 C135 1.387 . S
C134 H138 0.950 . S
C134 C143 1.390 . S
C135 C134 1.387 . S
C135 C137 1.387 . S
H136 C143 0.950 . S
C137 C135 1.387 . S
C137 C139 1.390 . S
C137 H141 0.950 . S
H138 C134 0.950 . S
C139 C137 1.390 . S
C139 C140 1.387 . S
C139 H142 0.950 . S
C140 C139 1.387 . S
C140 C143 1.387 . S
H141 C137 0.950 . S
H142 C139 0.950 . S
C143 C134 1.390 . S
C143 H136 0.950 . S
C143 C140 1.387 . S
C144 C145 1.387 . S
C144 H148 0.950 . S
C144 C153 1.390 . S
C145 C144 1.387 . S
C145 C147 1.387 . S
H146 C153 0.950 . S
C147 C145 1.387 . S
C147 C149 1.390 . S
C147 H151 0.950 . S
H148 C144 0.950 . S
C149 C147 1.390 . S
C149 C150 1.387 . S
C149 H152 0.950 . S
C150 C149 1.387 . S
C150 C153 1.387 . S
H151 C147 0.950 . S
H152 C149 0.950 . S
C153 C144 1.390 . S
C153 H146 0.950 . S
C153 C150 1.387 . S
C154 C155 1.387 . S
C154 H158 0.950 . S
C154 C163 1.390 . S
C155 C154 1.387 . S
C155 C157 1.387 . S
H156 C163 0.950 . S
C157 C155 1.387 . S
C157 C159 1.390 . S
C157 H161 0.950 . S
H158 C154 0.950 . S
C159 C157 1.390 . S
C159 C160 1.387 . S
C159 H162 0.950 . S
C160 C159 1.387 . S
C160 C163 1.387 . S
H161 C157 0.950 . S
H162 C159 0.950 . S
C163 C154 1.390 . S
C163 H156 0.950 . S
C163 C160 1.387 . S
C164 C165 1.387 . S
C164 H168 0.950 . S
C164 C173 1.390 . S
C165 C164 1.387 . S
C165 C167 1.387 . S
H166 C173 0.950 . S
C167 C165 1.387 . S
C167 C169 1.390 . S
C167 H171 0.950 . S
H168 C164 0.950 . S
C169 C167 1.390 . S
C169 C170 1.387 . S
C169 H172 0.950 . S
C170 C169 1.387 . S
C170 C173 1.387 . S
H171 C167 0.950 . S
H172 C169 0.950 . S
C173 C164 1.390 . S
C173 H166 0.950 . S
C173 C170 1.387 . S
C174 C175 1.387 . S
C174 H178 0.950 . S
C174 C183 1.390 . S
C175 C174 1.387 . S
C175 C177 1.387 . S
H176 C183 0.950 . S
C177 C175 1.387 . S
C177 C179 1.390 . S
C177 H181 0.950 . S
H178 C174 0.950 . S
C179 C177 1.390 . S
C179 C180 1.387 . S
C179 H182 0.950 . S
C180 C179 1.387 . S
C180 C183 1.387 . S
H181 C177 0.950 . S
H182 C179 0.950 . S
C183 C174 1.390 . S
C183 H176 0.950 . S
C183 C180 1.387 . S
C184 C185 1.387 . S
C184 H188 0.950 . S
C184 C193 1.390 1_565 S
C185 C184 1.387 . S
C185 C187 1.387 . S
H186 C193 0.950 . S
C187 C185 1.387 . S
C187 C189 1.390 1_565 S
C187 H191 0.950 . S
H188 C184 0.950 . S
C189 C187 1.390 1_545 S
C189 C190 1.387 . S
C189 H192 0.950 . S
C190 C189 1.387 . S
C190 C193 1.387 . S
H191 C187 0.950 . S
H192 C189 0.950 . S
C193 C184 1.390 1_545 S
C193 H186 0.950 . S
C193 C190 1.387 . S
C194 C195 1.387 . S
C194 H198 0.950 . S
C194 C203 1.390 1_565 S
C195 C194 1.387 . S
C195 C197 1.387 . S
H196 C203 0.950 . S
C197 C195 1.387 . S
C197 C199 1.390 1_565 S
C197 H201 0.950 . S
H198 C194 0.950 . S
C199 C197 1.390 1_545 S
C199 C200 1.387 . S
C199 H202 0.950 . S
C200 C199 1.387 . S
C200 C203 1.387 . S
H201 C197 0.950 . S
H202 C199 0.950 . S
C203 C194 1.390 1_545 S
C203 H196 0.950 . S
C203 C200 1.387 . S
C204 C205 1.387 . S
C204 H208 0.950 . S
C204 C213 1.390 1_565 S
C205 C204 1.387 . S
C205 C207 1.387 . S
H206 C213 0.950 . S
C207 C205 1.387 . S
C207 C209 1.390 1_565 S
C207 H211 0.950 . S
H208 C204 0.950 . S
C209 C207 1.390 1_545 S
C209 C210 1.387 . S
C209 H212 0.950 . S
C210 C209 1.387 . S
C210 C213 1.387 . S
H211 C207 0.950 . S
H212 C209 0.950 . S
C213 C204 1.390 1_545 S
C213 H206 0.950 . S
C213 C210 1.387 . S
C214 C215 1.387 . S
C214 H218 0.950 . S
C214 C223 1.390 1_565 S
C215 C214 1.387 . S
C215 C217 1.387 . S
H216 C223 0.950 . S
C217 C215 1.387 . S
C217 C219 1.390 1_565 S
C217 H221 0.950 . S
H218 C214 0.950 . S
C219 C217 1.390 1_545 S
C219 C220 1.387 . S
C219 H222 0.950 . S
C220 C219 1.387 . S
C220 C223 1.387 . S
H221 C217 0.950 . S
H222 C219 0.950 . S
C223 C214 1.390 1_545 S
C223 H216 0.950 . S
C223 C220 1.387 . S
C224 C225 1.387 1_556 S
C224 H228 0.950 . S
C224 C233 1.390 1_565 S
C225 C224 1.387 1_554 S
C225 C227 1.387 . S
H226 C233 0.950 . S
C227 C225 1.387 . S
C227 C229 1.390 1_565 S
C227 H231 0.950 . S
H228 C224 0.950 . S
C229 C227 1.390 1_545 S
C229 C230 1.387 . S
C229 H232 0.950 . S
C230 C229 1.387 . S
C230 C233 1.387 1_554 S
H231 C227 0.950 . S
H232 C229 0.950 . S
C233 C224 1.390 1_545 S
C233 H226 0.950 . S
C233 C230 1.387 1_556 S
C234 C235 1.387 . S
C234 H238 0.950 . S
C234 C243 1.390 1_565 S
C235 C234 1.387 . S
C235 C237 1.387 . S
H236 C243 0.950 . S
C237 C235 1.387 . S
C237 C239 1.390 1_565 S
C237 H241 0.950 . S
H238 C234 0.950 . S
C239 C237 1.390 1_545 S
C239 C240 1.387 . S
C239 H242 0.950 . S
C240 C239 1.387 . S
C240 C243 1.387 . S
H241 C237 0.950 . S
H242 C239 0.950 . S
C243 C234 1.390 1_545 S
C243 H236 0.950 . S
C243 C240 1.387 . S
C244 C245 1.387 . S
C244 H248 0.950 . S
C244 C253 1.390 1_455 S
C245 C244 1.387 . S
C245 C247 1.387 1_554 S
H246 C253 0.950 . S
C247 C245 1.387 1_556 S
C247 C249 1.390 1_455 S
C247 H251 0.950 . S
H248 C244 0.950 . S
C249 C247 1.390 1_655 S
C249 C250 1.387 1_556 S
C249 H252 0.950 . S
C250 C249 1.387 1_554 S
C250 C253 1.387 . S
H251 C247 0.950 . S
H252 C249 0.950 . S
C253 C244 1.390 1_655 S
C253 H246 0.950 . S
C253 C250 1.387 . S
C254 C255 1.387 . S
C254 H258 0.950 . S
C254 C263 1.390 1_455 S
C255 C254 1.387 . S
C255 C257 1.387 . S
H256 C263 0.950 . S
C257 C255 1.387 . S
C257 C259 1.390 1_455 S
C257 H261 0.950 . S
H258 C254 0.950 . S
C259 C257 1.390 1_655 S
C259 C260 1.387 . S
C259 H262 0.950 . S
C260 C259 1.387 . S
C260 C263 1.387 . S
H261 C257 0.950 . S
H262 C259 0.950 . S
C263 C254 1.390 1_655 S
C263 H256 0.950 . S
C263 C260 1.387 . S
C105 C70 1.469 . S
C110 C5 1.469 . S
C115 C57 1.471 . S
C120 C18 1.471 . S
C125 C96 1.471 . S
C130 C31 1.471 . S
C135 C83 1.471 . S
C140 C44 1.471 . S
C145 C8 1.368 . S
C150 C34 1.368 . S
C155 C21 1.368 . S
C160 C47 1.368 . S
C165 C23 1.412 . S
C170 C49 1.412 . S
C175 C10 1.412 . S
C180 C36 1.412 . S
C185 C60 1.369 . S
C190 C86 1.369 . S
C195 C99 1.368 . S
C200 C73 1.368 . S
C205 C101 1.412 . S
C210 C75 1.412 . S
C215 C62 1.412 . S
C220 C88 1.412 . S
C225 C13 1.500 . S
C230 C0 1.500 . S
C235 C26 1.501 . S
C240 C39 1.501 . S
C245 C52 1.501 . S
C250 C65 1.501 . S
C255 C78 1.501 . S
C260 C91 1.501 . S
