# Generated by pormake.
# Topology bto, (3)-cn, num edge types: 1
# Building blocks:
#     Node 0, Type 0, BuildingBlock: OLANEW_clean_sbu_2, # of connection points: 3
#     Node 1, Type 0, BuildingBlock: OLANEW_clean_sbu_2, # of connection points: 3
#     Node 2, Type 0, BuildingBlock: OLANEW_clean_sbu_2, # of connection points: 3
#     Node 3, Type 0, BuildingBlock: OLANEW_clean_sbu_2, # of connection points: 3
#     Node 4, Type 0, BuildingBlock: OLANEW_clean_sbu_2, # of connection points: 3
#     Node 5, Type 0, BuildingBlock: OLANEW_clean_sbu_2, # of connection points: 3
#     Edge 6, Type (0, 0), BuildingBlock: OJICUG_clean_linker_0, # of connection points: 2
#     Edge 7, Type (0, 0), BuildingBlock: OJICUG_clean_linker_0, # of connection points: 2
#     Edge 8, Type (0, 0), BuildingBlock: OJICUG_clean_linker_0, # of connection points: 2
#     Edge 9, Type (0, 0), BuildingBlock: OJICUG_clean_linker_0, # of connection points: 2
#     Edge 10, Type (0, 0), BuildingBlock: OJICUG_clean_linker_0, # of connection points: 2
#     Edge 11, Type (0, 0), BuildingBlock: OJICUG_clean_linker_0, # of connection points: 2
#     Edge 12, Type (0, 0), BuildingBlock: OJICUG_clean_linker_0, # of connection points: 2
#     Edge 13, Type (0, 0), BuildingBlock: OJICUG_clean_linker_0, # of connection points: 2
#     Edge 14, Type (0, 0), BuildingBlock: OJICUG_clean_linker_0, # of connection points: 2
# Relax obj value: 0.000
# Max RMSD: 0.047
# Mean RMSD: 0.047
data_MOF--net-bto--node1-OLANEW_clean_sbu_2--edge1-OJICUG_clean_linker_0
_symmetry_space_group_name_H-M    P1
_symmetry_Int_Tables_number       1
_symmetry_cell_setting            triclinic
loop_
_symmetry_equiv_pos_as_xyz
'x, y, z'
_cell_length_a     24.079883
_cell_length_b     24.220834
_cell_length_c     41.658312
_cell_angle_alpha  82.106884
_cell_angle_beta   89.830894
_cell_angle_gamma 120.09803
loop_
_atom_site_label
_atom_site_type_symbol
_atom_site_fract_x
_atom_site_fract_y
_atom_site_fract_z
_atom_type_partial_charge
O0 O 0.13087 0.70118 0.07108 0.0
Cd1 Cd 0.14068 0.6797 0.01637 0.0
O2 O 0.08123 0.59766 0.09132 0.0
Cd3 Cd 0.04594 0.5707 0.04452 0.0
O4 O 0.95588 0.5479 0.02266 0.0
C5 C 0.93995 0.59096 0.02032 0.0
O6 O 0.98034 0.64742 0.02848 0.0
C7 C 0.10901 0.65635 0.09556 0.0
C8 C 0.2381 0.64977 0.01061 0.0
O9 O 0.25074 0.70847 0.00524 0.0
O10 O 0.17938 0.60517 0.01858 0.0
O11 O 0.49208 0.21037 0.4232 0.0
Cd12 Cd 0.50541 0.2662 0.3677 0.0
O13 O 0.50029 0.1321 0.4067 0.0
Cd14 Cd 0.48529 0.15286 0.356 0.0
O15 O 0.40644 0.07887 0.33325 0.0
C16 C 0.39414 0.0219 0.3443 0.0
O17 O 0.43107 0.01462 0.36559 0.0
C18 C 0.4953 0.15923 0.42968 0.0
C19 C 0.63068 0.36926 0.34969 0.0
O20 O 0.58817 0.37803 0.36292 0.0
O21 O 0.61403 0.31177 0.34529 0.0
O22 O 0.5513 0.5537 0.75192 0.0
Cd23 Cd 0.53173 0.56369 0.69414 0.0
O24 O 0.45309 0.47554 0.77 0.0
Cd25 Cd 0.41613 0.49269 0.72464 0.0
O26 O 0.39151 0.55282 0.6912 0.0
C27 C 0.41916 0.6116 0.69523 0.0
O28 O 0.46018 0.63043 0.71766 0.0
C29 C 0.51143 0.51261 0.77516 0.0
C30 C 0.50606 0.45464 0.66706 0.0
O31 O 0.56417 0.50011 0.66822 0.0
O32 O 0.46054 0.46102 0.67846 0.0
O33 O 0.36683 0.94147 0.55377 0.0
Cd34 Cd 0.3 0.86764 0.60203 0.0
O35 O 0.40351 0.0204 0.58236 0.0
Cd36 Cd 0.45959 0.12029 0.59087 0.0
O37 O 0.49118 0.21326 0.60628 0.0
C38 C 0.44689 0.22231 0.61623 0.0
O39 O 0.38658 0.17641 0.61612 0.0
C40 C 0.40186 1.0013 0.55526 0.0
C41 C 0.34384 0.78654 0.62915 0.0
O42 O 0.30268 0.76934 0.60775 0.0
O43 O 0.36446 0.84226 0.63743 0.0
O44 O 0.53347 0.48591 0.93168 0.0
Cd45 Cd 0.55339 0.50043 0.9881 0.0
O46 O 0.58508 0.5911 0.9156 0.0
Cd47 Cd 0.56411 0.60976 0.96267 0.0
O48 O 0.49631 0.6321 0.98454 0.0
C49 C 0.43711 0.58837 0.98872 0.0
O50 O 0.42024 0.5306 0.98231 0.0
C51 C 0.55938 0.53411 0.90889 0.0
C52 C 0.67991 0.53038 -0.00278 0.0
O53 O 0.63364 0.47155 0.00078 0.0
O54 O 0.66623 0.5751 0.98986 0.0
O55 O 0.07381 0.66442 0.24957 0.0
Cd56 Cd 0.05516 0.68292 0.30362 0.0
O57 O 0.04384 0.73165 0.22677 0.0
Cd58 Cd 0.98699 0.71541 0.27166 0.0
O59 O 0.89827 0.64216 0.30095 0.0
C60 C 0.88273 0.58398 0.29981 0.0
O61 O 0.92168 0.57327 0.283 0.0
C62 C 0.06942 0.69736 0.22422 0.0
C63 C 0.16495 0.79401 0.31658 0.0
O64 O 0.15773 0.73776 0.32514 0.0
O65 O 0.11955 0.79778 0.30237 0.0
C66 C 0.11016 0.7285 0.13338 0.0
C67 C 0.10886 0.67151 0.12869 0.0
H68 H 0.09799 0.78111 0.16742 0.0
C69 C 0.10074 0.62621 0.15594 0.0
H70 H 0.11611 0.76419 0.1128 0.0
C71 C 0.0914 0.6364 0.18721 0.0
C72 C 0.08862 0.69142 0.19175 0.0
H73 H 0.09979 0.58199 0.15303 0.0
H74 H 0.08323 0.59961 0.20767 0.0
C75 C 0.09944 0.73804 0.16461 0.0
C76 C 0.44127 0.10807 0.51953 0.0
C77 C 0.43658 0.04729 0.52527 0.0
H78 H 0.46459 0.19199 0.48477 0.0
C79 C 0.45892 0.02758 0.50054 0.0
H80 H 0.42269 0.12375 0.53777 0.0
C81 C 0.48257 0.06641 0.47011 0.0
C82 C 0.48364 0.1255 0.46362 0.0
H83 H 0.45593 0.98097 0.50438 0.0
H84 H 0.49691 0.04841 0.4512 0.0
C85 C 0.4648 0.14696 0.48899 0.0
C86 C 0.50414 0.46656 0.86614 0.0
C87 C 0.55394 0.52435 0.87457 0.0
H88 H 0.4514 0.41752 0.82785 0.0
C89 C 0.59448 0.57502 0.84974 0.0
H90 H 0.47213 0.42665 0.88477 0.0
C91 C 0.58329 0.56937 0.81715 0.0
C92 C 0.53055 0.51342 0.80883 0.0
H93 H 0.63356 0.61993 0.85553 0.0
H94 H 0.61374 0.61032 0.79864 0.0
C95 C 0.49215 0.46137 0.83357 0.0
C96 C 0.35458 0.68315 0.00139 0.0
C97 C 0.28956 0.63388 0.00708 0.0
H98 H 0.4523 0.70748 0.9916 0.0
C99 C 0.27405 0.56932 0.00862 0.0
H100 H 0.3682 0.73337 0.00024 0.0
C101 C 0.32222 0.5545 0.00354 0.0
C102 C 0.38708 0.60385 -0.00293 0.0
H103 H 0.22448 0.53019 0.01307 0.0
H104 H 0.30841 0.50434 0.00417 0.0
C105 C 0.40284 0.66828 -0.00343 0.0
C106 C 0.71368 0.48765 0.34216 0.0
C107 C 0.69647 0.42408 0.33889 0.0
H108 H 0.7861 0.58814 0.33254 0.0
C109 C 0.74217 0.41349 0.32419 0.0
H110 H 0.67963 0.49745 0.35344 0.0
C111 C 0.80308 0.46535 0.31229 0.0
C112 C 0.8198 0.5291 0.31476 0.0
H113 H 0.73064 0.36515 0.32139 0.0
H114 H 0.83665 0.4554 0.30063 0.0
C115 C 0.77473 0.53964 0.33021 0.0
C116 C 0.33907 0.67969 0.6374 0.0
C117 C 0.36563 0.74275 0.64455 0.0
H118 H 0.33521 0.58867 0.64775 0.0
C119 C 0.41193 0.76305 0.66737 0.0
H120 H 0.30336 0.66264 0.61988 0.0
C121 C 0.43026 0.7208 0.68324 0.0
C122 C 0.40257 0.65723 0.67672 0.0
H123 H 0.43351 0.81139 0.67333 0.0
H124 H 0.4654 0.73778 0.70103 0.0
C125 C 0.35731 0.6373 0.65337 0.0
C126 C 0.85898 0.62501 0.00719 0.0
C127 C 0.87451 0.57589 0.01202 0.0
H128 H 0.7856 0.64928 -0.00138 0.0
C129 C 0.82591 0.5119 0.01084 0.0
H130 H 0.89529 0.67483 0.0079 0.0
C131 C 0.76281 0.49716 0.00585 0.0
C132 C 0.74706 0.54616 0.00163 0.0
H133 H 0.8362 0.47288 0.01456 0.0
H134 H 0.72627 0.44725 0.00554 0.0
C135 C 0.79604 0.61036 0.00191 0.0
C136 C 0.29036 0.97005 0.31748 0.0
C137 C 0.33685 0.96427 0.33559 0.0
H138 H 0.19922 0.92074 0.29743 0.0
C139 C 0.3268 0.90223 0.34679 0.0
H140 H 0.29659 0.01715 0.30858 0.0
C141 C 0.27123 0.84718 0.34042 0.0
C142 C 0.22415 0.85276 0.32282 0.0
H143 H 0.36166 0.89599 0.36079 0.0
H144 H 0.26497 0.80017 0.34961 0.0
C145 C 0.23445 0.9148 0.31122 0.0
C146 C 0.41295 0.29104 0.64012 0.0
C147 C 0.46257 0.28258 0.6285 0.0
H148 H 0.38776 0.35182 0.66133 0.0
C149 C 0.5269 0.33173 0.62919 0.0
H150 H 0.36289 0.25418 0.63993 0.0
C151 C 0.54122 0.38795 0.64149 0.0
C152 C 0.49149 0.39605 0.65336 0.0
H153 H 0.56625 0.32668 0.62039 0.0
H154 H 0.59122 0.42481 0.64188 0.0
C155 C 0.42724 0.34709 0.65241 0.0
loop_
_geom_bond_atom_site_label_1
_geom_bond_atom_site_label_2
_geom_bond_distance
_geom_bond_site_symmetry_2
_ccdc_geom_bond_type
O0 Cd1 2.300 . S
O0 C7 1.275 . S
Cd1 O0 2.300 . S
Cd1 O9 2.381 . S
Cd1 O10 2.378 . S
O2 Cd3 2.385 1_455 S
O2 C7 1.255 . S
Cd3 O2 2.385 1_655 S
Cd3 O4 2.317 . S
O4 Cd3 2.317 . S
O4 C5 1.232 . S
C5 O4 1.232 . S
C5 O6 1.218 . S
O6 C5 1.218 . S
C7 O0 1.275 . S
C7 O2 1.255 . S
C8 O9 1.258 . S
C8 O10 1.256 . S
O9 Cd1 2.381 . S
O9 C8 1.258 . S
O10 Cd1 2.378 . S
O10 C8 1.256 . S
O11 Cd12 2.300 . S
O11 C18 1.275 . S
Cd12 O11 2.300 . S
Cd12 O20 2.381 . S
Cd12 O21 2.378 . S
O13 Cd14 2.385 . S
O13 C18 1.255 . S
Cd14 O13 2.385 . S
Cd14 O15 2.317 . S
O15 Cd14 2.317 . S
O15 C16 1.232 . S
C16 O15 1.232 . S
C16 O17 1.218 1_545 S
O17 C16 1.218 1_565 S
C18 O11 1.275 . S
C18 O13 1.255 . S
C19 O20 1.258 . S
C19 O21 1.256 . S
O20 Cd12 2.381 . S
O20 C19 1.258 . S
O21 Cd12 2.378 . S
O21 C19 1.256 . S
O22 Cd23 2.300 . S
O22 C29 1.275 . S
Cd23 O22 2.300 . S
Cd23 O31 2.381 . S
Cd23 O32 2.378 . S
O24 Cd25 2.385 . S
O24 C29 1.255 . S
Cd25 O24 2.385 . S
Cd25 O26 2.317 . S
O26 Cd25 2.317 . S
O26 C27 1.232 . S
C27 O26 1.232 . S
C27 O28 1.218 . S
O28 C27 1.218 . S
C29 O22 1.275 . S
C29 O24 1.255 . S
C30 O31 1.258 . S
C30 O32 1.256 . S
O31 Cd23 2.381 . S
O31 C30 1.258 . S
O32 Cd23 2.378 . S
O32 C30 1.256 . S
O33 Cd34 2.300 . S
O33 C40 1.275 1_565 S
Cd34 O33 2.300 . S
Cd34 O42 2.381 . S
Cd34 O43 2.378 . S
O35 Cd36 2.385 . S
O35 C40 1.255 . S
Cd36 O35 2.385 . S
Cd36 O37 2.317 . S
O37 Cd36 2.317 . S
O37 C38 1.232 . S
C38 O37 1.232 . S
C38 O39 1.218 . S
O39 C38 1.218 . S
C40 O33 1.275 1_545 S
C40 O35 1.255 . S
C41 O42 1.258 . S
C41 O43 1.256 . S
O42 Cd34 2.381 . S
O42 C41 1.258 . S
O43 Cd34 2.378 . S
O43 C41 1.256 . S
O44 Cd45 2.300 . S
O44 C51 1.275 . S
Cd45 O44 2.300 . S
Cd45 O53 2.381 . S
Cd45 O54 2.378 . S
O46 Cd47 2.385 . S
O46 C51 1.255 . S
Cd47 O46 2.385 . S
Cd47 O48 2.317 . S
O48 Cd47 2.317 . S
O48 C49 1.232 . S
C49 O48 1.232 . S
C49 O50 1.218 . S
O50 C49 1.218 . S
C51 O44 1.275 . S
C51 O46 1.255 . S
C52 O53 1.258 . S
C52 O54 1.256 . S
O53 Cd45 2.381 . S
O53 C52 1.258 . S
O54 Cd45 2.378 . S
O54 C52 1.256 . S
O55 Cd56 2.300 . S
O55 C62 1.275 . S
Cd56 O55 2.300 . S
Cd56 O64 2.381 . S
Cd56 O65 2.378 . S
O57 Cd58 2.385 1_455 S
O57 C62 1.255 . S
Cd58 O57 2.385 1_655 S
Cd58 O59 2.317 . S
O59 Cd58 2.317 . S
O59 C60 1.232 . S
C60 O59 1.232 . S
C60 O61 1.218 . S
O61 C60 1.218 . S
C62 O55 1.275 . S
C62 O57 1.255 . S
C63 O64 1.258 . S
C63 O65 1.256 . S
O64 Cd56 2.381 . S
O64 C63 1.258 . S
O65 Cd56 2.378 . S
O65 C63 1.256 . S
C66 C67 1.387 . S
C66 H70 0.950 . S
C66 C75 1.390 . S
C67 C66 1.387 . S
C67 C69 1.387 . S
H68 C75 0.950 . S
C69 C67 1.387 . S
C69 C71 1.390 . S
C69 H73 0.950 . S
H70 C66 0.950 . S
C71 C69 1.390 . S
C71 C72 1.387 . S
C71 H74 0.950 . S
C72 C71 1.387 . S
C72 C75 1.387 . S
H73 C69 0.950 . S
H74 C71 0.950 . S
C75 C66 1.390 . S
C75 H68 0.950 . S
C75 C72 1.387 . S
C76 C77 1.387 . S
C76 H80 0.950 . S
C76 C85 1.390 . S
C77 C76 1.387 . S
C77 C79 1.387 . S
H78 C85 0.950 . S
C79 C77 1.387 . S
C79 C81 1.390 . S
C79 H83 0.950 . S
H80 C76 0.950 . S
C81 C79 1.390 . S
C81 C82 1.387 . S
C81 H84 0.950 . S
C82 C81 1.387 . S
C82 C85 1.387 . S
H83 C79 0.950 . S
H84 C81 0.950 . S
C85 C76 1.390 . S
C85 H78 0.950 . S
C85 C82 1.387 . S
C86 C87 1.387 . S
C86 H90 0.950 . S
C86 C95 1.390 . S
C87 C86 1.387 . S
C87 C89 1.387 . S
H88 C95 0.950 . S
C89 C87 1.387 . S
C89 C91 1.390 . S
C89 H93 0.950 . S
H90 C86 0.950 . S
C91 C89 1.390 . S
C91 C92 1.387 . S
C91 H94 0.950 . S
C92 C91 1.387 . S
C92 C95 1.387 . S
H93 C89 0.950 . S
H94 C91 0.950 . S
C95 C86 1.390 . S
C95 H88 0.950 . S
C95 C92 1.387 . S
C96 C97 1.387 1_556 S
C96 H100 0.950 . S
C96 C105 1.390 . S
C97 C96 1.387 1_554 S
C97 C99 1.387 . S
H98 C105 0.950 . S
C99 C97 1.387 . S
C99 C101 1.390 1_554 S
C99 H103 0.950 . S
H100 C96 0.950 . S
C101 C99 1.390 1_556 S
C101 C102 1.387 . S
C101 H104 0.950 . S
C102 C101 1.387 . S
C102 C105 1.387 . S
H103 C99 0.950 . S
H104 C101 0.950 . S
C105 C96 1.390 . S
C105 H98 0.950 . S
C105 C102 1.387 . S
C106 C107 1.387 . S
C106 H110 0.950 . S
C106 C115 1.390 . S
C107 C106 1.387 . S
C107 C109 1.387 . S
H108 C115 0.950 . S
C109 C107 1.387 . S
C109 C111 1.390 . S
C109 H113 0.950 . S
H110 C106 0.950 . S
C111 C109 1.390 . S
C111 C112 1.387 . S
C111 H114 0.950 . S
C112 C111 1.387 . S
C112 C115 1.387 . S
H113 C109 0.950 . S
H114 C111 0.950 . S
C115 C106 1.390 . S
C115 H108 0.950 . S
C115 C112 1.387 . S
C116 C117 1.387 . S
C116 H120 0.950 . S
C116 C125 1.390 . S
C117 C116 1.387 . S
C117 C119 1.387 . S
H118 C125 0.950 . S
C119 C117 1.387 . S
C119 C121 1.390 . S
C119 H123 0.950 . S
H120 C116 0.950 . S
C121 C119 1.390 . S
C121 C122 1.387 . S
C121 H124 0.950 . S
C122 C121 1.387 . S
C122 C125 1.387 . S
H123 C119 0.950 . S
H124 C121 0.950 . S
C125 C116 1.390 . S
C125 H118 0.950 . S
C125 C122 1.387 . S
C126 C127 1.387 . S
C126 H130 0.950 . S
C126 C135 1.390 1_554 S
C127 C126 1.387 . S
C127 C129 1.387 . S
H128 C135 0.950 . S
C129 C127 1.387 . S
C129 C131 1.390 . S
C129 H133 0.950 . S
H130 C126 0.950 . S
C131 C129 1.390 . S
C131 C132 1.387 1_554 S
C131 H134 0.954 . S
C132 C131 1.387 1_556 S
C132 C135 1.387 . S
H133 C129 0.950 . S
H134 C131 0.954 . S
C135 C126 1.390 1_556 S
C135 H128 0.950 . S
C135 C132 1.387 . S
C136 C137 1.387 . S
C136 H140 0.950 . S
C136 C145 1.390 1_545 S
C137 C136 1.387 . S
C137 C139 1.387 1_545 S
H138 C145 0.950 . S
C139 C137 1.387 1_565 S
C139 C141 1.390 . S
C139 H143 0.950 . S
H140 C136 0.950 . S
C141 C139 1.390 . S
C141 C142 1.387 . S
C141 H144 0.950 . S
C142 C141 1.387 . S
C142 C145 1.387 . S
H143 C139 0.950 . S
H144 C141 0.950 . S
C145 C136 1.390 1_565 S
C145 H138 0.950 . S
C145 C142 1.387 . S
C146 C147 1.387 . S
C146 H150 0.950 . S
C146 C155 1.390 . S
C147 C146 1.387 . S
C147 C149 1.387 . S
H148 C155 0.950 . S
C149 C147 1.387 . S
C149 C151 1.390 . S
C149 H153 0.950 . S
H150 C146 0.950 . S
C151 C149 1.390 . S
C151 C152 1.387 . S
C151 H154 0.950 . S
C152 C151 1.387 . S
C152 C155 1.387 . S
H153 C149 0.950 . S
H154 C151 0.950 . S
C155 C146 1.390 . S
C155 H148 0.950 . S
C155 C152 1.387 . S
C67 C7 1.486 . S
C72 C62 1.489 . S
C77 C40 1.468 . S
C82 C18 1.468 . S
C87 C51 1.485 . S
C92 C29 1.489 . S
C97 C8 1.498 . S
C102 C49 1.326 . S
C107 C19 1.499 . S
C112 C60 1.333 . S
C117 C41 1.499 . S
C122 C27 1.334 . S
C127 C5 1.322 . S
C132 C52 1.498 . S
C137 C16 1.299 . S
C142 C63 1.510 . S
C147 C38 1.293 . S
C152 C30 1.509 . S
