# Generated by pormake.
# Topology msp, (4)-cn, num edge types: 1
# Building blocks:
#     Node 0, Type 0, BuildingBlock: QUQFOY_clean_sbu_1, # of connection points: 4
#     Node 1, Type 0, BuildingBlock: QUQFOY_clean_sbu_1, # of connection points: 4
#     Node 2, Type 0, BuildingBlock: QUQFOY_clean_sbu_1, # of connection points: 4
#     Node 3, Type 0, BuildingBlock: QUQFOY_clean_sbu_1, # of connection points: 4
#     Node 4, Type 0, BuildingBlock: QUQFOY_clean_sbu_1, # of connection points: 4
#     Node 5, Type 0, BuildingBlock: QUQFOY_clean_sbu_1, # of connection points: 4
#     Node 6, Type 0, BuildingBlock: QUQFOY_clean_sbu_1, # of connection points: 4
#     Node 7, Type 0, BuildingBlock: QUQFOY_clean_sbu_1, # of connection points: 4
#     Edge 8, Type (0, 0), None
#     Edge 9, Type (0, 0), None
#     Edge 10, Type (0, 0), None
#     Edge 11, Type (0, 0), None
#     Edge 12, Type (0, 0), None
#     Edge 13, Type (0, 0), None
#     Edge 14, Type (0, 0), None
#     Edge 15, Type (0, 0), None
#     Edge 16, Type (0, 0), None
#     Edge 17, Type (0, 0), None
#     Edge 18, Type (0, 0), None
#     Edge 19, Type (0, 0), None
#     Edge 20, Type (0, 0), None
#     Edge 21, Type (0, 0), None
#     Edge 22, Type (0, 0), None
#     Edge 23, Type (0, 0), None
# Relax obj value: 0.037
# Max RMSD: 0.120
# Mean RMSD: 0.120
data_MOF--net-msp--node1-QUQFOY_clean_sbu_1--edge1-none
_symmetry_space_group_name_H-M    P1
_symmetry_Int_Tables_number       1
_symmetry_cell_setting            triclinic
loop_
_symmetry_equiv_pos_as_xyz
'x, y, z'
_cell_length_a     9.5866175
_cell_length_b     9.7790502
_cell_length_c     20.69989
_cell_angle_alpha  89.998511
_cell_angle_beta   101.41923
_cell_angle_gamma 90.000119
loop_
_atom_site_label
_atom_site_type_symbol
_atom_site_fract_x
_atom_site_fract_y
_atom_site_fract_z
_atom_type_partial_charge
O0 O 0.18374 0.7123 0.14639 0.0
Cd1 Cd 0.02512 0.71777 0.19634 0.0
Cd2 Cd 0.14915 0.92143 0.24621 0.0
O3 O 0.18151 0.93788 0.15028 0.0
O4 O 0.84222 0.67071 0.13523 0.0
O5 O 0.90551 0.88351 0.16415 0.0
C6 C 0.82095 0.80069 0.12671 0.0
C7 C 0.04078 1.04348 0.32369 0.0
C8 C 0.21981 0.82638 0.12625 0.0
C9 C 0.23254 0.6872 0.31622 0.0
O10 O 0.29034 0.77536 0.28585 0.0
O11 O 0.0994 0.6647 0.2959 0.0
O12 O 0.1523 1.08949 0.30445 0.0
O13 O 0.98092 0.9361 0.29394 0.0
O14 O 0.34143 0.71232 0.55563 0.0
Cd15 Cd 0.50004 0.71778 0.50568 0.0
Cd16 Cd 0.37596 0.92149 0.45581 0.0
O17 O 0.34367 0.93789 0.55175 0.0
O18 O 0.68293 0.67071 0.56679 0.0
O19 O 0.61966 0.88352 0.53785 0.0
C20 C 0.70421 0.80069 0.5753 0.0
C21 C 0.48437 1.04349 0.37833 0.0
C22 C 0.30535 0.82638 0.57578 0.0
C23 C 0.29253 0.68721 0.38587 0.0
O24 O 0.23471 0.77547 0.41618 0.0
O25 O 0.42568 0.66465 0.40613 0.0
O26 O 0.37289 1.08956 0.39759 0.0
O27 O 0.54417 0.93607 0.40806 0.0
O28 O 0.84142 1.44181 0.55562 0.0
Cd29 Cd 1.00004 1.43634 0.50568 0.0
Cd30 Cd 0.87601 1.23268 0.45581 0.0
O31 O 0.84365 1.21623 0.55174 0.0
O32 O 0.18294 1.4834 0.56679 0.0
O33 O 0.11965 1.2706 0.53786 0.0
C34 C 0.20421 1.35342 0.57531 0.0
C35 C 0.98438 1.11064 0.37833 0.0
C36 C 0.80535 1.32773 0.57577 0.0
C37 C 0.79262 1.46691 0.3858 0.0
O38 O 0.73482 1.37875 0.41617 0.0
O39 O 0.92576 1.48941 0.40612 0.0
O40 O 0.87286 1.06462 0.39757 0.0
O41 O 0.04424 1.21801 0.40807 0.0
O42 O 0.68372 1.44179 0.14639 0.0
Cd43 Cd 0.52511 1.43633 0.19634 0.0
Cd44 Cd 0.64919 1.23262 0.24621 0.0
O45 O 0.68149 1.21622 0.15027 0.0
O46 O 0.34222 1.4834 0.13523 0.0
O47 O 0.4055 1.27059 0.16416 0.0
C48 C 0.32095 1.35342 0.12671 0.0
C49 C 0.54079 1.11062 0.32369 0.0
C50 C 0.7198 1.32773 0.12624 0.0
C51 C 0.73262 1.4669 0.31614 0.0
O52 O 0.79045 1.37864 0.28584 0.0
O53 O 0.59947 1.48946 0.29589 0.0
O54 O 0.65227 1.06455 0.30443 0.0
O55 O 0.48098 1.21804 0.29396 0.0
O56 O 0.68374 1.2123 0.64639 0.0
Cd57 Cd 0.52512 1.21777 0.69634 0.0
Cd58 Cd 0.64915 1.42143 0.74621 0.0
O59 O 0.68151 1.43788 0.65028 0.0
O60 O 0.34222 1.17071 0.63523 0.0
O61 O 0.40551 1.38351 0.66415 0.0
C62 C 0.32095 1.30069 0.62671 0.0
C63 C 0.54078 1.54348 0.82369 0.0
C64 C 0.71981 1.32638 0.62625 0.0
C65 C 0.73254 1.1872 0.81622 0.0
O66 O 0.79034 1.27536 0.78585 0.0
O67 O 0.5994 1.1647 0.7959 0.0
O68 O 0.6523 0.58949 0.80445 0.0
O69 O 0.48092 1.4361 0.79394 0.0
O70 O 0.84143 1.21232 0.05563 0.0
Cd71 Cd 1.00004 1.21778 0.00568 0.0
Cd72 Cd 0.87596 1.42149 -0.04419 0.0
O73 O 0.84366 1.43789 0.05175 0.0
O74 O 0.18293 1.17071 0.06679 0.0
O75 O 0.11966 1.38352 0.03785 0.0
C76 C 0.20421 1.30069 0.0753 0.0
C77 C 0.98437 1.54349 -0.12167 0.0
C78 C 0.80535 1.32638 0.07578 0.0
C79 C 0.79253 1.18721 -0.11413 0.0
O80 O 0.73471 1.27547 -0.08382 0.0
O81 O 0.92568 1.16465 -0.09387 0.0
O82 O 0.87289 0.58956 -0.10241 0.0
O83 O 0.04417 1.43607 -0.09194 0.0
O84 O 0.34142 0.94181 0.05562 0.0
Cd85 Cd 0.50004 0.93634 0.00568 0.0
Cd86 Cd 0.37601 0.73268 -0.04419 0.0
O87 O 0.34365 0.71623 0.05174 0.0
O88 O 0.68294 0.9834 0.06679 0.0
O89 O 0.61965 0.7706 0.03786 0.0
C90 C 0.70421 0.85342 0.07531 0.0
C91 C 0.48438 0.61064 -0.12167 0.0
C92 C 0.30535 0.82773 0.07577 0.0
C93 C 0.29262 0.96691 -0.1142 0.0
O94 O 0.23482 0.87875 -0.08383 0.0
O95 O 0.42576 0.98941 -0.09388 0.0
O96 O 0.37286 1.56462 -0.10243 0.0
O97 O 0.54424 0.71801 -0.09193 0.0
O98 O 0.18372 0.94179 0.64639 0.0
Cd99 Cd 0.02511 0.93633 0.69634 0.0
Cd100 Cd 0.14919 0.73262 0.74621 0.0
O101 O 0.18149 0.71622 0.65027 0.0
O102 O 0.84223 0.9834 0.63523 0.0
O103 O 0.9055 0.77059 0.66416 0.0
C104 C 0.82095 0.85342 0.62671 0.0
C105 C 0.04079 0.61062 0.82369 0.0
C106 C 0.2198 0.82773 0.62624 0.0
C107 C 0.23262 0.9669 0.81614 0.0
O108 O 0.29045 0.87864 0.78584 0.0
O109 O 0.09947 0.98946 0.79589 0.0
O110 O 0.15227 1.56455 0.80443 0.0
O111 O 0.98098 0.71804 0.79396 0.0
loop_
_geom_bond_atom_site_label_1
_geom_bond_atom_site_label_2
_geom_bond_distance
_geom_bond_site_symmetry_2
_ccdc_geom_bond_type
O0 Cd1 2.223 1_455 S
O0 C8 1.315 . S
Cd1 O0 2.223 1_655 S
Cd1 O4 2.297 . S
Cd1 O5 2.439 . S
Cd1 O11 2.240 1_655 S
Cd2 O3 2.240 . S
Cd2 O10 2.223 . S
Cd2 O12 2.297 . S
Cd2 O13 2.439 1_455 S
O3 Cd2 2.240 . S
O3 C8 1.279 . S
O4 Cd1 2.297 . S
O4 C6 1.247 . S
O5 Cd1 2.439 . S
O5 C6 1.208 . S
C6 O4 1.247 . S
C6 O5 1.208 . S
C7 O12 1.247 . S
C7 O13 1.208 1_455 S
C8 O0 1.315 . S
C8 O3 1.279 . S
C9 O10 1.315 . S
C9 O11 1.279 . S
O10 Cd2 2.223 . S
O10 C9 1.315 . S
O11 Cd1 2.240 1_455 S
O11 C9 1.279 . S
O12 Cd2 2.297 . S
O12 C7 1.247 . S
O13 Cd2 2.439 1_655 S
O13 C7 1.208 1_655 S
O14 Cd15 2.223 . S
O14 C22 1.315 . S
Cd15 O14 2.223 . S
Cd15 O18 2.297 . S
Cd15 O19 2.439 . S
Cd15 O25 2.240 . S
Cd16 O17 2.240 . S
Cd16 O24 2.223 . S
Cd16 O26 2.297 . S
Cd16 O27 2.439 . S
O17 Cd16 2.240 . S
O17 C22 1.279 . S
O18 Cd15 2.297 . S
O18 C20 1.247 . S
O19 Cd15 2.439 . S
O19 C20 1.208 . S
C20 O18 1.247 . S
C20 O19 1.208 . S
C21 O26 1.247 . S
C21 O27 1.208 . S
C22 O14 1.315 . S
C22 O17 1.279 . S
C23 O24 1.315 . S
C23 O25 1.279 . S
O24 Cd16 2.223 . S
O24 C23 1.315 . S
O25 Cd15 2.240 . S
O25 C23 1.279 . S
O26 Cd16 2.297 . S
O26 C21 1.247 . S
O27 Cd16 2.439 . S
O27 C21 1.208 . S
O28 Cd29 2.223 1_655 S
O28 C36 1.315 . S
Cd29 O28 2.223 1_455 S
Cd29 O32 2.297 . S
Cd29 O33 2.439 . S
Cd29 O39 2.240 1_455 S
Cd30 O31 2.240 . S
Cd30 O38 2.223 . S
Cd30 O40 2.297 . S
Cd30 O41 2.439 1_655 S
O31 Cd30 2.240 . S
O31 C36 1.279 . S
O32 Cd29 2.297 . S
O32 C34 1.247 . S
O33 Cd29 2.439 . S
O33 C34 1.208 . S
C34 O32 1.247 . S
C34 O33 1.208 . S
C35 O40 1.247 . S
C35 O41 1.208 1_655 S
C36 O28 1.315 . S
C36 O31 1.279 . S
C37 O38 1.315 . S
C37 O39 1.279 . S
O38 Cd30 2.223 . S
O38 C37 1.315 . S
O39 Cd29 2.240 1_655 S
O39 C37 1.279 . S
O40 Cd30 2.297 . S
O40 C35 1.247 . S
O41 Cd30 2.439 1_455 S
O41 C35 1.208 1_455 S
O42 Cd43 2.223 . S
O42 C50 1.315 . S
Cd43 O42 2.223 . S
Cd43 O46 2.297 . S
Cd43 O47 2.439 . S
Cd43 O53 2.240 . S
Cd44 O45 2.240 . S
Cd44 O52 2.223 . S
Cd44 O54 2.297 . S
Cd44 O55 2.439 . S
O45 Cd44 2.240 . S
O45 C50 1.279 . S
O46 Cd43 2.297 . S
O46 C48 1.247 . S
O47 Cd43 2.439 . S
O47 C48 1.208 . S
C48 O46 1.247 . S
C48 O47 1.208 . S
C49 O54 1.247 . S
C49 O55 1.208 . S
C50 O42 1.315 . S
C50 O45 1.279 . S
C51 O52 1.315 . S
C51 O53 1.279 . S
O52 Cd44 2.223 . S
O52 C51 1.315 . S
O53 Cd43 2.240 . S
O53 C51 1.279 . S
O54 Cd44 2.297 . S
O54 C49 1.247 . S
O55 Cd44 2.439 . S
O55 C49 1.208 . S
O56 Cd57 2.223 . S
O56 C64 1.315 . S
Cd57 O56 2.223 . S
Cd57 O60 2.297 . S
Cd57 O61 2.439 . S
Cd57 O67 2.241 1_556 S
Cd58 O59 2.240 . S
Cd58 O66 2.223 . S
Cd58 O68 2.297 . S
Cd58 O69 2.439 . S
O59 Cd58 2.240 . S
O59 C64 1.279 . S
O60 Cd57 2.297 . S
O60 C62 1.247 . S
O61 Cd57 2.439 . S
O61 C62 1.208 . S
C62 O60 1.247 . S
C62 O61 1.208 . S
C63 O68 1.247 . S
C63 O69 1.208 . S
C64 O56 1.315 . S
C64 O59 1.279 . S
C65 O66 1.315 1_554 S
C65 O67 1.279 . S
O66 Cd58 2.223 . S
O66 C65 1.315 1_556 S
O67 Cd57 2.241 1_554 S
O67 C65 1.279 . S
O68 Cd58 2.297 . S
O68 C63 1.247 . S
O69 Cd58 2.439 . S
O69 C63 1.208 . S
O70 Cd71 2.223 1_655 S
O70 C78 1.315 . S
Cd71 O70 2.223 1_455 S
Cd71 O74 2.297 . S
Cd71 O75 2.439 . S
Cd71 O81 2.241 1_454 S
Cd72 O73 2.240 . S
Cd72 O80 2.223 . S
Cd72 O82 2.297 . S
Cd72 O83 2.439 1_655 S
O73 Cd72 2.240 . S
O73 C78 1.279 . S
O74 Cd71 2.297 . S
O74 C76 1.247 . S
O75 Cd71 2.439 . S
O75 C76 1.208 . S
C76 O74 1.247 . S
C76 O75 1.208 . S
C77 O82 1.247 . S
C77 O83 1.208 1_655 S
C78 O70 1.315 . S
C78 O73 1.279 . S
C79 O80 1.315 1_556 S
C79 O81 1.279 . S
O80 Cd72 2.223 . S
O80 C79 1.315 1_554 S
O81 Cd71 2.241 1_656 S
O81 C79 1.279 . S
O82 Cd72 2.297 . S
O82 C77 1.247 . S
O83 Cd72 2.439 1_455 S
O83 C77 1.208 1_455 S
O84 Cd85 2.223 . S
O84 C92 1.315 . S
Cd85 O84 2.223 . S
Cd85 O88 2.297 . S
Cd85 O89 2.439 . S
Cd85 O95 2.241 1_554 S
Cd86 O87 2.240 . S
Cd86 O94 2.223 . S
Cd86 O96 2.297 . S
Cd86 O97 2.439 . S
O87 Cd86 2.240 . S
O87 C92 1.279 . S
O88 Cd85 2.297 . S
O88 C90 1.247 . S
O89 Cd85 2.439 . S
O89 C90 1.208 . S
C90 O88 1.247 . S
C90 O89 1.208 . S
C91 O96 1.247 . S
C91 O97 1.208 . S
C92 O84 1.315 . S
C92 O87 1.279 . S
C93 O94 1.315 1_556 S
C93 O95 1.279 . S
O94 Cd86 2.223 . S
O94 C93 1.315 1_554 S
O95 Cd85 2.241 1_556 S
O95 C93 1.279 . S
O96 Cd86 2.297 . S
O96 C91 1.247 . S
O97 Cd86 2.439 . S
O97 C91 1.208 . S
O98 Cd99 2.223 1_455 S
O98 C106 1.315 . S
Cd99 O98 2.223 1_655 S
Cd99 O102 2.297 . S
Cd99 O103 2.439 . S
Cd99 O109 2.241 1_656 S
Cd100 O101 2.240 . S
Cd100 O108 2.223 . S
Cd100 O110 2.297 . S
Cd100 O111 2.439 1_455 S
O101 Cd100 2.240 . S
O101 C106 1.279 . S
O102 Cd99 2.297 . S
O102 C104 1.247 . S
O103 Cd99 2.439 . S
O103 C104 1.208 . S
C104 O102 1.247 . S
C104 O103 1.208 . S
C105 O110 1.247 . S
C105 O111 1.208 1_455 S
C106 O98 1.315 . S
C106 O101 1.279 . S
C107 O108 1.315 1_554 S
C107 O109 1.279 . S
O108 Cd100 2.223 . S
O108 C107 1.315 1_556 S
O109 Cd99 2.241 1_454 S
O109 C107 1.279 . S
O110 Cd100 2.297 . S
O110 C105 1.247 . S
O111 Cd100 2.439 1_655 S
O111 C105 1.208 1_655 S
C7 C35 1.529 1_455 S
C49 C21 1.529 . S
C91 C63 1.529 1_544 S
C77 C105 1.529 1_664 S
C90 C6 2.202 . S
C20 C104 2.202 . S
C34 C62 2.202 . S
C48 C76 2.202 . S
C92 C8 1.600 . S
C22 C106 1.600 . S
C64 C36 1.600 . S
C78 C50 1.600 . S
C23 C9 0.880 . S
C37 C51 0.880 . S
C79 C65 0.880 1_556 S
C93 C107 0.880 1_556 S
