# Generated by pormake.
# Topology qtz-x, (6)-cn, num edge types: 1
# Building blocks:
#     Node 0, Type 0, BuildingBlock: PAMTUU_clean_sbu_0, # of connection points: 6
#     Node 1, Type 0, BuildingBlock: PAMTUU_clean_sbu_0, # of connection points: 6
#     Node 2, Type 0, BuildingBlock: PAMTUU_clean_sbu_0, # of connection points: 6
#     Edge 3, Type (0, 0), BuildingBlock: AJUNOK_clean_linker_0, # of connection points: 2
#     Edge 4, Type (0, 0), BuildingBlock: AJUNOK_clean_linker_0, # of connection points: 2
#     Edge 5, Type (0, 0), BuildingBlock: AJUNOK_clean_linker_0, # of connection points: 2
#     Edge 6, Type (0, 0), BuildingBlock: AJUNOK_clean_linker_0, # of connection points: 2
#     Edge 7, Type (0, 0), BuildingBlock: AJUNOK_clean_linker_0, # of connection points: 2
#     Edge 8, Type (0, 0), BuildingBlock: AJUNOK_clean_linker_0, # of connection points: 2
#     Edge 9, Type (0, 0), BuildingBlock: AJUNOK_clean_linker_0, # of connection points: 2
#     Edge 10, Type (0, 0), BuildingBlock: AJUNOK_clean_linker_0, # of connection points: 2
#     Edge 11, Type (0, 0), BuildingBlock: AJUNOK_clean_linker_0, # of connection points: 2
# Relax obj value: 0.135
# Max RMSD: 0.238
# Mean RMSD: 0.238
data_MOF--net-qtz-x--node1-PAMTUU_clean_sbu_0--edge1-AJUNOK_clean_linker_0
_symmetry_space_group_name_H-M    P1
_symmetry_Int_Tables_number       1
_symmetry_cell_setting            triclinic
loop_
_symmetry_equiv_pos_as_xyz
'x, y, z'
_cell_length_a     11.03052
_cell_length_b     11.040733
_cell_length_c     43.152301
_cell_angle_alpha  89.743949
_cell_angle_beta   90.291326
_cell_angle_gamma 119.98198
loop_
_atom_site_label
_atom_site_type_symbol
_atom_site_fract_x
_atom_site_fract_y
_atom_site_fract_z
_atom_type_partial_charge
Tb0 Tb 0.17424 0.73474 0.17629 0.0
Tb1 Tb 0.87005 0.57822 0.213 0.0
C2 C 0.02421 0.4186 0.19534 0.0
C3 C 0.39938 0.83203 0.10759 0.0
C4 C 0.39883 0.77699 0.04359 0.0
C5 C 0.44056 0.71059 0.0656 0.0
C6 C 0.44115 0.738 0.09722 0.0
C7 C 0.36413 0.90357 0.08538 0.0
C8 C 0.36447 0.8767 0.05371 0.0
C9 C 0.38502 0.84907 0.1413 0.0
O10 O 1.01002 0.68733 0.14237 0.0
O11 O 0.81812 0.5032 0.1653 0.0
O12 O 0.90486 0.77308 0.19268 0.0
O13 O 0.14179 0.89309 0.19802 0.0
O14 O 0.68494 0.40266 0.22879 0.0
O15 O 0.73273 0.61148 0.24042 0.0
O16 O 0.03042 0.67514 0.24853 0.0
O17 O 0.23654 0.7254 0.22388 0.0
O18 O 0.09017 0.50969 0.17311 0.0
O19 O 0.95932 0.44375 0.21757 0.0
C20 C 0.88593 0.57485 0.14057 0.0
O21 O 0.3106 0.90621 0.14879 0.0
O22 O 0.35603 0.7419 0.15904 0.0
C23 C 0.02245 0.89149 0.19592 0.0
C24 C 0.64036 0.44472 0.27999 0.0
C25 C 0.62549 0.39806 0.34463 0.0
C26 C 0.51534 0.40141 0.32873 0.0
C27 C 0.52305 0.42518 0.29664 0.0
C28 C 0.75033 0.442 0.29587 0.0
C29 C 0.7435 0.4197 0.32788 0.0
C30 C 0.65455 0.4789 0.24664 0.0
C31 C 0.16246 0.70754 0.24906 0.0
H32 H 0.47112 0.63584 0.05834 0.0
H33 H 0.47103 0.68282 0.1136 0.0
H34 H 0.33347 0.97839 0.09247 0.0
H35 H 0.33347 0.93047 0.0372 0.0
H36 H 0.42369 0.38633 0.34115 0.0
H37 H 0.43807 0.4292 0.2849 0.0
H38 H 0.84166 0.45734 0.2834 0.0
H39 H 0.82923 0.41637 0.33943 0.0
Tb40 Tb 0.49121 0.9495 0.51054 0.0
Tb41 Tb 0.647 0.25821 0.54563 0.0
C42 C 0.33075 0.10472 0.52873 0.0
C43 C 0.36817 0.72215 0.44246 0.0
C44 C 0.32288 0.7154 0.37757 0.0
C45 C 0.20938 0.65752 0.39834 0.0
C46 C 0.23177 0.66071 0.43036 0.0
C47 C 0.48164 0.77722 0.42164 0.0
C48 C 0.45916 0.77353 0.38961 0.0
C49 C 0.3916 0.73571 0.47655 0.0
O50 O 0.59563 0.10728 0.47499 0.0
O51 O 0.62652 0.31 0.49768 0.0
O52 O 0.80443 0.22324 0.52456 0.0
O53 O 0.68762 0.98664 0.53073 0.0
O54 O 0.65614 0.44292 0.56142 0.0
O55 O 0.8194 0.39675 0.57266 0.0
O56 O 0.59482 0.09945 0.58102 0.0
O57 O 0.42126 0.89682 0.55843 0.0
O58 O 0.35265 0.03582 0.50683 0.0
O59 O 0.42344 0.17096 0.55057 0.0
C60 C 0.61489 0.23446 0.47311 0.0
O61 O 0.52148 0.80352 0.48583 0.0
O62 O 0.31405 0.77139 0.49246 0.0
C63 C 0.80505 0.10568 0.52794 0.0
C64 C 0.74606 0.48958 0.61312 0.0
C65 C 0.70101 0.50137 0.67739 0.0
C66 C 0.80692 0.47623 0.66709 0.0
C67 C 0.82985 0.47132 0.63532 0.0
C68 C 0.64117 0.51637 0.62352 0.0
C69 C 0.61875 0.52179 0.65524 0.0
C70 C 0.76277 0.47236 0.57949 0.0
C71 C 0.48711 0.97211 0.58295 0.0
H72 H 0.10292 0.61232 0.38984 0.0
H73 H 0.14229 0.6175 0.44572 0.0
H74 H 0.58839 0.82496 0.43003 0.0
H75 H 0.54861 0.8158 0.37428 0.0
H76 H 0.87269 0.46137 0.6836 0.0
H77 H 0.91217 0.45125 0.62818 0.0
H78 H 0.57436 0.53057 0.60719 0.0
H79 H 0.5347 0.53912 0.66245 0.0
Tb80 Tb 0.39417 0.62754 0.84344 0.0
Tb81 Tb 0.5473 0.47259 0.87918 0.0
C82 C 0.7085 0.78791 0.86124 0.0
C83 C 0.29385 0.76345 0.77617 0.0
C84 C 0.33402 0.82193 0.71182 0.0
C85 C 0.40343 0.92908 0.73382 0.0
C86 C 0.38302 0.90034 0.76557 0.0
C87 C 0.2228 0.65656 0.75415 0.0
C88 C 0.24313 0.68545 0.72237 0.0
C89 C 0.28123 0.73145 0.80991 0.0
O90 O 0.44155 0.51819 0.80827 0.0
O91 O 0.61523 0.48893 0.83096 0.0
O92 O 0.35251 0.31255 0.85871 0.0
O93 O 0.23487 0.43253 0.86362 0.0
O94 O 0.72535 0.46719 0.89522 0.0
O95 O 0.51797 0.30198 0.90649 0.0
O96 O 0.43318 0.51813 0.91386 0.0
O97 O 0.41229 0.69663 0.89133 0.0
O98 O 0.61833 0.76048 0.83874 0.0
O99 O 0.68362 0.69755 0.88363 0.0
C100 C 0.54927 0.49866 0.80634 0.0
O101 O 0.22074 0.5996 0.81748 0.0
O102 O 0.39208 0.80644 0.82693 0.0
C103 C 0.23476 0.31431 0.86079 0.0
C104 C 0.68669 0.37562 0.9468 0.0
C105 C 0.74003 0.42074 1.01136 0.0
C106 C 0.61748 0.30329 1.00047 0.0
C107 C 0.59147 0.28067 0.96857 0.0
C108 C 0.81189 0.4899 0.95774 0.0
C109 C 0.83802 0.51217 0.98958 0.0
C110 C 0.65073 0.35984 0.91316 0.0
C111 C 0.41104 0.62432 0.91576 0.0
H112 H 0.47678 0.03487 0.72652 0.0
H113 H 0.43966 0.98494 0.78185 0.0
H114 H 0.15276 0.54981 0.7614 0.0
H115 H 0.18756 0.60095 0.70603 0.0
H116 H 0.53933 0.23136 1.01656 0.0
H117 H 0.49455 0.19082 0.96098 0.0
H118 H 0.88852 0.56435 0.94174 0.0
H119 H 0.93457 0.60237 0.99722 0.0
C120 C 0.13728 0.14826 0.18517 0.0
C121 C 0.02075 0.02463 0.19602 0.0
C122 C 0.13677 0.2751 0.18446 0.0
C123 C 0.02114 0.28332 0.19531 0.0
H124 H 0.22888 0.14676 0.17674 0.0
H125 H 0.22848 0.36777 0.17585 0.0
S126 S 0.69006 0.99 0.22608 0.0
N127 N 0.78609 0.91838 0.21757 0.0
N128 N 0.78656 0.15704 0.21693 0.0
C129 C 0.90429 0.16072 0.20637 0.0
C130 C 0.90369 0.03125 0.20652 0.0
C131 C 0.07641 0.9957 0.51589 0.0
C132 C 0.19808 0.10723 0.5289 0.0
C133 C 0.94896 0.99499 0.51609 0.0
C134 C 0.93966 0.10741 0.5286 0.0
H135 H 0.07911 0.90738 0.50581 0.0
H136 H 0.85763 0.90683 0.50592 0.0
S137 S 0.22771 0.42491 0.56542 0.0
N138 N 0.30083 0.33253 0.55492 0.0
N139 N 0.06222 0.33263 0.55455 0.0
C140 C 0.0606 0.21997 0.54151 0.0
C141 C 0.1896 0.21944 0.54188 0.0
C142 C 0.96328 0.93311 0.87397 0.0
C143 C 0.84115 0.9231 0.86111 0.0
C144 C 0.09095 0.05965 0.87333 0.0
C145 C 0.10003 0.1813 0.86052 0.0
H146 H 0.96079 0.84205 0.88418 0.0
H147 H 0.18266 0.06269 0.88338 0.0
S148 S 0.81006 0.21101 0.82427 0.0
N149 N 0.73738 0.04576 0.83515 0.0
N150 N 0.97615 0.28392 0.83467 0.0
C151 C 0.97839 0.17301 0.84787 0.0
C152 C 0.84925 0.04375 0.84795 0.0
C153 C 0.45602 0.80498 0.95618 0.0
C154 C 0.38894 0.6638 0.94707 0.0
C155 C 0.45554 0.84185 0.98735 0.0
C156 C 0.38767 0.7386 1.0103 0.0
H157 H 0.51508 0.88699 0.93946 0.0
H158 H 0.51324 0.95134 0.99372 0.0
S159 S 0.17572 0.35611 0.99723 0.0
N160 N 0.23911 0.42192 0.96273 0.0
N161 N 0.23621 0.49106 1.02096 0.0
C162 C 0.31266 0.59794 1.00101 0.0
C163 C 0.31382 0.56059 0.96948 0.0
C164 C 0.72189 0.41174 0.43018 0.0
C165 C 0.61108 0.28578 0.44164 0.0
C166 C 0.72471 0.44954 0.39885 0.0
C167 C 0.61521 0.36423 0.37828 0.0
H168 H 0.80934 0.47814 0.4451 0.0
H169 H 0.81406 0.54504 0.39052 0.0
S170 S 0.2978 0.02822 0.39781 0.0
N171 N 0.38761 0.07854 0.43052 0.0
N172 N 0.39095 0.15125 0.3722 0.0
C173 C 0.50155 0.24105 0.38996 0.0
C174 C 0.50012 0.20141 0.4215 0.0
C175 C 0.38856 0.76748 0.65863 0.0
C176 C 0.35934 0.85247 0.67803 0.0
C177 C 0.4237 0.80178 0.62721 0.0
C178 C 0.43166 0.92267 0.61437 0.0
H179 H 0.38911 0.67665 0.66806 0.0
H180 H 0.45034 0.73694 0.61332 0.0
S181 S 0.34697 0.16894 0.65376 0.0
N182 N 0.3261 0.05389 0.68079 0.0
N183 N 0.39646 0.12045 0.62238 0.0
C184 C 0.39726 1.00484 0.6331 0.0
C185 C 0.36006 0.96932 0.66477 0.0
C186 C 0.80884 0.58965 0.05554 0.0
C187 C 0.76388 0.45278 0.04517 0.0
C188 C 0.84113 0.62629 0.08681 0.0
C189 C 0.8275 0.52716 0.10913 0.0
H190 H 0.82136 0.67001 0.03925 0.0
H191 H 0.88 0.73407 0.09348 0.0
S192 S 0.71905 0.15633 0.09429 0.0
N193 N 0.71045 0.21827 0.05993 0.0
N194 N 0.76821 0.28711 0.11886 0.0
C195 C 0.77914 0.38915 0.0994 0.0
C196 C 0.74788 0.35193 0.0674 0.0
C197 C 0.15351 0.58953 0.29857 0.0
C198 C 0.22191 0.70958 0.27989 0.0
C199 C 0.19022 0.59147 0.32974 0.0
C200 C 0.29721 0.71383 0.34354 0.0
H201 H 0.06889 0.49353 0.28913 0.0
H202 H 0.13256 0.4967 0.34328 0.0
S203 S 0.51412 0.05458 0.30372 0.0
N204 N 0.40563 0.95212 0.27656 0.0
N205 N 0.47614 0.95731 0.33532 0.0
C206 C 0.37115 0.83334 0.3246 0.0
C207 C 0.33318 0.83088 0.29271 0.0
C208 C 0.62496 0.3988 0.76291 0.0
C209 C 0.60425 0.50541 0.77479 0.0
C210 C 0.65991 0.39942 0.73147 0.0
C211 C 0.67585 0.507 0.71112 0.0
H212 H 0.60854 0.312 0.77756 0.0
H213 H 0.66983 0.31287 0.7228 0.0
S214 S 0.65435 0.82057 0.73255 0.0
N215 N 0.61565 0.72759 0.76476 0.0
N216 N 0.68398 0.73023 0.70631 0.0
C217 C 0.66269 0.61747 0.72338 0.0
C218 C 0.6263 0.61626 0.75505 0.0
loop_
_geom_bond_atom_site_label_1
_geom_bond_atom_site_label_2
_geom_bond_distance
_geom_bond_site_symmetry_2
_ccdc_geom_bond_type
Tb0 C9 2.764 . S
Tb0 O10 2.325 . S
Tb0 O13 2.303 . S
Tb0 O17 2.322 . S
Tb0 O18 2.349 . S
Tb0 O21 2.415 . S
Tb0 O22 2.399 . S
Tb1 O11 2.322 . S
Tb1 O12 2.349 . S
Tb1 O14 2.415 . S
Tb1 O15 2.399 . S
Tb1 O16 2.325 1_655 S
Tb1 O19 2.303 1_655 S
Tb1 C30 2.764 . S
C2 O18 1.261 . S
C2 O19 1.257 . S
C3 C6 1.358 . S
C3 C7 1.332 . S
C3 C9 1.504 . S
C4 C5 1.373 . S
C4 C8 1.308 . S
C5 C4 1.373 . S
C5 C6 1.429 . S
C5 H32 0.932 . S
C6 C3 1.358 . S
C6 C5 1.429 . S
C6 H33 0.930 . S
C7 C3 1.332 . S
C7 C8 1.394 . S
C7 H34 0.932 . S
C8 C4 1.308 . S
C8 C7 1.394 . S
C8 H35 0.929 1_565 S
C9 Tb0 2.764 . S
C9 C3 1.504 . S
C9 O21 1.239 . S
C9 O22 1.263 . S
O10 Tb0 2.325 . S
O10 C20 1.236 1_455 S
O11 Tb1 2.322 . S
O11 C20 1.257 . S
O12 Tb1 2.349 . S
O12 C23 1.261 1_655 S
O13 Tb0 2.303 . S
O13 C23 1.257 . S
O14 Tb1 2.415 . S
O14 C30 1.239 . S
O15 Tb1 2.399 . S
O15 C30 1.263 . S
O16 Tb1 2.325 1_455 S
O16 C31 1.236 . S
O17 Tb0 2.322 . S
O17 C31 1.257 . S
O18 Tb0 2.349 . S
O18 C2 1.261 . S
O19 Tb1 2.303 1_455 S
O19 C2 1.257 . S
C20 O10 1.236 1_655 S
C20 O11 1.257 . S
O21 Tb0 2.415 . S
O21 C9 1.239 . S
O22 Tb0 2.399 . S
O22 C9 1.263 . S
C23 O12 1.261 1_455 S
C23 O13 1.257 . S
C24 C27 1.358 . S
C24 C28 1.332 . S
C24 C30 1.504 . S
C25 C26 1.373 . S
C25 C29 1.308 . S
C26 C25 1.373 . S
C26 C27 1.429 . S
C26 H36 0.932 . S
C27 C24 1.358 . S
C27 C26 1.429 . S
C27 H37 0.930 . S
C28 C24 1.332 . S
C28 C29 1.394 . S
C28 H38 0.932 . S
C29 C25 1.308 . S
C29 C28 1.394 . S
C29 H39 0.929 . S
C30 Tb1 2.764 . S
C30 O14 1.239 . S
C30 O15 1.263 . S
C30 C24 1.504 . S
C31 O16 1.236 . S
C31 O17 1.257 . S
H32 C5 0.932 . S
H33 C6 0.930 . S
H34 C7 0.932 . S
H35 C8 0.929 1_545 S
H36 C26 0.932 . S
H37 C27 0.930 . S
H38 C28 0.932 . S
H39 C29 0.929 . S
Tb40 C49 2.764 . S
Tb40 O50 2.325 1_565 S
Tb40 O53 2.303 . S
Tb40 O57 2.322 . S
Tb40 O58 2.349 . S
Tb40 O61 2.415 . S
Tb40 O62 2.399 . S
Tb41 O51 2.322 . S
Tb41 O52 2.349 . S
Tb41 O54 2.415 . S
Tb41 O55 2.399 . S
Tb41 O56 2.325 1_545 S
Tb41 O59 2.303 . S
Tb41 C70 2.764 . S
C42 O58 1.261 . S
C42 O59 1.257 1_565 S
C43 C46 1.358 . S
C43 C47 1.332 . S
C43 C49 1.504 . S
C44 C45 1.373 . S
C44 C48 1.308 . S
C45 C44 1.373 . S
C45 C46 1.429 . S
C45 H72 0.932 . S
C46 C43 1.358 . S
C46 C45 1.429 . S
C46 H73 0.930 . S
C47 C43 1.332 . S
C47 C48 1.394 . S
C47 H74 0.932 . S
C48 C44 1.308 . S
C48 C47 1.394 . S
C48 H75 0.929 . S
C49 Tb40 2.764 . S
C49 C43 1.504 . S
C49 O61 1.239 . S
C49 O62 1.263 . S
O50 Tb40 2.325 1_545 S
O50 C60 1.236 . S
O51 Tb41 2.322 . S
O51 C60 1.257 . S
O52 Tb41 2.349 . S
O52 C63 1.261 . S
O53 Tb40 2.303 . S
O53 C63 1.257 1_565 S
O54 Tb41 2.415 . S
O54 C70 1.239 . S
O55 Tb41 2.399 . S
O55 C70 1.263 . S
O56 Tb41 2.325 1_565 S
O56 C71 1.236 . S
O57 Tb40 2.322 . S
O57 C71 1.257 . S
O58 Tb40 2.349 . S
O58 C42 1.261 . S
O59 Tb41 2.303 . S
O59 C42 1.257 1_545 S
C60 O50 1.236 . S
C60 O51 1.257 . S
O61 Tb40 2.415 . S
O61 C49 1.239 . S
O62 Tb40 2.399 . S
O62 C49 1.263 . S
C63 O52 1.261 . S
C63 O53 1.257 1_545 S
C64 C67 1.358 . S
C64 C68 1.332 . S
C64 C70 1.504 . S
C65 C66 1.373 . S
C65 C69 1.308 . S
C66 C65 1.373 . S
C66 C67 1.429 . S
C66 H76 0.932 . S
C67 C64 1.358 . S
C67 C66 1.429 . S
C67 H77 0.930 . S
C68 C64 1.332 . S
C68 C69 1.394 . S
C68 H78 0.932 . S
C69 C65 1.308 . S
C69 C68 1.394 . S
C69 H79 0.929 . S
C70 Tb41 2.764 . S
C70 O54 1.239 . S
C70 O55 1.263 . S
C70 C64 1.504 . S
C71 O56 1.236 . S
C71 O57 1.257 . S
H72 C45 0.932 . S
H73 C46 0.930 . S
H74 C47 0.932 . S
H75 C48 0.929 . S
H76 C66 0.932 . S
H77 C67 0.930 . S
H78 C68 0.932 . S
H79 C69 0.929 . S
Tb80 C89 2.764 . S
Tb80 O90 2.325 . S
Tb80 O93 2.303 . S
Tb80 O97 2.322 . S
Tb80 O98 2.349 . S
Tb80 O101 2.415 . S
Tb80 O102 2.399 . S
Tb81 O91 2.322 . S
Tb81 O92 2.349 . S
Tb81 O94 2.415 . S
Tb81 O95 2.399 . S
Tb81 O96 2.325 . S
Tb81 O99 2.303 . S
Tb81 C110 2.764 . S
C82 O98 1.261 . S
C82 O99 1.257 . S
C83 C86 1.358 . S
C83 C87 1.332 . S
C83 C89 1.504 . S
C84 C85 1.373 . S
C84 C88 1.308 . S
C85 C84 1.373 . S
C85 C86 1.429 . S
C85 H112 0.932 . S
C86 C83 1.358 . S
C86 C85 1.429 . S
C86 H113 0.930 . S
C87 C83 1.332 . S
C87 C88 1.394 . S
C87 H114 0.932 . S
C88 C84 1.308 . S
C88 C87 1.394 . S
C88 H115 0.929 . S
C89 Tb80 2.764 . S
C89 C83 1.504 . S
C89 O101 1.239 . S
C89 O102 1.263 . S
O90 Tb80 2.325 . S
O90 C100 1.236 . S
O91 Tb81 2.322 . S
O91 C100 1.257 . S
O92 Tb81 2.349 . S
O92 C103 1.261 . S
O93 Tb80 2.303 . S
O93 C103 1.257 . S
O94 Tb81 2.415 . S
O94 C110 1.239 . S
O95 Tb81 2.399 . S
O95 C110 1.263 . S
O96 Tb81 2.325 . S
O96 C111 1.236 . S
O97 Tb80 2.322 . S
O97 C111 1.257 . S
O98 Tb80 2.349 . S
O98 C82 1.261 . S
O99 Tb81 2.303 . S
O99 C82 1.257 . S
C100 O90 1.236 . S
C100 O91 1.257 . S
O101 Tb80 2.415 . S
O101 C89 1.239 . S
O102 Tb80 2.399 . S
O102 C89 1.263 . S
C103 O92 1.261 . S
C103 O93 1.257 . S
C104 C107 1.358 . S
C104 C108 1.332 . S
C104 C110 1.504 . S
C105 C106 1.373 . S
C105 C109 1.308 . S
C106 C105 1.373 . S
C106 C107 1.429 . S
C106 H116 0.932 . S
C107 C104 1.358 . S
C107 C106 1.429 . S
C107 H117 0.930 . S
C108 C104 1.332 . S
C108 C109 1.394 . S
C108 H118 0.932 . S
C109 C105 1.308 . S
C109 C108 1.394 . S
C109 H119 0.929 . S
C110 Tb81 2.764 . S
C110 O94 1.239 . S
C110 O95 1.263 . S
C110 C104 1.504 . S
C111 O96 1.236 . S
C111 O97 1.257 . S
H112 C85 0.932 . S
H113 C86 0.930 . S
H114 C87 0.932 . S
H115 C88 0.929 . S
H116 C106 0.932 . S
H117 C107 0.930 . S
H118 C108 0.932 . S
H119 C109 0.929 . S
C120 C121 1.369 . S
C120 C122 1.419 . S
C120 H124 0.930 . S
C121 C120 1.369 . S
C121 C130 1.429 . S
C122 C120 1.419 . S
C122 C123 1.363 . S
C122 H125 0.929 . S
C123 C122 1.363 . S
C123 C129 1.428 . S
H124 C120 0.930 . S
H125 C122 0.929 . S
S126 N127 1.613 . S
S126 N128 1.610 1_565 S
N127 S126 1.613 . S
N127 C130 1.350 1_665 S
N128 S126 1.610 1_545 S
N128 C129 1.351 1_655 S
C129 C123 1.428 . S
C129 N128 1.351 1_455 S
C129 C130 1.434 . S
C130 C121 1.429 . S
C130 N127 1.350 1_445 S
C130 C129 1.434 . S
C131 C132 1.372 . S
C131 C133 1.419 1_455 S
C131 H135 0.930 . S
C132 C131 1.372 . S
C132 C141 1.431 1_445 S
C133 C131 1.419 1_655 S
C133 C134 1.363 1_545 S
C133 H136 0.929 . S
C134 C133 1.363 1_565 S
C134 C140 1.428 . S
H135 C131 0.930 . S
H136 C133 0.929 . S
S137 N138 1.613 1_655 S
S137 N139 1.610 . S
N138 S137 1.613 1_455 S
N138 C141 1.350 1_455 S
N139 S137 1.610 . S
N139 C140 1.351 . S
C140 C134 1.428 . S
C140 N139 1.351 . S
C140 C141 1.434 . S
C141 C132 1.431 1_665 S
C141 N138 1.350 1_655 S
C141 C140 1.434 . S
C142 C143 1.369 . S
C142 C144 1.419 1_655 S
C142 H146 0.930 . S
C143 C142 1.369 . S
C143 C152 1.429 . S
C144 C142 1.419 1_455 S
C144 C145 1.363 . S
C144 H147 0.929 . S
C145 C144 1.363 . S
C145 C151 1.428 . S
H146 C142 0.930 . S
H147 C144 0.929 . S
S148 N149 1.613 . S
S148 N150 1.610 1_655 S
N149 S148 1.613 . S
N149 C152 1.350 . S
N150 S148 1.610 1_455 S
N150 C151 1.351 . S
C151 C145 1.428 . S
C151 N150 1.351 . S
C151 C152 1.434 1_455 S
C152 C143 1.429 . S
C152 N149 1.350 . S
C152 C151 1.434 1_655 S
C153 C154 1.369 . S
C153 C155 1.419 . S
C153 H157 0.930 . S
C154 C153 1.369 . S
C154 C163 1.429 . S
C155 C153 1.419 . S
C155 C156 1.363 . S
C155 H158 0.929 1_565 S
C156 C155 1.363 . S
C156 C162 1.428 . S
H157 C153 0.930 . S
H158 C155 0.929 1_545 S
S159 N160 1.613 . S
S159 N161 1.610 . S
N160 S159 1.613 . S
N160 C163 1.350 . S
N161 S159 1.610 . S
N161 C162 1.351 . S
C162 C156 1.428 . S
C162 N161 1.351 . S
C162 C163 1.434 . S
C163 C154 1.429 . S
C163 N160 1.350 . S
C163 C162 1.434 . S
C164 C165 1.369 . S
C164 C166 1.419 . S
C164 H168 0.930 . S
C165 C164 1.369 . S
C165 C174 1.429 . S
C166 C164 1.419 . S
C166 C167 1.363 . S
C166 H169 0.929 . S
C167 C166 1.363 . S
C167 C173 1.428 . S
H168 C164 0.930 . S
H169 C166 0.929 . S
S170 N171 1.613 1_565 S
S170 N172 1.610 1_565 S
N171 S170 1.613 1_545 S
N171 C174 1.350 . S
N172 S170 1.610 1_545 S
N172 C173 1.351 . S
C173 C167 1.428 . S
C173 N172 1.351 . S
C173 C174 1.434 . S
C174 C165 1.429 . S
C174 N171 1.350 . S
C174 C173 1.434 . S
C175 C176 1.369 . S
C175 C177 1.419 . S
C175 H179 0.930 . S
C176 C175 1.369 . S
C176 C185 1.429 . S
C177 C175 1.419 . S
C177 C178 1.363 . S
C177 H180 0.929 . S
C178 C177 1.363 . S
C178 C184 1.428 . S
H179 C175 0.930 . S
H180 C177 0.929 . S
S181 N182 1.613 . S
S181 N183 1.610 . S
N182 S181 1.613 . S
N182 C185 1.350 1_545 S
N183 S181 1.610 . S
N183 C184 1.351 1_545 S
C184 C178 1.428 . S
C184 N183 1.351 1_565 S
C184 C185 1.434 . S
C185 C176 1.429 . S
C185 N182 1.350 1_565 S
C185 C184 1.434 . S
C186 C187 1.369 . S
C186 C188 1.419 . S
C186 H190 0.930 . S
C187 C186 1.369 . S
C187 C196 1.429 . S
C188 C186 1.419 . S
C188 C189 1.363 . S
C188 H191 0.929 . S
C189 C188 1.363 . S
C189 C195 1.428 . S
H190 C186 0.930 . S
H191 C188 0.929 . S
S192 N193 1.613 . S
S192 N194 1.610 . S
N193 S192 1.613 . S
N193 C196 1.350 . S
N194 S192 1.610 . S
N194 C195 1.351 . S
C195 C189 1.428 . S
C195 N194 1.351 . S
C195 C196 1.434 . S
C196 C187 1.429 . S
C196 N193 1.350 . S
C196 C195 1.434 . S
C197 C198 1.369 . S
C197 C199 1.419 . S
C197 H201 0.930 . S
C198 C197 1.369 . S
C198 C207 1.429 . S
C199 C197 1.419 . S
C199 C200 1.363 . S
C199 H202 0.929 . S
C200 C199 1.363 . S
C200 C206 1.428 . S
H201 C197 0.930 . S
H202 C199 0.929 . S
S203 N204 1.613 . S
S203 N205 1.610 . S
N204 S203 1.613 . S
N204 C207 1.350 . S
N205 S203 1.610 . S
N205 C206 1.351 . S
C206 C200 1.428 . S
C206 N205 1.351 . S
C206 C207 1.434 . S
C207 C198 1.429 . S
C207 N204 1.350 . S
C207 C206 1.434 . S
C208 C209 1.369 . S
C208 C210 1.419 . S
C208 H212 0.930 . S
C209 C208 1.369 . S
C209 C218 1.429 . S
C210 C208 1.419 . S
C210 C211 1.363 . S
C210 H213 0.929 . S
C211 C210 1.363 . S
C211 C217 1.428 . S
H212 C208 0.930 . S
H213 C210 0.929 . S
S214 N215 1.613 . S
S214 N216 1.610 . S
N215 S214 1.613 . S
N215 C218 1.350 . S
N216 S214 1.610 . S
N216 C217 1.351 . S
C217 C211 1.428 . S
C217 N216 1.351 . S
C217 C218 1.434 . S
C218 C209 1.429 . S
C218 N215 1.350 . S
C218 C217 1.434 . S
C121 C23 1.642 1_545 S
C123 C2 1.649 . S
C132 C42 1.642 1_545 S
C134 C63 1.644 1_565 S
C143 C82 1.644 1_545 S
C145 C103 1.648 . S
C154 C111 1.599 . S
C156 C4 1.433 1_556 S
C165 C60 1.462 . S
C167 C25 1.434 . S
C176 C84 1.443 . S
C178 C71 1.595 . S
C187 C105 1.437 1_554 S
C189 C20 1.463 . S
C198 C31 1.602 . S
C200 C44 1.433 . S
C209 C100 1.464 . S
C211 C65 1.431 . S
