# Generated by pormake.
# Topology unj, (4)-cn, num edge types: 1
# Building blocks:
#     Node 0, Type 0, BuildingBlock: TATPOV_clean_sbu_0, # of connection points: 4
#     Node 1, Type 0, BuildingBlock: TATPOV_clean_sbu_0, # of connection points: 4
#     Node 2, Type 0, BuildingBlock: TATPOV_clean_sbu_0, # of connection points: 4
#     Node 3, Type 0, BuildingBlock: TATPOV_clean_sbu_0, # of connection points: 4
#     Node 4, Type 0, BuildingBlock: TATPOV_clean_sbu_0, # of connection points: 4
#     Node 5, Type 0, BuildingBlock: TATPOV_clean_sbu_0, # of connection points: 4
#     Edge 6, Type (0, 0), BuildingBlock: EYOCIG_clean_linker_4, # of connection points: 2
#     Edge 7, Type (0, 0), BuildingBlock: EYOCIG_clean_linker_4, # of connection points: 2
#     Edge 8, Type (0, 0), BuildingBlock: EYOCIG_clean_linker_4, # of connection points: 2
#     Edge 9, Type (0, 0), BuildingBlock: EYOCIG_clean_linker_4, # of connection points: 2
#     Edge 10, Type (0, 0), BuildingBlock: EYOCIG_clean_linker_4, # of connection points: 2
#     Edge 11, Type (0, 0), BuildingBlock: EYOCIG_clean_linker_4, # of connection points: 2
#     Edge 12, Type (0, 0), BuildingBlock: EYOCIG_clean_linker_4, # of connection points: 2
#     Edge 13, Type (0, 0), BuildingBlock: EYOCIG_clean_linker_4, # of connection points: 2
#     Edge 14, Type (0, 0), BuildingBlock: EYOCIG_clean_linker_4, # of connection points: 2
#     Edge 15, Type (0, 0), BuildingBlock: EYOCIG_clean_linker_4, # of connection points: 2
#     Edge 16, Type (0, 0), BuildingBlock: EYOCIG_clean_linker_4, # of connection points: 2
#     Edge 17, Type (0, 0), BuildingBlock: EYOCIG_clean_linker_4, # of connection points: 2
# Relax obj value: 0.021
# Max RMSD: 0.060
# Mean RMSD: 0.060
data_MOF--net-unj--node1-TATPOV_clean_sbu_0--edge1-EYOCIG_clean_linker_4
_symmetry_space_group_name_H-M    P1
_symmetry_Int_Tables_number       1
_symmetry_cell_setting            triclinic
loop_
_symmetry_equiv_pos_as_xyz
'x, y, z'
_cell_length_a     28.543728
_cell_length_b     28.552004
_cell_length_c     27.189613
_cell_angle_alpha  89.972147
_cell_angle_beta   90.047086
_cell_angle_gamma 119.96602
loop_
_atom_site_label
_atom_site_type_symbol
_atom_site_fract_x
_atom_site_fract_y
_atom_site_fract_z
_atom_type_partial_charge
Zn0 Zn 0.35231 0.12508 0.65989 0.0
Zn1 Zn 0.42071 0.18953 0.58789 0.0
O2 O 0.37855 0.2283 0.60691 0.0
O3 O 0.32241 0.17587 0.66466 0.0
O4 O 0.46817 0.23393 0.53126 0.0
O5 O 0.31998 0.0618 0.61279 0.0
O6 O 0.37604 0.1146 0.55532 0.0
C7 C 0.3412 0.21773 0.63802 0.0
C8 C 0.46562 0.17252 0.68484 0.0
O9 O 0.47358 0.19414 0.64235 0.0
O10 O 0.41822 0.14133 0.70046 0.0
C11 C 0.4958 0.28517 0.53226 0.0
O12 O 0.49548 0.31151 0.57166 0.0
C13 C 0.33819 0.06865 0.56942 0.0
Zn14 Zn 0.19457 0.36859 0.82731 0.0
Zn15 Zn 0.19843 0.43728 0.75554 0.0
O16 O 0.11753 0.39501 0.77451 0.0
O17 O 0.11385 0.33862 0.83205 0.0
O18 O 0.20138 0.48492 0.69908 0.0
O19 O 0.22561 0.33652 0.77999 0.0
O20 O 0.22877 0.3928 0.72274 0.0
C21 C 0.09077 0.35751 0.8055 0.0
C22 C 0.26026 0.48179 0.85255 0.0
O23 O 0.2466 0.48991 0.81011 0.0
O24 O 0.24411 0.43434 0.86803 0.0
C25 C 0.17804 0.51284 0.70036 0.0
O26 O 0.15179 0.51274 0.73998 0.0
C27 C 0.23695 0.35491 0.73666 0.0
Zn28 Zn 0.79226 0.21052 0.99354 0.0
Zn29 Zn 0.72787 0.2147 0.92147 0.0
O30 O 0.6891 0.13377 0.94038 0.0
O31 O 0.74146 0.12987 0.99819 0.0
O32 O 0.68348 0.21786 0.86479 0.0
O33 O 0.85561 0.24155 0.94653 0.0
O34 O 0.80286 0.24499 0.889 0.0
C35 C 0.69963 0.10691 0.97148 0.0
C36 C 0.74474 0.27633 0.01848 0.0
O37 O 0.72318 0.26281 0.97596 0.0
O38 O 0.77592 0.26006 0.03412 0.0
C39 C 0.63222 0.19413 0.86572 0.0
O40 O 0.60588 0.16735 0.90507 0.0
C41 C 0.84881 0.25303 0.90316 0.0
Zn42 Zn 0.54878 0.80937 0.16041 0.0
Zn43 Zn 0.47996 0.74461 0.08868 0.0
O44 O 0.52236 0.70604 0.10765 0.0
O45 O 0.57879 0.75866 0.16518 0.0
O46 O 0.43217 0.69989 0.0323 0.0
O47 O 0.58076 0.87243 0.11303 0.0
O48 O 0.52439 0.81939 0.05581 0.0
C49 C 0.5599 0.71674 0.13863 0.0
C50 C 0.43559 0.76196 0.18572 0.0
O51 O 0.42741 0.7402 0.14329 0.0
O52 O 0.48307 0.79322 0.20117 0.0
C53 C 0.40545 0.6486 0.03316 0.0
O54 O 0.40689 0.62243 0.07228 0.0
C55 C 0.5623 0.8654 0.06971 0.0
Zn56 Zn 0.70681 0.56491 0.32679 0.0
Zn57 Zn 0.70276 0.49651 0.25473 0.0
O58 O 0.78368 0.53856 0.2738 0.0
O59 O 0.78749 0.59472 0.33159 0.0
O60 O 0.69973 0.44912 0.19805 0.0
O61 O 0.67585 0.59733 0.27971 0.0
O62 O 0.67251 0.54127 0.22219 0.0
C63 C 0.8105 0.57589 0.30493 0.0
C64 C 0.64091 0.45163 0.3516 0.0
O65 O 0.65451 0.44365 0.30911 0.0
O66 O 0.65718 0.49902 0.36727 0.0
C67 C 0.7227 0.42086 0.19934 0.0
O68 O 0.74859 0.42044 0.23909 0.0
C69 C 0.66444 0.57915 0.23632 0.0
Zn70 Zn 0.10836 0.72303 0.49383 0.0
Zn71 Zn 0.17311 0.71895 0.42213 0.0
O72 O 0.21159 0.7999 0.44093 0.0
O73 O 0.15898 0.80373 0.49843 0.0
O74 O 0.21778 0.71583 0.36576 0.0
O75 O 0.0452 0.69182 0.44652 0.0
O76 O 0.09822 0.68846 0.38932 0.0
C77 C 0.20087 0.82673 0.47185 0.0
C78 C 0.15604 0.65748 0.51931 0.0
O79 O 0.17774 0.671 0.47687 0.0
O80 O 0.12472 0.67365 0.53471 0.0
C81 C 0.26909 0.74072 0.36639 0.0
O82 O 0.29537 0.76875 0.40529 0.0
C83 C 0.05218 0.68033 0.40324 0.0
C84 C 0.29421 -0.01804 0.51294 0.0
C85 C 0.31623 0.02329 0.53644 0.0
C86 C 0.2654 0.92992 0.49172 0.0
C87 C 0.23838 0.88305 0.48008 0.0
C88 C 0.30279 0.28241 0.65831 0.0
C89 C 0.32255 0.25536 0.64643 0.0
C90 C 0.27962 0.31116 0.67982 0.0
C91 C 0.26032 0.33307 0.70352 0.0
C92 C 0.93557 0.29577 0.84677 0.0
C93 C 0.89421 0.27645 0.87024 0.0
C94 C -0.0124 0.31897 0.82554 0.0
C95 C 0.03446 0.33876 0.81383 0.0
C96 C 0.60607 0.95186 1.01292 0.0
C97 C 0.58412 0.91062 0.03656 0.0
C98 C 0.63488 0.00382 0.99153 0.0
C99 C 0.66198 0.05064 0.97977 0.0
C100 C 0.62172 0.62325 0.17987 0.0
C101 C 0.64103 0.60118 0.20336 0.0
C102 C 0.5985 0.65212 0.15863 0.0
C103 C 0.57868 0.67919 0.14695 0.0
C104 C -0.03438 0.63746 0.3465 0.0
C105 C 0.0069 0.65683 0.37012 0.0
C106 C 0.91363 0.61425 0.3251 0.0
C107 C 0.86679 0.59452 0.31328 0.0
C108 C 0.55096 0.34057 0.45422 0.0
C109 C 0.5255 0.31447 0.4894 0.0
C110 C 0.58111 0.37427 0.41458 0.0
C111 C 0.60805 0.40697 0.38357 0.0
C112 C 0.17379 0.59803 0.58267 0.0
C113 C 0.16792 0.62482 0.55153 0.0
C114 C 0.17748 0.56799 0.62238 0.0
C115 C 0.17823 0.54255 0.65755 0.0
C116 C 0.57676 0.19382 0.78761 0.0
C117 C 0.6029 0.1945 0.82282 0.0
C118 C 0.54302 0.19019 0.74792 0.0
C119 C 0.51029 0.18437 0.71687 0.0
C120 C 0.31992 0.55905 0.9157 0.0
C121 C 0.29302 0.52634 0.88466 0.0
C122 C 0.35007 0.59285 0.9553 0.0
C123 C 0.3756 0.61911 0.9904 0.0
C124 C 0.72696 0.3359 0.08157 0.0
C125 C 0.73284 0.30907 0.05052 0.0
C126 C 0.72326 0.36592 0.12125 0.0
C127 C 0.72249 0.39128 0.15646 0.0
C128 C 0.32468 0.74091 0.28852 0.0
C129 C 0.29849 0.74025 0.32363 0.0
C130 C 0.35841 0.74448 0.2489 0.0
C131 C 0.39107 0.75023 0.21784 0.0
loop_
_geom_bond_atom_site_label_1
_geom_bond_atom_site_label_2
_geom_bond_distance
_geom_bond_site_symmetry_2
_ccdc_geom_bond_type
Zn0 O3 2.031 . S
Zn0 O5 2.049 . S
Zn0 O10 2.067 . S
Zn1 O2 1.962 . S
Zn1 O4 1.986 . S
Zn1 O6 1.996 . S
Zn1 O9 1.943 . S
O2 Zn1 1.962 . S
O2 C7 1.254 . S
O3 Zn0 2.031 . S
O3 C7 1.269 . S
O4 Zn1 1.986 . S
O4 C11 1.262 . S
O5 Zn0 2.049 . S
O5 C13 1.260 . S
O6 Zn1 1.996 . S
O6 C13 1.257 . S
C7 O2 1.254 . S
C7 O3 1.269 . S
C8 O9 1.249 . S
C8 O10 1.270 . S
O9 Zn1 1.943 . S
O9 C8 1.249 . S
O10 Zn0 2.067 . S
O10 C8 1.270 . S
C11 O4 1.262 . S
C11 O12 1.232 . S
O12 C11 1.232 . S
C13 O5 1.260 . S
C13 O6 1.257 . S
Zn14 O17 2.031 . S
Zn14 O19 2.049 . S
Zn14 O24 2.067 . S
Zn15 O16 1.962 . S
Zn15 O18 1.986 . S
Zn15 O20 1.996 . S
Zn15 O23 1.943 . S
O16 Zn15 1.962 . S
O16 C21 1.254 . S
O17 Zn14 2.031 . S
O17 C21 1.269 . S
O18 Zn15 1.986 . S
O18 C25 1.262 . S
O19 Zn14 2.049 . S
O19 C27 1.260 . S
O20 Zn15 1.996 . S
O20 C27 1.257 . S
C21 O16 1.254 . S
C21 O17 1.269 . S
C22 O23 1.249 . S
C22 O24 1.270 . S
O23 Zn15 1.943 . S
O23 C22 1.249 . S
O24 Zn14 2.067 . S
O24 C22 1.270 . S
C25 O18 1.262 . S
C25 O26 1.232 . S
O26 C25 1.232 . S
C27 O19 1.260 . S
C27 O20 1.257 . S
Zn28 O31 2.031 . S
Zn28 O33 2.049 . S
Zn28 O38 2.065 1_556 S
Zn29 O30 1.962 . S
Zn29 O32 1.986 . S
Zn29 O34 1.996 . S
Zn29 O37 1.943 . S
O30 Zn29 1.962 . S
O30 C35 1.254 . S
O31 Zn28 2.031 . S
O31 C35 1.269 . S
O32 Zn29 1.986 . S
O32 C39 1.262 . S
O33 Zn28 2.049 . S
O33 C41 1.260 . S
O34 Zn29 1.996 . S
O34 C41 1.257 . S
C35 O30 1.254 . S
C35 O31 1.269 . S
C36 O37 1.249 . S
C36 O38 1.268 1_556 S
O37 Zn29 1.943 . S
O37 C36 1.249 . S
O38 Zn28 2.065 1_554 S
O38 C36 1.268 1_554 S
C39 O32 1.262 . S
C39 O40 1.232 . S
O40 C39 1.232 . S
C41 O33 1.260 . S
C41 O34 1.257 . S
Zn42 O45 2.031 . S
Zn42 O47 2.049 . S
Zn42 O52 2.067 . S
Zn43 O44 1.962 . S
Zn43 O46 1.986 . S
Zn43 O48 1.996 . S
Zn43 O51 1.943 . S
O44 Zn43 1.962 . S
O44 C49 1.254 . S
O45 Zn42 2.031 . S
O45 C49 1.269 . S
O46 Zn43 1.986 . S
O46 C53 1.262 . S
O47 Zn42 2.049 . S
O47 C55 1.260 . S
O48 Zn43 1.996 . S
O48 C55 1.257 . S
C49 O44 1.254 . S
C49 O45 1.269 . S
C50 O51 1.249 . S
C50 O52 1.270 . S
O51 Zn43 1.943 . S
O51 C50 1.249 . S
O52 Zn42 2.067 . S
O52 C50 1.270 . S
C53 O46 1.262 . S
C53 O54 1.232 . S
O54 C53 1.232 . S
C55 O47 1.260 . S
C55 O48 1.257 . S
Zn56 O59 2.031 . S
Zn56 O61 2.049 . S
Zn56 O66 2.067 . S
Zn57 O58 1.962 . S
Zn57 O60 1.986 . S
Zn57 O62 1.996 . S
Zn57 O65 1.943 . S
O58 Zn57 1.962 . S
O58 C63 1.254 . S
O59 Zn56 2.031 . S
O59 C63 1.269 . S
O60 Zn57 1.986 . S
O60 C67 1.262 . S
O61 Zn56 2.049 . S
O61 C69 1.260 . S
O62 Zn57 1.996 . S
O62 C69 1.257 . S
C63 O58 1.254 . S
C63 O59 1.269 . S
C64 O65 1.249 . S
C64 O66 1.270 . S
O65 Zn57 1.943 . S
O65 C64 1.249 . S
O66 Zn56 2.067 . S
O66 C64 1.270 . S
C67 O60 1.262 . S
C67 O68 1.232 . S
O68 C67 1.232 . S
C69 O61 1.260 . S
C69 O62 1.257 . S
Zn70 O73 2.031 . S
Zn70 O75 2.049 . S
Zn70 O80 2.067 . S
Zn71 O72 1.962 . S
Zn71 O74 1.986 . S
Zn71 O76 1.996 . S
Zn71 O79 1.943 . S
O72 Zn71 1.962 . S
O72 C77 1.254 . S
O73 Zn70 2.031 . S
O73 C77 1.269 . S
O74 Zn71 1.986 . S
O74 C81 1.262 . S
O75 Zn70 2.049 . S
O75 C83 1.260 . S
O76 Zn71 1.996 . S
O76 C83 1.257 . S
C77 O72 1.254 . S
C77 O73 1.269 . S
C78 O79 1.249 . S
C78 O80 1.270 . S
O79 Zn71 1.943 . S
O79 C78 1.249 . S
O80 Zn70 2.067 . S
O80 C78 1.270 . S
C81 O74 1.262 . S
C81 O82 1.232 . S
O82 C81 1.232 . S
C83 O75 1.260 . S
C83 O76 1.257 . S
C84 C85 1.170 . S
C84 C86 1.380 1_545 S
C85 C84 1.170 . S
C86 C84 1.380 1_565 S
C86 C87 1.170 . S
C87 C86 1.170 . S
C88 C89 1.170 . S
C88 C90 1.380 . S
C89 C88 1.170 . S
C90 C88 1.380 . S
C90 C91 1.170 . S
C91 C90 1.170 . S
C92 C93 1.170 . S
C92 C94 1.380 1_655 S
C93 C92 1.170 . S
C94 C92 1.380 1_455 S
C94 C95 1.170 . S
C95 C94 1.170 . S
C96 C97 1.170 . S
C96 C98 1.380 1_565 S
C97 C96 1.170 . S
C98 C96 1.380 1_545 S
C98 C99 1.170 1_554 S
C99 C98 1.170 1_556 S
C100 C101 1.170 . S
C100 C102 1.380 . S
C101 C100 1.170 . S
C102 C100 1.380 . S
C102 C103 1.170 . S
C103 C102 1.170 . S
C104 C105 1.170 . S
C104 C106 1.380 1_455 S
C105 C104 1.170 . S
C106 C104 1.380 1_655 S
C106 C107 1.170 . S
C107 C106 1.170 . S
C108 C109 1.170 . S
C108 C110 1.380 . S
C109 C108 1.170 . S
C110 C108 1.380 . S
C110 C111 1.170 . S
C111 C110 1.170 . S
C112 C113 1.170 . S
C112 C114 1.380 . S
C113 C112 1.170 . S
C114 C112 1.380 . S
C114 C115 1.170 . S
C115 C114 1.170 . S
C116 C117 1.170 . S
C116 C118 1.380 . S
C117 C116 1.170 . S
C118 C116 1.380 . S
C118 C119 1.170 . S
C119 C118 1.170 . S
C120 C121 1.170 . S
C120 C122 1.380 . S
C121 C120 1.170 . S
C122 C120 1.380 . S
C122 C123 1.170 . S
C123 C122 1.170 . S
C124 C125 1.170 . S
C124 C126 1.380 . S
C125 C124 1.170 . S
C126 C124 1.380 . S
C126 C127 1.170 . S
C127 C126 1.170 . S
C128 C129 1.170 . S
C128 C130 1.380 . S
C129 C128 1.170 . S
C130 C128 1.380 . S
C130 C131 1.170 . S
C131 C130 1.170 . S
C85 C13 1.387 . S
C87 C77 1.437 . S
C89 C7 1.446 . S
C91 C27 1.380 . S
C93 C41 1.356 . S
C95 C21 1.439 . S
C97 C55 1.370 . S
C99 C35 1.445 . S
C101 C69 1.376 . S
C103 C49 1.436 . S
C105 C83 1.359 . S
C107 C63 1.442 . S
C109 C11 1.525 . S
C111 C64 1.508 . S
C113 C78 1.508 . S
C115 C25 1.527 . S
C117 C39 1.526 . S
C119 C8 1.509 . S
C121 C22 1.484 . S
C123 C53 1.518 1_556 S
C125 C36 1.509 1_554 S
C127 C67 1.526 . S
C129 C81 1.514 . S
C131 C50 1.479 . S
