# Generated by pormake.
# Topology hex, (8)-cn, num edge types: 1
# Building blocks:
#     Node 0, Type 0, BuildingBlock: AJUNOK_clean_sbu_0, # of connection points: 8
#     Edge 1, Type (0, 0), BuildingBlock: ZUJKAS_clean_linker_0, # of connection points: 2
#     Edge 2, Type (0, 0), BuildingBlock: ZUJKAS_clean_linker_0, # of connection points: 2
#     Edge 3, Type (0, 0), BuildingBlock: ZUJKAS_clean_linker_0, # of connection points: 2
#     Edge 4, Type (0, 0), BuildingBlock: ZUJKAS_clean_linker_0, # of connection points: 2
# Relax obj value: 0.047
# Max RMSD: 0.094
# Mean RMSD: 0.094
data_MOF--net-hex--node1-AJUNOK_clean_sbu_0--edge1-ZUJKAS_clean_linker_0
_symmetry_space_group_name_H-M    P1
_symmetry_Int_Tables_number       1
_symmetry_cell_setting            triclinic
loop_
_symmetry_equiv_pos_as_xyz
'x, y, z'
_cell_length_a     25.566205
_cell_length_b     25.699767
_cell_length_c     19.564177
_cell_angle_alpha  90.457082
_cell_angle_beta   91.504388
_cell_angle_gamma 128.89311
loop_
_atom_site_label
_atom_site_type_symbol
_atom_site_fract_x
_atom_site_fract_y
_atom_site_fract_z
_atom_type_partial_charge
Cd0 Cd 0.09023 0.07522 0.97922 0.0
Cd1 Cd 0.8956 0.89309 0.00398 0.0
C2 C 0.08048 0.18352 0.045 0.0
N3 N 0.05151 0.13656 0.99327 0.0
C4 C 0.99241 0.17451 0.95021 0.0
C5 C 0.02385 0.22532 0.00157 0.0
C6 C 0.06701 0.22824 0.05036 0.0
C7 C 0.00748 0.13071 0.9467 0.0
H8 H 0.11627 0.18804 0.08067 0.0
H9 H 0.9863 0.09393 0.90514 0.0
C10 C 0.95944 0.9477 0.85631 0.0
C11 C 0.91192 0.79074 0.93595 0.0
C12 C 0.92667 0.74704 0.93109 0.0
C13 C 0.97212 0.75264 0.97877 0.0
C14 C 0.00503 0.80551 0.02792 0.0
C15 C 0.98863 0.84825 0.03097 0.0
N16 N 0.9422 0.83963 0.9858 0.0
H17 H 0.87333 0.7831 0.90219 0.0
H18 H 0.01 0.88572 0.07181 0.0
C19 C 0.84875 0.973 0.93369 0.0
N20 N 0.86557 0.96187 0.99526 0.0
C21 C 0.80754 -0.00704 0.05372 0.0
C22 C 0.78463 -0.00071 0.99067 0.0
C23 C 0.80877 -0.00741 0.9303 0.0
C24 C 0.84806 0.97388 0.05478 0.0
H25 H 0.86164 0.96188 0.88681 0.0
H26 H 0.86031 0.9626 0.10289 0.0
C27 C 0.02573 0.0169 0.13076 0.0
C28 C 0.21537 0.17238 0.92383 0.0
N29 N 0.12258 0.00869 0.99335 0.0
C30 C 0.14624 0.00591 0.05518 0.0
C31 C 0.18731 -0.01235 0.05912 0.0
C32 C 0.20629 0.97443 -0.00118 0.0
C33 C 0.17714 0.97295 0.93611 0.0
C34 C 0.13525 -0.00956 0.9346 0.0
C35 C 0.77502 0.78359 0.05953 0.0
O36 O 0.00476 -0.00813 0.89863 0.0
O37 O 0.90459 0.89756 0.87922 0.0
O38 O 0.97646 0.96962 0.09362 0.0
O39 O 0.07687 0.06729 0.10286 0.0
O40 O 0.16281 0.14637 0.88614 0.0
O41 O 0.20799 0.15683 0.98606 0.0
O42 O 0.83023 0.81387 0.09347 0.0
O43 O 0.77678 0.80457 0.00058 0.0
H44 H 0.13801 0.0227 0.10125 0.0
H45 H 0.11805 -0.00442 0.88594 0.0
H46 H 0.95929 0.17078 0.91116 0.0
H47 H 0.09166 0.26599 0.09129 0.0
H48 H 0.90064 0.70753 0.89194 0.0
H49 H 0.03983 0.81125 0.06619 0.0
H50 H 0.78972 -0.00306 0.10153 0.0
H51 H 0.79326 -0.00191 0.88065 0.0
H52 H 0.20751 -0.01179 0.10871 0.0
H53 H 0.19084 0.96395 0.88817 0.0
H54 H 0.12259 0.35964 0.02243 0.0
H55 H 0.11232 0.44784 0.02047 0.0
H56 H 0.89913 0.30069 0.97582 0.0
H57 H 0.90876 0.21142 0.97885 0.0
H58 H 0.06261 0.47859 0.9088 0.0
H59 H 0.9146 0.41268 0.14171 0.0
H60 H 0.96071 0.38255 0.12467 0.0
H61 H 0.88184 0.34557 0.07996 0.0
C62 C 0.07325 0.34574 0.01319 0.0
C63 C 0.01636 0.27832 0.00142 0.0
C64 C 0.06761 0.39636 0.01157 0.0
C65 C 0.00498 0.38086 -0.00139 0.0
C66 C 0.94788 0.31368 0.98674 0.0
H67 H 0.87321 0.61773 0.96383 0.0
H68 H 0.88404 0.53003 0.96776 0.0
C69 C 0.95352 0.26281 0.98798 0.0
C70 C 0.00033 0.43558 -0.00394 0.0
H71 H 0.93469 0.50034 0.07651 0.0
C72 C 0.03479 0.48351 0.94553 0.0
C73 C 0.96419 0.44193 0.04418 0.0
C74 C 0.92857 0.39338 0.10114 0.0
C75 C 0.03308 0.53699 0.94106 0.0
C76 C 0.99695 0.54337 0.9892 0.0
C77 C 0.96256 0.49547 0.0398 0.0
C78 C 0.99188 0.59782 0.98626 0.0
C79 C 0.0684 0.58524 0.88381 0.0
C80 C 0.04905 0.66534 -0.00428 0.0
C81 C 0.04313 0.71598 0.99307 0.0
C82 C 0.9799 0.69988 0.98076 0.0
C83 C 0.92287 0.6321 0.9719 0.0
C84 C 0.92882 0.58175 0.97476 0.0
H85 H 0.0816 0.56544 0.84297 0.0
H86 H 0.03645 0.59647 0.86068 0.0
H87 H 0.1156 0.6329 0.90455 0.0
H88 H 0.09814 0.67884 0.00566 0.0
H89 H 0.08797 0.76765 0.00011 0.0
H90 H 0.67509 0.93159 0.90223 0.0
H91 H 0.5783 0.92926 0.9027 0.0
H92 H 0.66767 0.0684 0.07563 0.0
H93 H 0.76632 0.07298 0.07403 0.0
H94 H 0.49102 0.88819 0.00847 0.0
H95 H 0.61336 0.15131 0.94454 0.0
H96 H 0.65321 0.11391 0.93215 0.0
H97 H 0.65213 0.14208 0.01607 0.0
C98 C 0.67523 0.96323 0.93926 0.0
C99 C 0.72899 0.00318 0.98763 0.0
C100 C 0.61937 0.96114 0.93992 0.0
C101 C 0.61597 -0.001 0.98878 0.0
C102 C 0.66972 0.03954 0.03676 0.0
H103 H 0.32091 0.04842 0.08062 0.0
H104 H 0.41673 0.04959 0.07917 0.0
C105 C 0.72583 0.04176 0.0361 0.0
C106 C 0.55494 -0.00612 0.99075 0.0
H107 H 0.49989 0.08483 0.97686 0.0
C108 C 0.4928 0.93109 0.00134 0.0
C109 C 0.55753 0.04993 0.98143 0.0
C110 C 0.62247 0.11804 0.9673 0.0
C111 C 0.43326 0.92305 0.00428 0.0
C112 C 0.4358 0.97913 0.99492 0.0
C113 C 0.49799 0.04187 0.98405 0.0
C114 C 0.37498 0.97444 -0.00223 0.0
C115 C 0.3686 0.855 0.01923 0.0
C116 C 0.31906 0.93126 0.9528 0.0
C117 C 0.2631 0.92927 0.95453 0.0
C118 C 0.26241 0.97111 0.00064 0.0
C119 C 0.3186 0.01411 0.04563 0.0
C120 C 0.37404 0.01558 0.04429 0.0
H121 H 0.37823 0.82268 0.04357 0.0
H122 H 0.33731 0.85923 0.05334 0.0
H123 H 0.33932 0.82971 0.97056 0.0
H124 H 0.31914 0.90001 0.91545 0.0
H125 H 0.22076 0.89552 0.91926 0.0
H126 H 0.3214 0.17573 0.94624 0.0
H127 H 0.43481 0.2803 0.9672 0.0
H128 H 0.37545 0.38803 0.87272 0.0
H129 H 0.26125 0.28316 0.85249 0.0
H130 H 0.54588 0.41967 0.91551 0.0
H131 H 0.36325 0.39192 0.09193 0.0
H132 H 0.34261 0.3245 0.0364 0.0
H133 H 0.34373 0.38998 0.00259 0.0
C134 C 0.33385 0.22136 0.92614 0.0
C135 C 0.28303 0.22272 0.90029 0.0
C136 C 0.39865 0.28095 0.93795 0.0
C137 C 0.41209 0.34147 0.92376 0.0
C138 C 0.36505 0.34133 0.88477 0.0
H139 H 0.64755 0.73176 0.02439 0.0
H140 H 0.5524 0.6128 0.01949 0.0
C141 C 0.29995 0.28152 0.87305 0.0
C142 C 0.46251 0.40019 0.96761 0.0
H143 H 0.47509 0.49399 0.10124 0.0
C144 C 0.53086 0.43586 0.95654 0.0
C145 C 0.44205 0.41889 0.02279 0.0
C146 C 0.36898 0.37904 0.0398 0.0
C147 C 0.57961 0.49376 -0.00405 0.0
C148 C 0.55873 0.51533 0.04777 0.0
C149 C 0.49059 0.47686 0.06176 0.0
C150 C 0.60469 0.58436 0.07553 0.0
C151 C 0.65267 0.53388 0.97897 0.0
C152 C 0.66281 0.6076 0.11456 0.0
C153 C 0.71731 0.6759 0.11771 0.0
C154 C 0.71347 0.72034 0.08124 0.0
C155 C 0.65175 0.69791 0.05167 0.0
C156 C 0.59738 0.63006 0.04909 0.0
H157 H 0.65962 0.51253 0.93386 0.0
H158 H 0.67457 0.58628 0.96843 0.0
H159 H 0.68138 0.53504 0.02333 0.0
H160 H 0.66853 0.5727 0.13625 0.0
H161 H 0.76448 0.69252 0.14151 0.0
H162 H 0.07688 0.0394 0.79307 0.0
H163 H 0.09453 0.05329 0.67002 0.0
H164 H 0.88508 0.88727 0.62827 0.0
H165 H 0.86678 0.87249 0.75137 0.0
H166 H 0.04092 0.92875 0.55978 0.0
H167 H 0.95115 0.07727 0.53234 0.0
H168 H 0.99046 0.07837 0.61109 0.0
H169 H 0.90663 0.00595 0.58657 0.0
C170 C 0.03456 0.00569 0.7578 0.0
C171 C 0.97036 0.955 0.78197 0.0
C172 C 0.04485 0.0136 0.68762 0.0
C173 C 0.99108 0.9713 0.64056 0.0
C174 C 0.9271 0.92026 0.6642 0.0
H175 H 0.92158 0.91839 0.20595 0.0
H176 H 0.91862 0.90914 0.33033 0.0
C177 C 0.9168 0.91197 0.73441 0.0
C178 C 0.0012 0.98164 0.56651 0.0
H179 H 0.97733 0.04862 0.43125 0.0
C180 C 0.02747 0.95524 0.53157 0.0
C181 C 0.98378 0.01649 0.53044 0.0
C182 C 0.95662 0.04658 0.56665 0.0
C183 C 0.03529 0.96165 0.46057 0.0
C184 C 0.01663 -0.00459 0.42438 0.0
C185 C 0.99154 0.02281 0.45955 0.0
C186 C 0.02015 0.00043 0.34935 0.0
C187 C 0.06224 0.9315 0.42407 0.0
C188 C 0.07832 0.05509 0.3194 0.0
C189 C 0.08024 0.0608 0.24827 0.0
C190 C 0.02387 0.0119 0.20616 0.0
C191 C 0.96581 0.95705 0.23677 0.0
C192 C 0.96399 0.9515 0.30776 0.0
H193 H 0.07593 0.90804 0.45982 0.0
H194 H 0.02382 0.89299 0.38582 0.0
H195 H 0.10734 0.97076 0.39588 0.0
H196 H 0.12201 0.09337 0.35108 0.0
H197 H 0.12584 0.10341 0.22633 0.0
loop_
_geom_bond_atom_site_label_1
_geom_bond_atom_site_label_2
_geom_bond_distance
_geom_bond_site_symmetry_2
_ccdc_geom_bond_type
Cd0 N3 2.334 . S
Cd0 N29 2.304 . S
Cd0 O36 2.268 1_554 S
Cd0 O39 2.273 . S
Cd0 O40 2.417 1_554 S
Cd0 O41 2.330 . S
Cd1 N16 2.304 . S
Cd1 N20 2.334 . S
Cd1 O37 2.273 . S
Cd1 O38 2.268 1_556 S
Cd1 O42 2.417 1_556 S
Cd1 O43 2.330 . S
C2 N3 1.332 . S
C2 C6 1.381 . S
C2 H8 0.931 . S
N3 Cd0 2.334 . S
N3 C2 1.332 . S
N3 C7 1.328 1_554 S
C4 C5 1.396 1_556 S
C4 C7 1.378 1_655 S
C4 H46 0.931 . S
C5 C4 1.396 1_554 S
C5 C6 1.382 1_655 S
C6 C2 1.381 . S
C6 C5 1.382 1_455 S
C6 H47 0.930 . S
C7 N3 1.328 1_556 S
C7 C4 1.378 1_455 S
C7 H9 0.930 . S
H8 C2 0.931 . S
H9 C7 0.930 . S
C10 O36 1.238 1_665 S
C10 O37 1.253 . S
C11 C12 1.379 . S
C11 N16 1.337 . S
C11 H17 0.929 . S
C12 C11 1.379 . S
C12 C13 1.380 1_655 S
C12 H48 0.929 . S
C13 C12 1.380 1_455 S
C13 C14 1.399 1_556 S
C14 C13 1.399 1_554 S
C14 C15 1.376 1_455 S
C14 H49 0.931 . S
C15 C14 1.376 1_655 S
C15 N16 1.338 1_554 S
C15 H18 0.930 . S
N16 Cd1 2.304 . S
N16 C11 1.337 . S
N16 C15 1.338 1_556 S
H17 C11 0.929 . S
H18 C15 0.930 . S
C19 N20 1.332 . S
C19 C23 1.381 . S
C19 H25 0.931 . S
N20 Cd1 2.334 . S
N20 C19 1.332 . S
N20 C24 1.328 1_556 S
C21 C22 1.396 1_554 S
C21 C24 1.378 1_545 S
C21 H50 0.931 . S
C22 C21 1.396 1_556 S
C22 C23 1.382 1_545 S
C23 C19 1.381 . S
C23 C22 1.382 1_565 S
C23 H51 0.930 . S
C24 N20 1.328 1_554 S
C24 C21 1.378 1_565 S
C24 H26 0.930 . S
H25 C19 0.931 . S
H26 C24 0.930 . S
C27 O38 1.238 1_445 S
C27 O39 1.253 . S
C28 O40 1.239 . S
C28 O41 1.230 1_556 S
N29 Cd0 2.304 . S
N29 C30 1.337 . S
N29 C34 1.338 1_554 S
C30 N29 1.337 . S
C30 C31 1.379 . S
C30 H44 0.929 . S
C31 C30 1.379 . S
C31 C32 1.380 1_545 S
C31 H52 0.929 . S
C32 C31 1.380 1_565 S
C32 C33 1.399 1_554 S
C33 C32 1.399 1_556 S
C33 C34 1.376 1_565 S
C33 H53 0.931 . S
C34 N29 1.338 1_556 S
C34 C33 1.376 1_545 S
C34 H45 0.930 . S
C35 O42 1.239 . S
C35 O43 1.230 1_554 S
O36 Cd0 2.268 1_556 S
O36 C10 1.238 1_445 S
O37 Cd1 2.273 . S
O37 C10 1.253 . S
O38 Cd1 2.268 1_554 S
O38 C27 1.238 1_665 S
O39 Cd0 2.273 . S
O39 C27 1.253 . S
O40 Cd0 2.417 1_556 S
O40 C28 1.239 . S
O41 Cd0 2.330 . S
O41 C28 1.230 1_554 S
O42 Cd1 2.417 1_554 S
O42 C35 1.239 . S
O43 Cd1 2.330 . S
O43 C35 1.230 1_556 S
H44 C30 0.929 . S
H45 C34 0.930 . S
H46 C4 0.931 . S
H47 C6 0.930 . S
H48 C12 0.929 . S
H49 C14 0.931 . S
H50 C21 0.931 . S
H51 C23 0.930 . S
H52 C31 0.929 . S
H53 C33 0.931 . S
H54 C62 0.929 . S
H55 C64 0.930 1_556 S
H56 C66 0.930 . S
H57 C69 0.929 . S
H58 C72 0.930 . S
H59 C74 0.960 . S
H60 C74 0.960 . S
H61 C74 0.960 . S
C62 H54 0.929 . S
C62 C63 1.377 1_455 S
C62 C64 1.384 . S
C63 C62 1.377 1_655 S
C63 C69 1.390 . S
C64 H55 0.930 1_554 S
C64 C62 1.384 . S
C64 C65 1.372 1_455 S
C65 C64 1.372 1_655 S
C65 C66 1.400 . S
C65 C70 1.490 . S
C66 H56 0.930 . S
C66 C65 1.400 . S
C66 C69 1.386 . S
H67 C83 0.930 . S
H68 C84 0.931 . S
C69 H57 0.929 . S
C69 C63 1.390 . S
C69 C66 1.386 . S
C70 C65 1.490 . S
C70 C72 1.395 1_654 S
C70 C73 1.403 . S
H71 C77 0.930 . S
C72 H58 0.930 . S
C72 C70 1.395 1_456 S
C72 C75 1.403 . S
C73 C70 1.403 . S
C73 C74 1.524 . S
C73 C77 1.400 . S
C74 H59 0.960 . S
C74 H60 0.960 . S
C74 H61 0.960 . S
C74 C73 1.524 . S
C75 C72 1.403 . S
C75 C76 1.392 . S
C75 C79 1.495 . S
C76 C75 1.392 . S
C76 C77 1.385 1_456 S
C76 C78 1.478 . S
C77 H71 0.930 . S
C77 C73 1.400 . S
C77 C76 1.385 1_654 S
C78 C76 1.478 . S
C78 C80 1.381 . S
C78 C84 1.383 1_455 S
C79 C75 1.495 . S
C79 H85 0.959 . S
C79 H86 0.961 . S
C79 H87 0.960 . S
C80 C78 1.381 . S
C80 C81 1.394 . S
C80 H88 0.930 . S
C81 C80 1.394 . S
C81 C82 1.383 . S
C81 H89 0.929 . S
C82 C81 1.383 . S
C82 C83 1.377 1_455 S
C83 H67 0.930 . S
C83 C82 1.377 1_655 S
C83 C84 1.379 . S
C84 H68 0.931 . S
C84 C78 1.383 1_655 S
C84 C83 1.379 . S
H85 C79 0.959 . S
H86 C79 0.961 . S
H87 C79 0.960 . S
H88 C80 0.930 . S
H89 C81 0.929 . S
H90 C98 0.929 . S
H91 C100 0.930 . S
H92 C102 0.930 . S
H93 C105 0.929 . S
H94 C108 0.930 1_554 S
H95 C110 0.960 . S
H96 C110 0.960 . S
H97 C110 0.960 1_554 S
C98 H90 0.929 . S
C98 C99 1.377 1_565 S
C98 C100 1.384 . S
C99 C98 1.377 1_545 S
C99 C105 1.390 1_556 S
C100 H91 0.930 . S
C100 C98 1.384 . S
C100 C101 1.372 1_565 S
C101 C100 1.372 1_545 S
C101 C102 1.400 1_556 S
C101 C106 1.490 . S
C102 H92 0.930 . S
C102 C101 1.400 1_554 S
C102 C105 1.386 . S
H103 C119 0.930 1_545 S
H104 C120 0.931 1_545 S
C105 H93 0.929 . S
C105 C99 1.390 1_554 S
C105 C102 1.386 . S
C106 C101 1.490 . S
C106 C108 1.395 1_545 S
C106 C109 1.403 . S
H107 C113 0.930 . S
C108 H94 0.930 1_556 S
C108 C106 1.395 1_565 S
C108 C111 1.403 1_556 S
C109 C106 1.403 . S
C109 C110 1.524 . S
C109 C113 1.400 . S
C110 H95 0.960 . S
C110 H96 0.960 . S
C110 H97 0.960 1_556 S
C110 C109 1.524 . S
C111 C108 1.403 1_554 S
C111 C112 1.393 . S
C111 C115 1.495 . S
C112 C111 1.393 . S
C112 C113 1.384 1_564 S
C112 C114 1.478 . S
C113 H107 0.930 . S
C113 C109 1.400 . S
C113 C112 1.384 1_546 S
C114 C112 1.478 . S
C114 C116 1.381 1_554 S
C114 C120 1.392 . S
C115 C111 1.495 . S
C115 H121 0.959 . S
C115 H122 0.961 . S
C115 H123 0.960 1_554 S
C116 C114 1.381 1_556 S
C116 C117 1.394 . S
C116 H124 0.930 . S
C117 C116 1.394 . S
C117 C118 1.383 1_556 S
C117 H125 0.929 . S
C118 C117 1.383 1_554 S
C118 C119 1.377 . S
C119 H103 0.930 1_565 S
C119 C118 1.377 . S
C119 C120 1.370 . S
C120 H104 0.931 1_565 S
C120 C114 1.392 . S
C120 C119 1.370 . S
H121 C115 0.959 . S
H122 C115 0.961 . S
H123 C115 0.960 1_556 S
H124 C116 0.930 . S
H125 C117 0.929 . S
H126 C134 0.929 . S
H127 C136 0.930 . S
H128 C138 0.930 . S
H129 C141 0.929 . S
H130 C144 0.930 . S
H131 C146 0.960 . S
H132 C146 0.960 . S
H133 C146 0.960 . S
C134 H126 0.929 . S
C134 C135 1.377 1_554 S
C134 C136 1.384 . S
C135 C134 1.377 1_556 S
C135 C141 1.390 . S
C136 H127 0.930 . S
C136 C134 1.384 . S
C136 C137 1.372 1_554 S
C137 C136 1.372 1_556 S
C137 C138 1.400 . S
C137 C142 1.490 . S
C138 H128 0.930 . S
C138 C137 1.400 . S
C138 C141 1.386 . S
H139 C155 0.930 . S
H140 C156 0.931 . S
C141 H129 0.929 . S
C141 C135 1.390 . S
C141 C138 1.386 . S
C142 C137 1.490 . S
C142 C144 1.396 . S
C142 C145 1.401 1_556 S
H143 C149 0.930 . S
C144 H130 0.930 . S
C144 C142 1.396 . S
C144 C147 1.403 . S
C145 C142 1.401 1_554 S
C145 C146 1.524 . S
C145 C149 1.400 . S
C146 H131 0.960 . S
C146 H132 0.960 . S
C146 H133 0.960 . S
C146 C145 1.524 . S
C147 C144 1.403 . S
C147 C148 1.392 1_556 S
C147 C151 1.495 . S
C148 C147 1.392 1_554 S
C148 C149 1.385 . S
C148 C150 1.478 . S
C149 H143 0.930 . S
C149 C145 1.400 . S
C149 C148 1.385 . S
C150 C148 1.478 . S
C150 C152 1.381 . S
C150 C156 1.383 1_554 S
C151 C147 1.495 . S
C151 H157 0.959 . S
C151 H158 0.961 . S
C151 H159 0.960 1_556 S
C152 C150 1.381 . S
C152 C153 1.394 . S
C152 H160 0.930 . S
C153 C152 1.394 . S
C153 C154 1.383 . S
C153 H161 0.929 . S
C154 C153 1.383 . S
C154 C155 1.377 1_554 S
C155 H139 0.930 . S
C155 C154 1.377 1_556 S
C155 C156 1.379 . S
C156 H140 0.931 . S
C156 C150 1.383 1_556 S
C156 C155 1.379 . S
H157 C151 0.959 . S
H158 C151 0.961 . S
H159 C151 0.960 1_554 S
H160 C152 0.930 . S
H161 C153 0.929 . S
H162 C170 0.929 . S
H163 C172 0.930 . S
H164 C174 0.930 . S
H165 C177 0.929 . S
H166 C180 0.930 . S
H167 C182 0.960 . S
H168 C182 0.960 . S
H169 C182 0.960 . S
C170 H162 0.929 . S
C170 C171 1.377 . S
C170 C172 1.384 . S
C171 C170 1.377 . S
C171 C177 1.390 1_445 S
C172 H163 0.930 . S
C172 C170 1.384 . S
C172 C173 1.372 . S
C173 C172 1.372 . S
C173 C174 1.400 1_445 S
C173 C178 1.490 . S
C174 H164 0.930 . S
C174 C173 1.400 1_665 S
C174 C177 1.386 . S
H175 C191 0.930 . S
H176 C192 0.931 . S
C177 H165 0.929 . S
C177 C171 1.390 1_665 S
C177 C174 1.386 . S
C178 C173 1.490 . S
C178 C180 1.395 1_545 S
C178 C181 1.403 1_455 S
H179 C185 0.930 . S
C180 H166 0.930 . S
C180 C178 1.395 1_565 S
C180 C183 1.403 . S
C181 C178 1.403 1_655 S
C181 C182 1.524 . S
C181 C185 1.400 . S
C182 H167 0.960 . S
C182 H168 0.960 . S
C182 H169 0.960 . S
C182 C181 1.524 . S
C183 C180 1.403 . S
C183 C184 1.392 . S
C183 C187 1.495 . S
C184 C183 1.392 . S
C184 C185 1.385 1_465 S
C184 C186 1.478 . S
C185 H179 0.930 . S
C185 C181 1.400 . S
C185 C184 1.385 1_645 S
C186 C184 1.478 . S
C186 C188 1.381 1_565 S
C186 C192 1.383 1_455 S
C187 C183 1.495 . S
C187 H193 0.959 . S
C187 H194 0.961 . S
C187 H195 0.960 . S
C188 C186 1.381 1_545 S
C188 C189 1.394 . S
C188 H196 0.930 . S
C189 C188 1.394 . S
C189 C190 1.383 1_545 S
C189 H197 0.929 . S
C190 C189 1.383 1_565 S
C190 C191 1.377 1_455 S
C191 H175 0.930 . S
C191 C190 1.377 1_655 S
C191 C192 1.379 . S
C192 H176 0.931 . S
C192 C186 1.383 1_655 S
C192 C191 1.379 . S
H193 C187 0.959 . S
H194 C187 0.961 . S
H195 C187 0.960 . S
H196 C188 0.930 . S
H197 C189 0.929 . S
C63 C5 1.972 . S
C82 C13 1.978 . S
C99 C22 1.976 . S
C118 C32 1.989 . S
C135 C28 0.243 . S
C154 C35 0.254 . S
C171 C10 1.484 1_445 S
C190 C27 1.480 1_565 S
