# Generated by pormake.
# Topology qtz, (4)-cn, num edge types: 1
# Building blocks:
#     Node 0, Type 0, BuildingBlock: GALJAG_clean_sbu_0, # of connection points: 4
#     Node 1, Type 0, BuildingBlock: GALJAG_clean_sbu_0, # of connection points: 4
#     Node 2, Type 0, BuildingBlock: GALJAG_clean_sbu_0, # of connection points: 4
#     Edge 3, Type (0, 0), BuildingBlock: EZIPEK_clean_linker_0, # of connection points: 2
#     Edge 4, Type (0, 0), BuildingBlock: EZIPEK_clean_linker_0, # of connection points: 2
#     Edge 5, Type (0, 0), BuildingBlock: EZIPEK_clean_linker_0, # of connection points: 2
#     Edge 6, Type (0, 0), BuildingBlock: EZIPEK_clean_linker_0, # of connection points: 2
#     Edge 7, Type (0, 0), BuildingBlock: EZIPEK_clean_linker_0, # of connection points: 2
#     Edge 8, Type (0, 0), BuildingBlock: EZIPEK_clean_linker_0, # of connection points: 2
# Relax obj value: 0.004
# Max RMSD: 0.037
# Mean RMSD: 0.037
data_MOF--net-qtz--node1-GALJAG_clean_sbu_0--edge1-EZIPEK_clean_linker_0
_symmetry_space_group_name_H-M    P1
_symmetry_Int_Tables_number       1
_symmetry_cell_setting            triclinic
loop_
_symmetry_equiv_pos_as_xyz
'x, y, z'
_cell_length_a     18.005901
_cell_length_b     17.906987
_cell_length_c     19.570663
_cell_angle_alpha  90.045907
_cell_angle_beta   89.850782
_cell_angle_gamma 119.49749
loop_
_atom_site_label
_atom_site_type_symbol
_atom_site_fract_x
_atom_site_fract_y
_atom_site_fract_z
_atom_type_partial_charge
In0 In 0.01596 0.51214 0.16396 0.0
O1 O 0.93555 0.36983 0.19108 0.0
O2 O 0.92445 0.46097 0.25407 0.0
C3 C 0.12944 0.49361 0.08622 0.0
C4 C 0.90346 0.52928 0.08427 0.0
C5 C 0.13058 0.64019 0.24312 0.0
O6 O 0.09581 0.44824 0.13868 0.0
O7 O 0.10507 0.54694 0.07258 0.0
O8 O 0.10052 0.65454 0.18967 0.0
O9 O 0.10176 0.56202 0.25702 0.0
C10 C 0.90074 0.38328 0.24213 0.0
O11 O 0.93197 0.57133 0.13888 0.0
O12 O 0.93288 0.4804 0.06927 0.0
In13 In 0.51634 0.01126 0.49765 0.0
O14 O 0.63228 0.04986 0.42806 0.0
O15 O 0.58754 0.13873 0.44178 0.0
C16 C 0.54737 0.90834 0.57967 0.0
C17 C 0.48704 0.11667 0.57815 0.0
C18 C 0.3919 0.90245 0.41269 0.0
O19 O 0.60676 0.97625 0.5542 0.0
O20 O 0.4732 0.89297 0.56484 0.0
O21 O 0.37596 0.92294 0.4703 0.0
O22 O 0.46993 0.93791 0.39737 0.0
C23 C 0.64132 0.12267 0.41403 0.0
O24 O 0.44333 0.0815 0.5255 0.0
O25 O 0.54376 0.09687 0.59139 0.0
In26 In 0.51679 0.51275 0.829 0.0
O27 O 0.6025 0.64963 0.79013 0.0
O28 O 0.48277 0.57309 0.74108 0.0
C29 C 0.64542 0.5329 0.91187 0.0
C30 C 0.38774 0.49106 0.91258 0.0
C31 C 0.48421 0.38153 0.74438 0.0
O32 O 0.61445 0.58245 0.91459 0.0
O33 O 0.61276 0.47499 0.86742 0.0
O34 O 0.43191 0.37567 0.79012 0.0
O35 O 0.55052 0.45397 0.73965 0.0
C36 C 0.54999 0.64485 0.74527 0.0
O37 O 0.4154 0.43865 0.91151 0.0
O38 O 0.42387 0.55267 0.87145 0.0
C39 C 0.23865 0.41546 0.96089 0.0
C40 C 0.32302 0.48594 0.962 0.0
C41 C 0.28043 0.56065 0.04482 0.0
C42 C 0.19664 0.48895 0.04577 0.0
N43 N 0.09811 0.3429 0.01333 0.0
N44 N 0.42944 0.61523 0.01657 0.0
C45 C 0.17664 0.41435 0.00692 0.0
C46 C 0.34539 0.55563 0.00728 0.0
N47 N 0.21657 0.3521 0.91325 0.0
N48 N 0.298 0.63407 0.07921 0.0
H49 H 0.47913 0.6124 0.99138 0.0
H50 H 0.45078 0.6625 0.0541 0.0
H51 H 0.25404 0.63938 0.11065 0.0
H52 H 0.35463 0.69183 0.07325 0.0
H53 H 0.15408 0.30415 0.90435 0.0
H54 H 0.26011 0.3507 0.87876 0.0
H55 H 0.08292 0.2835 0.99263 0.0
H56 H 0.04924 0.34122 0.04315 0.0
C57 C 0.74835 0.29428 0.27836 0.0
C58 C 0.83442 0.31325 0.28373 0.0
C59 C 0.79512 0.20828 0.37636 0.0
C60 C 0.70793 0.18429 0.3669 0.0
N61 N 0.60017 0.18887 0.29664 0.0
N62 N 0.93875 0.27983 0.32981 0.0
C63 C 0.68409 0.22288 0.31438 0.0
C64 C 0.85735 0.26696 0.32982 0.0
N65 N 0.72783 0.34504 0.23968 0.0
N66 N 0.81944 0.17965 0.43213 0.0
H67 H 0.98718 0.32535 0.29893 0.0
H68 H 0.95668 0.2411 0.35674 0.0
H69 H 0.77667 0.13922 0.46895 0.0
H70 H 0.88291 0.20236 0.44553 0.0
H71 H 0.6675 0.33959 0.24003 0.0
H72 H 0.77268 0.39743 0.21165 0.0
H73 H 0.58003 0.20931 0.25429 0.0
H74 H 0.55132 0.13385 0.31938 0.0
C75 C 0.55932 0.77537 0.58964 0.0
C76 C 0.56255 0.84825 0.6212 0.0
C77 C 0.56589 0.79187 0.73445 0.0
C78 C 0.56294 0.71886 0.70296 0.0
N79 N 0.57427 0.64838 0.60183 0.0
N80 N 0.58725 0.93602 0.72091 0.0
C81 C 0.56485 0.7128 0.63078 0.0
C82 C 0.57218 0.85988 0.69283 0.0
N83 N 0.54922 0.76535 0.52042 0.0
N84 N 0.55708 0.79378 0.80379 0.0
H85 H 0.59039 0.98631 0.6918 0.0
H86 H 0.60373 0.95225 0.77188 0.0
H87 H 0.55168 0.74527 0.83629 0.0
H88 H 0.54862 0.84027 0.82899 0.0
H89 H 0.53532 0.70898 0.49485 0.0
H90 H 0.55123 0.81287 0.48842 0.0
H91 H 0.58391 0.64433 0.54983 0.0
H92 H 0.57965 0.6023 0.63069 0.0
C93 C 0.68955 0.46302 0.00058 0.0
C94 C 0.70985 0.53658 0.96055 0.0
C95 C 0.85399 0.61016 0.00925 0.0
C96 C 0.83659 0.53282 0.04278 0.0
N97 N 0.74081 0.382 0.06431 0.0
N98 N 0.81308 0.67738 0.92039 0.0
C99 C 0.75532 0.45812 0.03655 0.0
C100 C 0.79227 0.60996 0.96369 0.0
N101 N 0.60646 0.39928 0.00665 0.0
N102 N 0.92986 0.68346 0.02014 0.0
H103 H 0.76976 0.67948 0.88628 0.0
H104 H 0.87478 0.72846 0.91443 0.0
H105 H 0.9791 0.68506 0.04915 0.0
H106 H 0.94228 0.74386 0.00381 0.0
H107 H 0.58626 0.34842 0.0409 0.0
H108 H 0.55596 0.40167 0.98272 0.0
H109 H 0.68655 0.32353 0.05402 0.0
H110 H 0.78529 0.37553 0.09391 0.0
C111 C 0.33173 0.76394 0.3484 0.0
C112 C 0.32491 0.8364 0.36872 0.0
C113 C 0.18652 0.77692 0.31106 0.0
C114 C 0.19799 0.70926 0.28488 0.0
N115 N 0.29091 0.64922 0.26671 0.0
N116 N 0.25351 0.91997 0.35958 0.0
C117 C 0.27331 0.70586 0.30009 0.0
C118 C 0.25439 0.84525 0.34733 0.0
N119 N 0.39133 0.74794 0.37774 0.0
N120 N 0.10965 0.77408 0.30413 0.0
H121 H 0.30256 0.97188 0.38517 0.0
H122 H 0.20815 0.93347 0.33892 0.0
H123 H 0.05766 0.72426 0.27933 0.0
H124 H 0.09484 0.81684 0.32851 0.0
H125 H 0.393 0.69119 0.37013 0.0
H126 H 0.4334 0.78693 0.41538 0.0
H127 H 0.34946 0.65093 0.27034 0.0
H128 H 0.25077 0.60605 0.23007 0.0
C129 C 0.46889 0.23467 0.73306 0.0
C130 C 0.47256 0.30804 0.7019 0.0
C131 C 0.48392 0.25532 0.58892 0.0
C132 C 0.47584 0.17976 0.61975 0.0
N133 N 0.44059 0.08846 0.71883 0.0
N134 N 0.46394 0.37918 0.60032 0.0
C135 C 0.46212 0.16666 0.69118 0.0
C136 C 0.47384 0.31542 0.62978 0.0
N137 N 0.47682 0.23182 0.80235 0.0
N138 N 0.50629 0.2725 0.52158 0.0
H139 H 0.45561 0.4238 0.62884 0.0
H140 H 0.45559 0.38277 0.54802 0.0
H141 H 0.51591 0.23143 0.4897 0.0
H142 H 0.52279 0.33111 0.49863 0.0
H143 H 0.48477 0.18466 0.82692 0.0
H144 H 0.48277 0.28034 0.83516 0.0
H145 H 0.42131 0.0723 0.76943 0.0
H146 H 0.43377 0.03672 0.68956 0.0
loop_
_geom_bond_atom_site_label_1
_geom_bond_atom_site_label_2
_geom_bond_distance
_geom_bond_site_symmetry_2
_ccdc_geom_bond_type
In0 O1 2.294 1_455 S
In0 O2 2.326 1_455 S
In0 O6 2.266 . S
In0 O7 2.326 . S
In0 O8 2.266 . S
In0 O9 2.326 . S
In0 O11 2.294 1_455 S
In0 O12 2.326 1_455 S
O1 In0 2.294 1_655 S
O1 C10 1.240 . S
O2 In0 2.326 1_655 S
O2 C10 1.252 . S
C3 O6 1.252 . S
C3 O7 1.260 . S
C4 O11 1.240 . S
C4 O12 1.252 . S
C5 O8 1.252 . S
C5 O9 1.260 . S
O6 In0 2.266 . S
O6 C3 1.252 . S
O7 In0 2.326 . S
O7 C3 1.260 . S
O8 In0 2.266 . S
O8 C5 1.252 . S
O9 In0 2.326 . S
O9 C5 1.260 . S
C10 O1 1.240 . S
C10 O2 1.252 . S
O11 In0 2.294 1_655 S
O11 C4 1.240 . S
O12 In0 2.326 1_655 S
O12 C4 1.252 . S
In13 O14 2.294 . S
In13 O15 2.326 . S
In13 O19 2.266 1_545 S
In13 O20 2.326 1_545 S
In13 O21 2.266 1_545 S
In13 O22 2.326 1_545 S
In13 O24 2.294 . S
In13 O25 2.326 . S
O14 In13 2.294 . S
O14 C23 1.240 . S
O15 In13 2.326 . S
O15 C23 1.252 . S
C16 O19 1.252 . S
C16 O20 1.260 . S
C17 O24 1.240 . S
C17 O25 1.252 . S
C18 O21 1.252 . S
C18 O22 1.260 . S
O19 In13 2.266 1_565 S
O19 C16 1.252 . S
O20 In13 2.326 1_565 S
O20 C16 1.260 . S
O21 In13 2.266 1_565 S
O21 C18 1.252 . S
O22 In13 2.326 1_565 S
O22 C18 1.260 . S
C23 O14 1.240 . S
C23 O15 1.252 . S
O24 In13 2.294 . S
O24 C17 1.240 . S
O25 In13 2.326 . S
O25 C17 1.252 . S
In26 O27 2.294 . S
In26 O28 2.326 . S
In26 O32 2.266 . S
In26 O33 2.326 . S
In26 O34 2.266 . S
In26 O35 2.326 . S
In26 O37 2.294 . S
In26 O38 2.326 . S
O27 In26 2.294 . S
O27 C36 1.240 . S
O28 In26 2.326 . S
O28 C36 1.252 . S
C29 O32 1.252 . S
C29 O33 1.260 . S
C30 O37 1.240 . S
C30 O38 1.252 . S
C31 O34 1.252 . S
C31 O35 1.260 . S
O32 In26 2.266 . S
O32 C29 1.252 . S
O33 In26 2.326 . S
O33 C29 1.260 . S
O34 In26 2.266 . S
O34 C31 1.252 . S
O35 In26 2.326 . S
O35 C31 1.260 . S
C36 O27 1.240 . S
C36 O28 1.252 . S
O37 In26 2.294 . S
O37 C30 1.240 . S
O38 In26 2.326 . S
O38 C30 1.252 . S
C39 C40 1.363 . S
C39 C45 1.379 . S
C39 N47 1.356 . S
C40 C39 1.363 . S
C40 C46 1.363 1_556 S
C41 C42 1.363 . S
C41 C46 1.379 . S
C41 N48 1.356 . S
C42 C41 1.363 . S
C42 C45 1.363 1_554 S
N43 C45 1.356 . S
N43 H55 0.984 . S
N43 H56 0.985 1_556 S
N44 C46 1.356 . S
N44 H49 0.984 1_554 S
N44 H50 0.985 . S
C45 C39 1.379 . S
C45 C42 1.363 1_556 S
C45 N43 1.356 . S
C46 C40 1.363 1_554 S
C46 C41 1.379 . S
C46 N44 1.356 . S
N47 C39 1.356 . S
N47 H53 0.984 . S
N47 H54 0.984 . S
N48 C41 1.356 . S
N48 H51 0.984 . S
N48 H52 0.985 . S
H49 N44 0.984 1_556 S
H50 N44 0.985 . S
H51 N48 0.984 . S
H52 N48 0.985 . S
H53 N47 0.984 . S
H54 N47 0.984 . S
H55 N43 0.984 . S
H56 N43 0.985 1_554 S
C57 C58 1.363 . S
C57 C63 1.379 . S
C57 N65 1.356 . S
C58 C57 1.363 . S
C58 C64 1.363 . S
C59 C60 1.363 . S
C59 C64 1.379 . S
C59 N66 1.356 . S
C60 C59 1.363 . S
C60 C63 1.363 . S
N61 C63 1.356 . S
N61 H73 0.984 . S
N61 H74 0.985 . S
N62 C64 1.356 . S
N62 H67 0.984 . S
N62 H68 0.985 . S
C63 C57 1.379 . S
C63 C60 1.363 . S
C63 N61 1.356 . S
C64 C58 1.363 . S
C64 C59 1.379 . S
C64 N62 1.356 . S
N65 C57 1.356 . S
N65 H71 0.984 . S
N65 H72 0.984 . S
N66 C59 1.356 . S
N66 H69 0.984 . S
N66 H70 0.985 . S
H67 N62 0.984 . S
H68 N62 0.985 . S
H69 N66 0.984 . S
H70 N66 0.985 . S
H71 N65 0.984 . S
H72 N65 0.984 . S
H73 N61 0.984 . S
H74 N61 0.985 . S
C75 C76 1.363 . S
C75 C81 1.379 . S
C75 N83 1.356 . S
C76 C75 1.363 . S
C76 C82 1.363 . S
C77 C78 1.363 . S
C77 C82 1.379 . S
C77 N84 1.356 . S
C78 C77 1.363 . S
C78 C81 1.363 . S
N79 C81 1.356 . S
N79 H91 0.984 . S
N79 H92 0.985 . S
N80 C82 1.356 . S
N80 H85 0.984 . S
N80 H86 0.985 . S
C81 C75 1.379 . S
C81 C78 1.363 . S
C81 N79 1.356 . S
C82 C76 1.363 . S
C82 C77 1.379 . S
C82 N80 1.356 . S
N83 C75 1.356 . S
N83 H89 0.984 . S
N83 H90 0.984 . S
N84 C77 1.356 . S
N84 H87 0.984 . S
N84 H88 0.985 . S
H85 N80 0.984 . S
H86 N80 0.985 . S
H87 N84 0.984 . S
H88 N84 0.985 . S
H89 N83 0.984 . S
H90 N83 0.984 . S
H91 N79 0.984 . S
H92 N79 0.985 . S
C93 C94 1.363 1_554 S
C93 C99 1.379 . S
C93 N101 1.356 . S
C94 C93 1.363 1_556 S
C94 C100 1.363 . S
C95 C96 1.363 1_556 S
C95 C100 1.379 . S
C95 N102 1.358 . S
C96 C95 1.363 1_554 S
C96 C99 1.363 . S
N97 C99 1.356 . S
N97 H109 0.984 . S
N97 H110 0.985 . S
N98 C100 1.356 . S
N98 H103 0.984 . S
N98 H104 0.985 . S
C99 C93 1.379 . S
C99 C96 1.363 . S
C99 N97 1.356 . S
C100 C94 1.363 . S
C100 C95 1.379 . S
C100 N98 1.356 . S
N101 C93 1.356 . S
N101 H107 0.984 . S
N101 H108 0.985 1_554 S
N102 C95 1.358 . S
N102 H105 0.973 1_556 S
N102 H106 0.994 . S
H103 N98 0.984 . S
H104 N98 0.985 . S
H105 N102 0.973 1_554 S
H106 N102 0.994 . S
H107 N101 0.984 . S
H108 N101 0.985 1_556 S
H109 N97 0.984 . S
H110 N97 0.985 . S
C111 C112 1.363 . S
C111 C117 1.379 . S
C111 N119 1.356 . S
C112 C111 1.363 . S
C112 C118 1.363 . S
C113 C114 1.363 . S
C113 C118 1.379 . S
C113 N120 1.356 . S
C114 C113 1.363 . S
C114 C117 1.363 . S
N115 C117 1.356 . S
N115 H127 0.984 . S
N115 H128 0.985 . S
N116 C118 1.356 . S
N116 H121 0.984 . S
N116 H122 0.985 . S
C117 C111 1.379 . S
C117 C114 1.363 . S
C117 N115 1.356 . S
C118 C112 1.363 . S
C118 C113 1.379 . S
C118 N116 1.356 . S
N119 C111 1.356 . S
N119 H125 0.984 . S
N119 H126 0.984 . S
N120 C113 1.356 . S
N120 H123 0.984 . S
N120 H124 0.985 . S
H121 N116 0.984 . S
H122 N116 0.985 . S
H123 N120 0.984 . S
H124 N120 0.985 . S
H125 N119 0.984 . S
H126 N119 0.984 . S
H127 N115 0.984 . S
H128 N115 0.985 . S
C129 C130 1.363 . S
C129 C135 1.379 . S
C129 N137 1.356 . S
C130 C129 1.363 . S
C130 C136 1.363 . S
C131 C132 1.363 . S
C131 C136 1.379 . S
C131 N138 1.356 . S
C132 C131 1.363 . S
C132 C135 1.363 . S
N133 C135 1.356 . S
N133 H145 0.984 . S
N133 H146 0.985 . S
N134 C136 1.356 . S
N134 H139 0.984 . S
N134 H140 0.985 . S
C135 C129 1.379 . S
C135 C132 1.363 . S
C135 N133 1.356 . S
C136 C130 1.363 . S
C136 C131 1.379 . S
C136 N134 1.356 . S
N137 C129 1.356 . S
N137 H143 0.984 . S
N137 H144 0.984 . S
N138 C131 1.356 . S
N138 H141 0.984 . S
N138 H142 0.985 . S
H139 N134 0.984 . S
H140 N134 0.985 . S
H141 N138 0.984 . S
H142 N138 0.985 . S
H143 N137 0.984 . S
H144 N137 0.984 . S
H145 N133 0.984 . S
H146 N133 0.985 . S
C40 C30 1.535 . S
C42 C3 1.536 . S
C58 C10 1.531 . S
C60 C23 1.531 . S
C76 C16 1.536 . S
C78 C36 1.535 . S
C94 C29 1.535 . S
C96 C4 1.535 . S
C112 C18 1.540 . S
C114 C5 1.540 . S
C130 C31 1.536 . S
C132 C17 1.535 . S
