# Generated by pormake.
# Topology qtz, (4)-cn, num edge types: 1
# Building blocks:
#     Node 0, Type 0, BuildingBlock: AZAVOO_clean_sbu_0, # of connection points: 4
#     Node 1, Type 0, BuildingBlock: AZAVOO_clean_sbu_0, # of connection points: 4
#     Node 2, Type 0, BuildingBlock: AZAVOO_clean_sbu_0, # of connection points: 4
#     Edge 3, Type (0, 0), BuildingBlock: UVAHIK_clean_linker_0, # of connection points: 2
#     Edge 4, Type (0, 0), BuildingBlock: UVAHIK_clean_linker_0, # of connection points: 2
#     Edge 5, Type (0, 0), BuildingBlock: UVAHIK_clean_linker_0, # of connection points: 2
#     Edge 6, Type (0, 0), BuildingBlock: UVAHIK_clean_linker_0, # of connection points: 2
#     Edge 7, Type (0, 0), BuildingBlock: UVAHIK_clean_linker_0, # of connection points: 2
#     Edge 8, Type (0, 0), BuildingBlock: UVAHIK_clean_linker_0, # of connection points: 2
# Relax obj value: 0.161
# Max RMSD: 0.223
# Mean RMSD: 0.200
data_MOF--net-qtz--node1-AZAVOO_clean_sbu_0--edge1-UVAHIK_clean_linker_0
_symmetry_space_group_name_H-M    P1
_symmetry_Int_Tables_number       1
_symmetry_cell_setting            triclinic
loop_
_symmetry_equiv_pos_as_xyz
'x, y, z'
_cell_length_a     30.205286
_cell_length_b     30.764171
_cell_length_c     36.448596
_cell_angle_alpha  91.836577
_cell_angle_beta   95.591673
_cell_angle_gamma 123.18913
loop_
_atom_site_label
_atom_site_type_symbol
_atom_site_fract_x
_atom_site_fract_y
_atom_site_fract_z
_atom_type_partial_charge
Mg0 Mg 0.97163 0.50655 0.13722 0.0
O1 O 0.03461 0.58519 0.17086 0.0
O2 O -0.00782 0.60372 0.20892 0.0
Mg3 Mg 0.90359 0.5382 0.19983 0.0
C4 C 0.03483 0.61489 0.1963 0.0
C5 C 0.03258 0.47832 0.09296 0.0
O6 O 0.00147 0.43679 0.10955 0.0
O7 O 0.93797 0.54371 0.10119 0.0
O8 O 0.89394 0.55836 0.14043 0.0
O9 O 0.98509 0.46486 0.18074 0.0
O10 O 0.92451 0.48421 0.17987 0.0
C11 C 0.90788 0.55916 0.10831 0.0
C12 C 0.94826 0.46449 0.19641 0.0
O13 O 0.0302 0.51803 0.09792 0.0
Mg14 Mg 0.59604 0.05446 0.49959 0.0
O15 O 0.53067 0.01354 0.44898 0.0
O16 O 0.52157 0.07377 0.4235 0.0
Mg17 Mg 0.57937 0.15215 0.4578 0.0
C18 C 0.50857 0.02676 0.42413 0.0
C19 C 0.61238 0.972 0.52887 0.0
O20 O 0.66131 0.01269 0.52879 0.0
O21 O 0.53829 0.05824 0.53343 0.0
O22 O 0.53283 0.12016 0.50712 0.0
O23 O 0.65954 0.07478 0.46401 0.0
O24 O 0.6309 0.12523 0.47678 0.0
C25 C 0.52059 0.08759 0.53133 0.0
C26 C 0.66134 0.11726 0.45945 0.0
O27 O 0.5735 0.97586 0.51803 0.0
Mg28 Mg 0.39959 0.45245 0.78474 0.0
O29 O 0.4772 0.48916 0.82598 0.0
O30 O 0.49271 0.56316 0.85348 0.0
Mg31 Mg 0.42867 0.57562 0.82904 0.0
C32 C 0.50518 0.52999 0.84917 0.0
C33 C 0.42026 0.36288 0.77687 0.0
O34 O 0.42257 0.36661 0.81311 0.0
O35 O 0.44476 0.5112 0.74413 0.0
O36 O 0.46024 0.58461 0.77306 0.0
O37 O 0.35067 0.41229 0.82947 0.0
O38 O 0.37431 0.49091 0.81545 0.0
C39 C 0.464 0.56 0.74595 0.0
C40 C 0.35117 0.4541 0.83653 0.0
O41 O 0.41361 0.39378 0.7585 0.0
C42 C 0.3022 0.42001 0.89121 0.0
C43 C 0.3261 0.45964 0.8676 0.0
C44 C 0.27494 0.42366 0.91875 0.0
C45 C 0.25657 0.51591 0.97188 0.0
H46 H 0.11667 0.39232 0.9784 0.0
C47 C 0.10038 0.52053 0.04906 0.0
C48 C 0.06966 0.47829 0.06938 0.0
C49 C 0.13465 0.51946 0.02641 0.0
C50 C 0.15596 0.427 0.97734 0.0
H51 H 0.34092 0.53457 0.85479 0.0
H52 H 0.29355 0.54087 0.90272 0.0
H53 H 0.1727 0.38827 0.93662 0.0
H54 H 0.05169 0.40238 0.08257 0.0
H55 H 0.11177 0.40091 0.04362 0.0
H56 H 0.23953 0.55472 0.01246 0.0
C57 C 0.29637 0.5073 0.90029 0.0
C58 C 0.18808 0.42463 0.95342 0.0
C59 C 0.32344 0.50359 0.87273 0.0
C60 C 0.07444 0.43539 0.06702 0.0
C61 C 0.10873 0.4344 0.04455 0.0
C62 C 0.22445 0.51825 -0.00409 0.0
C63 C 0.27115 0.46703 0.92322 0.0
C64 C 0.2386 0.4691 0.95027 0.0
C65 C 0.1389 0.47618 0.02375 0.0
C66 C 0.17367 0.47385 -0.00123 0.0
H67 H 0.30369 0.38573 0.88802 0.0
H68 H 0.25639 0.39229 0.93633 0.0
H69 H 0.29558 0.55068 0.97029 0.0
H70 H 0.09754 0.55413 0.05032 0.0
H71 H 0.15697 0.55203 0.01042 0.0
C72 C 0.951 0.40925 0.24404 0.0
C73 C 0.93179 0.43914 0.2307 0.0
C74 C 0.92987 0.37896 0.27316 0.0
C75 C 0.85305 0.35824 0.35013 0.0
H76 H 0.79553 0.21148 0.32569 0.0
C77 C 0.69598 0.19979 0.42937 0.0
C78 C 0.69654 0.15514 0.43496 0.0
C79 C 0.72995 0.23639 0.40701 0.0
C80 C 0.81222 0.25239 0.3334 0.0
H81 H 0.87758 0.46303 0.23882 0.0
H82 H 0.84139 0.41078 0.29016 0.0
H83 H 0.84867 0.27466 0.28389 0.0
H84 H 0.73415 0.11441 0.42213 0.0
H85 H 0.79473 0.17917 0.38386 0.0
H86 H 0.81698 0.33631 0.3997 0.0
C87 C 0.87262 0.4107 0.27791 0.0
C88 C 0.84256 0.28854 0.30938 0.0
C89 C 0.89325 0.44049 0.24845 0.0
C90 C 0.73235 0.14816 0.41803 0.0
C91 C 0.76693 0.1852 0.39598 0.0
C92 C 0.82332 0.32221 0.37444 0.0
C93 C 0.88971 0.37859 0.28979 0.0
C94 C 0.86243 0.3416 0.31723 0.0
C95 C 0.76606 0.22975 0.39017 0.0
C96 C 0.8016 0.26867 0.366 0.0
H97 H 0.98076 0.40745 0.23098 0.0
H98 H 0.94396 0.35481 0.28209 0.0
H99 H 0.86841 0.39907 0.3569 0.0
H100 H 0.66944 0.20682 0.44229 0.0
H101 H 0.72735 0.26962 0.40264 0.0
C102 C 0.55135 0.87813 0.5399 0.0
C103 C 0.60314 0.92362 0.54309 0.0
C104 C 0.54259 0.83355 0.55548 0.0
C105 C 0.59681 0.79868 0.63298 0.0
H106 H 0.503 0.6566 0.58652 0.0
C107 C 0.54242 0.6303 0.7201 0.0
C108 C 0.48845 0.58927 0.71485 0.0
C109 C 0.56327 0.66556 0.69354 0.0
C110 C 0.52906 0.696 0.6 0.0
H111 H 0.68655 0.95739 0.56386 0.0
H112 H 0.67094 0.87986 0.59156 0.0
H113 H 0.52504 0.72966 0.55009 0.0
H114 H 0.41406 0.55099 0.67778 0.0
H115 H 0.44936 0.61382 0.63208 0.0
H116 H 0.59856 0.76615 0.68329 0.0
C117 C 0.63727 0.87876 0.57698 0.0
C118 C 0.54178 0.73774 0.57905 0.0
C119 C 0.64613 0.92308 0.5611 0.0
C120 C 0.45609 0.58217 0.68197 0.0
C121 C 0.47653 0.61818 0.65578 0.0
C122 C 0.58349 0.75716 0.65401 0.0
C123 C 0.58535 0.83388 0.57482 0.0
C124 C 0.57527 0.78941 0.59554 0.0
C125 C 0.52996 0.66149 0.66189 0.0
C126 C 0.54885 0.70517 0.638 0.0
H127 H 0.51746 0.87724 0.52598 0.0
H128 H 0.50209 0.79955 0.55371 0.0
H129 H 0.62209 0.83815 0.64652 0.0
H130 H 0.56789 0.63628 0.74544 0.0
H131 H 0.60496 0.6974 0.69873 0.0
C132 C 0.57359 0.50853 0.86573 0.0
C133 C 0.55318 0.53917 0.87246 0.0
C134 C 0.61825 0.517 0.88857 0.0
C135 C 0.68646 0.56603 -0.01687 0.0
H136 H 0.80677 0.57474 0.94594 0.0
C137 C 0.86186 0.60206 0.08509 0.0
C138 C 0.88228 0.57176 0.07762 0.0
C139 C 0.82883 0.60583 0.05763 0.0
C140 C 0.77329 0.57195 0.9568 0.0
H141 H 0.56441 0.60328 0.90823 0.0
H142 H 0.64146 0.61736 0.94804 0.0
H143 H 0.73341 0.56344 0.90234 0.0
H144 H 0.88666 0.52405 0.03492 0.0
H145 H 0.82757 0.52902 -0.01263 0.0
H146 H 0.72437 0.57232 0.03729 0.0
C147 C 0.62295 0.58684 0.92515 0.0
C148 C 0.73137 0.56554 0.9318 0.0
C149 C 0.57884 0.57881 0.90221 0.0
C150 C 0.8717 0.54792 0.04147 0.0
C151 C 0.83781 0.55088 0.01414 0.0
C152 C 0.72783 0.57176 0.00802 0.0
C153 C 0.64286 0.55581 0.91879 0.0
C154 C 0.68762 0.56263 0.94479 0.0
C155 C 0.81446 0.57843 0.02226 0.0
C156 C 0.77193 0.57491 -0.00472 0.0
H157 H 0.55492 0.4778 0.84298 0.0
H158 H 0.63265 0.4923 0.88322 0.0
H159 H 0.65281 0.56306 -0.0061 0.0
H160 H 0.86989 0.62143 0.11259 0.0
H161 H 0.81308 0.62883 0.0646 0.0
C162 C 0.44427 0.00063 0.36601 0.0
C163 C 0.46529 0.98625 0.39577 0.0
C164 C 0.40148 0.96264 0.34037 0.0
C165 C 0.324 0.82188 0.30565 0.0
H166 H 0.21204 0.84485 0.27635 0.0
C167 C 0.08742 0.69477 0.24196 0.0
C168 C 0.0864 0.66208 0.21355 0.0
C169 C 0.13586 0.73676 0.26049 0.0
C170 C 0.24286 0.83774 0.28431 0.0
H171 H 0.45839 0.9204 0.42129 0.0
H172 H 0.38308 0.85413 0.37691 0.0
H173 H 0.29252 0.91202 0.31627 0.0
H174 H 0.13593 0.64915 0.18163 0.0
H175 H 0.22063 0.723 0.21378 0.0
H176 H 0.27319 0.74663 0.27483 0.0
C177 C 0.40024 0.89486 0.37311 0.0
C178 C 0.28935 0.87655 0.30687 0.0
C179 C 0.44327 0.93291 0.3987 0.0
C180 C 0.13517 0.67339 0.20343 0.0
C181 C 0.18375 0.71551 0.22203 0.0
C182 C 0.27738 0.78297 0.2831 0.0
C183 C 0.37838 0.90928 0.34389 0.0
C184 C 0.33029 0.86892 0.31817 0.0
C185 C 0.18464 0.74733 0.25107 0.0
C186 C 0.23595 0.79018 0.27257 0.0
H187 H 0.46052 0.04132 0.36262 0.0
H188 H 0.38632 0.97517 0.31783 0.0
H189 H 0.355 0.81497 0.31345 0.0
H190 H 0.05073 0.68732 0.25059 0.0
H191 H 0.135 0.75999 0.28302 0.0
C192 C 0.40733 0.31021 0.71849 0.0
C193 C 0.42139 0.32079 0.75714 0.0
C194 C 0.40668 0.26971 0.6996 0.0
C195 C 0.46778 0.19599 0.70366 0.0
H196 H 0.35654 0.10998 0.62153 0.0
C197 C 0.49641 0.07631 0.59587 0.0
C198 C 0.4895 0.08862 0.55984 0.0
C199 C 0.47597 0.08825 0.6246 0.0
C200 C 0.38773 0.13338 0.64454 0.0
H201 H 0.44599 0.29718 0.80631 0.0
H202 H 0.44593 0.22668 0.77291 0.0
H203 H 0.34559 0.16509 0.66429 0.0
H204 H 0.45169 0.1184 0.52492 0.0
H205 H 0.41616 0.13896 0.57459 0.0
H206 H 0.51139 0.16678 0.68268 0.0
C207 C 0.43498 0.24969 0.75746 0.0
C208 C 0.38148 0.16494 0.66896 0.0
C209 C 0.43503 0.29 0.7765 0.0
C210 C 0.45806 0.10888 0.55247 0.0
C211 C 0.43729 0.12028 0.58097 0.0
C212 C 0.47417 0.16456 0.6791 0.0
C213 C 0.42051 0.23903 0.71882 0.0
C214 C 0.42241 0.19815 0.69782 0.0
C215 C 0.44771 0.11199 0.61761 0.0
C216 C 0.43518 0.13464 0.64835 0.0
H217 H 0.39647 0.33304 0.7027 0.0
H218 H 0.39635 0.26307 0.66974 0.0
H219 H 0.50003 0.22129 0.72562 0.0
H220 H 0.52048 0.06066 0.60236 0.0
H221 H 0.48417 0.08095 0.65251 0.0
loop_
_geom_bond_atom_site_label_1
_geom_bond_atom_site_label_2
_geom_bond_distance
_geom_bond_site_symmetry_2
_ccdc_geom_bond_type
Mg0 O1 2.028 1_655 S
Mg0 O7 1.986 . S
Mg0 O9 2.114 . S
Mg0 O10 2.251 . S
Mg0 O13 2.010 1_655 S
O1 Mg0 2.028 1_455 S
O1 C4 1.250 . S
O2 Mg3 2.028 1_455 S
O2 C4 1.248 . S
Mg3 O2 2.028 1_655 S
Mg3 O8 2.032 . S
Mg3 O10 2.079 . S
C4 O1 1.250 . S
C4 O2 1.248 . S
C5 O6 1.264 . S
C5 O13 1.249 . S
O6 C5 1.264 . S
O7 Mg0 1.986 . S
O7 C11 1.246 . S
O8 Mg3 2.032 . S
O8 C11 1.259 . S
O9 Mg0 2.114 . S
O9 C12 1.252 . S
O10 Mg0 2.251 . S
O10 Mg3 2.079 . S
O10 C12 1.273 . S
C11 O7 1.246 . S
C11 O8 1.259 . S
C12 O9 1.252 . S
C12 O10 1.273 . S
O13 Mg0 2.010 1_455 S
O13 C5 1.249 . S
Mg14 O15 2.028 1_545 S
Mg14 O21 1.986 . S
Mg14 O23 2.114 . S
Mg14 O24 2.251 . S
Mg14 O27 2.010 1_545 S
O15 Mg14 2.028 1_565 S
O15 C18 1.250 . S
O16 Mg17 2.028 . S
O16 C18 1.248 1_545 S
Mg17 O16 2.028 . S
Mg17 O22 2.032 . S
Mg17 O24 2.079 . S
C18 O15 1.250 . S
C18 O16 1.248 1_565 S
C19 O20 1.264 . S
C19 O27 1.249 . S
O20 C19 1.264 . S
O21 Mg14 1.986 . S
O21 C25 1.246 . S
O22 Mg17 2.032 . S
O22 C25 1.259 . S
O23 Mg14 2.114 . S
O23 C26 1.252 . S
O24 Mg14 2.251 . S
O24 Mg17 2.079 . S
O24 C26 1.273 . S
C25 O21 1.246 . S
C25 O22 1.259 . S
C26 O23 1.252 . S
C26 O24 1.273 . S
O27 Mg14 2.010 1_565 S
O27 C19 1.249 . S
Mg28 O29 2.028 . S
Mg28 O35 1.986 . S
Mg28 O37 2.114 . S
Mg28 O38 2.251 . S
Mg28 O41 2.010 . S
O29 Mg28 2.028 . S
O29 C32 1.250 . S
O30 Mg31 2.028 . S
O30 C32 1.248 . S
Mg31 O30 2.028 . S
Mg31 O36 2.032 . S
Mg31 O38 2.079 . S
C32 O29 1.250 . S
C32 O30 1.248 . S
C33 O34 1.264 . S
C33 O41 1.249 . S
O34 C33 1.264 . S
O35 Mg28 1.986 . S
O35 C39 1.246 . S
O36 Mg31 2.032 . S
O36 C39 1.259 . S
O37 Mg28 2.114 . S
O37 C40 1.252 . S
O38 Mg28 2.251 . S
O38 Mg31 2.079 . S
O38 C40 1.273 . S
C39 O35 1.246 . S
C39 O36 1.259 . S
C40 O37 1.252 . S
C40 O38 1.273 . S
O41 Mg28 2.010 . S
O41 C33 1.249 . S
C42 C43 1.349 . S
C42 C44 1.327 . S
C42 H67 0.950 . S
C43 C42 1.349 . S
C43 C59 1.349 . S
C44 C42 1.327 . S
C44 C63 1.429 . S
C44 H68 0.950 . S
C45 C62 1.574 . S
C45 C64 1.368 . S
C45 H69 0.949 . S
H46 C50 0.949 . S
C47 C48 1.349 . S
C47 C49 1.327 . S
C47 H70 0.950 . S
C48 C47 1.349 . S
C48 C60 1.349 . S
C49 C47 1.327 . S
C49 C65 1.429 . S
C49 H71 0.950 . S
C50 H46 0.949 . S
C50 C58 1.574 . S
C50 C66 1.368 . S
H51 C59 0.950 . S
H52 C57 0.950 . S
H53 C58 0.949 . S
H54 C60 0.950 . S
H55 C61 0.950 . S
H56 C62 0.949 . S
C57 H52 0.950 . S
C57 C59 1.327 . S
C57 C63 1.429 . S
C58 C50 1.574 . S
C58 H53 0.949 . S
C58 C64 1.368 1_554 S
C59 C43 1.349 . S
C59 H51 0.950 . S
C59 C57 1.327 . S
C60 C48 1.349 . S
C60 H54 0.950 . S
C60 C61 1.327 . S
C61 H55 0.950 . S
C61 C60 1.327 . S
C61 C65 1.429 . S
C62 C45 1.574 . S
C62 H56 0.949 . S
C62 C66 1.368 1_556 S
C63 C44 1.429 . S
C63 C57 1.429 . S
C63 C64 1.523 . S
C64 C45 1.368 . S
C64 C58 1.368 1_556 S
C64 C63 1.523 . S
C65 C49 1.429 . S
C65 C61 1.429 . S
C65 C66 1.523 . S
C66 C50 1.368 . S
C66 C62 1.368 1_554 S
C66 C65 1.523 . S
H67 C42 0.950 . S
H68 C44 0.950 . S
H69 C45 0.949 . S
H70 C47 0.950 . S
H71 C49 0.950 . S
C72 C73 1.349 . S
C72 C74 1.327 . S
C72 H97 0.950 . S
C73 C72 1.349 . S
C73 C89 1.349 . S
C74 C72 1.327 . S
C74 C93 1.429 . S
C74 H98 0.950 . S
C75 C92 1.574 . S
C75 C94 1.368 . S
C75 H99 0.949 . S
H76 C80 0.949 . S
C77 C78 1.349 . S
C77 C79 1.327 . S
C77 H100 0.950 . S
C78 C77 1.349 . S
C78 C90 1.349 . S
C79 C77 1.327 . S
C79 C95 1.429 . S
C79 H101 0.950 . S
C80 H76 0.949 . S
C80 C88 1.574 . S
C80 C96 1.368 . S
H81 C89 0.950 . S
H82 C87 0.950 . S
H83 C88 0.949 . S
H84 C90 0.950 . S
H85 C91 0.950 . S
H86 C92 0.949 . S
C87 H82 0.950 . S
C87 C89 1.327 . S
C87 C93 1.429 . S
C88 C80 1.574 . S
C88 H83 0.949 . S
C88 C94 1.368 . S
C89 C73 1.349 . S
C89 H81 0.950 . S
C89 C87 1.327 . S
C90 C78 1.349 . S
C90 H84 0.950 . S
C90 C91 1.327 . S
C91 H85 0.950 . S
C91 C90 1.327 . S
C91 C95 1.429 . S
C92 C75 1.574 . S
C92 H86 0.949 . S
C92 C96 1.368 . S
C93 C74 1.429 . S
C93 C87 1.429 . S
C93 C94 1.523 . S
C94 C75 1.368 . S
C94 C88 1.368 . S
C94 C93 1.523 . S
C95 C79 1.429 . S
C95 C91 1.429 . S
C95 C96 1.523 . S
C96 C80 1.368 . S
C96 C92 1.368 . S
C96 C95 1.523 . S
H97 C72 0.950 . S
H98 C74 0.950 . S
H99 C75 0.949 . S
H100 C77 0.950 . S
H101 C79 0.950 . S
C102 C103 1.349 . S
C102 C104 1.327 . S
C102 H127 0.950 . S
C103 C102 1.349 . S
C103 C119 1.349 . S
C104 C102 1.327 . S
C104 C123 1.429 . S
C104 H128 0.950 . S
C105 C122 1.574 . S
C105 C124 1.368 . S
C105 H129 0.949 . S
H106 C110 0.949 . S
C107 C108 1.349 . S
C107 C109 1.327 . S
C107 H130 0.950 . S
C108 C107 1.349 . S
C108 C120 1.349 . S
C109 C107 1.327 . S
C109 C125 1.429 . S
C109 H131 0.950 . S
C110 H106 0.949 . S
C110 C118 1.574 . S
C110 C126 1.368 . S
H111 C119 0.950 . S
H112 C117 0.950 . S
H113 C118 0.949 . S
H114 C120 0.950 . S
H115 C121 0.950 . S
H116 C122 0.949 . S
C117 H112 0.950 . S
C117 C119 1.327 . S
C117 C123 1.429 . S
C118 C110 1.574 . S
C118 H113 0.949 . S
C118 C124 1.368 . S
C119 C103 1.349 . S
C119 H111 0.950 . S
C119 C117 1.327 . S
C120 C108 1.349 . S
C120 H114 0.950 . S
C120 C121 1.327 . S
C121 H115 0.950 . S
C121 C120 1.327 . S
C121 C125 1.429 . S
C122 C105 1.574 . S
C122 H116 0.949 . S
C122 C126 1.368 . S
C123 C104 1.429 . S
C123 C117 1.429 . S
C123 C124 1.523 . S
C124 C105 1.368 . S
C124 C118 1.368 . S
C124 C123 1.523 . S
C125 C109 1.429 . S
C125 C121 1.429 . S
C125 C126 1.523 . S
C126 C110 1.368 . S
C126 C122 1.368 . S
C126 C125 1.523 . S
H127 C102 0.950 . S
H128 C104 0.950 . S
H129 C105 0.949 . S
H130 C107 0.950 . S
H131 C109 0.950 . S
C132 C133 1.349 . S
C132 C134 1.327 . S
C132 H157 0.950 . S
C133 C132 1.349 . S
C133 C149 1.349 . S
C134 C132 1.327 . S
C134 C153 1.429 . S
C134 H158 0.950 . S
C135 C152 1.582 . S
C135 C154 1.359 1_554 S
C135 H159 0.950 . S
H136 C140 0.949 . S
C137 C138 1.349 . S
C137 C139 1.327 . S
C137 H160 0.950 . S
C138 C137 1.349 . S
C138 C150 1.349 . S
C139 C137 1.327 . S
C139 C155 1.429 . S
C139 H161 0.950 . S
C140 H136 0.949 . S
C140 C148 1.574 . S
C140 C156 1.368 1_556 S
H141 C149 0.950 . S
H142 C147 0.950 . S
H143 C148 0.949 . S
H144 C150 0.950 . S
H145 C151 0.950 . S
H146 C152 0.949 . S
C147 H142 0.950 . S
C147 C149 1.327 . S
C147 C153 1.429 . S
C148 C140 1.574 . S
C148 H143 0.949 . S
C148 C154 1.368 . S
C149 C133 1.349 . S
C149 H141 0.950 . S
C149 C147 1.327 . S
C150 C138 1.349 . S
C150 H144 0.950 . S
C150 C151 1.327 . S
C151 H145 0.950 . S
C151 C150 1.327 . S
C151 C155 1.429 . S
C152 C135 1.582 . S
C152 H146 0.949 . S
C152 C156 1.368 . S
C153 C134 1.429 . S
C153 C147 1.429 . S
C153 C154 1.523 . S
C154 C135 1.359 1_556 S
C154 C148 1.368 . S
C154 C153 1.523 . S
C155 C139 1.429 . S
C155 C151 1.429 . S
C155 C156 1.523 . S
C156 C140 1.368 1_554 S
C156 C152 1.368 . S
C156 C155 1.523 . S
H157 C132 0.950 . S
H158 C134 0.950 . S
H159 C135 0.950 . S
H160 C137 0.950 . S
H161 C139 0.950 . S
C162 C163 1.349 . S
C162 C164 1.327 . S
C162 H187 0.950 . S
C163 C162 1.349 . S
C163 C179 1.349 . S
C164 C162 1.327 . S
C164 C183 1.429 . S
C164 H188 0.950 . S
C165 C182 1.574 . S
C165 C184 1.368 . S
C165 H189 0.949 . S
H166 C170 0.949 . S
C167 C168 1.349 . S
C167 C169 1.327 . S
C167 H190 0.950 . S
C168 C167 1.349 . S
C168 C180 1.349 . S
C169 C167 1.327 . S
C169 C185 1.429 . S
C169 H191 0.950 . S
C170 H166 0.949 . S
C170 C178 1.574 . S
C170 C186 1.368 . S
H171 C179 0.950 . S
H172 C177 0.950 . S
H173 C178 0.949 . S
H174 C180 0.950 . S
H175 C181 0.950 . S
H176 C182 0.949 . S
C177 H172 0.950 . S
C177 C179 1.327 . S
C177 C183 1.429 . S
C178 C170 1.574 . S
C178 H173 0.949 . S
C178 C184 1.368 . S
C179 C163 1.349 . S
C179 H171 0.950 . S
C179 C177 1.327 . S
C180 C168 1.349 . S
C180 H174 0.950 . S
C180 C181 1.327 . S
C181 H175 0.950 . S
C181 C180 1.327 . S
C181 C185 1.429 . S
C182 C165 1.574 . S
C182 H176 0.949 . S
C182 C186 1.368 . S
C183 C164 1.429 . S
C183 C177 1.429 . S
C183 C184 1.523 . S
C184 C165 1.368 . S
C184 C178 1.368 . S
C184 C183 1.523 . S
C185 C169 1.429 . S
C185 C181 1.429 . S
C185 C186 1.523 . S
C186 C170 1.368 . S
C186 C182 1.368 . S
C186 C185 1.523 . S
H187 C162 0.950 . S
H188 C164 0.950 . S
H189 C165 0.949 . S
H190 C167 0.950 . S
H191 C169 0.950 . S
C192 C193 1.349 . S
C192 C194 1.327 . S
C192 H217 0.950 . S
C193 C192 1.349 . S
C193 C209 1.349 . S
C194 C192 1.327 . S
C194 C213 1.429 . S
C194 H218 0.950 . S
C195 C212 1.574 . S
C195 C214 1.368 . S
C195 H219 0.949 . S
H196 C200 0.949 . S
C197 C198 1.349 . S
C197 C199 1.327 . S
C197 H220 0.950 . S
C198 C197 1.349 . S
C198 C210 1.349 . S
C199 C197 1.327 . S
C199 C215 1.429 . S
C199 H221 0.950 . S
C200 H196 0.949 . S
C200 C208 1.574 . S
C200 C216 1.368 . S
H201 C209 0.950 . S
H202 C207 0.950 . S
H203 C208 0.949 . S
H204 C210 0.950 . S
H205 C211 0.950 . S
H206 C212 0.949 . S
C207 H202 0.950 . S
C207 C209 1.327 . S
C207 C213 1.429 . S
C208 C200 1.574 . S
C208 H203 0.949 . S
C208 C214 1.368 . S
C209 C193 1.349 . S
C209 H201 0.950 . S
C209 C207 1.327 . S
C210 C198 1.349 . S
C210 H204 0.950 . S
C210 C211 1.327 . S
C211 H205 0.950 . S
C211 C210 1.327 . S
C211 C215 1.429 . S
C212 C195 1.574 . S
C212 H206 0.949 . S
C212 C216 1.368 . S
C213 C194 1.429 . S
C213 C207 1.429 . S
C213 C214 1.523 . S
C214 C195 1.368 . S
C214 C208 1.368 . S
C214 C213 1.523 . S
C215 C199 1.429 . S
C215 C211 1.429 . S
C215 C216 1.523 . S
C216 C200 1.368 . S
C216 C212 1.368 . S
C216 C215 1.523 . S
H217 C192 0.950 . S
H218 C194 0.950 . S
H219 C195 0.949 . S
H220 C197 0.950 . S
H221 C199 0.950 . S
C43 C40 1.251 . S
C48 C5 1.077 . S
C73 C12 1.286 . S
C78 C26 1.283 . S
C103 C19 1.007 . S
C108 C39 1.130 . S
C133 C32 1.142 . S
C138 C11 1.144 . S
C163 C18 1.235 . S
C168 C4 1.232 . S
C193 C33 1.011 . S
C198 C25 1.124 . S
