# Generated by pormake.
# Topology mok, (4)-cn, num edge types: 1
# Building blocks:
#     Node 0, Type 0, BuildingBlock: CEKHIL_clean_sbu_0, # of connection points: 4
#     Node 1, Type 0, BuildingBlock: CEKHIL_clean_sbu_0, # of connection points: 4
#     Node 2, Type 0, BuildingBlock: CEKHIL_clean_sbu_0, # of connection points: 4
#     Node 3, Type 0, BuildingBlock: CEKHIL_clean_sbu_0, # of connection points: 4
#     Node 4, Type 0, BuildingBlock: CEKHIL_clean_sbu_0, # of connection points: 4
#     Node 5, Type 0, BuildingBlock: CEKHIL_clean_sbu_0, # of connection points: 4
#     Node 6, Type 0, BuildingBlock: CEKHIL_clean_sbu_0, # of connection points: 4
#     Node 7, Type 0, BuildingBlock: CEKHIL_clean_sbu_0, # of connection points: 4
#     Edge 8, Type (0, 0), None
#     Edge 9, Type (0, 0), None
#     Edge 10, Type (0, 0), None
#     Edge 11, Type (0, 0), None
#     Edge 12, Type (0, 0), None
#     Edge 13, Type (0, 0), None
#     Edge 14, Type (0, 0), None
#     Edge 15, Type (0, 0), None
#     Edge 16, Type (0, 0), None
#     Edge 17, Type (0, 0), None
#     Edge 18, Type (0, 0), None
#     Edge 19, Type (0, 0), None
#     Edge 20, Type (0, 0), None
#     Edge 21, Type (0, 0), None
#     Edge 22, Type (0, 0), None
#     Edge 23, Type (0, 0), None
# Relax obj value: 0.016
# Max RMSD: 0.040
# Mean RMSD: 0.040
data_MOF--net-mok--node1-CEKHIL_clean_sbu_0--edge1-none
_symmetry_space_group_name_H-M    P1
_symmetry_Int_Tables_number       1
_symmetry_cell_setting            triclinic
loop_
_symmetry_equiv_pos_as_xyz
'x, y, z'
_cell_length_a     24.394411
_cell_length_b     6.8243186
_cell_length_c     11.64333
_cell_angle_alpha  90.000019
_cell_angle_beta   90.000002
_cell_angle_gamma 90.000573
loop_
_atom_site_label
_atom_site_type_symbol
_atom_site_fract_x
_atom_site_fract_y
_atom_site_fract_z
_atom_type_partial_charge
Co0 Co 0.60724 0.27164 0.0557 0.0
O1 O 0.52818 0.25896 0.04395 0.0
O2 O 0.58429 0.00676 0.02138 0.0
C3 C 0.60902 0.44648 0.22018 0.0
O4 O 0.68944 0.21923 0.06535 0.0
Co5 Co 0.67133 0.66121 0.04762 0.0
O6 O 0.73755 0.49893 0.07871 0.0
C7 C 0.62313 0.50339 0.83566 0.0
C8 C 0.53438 0.0725 0.02601 0.0
C9 C 0.73496 0.31243 0.07661 0.0
O10 O 0.61369 0.33952 0.88709 0.0
O11 O 0.64005 0.65706 0.8877 0.0
O12 O 0.60247 0.25773 0.22281 0.0
O13 O 0.61047 0.52557 0.11949 0.0
Co14 Co 0.41427 0.73989 0.0557 0.0
O15 O 0.49333 0.75257 0.04395 0.0
O16 O 0.43721 1.00477 0.02139 0.0
C17 C 0.41249 0.56505 0.22018 0.0
O18 O 0.33207 0.79229 0.06535 0.0
Co19 Co 0.35018 0.35032 0.04762 0.0
O20 O 0.28395 0.51259 0.07871 0.0
C21 C 0.39838 0.50814 0.83566 0.0
C22 C 0.48712 0.93904 0.02603 0.0
C23 C 0.28654 0.69909 0.07661 0.0
O24 O 0.40782 0.67201 0.88709 0.0
O25 O 0.38146 0.35447 0.8877 0.0
O26 O 0.41903 0.7538 0.22281 0.0
O27 O 0.41104 0.48596 0.11949 0.0
Co28 Co 0.60724 0.73989 0.48955 0.0
O29 O 0.52818 0.75257 0.50131 0.0
O30 O 0.58429 1.00477 0.52387 0.0
C31 C 0.609 0.56504 0.32508 0.0
O32 O 0.68944 0.79229 0.47989 0.0
Co33 Co 0.67133 0.35031 0.49761 0.0
O34 O 0.73755 0.5126 0.46652 0.0
C35 C 0.62311 0.5081 0.70957 0.0
C36 C 0.53438 0.93903 0.51925 0.0
C37 C 0.73496 0.69909 0.46863 0.0
O38 O 0.61369 0.672 0.65816 0.0
O39 O 0.64004 0.35445 0.65752 0.0
O40 O 0.60246 0.7538 0.32244 0.0
O41 O 0.61046 0.48596 0.42576 0.0
Co42 Co 0.41427 0.27164 0.48955 0.0
O43 O 0.49333 0.25896 0.50131 0.0
O44 O 0.43721 0.00676 0.52387 0.0
C45 C 0.4125 0.44648 0.32508 0.0
O46 O 0.33207 0.21924 0.47989 0.0
Co47 Co 0.35018 0.66122 0.49761 0.0
O48 O 0.28395 0.49894 0.46652 0.0
C49 C 0.3984 0.50343 0.70957 0.0
C50 C 0.48712 0.07249 0.51923 0.0
C51 C 0.28654 0.31244 0.46863 0.0
O52 O 0.40782 0.33953 0.65816 0.0
O53 O 0.38147 0.65708 0.65753 0.0
O54 O 0.41904 0.25773 0.32244 0.0
O55 O 0.41105 0.52557 0.42576 0.0
Co56 Co 0.10724 0.77164 0.0557 0.0
O57 O 0.02818 0.75896 0.04395 0.0
O58 O 0.08429 0.50676 0.02138 0.0
C59 C 0.10902 0.94648 0.22018 0.0
O60 O 0.18944 0.71923 0.06535 0.0
Co61 Co 0.17133 0.16121 0.04762 0.0
O62 O 0.23755 0.99893 0.07871 0.0
C63 C 0.12313 1.00339 0.83566 0.0
C64 C 0.03438 0.5725 0.02601 0.0
C65 C 0.23496 0.81243 0.07663 0.0
O66 O 0.11369 0.83952 0.88709 0.0
O67 O 0.14005 0.15706 0.8877 0.0
O68 O 0.10247 0.75773 0.22281 0.0
O69 O 0.11047 0.02557 0.11949 0.0
Co70 Co 0.91427 0.23989 0.0557 0.0
O71 O 0.99333 0.25257 0.04395 0.0
O72 O 0.93721 0.50477 0.02139 0.0
C73 C 0.91248 0.06505 0.22018 0.0
O74 O 0.83207 0.29229 0.06535 0.0
Co75 Co 0.85017 0.85032 0.04762 0.0
O76 O 0.78395 0.0126 0.07871 0.0
C77 C 0.89838 0.00814 0.83566 0.0
C78 C 0.98712 0.43904 0.02603 0.0
C79 C 0.78654 0.19909 0.07662 0.0
O80 O 0.90782 0.17201 0.88709 0.0
O81 O 0.88146 0.85447 0.8877 0.0
O82 O 0.91903 0.2538 0.22281 0.0
O83 O 0.91104 0.98596 0.11949 0.0
Co84 Co 0.10724 0.23989 0.48955 0.0
O85 O 0.02818 0.25257 0.50131 0.0
O86 O 0.08429 0.50477 0.52387 0.0
C87 C 0.109 0.06505 0.32508 0.0
O88 O 0.18944 0.29229 0.47989 0.0
Co89 Co 0.17133 0.85031 0.49761 0.0
O90 O 0.23755 0.0126 0.46652 0.0
C91 C 0.12311 0.0081 0.70957 0.0
C92 C 0.03438 0.43903 0.51925 0.0
C93 C 0.23496 0.1991 0.46861 0.0
O94 O 0.11369 0.172 0.65816 0.0
O95 O 0.14004 0.85445 0.65752 0.0
O96 O 0.10246 0.2538 0.32244 0.0
O97 O 0.11046 0.98596 0.42577 0.0
Co98 Co 0.91427 0.77164 0.48955 0.0
O99 O 0.99333 0.75896 0.50131 0.0
O100 O 0.93721 0.50676 0.52387 0.0
C101 C 0.9125 0.94648 0.32508 0.0
O102 O 0.83207 0.71924 0.47989 0.0
Co103 Co 0.85017 0.16122 0.49761 0.0
O104 O 0.78395 0.99893 0.46652 0.0
C105 C 0.8984 1.00343 0.70957 0.0
C106 C 0.98712 0.57249 0.51923 0.0
C107 C 0.78655 0.81244 0.46861 0.0
O108 O 0.90782 0.83953 0.65816 0.0
O109 O 0.88146 0.15708 0.65752 0.0
O110 O 0.91904 0.75773 0.32244 0.0
O111 O 0.91104 0.02557 0.42576 0.0
loop_
_geom_bond_atom_site_label_1
_geom_bond_atom_site_label_2
_geom_bond_distance
_geom_bond_site_symmetry_2
_ccdc_geom_bond_type
Co0 O1 2.216 . S
Co0 O2 2.091 1_545 S
Co0 O4 2.004 . S
Co0 O10 2.021 1_554 S
Co0 O12 2.137 . S
Co0 O13 2.244 . S
O1 Co0 2.216 . S
O1 C8 1.247 . S
O2 Co0 2.091 1_565 S
O2 C8 1.261 1_565 S
C3 O12 1.247 . S
C3 O13 1.272 . S
O4 Co0 2.004 . S
O4 C9 1.259 . S
Co5 O6 2.061 . S
Co5 O11 2.052 1_554 S
Co5 O13 2.135 . S
O6 Co5 2.061 . S
O6 C9 1.235 . S
C7 O10 1.238 . S
C7 O11 1.241 . S
C8 O1 1.247 . S
C8 O2 1.261 1_545 S
C9 O4 1.259 . S
C9 O6 1.235 . S
O10 Co0 2.021 1_556 S
O10 C7 1.238 . S
O11 Co5 2.052 1_556 S
O11 C7 1.241 . S
O12 Co0 2.137 . S
O12 C3 1.247 . S
O13 Co0 2.244 . S
O13 C3 1.272 . S
O13 Co5 2.135 . S
Co14 O15 2.216 . S
Co14 O16 2.091 1_565 S
Co14 O18 2.004 . S
Co14 O24 2.021 1_554 S
Co14 O26 2.137 . S
Co14 O27 2.244 . S
O15 Co14 2.216 . S
O15 C22 1.247 . S
O16 Co14 2.091 1_545 S
O16 C22 1.261 1_545 S
C17 O26 1.247 . S
C17 O27 1.272 . S
O18 Co14 2.004 . S
O18 C23 1.259 . S
Co19 O20 2.061 . S
Co19 O25 2.052 1_554 S
Co19 O27 2.135 . S
O20 Co19 2.061 . S
O20 C23 1.235 . S
C21 O24 1.238 . S
C21 O25 1.241 . S
C22 O15 1.247 . S
C22 O16 1.261 1_565 S
C23 O18 1.259 . S
C23 O20 1.235 . S
O24 Co14 2.021 1_556 S
O24 C21 1.238 . S
O25 Co19 2.052 1_556 S
O25 C21 1.241 . S
O26 Co14 2.137 . S
O26 C17 1.247 . S
O27 Co14 2.244 . S
O27 C17 1.272 . S
O27 Co19 2.135 . S
Co28 O29 2.216 . S
Co28 O30 2.091 1_565 S
Co28 O32 2.004 . S
Co28 O38 2.021 . S
Co28 O40 2.137 . S
Co28 O41 2.244 . S
O29 Co28 2.216 . S
O29 C36 1.247 . S
O30 Co28 2.091 1_545 S
O30 C36 1.261 1_545 S
C31 O40 1.247 . S
C31 O41 1.272 . S
O32 Co28 2.004 . S
O32 C37 1.259 . S
Co33 O34 2.061 . S
Co33 O39 2.052 . S
Co33 O41 2.135 . S
O34 Co33 2.061 . S
O34 C37 1.235 . S
C35 O38 1.238 . S
C35 O39 1.241 . S
C36 O29 1.247 . S
C36 O30 1.261 1_565 S
C37 O32 1.259 . S
C37 O34 1.235 . S
O38 Co28 2.021 . S
O38 C35 1.238 . S
O39 Co33 2.052 . S
O39 C35 1.241 . S
O40 Co28 2.137 . S
O40 C31 1.247 . S
O41 Co28 2.244 . S
O41 C31 1.272 . S
O41 Co33 2.135 . S
Co42 O43 2.216 . S
Co42 O44 2.091 1_545 S
Co42 O46 2.004 . S
Co42 O52 2.021 . S
Co42 O54 2.137 . S
Co42 O55 2.244 . S
O43 Co42 2.216 . S
O43 C50 1.247 . S
O44 Co42 2.091 1_565 S
O44 C50 1.261 1_565 S
C45 O54 1.247 . S
C45 O55 1.272 . S
O46 Co42 2.004 . S
O46 C51 1.259 . S
Co47 O48 2.061 . S
Co47 O53 2.052 . S
Co47 O55 2.135 . S
O48 Co47 2.061 . S
O48 C51 1.235 . S
C49 O52 1.238 . S
C49 O53 1.241 . S
C50 O43 1.247 . S
C50 O44 1.261 1_545 S
C51 O46 1.259 . S
C51 O48 1.235 . S
O52 Co42 2.021 . S
O52 C49 1.238 . S
O53 Co47 2.052 . S
O53 C49 1.241 . S
O54 Co42 2.137 . S
O54 C45 1.247 . S
O55 Co42 2.244 . S
O55 C45 1.272 . S
O55 Co47 2.135 . S
Co56 O57 2.216 . S
Co56 O58 2.091 . S
Co56 O60 2.004 . S
Co56 O66 2.021 1_554 S
Co56 O68 2.137 . S
Co56 O69 2.244 1_565 S
O57 Co56 2.216 . S
O57 C64 1.247 . S
O58 Co56 2.091 . S
O58 C64 1.261 . S
C59 O68 1.247 . S
C59 O69 1.272 1_565 S
O60 Co56 2.004 . S
O60 C65 1.259 . S
Co61 O62 2.061 1_545 S
Co61 O67 2.052 1_554 S
Co61 O69 2.135 . S
O62 Co61 2.061 1_565 S
O62 C65 1.235 . S
C63 O66 1.238 1_545 S
C63 O67 1.241 . S
C64 O57 1.247 . S
C64 O58 1.261 . S
C65 O60 1.259 . S
C65 O62 1.235 . S
O66 Co56 2.021 1_556 S
O66 C63 1.238 1_565 S
O67 Co61 2.052 1_556 S
O67 C63 1.241 . S
O68 Co56 2.137 . S
O68 C59 1.247 . S
O69 Co56 2.244 1_545 S
O69 C59 1.272 1_545 S
O69 Co61 2.135 . S
Co70 O71 2.216 . S
Co70 O72 2.091 . S
Co70 O74 2.004 . S
Co70 O80 2.021 1_554 S
Co70 O82 2.137 . S
Co70 O83 2.244 1_545 S
O71 Co70 2.216 . S
O71 C78 1.247 . S
O72 Co70 2.091 . S
O72 C78 1.261 . S
C73 O82 1.247 . S
C73 O83 1.272 1_545 S
O74 Co70 2.004 . S
O74 C79 1.259 . S
Co75 O76 2.061 1_565 S
Co75 O81 2.052 1_554 S
Co75 O83 2.135 . S
O76 Co75 2.061 1_545 S
O76 C79 1.235 . S
C77 O80 1.238 1_565 S
C77 O81 1.241 . S
C78 O71 1.247 . S
C78 O72 1.261 . S
C79 O74 1.259 . S
C79 O76 1.235 . S
O80 Co70 2.021 1_556 S
O80 C77 1.238 1_545 S
O81 Co75 2.052 1_556 S
O81 C77 1.241 . S
O82 Co70 2.137 . S
O82 C73 1.247 . S
O83 Co70 2.244 1_565 S
O83 C73 1.272 1_565 S
O83 Co75 2.135 . S
Co84 O85 2.216 . S
Co84 O86 2.091 . S
Co84 O88 2.004 . S
Co84 O94 2.021 . S
Co84 O96 2.137 . S
Co84 O97 2.244 1_545 S
O85 Co84 2.216 . S
O85 C92 1.247 . S
O86 Co84 2.091 . S
O86 C92 1.261 . S
C87 O96 1.247 . S
C87 O97 1.272 1_545 S
O88 Co84 2.004 . S
O88 C93 1.259 . S
Co89 O90 2.061 1_565 S
Co89 O95 2.052 . S
Co89 O97 2.135 . S
O90 Co89 2.061 1_545 S
O90 C93 1.235 . S
C91 O94 1.238 1_565 S
C91 O95 1.241 . S
C92 O85 1.247 . S
C92 O86 1.261 . S
C93 O88 1.259 . S
C93 O90 1.235 . S
O94 Co84 2.021 . S
O94 C91 1.238 1_545 S
O95 Co89 2.052 . S
O95 C91 1.241 . S
O96 Co84 2.137 . S
O96 C87 1.247 . S
O97 Co84 2.244 1_565 S
O97 C87 1.272 1_565 S
O97 Co89 2.135 . S
Co98 O99 2.216 . S
Co98 O100 2.091 . S
Co98 O102 2.004 . S
Co98 O108 2.021 . S
Co98 O110 2.137 . S
Co98 O111 2.244 1_565 S
O99 Co98 2.216 . S
O99 C106 1.247 . S
O100 Co98 2.091 . S
O100 C106 1.261 . S
C101 O110 1.247 . S
C101 O111 1.272 1_565 S
O102 Co98 2.004 . S
O102 C107 1.259 . S
Co103 O104 2.061 1_545 S
Co103 O109 2.052 . S
Co103 O111 2.135 . S
O104 Co103 2.061 1_565 S
O104 C107 1.235 . S
C105 O108 1.238 1_545 S
C105 O109 1.241 . S
C106 O99 1.247 . S
C106 O100 1.261 . S
C107 O102 1.259 . S
C107 O104 1.235 . S
O108 Co98 2.021 . S
O108 C105 1.238 1_565 S
O109 Co103 2.052 . S
O109 C105 1.241 . S
O110 Co98 2.137 . S
O110 C101 1.247 . S
O111 Co98 2.244 1_545 S
O111 C101 1.272 1_545 S
O111 Co103 2.135 . S
C79 C9 1.454 . S
C65 C23 1.454 . S
C107 C37 1.453 . S
C93 C51 1.453 . S
C3 C31 1.413 . S
C17 C45 1.413 . S
C21 C49 1.449 . S
C7 C35 1.449 . S
C59 C87 1.413 1_565 S
C101 C73 1.413 1_565 S
C105 C77 1.449 1_545 S
C63 C91 1.449 1_545 S
C22 C8 1.495 1_565 S
C36 C50 1.495 1_565 S
C64 C78 1.495 1_455 S
C92 C106 1.495 1_455 S
