# Generated by pormake.
# Topology pcu, (6)-cn, num edge types: 1
# Building blocks:
#     Node 0, Type 0, BuildingBlock: NUHQIS_clean_sbu_0, # of connection points: 6
#     Edge 1, Type (0, 0), BuildingBlock: AJUNOK_clean_linker_0, # of connection points: 2
#     Edge 2, Type (0, 0), BuildingBlock: AJUNOK_clean_linker_0, # of connection points: 2
#     Edge 3, Type (0, 0), BuildingBlock: AJUNOK_clean_linker_0, # of connection points: 2
# Relax obj value: 0.000
# Max RMSD: 0.000
# Mean RMSD: 0.000
data_MOF--net-pcu--node1-NUHQIS_clean_sbu_0--edge1-AJUNOK_clean_linker_0
_symmetry_space_group_name_H-M    P1
_symmetry_Int_Tables_number       1
_symmetry_cell_setting            triclinic
loop_
_symmetry_equiv_pos_as_xyz
'x, y, z'
_cell_length_a     21.223113
_cell_length_b     11.234381
_cell_length_c     11.148507
_cell_angle_alpha  90.250856
_cell_angle_beta   97.469265
_cell_angle_gamma 121.42084
loop_
_atom_site_label
_atom_site_type_symbol
_atom_site_fract_x
_atom_site_fract_y
_atom_site_fract_z
_atom_type_partial_charge
Tb0 Tb 0.9492 0.89661 0.97443 0.0
Eu1 Eu 0.13601 0.07472 0.02135 0.0
C2 C 1.03879 0.98152 0.75753 0.0
C3 C 1.03908 0.74167 -0.00905 0.0
C4 C 0.75381 0.8136 0.95741 0.0
C5 C 0.63152 0.78303 0.89892 0.0
C6 C 0.68228 0.74118 0.88817 0.0
C7 C 0.77373 0.92767 0.03903 0.0
C8 C 0.72275 0.96915 0.05034 0.0
C9 C 0.65147 0.89843 0.97907 0.0
C10 C 0.8081 0.77391 0.93809 0.0
O11 O 0.98462 0.98348 0.16234 0.0
O12 O 0.09495 -0.01036 0.19588 0.0
O13 O 0.10479 0.23164 0.06054 0.0
O14 O 0.98528 0.11485 0.95314 0.0
C15 C 1.03838 -0.0153 0.23627 0.0
O16 O 0.24121 0.14268 0.14117 0.0
O17 O 0.24316 0.20216 0.95723 0.0
O18 O 0.0969 0.08502 0.8268 0.0
O19 O 0.98393 0.87819 0.80386 0.0
O20 O 0.97986 0.74127 0.01566 0.0
O21 O 0.09751 0.85427 0.9617 0.0
C22 C 0.045 0.22963 0.00826 0.0
O23 O 0.8503 0.83981 0.85692 0.0
O24 O 0.84645 0.76428 0.03479 0.0
C25 C 0.33606 0.15665 0.04154 0.0
C26 C 0.43966 0.07508 0.01807 0.0
C27 C 0.45744 0.1842 0.10412 0.0
C28 C 0.40614 0.22474 0.1155 0.0
C29 C 0.31775 0.04677 0.95627 0.0
C30 C 0.36907 0.0064 0.94464 0.0
C31 C 0.28209 0.19883 0.05627 0.0
H32 H 0.57659 0.7252 0.84437 0.0
H33 H 0.666 0.65322 0.82448 0.0
H34 H 0.829 -0.0142 0.09256 0.0
H35 H 0.73962 0.05856 0.11261 0.0
H36 H 0.51137 0.23912 0.16183 0.0
H37 H 0.42115 0.30925 0.18229 0.0
H38 H 0.26356 -0.00855 0.89928 0.0
H39 H 0.35304 0.91989 0.87946 0.0
C40 C 0.10363 0.04175 0.45038 0.0
C41 C 1.03642 0.98309 0.36843 0.0
C42 C 0.10378 0.04159 0.57604 0.0
C43 C 1.03663 0.98002 0.62449 0.0
H44 H 0.15678 0.08968 0.41737 0.0
H45 H 0.15695 0.08854 0.63562 0.0
S46 S 0.84542 0.81168 0.4492 0.0
N47 N 0.90083 0.86242 0.34474 0.0
N48 N 0.90109 0.85954 0.58113 0.0
C49 C 0.96894 0.92009 0.54376 0.0
C50 C 0.96885 0.92253 0.41568 0.0
C51 C 0.53047 0.0084 0.11002 0.0
C52 C 0.49433 0.03208 0.00613 0.0
C53 C 0.58154 0.9662 0.10076 0.0
C54 C 0.59825 0.94564 0.98724 0.0
H55 H 0.51835 0.02059 0.19912 0.0
H56 H 0.60725 0.94736 0.18292 0.0
S57 S 0.52453 0.00666 0.68891 0.0
N58 N 0.48288 0.04085 0.78701 0.0
N59 N 0.5783 0.96084 0.76965 0.0
C60 C 0.56362 0.97146 0.88297 0.0
C61 C 0.51183 0.01473 0.89238 0.0
C62 C 0.97505 0.48019 0.98125 0.0
C63 C 1.04148 0.61245 -0.00151 0.0
C64 C 0.97675 0.35705 0.98502 0.0
C65 C 0.04492 0.36157 0.00803 0.0
H66 H 0.92136 0.4715 0.96267 0.0
H67 H 0.92408 0.25755 0.97005 0.0
S68 S 0.23461 0.68249 0.06619 0.0
N69 N 0.17736 0.7409 0.04429 0.0
N70 N 0.18051 0.51024 0.05145 0.0
C71 C 0.1117 0.49342 0.02799 0.0
C72 C 0.10999 0.61857 0.02306 0.0
loop_
_geom_bond_atom_site_label_1
_geom_bond_atom_site_label_2
_geom_bond_distance
_geom_bond_site_symmetry_2
_ccdc_geom_bond_type
Tb0 C10 2.825 . S
Tb0 O11 2.347 1_556 S
Tb0 O14 2.366 1_565 S
Tb0 O19 2.418 . S
Tb0 O20 2.384 . S
Tb0 O23 2.479 . S
Tb0 O24 2.471 1_556 S
Eu1 O12 2.418 . S
Eu1 O13 2.384 . S
Eu1 O16 2.479 . S
Eu1 O17 2.471 1_554 S
Eu1 O18 2.347 1_554 S
Eu1 O21 2.366 1_545 S
Eu1 C31 2.825 . S
C2 O18 1.259 1_665 S
C2 O19 1.265 . S
C3 O20 1.255 1_554 S
C3 O21 1.265 1_655 S
C4 C6 1.380 . S
C4 C7 1.374 1_566 S
C4 C10 1.507 . S
C5 C6 1.384 . S
C5 C9 1.387 . S
C5 H32 0.930 . S
C6 C4 1.380 . S
C6 C5 1.384 . S
C6 H33 0.931 . S
C7 C4 1.374 1_544 S
C7 C8 1.390 . S
C7 H34 0.930 . S
C8 C7 1.390 . S
C8 C9 1.391 1_544 S
C8 H35 0.930 . S
C9 C5 1.387 . S
C9 C8 1.391 1_566 S
C10 Tb0 2.825 . S
C10 C4 1.507 . S
C10 O23 1.238 . S
C10 O24 1.247 1_556 S
O11 Tb0 2.347 1_554 S
O11 C15 1.259 1_665 S
O12 Eu1 2.418 . S
O12 C15 1.265 . S
O13 Eu1 2.384 . S
O13 C22 1.255 . S
O14 Tb0 2.366 1_545 S
O14 C22 1.265 1_656 S
C15 O11 1.259 1_445 S
C15 O12 1.265 . S
O16 Eu1 2.479 . S
O16 C31 1.238 . S
O17 Eu1 2.471 1_556 S
O17 C31 1.247 1_556 S
O18 Eu1 2.347 1_556 S
O18 C2 1.259 1_445 S
O19 Tb0 2.418 . S
O19 C2 1.265 . S
O20 Tb0 2.384 . S
O20 C3 1.255 1_556 S
O21 Eu1 2.366 1_565 S
O21 C3 1.265 1_455 S
C22 O13 1.255 . S
C22 O14 1.265 1_454 S
O23 Tb0 2.479 . S
O23 C10 1.238 . S
O24 Tb0 2.471 1_554 S
O24 C10 1.247 1_554 S
C25 C28 1.380 . S
C25 C29 1.374 1_544 S
C25 C31 1.507 . S
C26 C27 1.387 . S
C26 C30 1.391 1_544 S
C27 C26 1.387 . S
C27 C28 1.384 . S
C27 H36 0.930 . S
C28 C25 1.380 . S
C28 C27 1.384 . S
C28 H37 0.931 . S
C29 C25 1.374 1_566 S
C29 C30 1.390 . S
C29 H38 0.930 . S
C30 C26 1.391 1_566 S
C30 C29 1.390 . S
C30 H39 0.930 . S
C31 Eu1 2.825 . S
C31 O16 1.238 . S
C31 O17 1.247 1_554 S
C31 C25 1.507 . S
H32 C5 0.930 . S
H33 C6 0.931 . S
H34 C7 0.930 . S
H35 C8 0.930 . S
H36 C27 0.930 . S
H37 C28 0.931 . S
H38 C29 0.930 . S
H39 C30 0.930 . S
C40 C41 1.371 1_445 S
C40 C42 1.419 . S
C40 H44 0.930 . S
C41 C40 1.371 1_665 S
C41 C50 1.428 . S
C42 C40 1.419 . S
C42 C43 1.363 1_445 S
C42 H45 0.929 . S
C43 C42 1.363 1_665 S
C43 C49 1.427 . S
H44 C40 0.930 . S
H45 C42 0.929 . S
S46 N47 1.613 . S
S46 N48 1.610 . S
N47 S46 1.613 . S
N47 C50 1.350 . S
N48 S46 1.610 . S
N48 C49 1.351 . S
C49 C43 1.427 . S
C49 N48 1.351 . S
C49 C50 1.434 . S
C50 C41 1.428 . S
C50 N47 1.350 . S
C50 C49 1.434 . S
C51 C52 1.369 1_564 S
C51 C53 1.419 . S
C51 H55 0.930 . S
C52 C51 1.369 1_546 S
C52 C61 1.429 . S
C53 C51 1.419 . S
C53 C54 1.356 1_564 S
C53 H56 0.929 . S
C54 C53 1.356 1_546 S
C54 C60 1.440 . S
H55 C51 0.930 . S
H56 C53 0.929 . S
S57 N58 1.613 . S
S57 N59 1.610 . S
N58 S57 1.613 . S
N58 C61 1.350 . S
N59 S57 1.610 . S
N59 C60 1.351 . S
C60 C54 1.440 . S
C60 N59 1.351 . S
C60 C61 1.434 . S
C61 C52 1.429 . S
C61 N58 1.350 . S
C61 C60 1.434 . S
C62 C63 1.373 1_656 S
C62 C64 1.419 . S
C62 H66 0.930 . S
C63 C62 1.373 1_454 S
C63 C72 1.433 . S
C64 C62 1.419 . S
C64 C65 1.360 1_656 S
C64 H67 0.929 . S
C65 C64 1.360 1_454 S
C65 C71 1.426 . S
H66 C62 0.930 . S
H67 C64 0.929 . S
S68 N69 1.613 . S
S68 N70 1.610 . S
N69 S68 1.613 . S
N69 C72 1.350 . S
N70 S68 1.610 . S
N70 C71 1.351 . S
C71 C65 1.426 . S
C71 N70 1.351 . S
C71 C72 1.434 . S
C72 C63 1.433 . S
C72 N69 1.350 . S
C72 C71 1.434 . S
C41 C15 1.468 1_665 S
C43 C2 1.470 . S
C52 C26 1.493 1_556 S
C54 C9 1.489 1_545 S
C63 C3 1.492 1_455 S
C65 C22 1.505 . S
