# Generated by pormake.
# Topology bnn, (5)-cn, num edge types: 1
# Building blocks:
#     Node 0, Type 0, BuildingBlock: XOMCOT_clean_sbu_0, # of connection points: 5
#     Node 1, Type 0, BuildingBlock: XOMCOT_clean_sbu_0, # of connection points: 5
#     Edge 2, Type (0, 0), BuildingBlock: FUNLAD_clean_linker_1, # of connection points: 2
#     Edge 3, Type (0, 0), BuildingBlock: FUNLAD_clean_linker_1, # of connection points: 2
#     Edge 4, Type (0, 0), BuildingBlock: FUNLAD_clean_linker_1, # of connection points: 2
#     Edge 5, Type (0, 0), BuildingBlock: FUNLAD_clean_linker_1, # of connection points: 2
#     Edge 6, Type (0, 0), BuildingBlock: FUNLAD_clean_linker_1, # of connection points: 2
# Relax obj value: 0.023
# Max RMSD: 0.078
# Mean RMSD: 0.078
data_MOF--net-bnn--node1-XOMCOT_clean_sbu_0--edge1-FUNLAD_clean_linker_1
_symmetry_space_group_name_H-M    P1
_symmetry_Int_Tables_number       1
_symmetry_cell_setting            triclinic
loop_
_symmetry_equiv_pos_as_xyz
'x, y, z'
_cell_length_a     30.190561
_cell_length_b     28.329757
_cell_length_c     18.477368
_cell_angle_alpha  101.51751
_cell_angle_beta   88.821708
_cell_angle_gamma 122.8705
loop_
_atom_site_label
_atom_site_type_symbol
_atom_site_fract_x
_atom_site_fract_y
_atom_site_fract_z
_atom_type_partial_charge
Co0 Co 0.34736 0.7056 0.03071 0.0
C1 C 0.34537 0.70243 0.19008 0.0
C2 C 0.36224 0.78313 0.17271 0.0
C3 C 0.36164 0.785 0.24777 0.0
N4 N 0.35217 0.73148 0.1368 0.0
N5 N 0.35095 0.73415 0.25847 0.0
H6 H 0.33637 0.65894 0.17907 0.0
H7 H 0.36942 0.81705 0.1461 0.0
C8 C 0.44889 0.79999 0.98816 0.0
O9 O 0.45391 0.76056 0.94525 0.0
N10 N 0.34164 0.68052 0.92309 0.0
C11 C 0.32619 0.628 0.88162 0.0
C12 C 0.32409 0.62879 0.8076 0.0
C13 C 0.3465 0.71164 0.87311 0.0
N14 N 0.3372 0.68159 0.80243 0.0
C15 C 0.3722 0.62133 0.03252 0.0
C16 C 0.47745 0.69715 0.08806 0.0
C17 C 0.45758 0.63823 0.066 0.0
C18 C 0.40365 0.59996 0.03947 0.0
C19 C 0.44434 0.71658 0.08018 0.0
N20 N 0.39342 0.67919 0.0472 0.0
H21 H 0.33045 0.59086 0.01565 0.0
H22 H 0.45989 0.76174 0.10092 0.0
H23 H 0.31458 0.59034 0.90215 0.0
H24 H 0.35626 0.75544 0.88815 0.0
O25 O 0.27941 0.63598 0.03305 0.0
O26 O 0.29092 0.71751 0.01781 0.0
O27 O 0.40945 0.78538 0.02642 0.0
C28 C 0.25848 0.66428 0.02301 0.0
H29 H 0.36889 0.82124 0.2907 0.0
H30 H 0.31193 0.5925 0.76154 0.0
H31 H 0.51833 0.72805 0.11142 0.0
H32 H 0.38542 0.55392 0.02264 0.0
Co33 Co 0.66465 0.34832 0.03283 0.0
C34 C 0.67152 0.35299 0.87417 0.0
C35 C 0.60808 0.27018 0.88936 0.0
C36 C 0.60827 0.26896 0.81457 0.0
N37 N 0.6479 0.32268 0.92647 0.0
N38 N 0.64827 0.32103 0.80524 0.0
H39 H 0.70476 0.39757 0.88631 0.0
H40 H 0.58021 0.23547 0.91493 0.0
C41 C 0.66124 0.24459 0.06458 0.0
O42 O 0.70822 0.27653 0.10302 0.0
N43 N 0.68015 0.37389 0.14083 0.0
C44 C 0.70467 0.42879 0.18093 0.0
C45 C 0.7038 0.42891 0.25527 0.0
C46 C 0.66254 0.34135 0.19225 0.0
N47 N 0.67749 0.37383 0.26225 0.0
C48 C 0.77688 0.42955 0.04643 0.0
C49 C 0.8039 0.35498 0.97399 0.0
C50 C 0.84443 0.4127 1.00347 0.0
C51 C 0.8301 0.45016 0.03982 0.0
C52 C 0.75079 0.33612 0.98183 0.0
N53 N 0.73802 0.37274 0.02089 0.0
H54 H 0.76712 0.46 0.0711 0.0
H55 H 0.72001 0.29215 0.95609 0.0
H56 H 0.71987 0.4666 0.15856 0.0
H57 H 0.63734 0.29486 0.1795 0.0
O58 O 0.67027 0.419 0.02797 0.0
O59 O 0.5965 0.33839 0.04187 0.0
O60 O 0.64106 0.26731 0.03658 0.0
C61 C 0.61986 0.39161 0.03603 0.0
H62 H 0.58013 0.23296 0.771 0.0
H63 H 0.71974 0.46673 0.30014 0.0
H64 H 0.81313 0.3248 0.94437 0.0
H65 H 0.85941 0.49505 0.06417 0.0
H66 H 0.53667 0.65078 0.07235 0.0
C67 C 0.49433 0.61871 0.06893 0.0
H68 H 0.43634 0.53019 0.06331 0.0
H69 H 0.57051 0.43896 0.90552 0.0
H70 H 0.50984 0.41668 0.80104 0.0
H71 H 0.45114 0.4527 0.81315 0.0
H72 H 0.45293 0.51142 0.92968 0.0
C73 C 0.47803 0.56365 0.06602 0.0
C74 C 0.51556 0.54474 0.05876 0.0
C75 C 0.51361 0.50995 0.99044 0.0
C76 C 0.54701 0.48866 0.98364 0.0
C77 C 0.54515 0.45518 0.91423 0.0
C78 C 0.51073 0.44235 0.85365 0.0
C79 C 0.47772 0.46267 0.86045 0.0
C80 C 0.47905 0.4962 0.92779 0.0
H81 H 0.54729 0.39232 0.04063 0.0
C82 C 0.58995 0.41904 0.03896 0.0
H83 H 0.6563 0.50328 0.04201 0.0
H84 H 0.52874 0.60955 0.19797 0.0
H85 H 0.59062 0.63317 0.30159 0.0
H86 H 0.64943 0.59728 0.28915 0.0
H87 H 0.64652 0.53728 0.173 0.0
C88 C 0.61348 0.47537 0.04062 0.0
C89 C 0.58176 0.50151 0.04553 0.0
C90 C 0.58497 0.53778 0.11311 0.0
C91 C 0.5515 0.55906 0.12 0.0
C92 C 0.55398 0.5932 0.18913 0.0
C93 C 0.58916 0.60687 0.24921 0.0
C94 C 0.62224 0.58662 0.24223 0.0
C95 C 0.62021 0.55228 0.17522 0.0
H96 H 0.91113 0.40044 0.99153 0.0
C97 C 0.90102 0.4324 0.99783 0.0
H98 H 0.93113 0.52063 1.00569 0.0
H99 H 0.15903 0.62057 0.15264 0.0
H100 H 0.11935 0.64128 0.25943 0.0
H101 H 1.02346 0.60162 0.25157 0.0
H102 H 0.96662 0.54071 0.137 0.0
C103 C 0.93999 0.48788 1.00097 0.0
C104 C 0.99716 0.50847 1.00576 0.0
C105 C 1.03001 0.54459 0.07296 0.0
C106 C 0.0854 0.56795 0.07733 0.0
C107 C 0.11693 0.60266 0.14572 0.0
C108 C 0.09462 0.61466 0.20763 0.0
C109 C 0.04063 0.5923 0.20322 0.0
C110 C 1.00849 0.55755 0.13695 0.0
H111 H 0.18592 0.66497 0.01598 0.0
C112 C 0.20068 0.63778 0.01848 0.0
H113 H 0.18025 0.55346 0.01758 0.0
H114 H 0.94604 0.44231 0.8678 0.0
H115 H 0.98564 0.42032 0.76177 0.0
H116 H 0.08145 0.45952 0.7701 0.0
H117 H 0.13836 0.52136 0.88451 0.0
C118 C 0.16625 0.58163 0.01775 0.0
C119 C 0.10803 0.55575 0.01418 0.0
C120 C 0.07506 0.51852 0.94757 0.0
C121 C 1.01962 0.49523 0.94308 0.0
C122 C 0.9881 0.46014 0.87487 0.0
C123 C 1.01039 0.44738 0.81341 0.0
C124 C 0.06434 0.4695 0.81808 0.0
C125 C 0.09654 0.50484 0.88412 0.0
H126 H 0.52669 0.87194 0.9682 0.0
C127 C 0.49107 0.86147 0.99504 0.0
H128 H 0.45152 0.89406 0.06092 0.0
H129 H 0.64414 0.14005 0.20951 0.0
H130 H 0.61539 0.09512 0.31477 0.0
H131 H 0.54842 0.99076 0.29655 0.0
H132 H 0.50934 0.93077 0.17305 0.0
C133 C 0.48652 0.90426 0.03253 0.0
C134 C 0.53008 0.96638 0.04193 0.0
C135 C 0.5536 1.00073 0.11448 0.0
C136 C 0.59305 0.06078 0.12496 0.0
C137 C 0.61454 0.09417 0.19821 0.0
C138 C 0.59839 0.06894 0.25921 0.0
C139 C 0.56063 1.0102 0.24896 0.0
C140 C 0.5384 0.97628 0.17766 0.0
H141 H 0.5887 0.15857 0.02689 0.0
C142 C 0.62883 0.18127 0.05403 0.0
H143 H 0.68543 0.17209 0.10341 0.0
H144 H 0.48995 0.91532 0.89533 0.0
H145 H 0.52311 0.95889 0.78997 0.0
H146 H 0.59817 0.06032 0.80761 0.0
H147 H 0.63954 0.11908 0.93115 0.0
C148 C 0.64599 0.15051 0.07464 0.0
C149 C 0.6095 0.08644 0.06285 0.0
C150 C 0.5881 0.05148 0.99001 0.0
C151 C 0.54708 0.99194 0.9796 0.0
C152 C 0.52321 0.95972 0.90654 0.0
C153 C 0.54154 0.98439 0.84542 0.0
C154 C 0.58362 0.04155 0.85535 0.0
C155 C 0.60673 0.07491 0.92663 0.0
H156 H 0.34274 0.74305 0.74177 0.0
C157 C 0.33962 0.70239 0.73631 0.0
H158 H 0.33666 0.63333 0.66186 0.0
H159 H 0.2504 0.65771 0.37424 0.0
H160 H 0.17267 0.57081 0.39754 0.0
H161 H 0.171 0.53928 0.51328 0.0
H162 H 0.24694 0.59484 0.60672 0.0
C163 C 0.33987 0.67402 0.66863 0.0
C164 C 0.34117 0.69454 0.59979 0.0
C165 C 0.29685 0.66096 0.54488 0.0
C166 C 0.29818 0.67855 0.47743 0.0
C167 C 0.25237 0.64543 0.42524 0.0
C168 C 0.20722 0.59563 0.43819 0.0
C169 C 0.20626 0.57792 0.50339 0.0
C170 C 0.25027 0.61014 0.55644 0.0
H171 H 0.34284 0.67544 0.32611 0.0
C172 C 0.34677 0.71611 0.32742 0.0
H173 H 0.35147 0.78839 0.39608 0.0
H174 H 0.43447 0.76744 0.69112 0.0
H175 H 0.51151 0.85521 0.66873 0.0
H176 H 0.5133 0.88639 0.55266 0.0
H177 H 0.43803 0.82976 0.45817 0.0
C178 C 0.3469 0.74733 0.39293 0.0
C179 C 0.34438 0.7291 0.46414 0.0
C180 C 0.38835 0.76326 0.51962 0.0
C181 C 0.387 0.74573 0.58716 0.0
C182 C 0.4325 0.77946 0.63992 0.0
C183 C 0.47728 0.82981 0.62751 0.0
C184 C 0.4783 0.84734 0.56215 0.0
C185 C 0.43467 0.81447 0.50845 0.0
H186 H 0.64154 0.30595 0.32449 0.0
C187 C 0.66546 0.35235 0.32928 0.0
H188 H 0.70911 0.43399 0.40389 0.0
H189 H 0.54928 0.27107 0.62578 0.0
H190 H 0.47752 0.25761 0.54893 0.0
H191 H 0.49422 0.29446 0.43448 0.0
H192 H 0.58267 0.34461 0.39598 0.0
C193 C 0.68337 0.38767 0.39732 0.0
C194 C 0.67263 0.36503 0.46613 0.0
C195 C 0.62062 0.33624 0.48815 0.0
C196 C 0.61114 0.31578 0.55478 0.0
C197 C 0.55882 0.28732 0.5756 0.0
C198 C 0.51721 0.27945 0.53212 0.0
C199 C 0.52661 0.30014 0.46765 0.0
C200 C 0.57762 0.32852 0.44589 0.0
H201 H 0.6887 0.38681 0.74038 0.0
C202 C 0.66212 0.34078 0.73717 0.0
H203 H 0.61655 0.2581 0.66552 0.0
H204 H 0.77699 0.4187 0.44003 0.0
H205 H 0.84875 0.43179 0.51661 0.0
H206 H 0.832 0.39467 0.63088 0.0
H207 H 0.74352 0.34467 0.66952 0.0
C208 C 0.6432 0.30415 0.6701 0.0
C209 C 0.65379 0.32508 0.59999 0.0
C210 C 0.70573 0.35348 0.57767 0.0
C211 C 0.71522 0.37401 0.51108 0.0
C212 C 0.7675 0.40239 0.49018 0.0
C213 C 0.80907 0.41003 0.53349 0.0
C214 C 0.79965 0.38919 0.59786 0.0
C215 C 0.74866 0.36094 0.61973 0.0
loop_
_geom_bond_atom_site_label_1
_geom_bond_atom_site_label_2
_geom_bond_distance
_geom_bond_site_symmetry_2
_ccdc_geom_bond_type
Co0 N4 2.148 . S
Co0 N10 2.128 1_554 S
Co0 N20 2.194 . S
Co0 O25 2.351 . S
Co0 O26 2.155 . S
Co0 O27 2.096 . S
C1 N4 1.301 . S
C1 N5 1.328 . S
C1 H6 0.930 . S
C2 C3 1.333 . S
C2 N4 1.317 . S
C2 H7 0.930 . S
C3 C2 1.333 . S
C3 N5 1.350 . S
C3 H29 0.931 . S
N4 Co0 2.148 . S
N4 C1 1.301 . S
N4 C2 1.317 . S
N5 C1 1.328 . S
N5 C3 1.350 . S
H6 C1 0.930 . S
H7 C2 0.930 . S
C8 O9 1.224 . S
C8 O27 1.247 . S
O9 C8 1.224 . S
N10 Co0 2.128 1_556 S
N10 C11 1.355 . S
N10 C13 1.311 . S
C11 N10 1.355 . S
C11 C12 1.363 . S
C11 H23 0.929 . S
C12 C11 1.363 . S
C12 N14 1.375 . S
C12 H30 0.931 . S
C13 N10 1.311 . S
C13 N14 1.347 . S
C13 H24 0.929 . S
N14 C12 1.375 . S
N14 C13 1.347 . S
C15 C18 1.365 . S
C15 N20 1.328 . S
C15 H21 0.929 . S
C16 C17 1.362 . S
C16 C19 1.378 . S
C16 H31 0.929 . S
C17 C16 1.362 . S
C17 C18 1.366 . S
C18 C15 1.365 . S
C18 C17 1.366 . S
C18 H32 0.930 . S
C19 C16 1.378 . S
C19 N20 1.315 . S
C19 H22 0.930 . S
N20 Co0 2.194 . S
N20 C15 1.328 . S
N20 C19 1.315 . S
H21 C15 0.929 . S
H22 C19 0.930 . S
H23 C11 0.929 . S
H24 C13 0.929 . S
O25 Co0 2.351 . S
O25 C28 1.244 . S
O26 Co0 2.155 . S
O26 C28 1.240 . S
O27 Co0 2.096 . S
O27 C8 1.247 . S
C28 O25 1.244 . S
C28 O26 1.240 . S
H29 C3 0.931 . S
H30 C12 0.931 . S
H31 C16 0.929 . S
H32 C18 0.930 . S
Co33 N37 2.148 1_554 S
Co33 N43 2.128 . S
Co33 N53 2.194 . S
Co33 O58 2.351 . S
Co33 O59 2.155 . S
Co33 O60 2.096 . S
C34 N37 1.301 . S
C34 N38 1.328 . S
C34 H39 0.930 . S
C35 C36 1.333 . S
C35 N37 1.317 . S
C35 H40 0.930 . S
C36 C35 1.333 . S
C36 N38 1.350 . S
C36 H62 0.931 . S
N37 Co33 2.148 1_556 S
N37 C34 1.301 . S
N37 C35 1.317 . S
N38 C34 1.328 . S
N38 C36 1.350 . S
H39 C34 0.930 . S
H40 C35 0.930 . S
C41 O42 1.224 . S
C41 O60 1.247 . S
O42 C41 1.224 . S
N43 Co33 2.128 . S
N43 C44 1.355 . S
N43 C46 1.311 . S
C44 N43 1.355 . S
C44 C45 1.363 . S
C44 H56 0.929 . S
C45 C44 1.363 . S
C45 N47 1.375 . S
C45 H63 0.931 . S
C46 N43 1.311 . S
C46 N47 1.347 . S
C46 H57 0.929 . S
N47 C45 1.375 . S
N47 C46 1.347 . S
C48 C51 1.365 . S
C48 N53 1.328 . S
C48 H54 0.929 1_554 S
C49 C50 1.362 . S
C49 C52 1.378 . S
C49 H64 0.929 . S
C50 C49 1.362 . S
C50 C51 1.366 . S
C51 C48 1.365 . S
C51 C50 1.366 . S
C51 H65 0.930 . S
C52 C49 1.378 . S
C52 N53 1.315 . S
C52 H55 0.930 . S
N53 Co33 2.194 . S
N53 C48 1.328 . S
N53 C52 1.315 . S
H54 C48 0.929 1_556 S
H55 C52 0.930 . S
H56 C44 0.929 . S
H57 C46 0.929 . S
O58 Co33 2.351 . S
O58 C61 1.244 . S
O59 Co33 2.155 . S
O59 C61 1.240 . S
O60 Co33 2.096 . S
O60 C41 1.247 . S
C61 O58 1.244 . S
C61 O59 1.240 . S
H62 C36 0.931 . S
H63 C45 0.931 . S
H64 C49 0.929 . S
H65 C51 0.930 . S
H66 C67 0.951 . S
C67 H66 0.951 . S
C67 C73 1.265 . S
H68 C73 0.950 1_556 S
H69 C77 0.949 . S
H70 C78 0.950 . S
H71 C79 0.951 . S
H72 C80 0.951 . S
C73 C67 1.265 . S
C73 H68 0.950 1_554 S
C73 C74 1.478 . S
C74 C73 1.478 . S
C74 C75 1.397 1_554 S
C74 C91 1.394 . S
C75 C74 1.397 1_556 S
C75 C76 1.438 . S
C75 C80 1.429 . S
C76 C75 1.438 . S
C76 C77 1.428 . S
C76 C89 1.394 1_556 S
C77 H69 0.949 . S
C77 C76 1.428 . S
C77 C78 1.345 . S
C78 H70 0.950 . S
C78 C77 1.345 . S
C78 C79 1.424 . S
C79 H71 0.951 . S
C79 C78 1.424 . S
C79 C80 1.347 . S
C80 H72 0.951 . S
C80 C75 1.429 . S
C80 C79 1.347 . S
H81 C82 0.951 . S
C82 H81 0.951 . S
C82 C88 1.265 . S
H83 C88 0.950 . S
H84 C92 0.949 . S
H85 C93 0.950 . S
H86 C94 0.951 . S
H87 C95 0.951 . S
C88 C82 1.265 . S
C88 H83 0.950 . S
C88 C89 1.478 . S
C89 C76 1.394 1_554 S
C89 C88 1.478 . S
C89 C90 1.397 . S
C90 C89 1.397 . S
C90 C91 1.438 . S
C90 C95 1.429 . S
C91 C74 1.394 . S
C91 C90 1.438 . S
C91 C92 1.428 . S
C92 H84 0.949 . S
C92 C91 1.428 . S
C92 C93 1.345 . S
C93 H85 0.950 . S
C93 C92 1.345 . S
C93 C94 1.424 . S
C94 H86 0.951 . S
C94 C93 1.424 . S
C94 C95 1.347 . S
C95 H87 0.951 . S
C95 C90 1.429 . S
C95 C94 1.347 . S
H96 C97 0.951 . S
C97 H96 0.951 . S
C97 C103 1.265 . S
H98 C103 0.950 . S
H99 C107 0.949 . S
H100 C108 0.950 . S
H101 C109 0.951 . S
H102 C110 0.951 . S
C103 C97 1.265 . S
C103 H98 0.950 . S
C103 C104 1.478 . S
C104 C103 1.478 . S
C104 C105 1.397 1_655 S
C104 C121 1.394 1_554 S
C105 C104 1.397 1_455 S
C105 C106 1.438 . S
C105 C110 1.429 1_455 S
C106 C105 1.438 . S
C106 C107 1.428 . S
C106 C119 1.394 . S
C107 H99 0.949 . S
C107 C106 1.428 . S
C107 C108 1.345 . S
C108 H100 0.950 . S
C108 C107 1.345 . S
C108 C109 1.424 . S
C109 H101 0.951 . S
C109 C108 1.424 . S
C109 C110 1.347 1_455 S
C110 H102 0.951 . S
C110 C105 1.429 1_655 S
C110 C109 1.347 1_655 S
H111 C112 0.951 . S
C112 H111 0.951 . S
C112 C118 1.265 . S
H113 C118 0.950 . S
H114 C122 0.949 . S
H115 C123 0.950 . S
H116 C124 0.951 . S
H117 C125 0.951 . S
C118 C112 1.265 . S
C118 H113 0.950 . S
C118 C119 1.478 . S
C119 C106 1.394 . S
C119 C118 1.478 . S
C119 C120 1.397 1_554 S
C120 C119 1.397 1_556 S
C120 C121 1.438 1_455 S
C120 C125 1.429 . S
C121 C104 1.394 1_556 S
C121 C120 1.438 1_655 S
C121 C122 1.428 . S
C122 H114 0.949 . S
C122 C121 1.428 . S
C122 C123 1.345 . S
C123 H115 0.950 . S
C123 C122 1.345 . S
C123 C124 1.424 1_655 S
C124 H116 0.951 . S
C124 C123 1.424 1_455 S
C124 C125 1.347 . S
C125 H117 0.951 . S
C125 C120 1.429 . S
C125 C124 1.347 . S
H126 C127 0.951 . S
C127 H126 0.951 . S
C127 C133 1.265 . S
H128 C133 0.950 . S
H129 C137 0.949 . S
H130 C138 0.950 . S
H131 C139 0.951 . S
H132 C140 0.951 . S
C133 C127 1.265 . S
C133 H128 0.950 . S
C133 C134 1.478 . S
C134 C133 1.478 . S
C134 C135 1.397 . S
C134 C151 1.394 1_554 S
C135 C134 1.397 . S
C135 C136 1.438 1_565 S
C135 C140 1.429 . S
C136 C135 1.438 1_545 S
C136 C137 1.428 . S
C136 C149 1.394 . S
C137 H129 0.949 . S
C137 C136 1.428 . S
C137 C138 1.345 . S
C138 H130 0.950 . S
C138 C137 1.345 . S
C138 C139 1.424 . S
C139 H131 0.951 . S
C139 C138 1.424 . S
C139 C140 1.347 1_545 S
C140 H132 0.951 . S
C140 C135 1.429 . S
C140 C139 1.347 1_565 S
H141 C142 0.951 . S
C142 H141 0.951 . S
C142 C148 1.265 . S
H143 C148 0.950 . S
H144 C152 0.949 . S
H145 C153 0.950 . S
H146 C154 0.951 . S
H147 C155 0.951 . S
C148 C142 1.265 . S
C148 H143 0.950 . S
C148 C149 1.478 . S
C149 C136 1.394 . S
C149 C148 1.478 . S
C149 C150 1.397 1_554 S
C150 C149 1.397 1_556 S
C150 C151 1.438 1_545 S
C150 C155 1.429 . S
C151 C134 1.394 1_556 S
C151 C150 1.438 1_565 S
C151 C152 1.428 . S
C152 H144 0.949 . S
C152 C151 1.428 . S
C152 C153 1.345 . S
C153 H145 0.950 . S
C153 C152 1.345 . S
C153 C154 1.424 . S
C154 H146 0.951 . S
C154 C153 1.424 . S
C154 C155 1.347 1_565 S
C155 H147 0.951 . S
C155 C150 1.429 . S
C155 C154 1.347 1_545 S
H156 C157 0.951 . S
C157 H156 0.951 . S
C157 C163 1.265 . S
H158 C163 0.950 . S
H159 C167 0.949 . S
H160 C168 0.950 . S
H161 C169 0.951 . S
H162 C170 0.951 . S
C163 C157 1.265 . S
C163 H158 0.950 . S
C163 C164 1.478 . S
C164 C163 1.478 . S
C164 C165 1.397 . S
C164 C181 1.394 . S
C165 C164 1.397 . S
C165 C166 1.438 . S
C165 C170 1.429 . S
C166 C165 1.438 . S
C166 C167 1.428 . S
C166 C179 1.394 . S
C167 H159 0.949 . S
C167 C166 1.428 . S
C167 C168 1.345 . S
C168 H160 0.950 . S
C168 C167 1.345 . S
C168 C169 1.424 . S
C169 H161 0.951 . S
C169 C168 1.424 . S
C169 C170 1.347 . S
C170 H162 0.951 . S
C170 C165 1.429 . S
C170 C169 1.347 . S
H171 C172 0.951 . S
C172 H171 0.951 . S
C172 C178 1.265 . S
H173 C178 0.950 . S
H174 C182 0.949 . S
H175 C183 0.950 . S
H176 C184 0.951 . S
H177 C185 0.951 . S
C178 C172 1.265 . S
C178 H173 0.950 . S
C178 C179 1.478 . S
C179 C166 1.394 . S
C179 C178 1.478 . S
C179 C180 1.397 . S
C180 C179 1.397 . S
C180 C181 1.438 . S
C180 C185 1.429 . S
C181 C164 1.394 . S
C181 C180 1.438 . S
C181 C182 1.428 . S
C182 H174 0.949 . S
C182 C181 1.428 . S
C182 C183 1.345 . S
C183 H175 0.950 . S
C183 C182 1.345 . S
C183 C184 1.424 . S
C184 H176 0.951 . S
C184 C183 1.424 . S
C184 C185 1.347 . S
C185 H177 0.951 . S
C185 C180 1.429 . S
C185 C184 1.347 . S
H186 C187 0.951 . S
C187 H186 0.951 . S
C187 C193 1.265 . S
H188 C193 0.950 . S
H189 C197 0.949 . S
H190 C198 0.950 . S
H191 C199 0.951 . S
H192 C200 0.951 . S
C193 C187 1.265 . S
C193 H188 0.950 . S
C193 C194 1.478 . S
C194 C193 1.478 . S
C194 C195 1.397 . S
C194 C211 1.394 . S
C195 C194 1.397 . S
C195 C196 1.438 . S
C195 C200 1.429 . S
C196 C195 1.438 . S
C196 C197 1.428 . S
C196 C209 1.394 . S
C197 H189 0.949 . S
C197 C196 1.428 . S
C197 C198 1.345 . S
C198 H190 0.950 . S
C198 C197 1.345 . S
C198 C199 1.424 . S
C199 H191 0.951 . S
C199 C198 1.424 . S
C199 C200 1.347 . S
C200 H192 0.951 . S
C200 C195 1.429 . S
C200 C199 1.347 . S
H201 C202 0.951 . S
C202 H201 0.951 . S
C202 C208 1.265 . S
H203 C208 0.950 . S
H204 C212 0.949 . S
H205 C213 0.950 . S
H206 C214 0.951 . S
H207 C215 0.951 . S
C208 C202 1.265 . S
C208 H203 0.950 . S
C208 C209 1.478 . S
C209 C196 1.394 . S
C209 C208 1.478 . S
C209 C210 1.397 . S
C210 C209 1.397 . S
C210 C211 1.438 . S
C210 C215 1.429 . S
C211 C194 1.394 . S
C211 C210 1.438 . S
C211 C212 1.428 . S
C212 H204 0.949 . S
C212 C211 1.428 . S
C212 C213 1.345 . S
C213 H205 0.950 . S
C213 C212 1.345 . S
C213 C214 1.424 . S
C214 H206 0.951 . S
C214 C213 1.424 . S
C214 C215 1.347 . S
C215 H207 0.951 . S
C215 C210 1.429 . S
C215 C214 1.347 . S
C67 C17 1.488 . S
C82 C61 1.482 . S
C97 C50 1.490 . S
C112 C28 1.481 . S
C127 C8 1.487 . S
C142 C41 1.494 . S
C157 N14 1.452 . S
C172 N5 1.452 . S
C187 N47 1.453 . S
C202 N38 1.461 . S
