# Generated by pormake.
# Topology smk, (6)-cn, num edge types: 1
# Building blocks:
#     Node 0, Type 0, BuildingBlock: FUNLAD_clean_sbu_0, # of connection points: 6
#     Node 1, Type 0, BuildingBlock: FUNLAD_clean_sbu_0, # of connection points: 6
#     Node 2, Type 0, BuildingBlock: FUNLAD_clean_sbu_0, # of connection points: 6
#     Node 3, Type 0, BuildingBlock: FUNLAD_clean_sbu_0, # of connection points: 6
#     Node 4, Type 0, BuildingBlock: FUNLAD_clean_sbu_0, # of connection points: 6
#     Node 5, Type 0, BuildingBlock: FUNLAD_clean_sbu_0, # of connection points: 6
#     Edge 6, Type (0, 0), None
#     Edge 7, Type (0, 0), None
#     Edge 8, Type (0, 0), None
#     Edge 9, Type (0, 0), None
#     Edge 10, Type (0, 0), None
#     Edge 11, Type (0, 0), None
#     Edge 12, Type (0, 0), None
#     Edge 13, Type (0, 0), None
#     Edge 14, Type (0, 0), None
#     Edge 15, Type (0, 0), None
#     Edge 16, Type (0, 0), None
#     Edge 17, Type (0, 0), None
#     Edge 18, Type (0, 0), None
#     Edge 19, Type (0, 0), None
#     Edge 20, Type (0, 0), None
#     Edge 21, Type (0, 0), None
#     Edge 22, Type (0, 0), None
#     Edge 23, Type (0, 0), None
# Relax obj value: 0.597
# Max RMSD: 0.272
# Mean RMSD: 0.272
data_MOF--net-smk--node1-FUNLAD_clean_sbu_0--edge1-none
_symmetry_space_group_name_H-M    P1
_symmetry_Int_Tables_number       1
_symmetry_cell_setting            triclinic
loop_
_symmetry_equiv_pos_as_xyz
'x, y, z'
_cell_length_a     26.227777
_cell_length_b     26.227337
_cell_length_c     6.9109856
_cell_angle_alpha  90.009071
_cell_angle_beta   89.981581
_cell_angle_gamma 120.00026
loop_
_atom_site_label
_atom_site_type_symbol
_atom_site_fract_x
_atom_site_fract_y
_atom_site_fract_z
_atom_type_partial_charge
C0 C 0.36345 0.19696 0.1919 0.0
N1 N 0.49064 0.31446 0.53394 0.0
C2 C 0.51977 0.29756 0.40828 0.0
C3 C 0.57274 0.33759 0.32427 0.0
C4 C 0.59871 0.39734 0.36697 0.0
C5 C 0.56868 0.41538 0.495 0.0
C6 C 0.5139 0.37287 0.57623 0.0
Zn7 Zn 0.40582 0.24036 0.58545 0.0
C8 C 0.30408 0.25863 0.60283 0.0
N9 N 0.24482 0.06942 0.55961 0.0
C10 C 0.25262 0.03957 0.41125 0.0
C11 C 0.19321 0.04395 0.66076 0.0
C12 C 0.14856 0.98592 0.61589 0.0
C13 C 0.15629 0.95592 0.45918 0.0
C14 C 0.20834 0.9846 0.35342 0.0
Zn15 Zn 0.32141 0.15154 0.59309 0.0
O16 O 0.40379 0.23942 0.282 0.0
C17 C 0.42419 0.13468 0.63355 0.0
O18 O 0.32368 0.1544 0.28468 0.0
H19 H 0.18766 0.06719 0.78086 0.0
H20 H 0.50104 0.25255 0.36178 0.0
H21 H 0.29461 0.05684 0.33997 0.0
O22 O 0.44755 0.18968 0.60903 0.0
O23 O 0.36874 0.10312 0.6191 0.0
H24 H 0.49002 0.38677 0.66968 0.0
O25 O 0.32141 0.1533 0.89454 0.0
O26 O 0.40485 0.2401 0.89133 0.0
O27 O 0.2764 0.20222 0.59493 0.0
O28 O 0.36019 0.28762 0.588 0.0
C29 C 0.36317 0.19692 -0.01704 0.0
H30 H 0.59361 0.32124 0.22634 0.0
H31 H 0.58772 0.46127 0.53473 0.0
H32 H 0.10994 0.96387 0.70719 0.0
H33 H 0.21748 0.9619 0.23927 0.0
C34 C 0.21016 0.35026 0.04294 0.0
N35 N 0.32766 0.47745 0.7008 0.0
C36 C 0.31075 0.50658 0.82642 0.0
C37 C 0.35077 0.55955 0.91044 0.0
C38 C 0.41052 0.58551 0.86779 0.0
C39 C 0.42857 0.55548 0.73978 0.0
C40 C 0.38607 0.50071 0.65855 0.0
Zn41 Zn 0.25356 0.39263 0.64934 0.0
C42 C 0.27183 0.29089 0.63202 0.0
N43 N 0.08263 0.23162 0.67533 0.0
C44 C 0.05277 0.23939 0.82374 0.0
C45 C 0.05716 0.18003 0.57409 0.0
C46 C 0.99912 0.13538 0.61891 0.0
C47 C 0.96911 0.14308 0.77566 0.0
C48 C 0.99779 0.1951 0.88152 0.0
Zn49 Zn 0.16474 0.30822 0.64181 0.0
O50 O 0.25261 0.3906 -0.04721 0.0
C51 C 0.14787 0.41099 0.60129 0.0
O52 O 0.1676 0.31048 -0.04978 0.0
H53 H 0.08041 0.17452 0.45394 0.0
H54 H 0.26573 0.48786 0.8729 0.0
H55 H 0.07003 0.28137 0.89507 0.0
O56 O 0.20287 0.43436 0.62574 0.0
O57 O 0.11632 0.35554 0.61583 0.0
H58 H 0.39998 0.47683 0.56514 0.0
O59 O 0.1665 0.30822 0.34036 0.0
O60 O 0.2533 0.39166 0.34346 0.0
O61 O 0.21542 0.26321 0.63996 0.0
O62 O 0.30082 0.347 0.6468 0.0
C63 C 0.21012 0.34998 0.25189 0.0
H64 H 0.33441 0.58041 0.00834 0.0
H65 H 0.47447 0.57452 0.7001 0.0
H66 H 0.97708 0.09678 0.52755 0.0
H67 H 0.97508 0.20422 -0.00431 0.0
C68 C 0.66321 0.07678 0.52511 0.0
N69 N 0.54571 0.08648 0.86729 0.0
C70 C 0.56264 0.13253 0.74172 0.0
C71 C 0.52262 0.14548 0.6577 0.0
C72 C 0.46287 0.11169 0.7003 0.0
C73 C 0.4448 0.0636 0.82821 0.0
C74 C 0.48729 0.05132 0.90946 0.0
Zn75 Zn 0.61981 0.07575 0.91873 0.0
C76 C 0.60154 0.95575 0.93602 0.0
N77 N 0.79075 0.08568 0.89266 0.0
C78 C 0.8206 0.1233 0.74423 0.0
C79 C 0.81622 0.05957 -0.00609 0.0
C80 C 0.87425 0.07296 -0.05092 0.0
C81 C 0.90424 0.11064 0.79232 0.0
C82 C 0.87558 0.13398 0.68643 0.0
Zn83 Zn 0.70864 0.08017 0.92622 0.0
O84 O 0.62076 0.07467 0.61529 0.0
C85 C 0.72551 0.19981 -0.0332 0.0
O86 O 0.70577 0.07956 0.61781 0.0
H87 H 0.79297 0.03082 0.11407 0.0
H88 H 0.60765 0.15882 0.69527 0.0
H89 H 0.80334 0.14801 0.67291 0.0
O90 O 0.6705 0.16817 0.94239 0.0
O91 O 0.75706 0.17591 -0.04779 0.0
H92 H 0.47338 1.01353 0.00281 0.0
O93 O 0.70687 0.07842 0.22766 0.0
O94 O 0.62007 0.07505 0.22462 0.0
O95 O 0.65796 0.98448 0.92806 0.0
O96 O 0.57256 0.98287 0.92124 0.0
C97 C 0.66326 0.07655 0.31616 0.0
H98 H 0.53899 0.18271 0.55984 0.0
H99 H 0.3989 0.03674 0.86783 0.0
H100 H 0.8963 0.05641 0.04044 0.0
H101 H 0.89829 0.16581 0.57225 0.0
C102 C 0.50994 0.77021 0.37619 0.0
N103 N 0.38275 0.76052 0.03421 0.0
C104 C 0.35362 0.71449 0.15985 0.0
C105 C 0.30065 0.70154 0.24388 0.0
C106 C 0.27468 0.73531 0.20121 0.0
C107 C 0.30471 0.78338 0.0732 0.0
C108 C 0.35948 0.79566 -0.00804 0.0
Zn109 Zn 0.46757 0.77124 -0.01733 0.0
C110 C 0.5693 0.89124 -0.03473 0.0
N111 N 0.62858 0.7613 0.00845 0.0
C112 C 0.62075 0.72364 0.15677 0.0
C113 C 0.6802 0.78744 0.90738 0.0
C114 C 0.72484 0.77405 -0.04771 0.0
C115 C 0.71709 0.73632 0.10897 0.0
C116 C 0.66503 0.71295 0.21465 0.0
Zn117 Zn 0.55198 0.76682 -0.02504 0.0
O118 O 0.4696 0.77233 0.28612 0.0
C119 C 0.44921 0.64719 0.93448 0.0
O120 O 0.54971 0.76743 0.28337 0.0
H121 H 0.68577 0.81624 0.7873 0.0
H122 H 0.37235 0.6882 0.20632 0.0
H123 H 0.57875 0.69892 0.22799 0.0
O124 O 0.42584 0.67882 -0.04096 0.0
O125 O 0.50465 0.67108 -0.05108 0.0
H126 H 0.38336 0.83344 0.89853 0.0
O127 O 0.55198 0.76859 0.67351 0.0
O128 O 0.46854 0.77194 0.67679 0.0
O129 O 0.59699 0.86252 -0.02685 0.0
O130 O 0.5132 0.86412 -0.01986 0.0
C131 C 0.51022 0.77044 0.58513 0.0
H132 H 0.27978 0.66432 0.34178 0.0
H133 H 0.28566 0.81023 0.03351 0.0
H134 H 0.76347 0.79063 0.86106 0.0
H135 H 0.65586 0.6811 0.32877 0.0
C136 C 0.78342 0.49675 0.85855 0.0
N137 N 0.77371 0.36955 0.20056 0.0
C138 C 0.72767 0.34042 0.07499 0.0
C139 C 0.71473 0.28745 -0.00905 0.0
C140 C 0.7485 0.26148 0.03354 0.0
C141 C 0.79658 0.29151 0.16145 0.0
C142 C 0.80886 0.34628 0.24272 0.0
Zn143 Zn 0.78444 0.45437 0.25209 0.0
C144 C 0.90444 0.5561 0.26945 0.0
N145 N 0.77451 0.61539 0.22623 0.0
C146 C 0.73687 0.60758 0.07788 0.0
C147 C 0.80062 0.667 0.32734 0.0
C148 C 0.78723 0.71164 0.28243 0.0
C149 C 0.74953 0.70389 0.12571 0.0
C150 C 0.72618 0.65185 0.01998 0.0
Zn151 Zn 0.78003 0.53879 0.25975 0.0
O152 O 0.78554 0.45641 -0.05136 0.0
C153 C 0.6604 0.43602 0.3003 0.0
O154 O 0.78065 0.53653 -0.04866 0.0
H155 H 0.8294 0.67255 0.44744 0.0
H156 H 0.70139 0.35915 0.02856 0.0
H157 H 0.71216 0.56558 0.00666 0.0
O158 O 0.69203 0.41265 0.27579 0.0
O159 O 0.68429 0.49147 0.2858 0.0
H160 H 0.84664 0.37016 0.33607 0.0
O161 O 0.78178 0.53878 0.5612 0.0
O162 O 0.78514 0.45534 0.55797 0.0
O163 O 0.87572 0.58379 0.26155 0.0
O164 O 0.87732 0.5 0.25457 0.0
C165 C 0.78364 0.49702 0.6496 0.0
H166 H 0.6775 0.26659 0.89309 0.0
H167 H 0.82343 0.27246 0.20106 0.0
H168 H 0.80379 0.75027 0.37367 0.0
H169 H 0.69434 0.6427 0.90584 0.0
C170 C 0.08997 0.65001 0.70964 0.0
N171 N 0.09967 0.53251 0.36752 0.0
C172 C 0.14572 0.54944 0.49306 0.0
C173 C 0.15866 0.50942 0.5771 0.0
C174 C 0.12488 0.44967 0.53454 0.0
C175 C 0.0768 0.4316 0.40665 0.0
C176 C 0.06452 0.47409 0.32539 0.0
Zn177 Zn 0.08894 0.60661 0.31603 0.0
C178 C 0.96894 0.58835 0.29873 0.0
N179 N 0.09888 0.77756 0.34205 0.0
C180 C 0.1365 0.8074 0.49044 0.0
C181 C 0.07277 0.80305 0.24087 0.0
C182 C 0.08616 0.86108 0.28574 0.0
C183 C 0.12385 0.89105 0.44248 0.0
C184 C 0.14718 0.86237 0.54829 0.0
Zn185 Zn 0.09336 0.69544 0.30849 0.0
O186 O 0.08785 0.60756 0.61948 0.0
C187 C 0.21299 0.71231 0.26788 0.0
O188 O 0.09274 0.69256 0.6169 0.0
H189 H 0.04401 0.77981 0.12074 0.0
H190 H 0.172 0.59445 0.53949 0.0
H191 H 0.16121 0.79012 0.5617 0.0
O192 O 0.18135 0.6573 0.29233 0.0
O193 O 0.1891 0.74386 0.28246 0.0
H194 H 1.02673 0.46018 0.23206 0.0
O195 O 0.09161 0.69368 0.00705 0.0
O196 O 0.08825 0.60688 0.01016 0.0
O197 O 0.99767 0.64476 0.30668 0.0
O198 O 0.99606 0.55936 0.31357 0.0
C199 C 0.08975 0.65006 0.91858 0.0
H200 H 0.19589 0.52579 0.67494 0.0
H201 H 0.04994 0.3857 0.36706 0.0
H202 H 0.06962 0.88314 0.19444 0.0
H203 H 0.17901 0.88507 0.66245 0.0
loop_
_geom_bond_atom_site_label_1
_geom_bond_atom_site_label_2
_geom_bond_distance
_geom_bond_site_symmetry_2
_ccdc_geom_bond_type
C0 O16 1.251 . S
C0 O18 1.254 . S
N1 C2 1.333 . S
N1 C6 1.307 . S
N1 Zn7 2.020 . S
C2 N1 1.333 . S
C2 C3 1.379 . S
C2 H20 0.952 . S
C3 C2 1.379 . S
C3 C4 1.390 . S
C3 H30 0.949 . S
C4 C3 1.390 . S
C4 C5 1.357 . S
C5 C4 1.357 . S
C5 C6 1.370 . S
C5 H31 0.950 . S
C6 N1 1.307 . S
C6 C5 1.370 . S
C6 H24 0.948 . S
Zn7 N1 2.020 . S
Zn7 O16 2.039 . S
Zn7 O22 2.034 . S
Zn7 O26 2.025 . S
Zn7 O28 2.024 . S
C8 O27 1.246 . S
C8 O28 1.249 . S
N9 C10 1.307 1_545 S
N9 C11 1.333 . S
N9 Zn15 2.020 . S
C10 N9 1.307 1_565 S
C10 C14 1.370 . S
C10 H21 0.948 1_565 S
C11 N9 1.333 . S
C11 C12 1.379 1_545 S
C11 H19 0.952 . S
C12 C11 1.379 1_565 S
C12 C13 1.390 . S
C12 H32 0.949 . S
C13 C12 1.390 . S
C13 C14 1.357 . S
C14 C10 1.370 . S
C14 C13 1.357 . S
C14 H33 0.950 . S
Zn15 N9 2.020 . S
Zn15 O18 2.025 . S
Zn15 O23 2.024 . S
Zn15 O25 2.039 . S
Zn15 O27 2.034 . S
O16 C0 1.251 . S
O16 Zn7 2.039 . S
C17 O22 1.246 . S
C17 O23 1.249 . S
O18 C0 1.254 . S
O18 Zn15 2.025 . S
H19 C11 0.952 . S
H20 C2 0.952 . S
H21 C10 0.948 1_545 S
O22 Zn7 2.034 . S
O22 C17 1.246 . S
O23 Zn15 2.024 . S
O23 C17 1.249 . S
H24 C6 0.948 . S
O25 Zn15 2.039 . S
O25 C29 1.251 1_556 S
O26 Zn7 2.025 . S
O26 C29 1.254 1_556 S
O27 C8 1.246 . S
O27 Zn15 2.034 . S
O28 Zn7 2.024 . S
O28 C8 1.249 . S
C29 O25 1.251 1_554 S
C29 O26 1.254 1_554 S
H30 C3 0.949 . S
H31 C5 0.950 . S
H32 C12 0.949 . S
H33 C14 0.950 . S
C34 O50 1.251 1_554 S
C34 O52 1.254 . S
N35 C36 1.333 . S
N35 C40 1.307 . S
N35 Zn41 2.020 . S
C36 N35 1.333 . S
C36 C37 1.379 . S
C36 H54 0.952 . S
C37 C36 1.379 . S
C37 C38 1.390 . S
C37 H64 0.951 . S
C38 C37 1.390 . S
C38 C39 1.357 . S
C39 C38 1.357 . S
C39 C40 1.370 . S
C39 H65 0.950 . S
C40 N35 1.307 . S
C40 C39 1.370 . S
C40 H58 0.948 . S
Zn41 N35 2.020 . S
Zn41 O50 2.039 . S
Zn41 O56 2.034 . S
Zn41 O60 2.025 . S
Zn41 O62 2.024 . S
C42 O61 1.246 . S
C42 O62 1.249 . S
N43 C44 1.307 1_455 S
N43 C45 1.333 . S
N43 Zn49 2.020 . S
C44 N43 1.307 1_655 S
C44 C48 1.370 . S
C44 H55 0.948 1_655 S
C45 N43 1.333 . S
C45 C46 1.379 1_455 S
C45 H53 0.952 . S
C46 C45 1.379 1_655 S
C46 C47 1.390 . S
C46 H66 0.949 . S
C47 C46 1.390 . S
C47 C48 1.357 . S
C48 C44 1.370 . S
C48 C47 1.357 . S
C48 H67 0.950 . S
Zn49 N43 2.020 . S
Zn49 O52 2.025 1_556 S
Zn49 O57 2.024 . S
Zn49 O59 2.039 . S
Zn49 O61 2.034 . S
O50 C34 1.251 1_556 S
O50 Zn41 2.039 . S
C51 O56 1.246 . S
C51 O57 1.249 . S
O52 C34 1.254 . S
O52 Zn49 2.025 1_554 S
H53 C45 0.952 . S
H54 C36 0.952 . S
H55 C44 0.948 1_455 S
O56 Zn41 2.034 . S
O56 C51 1.246 . S
O57 Zn49 2.024 . S
O57 C51 1.249 . S
H58 C40 0.948 . S
O59 Zn49 2.039 . S
O59 C63 1.251 . S
O60 Zn41 2.025 . S
O60 C63 1.254 . S
O61 C42 1.246 . S
O61 Zn49 2.034 . S
O62 Zn41 2.024 . S
O62 C42 1.249 . S
C63 O59 1.251 . S
C63 O60 1.254 . S
H64 C37 0.951 . S
H65 C39 0.950 . S
H66 C46 0.949 . S
H67 C48 0.950 . S
C68 O84 1.251 . S
C68 O86 1.254 . S
N69 C70 1.333 . S
N69 C74 1.307 1_556 S
N69 Zn75 2.020 . S
C70 N69 1.333 . S
C70 C71 1.379 . S
C70 H88 0.952 . S
C71 C70 1.379 . S
C71 C72 1.390 . S
C71 H98 0.949 . S
C72 C71 1.390 . S
C72 C73 1.357 1_546 S
C73 C72 1.357 1_564 S
C73 C74 1.370 1_565 S
C73 H99 0.950 . S
C74 N69 1.307 1_554 S
C74 C73 1.370 1_545 S
C74 H92 0.948 1_545 S
Zn75 N69 2.020 . S
Zn75 O84 2.039 . S
Zn75 O90 2.034 . S
Zn75 O94 2.025 1_556 S
Zn75 O96 2.024 1_545 S
C76 O95 1.246 . S
C76 O96 1.249 . S
N77 C78 1.307 . S
N77 C79 1.333 1_556 S
N77 Zn83 2.020 . S
C78 N77 1.307 . S
C78 C82 1.370 . S
C78 H89 0.948 . S
C79 N77 1.333 1_554 S
C79 C80 1.379 . S
C79 H87 0.952 . S
C80 C79 1.379 . S
C80 C81 1.390 . S
C80 H100 0.949 . S
C81 C80 1.390 . S
C81 C82 1.357 1_554 S
C82 C78 1.370 . S
C82 C81 1.357 1_556 S
C82 H101 0.950 . S
Zn83 N77 2.020 . S
Zn83 O86 2.025 . S
Zn83 O91 2.024 . S
Zn83 O93 2.039 1_556 S
Zn83 O95 2.034 1_545 S
O84 C68 1.251 . S
O84 Zn75 2.039 . S
C85 O90 1.246 1_554 S
C85 O91 1.249 1_554 S
O86 C68 1.254 . S
O86 Zn83 2.025 . S
H87 C79 0.952 . S
H88 C70 0.952 . S
H89 C78 0.948 . S
O90 Zn75 2.034 . S
O90 C85 1.246 1_556 S
O91 Zn83 2.024 . S
O91 C85 1.249 1_556 S
H92 C74 0.948 1_565 S
O93 Zn83 2.039 1_554 S
O93 C97 1.251 . S
O94 Zn75 2.025 1_554 S
O94 C97 1.254 . S
O95 C76 1.246 . S
O95 Zn83 2.034 1_565 S
O96 Zn75 2.024 1_565 S
O96 C76 1.249 . S
C97 O93 1.251 . S
C97 O94 1.254 . S
H98 C71 0.949 . S
H99 C73 0.950 . S
H100 C80 0.949 . S
H101 C82 0.950 . S
C102 O118 1.251 . S
C102 O120 1.254 . S
N103 C104 1.333 . S
N103 C108 1.307 1_554 S
N103 Zn109 2.020 . S
C104 N103 1.333 . S
C104 C105 1.379 . S
C104 H122 0.952 . S
C105 C104 1.379 . S
C105 C106 1.390 . S
C105 H132 0.949 . S
C106 C105 1.390 . S
C106 C107 1.357 1_554 S
C107 C106 1.357 1_556 S
C107 C108 1.370 . S
C107 H133 0.950 . S
C108 N103 1.307 1_556 S
C108 C107 1.370 . S
C108 H126 0.948 . S
Zn109 N103 2.020 . S
Zn109 O118 2.039 . S
Zn109 O124 2.034 . S
Zn109 O128 2.025 1_554 S
Zn109 O130 2.024 . S
C110 O129 1.246 . S
C110 O130 1.249 . S
N111 C112 1.307 . S
N111 C113 1.333 1_554 S
N111 Zn117 2.020 . S
C112 N111 1.307 . S
C112 C116 1.370 . S
C112 H123 0.948 . S
C113 N111 1.333 1_556 S
C113 C114 1.379 . S
C113 H121 0.952 . S
C114 C113 1.379 . S
C114 C115 1.390 . S
C114 H134 0.949 . S
C115 C114 1.390 . S
C115 C116 1.357 1_556 S
C116 C112 1.370 . S
C116 C115 1.357 1_554 S
C116 H135 0.950 . S
Zn117 N111 2.020 . S
Zn117 O120 2.025 . S
Zn117 O125 2.024 . S
Zn117 O127 2.039 1_554 S
Zn117 O129 2.034 . S
O118 C102 1.251 . S
O118 Zn109 2.039 . S
C119 O124 1.246 1_556 S
C119 O125 1.249 1_556 S
O120 C102 1.254 . S
O120 Zn117 2.025 . S
H121 C113 0.952 . S
H122 C104 0.952 . S
H123 C112 0.948 . S
O124 Zn109 2.034 . S
O124 C119 1.246 1_554 S
O125 Zn117 2.024 . S
O125 C119 1.249 1_554 S
H126 C108 0.948 . S
O127 Zn117 2.039 1_556 S
O127 C131 1.251 . S
O128 Zn109 2.025 1_556 S
O128 C131 1.254 . S
O129 C110 1.246 . S
O129 Zn117 2.034 . S
O130 Zn109 2.024 . S
O130 C110 1.249 . S
C131 O127 1.251 . S
C131 O128 1.254 . S
H132 C105 0.949 . S
H133 C107 0.950 . S
H134 C114 0.949 . S
H135 C116 0.950 . S
C136 O152 1.251 1_556 S
C136 O154 1.254 . S
N137 C138 1.333 . S
N137 C142 1.307 . S
N137 Zn143 2.020 . S
C138 N137 1.333 . S
C138 C139 1.379 . S
C138 H156 0.952 . S
C139 C138 1.379 . S
C139 C140 1.390 . S
C139 H166 0.949 . S
C140 C139 1.390 . S
C140 C141 1.357 . S
C141 C140 1.357 . S
C141 C142 1.370 . S
C141 H167 0.950 . S
C142 N137 1.307 . S
C142 C141 1.370 . S
C142 H160 0.948 . S
Zn143 N137 2.020 . S
Zn143 O152 2.039 . S
Zn143 O158 2.034 . S
Zn143 O162 2.025 . S
Zn143 O164 2.024 . S
C144 O163 1.246 . S
C144 O164 1.249 . S
N145 C146 1.307 . S
N145 C147 1.333 . S
N145 Zn151 2.020 . S
C146 N145 1.307 . S
C146 C150 1.370 . S
C146 H157 0.948 . S
C147 N145 1.333 . S
C147 C148 1.379 . S
C147 H155 0.952 . S
C148 C147 1.379 . S
C148 C149 1.390 . S
C148 H168 0.949 . S
C149 C148 1.390 . S
C149 C150 1.357 . S
C150 C146 1.370 . S
C150 C149 1.357 . S
C150 H169 0.950 . S
Zn151 N145 2.020 . S
Zn151 O154 2.025 1_554 S
Zn151 O159 2.024 . S
Zn151 O161 2.039 . S
Zn151 O163 2.034 . S
O152 C136 1.251 1_554 S
O152 Zn143 2.039 . S
C153 O158 1.246 . S
C153 O159 1.249 . S
O154 C136 1.254 . S
O154 Zn151 2.025 1_556 S
H155 C147 0.952 . S
H156 C138 0.952 . S
H157 C146 0.948 . S
O158 Zn143 2.034 . S
O158 C153 1.246 . S
O159 Zn151 2.024 . S
O159 C153 1.249 . S
H160 C142 0.948 . S
O161 Zn151 2.039 . S
O161 C165 1.251 . S
O162 Zn143 2.025 . S
O162 C165 1.254 . S
O163 C144 1.246 . S
O163 Zn151 2.034 . S
O164 Zn143 2.024 . S
O164 C144 1.249 . S
C165 O161 1.251 . S
C165 O162 1.254 . S
H166 C139 0.949 . S
H167 C141 0.950 . S
H168 C148 0.949 . S
H169 C150 0.950 . S
C170 O186 1.251 . S
C170 O188 1.254 . S
N171 C172 1.333 . S
N171 C176 1.307 . S
N171 Zn177 2.020 . S
C172 N171 1.333 . S
C172 C173 1.379 . S
C172 H190 0.952 . S
C173 C172 1.379 . S
C173 C174 1.390 . S
C173 H200 0.949 . S
C174 C173 1.390 . S
C174 C175 1.357 1_455 S
C175 C174 1.357 1_655 S
C175 C176 1.370 1_655 S
C175 H201 0.950 . S
C176 N171 1.307 . S
C176 C175 1.370 1_455 S
C176 H194 0.948 1_455 S
Zn177 N171 2.020 . S
Zn177 O186 2.039 . S
Zn177 O192 2.034 . S
Zn177 O196 2.025 . S
Zn177 O198 2.024 1_455 S
C178 O197 1.246 . S
C178 O198 1.249 . S
N179 C180 1.307 . S
N179 C181 1.333 . S
N179 Zn185 2.020 . S
C180 N179 1.307 . S
C180 C184 1.370 . S
C180 H191 0.948 . S
C181 N179 1.333 . S
C181 C182 1.379 . S
C181 H189 0.952 . S
C182 C181 1.379 . S
C182 C183 1.390 . S
C182 H202 0.949 . S
C183 C182 1.390 . S
C183 C184 1.357 . S
C184 C180 1.370 . S
C184 C183 1.357 . S
C184 H203 0.950 . S
Zn185 N179 2.020 . S
Zn185 O188 2.025 . S
Zn185 O193 2.024 . S
Zn185 O195 2.039 . S
Zn185 O197 2.034 1_455 S
O186 C170 1.251 . S
O186 Zn177 2.039 . S
C187 O192 1.246 . S
C187 O193 1.249 . S
O188 C170 1.254 . S
O188 Zn185 2.025 . S
H189 C181 0.952 . S
H190 C172 0.952 . S
H191 C180 0.948 . S
O192 Zn177 2.034 . S
O192 C187 1.246 . S
O193 Zn185 2.024 . S
O193 C187 1.249 . S
H194 C176 0.948 1_655 S
O195 Zn185 2.039 . S
O195 C199 1.251 1_554 S
O196 Zn177 2.025 . S
O196 C199 1.254 1_554 S
O197 C178 1.246 . S
O197 Zn185 2.034 1_655 S
O198 Zn177 2.024 1_655 S
O198 C178 1.249 . S
C199 O195 1.251 1_556 S
C199 O196 1.254 1_556 S
H200 C173 0.949 . S
H201 C175 0.950 . S
H202 C182 0.949 . S
H203 C184 0.950 . S
C0 C29 1.055 . S
C63 C34 1.055 . S
C97 C68 1.055 . S
C102 C131 1.055 . S
C165 C136 1.055 . S
C199 C170 1.055 . S
C13 C183 2.820 . S
C8 C42 2.350 . S
C81 C47 2.821 1_554 S
C110 C76 2.350 1_554 S
C149 C115 2.821 1_554 S
C144 C178 2.350 . S
C4 C153 3.488 . S
C51 C174 3.488 . S
C72 C17 3.488 . S
C119 C38 3.488 . S
C140 C85 3.488 . S
C106 C187 3.488 . S
