# Generated by pormake.
# Topology uni, (4)-cn, num edge types: 1
# Building blocks:
#     Node 0, Type 0, BuildingBlock: QUQFOY_clean_sbu_1, # of connection points: 4
#     Node 1, Type 0, BuildingBlock: QUQFOY_clean_sbu_1, # of connection points: 4
#     Node 2, Type 0, BuildingBlock: QUQFOY_clean_sbu_1, # of connection points: 4
#     Node 3, Type 0, BuildingBlock: QUQFOY_clean_sbu_1, # of connection points: 4
#     Node 4, Type 0, BuildingBlock: QUQFOY_clean_sbu_1, # of connection points: 4
#     Node 5, Type 0, BuildingBlock: QUQFOY_clean_sbu_1, # of connection points: 4
#     Edge 6, Type (0, 0), BuildingBlock: AJUNOK_clean_linker_0, # of connection points: 2
#     Edge 7, Type (0, 0), BuildingBlock: AJUNOK_clean_linker_0, # of connection points: 2
#     Edge 8, Type (0, 0), BuildingBlock: AJUNOK_clean_linker_0, # of connection points: 2
#     Edge 9, Type (0, 0), BuildingBlock: AJUNOK_clean_linker_0, # of connection points: 2
#     Edge 10, Type (0, 0), BuildingBlock: AJUNOK_clean_linker_0, # of connection points: 2
#     Edge 11, Type (0, 0), BuildingBlock: AJUNOK_clean_linker_0, # of connection points: 2
#     Edge 12, Type (0, 0), BuildingBlock: AJUNOK_clean_linker_0, # of connection points: 2
#     Edge 13, Type (0, 0), BuildingBlock: AJUNOK_clean_linker_0, # of connection points: 2
#     Edge 14, Type (0, 0), BuildingBlock: AJUNOK_clean_linker_0, # of connection points: 2
#     Edge 15, Type (0, 0), BuildingBlock: AJUNOK_clean_linker_0, # of connection points: 2
#     Edge 16, Type (0, 0), BuildingBlock: AJUNOK_clean_linker_0, # of connection points: 2
#     Edge 17, Type (0, 0), BuildingBlock: AJUNOK_clean_linker_0, # of connection points: 2
# Relax obj value: 0.077
# Max RMSD: 0.157
# Mean RMSD: 0.157
data_MOF--net-uni--node1-QUQFOY_clean_sbu_1--edge1-AJUNOK_clean_linker_0
_symmetry_space_group_name_H-M    P1
_symmetry_Int_Tables_number       1
_symmetry_cell_setting            triclinic
loop_
_symmetry_equiv_pos_as_xyz
'x, y, z'
_cell_length_a     31.31382
_cell_length_b     31.485024
_cell_length_c     18.131123
_cell_angle_alpha  89.36689
_cell_angle_beta   90.189069
_cell_angle_gamma 119.96732
loop_
_atom_site_label
_atom_site_type_symbol
_atom_site_fract_x
_atom_site_fract_y
_atom_site_fract_z
_atom_type_partial_charge
O0 O 0.63787 0.07187 0.92512 0.0
Cd1 Cd 0.68242 0.09336 0.01603 0.0
Cd2 Cd 0.62703 0.9873 0.02918 0.0
O3 O 0.60151 0.99117 0.92592 0.0
O4 O 0.7167 0.16489 -0.00438 0.0
O5 O 0.75628 0.12356 -8e-05 0.0
C6 C 0.75708 0.16432 -0.01312 0.0
C7 C 0.6363 0.91971 0.05914 0.0
C8 C 0.60947 0.03097 0.89544 0.0
C9 C 0.61383 0.05035 0.14379 0.0
O10 O 0.60035 1.00883 0.11552 0.0
O11 O 0.64904 0.08916 0.11566 0.0
O12 O 0.59378 0.91568 0.0489 0.0
O13 O 0.67462 0.96251 0.04954 0.0
O14 O 0.60752 0.62401 0.07948 0.0
Cd15 Cd 0.63127 0.66602 0.17261 0.0
Cd16 Cd 0.68269 0.61298 0.17904 0.0
O17 O 0.6554 0.59131 0.07442 0.0
O18 O 0.59669 0.70391 0.15895 0.0
O19 O 0.67763 0.73939 0.16085 0.0
C20 C 0.63877 0.74326 0.15253 0.0
C21 C 0.75979 0.62273 0.21017 0.0
C22 C 0.62193 0.598 0.04665 0.0
C23 C 0.60434 0.5934 0.29451 0.0
O24 O 0.63252 0.58106 0.26291 0.0
O25 O 0.60166 0.63017 0.27118 0.0
O26 O 0.72247 0.58064 0.19525 0.0
O27 O 0.7542 0.66055 0.204 0.0
O28 O 1.02652 0.59129 0.26008 0.0
Cd29 Cd 1.00498 0.61697 0.34782 0.0
Cd30 Cd 0.10924 0.67163 0.35583 0.0
O31 O 0.10645 0.64321 0.2532 0.0
O32 O 0.93283 0.58274 0.3305 0.0
O33 O 0.97864 0.66325 0.32778 0.0
C34 C 0.93599 0.62462 0.31935 0.0
C35 C 0.1771 0.74659 0.38986 0.0
C36 C 0.06774 0.60686 0.22789 0.0
C37 C 0.04967 0.59516 0.47489 0.0
O38 O 0.08996 0.62288 0.44187 0.0
O39 O 1.00962 0.59068 0.45038 0.0
O40 O 0.18101 0.7088 0.37564 0.0
O41 O 0.13485 0.74341 0.37912 0.0
O42 O 0.47334 1.00886 0.42882 0.0
Cd43 Cd 0.42757 0.98977 0.51887 0.0
Cd44 Cd 0.47821 0.09346 0.52492 0.0
O45 O 0.50154 0.08835 0.42121 0.0
O46 O 0.38973 0.91758 0.50731 0.0
O47 O 0.35429 0.96288 0.50235 0.0
C48 C 0.35044 0.92022 0.49789 0.0
C49 C 0.47141 0.16294 0.54941 0.0
C50 C 0.49874 0.04969 0.39563 0.0
C51 C 0.49704 0.03491 0.64263 0.0
O52 O 0.50951 0.07545 0.61041 0.0
O53 O 0.46063 0.9955 0.61941 0.0
O54 O 0.51299 0.16571 0.53613 0.0
O55 O 0.43244 0.12013 0.54746 0.0
O56 O 0.50381 0.45722 0.58449 0.0
Cd57 Cd 0.47869 0.41353 0.67684 0.0
Cd58 Cd 0.42717 0.46663 0.68018 0.0
O59 O 0.45417 0.48765 0.57477 0.0
O60 O 0.5143 0.37714 0.66098 0.0
O61 O 0.43317 0.34041 0.66207 0.0
C62 C 0.47262 0.33804 0.65106 0.0
C63 C 0.35087 0.45981 0.70801 0.0
C64 C 0.48876 0.48218 0.54919 0.0
C65 C 0.50528 0.48519 0.79664 0.0
O66 O 0.47769 0.49799 0.76341 0.0
O67 O 0.50733 0.44787 0.77564 0.0
O68 O 0.3893 0.50114 0.69242 0.0
O69 O 0.35512 0.42112 0.70619 0.0
O70 O 0.08895 0.49404 0.76426 0.0
Cd71 Cd 0.10787 0.46568 0.85232 0.0
Cd72 Cd 1.00292 0.41741 0.8608 0.0
O73 O 1.00842 0.44733 0.75735 0.0
O74 O 0.17985 0.501 0.83353 0.0
O75 O 0.13517 0.42042 0.8311 0.0
C76 C 0.17707 0.45971 0.82032 0.0
C77 C 0.93283 0.34141 0.8865 0.0
C78 C 0.0487 0.48154 0.7313 0.0
C79 C 0.06578 0.49071 -0.02087 0.0
O80 O 1.02449 0.46532 -0.05259 0.0
O81 O 0.10423 0.49201 -0.04596 0.0
O82 O 0.93049 0.38061 0.8758 0.0
O83 O 0.97555 0.34483 0.88137 0.0
C84 C 0.55438 1.00892 0.24664 0.0
C85 C 0.5863 0.05258 0.20851 0.0
C86 C 0.52581 1.00855 0.30578 0.0
C87 C 0.52774 0.05184 0.32972 0.0
H88 H 0.55132 0.97441 0.23091 0.0
H89 H 0.50226 0.97378 0.33319 0.0
S90 S 0.60443 0.17607 0.24741 0.0
N91 N 0.61761 0.1404 0.19787 0.0
N92 N 0.56385 0.13982 0.30972 0.0
C93 C 0.55932 0.09593 0.29194 0.0
C94 C 0.58866 0.0963 0.23139 0.0
C95 C 0.54406 0.57799 0.39647 0.0
C96 C 0.57349 0.56351 0.35761 0.0
C97 C 0.51509 0.55048 0.45674 0.0
C98 C 0.51465 0.50759 0.4805 0.0
H99 H 0.54382 0.61119 0.38097 0.0
H100 H 0.49413 0.56377 0.48622 0.0
S101 S 0.58127 0.45099 0.39391 0.0
N102 N 0.5976 0.50126 0.34485 0.0
N103 N 0.54328 0.44993 0.45761 0.0
C104 C 0.54256 0.49178 0.44076 0.0
C105 C 0.57196 0.51964 0.37953 0.0
C106 C 1.00519 0.50447 0.63598 0.0
C107 C 0.04927 0.50916 0.6642 0.0
C108 C 1.00554 0.53269 0.57528 0.0
C109 C 0.04998 0.56661 0.5404 0.0
H110 H 0.97014 0.47932 0.66151 0.0
H111 H 0.97067 0.52778 0.55564 0.0
S112 S 0.17565 0.59167 0.59155 0.0
N113 N 0.13856 0.54944 0.65111 0.0
N114 N 0.13938 0.60259 0.53827 0.0
C115 C 0.09433 0.57129 0.5678 0.0
C116 C 0.09393 0.54254 0.62926 0.0
C117 C 0.53726 0.9899 0.81012 0.0
C118 C 0.58333 0.03059 0.82722 0.0
C119 C 0.50952 0.99143 0.75025 0.0
C120 C 0.52691 0.0337 0.70537 0.0
H121 H 0.52178 0.95719 0.84452 0.0
H122 H 0.47386 0.95953 0.7399 0.0
S123 S 0.64819 0.14805 0.72225 0.0
N124 N 0.64697 0.1128 0.79112 0.0
N125 N 0.59521 0.11588 0.67911 0.0
C126 C 0.57384 0.07398 0.7205 0.0
C127 C 0.60196 0.07235 0.78121 0.0
C128 C 0.59398 0.52815 -0.04101 0.0
C129 C 0.59609 0.57224 -0.02123 0.0
C130 C 0.56466 0.50021 0.89999 0.0
C131 C 0.53648 0.51542 0.85847 0.0
H132 H 0.61385 0.51426 -0.00928 0.0
H133 H 0.56358 0.46611 0.88764 0.0
S134 S 0.5335 0.63106 0.88361 0.0
N135 N 0.57052 0.63172 -0.05094 0.0
N136 N 0.51557 0.57965 0.83859 0.0
C137 C 0.53976 0.56046 0.87628 0.0
C138 C 0.56953 0.58875 0.93623 0.0
C139 C 1.02499 0.51845 0.06889 0.0
C140 C 0.06853 0.52085 0.04326 0.0
C141 C 1.02563 0.5473 0.12718 0.0
C142 C 0.06983 0.58003 0.1627 0.0
H143 H 0.98973 0.49405 0.04378 0.0
H144 H 0.99087 0.54362 0.14463 0.0
S145 S 0.19437 0.60059 0.11759 0.0
N146 N 0.15749 0.55896 0.05809 0.0
N147 N 0.15857 0.61326 0.16839 0.0
C148 C 0.11388 0.58327 0.13766 0.0
C149 C 0.11324 0.5536 0.07799 0.0
C150 C 0.59658 0.7908 0.12527 0.0
C151 C 0.64101 0.79017 0.13232 0.0
C152 C 0.59592 0.83276 0.10148 0.0
C153 C 0.63967 0.87634 0.08372 0.0
H154 H 0.56155 0.75833 0.13747 0.0
H155 H 0.56044 0.83074 0.09702 0.0
S156 S 0.76629 0.89488 0.09414 0.0
N157 N 0.73035 0.8373 0.12055 0.0
N158 N 0.72912 0.91674 0.07608 0.0
C159 C 0.68465 0.87675 0.09145 0.0
C160 C 0.68532 0.83361 0.11569 0.0
C161 C 0.848 0.58265 0.28131 0.0
C162 C 0.89206 0.62687 0.29378 0.0
C163 C 0.80616 0.58219 0.2536 0.0
C164 C 0.80607 0.62592 0.23731 0.0
H165 H 0.84564 0.54765 0.29239 0.0
H166 H 0.77341 0.54687 0.24537 0.0
S167 S 0.91171 0.75197 0.26045 0.0
N168 N 0.93315 0.71596 0.28784 0.0
N169 N 0.85385 0.71507 0.23617 0.0
C170 C 0.84967 0.67065 0.24992 0.0
C171 C 0.89274 0.67113 0.27802 0.0
C172 C 0.2249 0.83754 0.41183 0.0
C173 C 0.21938 0.79067 0.42177 0.0
C174 C 0.26651 0.8795 0.43926 0.0
C175 C 0.30365 0.87579 0.47788 0.0
H176 H 0.19772 0.84197 0.38084 0.0
H177 H 0.27039 0.91512 0.42791 0.0
S178 S 0.30222 0.76055 0.52906 0.0
N179 N 0.25168 0.74258 0.48009 0.0
N180 N 0.32918 0.82087 0.53169 0.0
C181 C 0.29698 0.82881 0.49158 0.0
C182 C 0.25504 0.78639 0.46348 0.0
C183 C 0.43019 0.24649 0.63545 0.0
C184 C 0.47106 0.2934 0.62252 0.0
C185 C 0.42959 0.20419 0.60965 0.0
C186 C 0.4697 0.20755 0.56967 0.0
H187 H 0.39904 0.24236 0.6671 0.0
H188 H 0.39815 0.16867 0.62285 0.0
S189 S 0.58209 0.3224 0.51158 0.0
N190 N 0.55027 0.34089 0.56064 0.0
N191 N 0.54902 0.262 0.51211 0.0
C192 C 0.50964 0.25445 0.55354 0.0
C193 C 0.51036 0.29722 0.57999 0.0
C194 C 0.22602 0.41741 0.79823 0.0
C195 C 0.22005 0.45856 0.78887 0.0
C196 C 0.26774 0.41723 0.76999 0.0
C197 C 0.30458 0.45804 0.73098 0.0
H198 H 0.19895 0.38567 0.82902 0.0
H199 H 0.27174 0.38546 0.78047 0.0
S200 S 0.30236 0.57186 0.68226 0.0
N201 N 0.25195 0.53908 0.73163 0.0
N202 N 0.32961 0.53863 0.67842 0.0
C203 C 0.29767 0.49838 0.71843 0.0
C204 C 0.25562 0.49868 0.74743 0.0
C205 C 0.89131 0.25661 0.94244 0.0
C206 C 0.88789 0.29487 0.90709 0.0
C207 C 0.84891 0.21414 -0.03217 0.0
C208 C 0.80173 0.20863 -0.04104 0.0
H209 H 0.927 0.25996 -0.04781 0.0
H210 H 0.85322 0.18593 -0.00425 0.0
S211 S 0.77241 0.29547 0.86176 0.0
N212 N 0.83307 0.3224 0.85891 0.0
N213 N 0.75394 0.24323 0.90645 0.0
C214 C 0.79782 0.24589 0.92131 0.0
C215 C 0.84074 0.28882 0.8954 0.0
loop_
_geom_bond_atom_site_label_1
_geom_bond_atom_site_label_2
_geom_bond_distance
_geom_bond_site_symmetry_2
_ccdc_geom_bond_type
O0 Cd1 2.223 . S
O0 C8 1.315 1_554 S
Cd1 O0 2.223 . S
Cd1 O4 2.297 . S
Cd1 O5 2.439 . S
Cd1 O11 2.240 . S
Cd2 O3 2.240 1_564 S
Cd2 O10 2.223 . S
Cd2 O12 2.297 . S
Cd2 O13 2.439 . S
O3 Cd2 2.240 1_546 S
O3 C8 1.279 . S
O4 Cd1 2.297 . S
O4 C6 1.247 . S
O5 Cd1 2.439 . S
O5 C6 1.208 . S
C6 O4 1.247 . S
C6 O5 1.208 . S
C7 O12 1.247 . S
C7 O13 1.208 . S
C8 O0 1.315 1_556 S
C8 O3 1.279 . S
C9 O10 1.315 1_545 S
C9 O11 1.279 . S
O10 Cd2 2.223 . S
O10 C9 1.315 1_565 S
O11 Cd1 2.240 . S
O11 C9 1.279 . S
O12 Cd2 2.297 . S
O12 C7 1.247 . S
O13 Cd2 2.439 . S
O13 C7 1.208 . S
O14 Cd15 2.223 . S
O14 C22 1.315 . S
Cd15 O14 2.223 . S
Cd15 O18 2.297 . S
Cd15 O19 2.439 . S
Cd15 O25 2.240 . S
Cd16 O17 2.240 . S
Cd16 O24 2.223 . S
Cd16 O26 2.297 . S
Cd16 O27 2.439 . S
O17 Cd16 2.240 . S
O17 C22 1.279 . S
O18 Cd15 2.297 . S
O18 C20 1.247 . S
O19 Cd15 2.439 . S
O19 C20 1.208 . S
C20 O18 1.247 . S
C20 O19 1.208 . S
C21 O26 1.247 . S
C21 O27 1.208 . S
C22 O14 1.315 . S
C22 O17 1.279 . S
C23 O24 1.315 . S
C23 O25 1.279 . S
O24 Cd16 2.223 . S
O24 C23 1.315 . S
O25 Cd15 2.240 . S
O25 C23 1.279 . S
O26 Cd16 2.297 . S
O26 C21 1.247 . S
O27 Cd16 2.439 . S
O27 C21 1.208 . S
O28 Cd29 2.223 . S
O28 C36 1.315 1_655 S
Cd29 O28 2.223 . S
Cd29 O32 2.297 . S
Cd29 O33 2.439 . S
Cd29 O39 2.240 1_655 S
Cd30 O31 2.240 . S
Cd30 O38 2.223 . S
Cd30 O40 2.297 . S
Cd30 O41 2.439 . S
O31 Cd30 2.240 . S
O31 C36 1.279 . S
O32 Cd29 2.297 . S
O32 C34 1.247 . S
O33 Cd29 2.439 . S
O33 C34 1.208 . S
C34 O32 1.247 . S
C34 O33 1.208 . S
C35 O40 1.247 . S
C35 O41 1.208 . S
C36 O28 1.315 1_455 S
C36 O31 1.279 . S
C37 O38 1.315 . S
C37 O39 1.279 . S
O38 Cd30 2.223 . S
O38 C37 1.315 . S
O39 Cd29 2.240 1_455 S
O39 C37 1.279 . S
O40 Cd30 2.297 . S
O40 C35 1.247 . S
O41 Cd30 2.439 . S
O41 C35 1.208 . S
O42 Cd43 2.223 . S
O42 C50 1.315 1_565 S
Cd43 O42 2.223 . S
Cd43 O46 2.297 . S
Cd43 O47 2.439 . S
Cd43 O53 2.240 1_565 S
Cd44 O45 2.240 . S
Cd44 O52 2.223 . S
Cd44 O54 2.297 . S
Cd44 O55 2.439 . S
O45 Cd44 2.240 . S
O45 C50 1.279 . S
O46 Cd43 2.297 . S
O46 C48 1.247 . S
O47 Cd43 2.439 . S
O47 C48 1.208 . S
C48 O46 1.247 . S
C48 O47 1.208 . S
C49 O54 1.247 . S
C49 O55 1.208 . S
C50 O42 1.315 1_545 S
C50 O45 1.279 . S
C51 O52 1.315 . S
C51 O53 1.279 . S
O52 Cd44 2.223 . S
O52 C51 1.315 . S
O53 Cd43 2.240 1_545 S
O53 C51 1.279 . S
O54 Cd44 2.297 . S
O54 C49 1.247 . S
O55 Cd44 2.439 . S
O55 C49 1.208 . S
O56 Cd57 2.223 . S
O56 C64 1.315 . S
Cd57 O56 2.223 . S
Cd57 O60 2.297 . S
Cd57 O61 2.439 . S
Cd57 O67 2.240 . S
Cd58 O59 2.240 . S
Cd58 O66 2.223 . S
Cd58 O68 2.297 . S
Cd58 O69 2.439 . S
O59 Cd58 2.240 . S
O59 C64 1.279 . S
O60 Cd57 2.297 . S
O60 C62 1.247 . S
O61 Cd57 2.439 . S
O61 C62 1.208 . S
C62 O60 1.247 . S
C62 O61 1.208 . S
C63 O68 1.247 . S
C63 O69 1.208 . S
C64 O56 1.315 . S
C64 O59 1.279 . S
C65 O66 1.315 . S
C65 O67 1.279 . S
O66 Cd58 2.223 . S
O66 C65 1.315 . S
O67 Cd57 2.240 . S
O67 C65 1.279 . S
O68 Cd58 2.297 . S
O68 C63 1.247 . S
O69 Cd58 2.439 . S
O69 C63 1.208 . S
O70 Cd71 2.223 . S
O70 C78 1.315 . S
Cd71 O70 2.223 . S
Cd71 O74 2.297 . S
Cd71 O75 2.439 . S
Cd71 O81 2.240 1_556 S
Cd72 O73 2.240 1_655 S
Cd72 O80 2.223 . S
Cd72 O82 2.297 . S
Cd72 O83 2.439 . S
O73 Cd72 2.240 1_455 S
O73 C78 1.279 . S
O74 Cd71 2.297 . S
O74 C76 1.247 . S
O75 Cd71 2.439 . S
O75 C76 1.208 . S
C76 O74 1.247 . S
C76 O75 1.208 . S
C77 O82 1.247 . S
C77 O83 1.208 . S
C78 O70 1.315 . S
C78 O73 1.279 . S
C79 O80 1.315 1_454 S
C79 O81 1.279 . S
O80 Cd72 2.223 . S
O80 C79 1.315 1_656 S
O81 Cd71 2.240 1_554 S
O81 C79 1.279 . S
O82 Cd72 2.297 . S
O82 C77 1.247 . S
O83 Cd72 2.439 . S
O83 C77 1.208 . S
C84 C85 1.369 . S
C84 C86 1.419 . S
C84 H88 0.930 . S
C85 C84 1.369 . S
C85 C94 1.429 . S
C86 C84 1.419 . S
C86 C87 1.363 . S
C86 H89 0.929 . S
C87 C86 1.363 . S
C87 C93 1.428 . S
H88 C84 0.930 . S
H89 C86 0.929 . S
S90 N91 1.613 . S
S90 N92 1.610 . S
N91 S90 1.613 . S
N91 C94 1.350 . S
N92 S90 1.610 . S
N92 C93 1.351 . S
C93 C87 1.428 . S
C93 N92 1.351 . S
C93 C94 1.434 . S
C94 C85 1.429 . S
C94 N91 1.350 . S
C94 C93 1.434 . S
C95 C96 1.369 . S
C95 C97 1.419 . S
C95 H99 0.930 . S
C96 C95 1.369 . S
C96 C105 1.429 . S
C97 C95 1.419 . S
C97 C98 1.363 . S
C97 H100 0.929 . S
C98 C97 1.363 . S
C98 C104 1.428 . S
H99 C95 0.930 . S
H100 C97 0.929 . S
S101 N102 1.613 . S
S101 N103 1.610 . S
N102 S101 1.613 . S
N102 C105 1.350 . S
N103 S101 1.610 . S
N103 C104 1.351 . S
C104 C98 1.428 . S
C104 N103 1.351 . S
C104 C105 1.434 . S
C105 C96 1.429 . S
C105 N102 1.350 . S
C105 C104 1.434 . S
C106 C107 1.369 . S
C106 C108 1.419 . S
C106 H110 0.930 1_455 S
C107 C106 1.369 . S
C107 C116 1.429 . S
C108 C106 1.419 . S
C108 C109 1.363 . S
C108 H111 0.929 1_455 S
C109 C108 1.363 . S
C109 C115 1.428 . S
H110 C106 0.930 1_655 S
H111 C108 0.929 1_655 S
S112 N113 1.613 . S
S112 N114 1.610 . S
N113 S112 1.613 . S
N113 C116 1.350 . S
N114 S112 1.610 . S
N114 C115 1.351 . S
C115 C109 1.428 . S
C115 N114 1.351 . S
C115 C116 1.434 . S
C116 C107 1.429 . S
C116 N113 1.350 . S
C116 C115 1.434 . S
C117 C118 1.369 . S
C117 C119 1.419 . S
C117 H121 0.930 . S
C118 C117 1.369 . S
C118 C127 1.429 . S
C119 C117 1.419 . S
C119 C120 1.363 . S
C119 H122 0.929 . S
C120 C119 1.363 . S
C120 C126 1.428 . S
H121 C117 0.930 . S
H122 C119 0.929 . S
S123 N124 1.613 . S
S123 N125 1.610 . S
N124 S123 1.613 . S
N124 C127 1.350 . S
N125 S123 1.610 . S
N125 C126 1.351 . S
C126 C120 1.428 . S
C126 N125 1.351 . S
C126 C127 1.434 . S
C127 C118 1.429 . S
C127 N124 1.350 . S
C127 C126 1.434 . S
C128 C129 1.369 . S
C128 C130 1.419 1_554 S
C128 H132 0.930 . S
C129 C128 1.369 . S
C129 C138 1.429 1_554 S
C130 C128 1.419 1_556 S
C130 C131 1.363 . S
C130 H133 0.929 . S
C131 C130 1.363 . S
C131 C137 1.428 . S
H132 C128 0.930 . S
H133 C130 0.929 . S
S134 N135 1.613 . S
S134 N136 1.610 . S
N135 S134 1.613 . S
N135 C138 1.350 . S
N136 S134 1.610 . S
N136 C137 1.351 . S
C137 C131 1.428 . S
C137 N136 1.351 . S
C137 C138 1.434 . S
C138 C129 1.429 1_556 S
C138 N135 1.350 . S
C138 C137 1.434 . S
C139 C140 1.369 . S
C139 C141 1.419 . S
C139 H143 0.930 1_455 S
C140 C139 1.369 . S
C140 C149 1.429 . S
C141 C139 1.419 . S
C141 C142 1.363 . S
C141 H144 0.929 1_455 S
C142 C141 1.363 . S
C142 C148 1.428 . S
H143 C139 0.930 1_655 S
H144 C141 0.929 1_655 S
S145 N146 1.613 . S
S145 N147 1.610 . S
N146 S145 1.613 . S
N146 C149 1.350 . S
N147 S145 1.610 . S
N147 C148 1.351 . S
C148 C142 1.428 . S
C148 N147 1.351 . S
C148 C149 1.434 . S
C149 C140 1.429 . S
C149 N146 1.350 . S
C149 C148 1.434 . S
C150 C151 1.369 . S
C150 C152 1.419 . S
C150 H154 0.930 . S
C151 C150 1.369 . S
C151 C160 1.429 . S
C152 C150 1.419 . S
C152 C153 1.363 . S
C152 H155 0.929 . S
C153 C152 1.363 . S
C153 C159 1.428 . S
H154 C150 0.930 . S
H155 C152 0.929 . S
S156 N157 1.613 . S
S156 N158 1.610 . S
N157 S156 1.613 . S
N157 C160 1.350 . S
N158 S156 1.610 . S
N158 C159 1.351 . S
C159 C153 1.428 . S
C159 N158 1.351 . S
C159 C160 1.434 . S
C160 C151 1.429 . S
C160 N157 1.350 . S
C160 C159 1.434 . S
C161 C162 1.369 . S
C161 C163 1.419 . S
C161 H165 0.930 . S
C162 C161 1.369 . S
C162 C171 1.429 . S
C163 C161 1.419 . S
C163 C164 1.363 . S
C163 H166 0.929 . S
C164 C163 1.363 . S
C164 C170 1.428 . S
H165 C161 0.930 . S
H166 C163 0.929 . S
S167 N168 1.613 . S
S167 N169 1.610 . S
N168 S167 1.613 . S
N168 C171 1.350 . S
N169 S167 1.610 . S
N169 C170 1.351 . S
C170 C164 1.428 . S
C170 N169 1.351 . S
C170 C171 1.434 . S
C171 C162 1.429 . S
C171 N168 1.350 . S
C171 C170 1.434 . S
C172 C173 1.369 . S
C172 C174 1.419 . S
C172 H176 0.930 . S
C173 C172 1.369 . S
C173 C182 1.429 . S
C174 C172 1.419 . S
C174 C175 1.363 . S
C174 H177 0.929 . S
C175 C174 1.363 . S
C175 C181 1.428 . S
H176 C172 0.930 . S
H177 C174 0.929 . S
S178 N179 1.613 . S
S178 N180 1.610 . S
N179 S178 1.613 . S
N179 C182 1.350 . S
N180 S178 1.610 . S
N180 C181 1.351 . S
C181 C175 1.428 . S
C181 N180 1.351 . S
C181 C182 1.434 . S
C182 C173 1.429 . S
C182 N179 1.350 . S
C182 C181 1.434 . S
C183 C184 1.369 . S
C183 C185 1.419 . S
C183 H187 0.930 . S
C184 C183 1.369 . S
C184 C193 1.429 . S
C185 C183 1.419 . S
C185 C186 1.363 . S
C185 H188 0.929 . S
C186 C185 1.363 . S
C186 C192 1.428 . S
H187 C183 0.930 . S
H188 C185 0.929 . S
S189 N190 1.613 . S
S189 N191 1.610 . S
N190 S189 1.613 . S
N190 C193 1.350 . S
N191 S189 1.610 . S
N191 C192 1.351 . S
C192 C186 1.428 . S
C192 N191 1.351 . S
C192 C193 1.434 . S
C193 C184 1.429 . S
C193 N190 1.350 . S
C193 C192 1.434 . S
C194 C195 1.369 . S
C194 C196 1.419 . S
C194 H198 0.930 . S
C195 C194 1.369 . S
C195 C204 1.429 . S
C196 C194 1.419 . S
C196 C197 1.363 . S
C196 H199 0.929 . S
C197 C196 1.363 . S
C197 C203 1.428 . S
H198 C194 0.930 . S
H199 C196 0.929 . S
S200 N201 1.613 . S
S200 N202 1.610 . S
N201 S200 1.613 . S
N201 C204 1.350 . S
N202 S200 1.610 . S
N202 C203 1.351 . S
C203 C197 1.428 . S
C203 N202 1.351 . S
C203 C204 1.434 . S
C204 C195 1.429 . S
C204 N201 1.350 . S
C204 C203 1.434 . S
C205 C206 1.369 1_554 S
C205 C207 1.419 . S
C205 H209 0.930 . S
C206 C205 1.369 1_556 S
C206 C215 1.429 . S
C207 C205 1.419 . S
C207 C208 1.363 1_554 S
C207 H210 0.929 . S
C208 C207 1.363 1_556 S
C208 C214 1.428 . S
H209 C205 0.930 . S
H210 C207 0.929 . S
S211 N212 1.613 . S
S211 N213 1.610 . S
N212 S211 1.613 . S
N212 C215 1.350 . S
N213 S211 1.610 . S
N213 C214 1.351 . S
C214 C208 1.428 . S
C214 N213 1.351 . S
C214 C215 1.434 . S
C215 C206 1.429 . S
C215 N212 1.350 . S
C215 C214 1.434 . S
C85 C9 1.762 . S
C87 C50 1.761 . S
C96 C23 1.760 . S
C98 C64 1.760 . S
C107 C78 1.760 . S
C109 C37 1.760 . S
C118 C8 1.760 . S
C120 C51 1.761 . S
C129 C22 1.759 . S
C131 C65 1.760 . S
C140 C79 1.760 . S
C142 C36 1.761 . S
C151 C20 1.461 . S
C153 C7 1.460 . S
C162 C34 1.462 . S
C164 C21 1.458 . S
C173 C35 1.459 . S
C175 C48 1.453 . S
C184 C62 1.462 . S
C186 C49 1.454 . S
C195 C76 1.459 . S
C197 C63 1.453 . S
C206 C77 1.454 . S
C208 C6 1.454 1_556 S
