# Generated by pormake.
# Topology uog, (4)-cn, num edge types: 1
# Building blocks:
#     Node 0, Type 0, BuildingBlock: CEKHIL_clean_sbu_0, # of connection points: 4
#     Node 1, Type 0, BuildingBlock: CEKHIL_clean_sbu_0, # of connection points: 4
#     Node 2, Type 0, BuildingBlock: CEKHIL_clean_sbu_0, # of connection points: 4
#     Node 3, Type 0, BuildingBlock: CEKHIL_clean_sbu_0, # of connection points: 4
#     Node 4, Type 0, BuildingBlock: CEKHIL_clean_sbu_0, # of connection points: 4
#     Node 5, Type 0, BuildingBlock: CEKHIL_clean_sbu_0, # of connection points: 4
#     Edge 6, Type (0, 0), BuildingBlock: EYOCIG_clean_linker_4, # of connection points: 2
#     Edge 7, Type (0, 0), BuildingBlock: EYOCIG_clean_linker_4, # of connection points: 2
#     Edge 8, Type (0, 0), BuildingBlock: EYOCIG_clean_linker_4, # of connection points: 2
#     Edge 9, Type (0, 0), BuildingBlock: EYOCIG_clean_linker_4, # of connection points: 2
#     Edge 10, Type (0, 0), BuildingBlock: EYOCIG_clean_linker_4, # of connection points: 2
#     Edge 11, Type (0, 0), BuildingBlock: EYOCIG_clean_linker_4, # of connection points: 2
#     Edge 12, Type (0, 0), BuildingBlock: EYOCIG_clean_linker_4, # of connection points: 2
#     Edge 13, Type (0, 0), BuildingBlock: EYOCIG_clean_linker_4, # of connection points: 2
#     Edge 14, Type (0, 0), BuildingBlock: EYOCIG_clean_linker_4, # of connection points: 2
#     Edge 15, Type (0, 0), BuildingBlock: EYOCIG_clean_linker_4, # of connection points: 2
#     Edge 16, Type (0, 0), BuildingBlock: EYOCIG_clean_linker_4, # of connection points: 2
#     Edge 17, Type (0, 0), BuildingBlock: EYOCIG_clean_linker_4, # of connection points: 2
# Relax obj value: 0.070
# Max RMSD: 0.167
# Mean RMSD: 0.167
data_MOF--net-uog--node1-CEKHIL_clean_sbu_0--edge1-EYOCIG_clean_linker_4
_symmetry_space_group_name_H-M    P1
_symmetry_Int_Tables_number       1
_symmetry_cell_setting            triclinic
loop_
_symmetry_equiv_pos_as_xyz
'x, y, z'
_cell_length_a     22.504766
_cell_length_b     22.50141
_cell_length_c     33.172421
_cell_angle_alpha  89.99094
_cell_angle_beta   90.030702
_cell_angle_gamma 119.98342
loop_
_atom_site_label
_atom_site_type_symbol
_atom_site_fract_x
_atom_site_fract_y
_atom_site_fract_z
_atom_type_partial_charge
Co0 Co 0.59588 0.28033 0.1625 0.0
O1 O 0.61264 0.20483 0.15834 0.0
O2 O 0.51496 0.19953 0.14125 0.0
C3 C 0.63777 0.30978 0.22535 0.0
O4 O 0.56189 0.34996 0.16446 0.0
Co5 Co 0.72095 0.4256 0.16947 0.0
O6 O 0.65201 0.45348 0.18039 0.0
C7 C 0.68243 0.36087 0.08989 0.0
C8 C 0.55085 0.16887 0.1448 0.0
C9 C 0.58845 0.41421 0.17345 0.0
O10 O 0.63041 0.30951 0.10599 0.0
O11 O 0.72806 0.41173 0.11001 0.0
O12 O 0.5751 0.26168 0.21927 0.0
O13 O 0.67579 0.33459 0.19353 0.0
Co14 Co 0.3213 0.59331 0.49577 0.0
O15 O 0.41355 0.6101 0.49163 0.0
O16 O 0.32124 0.51237 0.47458 0.0
C17 C 0.33372 0.63525 0.5586 0.0
O18 O 0.21769 0.55929 0.49773 0.0
Co19 Co 0.30102 0.71839 0.50265 0.0
O20 O 0.20425 0.64942 0.51359 0.0
C21 C 0.3272 0.67979 0.42311 0.0
C22 C 0.38776 0.5483 0.47812 0.0
C23 C 0.18 0.58586 0.50669 0.0
O24 O 0.32659 0.62779 0.43924 0.0
O25 O 0.32195 0.72543 0.44319 0.0
O26 O 0.31921 0.57258 0.55256 0.0
O27 O 0.3469 0.67325 0.52676 0.0
Co28 Co 0.73391 0.31875 0.82921 0.0
O29 O 0.80937 0.411 0.82508 0.0
O30 O 0.81475 0.31866 0.80801 0.0
C31 C 0.70441 0.33112 0.89204 0.0
O32 O 0.66431 0.21513 0.83114 0.0
Co33 Co 0.58864 0.29858 0.83608 0.0
O34 O 0.56078 0.20175 0.84698 0.0
C35 C 0.6534 0.32482 0.75654 0.0
C36 C 0.84536 0.3852 0.81156 0.0
C37 C 0.60006 0.17746 0.84008 0.0
O38 O 0.70475 0.32414 0.77268 0.0
O39 O 0.60252 0.31959 0.77662 0.0
O40 O 0.75253 0.31656 0.88599 0.0
O41 O 0.67961 0.34436 0.8602 0.0
Co42 Co 0.42084 0.73096 0.16246 0.0
O43 O 0.40413 0.80649 0.15829 0.0
O44 O 0.5018 0.81176 0.14128 0.0
C45 C 0.37891 0.70147 0.22527 0.0
O46 O 0.4548 0.6613 0.16444 0.0
Co47 Co 0.29574 0.58571 0.16932 0.0
O48 O 0.36465 0.55777 0.18028 0.0
C49 C 0.33434 0.6505 0.08978 0.0
C50 C 0.46593 0.84244 0.1448 0.0
C51 C 0.42821 0.59704 0.1734 0.0
O52 O 0.38635 0.70184 0.10592 0.0
O53 O 0.28868 0.59963 0.10985 0.0
O54 O 0.44159 0.74956 0.21925 0.0
O55 O 0.34091 0.6767 0.19342 0.0
Co56 Co 0.69577 0.41838 0.49583 0.0
O57 O 0.60355 0.40167 0.49168 0.0
O58 O 0.69588 0.49932 0.47459 0.0
C59 C 0.68342 0.37654 0.55868 0.0
O60 O 0.79937 0.45232 0.49779 0.0
Co61 Co 0.71593 0.29324 0.5028 0.0
O62 O 0.81276 0.36216 0.5137 0.0
C63 C 0.68963 0.33172 0.42322 0.0
C64 C 0.62935 0.46345 0.47814 0.0
C65 C 0.83704 0.42572 0.50676 0.0
O66 O 0.69033 0.38378 0.43932 0.0
O67 O 0.69488 0.28609 0.44334 0.0
O68 O 0.698 0.43922 0.55261 0.0
O69 O 0.67015 0.33848 0.52686 0.0
Co70 Co 0.28318 0.69319 0.82909 0.0
O71 O 0.2077 0.60097 0.82495 0.0
O72 O 0.20234 0.69333 0.80789 0.0
C73 C 0.31272 0.68077 0.89193 0.0
O74 O 0.35282 0.79681 0.83105 0.0
Co75 Co 0.42844 0.71331 0.83601 0.0
O76 O 0.45635 0.81014 0.84694 0.0
C77 C 0.36361 0.6871 0.75645 0.0
C78 C 0.1717 0.62679 0.81144 0.0
C79 C 0.41708 0.83445 0.84002 0.0
O80 O 0.31228 0.68779 0.77257 0.0
O81 O 0.41449 0.69231 0.77655 0.0
O82 O 0.26463 0.69538 0.88588 0.0
O83 O 0.33748 0.66752 0.8601 0.0
C84 C 0.51297 0.0392 0.13162 0.0
C85 C 0.52418 0.0972 0.13631 0.0
C86 C 0.50383 0.97211 0.13162 0.0
C87 C 0.49261 0.91411 0.13631 0.0
C88 C 0.4796 0.51046 0.46497 0.0
C89 C 0.43279 0.52166 0.46965 0.0
C90 C 0.53756 0.50135 0.46497 0.0
C91 C 0.58436 0.49014 0.46965 0.0
C92 C 0.97497 0.47703 0.79837 0.0
C93 C 0.917 0.43022 0.80307 0.0
C94 C 0.04203 0.535 0.79834 0.0
C95 C 0.10002 0.5818 0.80299 0.0
C96 C 0.04447 0.51864 0.50749 0.0
C97 C 0.10624 0.54429 0.50645 0.0
C98 C 0.97258 0.49287 0.5075 0.0
C99 C 0.9108 0.46724 0.50649 0.0
C100 C 0.4855 0.97001 0.8408 0.0
C101 C 0.44933 0.90824 0.83977 0.0
C102 C 0.53167 0.0419 0.84081 0.0
C103 C 0.56783 0.10368 0.8398 0.0
C104 C 0.49541 0.52866 0.1742 0.0
C105 C 0.46975 0.56479 0.17317 0.0
C106 C 0.52122 0.48255 0.17421 0.0
C107 C 0.5469 0.44643 0.17318 0.0
C108 C 0.68486 0.34988 0.96804 0.0
C109 C 0.68936 0.34277 0.93234 0.0
C110 C 0.6862 0.35751 0.01039 0.0
C111 C 0.68701 0.36166 0.04668 0.0
C112 C 0.34056 0.68203 0.30126 0.0
C113 C 0.35218 0.68648 0.26556 0.0
C114 C 0.33428 0.68344 0.34361 0.0
C115 C 0.33096 0.68431 0.37989 0.0
C116 C 0.65683 0.33197 0.67704 0.0
C117 C 0.65264 0.32862 0.71332 0.0
C118 C 0.66453 0.33825 0.6347 0.0
C119 C 0.6717 0.34986 0.59899 0.0
C120 C 0.33212 0.66175 0.96793 0.0
C121 C 0.32769 0.66897 0.93223 0.0
C122 C 0.33068 0.654 0.01027 0.0
C123 C 0.3298 0.64977 0.04656 0.0
C124 C 0.68242 0.32792 0.34372 0.0
C125 C 0.6858 0.32712 0.38001 0.0
C126 C 0.67609 0.32927 0.30137 0.0
C127 C 0.66447 0.32479 0.26566 0.0
C128 C 0.36016 0.67993 0.67695 0.0
C129 C 0.36434 0.68329 0.71324 0.0
C130 C 0.35251 0.67362 0.6346 0.0
C131 C 0.34538 0.66199 0.5989 0.0
loop_
_geom_bond_atom_site_label_1
_geom_bond_atom_site_label_2
_geom_bond_distance
_geom_bond_site_symmetry_2
_ccdc_geom_bond_type
Co0 O1 2.216 . S
Co0 O2 2.091 . S
Co0 O4 2.004 . S
Co0 O10 2.021 . S
Co0 O12 2.137 . S
Co0 O13 2.244 . S
O1 Co0 2.216 . S
O1 C8 1.247 . S
O2 Co0 2.091 . S
O2 C8 1.261 . S
C3 O12 1.247 . S
C3 O13 1.272 . S
O4 Co0 2.004 . S
O4 C9 1.259 . S
Co5 O6 2.061 . S
Co5 O11 2.052 . S
Co5 O13 2.135 . S
O6 Co5 2.061 . S
O6 C9 1.235 . S
C7 O10 1.238 . S
C7 O11 1.241 . S
C8 O1 1.247 . S
C8 O2 1.261 . S
C9 O4 1.259 . S
C9 O6 1.235 . S
O10 Co0 2.021 . S
O10 C7 1.238 . S
O11 Co5 2.052 . S
O11 C7 1.241 . S
O12 Co0 2.137 . S
O12 C3 1.247 . S
O13 Co0 2.244 . S
O13 C3 1.272 . S
O13 Co5 2.135 . S
Co14 O15 2.216 . S
Co14 O16 2.091 . S
Co14 O18 2.004 . S
Co14 O24 2.021 . S
Co14 O26 2.137 . S
Co14 O27 2.244 . S
O15 Co14 2.216 . S
O15 C22 1.247 . S
O16 Co14 2.091 . S
O16 C22 1.261 . S
C17 O26 1.247 . S
C17 O27 1.272 . S
O18 Co14 2.004 . S
O18 C23 1.259 . S
Co19 O20 2.061 . S
Co19 O25 2.052 . S
Co19 O27 2.135 . S
O20 Co19 2.061 . S
O20 C23 1.235 . S
C21 O24 1.238 . S
C21 O25 1.241 . S
C22 O15 1.247 . S
C22 O16 1.261 . S
C23 O18 1.259 . S
C23 O20 1.235 . S
O24 Co14 2.021 . S
O24 C21 1.238 . S
O25 Co19 2.052 . S
O25 C21 1.241 . S
O26 Co14 2.137 . S
O26 C17 1.247 . S
O27 Co14 2.244 . S
O27 C17 1.272 . S
O27 Co19 2.135 . S
Co28 O29 2.216 . S
Co28 O30 2.091 . S
Co28 O32 2.004 . S
Co28 O38 2.021 . S
Co28 O40 2.137 . S
Co28 O41 2.244 . S
O29 Co28 2.216 . S
O29 C36 1.247 . S
O30 Co28 2.091 . S
O30 C36 1.261 . S
C31 O40 1.247 . S
C31 O41 1.272 . S
O32 Co28 2.004 . S
O32 C37 1.259 . S
Co33 O34 2.061 . S
Co33 O39 2.052 . S
Co33 O41 2.135 . S
O34 Co33 2.061 . S
O34 C37 1.235 . S
C35 O38 1.238 . S
C35 O39 1.241 . S
C36 O29 1.247 . S
C36 O30 1.261 . S
C37 O32 1.259 . S
C37 O34 1.235 . S
O38 Co28 2.021 . S
O38 C35 1.238 . S
O39 Co33 2.052 . S
O39 C35 1.241 . S
O40 Co28 2.137 . S
O40 C31 1.247 . S
O41 Co28 2.244 . S
O41 C31 1.272 . S
O41 Co33 2.135 . S
Co42 O43 2.216 . S
Co42 O44 2.091 . S
Co42 O46 2.004 . S
Co42 O52 2.021 . S
Co42 O54 2.137 . S
Co42 O55 2.244 . S
O43 Co42 2.216 . S
O43 C50 1.247 . S
O44 Co42 2.091 . S
O44 C50 1.261 . S
C45 O54 1.247 . S
C45 O55 1.272 . S
O46 Co42 2.004 . S
O46 C51 1.259 . S
Co47 O48 2.061 . S
Co47 O53 2.052 . S
Co47 O55 2.135 . S
O48 Co47 2.061 . S
O48 C51 1.235 . S
C49 O52 1.238 . S
C49 O53 1.241 . S
C50 O43 1.247 . S
C50 O44 1.261 . S
C51 O46 1.259 . S
C51 O48 1.235 . S
O52 Co42 2.021 . S
O52 C49 1.238 . S
O53 Co47 2.052 . S
O53 C49 1.241 . S
O54 Co42 2.137 . S
O54 C45 1.247 . S
O55 Co42 2.244 . S
O55 C45 1.272 . S
O55 Co47 2.135 . S
Co56 O57 2.216 . S
Co56 O58 2.091 . S
Co56 O60 2.004 . S
Co56 O66 2.021 . S
Co56 O68 2.137 . S
Co56 O69 2.244 . S
O57 Co56 2.216 . S
O57 C64 1.247 . S
O58 Co56 2.091 . S
O58 C64 1.261 . S
C59 O68 1.247 . S
C59 O69 1.272 . S
O60 Co56 2.004 . S
O60 C65 1.259 . S
Co61 O62 2.061 . S
Co61 O67 2.052 . S
Co61 O69 2.135 . S
O62 Co61 2.061 . S
O62 C65 1.235 . S
C63 O66 1.238 . S
C63 O67 1.241 . S
C64 O57 1.247 . S
C64 O58 1.261 . S
C65 O60 1.259 . S
C65 O62 1.235 . S
O66 Co56 2.021 . S
O66 C63 1.238 . S
O67 Co61 2.052 . S
O67 C63 1.241 . S
O68 Co56 2.137 . S
O68 C59 1.247 . S
O69 Co56 2.244 . S
O69 C59 1.272 . S
O69 Co61 2.135 . S
Co70 O71 2.216 . S
Co70 O72 2.091 . S
Co70 O74 2.004 . S
Co70 O80 2.021 . S
Co70 O82 2.137 . S
Co70 O83 2.244 . S
O71 Co70 2.216 . S
O71 C78 1.247 . S
O72 Co70 2.091 . S
O72 C78 1.261 . S
C73 O82 1.247 . S
C73 O83 1.272 . S
O74 Co70 2.004 . S
O74 C79 1.259 . S
Co75 O76 2.061 . S
Co75 O81 2.052 . S
Co75 O83 2.135 . S
O76 Co75 2.061 . S
O76 C79 1.235 . S
C77 O80 1.238 . S
C77 O81 1.241 . S
C78 O71 1.247 . S
C78 O72 1.261 . S
C79 O74 1.259 . S
C79 O76 1.235 . S
O80 Co70 2.021 . S
O80 C77 1.238 . S
O81 Co75 2.052 . S
O81 C77 1.241 . S
O82 Co70 2.137 . S
O82 C73 1.247 . S
O83 Co70 2.244 . S
O83 C73 1.272 . S
O83 Co75 2.135 . S
C84 C85 1.170 . S
C84 C86 1.380 1_545 S
C85 C84 1.170 . S
C86 C84 1.380 1_565 S
C86 C87 1.170 . S
C87 C86 1.170 . S
C88 C89 1.170 . S
C88 C90 1.380 . S
C89 C88 1.170 . S
C90 C88 1.380 . S
C90 C91 1.170 . S
C91 C90 1.170 . S
C92 C93 1.170 . S
C92 C94 1.380 1_655 S
C93 C92 1.170 . S
C94 C92 1.380 1_455 S
C94 C95 1.170 . S
C95 C94 1.170 . S
C96 C97 1.170 . S
C96 C98 1.380 1_455 S
C97 C96 1.170 . S
C98 C96 1.380 1_655 S
C98 C99 1.170 . S
C99 C98 1.170 . S
C100 C101 1.170 . S
C100 C102 1.380 1_565 S
C101 C100 1.170 . S
C102 C100 1.380 1_545 S
C102 C103 1.170 . S
C103 C102 1.170 . S
C104 C105 1.170 . S
C104 C106 1.380 . S
C105 C104 1.170 . S
C106 C104 1.380 . S
C106 C107 1.170 . S
C107 C106 1.170 . S
C108 C109 1.170 . S
C108 C110 1.380 1_556 S
C109 C108 1.170 . S
C110 C108 1.380 1_554 S
C110 C111 1.170 . S
C111 C110 1.170 . S
C112 C113 1.170 . S
C112 C114 1.380 . S
C113 C112 1.170 . S
C114 C112 1.380 . S
C114 C115 1.170 . S
C115 C114 1.170 . S
C116 C117 1.170 . S
C116 C118 1.380 . S
C117 C116 1.170 . S
C118 C116 1.380 . S
C118 C119 1.170 . S
C119 C118 1.170 . S
C120 C121 1.170 . S
C120 C122 1.380 1_556 S
C121 C120 1.170 . S
C122 C120 1.380 1_554 S
C122 C123 1.170 . S
C123 C122 1.170 . S
C124 C125 1.170 . S
C124 C126 1.380 . S
C125 C124 1.170 . S
C126 C124 1.380 . S
C126 C127 1.170 . S
C127 C126 1.170 . S
C128 C129 1.170 . S
C128 C130 1.380 . S
C129 C128 1.170 . S
C130 C128 1.380 . S
C130 C131 1.170 . S
C131 C130 1.170 . S
C85 C8 1.433 . S
C87 C50 1.432 . S
C89 C22 1.429 . S
C91 C64 1.435 . S
C93 C36 1.430 . S
C95 C78 1.432 . S
C97 C23 1.487 . S
C99 C65 1.463 . S
C101 C79 1.476 . S
C103 C37 1.465 . S
C105 C51 1.476 . S
C107 C9 1.489 . S
C109 C31 1.352 . S
C111 C7 1.361 . S
C113 C45 1.366 . S
C115 C21 1.359 . S
C117 C35 1.370 . S
C119 C59 1.336 . S
C121 C73 1.351 . S
C123 C49 1.361 . S
C125 C63 1.389 . S
C127 C3 1.316 . S
C129 C77 1.361 . S
C131 C17 1.351 . S
