# Generated by pormake.
# Topology pcu, (6)-cn, num edge types: 1
# Building blocks:
#     Node 0, Type 0, BuildingBlock: UKALOJ_clean_sbu_0, # of connection points: 6
#     Edge 1, Type (0, 0), BuildingBlock: FUNLAD_clean_linker_0, # of connection points: 2
#     Edge 2, Type (0, 0), BuildingBlock: FUNLAD_clean_linker_0, # of connection points: 2
#     Edge 3, Type (0, 0), BuildingBlock: FUNLAD_clean_linker_0, # of connection points: 2
# Relax obj value: 0.010
# Max RMSD: 0.054
# Mean RMSD: 0.054
data_MOF--net-pcu--node1-UKALOJ_clean_sbu_0--edge1-FUNLAD_clean_linker_0
_symmetry_space_group_name_H-M    P1
_symmetry_Int_Tables_number       1
_symmetry_cell_setting            triclinic
loop_
_symmetry_equiv_pos_as_xyz
'x, y, z'
_cell_length_a     17.852649
_cell_length_b     17.942393
_cell_length_c     22.801886
_cell_angle_alpha  98.001484
_cell_angle_beta   82.380551
_cell_angle_gamma 95.381211
loop_
_atom_site_label
_atom_site_type_symbol
_atom_site_fract_x
_atom_site_fract_y
_atom_site_fract_z
_atom_type_partial_charge
Zn0 Zn 0.9697 -0.01563 0.06166 0.0
O1 O 0.96826 0.86548 0.05761 0.0
C2 C 0.1341 -0.00745 0.02043 0.0
Zn3 Zn -0.00833 0.97474 0.96248 0.0
C4 C 0.97953 0.8249 1.00737 0.0
O5 O -0.00948 0.85631 0.95998 0.0
C6 C 0.98184 0.1342 0.01677 0.0
O7 O 0.87381 0.96413 0.95633 0.0
O8 O 0.85237 0.97432 0.05399 0.0
N9 N 0.01628 0.96276 0.8716 0.0
C10 C 0.98234 -0.01557 0.82798 0.0
C11 C 0.07801 0.92621 0.7861 0.0
N12 N 0.07571 0.92669 0.84542 0.0
N13 N 0.0198 0.96172 0.77388 0.0
C14 C 0.97903 0.97467 0.19616 0.0
C15 C 0.88337 0.03289 0.23804 0.0
N16 N 0.94509 -0.00365 0.15255 0.0
N17 N 0.88567 0.03242 0.17873 0.0
N18 N 0.94158 -0.00262 0.25027 0.0
H19 H 0.04911 0.8936 0.14115 0.0
H20 H 0.04326 0.89012 0.22045 0.0
H21 H 0.09859 0.96593 0.18721 0.0
C22 C 0.04604 0.92794 0.18551 0.0
C23 C 0.91534 0.03116 0.83864 0.0
H24 H 0.91226 0.0655 0.88299 0.0
H25 H 0.86278 -0.00683 0.83694 0.0
H26 H 0.91812 0.06898 0.80369 0.0
O27 O -0.00689 0.09362 0.96654 0.0
O28 O 0.97086 0.10279 0.06416 0.0
C29 C 0.82727 0.96655 1.00371 0.0
O30 O 0.08756 -0.00503 0.06781 0.0
O31 O 0.109 -0.01522 0.97016 0.0
C32 C 0.89861 0.97102 0.35289 0.0
C33 C 0.95788 -0.01135 0.30893 0.0
C34 C 0.91318 0.96567 0.41083 0.0
C35 C -0.01245 0.97909 0.42622 0.0
C36 C 0.04682 -0.00395 0.38194 0.0
C37 C 0.03212 0.00143 0.32404 0.0
C38 C 0.00594 0.9747 0.48735 0.0
C39 C 0.95543 -0.01562 0.5368 0.0
C40 C 0.97382 0.97999 0.59792 0.0
C41 C 0.91455 0.96304 0.6422 0.0
C42 C 0.92925 0.95766 0.70011 0.0
C43 C 0.00349 0.97044 0.71522 0.0
H44 H 0.09528 0.00903 0.58127 0.0
C45 C 0.06276 -0.01193 0.67125 0.0
C46 C 0.04819 -0.00658 0.61332 0.0
H47 H 0.12044 -0.00175 0.682 0.0
H48 H 0.84093 0.96084 0.34215 0.0
H49 H 0.86609 0.95006 0.44287 0.0
H50 H 0.10462 0.00661 0.39246 0.0
H51 H 0.07855 0.01747 0.29158 0.0
H52 H 0.06383 0.96421 0.49128 0.0
H53 H 0.89755 -0.00513 0.53286 0.0
H54 H 0.85675 0.95248 0.63169 0.0
H55 H 0.88283 0.94162 0.73256 0.0
C56 C 0.26752 -0.01203 0.97074 0.0
C57 C 0.21663 -0.0037 0.0234 0.0
C58 C 0.34529 -0.01151 0.97326 0.0
C59 C 0.37388 -0.00308 0.02864 0.0
C60 C 0.3232 0.00733 0.08117 0.0
C61 C 0.24537 0.00671 0.07866 0.0
C62 C 0.45603 -0.00318 0.03348 0.0
C63 C 0.50535 0.9623 0.99067 0.0
C64 C 0.58749 0.96219 0.99551 0.0
C65 C 0.63818 0.95177 0.94297 0.0
C66 C 0.71601 0.95239 0.94548 0.0
C67 C 0.74474 0.9628 1.00075 0.0
H68 H 0.57885 0.97592 0.09247 0.0
C69 C 0.69385 0.97114 0.0534 0.0
C70 C 0.61608 0.97063 0.05088 0.0
H71 H 0.71404 0.97848 0.09675 0.0
H72 H 0.24733 0.98063 0.9274 0.0
H73 H 0.38252 -0.0168 0.93168 0.0
H74 H 0.34376 0.01493 0.12441 0.0
H75 H 0.20781 0.01403 0.12005 0.0
H76 H 0.47571 0.02533 0.07443 0.0
H77 H 0.48567 0.93379 0.94971 0.0
H78 H 0.61762 0.94418 0.89974 0.0
H79 H 0.75356 0.94508 0.9041 0.0
C80 C 0.97336 0.7071 0.0561 0.0
C81 C 0.9816 0.7421 1.00393 0.0
C82 C 0.97726 0.62911 0.05273 0.0
C83 C -0.011 0.58426 0.99693 0.0
C84 C -0.00233 0.6195 0.94495 0.0
C85 C -0.00624 0.6974 0.94831 0.0
C86 C -0.00487 0.5013 0.99081 0.0
C87 C 0.96624 0.4578 0.03333 0.0
C88 C 0.97237 0.37484 0.02721 0.0
C89 C 0.9637 0.3396 0.0792 0.0
C90 C 0.96761 0.26171 0.07583 0.0
C91 C 0.97977 0.217 0.02021 0.0
H92 H -0.01137 0.35416 0.93011 0.0
C93 C -0.01199 0.252 0.96805 0.0
C94 C -0.01589 0.32999 0.97142 0.0
H95 H -0.00343 0.21905 0.92446 0.0
H96 H 0.9648 0.74006 0.09968 0.0
H97 H 0.97275 0.60494 0.09403 0.0
H98 H 0.00735 0.5866 0.90141 0.0
H99 H 0.00071 0.72254 0.90722 0.0
H100 H 0.02408 0.4756 0.9491 0.0
H101 H 0.93729 0.4835 0.07505 0.0
H102 H 0.95402 0.37251 0.12273 0.0
H103 H 0.96066 0.23656 0.11693 0.0
loop_
_geom_bond_atom_site_label_1
_geom_bond_atom_site_label_2
_geom_bond_distance
_geom_bond_site_symmetry_2
_ccdc_geom_bond_type
Zn0 O1 2.055 . S
Zn0 O8 2.046 . S
Zn0 N16 2.036 1_565 S
Zn0 O28 2.053 1_565 S
Zn0 O30 2.066 1_665 S
O1 Zn0 2.055 . S
O1 C4 1.259 1_554 S
C2 O30 1.256 1_565 S
C2 O31 1.244 1_554 S
Zn3 O5 2.046 . S
Zn3 O7 2.055 . S
Zn3 N9 2.036 1_655 S
Zn3 O27 2.066 1_665 S
Zn3 O31 2.053 1_655 S
C4 O1 1.259 1_556 S
C4 O5 1.254 . S
O5 Zn3 2.046 . S
O5 C4 1.254 . S
C6 O27 1.256 1_655 S
C6 O28 1.244 1_556 S
O7 Zn3 2.055 . S
O7 C29 1.259 1_556 S
O8 Zn0 2.046 . S
O8 C29 1.254 . S
N9 Zn3 2.036 1_455 S
N9 C10 1.298 1_465 S
N9 N12 1.398 . S
C10 N9 1.298 1_645 S
C10 N13 1.367 1_655 S
C10 C23 1.481 . S
C11 N12 1.299 . S
C11 N13 1.379 1_565 S
N12 N9 1.398 . S
N12 C11 1.299 . S
N13 C10 1.367 1_455 S
N13 C11 1.379 1_545 S
C14 N16 1.298 1_465 S
C14 N18 1.367 1_565 S
C14 C22 1.481 . S
C15 N17 1.299 . S
C15 N18 1.379 1_655 S
N16 Zn0 2.036 1_545 S
N16 C14 1.298 1_645 S
N16 N17 1.398 . S
N17 C15 1.299 . S
N17 N16 1.398 . S
N18 C14 1.367 1_545 S
N18 C15 1.379 1_455 S
H19 C22 0.980 . S
H20 C22 0.981 . S
H21 C22 0.981 . S
C22 C14 1.481 . S
C22 H19 0.980 . S
C22 H20 0.981 . S
C22 H21 0.981 . S
C23 C10 1.481 . S
C23 H24 0.980 . S
C23 H25 0.981 . S
C23 H26 0.981 . S
H24 C23 0.980 . S
H25 C23 0.981 . S
H26 C23 0.981 . S
O27 Zn3 2.066 1_445 S
O27 C6 1.256 1_455 S
O28 Zn0 2.053 1_545 S
O28 C6 1.244 1_554 S
C29 O7 1.259 1_554 S
C29 O8 1.254 . S
O30 Zn0 2.066 1_445 S
O30 C2 1.256 1_545 S
O31 C2 1.244 1_556 S
O31 Zn3 2.053 1_455 S
C32 C33 1.386 1_665 S
C32 C34 1.383 . S
C32 H48 0.951 . S
C33 C32 1.386 1_445 S
C33 C37 1.383 . S
C34 C32 1.383 . S
C34 C35 1.402 1_665 S
C34 H49 0.951 . S
C35 C34 1.402 1_445 S
C35 C36 1.375 . S
C35 C38 1.481 . S
C36 C35 1.375 . S
C36 C37 1.367 . S
C36 H50 0.951 . S
C37 C33 1.383 . S
C37 C36 1.367 . S
C37 H51 0.950 . S
C38 C35 1.481 . S
C38 C39 1.297 1_545 S
C38 H52 0.950 . S
C39 C38 1.297 1_565 S
C39 C40 1.479 . S
C39 H53 0.950 1_455 S
C40 C39 1.479 . S
C40 C41 1.375 1_455 S
C40 C46 1.404 1_565 S
C41 C40 1.375 1_655 S
C41 C42 1.369 . S
C41 H54 0.950 . S
C42 C41 1.369 . S
C42 C43 1.392 1_665 S
C42 H55 0.951 . S
C43 C42 1.392 1_445 S
C43 C45 1.384 . S
H44 C46 0.949 . S
C45 C43 1.384 . S
C45 C46 1.385 . S
C45 H47 0.950 . S
C46 C40 1.404 1_545 S
C46 H44 0.949 . S
C46 C45 1.385 . S
H47 C45 0.950 . S
H48 C32 0.951 . S
H49 C34 0.951 . S
H50 C36 0.951 . S
H51 C37 0.950 . S
H52 C38 0.950 . S
H53 C39 0.950 1_655 S
H54 C41 0.950 . S
H55 C42 0.951 . S
C56 C57 1.386 1_556 S
C56 C58 1.383 1_565 S
C56 H72 0.951 . S
C57 C56 1.386 1_554 S
C57 C61 1.383 1_565 S
C58 C56 1.383 1_545 S
C58 C59 1.402 1_556 S
C58 H73 0.950 1_545 S
C59 C58 1.402 1_554 S
C59 C60 1.375 . S
C59 C62 1.481 . S
C60 C59 1.375 . S
C60 C61 1.367 . S
C60 H74 0.951 . S
C61 C57 1.383 1_545 S
C61 C60 1.367 . S
C61 H75 0.950 . S
C62 C59 1.481 . S
C62 C63 1.297 1_554 S
C62 H76 0.950 . S
C63 C62 1.297 1_556 S
C63 C64 1.479 . S
C63 H77 0.950 . S
C64 C63 1.479 . S
C64 C65 1.375 . S
C64 C70 1.404 1_556 S
C65 C64 1.375 . S
C65 C66 1.369 1_545 S
C65 H78 0.950 . S
C66 C65 1.369 1_565 S
C66 C67 1.392 1_566 S
C66 H79 0.951 . S
C67 C66 1.392 1_544 S
C67 C69 1.384 . S
H68 C70 0.949 . S
C69 C67 1.384 . S
C69 C70 1.385 . S
C69 H71 0.950 . S
C70 C64 1.404 1_554 S
C70 H68 0.949 . S
C70 C69 1.385 . S
H71 C69 0.950 . S
H72 C56 0.951 . S
H73 C58 0.950 1_565 S
H74 C60 0.951 . S
H75 C61 0.950 . S
H76 C62 0.950 . S
H77 C63 0.950 . S
H78 C65 0.950 . S
H79 C66 0.951 . S
C80 C81 1.386 1_554 S
C80 C82 1.383 . S
C80 H96 0.951 . S
C81 C80 1.386 1_556 S
C81 C85 1.383 1_655 S
C82 C80 1.383 . S
C82 C83 1.406 1_554 S
C82 H97 0.951 . S
C83 C82 1.406 1_556 S
C83 C84 1.372 1_655 S
C83 C86 1.479 1_655 S
C84 C83 1.372 1_455 S
C84 C85 1.367 . S
C84 H98 0.951 . S
C85 C81 1.383 1_455 S
C85 C84 1.367 . S
C85 H99 0.950 . S
C86 C83 1.479 1_455 S
C86 C87 1.297 1_455 S
C86 H100 0.950 . S
C87 C86 1.297 1_655 S
C87 C88 1.479 . S
C87 H101 0.950 1_556 S
C88 C87 1.479 . S
C88 C89 1.375 1_556 S
C88 C94 1.404 1_655 S
C89 C88 1.375 1_554 S
C89 C90 1.369 . S
C89 H102 0.950 . S
C90 C89 1.369 . S
C90 C91 1.392 1_554 S
C90 H103 0.951 . S
C91 C90 1.392 1_556 S
C91 C93 1.384 1_655 S
H92 C94 0.949 . S
C93 C91 1.384 1_455 S
C93 C94 1.385 . S
C93 H95 0.950 . S
C94 C88 1.404 1_455 S
C94 H92 0.949 . S
C94 C93 1.385 . S
H95 C93 0.950 . S
H96 C80 0.951 . S
H97 C82 0.951 . S
H98 C84 0.951 . S
H99 C85 0.950 . S
H100 C86 0.950 . S
H101 C87 0.950 1_554 S
H102 C89 0.950 . S
H103 C90 0.951 . S
C33 N18 1.479 . S
C43 N13 1.408 . S
C57 C2 1.489 . S
C67 C29 1.495 1_545 S
C81 C4 1.490 . S
C91 C6 1.486 . S
