# Generated by pormake.
# Topology pcu, (6)-cn, num edge types: 1
# Building blocks:
#     Node 0, Type 0, BuildingBlock: MIDCAF_clean_sbu_0, # of connection points: 6
#     Edge 1, Type (0, 0), BuildingBlock: XIVTED_clean_linker_0, # of connection points: 2
#     Edge 2, Type (0, 0), BuildingBlock: XIVTED_clean_linker_0, # of connection points: 2
#     Edge 3, Type (0, 0), BuildingBlock: XIVTED_clean_linker_0, # of connection points: 2
# Relax obj value: 0.148
# Max RMSD: 0.201
# Mean RMSD: 0.201
data_MOF--net-pcu--node1-MIDCAF_clean_sbu_0--edge1-XIVTED_clean_linker_0
_symmetry_space_group_name_H-M    P1
_symmetry_Int_Tables_number       1
_symmetry_cell_setting            triclinic
loop_
_symmetry_equiv_pos_as_xyz
'x, y, z'
_cell_length_a     15.526336
_cell_length_b     15.519673
_cell_length_c     15.55439
_cell_angle_alpha  94.393911
_cell_angle_beta   94.736066
_cell_angle_gamma 94.914635
loop_
_atom_site_label
_atom_site_type_symbol
_atom_site_fract_x
_atom_site_fract_y
_atom_site_fract_z
_atom_type_partial_charge
Zn0 Zn 0.91236 0.91283 0.91847 0.0
Zn1 Zn 0.09866 0.09561 0.09856 0.0
Zn2 Zn 0.00058 -0.00069 0.00299 0.0
C3 C 0.18382 0.95038 0.08776 0.0
C4 C 0.95555 0.08569 0.18671 0.0
O5 O 0.86945 0.98365 0.05635 0.0
O6 O 0.80653 0.97243 0.9241 0.0
C7 C 0.97848 -0.0025 0.80234 0.0
O8 O 0.11994 0.93112 0.02902 0.0
O9 O 0.18497 0.01824 0.13794 0.0
O10 O 0.02371 0.13586 0.18626 0.0
O11 O 0.93471 0.02683 0.12342 0.0
O12 O 0.9694 0.9173 0.81113 0.0
O13 O 0.98241 0.05066 0.87096 0.0
O14 O 0.05104 0.86729 0.98542 0.0
O15 O 0.91786 0.80617 0.97763 0.0
C16 C -0.00183 0.79815 0.98403 0.0
O17 O 0.02728 0.11879 0.93474 0.0
O18 O 0.13781 0.18251 0.02108 0.0
C19 C 0.79997 0.98233 0.00435 0.0
C20 C 0.08655 0.18247 0.95389 0.0
H21 H 0.87626 0.94557 0.25407 0.0
H22 H 0.95029 0.15867 0.74291 0.0
H23 H 0.95112 0.21941 0.31068 0.0
H24 H 0.98675 0.89441 0.65581 0.0
H25 H 0.91647 0.18781 0.59025 0.0
H26 H 0.86802 0.93174 0.40862 0.0
C27 C 0.88723 0.00348 0.29848 0.0
C28 C 0.91571 0.0834 0.26966 0.0
C29 C 0.9318 0.12361 0.60544 0.0
C30 C 0.90972 0.06762 0.44672 0.0
C31 C 0.95221 0.10735 0.69219 0.0
C32 C 0.97134 0.02405 0.71256 0.0
C33 C 0.92902 0.05552 0.5397 0.0
C34 C 0.97186 0.95958 0.64395 0.0
C35 C 0.88419 0.99535 0.38697 0.0
C36 C 0.93013 0.15624 0.33065 0.0
N37 N 0.95033 0.97647 0.5613 0.0
N38 N 0.92884 0.14641 0.41671 0.0
H39 H 0.30238 0.93043 0.22278 0.0
H40 H 0.65898 0.03022 0.91428 0.0
H41 H 0.25644 0.8882 0.94504 0.0
H42 H 0.73717 0.92476 0.15431 0.0
H43 H 0.50813 0.99384 0.93741 0.0
H44 H 0.45882 0.92956 0.21041 0.0
C45 C 0.32495 0.91704 0.15946 0.0
C46 C 0.26647 0.91034 0.0846 0.0
C47 C 0.55805 0.97861 0.98527 0.0
C48 C 0.44466 0.91298 0.07022 0.0
C49 C 0.64434 0.00055 0.97287 0.0
C50 C 0.71104 0.97999 0.03223 0.0
C51 C 0.53714 0.93689 0.05844 0.0
C52 C 0.68778 0.94228 0.10731 0.0
C53 C 0.41422 0.9175 0.15256 0.0
C54 C 0.29903 0.89363 0.00432 0.0
N55 N 0.60224 0.92176 0.11848 0.0
N56 N 0.38621 0.89815 -0.00096 0.0
H57 H 0.15788 0.74087 0.94891 0.0
H58 H 0.94409 0.24978 0.88113 0.0
H59 H 0.89703 0.65024 0.99781 0.0
H60 H 0.21979 0.30737 0.94416 0.0
H61 H 0.93001 0.40463 0.87474 0.0
H62 H 0.18627 0.58836 0.91305 0.0
C63 C 0.10721 0.68935 0.95317 0.0
C64 C 0.02497 0.70863 0.97627 0.0
C65 C 0.99402 0.38318 0.88783 0.0
C66 C 0.05546 0.53614 0.93169 0.0
C67 C 0.00225 0.2945 0.88967 0.0
C68 C 0.083 0.26574 0.91423 0.0
C69 C 0.06694 0.44328 0.9108 0.0
C70 C 0.15607 0.32723 0.92603 0.0
C71 C 0.123 0.60275 0.93161 0.0
C72 C 0.9613 0.63917 0.97978 0.0
N73 N 0.14619 0.41351 0.92612 0.0
N74 N 0.97765 0.5567 0.95703 0.0
loop_
_geom_bond_atom_site_label_1
_geom_bond_atom_site_label_2
_geom_bond_distance
_geom_bond_site_symmetry_2
_ccdc_geom_bond_type
Zn0 O6 1.920 . S
Zn0 O12 1.898 . S
Zn0 O15 1.905 . S
Zn1 O9 1.905 . S
Zn1 O10 1.898 . S
Zn1 O18 1.920 . S
Zn2 O5 2.075 1_455 S
Zn2 O8 2.120 . S
Zn2 O11 2.119 1_465 S
Zn2 O13 2.120 1_464 S
Zn2 O14 2.117 1_554 S
Zn2 O17 2.078 1_564 S
C3 O8 1.166 1_545 S
C3 O9 1.182 . S
C4 O10 1.175 . S
C4 O11 1.300 1_455 S
O5 Zn2 2.075 1_655 S
O5 C19 1.305 1_554 S
O6 Zn0 1.920 . S
O6 C19 1.234 . S
C7 O12 1.174 . S
C7 O13 1.300 1_565 S
O8 Zn2 2.120 . S
O8 C3 1.166 1_565 S
O9 Zn1 1.905 . S
O9 C3 1.182 . S
O10 Zn1 1.898 . S
O10 C4 1.175 . S
O11 Zn2 2.119 1_645 S
O11 C4 1.300 1_655 S
O12 Zn0 1.898 . S
O12 C7 1.174 . S
O13 Zn2 2.120 1_646 S
O13 C7 1.300 1_545 S
O14 Zn2 2.117 1_556 S
O14 C16 1.166 1_455 S
O15 Zn0 1.905 . S
O15 C16 1.182 . S
C16 O14 1.166 1_655 S
C16 O15 1.182 . S
O17 Zn2 2.078 1_546 S
O17 C20 1.305 1_556 S
O18 Zn1 1.920 . S
O18 C20 1.234 . S
C19 O5 1.305 1_556 S
C19 O6 1.234 . S
C20 O17 1.305 1_554 S
C20 O18 1.234 . S
H21 C27 0.930 . S
H22 C31 0.930 . S
H23 C36 0.929 . S
H24 C34 0.929 . S
H25 C29 0.929 . S
H26 C35 0.929 . S
C27 H21 0.930 . S
C27 C28 1.367 . S
C27 C35 1.378 . S
C28 C27 1.367 . S
C28 C36 1.433 1_465 S
C29 H25 0.929 . S
C29 C31 1.378 . S
C29 C33 1.350 1_645 S
C30 C33 1.463 . S
C30 C35 1.350 . S
C30 N38 1.427 1_465 S
C31 H22 0.930 . S
C31 C29 1.378 . S
C31 C32 1.367 1_645 S
C32 C31 1.367 1_465 S
C32 C34 1.433 . S
C33 C29 1.350 1_465 S
C33 C30 1.463 . S
C33 N37 1.427 . S
C34 H24 0.929 . S
C34 C32 1.433 . S
C34 N37 1.384 . S
C35 H26 0.929 . S
C35 C27 1.378 . S
C35 C30 1.350 . S
C36 H23 0.929 . S
C36 C28 1.433 1_645 S
C36 N38 1.384 . S
N37 C33 1.427 . S
N37 C34 1.384 . S
N38 C30 1.427 1_645 S
N38 C36 1.384 . S
H39 C45 0.930 . S
H40 C49 0.930 . S
H41 C54 0.929 . S
H42 C52 0.929 . S
H43 C47 0.929 . S
H44 C53 0.929 . S
C45 H39 0.930 . S
C45 C46 1.367 1_564 S
C45 C53 1.378 . S
C46 C45 1.367 1_546 S
C46 C54 1.433 . S
C47 H43 0.929 . S
C47 C49 1.378 . S
C47 C51 1.350 . S
C48 C51 1.463 . S
C48 C53 1.350 1_546 S
C48 N56 1.427 . S
C49 H40 0.930 . S
C49 C47 1.378 . S
C49 C50 1.367 . S
C50 C49 1.367 . S
C50 C52 1.433 1_546 S
C51 C47 1.350 . S
C51 C48 1.463 . S
C51 N55 1.427 1_546 S
C52 H42 0.929 . S
C52 C50 1.433 1_564 S
C52 N55 1.384 . S
C53 H44 0.929 . S
C53 C45 1.378 . S
C53 C48 1.350 1_564 S
C54 H41 0.929 . S
C54 C46 1.433 . S
C54 N56 1.384 . S
N55 C51 1.427 1_564 S
N55 C52 1.384 . S
N56 C48 1.427 . S
N56 C54 1.384 . S
H57 C63 0.930 . S
H58 C67 0.930 . S
H59 C72 0.929 . S
H60 C70 0.929 . S
H61 C65 0.929 . S
H62 C71 0.929 . S
C63 H57 0.930 . S
C63 C64 1.367 1_456 S
C63 C71 1.378 . S
C64 C63 1.367 1_654 S
C64 C72 1.433 . S
C65 H61 0.929 . S
C65 C67 1.378 . S
C65 C69 1.350 . S
C66 C69 1.463 . S
C66 C71 1.350 1_654 S
C66 N74 1.427 . S
C67 H58 0.930 . S
C67 C65 1.378 . S
C67 C68 1.367 . S
C68 C67 1.367 . S
C68 C70 1.433 1_654 S
C69 C65 1.350 . S
C69 C66 1.463 . S
C69 N73 1.427 1_654 S
C70 H60 0.929 . S
C70 C68 1.433 1_456 S
C70 N73 1.384 . S
C71 H62 0.929 . S
C71 C63 1.378 . S
C71 C66 1.350 1_456 S
C72 H59 0.929 . S
C72 C64 1.433 . S
C72 N74 1.384 . S
N73 C69 1.427 1_456 S
N73 C70 1.384 . S
N74 C66 1.427 . S
N74 C72 1.384 . S
C28 C4 1.312 1_565 S
C32 C7 1.305 1_455 S
C46 C3 1.324 1_556 S
C50 C19 1.329 1_545 S
C64 C16 1.329 1_554 S
C68 C20 1.335 1_655 S
