# Generated by pormake.
# Topology kag, (6)-cn, num edge types: 1
# Building blocks:
#     Node 0, Type 0, BuildingBlock: UKALOJ_clean_sbu_0, # of connection points: 6
#     Node 1, Type 0, BuildingBlock: UKALOJ_clean_sbu_0, # of connection points: 6
#     Node 2, Type 0, BuildingBlock: UKALOJ_clean_sbu_0, # of connection points: 6
#     Edge 3, Type (0, 0), BuildingBlock: EZIPEK_clean_linker_0, # of connection points: 2
#     Edge 4, Type (0, 0), BuildingBlock: EZIPEK_clean_linker_0, # of connection points: 2
#     Edge 5, Type (0, 0), BuildingBlock: EZIPEK_clean_linker_0, # of connection points: 2
#     Edge 6, Type (0, 0), BuildingBlock: EZIPEK_clean_linker_0, # of connection points: 2
#     Edge 7, Type (0, 0), BuildingBlock: EZIPEK_clean_linker_0, # of connection points: 2
#     Edge 8, Type (0, 0), BuildingBlock: EZIPEK_clean_linker_0, # of connection points: 2
#     Edge 9, Type (0, 0), BuildingBlock: EZIPEK_clean_linker_0, # of connection points: 2
#     Edge 10, Type (0, 0), BuildingBlock: EZIPEK_clean_linker_0, # of connection points: 2
#     Edge 11, Type (0, 0), BuildingBlock: EZIPEK_clean_linker_0, # of connection points: 2
# Relax obj value: 0.112
# Max RMSD: 0.168
# Mean RMSD: 0.168
data_MOF--net-kag--node1-UKALOJ_clean_sbu_0--edge1-EZIPEK_clean_linker_0
_symmetry_space_group_name_H-M    P1
_symmetry_Int_Tables_number       1
_symmetry_cell_setting            triclinic
loop_
_symmetry_equiv_pos_as_xyz
'x, y, z'
_cell_length_a     22.195419
_cell_length_b     21.854248
_cell_length_c     16.044294
_cell_angle_alpha  90.282272
_cell_angle_beta   88.964184
_cell_angle_gamma 121.05592
loop_
_atom_site_label
_atom_site_type_symbol
_atom_site_fract_x
_atom_site_fract_y
_atom_site_fract_z
_atom_type_partial_charge
Zn0 Zn -0.03039 0.49133 0.96436 0.0
O1 O 0.04389 0.59931 0.93793 0.0
C2 C 0.08386 0.47098 1.01605 0.0
Zn3 Zn -0.01386 0.50857 0.10115 0.0
C4 C 0.0766 0.6405 0.99813 0.0
O5 O 0.06124 0.61693 0.07251 0.0
C6 C 0.87834 0.35949 0.06784 0.0
O7 O 0.90518 0.5328 0.11328 0.0
O8 O 0.89089 0.51622 0.9781 0.0
N9 N 0.01154 0.52919 0.22407 0.0
C10 C -0.02665 0.50663 0.29556 0.0
C11 C 0.08129 0.56921 0.32893 0.0
N12 N 0.07853 0.5683 0.24506 0.0
N13 N 0.01588 0.53082 0.3617 0.0
C14 C -0.01741 0.49467 0.77026 0.0
C15 C 0.87561 0.42544 0.73641 0.0
N16 N 0.94444 0.47021 0.84157 0.0
N17 N 0.87805 0.42704 0.82031 0.0
N18 N 0.94062 0.46756 0.70394 0.0
H19 H 0.07215 0.60004 0.78051 0.0
H20 H 0.08156 0.54668 0.70158 0.0
H21 H 0.08702 0.52954 0.81016 0.0
C22 C 0.06041 0.54549 0.76512 0.0
C23 C 0.89505 0.45911 0.30105 0.0
H24 H 0.87001 0.47778 0.25713 0.0
H25 H 0.87483 0.45832 0.36502 0.0
H26 H 0.88036 0.40387 0.2844 0.0
O27 O 0.91164 0.40056 0.12788 0.0
O28 O 0.89404 0.38289 0.99339 0.0
C29 C 0.87276 0.53034 0.04762 0.0
O30 O 0.0501 0.46787 0.95153 0.0
O31 O 0.06592 0.48382 0.08657 0.0
Zn32 Zn 0.48668 0.01838 0.96491 0.0
O33 O 0.51143 0.93719 0.95364 0.0
C34 C 0.33686 0.90378 0.99445 0.0
Zn35 Zn 0.46193 -0.01343 0.09904 0.0
C36 C 0.50794 0.8984 1.01463 0.0
O37 O 0.48854 0.90731 0.08642 0.0
C38 C 0.44156 0.10735 0.05184 0.0
O39 O 0.56805 0.06306 0.12555 0.0
O40 O 0.59231 0.09316 0.9935 0.0
N41 N 0.43757 0.96565 0.22293 0.0
C42 C 0.47549 0.97082 0.29021 0.0
C43 C 0.37948 0.9604 0.33465 0.0
N44 N 0.3777 0.9584 0.25088 0.0
N45 N 0.44053 0.96877 0.36097 0.0
C46 C 0.5085 0.01081 0.77053 0.0
C47 C 0.49933 0.09829 0.72979 0.0
N48 N 0.50468 0.04446 0.83959 0.0
N49 N 0.49996 0.09926 0.81361 0.0
N50 N 0.50406 0.04295 0.70108 0.0
H51 H 0.5595 0.95493 0.8075 0.0
H52 H 0.51981 0.92966 0.70661 0.0
H53 H 0.46527 0.90058 0.79977 0.0
C54 C 0.51356 0.94512 0.77069 0.0
C55 C 0.54713 -0.02013 0.28674 0.0
H56 H 0.55351 0.95459 0.22993 0.0
H57 H 0.55556 0.95609 0.34304 0.0
H58 H 0.5878 0.03748 0.28505 0.0
O59 O 0.43443 0.06608 0.11137 0.0
O60 O 0.46249 0.09913 0.98101 0.0
C61 C 0.61204 0.10133 0.06883 0.0
O62 O 0.38003 0.94375 0.93813 0.0
O63 O 0.35734 0.91039 0.06918 0.0
Zn64 Zn 0.48006 0.51598 0.08684 0.0
O65 O 0.44138 0.40621 0.10778 0.0
C66 C 0.61702 0.5381 0.03641 0.0
Zn67 Zn 0.48448 0.50237 0.95012 0.0
C68 C 0.43822 0.36778 0.04633 0.0
O69 O 0.45157 0.39395 0.97307 0.0
C70 C 0.53119 0.65216 0.99088 0.0
O71 O 0.37855 0.47452 0.93638 0.0
O72 O 0.37731 0.49504 0.07043 0.0
N73 N 0.49482 0.48782 0.82636 0.0
C74 C 0.472 0.50396 0.75735 0.0
C75 C 0.5345 0.46058 0.71727 0.0
N76 N 0.53345 0.4607 0.80127 0.0
N77 N 0.49617 0.48736 0.68863 0.0
C78 C 0.48425 0.50913 0.28095 0.0
C79 C 0.44471 0.57626 0.31694 0.0
N80 N 0.47086 0.5329 0.21042 0.0
N81 N 0.44634 0.57457 0.23301 0.0
N82 N 0.46814 0.53548 0.34813 0.0
H83 H 0.56078 0.48162 0.24471 0.0
H84 H 0.473 0.4069 0.26093 0.0
H85 H 0.52597 0.45405 0.34901 0.0
C86 C 0.5128 0.46027 0.28444 0.0
C87 C 0.42604 0.53551 0.75626 0.0
H88 H 0.37162 0.49277 0.74156 0.0
H89 H 0.44427 0.57679 0.70656 0.0
H90 H 0.42529 0.5592 0.81695 0.0
O91 O 0.51902 0.611 0.92927 0.0
O92 O 0.51969 0.62589 0.06401 0.0
C93 C 0.34662 0.47825 1.00083 0.0
O94 O 0.58276 0.53624 0.10152 0.0
O95 O 0.58969 0.53012 0.96537 0.0
C96 C -0.03816 0.5436 0.5812 0.0
C97 C -0.04089 0.48322 0.61729 0.0
C98 C -0.00825 0.45308 0.48363 0.0
C99 C -0.00262 0.51512 0.44836 0.0
N100 N -0.00655 0.62237 0.46083 0.0
N101 N -0.02274 0.3843 0.60897 0.0
C102 C -0.016 0.56133 0.49657 0.0
C103 C -0.02442 0.43883 0.57002 0.0
N104 N 0.94199 0.5828 0.62818 0.0
N105 N 0.00075 0.40756 0.43356 0.0
H106 H -0.03555 0.3725 0.67205 0.0
H107 H -0.00509 0.3533 0.58069 0.0
H108 H 0.01451 0.41809 0.37052 0.0
H109 H -0.00881 0.35786 0.45275 0.0
H110 H 0.93713 0.62437 0.60497 0.0
H111 H 0.92679 0.57124 0.69075 0.0
H112 H -0.00968 0.66201 0.49322 0.0
H113 H 0.00794 0.63509 0.39823 0.0
C114 C 0.51999 0.05232 0.46826 0.0
C115 C 0.46403 -0.01637 0.44579 0.0
C116 C 0.43336 0.95376 0.59308 0.0
C117 C 0.49379 0.01942 0.61559 0.0
N118 N 0.60285 0.12416 0.57471 0.0
N119 N 0.37716 0.86376 0.48629 0.0
C120 C 0.54006 0.0662 0.55293 0.0
C121 C 0.42424 0.93246 0.50834 0.0
N122 N 0.55003 0.10596 0.4104 0.0
N123 N 0.38201 0.91453 0.65112 0.0
H124 H 0.37023 0.84707 0.4243 0.0
H125 H 0.35063 0.82256 0.52968 0.0
H126 H 0.38399 0.93154 0.71226 0.0
H127 H 0.33408 0.86936 0.63632 0.0
H128 H 0.58684 0.1587 0.42531 0.0
H129 H 0.53256 0.09944 0.34938 0.0
H130 H 0.64134 0.15706 0.5311 0.0
H131 H 0.61884 0.13478 0.63655 0.0
C132 C 0.54046 0.56396 0.5638 0.0
C133 C 0.48824 0.50007 0.60304 0.0
C134 C 0.42011 0.46215 0.47521 0.0
C135 C 0.47446 0.52394 0.43464 0.0
N136 N 0.58906 0.62994 0.4343 0.0
N137 N 0.38165 0.38577 0.59832 0.0
C138 C 0.53543 0.57403 0.47742 0.0
C139 C 0.42874 0.44838 0.5593 0.0
N140 N 0.5938 0.61529 0.61012 0.0
N141 N 0.36008 0.41773 0.4331 0.0
H142 H 0.38665 0.37553 0.66051 0.0
H143 H 0.34 0.34265 0.56868 0.0
H144 H 0.35342 0.42661 0.37098 0.0
H145 H 0.31552 0.37468 0.46024 0.0
H146 H 0.63025 0.66609 0.58781 0.0
H147 H 0.59887 0.60848 0.67343 0.0
H148 H 0.63801 0.66502 0.45927 0.0
H149 H 0.58596 0.6386 0.37102 0.0
C150 C 0.21472 0.53618 1.02507 0.0
C151 C 0.15071 0.47192 1.00735 0.0
C152 C 0.21592 0.41128 0.97759 0.0
C153 C 0.27942 0.47609 0.99358 0.0
N154 N 0.34108 0.60407 1.00718 0.0
N155 N 0.09015 0.35145 0.95461 0.0
C156 C 0.27928 0.53966 1.0099 0.0
C157 C 0.15127 0.41046 0.97917 0.0
N158 N 0.21436 0.5941 0.05719 0.0
N159 N 0.21732 0.35025 0.96411 0.0
H160 H 0.04143 0.34766 0.95923 0.0
H161 H 0.08798 0.3078 0.92524 0.0
H162 H 0.26411 0.35003 0.95982 0.0
H163 H 0.17253 0.29955 0.96141 0.0
H164 H 0.25869 0.63819 0.08182 0.0
H165 H 0.16936 0.59718 0.06398 0.0
H166 H 0.34382 0.65309 1.00911 0.0
H167 H 0.38934 0.60874 0.99363 0.0
C168 C 0.69817 0.2121 0.14617 0.0
C169 C 0.68553 0.15727 0.08887 0.0
C170 C 0.80901 0.22748 0.04159 0.0
C171 C 0.8156 0.28773 0.08389 0.0
N172 N 0.761 0.33897 0.16835 0.0
N173 N 0.73108 0.10783 0.98913 0.0
C174 C 0.75934 0.28035 0.13534 0.0
C175 C 0.74197 0.16336 0.03907 0.0
N176 N 0.65234 0.20003 0.21069 0.0
N177 N 0.86715 0.23143 1.00544 0.0
H178 H 0.68494 0.05782 0.99247 0.0
H179 H 0.76673 0.11165 0.94339 0.0
H180 H 0.91701 0.27726 1.00845 0.0
H181 H 0.86748 0.1879 0.97934 0.0
H182 H 0.66325 0.23701 0.25801 0.0
H183 H 0.60804 0.15061 0.22368 0.0
H184 H 0.71758 0.33678 0.19754 0.0
H185 H 0.80226 0.39097 0.15828 0.0
C186 C 0.48921 0.79023 0.93771 0.0
C187 C 0.52423 0.84141 1.00099 0.0
C188 C 0.58393 0.7785 0.04242 0.0
C189 C 0.54728 0.72695 0.97959 0.0
N190 N 0.49829 0.71006 0.84212 0.0
N191 N 0.61967 0.89597 0.09788 0.0
C192 C 0.51074 0.74119 0.91868 0.0
C193 C 0.57634 0.83928 0.0488 0.0
N194 N 0.43254 0.78517 0.89911 0.0
N195 N 0.62607 0.76922 0.09539 0.0
H196 H 0.61669 0.94201 0.10166 0.0
H197 H 0.66243 0.90027 0.12897 0.0
H198 H 0.6391 0.73015 0.08545 0.0
H199 H 0.64703 0.7992 0.14914 0.0
H200 H 0.40175 0.74418 0.85781 0.0
H201 H 0.41172 0.81677 0.91574 0.0
H202 H 0.47415 0.72192 0.79492 0.0
H203 H 0.52257 0.68263 0.82151 0.0
C204 C 0.80649 0.59277 0.08248 0.0
C205 C 0.80697 0.53187 0.05226 0.0
C206 C 0.68393 0.47629 1.0118 0.0
C207 C 0.6825 0.53643 0.04356 0.0
N208 N 0.73833 0.64775 0.11868 0.0
N209 N 0.74232 0.40906 1.00652 0.0
C210 C 0.74244 0.5932 0.08251 0.0
C211 C 0.74469 0.47194 1.02189 0.0
N212 N 0.8679 0.6514 0.10712 0.0
N213 N 0.6272 0.42276 0.97154 0.0
H214 H 0.78544 0.40285 1.01204 0.0
H215 H 0.69602 0.3607 0.9962 0.0
H216 H 0.57783 0.41719 0.97157 0.0
H217 H 0.62969 0.38472 0.93471 0.0
H218 H 0.87327 0.70054 0.12081 0.0
H219 H 0.91528 0.65241 0.1091 0.0
H220 H 0.77706 0.68624 0.15651 0.0
H221 H 0.69421 0.6527 0.11458 0.0
C222 C 0.194 0.72319 0.92952 0.0
C223 C 0.1375 0.71331 0.98225 0.0
C224 C 0.20738 0.83817 1.02639 0.0
C225 C 0.26387 0.84694 0.9746 0.0
N226 N 0.29731 0.80702 0.85064 0.0
N227 N 0.083 0.7659 0.06236 0.0
C228 C 0.25257 0.79284 0.91696 0.0
C229 C 0.14182 0.77243 1.02489 0.0
N230 N 0.19528 0.66595 0.89704 0.0
N231 N 0.21691 0.89261 0.07741 0.0
H232 H 0.03409 0.71884 0.05994 0.0
H233 H 0.08103 0.80844 0.08878 0.0
H234 H 0.26194 0.94348 0.07383 0.0
H235 H 0.18137 0.88693 0.12437 0.0
H236 H 0.23919 0.67059 0.86615 0.0
H237 H 0.15641 0.61326 0.90937 0.0
H238 H 0.28724 0.77007 0.80354 0.0
H239 H 0.33953 0.85768 0.83677 0.0
C240 C 0.37682 0.23604 1.01871 0.0
C241 C 0.4302 0.29689 0.0603 0.0
C242 C 0.47526 0.22461 0.11751 0.0
C243 C 0.42969 0.16747 0.06494 0.0
N244 N 0.33543 0.11647 0.96659 0.0
N245 N 0.53778 0.35182 0.13881 0.0
C246 C 0.37965 0.17242 1.01609 0.0
C247 C 0.48075 0.29174 0.10815 0.0
N248 N 0.3228 0.23892 0.98334 0.0
N249 N 0.51459 0.21571 0.17538 0.0
H250 H 0.54626 0.40283 0.13098 0.0
H251 H 0.58084 0.35228 0.16431 0.0
H252 H 0.51446 0.16848 0.18313 0.0
H253 H 0.54237 0.25316 0.22143 0.0
H254 H 0.27872 0.19487 0.95838 0.0
H255 H 0.31922 0.28462 0.98553 0.0
H256 H 0.30381 0.11954 0.92169 0.0
H257 H 0.33226 0.06715 0.96836 0.0
loop_
_geom_bond_atom_site_label_1
_geom_bond_atom_site_label_2
_geom_bond_distance
_geom_bond_site_symmetry_2
_ccdc_geom_bond_type
Zn0 O1 2.055 . S
Zn0 O8 2.046 1_455 S
Zn0 N16 2.036 . S
Zn0 O28 2.053 1_455 S
Zn0 O30 2.066 . S
O1 Zn0 2.055 . S
O1 C4 1.259 . S
C2 O30 1.256 . S
C2 O31 1.244 1_556 S
Zn3 O5 2.046 . S
Zn3 O7 2.055 1_455 S
Zn3 N9 2.036 . S
Zn3 O27 2.066 1_455 S
Zn3 O31 2.053 . S
C4 O1 1.259 . S
C4 O5 1.254 1_556 S
O5 Zn3 2.046 . S
O5 C4 1.254 1_554 S
C6 O27 1.256 . S
C6 O28 1.244 1_554 S
O7 Zn3 2.055 1_655 S
O7 C29 1.259 . S
O8 Zn0 2.046 1_655 S
O8 C29 1.254 1_556 S
N9 Zn3 2.036 . S
N9 C10 1.298 1_455 S
N9 N12 1.398 . S
C10 N9 1.298 1_655 S
C10 N13 1.367 1_655 S
C10 C23 1.481 . S
C11 N12 1.299 . S
C11 N13 1.379 . S
N12 N9 1.398 . S
N12 C11 1.299 . S
N13 C10 1.367 1_455 S
N13 C11 1.379 . S
C14 N16 1.298 . S
C14 N18 1.367 . S
C14 C22 1.481 . S
C15 N17 1.299 . S
C15 N18 1.379 1_655 S
N16 Zn0 2.036 . S
N16 C14 1.298 . S
N16 N17 1.398 1_455 S
N17 C15 1.299 . S
N17 N16 1.398 1_655 S
N18 C14 1.367 . S
N18 C15 1.379 1_455 S
H19 C22 0.980 . S
H20 C22 0.981 . S
H21 C22 0.981 . S
C22 C14 1.481 . S
C22 H19 0.980 . S
C22 H20 0.981 . S
C22 H21 0.981 . S
C23 C10 1.481 . S
C23 H24 0.980 . S
C23 H25 0.981 . S
C23 H26 0.981 . S
H24 C23 0.980 . S
H25 C23 0.981 . S
H26 C23 0.981 . S
O27 Zn3 2.066 1_655 S
O27 C6 1.256 . S
O28 Zn0 2.053 1_655 S
O28 C6 1.244 1_556 S
C29 O7 1.259 . S
C29 O8 1.254 1_554 S
O30 Zn0 2.066 . S
O30 C2 1.256 . S
O31 C2 1.244 1_554 S
O31 Zn3 2.053 . S
Zn32 O33 2.055 1_545 S
Zn32 O40 2.046 . S
Zn32 N48 2.036 . S
Zn32 O60 2.053 . S
Zn32 O62 2.066 1_545 S
O33 Zn32 2.055 1_565 S
O33 C36 1.259 . S
C34 O62 1.256 . S
C34 O63 1.244 1_556 S
Zn35 O37 2.046 1_545 S
Zn35 O39 2.055 . S
Zn35 N41 2.036 . S
Zn35 O59 2.066 . S
Zn35 O63 2.053 1_545 S
C36 O33 1.259 . S
C36 O37 1.254 1_556 S
O37 Zn35 2.046 1_565 S
O37 C36 1.254 1_554 S
C38 O59 1.256 . S
C38 O60 1.244 1_554 S
O39 Zn35 2.055 . S
O39 C61 1.259 . S
O40 Zn32 2.046 . S
O40 C61 1.254 1_556 S
N41 Zn35 2.036 . S
N41 C42 1.298 . S
N41 N44 1.398 1_545 S
C42 N41 1.298 . S
C42 N45 1.367 . S
C42 C55 1.481 . S
C43 N44 1.299 . S
C43 N45 1.379 1_565 S
N44 N41 1.398 1_565 S
N44 C43 1.299 . S
N45 C42 1.367 . S
N45 C43 1.379 1_545 S
C46 N48 1.298 1_565 S
C46 N50 1.367 1_565 S
C46 C54 1.481 . S
C47 N49 1.299 . S
C47 N50 1.379 . S
N48 Zn32 2.036 . S
N48 C46 1.298 1_545 S
N48 N49 1.398 . S
N49 C47 1.299 . S
N49 N48 1.398 . S
N50 C46 1.367 1_545 S
N50 C47 1.379 . S
H51 C54 0.980 . S
H52 C54 0.981 . S
H53 C54 0.981 . S
C54 C46 1.481 . S
C54 H51 0.980 . S
C54 H52 0.981 . S
C54 H53 0.981 . S
C55 C42 1.481 . S
C55 H56 0.980 . S
C55 H57 0.981 . S
C55 H58 0.981 . S
H56 C55 0.980 . S
H57 C55 0.981 . S
H58 C55 0.981 . S
O59 Zn35 2.066 . S
O59 C38 1.256 . S
O60 Zn32 2.053 . S
O60 C38 1.244 1_556 S
C61 O39 1.259 . S
C61 O40 1.254 1_554 S
O62 Zn32 2.066 1_565 S
O62 C34 1.256 . S
O63 C34 1.244 1_554 S
O63 Zn35 2.053 1_565 S
Zn64 O65 2.055 . S
Zn64 O72 2.046 . S
Zn64 N80 2.036 . S
Zn64 O92 2.053 . S
Zn64 O94 2.066 . S
O65 Zn64 2.055 . S
O65 C68 1.259 . S
C66 O94 1.256 . S
C66 O95 1.244 1_554 S
Zn67 O69 2.046 . S
Zn67 O71 2.055 . S
Zn67 N73 2.036 . S
Zn67 O91 2.066 . S
Zn67 O95 2.053 . S
C68 O65 1.259 . S
C68 O69 1.254 1_554 S
O69 Zn67 2.046 . S
O69 C68 1.254 1_556 S
C70 O91 1.256 . S
C70 O92 1.244 1_556 S
O71 Zn67 2.055 . S
O71 C93 1.259 . S
O72 Zn64 2.046 . S
O72 C93 1.254 1_554 S
N73 Zn67 2.036 . S
N73 C74 1.298 . S
N73 N76 1.398 . S
C74 N73 1.298 . S
C74 N77 1.367 . S
C74 C87 1.481 . S
C75 N76 1.299 . S
C75 N77 1.379 . S
N76 N73 1.398 . S
N76 C75 1.299 . S
N77 C74 1.367 . S
N77 C75 1.379 . S
C78 N80 1.298 . S
C78 N82 1.367 . S
C78 C86 1.481 . S
C79 N81 1.299 . S
C79 N82 1.379 . S
N80 Zn64 2.036 . S
N80 C78 1.298 . S
N80 N81 1.398 . S
N81 C79 1.299 . S
N81 N80 1.398 . S
N82 C78 1.367 . S
N82 C79 1.379 . S
H83 C86 0.980 . S
H84 C86 0.981 . S
H85 C86 0.981 . S
C86 C78 1.481 . S
C86 H83 0.980 . S
C86 H84 0.981 . S
C86 H85 0.981 . S
C87 C74 1.481 . S
C87 H88 0.980 . S
C87 H89 0.981 . S
C87 H90 0.981 . S
H88 C87 0.980 . S
H89 C87 0.981 . S
H90 C87 0.981 . S
O91 Zn67 2.066 . S
O91 C70 1.256 . S
O92 Zn64 2.053 . S
O92 C70 1.244 1_554 S
C93 O71 1.259 . S
C93 O72 1.254 1_556 S
O94 Zn64 2.066 . S
O94 C66 1.256 . S
O95 C66 1.244 1_556 S
O95 Zn67 2.053 . S
C96 C97 1.363 . S
C96 C102 1.379 . S
C96 N104 1.356 . S
C97 C96 1.363 . S
C97 C103 1.363 . S
C98 C99 1.363 . S
C98 C103 1.379 . S
C98 N105 1.356 . S
C99 C98 1.363 . S
C99 C102 1.363 . S
N100 C102 1.356 1_655 S
N100 H112 0.984 . S
N100 H113 0.985 . S
N101 C103 1.356 . S
N101 H106 0.984 . S
N101 H107 0.985 . S
C102 C96 1.379 . S
C102 C99 1.363 . S
C102 N100 1.356 1_455 S
C103 C97 1.363 . S
C103 C98 1.379 . S
C103 N101 1.356 . S
N104 C96 1.356 . S
N104 H110 0.984 . S
N104 H111 0.984 . S
N105 C98 1.356 . S
N105 H108 0.984 1_455 S
N105 H109 0.985 . S
H106 N101 0.984 . S
H107 N101 0.985 . S
H108 N105 0.984 1_655 S
H109 N105 0.985 . S
H110 N104 0.984 . S
H111 N104 0.984 . S
H112 N100 0.984 . S
H113 N100 0.985 . S
C114 C115 1.363 . S
C114 C120 1.379 . S
C114 N122 1.356 . S
C115 C114 1.363 . S
C115 C121 1.363 1_545 S
C116 C117 1.363 1_565 S
C116 C121 1.379 . S
C116 N123 1.356 . S
C117 C116 1.363 1_545 S
C117 C120 1.363 . S
N118 C120 1.356 . S
N118 H130 0.984 . S
N118 H131 0.985 . S
N119 C121 1.356 . S
N119 H124 0.984 . S
N119 H125 0.985 . S
C120 C114 1.379 . S
C120 C117 1.363 . S
C120 N118 1.356 . S
C121 C115 1.363 1_565 S
C121 C116 1.379 . S
C121 N119 1.356 . S
N122 C114 1.356 . S
N122 H128 0.984 . S
N122 H129 0.984 . S
N123 C116 1.356 . S
N123 H126 0.984 . S
N123 H127 0.985 . S
H124 N119 0.984 . S
H125 N119 0.985 . S
H126 N123 0.984 . S
H127 N123 0.985 . S
H128 N122 0.984 . S
H129 N122 0.984 . S
H130 N118 0.984 . S
H131 N118 0.985 . S
C132 C133 1.363 . S
C132 C138 1.379 . S
C132 N140 1.356 . S
C133 C132 1.363 . S
C133 C139 1.363 . S
C134 C135 1.363 . S
C134 C139 1.379 . S
C134 N141 1.356 . S
C135 C134 1.363 . S
C135 C138 1.363 . S
N136 C138 1.356 . S
N136 H148 0.984 . S
N136 H149 0.985 . S
N137 C139 1.356 . S
N137 H142 0.984 . S
N137 H143 0.985 . S
C138 C132 1.379 . S
C138 C135 1.363 . S
C138 N136 1.356 . S
C139 C133 1.363 . S
C139 C134 1.379 . S
C139 N137 1.356 . S
N140 C132 1.356 . S
N140 H146 0.984 . S
N140 H147 0.984 . S
N141 C134 1.356 . S
N141 H144 0.984 . S
N141 H145 0.985 . S
H142 N137 0.984 . S
H143 N137 0.985 . S
H144 N141 0.984 . S
H145 N141 0.985 . S
H146 N140 0.984 . S
H147 N140 0.984 . S
H148 N136 0.984 . S
H149 N136 0.985 . S
C150 C151 1.363 1_554 S
C150 C156 1.379 . S
C150 N158 1.356 . S
C151 C150 1.363 1_556 S
C151 C157 1.363 . S
C152 C153 1.363 . S
C152 C157 1.379 . S
C152 N159 1.356 . S
C153 C152 1.363 . S
C153 C156 1.363 1_556 S
N154 C156 1.356 . S
N154 H166 0.984 . S
N154 H167 0.985 . S
N155 C157 1.356 . S
N155 H160 0.984 . S
N155 H161 0.985 . S
C156 C150 1.379 . S
C156 C153 1.363 1_554 S
C156 N154 1.356 . S
C157 C151 1.363 . S
C157 C152 1.379 . S
C157 N155 1.356 . S
N158 C150 1.356 . S
N158 H164 0.984 . S
N158 H165 0.984 . S
N159 C152 1.356 . S
N159 H162 0.984 . S
N159 H163 0.985 . S
H160 N155 0.984 . S
H161 N155 0.985 . S
H162 N159 0.984 . S
H163 N159 0.985 . S
H164 N158 0.984 . S
H165 N158 0.984 . S
H166 N154 0.984 . S
H167 N154 0.985 . S
C168 C169 1.363 . S
C168 C174 1.379 . S
C168 N176 1.356 . S
C169 C168 1.363 . S
C169 C175 1.363 1_554 S
C170 C171 1.363 1_556 S
C170 C175 1.379 . S
C170 N177 1.356 . S
C171 C170 1.363 1_554 S
C171 C174 1.363 . S
N172 C174 1.356 . S
N172 H184 0.984 . S
N172 H185 0.985 . S
N173 C175 1.356 . S
N173 H178 0.984 . S
N173 H179 0.985 . S
C174 C168 1.379 . S
C174 C171 1.363 . S
C174 N172 1.356 . S
C175 C169 1.363 1_556 S
C175 C170 1.379 . S
C175 N173 1.356 . S
N176 C168 1.356 . S
N176 H182 0.984 . S
N176 H183 0.984 . S
N177 C170 1.356 . S
N177 H180 0.984 . S
N177 H181 0.985 . S
H178 N173 0.984 . S
H179 N173 0.985 . S
H180 N177 0.984 . S
H181 N177 0.985 . S
H182 N176 0.984 . S
H183 N176 0.984 . S
H184 N172 0.984 . S
H185 N172 0.985 . S
C186 C187 1.363 . S
C186 C192 1.379 . S
C186 N194 1.356 . S
C187 C186 1.363 . S
C187 C193 1.363 1_556 S
C188 C189 1.363 1_554 S
C188 C193 1.379 . S
C188 N195 1.356 . S
C189 C188 1.363 1_556 S
C189 C192 1.363 . S
N190 C192 1.356 . S
N190 H202 0.984 . S
N190 H203 0.985 . S
N191 C193 1.356 . S
N191 H196 0.984 . S
N191 H197 0.985 . S
C192 C186 1.379 . S
C192 C189 1.363 . S
C192 N190 1.356 . S
C193 C187 1.363 1_554 S
C193 C188 1.379 . S
C193 N191 1.356 . S
N194 C186 1.356 . S
N194 H200 0.984 . S
N194 H201 0.984 . S
N195 C188 1.356 . S
N195 H198 0.984 . S
N195 H199 0.985 . S
H196 N191 0.984 . S
H197 N191 0.985 . S
H198 N195 0.984 . S
H199 N195 0.985 . S
H200 N194 0.984 . S
H201 N194 0.984 . S
H202 N190 0.984 . S
H203 N190 0.985 . S
C204 C205 1.363 . S
C204 C210 1.379 . S
C204 N212 1.356 . S
C205 C204 1.363 . S
C205 C211 1.363 1_554 S
C206 C207 1.363 1_556 S
C206 C211 1.379 . S
C206 N213 1.356 . S
C207 C206 1.363 1_554 S
C207 C210 1.363 . S
N208 C210 1.356 . S
N208 H220 0.984 . S
N208 H221 0.985 . S
N209 C211 1.356 . S
N209 H214 0.984 . S
N209 H215 0.985 . S
C210 C204 1.379 . S
C210 C207 1.363 . S
C210 N208 1.356 . S
C211 C205 1.363 1_556 S
C211 C206 1.379 . S
C211 N209 1.356 . S
N212 C204 1.356 . S
N212 H218 0.984 . S
N212 H219 0.984 . S
N213 C206 1.356 . S
N213 H216 0.984 . S
N213 H217 0.985 . S
H214 N209 0.984 . S
H215 N209 0.985 . S
H216 N213 0.984 . S
H217 N213 0.985 . S
H218 N212 0.984 . S
H219 N212 0.984 . S
H220 N208 0.984 . S
H221 N208 0.985 . S
C222 C223 1.363 . S
C222 C228 1.379 . S
C222 N230 1.356 . S
C223 C222 1.363 . S
C223 C229 1.363 1_556 S
C224 C225 1.363 1_554 S
C224 C229 1.379 . S
C224 N231 1.356 . S
C225 C224 1.363 1_556 S
C225 C228 1.363 . S
N226 C228 1.356 . S
N226 H238 0.984 . S
N226 H239 0.985 . S
N227 C229 1.356 . S
N227 H232 0.984 . S
N227 H233 0.985 . S
C228 C222 1.379 . S
C228 C225 1.363 . S
C228 N226 1.356 . S
C229 C223 1.363 1_554 S
C229 C224 1.379 . S
C229 N227 1.356 . S
N230 C222 1.356 . S
N230 H236 0.984 . S
N230 H237 0.984 . S
N231 C224 1.356 . S
N231 H234 0.984 . S
N231 H235 0.985 . S
H232 N227 0.984 . S
H233 N227 0.985 . S
H234 N231 0.984 . S
H235 N231 0.985 . S
H236 N230 0.984 . S
H237 N230 0.984 . S
H238 N226 0.984 . S
H239 N226 0.985 . S
C240 C241 1.363 1_556 S
C240 C246 1.379 . S
C240 N248 1.356 . S
C241 C240 1.363 1_554 S
C241 C247 1.363 . S
C242 C243 1.363 . S
C242 C247 1.379 . S
C242 N249 1.356 . S
C243 C242 1.363 . S
C243 C246 1.363 1_554 S
N244 C246 1.356 . S
N244 H256 0.984 . S
N244 H257 0.985 . S
N245 C247 1.356 . S
N245 H250 0.984 . S
N245 H251 0.985 . S
C246 C240 1.379 . S
C246 C243 1.363 1_556 S
C246 N244 1.356 . S
C247 C241 1.363 . S
C247 C242 1.379 . S
C247 N245 1.356 . S
N248 C240 1.356 . S
N248 H254 0.984 . S
N248 H255 0.984 . S
N249 C242 1.356 . S
N249 H252 0.984 . S
N249 H253 0.985 . S
H250 N245 0.984 . S
H251 N245 0.985 . S
H252 N249 0.984 . S
H253 N249 0.985 . S
H254 N248 0.984 . S
H255 N248 0.984 . S
H256 N244 0.984 . S
H257 N244 0.985 . S
C97 N18 1.477 . S
C99 N13 1.477 . S
C115 N45 1.477 . S
C117 N50 1.477 . S
C133 N77 1.477 . S
C135 N82 1.477 . S
C151 C2 1.286 . S
C153 C93 1.292 . S
C169 C61 1.292 . S
C171 C6 1.286 . S
C187 C36 1.292 . S
C189 C70 1.286 . S
C205 C29 1.292 . S
C207 C66 1.286 . S
C223 C4 1.292 . S
C225 C34 1.286 . S
C241 C68 1.292 . S
C243 C38 1.286 . S
