# Generated by pormake.
# Topology ske, (6)-cn, num edge types: 1
# Building blocks:
#     Node 0, Type 0, BuildingBlock: LEVNOQ01_clean_sbu_1, # of connection points: 6
#     Node 1, Type 0, BuildingBlock: LEVNOQ01_clean_sbu_1, # of connection points: 6
#     Node 2, Type 0, BuildingBlock: LEVNOQ01_clean_sbu_1, # of connection points: 6
#     Node 3, Type 0, BuildingBlock: LEVNOQ01_clean_sbu_1, # of connection points: 6
#     Node 4, Type 0, BuildingBlock: LEVNOQ01_clean_sbu_1, # of connection points: 6
#     Node 5, Type 0, BuildingBlock: LEVNOQ01_clean_sbu_1, # of connection points: 6
#     Node 6, Type 0, BuildingBlock: LEVNOQ01_clean_sbu_1, # of connection points: 6
#     Node 7, Type 0, BuildingBlock: LEVNOQ01_clean_sbu_1, # of connection points: 6
#     Edge 8, Type (0, 0), None
#     Edge 9, Type (0, 0), None
#     Edge 10, Type (0, 0), None
#     Edge 11, Type (0, 0), None
#     Edge 12, Type (0, 0), None
#     Edge 13, Type (0, 0), None
#     Edge 14, Type (0, 0), None
#     Edge 15, Type (0, 0), None
#     Edge 16, Type (0, 0), None
#     Edge 17, Type (0, 0), None
#     Edge 18, Type (0, 0), None
#     Edge 19, Type (0, 0), None
#     Edge 20, Type (0, 0), None
#     Edge 21, Type (0, 0), None
#     Edge 22, Type (0, 0), None
#     Edge 23, Type (0, 0), None
#     Edge 24, Type (0, 0), None
#     Edge 25, Type (0, 0), None
#     Edge 26, Type (0, 0), None
#     Edge 27, Type (0, 0), None
#     Edge 28, Type (0, 0), None
#     Edge 29, Type (0, 0), None
#     Edge 30, Type (0, 0), None
#     Edge 31, Type (0, 0), None
# Relax obj value: 0.103
# Max RMSD: 0.140
# Mean RMSD: 0.140
data_MOF--net-ske--node1-LEVNOQ01_clean_sbu_1--edge1-none
_symmetry_space_group_name_H-M    P1
_symmetry_Int_Tables_number       1
_symmetry_cell_setting            triclinic
loop_
_symmetry_equiv_pos_as_xyz
'x, y, z'
_cell_length_a     31.290423
_cell_length_b     15.27217
_cell_length_c     7.922745
_cell_angle_alpha  89.988247
_cell_angle_beta   90.071918
_cell_angle_gamma 89.794258
loop_
_atom_site_label
_atom_site_type_symbol
_atom_site_fract_x
_atom_site_fract_y
_atom_site_fract_z
_atom_type_partial_charge
O0 O 0.20315 0.04834 0.74875 0.0
Mg1 Mg 0.14565 -0.01527 0.80246 0.0
O2 O 0.18445 0.17736 0.6322 0.0
Mg3 Mg 0.10899 0.17011 0.586 0.0
O4 O 0.10961 0.02449 0.6098 0.0
O5 O 0.11617 0.88448 0.65711 0.0
O6 O 0.03298 0.14478 0.57004 0.0
O7 O 0.12057 0.15084 0.29644 0.0
Mg8 Mg 0.06525 0.26375 0.42278 0.0
O9 O 0.10899 0.33098 0.56161 0.0
O10 O 0.00516 0.27518 0.53165 0.0
O11 O 0.06058 0.20218 0.19375 0.0
O12 O 0.08773 0.37224 0.30493 0.0
C13 C 0.10557 0.13007 0.00785 0.0
C14 C 0.21233 0.12485 0.69708 0.0
C15 C 0.10044 0.94601 0.56571 0.0
C16 C 0.00025 0.19507 0.56536 0.0
C17 C 0.09555 0.16429 0.17189 0.0
C18 C 0.10498 0.39174 0.44586 0.0
O19 O 0.11894 0.05173 0.00297 0.0
O20 O 0.10071 0.17887 0.87714 0.0
O21 O 0.90358 0.15627 0.19058 0.0
Mg22 Mg 0.89366 0.09017 0.41516 0.0
O23 O 0.84357 0.22053 0.26265 0.0
Mg24 Mg 0.84956 0.20416 0.55946 0.0
O25 O 0.83837 0.04656 0.53116 0.0
O26 O 0.86942 -0.01683 0.30649 0.0
O27 O 0.85615 0.19113 0.85774 0.0
O28 O 0.7758 0.22521 0.61404 0.0
Mg29 Mg 0.84146 0.38633 0.80345 0.0
O30 O 0.85597 0.34866 0.57253 0.0
O31 O 0.88063 0.31683 -0.0347 0.0
O32 O 0.77862 0.33268 0.80912 0.0
O33 O 0.85505 0.48835 0.62912 0.0
C34 C 0.95695 0.1591 0.56648 0.0
C35 C 0.87153 0.20092 0.15087 0.0
C36 C 0.84106 -0.01845 0.42302 0.0
C37 C 0.86962 0.23762 -0.0178 0.0
C38 C 0.75805 0.27438 0.72727 0.0
C39 C 0.85361 0.42758 0.5178 0.0
O40 O 0.95095 0.07756 0.55281 0.0
O41 O 0.92535 0.21148 0.5505 0.0
O42 O 0.03127 0.65568 0.72968 0.0
Mg43 Mg 0.04132 0.58961 0.50499 0.0
O44 O 0.09116 0.71955 0.65775 0.0
Mg45 Mg 0.08524 0.70319 0.36088 0.0
O46 O 0.09667 0.54538 0.38912 0.0
O47 O 0.06558 0.48228 0.6137 0.0
O48 O 0.0787 0.6902 0.06257 0.0
O49 O 0.15895 0.72393 0.30641 0.0
Mg50 Mg 0.09289 0.88526 0.11671 0.0
O51 O 0.07865 0.84776 0.34785 0.0
O52 O 0.05375 0.81595 0.9553 0.0
O53 O 0.15581 0.83113 0.11061 0.0
O54 O 0.07947 -0.01252 0.29123 0.0
C55 C -0.02208 0.65896 0.35338 0.0
C56 C 0.06322 0.70012 0.76947 0.0
C57 C 0.09395 0.48036 0.49721 0.0
C58 C 0.06504 0.73675 0.93821 0.0
C59 C 0.17655 0.77295 0.19292 0.0
C60 C 0.08114 0.92664 0.40248 0.0
O61 O -0.01592 0.5774 0.36722 0.0
O62 O 0.00941 0.71113 0.3695 0.0
O63 O 0.87428 0.70313 0.72578 0.0
Mg64 Mg 0.86933 0.76414 0.49621 0.0
O65 O 0.81434 0.65232 0.62342 0.0
Mg66 Mg 0.8259 0.6715 0.33384 0.0
O67 O 0.82551 0.83257 0.35861 0.0
O68 O 0.84755 0.87316 0.6147 0.0
O69 O 0.83416 0.68037 0.04268 0.0
O70 O 0.75039 0.67921 0.28788 0.0
Mg71 Mg 0.78956 0.4865 0.11706 0.0
O72 O 0.82545 0.52587 0.30996 0.0
O73 O 0.81618 0.55337 0.91691 0.0
O74 O 0.73198 0.5504 0.17088 0.0
O75 O 0.81905 0.38593 0.26237 0.0
C76 C 0.93454 0.69521 0.35411 0.0
C77 C 0.83934 0.66569 0.74791 0.0
C78 C 0.83005 0.89311 0.47434 0.0
C79 C 0.8294 0.63161 0.912 0.0
C80 C 0.72263 0.62686 0.223 0.0
C81 C 0.83461 0.44726 0.3541 0.0
O82 O 0.92944 0.77536 0.38743 0.0
O83 O 0.90192 0.64515 0.34965 0.0
O84 O 0.65631 0.58584 0.30945 0.0
Mg85 Mg 0.5935 0.5321 0.30389 0.0
O86 O 0.65883 0.69319 0.11413 0.0
Mg87 Mg 0.58502 0.71398 0.06021 0.0
O88 O 0.5784 0.56938 0.07301 0.0
O89 O 0.57997 0.42972 0.1305 0.0
O90 O 0.50929 0.707 0.0513 0.0
O91 O 0.59095 0.69774 0.7637 0.0
Mg92 Mg 0.54056 0.82879 0.91448 0.0
O93 O 0.59586 0.87146 0.03254 0.0
O94 O 0.48329 0.84067 0.05175 0.0
O95 O 0.53094 0.76189 0.69041 0.0
O96 O 0.5658 0.93498 0.80578 0.0
C97 C 0.56507 0.68041 0.48297 0.0
C98 C 0.67674 0.64418 0.22736 0.0
C99 C 0.58114 0.49038 0.01887 0.0
C100 C 0.47756 0.75907 0.06661 0.0
C101 C 0.56302 0.71724 0.65145 0.0
C102 C 0.59397 0.93615 0.92339 0.0
O103 O 0.55437 0.60101 0.46635 0.0
O104 O 0.57845 0.72694 0.3585 0.0
O105 O 0.37401 0.71344 0.69464 0.0
Mg106 Mg 0.36958 0.65246 0.92432 0.0
O107 O 0.314 0.76482 0.79642 0.0
Mg108 Mg 0.32568 0.74555 0.08601 0.0
O109 O 0.32567 0.58441 0.0609 0.0
O110 O 0.3487 0.54289 0.80674 0.0
O111 O 0.33401 0.73668 0.37729 0.0
O112 O 0.25026 0.73785 0.13207 0.0
Mg113 Mg 0.28889 0.93087 0.30241 0.0
O114 O 0.32488 0.89104 0.11018 0.0
O115 O 0.31564 0.86374 0.50296 0.0
O116 O 0.23151 0.86691 0.24818 0.0
O117 O 0.31845 0.03105 0.15717 0.0
C118 C 0.43439 0.72245 0.06642 0.0
C119 C 0.33902 0.75122 0.67219 0.0
C120 C 0.33057 0.52355 0.94589 0.0
C121 C 0.32906 0.78543 0.50797 0.0
C122 C 0.22238 0.79032 0.19674 0.0
C123 C 0.33418 -0.03056 0.06619 0.0
O124 O 0.4297 0.64212 0.03438 0.0
O125 O 0.40151 0.77224 0.07002 0.0
O126 O 0.56068 0.21426 0.22629 0.0
Mg127 Mg 0.56583 0.15325 -0.0031 0.0
O128 O 0.62055 0.26553 0.12465 0.0
Mg129 Mg 0.60897 0.24631 0.83488 0.0
O130 O 0.60964 0.08515 0.85935 0.0
O131 O 0.58792 0.04442 0.11561 0.0
O132 O 0.60066 0.23745 0.54368 0.0
O133 O 0.68449 0.23909 0.78876 0.0
Mg134 Mg 0.64496 0.43161 0.61831 0.0
O135 O 0.60922 0.39208 0.81123 0.0
O136 O 0.6184 0.3646 0.41804 0.0
O137 O 0.70266 0.36808 0.67194 0.0
O138 O 0.61549 0.53209 0.7634 0.0
C139 C 0.50036 0.22146 0.85497 0.0
C140 C 0.59553 0.25205 0.24881 0.0
C141 C 0.60518 0.02451 -0.02505 0.0
C142 C 0.60534 0.28625 0.41302 0.0
C143 C 0.71213 0.29159 0.72373 0.0
C144 C 0.60007 0.47071 0.85528 0.0
O145 O 0.50571 0.14134 0.88797 0.0
O146 O 0.53285 0.27192 0.85063 0.0
O147 O 0.40368 0.25897 0.23064 0.0
Mg148 Mg 0.39334 0.32535 0.0064 0.0
O149 O 0.34365 0.19575 0.15816 0.0
Mg150 Mg 0.3496 0.21208 0.8613 0.0
O151 O 0.3382 0.36992 0.88919 0.0
O152 O 0.36866 0.43201 0.1163 0.0
O153 O 0.3561 0.2249 0.56301 0.0
O154 O 0.27585 0.19123 0.80657 0.0
Mg155 Mg 0.34181 0.02981 0.61758 0.0
O156 O 0.35621 0.06749 0.84855 0.0
O157 O 0.3809 0.09899 0.45615 0.0
O158 O 0.27886 0.08381 0.61124 0.0
O159 O 0.35531 0.92772 0.79236 0.0
C160 C 0.45688 0.25718 0.85463 0.0
C161 C 0.37163 0.21485 0.27015 0.0
C162 C 0.34072 0.43462 -0.00199 0.0
C163 C 0.36971 0.17825 0.43886 0.0
C164 C 0.25818 0.14211 0.69327 0.0
C165 C 0.35364 -0.01136 0.90338 0.0
O166 O 0.45054 0.33864 0.86949 0.0
O167 O 0.42552 0.2046 0.87008 0.0
loop_
_geom_bond_atom_site_label_1
_geom_bond_atom_site_label_2
_geom_bond_distance
_geom_bond_site_symmetry_2
_ccdc_geom_bond_type
O0 Mg1 1.990 . S
O0 C14 1.253 . S
Mg1 O0 1.990 . S
Mg1 O4 2.180 . S
Mg1 O5 2.117 1_545 S
Mg1 O19 2.030 1_556 S
O2 Mg3 2.072 . S
O2 C14 1.260 . S
Mg3 O2 2.072 . S
Mg3 O4 2.099 . S
Mg3 O6 2.079 . S
Mg3 O7 2.072 . S
Mg3 O9 2.099 . S
Mg3 O20 2.079 . S
O4 Mg1 2.180 . S
O4 Mg3 2.099 . S
O4 C15 1.279 . S
O5 Mg1 2.117 1_565 S
O5 C15 1.250 1_565 S
O6 Mg3 2.079 . S
O6 C16 1.264 . S
O7 Mg3 2.072 . S
O7 C17 1.260 . S
Mg8 O9 2.180 . S
Mg8 O10 2.030 . S
Mg8 O11 1.990 . S
Mg8 O12 2.117 . S
O9 Mg3 2.099 . S
O9 Mg8 2.180 . S
O9 C18 1.279 . S
O10 Mg8 2.030 . S
O10 C16 1.248 . S
O11 Mg8 1.990 . S
O11 C17 1.253 . S
O12 Mg8 2.117 . S
O12 C18 1.250 . S
C13 O19 1.248 . S
C13 O20 1.264 1_554 S
C14 O0 1.253 . S
C14 O2 1.260 . S
C15 O4 1.279 . S
C15 O5 1.250 1_545 S
C16 O6 1.264 . S
C16 O10 1.248 . S
C17 O7 1.260 . S
C17 O11 1.253 . S
C18 O9 1.279 . S
C18 O12 1.250 . S
O19 Mg1 2.030 1_554 S
O19 C13 1.248 . S
O20 Mg3 2.079 . S
O20 C13 1.264 1_556 S
O21 Mg22 1.990 . S
O21 C35 1.253 . S
Mg22 O21 1.990 . S
Mg22 O25 2.180 . S
Mg22 O26 2.117 1_545 S
Mg22 O40 2.030 . S
O23 Mg24 2.072 . S
O23 C35 1.260 . S
Mg24 O23 2.072 . S
Mg24 O25 2.099 . S
Mg24 O27 2.079 . S
Mg24 O28 2.072 . S
Mg24 O30 2.099 . S
Mg24 O41 2.079 . S
O25 Mg22 2.180 . S
O25 Mg24 2.099 . S
O25 C36 1.279 . S
O26 Mg22 2.117 1_565 S
O26 C36 1.250 1_565 S
O27 Mg24 2.079 . S
O27 C37 1.264 1_556 S
O28 Mg24 2.072 . S
O28 C38 1.260 . S
Mg29 O30 2.180 . S
Mg29 O31 2.030 1_556 S
Mg29 O32 1.990 . S
Mg29 O33 2.117 . S
O30 Mg24 2.099 . S
O30 Mg29 2.180 . S
O30 C39 1.279 . S
O31 Mg29 2.030 1_554 S
O31 C37 1.248 . S
O32 Mg29 1.990 . S
O32 C38 1.253 . S
O33 Mg29 2.117 . S
O33 C39 1.250 . S
C34 O40 1.248 . S
C34 O41 1.264 . S
C35 O21 1.253 . S
C35 O23 1.260 . S
C36 O25 1.279 . S
C36 O26 1.250 1_545 S
C37 O27 1.264 1_554 S
C37 O31 1.248 . S
C38 O28 1.260 . S
C38 O32 1.253 . S
C39 O30 1.279 . S
C39 O33 1.250 . S
O40 Mg22 2.030 . S
O40 C34 1.248 . S
O41 Mg24 2.079 . S
O41 C34 1.264 . S
O42 Mg43 1.990 . S
O42 C56 1.253 . S
Mg43 O42 1.990 . S
Mg43 O46 2.180 . S
Mg43 O47 2.117 . S
Mg43 O61 2.030 . S
O44 Mg45 2.072 . S
O44 C56 1.260 . S
Mg45 O44 2.072 . S
Mg45 O46 2.099 . S
Mg45 O48 2.079 . S
Mg45 O49 2.072 . S
Mg45 O51 2.099 . S
Mg45 O62 2.079 . S
O46 Mg43 2.180 . S
O46 Mg45 2.099 . S
O46 C57 1.279 . S
O47 Mg43 2.117 . S
O47 C57 1.250 . S
O48 Mg45 2.079 . S
O48 C58 1.264 1_554 S
O49 Mg45 2.072 . S
O49 C59 1.260 . S
Mg50 O51 2.180 . S
Mg50 O52 2.030 1_554 S
Mg50 O53 1.990 . S
Mg50 O54 2.117 1_565 S
O51 Mg45 2.099 . S
O51 Mg50 2.180 . S
O51 C60 1.279 . S
O52 Mg50 2.030 1_556 S
O52 C58 1.248 . S
O53 Mg50 1.990 . S
O53 C59 1.253 . S
O54 Mg50 2.117 1_545 S
O54 C60 1.250 1_545 S
C55 O61 1.248 . S
C55 O62 1.264 . S
C56 O42 1.253 . S
C56 O44 1.260 . S
C57 O46 1.279 . S
C57 O47 1.250 . S
C58 O48 1.264 1_556 S
C58 O52 1.248 . S
C59 O49 1.260 . S
C59 O53 1.253 . S
C60 O51 1.279 . S
C60 O54 1.250 1_565 S
O61 Mg43 2.030 . S
O61 C55 1.248 . S
O62 Mg45 2.079 . S
O62 C55 1.264 . S
O63 Mg64 1.990 . S
O63 C77 1.253 . S
Mg64 O63 1.990 . S
Mg64 O67 2.180 . S
Mg64 O68 2.117 1_565 S
Mg64 O82 2.030 . S
O65 Mg66 2.072 . S
O65 C77 1.260 . S
Mg66 O65 2.072 . S
Mg66 O67 2.099 . S
Mg66 O69 2.079 . S
Mg66 O70 2.072 . S
Mg66 O72 2.099 . S
Mg66 O83 2.079 . S
O67 Mg64 2.180 . S
O67 Mg66 2.099 . S
O67 C78 1.279 . S
O68 Mg64 2.117 1_545 S
O68 C78 1.250 1_545 S
O69 Mg66 2.079 . S
O69 C79 1.264 1_554 S
O70 Mg66 2.072 . S
O70 C80 1.260 . S
Mg71 O72 2.180 . S
Mg71 O73 2.030 1_554 S
Mg71 O74 1.990 . S
Mg71 O75 2.117 . S
O72 Mg66 2.099 . S
O72 Mg71 2.180 . S
O72 C81 1.279 . S
O73 Mg71 2.030 1_556 S
O73 C79 1.248 . S
O74 Mg71 1.990 . S
O74 C80 1.253 . S
O75 Mg71 2.117 . S
O75 C81 1.250 . S
C76 O82 1.248 . S
C76 O83 1.264 . S
C77 O63 1.253 . S
C77 O65 1.260 . S
C78 O67 1.279 . S
C78 O68 1.250 1_565 S
C79 O69 1.264 1_556 S
C79 O73 1.248 . S
C80 O70 1.260 . S
C80 O74 1.253 . S
C81 O72 1.279 . S
C81 O75 1.250 . S
O82 Mg64 2.030 . S
O82 C76 1.248 . S
O83 Mg66 2.079 . S
O83 C76 1.264 . S
O84 Mg85 1.990 . S
O84 C98 1.253 . S
Mg85 O84 1.990 . S
Mg85 O88 2.180 . S
Mg85 O89 2.117 . S
Mg85 O103 2.030 . S
O86 Mg87 2.072 . S
O86 C98 1.260 . S
Mg87 O86 2.072 . S
Mg87 O88 2.099 . S
Mg87 O90 2.079 . S
Mg87 O91 2.072 1_554 S
Mg87 O93 2.099 . S
Mg87 O104 2.079 . S
O88 Mg85 2.180 . S
O88 Mg87 2.099 . S
O88 C99 1.279 . S
O89 Mg85 2.117 . S
O89 C99 1.250 . S
O90 Mg87 2.079 . S
O90 C100 1.264 1_554 S
O91 Mg87 2.072 1_556 S
O91 C101 1.260 . S
Mg92 O93 2.180 1_556 S
Mg92 O94 2.030 . S
Mg92 O95 1.990 . S
Mg92 O96 2.117 1_565 S
O93 Mg87 2.099 . S
O93 Mg92 2.180 1_554 S
O93 C102 1.279 . S
O94 Mg92 2.030 . S
O94 C100 1.248 . S
O95 Mg92 1.990 . S
O95 C101 1.253 . S
O96 Mg92 2.117 1_545 S
O96 C102 1.250 1_546 S
C97 O103 1.248 . S
C97 O104 1.264 . S
C98 O84 1.253 . S
C98 O86 1.260 . S
C99 O88 1.279 . S
C99 O89 1.250 . S
C100 O90 1.264 1_556 S
C100 O94 1.248 . S
C101 O91 1.260 . S
C101 O95 1.253 . S
C102 O93 1.279 . S
C102 O96 1.250 1_564 S
O103 Mg85 2.030 . S
O103 C97 1.248 . S
O104 Mg87 2.079 . S
O104 C97 1.264 . S
O105 Mg106 1.990 . S
O105 C119 1.253 . S
Mg106 O105 1.990 . S
Mg106 O109 2.180 1_556 S
Mg106 O110 2.117 . S
Mg106 O124 2.030 . S
O107 Mg108 2.072 1_556 S
O107 C119 1.260 . S
Mg108 O107 2.072 1_554 S
Mg108 O109 2.099 . S
Mg108 O111 2.079 . S
Mg108 O112 2.072 . S
Mg108 O114 2.099 . S
Mg108 O125 2.079 . S
O109 Mg106 2.180 1_554 S
O109 Mg108 2.099 . S
O109 C120 1.279 . S
O110 Mg106 2.117 . S
O110 C120 1.250 1_556 S
O111 Mg108 2.079 . S
O111 C121 1.264 . S
O112 Mg108 2.072 . S
O112 C122 1.260 . S
Mg113 O114 2.180 . S
Mg113 O115 2.030 . S
Mg113 O116 1.990 . S
Mg113 O117 2.117 1_565 S
O114 Mg108 2.099 . S
O114 Mg113 2.180 . S
O114 C123 1.279 . S
O115 Mg113 2.030 . S
O115 C121 1.248 . S
O116 Mg113 1.990 . S
O116 C122 1.253 . S
O117 Mg113 2.117 1_545 S
O117 C123 1.250 1_545 S
C118 O124 1.248 . S
C118 O125 1.264 1_556 S
C119 O105 1.253 . S
C119 O107 1.260 . S
C120 O109 1.279 . S
C120 O110 1.250 1_554 S
C121 O111 1.264 . S
C121 O115 1.248 . S
C122 O112 1.260 . S
C122 O116 1.253 . S
C123 O114 1.279 . S
C123 O117 1.250 1_565 S
O124 Mg106 2.030 . S
O124 C118 1.248 . S
O125 Mg108 2.079 . S
O125 C118 1.264 1_554 S
O126 Mg127 1.990 . S
O126 C140 1.253 . S
Mg127 O126 1.990 . S
Mg127 O130 2.180 1_554 S
Mg127 O131 2.117 1_545 S
Mg127 O145 2.030 . S
O128 Mg129 2.072 1_554 S
O128 C140 1.260 . S
Mg129 O128 2.072 1_556 S
Mg129 O130 2.099 . S
Mg129 O132 2.079 . S
Mg129 O133 2.072 . S
Mg129 O135 2.099 . S
Mg129 O146 2.079 . S
O130 Mg127 2.180 1_556 S
O130 Mg129 2.099 . S
O130 C141 1.279 . S
O131 Mg127 2.117 1_565 S
O131 C141 1.250 1_564 S
O132 Mg129 2.079 . S
O132 C142 1.264 . S
O133 Mg129 2.072 . S
O133 C143 1.260 . S
Mg134 O135 2.180 . S
Mg134 O136 2.030 . S
Mg134 O137 1.990 . S
Mg134 O138 2.117 . S
O135 Mg129 2.099 . S
O135 Mg134 2.180 . S
O135 C144 1.279 . S
O136 Mg134 2.030 . S
O136 C142 1.248 . S
O137 Mg134 1.990 . S
O137 C143 1.253 . S
O138 Mg134 2.117 . S
O138 C144 1.250 . S
C139 O145 1.248 . S
C139 O146 1.264 1_554 S
C140 O126 1.253 . S
C140 O128 1.260 . S
C141 O130 1.279 . S
C141 O131 1.250 1_546 S
C142 O132 1.264 . S
C142 O136 1.248 . S
C143 O133 1.260 . S
C143 O137 1.253 . S
C144 O135 1.279 . S
C144 O138 1.250 . S
O145 Mg127 2.030 . S
O145 C139 1.248 . S
O146 Mg129 2.079 . S
O146 C139 1.264 1_556 S
O147 Mg148 1.990 . S
O147 C161 1.253 . S
Mg148 O147 1.990 . S
Mg148 O151 2.180 1_554 S
Mg148 O152 2.117 . S
Mg148 O166 2.030 . S
O149 Mg150 2.072 1_554 S
O149 C161 1.260 . S
Mg150 O149 2.072 1_556 S
Mg150 O151 2.099 . S
Mg150 O153 2.079 . S
Mg150 O154 2.072 . S
Mg150 O156 2.099 . S
Mg150 O167 2.079 . S
O151 Mg148 2.180 1_556 S
O151 Mg150 2.099 . S
O151 C162 1.279 . S
O152 Mg148 2.117 . S
O152 C162 1.250 1_554 S
O153 Mg150 2.079 . S
O153 C163 1.264 . S
O154 Mg150 2.072 . S
O154 C164 1.260 . S
Mg155 O156 2.180 . S
Mg155 O157 2.030 . S
Mg155 O158 1.990 . S
Mg155 O159 2.117 1_545 S
O156 Mg150 2.099 . S
O156 Mg155 2.180 . S
O156 C165 1.279 . S
O157 Mg155 2.030 . S
O157 C163 1.248 . S
O158 Mg155 1.990 . S
O158 C164 1.253 . S
O159 Mg155 2.117 1_565 S
O159 C165 1.250 1_565 S
C160 O166 1.248 . S
C160 O167 1.264 1_554 S
C161 O147 1.253 . S
C161 O149 1.260 . S
C162 O151 1.279 . S
C162 O152 1.250 1_556 S
C163 O153 1.264 . S
C163 O157 1.248 . S
C164 O154 1.260 . S
C164 O158 1.253 . S
C165 O156 1.279 . S
C165 O159 1.250 1_545 S
O166 Mg148 2.030 . S
O166 C160 1.248 . S
O167 Mg150 2.079 . S
O167 C160 1.264 1_556 S
C14 C164 1.661 . S
C143 C38 1.661 . S
C122 C59 1.661 . S
C98 C80 1.661 . S
C60 C15 1.290 1_565 S
C39 C81 1.290 . S
C78 C36 0.442 1_565 S
C57 C18 0.442 . S
C99 C144 1.290 1_554 S
C123 C165 1.290 1_564 S
C162 C120 0.442 1_556 S
C141 C102 0.442 1_546 S
C17 C13 1.162 . S
C35 C37 1.162 . S
C58 C56 1.162 . S
C77 C79 1.162 . S
C97 C101 1.162 . S
C119 C121 1.162 . S
C140 C142 1.162 . S
C161 C163 1.162 . S
C16 C34 1.580 1_455 S
C76 C55 1.580 1_655 S
C100 C118 1.580 . S
C160 C139 1.580 . S
