# Generated by pormake.
# Topology und, (4)-cn, num edge types: 1
# Building blocks:
#     Node 0, Type 0, BuildingBlock: GALJAG_clean_sbu_0, # of connection points: 4
#     Node 1, Type 0, BuildingBlock: GALJAG_clean_sbu_0, # of connection points: 4
#     Node 2, Type 0, BuildingBlock: GALJAG_clean_sbu_0, # of connection points: 4
#     Node 3, Type 0, BuildingBlock: GALJAG_clean_sbu_0, # of connection points: 4
#     Node 4, Type 0, BuildingBlock: GALJAG_clean_sbu_0, # of connection points: 4
#     Node 5, Type 0, BuildingBlock: GALJAG_clean_sbu_0, # of connection points: 4
#     Node 6, Type 0, BuildingBlock: GALJAG_clean_sbu_0, # of connection points: 4
#     Node 7, Type 0, BuildingBlock: GALJAG_clean_sbu_0, # of connection points: 4
#     Node 8, Type 0, BuildingBlock: GALJAG_clean_sbu_0, # of connection points: 4
#     Node 9, Type 0, BuildingBlock: GALJAG_clean_sbu_0, # of connection points: 4
#     Node 10, Type 0, BuildingBlock: GALJAG_clean_sbu_0, # of connection points: 4
#     Node 11, Type 0, BuildingBlock: GALJAG_clean_sbu_0, # of connection points: 4
#     Node 12, Type 0, BuildingBlock: GALJAG_clean_sbu_0, # of connection points: 4
#     Node 13, Type 0, BuildingBlock: GALJAG_clean_sbu_0, # of connection points: 4
#     Node 14, Type 0, BuildingBlock: GALJAG_clean_sbu_0, # of connection points: 4
#     Node 15, Type 0, BuildingBlock: GALJAG_clean_sbu_0, # of connection points: 4
#     Edge 16, Type (0, 0), None
#     Edge 17, Type (0, 0), None
#     Edge 18, Type (0, 0), None
#     Edge 19, Type (0, 0), None
#     Edge 20, Type (0, 0), None
#     Edge 21, Type (0, 0), None
#     Edge 22, Type (0, 0), None
#     Edge 23, Type (0, 0), None
#     Edge 24, Type (0, 0), None
#     Edge 25, Type (0, 0), None
#     Edge 26, Type (0, 0), None
#     Edge 27, Type (0, 0), None
#     Edge 28, Type (0, 0), None
#     Edge 29, Type (0, 0), None
#     Edge 30, Type (0, 0), None
#     Edge 31, Type (0, 0), None
#     Edge 32, Type (0, 0), None
#     Edge 33, Type (0, 0), None
#     Edge 34, Type (0, 0), None
#     Edge 35, Type (0, 0), None
#     Edge 36, Type (0, 0), None
#     Edge 37, Type (0, 0), None
#     Edge 38, Type (0, 0), None
#     Edge 39, Type (0, 0), None
#     Edge 40, Type (0, 0), None
#     Edge 41, Type (0, 0), None
#     Edge 42, Type (0, 0), None
#     Edge 43, Type (0, 0), None
#     Edge 44, Type (0, 0), None
#     Edge 45, Type (0, 0), None
#     Edge 46, Type (0, 0), None
#     Edge 47, Type (0, 0), None
# Relax obj value: 0.013
# Max RMSD: 0.035
# Mean RMSD: 0.035
data_MOF--net-und--node1-GALJAG_clean_sbu_0--edge1-none
_symmetry_space_group_name_H-M    P1
_symmetry_Int_Tables_number       1
_symmetry_cell_setting            triclinic
loop_
_symmetry_equiv_pos_as_xyz
'x, y, z'
_cell_length_a     27.866669
_cell_length_b     27.866668
_cell_length_c     9.5084496
_cell_angle_alpha  90.00707
_cell_angle_beta   90.005671
_cell_angle_gamma 90.000003
loop_
_atom_site_label
_atom_site_type_symbol
_atom_site_fract_x
_atom_site_fract_y
_atom_site_fract_z
_atom_type_partial_charge
In0 In 0.25983 0.34668 -0.02342 0.0
O1 O 0.19341 0.39429 0.9472 0.0
O2 O 0.22478 0.39025 0.15124 0.0
C3 C 0.25975 0.279 0.77879 0.0
C4 C 0.32741 0.40745 0.87858 0.0
C5 C 0.25989 0.279 0.17434 0.0
O6 O 0.22364 0.30586 0.7992 0.0
O7 O 0.29586 0.28718 0.85516 0.0
O8 O 0.29601 0.30586 0.15394 0.0
O9 O 0.22379 0.28719 0.09797 0.0
C10 C 0.19224 0.40745 0.07455 0.0
O11 O 0.32624 0.39431 0.00594 0.0
O12 O 0.29487 0.39024 0.8019 0.0
In13 In 0.92299 0.00986 0.22656 0.0
O14 O 0.87537 0.07627 0.25593 0.0
O15 O 0.87942 0.0449 0.05189 0.0
C16 C 0.99067 0.00993 0.42436 0.0
C17 C 0.86222 0.94227 0.32454 0.0
C18 C 0.99067 1.00979 0.0288 0.0
O19 O 0.96381 0.04604 0.40394 0.0
O20 O 0.98249 0.97382 0.34798 0.0
O21 O 0.96382 0.97367 0.0492 0.0
O22 O 0.98249 0.0459 0.10518 0.0
C23 C 0.86222 0.07744 0.12858 0.0
O24 O 0.87537 0.94344 0.19719 0.0
O25 O 0.87943 0.97481 0.40123 0.0
In26 In 0.25983 0.67303 0.47653 0.0
O27 O 0.32623 0.62539 0.44713 0.0
O28 O 0.29489 0.62947 0.6512 0.0
C29 C 0.25989 0.7407 0.27877 0.0
C30 C 0.19224 0.61225 0.37858 0.0
C31 C 0.25975 0.7407 0.67433 0.0
O32 O 0.29601 0.71385 0.2992 0.0
O33 O 0.22378 0.73251 0.35512 0.0
O34 O 0.22364 0.71384 0.65389 0.0
O35 O 0.29586 0.73252 0.59798 0.0
C36 C 0.32741 0.61225 0.57449 0.0
O37 O 0.19342 0.62541 0.50593 0.0
O38 O 0.22476 0.62946 0.30187 0.0
In39 In 0.59665 0.00986 0.72652 0.0
O40 O 0.64427 0.07626 0.69714 0.0
O41 O 0.64021 0.04492 0.9012 0.0
C42 C 0.52897 0.00993 0.52872 0.0
C43 C 0.65742 0.94227 0.62858 0.0
C44 C 0.52896 1.00979 0.92428 0.0
O45 O 0.55583 0.04605 0.54917 0.0
O46 O 0.53716 0.97382 0.60507 0.0
O47 O 0.55582 0.97367 0.90385 0.0
O48 O 0.53715 0.0459 0.84793 0.0
C49 C 0.65742 0.07744 0.82449 0.0
O50 O 0.64427 0.94345 0.75593 0.0
O51 O 0.6402 0.97479 0.55187 0.0
In52 In 0.75981 0.67303 -0.02347 0.0
O53 O 0.6934 0.6254 0.94715 0.0
O54 O 0.72476 0.62947 0.1512 0.0
C55 C 0.75975 0.74071 0.77877 0.0
C56 C 0.8274 0.61226 0.87856 0.0
C57 C 0.75989 0.74071 0.17433 0.0
O58 O 0.72363 0.71385 0.79918 0.0
O59 O 0.79586 0.73252 0.85515 0.0
O60 O 0.796 0.71385 0.15391 0.0
O61 O 0.72378 0.73252 0.09795 0.0
C62 C 0.69223 0.61225 0.0745 0.0
O63 O 0.82623 0.62541 0.00591 0.0
O64 O 0.79487 0.62946 0.80187 0.0
In65 In 0.09665 0.00986 0.7266 0.0
O66 O 0.14428 0.07627 0.75596 0.0
O67 O 0.14021 0.04491 0.55192 0.0
C68 C 0.02897 0.00993 0.92437 0.0
C69 C 0.15742 0.94228 0.82457 0.0
C70 C 0.02897 1.00979 0.52881 0.0
O71 O 0.05583 0.04605 0.90397 0.0
O72 O 0.03716 0.97382 0.84799 0.0
O73 O 0.05583 0.97368 0.54923 0.0
O74 O 0.03715 0.0459 0.60519 0.0
C75 C 0.15742 0.07744 0.62861 0.0
O76 O 0.14426 0.94344 0.69722 0.0
O77 O 0.14022 0.97481 0.90126 0.0
In78 In 0.75981 0.34668 0.47658 0.0
O79 O 0.69341 0.39431 0.50596 0.0
O80 O 0.72475 0.39023 0.3019 0.0
C81 C 0.75975 0.27901 0.67434 0.0
C82 C 0.8274 0.40746 0.57453 0.0
C83 C 0.75989 0.279 0.27878 0.0
O84 O 0.72363 0.30586 0.65392 0.0
O85 O 0.79585 0.28719 0.59799 0.0
O86 O 0.796 0.30586 0.29923 0.0
O87 O 0.72378 0.28719 0.35514 0.0
C88 C 0.69223 0.40746 0.3786 0.0
O89 O 0.82622 0.3943 0.44718 0.0
O90 O 0.79487 0.39025 0.65124 0.0
In91 In 0.42299 0.00987 0.22649 0.0
O92 O 0.37538 0.94346 0.2559 0.0
O93 O 0.37942 0.9748 0.05184 0.0
C94 C 0.49068 1.00979 0.42427 0.0
C95 C 0.36222 0.07744 0.32447 0.0
C96 C 0.49067 0.00993 0.02871 0.0
O97 O 0.46382 0.97368 0.40383 0.0
O98 O 0.48249 0.0459 0.34792 0.0
O99 O 0.46381 0.04605 0.04914 0.0
O100 O 0.48248 0.97382 0.10506 0.0
C101 C 0.36222 0.94227 0.12855 0.0
O102 O 0.37536 0.07626 0.19711 0.0
O103 O 0.37944 0.04493 0.40117 0.0
In104 In 0.75983 0.84669 0.47658 0.0
O105 O 0.69342 0.8943 0.44717 0.0
O106 O 0.72477 0.89026 0.65123 0.0
C107 C 0.75975 0.779 0.27879 0.0
C108 C 0.8274 0.90747 0.37862 0.0
C109 C 0.75989 0.77901 0.67434 0.0
O110 O 0.72364 0.80586 0.2992 0.0
O111 O 0.79586 0.78719 0.35516 0.0
O112 O 0.79601 0.80586 0.65394 0.0
O113 O 0.72378 0.7872 0.59797 0.0
C114 C 0.69225 0.90747 0.57451 0.0
O115 O 0.82623 0.89432 0.50597 0.0
O116 O 0.79488 0.89024 0.30191 0.0
In117 In 0.42299 0.50984 0.72651 0.0
O118 O 0.37538 0.57626 0.75591 0.0
O119 O 0.37942 0.54489 0.55185 0.0
C120 C 0.49067 0.50992 0.9243 0.0
C121 C 0.36221 0.44227 0.82449 0.0
C122 C 0.49067 0.50978 0.52874 0.0
O123 O 0.46381 0.54603 0.90388 0.0
O124 O 0.48249 0.47381 0.84792 0.0
O125 O 0.46381 0.47366 0.54914 0.0
O126 O 0.48248 0.54589 0.60512 0.0
C127 C 0.36221 0.57742 0.62856 0.0
O128 O 0.37536 0.44343 0.69714 0.0
O129 O 0.37943 0.47479 0.90119 0.0
In130 In 0.75983 0.17303 -0.02347 0.0
O131 O 0.82623 0.1254 0.94714 0.0
O132 O 0.79489 0.12947 0.1512 0.0
C133 C 0.75989 0.24071 0.77877 0.0
C134 C 0.69224 0.11225 0.87858 0.0
C135 C 0.75975 0.24071 0.17433 0.0
O136 O 0.79601 0.21385 0.7992 0.0
O137 O 0.72378 0.23252 0.85512 0.0
O138 O 0.72364 0.21385 0.15389 0.0
O139 O 0.79586 0.23252 0.09798 0.0
C140 C 0.8274 0.11225 0.07449 0.0
O141 O 0.69342 0.12541 0.00592 0.0
O142 O 0.72476 0.12946 0.80187 0.0
In143 In 0.09665 0.50984 0.22658 0.0
O144 O 0.14428 0.44345 0.25598 0.0
O145 O 0.1402 0.47478 0.05191 0.0
C146 C 0.02897 0.50978 0.42434 0.0
C147 C 0.15743 0.57743 0.32451 0.0
C148 C 0.02897 0.50992 0.02878 0.0
O149 O 0.05582 0.47366 0.40391 0.0
O150 O 0.03716 0.54589 0.348 0.0
O151 O 0.05583 0.54603 0.04923 0.0
O152 O 0.03715 0.47381 0.10513 0.0
C153 C 0.15743 0.44227 0.12863 0.0
O154 O 0.14427 0.57625 0.19716 0.0
O155 O 0.14021 0.54492 0.40123 0.0
In156 In 0.25981 0.17302 0.47653 0.0
O157 O 0.32623 0.12541 0.5059 0.0
O158 O 0.29486 0.12945 0.30186 0.0
C159 C 0.25989 0.2407 0.67433 0.0
C160 C 0.19224 0.11224 0.57451 0.0
C161 C 0.25975 0.2407 0.27878 0.0
O162 O 0.296 0.21384 0.65391 0.0
O163 O 0.22378 0.23252 0.59795 0.0
O164 O 0.22363 0.21385 0.29918 0.0
O165 O 0.29586 0.23252 0.35515 0.0
C166 C 0.32739 0.11225 0.37856 0.0
O167 O 0.1934 0.1254 0.44716 0.0
O168 O 0.22477 0.12946 0.65121 0.0
In169 In 0.59665 0.50986 0.22655 0.0
O170 O 0.64426 0.44344 0.19717 0.0
O171 O 0.64022 0.47481 0.40122 0.0
C172 C 0.52897 0.50978 0.02875 0.0
C173 C 0.65743 0.57743 0.12859 0.0
C174 C 0.52897 0.50992 0.4243 0.0
O175 O 0.55583 0.47367 0.04916 0.0
O176 O 0.53715 0.54589 0.10513 0.0
O177 O 0.55582 0.54604 0.40391 0.0
O178 O 0.53716 0.47381 0.34793 0.0
C179 C 0.65743 0.44228 0.32451 0.0
O180 O 0.64427 0.57627 0.25593 0.0
O181 O 0.64021 0.54491 0.05188 0.0
In182 In 0.25981 0.84668 -0.02342 0.0
O183 O 0.19341 0.89432 0.00599 0.0
O184 O 0.22474 0.89023 0.80192 0.0
C185 C 0.25975 0.779 0.17434 0.0
C186 C 0.3274 0.90746 0.07449 0.0
C187 C 0.25989 0.779 0.77878 0.0
O188 O 0.22363 0.80586 0.15392 0.0
O189 O 0.29586 0.78719 0.098 0.0
O190 O 0.296 0.80586 0.79923 0.0
O191 O 0.22378 0.78719 0.85513 0.0
C192 C 0.19223 0.90746 0.87864 0.0
O193 O 0.32621 0.8943 0.94715 0.0
O194 O 0.29489 0.89025 0.15122 0.0
In195 In 0.92299 0.50986 0.72654 0.0
O196 O 0.87536 0.57626 0.69714 0.0
O197 O 0.87944 0.54493 0.9012 0.0
C198 C 0.99067 0.50992 0.52878 0.0
C199 C 0.86221 0.44228 0.62861 0.0
C200 C 0.99067 0.50978 0.92433 0.0
O201 O 0.96382 0.54604 0.54921 0.0
O202 O 0.98248 0.47381 0.60512 0.0
O203 O 0.96381 0.47367 0.90389 0.0
O204 O 0.98249 0.54589 0.84799 0.0
C205 C 0.86221 0.57744 0.82448 0.0
O206 O 0.87537 0.44346 0.75595 0.0
O207 O 0.87943 0.47479 0.55188 0.0
loop_
_geom_bond_atom_site_label_1
_geom_bond_atom_site_label_2
_geom_bond_distance
_geom_bond_site_symmetry_2
_ccdc_geom_bond_type
In0 O1 2.294 1_554 S
In0 O2 2.326 . S
In0 O6 2.266 1_554 S
In0 O7 2.326 1_554 S
In0 O8 2.266 . S
In0 O9 2.326 . S
In0 O11 2.294 . S
In0 O12 2.326 1_554 S
O1 In0 2.294 1_556 S
O1 C10 1.240 1_556 S
O2 In0 2.326 . S
O2 C10 1.252 . S
C3 O6 1.252 . S
C3 O7 1.260 . S
C4 O11 1.240 1_556 S
C4 O12 1.252 . S
C5 O8 1.252 . S
C5 O9 1.260 . S
O6 In0 2.266 1_556 S
O6 C3 1.252 . S
O7 In0 2.326 1_556 S
O7 C3 1.260 . S
O8 In0 2.266 . S
O8 C5 1.252 . S
O9 In0 2.326 . S
O9 C5 1.260 . S
C10 O1 1.240 1_554 S
C10 O2 1.252 . S
O11 In0 2.294 . S
O11 C4 1.240 1_554 S
O12 In0 2.326 1_556 S
O12 C4 1.252 . S
In13 O14 2.294 . S
In13 O15 2.326 . S
In13 O19 2.266 . S
In13 O20 2.326 1_545 S
In13 O21 2.266 1_545 S
In13 O22 2.326 . S
In13 O24 2.294 1_545 S
In13 O25 2.326 1_545 S
O14 In13 2.294 . S
O14 C23 1.240 . S
O15 In13 2.326 . S
O15 C23 1.252 . S
C16 O19 1.252 . S
C16 O20 1.260 1_545 S
C17 O24 1.240 . S
C17 O25 1.252 . S
C18 O21 1.252 1_545 S
C18 O22 1.260 . S
O19 In13 2.266 . S
O19 C16 1.252 . S
O20 In13 2.326 1_565 S
O20 C16 1.260 1_565 S
O21 In13 2.266 1_565 S
O21 C18 1.252 1_565 S
O22 In13 2.326 . S
O22 C18 1.260 . S
C23 O14 1.240 . S
C23 O15 1.252 . S
O24 In13 2.294 1_565 S
O24 C17 1.240 . S
O25 In13 2.326 1_565 S
O25 C17 1.252 . S
In26 O27 2.294 . S
In26 O28 2.326 . S
In26 O32 2.266 . S
In26 O33 2.326 . S
In26 O34 2.266 . S
In26 O35 2.326 . S
In26 O37 2.294 . S
In26 O38 2.326 . S
O27 In26 2.294 . S
O27 C36 1.240 . S
O28 In26 2.326 . S
O28 C36 1.252 . S
C29 O32 1.252 . S
C29 O33 1.260 . S
C30 O37 1.240 . S
C30 O38 1.252 . S
C31 O34 1.252 . S
C31 O35 1.260 . S
O32 In26 2.266 . S
O32 C29 1.252 . S
O33 In26 2.326 . S
O33 C29 1.260 . S
O34 In26 2.266 . S
O34 C31 1.252 . S
O35 In26 2.326 . S
O35 C31 1.260 . S
C36 O27 1.240 . S
C36 O28 1.252 . S
O37 In26 2.294 . S
O37 C30 1.240 . S
O38 In26 2.326 . S
O38 C30 1.252 . S
In39 O40 2.294 . S
In39 O41 2.326 . S
In39 O45 2.266 . S
In39 O46 2.326 1_545 S
In39 O47 2.266 1_545 S
In39 O48 2.326 . S
In39 O50 2.294 1_545 S
In39 O51 2.326 1_545 S
O40 In39 2.294 . S
O40 C49 1.240 . S
O41 In39 2.326 . S
O41 C49 1.252 . S
C42 O45 1.252 . S
C42 O46 1.260 1_545 S
C43 O50 1.240 . S
C43 O51 1.252 . S
C44 O47 1.252 1_545 S
C44 O48 1.260 . S
O45 In39 2.266 . S
O45 C42 1.252 . S
O46 In39 2.326 1_565 S
O46 C42 1.260 1_565 S
O47 In39 2.266 1_565 S
O47 C44 1.252 1_565 S
O48 In39 2.326 . S
O48 C44 1.260 . S
C49 O40 1.240 . S
C49 O41 1.252 . S
O50 In39 2.294 1_565 S
O50 C43 1.240 . S
O51 In39 2.326 1_565 S
O51 C43 1.252 . S
In52 O53 2.294 1_554 S
In52 O54 2.326 . S
In52 O58 2.266 1_554 S
In52 O59 2.326 1_554 S
In52 O60 2.266 . S
In52 O61 2.326 . S
In52 O63 2.294 . S
In52 O64 2.326 1_554 S
O53 In52 2.294 1_556 S
O53 C62 1.240 1_556 S
O54 In52 2.326 . S
O54 C62 1.252 . S
C55 O58 1.252 . S
C55 O59 1.260 . S
C56 O63 1.240 1_556 S
C56 O64 1.252 . S
C57 O60 1.252 . S
C57 O61 1.260 . S
O58 In52 2.266 1_556 S
O58 C55 1.252 . S
O59 In52 2.326 1_556 S
O59 C55 1.260 . S
O60 In52 2.266 . S
O60 C57 1.252 . S
O61 In52 2.326 . S
O61 C57 1.260 . S
C62 O53 1.240 1_554 S
C62 O54 1.252 . S
O63 In52 2.294 . S
O63 C56 1.240 1_554 S
O64 In52 2.326 1_556 S
O64 C56 1.252 . S
In65 O66 2.294 . S
In65 O67 2.326 . S
In65 O71 2.266 . S
In65 O72 2.326 1_545 S
In65 O73 2.266 1_545 S
In65 O74 2.326 . S
In65 O76 2.294 1_545 S
In65 O77 2.326 1_545 S
O66 In65 2.294 . S
O66 C75 1.240 . S
O67 In65 2.326 . S
O67 C75 1.252 . S
C68 O71 1.252 . S
C68 O72 1.260 1_545 S
C69 O76 1.240 . S
C69 O77 1.252 . S
C70 O73 1.252 1_545 S
C70 O74 1.260 . S
O71 In65 2.266 . S
O71 C68 1.252 . S
O72 In65 2.326 1_565 S
O72 C68 1.260 1_565 S
O73 In65 2.266 1_565 S
O73 C70 1.252 1_565 S
O74 In65 2.326 . S
O74 C70 1.260 . S
C75 O66 1.240 . S
C75 O67 1.252 . S
O76 In65 2.294 1_565 S
O76 C69 1.240 . S
O77 In65 2.326 1_565 S
O77 C69 1.252 . S
In78 O79 2.294 . S
In78 O80 2.326 . S
In78 O84 2.266 . S
In78 O85 2.326 . S
In78 O86 2.266 . S
In78 O87 2.326 . S
In78 O89 2.294 . S
In78 O90 2.326 . S
O79 In78 2.294 . S
O79 C88 1.240 . S
O80 In78 2.326 . S
O80 C88 1.252 . S
C81 O84 1.252 . S
C81 O85 1.260 . S
C82 O89 1.240 . S
C82 O90 1.252 . S
C83 O86 1.252 . S
C83 O87 1.260 . S
O84 In78 2.266 . S
O84 C81 1.252 . S
O85 In78 2.326 . S
O85 C81 1.260 . S
O86 In78 2.266 . S
O86 C83 1.252 . S
O87 In78 2.326 . S
O87 C83 1.260 . S
C88 O79 1.240 . S
C88 O80 1.252 . S
O89 In78 2.294 . S
O89 C82 1.240 . S
O90 In78 2.326 . S
O90 C82 1.252 . S
In91 O92 2.294 1_545 S
In91 O93 2.326 1_545 S
In91 O97 2.266 1_545 S
In91 O98 2.326 . S
In91 O99 2.266 . S
In91 O100 2.326 1_545 S
In91 O102 2.294 . S
In91 O103 2.326 . S
O92 In91 2.294 1_565 S
O92 C101 1.240 . S
O93 In91 2.326 1_565 S
O93 C101 1.252 . S
C94 O97 1.252 1_545 S
C94 O98 1.260 . S
C95 O102 1.240 . S
C95 O103 1.252 . S
C96 O99 1.252 . S
C96 O100 1.260 1_545 S
O97 In91 2.266 1_565 S
O97 C94 1.252 1_565 S
O98 In91 2.326 . S
O98 C94 1.260 . S
O99 In91 2.266 . S
O99 C96 1.252 . S
O100 In91 2.326 1_565 S
O100 C96 1.260 1_565 S
C101 O92 1.240 . S
C101 O93 1.252 . S
O102 In91 2.294 . S
O102 C95 1.240 . S
O103 In91 2.326 . S
O103 C95 1.252 . S
In104 O105 2.294 . S
In104 O106 2.326 . S
In104 O110 2.266 . S
In104 O111 2.326 . S
In104 O112 2.266 . S
In104 O113 2.326 . S
In104 O115 2.294 . S
In104 O116 2.326 . S
O105 In104 2.294 . S
O105 C114 1.240 . S
O106 In104 2.326 . S
O106 C114 1.252 . S
C107 O110 1.252 . S
C107 O111 1.260 . S
C108 O115 1.240 . S
C108 O116 1.252 . S
C109 O112 1.252 . S
C109 O113 1.260 . S
O110 In104 2.266 . S
O110 C107 1.252 . S
O111 In104 2.326 . S
O111 C107 1.260 . S
O112 In104 2.266 . S
O112 C109 1.252 . S
O113 In104 2.326 . S
O113 C109 1.260 . S
C114 O105 1.240 . S
C114 O106 1.252 . S
O115 In104 2.294 . S
O115 C108 1.240 . S
O116 In104 2.326 . S
O116 C108 1.252 . S
In117 O118 2.294 . S
In117 O119 2.326 . S
In117 O123 2.266 . S
In117 O124 2.326 . S
In117 O125 2.266 . S
In117 O126 2.326 . S
In117 O128 2.294 . S
In117 O129 2.326 . S
O118 In117 2.294 . S
O118 C127 1.240 . S
O119 In117 2.326 . S
O119 C127 1.252 . S
C120 O123 1.252 . S
C120 O124 1.260 . S
C121 O128 1.240 . S
C121 O129 1.252 . S
C122 O125 1.252 . S
C122 O126 1.260 . S
O123 In117 2.266 . S
O123 C120 1.252 . S
O124 In117 2.326 . S
O124 C120 1.260 . S
O125 In117 2.266 . S
O125 C122 1.252 . S
O126 In117 2.326 . S
O126 C122 1.260 . S
C127 O118 1.240 . S
C127 O119 1.252 . S
O128 In117 2.294 . S
O128 C121 1.240 . S
O129 In117 2.326 . S
O129 C121 1.252 . S
In130 O131 2.294 1_554 S
In130 O132 2.326 . S
In130 O136 2.266 1_554 S
In130 O137 2.326 1_554 S
In130 O138 2.266 . S
In130 O139 2.326 . S
In130 O141 2.294 . S
In130 O142 2.326 1_554 S
O131 In130 2.294 1_556 S
O131 C140 1.240 1_556 S
O132 In130 2.326 . S
O132 C140 1.252 . S
C133 O136 1.252 . S
C133 O137 1.260 . S
C134 O141 1.240 1_556 S
C134 O142 1.252 . S
C135 O138 1.252 . S
C135 O139 1.260 . S
O136 In130 2.266 1_556 S
O136 C133 1.252 . S
O137 In130 2.326 1_556 S
O137 C133 1.260 . S
O138 In130 2.266 . S
O138 C135 1.252 . S
O139 In130 2.326 . S
O139 C135 1.260 . S
C140 O131 1.240 1_554 S
C140 O132 1.252 . S
O141 In130 2.294 . S
O141 C134 1.240 1_554 S
O142 In130 2.326 1_556 S
O142 C134 1.252 . S
In143 O144 2.294 . S
In143 O145 2.326 . S
In143 O149 2.266 . S
In143 O150 2.326 . S
In143 O151 2.266 . S
In143 O152 2.326 . S
In143 O154 2.294 . S
In143 O155 2.326 . S
O144 In143 2.294 . S
O144 C153 1.240 . S
O145 In143 2.326 . S
O145 C153 1.252 . S
C146 O149 1.252 . S
C146 O150 1.260 . S
C147 O154 1.240 . S
C147 O155 1.252 . S
C148 O151 1.252 . S
C148 O152 1.260 . S
O149 In143 2.266 . S
O149 C146 1.252 . S
O150 In143 2.326 . S
O150 C146 1.260 . S
O151 In143 2.266 . S
O151 C148 1.252 . S
O152 In143 2.326 . S
O152 C148 1.260 . S
C153 O144 1.240 . S
C153 O145 1.252 . S
O154 In143 2.294 . S
O154 C147 1.240 . S
O155 In143 2.326 . S
O155 C147 1.252 . S
In156 O157 2.294 . S
In156 O158 2.326 . S
In156 O162 2.266 . S
In156 O163 2.326 . S
In156 O164 2.266 . S
In156 O165 2.326 . S
In156 O167 2.294 . S
In156 O168 2.326 . S
O157 In156 2.294 . S
O157 C166 1.240 . S
O158 In156 2.326 . S
O158 C166 1.252 . S
C159 O162 1.252 . S
C159 O163 1.260 . S
C160 O167 1.240 . S
C160 O168 1.252 . S
C161 O164 1.252 . S
C161 O165 1.260 . S
O162 In156 2.266 . S
O162 C159 1.252 . S
O163 In156 2.326 . S
O163 C159 1.260 . S
O164 In156 2.266 . S
O164 C161 1.252 . S
O165 In156 2.326 . S
O165 C161 1.260 . S
C166 O157 1.240 . S
C166 O158 1.252 . S
O167 In156 2.294 . S
O167 C160 1.240 . S
O168 In156 2.326 . S
O168 C160 1.252 . S
In169 O170 2.294 . S
In169 O171 2.326 . S
In169 O175 2.266 . S
In169 O176 2.326 . S
In169 O177 2.266 . S
In169 O178 2.326 . S
In169 O180 2.294 . S
In169 O181 2.326 . S
O170 In169 2.294 . S
O170 C179 1.240 . S
O171 In169 2.326 . S
O171 C179 1.252 . S
C172 O175 1.252 . S
C172 O176 1.260 . S
C173 O180 1.240 . S
C173 O181 1.252 . S
C174 O177 1.252 . S
C174 O178 1.260 . S
O175 In169 2.266 . S
O175 C172 1.252 . S
O176 In169 2.326 . S
O176 C172 1.260 . S
O177 In169 2.266 . S
O177 C174 1.252 . S
O178 In169 2.326 . S
O178 C174 1.260 . S
C179 O170 1.240 . S
C179 O171 1.252 . S
O180 In169 2.294 . S
O180 C173 1.240 . S
O181 In169 2.326 . S
O181 C173 1.252 . S
In182 O183 2.294 . S
In182 O184 2.326 1_554 S
In182 O188 2.266 . S
In182 O189 2.326 . S
In182 O190 2.266 1_554 S
In182 O191 2.326 1_554 S
In182 O193 2.294 1_554 S
In182 O194 2.326 . S
O183 In182 2.294 . S
O183 C192 1.240 1_554 S
O184 In182 2.326 1_556 S
O184 C192 1.252 . S
C185 O188 1.252 . S
C185 O189 1.260 . S
C186 O193 1.240 1_554 S
C186 O194 1.252 . S
C187 O190 1.252 . S
C187 O191 1.260 . S
O188 In182 2.266 . S
O188 C185 1.252 . S
O189 In182 2.326 . S
O189 C185 1.260 . S
O190 In182 2.266 1_556 S
O190 C187 1.252 . S
O191 In182 2.326 1_556 S
O191 C187 1.260 . S
C192 O183 1.240 1_556 S
C192 O184 1.252 . S
O193 In182 2.294 1_556 S
O193 C186 1.240 1_556 S
O194 In182 2.326 . S
O194 C186 1.252 . S
In195 O196 2.294 . S
In195 O197 2.326 . S
In195 O201 2.266 . S
In195 O202 2.326 . S
In195 O203 2.266 . S
In195 O204 2.326 . S
In195 O206 2.294 . S
In195 O207 2.326 . S
O196 In195 2.294 . S
O196 C205 1.240 . S
O197 In195 2.326 . S
O197 C205 1.252 . S
C198 O201 1.252 . S
C198 O202 1.260 . S
C199 O206 1.240 . S
C199 O207 1.252 . S
C200 O203 1.252 . S
C200 O204 1.260 . S
O201 In195 2.266 . S
O201 C198 1.252 . S
O202 In195 2.326 . S
O202 C198 1.260 . S
O203 In195 2.266 . S
O203 C200 1.252 . S
O204 In195 2.326 . S
O204 C200 1.260 . S
C205 O196 1.240 . S
C205 O197 1.252 . S
O206 In195 2.294 . S
O206 C199 1.240 . S
O207 In195 2.326 . S
O207 C199 1.252 . S
C5 C161 1.471 . S
C16 C70 1.471 1_655 S
C31 C187 1.472 . S
C96 C44 1.471 1_554 S
C185 C29 1.471 . S
C94 C42 1.471 . S
C159 C3 1.472 . S
C68 C18 1.471 1_456 S
C55 C109 1.472 . S
C83 C135 1.471 . S
C133 C81 1.472 . S
C57 C107 1.471 . S
C172 C120 1.471 1_554 S
C146 C198 1.471 1_455 S
C148 C200 1.471 1_454 S
C122 C174 1.471 . S
C153 C10 1.569 . S
C108 C17 1.570 . S
C36 C127 1.569 . S
C134 C49 1.568 . S
C147 C30 1.569 . S
C43 C114 1.570 . S
C121 C4 1.569 . S
C140 C23 1.567 . S
C56 C205 1.569 . S
C160 C75 1.567 . S
C88 C179 1.569 . S
C101 C186 1.570 . S
C82 C199 1.569 . S
C166 C95 1.567 . S
C173 C62 1.569 . S
C192 C69 1.571 . S
