# Generated by pormake.
# Topology hex, (8)-cn, num edge types: 1
# Building blocks:
#     Node 0, Type 0, BuildingBlock: XADDAJ01_clean_sbu_3, # of connection points: 8
#     Edge 1, Type (0, 0), BuildingBlock: TEMPAE_clean_linker_10, # of connection points: 2
#     Edge 2, Type (0, 0), BuildingBlock: TEMPAE_clean_linker_10, # of connection points: 2
#     Edge 3, Type (0, 0), BuildingBlock: TEMPAE_clean_linker_10, # of connection points: 2
#     Edge 4, Type (0, 0), BuildingBlock: TEMPAE_clean_linker_10, # of connection points: 2
# Relax obj value: 0.035
# Max RMSD: 0.097
# Mean RMSD: 0.097
data_MOF--net-hex--node1-XADDAJ01_clean_sbu_3--edge1-TEMPAE_clean_linker_10
_symmetry_space_group_name_H-M    P1
_symmetry_Int_Tables_number       1
_symmetry_cell_setting            triclinic
loop_
_symmetry_equiv_pos_as_xyz
'x, y, z'
_cell_length_a     21.681461
_cell_length_b     18.243399
_cell_length_c     15.079829
_cell_angle_alpha  113.30662
_cell_angle_beta   98.301045
_cell_angle_gamma 113.0135
loop_
_atom_site_label
_atom_site_type_symbol
_atom_site_fract_x
_atom_site_fract_y
_atom_site_fract_z
_atom_type_partial_charge
C0 C 0.79113 0.83001 0.9123 0.0
C1 C 0.77811 0.77635 0.96104 0.0
C2 C 0.71751 0.7542 -0.00972 0.0
C3 C 0.66987 0.78418 0.96889 0.0
C4 C 0.68116 0.83545 0.9186 0.0
C5 C 0.74269 0.86005 0.89213 0.0
O6 O 1.02681 0.93993 0.0846 0.0
Tb7 Tb 0.97774 0.87822 0.91913 0.0
Tb8 Tb 0.08936 0.11195 0.04165 0.0
O9 O 0.98397 0.75799 0.90413 0.0
O10 O 0.03581 0.082 0.14354 0.0
O11 O 0.8686 0.78592 0.83599 0.0
C12 C 0.20532 0.11007 0.06784 0.0
O13 O 0.90874 0.93339 0.93517 0.0
O14 O 1.02552 0.05163 0.88182 0.0
O15 O 1.02772 0.91712 0.81806 0.0
C16 C 0.85216 0.85124 0.876 0.0
C17 C 0.06584 0.27617 0.08227 0.0
O18 O 1.01985 0.2393 0.12044 0.0
C19 C 1.02576 0.01055 0.15425 0.0
C20 C 1.02567 0.98385 0.80625 0.0
O21 O 0.10585 0.24028 0.05046 0.0
C22 C 0.26694 0.12784 0.03156 0.0
C23 C 0.34392 0.07332 0.95773 0.0
C24 C 0.28266 0.05651 -0.01468 0.0
C25 C 0.31467 0.21697 0.0523 0.0
C26 C 0.37721 0.23412 0.02805 0.0
C27 C 0.39018 0.16179 0.97877 0.0
C28 C 0.04618 0.76858 0.94812 0.0
O29 O 0.10331 0.84997 -0.00863 0.0
O30 O 0.19898 0.18141 0.12461 0.0
O31 O 0.14332 0.03672 0.00237 0.0
H32 H 0.8141 0.75108 0.97481 0.0
H33 H 0.62191 0.76471 -0.01143 0.0
H34 H 0.75155 0.89973 0.85282 0.0
H35 H 0.24825 -0.01129 0.97285 0.0
H36 H 0.30512 0.27355 0.09092 0.0
H37 H 0.43882 0.17555 0.96071 0.0
C38 C 0.0428 0.40795 0.12188 0.0
C39 C 0.06696 0.35067 0.06414 0.0
C40 C 0.0407 0.47611 0.10186 0.0
C41 C 0.0615 0.48556 0.02039 0.0
C42 C 0.08562 0.42752 0.96155 0.0
C43 C 0.08888 0.36157 -0.01504 0.0
C44 C 1.01618 0.53798 0.16786 0.0
C45 C 0.10689 0.43407 0.87278 0.0
C46 C 0.99133 0.6057 0.912 0.0
C47 C 0.05103 0.69391 0.96023 0.0
C48 C 0.9944 0.53662 0.92918 0.0
C49 C 0.05839 0.55656 -0.00278 0.0
C50 C 0.1191 0.64506 0.04485 0.0
C51 C 0.11483 0.71236 0.02527 0.0
C52 C 0.92886 0.44262 0.87562 0.0
C53 C 0.18812 0.66943 0.1186 0.0
H54 H 1.02593 0.39983 0.18323 0.0
H55 H 0.1067 0.31664 0.93912 0.0
H56 H 0.0583 0.61081 0.20374 0.0
H57 H 0.96759 0.52943 0.11921 0.0
H58 H 1.00378 0.5235 0.23002 0.0
H59 H 0.12315 0.38267 0.83335 0.0
H60 H 0.06145 0.42352 0.81533 0.0
H61 H 0.15206 0.50357 0.90091 0.0
H62 H 0.94189 0.59079 0.86153 0.0
H63 H 0.16124 0.78035 0.06323 0.0
H64 H 0.90953 0.42729 0.93374 0.0
H65 H 0.94257 0.38958 0.83236 0.0
H66 H 0.88451 0.4368 0.82113 0.0
H67 H 0.17846 0.6615 0.18537 0.0
H68 H 0.23085 0.74089 0.14794 0.0
H69 H 0.20774 0.62198 0.07998 0.0
C70 C 0.6425 0.95132 0.93824 0.0
C71 C 0.62612 0.85961 0.89271 0.0
C72 C 0.58768 0.97398 0.93251 0.0
C73 C 0.51514 0.90301 0.8791 0.0
C74 C 0.49895 0.81045 0.82713 0.0
C75 C 0.55469 0.78984 0.83519 0.0
C76 C 0.60712 0.07364 -0.01121 0.0
C77 C 0.42263 0.733 0.76781 0.0
C78 C 0.3867 0.97308 -0.01578 0.0
C79 C 0.36739 0.00438 0.9197 0.0
C80 C 0.43139 0.93418 0.96787 0.0
C81 C 0.45661 0.92603 0.88462 0.0
C82 C 0.4313 0.94919 0.81347 0.0
C83 C 0.38716 -0.01142 0.83219 0.0
C84 C 0.45665 0.90951 0.04503 0.0
C85 C 0.45553 0.93966 0.72251 0.0
H86 H 0.69771 0.00498 0.98346 0.0
H87 H 0.54227 0.71877 0.80001 0.0
H88 H 0.58226 0.09083 0.93591 0.0
H89 H 0.58587 0.08636 0.05278 0.0
H90 H 0.66597 0.12055 0.02147 0.0
H91 H 0.4198 0.66631 0.72064 0.0
H92 H 0.39465 0.72655 0.82261 0.0
H93 H 0.39317 0.74738 0.71622 0.0
H94 H 0.37212 0.98639 0.05253 0.0
H95 H 0.37231 0.01325 0.78257 0.0
H96 H 0.51427 0.95921 0.09133 0.0
H97 H 0.45122 0.84039 0.00488 0.0
H98 H 0.42632 0.91056 0.09853 0.0
H99 H 0.51182 -0.00563 0.75011 0.0
H100 H 0.42199 0.94574 0.66565 0.0
H101 H 0.45386 0.87274 0.68294 0.0
C102 C 0.41782 0.37501 0.01197 0.0
C103 C 0.43257 0.32727 0.05723 0.0
C104 C 0.4738 0.4525 0.01958 0.0
C105 C 0.54579 0.48254 0.07411 0.0
C106 C 0.56022 0.43831 0.12629 0.0
C107 C 0.50336 0.36091 0.11689 0.0
C108 C 0.45624 0.49853 0.96363 0.0
C109 C 0.63589 0.46886 0.18635 0.0
C110 C 0.6754 0.59832 0.96709 0.0
C111 C 0.69612 0.69035 0.03111 0.0
C112 C 0.63011 0.52989 -0.01538 0.0
C113 C 0.60561 0.55475 0.06836 0.0
C114 C 0.63284 0.64851 0.13947 0.0
C115 C 0.67784 0.71537 0.11984 0.0
C116 C 0.6032 0.43062 0.9079 0.0
C117 C 0.60931 0.67805 0.23079 0.0
H118 H 0.36312 0.34834 0.96524 0.0
H119 H 0.5145 0.32361 0.15193 0.0
H120 H 0.48271 0.57362 0.01646 0.0
H121 H 0.47703 0.48753 0.89914 0.0
H122 H 0.39766 0.47147 0.93161 0.0
H123 H 0.63728 0.43613 0.23447 0.0
H124 H 0.66358 0.45034 0.13187 0.0
H125 H 0.66657 0.54446 0.23709 0.0
H126 H 0.68895 0.57904 0.89795 0.0
H127 H 0.69389 0.78682 0.16911 0.0
H128 H 0.54581 0.39799 0.8615 0.0
H129 H 0.60721 0.39259 0.94843 0.0
H130 H 0.63345 0.4232 0.85444 0.0
H131 H 0.55402 0.66581 0.20364 0.0
H132 H 0.6448 0.75208 0.28807 0.0
H133 H 0.60854 0.63745 0.2697 0.0
C134 C 0.04513 0.9349 0.63727 0.0
C135 C 1.01996 0.98229 0.70674 0.0
C136 C 0.04418 0.93933 0.54617 0.0
C137 C 1.01596 -0.00931 0.5235 0.0
C138 C 0.98848 0.03624 0.59201 0.0
C139 C 0.99152 0.03228 0.68327 0.0
C140 C 0.07506 0.89114 0.47558 0.0
C141 C 0.95645 0.0899 0.56946 0.0
C142 C 0.07527 0.07985 0.34456 0.0
C143 C 1.01998 0.01144 0.25019 0.0
C144 C 0.07487 0.07362 0.43435 0.0
C145 C 1.01661 -0.00131 0.42936 0.0
C146 C 0.95916 0.9315 0.33446 0.0
C147 C 0.96233 0.93778 0.2454 0.0
C148 C 0.13779 0.14546 0.53367 0.0
C149 C 0.89485 0.85253 0.32667 0.0
H150 H 0.06754 0.89675 0.65564 0.0
H151 H 0.9714 0.06846 0.7364 0.0
H152 H 1.03392 0.84125 0.39722 0.0
H153 H 0.12009 0.94187 0.46803 0.0
H154 H 0.09492 0.85409 0.50426 0.0
H155 H 0.93366 0.11689 0.62783 0.0
H156 H 0.99804 0.1486 0.56797 0.0
H157 H 0.91349 0.04586 0.49218 0.0
H158 H 0.12031 0.13581 0.34709 0.0
H159 H 0.91982 0.88489 0.17164 0.0
H160 H 0.16292 0.11241 0.56175 0.0
H161 H 0.11943 0.17955 0.59429 0.0
H162 H 0.17914 0.19871 0.52417 0.0
H163 H 0.91152 0.80818 0.34448 0.0
H164 H 0.85268 0.8098 0.2486 0.0
H165 H 0.87133 0.87875 0.3842 0.0
loop_
_geom_bond_atom_site_label_1
_geom_bond_atom_site_label_2
_geom_bond_distance
_geom_bond_site_symmetry_2
_ccdc_geom_bond_type
C0 C1 1.386 . S
C0 C5 1.384 . S
C0 C16 1.497 . S
C1 C0 1.386 . S
C1 C2 1.393 1_556 S
C1 H32 0.932 . S
C2 C1 1.393 1_554 S
C2 C3 1.387 . S
C3 C2 1.387 . S
C3 C4 1.392 1_554 S
C3 H33 0.930 . S
C4 C3 1.392 1_556 S
C4 C5 1.402 . S
C5 C0 1.384 . S
C5 C4 1.402 . S
C5 H34 0.930 . S
O6 Tb7 2.288 1_554 S
O6 C19 1.257 1_665 S
Tb7 O6 2.288 1_556 S
Tb7 O9 2.303 . S
Tb7 O11 2.430 . S
Tb7 O13 2.459 . S
Tb7 O15 2.301 . S
Tb7 C16 2.808 . S
Tb8 O10 2.301 . S
Tb8 C12 2.808 . S
Tb8 O14 2.288 1_554 S
Tb8 O21 2.303 . S
Tb8 O30 2.430 . S
Tb8 O31 2.459 . S
O9 Tb7 2.303 . S
O9 C28 1.255 1_655 S
O10 Tb8 2.301 . S
O10 C19 1.237 . S
O11 Tb7 2.430 . S
O11 C16 1.248 . S
C12 Tb8 2.808 . S
C12 C22 1.497 . S
C12 O30 1.248 . S
C12 O31 1.260 . S
O13 Tb7 2.459 . S
O13 C16 1.260 . S
O14 Tb8 2.288 1_556 S
O14 C20 1.257 1_445 S
O15 Tb7 2.301 . S
O15 C20 1.237 . S
C16 C0 1.497 . S
C16 Tb7 2.808 . S
C16 O11 1.248 . S
C16 O13 1.260 . S
C17 O18 1.255 . S
C17 O21 1.255 1_655 S
O18 C17 1.255 . S
C19 O6 1.257 1_445 S
C19 O10 1.237 . S
C20 O14 1.257 1_665 S
C20 O15 1.237 . S
O21 Tb8 2.303 . S
O21 C17 1.255 1_455 S
C22 C12 1.497 . S
C22 C24 1.384 . S
C22 C25 1.386 . S
C23 C24 1.402 . S
C23 C27 1.392 1_554 S
C24 C22 1.384 . S
C24 C23 1.402 . S
C24 H35 0.930 . S
C25 C22 1.386 . S
C25 C26 1.393 1_554 S
C25 H36 0.932 . S
C26 C25 1.393 1_556 S
C26 C27 1.387 . S
C27 C23 1.392 1_556 S
C27 C26 1.387 . S
C27 H37 0.930 . S
C28 O9 1.255 1_455 S
C28 O29 1.255 . S
O29 C28 1.255 . S
O30 Tb8 2.430 . S
O30 C12 1.248 . S
O31 Tb8 2.459 . S
O31 C12 1.260 . S
H32 C1 0.932 . S
H33 C3 0.930 . S
H34 C5 0.930 . S
H35 C24 0.930 . S
H36 C25 0.932 . S
H37 C27 0.930 . S
C38 C39 1.391 . S
C38 C40 1.394 . S
C38 H54 0.931 . S
C39 C38 1.391 . S
C39 C43 1.376 1_654 S
C40 C38 1.394 . S
C40 C41 1.369 1_655 S
C40 C44 1.531 . S
C41 C40 1.369 1_455 S
C41 C42 1.410 1_554 S
C41 C49 1.503 . S
C42 C41 1.410 1_556 S
C42 C43 1.392 . S
C42 C45 1.511 . S
C43 C39 1.376 1_456 S
C43 C42 1.392 . S
C43 H55 0.929 . S
C44 C40 1.531 . S
C44 H56 0.960 1_655 S
C44 H57 0.962 . S
C44 H58 0.962 . S
C45 C42 1.511 . S
C45 H59 0.961 . S
C45 H60 0.961 . S
C45 H61 0.961 . S
C46 C47 1.370 1_655 S
C46 C48 1.363 . S
C46 H62 0.931 . S
C47 C46 1.370 1_455 S
C47 C51 1.408 1_556 S
C48 C46 1.363 . S
C48 C49 1.370 1_656 S
C48 C52 1.524 . S
C49 C41 1.503 . S
C49 C48 1.370 1_454 S
C49 C50 1.403 . S
C50 C49 1.403 . S
C50 C51 1.404 . S
C50 C53 1.539 . S
C51 C47 1.408 1_554 S
C51 C50 1.404 . S
C51 H63 0.930 . S
C52 C48 1.524 . S
C52 H64 0.956 . S
C52 H65 0.961 . S
C52 H66 0.961 . S
C53 C50 1.539 . S
C53 H67 0.958 . S
C53 H68 0.961 . S
C53 H69 0.960 . S
H54 C38 0.931 . S
H55 C43 0.929 . S
H56 C44 0.960 1_455 S
H57 C44 0.962 . S
H58 C44 0.962 . S
H59 C45 0.961 . S
H60 C45 0.961 . S
H61 C45 0.961 . S
H62 C46 0.931 . S
H63 C51 0.930 . S
H64 C52 0.956 . S
H65 C52 0.961 . S
H66 C52 0.961 . S
H67 C53 0.958 . S
H68 C53 0.961 . S
H69 C53 0.960 . S
C70 C71 1.391 1_545 S
C70 C72 1.394 . S
C70 H86 0.931 . S
C71 C70 1.391 1_565 S
C71 C75 1.376 . S
C72 C70 1.394 . S
C72 C73 1.369 1_545 S
C72 C76 1.531 . S
C73 C72 1.369 1_565 S
C73 C74 1.410 . S
C73 C81 1.503 1_565 S
C74 C73 1.410 . S
C74 C75 1.392 . S
C74 C77 1.511 . S
C75 C71 1.376 . S
C75 C74 1.392 . S
C75 H87 0.929 . S
C76 C72 1.531 . S
C76 H88 0.960 . S
C76 H89 0.962 1_556 S
C76 H90 0.960 . S
C77 C74 1.511 . S
C77 H91 0.961 . S
C77 H92 0.961 . S
C77 H93 0.961 . S
C78 C79 1.370 . S
C78 C80 1.363 . S
C78 H94 0.931 . S
C79 C78 1.370 . S
C79 C83 1.408 1_544 S
C80 C78 1.363 . S
C80 C81 1.370 1_554 S
C80 C84 1.524 . S
C81 C73 1.503 1_545 S
C81 C80 1.370 1_556 S
C81 C82 1.403 1_545 S
C82 C81 1.403 1_565 S
C82 C83 1.404 . S
C82 C85 1.539 . S
C83 C79 1.408 1_566 S
C83 C82 1.404 . S
C83 H95 0.930 . S
C84 C80 1.524 . S
C84 H96 0.956 . S
C84 H97 0.961 . S
C84 H98 0.961 . S
C85 C82 1.539 . S
C85 H99 0.958 . S
C85 H100 0.961 . S
C85 H101 0.960 . S
H86 C70 0.931 . S
H87 C75 0.929 . S
H88 C76 0.960 . S
H89 C76 0.962 1_554 S
H90 C76 0.960 . S
H91 C77 0.961 . S
H92 C77 0.961 . S
H93 C77 0.961 . S
H94 C78 0.931 . S
H95 C83 0.930 . S
H96 C84 0.956 . S
H97 C84 0.961 . S
H98 C84 0.961 . S
H99 C85 0.958 . S
H100 C85 0.961 . S
H101 C85 0.960 . S
C102 C103 1.391 . S
C102 C104 1.394 . S
C102 H118 0.931 . S
C103 C102 1.391 . S
C103 C107 1.376 1_556 S
C104 C102 1.394 . S
C104 C105 1.369 1_556 S
C104 C108 1.531 . S
C105 C104 1.369 1_554 S
C105 C106 1.410 . S
C105 C113 1.503 . S
C106 C105 1.410 . S
C106 C107 1.392 . S
C106 C109 1.511 . S
C107 C103 1.376 1_554 S
C107 C106 1.392 . S
C107 H119 0.929 . S
C108 C104 1.531 . S
C108 H120 0.960 . S
C108 H121 0.962 . S
C108 H122 0.960 . S
C109 C106 1.511 . S
C109 H123 0.961 . S
C109 H124 0.961 . S
C109 H125 0.961 . S
C110 C111 1.370 1_556 S
C110 C112 1.363 . S
C110 H126 0.931 . S
C111 C110 1.370 1_554 S
C111 C115 1.408 . S
C112 C110 1.363 . S
C112 C113 1.370 1_556 S
C112 C116 1.524 . S
C113 C105 1.503 . S
C113 C112 1.370 1_554 S
C113 C114 1.403 . S
C114 C113 1.403 . S
C114 C115 1.404 . S
C114 C117 1.539 . S
C115 C111 1.408 . S
C115 C114 1.404 . S
C115 H127 0.930 . S
C116 C112 1.524 . S
C116 H128 0.956 . S
C116 H129 0.961 . S
C116 H130 0.961 . S
C117 C114 1.539 . S
C117 H131 0.958 . S
C117 H132 0.961 . S
C117 H133 0.960 . S
H118 C102 0.931 . S
H119 C107 0.929 . S
H120 C108 0.960 . S
H121 C108 0.962 . S
H122 C108 0.960 . S
H123 C109 0.961 . S
H124 C109 0.961 . S
H125 C109 0.961 . S
H126 C110 0.931 . S
H127 C115 0.930 . S
H128 C116 0.956 . S
H129 C116 0.961 . S
H130 C116 0.961 . S
H131 C117 0.958 . S
H132 C117 0.961 . S
H133 C117 0.960 . S
C134 C135 1.391 1_455 S
C134 C136 1.394 . S
C134 H150 0.931 . S
C135 C134 1.391 1_655 S
C135 C139 1.376 1_565 S
C136 C134 1.394 . S
C136 C137 1.369 1_455 S
C136 C140 1.531 . S
C137 C136 1.369 1_655 S
C137 C138 1.410 1_565 S
C137 C145 1.503 . S
C138 C137 1.410 1_545 S
C138 C139 1.392 . S
C138 C141 1.511 . S
C139 C135 1.376 1_545 S
C139 C138 1.392 . S
C139 H151 0.929 . S
C140 C136 1.531 . S
C140 H152 0.960 . S
C140 H153 0.962 . S
C140 H154 0.960 . S
C141 C138 1.511 . S
C141 H155 0.961 . S
C141 H156 0.961 . S
C141 H157 0.961 . S
C142 C143 1.370 1_445 S
C142 C144 1.363 . S
C142 H158 0.931 . S
C143 C142 1.370 1_665 S
C143 C147 1.408 . S
C144 C142 1.363 . S
C144 C145 1.370 1_445 S
C144 C148 1.524 . S
C145 C137 1.503 . S
C145 C144 1.370 1_665 S
C145 C146 1.403 . S
C146 C145 1.403 . S
C146 C147 1.404 . S
C146 C149 1.539 . S
C147 C143 1.408 . S
C147 C146 1.404 . S
C147 H159 0.930 . S
C148 C144 1.524 . S
C148 H160 0.956 . S
C148 H161 0.961 . S
C148 H162 0.961 . S
C149 C146 1.539 . S
C149 H163 0.958 . S
C149 H164 0.961 . S
C149 H165 0.960 . S
H150 C134 0.931 . S
H151 C139 0.929 . S
H152 C140 0.960 . S
H153 C140 0.962 . S
H154 C140 0.960 . S
H155 C141 0.961 . S
H156 C141 0.961 . S
H157 C141 0.961 . S
H158 C142 0.931 . S
H159 C147 0.930 . S
H160 C148 0.956 . S
H161 C148 0.961 . S
H162 C148 0.961 . S
H163 C149 0.958 . S
H164 C149 0.961 . S
H165 C149 0.960 . S
C39 C17 0.424 . S
C47 C28 0.440 . S
C71 C4 2.077 . S
C79 C23 2.080 . S
C103 C26 1.827 . S
C111 C2 1.846 . S
C135 C20 1.473 . S
C143 C19 1.495 1_665 S
