# Generated by pormake.
# Topology uoy, (4)-cn, num edge types: 1
# Building blocks:
#     Node 0, Type 0, BuildingBlock: CEKHIL_clean_sbu_0, # of connection points: 4
#     Node 1, Type 0, BuildingBlock: CEKHIL_clean_sbu_0, # of connection points: 4
#     Node 2, Type 0, BuildingBlock: CEKHIL_clean_sbu_0, # of connection points: 4
#     Node 3, Type 0, BuildingBlock: CEKHIL_clean_sbu_0, # of connection points: 4
#     Node 4, Type 0, BuildingBlock: CEKHIL_clean_sbu_0, # of connection points: 4
#     Node 5, Type 0, BuildingBlock: CEKHIL_clean_sbu_0, # of connection points: 4
#     Node 6, Type 0, BuildingBlock: CEKHIL_clean_sbu_0, # of connection points: 4
#     Node 7, Type 0, BuildingBlock: CEKHIL_clean_sbu_0, # of connection points: 4
#     Node 8, Type 0, BuildingBlock: CEKHIL_clean_sbu_0, # of connection points: 4
#     Node 9, Type 0, BuildingBlock: CEKHIL_clean_sbu_0, # of connection points: 4
#     Node 10, Type 0, BuildingBlock: CEKHIL_clean_sbu_0, # of connection points: 4
#     Node 11, Type 0, BuildingBlock: CEKHIL_clean_sbu_0, # of connection points: 4
#     Node 12, Type 0, BuildingBlock: CEKHIL_clean_sbu_0, # of connection points: 4
#     Node 13, Type 0, BuildingBlock: CEKHIL_clean_sbu_0, # of connection points: 4
#     Node 14, Type 0, BuildingBlock: CEKHIL_clean_sbu_0, # of connection points: 4
#     Node 15, Type 0, BuildingBlock: CEKHIL_clean_sbu_0, # of connection points: 4
#     Edge 16, Type (0, 0), None
#     Edge 17, Type (0, 0), None
#     Edge 18, Type (0, 0), None
#     Edge 19, Type (0, 0), None
#     Edge 20, Type (0, 0), None
#     Edge 21, Type (0, 0), None
#     Edge 22, Type (0, 0), None
#     Edge 23, Type (0, 0), None
#     Edge 24, Type (0, 0), None
#     Edge 25, Type (0, 0), None
#     Edge 26, Type (0, 0), None
#     Edge 27, Type (0, 0), None
#     Edge 28, Type (0, 0), None
#     Edge 29, Type (0, 0), None
#     Edge 30, Type (0, 0), None
#     Edge 31, Type (0, 0), None
#     Edge 32, Type (0, 0), None
#     Edge 33, Type (0, 0), None
#     Edge 34, Type (0, 0), None
#     Edge 35, Type (0, 0), None
#     Edge 36, Type (0, 0), None
#     Edge 37, Type (0, 0), None
#     Edge 38, Type (0, 0), None
#     Edge 39, Type (0, 0), None
#     Edge 40, Type (0, 0), None
#     Edge 41, Type (0, 0), None
#     Edge 42, Type (0, 0), None
#     Edge 43, Type (0, 0), None
#     Edge 44, Type (0, 0), None
#     Edge 45, Type (0, 0), None
#     Edge 46, Type (0, 0), None
#     Edge 47, Type (0, 0), None
# Relax obj value: 0.040
# Max RMSD: 0.061
# Mean RMSD: 0.061
data_MOF--net-uoy--node1-CEKHIL_clean_sbu_0--edge1-none
_symmetry_space_group_name_H-M    P1
_symmetry_Int_Tables_number       1
_symmetry_cell_setting            triclinic
loop_
_symmetry_equiv_pos_as_xyz
'x, y, z'
_cell_length_a     12.433118
_cell_length_b     12.433118
_cell_length_c     45.326167
_cell_angle_alpha  89.997454
_cell_angle_beta   89.997455
_cell_angle_gamma 89.999983
loop_
_atom_site_label
_atom_site_type_symbol
_atom_site_fract_x
_atom_site_fract_y
_atom_site_fract_z
_atom_type_partial_charge
Co0 Co 0.22527 0.10638 0.20454 0.0
O1 O 0.07155 0.13496 0.20542 0.0
O2 O 0.14586 0.97754 0.1952 0.0
C3 C 0.27352 0.18944 0.24721 0.0
O4 O 0.36914 0.0329 0.20275 0.0
Co5 Co 0.40966 0.275 0.20156 0.0
O6 O 0.50702 0.14803 0.20592 0.0
C7 C 0.26451 0.24697 0.15124 0.0
C8 C 0.05946 0.03294 0.19936 0.0
C9 C 0.46956 0.05262 0.20456 0.0
O10 O 0.2354 0.15414 0.16157 0.0
O11 O 0.32017 0.3141 0.16618 0.0
O12 O 0.22825 0.09501 0.24787 0.0
O13 O 0.27862 0.23397 0.22167 0.0
Co14 Co 0.90664 0.72527 0.45454 0.0
O15 O 0.87806 0.57155 0.45542 0.0
O16 O 0.03548 0.64585 0.4452 0.0
C17 C 0.82358 0.77352 0.49721 0.0
O18 O 0.98012 0.86914 0.45274 0.0
Co19 Co 0.73802 0.90966 0.45156 0.0
O20 O 0.86499 0.00701 0.45592 0.0
C21 C 0.76605 0.7645 0.40124 0.0
C22 C 0.98007 0.55945 0.44936 0.0
C23 C 0.9604 0.96955 0.45456 0.0
O24 O 0.85888 0.73539 0.41157 0.0
O25 O 0.69892 0.82017 0.41619 0.0
O26 O 0.91801 0.72825 0.49787 0.0
O27 O 0.77905 0.77861 0.47167 0.0
Co28 Co 0.28775 0.40664 0.70454 0.0
O29 O 0.44146 0.37806 0.70542 0.0
O30 O 0.36717 0.53549 0.6952 0.0
C31 C 0.23949 0.32359 0.74721 0.0
O32 O 0.14388 0.48012 0.70274 0.0
Co33 Co 0.10335 0.23802 0.70156 0.0
O34 O 1.006 0.365 0.70592 0.0
C35 C 0.24851 0.26606 0.65124 0.0
C36 C 0.45356 0.48008 0.69936 0.0
C37 C 0.04346 0.46041 0.70456 0.0
O38 O 0.27763 0.35888 0.66156 0.0
O39 O 0.19284 0.19892 0.66619 0.0
O40 O 0.28475 0.41802 0.74787 0.0
O41 O 0.2344 0.27906 0.72167 0.0
Co42 Co 0.60638 0.78774 0.95454 0.0
O43 O 0.63495 0.94146 0.95542 0.0
O44 O 0.47753 0.86716 0.9452 0.0
C45 C 0.68943 0.73949 0.99721 0.0
O46 O 0.5329 0.64387 0.95275 0.0
Co47 Co 0.775 0.60335 0.95156 0.0
O48 O 0.64802 0.50599 0.95592 0.0
C49 C 0.74696 0.74851 0.90124 0.0
C50 C 0.53294 0.95356 0.94936 0.0
C51 C 0.55261 0.54345 0.95456 0.0
O52 O 0.65414 0.77762 0.91157 0.0
O53 O 0.8141 0.69284 0.91619 0.0
O54 O 0.595 0.78475 0.99787 0.0
O55 O 0.73396 0.73439 0.97167 0.0
Co56 Co 0.22528 0.40664 0.06598 0.0
O57 O 0.07156 0.37807 0.0651 0.0
O58 O 0.14586 0.53548 0.07532 0.0
C59 C 0.27351 0.32359 0.02331 0.0
O60 O 0.36915 0.48012 0.06777 0.0
Co61 Co 0.40967 0.23801 0.06894 0.0
O62 O 0.50703 0.36499 0.06459 0.0
C63 C 0.26445 0.26598 0.11925 0.0
C64 C 0.05946 0.48008 0.07116 0.0
C65 C 0.46956 0.4604 0.06596 0.0
O66 O 0.23541 0.35886 0.10895 0.0
O67 O 0.32014 0.19886 0.10431 0.0
O68 O 0.22825 0.41802 0.02265 0.0
O69 O 0.27862 0.27906 0.04885 0.0
Co70 Co 0.60638 0.72527 0.31598 0.0
O71 O 0.63495 0.57155 0.3151 0.0
O72 O 0.47753 0.64585 0.32532 0.0
C73 C 0.68942 0.77351 0.27331 0.0
O74 O 0.5329 0.86914 0.31777 0.0
Co75 Co 0.775 0.90967 0.31894 0.0
O76 O 0.64802 0.00702 0.31459 0.0
C77 C 0.74704 0.76444 0.36925 0.0
C78 C 0.53294 0.55945 0.32116 0.0
C79 C 0.55261 0.96956 0.31596 0.0
O80 O 0.65416 0.7354 0.35895 0.0
O81 O 0.81415 0.82014 0.35431 0.0
O82 O 0.59499 0.72825 0.27265 0.0
O83 O 0.73395 0.77861 0.29885 0.0
Co84 Co 0.28775 0.10638 0.56598 0.0
O85 O 0.44147 0.13496 0.5651 0.0
O86 O 0.36717 0.97754 0.57532 0.0
C87 C 0.23951 0.18942 0.52331 0.0
O88 O 0.14388 0.0329 0.56777 0.0
Co89 Co 0.10335 0.27501 0.56895 0.0
O90 O 1.006 0.14803 0.56459 0.0
C91 C 0.24858 0.24705 0.61925 0.0
C92 C 0.45357 0.03295 0.57116 0.0
C93 C 0.04347 0.05262 0.56596 0.0
O94 O 0.27761 0.15417 0.60895 0.0
O95 O 0.19288 0.31416 0.60431 0.0
O96 O 0.28478 0.09499 0.52265 0.0
O97 O 0.23441 0.23396 0.54885 0.0
Co98 Co 0.90664 0.78775 0.81598 0.0
O99 O 0.87806 0.94146 0.8151 0.0
O100 O 0.03548 0.86716 0.82532 0.0
C101 C 0.82359 0.73951 0.77331 0.0
O102 O 0.98011 0.64387 0.81777 0.0
Co103 Co 0.73801 0.60335 0.81895 0.0
O104 O 0.86499 0.50599 0.81459 0.0
C105 C 0.76597 0.74857 0.86925 0.0
C106 C 0.98007 0.95356 0.82116 0.0
C107 C 0.9604 0.54346 0.81596 0.0
O108 O 0.85885 0.7776 0.85895 0.0
O109 O 0.69885 0.69288 0.85431 0.0
O110 O 0.91802 0.78478 0.77265 0.0
O111 O 0.77906 0.73441 0.79885 0.0
Co112 Co 0.72528 0.60638 0.70454 0.0
O113 O 0.57156 0.63496 0.70542 0.0
O114 O 0.64587 0.47754 0.69521 0.0
C115 C 0.77355 0.68944 0.74721 0.0
O116 O 0.86915 0.53291 0.70275 0.0
Co117 Co 0.90967 0.77501 0.70156 0.0
O118 O 0.00703 0.64804 0.70592 0.0
C119 C 0.7645 0.74697 0.65124 0.0
C120 C 0.55947 0.53294 0.69937 0.0
C121 C 0.96957 0.55262 0.70456 0.0
O122 O 0.73541 0.65414 0.66157 0.0
O123 O 0.82016 0.81411 0.66618 0.0
O124 O 0.72827 0.59502 0.74787 0.0
O125 O 0.77863 0.73397 0.72167 0.0
Co126 Co 0.40663 0.22528 0.95454 0.0
O127 O 0.37806 0.07156 0.95542 0.0
O128 O 0.53548 0.14586 0.9452 0.0
C129 C 0.32359 0.27355 0.99721 0.0
O130 O 0.48011 0.36915 0.95274 0.0
Co131 Co 0.23801 0.40966 0.95156 0.0
O132 O 0.36498 0.50702 0.95592 0.0
C133 C 0.26605 0.2645 0.90124 0.0
C134 C 0.48007 0.05946 0.94937 0.0
C135 C 0.4604 0.46956 0.95456 0.0
O136 O 0.35888 0.2354 0.91157 0.0
O137 O 0.19891 0.32016 0.91619 0.0
O138 O 0.41801 0.22826 0.99787 0.0
O139 O 0.27905 0.27863 0.97167 0.0
Co140 Co 0.78774 0.90664 0.20454 0.0
O141 O 0.94146 0.87806 0.20542 0.0
O142 O 0.86715 0.03549 0.1952 0.0
C143 C 0.73946 0.82359 0.24721 0.0
O144 O 0.64387 0.98012 0.20274 0.0
Co145 Co 0.60335 0.73802 0.20156 0.0
O146 O 0.50599 0.86499 0.20592 0.0
C147 C 0.74852 0.76606 0.15124 0.0
C148 C 0.95355 0.98008 0.19937 0.0
C149 C 0.54345 0.9604 0.20456 0.0
O150 O 0.77762 0.85888 0.16157 0.0
O151 O 0.69285 0.69892 0.16619 0.0
O152 O 0.78474 0.91801 0.24787 0.0
O153 O 0.73438 0.77905 0.22167 0.0
Co154 Co 0.10638 0.28773 0.45454 0.0
O155 O 0.13495 0.44145 0.45542 0.0
O156 O 0.97753 0.36714 0.44521 0.0
C157 C 0.18943 0.23946 0.49721 0.0
O158 O 0.0329 0.14386 0.45275 0.0
Co159 Co 0.275 0.10334 0.45156 0.0
O160 O 0.14803 1.00598 0.45592 0.0
C161 C 0.24696 0.24851 0.40124 0.0
C162 C 0.03294 0.45354 0.44937 0.0
C163 C 0.05262 0.04344 0.45456 0.0
O164 O 0.15413 0.27761 0.41157 0.0
O165 O 0.3141 0.19285 0.41619 0.0
O166 O 0.09501 0.28474 0.49787 0.0
O167 O 0.23397 0.23438 0.47167 0.0
Co168 Co 0.72528 0.90664 0.56598 0.0
O169 O 0.57157 0.87806 0.5651 0.0
O170 O 0.64587 0.03548 0.57532 0.0
C171 C 0.77355 0.82359 0.52331 0.0
O172 O 0.86916 0.98011 0.56777 0.0
Co173 Co 0.90968 0.73801 0.56895 0.0
O174 O 0.00704 0.86499 0.5646 0.0
C175 C 0.76444 0.76598 0.61925 0.0
C176 C 0.55947 0.98008 0.57116 0.0
C177 C 0.96957 0.9604 0.56596 0.0
O178 O 0.73542 0.85886 0.60895 0.0
O179 O 0.82013 0.69885 0.60431 0.0
O180 O 0.72826 0.91802 0.52265 0.0
O181 O 0.77863 0.77906 0.54885 0.0
Co182 Co 0.10638 0.22528 0.81598 0.0
O183 O 0.13495 0.07156 0.8151 0.0
O184 O 0.97754 0.14586 0.82532 0.0
C185 C 0.18942 0.27354 0.77331 0.0
O186 O 0.0329 0.36915 0.81777 0.0
Co187 Co 0.27501 0.40967 0.81895 0.0
O188 O 0.14803 0.50703 0.81459 0.0
C189 C 0.24704 0.26443 0.86925 0.0
C190 C 0.03294 0.05946 0.82116 0.0
C191 C 0.05262 0.46957 0.81596 0.0
O192 O 0.15416 0.23541 0.85895 0.0
O193 O 0.31416 0.32013 0.85431 0.0
O194 O 0.095 0.22826 0.77265 0.0
O195 O 0.23396 0.27863 0.79885 0.0
Co196 Co 0.78774 0.60638 0.06598 0.0
O197 O 0.94146 0.63496 0.0651 0.0
O198 O 0.86715 0.47754 0.07532 0.0
C199 C 0.73948 0.68942 0.02331 0.0
O200 O 0.64387 0.53291 0.06777 0.0
Co201 Co 0.60335 0.77501 0.06895 0.0
O202 O 0.50599 0.64803 0.06459 0.0
C203 C 0.74858 0.74705 0.11925 0.0
C204 C 0.95356 0.53294 0.07116 0.0
C205 C 0.54346 0.55262 0.06596 0.0
O206 O 0.77761 0.65417 0.10895 0.0
O207 O 0.69289 0.81417 0.10431 0.0
O208 O 0.78477 0.595 0.02265 0.0
O209 O 0.7344 0.73396 0.04885 0.0
Co210 Co 0.40663 0.28774 0.31598 0.0
O211 O 0.37806 0.44146 0.3151 0.0
O212 O 0.53548 0.36714 0.32532 0.0
C213 C 0.32359 0.23948 0.27331 0.0
O214 O 0.48011 0.14386 0.31777 0.0
Co215 Co 0.238 0.10334 0.31895 0.0
O216 O 0.36498 1.00598 0.3146 0.0
C217 C 0.26597 0.24858 0.36925 0.0
C218 C 0.48007 0.45355 0.32116 0.0
C219 C 0.46039 0.04345 0.31596 0.0
O220 O 0.35885 0.2776 0.35895 0.0
O221 O 0.19885 0.19289 0.35431 0.0
O222 O 0.41801 0.28476 0.27265 0.0
O223 O 0.27905 0.23439 0.29885 0.0
loop_
_geom_bond_atom_site_label_1
_geom_bond_atom_site_label_2
_geom_bond_distance
_geom_bond_site_symmetry_2
_ccdc_geom_bond_type
Co0 O1 2.216 . S
Co0 O2 2.091 1_545 S
Co0 O4 2.004 . S
Co0 O10 2.021 . S
Co0 O12 2.137 . S
Co0 O13 2.244 . S
O1 Co0 2.216 . S
O1 C8 1.247 . S
O2 Co0 2.091 1_565 S
O2 C8 1.261 1_565 S
C3 O12 1.247 . S
C3 O13 1.272 . S
O4 Co0 2.004 . S
O4 C9 1.259 . S
Co5 O6 2.061 . S
Co5 O11 2.052 . S
Co5 O13 2.135 . S
O6 Co5 2.061 . S
O6 C9 1.235 . S
C7 O10 1.238 . S
C7 O11 1.241 . S
C8 O1 1.247 . S
C8 O2 1.261 1_545 S
C9 O4 1.259 . S
C9 O6 1.235 . S
O10 Co0 2.021 . S
O10 C7 1.238 . S
O11 Co5 2.052 . S
O11 C7 1.241 . S
O12 Co0 2.137 . S
O12 C3 1.247 . S
O13 Co0 2.244 . S
O13 C3 1.272 . S
O13 Co5 2.135 . S
Co14 O15 2.216 . S
Co14 O16 2.091 1_655 S
Co14 O18 2.004 . S
Co14 O24 2.021 . S
Co14 O26 2.137 . S
Co14 O27 2.244 . S
O15 Co14 2.216 . S
O15 C22 1.247 . S
O16 Co14 2.091 1_455 S
O16 C22 1.261 1_455 S
C17 O26 1.247 . S
C17 O27 1.272 . S
O18 Co14 2.004 . S
O18 C23 1.259 . S
Co19 O20 2.061 . S
Co19 O25 2.052 . S
Co19 O27 2.135 . S
O20 Co19 2.061 . S
O20 C23 1.235 . S
C21 O24 1.238 . S
C21 O25 1.241 . S
C22 O15 1.247 . S
C22 O16 1.261 1_655 S
C23 O18 1.259 . S
C23 O20 1.235 . S
O24 Co14 2.021 . S
O24 C21 1.238 . S
O25 Co19 2.052 . S
O25 C21 1.241 . S
O26 Co14 2.137 . S
O26 C17 1.247 . S
O27 Co14 2.244 . S
O27 C17 1.272 . S
O27 Co19 2.135 . S
Co28 O29 2.216 . S
Co28 O30 2.091 . S
Co28 O32 2.004 . S
Co28 O38 2.021 . S
Co28 O40 2.137 . S
Co28 O41 2.244 . S
O29 Co28 2.216 . S
O29 C36 1.247 . S
O30 Co28 2.091 . S
O30 C36 1.261 . S
C31 O40 1.247 . S
C31 O41 1.272 . S
O32 Co28 2.004 . S
O32 C37 1.259 . S
Co33 O34 2.061 . S
Co33 O39 2.052 . S
Co33 O41 2.135 . S
O34 Co33 2.061 . S
O34 C37 1.235 . S
C35 O38 1.238 . S
C35 O39 1.241 . S
C36 O29 1.247 . S
C36 O30 1.261 . S
C37 O32 1.259 . S
C37 O34 1.235 . S
O38 Co28 2.021 . S
O38 C35 1.238 . S
O39 Co33 2.052 . S
O39 C35 1.241 . S
O40 Co28 2.137 . S
O40 C31 1.247 . S
O41 Co28 2.244 . S
O41 C31 1.272 . S
O41 Co33 2.135 . S
Co42 O43 2.216 . S
Co42 O44 2.091 . S
Co42 O46 2.004 . S
Co42 O52 2.021 . S
Co42 O54 2.137 . S
Co42 O55 2.244 . S
O43 Co42 2.216 . S
O43 C50 1.247 . S
O44 Co42 2.091 . S
O44 C50 1.261 . S
C45 O54 1.247 . S
C45 O55 1.272 . S
O46 Co42 2.004 . S
O46 C51 1.259 . S
Co47 O48 2.061 . S
Co47 O53 2.052 . S
Co47 O55 2.135 . S
O48 Co47 2.061 . S
O48 C51 1.235 . S
C49 O52 1.238 . S
C49 O53 1.241 . S
C50 O43 1.247 . S
C50 O44 1.261 . S
C51 O46 1.259 . S
C51 O48 1.235 . S
O52 Co42 2.021 . S
O52 C49 1.238 . S
O53 Co47 2.052 . S
O53 C49 1.241 . S
O54 Co42 2.137 . S
O54 C45 1.247 . S
O55 Co42 2.244 . S
O55 C45 1.272 . S
O55 Co47 2.135 . S
Co56 O57 2.216 . S
Co56 O58 2.091 . S
Co56 O60 2.004 . S
Co56 O66 2.021 . S
Co56 O68 2.137 . S
Co56 O69 2.244 . S
O57 Co56 2.216 . S
O57 C64 1.247 . S
O58 Co56 2.091 . S
O58 C64 1.261 . S
C59 O68 1.247 . S
C59 O69 1.272 . S
O60 Co56 2.004 . S
O60 C65 1.259 . S
Co61 O62 2.061 . S
Co61 O67 2.052 . S
Co61 O69 2.135 . S
O62 Co61 2.061 . S
O62 C65 1.235 . S
C63 O66 1.238 . S
C63 O67 1.241 . S
C64 O57 1.247 . S
C64 O58 1.261 . S
C65 O60 1.259 . S
C65 O62 1.235 . S
O66 Co56 2.021 . S
O66 C63 1.238 . S
O67 Co61 2.052 . S
O67 C63 1.241 . S
O68 Co56 2.137 . S
O68 C59 1.247 . S
O69 Co56 2.244 . S
O69 C59 1.272 . S
O69 Co61 2.135 . S
Co70 O71 2.216 . S
Co70 O72 2.091 . S
Co70 O74 2.004 . S
Co70 O80 2.021 . S
Co70 O82 2.137 . S
Co70 O83 2.244 . S
O71 Co70 2.216 . S
O71 C78 1.247 . S
O72 Co70 2.091 . S
O72 C78 1.261 . S
C73 O82 1.247 . S
C73 O83 1.272 . S
O74 Co70 2.004 . S
O74 C79 1.259 . S
Co75 O76 2.061 . S
Co75 O81 2.052 . S
Co75 O83 2.135 . S
O76 Co75 2.061 . S
O76 C79 1.235 . S
C77 O80 1.238 . S
C77 O81 1.241 . S
C78 O71 1.247 . S
C78 O72 1.261 . S
C79 O74 1.259 . S
C79 O76 1.235 . S
O80 Co70 2.021 . S
O80 C77 1.238 . S
O81 Co75 2.052 . S
O81 C77 1.241 . S
O82 Co70 2.137 . S
O82 C73 1.247 . S
O83 Co70 2.244 . S
O83 C73 1.272 . S
O83 Co75 2.135 . S
Co84 O85 2.216 . S
Co84 O86 2.091 1_545 S
Co84 O88 2.004 . S
Co84 O94 2.021 . S
Co84 O96 2.137 . S
Co84 O97 2.244 . S
O85 Co84 2.216 . S
O85 C92 1.247 . S
O86 Co84 2.091 1_565 S
O86 C92 1.261 1_565 S
C87 O96 1.247 . S
C87 O97 1.272 . S
O88 Co84 2.004 . S
O88 C93 1.259 . S
Co89 O90 2.061 . S
Co89 O95 2.052 . S
Co89 O97 2.135 . S
O90 Co89 2.061 . S
O90 C93 1.235 . S
C91 O94 1.238 . S
C91 O95 1.241 . S
C92 O85 1.247 . S
C92 O86 1.261 1_545 S
C93 O88 1.259 . S
C93 O90 1.235 . S
O94 Co84 2.021 . S
O94 C91 1.238 . S
O95 Co89 2.052 . S
O95 C91 1.241 . S
O96 Co84 2.137 . S
O96 C87 1.247 . S
O97 Co84 2.244 . S
O97 C87 1.272 . S
O97 Co89 2.135 . S
Co98 O99 2.216 . S
Co98 O100 2.091 1_655 S
Co98 O102 2.004 . S
Co98 O108 2.021 . S
Co98 O110 2.137 . S
Co98 O111 2.244 . S
O99 Co98 2.216 . S
O99 C106 1.247 . S
O100 Co98 2.091 1_455 S
O100 C106 1.261 1_455 S
C101 O110 1.247 . S
C101 O111 1.272 . S
O102 Co98 2.004 . S
O102 C107 1.259 . S
Co103 O104 2.061 . S
Co103 O109 2.052 . S
Co103 O111 2.135 . S
O104 Co103 2.061 . S
O104 C107 1.235 . S
C105 O108 1.238 . S
C105 O109 1.241 . S
C106 O99 1.247 . S
C106 O100 1.261 1_655 S
C107 O102 1.259 . S
C107 O104 1.235 . S
O108 Co98 2.021 . S
O108 C105 1.238 . S
O109 Co103 2.052 . S
O109 C105 1.241 . S
O110 Co98 2.137 . S
O110 C101 1.247 . S
O111 Co98 2.244 . S
O111 C101 1.272 . S
O111 Co103 2.135 . S
Co112 O113 2.216 . S
Co112 O114 2.091 . S
Co112 O116 2.004 . S
Co112 O122 2.021 . S
Co112 O124 2.137 . S
Co112 O125 2.244 . S
O113 Co112 2.216 . S
O113 C120 1.247 . S
O114 Co112 2.091 . S
O114 C120 1.261 . S
C115 O124 1.247 . S
C115 O125 1.272 . S
O116 Co112 2.004 . S
O116 C121 1.259 . S
Co117 O118 2.061 . S
Co117 O123 2.052 . S
Co117 O125 2.135 . S
O118 Co117 2.061 . S
O118 C121 1.235 . S
C119 O122 1.238 . S
C119 O123 1.241 . S
C120 O113 1.247 . S
C120 O114 1.261 . S
C121 O116 1.259 . S
C121 O118 1.235 . S
O122 Co112 2.021 . S
O122 C119 1.238 . S
O123 Co117 2.052 . S
O123 C119 1.241 . S
O124 Co112 2.137 . S
O124 C115 1.247 . S
O125 Co112 2.244 . S
O125 C115 1.272 . S
O125 Co117 2.135 . S
Co126 O127 2.216 . S
Co126 O128 2.091 . S
Co126 O130 2.004 . S
Co126 O136 2.021 . S
Co126 O138 2.137 . S
Co126 O139 2.244 . S
O127 Co126 2.216 . S
O127 C134 1.247 . S
O128 Co126 2.091 . S
O128 C134 1.261 . S
C129 O138 1.247 . S
C129 O139 1.272 . S
O130 Co126 2.004 . S
O130 C135 1.259 . S
Co131 O132 2.061 . S
Co131 O137 2.052 . S
Co131 O139 2.135 . S
O132 Co131 2.061 . S
O132 C135 1.235 . S
C133 O136 1.238 . S
C133 O137 1.241 . S
C134 O127 1.247 . S
C134 O128 1.261 . S
C135 O130 1.259 . S
C135 O132 1.235 . S
O136 Co126 2.021 . S
O136 C133 1.238 . S
O137 Co131 2.052 . S
O137 C133 1.241 . S
O138 Co126 2.137 . S
O138 C129 1.247 . S
O139 Co126 2.244 . S
O139 C129 1.272 . S
O139 Co131 2.135 . S
Co140 O141 2.216 . S
Co140 O142 2.091 1_565 S
Co140 O144 2.004 . S
Co140 O150 2.021 . S
Co140 O152 2.137 . S
Co140 O153 2.244 . S
O141 Co140 2.216 . S
O141 C148 1.247 . S
O142 Co140 2.091 1_545 S
O142 C148 1.261 1_545 S
C143 O152 1.247 . S
C143 O153 1.272 . S
O144 Co140 2.004 . S
O144 C149 1.259 . S
Co145 O146 2.061 . S
Co145 O151 2.052 . S
Co145 O153 2.135 . S
O146 Co145 2.061 . S
O146 C149 1.235 . S
C147 O150 1.238 . S
C147 O151 1.241 . S
C148 O141 1.247 . S
C148 O142 1.261 1_565 S
C149 O144 1.259 . S
C149 O146 1.235 . S
O150 Co140 2.021 . S
O150 C147 1.238 . S
O151 Co145 2.052 . S
O151 C147 1.241 . S
O152 Co140 2.137 . S
O152 C143 1.247 . S
O153 Co140 2.244 . S
O153 C143 1.272 . S
O153 Co145 2.135 . S
Co154 O155 2.216 . S
Co154 O156 2.091 1_455 S
Co154 O158 2.004 . S
Co154 O164 2.021 . S
Co154 O166 2.137 . S
Co154 O167 2.244 . S
O155 Co154 2.216 . S
O155 C162 1.247 . S
O156 Co154 2.091 1_655 S
O156 C162 1.261 1_655 S
C157 O166 1.247 . S
C157 O167 1.272 . S
O158 Co154 2.004 . S
O158 C163 1.259 . S
Co159 O160 2.061 . S
Co159 O165 2.052 . S
Co159 O167 2.135 . S
O160 Co159 2.061 . S
O160 C163 1.235 . S
C161 O164 1.238 . S
C161 O165 1.241 . S
C162 O155 1.247 . S
C162 O156 1.261 1_455 S
C163 O158 1.259 . S
C163 O160 1.235 . S
O164 Co154 2.021 . S
O164 C161 1.238 . S
O165 Co159 2.052 . S
O165 C161 1.241 . S
O166 Co154 2.137 . S
O166 C157 1.247 . S
O167 Co154 2.244 . S
O167 C157 1.272 . S
O167 Co159 2.135 . S
Co168 O169 2.216 . S
Co168 O170 2.091 1_565 S
Co168 O172 2.004 . S
Co168 O178 2.021 . S
Co168 O180 2.137 . S
Co168 O181 2.244 . S
O169 Co168 2.216 . S
O169 C176 1.247 . S
O170 Co168 2.091 1_545 S
O170 C176 1.261 1_545 S
C171 O180 1.247 . S
C171 O181 1.272 . S
O172 Co168 2.004 . S
O172 C177 1.259 . S
Co173 O174 2.061 . S
Co173 O179 2.052 . S
Co173 O181 2.135 . S
O174 Co173 2.061 . S
O174 C177 1.235 . S
C175 O178 1.238 . S
C175 O179 1.241 . S
C176 O169 1.247 . S
C176 O170 1.261 1_565 S
C177 O172 1.259 . S
C177 O174 1.235 . S
O178 Co168 2.021 . S
O178 C175 1.238 . S
O179 Co173 2.052 . S
O179 C175 1.241 . S
O180 Co168 2.137 . S
O180 C171 1.247 . S
O181 Co168 2.244 . S
O181 C171 1.272 . S
O181 Co173 2.135 . S
Co182 O183 2.216 . S
Co182 O184 2.091 1_455 S
Co182 O186 2.004 . S
Co182 O192 2.021 . S
Co182 O194 2.137 . S
Co182 O195 2.244 . S
O183 Co182 2.216 . S
O183 C190 1.247 . S
O184 Co182 2.091 1_655 S
O184 C190 1.261 1_655 S
C185 O194 1.247 . S
C185 O195 1.272 . S
O186 Co182 2.004 . S
O186 C191 1.259 . S
Co187 O188 2.061 . S
Co187 O193 2.052 . S
Co187 O195 2.135 . S
O188 Co187 2.061 . S
O188 C191 1.235 . S
C189 O192 1.238 . S
C189 O193 1.241 . S
C190 O183 1.247 . S
C190 O184 1.261 1_455 S
C191 O186 1.259 . S
C191 O188 1.235 . S
O192 Co182 2.021 . S
O192 C189 1.238 . S
O193 Co187 2.052 . S
O193 C189 1.241 . S
O194 Co182 2.137 . S
O194 C185 1.247 . S
O195 Co182 2.244 . S
O195 C185 1.272 . S
O195 Co187 2.135 . S
Co196 O197 2.216 . S
Co196 O198 2.091 . S
Co196 O200 2.004 . S
Co196 O206 2.021 . S
Co196 O208 2.137 . S
Co196 O209 2.244 . S
O197 Co196 2.216 . S
O197 C204 1.247 . S
O198 Co196 2.091 . S
O198 C204 1.261 . S
C199 O208 1.247 . S
C199 O209 1.272 . S
O200 Co196 2.004 . S
O200 C205 1.259 . S
Co201 O202 2.061 . S
Co201 O207 2.052 . S
Co201 O209 2.135 . S
O202 Co201 2.061 . S
O202 C205 1.235 . S
C203 O206 1.238 . S
C203 O207 1.241 . S
C204 O197 1.247 . S
C204 O198 1.261 . S
C205 O200 1.259 . S
C205 O202 1.235 . S
O206 Co196 2.021 . S
O206 C203 1.238 . S
O207 Co201 2.052 . S
O207 C203 1.241 . S
O208 Co196 2.137 . S
O208 C199 1.247 . S
O209 Co196 2.244 . S
O209 C199 1.272 . S
O209 Co201 2.135 . S
Co210 O211 2.216 . S
Co210 O212 2.091 . S
Co210 O214 2.004 . S
Co210 O220 2.021 . S
Co210 O222 2.137 . S
Co210 O223 2.244 . S
O211 Co210 2.216 . S
O211 C218 1.247 . S
O212 Co210 2.091 . S
O212 C218 1.261 . S
C213 O222 1.247 . S
C213 O223 1.272 . S
O214 Co210 2.004 . S
O214 C219 1.259 . S
Co215 O216 2.061 . S
Co215 O221 2.052 . S
Co215 O223 2.135 . S
O216 Co215 2.061 . S
O216 C219 1.235 . S
C217 O220 1.238 . S
C217 O221 1.241 . S
C218 O211 1.247 . S
C218 O212 1.261 . S
C219 O214 1.259 . S
C219 O216 1.235 . S
O220 Co210 2.021 . S
O220 C217 1.238 . S
O221 Co215 2.052 . S
O221 C217 1.241 . S
O222 Co210 2.137 . S
O222 C213 1.247 . S
O223 Co210 2.244 . S
O223 C213 1.272 . S
O223 Co215 2.135 . S
C63 C7 1.389 . S
C21 C77 1.389 . S
C91 C35 1.389 . S
C105 C49 1.389 . S
C175 C119 1.389 . S
C133 C189 1.389 . S
C203 C147 1.389 . S
C161 C217 1.389 . S
C3 C213 1.477 . S
C17 C171 1.477 . S
C31 C185 1.477 . S
C199 C45 1.477 1_554 S
C59 C129 1.477 1_554 S
C73 C143 1.477 . S
C157 C87 1.477 . S
C115 C101 1.477 . S
C8 C148 1.649 1_445 S
C162 C22 1.649 1_455 S
C36 C120 1.649 . S
C134 C50 1.649 1_545 S
C64 C204 1.649 1_455 S
C78 C218 1.649 . S
C176 C92 1.649 1_565 S
C190 C106 1.649 1_445 S
C149 C9 1.475 1_565 S
C23 C163 1.475 1_665 S
C37 C121 1.475 1_455 S
C135 C51 1.475 . S
C205 C65 1.475 . S
C219 C79 1.475 1_545 S
C177 C93 1.475 1_665 S
C107 C191 1.475 1_655 S
