# Generated by pormake.
# Topology reo, (8)-cn, num edge types: 1
# Building blocks:
#     Node 0, Type 0, BuildingBlock: VETTIZ_charged_sbu_0, # of connection points: 8
#     Node 1, Type 0, BuildingBlock: VETTIZ_charged_sbu_0, # of connection points: 8
#     Node 2, Type 0, BuildingBlock: VETTIZ_charged_sbu_0, # of connection points: 8
#     Edge 3, Type (0, 0), BuildingBlock: AJUNOK_clean_linker_0, # of connection points: 2
#     Edge 4, Type (0, 0), BuildingBlock: AJUNOK_clean_linker_0, # of connection points: 2
#     Edge 5, Type (0, 0), BuildingBlock: AJUNOK_clean_linker_0, # of connection points: 2
#     Edge 6, Type (0, 0), BuildingBlock: AJUNOK_clean_linker_0, # of connection points: 2
#     Edge 7, Type (0, 0), BuildingBlock: AJUNOK_clean_linker_0, # of connection points: 2
#     Edge 8, Type (0, 0), BuildingBlock: AJUNOK_clean_linker_0, # of connection points: 2
#     Edge 9, Type (0, 0), BuildingBlock: AJUNOK_clean_linker_0, # of connection points: 2
#     Edge 10, Type (0, 0), BuildingBlock: AJUNOK_clean_linker_0, # of connection points: 2
#     Edge 11, Type (0, 0), BuildingBlock: AJUNOK_clean_linker_0, # of connection points: 2
#     Edge 12, Type (0, 0), BuildingBlock: AJUNOK_clean_linker_0, # of connection points: 2
#     Edge 13, Type (0, 0), BuildingBlock: AJUNOK_clean_linker_0, # of connection points: 2
#     Edge 14, Type (0, 0), BuildingBlock: AJUNOK_clean_linker_0, # of connection points: 2
# Relax obj value: 0.145
# Max RMSD: 0.165
# Mean RMSD: 0.165
data_MOF--net-reo--node1-VETTIZ_charged_sbu_0--edge1-AJUNOK_clean_linker_0
_symmetry_space_group_name_H-M    P1
_symmetry_Int_Tables_number       1
_symmetry_cell_setting            triclinic
loop_
_symmetry_equiv_pos_as_xyz
'x, y, z'
_cell_length_a     17.154371
_cell_length_b     19.202445
_cell_length_c     18.437329
_cell_angle_alpha  91.401963
_cell_angle_beta   89.186218
_cell_angle_gamma 89.770079
loop_
_atom_site_label
_atom_site_type_symbol
_atom_site_fract_x
_atom_site_fract_y
_atom_site_fract_z
_atom_type_partial_charge
Fe0 Fe 0.03536 -0.02096 0.41183 0.0
O1 O 1.01558 0.04105 0.49852 0.0
Fe2 Fe 0.1411 0.84331 0.48581 0.0
Fe3 Fe 0.92451 0.1037 0.50582 0.0
O4 O 0.05128 0.90682 0.48654 0.0
O5 O 0.05022 0.90593 0.49438 0.0
O6 O 1.01435 0.0401 0.50627 0.0
Fe7 Fe 1.03065 0.96793 0.58132 0.0
C8 C 1.01148 0.13083 0.36599 0.0
O9 O 0.91812 0.95408 0.40501 0.0
O10 O 0.86631 0.05953 0.41775 0.0
O11 O 0.04997 0.882 0.64651 0.0
O12 O 0.07803 0.79331 0.56302 0.0
O13 O 0.08431 0.80473 0.39707 0.0
O14 O 0.05435 0.90211 0.33133 0.0
O15 O 0.8584 0.04677 0.57699 0.0
O16 O 0.91321 0.94179 0.58477 0.0
C17 C 0.059 0.8352 0.33996 0.0
O18 O 0.14812 -0.00692 0.58857 0.0
O19 O 0.20017 0.88796 0.57247 0.0
O20 O 1.01805 0.06523 0.34719 0.0
O21 O 0.98839 0.15419 0.42935 0.0
C22 C 0.86568 -0.00166 0.3895 0.0
C23 C 0.85615 -0.01634 0.59646 0.0
C24 C 1.00541 0.11173 0.65304 0.0
O25 O 0.98059 0.14215 0.5956 0.0
O26 O 1.01114 0.04485 0.6614 0.0
C27 C 0.06107 0.81681 0.62782 0.0
O28 O 0.20647 0.89959 0.41374 0.0
O29 O 0.1528 0.00504 0.40857 0.0
C30 C 0.20062 0.94826 0.60271 0.0
C31 C 0.20926 0.96295 0.39545 0.0
Fe32 Fe 0.44108 -0.01642 0.00503 0.0
O33 O 0.52123 0.9073 0.00943 0.0
Fe34 Fe 0.53799 0.10604 0.90183 0.0
Fe35 Fe 0.52646 0.8412 0.08933 0.0
O36 O 0.53537 0.04152 0.98351 0.0
O37 O 0.54498 0.04051 0.98254 0.0
O38 O 0.53067 0.90632 0.00845 0.0
Fe39 Fe 0.62521 0.96402 0.98695 0.0
C40 C 0.43714 0.96329 0.16629 0.0
O41 O 0.35383 0.90747 0.02541 0.0
O42 O 0.42565 0.80704 0.04366 0.0
O43 O 0.61825 0.94104 0.87655 0.0
O44 O 0.60693 0.04715 0.83153 0.0
O45 O 0.43874 0.06772 0.85269 0.0
O46 O 0.42461 0.96151 0.89503 0.0
O47 O 0.60193 0.78795 0.02219 0.0
O48 O 0.69306 0.8705 0.99088 0.0
C49 C 0.41115 0.00659 0.84703 0.0
O50 O 0.71219 0.0401 0.96554 0.0
O51 O 0.64025 0.14009 0.94509 0.0
O52 O 0.44756 0.00626 0.11544 0.0
O53 O 0.45594 0.89938 0.15889 0.0
C54 C 0.36139 0.8399 0.03139 0.0
C55 C 0.66812 0.80602 0.99406 0.0
C56 C 0.65423 0.94027 0.14552 0.0
O57 O 0.6238 0.88021 0.14012 0.0
O58 O 0.6429 -0.01416 0.09734 0.0
C59 C 0.62713 -0.0165 0.82497 0.0
O60 O 0.46404 0.1596 0.97011 0.0
O61 O 0.37314 0.07681 0.00129 0.0
C62 C 0.70471 0.10744 0.95728 0.0
C63 C 0.3983 0.14122 -0.00099 0.0
Fe64 Fe 0.04251 0.39446 0.00113 0.0
O65 O 1.00718 0.47411 0.06449 0.0
Fe66 Fe 0.16288 0.4712 0.87404 0.0
Fe67 Fe 0.90844 0.47338 0.11896 0.0
O68 O 0.06274 0.46625 0.92707 0.0
O69 O 0.06249 0.47271 0.92693 0.0
O70 O 1.00732 0.48026 0.06454 0.0
Fe71 Fe 1.02863 0.5527 0.9912 0.0
C72 C 0.87913 0.3563 0.00432 0.0
O73 O 1.02 0.32987 0.08642 0.0
O74 O 0.96926 0.40142 0.17782 0.0
O75 O 0.13889 0.56589 0.03024 0.0
O76 O 0.20646 0.55826 0.92753 0.0
O77 O 0.22085 0.403 0.93981 0.0
O78 O 0.15187 0.40442 0.04186 0.0
O79 O 0.95077 0.56328 0.16616 0.0
O80 O 0.99209 0.62727 0.0686 0.0
C81 C 0.21168 0.38577 0.00551 0.0
O82 O 0.05401 0.61776 0.90547 0.0
O83 O 0.10473 0.54391 0.81533 0.0
O84 O 0.93241 0.37829 0.96237 0.0
O85 O 0.86584 0.38569 0.06587 0.0
C86 C 1.00259 0.34413 0.15376 0.0
C87 C 0.97259 0.62089 0.13653 0.0
C88 C 0.85837 0.56158 0.9887 0.0
O89 O 0.84887 0.54115 0.05346 0.0
O90 O 0.91856 0.54545 0.95135 0.0
C91 C 0.19286 0.58767 0.98903 0.0
O92 O 0.11978 0.38151 0.82627 0.0
O93 O 0.08028 0.31952 0.9255 0.0
C94 C 0.07584 0.6031 0.83898 0.0
C95 C 0.09727 0.32462 0.85711 0.0
C96 C 1.01377 0.30623 0.28035 0.0
C97 C 1.01705 0.28928 0.20605 0.0
C98 C 1.01723 0.25459 0.33158 0.0
C99 C 1.02321 0.18373 0.31056 0.0
H100 H 1.00619 0.35968 0.29943 0.0
H101 H 1.0119 0.2707 0.38815 0.0
S102 S 0.04708 0.11276 0.12238 0.0
N103 N 0.037 0.19754 0.11342 0.0
N104 N 0.04257 0.09989 0.21048 0.0
C105 C 1.0329 0.1663 0.2365 0.0
C106 C 1.02999 0.21925 0.184 0.0
C107 C 0.7729 0.03653 0.29212 0.0
C108 C 0.80862 -0.01789 0.33022 0.0
C109 C 0.72356 0.02314 0.23268 0.0
C110 C 0.70694 0.95468 0.20876 0.0
H111 H 0.78428 0.09031 0.30737 0.0
H112 H 0.69775 0.06683 0.20566 0.0
S113 S 0.78235 0.79328 0.29129 0.0
N114 N 0.82144 0.85683 0.34023 0.0
N115 N 0.72943 0.83153 0.22973 0.0
C116 C 0.74125 0.8998 0.24724 0.0
C117 C 0.79182 0.91347 0.30731 0.0
C118 C 0.0464 0.79318 0.21169 0.0
C119 C 1.02553 0.78874 0.28512 0.0
C120 C 1.02497 0.74035 0.16224 0.0
C121 C 0.98159 0.68233 0.18518 0.0
H122 H 0.08344 0.83502 0.1934 0.0
H123 H 0.04632 0.74324 0.10683 0.0
S124 S 0.89974 0.65618 0.37029 0.0
N125 N 0.95064 0.72864 0.37707 0.0
N126 N 0.9083 0.63049 0.28453 0.0
C127 C 0.95444 0.68148 0.25753 0.0
C128 C 0.97708 0.73447 0.30751 0.0
C129 C 0.3194 0.01975 0.2267 0.0
C130 C 0.39056 -0.01666 0.23248 0.0
C131 C 0.26295 0.01956 0.28333 0.0
C132 C 0.27589 -0.01705 0.34751 0.0
H133 H 0.30432 0.04321 0.1759 0.0
H134 H 0.20647 0.04293 0.27407 0.0
S135 S 0.45898 0.89233 0.39503 0.0
N136 N 0.47518 0.9194 0.31186 0.0
N137 N 0.37009 0.91915 0.41752 0.0
C138 C 0.3499 0.95272 0.35645 0.0
C139 C 0.40692 0.95288 0.29918 0.0
C140 C 1.01273 0.76452 0.74223 0.0
C141 C 0.0668 0.76566 0.68454 0.0
C142 C 1.01607 0.71172 0.79314 0.0
C143 C 0.07374 0.65945 0.78729 0.0
H144 H 0.9666 0.80316 0.74672 0.0
H145 H 0.97241 0.7109 0.83616 0.0
S146 S 0.23613 0.64733 0.65242 0.0
N147 N 0.18427 0.71533 0.62868 0.0
N148 N 0.19124 0.61711 0.72469 0.0
C149 C 0.13041 0.66261 0.73191 0.0
C150 C 0.12679 0.71566 0.68036 0.0
C151 C 0.3202 0.04417 0.74837 0.0
C152 C 0.35909 -0.00997 0.78412 0.0
C153 C 0.27013 0.03068 0.68965 0.0
C154 C 0.25765 0.96243 0.66265 0.0
H155 H 0.32734 0.09776 0.76672 0.0
H156 H 0.24081 0.07423 0.6654 0.0
S157 S 0.34652 0.80179 0.736 0.0
N158 N 0.38166 0.8654 0.7875 0.0
N159 N 0.28957 0.8397 0.67717 0.0
C160 C 0.29712 0.90782 0.69744 0.0
C161 C 0.34706 0.92162 0.75798 0.0
C162 C 0.10467 0.26648 0.73584 0.0
C163 C 0.08439 0.26286 0.80973 0.0
C164 C 0.08105 0.21534 0.68648 0.0
C165 C 0.03696 0.15823 0.70902 0.0
H166 H 0.13632 0.31058 0.71498 0.0
H167 H 0.09572 0.22161 0.62962 0.0
S168 S 0.97917 0.11722 0.89723 0.0
N169 N 1.02512 0.19244 0.90442 0.0
N170 N 0.9813 0.0956 0.80995 0.0
C171 C 1.02151 0.15032 0.78306 0.0
C172 C 0.04514 0.20291 0.83393 0.0
C173 C 0.74535 0.92736 0.7651 0.0
C174 C 0.67401 0.9634 0.75891 0.0
C175 C 0.80206 0.92757 0.70872 0.0
C176 C 0.78928 0.96381 0.64428 0.0
H177 H 0.76035 0.90419 0.81608 0.0
H178 H 0.85859 0.9045 0.71834 0.0
S179 S 0.60575 0.05302 0.59541 0.0
N180 N 0.58934 0.02636 0.67871 0.0
N181 N 0.69496 0.02666 0.57348 0.0
C182 C 0.71511 -0.0064 0.63486 0.0
C183 C 0.65778 -0.00659 0.69192 0.0
C184 C 0.22092 0.25799 0.02367 0.0
C185 C 0.25566 0.3244 0.02844 0.0
C186 C 0.26659 0.19697 0.02074 0.0
C187 C 0.34823 0.20083 0.02383 0.0
H188 H 0.15875 0.25318 0.01628 0.0
H189 H 0.23827 0.14747 0.01034 0.0
S190 S 0.46405 0.36193 0.05697 0.0
N191 N 0.37364 0.39002 0.04849 0.0
N192 N 0.45972 0.27621 0.04882 0.0
C193 C 0.38203 0.26678 0.03874 0.0
C194 C 0.33572 0.32849 0.03934 0.0
C195 C 0.24908 0.69842 0.94247 0.0
C196 C 0.22538 0.65854 0.0022 0.0
C197 C 0.28299 0.76425 0.95213 0.0
C198 C 0.29476 0.79288 0.02177 0.0
H199 H 0.2436 0.67789 0.88752 0.0
H200 H 0.30621 0.79018 0.90506 0.0
S201 S 0.23647 0.71407 0.1958 0.0
N202 N 0.20942 0.65622 0.13336 0.0
N203 N 0.27542 0.77929 0.15126 0.0
C204 C 0.26663 0.75603 0.08167 0.0
C205 C 0.2314 0.68908 0.07197 0.0
C206 C 0.78975 0.19903 0.90766 0.0
C207 C 0.77167 0.15457 0.96529 0.0
C208 C 0.82748 0.26306 0.91983 0.0
C209 C 0.84574 0.28596 0.99048 0.0
H210 H 0.7697 0.18632 0.85348 0.0
H211 H 0.83815 0.29652 0.87431 0.0
S212 S 0.82008 0.18426 0.1583 0.0
N213 N 0.78318 0.13396 0.09362 0.0
N214 N 0.8512 0.25485 0.11776 0.0
C215 C 0.83265 0.23964 0.04777 0.0
C216 C 0.79646 0.17376 0.03482 0.0
C217 C 0.84667 0.68958 0.972 0.0
C218 C 0.81264 0.62283 0.96787 0.0
C219 C 0.8004 0.75031 0.97429 0.0
C220 C 0.71878 0.74596 0.9712 0.0
H221 H 0.9089 0.6949 0.97895 0.0
H222 H 0.8283 0.80014 0.98379 0.0
S223 S 0.60435 0.58336 0.94142 0.0
N224 N 0.69509 0.55612 0.94976 0.0
N225 N 0.60789 0.66918 0.94828 0.0
C226 C 0.68553 0.67942 0.95784 0.0
C227 C 0.73247 0.61803 0.95789 0.0
loop_
_geom_bond_atom_site_label_1
_geom_bond_atom_site_label_2
_geom_bond_distance
_geom_bond_site_symmetry_2
_ccdc_geom_bond_type
Fe0 O1 1.886 . S
Fe0 O4 1.715 1_645 S
Fe0 O9 2.077 1_545 S
Fe0 O14 1.935 1_545 S
Fe0 O20 2.077 1_655 S
Fe0 O29 1.935 1_655 S
O1 Fe0 1.886 . S
O1 Fe3 1.715 . S
Fe2 O4 1.886 . S
Fe2 O5 1.715 . S
Fe2 O12 1.935 . S
Fe2 O13 2.077 . S
Fe2 O19 1.935 . S
Fe2 O28 2.077 . S
Fe3 O1 1.715 . S
Fe3 O6 1.886 . S
Fe3 O10 1.935 . S
Fe3 O15 2.077 . S
Fe3 O21 1.935 . S
Fe3 O25 2.077 . S
O4 Fe0 1.715 1_465 S
O4 Fe2 1.886 . S
O5 Fe2 1.715 . S
O5 Fe7 1.893 . S
O6 Fe3 1.886 . S
O6 Fe7 1.708 1_645 S
Fe7 O5 1.893 . S
Fe7 O6 1.708 1_465 S
Fe7 O11 2.091 1_455 S
Fe7 O16 1.938 1_455 S
Fe7 O18 2.077 1_565 S
Fe7 O26 1.921 1_565 S
C8 O20 1.381 1_655 S
C8 O21 1.421 . S
O9 Fe0 2.077 1_565 S
O9 C22 1.381 1_565 S
O10 Fe3 1.935 . S
O10 C22 1.421 . S
O11 Fe7 2.091 1_655 S
O11 C27 1.381 1_655 S
O12 Fe2 1.935 . S
O12 C27 1.421 . S
O13 Fe2 2.077 . S
O13 C17 1.381 . S
O14 Fe0 1.935 1_565 S
O14 C17 1.421 1_655 S
O15 Fe3 2.077 . S
O15 C23 1.381 . S
O16 Fe7 1.938 1_655 S
O16 C23 1.421 1_565 S
C17 O13 1.381 . S
C17 O14 1.421 1_455 S
O18 Fe7 2.077 1_545 S
O18 C30 1.381 1_545 S
O19 Fe2 1.935 . S
O19 C30 1.421 . S
O20 Fe0 2.077 1_455 S
O20 C8 1.381 1_455 S
O21 Fe3 1.935 . S
O21 C8 1.421 . S
C22 O9 1.381 1_545 S
C22 O10 1.421 . S
C23 O15 1.381 . S
C23 O16 1.421 1_545 S
C24 O25 1.381 . S
C24 O26 1.421 1_655 S
O25 Fe3 2.077 . S
O25 C24 1.381 . S
O26 Fe7 1.921 1_545 S
O26 C24 1.421 1_455 S
C27 O11 1.381 1_455 S
C27 O12 1.421 . S
O28 Fe2 2.077 . S
O28 C31 1.381 . S
O29 Fe0 1.935 1_455 S
O29 C31 1.421 1_545 S
C30 O18 1.381 1_565 S
C30 O19 1.421 . S
C31 O28 1.381 . S
C31 O29 1.421 1_565 S
Fe32 O33 1.886 . S
Fe32 O36 1.715 1_564 S
Fe32 O41 2.077 1_554 S
Fe32 O46 1.935 1_554 S
Fe32 O52 2.077 1_565 S
Fe32 O61 1.935 1_565 S
O33 Fe32 1.886 . S
O33 Fe35 1.715 . S
Fe34 O36 1.886 . S
Fe34 O37 1.715 . S
Fe34 O44 1.935 . S
Fe34 O45 2.077 . S
Fe34 O51 1.935 . S
Fe34 O60 2.077 . S
Fe35 O33 1.715 . S
Fe35 O38 1.886 . S
Fe35 O42 1.935 . S
Fe35 O47 2.077 . S
Fe35 O53 1.935 . S
Fe35 O57 2.077 . S
O36 Fe32 1.715 1_546 S
O36 Fe34 1.886 . S
O37 Fe34 1.715 . S
O37 Fe39 1.893 . S
O38 Fe35 1.886 . S
O38 Fe39 1.708 1_564 S
Fe39 O37 1.893 . S
Fe39 O38 1.708 1_546 S
Fe39 O43 2.091 1_545 S
Fe39 O48 1.938 1_545 S
Fe39 O50 2.077 1_556 S
Fe39 O58 1.921 1_556 S
C40 O52 1.381 1_565 S
C40 O53 1.421 . S
O41 Fe32 2.077 1_556 S
O41 C54 1.381 1_556 S
O42 Fe35 1.935 . S
O42 C54 1.421 . S
O43 Fe39 2.091 1_565 S
O43 C59 1.381 1_565 S
O44 Fe34 1.935 . S
O44 C59 1.421 . S
O45 Fe34 2.077 . S
O45 C49 1.381 . S
O46 Fe32 1.935 1_556 S
O46 C49 1.421 1_565 S
O47 Fe35 2.077 . S
O47 C55 1.381 . S
O48 Fe39 1.938 1_565 S
O48 C55 1.421 1_556 S
C49 O45 1.381 . S
C49 O46 1.421 1_545 S
O50 Fe39 2.077 1_554 S
O50 C62 1.381 1_554 S
O51 Fe34 1.935 . S
O51 C62 1.421 . S
O52 Fe32 2.077 1_545 S
O52 C40 1.381 1_545 S
O53 Fe35 1.935 . S
O53 C40 1.421 . S
C54 O41 1.381 1_554 S
C54 O42 1.421 . S
C55 O47 1.381 . S
C55 O48 1.421 1_554 S
C56 O57 1.381 . S
C56 O58 1.421 1_565 S
O57 Fe35 2.077 . S
O57 C56 1.381 . S
O58 Fe39 1.921 1_554 S
O58 C56 1.421 1_545 S
C59 O43 1.381 1_545 S
C59 O44 1.421 . S
O60 Fe34 2.077 . S
O60 C63 1.381 . S
O61 Fe32 1.935 1_545 S
O61 C63 1.421 1_554 S
C62 O50 1.381 1_556 S
C62 O51 1.421 . S
C63 O60 1.381 . S
C63 O61 1.421 1_556 S
Fe64 O65 1.886 . S
Fe64 O68 1.715 1_654 S
Fe64 O73 2.077 1_655 S
Fe64 O78 1.935 1_655 S
Fe64 O84 2.077 1_554 S
Fe64 O93 1.935 1_554 S
O65 Fe64 1.886 . S
O65 Fe67 1.715 . S
Fe66 O68 1.886 . S
Fe66 O69 1.715 . S
Fe66 O76 1.935 . S
Fe66 O77 2.077 . S
Fe66 O83 1.935 . S
Fe66 O92 2.077 . S
Fe67 O65 1.715 . S
Fe67 O70 1.886 . S
Fe67 O74 1.935 . S
Fe67 O79 2.077 . S
Fe67 O85 1.935 . S
Fe67 O89 2.077 . S
O68 Fe64 1.715 1_456 S
O68 Fe66 1.886 . S
O69 Fe66 1.715 . S
O69 Fe71 1.893 . S
O70 Fe67 1.886 . S
O70 Fe71 1.708 1_654 S
Fe71 O69 1.893 . S
Fe71 O70 1.708 1_456 S
Fe71 O75 2.077 1_556 S
Fe71 O80 1.921 1_556 S
Fe71 O82 2.091 1_455 S
Fe71 O90 1.938 1_455 S
C72 O84 1.381 1_554 S
C72 O85 1.421 . S
O73 Fe64 2.077 1_455 S
O73 C86 1.381 1_455 S
O74 Fe67 1.935 . S
O74 C86 1.421 . S
O75 Fe71 2.077 1_554 S
O75 C91 1.381 1_554 S
O76 Fe66 1.935 . S
O76 C91 1.421 . S
O77 Fe66 2.077 . S
O77 C81 1.381 . S
O78 Fe64 1.935 1_455 S
O78 C81 1.421 1_554 S
O79 Fe67 2.077 . S
O79 C87 1.381 . S
O80 Fe71 1.921 1_554 S
O80 C87 1.421 1_455 S
C81 O77 1.381 . S
C81 O78 1.421 1_556 S
O82 Fe71 2.091 1_655 S
O82 C94 1.381 1_655 S
O83 Fe66 1.935 . S
O83 C94 1.421 . S
O84 Fe64 2.077 1_556 S
O84 C72 1.381 1_556 S
O85 Fe67 1.935 . S
O85 C72 1.421 . S
C86 O73 1.381 1_655 S
C86 O74 1.421 . S
C87 O79 1.381 . S
C87 O80 1.421 1_655 S
C88 O89 1.381 . S
C88 O90 1.421 1_554 S
O89 Fe67 2.077 . S
O89 C88 1.381 . S
O90 Fe71 1.938 1_655 S
O90 C88 1.421 1_556 S
C91 O75 1.381 1_556 S
C91 O76 1.421 . S
O92 Fe66 2.077 . S
O92 C95 1.381 . S
O93 Fe64 1.935 1_556 S
O93 C95 1.421 1_655 S
C94 O82 1.381 1_455 S
C94 O83 1.421 . S
C95 O92 1.381 . S
C95 O93 1.421 1_455 S
C96 C97 1.369 . S
C96 C98 1.419 . S
C96 H100 0.930 . S
C97 C96 1.369 . S
C97 C106 1.429 1_655 S
C98 C96 1.419 . S
C98 C99 1.363 . S
C98 H101 0.929 . S
C99 C98 1.363 . S
C99 C105 1.428 1_655 S
H100 C96 0.930 . S
H101 C98 0.929 . S
S102 N103 1.613 . S
S102 N104 1.610 . S
N103 S102 1.613 . S
N103 C106 1.350 . S
N104 S102 1.610 . S
N104 C105 1.351 . S
C105 C99 1.428 1_455 S
C105 N104 1.351 . S
C105 C106 1.434 . S
C106 C97 1.429 1_455 S
C106 N103 1.350 . S
C106 C105 1.434 . S
C107 C108 1.370 . S
C107 C109 1.419 . S
C107 H111 0.930 . S
C108 C107 1.370 . S
C108 C117 1.428 1_545 S
C109 C107 1.419 . S
C109 C110 1.363 1_545 S
C109 H112 0.929 . S
C110 C109 1.363 1_565 S
C110 C116 1.428 . S
H111 C107 0.930 . S
H112 C109 0.929 . S
S113 N114 1.613 . S
S113 N115 1.610 . S
N114 S113 1.613 . S
N114 C117 1.350 . S
N115 S113 1.610 . S
N115 C116 1.351 . S
C116 C110 1.428 . S
C116 N115 1.351 . S
C116 C117 1.434 . S
C117 C108 1.428 1_565 S
C117 N114 1.350 . S
C117 C116 1.434 . S
C118 C119 1.369 . S
C118 C120 1.419 . S
C118 H122 0.930 . S
C119 C118 1.369 . S
C119 C128 1.429 1_455 S
C120 C118 1.419 . S
C120 C121 1.363 1_455 S
C120 H123 0.929 . S
C121 C120 1.363 1_655 S
C121 C127 1.428 . S
H122 C118 0.930 . S
H123 C120 0.929 . S
S124 N125 1.613 . S
S124 N126 1.610 . S
N125 S124 1.613 . S
N125 C128 1.350 . S
N126 S124 1.610 . S
N126 C127 1.351 . S
C127 C121 1.428 . S
C127 N126 1.351 . S
C127 C128 1.434 . S
C128 C119 1.429 1_655 S
C128 N125 1.350 . S
C128 C127 1.434 . S
C129 C130 1.369 1_545 S
C129 C131 1.419 . S
C129 H133 0.930 . S
C130 C129 1.369 1_565 S
C130 C139 1.429 . S
C131 C129 1.419 . S
C131 C132 1.363 1_545 S
C131 H134 0.929 . S
C132 C131 1.363 1_565 S
C132 C138 1.428 . S
H133 C129 0.930 . S
H134 C131 0.929 . S
S135 N136 1.613 . S
S135 N137 1.610 . S
N136 S135 1.613 . S
N136 C139 1.350 . S
N137 S135 1.610 . S
N137 C138 1.351 . S
C138 C132 1.428 . S
C138 N137 1.351 . S
C138 C139 1.434 . S
C139 C130 1.429 . S
C139 N136 1.350 . S
C139 C138 1.434 . S
C140 C141 1.369 1_655 S
C140 C142 1.419 . S
C140 H144 0.930 . S
C141 C140 1.369 1_455 S
C141 C150 1.429 . S
C142 C140 1.419 . S
C142 C143 1.363 1_655 S
C142 H145 0.929 . S
C143 C142 1.363 1_455 S
C143 C149 1.428 . S
H144 C140 0.930 . S
H145 C142 0.929 . S
S146 N147 1.613 . S
S146 N148 1.610 . S
N147 S146 1.613 . S
N147 C150 1.350 . S
N148 S146 1.610 . S
N148 C149 1.351 . S
C149 C143 1.428 . S
C149 N148 1.351 . S
C149 C150 1.434 . S
C150 C141 1.429 . S
C150 N147 1.350 . S
C150 C149 1.434 . S
C151 C152 1.370 . S
C151 C153 1.419 . S
C151 H155 0.930 . S
C152 C151 1.370 . S
C152 C161 1.428 1_545 S
C153 C151 1.419 . S
C153 C154 1.363 1_545 S
C153 H156 0.929 . S
C154 C153 1.363 1_565 S
C154 C160 1.428 . S
H155 C151 0.930 . S
H156 C153 0.929 . S
S157 N158 1.613 . S
S157 N159 1.610 . S
N158 S157 1.613 . S
N158 C161 1.350 . S
N159 S157 1.610 . S
N159 C160 1.351 . S
C160 C154 1.428 . S
C160 N159 1.351 . S
C160 C161 1.434 . S
C161 C152 1.428 1_565 S
C161 N158 1.350 . S
C161 C160 1.434 . S
C162 C163 1.369 1_655 S
C162 C164 1.419 . S
C162 H166 0.930 . S
C163 C162 1.369 1_455 S
C163 C172 1.429 . S
C164 C162 1.419 . S
C164 C165 1.363 . S
C164 H167 0.929 . S
C165 C164 1.363 . S
C165 C171 1.428 1_655 S
H166 C162 0.930 . S
H167 C164 0.929 . S
S168 N169 1.613 . S
S168 N170 1.610 . S
N169 S168 1.613 . S
N169 C172 1.350 . S
N170 S168 1.610 . S
N170 C171 1.351 . S
C171 C165 1.428 1_455 S
C171 N170 1.351 . S
C171 C172 1.434 . S
C172 C163 1.429 . S
C172 N169 1.350 . S
C172 C171 1.434 . S
C173 C174 1.369 1_565 S
C173 C175 1.419 . S
C173 H177 0.930 . S
C174 C173 1.369 1_545 S
C174 C183 1.429 . S
C175 C173 1.419 . S
C175 C176 1.363 1_565 S
C175 H178 0.929 . S
C176 C175 1.363 1_545 S
C176 C182 1.428 . S
H177 C173 0.930 . S
H178 C175 0.929 . S
S179 N180 1.613 . S
S179 N181 1.610 . S
N180 S179 1.613 . S
N180 C183 1.350 . S
N181 S179 1.610 . S
N181 C182 1.351 . S
C182 C176 1.428 . S
C182 N181 1.351 . S
C182 C183 1.434 . S
C183 C174 1.429 . S
C183 N180 1.350 . S
C183 C182 1.434 . S
C184 C185 1.369 1_554 S
C184 C186 1.419 . S
C184 H188 0.930 . S
C185 C184 1.369 1_556 S
C185 C194 1.429 . S
C186 C184 1.419 . S
C186 C187 1.363 1_554 S
C186 H189 0.929 . S
C187 C186 1.363 1_556 S
C187 C193 1.428 . S
H188 C184 0.930 . S
H189 C186 0.929 . S
S190 N191 1.613 . S
S190 N192 1.610 . S
N191 S190 1.613 . S
N191 C194 1.350 . S
N192 S190 1.610 . S
N192 C193 1.351 . S
C193 C187 1.428 . S
C193 N192 1.351 . S
C193 C194 1.434 . S
C194 C185 1.429 . S
C194 N191 1.350 . S
C194 C193 1.434 . S
C195 C196 1.368 . S
C195 C197 1.419 . S
C195 H199 0.930 . S
C196 C195 1.368 . S
C196 C205 1.429 1_556 S
C197 C195 1.419 . S
C197 C198 1.363 1_556 S
C197 H200 0.929 . S
C198 C197 1.363 1_554 S
C198 C204 1.428 . S
H199 C195 0.930 . S
H200 C197 0.929 . S
S201 N202 1.613 . S
S201 N203 1.610 . S
N202 S201 1.613 . S
N202 C205 1.350 . S
N203 S201 1.610 . S
N203 C204 1.351 . S
C204 C198 1.428 . S
C204 N203 1.351 . S
C204 C205 1.434 . S
C205 C196 1.429 1_554 S
C205 N202 1.350 . S
C205 C204 1.434 . S
C206 C207 1.370 1_556 S
C206 C208 1.419 . S
C206 H210 0.930 . S
C207 C206 1.370 1_554 S
C207 C216 1.428 . S
C208 C206 1.419 . S
C208 C209 1.363 1_556 S
C208 H211 0.929 . S
C209 C208 1.363 1_554 S
C209 C215 1.428 . S
H210 C206 0.930 . S
H211 C208 0.929 . S
S212 N213 1.613 . S
S212 N214 1.610 . S
N213 S212 1.613 . S
N213 C216 1.350 . S
N214 S212 1.610 . S
N214 C215 1.351 . S
C215 C209 1.428 . S
C215 N214 1.351 . S
C215 C216 1.434 . S
C216 C207 1.428 . S
C216 N213 1.350 . S
C216 C215 1.434 . S
C217 C218 1.369 1_556 S
C217 C219 1.419 . S
C217 H221 0.930 . S
C218 C217 1.369 1_554 S
C218 C227 1.429 . S
C219 C217 1.419 . S
C219 C220 1.363 1_556 S
C219 H222 0.929 . S
C220 C219 1.363 1_554 S
C220 C226 1.428 . S
H221 C217 0.930 . S
H222 C219 0.929 . S
S223 N224 1.613 . S
S223 N225 1.610 . S
N224 S223 1.613 . S
N224 C227 1.350 . S
N225 S223 1.610 . S
N225 C226 1.351 . S
C226 C220 1.428 . S
C226 N225 1.351 . S
C226 C227 1.434 . S
C227 C218 1.429 . S
C227 N224 1.350 . S
C227 C226 1.434 . S
C97 C86 1.245 . S
C99 C8 1.243 . S
C108 C22 1.221 . S
C110 C56 1.204 . S
C119 C17 1.212 . S
C121 C87 1.209 . S
C130 C40 1.242 . S
C132 C31 1.232 . S
C141 C27 1.245 . S
C143 C94 1.247 . S
C152 C49 1.210 . S
C154 C30 1.211 . S
C163 C95 1.200 . S
C165 C24 1.206 . S
C174 C59 1.251 . S
C176 C23 1.244 . S
C185 C81 1.236 . S
C187 C63 1.234 . S
C196 C91 1.221 . S
C198 C54 1.214 . S
C207 C62 1.221 1_554 S
C209 C72 1.212 . S
C218 C88 1.243 . S
C220 C55 1.244 . S
