# Generated by pormake.
# Topology snp, (6)-cn, num edge types: 1
# Building blocks:
#     Node 0, Type 0, BuildingBlock: JUFBIX_clean_sbu_0, # of connection points: 6
#     Node 1, Type 0, BuildingBlock: JUFBIX_clean_sbu_0, # of connection points: 6
#     Node 2, Type 0, BuildingBlock: JUFBIX_clean_sbu_0, # of connection points: 6
#     Node 3, Type 0, BuildingBlock: JUFBIX_clean_sbu_0, # of connection points: 6
#     Edge 4, Type (0, 0), BuildingBlock: OJICUG_clean_linker_0, # of connection points: 2
#     Edge 5, Type (0, 0), BuildingBlock: OJICUG_clean_linker_0, # of connection points: 2
#     Edge 6, Type (0, 0), BuildingBlock: OJICUG_clean_linker_0, # of connection points: 2
#     Edge 7, Type (0, 0), BuildingBlock: OJICUG_clean_linker_0, # of connection points: 2
#     Edge 8, Type (0, 0), BuildingBlock: OJICUG_clean_linker_0, # of connection points: 2
#     Edge 9, Type (0, 0), BuildingBlock: OJICUG_clean_linker_0, # of connection points: 2
#     Edge 10, Type (0, 0), BuildingBlock: OJICUG_clean_linker_0, # of connection points: 2
#     Edge 11, Type (0, 0), BuildingBlock: OJICUG_clean_linker_0, # of connection points: 2
#     Edge 12, Type (0, 0), BuildingBlock: OJICUG_clean_linker_0, # of connection points: 2
#     Edge 13, Type (0, 0), BuildingBlock: OJICUG_clean_linker_0, # of connection points: 2
#     Edge 14, Type (0, 0), BuildingBlock: OJICUG_clean_linker_0, # of connection points: 2
#     Edge 15, Type (0, 0), BuildingBlock: OJICUG_clean_linker_0, # of connection points: 2
# Relax obj value: 0.751
# Max RMSD: 0.277
# Mean RMSD: 0.273
data_MOF--net-snp--node1-JUFBIX_clean_sbu_0--edge1-OJICUG_clean_linker_0
_symmetry_space_group_name_H-M    P1
_symmetry_Int_Tables_number       1
_symmetry_cell_setting            triclinic
loop_
_symmetry_equiv_pos_as_xyz
'x, y, z'
_cell_length_a     20.870316
_cell_length_b     20.407243
_cell_length_c     20.534237
_cell_angle_alpha  86.394344
_cell_angle_beta   97.743979
_cell_angle_gamma 102.06806
loop_
_atom_site_label
_atom_site_type_symbol
_atom_site_fract_x
_atom_site_fract_y
_atom_site_fract_z
_atom_type_partial_charge
Co0 Co 0.25647 0.07788 0.13269 0.0
C1 C 0.36317 0.03033 0.10616 0.0
Co2 Co 0.2296 -0.00894 0.06784 0.0
C3 C 0.24483 0.15569 0.24022 0.0
C4 C 0.32574 0.2038 0.18899 0.0
N5 N 0.27601 0.14963 0.18808 0.0
N6 N 0.27331 0.21098 0.27418 0.0
C7 C 0.32436 0.24151 0.24205 0.0
H8 H 0.20335 0.1187 0.25439 0.0
H9 H 0.36148 0.21436 0.15421 0.0
C10 C 0.12315 0.03235 0.09863 0.0
N11 N 0.21037 0.91716 1.01428 0.0
C12 C 0.1794 0.91032 0.95209 0.0
C13 C 0.22585 0.85683 0.03144 0.0
N14 N 0.17447 0.84801 0.93052 0.0
C15 C 0.20328 0.81415 0.98041 0.0
C16 C 0.23175 0.95665 0.20202 0.0
O17 O 0.16624 0.07608 0.13042 0.0
O18 O 0.14083 -0.00851 0.06417 0.0
O19 O 0.22186 0.93192 0.14527 0.0
O20 O 0.25167 0.01934 0.20698 0.0
O21 O 0.31881 -0.01043 0.0726 0.0
H22 H 0.25206 0.84448 0.07817 0.0
H23 H 0.15967 0.94972 0.92361 0.0
O24 O 0.34736 0.07669 0.13539 0.0
O25 O 0.25834 0.13723 0.05823 0.0
O26 O 0.23464 0.05234 0.99235 0.0
C27 C 0.24444 0.11536 1.00038 0.0
H28 H 0.3585 0.28753 0.25606 0.0
H29 H 0.20808 0.7624 0.97969 0.0
Co30 Co -0.00538 0.24534 0.7144 0.0
C31 C 0.03638 0.38015 0.68233 0.0
Co32 Co 0.07637 0.26838 0.65273 0.0
C33 C 0.91338 0.1875 0.8175 0.0
C34 C 0.8773 0.26692 0.76107 0.0
N35 N 0.92538 0.23099 0.76599 0.0
N36 N 0.86048 0.19583 0.84521 0.0
C37 C 0.83777 0.24582 0.80992 0.0
H38 H 0.94364 0.15143 0.83526 0.0
H39 H 0.87161 0.30653 0.72455 0.0
C40 C 0.02771 0.13403 0.67654 0.0
N41 N 0.14433 0.2846 0.60048 0.0
C42 C 0.14639 0.25543 0.54376 0.0
C43 C 0.20095 0.33075 0.60909 0.0
N44 N 0.20193 0.28174 0.51617 0.0
C45 C 0.23638 0.32916 0.55751 0.0
C46 C 0.11894 0.25561 0.78603 0.0
O47 O -0.00852 0.15395 0.71283 0.0
O48 O 0.06926 0.17623 0.64753 0.0
O49 O 0.13815 0.26703 0.72947 0.0
O50 O 0.05795 0.25034 0.79164 0.0
O51 O 0.08092 0.36109 0.65637 0.0
H52 H 0.21495 0.36431 0.64964 0.0
H53 H 0.10746 0.21571 0.52322 0.0
O54 O -0.00285 0.33772 0.71347 0.0
O55 O 0.93243 0.23721 0.63599 0.0
O56 O 0.01441 0.26678 0.57654 0.0
C57 C 0.95297 0.24843 0.57991 0.0
H58 H 0.79512 0.26502 0.81836 0.0
H59 H 0.28308 0.36182 0.55042 0.0
Co60 Co 0.75549 0.00896 0.19865 0.0
C61 C 0.86194 -0.03234 0.16788 0.0
Co62 Co 0.72862 0.92214 0.1338 0.0
C63 C 0.80569 0.0897 0.3144 0.0
C64 C 0.75924 0.14318 0.23505 0.0
N65 N 0.77472 0.08286 0.25221 0.0
N66 N 0.81062 0.15201 0.33597 0.0
C67 C 0.78181 0.18587 0.28608 0.0
H68 H 0.82543 0.0503 0.34288 0.0
H69 H 0.73303 0.15554 0.18832 0.0
C70 C 0.62192 -0.03031 0.16032 0.0
N71 N 0.70908 0.85039 0.07841 0.0
C72 C 0.74026 0.84433 1.02628 0.0
C73 C 0.65935 0.79623 0.0775 0.0
N74 N 0.71178 0.78905 0.99231 0.0
C75 C 0.66073 0.75851 1.02443 0.0
C76 C 0.74064 0.88466 0.26612 0.0
O77 O 0.66628 0.01045 0.19389 0.0
O78 O 0.63773 0.92334 0.1311 0.0
O79 O 0.72673 0.86279 0.20826 0.0
O80 O 0.75044 0.94768 0.27414 0.0
O81 O 0.81885 0.92393 0.13609 0.0
H82 H 0.62359 0.78567 0.11227 0.0
H83 H 0.78175 0.88131 1.01211 0.0
O84 O 0.84426 0.00853 0.20233 0.0
O85 O 0.76324 0.0681 0.12122 0.0
O86 O 0.73343 -0.01932 0.05952 0.0
C87 C 0.75336 0.04337 0.06447 0.0
H88 H 0.77701 0.23762 0.2868 0.0
H89 H 0.62658 0.7125 1.01042 0.0
Co90 Co 0.90872 0.73164 0.61376 0.0
C91 C -0.0426 0.866 0.58996 0.0
Co92 Co -0.00952 0.75469 0.55209 0.0
C93 C 0.83871 0.7446 0.72274 0.0
C94 C 0.78414 0.66929 0.65739 0.0
N95 N 0.84077 0.71543 0.66602 0.0
N96 N 0.78317 0.71829 0.75032 0.0
C97 C 0.74871 0.67087 0.70898 0.0
H98 H 0.87763 0.78431 0.74327 0.0
H99 H 0.77014 0.63574 0.61684 0.0
C100 C 0.9487 0.61987 0.58416 0.0
N101 N 0.05971 0.76903 0.5005 0.0
C102 C 0.07173 0.81252 0.44899 0.0
C103 C 0.10779 0.73309 0.50541 0.0
N104 N 0.12462 0.80419 0.42128 0.0
C105 C 0.14731 0.75419 0.45657 0.0
C106 C 0.03213 0.75159 0.68658 0.0
O107 O 0.90417 0.63894 0.61012 0.0
O108 O -0.01207 0.6623 0.55302 0.0
O109 O 0.05267 0.76281 0.6305 0.0
O110 O -0.02931 0.73325 0.68995 0.0
O111 O -0.00638 0.84608 0.55366 0.0
H112 H 0.11347 0.69348 0.54193 0.0
H113 H 0.04147 0.8486 0.43124 0.0
O114 O 0.91584 0.8238 0.61896 0.0
O115 O 0.84695 0.733 0.53702 0.0
O116 O 0.92714 0.74969 0.47485 0.0
C117 C 0.86616 0.74442 0.48046 0.0
H118 H 0.702 0.63822 0.71606 0.0
H119 H 0.18996 0.73498 0.44812 0.0
C120 C 0.94632 0.9483 0.1017 0.0
C121 C 0.93009 -0.01965 0.15384 0.0
H122 H 0.0199 0.94198 0.04119 0.0
C123 C -0.0232 0.032 0.18542 0.0
H124 H 0.91076 0.90909 0.07572 0.0
C125 C 0.03877 0.05171 0.16481 0.0
C126 C 0.055 0.01966 0.11266 0.0
H127 H -0.03481 0.05802 0.22532 0.0
H128 H 0.07433 0.09091 0.1908 0.0
C129 C 0.00829 -0.03199 0.08109 0.0
C130 C 0.02476 -0.0191 0.58426 0.0
C131 C -0.02784 0.93583 0.60846 0.0
H132 H 0.08534 0.07877 0.58885 0.0
C133 C 0.93994 0.95543 0.65746 0.0
H134 H 0.05096 0.96671 0.54703 0.0
C135 C -0.03965 0.01912 0.68224 0.0
C136 C 0.01295 0.0642 0.65804 0.0
H137 H 0.89976 0.92126 0.67765 0.0
H138 H 0.93414 0.03332 0.71946 0.0
C139 C 0.04516 0.04459 0.60904 0.0
C140 C 0.50704 0.94631 0.10266 0.0
C141 C 0.55461 -0.01736 0.14886 0.0
H142 H 0.40959 0.9342 0.05159 0.0
C143 C 0.53954 0.03645 0.17938 0.0
H144 H 0.51755 0.90519 0.0778 0.0
C145 C 0.47805 0.05373 0.16382 0.0
C146 C 0.43048 0.0174 0.11761 0.0
H147 H 0.5755 0.06583 0.21489 0.0
H148 H 0.46754 0.09485 0.18868 0.0
C149 C 0.44555 0.96359 0.0871 0.0
C150 C 0.04677 0.48328 0.60984 0.0
C151 C 0.01835 0.44493 0.66172 0.0
H152 H 0.04471 0.5668 0.54218 0.0
C153 C -0.03599 0.46237 0.68497 0.0
H154 H 0.08777 0.47032 0.58984 0.0
C155 C 0.93831 0.51674 0.65664 0.0
C156 C -0.03327 0.55509 0.60477 0.0
H157 H 0.94038 0.43322 0.7243 0.0
H158 H 0.89732 0.5297 0.67665 0.0
C159 C 0.02107 0.53765 0.58151 0.0
C160 C 0.28568 0.282 0.44091 0.0
C161 C 0.21983 0.26437 0.45471 0.0
H162 H 0.35427 0.27879 0.37301 0.0
C163 C 0.17183 0.22977 0.40716 0.0
H164 H 0.32434 0.30771 0.47636 0.0
C165 C 0.18931 0.21278 0.34796 0.0
C166 C 0.2551 0.23033 0.33444 0.0
H167 H 0.12047 0.21629 0.41504 0.0
H168 H 0.15106 0.18651 0.31237 0.0
C169 C 0.303 0.26545 0.38146 0.0
C170 C 0.82543 0.08843 0.90437 0.0
C171 C 0.83249 0.15824 0.89989 0.0
H172 H 0.79295 -0.00236 0.95856 0.0
C173 C 0.81063 0.1906 0.94874 0.0
H174 H 0.84137 0.06241 0.86707 0.0
C175 C 0.78375 0.15371 1.00217 0.0
C176 C 0.77633 0.08363 1.00634 0.0
H177 H 0.8158 0.24458 0.94623 0.0
H178 H 0.769 0.17986 0.04015 0.0
C179 C 0.79694 0.05148 0.95645 0.0
C180 C 0.78406 0.8147 0.43809 0.0
C181 C 0.82222 0.76854 0.42562 0.0
H182 H 0.72913 0.88906 0.39734 0.0
C183 C 0.82622 0.75546 0.36026 0.0
H184 H 0.78119 0.82675 0.48813 0.0
C185 C 0.79444 0.78943 0.30842 0.0
C186 C 0.7603 0.83918 0.3209 0.0
H187 H 0.85598 0.72093 0.34931 0.0
H188 H 0.80072 0.78015 0.25852 0.0
C189 C 0.75445 0.85064 0.38627 0.0
C190 C 0.06664 0.73373 0.80623 0.0
C191 C 0.07646 0.77108 0.74737 0.0
H192 H 0.09144 0.72901 0.91101 0.0
C193 C 0.12108 0.83314 0.74927 0.0
H194 H 0.03163 0.68631 0.80606 0.0
C195 C 0.15331 0.85861 0.80948 0.0
C196 C 0.14278 0.82157 0.86839 0.0
H197 H 0.12823 0.8636 0.70466 0.0
H198 H 0.1861 0.90736 0.81024 0.0
C199 C 0.1004 0.75825 0.86609 0.0
C200 C 0.79579 0.78723 0.91854 0.0
C201 C 0.72999 0.7697 0.93205 0.0
H202 H 0.86463 0.78371 0.85147 0.0
C203 C 0.68209 0.73459 0.88503 0.0
H204 H 0.83404 0.8135 0.95413 0.0
C205 C 0.69941 0.71804 0.82557 0.0
C206 C 0.76526 0.73566 0.81178 0.0
H207 H 0.63082 0.72126 0.89346 0.0
H208 H 0.66075 0.69234 0.79012 0.0
C209 C 0.81326 0.77025 0.85934 0.0
C210 C 0.1882 0.94854 0.31006 0.0
C211 C 0.20878 0.91638 0.26016 0.0
H212 H 0.14378 0.93761 0.39945 0.0
C213 C 0.20133 0.8463 0.26431 0.0
H214 H 0.19221 0.00238 0.30796 0.0
C215 C 0.17444 0.80941 0.31774 0.0
C216 C 0.15262 0.84178 0.36661 0.0
H217 H 0.21606 0.82015 0.22632 0.0
H218 H 0.16925 0.75543 0.32024 0.0
C219 C 0.1597 0.91159 0.36214 0.0
C220 C 0.15886 0.24456 0.90622 0.0
C221 C 0.16287 0.23148 0.84087 0.0
H222 H 0.18435 0.21987 1.00797 0.0
C223 C 0.20104 0.18532 0.8284 0.0
H224 H 0.1291 0.2791 0.91717 0.0
C225 C 0.23064 0.14938 0.88023 0.0
C226 C 0.22477 0.16084 0.94559 0.0
H227 H 0.20392 0.17328 0.77836 0.0
H228 H 0.25596 0.11097 0.86916 0.0
C229 C 0.19064 0.21059 0.95807 0.0
C230 C 0.88469 0.24177 0.4004 0.0
C231 C 0.84232 0.17845 0.3981 0.0
H232 H 0.95346 0.31371 0.46043 0.0
C233 C 0.8318 0.14141 0.45701 0.0
H234 H 0.89364 0.27101 0.35547 0.0
C235 C 0.86402 0.16688 0.51722 0.0
C236 C 0.90864 0.22894 0.51912 0.0
H237 H 0.79901 0.09266 0.45625 0.0
H238 H 0.85688 0.13642 0.56183 0.0
C239 C 0.91845 0.2663 0.46026 0.0
loop_
_geom_bond_atom_site_label_1
_geom_bond_atom_site_label_2
_geom_bond_distance
_geom_bond_site_symmetry_2
_ccdc_geom_bond_type
Co0 N5 2.057 . S
Co0 O17 2.021 . S
Co0 O20 2.062 . S
Co0 O24 2.117 . S
Co0 O25 2.020 . S
C1 O21 1.259 . S
C1 O24 1.258 . S
Co2 N11 2.057 1_544 S
Co2 O18 2.117 . S
Co2 O19 2.020 1_545 S
Co2 O21 2.021 . S
Co2 O26 2.062 1_554 S
C3 N5 1.316 . S
C3 N6 1.347 . S
C3 H8 0.931 . S
C4 N5 1.375 . S
C4 C7 1.350 . S
C4 H9 0.930 . S
N5 Co0 2.057 . S
N5 C3 1.316 . S
N5 C4 1.375 . S
N6 C3 1.347 . S
N6 C7 1.373 . S
C7 C4 1.350 . S
C7 N6 1.373 . S
C7 H28 0.931 . S
H8 C3 0.931 . S
H9 C4 0.930 . S
C10 O17 1.259 . S
C10 O18 1.258 . S
N11 Co2 2.057 1_566 S
N11 C12 1.316 . S
N11 C13 1.375 . S
C12 N11 1.316 . S
C12 N14 1.347 . S
C12 H23 0.931 . S
C13 N11 1.375 . S
C13 C15 1.350 . S
C13 H22 0.930 . S
N14 C12 1.347 . S
N14 C15 1.373 . S
C15 C13 1.350 . S
C15 N14 1.373 . S
C15 H29 0.931 . S
C16 O19 1.256 . S
C16 O20 1.255 1_565 S
O17 Co0 2.021 . S
O17 C10 1.259 . S
O18 Co2 2.117 . S
O18 C10 1.258 . S
O19 Co2 2.020 1_565 S
O19 C16 1.256 . S
O20 Co0 2.062 . S
O20 C16 1.255 1_545 S
O21 C1 1.259 . S
O21 Co2 2.021 . S
H22 C13 0.930 . S
H23 C12 0.931 . S
O24 Co0 2.117 . S
O24 C1 1.258 . S
O25 Co0 2.020 . S
O25 C27 1.256 1_554 S
O26 Co2 2.062 1_556 S
O26 C27 1.255 . S
C27 O25 1.256 1_556 S
C27 O26 1.255 . S
H28 C7 0.931 . S
H29 C15 0.931 . S
Co30 N35 2.057 1_455 S
Co30 O47 2.021 . S
Co30 O50 2.062 . S
Co30 O54 2.117 . S
Co30 O55 2.020 1_455 S
C31 O51 1.259 . S
C31 O54 1.258 . S
Co32 N41 2.057 . S
Co32 O48 2.117 . S
Co32 O49 2.020 . S
Co32 O51 2.021 . S
Co32 O56 2.062 . S
C33 N35 1.316 . S
C33 N36 1.347 . S
C33 H38 0.931 . S
C34 N35 1.375 . S
C34 C37 1.350 . S
C34 H39 0.930 . S
N35 Co30 2.057 1_655 S
N35 C33 1.316 . S
N35 C34 1.375 . S
N36 C33 1.347 . S
N36 C37 1.373 . S
C37 C34 1.350 . S
C37 N36 1.373 . S
C37 H58 0.931 . S
H38 C33 0.931 . S
H39 C34 0.930 . S
C40 O47 1.259 . S
C40 O48 1.258 . S
N41 Co32 2.057 . S
N41 C42 1.316 . S
N41 C43 1.375 . S
C42 N41 1.316 . S
C42 N44 1.347 . S
C42 H53 0.931 . S
C43 N41 1.375 . S
C43 C45 1.350 . S
C43 H52 0.930 . S
N44 C42 1.347 . S
N44 C45 1.373 . S
C45 C43 1.350 . S
C45 N44 1.373 . S
C45 H59 0.931 . S
C46 O49 1.256 . S
C46 O50 1.255 . S
O47 Co30 2.021 . S
O47 C40 1.259 . S
O48 Co32 2.117 . S
O48 C40 1.258 . S
O49 Co32 2.020 . S
O49 C46 1.256 . S
O50 Co30 2.062 . S
O50 C46 1.255 . S
O51 C31 1.259 . S
O51 Co32 2.021 . S
H52 C43 0.930 . S
H53 C42 0.931 . S
O54 Co30 2.117 . S
O54 C31 1.258 . S
O55 Co30 2.020 1_655 S
O55 C57 1.256 . S
O56 Co32 2.062 . S
O56 C57 1.255 1_455 S
C57 O55 1.256 . S
C57 O56 1.255 1_655 S
H58 C37 0.931 . S
H59 C45 0.931 . S
Co60 N65 2.057 . S
Co60 O77 2.021 . S
Co60 O80 2.062 1_545 S
Co60 O84 2.117 . S
Co60 O85 2.020 . S
C61 O81 1.259 . S
C61 O84 1.258 1_565 S
Co62 N71 2.057 . S
Co62 O78 2.117 . S
Co62 O79 2.020 . S
Co62 O81 2.021 . S
Co62 O86 2.062 1_565 S
C63 N65 1.316 . S
C63 N66 1.347 . S
C63 H68 0.931 . S
C64 N65 1.375 . S
C64 C67 1.350 . S
C64 H69 0.930 . S
N65 Co60 2.057 . S
N65 C63 1.316 . S
N65 C64 1.375 . S
N66 C63 1.347 . S
N66 C67 1.373 . S
C67 C64 1.350 . S
C67 N66 1.373 . S
C67 H88 0.931 . S
H68 C63 0.931 . S
H69 C64 0.930 . S
C70 O77 1.259 . S
C70 O78 1.258 1_545 S
N71 Co62 2.057 . S
N71 C72 1.316 1_554 S
N71 C73 1.373 1_554 S
C72 N71 1.316 1_556 S
C72 N74 1.347 . S
C72 H83 0.931 . S
C73 N71 1.373 1_556 S
C73 C75 1.357 . S
C73 H82 0.926 1_556 S
N74 C72 1.347 . S
N74 C75 1.373 . S
C75 C73 1.357 . S
C75 N74 1.373 . S
C75 H89 0.931 . S
C76 O79 1.256 . S
C76 O80 1.255 . S
O77 Co60 2.021 . S
O77 C70 1.259 . S
O78 Co62 2.117 . S
O78 C70 1.258 1_565 S
O79 Co62 2.020 . S
O79 C76 1.256 . S
O80 Co60 2.062 1_565 S
O80 C76 1.255 . S
O81 C61 1.259 . S
O81 Co62 2.021 . S
H82 C73 0.926 1_554 S
H83 C72 0.931 . S
O84 Co60 2.117 . S
O84 C61 1.258 1_545 S
O85 Co60 2.020 . S
O85 C87 1.256 . S
O86 Co62 2.062 1_545 S
O86 C87 1.255 . S
C87 O85 1.256 . S
C87 O86 1.255 . S
H88 C67 0.931 . S
H89 C75 0.931 . S
Co90 N95 2.057 . S
Co90 O107 2.021 . S
Co90 O110 2.062 1_655 S
Co90 O114 2.117 . S
Co90 O115 2.020 . S
C91 O111 1.259 . S
C91 O114 1.258 1_455 S
Co92 N101 2.057 . S
Co92 O108 2.117 . S
Co92 O109 2.020 . S
Co92 O111 2.021 . S
Co92 O116 2.062 1_455 S
C93 N95 1.316 . S
C93 N96 1.347 . S
C93 H98 0.931 . S
C94 N95 1.375 . S
C94 C97 1.350 . S
C94 H99 0.930 . S
N95 Co90 2.057 . S
N95 C93 1.316 . S
N95 C94 1.375 . S
N96 C93 1.347 . S
N96 C97 1.373 . S
C97 C94 1.350 . S
C97 N96 1.373 . S
C97 H118 0.931 . S
H98 C93 0.931 . S
H99 C94 0.930 . S
C100 O107 1.259 . S
C100 O108 1.258 1_655 S
N101 Co92 2.057 . S
N101 C102 1.316 . S
N101 C103 1.375 . S
C102 N101 1.316 . S
C102 N104 1.347 . S
C102 H113 0.931 . S
C103 N101 1.375 . S
C103 C105 1.350 . S
C103 H112 0.930 . S
N104 C102 1.347 . S
N104 C105 1.373 . S
C105 C103 1.350 . S
C105 N104 1.373 . S
C105 H119 0.931 . S
C106 O109 1.256 . S
C106 O110 1.255 . S
O107 Co90 2.021 . S
O107 C100 1.259 . S
O108 Co92 2.117 . S
O108 C100 1.258 1_455 S
O109 Co92 2.020 . S
O109 C106 1.256 . S
O110 Co90 2.062 1_455 S
O110 C106 1.255 . S
O111 C91 1.259 . S
O111 Co92 2.021 . S
H112 C103 0.930 . S
H113 C102 0.931 . S
O114 Co90 2.117 . S
O114 C91 1.258 1_655 S
O115 Co90 2.020 . S
O115 C117 1.256 . S
O116 Co92 2.062 1_655 S
O116 C117 1.255 . S
C117 O115 1.256 . S
C117 O116 1.255 . S
H118 C97 0.931 . S
H119 C105 0.931 . S
C120 C121 1.387 1_565 S
C120 H124 0.950 . S
C120 C129 1.390 1_655 S
C121 C120 1.387 1_545 S
C121 C123 1.387 1_655 S
H122 C129 0.950 . S
C123 C121 1.387 1_455 S
C123 C125 1.390 . S
C123 H127 0.950 . S
H124 C120 0.950 . S
C125 C123 1.390 . S
C125 C126 1.387 . S
C125 H128 0.950 . S
C126 C125 1.387 . S
C126 C129 1.387 1_545 S
H127 C123 0.950 . S
H128 C125 0.950 . S
C129 C120 1.390 1_455 S
C129 H122 0.950 . S
C129 C126 1.387 1_565 S
C130 C131 1.387 1_545 S
C130 H134 0.950 . S
C130 C139 1.390 . S
C131 C130 1.387 1_565 S
C131 C133 1.387 . S
H132 C139 0.950 . S
C133 C131 1.387 . S
C133 C135 1.390 1_565 S
C133 H137 0.950 . S
H134 C130 0.950 . S
C135 C133 1.390 1_545 S
C135 C136 1.387 . S
C135 H138 0.950 . S
C136 C135 1.387 . S
C136 C139 1.387 . S
H137 C133 0.950 . S
H138 C135 0.950 . S
C139 C130 1.390 . S
C139 H132 0.950 . S
C139 C136 1.387 . S
C140 C141 1.387 1_565 S
C140 H144 0.950 . S
C140 C149 1.390 1_565 S
C141 C140 1.387 1_545 S
C141 C143 1.387 . S
H142 C149 0.950 . S
C143 C141 1.387 . S
C143 C145 1.390 . S
C143 H147 0.950 . S
H144 C140 0.950 . S
C145 C143 1.390 . S
C145 C146 1.387 . S
C145 H148 0.950 . S
C146 C145 1.387 . S
C146 C149 1.387 . S
H147 C143 0.950 . S
H148 C145 0.950 . S
C149 C140 1.390 1_545 S
C149 H142 0.950 . S
C149 C146 1.387 . S
C150 C151 1.387 . S
C150 H154 0.950 . S
C150 C159 1.390 . S
C151 C150 1.387 . S
C151 C153 1.387 . S
H152 C159 0.950 . S
C153 C151 1.387 . S
C153 C155 1.390 . S
C153 H157 0.950 . S
H154 C150 0.950 . S
C155 C153 1.390 . S
C155 C156 1.387 . S
C155 H158 0.950 . S
C156 C155 1.387 . S
C156 C159 1.387 . S
H157 C153 0.950 . S
H158 C155 0.950 . S
C159 C150 1.390 . S
C159 H152 0.950 . S
C159 C156 1.387 . S
C160 C161 1.387 . S
C160 H164 0.950 . S
C160 C169 1.390 . S
C161 C160 1.387 . S
C161 C163 1.387 . S
H162 C169 0.950 . S
C163 C161 1.387 . S
C163 C165 1.390 . S
C163 H167 0.950 . S
H164 C160 0.950 . S
C165 C163 1.390 . S
C165 C166 1.387 . S
C165 H168 0.950 . S
C166 C165 1.387 . S
C166 C169 1.387 . S
H167 C163 0.950 . S
H168 C165 0.950 . S
C169 C160 1.390 . S
C169 H162 0.950 . S
C169 C166 1.387 . S
C170 C171 1.387 . S
C170 H174 0.950 . S
C170 C179 1.390 . S
C171 C170 1.387 . S
C171 C173 1.387 . S
H172 C179 0.950 . S
C173 C171 1.387 . S
C173 C175 1.390 . S
C173 H177 0.950 . S
H174 C170 0.950 . S
C175 C173 1.390 . S
C175 C176 1.387 . S
C175 H178 0.950 1_556 S
C176 C175 1.387 . S
C176 C179 1.387 . S
H177 C173 0.950 . S
H178 C175 0.950 1_554 S
C179 C170 1.390 . S
C179 H172 0.950 . S
C179 C176 1.387 . S
C180 C181 1.387 . S
C180 H184 0.950 . S
C180 C189 1.390 . S
C181 C180 1.387 . S
C181 C183 1.387 . S
H182 C189 0.950 . S
C183 C181 1.387 . S
C183 C185 1.390 . S
C183 H187 0.950 . S
H184 C180 0.950 . S
C185 C183 1.390 . S
C185 C186 1.387 . S
C185 H188 0.950 . S
C186 C185 1.387 . S
C186 C189 1.387 . S
H187 C183 0.950 . S
H188 C185 0.950 . S
C189 C180 1.390 . S
C189 H182 0.950 . S
C189 C186 1.387 . S
C190 C191 1.387 . S
C190 H194 0.950 . S
C190 C199 1.390 . S
C191 C190 1.387 . S
C191 C193 1.387 . S
H192 C199 0.950 . S
C193 C191 1.387 . S
C193 C195 1.390 . S
C193 H197 0.950 . S
H194 C190 0.950 . S
C195 C193 1.390 . S
C195 C196 1.387 . S
C195 H198 0.950 . S
C196 C195 1.387 . S
C196 C199 1.387 . S
H197 C193 0.950 . S
H198 C195 0.950 . S
C199 C190 1.390 . S
C199 H192 0.950 . S
C199 C196 1.387 . S
C200 C201 1.387 . S
C200 H204 0.950 . S
C200 C209 1.390 . S
C201 C200 1.387 . S
C201 C203 1.387 . S
H202 C209 0.950 . S
C203 C201 1.387 . S
C203 C205 1.390 . S
C203 H207 0.950 . S
H204 C200 0.950 . S
C205 C203 1.390 . S
C205 C206 1.387 . S
C205 H208 0.950 . S
C206 C205 1.387 . S
C206 C209 1.387 . S
H207 C203 0.950 . S
H208 C205 0.950 . S
C209 C200 1.390 . S
C209 H202 0.950 . S
C209 C206 1.387 . S
C210 C211 1.387 . S
C210 H214 0.938 1_565 S
C210 C219 1.390 . S
C211 C210 1.387 . S
C211 C213 1.387 . S
H212 C219 0.950 . S
C213 C211 1.387 . S
C213 C215 1.390 . S
C213 H217 0.950 . S
H214 C210 0.938 1_545 S
C215 C213 1.390 . S
C215 C216 1.387 . S
C215 H218 0.950 . S
C216 C215 1.387 . S
C216 C219 1.387 . S
H217 C213 0.950 . S
H218 C215 0.950 . S
C219 C210 1.390 . S
C219 H212 0.950 . S
C219 C216 1.387 . S
C220 C221 1.387 . S
C220 H224 0.950 . S
C220 C229 1.390 . S
C221 C220 1.387 . S
C221 C223 1.387 . S
H222 C229 0.950 . S
C223 C221 1.387 . S
C223 C225 1.390 . S
C223 H227 0.950 . S
H224 C220 0.950 . S
C225 C223 1.390 . S
C225 C226 1.387 . S
C225 H228 0.950 . S
C226 C225 1.387 . S
C226 C229 1.387 . S
H227 C223 0.950 . S
H228 C225 0.950 . S
C229 C220 1.390 . S
C229 H222 0.950 . S
C229 C226 1.387 . S
C230 C231 1.387 . S
C230 H234 0.950 . S
C230 C239 1.390 . S
C231 C230 1.387 . S
C231 C233 1.387 . S
H232 C239 0.950 . S
C233 C231 1.387 . S
C233 C235 1.390 . S
C233 H237 0.950 . S
H234 C230 0.950 . S
C235 C233 1.390 . S
C235 C236 1.387 . S
C235 H238 0.950 . S
C236 C235 1.387 . S
C236 C239 1.387 . S
H237 C233 0.950 . S
H238 C235 0.950 . S
C239 C230 1.390 . S
C239 H232 0.950 . S
C239 C236 1.387 . S
C121 C61 1.086 1_545 S
C126 C10 1.086 . S
C131 C91 1.183 . S
C136 C40 1.183 . S
C141 C70 0.935 . S
C146 C1 0.935 . S
C151 C31 1.035 . S
C156 C100 1.035 1_455 S
C161 N44 1.250 . S
C166 N6 1.344 . S
C171 N36 1.565 . S
C176 C87 1.544 1_556 S
C181 C117 1.667 . S
C186 C76 1.675 . S
C191 C106 1.442 . S
C196 N14 1.332 . S
C201 N74 1.344 . S
C206 N96 1.251 . S
C211 C16 1.545 . S
C216 N104 1.564 . S
C221 C46 1.667 . S
C226 C27 1.675 . S
C231 N66 1.327 . S
C236 C57 1.443 . S
