# Generated by pormake.
# Topology hex, (8)-cn, num edge types: 1
# Building blocks:
#     Node 0, Type 0, BuildingBlock: LIZSOE_clean_sbu_0, # of connection points: 8
#     Edge 1, Type (0, 0), BuildingBlock: EYOCIG_clean_linker_4, # of connection points: 2
#     Edge 2, Type (0, 0), BuildingBlock: EYOCIG_clean_linker_4, # of connection points: 2
#     Edge 3, Type (0, 0), BuildingBlock: EYOCIG_clean_linker_4, # of connection points: 2
#     Edge 4, Type (0, 0), BuildingBlock: EYOCIG_clean_linker_4, # of connection points: 2
# Relax obj value: 0.178
# Max RMSD: 0.243
# Mean RMSD: 0.243
data_MOF--net-hex--node1-LIZSOE_clean_sbu_0--edge1-EYOCIG_clean_linker_4
_symmetry_space_group_name_H-M    P1
_symmetry_Int_Tables_number       1
_symmetry_cell_setting            triclinic
loop_
_symmetry_equiv_pos_as_xyz
'x, y, z'
_cell_length_a     12.86314
_cell_length_b     19.243499
_cell_length_c     12.380073
_cell_angle_alpha  106.38699
_cell_angle_beta   78.196565
_cell_angle_gamma 139.30751
loop_
_atom_site_label
_atom_site_type_symbol
_atom_site_fract_x
_atom_site_fract_y
_atom_site_fract_z
_atom_type_partial_charge
Co0 Co 0.17488 0.93731 0.05218 0.0
N1 N 0.13108 0.84462 0.12433 0.0
C2 C 0.09534 0.83251 0.23286 0.0
N3 N 0.05137 0.69687 0.13844 0.0
C4 C 0.10712 0.762 0.06979 0.0
C5 C 1.0443 0.74021 0.24148 0.0
Co6 Co 0.94618 0.11252 0.93713 0.0
N7 N 0.95866 0.19737 0.8768 0.0
N8 N 0.94023 0.30318 0.87466 0.0
C9 C 0.85237 0.21872 0.78809 0.0
C10 C 0.86454 0.15377 0.78922 0.0
C11 C 1.0072 0.29092 0.92542 0.0
Co12 Co 0.07759 0.03235 0.9907 0.0
C13 C 0.8636 0.07105 0.02993 0.0
H14 H 0.79381 0.07345 0.73795 0.0
O15 O 0.23556 0.02977 0.9792 0.0
O16 O 0.27341 0.19692 0.00417 0.0
O17 O 0.07894 0.0584 0.1587 0.0
O18 O 0.88568 0.86341 0.97485 0.0
O19 O 1.00604 0.81739 0.95111 0.0
O20 O 0.16637 0.22671 0.93957 0.0
O21 O 0.91078 0.0258 -0.00068 0.0
O22 O 0.95391 0.05083 0.79382 0.0
O23 O 1.02741 0.92099 0.1559 0.0
O24 O 0.32839 0.05852 0.14842 0.0
O25 O 0.07475 1.01206 0.81988 0.0
O26 O 0.95415 0.17057 0.08287 0.0
C27 C 1.03711 0.99175 0.20901 0.0
C28 C 0.10522 0.36564 0.03228 0.0
H29 H 0.18478 0.36325 0.04528 0.0
H30 H 0.17962 0.4507 0.03043 0.0
H31 H 1.02423 0.34243 0.10494 0.0
C32 C 0.28692 0.25992 0.96999 0.0
C33 C 0.88105 0.7908 0.94969 0.0
H34 H 0.09866 0.88411 0.3003 0.0
H35 H 0.19461 0.80968 0.90643 0.0
H36 H 1.01313 0.66681 0.90349 0.0
H37 H 0.19971 0.72458 0.93223 0.0
C38 C 0.13111 0.74082 0.9458 0.0
C39 C 0.31765 0.0345 0.03902 0.0
C40 C 1.01542 1.01922 0.75663 0.0
H41 H 0.99989 0.70556 0.31584 0.0
H42 H 0.77247 0.19951 0.73583 0.0
C43 C 0.93054 0.4346 0.98017 0.0
C44 C 0.9272 0.37096 0.92454 0.0
C45 C 0.95549 0.51681 0.05241 0.0
C46 C 0.99504 0.59725 0.10241 0.0
C47 C 0.60192 1.00482 0.99156 0.0
C48 C 0.70245 1.01245 0.00341 0.0
C49 C 0.50858 1.01784 0.97997 0.0
C50 C 0.42275 0.02657 0.98589 0.0
C51 C 0.53382 0.46989 0.96317 0.0
C52 C 0.43577 0.37501 0.97158 0.0
C53 C 0.63659 0.5798 0.95321 0.0
C54 C 0.73361 0.67608 0.95137 0.0
C55 C 1.02719 0.9979 0.53791 0.0
C56 C 1.03053 1.00276 0.63666 0.0
C57 C 1.02521 1.00284 0.42661 0.0
C58 C 1.03238 1.00682 0.32947 0.0
loop_
_geom_bond_atom_site_label_1
_geom_bond_atom_site_label_2
_geom_bond_distance
_geom_bond_site_symmetry_2
_ccdc_geom_bond_type
Co0 N1 2.034 . S
Co0 O15 2.262 1_654 S
Co0 O19 1.958 1_554 S
Co0 O23 1.950 1_655 S
Co0 O24 2.057 1_654 S
N1 Co0 2.034 . S
N1 C2 1.366 . S
N1 C4 1.332 1_655 S
C2 N1 1.366 . S
C2 C5 1.377 . S
C2 H34 0.931 . S
N3 C4 1.346 . S
N3 C5 1.337 1_455 S
C4 N1 1.332 1_455 S
C4 N3 1.346 . S
C4 C38 1.361 . S
C5 C2 1.377 . S
C5 N3 1.337 1_655 S
C5 H41 0.930 . S
Co6 N7 2.034 1_655 S
Co6 O20 1.950 1_655 S
Co6 O21 2.259 1_556 S
Co6 O22 1.958 . S
Co6 O26 2.057 . S
N7 Co6 2.034 1_455 S
N7 C10 1.366 . S
N7 C11 1.332 . S
N8 C9 1.337 . S
N8 C11 1.346 . S
C9 N8 1.337 . S
C9 C10 1.377 . S
C9 H42 0.930 . S
C10 N7 1.366 . S
C10 C9 1.377 . S
C10 H14 0.931 . S
C11 N7 1.332 . S
C11 N8 1.346 . S
C11 C28 1.361 1_556 S
Co12 O15 2.097 1_655 S
Co12 O16 2.065 1_666 S
Co12 O17 2.065 1_566 S
Co12 O18 2.042 . S
Co12 O21 2.098 1_566 S
Co12 O25 2.042 1_655 S
C13 O21 1.253 . S
C13 O26 1.263 1_554 S
H14 C10 0.931 . S
O15 Co0 2.262 1_456 S
O15 Co12 2.097 1_455 S
O15 C39 1.253 . S
O16 Co12 2.065 1_444 S
O16 C32 1.221 . S
O17 Co12 2.065 1_544 S
O17 C27 1.221 1_545 S
O18 Co12 2.042 . S
O18 C33 1.237 . S
O19 Co0 1.958 1_556 S
O19 C33 1.278 . S
O20 Co6 1.950 1_455 S
O20 C32 1.277 1_556 S
O21 Co6 2.259 1_554 S
O21 Co12 2.098 1_544 S
O21 C13 1.253 . S
O22 Co6 1.958 . S
O22 C40 1.278 1_545 S
O23 Co0 1.950 1_455 S
O23 C27 1.277 1_455 S
O24 Co0 2.057 1_456 S
O24 C39 1.263 . S
O25 Co12 2.042 1_455 S
O25 C40 1.237 1_455 S
O26 Co6 2.057 . S
O26 C13 1.263 1_556 S
C27 O17 1.221 1_565 S
C27 O23 1.277 1_655 S
C28 C11 1.361 1_554 S
C28 H29 0.960 . S
C28 H30 0.961 . S
C28 H31 0.961 1_455 S
H29 C28 0.960 . S
H30 C28 0.961 . S
H31 C28 0.961 1_655 S
C32 O16 1.221 . S
C32 O20 1.277 1_554 S
C33 O18 1.237 . S
C33 O19 1.278 . S
H34 C2 0.931 . S
H35 C38 0.961 . S
H36 C38 0.961 . S
H37 C38 0.960 . S
C38 C4 1.361 . S
C38 H35 0.961 . S
C38 H36 0.961 . S
C38 H37 0.960 . S
C39 O15 1.253 . S
C39 O24 1.263 . S
C40 O22 1.278 1_565 S
C40 O25 1.237 1_655 S
H41 C5 0.930 . S
H42 C9 0.930 . S
C43 C44 1.173 1_455 S
C43 C45 1.380 1_556 S
C44 C43 1.173 1_655 S
C45 C43 1.380 1_554 S
C45 C46 1.170 . S
C46 C45 1.170 . S
C47 C48 1.180 . S
C47 C49 1.371 1_564 S
C48 C47 1.180 . S
C49 C47 1.371 1_546 S
C49 C50 1.170 . S
C50 C49 1.170 . S
C51 C52 1.174 . S
C51 C53 1.376 1_554 S
C52 C51 1.174 . S
C53 C51 1.376 1_556 S
C53 C54 1.170 . S
C54 C53 1.170 . S
C55 C56 1.170 . S
C55 C57 1.380 1_565 S
C56 C55 1.170 . S
C57 C55 1.380 1_545 S
C57 C58 1.170 . S
C58 C57 1.170 . S
C44 N8 1.771 1_655 S
C46 N3 1.528 . S
C48 C13 1.742 1_565 S
C50 C39 1.737 1_545 S
C52 C32 1.750 . S
C54 C33 1.788 . S
C56 C40 1.389 . S
C58 C27 1.437 1_545 S
