# Generated by pormake.
# Topology pcu, (6)-cn, num edge types: 1
# Building blocks:
#     Node 0, Type 0, BuildingBlock: MIFKUJ_clean_sbu_0, # of connection points: 6
#     Edge 1, Type (0, 0), BuildingBlock: UVAHIK_clean_linker_0, # of connection points: 2
#     Edge 2, Type (0, 0), BuildingBlock: UVAHIK_clean_linker_0, # of connection points: 2
#     Edge 3, Type (0, 0), BuildingBlock: UVAHIK_clean_linker_0, # of connection points: 2
# Relax obj value: 0.000
# Max RMSD: 0.000
# Mean RMSD: 0.000
data_MOF--net-pcu--node1-MIFKUJ_clean_sbu_0--edge1-UVAHIK_clean_linker_0
_symmetry_space_group_name_H-M    P1
_symmetry_Int_Tables_number       1
_symmetry_cell_setting            triclinic
loop_
_symmetry_equiv_pos_as_xyz
'x, y, z'
_cell_length_a     20.271889
_cell_length_b     22.858971
_cell_length_c     19.172067
_cell_angle_alpha  99.366018
_cell_angle_beta   88.682531
_cell_angle_gamma 101.56071
loop_
_atom_site_label
_atom_site_type_symbol
_atom_site_fract_x
_atom_site_fract_y
_atom_site_fract_z
_atom_type_partial_charge
Zn0 Zn 0.03413 0.89425 0.9643 0.0
Zn1 Zn 1.031 0.02874 -0.01797 0.0
C2 C 0.17219 0.90203 0.92591 0.0
O3 O 0.14393 0.86214 0.87235 0.0
C4 C 0.89293 0.02096 0.02043 0.0
O5 O 0.92118 0.06085 0.074 0.0
O6 O 1.02076 0.80363 0.95425 0.0
O7 O 0.99266 0.92156 0.05721 0.0
O8 O 0.06353 0.00894 0.07234 0.0
C9 C 0.04491 0.7819 0.00267 0.0
O10 O 0.07572 0.81916 0.05696 0.0
O11 O 0.13475 0.92441 0.97266 0.0
C12 C 1.02019 0.14109 0.94367 0.0
O13 O 0.98936 0.10382 0.8894 0.0
O14 O 0.04437 0.11937 -0.00792 0.0
O15 O 0.07244 0.00142 0.8891 0.0
O16 O 1.00158 0.91404 0.87399 0.0
O17 O 0.93037 -0.0014 -0.02633 0.0
C18 C 1.02736 -0.03433 0.09827 0.0
C19 C 0.03773 0.9573 0.84805 0.0
C20 C 0.06304 0.01517 0.22179 0.0
C21 C 1.027 -0.03438 0.17549 0.0
C22 C 0.06389 0.01439 0.29452 0.0
C23 C 0.03747 0.90973 0.42486 0.0
H24 H 1.02252 0.05351 0.5579 0.0
C25 C 1.00201 0.90778 0.72455 0.0
C26 C 0.03808 0.95734 0.77083 0.0
C27 C 1.00115 0.90854 0.65182 0.0
C28 C 1.02753 0.01319 0.52145 0.0
H29 H 0.96313 0.87651 0.16945 0.0
H30 H 0.96419 0.87545 0.29628 0.0
H31 H 1.01937 0.05565 0.43128 0.0
H32 H 0.10194 0.04644 0.77683 0.0
H33 H 0.10084 0.04748 0.65 0.0
H34 H 0.04562 0.86726 0.51503 0.0
C35 C 0.99245 0.91462 0.27627 0.0
C36 C 1.02569 0.01441 0.44889 0.0
C37 C 0.99147 0.91544 0.2036 0.0
C38 C 0.0736 0.0075 0.74269 0.0
C39 C 0.07259 0.00831 0.67002 0.0
C40 C 0.0393 0.9085 0.49743 0.0
C41 C 1.02885 -0.03601 0.32256 0.0
C42 C 1.03063 -0.0373 0.39974 0.0
C43 C 0.03618 0.95894 0.62375 0.0
C44 C 0.03437 0.96022 0.54657 0.0
H45 H 0.09101 0.05451 0.20187 0.0
H46 H 0.093 0.05288 0.32866 0.0
H47 H 0.04247 0.8694 0.38841 0.0
H48 H 0.97405 0.86845 0.74449 0.0
H49 H 0.97202 0.87005 0.6177 0.0
C50 C 0.2874 0.89143 0.88275 0.0
C51 C 0.24644 0.91751 0.93385 0.0
C52 C 0.35729 0.90328 0.89184 0.0
C53 C 0.48933 0.95312 0.03011 0.0
H54 H 0.60834 -0.0228 0.87157 0.0
C55 C 0.77771 0.03152 0.06359 0.0
C56 C 0.81868 0.00547 0.01248 0.0
C57 C 0.70782 0.01966 0.0545 0.0
C58 C 0.57578 -0.0302 0.91621 0.0
H59 H 0.24697 -0.02244 0.03398 0.0
H60 H 0.36906 -0.0013 0.04948 0.0
H61 H 0.48686 0.961 0.85412 0.0
H62 H 0.81817 0.94544 0.91233 0.0
H63 H 0.69608 0.92427 0.89683 0.0
H64 H 0.57826 -0.03808 0.0922 0.0
C65 C 0.347 -0.03163 0.00283 0.0
C66 C 0.50614 0.96063 0.90623 0.0
C67 C 0.27705 0.95659 -0.00631 0.0
C68 C 0.78808 -0.0336 0.95263 0.0
C69 C 0.71814 0.95459 0.94349 0.0
C70 C 0.55898 -0.03771 0.04009 0.0
C71 C 0.3879 0.94146 0.95228 0.0
C72 C 0.46206 0.95218 0.96306 0.0
C73 C 0.67722 -0.01852 -0.00595 0.0
C74 C 0.60305 -0.02925 -0.01674 0.0
H75 H 0.26548 0.86106 0.83606 0.0
H76 H 0.38719 0.88131 0.85224 0.0
H77 H 0.45678 0.94573 0.07475 0.0
H78 H 0.79962 0.06189 0.11028 0.0
H79 H 0.67791 0.04161 0.0941 0.0
C80 C 1.01029 0.67581 0.93783 0.0
C81 C 0.04046 0.71587 -0.00283 0.0
C82 C 1.00777 0.61363 0.93211 0.0
C83 C 1.01907 0.49445 0.03809 0.0
H84 H 0.05745 0.40405 0.85765 0.0
C85 C 0.05478 0.24719 0.00849 0.0
C86 C 1.02461 0.20711 0.94916 0.0
C87 C 0.05728 0.30936 0.01421 0.0
C88 C 0.04593 0.42851 0.90823 0.0
H89 H 0.09129 0.72195 0.09726 0.0
H90 H 0.08731 0.6137 0.08698 0.0
H91 H 0.05939 0.51213 0.86806 0.0
H92 H 0.97376 0.20101 0.84908 0.0
H93 H 0.97769 0.30925 0.85936 0.0
H94 H 1.00561 0.41084 0.07826 0.0
C95 C 0.06494 0.63021 0.04521 0.0
C96 C 0.04697 0.49044 0.91418 0.0
C97 C 0.06754 0.69235 0.0509 0.0
C98 C 0.99751 0.23062 0.89544 0.0
C99 C 1.00008 0.29275 0.90112 0.0
C100 C 1.01803 0.43252 0.03214 0.0
C101 C 0.03526 0.59013 -0.01436 0.0
C102 C 0.03356 0.52415 -0.02082 0.0
C103 C 1.02976 0.33284 0.96068 0.0
C104 C 1.03144 0.39882 0.96714 0.0
H105 H 0.98884 0.69244 0.89557 0.0
H106 H 0.98377 0.58388 0.88597 0.0
H107 H 1.00754 0.51891 0.08867 0.0
H108 H 0.07626 0.23056 0.05075 0.0
H109 H 0.08128 0.33912 0.06035 0.0
loop_
_geom_bond_atom_site_label_1
_geom_bond_atom_site_label_2
_geom_bond_distance
_geom_bond_site_symmetry_2
_ccdc_geom_bond_type
Zn0 O6 1.969 . S
Zn0 O7 1.965 1_456 S
Zn0 O11 2.024 1_556 S
Zn0 O16 1.969 . S
Zn1 O8 1.969 . S
Zn1 O14 1.969 . S
Zn1 O15 1.965 1_654 S
Zn1 O17 2.024 1_554 S
C2 O3 1.229 . S
C2 O11 1.058 1_556 S
O3 C2 1.229 . S
C4 O5 1.229 . S
C4 O17 1.058 1_554 S
O5 C4 1.229 . S
O6 Zn0 1.969 . S
O6 C9 1.267 1_556 S
O7 Zn0 1.965 1_654 S
O7 C18 1.266 . S
O8 Zn1 1.969 . S
O8 C18 1.250 1_545 S
C9 O6 1.267 1_554 S
C9 O10 1.228 . S
O10 C9 1.228 . S
O11 Zn0 2.024 1_554 S
O11 C2 1.058 1_554 S
C12 O13 1.228 . S
C12 O14 1.267 1_556 S
O13 C12 1.228 . S
O14 Zn1 1.969 . S
O14 C12 1.267 1_554 S
O15 Zn1 1.965 1_456 S
O15 C19 1.269 . S
O16 Zn0 1.969 . S
O16 C19 1.245 1_565 S
O17 Zn1 2.024 1_556 S
O17 C4 1.058 1_556 S
C18 O7 1.266 . S
C18 O8 1.250 1_565 S
C19 O15 1.269 . S
C19 O16 1.245 1_545 S
C20 C21 1.349 1_655 S
C20 C22 1.327 . S
C20 H45 0.950 . S
C21 C20 1.349 1_455 S
C21 C37 1.349 1_545 S
C22 C20 1.327 . S
C22 C41 1.429 1_655 S
C22 H46 0.950 . S
C23 C40 1.574 . S
C23 C42 1.368 1_565 S
C23 H47 0.949 . S
H24 C28 0.949 . S
C25 C26 1.349 1_565 S
C25 C27 1.327 . S
C25 H48 0.950 . S
C26 C25 1.349 1_545 S
C26 C38 1.349 1_455 S
C27 C25 1.327 . S
C27 C43 1.429 1_565 S
C27 H49 0.950 . S
C28 H24 0.949 . S
C28 C36 1.574 . S
C28 C44 1.368 1_655 S
H29 C37 0.950 . S
H30 C35 0.950 . S
H31 C36 0.949 . S
H32 C38 0.950 . S
H33 C39 0.950 . S
H34 C40 0.949 . S
C35 H30 0.950 . S
C35 C37 1.327 . S
C35 C41 1.429 1_565 S
C36 C28 1.574 . S
C36 H31 0.949 . S
C36 C42 1.368 1_655 S
C37 C21 1.349 1_565 S
C37 H29 0.950 . S
C37 C35 1.327 . S
C38 C26 1.349 1_655 S
C38 H32 0.950 . S
C38 C39 1.327 . S
C39 H33 0.950 . S
C39 C38 1.327 . S
C39 C43 1.429 1_655 S
C40 C23 1.574 . S
C40 H34 0.949 . S
C40 C44 1.368 1_565 S
C41 C22 1.429 1_455 S
C41 C35 1.429 1_545 S
C41 C42 1.523 . S
C42 C23 1.368 1_545 S
C42 C36 1.368 1_455 S
C42 C41 1.523 . S
C43 C27 1.429 1_545 S
C43 C39 1.429 1_455 S
C43 C44 1.523 . S
C44 C28 1.368 1_455 S
C44 C40 1.368 1_545 S
C44 C43 1.523 . S
H45 C20 0.950 . S
H46 C22 0.950 . S
H47 C23 0.949 . S
H48 C25 0.950 . S
H49 C27 0.950 . S
C50 C51 1.349 1_556 S
C50 C52 1.327 . S
C50 H75 0.950 . S
C51 C50 1.349 1_554 S
C51 C67 1.349 1_545 S
C52 C50 1.327 . S
C52 C71 1.429 1_556 S
C52 H76 0.950 . S
C53 C70 1.574 . S
C53 C72 1.368 1_565 S
C53 H77 0.949 . S
H54 C58 0.949 . S
C55 C56 1.349 1_565 S
C55 C57 1.327 . S
C55 H78 0.950 . S
C56 C55 1.349 1_545 S
C56 C68 1.349 1_554 S
C57 C55 1.327 . S
C57 C73 1.429 1_565 S
C57 H79 0.950 . S
C58 H54 0.949 . S
C58 C66 1.574 . S
C58 C74 1.368 1_556 S
H59 C67 0.950 . S
H60 C65 0.950 . S
H61 C66 0.949 . S
H62 C68 0.950 . S
H63 C69 0.950 . S
H64 C70 0.949 . S
C65 H60 0.950 . S
C65 C67 1.327 . S
C65 C71 1.429 1_565 S
C66 C58 1.574 . S
C66 H61 0.949 . S
C66 C72 1.368 1_556 S
C67 C51 1.349 1_565 S
C67 H59 0.950 . S
C67 C65 1.327 . S
C68 C56 1.349 1_556 S
C68 H62 0.950 . S
C68 C69 1.327 . S
C69 H63 0.950 . S
C69 C68 1.327 . S
C69 C73 1.429 1_556 S
C70 C53 1.574 . S
C70 H64 0.949 . S
C70 C74 1.368 1_565 S
C71 C52 1.429 1_554 S
C71 C65 1.429 1_545 S
C71 C72 1.523 . S
C72 C53 1.368 1_545 S
C72 C66 1.368 1_554 S
C72 C71 1.523 . S
C73 C57 1.429 1_545 S
C73 C69 1.429 1_554 S
C73 C74 1.523 . S
C74 C58 1.368 1_554 S
C74 C70 1.368 1_545 S
C74 C73 1.523 . S
H75 C50 0.950 . S
H76 C52 0.950 . S
H77 C53 0.949 . S
H78 C55 0.950 . S
H79 C57 0.950 . S
C80 C81 1.349 1_556 S
C80 C82 1.327 . S
C80 H105 0.950 . S
C81 C80 1.349 1_554 S
C81 C97 1.349 1_455 S
C82 C80 1.327 . S
C82 C101 1.429 1_556 S
C82 H106 0.950 . S
C83 C100 1.574 . S
C83 C102 1.368 1_655 S
C83 H107 0.949 . S
H84 C88 0.949 . S
C85 C86 1.349 1_655 S
C85 C87 1.327 . S
C85 H108 0.950 . S
C86 C85 1.349 1_455 S
C86 C98 1.349 1_554 S
C87 C85 1.327 . S
C87 C103 1.429 1_655 S
C87 H109 0.950 . S
C88 H84 0.949 . S
C88 C96 1.574 . S
C88 C104 1.368 1_556 S
H89 C97 0.950 . S
H90 C95 0.950 . S
H91 C96 0.949 . S
H92 C98 0.950 . S
H93 C99 0.950 . S
H94 C100 0.949 . S
C95 H90 0.950 . S
C95 C97 1.327 . S
C95 C101 1.429 1_655 S
C96 C88 1.574 . S
C96 H91 0.949 . S
C96 C102 1.368 1_556 S
C97 C81 1.349 1_655 S
C97 H89 0.950 . S
C97 C95 1.327 . S
C98 C86 1.349 1_556 S
C98 H92 0.950 . S
C98 C99 1.327 . S
C99 H93 0.950 . S
C99 C98 1.327 . S
C99 C103 1.429 1_556 S
C100 C83 1.574 . S
C100 H94 0.949 . S
C100 C104 1.368 1_655 S
C101 C82 1.429 1_554 S
C101 C95 1.429 1_455 S
C101 C102 1.523 . S
C102 C83 1.368 1_455 S
C102 C96 1.368 1_554 S
C102 C101 1.523 . S
C103 C87 1.429 1_455 S
C103 C99 1.429 1_554 S
C103 C104 1.523 . S
C104 C88 1.368 1_554 S
C104 C100 1.368 1_455 S
C104 C103 1.523 . S
H105 C80 0.950 . S
H106 C82 0.950 . S
H107 C83 0.949 . S
H108 C85 0.950 . S
H109 C87 0.950 . S
C21 C18 1.482 1_445 S
C26 C19 1.483 . S
C51 C2 1.414 1_544 S
C56 C4 1.414 . S
C81 C9 1.458 . S
C86 C12 1.458 1_454 S
