# Generated by pormake.
# Topology qzd, (4)-cn, num edge types: 1
# Building blocks:
#     Node 0, Type 0, BuildingBlock: NAWXER_clean_sbu_0, # of connection points: 4
#     Node 1, Type 0, BuildingBlock: NAWXER_clean_sbu_0, # of connection points: 4
#     Node 2, Type 0, BuildingBlock: NAWXER_clean_sbu_0, # of connection points: 4
#     Edge 3, Type (0, 0), None
#     Edge 4, Type (0, 0), None
#     Edge 5, Type (0, 0), None
#     Edge 6, Type (0, 0), None
#     Edge 7, Type (0, 0), None
#     Edge 8, Type (0, 0), None
# Relax obj value: 0.000
# Max RMSD: 0.038
# Mean RMSD: 0.038
data_MOF--net-qzd--node1-NAWXER_clean_sbu_0--edge1-none
_symmetry_space_group_name_H-M    P1
_symmetry_Int_Tables_number       1
_symmetry_cell_setting            triclinic
loop_
_symmetry_equiv_pos_as_xyz
'x, y, z'
_cell_length_a     6.3426296
_cell_length_b     6.4337646
_cell_length_c     19.057748
_cell_angle_alpha  90.120228
_cell_angle_beta   90.101151
_cell_angle_gamma 119.47997
loop_
_atom_site_label
_atom_site_type_symbol
_atom_site_fract_x
_atom_site_fract_y
_atom_site_fract_z
_atom_type_partial_charge
C0 C 0.28086 0.70563 0.03771 0.0
C1 C 0.49205 0.70558 0.03756 0.0
O2 O 0.07397 0.51737 0.03695 0.0
Zn3 Zn 0.87254 0.67782 0.03751 0.0
O4 O 0.29272 0.90936 0.03849 0.0
Zn5 Zn 0.06473 0.06264 0.03779 0.0
O6 O 0.14 0.23062 0.12654 0.0
O7 O 0.95584 0.83955 0.14005 0.0
O8 O 0.68364 0.90929 0.03691 0.0
O9 O 0.51091 0.51727 0.03817 0.0
O10 O 0.95009 0.83886 0.93511 0.0
O11 O 0.15673 0.2299 0.94929 0.0
C12 C 0.05538 0.05019 0.16636 0.0
C13 C 0.06085 0.04947 0.90916 0.0
C14 C 0.06061 0.0863 0.49982 0.0
C15 C 0.05461 0.08002 0.24225 0.0
O16 O 0.94622 0.18567 0.47365 0.0
Zn17 Zn 0.86568 0.26776 0.37098 0.0
O18 O 0.15996 1.00252 0.45987 0.0
Zn19 Zn 0.06457 0.07677 0.37105 0.0
O20 O 0.28332 0.45264 0.37005 0.0
O21 O 0.05422 0.62196 0.37211 0.0
O22 O 0.14019 0.98279 0.28224 0.0
O23 O 0.95226 0.19139 0.26838 0.0
O24 O 0.50785 0.07398 0.36971 0.0
O25 O 0.68597 0.85446 0.37211 0.0
C26 C 0.26375 0.64074 0.37094 0.0
C27 C 0.49289 0.86925 0.37106 0.0
C28 C 0.09108 0.07946 0.83332 0.0
C29 C 0.09071 0.0857 0.57572 0.0
O30 O 0.90823 0.9828 0.79319 0.0
Zn31 Zn 0.07723 0.07581 0.70447 0.0
O32 O 0.30451 0.19076 0.80734 0.0
Zn33 Zn 0.46699 0.2665 0.70483 0.0
O34 O 0.63269 0.6205 0.70383 0.0
O35 O 0.2345 0.45166 0.70572 0.0
O36 O 0.30423 0.18454 0.60212 0.0
O37 O 0.90754 1.00122 0.61548 0.0
O38 O 0.23361 0.85341 0.70334 0.0
O39 O 0.63098 0.07262 0.70591 0.0
C40 C 0.44204 0.63951 0.70484 0.0
C41 C 0.44136 0.86804 0.70452 0.0
loop_
_geom_bond_atom_site_label_1
_geom_bond_atom_site_label_2
_geom_bond_distance
_geom_bond_site_symmetry_2
_ccdc_geom_bond_type
C0 O2 1.249 . S
C0 O4 1.254 1_565 S
C1 O8 1.250 . S
C1 O9 1.253 1_545 S
O2 C0 1.249 . S
O2 Zn3 2.028 1_455 S
Zn3 O2 2.028 1_655 S
Zn3 O7 2.035 . S
Zn3 O9 2.035 . S
Zn3 O10 2.028 1_554 S
O4 C0 1.254 1_545 S
O4 Zn5 2.035 . S
Zn5 O4 2.035 . S
Zn5 O6 2.028 . S
Zn5 O8 2.028 1_455 S
Zn5 O11 2.035 1_554 S
O6 Zn5 2.028 . S
O6 C12 1.250 . S
O7 Zn3 2.035 . S
O7 C12 1.255 1_665 S
O8 C1 1.250 . S
O8 Zn5 2.028 1_655 S
O9 C1 1.253 1_565 S
O9 Zn3 2.035 . S
O10 Zn3 2.028 1_556 S
O10 C13 1.249 1_655 S
O11 Zn5 2.035 1_556 S
O11 C13 1.256 1_545 S
C12 O6 1.250 . S
C12 O7 1.255 1_445 S
C13 O10 1.249 1_455 S
C13 O11 1.256 1_565 S
C14 O16 1.247 1_455 S
C14 O18 1.258 . S
C15 O22 1.247 1_645 S
C15 O23 1.258 . S
O16 C14 1.247 1_655 S
O16 Zn17 2.028 . S
Zn17 O16 2.028 . S
Zn17 O21 2.035 1_655 S
Zn17 O23 2.035 . S
Zn17 O24 2.028 1_545 S
O18 C14 1.258 . S
O18 Zn19 2.035 1_545 S
Zn19 O18 2.035 1_565 S
Zn19 O20 2.028 1_565 S
Zn19 O22 2.028 . S
Zn19 O25 2.035 1_455 S
O20 Zn19 2.028 1_545 S
O20 C26 1.247 . S
O21 Zn17 2.035 1_455 S
O21 C26 1.258 . S
O22 C15 1.247 1_465 S
O22 Zn19 2.028 . S
O23 C15 1.258 . S
O23 Zn17 2.035 . S
O24 Zn17 2.028 1_565 S
O24 C27 1.247 . S
O25 Zn19 2.035 1_655 S
O25 C27 1.258 . S
C26 O20 1.247 . S
C26 O21 1.258 . S
C27 O24 1.247 . S
C27 O25 1.258 . S
C28 O30 1.247 1_445 S
C28 O32 1.258 . S
C29 O36 1.247 . S
C29 O37 1.258 1_445 S
O30 C28 1.247 1_665 S
O30 Zn31 2.028 . S
Zn31 O30 2.028 . S
Zn31 O35 2.035 1_565 S
Zn31 O37 2.035 . S
Zn31 O38 2.028 . S
O32 C28 1.258 . S
O32 Zn33 2.035 . S
Zn33 O32 2.035 . S
Zn33 O34 2.028 . S
Zn33 O36 2.028 . S
Zn33 O39 2.035 1_545 S
O34 Zn33 2.028 . S
O34 C40 1.247 . S
O35 Zn31 2.035 1_545 S
O35 C40 1.258 1_655 S
O36 C29 1.247 . S
O36 Zn33 2.028 . S
O37 C29 1.258 1_665 S
O37 Zn31 2.035 . S
O38 Zn31 2.028 . S
O38 C41 1.247 1_655 S
O39 Zn33 2.035 1_565 S
O39 C41 1.258 . S
C40 O34 1.247 . S
C40 O35 1.258 1_455 S
C41 O38 1.247 1_455 S
C41 O39 1.258 . S
C1 C0 1.505 1_545 S
C27 C26 1.501 . S
C41 C40 1.500 . S
C15 C12 1.560 1_655 S
C29 C14 1.564 . S
C28 C13 1.574 1_545 S
