# Generated by pormake.
# Topology sxa, (6)-cn, num edge types: 1
# Building blocks:
#     Node 0, Type 0, BuildingBlock: VOLQOD_clean_sbu_1, # of connection points: 6
#     Node 1, Type 0, BuildingBlock: VOLQOD_clean_sbu_1, # of connection points: 6
#     Node 2, Type 0, BuildingBlock: VOLQOD_clean_sbu_1, # of connection points: 6
#     Node 3, Type 0, BuildingBlock: VOLQOD_clean_sbu_1, # of connection points: 6
#     Edge 4, Type (0, 0), None
#     Edge 5, Type (0, 0), None
#     Edge 6, Type (0, 0), None
#     Edge 7, Type (0, 0), None
#     Edge 8, Type (0, 0), None
#     Edge 9, Type (0, 0), None
#     Edge 10, Type (0, 0), None
#     Edge 11, Type (0, 0), None
#     Edge 12, Type (0, 0), None
#     Edge 13, Type (0, 0), None
#     Edge 14, Type (0, 0), None
#     Edge 15, Type (0, 0), None
# Relax obj value: 0.229
# Max RMSD: 0.202
# Mean RMSD: 0.202
data_MOF--net-sxa--node1-VOLQOD_clean_sbu_1--edge1-none
_symmetry_space_group_name_H-M    P1
_symmetry_Int_Tables_number       1
_symmetry_cell_setting            triclinic
loop_
_symmetry_equiv_pos_as_xyz
'x, y, z'
_cell_length_a     12.475185
_cell_length_b     14.222015
_cell_length_c     9.9073007
_cell_angle_alpha  89.998283
_cell_angle_beta   91.982882
_cell_angle_gamma 90.008989
loop_
_atom_site_label
_atom_site_type_symbol
_atom_site_fract_x
_atom_site_fract_y
_atom_site_fract_z
_atom_type_partial_charge
O0 O 0.88763 0.73168 0.40968 0.0
Zn1 Zn 0.02934 0.70445 0.29764 0.0
O2 O 0.02951 0.81649 0.20541 0.0
Zn3 Zn 0.02057 0.81305 0.01612 0.0
Zn4 Zn 0.96739 0.92443 0.2637 0.0
Zn5 Zn 0.1658 0.85439 0.20517 0.0
O6 O 0.16988 0.8037 0.9469 0.0
O7 O 0.23275 0.74537 0.13803 0.0
O8 O 0.00977 0.60612 0.12577 0.0
O9 O 0.95728 0.69586 0.94994 0.0
O10 O 0.92755 0.92082 0.9587 0.0
O11 O 0.84368 0.93081 0.15212 0.0
O12 O 0.04099 1.0413 0.17841 0.0
O13 O 0.18499 0.70886 0.41573 0.0
O14 O 0.17143 0.96701 0.07572 0.0
O15 O 0.23084 0.85899 0.38372 0.0
C16 C 0.84572 0.80887 0.45376 0.0
C17 C 0.24167 0.75815 0.01461 0.0
C18 C 0.84529 0.94141 0.02611 0.0
C19 C 0.97625 0.61552 0.00031 0.0
C20 C 0.10845 1.03706 0.083 0.0
C21 C 0.24871 0.77982 0.44063 0.0
O22 O 0.88819 0.88984 0.43126 0.0
O23 O 0.38763 0.23168 0.40968 0.0
Zn24 Zn 0.52934 0.20445 0.29764 0.0
O25 O 0.52951 0.31649 0.20541 0.0
Zn26 Zn 0.52057 0.31305 0.01612 0.0
Zn27 Zn 0.46739 0.42443 0.2637 0.0
Zn28 Zn 0.6658 0.35439 0.20517 0.0
O29 O 0.66988 0.3037 0.9469 0.0
O30 O 0.73275 0.24537 0.13803 0.0
O31 O 0.50977 0.10612 0.12577 0.0
O32 O 0.45728 0.19586 0.94994 0.0
O33 O 0.42755 0.42082 0.9587 0.0
O34 O 0.34368 0.43081 0.15212 0.0
O35 O 0.54099 0.5413 0.17841 0.0
O36 O 0.68499 0.20886 0.41573 0.0
O37 O 0.67143 0.46701 0.07572 0.0
O38 O 0.73083 0.35899 0.38372 0.0
C39 C 0.34572 0.30887 0.45376 0.0
C40 C 0.74167 0.25815 0.01461 0.0
C41 C 0.34529 0.44141 0.02611 0.0
C42 C 0.47625 0.11552 0.00031 0.0
C43 C 0.60845 0.53706 0.083 0.0
C44 C 0.74871 0.27982 0.44063 0.0
O45 O 0.38819 0.38984 0.43126 0.0
O46 O 0.2013 0.23167 0.57352 0.0
Zn47 Zn 0.05963 0.20445 0.68564 0.0
O48 O 0.05958 0.31649 0.77783 0.0
Zn49 Zn 0.06878 0.313 0.96713 0.0
Zn50 Zn 0.12165 0.42445 0.71945 0.0
Zn51 Zn 0.92327 0.35427 0.77838 0.0
O52 O 0.91958 0.30357 0.03662 0.0
O53 O 0.85653 0.24513 0.8456 0.0
O54 O 0.07919 0.10615 0.85755 0.0
O55 O 0.13223 0.19586 0.03319 0.0
O56 O 0.16163 0.42093 0.02436 0.0
O57 O 0.24547 0.43093 0.83089 0.0
O58 O 0.04796 0.54127 0.80471 0.0
O59 O 0.90394 0.20887 0.56764 0.0
O60 O 0.91777 0.46688 0.90783 0.0
O61 O 0.85801 0.35893 0.59996 0.0
C62 C 0.24318 0.30886 0.52935 0.0
C63 C 0.84776 0.25797 0.96904 0.0
C64 C 0.24386 0.44158 0.95689 0.0
C65 C 0.11296 0.11554 0.98291 0.0
C66 C 0.98065 0.53701 0.90029 0.0
C67 C 0.84016 0.2798 0.54291 0.0
O68 O 0.20071 0.38982 0.55179 0.0
O69 O 0.7013 0.73167 0.57352 0.0
Zn70 Zn 0.55963 0.70445 0.68564 0.0
O71 O 0.55958 0.81649 0.77783 0.0
Zn72 Zn 0.56878 0.813 0.96713 0.0
Zn73 Zn 0.62165 0.92445 0.71945 0.0
Zn74 Zn 0.42327 0.85427 0.77838 0.0
O75 O 0.41958 0.80357 0.03662 0.0
O76 O 0.35653 0.74513 0.8456 0.0
O77 O 0.57919 0.60615 0.85756 0.0
O78 O 0.63223 0.69586 0.03319 0.0
O79 O 0.66163 0.92093 0.02436 0.0
O80 O 0.74547 0.93093 0.83089 0.0
O81 O 0.54796 1.04127 0.80471 0.0
O82 O 0.40394 0.70887 0.56764 0.0
O83 O 0.41777 0.96688 0.90782 0.0
O84 O 0.35801 0.85893 0.59996 0.0
C85 C 0.74318 0.80886 0.52935 0.0
C86 C 0.34776 0.75797 0.96904 0.0
C87 C 0.74386 0.94158 0.95689 0.0
C88 C 0.61296 0.61554 0.98291 0.0
C89 C 0.48065 1.03701 0.90029 0.0
C90 C 0.34016 0.7798 0.54291 0.0
O91 O 0.70071 0.88982 0.55179 0.0
loop_
_geom_bond_atom_site_label_1
_geom_bond_atom_site_label_2
_geom_bond_distance
_geom_bond_site_symmetry_2
_ccdc_geom_bond_type
O0 Zn1 1.953 1_655 S
O0 C16 1.225 . S
Zn1 O0 1.953 1_455 S
Zn1 O2 1.949 . S
Zn1 O8 1.919 . S
Zn1 O13 1.924 . S
O2 Zn1 1.949 . S
O2 Zn3 1.923 . S
O2 Zn4 1.950 1_455 S
O2 Zn5 1.945 . S
Zn3 O2 1.923 . S
Zn3 O6 1.933 1_554 S
Zn3 O9 1.941 . S
Zn3 O10 1.965 1_454 S
Zn4 O2 1.950 1_655 S
Zn4 O11 1.938 . S
Zn4 O12 1.906 . S
Zn4 O22 1.953 . S
Zn5 O2 1.945 . S
Zn5 O7 1.932 . S
Zn5 O14 1.977 . S
Zn5 O15 1.910 . S
O6 Zn3 1.933 1_556 S
O6 C17 1.226 . S
O7 Zn5 1.932 . S
O7 C17 1.307 1_554 S
O8 Zn1 1.919 . S
O8 C19 1.253 . S
O9 Zn3 1.941 . S
O9 C19 1.283 . S
O10 Zn3 1.965 1_656 S
O10 C18 1.303 . S
O11 Zn4 1.938 . S
O11 C18 1.247 1_554 S
O12 Zn4 1.906 . S
O12 C20 1.304 1_655 S
O13 Zn1 1.924 . S
O13 C21 1.311 . S
O14 Zn5 1.977 . S
O14 C20 1.272 . S
O15 Zn5 1.910 . S
O15 C21 1.231 . S
C16 O0 1.225 . S
C16 O22 1.298 . S
C17 O6 1.226 . S
C17 O7 1.307 1_556 S
C18 O10 1.303 . S
C18 O11 1.247 1_556 S
C19 O8 1.253 . S
C19 O9 1.283 . S
C20 O12 1.304 1_455 S
C20 O14 1.272 . S
C21 O13 1.311 . S
C21 O15 1.231 . S
O22 Zn4 1.953 . S
O22 C16 1.298 . S
O23 Zn24 1.953 . S
O23 C39 1.225 . S
Zn24 O23 1.953 . S
Zn24 O25 1.949 . S
Zn24 O31 1.919 . S
Zn24 O36 1.924 . S
O25 Zn24 1.949 . S
O25 Zn26 1.923 . S
O25 Zn27 1.950 . S
O25 Zn28 1.945 . S
Zn26 O25 1.923 . S
Zn26 O29 1.933 1_554 S
Zn26 O32 1.941 . S
Zn26 O33 1.965 1_554 S
Zn27 O25 1.950 . S
Zn27 O34 1.938 . S
Zn27 O35 1.906 . S
Zn27 O45 1.953 . S
Zn28 O25 1.945 . S
Zn28 O30 1.932 . S
Zn28 O37 1.977 . S
Zn28 O38 1.910 . S
O29 Zn26 1.933 1_556 S
O29 C40 1.226 . S
O30 Zn28 1.932 . S
O30 C40 1.307 1_554 S
O31 Zn24 1.919 . S
O31 C42 1.253 . S
O32 Zn26 1.941 . S
O32 C42 1.283 . S
O33 Zn26 1.965 1_556 S
O33 C41 1.303 . S
O34 Zn27 1.938 . S
O34 C41 1.247 1_554 S
O35 Zn27 1.906 . S
O35 C43 1.304 . S
O36 Zn24 1.924 . S
O36 C44 1.311 . S
O37 Zn28 1.977 . S
O37 C43 1.272 . S
O38 Zn28 1.910 . S
O38 C44 1.231 . S
C39 O23 1.225 . S
C39 O45 1.298 . S
C40 O29 1.226 . S
C40 O30 1.307 1_556 S
C41 O33 1.303 . S
C41 O34 1.247 1_556 S
C42 O31 1.253 . S
C42 O32 1.283 . S
C43 O35 1.304 . S
C43 O37 1.272 . S
C44 O36 1.311 . S
C44 O38 1.231 . S
O45 Zn27 1.953 . S
O45 C39 1.298 . S
O46 Zn47 1.953 . S
O46 C62 1.225 . S
Zn47 O46 1.953 . S
Zn47 O48 1.949 . S
Zn47 O54 1.919 . S
Zn47 O59 1.924 1_455 S
O48 Zn47 1.949 . S
O48 Zn49 1.923 . S
O48 Zn50 1.950 . S
O48 Zn51 1.945 1_455 S
Zn49 O48 1.923 . S
Zn49 O52 1.933 1_456 S
Zn49 O55 1.941 . S
Zn49 O56 1.965 1_556 S
Zn50 O48 1.950 . S
Zn50 O57 1.938 . S
Zn50 O58 1.906 . S
Zn50 O68 1.953 . S
Zn51 O48 1.945 1_655 S
Zn51 O53 1.932 . S
Zn51 O60 1.977 . S
Zn51 O61 1.910 . S
O52 Zn49 1.933 1_654 S
O52 C63 1.226 . S
O53 Zn51 1.932 . S
O53 C63 1.307 1_556 S
O54 Zn47 1.919 . S
O54 C65 1.253 . S
O55 Zn49 1.941 . S
O55 C65 1.283 . S
O56 Zn49 1.965 1_554 S
O56 C64 1.303 . S
O57 Zn50 1.938 . S
O57 C64 1.247 1_556 S
O58 Zn50 1.906 . S
O58 C66 1.304 . S
O59 Zn47 1.924 1_655 S
O59 C67 1.311 . S
O60 Zn51 1.977 . S
O60 C66 1.272 1_655 S
O61 Zn51 1.910 . S
O61 C67 1.231 . S
C62 O46 1.225 . S
C62 O68 1.298 . S
C63 O52 1.226 . S
C63 O53 1.307 1_554 S
C64 O56 1.303 . S
C64 O57 1.247 1_554 S
C65 O54 1.253 . S
C65 O55 1.283 . S
C66 O58 1.304 . S
C66 O60 1.272 1_455 S
C67 O59 1.311 . S
C67 O61 1.231 . S
O68 Zn50 1.953 . S
O68 C62 1.298 . S
O69 Zn70 1.953 . S
O69 C85 1.225 . S
Zn70 O69 1.953 . S
Zn70 O71 1.949 . S
Zn70 O77 1.919 . S
Zn70 O82 1.924 . S
O71 Zn70 1.949 . S
O71 Zn72 1.923 . S
O71 Zn73 1.950 . S
O71 Zn74 1.945 . S
Zn72 O71 1.923 . S
Zn72 O75 1.933 1_556 S
Zn72 O78 1.941 . S
Zn72 O79 1.965 1_556 S
Zn73 O71 1.950 . S
Zn73 O80 1.938 . S
Zn73 O81 1.906 . S
Zn73 O91 1.953 . S
Zn74 O71 1.945 . S
Zn74 O76 1.932 . S
Zn74 O83 1.977 . S
Zn74 O84 1.910 . S
O75 Zn72 1.933 1_554 S
O75 C86 1.226 . S
O76 Zn74 1.932 . S
O76 C86 1.307 1_556 S
O77 Zn70 1.919 . S
O77 C88 1.253 . S
O78 Zn72 1.941 . S
O78 C88 1.283 . S
O79 Zn72 1.965 1_554 S
O79 C87 1.303 . S
O80 Zn73 1.938 . S
O80 C87 1.247 1_556 S
O81 Zn73 1.906 . S
O81 C89 1.304 . S
O82 Zn70 1.924 . S
O82 C90 1.311 . S
O83 Zn74 1.977 . S
O83 C89 1.272 . S
O84 Zn74 1.910 . S
O84 C90 1.231 . S
C85 O69 1.225 . S
C85 O91 1.298 . S
C86 O75 1.226 . S
C86 O76 1.307 1_554 S
C87 O79 1.303 . S
C87 O80 1.247 1_554 S
C88 O77 1.253 . S
C88 O78 1.283 . S
C89 O81 1.304 . S
C89 O83 1.272 . S
C90 O82 1.311 . S
C90 O84 1.231 . S
O91 Zn73 1.953 . S
O91 C85 1.298 . S
C66 C19 3.039 1_556 S
C43 C88 3.039 1_554 S
C89 C42 3.039 1_566 S
C20 C65 3.039 1_564 S
C90 C21 1.564 . S
C62 C39 2.089 . S
C67 C44 1.564 . S
C16 C85 2.089 . S
C86 C17 2.044 1_554 S
C64 C41 0.853 1_554 S
C40 C63 2.044 1_556 S
C18 C87 0.853 1_556 S
