# Generated by pormake.
# Topology hex, (8)-cn, num edge types: 1
# Building blocks:
#     Node 0, Type 0, BuildingBlock: HISSIN_clean_sbu_1, # of connection points: 8
#     Edge 1, Type (0, 0), None
#     Edge 2, Type (0, 0), None
#     Edge 3, Type (0, 0), None
#     Edge 4, Type (0, 0), None
# Relax obj value: 0.032
# Max RMSD: 0.085
# Mean RMSD: 0.085
data_MOF--net-hex--node1-HISSIN_clean_sbu_1--edge1-none
_symmetry_space_group_name_H-M    P1
_symmetry_Int_Tables_number       1
_symmetry_cell_setting            triclinic
loop_
_symmetry_equiv_pos_as_xyz
'x, y, z'
_cell_length_a     15.292395
_cell_length_b     7.5366242
_cell_length_c     6.7145067
_cell_angle_alpha  109.05324
_cell_angle_beta   108.99013
_cell_angle_gamma 104.36829
loop_
_atom_site_label
_atom_site_type_symbol
_atom_site_fract_x
_atom_site_fract_y
_atom_site_fract_z
_atom_type_partial_charge
Eu0 Eu 0.11866 0.31644 0.08277 0.0
C1 C 0.98233 1.14416 0.53591 0.0
O2 O 0.08582 0.58556 0.05234 0.0
C3 C 0.59611 0.91428 0.76508 0.0
C4 C 0.51188 0.96179 0.0797 0.0
C5 C 0.57145 0.76073 0.83529 0.0
C6 C 0.52798 0.7787 -0.00728 0.0
C7 C 0.56944 1.08106 0.83399 0.0
C8 C 0.52852 1.1127 -0.00422 0.0
Eu9 Eu 0.85031 1.00236 0.79049 0.0
O10 O 0.0701 0.19945 0.31434 0.0
O11 O 0.88377 0.73243 0.81601 0.0
O12 O 0.89736 1.11133 0.55172 0.0
O13 O 0.90778 0.17655 0.18191 0.0
C14 C 0.97569 0.7394 0.90202 0.0
O15 O 0.05136 0.89225 0.93577 0.0
O16 O 0.72655 1.09835 0.71101 0.0
C17 C 0.6597 0.91601 0.64071 0.0
C18 C -0.00619 0.57769 0.96371 0.0
O19 O 0.91804 0.42455 0.92911 0.0
O20 O 0.69615 0.77364 0.60768 0.0
O21 O 0.06256 1.14728 0.69082 0.0
C22 C 0.31038 0.4064 0.26126 0.0
O23 O 0.24171 0.219 0.15234 0.0
C24 C 0.39214 0.43416 0.18956 0.0
C25 C 0.53826 0.46026 0.02577 0.0
C26 C 0.42527 0.59739 0.13928 0.0
C27 C 0.49904 0.61563 0.05603 0.0
C28 C 0.43058 0.28247 0.15346 0.0
C29 C 0.50128 0.28579 0.06236 0.0
C30 C 0.98625 0.17276 0.33368 0.0
O31 O 0.27271 0.54684 0.2939 0.0
H32 H 0.49169 0.99171 0.22316 0.0
H33 H 0.5851 0.62604 0.76088 0.0
H34 H 0.58131 0.18498 0.757 0.0
H35 H 0.60157 0.48044 -0.01469 0.0
H36 H 0.38846 0.70298 0.15379 0.0
H37 H 0.39809 1.15394 0.18204 0.0
loop_
_geom_bond_atom_site_label_1
_geom_bond_atom_site_label_2
_geom_bond_distance
_geom_bond_site_symmetry_2
_ccdc_geom_bond_type
Eu0 O2 2.323 . S
Eu0 O10 2.328 . S
Eu0 O21 2.316 1_554 S
Eu0 C22 2.837 . S
Eu0 O23 2.488 . S
Eu0 O31 2.461 . S
C1 O12 1.251 . S
C1 O21 1.237 1_665 S
O2 Eu0 2.323 . S
O2 C18 1.279 1_455 S
C3 C5 1.383 . S
C3 C7 1.388 . S
C3 C17 1.491 . S
C4 C6 1.403 . S
C4 C8 1.385 1_554 S
C4 H32 0.931 . S
C5 C3 1.383 . S
C5 C6 1.393 1_556 S
C5 H33 0.930 . S
C6 C4 1.403 . S
C6 C5 1.393 1_554 S
C7 C3 1.388 . S
C7 C8 1.394 . S
C7 H34 0.930 . S
C8 C4 1.385 1_556 S
C8 C7 1.394 . S
Eu9 O11 2.323 . S
Eu9 O12 2.328 . S
Eu9 O13 2.316 1_556 S
Eu9 O16 2.488 . S
Eu9 C17 2.837 . S
Eu9 O20 2.461 . S
O10 Eu0 2.328 . S
O10 C30 1.251 . S
O11 Eu9 2.323 . S
O11 C14 1.279 1_655 S
O12 C1 1.251 . S
O12 Eu9 2.328 . S
O13 Eu9 2.316 1_554 S
O13 C30 1.237 1_665 S
C14 O11 1.279 1_455 S
C14 O15 1.244 . S
O15 C14 1.244 . S
O16 Eu9 2.488 . S
O16 C17 1.271 . S
C17 C3 1.491 . S
C17 Eu9 2.837 . S
C17 O16 1.271 . S
C17 O20 1.261 . S
C18 O2 1.279 1_655 S
C18 O19 1.244 . S
O19 C18 1.244 . S
O20 Eu9 2.461 . S
O20 C17 1.261 . S
O21 Eu0 2.316 1_556 S
O21 C1 1.237 1_445 S
C22 Eu0 2.837 . S
C22 O23 1.271 . S
C22 C24 1.491 . S
C22 O31 1.261 . S
O23 Eu0 2.488 . S
O23 C22 1.271 . S
C24 C22 1.491 . S
C24 C26 1.383 . S
C24 C28 1.388 . S
C25 C27 1.403 . S
C25 C29 1.385 1_556 S
C25 H35 0.931 . S
C26 C24 1.383 . S
C26 C27 1.393 1_554 S
C26 H36 0.930 . S
C27 C25 1.403 . S
C27 C26 1.393 1_556 S
C28 C24 1.388 . S
C28 C29 1.394 . S
C28 H37 0.930 . S
C29 C25 1.385 1_554 S
C29 C28 1.394 . S
C30 O10 1.251 . S
C30 O13 1.237 1_445 S
O31 Eu0 2.461 . S
O31 C22 1.261 . S
H32 C4 0.931 . S
H33 C5 0.930 . S
H34 C7 0.930 . S
H35 C25 0.931 . S
H36 C26 0.930 . S
H37 C28 0.930 . S
C18 C14 1.450 1_654 S
C8 C29 2.928 1_566 S
C27 C6 2.946 1_556 S
C1 C30 1.500 1_665 S
