# Generated by pormake.
# Topology pcu, (6)-cn, num edge types: 1
# Building blocks:
#     Node 0, Type 0, BuildingBlock: CUKXOW_clean_sbu_0, # of connection points: 6
#     Edge 1, Type (0, 0), BuildingBlock: EZIPEK_clean_linker_0, # of connection points: 2
#     Edge 2, Type (0, 0), BuildingBlock: EZIPEK_clean_linker_0, # of connection points: 2
#     Edge 3, Type (0, 0), BuildingBlock: EZIPEK_clean_linker_0, # of connection points: 2
# Relax obj value: 0.000
# Max RMSD: 0.000
# Mean RMSD: 0.000
data_MOF--net-pcu--node1-CUKXOW_clean_sbu_0--edge1-EZIPEK_clean_linker_0
_symmetry_space_group_name_H-M    P1
_symmetry_Int_Tables_number       1
_symmetry_cell_setting            triclinic
loop_
_symmetry_equiv_pos_as_xyz
'x, y, z'
_cell_length_a     9.5878466
_cell_length_b     14.063822
_cell_length_c     11.304197
_cell_angle_alpha  87.82344
_cell_angle_beta   100.48304
_cell_angle_gamma 123.35071
loop_
_atom_site_label
_atom_site_type_symbol
_atom_site_fract_x
_atom_site_fract_y
_atom_site_fract_z
_atom_type_partial_charge
Tb0 Tb 0.09797 0.11569 -0.01123 0.0
C1 C 1.04147 -0.00548 0.74092 0.0
Tb2 Tb 0.99502 0.86324 0.98278 0.0
O3 O 0.35775 0.17569 0.96682 0.0
O4 O 0.21144 0.02511 0.04609 0.0
O5 O 1.03313 0.07319 0.7947 0.0
C6 C 1.00358 0.6777 0.97322 0.0
O7 O 1.03917 0.90933 0.79885 0.0
C8 C 0.74706 0.89634 0.96321 0.0
C9 C 0.05792 0.98624 0.23086 0.0
O10 O 0.12134 0.779 0.95029 0.0
O11 O 0.87943 0.68015 -0.00016 0.0
O12 O 0.73362 0.80388 0.00176 0.0
O13 O 0.88305 0.95401 0.92439 0.0
O14 O 0.0686 0.90885 0.17669 0.0
O15 O 0.05556 0.06978 0.17278 0.0
C16 C 0.07674 0.29592 -0.00195 0.0
O17 O 0.95387 0.19097 0.00324 0.0
O18 O 0.21365 0.30036 -0.01007 0.0
C19 C 0.34593 0.08347 0.00504 0.0
C20 C 0.93952 0.88534 0.4135 0.0
C21 C 0.05947 0.98529 0.36275 0.0
C22 C 0.16025 0.09554 0.558 0.0
C23 C 1.04074 -0.00455 0.60901 0.0
N24 N 0.78538 0.80573 0.57677 0.0
N25 N 0.31374 0.17536 0.3944 0.0
C26 C 0.92299 0.8929 0.53469 0.0
C27 C 0.17684 0.0879 0.43686 0.0
N28 N 0.84292 0.78211 0.34767 0.0
N29 N 0.25567 0.19912 0.62313 0.0
H30 H 0.33613 0.17144 0.30843 0.0
H31 H 0.41588 0.24664 0.44818 0.0
H32 H 0.25881 0.2109 0.71393 0.0
H33 H 0.32436 0.27634 0.58465 0.0
H34 H 0.77347 0.7047 0.38562 0.0
H35 H 0.83958 0.77097 0.25665 0.0
H36 H 0.68335 0.73449 0.5229 0.0
H37 H 0.76207 0.80993 0.66233 0.0
C38 C 0.50098 0.03719 0.88217 0.0
C39 C 0.46278 0.04603 -0.00423 0.0
C40 C 0.59851 0.94736 0.08683 0.0
C41 C 0.63283 0.93581 0.97274 0.0
N42 N 0.61792 0.96798 0.76149 0.0
N43 N 0.47472 0.01111 0.20645 0.0
C44 C 0.58369 0.98013 0.87035 0.0
C45 C 0.51203 0.00168 0.09797 0.0
N46 N 0.4511 0.07873 0.7841 0.0
N47 N 0.65735 0.91232 0.18651 0.0
H48 H 0.43516 0.06424 0.22316 0.0
H49 H 0.47902 0.96504 0.27963 0.0
H50 H 0.70628 0.86314 0.18162 0.0
H51 H 0.66238 0.93376 0.27492 0.0
H52 H 0.4532 0.06348 0.69546 0.0
H53 H 0.40551 0.12966 0.79055 0.0
H54 H 0.60909 0.01027 0.68603 0.0
H55 H 0.65774 0.91474 0.7459 0.0
C56 C 0.90268 0.47915 0.90328 0.0
C57 C 1.01873 0.57847 0.98224 0.0
C58 C 0.16458 0.48844 0.07889 0.0
C59 C 0.05843 0.39376 -0.00753 0.0
N60 N 0.84558 0.30591 0.81006 0.0
N61 N 0.26291 0.68143 0.14386 0.0
C62 C 0.93151 0.39036 0.90189 0.0
C63 C 0.15136 0.5845 0.06915 0.0
N64 N 0.76505 0.46961 0.8293 0.0
N65 N 0.27146 0.4838 0.17384 0.0
H66 H 0.24817 0.74923 0.14836 0.0
H67 H 0.37396 0.69694 0.19883 0.0
H68 H 0.28269 0.4142 0.18495 0.0
H69 H 0.33963 0.54428 0.24712 0.0
H70 H 0.66444 0.39371 0.7814 0.0
H71 H 0.74471 0.53537 0.82199 0.0
H72 H 0.76467 0.30534 0.73453 0.0
H73 H 0.86661 0.24126 0.80295 0.0
loop_
_geom_bond_atom_site_label_1
_geom_bond_atom_site_label_2
_geom_bond_distance
_geom_bond_site_symmetry_2
_ccdc_geom_bond_type
Tb0 O3 2.453 . S
Tb0 O4 2.596 1_545 S
Tb0 O5 2.374 1_554 S
Tb0 O13 2.343 1_454 S
Tb0 O15 2.353 . S
Tb0 O17 2.427 . S
Tb0 O18 2.513 1_554 S
C1 O5 1.251 1_655 S
C1 O7 1.263 1_545 S
Tb2 O4 2.343 1_656 S
Tb2 O7 2.353 . S
Tb2 O10 2.427 . S
Tb2 O11 2.513 1_556 S
Tb2 O12 2.453 . S
Tb2 O13 2.596 1_565 S
Tb2 O14 2.374 1_556 S
O3 Tb0 2.453 . S
O3 C19 1.245 . S
O4 Tb0 2.596 1_565 S
O4 Tb2 2.343 1_454 S
O4 C19 1.259 1_565 S
O5 Tb0 2.374 1_556 S
O5 C1 1.251 1_455 S
C6 O10 1.273 1_554 S
C6 O11 1.247 . S
O7 C1 1.263 1_565 S
O7 Tb2 2.353 . S
C8 O12 1.245 . S
C8 O13 1.259 1_565 S
C9 O14 1.250 1_455 S
C9 O15 1.263 1_565 S
O10 Tb2 2.427 . S
O10 C6 1.273 1_556 S
O11 Tb2 2.513 1_554 S
O11 C6 1.247 . S
O12 Tb2 2.453 . S
O12 C8 1.245 . S
O13 Tb0 2.343 1_656 S
O13 Tb2 2.596 1_545 S
O13 C8 1.259 1_545 S
O14 Tb2 2.374 1_554 S
O14 C9 1.250 1_655 S
O15 Tb0 2.353 . S
O15 C9 1.263 1_545 S
C16 O17 1.275 1_556 S
C16 O18 1.245 . S
O17 Tb0 2.427 . S
O17 C16 1.275 1_554 S
O18 Tb0 2.513 1_556 S
O18 C16 1.245 . S
C19 O3 1.245 . S
C19 O4 1.259 1_545 S
C20 C21 1.363 1_665 S
C20 C26 1.379 . S
C20 N28 1.356 . S
C21 C20 1.363 1_445 S
C21 C27 1.363 . S
C22 C23 1.363 . S
C22 C27 1.379 . S
C22 N29 1.356 . S
C23 C22 1.363 . S
C23 C26 1.363 1_445 S
N24 C26 1.356 . S
N24 H36 0.984 . S
N24 H37 0.985 . S
N25 C27 1.356 . S
N25 H30 0.984 . S
N25 H31 0.985 . S
C26 C20 1.379 . S
C26 C23 1.363 1_665 S
C26 N24 1.356 . S
C27 C21 1.363 . S
C27 C22 1.379 . S
C27 N25 1.356 . S
N28 C20 1.356 . S
N28 H34 0.984 . S
N28 H35 0.984 . S
N29 C22 1.356 . S
N29 H32 0.984 . S
N29 H33 0.985 . S
H30 N25 0.984 . S
H31 N25 0.985 . S
H32 N29 0.984 . S
H33 N29 0.985 . S
H34 N28 0.984 . S
H35 N28 0.984 . S
H36 N24 0.984 . S
H37 N24 0.985 . S
C38 C39 1.363 1_566 S
C38 C44 1.379 . S
C38 N46 1.356 . S
C39 C38 1.363 1_544 S
C39 C45 1.363 . S
C40 C41 1.363 . S
C40 C45 1.379 . S
C40 N47 1.356 . S
C41 C40 1.363 . S
C41 C44 1.363 1_544 S
N42 C44 1.356 . S
N42 H54 0.984 . S
N42 H55 0.985 . S
N43 C45 1.356 . S
N43 H48 0.984 . S
N43 H49 0.985 . S
C44 C38 1.379 . S
C44 C41 1.363 1_566 S
C44 N42 1.356 . S
C45 C39 1.363 . S
C45 C40 1.379 . S
C45 N43 1.356 . S
N46 C38 1.356 . S
N46 H52 0.984 . S
N46 H53 0.984 . S
N47 C40 1.356 . S
N47 H50 0.984 . S
N47 H51 0.985 . S
H48 N43 0.984 . S
H49 N43 0.985 . S
H50 N47 0.984 . S
H51 N47 0.985 . S
H52 N46 0.984 . S
H53 N46 0.984 . S
H54 N42 0.984 . S
H55 N42 0.985 . S
C56 C57 1.363 1_656 S
C56 C62 1.379 . S
C56 N64 1.356 . S
C57 C56 1.363 1_454 S
C57 C63 1.363 . S
C58 C59 1.363 . S
C58 C63 1.379 . S
C58 N65 1.356 . S
C59 C58 1.363 . S
C59 C62 1.363 1_454 S
N60 C62 1.356 . S
N60 H72 0.984 . S
N60 H73 0.985 . S
N61 C63 1.356 . S
N61 H66 0.984 . S
N61 H67 0.985 . S
C62 C56 1.379 . S
C62 C59 1.363 1_656 S
C62 N60 1.356 . S
C63 C57 1.363 . S
C63 C58 1.379 . S
C63 N61 1.356 . S
N64 C56 1.356 . S
N64 H70 0.984 . S
N64 H71 0.984 . S
N65 C58 1.356 . S
N65 H68 0.984 . S
N65 H69 0.985 . S
H66 N61 0.984 . S
H67 N61 0.985 . S
H68 N65 0.984 . S
H69 N65 0.985 . S
H70 N64 0.984 . S
H71 N64 0.984 . S
H72 N60 0.984 . S
H73 N60 0.985 . S
C21 C9 1.488 1_545 S
C23 C1 1.488 1_455 S
C39 C19 1.445 . S
C41 C8 1.445 1_544 S
C57 C6 1.477 1_455 S
C59 C16 1.477 1_554 S
