# Generated by pormake.
# Topology bto, (3)-cn, num edge types: 1
# Building blocks:
#     Node 0, Type 0, BuildingBlock: OLANEW_clean_sbu_2, # of connection points: 3
#     Node 1, Type 0, BuildingBlock: OLANEW_clean_sbu_2, # of connection points: 3
#     Node 2, Type 0, BuildingBlock: OLANEW_clean_sbu_2, # of connection points: 3
#     Node 3, Type 0, BuildingBlock: OLANEW_clean_sbu_2, # of connection points: 3
#     Node 4, Type 0, BuildingBlock: OLANEW_clean_sbu_2, # of connection points: 3
#     Node 5, Type 0, BuildingBlock: OLANEW_clean_sbu_2, # of connection points: 3
#     Edge 6, Type (0, 0), None
#     Edge 7, Type (0, 0), None
#     Edge 8, Type (0, 0), None
#     Edge 9, Type (0, 0), None
#     Edge 10, Type (0, 0), None
#     Edge 11, Type (0, 0), None
#     Edge 12, Type (0, 0), None
#     Edge 13, Type (0, 0), None
#     Edge 14, Type (0, 0), None
# Relax obj value: 0.000
# Max RMSD: 0.040
# Mean RMSD: 0.040
data_MOF--net-bto--node1-OLANEW_clean_sbu_2--edge1-none
_symmetry_space_group_name_H-M    P1
_symmetry_Int_Tables_number       1
_symmetry_cell_setting            triclinic
loop_
_symmetry_equiv_pos_as_xyz
'x, y, z'
_cell_length_a     14.070757
_cell_length_b     14.176885
_cell_length_c     29.146253
_cell_angle_alpha  85.185298
_cell_angle_beta   89.884763
_cell_angle_gamma 119.85281
loop_
_atom_site_label
_atom_site_type_symbol
_atom_site_fract_x
_atom_site_fract_y
_atom_site_fract_z
_atom_type_partial_charge
O0 O 0.17254 0.81787 0.05949 0.0
Cd1 Cd 0.13408 0.82243 -0.02201 0.0
O2 O 1.00964 0.7917 0.08018 0.0
Cd3 Cd 0.94648 0.78345 0.01141 0.0
O4 O 0.82354 0.7389 -0.04057 0.0
C5 C 0.76421 0.63867 -0.0469 0.0
O6 O 0.78161 0.56552 -0.0238 0.0
C7 C 1.10278 0.80477 0.09075 0.0
C8 C 0.24615 0.75139 -0.07521 0.0
O9 O 0.15165 0.68333 -0.056 0.0
O10 O 0.28821 0.85265 -0.06905 0.0
O11 O 0.83401 0.27294 0.46207 0.0
Cd12 Cd 0.93835 0.46871 0.46997 0.0
O13 O 0.79345 0.29734 0.39069 0.0
Cd14 Cd 0.69532 0.22238 0.33223 0.0
O15 O 0.55276 0.10949 0.29617 0.0
C16 C 0.54935 1.02753 0.27993 0.0
O17 O 0.63438 1.01301 0.28302 0.0
C18 C 0.78773 0.23389 0.42541 0.0
C19 C 1.02273 0.58659 0.38467 0.0
O20 O 0.92906 0.5663 0.40093 0.0
O21 O 1.07738 0.55226 0.40882 0.0
O22 O 0.58713 0.54818 0.69654 0.0
Cd23 Cd 0.64652 0.57147 0.61543 0.0
O24 O 0.44657 0.56956 0.67806 0.0
Cd25 Cd 0.48201 0.59794 0.60381 0.0
O26 O 0.50486 0.67074 0.53291 0.0
C27 C 0.59304 0.70304 0.50903 0.0
O28 O 0.67177 0.68938 0.52652 0.0
C29 C 0.50272 0.55294 0.70842 0.0
C30 C 0.67795 0.40612 0.58669 0.0
O31 O 0.58337 0.39856 0.58569 0.0
O32 O 0.75729 0.4905 0.6021 0.0
O33 O 0.73528 1.07619 0.38659 0.0
Cd34 Cd 0.64257 0.88052 0.37835 0.0
O35 O 0.66946 1.05208 0.45792 0.0
Cd36 Cd 0.6464 0.12746 0.51633 0.0
O37 O 0.61736 0.24086 0.55229 0.0
C38 C 0.69625 0.32281 0.56844 0.0
O39 O 0.79574 0.33702 0.5653 0.0
C40 C 0.72803 0.11537 0.42323 0.0
C41 C 0.60919 0.76162 0.4633 0.0
O42 O 0.53587 0.78228 0.44752 0.0
O43 O 0.69807 0.7961 0.43883 0.0
O44 O 0.53122 0.53731 0.78848 0.0
Cd45 Cd 0.48876 0.53547 0.86988 0.0
O46 O 0.39147 0.55795 0.76776 0.0
Cd47 Cd 0.33696 0.56823 0.83638 0.0
O48 O 0.25985 0.61476 0.88823 0.0
C49 C 0.30288 0.71505 0.8948 0.0
O50 O 0.39477 0.78711 0.872 0.0
C51 C 0.47291 0.54693 0.75724 0.0
C52 C 0.67145 0.60374 0.92307 0.0
O53 O 0.64739 0.67303 0.90354 0.0
O54 O 0.61009 0.50254 0.91722 0.0
O55 O 0.21559 0.80451 0.15148 0.0
Cd56 Cd 0.25045 0.77999 0.23255 0.0
O57 O 1.05142 0.77821 0.16991 0.0
Cd58 Cd 1.05751 0.74876 0.24412 0.0
O59 O 1.00831 0.6766 0.31517 0.0
C60 C 1.0645 0.64458 0.33876 0.0
O61 O 0.15661 0.65803 0.32083 0.0
C62 C 0.1256 0.79759 0.13959 0.0
C63 C 0.44759 0.94458 0.26157 0.0
O64 O 0.36073 0.95241 0.26263 0.0
O65 O 0.44221 0.86028 0.24599 0.0
loop_
_geom_bond_atom_site_label_1
_geom_bond_atom_site_label_2
_geom_bond_distance
_geom_bond_site_symmetry_2
_ccdc_geom_bond_type
O0 Cd1 2.300 . S
O0 C7 1.275 . S
Cd1 O0 2.300 . S
Cd1 O9 2.381 . S
Cd1 O10 2.378 . S
O2 Cd3 2.385 . S
O2 C7 1.255 1_655 S
Cd3 O2 2.385 . S
Cd3 O4 2.317 . S
O4 Cd3 2.317 . S
O4 C5 1.232 . S
C5 O4 1.232 . S
C5 O6 1.218 . S
O6 C5 1.218 . S
C7 O0 1.275 . S
C7 O2 1.255 1_455 S
C8 O9 1.258 . S
C8 O10 1.256 . S
O9 Cd1 2.381 . S
O9 C8 1.258 . S
O10 Cd1 2.378 . S
O10 C8 1.256 . S
O11 Cd12 2.300 . S
O11 C18 1.275 . S
Cd12 O11 2.300 . S
Cd12 O20 2.381 . S
Cd12 O21 2.378 . S
O13 Cd14 2.385 1_545 S
O13 C18 1.255 . S
Cd14 O13 2.385 1_565 S
Cd14 O15 2.317 1_565 S
O15 Cd14 2.317 1_545 S
O15 C16 1.232 1_545 S
C16 O15 1.232 1_565 S
C16 O17 1.218 . S
O17 C16 1.218 . S
C18 O11 1.275 . S
C18 O13 1.255 . S
C19 O20 1.258 . S
C19 O21 1.256 . S
O20 Cd12 2.381 . S
O20 C19 1.258 . S
O21 Cd12 2.378 . S
O21 C19 1.256 . S
O22 Cd23 2.300 . S
O22 C29 1.275 . S
Cd23 O22 2.300 . S
Cd23 O31 2.381 . S
Cd23 O32 2.378 . S
O24 Cd25 2.385 . S
O24 C29 1.255 . S
Cd25 O24 2.385 . S
Cd25 O26 2.317 . S
O26 Cd25 2.317 . S
O26 C27 1.232 . S
C27 O26 1.232 . S
C27 O28 1.218 . S
O28 C27 1.218 . S
C29 O22 1.275 . S
C29 O24 1.255 . S
C30 O31 1.258 . S
C30 O32 1.256 . S
O31 Cd23 2.381 . S
O31 C30 1.258 . S
O32 Cd23 2.378 . S
O32 C30 1.256 . S
O33 Cd34 2.300 . S
O33 C40 1.275 1_565 S
Cd34 O33 2.300 . S
Cd34 O42 2.381 . S
Cd34 O43 2.378 . S
O35 Cd36 2.385 . S
O35 C40 1.255 . S
Cd36 O35 2.385 . S
Cd36 O37 2.317 . S
O37 Cd36 2.317 . S
O37 C38 1.232 . S
C38 O37 1.232 . S
C38 O39 1.218 . S
O39 C38 1.218 . S
C40 O33 1.275 1_545 S
C40 O35 1.255 . S
C41 O42 1.258 . S
C41 O43 1.256 . S
O42 Cd34 2.381 . S
O42 C41 1.258 . S
O43 Cd34 2.378 . S
O43 C41 1.256 . S
O44 Cd45 2.300 . S
O44 C51 1.275 . S
Cd45 O44 2.300 . S
Cd45 O53 2.381 . S
Cd45 O54 2.378 . S
O46 Cd47 2.385 . S
O46 C51 1.255 . S
Cd47 O46 2.385 . S
Cd47 O48 2.317 . S
O48 Cd47 2.317 . S
O48 C49 1.232 . S
C49 O48 1.232 . S
C49 O50 1.218 . S
O50 C49 1.218 . S
C51 O44 1.275 . S
C51 O46 1.255 . S
C52 O53 1.258 . S
C52 O54 1.256 . S
O53 Cd45 2.381 . S
O53 C52 1.258 . S
O54 Cd45 2.378 . S
O54 C52 1.256 . S
O55 Cd56 2.300 . S
O55 C62 1.275 . S
Cd56 O55 2.300 . S
Cd56 O64 2.381 . S
Cd56 O65 2.378 . S
O57 Cd58 2.385 . S
O57 C62 1.255 1_655 S
Cd58 O57 2.385 . S
Cd58 O59 2.317 . S
O59 Cd58 2.317 . S
O59 C60 1.232 . S
C60 O59 1.232 . S
C60 O61 1.218 . S
O61 C60 1.218 . S
C62 O55 1.275 . S
C62 O57 1.255 1_455 S
C63 O64 1.258 . S
C63 O65 1.256 . S
O64 Cd56 2.381 . S
O64 C63 1.258 . S
O65 Cd56 2.378 . S
O65 C63 1.256 . S
C7 C62 1.662 . S
C40 C18 1.388 . S
C51 C29 1.661 . S
C8 C49 1.509 1_554 S
C19 C60 1.410 . S
C41 C27 1.407 . S
C5 C52 1.509 1_554 S
C16 C63 1.395 . S
C38 C30 1.392 . S
