# Generated by pormake.
# Topology atn, (4)-cn, num edge types: 1
# Building blocks:
#     Node 0, Type 0, BuildingBlock: NAHDIM_clean_sbu_0, # of connection points: 4
#     Node 1, Type 0, BuildingBlock: NAHDIM_clean_sbu_0, # of connection points: 4
#     Node 2, Type 0, BuildingBlock: NAHDIM_clean_sbu_0, # of connection points: 4
#     Node 3, Type 0, BuildingBlock: NAHDIM_clean_sbu_0, # of connection points: 4
#     Node 4, Type 0, BuildingBlock: NAHDIM_clean_sbu_0, # of connection points: 4
#     Node 5, Type 0, BuildingBlock: NAHDIM_clean_sbu_0, # of connection points: 4
#     Node 6, Type 0, BuildingBlock: NAHDIM_clean_sbu_0, # of connection points: 4
#     Node 7, Type 0, BuildingBlock: NAHDIM_clean_sbu_0, # of connection points: 4
#     Node 8, Type 0, BuildingBlock: NAHDIM_clean_sbu_0, # of connection points: 4
#     Node 9, Type 0, BuildingBlock: NAHDIM_clean_sbu_0, # of connection points: 4
#     Node 10, Type 0, BuildingBlock: NAHDIM_clean_sbu_0, # of connection points: 4
#     Node 11, Type 0, BuildingBlock: NAHDIM_clean_sbu_0, # of connection points: 4
#     Node 12, Type 0, BuildingBlock: NAHDIM_clean_sbu_0, # of connection points: 4
#     Node 13, Type 0, BuildingBlock: NAHDIM_clean_sbu_0, # of connection points: 4
#     Node 14, Type 0, BuildingBlock: NAHDIM_clean_sbu_0, # of connection points: 4
#     Node 15, Type 0, BuildingBlock: NAHDIM_clean_sbu_0, # of connection points: 4
#     Edge 16, Type (0, 0), None
#     Edge 17, Type (0, 0), None
#     Edge 18, Type (0, 0), None
#     Edge 19, Type (0, 0), None
#     Edge 20, Type (0, 0), None
#     Edge 21, Type (0, 0), None
#     Edge 22, Type (0, 0), None
#     Edge 23, Type (0, 0), None
#     Edge 24, Type (0, 0), None
#     Edge 25, Type (0, 0), None
#     Edge 26, Type (0, 0), None
#     Edge 27, Type (0, 0), None
#     Edge 28, Type (0, 0), None
#     Edge 29, Type (0, 0), None
#     Edge 30, Type (0, 0), None
#     Edge 31, Type (0, 0), None
#     Edge 32, Type (0, 0), None
#     Edge 33, Type (0, 0), None
#     Edge 34, Type (0, 0), None
#     Edge 35, Type (0, 0), None
#     Edge 36, Type (0, 0), None
#     Edge 37, Type (0, 0), None
#     Edge 38, Type (0, 0), None
#     Edge 39, Type (0, 0), None
#     Edge 40, Type (0, 0), None
#     Edge 41, Type (0, 0), None
#     Edge 42, Type (0, 0), None
#     Edge 43, Type (0, 0), None
#     Edge 44, Type (0, 0), None
#     Edge 45, Type (0, 0), None
#     Edge 46, Type (0, 0), None
#     Edge 47, Type (0, 0), None
# Relax obj value: 0.100
# Max RMSD: 0.114
# Mean RMSD: 0.114
data_MOF--net-atn--node1-NAHDIM_clean_sbu_0--edge1-none
_symmetry_space_group_name_H-M    P1
_symmetry_Int_Tables_number       1
_symmetry_cell_setting            triclinic
loop_
_symmetry_equiv_pos_as_xyz
'x, y, z'
_cell_length_a     29.851503
_cell_length_b     29.851476
_cell_length_c     10.288611
_cell_angle_alpha  90.007627
_cell_angle_beta   90.004212
_cell_angle_gamma 90.000002
loop_
_atom_site_label
_atom_site_type_symbol
_atom_site_fract_x
_atom_site_fract_y
_atom_site_fract_z
_atom_type_partial_charge
C0 C 0.17462 0.46177 0.03866 0.0
O1 O 0.13674 0.43946 0.04237 0.0
O2 O 0.19413 0.35075 0.20644 0.0
Zn3 Zn 0.21294 0.37352 1.02847 0.0
O4 O 0.17267 0.34826 0.88717 0.0
C5 C 0.30187 0.33469 0.06465 0.0
O6 O 0.29198 0.33633 0.18893 0.0
O7 O 0.21147 0.4407 0.03037 0.0
C8 C 0.18467 0.30985 0.84655 0.0
O9 O 0.21857 0.2895 0.90231 0.0
C10 C 0.16442 0.32089 0.22508 0.0
O11 O 0.14411 0.30244 0.12541 0.0
O12 O 0.27529 0.35215 0.9829 0.0
C13 C 0.51088 0.17462 0.03867 0.0
O14 O 0.5332 0.13674 0.04237 0.0
O15 O 0.62191 0.19415 0.20644 0.0
Zn16 Zn 0.59913 0.21294 1.02846 0.0
O17 O 0.62439 0.17268 0.88717 0.0
C18 C 0.63795 0.30188 0.06461 0.0
O19 O 0.63631 0.292 0.1889 0.0
O20 O 0.53195 0.21146 0.03037 0.0
C21 C 0.6628 0.18467 0.8466 0.0
O22 O 0.68315 0.21856 0.9024 0.0
C23 C 0.65175 0.16442 0.22509 0.0
O24 O 0.67017 0.14407 0.12543 0.0
O25 O 0.62049 0.2753 0.98287 0.0
C26 C 0.79803 0.51088 0.03863 0.0
O27 O 0.83591 0.53319 0.04237 0.0
O28 O 0.77851 0.6219 0.2064 0.0
Zn29 Zn 0.75972 0.59913 1.02841 0.0
O30 O 0.79998 0.62439 0.88715 0.0
C31 C 0.67078 0.63795 0.06454 0.0
O32 O 0.68066 0.63631 0.18883 0.0
O33 O 0.76119 0.53195 0.0303 0.0
C34 C 0.78798 0.6628 0.84656 0.0
O35 O 0.75409 0.68315 0.90233 0.0
C36 C 0.80823 0.65176 0.22508 0.0
O37 O 0.82856 0.67019 0.12544 0.0
O38 O 0.69736 0.6205 0.9828 0.0
C39 C 0.46177 0.79803 0.03863 0.0
O40 O 0.43946 0.83591 0.04238 0.0
O41 O 0.35076 0.77853 0.20641 0.0
Zn42 Zn 0.37352 0.75972 1.02842 0.0
O43 O 0.34826 0.79998 0.88714 0.0
C44 C 0.33469 0.67079 0.06458 0.0
O45 O 0.33634 0.68068 0.18887 0.0
O46 O 0.4407 0.76119 0.0303 0.0
C47 C 0.30985 0.78798 0.8465 0.0
O48 O 0.28951 0.75408 0.90223 0.0
C49 C 0.32088 0.80822 0.22507 0.0
O50 O 0.3024 0.82851 0.12542 0.0
O51 O 0.35214 0.69736 0.98283 0.0
C52 C 0.17462 0.51078 0.04456 0.0
O53 O 0.13674 0.53309 0.04078 0.0
O54 O 0.19403 0.62171 0.87657 0.0
Zn55 Zn 0.21293 0.59903 0.05455 0.0
O56 O 0.17272 0.62434 0.19591 0.0
C57 C 0.30182 0.63792 1.01799 0.0
O58 O 0.29185 0.63637 0.89374 0.0
O59 O 0.21146 0.53185 0.05284 0.0
C60 C 0.18478 0.6627 0.23677 0.0
O61 O 0.21873 0.68301 0.18122 0.0
C62 C 0.16452 0.65178 0.85793 0.0
O63 O 0.14452 0.67055 0.95761 0.0
O64 O 0.27532 0.62041 0.09982 0.0
C65 C 0.46187 0.17462 0.04458 0.0
O66 O 0.43956 0.13673 0.04078 0.0
O67 O 0.35093 0.19404 0.87659 0.0
Zn68 Zn 0.37362 0.21293 0.05458 0.0
O69 O 0.34832 0.17272 0.19592 0.0
C70 C 0.33473 0.30183 1.01805 0.0
O71 O 0.33628 0.29186 0.8938 0.0
O72 O 0.4408 0.21146 0.05287 0.0
C73 C 0.30995 0.18478 0.23674 0.0
O74 O 0.28964 0.21873 0.18117 0.0
C75 C 0.32088 0.16452 0.85792 0.0
O76 O 0.30213 0.1445 0.95759 0.0
O77 O 0.35225 0.27532 0.09987 0.0
C78 C 0.79803 0.46187 0.04455 0.0
O79 O 0.83592 0.43955 0.04079 0.0
O80 O 0.7786 0.35092 0.87656 0.0
Zn81 Zn 0.75972 0.37362 0.05454 0.0
O82 O 0.79993 0.34832 0.19589 0.0
C83 C 0.67081 0.33474 1.01801 0.0
O84 O 0.68078 0.33628 0.89377 0.0
O85 O 0.76119 0.4408 0.05282 0.0
C86 C 0.78787 0.30995 0.23668 0.0
O87 O 0.75393 0.28964 0.18106 0.0
C88 C 0.80814 0.32089 0.85791 0.0
O89 O 0.8282 0.30218 0.95758 0.0
O90 O 0.69733 0.35225 0.09983 0.0
C91 C 0.51078 0.79803 0.04453 0.0
O92 O 0.5331 0.83591 0.04079 0.0
O93 O 0.62172 0.77861 0.87654 0.0
Zn94 Zn 0.59903 0.75972 0.0545 0.0
O95 O 0.62433 0.79993 0.19588 0.0
C96 C 0.63792 0.67082 1.01795 0.0
O97 O 0.63637 0.68078 0.8937 0.0
O98 O 0.53185 0.76119 0.05278 0.0
C99 C 0.6627 0.78787 0.2367 0.0
O100 O 0.68301 0.75392 0.1811 0.0
C101 C 0.65177 0.80813 0.85791 0.0
O102 O 0.6705 0.82818 0.9576 0.0
O103 O 0.6204 0.69733 0.09977 0.0
C104 C 0.67462 0.96177 0.53865 0.0
O105 O 0.63674 0.93945 0.54234 0.0
O106 O 0.69413 0.85075 0.70644 0.0
Zn107 Zn 0.71294 0.87352 0.52847 0.0
O108 O 0.67268 0.84826 0.38716 0.0
C109 C 0.80187 0.83469 0.56465 0.0
O110 O 0.79198 0.83633 0.68893 0.0
O111 O 0.71147 0.9407 0.53037 0.0
C112 C 0.68468 0.80984 0.34654 0.0
O113 O 0.71857 0.7895 0.40229 0.0
C114 C 0.66442 0.82089 0.72507 0.0
O115 O 0.64412 0.80243 0.62541 0.0
O116 O 0.77529 0.85214 0.4829 0.0
C117 C 0.01088 0.67462 0.53865 0.0
O118 O 0.0332 0.63674 0.54234 0.0
O119 O 0.12191 0.69415 0.70644 0.0
Zn120 Zn 0.09913 0.71294 0.52846 0.0
O121 O 0.12439 0.67268 0.38717 0.0
C122 C 0.13795 0.80188 0.56462 0.0
O123 O 0.13632 0.792 0.68891 0.0
O124 O 0.03195 0.71147 0.53037 0.0
C125 C 0.1628 0.68467 0.34659 0.0
O126 O 0.18315 0.71856 0.40239 0.0
C127 C 0.15176 0.66442 0.72509 0.0
O128 O 0.17017 0.64407 0.62543 0.0
O129 O 0.12049 0.7753 0.48287 0.0
C130 C 0.29803 0.01088 0.53861 0.0
O131 O 0.33591 0.03319 0.54234 0.0
O132 O 0.27851 0.12191 0.7064 0.0
Zn133 Zn 0.25971 0.09913 0.52841 0.0
O134 O 0.29998 0.12439 0.38714 0.0
C135 C 0.17077 0.13795 0.56454 0.0
O136 O 0.18066 0.13631 0.68883 0.0
O137 O 0.26119 0.03195 0.5303 0.0
C138 C 0.28798 0.1628 0.34655 0.0
O139 O 0.25409 0.18315 0.40232 0.0
C140 C 0.30823 0.15176 0.72507 0.0
O141 O 0.32855 0.1702 0.62543 0.0
O142 O 0.19736 0.1205 0.4828 0.0
C143 C 0.96177 0.29803 0.53861 0.0
O144 O 0.93946 0.33591 0.54235 0.0
O145 O 0.85076 0.27853 0.7064 0.0
Zn146 Zn 0.87352 0.25972 0.52842 0.0
O147 O 0.84826 0.29998 0.38714 0.0
C148 C 0.83469 0.17078 0.56458 0.0
O149 O 0.83634 0.18068 0.68887 0.0
O150 O 0.9407 0.26119 0.5303 0.0
C151 C 0.80985 0.28798 0.3465 0.0
O152 O 0.78951 0.25408 0.40222 0.0
C153 C 0.82088 0.30822 0.72506 0.0
O154 O 0.8024 0.32851 0.62541 0.0
O155 O 0.85214 0.19736 0.48283 0.0
C156 C 0.67462 0.01078 0.54455 0.0
O157 O 0.63674 0.03309 0.54075 0.0
O158 O 0.69402 0.12171 0.37657 0.0
Zn159 Zn 0.71293 0.09903 0.55455 0.0
O160 O 0.67272 0.12434 0.69591 0.0
C161 C 0.80182 0.13792 0.51799 0.0
O162 O 0.79185 0.13637 0.39374 0.0
O163 O 0.71146 0.03185 0.55284 0.0
C164 C 0.68478 0.1627 0.73677 0.0
O165 O 0.71874 0.18301 0.68123 0.0
C166 C 0.66452 0.15178 0.35793 0.0
O167 O 0.64452 0.17055 0.45761 0.0
O168 O 0.77531 0.12041 0.59981 0.0
C169 C 0.96187 0.67462 0.54456 0.0
O170 O 0.93956 0.63673 0.54075 0.0
O171 O 0.85093 0.69403 0.37659 0.0
Zn172 Zn 0.87362 0.71293 0.55458 0.0
O173 O 0.84832 0.67271 0.69592 0.0
C174 C 0.83473 0.80183 0.51806 0.0
O175 O 0.83628 0.79186 0.39381 0.0
O176 O 0.9408 0.71146 0.55288 0.0
C177 C 0.80996 0.68478 0.73675 0.0
O178 O 0.78965 0.71873 0.68118 0.0
C179 C 0.82088 0.66452 0.35793 0.0
O180 O 0.80213 0.6445 0.45759 0.0
O181 O 0.85225 0.77532 0.59988 0.0
C182 C 0.29803 0.96187 0.54453 0.0
O183 O 0.33591 0.93956 0.54076 0.0
O184 O 0.2786 0.85092 0.37656 0.0
Zn185 Zn 0.25972 0.87362 0.55454 0.0
O186 O 0.29993 0.84832 0.6959 0.0
C187 C 0.17081 0.83474 0.51802 0.0
O188 O 0.18078 0.83628 0.39377 0.0
O189 O 0.26119 0.9408 0.55282 0.0
C190 C 0.28787 0.80995 0.73668 0.0
O191 O 0.25393 0.78964 0.68106 0.0
C192 C 0.30814 0.82089 0.35791 0.0
O193 O 0.3282 0.80218 0.45759 0.0
O194 O 0.19733 0.85225 0.59984 0.0
C195 C 0.01078 0.29803 0.54452 0.0
O196 O 0.0331 0.33591 0.54076 0.0
O197 O 0.12172 0.27861 0.37654 0.0
Zn198 Zn 0.09903 0.25972 0.55451 0.0
O199 O 0.12433 0.29993 0.69589 0.0
C200 C 0.13792 0.17082 0.51795 0.0
O201 O 0.13637 0.18079 0.3937 0.0
O202 O 0.03185 0.26119 0.55278 0.0
C203 C 0.1627 0.28787 0.73671 0.0
O204 O 0.18301 0.25392 0.68111 0.0
C205 C 0.15177 0.30814 0.35792 0.0
O206 O 0.1705 0.32817 0.4576 0.0
O207 O 0.1204 0.19733 0.59977 0.0
loop_
_geom_bond_atom_site_label_1
_geom_bond_atom_site_label_2
_geom_bond_distance
_geom_bond_site_symmetry_2
_ccdc_geom_bond_type
C0 O1 1.160 . S
C0 O7 1.185 1_554 S
O1 C0 1.160 . S
O2 Zn3 1.899 . S
O2 C10 1.284 . S
Zn3 O2 1.899 . S
Zn3 O4 2.032 1_554 S
Zn3 O7 2.086 1_554 S
Zn3 O12 1.977 1_554 S
O4 Zn3 2.032 1_556 S
O4 C8 1.278 . S
C5 O6 1.203 . S
C5 O12 1.267 1_554 S
O6 C5 1.203 . S
O7 C0 1.185 1_556 S
O7 Zn3 2.086 1_556 S
C8 O4 1.278 . S
C8 O9 1.211 . S
O9 C8 1.211 . S
C10 O2 1.284 . S
C10 O11 1.273 . S
O11 C10 1.273 . S
O12 Zn3 1.977 1_556 S
O12 C5 1.267 1_556 S
C13 O14 1.160 . S
C13 O20 1.185 1_554 S
O14 C13 1.160 . S
O15 Zn16 1.899 . S
O15 C23 1.284 . S
Zn16 O15 1.899 . S
Zn16 O17 2.032 1_554 S
Zn16 O20 2.086 1_554 S
Zn16 O25 1.977 1_554 S
O17 Zn16 2.032 1_556 S
O17 C21 1.278 . S
C18 O19 1.203 . S
C18 O25 1.267 1_554 S
O19 C18 1.203 . S
O20 C13 1.185 1_556 S
O20 Zn16 2.086 1_556 S
C21 O17 1.278 . S
C21 O22 1.211 . S
O22 C21 1.211 . S
C23 O15 1.284 . S
C23 O24 1.273 . S
O24 C23 1.273 . S
O25 Zn16 1.977 1_556 S
O25 C18 1.267 1_556 S
C26 O27 1.160 . S
C26 O33 1.185 1_554 S
O27 C26 1.160 . S
O28 Zn29 1.899 . S
O28 C36 1.284 . S
Zn29 O28 1.899 . S
Zn29 O30 2.032 1_554 S
Zn29 O33 2.086 1_554 S
Zn29 O38 1.977 1_554 S
O30 Zn29 2.032 1_556 S
O30 C34 1.278 . S
C31 O32 1.203 . S
C31 O38 1.267 1_554 S
O32 C31 1.203 . S
O33 C26 1.185 1_556 S
O33 Zn29 2.086 1_556 S
C34 O30 1.278 . S
C34 O35 1.211 . S
O35 C34 1.211 . S
C36 O28 1.284 . S
C36 O37 1.273 . S
O37 C36 1.273 . S
O38 Zn29 1.977 1_556 S
O38 C31 1.267 1_556 S
C39 O40 1.160 . S
C39 O46 1.185 1_554 S
O40 C39 1.160 . S
O41 Zn42 1.899 . S
O41 C49 1.284 . S
Zn42 O41 1.899 . S
Zn42 O43 2.032 1_554 S
Zn42 O46 2.086 1_554 S
Zn42 O51 1.977 1_554 S
O43 Zn42 2.032 1_556 S
O43 C47 1.278 . S
C44 O45 1.203 . S
C44 O51 1.267 1_554 S
O45 C44 1.203 . S
O46 C39 1.185 1_556 S
O46 Zn42 2.086 1_556 S
C47 O43 1.278 . S
C47 O48 1.211 . S
O48 C47 1.211 . S
C49 O41 1.284 . S
C49 O50 1.273 . S
O50 C49 1.273 . S
O51 Zn42 1.977 1_556 S
O51 C44 1.267 1_556 S
C52 O53 1.162 . S
C52 O59 1.184 1_556 S
O53 C52 1.162 . S
O54 Zn55 1.900 . S
O54 C62 1.284 . S
Zn55 O54 1.900 . S
Zn55 O56 2.031 1_556 S
Zn55 O59 2.086 1_556 S
Zn55 O64 1.977 1_556 S
O56 Zn55 2.031 1_554 S
O56 C60 1.278 . S
C57 O58 1.203 . S
C57 O64 1.267 1_556 S
O58 C57 1.203 . S
O59 C52 1.184 1_554 S
O59 Zn55 2.086 1_554 S
C60 O56 1.278 . S
C60 O61 1.211 . S
O61 C60 1.211 . S
C62 O54 1.284 . S
C62 O63 1.273 . S
O63 C62 1.273 . S
O64 Zn55 1.977 1_554 S
O64 C57 1.267 1_554 S
C65 O66 1.162 . S
C65 O72 1.184 1_556 S
O66 C65 1.162 . S
O67 Zn68 1.900 . S
O67 C75 1.284 . S
Zn68 O67 1.900 . S
Zn68 O69 2.031 1_556 S
Zn68 O72 2.086 1_556 S
Zn68 O77 1.977 1_556 S
O69 Zn68 2.031 1_554 S
O69 C73 1.278 . S
C70 O71 1.203 . S
C70 O77 1.267 1_556 S
O71 C70 1.203 . S
O72 C65 1.184 1_554 S
O72 Zn68 2.086 1_554 S
C73 O69 1.278 . S
C73 O74 1.211 . S
O74 C73 1.211 . S
C75 O67 1.284 . S
C75 O76 1.273 . S
O76 C75 1.273 . S
O77 Zn68 1.977 1_554 S
O77 C70 1.267 1_554 S
C78 O79 1.162 . S
C78 O85 1.184 1_556 S
O79 C78 1.162 . S
O80 Zn81 1.900 . S
O80 C88 1.284 . S
Zn81 O80 1.900 . S
Zn81 O82 2.031 1_556 S
Zn81 O85 2.086 1_556 S
Zn81 O90 1.977 1_556 S
O82 Zn81 2.031 1_554 S
O82 C86 1.278 . S
C83 O84 1.203 . S
C83 O90 1.267 1_556 S
O84 C83 1.203 . S
O85 C78 1.184 1_554 S
O85 Zn81 2.086 1_554 S
C86 O82 1.278 . S
C86 O87 1.211 . S
O87 C86 1.211 . S
C88 O80 1.284 . S
C88 O89 1.273 . S
O89 C88 1.273 . S
O90 Zn81 1.977 1_554 S
O90 C83 1.267 1_554 S
C91 O92 1.162 . S
C91 O98 1.184 1_556 S
O92 C91 1.162 . S
O93 Zn94 1.900 . S
O93 C101 1.284 . S
Zn94 O93 1.900 . S
Zn94 O95 2.031 1_556 S
Zn94 O98 2.086 1_556 S
Zn94 O103 1.977 1_556 S
O95 Zn94 2.031 1_554 S
O95 C99 1.278 . S
C96 O97 1.203 . S
C96 O103 1.267 1_556 S
O97 C96 1.203 . S
O98 C91 1.184 1_554 S
O98 Zn94 2.086 1_554 S
C99 O95 1.278 . S
C99 O100 1.211 . S
O100 C99 1.211 . S
C101 O93 1.284 . S
C101 O102 1.273 . S
O102 C101 1.273 . S
O103 Zn94 1.977 1_554 S
O103 C96 1.267 1_554 S
C104 O105 1.160 . S
C104 O111 1.185 . S
O105 C104 1.160 . S
O106 Zn107 1.899 . S
O106 C114 1.284 . S
Zn107 O106 1.899 . S
Zn107 O108 2.032 . S
Zn107 O111 2.086 . S
Zn107 O116 1.977 . S
O108 Zn107 2.032 . S
O108 C112 1.278 . S
C109 O110 1.203 . S
C109 O116 1.267 . S
O110 C109 1.203 . S
O111 C104 1.185 . S
O111 Zn107 2.086 . S
C112 O108 1.278 . S
C112 O113 1.211 . S
O113 C112 1.211 . S
C114 O106 1.284 . S
C114 O115 1.273 . S
O115 C114 1.273 . S
O116 Zn107 1.977 . S
O116 C109 1.267 . S
C117 O118 1.160 . S
C117 O124 1.185 . S
O118 C117 1.160 . S
O119 Zn120 1.899 . S
O119 C127 1.284 . S
Zn120 O119 1.899 . S
Zn120 O121 2.032 . S
Zn120 O124 2.086 . S
Zn120 O129 1.977 . S
O121 Zn120 2.032 . S
O121 C125 1.278 . S
C122 O123 1.203 . S
C122 O129 1.267 . S
O123 C122 1.203 . S
O124 C117 1.185 . S
O124 Zn120 2.086 . S
C125 O121 1.278 . S
C125 O126 1.211 . S
O126 C125 1.211 . S
C127 O119 1.284 . S
C127 O128 1.273 . S
O128 C127 1.273 . S
O129 Zn120 1.977 . S
O129 C122 1.267 . S
C130 O131 1.160 . S
C130 O137 1.185 . S
O131 C130 1.160 . S
O132 Zn133 1.899 . S
O132 C140 1.284 . S
Zn133 O132 1.899 . S
Zn133 O134 2.032 . S
Zn133 O137 2.086 . S
Zn133 O142 1.977 . S
O134 Zn133 2.032 . S
O134 C138 1.278 . S
C135 O136 1.203 . S
C135 O142 1.267 . S
O136 C135 1.203 . S
O137 C130 1.185 . S
O137 Zn133 2.086 . S
C138 O134 1.278 . S
C138 O139 1.211 . S
O139 C138 1.211 . S
C140 O132 1.284 . S
C140 O141 1.273 . S
O141 C140 1.273 . S
O142 Zn133 1.977 . S
O142 C135 1.267 . S
C143 O144 1.160 . S
C143 O150 1.185 . S
O144 C143 1.160 . S
O145 Zn146 1.899 . S
O145 C153 1.284 . S
Zn146 O145 1.899 . S
Zn146 O147 2.032 . S
Zn146 O150 2.086 . S
Zn146 O155 1.977 . S
O147 Zn146 2.032 . S
O147 C151 1.278 . S
C148 O149 1.203 . S
C148 O155 1.267 . S
O149 C148 1.203 . S
O150 C143 1.185 . S
O150 Zn146 2.086 . S
C151 O147 1.278 . S
C151 O152 1.211 . S
O152 C151 1.211 . S
C153 O145 1.284 . S
C153 O154 1.273 . S
O154 C153 1.273 . S
O155 Zn146 1.977 . S
O155 C148 1.267 . S
C156 O157 1.160 . S
C156 O163 1.185 . S
O157 C156 1.160 . S
O158 Zn159 1.899 . S
O158 C166 1.284 . S
Zn159 O158 1.899 . S
Zn159 O160 2.032 . S
Zn159 O163 2.086 . S
Zn159 O168 1.977 . S
O160 Zn159 2.032 . S
O160 C164 1.278 . S
C161 O162 1.203 . S
C161 O168 1.267 . S
O162 C161 1.203 . S
O163 C156 1.185 . S
O163 Zn159 2.086 . S
C164 O160 1.278 . S
C164 O165 1.211 . S
O165 C164 1.211 . S
C166 O158 1.284 . S
C166 O167 1.273 . S
O167 C166 1.273 . S
O168 Zn159 1.977 . S
O168 C161 1.267 . S
C169 O170 1.160 . S
C169 O176 1.185 . S
O170 C169 1.160 . S
O171 Zn172 1.899 . S
O171 C179 1.284 . S
Zn172 O171 1.899 . S
Zn172 O173 2.032 . S
Zn172 O176 2.086 . S
Zn172 O181 1.977 . S
O173 Zn172 2.032 . S
O173 C177 1.278 . S
C174 O175 1.203 . S
C174 O181 1.267 . S
O175 C174 1.203 . S
O176 C169 1.185 . S
O176 Zn172 2.086 . S
C177 O173 1.278 . S
C177 O178 1.211 . S
O178 C177 1.211 . S
C179 O171 1.284 . S
C179 O180 1.273 . S
O180 C179 1.273 . S
O181 Zn172 1.977 . S
O181 C174 1.267 . S
C182 O183 1.160 . S
C182 O189 1.185 . S
O183 C182 1.160 . S
O184 Zn185 1.899 . S
O184 C192 1.284 . S
Zn185 O184 1.899 . S
Zn185 O186 2.032 . S
Zn185 O189 2.086 . S
Zn185 O194 1.977 . S
O186 Zn185 2.032 . S
O186 C190 1.278 . S
C187 O188 1.203 . S
C187 O194 1.267 . S
O188 C187 1.203 . S
O189 C182 1.185 . S
O189 Zn185 2.086 . S
C190 O186 1.278 . S
C190 O191 1.211 . S
O191 C190 1.211 . S
C192 O184 1.284 . S
C192 O193 1.273 . S
O193 C192 1.273 . S
O194 Zn185 1.977 . S
O194 C187 1.267 . S
C195 O196 1.160 . S
C195 O202 1.185 . S
O196 C195 1.160 . S
O197 Zn198 1.899 . S
O197 C205 1.284 . S
Zn198 O197 1.899 . S
Zn198 O199 2.032 . S
Zn198 O202 2.086 . S
Zn198 O207 1.977 . S
O199 Zn198 2.032 . S
O199 C203 1.278 . S
C200 O201 1.203 . S
C200 O207 1.267 . S
O201 C200 1.203 . S
O202 C195 1.185 . S
O202 Zn198 2.086 . S
C203 O199 1.278 . S
C203 O204 1.211 . S
O204 C203 1.211 . S
C205 O197 1.284 . S
C205 O206 1.273 . S
O206 C205 1.273 . S
O207 Zn198 1.977 . S
O207 C200 1.267 . S
C52 C0 1.132 1_556 S
C65 C13 1.132 1_556 S
C78 C26 1.132 1_556 S
C91 C39 1.132 1_556 S
C156 C104 1.134 1_545 S
C169 C117 1.134 1_655 S
C130 C182 1.134 1_545 S
C195 C143 1.134 1_455 S
C5 C70 1.236 1_554 S
C83 C18 1.236 1_556 S
C31 C96 1.236 1_554 S
C57 C44 1.236 1_556 S
C174 C109 1.236 . S
C187 C122 1.236 . S
C135 C200 1.236 . S
C148 C161 1.236 . S
C205 C10 1.483 . S
C166 C23 1.483 . S
C179 C36 1.483 . S
C192 C49 1.483 . S
C127 C62 1.483 . S
C140 C75 1.483 . S
C88 C153 1.483 . S
C101 C114 1.483 . S
C177 C34 1.341 . S
C190 C47 1.341 . S
C203 C8 1.341 . S
C21 C164 1.341 . S
C151 C86 1.341 . S
C99 C112 1.341 . S
C125 C60 1.341 . S
C138 C73 1.341 . S
