# Generated by pormake.
# Topology umf, (4)-cn, num edge types: 1
# Building blocks:
#     Node 0, Type 0, BuildingBlock: QUQFOY_clean_sbu_1, # of connection points: 4
#     Node 1, Type 0, BuildingBlock: QUQFOY_clean_sbu_1, # of connection points: 4
#     Node 2, Type 0, BuildingBlock: QUQFOY_clean_sbu_1, # of connection points: 4
#     Node 3, Type 0, BuildingBlock: QUQFOY_clean_sbu_1, # of connection points: 4
#     Node 4, Type 0, BuildingBlock: QUQFOY_clean_sbu_1, # of connection points: 4
#     Node 5, Type 0, BuildingBlock: QUQFOY_clean_sbu_1, # of connection points: 4
#     Node 6, Type 0, BuildingBlock: QUQFOY_clean_sbu_1, # of connection points: 4
#     Node 7, Type 0, BuildingBlock: QUQFOY_clean_sbu_1, # of connection points: 4
#     Edge 8, Type (0, 0), None
#     Edge 9, Type (0, 0), None
#     Edge 10, Type (0, 0), None
#     Edge 11, Type (0, 0), None
#     Edge 12, Type (0, 0), None
#     Edge 13, Type (0, 0), None
#     Edge 14, Type (0, 0), None
#     Edge 15, Type (0, 0), None
#     Edge 16, Type (0, 0), None
#     Edge 17, Type (0, 0), None
#     Edge 18, Type (0, 0), None
#     Edge 19, Type (0, 0), None
#     Edge 20, Type (0, 0), None
#     Edge 21, Type (0, 0), None
#     Edge 22, Type (0, 0), None
#     Edge 23, Type (0, 0), None
# Relax obj value: 0.060
# Max RMSD: 0.237
# Mean RMSD: 0.237
data_MOF--net-umf--node1-QUQFOY_clean_sbu_1--edge1-none
_symmetry_space_group_name_H-M    P1
_symmetry_Int_Tables_number       1
_symmetry_cell_setting            triclinic
loop_
_symmetry_equiv_pos_as_xyz
'x, y, z'
_cell_length_a     13.202777
_cell_length_b     13.202777
_cell_length_c     23.33379
_cell_angle_alpha  90.002118
_cell_angle_beta   89.998373
_cell_angle_gamma 90.000005
loop_
_atom_site_label
_atom_site_type_symbol
_atom_site_fract_x
_atom_site_fract_y
_atom_site_fract_z
_atom_type_partial_charge
O0 O 0.96019 0.2883 0.13512 0.0
Cd1 Cd 0.99377 0.30085 0.21836 0.0
Cd2 Cd 0.16872 0.23977 0.20525 0.0
O3 O 0.12607 0.30029 0.12318 0.0
O4 O 0.93529 0.42893 0.25251 0.0
O5 O 0.09307 0.41814 0.22084 0.0
C6 C 1.02155 0.47215 0.24212 0.0
C7 C 0.24754 0.27819 0.29258 0.0
C8 C 0.03568 0.3 0.10239 0.0
C9 C 0.04673 0.07914 0.24157 0.0
O10 O 0.12397 0.09553 0.2109 0.0
O11 O 0.99043 0.15357 0.25721 0.0
O12 O 0.30093 0.25296 0.24812 0.0
O13 O 0.15202 0.29167 0.28566 0.0
O14 O 0.95894 0.12398 0.7109 0.0
Cd15 Cd 0.81471 0.16873 0.70525 0.0
Cd16 Cd 0.75362 0.99379 0.71836 0.0
O17 O 0.90091 0.99044 0.75721 0.0
O18 O 0.80152 0.30095 0.74812 0.0
O19 O 0.7628 0.15204 0.78566 0.0
C20 C 0.77629 0.24757 0.79258 0.0
C21 C 0.58232 1.02156 0.74211 0.0
C22 C 0.97533 0.04674 0.74157 0.0
C23 C 0.75447 0.03569 0.60238 0.0
O24 O 0.76617 0.9602 0.63512 0.0
O25 O 0.75418 0.12608 0.62318 0.0
O26 O 0.62555 0.9353 0.7525 0.0
O27 O 0.63634 0.09308 0.72084 0.0
O28 O 0.09429 0.76619 0.13512 0.0
Cd29 Cd 0.06071 0.75365 0.21836 0.0
Cd30 Cd 0.88573 0.81472 0.20525 0.0
O31 O 0.92841 0.7542 0.12318 0.0
O32 O 0.1192 0.62559 0.25251 0.0
O33 O 0.96142 0.63636 0.22084 0.0
C34 C 0.03295 0.58237 0.24211 0.0
C35 C 0.80691 0.77628 0.29257 0.0
C36 C 1.01881 0.75448 0.10239 0.0
C37 C 1.00768 0.97534 0.24158 0.0
O38 O 0.93044 0.95896 0.21091 0.0
O39 O 0.06402 0.90094 0.25721 0.0
O40 O 0.75351 0.80149 0.24812 0.0
O41 O 0.90244 0.76282 0.28566 0.0
O42 O 0.09551 0.93045 0.71091 0.0
Cd43 Cd 0.23976 0.88574 0.70525 0.0
Cd44 Cd 0.30082 0.06072 0.71837 0.0
O45 O 0.15353 0.06404 0.75721 0.0
O46 O 0.253 0.75353 0.74812 0.0
O47 O 0.29166 0.90246 0.78566 0.0
C48 C 0.2782 0.80694 0.79257 0.0
C49 C 0.47211 0.03296 0.74211 0.0
C50 C 0.07913 1.0077 0.74158 0.0
C51 C 0.29999 1.01881 0.60239 0.0
O52 O 0.28828 0.0943 0.63512 0.0
O53 O 0.30027 0.92842 0.62318 0.0
O54 O 0.42888 0.11921 0.75251 0.0
O55 O 0.41811 0.96143 0.72083 0.0
O56 O 0.9602 0.76618 1.00739 0.0
Cd57 Cd 0.99379 0.75363 0.92414 0.0
Cd58 Cd 0.16875 0.81472 0.93725 0.0
O59 O 0.12609 0.75421 1.01933 0.0
O60 O 0.93531 0.62556 0.89 0.0
O61 O 0.09308 0.63634 0.92167 0.0
C62 C 1.02156 0.58233 0.9004 0.0
C63 C 0.24756 0.77629 0.84995 0.0
C64 C 0.0357 0.75448 1.04012 0.0
C65 C 0.04674 0.97534 0.90093 0.0
O66 O 0.12399 0.95895 0.93159 0.0
O67 O 0.99044 0.90091 0.8853 0.0
O68 O 0.30098 0.80154 0.89439 0.0
O69 O 0.15203 0.76279 0.85685 0.0
O70 O 0.09552 0.12399 0.43159 0.0
Cd71 Cd 0.23975 0.16875 0.43725 0.0
Cd72 Cd 0.30084 0.99379 0.42414 0.0
O73 O 0.15355 0.99044 0.3853 0.0
O74 O 0.25293 0.30098 0.39439 0.0
O75 O 0.29167 0.15202 0.35685 0.0
C76 C 0.27818 0.24754 0.34996 0.0
C77 C 0.47213 1.02156 0.4004 0.0
C78 C 0.07913 0.04674 0.40093 0.0
C79 C 0.29999 0.0357 0.54012 0.0
O80 O 0.28829 0.9602 0.50739 0.0
O81 O 0.30026 0.12609 0.51933 0.0
O82 O 0.42891 0.93531 0.39 0.0
O83 O 0.41812 0.09308 0.42167 0.0
O84 O 0.09429 0.28829 1.00739 0.0
Cd85 Cd 0.06072 0.30083 0.92414 0.0
Cd86 Cd 0.88573 0.23976 0.93725 0.0
O87 O 0.9284 0.30027 1.01933 0.0
O88 O 0.11921 0.42889 0.89 0.0
O89 O 0.96143 0.41812 0.92168 0.0
C90 C 0.03296 0.47212 0.9004 0.0
C91 C 0.80694 0.27821 0.84996 0.0
C92 C 1.0188 0.3 1.04012 0.0
C93 C 1.0077 0.07914 0.90092 0.0
O94 O 0.93045 0.09552 0.93158 0.0
O95 O 0.06404 0.15354 0.8853 0.0
O96 O 0.7535 0.25298 0.89439 0.0
O97 O 0.90247 0.29168 0.85685 0.0
O98 O 0.95895 0.93045 0.43158 0.0
Cd99 Cd 0.81471 0.88572 0.43725 0.0
Cd100 Cd 0.75364 0.06071 0.42414 0.0
O101 O 0.90093 0.06404 0.3853 0.0
O102 O 0.80149 0.75349 0.39439 0.0
O103 O 0.76278 0.90246 0.35684 0.0
C104 C 0.77626 0.80693 0.34995 0.0
C105 C 0.58235 0.03296 0.4004 0.0
C106 C 0.97532 1.0077 0.40092 0.0
C107 C 0.75447 1.0188 0.54012 0.0
O108 O 0.76618 0.09429 0.50739 0.0
O109 O 0.7542 0.9284 0.51933 0.0
O110 O 0.62558 0.11921 0.39 0.0
O111 O 0.63635 0.96143 0.42167 0.0
loop_
_geom_bond_atom_site_label_1
_geom_bond_atom_site_label_2
_geom_bond_distance
_geom_bond_site_symmetry_2
_ccdc_geom_bond_type
O0 Cd1 2.223 . S
O0 C8 1.315 1_655 S
Cd1 O0 2.223 . S
Cd1 O4 2.297 . S
Cd1 O5 2.439 1_655 S
Cd1 O11 2.236 1_655 S
Cd2 O3 2.240 . S
Cd2 O10 2.223 . S
Cd2 O12 2.297 . S
Cd2 O13 2.439 . S
O3 Cd2 2.240 . S
O3 C8 1.279 . S
O4 Cd1 2.297 . S
O4 C6 1.247 . S
O5 Cd1 2.439 1_455 S
O5 C6 1.208 1_455 S
C6 O4 1.247 . S
C6 O5 1.208 1_655 S
C7 O12 1.247 . S
C7 O13 1.208 . S
C8 O0 1.315 1_455 S
C8 O3 1.279 . S
C9 O10 1.315 . S
C9 O11 1.282 . S
O10 Cd2 2.223 . S
O10 C9 1.315 . S
O11 Cd1 2.236 1_455 S
O11 C9 1.282 . S
O12 Cd2 2.297 . S
O12 C7 1.247 . S
O13 Cd2 2.439 . S
O13 C7 1.208 . S
O14 Cd15 2.223 . S
O14 C22 1.315 . S
Cd15 O14 2.223 . S
Cd15 O18 2.297 . S
Cd15 O19 2.439 . S
Cd15 O25 2.240 . S
Cd16 O17 2.236 1_565 S
Cd16 O24 2.223 . S
Cd16 O26 2.297 . S
Cd16 O27 2.439 1_565 S
O17 Cd16 2.236 1_545 S
O17 C22 1.282 . S
O18 Cd15 2.297 . S
O18 C20 1.247 . S
O19 Cd15 2.439 . S
O19 C20 1.208 . S
C20 O18 1.247 . S
C20 O19 1.208 . S
C21 O26 1.247 . S
C21 O27 1.208 1_565 S
C22 O14 1.315 . S
C22 O17 1.282 . S
C23 O24 1.315 1_545 S
C23 O25 1.279 . S
O24 Cd16 2.223 . S
O24 C23 1.315 1_565 S
O25 Cd15 2.240 . S
O25 C23 1.279 . S
O26 Cd16 2.297 . S
O26 C21 1.247 . S
O27 Cd16 2.439 1_545 S
O27 C21 1.208 1_545 S
O28 Cd29 2.223 . S
O28 C36 1.315 1_455 S
Cd29 O28 2.223 . S
Cd29 O32 2.297 . S
Cd29 O33 2.439 1_455 S
Cd29 O39 2.236 1_455 S
Cd30 O31 2.240 . S
Cd30 O38 2.223 . S
Cd30 O40 2.297 . S
Cd30 O41 2.439 . S
O31 Cd30 2.240 . S
O31 C36 1.279 . S
O32 Cd29 2.297 . S
O32 C34 1.247 . S
O33 Cd29 2.439 1_655 S
O33 C34 1.208 1_655 S
C34 O32 1.247 . S
C34 O33 1.208 1_455 S
C35 O40 1.247 . S
C35 O41 1.208 . S
C36 O28 1.315 1_655 S
C36 O31 1.279 . S
C37 O38 1.315 . S
C37 O39 1.282 . S
O38 Cd30 2.223 . S
O38 C37 1.315 . S
O39 Cd29 2.236 1_655 S
O39 C37 1.282 . S
O40 Cd30 2.297 . S
O40 C35 1.247 . S
O41 Cd30 2.439 . S
O41 C35 1.208 . S
O42 Cd43 2.223 . S
O42 C50 1.315 . S
Cd43 O42 2.223 . S
Cd43 O46 2.297 . S
Cd43 O47 2.439 . S
Cd43 O53 2.240 . S
Cd44 O45 2.236 1_545 S
Cd44 O52 2.223 . S
Cd44 O54 2.297 . S
Cd44 O55 2.439 1_545 S
O45 Cd44 2.236 1_565 S
O45 C50 1.282 . S
O46 Cd43 2.297 . S
O46 C48 1.247 . S
O47 Cd43 2.439 . S
O47 C48 1.208 . S
C48 O46 1.247 . S
C48 O47 1.208 . S
C49 O54 1.247 . S
C49 O55 1.208 1_545 S
C50 O42 1.315 . S
C50 O45 1.282 . S
C51 O52 1.315 1_565 S
C51 O53 1.279 . S
O52 Cd44 2.223 . S
O52 C51 1.315 1_545 S
O53 Cd43 2.240 . S
O53 C51 1.279 . S
O54 Cd44 2.297 . S
O54 C49 1.247 . S
O55 Cd44 2.439 1_565 S
O55 C49 1.208 1_565 S
O56 Cd57 2.223 . S
O56 C64 1.315 1_655 S
Cd57 O56 2.223 . S
Cd57 O60 2.297 . S
Cd57 O61 2.439 1_655 S
Cd57 O67 2.236 1_655 S
Cd58 O59 2.240 . S
Cd58 O66 2.223 . S
Cd58 O68 2.297 . S
Cd58 O69 2.439 . S
O59 Cd58 2.240 . S
O59 C64 1.279 . S
O60 Cd57 2.297 . S
O60 C62 1.247 . S
O61 Cd57 2.439 1_455 S
O61 C62 1.208 1_455 S
C62 O60 1.247 . S
C62 O61 1.208 1_655 S
C63 O68 1.247 . S
C63 O69 1.208 . S
C64 O56 1.315 1_455 S
C64 O59 1.279 . S
C65 O66 1.315 . S
C65 O67 1.282 . S
O66 Cd58 2.223 . S
O66 C65 1.315 . S
O67 Cd57 2.236 1_455 S
O67 C65 1.282 . S
O68 Cd58 2.297 . S
O68 C63 1.247 . S
O69 Cd58 2.439 . S
O69 C63 1.208 . S
O70 Cd71 2.223 . S
O70 C78 1.315 . S
Cd71 O70 2.223 . S
Cd71 O74 2.297 . S
Cd71 O75 2.439 . S
Cd71 O81 2.240 . S
Cd72 O73 2.236 1_565 S
Cd72 O80 2.223 . S
Cd72 O82 2.297 . S
Cd72 O83 2.439 1_565 S
O73 Cd72 2.236 1_545 S
O73 C78 1.282 . S
O74 Cd71 2.297 . S
O74 C76 1.247 . S
O75 Cd71 2.439 . S
O75 C76 1.208 . S
C76 O74 1.247 . S
C76 O75 1.208 . S
C77 O82 1.247 . S
C77 O83 1.208 1_565 S
C78 O70 1.315 . S
C78 O73 1.282 . S
C79 O80 1.315 1_545 S
C79 O81 1.279 . S
O80 Cd72 2.223 . S
O80 C79 1.315 1_565 S
O81 Cd71 2.240 . S
O81 C79 1.279 . S
O82 Cd72 2.297 . S
O82 C77 1.247 . S
O83 Cd72 2.439 1_545 S
O83 C77 1.208 1_545 S
O84 Cd85 2.223 . S
O84 C92 1.315 1_455 S
Cd85 O84 2.223 . S
Cd85 O88 2.297 . S
Cd85 O89 2.439 1_455 S
Cd85 O95 2.236 1_455 S
Cd86 O87 2.240 . S
Cd86 O94 2.223 . S
Cd86 O96 2.297 . S
Cd86 O97 2.439 . S
O87 Cd86 2.240 . S
O87 C92 1.279 . S
O88 Cd85 2.297 . S
O88 C90 1.247 . S
O89 Cd85 2.439 1_655 S
O89 C90 1.208 1_655 S
C90 O88 1.247 . S
C90 O89 1.208 1_455 S
C91 O96 1.247 . S
C91 O97 1.208 . S
C92 O84 1.315 1_655 S
C92 O87 1.279 . S
C93 O94 1.315 . S
C93 O95 1.282 . S
O94 Cd86 2.223 . S
O94 C93 1.315 . S
O95 Cd85 2.236 1_655 S
O95 C93 1.282 . S
O96 Cd86 2.297 . S
O96 C91 1.247 . S
O97 Cd86 2.439 . S
O97 C91 1.208 . S
O98 Cd99 2.223 . S
O98 C106 1.315 . S
Cd99 O98 2.223 . S
Cd99 O102 2.297 . S
Cd99 O103 2.439 . S
Cd99 O109 2.240 . S
Cd100 O101 2.236 1_545 S
Cd100 O108 2.223 . S
Cd100 O110 2.297 . S
Cd100 O111 2.439 1_545 S
O101 Cd100 2.236 1_565 S
O101 C106 1.282 . S
O102 Cd99 2.297 . S
O102 C104 1.247 . S
O103 Cd99 2.439 . S
O103 C104 1.208 . S
C104 O102 1.247 . S
C104 O103 1.208 . S
C105 O110 1.247 . S
C105 O111 1.208 1_545 S
C106 O98 1.315 . S
C106 O101 1.282 . S
C107 O108 1.315 1_565 S
C107 O109 1.279 . S
O108 Cd100 2.223 . S
O108 C107 1.315 1_545 S
O109 Cd99 2.240 . S
O109 C107 1.279 . S
O110 Cd100 2.297 . S
O110 C105 1.247 . S
O111 Cd100 2.439 1_565 S
O111 C105 1.208 1_565 S
C6 C34 1.696 1_655 S
C49 C21 1.696 1_545 S
C90 C62 1.696 1_455 S
C77 C105 1.696 1_565 S
C92 C8 2.215 1_656 S
C23 C107 2.215 1_545 S
C36 C64 2.215 1_654 S
C79 C51 2.216 1_545 S
C7 C76 3.023 . S
C91 C20 3.022 . S
C104 C35 3.022 . S
C48 C63 3.023 . S
C9 C37 1.214 1_445 S
C50 C22 1.214 1_465 S
C93 C65 1.214 1_645 S
C106 C78 1.214 1_665 S
