# Generated by pormake.
# Topology pcu, (6)-cn, num edge types: 1
# Building blocks:
#     Node 0, Type 0, BuildingBlock: MIDCAF_clean_sbu_0, # of connection points: 6
#     Edge 1, Type (0, 0), BuildingBlock: AJUNOK_clean_linker_0, # of connection points: 2
#     Edge 2, Type (0, 0), BuildingBlock: AJUNOK_clean_linker_0, # of connection points: 2
#     Edge 3, Type (0, 0), BuildingBlock: AJUNOK_clean_linker_0, # of connection points: 2
# Relax obj value: 0.148
# Max RMSD: 0.201
# Mean RMSD: 0.201
data_MOF--net-pcu--node1-MIDCAF_clean_sbu_0--edge1-AJUNOK_clean_linker_0
_symmetry_space_group_name_H-M    P1
_symmetry_Int_Tables_number       1
_symmetry_cell_setting            triclinic
loop_
_symmetry_equiv_pos_as_xyz
'x, y, z'
_cell_length_a     11.192406
_cell_length_b     11.265303
_cell_length_c     11.139591
_cell_angle_alpha  99.883555
_cell_angle_beta   99.81695
_cell_angle_gamma 97.950566
loop_
_atom_site_label
_atom_site_type_symbol
_atom_site_fract_x
_atom_site_fract_y
_atom_site_fract_z
_atom_type_partial_charge
Zn0 Zn 0.85866 0.85857 0.8852 0.0
Zn1 Zn 0.15184 0.17295 0.19339 0.0
Zn2 Zn 0.99747 1.01322 0.04912 0.0
C3 C 0.26166 0.14097 1.00153 0.0
C4 C 0.13934 0.9838 0.31501 0.0
O5 O 0.82026 0.08365 1.00143 0.0
O6 O 0.7338 0.95247 0.82735 0.0
C7 C 0.05136 0.8863 0.78096 0.0
O8 O 0.1671 0.05435 0.9744 0.0
O9 O 0.27155 0.22662 0.09364 0.0
O10 O 0.21383 0.07808 0.31402 0.0
O11 O 0.04644 0.94358 0.22401 0.0
O12 O 0.95929 0.80281 0.76388 0.0
O13 O 0.07539 0.97121 0.87985 0.0
O14 O 0.96389 0.84707 0.12781 0.0
O15 O 0.80499 0.74297 0.98647 0.0
C16 C 0.87887 0.75206 0.0877 0.0
O17 O 0.91667 0.18043 0.08503 0.0
O18 O 0.04679 0.28871 0.25138 0.0
C19 C 0.73002 0.04498 0.90727 0.0
C20 C 0.94913 0.27698 0.17203 0.0
C21 C 0.15104 0.04717 0.53952 0.0
C22 C 0.13971 0.95077 0.43724 0.0
C23 C 0.13536 0.02469 0.65534 0.0
C24 C 0.10718 0.90469 0.67349 0.0
H25 H 0.16474 0.14152 0.52834 0.0
H26 H 0.13527 0.10229 0.72776 0.0
S27 S 0.10829 0.62191 0.4479 0.0
N28 N 0.12671 0.73217 0.36852 0.0
N29 N 0.09518 0.6887 0.58811 0.0
C30 C 0.10826 0.80738 0.57586 0.0
C31 C 0.12452 0.83061 0.45692 0.0
C32 C 0.38965 1.00706 0.90092 0.0
C33 C 0.37121 0.12585 0.94637 0.0
C34 C 0.50518 0.98468 0.88198 0.0
C35 C 0.60752 0.07987 0.9082 0.0
H36 H 0.31745 0.92902 0.88928 0.0
H37 H 0.5159 0.8903 0.85444 0.0
S38 S 0.59937 0.41033 0.99474 0.0
N39 N 0.45857 0.34262 0.99415 0.0
N40 N 0.67682 0.29939 0.95709 0.0
C41 C 0.58792 0.20021 0.94175 0.0
C42 C 0.46936 0.22342 0.96074 0.0
C43 C 0.9491 0.55792 0.03977 0.0
C44 C 0.89736 0.63522 0.12144 0.0
C45 C 0.95586 0.4384 0.05292 0.0
C46 C 0.91217 0.39175 0.14906 0.0
H47 H 0.98364 0.59002 0.9637 0.0
H48 H 0.99972 0.38319 0.98966 0.0
S49 S 0.76489 0.55563 0.38561 0.0
N50 N 0.79621 0.65635 0.29841 0.0
N51 N 0.81503 0.43074 0.32783 0.0
C52 C 0.85989 0.46753 0.23195 0.0
C53 C 0.85052 0.58973 0.21669 0.0
loop_
_geom_bond_atom_site_label_1
_geom_bond_atom_site_label_2
_geom_bond_distance
_geom_bond_site_symmetry_2
_ccdc_geom_bond_type
Zn0 O6 1.920 . S
Zn0 O12 1.898 . S
Zn0 O15 1.905 . S
Zn1 O9 1.905 . S
Zn1 O10 1.898 . S
Zn1 O18 1.920 . S
Zn2 O5 2.075 1_455 S
Zn2 O8 2.120 . S
Zn2 O11 2.119 1_465 S
Zn2 O13 2.120 1_464 S
Zn2 O14 2.118 1_554 S
Zn2 O17 2.077 1_564 S
C3 O8 1.166 1_545 S
C3 O9 1.182 . S
C4 O10 1.167 . S
C4 O11 1.299 1_455 S
O5 Zn2 2.075 1_655 S
O5 C19 1.305 1_554 S
O6 Zn0 1.920 . S
O6 C19 1.234 . S
C7 O12 1.167 . S
C7 O13 1.299 1_565 S
O8 Zn2 2.120 . S
O8 C3 1.166 1_565 S
O9 Zn1 1.905 . S
O9 C3 1.182 . S
O10 Zn1 1.898 . S
O10 C4 1.167 . S
O11 Zn2 2.119 1_645 S
O11 C4 1.299 1_655 S
O12 Zn0 1.898 . S
O12 C7 1.167 . S
O13 Zn2 2.120 1_646 S
O13 C7 1.299 1_545 S
O14 Zn2 2.118 1_556 S
O14 C16 1.166 1_455 S
O15 Zn0 1.905 . S
O15 C16 1.182 . S
C16 O14 1.166 1_655 S
C16 O15 1.182 . S
O17 Zn2 2.077 1_546 S
O17 C20 1.305 1_556 S
O18 Zn1 1.920 . S
O18 C20 1.234 . S
C19 O5 1.305 1_556 S
C19 O6 1.234 . S
C20 O17 1.305 1_554 S
C20 O18 1.234 . S
C21 C22 1.369 1_545 S
C21 C23 1.419 . S
C21 H25 0.930 . S
C22 C21 1.369 1_565 S
C22 C31 1.429 1_455 S
C23 C21 1.419 . S
C23 C24 1.363 1_545 S
C23 H26 0.929 . S
C24 C23 1.363 1_565 S
C24 C30 1.428 1_455 S
H25 C21 0.930 . S
H26 C23 0.929 . S
S27 N28 1.613 . S
S27 N29 1.610 . S
N28 S27 1.613 . S
N28 C31 1.350 . S
N29 S27 1.610 . S
N29 C30 1.351 . S
C30 C24 1.428 1_655 S
C30 N29 1.351 . S
C30 C31 1.434 . S
C31 C22 1.429 1_655 S
C31 N28 1.350 . S
C31 C30 1.434 . S
C32 C33 1.369 1_565 S
C32 C34 1.419 . S
C32 H36 0.930 . S
C33 C32 1.369 1_545 S
C33 C42 1.429 1_556 S
C34 C32 1.419 . S
C34 C35 1.363 1_565 S
C34 H37 0.929 . S
C35 C34 1.363 1_545 S
C35 C41 1.428 1_556 S
H36 C32 0.930 . S
H37 C34 0.929 . S
S38 N39 1.613 . S
S38 N40 1.610 . S
N39 S38 1.613 . S
N39 C42 1.350 . S
N40 S38 1.610 . S
N40 C41 1.351 . S
C41 C35 1.428 1_554 S
C41 N40 1.351 . S
C41 C42 1.434 . S
C42 C33 1.429 1_554 S
C42 N39 1.350 . S
C42 C41 1.434 . S
C43 C44 1.369 1_456 S
C43 C45 1.419 . S
C43 H47 0.930 . S
C44 C43 1.369 1_654 S
C44 C53 1.429 . S
C45 C43 1.419 . S
C45 C46 1.363 1_456 S
C45 H48 0.929 . S
C46 C45 1.363 1_654 S
C46 C52 1.428 . S
H47 C43 0.930 . S
H48 C45 0.929 . S
S49 N50 1.613 . S
S49 N51 1.610 . S
N50 S49 1.613 . S
N50 C53 1.350 . S
N51 S49 1.610 . S
N51 C52 1.351 . S
C52 C46 1.428 . S
C52 N51 1.351 . S
C52 C53 1.434 . S
C53 C44 1.429 . S
C53 N50 1.350 . S
C53 C52 1.434 . S
C22 C4 1.348 1_565 S
C24 C7 1.336 1_455 S
C33 C3 1.349 1_556 S
C35 C19 1.356 1_545 S
C44 C16 1.357 1_554 S
C46 C20 1.352 1_655 S
