# Generated by pormake.
# Topology reo, (8)-cn, num edge types: 1
# Building blocks:
#     Node 0, Type 0, BuildingBlock: TAGTUT_clean_sbu_3, # of connection points: 8
#     Node 1, Type 0, BuildingBlock: TAGTUT_clean_sbu_3, # of connection points: 8
#     Node 2, Type 0, BuildingBlock: TAGTUT_clean_sbu_3, # of connection points: 8
#     Edge 3, Type (0, 0), BuildingBlock: EYOCIG_clean_linker_4, # of connection points: 2
#     Edge 4, Type (0, 0), BuildingBlock: EYOCIG_clean_linker_4, # of connection points: 2
#     Edge 5, Type (0, 0), BuildingBlock: EYOCIG_clean_linker_4, # of connection points: 2
#     Edge 6, Type (0, 0), BuildingBlock: EYOCIG_clean_linker_4, # of connection points: 2
#     Edge 7, Type (0, 0), BuildingBlock: EYOCIG_clean_linker_4, # of connection points: 2
#     Edge 8, Type (0, 0), BuildingBlock: EYOCIG_clean_linker_4, # of connection points: 2
#     Edge 9, Type (0, 0), BuildingBlock: EYOCIG_clean_linker_4, # of connection points: 2
#     Edge 10, Type (0, 0), BuildingBlock: EYOCIG_clean_linker_4, # of connection points: 2
#     Edge 11, Type (0, 0), BuildingBlock: EYOCIG_clean_linker_4, # of connection points: 2
#     Edge 12, Type (0, 0), BuildingBlock: EYOCIG_clean_linker_4, # of connection points: 2
#     Edge 13, Type (0, 0), BuildingBlock: EYOCIG_clean_linker_4, # of connection points: 2
#     Edge 14, Type (0, 0), BuildingBlock: EYOCIG_clean_linker_4, # of connection points: 2
# Relax obj value: 0.169
# Max RMSD: 0.190
# Mean RMSD: 0.190
data_MOF--net-reo--node1-TAGTUT_clean_sbu_3--edge1-EYOCIG_clean_linker_4
_symmetry_space_group_name_H-M    P1
_symmetry_Int_Tables_number       1
_symmetry_cell_setting            triclinic
loop_
_symmetry_equiv_pos_as_xyz
'x, y, z'
_cell_length_a     19.943866
_cell_length_b     19.953613
_cell_length_c     19.944731
_cell_angle_alpha  91.156527
_cell_angle_beta   91.17054
_cell_angle_gamma 91.159148
loop_
_atom_site_label
_atom_site_type_symbol
_atom_site_fract_x
_atom_site_fract_y
_atom_site_fract_z
_atom_type_partial_charge
C0 C 0.95782 0.8411 0.55241 0.0
C1 C 0.7363 -0.02002 0.57155 0.0
C2 C 0.78563 0.04139 0.37077 0.0
Mg3 Mg 0.09729 0.88617 0.47868 0.0
Mg4 Mg 0.13317 0.04812 0.46892 0.0
O5 O 0.07277 0.97716 0.44518 0.0
Mg6 Mg -0.01956 -0.01604 0.48033 0.0
O7 O 0.8881 -0.01302 0.51488 0.0
Mg8 Mg 0.84353 0.91176 0.46127 0.0
Mg9 Mg 0.84598 0.07082 0.51036 0.0
C10 C 0.00832 0.12914 0.41254 0.0
O11 O 0.01214 0.06062 0.5654 0.0
O12 O 0.19124 0.89954 0.41045 0.0
O13 O 0.92464 0.13096 0.56269 0.0
O14 O 0.15734 0.92538 0.56972 0.0
O15 O 0.20929 0.01153 0.40405 0.0
O16 O 0.16651 0.03694 0.57291 0.0
O17 O 0.94145 0.90964 0.39697 0.0
O18 O 0.03312 0.84651 0.39207 0.0
C19 C 0.97379 0.86013 0.37219 0.0
C20 C 0.22308 0.95098 0.38796 0.0
O21 O 0.96828 0.07853 0.41837 0.0
O22 O 0.75521 0.92889 0.53651 0.0
O23 O 0.0697 0.12999 0.43377 0.0
O24 O 0.79256 -0.01995 0.38528 0.0
O25 O 0.76361 0.03831 0.56847 0.0
O26 O 0.80869 0.08884 0.409 0.0
O27 O -0.00069 0.88903 0.54022 0.0
O28 O 0.89651 0.84216 0.53284 0.0
C29 C 0.17582 -0.02009 0.59911 0.0
C30 C -0.01644 0.11521 0.58347 0.0
C31 C 0.37176 0.97426 0.86029 0.0
C32 C 0.38741 0.22332 0.95153 0.0
C33 C 0.59863 0.17617 -0.01976 0.0
Mg34 Mg 0.4607 0.84404 0.91176 0.0
Mg35 Mg 0.50985 0.84624 0.07088 0.0
O36 O 0.51446 0.88843 -0.01297 0.0
Mg37 Mg 0.48 -0.0192 -0.01585 0.0
O38 O 0.44484 0.07309 0.97751 0.0
Mg39 Mg 0.47814 0.09773 0.88647 0.0
Mg40 Mg 0.46857 0.1334 0.04854 0.0
C41 C 0.58309 -0.01633 0.11543 0.0
O42 O 0.41808 0.96854 0.07875 0.0
O43 O 0.53588 0.75561 0.92878 0.0
O44 O 0.43357 0.06983 0.13038 0.0
O45 O 0.38464 0.79307 -0.02003 0.0
O46 O 0.56792 0.76391 0.03825 0.0
O47 O 0.40844 0.80897 0.08882 0.0
O48 O 0.53997 -9e-05 0.88911 0.0
O49 O 0.53229 0.89705 0.84233 0.0
C50 C 0.552 0.95828 0.84123 0.0
C51 C 0.57096 0.73666 -0.02013 0.0
O52 O 0.56506 0.0123 0.06084 0.0
O53 O 0.40983 0.19154 0.90002 0.0
O54 O 0.56225 0.92478 0.13114 0.0
O55 O 0.56917 0.15777 0.9257 0.0
O56 O 0.4036 0.20951 0.01208 0.0
O57 O 0.57253 0.16677 0.03732 0.0
O58 O 0.39676 0.94212 0.90983 0.0
O59 O 0.39146 0.0336 0.84664 0.0
C60 C 0.37015 0.78605 0.04133 0.0
C61 C 0.41233 0.00848 0.12945 0.0
C62 C 0.84059 0.55225 0.95807 0.0
C63 C -0.02047 0.5714 0.73652 0.0
C64 C 0.04099 0.37066 0.78583 0.0
Mg65 Mg 0.88577 0.47852 0.09759 0.0
Mg66 Mg 0.0478 0.46891 0.13349 0.0
O67 O 0.97683 0.44519 0.07305 0.0
Mg68 Mg -0.01641 0.48028 -0.0193 0.0
O69 O -0.01344 0.51475 0.88832 0.0
Mg70 Mg 0.91131 0.46113 0.84378 0.0
Mg71 Mg 0.07045 0.51021 0.84619 0.0
C72 C 0.12889 0.41271 0.00866 0.0
O73 O 0.06022 0.56539 0.01231 0.0
O74 O 0.89926 0.41021 0.1915 0.0
O75 O 0.13061 0.5626 0.92483 0.0
O76 O 0.9249 0.56954 0.1577 0.0
O77 O 0.01131 0.4039 0.20953 0.0
O78 O 0.03652 0.57279 0.16695 0.0
O79 O 0.9093 0.39689 0.94173 0.0
O80 O 0.84618 0.39194 0.03341 0.0
C81 C 0.8598 0.37207 0.9741 0.0
C82 C 0.95076 0.38772 0.2233 0.0
O83 O 0.07824 0.41845 0.96861 0.0
O84 O 0.92841 0.53637 0.75543 0.0
O85 O 0.12974 0.43395 0.07003 0.0
O86 O -0.02038 0.38516 0.79278 0.0
O87 O 0.0379 0.56829 0.76381 0.0
O88 O 0.08845 0.40888 0.80888 0.0
O89 O 0.88855 0.54009 -0.00042 0.0
O90 O 0.84166 0.53267 0.89677 0.0
C91 C -0.02056 0.59893 0.17625 0.0
C92 C 0.11483 0.58344 -0.01628 0.0
C93 C 0.94756 0.29134 0.31096 0.0
C94 C 0.94212 0.33552 0.27097 0.0
C95 C 0.9643 0.23582 0.35034 0.0
C96 C -0.01618 0.18683 0.37865 0.0
C97 C 0.71166 0.05325 0.26084 0.0
C98 C 0.74625 0.05524 0.31143 0.0
C99 C 0.66787 0.03876 0.20522 0.0
C100 C 0.62959 0.0178 0.16145 0.0
C101 C 0.94651 0.7716 0.27894 0.0
C102 C 0.94684 0.8173 0.31945 0.0
C103 C 0.96079 0.71407 0.23963 0.0
C104 C 0.97394 0.66216 0.21117 0.0
C105 C 0.35027 0.96438 0.23619 0.0
C106 C 0.37852 -0.01608 0.18716 0.0
C107 C 0.31089 0.94766 0.29171 0.0
C108 C 0.27083 0.94227 0.33584 0.0
C109 C -0.01919 0.73035 0.61618 0.0
C110 C 0.97814 0.78312 0.58805 0.0
C111 C 0.97489 0.67029 0.65191 0.0
C112 C 0.97086 0.62355 0.68902 0.0
C113 C 0.27847 0.94683 0.77185 0.0
C114 C 0.31902 0.94715 0.81754 0.0
C115 C 0.23915 0.96122 0.71433 0.0
C116 C 0.21072 0.97443 0.66239 0.0
C117 C 0.05295 0.26072 0.71194 0.0
C118 C 0.05484 0.31132 0.74648 0.0
C119 C 0.03863 0.20503 0.66821 0.0
C120 C 0.01776 0.1612 0.62996 0.0
C121 C 0.61586 -0.01889 0.73046 0.0
C122 C 0.58769 0.97843 0.78322 0.0
C123 C 0.65164 0.97527 0.67041 0.0
C124 C 0.68879 0.9713 0.62368 0.0
C125 C 0.23567 0.35058 0.9648 0.0
C126 C 0.18662 0.37886 -0.01577 0.0
C127 C 0.29118 0.31114 0.94821 0.0
C128 C 0.33529 0.27107 0.94288 0.0
C129 C 0.20458 0.66828 0.03875 0.0
C130 C 0.16081 0.62998 0.01786 0.0
C131 C 0.26022 0.71207 0.05316 0.0
C132 C 0.31081 0.74664 0.05514 0.0
C133 C 0.71385 0.23944 0.96148 0.0
C134 C 0.66192 0.21103 0.97474 0.0
C135 C 0.77136 0.27872 0.94702 0.0
C136 C 0.81703 0.31926 0.94722 0.0
C137 C 0.72987 0.61617 -0.01901 0.0
C138 C 0.78262 0.58797 0.97832 0.0
C139 C 0.66983 0.652 0.97512 0.0
C140 C 0.62309 0.68915 0.97114 0.0
loop_
_geom_bond_atom_site_label_1
_geom_bond_atom_site_label_2
_geom_bond_distance
_geom_bond_site_symmetry_2
_ccdc_geom_bond_type
C0 O27 1.312 1_655 S
C0 O28 1.208 . S
C1 O22 1.331 . S
C1 O25 1.244 1_565 S
C2 O24 1.264 1_545 S
C2 O26 1.273 . S
Mg3 O5 1.936 1_565 S
Mg3 O12 2.081 . S
Mg3 O14 2.023 . S
Mg3 O18 2.031 . S
Mg3 O27 2.291 . S
Mg4 O5 1.963 . S
Mg4 O15 1.942 . S
Mg4 O16 1.955 . S
Mg4 O23 1.986 . S
O5 Mg3 1.936 1_545 S
O5 Mg4 1.963 . S
O5 Mg6 1.915 . S
Mg6 O5 1.915 . S
Mg6 O7 1.915 1_455 S
Mg6 O11 2.013 . S
Mg6 O17 2.114 1_445 S
Mg6 O21 2.013 1_455 S
Mg6 O27 2.114 1_545 S
O7 Mg6 1.915 1_655 S
O7 Mg8 1.936 1_545 S
O7 Mg9 1.963 . S
Mg8 O7 1.936 1_565 S
Mg8 O17 2.291 . S
Mg8 O22 2.081 . S
Mg8 O24 2.023 . S
Mg8 O28 2.031 . S
Mg9 O7 1.963 . S
Mg9 O13 1.986 . S
Mg9 O25 1.942 . S
Mg9 O26 1.955 . S
C10 O21 1.191 1_455 S
C10 O23 1.307 . S
O11 Mg6 2.013 . S
O11 C30 1.191 1_455 S
O12 Mg3 2.081 . S
O12 C20 1.331 . S
O13 Mg9 1.986 . S
O13 C30 1.307 . S
O14 Mg3 2.023 . S
O14 C29 1.264 1_565 S
O15 Mg4 1.942 . S
O15 C20 1.244 1_545 S
O16 Mg4 1.955 . S
O16 C29 1.273 . S
O17 Mg6 2.114 1_665 S
O17 Mg8 2.291 . S
O17 C19 1.312 1_655 S
O18 Mg3 2.031 . S
O18 C19 1.208 . S
C19 O17 1.312 1_455 S
C19 O18 1.208 . S
C20 O12 1.331 . S
C20 O15 1.244 1_565 S
O21 Mg6 2.013 1_655 S
O21 C10 1.191 1_655 S
O22 C1 1.331 . S
O22 Mg8 2.081 . S
O23 Mg4 1.986 . S
O23 C10 1.307 . S
O24 C2 1.264 1_565 S
O24 Mg8 2.023 . S
O25 C1 1.244 1_545 S
O25 Mg9 1.942 . S
O26 C2 1.273 . S
O26 Mg9 1.955 . S
O27 C0 1.312 1_455 S
O27 Mg3 2.291 . S
O27 Mg6 2.114 1_565 S
O28 C0 1.208 . S
O28 Mg8 2.031 . S
C29 O14 1.264 1_545 S
C29 O16 1.273 . S
C30 O11 1.191 1_655 S
C30 O13 1.307 . S
C31 O58 1.312 1_545 S
C31 O59 1.208 . S
C32 O53 1.331 . S
C32 O56 1.244 1_556 S
C33 O55 1.264 1_554 S
C33 O57 1.273 . S
Mg34 O36 1.936 1_556 S
Mg34 O43 2.081 . S
Mg34 O45 2.023 . S
Mg34 O49 2.031 . S
Mg34 O58 2.291 . S
Mg35 O36 1.963 . S
Mg35 O46 1.942 . S
Mg35 O47 1.955 . S
Mg35 O54 1.986 . S
O36 Mg34 1.936 1_554 S
O36 Mg35 1.963 . S
O36 Mg37 1.915 1_565 S
Mg37 O36 1.915 1_545 S
Mg37 O38 1.915 . S
Mg37 O42 2.013 1_545 S
Mg37 O48 2.114 1_554 S
Mg37 O52 2.013 . S
Mg37 O58 2.114 1_544 S
O38 Mg37 1.915 . S
O38 Mg39 1.936 1_554 S
O38 Mg40 1.963 . S
Mg39 O38 1.936 1_556 S
Mg39 O48 2.291 . S
Mg39 O53 2.081 . S
Mg39 O55 2.023 . S
Mg39 O59 2.031 . S
Mg40 O38 1.963 . S
Mg40 O44 1.986 . S
Mg40 O56 1.942 . S
Mg40 O57 1.955 . S
C41 O52 1.191 1_565 S
C41 O54 1.307 . S
O42 Mg37 2.013 1_565 S
O42 C61 1.191 1_565 S
O43 Mg34 2.081 . S
O43 C51 1.331 . S
O44 Mg40 1.986 . S
O44 C61 1.307 . S
O45 Mg34 2.023 . S
O45 C60 1.264 1_556 S
O46 Mg35 1.942 . S
O46 C51 1.244 1_554 S
O47 Mg35 1.955 . S
O47 C60 1.273 . S
O48 Mg37 2.114 1_556 S
O48 Mg39 2.291 . S
O48 C50 1.312 1_545 S
O49 Mg34 2.031 . S
O49 C50 1.208 . S
C50 O48 1.312 1_565 S
C50 O49 1.208 . S
C51 O43 1.331 . S
C51 O46 1.244 1_556 S
O52 Mg37 2.013 . S
O52 C41 1.191 1_545 S
O53 C32 1.331 . S
O53 Mg39 2.081 . S
O54 Mg35 1.986 . S
O54 C41 1.307 . S
O55 C33 1.264 1_556 S
O55 Mg39 2.023 . S
O56 C32 1.244 1_554 S
O56 Mg40 1.942 . S
O57 C33 1.273 . S
O57 Mg40 1.955 . S
O58 C31 1.312 1_565 S
O58 Mg34 2.291 . S
O58 Mg37 2.114 1_566 S
O59 C31 1.208 . S
O59 Mg39 2.031 . S
C60 O45 1.264 1_554 S
C60 O47 1.273 . S
C61 O42 1.191 1_545 S
C61 O44 1.307 . S
C62 O89 1.312 1_556 S
C62 O90 1.208 . S
C63 O84 1.331 . S
C63 O87 1.244 1_655 S
C64 O86 1.264 1_455 S
C64 O88 1.273 . S
Mg65 O67 1.936 1_655 S
Mg65 O74 2.081 . S
Mg65 O76 2.023 . S
Mg65 O80 2.031 . S
Mg65 O89 2.291 . S
Mg66 O67 1.963 . S
Mg66 O77 1.942 . S
Mg66 O78 1.955 . S
Mg66 O85 1.986 . S
O67 Mg65 1.936 1_455 S
O67 Mg66 1.963 . S
O67 Mg68 1.915 . S
Mg68 O67 1.915 . S
Mg68 O69 1.915 1_554 S
Mg68 O73 2.013 . S
Mg68 O79 2.114 1_454 S
Mg68 O83 2.013 1_554 S
Mg68 O89 2.114 1_455 S
O69 Mg68 1.915 1_556 S
O69 Mg70 1.936 1_455 S
O69 Mg71 1.963 . S
Mg70 O69 1.936 1_655 S
Mg70 O79 2.291 . S
Mg70 O84 2.081 . S
Mg70 O86 2.023 . S
Mg70 O90 2.031 . S
Mg71 O69 1.963 . S
Mg71 O75 1.986 . S
Mg71 O87 1.942 . S
Mg71 O88 1.955 . S
C72 O83 1.191 1_554 S
C72 O85 1.307 . S
O73 Mg68 2.013 . S
O73 C92 1.191 1_554 S
O74 Mg65 2.081 . S
O74 C82 1.331 . S
O75 Mg71 1.986 . S
O75 C92 1.307 . S
O76 Mg65 2.023 . S
O76 C91 1.264 1_655 S
O77 Mg66 1.942 . S
O77 C82 1.244 1_455 S
O78 Mg66 1.955 . S
O78 C91 1.273 . S
O79 Mg68 2.114 1_656 S
O79 Mg70 2.291 . S
O79 C81 1.312 1_556 S
O80 Mg65 2.031 . S
O80 C81 1.208 . S
C81 O79 1.312 1_554 S
C81 O80 1.208 . S
C82 O74 1.331 . S
C82 O77 1.244 1_655 S
O83 Mg68 2.013 1_556 S
O83 C72 1.191 1_556 S
O84 C63 1.331 . S
O84 Mg70 2.081 . S
O85 Mg66 1.986 . S
O85 C72 1.307 . S
O86 C64 1.264 1_655 S
O86 Mg70 2.023 . S
O87 C63 1.244 1_455 S
O87 Mg71 1.942 . S
O88 C64 1.273 . S
O88 Mg71 1.955 . S
O89 C62 1.312 1_554 S
O89 Mg65 2.291 . S
O89 Mg68 2.114 1_655 S
O90 C62 1.208 . S
O90 Mg70 2.031 . S
C91 O76 1.264 1_455 S
C91 O78 1.273 . S
C92 O73 1.191 1_556 S
C92 O75 1.307 . S
C93 C94 1.171 . S
C93 C95 1.380 1_655 S
C94 C93 1.171 . S
C95 C93 1.380 1_455 S
C95 C96 1.170 . S
C96 C95 1.170 . S
C97 C98 1.170 . S
C97 C99 1.380 . S
C98 C97 1.170 . S
C99 C97 1.380 . S
C99 C100 1.170 . S
C100 C99 1.170 . S
C101 C102 1.170 . S
C101 C103 1.380 . S
C102 C101 1.170 . S
C103 C101 1.380 . S
C103 C104 1.170 . S
C104 C103 1.170 . S
C105 C106 1.170 . S
C105 C107 1.380 1_545 S
C106 C105 1.170 . S
C107 C105 1.380 1_565 S
C107 C108 1.170 . S
C108 C107 1.170 . S
C109 C110 1.169 1_655 S
C109 C111 1.380 . S
C110 C109 1.169 1_455 S
C111 C109 1.380 . S
C111 C112 1.170 . S
C112 C111 1.170 . S
C113 C114 1.170 . S
C113 C115 1.380 . S
C114 C113 1.170 . S
C115 C113 1.380 . S
C115 C116 1.170 . S
C116 C115 1.170 . S
C117 C118 1.170 . S
C117 C119 1.380 . S
C118 C117 1.170 . S
C119 C117 1.380 . S
C119 C120 1.170 . S
C120 C119 1.170 . S
C121 C122 1.170 . S
C121 C123 1.380 1_545 S
C122 C121 1.170 . S
C123 C121 1.380 1_565 S
C123 C124 1.170 . S
C124 C123 1.170 . S
C125 C126 1.170 1_556 S
C125 C127 1.380 . S
C126 C125 1.170 1_554 S
C127 C125 1.380 . S
C127 C128 1.170 . S
C128 C127 1.170 . S
C129 C130 1.170 . S
C129 C131 1.380 . S
C130 C129 1.170 . S
C131 C129 1.380 . S
C131 C132 1.170 . S
C132 C131 1.170 . S
C133 C134 1.170 . S
C133 C135 1.382 . S
C134 C133 1.170 . S
C135 C133 1.382 . S
C135 C136 1.169 1_554 S
C136 C135 1.169 1_556 S
C137 C138 1.170 . S
C137 C139 1.380 . S
C138 C137 1.170 . S
C139 C137 1.380 . S
C139 C140 1.170 . S
C140 C139 1.170 . S
C94 C82 1.370 . S
C96 C10 1.331 . S
C98 C2 1.421 . S
C100 C41 1.343 1_545 S
C102 C19 1.354 . S
C104 C91 1.488 . S
C106 C61 1.315 . S
C108 C20 1.377 . S
C110 C0 1.276 1_455 S
C112 C63 1.412 . S
C114 C31 1.376 . S
C116 C29 1.487 . S
C118 C64 1.421 . S
C120 C30 1.383 1_455 S
C122 C50 1.316 1_545 S
C124 C1 1.399 . S
C126 C72 1.314 . S
C128 C32 1.385 . S
C130 C92 1.381 1_554 S
C132 C60 1.417 . S
C134 C33 1.478 . S
C136 C81 1.410 1_556 S
C138 C62 1.288 . S
C140 C51 1.409 . S
