# Generated by pormake.
# Topology rob, (6)-cn, num edge types: 1
# Building blocks:
#     Node 0, Type 0, BuildingBlock: JUFBIX_clean_sbu_0, # of connection points: 6
#     Node 1, Type 0, BuildingBlock: JUFBIX_clean_sbu_0, # of connection points: 6
#     Node 2, Type 0, BuildingBlock: JUFBIX_clean_sbu_0, # of connection points: 6
#     Node 3, Type 0, BuildingBlock: JUFBIX_clean_sbu_0, # of connection points: 6
#     Edge 4, Type (0, 0), BuildingBlock: AJUNOK_clean_linker_0, # of connection points: 2
#     Edge 5, Type (0, 0), BuildingBlock: AJUNOK_clean_linker_0, # of connection points: 2
#     Edge 6, Type (0, 0), BuildingBlock: AJUNOK_clean_linker_0, # of connection points: 2
#     Edge 7, Type (0, 0), BuildingBlock: AJUNOK_clean_linker_0, # of connection points: 2
#     Edge 8, Type (0, 0), BuildingBlock: AJUNOK_clean_linker_0, # of connection points: 2
#     Edge 9, Type (0, 0), BuildingBlock: AJUNOK_clean_linker_0, # of connection points: 2
#     Edge 10, Type (0, 0), BuildingBlock: AJUNOK_clean_linker_0, # of connection points: 2
#     Edge 11, Type (0, 0), BuildingBlock: AJUNOK_clean_linker_0, # of connection points: 2
#     Edge 12, Type (0, 0), BuildingBlock: AJUNOK_clean_linker_0, # of connection points: 2
#     Edge 13, Type (0, 0), BuildingBlock: AJUNOK_clean_linker_0, # of connection points: 2
#     Edge 14, Type (0, 0), BuildingBlock: AJUNOK_clean_linker_0, # of connection points: 2
#     Edge 15, Type (0, 0), BuildingBlock: AJUNOK_clean_linker_0, # of connection points: 2
# Relax obj value: 0.369
# Max RMSD: 0.272
# Mean RMSD: 0.272
data_MOF--net-rob--node1-JUFBIX_clean_sbu_0--edge1-AJUNOK_clean_linker_0
_symmetry_space_group_name_H-M    P1
_symmetry_Int_Tables_number       1
_symmetry_cell_setting            triclinic
loop_
_symmetry_equiv_pos_as_xyz
'x, y, z'
_cell_length_a     13.289864
_cell_length_b     17.220364
_cell_length_c     21.402869
_cell_angle_alpha  93.920881
_cell_angle_beta   89.806594
_cell_angle_gamma 89.920651
loop_
_atom_site_label
_atom_site_type_symbol
_atom_site_fract_x
_atom_site_fract_y
_atom_site_fract_z
_atom_type_partial_charge
Co0 Co 0.20594 0.29795 0.99035 0.0
C1 C 0.14847 0.14831 1.01243 0.0
Co2 Co 0.32119 0.23351 0.04144 0.0
C3 C 0.08724 0.3319 0.88229 0.0
C4 C 0.05409 0.41229 0.96023 0.0
N5 N 0.11262 0.35023 0.94267 0.0
N6 N 0.01616 0.37973 0.86172 0.0
C7 C 0.99386 0.43001 0.91065 0.0
H8 H 0.11811 0.28304 0.85397 0.0
H9 H 0.05427 0.44251 1.00622 0.0
C10 C 0.37986 0.38247 0.01811 0.0
N11 N 0.41306 0.18089 0.08867 0.0
C12 C 0.44487 0.20347 0.1469 0.0
C13 C 0.45812 0.11133 0.07512 0.0
N14 N 0.50658 0.1508 0.17041 0.0
C15 C 0.51649 0.09291 0.12534 0.0
C16 C 0.34688 0.21218 0.91512 0.0
O17 O 0.29356 0.38552 0.99266 0.0
O18 O 0.40648 0.32097 0.04333 0.0
O19 O 0.38455 0.19422 0.96651 0.0
O20 O 0.27037 0.25647 0.91529 0.0
O21 O 0.23431 0.1463 0.0384 0.0
H22 H 0.44768 0.07555 0.03208 0.0
H23 H 0.42295 0.25757 0.17201 0.0
O24 O 0.12012 0.21023 0.98849 0.0
O25 O 0.14348 0.33769 0.06685 0.0
O26 O 0.25753 0.27371 0.11628 0.0
C27 C 0.18149 0.31841 0.11803 0.0
H28 H 0.93833 0.47608 0.91042 0.0
H29 H 0.56024 0.04037 0.12922 0.0
Co30 Co 0.70365 0.7984 0.98862 0.0
C31 C 0.64836 0.6484 0.01508 0.0
Co32 Co 0.82071 0.73428 0.03745 0.0
C33 C 0.56371 0.81686 0.89096 0.0
C34 C 0.58184 0.92475 0.94525 0.0
N35 N 0.60877 0.84895 0.94271 0.0
N36 N 0.5107 0.86913 0.86048 0.0
C37 C 0.52187 0.93748 0.89424 0.0
H38 H 0.57495 0.75692 0.87375 0.0
H39 H 0.60812 0.96853 0.98004 0.0
C40 C 0.87821 0.88297 1.01058 0.0
N41 N 0.9197 0.68483 0.08158 0.0
C42 C 0.91926 0.66988 0.1427 0.0
C43 C 0.0159 0.67333 0.06294 0.0
N44 N 0.01186 0.65214 0.16363 0.0
C45 C 0.07254 0.65372 0.11307 0.0
C46 C 0.83647 0.71051 0.90961 0.0
O47 O 0.79033 0.88669 0.98765 0.0
O48 O 0.90531 0.82133 0.03501 0.0
O49 O 0.87678 0.69227 0.96023 0.0
O50 O 0.76199 0.75672 0.91202 0.0
O51 O 0.73545 0.64691 0.03944 0.0
H52 H 0.04524 0.68586 0.01753 0.0
H53 H 0.85368 0.67772 0.17253 0.0
O54 O 0.61889 0.70956 0.99032 0.0
O55 O 0.64479 0.83872 0.06526 0.0
O56 O 0.76249 0.77743 0.11425 0.0
C57 C 0.68453 0.82047 0.11623 0.0
H58 H 0.49112 0.99271 0.88206 0.0
H59 H 0.15376 0.64959 0.11337 0.0
Co60 Co 0.19499 0.7232 0.53689 0.0
C61 C 0.14335 0.87635 0.52036 0.0
Co62 Co 0.31299 0.78845 0.48904 0.0
C63 C 0.07102 0.69331 0.64235 0.0
C64 C 0.05494 0.60252 0.56978 0.0
N65 N 0.10203 0.67097 0.58376 0.0
N66 N 1.00701 0.64195 0.66549 0.0
C67 C 0.99574 0.58468 0.62006 0.0
H68 H 0.09496 0.74646 0.66794 0.0
H69 H 0.06437 0.56731 0.52635 0.0
C70 C 0.3657 0.63626 0.50572 0.0
N71 N 0.40692 0.84043 0.44205 0.0
C72 C 0.4374 0.81883 0.38309 0.0
C73 C 0.45569 0.90798 0.45674 0.0
N74 N 0.50209 0.87013 0.36029 0.0
C75 C 0.51501 0.92609 0.40658 0.0
C76 C 0.33862 0.80002 0.61568 0.0
O77 O 0.27811 0.63321 0.52962 0.0
O78 O 0.39641 0.69963 0.48529 0.0
O79 O 0.37627 0.82507 0.56614 0.0
O80 O 0.26198 0.75636 0.6113 0.0
O81 O 0.22874 0.87711 0.49346 0.0
H82 H 0.44747 0.94252 0.50062 0.0
H83 H 0.41279 0.7662 0.35705 0.0
O84 O 0.11333 0.81422 0.54346 0.0
O85 O 0.12867 0.69005 0.46205 0.0
O86 O 0.24798 0.7503 0.41321 0.0
C87 C 0.16907 0.70861 0.41149 0.0
H88 H 0.95011 0.53311 0.62358 0.0
H89 H 0.56185 0.97714 0.40371 0.0
Co90 Co 0.70249 0.22856 0.54125 0.0
C91 C 0.64302 0.3763 0.51182 0.0
Co92 Co 0.8184 0.29326 0.49081 0.0
C93 C 0.60256 0.16658 0.64765 0.0
C94 C 0.50761 0.16678 0.56734 0.0
N95 N 0.60332 0.17943 0.58608 0.0
N96 N 0.50972 0.14904 0.66863 0.0
C97 C 0.45015 0.14855 0.61771 0.0
H98 H 0.66737 0.17578 0.67765 0.0
H99 H 0.47887 0.1777 0.5216 0.0
C100 C 0.87714 0.1447 0.51978 0.0
N101 N 0.91551 0.3443 0.44476 0.0
C102 C 0.93793 0.32965 0.3834 0.0
C103 C 0.97824 0.40291 0.46398 0.0
N104 N 0.01056 0.37667 0.36373 0.0
C105 C 0.03763 0.42232 0.41432 0.0
C106 C 0.83553 0.3172 0.61919 0.0
O107 O 0.7899 0.14182 0.54437 0.0
O108 O 0.90356 0.20527 0.49301 0.0
O109 O 0.87533 0.33437 0.56786 0.0
O110 O 0.7587 0.27325 0.61762 0.0
O111 O 0.73136 0.38082 0.48924 0.0
H112 H 0.98116 0.42994 0.51103 0.0
H113 H 0.90373 0.28404 0.3534 0.0
O114 O 0.61672 0.31511 0.53733 0.0
O115 O 0.64739 0.18541 0.46453 0.0
O116 O 0.75967 0.25082 0.4148 0.0
C117 C 0.68497 0.20503 0.4134 0.0
H118 H 0.36899 0.144 0.61771 0.0
H119 H 0.09559 0.46652 0.41513 0.0
C120 C 0.47716 0.5884 1.00818 0.0
C121 C 0.5817 0.57973 0.01556 0.0
C122 C 0.41232 0.52434 1.00905 0.0
C123 C 0.44964 0.44926 0.01734 0.0
H124 H 0.44487 0.64524 1.00232 0.0
H125 H 0.33229 0.53392 1.0038 0.0
S126 S 0.71836 0.39411 0.03196 0.0
N127 N 0.7202 0.48934 0.02717 0.0
N128 N 0.59856 0.36908 0.02879 0.0
C129 C 0.55424 0.43955 0.02355 0.0
C130 C 0.6202 0.50473 0.02266 0.0
C131 C 0.53827 0.57913 0.49847 0.0
C132 C 0.43375 0.56825 0.50444 0.0
C133 C 0.60542 0.51663 0.50022 0.0
C134 C 0.57057 0.44094 0.50809 0.0
H135 H 0.56891 0.63669 0.49364 0.0
H136 H 0.6853 0.52805 0.49657 0.0
S137 S 0.30325 0.37979 0.51842 0.0
N138 N 0.29803 0.47499 0.51364 0.0
N139 N 0.42408 0.35735 0.51682 0.0
C140 C 0.46597 0.42875 0.5122 0.0
C141 C 0.3976 0.49244 0.51041 0.0
C142 C 0.97815 0.08791 0.99884 0.0
C143 C 0.0817 0.07952 1.01047 0.0
C144 C 0.91289 0.02398 0.99828 0.0
C145 C 0.94877 0.94929 1.00929 0.0
H146 H 0.9468 0.14452 0.99102 0.0
H147 H 0.83356 0.0335 0.99008 0.0
S148 S 0.21526 0.89483 0.03564 0.0
N149 N 0.21814 0.98969 0.02902 0.0
N150 N 0.09596 0.86968 0.0279 0.0
C151 C 0.05266 0.93975 0.01937 0.0
C152 C 0.11898 1.00481 0.01999 0.0
C153 C 0.91031 1.00409 0.53442 0.0
C154 C 0.94725 0.07801 0.52198 0.0
C155 C 0.97453 0.93952 0.53486 0.0
C156 C 0.07821 0.94636 0.52289 0.0
H157 H 0.83078 0.99557 0.54284 0.0
H158 H 0.94214 0.88353 0.54347 0.0
S159 S 0.21465 0.12887 0.49463 0.0
N160 N 0.09561 0.1555 0.502 0.0
N161 N 0.21618 0.03429 0.50288 0.0
C162 C 0.11673 0.02045 0.51224 0.0
C163 C 0.05131 0.08619 0.51175 0.0
C164 C 0.69756 0.16407 0.29931 0.0
C165 C 0.63752 0.18132 0.35282 0.0
C166 C 0.65399 0.15012 0.23991 0.0
C167 C 0.54941 0.15543 0.23204 0.0
H168 H 0.7788 0.16268 0.30329 0.0
H169 H 0.70234 0.13861 0.1995 0.0
S170 S 0.35932 0.19808 0.35669 0.0
N171 N 0.46798 0.20078 0.39403 0.0
N172 N 0.38679 0.17687 0.28215 0.0
C173 C 0.48861 0.17112 0.28515 0.0
C174 C 0.53252 0.18344 0.34569 0.0
C175 C 0.69539 0.8573 0.23136 0.0
C176 C 0.63617 0.8425 0.17738 0.0
C177 C 0.65095 0.86998 0.29091 0.0
C178 C 0.54611 0.86577 0.29861 0.0
H179 H 0.77672 0.8579 0.22763 0.0
H180 H 0.69884 0.87984 0.3315 0.0
S181 S 0.35758 0.83007 0.17287 0.0
N182 N 0.46681 0.82705 0.13568 0.0
N183 N 0.38414 0.8482 0.24776 0.0
C184 C 0.48611 0.85248 0.2451 0.0
C185 C 0.53092 0.84159 0.18441 0.0
C186 C 0.47516 0.90584 0.75278 0.0
C187 C 0.46258 0.8545 0.80069 0.0
C188 C 0.43665 0.88769 0.69234 0.0
C189 C 0.38293 0.8183 0.6784 0.0
H190 H 0.51721 0.95924 0.76168 0.0
H191 H 0.44816 0.92845 0.65661 0.0
S192 S 0.32963 0.66514 0.78823 0.0
N193 N 0.39206 0.73256 0.83053 0.0
N194 N 0.32054 0.69781 0.71777 0.0
C195 C 0.36939 0.76708 0.72636 0.0
C196 C 0.40889 0.78538 0.78729 0.0
C197 C 0.52708 0.20172 0.7787 0.0
C198 C 0.47607 0.15357 0.73312 0.0
C199 C 0.48706 0.21717 0.83892 0.0
C200 C 0.39429 0.18581 0.85545 0.0
H201 H 0.59571 0.23127 0.76715 0.0
H202 H 0.52645 0.25704 0.8717 0.0
S203 S 0.2381 0.04708 0.75846 0.0
N204 N 0.33372 0.06666 0.71263 0.0
N205 N 0.25703 0.09879 0.82526 0.0
C206 C 0.34497 0.13454 0.81219 0.0
C207 C 0.38632 0.11759 0.75115 0.0
C208 C 0.99202 0.70217 0.27423 0.0
C209 C 0.04406 0.65498 0.22818 0.0
C210 C 0.03079 0.71619 0.33472 0.0
C211 C 0.12346 0.68457 0.35099 0.0
H212 H 0.92351 0.73202 0.26289 0.0
H213 H 0.9905 0.75514 0.36799 0.0
S214 S 0.28218 0.5482 0.25244 0.0
N215 N 0.18687 0.56827 0.20684 0.0
N216 N 0.26196 0.59854 0.31981 0.0
C217 C 0.17391 0.63435 0.30712 0.0
C218 C 0.13354 0.6185 0.2459 0.0
C219 C 0.15747 0.36169 0.29369 0.0
C220 C 0.05376 0.37352 0.302 0.0
C221 C 0.19846 0.34648 0.23362 0.0
C222 C 0.13742 0.3443 0.1797 0.0
H223 H 0.20622 0.36045 0.33407 0.0
H224 H 0.2784 0.33476 0.22955 0.0
S225 S 0.86219 0.37955 0.17723 0.0
N226 N 0.89165 0.38713 0.25229 0.0
N227 N 0.96863 0.36081 0.13898 0.0
C228 C 0.0343 0.3606 0.18748 0.0
C229 C 0.99246 0.37449 0.24878 0.0
C230 C 0.82316 0.34248 0.73577 0.0
C231 C 0.88108 0.34316 0.68044 0.0
C232 C 0.86672 0.35839 0.79498 0.0
C233 C 0.96998 0.37394 0.80097 0.0
H234 H 0.7439 0.32799 0.73345 0.0
H235 H 0.82048 0.35522 0.83649 0.0
S236 S 0.15365 0.38876 0.67196 0.0
N237 N 0.04656 0.36642 0.63615 0.0
N238 N 0.12796 0.39399 0.7477 0.0
C239 C 0.02805 0.37751 0.74643 0.0
C240 C 0.98367 0.36287 0.68607 0.0
C241 C 0.02488 0.66361 0.77964 0.0
C242 C 0.96323 0.648 0.72706 0.0
C243 C 0.98338 0.67942 0.83949 0.0
C244 C 0.87858 0.68242 0.84825 0.0
H245 H 0.10569 0.66528 0.77396 0.0
H246 H 0.0335 0.69325 0.87849 0.0
S247 S 0.68487 0.64105 0.72606 0.0
N248 N 0.79303 0.63151 0.68793 0.0
N249 N 0.71409 0.66378 0.80004 0.0
C250 C 0.81616 0.66434 0.7963 0.0
C251 C 0.85872 0.64637 0.73571 0.0
loop_
_geom_bond_atom_site_label_1
_geom_bond_atom_site_label_2
_geom_bond_distance
_geom_bond_site_symmetry_2
_ccdc_geom_bond_type
Co0 N5 2.057 . S
Co0 O17 2.021 . S
Co0 O20 2.062 . S
Co0 O24 2.117 . S
Co0 O25 2.020 1_556 S
C1 O21 1.270 . S
C1 O24 1.247 1_554 S
Co2 N11 2.057 . S
Co2 O18 2.117 . S
Co2 O19 2.020 1_554 S
Co2 O21 2.021 . S
Co2 O26 2.062 . S
C3 N5 1.316 . S
C3 N6 1.347 1_455 S
C3 H8 0.931 . S
C4 N5 1.375 . S
C4 C7 1.350 1_455 S
C4 H9 0.930 1_455 S
N5 Co0 2.057 . S
N5 C3 1.316 . S
N5 C4 1.375 . S
N6 C3 1.347 1_655 S
N6 C7 1.373 . S
C7 C4 1.350 1_655 S
C7 N6 1.373 . S
C7 H28 0.931 . S
H8 C3 0.931 . S
H9 C4 0.930 1_655 S
C10 O17 1.267 . S
C10 O18 1.250 1_556 S
N11 Co2 2.057 . S
N11 C12 1.316 . S
N11 C13 1.375 . S
C12 N11 1.316 . S
C12 N14 1.347 . S
C12 H23 0.931 . S
C13 N11 1.375 . S
C13 C15 1.350 . S
C13 H22 0.930 . S
N14 C12 1.347 . S
N14 C15 1.373 . S
C15 C13 1.350 . S
C15 N14 1.373 . S
C15 H29 0.931 . S
C16 O19 1.256 . S
C16 O20 1.255 . S
O17 Co0 2.021 . S
O17 C10 1.267 . S
O18 Co2 2.117 . S
O18 C10 1.250 1_554 S
O19 Co2 2.020 1_556 S
O19 C16 1.256 . S
O20 Co0 2.062 . S
O20 C16 1.255 . S
O21 C1 1.270 . S
O21 Co2 2.021 . S
H22 C13 0.930 . S
H23 C12 0.931 . S
O24 Co0 2.117 . S
O24 C1 1.247 1_556 S
O25 Co0 2.020 1_554 S
O25 C27 1.256 . S
O26 Co2 2.062 . S
O26 C27 1.255 . S
C27 O25 1.256 . S
C27 O26 1.255 . S
H28 C7 0.931 . S
H29 C15 0.931 . S
Co30 N35 2.057 . S
Co30 O47 2.021 . S
Co30 O50 2.062 . S
Co30 O54 2.117 . S
Co30 O55 2.020 1_556 S
C31 O51 1.270 . S
C31 O54 1.247 1_554 S
Co32 N41 2.057 . S
Co32 O48 2.117 . S
Co32 O49 2.020 1_554 S
Co32 O51 2.021 . S
Co32 O56 2.062 . S
C33 N35 1.316 . S
C33 N36 1.347 . S
C33 H38 0.931 . S
C34 N35 1.375 . S
C34 C37 1.350 . S
C34 H39 0.930 . S
N35 Co30 2.057 . S
N35 C33 1.316 . S
N35 C34 1.375 . S
N36 C33 1.347 . S
N36 C37 1.373 . S
C37 C34 1.350 . S
C37 N36 1.373 . S
C37 H58 0.931 . S
H38 C33 0.931 . S
H39 C34 0.930 . S
C40 O47 1.267 . S
C40 O48 1.250 1_556 S
N41 Co32 2.057 . S
N41 C42 1.316 . S
N41 C43 1.375 . S
C42 N41 1.316 . S
C42 N44 1.347 1_655 S
C42 H53 0.931 . S
C43 N41 1.375 . S
C43 C45 1.350 1_655 S
C43 H52 0.930 1_655 S
N44 C42 1.347 1_455 S
N44 C45 1.373 . S
C45 C43 1.350 1_455 S
C45 N44 1.373 . S
C45 H59 0.931 . S
C46 O49 1.256 . S
C46 O50 1.255 . S
O47 Co30 2.021 . S
O47 C40 1.267 . S
O48 Co32 2.117 . S
O48 C40 1.250 1_554 S
O49 Co32 2.020 1_556 S
O49 C46 1.256 . S
O50 Co30 2.062 . S
O50 C46 1.255 . S
O51 C31 1.270 . S
O51 Co32 2.021 . S
H52 C43 0.930 1_455 S
H53 C42 0.931 . S
O54 Co30 2.117 . S
O54 C31 1.247 1_556 S
O55 Co30 2.020 1_554 S
O55 C57 1.256 . S
O56 Co32 2.062 . S
O56 C57 1.255 . S
C57 O55 1.256 . S
C57 O56 1.255 . S
H58 C37 0.931 . S
H59 C45 0.931 . S
Co60 N65 2.057 . S
Co60 O77 2.021 . S
Co60 O80 2.062 . S
Co60 O84 2.117 . S
Co60 O85 2.020 . S
C61 O81 1.259 . S
C61 O84 1.258 . S
Co62 N71 2.057 . S
Co62 O78 2.117 . S
Co62 O79 2.020 . S
Co62 O81 2.021 . S
Co62 O86 2.062 . S
C63 N65 1.316 . S
C63 N66 1.347 1_455 S
C63 H68 0.931 . S
C64 N65 1.375 . S
C64 C67 1.350 1_455 S
C64 H69 0.930 1_455 S
N65 Co60 2.057 . S
N65 C63 1.316 . S
N65 C64 1.375 . S
N66 C63 1.347 1_655 S
N66 C67 1.373 . S
C67 C64 1.350 1_655 S
C67 N66 1.373 . S
C67 H88 0.931 . S
H68 C63 0.931 . S
H69 C64 0.930 1_655 S
C70 O77 1.259 . S
C70 O78 1.258 . S
N71 Co62 2.057 . S
N71 C72 1.316 . S
N71 C73 1.375 . S
C72 N71 1.316 . S
C72 N74 1.347 . S
C72 H83 0.931 . S
C73 N71 1.375 . S
C73 C75 1.350 . S
C73 H82 0.930 . S
N74 C72 1.347 . S
N74 C75 1.373 . S
C75 C73 1.350 . S
C75 N74 1.373 . S
C75 H89 0.931 . S
C76 O79 1.256 . S
C76 O80 1.255 . S
O77 Co60 2.021 . S
O77 C70 1.259 . S
O78 Co62 2.117 . S
O78 C70 1.258 . S
O79 Co62 2.020 . S
O79 C76 1.256 . S
O80 Co60 2.062 . S
O80 C76 1.255 . S
O81 C61 1.259 . S
O81 Co62 2.021 . S
H82 C73 0.930 . S
H83 C72 0.931 . S
O84 Co60 2.117 . S
O84 C61 1.258 . S
O85 Co60 2.020 . S
O85 C87 1.256 . S
O86 Co62 2.062 . S
O86 C87 1.255 . S
C87 O85 1.256 . S
C87 O86 1.255 . S
H88 C67 0.931 . S
H89 C75 0.931 . S
Co90 N95 2.057 . S
Co90 O107 2.021 . S
Co90 O110 2.062 . S
Co90 O114 2.117 . S
Co90 O115 2.020 . S
C91 O111 1.259 . S
C91 O114 1.258 . S
Co92 N101 2.057 . S
Co92 O108 2.117 . S
Co92 O109 2.020 . S
Co92 O111 2.021 . S
Co92 O116 2.062 . S
C93 N95 1.316 . S
C93 N96 1.347 . S
C93 H98 0.931 . S
C94 N95 1.375 . S
C94 C97 1.350 . S
C94 H99 0.930 . S
N95 Co90 2.057 . S
N95 C93 1.316 . S
N95 C94 1.375 . S
N96 C93 1.347 . S
N96 C97 1.373 . S
C97 C94 1.350 . S
C97 N96 1.373 . S
C97 H118 0.931 . S
H98 C93 0.931 . S
H99 C94 0.930 . S
C100 O107 1.259 . S
C100 O108 1.258 . S
N101 Co92 2.057 . S
N101 C102 1.316 . S
N101 C103 1.375 . S
C102 N101 1.316 . S
C102 N104 1.347 1_655 S
C102 H113 0.931 . S
C103 N101 1.375 . S
C103 C105 1.350 1_655 S
C103 H112 0.930 1_655 S
N104 C102 1.347 1_455 S
N104 C105 1.373 . S
C105 C103 1.350 1_455 S
C105 N104 1.373 . S
C105 H119 0.931 . S
C106 O109 1.256 . S
C106 O110 1.255 . S
O107 Co90 2.021 . S
O107 C100 1.259 . S
O108 Co92 2.117 . S
O108 C100 1.258 . S
O109 Co92 2.020 . S
O109 C106 1.256 . S
O110 Co90 2.062 . S
O110 C106 1.255 . S
O111 C91 1.259 . S
O111 Co92 2.021 . S
H112 C103 0.930 1_455 S
H113 C102 0.931 . S
O114 Co90 2.117 . S
O114 C91 1.258 . S
O115 Co90 2.020 . S
O115 C117 1.256 . S
O116 Co92 2.062 . S
O116 C117 1.255 . S
C117 O115 1.256 . S
C117 O116 1.255 . S
H118 C97 0.931 . S
H119 C105 0.931 . S
C120 C121 1.372 . S
C120 C122 1.419 . S
C120 H124 0.930 . S
C121 C120 1.372 . S
C121 C130 1.426 1_556 S
C122 C120 1.419 . S
C122 C123 1.360 1_556 S
C122 H125 0.929 . S
C123 C122 1.360 1_554 S
C123 C129 1.430 . S
H124 C120 0.930 . S
H125 C122 0.929 . S
S126 N127 1.613 . S
S126 N128 1.610 . S
N127 S126 1.613 . S
N127 C130 1.350 . S
N128 S126 1.610 . S
N128 C129 1.351 . S
C129 C123 1.430 . S
C129 N128 1.351 . S
C129 C130 1.434 . S
C130 C121 1.426 1_554 S
C130 N127 1.350 . S
C130 C129 1.434 . S
C131 C132 1.369 . S
C131 C133 1.419 . S
C131 H135 0.930 . S
C132 C131 1.369 . S
C132 C141 1.429 . S
C133 C131 1.419 . S
C133 C134 1.363 . S
C133 H136 0.929 . S
C134 C133 1.363 . S
C134 C140 1.428 . S
H135 C131 0.930 . S
H136 C133 0.929 . S
S137 N138 1.613 . S
S137 N139 1.610 . S
N138 S137 1.613 . S
N138 C141 1.350 . S
N139 S137 1.610 . S
N139 C140 1.351 . S
C140 C134 1.428 . S
C140 N139 1.351 . S
C140 C141 1.434 . S
C141 C132 1.429 . S
C141 N138 1.350 . S
C141 C140 1.434 . S
C142 C143 1.373 . S
C142 C144 1.419 1_455 S
C142 H146 0.930 . S
C143 C142 1.373 . S
C143 C152 1.425 1_546 S
C144 C142 1.419 1_655 S
C144 C145 1.357 1_546 S
C144 H147 0.929 . S
C145 C144 1.357 1_564 S
C145 C151 1.428 1_655 S
H146 C142 0.930 . S
H147 C144 0.929 . S
S148 N149 1.613 . S
S148 N150 1.610 . S
N149 S148 1.613 . S
N149 C152 1.350 . S
N150 S148 1.610 . S
N150 C151 1.352 . S
C151 C145 1.428 1_455 S
C151 N150 1.352 . S
C151 C152 1.439 . S
C152 C143 1.425 1_564 S
C152 N149 1.350 . S
C152 C151 1.439 . S
C153 C154 1.369 1_565 S
C153 C155 1.411 1_655 S
C153 H157 0.930 . S
C154 C153 1.369 1_545 S
C154 C163 1.429 1_655 S
C155 C153 1.411 1_455 S
C155 C156 1.371 . S
C155 H158 0.929 1_455 S
C156 C155 1.371 . S
C156 C162 1.428 1_565 S
H157 C153 0.930 . S
H158 C155 0.929 1_655 S
S159 N160 1.613 . S
S159 N161 1.610 . S
N160 S159 1.613 . S
N160 C163 1.350 . S
N161 S159 1.610 . S
N161 C162 1.351 . S
C162 C156 1.428 1_545 S
C162 N161 1.351 . S
C162 C163 1.434 . S
C163 C154 1.429 1_455 S
C163 N160 1.350 . S
C163 C162 1.434 . S
C164 C165 1.369 . S
C164 C166 1.419 . S
C164 H168 0.930 . S
C165 C164 1.369 . S
C165 C174 1.429 . S
C166 C164 1.419 . S
C166 C167 1.363 . S
C166 H169 0.929 . S
C167 C166 1.363 . S
C167 C173 1.428 . S
H168 C164 0.930 . S
H169 C166 0.929 . S
S170 N171 1.613 . S
S170 N172 1.610 . S
N171 S170 1.613 . S
N171 C174 1.350 . S
N172 S170 1.610 . S
N172 C173 1.351 . S
C173 C167 1.428 . S
C173 N172 1.351 . S
C173 C174 1.434 . S
C174 C165 1.429 . S
C174 N171 1.350 . S
C174 C173 1.434 . S
C175 C176 1.369 . S
C175 C177 1.419 . S
C175 H179 0.930 . S
C176 C175 1.369 . S
C176 C185 1.429 . S
C177 C175 1.419 . S
C177 C178 1.363 . S
C177 H180 0.929 . S
C178 C177 1.363 . S
C178 C184 1.428 . S
H179 C175 0.930 . S
H180 C177 0.929 . S
S181 N182 1.613 . S
S181 N183 1.610 . S
N182 S181 1.613 . S
N182 C185 1.350 . S
N183 S181 1.610 . S
N183 C184 1.351 . S
C184 C178 1.428 . S
C184 N183 1.351 . S
C184 C185 1.434 . S
C185 C176 1.429 . S
C185 N182 1.350 . S
C185 C184 1.434 . S
C186 C187 1.369 . S
C186 C188 1.419 . S
C186 H190 0.930 . S
C187 C186 1.369 . S
C187 C196 1.429 . S
C188 C186 1.419 . S
C188 C189 1.363 . S
C188 H191 0.929 . S
C189 C188 1.363 . S
C189 C195 1.428 . S
H190 C186 0.930 . S
H191 C188 0.929 . S
S192 N193 1.613 . S
S192 N194 1.610 . S
N193 S192 1.613 . S
N193 C196 1.350 . S
N194 S192 1.610 . S
N194 C195 1.351 . S
C195 C189 1.428 . S
C195 N194 1.351 . S
C195 C196 1.434 . S
C196 C187 1.429 . S
C196 N193 1.350 . S
C196 C195 1.434 . S
C197 C198 1.369 . S
C197 C199 1.419 . S
C197 H201 0.930 . S
C198 C197 1.369 . S
C198 C207 1.429 . S
C199 C197 1.419 . S
C199 C200 1.363 . S
C199 H202 0.929 . S
C200 C199 1.363 . S
C200 C206 1.428 . S
H201 C197 0.930 . S
H202 C199 0.929 . S
S203 N204 1.613 . S
S203 N205 1.610 . S
N204 S203 1.613 . S
N204 C207 1.350 . S
N205 S203 1.610 . S
N205 C206 1.351 . S
C206 C200 1.428 . S
C206 N205 1.351 . S
C206 C207 1.434 . S
C207 C198 1.429 . S
C207 N204 1.350 . S
C207 C206 1.434 . S
C208 C209 1.369 1_655 S
C208 C210 1.417 1_655 S
C208 H212 0.930 . S
C209 C208 1.369 1_455 S
C209 C218 1.429 . S
C210 C208 1.417 1_455 S
C210 C211 1.370 . S
C210 H213 0.924 1_455 S
C211 C210 1.370 . S
C211 C217 1.428 . S
H212 C208 0.930 . S
H213 C210 0.924 1_655 S
S214 N215 1.613 . S
S214 N216 1.610 . S
N215 S214 1.613 . S
N215 C218 1.350 . S
N216 S214 1.610 . S
N216 C217 1.351 . S
C217 C211 1.428 . S
C217 N216 1.351 . S
C217 C218 1.434 . S
C218 C209 1.429 . S
C218 N215 1.350 . S
C218 C217 1.434 . S
C219 C220 1.369 . S
C219 C221 1.419 . S
C219 H223 0.930 . S
C220 C219 1.369 . S
C220 C229 1.429 1_455 S
C221 C219 1.419 . S
C221 C222 1.363 . S
C221 H224 0.929 . S
C222 C221 1.363 . S
C222 C228 1.428 . S
H223 C219 0.930 . S
H224 C221 0.929 . S
S225 N226 1.613 . S
S225 N227 1.610 . S
N226 S225 1.613 . S
N226 C229 1.350 . S
N227 S225 1.610 . S
N227 C228 1.351 1_655 S
C228 C222 1.428 . S
C228 N227 1.351 1_455 S
C228 C229 1.434 1_455 S
C229 C220 1.429 1_655 S
C229 N226 1.350 . S
C229 C228 1.434 1_655 S
C230 C231 1.369 . S
C230 C232 1.419 . S
C230 H234 0.930 . S
C231 C230 1.369 . S
C231 C240 1.429 . S
C232 C230 1.419 . S
C232 C233 1.363 . S
C232 H235 0.929 . S
C233 C232 1.363 . S
C233 C239 1.428 1_655 S
H234 C230 0.930 . S
H235 C232 0.929 . S
S236 N237 1.613 . S
S236 N238 1.610 . S
N237 S236 1.613 . S
N237 C240 1.350 1_455 S
N238 S236 1.610 . S
N238 C239 1.351 . S
C239 C233 1.428 1_455 S
C239 N238 1.351 . S
C239 C240 1.434 1_455 S
C240 C231 1.429 . S
C240 N237 1.350 1_655 S
C240 C239 1.434 1_655 S
C241 C242 1.369 . S
C241 C243 1.419 . S
C241 H245 0.930 . S
C242 C241 1.369 . S
C242 C251 1.429 . S
C243 C241 1.419 . S
C243 C244 1.363 . S
C243 H246 0.929 . S
C244 C243 1.363 . S
C244 C250 1.428 . S
H245 C241 0.930 . S
H246 C243 0.929 . S
S247 N248 1.613 . S
S247 N249 1.610 . S
N248 S247 1.613 . S
N248 C251 1.350 . S
N249 S247 1.610 . S
N249 C250 1.351 . S
C250 C244 1.428 . S
C250 N249 1.351 . S
C250 C251 1.434 . S
C251 C242 1.429 . S
C251 N248 1.350 . S
C251 C250 1.434 . S
C121 C31 1.727 1_556 S
C123 C10 1.720 1_554 S
C132 C70 1.725 . S
C134 C91 1.720 . S
C143 C1 1.727 1_556 S
C145 C40 1.720 1_554 S
C154 C100 1.719 . S
C156 C61 1.724 . S
C165 C117 1.210 . S
C167 N14 1.163 . S
C176 C57 1.209 . S
C178 N74 1.165 . S
C187 N36 1.155 . S
C189 C76 1.208 . S
C198 N96 1.157 . S
C200 C16 1.205 . S
C209 N44 1.167 . S
C211 C87 1.203 . S
C220 N104 1.165 . S
C222 C27 1.208 . S
C231 C106 1.211 . S
C233 N6 1.165 . S
C242 N66 1.169 . S
C244 C46 1.209 . S
