# Generated by pormake.
# Topology hex, (8)-cn, num edge types: 1
# Building blocks:
#     Node 0, Type 0, BuildingBlock: XADDAJ01_clean_sbu_3, # of connection points: 8
#     Edge 1, Type (0, 0), BuildingBlock: FUNLAD_clean_linker_1, # of connection points: 2
#     Edge 2, Type (0, 0), BuildingBlock: FUNLAD_clean_linker_1, # of connection points: 2
#     Edge 3, Type (0, 0), BuildingBlock: FUNLAD_clean_linker_1, # of connection points: 2
#     Edge 4, Type (0, 0), BuildingBlock: FUNLAD_clean_linker_1, # of connection points: 2
# Relax obj value: 0.036
# Max RMSD: 0.098
# Mean RMSD: 0.098
data_MOF--net-hex--node1-XADDAJ01_clean_sbu_3--edge1-FUNLAD_clean_linker_1
_symmetry_space_group_name_H-M    P1
_symmetry_Int_Tables_number       1
_symmetry_cell_setting            triclinic
loop_
_symmetry_equiv_pos_as_xyz
'x, y, z'
_cell_length_a     22.476918
_cell_length_b     18.697207
_cell_length_c     15.445639
_cell_angle_alpha  114.40078
_cell_angle_beta   97.958108
_cell_angle_gamma 114.88544
loop_
_atom_site_label
_atom_site_type_symbol
_atom_site_fract_x
_atom_site_fract_y
_atom_site_fract_z
_atom_type_partial_charge
C0 C 0.80574 0.8643 0.95653 0.0
C1 C 0.78243 0.80009 0.9884 0.0
C2 C 0.72776 0.78803 0.02591 0.0
C3 C 0.697 0.84029 0.03255 0.0
C4 C 0.7184 0.90308 -0.00082 0.0
C5 C 0.77297 0.91474 0.96129 0.0
O6 O 0.03372 0.95321 0.10678 0.0
Tb7 Tb 0.9774 0.88724 0.9437 0.0
Tb8 Tb 0.08938 0.11552 0.05217 0.0
O9 O 0.96457 0.75734 0.9165 0.0
O10 O 0.04067 0.09069 0.1567 0.0
O11 O 0.86751 0.80386 0.86741 0.0
C12 C 0.20636 0.1274 0.08456 0.0
O13 O 0.92141 0.9551 0.96503 0.0
O14 O 1.03306 0.04955 0.88909 0.0
O15 O 1.0261 0.91207 0.83916 0.0
C16 C 0.86041 0.87533 0.9113 0.0
C17 C 0.04715 0.24735 0.04214 0.0
O18 O 0.98411 0.17094 0.99248 0.0
C19 C 0.0376 0.02745 0.17606 0.0
C20 C 1.02917 0.97531 0.8198 0.0
O21 O 0.10224 0.24543 0.07937 0.0
C22 C 0.26102 0.13842 0.03932 0.0
C23 C 0.34836 0.09962 0.99665 0.0
C24 C 0.29379 0.08797 0.03455 0.0
C25 C 0.28434 0.20263 0.00745 0.0
C26 C 0.33901 0.21469 0.96994 0.0
C27 C 0.36976 0.16242 0.9633 0.0
C28 C 1.01967 0.75543 0.95372 0.0
O29 O 0.0827 0.83186 0.00338 0.0
O30 O 0.19927 0.19888 0.12846 0.0
O31 O 0.14535 0.04763 0.03082 0.0
H32 H 0.80537 0.75833 0.98208 0.0
H33 H 0.65236 0.8259 0.05648 0.0
H34 H 0.78887 0.96159 0.93321 0.0
H35 H 0.27788 0.04111 0.06263 0.0
H36 H 0.2614 0.2444 0.01378 0.0
H37 H 0.41439 0.17679 0.93935 0.0
H38 H 0.11035 0.39554 0.09451 0.0
C39 C 0.05759 0.33347 0.05035 0.0
H40 H 0.95313 0.27343 0.95191 0.0
H41 H 0.06386 0.71892 0.17746 0.0
H42 H 0.05499 0.71065 0.3282 0.0
H43 H 1.02901 0.56934 0.32999 0.0
H44 H 1.01181 0.43546 0.18101 0.0
C45 C 1.0053 0.33586 0.00031 0.0
C46 C 1.01939 0.42058 -0.00058 0.0
C47 C 1.02925 0.49805 0.08718 0.0
C48 C 0.04371 0.57922 0.08586 0.0
C49 C 0.05296 0.65556 0.17434 0.0
C50 C 0.04789 0.65171 0.26136 0.0
C51 C 1.03329 0.57216 0.26237 0.0
C52 C 1.02385 0.49594 0.17647 0.0
H53 H 0.95648 0.60725 0.90137 0.0
C54 C 1.00924 0.66933 0.94552 0.0
H55 H 0.11371 0.72938 0.04395 0.0
H56 H 1.00301 0.28389 0.81842 0.0
H57 H 1.01187 0.29217 0.66767 0.0
H58 H 0.03785 0.43348 0.66589 0.0
H59 H 0.05504 0.56735 0.81487 0.0
C60 C 0.06154 0.66695 0.99555 0.0
C61 C 0.04747 0.58224 0.99646 0.0
C62 C 0.03761 0.50476 0.90869 0.0
C63 C 1.02315 0.42359 0.91001 0.0
C64 C 1.0139 0.34726 0.82154 0.0
C65 C 1.01897 0.35111 0.73452 0.0
C66 C 0.03357 0.43065 0.73351 0.0
C67 C 0.043 0.50687 0.8194 0.0
H68 H 0.67466 0.96176 0.92976 0.0
C69 C 0.67791 0.94712 0.99088 0.0
H70 H 0.64455 0.95066 0.11345 0.0
H71 H 0.53587 0.19002 0.99247 0.0
H72 H 0.66007 0.30349 0.04899 0.0
H73 H 0.75229 0.27368 0.09854 0.0
H74 H 0.7207 0.12935 0.09016 0.0
C75 C 0.6411 0.96287 0.05059 0.0
C76 C 0.58647 0.98338 0.02404 0.0
C77 C 0.60599 0.06863 0.03067 0.0
C78 C 0.55277 0.08631 0.00368 0.0
C79 C 0.5738 0.17231 0.01128 0.0
C80 C 0.64504 0.23848 0.04425 0.0
C81 C 0.69696 0.2216 0.07189 0.0
C82 C 0.67803 0.13808 0.06595 0.0
H83 H 0.39208 0.04093 0.06607 0.0
C84 C 0.38884 0.05557 0.00495 0.0
H85 H 0.42219 0.05202 0.88238 0.0
H86 H 0.53087 0.81266 0.00336 0.0
H87 H 0.40667 0.69919 0.94684 0.0
H88 H 0.31446 0.729 0.8973 0.0
H89 H 0.34604 0.87333 0.90568 0.0
C90 C 0.42564 0.03981 0.94523 0.0
C91 C 0.48027 0.0193 0.97178 0.0
C92 C 0.46076 0.93406 0.96515 0.0
C93 C 0.51397 0.91637 0.99215 0.0
C94 C 0.49294 0.83037 0.98454 0.0
C95 C 0.4217 0.76421 0.95158 0.0
C96 C 0.36978 0.78109 0.92394 0.0
C97 C 0.38871 0.86461 0.92988 0.0
H98 H 0.37402 0.26885 0.87245 0.0
C99 C 0.37195 0.28883 0.94831 0.0
H100 H 0.42109 0.39415 0.10427 0.0
H101 H 0.71724 0.58846 0.07464 0.0
H102 H 0.73884 0.52594 0.17684 0.0
H103 H 0.64082 0.42323 0.20415 0.0
H104 H 0.52088 0.38256 0.12981 0.0
C105 C 0.41768 0.37635 0.02648 0.0
C106 C 0.4767 0.44177 0.01304 0.0
C107 C 0.54685 0.46535 0.05786 0.0
C108 C 0.60351 0.52478 0.04244 0.0
C109 C 0.67259 0.54526 0.0858 0.0
C110 C 0.68566 0.50935 0.14407 0.0
C111 C 0.63048 0.45155 0.15945 0.0
C112 C 0.56178 0.42905 0.11654 0.0
H113 H 0.69276 0.73386 0.1234 0.0
C114 C 0.69482 0.71389 0.04754 0.0
H115 H 0.64568 0.60857 0.89158 0.0
H116 H 0.34954 0.41426 0.92122 0.0
H117 H 0.32793 0.47677 0.81901 0.0
H118 H 0.42595 0.57948 0.7917 0.0
H119 H 0.54589 0.62015 0.86604 0.0
C120 C 0.64909 0.62636 0.96937 0.0
C121 C 0.59008 0.56095 0.98282 0.0
C122 C 0.51993 0.53736 0.938 0.0
C123 C 0.46326 0.47794 0.95342 0.0
C124 C 0.39418 0.45745 0.91006 0.0
C125 C 0.38111 0.49336 0.85178 0.0
C126 C 0.43629 0.55117 0.83641 0.0
C127 C 0.50499 0.57366 0.87932 0.0
H128 H 1.02437 0.90003 0.6624 0.0
C129 C 1.02701 0.96165 0.71822 0.0
H130 H 0.03368 0.08676 0.74981 0.0
H131 H 0.1673 0.11235 0.4214 0.0
H132 H 0.27024 0.23127 0.57965 0.0
H133 H 0.26486 0.25132 0.74597 0.0
H134 H 0.15665 0.15243 0.7551 0.0
C135 C 1.02881 0.02343 0.69377 0.0
C136 C 1.03078 0.0118 0.59337 0.0
C137 C 0.0941 0.07142 0.58979 0.0
C138 C 0.09694 0.06055 0.49406 0.0
C139 C 0.16162 0.11893 0.49224 0.0
C140 C 0.22129 0.18716 0.58249 0.0
C141 C 0.2183 0.19843 0.67615 0.0
C142 C 0.15572 0.14127 0.68024 0.0
H143 H 0.0424 0.10273 0.33347 0.0
C144 C 0.03976 0.04111 0.27764 0.0
H145 H 1.03309 0.91601 0.24606 0.0
H146 H 0.89947 0.89042 0.57447 0.0
H147 H 0.79653 0.7715 0.41622 0.0
H148 H 0.80191 0.75145 0.2499 0.0
H149 H 0.91012 0.85034 0.24077 0.0
C150 C 0.03796 0.97934 0.3021 0.0
C151 C 0.03599 0.99097 0.4025 0.0
C152 C 0.97267 0.93134 0.40608 0.0
C153 C 0.96983 0.94222 0.50181 0.0
C154 C 0.90514 0.88384 0.50363 0.0
C155 C 0.84548 0.81561 0.41338 0.0
C156 C 0.84847 0.80434 0.31972 0.0
C157 C 0.91105 0.8615 0.31563 0.0
loop_
_geom_bond_atom_site_label_1
_geom_bond_atom_site_label_2
_geom_bond_distance
_geom_bond_site_symmetry_2
_ccdc_geom_bond_type
C0 C1 1.386 . S
C0 C5 1.384 . S
C0 C16 1.497 . S
C1 C0 1.386 . S
C1 C2 1.393 1_556 S
C1 H32 0.932 . S
C2 C1 1.393 1_554 S
C2 C3 1.387 . S
C3 C2 1.387 . S
C3 C4 1.392 1_554 S
C3 H33 0.930 . S
C4 C3 1.392 1_556 S
C4 C5 1.402 . S
C5 C0 1.384 . S
C5 C4 1.402 . S
C5 H34 0.930 . S
O6 Tb7 2.288 1_554 S
O6 C19 1.257 1_665 S
Tb7 O6 2.288 1_556 S
Tb7 O9 2.303 . S
Tb7 O11 2.430 . S
Tb7 O13 2.459 . S
Tb7 O15 2.301 . S
Tb7 C16 2.808 . S
Tb8 O10 2.301 . S
Tb8 C12 2.808 . S
Tb8 O14 2.288 1_554 S
Tb8 O21 2.303 . S
Tb8 O30 2.430 . S
Tb8 O31 2.459 . S
O9 Tb7 2.303 . S
O9 C28 1.255 1_655 S
O10 Tb8 2.301 . S
O10 C19 1.237 . S
O11 Tb7 2.430 . S
O11 C16 1.248 . S
C12 Tb8 2.808 . S
C12 C22 1.497 . S
C12 O30 1.248 . S
C12 O31 1.260 . S
O13 Tb7 2.459 . S
O13 C16 1.260 . S
O14 Tb8 2.288 1_556 S
O14 C20 1.257 1_445 S
O15 Tb7 2.301 . S
O15 C20 1.237 . S
C16 C0 1.497 . S
C16 Tb7 2.808 . S
C16 O11 1.248 . S
C16 O13 1.260 . S
C17 O18 1.255 . S
C17 O21 1.255 1_655 S
O18 C17 1.255 . S
C19 O6 1.257 1_445 S
C19 O10 1.237 . S
C20 O14 1.257 1_665 S
C20 O15 1.237 . S
O21 Tb8 2.303 . S
O21 C17 1.255 1_455 S
C22 C12 1.497 . S
C22 C24 1.384 . S
C22 C25 1.386 . S
C23 C24 1.402 . S
C23 C27 1.392 1_554 S
C24 C22 1.384 . S
C24 C23 1.402 . S
C24 H35 0.930 . S
C25 C22 1.386 . S
C25 C26 1.393 1_554 S
C25 H36 0.932 . S
C26 C25 1.393 1_556 S
C26 C27 1.387 . S
C27 C23 1.392 1_556 S
C27 C26 1.387 . S
C27 H37 0.930 . S
C28 O9 1.255 1_455 S
C28 O29 1.255 . S
O29 C28 1.255 . S
O30 Tb8 2.430 . S
O30 C12 1.248 . S
O31 Tb8 2.459 . S
O31 C12 1.260 . S
H32 C1 0.932 . S
H33 C3 0.930 . S
H34 C5 0.930 . S
H35 C24 0.930 . S
H36 C25 0.932 . S
H37 C27 0.930 . S
H38 C39 0.951 . S
C39 H38 0.951 . S
C39 C45 1.265 1_455 S
H40 C45 0.950 . S
H41 C49 0.949 . S
H42 C50 0.950 . S
H43 C51 0.951 . S
H44 C52 0.951 . S
C45 C39 1.265 1_655 S
C45 H40 0.950 . S
C45 C46 1.478 . S
C46 C45 1.478 . S
C46 C47 1.397 . S
C46 C63 1.394 1_554 S
C47 C46 1.397 . S
C47 C48 1.438 1_655 S
C47 C52 1.429 . S
C48 C47 1.438 1_455 S
C48 C49 1.428 . S
C48 C61 1.394 1_554 S
C49 H41 0.949 . S
C49 C48 1.428 . S
C49 C50 1.345 1_455 S
C50 H42 0.950 . S
C50 C49 1.345 1_655 S
C50 C51 1.424 . S
C51 H43 0.951 . S
C51 C50 1.424 . S
C51 C52 1.347 . S
C52 H44 0.951 . S
C52 C47 1.429 . S
C52 C51 1.347 . S
H53 C54 0.951 . S
C54 H53 0.951 . S
C54 C60 1.265 1_655 S
H55 C60 0.950 . S
H56 C64 0.949 . S
H57 C65 0.950 . S
H58 C66 0.951 . S
H59 C67 0.951 . S
C60 C54 1.265 1_455 S
C60 H55 0.950 . S
C60 C61 1.478 . S
C61 C48 1.394 1_556 S
C61 C60 1.478 . S
C61 C62 1.397 . S
C62 C61 1.397 . S
C62 C63 1.438 1_455 S
C62 C67 1.429 . S
C63 C46 1.394 1_556 S
C63 C62 1.438 1_655 S
C63 C64 1.428 . S
C64 H56 0.949 . S
C64 C63 1.428 . S
C64 C65 1.345 1_655 S
C65 H57 0.950 . S
C65 C64 1.345 1_455 S
C65 C66 1.424 . S
C66 H58 0.951 . S
C66 C65 1.424 . S
C66 C67 1.347 . S
C67 H59 0.951 . S
C67 C62 1.429 . S
C67 C66 1.347 . S
H68 C69 0.951 . S
C69 H68 0.951 . S
C69 C75 1.258 1_566 S
H70 C75 0.951 . S
H71 C79 0.949 . S
H72 C80 0.950 . S
H73 C81 0.951 . S
H74 C82 0.951 . S
C75 C69 1.258 1_544 S
C75 H70 0.951 . S
C75 C76 1.488 1_545 S
C76 C75 1.488 1_565 S
C76 C77 1.387 1_565 S
C76 C93 1.400 1_554 S
C77 C76 1.387 1_545 S
C77 C78 1.438 . S
C77 C82 1.429 . S
C78 C77 1.438 . S
C78 C79 1.428 . S
C78 C91 1.402 1_554 S
C79 H71 0.949 . S
C79 C78 1.428 . S
C79 C80 1.345 . S
C80 H72 0.950 . S
C80 C79 1.345 . S
C80 C81 1.424 . S
C81 H73 0.951 . S
C81 C80 1.424 . S
C81 C82 1.347 . S
C82 H74 0.951 . S
C82 C77 1.429 . S
C82 C81 1.347 . S
H83 C84 0.951 . S
C84 H83 0.951 . S
C84 C90 1.260 1_544 S
H85 C90 0.950 . S
H86 C94 0.949 . S
H87 C95 0.950 . S
H88 C96 0.951 . S
H89 C97 0.951 . S
C90 C84 1.260 1_566 S
C90 H85 0.950 . S
C90 C91 1.488 1_565 S
C91 C78 1.402 1_556 S
C91 C90 1.488 1_545 S
C91 C92 1.383 1_545 S
C92 C91 1.383 1_565 S
C92 C93 1.438 . S
C92 C97 1.429 . S
C93 C76 1.400 1_556 S
C93 C92 1.438 . S
C93 C94 1.428 . S
C94 H86 0.949 . S
C94 C93 1.428 . S
C94 C95 1.345 . S
C95 H87 0.950 . S
C95 C94 1.345 . S
C95 C96 1.424 . S
C96 H88 0.951 . S
C96 C95 1.424 . S
C96 C97 1.347 . S
C97 H89 0.951 . S
C97 C92 1.429 . S
C97 C96 1.347 . S
H98 C99 0.951 . S
C99 H98 0.951 . S
C99 C105 1.265 1_556 S
H100 C105 0.950 . S
H101 C109 0.949 . S
H102 C110 0.950 . S
H103 C111 0.951 . S
H104 C112 0.951 . S
C105 C99 1.265 1_554 S
C105 H100 0.950 . S
C105 C106 1.478 . S
C106 C105 1.478 . S
C106 C107 1.397 . S
C106 C123 1.394 1_554 S
C107 C106 1.397 . S
C107 C108 1.438 . S
C107 C112 1.429 . S
C108 C107 1.438 . S
C108 C109 1.428 . S
C108 C121 1.394 1_554 S
C109 H101 0.949 . S
C109 C108 1.428 . S
C109 C110 1.345 . S
C110 H102 0.950 . S
C110 C109 1.345 . S
C110 C111 1.424 . S
C111 H103 0.951 . S
C111 C110 1.424 . S
C111 C112 1.347 . S
C112 H104 0.951 . S
C112 C107 1.429 . S
C112 C111 1.347 . S
H113 C114 0.951 . S
C114 H113 0.951 . S
C114 C120 1.265 1_554 S
H115 C120 0.950 . S
H116 C124 0.949 . S
H117 C125 0.950 . S
H118 C126 0.951 . S
H119 C127 0.951 . S
C120 C114 1.265 1_556 S
C120 H115 0.950 . S
C120 C121 1.478 . S
C121 C108 1.394 1_556 S
C121 C120 1.478 . S
C121 C122 1.397 . S
C122 C121 1.397 . S
C122 C123 1.438 . S
C122 C127 1.429 . S
C123 C106 1.394 1_556 S
C123 C122 1.438 . S
C123 C124 1.428 . S
C124 H116 0.949 . S
C124 C123 1.428 . S
C124 C125 1.345 . S
C125 H117 0.950 . S
C125 C124 1.345 . S
C125 C126 1.424 . S
C126 H118 0.951 . S
C126 C125 1.424 . S
C126 C127 1.347 . S
C127 H119 0.951 . S
C127 C122 1.429 . S
C127 C126 1.347 . S
H128 C129 0.951 . S
C129 H128 0.951 . S
C129 C135 1.265 1_665 S
H130 C135 0.950 . S
H131 C139 0.949 . S
H132 C140 0.950 . S
H133 C141 0.951 . S
H134 C142 0.951 . S
C135 C129 1.265 1_445 S
C135 H130 0.950 . S
C135 C136 1.478 . S
C136 C135 1.478 . S
C136 C137 1.397 . S
C136 C153 1.394 1_445 S
C137 C136 1.397 . S
C137 C138 1.438 . S
C137 C142 1.429 . S
C138 C137 1.438 . S
C138 C139 1.428 . S
C138 C151 1.394 1_445 S
C139 H131 0.949 . S
C139 C138 1.428 . S
C139 C140 1.345 . S
C140 H132 0.950 . S
C140 C139 1.345 . S
C140 C141 1.424 . S
C141 H133 0.951 . S
C141 C140 1.424 . S
C141 C142 1.347 . S
C142 H134 0.951 . S
C142 C137 1.429 . S
C142 C141 1.347 . S
H143 C144 0.951 . S
C144 H143 0.951 . S
C144 C150 1.265 1_445 S
H145 C150 0.950 . S
H146 C154 0.949 . S
H147 C155 0.950 . S
H148 C156 0.951 . S
H149 C157 0.951 . S
C150 C144 1.265 1_665 S
C150 H145 0.950 . S
C150 C151 1.478 . S
C151 C138 1.394 1_665 S
C151 C150 1.478 . S
C151 C152 1.397 . S
C152 C151 1.397 . S
C152 C153 1.438 . S
C152 C157 1.429 . S
C153 C136 1.394 1_665 S
C153 C152 1.438 . S
C153 C154 1.428 . S
C154 H146 0.949 . S
C154 C153 1.428 . S
C154 C155 1.345 . S
C155 H147 0.950 . S
C155 C154 1.345 . S
C155 C156 1.424 . S
C156 H148 0.951 . S
C156 C155 1.424 . S
C156 C157 1.347 . S
C157 H149 0.951 . S
C157 C152 1.429 . S
C157 C156 1.347 . S
C39 C17 0.501 1_455 S
C54 C28 0.501 1_655 S
C69 C4 2.071 . S
C84 C23 2.071 . S
C99 C26 1.836 . S
C114 C2 1.836 . S
C129 C20 1.465 . S
C144 C19 1.465 . S
