# Generated by pormake.
# Topology wjg, (4)-cn, num edge types: 1
# Building blocks:
#     Node 0, Type 0, BuildingBlock: AZAVOO_clean_sbu_0, # of connection points: 4
#     Node 1, Type 0, BuildingBlock: AZAVOO_clean_sbu_0, # of connection points: 4
#     Node 2, Type 0, BuildingBlock: AZAVOO_clean_sbu_0, # of connection points: 4
#     Node 3, Type 0, BuildingBlock: AZAVOO_clean_sbu_0, # of connection points: 4
#     Node 4, Type 0, BuildingBlock: AZAVOO_clean_sbu_0, # of connection points: 4
#     Node 5, Type 0, BuildingBlock: AZAVOO_clean_sbu_0, # of connection points: 4
#     Node 6, Type 0, BuildingBlock: AZAVOO_clean_sbu_0, # of connection points: 4
#     Node 7, Type 0, BuildingBlock: AZAVOO_clean_sbu_0, # of connection points: 4
#     Node 8, Type 0, BuildingBlock: AZAVOO_clean_sbu_0, # of connection points: 4
#     Node 9, Type 0, BuildingBlock: AZAVOO_clean_sbu_0, # of connection points: 4
#     Node 10, Type 0, BuildingBlock: AZAVOO_clean_sbu_0, # of connection points: 4
#     Node 11, Type 0, BuildingBlock: AZAVOO_clean_sbu_0, # of connection points: 4
#     Edge 12, Type (0, 0), None
#     Edge 13, Type (0, 0), None
#     Edge 14, Type (0, 0), None
#     Edge 15, Type (0, 0), None
#     Edge 16, Type (0, 0), None
#     Edge 17, Type (0, 0), None
#     Edge 18, Type (0, 0), None
#     Edge 19, Type (0, 0), None
#     Edge 20, Type (0, 0), None
#     Edge 21, Type (0, 0), None
#     Edge 22, Type (0, 0), None
#     Edge 23, Type (0, 0), None
#     Edge 24, Type (0, 0), None
#     Edge 25, Type (0, 0), None
#     Edge 26, Type (0, 0), None
#     Edge 27, Type (0, 0), None
#     Edge 28, Type (0, 0), None
#     Edge 29, Type (0, 0), None
#     Edge 30, Type (0, 0), None
#     Edge 31, Type (0, 0), None
#     Edge 32, Type (0, 0), None
#     Edge 33, Type (0, 0), None
#     Edge 34, Type (0, 0), None
#     Edge 35, Type (0, 0), None
# Relax obj value: 0.224
# Max RMSD: 0.119
# Mean RMSD: 0.119
data_MOF--net-wjg--node1-AZAVOO_clean_sbu_0--edge1-none
_symmetry_space_group_name_H-M    P1
_symmetry_Int_Tables_number       1
_symmetry_cell_setting            triclinic
loop_
_symmetry_equiv_pos_as_xyz
'x, y, z'
_cell_length_a     15.771367
_cell_length_b     15.771308
_cell_length_c     18.97492
_cell_angle_alpha  90.005337
_cell_angle_beta   89.992174
_cell_angle_gamma 120.00214
loop_
_atom_site_label
_atom_site_type_symbol
_atom_site_fract_x
_atom_site_fract_y
_atom_site_fract_z
_atom_type_partial_charge
Mg0 Mg 0.14886 0.41531 0.29059 0.0
O1 O 0.27372 0.38261 0.27111 0.0
O2 O 0.39368 0.46412 0.3516 0.0
Mg3 Mg 0.37494 0.57398 0.42032 0.0
C4 C 0.35479 0.40305 0.30083 0.0
C5 C 0.03074 0.39066 0.15667 0.0
O6 O 0.04345 0.47026 0.1883 0.0
O7 O 0.23783 0.56768 0.23614 0.0
O8 O 0.26373 0.56549 0.34699 0.0
O9 O 0.10657 0.31116 0.38882 0.0
O10 O 0.21535 0.46801 0.39077 0.0
C11 C 0.28695 0.61345 0.2902 0.0
C12 C 0.1722 0.38632 0.42297 0.0
O13 O 0.06476 0.34119 0.18615 0.0
Mg14 Mg 0.74852 0.17307 0.61819 0.0
O15 O 0.89816 0.30873 0.60148 0.0
O16 O 0.93211 0.41999 0.68802 0.0
Mg17 Mg 0.79936 0.38244 0.75888 0.0
C18 C 0.95551 0.38903 0.63308 0.0
C19 C 0.70947 0.01931 0.49254 0.0
O20 O 0.66616 0.9535 0.54225 0.0
O21 O 0.67325 0.2533 0.56982 0.0
O22 O 0.70248 0.27727 0.68063 0.0
O23 O 0.82258 0.13272 0.7085 0.0
O24 O 0.75812 0.22751 0.72211 0.0
C25 C 0.67708 0.3014 0.62458 0.0
C26 C 0.80626 0.1897 0.74819 0.0
O27 O 0.75226 0.10992 0.50842 0.0
Mg28 Mg 0.59482 0.73548 -0.04278 0.0
O29 O 0.62761 0.89308 0.93776 0.0
O30 O 0.54617 0.93161 0.01827 0.0
Mg31 Mg 0.43629 0.80304 0.087 0.0
C32 C 0.60722 0.95374 -0.03251 0.0
C33 C 0.61944 0.64193 0.8233 0.0
O34 O 0.53981 0.57507 0.85492 0.0
O35 O 0.44245 0.67215 0.90279 0.0
O36 O 0.44467 0.70027 0.01363 0.0
O37 O 0.69901 0.79732 0.05542 0.0
O38 O 0.54218 0.74934 0.05741 0.0
C39 C 0.39671 0.67555 -0.04315 0.0
C40 C 0.62389 0.78784 0.08959 0.0
O41 O 0.66893 0.72544 0.85278 0.0
Mg42 Mg 0.8372 0.57735 0.28486 0.0
O43 O 0.70158 0.59139 0.26814 0.0
O44 O 0.59029 0.5141 0.35467 0.0
Mg45 Mg 0.62776 0.41887 0.42552 0.0
C46 C 0.62128 0.56847 0.29974 0.0
C47 C 0.99098 0.69228 0.15921 0.0
O48 O 0.05682 0.71511 0.20893 0.0
O49 O 0.75695 0.42185 0.23648 0.0
O50 O 0.73295 0.42713 0.34729 0.0
O51 O 0.87755 0.69175 0.37519 0.0
O52 O 0.78272 0.5325 0.38877 0.0
C53 C 0.70883 0.37758 0.29123 0.0
C54 C 0.82054 0.61844 0.41487 0.0
O55 O 0.90038 0.64421 0.17509 0.0
Mg56 Mg 0.27477 0.86144 0.62386 0.0
O57 O 0.11719 0.73656 0.60442 0.0
O58 O 0.07872 0.61665 0.68495 0.0
Mg59 Mg 0.20731 0.63542 0.75366 0.0
C60 C 0.05655 0.65551 0.63416 0.0
C61 C 0.36826 0.97953 0.48991 0.0
O62 O 0.43513 0.96681 0.52153 0.0
O63 O 0.33817 0.77245 0.56944 0.0
O64 O 0.31005 0.74658 0.68029 0.0
O65 O 0.21291 0.9038 0.72207 0.0
O66 O 0.26095 0.795 0.72407 0.0
C67 C 0.3348 0.72335 0.62351 0.0
C68 C 0.22243 0.83819 0.75624 0.0
O69 O 0.28475 0.94551 0.51941 0.0
Mg70 Mg 0.4331 0.262 0.9515 0.0
O71 O 0.41903 0.11233 0.93476 0.0
O72 O 0.49625 0.07829 0.02129 0.0
Mg73 Mg 0.59148 0.21099 0.09218 0.0
C74 C 0.44191 0.05493 -0.03365 0.0
C75 C 0.3183 0.30097 0.82587 0.0
O76 O 0.29553 0.34404 0.87561 0.0
O77 O 0.58863 0.33723 0.90315 0.0
O78 O 0.58329 0.30794 0.01396 0.0
O79 O 0.31864 0.18793 0.0418 0.0
O80 O 0.47788 0.25233 0.05542 0.0
C81 C 0.63286 0.33335 -0.0421 0.0
C82 C 0.39191 0.20419 0.08148 0.0
O83 O 0.36629 0.25837 0.84173 0.0
Mg84 Mg 0.57943 0.8351 0.29208 0.0
O85 O 0.59347 0.69948 0.30882 0.0
O86 O 0.51622 0.58816 0.2223 0.0
Mg87 Mg 0.42099 0.62562 0.15142 0.0
C88 C 0.57054 0.61916 0.27725 0.0
C89 C 0.6943 0.9889 0.41771 0.0
O90 O 0.71706 0.05474 0.36799 0.0
O91 O 0.42393 0.75484 0.34047 0.0
O92 O 0.42924 0.7308 0.22965 0.0
O93 O 0.69383 0.87545 0.20174 0.0
O94 O 0.53458 0.78059 0.18818 0.0
C95 C 0.37971 0.70668 0.28572 0.0
C96 C 0.62053 0.81842 0.16207 0.0
O97 O 0.64629 0.8983 0.40184 0.0
Mg98 Mg 0.73754 0.59274 0.61971 0.0
O99 O 0.89512 0.62549 0.6392 0.0
O100 O 0.93366 0.54406 0.55869 0.0
Mg101 Mg 0.8051 0.43419 0.48995 0.0
C102 C 0.95579 0.6051 0.60948 0.0
C103 C 0.64397 0.61739 0.75362 0.0
O104 O 0.5771 0.53779 0.72199 0.0
O105 O 0.67414 0.44037 0.67416 0.0
O106 O 0.70235 0.44261 0.56331 0.0
O107 O 0.79941 0.69693 0.52151 0.0
O108 O 0.75141 0.5401 0.51953 0.0
C109 C 0.67762 0.39466 0.6201 0.0
C110 C 0.78994 0.62181 0.48735 0.0
O111 O 0.72749 0.66686 0.72414 0.0
Mg112 Mg 0.17517 0.74652 -0.04126 0.0
O113 O 0.31084 0.89615 -0.02456 0.0
O114 O 0.42215 0.93013 0.88892 0.0
Mg115 Mg 0.38458 0.79738 0.81806 0.0
C116 C 0.39118 0.95349 0.94387 0.0
C117 C 0.02139 0.70744 0.08438 0.0
O118 O 0.95558 0.66406 0.03468 0.0
O119 O 0.25536 0.67123 0.00713 0.0
O120 O 0.27941 0.70054 0.89631 0.0
O121 O 0.13484 0.82057 0.86841 0.0
O122 O 0.22964 0.75611 0.85482 0.0
C123 C 0.30351 0.67513 0.95238 0.0
C124 C 0.19184 0.80425 0.82873 0.0
O125 O 0.11199 0.75027 0.06849 0.0
Mg126 Mg 0.41746 0.14675 0.28632 0.0
O127 O 0.38475 0.2716 0.30583 0.0
O128 O 0.46626 0.3916 0.22537 0.0
Mg129 Mg 0.57615 0.37292 0.15664 0.0
C130 C 0.40519 0.35268 0.27614 0.0
C131 C 0.39276 0.02854 0.42021 0.0
O132 O 0.47235 0.04124 0.38857 0.0
O133 O 0.56982 0.23569 0.3408 0.0
O134 O 0.56763 0.26168 0.22995 0.0
O135 O 0.31333 0.10452 0.18808 0.0
O136 O 0.47018 0.21331 0.18615 0.0
C137 C 0.61555 0.28487 0.28674 0.0
C138 C 0.38849 0.17017 0.15395 0.0
O139 O 0.3433 0.0626 0.39074 0.0
Mg140 Mg 0.26398 0.43088 0.62543 0.0
O141 O 0.11433 0.41686 0.64217 0.0
O142 O 0.08029 0.4941 0.55565 0.0
Mg143 Mg 0.21299 0.5893 0.48475 0.0
C144 C 0.05695 0.43979 0.61061 0.0
C145 C 0.30312 0.31622 0.75105 0.0
O146 O 0.34643 0.29373 0.70133 0.0
O147 O 0.33922 0.58639 0.6738 0.0
O148 O 0.30989 0.58106 0.56298 0.0
O149 O 0.18991 0.31643 0.53513 0.0
O150 O 0.25432 0.47568 0.52152 0.0
C151 C 0.33529 0.6306 0.61905 0.0
C152 C 0.20618 0.38972 0.49544 0.0
O153 O 0.26031 0.36401 0.73518 0.0
Mg154 Mg 0.86361 0.2727 0.95304 0.0
O155 O 0.73871 0.11514 -0.02748 0.0
O156 O 0.61876 0.07668 0.89202 0.0
Mg157 Mg 0.63753 0.20528 0.8233 0.0
C158 C 0.65763 0.05451 0.9428 0.0
C159 C 0.98175 0.36617 0.08696 0.0
O160 O 0.96908 0.43307 0.05533 0.0
O161 O 0.7747 0.33617 0.00749 0.0
O162 O 0.74875 0.30798 0.89664 0.0
O163 O 0.90587 0.21078 0.85481 0.0
O164 O 0.79712 0.25888 0.85285 0.0
C165 C 0.72555 0.33274 0.95344 0.0
C166 C 0.84026 0.22032 0.82066 0.0
O167 O 0.9477 0.28266 0.05747 0.0
loop_
_geom_bond_atom_site_label_1
_geom_bond_atom_site_label_2
_geom_bond_distance
_geom_bond_site_symmetry_2
_ccdc_geom_bond_type
Mg0 O1 2.028 . S
Mg0 O7 1.986 . S
Mg0 O9 2.114 . S
Mg0 O10 2.251 . S
Mg0 O13 2.010 . S
O1 Mg0 2.028 . S
O1 C4 1.250 . S
O2 Mg3 2.028 . S
O2 C4 1.248 . S
Mg3 O2 2.028 . S
Mg3 O8 2.032 . S
Mg3 O10 2.079 . S
C4 O1 1.250 . S
C4 O2 1.248 . S
C5 O6 1.264 . S
C5 O13 1.249 1_655 S
O6 C5 1.264 . S
O7 Mg0 1.986 . S
O7 C11 1.246 . S
O8 Mg3 2.032 . S
O8 C11 1.259 . S
O9 Mg0 2.114 . S
O9 C12 1.252 . S
O10 Mg0 2.251 . S
O10 Mg3 2.079 . S
O10 C12 1.273 . S
C11 O7 1.246 . S
C11 O8 1.259 . S
C12 O9 1.252 . S
C12 O10 1.273 . S
O13 Mg0 2.010 . S
O13 C5 1.249 1_455 S
Mg14 O15 2.028 . S
Mg14 O21 1.986 . S
Mg14 O23 2.114 . S
Mg14 O24 2.251 . S
Mg14 O27 2.010 . S
O15 Mg14 2.028 . S
O15 C18 1.250 . S
O16 Mg17 2.028 . S
O16 C18 1.248 . S
Mg17 O16 2.028 . S
Mg17 O22 2.032 . S
Mg17 O24 2.079 . S
C18 O15 1.250 . S
C18 O16 1.248 . S
C19 O20 1.264 . S
C19 O27 1.249 1_565 S
O20 C19 1.264 . S
O21 Mg14 1.986 . S
O21 C25 1.246 . S
O22 Mg17 2.032 . S
O22 C25 1.259 . S
O23 Mg14 2.114 . S
O23 C26 1.252 . S
O24 Mg14 2.251 . S
O24 Mg17 2.079 . S
O24 C26 1.273 . S
C25 O21 1.246 . S
C25 O22 1.259 . S
C26 O23 1.252 . S
C26 O24 1.273 . S
O27 Mg14 2.010 . S
O27 C19 1.249 1_545 S
Mg28 O29 2.028 1_554 S
Mg28 O35 1.986 1_554 S
Mg28 O37 2.114 . S
Mg28 O38 2.251 . S
Mg28 O41 2.010 1_554 S
O29 Mg28 2.028 1_556 S
O29 C32 1.250 1_556 S
O30 Mg31 2.028 . S
O30 C32 1.248 . S
Mg31 O30 2.028 . S
Mg31 O36 2.032 . S
Mg31 O38 2.079 . S
C32 O29 1.250 1_554 S
C32 O30 1.248 . S
C33 O34 1.264 . S
C33 O41 1.249 . S
O34 C33 1.264 . S
O35 Mg28 1.986 1_556 S
O35 C39 1.246 . S
O36 Mg31 2.032 . S
O36 C39 1.259 1_554 S
O37 Mg28 2.114 . S
O37 C40 1.252 . S
O38 Mg28 2.251 . S
O38 Mg31 2.079 . S
O38 C40 1.273 . S
C39 O35 1.246 . S
C39 O36 1.259 1_556 S
C40 O37 1.252 . S
C40 O38 1.273 . S
O41 Mg28 2.010 1_556 S
O41 C33 1.249 . S
Mg42 O43 2.028 . S
Mg42 O49 1.986 . S
Mg42 O51 2.114 . S
Mg42 O52 2.251 . S
Mg42 O55 2.010 . S
O43 Mg42 2.028 . S
O43 C46 1.250 . S
O44 Mg45 2.028 . S
O44 C46 1.248 . S
Mg45 O44 2.028 . S
Mg45 O50 2.032 . S
Mg45 O52 2.079 . S
C46 O43 1.250 . S
C46 O44 1.248 . S
C47 O48 1.264 . S
C47 O55 1.249 1_455 S
O48 C47 1.264 . S
O49 Mg42 1.986 . S
O49 C53 1.246 . S
O50 Mg45 2.032 . S
O50 C53 1.259 . S
O51 Mg42 2.114 . S
O51 C54 1.252 . S
O52 Mg42 2.251 . S
O52 Mg45 2.079 . S
O52 C54 1.273 . S
C53 O49 1.246 . S
C53 O50 1.259 . S
C54 O51 1.252 . S
C54 O52 1.273 . S
O55 Mg42 2.010 . S
O55 C47 1.249 1_655 S
Mg56 O57 2.028 . S
Mg56 O63 1.986 . S
Mg56 O65 2.114 . S
Mg56 O66 2.251 . S
Mg56 O69 2.010 . S
O57 Mg56 2.028 . S
O57 C60 1.250 . S
O58 Mg59 2.028 . S
O58 C60 1.248 . S
Mg59 O58 2.028 . S
Mg59 O64 2.032 . S
Mg59 O66 2.079 . S
C60 O57 1.250 . S
C60 O58 1.248 . S
C61 O62 1.264 . S
C61 O69 1.249 1_545 S
O62 C61 1.264 . S
O63 Mg56 1.986 . S
O63 C67 1.246 . S
O64 Mg59 2.032 . S
O64 C67 1.259 . S
O65 Mg56 2.114 . S
O65 C68 1.252 . S
O66 Mg56 2.251 . S
O66 Mg59 2.079 . S
O66 C68 1.273 . S
C67 O63 1.246 . S
C67 O64 1.259 . S
C68 O65 1.252 . S
C68 O66 1.273 . S
O69 Mg56 2.010 . S
O69 C61 1.249 1_565 S
Mg70 O71 2.028 1_554 S
Mg70 O77 1.986 1_554 S
Mg70 O79 2.114 . S
Mg70 O80 2.251 . S
Mg70 O83 2.010 1_554 S
O71 Mg70 2.028 1_556 S
O71 C74 1.250 1_556 S
O72 Mg73 2.028 . S
O72 C74 1.248 . S
Mg73 O72 2.028 . S
Mg73 O78 2.032 . S
Mg73 O80 2.079 . S
C74 O71 1.250 1_554 S
C74 O72 1.248 . S
C75 O76 1.264 . S
C75 O83 1.249 . S
O76 C75 1.264 . S
O77 Mg70 1.986 1_556 S
O77 C81 1.246 . S
O78 Mg73 2.032 . S
O78 C81 1.259 1_554 S
O79 Mg70 2.114 . S
O79 C82 1.252 . S
O80 Mg70 2.251 . S
O80 Mg73 2.079 . S
O80 C82 1.273 . S
C81 O77 1.246 . S
C81 O78 1.259 1_556 S
C82 O79 1.252 . S
C82 O80 1.273 . S
O83 Mg70 2.010 1_556 S
O83 C75 1.249 . S
Mg84 O85 2.028 . S
Mg84 O91 1.986 . S
Mg84 O93 2.114 . S
Mg84 O94 2.251 . S
Mg84 O97 2.010 . S
O85 Mg84 2.028 . S
O85 C88 1.250 . S
O86 Mg87 2.028 . S
O86 C88 1.248 . S
Mg87 O86 2.028 . S
Mg87 O92 2.032 . S
Mg87 O94 2.079 . S
C88 O85 1.250 . S
C88 O86 1.248 . S
C89 O90 1.264 . S
C89 O97 1.249 1_545 S
O90 C89 1.264 . S
O91 Mg84 1.986 . S
O91 C95 1.246 . S
O92 Mg87 2.032 . S
O92 C95 1.259 . S
O93 Mg84 2.114 . S
O93 C96 1.252 . S
O94 Mg84 2.251 . S
O94 Mg87 2.079 . S
O94 C96 1.273 . S
C95 O91 1.246 . S
C95 O92 1.259 . S
C96 O93 1.252 . S
C96 O94 1.273 . S
O97 Mg84 2.010 . S
O97 C89 1.249 1_565 S
Mg98 O99 2.028 . S
Mg98 O105 1.986 . S
Mg98 O107 2.114 . S
Mg98 O108 2.251 . S
Mg98 O111 2.010 . S
O99 Mg98 2.028 . S
O99 C102 1.250 . S
O100 Mg101 2.028 . S
O100 C102 1.248 . S
Mg101 O100 2.028 . S
Mg101 O106 2.032 . S
Mg101 O108 2.079 . S
C102 O99 1.250 . S
C102 O100 1.248 . S
C103 O104 1.264 . S
C103 O111 1.249 . S
O104 C103 1.264 . S
O105 Mg98 1.986 . S
O105 C109 1.246 . S
O106 Mg101 2.032 . S
O106 C109 1.259 . S
O107 Mg98 2.114 . S
O107 C110 1.252 . S
O108 Mg98 2.251 . S
O108 Mg101 2.079 . S
O108 C110 1.273 . S
C109 O105 1.246 . S
C109 O106 1.259 . S
C110 O107 1.252 . S
C110 O108 1.273 . S
O111 Mg98 2.010 . S
O111 C103 1.249 . S
Mg112 O113 2.028 1_556 S
Mg112 O119 1.986 1_556 S
Mg112 O121 2.114 . S
Mg112 O122 2.251 . S
Mg112 O125 2.010 1_556 S
O113 Mg112 2.028 1_554 S
O113 C116 1.250 1_554 S
O114 Mg115 2.028 . S
O114 C116 1.248 . S
Mg115 O114 2.028 . S
Mg115 O120 2.032 . S
Mg115 O122 2.079 . S
C116 O113 1.250 1_556 S
C116 O114 1.248 . S
C117 O118 1.264 . S
C117 O125 1.249 1_655 S
O118 C117 1.264 . S
O119 Mg112 1.986 1_554 S
O119 C123 1.246 . S
O120 Mg115 2.032 . S
O120 C123 1.259 1_556 S
O121 Mg112 2.114 . S
O121 C124 1.252 . S
O122 Mg112 2.251 . S
O122 Mg115 2.079 . S
O122 C124 1.273 . S
C123 O119 1.246 . S
C123 O120 1.259 1_554 S
C124 O121 1.252 . S
C124 O122 1.273 . S
O125 Mg112 2.010 1_554 S
O125 C117 1.249 1_455 S
Mg126 O127 2.028 . S
Mg126 O133 1.986 . S
Mg126 O135 2.114 . S
Mg126 O136 2.251 . S
Mg126 O139 2.010 . S
O127 Mg126 2.028 . S
O127 C130 1.250 . S
O128 Mg129 2.028 . S
O128 C130 1.248 . S
Mg129 O128 2.028 . S
Mg129 O134 2.032 . S
Mg129 O136 2.079 . S
C130 O127 1.250 . S
C130 O128 1.248 . S
C131 O132 1.264 . S
C131 O139 1.249 1_565 S
O132 C131 1.264 . S
O133 Mg126 1.986 . S
O133 C137 1.246 . S
O134 Mg129 2.032 . S
O134 C137 1.259 . S
O135 Mg126 2.114 . S
O135 C138 1.252 . S
O136 Mg126 2.251 . S
O136 Mg129 2.079 . S
O136 C138 1.273 . S
C137 O133 1.246 . S
C137 O134 1.259 . S
C138 O135 1.252 . S
C138 O136 1.273 . S
O139 Mg126 2.010 . S
O139 C131 1.249 1_545 S
Mg140 O141 2.028 . S
Mg140 O147 1.986 . S
Mg140 O149 2.114 . S
Mg140 O150 2.251 . S
Mg140 O153 2.010 . S
O141 Mg140 2.028 . S
O141 C144 1.250 . S
O142 Mg143 2.028 . S
O142 C144 1.248 . S
Mg143 O142 2.028 . S
Mg143 O148 2.032 . S
Mg143 O150 2.079 . S
C144 O141 1.250 . S
C144 O142 1.248 . S
C145 O146 1.264 . S
C145 O153 1.249 . S
O146 C145 1.264 . S
O147 Mg140 1.986 . S
O147 C151 1.246 . S
O148 Mg143 2.032 . S
O148 C151 1.259 . S
O149 Mg140 2.114 . S
O149 C152 1.252 . S
O150 Mg140 2.251 . S
O150 Mg143 2.079 . S
O150 C152 1.273 . S
C151 O147 1.246 . S
C151 O148 1.259 . S
C152 O149 1.252 . S
C152 O150 1.273 . S
O153 Mg140 2.010 . S
O153 C145 1.249 . S
Mg154 O155 2.028 1_556 S
Mg154 O161 1.986 1_556 S
Mg154 O163 2.114 . S
Mg154 O164 2.251 . S
Mg154 O167 2.010 1_556 S
O155 Mg154 2.028 1_554 S
O155 C158 1.250 1_554 S
O156 Mg157 2.028 . S
O156 C158 1.248 . S
Mg157 O156 2.028 . S
Mg157 O162 2.032 . S
Mg157 O164 2.079 . S
C158 O155 1.250 1_556 S
C158 O156 1.248 . S
C159 O160 1.264 . S
C159 O167 1.249 1_455 S
O160 C159 1.264 . S
O161 Mg154 1.986 1_554 S
O161 C165 1.246 . S
O162 Mg157 2.032 . S
O162 C165 1.259 1_556 S
O163 Mg154 2.114 . S
O163 C166 1.252 . S
O164 Mg154 2.251 . S
O164 Mg157 2.079 . S
O164 C166 1.273 . S
C165 O161 1.246 . S
C165 O162 1.259 1_554 S
C166 O163 1.252 . S
C166 O164 1.273 . S
O167 Mg154 2.010 1_554 S
O167 C159 1.249 1_655 S
C11 C95 1.284 . S
C25 C109 1.284 . S
C39 C123 1.285 1_556 S
C137 C53 1.284 . S
C67 C151 1.284 . S
C165 C81 1.285 1_554 S
C4 C130 0.527 . S
C18 C144 0.527 1_655 S
C158 C32 0.526 1_546 S
C88 C46 0.527 . S
C60 C102 0.527 1_455 S
C74 C116 0.526 1_544 S
C159 C5 1.512 1_455 S
C19 C89 1.513 1_565 S
C33 C103 1.512 . S
C117 C47 1.512 1_655 S
C131 C61 1.513 1_565 S
C75 C145 1.512 . S
C12 C152 1.723 . S
C166 C26 1.724 . S
C96 C40 1.724 . S
C54 C110 1.723 . S
C124 C68 1.724 . S
C138 C82 1.724 . S
