# Generated by pormake.
# Topology pcu, (6)-cn, num edge types: 1
# Building blocks:
#     Node 0, Type 0, BuildingBlock: UKALOJ_clean_sbu_0, # of connection points: 6
#     Edge 1, Type (0, 0), BuildingBlock: FUNLAD_clean_linker_1, # of connection points: 2
#     Edge 2, Type (0, 0), BuildingBlock: FUNLAD_clean_linker_1, # of connection points: 2
#     Edge 3, Type (0, 0), BuildingBlock: FUNLAD_clean_linker_1, # of connection points: 2
# Relax obj value: 0.010
# Max RMSD: 0.054
# Mean RMSD: 0.054
data_MOF--net-pcu--node1-UKALOJ_clean_sbu_0--edge1-FUNLAD_clean_linker_1
_symmetry_space_group_name_H-M    P1
_symmetry_Int_Tables_number       1
_symmetry_cell_setting            triclinic
loop_
_symmetry_equiv_pos_as_xyz
'x, y, z'
_cell_length_a     15.799461
_cell_length_b     15.851123
_cell_length_c     21.021231
_cell_angle_alpha  98.019682
_cell_angle_beta   84.543588
_cell_angle_gamma 98.963912
loop_
_atom_site_label
_atom_site_type_symbol
_atom_site_fract_x
_atom_site_fract_y
_atom_site_fract_z
_atom_type_partial_charge
Zn0 Zn -0.0067 0.99416 0.06656 0.0
O1 O 0.9832 0.85832 0.05982 0.0
C2 C 0.16417 -0.00154 0.98978 0.0
Zn3 Zn 0.98455 0.98902 0.96088 0.0
C4 C 0.97563 0.81499 1.00448 0.0
O5 O 0.97331 0.85348 0.95576 0.0
C6 C 0.00222 0.16819 0.02296 0.0
O7 O 0.85071 0.98316 0.98124 0.0
O8 O 0.85809 0.98857 0.08558 0.0
N9 N 0.96523 0.97435 0.86511 0.0
C10 C 0.00485 0.01141 0.81416 0.0
C11 C 0.90152 0.91854 0.77957 0.0
N12 N 0.90102 0.91677 0.84339 0.0
N13 N 0.96617 0.97743 0.75992 0.0
C14 C 0.97299 0.97177 0.21328 0.0
C15 C 0.07633 0.06465 0.24787 0.0
N16 N 0.01262 0.00883 0.16232 0.0
N17 N 0.07683 0.06642 0.18404 0.0
N18 N 0.01167 0.00575 0.26752 0.0
H19 H 0.88028 0.88037 0.16004 0.0
H20 H 0.84101 0.92723 0.23857 0.0
H21 H 0.91063 0.84703 0.23251 0.0
C22 C 0.89686 0.90242 0.2102 0.0
C23 C 0.08098 0.08076 0.81723 0.0
H24 H 0.06722 0.13616 0.79492 0.0
H25 H 0.13684 0.05596 0.78886 0.0
H26 H 0.09756 0.10281 0.86739 0.0
O27 O -0.00535 0.12487 0.96761 0.0
O28 O 0.00453 0.12971 0.07168 0.0
C29 C 0.81368 0.98472 0.03765 0.0
O30 O 0.12714 3e-05 0.04619 0.0
O31 O 0.11976 0.99462 0.94186 0.0
H32 H 0.93256 0.9393 0.34184 0.0
C33 C 0.98914 0.98563 0.33227 0.0
H34 H 0.09183 0.07146 0.37285 0.0
H35 H 0.9111 0.11692 0.65344 0.0
H36 H 0.90566 0.25588 0.61973 0.0
H37 H 0.94872 0.28264 0.50759 0.0
H38 H -0.00308 0.17028 0.4284 0.0
C39 C 0.03649 0.02326 0.38121 0.0
C40 C 0.01164 0.00638 0.44878 0.0
C41 C 0.98525 0.07334 0.49481 0.0
C42 C 0.96169 0.05834 0.55971 0.0
C43 C 0.93218 0.12535 0.60398 0.0
C44 C 0.92811 0.20538 0.58516 0.0
C45 C 0.95226 0.22041 0.52202 0.0
C46 C 0.98012 0.15535 0.4771 0.0
H47 H 0.04528 0.04389 0.68559 0.0
C48 C 0.98871 -0.00244 0.69517 0.0
H49 H 0.88601 0.91173 0.65458 0.0
H50 H 0.06674 0.86626 0.374 0.0
H51 H 0.07219 0.7273 0.4077 0.0
H52 H 0.02913 0.70055 0.51985 0.0
H53 H 0.98093 0.8129 0.59903 0.0
C54 C 0.94136 0.95992 0.64623 0.0
C55 C 0.9662 0.9768 0.57866 0.0
C56 C -0.00741 0.90984 0.53263 0.0
C57 C 0.01616 0.92484 0.46773 0.0
C58 C 0.04567 0.85783 0.42346 0.0
C59 C 0.04973 0.77781 0.44228 0.0
C60 C 0.02558 0.76278 0.50542 0.0
C61 C -0.00228 0.82784 0.55034 0.0
H62 H 0.28828 -0.00248 0.93138 0.0
C63 C 0.25776 -0.0019 0.97999 0.0
H64 H 0.27541 -0.00209 0.07847 0.0
H65 H 0.62065 0.8364 0.94474 0.0
H66 H 0.5212 0.71175 0.9053 0.0
H67 H 0.36479 0.71366 0.91952 0.0
H68 H 0.30669 0.84028 0.97262 0.0
C69 C 0.3049 -0.00448 0.02951 0.0
C70 C 0.39899 0.99358 0.02044 0.0
C71 C 0.43155 0.91848 0.9897 0.0
C72 C 0.52171 0.91689 0.98243 0.0
C73 C 0.55273 0.8412 0.95147 0.0
C74 C 0.49637 0.76907 0.92875 0.0
C75 C 0.40827 0.77018 0.93669 0.0
C76 C 0.37583 0.84362 0.96697 0.0
H77 H 0.68956 0.98566 0.09605 0.0
C78 C 0.72009 0.98509 0.04745 0.0
H79 H 0.70244 0.98527 0.94896 0.0
H80 H 0.3572 0.14679 0.08269 0.0
H81 H 0.45664 0.27143 0.12214 0.0
H82 H 0.61306 0.26953 0.10791 0.0
H83 H 0.67115 0.1429 0.05482 0.0
C84 C 0.67294 0.98766 0.99793 0.0
C85 C 0.57886 0.98961 1.007 0.0
C86 C 0.5463 0.0647 0.03774 0.0
C87 C 0.45614 0.0663 0.045 0.0
C88 C 0.42512 0.14198 0.07597 0.0
C89 C 0.48148 0.21411 0.09868 0.0
C90 C 0.56957 0.21301 0.09074 0.0
C91 C 0.60202 0.13957 0.06046 0.0
H92 H 0.96038 0.68699 0.94735 0.0
C93 C 0.97281 0.72088 0.99495 0.0
H94 H 0.00156 0.70901 0.0892 0.0
H95 H 0.84852 0.31106 0.0616 0.0
H96 H 0.74269 0.37131 0.13843 0.0
H97 H 0.74846 0.52846 0.16531 0.0
H98 H 0.8606 0.62645 0.11569 0.0
C99 C 0.99004 0.67675 0.04104 0.0
C100 C 0.99069 0.58212 0.02789 0.0
C101 C 0.92582 0.52577 0.05831 0.0
C102 C 0.92332 0.43511 0.04355 0.0
C103 C 0.85542 0.38039 0.07256 0.0
C104 C 0.79358 0.41411 0.11629 0.0
C105 C 0.79684 0.50261 0.13143 0.0
C106 C 0.86171 0.55812 0.10268 0.0
H107 H 0.01747 0.2962 0.08009 0.0
C108 C 0.00503 0.26231 0.03248 0.0
H109 H 0.97629 0.27417 0.93824 0.0
H110 H 0.12933 0.67212 0.96583 0.0
H111 H 0.23516 0.61188 0.889 0.0
H112 H 0.22938 0.45472 0.86213 0.0
H113 H 0.11725 0.35673 0.91175 0.0
C114 C 0.9878 0.30643 0.9864 0.0
C115 C 0.98716 0.40106 0.99955 0.0
C116 C 0.05203 0.45741 0.96912 0.0
C117 C 0.05453 0.54807 0.98388 0.0
C118 C 0.12243 0.6028 0.95487 0.0
C119 C 0.18427 0.56907 0.91115 0.0
C120 C 0.181 0.48057 0.89601 0.0
C121 C 0.11613 0.42507 0.92476 0.0
loop_
_geom_bond_atom_site_label_1
_geom_bond_atom_site_label_2
_geom_bond_distance
_geom_bond_site_symmetry_2
_ccdc_geom_bond_type
Zn0 O1 2.055 . S
Zn0 O8 2.046 . S
Zn0 N16 2.036 1_565 S
Zn0 O28 2.053 1_565 S
Zn0 O30 2.066 1_665 S
O1 Zn0 2.055 . S
O1 C4 1.259 1_554 S
C2 O30 1.256 1_565 S
C2 O31 1.244 1_554 S
Zn3 O5 2.046 . S
Zn3 O7 2.055 . S
Zn3 N9 2.036 1_655 S
Zn3 O27 2.066 1_665 S
Zn3 O31 2.053 1_655 S
C4 O1 1.259 1_556 S
C4 O5 1.254 . S
O5 Zn3 2.046 . S
O5 C4 1.254 . S
C6 O27 1.256 1_655 S
C6 O28 1.244 1_556 S
O7 Zn3 2.055 . S
O7 C29 1.259 1_556 S
O8 Zn0 2.046 . S
O8 C29 1.254 . S
N9 Zn3 2.036 1_455 S
N9 C10 1.298 1_465 S
N9 N12 1.398 . S
C10 N9 1.298 1_645 S
C10 N13 1.367 1_655 S
C10 C23 1.481 . S
C11 N12 1.299 . S
C11 N13 1.379 1_565 S
N12 N9 1.398 . S
N12 C11 1.299 . S
N13 C10 1.367 1_455 S
N13 C11 1.379 1_545 S
C14 N16 1.298 1_465 S
C14 N18 1.367 1_565 S
C14 C22 1.481 . S
C15 N17 1.299 . S
C15 N18 1.379 1_655 S
N16 Zn0 2.036 1_545 S
N16 C14 1.298 1_645 S
N16 N17 1.398 . S
N17 C15 1.299 . S
N17 N16 1.398 . S
N18 C14 1.367 1_545 S
N18 C15 1.379 1_455 S
H19 C22 0.980 . S
H20 C22 0.981 . S
H21 C22 0.981 . S
C22 C14 1.481 . S
C22 H19 0.980 . S
C22 H20 0.981 . S
C22 H21 0.981 . S
C23 C10 1.481 . S
C23 H24 0.980 . S
C23 H25 0.981 . S
C23 H26 0.981 . S
H24 C23 0.980 . S
H25 C23 0.981 . S
H26 C23 0.981 . S
O27 Zn3 2.066 1_445 S
O27 C6 1.256 1_455 S
O28 Zn0 2.053 1_545 S
O28 C6 1.244 1_554 S
C29 O7 1.259 1_554 S
C29 O8 1.254 . S
O30 Zn0 2.066 1_445 S
O30 C2 1.256 1_545 S
O31 C2 1.244 1_556 S
O31 Zn3 2.053 1_455 S
H32 C33 0.951 1_655 S
C33 H32 0.951 1_455 S
C33 C39 1.265 . S
H34 C39 0.950 . S
H35 C43 0.949 . S
H36 C44 0.950 . S
H37 C45 0.951 . S
H38 C46 0.951 . S
C39 C33 1.265 . S
C39 H34 0.950 . S
C39 C40 1.478 . S
C40 C39 1.478 . S
C40 C41 1.397 . S
C40 C57 1.394 1_445 S
C41 C40 1.397 . S
C41 C42 1.438 . S
C41 C46 1.429 . S
C42 C41 1.438 . S
C42 C43 1.428 . S
C42 C55 1.397 . S
C43 H35 0.949 . S
C43 C42 1.428 . S
C43 C44 1.345 . S
C44 H36 0.950 . S
C44 C43 1.345 . S
C44 C45 1.424 . S
C45 H37 0.951 . S
C45 C44 1.424 . S
C45 C46 1.347 . S
C46 H38 0.951 . S
C46 C41 1.429 . S
C46 C45 1.347 . S
H47 C48 0.951 . S
C48 H47 0.951 . S
C48 C54 1.265 1_455 S
H49 C54 0.950 1_565 S
H50 C58 0.949 . S
H51 C59 0.950 . S
H52 C60 0.951 . S
H53 C61 0.951 . S
C54 C48 1.265 1_655 S
C54 H49 0.950 1_545 S
C54 C55 1.477 1_655 S
C55 C42 1.397 . S
C55 C54 1.477 1_455 S
C55 C56 1.395 1_445 S
C56 C55 1.395 1_665 S
C56 C57 1.438 . S
C56 C61 1.429 . S
C57 C40 1.394 1_665 S
C57 C56 1.438 . S
C57 C58 1.428 . S
C58 H50 0.949 . S
C58 C57 1.428 . S
C58 C59 1.345 . S
C59 H51 0.950 . S
C59 C58 1.345 . S
C59 C60 1.424 . S
C60 H52 0.951 . S
C60 C59 1.424 . S
C60 C61 1.347 . S
C61 H53 0.951 . S
C61 C56 1.429 . S
C61 C60 1.347 . S
H62 C63 0.953 . S
C63 H62 0.953 . S
C63 C69 1.265 1_545 S
H64 C69 0.950 . S
H65 C73 0.949 . S
H66 C74 0.950 . S
H67 C75 0.951 . S
H68 C76 0.951 . S
C69 C63 1.265 1_565 S
C69 H64 0.950 . S
C69 C70 1.478 . S
C70 C69 1.478 . S
C70 C71 1.397 1_554 S
C70 C87 1.394 1_565 S
C71 C70 1.397 1_556 S
C71 C72 1.438 . S
C71 C76 1.429 . S
C72 C71 1.438 . S
C72 C73 1.428 . S
C72 C85 1.394 1_566 S
C73 H65 0.949 . S
C73 C72 1.428 . S
C73 C74 1.345 . S
C74 H66 0.950 . S
C74 C73 1.345 . S
C74 C75 1.424 . S
C75 H67 0.951 . S
C75 C74 1.424 . S
C75 C76 1.347 . S
C76 H68 0.951 . S
C76 C71 1.429 . S
C76 C75 1.347 . S
H77 C78 0.951 . S
C78 H77 0.951 . S
C78 C84 1.265 1_565 S
H79 C84 0.950 . S
H80 C88 0.949 . S
H81 C89 0.950 . S
H82 C90 0.951 . S
H83 C91 0.951 . S
C84 C78 1.265 1_545 S
C84 H79 0.950 . S
C84 C85 1.478 . S
C85 C72 1.394 1_544 S
C85 C84 1.478 . S
C85 C86 1.397 . S
C86 C85 1.397 . S
C86 C87 1.438 . S
C86 C91 1.429 . S
C87 C70 1.394 1_545 S
C87 C86 1.438 . S
C87 C88 1.428 . S
C88 H80 0.949 . S
C88 C87 1.428 . S
C88 C89 1.345 . S
C89 H81 0.950 . S
C89 C88 1.345 . S
C89 C90 1.424 . S
C90 H82 0.951 . S
C90 C89 1.424 . S
C90 C91 1.347 . S
C91 H83 0.951 . S
C91 C86 1.429 . S
C91 C90 1.347 . S
H92 C93 0.951 . S
C93 H92 0.951 . S
C93 C99 1.265 1_656 S
H94 C99 0.950 . S
H95 C103 0.949 . S
H96 C104 0.950 . S
H97 C105 0.951 . S
H98 C106 0.951 . S
C99 C93 1.265 1_454 S
C99 H94 0.950 . S
C99 C100 1.478 . S
C100 C99 1.478 . S
C100 C101 1.397 1_455 S
C100 C117 1.394 1_554 S
C101 C100 1.397 1_655 S
C101 C102 1.438 . S
C101 C106 1.429 . S
C102 C101 1.438 . S
C102 C103 1.428 . S
C102 C115 1.394 1_554 S
C103 H95 0.949 . S
C103 C102 1.428 . S
C103 C104 1.345 . S
C104 H96 0.950 . S
C104 C103 1.345 . S
C104 C105 1.424 . S
C105 H97 0.951 . S
C105 C104 1.424 . S
C105 C106 1.347 . S
C106 H98 0.951 . S
C106 C101 1.429 . S
C106 C105 1.347 . S
H107 C108 0.953 . S
C108 H107 0.953 . S
C108 C114 1.263 1_454 S
H109 C114 0.950 . S
H110 C118 0.949 . S
H111 C119 0.950 . S
H112 C120 0.951 . S
H113 C121 0.951 . S
C114 C108 1.263 1_656 S
C114 H109 0.950 . S
C114 C115 1.478 . S
C115 C102 1.394 1_556 S
C115 C114 1.478 . S
C115 C116 1.397 1_655 S
C116 C115 1.397 1_455 S
C116 C117 1.438 . S
C116 C121 1.429 . S
C117 C100 1.394 1_556 S
C117 C116 1.438 . S
C117 C118 1.428 . S
C118 H110 0.949 . S
C118 C117 1.428 . S
C118 C119 1.345 . S
C119 H111 0.950 . S
C119 C118 1.345 . S
C119 C120 1.424 . S
C120 H112 0.951 . S
C120 C119 1.424 . S
C120 C121 1.347 . S
C121 H113 0.951 . S
C121 C116 1.429 . S
C121 C120 1.347 . S
C33 N18 1.415 . S
C48 N13 1.429 . S
C63 C2 1.483 1_545 S
C78 C29 1.470 . S
C93 C4 1.475 . S
C108 C6 1.486 1_454 S
