# Generated by pormake.
# Topology ilc, (8)-cn, num edge types: 1
# Building blocks:
#     Node 0, Type 0, BuildingBlock: NUHRAL_clean_sbu_3, # of connection points: 8
#     Node 1, Type 0, BuildingBlock: NUHRAL_clean_sbu_3, # of connection points: 8
#     Node 2, Type 0, BuildingBlock: NUHRAL_clean_sbu_3, # of connection points: 8
#     Edge 3, Type (0, 0), BuildingBlock: AJUNOK_clean_linker_0, # of connection points: 2
#     Edge 4, Type (0, 0), BuildingBlock: AJUNOK_clean_linker_0, # of connection points: 2
#     Edge 5, Type (0, 0), BuildingBlock: AJUNOK_clean_linker_0, # of connection points: 2
#     Edge 6, Type (0, 0), BuildingBlock: AJUNOK_clean_linker_0, # of connection points: 2
#     Edge 7, Type (0, 0), BuildingBlock: AJUNOK_clean_linker_0, # of connection points: 2
#     Edge 8, Type (0, 0), BuildingBlock: AJUNOK_clean_linker_0, # of connection points: 2
#     Edge 9, Type (0, 0), BuildingBlock: AJUNOK_clean_linker_0, # of connection points: 2
#     Edge 10, Type (0, 0), BuildingBlock: AJUNOK_clean_linker_0, # of connection points: 2
#     Edge 11, Type (0, 0), BuildingBlock: AJUNOK_clean_linker_0, # of connection points: 2
#     Edge 12, Type (0, 0), BuildingBlock: AJUNOK_clean_linker_0, # of connection points: 2
#     Edge 13, Type (0, 0), BuildingBlock: AJUNOK_clean_linker_0, # of connection points: 2
#     Edge 14, Type (0, 0), BuildingBlock: AJUNOK_clean_linker_0, # of connection points: 2
# Relax obj value: 0.197
# Max RMSD: 0.207
# Mean RMSD: 0.207
data_MOF--net-ilc--node1-NUHRAL_clean_sbu_3--edge1-AJUNOK_clean_linker_0
_symmetry_space_group_name_H-M    P1
_symmetry_Int_Tables_number       1
_symmetry_cell_setting            triclinic
loop_
_symmetry_equiv_pos_as_xyz
'x, y, z'
_cell_length_a     18.424874
_cell_length_b     24.285613
_cell_length_c     14.92305
_cell_angle_alpha  102.12465
_cell_angle_beta   73.407377
_cell_angle_gamma 142.22251
loop_
_atom_site_label
_atom_site_type_symbol
_atom_site_fract_x
_atom_site_fract_y
_atom_site_fract_z
_atom_type_partial_charge
C0 C 0.16752 0.01668 0.19755 0.0
C1 C 0.16943 0.06309 0.27243 0.0
C2 C 0.18858 0.06525 0.35693 0.0
C3 C 0.21477 0.02681 0.36574 0.0
C4 C 0.19104 0.96584 0.30047 0.0
C5 C 0.17307 0.96394 0.21233 0.0
O6 O 0.90232 0.99361 0.15725 0.0
Tb7 Tb 0.08562 0.07586 0.08153 0.0
O8 O 0.14285 0.17772 0.18776 0.0
O9 O 0.79474 0.85352 0.10539 0.0
Eu10 Eu 0.85429 0.89672 0.95577 0.0
O11 O 0.22727 0.10598 0.0841 0.0
C12 C 0.79603 0.96074 0.93041 0.0
O13 O 0.04154 0.96776 0.10186 0.0
O14 O 0.0413 0.98093 0.87364 0.0
O15 O 0.13831 0.11604 0.93476 0.0
C16 C 0.15288 0.02298 0.10898 0.0
C17 C 0.83015 0.75781 0.8483 0.0
O18 O 0.90614 0.79486 0.90089 0.0
C19 C 0.81291 0.90618 0.17268 0.0
C20 C 0.12638 0.06811 0.86321 0.0
O21 O 0.78586 0.78307 0.85865 0.0
C22 C 0.82838 1.00682 0.84932 0.0
C23 C 0.81459 0.07316 0.76382 0.0
C24 C 0.7827 0.03329 0.8468 0.0
C25 C 0.90833 0.02424 0.77137 0.0
C26 C 0.94008 0.06439 0.69038 0.0
C27 C 0.89156 0.08692 0.6862 0.0
C28 C 0.10033 0.20516 0.20574 0.0
O29 O 0.03055 0.17787 0.15299 0.0
O30 O 0.72793 0.87597 0.91811 0.0
O31 O 0.88735 1.00606 0.96889 0.0
H32 H 0.14815 0.09289 0.26691 0.0
H33 H 0.23416 0.03321 0.43168 0.0
H34 H 0.16003 0.92073 0.15795 0.0
H35 H 0.72436 0.02355 0.90777 0.0
H36 H 0.94394 1.00435 0.77284 0.0
H37 H 0.91305 0.11479 0.62169 0.0
C38 C 0.76837 0.32003 0.5489 0.0
C39 C 0.76353 0.36355 0.62294 0.0
C40 C 0.76278 0.35585 0.7126 0.0
C41 C 0.76171 0.30133 0.73059 0.0
C42 C 0.76691 0.25698 0.65837 0.0
C43 C 0.77007 0.26597 0.56606 0.0
O44 O 0.55031 0.32398 0.49089 0.0
Tb45 Tb 0.73305 0.4032 0.41605 0.0
O46 O 0.79349 0.50684 0.51725 0.0
O47 O 0.44938 0.18842 0.42871 0.0
Eu48 Eu 0.53856 0.24751 0.28114 0.0
O49 O 0.86067 0.42638 0.44113 0.0
C50 C 0.51397 0.33513 0.25526 0.0
O51 O 0.6803 0.28966 0.42893 0.0
O52 O 0.72695 0.32606 0.21243 0.0
O53 O 0.81674 0.45827 0.27273 0.0
C54 C 0.78132 0.34035 0.45545 0.0
C55 C 0.51219 0.10916 0.16863 0.0
O56 O 0.5819 0.14132 0.22508 0.0
C57 C 0.45833 0.2357 0.49898 0.0
C58 C 0.81625 0.41377 0.20444 0.0
O59 O 0.47147 0.13714 0.17786 0.0
C60 C 0.57514 0.40493 0.18863 0.0
C61 C 0.59915 0.50488 0.12544 0.0
C62 C 0.53645 0.43754 0.19115 0.0
C63 C 0.66768 0.43388 0.11567 0.0
C64 C 0.72338 0.49643 0.04841 0.0
C65 C 0.70256 0.54171 0.0627 0.0
C66 C 0.74318 0.52797 0.5374 0.0
O67 O 0.66721 0.49421 0.48697 0.0
O68 O 0.45053 0.25489 0.22181 0.0
O69 O 0.58169 0.36185 0.3099 0.0
H70 H 0.766 0.40731 0.60991 0.0
H71 H 0.7581 0.29414 0.80167 0.0
H72 H 0.77724 0.2339 0.50875 0.0
H73 H 0.45499 0.40741 0.23944 0.0
H74 H 0.68566 0.39964 0.10498 0.0
H75 H 0.74631 0.58907 1.00841 0.0
C76 C 0.43551 0.64045 0.8552 0.0
C77 C 0.34406 0.61649 0.92321 0.0
C78 C 0.28676 0.56042 0.99868 0.0
C79 C 0.31721 0.52408 1.00303 0.0
C80 C 0.42045 0.55782 0.94446 0.0
C81 C 0.47902 0.615 0.868 0.0
O82 O 0.23502 0.6616 0.8242 0.0
Tb83 Tb 0.41933 0.74909 0.74751 0.0
O84 O 0.47661 0.85459 0.84517 0.0
O85 O 0.14755 0.52688 0.77896 0.0
Eu86 Eu 0.20253 0.56817 0.62876 0.0
O87 O 0.5421 0.77578 0.79411 0.0
C88 C 0.13446 0.62435 0.60266 0.0
O89 O 0.39989 0.65033 0.7263 0.0
O90 O 0.39229 0.6585 0.54605 0.0
O91 O 0.48439 0.79396 0.60271 0.0
C92 C 0.48236 0.69372 0.77514 0.0
C93 C 0.13464 0.40311 0.53278 0.0
O94 O 0.14704 0.39773 0.61177 0.0
C95 C 0.15744 0.57708 0.84455 0.0
C96 C 0.4764 0.74584 0.53414 0.0
O97 O 0.14217 0.46065 0.52391 0.0
C98 C 0.13187 0.64243 0.51585 0.0
C99 C 0.13631 0.71779 0.42273 0.0
C100 C 0.14314 0.70657 0.50856 0.0
C101 C 0.12603 0.5976 0.43578 0.0
C102 C 0.11674 0.60772 0.35313 0.0
C103 C 0.10916 0.65987 0.35102 0.0
C104 C 0.42 0.87085 0.86662 0.0
O105 O 0.33597 0.82951 0.82102 0.0
O106 O 0.05988 0.53931 0.61762 0.0
O107 O 0.24221 0.67897 0.61814 0.0
H108 H 0.32484 0.64821 0.9214 0.0
H109 H 0.27233 0.47998 0.06073 0.0
H110 H 0.5574 0.64028 0.82126 0.0
H111 H 0.16039 0.74816 0.56738 0.0
H112 H 0.13317 0.55747 0.43682 0.0
H113 H 0.09897 0.66467 0.28679 0.0
C114 C 0.96753 0.99168 0.57594 0.0
C115 C 0.01012 0.07061 0.6059 0.0
C116 C 0.02698 0.99211 0.49454 0.0
C117 C 0.13324 0.07191 0.442 0.0
H118 H 0.88556 0.92849 0.61436 0.0
H119 H 0.98768 0.92876 0.47121 0.0
S120 S 0.27548 0.29461 0.48546 0.0
N121 N 0.15842 0.22945 0.57344 0.0
N122 N 0.2744 0.23011 0.41989 0.0
C123 C 0.17554 0.15102 0.46901 0.0
C124 C 0.113 0.15043 0.55163 0.0
C125 C 0.85005 0.45581 0.84635 0.0
C126 C 0.76708 0.40708 0.788 0.0
C127 C 0.84325 0.49314 0.92744 0.0
C128 C 0.75515 0.48371 0.95167 0.0
H129 H 0.9167 0.46142 0.83082 0.0
H130 H 0.90224 0.52583 0.97414 0.0
S131 S 0.5316 0.37657 0.81292 0.0
N132 N 0.60343 0.36028 0.75285 0.0
N133 N 0.59366 0.43339 0.90496 0.0
C134 C 0.67932 0.44276 0.88901 0.0
C135 C 0.68471 0.40361 0.80699 0.0
C136 C 0.28948 0.6501 0.11356 0.0
C137 C 0.22856 0.56461 0.08486 0.0
C138 C 0.25135 0.66165 0.20066 0.0
C139 C 0.15094 0.58847 0.26316 0.0
H140 H 0.37095 0.70988 0.07021 0.0
H141 H 0.3028 0.72929 0.22 0.0
S142 S 0.96246 0.3512 0.22369 0.0
N143 N 0.06314 0.4051 0.12518 0.0
N144 N -0.0063 0.42823 0.2931 0.0
C145 C 0.08976 0.50264 0.23684 0.0
C146 C 0.12778 0.49034 0.14643 0.0
C147 C 0.22381 0.82977 0.30748 0.0
C148 C 0.16288 0.79032 0.39912 0.0
C149 C 0.22722 0.88199 0.27437 0.0
C150 C 0.1756 0.90163 0.33243 0.0
H151 H 0.26689 0.81807 0.25926 0.0
H152 H 0.27135 0.90758 0.20308 0.0
S153 S 0.01979 0.82584 0.58196 0.0
N154 N 0.05956 0.78205 0.5493 0.0
N155 N 0.06401 0.87877 0.48868 0.0
C156 C 0.11822 0.8653 0.42552 0.0
C157 C 0.1142 0.81157 0.45879 0.0
C158 C 0.07082 0.26844 0.45902 0.0
C159 C 0.12814 0.3534 0.44971 0.0
C160 C 0.06848 0.2231 0.38033 0.0
C161 C 0.12067 0.26 0.28905 0.0
H162 H 0.02699 0.23673 0.52756 0.0
H163 H 0.02311 0.1578 0.39088 0.0
S164 S 0.29961 0.48734 0.23004 0.0
N165 N 0.25242 0.47747 0.34397 0.0
N166 N 0.24073 0.39066 0.19624 0.0
C167 C 0.18053 0.3458 0.27959 0.0
C168 C 0.18575 0.39269 0.35969 0.0
C169 C 0.56275 0.73822 0.37516 0.0
C170 C 0.56364 0.78895 0.44281 0.0
C171 C 0.64268 0.77625 0.28808 0.0
C172 C 0.727 0.86671 0.26459 0.0
H173 H 0.50006 0.66831 0.38938 0.0
H174 H 0.63865 0.73434 0.23919 0.0
S175 S 0.7598 0.02673 0.41354 0.0
N176 N 0.65314 0.93351 0.47802 0.0
N177 N 0.80134 1.00468 0.31463 0.0
C178 C 0.72746 0.91782 0.33085 0.0
C179 C 0.64649 0.87909 0.41971 0.0
C180 C 0.86285 0.24988 0.73519 0.0
C181 C 0.77532 0.20659 0.68363 0.0
C182 C 0.86582 0.20281 0.77044 0.0
C183 C 0.78195 0.11071 0.75504 0.0
H184 H 0.93024 0.3212 0.74796 0.0
H185 H 0.93845 0.2398 0.80556 0.0
S186 S 0.53002 0.96501 0.62998 0.0
N187 N 0.59758 0.06541 0.62496 0.0
N188 N 0.60828 0.97758 0.68544 0.0
C189 C 0.69322 0.06633 0.70446 0.0
C190 C 0.6888 0.11412 0.66999 0.0
C191 C 0.71726 0.61141 0.6332 0.0
C192 C 0.76485 0.58445 0.61898 0.0
C193 C 0.7377 0.66623 0.70758 0.0
C194 C 0.80316 0.69444 0.77355 0.0
H195 H 0.6668 0.59257 0.58461 0.0
H196 H 0.70697 0.69028 0.70999 0.0
S197 S 0.95295 0.64641 0.76583 0.0
N198 N 0.88513 0.59329 0.67557 0.0
N199 N 0.91941 0.69303 0.81729 0.0
C200 C 0.85019 0.66697 0.76095 0.0
C201 C 0.8316 0.6126 0.6837 0.0
C202 C 0.30612 0.10884 0.6192 0.0
C203 C 0.36777 0.19108 0.58905 0.0
C204 C 0.22814 0.06971 0.70738 0.0
C205 C 0.20748 0.11065 0.76909 0.0
H206 H 0.32093 0.07565 0.57562 0.0
H207 H 0.1854 1.00751 0.728 0.0
S208 S 0.33049 0.31845 0.71713 0.0
N209 N 0.3947 0.30831 0.62537 0.0
N210 N 0.24218 0.23142 0.78713 0.0
C211 C 0.26286 0.18994 0.73734 0.0
C212 C 0.34449 0.23098 0.64857 0.0
C213 C 0.60511 0.60234 0.08168 0.0
C214 C 0.54098 0.5155 0.0949 0.0
C215 C 0.57152 0.61703 1.02585 0.0
C216 C 0.47477 0.54591 0.97937 0.0
H217 H 0.68388 0.65952 0.11253 0.0
H218 H 0.61912 0.68391 1.02124 0.0
S219 S 0.27802 0.30721 0.99154 0.0
N220 N 0.37598 0.35794 0.0571 0.0
N221 N 0.31362 0.38618 0.95217 0.0
C222 C 0.4103 0.45932 0.99207 0.0
C223 C 0.44297 0.444 0.04993 0.0
C224 C 0.42297 0.9755 0.94314 0.0
C225 C 0.4466 0.93262 0.94325 0.0
C226 C 0.44295 0.03149 1.01626 0.0
C227 C 0.48758 0.04716 0.09279 0.0
H228 H 0.38921 0.96615 0.88567 0.0
H229 H 0.42422 0.06332 1.01222 0.0
S230 S 0.55117 0.94272 0.13191 0.0
N231 N 0.5077 0.90408 0.03042 0.0
N232 N 0.54725 0.00967 0.16644 0.0
C233 C 0.5094 1.00317 0.09446 0.0
C234 C 0.48849 0.94596 1.02022 0.0
C235 C -0.00783 0.4478 0.96211 0.0
C236 C 0.08001 0.53928 0.94039 0.0
C237 C 0.90996 0.40892 0.04829 0.0
C238 C 0.91111 0.45948 0.11668 0.0
H239 H 0.98458 0.40505 0.9113 0.0
H240 H 0.84331 0.33787 0.0604 0.0
S241 S 0.12022 0.70128 0.09298 0.0
N242 N 0.16608 0.68048 0.9965 0.0
N243 N 0.00448 0.60525 0.1534 0.0
C244 C 0.00025 0.55147 0.09668 0.0
C245 C 0.08672 0.59191 1.01007 0.0
loop_
_geom_bond_atom_site_label_1
_geom_bond_atom_site_label_2
_geom_bond_distance
_geom_bond_site_symmetry_2
_ccdc_geom_bond_type
C0 C1 1.387 . S
C0 C5 1.380 1_545 S
C0 C16 1.494 . S
C1 C0 1.387 . S
C1 C2 1.386 1_545 S
C1 H32 0.930 . S
C2 C1 1.386 1_565 S
C2 C3 1.397 . S
C3 C2 1.397 . S
C3 C4 1.393 . S
C3 H33 0.930 . S
C4 C3 1.393 . S
C4 C5 1.395 . S
C5 C0 1.380 1_565 S
C5 C4 1.395 . S
C5 H34 0.930 . S
O6 Tb7 2.294 1_665 S
O6 C19 1.243 . S
Tb7 O6 2.294 1_445 S
Tb7 O8 2.312 . S
Tb7 O11 2.438 . S
Tb7 O13 2.472 . S
Tb7 O15 2.308 1_554 S
Tb7 C16 2.821 . S
O8 Tb7 2.312 . S
O8 C28 1.264 . S
O9 Eu10 2.308 1_554 S
O9 C19 1.243 . S
Eu10 O9 2.308 1_556 S
Eu10 C12 2.821 . S
Eu10 O14 2.293 1_665 S
Eu10 O21 2.312 . S
Eu10 O30 2.438 . S
Eu10 O31 2.472 . S
O11 Tb7 2.438 . S
O11 C16 1.263 . S
C12 Eu10 2.821 . S
C12 C22 1.494 . S
C12 O30 1.263 . S
C12 O31 1.264 . S
O13 Tb7 2.472 . S
O13 C16 1.264 . S
O14 Eu10 2.293 1_445 S
O14 C20 1.245 . S
O15 Tb7 2.308 1_556 S
O15 C20 1.243 . S
C16 C0 1.494 . S
C16 Tb7 2.821 . S
C16 O11 1.263 . S
C16 O13 1.264 . S
C17 O18 1.260 . S
C17 O21 1.264 . S
O18 C17 1.260 . S
C19 O6 1.243 . S
C19 O9 1.243 . S
C20 O14 1.245 . S
C20 O15 1.243 . S
O21 Eu10 2.312 . S
O21 C17 1.264 . S
C22 C12 1.494 . S
C22 C24 1.380 1_565 S
C22 C25 1.387 . S
C23 C24 1.395 . S
C23 C27 1.393 . S
C24 C22 1.380 1_545 S
C24 C23 1.395 . S
C24 H35 0.930 . S
C25 C22 1.387 . S
C25 C26 1.386 1_565 S
C25 H36 0.930 . S
C26 C25 1.386 1_545 S
C26 C27 1.397 . S
C27 C23 1.393 . S
C27 C26 1.397 . S
C27 H37 0.930 . S
C28 O8 1.264 . S
C28 O29 1.260 . S
O29 C28 1.260 . S
O30 Eu10 2.438 . S
O30 C12 1.263 . S
O31 Eu10 2.472 . S
O31 C12 1.264 . S
H32 C1 0.930 . S
H33 C3 0.930 . S
H34 C5 0.930 . S
H35 C24 0.930 . S
H36 C25 0.930 . S
H37 C27 0.930 . S
C38 C39 1.387 . S
C38 C43 1.380 . S
C38 C54 1.494 . S
C39 C38 1.387 . S
C39 C40 1.386 . S
C39 H70 0.930 . S
C40 C39 1.386 . S
C40 C41 1.397 . S
C41 C40 1.397 . S
C41 C42 1.393 . S
C41 H71 0.930 . S
C42 C41 1.393 . S
C42 C43 1.395 . S
C43 C38 1.380 . S
C43 C42 1.395 . S
C43 H72 0.930 . S
O44 Tb45 2.295 . S
O44 C57 1.242 . S
Tb45 O44 2.295 . S
Tb45 O46 2.312 . S
Tb45 O49 2.438 . S
Tb45 O51 2.472 . S
Tb45 O53 2.308 . S
Tb45 C54 2.821 . S
O46 Tb45 2.312 . S
O46 C66 1.264 . S
O47 Eu48 2.308 . S
O47 C57 1.243 . S
Eu48 O47 2.308 . S
Eu48 C50 2.821 . S
Eu48 O52 2.295 . S
Eu48 O59 2.312 . S
Eu48 O68 2.438 . S
Eu48 O69 2.472 . S
O49 Tb45 2.438 . S
O49 C54 1.263 . S
C50 Eu48 2.821 . S
C50 C60 1.494 . S
C50 O68 1.263 . S
C50 O69 1.264 . S
O51 Tb45 2.472 . S
O51 C54 1.264 . S
O52 Eu48 2.295 . S
O52 C58 1.242 . S
O53 Tb45 2.308 . S
O53 C58 1.243 . S
C54 C38 1.494 . S
C54 Tb45 2.821 . S
C54 O49 1.263 . S
C54 O51 1.264 . S
C55 O56 1.260 . S
C55 O59 1.264 . S
O56 C55 1.260 . S
C57 O44 1.242 . S
C57 O47 1.243 . S
C58 O52 1.242 . S
C58 O53 1.243 . S
O59 Eu48 2.312 . S
O59 C55 1.264 . S
C60 C50 1.494 . S
C60 C62 1.380 . S
C60 C63 1.387 . S
C61 C62 1.395 . S
C61 C65 1.393 . S
C62 C60 1.380 . S
C62 C61 1.395 . S
C62 H73 0.930 . S
C63 C60 1.387 . S
C63 C64 1.386 1_554 S
C63 H74 0.930 . S
C64 C63 1.386 1_556 S
C64 C65 1.397 1_556 S
C65 C61 1.393 . S
C65 C64 1.397 1_554 S
C65 H75 0.930 1_554 S
C66 O46 1.264 . S
C66 O67 1.260 . S
O67 C66 1.260 . S
O68 Eu48 2.438 . S
O68 C50 1.263 . S
O69 Eu48 2.472 . S
O69 C50 1.264 . S
H70 C39 0.930 . S
H71 C41 0.930 . S
H72 C43 0.930 . S
H73 C62 0.930 . S
H74 C63 0.930 . S
H75 C65 0.930 1_556 S
C76 C77 1.387 . S
C76 C81 1.380 . S
C76 C92 1.494 . S
C77 C76 1.387 . S
C77 C78 1.386 1_556 S
C77 H108 0.930 . S
C78 C77 1.386 1_554 S
C78 C79 1.397 1_554 S
C79 C78 1.397 1_556 S
C79 C80 1.393 . S
C79 H109 0.930 1_556 S
C80 C79 1.393 . S
C80 C81 1.395 . S
C81 C76 1.380 . S
C81 C80 1.395 . S
C81 H110 0.930 . S
O82 Tb83 2.295 . S
O82 C95 1.242 . S
Tb83 O82 2.295 . S
Tb83 O84 2.312 . S
Tb83 O87 2.438 . S
Tb83 O89 2.472 . S
Tb83 O91 2.308 . S
Tb83 C92 2.821 . S
O84 Tb83 2.312 . S
O84 C104 1.264 . S
O85 Eu86 2.308 . S
O85 C95 1.243 . S
Eu86 O85 2.308 . S
Eu86 C88 2.821 . S
Eu86 O90 2.295 . S
Eu86 O97 2.312 . S
Eu86 O106 2.438 . S
Eu86 O107 2.472 . S
O87 Tb83 2.438 . S
O87 C92 1.263 . S
C88 Eu86 2.821 . S
C88 C98 1.494 . S
C88 O106 1.263 . S
C88 O107 1.264 . S
O89 Tb83 2.472 . S
O89 C92 1.264 . S
O90 Eu86 2.295 . S
O90 C96 1.242 . S
O91 Tb83 2.308 . S
O91 C96 1.243 . S
C92 C76 1.494 . S
C92 Tb83 2.821 . S
C92 O87 1.263 . S
C92 O89 1.264 . S
C93 O94 1.260 . S
C93 O97 1.264 . S
O94 C93 1.260 . S
C95 O82 1.242 . S
C95 O85 1.243 . S
C96 O90 1.242 . S
C96 O91 1.243 . S
O97 Eu86 2.312 . S
O97 C93 1.264 . S
C98 C88 1.494 . S
C98 C100 1.380 . S
C98 C101 1.387 . S
C99 C100 1.395 . S
C99 C103 1.393 . S
C100 C98 1.380 . S
C100 C99 1.395 . S
C100 H111 0.930 . S
C101 C98 1.387 . S
C101 C102 1.386 . S
C101 H112 0.930 . S
C102 C101 1.386 . S
C102 C103 1.397 . S
C103 C99 1.393 . S
C103 C102 1.397 . S
C103 H113 0.930 . S
C104 O84 1.264 . S
C104 O105 1.260 . S
O105 C104 1.260 . S
O106 Eu86 2.438 . S
O106 C88 1.263 . S
O107 Eu86 2.472 . S
O107 C88 1.264 . S
H108 C77 0.930 . S
H109 C79 0.930 1_554 S
H110 C81 0.930 . S
H111 C100 0.930 . S
H112 C101 0.930 . S
H113 C103 0.930 . S
C114 C115 1.369 1_565 S
C114 C116 1.419 . S
C114 H118 0.930 . S
C115 C114 1.369 1_545 S
C115 C124 1.429 1_655 S
C116 C114 1.419 . S
C116 C117 1.361 1_665 S
C116 H119 0.929 . S
C117 C116 1.361 1_445 S
C117 C123 1.441 . S
H118 C114 0.930 . S
H119 C116 0.929 . S
S120 N121 1.613 . S
S120 N122 1.610 . S
N121 S120 1.613 . S
N121 C124 1.350 . S
N122 S120 1.610 . S
N122 C123 1.351 . S
C123 C117 1.441 . S
C123 N122 1.351 . S
C123 C124 1.434 . S
C124 C115 1.429 1_455 S
C124 N121 1.350 . S
C124 C123 1.434 . S
C125 C126 1.369 . S
C125 C127 1.419 . S
C125 H129 0.930 . S
C126 C125 1.369 . S
C126 C135 1.429 . S
C127 C125 1.419 . S
C127 C128 1.363 . S
C127 H130 0.929 . S
C128 C127 1.363 . S
C128 C134 1.428 . S
H129 C125 0.930 . S
H130 C127 0.929 . S
S131 N132 1.613 . S
S131 N133 1.610 . S
N132 S131 1.613 . S
N132 C135 1.350 . S
N133 S131 1.610 . S
N133 C134 1.351 . S
C134 C128 1.428 . S
C134 N133 1.351 . S
C134 C135 1.434 . S
C135 C126 1.429 . S
C135 N132 1.350 . S
C135 C134 1.434 . S
C136 C137 1.369 . S
C136 C138 1.419 . S
C136 H140 0.930 . S
C137 C136 1.369 . S
C137 C146 1.429 . S
C138 C136 1.419 . S
C138 C139 1.363 . S
C138 H141 0.929 . S
C139 C138 1.363 . S
C139 C145 1.428 . S
H140 C136 0.930 . S
H141 C138 0.929 . S
S142 N143 1.613 . S
S142 N144 1.610 . S
N143 S142 1.613 . S
N143 C146 1.350 . S
N144 S142 1.610 . S
N144 C145 1.351 . S
C145 C139 1.428 . S
C145 N144 1.351 . S
C145 C146 1.434 . S
C146 C137 1.429 . S
C146 N143 1.350 . S
C146 C145 1.434 . S
C147 C148 1.369 . S
C147 C149 1.419 . S
C147 H151 0.930 . S
C148 C147 1.369 . S
C148 C157 1.429 . S
C149 C147 1.419 . S
C149 C150 1.363 . S
C149 H152 0.929 . S
C150 C149 1.363 . S
C150 C156 1.428 . S
H151 C147 0.930 . S
H152 C149 0.929 . S
S153 N154 1.613 . S
S153 N155 1.610 . S
N154 S153 1.613 . S
N154 C157 1.350 1_655 S
N155 S153 1.610 . S
N155 C156 1.351 1_655 S
C156 C150 1.428 . S
C156 N155 1.351 1_455 S
C156 C157 1.434 . S
C157 C148 1.429 . S
C157 N154 1.350 1_455 S
C157 C156 1.434 . S
C158 C159 1.369 . S
C158 C160 1.419 . S
C158 H162 0.930 . S
C159 C158 1.369 . S
C159 C168 1.429 . S
C160 C158 1.419 . S
C160 C161 1.363 . S
C160 H163 0.929 1_455 S
C161 C160 1.363 . S
C161 C167 1.428 . S
H162 C158 0.930 . S
H163 C160 0.929 1_655 S
S164 N165 1.613 . S
S164 N166 1.610 . S
N165 S164 1.613 . S
N165 C168 1.350 . S
N166 S164 1.610 . S
N166 C167 1.351 . S
C167 C161 1.428 . S
C167 N166 1.351 . S
C167 C168 1.434 . S
C168 C159 1.429 . S
C168 N165 1.350 . S
C168 C167 1.434 . S
C169 C170 1.369 . S
C169 C171 1.419 . S
C169 H173 0.930 . S
C170 C169 1.369 . S
C170 C179 1.429 . S
C171 C169 1.419 . S
C171 C172 1.363 . S
C171 H174 0.929 . S
C172 C171 1.363 . S
C172 C178 1.428 . S
H173 C169 0.930 . S
H174 C171 0.929 . S
S175 N176 1.613 . S
S175 N177 1.610 . S
N176 S175 1.613 . S
N176 C179 1.350 . S
N177 S175 1.610 . S
N177 C178 1.351 . S
C178 C172 1.428 . S
C178 N177 1.351 . S
C178 C179 1.434 . S
C179 C170 1.429 . S
C179 N176 1.350 . S
C179 C178 1.434 . S
C180 C181 1.369 . S
C180 C182 1.419 . S
C180 H184 0.930 . S
C181 C180 1.369 . S
C181 C190 1.429 . S
C182 C180 1.419 . S
C182 C183 1.363 . S
C182 H185 0.929 . S
C183 C182 1.363 . S
C183 C189 1.428 . S
H184 C180 0.930 . S
H185 C182 0.929 . S
S186 N187 1.613 1_565 S
S186 N188 1.610 1_565 S
N187 S186 1.613 1_545 S
N187 C190 1.350 . S
N188 S186 1.610 1_545 S
N188 C189 1.351 . S
C189 C183 1.428 . S
C189 N188 1.351 . S
C189 C190 1.434 . S
C190 C181 1.429 . S
C190 N187 1.350 . S
C190 C189 1.434 . S
C191 C192 1.369 . S
C191 C193 1.419 . S
C191 H195 0.930 . S
C192 C191 1.369 . S
C192 C201 1.429 . S
C193 C191 1.419 . S
C193 C194 1.363 . S
C193 H196 0.929 1_655 S
C194 C193 1.363 . S
C194 C200 1.428 . S
H195 C191 0.930 . S
H196 C193 0.929 1_455 S
S197 N198 1.613 . S
S197 N199 1.610 . S
N198 S197 1.613 . S
N198 C201 1.350 . S
N199 S197 1.610 . S
N199 C200 1.351 . S
C200 C194 1.428 . S
C200 N199 1.351 . S
C200 C201 1.434 . S
C201 C192 1.429 . S
C201 N198 1.350 . S
C201 C200 1.434 . S
C202 C203 1.369 . S
C202 C204 1.419 . S
C202 H206 0.930 . S
C203 C202 1.369 . S
C203 C212 1.429 . S
C204 C202 1.419 . S
C204 C205 1.363 . S
C204 H207 0.929 . S
C205 C204 1.363 . S
C205 C211 1.428 . S
H206 C202 0.930 . S
H207 C204 0.929 . S
S208 N209 1.613 . S
S208 N210 1.610 . S
N209 S208 1.613 . S
N209 C212 1.350 . S
N210 S208 1.610 . S
N210 C211 1.351 . S
C211 C205 1.428 . S
C211 N210 1.351 . S
C211 C212 1.434 . S
C212 C203 1.429 . S
C212 N209 1.350 . S
C212 C211 1.434 . S
C213 C214 1.369 . S
C213 C215 1.419 1_554 S
C213 H217 0.930 . S
C214 C213 1.369 . S
C214 C223 1.429 . S
C215 C213 1.419 1_556 S
C215 C216 1.363 . S
C215 H218 0.929 . S
C216 C215 1.363 . S
C216 C222 1.428 . S
H217 C213 0.930 . S
H218 C215 0.929 . S
S219 N220 1.613 . S
S219 N221 1.610 1_554 S
N220 S219 1.613 . S
N220 C223 1.350 . S
N221 S219 1.610 1_556 S
N221 C222 1.351 . S
C222 C216 1.428 . S
C222 N221 1.351 . S
C222 C223 1.434 1_556 S
C223 C214 1.429 . S
C223 N220 1.350 . S
C223 C222 1.434 1_554 S
C224 C225 1.369 1_545 S
C224 C226 1.419 . S
C224 H228 0.930 . S
C225 C224 1.369 1_565 S
C225 C234 1.429 1_556 S
C226 C224 1.419 . S
C226 C227 1.363 1_556 S
C226 H229 0.929 . S
C227 C226 1.363 1_554 S
C227 C233 1.428 1_545 S
H228 C224 0.930 . S
H229 C226 0.929 . S
S230 N231 1.613 . S
S230 N232 1.610 . S
N231 S230 1.613 . S
N231 C234 1.350 . S
N232 S230 1.610 . S
N232 C233 1.351 . S
C233 C227 1.428 1_565 S
C233 N232 1.351 . S
C233 C234 1.434 . S
C234 C225 1.429 1_554 S
C234 N231 1.350 . S
C234 C233 1.434 . S
C235 C236 1.369 . S
C235 C237 1.419 1_556 S
C235 H239 0.930 . S
C236 C235 1.369 . S
C236 C245 1.429 1_455 S
C237 C235 1.419 1_554 S
C237 C238 1.363 1_455 S
C237 H240 0.929 . S
C238 C237 1.363 1_655 S
C238 C244 1.428 . S
H239 C235 0.930 . S
H240 C237 0.929 . S
S241 N242 1.613 1_554 S
S241 N243 1.610 . S
N242 S241 1.613 1_556 S
N242 C245 1.350 . S
N243 S241 1.610 . S
N243 C244 1.351 . S
C244 C238 1.428 . S
C244 N243 1.351 . S
C244 C245 1.434 1_554 S
C245 C236 1.429 1_655 S
C245 N242 1.350 . S
C245 C244 1.434 1_556 S
C115 C26 1.462 . S
C117 C2 1.451 1_545 S
C126 C40 1.452 . S
C128 C64 1.465 . S
C137 C78 1.459 . S
C139 C102 1.459 . S
C148 C99 2.229 . S
C150 C4 2.227 . S
C159 C93 1.500 . S
C161 C28 1.490 . S
C170 C96 1.770 . S
C172 C19 1.772 . S
C181 C42 2.232 . S
C183 C23 2.225 . S
C192 C66 1.501 . S
C194 C17 1.494 . S
C203 C57 1.774 . S
C205 C20 1.770 . S
C214 C61 2.224 . S
C216 C80 2.231 . S
C225 C104 1.499 . S
C227 C55 1.493 . S
C236 C95 1.774 . S
C238 C58 1.769 . S
