# Generated by pormake.
# Topology umw, (4)-cn, num edge types: 1
# Building blocks:
#     Node 0, Type 0, BuildingBlock: QUQFOY_clean_sbu_3, # of connection points: 4
#     Node 1, Type 0, BuildingBlock: QUQFOY_clean_sbu_3, # of connection points: 4
#     Node 2, Type 0, BuildingBlock: QUQFOY_clean_sbu_3, # of connection points: 4
#     Node 3, Type 0, BuildingBlock: QUQFOY_clean_sbu_3, # of connection points: 4
#     Node 4, Type 0, BuildingBlock: QUQFOY_clean_sbu_3, # of connection points: 4
#     Node 5, Type 0, BuildingBlock: QUQFOY_clean_sbu_3, # of connection points: 4
#     Node 6, Type 0, BuildingBlock: QUQFOY_clean_sbu_3, # of connection points: 4
#     Node 7, Type 0, BuildingBlock: QUQFOY_clean_sbu_3, # of connection points: 4
#     Edge 8, Type (0, 0), None
#     Edge 9, Type (0, 0), None
#     Edge 10, Type (0, 0), None
#     Edge 11, Type (0, 0), None
#     Edge 12, Type (0, 0), None
#     Edge 13, Type (0, 0), None
#     Edge 14, Type (0, 0), None
#     Edge 15, Type (0, 0), None
#     Edge 16, Type (0, 0), None
#     Edge 17, Type (0, 0), None
#     Edge 18, Type (0, 0), None
#     Edge 19, Type (0, 0), None
#     Edge 20, Type (0, 0), None
#     Edge 21, Type (0, 0), None
#     Edge 22, Type (0, 0), None
#     Edge 23, Type (0, 0), None
# Relax obj value: 0.114
# Max RMSD: 0.101
# Mean RMSD: 0.101
data_MOF--net-umw--node1-QUQFOY_clean_sbu_3--edge1-none
_symmetry_space_group_name_H-M    P1
_symmetry_Int_Tables_number       1
_symmetry_cell_setting            triclinic
loop_
_symmetry_equiv_pos_as_xyz
'x, y, z'
_cell_length_a     21.103153
_cell_length_b     21.103613
_cell_length_c     13.271208
_cell_angle_alpha  89.99993
_cell_angle_beta   90.000156
_cell_angle_gamma 89.999449
loop_
_atom_site_label
_atom_site_type_symbol
_atom_site_fract_x
_atom_site_fract_y
_atom_site_fract_z
_atom_type_partial_charge
C0 C 0.46278 0.17051 0.0399 0.0
O1 O 0.51524 0.1651 0.08565 0.0
Cd2 Cd 0.52261 0.12813 0.25476 0.0
O3 O 0.41013 0.1643 0.0872 0.0
Cd4 Cd 0.37035 0.14637 0.26601 0.0
C5 C 0.41875 -0.00226 0.23914 0.0
O6 O 0.45779 0.18716 0.36357 0.0
O7 O 0.40221 0.11139 0.42971 0.0
O8 O 0.32186 0.24625 0.30239 0.0
C9 C 0.44299 0.15485 0.44054 0.0
O10 O 0.47279 0.02443 0.24571 0.0
C11 C 0.26911 0.22537 0.33372 0.0
O12 O 0.36761 0.03015 0.23939 0.0
O13 O 0.25819 0.16653 0.32123 0.0
C14 C 0.75557 0.46277 0.28989 0.0
O15 O 0.76098 0.51523 0.33564 0.0
Cd16 Cd 0.79794 0.52261 0.50475 0.0
O17 O 0.76179 0.41012 0.33719 0.0
Cd18 Cd 0.77972 0.37034 0.516 0.0
C19 C 0.92835 0.41876 0.48913 0.0
O20 O 0.73892 0.45778 0.61356 0.0
O21 O 0.8147 0.40221 0.67971 0.0
O22 O 0.67985 0.32185 0.55238 0.0
C23 C 0.77123 0.44298 0.69053 0.0
O24 O 0.90165 0.4728 0.4957 0.0
C25 C 0.70074 0.2691 0.58372 0.0
O26 O 0.89595 0.36762 0.48938 0.0
O27 O 0.75958 0.25819 0.57123 0.0
C28 C 0.46329 0.75559 0.5399 0.0
O29 O 0.41083 0.761 0.58564 0.0
Cd30 Cd 0.40346 0.79797 0.75476 0.0
O31 O 0.51594 0.7618 0.5872 0.0
Cd32 Cd 0.55572 0.77972 0.76601 0.0
C33 C 0.50732 0.92836 0.73914 0.0
O34 O 0.46828 0.73894 0.86357 0.0
O35 O 0.52386 0.81471 0.92971 0.0
O36 O 0.60421 0.67985 0.80239 0.0
C37 C 0.48308 0.77125 -0.05946 0.0
O38 O 0.45328 0.90166 0.74571 0.0
C39 C 0.65696 0.70073 0.83372 0.0
O40 O 0.55846 0.89595 0.73939 0.0
O41 O 0.66788 0.75957 0.82123 0.0
C42 C 0.1705 0.46333 0.78989 0.0
O43 O 0.1651 0.41087 0.83564 0.0
Cd44 Cd 0.12813 0.40349 0.00475 0.0
O45 O 0.16429 0.51597 0.83719 0.0
Cd46 Cd 0.14635 0.55575 0.016 0.0
C47 C -0.00228 0.50733 -0.01087 0.0
O48 O 0.18715 0.46832 0.11356 0.0
O49 O 0.11137 0.52389 0.1797 0.0
O50 O 0.24622 0.60424 0.05238 0.0
C51 C 0.15484 0.48312 0.19053 0.0
O52 O 0.02442 0.4533 -0.00431 0.0
C53 C 0.22533 0.65699 0.08372 0.0
O54 O 0.03012 0.55847 -0.01062 0.0
O55 O 0.1665 0.66791 0.07123 0.0
C56 C 0.46272 0.75557 0.42888 0.0
O57 O 0.51519 0.76098 0.38315 0.0
Cd58 Cd 0.52259 0.79794 0.21404 0.0
O59 O 0.41007 0.7618 0.38159 0.0
Cd60 Cd 0.3703 0.77972 0.20277 0.0
C61 C 0.41874 0.92835 0.22964 0.0
O62 O 0.45775 0.73893 0.10523 0.0
O63 O 0.40216 0.8147 0.03906 0.0
O64 O 0.32182 0.67985 0.16636 0.0
C65 C 0.44296 0.77125 0.02827 0.0
O66 O 0.47278 0.90164 0.22309 0.0
C67 C 0.26907 0.70074 0.13503 0.0
O68 O 0.3676 0.89595 0.22938 0.0
O69 O 0.25814 0.75957 0.14755 0.0
C70 C 0.17052 0.46275 0.67887 0.0
O71 O 0.16511 0.51522 0.63314 0.0
Cd72 Cd 0.12815 0.52262 0.46403 0.0
O73 O 0.1643 0.41011 0.63158 0.0
Cd74 Cd 0.14638 0.37034 0.45276 0.0
C75 C -0.00226 0.41877 0.47963 0.0
O76 O 0.18716 0.45779 0.35522 0.0
O77 O 0.11139 0.40219 0.28905 0.0
O78 O 0.24625 0.32186 0.41635 0.0
C79 C 0.15484 0.44299 0.27827 0.0
O80 O 0.02444 0.4728 0.47308 0.0
C81 C 0.22537 0.26911 0.38503 0.0
O82 O 0.03015 0.36762 0.47938 0.0
O83 O 0.16654 0.25818 0.39755 0.0
C84 C 0.46335 0.17053 0.92888 0.0
O85 O 0.41088 0.16512 0.88315 0.0
Cd86 Cd 0.40348 0.12816 0.71405 0.0
O87 O 0.516 0.1643 0.88159 0.0
Cd88 Cd 0.55577 0.14637 0.70277 0.0
C89 C 0.50733 -0.00225 0.72964 0.0
O90 O 0.46832 0.18717 0.60523 0.0
O91 O 0.52391 0.11139 0.53906 0.0
O92 O 0.60425 0.24625 0.66636 0.0
C93 C 0.48311 0.15484 0.52828 0.0
O94 O 0.45329 0.02446 0.72309 0.0
C95 C 0.657 0.22536 0.63503 0.0
O96 O 0.55847 0.03015 0.72938 0.0
O97 O 0.66793 0.16653 0.64755 0.0
C98 C 0.75555 0.46334 0.17887 0.0
O99 O 0.76096 0.41087 0.13314 0.0
Cd100 Cd 0.79792 0.40348 -0.03597 0.0
O101 O 0.76177 0.51599 0.13158 0.0
Cd102 Cd 0.77969 0.55576 -0.04724 0.0
C103 C 0.92833 0.50733 -0.02037 0.0
O104 O 0.73891 0.46831 0.85522 0.0
O105 O 0.81468 0.52391 0.78905 0.0
O106 O 0.67982 0.60424 0.91635 0.0
C107 C 0.77123 0.48311 0.77827 0.0
O108 O 0.90163 0.45329 -0.02692 0.0
C109 C 0.7007 0.65699 0.88503 0.0
O110 O 0.89592 0.55847 -0.02062 0.0
O111 O 0.75953 0.66792 0.89755 0.0
loop_
_geom_bond_atom_site_label_1
_geom_bond_atom_site_label_2
_geom_bond_distance
_geom_bond_site_symmetry_2
_ccdc_geom_bond_type
C0 O1 1.306 . S
C0 O3 1.160 . S
O1 C0 1.306 . S
O1 Cd2 2.228 . S
Cd2 O1 2.228 . S
Cd2 O6 2.273 . S
Cd2 O10 2.277 . S
O3 C0 1.160 . S
O3 Cd4 2.203 . S
Cd4 O3 2.203 . S
Cd4 O6 2.411 . S
Cd4 O7 2.333 . S
Cd4 O8 2.352 . S
Cd4 O12 2.277 . S
Cd4 O13 2.356 . S
C5 O10 1.209 . S
C5 O12 1.226 . S
O6 Cd2 2.273 . S
O6 Cd4 2.411 . S
O6 C9 1.320 . S
O7 Cd4 2.333 . S
O7 C9 1.214 . S
O8 Cd4 2.352 . S
O8 C11 1.258 . S
C9 O6 1.320 . S
C9 O7 1.214 . S
O10 Cd2 2.277 . S
O10 C5 1.209 . S
C11 O8 1.258 . S
C11 O13 1.282 . S
O12 Cd4 2.277 . S
O12 C5 1.226 . S
O13 Cd4 2.356 . S
O13 C11 1.282 . S
C14 O15 1.306 . S
C14 O17 1.160 . S
O15 C14 1.306 . S
O15 Cd16 2.228 . S
Cd16 O15 2.228 . S
Cd16 O20 2.273 . S
Cd16 O24 2.277 . S
O17 C14 1.160 . S
O17 Cd18 2.203 . S
Cd18 O17 2.203 . S
Cd18 O20 2.411 . S
Cd18 O21 2.333 . S
Cd18 O22 2.352 . S
Cd18 O26 2.277 . S
Cd18 O27 2.356 . S
C19 O24 1.209 . S
C19 O26 1.226 . S
O20 Cd16 2.273 . S
O20 Cd18 2.411 . S
O20 C23 1.320 . S
O21 Cd18 2.333 . S
O21 C23 1.214 . S
O22 Cd18 2.352 . S
O22 C25 1.258 . S
C23 O20 1.320 . S
C23 O21 1.214 . S
O24 Cd16 2.277 . S
O24 C19 1.209 . S
C25 O22 1.258 . S
C25 O27 1.282 . S
O26 Cd18 2.277 . S
O26 C19 1.226 . S
O27 Cd18 2.356 . S
O27 C25 1.282 . S
C28 O29 1.306 . S
C28 O31 1.160 . S
O29 C28 1.306 . S
O29 Cd30 2.228 . S
Cd30 O29 2.228 . S
Cd30 O34 2.273 . S
Cd30 O38 2.277 . S
O31 C28 1.160 . S
O31 Cd32 2.203 . S
Cd32 O31 2.203 . S
Cd32 O34 2.411 . S
Cd32 O35 2.333 1_556 S
Cd32 O36 2.352 . S
Cd32 O40 2.277 . S
Cd32 O41 2.356 . S
C33 O38 1.209 . S
C33 O40 1.226 . S
O34 Cd30 2.273 . S
O34 Cd32 2.411 . S
O34 C37 1.320 1_556 S
O35 Cd32 2.333 1_554 S
O35 C37 1.214 . S
O36 Cd32 2.352 . S
O36 C39 1.258 . S
C37 O34 1.320 1_554 S
C37 O35 1.214 . S
O38 Cd30 2.277 . S
O38 C33 1.209 . S
C39 O36 1.258 . S
C39 O41 1.282 . S
O40 Cd32 2.277 . S
O40 C33 1.226 . S
O41 Cd32 2.356 . S
O41 C39 1.282 . S
C42 O43 1.306 . S
C42 O45 1.160 . S
O43 C42 1.306 . S
O43 Cd44 2.228 1_556 S
Cd44 O43 2.228 1_554 S
Cd44 O48 2.273 . S
Cd44 O52 2.277 . S
O45 C42 1.160 . S
O45 Cd46 2.203 1_556 S
Cd46 O45 2.203 1_554 S
Cd46 O48 2.411 . S
Cd46 O49 2.333 . S
Cd46 O50 2.352 . S
Cd46 O54 2.277 . S
Cd46 O55 2.356 . S
C47 O52 1.209 . S
C47 O54 1.226 . S
O48 Cd44 2.273 . S
O48 Cd46 2.411 . S
O48 C51 1.320 . S
O49 Cd46 2.333 . S
O49 C51 1.214 . S
O50 Cd46 2.352 . S
O50 C53 1.258 . S
C51 O48 1.320 . S
C51 O49 1.214 . S
O52 Cd44 2.277 . S
O52 C47 1.209 . S
C53 O50 1.258 . S
C53 O55 1.282 . S
O54 Cd46 2.277 . S
O54 C47 1.226 . S
O55 Cd46 2.356 . S
O55 C53 1.282 . S
C56 O57 1.306 . S
C56 O59 1.160 . S
O57 C56 1.306 . S
O57 Cd58 2.228 . S
Cd58 O57 2.228 . S
Cd58 O62 2.273 . S
Cd58 O66 2.277 . S
O59 C56 1.160 . S
O59 Cd60 2.203 . S
Cd60 O59 2.203 . S
Cd60 O62 2.411 . S
Cd60 O63 2.333 . S
Cd60 O64 2.352 . S
Cd60 O68 2.277 . S
Cd60 O69 2.356 . S
C61 O66 1.209 . S
C61 O68 1.226 . S
O62 Cd58 2.273 . S
O62 Cd60 2.411 . S
O62 C65 1.320 . S
O63 Cd60 2.333 . S
O63 C65 1.214 . S
O64 Cd60 2.352 . S
O64 C67 1.258 . S
C65 O62 1.320 . S
C65 O63 1.214 . S
O66 Cd58 2.277 . S
O66 C61 1.209 . S
C67 O64 1.258 . S
C67 O69 1.282 . S
O68 Cd60 2.277 . S
O68 C61 1.226 . S
O69 Cd60 2.356 . S
O69 C67 1.282 . S
C70 O71 1.306 . S
C70 O73 1.160 . S
O71 C70 1.306 . S
O71 Cd72 2.228 . S
Cd72 O71 2.228 . S
Cd72 O76 2.273 . S
Cd72 O80 2.277 . S
O73 C70 1.160 . S
O73 Cd74 2.203 . S
Cd74 O73 2.203 . S
Cd74 O76 2.411 . S
Cd74 O77 2.333 . S
Cd74 O78 2.352 . S
Cd74 O82 2.277 . S
Cd74 O83 2.356 . S
C75 O80 1.209 . S
C75 O82 1.226 . S
O76 Cd72 2.273 . S
O76 Cd74 2.411 . S
O76 C79 1.320 . S
O77 Cd74 2.333 . S
O77 C79 1.214 . S
O78 Cd74 2.352 . S
O78 C81 1.258 . S
C79 O76 1.320 . S
C79 O77 1.214 . S
O80 Cd72 2.277 . S
O80 C75 1.209 . S
C81 O78 1.258 . S
C81 O83 1.282 . S
O82 Cd74 2.277 . S
O82 C75 1.226 . S
O83 Cd74 2.356 . S
O83 C81 1.282 . S
C84 O85 1.306 . S
C84 O87 1.160 . S
O85 C84 1.306 . S
O85 Cd86 2.228 . S
Cd86 O85 2.228 . S
Cd86 O90 2.273 . S
Cd86 O94 2.277 . S
O87 C84 1.160 . S
O87 Cd88 2.203 . S
Cd88 O87 2.203 . S
Cd88 O90 2.411 . S
Cd88 O91 2.333 . S
Cd88 O92 2.352 . S
Cd88 O96 2.277 . S
Cd88 O97 2.356 . S
C89 O94 1.209 . S
C89 O96 1.226 . S
O90 Cd86 2.273 . S
O90 Cd88 2.411 . S
O90 C93 1.320 . S
O91 Cd88 2.333 . S
O91 C93 1.214 . S
O92 Cd88 2.352 . S
O92 C95 1.258 . S
C93 O90 1.320 . S
C93 O91 1.214 . S
O94 Cd86 2.277 . S
O94 C89 1.209 . S
C95 O92 1.258 . S
C95 O97 1.282 . S
O96 Cd88 2.277 . S
O96 C89 1.226 . S
O97 Cd88 2.356 . S
O97 C95 1.282 . S
C98 O99 1.306 . S
C98 O101 1.160 . S
O99 C98 1.306 . S
O99 Cd100 2.228 . S
Cd100 O99 2.228 . S
Cd100 O104 2.273 1_554 S
Cd100 O108 2.277 . S
O101 C98 1.160 . S
O101 Cd102 2.203 . S
Cd102 O101 2.203 . S
Cd102 O104 2.411 1_554 S
Cd102 O105 2.333 1_554 S
Cd102 O106 2.352 . S
Cd102 O110 2.277 . S
Cd102 O111 2.356 1_554 S
C103 O108 1.209 . S
C103 O110 1.226 . S
O104 Cd100 2.273 1_556 S
O104 Cd102 2.411 1_556 S
O104 C107 1.320 . S
O105 Cd102 2.333 1_556 S
O105 C107 1.214 . S
O106 Cd102 2.352 . S
O106 C109 1.258 1_554 S
C107 O104 1.320 . S
C107 O105 1.214 . S
O108 Cd100 2.277 . S
O108 C103 1.209 . S
C109 O106 1.258 1_556 S
C109 O111 1.282 . S
O110 Cd102 2.277 . S
O110 C103 1.226 . S
O111 Cd102 2.356 1_556 S
O111 C109 1.282 . S
C9 C93 0.791 . S
C23 C107 0.791 . S
C65 C37 0.791 . S
C79 C51 0.791 . S
C11 C81 1.820 . S
C25 C95 1.819 . S
C109 C39 1.820 . S
C53 C67 1.820 . S
C61 C5 1.496 1_565 S
C19 C75 1.497 1_655 S
C33 C89 1.497 1_565 S
C103 C47 1.496 1_655 S
C84 C0 1.475 1_556 S
C98 C14 1.475 . S
C28 C56 1.475 . S
C42 C70 1.475 . S
