# Generated by pormake.
# Topology wmb, (6)-cn, num edge types: 1
# Building blocks:
#     Node 0, Type 0, BuildingBlock: IZENUY_clean_sbu_0, # of connection points: 6
#     Node 1, Type 0, BuildingBlock: IZENUY_clean_sbu_0, # of connection points: 6
#     Node 2, Type 0, BuildingBlock: IZENUY_clean_sbu_0, # of connection points: 6
#     Node 3, Type 0, BuildingBlock: IZENUY_clean_sbu_0, # of connection points: 6
#     Node 4, Type 0, BuildingBlock: IZENUY_clean_sbu_0, # of connection points: 6
#     Node 5, Type 0, BuildingBlock: IZENUY_clean_sbu_0, # of connection points: 6
#     Edge 6, Type (0, 0), None
#     Edge 7, Type (0, 0), None
#     Edge 8, Type (0, 0), None
#     Edge 9, Type (0, 0), None
#     Edge 10, Type (0, 0), None
#     Edge 11, Type (0, 0), None
#     Edge 12, Type (0, 0), None
#     Edge 13, Type (0, 0), None
#     Edge 14, Type (0, 0), None
#     Edge 15, Type (0, 0), None
#     Edge 16, Type (0, 0), None
#     Edge 17, Type (0, 0), None
#     Edge 18, Type (0, 0), None
#     Edge 19, Type (0, 0), None
#     Edge 20, Type (0, 0), None
#     Edge 21, Type (0, 0), None
#     Edge 22, Type (0, 0), None
#     Edge 23, Type (0, 0), None
# Relax obj value: 0.257
# Max RMSD: 0.257
# Mean RMSD: 0.257
data_MOF--net-wmb--node1-IZENUY_clean_sbu_0--edge1-none
_symmetry_space_group_name_H-M    P1
_symmetry_Int_Tables_number       1
_symmetry_cell_setting            triclinic
loop_
_symmetry_equiv_pos_as_xyz
'x, y, z'
_cell_length_a     12.636621
_cell_length_b     12.636819
_cell_length_c     19.21074
_cell_angle_alpha  89.99954
_cell_angle_beta   90.000912
_cell_angle_gamma 120.00155
loop_
_atom_site_label
_atom_site_type_symbol
_atom_site_fract_x
_atom_site_fract_y
_atom_site_fract_z
_atom_type_partial_charge
Fe0 Fe 0.45953 0.1867 0.10855 0.0
Fe1 Fe 0.62396 0.11747 1.02656 0.0
O2 O 0.58391 0.22704 0.05142 0.0
Fe3 Fe 0.67132 0.3791 1.02301 0.0
O4 O 0.71854 0.42796 0.11445 0.0
O5 O 0.52852 0.33699 0.1486 0.0
O6 O 0.53665 0.15077 0.17503 0.0
C7 C 0.57015 0.07319 0.17034 0.0
C8 C 0.42667 0.34279 1.03079 0.0
O9 O 0.58069 0.03541 0.11092 0.0
C10 C 0.64573 0.25036 0.90316 0.0
O11 O 0.37096 1.02406 0.07956 0.0
O12 O 0.47434 1.02391 0.98929 0.0
O13 O 0.54275 0.40916 1.02813 0.0
O14 O 0.37798 0.23041 0.0466 0.0
C15 C 0.85333 0.31108 0.0377 0.0
O16 O 0.67017 0.18176 0.93992 0.0
O17 O 0.63013 0.33287 0.93132 0.0
C18 C 0.37994 0.97047 1.02568 0.0
O19 O 0.77999 0.2052 0.05965 0.0
O20 O 0.81457 0.37754 1.01219 0.0
C21 C 0.64042 0.40282 0.16238 0.0
Fe22 Fe 0.96231 0.52243 0.69322 0.0
Fe23 Fe 0.70067 0.30816 0.68967 0.0
O24 O 0.85273 0.37282 0.71808 0.0
Fe25 Fe 0.89306 0.28877 0.77522 0.0
O26 O 0.92899 0.40183 0.84169 0.0
O27 O 1.04435 0.56122 0.77758 0.0
O28 O 0.87457 0.59073 0.7263 0.0
C29 C 0.7687 0.5582 0.70435 0.0
C30 C 0.10929 0.4254 0.69235 0.0
O31 O 0.70223 0.45297 0.67885 0.0
C32 C 0.73697 0.09982 0.69745 0.0
O33 O 0.89801 0.50434 0.60658 0.0
O34 O 0.74689 0.31319 0.59798 0.0
O35 O 0.0557 0.36284 0.74623 0.0
O36 O 0.05586 0.46637 0.65596 0.0
C37 C 0.67695 0.25355 0.82904 0.0
O38 O 0.6706 0.14953 0.6948 0.0
O39 O 0.84935 0.16352 0.71326 0.0
C40 C 0.8294 0.4113 0.56982 0.0
O41 O 0.65181 0.30653 0.78111 0.0
O42 O 0.74276 0.20747 0.81526 0.0
C43 C 1.00658 0.5129 0.83701 0.0
Fe44 Fe 0.79099 0.62024 0.44189 0.0
Fe45 Fe 0.55732 0.45582 0.35989 0.0
O46 O 0.70694 0.49586 0.38475 0.0
Fe47 Fe 0.77159 0.40846 0.35633 0.0
O48 O 0.77322 0.36123 0.44777 0.0
O49 O 0.87229 0.55124 0.48192 0.0
O50 O 0.67793 0.54311 0.50836 0.0
C51 C 0.56685 0.50962 0.50368 0.0
C52 C 0.97994 0.65311 0.36412 0.0
O53 O 0.51854 0.49908 0.44425 0.0
C54 C 0.66846 0.4341 0.2365 0.0
O55 O 0.71693 0.70882 0.4129 0.0
O56 O 0.61338 0.60545 0.32263 0.0
O57 O 0.93022 0.53702 0.36146 0.0
O58 O 0.91624 0.70178 0.37993 0.0
C59 C 0.52155 0.22645 0.37101 0.0
O60 O 0.5754 0.40964 0.27324 0.0
O61 O 0.76657 0.44965 0.26465 0.0
C62 C 0.65435 0.69985 0.35903 0.0
O63 O 0.48901 0.29978 0.39296 0.0
O64 O 0.62678 0.26522 0.34551 0.0
C65 C 0.82621 0.43934 0.4957 0.0
Fe66 Fe 0.39503 0.65533 0.04291 0.0
Fe67 Fe 0.20264 0.44352 0.95736 0.0
O68 O 0.24296 0.56792 1.01449 0.0
Fe69 Fe 0.13339 0.60799 0.03935 0.0
O70 O 0.22116 0.76402 1.00625 0.0
O71 O 0.39348 0.79857 0.05372 0.0
O72 O 0.4439 0.70254 0.95146 0.0
C73 C 0.41877 0.62442 0.90354 0.0
C74 C 0.2663 0.62978 0.16276 0.0
O75 O 0.35294 0.51252 0.91732 0.0
C76 C 0.98647 0.36397 0.04025 0.0
O77 O 0.42511 0.52678 0.03779 0.0
O78 O 0.24636 0.36199 1.01932 0.0
O79 O 0.19769 0.65421 0.12599 0.0
O80 O 0.3488 0.61416 0.1346 0.0
C81 C 0.08925 0.55426 0.89559 0.0
O82 O 1.03999 0.35495 0.98636 0.0
O83 O 1.03978 0.4584 0.07662 0.0
C84 C 0.35873 0.4107 0.03515 0.0
O85 O 0.16671 0.52062 0.89087 0.0
O86 O 0.05135 0.56472 0.95499 0.0
C87 C 0.32704 0.83734 1.02819 0.0
Fe88 Fe 0.42444 0.75563 0.70958 0.0
Fe89 Fe 0.63625 0.77506 0.62403 0.0
O90 O 0.51185 0.69098 0.68117 0.0
Fe91 Fe 0.47177 0.54133 0.70601 0.0
O92 O 0.31575 0.47308 0.67292 0.0
O93 O 0.2812 0.61084 0.72039 0.0
O94 O 0.37722 0.75728 0.61813 0.0
C95 C 0.45534 0.81028 0.57021 0.0
C96 C 0.45004 0.65247 0.82941 0.0
O97 O 0.56724 0.85636 0.58399 0.0
C98 C 0.7158 0.63844 0.70691 0.0
O99 O 0.55298 0.91426 0.70446 0.0
O100 O 0.71778 0.90031 0.68599 0.0
O101 O 0.42557 0.55941 0.79266 0.0
O102 O 0.46562 0.75058 0.80127 0.0
C103 C 0.5255 0.55093 0.56225 0.0
O104 O 0.72482 0.70099 0.65302 0.0
O105 O 0.62138 0.59731 0.74329 0.0
C106 C 0.66907 0.96397 0.70181 0.0
O107 O 0.55914 0.66203 0.55754 0.0
O108 O 0.51504 0.50256 0.62165 0.0
C109 C 0.24243 0.50563 0.69487 0.0
Fe110 Fe 0.32413 0.68475 0.37625 0.0
Fe111 Fe 0.3047 0.87713 0.29069 0.0
O112 O 0.38878 0.83682 0.34784 0.0
Fe113 Fe 0.53843 0.9464 0.37269 0.0
O114 O 0.60669 0.85863 0.3396 0.0
O115 O 0.46892 0.68632 0.38707 0.0
O116 O 0.32248 0.63589 0.28481 0.0
C117 C 0.26949 0.66101 0.23688 0.0
C118 C 0.42729 0.81352 0.49609 0.0
O119 O 0.2234 0.72682 0.25066 0.0
C120 C 0.44131 0.09331 0.37357 0.0
O121 O 0.16549 0.65467 0.37113 0.0
O122 O 0.17945 0.83341 0.35266 0.0
O123 O 0.52035 0.88212 0.45934 0.0
O124 O 0.32917 0.73098 0.46794 0.0
C125 C 0.52883 0.99052 0.22892 0.0
O126 O 0.37877 0.03977 0.31968 0.0
O127 O 0.48244 0.04002 0.40995 0.0
C128 C 0.11579 0.72104 0.36848 0.0
O129 O 0.41773 0.91305 0.22421 0.0
O130 O 0.5772 1.02842 0.28832 0.0
C131 C 0.57413 0.75275 0.36155 0.0
loop_
_geom_bond_atom_site_label_1
_geom_bond_atom_site_label_2
_geom_bond_distance
_geom_bond_site_symmetry_2
_ccdc_geom_bond_type
Fe0 O2 1.918 . S
Fe0 O5 1.997 . S
Fe0 O6 2.002 . S
Fe0 O11 1.976 1_545 S
Fe0 O14 1.996 . S
Fe1 O2 1.918 1_556 S
Fe1 O9 1.997 1_556 S
Fe1 O12 1.996 1_545 S
Fe1 O16 1.976 . S
Fe1 O19 2.002 1_556 S
O2 Fe0 1.918 . S
O2 Fe1 1.918 1_554 S
O2 Fe3 1.918 . S
Fe3 O2 1.918 . S
Fe3 O4 2.002 . S
Fe3 O13 1.976 1_554 S
Fe3 O17 1.996 1_554 S
Fe3 O20 1.997 . S
O4 Fe3 2.002 . S
O4 C21 1.295 . S
O5 Fe0 1.997 . S
O5 C21 1.235 . S
O6 Fe0 2.002 . S
O6 C7 1.295 1_545 S
C7 O6 1.295 1_565 S
C7 O9 1.235 1_565 S
C8 O13 1.283 1_554 S
C8 O14 1.263 . S
O9 Fe1 1.997 1_554 S
O9 C7 1.235 1_545 S
C10 O16 1.287 . S
C10 O17 1.255 . S
O11 Fe0 1.976 1_565 S
O11 C18 1.287 1_554 S
O12 Fe1 1.996 1_565 S
O12 C18 1.255 . S
O13 Fe3 1.976 1_556 S
O13 C8 1.283 1_556 S
O14 Fe0 1.996 . S
O14 C8 1.263 . S
C15 O19 1.295 . S
C15 O20 1.235 . S
O16 Fe1 1.976 . S
O16 C10 1.287 . S
O17 Fe3 1.996 1_556 S
O17 C10 1.255 . S
C18 O11 1.287 1_556 S
C18 O12 1.255 . S
O19 Fe1 2.002 1_554 S
O19 C15 1.295 . S
O20 Fe3 1.997 . S
O20 C15 1.235 . S
C21 O4 1.295 . S
C21 O5 1.235 . S
Fe22 O24 1.918 . S
Fe22 O27 1.997 . S
Fe22 O28 2.002 . S
Fe22 O33 1.976 . S
Fe22 O36 1.996 1_655 S
Fe23 O24 1.918 . S
Fe23 O31 1.997 . S
Fe23 O34 1.996 . S
Fe23 O38 1.976 . S
Fe23 O41 2.002 . S
O24 Fe22 1.918 . S
O24 Fe23 1.918 . S
O24 Fe25 1.918 . S
Fe25 O24 1.918 . S
Fe25 O26 2.002 . S
Fe25 O35 1.976 1_655 S
Fe25 O39 1.996 . S
Fe25 O42 1.997 . S
O26 Fe25 2.002 . S
O26 C43 1.295 1_655 S
O27 Fe22 1.997 . S
O27 C43 1.235 1_655 S
O28 Fe22 2.002 . S
O28 C29 1.295 . S
C29 O28 1.295 . S
C29 O31 1.235 . S
C30 O35 1.287 . S
C30 O36 1.255 . S
O31 Fe23 1.997 . S
O31 C29 1.235 . S
C32 O38 1.287 . S
C32 O39 1.255 . S
O33 Fe22 1.976 . S
O33 C40 1.287 . S
O34 Fe23 1.996 . S
O34 C40 1.255 . S
O35 Fe25 1.976 1_455 S
O35 C30 1.287 . S
O36 Fe22 1.996 1_455 S
O36 C30 1.255 . S
C37 O41 1.295 . S
C37 O42 1.235 . S
O38 Fe23 1.976 . S
O38 C32 1.287 . S
O39 Fe25 1.996 . S
O39 C32 1.255 . S
C40 O33 1.287 . S
C40 O34 1.255 . S
O41 Fe23 2.002 . S
O41 C37 1.295 . S
O42 Fe25 1.997 . S
O42 C37 1.235 . S
C43 O26 1.295 1_455 S
C43 O27 1.235 1_455 S
Fe44 O46 1.918 . S
Fe44 O49 1.997 . S
Fe44 O50 2.002 . S
Fe44 O55 1.976 . S
Fe44 O58 1.996 . S
Fe45 O46 1.918 . S
Fe45 O53 1.997 . S
Fe45 O56 1.996 . S
Fe45 O60 1.976 . S
Fe45 O63 2.002 . S
O46 Fe44 1.918 . S
O46 Fe45 1.918 . S
O46 Fe47 1.918 . S
Fe47 O46 1.918 . S
Fe47 O48 2.002 . S
Fe47 O57 1.976 . S
Fe47 O61 1.996 . S
Fe47 O64 1.997 . S
O48 Fe47 2.002 . S
O48 C65 1.295 . S
O49 Fe44 1.997 . S
O49 C65 1.235 . S
O50 Fe44 2.002 . S
O50 C51 1.295 . S
C51 O50 1.295 . S
C51 O53 1.235 . S
C52 O57 1.287 . S
C52 O58 1.255 . S
O53 Fe45 1.997 . S
O53 C51 1.235 . S
C54 O60 1.287 . S
C54 O61 1.255 . S
O55 Fe44 1.976 . S
O55 C62 1.287 . S
O56 Fe45 1.996 . S
O56 C62 1.255 . S
O57 Fe47 1.976 . S
O57 C52 1.287 . S
O58 Fe44 1.996 . S
O58 C52 1.255 . S
C59 O63 1.295 . S
C59 O64 1.235 . S
O60 Fe45 1.976 . S
O60 C54 1.287 . S
O61 Fe47 1.996 . S
O61 C54 1.255 . S
C62 O55 1.287 . S
C62 O56 1.255 . S
O63 Fe45 2.002 . S
O63 C59 1.295 . S
O64 Fe47 1.997 . S
O64 C59 1.235 . S
C65 O48 1.295 . S
C65 O49 1.235 . S
Fe66 O68 1.918 . S
Fe66 O71 1.997 . S
Fe66 O72 2.002 . S
Fe66 O77 1.976 1_556 S
Fe66 O80 1.996 1_556 S
Fe67 O68 1.918 . S
Fe67 O75 1.997 . S
Fe67 O78 1.996 . S
Fe67 O82 1.976 1_455 S
Fe67 O85 2.002 . S
O68 Fe66 1.918 . S
O68 Fe67 1.918 . S
O68 Fe69 1.918 1_556 S
Fe69 O68 1.918 1_554 S
Fe69 O70 2.002 1_554 S
Fe69 O79 1.976 . S
Fe69 O83 1.996 1_455 S
Fe69 O86 1.997 1_554 S
O70 Fe69 2.002 1_556 S
O70 C87 1.295 . S
O71 Fe66 1.997 . S
O71 C87 1.235 . S
O72 Fe66 2.002 . S
O72 C73 1.295 . S
C73 O72 1.295 . S
C73 O75 1.235 . S
C74 O79 1.287 . S
C74 O80 1.255 . S
O75 Fe67 1.997 . S
O75 C73 1.235 . S
C76 O82 1.287 1_554 S
C76 O83 1.255 . S
O77 Fe66 1.976 1_554 S
O77 C84 1.283 1_554 S
O78 Fe67 1.996 . S
O78 C84 1.263 . S
O79 Fe69 1.976 . S
O79 C74 1.287 . S
O80 Fe66 1.996 1_554 S
O80 C74 1.255 . S
C81 O85 1.295 1_655 S
C81 O86 1.235 1_655 S
O82 Fe67 1.976 1_655 S
O82 C76 1.287 1_556 S
O83 Fe69 1.996 1_655 S
O83 C76 1.255 . S
C84 O77 1.283 1_556 S
C84 O78 1.263 . S
O85 Fe67 2.002 . S
O85 C81 1.295 1_455 S
O86 Fe69 1.997 1_556 S
O86 C81 1.235 1_455 S
C87 O70 1.295 . S
C87 O71 1.235 . S
Fe88 O90 1.918 . S
Fe88 O93 1.997 . S
Fe88 O94 2.002 . S
Fe88 O99 1.976 . S
Fe88 O102 1.996 . S
Fe89 O90 1.918 . S
Fe89 O97 1.997 . S
Fe89 O100 1.996 . S
Fe89 O104 1.976 . S
Fe89 O107 2.002 . S
O90 Fe88 1.918 . S
O90 Fe89 1.918 . S
O90 Fe91 1.918 . S
Fe91 O90 1.918 . S
Fe91 O92 2.002 . S
Fe91 O101 1.976 . S
Fe91 O105 1.996 . S
Fe91 O108 1.997 . S
O92 Fe91 2.002 . S
O92 C109 1.295 . S
O93 Fe88 1.997 . S
O93 C109 1.235 . S
O94 Fe88 2.002 . S
O94 C95 1.295 . S
C95 O94 1.295 . S
C95 O97 1.235 . S
C96 O101 1.287 . S
C96 O102 1.255 . S
O97 Fe89 1.997 . S
O97 C95 1.235 . S
C98 O104 1.287 . S
C98 O105 1.255 . S
O99 Fe88 1.976 . S
O99 C106 1.287 . S
O100 Fe89 1.996 . S
O100 C106 1.255 . S
O101 Fe91 1.976 . S
O101 C96 1.287 . S
O102 Fe88 1.996 . S
O102 C96 1.255 . S
C103 O107 1.295 . S
C103 O108 1.235 . S
O104 Fe89 1.976 . S
O104 C98 1.287 . S
O105 Fe91 1.996 . S
O105 C98 1.255 . S
C106 O99 1.287 . S
C106 O100 1.255 . S
O107 Fe89 2.002 . S
O107 C103 1.295 . S
O108 Fe91 1.997 . S
O108 C103 1.235 . S
C109 O92 1.295 . S
C109 O93 1.235 . S
Fe110 O112 1.918 . S
Fe110 O115 1.997 . S
Fe110 O116 2.002 . S
Fe110 O121 1.976 . S
Fe110 O124 1.996 . S
Fe111 O112 1.918 . S
Fe111 O119 1.997 . S
Fe111 O122 1.996 . S
Fe111 O126 1.976 1_565 S
Fe111 O129 2.002 . S
O112 Fe110 1.918 . S
O112 Fe111 1.918 . S
O112 Fe113 1.918 . S
Fe113 O112 1.918 . S
Fe113 O114 2.002 . S
Fe113 O123 1.976 . S
Fe113 O127 1.996 1_565 S
Fe113 O130 1.997 . S
O114 Fe113 2.002 . S
O114 C131 1.295 . S
O115 Fe110 1.997 . S
O115 C131 1.235 . S
O116 Fe110 2.002 . S
O116 C117 1.295 . S
C117 O116 1.295 . S
C117 O119 1.235 . S
C118 O123 1.287 . S
C118 O124 1.255 . S
O119 Fe111 1.997 . S
O119 C117 1.235 . S
C120 O126 1.287 . S
C120 O127 1.255 . S
O121 Fe110 1.976 . S
O121 C128 1.287 . S
O122 Fe111 1.996 . S
O122 C128 1.255 . S
O123 Fe113 1.976 . S
O123 C118 1.287 . S
O124 Fe110 1.996 . S
O124 C118 1.255 . S
C125 O129 1.295 1_545 S
C125 O130 1.235 1_545 S
O126 Fe111 1.976 1_545 S
O126 C120 1.287 . S
O127 Fe113 1.996 1_545 S
O127 C120 1.255 . S
C128 O121 1.287 . S
C128 O122 1.255 . S
O129 Fe111 2.002 . S
O129 C125 1.295 1_565 S
O130 Fe113 1.997 . S
O130 C125 1.235 1_565 S
C131 O114 1.295 . S
C131 O115 1.235 . S
C84 C8 1.816 1_556 S
C32 C106 1.816 1_545 S
C128 C52 1.816 1_455 S
C125 C7 1.342 1_545 S
C43 C81 1.342 1_455 S
C51 C103 1.342 . S
C18 C87 1.504 . S
C109 C30 1.504 . S
C131 C62 1.504 . S
C76 C15 1.504 . S
C98 C29 1.504 . S
C59 C120 1.504 . S
C21 C54 1.552 . S
C10 C37 1.552 . S
C65 C40 1.552 . S
C73 C96 1.552 . S
C95 C118 1.552 . S
C74 C117 1.552 . S
