# Generated by pormake.
# Topology qtz, (4)-cn, num edge types: 1
# Building blocks:
#     Node 0, Type 0, BuildingBlock: QUQFOY_clean_sbu_3, # of connection points: 4
#     Node 1, Type 0, BuildingBlock: QUQFOY_clean_sbu_3, # of connection points: 4
#     Node 2, Type 0, BuildingBlock: QUQFOY_clean_sbu_3, # of connection points: 4
#     Edge 3, Type (0, 0), BuildingBlock: TEMPAE_clean_linker_10, # of connection points: 2
#     Edge 4, Type (0, 0), BuildingBlock: TEMPAE_clean_linker_10, # of connection points: 2
#     Edge 5, Type (0, 0), BuildingBlock: TEMPAE_clean_linker_10, # of connection points: 2
#     Edge 6, Type (0, 0), BuildingBlock: TEMPAE_clean_linker_10, # of connection points: 2
#     Edge 7, Type (0, 0), BuildingBlock: TEMPAE_clean_linker_10, # of connection points: 2
#     Edge 8, Type (0, 0), BuildingBlock: TEMPAE_clean_linker_10, # of connection points: 2
# Relax obj value: 0.008
# Max RMSD: 0.055
# Mean RMSD: 0.047
data_MOF--net-qtz--node1-QUQFOY_clean_sbu_3--edge1-TEMPAE_clean_linker_10
_symmetry_space_group_name_H-M    P1
_symmetry_Int_Tables_number       1
_symmetry_cell_setting            triclinic
loop_
_symmetry_equiv_pos_as_xyz
'x, y, z'
_cell_length_a     24.446945
_cell_length_b     24.053607
_cell_length_c     30.324341
_cell_angle_alpha  89.854816
_cell_angle_beta   91.823931
_cell_angle_gamma 121.68551
loop_
_atom_site_label
_atom_site_type_symbol
_atom_site_fract_x
_atom_site_fract_y
_atom_site_fract_z
_atom_type_partial_charge
C0 C 0.93275 0.54294 0.10831 0.0
O1 O 0.95098 0.58353 0.14029 0.0
Cd2 Cd 0.01587 0.58578 0.20182 0.0
O3 O 0.95125 0.50241 0.10646 0.0
Cd4 Cd 0.02136 0.47279 0.14687 0.0
C5 C 0.92276 0.42372 0.23198 0.0
O6 O 0.10223 0.58167 0.17179 0.0
O7 O 0.10718 0.50385 0.20289 0.0
O8 O 0.05926 0.47062 0.07518 0.0
C9 C 0.1309 0.56473 0.19905 0.0
O10 O 0.94642 0.48429 0.24006 0.0
C11 C 0.05935 0.41832 0.08035 0.0
O12 O 0.93846 0.40477 0.19805 0.0
O13 O 0.03896 0.38888 0.11657 0.0
C14 C 0.4242 0.09523 0.52112 0.0
O15 O 0.38956 0.08155 0.486 0.0
Cd16 Cd 0.39524 0.01566 0.42867 0.0
O17 O 0.45855 0.07046 0.52776 0.0
Cd18 Cd 0.48484 -0.00576 0.49669 0.0
C19 C 0.56026 0.10143 0.41704 0.0
O20 O 0.38324 0.91766 0.4585 0.0
O21 O 0.46681 0.91464 0.44111 0.0
O22 O 0.46451 0.94764 0.56913 0.0
C23 C 0.4068 0.89082 0.4364 0.0
O24 O 0.50395 0.08309 0.40182 0.0
C25 C 0.51528 0.94564 0.57272 0.0
O26 O 0.56848 0.07984 0.45346 0.0
O27 O 0.55347 0.96794 0.54093 0.0
C28 C 0.65037 0.55689 0.86485 0.0
O29 O 0.67634 0.59295 0.83187 0.0
Cd30 Cd 0.61865 0.61043 0.77369 0.0
O31 O 0.58969 0.5268 0.86897 0.0
Cd32 Cd 0.49421 0.5147 0.82935 0.0
C33 C 0.51677 0.45294 0.73649 0.0
O34 O 0.54425 0.62906 0.81013 0.0
O35 O 0.45066 0.56349 0.78002 0.0
O36 O 0.44707 0.5103 0.89948 0.0
C37 C 0.49769 0.62155 0.78584 0.0
O38 O 0.56343 0.51026 0.72862 0.0
C39 C 0.39411 0.45742 0.89081 0.0
O40 O 0.48677 0.4409 0.77215 0.0
O41 O 0.38822 0.43033 0.85363 0.0
C42 C 0.34731 0.46601 0.96027 0.0
C43 C 0.34011 0.4319 0.92102 0.0
C44 C 0.29439 0.44887 0.98607 0.0
C45 C 0.23282 0.39604 0.97237 0.0
C46 C 0.22607 0.35826 0.9346 0.0
C47 C 0.2799 0.37686 0.90916 0.0
C48 C 0.30374 0.49028 0.02633 0.0
C49 C 0.16147 0.30087 0.91947 0.0
C50 C 0.11116 0.3563 0.05981 0.0
C51 C 0.08998 0.39851 0.04795 0.0
C52 C 0.15379 0.35006 0.03329 0.0
C53 C 0.17543 0.38704 -0.00563 0.0
C54 C 0.14897 0.42442 0.98018 0.0
C55 C 0.10647 0.42961 0.00716 0.0
C56 C 0.17978 0.30845 0.04891 0.0
C57 C 0.17013 0.46399 0.93858 0.0
H58 H 0.39384 0.50813 0.96989 0.0
H59 H 0.27416 0.34984 0.87904 0.0
H60 H 0.27924 0.51767 0.02041 0.0
H61 H 0.28184 0.45894 0.05531 0.0
H62 H 0.35536 0.52597 0.03454 0.0
H63 H 0.16638 0.26896 0.89556 0.0
H64 H 0.13424 0.27116 0.94791 0.0
H65 H 0.13265 0.31898 0.90314 0.0
H66 H 0.09808 0.33168 0.09117 0.0
H67 H 0.0893 0.46142 -0.0025 0.0
H68 H 0.22849 0.34031 0.06429 0.0
H69 H 0.18428 0.28176 0.02085 0.0
H70 H 0.14869 0.27258 0.07376 0.0
H71 H 0.22057 0.50536 0.94343 0.0
H72 H 0.13957 0.48415 0.92959 0.0
H73 H 0.16874 0.43374 0.91054 0.0
C74 C 0.85667 0.39593 0.2988 0.0
C75 C 0.87493 0.37509 0.26194 0.0
C76 C 0.80866 0.35086 0.3261 0.0
C77 C 0.77829 0.28333 0.31635 0.0
C78 C 0.79794 0.26174 0.28018 0.0
C79 C 0.84607 0.30795 0.25331 0.0
C80 C 0.78887 0.37564 0.36444 0.0
C81 C 0.76664 0.18995 0.269 0.0
C82 C 0.67876 0.16439 0.40494 0.0
C83 C 0.61647 0.14796 0.39157 0.0
C84 C 0.73208 0.20794 0.38051 0.0
C85 C 0.72268 0.23574 0.34204 0.0
C86 C 0.66002 0.21935 0.32837 0.0
C87 C 0.60768 0.17559 0.35326 0.0
C88 C 0.79838 0.22439 0.39588 0.0
C89 C 0.64826 0.24842 0.2876 0.0
H90 H 0.87896 0.44769 0.30594 0.0
H91 H 0.86017 0.29141 0.22508 0.0
H92 H 0.7386 0.36321 0.35866 0.0
H93 H 0.79031 0.35157 0.39533 0.0
H94 H 0.82027 0.4294 0.36932 0.0
H95 H 0.79087 0.18106 0.24196 0.0
H96 H 0.76729 0.16288 0.29849 0.0
H97 H 0.71552 0.16945 0.25872 0.0
H98 H 0.68593 0.14307 0.43441 0.0
H99 H 0.55977 0.16327 0.34267 0.0
H100 H 0.82945 0.27759 0.40297 0.0
H101 H 0.82107 0.21246 0.36942 0.0
H102 H 0.79732 0.19755 0.42603 0.0
H103 H 0.67461 0.30242 0.2912 0.0
H104 H 0.59642 0.22996 0.28124 0.0
H105 H 0.66687 0.23692 0.25833 0.0
C106 C 0.49039 0.90101 0.64846 0.0
C107 C 0.52559 0.91287 0.6103 0.0
C108 C 0.49119 0.86063 0.68149 0.0
C109 C 0.52714 0.83065 0.67569 0.0
C110 C 0.56587 0.84564 0.6385 0.0
C111 C 0.56505 0.88718 0.60633 0.0
C112 C 0.45042 0.84689 0.72119 0.0
C113 C 0.60444 0.81412 0.63106 0.0
C114 C 0.55226 0.74041 0.76924 0.0
C115 C 0.50296 0.67575 0.75964 0.0
C116 C 0.56008 0.79185 0.74276 0.0
C117 C 0.51821 0.77787 0.70556 0.0
C118 C 0.46783 0.71277 0.69612 0.0
C119 C 0.46049 0.66255 0.72353 0.0
C120 C 0.61349 0.86089 0.75421 0.0
C121 C 0.4225 0.69589 0.65646 0.0
H122 H 0.46037 0.92148 0.65181 0.0
H123 H 0.59227 0.89627 0.57682 0.0
H124 H 0.40804 0.7963 0.71865 0.0
H125 H 0.47797 0.85054 0.75197 0.0
H126 H 0.43297 0.88105 0.72389 0.0
H127 H 0.63704 0.83602 0.60304 0.0
H128 H 0.63358 0.81865 0.66115 0.0
H129 H 0.57118 0.76119 0.62391 0.0
H130 H 0.585 0.75078 0.79731 0.0
H131 H 0.42244 0.61262 0.7159 0.0
H132 H 0.5937 0.89294 0.75715 0.0
H133 H 0.64837 0.88047 0.7274 0.0
H134 H 0.63969 0.86388 0.7856 0.0
H135 H 0.39719 0.72284 0.65838 0.0
H136 H 0.38595 0.64277 0.65377 0.0
H137 H 0.45015 0.71111 0.62584 0.0
C138 C 0.66317 0.51219 0.93638 0.0
C139 C 0.69113 0.55145 0.89958 0.0
C140 C 0.70138 0.5087 0.9704 0.0
C141 C 0.76909 0.54538 0.96752 0.0
C142 C 0.79763 0.58434 0.93024 0.0
C143 C 0.75829 0.58686 0.89667 0.0
C144 C 0.66936 0.46647 0.00968 0.0
C145 C 0.86977 0.62409 0.92612 0.0
C146 C 0.87119 0.58884 0.07318 0.0
C147 C 0.89017 0.54303 0.07258 0.0
C148 C 0.83151 0.58994 0.03924 0.0
C149 C 0.81026 0.54405 0.00395 0.0
C150 C 0.82881 0.49741 0.00322 0.0
C151 C 0.86862 0.49749 0.03755 0.0
C152 C 0.81263 0.64043 0.04101 0.0
C153 C 0.80685 0.44765 0.9661 0.0
H154 H 0.61133 0.48456 0.93889 0.0
H155 H 0.78034 0.61728 0.86836 0.0
H156 H 0.68434 0.43046 0.014 0.0
H157 H 0.68483 0.49719 0.04016 0.0
H158 H 0.61604 0.43964 0.0063 0.0
H159 H 0.88427 0.65076 0.89453 0.0
H160 H 0.89216 0.66013 0.95378 0.0
H161 H 0.88948 0.5918 0.92833 0.0
H162 H 0.88757 0.62419 0.1001 0.0
H163 H 0.88294 0.46182 0.03682 0.0
H164 H 0.75947 0.61598 0.04052 0.0
H165 H 0.82972 0.67164 0.01148 0.0
H166 H 0.8328 0.6723 0.07098 0.0
H167 H 0.75353 0.41809 0.96353 0.0
H168 H 0.82493 0.41415 0.97077 0.0
H169 H 0.82383 0.47286 0.93425 0.0
C170 C 0.30129 0.81 0.39981 0.0
C171 C 0.36828 0.83997 0.40257 0.0
C172 C 0.26472 0.76361 0.36652 0.0
C173 C 0.29619 0.74767 0.3351 0.0
C174 C 0.36373 0.77727 0.338 0.0
C175 C 0.39898 0.82283 0.37193 0.0
C176 C 0.19254 0.73227 0.36462 0.0
C177 C 0.39885 0.76187 0.30475 0.0
C178 C 0.19437 0.58968 0.27 0.0
C179 C 0.17876 0.61183 0.23163 0.0
C180 C 0.23365 0.63358 0.30375 0.0
C181 C 0.25839 0.70109 0.29857 0.0
C182 C 0.24516 0.72401 0.25908 0.0
C183 C 0.20514 0.67896 0.22611 0.0
C184 C 0.24664 0.60753 0.34557 0.0
C185 C 0.27171 0.79588 0.2522 0.0
H186 H 0.27744 0.82298 0.42356 0.0
H187 H 0.45086 0.84605 0.37384 0.0
H188 H 0.1772 0.74488 0.33328 0.0
H189 H 0.16865 0.67828 0.3651 0.0
H190 H 0.17535 0.74815 0.39257 0.0
H191 H 0.45147 0.78817 0.31227 0.0
H192 H 0.37972 0.70862 0.30381 0.0
H193 H 0.39077 0.77554 0.27128 0.0
H194 H 0.17399 0.53777 0.27443 0.0
H195 H 0.19345 0.69624 0.19634 0.0
H196 H 0.22531 0.61785 0.37379 0.0
H197 H 0.29915 0.63248 0.35283 0.0
H198 H 0.22632 0.55401 0.34349 0.0
H199 H 0.25148 0.81405 0.27651 0.0
H200 H 0.2602 0.80594 0.21849 0.0
H201 H 0.32471 0.82416 0.25776 0.0
C202 C 0.53331 0.41001 0.66641 0.0
C203 C 0.49694 0.39961 0.70378 0.0
C204 C 0.51614 0.35931 0.63589 0.0
C205 C 0.46114 0.29687 0.64284 0.0
C206 C 0.42317 0.28645 0.67977 0.0
C207 C 0.44164 0.33793 0.70991 0.0
C208 C 0.55799 0.37205 0.59693 0.0
C209 C 0.36403 0.22052 0.68806 0.0
C210 C 0.39839 0.17837 0.54521 0.0
C211 C 0.42804 0.14274 0.55382 0.0
C212 C 0.40713 0.22766 0.57458 0.0
C213 C 0.44644 0.24142 0.61324 0.0
C214 C 0.47458 0.2041 0.62283 0.0
C215 C 0.46494 0.15518 0.59307 0.0
C216 C 0.37602 0.26632 0.5636 0.0
C217 C 0.5167 0.21726 0.66384 0.0
H218 H 0.57596 0.45754 0.66133 0.0
H219 H 0.41292 0.32958 0.7385 0.0
H220 H 0.5801 0.34193 0.59943 0.0
H221 H 0.52847 0.35761 0.56575 0.0
H222 H 0.59704 0.42422 0.59496 0.0
H223 H 0.33701 0.22183 0.71641 0.0
H224 H 0.33145 0.20286 0.65829 0.0
H225 H 0.37822 0.18438 0.69496 0.0
H226 H 0.3697 0.16894 0.51501 0.0
H227 H 0.48768 0.12761 0.60022 0.0
H228 H 0.41373 0.31783 0.55737 0.0
H229 H 0.34853 0.26665 0.5919 0.0
H230 H 0.34306 0.24636 0.53402 0.0
H231 H 0.55999 0.26722 0.66273 0.0
H232 H 0.53261 0.18182 0.66739 0.0
H233 H 0.49052 0.21503 0.69365 0.0
loop_
_geom_bond_atom_site_label_1
_geom_bond_atom_site_label_2
_geom_bond_distance
_geom_bond_site_symmetry_2
_ccdc_geom_bond_type
C0 O1 1.306 . S
C0 O3 1.160 . S
O1 C0 1.306 . S
O1 Cd2 2.228 . S
Cd2 O1 2.228 . S
Cd2 O6 2.273 1_655 S
Cd2 O10 2.277 . S
O3 C0 1.160 . S
O3 Cd4 2.203 1_655 S
Cd4 O3 2.203 1_455 S
Cd4 O6 2.411 . S
Cd4 O7 2.333 . S
Cd4 O8 2.352 . S
Cd4 O12 2.277 1_455 S
Cd4 O13 2.356 . S
C5 O10 1.209 . S
C5 O12 1.226 . S
O6 Cd2 2.273 1_455 S
O6 Cd4 2.411 . S
O6 C9 1.320 . S
O7 Cd4 2.333 . S
O7 C9 1.214 . S
O8 Cd4 2.352 . S
O8 C11 1.258 . S
C9 O6 1.320 . S
C9 O7 1.214 . S
O10 Cd2 2.277 . S
O10 C5 1.209 . S
C11 O8 1.258 . S
C11 O13 1.282 . S
O12 Cd4 2.277 1_655 S
O12 C5 1.226 . S
O13 Cd4 2.356 . S
O13 C11 1.282 . S
C14 O15 1.306 . S
C14 O17 1.160 . S
O15 C14 1.306 . S
O15 Cd16 2.228 . S
Cd16 O15 2.228 . S
Cd16 O20 2.273 1_545 S
Cd16 O24 2.277 . S
O17 C14 1.160 . S
O17 Cd18 2.203 . S
Cd18 O17 2.203 . S
Cd18 O20 2.411 1_545 S
Cd18 O21 2.333 1_545 S
Cd18 O22 2.352 1_545 S
Cd18 O26 2.277 . S
Cd18 O27 2.356 1_545 S
C19 O24 1.209 . S
C19 O26 1.226 . S
O20 Cd16 2.273 1_565 S
O20 Cd18 2.411 1_565 S
O20 C23 1.320 . S
O21 Cd18 2.333 1_565 S
O21 C23 1.214 . S
O22 Cd18 2.352 1_565 S
O22 C25 1.258 . S
C23 O20 1.320 . S
C23 O21 1.214 . S
O24 Cd16 2.277 . S
O24 C19 1.209 . S
C25 O22 1.258 . S
C25 O27 1.282 . S
O26 Cd18 2.277 . S
O26 C19 1.226 . S
O27 Cd18 2.356 1_565 S
O27 C25 1.282 . S
C28 O29 1.306 . S
C28 O31 1.160 . S
O29 C28 1.306 . S
O29 Cd30 2.228 . S
Cd30 O29 2.228 . S
Cd30 O34 2.273 . S
Cd30 O38 2.277 . S
O31 C28 1.160 . S
O31 Cd32 2.203 . S
Cd32 O31 2.203 . S
Cd32 O34 2.411 . S
Cd32 O35 2.333 . S
Cd32 O36 2.352 . S
Cd32 O40 2.277 . S
Cd32 O41 2.356 . S
C33 O38 1.209 . S
C33 O40 1.226 . S
O34 Cd30 2.273 . S
O34 Cd32 2.411 . S
O34 C37 1.320 . S
O35 Cd32 2.333 . S
O35 C37 1.214 . S
O36 Cd32 2.352 . S
O36 C39 1.258 . S
C37 O34 1.320 . S
C37 O35 1.214 . S
O38 Cd30 2.277 . S
O38 C33 1.209 . S
C39 O36 1.258 . S
C39 O41 1.282 . S
O40 Cd32 2.277 . S
O40 C33 1.226 . S
O41 Cd32 2.356 . S
O41 C39 1.282 . S
C42 C43 1.391 . S
C42 C44 1.394 . S
C42 H58 0.931 . S
C43 C42 1.391 . S
C43 C47 1.376 . S
C44 C42 1.394 . S
C44 C45 1.369 . S
C44 C48 1.531 . S
C45 C44 1.369 . S
C45 C46 1.410 . S
C45 C53 1.503 1_556 S
C46 C45 1.410 . S
C46 C47 1.392 . S
C46 C49 1.511 . S
C47 C43 1.376 . S
C47 C46 1.392 . S
C47 H59 0.929 . S
C48 C44 1.531 . S
C48 H60 0.960 . S
C48 H61 0.976 . S
C48 H62 0.960 . S
C49 C46 1.511 . S
C49 H63 0.961 . S
C49 H64 0.961 1_556 S
C49 H65 0.961 . S
C50 C51 1.370 . S
C50 C52 1.363 . S
C50 H66 0.931 . S
C51 C50 1.370 . S
C51 C55 1.408 . S
C52 C50 1.363 . S
C52 C53 1.370 . S
C52 C56 1.524 . S
C53 C45 1.503 1_554 S
C53 C52 1.370 . S
C53 C54 1.403 1_554 S
C54 C53 1.403 1_556 S
C54 C55 1.404 1_556 S
C54 C57 1.539 . S
C55 C51 1.408 . S
C55 C54 1.404 1_554 S
C55 H67 0.930 . S
C56 C52 1.524 . S
C56 H68 0.956 . S
C56 H69 0.961 . S
C56 H70 0.961 . S
C57 C54 1.539 . S
C57 H71 0.958 . S
C57 H72 0.961 . S
C57 H73 0.960 . S
H58 C42 0.931 . S
H59 C47 0.929 . S
H60 C48 0.960 . S
H61 C48 0.976 . S
H62 C48 0.960 . S
H63 C49 0.961 . S
H64 C49 0.961 1_554 S
H65 C49 0.961 . S
H66 C50 0.931 . S
H67 C55 0.930 . S
H68 C56 0.956 . S
H69 C56 0.961 . S
H70 C56 0.961 . S
H71 C57 0.958 . S
H72 C57 0.961 . S
H73 C57 0.960 . S
C74 C75 1.391 . S
C74 C76 1.394 . S
C74 H90 0.931 . S
C75 C74 1.391 . S
C75 C79 1.376 . S
C76 C74 1.394 . S
C76 C77 1.369 . S
C76 C80 1.531 . S
C77 C76 1.369 . S
C77 C78 1.410 . S
C77 C85 1.503 . S
C78 C77 1.410 . S
C78 C79 1.392 . S
C78 C81 1.511 . S
C79 C75 1.376 . S
C79 C78 1.392 . S
C79 H91 0.929 . S
C80 C76 1.531 . S
C80 H92 0.960 . S
C80 H93 0.962 . S
C80 H94 0.960 . S
C81 C78 1.511 . S
C81 H95 0.961 . S
C81 H96 0.961 . S
C81 H97 0.961 . S
C82 C83 1.370 . S
C82 C84 1.363 . S
C82 H98 0.931 . S
C83 C82 1.370 . S
C83 C87 1.408 . S
C84 C82 1.363 . S
C84 C85 1.370 . S
C84 C88 1.524 . S
C85 C77 1.503 . S
C85 C84 1.370 . S
C85 C86 1.403 . S
C86 C85 1.403 . S
C86 C87 1.404 . S
C86 C89 1.539 . S
C87 C83 1.408 . S
C87 C86 1.404 . S
C87 H99 0.930 . S
C88 C84 1.524 . S
C88 H100 0.956 . S
C88 H101 0.961 . S
C88 H102 0.961 . S
C89 C86 1.539 . S
C89 H103 0.958 . S
C89 H104 0.961 . S
C89 H105 0.960 . S
H90 C74 0.931 . S
H91 C79 0.929 . S
H92 C80 0.960 . S
H93 C80 0.962 . S
H94 C80 0.960 . S
H95 C81 0.961 . S
H96 C81 0.961 . S
H97 C81 0.961 . S
H98 C82 0.931 . S
H99 C87 0.930 . S
H100 C88 0.956 . S
H101 C88 0.961 . S
H102 C88 0.961 . S
H103 C89 0.958 . S
H104 C89 0.961 . S
H105 C89 0.960 . S
C106 C107 1.391 . S
C106 C108 1.394 . S
C106 H122 0.931 . S
C107 C106 1.391 . S
C107 C111 1.376 . S
C108 C106 1.394 . S
C108 C109 1.369 . S
C108 C112 1.531 . S
C109 C108 1.369 . S
C109 C110 1.410 . S
C109 C117 1.503 . S
C110 C109 1.410 . S
C110 C111 1.392 . S
C110 C113 1.511 . S
C111 C107 1.376 . S
C111 C110 1.392 . S
C111 H123 0.929 . S
C112 C108 1.531 . S
C112 H124 0.960 . S
C112 H125 0.962 . S
C112 H126 0.960 . S
C113 C110 1.511 . S
C113 H127 0.961 . S
C113 H128 0.961 . S
C113 H129 0.961 . S
C114 C115 1.370 . S
C114 C116 1.363 . S
C114 H130 0.931 . S
C115 C114 1.370 . S
C115 C119 1.408 . S
C116 C114 1.363 . S
C116 C117 1.370 . S
C116 C120 1.524 . S
C117 C109 1.503 . S
C117 C116 1.370 . S
C117 C118 1.403 . S
C118 C117 1.403 . S
C118 C119 1.404 . S
C118 C121 1.539 . S
C119 C115 1.408 . S
C119 C118 1.404 . S
C119 H131 0.930 . S
C120 C116 1.524 . S
C120 H132 0.956 . S
C120 H133 0.961 . S
C120 H134 0.961 . S
C121 C118 1.539 . S
C121 H135 0.958 . S
C121 H136 0.961 . S
C121 H137 0.960 . S
H122 C106 0.931 . S
H123 C111 0.929 . S
H124 C112 0.960 . S
H125 C112 0.962 . S
H126 C112 0.960 . S
H127 C113 0.961 . S
H128 C113 0.961 . S
H129 C113 0.961 . S
H130 C114 0.931 . S
H131 C119 0.930 . S
H132 C120 0.956 . S
H133 C120 0.961 . S
H134 C120 0.961 . S
H135 C121 0.958 . S
H136 C121 0.961 . S
H137 C121 0.960 . S
C138 C139 1.391 . S
C138 C140 1.394 . S
C138 H154 0.931 . S
C139 C138 1.391 . S
C139 C143 1.376 . S
C140 C138 1.394 . S
C140 C141 1.369 . S
C140 C144 1.531 1_556 S
C141 C140 1.369 . S
C141 C142 1.410 . S
C141 C149 1.503 1_556 S
C142 C141 1.410 . S
C142 C143 1.392 . S
C142 C145 1.511 . S
C143 C139 1.376 . S
C143 C142 1.392 . S
C143 H155 0.929 . S
C144 C140 1.531 1_554 S
C144 H156 0.960 . S
C144 H157 0.962 . S
C144 H158 0.960 . S
C145 C142 1.511 . S
C145 H159 0.961 . S
C145 H160 0.961 . S
C145 H161 0.961 . S
C146 C147 1.370 . S
C146 C148 1.363 . S
C146 H162 0.931 . S
C147 C146 1.370 . S
C147 C151 1.408 . S
C148 C146 1.363 . S
C148 C149 1.370 . S
C148 C152 1.516 1_554 S
C149 C141 1.503 1_554 S
C149 C148 1.370 . S
C149 C150 1.403 . S
C150 C149 1.403 . S
C150 C151 1.404 . S
C150 C153 1.539 . S
C151 C147 1.408 . S
C151 C150 1.404 . S
C151 H163 0.930 . S
C152 C148 1.516 1_556 S
C152 H164 0.951 1_556 S
C152 H165 0.977 . S
C152 H166 0.958 1_556 S
C153 C150 1.539 . S
C153 H167 0.958 . S
C153 H168 0.961 . S
C153 H169 0.960 . S
H154 C138 0.931 . S
H155 C143 0.929 . S
H156 C144 0.960 . S
H157 C144 0.962 . S
H158 C144 0.960 . S
H159 C145 0.961 . S
H160 C145 0.961 . S
H161 C145 0.961 . S
H162 C146 0.931 . S
H163 C151 0.930 . S
H164 C152 0.951 1_554 S
H165 C152 0.977 . S
H166 C152 0.958 1_554 S
H167 C153 0.958 . S
H168 C153 0.961 . S
H169 C153 0.960 . S
C170 C171 1.391 . S
C170 C172 1.394 . S
C170 H186 0.931 . S
C171 C170 1.391 . S
C171 C175 1.376 . S
C172 C170 1.394 . S
C172 C173 1.369 . S
C172 C176 1.531 . S
C173 C172 1.369 . S
C173 C174 1.410 . S
C173 C181 1.503 . S
C174 C173 1.410 . S
C174 C175 1.392 . S
C174 C177 1.511 . S
C175 C171 1.376 . S
C175 C174 1.392 . S
C175 H187 0.929 . S
C176 C172 1.531 . S
C176 H188 0.960 . S
C176 H189 0.962 . S
C176 H190 0.960 . S
C177 C174 1.511 . S
C177 H191 0.961 . S
C177 H192 0.961 . S
C177 H193 0.961 . S
C178 C179 1.370 . S
C178 C180 1.363 . S
C178 H194 0.931 . S
C179 C178 1.370 . S
C179 C183 1.408 . S
C180 C178 1.363 . S
C180 C181 1.370 . S
C180 C184 1.524 . S
C181 C173 1.503 . S
C181 C180 1.370 . S
C181 C182 1.403 . S
C182 C181 1.403 . S
C182 C183 1.404 . S
C182 C185 1.539 . S
C183 C179 1.408 . S
C183 C182 1.404 . S
C183 H195 0.930 . S
C184 C180 1.524 . S
C184 H196 0.956 . S
C184 H197 0.961 . S
C184 H198 0.961 . S
C185 C182 1.539 . S
C185 H199 0.958 . S
C185 H200 0.961 . S
C185 H201 0.960 . S
H186 C170 0.931 . S
H187 C175 0.929 . S
H188 C176 0.960 . S
H189 C176 0.962 . S
H190 C176 0.960 . S
H191 C177 0.961 . S
H192 C177 0.961 . S
H193 C177 0.961 . S
H194 C178 0.931 . S
H195 C183 0.930 . S
H196 C184 0.956 . S
H197 C184 0.961 . S
H198 C184 0.961 . S
H199 C185 0.958 . S
H200 C185 0.961 . S
H201 C185 0.960 . S
C202 C203 1.391 . S
C202 C204 1.394 . S
C202 H218 0.931 . S
C203 C202 1.391 . S
C203 C207 1.376 . S
C204 C202 1.394 . S
C204 C205 1.369 . S
C204 C208 1.531 . S
C205 C204 1.369 . S
C205 C206 1.410 . S
C205 C213 1.503 . S
C206 C205 1.410 . S
C206 C207 1.392 . S
C206 C209 1.511 . S
C207 C203 1.376 . S
C207 C206 1.392 . S
C207 H219 0.929 . S
C208 C204 1.531 . S
C208 H220 0.960 . S
C208 H221 0.962 . S
C208 H222 0.960 . S
C209 C206 1.511 . S
C209 H223 0.961 . S
C209 H224 0.961 . S
C209 H225 0.961 . S
C210 C211 1.370 . S
C210 C212 1.363 . S
C210 H226 0.931 . S
C211 C210 1.370 . S
C211 C215 1.408 . S
C212 C210 1.363 . S
C212 C213 1.370 . S
C212 C216 1.524 . S
C213 C205 1.503 . S
C213 C212 1.370 . S
C213 C214 1.403 . S
C214 C213 1.403 . S
C214 C215 1.404 . S
C214 C217 1.539 . S
C215 C211 1.408 . S
C215 C214 1.404 . S
C215 H227 0.930 . S
C216 C212 1.524 . S
C216 H228 0.956 . S
C216 H229 0.961 . S
C216 H230 0.961 . S
C217 C214 1.539 . S
C217 H231 0.958 . S
C217 H232 0.961 . S
C217 H233 0.960 . S
H218 C202 0.931 . S
H219 C207 0.929 . S
H220 C208 0.960 . S
H221 C208 0.962 . S
H222 C208 0.960 . S
H223 C209 0.961 . S
H224 C209 0.961 . S
H225 C209 0.961 . S
H226 C210 0.931 . S
H227 C215 0.930 . S
H228 C216 0.956 . S
H229 C216 0.961 . S
H230 C216 0.961 . S
H231 C217 0.958 . S
H232 C217 0.961 . S
H233 C217 0.960 . S
C43 C39 1.410 . S
C51 C11 1.420 . S
C75 C5 1.510 . S
C83 C19 1.517 . S
C107 C25 1.423 . S
C115 C37 1.410 . S
C139 C28 1.426 . S
C147 C0 1.429 . S
C171 C23 1.431 . S
C179 C9 1.424 . S
C203 C33 1.476 . S
C211 C14 1.476 . S
