# Generated by pormake.
# Topology rob, (6)-cn, num edge types: 1
# Building blocks:
#     Node 0, Type 0, BuildingBlock: CIFDUS_clean_sbu_1, # of connection points: 6
#     Node 1, Type 0, BuildingBlock: CIFDUS_clean_sbu_1, # of connection points: 6
#     Node 2, Type 0, BuildingBlock: CIFDUS_clean_sbu_1, # of connection points: 6
#     Node 3, Type 0, BuildingBlock: CIFDUS_clean_sbu_1, # of connection points: 6
#     Edge 4, Type (0, 0), None
#     Edge 5, Type (0, 0), None
#     Edge 6, Type (0, 0), None
#     Edge 7, Type (0, 0), None
#     Edge 8, Type (0, 0), None
#     Edge 9, Type (0, 0), None
#     Edge 10, Type (0, 0), None
#     Edge 11, Type (0, 0), None
#     Edge 12, Type (0, 0), None
#     Edge 13, Type (0, 0), None
#     Edge 14, Type (0, 0), None
#     Edge 15, Type (0, 0), None
# Relax obj value: 0.220
# Max RMSD: 0.235
# Mean RMSD: 0.235
data_MOF--net-rob--node1-CIFDUS_clean_sbu_1--edge1-none
_symmetry_space_group_name_H-M    P1
_symmetry_Int_Tables_number       1
_symmetry_cell_setting            triclinic
loop_
_symmetry_equiv_pos_as_xyz
'x, y, z'
_cell_length_a     7.2166407
_cell_length_b     13.153303
_cell_length_c     12.090627
_cell_angle_alpha  103.75301
_cell_angle_beta   90.004504
_cell_angle_gamma 89.989409
loop_
_atom_site_label
_atom_site_type_symbol
_atom_site_fract_x
_atom_site_fract_y
_atom_site_fract_z
_atom_type_partial_charge
O0 O 0.0928 0.30001 0.89231 0.0
Mn1 Mn 0.24567 0.22665 0.00299 0.0
O2 O 0.87748 0.18335 0.8138 0.0
Mn3 Mn 0.0268 0.07382 0.8207 0.0
O4 O 0.39854 0.15329 0.11367 0.0
O5 O 0.40031 0.36239 0.04285 0.0
Mn6 Mn 0.46453 0.37949 0.18528 0.0
O7 O 0.07115 0.28496 0.14138 0.0
O8 O 0.61386 0.26995 0.19218 0.0
O9 O 0.42019 0.16834 0.8646 0.0
O10 O 0.23837 0.0706 0.73019 0.0
O11 O 0.57222 0.49065 0.14405 0.0
O12 O 0.25296 0.3827 0.27579 0.0
C13 C 1e-05 0.0035 0.95711 0.0
C14 C 0.95008 0.27281 0.82818 0.0
C15 C 0.54126 0.18049 0.1778 0.0
C16 C 0.49132 0.44981 0.04887 0.0
C17 C 0.10545 0.33063 0.24612 0.0
C18 C 0.38589 0.12267 0.75986 0.0
O19 O 0.09102 0.09092 0.96313 0.0
O20 O 0.91912 0.96265 0.86192 0.0
O21 O 0.5928 0.80001 0.89231 0.0
Mn22 Mn 0.74567 0.72665 0.00299 0.0
O23 O 0.37747 0.68335 0.8138 0.0
Mn24 Mn 0.5268 0.57382 0.8207 0.0
O25 O 0.89854 0.6533 0.11367 0.0
O26 O 0.90031 0.86239 0.04285 0.0
Mn27 Mn 0.96453 0.87949 0.18527 0.0
O28 O 0.57115 0.78496 0.14138 0.0
O29 O 0.11386 0.76995 0.19218 0.0
O30 O 0.92019 0.66834 0.8646 0.0
O31 O 0.73837 0.5706 0.73019 0.0
O32 O 0.07222 -0.00935 0.14405 0.0
O33 O 0.75297 0.8827 0.27579 0.0
C34 C 0.50002 0.50349 0.9571 0.0
C35 C 0.45008 0.77281 0.82818 0.0
C36 C 0.04126 0.68049 0.1778 0.0
C37 C 0.99131 0.94981 0.04887 0.0
C38 C 0.60545 0.83063 0.24612 0.0
C39 C 0.88589 0.62267 0.75986 0.0
O40 O 0.59103 0.59091 0.96313 0.0
O41 O 0.41911 0.46265 0.86192 0.0
O42 O 0.09282 0.65332 0.61367 0.0
Mn43 Mn 0.24567 0.72665 0.50299 0.0
O44 O 0.87738 0.76999 0.69209 0.0
Mn45 Mn 0.02674 0.87951 0.68532 0.0
O46 O 0.39851 0.79999 0.39231 0.0
O47 O 0.40031 0.5909 0.46307 0.0
Mn48 Mn 0.46459 0.57379 0.32066 0.0
O49 O 0.0711 0.66839 0.36462 0.0
O50 O 0.61395 0.68331 0.31388 0.0
O51 O 0.42023 0.78491 0.64136 0.0
O52 O 0.2383 0.88263 0.77584 0.0
O53 O 0.5722 0.46259 0.36192 0.0
O54 O 0.25304 0.57067 0.23014 0.0
C55 C 3e-05 0.94983 0.54889 0.0
C56 C 0.94998 0.68051 0.67769 0.0
C57 C 0.54136 0.77279 0.32829 0.0
C58 C 0.49131 0.50347 0.45709 0.0
C59 C 0.10535 0.62258 0.25991 0.0
C60 C 0.38598 0.83072 0.74606 0.0
O61 O 0.09102 0.8624 0.5429 0.0
O62 O 0.91914 -0.00929 0.64406 0.0
O63 O 0.59282 0.15332 0.61367 0.0
Mn64 Mn 0.74567 0.22665 0.50299 0.0
O65 O 0.37738 0.26999 0.69209 0.0
Mn66 Mn 0.52674 0.37951 0.68532 0.0
O67 O 0.89851 0.29999 0.39231 0.0
O68 O 0.90031 0.0909 0.46307 0.0
Mn69 Mn 0.9646 0.07379 0.32066 0.0
O70 O 0.5711 0.16839 0.36462 0.0
O71 O 0.11395 0.18331 0.31389 0.0
O72 O 0.92023 0.28491 0.64136 0.0
O73 O 0.73829 0.38263 0.77584 0.0
O74 O 0.0722 0.96259 0.36192 0.0
O75 O 0.75304 0.07067 0.23014 0.0
C76 C 0.50004 0.44983 0.54889 0.0
C77 C 0.44998 0.18051 0.67769 0.0
C78 C 0.04136 0.27279 0.32829 0.0
C79 C 0.9913 0.00347 0.45709 0.0
C80 C 0.60535 0.12258 0.25991 0.0
C81 C 0.88598 0.33072 0.74606 0.0
O82 O 0.59103 0.3624 0.5429 0.0
O83 O 0.41913 0.49071 0.64406 0.0
loop_
_geom_bond_atom_site_label_1
_geom_bond_atom_site_label_2
_geom_bond_distance
_geom_bond_site_symmetry_2
_ccdc_geom_bond_type
O0 Mn1 2.170 . S
O0 C14 1.244 . S
Mn1 O0 2.170 . S
Mn1 O4 2.153 1_556 S
Mn1 O5 2.220 1_556 S
Mn1 O7 2.157 1_556 S
Mn1 O9 2.166 . S
Mn1 O19 2.222 . S
O2 Mn3 2.087 1_655 S
O2 C14 1.256 1_655 S
Mn3 O2 2.087 1_455 S
Mn3 O10 2.089 . S
Mn3 O19 2.290 . S
Mn3 O20 2.251 1_445 S
O4 Mn1 2.153 1_554 S
O4 C15 1.239 . S
O5 Mn1 2.220 1_554 S
O5 Mn6 2.290 . S
O5 C16 1.278 . S
Mn6 O5 2.290 . S
Mn6 O8 2.089 . S
Mn6 O11 2.251 . S
Mn6 O12 2.087 . S
O7 Mn1 2.157 1_554 S
O7 C17 1.244 . S
O8 Mn6 2.089 . S
O8 C15 1.256 . S
O9 Mn1 2.166 . S
O9 C18 1.239 . S
O10 Mn3 2.089 . S
O10 C18 1.256 . S
O11 Mn6 2.251 . S
O11 C16 1.241 . S
O12 Mn6 2.087 . S
O12 C17 1.256 . S
C13 O19 1.278 . S
C13 O20 1.241 1_445 S
C14 O0 1.244 . S
C14 O2 1.256 1_455 S
C15 O4 1.239 . S
C15 O8 1.256 . S
C16 O5 1.278 . S
C16 O11 1.241 . S
C17 O7 1.244 . S
C17 O12 1.256 . S
C18 O9 1.239 . S
C18 O10 1.256 . S
O19 Mn1 2.222 . S
O19 Mn3 2.290 . S
O19 C13 1.278 . S
O20 Mn3 2.251 1_665 S
O20 C13 1.241 1_665 S
O21 Mn22 2.170 . S
O21 C35 1.244 . S
Mn22 O21 2.170 . S
Mn22 O25 2.153 1_556 S
Mn22 O26 2.220 1_556 S
Mn22 O28 2.157 1_556 S
Mn22 O30 2.166 . S
Mn22 O40 2.222 . S
O23 Mn24 2.087 . S
O23 C35 1.256 . S
Mn24 O23 2.087 . S
Mn24 O31 2.089 . S
Mn24 O40 2.290 . S
Mn24 O41 2.251 . S
O25 Mn22 2.153 1_554 S
O25 C36 1.239 1_655 S
O26 Mn22 2.220 1_554 S
O26 Mn27 2.290 . S
O26 C37 1.278 1_565 S
Mn27 O26 2.290 . S
Mn27 O29 2.089 . S
Mn27 O32 2.251 1_565 S
Mn27 O33 2.087 . S
O28 Mn22 2.157 1_554 S
O28 C38 1.244 . S
O29 Mn27 2.089 . S
O29 C36 1.256 1_655 S
O30 Mn22 2.166 . S
O30 C39 1.239 1_655 S
O31 Mn24 2.089 . S
O31 C39 1.256 1_655 S
O32 Mn27 2.251 1_545 S
O32 C37 1.241 . S
O33 Mn27 2.087 . S
O33 C38 1.256 . S
C34 O40 1.278 . S
C34 O41 1.241 . S
C35 O21 1.244 . S
C35 O23 1.256 . S
C36 O25 1.239 1_455 S
C36 O29 1.256 1_455 S
C37 O26 1.278 1_545 S
C37 O32 1.241 . S
C38 O28 1.244 . S
C38 O33 1.256 . S
C39 O30 1.239 1_455 S
C39 O31 1.256 1_455 S
O40 Mn22 2.222 . S
O40 Mn24 2.290 . S
O40 C34 1.278 . S
O41 Mn24 2.251 . S
O41 C34 1.241 . S
O42 Mn43 2.163 . S
O42 C56 1.244 . S
Mn43 O42 2.163 . S
Mn43 O46 2.160 . S
Mn43 O47 2.221 . S
Mn43 O49 2.163 . S
Mn43 O51 2.160 . S
Mn43 O61 2.221 . S
O44 Mn45 2.087 1_655 S
O44 C56 1.256 1_655 S
Mn45 O44 2.087 1_455 S
Mn45 O52 2.089 . S
Mn45 O61 2.290 . S
Mn45 O62 2.251 1_465 S
O46 Mn43 2.160 . S
O46 C57 1.239 . S
O47 Mn43 2.221 . S
O47 Mn48 2.290 . S
O47 C58 1.278 . S
Mn48 O47 2.290 . S
Mn48 O50 2.089 . S
Mn48 O53 2.251 . S
Mn48 O54 2.087 . S
O49 Mn43 2.163 . S
O49 C59 1.244 . S
O50 Mn48 2.089 . S
O50 C57 1.256 . S
O51 Mn43 2.160 . S
O51 C60 1.239 . S
O52 Mn45 2.089 . S
O52 C60 1.256 . S
O53 Mn48 2.251 . S
O53 C58 1.241 . S
O54 Mn48 2.087 . S
O54 C59 1.256 . S
C55 O61 1.278 . S
C55 O62 1.241 1_465 S
C56 O42 1.244 . S
C56 O44 1.256 1_455 S
C57 O46 1.239 . S
C57 O50 1.256 . S
C58 O47 1.278 . S
C58 O53 1.241 . S
C59 O49 1.244 . S
C59 O54 1.256 . S
C60 O51 1.239 . S
C60 O52 1.256 . S
O61 Mn43 2.221 . S
O61 Mn45 2.290 . S
O61 C55 1.278 . S
O62 Mn45 2.251 1_645 S
O62 C55 1.241 1_645 S
O63 Mn64 2.163 . S
O63 C77 1.244 . S
Mn64 O63 2.163 . S
Mn64 O67 2.160 . S
Mn64 O68 2.221 . S
Mn64 O70 2.163 . S
Mn64 O72 2.160 . S
Mn64 O82 2.221 . S
O65 Mn66 2.087 . S
O65 C77 1.256 . S
Mn66 O65 2.087 . S
Mn66 O73 2.089 . S
Mn66 O82 2.290 . S
Mn66 O83 2.251 . S
O67 Mn64 2.160 . S
O67 C78 1.239 1_655 S
O68 Mn64 2.221 . S
O68 Mn69 2.290 . S
O68 C79 1.278 1_545 S
Mn69 O68 2.290 . S
Mn69 O71 2.089 . S
Mn69 O74 2.251 1_545 S
Mn69 O75 2.087 . S
O70 Mn64 2.163 . S
O70 C80 1.244 . S
O71 Mn69 2.089 . S
O71 C78 1.256 1_655 S
O72 Mn64 2.160 . S
O72 C81 1.239 1_655 S
O73 Mn66 2.089 . S
O73 C81 1.256 1_655 S
O74 Mn69 2.251 1_565 S
O74 C79 1.241 . S
O75 Mn69 2.087 . S
O75 C80 1.256 . S
C76 O82 1.278 . S
C76 O83 1.241 . S
C77 O63 1.244 . S
C77 O65 1.256 . S
C78 O67 1.239 1_455 S
C78 O71 1.256 1_455 S
C79 O68 1.278 1_565 S
C79 O74 1.241 . S
C80 O70 1.244 . S
C80 O75 1.256 . S
C81 O72 1.239 1_455 S
C81 O73 1.256 1_455 S
O82 Mn64 2.221 . S
O82 Mn66 2.290 . S
O82 C76 1.278 . S
O83 Mn66 2.251 . S
O83 C76 1.241 . S
C34 C16 2.069 1_556 S
C58 C76 2.069 . S
C13 C37 2.069 1_456 S
C79 C55 2.069 1_655 S
C80 C15 1.191 . S
C38 C57 1.191 . S
C35 C60 1.279 . S
C77 C18 1.279 . S
C36 C59 1.191 . S
C78 C17 1.191 . S
C81 C14 1.279 . S
C56 C39 1.279 . S
