# Generated by pormake.
# Topology afw, (4)-cn, num edge types: 1
# Building blocks:
#     Node 0, Type 0, BuildingBlock: NAHDIM_clean_sbu_0, # of connection points: 4
#     Node 1, Type 0, BuildingBlock: NAHDIM_clean_sbu_0, # of connection points: 4
#     Node 2, Type 0, BuildingBlock: NAHDIM_clean_sbu_0, # of connection points: 4
#     Node 3, Type 0, BuildingBlock: NAHDIM_clean_sbu_0, # of connection points: 4
#     Node 4, Type 0, BuildingBlock: NAHDIM_clean_sbu_0, # of connection points: 4
#     Node 5, Type 0, BuildingBlock: NAHDIM_clean_sbu_0, # of connection points: 4
#     Node 6, Type 0, BuildingBlock: NAHDIM_clean_sbu_0, # of connection points: 4
#     Node 7, Type 0, BuildingBlock: NAHDIM_clean_sbu_0, # of connection points: 4
#     Node 8, Type 0, BuildingBlock: NAHDIM_clean_sbu_0, # of connection points: 4
#     Edge 9, Type (0, 0), None
#     Edge 10, Type (0, 0), None
#     Edge 11, Type (0, 0), None
#     Edge 12, Type (0, 0), None
#     Edge 13, Type (0, 0), None
#     Edge 14, Type (0, 0), None
#     Edge 15, Type (0, 0), None
#     Edge 16, Type (0, 0), None
#     Edge 17, Type (0, 0), None
#     Edge 18, Type (0, 0), None
#     Edge 19, Type (0, 0), None
#     Edge 20, Type (0, 0), None
#     Edge 21, Type (0, 0), None
#     Edge 22, Type (0, 0), None
#     Edge 23, Type (0, 0), None
#     Edge 24, Type (0, 0), None
#     Edge 25, Type (0, 0), None
#     Edge 26, Type (0, 0), None
# Relax obj value: 0.259
# Max RMSD: 0.269
# Mean RMSD: 0.246
data_MOF--net-afw--node1-NAHDIM_clean_sbu_0--edge1-none
_symmetry_space_group_name_H-M    P1
_symmetry_Int_Tables_number       1
_symmetry_cell_setting            triclinic
loop_
_symmetry_equiv_pos_as_xyz
'x, y, z'
_cell_length_a     17.003399
_cell_length_b     18.964353
_cell_length_c     16.674985
_cell_angle_alpha  96.068224
_cell_angle_beta   88.771156
_cell_angle_gamma 117.39829
loop_
_atom_site_label
_atom_site_type_symbol
_atom_site_fract_x
_atom_site_fract_y
_atom_site_fract_z
_atom_type_partial_charge
C0 C 0.07451 0.28879 0.84173 0.0
O1 O 0.1448 0.31797 0.89017 0.0
O2 O 0.12516 0.17185 0.95982 0.0
Zn3 Zn 0.0154 0.18709 0.96293 0.0
O4 O 0.01366 0.26148 0.05809 0.0
C5 C 0.83679 0.03521 0.96612 0.0
O6 O 0.78967 0.06569 0.93652 0.0
O7 O 1.00459 0.22841 0.85944 0.0
C8 C 0.98677 0.23346 0.12493 0.0
O9 O 0.96715 0.15892 0.13211 0.0
C10 C 0.18723 0.19766 0.01291 0.0
O11 O 0.18856 0.24661 0.07535 0.0
O12 O 0.92025 0.07604 -0.02403 0.0
C13 C 0.77171 0.69914 0.12508 0.0
O14 O 0.7874 0.66159 0.0609 0.0
O15 O 0.96304 0.8396 0.01433 0.0
Zn16 Zn 0.83556 0.81807 0.01994 0.0
O17 O 0.76047 0.74492 0.92506 0.0
C18 C 0.79694 0.95112 -0.0185 0.0
O19 O 0.71919 0.89922 0.94946 0.0
O20 O 0.78613 0.77094 0.12348 0.0
C21 C 0.77217 0.76768 0.85491 0.0
O22 O 0.83695 0.83806 0.84328 0.0
C23 C 0.99837 0.81112 0.96124 0.0
O24 O 0.94846 0.75508 0.90497 0.0
O25 O 0.84581 0.92763 0.01522 0.0
C26 C 0.34675 0.93927 0.87127 0.0
O27 O 0.37281 0.92839 0.94039 0.0
O28 O 0.13937 0.91706 0.0006 0.0
Zn29 Zn 0.25689 0.0078 -0.02495 0.0
O30 O 0.34813 0.04138 0.06566 0.0
C31 C 0.24264 0.157 0.01382 0.0
O32 O 0.29448 0.17068 0.07689 0.0
O33 O 0.29904 0.97471 0.87074 0.0
C34 C 0.32491 0.0388 0.13863 0.0
O35 O 0.24063 0.01145 0.15485 0.0
C36 C 0.09454 0.85505 0.952 0.0
O37 O 0.12955 0.84187 0.88478 0.0
O38 O 0.22551 0.09692 0.96222 0.0
C39 C 0.74286 0.65935 0.19877 0.0
O40 O 0.73308 0.6978 0.26532 0.0
O41 O 0.79211 0.48538 0.30528 0.0
Zn42 Zn 0.70319 0.52682 0.29588 0.0
O43 O 0.69679 0.59158 0.39805 0.0
C44 C 0.54609 0.38812 0.33615 0.0
O45 O 0.5691 0.42363 0.40989 0.0
O46 O 0.732 0.58843 0.19889 0.0
C47 C 0.72378 0.58562 0.46631 0.0
O48 O 0.76068 0.53873 0.47133 0.0
C49 C 0.87311 0.51742 0.32806 0.0
O50 O 0.91533 0.59395 0.35327 0.0
O51 O 0.58828 0.42459 0.27709 0.0
C52 C 0.38294 0.01923 0.46467 0.0
O53 O 0.3802 0.98074 0.39368 0.0
O54 O 0.57778 0.1628 0.35528 0.0
Zn55 Zn 0.45357 0.1483 0.3701 0.0
O56 O 0.36895 0.08588 0.27555 0.0
C57 C 0.49246 0.30106 0.32399 0.0
O58 O 0.48733 0.26344 0.25202 0.0
O59 O 0.40968 0.09412 0.47068 0.0
C60 C 0.39226 0.07568 0.20414 0.0
O61 O 0.47674 0.1055 0.18802 0.0
C62 C 0.61075 0.11653 0.33132 0.0
O63 O 0.55911 0.04125 0.3059 0.0
O64 O 0.47176 0.26178 0.38504 0.0
C65 C 1.00403 0.29591 0.45802 0.0
O66 O 0.99959 0.23441 0.41034 0.0
O67 O 0.8702 0.3917 0.30875 0.0
Zn68 Zn 0.88128 0.29711 0.34023 0.0
O69 O 0.92637 0.24647 0.25104 0.0
C70 C 0.70733 0.15139 0.32566 0.0
O71 O 0.74331 0.11669 0.27614 0.0
O72 O 0.95857 0.33017 0.44079 0.0
C73 C 0.96764 0.28043 0.19067 0.0
O74 O 0.98502 0.35453 0.18398 0.0
C75 C 0.91278 0.46447 0.33773 0.0
O76 O 0.98063 0.4872 0.38787 0.0
O77 O 0.75454 0.2213 0.36053 0.0
C78 C 0.36521 0.97743 0.53704 0.0
O79 O 0.37758 0.01712 0.60898 0.0
O80 O 0.44625 0.82596 0.62563 0.0
Zn81 Zn 0.33895 0.8442 0.62473 0.0
O82 O 0.3272 0.90202 0.72994 0.0
C83 C 0.21857 0.68719 0.6627 0.0
O84 O 0.25461 0.71762 0.73505 0.0
O85 O 0.34644 0.90403 0.5301 0.0
C86 C 0.36517 0.9037 0.79549 0.0
O87 O 0.41466 0.86728 0.7964 0.0
C88 C 0.52758 0.87326 0.64168 0.0
O89 O 0.55365 0.94941 0.66388 0.0
O90 O 0.23837 0.73233 0.60647 0.0
C91 C 0.07779 0.32684 0.76883 0.0
O92 O 0.00719 0.30126 0.72147 0.0
O93 O 0.28844 0.47704 0.6118 0.0
Zn94 Zn 0.16818 0.44889 0.65764 0.0
O95 O 0.07355 0.39152 0.57041 0.0
C96 C 0.17687 0.60034 0.64201 0.0
O97 O 0.16143 0.57075 0.56584 0.0
O98 O 0.14967 0.38596 0.75247 0.0
C99 C 0.06667 0.3295 0.52728 0.0
O100 O 0.12026 0.29948 0.54135 0.0
C101 C 0.35572 0.50803 0.65983 0.0
O102 O 0.34408 0.51198 0.73798 0.0
O103 O 0.17561 0.55626 0.6949 0.0
C104 C 0.70289 0.62204 0.54012 0.0
O105 O 0.72441 0.6104 0.61091 0.0
O106 O 0.50839 0.59892 0.678 0.0
Zn107 Zn 0.61296 0.69316 0.63829 0.0
O108 O 0.71044 0.74856 0.72367 0.0
C109 C 0.58876 0.83879 0.64448 0.0
O110 O 0.66497 0.87819 0.6845 0.0
O111 O 0.65625 0.65811 0.53615 0.0
C112 C 0.70741 0.71975 0.7897 0.0
O113 O 0.64102 0.65061 0.80227 0.0
C114 C 0.44393 0.55573 0.62877 0.0
O115 O 0.45197 0.56746 0.55215 0.0
O116 O 0.56097 0.76576 0.61784 0.0
loop_
_geom_bond_atom_site_label_1
_geom_bond_atom_site_label_2
_geom_bond_distance
_geom_bond_site_symmetry_2
_ccdc_geom_bond_type
C0 O1 1.160 . S
C0 O7 1.185 . S
O1 C0 1.160 . S
O2 Zn3 1.899 . S
O2 C10 1.284 . S
Zn3 O2 1.899 . S
Zn3 O4 2.032 . S
Zn3 O7 2.086 1_554 S
Zn3 O12 1.977 1_454 S
O4 Zn3 2.032 . S
O4 C8 1.278 1_455 S
C5 O6 1.203 . S
C5 O12 1.267 1_554 S
O6 C5 1.203 . S
O7 C0 1.185 . S
O7 Zn3 2.086 1_556 S
C8 O4 1.278 1_655 S
C8 O9 1.211 . S
O9 C8 1.211 . S
C10 O2 1.284 . S
C10 O11 1.273 . S
O11 C10 1.273 . S
O12 Zn3 1.977 1_656 S
O12 C5 1.267 1_556 S
C13 O14 1.160 . S
C13 O20 1.185 . S
O14 C13 1.160 . S
O15 Zn16 1.899 . S
O15 C23 1.284 1_554 S
Zn16 O15 1.899 . S
Zn16 O17 2.032 1_554 S
Zn16 O20 2.086 . S
Zn16 O25 1.977 . S
O17 Zn16 2.032 1_556 S
O17 C21 1.278 . S
C18 O19 1.203 1_554 S
C18 O25 1.267 . S
O19 C18 1.203 1_556 S
O20 C13 1.185 . S
O20 Zn16 2.086 . S
C21 O17 1.278 . S
C21 O22 1.211 . S
O22 C21 1.211 . S
C23 O15 1.284 1_556 S
C23 O24 1.273 . S
O24 C23 1.273 . S
O25 Zn16 1.977 . S
O25 C18 1.267 . S
C26 O27 1.160 . S
C26 O33 1.185 1_565 S
O27 C26 1.160 . S
O28 Zn29 1.899 1_565 S
O28 C36 1.284 1_556 S
Zn29 O28 1.899 1_545 S
Zn29 O30 2.024 1_556 S
Zn29 O33 2.095 . S
Zn29 O38 1.980 . S
O30 Zn29 2.024 1_554 S
O30 C34 1.278 . S
C31 O32 1.203 . S
C31 O38 1.267 1_554 S
O32 C31 1.203 . S
O33 C26 1.185 1_545 S
O33 Zn29 2.095 . S
C34 O30 1.278 . S
C34 O35 1.211 . S
O35 C34 1.211 . S
C36 O28 1.284 1_554 S
C36 O37 1.273 . S
O37 C36 1.273 . S
O38 Zn29 1.980 . S
O38 C31 1.267 1_556 S
C39 O40 1.160 . S
C39 O46 1.185 . S
O40 C39 1.160 . S
O41 Zn42 1.899 . S
O41 C49 1.284 . S
Zn42 O41 1.899 . S
Zn42 O43 2.032 . S
Zn42 O46 2.086 . S
Zn42 O51 1.977 . S
O43 Zn42 2.032 . S
O43 C47 1.278 . S
C44 O45 1.203 . S
C44 O51 1.267 . S
O45 C44 1.203 . S
O46 C39 1.185 . S
O46 Zn42 2.086 . S
C47 O43 1.278 . S
C47 O48 1.211 . S
O48 C47 1.211 . S
C49 O41 1.284 . S
C49 O50 1.273 . S
O50 C49 1.273 . S
O51 Zn42 1.977 . S
O51 C44 1.267 . S
C52 O53 1.160 . S
C52 O59 1.185 . S
O53 C52 1.160 . S
O54 Zn55 1.899 . S
O54 C62 1.284 . S
Zn55 O54 1.899 . S
Zn55 O56 2.032 . S
Zn55 O59 2.086 . S
Zn55 O64 1.977 . S
O56 Zn55 2.032 . S
O56 C60 1.278 . S
C57 O58 1.203 . S
C57 O64 1.267 . S
O58 C57 1.203 . S
O59 C52 1.185 . S
O59 Zn55 2.086 . S
C60 O56 1.278 . S
C60 O61 1.211 . S
O61 C60 1.211 . S
C62 O54 1.284 . S
C62 O63 1.273 . S
O63 C62 1.273 . S
O64 Zn55 1.977 . S
O64 C57 1.267 . S
C65 O66 1.160 . S
C65 O72 1.185 1_455 S
O66 C65 1.160 . S
O67 Zn68 1.899 . S
O67 C75 1.284 . S
Zn68 O67 1.899 . S
Zn68 O69 2.032 . S
Zn68 O72 2.086 . S
Zn68 O77 1.977 . S
O69 Zn68 2.032 . S
O69 C73 1.278 . S
C70 O71 1.203 . S
C70 O77 1.267 . S
O71 C70 1.203 . S
O72 C65 1.185 1_655 S
O72 Zn68 2.086 . S
C73 O69 1.278 . S
C73 O74 1.211 . S
O74 C73 1.211 . S
C75 O67 1.284 . S
C75 O76 1.273 . S
O76 C75 1.273 . S
O77 Zn68 1.977 . S
O77 C70 1.267 . S
C78 O79 1.160 1_565 S
C78 O85 1.185 . S
O79 C78 1.160 1_545 S
O80 Zn81 1.899 . S
O80 C88 1.284 . S
Zn81 O80 1.899 . S
Zn81 O82 2.032 . S
Zn81 O85 2.086 . S
Zn81 O90 1.977 . S
O82 Zn81 2.032 . S
O82 C86 1.278 . S
C83 O84 1.203 . S
C83 O90 1.267 . S
O84 C83 1.203 . S
O85 C78 1.185 . S
O85 Zn81 2.086 . S
C86 O82 1.278 . S
C86 O87 1.211 . S
O87 C86 1.211 . S
C88 O80 1.284 . S
C88 O89 1.273 . S
O89 C88 1.273 . S
O90 Zn81 1.977 . S
O90 C83 1.267 . S
C91 O92 1.160 . S
C91 O98 1.185 . S
O92 C91 1.160 . S
O93 Zn94 1.899 . S
O93 C101 1.284 . S
Zn94 O93 1.899 . S
Zn94 O95 2.032 . S
Zn94 O98 2.086 . S
Zn94 O103 1.977 . S
O95 Zn94 2.032 . S
O95 C99 1.278 . S
C96 O97 1.203 . S
C96 O103 1.267 . S
O97 C96 1.203 . S
O98 C91 1.185 . S
O98 Zn94 2.086 . S
C99 O95 1.278 . S
C99 O100 1.211 . S
O100 C99 1.211 . S
C101 O93 1.284 . S
C101 O102 1.273 . S
O102 C101 1.273 . S
O103 Zn94 1.977 . S
O103 C96 1.267 . S
C104 O105 1.160 . S
C104 O111 1.185 . S
O105 C104 1.160 . S
O106 Zn107 1.899 . S
O106 C114 1.284 . S
Zn107 O106 1.899 . S
Zn107 O108 2.032 . S
Zn107 O111 2.086 . S
Zn107 O116 1.977 . S
O108 Zn107 2.032 . S
O108 C112 1.278 . S
C109 O110 1.203 . S
C109 O116 1.267 . S
O110 C109 1.203 . S
O111 C104 1.185 . S
O111 Zn107 2.086 . S
C112 O108 1.278 . S
C112 O113 1.211 . S
O113 C112 1.211 . S
C114 O106 1.284 . S
C114 O115 1.273 . S
O115 C114 1.273 . S
O116 Zn107 1.977 . S
O116 C109 1.267 . S
C31 C10 1.402 . S
C18 C5 1.035 1_565 S
C23 C36 1.797 1_656 S
C75 C49 1.769 . S
C57 C44 0.996 . S
C62 C70 1.371 . S
C88 C109 1.357 . S
C83 C96 0.948 . S
C101 C114 1.724 . S
C0 C91 1.228 . S
C21 C112 1.218 . S
C86 C26 1.150 . S
C60 C34 1.170 . S
C8 C73 1.218 . S
C39 C13 1.209 . S
C99 C65 1.169 . S
C47 C104 1.215 . S
C78 C52 1.229 1_565 S
