# Generated by pormake.
# Topology unc, (4)-cn, num edge types: 1
# Building blocks:
#     Node 0, Type 0, BuildingBlock: CEKHIL_clean_sbu_0, # of connection points: 4
#     Node 1, Type 0, BuildingBlock: CEKHIL_clean_sbu_0, # of connection points: 4
#     Node 2, Type 0, BuildingBlock: CEKHIL_clean_sbu_0, # of connection points: 4
#     Node 3, Type 0, BuildingBlock: CEKHIL_clean_sbu_0, # of connection points: 4
#     Edge 4, Type (0, 0), BuildingBlock: FUNLAD_clean_linker_0, # of connection points: 2
#     Edge 5, Type (0, 0), BuildingBlock: FUNLAD_clean_linker_0, # of connection points: 2
#     Edge 6, Type (0, 0), BuildingBlock: FUNLAD_clean_linker_0, # of connection points: 2
#     Edge 7, Type (0, 0), BuildingBlock: FUNLAD_clean_linker_0, # of connection points: 2
#     Edge 8, Type (0, 0), BuildingBlock: FUNLAD_clean_linker_0, # of connection points: 2
#     Edge 9, Type (0, 0), BuildingBlock: FUNLAD_clean_linker_0, # of connection points: 2
#     Edge 10, Type (0, 0), BuildingBlock: FUNLAD_clean_linker_0, # of connection points: 2
#     Edge 11, Type (0, 0), BuildingBlock: FUNLAD_clean_linker_0, # of connection points: 2
# Relax obj value: 0.004
# Max RMSD: 0.040
# Mean RMSD: 0.040
data_MOF--net-unc--node1-CEKHIL_clean_sbu_0--edge1-FUNLAD_clean_linker_0
_symmetry_space_group_name_H-M    P1
_symmetry_Int_Tables_number       1
_symmetry_cell_setting            triclinic
loop_
_symmetry_equiv_pos_as_xyz
'x, y, z'
_cell_length_a     34.524047
_cell_length_b     34.548144
_cell_length_c     25.610248
_cell_angle_alpha  90.158438
_cell_angle_beta   89.911834
_cell_angle_gamma 92.992739
loop_
_atom_site_label
_atom_site_type_symbol
_atom_site_fract_x
_atom_site_fract_y
_atom_site_fract_z
_atom_type_partial_charge
Co0 Co 0.04154 0.70484 0.96247 0.0
O1 O 0.03042 0.7434 0.91116 0.0
O2 O 0.99954 0.7356 0.98638 0.0
C3 C 0.04362 0.65501 0.90492 0.0
O4 O 0.04341 0.66744 0.02407 0.0
Co5 Co 0.11773 0.66207 0.95995 0.0
O6 O 0.09 0.62579 0.00882 0.0
C7 C 0.11819 0.74174 1.00297 0.0
C8 C 0.00306 0.75386 0.94211 0.0
C9 C 0.06101 0.6365 0.03496 0.0
O10 O 0.08113 0.74171 0.99714 0.0
O11 O 0.13831 0.71368 0.98766 0.0
O12 O 0.01081 0.66583 0.92327 0.0
O13 O 0.07384 0.67637 0.91858 0.0
Co14 Co 0.36012 0.03594 0.31676 0.0
O15 O 0.31993 0.04619 0.36629 0.0
O16 O 0.32699 0.07521 0.28988 0.0
C17 C 0.40904 0.03921 0.37578 0.0
O18 O 0.39946 0.03401 0.25688 0.0
Co19 Co 0.40668 0.96211 0.32844 0.0
O20 O 0.44079 0.98771 0.27516 0.0
C21 C 0.32755 0.95548 0.2843 0.0
C22 C 0.3084 0.07205 0.3341 0.0
C23 C 0.43042 0.01584 0.24721 0.0
O24 O 0.32634 0.99273 0.28359 0.0
O25 O 0.3556 0.93795 0.30466 0.0
O26 O 0.39656 0.07045 0.35509 0.0
O27 O 0.38951 0.00754 0.36378 0.0
Co28 Co 0.02422 0.36146 0.46371 0.0
O29 O 0.03682 0.32108 0.41589 0.0
O30 O 0.06688 0.33248 0.49079 0.0
C31 C 0.02207 0.40784 0.40148 0.0
O32 O 0.01969 0.4022 0.52169 0.0
Co33 Co 0.94608 0.40084 0.45104 0.0
O34 O 0.96987 0.43875 0.50119 0.0
C35 C 0.9469 0.32285 0.49801 0.0
C36 C 0.06411 0.31238 0.44769 0.0
C37 C 0.99907 0.43183 0.52947 0.0
O38 O 0.9843 0.32528 0.49948 0.0
O39 O 0.92684 0.34838 0.47611 0.0
O40 O 0.05489 0.39953 0.42221 0.0
O41 O 0.99248 0.38615 0.41598 0.0
Co42 Co 0.70653 0.02968 0.81627 0.0
O43 O 0.74568 0.01771 0.86611 0.0
O44 O 0.73788 0.98885 0.78944 0.0
C45 C 0.657 0.02915 0.87437 0.0
O46 O 0.668 0.03333 0.75592 0.0
Co47 Co 0.66478 0.10626 0.82636 0.0
O48 O 0.62919 0.08193 0.77376 0.0
C49 C 0.74358 0.10792 0.78148 0.0
C50 C 0.75655 0.99161 0.83355 0.0
C51 C 0.63811 0.053 0.74607 0.0
O52 O 0.74282 0.07065 0.7835 0.0
O53 O 0.7163 0.12772 0.79987 0.0
O54 O 0.66821 0.99718 0.85391 0.0
O55 O 0.67825 0.05994 0.86298 0.0
C56 C 0.05476 0.57367 0.08306 0.0
C57 C 0.0494 0.61369 0.08176 0.0
C58 C 0.04744 0.55246 0.12871 0.0
C59 C 0.03524 0.57097 0.17438 0.0
C60 C 0.02953 0.6109 0.17303 0.0
C61 C 0.03594 0.632 0.12687 0.0
C62 C 0.03131 0.54956 0.22448 0.0
C63 C 0.01714 0.51258 0.2268 0.0
C64 C 0.01678 0.48918 0.27532 0.0
C65 C 0.9867 0.46093 0.2833 0.0
C66 C 0.9876 0.43569 0.3258 0.0
C67 C 0.01925 0.43745 0.3603 0.0
H68 H 0.07176 0.51301 0.30532 0.0
C69 C 0.04911 0.46611 0.35289 0.0
C70 C 0.04775 0.49201 0.31102 0.0
H71 H 0.07386 0.46807 0.37889 0.0
H72 H 0.06523 0.55883 0.04891 0.0
H73 H 0.05289 0.52187 0.12876 0.0
H74 H 0.02045 0.62585 0.20785 0.0
H75 H 0.03197 0.6629 0.12713 0.0
H76 H 0.03999 0.56471 0.26017 0.0
H77 H 0.00495 0.49884 0.19183 0.0
H78 H 0.9627 0.458 0.25611 0.0
H79 H 0.96424 0.41378 0.33038 0.0
C80 C 0.45217 0.0069 0.43955 0.0
C81 C 0.44182 0.04042 0.41306 0.0
C82 C 0.48083 0.00911 0.47837 0.0
C83 C 0.49983 0.04496 0.49117 0.0
C84 C 0.49026 0.07807 0.46326 0.0
C85 C 0.46171 0.07586 0.42466 0.0
C86 C 0.52701 0.05017 0.53609 0.0
C87 C 0.5443 0.02137 0.56107 0.0
C88 C 0.56797 0.02883 0.60902 0.0
C89 C 0.59947 0.00602 0.62017 0.0
C90 C 0.62224 0.01333 0.66488 0.0
C91 C 0.61356 0.04331 0.69965 0.0
H92 H 0.53373 0.07512 0.63863 0.0
C93 C 0.58117 0.06514 0.68912 0.0
C94 C 0.55869 0.05795 0.64464 0.0
H95 H 0.57308 0.08812 0.71516 0.0
H96 H 0.43728 0.97916 0.43148 0.0
H97 H 0.48675 0.98298 0.49939 0.0
H98 H 0.50428 0.1061 0.47222 0.0
H99 H 0.45456 0.10221 0.40485 0.0
H100 H 0.53296 0.07978 0.54942 0.0
H101 H 0.54194 0.992 0.54589 0.0
H102 H 0.60689 0.98298 0.59379 0.0
H103 H 0.64679 0.99578 0.67187 0.0
C104 C 0.01147 0.60102 0.85303 0.0
C105 C 0.04557 0.62222 0.86768 0.0
C106 C 0.01228 0.57244 0.81439 0.0
C107 C 0.04724 0.5645 0.78909 0.0
C108 C 0.08169 0.58418 0.80575 0.0
C109 C 0.08087 0.61294 0.84449 0.0
C110 C 0.0481 0.53671 0.74443 0.0
C111 C 0.01843 0.53276 0.71031 0.0
C112 C 0.01731 0.50745 0.66305 0.0
C113 C 0.99075 0.51564 0.62378 0.0
C114 C 0.98604 0.49176 0.58011 0.0
C115 C 0.00752 0.45848 0.57437 0.0
H116 H 0.0602 0.46718 0.68692 0.0
C117 C 0.03494 0.45054 0.61307 0.0
C118 C 0.03981 0.4748 0.65709 0.0
H119 H 0.05187 0.42511 0.61007 0.0
H120 H 0.98388 0.60701 0.8707 0.0
H121 H 0.98535 0.55685 0.8041 0.0
H122 H 0.10909 0.5783 0.78748 0.0
H123 H 0.10771 0.62853 0.85528 0.0
H124 H 0.07454 0.52181 0.73743 0.0
H125 H 0.99386 0.55081 0.7156 0.0
H126 H 0.97305 0.54053 0.62711 0.0
H127 H 0.96481 0.4992 0.55123 0.0
C128 C 0.48718 0.00487 0.18908 0.0
C129 C 0.45463 0.02627 0.20066 0.0
C130 C 0.50935 0.0127 0.14446 0.0
C131 C 0.49966 0.0421 0.10978 0.0
C132 C 0.46804 0.06454 0.122 0.0
C133 C 0.4455 0.05653 0.16681 0.0
C134 C 0.52297 0.04993 0.06157 0.0
C135 C 0.53907 0.02102 0.03504 0.0
C136 C 0.56601 0.02605 0.98978 0.0
C137 C 0.57358 0.99311 0.95998 0.0
C138 C 0.60211 0.99467 0.92129 0.0
C139 C 0.62403 0.02926 0.91145 0.0
H140 H 0.58243 0.08712 1.00117 0.0
C141 C 0.61559 0.06277 0.93968 0.0
C142 C 0.58689 0.06121 0.97863 0.0
H143 H 0.63205 0.08985 0.93296 0.0
H144 H 0.49558 0.98166 0.21431 0.0
H145 H 0.53438 0.99575 0.1375 0.0
H146 H 0.4603 0.08776 0.09632 0.0
H147 H 0.42083 0.07378 0.17464 0.0
H148 H 0.5261 0.07954 0.04754 0.0
H149 H 0.53226 0.99135 0.04738 0.0
H150 H 0.55806 0.96562 0.9676 0.0
H151 H 0.6077 0.96837 0.90007 0.0
C152 C 0.27249 0.94683 0.21963 0.0
C153 C 0.29689 0.93115 0.25721 0.0
C154 C 0.24758 0.92248 0.18923 0.0
C155 C 0.24643 0.88196 0.19622 0.0
C156 C 0.26953 0.86674 0.23542 0.0
C157 C 0.29432 0.89088 0.26548 0.0
C158 C 0.22438 0.85399 0.16147 0.0
C159 C 0.19585 0.86284 0.12829 0.0
C160 C 0.17658 0.83296 0.09355 0.0
C161 C 0.13711 0.8349 0.08114 0.0
C162 C 0.11816 0.80585 0.05075 0.0
C163 C 0.1385 0.7745 0.03147 0.0
H164 H 0.228 0.8008 0.07951 0.0
C165 C 0.17844 0.77369 0.04199 0.0
C166 C 0.19722 0.8025 0.0725 0.0
H167 H 0.19529 0.75037 0.02743 0.0
H168 H 0.27386 0.9777 0.21204 0.0
H169 H 0.23066 0.93545 0.15907 0.0
H170 H 0.26925 0.83575 0.24197 0.0
H171 H 0.31235 0.87769 0.29431 0.0
H172 H 0.23199 0.82392 0.16405 0.0
H173 H 0.18509 0.89179 0.12804 0.0
H174 H 0.12064 0.85834 0.0962 0.0
H175 H 0.08745 0.80764 0.0432 0.0
C176 C 0.26734 0.12909 0.31767 0.0
C177 C 0.27781 0.09845 0.34982 0.0
C178 C 0.24076 0.15567 0.33526 0.0
C179 C 0.22404 0.15205 0.38546 0.0
C180 C 0.23438 0.1212 0.41716 0.0
C181 C 0.26068 0.09466 0.39955 0.0
C182 C 0.19691 0.18036 0.40707 0.0
C183 C 0.17459 0.2022 0.37716 0.0
C184 C 0.14605 0.2292 0.3984 0.0
C185 C 0.11502 0.23866 0.36645 0.0
C186 C 0.08812 0.26475 0.38339 0.0
C187 C 0.0917 0.28265 0.43269 0.0
H188 H 0.17359 0.24087 0.47356 0.0
C189 C 0.12263 0.27321 0.46509 0.0
C190 C 0.14958 0.2467 0.44817 0.0
H191 H 0.1264 0.28675 0.50306 0.0
H192 H 0.28033 0.13308 0.27941 0.0
H193 H 0.23437 0.17954 0.31 0.0
H194 H 0.22217 0.11767 0.45597 0.0
H195 H 0.26817 0.07154 0.42555 0.0
H196 H 0.19368 0.18143 0.44923 0.0
H197 H 0.17535 0.19858 0.33505 0.0
H198 H 0.11155 0.22586 0.32794 0.0
H199 H 0.06479 0.27137 0.35718 0.0
C200 C 0.77469 0.16892 0.74391 0.0
C201 C 0.77613 0.12896 0.75364 0.0
C202 C 0.80317 0.18834 0.71366 0.0
C203 C 0.83395 0.16837 0.69226 0.0
C204 C 0.83664 0.12894 0.70406 0.0
C205 C 0.80785 0.1093 0.73406 0.0
C206 C 0.86305 0.18836 0.65724 0.0
C207 C 0.85255 0.21539 0.62292 0.0
C208 C 0.87933 0.23817 0.58759 0.0
C209 C 0.8629 0.25786 0.54597 0.0
C210 C 0.88541 0.28369 0.51542 0.0
C211 C 0.92514 0.29079 0.52569 0.0
H212 H 0.93324 0.22937 0.62862 0.0
C213 C 0.94225 0.26964 0.56566 0.0
C214 C 0.91953 0.24362 0.59652 0.0
H215 H 0.97275 0.27454 0.57475 0.0
H216 H 0.75102 0.18521 0.75864 0.0
H217 H 0.80091 0.21906 0.70686 0.0
H218 H 0.86035 0.11302 0.68864 0.0
H219 H 0.81012 0.07861 0.7411 0.0
H220 H 0.89268 0.1793 0.65806 0.0
H221 H 0.82195 0.22104 0.61979 0.0
H222 H 0.83212 0.25418 0.53792 0.0
H223 H 0.87123 0.29907 0.48464 0.0
C224 C 0.79832 0.93544 0.81472 0.0
C225 C 0.78741 0.96535 0.84809 0.0
C226 C 0.82596 0.90955 0.83072 0.0
C227 C 0.84327 0.91319 0.88049 0.0
C228 C 0.83241 0.94327 0.91342 0.0
C229 C 0.80505 0.9691 0.89742 0.0
C230 C 0.87136 0.88552 0.90073 0.0
C231 C 0.89328 0.86359 0.87011 0.0
C232 C 0.92184 0.83662 0.89098 0.0
C233 C 0.95265 0.82643 0.85881 0.0
C234 C 0.97949 0.80038 0.87604 0.0
C235 C 0.97596 0.78347 0.92581 0.0
H236 H 0.89447 0.82602 0.96657 0.0
C237 C 0.94521 0.79363 0.95824 0.0
C238 C 0.91837 0.81986 0.94103 0.0
H239 H 0.94145 0.7808 0.99658 0.0
H240 H 0.78502 0.93159 0.77665 0.0
H241 H 0.83277 0.88621 0.80458 0.0
H242 H 0.84504 0.94676 0.95198 0.0
H243 H 0.7973 0.99172 0.92427 0.0
H244 H 0.87538 0.88479 0.94275 0.0
H245 H 0.89188 0.86679 0.82801 0.0
H246 H 0.95598 0.83863 0.82002 0.0
H247 H 0.00269 0.79304 0.84989 0.0
loop_
_geom_bond_atom_site_label_1
_geom_bond_atom_site_label_2
_geom_bond_distance
_geom_bond_site_symmetry_2
_ccdc_geom_bond_type
Co0 O1 2.221 1_554 S
Co0 O2 2.091 1_455 S
Co0 O4 2.004 . S
Co0 O10 2.021 . S
Co0 O12 2.137 1_454 S
Co0 O13 2.244 1_554 S
O1 Co0 2.221 1_556 S
O1 C8 1.227 1_455 S
O2 Co0 2.091 1_655 S
O2 C8 1.261 1_554 S
C3 O12 1.247 1_455 S
C3 O13 1.272 . S
O4 Co0 2.004 . S
O4 C9 1.259 . S
Co5 O6 2.061 . S
Co5 O11 2.052 . S
Co5 O13 2.135 1_554 S
O6 Co5 2.061 . S
O6 C9 1.235 . S
C7 O10 1.238 . S
C7 O11 1.241 . S
C8 O1 1.227 1_655 S
C8 O2 1.261 1_556 S
C9 O4 1.259 . S
C9 O6 1.235 . S
O10 Co0 2.021 . S
O10 C7 1.238 . S
O11 Co5 2.052 . S
O11 C7 1.241 . S
O12 Co0 2.137 1_656 S
O12 C3 1.247 1_655 S
O13 Co0 2.244 1_556 S
O13 C3 1.272 . S
O13 Co5 2.135 1_556 S
Co14 O15 2.216 . S
Co14 O16 2.091 . S
Co14 O18 2.004 . S
Co14 O24 2.021 . S
Co14 O26 2.137 . S
Co14 O27 2.244 . S
O15 Co14 2.216 . S
O15 C22 1.247 . S
O16 Co14 2.091 . S
O16 C22 1.261 . S
C17 O26 1.247 . S
C17 O27 1.272 . S
O18 Co14 2.004 . S
O18 C23 1.259 . S
Co19 O20 2.061 . S
Co19 O25 2.052 . S
Co19 O27 2.135 1_565 S
O20 Co19 2.061 . S
O20 C23 1.235 1_565 S
C21 O24 1.238 1_565 S
C21 O25 1.241 . S
C22 O15 1.247 . S
C22 O16 1.261 . S
C23 O18 1.259 . S
C23 O20 1.235 1_545 S
O24 Co14 2.021 . S
O24 C21 1.238 1_545 S
O25 Co19 2.052 . S
O25 C21 1.241 . S
O26 Co14 2.137 . S
O26 C17 1.247 . S
O27 Co14 2.244 . S
O27 C17 1.272 . S
O27 Co19 2.135 1_545 S
Co28 O29 2.216 . S
Co28 O30 2.091 . S
Co28 O32 2.004 . S
Co28 O38 2.021 . S
Co28 O40 2.137 . S
Co28 O41 2.244 . S
O29 Co28 2.216 . S
O29 C36 1.247 . S
O30 Co28 2.091 . S
O30 C36 1.261 . S
C31 O40 1.247 . S
C31 O41 1.272 . S
O32 Co28 2.004 . S
O32 C37 1.259 . S
Co33 O34 2.061 . S
Co33 O39 2.052 . S
Co33 O41 2.135 1_655 S
O34 Co33 2.061 . S
O34 C37 1.235 1_655 S
C35 O38 1.238 1_655 S
C35 O39 1.241 . S
C36 O29 1.247 . S
C36 O30 1.261 . S
C37 O32 1.259 . S
C37 O34 1.235 1_455 S
O38 Co28 2.021 . S
O38 C35 1.238 1_455 S
O39 Co33 2.052 . S
O39 C35 1.241 . S
O40 Co28 2.137 . S
O40 C31 1.247 . S
O41 Co28 2.244 . S
O41 C31 1.272 . S
O41 Co33 2.135 1_455 S
Co42 O43 2.221 . S
Co42 O44 2.091 1_545 S
Co42 O46 2.004 . S
Co42 O52 2.021 . S
Co42 O54 2.137 1_545 S
Co42 O55 2.244 . S
O43 Co42 2.221 . S
O43 C50 1.227 1_545 S
O44 Co42 2.091 1_565 S
O44 C50 1.261 . S
C45 O54 1.247 1_545 S
C45 O55 1.272 . S
O46 Co42 2.004 . S
O46 C51 1.259 . S
Co47 O48 2.061 . S
Co47 O53 2.052 . S
Co47 O55 2.135 . S
O48 Co47 2.061 . S
O48 C51 1.235 . S
C49 O52 1.238 . S
C49 O53 1.241 . S
C50 O43 1.227 1_565 S
C50 O44 1.261 . S
C51 O46 1.259 . S
C51 O48 1.235 . S
O52 Co42 2.021 . S
O52 C49 1.238 . S
O53 Co47 2.052 . S
O53 C49 1.241 . S
O54 Co42 2.137 1_565 S
O54 C45 1.247 1_565 S
O55 Co42 2.244 . S
O55 C45 1.272 . S
O55 Co47 2.135 . S
C56 C57 1.386 . S
C56 C58 1.383 . S
C56 H72 0.951 . S
C57 C56 1.386 . S
C57 C61 1.383 . S
C58 C56 1.383 . S
C58 C59 1.402 . S
C58 H73 0.951 . S
C59 C58 1.402 . S
C59 C60 1.375 . S
C59 C62 1.481 . S
C60 C59 1.375 . S
C60 C61 1.367 . S
C60 H74 0.951 . S
C61 C57 1.383 . S
C61 C60 1.367 . S
C61 H75 0.950 . S
C62 C59 1.481 . S
C62 C63 1.297 . S
C62 H76 0.950 . S
C63 C62 1.297 . S
C63 C64 1.479 . S
C63 H77 0.950 . S
C64 C63 1.479 . S
C64 C65 1.375 . S
C64 C70 1.404 . S
C65 C64 1.375 . S
C65 C66 1.369 . S
C65 H78 0.950 . S
C66 C65 1.369 . S
C66 C67 1.392 . S
C66 H79 0.951 . S
C67 C66 1.392 . S
C67 C69 1.384 . S
H68 C70 0.949 . S
C69 C67 1.384 . S
C69 C70 1.385 . S
C69 H71 0.950 . S
C70 C64 1.404 . S
C70 H68 0.949 . S
C70 C69 1.385 . S
H71 C69 0.950 . S
H72 C56 0.951 . S
H73 C58 0.951 . S
H74 C60 0.951 . S
H75 C61 0.950 . S
H76 C62 0.950 . S
H77 C63 0.950 . S
H78 C65 0.950 . S
H79 C66 0.951 . S
C80 C81 1.386 . S
C80 C82 1.383 . S
C80 H96 0.951 . S
C81 C80 1.386 . S
C81 C85 1.383 . S
C82 C80 1.383 . S
C82 C83 1.402 . S
C82 H97 0.951 . S
C83 C82 1.402 . S
C83 C84 1.375 . S
C83 C86 1.481 . S
C84 C83 1.375 . S
C84 C85 1.367 . S
C84 H98 0.951 . S
C85 C81 1.383 . S
C85 C84 1.367 . S
C85 H99 0.950 . S
C86 C83 1.481 . S
C86 C87 1.297 . S
C86 H100 0.950 . S
C87 C86 1.297 . S
C87 C88 1.479 . S
C87 H101 0.950 . S
C88 C87 1.479 . S
C88 C89 1.375 . S
C88 C94 1.404 . S
C89 C88 1.375 . S
C89 C90 1.369 . S
C89 H102 0.950 . S
C90 C89 1.369 . S
C90 C91 1.392 . S
C90 H103 0.951 . S
C91 C90 1.392 . S
C91 C93 1.384 . S
H92 C94 0.949 . S
C93 C91 1.384 . S
C93 C94 1.385 . S
C93 H95 0.950 . S
C94 C88 1.404 . S
C94 H92 0.949 . S
C94 C93 1.385 . S
H95 C93 0.950 . S
H96 C80 0.951 . S
H97 C82 0.951 . S
H98 C84 0.951 . S
H99 C85 0.950 . S
H100 C86 0.950 . S
H101 C87 0.950 . S
H102 C89 0.950 . S
H103 C90 0.951 . S
C104 C105 1.386 . S
C104 C106 1.383 . S
C104 H120 0.951 1_455 S
C105 C104 1.386 . S
C105 C109 1.383 . S
C106 C104 1.383 . S
C106 C107 1.402 . S
C106 H121 0.951 . S
C107 C106 1.402 . S
C107 C108 1.375 . S
C107 C110 1.481 . S
C108 C107 1.375 . S
C108 C109 1.367 . S
C108 H122 0.951 . S
C109 C105 1.383 . S
C109 C108 1.367 . S
C109 H123 0.950 . S
C110 C107 1.481 . S
C110 C111 1.297 . S
C110 H124 0.950 . S
C111 C110 1.297 . S
C111 C112 1.479 . S
C111 H125 0.950 . S
C112 C111 1.479 . S
C112 C113 1.375 . S
C112 C118 1.404 . S
C113 C112 1.375 . S
C113 C114 1.369 . S
C113 H126 0.956 . S
C114 C113 1.369 . S
C114 C115 1.392 . S
C114 H127 0.951 1_455 S
C115 C114 1.392 . S
C115 C117 1.384 . S
H116 C118 0.949 . S
C117 C115 1.384 . S
C117 C118 1.385 . S
C117 H119 0.950 . S
C118 C112 1.404 . S
C118 H116 0.949 . S
C118 C117 1.385 . S
H119 C117 0.950 . S
H120 C104 0.951 1_655 S
H121 C106 0.951 . S
H122 C108 0.951 . S
H123 C109 0.950 . S
H124 C110 0.950 . S
H125 C111 0.950 . S
H126 C113 0.956 . S
H127 C114 0.951 1_655 S
C128 C129 1.386 . S
C128 C130 1.383 . S
C128 H144 0.951 1_545 S
C129 C128 1.386 . S
C129 C133 1.383 . S
C130 C128 1.383 . S
C130 C131 1.402 . S
C130 H145 0.951 1_545 S
C131 C130 1.402 . S
C131 C132 1.375 . S
C131 C134 1.481 1_554 S
C132 C131 1.375 . S
C132 C133 1.367 . S
C132 H146 0.951 . S
C133 C129 1.383 . S
C133 C132 1.367 . S
C133 H147 0.950 . S
C134 C131 1.481 1_556 S
C134 C135 1.297 . S
C134 H148 0.950 . S
C135 C134 1.297 . S
C135 C136 1.479 . S
C135 H149 0.958 1_545 S
C136 C135 1.479 . S
C136 C137 1.375 1_545 S
C136 C142 1.404 . S
C137 C136 1.375 1_565 S
C137 C138 1.369 . S
C137 H150 0.950 . S
C138 C137 1.369 . S
C138 C139 1.392 1_565 S
C138 H151 0.951 . S
C139 C138 1.392 1_545 S
C139 C141 1.384 . S
H140 C142 0.949 . S
C141 C139 1.384 . S
C141 C142 1.385 . S
C141 H143 0.950 . S
C142 C136 1.404 . S
C142 H140 0.949 . S
C142 C141 1.385 . S
H143 C141 0.950 . S
H144 C128 0.951 1_565 S
H145 C130 0.951 1_565 S
H146 C132 0.951 . S
H147 C133 0.950 . S
H148 C134 0.950 . S
H149 C135 0.958 1_565 S
H150 C137 0.950 . S
H151 C138 0.951 . S
C152 C153 1.386 . S
C152 C154 1.383 . S
C152 H168 0.951 . S
C153 C152 1.386 . S
C153 C157 1.383 . S
C154 C152 1.383 . S
C154 C155 1.402 . S
C154 H169 0.951 . S
C155 C154 1.402 . S
C155 C156 1.375 . S
C155 C158 1.481 . S
C156 C155 1.375 . S
C156 C157 1.367 . S
C156 H170 0.951 . S
C157 C153 1.383 . S
C157 C156 1.367 . S
C157 H171 0.950 . S
C158 C155 1.481 . S
C158 C159 1.297 . S
C158 H172 0.950 . S
C159 C158 1.297 . S
C159 C160 1.479 . S
C159 H173 0.950 . S
C160 C159 1.479 . S
C160 C161 1.375 . S
C160 C166 1.404 . S
C161 C160 1.375 . S
C161 C162 1.369 . S
C161 H174 0.950 . S
C162 C161 1.369 . S
C162 C163 1.392 . S
C162 H175 0.951 . S
C163 C162 1.392 . S
C163 C165 1.384 . S
H164 C166 0.949 . S
C165 C163 1.384 . S
C165 C166 1.385 . S
C165 H167 0.950 . S
C166 C160 1.404 . S
C166 H164 0.949 . S
C166 C165 1.385 . S
H167 C165 0.950 . S
H168 C152 0.951 . S
H169 C154 0.951 . S
H170 C156 0.951 . S
H171 C157 0.950 . S
H172 C158 0.950 . S
H173 C159 0.950 . S
H174 C161 0.950 . S
H175 C162 0.951 . S
C176 C177 1.386 . S
C176 C178 1.383 . S
C176 H192 0.951 . S
C177 C176 1.386 . S
C177 C181 1.383 . S
C178 C176 1.383 . S
C178 C179 1.402 . S
C178 H193 0.951 . S
C179 C178 1.402 . S
C179 C180 1.375 . S
C179 C182 1.481 . S
C180 C179 1.375 . S
C180 C181 1.367 . S
C180 H194 0.951 . S
C181 C177 1.383 . S
C181 C180 1.367 . S
C181 H195 0.950 . S
C182 C179 1.481 . S
C182 C183 1.297 . S
C182 H196 0.950 . S
C183 C182 1.297 . S
C183 C184 1.479 . S
C183 H197 0.950 . S
C184 C183 1.479 . S
C184 C185 1.375 . S
C184 C190 1.404 . S
C185 C184 1.375 . S
C185 C186 1.369 . S
C185 H198 0.950 . S
C186 C185 1.369 . S
C186 C187 1.392 . S
C186 H199 0.951 . S
C187 C186 1.392 . S
C187 C189 1.384 . S
H188 C190 0.949 . S
C189 C187 1.384 . S
C189 C190 1.385 . S
C189 H191 0.950 . S
C190 C184 1.404 . S
C190 H188 0.949 . S
C190 C189 1.385 . S
H191 C189 0.950 . S
H192 C176 0.951 . S
H193 C178 0.951 . S
H194 C180 0.951 . S
H195 C181 0.950 . S
H196 C182 0.950 . S
H197 C183 0.950 . S
H198 C185 0.950 . S
H199 C186 0.951 . S
C200 C201 1.386 . S
C200 C202 1.383 . S
C200 H216 0.951 . S
C201 C200 1.386 . S
C201 C205 1.383 . S
C202 C200 1.383 . S
C202 C203 1.402 . S
C202 H217 0.951 . S
C203 C202 1.402 . S
C203 C204 1.375 . S
C203 C206 1.481 . S
C204 C203 1.375 . S
C204 C205 1.367 . S
C204 H218 0.951 . S
C205 C201 1.383 . S
C205 C204 1.367 . S
C205 H219 0.950 . S
C206 C203 1.481 . S
C206 C207 1.297 . S
C206 H220 0.950 . S
C207 C206 1.297 . S
C207 C208 1.479 . S
C207 H221 0.950 . S
C208 C207 1.479 . S
C208 C209 1.375 . S
C208 C214 1.404 . S
C209 C208 1.375 . S
C209 C210 1.369 . S
C209 H222 0.950 . S
C210 C209 1.369 . S
C210 C211 1.392 . S
C210 H223 0.951 . S
C211 C210 1.392 . S
C211 C213 1.384 . S
H212 C214 0.949 . S
C213 C211 1.384 . S
C213 C214 1.385 . S
C213 H215 0.950 . S
C214 C208 1.404 . S
C214 H212 0.949 . S
C214 C213 1.385 . S
H215 C213 0.950 . S
H216 C200 0.951 . S
H217 C202 0.951 . S
H218 C204 0.951 . S
H219 C205 0.950 . S
H220 C206 0.950 . S
H221 C207 0.950 . S
H222 C209 0.950 . S
H223 C210 0.951 . S
C224 C225 1.386 . S
C224 C226 1.383 . S
C224 H240 0.951 . S
C225 C224 1.386 . S
C225 C229 1.383 . S
C226 C224 1.383 . S
C226 C227 1.402 . S
C226 H241 0.951 . S
C227 C226 1.402 . S
C227 C228 1.375 . S
C227 C230 1.481 . S
C228 C227 1.375 . S
C228 C229 1.367 . S
C228 H242 0.951 . S
C229 C225 1.383 . S
C229 C228 1.367 . S
C229 H243 0.950 . S
C230 C227 1.481 . S
C230 C231 1.297 . S
C230 H244 0.950 . S
C231 C230 1.297 . S
C231 C232 1.479 . S
C231 H245 0.950 . S
C232 C231 1.479 . S
C232 C233 1.375 . S
C232 C238 1.404 . S
C233 C232 1.375 . S
C233 C234 1.369 . S
C233 H246 0.950 . S
C234 C233 1.369 . S
C234 C235 1.392 . S
C234 H247 0.951 . S
C235 C234 1.392 . S
C235 C237 1.384 . S
H236 C238 0.949 . S
C237 C235 1.384 . S
C237 C238 1.385 . S
C237 H239 0.950 1_556 S
C238 C232 1.404 . S
C238 H236 0.949 . S
C238 C237 1.385 . S
H239 C237 0.950 1_554 S
H240 C224 0.951 . S
H241 C226 0.951 . S
H242 C228 0.951 . S
H243 C229 0.950 . S
H244 C230 0.950 . S
H245 C231 0.950 . S
H246 C233 0.950 . S
H247 C234 0.951 . S
C57 C9 1.380 . S
C67 C31 1.380 . S
C81 C17 1.396 . S
C91 C51 1.356 . S
C105 C3 1.410 . S
C115 C37 1.385 . S
C129 C23 1.402 . S
C139 C45 1.383 . S
C153 C21 1.440 . S
C163 C7 1.451 . S
C177 C22 1.485 . S
C187 C36 1.474 . S
C201 C49 1.462 . S
C211 C35 1.420 . S
C225 C50 1.481 . S
C235 C8 1.480 . S
