# Generated by pormake.
# Topology pcu, (6)-cn, num edge types: 1
# Building blocks:
#     Node 0, Type 0, BuildingBlock: BETDAH_clean_sbu_0, # of connection points: 6
#     Edge 1, Type (0, 0), BuildingBlock: XIVTED_clean_linker_0, # of connection points: 2
#     Edge 2, Type (0, 0), BuildingBlock: XIVTED_clean_linker_0, # of connection points: 2
#     Edge 3, Type (0, 0), BuildingBlock: XIVTED_clean_linker_0, # of connection points: 2
# Relax obj value: 0.000
# Max RMSD: 0.000
# Mean RMSD: 0.000
data_MOF--net-pcu--node1-BETDAH_clean_sbu_0--edge1-XIVTED_clean_linker_0
_symmetry_space_group_name_H-M    P1
_symmetry_Int_Tables_number       1
_symmetry_cell_setting            triclinic
loop_
_symmetry_equiv_pos_as_xyz
'x, y, z'
_cell_length_a     25.240051
_cell_length_b     15.680396
_cell_length_c     14.546097
_cell_angle_alpha  87.91979
_cell_angle_beta   95.366127
_cell_angle_gamma 125.30979
loop_
_atom_site_label
_atom_site_type_symbol
_atom_site_fract_x
_atom_site_fract_y
_atom_site_fract_z
_atom_type_partial_charge
Ho0 Ho 0.9562 0.91075 0.02027 0.0
Ho1 Ho 0.1018 0.047 0.99654 0.0
C2 C 0.03382 0.16362 1.00074 0.0
C3 C 0.84144 0.83342 0.07269 0.0
C4 C 0.79448 0.8613 0.06399 0.0
C5 C 0.74577 0.81947 0.12516 0.0
C6 C 0.69981 0.84297 0.11682 0.0
C7 C 0.70152 0.90875 0.04681 0.0
C8 C 0.75103 0.95146 0.9861 0.0
C9 C 0.7972 0.92826 0.99482 0.0
C10 C 0.98681 0.93256 0.84378 0.0
C11 C 1.02415 0.79413 0.01579 0.0
C12 C 0.21671 0.12455 0.94465 0.0
C13 C 0.26362 0.09656 0.95328 0.0
C14 C 0.31236 0.13842 0.89214 0.0
C15 C 0.35829 0.11486 0.90044 0.0
C16 C 0.35653 0.04899 0.9704 0.0
C17 C 0.307 0.00624 0.03106 0.0
C18 C 0.26085 0.02949 0.02237 0.0
C19 C 0.07081 0.02504 0.17296 0.0
O20 O 0.98381 0.07531 0.0315 0.0
O21 O 0.08304 0.16901 0.96887 0.0
O22 O 0.85132 0.80493 0.99641 0.0
O23 O 0.89552 0.89567 0.12479 0.0
O24 O 0.93706 0.84813 0.87511 0.0
O25 O 1.01508 0.00351 0.90553 0.0
O26 O 0.07415 0.88245 0.98504 0.0
O27 O 0.97497 0.78873 0.04776 0.0
O28 O 0.20665 0.15258 0.02102 0.0
O29 O 0.16276 0.06267 0.89219 0.0
O30 O 0.1205 0.10963 0.14172 0.0
O31 O 0.04296 0.95424 0.11114 0.0
H32 H 0.7429 0.76774 0.17905 0.0
H33 H 0.6621 0.80782 0.16417 0.0
H34 H 0.75444 0.00354 0.93226 0.0
H35 H 0.83482 0.96215 0.94732 0.0
H36 H 0.31526 0.19023 0.8383 0.0
H37 H 0.39602 0.15005 0.85312 0.0
H38 H 0.30356 0.9541 0.08486 0.0
H39 H 0.22322 -0.00444 0.06986 0.0
H40 H 0.97584 0.84645 0.25441 0.0
H41 H 0.08193 0.1108 0.76225 0.0
H42 H 0.13366 0.16908 0.31428 0.0
H43 H 0.92358 0.78845 0.70245 0.0
H44 H 0.10214 0.13366 0.59856 0.0
H45 H 0.95555 0.82345 0.41812 0.0
C46 C 1.0061 0.91243 0.30205 0.0
C47 C 0.05655 0.00973 0.27091 0.0
C48 C 0.06297 0.05787 0.62117 0.0
C49 C 0.03389 -0.01582 0.45827 0.0
C50 C 0.05153 0.04484 0.71462 0.0
C51 C 1.00096 0.94767 0.74579 0.0
C52 C 1.02354 0.97307 0.5584 0.0
C53 C 0.96302 0.86477 0.68122 0.0
C54 C 0.99461 0.89933 0.3955 0.0
C55 C 0.09432 0.09266 0.33548 0.0
N56 N 0.975 0.87935 0.59069 0.0
N57 N 0.0823 0.078 0.42599 0.0
H58 H 0.40851 0.00953 0.83379 0.0
H59 H 0.64957 0.94829 0.1834 0.0
H60 H 0.41933 0.037 0.13013 0.0
H61 H 0.63867 0.92064 0.88706 0.0
H62 H 0.56536 -0.01935 0.1653 0.0
H63 H 0.49272 0.97715 0.85188 0.0
C64 C 0.42874 0.00922 0.90272 0.0
C65 C 0.40667 0.0263 0.98053 0.0
C66 C 0.58136 0.96754 0.10418 0.0
C67 C 0.50322 -0.01155 1.00183 0.0
C68 C 0.62932 0.94855 0.11447 0.0
C69 C 0.65137 0.93142 0.03667 0.0
C70 C 0.55482 0.96926 0.01536 0.0
C71 C 0.6239 0.93458 0.94905 0.0
C72 C 0.47671 -0.00977 0.91301 0.0
C73 C 0.43412 0.02309 0.06814 0.0
N74 N 0.57708 0.95281 0.94085 0.0
N75 N 0.48094 0.00485 0.07634 0.0
H76 H 0.93016 0.59512 0.06793 0.0
H77 H 0.12781 0.3626 0.94853 0.0
H78 H 0.11977 0.77933 0.96264 0.0
H79 H 0.93817 0.17841 0.05373 0.0
H80 H 0.12563 0.51628 0.95271 0.0
H81 H 0.93233 0.44144 0.06367 0.0
C82 C 0.97227 0.6034 0.04409 0.0
C83 C 1.02477 0.70035 0.01552 0.0
C84 C 0.08449 0.44217 0.97483 0.0
C85 C 1.02754 0.52469 0.01025 0.0
C86 C 0.08569 0.35433 0.97234 0.0
C87 C 0.03319 0.25739 1.00092 0.0
C88 C 0.0304 0.43303 1.00609 0.0
C89 C 0.9799 0.25149 0.03119 0.0
C90 C 0.97346 0.51556 0.04155 0.0
C91 C 0.07805 0.70624 0.98518 0.0
N92 N 0.97993 0.33804 0.03302 0.0
N93 N 0.07801 0.61969 0.98332 0.0
loop_
_geom_bond_atom_site_label_1
_geom_bond_atom_site_label_2
_geom_bond_distance
_geom_bond_site_symmetry_2
_ccdc_geom_bond_type
Ho0 C3 2.811 . S
Ho0 O20 2.322 1_565 S
Ho0 O22 2.378 . S
Ho0 O23 2.524 1_556 S
Ho0 O24 2.381 . S
Ho0 O25 2.669 1_665 S
Ho0 O27 2.346 . S
Ho0 O31 2.305 1_556 S
Ho1 C12 2.811 . S
Ho1 O21 2.346 . S
Ho1 O25 2.305 1_554 S
Ho1 O26 2.322 1_545 S
Ho1 O28 2.378 . S
Ho1 O29 2.524 1_554 S
Ho1 O30 2.381 . S
Ho1 O31 2.669 1_445 S
C2 O20 1.259 1_455 S
C2 O21 1.268 1_556 S
C3 Ho0 2.811 . S
C3 C4 1.490 . S
C3 O22 1.215 . S
C3 O23 1.289 1_556 S
C4 C3 1.490 . S
C4 C5 1.338 1_566 S
C4 C9 1.422 . S
C5 C4 1.338 1_544 S
C5 C6 1.442 . S
C5 H32 0.930 . S
C6 C5 1.442 . S
C6 C7 1.381 1_544 S
C6 H33 0.931 . S
C7 C6 1.381 1_566 S
C7 C8 1.321 . S
C8 C7 1.321 . S
C8 C9 1.403 . S
C8 H34 0.934 . S
C9 C4 1.422 . S
C9 C8 1.403 . S
C9 H35 0.930 . S
C10 O24 1.275 . S
C10 O25 1.256 1_665 S
C11 O26 1.259 1_655 S
C11 O27 1.268 1_554 S
C12 Ho1 2.811 . S
C12 C13 1.488 . S
C12 O28 1.215 . S
C12 O29 1.289 1_554 S
C13 C12 1.488 . S
C13 C14 1.348 1_544 S
C13 C18 1.413 . S
C14 C13 1.348 1_566 S
C14 C15 1.442 . S
C14 H36 0.930 . S
C15 C14 1.442 . S
C15 C16 1.381 1_566 S
C15 H37 0.931 . S
C16 C15 1.381 1_544 S
C16 C17 1.321 . S
C17 C16 1.321 . S
C17 C18 1.403 . S
C17 H38 0.934 . S
C18 C13 1.413 . S
C18 C17 1.403 . S
C18 H39 0.930 . S
C19 O30 1.275 . S
C19 O31 1.256 1_445 S
O20 Ho0 2.322 1_545 S
O20 C2 1.259 1_655 S
O21 Ho1 2.346 . S
O21 C2 1.268 1_554 S
O22 Ho0 2.378 . S
O22 C3 1.215 . S
O23 Ho0 2.524 1_554 S
O23 C3 1.289 1_554 S
O24 Ho0 2.381 . S
O24 C10 1.275 . S
O25 Ho0 2.669 1_445 S
O25 Ho1 2.305 1_556 S
O25 C10 1.256 1_445 S
O26 Ho1 2.322 1_565 S
O26 C11 1.259 1_455 S
O27 Ho0 2.346 . S
O27 C11 1.268 1_556 S
O28 Ho1 2.378 . S
O28 C12 1.215 . S
O29 Ho1 2.524 1_556 S
O29 C12 1.289 1_556 S
O30 Ho1 2.381 . S
O30 C19 1.275 . S
O31 Ho0 2.305 1_554 S
O31 Ho1 2.669 1_665 S
O31 C19 1.256 1_665 S
H32 C5 0.930 . S
H33 C6 0.931 . S
H34 C8 0.934 . S
H35 C9 0.930 . S
H36 C14 0.930 . S
H37 C15 0.931 . S
H38 C17 0.934 . S
H39 C18 0.930 . S
H40 C46 0.930 . S
H41 C50 0.930 . S
H42 C55 0.929 . S
H43 C53 0.929 . S
H44 C48 0.929 . S
H45 C54 0.929 . S
C46 H40 0.930 . S
C46 C47 1.366 . S
C46 C54 1.378 . S
C47 C46 1.366 . S
C47 C55 1.434 1_665 S
C48 H44 0.929 . S
C48 C50 1.378 . S
C48 C52 1.346 . S
C49 C52 1.465 1_665 S
C49 C54 1.348 . S
C49 N57 1.429 1_665 S
C50 H41 0.930 . S
C50 C48 1.378 . S
C50 C51 1.364 . S
C51 C50 1.364 . S
C51 C53 1.436 1_445 S
C52 C48 1.346 . S
C52 C49 1.465 1_445 S
C52 N56 1.431 1_445 S
C53 H43 0.929 . S
C53 C51 1.436 1_665 S
C53 N56 1.384 . S
C54 H45 0.929 . S
C54 C46 1.378 . S
C54 C49 1.348 . S
C55 H42 0.929 . S
C55 C47 1.434 1_445 S
C55 N57 1.384 . S
N56 C52 1.431 1_665 S
N56 C53 1.384 . S
N57 C49 1.429 1_445 S
N57 C55 1.384 . S
H58 C64 0.930 . S
H59 C68 0.930 . S
H60 C73 0.929 . S
H61 C71 0.929 . S
H62 C66 0.929 . S
H63 C72 0.929 . S
C64 H58 0.930 . S
C64 C65 1.367 . S
C64 C72 1.378 . S
C65 C64 1.367 . S
C65 C73 1.433 1_566 S
C66 H62 0.929 . S
C66 C68 1.378 . S
C66 C70 1.350 . S
C67 C70 1.463 1_566 S
C67 C72 1.350 . S
C67 N75 1.427 1_566 S
C68 H59 0.930 . S
C68 C66 1.378 . S
C68 C69 1.367 . S
C69 C68 1.367 . S
C69 C71 1.433 1_544 S
C70 C66 1.350 . S
C70 C67 1.463 1_544 S
C70 N74 1.427 1_544 S
C71 H61 0.929 . S
C71 C69 1.433 1_566 S
C71 N74 1.384 . S
C72 H63 0.929 . S
C72 C64 1.378 . S
C72 C67 1.350 . S
C73 H60 0.929 . S
C73 C65 1.433 1_544 S
C73 N75 1.384 . S
N74 C70 1.427 1_566 S
N74 C71 1.384 . S
N75 C67 1.427 1_544 S
N75 C73 1.384 . S
H76 C82 0.930 . S
H77 C86 0.930 . S
H78 C91 0.929 . S
H79 C89 0.929 . S
H80 C84 0.929 . S
H81 C90 0.929 . S
C82 H76 0.930 . S
C82 C83 1.367 . S
C82 C90 1.378 . S
C83 C82 1.367 . S
C83 C91 1.425 1_656 S
C84 H80 0.929 . S
C84 C86 1.378 . S
C84 C88 1.350 . S
C85 C88 1.449 1_656 S
C85 C90 1.363 . S
C85 N93 1.426 1_656 S
C86 H77 0.930 . S
C86 C84 1.378 . S
C86 C87 1.367 . S
C87 C86 1.367 . S
C87 C89 1.422 1_454 S
C88 C84 1.350 . S
C88 C85 1.449 1_454 S
C88 N92 1.427 1_454 S
C89 H79 0.929 . S
C89 C87 1.422 1_656 S
C89 N92 1.384 . S
C90 H81 0.929 . S
C90 C82 1.378 . S
C90 C85 1.363 . S
C91 H78 0.929 . S
C91 C83 1.425 1_454 S
C91 N93 1.384 . S
N92 C88 1.427 1_656 S
N92 C89 1.384 . S
N93 C85 1.426 1_454 S
N93 C91 1.384 . S
C47 C19 1.461 1_665 S
C51 C10 1.459 1_445 S
C65 C16 1.500 1_566 S
C69 C7 1.500 1_544 S
C83 C11 1.501 1_556 S
C87 C2 1.504 1_554 S
