# Generated by pormake.
# Topology upa, (4)-cn, num edge types: 1
# Building blocks:
#     Node 0, Type 0, BuildingBlock: CEKHIL_clean_sbu_0, # of connection points: 4
#     Node 1, Type 0, BuildingBlock: CEKHIL_clean_sbu_0, # of connection points: 4
#     Node 2, Type 0, BuildingBlock: CEKHIL_clean_sbu_0, # of connection points: 4
#     Node 3, Type 0, BuildingBlock: CEKHIL_clean_sbu_0, # of connection points: 4
#     Node 4, Type 0, BuildingBlock: CEKHIL_clean_sbu_0, # of connection points: 4
#     Node 5, Type 0, BuildingBlock: CEKHIL_clean_sbu_0, # of connection points: 4
#     Node 6, Type 0, BuildingBlock: CEKHIL_clean_sbu_0, # of connection points: 4
#     Node 7, Type 0, BuildingBlock: CEKHIL_clean_sbu_0, # of connection points: 4
#     Edge 8, Type (0, 0), None
#     Edge 9, Type (0, 0), None
#     Edge 10, Type (0, 0), None
#     Edge 11, Type (0, 0), None
#     Edge 12, Type (0, 0), None
#     Edge 13, Type (0, 0), None
#     Edge 14, Type (0, 0), None
#     Edge 15, Type (0, 0), None
#     Edge 16, Type (0, 0), None
#     Edge 17, Type (0, 0), None
#     Edge 18, Type (0, 0), None
#     Edge 19, Type (0, 0), None
#     Edge 20, Type (0, 0), None
#     Edge 21, Type (0, 0), None
#     Edge 22, Type (0, 0), None
#     Edge 23, Type (0, 0), None
# Relax obj value: 0.244
# Max RMSD: 0.138
# Mean RMSD: 0.138
data_MOF--net-upa--node1-CEKHIL_clean_sbu_0--edge1-none
_symmetry_space_group_name_H-M    P1
_symmetry_Int_Tables_number       1
_symmetry_cell_setting            triclinic
loop_
_symmetry_equiv_pos_as_xyz
'x, y, z'
_cell_length_a     10.806608
_cell_length_b     10.806608
_cell_length_c     19.260292
_cell_angle_alpha  89.999894
_cell_angle_beta   90.000106
_cell_angle_gamma 90.000002
loop_
_atom_site_label
_atom_site_type_symbol
_atom_site_fract_x
_atom_site_fract_y
_atom_site_fract_z
_atom_type_partial_charge
Co0 Co 0.29092 0.24905 0.31463 0.0
O1 O 0.42874 0.35332 0.28324 0.0
O2 O 0.44104 0.15188 0.298 0.0
C3 C 0.12883 0.31737 0.24727 0.0
O4 O 0.17733 0.10952 0.34403 0.0
Co5 Co 0.05925 0.36097 0.38994 0.0
O6 O 0.99331 0.19019 0.37564 0.0
C7 C 0.29004 0.32901 0.46762 0.0
C8 C 0.4972 0.25408 0.28201 0.0
C9 C 0.06317 0.09837 0.36147 0.0
O10 O 0.33957 0.27337 0.41522 0.0
O11 O 0.18611 0.38546 0.4645 0.0
O12 O 0.21151 0.24212 0.22195 0.0
O13 O 0.15844 0.36378 0.30663 0.0
Co14 Co 0.32363 0.79092 0.81463 0.0
O15 O 0.21936 0.92874 0.78324 0.0
O16 O 0.4208 0.94103 0.798 0.0
C17 C 0.25531 0.62883 0.74727 0.0
O18 O 0.46316 0.67733 0.84403 0.0
Co19 Co 0.21171 0.55925 0.88994 0.0
O20 O 0.38249 0.49331 0.87564 0.0
C21 C 0.24367 0.79004 0.96762 0.0
C22 C 0.3186 0.9972 0.78201 0.0
C23 C 0.47431 0.56317 0.86147 0.0
O24 O 0.29931 0.83957 0.91522 0.0
O25 O 0.18722 0.68611 0.9645 0.0
O26 O 0.33055 0.71151 0.72195 0.0
O27 O 0.2089 0.65844 0.80663 0.0
Co28 Co 0.78175 0.82363 0.31463 0.0
O29 O 0.64393 0.71935 0.28324 0.0
O30 O 0.63164 0.92079 0.298 0.0
C31 C 0.94385 0.75531 0.24727 0.0
O32 O 0.89534 0.96316 0.34403 0.0
Co33 Co 1.01343 0.71172 0.38994 0.0
O34 O 0.07937 0.88249 0.37564 0.0
C35 C 0.78264 0.74367 0.46762 0.0
C36 C 0.57548 0.8186 0.28201 0.0
C37 C 1.0095 0.97431 0.36148 0.0
O38 O 0.73311 0.79931 0.41522 0.0
O39 O 0.88657 0.68722 0.4645 0.0
O40 O 0.86117 0.83055 0.22195 0.0
O41 O 0.91424 0.7089 0.30663 0.0
Co42 Co 0.74905 0.28175 0.81463 0.0
O43 O 0.85333 0.14393 0.78324 0.0
O44 O 0.65189 0.13164 0.798 0.0
C45 C 0.81737 0.44385 0.74727 0.0
O46 O 0.60952 0.39534 0.84403 0.0
Co47 Co 0.86096 0.51343 0.88994 0.0
O48 O 0.69018 0.57936 0.87564 0.0
C49 C 0.82901 0.28263 0.96762 0.0
C50 C 0.75408 0.07547 0.78201 0.0
C51 C 0.59837 0.50949 0.86148 0.0
O52 O 0.77337 0.2331 0.91522 0.0
O53 O 0.88546 0.38657 0.9645 0.0
O54 O 0.74212 0.36117 0.72195 0.0
O55 O 0.86378 0.41424 0.80663 0.0
Co56 Co 0.79092 0.32368 0.19034 0.0
O57 O 0.92876 0.21946 0.22177 0.0
O58 O 0.94101 0.42089 0.20695 0.0
C59 C 0.62882 0.25549 0.25768 0.0
O60 O 0.67733 0.46318 0.1609 0.0
Co61 Co 0.55927 0.21169 0.11503 0.0
O62 O 0.49333 0.38248 0.12929 0.0
C63 C 0.7901 0.24351 0.03739 0.0
C64 C 0.99719 0.31872 0.22298 0.0
C65 C 0.56318 0.47431 0.14345 0.0
O66 O 0.83958 0.2993 0.08976 0.0
O67 O 0.68616 0.18708 0.0405 0.0
O68 O 0.71151 0.3307 0.28302 0.0
O69 O 0.65843 0.20895 0.19835 0.0
Co70 Co 0.249 0.29092 0.69034 0.0
O71 O 0.35322 0.42876 0.72177 0.0
O72 O 0.15179 0.44101 0.70695 0.0
C73 C 0.31719 0.12882 0.75768 0.0
O74 O 0.1095 0.17733 0.6609 0.0
Co75 Co 0.36099 0.05927 0.61503 0.0
O76 O 0.1902 0.99333 0.62929 0.0
C77 C 0.32916 0.2901 0.53739 0.0
C78 C 0.25396 0.49719 0.72298 0.0
C79 C 0.09837 0.06318 0.64345 0.0
O80 O 0.27338 0.33958 0.58976 0.0
O81 O 0.3856 0.18616 0.5405 0.0
O82 O 0.24198 0.21151 0.78302 0.0
O83 O 0.36372 0.15843 0.69835 0.0
Co84 Co 0.28175 0.74899 0.19034 0.0
O85 O 0.14392 0.85322 0.22177 0.0
O86 O 0.13166 0.65179 0.20695 0.0
C87 C 0.44386 0.81718 0.25768 0.0
O88 O 0.39534 0.60949 0.1609 0.0
Co89 Co 0.51341 0.86098 0.11503 0.0
O90 O 0.57935 0.69019 0.12929 0.0
C91 C 0.28257 0.82916 0.03739 0.0
C92 C 0.07549 0.75396 0.22298 0.0
C93 C 0.50949 0.59836 0.14344 0.0
O94 O 0.23309 0.77338 0.08976 0.0
O95 O 0.38652 0.88559 0.0405 0.0
O96 O 0.36116 0.74197 0.28302 0.0
O97 O 0.41424 0.86372 0.19835 0.0
Co98 Co 0.82368 0.78175 0.69034 0.0
O99 O 0.71946 0.64392 0.72177 0.0
O100 O 0.92089 0.63166 0.70695 0.0
C101 C 0.7555 0.94386 0.75768 0.0
O102 O 0.96318 0.89534 0.6609 0.0
Co103 Co 0.71169 1.01341 0.61503 0.0
O104 O 0.88248 0.07935 0.62929 0.0
C105 C 0.74352 0.78257 0.53739 0.0
C106 C 0.81872 0.57549 0.72298 0.0
C107 C 0.97432 1.00949 0.64344 0.0
O108 O 0.7993 0.73309 0.58976 0.0
O109 O 0.68709 0.88652 0.5405 0.0
O110 O 0.8307 0.86116 0.78302 0.0
O111 O 0.70896 0.91424 0.69835 0.0
loop_
_geom_bond_atom_site_label_1
_geom_bond_atom_site_label_2
_geom_bond_distance
_geom_bond_site_symmetry_2
_ccdc_geom_bond_type
Co0 O1 2.216 . S
Co0 O2 2.091 . S
Co0 O4 2.004 . S
Co0 O10 2.021 . S
Co0 O12 2.137 . S
Co0 O13 2.244 1_455 S
O1 Co0 2.216 . S
O1 C8 1.247 . S
O2 Co0 2.091 . S
O2 C8 1.261 . S
C3 O12 1.247 1_655 S
C3 O13 1.272 . S
O4 Co0 2.004 . S
O4 C9 1.259 . S
Co5 O6 2.061 . S
Co5 O11 2.052 1_655 S
Co5 O13 2.135 . S
O6 Co5 2.061 . S
O6 C9 1.235 1_655 S
C7 O10 1.238 . S
C7 O11 1.241 . S
C8 O1 1.247 . S
C8 O2 1.261 . S
C9 O4 1.259 . S
C9 O6 1.235 1_455 S
O10 Co0 2.021 . S
O10 C7 1.238 . S
O11 Co5 2.052 1_455 S
O11 C7 1.241 . S
O12 Co0 2.137 . S
O12 C3 1.247 1_455 S
O13 Co0 2.244 1_655 S
O13 C3 1.272 . S
O13 Co5 2.135 . S
Co14 O15 2.216 . S
Co14 O16 2.091 . S
Co14 O18 2.004 . S
Co14 O24 2.021 . S
Co14 O26 2.137 . S
Co14 O27 2.244 . S
O15 Co14 2.216 . S
O15 C22 1.247 . S
O16 Co14 2.091 . S
O16 C22 1.261 . S
C17 O26 1.247 . S
C17 O27 1.272 . S
O18 Co14 2.004 . S
O18 C23 1.259 . S
Co19 O20 2.061 . S
Co19 O25 2.052 . S
Co19 O27 2.135 . S
O20 Co19 2.061 . S
O20 C23 1.235 . S
C21 O24 1.238 . S
C21 O25 1.241 . S
C22 O15 1.247 . S
C22 O16 1.261 . S
C23 O18 1.259 . S
C23 O20 1.235 . S
O24 Co14 2.021 . S
O24 C21 1.238 . S
O25 Co19 2.052 . S
O25 C21 1.241 . S
O26 Co14 2.137 . S
O26 C17 1.247 . S
O27 Co14 2.244 . S
O27 C17 1.272 . S
O27 Co19 2.135 . S
Co28 O29 2.216 . S
Co28 O30 2.091 . S
Co28 O32 2.004 . S
Co28 O38 2.021 . S
Co28 O40 2.137 . S
Co28 O41 2.244 1_655 S
O29 Co28 2.216 . S
O29 C36 1.247 . S
O30 Co28 2.091 . S
O30 C36 1.261 . S
C31 O40 1.247 1_455 S
C31 O41 1.272 . S
O32 Co28 2.004 . S
O32 C37 1.259 . S
Co33 O34 2.061 . S
Co33 O39 2.052 1_455 S
Co33 O41 2.135 . S
O34 Co33 2.061 . S
O34 C37 1.235 1_455 S
C35 O38 1.238 . S
C35 O39 1.241 . S
C36 O29 1.247 . S
C36 O30 1.261 . S
C37 O32 1.259 . S
C37 O34 1.235 1_655 S
O38 Co28 2.021 . S
O38 C35 1.238 . S
O39 Co33 2.052 1_655 S
O39 C35 1.241 . S
O40 Co28 2.137 . S
O40 C31 1.247 1_655 S
O41 Co28 2.244 1_455 S
O41 C31 1.272 . S
O41 Co33 2.135 . S
Co42 O43 2.216 . S
Co42 O44 2.091 . S
Co42 O46 2.004 . S
Co42 O52 2.021 . S
Co42 O54 2.137 . S
Co42 O55 2.244 . S
O43 Co42 2.216 . S
O43 C50 1.247 . S
O44 Co42 2.091 . S
O44 C50 1.261 . S
C45 O54 1.247 . S
C45 O55 1.272 . S
O46 Co42 2.004 . S
O46 C51 1.259 . S
Co47 O48 2.061 . S
Co47 O53 2.052 . S
Co47 O55 2.135 . S
O48 Co47 2.061 . S
O48 C51 1.235 . S
C49 O52 1.238 . S
C49 O53 1.241 . S
C50 O43 1.247 . S
C50 O44 1.261 . S
C51 O46 1.259 . S
C51 O48 1.235 . S
O52 Co42 2.021 . S
O52 C49 1.238 . S
O53 Co47 2.052 . S
O53 C49 1.241 . S
O54 Co42 2.137 . S
O54 C45 1.247 . S
O55 Co42 2.244 . S
O55 C45 1.272 . S
O55 Co47 2.135 . S
Co56 O57 2.216 . S
Co56 O58 2.091 . S
Co56 O60 2.004 . S
Co56 O66 2.021 . S
Co56 O68 2.137 . S
Co56 O69 2.244 . S
O57 Co56 2.216 . S
O57 C64 1.247 . S
O58 Co56 2.091 . S
O58 C64 1.261 . S
C59 O68 1.247 . S
C59 O69 1.272 . S
O60 Co56 2.004 . S
O60 C65 1.259 . S
Co61 O62 2.061 . S
Co61 O67 2.052 . S
Co61 O69 2.135 . S
O62 Co61 2.061 . S
O62 C65 1.235 . S
C63 O66 1.238 . S
C63 O67 1.241 . S
C64 O57 1.247 . S
C64 O58 1.261 . S
C65 O60 1.259 . S
C65 O62 1.235 . S
O66 Co56 2.021 . S
O66 C63 1.238 . S
O67 Co61 2.052 . S
O67 C63 1.241 . S
O68 Co56 2.137 . S
O68 C59 1.247 . S
O69 Co56 2.244 . S
O69 C59 1.272 . S
O69 Co61 2.135 . S
Co70 O71 2.216 . S
Co70 O72 2.091 . S
Co70 O74 2.004 . S
Co70 O80 2.021 . S
Co70 O82 2.137 . S
Co70 O83 2.244 1_545 S
O71 Co70 2.216 . S
O71 C78 1.247 . S
O72 Co70 2.091 . S
O72 C78 1.261 . S
C73 O82 1.247 1_565 S
C73 O83 1.272 . S
O74 Co70 2.004 . S
O74 C79 1.259 . S
Co75 O76 2.061 . S
Co75 O81 2.052 1_565 S
Co75 O83 2.135 . S
O76 Co75 2.061 . S
O76 C79 1.235 1_565 S
C77 O80 1.238 . S
C77 O81 1.241 . S
C78 O71 1.247 . S
C78 O72 1.261 . S
C79 O74 1.259 . S
C79 O76 1.235 1_545 S
O80 Co70 2.021 . S
O80 C77 1.238 . S
O81 Co75 2.052 1_545 S
O81 C77 1.241 . S
O82 Co70 2.137 . S
O82 C73 1.247 1_545 S
O83 Co70 2.244 1_565 S
O83 C73 1.272 . S
O83 Co75 2.135 . S
Co84 O85 2.216 . S
Co84 O86 2.091 . S
Co84 O88 2.004 . S
Co84 O94 2.021 . S
Co84 O96 2.137 . S
Co84 O97 2.244 . S
O85 Co84 2.216 . S
O85 C92 1.247 . S
O86 Co84 2.091 . S
O86 C92 1.261 . S
C87 O96 1.247 . S
C87 O97 1.272 . S
O88 Co84 2.004 . S
O88 C93 1.259 . S
Co89 O90 2.061 . S
Co89 O95 2.052 . S
Co89 O97 2.135 . S
O90 Co89 2.061 . S
O90 C93 1.235 . S
C91 O94 1.238 . S
C91 O95 1.241 . S
C92 O85 1.247 . S
C92 O86 1.261 . S
C93 O88 1.259 . S
C93 O90 1.235 . S
O94 Co84 2.021 . S
O94 C91 1.238 . S
O95 Co89 2.052 . S
O95 C91 1.241 . S
O96 Co84 2.137 . S
O96 C87 1.247 . S
O97 Co84 2.244 . S
O97 C87 1.272 . S
O97 Co89 2.135 . S
Co98 O99 2.216 . S
Co98 O100 2.091 . S
Co98 O102 2.004 . S
Co98 O108 2.021 . S
Co98 O110 2.137 . S
Co98 O111 2.244 1_565 S
O99 Co98 2.216 . S
O99 C106 1.247 . S
O100 Co98 2.091 . S
O100 C106 1.261 . S
C101 O110 1.247 1_545 S
C101 O111 1.272 . S
O102 Co98 2.004 . S
O102 C107 1.259 . S
Co103 O104 2.061 . S
Co103 O109 2.052 1_545 S
Co103 O111 2.135 . S
O104 Co103 2.061 . S
O104 C107 1.235 1_545 S
C105 O108 1.238 . S
C105 O109 1.241 . S
C106 O99 1.247 . S
C106 O100 1.261 . S
C107 O102 1.259 . S
C107 O104 1.235 1_565 S
O108 Co98 2.021 . S
O108 C105 1.238 . S
O109 Co103 2.052 1_565 S
O109 C105 1.241 . S
O110 Co98 2.137 . S
O110 C101 1.247 1_565 S
O111 Co98 2.244 1_545 S
O111 C101 1.272 . S
O111 Co103 2.135 . S
C9 C37 0.512 1_445 S
C23 C51 0.512 . S
C65 C93 0.512 . S
C79 C107 0.512 1_445 S
C7 C77 1.602 . S
C21 C91 1.602 1_556 S
C105 C35 1.602 . S
C49 C63 1.601 1_556 S
C59 C8 2.281 . S
C22 C73 2.281 . S
C36 C87 2.281 . S
C50 C101 2.281 . S
C3 C64 2.281 . S
C78 C17 2.281 . S
C92 C31 2.281 . S
C45 C106 2.281 . S
