# Generated by pormake.
# Topology snp, (6)-cn, num edge types: 1
# Building blocks:
#     Node 0, Type 0, BuildingBlock: BETDEL_clean_sbu_0, # of connection points: 6
#     Node 1, Type 0, BuildingBlock: BETDEL_clean_sbu_0, # of connection points: 6
#     Node 2, Type 0, BuildingBlock: BETDEL_clean_sbu_0, # of connection points: 6
#     Node 3, Type 0, BuildingBlock: BETDEL_clean_sbu_0, # of connection points: 6
#     Edge 4, Type (0, 0), BuildingBlock: OJICUG_clean_linker_0, # of connection points: 2
#     Edge 5, Type (0, 0), BuildingBlock: OJICUG_clean_linker_0, # of connection points: 2
#     Edge 6, Type (0, 0), BuildingBlock: OJICUG_clean_linker_0, # of connection points: 2
#     Edge 7, Type (0, 0), BuildingBlock: OJICUG_clean_linker_0, # of connection points: 2
#     Edge 8, Type (0, 0), BuildingBlock: OJICUG_clean_linker_0, # of connection points: 2
#     Edge 9, Type (0, 0), BuildingBlock: OJICUG_clean_linker_0, # of connection points: 2
#     Edge 10, Type (0, 0), BuildingBlock: OJICUG_clean_linker_0, # of connection points: 2
#     Edge 11, Type (0, 0), BuildingBlock: OJICUG_clean_linker_0, # of connection points: 2
#     Edge 12, Type (0, 0), BuildingBlock: OJICUG_clean_linker_0, # of connection points: 2
#     Edge 13, Type (0, 0), BuildingBlock: OJICUG_clean_linker_0, # of connection points: 2
#     Edge 14, Type (0, 0), BuildingBlock: OJICUG_clean_linker_0, # of connection points: 2
#     Edge 15, Type (0, 0), BuildingBlock: OJICUG_clean_linker_0, # of connection points: 2
# Relax obj value: 0.382
# Max RMSD: 0.194
# Mean RMSD: 0.191
data_MOF--net-snp--node1-BETDEL_clean_sbu_0--edge1-OJICUG_clean_linker_0
_symmetry_space_group_name_H-M    P1
_symmetry_Int_Tables_number       1
_symmetry_cell_setting            triclinic
loop_
_symmetry_equiv_pos_as_xyz
'x, y, z'
_cell_length_a     20.371556
_cell_length_b     20.214381
_cell_length_c     17.815514
_cell_angle_alpha  91.727624
_cell_angle_beta   89.646751
_cell_angle_gamma 94.759367
loop_
_atom_site_label
_atom_site_type_symbol
_atom_site_fract_x
_atom_site_fract_y
_atom_site_fract_z
_atom_type_partial_charge
Dy0 Dy 0.19188 0.03933 0.16806 0.0
C1 C 0.22765 0.80431 1.00333 0.0
C2 C 0.19529 0.15136 0.25624 0.0
Dy3 Dy 0.18401 0.90558 1.08834 0.0
O4 O 0.23257 0.10317 0.26442 0.0
O5 O 0.15423 0.13709 0.20155 0.0
O6 O 0.29006 0.06157 1.11216 0.0
O7 O 0.26186 -0.03474 0.14546 0.0
C8 C 0.30588 0.00089 1.1128 0.0
C9 C 0.06941 0.93532 0.14241 0.0
O10 O 0.19275 0.87282 0.20775 0.0
O11 O 0.15871 -0.03016 0.26172 0.0
O12 O 0.17764 0.79921 1.049 0.0
O13 O 0.25222 0.86566 1.00215 0.0
O14 O 0.08287 0.87411 1.12897 0.0
O15 O 0.11342 -0.02453 1.11572 0.0
O16 O 0.15646 0.07453 1.05765 0.0
O17 O 0.15766 -0.02658 0.992 0.0
C18 C 0.16886 0.90573 0.26615 0.0
C19 C 0.14828 0.0385 0.99436 0.0
Dy20 Dy 0.8668 0.20542 0.68863 0.0
C21 C 0.09184 0.26272 0.50173 0.0
C22 C 0.74216 0.19233 0.74174 0.0
Dy23 Dy -0.00818 0.21245 0.59123 0.0
O24 O 0.77071 0.24713 0.71687 0.0
O25 O 0.78285 0.14599 0.74125 0.0
O26 O 0.90841 0.2993 0.74956 0.0
O27 O 0.92865 0.28368 0.63635 0.0
C28 C -0.0589 0.322 0.69178 0.0
C29 C -0.05308 0.091 0.62173 0.0
O30 O 0.03159 0.20538 0.71083 0.0
O31 O -0.06427 0.15991 0.76682 0.0
O32 O 0.09852 0.22539 0.55867 0.0
O33 O 0.03022 0.2725 0.4944 0.0
O34 O 0.00719 0.1048 0.59897 0.0
O35 O 0.91324 0.1389 0.61306 0.0
O36 O 0.8226 0.19089 0.57153 0.0
O37 O 0.91705 0.19361 0.49687 0.0
C38 C 0.00105 0.17099 0.76593 0.0
C39 C 0.85157 0.18663 0.50435 0.0
Dy40 Dy 0.68614 0.89921 0.17544 0.0
C41 C 0.64 0.10078 0.9831 0.0
C42 C 0.67889 0.80477 0.28032 0.0
Dy43 Dy 0.6921 0.01905 1.08058 0.0
O44 O 0.65689 0.86279 0.28887 0.0
O45 O 0.7074 0.79917 0.21533 0.0
O46 O 0.5876 0.86816 1.1233 0.0
O47 O 0.61501 -0.03162 0.14519 0.0
C48 C 0.57106 0.92815 1.11736 0.0
C49 C 0.80817 0.00117 0.13584 0.0
O50 O 0.69035 0.06972 0.19535 0.0
O51 O 0.72101 -0.02055 0.26033 0.0
O52 O 0.68832 0.11802 1.02886 0.0
O53 O 0.62201 0.03807 0.98898 0.0
O54 O 0.79399 0.05861 1.11157 0.0
O55 O 0.76441 -0.04385 1.11679 0.0
O56 O 0.73205 0.85225 1.07344 0.0
O57 O 0.71851 0.93829 0.99303 0.0
C58 C 0.71293 0.0438 0.25694 0.0
C59 C 0.73593 0.87687 1.005 0.0
Dy60 Dy 0.90647 0.70477 0.59317 0.0
C61 C 0.13935 0.70014 0.75508 0.0
C62 C 0.79165 0.69179 0.51556 0.0
Dy63 Dy 0.02443 0.72552 0.68915 0.0
O64 O 0.84424 0.66309 0.49767 0.0
O65 O 0.80218 0.72876 0.57578 0.0
O66 O -0.05858 0.60576 0.55967 0.0
O67 O -0.04586 0.64097 0.66958 0.0
C68 C -0.03524 0.59426 0.62471 0.0
C69 C -0.03475 0.83382 0.6726 0.0
O70 O 0.06954 0.7327 0.56997 0.0
O71 O -0.02483 0.75679 0.50989 0.0
O72 O 0.12826 0.75498 0.72309 0.0
O73 O 0.08642 0.65963 0.75291 0.0
O74 O -0.00015 0.82471 0.73232 0.0
O75 O -0.02764 0.79017 0.6222 0.0
O76 O 0.85712 0.73175 0.70256 0.0
O77 O -0.05284 0.73193 0.78214 0.0
C78 C 0.04007 0.75418 0.50962 0.0
C79 C 0.88351 0.74001 0.7706 0.0
C80 C 0.92558 0.03728 0.15603 0.0
C81 C 0.87416 -0.01313 0.15685 0.0
H82 H 0.0297 0.05979 0.15154 0.0
C83 C 0.8875 0.92102 0.16847 0.0
H84 H 0.91597 0.08861 0.14866 0.0
C85 C -0.04773 0.90458 0.17022 0.0
C86 C 0.00366 -0.04602 0.16032 0.0
H87 H 0.84813 0.88165 0.17094 0.0
H88 H -0.03816 0.85284 0.17386 0.0
C89 C -0.00964 0.02083 0.15771 0.0
C90 C 0.92291 0.91257 0.58653 0.0
C91 C -0.06704 0.89336 0.6602 0.0
H92 H 0.91977 -0.00423 0.51585 0.0
C93 C 0.92305 0.93679 0.72094 0.0
H94 H 0.92742 0.87842 0.53919 0.0
C95 C 0.91531 0.00274 0.70746 0.0
C96 C 0.91939 0.0245 0.6338 0.0
H97 H 0.92804 0.92155 0.77831 0.0
H98 H 0.91462 0.03737 0.75459 0.0
C99 C 0.91756 -0.02095 0.57313 0.0
C100 C 0.4507 0.8964 1.10482 0.0
C101 C 0.50353 -0.05448 1.10433 0.0
H102 H 0.34603 0.8759 1.10932 0.0
C103 C 0.49081 0.01241 1.09863 0.0
H104 H 0.45926 0.8445 1.10943 0.0
C105 C 0.42615 0.03021 1.09648 0.0
C106 C 0.37331 -0.0185 1.10197 0.0
H107 H 0.53076 0.05125 1.09865 0.0
H108 H 0.41765 0.08233 1.09463 0.0
C109 C 0.386 0.91436 1.10459 0.0
C110 C -0.01482 0.4125 0.61074 0.0
C111 C -0.03639 0.39217 0.68211 0.0
H112 H 0.00236 0.49342 0.53668 0.0
C113 C -0.04566 0.44024 0.73877 0.0
H114 H -0.00665 0.37653 0.56624 0.0
C115 C -0.03965 0.50761 0.72187 0.0
C116 C -0.02517 0.52699 0.64804 0.0
H117 H -0.06188 0.42574 0.79436 0.0
H118 H -0.05127 0.54387 0.76491 0.0
C119 C -0.00976 0.47936 0.59365 0.0
C120 C 0.19645 0.23408 0.44441 0.0
C121 C 0.13821 0.26599 0.43872 0.0
H122 H 0.26159 0.17159 0.38773 0.0
C123 C 0.11437 0.27945 0.3675 0.0
H124 H 0.21663 0.22462 0.49882 0.0
C125 C 0.13937 0.24821 0.30406 0.0
C126 C 0.18896 0.2049 0.31211 0.0
H127 H 0.07038 0.30553 0.3617 0.0
H128 H 0.11463 0.25157 0.25081 0.0
C129 C 0.22185 0.20333 0.38088 0.0
C130 C 0.64321 0.12702 0.78342 0.0
C131 C 0.68185 0.18762 0.78586 0.0
H132 H 0.59353 0.05177 0.84895 0.0
C133 C 0.67913 0.2303 0.84899 0.0
H134 H 0.64406 0.09409 0.73433 0.0
C135 C 0.65229 0.20526 0.91547 0.0
C136 C 0.62732 0.13855 0.91698 0.0
H137 H 0.70808 0.27779 0.85121 0.0
H138 H 0.66095 0.23413 0.96723 0.0
C139 C 0.61446 0.10285 0.84923 0.0
C140 C 0.69694 0.75022 0.47533 0.0
C141 C 0.73948 0.70013 0.46184 0.0
H142 H 0.64266 0.82337 0.42558 0.0
C143 C 0.74434 0.67171 0.38939 0.0
H144 H 0.69159 0.77194 0.53116 0.0
C145 C 0.71719 0.70163 0.32896 0.0
C146 C 0.68448 0.75922 0.34139 0.0
H147 H 0.77588 0.63192 0.37814 0.0
H148 H 0.7279 0.68407 0.2725 0.0
C149 C 0.66929 0.77981 0.41491 0.0
C150 C 0.24396 0.74749 0.80894 0.0
C151 C 0.19206 0.69737 0.80987 0.0
H152 H 0.29922 0.82195 0.87517 0.0
C153 C 0.17693 0.66452 0.87677 0.0
H154 H 0.25794 0.77192 0.75723 0.0
C155 C 0.19971 0.69384 0.94451 0.0
C156 C 0.23817 0.75471 0.94397 0.0
H157 H 0.1385 0.62416 0.87837 0.0
H158 H 0.17859 0.675 0.99642 0.0
C159 C 0.26742 0.77629 0.87661 0.0
C160 C 0.81917 0.79611 0.96384 0.0
C161 C 0.77097 0.83917 0.94468 0.0
H162 H 0.89299 0.73221 0.92534 0.0
C163 C 0.75929 0.84728 0.86795 0.0
H164 H 0.83047 0.78913 1.02226 0.0
C165 C 0.79399 0.81298 0.81239 0.0
C166 C 0.84302 0.77083 0.83145 0.0
H167 H 0.72317 0.88016 0.85073 0.0
H168 H 0.78377 0.82133 0.75399 0.0
C169 C 0.85532 0.76334 0.9082 0.0
C170 C 0.0979 0.89614 0.38273 0.0
C171 C 0.14285 0.86793 0.33338 0.0
H172 H 0.03104 0.88251 0.47532 0.0
C173 C 0.15691 0.80171 0.34551 0.0
H174 H 0.08504 -0.05351 0.37561 0.0
C175 C 0.12605 0.76486 0.40433 0.0
C176 C 0.07911 0.79275 0.45127 0.0
H177 H 0.19089 0.77788 0.30868 0.0
H178 H 0.13706 0.71391 0.41127 0.0
C179 C 0.06628 0.85907 0.43993 0.0
C180 C 0.00874 0.09169 0.8734 0.0
C181 C 0.0404 0.13834 0.82467 0.0
H182 H 0.01779 0.02276 0.96187 0.0
C183 C 0.10961 0.14974 0.83079 0.0
H184 H -0.0442 0.08129 0.87187 0.0
C185 C 0.1453 0.11638 0.88414 0.0
C186 C 0.11327 0.06893 0.93135 0.0
H187 H 0.13628 0.18497 0.7948 0.0
H188 H 0.19802 0.12793 0.88871 0.0
C189 C 0.04447 0.05736 0.92507 0.0
C190 C 0.72272 0.07673 0.39391 0.0
C191 C 0.74091 0.0884 0.31906 0.0
H192 H 0.74153 0.1003 0.51031 0.0
C193 C 0.7932 0.13662 0.30504 0.0
H194 H 0.68357 0.03907 0.40656 0.0
C195 C 0.82828 0.17031 0.36471 0.0
C196 C 0.81046 0.15813 0.4398 0.0
H197 H 0.80939 0.1456 0.24794 0.0
H198 H 0.87018 0.2048 0.35213 0.0
C199 C 0.75612 0.11201 0.45335 0.0
loop_
_geom_bond_atom_site_label_1
_geom_bond_atom_site_label_2
_geom_bond_distance
_geom_bond_site_symmetry_2
_ccdc_geom_bond_type
Dy0 O4 2.398 . S
Dy0 O5 2.491 . S
Dy0 O6 2.403 . S
Dy0 O7 2.664 1_554 S
Dy0 O11 2.326 . S
Dy0 O15 2.310 . S
Dy0 O16 2.351 1_554 S
C1 O12 1.185 . S
C1 O13 1.355 . S
C2 O4 1.185 . S
C2 O5 1.355 . S
Dy3 O7 2.310 1_565 S
Dy3 O10 2.351 1_556 S
Dy3 O12 2.398 . S
Dy3 O13 2.491 . S
Dy3 O14 2.403 . S
Dy3 O15 2.664 1_566 S
Dy3 O17 2.326 1_565 S
O4 Dy0 2.398 . S
O4 C2 1.185 . S
O5 Dy0 2.491 . S
O5 C2 1.355 . S
O6 Dy0 2.403 . S
O6 C8 1.254 . S
O7 Dy0 2.664 1_556 S
O7 Dy3 2.310 1_545 S
O7 C8 1.268 1_556 S
C8 O6 1.254 . S
C8 O7 1.268 1_554 S
C9 O14 1.255 1_545 S
C9 O15 1.268 1_556 S
O10 Dy3 2.351 1_554 S
O10 C18 1.249 . S
O11 Dy0 2.326 . S
O11 C18 1.267 1_545 S
O12 C1 1.185 . S
O12 Dy3 2.398 . S
O13 C1 1.355 . S
O13 Dy3 2.491 . S
O14 Dy3 2.403 . S
O14 C9 1.255 1_565 S
O15 Dy0 2.310 . S
O15 Dy3 2.664 1_544 S
O15 C9 1.268 1_554 S
O16 Dy0 2.351 1_556 S
O16 C19 1.249 . S
O17 Dy3 2.326 1_545 S
O17 C19 1.267 . S
C18 O10 1.249 . S
C18 O11 1.267 1_565 S
C19 O16 1.249 . S
C19 O17 1.267 . S
Dy20 O24 2.398 . S
Dy20 O25 2.491 . S
Dy20 O26 2.403 . S
Dy20 O27 2.664 1_655 S
Dy20 O31 2.326 1_655 S
Dy20 O35 2.310 1_655 S
Dy20 O36 2.351 . S
C21 O32 1.185 . S
C21 O33 1.355 . S
C22 O24 1.185 . S
C22 O25 1.355 . S
Dy23 O27 2.310 . S
Dy23 O30 2.351 . S
Dy23 O32 2.398 . S
Dy23 O33 2.491 . S
Dy23 O34 2.403 . S
Dy23 O35 2.664 . S
Dy23 O37 2.326 . S
O24 Dy20 2.398 . S
O24 C22 1.185 . S
O25 Dy20 2.491 . S
O25 C22 1.355 . S
O26 Dy20 2.403 . S
O26 C28 1.247 1_655 S
O27 Dy20 2.664 1_455 S
O27 Dy23 2.310 . S
O27 C28 1.272 . S
C28 O26 1.247 1_455 S
C28 O27 1.272 . S
C29 O34 1.254 . S
C29 O35 1.268 . S
O30 Dy23 2.351 . S
O30 C38 1.249 . S
O31 Dy20 2.326 1_455 S
O31 C38 1.267 . S
O32 C21 1.185 . S
O32 Dy23 2.398 . S
O33 C21 1.355 . S
O33 Dy23 2.491 . S
O34 Dy23 2.403 . S
O34 C29 1.254 . S
O35 Dy20 2.310 1_455 S
O35 Dy23 2.664 . S
O35 C29 1.268 . S
O36 Dy20 2.351 . S
O36 C39 1.249 . S
O37 Dy23 2.326 . S
O37 C39 1.267 1_455 S
C38 O30 1.249 . S
C38 O31 1.267 . S
C39 O36 1.249 . S
C39 O37 1.267 1_655 S
Dy40 O44 2.398 . S
Dy40 O45 2.491 . S
Dy40 O46 2.403 . S
Dy40 O47 2.664 1_564 S
Dy40 O51 2.326 1_565 S
Dy40 O55 2.310 . S
Dy40 O56 2.351 1_554 S
C41 O52 1.185 . S
C41 O53 1.355 . S
C42 O44 1.185 . S
C42 O45 1.355 . S
Dy43 O47 2.310 . S
Dy43 O50 2.351 1_556 S
Dy43 O52 2.398 . S
Dy43 O53 2.491 . S
Dy43 O54 2.403 . S
Dy43 O55 2.664 1_546 S
Dy43 O57 2.326 1_545 S
O44 Dy40 2.398 . S
O44 C42 1.185 . S
O45 Dy40 2.491 . S
O45 C42 1.355 . S
O46 Dy40 2.403 . S
O46 C48 1.267 . S
O47 Dy40 2.664 1_546 S
O47 Dy43 2.310 . S
O47 C48 1.261 1_546 S
C48 O46 1.267 . S
C48 O47 1.261 1_564 S
C49 O54 1.259 . S
C49 O55 1.265 1_546 S
O50 Dy43 2.351 1_554 S
O50 C58 1.249 . S
O51 Dy40 2.326 1_545 S
O51 C58 1.267 . S
O52 C41 1.185 . S
O52 Dy43 2.398 . S
O53 C41 1.355 . S
O53 Dy43 2.491 . S
O54 Dy43 2.403 . S
O54 C49 1.259 . S
O55 Dy40 2.310 . S
O55 Dy43 2.664 1_564 S
O55 C49 1.265 1_564 S
O56 Dy40 2.351 1_556 S
O56 C59 1.249 . S
O57 Dy43 2.326 1_565 S
O57 C59 1.267 . S
C58 O50 1.249 . S
C58 O51 1.267 . S
C59 O56 1.249 . S
C59 O57 1.267 . S
Dy60 O64 2.398 . S
Dy60 O65 2.491 . S
Dy60 O66 2.403 . S
Dy60 O67 2.664 1_655 S
Dy60 O71 2.326 1_655 S
Dy60 O75 2.310 . S
Dy60 O76 2.351 . S
C61 O72 1.185 . S
C61 O73 1.355 . S
C62 O64 1.185 . S
C62 O65 1.355 . S
Dy63 O67 2.310 . S
Dy63 O70 2.351 . S
Dy63 O72 2.398 . S
Dy63 O73 2.491 . S
Dy63 O74 2.403 . S
Dy63 O75 2.664 1_455 S
Dy63 O77 2.326 1_455 S
O64 Dy60 2.398 . S
O64 C62 1.185 . S
O65 Dy60 2.491 . S
O65 C62 1.355 . S
O66 Dy60 2.403 . S
O66 C68 1.254 . S
O67 Dy60 2.664 1_455 S
O67 Dy63 2.310 . S
O67 C68 1.268 1_455 S
C68 O66 1.254 . S
C68 O67 1.268 1_655 S
C69 O74 1.254 . S
C69 O75 1.268 1_455 S
O70 Dy63 2.351 . S
O70 C78 1.249 . S
O71 Dy60 2.326 1_455 S
O71 C78 1.267 . S
O72 C61 1.185 . S
O72 Dy63 2.398 . S
O73 C61 1.355 . S
O73 Dy63 2.491 . S
O74 Dy63 2.403 . S
O74 C69 1.254 . S
O75 Dy60 2.310 . S
O75 Dy63 2.664 1_655 S
O75 C69 1.268 1_655 S
O76 Dy60 2.351 . S
O76 C79 1.249 . S
O77 Dy63 2.326 1_655 S
O77 C79 1.267 . S
C78 O70 1.249 . S
C78 O71 1.267 . S
C79 O76 1.249 . S
C79 O77 1.267 . S
C80 C81 1.387 1_546 S
C80 H84 0.950 1_545 S
C80 C89 1.390 1_655 S
C81 C80 1.387 1_564 S
C81 C83 1.387 1_565 S
H82 C89 0.950 . S
C83 C81 1.387 1_545 S
C83 C85 1.390 1_655 S
C83 H87 0.950 1_545 S
H84 C80 0.950 1_565 S
C85 C83 1.390 1_455 S
C85 C86 1.387 . S
C85 H88 0.950 . S
C86 C85 1.387 . S
C86 C89 1.387 1_554 S
H87 C83 0.950 1_565 S
H88 C85 0.950 . S
C89 C80 1.390 1_455 S
C89 H82 0.950 . S
C89 C86 1.387 1_556 S
C90 C91 1.387 . S
C90 H94 0.950 . S
C90 C99 1.390 1_565 S
C91 C90 1.387 . S
C91 C93 1.387 1_455 S
H92 C99 0.950 . S
C93 C91 1.387 1_655 S
C93 C95 1.390 1_565 S
C93 H97 0.950 . S
H94 C90 0.950 . S
C95 C93 1.390 1_545 S
C95 C96 1.387 1_655 S
C95 H98 0.950 . S
C96 C95 1.387 1_455 S
C96 C99 1.387 . S
H97 C93 0.950 . S
H98 C95 0.950 . S
C99 C90 1.390 1_545 S
C99 H92 0.950 . S
C99 C96 1.387 . S
C100 C101 1.387 . S
C100 H104 0.950 . S
C100 C109 1.390 . S
C101 C100 1.387 . S
C101 C103 1.387 1_556 S
H102 C109 0.950 . S
C103 C101 1.387 1_554 S
C103 C105 1.390 . S
C103 H107 0.950 . S
H104 C100 0.950 . S
C105 C103 1.390 . S
C105 C106 1.387 1_554 S
C105 H108 0.950 . S
C106 C105 1.387 1_556 S
C106 C109 1.387 . S
H107 C103 0.950 . S
H108 C105 0.950 . S
C109 C100 1.390 . S
C109 H102 0.950 . S
C109 C106 1.387 . S
C110 C111 1.387 1_655 S
C110 H114 0.950 . S
C110 C119 1.390 . S
C111 C110 1.387 1_455 S
C111 C113 1.387 . S
H112 C119 0.950 . S
C113 C111 1.387 . S
C113 C115 1.390 . S
C113 H117 0.950 . S
H114 C110 0.950 . S
C115 C113 1.390 . S
C115 C116 1.387 . S
C115 H118 0.950 . S
C116 C115 1.387 . S
C116 C119 1.387 1_455 S
H117 C113 0.950 . S
H118 C115 0.950 . S
C119 C110 1.390 . S
C119 H112 0.950 . S
C119 C116 1.387 1_655 S
C120 C121 1.387 . S
C120 H124 0.950 . S
C120 C129 1.390 . S
C121 C120 1.387 . S
C121 C123 1.387 . S
H122 C129 0.950 . S
C123 C121 1.387 . S
C123 C125 1.390 . S
C123 H127 0.950 . S
H124 C120 0.950 . S
C125 C123 1.390 . S
C125 C126 1.387 . S
C125 H128 0.950 . S
C126 C125 1.387 . S
C126 C129 1.387 . S
H127 C123 0.950 . S
H128 C125 0.950 . S
C129 C120 1.390 . S
C129 H122 0.950 . S
C129 C126 1.387 . S
C130 C131 1.387 . S
C130 H134 0.950 . S
C130 C139 1.390 . S
C131 C130 1.387 . S
C131 C133 1.387 . S
H132 C139 0.950 . S
C133 C131 1.387 . S
C133 C135 1.390 . S
C133 H137 0.950 . S
H134 C130 0.950 . S
C135 C133 1.390 . S
C135 C136 1.387 . S
C135 H138 0.950 . S
C136 C135 1.387 . S
C136 C139 1.387 . S
H137 C133 0.950 . S
H138 C135 0.950 . S
C139 C130 1.390 . S
C139 H132 0.950 . S
C139 C136 1.387 . S
C140 C141 1.387 . S
C140 H144 0.950 . S
C140 C149 1.390 . S
C141 C140 1.387 . S
C141 C143 1.387 . S
H142 C149 0.950 . S
C143 C141 1.387 . S
C143 C145 1.390 . S
C143 H147 0.950 . S
H144 C140 0.950 . S
C145 C143 1.390 . S
C145 C146 1.387 . S
C145 H148 0.950 . S
C146 C145 1.387 . S
C146 C149 1.387 . S
H147 C143 0.950 . S
H148 C145 0.950 . S
C149 C140 1.390 . S
C149 H142 0.950 . S
C149 C146 1.387 . S
C150 C151 1.387 . S
C150 H154 0.950 . S
C150 C159 1.390 . S
C151 C150 1.387 . S
C151 C153 1.387 . S
H152 C159 0.950 . S
C153 C151 1.387 . S
C153 C155 1.390 . S
C153 H157 0.950 . S
H154 C150 0.950 . S
C155 C153 1.390 . S
C155 C156 1.387 . S
C155 H158 0.950 . S
C156 C155 1.387 . S
C156 C159 1.387 . S
H157 C153 0.950 . S
H158 C155 0.950 . S
C159 C150 1.390 . S
C159 H152 0.950 . S
C159 C156 1.387 . S
C160 C161 1.387 . S
C160 H164 0.950 . S
C160 C169 1.390 . S
C161 C160 1.387 . S
C161 C163 1.387 . S
H162 C169 0.950 . S
C163 C161 1.387 . S
C163 C165 1.390 . S
C163 H167 0.950 . S
H164 C160 0.950 . S
C165 C163 1.390 . S
C165 C166 1.387 . S
C165 H168 0.950 . S
C166 C165 1.387 . S
C166 C169 1.387 . S
H167 C163 0.950 . S
H168 C165 0.950 . S
C169 C160 1.390 . S
C169 H162 0.950 . S
C169 C166 1.387 . S
C170 C171 1.387 . S
C170 H174 0.944 1_565 S
C170 C179 1.390 . S
C171 C170 1.387 . S
C171 C173 1.387 . S
H172 C179 0.950 . S
C173 C171 1.387 . S
C173 C175 1.390 . S
C173 H177 0.950 . S
H174 C170 0.944 1_545 S
C175 C173 1.390 . S
C175 C176 1.387 . S
C175 H178 0.950 . S
C176 C175 1.387 . S
C176 C179 1.387 . S
H177 C173 0.950 . S
H178 C175 0.950 . S
C179 C170 1.390 . S
C179 H172 0.950 . S
C179 C176 1.387 . S
C180 C181 1.387 . S
C180 H184 0.950 . S
C180 C189 1.390 . S
C181 C180 1.387 . S
C181 C183 1.387 . S
H182 C189 0.950 . S
C183 C181 1.387 . S
C183 C185 1.390 . S
C183 H187 0.950 . S
H184 C180 0.950 . S
C185 C183 1.390 . S
C185 C186 1.387 . S
C185 H188 0.950 . S
C186 C185 1.387 . S
C186 C189 1.387 . S
H187 C183 0.950 . S
H188 C185 0.950 . S
C189 C180 1.390 . S
C189 H182 0.950 . S
C189 C186 1.387 . S
C190 C191 1.387 . S
C190 H194 0.950 . S
C190 C199 1.390 . S
C191 C190 1.387 . S
C191 C193 1.387 . S
H192 C199 0.950 . S
C193 C191 1.387 . S
C193 C195 1.390 . S
C193 H197 0.950 . S
H194 C190 0.950 . S
C195 C193 1.390 . S
C195 C196 1.387 . S
C195 H198 0.950 . S
C196 C195 1.387 . S
C196 C199 1.387 . S
H197 C193 0.950 . S
H198 C195 0.950 . S
C199 C190 1.390 . S
C199 H192 0.950 . S
C199 C196 1.387 . S
C81 C49 0.582 1_564 S
C86 C9 0.585 1_554 S
C91 C69 0.480 . S
C96 C29 0.385 . S
C101 C48 1.151 1_546 S
C106 C8 1.154 1_556 S
C111 C28 1.078 . S
C116 C68 1.086 1_455 S
C121 C21 0.812 . S
C126 C2 0.817 . S
C131 C22 0.875 . S
C136 C41 0.863 . S
C141 C62 0.855 . S
C146 C42 0.855 . S
C151 C61 0.834 . S
C156 C1 0.832 . S
C161 C59 2.364 . S
C166 C79 2.388 . S
C171 C18 2.513 . S
C176 C78 2.507 . S
C181 C38 2.546 . S
C186 C19 2.450 . S
C191 C58 2.429 . S
C196 C39 2.348 . S
