# Generated by pormake.
# Topology pcu, (6)-cn, num edge types: 1
# Building blocks:
#     Node 0, Type 0, BuildingBlock: JUFBIX_clean_sbu_0, # of connection points: 6
#     Edge 1, Type (0, 0), BuildingBlock: KIFKEQ_clean_linker_1, # of connection points: 2
#     Edge 2, Type (0, 0), BuildingBlock: KIFKEQ_clean_linker_1, # of connection points: 2
#     Edge 3, Type (0, 0), BuildingBlock: KIFKEQ_clean_linker_1, # of connection points: 2
# Relax obj value: 0.000
# Max RMSD: 0.000
# Mean RMSD: 0.000
data_MOF--net-pcu--node1-JUFBIX_clean_sbu_0--edge1-KIFKEQ_clean_linker_1
_symmetry_space_group_name_H-M    P1
_symmetry_Int_Tables_number       1
_symmetry_cell_setting            triclinic
loop_
_symmetry_equiv_pos_as_xyz
'x, y, z'
_cell_length_a     15.184426
_cell_length_b     19.904192
_cell_length_c     15.186319
_cell_angle_alpha  81.645471
_cell_angle_beta   92.44222
_cell_angle_gamma 102.21752
loop_
_atom_site_label
_atom_site_type_symbol
_atom_site_fract_x
_atom_site_fract_y
_atom_site_fract_z
_atom_type_partial_charge
Co0 Co 0.9994 0.98057 0.01958 0.0
C1 C 0.01978 0.04321 0.17544 0.0
Co2 Co 0.03105 0.09527 0.99836 0.0
C3 C 0.99358 0.83397 0.01056 0.0
C4 C 0.9062 0.85098 0.10813 0.0
N5 N 0.96574 0.88468 0.0451 0.0
N6 N 0.95377 0.7697 0.04996 0.0
C7 C 0.8989 0.78085 0.11151 0.0
H8 H 0.04223 0.84444 0.95775 0.0
H9 H 0.87107 0.87596 0.15006 0.0
C10 C 1.01137 1.03297 0.84254 0.0
N11 N 0.06511 0.19123 0.97384 0.0
C12 C 0.02814 0.24121 0.99964 0.0
C13 C 0.13624 0.22597 0.92388 0.0
N14 N 0.0742 0.30556 0.96834 0.0
C15 C 0.14227 0.29606 0.92081 0.0
C16 C 0.18119 1.03243 0.01437 0.0
O17 O 0.9921 0.97613 0.89507 0.0
O18 O 0.03111 0.08989 0.87463 0.0
O19 O 0.15466 0.0894 1.00695 0.0
O20 O 0.12308 0.97574 0.01988 0.0
O21 O 0.03072 0.09993 0.12249 0.0
H22 H 0.18086 0.20183 0.89131 0.0
H23 H 0.9694 0.23063 0.0414 0.0
O24 O 1.00741 0.98625 0.14372 0.0
O25 O 0.87614 0.98615 0.01898 0.0
O26 O 0.90689 0.09979 0.99041 0.0
C27 C 0.84917 0.043 1.00423 0.0
H28 H 0.85758 0.74154 0.15771 0.0
H29 H 0.19195 0.33694 0.88509 0.0
H30 H 0.03422 0.93548 0.30437 0.0
H31 H 1.00532 0.14908 0.26689 0.0
H32 H 0.03332 0.93298 0.46484 0.0
H33 H 1.00023 0.14585 0.4277 0.0
H34 H 0.08548 0.14061 0.71814 0.0
H35 H 0.08928 0.14303 0.55797 0.0
H36 H 0.93986 0.93062 0.58537 0.0
H37 H 0.9398 0.92745 0.74656 0.0
C38 C 0.02707 0.98185 0.33051 0.0
C39 C 0.02009 0.04257 0.27295 0.0
C40 C 0.02579 0.98024 0.4227 0.0
C41 C 0.01633 0.03908 0.45974 0.0
C42 C 1.00914 0.09984 0.40187 0.0
C43 C 1.0116 0.10169 0.30956 0.0
C44 C 0.05341 0.09437 0.68998 0.0
C45 C 1.01229 1.03379 0.74503 0.0
C46 C 0.05504 0.09591 0.59787 0.0
C47 C 0.01458 1.03716 0.55818 0.0
C48 C 0.97303 0.97656 0.61346 0.0
C49 C 0.97244 0.97477 0.7059 0.0
H50 H 0.31997 0.13999 0.03921 0.0
H51 H 0.26292 0.92674 0.98945 0.0
H52 H 0.4807 0.1426 0.03769 0.0
H53 H 0.42398 0.9301 0.98376 0.0
H54 H 0.71513 0.93508 0.06787 0.0
H55 H 0.55482 0.93261 0.07226 0.0
H56 H 0.60111 0.14546 0.94374 0.0
H57 H 0.76262 0.14869 0.94321 0.0
C58 C 0.34187 0.09371 0.02739 0.0
C59 C 0.27876 1.03305 0.01473 0.0
C60 C 0.4342 0.09539 0.02574 0.0
C61 C 0.46584 1.0367 0.01021 0.0
C62 C 0.4024 0.97599 0.9974 0.0
C63 C 0.30993 0.97406 1.00023 0.0
C64 C 0.69112 0.9814 0.04048 0.0
C65 C 0.75157 0.04212 1.0051 0.0
C66 C 0.59889 0.97983 0.04245 0.0
C67 C 0.56444 0.03869 1.00804 0.0
C68 C 0.62512 0.09942 0.97218 0.0
C69 C 0.71773 0.10124 0.97129 0.0
H70 H 0.08839 0.74423 0.95386 0.0
H71 H 0.85187 0.6417 0.10732 0.0
H72 H 0.11414 0.63203 0.93029 0.0
H73 H 0.88154 0.53025 0.08915 0.0
H74 H 0.9103 0.33693 0.97679 0.0
H75 H 0.87861 0.45023 0.99032 0.0
H76 H 0.16478 0.53538 1.00524 0.0
H77 H 0.19543 0.42283 0.988 0.0
C78 C 0.04178 0.69823 0.98281 0.0
C79 C 0.96832 0.70304 0.03332 0.0
C80 C 0.05734 0.63346 0.9702 0.0
C81 C 1.00047 0.57162 1.00845 0.0
C82 C 0.9264 0.57644 0.05773 0.0
C83 C 0.91018 0.64103 0.06938 0.0
C84 C 0.96607 0.37996 0.98349 0.0
C85 C 0.0552 0.37128 0.98115 0.0
C86 C 0.94816 0.44495 0.99138 0.0
C87 C 0.01912 0.50246 0.99859 0.0
C88 C 0.10832 0.49305 0.99769 0.0
C89 C 0.12606 0.42841 0.98843 0.0
loop_
_geom_bond_atom_site_label_1
_geom_bond_atom_site_label_2
_geom_bond_distance
_geom_bond_site_symmetry_2
_ccdc_geom_bond_type
Co0 N5 2.057 1_556 S
Co0 O17 2.021 . S
Co0 O20 2.062 1_655 S
Co0 O24 2.117 1_556 S
Co0 O25 2.020 . S
C1 O21 1.259 . S
C1 O24 1.258 1_445 S
Co2 N11 2.057 1_554 S
Co2 O18 2.117 1_554 S
Co2 O19 2.020 . S
Co2 O21 2.021 . S
Co2 O26 2.062 1_455 S
C3 N5 1.316 1_556 S
C3 N6 1.347 1_556 S
C3 H8 0.931 . S
C4 N5 1.375 . S
C4 C7 1.350 . S
C4 H9 0.930 . S
N5 Co0 2.057 1_554 S
N5 C3 1.316 1_554 S
N5 C4 1.375 . S
N6 C3 1.347 1_554 S
N6 C7 1.373 . S
C7 C4 1.350 . S
C7 N6 1.373 . S
C7 H28 0.931 . S
H8 C3 0.931 . S
H9 C4 0.930 . S
C10 O17 1.259 . S
C10 O18 1.258 1_665 S
N11 Co2 2.057 1_556 S
N11 C12 1.316 1_556 S
N11 C13 1.375 . S
C12 N11 1.316 1_554 S
C12 N14 1.347 1_554 S
C12 H23 0.931 . S
C13 N11 1.375 . S
C13 C15 1.350 . S
C13 H22 0.930 . S
N14 C12 1.347 1_556 S
N14 C15 1.373 . S
C15 C13 1.350 . S
C15 N14 1.373 . S
C15 H29 0.931 . S
C16 O19 1.264 1_556 S
C16 O20 1.248 1_545 S
O17 Co0 2.021 . S
O17 C10 1.259 . S
O18 Co2 2.117 1_556 S
O18 C10 1.258 1_445 S
O19 Co2 2.020 . S
O19 C16 1.264 1_554 S
O20 Co0 2.062 1_455 S
O20 C16 1.248 1_565 S
O21 C1 1.259 . S
O21 Co2 2.021 . S
H22 C13 0.930 . S
H23 C12 0.931 . S
O24 Co0 2.117 1_554 S
O24 C1 1.258 1_665 S
O25 Co0 2.020 . S
O25 C27 1.260 1_556 S
O26 Co2 2.062 1_655 S
O26 C27 1.251 1_545 S
C27 O25 1.260 1_554 S
C27 O26 1.251 1_565 S
H28 C7 0.931 . S
H29 C15 0.931 . S
H30 C38 0.950 . S
H31 C43 0.950 . S
H32 C40 0.950 . S
H33 C42 0.950 . S
H34 C44 0.950 . S
H35 C46 0.950 . S
H36 C48 0.950 . S
H37 C49 0.950 . S
C38 H30 0.950 . S
C38 C39 1.386 1_655 S
C38 C40 1.391 . S
C39 C38 1.386 1_455 S
C39 C43 1.393 1_565 S
C40 H32 0.950 . S
C40 C38 1.391 . S
C40 C41 1.398 1_655 S
C41 C40 1.398 1_455 S
C41 C42 1.403 1_565 S
C41 C47 1.488 1_465 S
C42 H33 0.950 . S
C42 C41 1.403 1_545 S
C42 C43 1.391 . S
C43 H31 0.950 . S
C43 C39 1.393 1_545 S
C43 C42 1.391 . S
C44 H34 0.950 . S
C44 C45 1.386 1_455 S
C44 C46 1.391 . S
C45 C44 1.386 1_655 S
C45 C49 1.393 1_545 S
C46 H35 0.950 . S
C46 C44 1.391 . S
C46 C47 1.395 1_455 S
C47 C41 1.488 1_645 S
C47 C46 1.395 1_655 S
C47 C48 1.404 1_545 S
C48 H36 0.950 . S
C48 C47 1.404 1_565 S
C48 C49 1.391 . S
C49 H37 0.950 . S
C49 C45 1.393 1_565 S
C49 C48 1.391 . S
H50 C58 0.950 . S
H51 C63 0.950 . S
H52 C60 0.950 . S
H53 C62 0.950 . S
H54 C64 0.950 . S
H55 C66 0.950 . S
H56 C68 0.950 . S
H57 C69 0.950 . S
C58 H50 0.950 . S
C58 C59 1.386 1_545 S
C58 C60 1.391 . S
C59 C58 1.386 1_565 S
C59 C63 1.393 1_554 S
C60 H52 0.950 . S
C60 C58 1.391 . S
C60 C61 1.409 1_545 S
C61 C60 1.409 1_565 S
C61 C62 1.390 1_554 S
C61 C67 1.489 1_564 S
C62 H53 0.950 . S
C62 C61 1.390 1_556 S
C62 C63 1.391 . S
C63 H51 0.950 . S
C63 C59 1.393 1_556 S
C63 C62 1.391 . S
C64 H54 0.950 . S
C64 C65 1.386 1_565 S
C64 C66 1.391 . S
C65 C64 1.386 1_545 S
C65 C69 1.393 1_556 S
C66 H55 0.950 . S
C66 C64 1.391 . S
C66 C67 1.407 1_565 S
C67 C61 1.489 1_546 S
C67 C66 1.407 1_545 S
C67 C68 1.392 1_556 S
C68 H56 0.950 . S
C68 C67 1.392 1_554 S
C68 C69 1.391 . S
C69 H57 0.950 . S
C69 C65 1.393 1_554 S
C69 C68 1.391 . S
H70 C78 0.950 . S
H71 C83 0.950 . S
H72 C80 0.950 . S
H73 C82 0.950 . S
H74 C84 0.950 . S
H75 C86 0.950 . S
H76 C88 0.950 . S
H77 C89 0.950 . S
C78 H70 0.950 . S
C78 C79 1.389 1_556 S
C78 C80 1.391 . S
C79 C78 1.389 1_554 S
C79 C83 1.390 1_455 S
C80 H72 0.950 . S
C80 C78 1.391 . S
C80 C81 1.402 1_556 S
C81 C80 1.402 1_554 S
C81 C82 1.396 1_455 S
C81 C87 1.491 1_454 S
C82 H73 0.950 . S
C82 C81 1.396 1_655 S
C82 C83 1.391 . S
C83 H71 0.950 . S
C83 C79 1.390 1_655 S
C83 C82 1.391 . S
C84 H74 0.950 . S
C84 C85 1.386 1_554 S
C84 C86 1.391 . S
C85 C84 1.386 1_556 S
C85 C89 1.392 1_655 S
C86 H75 0.950 . S
C86 C84 1.391 . S
C86 C87 1.400 1_554 S
C87 C81 1.491 1_656 S
C87 C86 1.400 1_556 S
C87 C88 1.399 1_655 S
C88 H76 0.950 . S
C88 C87 1.399 1_455 S
C88 C89 1.391 . S
C89 H77 0.950 . S
C89 C85 1.392 1_455 S
C89 C88 1.391 . S
C39 C1 1.497 1_565 S
C45 C10 1.497 1_545 S
C59 C16 1.498 1_564 S
C65 C27 1.499 1_546 S
C79 N6 1.454 1_455 S
C85 N14 1.455 1_655 S
