# Generated by pormake.
# Topology pcu, (6)-cn, num edge types: 1
# Building blocks:
#     Node 0, Type 0, BuildingBlock: BETDAH_clean_sbu_0, # of connection points: 6
#     Edge 1, Type (0, 0), BuildingBlock: XUDNAN_clean_linker_2, # of connection points: 2
#     Edge 2, Type (0, 0), BuildingBlock: XUDNAN_clean_linker_2, # of connection points: 2
#     Edge 3, Type (0, 0), BuildingBlock: XUDNAN_clean_linker_2, # of connection points: 2
# Relax obj value: 0.000
# Max RMSD: 0.000
# Mean RMSD: 0.000
data_MOF--net-pcu--node1-BETDAH_clean_sbu_0--edge1-XUDNAN_clean_linker_2
_symmetry_space_group_name_H-M    P1
_symmetry_Int_Tables_number       1
_symmetry_cell_setting            triclinic
loop_
_symmetry_equiv_pos_as_xyz
'x, y, z'
_cell_length_a     25.280318
_cell_length_b     15.30467
_cell_length_c     14.437864
_cell_angle_alpha  86.615935
_cell_angle_beta   95.814089
_cell_angle_gamma 124.9116
loop_
_atom_site_label
_atom_site_type_symbol
_atom_site_fract_x
_atom_site_fract_y
_atom_site_fract_z
_atom_type_partial_charge
Ho0 Ho 0.95562 0.91928 0.03951 0.0
Ho1 Ho 0.10203 0.0574 0.02508 0.0
C2 C 0.03217 0.17552 1.00626 0.0
C3 C 0.83982 0.84306 0.08449 0.0
C4 C 0.78917 0.8642 0.06392 0.0
C5 C 0.7986 0.95992 0.08956 0.0
C6 C 0.74909 0.97601 0.07025 0.0
C7 C 0.68932 0.89722 0.02423 0.0
C8 C 0.68012 0.8016 0.9993 0.0
C9 C 0.72921 0.78527 0.01917 0.0
C10 C 0.98985 0.93014 0.86668 0.0
C11 C 1.02205 0.7991 0.04261 0.0
C12 C 0.21978 0.13372 0.98884 0.0
C13 C 0.26282 0.09682 0.98837 0.0
C14 C 0.24175 -0.00029 0.94736 0.0
C15 C 0.28464 0.96993 0.94325 0.0
C16 C 0.3495 0.03594 0.98061 0.0
C17 C 0.36981 0.13167 0.02383 0.0
C18 C 0.32703 0.16178 0.02733 0.0
C19 C 0.06199 0.02817 0.19915 0.0
O20 O 0.98118 0.0851 0.03435 0.0
O21 O 0.08583 0.18558 0.98925 0.0
O22 O 0.85176 0.80656 0.01565 0.0
O23 O 0.89254 0.91228 0.13546 0.0
O24 O 0.9391 0.84836 0.90106 0.0
O25 O 1.01793 0.00795 0.92289 0.0
O26 O 0.07267 0.88816 1.01103 0.0
O27 O 0.97465 0.79651 0.07666 0.0
O28 O 0.2044 0.14181 0.07001 0.0
O29 O 0.17087 0.09474 0.92549 0.0
O30 O 0.11154 0.11741 0.17072 0.0
O31 O 0.03879 0.96021 0.13559 0.0
H32 H 0.84419 0.02254 0.12423 0.0
H33 H 0.75803 0.05089 0.0898 0.0
H34 H 0.63449 0.73851 0.96507 0.0
H35 H 0.72018 0.71032 0.99949 0.0
H36 H 0.19238 0.94731 0.91743 0.0
H37 H 0.26699 0.89515 0.91035 0.0
H38 H 0.41938 0.18512 0.05249 0.0
H39 H 0.34451 0.23705 0.05929 0.0
H40 H 0.10672 0.16026 0.35403 0.0
H41 H 0.9814 0.8295 0.26578 0.0
H42 H 0.95702 0.77319 0.4273 0.0
H43 H 0.16988 0.11529 0.57626 0.0
H44 H 0.1684 0.21189 0.63942 0.0
H45 H 0.17918 0.22959 0.51657 0.0
H46 H 0.08044 0.24068 0.48693 0.0
H47 H 0.06971 0.22391 0.60973 0.0
H48 H 1.00374 0.13447 0.52728 0.0
H49 H 0.94659 0.74907 0.59382 0.0
H50 H 0.94003 0.7581 0.76065 0.0
H51 H 0.06707 0.10374 0.75054 0.0
C52 C 0.07423 0.07618 0.36917 0.0
C53 C 0.04638 -0.00086 0.29718 0.0
C54 C 1.00355 0.88997 0.3194 0.0
C55 C 0.98954 0.85694 0.41119 0.0
C56 C 1.01811 0.934 0.48052 0.0
C57 C 0.05879 0.04144 0.46129 0.0
C58 C 0.08005 0.10663 0.55011 0.0
C59 C 0.15377 0.16958 0.57185 0.0
C60 C 0.0571 0.18081 0.54307 0.0
C61 C 0.04464 0.01861 0.62151 0.0
C62 C 1.01006 0.91996 0.57895 0.0
C63 C 0.9731 0.82573 0.62807 0.0
C64 C 0.96971 0.83188 0.72301 0.0
C65 C 1.00256 0.93152 0.76857 0.0
C66 C 0.04164 0.02649 0.71752 0.0
H67 H 0.44638 0.06021 0.10939 0.0
H68 H 0.3595 0.94775 0.82913 0.0
H69 H 0.43685 0.90218 0.81035 0.0
H70 H 0.61173 0.17933 0.06004 0.0
H71 H 0.63359 0.13969 0.16914 0.0
H72 H 0.57085 0.16256 0.16178 0.0
H73 H 0.49102 0.9727 0.22536 0.0
H74 H 0.55356 0.94936 0.23318 0.0
H75 H 0.47749 0.8596 0.16735 0.0
H76 H 0.52395 0.86964 0.82062 0.0
H77 H 0.61358 0.84932 0.86034 0.0
H78 H 0.64593 0.98358 0.1336 0.0
C79 C 0.44379 0.02654 0.04384 0.0
C80 C 0.39626 0.00722 0.97088 0.0
C81 C 0.39443 0.96181 0.88673 0.0
C82 C 0.43859 0.93632 0.87507 0.0
C83 C 0.48466 0.95647 0.94812 0.0
C84 C 0.48757 0.00028 0.03101 0.0
C85 C 0.54167 0.01283 0.0987 0.0
C86 C 0.59247 0.13062 0.12388 0.0
C87 C 0.51428 0.94454 0.18633 0.0
C88 C 0.569 0.97006 0.04058 0.0
C89 C 0.53518 0.9378 0.95402 0.0
C90 C 0.55064 0.89438 0.8883 0.0
C91 C 0.60154 0.88271 0.91173 0.0
C92 C 0.63685 0.9143 1.00024 0.0
C93 C 0.62041 0.95947 0.06509 0.0
H94 H 0.11692 0.76212 0.0485 0.0
H95 H 0.90927 0.60912 1.00575 0.0
H96 H 0.89334 0.43932 0.97349 0.0
H97 H 0.12949 0.61083 0.87544 0.0
H98 H 0.18772 0.59887 0.94718 0.0
H99 H 0.18491 0.71258 0.95968 0.0
H100 H 0.17032 0.67279 0.1352 0.0
H101 H 0.17378 0.55969 0.12389 0.0
H102 H 0.10525 0.54266 0.17168 0.0
H103 H 0.89784 0.28904 0.94835 0.0
H104 H 0.91995 0.15278 0.9533 0.0
H105 H 0.12461 0.39378 0.02154 0.0
C106 C 0.06829 0.69261 0.03202 0.0
C107 C 1.0142 0.69799 0.02953 0.0
C108 C 0.95115 0.60595 1.00883 0.0
C109 C 0.94168 0.50962 0.98932 0.0
C110 C 0.99574 0.50661 0.99188 0.0
C111 C 0.05773 0.59455 0.01434 0.0
C112 C 0.10626 0.56555 0.02027 0.0
C113 C 0.15497 0.62551 0.94617 0.0
C114 C 0.14092 0.58638 0.11862 0.0
C115 C 0.0614 0.44723 0.99905 0.0
C116 C 0.99817 0.41647 0.98093 0.0
C117 C 0.94703 0.31172 0.96238 0.0
C118 C 0.96023 0.23496 0.96572 0.0
C119 C 1.02397 0.26284 0.98867 0.0
C120 C 0.07566 0.3708 1.00296 0.0
loop_
_geom_bond_atom_site_label_1
_geom_bond_atom_site_label_2
_geom_bond_distance
_geom_bond_site_symmetry_2
_ccdc_geom_bond_type
Ho0 C3 2.811 . S
Ho0 O20 2.322 1_565 S
Ho0 O22 2.378 . S
Ho0 O23 2.524 1_556 S
Ho0 O24 2.381 . S
Ho0 O25 2.669 1_665 S
Ho0 O27 2.346 . S
Ho0 O31 2.305 1_556 S
Ho1 C12 2.811 . S
Ho1 O21 2.346 . S
Ho1 O25 2.305 1_554 S
Ho1 O26 2.322 1_545 S
Ho1 O28 2.378 . S
Ho1 O29 2.524 1_554 S
Ho1 O30 2.381 . S
Ho1 O31 2.669 1_445 S
C2 O20 1.259 1_455 S
C2 O21 1.268 1_556 S
C3 Ho0 2.811 . S
C3 C4 1.490 . S
C3 O22 1.215 . S
C3 O23 1.289 1_556 S
C4 C3 1.490 . S
C4 C5 1.338 1_566 S
C4 C9 1.422 . S
C5 C4 1.338 1_544 S
C5 C6 1.442 . S
C5 H32 0.930 . S
C6 C5 1.442 . S
C6 C7 1.381 1_544 S
C6 H33 0.931 . S
C7 C6 1.381 1_566 S
C7 C8 1.321 . S
C8 C7 1.321 . S
C8 C9 1.403 . S
C8 H34 0.934 . S
C9 C4 1.422 . S
C9 C8 1.403 . S
C9 H35 0.930 . S
C10 O24 1.275 . S
C10 O25 1.256 1_665 S
C11 O26 1.259 1_655 S
C11 O27 1.268 1_554 S
C12 Ho1 2.811 . S
C12 C13 1.488 . S
C12 O28 1.215 . S
C12 O29 1.289 1_554 S
C13 C12 1.488 . S
C13 C14 1.348 1_544 S
C13 C18 1.413 . S
C14 C13 1.348 1_566 S
C14 C15 1.442 . S
C14 H36 0.930 . S
C15 C14 1.442 . S
C15 C16 1.381 1_566 S
C15 H37 0.931 . S
C16 C15 1.381 1_544 S
C16 C17 1.321 . S
C17 C16 1.321 . S
C17 C18 1.403 . S
C17 H38 0.934 . S
C18 C13 1.413 . S
C18 C17 1.403 . S
C18 H39 0.930 . S
C19 O30 1.275 . S
C19 O31 1.256 1_445 S
O20 Ho0 2.322 1_545 S
O20 C2 1.259 1_655 S
O21 Ho1 2.346 . S
O21 C2 1.268 1_554 S
O22 Ho0 2.378 . S
O22 C3 1.215 . S
O23 Ho0 2.524 1_554 S
O23 C3 1.289 1_554 S
O24 Ho0 2.381 . S
O24 C10 1.275 . S
O25 Ho0 2.669 1_445 S
O25 Ho1 2.305 1_556 S
O25 C10 1.256 1_445 S
O26 Ho1 2.322 1_565 S
O26 C11 1.259 1_455 S
O27 Ho0 2.346 . S
O27 C11 1.268 1_556 S
O28 Ho1 2.378 . S
O28 C12 1.215 . S
O29 Ho1 2.524 1_556 S
O29 C12 1.289 1_556 S
O30 Ho1 2.381 . S
O30 C19 1.275 . S
O31 Ho0 2.305 1_554 S
O31 Ho1 2.669 1_665 S
O31 C19 1.256 1_665 S
H32 C5 0.930 . S
H33 C6 0.931 . S
H34 C8 0.934 . S
H35 C9 0.930 . S
H36 C14 0.930 . S
H37 C15 0.931 . S
H38 C17 0.934 . S
H39 C18 0.930 . S
H40 C52 0.930 . S
H41 C54 0.930 . S
H42 C55 0.930 . S
H43 C59 0.959 . S
H44 C59 0.959 . S
H45 C59 0.961 . S
H46 C60 0.960 . S
H47 C60 0.961 . S
H48 C60 0.959 1_655 S
H49 C63 0.929 . S
H50 C64 0.931 . S
H51 C66 0.930 . S
C52 H40 0.930 . S
C52 C53 1.399 1_445 S
C52 C57 1.399 . S
C53 C52 1.399 1_665 S
C53 C54 1.376 . S
C54 H41 0.930 . S
C54 C53 1.376 . S
C54 C55 1.388 . S
C55 H42 0.930 . S
C55 C54 1.388 . S
C55 C56 1.390 . S
C56 C55 1.390 . S
C56 C57 1.394 1_665 S
C56 C62 1.465 . S
C57 C52 1.399 . S
C57 C56 1.394 1_445 S
C57 C58 1.516 . S
C58 C57 1.516 . S
C58 C59 1.502 . S
C58 C60 1.561 . S
C58 C61 1.526 . S
C59 H43 0.959 . S
C59 H44 0.959 . S
C59 H45 0.961 . S
C59 C58 1.502 . S
C60 H46 0.960 . S
C60 H47 0.961 . S
C60 H48 0.959 1_455 S
C60 C58 1.561 . S
C61 C58 1.526 . S
C61 C62 1.396 1_445 S
C61 C66 1.390 . S
C62 C56 1.465 . S
C62 C61 1.396 1_665 S
C62 C63 1.399 . S
C63 H49 0.929 . S
C63 C62 1.399 . S
C63 C64 1.385 . S
C64 H50 0.931 . S
C64 C63 1.385 . S
C64 C65 1.389 . S
C65 C64 1.389 . S
C65 C66 1.387 1_665 S
C66 H51 0.930 . S
C66 C61 1.390 . S
C66 C65 1.387 1_445 S
H67 C79 0.930 . S
H68 C81 0.930 . S
H69 C82 0.930 . S
H70 C86 0.959 . S
H71 C86 0.959 . S
H72 C86 0.961 . S
H73 C87 0.960 . S
H74 C87 0.961 . S
H75 C87 0.959 . S
H76 C90 0.929 . S
H77 C91 0.931 . S
H78 C93 0.930 . S
C79 H67 0.930 . S
C79 C80 1.399 1_554 S
C79 C84 1.399 . S
C80 C79 1.399 1_556 S
C80 C81 1.376 1_565 S
C81 H68 0.930 . S
C81 C80 1.376 1_545 S
C81 C82 1.388 . S
C82 H69 0.930 . S
C82 C81 1.388 . S
C82 C83 1.390 1_545 S
C83 C82 1.390 1_565 S
C83 C84 1.394 1_556 S
C83 C89 1.463 . S
C84 C79 1.399 . S
C84 C83 1.394 1_554 S
C84 C85 1.516 . S
C85 C84 1.516 . S
C85 C86 1.502 1_565 S
C85 C87 1.561 . S
C85 C88 1.526 . S
C86 H70 0.959 . S
C86 H71 0.959 . S
C86 H72 0.961 . S
C86 C85 1.502 1_545 S
C87 H73 0.960 . S
C87 H74 0.961 . S
C87 H75 0.959 . S
C87 C85 1.561 . S
C88 C85 1.526 . S
C88 C89 1.397 1_554 S
C88 C93 1.390 . S
C89 C83 1.463 . S
C89 C88 1.397 1_556 S
C89 C90 1.400 1_565 S
C90 H76 0.929 . S
C90 C89 1.400 1_545 S
C90 C91 1.385 . S
C91 H77 0.931 . S
C91 C90 1.385 . S
C91 C92 1.392 . S
C92 C91 1.392 . S
C92 C93 1.389 1_546 S
C93 H78 0.930 . S
C93 C88 1.390 . S
C93 C92 1.389 1_564 S
H94 C106 0.930 . S
H95 C108 0.930 . S
H96 C109 0.930 . S
H97 C113 0.959 . S
H98 C113 0.959 . S
H99 C113 0.961 . S
H100 C114 0.960 . S
H101 C114 0.961 . S
H102 C114 0.959 1_655 S
H103 C117 0.929 . S
H104 C118 0.931 . S
H105 C120 0.930 . S
C106 H94 0.930 . S
C106 C107 1.399 1_454 S
C106 C111 1.399 . S
C107 C106 1.399 1_656 S
C107 C108 1.376 . S
C108 H95 0.930 . S
C108 C107 1.376 . S
C108 C109 1.388 . S
C109 H96 0.930 . S
C109 C108 1.388 . S
C109 C110 1.390 . S
C110 C109 1.390 . S
C110 C111 1.394 1_656 S
C110 C116 1.465 . S
C111 C106 1.399 . S
C111 C110 1.394 1_454 S
C111 C112 1.516 . S
C112 C111 1.516 . S
C112 C113 1.502 . S
C112 C114 1.561 . S
C112 C115 1.526 . S
C113 H97 0.959 . S
C113 H98 0.959 . S
C113 H99 0.961 . S
C113 C112 1.502 . S
C114 H100 0.960 . S
C114 H101 0.961 . S
C114 H102 0.959 1_455 S
C114 C112 1.561 . S
C115 C112 1.526 . S
C115 C116 1.396 1_454 S
C115 C120 1.390 . S
C116 C110 1.465 . S
C116 C115 1.396 1_656 S
C116 C117 1.399 . S
C117 H103 0.929 . S
C117 C116 1.399 . S
C117 C118 1.385 . S
C118 H104 0.931 . S
C118 C117 1.385 . S
C118 C119 1.389 . S
C119 C118 1.389 . S
C119 C120 1.387 1_656 S
C120 H105 0.930 . S
C120 C115 1.390 . S
C120 C119 1.387 1_454 S
C53 C19 1.485 1_665 S
C65 C10 1.429 . S
C80 C16 1.495 1_566 S
C92 C7 1.485 1_545 S
C107 C11 1.485 1_556 S
C119 C2 1.479 1_655 S
