# Generated by pormake.
# Topology bcu, (8)-cn, num edge types: 1
# Building blocks:
#     Node 0, Type 0, BuildingBlock: TAGTUT_clean_sbu_3, # of connection points: 8
#     Node 1, Type 0, BuildingBlock: TAGTUT_clean_sbu_3, # of connection points: 8
#     Edge 2, Type (0, 0), BuildingBlock: XIVTED_clean_linker_0, # of connection points: 2
#     Edge 3, Type (0, 0), BuildingBlock: XIVTED_clean_linker_0, # of connection points: 2
#     Edge 4, Type (0, 0), BuildingBlock: XIVTED_clean_linker_0, # of connection points: 2
#     Edge 5, Type (0, 0), BuildingBlock: XIVTED_clean_linker_0, # of connection points: 2
#     Edge 6, Type (0, 0), BuildingBlock: XIVTED_clean_linker_0, # of connection points: 2
#     Edge 7, Type (0, 0), BuildingBlock: XIVTED_clean_linker_0, # of connection points: 2
#     Edge 8, Type (0, 0), BuildingBlock: XIVTED_clean_linker_0, # of connection points: 2
#     Edge 9, Type (0, 0), BuildingBlock: XIVTED_clean_linker_0, # of connection points: 2
# Relax obj value: 0.012
# Max RMSD: 0.062
# Mean RMSD: 0.062
data_MOF--net-bcu--node1-TAGTUT_clean_sbu_3--edge1-XIVTED_clean_linker_0
_symmetry_space_group_name_H-M    P1
_symmetry_Int_Tables_number       1
_symmetry_cell_setting            triclinic
loop_
_symmetry_equiv_pos_as_xyz
'x, y, z'
_cell_length_a     19.015875
_cell_length_b     19.491374
_cell_length_c     21.638221
_cell_angle_alpha  90.320107
_cell_angle_beta   90.069547
_cell_angle_gamma 105.77818
loop_
_atom_site_label
_atom_site_type_symbol
_atom_site_fract_x
_atom_site_fract_y
_atom_site_fract_z
_atom_type_partial_charge
C0 C 0.12281 0.11423 0.05162 0.0
C1 C 0.18545 0.88257 0.11394 0.0
C2 C 0.14489 0.82003 0.92161 0.0
Mg3 Mg 1.00681 0.1423 0.95347 0.0
Mg4 Mg 0.8599 0.01525 0.91994 0.0
O5 O 0.96195 0.04276 0.92268 0.0
Mg6 Mg 1.01524 0.98746 -0.02742 0.0
O7 O 0.07513 0.93906 0.02258 0.0
Mg8 Mg 0.17579 0.98336 -0.00996 0.0
Mg9 Mg 0.04889 0.83974 0.0276 0.0
C10 C 0.89437 0.86659 0.89613 0.0
O11 O 0.91804 0.93676 0.03675 0.0
O12 O 0.95197 0.17802 0.86663 0.0
O13 O 0.93456 0.82645 0.04589 0.0
O14 O 0.90743 0.14695 0.01229 0.0
O15 O 0.85654 0.08373 0.84384 0.0
O16 O 0.81214 0.05255 -0.00091 0.0
O17 O 0.1173 0.02838 0.91111 0.0
O18 O 0.10534 0.13838 0.89776 0.0
C19 C 0.14011 0.09153 0.88946 0.0
C20 C 0.89813 0.14582 0.83155 0.0
O21 O 0.96245 0.88996 0.91082 0.0
O22 O 0.21655 0.93425 0.07776 0.0
O23 O 0.84811 0.90337 0.90301 0.0
O24 O 0.1803 0.88446 0.9332 0.0
O25 O 0.12198 0.8406 0.10282 0.0
O26 O 0.08491 0.79104 0.9488 0.0
O27 O 0.05758 0.08901 0.03149 0.0
O28 O 0.172 0.08161 0.04375 0.0
C29 C 0.84208 0.11205 0.02526 0.0
C30 C 0.89588 0.87072 0.05253 0.0
C31 C 0.65376 0.57101 0.55165 0.0
C32 C 0.71449 0.34788 0.47407 0.0
C33 C 0.59042 0.36288 0.31099 0.0
Mg34 Mg 0.5182 0.63655 0.52575 0.0
Mg35 Mg 0.35392 0.53302 0.49603 0.0
O36 O 0.45265 0.55833 0.4754 0.0
Mg37 Mg 0.51195 0.48835 0.47145 0.0
O38 O 0.57979 0.42657 0.46772 0.0
Mg39 Mg 0.66394 0.48874 0.42113 0.0
Mg40 Mg 0.54994 0.33091 0.44447 0.0
C41 C 0.35894 0.41552 0.39564 0.0
O42 O 0.4444 0.40738 0.54106 0.0
O43 O 0.44596 0.70804 0.49175 0.0
O44 O 0.45661 0.30179 0.50522 0.0
O45 O 0.44557 0.60729 0.61307 0.0
O46 O 0.33575 0.633 0.47011 0.0
O47 O 0.34272 0.52252 0.59388 0.0
O48 O 0.58499 0.55863 0.39892 0.0
O49 O 0.58579 0.66459 0.43866 0.0
C50 C 0.60438 0.62677 0.39662 0.0
C51 C 0.38002 0.69568 0.47166 0.0
O52 O 0.42896 0.42745 0.39896 0.0
O53 O 0.73112 0.41283 0.4555 0.0
O54 O 0.32193 0.44434 0.43229 0.0
O55 O 0.63463 0.42041 0.33152 0.0
O56 O 0.64888 0.30747 0.47311 0.0
O57 O 0.54341 0.32243 0.34616 0.0
O58 O 0.58417 0.55467 0.54684 0.0
O59 O 0.69291 0.55212 0.51047 0.0
C60 C 0.38507 0.5653 0.63127 0.0
C61 C 0.42866 0.33871 0.54244 0.0
H62 H 0.24665 0.2204 0.04127 0.0
H63 H 0.21137 0.35942 0.38337 0.0
H64 H 0.04832 0.15313 0.1474 0.0
H65 H 0.41549 0.37825 0.2884 0.0
H66 H 0.14543 0.30239 0.29166 0.0
H67 H 0.30135 0.30419 0.12331 0.0
C68 C 0.21393 0.22515 0.08124 0.0
C69 C 0.14353 0.17962 0.08846 0.0
C70 C 0.2046 0.31906 0.29102 0.0
C71 C 0.20625 0.27287 0.18303 0.0
C72 C 0.24238 0.35115 0.34338 0.0
C73 C 0.31915 0.37338 0.34358 0.0
C74 C 0.24385 0.30966 0.23841 0.0
C75 C 0.35639 0.36141 0.29053 0.0
C76 C 0.24538 0.2722 0.12829 0.0
C77 C 0.10291 0.18757 0.14056 0.0
N78 N 0.31828 0.33051 0.23996 0.0
N79 N 0.13555 0.23243 0.18686 0.0
H80 H 0.70055 0.05765 0.06648 0.0
H81 H 0.69361 0.4273 0.22591 0.0
H82 H 0.88255 0.24696 0.073 0.0
H83 H 0.5296 0.22966 0.26131 0.0
H84 H 0.74892 0.3658 0.14966 0.0
H85 H 0.62676 0.12229 0.1236 0.0
C86 C 0.72519 0.11246 0.08021 0.0
C87 C 0.79812 0.14666 0.06513 0.0
C88 C 0.70018 0.33607 0.17348 0.0
C89 C 0.71351 0.22122 0.12883 0.0
C90 C 0.66797 0.3714 0.21661 0.0
C91 C 0.60786 0.33334 0.25141 0.0
C92 C 0.67212 0.26216 0.1649 0.0
C93 C 0.57664 0.26106 0.23643 0.0
C94 C 0.68287 0.14942 0.11236 0.0
C95 C 0.82686 0.218 0.08377 0.0
N96 N 0.60998 0.22744 0.19513 0.0
N97 N 0.7845 0.25278 0.11435 0.0
H98 H 0.83793 0.94082 0.14014 0.0
H99 H 0.63075 0.5673 0.28679 0.0
H100 H 0.80167 0.7391 0.04507 0.0
H101 H 0.65708 0.77003 0.37894 0.0
H102 H 0.681 0.6307 0.19285 0.0
H103 H 0.75274 0.88186 0.22067 0.0
C104 C 0.80993 0.88468 0.13515 0.0
C105 C 0.8277 0.84419 0.08702 0.0
C106 C 0.67546 0.66128 0.2336 0.0
C107 C 0.73274 0.77626 0.17912 0.0
C108 C 0.64758 0.62505 0.28744 0.0
C109 C 0.64034 0.66335 0.34096 0.0
C110 C 0.69661 0.73628 0.23346 0.0
C111 C 0.6621 0.73822 0.33887 0.0
C112 C 0.76213 0.85078 0.18145 0.0
C113 C 0.79026 0.77167 0.08245 0.0
N114 N 0.68953 0.77219 0.28609 0.0
N115 N 0.74563 0.73961 0.12869 0.0
H116 H 0.33142 0.92706 0.14826 0.0
H117 H 0.24449 0.71637 0.46653 0.0
H118 H 0.11689 0.81874 0.21645 0.0
H119 H 0.46373 0.79927 0.39768 0.0
H120 H 0.20027 0.782 0.38671 0.0
H121 H 0.38376 0.90414 0.24782 0.0
C122 C 0.29543 0.89896 0.18413 0.0
C123 C 0.21992 0.87333 0.17352 0.0
C124 C 0.25834 0.78712 0.38955 0.0
C125 C 0.27876 0.84844 0.2872 0.0
C126 C 0.28357 0.75013 0.43556 0.0
C127 C 0.35758 0.75187 0.43815 0.0
C128 C 0.3072 0.82474 0.34481 0.0
C129 C 0.4061 0.79658 0.39708 0.0
C130 C 0.32519 0.88615 0.24089 0.0
C131 C 0.17561 0.83799 0.2218 0.0
N132 N 0.37982 0.83001 0.35096 0.0
N133 N 0.20567 0.82641 0.27611 0.0
H134 H 0.2833 0.85765 0.87555 0.0
H135 H 0.24744 0.50735 0.67832 0.0
H136 H 0.08725 0.68229 0.87903 0.0
H137 H 0.45297 0.66086 0.72036 0.0
H138 H 0.18826 0.56324 0.75655 0.0
H139 H 0.34498 0.78334 0.8189 0.0
C140 C 0.25283 0.80359 0.86398 0.0
C141 C 0.17964 0.77642 0.88192 0.0
C142 C 0.24658 0.58368 0.7495 0.0
C143 C 0.2509 0.69024 0.81718 0.0
C144 C 0.2807 0.55142 0.70515 0.0
C145 C 0.3551 0.58066 0.69138 0.0
C146 C 0.28713 0.64564 0.7799 0.0
C147 C 0.39524 0.63734 0.72827 0.0
C148 C 0.28855 0.7608 0.83216 0.0
C149 C 0.14358 0.70558 0.86592 0.0
N150 N 0.36044 0.66892 0.76982 0.0
N151 N 0.17948 0.66498 0.83406 0.0
H152 H 0.39444 0.39351 0.65152 0.0
H153 H 0.17128 0.02079 0.7884 0.0
H154 H 0.36521 0.19541 0.55115 0.0
H155 H 0.24926 0.21234 0.8973 0.0
H156 H 0.24793 0.07949 0.7023 0.0
H157 H 0.33885 0.32605 0.74186 0.0
C158 C 0.37542 0.33593 0.64818 0.0
C159 C 0.38461 0.30006 0.59377 0.0
C160 C 0.24971 0.10799 0.74563 0.0
C161 C 0.32241 0.2224 0.69731 0.0
C162 C 0.20701 0.07406 0.79495 0.0
C163 C 0.20403 0.11231 0.84934 0.0
C164 C 0.28854 0.18034 0.75135 0.0
C165 C 0.25006 0.18155 0.85558 0.0
C166 C 0.3447 0.29732 0.70005 0.0
C167 C 0.35947 0.22523 0.5923 0.0
N168 N 0.28943 0.21394 0.80669 0.0
N169 N 0.32948 0.18882 0.64337 0.0
H170 H 0.826 0.07625 0.7316 0.0
H171 H 0.82873 0.42549 0.54437 0.0
H172 H 0.94507 0.28654 0.79423 0.0
H173 H 0.72118 0.21089 0.48506 0.0
H174 H 0.8908 0.37732 0.62595 0.0
H175 H 0.80348 0.12579 0.63372 0.0
C176 C 0.8472 0.13319 0.72492 0.0
C177 C 0.88622 0.17755 0.77185 0.0
C178 C 0.85503 0.34088 0.5941 0.0
C179 C 0.86051 0.2351 0.65869 0.0
C180 C 0.82021 0.36833 0.54708 0.0
C181 C 0.76893 0.32192 0.50857 0.0
C182 C 0.83826 0.26674 0.60224 0.0
C183 C 0.75949 0.24845 0.51438 0.0
C184 C 0.83481 0.16145 0.66852 0.0
C185 C 0.91392 0.2506 0.75957 0.0
N186 N 0.79288 0.22318 0.56096 0.0
N187 N 0.89961 0.27739 0.70433 0.0
H188 H 0.59005 0.60094 0.65837 0.0
H189 H 0.96833 0.80593 0.81313 0.0
H190 H 0.80025 0.61758 0.57481 0.0
H191 H 0.75872 0.77545 0.90109 0.0
H192 H 0.91028 0.7188 0.73377 0.0
H193 H 0.65216 0.65236 0.75338 0.0
C194 C 0.64922 0.61577 0.65986 0.0
C195 C 0.68999 0.60578 0.60832 0.0
C196 C 0.87726 0.73 0.77121 0.0
C197 C 0.76148 0.66363 0.71712 0.0
C198 C 0.9106 0.77905 0.81686 0.0
C199 C 0.86768 0.79893 0.86248 0.0
C200 C 0.80085 0.70144 0.77164 0.0
C201 C 0.79322 0.76261 0.86554 0.0
C202 C 0.6847 0.64439 0.71434 0.0
C203 C 0.76657 0.62493 0.61323 0.0
N204 N 0.76179 0.71666 0.81989 0.0
N205 N 0.79983 0.65336 0.66653 0.0
loop_
_geom_bond_atom_site_label_1
_geom_bond_atom_site_label_2
_geom_bond_distance
_geom_bond_site_symmetry_2
_ccdc_geom_bond_type
C0 O27 1.312 . S
C0 O28 1.208 . S
C1 O22 1.331 . S
C1 O25 1.244 . S
C2 O24 1.264 . S
C2 O26 1.273 . S
Mg3 O5 1.936 . S
Mg3 O12 2.081 . S
Mg3 O14 2.023 1_556 S
Mg3 O18 2.031 1_655 S
Mg3 O27 2.291 1_656 S
Mg4 O5 1.963 . S
Mg4 O15 1.942 . S
Mg4 O16 1.955 1_556 S
Mg4 O23 1.986 1_545 S
O5 Mg3 1.936 . S
O5 Mg4 1.963 . S
O5 Mg6 1.915 1_546 S
Mg6 O5 1.915 1_564 S
Mg6 O7 1.915 1_655 S
Mg6 O11 2.013 . S
Mg6 O17 2.114 1_664 S
Mg6 O21 2.013 1_554 S
Mg6 O27 2.114 1_665 S
O7 Mg6 1.915 1_455 S
O7 Mg8 1.936 . S
O7 Mg9 1.963 . S
Mg8 O7 1.936 . S
Mg8 O17 2.291 1_564 S
Mg8 O22 2.081 . S
Mg8 O24 2.023 1_554 S
Mg8 O28 2.031 1_565 S
Mg9 O7 1.963 . S
Mg9 O13 1.986 1_455 S
Mg9 O25 1.942 . S
Mg9 O26 1.955 1_554 S
C10 O21 1.191 . S
C10 O23 1.307 . S
O11 Mg6 2.013 . S
O11 C30 1.191 . S
O12 Mg3 2.081 . S
O12 C20 1.331 . S
O13 Mg9 1.986 1_655 S
O13 C30 1.307 . S
O14 Mg3 2.023 1_554 S
O14 C29 1.264 . S
O15 Mg4 1.942 . S
O15 C20 1.244 . S
O16 Mg4 1.955 1_554 S
O16 C29 1.273 . S
O17 Mg6 2.114 1_446 S
O17 Mg8 2.291 1_546 S
O17 C19 1.312 . S
O18 Mg3 2.031 1_455 S
O18 C19 1.208 . S
C19 O17 1.312 . S
C19 O18 1.208 . S
C20 O12 1.331 . S
C20 O15 1.244 . S
O21 Mg6 2.013 1_556 S
O21 C10 1.191 . S
O22 C1 1.331 . S
O22 Mg8 2.081 . S
O23 Mg4 1.986 1_565 S
O23 C10 1.307 . S
O24 C2 1.264 . S
O24 Mg8 2.023 1_556 S
O25 C1 1.244 . S
O25 Mg9 1.942 . S
O26 C2 1.273 . S
O26 Mg9 1.955 1_556 S
O27 C0 1.312 . S
O27 Mg3 2.291 1_454 S
O27 Mg6 2.114 1_445 S
O28 C0 1.208 . S
O28 Mg8 2.031 1_545 S
C29 O14 1.264 . S
C29 O16 1.273 . S
C30 O11 1.191 . S
C30 O13 1.307 . S
C31 O58 1.312 . S
C31 O59 1.208 . S
C32 O53 1.331 . S
C32 O56 1.244 . S
C33 O55 1.264 . S
C33 O57 1.273 . S
Mg34 O36 1.936 . S
Mg34 O43 2.081 . S
Mg34 O45 2.023 . S
Mg34 O49 2.031 . S
Mg34 O58 2.291 . S
Mg35 O36 1.963 . S
Mg35 O46 1.942 . S
Mg35 O47 1.955 . S
Mg35 O54 1.986 . S
O36 Mg34 1.936 . S
O36 Mg35 1.963 . S
O36 Mg37 1.915 . S
Mg37 O36 1.915 . S
Mg37 O38 1.915 . S
Mg37 O42 2.013 . S
Mg37 O48 2.114 . S
Mg37 O52 2.013 . S
Mg37 O58 2.114 . S
O38 Mg37 1.915 . S
O38 Mg39 1.936 . S
O38 Mg40 1.963 . S
Mg39 O38 1.936 . S
Mg39 O48 2.291 . S
Mg39 O53 2.081 . S
Mg39 O55 2.023 . S
Mg39 O59 2.031 . S
Mg40 O38 1.963 . S
Mg40 O44 1.986 . S
Mg40 O56 1.942 . S
Mg40 O57 1.955 . S
C41 O52 1.191 . S
C41 O54 1.307 . S
O42 Mg37 2.013 . S
O42 C61 1.191 . S
O43 Mg34 2.081 . S
O43 C51 1.331 . S
O44 Mg40 1.986 . S
O44 C61 1.307 . S
O45 Mg34 2.023 . S
O45 C60 1.264 . S
O46 Mg35 1.942 . S
O46 C51 1.244 . S
O47 Mg35 1.955 . S
O47 C60 1.273 . S
O48 Mg37 2.114 . S
O48 Mg39 2.291 . S
O48 C50 1.312 . S
O49 Mg34 2.031 . S
O49 C50 1.208 . S
C50 O48 1.312 . S
C50 O49 1.208 . S
C51 O43 1.331 . S
C51 O46 1.244 . S
O52 Mg37 2.013 . S
O52 C41 1.191 . S
O53 C32 1.331 . S
O53 Mg39 2.081 . S
O54 Mg35 1.986 . S
O54 C41 1.307 . S
O55 C33 1.264 . S
O55 Mg39 2.023 . S
O56 C32 1.244 . S
O56 Mg40 1.942 . S
O57 C33 1.273 . S
O57 Mg40 1.955 . S
O58 C31 1.312 . S
O58 Mg34 2.291 . S
O58 Mg37 2.114 . S
O59 C31 1.208 . S
O59 Mg39 2.031 . S
C60 O45 1.264 . S
C60 O47 1.273 . S
C61 O42 1.191 . S
C61 O44 1.307 . S
H62 C68 0.930 . S
H63 C72 0.930 . S
H64 C77 0.929 . S
H65 C75 0.929 . S
H66 C70 0.929 . S
H67 C76 0.929 . S
C68 H62 0.930 . S
C68 C69 1.367 . S
C68 C76 1.378 . S
C69 C68 1.367 . S
C69 C77 1.433 . S
C70 H66 0.929 . S
C70 C72 1.378 . S
C70 C74 1.350 . S
C71 C74 1.463 . S
C71 C76 1.350 . S
C71 N79 1.427 . S
C72 H63 0.930 . S
C72 C70 1.378 . S
C72 C73 1.367 . S
C73 C72 1.367 . S
C73 C75 1.433 . S
C74 C70 1.350 . S
C74 C71 1.463 . S
C74 N78 1.427 . S
C75 H65 0.929 . S
C75 C73 1.433 . S
C75 N78 1.384 . S
C76 H67 0.929 . S
C76 C68 1.378 . S
C76 C71 1.350 . S
C77 H64 0.929 . S
C77 C69 1.433 . S
C77 N79 1.384 . S
N78 C74 1.427 . S
N78 C75 1.384 . S
N79 C71 1.427 . S
N79 C77 1.384 . S
H80 C86 0.930 . S
H81 C90 0.930 . S
H82 C95 0.929 . S
H83 C93 0.929 . S
H84 C88 0.929 . S
H85 C94 0.929 . S
C86 H80 0.930 . S
C86 C87 1.367 . S
C86 C94 1.378 . S
C87 C86 1.367 . S
C87 C95 1.433 . S
C88 H84 0.929 . S
C88 C90 1.378 . S
C88 C92 1.350 . S
C89 C92 1.463 . S
C89 C94 1.350 . S
C89 N97 1.427 . S
C90 H81 0.930 . S
C90 C88 1.378 . S
C90 C91 1.367 . S
C91 C90 1.367 . S
C91 C93 1.433 . S
C92 C88 1.350 . S
C92 C89 1.463 . S
C92 N96 1.427 . S
C93 H83 0.929 . S
C93 C91 1.433 . S
C93 N96 1.384 . S
C94 H85 0.929 . S
C94 C86 1.378 . S
C94 C89 1.350 . S
C95 H82 0.929 . S
C95 C87 1.433 . S
C95 N97 1.384 . S
N96 C92 1.427 . S
N96 C93 1.384 . S
N97 C89 1.427 . S
N97 C95 1.384 . S
H98 C104 0.930 . S
H99 C108 0.930 . S
H100 C113 0.929 . S
H101 C111 0.929 . S
H102 C106 0.929 . S
H103 C112 0.929 . S
C104 H98 0.930 . S
C104 C105 1.367 . S
C104 C112 1.378 . S
C105 C104 1.367 . S
C105 C113 1.433 . S
C106 H102 0.929 . S
C106 C108 1.378 . S
C106 C110 1.350 . S
C107 C110 1.463 . S
C107 C112 1.350 . S
C107 N115 1.427 . S
C108 H99 0.930 . S
C108 C106 1.378 . S
C108 C109 1.367 . S
C109 C108 1.367 . S
C109 C111 1.433 . S
C110 C106 1.350 . S
C110 C107 1.463 . S
C110 N114 1.427 . S
C111 H101 0.929 . S
C111 C109 1.433 . S
C111 N114 1.384 . S
C112 H103 0.929 . S
C112 C104 1.378 . S
C112 C107 1.350 . S
C113 H100 0.929 . S
C113 C105 1.433 . S
C113 N115 1.384 . S
N114 C110 1.427 . S
N114 C111 1.384 . S
N115 C107 1.427 . S
N115 C113 1.384 . S
H116 C122 0.930 . S
H117 C126 0.930 . S
H118 C131 0.929 . S
H119 C129 0.929 . S
H120 C124 0.929 . S
H121 C130 0.929 . S
C122 H116 0.930 . S
C122 C123 1.367 . S
C122 C130 1.378 . S
C123 C122 1.367 . S
C123 C131 1.433 . S
C124 H120 0.929 . S
C124 C126 1.378 . S
C124 C128 1.350 . S
C125 C128 1.463 . S
C125 C130 1.350 . S
C125 N133 1.427 . S
C126 H117 0.930 . S
C126 C124 1.378 . S
C126 C127 1.367 . S
C127 C126 1.367 . S
C127 C129 1.433 . S
C128 C124 1.350 . S
C128 C125 1.463 . S
C128 N132 1.427 . S
C129 H119 0.929 . S
C129 C127 1.433 . S
C129 N132 1.384 . S
C130 H121 0.929 . S
C130 C122 1.378 . S
C130 C125 1.350 . S
C131 H118 0.929 . S
C131 C123 1.433 . S
C131 N133 1.384 . S
N132 C128 1.427 . S
N132 C129 1.384 . S
N133 C125 1.427 . S
N133 C131 1.384 . S
H134 C140 0.930 . S
H135 C144 0.930 . S
H136 C149 0.929 . S
H137 C147 0.929 . S
H138 C142 0.929 . S
H139 C148 0.929 . S
C140 H134 0.930 . S
C140 C141 1.367 . S
C140 C148 1.378 . S
C141 C140 1.367 . S
C141 C149 1.433 . S
C142 H138 0.929 . S
C142 C144 1.378 . S
C142 C146 1.350 . S
C143 C146 1.463 . S
C143 C148 1.350 . S
C143 N151 1.427 . S
C144 H135 0.930 . S
C144 C142 1.378 . S
C144 C145 1.367 . S
C145 C144 1.367 . S
C145 C147 1.433 . S
C146 C142 1.350 . S
C146 C143 1.463 . S
C146 N150 1.427 . S
C147 H137 0.929 . S
C147 C145 1.433 . S
C147 N150 1.384 . S
C148 H139 0.929 . S
C148 C140 1.378 . S
C148 C143 1.350 . S
C149 H136 0.929 . S
C149 C141 1.433 . S
C149 N151 1.384 . S
N150 C146 1.427 . S
N150 C147 1.384 . S
N151 C143 1.427 . S
N151 C149 1.384 . S
H152 C158 0.930 . S
H153 C162 0.930 . S
H154 C167 0.929 . S
H155 C165 0.929 . S
H156 C160 0.929 . S
H157 C166 0.929 . S
C158 H152 0.930 . S
C158 C159 1.367 . S
C158 C166 1.378 . S
C159 C158 1.367 . S
C159 C167 1.433 . S
C160 H156 0.929 . S
C160 C162 1.378 . S
C160 C164 1.350 . S
C161 C164 1.463 . S
C161 C166 1.350 . S
C161 N169 1.427 . S
C162 H153 0.930 . S
C162 C160 1.378 . S
C162 C163 1.367 . S
C163 C162 1.367 . S
C163 C165 1.433 . S
C164 C160 1.350 . S
C164 C161 1.463 . S
C164 N168 1.427 . S
C165 H155 0.929 . S
C165 C163 1.433 . S
C165 N168 1.384 . S
C166 H157 0.929 . S
C166 C158 1.378 . S
C166 C161 1.350 . S
C167 H154 0.929 . S
C167 C159 1.433 . S
C167 N169 1.384 . S
N168 C164 1.427 . S
N168 C165 1.384 . S
N169 C161 1.427 . S
N169 C167 1.384 . S
H170 C176 0.930 . S
H171 C180 0.930 . S
H172 C185 0.929 . S
H173 C183 0.929 . S
H174 C178 0.929 . S
H175 C184 0.929 . S
C176 H170 0.930 . S
C176 C177 1.367 . S
C176 C184 1.378 . S
C177 C176 1.367 . S
C177 C185 1.433 . S
C178 H174 0.929 . S
C178 C180 1.378 . S
C178 C182 1.350 . S
C179 C182 1.463 . S
C179 C184 1.350 . S
C179 N187 1.427 . S
C180 H171 0.930 . S
C180 C178 1.378 . S
C180 C181 1.367 . S
C181 C180 1.367 . S
C181 C183 1.433 . S
C182 C178 1.350 . S
C182 C179 1.463 . S
C182 N186 1.427 . S
C183 H173 0.929 . S
C183 C181 1.433 . S
C183 N186 1.384 . S
C184 H175 0.929 . S
C184 C176 1.378 . S
C184 C179 1.350 . S
C185 H172 0.929 . S
C185 C177 1.433 . S
C185 N187 1.384 . S
N186 C182 1.427 . S
N186 C183 1.384 . S
N187 C179 1.427 . S
N187 C185 1.384 . S
H188 C194 0.930 . S
H189 C198 0.930 . S
H190 C203 0.929 . S
H191 C201 0.929 . S
H192 C196 0.929 . S
H193 C202 0.929 . S
C194 H188 0.930 . S
C194 C195 1.367 . S
C194 C202 1.378 . S
C195 C194 1.367 . S
C195 C203 1.433 . S
C196 H192 0.929 . S
C196 C198 1.378 . S
C196 C200 1.350 . S
C197 C200 1.463 . S
C197 C202 1.350 . S
C197 N205 1.427 . S
C198 H189 0.930 . S
C198 C196 1.378 . S
C198 C199 1.367 . S
C199 C198 1.367 . S
C199 C201 1.433 . S
C200 C196 1.350 . S
C200 C197 1.463 . S
C200 N204 1.427 . S
C201 H191 0.929 . S
C201 C199 1.433 . S
C201 N204 1.384 . S
C202 H193 0.929 . S
C202 C194 1.378 . S
C202 C197 1.350 . S
C203 H190 0.929 . S
C203 C195 1.433 . S
C203 N205 1.384 . S
N204 C200 1.427 . S
N204 C201 1.384 . S
N205 C197 1.427 . S
N205 C203 1.384 . S
C69 C0 1.229 . S
C73 C41 1.244 . S
C87 C29 1.703 . S
C91 C33 1.700 . S
C105 C30 1.260 . S
C109 C50 1.242 . S
C123 C1 1.565 . S
C127 C51 1.560 . S
C141 C2 1.700 . S
C145 C60 1.700 . S
C159 C61 1.260 . S
C163 C19 1.242 . S
C177 C20 1.565 . S
C181 C32 1.570 . S
C195 C31 1.239 . S
C199 C10 1.261 . S
