# Generated by pormake.
# Topology wkj, (6)-cn, num edge types: 1
# Building blocks:
#     Node 0, Type 0, BuildingBlock: MIFKUJ_clean_sbu_0, # of connection points: 6
#     Node 1, Type 0, BuildingBlock: MIFKUJ_clean_sbu_0, # of connection points: 6
#     Node 2, Type 0, BuildingBlock: MIFKUJ_clean_sbu_0, # of connection points: 6
#     Node 3, Type 0, BuildingBlock: MIFKUJ_clean_sbu_0, # of connection points: 6
#     Node 4, Type 0, BuildingBlock: MIFKUJ_clean_sbu_0, # of connection points: 6
#     Node 5, Type 0, BuildingBlock: MIFKUJ_clean_sbu_0, # of connection points: 6
#     Node 6, Type 0, BuildingBlock: MIFKUJ_clean_sbu_0, # of connection points: 6
#     Node 7, Type 0, BuildingBlock: MIFKUJ_clean_sbu_0, # of connection points: 6
#     Node 8, Type 0, BuildingBlock: MIFKUJ_clean_sbu_0, # of connection points: 6
#     Node 9, Type 0, BuildingBlock: MIFKUJ_clean_sbu_0, # of connection points: 6
#     Node 10, Type 0, BuildingBlock: MIFKUJ_clean_sbu_0, # of connection points: 6
#     Node 11, Type 0, BuildingBlock: MIFKUJ_clean_sbu_0, # of connection points: 6
#     Edge 12, Type (0, 0), None
#     Edge 13, Type (0, 0), None
#     Edge 14, Type (0, 0), None
#     Edge 15, Type (0, 0), None
#     Edge 16, Type (0, 0), None
#     Edge 17, Type (0, 0), None
#     Edge 18, Type (0, 0), None
#     Edge 19, Type (0, 0), None
#     Edge 20, Type (0, 0), None
#     Edge 21, Type (0, 0), None
#     Edge 22, Type (0, 0), None
#     Edge 23, Type (0, 0), None
#     Edge 24, Type (0, 0), None
#     Edge 25, Type (0, 0), None
#     Edge 26, Type (0, 0), None
#     Edge 27, Type (0, 0), None
#     Edge 28, Type (0, 0), None
#     Edge 29, Type (0, 0), None
#     Edge 30, Type (0, 0), None
#     Edge 31, Type (0, 0), None
#     Edge 32, Type (0, 0), None
#     Edge 33, Type (0, 0), None
#     Edge 34, Type (0, 0), None
#     Edge 35, Type (0, 0), None
#     Edge 36, Type (0, 0), None
#     Edge 37, Type (0, 0), None
#     Edge 38, Type (0, 0), None
#     Edge 39, Type (0, 0), None
#     Edge 40, Type (0, 0), None
#     Edge 41, Type (0, 0), None
#     Edge 42, Type (0, 0), None
#     Edge 43, Type (0, 0), None
#     Edge 44, Type (0, 0), None
#     Edge 45, Type (0, 0), None
#     Edge 46, Type (0, 0), None
#     Edge 47, Type (0, 0), None
# Relax obj value: 0.325
# Max RMSD: 0.227
# Mean RMSD: 0.227
data_MOF--net-wkj--node1-MIFKUJ_clean_sbu_0--edge1-none
_symmetry_space_group_name_H-M    P1
_symmetry_Int_Tables_number       1
_symmetry_cell_setting            triclinic
loop_
_symmetry_equiv_pos_as_xyz
'x, y, z'
_cell_length_a     19.908215
_cell_length_b     19.91159
_cell_length_c     16.332618
_cell_angle_alpha  89.996306
_cell_angle_beta   89.996236
_cell_angle_gamma 120.02099
loop_
_atom_site_label
_atom_site_type_symbol
_atom_site_fract_x
_atom_site_fract_y
_atom_site_fract_z
_atom_type_partial_charge
Zn0 Zn 0.48591 0.09351 0.1719 0.0
Zn1 Zn 0.38033 0.09032 0.35917 0.0
C2 C 0.37651 -0.01295 0.05594 0.0
O3 O 0.37951 0.0492 0.02465 0.0
C4 C 0.50876 0.14775 0.49303 0.0
O5 O 0.45477 0.12718 0.54919 0.0
O6 O 0.57268 0.16638 0.09758 0.0
O7 O 0.41391 0.12696 0.18992 0.0
O8 O 0.34527 0.1483 0.27546 0.0
C9 C 0.56152 0.20732 0.04543 0.0
O10 O 0.50168 0.21716 0.05392 0.0
O11 O 0.42049 -0.00632 0.11502 0.0
C12 C 0.25968 0.026 0.49742 0.0
O13 O 0.28391 0.09426 0.53096 0.0
O14 O 0.29219 0.02072 0.43314 0.0
O15 O 0.3893 0.00375 0.30463 0.0
O16 O 0.51424 0.07094 0.28111 0.0
O17 O 0.49039 0.14669 0.41748 0.0
C18 C 0.36627 0.1492 0.20158 0.0
C19 C 0.45435 0.00645 0.29746 0.0
Zn20 Zn 0.35166 0.50538 0.47907 0.0
Zn21 Zn 0.27329 0.38876 0.67612 0.0
C22 C 0.34035 0.41102 0.33146 0.0
O23 O 0.28806 0.42372 0.29747 0.0
C24 C 0.34712 0.50961 0.82338 0.0
O25 O 0.30568 0.45584 0.87751 0.0
O26 O 0.35047 0.59811 0.43248 0.0
O27 O 0.26144 0.43244 0.53131 0.0
O28 O 0.16857 0.35718 0.6074 0.0
C29 C 0.30318 0.5897 0.37597 0.0
O30 O 0.23692 0.52457 0.37215 0.0
O31 O 0.37074 0.44186 0.39916 0.0
C32 C 0.22419 0.25387 0.79325 0.0
O33 O 0.17072 0.26637 0.82473 0.0
O34 O 0.26628 0.29673 0.73553 0.0
O35 O 0.36199 0.40836 0.59805 0.0
O36 O 0.43194 0.53202 0.56496 0.0
O37 O 0.33488 0.49319 0.74669 0.0
C38 C 0.19063 0.38657 0.53656 0.0
C39 C 0.42476 0.47331 0.60386 0.0
Zn40 Zn 0.83457 0.37819 0.83828 0.0
Zn41 Zn 0.83866 0.27603 0.02558 0.0
C42 C 0.94093 0.37541 0.72205 0.0
O43 O 0.87883 0.316 0.691 0.0
C44 C 0.78116 0.34676 0.1597 0.0
O45 O 0.80164 0.31324 0.21581 0.0
O46 O 0.76132 0.39171 0.76419 0.0
O47 O 0.80147 0.2729 0.85698 0.0
O48 O 0.78052 0.18273 0.94209 0.0
C49 C 0.72084 0.33965 0.71181 0.0
O50 O 0.71133 0.27011 0.72029 0.0
O51 O 0.93428 0.41284 0.78103 0.0
C52 C 0.90425 0.21984 0.16287 0.0
O53 O 0.83622 0.17486 0.1965 0.0
O54 O 0.90888 0.25809 0.09917 0.0
O55 O 0.92475 0.37167 0.97059 0.0
O56 O 0.85749 0.42938 0.94732 0.0
O57 O 0.7823 0.32958 0.08413 0.0
C58 C 0.77918 0.20297 0.86837 0.0
C59 C 0.922 0.434 0.9635 0.0
Zn60 Zn 0.42353 0.83217 0.146 0.0
Zn61 Zn 0.53945 0.86943 0.34337 0.0
C62 C 0.51763 0.91559 0.99845 0.0
O63 O 0.50488 0.8506 0.9644 0.0
C64 C 0.41999 0.82464 0.49037 0.0
O65 O 0.47589 0.84263 0.54362 0.0
O66 O 0.33098 0.73832 0.09902 0.0
O67 O 0.49661 0.81488 0.19798 0.0
O68 O 0.57162 0.79703 0.27416 0.0
C69 C 0.33944 0.69944 0.04256 0.0
O70 O 0.40469 0.69857 0.03864 0.0
O71 O 0.48696 0.91511 0.06628 0.0
C72 C 0.67493 0.9556 0.46043 0.0
O73 O 0.66386 0.88993 0.49133 0.0
O74 O 0.63099 0.95423 0.4036 0.0
O75 O 0.51991 0.93899 0.26595 0.0
O76 O 0.39639 0.88516 0.2322 0.0
O77 O 0.43464 0.82499 0.41359 0.0
C78 C 0.54243 0.78989 0.20325 0.0
C79 C 0.45487 0.93663 0.27145 0.0
Zn80 Zn 0.55049 0.44219 0.50488 0.0
Zn81 Zn 0.65287 0.54817 0.69254 0.0
C82 C 0.55342 0.5516 0.38877 0.0
O83 O 0.61289 0.54904 0.35775 0.0
C84 C 0.58189 0.4201 0.82651 0.0
O85 O 0.61465 0.47441 0.88245 0.0
O86 O 0.53692 0.35546 0.43074 0.0
O87 O 0.6558 0.51423 0.52367 0.0
O88 O 0.74604 0.58328 0.60879 0.0
C89 C 0.58893 0.36708 0.37827 0.0
O90 O 0.65849 0.42716 0.38665 0.0
O91 O 0.51593 0.50738 0.44769 0.0
C92 C 0.70922 0.66948 0.83031 0.0
O93 O 0.75374 0.6459 0.86392 0.0
O94 O 0.67113 0.63632 0.76637 0.0
O95 O 0.55721 0.5388 0.6379 0.0
O96 O 0.49952 0.41387 0.61408 0.0
O97 O 0.59951 0.43821 0.75097 0.0
C98 C 0.72577 0.56176 0.53506 0.0
C99 C 0.4949 0.47373 0.63041 0.0
Zn100 Zn 0.09679 0.57761 0.8123 0.0
Zn101 Zn 0.05882 0.65585 0.00968 0.0
C102 C 0.01347 0.58825 0.66454 0.0
O103 O 0.07838 0.64051 0.63033 0.0
C104 C 0.10584 0.58189 0.1568 0.0
O105 O 0.09323 0.62305 0.21099 0.0
O106 O 0.19098 0.57917 0.76587 0.0
O107 O 0.11391 0.66764 0.86471 0.0
O108 O 0.13186 0.76052 0.94083 0.0
C109 C 0.22954 0.62607 0.70893 0.0
O110 O 0.23048 0.6922 0.70457 0.0
O111 O 0.01407 0.55819 0.7324 0.0
C112 C -0.02674 0.70491 0.12724 0.0
O113 O 0.03929 0.75805 0.15896 0.0
O114 O -0.02604 0.66301 0.06928 0.0
O115 O -0.01053 0.56702 0.9318 0.0
O116 O 0.04331 0.4973 0.89818 0.0
O117 O 0.10181 0.59432 0.08013 0.0
C118 C 0.139 0.73844 0.86994 0.0
C119 C -0.00823 0.50431 0.9373 0.0
Zn120 Zn 0.83489 0.44235 0.50282 0.0
Zn121 Zn 0.83828 0.54803 0.31556 0.0
C122 C 0.94135 0.55175 0.61876 0.0
O123 O 0.87919 0.54867 0.65012 0.0
C124 C 0.78147 0.42007 0.18163 0.0
O125 O 0.80325 0.47448 0.12578 0.0
O126 O 0.76198 0.35568 0.57724 0.0
O127 O 0.80137 0.51422 0.48437 0.0
O128 O 0.78021 0.58323 0.3991 0.0
C129 C 0.72104 0.36693 0.62931 0.0
O130 O 0.71124 0.42678 0.62079 0.0
O131 O 0.93476 0.50781 0.55965 0.0
C132 C 0.90337 0.66946 0.17783 0.0
O133 O 0.83532 0.64621 0.14418 0.0
O134 O 0.90815 0.6361 0.24166 0.0
O135 O 0.92467 0.53885 0.37025 0.0
O136 O 0.8576 0.41389 0.39374 0.0
O137 O 0.78171 0.43803 0.25718 0.0
C138 C 0.77892 0.56171 0.47283 0.0
C139 C 0.92203 0.47382 0.37727 0.0
Zn140 Zn 0.35143 0.8319 0.86243 0.0
Zn141 Zn 0.27336 0.87041 0.66524 0.0
C142 C 0.34015 0.915 0.01005 0.0
O143 O 0.28775 0.85006 0.04408 0.0
C144 C 0.34726 0.82358 0.51801 0.0
O145 O 0.30615 0.83639 0.46392 0.0
O146 O 0.34992 0.73776 0.90889 0.0
O147 O 0.26135 0.81477 0.81005 0.0
O148 O 0.16858 0.79731 0.73389 0.0
C149 C 0.30275 0.69899 0.96556 0.0
O150 O 0.23651 0.69787 0.96967 0.0
O151 O 0.37057 0.91447 0.94239 0.0
C152 C 0.22421 0.95627 0.54824 0.0
O153 O 0.17053 0.89034 0.51686 0.0
O154 O 0.26644 0.95545 0.60577 0.0
O155 O 0.362 0.9394 0.74342 0.0
O156 O 0.43184 0.88563 0.77663 0.0
O157 O 0.33486 0.82745 0.59471 0.0
C158 C 0.19056 0.78983 0.80471 0.0
C159 C 0.42472 0.93718 0.73767 0.0
Zn160 Zn 0.48597 0.37824 0.16939 0.0
Zn161 Zn 0.38043 0.276 0.98212 0.0
C162 C 0.37661 0.37528 0.28551 0.0
O163 O 0.37956 0.3161 0.31679 0.0
C164 C 0.50882 0.34681 0.84835 0.0
O165 O 0.45484 0.31343 0.79218 0.0
O166 O 0.57275 0.39214 0.2437 0.0
O167 O 0.41436 0.2725 0.15253 0.0
O168 O 0.34569 0.18323 0.06581 0.0
C169 C 0.56156 0.33997 0.29581 0.0
O170 O 0.50169 0.27026 0.28743 0.0
O171 O 0.42058 0.41263 0.22638 0.0
C172 C 0.25961 0.21951 0.84398 0.0
O173 O 0.28373 0.17545 0.81029 0.0
O174 O 0.29224 0.25734 0.90821 0.0
O175 O 0.38922 0.37134 0.03678 0.0
O176 O 0.51415 0.42909 0.06012 0.0
O177 O 0.49044 0.32957 0.9239 0.0
C178 C 0.36669 0.20281 0.13983 0.0
C179 C 0.45426 0.4337 0.04393 0.0
Zn180 Zn 0.09641 0.50475 0.52852 0.0
Zn181 Zn 0.05984 0.38935 0.33103 0.0
C182 C 0.01301 0.41103 0.67619 0.0
O183 O 0.0781 0.42464 0.7107 0.0
C184 C 0.10471 0.5091 0.18431 0.0
O185 O 0.08677 0.45331 0.13093 0.0
O186 O 0.19016 0.59732 0.57562 0.0
O187 O 0.11393 0.43199 0.4764 0.0
O188 O 0.13226 0.35727 0.40032 0.0
C189 C 0.22918 0.58913 0.63214 0.0
O190 O 0.23017 0.52397 0.63654 0.0
O191 O 0.01337 0.44113 0.60803 0.0
C192 C -0.02584 0.25425 0.2134 0.0
O193 O 0.03988 0.26587 0.18205 0.0
O194 O -0.02465 0.29778 0.27058 0.0
O195 O -0.01024 0.40842 0.40824 0.0
O196 O 0.0434 0.53184 0.44232 0.0
O197 O 0.10431 0.49431 0.26106 0.0
C198 C 0.13917 0.3864 0.47121 0.0
C199 C -0.00804 0.47339 0.40301 0.0
Zn200 Zn 0.55051 0.09422 0.83643 0.0
Zn201 Zn 0.65274 0.09037 0.6488 0.0
C202 C 0.55339 -0.01237 0.95251 0.0
O203 O 0.61312 0.04955 0.98337 0.0
C204 C 0.58179 0.14747 0.51487 0.0
O205 O 0.6145 0.12589 0.45891 0.0
O206 O 0.53702 0.16748 0.91046 0.0
O207 O 0.65593 0.12761 0.81814 0.0
O208 O 0.74586 0.14843 0.73252 0.0
C209 C 0.58902 0.20771 0.96301 0.0
O210 O 0.6585 0.21693 0.95483 0.0
O211 O 0.51582 -0.00551 0.89378 0.0
C212 C 0.70928 0.02539 0.51114 0.0
O213 O 0.7541 0.09347 0.47756 0.0
O214 O 0.67098 0.02051 0.57489 0.0
O215 O 0.55717 0.00408 0.70357 0.0
O216 O 0.49958 0.0714 0.72722 0.0
O217 O 0.59939 0.14697 0.59041 0.0
C218 C 0.7258 0.14983 0.80632 0.0
C219 C 0.49489 0.00687 0.71104 0.0
Zn220 Zn 0.42347 0.57723 0.19543 0.0
Zn221 Zn 0.53936 0.65581 0.99795 0.0
C222 C 0.51776 0.58799 0.34287 0.0
O223 O 0.50528 0.6404 0.3769 0.0
C224 C 0.42 0.58113 0.85102 0.0
O225 O 0.47606 0.61872 0.79783 0.0
O226 O 0.33099 0.57869 0.24241 0.0
O227 O 0.49654 0.66757 0.14337 0.0
O228 O 0.57163 0.76042 0.06713 0.0
C229 C 0.33956 0.62606 0.29889 0.0
O230 O 0.40481 0.69219 0.30283 0.0
O231 O 0.48688 0.5577 0.27514 0.0
C232 C 0.67494 0.70504 0.88095 0.0
O233 O 0.66411 0.75975 0.84996 0.0
O234 O 0.63083 0.66244 0.93769 0.0
O235 O 0.51981 0.56675 0.07543 0.0
O236 O 0.39631 0.49702 0.10926 0.0
O237 O 0.43452 0.59557 0.9278 0.0
C238 C 0.54236 0.73838 0.13802 0.0
C239 C 0.45479 0.50404 0.06999 0.0
loop_
_geom_bond_atom_site_label_1
_geom_bond_atom_site_label_2
_geom_bond_distance
_geom_bond_site_symmetry_2
_ccdc_geom_bond_type
Zn0 O6 1.969 . S
Zn0 O7 1.965 . S
Zn0 O11 2.024 . S
Zn0 O16 1.969 . S
Zn1 O8 1.969 . S
Zn1 O14 1.969 . S
Zn1 O15 1.965 . S
Zn1 O17 2.024 . S
C2 O3 1.229 1_554 S
C2 O11 1.058 . S
O3 C2 1.229 1_556 S
C4 O5 1.229 . S
C4 O17 1.058 . S
O5 C4 1.229 . S
O6 Zn0 1.969 . S
O6 C9 1.267 . S
O7 Zn0 1.965 . S
O7 C18 1.260 . S
O8 Zn1 1.969 . S
O8 C18 1.258 . S
C9 O6 1.267 . S
C9 O10 1.228 1_554 S
O10 C9 1.228 1_556 S
O11 Zn0 2.024 . S
O11 C2 1.058 . S
C12 O13 1.228 . S
C12 O14 1.267 . S
O13 C12 1.228 . S
O14 Zn1 1.969 . S
O14 C12 1.267 . S
O15 Zn1 1.965 . S
O15 C19 1.260 . S
O16 Zn0 1.969 . S
O16 C19 1.258 . S
O17 Zn1 2.024 . S
O17 C4 1.058 . S
C18 O7 1.260 . S
C18 O8 1.258 . S
C19 O15 1.260 . S
C19 O16 1.258 . S
Zn20 O26 1.969 . S
Zn20 O27 1.965 . S
Zn20 O31 2.024 . S
Zn20 O36 1.969 . S
Zn21 O28 1.969 . S
Zn21 O34 1.969 . S
Zn21 O35 1.965 . S
Zn21 O37 2.024 . S
C22 O23 1.229 . S
C22 O31 1.058 . S
O23 C22 1.229 . S
C24 O25 1.229 . S
C24 O37 1.058 . S
O25 C24 1.229 . S
O26 Zn20 1.969 . S
O26 C29 1.267 . S
O27 Zn20 1.965 . S
O27 C38 1.260 . S
O28 Zn21 1.969 . S
O28 C38 1.258 . S
C29 O26 1.267 . S
C29 O30 1.228 . S
O30 C29 1.228 . S
O31 Zn20 2.024 . S
O31 C22 1.058 . S
C32 O33 1.228 . S
C32 O34 1.267 . S
O33 C32 1.228 . S
O34 Zn21 1.969 . S
O34 C32 1.267 . S
O35 Zn21 1.965 . S
O35 C39 1.260 . S
O36 Zn20 1.969 . S
O36 C39 1.258 . S
O37 Zn21 2.024 . S
O37 C24 1.058 . S
C38 O27 1.260 . S
C38 O28 1.258 . S
C39 O35 1.260 . S
C39 O36 1.258 . S
Zn40 O46 1.969 . S
Zn40 O47 1.965 . S
Zn40 O51 2.024 . S
Zn40 O56 1.969 . S
Zn41 O48 1.969 1_554 S
Zn41 O54 1.969 . S
Zn41 O55 1.965 1_554 S
Zn41 O57 2.024 . S
C42 O43 1.229 . S
C42 O51 1.058 . S
O43 C42 1.229 . S
C44 O45 1.229 . S
C44 O57 1.058 . S
O45 C44 1.229 . S
O46 Zn40 1.969 . S
O46 C49 1.267 . S
O47 Zn40 1.965 . S
O47 C58 1.260 . S
O48 Zn41 1.969 1_556 S
O48 C58 1.258 . S
C49 O46 1.267 . S
C49 O50 1.228 . S
O50 C49 1.228 . S
O51 Zn40 2.024 . S
O51 C42 1.058 . S
C52 O53 1.228 . S
C52 O54 1.267 . S
O53 C52 1.228 . S
O54 Zn41 1.969 . S
O54 C52 1.267 . S
O55 Zn41 1.965 1_556 S
O55 C59 1.260 . S
O56 Zn40 1.969 . S
O56 C59 1.258 . S
O57 Zn41 2.024 . S
O57 C44 1.058 . S
C58 O47 1.260 . S
C58 O48 1.258 . S
C59 O55 1.260 . S
C59 O56 1.258 . S
Zn60 O66 1.969 . S
Zn60 O67 1.965 . S
Zn60 O71 2.024 . S
Zn60 O76 1.969 . S
Zn61 O68 1.969 . S
Zn61 O74 1.969 . S
Zn61 O75 1.965 . S
Zn61 O77 2.024 . S
C62 O63 1.229 1_554 S
C62 O71 1.058 . S
O63 C62 1.229 1_556 S
C64 O65 1.229 . S
C64 O77 1.058 . S
O65 C64 1.229 . S
O66 Zn60 1.969 . S
O66 C69 1.267 . S
O67 Zn60 1.965 . S
O67 C78 1.260 . S
O68 Zn61 1.969 . S
O68 C78 1.258 . S
C69 O66 1.267 . S
C69 O70 1.228 1_554 S
O70 C69 1.228 1_556 S
O71 Zn60 2.024 . S
O71 C62 1.058 . S
C72 O73 1.228 . S
C72 O74 1.267 . S
O73 C72 1.228 . S
O74 Zn61 1.969 . S
O74 C72 1.267 . S
O75 Zn61 1.965 . S
O75 C79 1.260 . S
O76 Zn60 1.969 . S
O76 C79 1.258 . S
O77 Zn61 2.024 . S
O77 C64 1.058 . S
C78 O67 1.260 . S
C78 O68 1.258 . S
C79 O75 1.260 . S
C79 O76 1.258 . S
Zn80 O86 1.969 . S
Zn80 O87 1.965 . S
Zn80 O91 2.024 . S
Zn80 O96 1.969 . S
Zn81 O88 1.969 . S
Zn81 O94 1.969 . S
Zn81 O95 1.965 . S
Zn81 O97 2.024 . S
C82 O83 1.229 . S
C82 O91 1.058 . S
O83 C82 1.229 . S
C84 O85 1.229 . S
C84 O97 1.058 . S
O85 C84 1.229 . S
O86 Zn80 1.969 . S
O86 C89 1.267 . S
O87 Zn80 1.965 . S
O87 C98 1.260 . S
O88 Zn81 1.969 . S
O88 C98 1.258 . S
C89 O86 1.267 . S
C89 O90 1.228 . S
O90 C89 1.228 . S
O91 Zn80 2.024 . S
O91 C82 1.058 . S
C92 O93 1.228 . S
C92 O94 1.267 . S
O93 C92 1.228 . S
O94 Zn81 1.969 . S
O94 C92 1.267 . S
O95 Zn81 1.965 . S
O95 C99 1.260 . S
O96 Zn80 1.969 . S
O96 C99 1.258 . S
O97 Zn81 2.024 . S
O97 C84 1.058 . S
C98 O87 1.260 . S
C98 O88 1.258 . S
C99 O95 1.260 . S
C99 O96 1.258 . S
Zn100 O106 1.969 . S
Zn100 O107 1.965 . S
Zn100 O111 2.024 . S
Zn100 O116 1.969 . S
Zn101 O108 1.969 1_554 S
Zn101 O114 1.969 . S
Zn101 O115 1.965 1_554 S
Zn101 O117 2.024 . S
C102 O103 1.229 . S
C102 O111 1.058 . S
O103 C102 1.229 . S
C104 O105 1.229 . S
C104 O117 1.058 . S
O105 C104 1.229 . S
O106 Zn100 1.969 . S
O106 C109 1.267 . S
O107 Zn100 1.965 . S
O107 C118 1.260 . S
O108 Zn101 1.969 1_556 S
O108 C118 1.258 . S
C109 O106 1.267 . S
C109 O110 1.228 . S
O110 C109 1.228 . S
O111 Zn100 2.024 . S
O111 C102 1.058 . S
C112 O113 1.228 . S
C112 O114 1.267 . S
O113 C112 1.228 . S
O114 Zn101 1.969 . S
O114 C112 1.267 . S
O115 Zn101 1.965 1_556 S
O115 C119 1.260 . S
O116 Zn100 1.969 . S
O116 C119 1.258 . S
O117 Zn101 2.024 . S
O117 C104 1.058 . S
C118 O107 1.260 . S
C118 O108 1.258 . S
C119 O115 1.260 . S
C119 O116 1.258 . S
Zn120 O126 1.969 . S
Zn120 O127 1.965 . S
Zn120 O131 2.024 . S
Zn120 O136 1.969 . S
Zn121 O128 1.969 . S
Zn121 O134 1.969 . S
Zn121 O135 1.965 . S
Zn121 O137 2.024 . S
C122 O123 1.229 . S
C122 O131 1.058 . S
O123 C122 1.229 . S
C124 O125 1.229 . S
C124 O137 1.058 . S
O125 C124 1.229 . S
O126 Zn120 1.969 . S
O126 C129 1.267 . S
O127 Zn120 1.965 . S
O127 C138 1.260 . S
O128 Zn121 1.969 . S
O128 C138 1.258 . S
C129 O126 1.267 . S
C129 O130 1.228 . S
O130 C129 1.228 . S
O131 Zn120 2.024 . S
O131 C122 1.058 . S
C132 O133 1.228 . S
C132 O134 1.267 . S
O133 C132 1.228 . S
O134 Zn121 1.969 . S
O134 C132 1.267 . S
O135 Zn121 1.965 . S
O135 C139 1.260 . S
O136 Zn120 1.969 . S
O136 C139 1.258 . S
O137 Zn121 2.024 . S
O137 C124 1.058 . S
C138 O127 1.260 . S
C138 O128 1.258 . S
C139 O135 1.260 . S
C139 O136 1.258 . S
Zn140 O146 1.969 . S
Zn140 O147 1.965 . S
Zn140 O151 2.024 . S
Zn140 O156 1.969 . S
Zn141 O148 1.969 . S
Zn141 O154 1.969 . S
Zn141 O155 1.965 . S
Zn141 O157 2.024 . S
C142 O143 1.229 1_556 S
C142 O151 1.058 . S
O143 C142 1.229 1_554 S
C144 O145 1.229 . S
C144 O157 1.058 . S
O145 C144 1.229 . S
O146 Zn140 1.969 . S
O146 C149 1.267 . S
O147 Zn140 1.965 . S
O147 C158 1.260 . S
O148 Zn141 1.969 . S
O148 C158 1.258 . S
C149 O146 1.267 . S
C149 O150 1.228 1_556 S
O150 C149 1.228 1_554 S
O151 Zn140 2.024 . S
O151 C142 1.058 . S
C152 O153 1.228 . S
C152 O154 1.267 . S
O153 C152 1.228 . S
O154 Zn141 1.969 . S
O154 C152 1.267 . S
O155 Zn141 1.965 . S
O155 C159 1.260 . S
O156 Zn140 1.969 . S
O156 C159 1.258 . S
O157 Zn141 2.024 . S
O157 C144 1.058 . S
C158 O147 1.260 . S
C158 O148 1.258 . S
C159 O155 1.260 . S
C159 O156 1.258 . S
Zn160 O166 1.969 . S
Zn160 O167 1.965 . S
Zn160 O171 2.024 . S
Zn160 O176 1.969 . S
Zn161 O168 1.969 1_556 S
Zn161 O174 1.969 . S
Zn161 O175 1.965 1_556 S
Zn161 O177 2.024 . S
C162 O163 1.229 . S
C162 O171 1.058 . S
O163 C162 1.229 . S
C164 O165 1.229 . S
C164 O177 1.058 . S
O165 C164 1.229 . S
O166 Zn160 1.969 . S
O166 C169 1.267 . S
O167 Zn160 1.965 . S
O167 C178 1.260 . S
O168 Zn161 1.969 1_554 S
O168 C178 1.258 . S
C169 O166 1.267 . S
C169 O170 1.228 . S
O170 C169 1.228 . S
O171 Zn160 2.024 . S
O171 C162 1.058 . S
C172 O173 1.228 . S
C172 O174 1.267 . S
O173 C172 1.228 . S
O174 Zn161 1.969 . S
O174 C172 1.267 . S
O175 Zn161 1.965 1_554 S
O175 C179 1.260 . S
O176 Zn160 1.969 . S
O176 C179 1.258 . S
O177 Zn161 2.024 . S
O177 C164 1.058 . S
C178 O167 1.260 . S
C178 O168 1.258 . S
C179 O175 1.260 . S
C179 O176 1.258 . S
Zn180 O186 1.969 . S
Zn180 O187 1.965 . S
Zn180 O191 2.024 . S
Zn180 O196 1.969 . S
Zn181 O188 1.969 . S
Zn181 O194 1.969 . S
Zn181 O195 1.965 . S
Zn181 O197 2.024 . S
C182 O183 1.229 . S
C182 O191 1.058 . S
O183 C182 1.229 . S
C184 O185 1.229 . S
C184 O197 1.058 . S
O185 C184 1.229 . S
O186 Zn180 1.969 . S
O186 C189 1.267 . S
O187 Zn180 1.965 . S
O187 C198 1.260 . S
O188 Zn181 1.969 . S
O188 C198 1.258 . S
C189 O186 1.267 . S
C189 O190 1.228 . S
O190 C189 1.228 . S
O191 Zn180 2.024 . S
O191 C182 1.058 . S
C192 O193 1.228 . S
C192 O194 1.267 . S
O193 C192 1.228 . S
O194 Zn181 1.969 . S
O194 C192 1.267 . S
O195 Zn181 1.965 . S
O195 C199 1.260 . S
O196 Zn180 1.969 . S
O196 C199 1.258 . S
O197 Zn181 2.024 . S
O197 C184 1.058 . S
C198 O187 1.260 . S
C198 O188 1.258 . S
C199 O195 1.260 . S
C199 O196 1.258 . S
Zn200 O206 1.969 . S
Zn200 O207 1.965 . S
Zn200 O211 2.024 . S
Zn200 O216 1.969 . S
Zn201 O208 1.969 . S
Zn201 O214 1.969 . S
Zn201 O215 1.965 . S
Zn201 O217 2.024 . S
C202 O203 1.229 1_556 S
C202 O211 1.058 . S
O203 C202 1.229 1_554 S
C204 O205 1.229 . S
C204 O217 1.058 . S
O205 C204 1.229 . S
O206 Zn200 1.969 . S
O206 C209 1.267 . S
O207 Zn200 1.965 . S
O207 C218 1.260 . S
O208 Zn201 1.969 . S
O208 C218 1.258 . S
C209 O206 1.267 . S
C209 O210 1.228 1_556 S
O210 C209 1.228 1_554 S
O211 Zn200 2.024 . S
O211 C202 1.058 . S
C212 O213 1.228 . S
C212 O214 1.267 . S
O213 C212 1.228 . S
O214 Zn201 1.969 . S
O214 C212 1.267 . S
O215 Zn201 1.965 . S
O215 C219 1.260 . S
O216 Zn200 1.969 . S
O216 C219 1.258 . S
O217 Zn201 2.024 . S
O217 C204 1.058 . S
C218 O207 1.260 . S
C218 O208 1.258 . S
C219 O215 1.260 . S
C219 O216 1.258 . S
Zn220 O226 1.969 . S
Zn220 O227 1.965 . S
Zn220 O231 2.024 . S
Zn220 O236 1.969 . S
Zn221 O228 1.969 1_556 S
Zn221 O234 1.969 . S
Zn221 O235 1.965 1_556 S
Zn221 O237 2.024 . S
C222 O223 1.229 . S
C222 O231 1.058 . S
O223 C222 1.229 . S
C224 O225 1.229 . S
C224 O237 1.058 . S
O225 C224 1.229 . S
O226 Zn220 1.969 . S
O226 C229 1.267 . S
O227 Zn220 1.965 . S
O227 C238 1.260 . S
O228 Zn221 1.969 1_554 S
O228 C238 1.258 . S
C229 O226 1.267 . S
C229 O230 1.228 . S
O230 C229 1.228 . S
O231 Zn220 2.024 . S
O231 C222 1.058 . S
C232 O233 1.228 . S
C232 O234 1.267 . S
O233 C232 1.228 . S
O234 Zn221 1.969 . S
O234 C232 1.267 . S
O235 Zn221 1.965 1_554 S
O235 C239 1.260 . S
O236 Zn220 1.969 . S
O236 C239 1.258 . S
O237 Zn221 2.024 . S
O237 C224 1.058 . S
C238 O227 1.260 . S
C238 O228 1.258 . S
C239 O235 1.260 . S
C239 O236 1.258 . S
C18 C178 2.314 . S
C38 C198 2.314 . S
C58 C218 2.314 . S
C238 C78 2.314 . S
C98 C138 2.314 . S
C158 C118 2.314 . S
C209 C9 0.749 1_556 S
C229 C29 0.749 . S
C49 C129 0.749 . S
C149 C69 0.749 1_556 S
C169 C89 0.749 . S
C109 C189 0.749 . S
C142 C2 1.383 1_566 S
C162 C22 1.383 . S
C182 C42 1.383 1_455 S
C62 C202 1.383 1_564 S
C82 C222 1.383 . S
C102 C122 1.383 1_455 S
C19 C79 1.560 1_545 S
C39 C99 1.559 . S
C59 C119 1.559 1_655 S
C199 C139 1.560 1_455 S
C159 C219 1.559 1_565 S
C239 C179 1.559 . S
C152 C12 1.269 1_565 S
C172 C32 1.269 . S
C52 C192 1.269 1_655 S
C212 C72 1.269 1_545 S
C232 C92 1.269 . S
C112 C132 1.269 1_455 S
C4 C204 2.078 . S
C24 C224 2.078 . S
C44 C124 2.078 . S
C64 C144 2.078 . S
C84 C164 2.078 . S
C184 C104 2.078 . S
