# Generated by pormake.
# Topology umg, (4)-cn, num edge types: 1
# Building blocks:
#     Node 0, Type 0, BuildingBlock: QUQFOY_clean_sbu_1, # of connection points: 4
#     Node 1, Type 0, BuildingBlock: QUQFOY_clean_sbu_1, # of connection points: 4
#     Node 2, Type 0, BuildingBlock: QUQFOY_clean_sbu_1, # of connection points: 4
#     Node 3, Type 0, BuildingBlock: QUQFOY_clean_sbu_1, # of connection points: 4
#     Node 4, Type 0, BuildingBlock: QUQFOY_clean_sbu_1, # of connection points: 4
#     Node 5, Type 0, BuildingBlock: QUQFOY_clean_sbu_1, # of connection points: 4
#     Node 6, Type 0, BuildingBlock: QUQFOY_clean_sbu_1, # of connection points: 4
#     Node 7, Type 0, BuildingBlock: QUQFOY_clean_sbu_1, # of connection points: 4
#     Node 8, Type 0, BuildingBlock: QUQFOY_clean_sbu_1, # of connection points: 4
#     Node 9, Type 0, BuildingBlock: QUQFOY_clean_sbu_1, # of connection points: 4
#     Node 10, Type 0, BuildingBlock: QUQFOY_clean_sbu_1, # of connection points: 4
#     Node 11, Type 0, BuildingBlock: QUQFOY_clean_sbu_1, # of connection points: 4
#     Edge 12, Type (0, 0), None
#     Edge 13, Type (0, 0), None
#     Edge 14, Type (0, 0), None
#     Edge 15, Type (0, 0), None
#     Edge 16, Type (0, 0), None
#     Edge 17, Type (0, 0), None
#     Edge 18, Type (0, 0), None
#     Edge 19, Type (0, 0), None
#     Edge 20, Type (0, 0), None
#     Edge 21, Type (0, 0), None
#     Edge 22, Type (0, 0), None
#     Edge 23, Type (0, 0), None
#     Edge 24, Type (0, 0), None
#     Edge 25, Type (0, 0), None
#     Edge 26, Type (0, 0), None
#     Edge 27, Type (0, 0), None
#     Edge 28, Type (0, 0), None
#     Edge 29, Type (0, 0), None
#     Edge 30, Type (0, 0), None
#     Edge 31, Type (0, 0), None
#     Edge 32, Type (0, 0), None
#     Edge 33, Type (0, 0), None
#     Edge 34, Type (0, 0), None
#     Edge 35, Type (0, 0), None
# Relax obj value: 0.109
# Max RMSD: 0.339
# Mean RMSD: 0.217
data_MOF--net-umg--node1-QUQFOY_clean_sbu_1--edge1-none
_symmetry_space_group_name_H-M    P1
_symmetry_Int_Tables_number       1
_symmetry_cell_setting            triclinic
loop_
_symmetry_equiv_pos_as_xyz
'x, y, z'
_cell_length_a     13.076525
_cell_length_b     13.074744
_cell_length_c     39.24716
_cell_angle_alpha  89.994363
_cell_angle_beta   89.637575
_cell_angle_gamma 119.99382
loop_
_atom_site_label
_atom_site_type_symbol
_atom_site_fract_x
_atom_site_fract_y
_atom_site_fract_z
_atom_type_partial_charge
O0 O 0.29299 0.57649 0.0439 0.0
Cd1 Cd 0.32218 0.54524 0.09064 0.0
Cd2 Cd 0.36641 0.74269 0.1054 0.0
O3 O 0.42716 0.76213 0.05251 0.0
O4 O 0.40287 0.44817 0.09447 0.0
O5 O 0.50172 0.64376 0.09521 0.0
C6 C 0.50299 0.54614 0.09568 0.0
C7 C 0.43902 0.74449 0.16129 0.0
C8 C 0.36511 0.67724 0.03189 0.0
C9 C 0.12458 0.57403 0.11737 0.0
O10 O 0.18918 0.68075 0.108 0.0
O11 O 0.16912 0.50632 0.11926 0.0
O12 O 0.45307 0.84046 0.14724 0.0
O13 O 0.39133 0.65062 0.14342 0.0
O14 O 0.76585 0.27797 0.37737 0.0
Cd15 Cd 0.82808 0.30503 0.42387 0.0
Cd16 Cd 0.67528 0.34814 0.44016 0.0
O17 O 0.71441 0.41153 0.38756 0.0
O18 O 1.00596 0.38555 0.42685 0.0
O19 O 0.90928 0.48432 0.42939 0.0
C20 C 1.00816 0.4856 0.42898 0.0
C21 C 0.74625 0.41782 0.49616 0.0
C22 C 0.73661 0.35043 0.36622 0.0
C23 C 0.60305 0.10606 0.45081 0.0
O24 O 0.56048 0.17078 0.44216 0.0
O25 O 0.71533 0.15072 0.45217 0.0
O26 O 0.66379 0.43191 0.48273 0.0
O27 O 0.79329 0.37217 0.47757 0.0
O28 O 0.52989 0.73669 0.71007 0.0
Cd29 Cd 0.56162 0.79785 0.75675 0.0
Cd30 Cd 0.36449 0.64482 0.77238 0.0
O31 O 0.34405 0.68413 0.71954 0.0
O32 O 0.65855 0.97562 0.76054 0.0
O33 O 0.46299 0.87889 0.76176 0.0
C34 C 0.56058 0.97777 0.76214 0.0
C35 C 0.36343 0.71747 0.82819 0.0
C36 C 0.42873 0.70696 0.69853 0.0
C37 C 0.53303 0.57205 0.78395 0.0
O38 O 0.42624 0.52946 0.77496 0.0
O39 O 0.60074 0.68437 0.78532 0.0
O40 O 0.26727 0.63521 0.81456 0.0
O41 O 0.45709 0.76298 0.80994 0.0
O42 O 0.82553 0.51334 0.04416 0.0
Cd43 Cd 0.79683 0.54814 0.09075 0.0
Cd44 Cd 0.75395 0.35243 0.10678 0.0
O45 O 0.69246 0.32795 0.05419 0.0
O46 O 0.71621 0.64548 0.09359 0.0
O47 O 0.61747 0.45004 0.09635 0.0
C48 C 0.61614 0.54763 0.09575 0.0
C49 C 0.68305 0.35203 0.16299 0.0
C50 C 0.75408 0.4116 0.03293 0.0
C51 C 0.99542 0.52297 0.11744 0.0
O52 O 0.93131 0.41585 0.10866 0.0
O53 O 0.95044 0.59039 0.11894 0.0
O54 O 0.67022 0.25609 0.1493 0.0
O55 O 0.72758 0.44491 0.14447 0.0
O56 O 0.36149 0.8105 0.37735 0.0
Cd57 Cd 0.29981 0.77968 0.42417 0.0
Cd58 Cd 0.453 0.73562 0.43868 0.0
O59 O 0.41382 0.67679 0.3858 0.0
O60 O 0.12199 0.69891 0.42788 0.0
O61 O 0.21874 0.60005 0.42882 0.0
C62 C 0.11983 0.59874 0.4291 0.0
C63 C 0.38263 0.66179 0.49477 0.0
C64 C 0.39115 0.73938 0.36525 0.0
C65 C 0.52489 0.9769 0.45067 0.0
O66 O 0.56746 0.91286 0.44116 0.0
O67 O 0.41262 0.93207 0.45269 0.0
O68 O 0.46517 0.64897 0.48048 0.0
O69 O 0.33517 0.70841 0.47696 0.0
O70 O 0.59334 0.33269 0.71131 0.0
Cd71 Cd 0.55887 0.26971 0.75796 0.0
Cd72 Cd 0.75485 0.42265 0.77315 0.0
O73 O 0.77841 0.38363 0.72051 0.0
O74 O 0.46132 0.09179 0.76078 0.0
O75 O 0.65673 0.18832 0.76312 0.0
C76 C 0.55912 0.08946 0.76257 0.0
C77 C 0.75602 0.354 0.82943 0.0
C78 C 0.69464 0.36174 0.69961 0.0
C79 C 0.58409 0.49393 0.78422 0.0
O80 O 0.69113 0.53648 0.77505 0.0
O81 O 0.51671 0.38164 0.78623 0.0
O82 O 0.85171 0.4368 0.81533 0.0
O83 O 0.66297 0.30494 0.81128 0.0
O84 O 0.53052 0.80124 0.64998 0.0
Cd85 Cd 0.56496 0.77276 0.60333 0.0
Cd86 Cd 0.36898 0.72973 0.58814 0.0
O87 O 0.34541 0.66715 0.64079 0.0
O88 O 0.6625 0.69237 0.6005 0.0
O89 O 0.46709 0.59351 0.59818 0.0
C90 C 0.5647 0.59225 0.59871 0.0
C91 C 0.3678 0.65995 0.53187 0.0
C92 C 0.42921 0.729 0.66168 0.0
C93 C 0.53973 0.97179 0.57708 0.0
O94 O 0.4327 0.90728 0.58624 0.0
O95 O 0.60711 0.92685 0.57506 0.0
O96 O 0.27209 0.64702 0.54597 0.0
O97 O 0.46087 0.70392 0.55001 0.0
O98 O 0.76235 0.51091 0.98394 0.0
Cd99 Cd 0.82401 0.54176 0.93711 0.0
Cd100 Cd 0.67083 0.34452 0.92261 0.0
O101 O 0.71001 0.32486 0.9755 0.0
O102 O 1.00183 0.63882 0.93341 0.0
O103 O 0.90509 0.44321 0.93248 0.0
C104 C 1.004 0.54081 0.93219 0.0
C105 C 0.74115 0.34104 0.86653 0.0
C106 C 0.73271 0.41012 0.99604 0.0
C107 C 0.59892 0.51392 0.91062 0.0
O108 O 0.55638 0.40731 0.92014 0.0
O109 O 0.7112 0.58136 0.90859 0.0
O110 O 0.65862 0.24568 0.88082 0.0
O111 O 0.78865 0.43513 0.88434 0.0
O112 O 0.29831 0.74978 0.31712 0.0
Cd113 Cd 0.327 0.81326 0.27053 0.0
Cd114 Cd 0.36989 0.66043 0.25451 0.0
O115 O 0.43137 0.69742 0.3071 0.0
O116 O 0.40762 0.99121 0.26768 0.0
O117 O 0.50636 0.8945 0.26493 0.0
C118 C 0.5077 0.99343 0.26553 0.0
C119 C 0.44074 0.73085 0.19831 0.0
C120 C 0.36977 0.71949 0.32836 0.0
C121 C 0.1284 0.5895 0.24385 0.0
O122 O 0.19252 0.54649 0.25265 0.0
O123 O 0.17339 0.70188 0.24234 0.0
O124 O 0.4536 0.64776 0.212 0.0
O125 O 0.39625 0.77926 0.21682 0.0
O126 O 0.59392 0.26871 0.65123 0.0
Cd127 Cd 0.56219 0.29814 0.60455 0.0
Cd128 Cd 0.75933 0.34225 0.58891 0.0
O129 O 0.77978 0.40199 0.64175 0.0
O130 O 0.46526 0.37898 0.60076 0.0
O131 O 0.66082 0.4778 0.59953 0.0
C132 C 0.56323 0.4791 0.59915 0.0
C133 C 0.7604 0.41592 0.53311 0.0
C134 C 0.69509 0.34016 0.66276 0.0
C135 C 0.5908 0.10096 0.57735 0.0
O136 O 0.69758 0.16514 0.58634 0.0
O137 O 0.52307 0.14556 0.57598 0.0
O138 O 0.85657 0.42985 0.54673 0.0
O139 O 0.66672 0.3678 0.55135 0.0
O140 O 0.35798 0.57403 0.98393 0.0
Cd141 Cd 0.29575 0.53885 0.93743 0.0
Cd142 Cd 0.44854 0.73477 0.92113 0.0
O143 O 0.40942 0.75903 0.97373 0.0
O144 O 0.11788 0.4415 0.93446 0.0
O145 O 0.21455 0.63694 0.9319 0.0
C146 C 0.11567 0.53933 0.93232 0.0
C147 C 0.3776 0.73349 0.86513 0.0
C148 C 0.38721 0.67574 0.99507 0.0
C149 C 0.52077 0.56494 0.91048 0.0
O150 O 0.56335 0.67221 0.91913 0.0
O151 O 0.40849 0.49729 0.90914 0.0
O152 O 0.46005 0.83006 0.87856 0.0
O153 O 0.33053 0.64079 0.88372 0.0
O154 O 0.83081 0.34534 0.3174 0.0
Cd155 Cd 0.80165 0.28496 0.27065 0.0
Cd156 Cd 0.75742 0.43822 0.25588 0.0
O157 O 0.69669 0.39691 0.30878 0.0
O158 O 0.72097 0.10722 0.26681 0.0
O159 O 0.62212 0.20397 0.26608 0.0
C160 C 0.62085 0.10508 0.2656 0.0
C161 C 0.68484 0.36743 0.20001 0.0
C162 C 0.7587 0.374 0.3294 0.0
C163 C 0.99924 0.51138 0.24392 0.0
O164 O 0.93464 0.55351 0.25329 0.0
O165 O 0.95473 0.39915 0.24204 0.0
O166 O 0.67074 0.44932 0.21405 0.0
O167 O 0.73253 0.32123 0.21788 0.0
loop_
_geom_bond_atom_site_label_1
_geom_bond_atom_site_label_2
_geom_bond_distance
_geom_bond_site_symmetry_2
_ccdc_geom_bond_type
O0 Cd1 2.223 . S
O0 C8 1.315 . S
Cd1 O0 2.223 . S
Cd1 O4 2.297 . S
Cd1 O5 2.439 . S
Cd1 O11 2.240 . S
Cd2 O3 2.240 . S
Cd2 O10 2.223 . S
Cd2 O12 2.297 . S
Cd2 O13 2.439 . S
O3 Cd2 2.240 . S
O3 C8 1.279 . S
O4 Cd1 2.297 . S
O4 C6 1.247 . S
O5 Cd1 2.439 . S
O5 C6 1.208 . S
C6 O4 1.247 . S
C6 O5 1.208 . S
C7 O12 1.247 . S
C7 O13 1.208 . S
C8 O0 1.315 . S
C8 O3 1.279 . S
C9 O10 1.315 . S
C9 O11 1.279 . S
O10 Cd2 2.223 . S
O10 C9 1.315 . S
O11 Cd1 2.240 . S
O11 C9 1.279 . S
O12 Cd2 2.297 . S
O12 C7 1.247 . S
O13 Cd2 2.439 . S
O13 C7 1.208 . S
O14 Cd15 2.223 . S
O14 C22 1.315 . S
Cd15 O14 2.223 . S
Cd15 O18 2.292 1_655 S
Cd15 O19 2.439 . S
Cd15 O25 2.240 . S
Cd16 O17 2.240 . S
Cd16 O24 2.223 . S
Cd16 O26 2.297 . S
Cd16 O27 2.439 . S
O17 Cd16 2.240 . S
O17 C22 1.279 . S
O18 Cd15 2.292 1_455 S
O18 C20 1.246 . S
O19 Cd15 2.439 . S
O19 C20 1.208 1_655 S
C20 O18 1.246 . S
C20 O19 1.208 1_455 S
C21 O26 1.247 . S
C21 O27 1.208 . S
C22 O14 1.315 . S
C22 O17 1.279 . S
C23 O24 1.315 . S
C23 O25 1.279 . S
O24 Cd16 2.223 . S
O24 C23 1.315 . S
O25 Cd15 2.240 . S
O25 C23 1.279 . S
O26 Cd16 2.297 . S
O26 C21 1.247 . S
O27 Cd16 2.439 . S
O27 C21 1.208 . S
O28 Cd29 2.223 . S
O28 C36 1.315 . S
Cd29 O28 2.223 . S
Cd29 O32 2.297 . S
Cd29 O33 2.439 . S
Cd29 O39 2.240 . S
Cd30 O31 2.240 . S
Cd30 O38 2.223 . S
Cd30 O40 2.297 . S
Cd30 O41 2.439 . S
O31 Cd30 2.240 . S
O31 C36 1.279 . S
O32 Cd29 2.297 . S
O32 C34 1.247 . S
O33 Cd29 2.439 . S
O33 C34 1.208 . S
C34 O32 1.247 . S
C34 O33 1.208 . S
C35 O40 1.247 . S
C35 O41 1.208 . S
C36 O28 1.315 . S
C36 O31 1.279 . S
C37 O38 1.315 . S
C37 O39 1.279 . S
O38 Cd30 2.223 . S
O38 C37 1.315 . S
O39 Cd29 2.240 . S
O39 C37 1.279 . S
O40 Cd30 2.297 . S
O40 C35 1.247 . S
O41 Cd30 2.439 . S
O41 C35 1.208 . S
O42 Cd43 2.247 . S
O42 C50 1.323 . S
Cd43 O42 2.247 . S
Cd43 O46 2.297 . S
Cd43 O47 2.439 . S
Cd43 O53 2.240 . S
Cd44 O45 2.240 . S
Cd44 O52 2.223 . S
Cd44 O54 2.297 . S
Cd44 O55 2.439 . S
O45 Cd44 2.240 . S
O45 C50 1.279 . S
O46 Cd43 2.297 . S
O46 C48 1.247 . S
O47 Cd43 2.439 . S
O47 C48 1.208 . S
C48 O46 1.247 . S
C48 O47 1.208 . S
C49 O54 1.247 . S
C49 O55 1.208 . S
C50 O42 1.323 . S
C50 O45 1.279 . S
C51 O52 1.315 . S
C51 O53 1.279 . S
O52 Cd44 2.223 . S
O52 C51 1.315 . S
O53 Cd43 2.240 . S
O53 C51 1.279 . S
O54 Cd44 2.297 . S
O54 C49 1.247 . S
O55 Cd44 2.439 . S
O55 C49 1.208 . S
O56 Cd57 2.223 . S
O56 C64 1.315 . S
Cd57 O56 2.223 . S
Cd57 O60 2.297 . S
Cd57 O61 2.439 . S
Cd57 O67 2.240 . S
Cd58 O59 2.240 . S
Cd58 O66 2.223 . S
Cd58 O68 2.297 . S
Cd58 O69 2.439 . S
O59 Cd58 2.240 . S
O59 C64 1.279 . S
O60 Cd57 2.297 . S
O60 C62 1.247 . S
O61 Cd57 2.439 . S
O61 C62 1.208 . S
C62 O60 1.247 . S
C62 O61 1.208 . S
C63 O68 1.247 . S
C63 O69 1.208 . S
C64 O56 1.315 . S
C64 O59 1.279 . S
C65 O66 1.315 . S
C65 O67 1.279 . S
O66 Cd58 2.223 . S
O66 C65 1.315 . S
O67 Cd57 2.240 . S
O67 C65 1.279 . S
O68 Cd58 2.297 . S
O68 C63 1.247 . S
O69 Cd58 2.439 . S
O69 C63 1.208 . S
O70 Cd71 2.223 . S
O70 C78 1.315 . S
Cd71 O70 2.223 . S
Cd71 O74 2.297 . S
Cd71 O75 2.439 . S
Cd71 O81 2.240 . S
Cd72 O73 2.240 . S
Cd72 O80 2.223 . S
Cd72 O82 2.297 . S
Cd72 O83 2.439 . S
O73 Cd72 2.240 . S
O73 C78 1.279 . S
O74 Cd71 2.297 . S
O74 C76 1.247 . S
O75 Cd71 2.439 . S
O75 C76 1.208 . S
C76 O74 1.247 . S
C76 O75 1.208 . S
C77 O82 1.247 . S
C77 O83 1.208 . S
C78 O70 1.315 . S
C78 O73 1.279 . S
C79 O80 1.315 . S
C79 O81 1.279 . S
O80 Cd72 2.223 . S
O80 C79 1.315 . S
O81 Cd71 2.240 . S
O81 C79 1.279 . S
O82 Cd72 2.297 . S
O82 C77 1.247 . S
O83 Cd72 2.439 . S
O83 C77 1.208 . S
O84 Cd85 2.223 . S
O84 C92 1.315 . S
Cd85 O84 2.223 . S
Cd85 O88 2.297 . S
Cd85 O89 2.439 . S
Cd85 O95 2.240 . S
Cd86 O87 2.240 . S
Cd86 O94 2.223 . S
Cd86 O96 2.297 . S
Cd86 O97 2.439 . S
O87 Cd86 2.240 . S
O87 C92 1.279 . S
O88 Cd85 2.297 . S
O88 C90 1.247 . S
O89 Cd85 2.439 . S
O89 C90 1.208 . S
C90 O88 1.247 . S
C90 O89 1.208 . S
C91 O96 1.247 . S
C91 O97 1.208 . S
C92 O84 1.315 . S
C92 O87 1.279 . S
C93 O94 1.315 . S
C93 O95 1.279 . S
O94 Cd86 2.223 . S
O94 C93 1.315 . S
O95 Cd85 2.240 . S
O95 C93 1.279 . S
O96 Cd86 2.297 . S
O96 C91 1.247 . S
O97 Cd86 2.439 . S
O97 C91 1.208 . S
O98 Cd99 2.223 . S
O98 C106 1.315 . S
Cd99 O98 2.223 . S
Cd99 O102 2.297 . S
Cd99 O103 2.439 . S
Cd99 O109 2.240 . S
Cd100 O101 2.240 . S
Cd100 O108 2.223 . S
Cd100 O110 2.297 . S
Cd100 O111 2.439 . S
O101 Cd100 2.240 . S
O101 C106 1.279 . S
O102 Cd99 2.297 . S
O102 C104 1.247 . S
O103 Cd99 2.439 . S
O103 C104 1.208 . S
C104 O102 1.247 . S
C104 O103 1.208 . S
C105 O110 1.247 . S
C105 O111 1.208 . S
C106 O98 1.315 . S
C106 O101 1.279 . S
C107 O108 1.315 . S
C107 O109 1.279 . S
O108 Cd100 2.223 . S
O108 C107 1.315 . S
O109 Cd99 2.240 . S
O109 C107 1.279 . S
O110 Cd100 2.297 . S
O110 C105 1.247 . S
O111 Cd100 2.439 . S
O111 C105 1.208 . S
O112 Cd113 2.223 . S
O112 C120 1.315 . S
Cd113 O112 2.223 . S
Cd113 O116 2.297 1_565 S
Cd113 O117 2.439 1_565 S
Cd113 O123 2.240 . S
Cd114 O115 2.240 . S
Cd114 O122 2.223 . S
Cd114 O124 2.297 . S
Cd114 O125 2.439 . S
O115 Cd114 2.240 . S
O115 C120 1.279 . S
O116 Cd113 2.297 1_545 S
O116 C118 1.247 . S
O117 Cd113 2.439 1_545 S
O117 C118 1.208 . S
C118 O116 1.247 . S
C118 O117 1.208 . S
C119 O124 1.247 . S
C119 O125 1.208 . S
C120 O112 1.315 . S
C120 O115 1.279 . S
C121 O122 1.315 . S
C121 O123 1.279 . S
O122 Cd114 2.223 . S
O122 C121 1.315 . S
O123 Cd113 2.240 . S
O123 C121 1.279 . S
O124 Cd114 2.297 . S
O124 C119 1.247 . S
O125 Cd114 2.439 . S
O125 C119 1.208 . S
O126 Cd127 2.223 . S
O126 C134 1.315 . S
Cd127 O126 2.223 . S
Cd127 O130 2.297 . S
Cd127 O131 2.439 . S
Cd127 O137 2.240 . S
Cd128 O129 2.240 . S
Cd128 O136 2.223 1_545 S
Cd128 O138 2.297 . S
Cd128 O139 2.439 . S
O129 Cd128 2.240 . S
O129 C134 1.279 . S
O130 Cd127 2.297 . S
O130 C132 1.247 . S
O131 Cd127 2.439 . S
O131 C132 1.208 . S
C132 O130 1.247 . S
C132 O131 1.208 . S
C133 O138 1.247 . S
C133 O139 1.208 . S
C134 O126 1.315 . S
C134 O129 1.279 . S
C135 O136 1.315 . S
C135 O137 1.279 1_565 S
O136 Cd128 2.223 1_565 S
O136 C135 1.315 . S
O137 Cd127 2.240 . S
O137 C135 1.279 1_545 S
O138 Cd128 2.297 . S
O138 C133 1.247 . S
O139 Cd128 2.439 . S
O139 C133 1.208 . S
O140 Cd141 2.223 1_554 S
O140 C148 1.315 1_554 S
Cd141 O140 2.223 1_556 S
Cd141 O144 2.287 1_455 S
Cd141 O145 2.439 . S
Cd141 O151 2.240 . S
Cd142 O143 2.240 . S
Cd142 O150 2.223 . S
Cd142 O152 2.297 . S
Cd142 O153 2.439 . S
O143 Cd142 2.240 . S
O143 C148 1.279 . S
O144 Cd141 2.287 1_655 S
O144 C146 1.251 . S
O145 Cd141 2.439 . S
O145 C146 1.208 1_455 S
C146 O144 1.251 . S
C146 O145 1.208 1_655 S
C147 O152 1.247 . S
C147 O153 1.208 . S
C148 O140 1.315 1_556 S
C148 O143 1.279 . S
C149 O150 1.315 . S
C149 O151 1.279 . S
O150 Cd142 2.223 . S
O150 C149 1.315 . S
O151 Cd141 2.240 . S
O151 C149 1.279 . S
O152 Cd142 2.297 . S
O152 C147 1.247 . S
O153 Cd142 2.439 . S
O153 C147 1.208 . S
O154 Cd155 2.223 . S
O154 C162 1.315 . S
Cd155 O154 2.223 . S
Cd155 O158 2.297 . S
Cd155 O159 2.439 . S
Cd155 O165 2.240 . S
Cd156 O157 2.240 . S
Cd156 O164 2.223 . S
Cd156 O166 2.297 . S
Cd156 O167 2.439 . S
O157 Cd156 2.240 . S
O157 C162 1.279 . S
O158 Cd155 2.297 . S
O158 C160 1.247 . S
O159 Cd155 2.439 . S
O159 C160 1.208 . S
C160 O158 1.247 . S
C160 O159 1.208 . S
C161 O166 1.247 . S
C161 O167 1.208 . S
C162 O154 1.315 . S
C162 O157 1.279 . S
C163 O164 1.315 . S
C163 O165 1.279 . S
O164 Cd156 2.223 . S
O164 C163 1.315 . S
O165 Cd155 2.240 . S
O165 C163 1.279 . S
O166 Cd156 2.297 . S
O166 C161 1.247 . S
O167 Cd156 2.439 . S
O167 C161 1.208 . S
C148 C8 2.189 1_556 S
C22 C162 2.189 . S
C36 C92 2.142 . S
C50 C106 2.188 1_554 S
C120 C64 2.187 . S
C78 C134 2.142 . S
C119 C7 3.030 . S
C21 C133 1.720 . S
C35 C147 1.720 . S
C49 C161 3.030 . S
C91 C63 4.221 . S
C105 C77 4.221 . S
C51 C9 1.537 1_655 S
C23 C65 1.536 1_545 S
C79 C37 1.539 . S
C135 C93 1.539 . S
C149 C107 1.536 . S
C121 C163 1.537 1_455 S
C48 C6 1.963 . S
C20 C62 2.015 . S
C76 C34 2.008 1_545 S
C90 C132 2.008 . S
C146 C104 2.014 . S
C118 C160 1.962 . S
