# Generated by pormake.
# Topology pcu, (6)-cn, num edge types: 1
# Building blocks:
#     Node 0, Type 0, BuildingBlock: BETDAH_clean_sbu_0, # of connection points: 6
#     Edge 1, Type (0, 0), None
#     Edge 2, Type (0, 0), None
#     Edge 3, Type (0, 0), None
# Relax obj value: 0.000
# Max RMSD: 0.000
# Mean RMSD: 0.000
data_MOF--net-pcu--node1-BETDAH_clean_sbu_0--edge1-none
_symmetry_space_group_name_H-M    P1
_symmetry_Int_Tables_number       1
_symmetry_cell_setting            triclinic
loop_
_symmetry_equiv_pos_as_xyz
'x, y, z'
_cell_length_a     16.931926
_cell_length_b     6.9407831
_cell_length_c     5.9359559
_cell_angle_alpha  84.287267
_cell_angle_beta   97.776548
_cell_angle_gamma 118.67391
loop_
_atom_site_label
_atom_site_type_symbol
_atom_site_fract_x
_atom_site_fract_y
_atom_site_fract_z
_atom_type_partial_charge
Ho0 Ho 0.93823 0.82107 1.01362 0.0
Ho1 Ho 0.14925 0.0782 0.07414 0.0
C2 C 0.04505 0.35635 1.04258 0.0
C3 C 0.76747 0.66194 0.04995 0.0
C4 C 0.70337 0.74878 0.04911 0.0
C5 C 0.72884 0.94736 0.15032 0.0
C6 C 0.66678 0.02674 0.14655 0.0
C7 C 0.57802 0.90925 1.04137 0.0
C8 C 0.55348 0.71164 0.93791 0.0
C9 C 0.61561 0.63265 0.94158 0.0
C10 C 1.02081 0.92442 0.63325 0.0
C11 C 1.04248 0.54308 0.04479 0.0
C12 C 0.31993 0.235 1.03823 0.0
C13 C 0.38455 0.14825 1.03778 0.0
C14 C 0.38536 0.0425 0.8487 0.0
C15 C 0.44802 -0.03457 0.84982 0.0
C16 C 0.51137 -0.00799 1.03991 0.0
C17 C 0.5105 0.09851 0.22862 0.0
C18 C 0.44822 0.17679 0.22684 0.0
C19 C 0.06636 -0.02508 0.45417 0.0
O20 O 0.96967 0.17005 0.06871 0.0
O21 O 0.12223 0.36421 1.0108 0.0
O22 O 0.80026 0.68213 0.8567 0.0
O23 O 0.82864 0.70582 0.22529 0.0
O24 O 0.94626 0.74467 0.65998 0.0
O25 O 0.04443 0.04531 0.7995 0.0
O26 O 0.11782 0.72939 1.01836 0.0
O27 O 0.96535 0.53521 0.07697 0.0
O28 O 0.28701 0.21553 0.23132 0.0
O29 O 0.25906 0.19512 0.86264 0.0
O30 O 0.14095 0.15471 0.42765 0.0
O31 O 1.04311 0.85418 0.28799 0.0
H32 H 0.79673 0.04163 0.23169 0.0
H33 H 0.68884 0.18163 0.2238 0.0
H34 H 0.48584 0.61592 0.85641 0.0
H35 H 0.59499 0.48016 0.86064 0.0
H36 H 0.33796 0.01997 0.69892 0.0
H37 H 0.44747 0.88765 0.69994 0.0
H38 H 0.55741 0.12 0.37917 0.0
H39 H 0.45004 0.26039 0.37372 0.0
loop_
_geom_bond_atom_site_label_1
_geom_bond_atom_site_label_2
_geom_bond_distance
_geom_bond_site_symmetry_2
_ccdc_geom_bond_type
Ho0 C3 2.811 . S
Ho0 O20 2.322 1_565 S
Ho0 O22 2.378 . S
Ho0 O23 2.524 1_556 S
Ho0 O24 2.381 . S
Ho0 O25 2.669 1_665 S
Ho0 O27 2.346 . S
Ho0 O31 2.305 1_556 S
Ho1 C12 2.811 . S
Ho1 O21 2.346 . S
Ho1 O25 2.305 1_554 S
Ho1 O26 2.322 1_545 S
Ho1 O28 2.378 . S
Ho1 O29 2.524 1_554 S
Ho1 O30 2.381 . S
Ho1 O31 2.669 1_445 S
C2 O20 1.259 1_455 S
C2 O21 1.268 1_556 S
C3 Ho0 2.811 . S
C3 C4 1.488 . S
C3 O22 1.215 . S
C3 O23 1.289 1_556 S
C4 C3 1.488 . S
C4 C5 1.348 1_566 S
C4 C9 1.413 . S
C5 C4 1.348 1_544 S
C5 C6 1.442 . S
C5 H32 0.930 . S
C6 C5 1.442 . S
C6 C7 1.381 1_544 S
C6 H33 0.931 . S
C7 C6 1.381 1_566 S
C7 C8 1.321 . S
C8 C7 1.321 . S
C8 C9 1.403 . S
C8 H34 0.934 . S
C9 C4 1.413 . S
C9 C8 1.403 . S
C9 H35 0.930 . S
C10 O24 1.275 . S
C10 O25 1.256 1_665 S
C11 O26 1.259 1_655 S
C11 O27 1.268 1_554 S
C12 Ho1 2.811 . S
C12 C13 1.488 . S
C12 O28 1.215 . S
C12 O29 1.289 1_554 S
C13 C12 1.488 . S
C13 C14 1.348 1_544 S
C13 C18 1.413 . S
C14 C13 1.348 1_566 S
C14 C15 1.442 . S
C14 H36 0.930 . S
C15 C14 1.442 . S
C15 C16 1.381 1_566 S
C15 H37 0.931 . S
C16 C15 1.381 1_544 S
C16 C17 1.321 . S
C17 C16 1.321 . S
C17 C18 1.403 . S
C17 H38 0.934 . S
C18 C13 1.413 . S
C18 C17 1.403 . S
C18 H39 0.930 . S
C19 O30 1.275 . S
C19 O31 1.256 1_445 S
O20 Ho0 2.322 1_545 S
O20 C2 1.259 1_655 S
O21 Ho1 2.346 . S
O21 C2 1.268 1_554 S
O22 Ho0 2.378 . S
O22 C3 1.215 . S
O23 Ho0 2.524 1_554 S
O23 C3 1.289 1_554 S
O24 Ho0 2.381 . S
O24 C10 1.275 . S
O25 Ho0 2.669 1_445 S
O25 Ho1 2.305 1_556 S
O25 C10 1.256 1_445 S
O26 Ho1 2.322 1_565 S
O26 C11 1.259 1_455 S
O27 Ho0 2.346 . S
O27 C11 1.268 1_556 S
O28 Ho1 2.378 . S
O28 C12 1.215 . S
O29 Ho1 2.524 1_556 S
O29 C12 1.289 1_556 S
O30 Ho1 2.381 . S
O30 C19 1.275 . S
O31 Ho0 2.305 1_554 S
O31 Ho1 2.669 1_665 S
O31 C19 1.256 1_665 S
H32 C5 0.930 . S
H33 C6 0.931 . S
H34 C8 0.934 . S
H35 C9 0.930 . S
H36 C14 0.930 . S
H37 C15 0.931 . S
H38 C17 0.934 . S
H39 C18 0.930 . S
C19 C10 1.500 1_445 S
C16 C7 1.500 1_544 S
C11 C2 1.500 1_654 S
