# Generated by pormake.
# Topology pcu, (6)-cn, num edge types: 1
# Building blocks:
#     Node 0, Type 0, BuildingBlock: KUMJIN_clean_sbu_0, # of connection points: 6
#     Edge 1, Type (0, 0), BuildingBlock: CIFDUS_clean_linker_0, # of connection points: 2
#     Edge 2, Type (0, 0), BuildingBlock: CIFDUS_clean_linker_0, # of connection points: 2
#     Edge 3, Type (0, 0), BuildingBlock: CIFDUS_clean_linker_0, # of connection points: 2
# Relax obj value: 0.000
# Max RMSD: 0.000
# Mean RMSD: 0.000
data_MOF--net-pcu--node1-KUMJIN_clean_sbu_0--edge1-CIFDUS_clean_linker_0
_symmetry_space_group_name_H-M    P1
_symmetry_Int_Tables_number       1
_symmetry_cell_setting            triclinic
loop_
_symmetry_equiv_pos_as_xyz
'x, y, z'
_cell_length_a     11.918822
_cell_length_b     22.647058
_cell_length_c     13.399545
_cell_angle_alpha  114.96302
_cell_angle_beta   74.51719
_cell_angle_gamma 114.35611
loop_
_atom_site_label
_atom_site_type_symbol
_atom_site_fract_x
_atom_site_fract_y
_atom_site_fract_z
_atom_type_partial_charge
Eu0 Eu 0.12311 0.09029 0.05239 0.0
C1 C 0.75122 0.81296 0.76801 0.0
C2 C 0.55007 0.80615 0.8745 0.0
C3 C 0.5656 0.75455 0.67354 0.0
C4 C 0.68023 0.8286 0.86908 0.0
C5 C 0.69467 0.77463 0.66908 0.0
C6 C 0.4934 0.77028 0.77611 0.0
C7 C 0.89637 0.7747 0.56964 0.0
N8 N 0.87541 0.83296 0.76675 0.0
C9 C 0.94799 0.81245 0.67004 0.0
C10 C 0.76932 0.7564 0.56895 0.0
Eu11 Eu 0.95772 0.90085 0.93865 0.0
N12 N 0.73803 0.86341 0.96243 0.0
C13 C 0.67034 0.87307 0.06423 0.0
C14 C 0.48067 0.81919 0.97868 0.0
C15 C 0.54105 0.85197 0.07394 0.0
H16 H 0.04643 0.82704 0.67005 0.0
H17 H 0.48816 0.86137 0.15494 0.0
H18 H 0.39367 0.75327 0.77857 0.0
H19 H 0.95462 0.75996 0.49289 0.0
H20 H 0.71558 0.89875 0.13864 0.0
H21 H 0.59265 0.12996 0.83601 0.0
H22 H 0.38054 0.80301 0.98641 0.0
H23 H 1.03441 0.16397 0.32106 0.0
H24 H 0.36522 0.0925 0.85236 0.0
H25 H 0.12627 0.23102 0.4982 0.0
H26 H 0.52051 0.72562 0.59838 0.0
H27 H 0.70031 0.1883 0.00451 0.0
H28 H 0.68723 0.23797 0.21235 0.0
H29 H 0.72952 0.7271 0.4911 0.0
H30 H 0.56041 0.26553 0.39258 0.0
N31 N 0.3428 0.12779 0.02858 0.0
C32 C 0.41048 0.11818 0.92676 0.0
C33 C 0.60019 0.17209 0.01227 0.0
C34 C 0.5308 0.18509 0.11646 0.0
C35 C 0.53978 0.13932 0.91703 0.0
C36 C 0.40063 0.16258 0.1219 0.0
H37 H 0.3514 0.26394 0.49992 0.0
N38 N 0.20545 0.15813 0.2243 0.0
C39 C 0.18451 0.21631 0.42142 0.0
C40 C 0.32965 0.17816 0.223 0.0
C41 C 0.13287 0.17859 0.32103 0.0
C42 C 0.31158 0.23465 0.42207 0.0
C43 C 0.38622 0.21648 0.32192 0.0
O44 O 0.05052 0.17421 0.10461 0.0
O45 O 0.94503 0.006 0.00082 0.0
O46 O 0.96849 0.94563 0.81276 0.0
O47 O 0.14041 0.04644 0.86257 0.0
O48 O 0.93157 0.08822 0.14408 0.0
O49 O 0.18755 0.1606 0.96088 0.0
O50 O 1.03026 0.81692 0.88654 0.0
O51 O 0.13565 0.98513 0.99006 0.0
O52 O 0.11248 0.04545 0.17816 0.0
O53 O 0.94043 0.94472 0.12846 0.0
O54 O 0.14936 0.9029 0.84708 0.0
O55 O 0.89321 0.83058 0.03024 0.0
C56 C 0.86886 0.03053 0.07525 0.0
C57 C 0.17547 0.27304 0.05836 0.0
C58 C 0.16525 0.38113 0.06952 0.0
C59 C 0.11568 0.30862 0.03945 0.0
C60 C 0.27668 0.41752 0.11859 0.0
C61 C 0.28592 0.3099 0.10791 0.0
C62 C 0.3363 0.38198 0.13768 0.0
C63 C 0.05922 -0.00106 0.79174 0.0
C64 C 0.11894 0.19758 0.02649 0.0
C65 C 0.5153 0.23661 0.31742 0.0
C66 C 0.5875 0.22094 0.21484 0.0
C67 C 0.212 0.96066 0.91582 0.0
C68 C 0.90524 0.71812 0.93284 0.0
C69 C 0.96502 0.68253 0.95175 0.0
C70 C 0.91544 0.61002 0.92169 0.0
C71 C 0.804 0.57364 0.87263 0.0
C72 C 0.79479 0.68126 0.88329 0.0
C73 C 0.74439 0.60918 0.85354 0.0
C74 C 1.02172 0.99217 0.19923 0.0
C75 C 0.9618 0.79358 0.96467 0.0
H76 H 1.03087 0.27948 6e-05 0.0
H77 H 0.31677 0.47344 0.14365 0.0
H78 H 0.33271 0.28306 0.12352 0.0
H79 H 0.42156 0.41046 0.17606 0.0
H80 H 0.04984 0.71167 0.99113 0.0
H81 H 0.7639 0.51771 0.84757 0.0
H82 H 0.748 0.7081 0.86768 0.0
H83 H 0.65913 0.5807 0.81516 0.0
H84 H 0.18431 0.06678 0.3547 0.0
H85 H 0.83306 0.90079 0.28611 0.0
H86 H 0.81472 0.88784 0.46208 0.0
H87 H 0.89668 0.9243 0.63623 0.0
H88 H 0.24791 0.09031 0.70485 0.0
H89 H 0.26627 0.10325 0.52886 0.0
C90 C 0.10301 0.02821 0.37847 0.0
C91 C 1.00977 0.98531 0.30725 0.0
C92 C 0.09278 0.021 0.47998 0.0
C93 C 0.90625 0.93477 0.33907 0.0
C94 C 0.89553 0.92726 0.43987 0.0
C95 C 0.97798 0.96287 0.61247 0.0
C96 C 0.0712 0.00579 0.6837 0.0
C97 C 0.98821 0.97008 0.51096 0.0
C98 C 0.17472 0.05633 0.65188 0.0
C99 C 0.18546 0.06382 0.55107 0.0
H100 H 0.31691 0.0122 0.10743 0.0
H101 H 0.3934 0.93328 0.75188 0.0
H102 H 0.60197 0.94491 0.7681 0.0
H103 H 0.76394 0.97908 0.88372 0.0
H104 H 0.68753 0.05805 0.23928 0.0
H105 H 0.47895 0.04644 0.22307 0.0
C106 C 0.37997 -0.00126 0.03364 0.0
C107 C 0.34094 0.97367 0.92851 0.0
C108 C 0.4997 0.00531 0.04369 0.0
C109 C 0.4223 0.95397 0.83365 0.0
C110 C 0.5414 0.96047 0.84289 0.0
C111 C 0.7009 0.99257 0.95753 0.0
C112 C 0.73995 0.01763 0.06265 0.0
C113 C 0.5812 0.98602 0.94748 0.0
C114 C 0.65862 0.03736 0.15751 0.0
C115 C 0.53951 0.03087 0.14829 0.0
H116 H 0.81323 0.5043 0.00174 0.0
H117 H 0.16425 0.63293 0.88741 0.0
H118 H 0.27239 0.57502 0.92562 0.0
H119 H 0.26745 0.48685 0.98946 0.0
H120 H 0.91643 0.35822 0.10379 0.0
H121 H 0.80829 0.41612 0.06558 0.0
C122 C 0.91326 0.51915 0.98408 0.0
C123 C 0.98032 0.57297 0.94193 0.0
C124 C 0.97502 0.4855 0.00598 0.0
C125 C 0.11026 0.59227 0.92114 0.0
C126 C 0.17227 0.55897 0.94251 0.0
C127 C 0.16743 0.47199 0.00712 0.0
C128 C 0.10036 0.41818 0.04928 0.0
C129 C 0.10566 0.50565 0.98522 0.0
C130 C 0.97042 0.39888 0.07006 0.0
C131 C 0.90842 0.43217 0.04869 0.0
loop_
_geom_bond_atom_site_label_1
_geom_bond_atom_site_label_2
_geom_bond_distance
_geom_bond_site_symmetry_2
_ccdc_geom_bond_type
Eu0 N31 2.657 1_554 S
Eu0 N38 2.609 . S
Eu0 O44 2.558 . S
Eu0 O45 2.612 1_444 S
Eu0 O47 2.339 1_554 S
Eu0 O48 2.563 1_455 S
Eu0 O49 2.419 . S
Eu0 O51 2.380 . S
Eu0 O52 2.432 1_455 S
Eu0 C64 2.848 . S
C1 C4 1.429 . S
C1 C5 1.411 . S
C1 N8 1.377 . S
C2 C4 1.420 . S
C2 C6 1.423 . S
C2 C14 1.392 1_556 S
C3 C5 1.420 . S
C3 C6 1.351 . S
C3 H26 0.931 . S
C4 C1 1.429 . S
C4 C2 1.420 . S
C4 N12 1.362 1_556 S
C5 C1 1.411 . S
C5 C3 1.420 . S
C5 C10 1.395 . S
C6 C2 1.423 . S
C6 C3 1.351 . S
C6 H18 0.930 . S
C7 C9 1.400 . S
C7 C10 1.386 . S
C7 H19 0.930 . S
N8 C1 1.377 . S
N8 C9 1.321 . S
N8 Eu11 2.609 . S
C9 C7 1.400 . S
C9 N8 1.321 . S
C9 H16 0.930 . S
C10 C5 1.395 . S
C10 C7 1.386 . S
C10 H29 0.930 . S
Eu11 N8 2.609 . S
Eu11 N12 2.657 1_556 S
Eu11 O45 2.380 . S
Eu11 O46 2.432 1_655 S
Eu11 O50 2.558 . S
Eu11 O51 2.612 1_666 S
Eu11 O53 2.339 1_556 S
Eu11 O54 2.563 1_655 S
Eu11 O55 2.419 . S
Eu11 C75 2.848 . S
N12 C4 1.362 1_554 S
N12 Eu11 2.657 1_554 S
N12 C13 1.334 . S
C13 N12 1.334 . S
C13 C15 1.413 . S
C13 H20 0.929 . S
C14 C2 1.392 1_554 S
C14 C15 1.367 . S
C14 H22 0.930 . S
C15 C13 1.413 . S
C15 C14 1.367 . S
C15 H17 0.930 . S
H16 C9 0.930 . S
H17 C15 0.930 . S
H18 C6 0.930 . S
H19 C7 0.930 . S
H20 C13 0.929 . S
H21 C35 0.930 . S
H22 C14 0.930 . S
H23 C41 0.930 . S
H24 C32 0.929 . S
H25 C39 0.930 . S
H26 C3 0.931 . S
H27 C33 0.930 . S
H28 C66 0.930 . S
H29 C10 0.930 . S
H30 C65 0.931 . S
N31 Eu0 2.657 1_556 S
N31 C32 1.334 . S
N31 C36 1.362 1_556 S
C32 H24 0.929 . S
C32 N31 1.334 . S
C32 C35 1.413 . S
C33 H27 0.930 . S
C33 C34 1.392 1_556 S
C33 C35 1.367 . S
C34 C33 1.392 1_554 S
C34 C36 1.420 . S
C34 C66 1.423 . S
C35 H21 0.930 . S
C35 C32 1.413 . S
C35 C33 1.367 . S
C36 N31 1.362 1_554 S
C36 C34 1.420 . S
C36 C40 1.429 . S
H37 C42 0.930 . S
N38 Eu0 2.609 . S
N38 C40 1.377 . S
N38 C41 1.321 . S
C39 H25 0.930 . S
C39 C41 1.400 . S
C39 C42 1.386 . S
C40 C36 1.429 . S
C40 N38 1.377 . S
C40 C43 1.411 . S
C41 H23 0.930 . S
C41 N38 1.321 . S
C41 C39 1.400 . S
C42 H37 0.930 . S
C42 C39 1.386 . S
C42 C43 1.395 . S
C43 C40 1.411 . S
C43 C42 1.395 . S
C43 C65 1.420 . S
O44 Eu0 2.558 . S
O44 C64 1.257 . S
O45 Eu0 2.612 1_666 S
O45 Eu11 2.380 . S
O45 C56 1.276 1_566 S
O46 Eu11 2.432 1_455 S
O46 C63 1.264 . S
O47 Eu0 2.339 1_556 S
O47 C63 1.254 1_545 S
O48 Eu0 2.563 1_655 S
O48 C56 1.235 . S
O49 Eu0 2.419 . S
O49 C64 1.249 . S
O50 Eu11 2.558 . S
O50 C75 1.257 . S
O51 Eu0 2.380 . S
O51 Eu11 2.612 1_444 S
O51 C67 1.276 1_544 S
O52 Eu0 2.432 1_655 S
O52 C74 1.264 . S
O53 Eu11 2.339 1_554 S
O53 C74 1.254 1_565 S
O54 Eu11 2.563 1_455 S
O54 C67 1.235 . S
O55 Eu11 2.419 . S
O55 C75 1.249 . S
C56 O45 1.276 1_544 S
C56 O48 1.235 . S
C57 C59 1.393 . S
C57 C61 1.395 . S
C57 C64 1.492 . S
C58 C59 1.392 . S
C58 C60 1.386 . S
C59 C57 1.393 . S
C59 C58 1.392 . S
C59 H76 0.930 1_554 S
C60 C58 1.386 . S
C60 C62 1.395 . S
C60 H77 0.930 . S
C61 C57 1.395 . S
C61 C62 1.379 . S
C61 H78 0.930 . S
C62 C60 1.395 . S
C62 C61 1.379 . S
C62 H79 0.930 . S
C63 O46 1.264 . S
C63 O47 1.254 1_565 S
C64 Eu0 2.848 . S
C64 O44 1.257 . S
C64 O49 1.249 . S
C64 C57 1.492 . S
C65 H30 0.931 . S
C65 C43 1.420 . S
C65 C66 1.351 . S
C66 H28 0.930 . S
C66 C34 1.423 . S
C66 C65 1.351 . S
C67 O51 1.276 1_566 S
C67 O54 1.235 . S
C68 C69 1.393 . S
C68 C72 1.395 . S
C68 C75 1.492 . S
C69 C68 1.393 . S
C69 C70 1.392 . S
C69 H80 0.930 1_556 S
C70 C69 1.392 . S
C70 C71 1.386 . S
C71 C70 1.386 . S
C71 C73 1.395 . S
C71 H81 0.930 . S
C72 C68 1.395 . S
C72 C73 1.379 . S
C72 H82 0.930 . S
C73 C71 1.395 . S
C73 C72 1.379 . S
C73 H83 0.930 . S
C74 O52 1.264 . S
C74 O53 1.254 1_545 S
C75 Eu11 2.848 . S
C75 O50 1.257 . S
C75 O55 1.249 . S
C75 C68 1.492 . S
H76 C59 0.930 1_556 S
H77 C60 0.930 . S
H78 C61 0.930 . S
H79 C62 0.930 . S
H80 C69 0.930 1_554 S
H81 C71 0.930 . S
H82 C72 0.930 . S
H83 C73 0.930 . S
H84 C90 0.930 . S
H85 C93 0.930 . S
H86 C94 0.930 . S
H87 C95 0.930 . S
H88 C98 0.930 . S
H89 C99 0.930 . S
C90 H84 0.930 . S
C90 C91 1.353 1_645 S
C90 C92 1.415 . S
C91 C90 1.353 1_465 S
C91 C93 1.423 . S
C92 C90 1.415 . S
C92 C97 1.425 1_645 S
C92 C99 1.409 . S
C93 H85 0.930 . S
C93 C91 1.423 . S
C93 C94 1.362 . S
C94 H86 0.930 . S
C94 C93 1.362 . S
C94 C97 1.409 . S
C95 H87 0.930 . S
C95 C96 1.352 1_465 S
C95 C97 1.415 . S
C96 C95 1.352 1_645 S
C96 C98 1.427 . S
C97 C92 1.425 1_465 S
C97 C94 1.409 . S
C97 C95 1.415 . S
C98 H88 0.930 . S
C98 C96 1.427 . S
C98 C99 1.362 . S
C99 H89 0.930 . S
C99 C92 1.409 . S
C99 C98 1.362 . S
H100 C106 0.930 . S
H101 C109 0.930 . S
H102 C110 0.930 . S
H103 C111 0.930 . S
H104 C114 0.930 . S
H105 C115 0.930 . S
C106 H100 0.930 . S
C106 C107 1.355 1_564 S
C106 C108 1.415 . S
C107 C106 1.355 1_546 S
C107 C109 1.419 . S
C108 C106 1.415 . S
C108 C113 1.425 1_564 S
C108 C115 1.409 . S
C109 H101 0.930 . S
C109 C107 1.419 . S
C109 C110 1.362 . S
C110 H102 0.930 . S
C110 C109 1.362 . S
C110 C113 1.409 . S
C111 H103 0.930 . S
C111 C112 1.355 1_546 S
C111 C113 1.415 . S
C112 C111 1.355 1_564 S
C112 C114 1.419 . S
C113 C108 1.425 1_546 S
C113 C110 1.409 . S
C113 C111 1.415 . S
C114 H104 0.930 . S
C114 C112 1.419 . S
C114 C115 1.362 . S
C115 H105 0.930 . S
C115 C108 1.409 . S
C115 C114 1.362 . S
H116 C122 0.930 . S
H117 C125 0.930 . S
H118 C126 0.930 . S
H119 C127 0.930 . S
H120 C130 0.930 . S
H121 C131 0.930 . S
C122 H116 0.930 . S
C122 C123 1.355 1_654 S
C122 C124 1.415 . S
C123 C122 1.355 1_456 S
C123 C125 1.419 . S
C124 C122 1.415 . S
C124 C129 1.425 1_654 S
C124 C131 1.409 . S
C125 H117 0.930 . S
C125 C123 1.419 . S
C125 C126 1.362 . S
C126 H118 0.930 . S
C126 C125 1.362 . S
C126 C129 1.409 . S
C127 H119 0.930 . S
C127 C128 1.355 1_456 S
C127 C129 1.415 . S
C128 C127 1.355 1_654 S
C128 C130 1.419 . S
C129 C124 1.425 1_456 S
C129 C126 1.409 . S
C129 C127 1.415 . S
C130 H120 0.930 . S
C130 C128 1.419 . S
C130 C131 1.362 . S
C131 H121 0.930 . S
C131 C124 1.409 . S
C131 C130 1.362 . S
C91 C74 1.489 1_465 S
C96 C63 1.487 1_645 S
C107 C67 1.455 1_545 S
C112 C56 1.455 1_565 S
C123 C70 1.319 1_455 S
C128 C58 1.319 1_655 S
