# Generated by pormake.
# Topology snp, (6)-cn, num edge types: 1
# Building blocks:
#     Node 0, Type 0, BuildingBlock: MIFKUJ_clean_sbu_0, # of connection points: 6
#     Node 1, Type 0, BuildingBlock: MIFKUJ_clean_sbu_0, # of connection points: 6
#     Node 2, Type 0, BuildingBlock: MIFKUJ_clean_sbu_0, # of connection points: 6
#     Node 3, Type 0, BuildingBlock: MIFKUJ_clean_sbu_0, # of connection points: 6
#     Edge 4, Type (0, 0), BuildingBlock: AJUNOK_clean_linker_0, # of connection points: 2
#     Edge 5, Type (0, 0), BuildingBlock: AJUNOK_clean_linker_0, # of connection points: 2
#     Edge 6, Type (0, 0), BuildingBlock: AJUNOK_clean_linker_0, # of connection points: 2
#     Edge 7, Type (0, 0), BuildingBlock: AJUNOK_clean_linker_0, # of connection points: 2
#     Edge 8, Type (0, 0), BuildingBlock: AJUNOK_clean_linker_0, # of connection points: 2
#     Edge 9, Type (0, 0), BuildingBlock: AJUNOK_clean_linker_0, # of connection points: 2
#     Edge 10, Type (0, 0), BuildingBlock: AJUNOK_clean_linker_0, # of connection points: 2
#     Edge 11, Type (0, 0), BuildingBlock: AJUNOK_clean_linker_0, # of connection points: 2
#     Edge 12, Type (0, 0), BuildingBlock: AJUNOK_clean_linker_0, # of connection points: 2
#     Edge 13, Type (0, 0), BuildingBlock: AJUNOK_clean_linker_0, # of connection points: 2
#     Edge 14, Type (0, 0), BuildingBlock: AJUNOK_clean_linker_0, # of connection points: 2
#     Edge 15, Type (0, 0), BuildingBlock: AJUNOK_clean_linker_0, # of connection points: 2
# Relax obj value: 0.271
# Max RMSD: 0.230
# Mean RMSD: 0.230
data_MOF--net-snp--node1-MIFKUJ_clean_sbu_0--edge1-AJUNOK_clean_linker_0
_symmetry_space_group_name_H-M    P1
_symmetry_Int_Tables_number       1
_symmetry_cell_setting            triclinic
loop_
_symmetry_equiv_pos_as_xyz
'x, y, z'
_cell_length_a     17.399916
_cell_length_b     17.170961
_cell_length_c     24.502907
_cell_angle_alpha  90.203248
_cell_angle_beta   88.276235
_cell_angle_gamma 90.166027
loop_
_atom_site_label
_atom_site_type_symbol
_atom_site_fract_x
_atom_site_fract_y
_atom_site_fract_z
_atom_type_partial_charge
Zn0 Zn 0.29702 0.97003 0.07735 0.0
Zn1 Zn 0.31807 0.94253 0.90469 0.0
C2 C 0.3103 0.86651 0.16919 0.0
O3 O 0.36218 0.9165 0.18525 0.0
C4 C 0.34214 0.06846 0.82677 0.0
O5 O 0.41387 0.04489 0.82318 0.0
O6 O 0.30328 0.06037 0.12946 0.0
O7 O 0.38494 0.97689 0.01866 0.0
O8 O 0.42388 0.95604 0.93253 0.0
C9 C 0.36166 0.09165 0.15052 0.0
O10 O 0.43053 0.064 0.13909 0.0
O11 O 0.28653 0.87115 0.1208 0.0
C12 C 0.23219 0.84829 0.83891 0.0
O13 O 0.18292 0.90076 0.85707 0.0
O14 O 0.30031 0.84952 0.85616 0.0
O15 O 0.25472 0.94631 0.97171 0.0
O16 O 0.19342 0.98512 0.04388 0.0
O17 O 0.29492 0.03507 0.85971 0.0
C18 C 0.4373 0.9793 0.98097 0.0
C19 C 0.19429 0.97553 0.99277 0.0
Zn20 Zn 0.16635 0.34282 0.57329 0.0
Zn21 Zn 0.15955 0.36564 0.39906 0.0
C22 C 0.20955 0.26089 0.65991 0.0
O23 O 0.13624 0.24798 0.65208 0.0
C24 C 0.04206 0.42949 0.3294 0.0
O25 O 0.08909 0.48919 0.32453 0.0
O26 O 0.0752 0.38679 0.61635 0.0
O27 O 0.20385 0.40191 0.5079 0.0
O28 O 0.18697 0.46846 0.43447 0.0
C29 C 0.08962 0.42785 0.65798 0.0
O30 O 0.1575 0.46122 0.66013 0.0
O31 O 0.24502 0.30813 0.62798 0.0
C32 C 0.28471 0.28079 0.33943 0.0
O33 O 0.30419 0.25097 0.38632 0.0
O34 O 0.23205 0.33167 0.33862 0.0
O35 O 0.13776 0.28187 0.455 0.0
O36 O 0.13075 0.24311 0.54054 0.0
O37 O 0.0584 0.37486 0.36178 0.0
C38 C 0.18347 0.46516 0.4862 0.0
C39 C 0.12395 0.229 0.49001 0.0
Zn40 Zn 0.84022 0.17539 0.07991 0.0
Zn41 Zn 0.83081 0.20476 0.90634 0.0
C42 C 0.90186 0.26981 0.15815 0.0
O43 O 0.94573 0.20772 0.15715 0.0
C44 C 0.79083 0.06683 0.84247 0.0
O45 O 0.72087 0.07419 0.86341 0.0
O46 O 0.82243 0.0862 0.13244 0.0
O47 O 0.75552 0.17523 0.02229 0.0
O48 O 0.72332 0.2021 0.93728 0.0
C49 C 0.7801 0.09512 0.17515 0.0
O50 O 0.74322 0.16116 0.18247 0.0
O51 O 0.84641 0.27389 0.12565 0.0
C52 C 0.93186 0.28731 0.84262 0.0
O53 O 0.96926 0.22575 0.85904 0.0
O54 O 0.86307 0.29744 0.86016 0.0
O55 O 0.89064 0.19125 0.97188 0.0
O56 O 0.94574 0.15608 0.04497 0.0
O57 O 0.84396 0.1126 0.85708 0.0
C58 C 0.70549 0.17686 0.98513 0.0
C59 C 0.94923 0.16353 0.99366 0.0
Zn60 Zn 0.96887 0.81447 0.58324 0.0
Zn61 Zn 0.95378 0.79688 0.40762 0.0
C62 C 0.87811 0.83102 0.68446 0.0
O63 O 0.92503 0.77954 0.70444 0.0
C64 C 0.09263 0.75689 0.3359 0.0
O65 O 0.09393 0.68518 0.35436 0.0
O66 O 0.06282 0.78814 0.62515 0.0
O67 O 0.94321 0.75104 0.51754 0.0
O68 O 0.94699 0.6877 0.44102 0.0
C69 C 0.08019 0.73024 0.65433 0.0
O70 O 0.03435 0.66931 0.65633 0.0
O71 O 0.88031 0.84443 0.63351 0.0
C72 C 0.86945 0.90625 0.35405 0.0
O73 O 0.92249 0.94684 0.37845 0.0
O74 O 0.86485 0.83336 0.36289 0.0
O75 O 0.97857 0.87472 0.467 0.0
O76 O -0.00447 0.91739 0.55035 0.0
O77 O 0.04247 0.80435 0.35442 0.0
C78 C 0.95595 0.68769 0.4924 0.0
C79 C -0.00434 0.92957 0.49929 0.0
C80 C 0.08358 0.15017 0.95993 0.0
C81 C 0.00866 0.11966 0.9631 0.0
C82 C 0.14748 0.10043 0.95869 0.0
C83 C 0.13778 0.01917 0.96184 0.0
H84 H 0.09292 0.21214 0.96518 0.0
H85 H 0.20407 0.12581 0.96314 0.0
S86 S 0.95336 0.91169 0.95896 0.0
N87 N 0.92831 0.0044 0.95878 0.0
N88 N 0.04835 0.91082 0.95873 0.0
C89 C 0.06353 -0.01155 0.95728 0.0
C90 C -0.00132 0.03901 0.95738 0.0
C91 C 0.97774 0.07122 0.50083 0.0
C92 C 0.01794 0.00682 0.47947 0.0
C93 C 0.01003 0.14556 0.49842 0.0
C94 C 0.08375 0.15749 0.47512 0.0
H95 H 0.92366 0.06315 0.52324 0.0
H96 H 0.97981 0.19303 0.51887 0.0
S97 S 0.20815 0.00898 0.40766 0.0
N98 N 0.13103 0.96008 0.42902 0.0
N99 N 0.19293 0.10086 0.42531 0.0
C100 C 0.12173 0.0949 0.44924 0.0
C101 C 0.08831 0.01892 0.45124 0.0
C102 C 0.57786 0.14059 0.9507 0.0
C103 C 0.63118 0.13516 0.99248 0.0
C104 C 0.51587 0.08951 0.9481 0.0
C105 C 0.50356 0.03131 0.98745 0.0
H106 H 0.58561 0.18264 0.91812 0.0
H107 H 0.47725 0.09559 0.91456 0.0
S108 S 0.61995 -0.0033 0.10889 0.0
N109 N 0.66363 0.06991 0.07704 0.0
N110 N 0.54497 0.97423 0.07205 0.0
C111 C 0.55285 0.02771 0.03154 0.0
C112 C 0.61711 0.0797 0.03412 0.0
C113 C 0.14261 0.59373 0.52131 0.0
C114 C 0.12508 0.51492 0.51264 0.0
C115 C 0.08439 0.65001 0.52258 0.0
C116 C 0.00747 0.62886 0.51431 0.0
H117 H 0.20201 0.61284 0.52138 0.0
H118 H 0.10079 0.71093 0.52369 0.0
S119 S 0.93128 0.42909 0.49797 0.0
N120 N 0.02505 0.41749 0.50261 0.0
N121 N 0.91572 0.52367 0.50413 0.0
C122 C -0.01143 0.54969 0.51123 0.0
C123 C 0.04757 0.4924 0.51069 0.0
C124 C 0.37822 0.19814 0.28524 0.0
C125 C 0.31131 0.24407 0.28734 0.0
C126 C 0.39748 0.1529 0.23899 0.0
C127 C 0.34953 0.15081 0.19381 0.0
H128 H 0.41457 0.19499 0.32029 0.0
H129 H 0.44772 0.11587 0.24002 0.0
S130 S 0.1724 0.26658 0.17599 0.0
N131 N 0.201 0.29009 0.23751 0.0
N132 N 0.23647 0.20379 0.15164 0.0
C133 C 0.28501 0.19979 0.19404 0.0
C134 C 0.2661 0.24681 0.24053 0.0
C135 C 0.96669 0.39755 0.71013 0.0
C136 C 0.04697 0.4088 0.70947 0.0
C137 C 0.92789 0.36377 0.7555 0.0
C138 C 0.96868 0.3381 0.80079 0.0
H139 H 0.93427 0.41197 0.67449 0.0
H140 H 0.86667 0.35293 0.7535 0.0
S141 S 0.17866 0.35454 0.81951 0.0
N142 N 0.16492 0.39375 0.75922 0.0
N143 N 0.09261 0.32832 0.84296 0.0
C144 C 0.04825 0.35138 0.80125 0.0
C145 C 0.08729 0.38728 0.75598 0.0
C146 C 0.80325 0.02188 0.31854 0.0
C147 C 0.82717 0.94454 0.31043 0.0
C148 C 0.78185 0.06822 0.27472 0.0
C149 C 0.78591 0.03964 0.22088 0.0
H150 H 0.80504 0.04813 0.35878 0.0
H151 H 0.76735 0.1285 0.28284 0.0
S152 S 0.83665 0.83819 0.17851 0.0
N153 N 0.84624 0.83862 0.24541 0.0
N154 N 0.8083 0.92672 0.16239 0.0
C155 C 0.80503 0.96083 0.21253 0.0
C156 C 0.82506 0.91294 0.25752 0.0
C157 C 0.12417 0.71043 0.74939 0.0
C158 C 0.1367 0.74381 0.69744 0.0
C159 C 0.16077 0.74039 0.79529 0.0
C160 C 0.2126 0.80291 0.79035 0.0
H161 H 0.08079 0.66572 0.75564 0.0
H162 H 0.1447 0.7179 0.83529 0.0
S163 S 0.27349 0.90386 0.66288 0.0
N164 N 0.211 0.83761 0.64319 0.0
N165 N 0.2802 0.8927 0.7295 0.0
C166 C 0.23087 0.83215 0.7382 0.0
C167 C 0.19305 0.80256 0.69161 0.0
C168 C 0.77484 0.93382 0.80233 0.0
C169 C 0.80772 0.00871 0.79957 0.0
C170 C 0.79621 0.87608 0.76406 0.0
C171 C 0.84871 0.8928 0.721 0.0
H172 H 0.73483 0.91894 0.83543 0.0
H173 H 0.77243 0.818 0.7685 0.0
S174 S 0.94697 0.08142 0.69389 0.0
N175 N 0.89299 0.09725 0.74936 0.0
N176 N 0.93123 -0.01023 0.67677 0.0
C177 C 0.87947 0.96834 0.71667 0.0
C178 C 0.85932 0.02619 0.75614 0.0
C179 C 0.26944 0.76867 0.24036 0.0
C180 C 0.25524 0.8366 0.21067 0.0
C181 C 0.21603 0.74209 0.28044 0.0
C182 C 0.14768 0.78355 0.29246 0.0
H183 H 0.32181 0.73602 0.23252 0.0
H184 H 0.22889 0.68951 0.30264 0.0
S185 S 0.08554 0.9658 0.22509 0.0
N186 N 0.1693 0.94481 0.19533 0.0
N187 N 0.06927 0.89608 0.27016 0.0
C188 C 0.1335 0.85184 0.2626 0.0
C189 C 0.1873 0.87811 0.22185 0.0
C190 C 0.20274 0.16176 0.7329 0.0
C191 C 0.24728 0.21707 0.70368 0.0
C192 C 0.2341 0.11592 0.77316 0.0
C193 C 0.31174 0.12271 0.78623 0.0
H194 H 0.1427 0.15244 0.72434 0.0
H195 H 0.19708 0.07321 0.79321 0.0
S196 S 0.45284 0.26243 0.72568 0.0
N197 N 0.37282 0.27931 0.69302 0.0
N198 N 0.43243 0.19155 0.76926 0.0
C199 C 0.35731 0.17866 0.75852 0.0
C200 C 0.32492 0.2263 0.71721 0.0
C201 C -0.01835 0.38031 0.18792 0.0
C202 C 0.91805 0.33143 0.1979 0.0
C203 C 0.01616 0.42035 0.23073 0.0
C204 C -0.01056 0.41078 0.28505 0.0
H205 H 0.0087 0.38261 0.14754 0.0
H206 H 0.06877 0.45237 0.22179 0.0
S207 S 0.81712 0.29869 0.33103 0.0
N208 N 0.82316 0.28384 0.26435 0.0
N209 N 0.88963 0.35689 0.3455 0.0
C210 C 0.92182 0.36738 0.29483 0.0
C211 C 0.88577 0.32801 0.25098 0.0
loop_
_geom_bond_atom_site_label_1
_geom_bond_atom_site_label_2
_geom_bond_distance
_geom_bond_site_symmetry_2
_ccdc_geom_bond_type
Zn0 O6 1.969 . S
Zn0 O7 1.965 . S
Zn0 O11 2.024 1_545 S
Zn0 O16 1.969 . S
Zn1 O8 1.969 . S
Zn1 O14 1.969 . S
Zn1 O15 1.965 . S
Zn1 O17 2.024 1_565 S
C2 O3 1.229 . S
C2 O11 1.058 . S
O3 C2 1.229 . S
C4 O5 1.229 . S
C4 O17 1.058 . S
O5 C4 1.229 . S
O6 Zn0 1.969 . S
O6 C9 1.267 . S
O7 Zn0 1.965 . S
O7 C18 1.260 1_554 S
O8 Zn1 1.969 . S
O8 C18 1.258 1_565 S
C9 O6 1.267 . S
C9 O10 1.228 . S
O10 C9 1.228 . S
O11 Zn0 2.024 1_565 S
O11 C2 1.058 . S
C12 O13 1.228 . S
C12 O14 1.267 . S
O13 C12 1.228 . S
O14 Zn1 1.969 . S
O14 C12 1.267 . S
O15 Zn1 1.965 . S
O15 C19 1.260 1_566 S
O16 Zn0 1.969 . S
O16 C19 1.258 . S
O17 Zn1 2.024 1_545 S
O17 C4 1.058 . S
C18 O7 1.260 1_556 S
C18 O8 1.258 1_545 S
C19 O15 1.260 1_544 S
C19 O16 1.258 . S
Zn20 O26 1.969 . S
Zn20 O27 1.965 . S
Zn20 O31 2.024 . S
Zn20 O36 1.969 . S
Zn21 O28 1.969 . S
Zn21 O34 1.969 . S
Zn21 O35 1.965 . S
Zn21 O37 2.024 . S
C22 O23 1.229 . S
C22 O31 1.058 . S
O23 C22 1.229 . S
C24 O25 1.229 . S
C24 O37 1.058 . S
O25 C24 1.229 . S
O26 Zn20 1.969 . S
O26 C29 1.267 . S
O27 Zn20 1.965 . S
O27 C38 1.260 . S
O28 Zn21 1.969 . S
O28 C38 1.258 . S
C29 O26 1.267 . S
C29 O30 1.228 . S
O30 C29 1.228 . S
O31 Zn20 2.024 . S
O31 C22 1.058 . S
C32 O33 1.228 . S
C32 O34 1.267 . S
O33 C32 1.228 . S
O34 Zn21 1.969 . S
O34 C32 1.267 . S
O35 Zn21 1.965 . S
O35 C39 1.260 . S
O36 Zn20 1.969 . S
O36 C39 1.258 . S
O37 Zn21 2.024 . S
O37 C24 1.058 . S
C38 O27 1.260 . S
C38 O28 1.258 . S
C39 O35 1.260 . S
C39 O36 1.258 . S
Zn40 O46 1.969 . S
Zn40 O47 1.965 . S
Zn40 O51 2.024 . S
Zn40 O56 1.969 . S
Zn41 O48 1.969 . S
Zn41 O54 1.969 . S
Zn41 O55 1.965 . S
Zn41 O57 2.024 . S
C42 O43 1.229 . S
C42 O51 1.058 . S
O43 C42 1.229 . S
C44 O45 1.229 . S
C44 O57 1.058 . S
O45 C44 1.229 . S
O46 Zn40 1.969 . S
O46 C49 1.267 . S
O47 Zn40 1.965 . S
O47 C58 1.260 1_554 S
O48 Zn41 1.969 . S
O48 C58 1.258 . S
C49 O46 1.267 . S
C49 O50 1.228 . S
O50 C49 1.228 . S
O51 Zn40 2.024 . S
O51 C42 1.058 . S
C52 O53 1.228 . S
C52 O54 1.267 . S
O53 C52 1.228 . S
O54 Zn41 1.969 . S
O54 C52 1.267 . S
O55 Zn41 1.965 . S
O55 C59 1.260 1_556 S
O56 Zn40 1.969 . S
O56 C59 1.258 . S
O57 Zn41 2.024 . S
O57 C44 1.058 . S
C58 O47 1.260 1_556 S
C58 O48 1.258 . S
C59 O55 1.260 1_554 S
C59 O56 1.258 . S
Zn60 O66 1.969 . S
Zn60 O67 1.965 . S
Zn60 O71 2.024 1_455 S
Zn60 O76 1.969 . S
Zn61 O68 1.969 . S
Zn61 O74 1.969 . S
Zn61 O75 1.965 . S
Zn61 O77 2.024 1_655 S
C62 O63 1.229 . S
C62 O71 1.058 . S
O63 C62 1.229 . S
C64 O65 1.229 . S
C64 O77 1.058 . S
O65 C64 1.229 . S
O66 Zn60 1.969 . S
O66 C69 1.267 . S
O67 Zn60 1.965 . S
O67 C78 1.260 . S
O68 Zn61 1.969 . S
O68 C78 1.258 1_655 S
C69 O66 1.267 . S
C69 O70 1.228 . S
O70 C69 1.228 . S
O71 Zn60 2.024 1_655 S
O71 C62 1.058 . S
C72 O73 1.228 . S
C72 O74 1.267 . S
O73 C72 1.228 . S
O74 Zn61 1.969 . S
O74 C72 1.267 . S
O75 Zn61 1.965 . S
O75 C79 1.260 1_655 S
O76 Zn60 1.969 . S
O76 C79 1.258 . S
O77 Zn61 2.024 1_455 S
O77 C64 1.058 . S
C78 O67 1.260 . S
C78 O68 1.258 1_455 S
C79 O75 1.260 1_455 S
C79 O76 1.258 . S
C80 C81 1.369 . S
C80 C82 1.419 . S
C80 H84 0.930 . S
C81 C80 1.369 . S
C81 C90 1.429 . S
C82 C80 1.419 . S
C82 C83 1.363 . S
C82 H85 0.929 1_556 S
C83 C82 1.363 . S
C83 C89 1.428 . S
H84 C80 0.930 . S
H85 C82 0.929 1_554 S
S86 N87 1.613 1_565 S
S86 N88 1.610 1_655 S
N87 S86 1.613 1_545 S
N87 C90 1.350 1_655 S
N88 S86 1.610 1_455 S
N88 C89 1.351 1_565 S
C89 C83 1.428 . S
C89 N88 1.351 1_545 S
C89 C90 1.434 . S
C90 C81 1.429 . S
C90 N87 1.350 1_455 S
C90 C89 1.434 . S
C91 C92 1.369 . S
C91 C93 1.419 . S
C91 H95 0.930 1_455 S
C92 C91 1.369 . S
C92 C101 1.429 . S
C93 C91 1.419 . S
C93 C94 1.363 . S
C93 H96 0.929 . S
C94 C93 1.363 . S
C94 C100 1.428 . S
H95 C91 0.930 1_655 S
H96 C93 0.929 . S
S97 N98 1.613 . S
S97 N99 1.610 1_565 S
N98 S97 1.613 . S
N98 C101 1.350 1_565 S
N99 S97 1.610 1_545 S
N99 C100 1.351 . S
C100 C94 1.428 . S
C100 N99 1.351 . S
C100 C101 1.434 . S
C101 C92 1.429 . S
C101 N98 1.350 1_545 S
C101 C100 1.434 . S
C102 C103 1.369 1_556 S
C102 C104 1.419 . S
C102 H106 0.930 . S
C103 C102 1.369 1_554 S
C103 C112 1.429 . S
C104 C102 1.419 . S
C104 C105 1.363 1_556 S
C104 H107 0.929 . S
C105 C104 1.363 1_554 S
C105 C111 1.428 . S
H106 C102 0.930 . S
H107 C104 0.929 . S
S108 N109 1.613 . S
S108 N110 1.610 . S
N109 S108 1.613 . S
N109 C112 1.350 . S
N110 S108 1.610 . S
N110 C111 1.351 . S
C111 C105 1.428 . S
C111 N110 1.351 . S
C111 C112 1.434 . S
C112 C103 1.429 . S
C112 N109 1.350 . S
C112 C111 1.434 . S
C113 C114 1.369 . S
C113 C115 1.419 . S
C113 H117 0.930 . S
C114 C113 1.369 . S
C114 C123 1.429 . S
C115 C113 1.419 . S
C115 C116 1.363 . S
C115 H118 0.929 . S
C116 C115 1.363 . S
C116 C122 1.428 . S
H117 C113 0.930 . S
H118 C115 0.929 . S
S119 N120 1.613 1_655 S
S119 N121 1.610 . S
N120 S119 1.613 1_455 S
N120 C123 1.350 . S
N121 S119 1.610 . S
N121 C122 1.351 1_655 S
C122 C116 1.428 . S
C122 N121 1.351 1_455 S
C122 C123 1.434 . S
C123 C114 1.429 . S
C123 N120 1.350 . S
C123 C122 1.434 . S
C124 C125 1.369 . S
C124 C126 1.419 . S
C124 H128 0.930 . S
C125 C124 1.369 . S
C125 C134 1.429 . S
C126 C124 1.419 . S
C126 C127 1.363 . S
C126 H129 0.929 . S
C127 C126 1.363 . S
C127 C133 1.428 . S
H128 C124 0.930 . S
H129 C126 0.929 . S
S130 N131 1.613 . S
S130 N132 1.610 . S
N131 S130 1.613 . S
N131 C134 1.350 . S
N132 S130 1.610 . S
N132 C133 1.351 . S
C133 C127 1.428 . S
C133 N132 1.351 . S
C133 C134 1.434 . S
C134 C125 1.429 . S
C134 N131 1.350 . S
C134 C133 1.434 . S
C135 C136 1.369 . S
C135 C137 1.419 . S
C135 H139 0.930 . S
C136 C135 1.369 . S
C136 C145 1.429 1_655 S
C137 C135 1.419 . S
C137 C138 1.363 . S
C137 H140 0.929 . S
C138 C137 1.363 . S
C138 C144 1.428 . S
H139 C135 0.930 . S
H140 C137 0.929 . S
S141 N142 1.613 . S
S141 N143 1.610 . S
N142 S141 1.613 . S
N142 C145 1.350 . S
N143 S141 1.610 . S
N143 C144 1.351 1_455 S
C144 C138 1.428 . S
C144 N143 1.351 1_655 S
C144 C145 1.434 1_655 S
C145 C136 1.429 1_455 S
C145 N142 1.350 . S
C145 C144 1.434 1_455 S
C146 C147 1.369 . S
C146 C148 1.419 1_565 S
C146 H150 0.930 1_565 S
C147 C146 1.369 . S
C147 C156 1.429 . S
C148 C146 1.419 1_545 S
C148 C149 1.363 1_545 S
C148 H151 0.929 . S
C149 C148 1.363 1_565 S
C149 C155 1.428 . S
H150 C146 0.930 1_545 S
H151 C148 0.929 . S
S152 N153 1.613 . S
S152 N154 1.610 . S
N153 S152 1.613 . S
N153 C156 1.350 . S
N154 S152 1.610 . S
N154 C155 1.351 . S
C155 C149 1.428 . S
C155 N154 1.351 . S
C155 C156 1.434 . S
C156 C147 1.429 . S
C156 N153 1.350 . S
C156 C155 1.434 . S
C157 C158 1.369 . S
C157 C159 1.419 . S
C157 H161 0.930 . S
C158 C157 1.369 . S
C158 C167 1.429 . S
C159 C157 1.419 . S
C159 C160 1.363 . S
C159 H162 0.929 . S
C160 C159 1.363 . S
C160 C166 1.428 . S
H161 C157 0.930 . S
H162 C159 0.929 . S
S163 N164 1.613 . S
S163 N165 1.610 . S
N164 S163 1.613 . S
N164 C167 1.350 . S
N165 S163 1.610 . S
N165 C166 1.351 . S
C166 C160 1.428 . S
C166 N165 1.351 . S
C166 C167 1.434 . S
C167 C158 1.429 . S
C167 N164 1.350 . S
C167 C166 1.434 . S
C168 C169 1.369 . S
C168 C170 1.419 . S
C168 H172 0.930 . S
C169 C168 1.369 . S
C169 C178 1.429 1_565 S
C170 C168 1.419 . S
C170 C171 1.363 . S
C170 H173 0.929 . S
C171 C170 1.363 . S
C171 C177 1.428 . S
H172 C168 0.930 . S
H173 C170 0.929 . S
S174 N175 1.613 . S
S174 N176 1.610 . S
N175 S174 1.613 . S
N175 C178 1.350 . S
N176 S174 1.610 . S
N176 C177 1.351 1_545 S
C177 C171 1.428 . S
C177 N176 1.351 1_565 S
C177 C178 1.434 1_565 S
C178 C169 1.429 1_545 S
C178 N175 1.350 . S
C178 C177 1.434 1_545 S
C179 C180 1.369 . S
C179 C181 1.419 . S
C179 H183 0.930 . S
C180 C179 1.369 . S
C180 C189 1.429 . S
C181 C179 1.419 . S
C181 C182 1.363 . S
C181 H184 0.929 . S
C182 C181 1.363 . S
C182 C188 1.428 . S
H183 C179 0.930 . S
H184 C181 0.929 . S
S185 N186 1.613 1_545 S
S185 N187 1.610 1_545 S
N186 S185 1.613 1_565 S
N186 C189 1.350 . S
N187 S185 1.610 1_565 S
N187 C188 1.351 . S
C188 C182 1.428 . S
C188 N187 1.351 . S
C188 C189 1.434 . S
C189 C180 1.429 . S
C189 N186 1.350 . S
C189 C188 1.434 . S
C190 C191 1.369 . S
C190 C192 1.419 . S
C190 H194 0.930 . S
C191 C190 1.369 . S
C191 C200 1.429 . S
C192 C190 1.419 . S
C192 C193 1.363 . S
C192 H195 0.929 . S
C193 C192 1.363 . S
C193 C199 1.428 . S
H194 C190 0.930 . S
H195 C192 0.929 . S
S196 N197 1.613 . S
S196 N198 1.610 . S
N197 S196 1.613 . S
N197 C200 1.350 . S
N198 S196 1.610 . S
N198 C199 1.351 . S
C199 C193 1.428 . S
C199 N198 1.351 . S
C199 C200 1.434 . S
C200 C191 1.429 . S
C200 N197 1.350 . S
C200 C199 1.434 . S
C201 C202 1.369 . S
C201 C203 1.419 1_655 S
C201 H205 0.930 1_655 S
C202 C201 1.369 . S
C202 C211 1.429 . S
C203 C201 1.419 1_455 S
C203 C204 1.363 1_455 S
C203 H206 0.929 . S
C204 C203 1.363 1_655 S
C204 C210 1.428 . S
H205 C201 0.930 1_455 S
H206 C203 0.929 . S
S207 N208 1.613 . S
S207 N209 1.610 . S
N208 S207 1.613 . S
N208 C211 1.350 . S
N209 S207 1.610 . S
N209 C210 1.351 . S
C210 C204 1.428 . S
C210 N209 1.351 . S
C210 C211 1.434 . S
C211 C202 1.429 . S
C211 N208 1.350 . S
C211 C210 1.434 . S
C81 C59 0.965 1_456 S
C83 C19 0.975 1_556 S
C92 C79 0.967 1_545 S
C94 C39 0.977 . S
C103 C58 1.314 1_554 S
C105 C18 1.322 1_554 S
C114 C38 1.308 . S
C116 C78 1.322 . S
C125 C32 1.191 . S
C127 C9 1.266 . S
C136 C29 1.263 1_655 S
C138 C52 1.193 . S
C147 C72 1.200 . S
C149 C49 1.271 1_565 S
C158 C69 1.272 . S
C160 C12 1.199 . S
C169 C44 1.703 1_565 S
C171 C62 1.543 . S
C180 C2 1.539 . S
C182 C64 1.705 . S
C191 C22 1.554 . S
C193 C4 1.708 . S
C202 C42 1.552 . S
C204 C24 1.711 1_655 S
