# Generated by pormake.
# Topology sma, (6)-cn, num edge types: 1
# Building blocks:
#     Node 0, Type 0, BuildingBlock: UKALOJ_clean_sbu_0, # of connection points: 6
#     Node 1, Type 0, BuildingBlock: UKALOJ_clean_sbu_0, # of connection points: 6
#     Node 2, Type 0, BuildingBlock: UKALOJ_clean_sbu_0, # of connection points: 6
#     Edge 3, Type (0, 0), BuildingBlock: AJUNOK_clean_linker_0, # of connection points: 2
#     Edge 4, Type (0, 0), BuildingBlock: AJUNOK_clean_linker_0, # of connection points: 2
#     Edge 5, Type (0, 0), BuildingBlock: AJUNOK_clean_linker_0, # of connection points: 2
#     Edge 6, Type (0, 0), BuildingBlock: AJUNOK_clean_linker_0, # of connection points: 2
#     Edge 7, Type (0, 0), BuildingBlock: AJUNOK_clean_linker_0, # of connection points: 2
#     Edge 8, Type (0, 0), BuildingBlock: AJUNOK_clean_linker_0, # of connection points: 2
#     Edge 9, Type (0, 0), BuildingBlock: AJUNOK_clean_linker_0, # of connection points: 2
#     Edge 10, Type (0, 0), BuildingBlock: AJUNOK_clean_linker_0, # of connection points: 2
#     Edge 11, Type (0, 0), BuildingBlock: AJUNOK_clean_linker_0, # of connection points: 2
# Relax obj value: 0.666
# Max RMSD: 0.378
# Mean RMSD: 0.378
data_MOF--net-sma--node1-UKALOJ_clean_sbu_0--edge1-AJUNOK_clean_linker_0
_symmetry_space_group_name_H-M    P1
_symmetry_Int_Tables_number       1
_symmetry_cell_setting            triclinic
loop_
_symmetry_equiv_pos_as_xyz
'x, y, z'
_cell_length_a     18.381915
_cell_length_b     18.507965
_cell_length_c     14.634632
_cell_angle_alpha  91.177992
_cell_angle_beta   91.82707
_cell_angle_gamma 117.83561
loop_
_atom_site_label
_atom_site_type_symbol
_atom_site_fract_x
_atom_site_fract_y
_atom_site_fract_z
_atom_type_partial_charge
Zn0 Zn 0.07996 0.51366 0.12952 0.0
O1 O 0.20697 0.64138 0.12943 0.0
C2 C 0.20489 0.49936 0.19664 0.0
Zn3 Zn 0.08194 0.56849 0.24479 0.0
C4 C 0.2067 0.69998 0.17861 0.0
O5 O 0.13833 0.6866 0.20659 0.0
C6 C 0.96618 0.3936 0.24559 0.0
O7 O 0.96418 0.57157 0.20613 0.0
O8 O 1.01842 0.57222 0.07491 0.0
N9 N 0.0954 0.61479 0.37334 0.0
C10 C 1.05035 0.58393 0.4465 0.0
C11 C 0.16605 0.67979 0.49506 0.0
N12 N 0.16632 0.67618 0.40343 0.0
N13 N 0.09414 0.62156 0.52399 0.0
C14 C 0.11117 0.51445 0.92867 0.0
C15 C 1.03082 0.39099 0.88454 0.0
N16 N 0.08095 0.47208 1.00343 0.0
N17 N 1.03179 0.39505 0.97656 0.0
N18 N 0.08078 0.4651 0.85348 0.0
H19 H 0.13739 0.63728 0.96815 0.0
H20 H 0.17548 0.62853 0.85853 0.0
H21 H 0.22581 0.6205 0.96175 0.0
C22 C 0.16504 0.60535 0.92871 0.0
C23 C 0.96408 0.51528 0.44358 0.0
H24 H 0.92682 0.53056 0.49088 0.0
H25 H 0.96457 0.45949 0.46855 0.0
H26 H 0.93495 0.50391 0.37371 0.0
O27 O 1.0213 0.45171 0.29382 0.0
O28 O 0.96267 0.40308 0.15907 0.0
C29 C 0.96524 0.58107 0.11899 0.0
O30 O 0.13387 0.44499 0.17616 0.0
O31 O 0.20769 0.55804 0.24844 0.0
Zn32 Zn 0.58129 1.03013 0.56627 0.0
O33 O 0.69914 0.14688 0.54809 0.0
C34 C 0.51869 0.14857 0.58645 0.0
Zn35 Zn 0.53058 0.04015 0.45181 0.0
C36 C 0.70635 0.1516 0.46067 0.0
O37 O 0.64667 0.10175 0.40979 0.0
C38 C 0.39646 0.91396 0.49685 0.0
O39 O 0.53736 0.91332 0.43127 0.0
O40 O 0.64682 0.97518 0.51808 0.0
N41 N 0.49252 0.04703 0.32442 0.0
C42 C 0.5014 1.01295 0.24684 0.0
C43 C 0.46231 0.10062 0.20969 0.0
N44 N 0.46751 0.10109 0.30179 0.0
N45 N 0.48205 0.04478 0.1743 0.0
C46 C 0.62134 0.05165 0.77169 0.0
C47 C 0.59789 0.93211 0.80654 0.0
N48 N 0.6102 1.00831 0.69318 0.0
N49 N 0.59805 0.93473 0.71489 0.0
N50 N 0.61104 1.00455 0.84395 0.0
H51 H 0.65739 0.16804 0.71146 0.0
H52 H 0.68808 0.17407 0.82969 0.0
H53 H 0.58194 0.14188 0.79919 0.0
C54 C 0.63789 0.13896 0.77774 0.0
C55 C 0.5382 0.95571 0.2417 0.0
H56 H 0.49332 0.89539 0.26595 0.0
H57 H 0.59559 0.98017 0.28544 0.0
H58 H 0.55282 0.94596 0.17111 0.0
O59 O 0.41033 0.98568 0.48646 0.0
O60 O 0.451 0.90761 0.5491 0.0
C61 C 0.59596 0.90979 0.47859 0.0
O62 O 0.52058 0.08924 0.62494 0.0
O63 O 0.53307 0.15646 0.50091 0.0
Zn64 Zn 0.59382 0.58083 0.89547 0.0
O65 O 0.58776 0.44864 0.90831 0.0
C66 C 0.72888 0.58093 0.84204 0.0
Zn67 Zn 0.53591 0.5179 0.78108 0.0
C68 C 0.53166 0.38822 0.85973 0.0
O69 O 0.47678 0.40127 0.82397 0.0
C70 C 0.59524 0.69336 0.76029 0.0
O71 O 0.41486 0.51932 0.80452 0.0
O72 O 0.47774 0.53429 0.93764 0.0
N73 N 0.50827 0.46737 0.65401 0.0
C74 C 0.48576 0.49284 0.57824 0.0
C75 C 0.53221 0.41241 0.53578 0.0
N76 N 0.5353 0.4158 0.62766 0.0
N77 N 0.50141 0.46047 0.50323 0.0
C78 C 0.61137 0.57801 0.10083 0.0
C79 C 0.6297 0.69618 0.1444 0.0
N80 N 0.6247 0.62228 0.02611 0.0
N81 N 0.63704 0.69614 0.05298 0.0
N82 N 0.61306 0.62237 0.17523 0.0
H83 H 0.53213 0.45194 0.06318 0.0
H84 H 0.58906 0.46762 0.17094 0.0
H85 H 0.6413 0.48296 0.06682 0.0
C86 C 0.59198 0.4899 0.10072 0.0
C87 C 0.45915 0.5579 0.57595 0.0
H88 H 0.43838 0.56717 0.64321 0.0
H89 H 0.40852 0.54076 0.52316 0.0
H90 H 0.51127 0.61576 0.5553 0.0
O91 O 0.58704 0.62869 0.72198 0.0
O92 O 0.59137 0.69564 0.84786 0.0
C93 C 0.41399 0.52261 0.89244 0.0
O94 O 0.71545 0.6369 0.87215 0.0
O95 O 0.67051 0.52544 0.78991 0.0
C96 C 0.24113 0.44295 0.05544 0.0
C97 C 0.2634 0.50978 0.11982 0.0
C98 C 0.28266 0.44945 0.97388 0.0
C99 C 0.34889 0.52346 0.95052 0.0
H100 H 0.19046 0.38363 0.06825 0.0
H101 H 0.2657 0.39472 0.93157 0.0
S102 S 0.43992 0.71622 0.09392 0.0
N103 N 0.36321 0.65163 0.15335 0.0
N104 N 0.43792 0.66469 0.99973 0.0
C105 C 0.37224 0.5908 0.0131 0.0
C106 C 0.33123 0.58378 0.09744 0.0
C107 C 0.75898 0.23217 0.32072 0.0
C108 C 0.77627 0.21487 0.4107 0.0
C109 C 0.82081 0.28528 0.26493 0.0
C110 C 0.90345 0.32411 0.29609 0.0
H111 H 0.69613 0.20487 0.29266 0.0
H112 H 0.80316 0.29841 0.19846 0.0
S113 S 0.98416 0.29738 0.52305 0.0
N114 N 0.88346 0.23956 0.5262 0.0
N115 N 1.00062 0.33833 0.42159 0.0
C116 C 0.92238 0.30593 0.38493 0.0
C117 C 0.85883 0.25224 0.44229 0.0
C118 C 0.51857 0.78953 0.58018 0.0
C119 C 0.58876 0.83668 0.52972 0.0
C120 C 0.52319 0.75087 0.66112 0.0
C121 C 0.59789 0.75584 0.69569 0.0
H122 H 0.45984 0.78521 0.56144 0.0
H123 H 0.46696 0.71478 0.69578 0.0
S124 S 0.79638 0.85546 0.58128 0.0
N125 N 0.73367 0.87594 0.51634 0.0
N126 N 0.7408 0.8001 0.66445 0.0
C127 C 0.66676 0.79633 0.64215 0.0
C128 C 0.66242 0.83651 0.5605 0.0
C129 C 0.86688 0.64375 0.92568 0.0
C130 C 0.79405 0.5711 0.89994 0.0
C131 C 0.91846 0.64941 1.0023 0.0
C132 C 0.89888 0.5837 0.06042 0.0
H133 H 0.88306 0.69828 0.88741 0.0
H134 H 0.97521 0.70567 0.01539 0.0
S135 S 0.72528 0.37536 0.0228 0.0
N136 N 0.71312 0.4278 0.93942 0.0
N137 N 0.80807 0.4413 0.08264 0.0
C138 C 0.8288 0.51029 0.03541 0.0
C139 C 0.77719 0.50323 0.9559 0.0
C140 C 0.35815 0.787 0.38789 0.0
C141 C 0.35089 0.85727 0.41309 0.0
C142 C 0.32154 0.74088 0.30485 0.0
C143 C 0.27759 0.76337 0.23933 0.0
H144 H 0.39009 0.76517 0.43319 0.0
H145 H 0.32265 0.68365 0.29793 0.0
S146 S 0.2433 0.94471 0.26623 0.0
N147 N 0.29469 0.94671 0.36145 0.0
N148 N 0.23428 0.86494 0.20513 0.0
C149 C 0.27468 0.83635 0.26118 0.0
C150 C 0.30802 0.88105 0.34724 0.0
C151 C 0.46714 0.24744 0.78767 0.0
C152 C 0.54099 0.32045 0.80883 0.0
C153 C 0.45788 0.19486 0.71171 0.0
C154 C 0.52087 0.21359 0.64988 0.0
H155 H 0.41392 0.23274 0.828 0.0
H156 H 0.40054 0.13878 0.70115 0.0
S157 S 0.73228 0.38474 0.67721 0.0
N158 N 0.68391 0.39791 0.76367 0.0
N159 N 0.66279 0.30259 0.62013 0.0
C160 C 0.59596 0.28289 0.6712 0.0
C161 C 0.60708 0.33494 0.75064 0.0
C162 C 1.02206 0.52522 0.74678 0.0
C163 C 0.07562 0.49185 0.7646 0.0
C164 C 1.02834 0.56835 0.6677 0.0
C165 C 0.08866 0.57922 0.60568 0.0
H166 H 0.97781 0.52074 0.79644 0.0
H167 H 0.98736 0.59463 0.65561 0.0
S168 S 0.23817 0.49737 0.61933 0.0
N169 N 0.18703 0.46848 0.71391 0.0
N170 N 0.19815 0.54789 0.563 0.0
C171 C 0.14005 0.54296 0.62127 0.0
C172 C 0.13363 0.49949 0.70161 0.0
C173 C 0.58874 0.09654 0.06374 0.0
C174 C 0.5077 0.04194 0.08454 0.0
C175 C 0.62365 0.08245 0.98649 0.0
C176 C 0.57793 1.01397 0.92774 0.0
H177 H 0.62637 0.14775 0.11038 0.0
H178 H 0.68696 0.12439 0.97336 0.0
S179 S 0.36304 0.85302 0.95488 0.0
N180 N 0.38346 0.91692 0.04392 0.0
N181 N 0.4469 0.8915 0.89523 0.0
C182 C 0.4962 0.95954 0.94771 0.0
C183 C 0.4614 0.97359 0.02686 0.0
C184 C 0.60734 0.56841 0.41822 0.0
C185 C 0.52708 0.50324 0.42125 0.0
C186 C 0.63407 0.61175 0.33863 0.0
C187 C 0.58084 0.59078 0.26104 0.0
H188 H 0.64958 0.58462 0.47746 0.0
H189 H 0.69729 0.65909 0.33608 0.0
S190 S 0.36404 0.4283 0.23812 0.0
N191 N 0.39415 0.42241 0.34395 0.0
N192 N 0.44361 0.50439 0.1931 0.0
C193 C 0.49928 0.52836 0.26514 0.0
C194 C 0.47258 0.48408 0.34579 0.0
loop_
_geom_bond_atom_site_label_1
_geom_bond_atom_site_label_2
_geom_bond_distance
_geom_bond_site_symmetry_2
_ccdc_geom_bond_type
Zn0 O1 2.055 1_655 S
Zn0 O8 2.046 . S
Zn0 N16 2.036 1_554 S
Zn0 O28 2.053 . S
Zn0 O30 2.066 1_655 S
O1 Zn0 2.055 1_455 S
O1 C4 1.259 . S
C2 O30 1.256 . S
C2 O31 1.244 . S
Zn3 O5 2.046 . S
Zn3 O7 2.055 1_455 S
Zn3 N9 2.036 . S
Zn3 O27 2.066 1_455 S
Zn3 O31 2.053 . S
C4 O1 1.259 . S
C4 O5 1.254 . S
O5 Zn3 2.046 . S
O5 C4 1.254 . S
C6 O27 1.256 . S
C6 O28 1.244 . S
O7 Zn3 2.055 1_655 S
O7 C29 1.259 . S
O8 Zn0 2.046 . S
O8 C29 1.254 . S
N9 Zn3 2.036 . S
N9 C10 1.298 1_455 S
N9 N12 1.398 . S
C10 N9 1.298 1_655 S
C10 N13 1.367 . S
C10 C23 1.481 . S
C11 N12 1.299 . S
C11 N13 1.379 1_455 S
N12 N9 1.398 . S
N12 C11 1.299 . S
N13 C10 1.367 . S
N13 C11 1.379 1_655 S
C14 N16 1.298 1_455 S
C14 N18 1.367 . S
C14 C22 1.481 . S
C15 N17 1.299 . S
C15 N18 1.379 1_655 S
N16 Zn0 2.036 1_556 S
N16 C14 1.298 1_655 S
N16 N17 1.398 . S
N17 C15 1.299 . S
N17 N16 1.398 . S
N18 C14 1.367 . S
N18 C15 1.379 1_455 S
H19 C22 0.980 . S
H20 C22 0.981 . S
H21 C22 0.981 . S
C22 C14 1.481 . S
C22 H19 0.980 . S
C22 H20 0.981 . S
C22 H21 0.981 . S
C23 C10 1.481 . S
C23 H24 0.980 . S
C23 H25 0.981 . S
C23 H26 0.981 . S
H24 C23 0.980 . S
H25 C23 0.981 . S
H26 C23 0.981 . S
O27 Zn3 2.066 1_655 S
O27 C6 1.256 . S
O28 Zn0 2.053 . S
O28 C6 1.244 . S
C29 O7 1.259 . S
C29 O8 1.254 . S
O30 Zn0 2.066 1_455 S
O30 C2 1.256 . S
O31 C2 1.244 . S
O31 Zn3 2.053 . S
Zn32 O33 2.055 1_565 S
Zn32 O40 2.046 . S
Zn32 N48 2.036 . S
Zn32 O60 2.053 . S
Zn32 O62 2.066 1_565 S
O33 Zn32 2.055 1_545 S
O33 C36 1.259 . S
C34 O62 1.256 . S
C34 O63 1.244 . S
Zn35 O37 2.046 . S
Zn35 O39 2.055 1_545 S
Zn35 N41 2.036 . S
Zn35 O59 2.066 1_545 S
Zn35 O63 2.053 . S
C36 O33 1.259 . S
C36 O37 1.254 . S
O37 Zn35 2.046 . S
O37 C36 1.254 . S
C38 O59 1.256 . S
C38 O60 1.244 . S
O39 Zn35 2.055 1_565 S
O39 C61 1.259 . S
O40 Zn32 2.046 . S
O40 C61 1.254 . S
N41 Zn35 2.036 . S
N41 C42 1.298 1_545 S
N41 N44 1.398 . S
C42 N41 1.298 1_565 S
C42 N45 1.367 . S
C42 C55 1.481 . S
C43 N44 1.299 . S
C43 N45 1.379 1_545 S
N44 N41 1.398 . S
N44 C43 1.299 . S
N45 C42 1.367 . S
N45 C43 1.379 1_565 S
C46 N48 1.298 1_545 S
C46 N50 1.367 . S
C46 C54 1.481 . S
C47 N49 1.299 . S
C47 N50 1.379 1_565 S
N48 Zn32 2.036 . S
N48 C46 1.298 1_565 S
N48 N49 1.398 . S
N49 C47 1.299 . S
N49 N48 1.398 . S
N50 C46 1.367 . S
N50 C47 1.379 1_545 S
H51 C54 0.980 . S
H52 C54 0.981 . S
H53 C54 0.981 . S
C54 C46 1.481 . S
C54 H51 0.980 . S
C54 H52 0.981 . S
C54 H53 0.981 . S
C55 C42 1.481 . S
C55 H56 0.980 . S
C55 H57 0.981 . S
C55 H58 0.981 . S
H56 C55 0.980 . S
H57 C55 0.981 . S
H58 C55 0.981 . S
O59 Zn35 2.066 1_565 S
O59 C38 1.256 . S
O60 Zn32 2.053 . S
O60 C38 1.244 . S
C61 O39 1.259 . S
C61 O40 1.254 . S
O62 Zn32 2.066 1_545 S
O62 C34 1.256 . S
O63 C34 1.244 . S
O63 Zn35 2.053 . S
Zn64 O65 2.055 . S
Zn64 O72 2.046 . S
Zn64 N80 2.036 1_556 S
Zn64 O92 2.053 . S
Zn64 O94 2.066 . S
O65 Zn64 2.055 . S
O65 C68 1.259 . S
C66 O94 1.256 . S
C66 O95 1.244 . S
Zn67 O69 2.046 . S
Zn67 O71 2.055 . S
Zn67 N73 2.036 . S
Zn67 O91 2.066 . S
Zn67 O95 2.053 . S
C68 O65 1.259 . S
C68 O69 1.254 . S
O69 Zn67 2.046 . S
O69 C68 1.254 . S
C70 O91 1.256 . S
C70 O92 1.244 . S
O71 Zn67 2.055 . S
O71 C93 1.259 . S
O72 Zn64 2.046 . S
O72 C93 1.254 . S
N73 Zn67 2.036 . S
N73 C74 1.298 . S
N73 N76 1.398 . S
C74 N73 1.298 . S
C74 N77 1.367 . S
C74 C87 1.481 . S
C75 N76 1.299 . S
C75 N77 1.379 . S
N76 N73 1.398 . S
N76 C75 1.299 . S
N77 C74 1.367 . S
N77 C75 1.379 . S
C78 N80 1.298 . S
C78 N82 1.367 . S
C78 C86 1.481 . S
C79 N81 1.299 . S
C79 N82 1.379 . S
N80 Zn64 2.036 1_554 S
N80 C78 1.298 . S
N80 N81 1.398 . S
N81 C79 1.299 . S
N81 N80 1.398 . S
N82 C78 1.367 . S
N82 C79 1.379 . S
H83 C86 0.980 . S
H84 C86 0.981 . S
H85 C86 0.981 . S
C86 C78 1.481 . S
C86 H83 0.980 . S
C86 H84 0.981 . S
C86 H85 0.981 . S
C87 C74 1.481 . S
C87 H88 0.980 . S
C87 H89 0.981 . S
C87 H90 0.981 . S
H88 C87 0.980 . S
H89 C87 0.981 . S
H90 C87 0.981 . S
O91 Zn67 2.066 . S
O91 C70 1.256 . S
O92 Zn64 2.053 . S
O92 C70 1.244 . S
C93 O71 1.259 . S
C93 O72 1.254 . S
O94 Zn64 2.066 . S
O94 C66 1.256 . S
O95 C66 1.244 . S
O95 Zn67 2.053 . S
C96 C97 1.369 . S
C96 C98 1.419 1_554 S
C96 H100 0.930 . S
C97 C96 1.369 . S
C97 C106 1.429 . S
C98 C96 1.419 1_556 S
C98 C99 1.363 . S
C98 H101 0.929 . S
C99 C98 1.363 . S
C99 C105 1.428 . S
H100 C96 0.930 . S
H101 C98 0.929 . S
S102 N103 1.613 1_556 S
S102 N104 1.610 . S
N103 S102 1.613 1_554 S
N103 C106 1.350 . S
N104 S102 1.610 . S
N104 C105 1.351 . S
C105 C99 1.428 . S
C105 N104 1.351 . S
C105 C106 1.434 1_556 S
C106 C97 1.429 . S
C106 N103 1.350 . S
C106 C105 1.434 1_554 S
C107 C108 1.369 . S
C107 C109 1.419 . S
C107 H111 0.930 . S
C108 C107 1.369 . S
C108 C117 1.429 . S
C109 C107 1.419 . S
C109 C110 1.363 . S
C109 H112 0.929 . S
C110 C109 1.363 . S
C110 C116 1.428 . S
H111 C107 0.930 . S
H112 C109 0.929 . S
S113 N114 1.613 . S
S113 N115 1.610 . S
N114 S113 1.613 . S
N114 C117 1.350 . S
N115 S113 1.610 . S
N115 C116 1.351 . S
C116 C110 1.428 . S
C116 N115 1.351 . S
C116 C117 1.434 . S
C117 C108 1.429 . S
C117 N114 1.350 . S
C117 C116 1.434 . S
C118 C119 1.369 . S
C118 C120 1.419 . S
C118 H122 0.930 . S
C119 C118 1.369 . S
C119 C128 1.429 . S
C120 C118 1.419 . S
C120 C121 1.363 . S
C120 H123 0.929 . S
C121 C120 1.363 . S
C121 C127 1.428 . S
H122 C118 0.930 . S
H123 C120 0.929 . S
S124 N125 1.613 . S
S124 N126 1.610 . S
N125 S124 1.613 . S
N125 C128 1.350 . S
N126 S124 1.610 . S
N126 C127 1.351 . S
C127 C121 1.428 . S
C127 N126 1.351 . S
C127 C128 1.434 . S
C128 C119 1.429 . S
C128 N125 1.350 . S
C128 C127 1.434 . S
C129 C130 1.369 . S
C129 C131 1.419 1_556 S
C129 H133 0.930 . S
C130 C129 1.369 . S
C130 C139 1.429 . S
C131 C129 1.419 1_554 S
C131 C132 1.363 . S
C131 H134 0.929 . S
C132 C131 1.363 . S
C132 C138 1.428 . S
H133 C129 0.930 . S
H134 C131 0.929 . S
S135 N136 1.613 1_554 S
S135 N137 1.610 . S
N136 S135 1.613 1_556 S
N136 C139 1.350 . S
N137 S135 1.610 . S
N137 C138 1.351 . S
C138 C132 1.428 . S
C138 N137 1.351 . S
C138 C139 1.434 1_554 S
C139 C130 1.429 . S
C139 N136 1.350 . S
C139 C138 1.434 1_556 S
C140 C141 1.369 . S
C140 C142 1.419 . S
C140 H144 0.930 . S
C141 C140 1.369 . S
C141 C150 1.429 . S
C142 C140 1.419 . S
C142 C143 1.363 . S
C142 H145 0.929 . S
C143 C142 1.363 . S
C143 C149 1.428 . S
H144 C140 0.930 . S
H145 C142 0.929 . S
S146 N147 1.613 . S
S146 N148 1.610 . S
N147 S146 1.613 . S
N147 C150 1.350 . S
N148 S146 1.610 . S
N148 C149 1.351 . S
C149 C143 1.428 . S
C149 N148 1.351 . S
C149 C150 1.434 . S
C150 C141 1.429 . S
C150 N147 1.350 . S
C150 C149 1.434 . S
C151 C152 1.369 . S
C151 C153 1.419 . S
C151 H155 0.930 . S
C152 C151 1.369 . S
C152 C161 1.429 . S
C153 C151 1.419 . S
C153 C154 1.363 . S
C153 H156 0.929 . S
C154 C153 1.363 . S
C154 C160 1.428 . S
H155 C151 0.930 . S
H156 C153 0.929 . S
S157 N158 1.613 . S
S157 N159 1.610 . S
N158 S157 1.613 . S
N158 C161 1.350 . S
N159 S157 1.610 . S
N159 C160 1.351 . S
C160 C154 1.428 . S
C160 N159 1.351 . S
C160 C161 1.434 . S
C161 C152 1.429 . S
C161 N158 1.350 . S
C161 C160 1.434 . S
C162 C163 1.369 1_655 S
C162 C164 1.419 . S
C162 H166 0.930 . S
C163 C162 1.369 1_455 S
C163 C172 1.429 . S
C164 C162 1.419 . S
C164 C165 1.363 . S
C164 H167 0.929 . S
C165 C164 1.363 . S
C165 C171 1.428 1_655 S
H166 C162 0.930 . S
H167 C164 0.929 . S
S168 N169 1.613 . S
S168 N170 1.610 . S
N169 S168 1.613 . S
N169 C172 1.350 . S
N170 S168 1.610 . S
N170 C171 1.351 . S
C171 C165 1.428 1_455 S
C171 N170 1.351 . S
C171 C172 1.434 . S
C172 C163 1.429 . S
C172 N169 1.350 . S
C172 C171 1.434 . S
C173 C174 1.369 1_545 S
C173 C175 1.419 1_554 S
C173 H177 0.930 . S
C174 C173 1.369 1_565 S
C174 C183 1.429 . S
C175 C173 1.419 1_556 S
C175 C176 1.363 . S
C175 H178 0.929 . S
C176 C175 1.363 . S
C176 C182 1.428 1_545 S
H177 C173 0.930 . S
H178 C175 0.929 . S
S179 N180 1.613 1_556 S
S179 N181 1.610 . S
N180 S179 1.613 1_554 S
N180 C183 1.350 . S
N181 S179 1.610 . S
N181 C182 1.351 . S
C182 C176 1.428 1_565 S
C182 N181 1.351 . S
C182 C183 1.434 1_556 S
C183 C174 1.429 . S
C183 N180 1.350 . S
C183 C182 1.434 1_554 S
C184 C185 1.369 . S
C184 C186 1.419 . S
C184 H188 0.930 . S
C185 C184 1.369 . S
C185 C194 1.429 . S
C186 C184 1.419 . S
C186 C187 1.363 . S
C186 H189 0.929 . S
C187 C186 1.363 . S
C187 C193 1.428 . S
H188 C184 0.930 . S
H189 C186 0.929 . S
S190 N191 1.613 . S
S190 N192 1.610 . S
N191 S190 1.613 . S
N191 C194 1.350 . S
N192 S190 1.610 . S
N192 C193 1.351 . S
C193 C187 1.428 . S
C193 N192 1.351 . S
C193 C194 1.434 . S
C194 C185 1.429 . S
C194 N191 1.350 . S
C194 C193 1.434 . S
C97 C2 2.090 . S
C99 C93 2.062 . S
C108 C36 2.063 . S
C110 C6 2.091 . S
C119 C61 2.055 . S
C121 C70 2.098 . S
C130 C66 2.091 . S
C132 C29 2.062 . S
C141 C38 2.092 . S
C143 C4 2.062 . S
C152 C68 2.056 . S
C154 C34 2.096 . S
C163 N18 0.680 . S
C165 N13 0.659 . S
C174 N45 0.683 . S
C176 N50 0.654 . S
C185 N77 0.671 . S
C187 N82 0.660 . S
