# Generated by pormake.
# Topology sma, (6)-cn, num edge types: 1
# Building blocks:
#     Node 0, Type 0, BuildingBlock: GEDQOX_clean_sbu_0, # of connection points: 6
#     Node 1, Type 0, BuildingBlock: GEDQOX_clean_sbu_0, # of connection points: 6
#     Node 2, Type 0, BuildingBlock: GEDQOX_clean_sbu_0, # of connection points: 6
#     Edge 3, Type (0, 0), None
#     Edge 4, Type (0, 0), None
#     Edge 5, Type (0, 0), None
#     Edge 6, Type (0, 0), None
#     Edge 7, Type (0, 0), None
#     Edge 8, Type (0, 0), None
#     Edge 9, Type (0, 0), None
#     Edge 10, Type (0, 0), None
#     Edge 11, Type (0, 0), None
# Relax obj value: 0.233
# Max RMSD: 0.337
# Mean RMSD: 0.227
data_MOF--net-sma--node1-GEDQOX_clean_sbu_0--edge1-none
_symmetry_space_group_name_H-M    P1
_symmetry_Int_Tables_number       1
_symmetry_cell_setting            triclinic
loop_
_symmetry_equiv_pos_as_xyz
'x, y, z'
_cell_length_a     25.317658
_cell_length_b     14.449504
_cell_length_c     6.096563
_cell_angle_alpha  96.85743
_cell_angle_beta   91.38179
_cell_angle_gamma 80.074338
loop_
_atom_site_label
_atom_site_type_symbol
_atom_site_fract_x
_atom_site_fract_y
_atom_site_fract_z
_atom_type_partial_charge
Nd0 Nd 0.00553 0.74802 0.83624 0.0
Nd1 Nd 0.02959 0.53867 0.76199 0.0
C2 C 0.01634 0.92039 0.79513 0.0
C3 C 0.06666 0.95813 0.79919 0.0
C4 C 0.09975 0.94254 0.61144 0.0
C5 C 0.14885 0.97349 0.62179 0.0
C6 C 0.16597 1.01901 0.82035 0.0
C7 C 0.13302 1.03579 0.00984 0.0
C8 C 0.08388 1.00519 -0.0005 0.0
C9 C 0.01548 0.66775 0.21304 0.0
C10 C 0.13331 0.63471 0.77604 0.0
C11 C 0.01881 0.36623 0.80239 0.0
C12 C 0.98137 0.3285 0.79861 0.0
C13 C 0.94791 0.34654 -0.01194 0.0
C14 C 0.89882 0.31558 -0.02204 0.0
C15 C 0.88206 0.26762 0.77794 0.0
C16 C 0.91456 0.25323 0.58989 0.0
C17 C 0.9637 0.28383 0.59999 0.0
C18 C 0.01932 0.62171 0.38702 0.0
C19 C 0.9147 0.65199 0.82245 0.0
O20 O 0.00932 0.8596 0.62399 0.0
O21 O 1.01494 0.8981 -0.01569 0.0
O22 O 0.9932 0.74302 0.19294 0.0
O23 O 0.04556 0.64291 0.04819 0.0
O24 O 0.09731 0.71267 0.77212 0.0
O25 O 0.11828 0.55275 0.79137 0.0
O26 O 0.02553 0.42926 -0.02472 0.0
O27 O 0.03255 0.39113 0.6148 0.0
O28 O 0.0545 0.54646 0.40707 0.0
O29 O 1.00199 0.64614 0.55155 0.0
O30 O 0.95071 0.57405 0.82655 0.0
O31 O 0.92973 0.73393 0.80688 0.0
H32 H 0.08848 0.90498 0.45751 0.0
H33 H 0.17371 0.9608 0.47532 0.0
H34 H 0.14508 1.072 0.16402 0.0
H35 H 0.05998 1.01558 0.1481 0.0
H36 H 0.95921 0.38413 0.1419 0.0
H37 H 0.87399 0.3283 0.12452 0.0
H38 H 0.90247 0.21699 0.4358 0.0
H39 H 0.98757 0.27342 0.4513 0.0
Nd40 Nd 0.46812 0.15437 0.79254 0.0
Nd41 Nd 0.57987 1.13233 0.80627 0.0
C42 C 0.36568 0.1693 0.87944 0.0
C43 C 0.31106 1.13209 0.85519 0.0
C44 C 0.29767 1.08501 0.02716 0.0
C45 C 0.25083 1.04635 0.01439 0.0
C46 C 0.21699 1.05422 0.82957 0.0
C47 C 0.23062 1.10161 0.65741 0.0
C48 C 0.28683 0.12528 0.67001 0.0
C49 C 0.51513 0.13816 0.39209 0.0
C50 C 0.52108 0.94691 0.77769 0.0
C51 C 0.68235 1.11732 0.72007 0.0
C52 C 0.73698 0.15455 0.74395 0.0
C53 C 0.7499 0.204 0.57339 0.0
C54 C 0.79675 0.24265 0.58587 0.0
C55 C 0.83105 0.2324 0.76899 0.0
C56 C 0.81747 0.18504 0.9413 0.0
C57 C 0.77084 0.14651 0.92898 0.0
C58 C 0.54184 0.13587 0.20807 0.0
C59 C 0.52692 0.33978 0.82099 0.0
O60 O 0.40304 0.14696 0.02398 0.0
O61 O 0.38379 0.19268 0.69822 0.0
O62 O 0.47025 0.19428 0.44 0.0
O63 O 0.52109 1.10159 0.54163 0.0
O64 O 0.47503 1.00622 0.80396 0.0
O65 O 0.56671 0.97742 0.75296 0.0
O66 O 0.65424 0.12686 0.57655 0.0
O67 O 0.66417 1.09436 0.90158 0.0
O68 O 0.57712 1.09457 0.16023 0.0
O69 O 0.52654 0.18753 0.05873 0.0
O70 O 0.57297 0.28047 0.79462 0.0
O71 O 0.4813 0.30927 0.84582 0.0
H72 H 0.32287 1.07804 0.17247 0.0
H73 H 0.24108 1.00948 0.14866 0.0
H74 H 0.20425 1.11193 0.51654 0.0
H75 H 0.29533 0.16408 0.53749 0.0
H76 H 0.72467 0.21095 0.42818 0.0
H77 H 0.80646 0.2795 0.45149 0.0
H78 H 0.84346 0.17716 0.08364 0.0
H79 H 0.75238 1.12502 0.06318 0.0
Nd80 Nd 0.46017 0.6568 0.80653 0.0
Nd81 Nd 0.58782 0.6299 0.79208 0.0
C82 C 0.35529 0.68861 0.72843 0.0
C83 C 0.30004 0.66837 0.74936 0.0
C84 C 0.25871 0.74619 0.78556 0.0
C85 C 0.20535 0.73415 0.79542 0.0
C86 C 0.19121 0.64353 0.76971 0.0
C87 C 0.23264 0.56457 0.73698 0.0
C88 C 0.28671 0.57682 0.72558 0.0
C89 C 0.51042 0.64829 0.20606 0.0
C90 C 0.52248 0.84364 0.78092 0.0
C91 C 0.69272 0.59807 0.86965 0.0
C92 C 0.74797 0.6183 0.84895 0.0
C93 C 0.78932 0.54049 0.81332 0.0
C94 C 0.84268 0.55253 0.80354 0.0
C95 C 0.8568 0.64316 0.82878 0.0
C96 C 0.81536 0.72211 0.86095 0.0
C97 C 0.76129 0.70986 0.87225 0.0
C98 C 0.53697 0.64112 0.39438 0.0
C99 C 0.52552 0.44306 0.81777 0.0
O100 O 0.38967 0.63289 0.59339 0.0
O101 O 0.37779 0.72818 0.9025 0.0
O102 O 0.46563 0.61751 0.16229 0.0
O103 O 0.52456 0.68914 0.05172 0.0
O104 O 0.47731 0.80759 0.75676 0.0
O105 O 0.56955 0.79119 0.81299 0.0
O106 O 0.65796 0.65603 0.00668 0.0
O107 O 0.6702 0.55871 0.69538 0.0
O108 O 0.58178 0.67188 0.43793 0.0
O109 O 0.52307 0.60008 0.54877 0.0
O110 O 0.57069 0.4791 0.84181 0.0
O111 O 0.47844 0.49551 0.78584 0.0
H112 H 0.26779 0.81724 0.80365 0.0
H113 H 0.17502 0.79667 0.82346 0.0
H114 H 0.22309 0.49383 0.71719 0.0
H115 H 0.31771 0.51515 0.69702 0.0
H116 H 0.78025 0.46943 0.79558 0.0
H117 H 0.87301 0.49001 0.7759 0.0
H118 H 0.8249 0.79287 0.88033 0.0
H119 H 0.73027 0.77153 0.90035 0.0
loop_
_geom_bond_atom_site_label_1
_geom_bond_atom_site_label_2
_geom_bond_distance
_geom_bond_site_symmetry_2
_ccdc_geom_bond_type
Nd0 C2 2.836 . S
Nd0 O20 2.500 1_554 S
Nd0 O21 2.492 . S
Nd0 O22 2.487 . S
Nd0 O23 2.682 . S
Nd0 O24 2.410 . S
Nd0 O29 2.414 1_554 S
Nd0 O31 2.424 1_455 S
Nd1 C11 2.836 1_456 S
Nd1 O23 2.414 1_556 S
Nd1 O25 2.424 1_556 S
Nd1 O26 2.500 1_456 S
Nd1 O27 2.492 1_455 S
Nd1 O28 2.487 . S
Nd1 O29 2.682 . S
Nd1 O30 2.410 1_455 S
C2 Nd0 2.836 . S
C2 C3 1.498 . S
C2 O20 1.258 1_554 S
C2 O21 1.239 . S
C3 C2 1.498 . S
C3 C4 1.366 1_554 S
C3 C8 1.407 . S
C4 C3 1.366 1_556 S
C4 C5 1.392 . S
C4 H32 0.930 . S
C5 C4 1.392 . S
C5 C6 1.398 1_556 S
C5 H33 0.929 . S
C6 C5 1.398 1_554 S
C6 C7 1.352 . S
C7 C6 1.352 . S
C7 C8 1.384 . S
C7 H34 0.930 . S
C8 C3 1.407 . S
C8 C7 1.384 . S
C8 H35 0.929 . S
C9 O22 1.241 . S
C9 O23 1.273 . S
C10 O24 1.251 . S
C10 O25 1.268 . S
C11 Nd1 2.836 1_654 S
C11 C12 1.498 . S
C11 O26 1.258 . S
C11 O27 1.239 1_554 S
C12 C11 1.498 . S
C12 C13 1.366 . S
C12 C17 1.407 1_554 S
C13 C12 1.366 . S
C13 C14 1.392 . S
C13 H36 0.930 . S
C14 C13 1.392 . S
C14 C15 1.398 . S
C14 H37 0.929 . S
C15 C14 1.398 . S
C15 C16 1.352 1_554 S
C16 C15 1.352 1_556 S
C16 C17 1.384 . S
C16 H38 0.930 . S
C17 C12 1.407 1_556 S
C17 C16 1.384 . S
C17 H39 0.929 . S
C18 O28 1.241 . S
C18 O29 1.273 . S
C19 O30 1.251 1_554 S
C19 O31 1.268 . S
O20 Nd0 2.500 1_556 S
O20 C2 1.258 1_556 S
O21 Nd0 2.492 . S
O21 C2 1.239 . S
O22 Nd0 2.487 . S
O22 C9 1.241 . S
O23 Nd0 2.682 . S
O23 Nd1 2.414 1_554 S
O23 C9 1.273 . S
O24 Nd0 2.410 . S
O24 C10 1.251 . S
O25 Nd1 2.424 1_554 S
O25 C10 1.268 . S
O26 Nd1 2.500 1_654 S
O26 C11 1.258 . S
O27 Nd1 2.492 1_655 S
O27 C11 1.239 1_556 S
O28 Nd1 2.487 . S
O28 C18 1.241 . S
O29 Nd0 2.414 1_556 S
O29 Nd1 2.682 . S
O29 C18 1.273 . S
O30 Nd1 2.410 1_655 S
O30 C19 1.251 1_556 S
O31 Nd0 2.424 1_655 S
O31 C19 1.268 . S
H32 C4 0.930 . S
H33 C5 0.929 . S
H34 C7 0.930 . S
H35 C8 0.929 . S
H36 C13 0.930 . S
H37 C14 0.929 . S
H38 C16 0.930 . S
H39 C17 0.929 . S
Nd40 C42 2.836 1_545 S
Nd40 O60 2.500 1_545 S
Nd40 O61 2.492 1_545 S
Nd40 O62 2.487 . S
Nd40 O63 2.682 . S
Nd40 O64 2.410 1_545 S
Nd40 O69 2.414 . S
Nd40 O71 2.424 . S
Nd41 C51 2.836 . S
Nd41 O63 2.414 . S
Nd41 O65 2.424 1_545 S
Nd41 O66 2.500 . S
Nd41 O67 2.492 . S
Nd41 O68 2.487 1_556 S
Nd41 O69 2.682 . S
Nd41 O70 2.410 . S
C42 Nd40 2.836 1_565 S
C42 C43 1.498 . S
C42 O60 1.258 . S
C42 O61 1.239 . S
C43 C42 1.498 . S
C43 C44 1.366 . S
C43 C48 1.407 . S
C44 C43 1.366 . S
C44 C45 1.392 . S
C44 H72 0.930 . S
C45 C44 1.392 . S
C45 C46 1.398 . S
C45 H73 0.929 . S
C46 C45 1.398 . S
C46 C47 1.352 . S
C47 C46 1.352 . S
C47 C48 1.384 . S
C47 H74 0.930 . S
C48 C43 1.407 . S
C48 C47 1.384 . S
C48 H75 0.929 . S
C49 O62 1.241 . S
C49 O63 1.273 . S
C50 O64 1.251 . S
C50 O65 1.268 . S
C51 Nd41 2.836 . S
C51 C52 1.498 . S
C51 O66 1.258 . S
C51 O67 1.239 . S
C52 C51 1.498 . S
C52 C53 1.366 . S
C52 C57 1.407 . S
C53 C52 1.366 . S
C53 C54 1.392 . S
C53 H76 0.930 . S
C54 C53 1.392 . S
C54 C55 1.398 . S
C54 H77 0.929 . S
C55 C54 1.398 . S
C55 C56 1.352 . S
C56 C55 1.352 . S
C56 C57 1.384 . S
C56 H78 0.930 . S
C57 C52 1.407 . S
C57 C56 1.384 . S
C57 H79 0.929 . S
C58 O68 1.241 . S
C58 O69 1.273 1_554 S
C59 O70 1.251 . S
C59 O71 1.268 . S
O60 Nd40 2.500 1_565 S
O60 C42 1.258 . S
O61 Nd40 2.492 1_565 S
O61 C42 1.239 . S
O62 Nd40 2.487 . S
O62 C49 1.241 . S
O63 Nd40 2.682 . S
O63 Nd41 2.414 . S
O63 C49 1.273 . S
O64 Nd40 2.410 1_565 S
O64 C50 1.251 . S
O65 Nd41 2.424 1_565 S
O65 C50 1.268 . S
O66 Nd41 2.500 . S
O66 C51 1.258 . S
O67 Nd41 2.492 . S
O67 C51 1.239 . S
O68 Nd41 2.487 1_554 S
O68 C58 1.241 . S
O69 Nd40 2.414 . S
O69 Nd41 2.682 . S
O69 C58 1.273 1_556 S
O70 Nd41 2.410 . S
O70 C59 1.251 . S
O71 Nd40 2.424 . S
O71 C59 1.268 . S
H72 C44 0.930 . S
H73 C45 0.929 . S
H74 C47 0.930 . S
H75 C48 0.929 . S
H76 C53 0.930 . S
H77 C54 0.929 . S
H78 C56 0.930 . S
H79 C57 0.929 . S
Nd80 C82 2.836 . S
Nd80 O100 2.500 . S
Nd80 O101 2.492 . S
Nd80 O102 2.487 1_556 S
Nd80 O103 2.682 1_556 S
Nd80 O104 2.410 . S
Nd80 O109 2.414 . S
Nd80 O111 2.424 . S
Nd81 C91 2.836 . S
Nd81 O103 2.414 1_556 S
Nd81 O105 2.424 . S
Nd81 O106 2.500 1_556 S
Nd81 O107 2.492 . S
Nd81 O108 2.487 . S
Nd81 O109 2.682 . S
Nd81 O110 2.410 . S
C82 Nd80 2.836 . S
C82 C83 1.498 . S
C82 O100 1.258 . S
C82 O101 1.240 . S
C83 C82 1.498 . S
C83 C84 1.366 . S
C83 C88 1.407 . S
C84 C83 1.366 . S
C84 C85 1.392 . S
C84 H112 0.930 . S
C85 C84 1.392 . S
C85 C86 1.398 . S
C85 H113 0.929 . S
C86 C85 1.398 . S
C86 C87 1.352 . S
C87 C86 1.352 . S
C87 C88 1.384 . S
C87 H114 0.930 1_556 S
C88 C83 1.407 . S
C88 C87 1.384 . S
C88 H115 0.929 1_556 S
C89 O102 1.241 . S
C89 O103 1.273 . S
C90 O104 1.251 . S
C90 O105 1.268 . S
C91 Nd81 2.836 . S
C91 C92 1.498 . S
C91 O106 1.258 1_556 S
C91 O107 1.239 . S
C92 C91 1.498 . S
C92 C93 1.366 1_556 S
C92 C97 1.407 . S
C93 C92 1.366 1_554 S
C93 C94 1.392 . S
C93 H116 0.930 . S
C94 C93 1.392 . S
C94 C95 1.398 1_554 S
C94 H117 0.929 . S
C95 C94 1.398 1_556 S
C95 C96 1.352 . S
C96 C95 1.352 . S
C96 C97 1.384 . S
C96 H118 0.930 . S
C97 C92 1.407 . S
C97 C96 1.384 . S
C97 H119 0.929 . S
C98 O108 1.241 . S
C98 O109 1.273 . S
C99 O110 1.251 . S
C99 O111 1.268 . S
O100 Nd80 2.500 . S
O100 C82 1.258 . S
O101 Nd80 2.492 . S
O101 C82 1.240 . S
O102 Nd80 2.487 1_554 S
O102 C89 1.241 . S
O103 Nd80 2.682 1_554 S
O103 Nd81 2.414 1_554 S
O103 C89 1.273 . S
O104 Nd80 2.410 . S
O104 C90 1.251 . S
O105 Nd81 2.424 . S
O105 C90 1.268 . S
O106 Nd81 2.500 1_554 S
O106 C91 1.258 1_554 S
O107 Nd81 2.492 . S
O107 C91 1.239 . S
O108 Nd81 2.487 . S
O108 C98 1.241 . S
O109 Nd80 2.414 . S
O109 Nd81 2.682 . S
O109 C98 1.273 . S
O110 Nd81 2.410 . S
O110 C99 1.251 . S
O111 Nd80 2.424 . S
O111 C99 1.268 . S
H112 C84 0.930 . S
H113 C85 0.929 . S
H114 C87 0.930 1_554 S
H115 C88 0.929 1_554 S
H116 C93 0.930 . S
H117 C94 0.929 . S
H118 C96 0.930 . S
H119 C97 0.929 . S
C10 C86 5.336 1_554 S
C55 C15 2.875 1_556 S
C50 C90 4.336 . S
C95 C19 4.565 1_556 S
C46 C6 3.014 1_556 S
C99 C59 3.887 . S
C18 C9 0.856 . S
C49 C58 0.798 . S
C98 C89 0.648 . S
