# Generated by pormake.
# Topology msw, (6)-cn, num edge types: 1
# Building blocks:
#     Node 0, Type 0, BuildingBlock: VOLQOD_clean_sbu_1, # of connection points: 6
#     Node 1, Type 0, BuildingBlock: VOLQOD_clean_sbu_1, # of connection points: 6
#     Edge 2, Type (0, 0), None
#     Edge 3, Type (0, 0), None
#     Edge 4, Type (0, 0), None
#     Edge 5, Type (0, 0), None
#     Edge 6, Type (0, 0), None
#     Edge 7, Type (0, 0), None
# Relax obj value: 0.254
# Max RMSD: 0.194
# Mean RMSD: 0.194
data_MOF--net-msw--node1-VOLQOD_clean_sbu_1--edge1-none
_symmetry_space_group_name_H-M    P1
_symmetry_Int_Tables_number       1
_symmetry_cell_setting            triclinic
loop_
_symmetry_equiv_pos_as_xyz
'x, y, z'
_cell_length_a     10.581807
_cell_length_b     10.583959
_cell_length_c     7.6975756
_cell_angle_alpha  88.581085
_cell_angle_beta   89.037718
_cell_angle_gamma 89.979965
loop_
_atom_site_label
_atom_site_type_symbol
_atom_site_fract_x
_atom_site_fract_y
_atom_site_fract_z
_atom_type_partial_charge
O0 O 0.84815 0.19964 0.54383 0.0
Zn1 Zn 0.93327 0.21782 0.31489 0.0
O2 O 0.79549 0.29496 0.21067 0.0
Zn3 Zn 0.71288 0.17128 0.09204 0.0
Zn4 Zn 0.67124 0.37464 0.33587 0.0
Zn5 Zn 0.87175 0.43136 0.09804 0.0
O6 O 0.70315 0.27262 0.87504 0.0
O7 O 0.9071 0.34078 0.88386 0.0
O8 O 1.00272 0.08614 0.13692 0.0
O9 O 0.82766 1.0372 -0.00125 0.0
O10 O 0.56979 0.09638 0.26011 0.0
O11 O 0.54914 0.25221 0.44592 0.0
O12 O 0.58563 0.50615 0.16328 0.0
O13 O 0.07047 0.33299 0.39402 0.0
O14 O 0.7515 0.55686 -0.00269 0.0
O15 O 0.99145 0.50959 0.2818 0.0
C16 C 0.81675 0.30296 0.61845 0.0
C17 C 0.80981 0.30238 0.80207 0.0
C18 C 0.52439 0.14048 0.40255 0.0
C19 C 0.94641 1.02842 0.01534 0.0
C20 C 0.63433 0.56463 0.02995 0.0
C21 C 0.062 0.45245 0.3925 0.0
O22 O 0.77624 0.40258 0.53817 0.0
O23 O 0.37905 0.7432 0.37492 0.0
Zn24 Zn 0.36623 0.65502 0.60332 0.0
O25 O 0.28753 0.7895 0.7105 0.0
Zn26 Zn 0.40863 0.87244 0.83308 0.0
Zn27 Zn 0.20934 0.917 0.58751 0.0
Zn28 Zn 0.14855 0.7137 0.81848 0.0
O29 O 0.30313 0.8856 0.04414 0.0
O30 O 0.23514 0.68148 0.03854 0.0
O31 O 0.50291 0.58579 0.77748 0.0
O32 O 0.53891 0.7555 0.93325 0.0
O33 O 0.48725 1.0147 0.66545 0.0
O34 O 0.33224 1.03788 0.47727 0.0
O35 O 0.08314 1.00263 0.76378 0.0
O36 O 0.25195 0.5167 0.52447 0.0
O37 O 1.01916 0.83233 0.91222 0.0
O38 O 0.07391 0.59289 0.63413 0.0
C39 C 0.27393 0.7735 0.30264 0.0
C40 C 0.27124 0.78001 0.11904 0.0
C41 C 0.44403 0.06128 0.52218 0.0
C42 C 0.55501 0.6388 0.90673 0.0
C43 C 1.01888 0.95109 0.88956 0.0
C44 C 0.13229 0.52366 0.5244 0.0
O45 O 0.17632 0.81535 0.38463 0.0
loop_
_geom_bond_atom_site_label_1
_geom_bond_atom_site_label_2
_geom_bond_distance
_geom_bond_site_symmetry_2
_ccdc_geom_bond_type
O0 Zn1 1.953 . S
O0 C16 1.225 . S
Zn1 O0 1.953 . S
Zn1 O2 1.949 . S
Zn1 O8 1.919 . S
Zn1 O13 1.924 . S
O2 Zn1 1.949 . S
O2 Zn3 1.923 . S
O2 Zn4 1.950 . S
O2 Zn5 1.945 . S
Zn3 O2 1.923 . S
Zn3 O6 1.933 1_554 S
Zn3 O9 1.941 . S
Zn3 O10 1.965 . S
Zn4 O2 1.950 . S
Zn4 O11 1.938 . S
Zn4 O12 1.906 . S
Zn4 O22 1.953 . S
Zn5 O2 1.945 . S
Zn5 O7 1.932 1_554 S
Zn5 O14 1.977 . S
Zn5 O15 1.910 . S
O6 Zn3 1.933 1_556 S
O6 C17 1.226 . S
O7 Zn5 1.932 1_556 S
O7 C17 1.307 . S
O8 Zn1 1.919 . S
O8 C19 1.253 . S
O9 Zn3 1.941 . S
O9 C19 1.283 . S
O10 Zn3 1.965 . S
O10 C18 1.303 . S
O11 Zn4 1.938 . S
O11 C18 1.247 . S
O12 Zn4 1.906 . S
O12 C20 1.304 . S
O13 Zn1 1.924 . S
O13 C21 1.311 . S
O14 Zn5 1.977 . S
O14 C20 1.272 . S
O15 Zn5 1.910 . S
O15 C21 1.231 . S
C16 O0 1.225 . S
C16 O22 1.298 . S
C17 O6 1.226 . S
C17 O7 1.307 . S
C18 O10 1.303 . S
C18 O11 1.247 . S
C19 O8 1.253 . S
C19 O9 1.283 . S
C20 O12 1.304 . S
C20 O14 1.272 . S
C21 O13 1.311 . S
C21 O15 1.231 . S
O22 Zn4 1.953 . S
O22 C16 1.298 . S
O23 Zn24 1.953 . S
O23 C39 1.225 . S
Zn24 O23 1.953 . S
Zn24 O25 1.949 . S
Zn24 O31 1.919 . S
Zn24 O36 1.924 . S
O25 Zn24 1.949 . S
O25 Zn26 1.923 . S
O25 Zn27 1.950 . S
O25 Zn28 1.945 . S
Zn26 O25 1.923 . S
Zn26 O29 1.933 1_556 S
Zn26 O32 1.941 . S
Zn26 O33 1.965 . S
Zn27 O25 1.950 . S
Zn27 O34 1.938 . S
Zn27 O35 1.906 . S
Zn27 O45 1.953 . S
Zn28 O25 1.945 . S
Zn28 O30 1.932 1_556 S
Zn28 O37 1.977 . S
Zn28 O38 1.910 . S
O29 Zn26 1.933 1_554 S
O29 C40 1.226 . S
O30 Zn28 1.932 1_554 S
O30 C40 1.307 . S
O31 Zn24 1.919 . S
O31 C42 1.253 . S
O32 Zn26 1.941 . S
O32 C42 1.283 . S
O33 Zn26 1.965 . S
O33 C41 1.303 . S
O34 Zn27 1.938 . S
O34 C41 1.247 . S
O35 Zn27 1.906 . S
O35 C43 1.304 . S
O36 Zn24 1.924 . S
O36 C44 1.311 . S
O37 Zn28 1.977 . S
O37 C43 1.272 . S
O38 Zn28 1.910 . S
O38 C44 1.231 . S
C39 O23 1.225 . S
C39 O45 1.298 . S
C40 O29 1.226 . S
C40 O30 1.307 . S
C41 O33 1.303 . S
C41 O34 1.247 . S
C42 O31 1.253 . S
C42 O32 1.283 . S
C43 O35 1.304 . S
C43 O37 1.272 . S
C44 O36 1.311 . S
C44 O38 1.231 . S
O45 Zn27 1.953 . S
O45 C39 1.298 . S
C17 C16 0.088 . S
C39 C40 0.088 . S
C42 C20 2.912 1_556 S
C21 C44 2.923 1_655 S
C43 C19 2.912 1_466 S
C41 C18 2.843 1_565 S
