# Generated by pormake.
# Topology pcu, (6)-cn, num edge types: 1
# Building blocks:
#     Node 0, Type 0, BuildingBlock: FUNLAD_clean_sbu_0, # of connection points: 6
#     Edge 1, Type (0, 0), BuildingBlock: FUNLAD_clean_linker_0, # of connection points: 2
#     Edge 2, Type (0, 0), BuildingBlock: FUNLAD_clean_linker_0, # of connection points: 2
#     Edge 3, Type (0, 0), BuildingBlock: FUNLAD_clean_linker_0, # of connection points: 2
# Relax obj value: 0.000
# Max RMSD: 0.000
# Mean RMSD: 0.000
data_MOF--net-pcu--node1-FUNLAD_clean_sbu_0--edge1-FUNLAD_clean_linker_0
_symmetry_space_group_name_H-M    P1
_symmetry_Int_Tables_number       1
_symmetry_cell_setting            triclinic
loop_
_symmetry_equiv_pos_as_xyz
'x, y, z'
_cell_length_a     17.916661
_cell_length_b     17.915402
_cell_length_c     24.209846
_cell_angle_alpha  90.40581
_cell_angle_beta   92.941092
_cell_angle_gamma 96.458342
loop_
_atom_site_label
_atom_site_type_symbol
_atom_site_fract_x
_atom_site_fract_y
_atom_site_fract_z
_atom_type_partial_charge
C0 C 0.14169 -0.01042 1.00822 0.0
N1 N 0.97475 0.97672 0.88002 0.0
C2 C 0.01781 0.03179 0.85397 0.0
C3 C 0.01484 0.03526 0.79641 0.0
C4 C 0.96823 0.98073 0.7652 0.0
C5 C 0.92542 0.92357 0.79285 0.0
C6 C 0.92905 0.92299 0.85071 0.0
Zn7 Zn 0.98078 0.97757 0.96474 0.0
C8 C 0.97943 0.82671 0.01287 0.0
N9 N -0.00066 0.98602 0.14142 0.0
C10 C 0.05395 0.03083 0.17086 0.0
C11 C 0.94697 0.93977 0.16731 0.0
C12 C 0.9475 0.93803 0.22487 0.0
C13 C 0.00307 0.98353 0.2563 0.0
C14 C 0.05718 0.03007 0.22873 0.0
Zn15 Zn -0.00657 0.98526 0.05674 0.0
O16 O 0.09948 0.98509 0.96423 0.0
C17 C -0.00531 0.13615 1.00909 0.0
O18 O 0.11218 -0.00942 0.05485 0.0
H19 H 0.90459 0.90383 0.14328 0.0
H20 H 0.05463 0.07337 0.87785 0.0
H21 H 0.09499 0.06722 0.14948 0.0
O22 O 0.98573 0.09624 0.96516 0.0
O23 O 0.00053 0.1042 0.05559 0.0
H24 H 0.89518 0.87982 0.8722 0.0
O25 O 0.87473 0.98001 0.05674 0.0
O26 O 0.86191 0.97012 0.9663 0.0
O27 O 0.98623 0.86655 0.05686 0.0
O28 O 0.97585 0.85872 0.96625 0.0
C29 C 0.83245 0.97337 0.01281 0.0
H30 H 0.04932 0.07967 0.77644 0.0
H31 H 0.8886 0.88073 0.76998 0.0
H32 H 0.90544 0.90062 0.24462 0.0
H33 H 0.10074 0.06621 0.25166 0.0
C34 C 0.93761 0.98563 0.34508 0.0
C35 C 0.00422 0.9818 0.31752 0.0
C36 C 0.93772 0.9813 0.40267 0.0
C37 C 0.00451 0.97257 0.43388 0.0
C38 C 0.07097 0.96826 0.4063 0.0
C39 C 0.07107 0.97367 0.34868 0.0
C40 C 0.00568 0.96491 0.49491 0.0
C41 C 0.96074 0.00011 0.52677 0.0
C42 C 0.9626 -0.00653 0.58782 0.0
C43 C 0.94946 0.05561 0.62 0.0
C44 C 0.95131 0.05137 0.67763 0.0
C45 C 0.96444 0.98422 0.70409 0.0
H46 H 0.98356 0.87647 0.59044 0.0
C47 C 0.97548 0.92126 0.67192 0.0
C48 C 0.97508 0.92593 0.61425 0.0
H49 H 0.98569 0.86888 0.69145 0.0
H50 H 0.88529 -0.00806 0.32203 0.0
H51 H 0.88509 0.98301 0.42245 0.0
H52 H 0.12299 0.9609 0.4294 0.0
H53 H 0.123 0.96969 0.32839 0.0
H54 H 0.04741 0.93252 0.51429 0.0
H55 H 0.92461 0.03881 0.50803 0.0
H56 H 0.93893 0.10796 0.60054 0.0
H57 H 0.94197 0.10048 0.70158 0.0
C58 C 0.27159 -0.00696 0.05287 0.0
C59 C 0.22419 -0.0077 1.00475 0.0
C60 C 0.34934 -0.00621 0.04924 0.0
C61 C 0.38128 -0.00652 0.99726 0.0
C62 C 0.33394 -0.00563 0.94933 0.0
C63 C 0.25631 -0.00658 0.95295 0.0
C64 C 0.46352 -0.00593 0.99109 0.0
C65 C 0.51063 0.96852 0.02989 0.0
C66 C 0.59285 0.96924 0.02372 0.0
C67 C 0.64028 0.96922 0.07167 0.0
C68 C 0.71791 0.97032 0.06805 0.0
C69 C 0.74995 0.97063 0.01623 0.0
H70 H 0.59001 0.96555 0.93373 0.0
C71 C 0.70247 0.96899 0.96811 0.0
C72 C 0.6247 0.96817 0.97174 0.0
H73 H 0.72532 0.9685 0.92756 0.0
H74 H 0.24869 -0.00707 0.09343 0.0
H75 H 0.38392 -0.00423 0.08728 0.0
H76 H 0.35699 -0.00507 0.9088 0.0
H77 H 0.2215 -0.00667 0.91501 0.0
H78 H 0.48526 0.01536 0.95253 0.0
H79 H 0.48895 0.94724 0.06847 0.0
H80 H 0.61729 0.96925 0.11221 0.0
H81 H 0.75279 0.97107 0.106 0.0
C82 C 0.97365 0.69914 0.96831 0.0
C83 C 0.97688 0.74403 0.01639 0.0
C84 C 0.97295 0.62119 0.97204 0.0
C85 C 0.9758 0.58654 0.02406 0.0
C86 C 0.97739 0.63139 0.07194 0.0
C87 C 0.97831 0.70921 0.06823 0.0
C88 C 0.97536 0.50398 0.03033 0.0
C89 C -0.00101 0.45886 0.99168 0.0
C90 C -0.00156 0.37631 0.99794 0.0
C91 C -0.00404 0.33138 0.95005 0.0
C92 C -0.00506 0.25356 0.95376 0.0
C93 C -0.00278 0.21882 1.00561 0.0
H94 H 0.00665 0.37449 0.08794 0.0
C95 C 0.00133 0.2638 0.0537 0.0
C96 C 0.00206 0.34176 0.04997 0.0
H97 H 0.00385 0.23882 0.09427 0.0
H98 H 0.97176 0.72417 0.92774 0.0
H99 H 0.969 0.58858 0.93403 0.0
H100 H 0.97881 0.60622 0.1125 0.0
H101 H 0.98033 0.74205 0.10614 0.0
H102 H 0.95586 0.48024 0.06885 0.0
H103 H 0.01847 0.48253 0.95314 0.0
H104 H -0.00607 0.35649 0.90948 0.0
H105 H -0.00774 0.22066 0.91584 0.0
loop_
_geom_bond_atom_site_label_1
_geom_bond_atom_site_label_2
_geom_bond_distance
_geom_bond_site_symmetry_2
_ccdc_geom_bond_type
C0 O16 1.243 1_544 S
C0 O18 1.263 . S
N1 C2 1.333 1_665 S
N1 C6 1.307 . S
N1 Zn7 2.020 . S
C2 N1 1.333 1_445 S
C2 C3 1.379 . S
C2 H20 0.952 . S
C3 C2 1.379 . S
C3 C4 1.391 1_455 S
C3 H30 0.949 . S
C4 C3 1.391 1_655 S
C4 C5 1.355 1_545 S
C5 C4 1.355 1_565 S
C5 C6 1.370 . S
C5 H31 0.950 . S
C6 N1 1.307 . S
C6 C5 1.370 . S
C6 H24 0.948 . S
Zn7 N1 2.020 . S
Zn7 O16 2.039 1_655 S
Zn7 O22 2.034 1_665 S
Zn7 O26 2.025 . S
Zn7 O28 2.024 . S
C8 O27 1.246 1_556 S
C8 O28 1.249 . S
N9 C10 1.307 . S
N9 C11 1.333 1_445 S
N9 Zn15 2.020 . S
C10 N9 1.307 . S
C10 C14 1.370 . S
C10 H21 0.948 . S
C11 N9 1.333 1_665 S
C11 C12 1.379 . S
C11 H19 0.952 . S
C12 C11 1.379 . S
C12 C13 1.390 1_655 S
C12 H32 0.949 . S
C13 C12 1.390 1_455 S
C13 C14 1.356 1_565 S
C14 C10 1.370 . S
C14 C13 1.356 1_545 S
C14 H33 0.950 . S
Zn15 N9 2.020 . S
Zn15 O18 2.025 . S
Zn15 O23 2.024 . S
Zn15 O25 2.039 1_455 S
Zn15 O27 2.034 1_445 S
O16 C0 1.243 1_566 S
O16 Zn7 2.039 1_455 S
C17 O22 1.246 1_554 S
C17 O23 1.249 . S
O18 C0 1.263 . S
O18 Zn15 2.025 . S
H19 C11 0.952 . S
H20 C2 0.952 . S
H21 C10 0.948 . S
O22 Zn7 2.034 1_445 S
O22 C17 1.246 1_556 S
O23 Zn15 2.024 . S
O23 C17 1.249 . S
H24 C6 0.948 . S
O25 Zn15 2.039 1_655 S
O25 C29 1.247 1_544 S
O26 Zn7 2.025 . S
O26 C29 1.260 . S
O27 C8 1.246 1_554 S
O27 Zn15 2.034 1_665 S
O28 Zn7 2.024 . S
O28 C8 1.249 . S
C29 O25 1.247 1_566 S
C29 O26 1.260 . S
H30 C3 0.949 . S
H31 C5 0.950 . S
H32 C12 0.949 . S
H33 C14 0.950 . S
C34 C35 1.392 1_545 S
C34 C36 1.383 . S
C34 H50 0.951 . S
C35 C34 1.392 1_565 S
C35 C39 1.377 1_655 S
C36 C34 1.383 . S
C36 C37 1.402 1_545 S
C36 H51 0.951 . S
C37 C36 1.402 1_565 S
C37 C38 1.375 1_655 S
C37 C40 1.481 . S
C38 C37 1.375 1_455 S
C38 C39 1.367 . S
C38 H52 0.951 . S
C39 C35 1.377 1_455 S
C39 C38 1.367 . S
C39 H53 0.950 . S
C40 C37 1.481 . S
C40 C41 1.297 . S
C40 H54 0.950 1_655 S
C41 C40 1.297 . S
C41 C42 1.479 . S
C41 H55 0.950 1_565 S
C42 C41 1.479 . S
C42 C43 1.375 1_565 S
C42 C48 1.404 1_655 S
C43 C42 1.375 1_545 S
C43 C44 1.369 . S
C43 H56 0.950 . S
C44 C43 1.369 . S
C44 C45 1.392 1_545 S
C44 H57 0.951 . S
C45 C44 1.392 1_565 S
C45 C47 1.384 1_655 S
H46 C48 0.949 . S
C47 C45 1.384 1_455 S
C47 C48 1.385 . S
C47 H49 0.950 . S
C48 C42 1.404 1_455 S
C48 H46 0.949 . S
C48 C47 1.385 . S
H49 C47 0.950 . S
H50 C34 0.951 . S
H51 C36 0.951 . S
H52 C38 0.951 . S
H53 C39 0.950 . S
H54 C40 0.950 1_455 S
H55 C41 0.950 1_545 S
H56 C43 0.950 . S
H57 C44 0.951 . S
C58 C59 1.386 1_564 S
C58 C60 1.383 . S
C58 H74 0.951 . S
C59 C58 1.386 1_546 S
C59 C63 1.383 . S
C60 C58 1.383 . S
C60 C61 1.402 1_564 S
C60 H75 0.951 . S
C61 C60 1.402 1_546 S
C61 C62 1.375 . S
C61 C64 1.481 . S
C62 C61 1.375 . S
C62 C63 1.367 . S
C62 H76 0.951 . S
C63 C59 1.383 . S
C63 C62 1.367 . S
C63 H77 0.950 . S
C64 C61 1.481 . S
C64 C65 1.297 1_545 S
C64 H78 0.950 . S
C65 C64 1.297 1_565 S
C65 C66 1.479 . S
C65 H79 0.950 1_556 S
C66 C65 1.479 . S
C66 C67 1.375 1_556 S
C66 C72 1.404 1_565 S
C67 C66 1.375 1_554 S
C67 C68 1.369 . S
C67 H80 0.950 . S
C68 C67 1.369 . S
C68 C69 1.392 1_554 S
C68 H81 0.951 . S
C69 C68 1.392 1_556 S
C69 C71 1.384 1_565 S
H70 C72 0.949 . S
C71 C69 1.384 1_545 S
C71 C72 1.385 . S
C71 H73 0.950 . S
C72 C66 1.404 1_545 S
C72 H70 0.949 . S
C72 C71 1.385 . S
H73 C71 0.950 . S
H74 C58 0.951 . S
H75 C60 0.951 . S
H76 C62 0.951 . S
H77 C63 0.950 . S
H78 C64 0.950 . S
H79 C65 0.950 1_554 S
H80 C67 0.950 . S
H81 C68 0.951 . S
C82 C83 1.386 1_556 S
C82 C84 1.383 . S
C82 H98 0.951 . S
C83 C82 1.386 1_554 S
C83 C87 1.383 1_455 S
C84 C82 1.383 . S
C84 C85 1.402 1_556 S
C84 H99 0.951 . S
C85 C84 1.402 1_554 S
C85 C86 1.375 1_455 S
C85 C88 1.481 . S
C86 C85 1.375 1_655 S
C86 C87 1.367 . S
C86 H100 0.951 . S
C87 C83 1.383 1_655 S
C87 C86 1.367 . S
C87 H101 0.950 . S
C88 C85 1.481 . S
C88 C89 1.297 . S
C88 H102 0.950 1_455 S
C89 C88 1.297 . S
C89 C90 1.479 . S
C89 H103 0.950 1_554 S
C90 C89 1.479 . S
C90 C91 1.375 1_554 S
C90 C96 1.404 . S
C91 C90 1.375 1_556 S
C91 C92 1.369 . S
C91 H104 0.950 . S
C92 C91 1.369 . S
C92 C93 1.392 1_556 S
C92 H105 0.951 . S
C93 C92 1.392 1_554 S
C93 C95 1.384 1_455 S
H94 C96 0.949 1_655 S
C95 C93 1.384 1_655 S
C95 C96 1.385 1_655 S
C95 H97 0.950 . S
C96 C90 1.404 . S
C96 H94 0.949 1_455 S
C96 C95 1.385 1_455 S
H97 C95 0.950 . S
H98 C82 0.951 . S
H99 C84 0.951 . S
H100 C86 0.951 . S
H101 C87 0.950 . S
H102 C88 0.950 1_655 S
H103 C89 0.950 1_556 S
H104 C91 0.950 . S
H105 C92 0.951 . S
C35 C13 1.493 1_655 S
C45 C4 1.478 1_565 S
C59 C0 1.495 1_556 S
C69 C29 1.485 . S
C83 C8 1.497 1_454 S
C93 C17 1.474 . S
