# Generated by pormake.
# Topology kag, (6)-cn, num edge types: 1
# Building blocks:
#     Node 0, Type 0, BuildingBlock: PAMTUU_clean_sbu_0, # of connection points: 6
#     Node 1, Type 0, BuildingBlock: PAMTUU_clean_sbu_0, # of connection points: 6
#     Node 2, Type 0, BuildingBlock: PAMTUU_clean_sbu_0, # of connection points: 6
#     Edge 3, Type (0, 0), BuildingBlock: OJICUG_clean_linker_0, # of connection points: 2
#     Edge 4, Type (0, 0), BuildingBlock: OJICUG_clean_linker_0, # of connection points: 2
#     Edge 5, Type (0, 0), BuildingBlock: OJICUG_clean_linker_0, # of connection points: 2
#     Edge 6, Type (0, 0), BuildingBlock: OJICUG_clean_linker_0, # of connection points: 2
#     Edge 7, Type (0, 0), BuildingBlock: OJICUG_clean_linker_0, # of connection points: 2
#     Edge 8, Type (0, 0), BuildingBlock: OJICUG_clean_linker_0, # of connection points: 2
#     Edge 9, Type (0, 0), BuildingBlock: OJICUG_clean_linker_0, # of connection points: 2
#     Edge 10, Type (0, 0), BuildingBlock: OJICUG_clean_linker_0, # of connection points: 2
#     Edge 11, Type (0, 0), BuildingBlock: OJICUG_clean_linker_0, # of connection points: 2
# Relax obj value: 0.148
# Max RMSD: 0.204
# Mean RMSD: 0.144
data_MOF--net-kag--node1-PAMTUU_clean_sbu_0--edge1-OJICUG_clean_linker_0
_symmetry_space_group_name_H-M    P1
_symmetry_Int_Tables_number       1
_symmetry_cell_setting            triclinic
loop_
_symmetry_equiv_pos_as_xyz
'x, y, z'
_cell_length_a     40.683057
_cell_length_b     22.494213
_cell_length_c     11.072308
_cell_angle_alpha  87.550104
_cell_angle_beta   98.188625
_cell_angle_gamma 123.67431
loop_
_atom_site_label
_atom_site_type_symbol
_atom_site_fract_x
_atom_site_fract_y
_atom_site_fract_z
_atom_type_partial_charge
Tb0 Tb 1.04678 0.63319 0.97372 0.0
Tb1 Tb 0.0539 0.49406 -0.00937 0.0
C2 C 0.04986 0.56164 0.7425 0.0
C3 C 1.00073 0.7328 -0.00879 0.0
C4 C 0.92935 0.7198 0.01957 0.0
C5 C 0.95468 0.76945 0.94019 0.0
C6 C 0.99009 0.77584 0.92615 0.0
C7 C 0.9761 0.68455 0.07314 0.0
C8 C 0.94078 0.67835 0.08767 0.0
C9 C 1.03446 0.73177 0.96165 0.0
O10 O 0.98951 0.54277 0.01365 0.0
O11 O 0.99006 0.44912 0.94101 0.0
O12 O 1.03851 0.50479 0.16388 0.0
O13 O 0.06488 0.62496 0.16491 0.0
O14 O 1.04554 0.40224 0.91239 0.0
O15 O 0.07302 0.43725 0.09942 0.0
O16 O 0.11461 0.589 0.0294 0.0
O17 O 0.1078 0.67739 0.94369 0.0
O18 O 1.03253 0.58818 0.78923 0.0
O19 O 0.06696 0.53448 0.81091 0.0
C20 C 0.97082 0.47549 0.97624 0.0
O21 O 0.05655 0.72616 0.05267 0.0
O22 O 1.02551 0.68854 0.8703 0.0
C23 C 0.05217 0.56532 0.22224 0.0
C24 C 0.1013 0.39724 0.98488 0.0
C25 C 0.17407 0.4129 0.96706 0.0
C26 C 0.14672 0.35924 0.03751 0.0
C27 C 0.11059 0.35154 0.04636 0.0
C28 C 0.12827 0.45023 0.91321 0.0
C29 C 0.16426 0.45781 0.90397 0.0
C30 C 0.06621 0.39583 0.00747 0.0
C31 C 0.12999 0.65317 0.98562 0.0
H32 H 0.94682 0.80265 0.88762 0.0
H33 H 1.00852 0.81276 0.8616 0.0
H34 H 0.9835 0.64997 0.12283 0.0
H35 H 0.92167 0.63918 0.14852 0.0
H36 H 0.15333 0.32344 0.08618 0.0
H37 H 0.09038 0.3111 0.10353 0.0
H38 H 0.12203 0.48715 0.86723 0.0
H39 H 0.18494 0.50027 0.85046 0.0
Tb40 Tb 0.50298 1.02509 0.97408 0.0
Tb41 Tb 0.60358 0.12599 0.01297 0.0
C42 C 0.55238 0.07429 0.75286 0.0
C43 C 0.38401 0.91082 0.95323 0.0
C44 C 0.30038 0.82794 0.95671 0.0
C45 C 0.31806 0.80317 0.89109 0.0
C46 C 0.3594 0.84437 0.88878 0.0
C47 C 0.36632 0.93596 0.01757 0.0
C48 C 0.32501 0.89524 0.0187 0.0
C49 C 0.42807 0.95217 0.95944 0.0
O50 O 0.51942 0.94896 0.95972 0.0
O51 O 0.58758 1.016 0.02695 0.0
O52 O 0.58323 0.12884 0.1829 0.0
O53 O 0.52478 1.01846 0.16147 0.0
O54 O 0.65677 0.20966 0.95579 0.0
O55 O 0.65811 0.15673 0.12285 0.0
O56 O 0.58594 0.20041 0.9674 0.0
O57 O 0.52022 0.13483 0.00036 0.0
O58 O 0.52099 1.06398 0.79547 0.0
O59 O 0.58398 0.08472 0.82478 0.0
C60 C 0.55349 0.95458 -0.00725 0.0
O61 O 0.45187 1.00236 0.04338 0.0
O62 O 0.44645 0.94344 0.88145 0.0
C63 C 0.55396 0.0735 0.23035 0.0
C64 C 0.71943 0.22608 0.03575 0.0
C65 C 0.80111 0.29368 0.01219 0.0
C66 C 0.78905 0.28695 0.12759 0.0
C67 C 0.74874 0.25343 0.13913 0.0
C68 C 0.73106 0.22914 0.92059 0.0
C69 C 0.77158 0.26219 0.90909 0.0
C70 C 0.67904 0.20703 0.05009 0.0
C71 C 0.55311 0.19576 0.98201 0.0
H72 H 0.29991 0.75186 0.84142 0.0
H73 H 0.37219 0.82349 0.83874 0.0
H74 H 0.38449 0.98691 0.06835 0.0
H75 H 0.31247 0.91567 0.07097 0.0
H76 H 0.81102 0.30997 0.20883 0.0
H77 H 0.74068 0.25243 0.22873 0.0
H78 H 0.70915 0.20907 0.83903 0.0
H79 H 0.77999 0.26675 0.81896 0.0
Tb80 Tb 0.60227 0.62485 -0.00095 0.0
Tb81 Tb 0.50386 0.52491 0.95407 0.0
C82 C 0.55171 0.57387 0.2159 0.0
C83 C 0.71113 0.69148 0.04142 0.0
C84 C 0.77934 0.68759 0.04672 0.0
C85 C 0.77904 0.73312 0.12895 0.0
C86 C 0.74525 0.73519 0.12591 0.0
C87 C 0.71062 0.64345 0.96292 0.0
C88 C 0.74454 0.64177 0.96523 0.0
C89 C 0.67779 0.70076 0.03116 0.0
O90 O 0.58701 0.51771 0.95815 0.0
O91 O 0.52252 0.45187 0.00197 0.0
O92 O 0.52454 0.52035 0.78688 0.0
O93 O 0.58214 0.63123 0.80883 0.0
O94 O 0.44921 0.44553 0.0099 0.0
O95 O 0.45143 0.49098 0.83276 0.0
O96 O 0.51997 0.63476 0.93339 0.0
O97 O 0.58513 0.69829 0.02906 0.0
O98 O 0.58234 0.58149 0.17339 0.0
O99 O 0.52075 0.56488 0.14278 0.0
C100 C 0.55485 0.4565 0.98047 0.0
O101 O 0.65576 0.68494 0.92507 0.0
O102 O 0.6564 0.67818 0.11987 0.0
C103 C 0.55326 0.57616 0.73934 0.0
C104 C 0.39327 0.44758 0.92132 0.0
C105 C 0.32366 0.44359 0.93797 0.0
C106 C 0.32466 0.4052 0.84333 0.0
C107 C 0.35913 0.40717 0.83529 0.0
C108 C 0.39275 0.48669 0.01563 0.0
C109 C 0.35806 0.48444 0.02419 0.0
C110 C 0.42861 0.44716 0.90964 0.0
C111 C 0.55246 0.69469 0.98227 0.0
H112 H 0.8055 0.76939 0.19208 0.0
H113 H 0.74619 0.7726 0.18713 0.0
H114 H 0.68445 0.60865 0.89762 0.0
H115 H 0.74379 0.60549 0.90193 0.0
H116 H 0.29851 0.37249 0.7766 0.0
H117 H 0.35905 0.37662 0.76201 0.0
H118 H 0.419 0.51862 0.08246 0.0
H119 H 0.35822 0.51504 0.09747 0.0
C120 C 0.05437 0.51333 0.55102 0.0
C121 C 0.05045 0.56285 0.60941 0.0
H122 H 0.05748 0.47487 0.38224 0.0
C123 C 1.0476 0.61394 0.53975 0.0
H124 H 0.05659 0.47331 0.60242 0.0
C125 C 0.04897 0.61579 0.41403 0.0
C126 C 0.05227 0.56552 0.35551 0.0
H127 H 1.04482 0.65305 0.58261 0.0
H128 H 1.04672 0.6557 0.36235 0.0
C129 C 0.05479 0.51412 0.42505 0.0
C130 C 0.51719 1.034 0.41198 0.0
C131 C 0.55346 0.07367 0.36393 0.0
H132 H 0.48831 1.00425 0.5725 0.0
C133 C 0.58921 0.11392 0.44468 0.0
H134 H 0.48913 1.0028 0.3519 0.0
C135 C 0.58878 0.1136 0.5709 0.0
C136 C 0.55251 0.0745 0.619 0.0
H137 H 0.61761 0.14488 0.41043 0.0
H138 H 0.61689 0.1447 0.63085 0.0
C139 C 0.51669 1.03514 0.53814 0.0
C140 C 0.58881 0.61514 0.55541 0.0
C141 C 0.55296 0.57648 0.60547 0.0
H142 H 0.61652 0.64335 0.39282 0.0
C143 C 0.51668 0.53726 0.52644 0.0
H144 H 0.61721 0.64556 0.61418 0.0
C145 C 0.51622 0.53727 0.39978 0.0
C146 C 0.55209 0.57488 0.34975 0.0
H147 H 0.48857 0.50718 0.56249 0.0
H148 H 0.4878 0.50685 0.3411 0.0
C149 C 0.58841 0.61355 0.42886 0.0
C150 C 0.22759 0.43484 0.84833 0.0
C151 C 0.21296 0.42274 0.96052 0.0
H152 H 0.27425 0.45181 0.75363 0.0
C153 C 0.2358 0.42035 0.06629 0.0
H154 H 0.21062 0.43671 0.76521 0.0
C155 C 0.27224 0.42889 0.05964 0.0
C156 C 0.28642 0.43948 0.94695 0.0
H157 H 0.22554 0.41212 0.15433 0.0
H158 H 0.28884 0.42549 0.14221 0.0
C159 C 0.26387 0.44298 0.84158 0.0
C160 C 0.86838 0.40779 0.05731 0.0
C161 C 0.84439 0.33924 -0.00019 0.0
H162 H 0.92634 0.50402 0.0941 0.0
C163 C 0.86211 0.31571 0.93169 0.0
H164 H 0.85557 0.42796 0.10897 0.0
C165 C 0.90321 0.35941 0.92388 0.0
C166 C 0.92717 0.42802 0.98204 0.0
H167 H 0.84433 0.26313 0.88631 0.0
H168 H 0.91614 0.33963 0.87197 0.0
C169 C 0.90904 0.45164 0.04802 0.0
C170 C 0.51804 0.8221 0.94767 0.0
C171 C 0.55323 0.88802 -0.00933 0.0
H172 H 0.49008 0.70997 0.91099 0.0
C173 C 0.58805 0.88944 0.03104 0.0
H174 H 0.49058 0.81863 0.91563 0.0
C175 C 0.5877 0.82684 0.02855 0.0
C176 C 0.55255 0.761 0.9852 0.0
H177 H 0.61572 0.93896 0.06483 0.0
H178 H 0.61517 0.83031 0.06039 0.0
C179 C 0.51773 0.75953 0.94478 0.0
C180 C 0.86573 0.70459 0.92038 0.0
C181 C 0.89039 0.70935 0.02734 0.0
H182 H 0.81127 0.69362 0.84289 0.0
C183 C 0.8775 0.70379 0.14096 0.0
H184 H 0.87462 0.70764 0.83144 0.0
C185 C 0.84108 0.69544 0.1475 0.0
C186 C 0.8167 0.69167 0.04047 0.0
H187 H 0.89593 0.70735 0.22486 0.0
H188 H 0.83204 0.69214 0.23626 0.0
C189 C 0.82923 0.69562 0.92685 0.0
C190 C 0.19309 0.77173 0.95796 0.0
C191 C 0.17368 0.69842 0.98009 0.0
H192 H 0.2481 0.86994 0.93323 0.0
C193 C 0.1963 0.66809 -0.00643 0.0
H194 H 0.17665 0.79688 0.94682 0.0
C195 C 0.23715 0.70982 0.98445 0.0
C196 C 0.25662 0.78321 0.96318 0.0
H197 H 0.18239 0.61177 0.01 0.0
H198 H 0.25364 0.68475 -0.00407 0.0
C199 C 0.23409 0.81369 0.95049 0.0
C200 C 0.51999 0.3234 -0.00114 0.0
C201 C 0.55459 0.38997 0.98055 0.0
H202 H 0.49224 0.21054 0.01323 0.0
C203 C 0.58864 0.39191 0.96154 0.0
H204 H 0.49312 0.31954 0.01351 0.0
C205 C 0.5881 0.32904 0.96131 0.0
C206 C 0.5535 0.26248 0.97991 0.0
H207 H 0.61583 0.44206 0.94704 0.0
H208 H 0.61496 0.33281 0.94684 0.0
C209 C 0.51944 0.26059 -0.00152 0.0
loop_
_geom_bond_atom_site_label_1
_geom_bond_atom_site_label_2
_geom_bond_distance
_geom_bond_site_symmetry_2
_ccdc_geom_bond_type
Tb0 C9 2.764 . S
Tb0 O10 2.325 . S
Tb0 O13 2.303 1_656 S
Tb0 O17 2.322 1_655 S
Tb0 O18 2.349 . S
Tb0 O21 2.415 1_556 S
Tb0 O22 2.399 . S
Tb1 O11 2.322 1_455 S
Tb1 O12 2.349 . S
Tb1 O14 2.415 1_554 S
Tb1 O15 2.399 . S
Tb1 O16 2.325 . S
Tb1 O19 2.303 1_554 S
Tb1 C30 2.764 . S
C2 O18 1.261 . S
C2 O19 1.257 1_655 S
C3 C6 1.358 . S
C3 C7 1.332 1_556 S
C3 C9 1.504 . S
C4 C5 1.373 1_554 S
C4 C8 1.308 . S
C5 C4 1.373 1_556 S
C5 C6 1.429 . S
C5 H32 0.932 . S
C6 C3 1.358 . S
C6 C5 1.429 . S
C6 H33 0.930 . S
C7 C3 1.332 1_554 S
C7 C8 1.394 . S
C7 H34 0.932 . S
C8 C4 1.308 . S
C8 C7 1.394 . S
C8 H35 0.929 . S
C9 Tb0 2.764 . S
C9 C3 1.504 . S
C9 O21 1.239 1_556 S
C9 O22 1.263 . S
O10 Tb0 2.325 . S
O10 C20 1.236 . S
O11 Tb1 2.322 1_655 S
O11 C20 1.257 1_554 S
O12 Tb1 2.349 . S
O12 C23 1.261 . S
O13 Tb0 2.303 1_454 S
O13 C23 1.257 . S
O14 Tb1 2.415 1_556 S
O14 C30 1.239 1_556 S
O15 Tb1 2.399 . S
O15 C30 1.263 . S
O16 Tb1 2.325 . S
O16 C31 1.236 . S
O17 Tb0 2.322 1_455 S
O17 C31 1.257 1_556 S
O18 Tb0 2.349 . S
O18 C2 1.261 . S
O19 Tb1 2.303 1_556 S
O19 C2 1.257 1_455 S
C20 O10 1.236 . S
C20 O11 1.257 1_556 S
O21 Tb0 2.415 1_554 S
O21 C9 1.239 1_554 S
O22 Tb0 2.399 . S
O22 C9 1.263 . S
C23 O12 1.261 . S
C23 O13 1.257 . S
C24 C27 1.358 . S
C24 C28 1.332 1_554 S
C24 C30 1.504 . S
C25 C26 1.373 1_556 S
C25 C29 1.308 . S
C26 C25 1.373 1_554 S
C26 C27 1.429 . S
C26 H36 0.932 . S
C27 C24 1.358 . S
C27 C26 1.429 . S
C27 H37 0.930 . S
C28 C24 1.332 1_556 S
C28 C29 1.394 . S
C28 H38 0.932 . S
C29 C25 1.308 . S
C29 C28 1.394 . S
C29 H39 0.929 . S
C30 Tb1 2.764 . S
C30 O14 1.239 1_554 S
C30 O15 1.263 . S
C30 C24 1.504 . S
C31 O16 1.236 . S
C31 O17 1.257 1_554 S
H32 C5 0.932 . S
H33 C6 0.930 . S
H34 C7 0.932 . S
H35 C8 0.929 . S
H36 C26 0.932 . S
H37 C27 0.930 . S
H38 C28 0.932 . S
H39 C29 0.929 . S
Tb40 C49 2.764 . S
Tb40 O50 2.325 . S
Tb40 O53 2.303 1_556 S
Tb40 O57 2.322 1_565 S
Tb40 O58 2.349 . S
Tb40 O61 2.415 1_556 S
Tb40 O62 2.399 . S
Tb41 O51 2.322 1_545 S
Tb41 O52 2.349 . S
Tb41 O54 2.415 1_554 S
Tb41 O55 2.399 . S
Tb41 O56 2.325 . S
Tb41 O59 2.303 1_554 S
Tb41 C70 2.764 . S
C42 O58 1.261 . S
C42 O59 1.257 1_565 S
C43 C46 1.358 . S
C43 C47 1.332 1_556 S
C43 C49 1.504 . S
C44 C45 1.381 . S
C44 C48 1.302 1_556 S
C45 C44 1.381 . S
C45 C46 1.429 . S
C45 H72 0.932 . S
C46 C43 1.358 . S
C46 C45 1.429 . S
C46 H73 0.930 . S
C47 C43 1.332 1_554 S
C47 C48 1.394 . S
C47 H74 0.932 . S
C48 C44 1.302 1_554 S
C48 C47 1.394 . S
C48 H75 0.929 . S
C49 Tb40 2.764 . S
C49 C43 1.504 . S
C49 O61 1.239 1_556 S
C49 O62 1.263 . S
O50 Tb40 2.325 . S
O50 C60 1.236 1_556 S
O51 Tb41 2.322 1_565 S
O51 C60 1.257 . S
O52 Tb41 2.349 . S
O52 C63 1.261 . S
O53 Tb40 2.303 1_554 S
O53 C63 1.257 1_565 S
O54 Tb41 2.415 1_556 S
O54 C70 1.239 1_556 S
O55 Tb41 2.399 . S
O55 C70 1.263 . S
O56 Tb41 2.325 . S
O56 C71 1.236 1_554 S
O57 Tb40 2.322 1_545 S
O57 C71 1.257 . S
O58 Tb40 2.349 . S
O58 C42 1.261 . S
O59 Tb41 2.303 1_556 S
O59 C42 1.257 1_545 S
C60 O50 1.236 1_554 S
C60 O51 1.257 . S
O61 Tb40 2.415 1_554 S
O61 C49 1.239 1_554 S
O62 Tb40 2.399 . S
O62 C49 1.263 . S
C63 O52 1.261 . S
C63 O53 1.257 1_545 S
C64 C67 1.358 . S
C64 C68 1.332 1_554 S
C64 C70 1.504 . S
C65 C66 1.373 . S
C65 C69 1.308 1_554 S
C66 C65 1.373 . S
C66 C67 1.429 . S
C66 H76 0.932 . S
C67 C64 1.358 . S
C67 C66 1.429 . S
C67 H77 0.930 . S
C68 C64 1.332 1_556 S
C68 C69 1.394 . S
C68 H78 0.932 . S
C69 C65 1.308 1_556 S
C69 C68 1.394 . S
C69 H79 0.929 . S
C70 Tb41 2.764 . S
C70 O54 1.239 1_554 S
C70 O55 1.263 . S
C70 C64 1.504 . S
C71 O56 1.236 1_556 S
C71 O57 1.257 . S
H72 C45 0.932 . S
H73 C46 0.930 . S
H74 C47 0.932 . S
H75 C48 0.929 . S
H76 C66 0.932 . S
H77 C67 0.930 . S
H78 C68 0.932 . S
H79 C69 0.929 . S
Tb80 C89 2.764 . S
Tb80 O90 2.325 . S
Tb80 O93 2.303 1_554 S
Tb80 O97 2.322 . S
Tb80 O98 2.349 . S
Tb80 O101 2.415 1_554 S
Tb80 O102 2.399 . S
Tb81 O91 2.322 . S
Tb81 O92 2.349 . S
Tb81 O94 2.415 1_556 S
Tb81 O95 2.399 . S
Tb81 O96 2.325 . S
Tb81 O99 2.303 1_556 S
Tb81 C110 2.764 . S
C82 O98 1.261 . S
C82 O99 1.257 . S
C83 C86 1.358 . S
C83 C87 1.332 1_554 S
C83 C89 1.504 . S
C84 C85 1.373 . S
C84 C88 1.308 1_554 S
C85 C84 1.373 . S
C85 C86 1.429 . S
C85 H112 0.932 . S
C86 C83 1.358 . S
C86 C85 1.429 . S
C86 H113 0.930 . S
C87 C83 1.332 1_556 S
C87 C88 1.394 . S
C87 H114 0.932 . S
C88 C84 1.308 1_556 S
C88 C87 1.394 . S
C88 H115 0.929 . S
C89 Tb80 2.764 . S
C89 C83 1.504 . S
C89 O101 1.239 1_554 S
C89 O102 1.263 . S
O90 Tb80 2.325 . S
O90 C100 1.236 1_554 S
O91 Tb81 2.322 . S
O91 C100 1.257 . S
O92 Tb81 2.349 . S
O92 C103 1.261 . S
O93 Tb80 2.303 1_556 S
O93 C103 1.257 . S
O94 Tb81 2.415 1_554 S
O94 C110 1.239 1_554 S
O95 Tb81 2.399 . S
O95 C110 1.263 . S
O96 Tb81 2.325 . S
O96 C111 1.236 1_556 S
O97 Tb80 2.322 . S
O97 C111 1.257 . S
O98 Tb80 2.349 . S
O98 C82 1.261 . S
O99 Tb81 2.303 1_554 S
O99 C82 1.257 . S
C100 O90 1.236 1_556 S
C100 O91 1.257 . S
O101 Tb80 2.415 1_556 S
O101 C89 1.239 1_556 S
O102 Tb80 2.399 . S
O102 C89 1.263 . S
C103 O92 1.261 . S
C103 O93 1.257 . S
C104 C107 1.358 . S
C104 C108 1.332 1_556 S
C104 C110 1.504 . S
C105 C106 1.373 . S
C105 C109 1.308 1_556 S
C106 C105 1.373 . S
C106 C107 1.429 . S
C106 H116 0.932 . S
C107 C104 1.358 . S
C107 C106 1.429 . S
C107 H117 0.930 . S
C108 C104 1.332 1_554 S
C108 C109 1.394 . S
C108 H118 0.932 . S
C109 C105 1.308 1_554 S
C109 C108 1.394 . S
C109 H119 0.929 . S
C110 Tb81 2.764 . S
C110 O94 1.239 1_556 S
C110 O95 1.263 . S
C110 C104 1.504 . S
C111 O96 1.236 1_554 S
C111 O97 1.257 . S
H112 C85 0.932 . S
H113 C86 0.930 . S
H114 C87 0.932 . S
H115 C88 0.929 . S
H116 C106 0.932 . S
H117 C107 0.930 . S
H118 C108 0.932 . S
H119 C109 0.929 . S
C120 C121 1.387 1_655 S
C120 H124 0.950 . S
C120 C129 1.390 . S
C121 C120 1.387 1_455 S
C121 C123 1.387 . S
H122 C129 0.950 . S
C123 C121 1.387 . S
C123 C125 1.390 . S
C123 H127 0.950 . S
H124 C120 0.950 . S
C125 C123 1.390 . S
C125 C126 1.387 . S
C125 H128 0.950 . S
C126 C125 1.387 . S
C126 C129 1.387 1_455 S
H127 C123 0.950 . S
H128 C125 0.950 . S
C129 C120 1.390 . S
C129 H122 0.950 . S
C129 C126 1.387 1_655 S
C130 C131 1.387 . S
C130 H134 0.950 . S
C130 C139 1.390 . S
C131 C130 1.387 . S
C131 C133 1.387 1_565 S
H132 C139 0.950 . S
C133 C131 1.387 1_545 S
C133 C135 1.390 . S
C133 H137 0.950 . S
H134 C130 0.950 . S
C135 C133 1.390 . S
C135 C136 1.387 . S
C135 H138 0.950 . S
C136 C135 1.387 . S
C136 C139 1.387 1_545 S
H137 C133 0.950 . S
H138 C135 0.950 . S
C139 C130 1.390 . S
C139 H132 0.950 . S
C139 C136 1.387 1_565 S
C140 C141 1.387 . S
C140 H144 0.950 . S
C140 C149 1.390 . S
C141 C140 1.387 . S
C141 C143 1.387 . S
H142 C149 0.950 . S
C143 C141 1.387 . S
C143 C145 1.390 . S
C143 H147 0.950 . S
H144 C140 0.950 . S
C145 C143 1.390 . S
C145 C146 1.387 . S
C145 H148 0.950 . S
C146 C145 1.387 . S
C146 C149 1.387 . S
H147 C143 0.950 . S
H148 C145 0.950 . S
C149 C140 1.390 . S
C149 H142 0.950 . S
C149 C146 1.387 . S
C150 C151 1.387 . S
C150 H154 0.950 . S
C150 C159 1.390 . S
C151 C150 1.387 . S
C151 C153 1.387 1_556 S
H152 C159 0.950 . S
C153 C151 1.387 1_554 S
C153 C155 1.390 . S
C153 H157 0.950 . S
H154 C150 0.950 . S
C155 C153 1.390 . S
C155 C156 1.387 1_554 S
C155 H158 0.950 . S
C156 C155 1.387 1_556 S
C156 C159 1.387 . S
H157 C153 0.950 . S
H158 C155 0.950 . S
C159 C150 1.390 . S
C159 H152 0.950 . S
C159 C156 1.387 . S
C160 C161 1.387 . S
C160 H164 0.950 . S
C160 C169 1.390 . S
C161 C160 1.387 . S
C161 C163 1.387 1_554 S
H162 C169 0.950 . S
C163 C161 1.387 1_556 S
C163 C165 1.390 . S
C163 H167 0.950 . S
H164 C160 0.950 . S
C165 C163 1.390 . S
C165 C166 1.387 . S
C165 H168 0.950 . S
C166 C165 1.387 . S
C166 C169 1.387 1_556 S
H167 C163 0.950 . S
H168 C165 0.950 . S
C169 C160 1.390 . S
C169 H162 0.950 . S
C169 C166 1.387 1_554 S
C170 C171 1.387 1_556 S
C170 H174 0.950 . S
C170 C179 1.390 . S
C171 C170 1.387 1_554 S
C171 C173 1.387 . S
H172 C179 0.950 . S
C173 C171 1.387 . S
C173 C175 1.390 . S
C173 H177 0.950 . S
H174 C170 0.950 . S
C175 C173 1.390 . S
C175 C176 1.387 . S
C175 H178 0.950 . S
C176 C175 1.387 . S
C176 C179 1.387 1_554 S
H177 C173 0.950 . S
H178 C175 0.950 . S
C179 C170 1.390 . S
C179 H172 0.950 . S
C179 C176 1.387 1_556 S
C180 C181 1.387 1_556 S
C180 H184 0.950 . S
C180 C189 1.390 . S
C181 C180 1.387 1_554 S
C181 C183 1.387 . S
H182 C189 0.950 . S
C183 C181 1.387 . S
C183 C185 1.390 . S
C183 H187 0.950 . S
H184 C180 0.950 . S
C185 C183 1.390 . S
C185 C186 1.387 . S
C185 H188 0.950 . S
C186 C185 1.387 . S
C186 C189 1.387 1_554 S
H187 C183 0.950 . S
H188 C185 0.950 . S
C189 C180 1.390 . S
C189 H182 0.950 . S
C189 C186 1.387 1_556 S
C190 C191 1.387 . S
C190 H194 0.950 . S
C190 C199 1.390 . S
C191 C190 1.387 . S
C191 C193 1.387 1_554 S
H192 C199 0.950 . S
C193 C191 1.387 1_556 S
C193 C195 1.390 . S
C193 H197 0.950 . S
H194 C190 0.950 . S
C195 C193 1.390 . S
C195 C196 1.393 . S
C195 H198 0.950 . S
C196 C195 1.393 . S
C196 C199 1.380 1_556 S
H197 C193 0.950 . S
H198 C195 0.950 . S
C199 C190 1.390 . S
C199 H192 0.950 . S
C199 C196 1.380 1_554 S
C200 C201 1.387 . S
C200 H204 0.950 . S
C200 C209 1.390 . S
C201 C200 1.387 . S
C201 C203 1.387 1_556 S
H202 C209 0.950 . S
C203 C201 1.387 1_554 S
C203 C205 1.390 . S
C203 H207 0.950 . S
H204 C200 0.950 . S
C205 C203 1.390 . S
C205 C206 1.387 1_554 S
C205 H208 0.950 . S
C206 C205 1.387 1_556 S
C206 C209 1.387 . S
H207 C203 0.950 . S
H208 C205 0.950 . S
C209 C200 1.390 . S
C209 H202 0.950 . S
C209 C206 1.387 . S
C121 C2 1.464 1_455 S
C126 C23 1.464 . S
C131 C63 1.479 1_565 S
C136 C42 1.479 1_545 S
C141 C103 1.471 . S
C146 C82 1.471 . S
C151 C25 0.875 . S
C156 C105 0.894 . S
C161 C65 2.061 . S
C166 C20 2.070 . S
C171 C60 2.558 . S
C176 C111 2.601 . S
C181 C4 0.875 . S
C186 C84 0.894 . S
C191 C31 2.070 . S
C196 C44 2.061 . S
C201 C100 2.601 . S
C206 C71 2.558 . S
