# Generated by pormake.
# Topology pcu, (6)-cn, num edge types: 1
# Building blocks:
#     Node 0, Type 0, BuildingBlock: JUFBIX_clean_sbu_0, # of connection points: 6
#     Edge 1, Type (0, 0), None
#     Edge 2, Type (0, 0), None
#     Edge 3, Type (0, 0), None
# Relax obj value: 0.000
# Max RMSD: 0.000
# Mean RMSD: 0.000
data_MOF--net-pcu--node1-JUFBIX_clean_sbu_0--edge1-none
_symmetry_space_group_name_H-M    P1
_symmetry_Int_Tables_number       1
_symmetry_cell_setting            triclinic
loop_
_symmetry_equiv_pos_as_xyz
'x, y, z'
_cell_length_a     6.5136776
_cell_length_b     11.520642
_cell_length_c     6.381099
_cell_angle_alpha  85.124024
_cell_angle_beta   90.206327
_cell_angle_gamma 99.691143
loop_
_atom_site_label
_atom_site_type_symbol
_atom_site_fract_x
_atom_site_fract_y
_atom_site_fract_z
_atom_type_partial_charge
Co0 Co 0.9965 0.94757 0.04003 0.0
C1 C 0.02613 0.04616 0.42194 0.0
Co2 Co 0.05519 0.14382 1.01081 0.0
C3 C 0.05823 0.70956 0.98566 0.0
C4 C 0.79924 0.71297 0.18983 0.0
N5 N 0.94766 0.78379 0.06921 0.0
N6 N 0.98482 0.59573 0.05066 0.0
C7 C 0.82151 0.59686 0.17859 0.0
H8 H 0.19151 0.73879 0.88232 0.0
H9 H 0.68448 0.74395 0.2832 0.0
C10 C 1.02556 1.04523 0.6289 0.0
N11 N 0.10403 0.3076 0.98163 0.0
C12 C 0.9934 0.38182 0.06509 0.0
C13 C 0.25249 0.37842 0.86106 0.0
N14 N 0.06679 0.49566 1.00007 0.0
C15 C 0.23018 0.49453 0.87225 0.0
C16 C 0.41439 0.04572 0.02612 0.0
O17 O 0.99629 0.94759 0.74215 0.0
O18 O 0.05433 0.14212 0.71402 0.0
O19 O 0.3463 0.1429 1.01219 0.0
O20 O 0.28834 0.9486 0.04106 0.0
O21 O 0.0554 0.1438 0.30869 0.0
H22 H 0.36731 0.34744 0.76776 0.0
H23 H 0.86008 0.3526 0.16839 0.0
O24 O 0.99736 0.94927 0.33682 0.0
O25 O 0.70539 0.94849 0.03866 0.0
O26 O 0.76335 0.14278 1.00978 0.0
C27 C 0.6373 0.04566 1.02472 0.0
H28 H 0.72717 0.52015 0.26004 0.0
H29 H 0.32455 0.57124 0.79083 0.0
loop_
_geom_bond_atom_site_label_1
_geom_bond_atom_site_label_2
_geom_bond_distance
_geom_bond_site_symmetry_2
_ccdc_geom_bond_type
Co0 N5 2.057 1_556 S
Co0 O17 2.021 . S
Co0 O20 2.062 1_655 S
Co0 O24 2.117 1_556 S
Co0 O25 2.020 . S
C1 O21 1.259 . S
C1 O24 1.258 1_445 S
Co2 N11 2.057 1_554 S
Co2 O18 2.117 1_554 S
Co2 O19 2.020 . S
Co2 O21 2.021 . S
Co2 O26 2.062 1_455 S
C3 N5 1.316 1_556 S
C3 N6 1.347 1_556 S
C3 H8 0.931 . S
C4 N5 1.375 . S
C4 C7 1.350 . S
C4 H9 0.930 . S
N5 Co0 2.057 1_554 S
N5 C3 1.316 1_554 S
N5 C4 1.375 . S
N6 C3 1.347 1_554 S
N6 C7 1.373 . S
C7 C4 1.350 . S
C7 N6 1.373 . S
C7 H28 0.931 . S
H8 C3 0.931 . S
H9 C4 0.930 . S
C10 O17 1.259 . S
C10 O18 1.258 1_665 S
N11 Co2 2.057 1_556 S
N11 C12 1.316 1_556 S
N11 C13 1.375 . S
C12 N11 1.316 1_554 S
C12 N14 1.347 1_554 S
C12 H23 0.931 . S
C13 N11 1.375 . S
C13 C15 1.350 . S
C13 H22 0.930 . S
N14 C12 1.347 1_556 S
N14 C15 1.373 . S
C15 C13 1.350 . S
C15 N14 1.373 . S
C15 H29 0.931 . S
C16 O19 1.264 1_556 S
C16 O20 1.248 1_545 S
O17 Co0 2.021 . S
O17 C10 1.259 . S
O18 Co2 2.117 1_556 S
O18 C10 1.258 1_445 S
O19 Co2 2.020 . S
O19 C16 1.264 1_554 S
O20 Co0 2.062 1_455 S
O20 C16 1.248 1_565 S
O21 C1 1.259 . S
O21 Co2 2.021 . S
H22 C13 0.930 . S
H23 C12 0.931 . S
O24 Co0 2.117 1_554 S
O24 C1 1.258 1_665 S
O25 Co0 2.020 . S
O25 C27 1.261 1_556 S
O26 Co2 2.062 1_655 S
O26 C27 1.250 1_545 S
C27 O25 1.261 1_554 S
C27 O26 1.250 1_565 S
H28 C7 0.931 . S
H29 C15 0.931 . S
C1 C10 1.500 1_445 S
C16 C27 1.498 1_546 S
N6 N14 1.500 1_654 S
