# Generated by pormake.
# Topology pcu, (6)-cn, num edge types: 1
# Building blocks:
#     Node 0, Type 0, BuildingBlock: JUFBIX_clean_sbu_0, # of connection points: 6
#     Edge 1, Type (0, 0), BuildingBlock: CIFDUS_clean_linker_0, # of connection points: 2
#     Edge 2, Type (0, 0), BuildingBlock: CIFDUS_clean_linker_0, # of connection points: 2
#     Edge 3, Type (0, 0), BuildingBlock: CIFDUS_clean_linker_0, # of connection points: 2
# Relax obj value: 0.000
# Max RMSD: 0.000
# Mean RMSD: 0.000
data_MOF--net-pcu--node1-JUFBIX_clean_sbu_0--edge1-CIFDUS_clean_linker_0
_symmetry_space_group_name_H-M    P1
_symmetry_Int_Tables_number       1
_symmetry_cell_setting            triclinic
loop_
_symmetry_equiv_pos_as_xyz
'x, y, z'
_cell_length_a     13.041538
_cell_length_b     17.935712
_cell_length_c     13.02767
_cell_angle_alpha  87.287819
_cell_angle_beta   93.114005
_cell_angle_gamma 98.337324
loop_
_atom_site_label
_atom_site_type_symbol
_atom_site_fract_x
_atom_site_fract_y
_atom_site_fract_z
_atom_type_partial_charge
Co0 Co 0.99226 0.9692 0.01757 0.0
C1 C 0.01956 0.04625 0.20021 0.0
Co2 Co 0.03129 0.09277 0.99591 0.0
C3 C 1.00512 0.81048 1.00371 0.0
C4 C 0.88586 0.83028 0.10126 0.0
N5 N 0.95902 0.86596 0.03987 0.0
N6 N 0.96396 0.74146 0.04045 0.0
C7 C 0.88859 0.75391 0.1017 0.0
H8 H 0.06814 0.8208 0.95183 0.0
H9 H 0.83533 0.85821 0.14482 0.0
C10 C 1.00399 1.01572 0.81328 0.0
N11 N 0.06453 0.19601 0.97362 0.0
C12 C 0.01843 0.25149 0.00977 0.0
C13 C 0.13769 0.23169 0.91222 0.0
N14 N 0.05959 0.32051 0.97303 0.0
C15 C 0.13496 0.30806 0.91178 0.0
C16 C 0.20374 1.01781 0.01419 0.0
O17 O 0.98614 0.95761 0.87298 0.0
O18 O 0.02484 0.08031 0.8517 0.0
O19 O 0.17452 0.08235 1.00203 0.0
O20 O 0.13582 0.95979 0.02352 0.0
O21 O 0.03741 0.10436 0.14051 0.0
H22 H 0.18822 0.20376 0.86867 0.0
H23 H 0.95541 0.24117 0.06166 0.0
O24 O 0.99871 0.98166 0.16179 0.0
O25 O 0.84903 0.97962 0.01145 0.0
O26 O 0.88773 0.10218 0.98997 0.0
C27 C 0.81981 0.04416 0.99929 0.0
H28 H 0.84095 0.71123 0.14644 0.0
H29 H 0.1826 0.35074 0.86704 0.0
H30 H 0.98066 0.93355 0.34592 0.0
H31 H 0.06273 0.175 0.30834 0.0
H32 H 0.0646 0.18661 0.49449 0.0
H33 H 0.04289 0.12842 0.66757 0.0
H34 H 0.96082 0.88697 0.70514 0.0
H35 H 0.95894 0.87536 0.519 0.0
C36 C 0.99912 0.98878 0.37831 0.0
C37 C 0.02166 0.05331 0.31311 0.0
C38 C 0.99991 0.9951 0.48535 0.0
C39 C 0.04519 0.12438 0.3566 0.0
C40 C 0.04622 0.1311 0.46309 0.0
C41 C 0.02443 0.07319 0.63518 0.0
C42 C 1.00189 1.00866 0.70037 0.0
C43 C 0.02364 0.06687 0.52813 0.0
C44 C 0.97836 0.93759 0.65688 0.0
C45 C 0.97733 0.93087 0.5504 0.0
H46 H 0.36636 0.12961 0.98968 0.0
H47 H 0.29193 0.88857 0.04039 0.0
H48 H 0.4756 0.87555 0.03933 0.0
H49 H 0.65719 0.93236 0.02381 0.0
H50 H 0.73162 0.1734 0.97309 0.0
H51 H 0.54795 0.18642 0.97415 0.0
C52 C 0.39022 0.0742 1.00074 0.0
C53 C 0.31535 1.01022 0.0153 0.0
C54 C 0.49596 0.06702 0.99977 0.0
C55 C 0.34781 0.93884 0.02921 0.0
C56 C 0.45288 0.93128 0.0285 0.0
C57 C 0.63332 0.98777 0.01274 0.0
C58 C 0.7082 0.05175 0.99818 0.0
C59 C 0.52759 0.99495 0.01371 0.0
C60 C 0.67574 0.12313 0.98428 0.0
C61 C 0.57067 0.13069 0.98499 0.0
H62 H 0.84845 0.60405 0.05352 0.0
H63 H 0.15456 0.71698 0.98813 0.0
H64 H 0.21127 0.59596 0.96144 0.0
H65 H 0.1751 0.45792 0.95996 0.0
H66 H 0.86898 0.34499 0.02535 0.0
H67 H 0.81228 0.46601 0.05204 0.0
C68 C 0.9278 0.6023 0.03428 0.0
C69 C 0.99688 0.66986 0.02282 0.0
C70 C 0.96031 0.53236 0.02003 0.0
C71 C 0.09907 0.66626 0.99606 0.0
C72 C 0.13191 0.5969 0.98153 0.0
C73 C 0.09575 0.45967 0.9792 0.0
C74 C 0.02667 0.39211 0.99067 0.0
C75 C 0.06323 0.52961 0.99345 0.0
C76 C 0.92448 0.39571 0.01743 0.0
C77 C 0.89164 0.46507 0.03195 0.0
loop_
_geom_bond_atom_site_label_1
_geom_bond_atom_site_label_2
_geom_bond_distance
_geom_bond_site_symmetry_2
_ccdc_geom_bond_type
Co0 N5 2.057 1_556 S
Co0 O17 2.021 . S
Co0 O20 2.062 1_655 S
Co0 O24 2.117 1_556 S
Co0 O25 2.020 . S
C1 O21 1.259 . S
C1 O24 1.258 1_445 S
Co2 N11 2.057 1_554 S
Co2 O18 2.117 1_554 S
Co2 O19 2.020 . S
Co2 O21 2.021 . S
Co2 O26 2.062 1_455 S
C3 N5 1.316 1_556 S
C3 N6 1.347 1_556 S
C3 H8 0.931 . S
C4 N5 1.375 . S
C4 C7 1.350 . S
C4 H9 0.930 . S
N5 Co0 2.057 1_554 S
N5 C3 1.316 1_554 S
N5 C4 1.375 . S
N6 C3 1.347 1_554 S
N6 C7 1.373 . S
C7 C4 1.350 . S
C7 N6 1.373 . S
C7 H28 0.931 . S
H8 C3 0.931 . S
H9 C4 0.930 . S
C10 O17 1.259 . S
C10 O18 1.258 1_665 S
N11 Co2 2.057 1_556 S
N11 C12 1.316 1_556 S
N11 C13 1.375 . S
C12 N11 1.316 1_554 S
C12 N14 1.347 1_554 S
C12 H23 0.931 . S
C13 N11 1.375 . S
C13 C15 1.350 . S
C13 H22 0.930 . S
N14 C12 1.347 1_556 S
N14 C15 1.373 . S
C15 C13 1.350 . S
C15 N14 1.373 . S
C15 H29 0.931 . S
C16 O19 1.264 1_556 S
C16 O20 1.248 1_545 S
O17 Co0 2.021 . S
O17 C10 1.259 . S
O18 Co2 2.117 1_556 S
O18 C10 1.258 1_445 S
O19 Co2 2.020 . S
O19 C16 1.264 1_554 S
O20 Co0 2.062 1_455 S
O20 C16 1.248 1_565 S
O21 C1 1.259 . S
O21 Co2 2.021 . S
H22 C13 0.930 . S
H23 C12 0.931 . S
O24 Co0 2.117 1_554 S
O24 C1 1.258 1_665 S
O25 Co0 2.020 . S
O25 C27 1.260 1_556 S
O26 Co2 2.062 1_655 S
O26 C27 1.251 1_545 S
C27 O25 1.260 1_554 S
C27 O26 1.251 1_565 S
H28 C7 0.931 . S
H29 C15 0.931 . S
H30 C36 0.930 . S
H31 C39 0.930 . S
H32 C40 0.930 . S
H33 C41 0.930 . S
H34 C44 0.930 . S
H35 C45 0.930 . S
C36 H30 0.930 . S
C36 C37 1.355 1_665 S
C36 C38 1.415 . S
C37 C36 1.355 1_445 S
C37 C39 1.419 . S
C38 C36 1.415 . S
C38 C43 1.425 1_665 S
C38 C45 1.409 . S
C39 H31 0.930 . S
C39 C37 1.419 . S
C39 C40 1.362 . S
C40 H32 0.930 . S
C40 C39 1.362 . S
C40 C43 1.409 . S
C41 H33 0.930 . S
C41 C42 1.355 1_445 S
C41 C43 1.415 . S
C42 C41 1.355 1_665 S
C42 C44 1.419 . S
C43 C38 1.425 1_445 S
C43 C40 1.409 . S
C43 C41 1.415 . S
C44 H34 0.930 . S
C44 C42 1.419 . S
C44 C45 1.362 . S
C45 H35 0.930 . S
C45 C38 1.409 . S
C45 C44 1.362 . S
H46 C52 0.930 . S
H47 C55 0.930 . S
H48 C56 0.930 . S
H49 C57 0.930 . S
H50 C60 0.930 . S
H51 C61 0.930 . S
C52 H46 0.930 . S
C52 C53 1.357 1_545 S
C52 C54 1.415 . S
C53 C52 1.357 1_565 S
C53 C55 1.417 1_556 S
C54 C52 1.415 . S
C54 C59 1.425 1_546 S
C54 C61 1.409 . S
C55 H47 0.930 . S
C55 C53 1.417 1_554 S
C55 C56 1.362 . S
C56 H48 0.930 . S
C56 C55 1.362 . S
C56 C59 1.409 . S
C57 H49 0.930 . S
C57 C58 1.355 1_565 S
C57 C59 1.415 . S
C58 C57 1.355 1_545 S
C58 C60 1.419 1_554 S
C59 C54 1.425 1_564 S
C59 C56 1.409 . S
C59 C57 1.415 . S
C60 H50 0.930 . S
C60 C58 1.419 1_556 S
C60 C61 1.362 . S
C61 H51 0.930 . S
C61 C54 1.409 . S
C61 C60 1.362 . S
H62 C68 0.930 . S
H63 C71 0.930 . S
H64 C72 0.930 . S
H65 C73 0.930 . S
H66 C76 0.930 . S
H67 C77 0.930 . S
C68 H62 0.930 . S
C68 C69 1.355 1_656 S
C68 C70 1.415 . S
C69 C68 1.355 1_454 S
C69 C71 1.419 . S
C70 C68 1.415 . S
C70 C75 1.425 1_656 S
C70 C77 1.409 . S
C71 H63 0.930 . S
C71 C69 1.419 . S
C71 C72 1.362 . S
C72 H64 0.930 . S
C72 C71 1.362 . S
C72 C75 1.409 . S
C73 H65 0.930 . S
C73 C74 1.355 1_454 S
C73 C75 1.415 . S
C74 C73 1.355 1_656 S
C74 C76 1.419 . S
C75 C70 1.425 1_454 S
C75 C72 1.409 . S
C75 C73 1.415 . S
C76 H66 0.930 . S
C76 C74 1.419 . S
C76 C77 1.362 . S
C77 H67 0.930 . S
C77 C70 1.409 . S
C77 C76 1.362 . S
C37 C1 1.480 . S
C42 C10 1.480 . S
C53 C16 1.492 1_565 S
C58 C27 1.493 1_545 S
C69 N6 1.449 1_455 S
C74 N14 1.449 1_655 S
