# Generated by pormake.
# Topology tfs, (6)-cn, num edge types: 1
# Building blocks:
#     Node 0, Type 0, BuildingBlock: VOLQOD_clean_sbu_1, # of connection points: 6
#     Node 1, Type 0, BuildingBlock: VOLQOD_clean_sbu_1, # of connection points: 6
#     Node 2, Type 0, BuildingBlock: VOLQOD_clean_sbu_1, # of connection points: 6
#     Node 3, Type 0, BuildingBlock: VOLQOD_clean_sbu_1, # of connection points: 6
#     Node 4, Type 0, BuildingBlock: VOLQOD_clean_sbu_1, # of connection points: 6
#     Node 5, Type 0, BuildingBlock: VOLQOD_clean_sbu_1, # of connection points: 6
#     Edge 6, Type (0, 0), None
#     Edge 7, Type (0, 0), None
#     Edge 8, Type (0, 0), None
#     Edge 9, Type (0, 0), None
#     Edge 10, Type (0, 0), None
#     Edge 11, Type (0, 0), None
#     Edge 12, Type (0, 0), None
#     Edge 13, Type (0, 0), None
#     Edge 14, Type (0, 0), None
#     Edge 15, Type (0, 0), None
#     Edge 16, Type (0, 0), None
#     Edge 17, Type (0, 0), None
#     Edge 18, Type (0, 0), None
#     Edge 19, Type (0, 0), None
#     Edge 20, Type (0, 0), None
#     Edge 21, Type (0, 0), None
#     Edge 22, Type (0, 0), None
#     Edge 23, Type (0, 0), None
# Relax obj value: 0.115
# Max RMSD: 0.091
# Mean RMSD: 0.091
data_MOF--net-tfs--node1-VOLQOD_clean_sbu_1--edge1-none
_symmetry_space_group_name_H-M    P1
_symmetry_Int_Tables_number       1
_symmetry_cell_setting            triclinic
loop_
_symmetry_equiv_pos_as_xyz
'x, y, z'
_cell_length_a     23.763252
_cell_length_b     23.762611
_cell_length_c     8.8596581
_cell_angle_alpha  89.999189
_cell_angle_beta   90.00148
_cell_angle_gamma 119.99972
loop_
_atom_site_label
_atom_site_type_symbol
_atom_site_fract_x
_atom_site_fract_y
_atom_site_fract_z
_atom_type_partial_charge
O0 O 0.31736 0.53489 0.87018 0.0
Zn1 Zn 0.22301 0.4771 0.83805 0.0
O2 O 0.1871 0.40537 -0.02297 0.0
Zn3 Zn 0.14559 0.32231 0.86027 0.0
Zn4 Zn 0.25728 0.41446 0.106 0.0
Zn5 Zn 0.126 0.41447 0.10589 0.0
O6 O 0.04634 0.2712 0.90354 0.0
O7 O 0.03897 0.34383 0.04938 0.0
O8 O 0.20943 0.45006 0.62445 0.0
O9 O 0.15541 0.34204 0.63274 0.0
O10 O 0.1938 0.27126 0.90344 0.0
O11 O 0.27371 0.34386 0.04951 0.0
O12 O 0.23172 0.40126 0.32567 0.0
O13 O 0.18659 0.535 0.87028 0.0
O14 O 0.13833 0.40129 0.32562 0.0
O15 O 0.12919 0.50186 0.08163 0.0
C16 C 0.35747 0.54231 -0.02636 0.0
C17 C 0.01262 0.29045 -0.02316 0.0
C18 C 0.24676 0.29052 -0.02316 0.0
C19 C 0.18205 0.39534 0.55908 0.0
C20 C 0.18217 0.39559 0.3944 0.0
C21 C 0.15386 0.54242 -0.02639 0.0
O22 O 0.34149 0.50181 0.08181 0.0
O23 O 0.76732 0.32527 0.87019 0.0
Zn24 Zn 0.73075 0.23091 0.83806 0.0
O25 O 0.76658 0.19501 -0.02296 0.0
Zn26 Zn 0.80812 0.15349 0.86029 0.0
Zn27 Zn 0.82766 0.26518 0.10601 0.0
Zn28 Zn 0.69637 0.1339 0.1059 0.0
O29 O 0.75998 0.05424 0.90355 0.0
O30 O 0.67998 0.04687 0.04939 0.0
O31 O 0.74422 0.21734 0.62446 0.0
O32 O 0.79822 0.16332 0.63275 0.0
O33 O 0.90738 0.20169 0.90346 0.0
O34 O 0.91469 0.28161 0.04953 0.0
O35 O 0.8153 0.23962 0.32568 0.0
O36 O 0.63643 0.19449 0.87029 0.0
O37 O 0.72188 0.14623 0.32564 0.0
O38 O 0.61218 0.13709 0.08164 0.0
C39 C 0.8 0.36537 -0.02635 0.0
C40 C 0.70699 0.02051 -0.02315 0.0
C41 C 0.94107 0.25465 -0.02312 0.0
C42 C 0.77155 0.18995 0.55909 0.0
C43 C 0.77142 0.19008 0.39442 0.0
C44 C 0.59628 0.16176 -0.02638 0.0
O45 O 0.82453 0.3494 0.08181 0.0
O46 O 0.42688 0.7752 0.87017 0.0
Zn47 Zn 0.48467 0.73864 0.83805 0.0
O48 O 0.5564 0.77447 -0.02297 0.0
Zn49 Zn 0.63946 0.81601 0.86027 0.0
Zn50 Zn 0.54731 0.83555 0.10599 0.0
Zn51 Zn 0.5473 0.70426 0.10589 0.0
O52 O 0.69057 0.76788 0.90353 0.0
O53 O 0.61794 0.68787 0.04938 0.0
O54 O 0.51171 0.7521 0.62444 0.0
O55 O 0.61973 0.80611 0.63274 0.0
O56 O 0.69051 0.91527 0.90345 0.0
O57 O 0.61791 0.92258 0.04953 0.0
O58 O 0.5605 0.82318 0.32567 0.0
O59 O 0.42678 0.64431 0.87029 0.0
O60 O 0.56049 0.72977 0.32563 0.0
O61 O 0.45992 0.62006 0.08165 0.0
C62 C 0.41946 0.80788 -0.02638 0.0
C63 C 0.67132 0.7149 -0.02317 0.0
C64 C 0.67126 0.94897 -0.02313 0.0
C65 C 0.56643 0.77944 0.55908 0.0
C66 C 0.56618 0.77931 0.3944 0.0
C67 C 0.41937 0.60417 -0.02638 0.0
O68 O 0.45996 0.83242 0.08178 0.0
O69 O 0.63653 0.43479 0.87016 0.0
Zn70 Zn 0.73088 0.49258 0.83805 0.0
O71 O 0.76679 0.56432 -0.02298 0.0
Zn72 Zn 0.8083 0.64738 0.86027 0.0
Zn73 Zn 0.69661 0.55522 0.10599 0.0
Zn74 Zn 0.82789 0.55522 0.10589 0.0
O75 O 0.90754 0.69849 0.90352 0.0
O76 O 0.91492 0.62585 0.04937 0.0
O77 O 0.74447 0.51963 0.62444 0.0
O78 O 0.79847 0.62764 0.63273 0.0
O79 O 0.76009 0.69843 0.90345 0.0
O80 O 0.68018 0.62582 0.04952 0.0
O81 O 0.72217 0.56841 0.32566 0.0
O82 O 0.76731 0.43469 0.87029 0.0
O83 O 0.81557 0.5684 0.32562 0.0
O84 O 0.8247 0.46783 0.08166 0.0
C85 C 0.59642 0.42737 -0.02639 0.0
C86 C 0.94127 0.67923 -0.02318 0.0
C87 C 0.70713 0.67916 -0.02314 0.0
C88 C 0.77184 0.57434 0.55907 0.0
C89 C 0.77172 0.57409 0.3944 0.0
C90 C 0.80004 0.42727 -0.02638 0.0
O91 O 0.6124 0.46787 0.08178 0.0
O92 O 0.18657 0.64441 0.87015 0.0
Zn93 Zn 0.22314 0.73877 0.83802 0.0
O94 O 0.18731 0.77468 -0.023 0.0
Zn95 Zn 0.14577 0.8162 0.86024 0.0
Zn96 Zn 0.12623 0.7045 0.10596 0.0
Zn97 Zn 0.25752 0.83578 0.10587 0.0
O98 O 0.19391 0.91544 0.90349 0.0
O99 O 0.27391 0.92281 0.04935 0.0
O100 O 0.20967 0.75235 0.62442 0.0
O101 O 0.15567 0.80636 0.63271 0.0
O102 O 0.04651 0.76799 0.90342 0.0
O103 O 0.0392 0.68808 0.04949 0.0
O104 O 0.13859 0.73006 0.32564 0.0
O105 O 0.31746 0.7752 0.87026 0.0
O106 O 0.23201 0.82346 0.3256 0.0
O107 O 0.34171 0.83259 0.08163 0.0
C108 C 0.15388 0.60431 -0.0264 0.0
C109 C 0.24689 0.94917 -0.02321 0.0
C110 C 0.01281 0.71504 -0.02316 0.0
C111 C 0.18234 0.77973 0.55905 0.0
C112 C 0.18246 0.77961 0.39437 0.0
C113 C 0.3576 0.80793 -0.0264 0.0
O114 O 0.12936 0.62029 0.08177 0.0
O115 O 0.527 0.19447 0.87015 0.0
Zn116 Zn 0.46922 0.23104 0.83802 0.0
O117 O 0.39748 0.19522 -0.02301 0.0
Zn118 Zn 0.31442 0.15367 0.86023 0.0
Zn119 Zn 0.40658 0.13413 0.10596 0.0
Zn120 Zn 0.40659 0.26543 0.10586 0.0
O121 O 0.26331 0.20181 0.9035 0.0
O122 O 0.33595 0.28181 0.04935 0.0
O123 O 0.44217 0.21758 0.62441 0.0
O124 O 0.33416 0.16357 0.6327 0.0
O125 O 0.26337 0.05441 0.9034 0.0
O126 O 0.33598 0.0471 0.04948 0.0
O127 O 0.39338 0.1465 0.32564 0.0
O128 O 0.52711 0.32536 0.87025 0.0
O129 O 0.39341 0.23992 0.32559 0.0
O130 O 0.49397 0.34962 0.08161 0.0
C131 C 0.53442 0.16179 -0.02639 0.0
C132 C 0.28257 0.25478 -0.02319 0.0
C133 C 0.28263 0.02071 -0.02318 0.0
C134 C 0.38746 0.19024 0.55904 0.0
C135 C 0.38771 0.19037 0.39437 0.0
C136 C 0.53453 0.36551 -0.02642 0.0
O137 O 0.49392 0.13726 0.08178 0.0
loop_
_geom_bond_atom_site_label_1
_geom_bond_atom_site_label_2
_geom_bond_distance
_geom_bond_site_symmetry_2
_ccdc_geom_bond_type
O0 Zn1 1.953 . S
O0 C16 1.225 . S
Zn1 O0 1.953 . S
Zn1 O2 1.949 1_556 S
Zn1 O8 1.919 . S
Zn1 O13 1.924 . S
O2 Zn1 1.949 1_554 S
O2 Zn3 1.923 1_554 S
O2 Zn4 1.950 . S
O2 Zn5 1.945 . S
Zn3 O2 1.923 1_556 S
Zn3 O6 1.933 . S
Zn3 O9 1.941 . S
Zn3 O10 1.965 . S
Zn4 O2 1.950 . S
Zn4 O11 1.938 . S
Zn4 O12 1.906 . S
Zn4 O22 1.953 . S
Zn5 O2 1.945 . S
Zn5 O7 1.932 . S
Zn5 O14 1.977 . S
Zn5 O15 1.910 . S
O6 Zn3 1.933 . S
O6 C17 1.226 . S
O7 Zn5 1.932 . S
O7 C17 1.307 1_554 S
O8 Zn1 1.919 . S
O8 C19 1.253 . S
O9 Zn3 1.941 . S
O9 C19 1.283 . S
O10 Zn3 1.965 . S
O10 C18 1.303 1_556 S
O11 Zn4 1.938 . S
O11 C18 1.247 . S
O12 Zn4 1.906 . S
O12 C20 1.304 . S
O13 Zn1 1.924 . S
O13 C21 1.311 . S
O14 Zn5 1.977 . S
O14 C20 1.272 . S
O15 Zn5 1.910 . S
O15 C21 1.231 1_554 S
C16 O0 1.225 . S
C16 O22 1.298 1_556 S
C17 O6 1.226 . S
C17 O7 1.307 1_556 S
C18 O10 1.303 1_554 S
C18 O11 1.247 . S
C19 O8 1.253 . S
C19 O9 1.283 . S
C20 O12 1.304 . S
C20 O14 1.272 . S
C21 O13 1.311 . S
C21 O15 1.231 1_556 S
O22 Zn4 1.953 . S
O22 C16 1.298 1_554 S
O23 Zn24 1.953 . S
O23 C39 1.225 . S
Zn24 O23 1.953 . S
Zn24 O25 1.949 1_556 S
Zn24 O31 1.919 . S
Zn24 O36 1.924 . S
O25 Zn24 1.949 1_554 S
O25 Zn26 1.923 1_554 S
O25 Zn27 1.950 . S
O25 Zn28 1.945 . S
Zn26 O25 1.923 1_556 S
Zn26 O29 1.933 . S
Zn26 O32 1.941 . S
Zn26 O33 1.965 . S
Zn27 O25 1.950 . S
Zn27 O34 1.938 . S
Zn27 O35 1.906 . S
Zn27 O45 1.953 . S
Zn28 O25 1.945 . S
Zn28 O30 1.932 . S
Zn28 O37 1.977 . S
Zn28 O38 1.910 . S
O29 Zn26 1.933 . S
O29 C40 1.226 . S
O30 Zn28 1.932 . S
O30 C40 1.307 1_554 S
O31 Zn24 1.919 . S
O31 C42 1.253 . S
O32 Zn26 1.941 . S
O32 C42 1.283 . S
O33 Zn26 1.965 . S
O33 C41 1.303 1_556 S
O34 Zn27 1.938 . S
O34 C41 1.247 . S
O35 Zn27 1.906 . S
O35 C43 1.304 . S
O36 Zn24 1.924 . S
O36 C44 1.311 . S
O37 Zn28 1.977 . S
O37 C43 1.272 . S
O38 Zn28 1.910 . S
O38 C44 1.231 1_554 S
C39 O23 1.225 . S
C39 O45 1.298 1_556 S
C40 O29 1.226 . S
C40 O30 1.307 1_556 S
C41 O33 1.303 1_554 S
C41 O34 1.247 . S
C42 O31 1.253 . S
C42 O32 1.283 . S
C43 O35 1.304 . S
C43 O37 1.272 . S
C44 O36 1.311 . S
C44 O38 1.231 1_556 S
O45 Zn27 1.953 . S
O45 C39 1.298 1_554 S
O46 Zn47 1.953 . S
O46 C62 1.225 . S
Zn47 O46 1.953 . S
Zn47 O48 1.949 1_556 S
Zn47 O54 1.919 . S
Zn47 O59 1.924 . S
O48 Zn47 1.949 1_554 S
O48 Zn49 1.923 1_554 S
O48 Zn50 1.950 . S
O48 Zn51 1.945 . S
Zn49 O48 1.923 1_556 S
Zn49 O52 1.933 . S
Zn49 O55 1.941 . S
Zn49 O56 1.965 . S
Zn50 O48 1.950 . S
Zn50 O57 1.938 . S
Zn50 O58 1.906 . S
Zn50 O68 1.953 . S
Zn51 O48 1.945 . S
Zn51 O53 1.932 . S
Zn51 O60 1.977 . S
Zn51 O61 1.910 . S
O52 Zn49 1.933 . S
O52 C63 1.226 . S
O53 Zn51 1.932 . S
O53 C63 1.307 1_554 S
O54 Zn47 1.919 . S
O54 C65 1.253 . S
O55 Zn49 1.941 . S
O55 C65 1.283 . S
O56 Zn49 1.965 . S
O56 C64 1.303 1_556 S
O57 Zn50 1.938 . S
O57 C64 1.247 . S
O58 Zn50 1.906 . S
O58 C66 1.304 . S
O59 Zn47 1.924 . S
O59 C67 1.311 . S
O60 Zn51 1.977 . S
O60 C66 1.272 . S
O61 Zn51 1.910 . S
O61 C67 1.231 1_554 S
C62 O46 1.225 . S
C62 O68 1.298 1_556 S
C63 O52 1.226 . S
C63 O53 1.307 1_556 S
C64 O56 1.303 1_554 S
C64 O57 1.247 . S
C65 O54 1.253 . S
C65 O55 1.283 . S
C66 O58 1.304 . S
C66 O60 1.272 . S
C67 O59 1.311 . S
C67 O61 1.231 1_556 S
O68 Zn50 1.953 . S
O68 C62 1.298 1_554 S
O69 Zn70 1.953 . S
O69 C85 1.225 . S
Zn70 O69 1.953 . S
Zn70 O71 1.949 1_556 S
Zn70 O77 1.919 . S
Zn70 O82 1.924 . S
O71 Zn70 1.949 1_554 S
O71 Zn72 1.923 1_554 S
O71 Zn73 1.950 . S
O71 Zn74 1.945 . S
Zn72 O71 1.923 1_556 S
Zn72 O75 1.933 . S
Zn72 O78 1.941 . S
Zn72 O79 1.965 . S
Zn73 O71 1.950 . S
Zn73 O80 1.938 . S
Zn73 O81 1.906 . S
Zn73 O91 1.953 . S
Zn74 O71 1.945 . S
Zn74 O76 1.932 . S
Zn74 O83 1.977 . S
Zn74 O84 1.910 . S
O75 Zn72 1.933 . S
O75 C86 1.226 . S
O76 Zn74 1.932 . S
O76 C86 1.307 1_554 S
O77 Zn70 1.919 . S
O77 C88 1.253 . S
O78 Zn72 1.941 . S
O78 C88 1.283 . S
O79 Zn72 1.965 . S
O79 C87 1.303 1_556 S
O80 Zn73 1.938 . S
O80 C87 1.247 . S
O81 Zn73 1.906 . S
O81 C89 1.304 . S
O82 Zn70 1.924 . S
O82 C90 1.311 . S
O83 Zn74 1.977 . S
O83 C89 1.272 . S
O84 Zn74 1.910 . S
O84 C90 1.231 1_554 S
C85 O69 1.225 . S
C85 O91 1.298 1_556 S
C86 O75 1.226 . S
C86 O76 1.307 1_556 S
C87 O79 1.303 1_554 S
C87 O80 1.247 . S
C88 O77 1.253 . S
C88 O78 1.283 . S
C89 O81 1.304 . S
C89 O83 1.272 . S
C90 O82 1.311 . S
C90 O84 1.231 1_556 S
O91 Zn73 1.953 . S
O91 C85 1.298 1_554 S
O92 Zn93 1.953 . S
O92 C108 1.225 . S
Zn93 O92 1.953 . S
Zn93 O94 1.949 1_556 S
Zn93 O100 1.919 . S
Zn93 O105 1.924 . S
O94 Zn93 1.949 1_554 S
O94 Zn95 1.923 1_554 S
O94 Zn96 1.950 . S
O94 Zn97 1.945 . S
Zn95 O94 1.923 1_556 S
Zn95 O98 1.933 . S
Zn95 O101 1.941 . S
Zn95 O102 1.965 . S
Zn96 O94 1.950 . S
Zn96 O103 1.938 . S
Zn96 O104 1.906 . S
Zn96 O114 1.953 . S
Zn97 O94 1.945 . S
Zn97 O99 1.932 . S
Zn97 O106 1.977 . S
Zn97 O107 1.910 . S
O98 Zn95 1.933 . S
O98 C109 1.226 . S
O99 Zn97 1.932 . S
O99 C109 1.307 1_554 S
O100 Zn93 1.919 . S
O100 C111 1.253 . S
O101 Zn95 1.941 . S
O101 C111 1.283 . S
O102 Zn95 1.965 . S
O102 C110 1.303 1_556 S
O103 Zn96 1.938 . S
O103 C110 1.247 . S
O104 Zn96 1.906 . S
O104 C112 1.304 . S
O105 Zn93 1.924 . S
O105 C113 1.311 . S
O106 Zn97 1.977 . S
O106 C112 1.272 . S
O107 Zn97 1.910 . S
O107 C113 1.231 1_554 S
C108 O92 1.225 . S
C108 O114 1.298 1_556 S
C109 O98 1.226 . S
C109 O99 1.307 1_556 S
C110 O102 1.303 1_554 S
C110 O103 1.247 . S
C111 O100 1.253 . S
C111 O101 1.283 . S
C112 O104 1.304 . S
C112 O106 1.272 . S
C113 O105 1.311 . S
C113 O107 1.231 1_556 S
O114 Zn96 1.953 . S
O114 C108 1.298 1_554 S
O115 Zn116 1.953 . S
O115 C131 1.225 . S
Zn116 O115 1.953 . S
Zn116 O117 1.949 1_556 S
Zn116 O123 1.919 . S
Zn116 O128 1.924 . S
O117 Zn116 1.949 1_554 S
O117 Zn118 1.923 1_554 S
O117 Zn119 1.950 . S
O117 Zn120 1.945 . S
Zn118 O117 1.923 1_556 S
Zn118 O121 1.933 . S
Zn118 O124 1.941 . S
Zn118 O125 1.965 . S
Zn119 O117 1.950 . S
Zn119 O126 1.938 . S
Zn119 O127 1.906 . S
Zn119 O137 1.953 . S
Zn120 O117 1.945 . S
Zn120 O122 1.932 . S
Zn120 O129 1.977 . S
Zn120 O130 1.910 . S
O121 Zn118 1.933 . S
O121 C132 1.226 . S
O122 Zn120 1.932 . S
O122 C132 1.307 1_554 S
O123 Zn116 1.919 . S
O123 C134 1.253 . S
O124 Zn118 1.941 . S
O124 C134 1.283 . S
O125 Zn118 1.965 . S
O125 C133 1.303 1_556 S
O126 Zn119 1.938 . S
O126 C133 1.247 . S
O127 Zn119 1.906 . S
O127 C135 1.304 . S
O128 Zn116 1.924 . S
O128 C136 1.311 . S
O129 Zn120 1.977 . S
O129 C135 1.272 . S
O130 Zn120 1.910 . S
O130 C136 1.231 1_554 S
C131 O115 1.225 . S
C131 O137 1.298 1_556 S
C132 O121 1.226 . S
C132 O122 1.307 1_556 S
C133 O125 1.303 1_554 S
C133 O126 1.247 . S
C134 O123 1.253 . S
C134 O124 1.283 . S
C135 O127 1.304 . S
C135 O129 1.272 . S
C136 O128 1.311 . S
C136 O130 1.231 1_556 S
O137 Zn119 1.953 . S
O137 C131 1.298 1_554 S
C132 C18 1.502 1_556 S
C17 C41 1.502 1_456 S
C40 C64 1.501 1_546 S
C87 C63 1.502 1_554 S
C110 C86 1.502 1_454 S
C109 C133 1.501 1_566 S
C108 C21 1.510 . S
C131 C44 1.510 . S
C67 C16 1.510 . S
C90 C39 1.510 . S
C113 C62 1.510 . S
C85 C136 1.510 . S
C19 C20 1.446 . S
C42 C43 1.446 . S
C65 C66 1.446 . S
C88 C89 1.446 . S
C112 C111 1.446 . S
C134 C135 1.446 . S
