# Generated by pormake.
# Topology cds, (4)-cn, num edge types: 1
# Building blocks:
#     Node 0, Type 0, BuildingBlock: ESEHIV_clean_sbu_0, # of connection points: 4
#     Node 1, Type 0, BuildingBlock: ESEHIV_clean_sbu_0, # of connection points: 4
#     Edge 2, Type (0, 0), BuildingBlock: UVAHIK_clean_linker_0, # of connection points: 2
#     Edge 3, Type (0, 0), BuildingBlock: UVAHIK_clean_linker_0, # of connection points: 2
#     Edge 4, Type (0, 0), BuildingBlock: UVAHIK_clean_linker_0, # of connection points: 2
#     Edge 5, Type (0, 0), BuildingBlock: UVAHIK_clean_linker_0, # of connection points: 2
# Relax obj value: 0.000
# Max RMSD: 0.099
# Mean RMSD: 0.094
data_MOF--net-cds--node1-ESEHIV_clean_sbu_0--edge1-UVAHIK_clean_linker_0
_symmetry_space_group_name_H-M    P1
_symmetry_Int_Tables_number       1
_symmetry_cell_setting            triclinic
loop_
_symmetry_equiv_pos_as_xyz
'x, y, z'
_cell_length_a     19.076853
_cell_length_b     21.543686
_cell_length_c     40.526662
_cell_angle_alpha  103.05644
_cell_angle_beta   103.38792
_cell_angle_gamma 87.531025
loop_
_atom_site_label
_atom_site_type_symbol
_atom_site_fract_x
_atom_site_fract_y
_atom_site_fract_z
_atom_type_partial_charge
Cu0 Cu 0.13975 0.06484 0.03863 0.0
N1 N 0.12427 1.00988 0.99463 0.0
N2 N 0.11166 0.97564 0.93711 0.0
C3 C 0.13057 0.02491 0.96489 0.0
C4 C 0.09303 0.92782 0.95006 0.0
C5 C 0.10078 0.94908 0.98545 0.0
O6 O 0.22598 0.11561 0.04491 0.0
C7 C 0.99907 0.08203 0.04278 0.0
O8 O 1.00634 1.02033 0.04026 0.0
H9 H 0.14652 0.07174 0.96359 0.0
H10 H 0.08877 0.92241 1.00312 0.0
N11 N 0.15517 1.01955 0.07429 0.0
N12 N 0.15372 0.99658 0.12535 0.0
C13 C 0.13828 0.04015 0.10544 0.0
C14 C 0.18235 0.96088 0.0745 0.0
C15 C 0.18179 0.9467 0.10598 0.0
C16 C 0.28399 0.08377 0.0461 0.0
O17 O 0.2805 0.02173 0.0422 0.0
H18 H 0.11469 0.08618 0.11321 0.0
H19 H 0.20051 0.93014 0.05312 0.0
O20 O 0.05252 0.11435 0.04165 0.0
H21 H 0.0748 0.88079 0.93507 0.0
H22 H 0.19873 0.90238 0.11358 0.0
Cu23 Cu 0.92895 1.00479 0.51044 0.0
N24 N 0.87093 0.93151 0.49406 0.0
N25 N 0.83536 0.83064 0.48645 0.0
C26 C 0.88943 0.87381 0.50068 0.0
C27 C 0.78094 0.86264 0.46993 0.0
C28 C 0.80306 0.92479 0.47467 0.0
O29 O 0.98639 1.00118 0.55665 0.0
C30 C 0.94622 1.01897 0.44708 0.0
O31 O 0.87656 0.02748 0.44389 0.0
H32 H 0.94168 0.86405 0.51579 0.0
H33 H 0.77153 0.96259 0.46506 0.0
N34 N 0.87243 0.07794 0.5152 0.0
N35 N 0.83749 0.17856 0.5157 0.0
C36 C 0.89068 0.13574 0.51221 0.0
C37 C 0.80567 0.08423 0.52108 0.0
C38 C 0.78395 0.1462 0.5214 0.0
C39 C 0.95057 0.98909 0.57746 0.0
O40 O 0.88042 0.9814 0.5666 0.0
H41 H 0.94209 0.14583 0.50748 0.0
H42 H 0.77459 0.04624 0.52443 0.0
O43 O 0.98361 1.00768 0.47552 0.0
H44 H 0.72823 0.84315 0.4561 0.0
H45 H 0.73203 0.16531 0.52473 0.0
C46 C 0.08136 0.0371 0.169 0.0
C47 C 0.13928 1.00082 0.15924 0.0
C48 C 0.06558 0.03936 0.20126 0.0
C49 C 0.14158 1.01408 0.28967 0.0
H50 H 0.94086 0.99609 0.29065 0.0
C51 C 0.04365 0.99208 0.41329 0.0
C52 C 0.97798 0.02149 0.41729 0.0
C53 C 0.06821 0.98984 0.3829 0.0
C54 C 0.99714 1.00209 0.29104 0.0
H55 H 0.22717 0.93985 0.17626 0.0
H56 H 0.19949 0.94375 0.23272 0.0
H57 H 0.97411 0.99235 0.23589 0.0
H58 H 0.88904 0.07499 0.39361 0.0
H59 H 0.93237 0.07271 0.34168 0.0
H60 H 0.16433 0.02458 0.34507 0.0
C61 C 0.16636 0.97044 0.21532 0.0
C62 C 0.01618 0.99979 0.25953 0.0
C63 C 0.1818 0.96773 0.18285 0.0
C64 C 0.93925 0.05097 0.39113 0.0
C65 C 0.96392 0.04928 0.36114 0.0
C66 C 0.12242 1.01682 0.32138 0.0
C67 C 0.10755 1.00574 0.22474 0.0
C68 C 0.08846 1.0064 0.25844 0.0
C69 C 0.02772 1.01735 0.35611 0.0
C70 C 0.04975 1.01164 0.32251 0.0
H71 H 0.04708 0.06264 0.15137 0.0
H72 H 0.02033 0.06754 0.20786 0.0
H73 H 0.19777 1.01957 0.2897 0.0
H74 H 0.07463 0.96889 0.433 0.0
H75 H 0.11755 0.96475 0.37991 0.0
C76 C 0.06002 0.93388 0.87437 0.0
C77 C 0.10819 0.97509 0.90101 0.0
C78 C 0.05567 0.93365 0.83944 0.0
C79 C 0.09586 0.03178 0.78172 0.0
H80 H 0.05532 0.87272 0.71287 0.0
C81 C 0.04959 1.01445 0.63217 0.0
C82 C 0.98511 0.98242 0.61318 0.0
C83 C 0.07686 1.01181 0.66716 0.0
C84 C 0.06683 0.91752 0.73179 0.0
H85 H 0.19043 0.04783 0.91154 0.0
H86 H 0.18318 0.04719 0.85046 0.0
H87 H 0.07994 0.87194 0.7745 0.0
H88 H 0.90046 0.92047 0.61541 0.0
H89 H 0.94835 0.91498 0.67565 0.0
H90 H 0.08176 0.07719 0.73862 0.0
C91 C 0.14796 1.01563 0.85668 0.0
C92 C 0.08053 0.91718 0.76715 0.0
C93 C 0.15214 1.01601 0.89173 0.0
C94 C 0.95009 0.94595 0.62936 0.0
C95 C 0.9778 0.94243 0.66387 0.0
C96 C 0.0826 0.03204 0.74623 0.0
C97 C 0.09961 0.97439 0.83004 0.0
C98 C 0.09323 0.97445 0.7926 0.0
C99 C 0.04089 0.97594 0.68338 0.0
C100 C 0.06602 0.97506 0.72088 0.0
H101 H 0.02434 0.90261 0.88045 0.0
H102 H 0.01654 0.90229 0.81979 0.0
H103 H 0.10497 0.07686 0.80051 0.0
H104 H 0.07751 0.04312 0.62038 0.0
H105 H 0.12574 0.03798 0.68157 0.0
C106 C 0.9011 0.16364 0.0354 0.0
C107 C 0.9312 0.11202 0.04954 0.0
C108 C 0.83241 0.18591 0.03921 0.0
C109 C 0.69732 0.18189 0.09138 0.0
H110 H 0.55255 0.17221 1.00559 0.0
C111 C 0.4153 0.08687 0.07149 0.0
C112 C 0.35534 0.11418 0.05285 0.0
C113 C 0.48461 0.10951 0.07526 0.0
C114 C 0.59237 0.17688 0.0299 0.0
H115 H 0.91544 0.04559 0.08021 0.0
H116 H 0.79754 0.08487 0.08743 0.0
H117 H 0.68055 0.17148 1.00472 0.0
H118 H 0.3204 0.18755 0.02405 0.0
H119 H 0.44335 0.2265 0.02981 0.0
H120 H 0.60956 0.18313 0.11622 0.0
C121 C 0.82599 0.10811 0.07324 0.0
C122 C 0.66566 0.17646 0.02941 0.0
C123 C 0.89335 0.0852 0.06885 0.0
C124 C 0.36586 0.16605 0.03876 0.0
C125 C 0.43597 0.18802 0.04191 0.0
C126 C 0.62438 0.18231 0.09188 0.0
C127 C 0.79405 0.15792 0.05801 0.0
C128 C 0.71871 0.17577 0.05988 0.0
C129 C 0.49604 0.15947 0.05999 0.0
C130 C 0.57117 0.17663 0.06088 0.0
H131 H 0.92922 0.18489 0.02028 0.0
H132 H 0.8089 0.2243 0.02716 0.0
H133 H 0.73707 0.18245 0.11537 0.0
H134 H 0.40874 0.0469 0.08268 0.0
H135 H 0.52968 0.08583 0.08888 0.0
C136 C 0.78686 0.72025 0.46483 0.0
C137 C 0.8352 0.76494 0.48925 0.0
C138 C 0.78663 0.65674 0.46767 0.0
C139 C 0.77003 0.5358 0.49271 0.0
H140 H 0.952 0.45007 0.51541 0.0
C141 C 0.79032 0.28849 0.52763 0.0
C142 C 0.83717 0.24428 0.51287 0.0
C143 C 0.78968 0.35195 0.52464 0.0
C144 C 0.90074 0.47324 0.50888 0.0
H145 H 0.9203 0.7774 0.5363 0.0
H146 H 0.92038 0.6668 0.54092 0.0
H147 H 0.9515 0.56058 0.50986 0.0
H148 H 0.91926 0.2327 0.48277 0.0
H149 H 0.91865 0.34325 0.47799 0.0
H150 H 0.71929 0.44824 0.49148 0.0
C151 C 0.88324 0.68083 0.51932 0.0
C152 C 0.90046 0.53672 0.50603 0.0
C153 C 0.88325 0.74435 0.51659 0.0
C154 C 0.8834 0.26536 0.49506 0.0
C155 C 0.88298 0.32885 0.49223 0.0
C156 C 0.77032 0.47241 0.4958 0.0
C157 C 0.83495 0.63628 0.49491 0.0
C158 C 0.83511 0.56872 0.49787 0.0
C159 C 0.83608 0.37288 0.50695 0.0
C160 C 0.83568 0.44037 0.50386 0.0
H161 H 0.74975 0.73399 0.44319 0.0
H162 H 0.74935 0.62338 0.44819 0.0
H163 H 0.71881 0.55929 0.4867 0.0
H164 H 0.7547 0.27442 0.54194 0.0
H165 H 0.75357 0.38491 0.53666 0.0
loop_
_geom_bond_atom_site_label_1
_geom_bond_atom_site_label_2
_geom_bond_distance
_geom_bond_site_symmetry_2
_ccdc_geom_bond_type
Cu0 N1 1.999 1_454 S
Cu0 O6 1.974 . S
Cu0 N11 1.985 . S
Cu0 O20 1.959 1_455 S
N1 Cu0 1.999 1_656 S
N1 C3 1.263 1_655 S
N1 C5 1.389 . S
N2 C3 1.358 1_655 S
N2 C4 1.400 . S
C3 N1 1.263 1_455 S
C3 N2 1.358 1_455 S
C3 H9 0.930 1_545 S
C4 N2 1.400 . S
C4 C5 1.351 . S
C4 H21 0.930 . S
C5 N1 1.389 . S
C5 C4 1.351 . S
C5 H10 0.930 . S
O6 Cu0 1.974 . S
O6 C16 1.282 1_545 S
C7 O8 1.257 1_554 S
C7 O20 1.251 1_565 S
O8 C7 1.257 1_556 S
H9 C3 0.930 1_565 S
H10 C5 0.930 . S
N11 Cu0 1.985 . S
N11 C13 1.335 1_455 S
N11 C14 1.390 1_545 S
N12 C13 1.345 1_455 S
N12 C15 1.336 1_545 S
C13 N11 1.335 1_655 S
C13 N12 1.345 1_655 S
C13 H18 0.930 . S
C14 N11 1.390 1_565 S
C14 C15 1.346 . S
C14 H19 0.930 . S
C15 N12 1.336 1_565 S
C15 C14 1.346 . S
C15 H22 0.929 . S
C16 O6 1.282 1_565 S
C16 O17 1.216 . S
O17 C16 1.216 . S
H18 C13 0.930 . S
H19 C14 0.930 . S
O20 Cu0 1.959 1_655 S
O20 C7 1.251 1_545 S
H21 C4 0.930 . S
H22 C15 0.929 . S
Cu23 N24 1.999 1_545 S
Cu23 O29 1.974 . S
Cu23 N34 1.985 . S
Cu23 O43 1.959 . S
N24 Cu23 1.999 1_565 S
N24 C26 1.263 . S
N24 C28 1.389 . S
N25 C26 1.358 . S
N25 C27 1.400 . S
C26 N24 1.263 . S
C26 N25 1.358 . S
C26 H32 0.930 1_455 S
C27 N25 1.400 . S
C27 C28 1.351 . S
C27 H44 0.930 . S
C28 N24 1.389 . S
C28 C27 1.351 . S
C28 H33 0.930 . S
O29 Cu23 1.974 . S
O29 C39 1.282 1_455 S
C30 O31 1.261 1_545 S
C30 O43 1.251 1_655 S
O31 C30 1.261 1_565 S
H32 C26 0.930 1_655 S
H33 C28 0.930 . S
N34 Cu23 1.985 . S
N34 C36 1.335 . S
N34 C37 1.390 1_455 S
N35 C36 1.345 . S
N35 C38 1.336 1_455 S
C36 N34 1.335 . S
C36 N35 1.345 . S
C36 H41 0.930 . S
C37 N34 1.390 1_655 S
C37 C38 1.346 . S
C37 H42 0.930 . S
C38 N35 1.336 1_655 S
C38 C37 1.346 . S
C38 H45 0.929 . S
C39 O29 1.282 1_655 S
C39 O40 1.216 . S
O40 C39 1.216 . S
H41 C36 0.930 . S
H42 C37 0.930 . S
O43 Cu23 1.959 . S
O43 C30 1.251 1_455 S
H44 C27 0.930 . S
H45 C38 0.929 . S
C46 C47 1.349 1_655 S
C46 C48 1.327 . S
C46 H71 0.950 . S
C47 C46 1.349 1_455 S
C47 C63 1.349 1_545 S
C48 C46 1.327 . S
C48 C67 1.429 1_655 S
C48 H72 0.950 . S
C49 C66 1.574 . S
C49 C68 1.368 1_465 S
C49 H73 0.949 . S
H50 C54 0.949 . S
C51 C52 1.349 1_465 S
C51 C53 1.327 . S
C51 H74 0.950 . S
C52 C51 1.349 1_645 S
C52 C64 1.349 . S
C53 C51 1.327 . S
C53 C69 1.429 1_465 S
C53 H75 0.950 . S
C54 H50 0.949 . S
C54 C62 1.574 . S
C54 C70 1.368 . S
H55 C63 0.950 . S
H56 C61 0.950 . S
H57 C62 0.949 . S
H58 C64 0.950 . S
H59 C65 0.950 . S
H60 C66 0.949 . S
C61 H56 0.950 . S
C61 C63 1.327 . S
C61 C67 1.429 1_565 S
C62 C54 1.574 . S
C62 H57 0.949 . S
C62 C68 1.368 . S
C63 C47 1.349 1_565 S
C63 H55 0.950 . S
C63 C61 1.327 . S
C64 C52 1.349 . S
C64 H58 0.950 . S
C64 C65 1.327 . S
C65 H59 0.950 . S
C65 C64 1.327 . S
C65 C69 1.429 . S
C66 C49 1.574 . S
C66 H60 0.949 . S
C66 C70 1.368 1_465 S
C67 C48 1.429 1_455 S
C67 C61 1.429 1_545 S
C67 C68 1.523 1_455 S
C68 C49 1.368 1_645 S
C68 C62 1.368 . S
C68 C67 1.523 1_655 S
C69 C53 1.429 1_645 S
C69 C65 1.429 . S
C69 C70 1.523 . S
C70 C54 1.368 . S
C70 C66 1.368 1_645 S
C70 C69 1.523 . S
H71 C46 0.950 . S
H72 C48 0.950 . S
H73 C49 0.949 . S
H74 C51 0.950 . S
H75 C53 0.950 . S
C76 C77 1.349 1_665 S
C76 C78 1.327 . S
C76 H101 0.950 . S
C77 C76 1.349 1_445 S
C77 C93 1.349 . S
C78 C76 1.327 . S
C78 C97 1.429 1_665 S
C78 H102 0.950 . S
C79 C96 1.574 . S
C79 C98 1.368 1_455 S
C79 H103 0.949 . S
H80 C84 0.949 . S
C81 C82 1.349 1_455 S
C81 C83 1.327 . S
C81 H104 0.950 . S
C82 C81 1.349 1_655 S
C82 C94 1.349 1_545 S
C83 C81 1.327 . S
C83 C99 1.429 1_455 S
C83 H105 0.950 . S
C84 H80 0.949 . S
C84 C92 1.574 . S
C84 C100 1.368 1_565 S
H85 C93 0.950 . S
H86 C91 0.950 . S
H87 C92 0.949 . S
H88 C94 0.950 . S
H89 C95 0.950 . S
H90 C96 0.949 . S
C91 H86 0.950 . S
C91 C93 1.327 . S
C91 C97 1.429 . S
C92 C84 1.574 . S
C92 H87 0.949 . S
C92 C98 1.368 1_565 S
C93 C77 1.349 . S
C93 H85 0.950 . S
C93 C91 1.327 . S
C94 C82 1.349 1_565 S
C94 H88 0.950 . S
C94 C95 1.327 . S
C95 H89 0.950 . S
C95 C94 1.327 . S
C95 C99 1.429 1_565 S
C96 C79 1.574 . S
C96 H90 0.949 . S
C96 C100 1.368 1_455 S
C97 C78 1.429 1_445 S
C97 C91 1.429 . S
C97 C98 1.523 1_455 S
C98 C79 1.368 1_655 S
C98 C92 1.368 1_545 S
C98 C97 1.523 1_655 S
C99 C83 1.429 1_655 S
C99 C95 1.429 1_545 S
C99 C100 1.523 . S
C100 C84 1.368 1_545 S
C100 C96 1.368 1_655 S
C100 C99 1.523 . S
H101 C76 0.950 . S
H102 C78 0.950 . S
H103 C79 0.949 . S
H104 C81 0.950 . S
H105 C83 0.950 . S
C106 C107 1.355 1_545 S
C106 C108 1.330 . S
C106 H131 0.940 1_554 S
C107 C106 1.355 1_565 S
C107 C123 1.349 . S
C108 C106 1.330 . S
C108 C127 1.429 1_545 S
C108 H132 0.949 1_554 S
C109 C126 1.574 . S
C109 C128 1.368 . S
C109 H133 0.949 . S
H110 C114 0.956 . S
C111 C112 1.349 . S
C111 C113 1.327 . S
C111 H134 0.950 . S
C112 C111 1.349 . S
C112 C124 1.356 1_565 S
C113 C111 1.327 . S
C113 C129 1.429 . S
C113 H135 0.950 . S
C114 H110 0.956 . S
C114 C122 1.574 . S
C114 C130 1.356 1_546 S
H115 C123 0.950 . S
H116 C121 0.950 . S
H117 C122 0.961 . S
H118 C124 0.946 1_556 S
H119 C125 0.951 1_556 S
H120 C126 0.949 . S
C121 H116 0.950 . S
C121 C123 1.327 . S
C121 C127 1.429 . S
C122 C114 1.574 . S
C122 H117 0.961 . S
C122 C128 1.360 1_546 S
C123 C107 1.349 . S
C123 H115 0.950 . S
C123 C121 1.327 . S
C124 C112 1.356 1_545 S
C124 H118 0.946 1_554 S
C124 C125 1.324 . S
C125 H119 0.951 1_554 S
C125 C124 1.324 . S
C125 C129 1.428 1_545 S
C126 C109 1.574 . S
C126 H120 0.949 . S
C126 C130 1.368 . S
C127 C108 1.429 1_565 S
C127 C121 1.429 . S
C127 C128 1.523 . S
C128 C109 1.368 . S
C128 C122 1.360 1_564 S
C128 C127 1.523 . S
C129 C113 1.429 . S
C129 C125 1.428 1_565 S
C129 C130 1.523 . S
C130 C114 1.356 1_564 S
C130 C126 1.368 . S
C130 C129 1.523 . S
H131 C106 0.940 1_556 S
H132 C108 0.949 1_556 S
H133 C109 0.949 . S
H134 C111 0.950 . S
H135 C113 0.950 . S
C136 C137 1.349 . S
C136 C138 1.327 . S
C136 H161 0.950 . S
C137 C136 1.349 . S
C137 C153 1.345 1_455 S
C138 C136 1.327 . S
C138 C157 1.429 . S
C138 H162 0.950 . S
C139 C156 1.574 . S
C139 C158 1.368 1_655 S
C139 H163 0.949 . S
H140 C144 0.949 . S
C141 C142 1.346 1_655 S
C141 C143 1.327 . S
C141 H164 0.953 . S
C142 C141 1.346 1_455 S
C142 C154 1.349 . S
C143 C141 1.327 . S
C143 C159 1.421 1_655 S
C143 H165 0.957 . S
C144 H140 0.949 . S
C144 C152 1.574 . S
C144 C160 1.368 . S
H145 C153 0.953 . S
H146 C151 0.958 . S
H147 C152 0.949 . S
H148 C154 0.950 . S
H149 C155 0.950 . S
H150 C156 0.949 . S
C151 H146 0.958 . S
C151 C153 1.327 . S
C151 C157 1.421 1_655 S
C152 C144 1.574 . S
C152 H147 0.949 . S
C152 C158 1.368 . S
C153 C137 1.345 1_655 S
C153 H145 0.953 . S
C153 C151 1.327 . S
C154 C142 1.349 . S
C154 H148 0.950 . S
C154 C155 1.327 . S
C155 H149 0.950 . S
C155 C154 1.327 . S
C155 C159 1.429 . S
C156 C139 1.574 . S
C156 H150 0.949 . S
C156 C160 1.368 1_655 S
C157 C138 1.429 . S
C157 C151 1.421 1_455 S
C157 C158 1.523 . S
C158 C139 1.368 1_455 S
C158 C152 1.368 . S
C158 C157 1.523 . S
C159 C143 1.421 1_455 S
C159 C155 1.429 . S
C159 C160 1.523 . S
C160 C144 1.368 . S
C160 C156 1.368 1_455 S
C160 C159 1.523 . S
H161 C136 0.950 . S
H162 C138 0.950 . S
H163 C139 0.949 . S
H164 C141 0.953 . S
H165 C143 0.957 . S
C47 N12 1.462 . S
C52 C30 1.491 . S
C77 N2 1.452 1_455 S
C82 C39 1.486 . S
C107 C7 1.481 . S
C112 C16 1.473 . S
C137 N25 1.455 . S
C142 N35 1.457 . S
