# Generated by pormake.
# Topology pcu, (6)-cn, num edge types: 1
# Building blocks:
#     Node 0, Type 0, BuildingBlock: BETFEN_clean_sbu_0, # of connection points: 6
#     Edge 1, Type (0, 0), BuildingBlock: XUDNAN_clean_linker_2, # of connection points: 2
#     Edge 2, Type (0, 0), BuildingBlock: XUDNAN_clean_linker_2, # of connection points: 2
#     Edge 3, Type (0, 0), BuildingBlock: XUDNAN_clean_linker_2, # of connection points: 2
# Relax obj value: 0.000
# Max RMSD: 0.000
# Mean RMSD: 0.000
data_MOF--net-pcu--node1-BETFEN_clean_sbu_0--edge1-XUDNAN_clean_linker_2
_symmetry_space_group_name_H-M    P1
_symmetry_Int_Tables_number       1
_symmetry_cell_setting            triclinic
loop_
_symmetry_equiv_pos_as_xyz
'x, y, z'
_cell_length_a     25.477539
_cell_length_b     15.502789
_cell_length_c     14.46126
_cell_angle_alpha  88.570276
_cell_angle_beta   95.244463
_cell_angle_gamma 123.13146
loop_
_atom_site_label
_atom_site_type_symbol
_atom_site_fract_x
_atom_site_fract_y
_atom_site_fract_z
_atom_type_partial_charge
Pr0 Pr 0.95754 0.92943 0.04616 0.0
Pr1 Pr 0.10759 0.05608 0.02168 0.0
C2 C 0.84706 0.85636 0.1171 0.0
C3 C 0.79185 0.86472 0.09856 0.0
C4 C 0.73102 0.77509 0.09204 0.0
C5 C 0.6782 0.7809 0.07262 0.0
C6 C 0.68498 0.8767 0.05957 0.0
C7 C 0.74602 0.96665 0.06718 0.0
C8 C 0.79889 0.96073 0.08613 0.0
C9 C 0.97602 0.96434 0.8568 0.0
C10 C 0.03867 0.1818 0.01935 0.0
C11 C 0.22447 0.12492 0.97554 0.0
C12 C 0.26709 0.08787 0.97904 0.0
C13 C 0.33241 0.1588 0.98294 0.0
C14 C 0.37331 0.12456 0.9857 0.0
C15 C 0.3496 0.01848 0.98458 0.0
C16 C 0.28401 0.94776 0.98198 0.0
C17 C 0.24324 0.9821 0.97914 0.0
C18 C 0.07148 0.02571 0.2032 0.0
C19 C 1.02116 0.79579 0.02311 0.0
O20 O 0.90009 0.93908 0.15062 0.0
O21 O 0.85457 0.80452 0.05512 0.0
O22 O 1.0182 -0.00546 0.92363 0.0
O23 O 0.92109 0.91523 0.88863 0.0
O24 O 0.08539 0.18204 0.98586 0.0
O25 O 0.99517 0.10302 0.06359 0.0
O26 O 0.17404 0.07689 0.91671 0.0
O27 O 0.21363 0.14721 0.05535 0.0
O28 O 0.0451 0.96145 0.13615 0.0
O29 O 0.12131 0.11042 0.17916 0.0
O30 O 0.97224 0.79448 0.04877 0.0
O31 O 0.07484 0.88185 1.00638 0.0
H32 H 0.72434 0.70027 0.10161 0.0
H33 H 0.63191 0.7102 0.06844 0.0
H34 H 0.75303 0.04154 0.05654 0.0
H35 H 0.84525 0.03128 0.0903 0.0
H36 H 0.3518 0.24082 0.98317 0.0
H37 H 0.42343 0.18119 0.98682 0.0
H38 H 0.26415 0.8657 0.98281 0.0
H39 H 0.19306 0.92604 0.97673 0.0
H40 H 0.13168 0.13741 0.36882 0.0
H41 H 0.96072 0.86158 0.24987 0.0
H42 H 0.91983 0.81985 0.40326 0.0
H43 H 0.14263 0.01901 0.58441 0.0
H44 H 0.17218 0.13254 0.65641 0.0
H45 H 0.18844 0.14506 0.53639 0.0
H46 H 0.13976 0.25378 0.5082 0.0
H47 H 0.12347 0.24177 0.62816 0.0
H48 H 0.06069 0.20222 0.53718 0.0
H49 H 0.89496 0.80922 0.56417 0.0
H50 H 0.88912 0.82259 0.73102 0.0
H51 H 0.07871 0.09707 0.75681 0.0
C52 C 0.08557 0.06863 0.37539 0.0
C53 C 0.0488 0.00358 0.29697 0.0
C54 C 0.98923 0.91333 0.30844 0.0
C55 C 0.96564 0.88873 0.39543 0.0
C56 C 1.00266 0.95405 0.47113 0.0
C57 C 0.0616 0.04152 0.46288 0.0
C58 C 0.09188 0.09577 0.55734 0.0
C59 C 0.15238 0.09822 0.58527 0.0
C60 C 0.1047 0.20486 0.55771 0.0
C61 C 0.04031 0.02539 0.61925 0.0
C62 C 0.98928 0.94485 0.56706 0.0
C63 C 0.93473 0.87133 0.60606 0.0
C64 C 0.93189 0.87991 0.70104 0.0
C65 C 0.98351 0.96052 0.75701 0.0
C66 C 0.03883 0.03408 0.71574 0.0
H67 H 0.46531 0.09701 0.08443 0.0
H68 H 0.33189 0.85625 0.88277 0.0
H69 H 0.40256 0.79401 0.88081 0.0
H70 H 0.60591 0.15283 0.98796 0.0
H71 H 0.64977 0.17416 0.09942 0.0
H72 H 0.58839 0.19937 0.08605 0.0
H73 H 0.53356 0.07625 0.21948 0.0
H74 H 0.59479 0.05069 0.23329 0.0
H75 H 0.51364 0.94553 0.21267 0.0
H76 H 0.48793 0.75818 0.89962 0.0
H77 H 0.58184 0.75107 0.9383 0.0
H78 H 0.66053 0.01514 0.12743 0.0
C79 C 0.45111 0.03166 0.03932 0.0
C80 C 0.39274 0.98143 0.98393 0.0
C81 C 0.37578 0.89523 0.92689 0.0
C82 C 0.41583 0.85961 0.92484 0.0
C83 C 0.47285 0.91077 0.98026 0.0
C84 C 0.49053 -0.00514 0.03653 0.0
C85 C 0.55428 0.03548 0.08973 0.0
C86 C 0.60243 0.14707 0.06422 0.0
C87 C 0.54871 0.02642 0.19503 0.0
C88 C 0.5699 0.96165 0.05392 0.0
C89 C 0.52216 0.89013 0.99107 0.0
C90 C 0.52551 0.81359 0.949 0.0
C91 C 0.57895 0.80983 0.97185 0.0
C92 C 0.62861 0.88221 0.03619 0.0
C93 C 0.62377 0.95925 0.07736 0.0
H94 H 0.11447 0.75541 0.02549 0.0
H95 H 0.91162 0.60967 0.99237 0.0
H96 H 0.89713 0.44102 0.97209 0.0
H97 H 0.11888 0.58098 0.85804 0.0
H98 H 0.18088 0.58062 0.92856 0.0
H99 H 0.17568 0.69195 0.93047 0.0
H100 H 0.17371 0.68059 0.10965 0.0
H101 H 0.17759 0.56818 0.10726 0.0
H102 H 0.1141 0.56271 0.15893 0.0
H103 H 0.90235 0.28985 0.96428 0.0
H104 H 0.92656 0.15711 0.9785 0.0
H105 H 0.12643 0.39354 0.01846 0.0
C106 C 0.06716 0.68815 1.01247 0.0
C107 C 1.01416 0.69577 1.01026 0.0
C108 C 0.9529 0.60578 0.99493 0.0
C109 C 0.94414 0.50963 0.98247 0.0
C110 C 0.99708 0.50455 0.98546 0.0
C111 C 0.05745 0.5908 1.00035 0.0
C112 C 0.10564 0.56141 1.0066 0.0
C113 C 0.14778 0.60642 0.92613 0.0
C114 C 0.14506 0.59521 0.10126 0.0
C115 C 0.06249 0.44487 0.99624 0.0
C116 C 1.0002 0.41485 0.98235 0.0
C117 C 0.95085 0.3121 0.97455 0.0
C118 C 0.96517 0.23737 0.98329 0.0
C119 C 1.02829 0.26531 1.00026 0.0
C120 C 0.07788 0.37046 1.00462 0.0
loop_
_geom_bond_atom_site_label_1
_geom_bond_atom_site_label_2
_geom_bond_distance
_geom_bond_site_symmetry_2
_ccdc_geom_bond_type
Pr0 C2 2.880 . S
Pr0 O20 2.562 1_556 S
Pr0 O21 2.490 . S
Pr0 O22 2.695 1_655 S
Pr0 O23 2.512 . S
Pr0 O25 2.437 1_565 S
Pr0 O28 2.436 1_566 S
Pr0 O30 2.438 . S
Pr1 C11 2.880 . S
Pr1 O22 2.436 1_544 S
Pr1 O24 2.438 . S
Pr1 O26 2.562 1_554 S
Pr1 O27 2.490 . S
Pr1 O28 2.695 1_455 S
Pr1 O29 2.512 . S
Pr1 O31 2.437 1_545 S
C2 Pr0 2.880 . S
C2 C3 1.491 . S
C2 O20 1.254 1_556 S
C2 O21 1.225 . S
C3 C2 1.491 . S
C3 C4 1.392 . S
C3 C8 1.356 1_566 S
C4 C3 1.392 . S
C4 C5 1.368 . S
C4 H32 0.929 . S
C5 C4 1.368 . S
C5 C6 1.386 . S
C5 H33 0.929 . S
C6 C5 1.386 . S
C6 C7 1.373 1_566 S
C7 C6 1.373 1_544 S
C7 C8 1.409 . S
C7 H34 0.931 . S
C8 C3 1.356 1_544 S
C8 C7 1.409 . S
C8 H35 0.930 . S
C9 O22 1.270 1_655 S
C9 O23 1.248 . S
C10 O24 1.267 1_556 S
C10 O25 1.278 1_455 S
C11 Pr1 2.880 . S
C11 C12 1.491 . S
C11 O26 1.254 1_554 S
C11 O27 1.225 . S
C12 C11 1.491 . S
C12 C13 1.392 . S
C12 C17 1.356 1_544 S
C13 C12 1.392 . S
C13 C14 1.368 . S
C13 H36 0.929 . S
C14 C13 1.368 . S
C14 C15 1.386 . S
C14 H37 0.929 . S
C15 C14 1.386 . S
C15 C16 1.373 1_544 S
C16 C15 1.373 1_566 S
C16 C17 1.409 . S
C16 H38 0.931 . S
C17 C12 1.356 1_566 S
C17 C16 1.409 . S
C17 H39 0.930 . S
C18 O28 1.270 1_455 S
C18 O29 1.248 . S
C19 O30 1.267 1_554 S
C19 O31 1.278 1_655 S
O20 Pr0 2.562 1_554 S
O20 C2 1.254 1_554 S
O21 Pr0 2.490 . S
O21 C2 1.225 . S
O22 Pr0 2.695 1_455 S
O22 Pr1 2.436 1_566 S
O22 C9 1.270 1_455 S
O23 Pr0 2.512 . S
O23 C9 1.248 . S
O24 Pr1 2.438 . S
O24 C10 1.267 1_554 S
O25 Pr0 2.437 1_545 S
O25 C10 1.278 1_655 S
O26 Pr1 2.562 1_556 S
O26 C11 1.254 1_556 S
O27 Pr1 2.490 . S
O27 C11 1.225 . S
O28 Pr0 2.436 1_544 S
O28 Pr1 2.695 1_655 S
O28 C18 1.270 1_655 S
O29 Pr1 2.512 . S
O29 C18 1.248 . S
O30 Pr0 2.438 . S
O30 C19 1.267 1_556 S
O31 Pr1 2.437 1_565 S
O31 C19 1.278 1_455 S
H32 C4 0.929 . S
H33 C5 0.929 . S
H34 C7 0.931 . S
H35 C8 0.930 . S
H36 C13 0.929 . S
H37 C14 0.929 . S
H38 C16 0.931 . S
H39 C17 0.930 . S
H40 C52 0.930 . S
H41 C54 0.930 . S
H42 C55 0.930 . S
H43 C59 0.959 . S
H44 C59 0.959 . S
H45 C59 0.961 . S
H46 C60 0.960 . S
H47 C60 0.961 . S
H48 C60 0.959 1_655 S
H49 C63 0.929 . S
H50 C64 0.931 . S
H51 C66 0.930 . S
C52 H40 0.930 . S
C52 C53 1.399 1_445 S
C52 C57 1.399 . S
C53 C52 1.399 1_665 S
C53 C54 1.376 . S
C54 H41 0.930 . S
C54 C53 1.376 . S
C54 C55 1.388 . S
C55 H42 0.930 . S
C55 C54 1.388 . S
C55 C56 1.390 . S
C56 C55 1.390 . S
C56 C57 1.394 1_665 S
C56 C62 1.465 . S
C57 C52 1.399 . S
C57 C56 1.394 1_445 S
C57 C58 1.516 . S
C58 C57 1.516 . S
C58 C59 1.502 . S
C58 C60 1.561 . S
C58 C61 1.526 . S
C59 H43 0.959 . S
C59 H44 0.959 . S
C59 H45 0.961 . S
C59 C58 1.502 . S
C60 H46 0.960 . S
C60 H47 0.961 . S
C60 H48 0.959 1_455 S
C60 C58 1.561 . S
C61 C58 1.526 . S
C61 C62 1.396 1_445 S
C61 C66 1.390 . S
C62 C56 1.465 . S
C62 C61 1.396 1_665 S
C62 C63 1.399 . S
C63 H49 0.929 . S
C63 C62 1.399 . S
C63 C64 1.385 . S
C64 H50 0.931 . S
C64 C63 1.385 . S
C64 C65 1.389 . S
C65 C64 1.389 . S
C65 C66 1.387 1_665 S
C66 H51 0.930 . S
C66 C61 1.390 . S
C66 C65 1.387 1_445 S
H67 C79 0.930 . S
H68 C81 0.930 . S
H69 C82 0.930 . S
H70 C86 0.959 . S
H71 C86 0.959 . S
H72 C86 0.961 . S
H73 C87 0.960 . S
H74 C87 0.961 . S
H75 C87 0.959 . S
H76 C90 0.929 . S
H77 C91 0.931 . S
H78 C93 0.930 . S
C79 H67 0.930 . S
C79 C80 1.399 1_544 S
C79 C84 1.395 1_545 S
C80 C79 1.399 1_566 S
C80 C81 1.376 . S
C81 H68 0.930 . S
C81 C80 1.376 . S
C81 C82 1.388 . S
C82 H69 0.930 . S
C82 C81 1.388 . S
C82 C83 1.390 . S
C83 C82 1.390 . S
C83 C84 1.396 1_556 S
C83 C89 1.465 . S
C84 C79 1.395 1_565 S
C84 C83 1.396 1_554 S
C84 C85 1.519 1_565 S
C85 C84 1.519 1_545 S
C85 C86 1.502 . S
C85 C87 1.561 1_545 S
C85 C88 1.524 1_545 S
C86 H70 0.959 . S
C86 H71 0.959 . S
C86 H72 0.961 . S
C86 C85 1.502 . S
C87 H73 0.960 . S
C87 H74 0.961 . S
C87 H75 0.959 . S
C87 C85 1.561 1_565 S
C88 C85 1.524 1_565 S
C88 C89 1.396 1_554 S
C88 C93 1.391 1_565 S
C89 C83 1.465 . S
C89 C88 1.396 1_556 S
C89 C90 1.399 . S
C90 H76 0.929 . S
C90 C89 1.399 . S
C90 C91 1.385 . S
C91 H77 0.931 . S
C91 C90 1.385 . S
C91 C92 1.389 . S
C92 C91 1.389 . S
C92 C93 1.387 1_566 S
C93 H78 0.930 . S
C93 C88 1.391 1_545 S
C93 C92 1.387 1_544 S
H94 C106 0.930 . S
H95 C108 0.930 . S
H96 C109 0.930 . S
H97 C113 0.959 . S
H98 C113 0.959 . S
H99 C113 0.961 . S
H100 C114 0.960 . S
H101 C114 0.961 . S
H102 C114 0.959 1_655 S
H103 C117 0.929 . S
H104 C118 0.931 . S
H105 C120 0.930 . S
C106 H94 0.930 . S
C106 C107 1.399 1_454 S
C106 C111 1.399 . S
C107 C106 1.399 1_656 S
C107 C108 1.376 . S
C108 H95 0.930 . S
C108 C107 1.376 . S
C108 C109 1.388 . S
C109 H96 0.930 . S
C109 C108 1.388 . S
C109 C110 1.390 . S
C110 C109 1.390 . S
C110 C111 1.394 1_656 S
C110 C116 1.465 . S
C111 C106 1.399 . S
C111 C110 1.394 1_454 S
C111 C112 1.516 . S
C112 C111 1.516 . S
C112 C113 1.502 . S
C112 C114 1.561 . S
C112 C115 1.526 . S
C113 H97 0.959 . S
C113 H98 0.959 . S
C113 H99 0.961 . S
C113 C112 1.502 . S
C114 H100 0.960 . S
C114 H101 0.961 . S
C114 H102 0.959 1_455 S
C114 C112 1.561 . S
C115 C112 1.526 . S
C115 C116 1.396 1_454 S
C115 C120 1.390 . S
C116 C110 1.465 . S
C116 C115 1.396 1_656 S
C116 C117 1.399 . S
C117 H103 0.929 . S
C117 C116 1.399 . S
C117 C118 1.385 . S
C118 H104 0.931 . S
C118 C117 1.385 . S
C118 C119 1.389 . S
C119 C118 1.389 . S
C119 C120 1.387 1_656 S
C120 H105 0.930 . S
C120 C115 1.390 . S
C120 C119 1.387 1_454 S
C53 C18 1.479 1_665 S
C65 C9 1.416 . S
C80 C15 1.496 1_566 S
C92 C6 1.489 . S
C107 C19 1.482 1_556 S
C119 C10 1.480 1_655 S
