# Generated by pormake.
# Topology pcu, (6)-cn, num edge types: 1
# Building blocks:
#     Node 0, Type 0, BuildingBlock: CIFDUS_clean_sbu_1, # of connection points: 6
#     Edge 1, Type (0, 0), BuildingBlock: TEMPAE_clean_linker_10, # of connection points: 2
#     Edge 2, Type (0, 0), BuildingBlock: TEMPAE_clean_linker_10, # of connection points: 2
#     Edge 3, Type (0, 0), BuildingBlock: TEMPAE_clean_linker_10, # of connection points: 2
# Relax obj value: 0.009
# Max RMSD: 0.057
# Mean RMSD: 0.057
data_MOF--net-pcu--node1-CIFDUS_clean_sbu_1--edge1-TEMPAE_clean_linker_10
_symmetry_space_group_name_H-M    P1
_symmetry_Int_Tables_number       1
_symmetry_cell_setting            triclinic
loop_
_symmetry_equiv_pos_as_xyz
'x, y, z'
_cell_length_a     15.928095
_cell_length_b     15.847436
_cell_length_c     15.20192
_cell_angle_alpha  68.95547
_cell_angle_beta   112.43457
_cell_angle_gamma 94.5448
loop_
_atom_site_label
_atom_site_type_symbol
_atom_site_fract_x
_atom_site_fract_y
_atom_site_fract_z
_atom_type_partial_charge
O0 O 1.02958 0.85167 0.09061 0.0
Mn1 Mn 1.03121 -0.01579 0.08902 0.0
O2 O 0.16332 0.79204 0.21849 0.0
Mn3 Mn 0.18467 0.8838 0.27132 0.0
O4 O 0.03929 0.11677 0.09271 0.0
O5 O 0.9795 0.02897 0.93495 0.0
Mn6 Mn 0.90961 0.12776 0.88889 0.0
O7 O 0.89781 -0.01934 0.08703 0.0
O8 O 0.98303 0.21219 0.93071 0.0
O9 O 0.16009 -0.00572 1.07779 0.0
O10 O 0.26034 0.9694 0.23283 0.0
O11 O 0.90152 0.10811 0.77476 0.0
O12 O 0.81883 0.0925 0.93921 0.0
C13 C 0.10901 0.90144 0.34712 0.0
C14 C 0.09228 0.78675 0.14483 0.0
C15 C 1.0267 0.19687 1.02482 0.0
C16 C 0.95568 0.03787 0.84033 0.0
C17 C 0.82346 0.02906 1.0219 0.0
C18 C 0.24039 0.0003 0.13828 0.0
O19 O 0.07836 0.93373 0.24699 0.0
O20 O 0.18801 0.85701 0.39687 0.0
C21 C 0.06043 0.82502 0.49008 0.0
C22 C 0.05601 0.90376 0.407 0.0
C23 C 0.03825 0.82833 0.56942 0.0
C24 C 1.01097 0.91268 0.56533 0.0
C25 C 0.99812 -0.00894 0.47693 0.0
C26 C 1.02096 -0.01433 0.39824 0.0
C27 C 0.05145 0.74295 0.66109 0.0
C28 C 0.9667 0.08186 0.46888 0.0
C29 C 0.90697 0.93959 0.74003 0.0
C30 C 0.97916 0.9731 0.80362 0.0
C31 C 0.9178 0.913 0.66635 0.0
C32 C 1.00295 0.92077 0.65627 0.0
C33 C 0.07875 0.94475 0.72826 0.0
C34 C 0.0658 0.97099 0.80146 0.0
C35 C 0.83581 0.88565 0.5931 0.0
C36 C 0.17149 0.95098 0.72203 0.0
H37 H 0.08743 0.76143 0.49639 0.0
H38 H 1.01839 0.0465 0.33443 0.0
H39 H 0.11457 0.74538 0.725 0.0
H40 H 0.99418 0.73704 0.687 0.0
H41 H 0.05765 0.68117 0.64496 0.0
H42 H 0.95201 0.13396 0.39185 0.0
H43 H 0.9045 0.07577 0.48648 0.0
H44 H 1.02027 0.10551 0.5256 0.0
H45 H 0.83967 0.94236 0.74145 0.0
H46 H 0.12109 -0.00165 0.84973 0.0
H47 H 0.8542 0.82829 0.57695 0.0
H48 H 0.80891 0.94356 0.51976 0.0
H49 H 0.78063 0.86604 0.62294 0.0
H50 H 0.19027 0.88955 0.71295 0.0
H51 H 0.22515 0.95909 0.79074 0.0
H52 H 0.16988 0.01009 0.65417 0.0
C53 C 0.38104 0.07431 0.12724 0.0
C54 C 0.31705 0.0117 0.1051 0.0
C55 C 0.46384 0.07357 0.11476 0.0
C56 C 0.48438 0.00585 1.08402 0.0
C57 C 0.41943 0.94256 1.06135 0.0
C58 C 0.33575 0.94724 1.07061 0.0
C59 C 0.52952 0.14477 0.13513 0.0
C60 C 0.43944 0.86821 1.0305 0.0
C61 C 0.65546 0.05634 0.9582 0.0
C62 C 0.7371 0.01445 1.03969 0.0
C63 C 0.57322 0.05311 0.97178 0.0
C64 C 0.57126 0.00514 1.06906 0.0
C65 C 0.65224 0.95943 0.15125 0.0
C66 C 0.73465 0.96492 0.13572 0.0
C67 C 0.48894 0.1038 0.88237 0.0
C68 C 0.65205 0.90624 0.25576 0.0
H69 H 0.36674 0.12289 0.15579 0.0
H70 H 0.28694 0.89715 1.05657 0.0
H71 H 0.59417 0.11212 0.19886 0.0
H72 H 0.54606 0.18173 1.06705 0.0
H73 H 0.50168 0.19464 0.15468 0.0
H74 H 0.38247 0.82305 1.01807 0.0
H75 H 0.45279 0.8978 0.95939 0.0
H76 H 0.50178 0.82669 0.09049 0.0
H77 H 0.65568 0.09383 0.883 0.0
H78 H 0.79711 0.93238 0.19896 0.0
H79 H 0.46274 0.15597 0.90013 0.0
H80 H 0.43434 0.0568 0.86769 0.0
H81 H 0.50213 0.13778 0.81146 0.0
H82 H 0.63518 0.95265 0.28746 0.0
H83 H 0.71895 0.8695 0.30961 0.0
H84 H 0.59888 0.85654 0.25063 0.0
C85 C 0.16145 0.63996 0.17066 0.0
C86 C 0.08443 0.70103 0.12475 0.0
C87 C 0.15662 0.55598 0.15883 0.0
C88 C 0.07265 0.53189 0.0996 0.0
C89 C 0.99473 0.59343 1.05154 0.0
C90 C 1.0016 0.67769 1.06434 0.0
C91 C 0.24161 0.49308 0.20975 0.0
C92 C 0.90411 0.56987 0.98729 0.0
C93 C 0.07499 0.35423 0.98763 0.0
C94 C 0.05255 0.27708 1.05432 0.0
C95 C 0.0833 0.43714 1.00258 0.0
C96 C 0.06756 0.44329 0.08562 0.0
C97 C 0.04815 0.3648 0.1555 0.0
C98 C 0.04155 0.28212 0.13941 0.0
C99 C 0.10641 0.51867 0.92784 0.0
C100 C 1.03091 0.369 0.24488 0.0
H101 H 0.22628 0.6576 0.21649 0.0
H102 H 0.94195 0.72442 1.02865 0.0
H103 H 0.23045 0.42769 0.26245 0.0
H104 H 0.25744 0.47803 0.15166 0.0
H105 H 0.30167 0.52214 0.25351 0.0
H106 H 0.84983 0.62453 0.95624 0.0
H107 H 0.91026 0.55716 0.92276 0.0
H108 H 0.88306 0.50657 1.03343 0.0
H109 H 0.08369 0.35021 0.92185 0.0
H110 H 1.02292 0.22281 0.19014 0.0
H111 H 0.16687 0.54906 0.96879 0.0
H112 H 0.04908 0.57126 0.88772 0.0
H113 H 0.12066 0.50137 0.87003 0.0
H114 H 0.08931 0.39708 0.29196 0.0
H115 H 1.01972 0.30138 0.29403 0.0
H116 H 0.97001 0.41521 0.21681 0.0
loop_
_geom_bond_atom_site_label_1
_geom_bond_atom_site_label_2
_geom_bond_distance
_geom_bond_site_symmetry_2
_ccdc_geom_bond_type
O0 Mn1 2.163 1_666 S
O0 C14 1.244 1_656 S
Mn1 O0 2.163 1_444 S
Mn1 O4 2.160 . S
Mn1 O5 2.221 1_454 S
Mn1 O7 2.163 1_445 S
Mn1 O9 2.160 1_554 S
Mn1 O19 2.221 1_545 S
O2 Mn3 2.087 . S
O2 C14 1.256 . S
Mn3 O2 2.087 . S
Mn3 O10 2.089 . S
Mn3 O19 2.290 . S
Mn3 O20 2.251 . S
O4 Mn1 2.160 . S
O4 C15 1.239 1_454 S
O5 Mn1 2.221 1_656 S
O5 Mn6 2.290 . S
O5 C16 1.278 . S
Mn6 O5 2.290 . S
Mn6 O8 2.089 . S
Mn6 O11 2.251 . S
Mn6 O12 2.087 . S
O7 Mn1 2.163 1_665 S
O7 C17 1.244 1_564 S
O8 Mn6 2.089 . S
O8 C15 1.256 . S
O9 Mn1 2.160 1_556 S
O9 C18 1.239 1_546 S
O10 Mn3 2.089 . S
O10 C18 1.256 . S
O11 Mn6 2.251 . S
O11 C16 1.241 . S
O12 Mn6 2.087 . S
O12 C17 1.256 . S
C13 O19 1.278 . S
C13 O20 1.241 . S
C14 O0 1.244 1_454 S
C14 O2 1.256 . S
C15 O4 1.239 1_656 S
C15 O8 1.256 . S
C16 O5 1.278 . S
C16 O11 1.241 . S
C17 O7 1.244 1_546 S
C17 O12 1.256 . S
C18 O9 1.239 1_564 S
C18 O10 1.256 . S
O19 Mn1 2.221 1_565 S
O19 Mn3 2.290 . S
O19 C13 1.278 . S
O20 Mn3 2.251 . S
O20 C13 1.241 . S
C21 C22 1.391 1_455 S
C21 C23 1.394 . S
C21 H37 0.931 . S
C22 C21 1.391 1_655 S
C22 C26 1.376 1_565 S
C23 C21 1.394 . S
C23 C24 1.369 . S
C23 C27 1.531 . S
C24 C23 1.369 . S
C24 C25 1.410 1_465 S
C24 C32 1.503 1_455 S
C25 C24 1.410 1_645 S
C25 C26 1.392 . S
C25 C28 1.511 . S
C26 C22 1.376 1_545 S
C26 C25 1.392 . S
C26 H38 0.929 . S
C27 C23 1.531 . S
C27 H39 0.960 . S
C27 H40 0.962 . S
C27 H41 0.960 . S
C28 C25 1.511 . S
C28 H42 0.961 . S
C28 H43 0.961 . S
C28 H44 0.961 . S
C29 C30 1.370 . S
C29 C31 1.363 . S
C29 H45 0.931 . S
C30 C29 1.370 . S
C30 C34 1.408 1_665 S
C31 C29 1.363 . S
C31 C32 1.370 . S
C31 C35 1.524 . S
C32 C24 1.503 1_655 S
C32 C31 1.370 . S
C32 C33 1.403 1_665 S
C33 C32 1.403 1_445 S
C33 C34 1.404 . S
C33 C36 1.539 . S
C34 C30 1.408 1_445 S
C34 C33 1.404 . S
C34 H46 0.930 . S
C35 C31 1.524 . S
C35 H47 0.956 . S
C35 H48 0.961 . S
C35 H49 0.961 . S
C36 C33 1.539 . S
C36 H50 0.958 . S
C36 H51 0.961 . S
C36 H52 0.960 . S
H37 C21 0.931 . S
H38 C26 0.929 . S
H39 C27 0.960 . S
H40 C27 0.962 . S
H41 C27 0.960 . S
H42 C28 0.961 . S
H43 C28 0.961 . S
H44 C28 0.961 . S
H45 C29 0.931 . S
H46 C34 0.930 . S
H47 C35 0.956 . S
H48 C35 0.961 . S
H49 C35 0.961 . S
H50 C36 0.958 . S
H51 C36 0.961 . S
H52 C36 0.960 . S
C53 C54 1.391 1_556 S
C53 C55 1.394 . S
C53 H69 0.931 . S
C54 C53 1.391 1_554 S
C54 C58 1.376 1_545 S
C55 C53 1.394 . S
C55 C56 1.369 1_556 S
C55 C59 1.531 . S
C56 C55 1.369 1_554 S
C56 C57 1.410 1_545 S
C56 C64 1.503 . S
C57 C56 1.410 1_565 S
C57 C58 1.392 . S
C57 C60 1.511 . S
C58 C54 1.376 1_565 S
C58 C57 1.392 . S
C58 H70 0.929 . S
C59 C55 1.531 . S
C59 H71 0.960 . S
C59 H72 0.962 . S
C59 H73 0.960 . S
C60 C57 1.511 . S
C60 H74 0.961 . S
C60 H75 0.961 . S
C60 H76 0.961 . S
C61 C62 1.370 1_566 S
C61 C63 1.363 . S
C61 H77 0.931 . S
C62 C61 1.370 1_544 S
C62 C66 1.408 . S
C63 C61 1.363 . S
C63 C64 1.370 1_566 S
C63 C67 1.524 . S
C64 C56 1.503 . S
C64 C63 1.370 1_544 S
C64 C65 1.403 . S
C65 C64 1.403 . S
C65 C66 1.404 . S
C65 C68 1.539 . S
C66 C62 1.408 . S
C66 C65 1.404 . S
C66 H78 0.930 . S
C67 C63 1.524 . S
C67 H79 0.956 1_565 S
C67 H80 0.961 . S
C67 H81 0.961 . S
C68 C65 1.539 . S
C68 H82 0.958 . S
C68 H83 0.961 . S
C68 H84 0.960 . S
H69 C53 0.931 . S
H70 C58 0.929 . S
H71 C59 0.960 . S
H72 C59 0.962 . S
H73 C59 0.960 . S
H74 C60 0.961 . S
H75 C60 0.961 . S
H76 C60 0.961 . S
H77 C61 0.931 . S
H78 C66 0.930 . S
H79 C67 0.956 1_545 S
H80 C67 0.961 . S
H81 C67 0.961 . S
H82 C68 0.958 . S
H83 C68 0.961 . S
H84 C68 0.960 . S
C85 C86 1.391 1_455 S
C85 C87 1.394 . S
C85 H101 0.931 . S
C86 C85 1.391 1_655 S
C86 C90 1.376 1_554 S
C87 C85 1.394 . S
C87 C88 1.369 1_455 S
C87 C91 1.531 . S
C88 C87 1.369 1_655 S
C88 C89 1.410 1_554 S
C88 C96 1.503 . S
C89 C88 1.410 1_556 S
C89 C90 1.392 . S
C89 C92 1.511 . S
C90 C86 1.376 1_556 S
C90 C89 1.392 . S
C90 H102 0.929 . S
C91 C87 1.531 . S
C91 H103 0.960 . S
C91 H104 0.962 . S
C91 H105 0.960 . S
C92 C89 1.511 . S
C92 H106 0.961 . S
C92 H107 0.961 . S
C92 H108 0.961 . S
C93 C94 1.370 . S
C93 C95 1.363 . S
C93 H109 0.931 . S
C94 C93 1.370 . S
C94 C98 1.408 1_456 S
C95 C93 1.363 . S
C95 C96 1.370 1_456 S
C95 C99 1.524 . S
C96 C88 1.503 . S
C96 C95 1.370 1_654 S
C96 C97 1.403 . S
C97 C96 1.403 . S
C97 C98 1.404 . S
C97 C100 1.539 . S
C98 C94 1.408 1_654 S
C98 C97 1.404 . S
C98 H110 0.930 . S
C99 C95 1.524 . S
C99 H111 0.956 . S
C99 H112 0.961 . S
C99 H113 0.961 . S
C100 C97 1.539 . S
C100 H114 0.958 . S
C100 H115 0.961 . S
C100 H116 0.960 . S
H101 C85 0.931 . S
H102 C90 0.929 . S
H103 C91 0.960 . S
H104 C91 0.962 . S
H105 C91 0.960 . S
H106 C92 0.961 . S
H107 C92 0.961 . S
H108 C92 0.961 . S
H109 C93 0.931 . S
H110 C98 0.930 . S
H111 C99 0.956 . S
H112 C99 0.961 . S
H113 C99 0.961 . S
H114 C100 0.958 . S
H115 C100 0.961 . S
H116 C100 0.960 . S
C22 C13 1.281 1_655 S
C30 C16 1.304 1_565 S
C54 C18 1.430 1_545 S
C62 C17 1.462 1_554 S
C86 C14 1.437 1_655 S
C94 C15 1.450 1_455 S
