# Generated by pormake.
# Topology kag, (6)-cn, num edge types: 1
# Building blocks:
#     Node 0, Type 0, BuildingBlock: VOLQOD_clean_sbu_1, # of connection points: 6
#     Node 1, Type 0, BuildingBlock: VOLQOD_clean_sbu_1, # of connection points: 6
#     Node 2, Type 0, BuildingBlock: VOLQOD_clean_sbu_1, # of connection points: 6
#     Edge 3, Type (0, 0), BuildingBlock: OJICUG_clean_linker_0, # of connection points: 2
#     Edge 4, Type (0, 0), BuildingBlock: OJICUG_clean_linker_0, # of connection points: 2
#     Edge 5, Type (0, 0), BuildingBlock: OJICUG_clean_linker_0, # of connection points: 2
#     Edge 6, Type (0, 0), BuildingBlock: OJICUG_clean_linker_0, # of connection points: 2
#     Edge 7, Type (0, 0), BuildingBlock: OJICUG_clean_linker_0, # of connection points: 2
#     Edge 8, Type (0, 0), BuildingBlock: OJICUG_clean_linker_0, # of connection points: 2
#     Edge 9, Type (0, 0), BuildingBlock: OJICUG_clean_linker_0, # of connection points: 2
#     Edge 10, Type (0, 0), BuildingBlock: OJICUG_clean_linker_0, # of connection points: 2
#     Edge 11, Type (0, 0), BuildingBlock: OJICUG_clean_linker_0, # of connection points: 2
# Relax obj value: 0.312
# Max RMSD: 0.246
# Mean RMSD: 0.245
data_MOF--net-kag--node1-VOLQOD_clean_sbu_1--edge1-OJICUG_clean_linker_0
_symmetry_space_group_name_H-M    P1
_symmetry_Int_Tables_number       1
_symmetry_cell_setting            triclinic
loop_
_symmetry_equiv_pos_as_xyz
'x, y, z'
_cell_length_a     24.700828
_cell_length_b     25.534769
_cell_length_c     13.085378
_cell_angle_alpha  89.502349
_cell_angle_beta   90.944338
_cell_angle_gamma 120.76514
loop_
_atom_site_label
_atom_site_type_symbol
_atom_site_fract_x
_atom_site_fract_y
_atom_site_fract_z
_atom_type_partial_charge
O0 O -0.02172 0.43469 0.85495 0.0
Zn1 Zn -0.03308 0.41426 0.00187 0.0
O2 O -0.04268 0.47411 0.07889 0.0
Zn3 Zn 0.0326 0.52362 0.16224 0.0
Zn4 Zn 0.92479 0.52318 0.99213 0.0
Zn5 Zn 0.89183 0.42395 0.17956 0.0
O6 O 0.01787 0.51678 0.31432 0.0
O7 O 0.92365 0.43304 0.32347 0.0
O8 O 0.04261 0.41181 0.04648 0.0
O9 O 0.09567 0.49863 0.13335 0.0
O10 O 0.07316 0.61064 0.1235 0.0
O11 O 0.01094 0.6084 -0.0031 0.0
O12 O 0.897 0.54425 0.12959 0.0
O13 O 0.89159 0.33118 0.00647 0.0
O14 O 0.82915 0.45058 0.17432 0.0
O15 O 0.84232 0.33526 0.14314 0.0
C16 C -0.02984 0.47282 0.80477 0.0
C17 C -0.02665 0.47514 0.36618 0.0
C18 C 0.06072 0.63664 0.05154 0.0
C19 C 0.09233 0.45217 0.09166 0.0
C20 C 0.84164 0.50448 0.15549 0.0
C21 C 0.84663 0.30589 0.06895 0.0
O22 O 0.95173 0.50537 0.84773 0.0
O23 O 0.47503 0.95451 0.17945 0.0
Zn24 Zn 0.50532 -0.03268 0.03615 0.0
O25 O 0.44837 -0.0247 0.94266 0.0
Zn26 Zn 0.4063 0.90353 0.85751 0.0
Zn27 Zn 0.38839 -0.01567 0.02402 0.0
Zn28 Zn 0.49498 0.04579 0.85616 0.0
O29 O 0.41271 0.92472 0.7095 0.0
O30 O 0.48351 0.02388 0.70764 0.0
O31 O 0.51848 0.89925 -0.0019 0.0
O32 O 0.4474 0.8536 0.87406 0.0
O33 O 0.31532 0.85303 0.89494 0.0
O34 O 0.30297 0.90911 0.01122 0.0
O35 O 0.38432 0.0583 0.98331 0.0
O36 O 0.58909 0.04355 0.03682 0.0
O37 O 0.46199 0.10189 0.87177 0.0
O38 O 0.58671 0.09249 0.89693 0.0
C39 C 0.44197 -0.02751 0.22353 0.0
C40 C 0.44703 -0.0259 0.6614 0.0
C41 C 0.28115 0.86106 0.95724 0.0
C42 C 0.49162 0.85763 0.93114 0.0
C43 C 0.41811 0.10144 0.92202 0.0
C44 C 0.61583 0.08768 0.97437 0.0
O45 O 0.41124 -0.00804 0.17342 0.0
O46 O 0.51589 0.54064 0.18955 0.0
Zn47 Zn 0.53956 0.55806 0.0419 0.0
O48 O 0.47709 0.49099 0.95781 0.0
Zn49 Zn 0.51769 0.46272 0.87031 0.0
Zn50 Zn 0.41577 0.42475 0.04218 0.0
Zn51 Zn 0.43486 0.51769 0.86714 0.0
O52 O 0.5209 0.48896 0.72449 0.0
O53 O 0.4333 0.49311 0.72136 0.0
O54 O 0.62322 0.56266 0.03782 0.0
O55 O 0.60272 0.48952 0.92615 0.0
O56 O 0.47182 0.37197 0.8725 0.0
O57 O 0.40575 0.34442 0.00213 0.0
O58 O 0.33225 0.41931 0.03413 0.0
O59 O 0.54662 0.63784 0.00063 0.0
O60 O 0.34916 0.48985 0.91782 0.0
O61 O 0.47817 0.60758 0.87073 0.0
C62 C 0.47836 0.49173 0.23675 0.0
C63 C 0.47735 0.49137 0.67539 0.0
C64 C 0.43046 0.33103 0.92988 0.0
C65 C 0.63901 0.52899 0.9915 0.0
C66 C 0.3144 0.45068 0.98381 0.0
C67 C 0.51923 0.64947 0.92808 0.0
O68 O 0.44054 0.44259 0.18975 0.0
C69 C -0.001 0.53009 0.63939 0.0
C70 C -0.02362 0.47506 0.69301 0.0
H71 H 0.01769 0.57344 0.49233 0.0
C72 C -0.04375 0.42087 0.63856 0.0
H73 H 0.01484 0.5724 0.68004 0.0
C74 C -0.04385 0.42121 0.53201 0.0
C75 C -0.02188 0.47602 0.47827 0.0
H76 H 0.93822 0.3778 0.67828 0.0
H77 H 0.93847 0.37854 0.49151 0.0
C78 C 0.00088 0.53071 0.53256 0.0
C79 C 0.44509 0.02147 0.38857 0.0
C80 C 0.44078 -0.02799 0.33532 0.0
H81 H 0.45223 0.06154 0.53516 0.0
C82 C 0.43774 0.92301 0.38961 0.0
H83 H 0.44789 0.05987 0.34775 0.0
C84 C 0.43854 0.92321 0.49612 0.0
C85 C 0.44453 -0.02663 0.54947 0.0
H86 H 0.43431 0.88441 0.34962 0.0
H87 H 0.43591 0.88483 0.53676 0.0
C88 C 0.44799 0.0226 0.49517 0.0
C89 C 0.42087 0.46004 0.50776 0.0
C90 C 0.47771 0.49178 0.56328 0.0
H91 H 0.3769 0.43403 0.35968 0.0
C92 C 0.53483 0.52375 0.51094 0.0
H93 H 0.37632 0.4349 0.5468 0.0
C94 C 0.535 0.52468 0.40428 0.0
C95 C 0.47824 0.49199 0.34883 0.0
H96 H 0.57917 0.54874 0.5525 0.0
H97 H 0.5795 0.54999 0.36515 0.0
C98 C 0.42123 0.45932 0.4012 0.0
C99 C 0.1486 0.39526 0.06872 0.0
C100 C 0.15022 0.45086 0.0773 0.0
H101 H 0.20071 0.35157 0.03314 0.0
C102 C 0.20614 0.50568 0.05729 0.0
H103 H 0.1056 0.35246 0.08316 0.0
C104 C 0.25894 0.50491 0.02481 0.0
C105 C 0.25723 0.44947 0.01462 0.0
H106 H 0.20824 0.54904 0.0619 0.0
H107 H 0.30136 0.54783 0.00815 0.0
C108 C 0.2024 0.39466 0.03935 0.0
C109 C 0.69842 0.15378 0.10099 0.0
C110 C 0.67972 0.13777 -0.00148 0.0
H111 H 0.7665 0.22067 0.20399 0.0
C112 C 0.72012 0.17345 0.92019 0.0
H113 H 0.66784 0.12697 0.16277 0.0
C114 C 0.77718 0.22605 0.94391 0.0
C115 C 0.79367 0.24452 0.04617 0.0
H116 H 0.7067 0.16172 0.8407 0.0
H117 H 0.80637 0.25423 0.88192 0.0
C118 C 0.75465 0.2073 0.12465 0.0
C119 C 0.54308 0.80212 0.00206 0.0
C120 C 0.50975 0.81117 0.92246 0.0
H121 H 0.57317 0.74353 0.06598 0.0
C122 C 0.49001 0.77261 0.83707 0.0
H123 H 0.55953 0.83166 0.06838 0.0
C124 C 0.49857 0.72288 0.83508 0.0
C125 C 0.52644 0.7103 0.91896 0.0
H126 H 0.46554 0.7793 0.77346 0.0
H127 H 0.47985 0.69223 0.77025 0.0
C128 C 0.55127 0.75189 0.00043 0.0
C129 C 0.79313 0.56859 0.12275 0.0
C130 C 0.78964 0.51199 0.11848 0.0
H131 H 0.74712 0.61873 0.0859 0.0
C132 C 0.73834 0.46294 0.06845 0.0
H133 H 0.83288 0.60721 0.15981 0.0
C134 C 0.69145 0.4701 0.02319 0.0
C135 C 0.69378 0.52607 0.02888 0.0
H136 H 0.73499 0.41909 0.06194 0.0
H137 H 0.65228 0.43092 0.98616 0.0
C138 C 0.74473 0.57532 0.0797 0.0
C139 C 0.12694 0.71407 0.92269 0.0
C140 C 0.10879 0.69911 0.0248 0.0
H141 H 0.19742 0.7779 0.82092 0.0
C142 C 0.14276 0.74149 0.10227 0.0
H143 H 0.1015 0.68163 0.86198 0.0
C144 C 0.19629 0.79701 0.07857 0.0
C145 C 0.21761 0.80983 0.97755 0.0
H146 H 0.12937 0.73059 0.18152 0.0
H147 H 0.22351 0.8278 0.14026 0.0
C148 C 0.18171 0.76879 0.89933 0.0
C149 C 0.38232 0.22352 0.99284 0.0
C150 C 0.41644 0.26786 0.91825 0.0
H151 H 0.35564 0.13526 0.05231 0.0
C152 C 0.44308 0.25321 0.83741 0.0
H153 H 0.36085 0.23329 0.05567 0.0
C154 C 0.44025 0.19742 0.83571 0.0
C155 C 0.41051 0.15494 0.91454 0.0
H156 H 0.4688 0.28594 0.77773 0.0
H157 H 0.46377 0.1887 0.77475 0.0
C158 C 0.37929 0.16736 0.99089 0.0
loop_
_geom_bond_atom_site_label_1
_geom_bond_atom_site_label_2
_geom_bond_distance
_geom_bond_site_symmetry_2
_ccdc_geom_bond_type
O0 Zn1 1.953 . S
O0 C16 1.225 . S
Zn1 O0 1.953 . S
Zn1 O2 1.949 1_556 S
Zn1 O8 1.919 . S
Zn1 O13 1.924 1_455 S
O2 Zn1 1.949 1_554 S
O2 Zn3 1.923 . S
O2 Zn4 1.950 1_454 S
O2 Zn5 1.945 1_455 S
Zn3 O2 1.923 . S
Zn3 O6 1.933 . S
Zn3 O9 1.941 . S
Zn3 O10 1.965 . S
Zn4 O2 1.950 1_656 S
Zn4 O11 1.938 1_655 S
Zn4 O12 1.906 . S
Zn4 O22 1.953 . S
Zn5 O2 1.945 1_655 S
Zn5 O7 1.932 . S
Zn5 O14 1.977 . S
Zn5 O15 1.910 . S
O6 Zn3 1.933 . S
O6 C17 1.226 . S
O7 Zn5 1.932 . S
O7 C17 1.307 1_655 S
O8 Zn1 1.919 . S
O8 C19 1.253 1_556 S
O9 Zn3 1.941 . S
O9 C19 1.283 . S
O10 Zn3 1.965 . S
O10 C18 1.303 1_554 S
O11 Zn4 1.938 1_455 S
O11 C18 1.247 . S
O12 Zn4 1.906 . S
O12 C20 1.304 1_556 S
O13 Zn1 1.924 1_655 S
O13 C21 1.311 . S
O14 Zn5 1.977 . S
O14 C20 1.272 . S
O15 Zn5 1.910 . S
O15 C21 1.231 1_554 S
C16 O0 1.225 . S
C16 O22 1.298 1_455 S
C17 O6 1.226 . S
C17 O7 1.307 1_455 S
C18 O10 1.303 1_556 S
C18 O11 1.247 . S
C19 O8 1.253 1_554 S
C19 O9 1.283 . S
C20 O12 1.304 1_554 S
C20 O14 1.272 . S
C21 O13 1.311 . S
C21 O15 1.231 1_556 S
O22 Zn4 1.953 . S
O22 C16 1.298 1_655 S
O23 Zn24 1.954 1_565 S
O23 C39 1.215 1_565 S
Zn24 O23 1.954 1_545 S
Zn24 O25 1.943 1_554 S
Zn24 O31 1.919 1_545 S
Zn24 O36 1.924 . S
O25 Zn24 1.943 1_556 S
O25 Zn26 1.929 1_545 S
O25 Zn27 1.944 1_556 S
O25 Zn28 1.951 . S
Zn26 O25 1.929 1_565 S
Zn26 O29 1.933 . S
Zn26 O32 1.941 . S
Zn26 O33 1.965 . S
Zn27 O25 1.944 1_554 S
Zn27 O34 1.938 1_545 S
Zn27 O35 1.906 . S
Zn27 O45 1.953 . S
Zn28 O25 1.951 . S
Zn28 O30 1.932 . S
Zn28 O37 1.977 . S
Zn28 O38 1.910 . S
O29 Zn26 1.933 . S
O29 C40 1.226 1_565 S
O30 Zn28 1.932 . S
O30 C40 1.307 . S
O31 Zn24 1.919 1_565 S
O31 C42 1.253 1_554 S
O32 Zn26 1.941 . S
O32 C42 1.283 . S
O33 Zn26 1.965 . S
O33 C41 1.303 1_556 S
O34 Zn27 1.938 1_565 S
O34 C41 1.247 . S
O35 Zn27 1.906 . S
O35 C43 1.304 1_554 S
O36 Zn24 1.924 . S
O36 C44 1.311 . S
O37 Zn28 1.977 . S
O37 C43 1.272 . S
O38 Zn28 1.910 . S
O38 C44 1.231 1_556 S
C39 O23 1.215 1_545 S
C39 O45 1.298 . S
C40 O29 1.226 1_545 S
C40 O30 1.307 . S
C41 O33 1.303 1_554 S
C41 O34 1.247 . S
C42 O31 1.253 1_556 S
C42 O32 1.283 . S
C43 O35 1.304 1_556 S
C43 O37 1.272 . S
C44 O36 1.311 . S
C44 O38 1.231 1_554 S
O45 Zn27 1.953 . S
O45 C39 1.298 . S
O46 Zn47 1.953 . S
O46 C62 1.225 . S
Zn47 O46 1.953 . S
Zn47 O48 1.943 1_554 S
Zn47 O54 1.919 . S
Zn47 O59 1.924 . S
O48 Zn47 1.943 1_556 S
O48 Zn49 1.929 . S
O48 Zn50 1.944 1_556 S
O48 Zn51 1.951 . S
Zn49 O48 1.929 . S
Zn49 O52 1.933 . S
Zn49 O55 1.941 . S
Zn49 O56 1.965 . S
Zn50 O48 1.944 1_554 S
Zn50 O57 1.938 . S
Zn50 O58 1.906 . S
Zn50 O68 1.953 . S
Zn51 O48 1.951 . S
Zn51 O53 1.932 . S
Zn51 O60 1.977 . S
Zn51 O61 1.910 . S
O52 Zn49 1.933 . S
O52 C63 1.226 . S
O53 Zn51 1.932 . S
O53 C63 1.307 . S
O54 Zn47 1.919 . S
O54 C65 1.253 1_554 S
O55 Zn49 1.941 . S
O55 C65 1.283 . S
O56 Zn49 1.965 . S
O56 C64 1.303 1_556 S
O57 Zn50 1.938 . S
O57 C64 1.247 . S
O58 Zn50 1.906 . S
O58 C66 1.304 1_554 S
O59 Zn47 1.924 . S
O59 C67 1.311 . S
O60 Zn51 1.977 . S
O60 C66 1.272 . S
O61 Zn51 1.910 . S
O61 C67 1.231 1_556 S
C62 O46 1.225 . S
C62 O68 1.298 . S
C63 O52 1.226 . S
C63 O53 1.307 . S
C64 O56 1.303 1_554 S
C64 O57 1.247 . S
C65 O54 1.253 1_556 S
C65 O55 1.283 . S
C66 O58 1.304 1_556 S
C66 O60 1.272 . S
C67 O59 1.311 . S
C67 O61 1.231 1_554 S
O68 Zn50 1.953 . S
O68 C62 1.298 . S
C69 C70 1.387 1_655 S
C69 H73 0.950 . S
C69 C78 1.390 . S
C70 C69 1.387 1_455 S
C70 C72 1.387 . S
H71 C78 0.950 . S
C72 C70 1.387 . S
C72 C74 1.390 . S
C72 H76 0.950 . S
H73 C69 0.950 . S
C74 C72 1.390 . S
C74 C75 1.387 . S
C74 H77 0.950 . S
C75 C74 1.387 . S
C75 C78 1.387 1_455 S
H76 C72 0.950 . S
H77 C74 0.950 . S
C78 C69 1.390 . S
C78 H71 0.950 . S
C78 C75 1.387 1_655 S
C79 C80 1.387 . S
C79 H83 0.950 . S
C79 C88 1.390 . S
C80 C79 1.387 . S
C80 C82 1.387 1_545 S
H81 C88 0.950 . S
C82 C80 1.387 1_565 S
C82 C84 1.390 . S
C82 H86 0.950 . S
H83 C79 0.950 . S
C84 C82 1.390 . S
C84 C85 1.387 1_565 S
C84 H87 0.950 . S
C85 C84 1.387 1_545 S
C85 C88 1.387 . S
H86 C82 0.950 . S
H87 C84 0.950 . S
C88 C79 1.390 . S
C88 H81 0.950 . S
C88 C85 1.387 . S
C89 C90 1.387 . S
C89 H93 0.950 . S
C89 C98 1.390 . S
C90 C89 1.387 . S
C90 C92 1.387 . S
H91 C98 0.950 . S
C92 C90 1.387 . S
C92 C94 1.390 . S
C92 H96 0.950 . S
H93 C89 0.950 . S
C94 C92 1.390 . S
C94 C95 1.387 . S
C94 H97 0.950 . S
C95 C94 1.387 . S
C95 C98 1.387 . S
H96 C92 0.950 . S
H97 C94 0.950 . S
C98 C89 1.390 . S
C98 H91 0.950 . S
C98 C95 1.387 . S
C99 C100 1.387 1_556 S
C99 H103 0.950 . S
C99 C108 1.390 . S
C100 C99 1.387 1_554 S
C100 C102 1.387 . S
H101 C108 0.950 . S
C102 C100 1.387 . S
C102 C104 1.390 . S
C102 H106 0.950 . S
H103 C99 0.950 . S
C104 C102 1.390 . S
C104 C105 1.387 1_554 S
C104 H107 0.950 . S
C105 C104 1.387 1_556 S
C105 C108 1.387 . S
H106 C102 0.950 . S
H107 C104 0.950 . S
C108 C99 1.390 . S
C108 H101 0.950 . S
C108 C105 1.387 . S
C109 C110 1.387 . S
C109 H113 0.950 . S
C109 C118 1.390 . S
C110 C109 1.387 . S
C110 C112 1.387 1_554 S
H111 C118 0.950 . S
C112 C110 1.387 1_556 S
C112 C114 1.390 . S
C112 H116 0.950 . S
H113 C109 0.950 . S
C114 C112 1.390 . S
C114 C115 1.387 . S
C114 H117 0.950 . S
C115 C114 1.387 . S
C115 C118 1.387 1_556 S
H116 C112 0.950 . S
H117 C114 0.950 . S
C118 C109 1.390 . S
C118 H111 0.950 . S
C118 C115 1.387 1_554 S
C119 C120 1.387 1_554 S
C119 H123 0.950 . S
C119 C128 1.390 . S
C120 C119 1.387 1_556 S
C120 C122 1.387 . S
H121 C128 0.950 . S
C122 C120 1.387 . S
C122 C124 1.390 . S
C122 H126 0.950 . S
H123 C119 0.950 . S
C124 C122 1.390 . S
C124 C125 1.387 1_556 S
C124 H127 0.950 . S
C125 C124 1.387 1_554 S
C125 C128 1.387 . S
H126 C122 0.950 . S
H127 C124 0.950 . S
C128 C119 1.390 . S
C128 H121 0.950 . S
C128 C125 1.387 . S
C129 C130 1.387 . S
C129 H133 0.950 . S
C129 C138 1.390 1_554 S
C130 C129 1.387 . S
C130 C132 1.387 . S
H131 C138 0.950 . S
C132 C130 1.387 . S
C132 C134 1.390 1_554 S
C132 H136 0.950 . S
H133 C129 0.950 . S
C134 C132 1.390 1_556 S
C134 C135 1.387 . S
C134 H137 0.950 . S
C135 C134 1.387 . S
C135 C138 1.387 . S
H136 C132 0.950 . S
H137 C134 0.950 . S
C138 C129 1.390 1_556 S
C138 H131 0.950 . S
C138 C135 1.387 . S
C139 C140 1.387 . S
C139 H143 0.950 . S
C139 C148 1.390 . S
C140 C139 1.387 . S
C140 C142 1.387 1_556 S
H141 C148 0.950 . S
C142 C140 1.387 1_554 S
C142 C144 1.390 . S
C142 H146 0.950 . S
H143 C139 0.950 . S
C144 C142 1.390 . S
C144 C145 1.387 . S
C144 H147 0.950 . S
C145 C144 1.387 . S
C145 C148 1.387 1_554 S
H146 C142 0.950 . S
H147 C144 0.950 . S
C148 C139 1.390 . S
C148 H141 0.950 . S
C148 C145 1.387 1_556 S
C149 C150 1.387 . S
C149 H153 0.950 . S
C149 C158 1.390 . S
C150 C149 1.387 . S
C150 C152 1.387 1_554 S
H151 C158 0.950 . S
C152 C150 1.387 1_556 S
C152 C154 1.390 . S
C152 H156 0.950 . S
H153 C149 0.950 . S
C154 C152 1.390 . S
C154 C155 1.387 . S
C154 H157 0.950 . S
C155 C154 1.387 . S
C155 C158 1.387 1_556 S
H156 C152 0.950 . S
H157 C154 0.950 . S
C158 C149 1.390 . S
C158 H151 0.950 . S
C158 C155 1.387 1_554 S
C70 C16 1.500 . S
C75 C17 1.499 . S
C80 C39 1.499 . S
C85 C40 1.499 . S
C90 C63 1.499 . S
C95 C62 1.500 . S
C100 C19 1.186 . S
C105 C66 1.195 . S
C110 C44 1.189 . S
C115 C21 1.189 . S
C120 C42 1.185 . S
C125 C67 1.211 . S
C130 C20 1.219 . S
C135 C65 1.209 . S
C140 C18 1.272 . S
C145 C41 1.272 . S
C150 C64 1.253 . S
C155 C43 1.223 . S
