# Generated by pormake.
# Topology oof, (8)-cn, num edge types: 1
# Building blocks:
#     Node 0, Type 0, BuildingBlock: VETTIZ_charged_sbu_0, # of connection points: 8
#     Node 1, Type 0, BuildingBlock: VETTIZ_charged_sbu_0, # of connection points: 8
#     Node 2, Type 0, BuildingBlock: VETTIZ_charged_sbu_0, # of connection points: 8
#     Node 3, Type 0, BuildingBlock: VETTIZ_charged_sbu_0, # of connection points: 8
#     Edge 4, Type (0, 0), None
#     Edge 5, Type (0, 0), None
#     Edge 6, Type (0, 0), None
#     Edge 7, Type (0, 0), None
#     Edge 8, Type (0, 0), None
#     Edge 9, Type (0, 0), None
#     Edge 10, Type (0, 0), None
#     Edge 11, Type (0, 0), None
#     Edge 12, Type (0, 0), None
#     Edge 13, Type (0, 0), None
#     Edge 14, Type (0, 0), None
#     Edge 15, Type (0, 0), None
#     Edge 16, Type (0, 0), None
#     Edge 17, Type (0, 0), None
#     Edge 18, Type (0, 0), None
#     Edge 19, Type (0, 0), None
# Relax obj value: 0.130
# Max RMSD: 0.230
# Mean RMSD: 0.230
data_MOF--net-oof--node1-VETTIZ_charged_sbu_0--edge1-none
_symmetry_space_group_name_H-M    P1
_symmetry_Int_Tables_number       1
_symmetry_cell_setting            triclinic
loop_
_symmetry_equiv_pos_as_xyz
'x, y, z'
_cell_length_a     8.6042931
_cell_length_b     25.993823
_cell_length_c     8.77143
_cell_angle_alpha  78.666194
_cell_angle_beta   97.572164
_cell_angle_gamma 87.768167
loop_
_atom_site_label
_atom_site_type_symbol
_atom_site_fract_x
_atom_site_fract_y
_atom_site_fract_z
_atom_type_partial_charge
Fe0 Fe 0.19812 0.19069 0.48274 0.0
O1 O 0.98299 0.22106 0.39207 0.0
Fe2 Fe 0.24405 0.10178 0.23588 0.0
Fe3 Fe 0.86358 0.27138 0.46066 0.0
O4 O 0.16842 0.16913 0.27679 0.0
O5 O 0.13201 0.15811 0.28564 0.0
O6 O 0.98702 0.23111 0.34676 0.0
Fe7 Fe 0.92543 0.19105 0.17325 0.0
C8 C 0.10017 0.21334 0.76707 0.0
O9 O 0.26154 0.26659 0.41778 0.0
O10 O 0.05826 0.31362 0.48567 0.0
O11 O 0.06841 0.22384 0.01907 0.0
O12 O 0.21587 0.1502 1.0002 0.0
O13 O 0.45885 0.13091 0.29855 0.0
O14 O 0.43335 0.16171 0.5205 0.0
O15 O 0.79645 0.31145 0.22047 0.0
O16 O 0.76074 0.25124 0.06038 0.0
C17 C 0.51425 0.15241 0.41287 0.0
O18 O 0.89814 0.13276 0.02115 0.0
O19 O 0.03663 0.074 0.20051 0.0
O20 O 0.21434 0.20758 0.69476 0.0
O21 O 0.95756 0.22942 0.69651 0.0
C22 C 0.20449 0.30461 0.47532 0.0
C23 C 0.76952 0.29924 0.08175 0.0
C24 C 0.66524 0.17755 0.39666 0.0
O25 O 0.68039 0.22162 0.44258 0.0
O26 O 0.76089 0.15817 0.31612 0.0
C27 C 0.13665 0.19587 0.93913 0.0
O28 O 0.20897 1.06589 0.46009 0.0
O29 O 0.09976 0.12289 0.57612 0.0
C30 C 0.97333 0.08619 0.06432 0.0
C31 C 0.09049 0.08148 0.52197 0.0
Fe32 Fe 0.77324 1.04063 0.78435 0.0
O33 O 0.84889 0.97328 0.74344 0.0
Fe34 Fe 0.09186 0.95136 0.84699 0.0
Fe35 Fe 0.81917 0.95171 0.53749 0.0
O36 O 0.8853 0.9843 0.7346 0.0
O37 O 0.03027 0.9113 0.67347 0.0
O38 O 0.03431 0.92135 0.62817 0.0
Fe39 Fe 0.15371 0.87103 0.55958 0.0
C40 C 0.50304 0.99 0.60736 0.0
O41 O 0.80832 0.07652 0.56014 0.0
O42 O 0.91754 1.01951 0.4441 0.0
O43 O 0.3369 0.92078 0.57766 0.0
O44 O 0.25642 0.98423 0.70413 0.0
O45 O 0.11915 1.00964 0.99911 0.0
O46 O 0.98065 1.06842 0.81972 0.0
O47 O 0.80295 0.93482 0.32548 0.0
O48 O 0.05972 0.91298 0.32372 0.0
C49 C 0.04393 1.0562 0.9559 0.0
O50 O 0.22085 0.83095 0.79977 0.0
O51 O 0.25655 0.89117 0.95987 0.0
O52 O 0.55845 1.01149 0.72168 0.0
O53 O 0.58394 0.98069 0.49974 0.0
C54 C 0.9268 1.06092 0.49826 0.0
C55 C 0.91712 0.92907 0.25316 0.0
C56 C 0.8128 0.8378 0.54493 0.0
O57 O 0.75576 0.87582 0.60247 0.0
O58 O 0.95903 0.82879 0.53457 0.0
C59 C 0.35206 0.96486 0.62358 0.0
O60 O 0.94887 0.91857 1.00117 0.0
O61 O 0.80141 0.9922 0.02003 0.0
C62 C 0.24777 0.84317 0.93849 0.0
C63 C 0.88063 0.94653 0.0811 0.0
Fe64 Fe 0.69812 0.69069 0.48273 0.0
O65 O 0.48299 0.72106 0.39206 0.0
Fe66 Fe 0.74405 0.60178 0.23588 0.0
Fe67 Fe 0.36358 0.77138 0.46066 0.0
O68 O 0.66842 0.66913 0.27679 0.0
O69 O 0.632 0.65811 0.28563 0.0
O70 O 0.48702 0.73111 0.34676 0.0
Fe71 Fe 0.42543 0.69105 0.17325 0.0
C72 C 0.60017 0.71334 0.76707 0.0
O73 O 0.76154 0.76659 0.41776 0.0
O74 O 0.55826 0.81361 0.48567 0.0
O75 O 0.56841 0.72383 0.01906 0.0
O76 O 0.71587 0.6502 1.0002 0.0
O77 O 0.95884 0.63091 0.29855 0.0
O78 O 0.93335 0.66171 0.52049 0.0
O79 O 0.29644 0.81145 0.22047 0.0
O80 O 0.26074 0.75123 0.06037 0.0
C81 C 0.01425 0.65241 0.41287 0.0
O82 O 0.39814 0.63276 0.02115 0.0
O83 O 0.53662 0.574 0.20051 0.0
O84 O 0.71434 0.70759 0.69475 0.0
O85 O 0.45756 0.72942 0.69651 0.0
C86 C 0.70448 0.80462 0.47524 0.0
C87 C 0.26951 0.79924 0.08175 0.0
C88 C 0.16524 0.67755 0.39666 0.0
O89 O 0.18039 0.72162 0.44257 0.0
O90 O 0.26088 0.65817 0.31611 0.0
C91 C 0.63665 0.69587 0.93913 0.0
O92 O 0.70897 0.56589 0.46009 0.0
O93 O 0.59975 0.62289 0.57612 0.0
C94 C 0.47333 0.58619 0.06432 0.0
C95 C 0.59049 0.58148 0.52197 0.0
Fe96 Fe 0.27324 0.54063 0.78435 0.0
O97 O 0.34889 0.47328 0.74344 0.0
Fe98 Fe 0.59187 0.45136 0.847 0.0
Fe99 Fe 0.31917 0.45171 0.5375 0.0
O100 O 0.3853 0.4843 0.7346 0.0
O101 O 0.53027 0.4113 0.67348 0.0
O102 O 0.53431 0.42135 0.62818 0.0
Fe103 Fe 0.65371 0.37103 0.55958 0.0
C104 C 1.00304 0.49 0.60736 0.0
O105 O 0.30832 0.57652 0.56014 0.0
O106 O 0.41754 0.51951 0.4441 0.0
O107 O 0.8369 0.42078 0.57766 0.0
O108 O 0.75642 0.48423 0.70413 0.0
O109 O 0.61916 0.50964 0.99911 0.0
O110 O 0.48065 0.56842 0.81972 0.0
O111 O 0.30295 0.43482 0.32549 0.0
O112 O 0.55973 0.41299 0.32373 0.0
C113 C 0.54393 0.5562 0.9559 0.0
O114 O 0.72085 0.33095 0.79977 0.0
O115 O 0.75655 0.39117 0.95987 0.0
O116 O 0.05845 0.51149 0.72168 0.0
O117 O 0.08394 0.48069 0.49974 0.0
C118 C 0.4268 0.56092 0.49826 0.0
C119 C 0.41712 0.42907 0.25317 0.0
C120 C 0.31281 0.33779 0.545 0.0
O121 O 0.25575 0.37582 0.60248 0.0
O122 O 0.45904 0.32879 0.53457 0.0
C123 C 0.85206 0.46486 0.62358 0.0
O124 O 0.44887 0.41857 1.00117 0.0
O125 O 0.30141 0.4922 0.02003 0.0
C126 C 0.74778 0.34317 0.93849 0.0
C127 C 0.38063 0.44653 0.0811 0.0
loop_
_geom_bond_atom_site_label_1
_geom_bond_atom_site_label_2
_geom_bond_distance
_geom_bond_site_symmetry_2
_ccdc_geom_bond_type
Fe0 O1 1.886 . S
Fe0 O4 1.715 . S
Fe0 O9 2.077 . S
Fe0 O14 1.935 . S
Fe0 O20 2.077 . S
Fe0 O29 1.935 . S
O1 Fe0 1.886 . S
O1 Fe3 1.715 1_455 S
Fe2 O4 1.886 . S
Fe2 O5 1.715 1_455 S
Fe2 O12 1.935 1_554 S
Fe2 O13 2.077 . S
Fe2 O19 1.935 1_455 S
Fe2 O28 2.077 . S
Fe3 O1 1.715 1_655 S
Fe3 O6 1.886 . S
Fe3 O10 1.935 1_655 S
Fe3 O15 2.077 . S
Fe3 O21 1.935 . S
Fe3 O25 2.077 . S
O4 Fe0 1.715 . S
O4 Fe2 1.886 . S
O5 Fe2 1.715 1_655 S
O5 Fe7 1.886 . S
O6 Fe3 1.886 . S
O6 Fe7 1.715 . S
Fe7 O5 1.886 . S
Fe7 O6 1.715 . S
Fe7 O11 2.077 1_554 S
Fe7 O16 1.935 1_554 S
Fe7 O18 2.077 1_554 S
Fe7 O26 1.935 . S
C8 O20 1.381 1_655 S
C8 O21 1.421 . S
O9 Fe0 2.077 . S
O9 C22 1.381 . S
O10 Fe3 1.935 1_455 S
O10 C22 1.421 . S
O11 Fe7 2.077 1_556 S
O11 C27 1.381 1_655 S
O12 Fe2 1.935 1_556 S
O12 C27 1.421 . S
O13 Fe2 2.077 . S
O13 C17 1.381 . S
O14 Fe0 1.935 . S
O14 C17 1.421 . S
O15 Fe3 2.077 . S
O15 C23 1.381 . S
O16 Fe7 1.935 1_556 S
O16 C23 1.421 1_556 S
C17 O13 1.381 . S
C17 O14 1.421 . S
O18 Fe7 2.077 1_556 S
O18 C30 1.381 1_556 S
O19 Fe2 1.935 1_655 S
O19 C30 1.421 . S
O20 Fe0 2.077 . S
O20 C8 1.381 1_455 S
O21 Fe3 1.935 . S
O21 C8 1.421 . S
C22 O9 1.381 . S
C22 O10 1.421 . S
C23 O15 1.381 . S
C23 O16 1.421 1_554 S
C24 O25 1.381 . S
C24 O26 1.421 . S
O25 Fe3 2.077 . S
O25 C24 1.381 . S
O26 Fe7 1.935 . S
O26 C24 1.421 . S
C27 O11 1.381 1_455 S
C27 O12 1.421 . S
O28 Fe2 2.077 . S
O28 C31 1.381 . S
O29 Fe0 1.935 . S
O29 C31 1.421 . S
C30 O18 1.381 1_554 S
C30 O19 1.421 . S
C31 O28 1.381 . S
C31 O29 1.421 . S
Fe32 O33 1.886 . S
Fe32 O36 1.715 1_655 S
Fe32 O41 2.077 . S
Fe32 O46 1.935 1_655 S
Fe32 O52 2.077 . S
Fe32 O61 1.935 1_556 S
O33 Fe32 1.886 . S
O33 Fe35 1.715 . S
Fe34 O36 1.886 . S
Fe34 O37 1.715 . S
Fe34 O44 1.935 . S
Fe34 O45 2.077 1_556 S
Fe34 O51 1.935 1_556 S
Fe34 O60 2.077 1_556 S
Fe35 O33 1.715 . S
Fe35 O38 1.886 . S
Fe35 O42 1.935 . S
Fe35 O47 2.077 . S
Fe35 O53 1.935 . S
Fe35 O57 2.077 . S
O36 Fe32 1.715 1_455 S
O36 Fe34 1.886 . S
O37 Fe34 1.715 . S
O37 Fe39 1.886 . S
O38 Fe35 1.886 . S
O38 Fe39 1.715 1_655 S
Fe39 O37 1.886 . S
Fe39 O38 1.715 1_455 S
Fe39 O43 2.077 . S
Fe39 O48 1.935 . S
Fe39 O50 2.077 . S
Fe39 O58 1.935 1_455 S
C40 O52 1.381 . S
C40 O53 1.421 . S
O41 Fe32 2.077 . S
O41 C54 1.381 . S
O42 Fe35 1.935 . S
O42 C54 1.421 . S
O43 Fe39 2.077 . S
O43 C59 1.381 . S
O44 Fe34 1.935 . S
O44 C59 1.421 . S
O45 Fe34 2.077 1_554 S
O45 C49 1.381 1_554 S
O46 Fe32 1.935 1_455 S
O46 C49 1.421 . S
O47 Fe35 2.077 . S
O47 C55 1.381 1_655 S
O48 Fe39 1.935 . S
O48 C55 1.421 . S
C49 O45 1.381 1_556 S
C49 O46 1.421 . S
O50 Fe39 2.077 . S
O50 C62 1.381 . S
O51 Fe34 1.935 1_554 S
O51 C62 1.421 1_554 S
O52 Fe32 2.077 . S
O52 C40 1.381 . S
O53 Fe35 1.935 . S
O53 C40 1.421 . S
C54 O41 1.381 . S
C54 O42 1.421 . S
C55 O47 1.381 1_455 S
C55 O48 1.421 . S
C56 O57 1.381 . S
C56 O58 1.421 . S
O57 Fe35 2.077 . S
O57 C56 1.381 . S
O58 Fe39 1.935 1_655 S
O58 C56 1.421 . S
C59 O43 1.381 . S
C59 O44 1.421 . S
O60 Fe34 2.077 1_554 S
O60 C63 1.381 1_455 S
O61 Fe32 1.935 1_554 S
O61 C63 1.421 . S
C62 O50 1.381 . S
C62 O51 1.421 1_556 S
C63 O60 1.381 1_655 S
C63 O61 1.421 . S
Fe64 O65 1.886 . S
Fe64 O68 1.715 . S
Fe64 O73 2.077 . S
Fe64 O78 1.935 . S
Fe64 O84 2.077 . S
Fe64 O93 1.935 . S
O65 Fe64 1.886 . S
O65 Fe67 1.715 . S
Fe66 O68 1.886 . S
Fe66 O69 1.715 . S
Fe66 O76 1.935 1_554 S
Fe66 O77 2.077 . S
Fe66 O83 1.935 . S
Fe66 O92 2.077 . S
Fe67 O65 1.715 . S
Fe67 O70 1.886 . S
Fe67 O74 1.935 . S
Fe67 O79 2.077 . S
Fe67 O85 1.935 . S
Fe67 O89 2.077 . S
O68 Fe64 1.715 . S
O68 Fe66 1.886 . S
O69 Fe66 1.715 . S
O69 Fe71 1.886 . S
O70 Fe67 1.886 . S
O70 Fe71 1.715 . S
Fe71 O69 1.886 . S
Fe71 O70 1.715 . S
Fe71 O75 2.077 1_554 S
Fe71 O80 1.935 1_554 S
Fe71 O82 2.077 1_554 S
Fe71 O90 1.935 . S
C72 O84 1.381 . S
C72 O85 1.421 . S
O73 Fe64 2.077 . S
O73 C86 1.381 . S
O74 Fe67 1.935 . S
O74 C86 1.421 . S
O75 Fe71 2.077 1_556 S
O75 C91 1.381 . S
O76 Fe66 1.935 1_556 S
O76 C91 1.421 . S
O77 Fe66 2.077 . S
O77 C81 1.381 . S
O78 Fe64 1.935 . S
O78 C81 1.421 . S
O79 Fe67 2.077 . S
O79 C87 1.381 . S
O80 Fe71 1.935 1_556 S
O80 C87 1.421 1_556 S
C81 O77 1.381 . S
C81 O78 1.421 . S
O82 Fe71 2.077 1_556 S
O82 C94 1.381 1_556 S
O83 Fe66 1.935 . S
O83 C94 1.421 . S
O84 Fe64 2.077 . S
O84 C72 1.381 . S
O85 Fe67 1.935 . S
O85 C72 1.421 . S
C86 O73 1.381 . S
C86 O74 1.421 . S
C87 O79 1.381 . S
C87 O80 1.421 1_554 S
C88 O89 1.381 . S
C88 O90 1.421 . S
O89 Fe67 2.077 . S
O89 C88 1.381 . S
O90 Fe71 1.935 . S
O90 C88 1.421 . S
C91 O75 1.381 . S
C91 O76 1.421 . S
O92 Fe66 2.077 . S
O92 C95 1.381 . S
O93 Fe64 1.935 . S
O93 C95 1.421 . S
C94 O82 1.381 1_554 S
C94 O83 1.421 . S
C95 O92 1.381 . S
C95 O93 1.421 . S
Fe96 O97 1.886 . S
Fe96 O100 1.715 . S
Fe96 O105 2.077 . S
Fe96 O110 1.935 . S
Fe96 O116 2.077 . S
Fe96 O125 1.935 1_556 S
O97 Fe96 1.886 . S
O97 Fe99 1.715 . S
Fe98 O100 1.886 . S
Fe98 O101 1.715 . S
Fe98 O108 1.935 . S
Fe98 O109 2.077 1_556 S
Fe98 O115 1.935 1_556 S
Fe98 O124 2.077 1_556 S
Fe99 O97 1.715 . S
Fe99 O102 1.886 . S
Fe99 O106 1.935 . S
Fe99 O111 2.077 . S
Fe99 O117 1.935 . S
Fe99 O121 2.077 . S
O100 Fe96 1.715 . S
O100 Fe98 1.886 . S
O101 Fe98 1.715 . S
O101 Fe103 1.886 . S
O102 Fe99 1.886 . S
O102 Fe103 1.715 . S
Fe103 O101 1.886 . S
Fe103 O102 1.715 . S
Fe103 O107 2.077 . S
Fe103 O112 1.935 . S
Fe103 O114 2.077 . S
Fe103 O122 1.935 . S
C104 O116 1.381 . S
C104 O117 1.421 . S
O105 Fe96 2.077 . S
O105 C118 1.381 . S
O106 Fe99 1.935 . S
O106 C118 1.421 . S
O107 Fe103 2.077 . S
O107 C123 1.381 . S
O108 Fe98 1.935 . S
O108 C123 1.421 . S
O109 Fe98 2.077 1_554 S
O109 C113 1.381 1_554 S
O110 Fe96 1.935 . S
O110 C113 1.421 . S
O111 Fe99 2.077 . S
O111 C119 1.381 . S
O112 Fe103 1.935 . S
O112 C119 1.421 . S
C113 O109 1.381 1_556 S
C113 O110 1.421 . S
O114 Fe103 2.077 . S
O114 C126 1.381 . S
O115 Fe98 1.935 1_554 S
O115 C126 1.421 1_554 S
O116 Fe96 2.077 . S
O116 C104 1.381 . S
O117 Fe99 1.935 . S
O117 C104 1.421 . S
C118 O105 1.381 . S
C118 O106 1.421 . S
C119 O111 1.381 . S
C119 O112 1.421 . S
C120 O121 1.381 . S
C120 O122 1.421 . S
O121 Fe99 2.077 . S
O121 C120 1.381 . S
O122 Fe103 1.935 . S
O122 C120 1.421 . S
C123 O107 1.381 . S
C123 O108 1.421 . S
O124 Fe98 2.077 1_554 S
O124 C127 1.381 . S
O125 Fe96 1.935 1_554 S
O125 C127 1.421 . S
C126 O114 1.381 . S
C126 O115 1.421 1_556 S
C127 O124 1.381 . S
C127 O125 1.421 . S
C27 C8 1.689 1_455 S
C55 C63 1.689 1_455 S
C91 C72 1.689 . S
C127 C119 1.689 . S
C24 C17 1.321 . S
C40 C59 1.321 . S
C81 C88 1.321 1_655 S
C123 C104 1.321 1_655 S
C120 C22 1.882 . S
C126 C23 1.445 1_556 S
C86 C56 1.881 . S
C87 C62 1.445 1_554 S
C30 C49 3.217 1_644 S
C31 C54 4.328 1_445 S
C94 C113 3.217 1_554 S
C118 C95 4.328 . S
