# Generated by pormake.
# Topology bcu, (8)-cn, num edge types: 1
# Building blocks:
#     Node 0, Type 0, BuildingBlock: AJUNOK_clean_sbu_0, # of connection points: 8
#     Node 1, Type 0, BuildingBlock: AJUNOK_clean_sbu_0, # of connection points: 8
#     Edge 2, Type (0, 0), BuildingBlock: AJUNOK_clean_linker_0, # of connection points: 2
#     Edge 3, Type (0, 0), BuildingBlock: AJUNOK_clean_linker_0, # of connection points: 2
#     Edge 4, Type (0, 0), BuildingBlock: AJUNOK_clean_linker_0, # of connection points: 2
#     Edge 5, Type (0, 0), BuildingBlock: AJUNOK_clean_linker_0, # of connection points: 2
#     Edge 6, Type (0, 0), BuildingBlock: AJUNOK_clean_linker_0, # of connection points: 2
#     Edge 7, Type (0, 0), BuildingBlock: AJUNOK_clean_linker_0, # of connection points: 2
#     Edge 8, Type (0, 0), BuildingBlock: AJUNOK_clean_linker_0, # of connection points: 2
#     Edge 9, Type (0, 0), BuildingBlock: AJUNOK_clean_linker_0, # of connection points: 2
# Relax obj value: 0.050
# Max RMSD: 0.161
# Mean RMSD: 0.161
data_MOF--net-bcu--node1-AJUNOK_clean_sbu_0--edge1-AJUNOK_clean_linker_0
_symmetry_space_group_name_H-M    P1
_symmetry_Int_Tables_number       1
_symmetry_cell_setting            triclinic
loop_
_symmetry_equiv_pos_as_xyz
'x, y, z'
_cell_length_a     19.069825
_cell_length_b     19.409408
_cell_length_c     13.209459
_cell_angle_alpha  106.91358
_cell_angle_beta   105.71119
_cell_angle_gamma 108.95959
loop_
_atom_site_label
_atom_site_type_symbol
_atom_site_fract_x
_atom_site_fract_y
_atom_site_fract_z
_atom_type_partial_charge
Cd0 Cd 0.94313 0.94245 0.16514 0.0
Cd1 Cd 0.02035 -0.00642 0.8783 0.0
C2 C 0.08794 0.91804 0.31727 0.0
N3 N 0.04613 0.90374 0.20635 0.0
C4 C 0.11404 0.82937 0.13714 0.0
C5 C 0.15641 0.84104 0.25025 0.0
C6 C 0.14398 0.88711 0.34144 0.0
C7 C 0.05917 0.8619 0.11716 0.0
H8 H 0.07589 0.95136 0.38636 0.0
H9 H 0.02513 0.85183 1.03015 0.0
C10 C 0.86953 0.86344 0.85765 0.0
C11 C 0.88762 0.05974 0.89015 0.0
C12 C 0.8343 0.09287 0.86164 0.0
C13 C 0.83052 0.11868 0.77223 0.0
C14 C 0.88168 0.11176 0.71499 0.0
C15 C 0.93361 0.07789 0.74595 0.0
N16 N 0.93494 0.05195 0.83132 0.0
H17 H 0.89167 0.04023 0.95911 0.0
H18 H 0.97228 0.07188 0.70095 0.0
C19 C 0.02683 0.8201 0.79149 0.0
N20 N 0.06967 0.89807 0.86954 0.0
C21 C 0.18938 0.87974 0.93156 0.0
C22 C 0.14751 0.80003 0.84952 0.0
C23 C 0.06477 0.76934 0.78094 0.0
C24 C 0.14902 0.92795 0.93995 0.0
H25 H 0.96439 0.79785 0.73411 0.0
H26 H 0.18185 -0.00985 0.99962 0.0
C27 C 0.08681 0.08645 0.19182 0.0
C28 C 0.84409 0.84037 0.23281 0.0
N29 N 0.88765 0.03193 0.20267 0.0
C30 C 0.91605 0.08632 0.31335 0.0
C31 C 0.88017 0.13728 0.34112 0.0
C32 C 0.81498 0.13264 0.25378 0.0
C33 C 0.78649 0.07514 0.1404 0.0
C34 C 0.82326 0.02436 0.11699 0.0
C35 C 0.13142 0.07578 0.8044 0.0
O36 O 0.91679 0.91052 0.96165 0.0
O37 O 0.88807 0.87829 0.77865 0.0
O38 O 0.04815 0.03747 0.08619 0.0
O39 O 0.0624 0.06876 0.26517 0.0
O40 O 0.82937 0.8232 0.12651 0.0
O41 O 0.90576 0.90472 0.30685 0.0
O42 O 0.13955 0.10196 0.90888 0.0
O43 O 0.06997 0.01054 0.73221 0.0
H44 H 0.96544 0.08881 0.38058 0.0
H45 H 0.79989 -0.02183 1.03082 0.0
H46 H 0.12207 0.79401 0.06482 0.0
H47 H 0.17459 0.89621 0.42959 0.0
H48 H 0.79627 0.09798 0.90852 0.0
H49 H 0.88221 0.13304 0.64782 0.0
H50 H 0.2532 0.905 0.98635 0.0
H51 H 0.03104 0.70806 0.71609 0.0
H52 H 0.90204 0.17846 0.43042 0.0
H53 H 0.73602 0.06915 0.07067 0.0
Cd54 Cd 0.445 0.4182 0.65106 0.0
Cd55 Cd 0.52153 0.52443 0.41381 0.0
C56 C 0.61451 0.40273 0.71998 0.0
N57 N 0.53511 0.3616 0.64621 0.0
C58 C 0.54859 0.23955 0.58753 0.0
C59 C 0.63047 0.28033 0.66533 0.0
C60 C 0.66379 0.36346 0.72949 0.0
C61 C 0.50197 0.28182 0.57867 0.0
H62 H 0.63907 0.46518 0.77502 0.0
H63 H 0.43808 0.25021 0.52268 0.0
C64 C 0.37223 0.37803 0.35067 0.0
C65 C 0.3977 0.5728 0.27086 0.0
C66 C 0.35289 0.61472 0.2471 0.0
C67 C 0.34742 0.66879 0.33845 0.0
C68 C 0.38556 0.67779 0.45156 0.0
C69 C 0.43 0.63493 0.47131 0.0
N70 N 0.43524 0.58383 0.38151 0.0
H71 H 0.40445 0.53298 0.20148 0.0
H72 H 0.46092 0.64306 0.55839 0.0
C73 C 0.5533 0.37974 0.28069 0.0
N74 N 0.57502 0.43247 0.38993 0.0
C75 C 0.67056 0.38685 0.46673 0.0
C76 C 0.65046 0.33284 0.35445 0.0
C77 C 0.59022 0.32878 0.26089 0.0
C78 C 0.63221 0.43696 0.48251 0.0
H79 H 0.50918 0.37927 0.20875 0.0
H80 H 0.64951 0.48088 0.56812 0.0
C81 C 0.58267 0.57784 0.71849 0.0
C82 C 0.34625 0.29567 0.69105 0.0
N83 N 0.38722 0.50322 0.70327 0.0
C84 C 0.37702 0.51926 0.80413 0.0
C85 C 0.33989 0.56885 0.83332 0.0
C86 C 0.31359 0.60193 0.75779 0.0
C87 C 0.32438 0.5836 0.65397 0.0
C88 C 0.36212 0.53432 0.62884 0.0
C89 C 0.63339 0.62763 0.36304 0.0
O90 O 0.41882 0.4133 0.4569 0.0
O91 O 0.39431 0.4057 0.2829 0.0
O92 O 0.54018 0.53851 0.611 0.0
O93 O 0.56307 0.54709 0.78512 0.0
O94 O 0.32515 0.29709 0.59209 0.0
O95 O 0.41228 0.35258 0.77059 0.0
O96 O 0.63888 0.64476 0.46624 0.0
O97 O 0.57666 0.56126 0.28482 0.0
H98 H 0.3975 0.49338 0.86158 0.0
H99 H 0.36989 0.5192 0.54864 0.0
H100 H 0.51954 0.17518 0.53875 0.0
H101 H 0.72676 0.39744 0.78984 0.0
H102 H 0.32454 0.60647 0.15873 0.0
H103 H 0.38125 0.71762 0.52394 0.0
H104 H 0.7162 0.3911 0.5411 0.0
H105 H 0.57402 0.28865 0.17303 0.0
H106 H 0.33235 0.5817 0.91413 0.0
H107 H 0.30283 0.6062 0.59212 0.0
C108 C 0.21247 0.16565 0.17789 0.0
C109 C 0.15665 0.16236 0.22908 0.0
C110 C 0.28157 0.23674 0.21592 0.0
C111 C 0.29699 0.30608 0.30729 0.0
H112 H 0.2042 0.11248 0.11099 0.0
H113 H 0.32456 0.23685 0.17658 0.0
S114 S 0.1661 0.33045 0.46392 0.0
N115 N 0.11858 0.23534 0.37108 0.0
N116 N 0.24909 0.36923 0.44316 0.0
C117 C 0.24089 0.30416 0.35769 0.0
C118 C 0.17045 0.23198 0.31865 0.0
C119 C 0.68958 0.15282 0.23465 0.0
C120 C 0.77475 0.18525 0.28128 0.0
C121 C 0.64994 0.20067 0.2603 0.0
C122 C 0.69392 0.28286 0.33332 0.0
H123 H 0.65305 0.08953 0.1795 0.0
H124 H 0.58428 0.17298 0.2233 0.0
S125 S 0.91773 0.39887 0.46884 0.0
N126 N 0.90174 0.30595 0.39821 0.0
N127 N 0.82708 0.3958 0.44663 0.0
C128 C 0.77903 0.31642 0.37944 0.0
C129 C 0.81946 0.2677 0.35325 0.0
C130 C 0.74626 0.70566 0.19587 0.0
C131 C 0.79167 0.78762 0.26871 0.0
C132 C 0.69599 0.65405 0.22802 0.0
C133 C 0.68906 0.68293 0.33374 0.0
H134 H 0.74986 0.68101 0.11377 0.0
H135 H 0.66237 0.59111 0.16949 0.0
S136 S 0.78773 0.89427 0.54827 0.0
N137 N 0.82262 0.89659 0.44722 0.0
N138 N 0.7269 0.79939 0.50711 0.0
C139 C 0.73298 0.76506 0.40641 0.0
C140 C 0.78461 0.81756 0.37397 0.0
C141 C 0.17731 0.71717 0.20528 0.0
C142 C 0.20824 0.79989 0.27144 0.0
C143 C 0.22307 0.67548 0.22692 0.0
C144 C 0.30143 0.71501 0.31543 0.0
H145 H 0.11647 0.684 0.13796 0.0
H146 H 0.1962 0.61148 0.17551 0.0
S147 S 0.41335 0.9328 0.50485 0.0
N148 N 0.32386 0.92096 0.42348 0.0
N149 N 0.41045 0.84263 0.4639 0.0
C150 C 0.33398 0.79816 0.38019 0.0
C151 C 0.28724 0.8406 0.35826 0.0
C152 C 0.16732 0.6773 0.83796 0.0
C153 C 0.1917 0.75119 0.82952 0.0
C154 C 0.20829 0.62996 0.81722 0.0
C155 C 0.27411 0.6547 0.78594 0.0
H156 H 0.11643 0.65618 0.86087 0.0
H157 H 0.18726 0.57289 0.8232 0.0
S158 S 0.36103 0.84349 0.75248 0.0
N159 N 0.28517 0.84698 0.78788 0.0
N160 N 0.36267 0.75849 0.74998 0.0
C161 C 0.29923 0.7288 0.77809 0.0
C162 C 0.25789 0.77698 0.7997 0.0
C163 C 0.21342 0.18287 0.63621 0.0
C164 C 0.29479 0.23244 0.7142 0.0
C165 C 0.16114 0.12843 0.66292 0.0
C166 C 0.18888 0.12251 0.76847 0.0
H167 H 0.18909 0.1882 0.55615 0.0
H168 H 0.09796 0.09385 0.60342 0.0
S169 S 0.39918 0.22638 0.99057 0.0
N170 N 0.40292 0.26335 0.8933 0.0
N171 N 0.30393 0.16128 0.94325 0.0
C172 C 0.27096 0.16742 0.84317 0.0
C173 C 0.32423 0.22242 0.81604 0.0
C174 C 0.77563 0.21718 0.83003 0.0
C175 C 0.77613 0.156 0.74209 0.0
C176 C 0.72813 0.25645 0.80384 0.0
C177 C 0.67945 0.23641 0.6886 0.0
H178 H 0.8133 0.23585 0.91984 0.0
H179 H 0.72935 0.30275 0.87493 0.0
S180 S 0.65528 0.07598 0.42728 0.0
N181 N 0.72021 0.07317 0.53592 0.0
N182 N 0.63292 0.14911 0.48583 0.0
C183 C 0.67823 0.17411 0.59978 0.0
C184 C 0.72628 0.13362 0.62673 0.0
C185 C 0.65229 0.71008 0.71878 0.0
C186 C 0.65555 0.65271 0.76222 0.0
C187 C 0.7219 0.77959 0.75233 0.0
C188 C 0.79683 0.79298 0.82911 0.0
H189 H 0.59584 0.70115 0.65796 0.0
H190 H 0.71721 0.82296 0.71792 0.0
S191 S 0.83936 0.65835 0.95971 0.0
N192 N 0.74033 0.6129 0.88366 0.0
N193 N 0.8721 0.74231 0.94265 0.0
C194 C 0.80133 0.73614 0.87273 0.0
C195 C 0.73022 0.66611 0.84035 0.0
loop_
_geom_bond_atom_site_label_1
_geom_bond_atom_site_label_2
_geom_bond_distance
_geom_bond_site_symmetry_2
_ccdc_geom_bond_type
Cd0 N3 2.334 1_655 S
Cd0 N29 2.304 1_565 S
Cd0 O36 2.268 1_554 S
Cd0 O39 2.273 1_665 S
Cd0 O40 2.417 . S
Cd0 O41 2.330 . S
Cd1 N16 2.304 1_455 S
Cd1 N20 2.334 1_545 S
Cd1 O37 2.273 1_445 S
Cd1 O38 2.268 1_556 S
Cd1 O42 2.417 . S
Cd1 O43 2.330 . S
C2 N3 1.332 . S
C2 C6 1.381 . S
C2 H8 0.931 . S
N3 Cd0 2.334 1_455 S
N3 C2 1.332 . S
N3 C7 1.328 . S
C4 C5 1.396 . S
C4 C7 1.378 . S
C4 H46 0.931 1_554 S
C5 C4 1.396 . S
C5 C6 1.382 . S
C6 C2 1.381 . S
C6 C5 1.382 . S
C6 H47 0.930 . S
C7 N3 1.328 . S
C7 C4 1.378 . S
C7 H9 0.930 1_454 S
H8 C2 0.931 . S
H9 C7 0.930 1_656 S
C10 O36 1.238 . S
C10 O37 1.253 . S
C11 C12 1.379 . S
C11 N16 1.337 . S
C11 H17 0.929 . S
C12 C11 1.379 . S
C12 C13 1.380 . S
C12 H48 0.929 . S
C13 C12 1.380 . S
C13 C14 1.399 . S
C14 C13 1.399 . S
C14 C15 1.376 . S
C14 H49 0.931 1_556 S
C15 C14 1.376 . S
C15 N16 1.338 . S
C15 H18 0.930 1_656 S
N16 Cd1 2.304 1_655 S
N16 C11 1.337 . S
N16 C15 1.338 . S
H17 C11 0.929 . S
H18 C15 0.930 1_454 S
C19 N20 1.332 . S
C19 C23 1.381 . S
C19 H25 0.931 . S
N20 Cd1 2.334 1_565 S
N20 C19 1.332 . S
N20 C24 1.328 . S
C21 C22 1.396 . S
C21 C24 1.378 . S
C21 H50 0.931 1_556 S
C22 C21 1.396 . S
C22 C23 1.382 . S
C23 C19 1.381 . S
C23 C22 1.382 . S
C23 H51 0.930 . S
C24 N20 1.328 . S
C24 C21 1.378 . S
C24 H26 0.930 1_566 S
H25 C19 0.931 . S
H26 C24 0.930 1_544 S
C27 O38 1.238 . S
C27 O39 1.253 . S
C28 O40 1.239 . S
C28 O41 1.230 . S
N29 Cd0 2.304 1_545 S
N29 C30 1.337 . S
N29 C34 1.338 . S
C30 N29 1.337 . S
C30 C31 1.379 . S
C30 H44 0.929 . S
C31 C30 1.379 . S
C31 C32 1.380 . S
C31 H52 0.929 . S
C32 C31 1.380 . S
C32 C33 1.399 . S
C33 C32 1.399 . S
C33 C34 1.376 . S
C33 H53 0.931 1_554 S
C34 N29 1.338 . S
C34 C33 1.376 . S
C34 H45 0.930 1_544 S
C35 O42 1.239 . S
C35 O43 1.230 . S
O36 Cd0 2.268 1_556 S
O36 C10 1.238 . S
O37 Cd1 2.273 1_665 S
O37 C10 1.253 . S
O38 Cd1 2.268 1_554 S
O38 C27 1.238 . S
O39 Cd0 2.273 1_445 S
O39 C27 1.253 . S
O40 Cd0 2.417 . S
O40 C28 1.239 . S
O41 Cd0 2.330 . S
O41 C28 1.230 . S
O42 Cd1 2.417 . S
O42 C35 1.239 . S
O43 Cd1 2.330 . S
O43 C35 1.230 . S
H44 C30 0.929 . S
H45 C34 0.930 1_566 S
H46 C4 0.931 1_556 S
H47 C6 0.930 . S
H48 C12 0.929 . S
H49 C14 0.931 1_554 S
H50 C21 0.931 1_554 S
H51 C23 0.930 . S
H52 C31 0.929 . S
H53 C33 0.931 1_556 S
Cd54 N57 2.334 . S
Cd54 N83 2.304 . S
Cd54 O90 2.268 . S
Cd54 O93 2.273 . S
Cd54 O94 2.417 . S
Cd54 O95 2.330 . S
Cd55 N70 2.304 . S
Cd55 N74 2.334 . S
Cd55 O91 2.273 . S
Cd55 O92 2.268 . S
Cd55 O96 2.417 . S
Cd55 O97 2.330 . S
C56 N57 1.332 . S
C56 C60 1.381 . S
C56 H62 0.931 . S
N57 Cd54 2.334 . S
N57 C56 1.332 . S
N57 C61 1.328 . S
C58 C59 1.396 . S
C58 C61 1.378 . S
C58 H100 0.931 . S
C59 C58 1.396 . S
C59 C60 1.382 . S
C60 C56 1.381 . S
C60 C59 1.382 . S
C60 H101 0.930 . S
C61 N57 1.328 . S
C61 C58 1.378 . S
C61 H63 0.930 . S
H62 C56 0.931 . S
H63 C61 0.930 . S
C64 O90 1.238 . S
C64 O91 1.253 . S
C65 C66 1.379 . S
C65 N70 1.337 . S
C65 H71 0.929 . S
C66 C65 1.379 . S
C66 C67 1.380 . S
C66 H102 0.929 . S
C67 C66 1.380 . S
C67 C68 1.399 . S
C68 C67 1.399 . S
C68 C69 1.376 . S
C68 H103 0.931 . S
C69 C68 1.376 . S
C69 N70 1.338 . S
C69 H72 0.930 . S
N70 Cd55 2.304 . S
N70 C65 1.337 . S
N70 C69 1.338 . S
H71 C65 0.929 . S
H72 C69 0.930 . S
C73 N74 1.332 . S
C73 C77 1.381 . S
C73 H79 0.931 . S
N74 Cd55 2.334 . S
N74 C73 1.332 . S
N74 C78 1.328 . S
C75 C76 1.396 . S
C75 C78 1.378 . S
C75 H104 0.931 . S
C76 C75 1.396 . S
C76 C77 1.382 . S
C77 C73 1.381 . S
C77 C76 1.382 . S
C77 H105 0.930 . S
C78 N74 1.328 . S
C78 C75 1.378 . S
C78 H80 0.930 . S
H79 C73 0.931 . S
H80 C78 0.930 . S
C81 O92 1.238 . S
C81 O93 1.253 . S
C82 O94 1.239 . S
C82 O95 1.230 . S
N83 Cd54 2.304 . S
N83 C84 1.337 . S
N83 C88 1.338 . S
C84 N83 1.337 . S
C84 C85 1.379 . S
C84 H98 0.929 . S
C85 C84 1.379 . S
C85 C86 1.380 . S
C85 H106 0.929 . S
C86 C85 1.380 . S
C86 C87 1.399 . S
C87 C86 1.399 . S
C87 C88 1.376 . S
C87 H107 0.931 . S
C88 N83 1.338 . S
C88 C87 1.376 . S
C88 H99 0.930 . S
C89 O96 1.239 . S
C89 O97 1.230 . S
O90 Cd54 2.268 . S
O90 C64 1.238 . S
O91 Cd55 2.273 . S
O91 C64 1.253 . S
O92 Cd55 2.268 . S
O92 C81 1.238 . S
O93 Cd54 2.273 . S
O93 C81 1.253 . S
O94 Cd54 2.417 . S
O94 C82 1.239 . S
O95 Cd54 2.330 . S
O95 C82 1.230 . S
O96 Cd55 2.417 . S
O96 C89 1.239 . S
O97 Cd55 2.330 . S
O97 C89 1.230 . S
H98 C84 0.929 . S
H99 C88 0.930 . S
H100 C58 0.931 . S
H101 C60 0.930 . S
H102 C66 0.929 . S
H103 C68 0.931 . S
H104 C75 0.931 . S
H105 C77 0.930 . S
H106 C85 0.929 . S
H107 C87 0.931 . S
C108 C109 1.369 . S
C108 C110 1.419 . S
C108 H112 0.930 . S
C109 C108 1.369 . S
C109 C118 1.429 . S
C110 C108 1.419 . S
C110 C111 1.363 . S
C110 H113 0.929 . S
C111 C110 1.363 . S
C111 C117 1.428 . S
H112 C108 0.930 . S
H113 C110 0.929 . S
S114 N115 1.613 . S
S114 N116 1.610 . S
N115 S114 1.613 . S
N115 C118 1.350 . S
N116 S114 1.610 . S
N116 C117 1.351 . S
C117 C111 1.428 . S
C117 N116 1.351 . S
C117 C118 1.434 . S
C118 C109 1.429 . S
C118 N115 1.350 . S
C118 C117 1.434 . S
C119 C120 1.369 . S
C119 C121 1.419 . S
C119 H123 0.930 . S
C120 C119 1.369 . S
C120 C129 1.429 . S
C121 C119 1.419 . S
C121 C122 1.363 . S
C121 H124 0.929 . S
C122 C121 1.363 . S
C122 C128 1.428 . S
H123 C119 0.930 . S
H124 C121 0.929 . S
S125 N126 1.613 . S
S125 N127 1.610 . S
N126 S125 1.613 . S
N126 C129 1.350 . S
N127 S125 1.610 . S
N127 C128 1.351 . S
C128 C122 1.428 . S
C128 N127 1.351 . S
C128 C129 1.434 . S
C129 C120 1.429 . S
C129 N126 1.350 . S
C129 C128 1.434 . S
C130 C131 1.369 . S
C130 C132 1.419 . S
C130 H134 0.930 . S
C131 C130 1.369 . S
C131 C140 1.429 . S
C132 C130 1.419 . S
C132 C133 1.363 . S
C132 H135 0.929 . S
C133 C132 1.363 . S
C133 C139 1.428 . S
H134 C130 0.930 . S
H135 C132 0.929 . S
S136 N137 1.613 . S
S136 N138 1.610 . S
N137 S136 1.613 . S
N137 C140 1.350 . S
N138 S136 1.610 . S
N138 C139 1.351 . S
C139 C133 1.428 . S
C139 N138 1.351 . S
C139 C140 1.434 . S
C140 C131 1.429 . S
C140 N137 1.350 . S
C140 C139 1.434 . S
C141 C142 1.369 . S
C141 C143 1.419 . S
C141 H145 0.930 . S
C142 C141 1.369 . S
C142 C151 1.429 . S
C143 C141 1.419 . S
C143 C144 1.363 . S
C143 H146 0.929 . S
C144 C143 1.363 . S
C144 C150 1.428 . S
H145 C141 0.930 . S
H146 C143 0.929 . S
S147 N148 1.613 . S
S147 N149 1.610 . S
N148 S147 1.613 . S
N148 C151 1.350 . S
N149 S147 1.610 . S
N149 C150 1.351 . S
C150 C144 1.428 . S
C150 N149 1.351 . S
C150 C151 1.434 . S
C151 C142 1.429 . S
C151 N148 1.350 . S
C151 C150 1.434 . S
C152 C153 1.369 . S
C152 C154 1.419 . S
C152 H156 0.930 . S
C153 C152 1.369 . S
C153 C162 1.429 . S
C154 C152 1.419 . S
C154 C155 1.363 . S
C154 H157 0.929 . S
C155 C154 1.363 . S
C155 C161 1.428 . S
H156 C152 0.930 . S
H157 C154 0.929 . S
S158 N159 1.613 . S
S158 N160 1.610 . S
N159 S158 1.613 . S
N159 C162 1.350 . S
N160 S158 1.610 . S
N160 C161 1.351 . S
C161 C155 1.428 . S
C161 N160 1.351 . S
C161 C162 1.434 . S
C162 C153 1.429 . S
C162 N159 1.350 . S
C162 C161 1.434 . S
C163 C164 1.369 . S
C163 C165 1.419 . S
C163 H167 0.930 . S
C164 C163 1.369 . S
C164 C173 1.429 . S
C165 C163 1.419 . S
C165 C166 1.363 . S
C165 H168 0.929 . S
C166 C165 1.363 . S
C166 C172 1.428 . S
H167 C163 0.930 . S
H168 C165 0.929 . S
S169 N170 1.613 . S
S169 N171 1.610 . S
N170 S169 1.613 . S
N170 C173 1.350 . S
N171 S169 1.610 . S
N171 C172 1.351 . S
C172 C166 1.428 . S
C172 N171 1.351 . S
C172 C173 1.434 . S
C173 C164 1.429 . S
C173 N170 1.350 . S
C173 C172 1.434 . S
C174 C175 1.369 . S
C174 C176 1.419 . S
C174 H178 0.930 . S
C175 C174 1.369 . S
C175 C184 1.429 . S
C176 C174 1.419 . S
C176 C177 1.363 . S
C176 H179 0.929 . S
C177 C176 1.363 . S
C177 C183 1.428 . S
H178 C174 0.930 . S
H179 C176 0.929 . S
S180 N181 1.613 . S
S180 N182 1.610 . S
N181 S180 1.613 . S
N181 C184 1.350 . S
N182 S180 1.610 . S
N182 C183 1.351 . S
C183 C177 1.428 . S
C183 N182 1.351 . S
C183 C184 1.434 . S
C184 C175 1.429 . S
C184 N181 1.350 . S
C184 C183 1.434 . S
C185 C186 1.369 . S
C185 C187 1.419 . S
C185 H189 0.930 . S
C186 C185 1.369 . S
C186 C195 1.429 . S
C187 C185 1.419 . S
C187 C188 1.363 . S
C187 H190 0.929 . S
C188 C187 1.363 . S
C188 C194 1.428 . S
H189 C185 0.930 . S
H190 C187 0.929 . S
S191 N192 1.613 . S
S191 N193 1.610 . S
N192 S191 1.613 . S
N192 C195 1.350 . S
N193 S191 1.610 . S
N193 C194 1.351 . S
C194 C188 1.428 . S
C194 N193 1.351 . S
C194 C195 1.434 . S
C195 C186 1.429 . S
C195 N192 1.350 . S
C195 C194 1.434 . S
C109 C27 0.793 . S
C111 C64 0.789 . S
C120 C32 1.876 . S
C122 C76 1.877 . S
C131 C28 1.429 . S
C133 C89 1.422 . S
C142 C5 1.873 . S
C144 C67 1.880 . S
C153 C22 1.870 . S
C155 C86 1.883 . S
C164 C82 1.423 . S
C166 C35 1.423 . S
C175 C13 1.875 . S
C177 C59 1.879 . S
C186 C81 0.794 . S
C188 C10 0.792 . S
