# Generated by pormake.
# Topology pcu, (6)-cn, num edge types: 1
# Building blocks:
#     Node 0, Type 0, BuildingBlock: MIDCAF_clean_sbu_0, # of connection points: 6
#     Edge 1, Type (0, 0), BuildingBlock: EYOCIG_clean_linker_4, # of connection points: 2
#     Edge 2, Type (0, 0), BuildingBlock: EYOCIG_clean_linker_4, # of connection points: 2
#     Edge 3, Type (0, 0), BuildingBlock: EYOCIG_clean_linker_4, # of connection points: 2
# Relax obj value: 0.148
# Max RMSD: 0.201
# Mean RMSD: 0.201
data_MOF--net-pcu--node1-MIDCAF_clean_sbu_0--edge1-EYOCIG_clean_linker_4
_symmetry_space_group_name_H-M    P1
_symmetry_Int_Tables_number       1
_symmetry_cell_setting            triclinic
loop_
_symmetry_equiv_pos_as_xyz
'x, y, z'
_cell_length_a     12.174377
_cell_length_b     12.174485
_cell_length_c     12.175163
_cell_angle_alpha  109.08671
_cell_angle_beta   109.10335
_cell_angle_gamma 109.19469
loop_
_atom_site_label
_atom_site_type_symbol
_atom_site_fract_x
_atom_site_fract_y
_atom_site_fract_z
_atom_type_partial_charge
Zn0 Zn 0.83935 0.85675 0.88167 0.0
Zn1 Zn 0.29729 0.31459 0.33903 0.0
Zn2 Zn 0.06833 0.08565 0.11035 0.0
C3 C 0.35922 0.21074 0.13535 0.0
C4 C 0.19329 0.11076 0.40106 0.0
O5 O 0.90419 0.13041 1.06345 0.0
O6 O 0.72361 0.93856 0.90289 0.0
C7 C 1.0432 0.96073 0.81965 0.0
O8 O 0.23254 0.13262 1.0655 0.0
O9 O 0.41306 0.2934 0.25718 0.0
O10 O 0.27597 0.23269 0.45481 0.0
O11 O 0.11519 1.04083 0.2745 0.0
O12 O 0.92124 0.87806 0.7659 0.0
O13 O 0.11314 1.0388 0.94622 0.0
O14 O 1.02137 0.92145 0.15521 0.0
O15 O 0.86056 0.74097 0.96354 0.0
C16 C 0.94324 0.79479 1.08537 0.0
O17 O 1.02359 0.24979 0.15724 0.0
O18 O 0.21547 0.43033 0.3178 0.0
C19 C 0.77752 1.06048 0.98544 0.0
C20 C 0.09353 0.37644 0.23525 0.0
C21 C 0.16336 1.01802 0.56294 0.0
C22 C 0.17352 1.05581 0.48507 0.0
C23 C 0.13596 0.99063 0.6578 0.0
C24 C 0.09816 0.98048 0.73566 0.0
C25 C 0.52103 0.18078 1.04264 0.0
C26 C 0.4432 0.19096 1.08044 0.0
C27 C 0.61582 0.1533 1.01525 0.0
C28 C 0.69359 0.11545 1.00512 0.0
C29 C 0.97322 0.63295 0.17807 0.0
C30 C 0.96303 0.71079 0.14028 0.0
C31 C 1.0007 0.53815 0.20544 0.0
C32 C 1.03856 0.46037 0.21556 0.0
loop_
_geom_bond_atom_site_label_1
_geom_bond_atom_site_label_2
_geom_bond_distance
_geom_bond_site_symmetry_2
_ccdc_geom_bond_type
Zn0 O6 1.920 . S
Zn0 O12 1.898 . S
Zn0 O15 1.905 . S
Zn1 O9 1.905 . S
Zn1 O10 1.898 . S
Zn1 O18 1.920 . S
Zn2 O5 2.075 1_455 S
Zn2 O8 2.120 . S
Zn2 O11 2.119 1_465 S
Zn2 O13 2.120 1_464 S
Zn2 O14 2.118 1_554 S
Zn2 O17 2.077 1_564 S
C3 O8 1.166 1_545 S
C3 O9 1.182 . S
C4 O10 1.167 . S
C4 O11 1.299 1_455 S
O5 Zn2 2.075 1_655 S
O5 C19 1.305 1_554 S
O6 Zn0 1.920 . S
O6 C19 1.234 . S
C7 O12 1.174 . S
C7 O13 1.300 1_565 S
O8 Zn2 2.120 . S
O8 C3 1.166 1_565 S
O9 Zn1 1.905 . S
O9 C3 1.182 . S
O10 Zn1 1.898 . S
O10 C4 1.167 . S
O11 Zn2 2.119 1_645 S
O11 C4 1.299 1_655 S
O12 Zn0 1.898 . S
O12 C7 1.174 . S
O13 Zn2 2.120 1_646 S
O13 C7 1.300 1_545 S
O14 Zn2 2.118 1_556 S
O14 C16 1.166 1_455 S
O15 Zn0 1.905 . S
O15 C16 1.182 . S
C16 O14 1.166 1_655 S
C16 O15 1.182 . S
O17 Zn2 2.077 1_546 S
O17 C20 1.305 1_556 S
O18 Zn1 1.920 . S
O18 C20 1.234 . S
C19 O5 1.305 1_556 S
C19 O6 1.234 . S
C20 O17 1.305 1_554 S
C20 O18 1.234 . S
C21 C22 1.170 . S
C21 C23 1.380 . S
C22 C21 1.170 . S
C23 C21 1.380 . S
C23 C24 1.170 . S
C24 C23 1.170 . S
C25 C26 1.170 . S
C25 C27 1.380 . S
C26 C25 1.170 . S
C27 C25 1.380 . S
C27 C28 1.170 . S
C28 C27 1.170 . S
C29 C30 1.170 . S
C29 C31 1.380 . S
C30 C29 1.170 . S
C31 C29 1.380 . S
C31 C32 1.170 . S
C32 C31 1.170 . S
C22 C4 1.301 1_565 S
C24 C7 1.363 1_455 S
C26 C3 1.379 1_556 S
C28 C19 1.313 1_545 S
C30 C16 1.380 1_554 S
C32 C20 1.312 1_655 S
