# Generated by pormake.
# Topology uog, (4)-cn, num edge types: 1
# Building blocks:
#     Node 0, Type 0, BuildingBlock: NAWXER_clean_sbu_0, # of connection points: 4
#     Node 1, Type 0, BuildingBlock: NAWXER_clean_sbu_0, # of connection points: 4
#     Node 2, Type 0, BuildingBlock: NAWXER_clean_sbu_0, # of connection points: 4
#     Node 3, Type 0, BuildingBlock: NAWXER_clean_sbu_0, # of connection points: 4
#     Node 4, Type 0, BuildingBlock: NAWXER_clean_sbu_0, # of connection points: 4
#     Node 5, Type 0, BuildingBlock: NAWXER_clean_sbu_0, # of connection points: 4
#     Edge 6, Type (0, 0), BuildingBlock: EYOCIG_clean_linker_4, # of connection points: 2
#     Edge 7, Type (0, 0), BuildingBlock: EYOCIG_clean_linker_4, # of connection points: 2
#     Edge 8, Type (0, 0), BuildingBlock: EYOCIG_clean_linker_4, # of connection points: 2
#     Edge 9, Type (0, 0), BuildingBlock: EYOCIG_clean_linker_4, # of connection points: 2
#     Edge 10, Type (0, 0), BuildingBlock: EYOCIG_clean_linker_4, # of connection points: 2
#     Edge 11, Type (0, 0), BuildingBlock: EYOCIG_clean_linker_4, # of connection points: 2
#     Edge 12, Type (0, 0), BuildingBlock: EYOCIG_clean_linker_4, # of connection points: 2
#     Edge 13, Type (0, 0), BuildingBlock: EYOCIG_clean_linker_4, # of connection points: 2
#     Edge 14, Type (0, 0), BuildingBlock: EYOCIG_clean_linker_4, # of connection points: 2
#     Edge 15, Type (0, 0), BuildingBlock: EYOCIG_clean_linker_4, # of connection points: 2
#     Edge 16, Type (0, 0), BuildingBlock: EYOCIG_clean_linker_4, # of connection points: 2
#     Edge 17, Type (0, 0), BuildingBlock: EYOCIG_clean_linker_4, # of connection points: 2
# Relax obj value: 0.013
# Max RMSD: 0.240
# Mean RMSD: 0.240
data_MOF--net-uog--node1-NAWXER_clean_sbu_0--edge1-EYOCIG_clean_linker_4
_symmetry_space_group_name_H-M    P1
_symmetry_Int_Tables_number       1
_symmetry_cell_setting            triclinic
loop_
_symmetry_equiv_pos_as_xyz
'x, y, z'
_cell_length_a     23.044991
_cell_length_b     23.056476
_cell_length_c     34.126144
_cell_angle_alpha  89.990821
_cell_angle_beta   90.016157
_cell_angle_gamma 119.99262
loop_
_atom_site_label
_atom_site_type_symbol
_atom_site_fract_x
_atom_site_fract_y
_atom_site_fract_z
_atom_type_partial_charge
C0 C 0.52449 0.36895 0.16962 0.0
C1 C 0.52303 0.15749 0.18215 0.0
O2 O 0.47386 0.31037 0.17063 0.0
Zn3 Zn 0.52233 0.26246 0.17586 0.0
O4 O 0.58373 0.37734 0.17098 0.0
Zn5 Zn 0.62832 0.31494 0.17591 0.0
O6 O 0.67743 0.33141 0.12769 0.0
O7 O 0.56765 0.27413 0.11906 0.0
O8 O 0.58254 0.20787 0.18084 0.0
O9 O 0.47281 0.16614 0.18106 0.0
O10 O 0.56773 0.29539 0.23271 0.0
O11 O 0.6775 0.3469 0.22418 0.0
C12 C 0.62717 0.30094 0.1052 0.0
C13 C 0.62726 0.32741 0.24665 0.0
C14 C 0.3043 0.62562 0.5797 0.0
C15 C 0.33212 0.62537 0.43853 0.0
O16 O 0.33537 0.67572 0.5572 0.0
Zn17 Zn 0.31862 0.62627 0.50916 0.0
O18 O 0.27696 0.56603 0.5659 0.0
Zn19 Zn 0.26519 0.52044 0.50913 0.0
O20 O 0.31184 0.47082 0.51484 0.0
O21 O 0.37993 0.58047 0.51468 0.0
O22 O 0.29933 0.56581 0.45233 0.0
O23 O 0.35172 0.6755 0.46105 0.0
O24 O 0.21153 0.5816 0.504 0.0
O25 O 0.16886 0.47181 0.50367 0.0
C26 C 0.37072 0.52094 0.51618 0.0
C27 C 0.16075 0.52233 0.5026 0.0
C28 C 0.68444 0.30115 0.91336 0.0
C29 C 0.71049 0.32835 0.77205 0.0
O30 O 0.66515 0.3322 0.89102 0.0
Zn31 Zn 0.6973 0.31553 0.84271 0.0
O32 O 0.71663 0.27388 0.89935 0.0
Zn33 Zn 0.74988 0.26218 0.84242 0.0
O34 O 0.84631 0.30923 0.84749 0.0
O35 O 0.80445 0.37707 0.84752 0.0
O36 O 0.73754 0.29574 0.78574 0.0
O37 O 0.6803 0.3482 0.7947 0.0
O38 O 0.63508 0.20853 0.83756 0.0
O39 O 0.7023 0.16589 0.83698 0.0
C40 C 0.85493 0.36805 0.84869 0.0
C41 C 0.64363 0.1578 0.83603 0.0
C42 C 0.38892 0.68243 0.24655 0.0
C43 C 0.38887 0.70842 0.10493 0.0
O44 O 0.33859 0.66246 0.22409 0.0
Zn45 Zn 0.38758 0.69479 0.17575 0.0
O46 O 0.4484 0.71496 0.23261 0.0
Zn47 Zn 0.49364 0.7482 0.17578 0.0
O48 O 0.54212 0.84457 0.18094 0.0
O49 O 0.43223 0.80169 0.18066 0.0
O50 O 0.44835 0.73581 0.11892 0.0
O51 O 0.33857 0.67776 0.12736 0.0
O52 O 0.43316 0.63332 0.17093 0.0
O53 O 0.54292 0.70107 0.1707 0.0
C54 C 0.49147 0.85251 0.182 0.0
C55 C 0.49262 0.64227 0.16965 0.0
C56 C 0.64327 0.4876 0.51598 0.0
C57 C 0.85463 0.4887 0.50307 0.0
O58 O 0.70189 0.53815 0.51465 0.0
Zn59 Zn 0.74953 0.48947 0.5093 0.0
O60 O 0.63477 0.42834 0.5146 0.0
Zn61 Zn 0.69706 0.38358 0.50937 0.0
O62 O 0.68042 0.33438 0.55753 0.0
O63 O 0.73751 0.44414 0.56615 0.0
O64 O 0.80422 0.42921 0.50443 0.0
O65 O 0.84593 0.53886 0.50409 0.0
O66 O 0.71615 0.44393 0.45249 0.0
O67 O 0.6647 0.33427 0.46121 0.0
C68 C 0.71059 0.38464 0.58003 0.0
C69 C 0.684 0.38436 0.43867 0.0
C70 C 0.37068 0.85239 0.83624 0.0
C71 C 0.16073 0.64078 0.84893 0.0
O72 O 0.3118 0.84369 0.83766 0.0
Zn73 Zn 0.26505 0.74733 0.84271 0.0
O74 O 0.37983 0.80201 0.8373 0.0
Zn75 Zn 0.31858 0.6949 0.84218 0.0
O76 O 0.33533 0.66315 0.79374 0.0
O77 O 0.27694 0.71463 0.78567 0.0
O78 O 0.21158 0.63241 0.84729 0.0
O79 O 0.1687 0.69937 0.8482 0.0
O80 O 0.29923 0.73534 0.89929 0.0
O81 O 0.35169 0.67816 0.89016 0.0
C82 C 0.30432 0.68266 0.77151 0.0
C83 C 0.33208 0.70846 0.91288 0.0
C84 C 0.50894 0.0365 0.18367 0.0
C85 C 0.51384 0.0911 0.18298 0.0
C86 C 0.5044 0.97303 0.18363 0.0
C87 C 0.49987 0.91859 0.1829 0.0
C88 C 0.47733 0.50624 0.51833 0.0
C89 C 0.42783 0.51155 0.51735 0.0
C90 C 0.53597 0.50112 0.51825 0.0
C91 C 0.58568 0.49619 0.51722 0.0
C92 C 0.97616 0.47478 0.85023 0.0
C93 C 0.92138 0.42526 0.84953 0.0
C94 C 0.03991 0.53342 0.85031 0.0
C95 C 0.09456 0.58314 0.84969 0.0
C96 C 0.03977 0.50857 0.50125 0.0
C97 C 0.0945 0.51366 0.50186 0.0
C98 C 0.97594 0.50332 0.50138 0.0
C99 C 0.92111 0.49799 0.50214 0.0
C100 C 0.47748 0.97348 0.8345 0.0
C101 C 0.42785 0.91881 0.83529 0.0
C102 C 0.53627 0.03707 0.83444 0.0
C103 C 0.58606 0.09163 0.83515 0.0
C104 C 0.50658 0.53526 0.16816 0.0
C105 C 0.50167 0.58497 0.16883 0.0
C106 C 0.51128 0.47641 0.16815 0.0
C107 C 0.516 0.42659 0.16881 0.0
C108 C 0.65746 0.29207 0.98902 0.0
C109 C 0.66994 0.29603 0.95451 0.0
C110 C 0.64523 0.29205 0.02954 0.0
C111 C 0.63671 0.29596 0.06406 0.0
C112 C 0.37119 0.65614 0.32232 0.0
C113 C 0.37955 0.66827 0.28775 0.0
C114 C 0.35909 0.6439 0.36286 0.0
C115 C 0.34662 0.63513 0.39738 0.0
C116 C 0.71829 0.35474 0.69636 0.0
C117 C 0.71482 0.3426 0.73091 0.0
C118 C 0.71832 0.3667 0.65581 0.0
C119 C 0.71492 0.37513 0.62123 0.0
C120 C 0.35925 0.71664 0.98852 0.0
C121 C 0.34676 0.71301 0.954 0.0
C122 C 0.37124 0.71655 0.02909 0.0
C123 C 0.37949 0.71294 0.0637 0.0
C124 C 0.65746 0.36576 0.36295 0.0
C125 C 0.66971 0.37454 0.3975 0.0
C126 C 0.64536 0.35358 0.32241 0.0
C127 C 0.63683 0.34151 0.28784 0.0
C128 C 0.29553 0.6565 0.69577 0.0
C129 C 0.29933 0.66863 0.73032 0.0
C130 C 0.29552 0.64424 0.65527 0.0
C131 C 0.29937 0.63543 0.62079 0.0
loop_
_geom_bond_atom_site_label_1
_geom_bond_atom_site_label_2
_geom_bond_distance
_geom_bond_site_symmetry_2
_ccdc_geom_bond_type
C0 O2 1.247 . S
C0 O4 1.258 . S
C1 O8 1.247 . S
C1 O9 1.258 . S
O2 C0 1.247 . S
O2 Zn3 2.028 . S
Zn3 O2 2.028 . S
Zn3 O7 2.035 . S
Zn3 O9 2.035 . S
Zn3 O10 2.028 . S
O4 C0 1.258 . S
O4 Zn5 2.035 . S
Zn5 O4 2.035 . S
Zn5 O6 2.028 . S
Zn5 O8 2.028 . S
Zn5 O11 2.035 . S
O6 Zn5 2.028 . S
O6 C12 1.247 . S
O7 Zn3 2.035 . S
O7 C12 1.258 . S
O8 C1 1.247 . S
O8 Zn5 2.028 . S
O9 C1 1.258 . S
O9 Zn3 2.035 . S
O10 Zn3 2.028 . S
O10 C13 1.247 . S
O11 Zn5 2.035 . S
O11 C13 1.258 . S
C12 O6 1.247 . S
C12 O7 1.258 . S
C13 O10 1.247 . S
C13 O11 1.258 . S
C14 O16 1.247 . S
C14 O18 1.258 . S
C15 O22 1.247 . S
C15 O23 1.258 . S
O16 C14 1.247 . S
O16 Zn17 2.028 . S
Zn17 O16 2.028 . S
Zn17 O21 2.035 . S
Zn17 O23 2.035 . S
Zn17 O24 2.028 . S
O18 C14 1.258 . S
O18 Zn19 2.035 . S
Zn19 O18 2.035 . S
Zn19 O20 2.028 . S
Zn19 O22 2.028 . S
Zn19 O25 2.035 . S
O20 Zn19 2.028 . S
O20 C26 1.247 . S
O21 Zn17 2.035 . S
O21 C26 1.258 . S
O22 C15 1.247 . S
O22 Zn19 2.028 . S
O23 C15 1.258 . S
O23 Zn17 2.035 . S
O24 Zn17 2.028 . S
O24 C27 1.247 . S
O25 Zn19 2.035 . S
O25 C27 1.258 . S
C26 O20 1.247 . S
C26 O21 1.258 . S
C27 O24 1.247 . S
C27 O25 1.258 . S
C28 O30 1.247 . S
C28 O32 1.258 . S
C29 O36 1.247 . S
C29 O37 1.258 . S
O30 C28 1.247 . S
O30 Zn31 2.028 . S
Zn31 O30 2.028 . S
Zn31 O35 2.035 . S
Zn31 O37 2.035 . S
Zn31 O38 2.028 . S
O32 C28 1.258 . S
O32 Zn33 2.035 . S
Zn33 O32 2.035 . S
Zn33 O34 2.028 . S
Zn33 O36 2.028 . S
Zn33 O39 2.035 . S
O34 Zn33 2.028 . S
O34 C40 1.247 . S
O35 Zn31 2.035 . S
O35 C40 1.258 . S
O36 C29 1.247 . S
O36 Zn33 2.028 . S
O37 C29 1.258 . S
O37 Zn31 2.035 . S
O38 Zn31 2.028 . S
O38 C41 1.247 . S
O39 Zn33 2.035 . S
O39 C41 1.258 . S
C40 O34 1.247 . S
C40 O35 1.258 . S
C41 O38 1.247 . S
C41 O39 1.258 . S
C42 O44 1.247 . S
C42 O46 1.258 . S
C43 O50 1.247 . S
C43 O51 1.258 . S
O44 C42 1.247 . S
O44 Zn45 2.028 . S
Zn45 O44 2.028 . S
Zn45 O49 2.035 . S
Zn45 O51 2.035 . S
Zn45 O52 2.028 . S
O46 C42 1.258 . S
O46 Zn47 2.035 . S
Zn47 O46 2.035 . S
Zn47 O48 2.028 . S
Zn47 O50 2.028 . S
Zn47 O53 2.035 . S
O48 Zn47 2.028 . S
O48 C54 1.247 . S
O49 Zn45 2.035 . S
O49 C54 1.258 . S
O50 C43 1.247 . S
O50 Zn47 2.028 . S
O51 C43 1.258 . S
O51 Zn45 2.035 . S
O52 Zn45 2.028 . S
O52 C55 1.247 . S
O53 Zn47 2.035 . S
O53 C55 1.258 . S
C54 O48 1.247 . S
C54 O49 1.258 . S
C55 O52 1.247 . S
C55 O53 1.258 . S
C56 O58 1.247 . S
C56 O60 1.258 . S
C57 O64 1.247 . S
C57 O65 1.258 . S
O58 C56 1.247 . S
O58 Zn59 2.028 . S
Zn59 O58 2.028 . S
Zn59 O63 2.035 . S
Zn59 O65 2.035 . S
Zn59 O66 2.028 . S
O60 C56 1.258 . S
O60 Zn61 2.035 . S
Zn61 O60 2.035 . S
Zn61 O62 2.028 . S
Zn61 O64 2.028 . S
Zn61 O67 2.035 . S
O62 Zn61 2.028 . S
O62 C68 1.247 . S
O63 Zn59 2.035 . S
O63 C68 1.258 . S
O64 C57 1.247 . S
O64 Zn61 2.028 . S
O65 C57 1.258 . S
O65 Zn59 2.035 . S
O66 Zn59 2.028 . S
O66 C69 1.247 . S
O67 Zn61 2.035 . S
O67 C69 1.258 . S
C68 O62 1.247 . S
C68 O63 1.258 . S
C69 O66 1.247 . S
C69 O67 1.258 . S
C70 O72 1.247 . S
C70 O74 1.258 . S
C71 O78 1.247 . S
C71 O79 1.258 . S
O72 C70 1.247 . S
O72 Zn73 2.028 . S
Zn73 O72 2.028 . S
Zn73 O77 2.035 . S
Zn73 O79 2.035 . S
Zn73 O80 2.028 . S
O74 C70 1.258 . S
O74 Zn75 2.035 . S
Zn75 O74 2.035 . S
Zn75 O76 2.028 . S
Zn75 O78 2.028 . S
Zn75 O81 2.035 . S
O76 Zn75 2.028 . S
O76 C82 1.247 . S
O77 Zn73 2.035 . S
O77 C82 1.258 . S
O78 C71 1.247 . S
O78 Zn75 2.028 . S
O79 C71 1.258 . S
O79 Zn73 2.035 . S
O80 Zn73 2.028 . S
O80 C83 1.247 . S
O81 Zn75 2.035 . S
O81 C83 1.258 . S
C82 O76 1.247 . S
C82 O77 1.258 . S
C83 O80 1.247 . S
C83 O81 1.258 . S
C84 C85 1.170 . S
C84 C86 1.380 1_545 S
C85 C84 1.170 . S
C86 C84 1.380 1_565 S
C86 C87 1.170 . S
C87 C86 1.170 . S
C88 C89 1.170 . S
C88 C90 1.380 . S
C89 C88 1.170 . S
C90 C88 1.380 . S
C90 C91 1.170 . S
C91 C90 1.170 . S
C92 C93 1.170 . S
C92 C94 1.380 1_655 S
C93 C92 1.170 . S
C94 C92 1.380 1_455 S
C94 C95 1.170 . S
C95 C94 1.170 . S
C96 C97 1.170 . S
C96 C98 1.380 1_455 S
C97 C96 1.170 . S
C98 C96 1.380 1_655 S
C98 C99 1.170 . S
C99 C98 1.170 . S
C100 C101 1.170 . S
C100 C102 1.380 1_565 S
C101 C100 1.170 . S
C102 C100 1.380 1_545 S
C102 C103 1.170 . S
C103 C102 1.170 . S
C104 C105 1.170 . S
C104 C106 1.380 . S
C105 C104 1.170 . S
C106 C104 1.380 . S
C106 C107 1.170 . S
C107 C106 1.170 . S
C108 C109 1.170 . S
C108 C110 1.380 1_556 S
C109 C108 1.170 . S
C110 C108 1.380 1_554 S
C110 C111 1.170 . S
C111 C110 1.170 . S
C112 C113 1.170 . S
C112 C114 1.380 . S
C113 C112 1.170 . S
C114 C112 1.380 . S
C114 C115 1.170 . S
C115 C114 1.170 . S
C116 C117 1.170 . S
C116 C118 1.380 . S
C117 C116 1.170 . S
C118 C116 1.380 . S
C118 C119 1.170 . S
C119 C118 1.170 . S
C120 C121 1.170 . S
C120 C122 1.380 1_556 S
C121 C120 1.170 . S
C122 C120 1.380 1_554 S
C122 C123 1.170 . S
C123 C122 1.170 . S
C124 C125 1.170 . S
C124 C126 1.380 . S
C125 C124 1.170 . S
C126 C124 1.380 . S
C126 C127 1.170 . S
C127 C126 1.170 . S
C128 C129 1.170 . S
C128 C130 1.380 . S
C129 C128 1.170 . S
C130 C128 1.380 . S
C130 C131 1.170 . S
C131 C130 1.170 . S
C85 C1 1.702 . S
C87 C54 1.719 . S
C89 C26 1.687 . S
C91 C56 1.712 . S
C93 C40 1.703 . S
C95 C71 1.719 . S
C97 C27 1.717 . S
C99 C57 1.709 . S
C101 C70 1.701 . S
C103 C41 1.720 . S
C105 C55 1.711 . S
C107 C0 1.714 . S
C109 C28 1.769 . S
C111 C12 1.776 . S
C113 C42 1.776 . S
C115 C15 1.759 . S
C117 C29 1.753 . S
C119 C68 1.757 . S
C121 C83 1.757 . S
C123 C43 1.777 . S
C125 C69 1.753 . S
C127 C13 1.772 . S
C129 C82 1.777 . S
C131 C14 1.758 . S
