# Generated by pormake.
# Topology dmp, (4)-cn, num edge types: 1
# Building blocks:
#     Node 0, Type 0, BuildingBlock: NAHDIM_clean_sbu_0, # of connection points: 4
#     Node 1, Type 0, BuildingBlock: NAHDIM_clean_sbu_0, # of connection points: 4
#     Node 2, Type 0, BuildingBlock: NAHDIM_clean_sbu_0, # of connection points: 4
#     Node 3, Type 0, BuildingBlock: NAHDIM_clean_sbu_0, # of connection points: 4
#     Edge 4, Type (0, 0), BuildingBlock: XIVTED_clean_linker_0, # of connection points: 2
#     Edge 5, Type (0, 0), BuildingBlock: XIVTED_clean_linker_0, # of connection points: 2
#     Edge 6, Type (0, 0), BuildingBlock: XIVTED_clean_linker_0, # of connection points: 2
#     Edge 7, Type (0, 0), BuildingBlock: XIVTED_clean_linker_0, # of connection points: 2
#     Edge 8, Type (0, 0), BuildingBlock: XIVTED_clean_linker_0, # of connection points: 2
#     Edge 9, Type (0, 0), BuildingBlock: XIVTED_clean_linker_0, # of connection points: 2
#     Edge 10, Type (0, 0), BuildingBlock: XIVTED_clean_linker_0, # of connection points: 2
#     Edge 11, Type (0, 0), BuildingBlock: XIVTED_clean_linker_0, # of connection points: 2
# Relax obj value: 0.247
# Max RMSD: 0.271
# Mean RMSD: 0.271
data_MOF--net-dmp--node1-NAHDIM_clean_sbu_0--edge1-XIVTED_clean_linker_0
_symmetry_space_group_name_H-M    P1
_symmetry_Int_Tables_number       1
_symmetry_cell_setting            triclinic
loop_
_symmetry_equiv_pos_as_xyz
'x, y, z'
_cell_length_a     38.477114
_cell_length_b     17.684953
_cell_length_c     18.6626
_cell_angle_alpha  89.755048
_cell_angle_beta   89.167539
_cell_angle_gamma 94.832538
loop_
_atom_site_label
_atom_site_type_symbol
_atom_site_fract_x
_atom_site_fract_y
_atom_site_fract_z
_atom_type_partial_charge
C0 C 0.04788 0.32104 0.35802 0.0
O1 O 0.05752 0.34656 0.29395 0.0
O2 O 0.05617 0.12757 0.25126 0.0
Zn3 Zn 0.08608 0.19745 0.31342 0.0
O4 O 0.11626 0.26849 0.2504 0.0
C5 C 0.11395 0.06847 0.38303 0.0
O6 O 0.08473 0.03107 0.36329 0.0
O7 O 0.05685 0.25699 0.37852 0.0
C8 C 0.14132 0.24387 0.21488 0.0
O9 O 0.14646 0.17145 0.21861 0.0
C10 C 0.04328 0.15356 0.19491 0.0
O11 O 0.04901 0.22621 0.17987 0.0
O12 O 0.11878 0.13913 0.37008 0.0
C13 C 0.41961 0.63197 0.30965 0.0
O14 O 0.41731 0.60627 0.2438 0.0
O15 O 0.39356 0.80629 0.19598 0.0
Zn16 Zn 0.3687 0.72662 0.25903 0.0
O17 O 0.34626 0.64158 0.20095 0.0
C18 C 0.33228 0.82664 0.35383 0.0
O19 O 0.36309 0.86241 0.36436 0.0
O20 O 0.40143 0.68535 0.32856 0.0
C21 C 0.32132 0.65519 0.16032 0.0
O22 O 0.3134 0.72561 0.15277 0.0
C23 C 0.40856 0.78835 0.13819 0.0
O24 O 0.40773 0.71655 0.11999 0.0
O25 O 0.32958 0.76966 0.31257 0.0
C26 C 0.91221 0.64136 0.68278 0.0
O27 O 0.90293 0.6158 0.74702 0.0
O28 O 0.90173 0.83329 0.79008 0.0
Zn29 Zn 0.87256 0.76224 0.72762 0.0
O30 O 0.84319 0.68918 0.7901 0.0
C31 C 0.84395 0.88873 0.655 0.0
O32 O 0.87359 0.92663 0.67132 0.0
O33 O 0.90249 0.7047 0.66208 0.0
C34 C 0.81913 0.71269 0.82933 0.0
O35 O 0.81456 0.78548 0.82993 0.0
C36 C 0.91471 0.80757 0.84646 0.0
O37 O 0.90951 0.73476 0.86116 0.0
O38 O 0.83906 0.81888 0.67143 0.0
C39 C 0.55037 0.36733 0.68209 0.0
O40 O 0.55379 0.39421 0.74735 0.0
O41 O 0.56063 0.17491 0.79242 0.0
Zn42 Zn 0.59114 0.25353 0.73847 0.0
O43 O 0.61374 0.32975 0.80585 0.0
C44 C 0.62732 0.14242 0.65709 0.0
O45 O 0.59651 0.10466 0.6531 0.0
O46 O 0.56384 0.30638 0.66598 0.0
C47 C 0.63675 0.30969 0.84845 0.0
O48 O 0.64305 0.23787 0.85133 0.0
C49 C 0.5415 0.19394 0.84419 0.0
O50 O 0.54166 0.26593 0.86138 0.0
O51 O 0.63024 0.20566 0.68928 0.0
H52 H 0.32539 0.96303 0.42012 0.0
H53 H 0.1181 0.91469 0.39174 0.0
H54 H 0.26612 0.75765 0.35393 0.0
H55 H 0.17776 0.12869 0.42767 0.0
H56 H 0.17104 0.84966 0.40746 0.0
H57 H 0.27074 0.01724 0.45156 0.0
C58 C 0.30095 0.92893 0.4132 0.0
C59 C 0.30026 0.85634 0.38301 0.0
C60 C 0.17242 0.91077 0.41298 0.0
C61 C 0.23778 0.91787 0.41869 0.0
C62 C 0.14216 0.94792 0.40426 0.0
C63 C 0.14366 0.02738 0.40682 0.0
C64 C 0.20436 0.95344 0.42418 0.0
C65 C 0.17552 0.06741 0.42393 0.0
C66 C 0.26977 0.95992 0.43106 0.0
C67 C 0.26786 0.81442 0.37581 0.0
N68 N 0.20473 0.03011 0.43088 0.0
N69 N 0.23792 0.84612 0.3927 0.0
H70 H 0.20752 0.22017 0.16975 0.0
H71 H 0.25633 0.66226 0.10432 0.0
H72 H 0.13374 0.39093 0.17747 0.0
H73 H 0.33069 0.50347 0.16192 0.0
H74 H 0.21189 0.55632 0.09147 0.0
H75 H 0.25271 0.317 0.12866 0.0
C76 C 0.20065 0.27767 0.16145 0.0
C77 C 0.16704 0.298 0.1784 0.0
C78 C 0.23812 0.54466 0.10558 0.0
C79 C 0.21844 0.40851 0.13134 0.0
C80 C 0.26356 0.60504 0.11265 0.0
C81 C 0.29703 0.59174 0.13594 0.0
C82 C 0.24631 0.47066 0.12163 0.0
C83 C 0.30499 0.51635 0.14526 0.0
C84 C 0.22646 0.33284 0.13816 0.0
C85 C 0.15951 0.37319 0.16627 0.0
N86 N 0.27963 0.45862 0.13915 0.0
N87 N 0.18513 0.42595 0.14422 0.0
H88 H 0.63326 -0.00191 0.60756 0.0
H89 H 0.84067 0.04179 0.63573 0.0
H90 H 0.69399 0.209 0.65106 0.0
H91 H 0.77935 0.82701 0.61669 0.0
H92 H 0.78826 0.1071 0.61448 0.0
H93 H 0.68737 0.93837 0.5845 0.0
C94 C 0.65791 0.03212 0.61126 0.0
C95 C 0.65913 0.10824 0.63258 0.0
C96 C 0.78638 0.04566 0.61398 0.0
C97 C 0.72106 0.04032 0.60657 0.0
C98 C 0.81634 0.00833 0.62591 0.0
C99 C 0.81426 0.92883 0.62943 0.0
C100 C 0.75416 0.00315 0.60568 0.0
C101 C 0.78206 0.88843 0.61563 0.0
C102 C 0.6888 -0.00202 0.5982 0.0
C103 C 0.69182 0.14978 0.63592 0.0
N104 N 0.75319 0.92603 0.60535 0.0
N105 N 0.72148 0.11506 0.62393 0.0
H106 H 0.75402 0.73638 0.88103 0.0
H107 H 0.70058 0.29225 0.90618 0.0
H108 H 0.82567 0.56279 0.85665 0.0
H109 H 0.6287 0.46102 0.86318 0.0
H110 H 0.7458 0.3938 0.93111 0.0
H111 H 0.70813 0.63858 0.91653 0.0
C112 C 0.76031 0.67795 0.88465 0.0
C113 C 0.79344 0.65731 0.86427 0.0
C114 C 0.7199 0.40845 0.91772 0.0
C115 C 0.74124 0.54567 0.90486 0.0
C116 C 0.69402 0.35056 0.90375 0.0
C117 C 0.66111 0.36837 0.88077 0.0
C118 C 0.71268 0.48441 0.90892 0.0
C119 C 0.65399 0.44489 0.87922 0.0
C120 C 0.7341 0.62223 0.90476 0.0
C121 C 0.80024 0.58089 0.87049 0.0
N122 N 0.67976 0.50023 0.89189 0.0
N123 N 0.77421 0.52764 0.88934 0.0
H124 H 0.02902 -0.00027 0.20695 0.0
H125 H 0.9282 0.96171 0.83499 0.0
H126 H 0.0127 0.19013 0.06941 0.0
H127 H 0.94524 0.77135 0.97203 0.0
H128 H 0.95902 0.04642 0.92029 0.0
H129 H -0.00213 0.91529 0.12195 0.0
C130 C 0.01879 0.02384 0.15899 0.0
C131 C 0.02349 0.10212 0.14522 0.0
C132 C 0.95606 -0.01389 0.93166 0.0
C133 C -0.01208 0.00573 0.04757 0.0
C134 C 0.9385 0.93768 0.88291 0.0
C135 C 0.93413 0.85931 0.89643 0.0
C136 C 0.96933 0.95599 0.99437 0.0
C137 C 0.94799 0.83138 0.95944 0.0
C138 C 0.00105 0.97556 0.1104 0.0
C139 C 0.00971 0.13015 0.08217 0.0
N140 N 0.96494 0.87971 1.0061 0.0
N141 N -0.00742 0.08195 0.03562 0.0
H142 H 0.49929 0.21391 0.96077 0.0
H143 H 0.44516 0.76978 0.01353 0.0
H144 H 0.53518 0.0405 0.82248 0.0
H145 H 0.41387 0.94204 0.15856 0.0
H146 H 0.4762 0.86875 0.93981 0.0
H147 H 0.46561 0.11555 0.03081 0.0
C148 C 0.50003 0.15519 0.945 0.0
C149 C 0.52017 0.13539 0.88582 0.0
C150 C 0.46251 0.88491 0.98772 0.0
C151 C 0.48172 0.02253 0.96579 0.0
C152 C 0.44476 0.82841 0.02984 0.0
C153 C 0.42698 0.84763 0.09243 0.0
C154 C 0.46245 0.96122 1.00827 0.0
C155 C 0.42732 0.92458 0.11085 0.0
C156 C 0.48081 0.09903 0.98507 0.0
C157 C 0.52009 0.05838 0.86782 0.0
N158 N 0.44481 0.97853 0.069 0.0
N159 N 0.50121 0.00477 0.90773 0.0
H160 H 0.93607 0.6769 0.54669 0.0
H161 H 0.02375 0.28576 0.49386 0.0
H162 H 0.9351 0.50183 0.70892 0.0
H163 H 0.02587 0.46157 0.33216 0.0
H164 H -0.00899 0.36407 0.57325 0.0
H165 H 0.96906 0.59898 0.46725 0.0
C166 C 0.94284 0.62214 0.56567 0.0
C167 C 0.93279 0.5958 0.63455 0.0
C168 C -0.00137 0.38553 0.52039 0.0
C169 C 0.97046 0.50629 0.54385 0.0
C170 C 0.0173 0.3408 0.47499 0.0
C171 C 0.02758 0.36717 0.40626 0.0
C172 C -0.00984 0.45719 0.49693 0.0
C173 C 0.01848 0.43894 0.3847 0.0
C174 C 0.96166 0.57765 0.52025 0.0
C175 C 0.94229 0.52442 0.65627 0.0
N176 N 0.00031 0.48147 0.42991 0.0
N177 N 0.96056 0.48213 0.61104 0.0
H178 H 0.45856 0.51109 0.28964 0.0
H179 H 0.5181 0.49844 0.69838 0.0
H180 H 0.42988 0.67074 0.45004 0.0
H181 H 0.54072 0.33022 0.54118 0.0
H182 H 0.48802 0.56596 0.60675 0.0
H183 H 0.49164 0.44826 0.37961 0.0
C184 C 0.45934 0.53318 0.34368 0.0
C185 C 0.44129 0.59604 0.36243 0.0
C186 C 0.49957 0.51428 0.59231 0.0
C187 C 0.47899 0.52423 0.46573 0.0
C188 C 0.51672 0.47565 0.64462 0.0
C189 C 0.53185 0.40846 0.62746 0.0
C190 C 0.49757 0.48557 0.5223 0.0
C191 C 0.52934 0.3817 0.55687 0.0
C192 C 0.47818 0.49716 0.39508 0.0
C193 C 0.44329 0.62225 0.43327 0.0
N194 N 0.51251 0.42034 0.5069 0.0
N195 N 0.46172 0.58607 0.4824 0.0
loop_
_geom_bond_atom_site_label_1
_geom_bond_atom_site_label_2
_geom_bond_distance
_geom_bond_site_symmetry_2
_ccdc_geom_bond_type
C0 O1 1.160 . S
C0 O7 1.185 . S
O1 C0 1.160 . S
O2 Zn3 1.899 . S
O2 C10 1.284 . S
Zn3 O2 1.899 . S
Zn3 O4 2.032 . S
Zn3 O7 2.086 . S
Zn3 O12 1.977 . S
O4 Zn3 2.032 . S
O4 C8 1.278 . S
C5 O6 1.203 . S
C5 O12 1.267 . S
O6 C5 1.203 . S
O7 C0 1.185 . S
O7 Zn3 2.086 . S
C8 O4 1.278 . S
C8 O9 1.211 . S
O9 C8 1.211 . S
C10 O2 1.284 . S
C10 O11 1.273 . S
O11 C10 1.273 . S
O12 Zn3 1.977 . S
O12 C5 1.267 . S
C13 O14 1.160 . S
C13 O20 1.185 . S
O14 C13 1.160 . S
O15 Zn16 1.899 . S
O15 C23 1.284 . S
Zn16 O15 1.899 . S
Zn16 O17 2.032 . S
Zn16 O20 2.086 . S
Zn16 O25 1.977 . S
O17 Zn16 2.032 . S
O17 C21 1.278 . S
C18 O19 1.203 . S
C18 O25 1.267 . S
O19 C18 1.203 . S
O20 C13 1.185 . S
O20 Zn16 2.086 . S
C21 O17 1.278 . S
C21 O22 1.211 . S
O22 C21 1.211 . S
C23 O15 1.284 . S
C23 O24 1.273 . S
O24 C23 1.273 . S
O25 Zn16 1.977 . S
O25 C18 1.267 . S
C26 O27 1.160 . S
C26 O33 1.185 . S
O27 C26 1.160 . S
O28 Zn29 1.899 . S
O28 C36 1.284 . S
Zn29 O28 1.899 . S
Zn29 O30 2.032 . S
Zn29 O33 2.086 . S
Zn29 O38 1.977 . S
O30 Zn29 2.032 . S
O30 C34 1.278 . S
C31 O32 1.203 . S
C31 O38 1.267 . S
O32 C31 1.203 . S
O33 C26 1.185 . S
O33 Zn29 2.086 . S
C34 O30 1.278 . S
C34 O35 1.211 . S
O35 C34 1.211 . S
C36 O28 1.284 . S
C36 O37 1.273 . S
O37 C36 1.273 . S
O38 Zn29 1.977 . S
O38 C31 1.267 . S
C39 O40 1.160 . S
C39 O46 1.185 . S
O40 C39 1.160 . S
O41 Zn42 1.899 . S
O41 C49 1.284 . S
Zn42 O41 1.899 . S
Zn42 O43 2.032 . S
Zn42 O46 2.086 . S
Zn42 O51 1.977 . S
O43 Zn42 2.032 . S
O43 C47 1.278 . S
C44 O45 1.203 . S
C44 O51 1.267 . S
O45 C44 1.203 . S
O46 C39 1.185 . S
O46 Zn42 2.086 . S
C47 O43 1.278 . S
C47 O48 1.211 . S
O48 C47 1.211 . S
C49 O41 1.284 . S
C49 O50 1.273 . S
O50 C49 1.273 . S
O51 Zn42 1.977 . S
O51 C44 1.267 . S
H52 C58 0.930 1_545 S
H53 C62 0.930 1_565 S
H54 C67 0.929 . S
H55 C65 0.929 . S
H56 C60 0.929 . S
H57 C66 0.929 . S
C58 H52 0.930 1_565 S
C58 C59 1.367 . S
C58 C66 1.378 1_565 S
C59 C58 1.367 . S
C59 C67 1.433 . S
C60 H56 0.929 . S
C60 C62 1.378 1_565 S
C60 C64 1.350 1_565 S
C61 C64 1.463 1_565 S
C61 C66 1.350 1_565 S
C61 N69 1.427 . S
C62 H53 0.930 1_545 S
C62 C60 1.378 1_545 S
C62 C63 1.367 . S
C63 C62 1.367 . S
C63 C65 1.433 . S
C64 C60 1.350 1_545 S
C64 C61 1.463 1_545 S
C64 N68 1.427 . S
C65 H55 0.929 . S
C65 C63 1.433 . S
C65 N68 1.384 . S
C66 H57 0.929 . S
C66 C58 1.378 1_545 S
C66 C61 1.350 1_545 S
C67 H54 0.929 . S
C67 C59 1.433 . S
C67 N69 1.384 . S
N68 C64 1.427 . S
N68 C65 1.384 . S
N69 C61 1.427 . S
N69 C67 1.384 . S
H70 C76 0.930 . S
H71 C80 0.930 . S
H72 C85 0.929 . S
H73 C83 0.929 . S
H74 C78 0.929 . S
H75 C84 0.929 . S
C76 H70 0.930 . S
C76 C77 1.367 . S
C76 C84 1.378 . S
C77 C76 1.367 . S
C77 C85 1.433 . S
C78 H74 0.929 . S
C78 C80 1.378 . S
C78 C82 1.350 . S
C79 C82 1.463 . S
C79 C84 1.350 . S
C79 N87 1.427 . S
C80 H71 0.930 . S
C80 C78 1.378 . S
C80 C81 1.367 . S
C81 C80 1.367 . S
C81 C83 1.433 . S
C82 C78 1.350 . S
C82 C79 1.463 . S
C82 N86 1.427 . S
C83 H73 0.929 . S
C83 C81 1.433 . S
C83 N86 1.384 . S
C84 H75 0.929 . S
C84 C76 1.378 . S
C84 C79 1.350 . S
C85 H72 0.929 . S
C85 C77 1.433 . S
C85 N87 1.384 . S
N86 C82 1.427 . S
N86 C83 1.384 . S
N87 C79 1.427 . S
N87 C85 1.384 . S
H88 C94 0.930 1_565 S
H89 C98 0.930 1_545 S
H90 C103 0.929 . S
H91 C101 0.929 . S
H92 C96 0.929 . S
H93 C102 0.929 . S
C94 H88 0.930 1_545 S
C94 C95 1.367 . S
C94 C102 1.378 1_545 S
C95 C94 1.367 . S
C95 C103 1.433 . S
C96 H92 0.929 . S
C96 C98 1.378 1_545 S
C96 C100 1.350 1_545 S
C97 C100 1.463 1_545 S
C97 C102 1.350 1_545 S
C97 N105 1.427 . S
C98 H89 0.930 1_565 S
C98 C96 1.378 1_565 S
C98 C99 1.367 . S
C99 C98 1.367 . S
C99 C101 1.433 . S
C100 C96 1.350 1_565 S
C100 C97 1.463 1_565 S
C100 N104 1.427 . S
C101 H91 0.929 . S
C101 C99 1.433 . S
C101 N104 1.384 . S
C102 H93 0.929 . S
C102 C94 1.378 1_565 S
C102 C97 1.350 1_565 S
C103 H90 0.929 . S
C103 C95 1.433 . S
C103 N105 1.384 . S
N104 C100 1.427 . S
N104 C101 1.384 . S
N105 C97 1.427 . S
N105 C103 1.384 . S
H106 C112 0.930 . S
H107 C116 0.930 . S
H108 C121 0.929 . S
H109 C119 0.929 . S
H110 C114 0.929 . S
H111 C120 0.929 . S
C112 H106 0.930 . S
C112 C113 1.367 . S
C112 C120 1.378 . S
C113 C112 1.367 . S
C113 C121 1.433 . S
C114 H110 0.929 . S
C114 C116 1.378 . S
C114 C118 1.350 . S
C115 C118 1.463 . S
C115 C120 1.350 . S
C115 N123 1.427 . S
C116 H107 0.930 . S
C116 C114 1.378 . S
C116 C117 1.367 . S
C117 C116 1.367 . S
C117 C119 1.433 . S
C118 C114 1.350 . S
C118 C115 1.463 . S
C118 N122 1.427 . S
C119 H109 0.929 . S
C119 C117 1.433 . S
C119 N122 1.384 . S
C120 H111 0.929 . S
C120 C112 1.378 . S
C120 C115 1.350 . S
C121 H108 0.929 . S
C121 C113 1.433 . S
C121 N123 1.384 . S
N122 C118 1.427 . S
N122 C119 1.384 . S
N123 C115 1.427 . S
N123 C121 1.384 . S
H124 C130 0.930 . S
H125 C134 0.930 . S
H126 C139 0.929 . S
H127 C137 0.929 . S
H128 C132 0.929 . S
H129 C138 0.929 . S
C130 H124 0.930 . S
C130 C131 1.367 . S
C130 C138 1.378 1_455 S
C131 C130 1.367 . S
C131 C139 1.433 . S
C132 H128 0.929 . S
C132 C134 1.378 1_455 S
C132 C136 1.350 1_455 S
C133 C136 1.463 1_444 S
C133 C138 1.350 1_455 S
C133 N141 1.427 1_554 S
C134 H125 0.930 . S
C134 C132 1.378 1_655 S
C134 C135 1.367 . S
C135 C134 1.367 . S
C135 C137 1.433 . S
C136 C132 1.350 1_655 S
C136 C133 1.463 1_666 S
C136 N140 1.427 1_556 S
C137 H127 0.929 . S
C137 C135 1.433 . S
C137 N140 1.384 1_556 S
C138 H129 0.929 . S
C138 C130 1.378 1_655 S
C138 C133 1.350 1_655 S
C139 H126 0.929 . S
C139 C131 1.433 . S
C139 N141 1.384 1_554 S
N140 C136 1.427 1_554 S
N140 C137 1.384 1_554 S
N141 C133 1.427 1_556 S
N141 C139 1.384 1_556 S
H142 C148 0.930 . S
H143 C152 0.930 . S
H144 C157 0.929 . S
H145 C155 0.929 . S
H146 C150 0.929 1_556 S
H147 C156 0.929 1_554 S
C148 H142 0.930 . S
C148 C149 1.367 . S
C148 C156 1.378 . S
C149 C148 1.367 . S
C149 C157 1.433 . S
C150 H146 0.929 1_554 S
C150 C152 1.378 . S
C150 C154 1.350 . S
C151 C154 1.463 1_546 S
C151 C156 1.350 . S
C151 N159 1.427 . S
C152 H143 0.930 . S
C152 C150 1.378 . S
C152 C153 1.367 . S
C153 C152 1.367 . S
C153 C155 1.433 . S
C154 C150 1.350 . S
C154 C151 1.463 1_564 S
C154 N158 1.427 . S
C155 H145 0.929 . S
C155 C153 1.433 . S
C155 N158 1.384 . S
C156 H147 0.929 1_556 S
C156 C148 1.378 . S
C156 C151 1.350 . S
C157 H144 0.929 . S
C157 C149 1.433 . S
C157 N159 1.384 . S
N158 C154 1.427 . S
N158 C155 1.384 . S
N159 C151 1.427 . S
N159 C157 1.384 . S
H160 C166 0.930 . S
H161 C170 0.930 . S
H162 C175 0.929 . S
H163 C173 0.929 . S
H164 C168 0.929 . S
H165 C174 0.929 . S
C166 H160 0.930 . S
C166 C167 1.367 . S
C166 C174 1.378 . S
C167 C166 1.367 . S
C167 C175 1.433 . S
C168 H164 0.929 . S
C168 C170 1.378 . S
C168 C172 1.350 . S
C169 C172 1.463 1_655 S
C169 C174 1.350 . S
C169 N177 1.427 . S
C170 H161 0.930 . S
C170 C168 1.378 . S
C170 C171 1.367 . S
C171 C170 1.367 . S
C171 C173 1.433 . S
C172 C168 1.350 . S
C172 C169 1.463 1_455 S
C172 N176 1.427 . S
C173 H163 0.929 . S
C173 C171 1.433 . S
C173 N176 1.384 . S
C174 H165 0.929 . S
C174 C166 1.378 . S
C174 C169 1.350 . S
C175 H162 0.929 . S
C175 C167 1.433 . S
C175 N177 1.384 . S
N176 C172 1.427 . S
N176 C173 1.384 . S
N177 C169 1.427 . S
N177 C175 1.384 . S
H178 C184 0.930 . S
H179 C188 0.930 . S
H180 C193 0.929 . S
H181 C191 0.929 . S
H182 C186 0.929 . S
H183 C192 0.929 . S
C184 H178 0.930 . S
C184 C185 1.367 . S
C184 C192 1.378 . S
C185 C184 1.367 . S
C185 C193 1.433 . S
C186 H182 0.929 . S
C186 C188 1.378 . S
C186 C190 1.350 . S
C187 C190 1.463 . S
C187 C192 1.350 . S
C187 N195 1.427 . S
C188 H179 0.930 . S
C188 C186 1.378 . S
C188 C189 1.367 . S
C189 C188 1.367 . S
C189 C191 1.433 . S
C190 C186 1.350 . S
C190 C187 1.463 . S
C190 N194 1.427 . S
C191 H181 0.929 . S
C191 C189 1.433 . S
C191 N194 1.384 . S
C192 H183 0.929 . S
C192 C184 1.378 . S
C192 C187 1.350 . S
C193 H180 0.929 . S
C193 C185 1.433 . S
C193 N195 1.384 . S
N194 C190 1.427 . S
N194 C191 1.384 . S
N195 C187 1.427 . S
N195 C193 1.384 . S
C59 C18 0.883 . S
C63 C5 0.882 . S
C77 C8 0.680 . S
C81 C21 0.693 . S
C95 C44 0.888 . S
C99 C31 0.876 . S
C113 C34 0.679 . S
C117 C47 0.679 . S
C131 C10 1.581 . S
C135 C36 1.581 . S
C149 C49 1.583 . S
C153 C23 1.583 . S
C167 C26 1.552 . S
C171 C0 1.552 . S
C185 C13 1.540 . S
C189 C39 1.540 . S
