# Generated by pormake.
# Topology uoy, (4)-cn, num edge types: 1
# Building blocks:
#     Node 0, Type 0, BuildingBlock: NAHDIM_clean_sbu_0, # of connection points: 4
#     Node 1, Type 0, BuildingBlock: NAHDIM_clean_sbu_0, # of connection points: 4
#     Node 2, Type 0, BuildingBlock: NAHDIM_clean_sbu_0, # of connection points: 4
#     Node 3, Type 0, BuildingBlock: NAHDIM_clean_sbu_0, # of connection points: 4
#     Node 4, Type 0, BuildingBlock: NAHDIM_clean_sbu_0, # of connection points: 4
#     Node 5, Type 0, BuildingBlock: NAHDIM_clean_sbu_0, # of connection points: 4
#     Node 6, Type 0, BuildingBlock: NAHDIM_clean_sbu_0, # of connection points: 4
#     Node 7, Type 0, BuildingBlock: NAHDIM_clean_sbu_0, # of connection points: 4
#     Node 8, Type 0, BuildingBlock: NAHDIM_clean_sbu_0, # of connection points: 4
#     Node 9, Type 0, BuildingBlock: NAHDIM_clean_sbu_0, # of connection points: 4
#     Node 10, Type 0, BuildingBlock: NAHDIM_clean_sbu_0, # of connection points: 4
#     Node 11, Type 0, BuildingBlock: NAHDIM_clean_sbu_0, # of connection points: 4
#     Node 12, Type 0, BuildingBlock: NAHDIM_clean_sbu_0, # of connection points: 4
#     Node 13, Type 0, BuildingBlock: NAHDIM_clean_sbu_0, # of connection points: 4
#     Node 14, Type 0, BuildingBlock: NAHDIM_clean_sbu_0, # of connection points: 4
#     Node 15, Type 0, BuildingBlock: NAHDIM_clean_sbu_0, # of connection points: 4
#     Edge 16, Type (0, 0), None
#     Edge 17, Type (0, 0), None
#     Edge 18, Type (0, 0), None
#     Edge 19, Type (0, 0), None
#     Edge 20, Type (0, 0), None
#     Edge 21, Type (0, 0), None
#     Edge 22, Type (0, 0), None
#     Edge 23, Type (0, 0), None
#     Edge 24, Type (0, 0), None
#     Edge 25, Type (0, 0), None
#     Edge 26, Type (0, 0), None
#     Edge 27, Type (0, 0), None
#     Edge 28, Type (0, 0), None
#     Edge 29, Type (0, 0), None
#     Edge 30, Type (0, 0), None
#     Edge 31, Type (0, 0), None
#     Edge 32, Type (0, 0), None
#     Edge 33, Type (0, 0), None
#     Edge 34, Type (0, 0), None
#     Edge 35, Type (0, 0), None
#     Edge 36, Type (0, 0), None
#     Edge 37, Type (0, 0), None
#     Edge 38, Type (0, 0), None
#     Edge 39, Type (0, 0), None
#     Edge 40, Type (0, 0), None
#     Edge 41, Type (0, 0), None
#     Edge 42, Type (0, 0), None
#     Edge 43, Type (0, 0), None
#     Edge 44, Type (0, 0), None
#     Edge 45, Type (0, 0), None
#     Edge 46, Type (0, 0), None
#     Edge 47, Type (0, 0), None
# Relax obj value: 0.094
# Max RMSD: 0.138
# Mean RMSD: 0.138
data_MOF--net-uoy--node1-NAHDIM_clean_sbu_0--edge1-none
_symmetry_space_group_name_H-M    P1
_symmetry_Int_Tables_number       1
_symmetry_cell_setting            triclinic
loop_
_symmetry_equiv_pos_as_xyz
'x, y, z'
_cell_length_a     13.523003
_cell_length_b     13.52305
_cell_length_c     44.936975
_cell_angle_alpha  88.708367
_cell_angle_beta   88.702892
_cell_angle_gamma 89.808913
loop_
_atom_site_label
_atom_site_type_symbol
_atom_site_fract_x
_atom_site_fract_y
_atom_site_fract_z
_atom_type_partial_charge
C0 C 0.02201 0.03195 0.16571 0.0
O1 O 0.01499 0.12867 0.1633 0.0
O2 O 0.21878 0.13368 0.2162 0.0
Zn3 Zn 0.22444 0.07969 0.17447 0.0
O4 O 0.22343 0.18581 0.14219 0.0
C5 C 0.43222 0.03395 0.16122 0.0
O6 O 0.43773 0.12654 0.15192 0.0
O7 O 0.10577 -0.00784 0.17016 0.0
C8 C 0.24745 0.16102 0.11586 0.0
O9 O 0.27165 0.06882 0.11062 0.0
C10 C 0.29233 0.17894 0.22647 0.0
O11 O 0.36886 0.19891 0.2089 0.0
O12 O 0.35013 -0.0012 0.17091 0.0
C13 C 0.92 0.5143 0.41703 0.0
O14 O 0.82952 0.50854 0.40723 0.0
O15 O 0.78557 0.72493 0.46444 0.0
Zn16 Zn 0.86699 0.72084 0.42574 0.0
O17 O 0.77975 0.7191 0.3903 0.0
C18 C 0.92912 0.92358 0.40951 0.0
O19 O 0.84475 0.92881 0.39566 0.0
O20 O 0.95205 0.59658 0.42606 0.0
C21 C 0.82093 0.71265 0.36472 0.0
O22 O 0.91772 0.70737 0.3623 0.0
C23 C 0.7698 0.80781 0.47653 0.0
O24 O 0.80167 0.88912 0.46313 0.0
O25 O 0.95413 0.84329 0.42276 0.0
C26 C 0.43271 0.47091 0.66518 0.0
O27 O 0.43857 0.37483 0.66976 0.0
O28 O 0.20539 0.38703 0.70821 0.0
Zn29 Zn 0.22599 0.42789 0.66517 0.0
O30 O 0.23608 0.31592 0.6363 0.0
C31 C 0.02209 0.47376 0.66317 0.0
O32 O 0.0174 0.38478 0.6754 0.0
O33 O 0.34862 0.51138 0.66194 0.0
C34 C 0.19352 0.23271 0.63959 0.0
O35 O 0.13932 0.21319 0.66357 0.0
C36 C 0.22161 0.3087 0.72344 0.0
O37 O 0.26322 0.23146 0.71112 0.0
O38 O 0.10583 0.50994 0.65556 0.0
C39 C 0.48292 0.92549 0.91825 0.0
O40 O 0.57165 0.93017 0.92941 0.0
O41 O 0.56882 0.70232 0.95666 0.0
Zn42 Zn 0.53609 0.71992 0.91319 0.0
O43 O 0.65535 0.73086 0.8852 0.0
C44 C 0.48809 0.51324 0.91326 0.0
O45 O 0.56707 0.50867 0.92967 0.0
O46 O 0.45113 0.84316 0.90922 0.0
C47 C 0.73158 0.67683 0.88832 0.0
O48 O 0.73621 0.61409 0.91093 0.0
C49 C 0.64668 0.71533 0.97136 0.0
O50 O 0.72757 0.74927 0.95812 0.0
O51 O 0.45898 0.59677 0.90302 0.0
C52 C 0.01706 0.47848 0.06273 0.0
O53 O 0.00949 0.38308 0.05845 0.0
O54 O 0.24786 0.39016 0.02168 0.0
Zn55 Zn 0.22417 0.43111 0.06428 0.0
O56 O 0.21211 0.31872 0.09452 0.0
C57 C 0.42853 0.47764 0.06738 0.0
O58 O 0.43589 0.39006 0.05549 0.0
O59 O 0.10179 0.51637 0.06613 0.0
C60 C 0.25494 0.23562 0.09183 0.0
O61 O 0.30895 0.21778 0.06792 0.0
C62 C 0.22939 0.3134 0.007 0.0
O63 O 0.18272 0.23806 0.01968 0.0
O64 O 0.34352 0.51223 0.07406 0.0
C65 C 0.52919 0.51496 0.31339 0.0
O66 O 0.62309 0.50719 0.31992 0.0
O67 O 0.65842 0.72135 0.26623 0.0
Zn68 Zn 0.5791 0.7206 0.30517 0.0
O69 O 0.66742 0.7185 0.34055 0.0
C70 C 0.52143 0.92306 0.31758 0.0
O71 O 0.60885 0.92672 0.32964 0.0
O72 O 0.49313 0.59919 0.30664 0.0
C73 C 0.76086 0.71209 0.33809 0.0
O74 O 0.80342 0.70569 0.31165 0.0
C75 C 0.6829 0.80364 0.25408 0.0
O76 O 0.66007 0.88608 0.26745 0.0
O77 O 0.49225 0.84295 0.30638 0.0
C78 C 0.42857 0.04151 0.56254 0.0
O79 O 0.4368 0.13748 0.56554 0.0
O80 O 0.227 0.16367 0.5158 0.0
Zn81 Zn 0.22364 0.09218 0.55617 0.0
O82 O 0.2255 0.18881 0.58955 0.0
C83 C 0.01706 0.0387 0.56991 0.0
O84 O 0.00909 0.12938 0.57956 0.0
O85 O 0.34398 0.00409 0.55852 0.0
C86 C 0.2002 0.16082 0.61581 0.0
O87 O 0.17369 0.06865 0.62108 0.0
C88 C 0.14656 0.18195 0.50262 0.0
O89 O 0.06211 0.15908 0.51588 0.0
O90 O 0.0998 0.00774 0.55967 0.0
C91 C 0.9675 0.92624 0.81223 0.0
O92 O 0.87521 0.93355 0.80394 0.0
O93 O 0.88133 0.72074 0.76896 0.0
Zn94 Zn 0.91971 0.72138 0.81219 0.0
O95 O 0.80287 0.72348 0.8411 0.0
C96 C 0.96239 0.51351 0.81412 0.0
O97 O 0.87292 0.50914 0.80349 0.0
O98 O 0.00425 0.84141 0.81777 0.0
C99 C 0.8138 0.68244 0.86657 0.0
O100 O 0.89877 0.64103 0.87306 0.0
C101 C 0.79922 0.69404 0.75861 0.0
O102 O 0.72663 0.66679 0.77686 0.0
O103 O -0.00049 0.59711 0.81977 0.0
C104 C 0.52197 0.53193 0.66571 0.0
O105 O 0.51496 0.62865 0.6633 0.0
O106 O 0.71876 0.63366 0.7162 0.0
Zn107 Zn 0.72441 0.57966 0.67446 0.0
O108 O 0.72341 0.68578 0.64219 0.0
C109 C 0.93219 0.53393 0.66121 0.0
O110 O 0.9377 0.62652 0.65192 0.0
O111 O 0.60574 0.49214 0.67016 0.0
C112 C 0.74743 0.661 0.61586 0.0
O113 O 0.77163 0.5688 0.61062 0.0
C114 C 0.79232 0.67891 0.72646 0.0
O115 O 0.86884 0.69891 0.7089 0.0
O116 O 0.8501 0.49878 0.6709 0.0
C117 C 0.41999 0.01431 0.91704 0.0
O118 O 0.32951 0.00855 0.90723 0.0
O119 O 0.28557 0.22496 0.96444 0.0
Zn120 Zn 0.36699 0.22085 0.92574 0.0
O121 O 0.27973 0.2191 0.8903 0.0
C122 C 0.42911 0.42358 0.9095 0.0
O123 O 0.34472 0.42883 0.89566 0.0
O124 O 0.45204 0.09659 0.92606 0.0
C125 C 0.32091 0.21265 0.86472 0.0
O126 O 0.41771 0.20738 0.8623 0.0
C127 C 0.26985 0.30784 0.97654 0.0
O128 O 0.30175 0.38914 0.96314 0.0
O129 O 0.45413 0.34329 0.92275 0.0
C130 C 0.93274 0.97094 0.16518 0.0
O131 O 0.9386 0.87486 0.16976 0.0
O132 O 0.70543 0.88705 0.20822 0.0
Zn133 Zn 0.72602 0.92791 0.16517 0.0
O134 O 0.73611 0.81594 0.1363 0.0
C135 C 0.52212 0.97379 0.16318 0.0
O136 O 0.51743 0.88481 0.17541 0.0
O137 O 0.84865 0.01141 0.16194 0.0
C138 C 0.69355 0.73273 0.13959 0.0
O139 O 0.63934 0.71322 0.16357 0.0
C140 C 0.72166 0.80872 0.22344 0.0
O141 O 0.76325 0.73147 0.21111 0.0
O142 O 0.60586 0.00996 0.15556 0.0
C143 C -0.01707 0.42549 0.41825 0.0
O144 O 0.07166 0.43017 0.42941 0.0
O145 O 0.06883 0.20234 0.45666 0.0
Zn146 Zn 0.0361 0.21992 0.41319 0.0
O147 O 0.15536 0.23086 0.38521 0.0
C148 C -0.01191 0.01323 0.41327 0.0
O149 O 0.06706 0.00867 0.42969 0.0
O150 O 0.95114 0.34316 0.40921 0.0
C151 C 0.23158 0.1768 0.38832 0.0
O152 O 0.23619 0.11403 0.41093 0.0
C153 C 0.1467 0.21534 0.47136 0.0
O154 O 0.22761 0.2492 0.45812 0.0
O155 O 0.959 0.09676 0.40302 0.0
C156 C 0.51704 0.97845 0.56273 0.0
O157 O 0.50947 0.88305 0.55845 0.0
O158 O 0.74782 0.89014 0.52167 0.0
Zn159 Zn 0.72414 0.93108 0.56427 0.0
O160 O 0.71209 0.81869 0.59451 0.0
C161 C 0.92851 0.97761 0.56736 0.0
O162 O 0.93587 0.89004 0.55547 0.0
O163 O 0.60177 0.01634 0.56613 0.0
C164 C 0.75492 0.7356 0.59182 0.0
O165 O 0.80895 0.71777 0.56792 0.0
C166 C 0.72935 0.81337 0.50699 0.0
O167 O 0.68272 0.73802 0.51968 0.0
O168 O 0.8435 0.0122 0.57406 0.0
C169 C 0.02917 0.01496 0.81339 0.0
O170 O 0.12307 0.00718 0.81992 0.0
O171 O 0.15838 0.22134 0.76624 0.0
Zn172 Zn 0.07907 0.2206 0.80517 0.0
O173 O 0.16739 0.21849 0.84055 0.0
C174 C 0.02141 0.42306 0.81758 0.0
O175 O 0.10883 0.42673 0.82964 0.0
O176 O -0.0069 0.09919 0.80665 0.0
C177 C 0.26084 0.21209 0.83809 0.0
O178 O 0.30339 0.20569 0.81165 0.0
C179 C 0.18285 0.30363 0.75408 0.0
O180 O 0.16002 0.38608 0.76745 0.0
O181 O -0.00777 0.34294 0.80639 0.0
C182 C 0.92859 0.54154 0.06253 0.0
O183 O 0.93682 0.63751 0.06554 0.0
O184 O 0.72699 0.6637 0.0158 0.0
Zn185 Zn 0.72365 0.59221 0.05617 0.0
O186 O 0.72552 0.68883 0.08955 0.0
C187 C 0.51708 0.53873 0.06992 0.0
O188 O 0.50911 0.62942 0.07956 0.0
O189 O 0.844 0.50412 0.05852 0.0
C190 C 0.70022 0.66085 0.11581 0.0
O191 O 0.67372 0.56868 0.12108 0.0
C192 C 0.64655 0.68193 0.00261 0.0
O193 O 0.5621 0.65901 0.01587 0.0
O194 O 0.59982 0.50776 0.05968 0.0
C195 C 0.46753 0.42624 0.31223 0.0
O196 O 0.37524 0.43355 0.30393 0.0
O197 O 0.38135 0.22075 0.26897 0.0
Zn198 Zn 0.41973 0.22138 0.3122 0.0
O199 O 0.30289 0.22348 0.3411 0.0
C200 C 0.46242 0.01352 0.31412 0.0
O201 O 0.37295 0.00914 0.30348 0.0
O202 O 0.50427 0.34141 0.31778 0.0
C203 C 0.31381 0.18242 0.36657 0.0
O204 O 0.39877 0.14097 0.37306 0.0
C205 C 0.29923 0.19406 0.25861 0.0
O206 O 0.22663 0.16681 0.27686 0.0
O207 O 0.49953 0.09712 0.31977 0.0
loop_
_geom_bond_atom_site_label_1
_geom_bond_atom_site_label_2
_geom_bond_distance
_geom_bond_site_symmetry_2
_ccdc_geom_bond_type
C0 O1 1.160 . S
C0 O7 1.185 1_545 S
O1 C0 1.160 . S
O2 Zn3 1.899 . S
O2 C10 1.284 . S
Zn3 O2 1.899 . S
Zn3 O4 2.032 . S
Zn3 O7 2.086 1_545 S
Zn3 O12 1.977 . S
O4 Zn3 2.032 . S
O4 C8 1.278 . S
C5 O6 1.203 . S
C5 O12 1.267 . S
O6 C5 1.203 . S
O7 C0 1.185 1_565 S
O7 Zn3 2.086 1_565 S
C8 O4 1.278 . S
C8 O9 1.211 . S
O9 C8 1.211 . S
C10 O2 1.284 . S
C10 O11 1.273 . S
O11 C10 1.273 . S
O12 Zn3 1.977 . S
O12 C5 1.267 . S
C13 O14 1.160 . S
C13 O20 1.185 1_655 S
O14 C13 1.160 . S
O15 Zn16 1.899 . S
O15 C23 1.284 . S
Zn16 O15 1.899 . S
Zn16 O17 2.032 . S
Zn16 O20 2.086 1_655 S
Zn16 O25 1.977 . S
O17 Zn16 2.032 . S
O17 C21 1.278 . S
C18 O19 1.203 . S
C18 O25 1.267 . S
O19 C18 1.203 . S
O20 C13 1.185 1_455 S
O20 Zn16 2.086 1_455 S
C21 O17 1.278 . S
C21 O22 1.211 . S
O22 C21 1.211 . S
C23 O15 1.284 . S
C23 O24 1.273 . S
O24 C23 1.273 . S
O25 Zn16 1.977 . S
O25 C18 1.267 . S
C26 O27 1.160 . S
C26 O33 1.185 . S
O27 C26 1.160 . S
O28 Zn29 1.899 . S
O28 C36 1.284 . S
Zn29 O28 1.899 . S
Zn29 O30 2.032 . S
Zn29 O33 2.086 . S
Zn29 O38 1.977 . S
O30 Zn29 2.032 . S
O30 C34 1.278 . S
C31 O32 1.203 . S
C31 O38 1.267 . S
O32 C31 1.203 . S
O33 C26 1.185 . S
O33 Zn29 2.086 . S
C34 O30 1.278 . S
C34 O35 1.211 . S
O35 C34 1.211 . S
C36 O28 1.284 . S
C36 O37 1.273 . S
O37 C36 1.273 . S
O38 Zn29 1.977 . S
O38 C31 1.267 . S
C39 O40 1.160 . S
C39 O46 1.185 . S
O40 C39 1.160 . S
O41 Zn42 1.899 . S
O41 C49 1.284 . S
Zn42 O41 1.899 . S
Zn42 O43 2.032 . S
Zn42 O46 2.086 . S
Zn42 O51 1.977 . S
O43 Zn42 2.032 . S
O43 C47 1.278 . S
C44 O45 1.203 . S
C44 O51 1.267 . S
O45 C44 1.203 . S
O46 C39 1.185 . S
O46 Zn42 2.086 . S
C47 O43 1.278 . S
C47 O48 1.211 . S
O48 C47 1.211 . S
C49 O41 1.284 . S
C49 O50 1.273 . S
O50 C49 1.273 . S
O51 Zn42 1.977 . S
O51 C44 1.267 . S
C52 O53 1.160 . S
C52 O59 1.185 . S
O53 C52 1.160 . S
O54 Zn55 1.899 . S
O54 C62 1.284 . S
Zn55 O54 1.899 . S
Zn55 O56 2.032 . S
Zn55 O59 2.086 . S
Zn55 O64 1.977 . S
O56 Zn55 2.032 . S
O56 C60 1.278 . S
C57 O58 1.203 . S
C57 O64 1.267 . S
O58 C57 1.203 . S
O59 C52 1.185 . S
O59 Zn55 2.086 . S
C60 O56 1.278 . S
C60 O61 1.211 . S
O61 C60 1.211 . S
C62 O54 1.284 . S
C62 O63 1.273 . S
O63 C62 1.273 . S
O64 Zn55 1.977 . S
O64 C57 1.267 . S
C65 O66 1.160 . S
C65 O72 1.185 . S
O66 C65 1.160 . S
O67 Zn68 1.899 . S
O67 C75 1.284 . S
Zn68 O67 1.899 . S
Zn68 O69 2.032 . S
Zn68 O72 2.086 . S
Zn68 O77 1.977 . S
O69 Zn68 2.032 . S
O69 C73 1.278 . S
C70 O71 1.203 . S
C70 O77 1.267 . S
O71 C70 1.203 . S
O72 C65 1.185 . S
O72 Zn68 2.086 . S
C73 O69 1.278 . S
C73 O74 1.211 . S
O74 C73 1.211 . S
C75 O67 1.284 . S
C75 O76 1.273 . S
O76 C75 1.273 . S
O77 Zn68 1.977 . S
O77 C70 1.267 . S
C78 O79 1.160 . S
C78 O85 1.185 1_545 S
O79 C78 1.160 . S
O80 Zn81 1.899 . S
O80 C88 1.284 . S
Zn81 O80 1.899 . S
Zn81 O82 2.032 . S
Zn81 O85 2.086 1_545 S
Zn81 O90 1.977 . S
O82 Zn81 2.032 . S
O82 C86 1.278 . S
C83 O84 1.203 . S
C83 O90 1.267 . S
O84 C83 1.203 . S
O85 C78 1.185 1_565 S
O85 Zn81 2.086 1_565 S
C86 O82 1.278 . S
C86 O87 1.211 . S
O87 C86 1.211 . S
C88 O80 1.284 . S
C88 O89 1.273 . S
O89 C88 1.273 . S
O90 Zn81 1.977 . S
O90 C83 1.267 . S
C91 O92 1.160 . S
C91 O98 1.185 1_655 S
O92 C91 1.160 . S
O93 Zn94 1.899 . S
O93 C101 1.284 . S
Zn94 O93 1.899 . S
Zn94 O95 2.032 . S
Zn94 O98 2.086 1_655 S
Zn94 O103 1.977 . S
O95 Zn94 2.032 . S
O95 C99 1.278 . S
C96 O97 1.203 . S
C96 O103 1.267 . S
O97 C96 1.203 . S
O98 C91 1.185 1_455 S
O98 Zn94 2.086 1_455 S
C99 O95 1.278 . S
C99 O100 1.211 . S
O100 C99 1.211 . S
C101 O93 1.284 . S
C101 O102 1.273 . S
O102 C101 1.273 . S
O103 Zn94 1.977 . S
O103 C96 1.267 . S
C104 O105 1.160 . S
C104 O111 1.185 . S
O105 C104 1.160 . S
O106 Zn107 1.899 . S
O106 C114 1.284 . S
Zn107 O106 1.899 . S
Zn107 O108 2.032 . S
Zn107 O111 2.086 . S
Zn107 O116 1.977 . S
O108 Zn107 2.032 . S
O108 C112 1.278 . S
C109 O110 1.203 . S
C109 O116 1.267 . S
O110 C109 1.203 . S
O111 C104 1.185 . S
O111 Zn107 2.086 . S
C112 O108 1.278 . S
C112 O113 1.211 . S
O113 C112 1.211 . S
C114 O106 1.284 . S
C114 O115 1.273 . S
O115 C114 1.273 . S
O116 Zn107 1.977 . S
O116 C109 1.267 . S
C117 O118 1.160 . S
C117 O124 1.185 . S
O118 C117 1.160 . S
O119 Zn120 1.899 . S
O119 C127 1.284 . S
Zn120 O119 1.899 . S
Zn120 O121 2.032 . S
Zn120 O124 2.086 . S
Zn120 O129 1.977 . S
O121 Zn120 2.032 . S
O121 C125 1.278 . S
C122 O123 1.203 . S
C122 O129 1.267 . S
O123 C122 1.203 . S
O124 C117 1.185 . S
O124 Zn120 2.086 . S
C125 O121 1.278 . S
C125 O126 1.211 . S
O126 C125 1.211 . S
C127 O119 1.284 . S
C127 O128 1.273 . S
O128 C127 1.273 . S
O129 Zn120 1.977 . S
O129 C122 1.267 . S
C130 O131 1.160 . S
C130 O137 1.185 1_565 S
O131 C130 1.160 . S
O132 Zn133 1.899 . S
O132 C140 1.284 . S
Zn133 O132 1.899 . S
Zn133 O134 2.032 . S
Zn133 O137 2.086 1_565 S
Zn133 O142 1.977 . S
O134 Zn133 2.032 . S
O134 C138 1.278 . S
C135 O136 1.203 . S
C135 O142 1.267 . S
O136 C135 1.203 . S
O137 C130 1.185 1_545 S
O137 Zn133 2.086 1_545 S
C138 O134 1.278 . S
C138 O139 1.211 . S
O139 C138 1.211 . S
C140 O132 1.284 . S
C140 O141 1.273 . S
O141 C140 1.273 . S
O142 Zn133 1.977 . S
O142 C135 1.267 . S
C143 O144 1.160 . S
C143 O150 1.185 1_455 S
O144 C143 1.160 . S
O145 Zn146 1.899 . S
O145 C153 1.284 . S
Zn146 O145 1.899 . S
Zn146 O147 2.032 . S
Zn146 O150 2.086 1_455 S
Zn146 O155 1.977 . S
O147 Zn146 2.032 . S
O147 C151 1.278 . S
C148 O149 1.203 . S
C148 O155 1.267 . S
O149 C148 1.203 . S
O150 C143 1.185 1_655 S
O150 Zn146 2.086 1_655 S
C151 O147 1.278 . S
C151 O152 1.211 . S
O152 C151 1.211 . S
C153 O145 1.284 . S
C153 O154 1.273 . S
O154 C153 1.273 . S
O155 Zn146 1.977 . S
O155 C148 1.267 . S
C156 O157 1.160 . S
C156 O163 1.185 1_565 S
O157 C156 1.160 . S
O158 Zn159 1.899 . S
O158 C166 1.284 . S
Zn159 O158 1.899 . S
Zn159 O160 2.032 . S
Zn159 O163 2.086 1_565 S
Zn159 O168 1.977 . S
O160 Zn159 2.032 . S
O160 C164 1.278 . S
C161 O162 1.203 . S
C161 O168 1.267 . S
O162 C161 1.203 . S
O163 C156 1.185 1_545 S
O163 Zn159 2.086 1_545 S
C164 O160 1.278 . S
C164 O165 1.211 . S
O165 C164 1.211 . S
C166 O158 1.284 . S
C166 O167 1.273 . S
O167 C166 1.273 . S
O168 Zn159 1.977 . S
O168 C161 1.267 . S
C169 O170 1.160 . S
C169 O176 1.185 1_455 S
O170 C169 1.160 . S
O171 Zn172 1.899 . S
O171 C179 1.284 . S
Zn172 O171 1.899 . S
Zn172 O173 2.032 . S
Zn172 O176 2.086 1_455 S
Zn172 O181 1.977 . S
O173 Zn172 2.032 . S
O173 C177 1.278 . S
C174 O175 1.203 . S
C174 O181 1.267 . S
O175 C174 1.203 . S
O176 C169 1.185 1_655 S
O176 Zn172 2.086 1_655 S
C177 O173 1.278 . S
C177 O178 1.211 . S
O178 C177 1.211 . S
C179 O171 1.284 . S
C179 O180 1.273 . S
O180 C179 1.273 . S
O181 Zn172 1.977 . S
O181 C174 1.267 . S
C182 O183 1.160 . S
C182 O189 1.185 . S
O183 C182 1.160 . S
O184 Zn185 1.899 . S
O184 C192 1.284 . S
Zn185 O184 1.899 . S
Zn185 O186 2.032 . S
Zn185 O189 2.086 . S
Zn185 O194 1.977 . S
O186 Zn185 2.032 . S
O186 C190 1.278 . S
C187 O188 1.203 . S
C187 O194 1.267 . S
O188 C187 1.203 . S
O189 C182 1.185 . S
O189 Zn185 2.086 . S
C190 O186 1.278 . S
C190 O191 1.211 . S
O191 C190 1.211 . S
C192 O184 1.284 . S
C192 O193 1.273 . S
O193 C192 1.273 . S
O194 Zn185 1.977 . S
O194 C187 1.267 . S
C195 O196 1.160 . S
C195 O202 1.185 . S
O196 C195 1.160 . S
O197 Zn198 1.899 . S
O197 C205 1.284 . S
Zn198 O197 1.899 . S
Zn198 O199 2.032 . S
Zn198 O202 2.086 . S
Zn198 O207 1.977 . S
O199 Zn198 2.032 . S
O199 C203 1.278 . S
C200 O201 1.203 . S
C200 O207 1.267 . S
O201 C200 1.203 . S
O202 C195 1.185 . S
O202 Zn198 2.086 . S
C203 O199 1.278 . S
C203 O204 1.211 . S
O204 C203 1.211 . S
C205 O197 1.284 . S
C205 O206 1.273 . S
O206 C205 1.273 . S
O207 Zn198 1.977 . S
O207 C200 1.267 . S
C60 C8 1.129 . S
C21 C73 1.129 . S
C86 C34 1.129 . S
C99 C47 1.129 . S
C164 C112 1.129 . S
C125 C177 1.129 . S
C190 C138 1.129 . S
C151 C203 1.129 . S
C10 C205 1.580 . S
C23 C166 1.580 . S
C36 C179 1.580 . S
C192 C49 1.580 1_554 S
C62 C127 1.580 1_554 S
C75 C140 1.580 . S
C153 C88 1.580 . S
C114 C101 1.580 . S
C0 C130 1.376 1_445 S
C143 C13 1.377 1_455 S
C26 C104 1.376 . S
C117 C39 1.377 1_545 S
C52 C182 1.377 1_455 S
C65 C195 1.376 . S
C156 C78 1.377 1_565 S
C169 C91 1.376 1_445 S
C135 C5 1.330 1_565 S
C18 C148 1.330 1_665 S
C31 C109 1.330 1_455 S
C122 C44 1.330 . S
C187 C57 1.330 . S
C200 C70 1.330 1_545 S
C161 C83 1.330 1_665 S
C96 C174 1.330 1_655 S
