# Generated by pormake.
# Topology qtz-e, (6)-cn, num edge types: 1
# Building blocks:
#     Node 0, Type 0, BuildingBlock: UKALOJ_clean_sbu_0, # of connection points: 6
#     Node 1, Type 0, BuildingBlock: UKALOJ_clean_sbu_0, # of connection points: 6
#     Node 2, Type 0, BuildingBlock: UKALOJ_clean_sbu_0, # of connection points: 6
#     Node 3, Type 0, BuildingBlock: UKALOJ_clean_sbu_0, # of connection points: 6
#     Node 4, Type 0, BuildingBlock: UKALOJ_clean_sbu_0, # of connection points: 6
#     Node 5, Type 0, BuildingBlock: UKALOJ_clean_sbu_0, # of connection points: 6
#     Edge 6, Type (0, 0), None
#     Edge 7, Type (0, 0), None
#     Edge 8, Type (0, 0), None
#     Edge 9, Type (0, 0), None
#     Edge 10, Type (0, 0), None
#     Edge 11, Type (0, 0), None
#     Edge 12, Type (0, 0), None
#     Edge 13, Type (0, 0), None
#     Edge 14, Type (0, 0), None
#     Edge 15, Type (0, 0), None
#     Edge 16, Type (0, 0), None
#     Edge 17, Type (0, 0), None
#     Edge 18, Type (0, 0), None
#     Edge 19, Type (0, 0), None
#     Edge 20, Type (0, 0), None
#     Edge 21, Type (0, 0), None
#     Edge 22, Type (0, 0), None
#     Edge 23, Type (0, 0), None
# Relax obj value: 0.558
# Max RMSD: 0.280
# Mean RMSD: 0.280
data_MOF--net-qtz-e--node1-UKALOJ_clean_sbu_0--edge1-none
_symmetry_space_group_name_H-M    P1
_symmetry_Int_Tables_number       1
_symmetry_cell_setting            triclinic
loop_
_symmetry_equiv_pos_as_xyz
'x, y, z'
_cell_length_a     13.363122
_cell_length_b     13.364007
_cell_length_c     21.411984
_cell_angle_alpha  90.002333
_cell_angle_beta   89.990335
_cell_angle_gamma 119.99745
loop_
_atom_site_label
_atom_site_type_symbol
_atom_site_fract_x
_atom_site_fract_y
_atom_site_fract_z
_atom_type_partial_charge
Zn0 Zn 0.22541 0.49182 0.01299 0.0
O1 O 0.07005 0.47563 0.0156 0.0
C2 C 0.08493 0.2535 0.07198 0.0
Zn3 Zn 0.16517 0.3593 0.94468 0.0
C4 C 0.01749 0.46214 0.96465 0.0
O5 O 0.02317 0.39621 0.92249 0.0
C6 C 0.41632 0.46731 -0.01501 0.0
O7 O 0.25545 0.48535 0.88656 0.0
O8 O 0.26553 0.6215 0.94933 0.0
N9 N 0.14197 0.23242 0.87129 0.0
C10 C 0.16457 0.23733 0.8084 0.0
C11 C 0.17055 0.09191 0.8432 0.0
N12 N 0.14439 0.14 0.89149 0.0
N13 N 0.18246 0.1491 0.78925 0.0
C14 C 0.23769 0.57302 0.14109 0.0
C15 C 0.4037 0.72293 0.14505 0.0
N16 N 0.27804 0.598 0.08281 0.0
N17 N 0.38248 0.69035 0.08497 0.0
N18 N 0.31561 0.64799 0.18133 0.0
H19 H 0.07492 0.51041 0.19039 0.0
H20 H 0.12996 0.41496 0.19005 0.0
H21 H 0.06164 0.43294 0.12136 0.0
C22 C 0.11949 0.4774 0.16069 0.0
C23 C 0.18775 0.3386 0.76837 0.0
H24 H 0.13751 0.37874 0.78541 0.0
H25 H 0.16492 0.31148 0.71902 0.0
H26 H 0.281 0.40388 0.77037 0.0
O27 O 0.33425 0.36708 0.96773 0.0
O28 O 0.3905 0.53597 0.00824 0.0
C29 C 0.27783 0.58815 0.89606 0.0
O30 O 0.17699 0.34994 0.08097 0.0
O31 O 0.05216 0.22578 0.01544 0.0
Zn32 Zn 0.79117 0.17252 0.27804 0.0
O33 O 0.75546 0.26286 0.21993 0.0
C34 C 0.93438 0.42364 0.31832 0.0
Zn35 Zn 0.71892 0.23281 0.34636 0.0
C36 C 0.6751 0.28534 0.22945 0.0
O37 O 0.62942 0.27302 0.28271 0.0
C38 C 0.81668 0.09222 0.40533 0.0
O39 O 0.57968 0.07749 0.34893 0.0
O40 O 0.61228 0.03058 0.25584 0.0
N41 N 0.66541 0.28548 0.41619 0.0
C42 C 0.64996 0.24509 0.47446 0.0
C43 C 0.6661 0.41111 0.47845 0.0
N44 N 0.67752 0.38992 0.41837 0.0
N45 N 0.65287 0.32298 0.51472 0.0
C46 C 0.91254 0.17196 0.14175 0.0
C47 C 0.06401 0.17798 0.17659 0.0
N48 N 0.8948 0.14924 0.20463 0.0
N49 N -0.01035 0.15165 0.22484 0.0
N50 N 0.01881 0.19016 0.12269 0.0
H51 H 0.7441 0.14503 0.11881 0.0
H52 H 0.83866 0.17216 0.05239 0.0
H53 H 0.86255 0.28842 0.10365 0.0
C54 C 0.83446 0.19514 0.10173 0.0
C55 C 0.62738 0.12688 0.49404 0.0
H56 H 0.54984 0.08235 0.52377 0.0
H57 H 0.70033 0.13733 0.52336 0.0
H58 H 0.61393 0.06903 0.4547 0.0
O59 O 0.81231 0.18429 0.41432 0.0
O60 O 0.81164 0.05946 0.34878 0.0
C61 C 0.54064 0.02492 0.29798 0.0
O62 O 0.95251 0.34155 0.30105 0.0
O63 O 0.83994 0.39787 0.34162 0.0
Zn64 Zn 0.47125 0.72632 0.67968 0.0
O65 O 0.48718 0.587 0.68222 0.0
C66 C 0.70959 0.82396 0.73868 0.0
Zn67 Zn 0.60386 0.79851 0.61137 0.0
C68 C 0.50081 0.54796 0.63129 0.0
O69 O 0.56688 0.61959 0.58918 0.0
C70 C 0.49597 0.94178 0.65164 0.0
O71 O 0.47783 0.76281 0.55326 0.0
O72 O 0.34154 0.63691 0.61604 0.0
N73 N 0.73078 0.9021 0.53796 0.0
C74 C 0.72581 0.91984 0.47509 0.0
C75 C 0.87127 0.07127 0.50993 0.0
N76 N 0.82324 -0.00308 0.55817 0.0
N77 N 0.81389 0.02609 0.45602 0.0
C78 C 0.38993 0.65698 0.80772 0.0
C79 C 0.2403 0.67372 0.8119 0.0
N80 N 0.3651 0.67288 0.74952 0.0
N81 N 0.27296 0.68536 0.75181 0.0
N82 N 0.31499 0.65989 0.84799 0.0
H83 H 0.45246 0.55655 0.85678 0.0
H84 H 0.54789 0.70705 0.85673 0.0
H85 H 0.53016 0.62122 0.78788 0.0
C86 C 0.48553 0.63431 0.82724 0.0
C87 C 0.62454 0.84179 0.43506 0.0
H88 H 0.58427 0.75144 0.45213 0.0
H89 H 0.65172 0.84598 0.38572 0.0
H90 H 0.55937 0.86992 0.43698 0.0
O91 O 0.59618 0.95988 0.63436 0.0
O92 O 0.42731 0.84738 0.67497 0.0
C93 C 0.37496 0.68252 0.56278 0.0
O94 O 0.61315 0.8196 0.74767 0.0
O95 O 0.73735 0.81896 0.68213 0.0
Zn96 Zn 0.73012 0.4786 0.01304 0.0
O97 O 0.88534 0.49449 0.01555 0.0
C98 C 0.87085 0.7169 0.07203 0.0
Zn99 Zn 0.79056 0.61116 0.9447 0.0
C100 C 0.93807 0.50813 0.96464 0.0
O101 O 0.93252 0.57416 0.92251 0.0
C102 C 0.53939 0.50334 -0.01496 0.0
O103 O 0.70025 0.48515 0.88658 0.0
O104 O 0.68979 0.34888 0.9494 0.0
N105 N 0.81385 0.73807 0.87131 0.0
C106 C 0.79115 0.73311 0.80843 0.0
C107 C 0.78504 0.8785 0.8433 0.0
N108 N 0.81139 0.83048 0.89154 0.0
N109 N 0.77292 0.82116 0.78938 0.0
C110 C 0.71837 0.39732 0.14106 0.0
C111 C 0.55187 0.24788 0.14535 0.0
N112 N 0.67748 0.37248 0.08289 0.0
N113 N 0.5728 0.28047 0.08525 0.0
N114 N 0.64053 0.32251 0.18138 0.0
H115 H 0.88159 0.45954 0.18977 0.0
H116 H 0.82653 0.55502 0.19024 0.0
H117 H 0.89427 0.53767 0.12113 0.0
C118 C 0.83674 0.49282 0.16051 0.0
C119 C 0.768 0.63187 0.76839 0.0
H120 H 0.81816 0.59167 0.78544 0.0
H121 H 0.79094 0.65905 0.71905 0.0
H122 H 0.67472 0.56665 0.77033 0.0
O123 O 0.6215 0.6035 0.96771 0.0
O124 O 0.56513 0.43469 0.00837 0.0
C125 C 0.67767 0.38229 0.89611 0.0
O126 O 0.77878 0.62048 0.08104 0.0
O127 O 0.90359 0.74463 0.01548 0.0
Zn128 Zn 0.23684 0.73744 0.34634 0.0
O129 O 0.37616 0.89266 0.34882 0.0
C130 C 0.13921 0.87815 0.40533 0.0
Zn131 Zn 0.16478 0.79793 0.27797 0.0
C132 C 0.41525 0.94547 0.29794 0.0
O133 O 0.34367 0.93997 0.25582 0.0
C134 C 0.02144 0.5467 0.31832 0.0
O135 O 0.20068 0.70779 0.21978 0.0
O136 O 0.32622 0.69707 0.2827 0.0
N137 N 0.06111 0.8212 0.20461 0.0
C138 C 0.04332 0.79849 0.14173 0.0
C139 C 0.89183 0.79233 0.17667 0.0
N140 N 0.96624 0.81871 0.22488 0.0
N141 N 0.93701 0.78023 0.12273 0.0
C142 C 0.30634 0.72577 0.47435 0.0
C143 C 0.28926 0.55927 0.47868 0.0
N144 N 0.29035 0.68486 0.41619 0.0
N145 N 0.27767 0.58018 0.41857 0.0
N146 N 0.30326 0.64795 0.51469 0.0
H147 H 0.40746 0.88904 0.52299 0.0
H148 H 0.25692 0.83404 0.52355 0.0
H149 H 0.34188 0.90165 0.45439 0.0
C150 C 0.32927 0.84418 0.49378 0.0
C151 C 0.12139 0.77533 0.10166 0.0
H152 H 0.21179 0.82562 0.11865 0.0
H153 H 0.11701 0.79812 0.05232 0.0
H154 H 0.09347 0.68209 0.10368 0.0
O155 O 0.00341 0.6288 0.30094 0.0
O156 O 0.11579 0.57245 0.3417 0.0
C157 C 0.28094 0.68518 0.22937 0.0
O158 O 0.14359 0.7861 0.41434 0.0
O159 O 0.1442 0.91086 0.34877 0.0
Zn160 Zn 0.35201 0.17209 0.61128 0.0
O161 O 0.4781 0.20806 0.55311 0.0
C162 C 0.45994 0.02882 0.65164 0.0
Zn163 Zn 0.48452 0.24421 0.67971 0.0
C164 C 0.58096 0.2883 0.56273 0.0
O165 O 0.61429 0.33353 0.61607 0.0
C166 C 0.2461 0.14657 0.73862 0.0
O167 O 0.46863 0.38355 0.68218 0.0
O168 O 0.38882 0.35097 0.58917 0.0
N169 N 0.59062 0.29771 0.74955 0.0
C170 C 0.5657 0.31357 0.80774 0.0
C171 C 0.71527 0.29673 0.81197 0.0
N172 N 0.68272 0.28518 0.75187 0.0
N173 N 0.64053 0.31056 0.84804 0.0
C174 C 0.23006 0.05063 0.47503 0.0
C175 C 0.08472 0.89915 0.50995 0.0
N176 N 0.22512 0.06843 0.5379 0.0
N177 N 0.13274 0.97357 0.55816 0.0
N178 N 0.14202 0.94432 0.45601 0.0
H179 H 0.37137 0.21908 0.45193 0.0
H180 H 0.30418 0.12425 0.38561 0.0
H181 H 0.39666 0.10079 0.43701 0.0
C182 C 0.33131 0.12868 0.43496 0.0
C183 C 0.47015 0.33637 0.82723 0.0
H184 H 0.50329 0.41418 0.85673 0.0
H185 H 0.40773 0.2637 0.85674 0.0
H186 H 0.42558 0.34946 0.78785 0.0
O187 O 0.34259 0.15108 0.7477 0.0
O188 O 0.2184 0.15137 0.68205 0.0
C189 C 0.4549 0.42258 0.63128 0.0
O190 O 0.35983 0.01077 0.63421 0.0
O191 O 0.52844 0.12313 0.67509 0.0
loop_
_geom_bond_atom_site_label_1
_geom_bond_atom_site_label_2
_geom_bond_distance
_geom_bond_site_symmetry_2
_ccdc_geom_bond_type
Zn0 O1 2.055 . S
Zn0 O8 2.046 1_554 S
Zn0 N16 2.036 . S
Zn0 O28 2.053 . S
Zn0 O30 2.066 . S
O1 Zn0 2.055 . S
O1 C4 1.259 1_454 S
C2 O30 1.256 . S
C2 O31 1.244 . S
Zn3 O5 2.046 . S
Zn3 O7 2.055 . S
Zn3 N9 2.036 . S
Zn3 O27 2.066 . S
Zn3 O31 2.053 1_556 S
C4 O1 1.259 1_656 S
C4 O5 1.254 1_655 S
O5 Zn3 2.046 . S
O5 C4 1.254 1_455 S
C6 O27 1.256 1_554 S
C6 O28 1.244 . S
O7 Zn3 2.055 . S
O7 C29 1.259 . S
O8 Zn0 2.046 1_556 S
O8 C29 1.254 . S
N9 Zn3 2.036 . S
N9 C10 1.298 . S
N9 N12 1.398 . S
C10 N9 1.298 . S
C10 N13 1.367 . S
C10 C23 1.481 . S
C11 N12 1.299 1_565 S
C11 N13 1.379 1_565 S
N12 N9 1.398 . S
N12 C11 1.299 1_545 S
N13 C10 1.367 . S
N13 C11 1.379 1_545 S
C14 N16 1.298 . S
C14 N18 1.367 . S
C14 C22 1.481 . S
C15 N17 1.299 . S
C15 N18 1.379 . S
N16 Zn0 2.036 . S
N16 C14 1.298 . S
N16 N17 1.398 . S
N17 C15 1.299 . S
N17 N16 1.398 . S
N18 C14 1.367 . S
N18 C15 1.379 . S
H19 C22 0.980 . S
H20 C22 0.981 . S
H21 C22 0.981 . S
C22 C14 1.481 . S
C22 H19 0.980 . S
C22 H20 0.981 . S
C22 H21 0.981 . S
C23 C10 1.481 . S
C23 H24 0.980 . S
C23 H25 0.981 . S
C23 H26 0.981 . S
H24 C23 0.980 . S
H25 C23 0.981 . S
H26 C23 0.981 . S
O27 Zn3 2.066 . S
O27 C6 1.256 1_556 S
O28 Zn0 2.053 . S
O28 C6 1.244 . S
C29 O7 1.259 . S
C29 O8 1.254 . S
O30 Zn0 2.066 . S
O30 C2 1.256 . S
O31 C2 1.244 . S
O31 Zn3 2.053 1_554 S
Zn32 O33 2.055 . S
Zn32 O40 2.046 . S
Zn32 N48 2.036 . S
Zn32 O60 2.053 . S
Zn32 O62 2.066 1_655 S
O33 Zn32 2.055 . S
O33 C36 1.259 . S
C34 O62 1.256 1_655 S
C34 O63 1.244 . S
Zn35 O37 2.046 . S
Zn35 O39 2.055 . S
Zn35 N41 2.036 . S
Zn35 O59 2.066 . S
Zn35 O63 2.053 . S
C36 O33 1.259 . S
C36 O37 1.254 . S
O37 Zn35 2.046 . S
O37 C36 1.254 . S
C38 O59 1.256 . S
C38 O60 1.244 . S
O39 Zn35 2.055 . S
O39 C61 1.259 1_545 S
O40 Zn32 2.046 . S
O40 C61 1.254 1_545 S
N41 Zn35 2.036 . S
N41 C42 1.298 . S
N41 N44 1.398 . S
C42 N41 1.298 . S
C42 N45 1.367 . S
C42 C55 1.481 . S
C43 N44 1.299 . S
C43 N45 1.379 . S
N44 N41 1.398 . S
N44 C43 1.299 . S
N45 C42 1.367 . S
N45 C43 1.379 . S
C46 N48 1.298 1_455 S
C46 N50 1.367 . S
C46 C54 1.481 . S
C47 N49 1.299 1_455 S
C47 N50 1.379 . S
N48 Zn32 2.036 . S
N48 C46 1.298 1_655 S
N48 N49 1.398 . S
N49 C47 1.299 1_655 S
N49 N48 1.398 . S
N50 C46 1.367 . S
N50 C47 1.379 . S
H51 C54 0.980 1_655 S
H52 C54 0.981 . S
H53 C54 0.981 . S
C54 C46 1.481 . S
C54 H51 0.980 1_455 S
C54 H52 0.981 . S
C54 H53 0.981 . S
C55 C42 1.481 . S
C55 H56 0.980 . S
C55 H57 0.981 . S
C55 H58 0.981 . S
H56 C55 0.980 . S
H57 C55 0.981 . S
H58 C55 0.981 . S
O59 Zn35 2.066 . S
O59 C38 1.256 . S
O60 Zn32 2.053 . S
O60 C38 1.244 . S
C61 O39 1.259 1_565 S
C61 O40 1.254 1_565 S
O62 Zn32 2.066 1_455 S
O62 C34 1.256 1_455 S
O63 C34 1.244 . S
O63 Zn35 2.053 . S
Zn64 O65 2.055 . S
Zn64 O72 2.046 . S
Zn64 N80 2.036 . S
Zn64 O92 2.053 . S
Zn64 O94 2.066 . S
O65 Zn64 2.055 . S
O65 C68 1.259 . S
C66 O94 1.256 . S
C66 O95 1.244 . S
Zn67 O69 2.046 . S
Zn67 O71 2.055 . S
Zn67 N73 2.036 . S
Zn67 O91 2.066 1_565 S
Zn67 O95 2.053 . S
C68 O65 1.259 . S
C68 O69 1.254 . S
O69 Zn67 2.046 . S
O69 C68 1.254 . S
C70 O91 1.256 1_565 S
C70 O92 1.244 . S
O71 Zn67 2.055 . S
O71 C93 1.259 . S
O72 Zn64 2.046 . S
O72 C93 1.254 . S
N73 Zn67 2.036 . S
N73 C74 1.298 1_565 S
N73 N76 1.398 . S
C74 N73 1.298 1_545 S
C74 N77 1.367 . S
C74 C87 1.481 . S
C75 N76 1.299 1_445 S
C75 N77 1.379 1_455 S
N76 N73 1.398 . S
N76 C75 1.299 1_665 S
N77 C74 1.367 . S
N77 C75 1.379 1_655 S
C78 N80 1.298 . S
C78 N82 1.367 . S
C78 C86 1.481 . S
C79 N81 1.299 . S
C79 N82 1.379 . S
N80 Zn64 2.036 . S
N80 C78 1.298 . S
N80 N81 1.398 . S
N81 C79 1.299 . S
N81 N80 1.398 . S
N82 C78 1.367 . S
N82 C79 1.379 . S
H83 C86 0.980 . S
H84 C86 0.981 . S
H85 C86 0.981 . S
C86 C78 1.481 . S
C86 H83 0.980 . S
C86 H84 0.981 . S
C86 H85 0.981 . S
C87 C74 1.481 . S
C87 H88 0.980 1_545 S
C87 H89 0.981 . S
C87 H90 0.981 . S
H88 C87 0.980 1_565 S
H89 C87 0.981 . S
H90 C87 0.981 . S
O91 Zn67 2.066 1_545 S
O91 C70 1.256 1_545 S
O92 Zn64 2.053 . S
O92 C70 1.244 . S
C93 O71 1.259 . S
C93 O72 1.254 . S
O94 Zn64 2.066 . S
O94 C66 1.256 . S
O95 C66 1.244 . S
O95 Zn67 2.053 . S
Zn96 O97 2.055 . S
Zn96 O104 2.046 1_554 S
Zn96 N112 2.036 . S
Zn96 O124 2.053 . S
Zn96 O126 2.066 . S
O97 Zn96 2.055 . S
O97 C100 1.259 1_654 S
C98 O126 1.256 . S
C98 O127 1.244 . S
Zn99 O101 2.046 . S
Zn99 O103 2.055 . S
Zn99 N105 2.036 . S
Zn99 O123 2.066 . S
Zn99 O127 2.053 1_556 S
C100 O97 1.259 1_456 S
C100 O101 1.254 1_455 S
O101 Zn99 2.046 . S
O101 C100 1.254 1_655 S
C102 O123 1.256 1_554 S
C102 O124 1.244 . S
O103 Zn99 2.055 . S
O103 C125 1.259 . S
O104 Zn96 2.046 1_556 S
O104 C125 1.254 . S
N105 Zn99 2.036 . S
N105 C106 1.298 . S
N105 N108 1.398 . S
C106 N105 1.298 . S
C106 N109 1.367 . S
C106 C119 1.481 . S
C107 N108 1.299 1_545 S
C107 N109 1.379 1_545 S
N108 N105 1.398 . S
N108 C107 1.299 1_565 S
N109 C106 1.367 . S
N109 C107 1.379 1_565 S
C110 N112 1.298 . S
C110 N114 1.367 . S
C110 C118 1.481 . S
C111 N113 1.299 . S
C111 N114 1.379 . S
N112 Zn96 2.036 . S
N112 C110 1.298 . S
N112 N113 1.398 . S
N113 C111 1.299 . S
N113 N112 1.398 . S
N114 C110 1.367 . S
N114 C111 1.379 . S
H115 C118 0.980 . S
H116 C118 0.981 . S
H117 C118 0.981 . S
C118 C110 1.481 . S
C118 H115 0.980 . S
C118 H116 0.981 . S
C118 H117 0.981 . S
C119 C106 1.481 . S
C119 H120 0.980 . S
C119 H121 0.981 . S
C119 H122 0.981 . S
H120 C119 0.980 . S
H121 C119 0.981 . S
H122 C119 0.981 . S
O123 Zn99 2.066 . S
O123 C102 1.256 1_556 S
O124 Zn96 2.053 . S
O124 C102 1.244 . S
C125 O103 1.259 . S
C125 O104 1.254 . S
O126 Zn96 2.066 . S
O126 C98 1.256 . S
O127 C98 1.244 . S
O127 Zn99 2.053 1_554 S
Zn128 O129 2.055 . S
Zn128 O136 2.046 . S
Zn128 N144 2.036 . S
Zn128 O156 2.053 . S
Zn128 O158 2.066 . S
O129 Zn128 2.055 . S
O129 C132 1.259 1_565 S
C130 O158 1.256 . S
C130 O159 1.244 . S
Zn131 O133 2.046 . S
Zn131 O135 2.055 . S
Zn131 N137 2.036 . S
Zn131 O155 2.066 1_455 S
Zn131 O159 2.053 . S
C132 O129 1.259 1_545 S
C132 O133 1.254 1_545 S
O133 Zn131 2.046 . S
O133 C132 1.254 1_565 S
C134 O155 1.256 1_455 S
C134 O156 1.244 . S
O135 Zn131 2.055 . S
O135 C157 1.259 . S
O136 Zn128 2.046 . S
O136 C157 1.254 . S
N137 Zn131 2.036 . S
N137 C138 1.298 1_455 S
N137 N140 1.398 . S
C138 N137 1.298 1_655 S
C138 N141 1.367 . S
C138 C151 1.481 . S
C139 N140 1.299 1_655 S
C139 N141 1.379 . S
N140 N137 1.398 . S
N140 C139 1.299 1_455 S
N141 C138 1.367 . S
N141 C139 1.379 . S
C142 N144 1.298 . S
C142 N146 1.367 . S
C142 C150 1.481 . S
C143 N145 1.299 . S
C143 N146 1.379 . S
N144 Zn128 2.036 . S
N144 C142 1.298 . S
N144 N145 1.398 . S
N145 C143 1.299 . S
N145 N144 1.398 . S
N146 C142 1.367 . S
N146 C143 1.379 . S
H147 C150 0.980 . S
H148 C150 0.981 . S
H149 C150 0.981 . S
C150 C142 1.481 . S
C150 H147 0.980 . S
C150 H148 0.981 . S
C150 H149 0.981 . S
C151 C138 1.481 . S
C151 H152 0.980 1_655 S
C151 H153 0.981 . S
C151 H154 0.981 . S
H152 C151 0.980 1_455 S
H153 C151 0.981 . S
H154 C151 0.981 . S
O155 Zn131 2.066 1_655 S
O155 C134 1.256 1_655 S
O156 Zn128 2.053 . S
O156 C134 1.244 . S
C157 O135 1.259 . S
C157 O136 1.254 . S
O158 Zn128 2.066 . S
O158 C130 1.256 . S
O159 C130 1.244 . S
O159 Zn131 2.053 . S
Zn160 O161 2.055 . S
Zn160 O168 2.046 . S
Zn160 N176 2.036 . S
Zn160 O188 2.053 . S
Zn160 O190 2.066 1_545 S
O161 Zn160 2.055 . S
O161 C164 1.259 . S
C162 O190 1.256 1_545 S
C162 O191 1.244 . S
Zn163 O165 2.046 . S
Zn163 O167 2.055 . S
Zn163 N169 2.036 . S
Zn163 O187 2.066 . S
Zn163 O191 2.053 . S
C164 O161 1.259 . S
C164 O165 1.254 . S
O165 Zn163 2.046 . S
O165 C164 1.254 . S
C166 O187 1.256 . S
C166 O188 1.244 . S
O167 Zn163 2.055 . S
O167 C189 1.259 . S
O168 Zn160 2.046 . S
O168 C189 1.254 . S
N169 Zn163 2.036 . S
N169 C170 1.298 . S
N169 N172 1.398 . S
C170 N169 1.298 . S
C170 N173 1.367 . S
C170 C183 1.481 . S
C171 N172 1.299 . S
C171 N173 1.379 . S
N172 N169 1.398 . S
N172 C171 1.299 . S
N173 C170 1.367 . S
N173 C171 1.379 . S
C174 N176 1.298 1_565 S
C174 N178 1.367 . S
C174 C182 1.481 . S
C175 N177 1.299 1_665 S
C175 N178 1.379 1_655 S
N176 Zn160 2.036 . S
N176 C174 1.298 1_545 S
N176 N177 1.398 . S
N177 C175 1.299 1_445 S
N177 N176 1.398 . S
N178 C174 1.367 . S
N178 C175 1.379 1_455 S
H179 C182 0.980 1_545 S
H180 C182 0.981 . S
H181 C182 0.981 . S
C182 C174 1.481 . S
C182 H179 0.980 1_565 S
C182 H180 0.981 . S
C182 H181 0.981 . S
C183 C170 1.481 . S
C183 H184 0.980 . S
C183 H185 0.981 . S
C183 H186 0.981 . S
H184 C183 0.980 . S
H185 C183 0.981 . S
H186 C183 0.981 . S
O187 Zn163 2.066 . S
O187 C166 1.256 . S
O188 Zn160 2.053 . S
O188 C166 1.244 . S
C189 O167 1.259 . S
C189 O168 1.254 . S
O190 Zn160 2.066 1_565 S
O190 C162 1.256 1_565 S
O191 C162 1.244 . S
O191 Zn163 2.053 . S
C157 N18 1.059 . S
C164 N45 1.059 . S
C29 N82 1.059 . S
C36 N114 1.059 . S
C93 N146 1.059 . S
C125 N173 1.059 . S
C6 C102 2.934 . S
C134 C34 2.934 1_455 S
C162 C70 2.934 1_545 S
C68 C189 2.778 . S
C4 C100 2.778 1_655 S
C132 C61 2.778 1_545 S
C166 N13 2.308 . S
N50 C2 2.308 . S
N77 C38 2.308 . S
C66 N109 2.308 . S
N141 C98 2.308 . S
N178 C130 2.308 . S
