# Generated by pormake.
# Topology bcu, (8)-cn, num edge types: 1
# Building blocks:
#     Node 0, Type 0, BuildingBlock: TAGTUT_clean_sbu_1, # of connection points: 8
#     Node 1, Type 0, BuildingBlock: TAGTUT_clean_sbu_1, # of connection points: 8
#     Edge 2, Type (0, 0), BuildingBlock: CIFDUS_clean_linker_0, # of connection points: 2
#     Edge 3, Type (0, 0), BuildingBlock: CIFDUS_clean_linker_0, # of connection points: 2
#     Edge 4, Type (0, 0), BuildingBlock: CIFDUS_clean_linker_0, # of connection points: 2
#     Edge 5, Type (0, 0), BuildingBlock: CIFDUS_clean_linker_0, # of connection points: 2
#     Edge 6, Type (0, 0), BuildingBlock: CIFDUS_clean_linker_0, # of connection points: 2
#     Edge 7, Type (0, 0), BuildingBlock: CIFDUS_clean_linker_0, # of connection points: 2
#     Edge 8, Type (0, 0), BuildingBlock: CIFDUS_clean_linker_0, # of connection points: 2
#     Edge 9, Type (0, 0), BuildingBlock: CIFDUS_clean_linker_0, # of connection points: 2
# Relax obj value: 0.015
# Max RMSD: 0.074
# Mean RMSD: 0.074
data_MOF--net-bcu--node1-TAGTUT_clean_sbu_1--edge1-CIFDUS_clean_linker_0
_symmetry_space_group_name_H-M    P1
_symmetry_Int_Tables_number       1
_symmetry_cell_setting            triclinic
loop_
_symmetry_equiv_pos_as_xyz
'x, y, z'
_cell_length_a     17.918776
_cell_length_b     16.81202
_cell_length_c     19.84536
_cell_angle_alpha  91.385589
_cell_angle_beta   91.792945
_cell_angle_gamma 109.04977
loop_
_atom_site_label
_atom_site_type_symbol
_atom_site_fract_x
_atom_site_fract_y
_atom_site_fract_z
_atom_type_partial_charge
C0 C 0.82133 0.15264 0.04314 0.0
C1 C 0.88564 0.1507 0.83748 0.0
C2 C 0.87834 0.82999 0.88086 0.0
Mg3 Mg 0.97822 0.17341 -0.02789 0.0
O4 O 0.94023 0.0586 -0.01059 0.0
Mg5 Mg 0.83517 -0.00892 0.94711 0.0
Mg6 Mg 0.00553 -0.01085 -0.03611 0.0
O7 O 0.07017 0.91914 0.9382 0.0
Mg8 Mg 0.03243 0.80305 0.9523 0.0
Mg9 Mg 0.17554 -0.01275 -0.02156 0.0
C10 C 0.1349 0.15133 0.04012 0.0
C11 C 0.13687 0.09666 0.85956 0.0
O12 O 0.78851 0.0801 0.0131 0.0
O13 O 0.8928 0.1982 0.03385 0.0
O14 O 0.84388 0.07977 0.85917 0.0
O15 O 0.9484 0.19632 0.86972 0.0
O16 O 0.09688 0.19874 0.01724 0.0
O17 O 0.10897 0.07054 0.03191 0.0
C18 C 0.87255 0.88003 0.0667 0.0
O19 O 0.94567 0.90169 0.05159 0.0
O20 O 0.82363 0.90616 0.03366 0.0
O21 O 0.22154 0.89703 0.91088 0.0
O22 O 0.11681 0.77985 0.88916 0.0
O23 O 0.16622 0.9017 0.06733 0.0
C24 C 0.18824 0.82507 0.87984 0.0
O25 O 0.06788 0.7794 0.05446 0.0
O26 O 0.91529 0.78033 0.90173 0.0
C27 C 0.12707 0.82971 0.08858 0.0
O28 O 0.90348 0.90948 0.8953 0.0
O29 O 0.06432 0.07603 0.87594 0.0
O30 O 0.18611 0.07032 0.89176 0.0
C31 C 0.31843 0.64709 0.54363 0.0
C32 C 0.3796 0.64224 0.33491 0.0
C33 C 0.37153 0.32089 0.38351 0.0
Mg34 Mg 0.47424 0.66903 0.47119 0.0
O35 O 0.43653 0.553 0.48544 0.0
Mg36 Mg 0.33113 0.48483 0.44515 0.0
Mg37 Mg 0.50121 0.48302 0.45972 0.0
O38 O 0.5663 0.41341 0.4341 0.0
Mg39 Mg 0.52815 0.29852 0.45122 0.0
Mg40 Mg 0.6714 0.48073 0.47632 0.0
C41 C 0.62844 0.64208 0.54259 0.0
C42 C 0.63416 0.59208 0.35689 0.0
O43 O 0.28511 0.57511 0.51263 0.0
O44 O 0.38987 0.69229 0.5343 0.0
O45 O 0.34043 0.57028 0.3562 0.0
O46 O 0.43881 0.69256 0.36899 0.0
O47 O 0.5914 0.69162 0.52166 0.0
O48 O 0.60339 0.56251 0.5284 0.0
C49 C 0.36984 0.3755 0.56406 0.0
O50 O 0.4424 0.39611 0.54766 0.0
O51 O 0.3206 0.40184 0.53187 0.0
O52 O 0.71781 0.39165 0.41015 0.0
O53 O 0.61342 0.27369 0.38932 0.0
O54 O 0.66264 0.39189 0.56414 0.0
C55 C 0.68491 0.31918 0.38003 0.0
O56 O 0.55807 0.27537 0.55353 0.0
O57 O 0.40939 0.27325 0.40624 0.0
C58 C 0.62086 0.32093 0.58578 0.0
O59 O 0.39782 0.40164 0.39181 0.0
O60 O 0.56105 0.57049 0.37203 0.0
O61 O 0.68303 0.56582 0.38987 0.0
H62 H 0.1545 0.08341 0.15793 0.0
H63 H 0.24338 0.30828 0.04451 0.0
H64 H 0.31642 0.38527 0.14521 0.0
H65 H 0.35169 0.38908 0.26585 0.0
H66 H 0.26271 0.1642 0.37924 0.0
H67 H 0.18956 0.08728 0.27857 0.0
C68 C 0.19174 0.14858 0.15485 0.0
C69 C 0.19495 0.18993 0.09384 0.0
C70 C 0.23057 0.19312 0.21341 0.0
C71 C 0.2414 0.27503 0.09087 0.0
C72 C 0.28194 0.3193 0.14857 0.0
C73 C 0.31438 0.32394 0.26893 0.0
C74 C 0.31124 0.28253 0.32992 0.0
C75 C 0.27547 0.27943 0.21038 0.0
C76 C 0.26467 0.19748 0.3329 0.0
C77 C 0.22406 0.15325 0.27522 0.0
H78 H 0.88604 0.27902 0.13614 0.0
H79 H 0.66731 0.08244 0.07808 0.0
H80 H 0.60836 0.11295 0.18079 0.0
H81 H 0.62014 0.19284 0.28701 0.0
H82 H 0.8389 0.38937 0.34507 0.0
H83 H 0.89783 0.35888 0.24235 0.0
C84 C 0.82505 0.24333 0.14518 0.0
C85 C 0.781 0.17867 0.09912 0.0
C86 C 0.79236 0.25969 0.20487 0.0
C87 C 0.70238 0.1328 0.11239 0.0
C88 C 0.66892 0.1497 0.17137 0.0
C89 C 0.68114 0.22852 0.27796 0.0
C90 C 0.7252 0.29317 0.32402 0.0
C91 C 0.71382 0.21216 0.21826 0.0
C92 C 0.80382 0.33902 0.31075 0.0
C93 C 0.83727 0.32214 0.25177 0.0
H94 H 0.72182 0.82845 0.10849 0.0
H95 H 0.95165 0.80627 0.15347 0.0
H96 H 0.89702 0.71561 0.24702 0.0
H97 H 0.78492 0.64372 0.31516 0.0
H98 H 0.55509 0.6659 0.27016 0.0
H99 H 0.60972 0.75659 0.17664 0.0
C100 C 0.76047 0.80398 0.1385 0.0
C101 C 0.84117 0.82438 0.12362 0.0
C102 C 0.72871 0.75223 0.19203 0.0
C103 C 0.88963 0.79176 0.1635 0.0
C104 C 0.85833 0.73997 0.21701 0.0
C105 C 0.74627 0.6682 0.28515 0.0
C106 C 0.66556 0.64778 0.30001 0.0
C107 C 0.77804 0.71996 0.23162 0.0
C108 C 0.61711 0.68042 0.26015 0.0
C109 C 0.64842 0.73223 0.20665 0.0
H110 H 0.15529 0.68149 0.09701 0.0
H111 H 0.18899 0.91651 0.20553 0.0
H112 H 0.27929 0.8843 0.28725 0.0
H113 H 0.35138 0.79044 0.32646 0.0
H114 H 0.31765 0.5554 0.21797 0.0
H115 H 0.22736 0.58761 0.13623 0.0
C116 C 0.18059 0.72431 0.13976 0.0
C117 C 0.16385 0.8002 0.14632 0.0
C118 C 0.23503 0.70688 0.18496 0.0
C119 C 0.19953 0.85676 0.20043 0.0
C120 C 0.25216 0.83899 0.24649 0.0
C121 C 0.32608 0.74762 0.28371 0.0
C122 C 0.34281 0.67172 0.27715 0.0
C123 C 0.27164 0.76504 0.23851 0.0
C124 C 0.30712 0.61515 0.22305 0.0
C125 C 0.25449 0.63292 0.17699 0.0
H126 H 0.12464 0.69184 0.79217 0.0
H127 H 0.33905 0.90016 0.83782 0.0
H128 H 0.39518 0.86642 0.73455 0.0
H129 H 0.38202 0.78037 0.63127 0.0
H130 H 0.1676 0.57206 0.58563 0.0
H131 H 0.11146 0.60582 0.68888 0.0
C132 C 0.1841 0.72966 0.78029 0.0
C133 C 0.22771 0.79847 0.82319 0.0
C134 C 0.21509 0.71123 0.72024 0.0
C135 C 0.30436 0.84664 0.80619 0.0
C136 C 0.33615 0.82783 0.74682 0.0
C137 C 0.32255 0.74255 0.64315 0.0
C138 C 0.27895 0.67373 0.60026 0.0
C139 C 0.29156 0.76099 0.70319 0.0
C140 C 0.20229 0.62558 0.61725 0.0
C141 C 0.1705 0.6444 0.67661 0.0
H142 H 0.22079 0.32785 0.60872 0.0
H143 H 0.44968 0.30102 0.64939 0.0
H144 H 0.39642 0.21253 0.74439 0.0
H145 H 0.28593 0.1443 0.81491 0.0
H146 H 0.05704 0.17112 0.77422 0.0
H147 H 0.1103 0.25962 0.67922 0.0
C148 C 0.25954 0.30282 0.63808 0.0
C149 C 0.33952 0.32114 0.62164 0.0
C150 C 0.22862 0.25254 0.69242 0.0
C151 C 0.38818 0.28794 0.66066 0.0
C152 C 0.35768 0.23748 0.71499 0.0
C153 C 0.24718 0.16934 0.78554 0.0
C154 C 0.16721 0.15101 0.80198 0.0
C155 C 0.2781 0.21961 0.7312 0.0
C156 C 0.11854 0.1842 0.76295 0.0
C157 C 0.14905 0.23467 0.70863 0.0
H158 H 0.73325 0.09653 0.789 0.0
H159 H 0.9574 0.29124 0.76605 0.0
H160 H 0.89304 0.36474 0.69099 0.0
H161 H 0.77326 0.37501 0.63421 0.0
H162 H 0.54911 0.18031 0.65714 0.0
H163 H 0.61347 0.10678 0.73218 0.0
C164 C 0.76859 0.15436 0.76683 0.0
C165 C 0.85048 0.18792 0.78294 0.0
C166 C 0.73086 0.19737 0.72527 0.0
C167 C 0.8946 0.26362 0.75428 0.0
C168 C 0.85763 0.30608 0.71188 0.0
C169 C 0.73792 0.31717 0.65636 0.0
C170 C 0.65603 0.28362 0.64026 0.0
C171 C 0.77565 0.27415 0.69791 0.0
C172 C 0.61191 0.20791 0.6689 0.0
C173 C 0.64888 0.16544 0.71129 0.0
H174 H 0.64746 0.77696 0.62675 0.0
H175 H 0.73951 0.57373 0.58678 0.0
H176 H 0.81885 0.60903 0.6924 0.0
H177 H 0.85942 0.69534 0.79655 0.0
H178 H 0.76749 0.89864 0.83654 0.0
H179 H 0.68819 0.86342 0.73087 0.0
C180 C 0.6861 0.74135 0.64028 0.0
C181 C 0.68812 0.67321 0.5985 0.0
C182 C 0.72955 0.76034 0.7019 0.0
C183 C 0.73734 0.62682 0.61771 0.0
C184 C 0.78202 0.64641 0.67843 0.0
C185 C 0.82084 0.731 0.78301 0.0
C186 C 0.81879 0.79909 0.82483 0.0
C187 C 0.77744 0.71207 0.72137 0.0
C188 C 0.76965 0.84556 0.80559 0.0
C189 C 0.725 0.82602 0.74485 0.0
loop_
_geom_bond_atom_site_label_1
_geom_bond_atom_site_label_2
_geom_bond_distance
_geom_bond_site_symmetry_2
_ccdc_geom_bond_type
C0 O12 1.241 . S
C0 O13 1.280 . S
C1 O14 1.277 . S
C1 O15 1.245 . S
C2 O26 1.247 . S
C2 O28 1.289 . S
Mg3 O4 1.926 . S
Mg3 O13 1.984 . S
Mg3 O15 1.988 1_554 S
Mg3 O16 2.061 1_655 S
O4 Mg3 1.926 . S
O4 Mg5 1.986 1_554 S
O4 Mg6 1.917 1_655 S
Mg5 O4 1.986 1_556 S
Mg5 O12 2.043 1_556 S
Mg5 O14 2.041 . S
Mg5 O20 2.038 1_546 S
Mg5 O28 2.237 1_545 S
Mg6 O4 1.917 1_455 S
Mg6 O7 1.917 1_544 S
Mg6 O17 2.106 . S
Mg6 O19 2.079 1_445 S
Mg6 O28 2.106 1_444 S
Mg6 O29 2.079 1_554 S
O7 Mg6 1.917 1_566 S
O7 Mg8 1.926 . S
O7 Mg9 1.986 1_566 S
Mg8 O7 1.926 . S
Mg8 O22 1.984 . S
Mg8 O25 1.988 1_556 S
Mg8 O26 2.061 1_455 S
Mg9 O7 1.986 1_544 S
Mg9 O17 2.237 . S
Mg9 O21 2.043 1_544 S
Mg9 O23 2.041 1_545 S
Mg9 O30 2.038 1_554 S
C10 O16 1.247 . S
C10 O17 1.289 . S
C11 O29 1.245 . S
C11 O30 1.274 . S
O12 C0 1.241 . S
O12 Mg5 2.043 1_554 S
O13 C0 1.280 . S
O13 Mg3 1.984 . S
O14 C1 1.277 . S
O14 Mg5 2.041 . S
O15 C1 1.245 . S
O15 Mg3 1.988 1_556 S
O16 Mg3 2.061 1_455 S
O16 C10 1.247 . S
O17 Mg6 2.106 . S
O17 Mg9 2.237 . S
O17 C10 1.289 . S
C18 O19 1.245 . S
C18 O20 1.274 . S
O19 Mg6 2.079 1_665 S
O19 C18 1.245 . S
O20 Mg5 2.038 1_564 S
O20 C18 1.274 . S
O21 Mg9 2.043 1_566 S
O21 C24 1.241 . S
O22 Mg8 1.984 . S
O22 C24 1.280 . S
O23 Mg9 2.041 1_565 S
O23 C27 1.277 . S
C24 O21 1.241 . S
C24 O22 1.280 . S
O25 Mg8 1.988 1_554 S
O25 C27 1.245 . S
O26 C2 1.247 . S
O26 Mg8 2.061 1_655 S
C27 O23 1.277 . S
C27 O25 1.245 . S
O28 C2 1.289 . S
O28 Mg5 2.237 1_565 S
O28 Mg6 2.106 1_666 S
O29 Mg6 2.079 1_556 S
O29 C11 1.245 . S
O30 Mg9 2.038 1_556 S
O30 C11 1.274 . S
C31 O43 1.241 . S
C31 O44 1.280 . S
C32 O45 1.277 . S
C32 O46 1.245 . S
C33 O57 1.247 . S
C33 O59 1.289 . S
Mg34 O35 1.926 . S
Mg34 O44 1.984 . S
Mg34 O46 1.988 . S
Mg34 O47 2.061 . S
O35 Mg34 1.926 . S
O35 Mg36 1.986 . S
O35 Mg37 1.917 . S
Mg36 O35 1.986 . S
Mg36 O43 2.042 . S
Mg36 O45 2.041 . S
Mg36 O51 2.038 . S
Mg36 O59 2.238 . S
Mg37 O35 1.917 . S
Mg37 O38 1.917 . S
Mg37 O48 2.106 . S
Mg37 O50 2.079 . S
Mg37 O59 2.106 . S
Mg37 O60 2.079 . S
O38 Mg37 1.917 . S
O38 Mg39 1.926 . S
O38 Mg40 1.986 . S
Mg39 O38 1.926 . S
Mg39 O53 1.984 . S
Mg39 O56 1.988 . S
Mg39 O57 2.061 . S
Mg40 O38 1.986 . S
Mg40 O48 2.238 . S
Mg40 O52 2.042 . S
Mg40 O54 2.041 . S
Mg40 O61 2.038 . S
C41 O47 1.247 . S
C41 O48 1.289 . S
C42 O60 1.245 . S
C42 O61 1.274 . S
O43 C31 1.241 . S
O43 Mg36 2.042 . S
O44 C31 1.280 . S
O44 Mg34 1.984 . S
O45 C32 1.277 . S
O45 Mg36 2.041 . S
O46 C32 1.245 . S
O46 Mg34 1.988 . S
O47 Mg34 2.061 . S
O47 C41 1.247 . S
O48 Mg37 2.106 . S
O48 Mg40 2.238 . S
O48 C41 1.289 . S
C49 O50 1.245 . S
C49 O51 1.274 . S
O50 Mg37 2.079 . S
O50 C49 1.245 . S
O51 Mg36 2.038 . S
O51 C49 1.274 . S
O52 Mg40 2.042 . S
O52 C55 1.241 . S
O53 Mg39 1.984 . S
O53 C55 1.280 . S
O54 Mg40 2.041 . S
O54 C58 1.277 . S
C55 O52 1.241 . S
C55 O53 1.280 . S
O56 Mg39 1.988 . S
O56 C58 1.245 . S
O57 C33 1.247 . S
O57 Mg39 2.061 . S
C58 O54 1.277 . S
C58 O56 1.245 . S
O59 C33 1.289 . S
O59 Mg36 2.238 . S
O59 Mg37 2.106 . S
O60 Mg37 2.079 . S
O60 C42 1.245 . S
O61 Mg40 2.038 . S
O61 C42 1.274 . S
H62 C68 0.930 . S
H63 C71 0.930 . S
H64 C72 0.930 . S
H65 C73 0.930 . S
H66 C76 0.930 . S
H67 C77 0.930 . S
C68 H62 0.930 . S
C68 C69 1.355 . S
C68 C70 1.415 . S
C69 C68 1.355 . S
C69 C71 1.419 . S
C70 C68 1.415 . S
C70 C75 1.425 . S
C70 C77 1.409 . S
C71 H63 0.930 . S
C71 C69 1.419 . S
C71 C72 1.362 . S
C72 H64 0.930 . S
C72 C71 1.362 . S
C72 C75 1.409 . S
C73 H65 0.930 . S
C73 C74 1.355 . S
C73 C75 1.415 . S
C74 C73 1.355 . S
C74 C76 1.419 . S
C75 C70 1.425 . S
C75 C72 1.409 . S
C75 C73 1.415 . S
C76 H66 0.930 . S
C76 C74 1.419 . S
C76 C77 1.362 . S
C77 H67 0.930 . S
C77 C70 1.409 . S
C77 C76 1.362 . S
H78 C84 0.930 . S
H79 C87 0.930 . S
H80 C88 0.930 . S
H81 C89 0.930 . S
H82 C92 0.930 . S
H83 C93 0.930 . S
C84 H78 0.930 . S
C84 C85 1.355 . S
C84 C86 1.415 . S
C85 C84 1.355 . S
C85 C87 1.419 . S
C86 C84 1.415 . S
C86 C91 1.425 . S
C86 C93 1.409 . S
C87 H79 0.930 . S
C87 C85 1.419 . S
C87 C88 1.362 . S
C88 H80 0.930 . S
C88 C87 1.362 . S
C88 C91 1.409 . S
C89 H81 0.930 . S
C89 C90 1.355 . S
C89 C91 1.415 . S
C90 C89 1.355 . S
C90 C92 1.419 . S
C91 C86 1.425 . S
C91 C88 1.409 . S
C91 C89 1.415 . S
C92 H82 0.930 . S
C92 C90 1.419 . S
C92 C93 1.362 . S
C93 H83 0.930 . S
C93 C86 1.409 . S
C93 C92 1.362 . S
H94 C100 0.930 . S
H95 C103 0.930 . S
H96 C104 0.930 . S
H97 C105 0.930 . S
H98 C108 0.930 . S
H99 C109 0.930 . S
C100 H94 0.930 . S
C100 C101 1.355 . S
C100 C102 1.415 . S
C101 C100 1.355 . S
C101 C103 1.419 . S
C102 C100 1.415 . S
C102 C107 1.425 . S
C102 C109 1.409 . S
C103 H95 0.930 . S
C103 C101 1.419 . S
C103 C104 1.362 . S
C104 H96 0.930 . S
C104 C103 1.362 . S
C104 C107 1.409 . S
C105 H97 0.930 . S
C105 C106 1.355 . S
C105 C107 1.415 . S
C106 C105 1.355 . S
C106 C108 1.419 . S
C107 C102 1.425 . S
C107 C104 1.409 . S
C107 C105 1.415 . S
C108 H98 0.930 . S
C108 C106 1.419 . S
C108 C109 1.362 . S
C109 H99 0.930 . S
C109 C102 1.409 . S
C109 C108 1.362 . S
H110 C116 0.930 . S
H111 C119 0.930 . S
H112 C120 0.930 . S
H113 C121 0.930 . S
H114 C124 0.930 . S
H115 C125 0.930 . S
C116 H110 0.930 . S
C116 C117 1.355 . S
C116 C118 1.415 . S
C117 C116 1.355 . S
C117 C119 1.419 . S
C118 C116 1.415 . S
C118 C123 1.425 . S
C118 C125 1.409 . S
C119 H111 0.930 . S
C119 C117 1.419 . S
C119 C120 1.362 . S
C120 H112 0.930 . S
C120 C119 1.362 . S
C120 C123 1.409 . S
C121 H113 0.930 . S
C121 C122 1.355 . S
C121 C123 1.415 . S
C122 C121 1.355 . S
C122 C124 1.419 . S
C123 C118 1.425 . S
C123 C120 1.409 . S
C123 C121 1.415 . S
C124 H114 0.930 . S
C124 C122 1.419 . S
C124 C125 1.362 . S
C125 H115 0.930 . S
C125 C118 1.409 . S
C125 C124 1.362 . S
H126 C132 0.930 . S
H127 C135 0.930 . S
H128 C136 0.930 . S
H129 C137 0.930 . S
H130 C140 0.930 . S
H131 C141 0.930 . S
C132 H126 0.930 . S
C132 C133 1.355 . S
C132 C134 1.415 . S
C133 C132 1.355 . S
C133 C135 1.419 . S
C134 C132 1.415 . S
C134 C139 1.425 . S
C134 C141 1.409 . S
C135 H127 0.930 . S
C135 C133 1.419 . S
C135 C136 1.362 . S
C136 H128 0.930 . S
C136 C135 1.362 . S
C136 C139 1.409 . S
C137 H129 0.930 . S
C137 C138 1.355 . S
C137 C139 1.415 . S
C138 C137 1.355 . S
C138 C140 1.419 . S
C139 C134 1.425 . S
C139 C136 1.409 . S
C139 C137 1.415 . S
C140 H130 0.930 . S
C140 C138 1.419 . S
C140 C141 1.362 . S
C141 H131 0.930 . S
C141 C134 1.409 . S
C141 C140 1.362 . S
H142 C148 0.930 . S
H143 C151 0.930 . S
H144 C152 0.930 . S
H145 C153 0.930 . S
H146 C156 0.930 . S
H147 C157 0.930 . S
C148 H142 0.930 . S
C148 C149 1.355 . S
C148 C150 1.415 . S
C149 C148 1.355 . S
C149 C151 1.419 . S
C150 C148 1.415 . S
C150 C155 1.425 . S
C150 C157 1.409 . S
C151 H143 0.930 . S
C151 C149 1.419 . S
C151 C152 1.362 . S
C152 H144 0.930 . S
C152 C151 1.362 . S
C152 C155 1.409 . S
C153 H145 0.930 . S
C153 C154 1.355 . S
C153 C155 1.415 . S
C154 C153 1.355 . S
C154 C156 1.419 . S
C155 C150 1.425 . S
C155 C152 1.409 . S
C155 C153 1.415 . S
C156 H146 0.930 . S
C156 C154 1.419 . S
C156 C157 1.362 . S
C157 H147 0.930 . S
C157 C150 1.409 . S
C157 C156 1.362 . S
H158 C164 0.930 . S
H159 C167 0.930 . S
H160 C168 0.930 . S
H161 C169 0.930 . S
H162 C172 0.930 . S
H163 C173 0.930 . S
C164 H158 0.930 . S
C164 C165 1.355 . S
C164 C166 1.415 . S
C165 C164 1.355 . S
C165 C167 1.419 . S
C166 C164 1.415 . S
C166 C171 1.425 . S
C166 C173 1.409 . S
C167 H159 0.930 . S
C167 C165 1.419 . S
C167 C168 1.362 . S
C168 H160 0.930 . S
C168 C167 1.362 . S
C168 C171 1.409 . S
C169 H161 0.930 . S
C169 C170 1.355 . S
C169 C171 1.415 . S
C170 C169 1.355 . S
C170 C172 1.419 . S
C171 C166 1.425 . S
C171 C168 1.409 . S
C171 C169 1.415 . S
C172 H162 0.930 . S
C172 C170 1.419 . S
C172 C173 1.362 . S
C173 H163 0.930 . S
C173 C166 1.409 . S
C173 C172 1.362 . S
H174 C180 0.930 . S
H175 C183 0.930 . S
H176 C184 0.930 . S
H177 C185 0.930 . S
H178 C188 0.930 . S
H179 C189 0.930 . S
C180 H174 0.930 . S
C180 C181 1.355 . S
C180 C182 1.415 . S
C181 C180 1.355 . S
C181 C183 1.419 . S
C182 C180 1.415 . S
C182 C187 1.425 . S
C182 C189 1.409 . S
C183 H175 0.930 . S
C183 C181 1.419 . S
C183 C184 1.362 . S
C184 H176 0.930 . S
C184 C183 1.362 . S
C184 C187 1.409 . S
C185 H177 0.930 . S
C185 C186 1.355 . S
C185 C187 1.415 . S
C186 C185 1.355 . S
C186 C188 1.419 . S
C187 C182 1.425 . S
C187 C184 1.409 . S
C187 C185 1.415 . S
C188 H178 0.930 . S
C188 C186 1.419 . S
C188 C189 1.362 . S
C189 H179 0.930 . S
C189 C182 1.409 . S
C189 C188 1.362 . S
C69 C10 1.011 . S
C74 C33 1.008 . S
C85 C0 1.522 . S
C90 C55 1.521 . S
C101 C18 1.590 . S
C106 C42 1.589 . S
C117 C27 1.672 . S
C122 C32 1.671 . S
C133 C24 1.525 . S
C138 C31 1.526 . S
C149 C49 1.593 . S
C154 C11 1.593 . S
C165 C1 1.707 . S
C170 C58 1.708 . S
C181 C41 1.029 . S
C186 C2 1.031 . S
