# Generated by pormake.
# Topology lon, (4)-cn, num edge types: 1
# Building blocks:
#     Node 0, Type 0, BuildingBlock: ICAMEG_clean_sbu_1, # of connection points: 4
#     Node 1, Type 0, BuildingBlock: ICAMEG_clean_sbu_1, # of connection points: 4
#     Node 2, Type 0, BuildingBlock: ICAMEG_clean_sbu_1, # of connection points: 4
#     Node 3, Type 0, BuildingBlock: ICAMEG_clean_sbu_1, # of connection points: 4
#     Edge 4, Type (0, 0), None
#     Edge 5, Type (0, 0), None
#     Edge 6, Type (0, 0), None
#     Edge 7, Type (0, 0), None
#     Edge 8, Type (0, 0), None
#     Edge 9, Type (0, 0), None
#     Edge 10, Type (0, 0), None
#     Edge 11, Type (0, 0), None
# Relax obj value: 0.246
# Max RMSD: 0.264
# Mean RMSD: 0.259
data_MOF--net-lon--node1-ICAMEG_clean_sbu_1--edge1-none
_symmetry_space_group_name_H-M    P1
_symmetry_Int_Tables_number       1
_symmetry_cell_setting            triclinic
loop_
_symmetry_equiv_pos_as_xyz
'x, y, z'
_cell_length_a     10.188634
_cell_length_b     12.464336
_cell_length_c     22.87914
_cell_angle_alpha  101.29012
_cell_angle_beta   89.916947
_cell_angle_gamma 114.44513
loop_
_atom_site_label
_atom_site_type_symbol
_atom_site_fract_x
_atom_site_fract_y
_atom_site_fract_z
_atom_type_partial_charge
Co0 Co 0.43035 0.72945 0.00205 0.0
Co1 Co 0.40898 0.59635 0.11935 0.0
O2 O 0.4534 0.74003 0.08785 0.0
C3 C 0.70008 0.92806 0.97677 0.0
O4 O 0.72108 0.85056 0.93442 0.0
C5 C 0.32115 0.75262 0.21852 0.0
O6 O 0.28767 0.79797 0.17681 0.0
O7 O 0.19943 0.53233 0.0812 0.0
O8 O 0.25345 0.57028 0.99028 0.0
H9 H 0.08929 0.17047 0.13387 0.0
H10 H 0.44579 0.93504 0.09457 0.0
O11 O 0.59906 0.89177 0.01122 0.0
H12 H 0.97301 0.79756 0.98436 0.0
H13 H 0.34938 0.86469 0.82038 0.0
H14 H 0.42859 0.55246 0.89448 0.0
H15 H 0.13817 0.69877 0.95045 0.0
H16 H 0.39584 0.88408 0.92697 0.0
O17 O 0.36224 0.66835 0.20235 0.0
H18 H 0.16868 0.34787 0.0911 0.0
H19 H 0.5274 0.53338 0.22105 0.0
H20 H 0.38633 0.52765 0.78645 0.0
H21 H 0.28074 0.02904 0.12875 0.0
H22 H 0.34947 0.68515 0.74733 0.0
H23 H 0.04563 0.96197 0.07188 0.0
O24 O 0.56631 0.64817 0.98658 0.0
H25 H 0.85953 0.96243 0.1978 0.0
H26 H 0.65817 0.52403 0.11789 0.0
H27 H 0.92764 0.64676 0.13331 0.0
H28 H 0.0262 0.86446 0.17334 0.0
H29 H 0.59807 0.83984 0.18536 0.0
H30 H 0.44711 0.35756 0.26762 0.0
H31 H 0.2259 0.17338 0.223 0.0
O32 O 0.46901 0.51378 0.04331 0.0
C33 C 0.16023 0.52242 0.02586 0.0
C34 C 0.18778 0.24891 0.15259 0.0
C35 C 0.38855 0.35394 0.22747 0.0
N36 N 0.35941 0.45105 0.15082 0.0
C37 C 0.23514 0.35087 0.12802 0.0
C38 C 0.43448 0.45345 0.20069 0.0
C39 C 0.26543 0.25052 0.20254 0.0
C40 C 0.34268 0.90396 0.06922 0.0
N41 N 0.30252 0.81112 0.02011 0.0
C42 C 0.25046 0.95832 0.08898 0.0
C43 C 0.11774 0.92006 0.0574 0.0
C44 C 0.07712 0.8264 0.0075 0.0
C45 C 0.17054 0.77173 0.98928 0.0
C46 C 0.37012 0.79636 0.83515 0.0
C47 C 0.41227 0.6213 0.87817 0.0
C48 C 0.39322 0.80677 0.89604 0.0
N49 N 0.40893 0.71815 0.91703 0.0
C50 C 0.3894 0.60725 0.8167 0.0
C51 C 0.36886 0.69598 0.79497 0.0
C52 C 0.55245 0.55178 0.00226 0.0
C53 C 0.81705 0.86574 0.18135 0.0
C54 C 0.70301 0.61891 0.1374 0.0
C55 C 0.85364 0.6871 0.14541 0.0
C56 C 0.91032 0.81103 0.16721 0.0
N57 N 0.61178 0.67301 0.15146 0.0
C58 C 0.66818 0.79467 0.17508 0.0
Co59 Co 0.58137 0.27842 0.47099 0.0
Co60 Co 0.71939 0.29864 0.61368 0.0
O61 O 0.57918 0.31465 0.55977 0.0
C62 C 0.5646 0.52217 0.50218 0.0
O63 O 0.60351 0.53146 0.55812 0.0
C64 C 0.50312 0.201 0.71837 0.0
O65 O 0.36403 0.13124 0.71258 0.0
O66 O 0.66131 0.12369 0.56614 0.0
O67 O 0.6076 0.1272 0.47222 0.0
H68 H 0.92232 0.05078 0.69082 0.0
H69 H 0.33454 0.32683 0.51833 0.0
O70 O 0.55107 0.42831 0.46276 0.0
H71 H 0.10984 0.91229 0.39737 0.0
H72 H 0.34102 0.09208 0.26678 0.0
H73 H 0.78783 0.22145 0.3947 0.0
H74 H 0.37416 0.02112 0.41425 0.0
H75 H 0.38923 0.23918 0.36239 0.0
O76 O 0.56098 0.22593 0.66918 0.0
H77 H 0.72309 0.10224 0.66584 0.0
H78 H 0.02535 0.45704 0.66121 0.0
H79 H 0.75482 0.09143 0.29573 0.0
H80 H 0.06956 0.22257 0.50002 0.0
H81 H 0.52402 0.01529 0.23378 0.0
H82 H 0.95522 0.01523 0.43721 0.0
O83 O 0.79271 0.37921 0.4757 0.0
H84 H 0.62843 0.61633 0.76367 0.0
H85 H 0.92442 0.55929 0.60327 0.0
H86 H 0.93076 0.75621 0.6397 0.0
H87 H 0.78732 0.78896 0.72219 0.0
H88 H 0.60094 0.4172 0.71975 0.0
H89 H 0.225 0.41424 0.693 0.0
H90 H 0.17463 0.20863 0.70596 0.0
O91 O 0.88222 0.36442 0.56107 0.0
C92 C 0.62286 0.071 0.51044 0.0
C93 C 0.94491 0.1416 0.6866 0.0
C94 C 0.115 0.34544 0.68775 0.0
N95 N 0.86129 0.28307 0.66315 0.0
C96 C 0.83243 0.17145 0.6731 0.0
C97 C 1.00056 0.3699 0.6709 0.0
C98 C 0.08681 0.22978 0.69453 0.0
C99 C 0.28663 0.23702 0.4908 0.0
N100 N 0.37175 0.18304 0.46542 0.0
C101 C 0.13593 0.17812 0.48077 0.0
C102 C 0.07185 0.06179 0.44555 0.0
C103 C 0.15848 0.004 0.42321 0.0
C104 C 0.3088 0.06573 0.4341 0.0
C105 C 0.44234 0.12527 0.29348 0.0
C106 C 0.69374 0.20094 0.3654 0.0
C107 C 0.46993 0.20868 0.34742 0.0
N108 N 0.58724 0.23568 0.38518 0.0
C109 C 0.67433 0.12401 0.30992 0.0
C110 C 0.54432 0.08088 0.27531 0.0
C111 C 0.89864 0.39959 0.51175 0.0
C112 C 0.69091 0.60259 0.72732 0.0
C113 C 0.85582 0.56562 0.63737 0.0
C114 C 0.86228 0.68108 0.65856 0.0
C115 C 0.77974 0.69955 0.70406 0.0
N116 N 0.76325 0.46691 0.65815 0.0
C117 C 0.68082 0.48734 0.70289 0.0
Co118 Co 0.30595 0.72517 0.53013 0.0
Co119 Co 0.42357 0.70603 0.38748 0.0
O120 O 0.267 0.68952 0.44147 0.0
C121 C 0.04508 0.48136 0.49867 0.0
O122 O 0.07674 0.47159 0.44297 0.0
C123 C 0.30182 0.80044 0.2827 0.0
O124 O 0.23606 0.87227 0.28909 0.0
O125 O 0.54055 0.88132 0.43488 0.0
O126 O 0.48549 0.87637 0.52903 0.0
H127 H 0.8741 0.95733 0.30933 0.0
H128 H 1.01011 0.67696 0.48367 0.0
O129 O 0.12438 0.57566 0.5382 0.0
H130 H 0.20559 0.09186 0.60427 0.0
H131 H 0.26053 0.91431 0.73523 0.0
H132 H 0.56888 0.77838 0.60522 0.0
H133 H 0.35962 0.98281 0.58713 0.0
H134 H 0.15517 0.76714 0.63997 0.0
O135 O 0.33799 0.77762 0.33182 0.0
H136 H 0.62294 0.90305 0.33528 0.0
H137 H 0.57305 0.5497 0.3391 0.0
H138 H 0.67119 0.90847 0.70347 0.0
H139 H 0.8508 0.78135 0.50239 0.0
H140 H 0.52188 0.98822 0.76636 0.0
H141 H 0.94665 0.98885 0.56503 0.0
O142 O 0.41407 0.62329 0.52476 0.0
H143 H 0.99611 0.38638 0.24631 0.0
H144 H 0.3794 0.44596 0.39319 0.0
H145 H 0.18098 0.24897 0.36198 0.0
H146 H 0.99247 0.21496 0.28515 0.0
H147 H 0.17183 0.58675 0.28776 0.0
H148 H 0.816 0.59553 0.30683 0.0
H149 H 0.96993 0.80161 0.29333 0.0
O150 O 0.52116 0.6408 0.44002 0.0
C151 C 0.55526 0.93363 0.49064 0.0
C152 C 0.80632 0.86623 0.31368 0.0
C153 C 0.77399 0.66329 0.31226 0.0
N154 N 0.58144 0.72281 0.33775 0.0
C155 C 0.66371 0.83479 0.32774 0.0
C156 C 0.63469 0.63714 0.32951 0.0
C157 C 0.86084 0.77925 0.30528 0.0
C158 C 0.05328 0.76687 0.51113 0.0
N159 N 0.19315 0.82085 0.53622 0.0
C160 C 0.96226 0.82583 0.52139 0.0
C161 C 1.01611 0.94225 0.5565 0.0
C162 C 0.16134 1.00007 0.57851 0.0
C163 C 0.24909 0.93823 0.56745 0.0
C164 C 0.32642 0.8797 0.70798 0.0
C165 C 0.49686 0.80013 0.63492 0.0
C166 C 0.26712 0.79619 0.6542 0.0
N167 N 0.35527 0.76722 0.61588 0.0
C168 C 0.55764 0.87739 0.69001 0.0
C169 C 0.47359 0.92254 0.72514 0.0
C170 C 0.49997 0.60341 0.48879 0.0
C171 C 0.07932 0.40095 0.27966 0.0
C172 C 0.29696 0.43926 0.36253 0.0
C173 C 0.18481 0.32376 0.34384 0.0
C174 C 0.07643 0.30454 0.30163 0.0
N175 N 0.29777 0.53763 0.34342 0.0
C176 C 0.18691 0.51662 0.30229 0.0
Co177 Co 0.70073 0.27979 0.00178 0.0
Co178 Co 0.81428 0.40701 0.88253 0.0
O179 O 0.71381 0.26363 0.91518 0.0
C180 C 0.76211 0.05695 0.97475 0.0
O181 O 0.86499 0.10255 0.9405 0.0
C182 C 0.57352 0.24317 0.78205 0.0
O183 O 0.49914 0.18803 0.82243 0.0
O184 O 0.6683 0.47156 0.91982 0.0
O185 O 0.69142 0.4406 0.01121 0.0
H186 H 0.93998 0.83669 0.87167 0.0
H187 H 0.50893 0.0746 0.91097 0.0
O188 O 0.69468 0.11682 0.99942 0.0
H189 H 0.17442 0.21571 0.01803 0.0
H190 H 0.48792 0.15525 0.18565 0.0
H191 H 0.88396 0.45952 0.1077 0.0
H192 H 0.43901 0.3131 0.05336 0.0
H193 H 0.50979 0.13221 0.07902 0.0
O194 O 0.69406 0.33456 0.79964 0.0
H195 H 0.83528 0.65716 0.91368 0.0
H196 H 0.98943 0.46668 0.7788 0.0
H197 H 0.87084 0.48831 0.21595 0.0
H198 H 0.24928 0.97758 0.87719 0.0
H199 H 0.67431 0.33325 0.25732 0.0
H200 H 0.08184 0.04705 0.93202 0.0
O201 O 0.91925 0.35749 0.01607 0.0
H202 H 0.90338 0.04466 0.80198 0.0
H203 H 0.13761 0.48308 0.88291 0.0
H204 H 0.28713 0.36443 0.86538 0.0
H205 H 0.16951 0.14647 0.82539 0.0
H206 H 0.76098 0.163 0.81763 0.0
H207 H 0.09309 0.64449 0.73348 0.0
H208 H 0.06743 0.83162 0.78084 0.0
O209 O 0.95762 0.49058 0.95836 0.0
C210 C 0.64035 0.48324 0.97532 0.0
C211 C 0.95397 0.75645 0.85163 0.0
C212 C 0.04024 0.64866 0.77425 0.0
N213 N 0.91235 0.55163 0.85089 0.0
C214 C 0.89549 0.65372 0.87558 0.0
C215 C 0.98211 0.54815 0.80019 0.0
C216 C 0.02703 0.75376 0.80073 0.0
C217 C 0.43699 0.10632 0.93571 0.0
N218 N 0.49039 0.20069 0.98411 0.0
C219 C 0.29007 0.05045 0.91609 0.0
C220 C 0.19597 0.09016 0.94663 0.0
C221 C 0.24955 0.18574 0.99577 0.0
C222 C 0.39801 0.24042 0.01449 0.0
C223 C 0.578 0.22179 0.17017 0.0
C224 C 0.79718 0.39275 0.12487 0.0
C225 C 0.58754 0.2097 0.10911 0.0
N226 N 0.6925 0.29666 0.08698 0.0
C227 C 0.79096 0.40884 0.18654 0.0
C228 C 0.6808 0.32186 0.20949 0.0
C229 C 1.00326 0.45272 0.99921 0.0
C230 C 0.95685 0.14138 0.81865 0.0
C231 C 0.08764 0.38801 0.86357 0.0
C232 C 0.17191 0.32214 0.85427 0.0
C233 C 0.10565 0.19822 0.83218 0.0
N234 N 0.94124 0.33158 0.85066 0.0
C235 C 0.87681 0.21003 0.82677 0.0
loop_
_geom_bond_atom_site_label_1
_geom_bond_atom_site_label_2
_geom_bond_distance
_geom_bond_site_symmetry_2
_ccdc_geom_bond_type
Co0 O2 2.143 1_556 S
Co0 O8 2.074 . S
Co0 O11 2.093 . S
Co0 O24 2.097 . S
Co0 N41 2.151 . S
Co0 N49 2.214 . S
Co1 O2 2.160 . S
Co1 O7 2.058 . S
Co1 O17 2.057 . S
Co1 O32 2.037 . S
Co1 N36 2.145 . S
Co1 N57 2.257 . S
O2 Co0 2.143 1_554 S
O2 Co1 2.160 . S
C3 O4 1.278 . S
C3 O11 1.224 1_554 S
O4 C3 1.278 . S
C5 O6 1.245 . S
C5 O17 1.232 . S
O6 C5 1.245 . S
O7 Co1 2.058 . S
O7 C33 1.269 . S
O8 Co0 2.074 . S
O8 C33 1.257 1_556 S
H9 C34 0.930 . S
H10 C40 0.930 . S
O11 Co0 2.093 . S
O11 C3 1.224 1_556 S
H12 C44 0.929 . S
H13 C46 0.930 . S
H14 C47 0.930 . S
H15 C45 0.929 . S
H16 C48 0.928 . S
O17 Co1 2.057 . S
O17 C5 1.232 . S
H18 C37 0.929 . S
H19 C38 0.929 . S
H20 C50 0.931 . S
H21 C42 0.929 1_545 S
H22 C51 0.930 . S
H23 C43 0.931 1_655 S
O24 Co0 2.097 . S
O24 C52 1.214 . S
H25 C53 0.929 . S
H26 C54 0.929 . S
H27 C55 0.930 . S
H28 C56 0.929 . S
H29 C58 0.930 . S
H30 C35 0.930 . S
H31 C39 0.930 . S
O32 Co1 2.037 . S
O32 C52 1.234 1_554 S
C33 O7 1.269 . S
C33 O8 1.257 1_554 S
C34 H9 0.930 . S
C34 C37 1.388 . S
C34 C39 1.418 . S
C35 H30 0.930 . S
C35 C38 1.404 . S
C35 C39 1.353 . S
N36 Co1 2.145 . S
N36 C37 1.397 . S
N36 C38 1.334 . S
C37 H18 0.929 . S
C37 C34 1.388 . S
C37 N36 1.397 . S
C38 H19 0.929 . S
C38 C35 1.404 . S
C38 N36 1.334 . S
C39 H31 0.930 . S
C39 C34 1.418 . S
C39 C35 1.353 . S
C40 H10 0.930 . S
C40 N41 1.330 1_554 S
C40 C42 1.446 . S
N41 Co0 2.151 . S
N41 C40 1.330 1_556 S
N41 C45 1.418 . S
C42 H21 0.929 1_565 S
C42 C40 1.446 . S
C42 C43 1.332 . S
C43 H23 0.931 1_455 S
C43 C42 1.332 . S
C43 C44 1.267 1_454 S
C44 H12 0.929 . S
C44 C43 1.267 1_656 S
C44 C45 1.251 1_655 S
C45 H15 0.929 . S
C45 N41 1.418 . S
C45 C44 1.251 1_455 S
C46 H13 0.930 . S
C46 C48 1.406 . S
C46 C51 1.261 . S
C47 H14 0.930 . S
C47 N49 1.325 . S
C47 C50 1.357 . S
C48 H16 0.928 . S
C48 C46 1.406 . S
C48 N49 1.261 . S
N49 Co0 2.214 . S
N49 C47 1.325 . S
N49 C48 1.261 . S
C50 H20 0.931 . S
C50 C47 1.357 . S
C50 C51 1.312 . S
C51 H22 0.930 . S
C51 C46 1.261 . S
C51 C50 1.312 . S
C52 O24 1.214 . S
C52 O32 1.234 1_556 S
C53 H25 0.929 . S
C53 C56 1.391 . S
C53 C58 1.391 . S
C54 H26 0.929 . S
C54 C55 1.390 . S
C54 N57 1.391 . S
C55 H27 0.930 . S
C55 C54 1.390 . S
C55 C56 1.392 . S
C56 H28 0.929 . S
C56 C53 1.391 . S
C56 C55 1.392 . S
N57 Co1 2.257 . S
N57 C54 1.391 . S
N57 C58 1.388 . S
C58 H29 0.930 . S
C58 C53 1.391 . S
C58 N57 1.388 . S
Co59 O61 2.143 . S
Co59 O67 2.074 . S
Co59 O70 2.093 . S
Co59 O83 2.097 . S
Co59 N100 2.151 . S
Co59 N108 2.214 . S
Co60 O61 2.160 . S
Co60 O66 2.058 . S
Co60 O76 2.057 . S
Co60 O91 2.037 . S
Co60 N95 2.145 . S
Co60 N116 2.257 . S
O61 Co59 2.143 . S
O61 Co60 2.160 . S
C62 O63 1.278 . S
C62 O70 1.224 . S
O63 C62 1.278 . S
C64 O65 1.245 . S
C64 O76 1.232 . S
O65 C64 1.245 . S
O66 Co60 2.058 . S
O66 C92 1.269 . S
O67 Co59 2.074 . S
O67 C92 1.257 . S
H68 C93 0.930 . S
H69 C99 0.930 . S
O70 Co59 2.093 . S
O70 C62 1.224 . S
H71 C103 0.929 1_565 S
H72 C105 0.930 . S
H73 C106 0.930 . S
H74 C104 0.929 . S
H75 C107 0.928 . S
O76 Co60 2.057 . S
O76 C64 1.232 . S
H77 C96 0.929 . S
H78 C97 0.929 . S
H79 C109 0.931 . S
H80 C101 0.929 . S
H81 C110 0.930 . S
H82 C102 0.931 1_655 S
O83 Co59 2.097 . S
O83 C111 1.214 . S
H84 C112 0.929 . S
H85 C113 0.929 . S
H86 C114 0.930 . S
H87 C115 0.929 . S
H88 C117 0.930 . S
H89 C94 0.930 . S
H90 C98 0.930 . S
O91 Co60 2.037 . S
O91 C111 1.234 . S
C92 O66 1.269 . S
C92 O67 1.257 . S
C93 H68 0.930 . S
C93 C96 1.388 . S
C93 C98 1.418 . S
C94 H89 0.930 . S
C94 C97 1.404 1_455 S
C94 C98 1.353 . S
N95 Co60 2.145 . S
N95 C96 1.397 1_655 S
N95 C97 1.334 . S
C96 H77 0.929 . S
C96 C93 1.388 . S
C96 N95 1.397 1_455 S
C97 H78 0.929 . S
C97 C94 1.404 1_655 S
C97 N95 1.334 . S
C98 H90 0.930 . S
C98 C93 1.418 . S
C98 C94 1.353 . S
C99 H69 0.930 . S
C99 N100 1.330 . S
C99 C101 1.446 . S
N100 Co59 2.151 . S
N100 C99 1.330 . S
N100 C104 1.418 . S
C101 H80 0.929 . S
C101 C99 1.446 . S
C101 C102 1.332 . S
C102 H82 0.931 1_455 S
C102 C101 1.332 . S
C102 C103 1.267 . S
C103 H71 0.929 1_545 S
C103 C102 1.267 . S
C103 C104 1.251 . S
C104 H74 0.929 . S
C104 N100 1.418 . S
C104 C103 1.251 . S
C105 H72 0.930 . S
C105 C107 1.406 . S
C105 C110 1.261 . S
C106 H73 0.930 . S
C106 N108 1.325 . S
C106 C109 1.357 . S
C107 H75 0.928 . S
C107 C105 1.406 . S
C107 N108 1.261 . S
N108 Co59 2.214 . S
N108 C106 1.325 . S
N108 C107 1.261 . S
C109 H79 0.931 . S
C109 C106 1.357 . S
C109 C110 1.312 . S
C110 H81 0.930 . S
C110 C105 1.261 . S
C110 C109 1.312 . S
C111 O83 1.214 . S
C111 O91 1.234 . S
C112 H84 0.929 . S
C112 C115 1.391 1_655 S
C112 C117 1.391 . S
C113 H85 0.929 . S
C113 C114 1.390 . S
C113 N116 1.391 1_455 S
C114 H86 0.930 . S
C114 C113 1.390 . S
C114 C115 1.392 . S
C115 H87 0.929 . S
C115 C112 1.391 1_455 S
C115 C114 1.392 . S
N116 Co60 2.257 . S
N116 C113 1.391 1_655 S
N116 C117 1.388 . S
C117 H88 0.930 . S
C117 C112 1.391 . S
C117 N116 1.388 . S
Co118 O120 2.143 . S
Co118 O126 2.074 . S
Co118 O129 2.093 . S
Co118 O142 2.097 . S
Co118 N159 2.151 . S
Co118 N167 2.214 . S
Co119 O120 2.160 . S
Co119 O125 2.058 . S
Co119 O135 2.057 . S
Co119 O150 2.037 . S
Co119 N154 2.145 . S
Co119 N175 2.257 . S
O120 Co118 2.143 . S
O120 Co119 2.160 . S
C121 O122 1.278 . S
C121 O129 1.224 . S
O122 C121 1.278 . S
C123 O124 1.245 . S
C123 O135 1.232 . S
O124 C123 1.245 . S
O125 Co119 2.058 . S
O125 C151 1.269 . S
O126 Co118 2.074 . S
O126 C151 1.257 . S
H127 C152 0.930 . S
H128 C158 0.930 1_655 S
O129 Co118 2.093 . S
O129 C121 1.224 . S
H130 C162 0.929 1_545 S
H131 C164 0.930 . S
H132 C165 0.930 . S
H133 C163 0.929 . S
H134 C166 0.928 . S
O135 Co119 2.057 . S
O135 C123 1.232 . S
H136 C155 0.929 . S
H137 C156 0.929 . S
H138 C168 0.931 . S
H139 C160 0.929 . S
H140 C169 0.930 . S
H141 C161 0.931 . S
O142 Co118 2.097 . S
O142 C170 1.214 . S
H143 C171 0.929 . S
H144 C172 0.929 . S
H145 C173 0.930 . S
H146 C174 0.929 . S
H147 C176 0.930 . S
H148 C153 0.930 . S
H149 C157 0.930 1_455 S
O150 Co119 2.037 . S
O150 C170 1.234 . S
C151 O125 1.269 . S
C151 O126 1.257 . S
C152 H127 0.930 . S
C152 C155 1.388 . S
C152 C157 1.418 . S
C153 H148 0.930 . S
C153 C156 1.404 . S
C153 C157 1.353 . S
N154 Co119 2.145 . S
N154 C155 1.397 . S
N154 C156 1.334 . S
C155 H136 0.929 . S
C155 C152 1.388 . S
C155 N154 1.397 . S
C156 H137 0.929 . S
C156 C153 1.404 . S
C156 N154 1.334 . S
C157 H149 0.930 1_655 S
C157 C152 1.418 . S
C157 C153 1.353 . S
C158 H128 0.930 1_455 S
C158 N159 1.330 . S
C158 C160 1.446 1_455 S
N159 Co118 2.151 . S
N159 C158 1.330 . S
N159 C163 1.418 . S
C160 H139 0.929 . S
C160 C158 1.446 1_655 S
C160 C161 1.332 . S
C161 H141 0.931 . S
C161 C160 1.332 . S
C161 C162 1.267 1_655 S
C162 H130 0.929 1_565 S
C162 C161 1.267 1_455 S
C162 C163 1.251 . S
C163 H133 0.929 . S
C163 N159 1.418 . S
C163 C162 1.251 . S
C164 H131 0.930 . S
C164 C166 1.406 . S
C164 C169 1.261 . S
C165 H132 0.930 . S
C165 N167 1.325 . S
C165 C168 1.357 . S
C166 H134 0.928 . S
C166 C164 1.406 . S
C166 N167 1.261 . S
N167 Co118 2.214 . S
N167 C165 1.325 . S
N167 C166 1.261 . S
C168 H138 0.931 . S
C168 C165 1.357 . S
C168 C169 1.312 . S
C169 H140 0.930 . S
C169 C164 1.261 . S
C169 C168 1.312 . S
C170 O142 1.214 . S
C170 O150 1.234 . S
C171 H143 0.929 . S
C171 C174 1.391 . S
C171 C176 1.391 . S
C172 H144 0.929 . S
C172 C173 1.390 . S
C172 N175 1.391 . S
C173 H145 0.930 . S
C173 C172 1.390 . S
C173 C174 1.392 . S
C174 H146 0.929 . S
C174 C171 1.391 . S
C174 C173 1.392 . S
N175 Co119 2.257 . S
N175 C172 1.391 . S
N175 C176 1.388 . S
C176 H147 0.930 . S
C176 C171 1.391 . S
C176 N175 1.388 . S
Co177 O179 2.143 1_554 S
Co177 O185 2.074 . S
Co177 O188 2.093 . S
Co177 O201 2.097 . S
Co177 N218 2.151 . S
Co177 N226 2.214 . S
Co178 O179 2.160 . S
Co178 O184 2.058 . S
Co178 O194 2.057 . S
Co178 O209 2.037 . S
Co178 N213 2.145 . S
Co178 N234 2.257 . S
O179 Co177 2.143 1_556 S
O179 Co178 2.160 . S
C180 O181 1.278 . S
C180 O188 1.224 1_556 S
O181 C180 1.278 . S
C182 O183 1.245 . S
C182 O194 1.232 . S
O183 C182 1.245 . S
O184 Co178 2.058 . S
O184 C210 1.269 . S
O185 Co177 2.074 . S
O185 C210 1.257 1_554 S
H186 C211 0.930 . S
H187 C217 0.930 . S
O188 Co177 2.093 . S
O188 C180 1.224 1_554 S
H189 C221 0.929 . S
H190 C223 0.930 . S
H191 C224 0.930 . S
H192 C222 0.929 . S
H193 C225 0.928 . S
O194 Co178 2.057 . S
O194 C182 1.232 . S
H195 C214 0.929 . S
H196 C215 0.929 . S
H197 C227 0.931 . S
H198 C219 0.929 1_565 S
H199 C228 0.930 . S
H200 C220 0.931 1_655 S
O201 Co177 2.097 . S
O201 C229 1.214 . S
H202 C230 0.929 . S
H203 C231 0.929 . S
H204 C232 0.930 . S
H205 C233 0.929 . S
H206 C235 0.930 . S
H207 C212 0.930 . S
H208 C216 0.930 . S
O209 Co178 2.037 . S
O209 C229 1.234 1_556 S
C210 O184 1.269 . S
C210 O185 1.257 1_556 S
C211 H186 0.930 . S
C211 C214 1.388 1_455 S
C211 C216 1.418 . S
C212 H207 0.930 . S
C212 C215 1.404 1_455 S
C212 C216 1.353 . S
N213 Co178 2.145 . S
N213 C214 1.397 . S
N213 C215 1.334 . S
C214 H195 0.929 . S
C214 C211 1.388 1_655 S
C214 N213 1.397 . S
C215 H196 0.929 . S
C215 C212 1.404 1_655 S
C215 N213 1.334 . S
C216 H208 0.930 . S
C216 C211 1.418 . S
C216 C212 1.353 . S
C217 H187 0.930 . S
C217 N218 1.330 1_556 S
C217 C219 1.446 . S
N218 Co177 2.151 . S
N218 C217 1.330 1_554 S
N218 C222 1.418 . S
C219 H198 0.929 1_545 S
C219 C217 1.446 . S
C219 C220 1.332 . S
C220 H200 0.931 1_455 S
C220 C219 1.332 . S
C220 C221 1.267 1_556 S
C221 H189 0.929 . S
C221 C220 1.267 1_554 S
C221 C222 1.251 . S
C222 H192 0.929 . S
C222 N218 1.418 . S
C222 C221 1.251 . S
C223 H190 0.930 . S
C223 C225 1.406 . S
C223 C228 1.261 . S
C224 H191 0.930 . S
C224 N226 1.325 . S
C224 C227 1.357 . S
C225 H193 0.928 . S
C225 C223 1.406 . S
C225 N226 1.261 . S
N226 Co177 2.214 . S
N226 C224 1.325 . S
N226 C225 1.261 . S
C227 H197 0.931 . S
C227 C224 1.357 . S
C227 C228 1.312 . S
C228 H199 0.930 . S
C228 C223 1.261 . S
C228 C227 1.312 . S
C229 O201 1.214 . S
C229 O209 1.234 1_554 S
C230 H202 0.929 . S
C230 C233 1.391 1_655 S
C230 C235 1.391 . S
C231 H203 0.929 . S
C231 C232 1.390 . S
C231 N234 1.391 1_455 S
C232 H204 0.930 . S
C232 C231 1.390 . S
C232 C233 1.392 . S
C233 H205 0.929 . S
C233 C230 1.391 1_455 S
C233 C232 1.392 . S
N234 Co178 2.257 . S
N234 C231 1.391 1_655 S
N234 C235 1.388 . S
C235 H206 0.930 . S
C235 C230 1.391 . S
C235 N234 1.388 . S
C5 C123 1.726 . S
C64 C182 1.726 . S
C52 C210 1.965 . S
C121 C111 1.593 1_455 S
C180 C3 1.421 1_546 S
C62 C170 1.593 . S
C33 C229 1.965 1_455 S
C92 C151 2.199 1_545 S
