# Generated by pormake.
# Topology dmp, (4)-cn, num edge types: 1
# Building blocks:
#     Node 0, Type 0, BuildingBlock: ESEHIV_clean_sbu_0, # of connection points: 4
#     Node 1, Type 0, BuildingBlock: ESEHIV_clean_sbu_0, # of connection points: 4
#     Node 2, Type 0, BuildingBlock: ESEHIV_clean_sbu_0, # of connection points: 4
#     Node 3, Type 0, BuildingBlock: ESEHIV_clean_sbu_0, # of connection points: 4
#     Edge 4, Type (0, 0), BuildingBlock: EZIPEK_clean_linker_0, # of connection points: 2
#     Edge 5, Type (0, 0), BuildingBlock: EZIPEK_clean_linker_0, # of connection points: 2
#     Edge 6, Type (0, 0), BuildingBlock: EZIPEK_clean_linker_0, # of connection points: 2
#     Edge 7, Type (0, 0), BuildingBlock: EZIPEK_clean_linker_0, # of connection points: 2
#     Edge 8, Type (0, 0), BuildingBlock: EZIPEK_clean_linker_0, # of connection points: 2
#     Edge 9, Type (0, 0), BuildingBlock: EZIPEK_clean_linker_0, # of connection points: 2
#     Edge 10, Type (0, 0), BuildingBlock: EZIPEK_clean_linker_0, # of connection points: 2
#     Edge 11, Type (0, 0), BuildingBlock: EZIPEK_clean_linker_0, # of connection points: 2
# Relax obj value: 0.000
# Max RMSD: 0.006
# Mean RMSD: 0.006
data_MOF--net-dmp--node1-ESEHIV_clean_sbu_0--edge1-EZIPEK_clean_linker_0
_symmetry_space_group_name_H-M    P1
_symmetry_Int_Tables_number       1
_symmetry_cell_setting            triclinic
loop_
_symmetry_equiv_pos_as_xyz
'x, y, z'
_cell_length_a     29.638482
_cell_length_b     18.517527
_cell_length_c     5.0721827
_cell_angle_alpha  89.360865
_cell_angle_beta   90.648348
_cell_angle_gamma 101.82221
loop_
_atom_site_label
_atom_site_type_symbol
_atom_site_fract_x
_atom_site_fract_y
_atom_site_fract_z
_atom_type_partial_charge
Cu0 Cu 0.15321 0.26133 0.32844 0.0
N1 N 0.19573 0.24143 0.06342 0.0
N2 N 0.23798 0.1562 0.95822 0.0
C3 C 0.19537 0.17137 -0.02056 0.0
C4 C 0.26694 0.22004 0.01373 0.0
C5 C 0.24137 0.27171 0.07415 0.0
O6 O 0.11376 0.16213 0.35108 0.0
C7 C 0.21133 0.38481 0.49663 0.0
O8 O 0.20022 0.3993 0.25349 0.0
H9 H 0.16513 0.12792 -0.0292 0.0
H10 H 0.25641 0.32521 0.15026 0.0
N11 N 0.10273 0.31257 0.31608 0.0
N12 N 0.05592 0.3929 0.37416 0.0
C13 C 0.09838 0.38412 0.2996 0.0
C14 C 0.06208 0.27836 0.42286 0.0
C15 C 0.03336 0.32637 0.45287 0.0
C16 C 0.09003 0.15106 0.13526 0.0
O17 O 0.09946 0.20151 0.94818 0.0
H18 H 0.12611 0.42981 0.25384 0.0
H19 H 0.05409 0.22235 0.49477 0.0
O20 O 0.19447 0.32057 0.59301 0.0
H21 H 0.30404 0.22723 0.03088 0.0
H22 H 0.99964 0.31461 0.54271 0.0
Cu23 Cu 0.3922 0.76935 0.22735 0.0
N24 N 0.34514 0.80144 0.02803 0.0
N25 N 0.29802 0.87963 0.93073 0.0
C26 C 0.33845 0.87148 0.03953 0.0
C27 C 0.27742 0.81151 0.85141 0.0
C28 C 0.30602 0.76333 0.91793 0.0
O29 O 0.43683 0.86317 0.28586 0.0
C30 C 0.33851 0.63928 0.41731 0.0
O31 O 0.3432 0.62433 0.16821 0.0
H32 H 0.36149 0.91504 0.14167 0.0
H33 H 0.29722 0.70412 0.90609 0.0
N34 N 0.4308 0.70832 0.09385 0.0
N35 N 0.47921 0.63047 0.16397 0.0
C36 C 0.44422 0.65847 0.25699 0.0
C37 C 0.46001 0.71376 0.8894 0.0
C38 C 0.48932 0.66494 0.93028 0.0
C39 C 0.45143 0.89539 0.06783 0.0
O40 O 0.43461 0.86483 0.8461 0.0
H41 H 0.43038 0.64592 0.44927 0.0
H42 H 0.46203 0.75291 0.72857 0.0
O43 O 0.35759 0.70368 0.50276 0.0
H44 H 0.24306 0.79697 0.76742 0.0
H45 H 0.51791 0.65946 0.80872 0.0
Cu46 Cu 0.89294 0.79015 0.56796 0.0
N47 N 0.85063 0.8199 0.81076 0.0
N48 N 0.80843 0.90249 0.93799 0.0
C49 C 0.84833 0.89224 0.83429 0.0
C50 C 0.78367 0.83413 -0.01798 0.0
C51 C 0.80891 0.78383 0.89677 0.0
O52 O 0.93457 0.88745 0.53839 0.0
C53 C 0.83246 0.66499 0.42677 0.0
O54 O 0.84284 0.65241 0.67246 0.0
H55 H 0.87346 0.93746 0.7547 0.0
H56 H 0.79549 0.72541 0.88136 0.0
N57 N 0.94237 0.73734 0.60064 0.0
N58 N 0.98733 0.65399 0.54959 0.0
C59 C 0.94528 0.66518 0.62183 0.0
C60 C 0.98363 0.76929 0.49527 0.0
C61 C 1.01121 0.7195 0.46974 0.0
C62 C 0.95539 0.90105 0.76284 0.0
O63 O 0.94273 0.85411 0.9577 0.0
H64 H 0.9168 0.62067 0.66743 0.0
H65 H 0.99282 0.82473 0.41903 0.0
O66 O 0.85136 0.72682 0.3199 0.0
H67 H 0.74827 0.82164 0.04771 0.0
H68 H 0.04504 0.72931 0.38133 0.0
Cu69 Cu 0.65168 0.28797 0.72729 0.0
N70 N 0.70103 0.26105 0.92467 0.0
N71 N 0.7483 0.17957 -0.02962 0.0
C72 C 0.70432 0.18948 -0.03918 0.0
C73 C 0.77426 0.24786 0.94186 0.0
C74 C 0.74539 0.29736 0.91525 0.0
O75 O 0.60847 0.19176 0.688 0.0
C76 C 0.70377 0.41432 0.5029 0.0
O77 O 0.6996 0.43335 0.74848 0.0
H78 H 0.67576 0.14386 0.93564 0.0
H79 H 0.75658 0.35468 0.86249 0.0
N80 N 0.61285 0.35124 0.84944 0.0
N81 N 0.56505 0.42989 0.76945 0.0
C82 C 0.59999 0.40074 0.68156 0.0
C83 C 0.58326 0.34785 0.05169 0.0
C84 C 0.55437 0.39678 0.00429 0.0
C85 C 0.59167 0.16364 0.90784 0.0
O86 O 0.60517 0.19998 0.12431 0.0
H87 H 0.61431 0.41251 0.49035 0.0
H88 H 0.58067 0.31045 0.21757 0.0
O89 O 0.68468 0.34841 0.43203 0.0
H90 H 0.81138 0.26042 0.92131 0.0
H91 H 0.52555 0.40312 0.122 0.0
C92 C 0.29819 1.00416 0.74455 0.0
C93 C 0.27985 0.94683 0.92459 0.0
C94 C 0.2324 1.02635 0.12346 0.0
C95 C 0.25045 0.08411 0.94091 0.0
N96 N 0.29815 0.12721 0.56827 0.0
N97 N 0.22649 0.89863 0.26626 0.0
C98 C 0.28298 0.07269 0.7496 0.0
C99 C 0.24551 0.95635 0.10565 0.0
N100 N 0.32935 0.99131 0.56392 0.0
N101 N 0.20595 0.04041 0.32831 0.0
H102 H 0.23823 0.84932 0.27383 0.0
H103 H 0.19773 0.89751 0.38298 0.0
H104 H 0.20081 0.09287 0.37152 0.0
H105 H 0.19321 1.00265 0.47608 0.0
H106 H 0.34526 0.02907 0.42369 0.0
H107 H 0.33948 0.94076 0.5543 0.0
H108 H 0.32242 0.12511 0.42402 0.0
H109 H 0.28456 0.17473 0.55329 0.0
C110 C 0.23021 0.51228 0.65792 0.0
C111 C 0.24459 0.4446 0.63272 0.0
C112 C 0.32418 0.51461 0.63316 0.0
C113 C 0.3084 0.5807 0.57697 0.0
N114 N 0.2435 0.63945 0.51307 0.0
N115 N 0.30721 0.38087 0.60356 0.0
C116 C 0.26056 0.57929 0.58915 0.0
C117 C 0.29236 0.44541 0.62849 0.0
N118 N 0.18672 0.51139 0.73909 0.0
N119 N 0.36952 0.5183 0.68928 0.0
H120 H 0.28442 0.32989 0.60395 0.0
H121 H 0.34144 0.37842 0.5689 0.0
H122 H 0.39169 0.56885 0.72031 0.0
H123 H 0.38306 0.47231 0.73962 0.0
H124 H 0.17455 0.55923 0.77649 0.0
H125 H 0.1662 0.46167 0.80055 0.0
H126 H 0.20829 0.63814 0.49287 0.0
H127 H 0.26467 0.68901 0.45389 0.0
C128 C 0.7977 0.09494 0.14231 0.0
C129 C 0.76392 0.10983 0.95918 0.0
C130 C 0.75839 0.98592 0.76773 0.0
C131 C 0.79283 0.97197 0.94705 0.0
N132 N 0.84818 1.01353 0.28892 0.0
N133 N 0.71871 0.07517 0.56529 0.0
C134 C 0.81355 1.02708 0.12808 0.0
C135 C 0.74548 0.05626 0.76546 0.0
N136 N 0.8127 0.14428 0.33895 0.0
N137 N 0.73946 0.93263 0.59154 0.0
H138 H 0.71435 0.12896 0.53341 0.0
H139 H 0.70504 0.0407 0.41135 0.0
H140 H 0.7524 0.88513 0.56248 0.0
H141 H 0.71026 0.93396 0.47748 0.0
H142 H 0.83507 0.13607 0.49042 0.0
H143 H 0.79945 0.19154 0.36668 0.0
H144 H 0.86798 0.05243 0.41163 0.0
H145 H 0.85846 0.96296 0.29259 0.0
C146 C 0.75052 0.60667 0.31171 0.0
C147 C 0.79798 0.60605 0.29547 0.0
C148 C 0.78014 0.47072 0.30302 0.0
C149 C 0.73275 0.47109 0.33122 0.0
N150 N 0.67273 0.53758 0.2427 0.0
N151 N 0.85443 0.5394 0.1607 0.0
C152 C 0.71796 0.53872 0.29327 0.0
C153 C 0.81135 0.53832 0.24959 0.0
N154 N 0.73669 0.67092 0.36271 0.0
N155 N 0.79604 0.40766 0.34992 0.0
H156 H 0.87564 0.58961 0.11039 0.0
H157 H 0.86565 0.49194 0.10623 0.0
H158 H 0.774 0.3574 0.39123 0.0
H159 H 0.83102 0.40649 0.36102 0.0
H160 H 0.7027 0.67329 0.40465 0.0
H161 H 0.76003 0.72118 0.37807 0.0
H162 H 0.66005 0.58506 0.20284 0.0
H163 H 0.64989 0.48815 0.20366 0.0
C164 C 1.01521 0.09678 0.91215 0.0
C165 C 0.05277 0.08535 0.07545 0.0
C166 C 0.03084 0.95288 -0.01222 0.0
C167 C 0.99391 0.96501 0.82041 0.0
N168 N 0.96143 0.05187 0.56077 0.0
N169 N 0.08806 0.999 0.32284 0.0
C170 C 0.98916 0.03785 0.76373 0.0
C171 C 0.05837 1.01246 0.12883 0.0
N172 N 1.00221 0.16342 0.9125 0.0
N173 N 0.04165 0.88464 -0.00184 0.0
H174 H 0.1079 0.03979 0.43784 0.0
H175 H 0.08922 0.94638 0.39314 0.0
H176 H 0.02306 0.83967 0.89688 0.0
H177 H 0.07153 0.87382 0.08577 0.0
H178 H 0.97202 0.17257 0.82331 0.0
H179 H 1.01869 0.20743 0.02643 0.0
H180 H 0.96083 0.10495 0.49252 0.0
H181 H 0.94376 1.01118 0.43683 0.0
C182 C 0.56447 0.03881 0.13223 0.0
C183 C 0.5578 0.09156 0.93349 0.0
C184 C 0.47858 1.02199 0.86959 0.0
C185 C 0.48665 0.96595 0.04856 0.0
N186 N 0.54129 0.91451 0.30749 0.0
N187 N 0.50938 0.12566 0.58565 0.0
C188 C 0.53058 0.97275 0.1695 0.0
C189 C 0.51539 0.08027 0.79197 0.0
N190 N 0.60303 0.05124 0.28905 0.0
N191 N 0.43476 1.02216 0.78435 0.0
H192 H 0.53301 0.1731 0.53325 0.0
H193 H 0.48199 0.11304 0.45208 0.0
H194 H 0.40661 0.98248 0.84316 0.0
H195 H 0.42552 0.06579 0.68023 0.0
H196 H 0.60592 1.02121 0.46122 0.0
H197 H 0.63126 0.09382 0.25901 0.0
H198 H 0.57458 0.91274 0.37129 0.0
H199 H 0.51805 0.86484 0.3384 0.0
C200 C 0.03936 0.57117 0.67198 0.0
C201 C 1.00278 0.58596 0.5137 0.0
C202 C 1.00257 0.47437 0.25625 0.0
C203 C 0.03932 0.45982 0.4139 0.0
N204 N 0.08392 0.48183 0.80977 0.0
N205 N 0.95801 0.56384 0.11777 0.0
C206 C 0.05588 0.50557 0.62992 0.0
C207 C 0.98604 0.54006 0.29802 0.0
N208 N 0.05813 0.62027 0.86234 0.0
N209 N 0.98377 0.42519 0.06631 0.0
H210 H 0.95071 0.61637 0.1277 0.0
H211 H 0.94583 0.53532 0.94759 0.0
H212 H 0.99761 0.37956 0.01907 0.0
H213 H 0.95354 0.42748 -0.0368 0.0
H214 H 0.0884 0.61813 -0.03473 0.0
H215 H 0.04418 0.66572 0.91056 0.0
H216 H 0.09634 0.51065 -0.02112 0.0
H217 H 0.09127 0.42932 0.79939 0.0
C218 C 0.54835 0.60083 0.39285 0.0
C219 C 0.50194 0.57889 0.30521 0.0
C220 C 0.49612 0.45931 0.53777 0.0
C221 C 0.5426 0.48115 0.62444 0.0
N222 N 0.61032 0.57617 0.67538 0.0
N223 N 0.43391 0.48427 0.25745 0.0
C224 C 0.56815 0.55263 0.55969 0.0
C225 C 0.47629 0.50754 0.37118 0.0
N226 N 0.57318 0.66868 0.32206 0.0
N227 N 0.47135 0.3914 0.60837 0.0
H228 H 0.41882 0.51828 0.13534 0.0
H229 H 0.41475 0.43063 0.26885 0.0
H230 H 0.48617 0.35114 0.69932 0.0
H231 H 0.43585 0.37511 0.58365 0.0
H232 H 0.60868 0.68484 0.34732 0.0
H233 H 0.55847 0.70885 0.22972 0.0
H234 H 0.62897 0.63019 0.66775 0.0
H235 H 0.62564 0.54199 0.79544 0.0
loop_
_geom_bond_atom_site_label_1
_geom_bond_atom_site_label_2
_geom_bond_distance
_geom_bond_site_symmetry_2
_ccdc_geom_bond_type
Cu0 N1 1.999 . S
Cu0 O6 1.974 . S
Cu0 N11 1.985 . S
Cu0 O20 1.959 . S
N1 Cu0 1.999 . S
N1 C3 1.263 . S
N1 C5 1.389 . S
N2 C3 1.358 . S
N2 C4 1.400 . S
C3 N1 1.263 . S
C3 N2 1.358 . S
C3 H9 0.930 . S
C4 N2 1.400 . S
C4 C5 1.351 . S
C4 H21 0.930 . S
C5 N1 1.389 . S
C5 C4 1.351 . S
C5 H10 0.930 . S
O6 Cu0 1.974 . S
O6 C16 1.282 . S
C7 O8 1.261 1_554 S
C7 O20 1.251 . S
O8 C7 1.261 1_556 S
H9 C3 0.930 . S
H10 C5 0.930 . S
N11 Cu0 1.985 . S
N11 C13 1.335 . S
N11 C14 1.390 . S
N12 C13 1.345 . S
N12 C15 1.336 . S
C13 N11 1.335 . S
C13 N12 1.345 . S
C13 H18 0.930 . S
C14 N11 1.390 . S
C14 C15 1.346 . S
C14 H19 0.930 . S
C15 N12 1.336 . S
C15 C14 1.346 . S
C15 H22 0.929 1_455 S
C16 O6 1.282 . S
C16 O17 1.216 1_554 S
O17 C16 1.216 1_556 S
H18 C13 0.930 . S
H19 C14 0.930 . S
O20 Cu0 1.959 . S
O20 C7 1.251 . S
H21 C4 0.930 . S
H22 C15 0.929 1_655 S
Cu23 N24 1.999 . S
Cu23 O29 1.974 . S
Cu23 N34 1.985 . S
Cu23 O43 1.959 . S
N24 Cu23 1.999 . S
N24 C26 1.263 . S
N24 C28 1.389 . S
N25 C26 1.358 . S
N25 C27 1.400 . S
C26 N24 1.263 . S
C26 N25 1.358 . S
C26 H32 0.930 . S
C27 N25 1.400 . S
C27 C28 1.351 . S
C27 H44 0.930 . S
C28 N24 1.389 . S
C28 C27 1.351 . S
C28 H33 0.930 . S
O29 Cu23 1.974 . S
O29 C39 1.282 . S
C30 O31 1.261 1_554 S
C30 O43 1.251 . S
O31 C30 1.261 1_556 S
H32 C26 0.930 . S
H33 C28 0.930 . S
N34 Cu23 1.985 . S
N34 C36 1.335 . S
N34 C37 1.390 . S
N35 C36 1.345 . S
N35 C38 1.336 . S
C36 N34 1.335 . S
C36 N35 1.345 . S
C36 H41 0.930 . S
C37 N34 1.390 . S
C37 C38 1.346 . S
C37 H42 0.930 . S
C38 N35 1.336 . S
C38 C37 1.346 . S
C38 H45 0.929 . S
C39 O29 1.282 . S
C39 O40 1.216 1_554 S
O40 C39 1.216 1_556 S
H41 C36 0.930 . S
H42 C37 0.930 . S
O43 Cu23 1.959 . S
O43 C30 1.251 . S
H44 C27 0.930 . S
H45 C38 0.929 . S
Cu46 N47 1.999 . S
Cu46 O52 1.974 . S
Cu46 N57 1.985 . S
Cu46 O66 1.959 . S
N47 Cu46 1.999 . S
N47 C49 1.263 . S
N47 C51 1.389 . S
N48 C49 1.358 . S
N48 C50 1.400 . S
C49 N47 1.263 . S
C49 N48 1.358 . S
C49 H55 0.930 . S
C50 N48 1.400 . S
C50 C51 1.351 . S
C50 H67 0.930 . S
C51 N47 1.389 . S
C51 C50 1.351 . S
C51 H56 0.930 . S
O52 Cu46 1.974 . S
O52 C62 1.282 . S
C53 O54 1.261 1_556 S
C53 O66 1.251 . S
O54 C53 1.261 1_554 S
H55 C49 0.930 . S
H56 C51 0.930 . S
N57 Cu46 1.985 . S
N57 C59 1.335 . S
N57 C60 1.390 . S
N58 C59 1.345 . S
N58 C61 1.336 . S
C59 N57 1.335 . S
C59 N58 1.345 . S
C59 H64 0.930 . S
C60 N57 1.390 . S
C60 C61 1.346 . S
C60 H65 0.930 . S
C61 N58 1.336 . S
C61 C60 1.346 . S
C61 H68 0.929 1_655 S
C62 O52 1.282 . S
C62 O63 1.216 1_556 S
O63 C62 1.216 1_554 S
H64 C59 0.930 . S
H65 C60 0.930 . S
O66 Cu46 1.959 . S
O66 C53 1.251 . S
H67 C50 0.930 . S
H68 C61 0.929 1_455 S
Cu69 N70 1.999 . S
Cu69 O75 1.974 . S
Cu69 N80 1.985 . S
Cu69 O89 1.959 . S
N70 Cu69 1.999 . S
N70 C72 1.263 . S
N70 C74 1.389 . S
N71 C72 1.358 . S
N71 C73 1.400 . S
C72 N70 1.263 . S
C72 N71 1.358 . S
C72 H78 0.930 . S
C73 N71 1.400 . S
C73 C74 1.351 . S
C73 H90 0.930 . S
C74 N70 1.389 . S
C74 C73 1.351 . S
C74 H79 0.930 . S
O75 Cu69 1.974 . S
O75 C85 1.282 . S
C76 O77 1.261 1_556 S
C76 O89 1.251 . S
O77 C76 1.261 1_554 S
H78 C72 0.930 . S
H79 C74 0.930 . S
N80 Cu69 1.985 . S
N80 C82 1.335 . S
N80 C83 1.390 . S
N81 C82 1.345 . S
N81 C84 1.336 . S
C82 N80 1.335 . S
C82 N81 1.345 . S
C82 H87 0.930 . S
C83 N80 1.390 . S
C83 C84 1.346 . S
C83 H88 0.930 . S
C84 N81 1.336 . S
C84 C83 1.346 . S
C84 H91 0.929 . S
C85 O75 1.282 . S
C85 O86 1.216 1_556 S
O86 C85 1.216 1_554 S
H87 C82 0.930 . S
H88 C83 0.930 . S
O89 Cu69 1.959 . S
O89 C76 1.251 . S
H90 C73 0.930 . S
H91 C84 0.929 . S
C92 C93 1.358 1_545 S
C92 C98 1.385 . S
C92 N100 1.353 1_544 S
C93 C92 1.358 1_565 S
C93 C99 1.363 . S
C94 C95 1.358 1_565 S
C94 C99 1.385 . S
C94 N101 1.353 1_565 S
C95 C94 1.358 1_545 S
C95 C98 1.363 . S
N96 C98 1.356 1_556 S
N96 H108 0.984 . S
N96 H109 0.985 . S
N97 C99 1.356 . S
N97 H102 0.984 . S
N97 H103 0.985 . S
C98 C92 1.385 . S
C98 C95 1.363 . S
C98 N96 1.356 1_554 S
C99 C93 1.363 . S
C99 C94 1.385 . S
C99 N97 1.356 . S
N100 C92 1.353 1_566 S
N100 H106 0.984 1_565 S
N100 H107 0.984 . S
N101 C94 1.353 1_545 S
N101 H104 0.984 . S
N101 H105 0.985 1_545 S
H102 N97 0.984 . S
H103 N97 0.985 . S
H104 N101 0.984 . S
H105 N101 0.985 1_565 S
H106 N100 0.984 1_545 S
H107 N100 0.984 . S
H108 N96 0.984 . S
H109 N96 0.985 . S
C110 C111 1.363 . S
C110 C116 1.379 . S
C110 N118 1.356 . S
C111 C110 1.363 . S
C111 C117 1.363 . S
C112 C113 1.363 . S
C112 C117 1.379 . S
C112 N119 1.356 1_554 S
C113 C112 1.363 . S
C113 C116 1.363 . S
N114 C116 1.356 . S
N114 H126 0.984 . S
N114 H127 0.985 . S
N115 C117 1.356 1_556 S
N115 H120 0.984 . S
N115 H121 0.985 . S
C116 C110 1.379 . S
C116 C113 1.363 . S
C116 N114 1.356 . S
C117 C111 1.363 . S
C117 C112 1.379 . S
C117 N115 1.356 1_554 S
N118 C110 1.356 . S
N118 H124 0.984 . S
N118 H125 0.984 . S
N119 C112 1.356 1_556 S
N119 H122 0.984 . S
N119 H123 0.985 . S
H120 N115 0.984 . S
H121 N115 0.985 . S
H122 N119 0.984 . S
H123 N119 0.985 . S
H124 N118 0.984 . S
H125 N118 0.984 . S
H126 N114 0.984 . S
H127 N114 0.985 . S
C128 C129 1.363 . S
C128 C134 1.385 . S
C128 N136 1.356 1_556 S
C129 C128 1.363 . S
C129 C135 1.358 1_545 S
C130 C131 1.363 . S
C130 C135 1.385 . S
C130 N137 1.356 . S
C131 C130 1.363 . S
C131 C134 1.358 1_565 S
N132 C134 1.353 1_564 S
N132 H144 0.984 1_565 S
N132 H145 0.985 . S
N133 C135 1.353 1_545 S
N133 H138 0.984 . S
N133 H139 0.985 1_545 S
C134 C128 1.385 . S
C134 C131 1.358 1_545 S
C134 N132 1.353 1_546 S
C135 C129 1.358 1_565 S
C135 C130 1.385 . S
C135 N133 1.353 1_565 S
N136 C128 1.356 1_554 S
N136 H142 0.984 . S
N136 H143 0.984 . S
N137 C130 1.356 . S
N137 H140 0.984 . S
N137 H141 0.985 . S
H138 N133 0.984 . S
H139 N133 0.985 1_565 S
H140 N137 0.984 . S
H141 N137 0.985 . S
H142 N136 0.984 . S
H143 N136 0.984 . S
H144 N132 0.984 1_545 S
H145 N132 0.985 . S
C146 C147 1.363 . S
C146 C152 1.379 . S
C146 N154 1.356 . S
C147 C146 1.363 . S
C147 C153 1.363 . S
C148 C149 1.363 . S
C148 C153 1.379 . S
C148 N155 1.356 1_556 S
C149 C148 1.363 . S
C149 C152 1.363 . S
N150 C152 1.356 . S
N150 H162 0.984 . S
N150 H163 0.985 . S
N151 C153 1.356 1_554 S
N151 H156 0.984 . S
N151 H157 0.985 . S
C152 C146 1.379 . S
C152 C149 1.363 . S
C152 N150 1.356 . S
C153 C147 1.363 . S
C153 C148 1.379 . S
C153 N151 1.356 1_556 S
N154 C146 1.356 . S
N154 H160 0.984 . S
N154 H161 0.984 . S
N155 C148 1.356 1_554 S
N155 H158 0.984 . S
N155 H159 0.985 . S
H156 N151 0.984 . S
H157 N151 0.985 . S
H158 N155 0.984 . S
H159 N155 0.985 . S
H160 N154 0.984 . S
H161 N154 0.984 . S
H162 N150 0.984 . S
H163 N150 0.985 . S
C164 C165 1.363 1_556 S
C164 C170 1.379 1_445 S
C164 N172 1.356 . S
C165 C164 1.363 1_554 S
C165 C171 1.363 . S
C166 C167 1.363 1_554 S
C166 C171 1.379 1_665 S
C166 N173 1.356 . S
C167 C166 1.363 1_556 S
C167 C170 1.363 . S
N168 C170 1.356 . S
N168 H180 0.984 . S
N168 H181 0.985 . S
N169 C171 1.356 . S
N169 H174 0.984 . S
N169 H175 0.985 . S
C170 C164 1.379 1_665 S
C170 C167 1.363 . S
C170 N168 1.356 . S
C171 C165 1.363 . S
C171 C166 1.379 1_445 S
C171 N169 1.356 . S
N172 C164 1.356 . S
N172 H178 0.984 . S
N172 H179 0.984 . S
N173 C166 1.356 . S
N173 H176 0.984 . S
N173 H177 0.985 . S
H174 N169 0.984 . S
H175 N169 0.985 . S
H176 N173 0.984 . S
H177 N173 0.985 . S
H178 N172 0.984 . S
H179 N172 0.984 . S
H180 N168 0.984 . S
H181 N168 0.985 . S
C182 C183 1.363 1_554 S
C182 C188 1.379 1_545 S
C182 N190 1.356 . S
C183 C182 1.363 1_556 S
C183 C189 1.363 . S
C184 C185 1.363 1_556 S
C184 C189 1.379 1_565 S
C184 N191 1.356 . S
C185 C184 1.363 1_554 S
C185 C188 1.363 . S
N186 C188 1.356 . S
N186 H198 0.984 . S
N186 H199 0.985 . S
N187 C189 1.356 . S
N187 H192 0.984 . S
N187 H193 0.985 . S
C188 C182 1.379 1_565 S
C188 C185 1.363 . S
C188 N186 1.356 . S
C189 C183 1.363 . S
C189 C184 1.379 1_545 S
C189 N187 1.356 . S
N190 C182 1.356 . S
N190 H196 0.984 . S
N190 H197 0.984 . S
N191 C184 1.356 . S
N191 H194 0.984 . S
N191 H195 0.985 . S
H192 N187 0.984 . S
H193 N187 0.985 . S
H194 N191 0.984 . S
H195 N191 0.985 . S
H196 N190 0.984 . S
H197 N190 0.984 . S
H198 N186 0.984 . S
H199 N186 0.985 . S
C200 C201 1.363 . S
C200 C206 1.379 1_655 S
C200 N208 1.356 . S
C201 C200 1.363 . S
C201 C207 1.363 . S
C202 C203 1.363 . S
C202 C207 1.379 1_455 S
C202 N209 1.356 . S
C203 C202 1.363 . S
C203 C206 1.363 . S
N204 C206 1.356 . S
N204 H216 0.984 1_556 S
N204 H217 0.985 . S
N205 C207 1.356 . S
N205 H210 0.984 . S
N205 H211 0.985 1_554 S
C206 C200 1.379 1_455 S
C206 C203 1.363 . S
C206 N204 1.356 . S
C207 C201 1.363 . S
C207 C202 1.379 1_655 S
C207 N205 1.356 . S
N208 C200 1.356 . S
N208 H214 0.984 1_656 S
N208 H215 0.984 . S
N209 C202 1.356 . S
N209 H212 0.984 . S
N209 H213 0.985 1_454 S
H210 N205 0.984 . S
H211 N205 0.985 1_556 S
H212 N209 0.984 . S
H213 N209 0.985 1_656 S
H214 N208 0.984 1_454 S
H215 N208 0.984 . S
H216 N204 0.984 1_554 S
H217 N204 0.985 . S
C218 C219 1.363 . S
C218 C224 1.379 . S
C218 N226 1.356 . S
C219 C218 1.363 . S
C219 C225 1.363 . S
C220 C221 1.363 . S
C220 C225 1.379 . S
C220 N227 1.356 . S
C221 C220 1.363 . S
C221 C224 1.363 . S
N222 C224 1.356 . S
N222 H234 0.984 1_556 S
N222 H235 0.985 . S
N223 C225 1.356 . S
N223 H228 0.984 . S
N223 H229 0.985 1_554 S
C224 C218 1.379 . S
C224 C221 1.363 . S
C224 N222 1.356 . S
C225 C219 1.363 . S
C225 C220 1.379 . S
C225 N223 1.356 . S
N226 C218 1.356 . S
N226 H232 0.984 1_556 S
N226 H233 0.984 . S
N227 C220 1.356 . S
N227 H230 0.984 . S
N227 H231 0.985 1_554 S
H228 N223 0.984 . S
H229 N223 0.985 1_556 S
H230 N227 0.984 . S
H231 N227 0.985 1_556 S
H232 N226 0.984 1_554 S
H233 N226 0.984 . S
H234 N222 0.984 1_554 S
H235 N222 0.985 . S
C93 N25 1.453 . S
C95 N2 1.453 . S
C111 C7 1.496 . S
C113 C30 1.496 . S
C129 N71 1.453 . S
C131 N48 1.453 . S
C147 C53 1.497 . S
C149 C76 1.497 . S
C165 C16 1.483 . S
C167 C62 1.483 . S
C183 C85 1.483 . S
C185 C39 1.483 . S
C201 N58 1.470 . S
C203 N12 1.470 . S
C219 N35 1.470 . S
C221 N81 1.470 . S
