# Generated by pormake.
# Topology wlj, (5)-cn, num edge types: 1
# Building blocks:
#     Node 0, Type 0, BuildingBlock: XOMCOT_clean_sbu_0, # of connection points: 5
#     Node 1, Type 0, BuildingBlock: XOMCOT_clean_sbu_0, # of connection points: 5
#     Node 2, Type 0, BuildingBlock: XOMCOT_clean_sbu_0, # of connection points: 5
#     Node 3, Type 0, BuildingBlock: XOMCOT_clean_sbu_0, # of connection points: 5
#     Node 4, Type 0, BuildingBlock: XOMCOT_clean_sbu_0, # of connection points: 5
#     Node 5, Type 0, BuildingBlock: XOMCOT_clean_sbu_0, # of connection points: 5
#     Edge 6, Type (0, 0), None
#     Edge 7, Type (0, 0), None
#     Edge 8, Type (0, 0), None
#     Edge 9, Type (0, 0), None
#     Edge 10, Type (0, 0), None
#     Edge 11, Type (0, 0), None
#     Edge 12, Type (0, 0), None
#     Edge 13, Type (0, 0), None
#     Edge 14, Type (0, 0), None
#     Edge 15, Type (0, 0), None
#     Edge 16, Type (0, 0), None
#     Edge 17, Type (0, 0), None
#     Edge 18, Type (0, 0), None
#     Edge 19, Type (0, 0), None
#     Edge 20, Type (0, 0), None
# Relax obj value: 0.176
# Max RMSD: 0.202
# Mean RMSD: 0.202
data_MOF--net-wlj--node1-XOMCOT_clean_sbu_0--edge1-none
_symmetry_space_group_name_H-M    P1
_symmetry_Int_Tables_number       1
_symmetry_cell_setting            triclinic
loop_
_symmetry_equiv_pos_as_xyz
'x, y, z'
_cell_length_a     12.350226
_cell_length_b     12.350999
_cell_length_c     26.833261
_cell_angle_alpha  89.999543
_cell_angle_beta   90.001336
_cell_angle_gamma 120.00544
loop_
_atom_site_label
_atom_site_type_symbol
_atom_site_fract_x
_atom_site_fract_y
_atom_site_fract_z
_atom_type_partial_charge
Co0 Co 0.64865 0.25657 0.2946 0.0
C1 C 0.64363 0.45965 0.23401 0.0
C2 C 0.50868 0.27263 0.21181 0.0
C3 C 0.4974 0.35352 0.18066 0.0
N4 N 0.60162 0.33816 0.24465 0.0
N5 N 0.58182 0.4706 0.19442 0.0
H6 H 0.71575 0.53738 0.25482 0.0
H7 H 0.4498 0.17211 0.21125 0.0
C8 C 0.66765 0.07763 0.22733 0.0
O9 O 0.77387 0.10497 0.24879 0.0
N10 N 0.68348 0.15482 0.34277 0.0
C11 C 0.79388 0.16601 0.35746 0.0
C12 C 0.77503 0.05283 0.3755 0.0
C13 C 0.59932 1.03235 0.35291 0.0
N14 N 0.65272 0.9679 0.37228 0.0
C15 C 0.91129 0.42504 0.29976 0.0
C16 C 0.95808 0.43571 0.19853 0.0
C17 C 1.05297 0.51734 0.23051 0.0
C18 C 1.02969 0.50942 0.28178 0.0
C19 C 0.84055 0.35279 0.2181 0.0
N20 N 0.81882 0.34474 0.26848 0.0
H21 H 0.89203 0.42873 0.33881 0.0
H22 H 0.76503 0.30171 0.19213 0.0
H23 H 0.88503 0.24672 0.35322 0.0
H24 H 0.50109 0.98926 0.34353 0.0
O25 O 0.67098 0.3835 0.34331 0.0
O26 O 0.49012 0.21487 0.32771 0.0
O27 O 0.59789 0.11673 0.24537 0.0
C28 C 0.55092 0.32542 0.34878 0.0
H29 H 0.42773 0.32856 0.15171 0.0
H30 H 0.84651 1.03466 0.38971 0.0
H31 H 0.97098 0.44456 0.1585 0.0
H32 H 0.1 0.57481 0.30729 0.0
Co33 Co 0.86441 0.41629 0.96125 0.0
C34 C 0.66133 0.20816 0.90065 0.0
C35 C 0.84836 0.26023 0.87848 0.0
C36 C 0.76748 0.16806 0.84733 0.0
N37 N 0.78282 0.28765 0.91131 0.0
N38 N 0.65039 0.1354 0.86107 0.0
H39 H 0.58359 0.20256 0.92145 0.0
H40 H 0.94889 0.30187 0.87794 0.0
C41 C 1.04334 0.61422 0.89396 0.0
O42 O 1.01601 0.69311 0.91541 0.0
N43 N 0.96616 0.55289 1.00941 0.0
C44 C 0.955 0.65213 1.02408 0.0
C45 C 1.06819 0.74646 0.04213 0.0
C46 C 0.08862 0.5912 1.01957 0.0
N47 N 0.15309 0.70906 0.03894 0.0
C48 C 0.69593 0.51042 0.9664 0.0
C49 C 0.68523 0.54649 0.86516 0.0
C50 C 0.60361 0.55976 0.89714 0.0
C51 C 0.61155 0.54443 0.94841 0.0
C52 C 0.76815 0.5119 0.88474 0.0
N53 N 0.77623 0.49825 0.93512 0.0
H54 H 0.69226 0.48749 1.00545 0.0
H55 H 0.81923 0.48747 0.85878 0.0
H56 H 0.87432 0.66259 1.01981 0.0
H57 H 0.13169 0.53604 1.01021 0.0
O58 O 0.73747 0.31168 1.00996 0.0
O59 O 0.90612 0.2995 0.99437 0.0
O60 O 1.00425 0.50537 0.91202 0.0
C61 C 0.79557 0.24973 1.01544 0.0
H62 H 0.79244 0.12334 0.81839 0.0
H63 H 0.08638 0.83613 0.05632 0.0
H64 H 0.67637 0.55054 0.82514 0.0
H65 H 0.54617 0.54936 0.97393 0.0
Co66 Co 0.70462 0.47226 0.62791 0.0
C67 C 0.91272 0.47728 0.56731 0.0
C68 C 0.86069 0.61226 0.54514 0.0
C69 C 0.95285 0.62353 0.51398 0.0
N70 N 0.83326 0.5193 0.57797 0.0
N71 N 0.98549 0.53909 0.52772 0.0
H72 H 0.9183 0.40514 0.58812 0.0
H73 H 0.81908 0.67115 0.54459 0.0
C74 C 0.50669 0.45328 0.56063 0.0
O75 O 0.42778 0.34704 0.58207 0.0
N76 N 0.56803 0.43742 0.67607 0.0
C77 C 0.46878 0.32702 0.69075 0.0
C78 C 0.37445 0.34587 0.7088 0.0
C79 C 0.52974 0.52158 0.68622 0.0
N80 N 0.41187 0.46818 0.70559 0.0
C81 C 0.61044 0.20964 0.63307 0.0
C82 C 0.57435 0.16286 0.53183 0.0
C83 C 0.56108 0.06797 0.56381 0.0
C84 C 0.57642 0.09125 0.61508 0.0
C85 C 0.60895 0.28037 0.55141 0.0
N86 N 0.62261 0.3021 0.60179 0.0
H87 H 0.63338 0.2289 0.67212 0.0
H88 H 0.63339 0.35589 0.52544 0.0
H89 H 0.4583 0.23587 0.68649 0.0
H90 H 0.58491 0.61981 0.67686 0.0
O91 O 0.80923 0.44993 0.67662 0.0
O92 O 0.82146 0.63077 0.66103 0.0
O93 O 0.61556 0.52303 0.57868 0.0
C94 C 0.87121 0.56998 0.68209 0.0
H95 H 0.99758 0.69321 0.48504 0.0
H96 H 0.28478 0.27439 0.72299 0.0
H97 H 0.5703 0.14995 0.49181 0.0
H98 H 0.57149 1.02095 0.6406 0.0
Co99 Co 0.28079 0.6245 0.77749 0.0
C100 C 0.48388 0.61935 0.83804 0.0
C101 C 0.29685 0.48451 0.86026 0.0
C102 C 0.37773 0.47311 0.89138 0.0
N103 N 0.36238 0.57745 0.82743 0.0
N104 N 0.49482 0.5574 0.87757 0.0
H105 H 0.56162 0.69148 0.81723 0.0
H106 H 0.19631 0.4257 0.86085 0.0
C107 C 0.10192 0.64353 0.8448 0.0
O108 O 0.12929 0.74979 0.82337 0.0
N109 N 0.17904 0.65936 0.72933 0.0
C110 C 0.19016 0.76976 0.71469 0.0
C111 C 0.07698 0.75089 0.69663 0.0
C112 C 1.05659 0.57517 0.71915 0.0
N113 N 0.99212 0.62855 0.69977 0.0
C114 C 0.44929 0.88712 0.7723 0.0
C115 C 0.46008 0.93398 0.87354 0.0
C116 C 0.54162 1.02885 0.84153 0.0
C117 C 0.53366 1.00554 0.79027 0.0
C118 C 0.37716 0.81643 0.85398 0.0
N119 N 0.36902 0.79467 0.8036 0.0
H120 H 0.4529 0.86783 0.73325 0.0
H121 H 0.3261 0.74093 0.87996 0.0
H122 H 0.2708 0.86093 0.719 0.0
H123 H 1.01352 0.47693 0.7285 0.0
O124 O 0.4077 0.64682 0.72876 0.0
O125 O 0.23903 0.46597 0.74438 0.0
O126 O 0.14098 0.57376 0.82673 0.0
C127 C 0.3496 0.52677 0.72331 0.0
H128 H 0.35277 0.40346 0.92033 0.0
H129 H 1.05876 0.82237 0.68247 0.0
H130 H 0.46898 0.94693 0.91356 0.0
H131 H 0.59899 0.07585 0.76474 0.0
Co132 Co 0.4964 0.68045 0.44416 0.0
C133 C 0.50152 0.88866 0.5047 0.0
C134 C 0.63637 0.83651 0.52694 0.0
C135 C 0.64775 0.92878 0.55806 0.0
N136 N 0.54343 0.80909 0.4941 0.0
N137 N 0.56345 0.96155 0.54425 0.0
H138 H 0.42939 0.89425 0.48389 0.0
H139 H 0.69518 0.7948 0.52753 0.0
C140 C 0.47738 0.48256 0.51146 0.0
O141 O 0.37111 0.40365 0.49003 0.0
N142 N 0.46155 0.54385 0.396 0.0
C143 C 0.35115 0.44457 0.38135 0.0
C144 C 0.37001 0.35026 0.36329 0.0
C145 C 0.54574 0.5056 0.38583 0.0
N146 N 0.49236 0.38776 0.36645 0.0
C147 C 0.23377 0.58628 0.43897 0.0
C148 C 0.18689 0.55019 0.5402 0.0
C149 C 0.09202 0.53686 0.50819 0.0
C150 C 0.11534 0.55221 0.45693 0.0
C151 C 0.30444 0.58483 0.52064 0.0
N152 N 0.32621 0.59847 0.47026 0.0
H153 H 0.25306 0.6092 0.39992 0.0
H154 H 0.37995 0.60927 0.54662 0.0
H155 H 0.25997 0.43403 0.38565 0.0
H156 H 0.64398 0.56078 0.39518 0.0
O157 O 0.47408 0.78504 0.39544 0.0
O158 O 0.65494 0.79727 0.41105 0.0
O159 O 0.54714 0.59139 0.4934 0.0
C160 C 0.59414 0.84703 0.38999 0.0
H161 H 0.71739 0.97348 0.58701 0.0
H162 H 0.29853 0.26056 0.34913 0.0
H163 H 0.17394 0.54613 0.58022 0.0
H164 H 1.04503 0.54724 0.43139 0.0
Co165 Co 0.44052 0.84016 0.11084 0.0
C166 C 0.23229 0.63708 0.1714 0.0
C167 C 0.28443 0.8241 0.19361 0.0
C168 C 0.19216 0.74321 0.22473 0.0
N169 N 0.31186 0.75857 0.16078 0.0
N170 N 0.1594 0.62614 0.21093 0.0
H171 H 0.22671 0.55935 0.1506 0.0
H172 H 0.32614 0.92462 0.19418 0.0
C173 C 0.6384 1.01904 0.17817 0.0
O174 O 0.71732 0.99168 0.15675 0.0
N175 N 0.57715 0.94193 0.06269 0.0
C176 C 0.67646 0.93084 0.04807 0.0
C177 C 0.77076 1.04402 1.03 0.0
C178 C 0.61538 0.06435 0.0525 0.0
N179 N 0.73324 0.12884 1.03312 0.0
C180 C 0.53466 0.67171 0.10566 0.0
C181 C 0.5707 0.66089 0.2069 0.0
C182 C 0.58404 0.57936 0.17489 0.0
C183 C 0.56871 0.58734 0.12362 0.0
C184 C 0.53609 0.74381 0.18734 0.0
N185 N 0.52247 0.75196 0.13696 0.0
H186 H 0.51177 0.66811 0.06661 0.0
H187 H 0.51165 0.79487 0.21332 0.0
H188 H 0.68702 0.85023 0.0524 0.0
H189 H 0.56018 0.10739 0.06184 0.0
O190 O 0.33592 0.71326 0.06212 0.0
O191 O 0.32373 0.8819 0.07773 0.0
O192 O 0.52958 0.97997 0.16008 0.0
C193 C 0.27396 0.77134 0.05666 0.0
H194 H 0.14745 0.76816 0.25367 0.0
H195 H 0.86049 0.06226 1.01585 0.0
H196 H 0.57475 0.65198 0.24692 0.0
H197 H 0.57369 0.52203 0.09809 0.0
loop_
_geom_bond_atom_site_label_1
_geom_bond_atom_site_label_2
_geom_bond_distance
_geom_bond_site_symmetry_2
_ccdc_geom_bond_type
Co0 N4 2.148 . S
Co0 N10 2.128 . S
Co0 N20 2.194 . S
Co0 O25 2.351 . S
Co0 O26 2.155 . S
Co0 O27 2.096 . S
C1 N4 1.301 . S
C1 N5 1.328 . S
C1 H6 0.930 . S
C2 C3 1.333 . S
C2 N4 1.317 . S
C2 H7 0.930 . S
C3 C2 1.333 . S
C3 N5 1.350 . S
C3 H29 0.931 . S
N4 Co0 2.148 . S
N4 C1 1.301 . S
N4 C2 1.317 . S
N5 C1 1.328 . S
N5 C3 1.350 . S
H6 C1 0.930 . S
H7 C2 0.930 . S
C8 O9 1.224 . S
C8 O27 1.247 . S
O9 C8 1.224 . S
N10 Co0 2.128 . S
N10 C11 1.355 . S
N10 C13 1.311 . S
C11 N10 1.355 . S
C11 C12 1.363 . S
C11 H23 0.929 . S
C12 C11 1.363 . S
C12 N14 1.375 . S
C12 H30 0.931 . S
C13 N10 1.311 . S
C13 N14 1.347 . S
C13 H24 0.929 . S
N14 C12 1.375 . S
N14 C13 1.347 . S
C15 C18 1.365 . S
C15 N20 1.328 . S
C15 H21 0.929 . S
C16 C17 1.362 . S
C16 C19 1.378 . S
C16 H31 0.929 . S
C17 C16 1.362 . S
C17 C18 1.366 . S
C18 C15 1.365 . S
C18 C17 1.366 . S
C18 H32 0.930 . S
C19 C16 1.378 . S
C19 N20 1.315 . S
C19 H22 0.930 . S
N20 Co0 2.194 . S
N20 C15 1.328 . S
N20 C19 1.315 . S
H21 C15 0.929 . S
H22 C19 0.930 . S
H23 C11 0.929 . S
H24 C13 0.929 . S
O25 Co0 2.351 . S
O25 C28 1.244 . S
O26 Co0 2.155 . S
O26 C28 1.240 . S
O27 Co0 2.096 . S
O27 C8 1.247 . S
C28 O25 1.244 . S
C28 O26 1.240 . S
H29 C3 0.931 . S
H30 C12 0.931 . S
H31 C16 0.929 . S
H32 C18 0.930 . S
Co33 N37 2.148 . S
Co33 N43 2.128 . S
Co33 N53 2.194 . S
Co33 O58 2.351 . S
Co33 O59 2.155 . S
Co33 O60 2.096 . S
C34 N37 1.301 . S
C34 N38 1.328 1_545 S
C34 H39 0.930 . S
C35 C36 1.333 1_545 S
C35 N37 1.317 . S
C35 H40 0.930 . S
C36 C35 1.333 1_565 S
C36 N38 1.350 . S
C36 H62 0.931 . S
N37 Co33 2.148 . S
N37 C34 1.301 . S
N37 C35 1.317 . S
N38 C34 1.328 1_565 S
N38 C36 1.350 . S
H39 C34 0.930 . S
H40 C35 0.930 . S
C41 O42 1.224 . S
C41 O60 1.247 . S
O42 C41 1.224 . S
N43 Co33 2.128 . S
N43 C44 1.355 . S
N43 C46 1.311 . S
C44 N43 1.355 . S
C44 C45 1.363 1_556 S
C44 H56 0.929 . S
C45 C44 1.363 1_554 S
C45 N47 1.375 1_554 S
C45 H63 0.931 . S
C46 N43 1.311 . S
C46 N47 1.347 . S
C46 H57 0.929 . S
N47 C45 1.375 1_556 S
N47 C46 1.347 . S
C48 C51 1.365 . S
C48 N53 1.328 . S
C48 H54 0.929 . S
C49 C50 1.362 . S
C49 C52 1.378 . S
C49 H64 0.929 . S
C50 C49 1.362 . S
C50 C51 1.366 . S
C51 C48 1.365 . S
C51 C50 1.366 . S
C51 H65 0.930 . S
C52 C49 1.378 . S
C52 N53 1.315 . S
C52 H55 0.930 . S
N53 Co33 2.194 . S
N53 C48 1.328 . S
N53 C52 1.315 . S
H54 C48 0.929 . S
H55 C52 0.930 . S
H56 C44 0.929 . S
H57 C46 0.929 . S
O58 Co33 2.351 . S
O58 C61 1.244 . S
O59 Co33 2.155 . S
O59 C61 1.240 . S
O60 Co33 2.096 . S
O60 C41 1.247 . S
C61 O58 1.244 . S
C61 O59 1.240 . S
H62 C36 0.931 . S
H63 C45 0.931 . S
H64 C49 0.929 . S
H65 C51 0.930 . S
Co66 N70 2.148 . S
Co66 N76 2.128 . S
Co66 N86 2.194 . S
Co66 O91 2.351 . S
Co66 O92 2.155 . S
Co66 O93 2.096 . S
C67 N70 1.301 . S
C67 N71 1.328 1_655 S
C67 H72 0.930 . S
C68 C69 1.333 1_655 S
C68 N70 1.317 . S
C68 H73 0.930 . S
C69 C68 1.333 1_455 S
C69 N71 1.350 . S
C69 H95 0.931 . S
N70 Co66 2.148 . S
N70 C67 1.301 . S
N70 C68 1.317 . S
N71 C67 1.328 1_455 S
N71 C69 1.350 . S
H72 C67 0.930 . S
H73 C68 0.930 . S
C74 O75 1.224 . S
C74 O93 1.247 . S
O75 C74 1.224 . S
N76 Co66 2.128 . S
N76 C77 1.355 . S
N76 C79 1.311 . S
C77 N76 1.355 . S
C77 C78 1.363 . S
C77 H89 0.929 . S
C78 C77 1.363 . S
C78 N80 1.375 . S
C78 H96 0.931 . S
C79 N76 1.311 . S
C79 N80 1.347 . S
C79 H90 0.929 . S
N80 C78 1.375 . S
N80 C79 1.347 . S
C81 C84 1.365 . S
C81 N86 1.328 . S
C81 H87 0.929 . S
C82 C83 1.362 . S
C82 C85 1.378 . S
C82 H97 0.929 . S
C83 C82 1.362 . S
C83 C84 1.366 . S
C84 C81 1.365 . S
C84 C83 1.366 . S
C84 H98 0.930 . S
C85 C82 1.378 . S
C85 N86 1.315 . S
C85 H88 0.930 . S
N86 Co66 2.194 . S
N86 C81 1.328 . S
N86 C85 1.315 . S
H87 C81 0.929 . S
H88 C85 0.930 . S
H89 C77 0.929 . S
H90 C79 0.929 . S
O91 Co66 2.351 . S
O91 C94 1.244 . S
O92 Co66 2.155 . S
O92 C94 1.240 . S
O93 Co66 2.096 . S
O93 C74 1.247 . S
C94 O91 1.244 . S
C94 O92 1.240 . S
H95 C69 0.931 . S
H96 C78 0.931 . S
H97 C82 0.929 . S
H98 C84 0.930 . S
Co99 N103 2.148 . S
Co99 N109 2.128 . S
Co99 N119 2.194 . S
Co99 O124 2.351 . S
Co99 O125 2.155 . S
Co99 O126 2.096 . S
C100 N103 1.301 . S
C100 N104 1.328 . S
C100 H105 0.930 . S
C101 C102 1.333 . S
C101 N103 1.317 . S
C101 H106 0.930 . S
C102 C101 1.333 . S
C102 N104 1.350 . S
C102 H128 0.931 . S
N103 Co99 2.148 . S
N103 C100 1.301 . S
N103 C101 1.317 . S
N104 C100 1.328 . S
N104 C102 1.350 . S
H105 C100 0.930 . S
H106 C101 0.930 . S
C107 O108 1.224 . S
C107 O126 1.247 . S
O108 C107 1.224 . S
N109 Co99 2.128 . S
N109 C110 1.355 . S
N109 C112 1.311 . S
C110 N109 1.355 . S
C110 C111 1.363 . S
C110 H122 0.929 . S
C111 C110 1.363 . S
C111 N113 1.375 . S
C111 H129 0.931 . S
C112 N109 1.311 . S
C112 N113 1.347 . S
C112 H123 0.929 . S
N113 C111 1.375 . S
N113 C112 1.347 . S
C114 C117 1.365 . S
C114 N119 1.328 . S
C114 H120 0.929 . S
C115 C116 1.362 . S
C115 C118 1.378 . S
C115 H130 0.929 . S
C116 C115 1.362 . S
C116 C117 1.366 . S
C117 C114 1.365 . S
C117 C116 1.366 . S
C117 H131 0.930 . S
C118 C115 1.378 . S
C118 N119 1.315 . S
C118 H121 0.930 . S
N119 Co99 2.194 . S
N119 C114 1.328 . S
N119 C118 1.315 . S
H120 C114 0.929 . S
H121 C118 0.930 . S
H122 C110 0.929 . S
H123 C112 0.929 . S
O124 Co99 2.351 . S
O124 C127 1.244 . S
O125 Co99 2.155 . S
O125 C127 1.240 . S
O126 Co99 2.096 . S
O126 C107 1.247 . S
C127 O124 1.244 . S
C127 O125 1.240 . S
H128 C102 0.931 . S
H129 C111 0.931 . S
H130 C115 0.929 . S
H131 C117 0.930 . S
Co132 N136 2.148 . S
Co132 N142 2.128 . S
Co132 N152 2.194 . S
Co132 O157 2.351 . S
Co132 O158 2.155 . S
Co132 O159 2.096 . S
C133 N136 1.301 . S
C133 N137 1.328 1_565 S
C133 H138 0.930 . S
C134 C135 1.333 1_565 S
C134 N136 1.317 . S
C134 H139 0.930 . S
C135 C134 1.333 1_545 S
C135 N137 1.350 . S
C135 H161 0.931 . S
N136 Co132 2.148 . S
N136 C133 1.301 . S
N136 C134 1.317 . S
N137 C133 1.328 1_545 S
N137 C135 1.350 . S
H138 C133 0.930 . S
H139 C134 0.930 . S
C140 O141 1.224 . S
C140 O159 1.247 . S
O141 C140 1.224 . S
N142 Co132 2.128 . S
N142 C143 1.355 . S
N142 C145 1.311 . S
C143 N142 1.355 . S
C143 C144 1.363 . S
C143 H155 0.929 . S
C144 C143 1.363 . S
C144 N146 1.375 . S
C144 H162 0.931 . S
C145 N142 1.311 . S
C145 N146 1.347 . S
C145 H156 0.929 . S
N146 C144 1.375 . S
N146 C145 1.347 . S
C147 C150 1.365 . S
C147 N152 1.328 . S
C147 H153 0.929 . S
C148 C149 1.362 . S
C148 C151 1.378 . S
C148 H163 0.929 . S
C149 C148 1.362 . S
C149 C150 1.366 . S
C150 C147 1.365 . S
C150 C149 1.366 . S
C150 H164 0.930 . S
C151 C148 1.378 . S
C151 N152 1.315 . S
C151 H154 0.930 . S
N152 Co132 2.194 . S
N152 C147 1.328 . S
N152 C151 1.315 . S
H153 C147 0.929 . S
H154 C151 0.930 . S
H155 C143 0.929 . S
H156 C145 0.929 . S
O157 Co132 2.351 . S
O157 C160 1.244 . S
O158 Co132 2.155 . S
O158 C160 1.240 . S
O159 Co132 2.096 . S
O159 C140 1.247 . S
C160 O157 1.244 . S
C160 O158 1.240 . S
H161 C135 0.931 . S
H162 C144 0.931 . S
H163 C148 0.929 . S
H164 C150 0.930 . S
Co165 N169 2.148 . S
Co165 N175 2.128 . S
Co165 N185 2.194 . S
Co165 O190 2.351 . S
Co165 O191 2.155 . S
Co165 O192 2.096 . S
C166 N169 1.301 . S
C166 N170 1.328 1_455 S
C166 H171 0.930 . S
C167 C168 1.333 1_455 S
C167 N169 1.317 . S
C167 H172 0.930 . S
C168 C167 1.333 1_655 S
C168 N170 1.350 . S
C168 H194 0.931 . S
N169 Co165 2.148 . S
N169 C166 1.301 . S
N169 C167 1.317 . S
N170 C166 1.328 1_655 S
N170 C168 1.350 . S
H171 C166 0.930 . S
H172 C167 0.930 . S
C173 O174 1.224 . S
C173 O192 1.247 . S
O174 C173 1.224 . S
N175 Co165 2.128 . S
N175 C176 1.355 . S
N175 C178 1.311 . S
C176 N175 1.355 . S
C176 C177 1.363 1_554 S
C176 H188 0.929 . S
C177 C176 1.363 1_556 S
C177 N179 1.375 1_556 S
C177 H195 0.931 . S
C178 N175 1.311 . S
C178 N179 1.347 . S
C178 H189 0.929 . S
N179 C177 1.375 1_554 S
N179 C178 1.347 . S
C180 C183 1.365 . S
C180 N185 1.328 . S
C180 H186 0.929 . S
C181 C182 1.362 . S
C181 C184 1.378 . S
C181 H196 0.929 . S
C182 C181 1.362 . S
C182 C183 1.366 . S
C183 C180 1.365 . S
C183 C182 1.366 . S
C183 H197 0.930 . S
C184 C181 1.378 . S
C184 N185 1.315 . S
C184 H187 0.930 . S
N185 Co165 2.194 . S
N185 C180 1.328 . S
N185 C184 1.315 . S
H186 C180 0.929 . S
H187 C184 0.930 . S
H188 C176 0.929 . S
H189 C178 0.929 . S
O190 Co165 2.351 . S
O190 C193 1.244 . S
O191 Co165 2.155 . S
O191 C193 1.240 . S
O192 Co165 2.096 . S
O192 C173 1.247 . S
C193 O190 1.244 . S
C193 O191 1.240 . S
H194 C168 0.931 . S
H195 C177 0.931 . S
H196 C181 0.929 . S
H197 C183 0.930 . S
C8 C173 2.091 1_545 S
C107 C41 2.091 1_455 S
C140 C74 2.091 . S
C182 N5 1.188 . S
C116 N38 1.188 . S
N71 C149 1.188 . S
C50 N104 1.188 . S
C83 N137 1.188 . S
N170 C17 1.188 . S
C160 N14 1.884 1_565 S
N47 C193 1.884 1_656 S
C127 N80 1.884 . S
N113 C94 1.884 1_455 S
C28 N146 1.884 . S
C61 N179 1.884 1_546 S
