# Generated by pormake.
# Topology pcu, (6)-cn, num edge types: 1
# Building blocks:
#     Node 0, Type 0, BuildingBlock: BETDEL_clean_sbu_0, # of connection points: 6
#     Edge 1, Type (0, 0), BuildingBlock: MIFKUJ_clean_linker_0, # of connection points: 2
#     Edge 2, Type (0, 0), BuildingBlock: MIFKUJ_clean_linker_0, # of connection points: 2
#     Edge 3, Type (0, 0), BuildingBlock: MIFKUJ_clean_linker_0, # of connection points: 2
# Relax obj value: 0.000
# Max RMSD: 0.000
# Mean RMSD: 0.000
data_MOF--net-pcu--node1-BETDEL_clean_sbu_0--edge1-MIFKUJ_clean_linker_0
_symmetry_space_group_name_H-M    P1
_symmetry_Int_Tables_number       1
_symmetry_cell_setting            triclinic
loop_
_symmetry_equiv_pos_as_xyz
'x, y, z'
_cell_length_a     19.504811
_cell_length_b     22.595564
_cell_length_c     18.997454
_cell_angle_alpha  95.460805
_cell_angle_beta   86.715972
_cell_angle_gamma 118.22412
loop_
_atom_site_label
_atom_site_type_symbol
_atom_site_fract_x
_atom_site_fract_y
_atom_site_fract_z
_atom_type_partial_charge
Dy0 Dy 0.03291 0.07955 0.0102 0.0
C1 C 0.96942 0.80705 0.00845 0.0
C2 C 0.04437 0.20447 1.00674 0.0
Dy3 Dy 0.98093 0.93202 1.00528 0.0
O4 O 0.02494 0.16946 0.06132 0.0
O5 O 0.05941 0.17183 0.95314 0.0
O6 O 0.09141 0.09417 0.11259 0.0
O7 O 0.98637 1.00577 0.09062 0.0
C8 C 0.04071 0.03665 0.13456 0.0
C9 C 0.97322 0.97533 0.881 0.0
O10 O 0.86541 0.92616 0.03251 0.0
O11 O 0.90414 0.03149 0.99299 0.0
O12 O 0.98902 0.84222 0.95398 0.0
O13 O 0.95422 0.83956 0.06208 0.0
O14 O 0.92237 0.91781 0.90288 0.0
O15 O 0.02757 1.00577 0.92495 0.0
O16 O 0.14843 0.08538 0.98308 0.0
O17 O 0.10965 0.9801 0.02274 0.0
C18 C 0.8495 0.97311 0.01361 0.0
C19 C 0.16432 0.03846 1.00211 0.0
H20 H 0.91364 0.94752 0.20661 0.0
H21 H 0.90243 0.93596 0.33452 0.0
H22 H 0.14479 0.08139 0.35789 0.0
H23 H 0.15619 0.09328 0.23046 0.0
H24 H 0.09939 0.97385 0.44145 0.0
H25 H 0.01538 0.1335 0.38983 0.0
H26 H 0.93749 0.17216 0.32852 0.0
H27 H 0.72738 0.01589 0.41239 0.0
H28 H 0.80405 0.97558 0.47331 0.0
H29 H 0.10054 0.06438 0.80914 0.0
H30 H 0.11198 0.07614 0.68126 0.0
H31 H 0.86948 0.93116 0.6576 0.0
H32 H 0.85787 0.91909 0.78499 0.0
H33 H 0.91506 0.03857 0.57418 0.0
H34 H 0.99896 0.87885 0.62572 0.0
H35 H 0.07677 0.84007 0.68698 0.0
H36 H 0.28698 0.99634 0.60325 0.0
H37 H 0.21039 0.03677 0.54237 0.0
C38 C 0.96472 0.97612 0.23899 0.0
C39 C 0.03558 0.02179 0.20906 0.0
C40 C 0.95819 0.96972 0.31192 0.0
C41 C 0.02257 0.00855 0.35565 0.0
C42 C 0.09442 0.05119 0.32509 0.0
C43 C 0.10077 0.05807 0.25243 0.0
C44 C 0.0142 0.00795 0.43361 0.0
C45 C 0.05971 0.98864 0.47058 0.0
C46 C 0.96164 0.02646 0.47136 0.0
C47 C 0.91541 0.05105 0.43548 0.0
C48 C 0.95253 0.10703 0.39473 0.0
C49 C 0.90862 0.1293 0.36012 0.0
C50 C 0.82752 0.09638 0.36637 0.0
C51 C 0.7902 0.04126 0.40748 0.0
C52 C 0.83386 0.0187 0.44209 0.0
C53 C 0.04949 0.03593 0.7767 0.0
C54 C 0.97852 0.99033 0.80654 0.0
C55 C 0.05614 0.04243 0.70379 0.0
C56 C 0.99178 1.00377 0.65998 0.0
C57 C 0.91984 0.96121 0.69045 0.0
C58 C 0.91337 0.95425 0.76309 0.0
C59 C 1.00025 1.00447 0.58203 0.0
C60 C 0.95475 0.02379 0.54506 0.0
C61 C 0.05281 0.98595 0.54428 0.0
C62 C 0.09898 0.9613 0.58014 0.0
C63 C 0.06181 0.90529 0.62083 0.0
C64 C 0.10568 0.88296 0.65543 0.0
C65 C 0.18678 0.91585 0.6492 0.0
C66 C 0.22415 0.971 0.60814 0.0
C67 C 0.18054 0.99363 0.57355 0.0
H68 H 0.22065 0.89851 0.67606 0.0
H69 H 0.79361 0.11367 0.3395 0.0
H70 H 0.26154 0.04986 0.89031 0.0
H71 H 0.38207 0.04049 0.89221 0.0
H72 H 0.36517 0.04093 0.11967 0.0
H73 H 0.24383 0.04834 0.11755 0.0
H74 H 0.5239 0.11708 0.0595 0.0
H75 H 0.29374 0.90068 0.04513 0.0
H76 H 0.16831 0.81521 0.99477 0.0
H77 H 0.28111 0.81015 0.79513 0.0
H78 H 0.40716 0.89655 0.84409 0.0
H79 H 0.75248 0.96207 0.12548 0.0
H80 H 0.63198 0.97147 0.12355 0.0
H81 H 0.6485 0.97036 0.89604 0.0
H82 H 0.7698 0.96288 0.89818 0.0
H83 H 0.48998 0.89459 0.95617 0.0
H84 H 0.72007 0.1109 0.97039 0.0
H85 H 0.84556 0.19645 0.02058 0.0
H86 H 0.73298 0.20177 0.22028 0.0
H87 H 0.60689 0.1153 0.17149 0.0
C88 C 0.28532 0.05027 0.94063 0.0
C89 C 0.24471 0.05046 1.00384 0.0
C90 C 0.35356 0.04454 0.94171 0.0
C91 C 0.38195 0.03976 1.00611 0.0
C92 C 0.34423 0.04492 0.06963 0.0
C93 C 0.2753 0.04924 0.0684 0.0
C94 C 0.44538 0.02166 1.00682 0.0
C95 C 0.5164 0.06831 0.03751 0.0
C96 C 0.43531 0.95812 0.97751 0.0
C97 C 0.35976 0.90568 0.94805 0.0
C98 C 0.2917 0.88187 0.99028 0.0
C99 C 0.22049 0.83316 0.96204 0.0
C100 C 0.2167 0.80738 0.89174 0.0
C101 C 0.28414 0.83021 0.84958 0.0
C102 C 0.3555 0.87904 0.87756 0.0
C103 C 0.72862 0.96151 0.07515 0.0
C104 C 0.7691 0.9611 0.01192 0.0
C105 C 0.6604 0.96727 0.07405 0.0
C106 C 0.63191 0.97188 0.00963 0.0
C107 C 0.66951 0.96651 0.9461 0.0
C108 C 0.73841 0.96214 0.94734 0.0
C109 C 0.5685 0.99 0.00886 0.0
C110 C 0.49748 0.94336 0.97816 0.0
C111 C 0.57858 0.05355 0.03814 0.0
C112 C 0.65416 0.10603 0.06751 0.0
C113 C 0.72217 0.12978 0.02522 0.0
C114 C 0.79341 0.17854 0.05336 0.0
C115 C 0.79728 0.20442 0.12363 0.0
C116 C 0.72989 0.18164 0.16585 0.0
C117 C 0.65851 0.13277 0.13797 0.0
H118 H 0.85244 0.24224 0.1453 0.0
H119 H 0.16157 0.76959 0.86999 0.0
H120 H 0.94328 0.73055 0.12048 0.0
H121 H 0.95601 0.6274 0.12051 0.0
H122 H 0.01645 0.63807 0.8983 0.0
H123 H 1.00284 0.73993 0.89783 0.0
H124 H 0.91466 0.5114 0.92708 0.0
H125 H 0.15717 0.68814 0.021 0.0
H126 H 0.24022 0.78446 0.1029 0.0
H127 H 0.14396 0.66253 0.27877 0.0
H128 H 0.05999 0.56552 0.19805 0.0
H129 H 0.07029 0.28077 0.89456 0.0
H130 H 0.05758 0.38392 0.89441 0.0
H131 H 0.9975 0.37359 0.1167 0.0
H132 H 0.01111 0.27175 0.11729 0.0
H133 H 0.09914 0.50011 0.08783 0.0
H134 H 0.85663 0.32342 0.99406 0.0
H135 H 0.77349 0.22704 0.91227 0.0
H136 H 0.86956 0.34881 0.73626 0.0
H137 H 0.95364 0.44587 0.81687 0.0
C138 C 0.95857 0.71036 0.07167 0.0
C139 C 0.9719 0.74295 0.00918 0.0
C140 C 0.96631 0.65182 0.07177 0.0
C141 C 0.98784 0.62543 0.00947 0.0
C142 C 0.99963 0.65741 0.94687 0.0
C143 C 0.99188 0.71565 0.94675 0.0
C144 C 0.99887 0.56481 0.00911 0.0
C145 C 0.95563 0.5092 0.96169 0.0
C146 C 0.05135 0.56153 0.05505 0.0
C147 C 0.10174 0.61981 0.1036 0.0
C148 C 0.15328 0.68203 0.0772 0.0
C149 C 0.20059 0.7367 0.12336 0.0
C150 C 0.19709 0.72971 0.19595 0.0
C151 C 0.1465 0.66791 0.22254 0.0
C152 C 0.09915 0.61304 0.17662 0.0
C153 C 0.05508 0.30103 0.94335 0.0
C154 C 0.04186 0.26855 1.00591 0.0
C155 C 0.04735 0.35957 0.94319 0.0
C156 C 0.02592 0.38607 1.00549 0.0
C157 C 0.01424 0.35418 0.06814 0.0
C158 C 0.02199 0.29595 0.06832 0.0
C159 C 0.01493 0.4467 1.00581 0.0
C160 C 0.05817 0.50231 0.05322 0.0
C161 C 0.96245 0.44997 0.95987 0.0
C162 C 0.91198 0.39167 0.91138 0.0
C163 C 0.86046 0.32948 0.93785 0.0
C164 C 0.81309 0.27477 0.89175 0.0
C165 C 0.81651 0.2817 0.81916 0.0
C166 C 0.86708 0.34347 0.7925 0.0
C167 C 0.9145 0.39838 0.83835 0.0
H168 H 0.7798 0.23927 0.78359 0.0
H169 H 0.23376 0.77212 0.23157 0.0
loop_
_geom_bond_atom_site_label_1
_geom_bond_atom_site_label_2
_geom_bond_distance
_geom_bond_site_symmetry_2
_ccdc_geom_bond_type
Dy0 O4 2.398 . S
Dy0 O5 2.491 1_554 S
Dy0 O6 2.403 . S
Dy0 O7 2.663 1_545 S
Dy0 O11 2.326 1_455 S
Dy0 O15 2.309 1_454 S
Dy0 O16 2.351 . S
C1 O12 1.185 . S
C1 O13 1.355 1_556 S
C2 O4 1.185 . S
C2 O5 1.355 1_554 S
Dy3 O7 2.309 1_656 S
Dy3 O10 2.351 . S
Dy3 O12 2.398 . S
Dy3 O13 2.491 1_556 S
Dy3 O14 2.403 . S
Dy3 O15 2.663 1_565 S
Dy3 O17 2.326 1_655 S
O4 Dy0 2.398 . S
O4 C2 1.185 . S
O5 Dy0 2.491 1_556 S
O5 C2 1.355 1_556 S
O6 Dy0 2.403 . S
O6 C8 1.254 . S
O7 Dy0 2.663 1_565 S
O7 Dy3 2.309 1_454 S
O7 C8 1.267 1_565 S
C8 O6 1.254 . S
C8 O7 1.267 1_545 S
C9 O14 1.254 . S
C9 O15 1.267 1_565 S
O10 Dy3 2.351 . S
O10 C18 1.249 1_556 S
O11 Dy0 2.326 1_655 S
O11 C18 1.267 1_545 S
O12 C1 1.185 . S
O12 Dy3 2.398 . S
O13 C1 1.355 1_554 S
O13 Dy3 2.491 1_554 S
O14 Dy3 2.403 . S
O14 C9 1.254 . S
O15 Dy0 2.309 1_656 S
O15 Dy3 2.663 1_545 S
O15 C9 1.267 1_545 S
O16 Dy0 2.351 . S
O16 C19 1.249 1_554 S
O17 Dy3 2.326 1_455 S
O17 C19 1.267 1_565 S
C18 O10 1.249 1_554 S
C18 O11 1.267 1_565 S
C19 O16 1.249 1_556 S
C19 O17 1.267 1_545 S
H20 C38 0.951 . S
H21 C40 0.951 . S
H22 C42 0.950 . S
H23 C43 0.950 . S
H24 C45 0.954 . S
H25 C48 0.950 . S
H26 C49 0.950 . S
H27 C51 0.950 . S
H28 C52 0.950 . S
H29 C53 0.951 . S
H30 C55 0.951 . S
H31 C57 0.950 . S
H32 C58 0.950 . S
H33 C60 0.946 . S
H34 C63 0.950 . S
H35 C64 0.950 . S
H36 C66 0.950 . S
H37 C67 0.950 . S
C38 H20 0.951 . S
C38 C39 1.368 1_645 S
C38 C40 1.388 . S
C39 C38 1.368 1_465 S
C39 C43 1.382 . S
C40 H21 0.951 . S
C40 C38 1.388 . S
C40 C41 1.366 1_655 S
C41 C40 1.366 1_455 S
C41 C42 1.414 1_545 S
C41 C44 1.499 . S
C42 H22 0.950 . S
C42 C41 1.414 1_565 S
C42 C43 1.374 . S
C43 H23 0.950 . S
C43 C39 1.382 . S
C43 C42 1.374 . S
C44 C41 1.499 . S
C44 C45 1.369 1_545 S
C44 C46 1.389 . S
C45 H24 0.954 . S
C45 C44 1.369 1_565 S
C45 C61 1.377 1_455 S
C46 C44 1.389 . S
C46 C47 1.524 . S
C46 C60 1.377 1_455 S
C47 C46 1.524 . S
C47 C48 1.397 . S
C47 C52 1.363 1_455 S
C48 H25 0.950 . S
C48 C47 1.397 . S
C48 C49 1.334 . S
C49 H26 0.950 . S
C49 C48 1.334 . S
C49 C50 1.287 . S
C50 C49 1.287 . S
C50 C51 1.524 1_455 S
C50 H69 0.913 . S
C51 H27 0.950 . S
C51 C50 1.524 1_655 S
C51 C52 1.415 . S
C52 H28 0.950 . S
C52 C47 1.363 1_655 S
C52 C51 1.415 . S
C53 H29 0.951 . S
C53 C54 1.365 1_565 S
C53 C55 1.388 . S
C54 C53 1.365 1_545 S
C54 C58 1.385 1_455 S
C55 H30 0.951 . S
C55 C53 1.388 . S
C55 C56 1.366 1_455 S
C56 C55 1.366 1_655 S
C56 C57 1.414 1_565 S
C56 C59 1.499 . S
C57 H31 0.950 . S
C57 C56 1.414 1_545 S
C57 C58 1.374 . S
C58 H32 0.950 . S
C58 C54 1.385 1_655 S
C58 C57 1.374 . S
C59 C56 1.499 . S
C59 C60 1.371 1_565 S
C59 C61 1.389 . S
C60 H33 0.946 . S
C60 C46 1.377 1_655 S
C60 C59 1.371 1_545 S
C61 C45 1.377 1_655 S
C61 C59 1.389 . S
C61 C62 1.524 . S
C62 C61 1.524 . S
C62 C63 1.397 . S
C62 C67 1.363 1_655 S
C63 H34 0.950 . S
C63 C62 1.397 . S
C63 C64 1.334 . S
C64 H35 0.950 . S
C64 C63 1.334 . S
C64 C65 1.287 . S
C65 C64 1.287 . S
C65 C66 1.524 1_655 S
C65 H68 0.999 . S
C66 H36 0.950 . S
C66 C65 1.524 1_455 S
C66 C67 1.415 . S
C67 H37 0.950 . S
C67 C62 1.363 1_455 S
C67 C66 1.415 . S
H68 C65 0.999 . S
H69 C50 0.913 . S
H70 C88 0.951 . S
H71 C90 0.951 . S
H72 C92 0.950 . S
H73 C93 0.950 . S
H74 C95 0.950 . S
H75 C98 0.950 1_554 S
H76 C99 0.950 . S
H77 C101 0.950 . S
H78 C102 0.950 . S
H79 C103 0.951 . S
H80 C105 0.951 . S
H81 C107 0.950 . S
H82 C108 0.950 . S
H83 C110 0.950 . S
H84 C113 0.950 1_556 S
H85 C114 0.950 . S
H86 C116 0.950 . S
H87 C117 0.950 . S
C88 H70 0.951 . S
C88 C89 1.365 1_566 S
C88 C90 1.388 . S
C89 C88 1.365 1_544 S
C89 C93 1.384 . S
C90 H71 0.951 . S
C90 C88 1.388 . S
C90 C91 1.355 1_556 S
C91 C90 1.355 1_554 S
C91 C92 1.424 1_565 S
C91 C94 1.500 . S
C92 H72 0.950 . S
C92 C91 1.424 1_545 S
C92 C93 1.374 . S
C93 H73 0.950 . S
C93 C89 1.384 . S
C93 C92 1.374 . S
C94 C91 1.500 . S
C94 C95 1.373 1_565 S
C94 C96 1.389 1_554 S
C95 H74 0.950 . S
C95 C94 1.373 1_545 S
C95 C111 1.377 . S
C96 C94 1.389 1_556 S
C96 C97 1.524 . S
C96 C110 1.377 . S
C97 C96 1.524 . S
C97 C98 1.397 . S
C97 C102 1.363 . S
C98 H75 0.950 1_556 S
C98 C97 1.397 . S
C98 C99 1.334 . S
C99 H76 0.950 . S
C99 C98 1.334 . S
C99 C100 1.287 . S
C100 C99 1.287 . S
C100 C101 1.524 . S
C100 H119 0.913 . S
C101 H77 0.950 . S
C101 C100 1.524 . S
C101 C102 1.415 . S
C102 H78 0.950 . S
C102 C97 1.363 . S
C102 C101 1.415 . S
C103 H79 0.951 . S
C103 C104 1.366 1_545 S
C103 C105 1.388 . S
C104 C103 1.366 1_565 S
C104 C108 1.385 1_554 S
C105 H80 0.951 . S
C105 C103 1.388 . S
C105 C106 1.358 1_554 S
C106 C105 1.358 1_556 S
C106 C107 1.421 1_545 S
C106 C109 1.499 . S
C107 H81 0.950 . S
C107 C106 1.421 1_565 S
C107 C108 1.374 . S
C108 H82 0.950 . S
C108 C104 1.385 1_556 S
C108 C107 1.374 . S
C109 C106 1.499 . S
C109 C110 1.373 1_545 S
C109 C111 1.389 1_556 S
C110 H83 0.950 . S
C110 C96 1.377 . S
C110 C109 1.373 1_565 S
C111 C95 1.377 . S
C111 C109 1.389 1_554 S
C111 C112 1.524 . S
C112 C111 1.524 . S
C112 C113 1.397 . S
C112 C117 1.363 . S
C113 H84 0.950 1_554 S
C113 C112 1.397 . S
C113 C114 1.334 . S
C114 H85 0.950 . S
C114 C113 1.334 . S
C114 C115 1.287 . S
C115 C114 1.287 . S
C115 C116 1.524 . S
C115 H118 0.999 . S
C116 H86 0.950 . S
C116 C115 1.524 . S
C116 C117 1.415 . S
C117 H87 0.950 . S
C117 C112 1.363 . S
C117 C116 1.415 . S
H118 C115 0.999 . S
H119 C100 0.913 . S
H120 C138 0.951 . S
H121 C140 0.951 . S
H122 C142 0.950 . S
H123 C143 0.950 . S
H124 C145 0.950 . S
H125 C148 0.950 . S
H126 C149 0.950 . S
H127 C151 0.950 . S
H128 C152 0.950 . S
H129 C153 0.951 . S
H130 C155 0.951 . S
H131 C157 0.950 . S
H132 C158 0.950 . S
H133 C160 0.950 . S
H134 C163 0.950 . S
H135 C164 0.950 . S
H136 C166 0.950 . S
H137 C167 0.950 . S
C138 H120 0.951 . S
C138 C139 1.367 1_654 S
C138 C140 1.388 . S
C139 C138 1.367 1_456 S
C139 C143 1.383 . S
C140 H121 0.951 . S
C140 C138 1.388 . S
C140 C141 1.366 1_655 S
C141 C140 1.366 1_455 S
C141 C142 1.414 1_554 S
C141 C144 1.499 . S
C142 H122 0.950 . S
C142 C141 1.414 1_556 S
C142 C143 1.374 . S
C143 H123 0.950 . S
C143 C139 1.383 . S
C143 C142 1.374 . S
C144 C141 1.499 . S
C144 C145 1.373 1_554 S
C144 C146 1.386 . S
C145 H124 0.950 . S
C145 C144 1.373 1_556 S
C145 C161 1.382 1_455 S
C146 C144 1.386 . S
C146 C147 1.523 . S
C146 C160 1.384 1_455 S
C147 C146 1.523 . S
C147 C148 1.397 . S
C147 C152 1.363 1_455 S
C148 H125 0.950 . S
C148 C147 1.397 . S
C148 C149 1.334 . S
C149 H126 0.950 . S
C149 C148 1.334 . S
C149 C150 1.287 . S
C150 C149 1.287 . S
C150 C151 1.524 1_455 S
C150 H169 0.913 . S
C151 H127 0.950 . S
C151 C150 1.524 1_655 S
C151 C152 1.415 . S
C152 H128 0.950 . S
C152 C147 1.363 1_655 S
C152 C151 1.415 . S
C153 H129 0.951 . S
C153 C154 1.365 1_556 S
C153 C155 1.388 . S
C154 C153 1.365 1_554 S
C154 C158 1.385 1_455 S
C155 H130 0.951 . S
C155 C153 1.388 . S
C155 C156 1.366 1_455 S
C156 C155 1.366 1_655 S
C156 C157 1.414 1_556 S
C156 C159 1.499 . S
C157 H131 0.950 . S
C157 C156 1.414 1_554 S
C157 C158 1.374 . S
C158 H132 0.950 . S
C158 C154 1.385 1_655 S
C158 C157 1.374 . S
C159 C156 1.499 . S
C159 C160 1.373 1_556 S
C159 C161 1.387 . S
C160 H133 0.950 . S
C160 C146 1.384 1_655 S
C160 C159 1.373 1_554 S
C161 C145 1.382 1_655 S
C161 C159 1.387 . S
C161 C162 1.523 . S
C162 C161 1.523 . S
C162 C163 1.397 . S
C162 C167 1.363 1_655 S
C163 H134 0.950 . S
C163 C162 1.397 . S
C163 C164 1.334 . S
C164 H135 0.950 . S
C164 C163 1.334 . S
C164 C165 1.287 . S
C165 C164 1.287 . S
C165 C166 1.524 1_655 S
C165 H168 0.999 . S
C166 H136 0.950 . S
C166 C165 1.524 1_455 S
C166 C167 1.415 . S
C167 H137 0.950 . S
C167 C162 1.363 1_455 S
C167 C166 1.415 . S
H168 C165 0.999 . S
H169 C150 0.913 . S
C39 C8 1.458 1_565 S
C54 C9 1.457 1_445 S
C89 C19 1.492 1_554 S
C104 C18 1.490 . S
C139 C1 1.482 1_455 S
C154 C2 1.483 . S
