# Generated by pormake.
# Topology bnn, (5)-cn, num edge types: 1
# Building blocks:
#     Node 0, Type 0, BuildingBlock: XOMCOT_clean_sbu_0, # of connection points: 5
#     Node 1, Type 0, BuildingBlock: XOMCOT_clean_sbu_0, # of connection points: 5
#     Edge 2, Type (0, 0), BuildingBlock: XIVTED_clean_linker_0, # of connection points: 2
#     Edge 3, Type (0, 0), BuildingBlock: XIVTED_clean_linker_0, # of connection points: 2
#     Edge 4, Type (0, 0), BuildingBlock: XIVTED_clean_linker_0, # of connection points: 2
#     Edge 5, Type (0, 0), BuildingBlock: XIVTED_clean_linker_0, # of connection points: 2
#     Edge 6, Type (0, 0), BuildingBlock: XIVTED_clean_linker_0, # of connection points: 2
# Relax obj value: 0.023
# Max RMSD: 0.078
# Mean RMSD: 0.078
data_MOF--net-bnn--node1-XOMCOT_clean_sbu_0--edge1-XIVTED_clean_linker_0
_symmetry_space_group_name_H-M    P1
_symmetry_Int_Tables_number       1
_symmetry_cell_setting            triclinic
loop_
_symmetry_equiv_pos_as_xyz
'x, y, z'
_cell_length_a     30.134376
_cell_length_b     27.419674
_cell_length_c     17.726394
_cell_angle_alpha  101.01533
_cell_angle_beta   89.332473
_cell_angle_gamma 123.14988
loop_
_atom_site_label
_atom_site_type_symbol
_atom_site_fract_x
_atom_site_fract_y
_atom_site_fract_z
_atom_type_partial_charge
Co0 Co 0.32853 0.69362 0.04513 0.0
C1 C 0.32149 0.69585 0.21261 0.0
C2 C 0.3313 0.77326 0.18285 0.0
C3 C 0.32844 0.7782 0.26114 0.0
N4 N 0.32726 0.7219 0.15273 0.0
N5 N 0.32238 0.72957 0.27989 0.0
H6 H 0.31729 0.65357 0.2072 0.0
H7 H 0.33573 0.8048 0.14998 0.0
C8 C 0.42431 0.80106 0.99739 0.0
O9 O 0.42923 0.76715 0.93949 0.0
N10 N 0.32879 0.66542 0.93623 0.0
C11 C 0.33268 0.61961 0.90252 0.0
C12 C 0.32791 0.61304 0.82363 0.0
C13 C 0.32053 0.68513 0.87709 0.0
N14 N 0.32047 0.65438 0.80774 0.0
C15 C 0.35186 0.61208 0.08066 0.0
C16 C 0.46165 0.68654 0.10027 0.0
C17 C 0.43755 0.62603 0.10118 0.0
C18 C 0.38183 0.58924 0.0932 0.0
C19 C 0.42994 0.70783 0.08772 0.0
N20 N 0.3756 0.66996 0.07412 0.0
H21 H 0.30914 0.58162 0.07252 0.0
H22 H 0.44973 0.7546 0.08897 0.0
H23 H 0.3382 0.59211 0.93199 0.0
H24 H 0.31489 0.72144 0.88492 0.0
O25 O 0.26059 0.61982 0.04307 0.0
O26 O 0.27042 0.70122 0.01915 0.0
O27 O 0.38932 0.77803 0.04372 0.0
C28 C 0.23844 0.64605 0.02515 0.0
H29 H 0.33 0.8145 0.30085 0.0
H30 H 0.33066 0.5809 0.78135 0.0
H31 H 0.50464 0.71716 0.10872 0.0
H32 H 0.3611 0.54218 0.09305 0.0
Co33 Co 0.66002 0.35719 0.02718 0.0
C34 C 0.64962 0.35363 0.85838 0.0
C35 C 0.58584 0.2744 0.88982 0.0
C36 C 0.57728 0.26869 0.81166 0.0
N37 N 0.63144 0.32737 0.91905 0.0
N38 N 0.6175 0.31849 0.79173 0.0
H39 H 0.68543 0.39733 0.86249 0.0
H40 H 0.56011 0.2423 0.92326 0.0
C41 C 0.6423 0.24832 0.08069 0.0
O42 O 0.67571 0.28133 0.14363 0.0
N43 N 0.6874 0.38719 0.136 0.0
C44 C 0.7374 0.43164 0.16753 0.0
C45 C 0.73927 0.44037 0.24681 0.0
C46 C 0.6592 0.37094 0.1967 0.0
N47 N 0.69019 0.40184 0.26507 0.0
C48 C 0.76145 0.43259 0.97697 0.0
C49 C 0.8072 0.37243 1.00206 0.0
C50 C 0.83945 0.42863 0.98368 0.0
C51 C 0.81509 0.45735 0.96798 0.0
C52 C 0.75298 0.34838 1.00883 0.0
N53 N 0.73094 0.37944 0.99919 0.0
H54 H 0.74537 0.45814 0.9688 0.0
H55 H 0.73013 0.30598 0.02449 0.0
H56 H 0.77052 0.45625 0.13573 0.0
H57 H 0.61709 0.33617 0.19071 0.0
O58 O 0.6672 0.43143 0.0269 0.0
O59 O 0.59476 0.35197 0.05295 0.0
O60 O 0.63577 0.27234 0.03035 0.0
C61 C 0.61894 0.40699 0.04541 0.0
H62 H 0.54345 0.23104 0.77298 0.0
H63 H 0.77447 0.47154 0.28774 0.0
H64 H 0.82398 0.34818 1.01446 0.0
H65 H 0.83756 0.4998 0.95093 0.0
H66 H 0.41909 0.53915 0.17751 0.0
H67 H 0.6565 0.51554 1.01348 0.0
H68 H 0.52821 0.65214 0.03321 0.0
H69 H 0.52503 0.37685 0.10628 0.0
H70 H 0.61619 0.57292 0.03495 0.0
H71 H 0.46428 0.48691 0.16773 0.0
C72 C 0.45268 0.55323 0.14402 0.0
C73 C 0.46938 0.5998 0.10533 0.0
C74 C 0.59611 0.52998 0.05068 0.0
C75 C 0.52162 0.54033 0.09464 0.0
C76 C 0.61909 0.49712 0.03848 0.0
C77 C 0.59394 0.44117 0.05788 0.0
C78 C 0.54773 0.50706 0.08313 0.0
C79 C 0.54558 0.41964 0.0901 0.0
C80 C 0.47847 0.52335 0.13859 0.0
C81 C 0.51404 0.61689 0.06446 0.0
N82 N 0.52404 0.45269 0.10187 0.0
N83 N 0.53837 0.58695 0.05984 0.0
H84 H 0.8975 0.37908 0.94105 0.0
H85 H 0.17933 0.69338 1.01598 0.0
H86 H 0.91663 0.54831 0.03108 0.0
H87 H 0.16432 0.52656 1.00722 0.0
H88 H 0.08184 0.63969 1.00156 0.0
H89 H 0.9947 0.43148 0.94719 0.0
C90 C 0.92188 0.42707 0.96211 0.0
C91 C 0.89841 0.45914 0.98503 0.0
C92 C 0.09996 0.61488 1.00265 0.0
C93 C 1.00963 0.51937 0.9908 0.0
C94 C 0.15552 0.64546 1.01059 0.0
C95 C 0.17984 0.61439 1.01321 0.0
C96 C 0.0686 0.55275 0.99634 0.0
C97 C 0.14713 0.55227 1.00599 0.0
C98 C 0.97736 0.45695 0.96522 0.0
C99 C 0.93241 0.52154 1.01088 0.0
N100 N 0.09316 0.52344 0.99777 0.0
N101 N 0.9861 0.5495 1.01281 0.0
H102 H 0.45002 0.8833 0.13229 0.0
H103 H 0.59475 0.16636 0.94272 0.0
H104 H 0.47955 0.86899 0.89285 0.0
H105 H 0.62337 0.17994 0.18615 0.0
H106 H 0.5447 0.05724 0.92188 0.0
H107 H 0.50582 0.9922 0.15219 0.0
C108 C 0.46838 0.90307 0.08392 0.0
C109 C 0.4602 0.86698 1.01078 0.0
C110 C 0.56224 0.08421 0.97972 0.0
C111 C 0.52349 0.99168 0.03302 0.0
C112 C 0.5906 0.14644 0.99174 0.0
C113 C 0.61336 0.18237 0.06633 0.0
C114 C 0.55562 0.05766 0.04291 0.0
C115 C 0.60678 0.15405 0.12764 0.0
C116 C 0.50035 0.96523 0.09542 0.0
C117 C 0.4851 0.89513 0.95028 0.0
N118 N 0.57813 0.09342 0.1147 0.0
N119 N 0.5152 0.95583 0.96252 0.0
H120 H 0.34947 0.75948 0.77268 0.0
H121 H 0.27814 0.62119 0.31656 0.0
H122 H 0.28214 0.57362 0.67061 0.0
H123 H 0.35833 0.80951 0.41813 0.0
H124 H 0.27426 0.60186 0.44606 0.0
H125 H 0.34661 0.77743 0.64353 0.0
C126 C 0.33355 0.72232 0.72321 0.0
C127 C 0.31622 0.665 0.73248 0.0
C128 C 0.29259 0.64741 0.43994 0.0
C129 C 0.31342 0.6853 0.58433 0.0
C130 C 0.29511 0.65854 0.36587 0.0
C131 C 0.31874 0.71714 0.35604 0.0
C132 C 0.31383 0.69517 0.50485 0.0
C133 C 0.33917 0.76356 0.42256 0.0
C134 C 0.33229 0.73265 0.6494 0.0
C135 C 0.29666 0.61867 0.6661 0.0
N136 N 0.33634 0.75158 0.49399 0.0
N137 N 0.29589 0.62985 0.59488 0.0
H138 H 0.73419 0.48311 0.40161 0.0
H139 H 0.57348 0.23821 0.65357 0.0
H140 H 0.61383 0.29798 0.30289 0.0
H141 H 0.67856 0.427 0.75327 0.0
H142 H 0.58735 0.2595 0.52508 0.0
H143 H 0.71424 0.46379 0.53092 0.0
C144 C 0.70345 0.43843 0.40713 0.0
C145 C 0.67577 0.39208 0.34124 0.0
C146 C 0.60722 0.29632 0.57508 0.0
C147 C 0.6527 0.36953 0.48925 0.0
C148 C 0.59913 0.28423 0.64883 0.0
C149 C 0.62486 0.3308 0.71511 0.0
C150 C 0.64156 0.35544 0.56698 0.0
C151 C 0.6584 0.38944 0.70439 0.0
C152 C 0.69193 0.42746 0.48099 0.0
C153 C 0.63581 0.33519 0.3519 0.0
N154 N 0.66588 0.40001 0.63188 0.0
N155 N 0.62576 0.32545 0.42443 0.0
loop_
_geom_bond_atom_site_label_1
_geom_bond_atom_site_label_2
_geom_bond_distance
_geom_bond_site_symmetry_2
_ccdc_geom_bond_type
Co0 N4 2.148 . S
Co0 N10 2.128 1_554 S
Co0 N20 2.194 . S
Co0 O25 2.351 . S
Co0 O26 2.155 . S
Co0 O27 2.096 . S
C1 N4 1.301 . S
C1 N5 1.328 . S
C1 H6 0.930 . S
C2 C3 1.333 . S
C2 N4 1.317 . S
C2 H7 0.930 . S
C3 C2 1.333 . S
C3 N5 1.350 . S
C3 H29 0.931 . S
N4 Co0 2.148 . S
N4 C1 1.301 . S
N4 C2 1.317 . S
N5 C1 1.328 . S
N5 C3 1.350 . S
H6 C1 0.930 . S
H7 C2 0.930 . S
C8 O9 1.224 . S
C8 O27 1.247 . S
O9 C8 1.224 . S
N10 Co0 2.128 1_556 S
N10 C11 1.355 . S
N10 C13 1.311 . S
C11 N10 1.355 . S
C11 C12 1.363 . S
C11 H23 0.929 . S
C12 C11 1.363 . S
C12 N14 1.375 . S
C12 H30 0.931 . S
C13 N10 1.311 . S
C13 N14 1.347 . S
C13 H24 0.929 . S
N14 C12 1.375 . S
N14 C13 1.347 . S
C15 C18 1.365 . S
C15 N20 1.328 . S
C15 H21 0.929 . S
C16 C17 1.362 . S
C16 C19 1.378 . S
C16 H31 0.929 . S
C17 C16 1.362 . S
C17 C18 1.366 . S
C18 C15 1.365 . S
C18 C17 1.366 . S
C18 H32 0.930 . S
C19 C16 1.378 . S
C19 N20 1.315 . S
C19 H22 0.930 . S
N20 Co0 2.194 . S
N20 C15 1.328 . S
N20 C19 1.315 . S
H21 C15 0.929 . S
H22 C19 0.930 . S
H23 C11 0.929 . S
H24 C13 0.929 . S
O25 Co0 2.351 . S
O25 C28 1.244 . S
O26 Co0 2.155 . S
O26 C28 1.240 . S
O27 Co0 2.096 . S
O27 C8 1.247 . S
C28 O25 1.244 . S
C28 O26 1.240 . S
H29 C3 0.931 . S
H30 C12 0.931 . S
H31 C16 0.929 . S
H32 C18 0.930 . S
Co33 N37 2.148 1_554 S
Co33 N43 2.128 . S
Co33 N53 2.194 . S
Co33 O58 2.351 . S
Co33 O59 2.155 . S
Co33 O60 2.096 . S
C34 N37 1.301 . S
C34 N38 1.328 . S
C34 H39 0.930 . S
C35 C36 1.333 . S
C35 N37 1.317 . S
C35 H40 0.930 . S
C36 C35 1.333 . S
C36 N38 1.350 . S
C36 H62 0.931 . S
N37 Co33 2.148 1_556 S
N37 C34 1.301 . S
N37 C35 1.317 . S
N38 C34 1.328 . S
N38 C36 1.350 . S
H39 C34 0.930 . S
H40 C35 0.930 . S
C41 O42 1.224 . S
C41 O60 1.247 . S
O42 C41 1.224 . S
N43 Co33 2.128 . S
N43 C44 1.355 . S
N43 C46 1.311 . S
C44 N43 1.355 . S
C44 C45 1.363 . S
C44 H56 0.929 . S
C45 C44 1.363 . S
C45 N47 1.375 . S
C45 H63 0.931 . S
C46 N43 1.311 . S
C46 N47 1.347 . S
C46 H57 0.929 . S
N47 C45 1.375 . S
N47 C46 1.347 . S
C48 C51 1.365 . S
C48 N53 1.328 . S
C48 H54 0.929 1_554 S
C49 C50 1.362 . S
C49 C52 1.378 . S
C49 H64 0.929 . S
C50 C49 1.362 . S
C50 C51 1.366 . S
C51 C48 1.365 . S
C51 C50 1.366 . S
C51 H65 0.930 . S
C52 C49 1.378 . S
C52 N53 1.315 . S
C52 H55 0.930 . S
N53 Co33 2.194 . S
N53 C48 1.328 . S
N53 C52 1.315 . S
H54 C48 0.929 1_556 S
H55 C52 0.930 . S
H56 C44 0.929 . S
H57 C46 0.929 . S
O58 Co33 2.351 . S
O58 C61 1.244 . S
O59 Co33 2.155 . S
O59 C61 1.240 . S
O60 Co33 2.096 . S
O60 C41 1.247 . S
C61 O58 1.244 . S
C61 O59 1.240 . S
H62 C36 0.931 . S
H63 C45 0.931 . S
H64 C49 0.929 . S
H65 C51 0.930 . S
H66 C72 0.930 . S
H67 C76 0.930 . S
H68 C81 0.929 . S
H69 C79 0.929 . S
H70 C74 0.929 . S
H71 C80 0.929 . S
C72 H66 0.930 . S
C72 C73 1.367 . S
C72 C80 1.378 . S
C73 C72 1.367 . S
C73 C81 1.433 1_554 S
C74 H70 0.929 . S
C74 C76 1.378 . S
C74 C78 1.350 1_556 S
C75 C78 1.463 . S
C75 C80 1.350 . S
C75 N83 1.427 1_554 S
C76 H67 0.930 . S
C76 C74 1.378 . S
C76 C77 1.367 1_556 S
C77 C76 1.367 1_554 S
C77 C79 1.433 . S
C78 C74 1.350 1_554 S
C78 C75 1.463 . S
C78 N82 1.427 . S
C79 H69 0.929 . S
C79 C77 1.433 . S
C79 N82 1.384 . S
C80 H71 0.929 . S
C80 C72 1.378 . S
C80 C75 1.350 . S
C81 H68 0.929 . S
C81 C73 1.433 1_556 S
C81 N83 1.384 . S
N82 C78 1.427 . S
N82 C79 1.384 . S
N83 C75 1.427 1_556 S
N83 C81 1.384 . S
H84 C90 0.930 . S
H85 C94 0.930 . S
H86 C99 0.929 . S
H87 C97 0.929 . S
H88 C92 0.929 . S
H89 C98 0.929 . S
C90 H84 0.930 . S
C90 C91 1.367 1_556 S
C90 C98 1.378 . S
C91 C90 1.367 1_554 S
C91 C99 1.433 . S
C92 H88 0.929 . S
C92 C94 1.378 . S
C92 C96 1.350 . S
C93 C96 1.463 1_655 S
C93 C98 1.350 1_554 S
C93 N101 1.427 . S
C94 H85 0.930 . S
C94 C92 1.378 . S
C94 C95 1.367 . S
C95 C94 1.367 . S
C95 C97 1.433 1_554 S
C96 C92 1.350 . S
C96 C93 1.463 1_455 S
C96 N100 1.427 1_554 S
C97 H87 0.929 . S
C97 C95 1.433 1_556 S
C97 N100 1.384 . S
C98 H89 0.929 . S
C98 C90 1.378 . S
C98 C93 1.350 1_556 S
C99 H86 0.929 . S
C99 C91 1.433 . S
C99 N101 1.384 . S
N100 C96 1.427 1_556 S
N100 C97 1.384 . S
N101 C93 1.427 . S
N101 C99 1.384 . S
H102 C108 0.930 . S
H103 C112 0.930 . S
H104 C117 0.929 . S
H105 C115 0.929 . S
H106 C110 0.929 . S
H107 C116 0.929 . S
C108 H102 0.930 . S
C108 C109 1.367 . S
C108 C116 1.378 . S
C109 C108 1.367 . S
C109 C117 1.433 1_554 S
C110 H106 0.929 . S
C110 C112 1.378 . S
C110 C114 1.350 1_556 S
C111 C114 1.463 1_565 S
C111 C116 1.350 . S
C111 N119 1.427 1_554 S
C112 H103 0.930 . S
C112 C110 1.378 . S
C112 C113 1.367 1_556 S
C113 C112 1.367 1_554 S
C113 C115 1.433 . S
C114 C110 1.350 1_554 S
C114 C111 1.463 1_545 S
C114 N118 1.427 . S
C115 H105 0.929 . S
C115 C113 1.433 . S
C115 N118 1.384 . S
C116 H107 0.929 . S
C116 C108 1.378 . S
C116 C111 1.350 . S
C117 H104 0.929 . S
C117 C109 1.433 1_556 S
C117 N119 1.384 . S
N118 C114 1.427 . S
N118 C115 1.384 . S
N119 C111 1.427 1_556 S
N119 C117 1.384 . S
H120 C126 0.930 . S
H121 C130 0.930 . S
H122 C135 0.929 . S
H123 C133 0.929 . S
H124 C128 0.929 . S
H125 C134 0.929 . S
C126 H120 0.930 . S
C126 C127 1.367 . S
C126 C134 1.378 . S
C127 C126 1.367 . S
C127 C135 1.433 . S
C128 H124 0.929 . S
C128 C130 1.378 . S
C128 C132 1.350 . S
C129 C132 1.463 . S
C129 C134 1.350 . S
C129 N137 1.427 . S
C130 H121 0.930 . S
C130 C128 1.378 . S
C130 C131 1.367 . S
C131 C130 1.367 . S
C131 C133 1.433 . S
C132 C128 1.350 . S
C132 C129 1.463 . S
C132 N136 1.427 . S
C133 H123 0.929 . S
C133 C131 1.433 . S
C133 N136 1.384 . S
C134 H125 0.929 . S
C134 C126 1.378 . S
C134 C129 1.350 . S
C135 H122 0.929 . S
C135 C127 1.433 . S
C135 N137 1.384 . S
N136 C132 1.427 . S
N136 C133 1.384 . S
N137 C129 1.427 . S
N137 C135 1.384 . S
H138 C144 0.930 . S
H139 C148 0.930 . S
H140 C153 0.929 . S
H141 C151 0.929 . S
H142 C146 0.929 . S
H143 C152 0.929 . S
C144 H138 0.930 . S
C144 C145 1.367 . S
C144 C152 1.378 . S
C145 C144 1.367 . S
C145 C153 1.433 . S
C146 H142 0.929 . S
C146 C148 1.378 . S
C146 C150 1.350 . S
C147 C150 1.463 . S
C147 C152 1.350 . S
C147 N155 1.427 . S
C148 H139 0.930 . S
C148 C146 1.378 . S
C148 C149 1.367 . S
C149 C148 1.367 . S
C149 C151 1.433 . S
C150 C146 1.350 . S
C150 C147 1.463 . S
C150 N154 1.427 . S
C151 H141 0.929 . S
C151 C149 1.433 . S
C151 N154 1.384 . S
C152 H143 0.929 . S
C152 C144 1.378 . S
C152 C147 1.350 . S
C153 H140 0.929 . S
C153 C145 1.433 . S
C153 N155 1.384 . S
N154 C150 1.427 . S
N154 C151 1.384 . S
N155 C147 1.427 . S
N155 C153 1.384 . S
C73 C17 1.497 . S
C77 C61 1.502 . S
C91 C50 1.498 . S
C95 C28 1.500 . S
C109 C8 1.501 . S
C113 C41 1.501 . S
C127 N14 1.472 . S
C131 N5 1.476 . S
C145 N47 1.461 . S
C149 N38 1.465 . S
