# Generated by pormake.
# Topology kag, (6)-cn, num edge types: 1
# Building blocks:
#     Node 0, Type 0, BuildingBlock: JUFBIX_clean_sbu_0, # of connection points: 6
#     Node 1, Type 0, BuildingBlock: JUFBIX_clean_sbu_0, # of connection points: 6
#     Node 2, Type 0, BuildingBlock: JUFBIX_clean_sbu_0, # of connection points: 6
#     Edge 3, Type (0, 0), BuildingBlock: XIVTED_clean_linker_0, # of connection points: 2
#     Edge 4, Type (0, 0), BuildingBlock: XIVTED_clean_linker_0, # of connection points: 2
#     Edge 5, Type (0, 0), BuildingBlock: XIVTED_clean_linker_0, # of connection points: 2
#     Edge 6, Type (0, 0), BuildingBlock: XIVTED_clean_linker_0, # of connection points: 2
#     Edge 7, Type (0, 0), BuildingBlock: XIVTED_clean_linker_0, # of connection points: 2
#     Edge 8, Type (0, 0), BuildingBlock: XIVTED_clean_linker_0, # of connection points: 2
#     Edge 9, Type (0, 0), BuildingBlock: XIVTED_clean_linker_0, # of connection points: 2
#     Edge 10, Type (0, 0), BuildingBlock: XIVTED_clean_linker_0, # of connection points: 2
#     Edge 11, Type (0, 0), BuildingBlock: XIVTED_clean_linker_0, # of connection points: 2
# Relax obj value: 0.260
# Max RMSD: 0.229
# Mean RMSD: 0.152
data_MOF--net-kag--node1-JUFBIX_clean_sbu_0--edge1-XIVTED_clean_linker_0
_symmetry_space_group_name_H-M    P1
_symmetry_Int_Tables_number       1
_symmetry_cell_setting            triclinic
loop_
_symmetry_equiv_pos_as_xyz
'x, y, z'
_cell_length_a     30.236563
_cell_length_b     38.166068
_cell_length_c     15.121383
_cell_angle_alpha  90.580138
_cell_angle_beta   92.747101
_cell_angle_gamma 120.55323
loop_
_atom_site_label
_atom_site_type_symbol
_atom_site_fract_x
_atom_site_fract_y
_atom_site_fract_z
_atom_type_partial_charge
Co0 Co 0.98033 0.46371 0.99392 0.0
C1 C 0.00093 0.49968 0.82945 0.0
Co2 Co 0.02078 0.5308 0.00086 0.0
C3 C 0.90642 0.37848 0.01687 0.0
C4 C 0.96744 0.38749 0.93636 0.0
N5 N 0.95003 0.40776 0.98333 0.0
N6 N 0.89609 0.34075 0.99277 0.0
C7 C 0.93452 0.34638 0.94223 0.0
H8 H 0.88271 0.38478 0.05788 0.0
H9 H 0.00146 0.40171 0.89879 0.0
C10 C 1.00019 0.49483 0.16532 0.0
N11 N 0.05113 0.58674 0.01142 0.0
C12 C 0.09525 0.6159 0.9791 0.0
C13 C 0.03356 0.60713 0.05753 0.0
N14 N 0.10578 0.65368 0.00318 0.0
C15 C 0.06692 0.64821 0.05237 0.0
C16 C 0.91298 0.49181 0.99142 0.0
O17 O 0.98001 0.46162 0.11937 0.0
O18 O 0.02017 0.52835 0.1262 0.0
O19 O 0.95493 0.52576 0.99564 0.0
O20 O 0.91447 0.45913 0.98925 0.0
O21 O 0.02122 0.5329 0.87541 0.0
H22 H 0.99919 0.59301 0.09421 0.0
H23 H 0.11925 0.60949 0.93913 0.0
O24 O 0.98083 0.46617 0.86856 0.0
O25 O 0.04632 0.46878 -0.00111 0.0
O26 O 0.08653 0.53539 0.00575 0.0
C27 C 0.08819 0.50282 0.00332 0.0
H28 H 0.93773 0.32253 0.90932 0.0
H29 H 0.06375 0.67214 0.08501 0.0
Co30 Co 0.52611 0.98213 0.0048 0.0
C31 C 0.50499 -0.00071 0.83461 0.0
Co32 Co 0.47866 0.01109 -0.00019 0.0
C33 C 0.55446 0.92129 0.0364 0.0
C34 C 0.61205 0.97248 0.97081 0.0
N35 N 0.56609 0.958 0.0061 0.0
N36 N 0.59118 0.91215 0.02096 0.0
C37 C 0.6276 0.94447 0.98002 0.0
H38 H 0.5193 0.90138 0.06801 0.0
H39 H 0.63222 0.00101 0.9379 0.0
C40 C 0.49979 0.99393 0.17 0.0
N41 N 0.43858 0.0351 0.99852 0.0
C42 C 0.44965 0.0715 0.96705 0.0
C43 C 0.39278 0.0206 0.03441 0.0
N44 N 0.41268 0.08038 0.98223 0.0
C45 C 0.37673 0.04826 0.02433 0.0
C46 C 0.42151 0.92678 0.98535 0.0
O47 O 0.52403 0.97999 0.13005 0.0
O48 O 0.47693 0.00873 0.12511 0.0
O49 O 0.41853 0.95878 0.98719 0.0
O50 O 0.46547 0.93005 0.99222 0.0
O51 O 0.48076 0.01325 0.87456 0.0
H52 H 0.373 0.99226 0.06812 0.0
H53 H 0.48454 0.09132 0.93463 0.0
O54 O 0.52783 0.98448 0.8795 0.0
O55 O 0.58634 0.03457 0.01733 0.0
O56 O 0.53917 0.06312 0.01238 0.0
C57 C 0.5832 0.06652 0.01912 0.0
H58 H 0.662 0.94701 0.95491 0.0
H59 H 0.34228 0.04562 0.04946 0.0
Co60 Co 0.47624 0.46145 0.99304 0.0
C61 C 0.50004 0.49603 0.16481 0.0
Co62 Co 0.52203 0.52879 0.00032 0.0
C63 C 0.44677 0.37708 0.95974 0.0
C64 C 0.39035 0.38314 0.02755 0.0
N65 N 0.43606 0.40505 0.99118 0.0
N66 N 0.4096 0.33864 0.97529 0.0
C67 C 0.37395 0.34243 0.01763 0.0
H68 H 0.48156 0.38482 0.9273 0.0
H69 H 0.37089 0.39595 0.0618 0.0
C70 C 0.49823 0.4942 0.82855 0.0
N71 N 0.56227 0.58521 0.00213 0.0
C72 C 0.55192 0.61331 0.03408 0.0
C73 C 0.6079 0.60698 0.96544 0.0
N74 N 0.58931 0.65171 0.01865 0.0
C75 C 0.62465 0.64773 0.97574 0.0
C76 C 0.5806 0.4909 0.00338 0.0
O77 O 0.47549 0.46063 0.86743 0.0
O78 O 0.52081 0.52744 0.87464 0.0
O79 O 0.58248 0.52492 0.0057 0.0
O80 O 0.53704 0.4583 0.99847 0.0
O81 O 0.52287 0.5296 0.12594 0.0
H82 H 0.62711 0.59405 0.93084 0.0
H83 H 0.51731 0.60572 0.06694 0.0
O84 O 0.47738 0.4628 0.11871 0.0
O85 O 0.4159 0.46527 0.9875 0.0
O86 O 0.4611 0.53191 0.99508 0.0
C87 C 0.4176 0.49921 0.98998 0.0
H88 H 0.33958 0.31768 0.04332 0.0
H89 H 0.65911 0.67241 0.95009 0.0
H90 H 0.0407 0.56537 0.7229 0.0
H91 H 0.96051 0.42916 0.27188 0.0
H92 H 0.96133 0.43397 0.71298 0.0
H93 H 0.03972 0.56055 0.28178 0.0
H94 H 0.96053 0.43028 0.43359 0.0
H95 H 0.04069 0.56424 0.56119 0.0
C96 C 0.02322 0.53628 0.68677 0.0
C97 C 0.00095 0.49971 0.73162 0.0
C98 C 0.97794 0.45887 0.40036 0.0
C99 C 0.00086 0.49819 0.54647 0.0
C100 C 0.97796 0.45824 0.30801 0.0
C101 C 1.00018 0.49481 0.26315 0.0
C102 C 1.00028 0.49633 0.4483 0.0
C103 C 0.02217 0.53159 0.3135 0.0
C104 C 0.02325 0.53566 0.59441 0.0
C105 C 0.97891 0.46293 0.68127 0.0
N106 N 0.02165 0.5314 0.40327 0.0
N107 N 0.97944 0.46312 0.5915 0.0
H108 H 0.45232 0.02192 0.27557 0.0
H109 H 0.55244 0.97128 0.72904 0.0
H110 H 0.54625 0.96648 0.28747 0.0
H111 H 0.45855 0.02677 0.71715 0.0
H112 H 0.55086 0.96952 0.56746 0.0
H113 H 0.45389 0.02369 0.43715 0.0
C114 C 0.47319 0.01001 0.31212 0.0
C115 C 0.49924 0.99404 0.2678 0.0
C116 C 0.53064 0.98212 0.60013 0.0
C117 C 0.5013 0.99611 0.45313 0.0
C118 C 0.53157 0.9832 0.69249 0.0
C119 C 0.50554 -0.00082 0.73682 0.0
C120 C 0.50347 -0.00288 0.55148 0.0
C121 C 0.47916 0.01416 0.68585 0.0
C122 C 0.47412 0.01109 0.40448 0.0
C123 C 0.52563 0.97907 0.31877 0.0
N124 N 0.47876 0.01272 0.59593 0.0
N125 N 0.52603 0.98051 0.40868 0.0
H126 H 0.54364 0.5607 0.72573 0.0
H127 H 0.45459 0.42954 0.26763 0.0
H128 H 0.45406 0.42931 0.7085 0.0
H129 H 0.54427 0.56092 0.28487 0.0
H130 H 0.454 0.42888 0.42892 0.0
H131 H 0.54424 0.56135 0.56444 0.0
C132 C 0.52405 0.53195 0.68806 0.0
C133 C 0.49871 0.49486 0.7308 0.0
C134 C 0.47382 0.45787 0.3975 0.0
C135 C 0.49931 0.49544 0.54578 0.0
C136 C 0.4742 0.45829 0.3053 0.0
C137 C 0.49957 0.49537 0.26256 0.0
C138 C 0.49898 0.49479 0.44758 0.0
C139 C 0.52426 0.53163 0.31494 0.0
C140 C 0.52443 0.53237 0.59586 0.0
C141 C 0.47405 0.45861 0.67842 0.0
N142 N 0.52334 0.53042 0.40469 0.0
N143 N 0.47498 0.45982 0.58868 0.0
H144 H 0.18604 0.56977 0.00833 0.0
H145 H 0.31918 0.43461 0.98036 0.0
H146 H 0.10346 0.43829 0.99706 0.0
H147 H 0.40587 0.56604 -0.00078 0.0
H148 H 0.23985 0.4362 0.98411 0.0
H149 H 0.26709 0.56988 0.00393 0.0
C150 C 0.18493 0.54097 0.00521 0.0
C151 C 0.13786 0.50397 0.00315 0.0
C152 C 0.27615 0.46476 0.98733 0.0
C153 C 0.23027 0.50389 0.99771 0.0
C154 C 0.32157 0.46387 0.98505 0.0
C155 C 0.36933 0.50025 0.98948 0.0
C156 C 0.27822 0.50231 0.99414 0.0
C157 C 0.36989 0.53724 0.99557 0.0
C158 C 0.23119 0.54106 0.00257 0.0
C159 C 0.13874 0.46757 -0.00113 0.0
N160 N 0.32499 0.53733 0.99781 0.0
N161 N 0.1841 0.46849 0.99621 0.0
H162 H 0.68332 0.08475 0.03023 0.0
H163 H 0.80007 0.32567 0.02212 0.0
H164 H 0.59023 0.14096 0.02552 0.0
H165 H 0.89059 0.26791 0.00447 0.0
H166 H 0.72373 0.25894 0.04005 0.0
H167 H 0.76051 0.15224 0.03598 0.0
C168 C 0.6791 0.11128 0.0308 0.0
C169 C 0.63023 0.10719 0.0268 0.0
C170 C 0.76038 0.26092 0.03275 0.0
C171 C 0.71851 0.18461 0.03329 0.0
C172 C 0.80403 0.29903 0.02313 0.0
C173 C 0.85168 0.3023 0.01094 0.0
C174 C 0.76451 0.22587 0.03044 0.0
C175 C 0.85445 0.2667 0.01198 0.0
C176 C 0.72322 0.14984 0.03407 0.0
C177 C 0.62714 0.14268 0.02808 0.0
N178 N 0.81146 0.22999 0.02109 0.0
N179 N 0.67069 0.17991 0.03083 0.0
H180 H 0.50658 0.8367 0.03128 0.0
H181 H 0.67272 0.72728 0.04666 0.0
H182 H 0.67256 0.90094 0.04509 0.0
H183 H 0.50675 0.66175 0.02892 0.0
H184 H 0.67304 0.79115 0.06014 0.0
H185 H 0.50546 0.77252 0.04519 0.0
C186 C 0.54283 0.83744 0.03842 0.0
C187 C 0.58979 0.87436 0.0363 0.0
C188 C 0.63649 0.76282 0.05391 0.0
C189 C 0.58873 0.80082 0.05119 0.0
C190 C 0.63631 0.72632 0.04587 0.0
C191 C 0.58966 0.6891 0.03568 0.0
C192 C 0.58965 0.76227 0.05132 0.0
C193 C 0.54361 0.68967 0.03698 0.0
C194 C 0.54214 0.8007 0.04582 0.0
C195 C 0.63548 0.87323 0.04478 0.0
N196 N 0.54476 0.72571 0.04376 0.0
N197 N 0.63379 0.8371 0.05136 0.0
H198 H 0.89863 0.55675 0.99556 0.0
H199 H 0.59139 0.42365 0.99611 0.0
H200 H 0.8147 0.42527 0.98801 0.0
H201 H 0.67941 0.55509 0.01083 0.0
H202 H 0.67178 0.42281 0.99252 0.0
H203 H 0.8178 0.55588 -0.00049 0.0
C204 C 0.86313 0.52761 0.99451 0.0
C205 C 0.86352 0.491 0.99139 0.0
C206 C 0.67342 0.45179 0.9967 0.0
C207 C 0.77033 0.48981 0.99621 0.0
C208 C 0.62757 0.45231 -0.00112 0.0
C209 C 0.62864 0.48952 0.00382 0.0
C210 C 0.72063 0.48873 -0.00065 0.0
C211 C 0.67663 0.52569 0.00704 0.0
C212 C 0.81687 0.52715 0.99691 0.0
C213 C 0.8162 0.45422 0.99027 0.0
N214 N 0.72057 0.52436 0.00464 0.0
N215 N 0.77145 0.45455 0.99273 0.0
H216 H 0.20188 0.66797 0.9779 0.0
H217 H 0.32177 0.90923 0.97162 0.0
H218 H 0.11263 0.72696 0.99101 0.0
H219 H 0.41368 0.852 0.98004 0.0
H220 H 0.24413 0.84207 0.96405 0.0
H221 H 0.27915 0.73443 0.96252 0.0
C222 C 0.19842 0.69482 0.97642 0.0
C223 C 0.15082 0.69198 0.98655 0.0
C224 C 0.28126 0.84415 0.96721 0.0
C225 C 0.23903 0.76808 0.96998 0.0
C226 C 0.32564 0.88253 0.97154 0.0
C227 C 0.3743 0.88624 0.97705 0.0
C228 C 0.28545 0.80916 0.96847 0.0
C229 C 0.37693 0.85055 0.97631 0.0
C230 C 0.24259 0.73278 0.96826 0.0
C231 C 0.14868 0.72784 0.98503 0.0
N232 N 0.33309 0.81348 0.97251 0.0
N233 N 0.19216 0.76439 0.97735 0.0
H234 H 0.32694 0.26261 0.94834 0.0
H235 H 0.49643 0.15605 0.96949 0.0
H236 H 0.49294 0.32954 0.96645 0.0
H237 H 0.33043 0.09038 0.95676 0.0
H238 H 0.49629 0.21964 0.95301 0.0
H239 H 0.3278 0.19916 0.9368 0.0
C240 C 0.3636 0.26397 0.9496 0.0
C241 C 0.40991 0.30146 0.95933 0.0
C242 C 0.45989 0.19127 0.95318 0.0
C243 C 0.41127 0.2288 0.94593 0.0
C244 C 0.45992 0.15488 0.96205 0.0
C245 C 0.41332 0.11775 0.96527 0.0
C246 C 0.41293 0.19058 0.94742 0.0
C247 C 0.36725 0.11829 0.95629 0.0
C248 C 0.36409 0.22771 0.94267 0.0
C249 C 0.45631 0.3014 0.95869 0.0
N250 N 0.36824 0.15409 0.94828 0.0
N251 N 0.45581 0.2656 0.953 0.0
loop_
_geom_bond_atom_site_label_1
_geom_bond_atom_site_label_2
_geom_bond_distance
_geom_bond_site_symmetry_2
_ccdc_geom_bond_type
Co0 N5 2.057 1_554 S
Co0 O17 2.021 . S
Co0 O20 2.062 . S
Co0 O24 2.117 1_554 S
Co0 O25 2.020 1_655 S
C1 O21 1.259 . S
C1 O24 1.258 1_455 S
Co2 N11 2.057 1_556 S
Co2 O18 2.117 1_556 S
Co2 O19 2.020 1_455 S
Co2 O21 2.021 . S
Co2 O26 2.062 . S
C3 N5 1.316 1_554 S
C3 N6 1.347 1_554 S
C3 H8 0.931 . S
C4 N5 1.375 . S
C4 C7 1.350 . S
C4 H9 0.930 . S
N5 Co0 2.057 1_556 S
N5 C3 1.316 1_556 S
N5 C4 1.375 . S
N6 C3 1.347 1_556 S
N6 C7 1.373 . S
C7 C4 1.350 . S
C7 N6 1.373 . S
C7 H28 0.931 . S
H8 C3 0.931 . S
H9 C4 0.930 . S
C10 O17 1.259 . S
C10 O18 1.258 1_655 S
N11 Co2 2.057 1_554 S
N11 C12 1.316 1_554 S
N11 C13 1.375 . S
C12 N11 1.316 1_556 S
C12 N14 1.347 1_556 S
C12 H23 0.931 . S
C13 N11 1.375 . S
C13 C15 1.350 . S
C13 H22 0.930 . S
N14 C12 1.347 1_554 S
N14 C15 1.373 . S
C15 C13 1.350 . S
C15 N14 1.373 . S
C15 H29 0.931 . S
C16 O19 1.256 1_554 S
C16 O20 1.255 . S
O17 Co0 2.021 . S
O17 C10 1.259 . S
O18 Co2 2.117 1_554 S
O18 C10 1.258 1_455 S
O19 Co2 2.020 1_655 S
O19 C16 1.256 1_556 S
O20 Co0 2.062 . S
O20 C16 1.255 . S
O21 C1 1.259 . S
O21 Co2 2.021 . S
H22 C13 0.930 . S
H23 C12 0.931 . S
O24 Co0 2.117 1_556 S
O24 C1 1.258 1_655 S
O25 Co0 2.020 1_455 S
O25 C27 1.256 1_554 S
O26 Co2 2.062 . S
O26 C27 1.255 . S
C27 O25 1.256 1_556 S
C27 O26 1.255 . S
H28 C7 0.931 . S
H29 C15 0.931 . S
Co30 N35 2.057 1_554 S
Co30 O47 2.021 . S
Co30 O50 2.062 . S
Co30 O54 2.117 1_554 S
Co30 O55 2.020 1_565 S
C31 O51 1.259 . S
C31 O54 1.258 1_545 S
Co32 N41 2.057 1_556 S
Co32 O48 2.117 1_556 S
Co32 O49 2.020 1_545 S
Co32 O51 2.021 . S
Co32 O56 2.062 . S
C33 N35 1.316 1_554 S
C33 N36 1.347 1_554 S
C33 H38 0.931 . S
C34 N35 1.375 . S
C34 C37 1.350 . S
C34 H39 0.930 . S
N35 Co30 2.057 1_556 S
N35 C33 1.316 1_556 S
N35 C34 1.375 . S
N36 C33 1.347 1_556 S
N36 C37 1.373 . S
C37 C34 1.350 . S
C37 N36 1.373 . S
C37 H58 0.931 . S
H38 C33 0.931 . S
H39 C34 0.930 . S
C40 O47 1.259 . S
C40 O48 1.258 1_565 S
N41 Co32 2.057 1_554 S
N41 C42 1.316 1_554 S
N41 C43 1.375 . S
C42 N41 1.316 1_556 S
C42 N44 1.347 1_556 S
C42 H53 0.931 . S
C43 N41 1.375 . S
C43 C45 1.350 . S
C43 H52 0.930 . S
N44 C42 1.347 1_554 S
N44 C45 1.373 . S
C45 C43 1.350 . S
C45 N44 1.373 . S
C45 H59 0.931 . S
C46 O49 1.256 . S
C46 O50 1.254 1_556 S
O47 Co30 2.021 . S
O47 C40 1.259 . S
O48 Co32 2.117 1_554 S
O48 C40 1.258 1_545 S
O49 Co32 2.020 1_565 S
O49 C46 1.256 . S
O50 Co30 2.062 . S
O50 C46 1.254 1_554 S
O51 C31 1.259 . S
O51 Co32 2.021 . S
H52 C43 0.930 . S
H53 C42 0.931 . S
O54 Co30 2.117 1_556 S
O54 C31 1.258 1_565 S
O55 Co30 2.020 1_545 S
O55 C57 1.257 . S
O56 Co32 2.062 . S
O56 C57 1.254 1_556 S
C57 O55 1.257 . S
C57 O56 1.254 1_554 S
H58 C37 0.931 . S
H59 C45 0.931 . S
Co60 N65 2.057 1_556 S
Co60 O77 2.021 . S
Co60 O80 2.062 . S
Co60 O84 2.117 1_556 S
Co60 O85 2.020 . S
C61 O81 1.259 . S
C61 O84 1.258 . S
Co62 N71 2.057 1_554 S
Co62 O78 2.117 1_554 S
Co62 O79 2.020 . S
Co62 O81 2.021 . S
Co62 O86 2.062 . S
C63 N65 1.316 1_556 S
C63 N66 1.347 1_556 S
C63 H68 0.931 . S
C64 N65 1.375 . S
C64 C67 1.350 . S
C64 H69 0.930 . S
N65 Co60 2.057 1_554 S
N65 C63 1.316 1_554 S
N65 C64 1.375 . S
N66 C63 1.347 1_554 S
N66 C67 1.373 . S
C67 C64 1.350 . S
C67 N66 1.373 . S
C67 H88 0.931 . S
H68 C63 0.931 . S
H69 C64 0.930 . S
C70 O77 1.259 . S
C70 O78 1.258 . S
N71 Co62 2.057 1_556 S
N71 C72 1.316 1_556 S
N71 C73 1.375 . S
C72 N71 1.316 1_554 S
C72 N74 1.347 1_554 S
C72 H83 0.931 . S
C73 N71 1.375 . S
C73 C75 1.350 . S
C73 H82 0.930 . S
N74 C72 1.347 1_556 S
N74 C75 1.373 . S
C75 C73 1.350 . S
C75 N74 1.373 . S
C75 H89 0.931 . S
C76 O79 1.256 . S
C76 O80 1.254 1_554 S
O77 Co60 2.021 . S
O77 C70 1.259 . S
O78 Co62 2.117 1_556 S
O78 C70 1.258 . S
O79 Co62 2.020 . S
O79 C76 1.256 . S
O80 Co60 2.062 . S
O80 C76 1.254 1_556 S
O81 C61 1.259 . S
O81 Co62 2.021 . S
H82 C73 0.930 . S
H83 C72 0.931 . S
O84 Co60 2.117 1_554 S
O84 C61 1.258 . S
O85 Co60 2.020 . S
O85 C87 1.256 . S
O86 Co62 2.062 . S
O86 C87 1.254 1_554 S
C87 O85 1.256 . S
C87 O86 1.254 1_556 S
H88 C67 0.931 . S
H89 C75 0.931 . S
H90 C96 0.930 . S
H91 C100 0.930 . S
H92 C105 0.929 . S
H93 C103 0.929 . S
H94 C98 0.929 . S
H95 C104 0.929 . S
C96 H90 0.930 . S
C96 C97 1.367 . S
C96 C104 1.378 . S
C97 C96 1.367 . S
C97 C105 1.433 1_455 S
C98 H94 0.929 . S
C98 C100 1.378 . S
C98 C102 1.350 . S
C99 C102 1.463 1_455 S
C99 C104 1.350 . S
C99 N107 1.427 1_455 S
C100 H91 0.930 . S
C100 C98 1.378 . S
C100 C101 1.376 . S
C101 C100 1.376 . S
C101 C103 1.425 1_655 S
C102 C98 1.350 . S
C102 C99 1.463 1_655 S
C102 N106 1.427 1_655 S
C103 H93 0.929 . S
C103 C101 1.425 1_455 S
C103 N106 1.384 . S
C104 H95 0.929 . S
C104 C96 1.378 . S
C104 C99 1.350 . S
C105 H92 0.929 . S
C105 C97 1.433 1_655 S
C105 N107 1.384 . S
N106 C102 1.427 1_455 S
N106 C103 1.384 . S
N107 C99 1.427 1_655 S
N107 C105 1.384 . S
H108 C114 0.929 . S
H109 C118 0.929 . S
H110 C123 0.929 . S
H111 C121 0.929 . S
H112 C116 0.923 1_565 S
H113 C122 0.923 1_545 S
C114 H108 0.929 . S
C114 C115 1.378 . S
C114 C122 1.378 . S
C115 C114 1.378 . S
C115 C123 1.433 . S
C116 H112 0.923 1_545 S
C116 C118 1.378 . S
C116 C120 1.347 . S
C117 C120 1.463 1_565 S
C117 C122 1.347 . S
C117 N125 1.430 . S
C118 H109 0.929 . S
C118 C116 1.378 . S
C118 C119 1.382 . S
C119 C118 1.382 . S
C119 C121 1.433 . S
C120 C116 1.347 . S
C120 C117 1.463 1_545 S
C120 N124 1.433 . S
C121 H111 0.929 . S
C121 C119 1.433 . S
C121 N124 1.384 . S
C122 H113 0.923 1_565 S
C122 C114 1.378 . S
C122 C117 1.347 . S
C123 H110 0.929 . S
C123 C115 1.433 . S
C123 N125 1.384 . S
N124 C120 1.433 . S
N124 C121 1.384 . S
N125 C117 1.430 . S
N125 C123 1.384 . S
H126 C132 0.930 . S
H127 C136 0.930 . S
H128 C141 0.929 . S
H129 C139 0.929 . S
H130 C134 0.929 . S
H131 C140 0.929 . S
C132 H126 0.930 . S
C132 C133 1.367 . S
C132 C140 1.378 . S
C133 C132 1.367 . S
C133 C141 1.433 . S
C134 H130 0.929 . S
C134 C136 1.378 . S
C134 C138 1.350 . S
C135 C138 1.463 . S
C135 C140 1.350 . S
C135 N143 1.427 . S
C136 H127 0.930 . S
C136 C134 1.378 . S
C136 C137 1.367 . S
C137 C136 1.367 . S
C137 C139 1.433 . S
C138 C134 1.350 . S
C138 C135 1.463 . S
C138 N142 1.427 . S
C139 H129 0.929 . S
C139 C137 1.433 . S
C139 N142 1.384 . S
C140 H131 0.929 . S
C140 C132 1.378 . S
C140 C135 1.350 . S
C141 H128 0.929 . S
C141 C133 1.433 . S
C141 N143 1.384 . S
N142 C138 1.427 . S
N142 C139 1.384 . S
N143 C135 1.427 . S
N143 C141 1.384 . S
H144 C150 0.930 . S
H145 C154 0.930 . S
H146 C159 0.929 . S
H147 C157 0.929 . S
H148 C152 0.929 . S
H149 C158 0.929 . S
C150 H144 0.930 . S
C150 C151 1.367 . S
C150 C158 1.378 . S
C151 C150 1.367 . S
C151 C159 1.433 1_554 S
C152 H148 0.929 . S
C152 C154 1.378 . S
C152 C156 1.350 . S
C153 C156 1.463 1_554 S
C153 C158 1.350 . S
C153 N161 1.427 1_554 S
C154 H145 0.930 . S
C154 C152 1.378 . S
C154 C155 1.367 . S
C155 C154 1.367 . S
C155 C157 1.433 1_556 S
C156 C152 1.350 . S
C156 C153 1.463 1_556 S
C156 N160 1.427 1_556 S
C157 H147 0.929 . S
C157 C155 1.433 1_554 S
C157 N160 1.384 . S
C158 H149 0.929 . S
C158 C150 1.378 . S
C158 C153 1.350 . S
C159 H146 0.929 . S
C159 C151 1.433 1_556 S
C159 N161 1.384 . S
N160 C156 1.427 1_554 S
N160 C157 1.384 . S
N161 C153 1.427 1_556 S
N161 C159 1.384 . S
H162 C168 0.930 . S
H163 C172 0.930 . S
H164 C177 0.929 . S
H165 C175 0.929 . S
H166 C170 0.929 . S
H167 C176 0.929 . S
C168 H162 0.930 . S
C168 C169 1.359 1_556 S
C168 C176 1.378 . S
C169 C168 1.359 1_554 S
C169 C177 1.441 . S
C170 H166 0.929 . S
C170 C172 1.378 . S
C170 C174 1.350 . S
C171 C174 1.463 1_556 S
C171 C176 1.360 . S
C171 N179 1.416 1_556 S
C172 H163 0.930 . S
C172 C170 1.378 . S
C172 C173 1.367 . S
C173 C172 1.367 . S
C173 C175 1.433 1_554 S
C174 C170 1.350 . S
C174 C171 1.463 1_554 S
C174 N178 1.427 1_554 S
C175 H165 0.929 . S
C175 C173 1.433 1_556 S
C175 N178 1.384 . S
C176 H167 0.929 . S
C176 C168 1.378 . S
C176 C171 1.360 . S
C177 H164 0.929 . S
C177 C169 1.441 . S
C177 N179 1.384 . S
N178 C174 1.427 1_556 S
N178 C175 1.384 . S
N179 C171 1.416 1_554 S
N179 C177 1.384 . S
H180 C186 0.930 . S
H181 C190 0.930 . S
H182 C195 0.929 . S
H183 C193 0.929 . S
H184 C188 0.929 . S
H185 C194 0.929 . S
C186 H180 0.930 . S
C186 C187 1.367 . S
C186 C194 1.378 . S
C187 C186 1.367 . S
C187 C195 1.433 1_554 S
C188 H184 0.929 . S
C188 C190 1.378 . S
C188 C192 1.350 1_556 S
C189 C192 1.463 . S
C189 C194 1.350 . S
C189 N197 1.427 1_554 S
C190 H181 0.930 . S
C190 C188 1.378 . S
C190 C191 1.367 1_556 S
C191 C190 1.367 1_554 S
C191 C193 1.433 . S
C192 C188 1.350 1_554 S
C192 C189 1.463 . S
C192 N196 1.427 . S
C193 H183 0.929 . S
C193 C191 1.433 . S
C193 N196 1.384 . S
C194 H185 0.929 . S
C194 C186 1.378 . S
C194 C189 1.350 . S
C195 H182 0.929 . S
C195 C187 1.433 1_556 S
C195 N197 1.384 . S
N196 C192 1.427 . S
N196 C193 1.384 . S
N197 C189 1.427 1_556 S
N197 C195 1.384 . S
H198 C204 0.930 . S
H199 C208 0.930 . S
H200 C213 0.929 . S
H201 C211 0.929 . S
H202 C206 0.929 . S
H203 C212 0.929 . S
C204 H198 0.930 . S
C204 C205 1.367 . S
C204 C212 1.378 . S
C205 C204 1.367 . S
C205 C213 1.433 1_554 S
C206 H202 0.929 . S
C206 C208 1.378 . S
C206 C210 1.350 . S
C207 C210 1.463 1_554 S
C207 C212 1.350 . S
C207 N215 1.427 1_554 S
C208 H199 0.930 . S
C208 C206 1.378 . S
C208 C209 1.365 1_556 S
C209 C208 1.365 1_554 S
C209 C211 1.435 . S
C210 C206 1.350 . S
C210 C207 1.463 1_556 S
C210 N214 1.427 1_556 S
C211 H201 0.929 . S
C211 C209 1.435 . S
C211 N214 1.384 . S
C212 H203 0.929 . S
C212 C204 1.378 . S
C212 C207 1.350 . S
C213 H200 0.929 . S
C213 C205 1.433 1_556 S
C213 N215 1.384 . S
N214 C210 1.427 1_554 S
N214 C211 1.384 . S
N215 C207 1.427 1_556 S
N215 C213 1.384 . S
H216 C222 0.930 . S
H217 C226 0.930 . S
H218 C231 0.929 . S
H219 C229 0.929 . S
H220 C224 0.929 . S
H221 C230 0.929 . S
C222 H216 0.930 . S
C222 C223 1.367 . S
C222 C230 1.378 . S
C223 C222 1.367 . S
C223 C231 1.433 1_554 S
C224 H220 0.929 . S
C224 C226 1.378 . S
C224 C228 1.350 . S
C225 C228 1.463 1_554 S
C225 C230 1.350 . S
C225 N233 1.427 1_554 S
C226 H217 0.930 . S
C226 C224 1.378 . S
C226 C227 1.367 . S
C227 C226 1.367 . S
C227 C229 1.433 1_556 S
C228 C224 1.350 . S
C228 C225 1.463 1_556 S
C228 N232 1.427 1_556 S
C229 H219 0.929 . S
C229 C227 1.433 1_554 S
C229 N232 1.384 . S
C230 H221 0.929 . S
C230 C222 1.378 . S
C230 C225 1.350 . S
C231 H218 0.929 . S
C231 C223 1.433 1_556 S
C231 N233 1.384 . S
N232 C228 1.427 1_554 S
N232 C229 1.384 . S
N233 C225 1.427 1_556 S
N233 C231 1.384 . S
H234 C240 0.930 . S
H235 C244 0.930 . S
H236 C249 0.929 . S
H237 C247 0.929 . S
H238 C242 0.929 . S
H239 C248 0.929 . S
C240 H234 0.930 . S
C240 C241 1.367 1_554 S
C240 C248 1.378 . S
C241 C240 1.367 1_556 S
C241 C249 1.433 . S
C242 H238 0.929 . S
C242 C244 1.378 . S
C242 C246 1.350 . S
C243 C246 1.463 . S
C243 C248 1.350 1_556 S
C243 N251 1.427 . S
C244 H235 0.930 . S
C244 C242 1.378 . S
C244 C245 1.367 . S
C245 C244 1.367 . S
C245 C247 1.433 1_556 S
C246 C242 1.350 . S
C246 C243 1.463 . S
C246 N250 1.427 1_556 S
C247 H237 0.929 . S
C247 C245 1.433 1_554 S
C247 N250 1.384 . S
C248 H239 0.929 . S
C248 C240 1.378 . S
C248 C243 1.350 1_554 S
C249 H236 0.929 . S
C249 C241 1.433 . S
C249 N251 1.384 . S
N250 C246 1.427 1_554 S
N250 C247 1.384 . S
N251 C243 1.427 . S
N251 C249 1.384 . S
C97 C1 1.494 . S
C101 C10 1.492 . S
C115 C40 1.502 . S
C119 C31 1.502 . S
C133 C70 1.502 . S
C137 C61 1.502 . S
C151 C27 1.620 1_554 S
C155 C87 1.606 . S
C169 C57 1.132 . S
C173 N6 1.129 1_554 S
C187 N36 0.780 1_554 S
C191 N74 0.764 1_554 S
C205 C16 1.619 . S
C209 C76 1.610 . S
C223 N14 1.120 . S
C227 C46 1.136 . S
C241 N66 0.764 1_556 S
C245 N44 0.770 1_556 S
