# Generated by pormake.
# Topology hcp, (12)-cn, num edge types: 1
# Building blocks:
#     Node 0, Type 0, BuildingBlock: EZIPEK_clean_sbu_0, # of connection points: 12
#     Node 1, Type 0, BuildingBlock: EZIPEK_clean_sbu_0, # of connection points: 12
#     Edge 2, Type (0, 0), None
#     Edge 3, Type (0, 0), None
#     Edge 4, Type (0, 0), None
#     Edge 5, Type (0, 0), None
#     Edge 6, Type (0, 0), None
#     Edge 7, Type (0, 0), None
#     Edge 8, Type (0, 0), None
#     Edge 9, Type (0, 0), None
#     Edge 10, Type (0, 0), None
#     Edge 11, Type (0, 0), None
#     Edge 12, Type (0, 0), None
#     Edge 13, Type (0, 0), None
# Relax obj value: 0.186
# Max RMSD: 0.270
# Mean RMSD: 0.270
data_MOF--net-hcp--node1-EZIPEK_clean_sbu_0--edge1-none
_symmetry_space_group_name_H-M    P1
_symmetry_Int_Tables_number       1
_symmetry_cell_setting            triclinic
loop_
_symmetry_equiv_pos_as_xyz
'x, y, z'
_cell_length_a     10.170047
_cell_length_b     10.172301
_cell_length_c     17.057322
_cell_angle_alpha  89.997247
_cell_angle_beta   90.00139
_cell_angle_gamma 120.00731
loop_
_atom_site_label
_atom_site_type_symbol
_atom_site_fract_x
_atom_site_fract_y
_atom_site_fract_z
_atom_type_partial_charge
C0 C 0.70618 0.9087 0.28024 0.0
C1 C 0.04875 0.44418 0.07742 0.0
C2 C 0.46214 0.12085 0.50148 0.0
C3 C 0.70641 0.77945 0.28023 0.0
C4 C 0.23624 0.33591 0.28023 0.0
C5 C 0.42907 0.99318 0.07743 0.0
C6 C 0.69261 0.58011 0.50144 0.0
C7 C 0.10667 0.33567 0.2802 0.0
C8 C 0.13348 0.80565 0.2803 0.0
C9 C 0.59776 0.61284 0.07746 0.0
C10 C 0.92137 0.34964 0.50142 0.0
C11 C 0.26277 0.93519 0.28038 0.0
Eu12 Eu 0.7798 0.21313 0.1839 0.0
O13 O 0.69203 0.35039 0.13335 0.0
O14 O 0.81048 0.25379 0.30949 0.0
Eu15 Eu 0.46703 0.26198 0.18395 0.0
Eu16 Eu 0.90939 0.48101 0.36321 0.0
O17 O 0.57699 0.14717 0.23837 0.0
O18 O 0.89373 0.4378 0.23831 0.0
Eu19 Eu 0.60537 0.13223 0.36335 0.0
Eu20 Eu 0.82905 0.57534 0.18385 0.0
O21 O 0.47753 0.23172 0.30956 0.0
O22 O 0.60425 0.46481 0.23838 0.0
O23 O 0.7881 0.56545 0.30949 0.0
O24 O 0.69162 0.34997 0.4105 0.0
Eu25 Eu 0.56081 0.43691 0.36338 0.0
O26 O 0.75117 0.9888 0.21471 0.0
O27 O 0.95951 0.30061 0.09524 0.0
O28 O 0.50845 0.2721 0.4846 0.0
O29 O 0.62943 0.68138 0.33778 0.0
O30 O 0.27127 0.29069 0.21475 0.0
O31 O 0.3747 0.08237 0.09527 0.0
O32 O 0.79723 0.53343 0.4845 0.0
O33 O 0.08554 0.41268 0.33769 0.0
O34 O 0.0535 0.77077 0.21474 0.0
O35 O 0.7414 0.66736 0.09523 0.0
O36 O 0.77017 0.24448 0.48455 0.0
O37 O 0.36088 0.95616 0.33788 0.0
O38 O 0.6216 0.60471 0.44688 0.0
O39 O 0.32218 0.38513 0.34398 0.0
O40 O 1.01231 0.26145 0.22087 0.0
O41 O 0.57596 0.03143 0.09759 0.0
O42 O 1.01065 0.55289 0.0976 0.0
O43 O 0.78058 0.75932 0.22088 0.0
O44 O 0.65715 0.9455 0.34402 0.0
O45 O 0.43759 0.0253 0.44689 0.0
O46 O 0.28293 0.02962 0.22109 0.0
O47 O 0.48919 0.46591 0.09764 0.0
O48 O 1.01684 0.421 0.44685 0.0
O49 O 0.09651 0.71956 0.34399 0.0
C50 C 0.34437 0.22781 0.78024 0.0
C51 C 1.00173 0.4207 0.57749 0.0
C52 C 0.58846 0.68411 1.00144 0.0
C53 C 0.34413 0.09833 0.78023 0.0
C54 C 0.35778 0.9127 1.0014 0.0
C55 C 0.94383 0.25425 0.7802 0.0
C56 C 0.81427 0.12493 0.78023 0.0
C57 C 0.62145 0.58932 0.57751 0.0
C58 C 0.45281 0.04038 0.57753 0.0
C59 C 0.91704 0.69742 0.7803 0.0
C60 C 0.78776 0.69767 0.78038 0.0
C61 C 0.12921 0.45345 1.00138 0.0
Eu62 Eu 0.2707 0.45857 0.68389 0.0
O63 O 0.15681 0.56934 0.7383 0.0
O64 O 0.47353 0.59545 0.73836 0.0
Eu65 Eu 0.14112 0.59684 0.86321 0.0
Eu66 Eu 0.58351 0.82021 0.68394 0.0
O67 O 0.24007 0.46859 0.80948 0.0
O68 O 0.35849 0.68362 0.63334 0.0
Eu69 Eu 0.44519 0.55214 0.86334 0.0
Eu70 Eu 0.22147 0.77156 0.68384 0.0
O71 O 0.3589 0.68361 0.91048 0.0
O72 O 0.26241 0.80259 0.80948 0.0
O73 O 0.44628 0.88582 0.73837 0.0
O74 O 0.57298 0.77947 0.80955 0.0
Eu75 Eu 0.48969 0.90138 0.86337 0.0
O76 O 0.29935 0.26289 0.71472 0.0
O77 O 0.09092 0.36629 0.59527 0.0
O78 O 0.54206 0.78898 0.9846 0.0
O79 O 0.42116 0.07727 0.83776 0.0
O80 O 0.25323 0.76137 0.98451 0.0
O81 O 0.96493 0.35242 0.83768 0.0
O82 O 0.77925 0.04468 0.71476 0.0
O83 O 0.6759 0.73291 0.59529 0.0
O84 O 0.30914 0.95132 0.59525 0.0
O85 O 0.99702 0.74253 0.71474 0.0
O86 O 0.68964 0.62048 0.83787 0.0
O87 O 0.28045 0.4996 0.98455 0.0
O88 O 0.72832 0.08822 0.84398 0.0
O89 O 0.42862 1.00829 0.94681 0.0
O90 O 0.47452 0.48068 0.59757 0.0
O91 O 0.03822 0.27438 0.72089 0.0
O92 O 0.03986 0.56755 0.59759 0.0
O93 O 0.26992 1.004 0.72089 0.0
O94 O 0.39341 0.31363 0.84402 0.0
O95 O 0.61315 0.61327 0.94683 0.0
O96 O 0.03376 0.42921 0.94678 0.0
O97 O 0.954 0.64828 0.84399 0.0
O98 O 0.76762 0.77198 0.72111 0.0
O99 O 0.56139 1.00199 0.59763 0.0
loop_
_geom_bond_atom_site_label_1
_geom_bond_atom_site_label_2
_geom_bond_distance
_geom_bond_site_symmetry_2
_ccdc_geom_bond_type
C0 O26 1.283 1_565 S
C0 O44 1.283 . S
C1 O27 1.283 . S
C1 O42 1.283 . S
C2 O28 1.283 . S
C2 O45 1.283 . S
C3 O29 1.283 . S
C3 O43 1.283 . S
C4 O30 1.283 . S
C4 O39 1.283 . S
C5 O31 1.283 . S
C5 O41 1.283 . S
C6 O32 1.283 . S
C6 O38 1.283 . S
C7 O33 1.283 . S
C7 O40 1.283 . S
C8 O34 1.283 1_455 S
C8 O49 1.283 . S
C9 O35 1.283 . S
C9 O47 1.283 . S
C10 O36 1.283 . S
C10 O48 1.283 . S
C11 O37 1.283 . S
C11 O46 1.283 . S
Eu12 O13 2.370 . S
Eu12 O14 2.370 . S
Eu12 O17 2.370 . S
Eu12 O18 2.370 . S
Eu12 O26 2.363 . S
Eu12 O27 2.363 . S
Eu12 O40 2.363 1_655 S
Eu12 O41 2.363 . S
O13 Eu12 2.370 . S
O13 Eu15 2.370 . S
O13 Eu20 2.370 . S
O14 Eu12 2.370 . S
O14 Eu16 2.370 . S
O14 Eu19 2.370 . S
Eu15 O13 2.370 . S
Eu15 O17 2.370 . S
Eu15 O21 2.370 . S
Eu15 O22 2.370 . S
Eu15 O30 2.363 . S
Eu15 O31 2.363 . S
Eu15 O46 2.363 1_545 S
Eu15 O47 2.363 . S
Eu16 O14 2.370 . S
Eu16 O18 2.370 . S
Eu16 O23 2.370 . S
Eu16 O24 2.370 . S
Eu16 O32 2.363 . S
Eu16 O33 2.363 1_655 S
Eu16 O48 2.363 . S
Eu16 O49 2.363 1_655 S
O17 Eu12 2.370 . S
O17 Eu15 2.370 . S
O17 Eu19 2.370 . S
O18 Eu12 2.370 . S
O18 Eu16 2.370 . S
O18 Eu20 2.370 . S
Eu19 O14 2.370 . S
Eu19 O17 2.370 . S
Eu19 O21 2.370 . S
Eu19 O24 2.370 . S
Eu19 O36 2.363 . S
Eu19 O37 2.363 1_545 S
Eu19 O44 2.363 1_545 S
Eu19 O45 2.363 . S
Eu20 O13 2.370 . S
Eu20 O18 2.370 . S
Eu20 O22 2.370 . S
Eu20 O23 2.370 . S
Eu20 O34 2.363 . S
Eu20 O35 2.363 . S
Eu20 O42 2.363 . S
Eu20 O43 2.363 . S
O21 Eu15 2.370 . S
O21 Eu19 2.370 . S
O21 Eu25 2.370 . S
O22 Eu15 2.370 . S
O22 Eu20 2.370 . S
O22 Eu25 2.370 . S
O23 Eu16 2.370 . S
O23 Eu20 2.370 . S
O23 Eu25 2.370 . S
O24 Eu16 2.370 . S
O24 Eu19 2.370 . S
O24 Eu25 2.370 . S
Eu25 O21 2.370 . S
Eu25 O22 2.370 . S
Eu25 O23 2.370 . S
Eu25 O24 2.370 . S
Eu25 O28 2.363 . S
Eu25 O29 2.363 . S
Eu25 O38 2.363 . S
Eu25 O39 2.363 . S
O26 C0 1.283 1_545 S
O26 Eu12 2.363 . S
O27 C1 1.283 . S
O27 Eu12 2.363 . S
O28 C2 1.283 . S
O28 Eu25 2.363 . S
O29 C3 1.283 . S
O29 Eu25 2.363 . S
O30 C4 1.283 . S
O30 Eu15 2.363 . S
O31 C5 1.283 . S
O31 Eu15 2.363 . S
O32 C6 1.283 . S
O32 Eu16 2.363 . S
O33 C7 1.283 . S
O33 Eu16 2.363 1_455 S
O34 C8 1.283 1_655 S
O34 Eu20 2.363 . S
O35 C9 1.283 . S
O35 Eu20 2.363 . S
O36 C10 1.283 . S
O36 Eu19 2.363 . S
O37 C11 1.283 . S
O37 Eu19 2.363 1_565 S
O38 C6 1.283 . S
O38 Eu25 2.363 . S
O39 C4 1.283 . S
O39 Eu25 2.363 . S
O40 C7 1.283 . S
O40 Eu12 2.363 1_455 S
O41 C5 1.283 . S
O41 Eu12 2.363 . S
O42 C1 1.283 . S
O42 Eu20 2.363 . S
O43 C3 1.283 . S
O43 Eu20 2.363 . S
O44 C0 1.283 . S
O44 Eu19 2.363 1_565 S
O45 C2 1.283 . S
O45 Eu19 2.363 . S
O46 C11 1.283 . S
O46 Eu15 2.363 1_565 S
O47 C9 1.283 . S
O47 Eu15 2.363 . S
O48 C10 1.283 . S
O48 Eu16 2.363 . S
O49 C8 1.283 . S
O49 Eu16 2.363 1_455 S
C50 O76 1.283 . S
C50 O94 1.283 . S
C51 O77 1.283 . S
C51 O92 1.283 . S
C52 O78 1.283 . S
C52 O95 1.283 . S
C53 O79 1.283 . S
C53 O93 1.283 . S
C54 O80 1.283 . S
C54 O89 1.283 . S
C55 O81 1.283 . S
C55 O91 1.283 . S
C56 O82 1.283 1_545 S
C56 O88 1.283 . S
C57 O83 1.283 . S
C57 O90 1.283 . S
C58 O84 1.283 . S
C58 O99 1.283 . S
C59 O85 1.283 1_655 S
C59 O97 1.283 . S
C60 O86 1.283 . S
C60 O98 1.283 . S
C61 O87 1.283 . S
C61 O96 1.283 . S
Eu62 O63 2.370 . S
Eu62 O64 2.370 . S
Eu62 O67 2.370 . S
Eu62 O68 2.370 . S
Eu62 O76 2.363 . S
Eu62 O77 2.363 . S
Eu62 O90 2.363 . S
Eu62 O91 2.363 1_455 S
O63 Eu62 2.370 . S
O63 Eu65 2.370 . S
O63 Eu70 2.370 . S
O64 Eu62 2.370 . S
O64 Eu66 2.370 . S
O64 Eu69 2.370 . S
Eu65 O63 2.370 . S
Eu65 O67 2.370 . S
Eu65 O71 2.370 . S
Eu65 O72 2.370 . S
Eu65 O80 2.363 . S
Eu65 O81 2.363 1_455 S
Eu65 O96 2.363 . S
Eu65 O97 2.363 1_455 S
Eu66 O64 2.370 . S
Eu66 O68 2.370 . S
Eu66 O73 2.370 . S
Eu66 O74 2.370 . S
Eu66 O82 2.363 . S
Eu66 O83 2.363 . S
Eu66 O98 2.363 . S
Eu66 O99 2.363 . S
O67 Eu62 2.370 . S
O67 Eu65 2.370 . S
O67 Eu69 2.370 . S
O68 Eu62 2.370 . S
O68 Eu66 2.370 . S
O68 Eu70 2.370 . S
Eu69 O64 2.370 . S
Eu69 O67 2.370 . S
Eu69 O71 2.370 . S
Eu69 O74 2.370 . S
Eu69 O86 2.363 . S
Eu69 O87 2.363 . S
Eu69 O94 2.363 . S
Eu69 O95 2.363 . S
Eu70 O63 2.370 . S
Eu70 O68 2.370 . S
Eu70 O72 2.370 . S
Eu70 O73 2.370 . S
Eu70 O84 2.363 . S
Eu70 O85 2.363 . S
Eu70 O92 2.363 . S
Eu70 O93 2.363 1_565 S
O71 Eu65 2.370 . S
O71 Eu69 2.370 . S
O71 Eu75 2.370 . S
O72 Eu65 2.370 . S
O72 Eu70 2.370 . S
O72 Eu75 2.370 . S
O73 Eu66 2.370 . S
O73 Eu70 2.370 . S
O73 Eu75 2.370 . S
O74 Eu66 2.370 . S
O74 Eu69 2.370 . S
O74 Eu75 2.370 . S
Eu75 O71 2.370 . S
Eu75 O72 2.370 . S
Eu75 O73 2.370 . S
Eu75 O74 2.370 . S
Eu75 O78 2.363 . S
Eu75 O79 2.363 1_565 S
Eu75 O88 2.363 1_565 S
Eu75 O89 2.363 . S
O76 C50 1.283 . S
O76 Eu62 2.363 . S
O77 C51 1.283 . S
O77 Eu62 2.363 . S
O78 C52 1.283 . S
O78 Eu75 2.363 . S
O79 C53 1.283 . S
O79 Eu75 2.363 1_545 S
O80 C54 1.283 . S
O80 Eu65 2.363 . S
O81 C55 1.283 . S
O81 Eu65 2.363 1_655 S
O82 C56 1.283 1_565 S
O82 Eu66 2.363 . S
O83 C57 1.283 . S
O83 Eu66 2.363 . S
O84 C58 1.283 . S
O84 Eu70 2.363 . S
O85 C59 1.283 1_455 S
O85 Eu70 2.363 . S
O86 C60 1.283 . S
O86 Eu69 2.363 . S
O87 C61 1.283 . S
O87 Eu69 2.363 . S
O88 C56 1.283 . S
O88 Eu75 2.363 1_545 S
O89 C54 1.283 . S
O89 Eu75 2.363 . S
O90 C57 1.283 . S
O90 Eu62 2.363 . S
O91 C55 1.283 . S
O91 Eu62 2.363 1_655 S
O92 C51 1.283 . S
O92 Eu70 2.363 . S
O93 C53 1.283 . S
O93 Eu70 2.363 1_545 S
O94 C50 1.283 . S
O94 Eu69 2.363 . S
O95 C52 1.283 . S
O95 Eu69 2.363 . S
O96 C61 1.283 . S
O96 Eu65 2.363 . S
O97 C59 1.283 . S
O97 Eu65 2.363 1_655 S
O98 C60 1.283 . S
O98 Eu66 2.363 . S
O99 C58 1.283 . S
O99 Eu66 2.363 . S
C54 C5 3.291 1_566 S
C57 C6 3.291 . S
C1 C61 3.291 1_654 S
C58 C2 3.291 1_565 S
C9 C52 3.291 1_554 S
C10 C51 3.291 1_655 S
C0 C3 1.492 . S
C59 C60 1.492 . S
C11 C8 1.492 . S
C50 C53 1.492 . S
C4 C7 1.492 . S
C55 C56 1.492 . S
