# Generated by pormake.
# Topology snp, (6)-cn, num edge types: 1
# Building blocks:
#     Node 0, Type 0, BuildingBlock: CUKXOW_clean_sbu_0, # of connection points: 6
#     Node 1, Type 0, BuildingBlock: CUKXOW_clean_sbu_0, # of connection points: 6
#     Node 2, Type 0, BuildingBlock: CUKXOW_clean_sbu_0, # of connection points: 6
#     Node 3, Type 0, BuildingBlock: CUKXOW_clean_sbu_0, # of connection points: 6
#     Edge 4, Type (0, 0), None
#     Edge 5, Type (0, 0), None
#     Edge 6, Type (0, 0), None
#     Edge 7, Type (0, 0), None
#     Edge 8, Type (0, 0), None
#     Edge 9, Type (0, 0), None
#     Edge 10, Type (0, 0), None
#     Edge 11, Type (0, 0), None
#     Edge 12, Type (0, 0), None
#     Edge 13, Type (0, 0), None
#     Edge 14, Type (0, 0), None
#     Edge 15, Type (0, 0), None
# Relax obj value: 0.240
# Max RMSD: 0.192
# Mean RMSD: 0.184
data_MOF--net-snp--node1-CUKXOW_clean_sbu_0--edge1-none
_symmetry_space_group_name_H-M    P1
_symmetry_Int_Tables_number       1
_symmetry_cell_setting            triclinic
loop_
_symmetry_equiv_pos_as_xyz
'x, y, z'
_cell_length_a     12.061974
_cell_length_b     12.566165
_cell_length_c     12.219031
_cell_angle_alpha  105.14171
_cell_angle_beta   94.967743
_cell_angle_gamma 103.40227
loop_
_atom_site_label
_atom_site_type_symbol
_atom_site_fract_x
_atom_site_fract_y
_atom_site_fract_z
_atom_type_partial_charge
Tb0 Tb 0.2436 -0.00298 0.20077 0.0
C1 C 0.48597 0.0801 0.13395 0.0
Tb2 Tb 0.29517 0.21715 0.11427 0.0
O3 O 0.18353 0.86248 1.03453 0.0
O4 O 0.25089 0.03303 1.04387 0.0
O5 O 0.42182 0.01485 0.18562 0.0
C6 C 0.30533 0.35224 0.98101 0.0
O7 O 0.45604 0.16373 0.09998 0.0
C8 C 0.27172 0.26963 0.33787 0.0
C9 C 0.05421 0.07137 0.11045 0.0
O10 O 0.38891 0.31028 1.00809 0.0
O11 O 0.21935 0.32121 1.03233 0.0
O12 O 0.29702 0.34495 0.2824 0.0
O13 O 0.27682 0.17691 0.26855 0.0
O14 O 0.11458 0.13436 1.05408 0.0
O15 O 0.10036 0.06893 0.21057 0.0
C16 C 0.24868 0.88565 0.34961 0.0
O17 O 0.16261 0.86182 0.26721 0.0
O18 O 0.32955 0.97351 0.34959 0.0
C19 C 0.20618 0.9334 0.97355 0.0
Tb20 Tb 0.18005 0.32362 0.65941 0.0
C21 C 0.0486 0.50108 0.62252 0.0
Tb22 Tb 0.95601 0.24149 0.51256 0.0
O23 O 0.31161 0.34188 0.54935 0.0
O24 O 0.13273 0.27442 0.48011 0.0
O25 O 0.15079 0.48505 0.65028 0.0
C26 C 0.85115 0.21101 0.31062 0.0
O27 O 0.9553 0.41697 0.57829 0.0
C28 C 0.901 0.23057 0.71175 0.0
C29 C 0.05916 0.07113 0.5745 0.0
O30 O 0.92667 0.30395 0.36882 0.0
O31 O 0.82837 0.13816 0.36894 0.0
O32 O 0.82558 0.21053 0.62058 0.0
O33 O 0.00403 0.2655 0.68924 0.0
O34 O -0.03002 0.075 0.50924 0.0
O35 O 0.15797 0.14369 0.58216 0.0
C36 C 0.28283 0.37405 0.87287 0.0
O37 O 0.3279 0.33399 0.78319 0.0
O38 O 0.18272 0.38538 0.84084 0.0
C39 C 0.23638 0.29212 0.45532 0.0
Tb40 Tb 0.77422 0.90174 0.15 0.0
C41 C -0.0179 0.96286 1.03761 0.0
Tb42 Tb 0.80425 0.07665 0.97262 0.0
O43 O 0.71988 0.74855 0.99816 0.0
O44 O 0.71842 0.9084 0.98257 0.0
O45 O 0.93704 0.89159 0.09356 0.0
C46 C 0.86644 0.18539 0.81099 0.0
O47 O 0.91968 0.96804 0.94714 0.0
C48 C 0.84516 0.17179 0.19132 0.0
C49 C 0.59128 0.04875 0.10534 0.0
O50 O 0.93451 0.18536 0.89994 0.0
O51 O 0.76373 0.12134 0.81234 0.0
O52 O 0.84897 0.23255 0.11998 0.0
O53 O 0.83978 0.07122 0.13946 0.0
O54 O 0.63273 0.07591 1.01473 0.0
O55 O 0.63372 -0.01095 0.16896 0.0
C56 C 0.83463 0.83851 0.34682 0.0
O57 O 0.7322 0.8087 0.28275 0.0
O58 O 0.90011 0.90841 0.30144 0.0
C59 C 0.70616 0.80648 0.92514 0.0
Tb60 Tb 0.13189 0.85855 0.62996 0.0
C61 C 0.0397 0.61642 0.63444 0.0
Tb62 Tb 0.90318 0.80829 0.67784 0.0
O63 O 0.25519 0.90182 0.78114 0.0
O64 O 0.0702 0.86552 0.78911 0.0
O65 O 0.13444 0.69309 0.63766 0.0
C66 C 0.74023 0.78092 0.81197 0.0
O67 O 0.93772 0.63921 0.63571 0.0
C68 C 0.8641 0.81073 0.46127 0.0
C69 C 0.04332 0.05154 0.6836 0.0
O70 O 0.80701 0.71465 0.78358 0.0
O71 O 0.76285 0.85959 0.76065 0.0
O72 O 0.78438 0.77485 0.51811 0.0
O73 O 0.96324 0.82839 0.52389 0.0
O74 O 0.94233 -0.00877 0.69528 0.0
O75 O 0.13404 0.02702 0.71808 0.0
C76 C 0.23235 0.85443 0.45101 0.0
O77 O 0.27522 0.92687 0.55178 0.0
O78 O 0.13698 0.78379 0.45343 0.0
C79 C 0.1748 0.89881 0.84668 0.0
loop_
_geom_bond_atom_site_label_1
_geom_bond_atom_site_label_2
_geom_bond_distance
_geom_bond_site_symmetry_2
_ccdc_geom_bond_type
Tb0 O3 2.453 1_554 S
Tb0 O4 2.596 1_564 S
Tb0 O5 2.374 1_565 S
Tb0 O13 2.343 1_565 S
Tb0 O15 2.353 1_565 S
Tb0 O17 2.427 . S
Tb0 O18 2.513 . S
C1 O5 1.251 . S
C1 O7 1.263 . S
Tb2 O4 2.343 1_554 S
Tb2 O7 2.353 . S
Tb2 O10 2.427 1_554 S
Tb2 O11 2.513 1_554 S
Tb2 O12 2.453 . S
Tb2 O13 2.596 . S
Tb2 O14 2.374 . S
O3 Tb0 2.453 1_556 S
O3 C19 1.245 . S
O4 Tb0 2.596 1_546 S
O4 Tb2 2.343 1_556 S
O4 C19 1.259 1_545 S
O5 Tb0 2.374 1_545 S
O5 C1 1.251 . S
C6 O10 1.275 . S
C6 O11 1.246 . S
O7 C1 1.263 . S
O7 Tb2 2.353 . S
C8 O12 1.245 . S
C8 O13 1.259 . S
C9 O14 1.250 . S
C9 O15 1.263 . S
O10 Tb2 2.427 1_556 S
O10 C6 1.275 . S
O11 Tb2 2.513 1_556 S
O11 C6 1.246 . S
O12 Tb2 2.453 . S
O12 C8 1.245 . S
O13 Tb0 2.343 1_545 S
O13 Tb2 2.596 . S
O13 C8 1.259 . S
O14 Tb2 2.374 . S
O14 C9 1.250 . S
O15 Tb0 2.353 1_545 S
O15 C9 1.263 . S
C16 O17 1.275 . S
C16 O18 1.246 . S
O17 Tb0 2.427 . S
O17 C16 1.275 . S
O18 Tb0 2.513 . S
O18 C16 1.246 . S
C19 O3 1.245 . S
C19 O4 1.259 1_565 S
Tb20 O23 2.453 . S
Tb20 O24 2.596 . S
Tb20 O25 2.374 . S
Tb20 O33 2.343 . S
Tb20 O35 2.353 . S
Tb20 O37 2.427 . S
Tb20 O38 2.513 . S
C21 O25 1.251 . S
C21 O27 1.263 1_455 S
Tb22 O24 2.343 1_655 S
Tb22 O27 2.353 . S
Tb22 O30 2.427 . S
Tb22 O31 2.513 . S
Tb22 O32 2.453 . S
Tb22 O33 2.596 1_655 S
Tb22 O34 2.374 . S
O23 Tb20 2.453 . S
O23 C39 1.245 . S
O24 Tb20 2.596 . S
O24 Tb22 2.343 1_455 S
O24 C39 1.259 . S
O25 Tb20 2.374 . S
O25 C21 1.251 . S
C26 O30 1.275 . S
C26 O31 1.246 . S
O27 C21 1.263 1_655 S
O27 Tb22 2.353 . S
C28 O32 1.245 . S
C28 O33 1.259 1_655 S
C29 O34 1.250 1_455 S
C29 O35 1.263 . S
O30 Tb22 2.427 . S
O30 C26 1.275 . S
O31 Tb22 2.513 . S
O31 C26 1.246 . S
O32 Tb22 2.453 . S
O32 C28 1.245 . S
O33 Tb20 2.343 . S
O33 Tb22 2.596 1_455 S
O33 C28 1.259 1_455 S
O34 Tb22 2.374 . S
O34 C29 1.250 1_655 S
O35 Tb20 2.353 . S
O35 C29 1.263 . S
C36 O37 1.275 . S
C36 O38 1.246 . S
O37 Tb20 2.427 . S
O37 C36 1.275 . S
O38 Tb20 2.513 . S
O38 C36 1.246 . S
C39 O23 1.245 . S
C39 O24 1.259 . S
Tb40 O43 2.453 1_554 S
Tb40 O44 2.596 1_554 S
Tb40 O45 2.374 1_655 S
Tb40 O53 2.343 1_565 S
Tb40 O55 2.353 1_554 S
Tb40 O57 2.427 . S
Tb40 O58 2.513 . S
C41 O45 1.251 1_545 S
C41 O47 1.263 . S
Tb42 O44 2.343 1_545 S
Tb42 O47 2.353 1_656 S
Tb42 O50 2.427 . S
Tb42 O51 2.513 . S
Tb42 O52 2.453 1_556 S
Tb42 O53 2.596 1_556 S
Tb42 O54 2.374 . S
O43 Tb40 2.453 1_556 S
O43 C59 1.245 . S
O44 Tb40 2.596 1_556 S
O44 Tb42 2.343 1_565 S
O44 C59 1.259 . S
O45 Tb40 2.374 1_455 S
O45 C41 1.251 1_565 S
C46 O50 1.275 . S
C46 O51 1.246 . S
O47 C41 1.263 . S
O47 Tb42 2.353 1_454 S
C48 O52 1.245 . S
C48 O53 1.259 . S
C49 O54 1.250 1_565 S
C49 O55 1.263 . S
O50 Tb42 2.427 . S
O50 C46 1.275 . S
O51 Tb42 2.513 . S
O51 C46 1.246 . S
O52 Tb42 2.453 1_554 S
O52 C48 1.245 . S
O53 Tb40 2.343 1_545 S
O53 Tb42 2.596 1_554 S
O53 C48 1.259 . S
O54 Tb42 2.374 . S
O54 C49 1.250 1_545 S
O55 Tb40 2.353 1_556 S
O55 C49 1.263 . S
C56 O57 1.275 . S
C56 O58 1.246 . S
O57 Tb40 2.427 . S
O57 C56 1.275 . S
O58 Tb40 2.513 . S
O58 C56 1.246 . S
C59 O43 1.245 . S
C59 O44 1.259 . S
Tb60 O63 2.453 . S
Tb60 O64 2.596 . S
Tb60 O65 2.374 . S
Tb60 O73 2.343 . S
Tb60 O75 2.353 1_565 S
Tb60 O77 2.427 . S
Tb60 O78 2.513 . S
C61 O65 1.251 . S
C61 O67 1.263 1_455 S
Tb62 O64 2.343 1_655 S
Tb62 O67 2.353 . S
Tb62 O70 2.427 . S
Tb62 O71 2.513 . S
Tb62 O72 2.453 . S
Tb62 O73 2.596 1_655 S
Tb62 O74 2.374 1_565 S
O63 Tb60 2.453 . S
O63 C79 1.245 . S
O64 Tb60 2.596 . S
O64 Tb62 2.343 1_455 S
O64 C79 1.259 . S
O65 Tb60 2.374 . S
O65 C61 1.251 . S
C66 O70 1.275 . S
C66 O71 1.246 . S
O67 C61 1.263 1_655 S
O67 Tb62 2.353 . S
C68 O72 1.245 . S
C68 O73 1.259 1_655 S
C69 O74 1.250 1_455 S
C69 O75 1.263 . S
O70 Tb62 2.427 . S
O70 C66 1.275 . S
O71 Tb62 2.513 . S
O71 C66 1.246 . S
O72 Tb62 2.453 . S
O72 C68 1.245 . S
O73 Tb60 2.343 . S
O73 Tb62 2.596 1_455 S
O73 C68 1.259 1_455 S
O74 Tb62 2.374 1_545 S
O74 C69 1.250 1_655 S
O75 Tb60 2.353 1_545 S
O75 C69 1.263 . S
C76 O77 1.275 . S
C76 O78 1.246 . S
O77 Tb60 2.427 . S
O77 C76 1.275 . S
O78 Tb60 2.513 . S
O78 C76 1.246 . S
C79 O63 1.245 . S
C79 O64 1.259 . S
C41 C9 1.217 . S
C69 C29 1.104 . S
C49 C1 2.173 1_566 S
C21 C61 1.100 . S
C39 C8 2.820 . S
C28 C46 2.551 . S
C68 C56 2.445 . S
C79 C19 2.322 . S
C59 C66 1.122 . S
C16 C76 1.193 . S
C36 C6 1.151 . S
C48 C26 0.691 . S
