# Generated by pormake.
# Topology kag, (6)-cn, num edge types: 1
# Building blocks:
#     Node 0, Type 0, BuildingBlock: MIFKUJ_clean_sbu_0, # of connection points: 6
#     Node 1, Type 0, BuildingBlock: MIFKUJ_clean_sbu_0, # of connection points: 6
#     Node 2, Type 0, BuildingBlock: MIFKUJ_clean_sbu_0, # of connection points: 6
#     Edge 3, Type (0, 0), BuildingBlock: AJUNOK_clean_linker_0, # of connection points: 2
#     Edge 4, Type (0, 0), BuildingBlock: AJUNOK_clean_linker_0, # of connection points: 2
#     Edge 5, Type (0, 0), BuildingBlock: AJUNOK_clean_linker_0, # of connection points: 2
#     Edge 6, Type (0, 0), BuildingBlock: AJUNOK_clean_linker_0, # of connection points: 2
#     Edge 7, Type (0, 0), BuildingBlock: AJUNOK_clean_linker_0, # of connection points: 2
#     Edge 8, Type (0, 0), BuildingBlock: AJUNOK_clean_linker_0, # of connection points: 2
#     Edge 9, Type (0, 0), BuildingBlock: AJUNOK_clean_linker_0, # of connection points: 2
#     Edge 10, Type (0, 0), BuildingBlock: AJUNOK_clean_linker_0, # of connection points: 2
#     Edge 11, Type (0, 0), BuildingBlock: AJUNOK_clean_linker_0, # of connection points: 2
# Relax obj value: 0.014
# Max RMSD: 0.075
# Mean RMSD: 0.048
data_MOF--net-kag--node1-MIFKUJ_clean_sbu_0--edge1-AJUNOK_clean_linker_0
_symmetry_space_group_name_H-M    P1
_symmetry_Int_Tables_number       1
_symmetry_cell_setting            triclinic
loop_
_symmetry_equiv_pos_as_xyz
'x, y, z'
_cell_length_a     27.54969
_cell_length_b     26.810229
_cell_length_c     10.31402
_cell_angle_alpha  91.5553
_cell_angle_beta   97.467839
_cell_angle_gamma 114.92807
loop_
_atom_site_label
_atom_site_type_symbol
_atom_site_fract_x
_atom_site_fract_y
_atom_site_fract_z
_atom_type_partial_charge
Zn0 Zn 0.06625 0.55637 -0.0164 0.0
Zn1 Zn 0.94846 0.44402 0.95196 0.0
C2 C 0.1402 0.51236 0.07832 0.0
O3 O 0.13871 0.53802 0.18697 0.0
C4 C 0.86993 0.48698 0.87888 0.0
O5 O 0.86723 0.46466 0.76163 0.0
O6 O 0.12349 0.63528 0.00676 0.0
O7 O 0.01944 0.54743 0.81433 0.0
O8 O 0.98381 0.45645 0.79336 0.0
C9 C 0.16508 0.64779 0.9507 0.0
O10 O 0.16892 0.60918 0.87737 0.0
O11 O 0.10797 0.50989 0.97565 0.0
C12 C 0.87211 0.33283 0.00499 0.0
O13 O 0.9003 0.34412 0.12349 0.0
O14 O 0.88787 0.36729 0.92013 0.0
O15 O 0.99502 0.45277 0.12326 0.0
O16 O 0.02975 0.54397 0.14016 0.0
O17 O 0.90715 0.48977 0.96977 0.0
C18 C 1.00238 0.50224 0.74383 0.0
C19 C 0.01376 0.49869 0.19245 0.0
Zn20 Zn 0.45035 0.94248 0.9721 0.0
Zn21 Zn 0.5647 0.06187 -0.00711 0.0
C22 C 0.48069 0.85855 0.90881 0.0
O23 O 0.45 0.85789 0.79959 0.0
C24 C 0.51283 0.13416 0.03588 0.0
O25 O 0.52434 0.12671 0.15919 0.0
O26 O 0.37394 0.8833 0.94218 0.0
O27 O 0.4617 0.9896 0.13611 0.0
O28 O 0.55157 0.03089 0.16654 0.0
C29 C 0.34669 0.8648 0.03446 0.0
O30 O 0.36613 0.88846 0.15463 0.0
O31 O 0.49144 0.89561 0.00159 0.0
C32 C 0.65808 0.14713 0.92036 0.0
O33 O 0.62232 0.13976 0.81554 0.0
O34 O 0.6433 0.11639 0.01295 0.0
O35 O 0.55166 0.00803 0.83998 0.0
O36 O 0.463 0.97979 0.80617 0.0
O37 O 0.52404 0.10878 0.94695 0.0
C38 C 0.507 0.01134 0.21109 0.0
C39 C 0.50731 0.99272 0.76269 0.0
Zn40 Zn 0.55481 0.45584 0.9552 0.0
Zn41 Zn 0.44541 0.53234 0.9632 0.0
C42 C 0.4936 0.33886 0.97854 0.0
O43 O 0.47065 0.35705 0.06031 0.0
C44 C 0.49599 0.65022 0.93132 0.0
O45 O 0.51632 0.6344 0.83862 0.0
O46 O 0.63367 0.48971 0.92785 0.0
O47 O 0.51117 0.48427 0.83416 0.0
O48 O 0.45556 0.52026 0.77271 0.0
C49 C 0.66115 0.46558 0.98092 0.0
O50 O 0.63739 0.42359 0.04874 0.0
O51 O 0.5279 0.37346 0.91634 0.0
C52 C 0.34828 0.51176 0.06783 0.0
O53 O 0.38419 0.54716 0.16144 0.0
O54 O 0.36476 0.49606 0.97189 0.0
O55 O 0.48879 0.50607 0.10201 0.0
O56 O 0.54711 0.47018 0.1469 0.0
O57 O 0.46723 0.61428 0.00114 0.0
C58 C 0.4872 0.50002 0.74205 0.0
C59 C 0.51593 0.48963 0.18629 0.0
C60 C 0.96879 0.45768 0.5173 0.0
C61 C 0.00614 0.50261 0.60417 0.0
C62 C 0.97212 0.45627 0.3838 0.0
C63 C 0.01296 0.49965 0.33361 0.0
H64 H 0.93637 0.4237 0.55241 0.0
H65 H 0.94181 0.42162 0.3194 0.0
S66 S 0.12307 0.62454 0.52264 0.0
N67 N 0.08668 0.59015 0.63295 0.0
N68 N 0.09303 0.58749 0.38082 0.0
C69 C 0.05104 0.54449 0.41973 0.0
C70 C 0.04758 0.54599 0.55562 0.0
C71 C 0.50811 0.04938 0.43356 0.0
C72 C 0.50783 0.00671 0.3513 0.0
C73 C 0.50819 0.04462 0.5683 0.0
C74 C 0.50834 -0.0027 0.62292 0.0
H75 H 0.50792 0.08625 0.39367 0.0
H76 H 0.5081 0.07793 0.63007 0.0
S77 S 0.50795 0.87488 0.44784 0.0
N78 N 0.50745 0.91611 0.33197 0.0
N79 N 0.50877 0.90769 0.58658 0.0
C80 C 0.50856 0.95477 0.54177 0.0
C81 C 0.50796 0.95936 0.40491 0.0
C82 C 0.46757 0.51407 0.5039 0.0
C83 C 0.49577 0.49625 0.60191 0.0
C84 C 0.47492 0.51221 0.37174 0.0
C85 C 0.51061 0.49229 0.32965 0.0
H86 H 0.43939 0.52987 0.52911 0.0
H87 H 0.45223 0.52662 0.30183 0.0
S88 S 0.59542 0.44124 0.54711 0.0
N89 N 0.56177 0.45846 0.64734 0.0
N90 N 0.5754 0.45472 0.39965 0.0
C91 C 0.53941 0.47444 0.42682 0.0
C92 C 0.532 0.47644 0.56215 0.0
C93 C 0.22052 0.50058 0.18731 0.0
C94 C 0.18672 0.49859 0.07059 0.0
C95 C 0.27134 0.50086 0.1849 0.0
C96 C 0.29025 0.49855 0.06571 0.0
H97 H 0.20903 0.50505 0.28198 0.0
H98 H 0.2971 0.50555 0.27754 0.0
S99 S 0.21505 0.48605 0.73173 0.0
N100 N 0.17383 0.48886 0.8315 0.0
N101 N 0.26929 0.48897 0.82745 0.0
C102 C 0.25518 0.4919 0.94792 0.0
C103 C 0.20338 0.49197 0.95023 0.0
C104 C 0.75261 0.19785 0.04285 0.0
C105 C 0.7136 0.19273 0.93421 0.0
C106 C 0.8042 0.24238 0.06294 0.0
C107 C 0.81905 0.28362 0.97507 0.0
H108 H 0.74307 0.16765 0.11442 0.0
H109 H 0.83237 0.24482 0.14925 0.0
S110 S 0.73208 0.28963 0.67414 0.0
N111 N 0.69382 0.23277 0.73644 0.0
N112 N 0.79048 0.31616 0.77403 0.0
C113 C 0.78083 0.27847 0.86441 0.0
C114 C 0.72825 0.23317 0.84407 0.0
C115 C 0.51289 0.79103 0.83053 0.0
C116 C 0.4933 0.81083 0.92942 0.0
C117 C 0.51659 0.74055 0.83638 0.0
C118 C 0.49932 0.70709 0.93958 0.0
H119 H 0.52401 0.81404 0.74597 0.0
H120 H 0.53068 0.72656 0.75574 0.0
S121 S 0.44472 0.741 0.22333 0.0
N122 N 0.45743 0.7943 0.13492 0.0
N123 N 0.46312 0.69873 0.14537 0.0
C124 C 0.48093 0.72733 0.04121 0.0
C125 C 0.47818 0.77934 0.03621 0.0
C126 C 0.78549 0.50064 0.81512 0.0
C127 C 0.8219 0.49314 0.91325 0.0
C128 C 0.7346 0.49557 0.83967 0.0
C129 C 0.71799 0.48146 0.96222 0.0
H130 H 0.79552 0.50833 0.71723 0.0
H131 H 0.70695 0.49941 0.76004 0.0
S132 S 0.79944 0.46218 0.25533 0.0
N133 N 0.83893 0.4755 0.14131 0.0
N134 N 0.74316 0.46447 0.18515 0.0
C135 C 0.75495 0.47668 0.06265 0.0
C136 C 0.80699 0.483 0.03889 0.0
C137 C 0.25932 0.71382 0.92766 0.0
C138 C 0.20995 0.70425 0.97103 0.0
C139 C 0.30295 0.76626 0.94668 0.0
C140 C 0.29909 0.811 0.01089 0.0
H141 H 0.26471 0.68046 0.87971 0.0
H142 H 0.34045 0.77155 0.91347 0.0
S143 S 0.17884 0.80954 0.13731 0.0
N144 N 0.15947 0.74525 0.07635 0.0
N145 N 0.24243 0.84359 0.11445 0.0
C146 C 0.25033 0.80248 0.05441 0.0
C147 C 0.20548 0.74918 0.03372 0.0
C148 C 0.5148 0.26319 0.89213 0.0
C149 C 0.48815 0.28122 0.97733 0.0
C150 C 0.51912 0.21319 0.90507 0.0
C151 C 0.49749 0.17965 0.0047 0.0
H152 H 0.53477 0.28905 0.81862 0.0
H153 H 0.54259 0.20261 0.84207 0.0
S154 S 0.41605 0.20278 0.23866 0.0
N155 N 0.43347 0.25728 0.15343 0.0
N156 N 0.44278 0.16408 0.17895 0.0
C157 C 0.4674 0.19499 0.08405 0.0
C158 C 0.46232 0.24551 0.06991 0.0
loop_
_geom_bond_atom_site_label_1
_geom_bond_atom_site_label_2
_geom_bond_distance
_geom_bond_site_symmetry_2
_ccdc_geom_bond_type
Zn0 O6 1.969 . S
Zn0 O7 1.965 1_554 S
Zn0 O11 2.024 1_554 S
Zn0 O16 1.969 . S
Zn1 O8 1.969 . S
Zn1 O14 1.969 . S
Zn1 O15 1.965 1_556 S
Zn1 O17 2.024 1_556 S
C2 O3 1.229 . S
C2 O11 1.058 1_554 S
O3 C2 1.229 . S
C4 O5 1.229 . S
C4 O17 1.058 1_556 S
O5 C4 1.229 . S
O6 Zn0 1.969 . S
O6 C9 1.267 1_554 S
O7 Zn0 1.965 1_556 S
O7 C18 1.260 1_455 S
O8 Zn1 1.969 . S
O8 C18 1.258 . S
C9 O6 1.267 1_556 S
C9 O10 1.228 . S
O10 C9 1.228 . S
O11 Zn0 2.024 1_556 S
O11 C2 1.058 1_556 S
C12 O13 1.228 . S
C12 O14 1.267 1_554 S
O13 C12 1.228 . S
O14 Zn1 1.969 . S
O14 C12 1.267 1_556 S
O15 Zn1 1.965 1_554 S
O15 C19 1.260 1_655 S
O16 Zn0 1.969 . S
O16 C19 1.258 . S
O17 Zn1 2.024 1_554 S
O17 C4 1.058 1_554 S
C18 O7 1.260 1_655 S
C18 O8 1.258 . S
C19 O15 1.260 1_455 S
C19 O16 1.258 . S
Zn20 O26 1.969 . S
Zn20 O27 1.965 1_556 S
Zn20 O31 2.024 1_556 S
Zn20 O36 1.969 . S
Zn21 O28 1.969 . S
Zn21 O34 1.969 . S
Zn21 O35 1.965 1_554 S
Zn21 O37 2.024 1_554 S
C22 O23 1.229 . S
C22 O31 1.058 1_556 S
O23 C22 1.229 . S
C24 O25 1.229 . S
C24 O37 1.058 1_554 S
O25 C24 1.229 . S
O26 Zn20 1.969 . S
O26 C29 1.267 1_556 S
O27 Zn20 1.965 1_554 S
O27 C38 1.260 1_565 S
O28 Zn21 1.969 . S
O28 C38 1.258 . S
C29 O26 1.267 1_554 S
C29 O30 1.228 . S
O30 C29 1.228 . S
O31 Zn20 2.024 1_554 S
O31 C22 1.058 1_554 S
C32 O33 1.228 . S
C32 O34 1.267 1_556 S
O33 C32 1.228 . S
O34 Zn21 1.969 . S
O34 C32 1.267 1_554 S
O35 Zn21 1.965 1_556 S
O35 C39 1.260 1_545 S
O36 Zn20 1.969 . S
O36 C39 1.258 . S
O37 Zn21 2.024 1_556 S
O37 C24 1.058 1_556 S
C38 O27 1.260 1_545 S
C38 O28 1.258 . S
C39 O35 1.260 1_565 S
C39 O36 1.258 . S
Zn40 O46 1.969 . S
Zn40 O47 1.965 1_554 S
Zn40 O51 2.024 1_554 S
Zn40 O56 1.969 . S
Zn41 O48 1.969 . S
Zn41 O54 1.969 . S
Zn41 O55 1.965 1_556 S
Zn41 O57 2.024 1_556 S
C42 O43 1.229 . S
C42 O51 1.058 1_554 S
O43 C42 1.229 . S
C44 O45 1.229 . S
C44 O57 1.058 1_556 S
O45 C44 1.229 . S
O46 Zn40 1.969 . S
O46 C49 1.267 1_554 S
O47 Zn40 1.965 1_556 S
O47 C58 1.260 . S
O48 Zn41 1.969 . S
O48 C58 1.258 . S
C49 O46 1.267 1_556 S
C49 O50 1.228 . S
O50 C49 1.228 . S
O51 Zn40 2.024 1_556 S
O51 C42 1.058 1_556 S
C52 O53 1.228 . S
C52 O54 1.267 1_554 S
O53 C52 1.228 . S
O54 Zn41 1.969 . S
O54 C52 1.267 1_556 S
O55 Zn41 1.965 1_554 S
O55 C59 1.260 . S
O56 Zn40 1.969 . S
O56 C59 1.258 . S
O57 Zn41 2.024 1_554 S
O57 C44 1.058 1_554 S
C58 O47 1.260 . S
C58 O48 1.258 . S
C59 O55 1.260 . S
C59 O56 1.258 . S
C60 C61 1.369 . S
C60 C62 1.419 . S
C60 H64 0.930 . S
C61 C60 1.369 . S
C61 C70 1.429 1_655 S
C62 C60 1.419 . S
C62 C63 1.363 1_655 S
C62 H65 0.929 . S
C63 C62 1.363 1_455 S
C63 C69 1.428 . S
H64 C60 0.930 . S
H65 C62 0.929 . S
S66 N67 1.613 . S
S66 N68 1.610 . S
N67 S66 1.613 . S
N67 C70 1.350 . S
N68 S66 1.610 . S
N68 C69 1.351 . S
C69 C63 1.428 . S
C69 N68 1.351 . S
C69 C70 1.434 . S
C70 C61 1.429 1_455 S
C70 N67 1.350 . S
C70 C69 1.434 . S
C71 C72 1.381 . S
C71 C73 1.419 . S
C71 H75 0.930 . S
C72 C71 1.381 . S
C72 C81 1.416 1_545 S
C73 C71 1.419 . S
C73 C74 1.375 . S
C73 H76 0.929 . S
C74 C73 1.375 . S
C74 C80 1.417 1_545 S
H75 C71 0.930 . S
H76 C73 0.929 . S
S77 N78 1.613 . S
S77 N79 1.610 . S
N78 S77 1.613 . S
N78 C81 1.350 . S
N79 S77 1.610 . S
N79 C80 1.351 . S
C80 C74 1.417 1_565 S
C80 N79 1.351 . S
C80 C81 1.434 . S
C81 C72 1.416 1_565 S
C81 N78 1.350 . S
C81 C80 1.434 . S
C82 C83 1.369 . S
C82 C84 1.419 . S
C82 H86 0.930 . S
C83 C82 1.369 . S
C83 C92 1.429 . S
C84 C82 1.419 . S
C84 C85 1.363 . S
C84 H87 0.929 . S
C85 C84 1.363 . S
C85 C91 1.428 . S
H86 C82 0.930 . S
H87 C84 0.929 . S
S88 N89 1.613 . S
S88 N90 1.610 . S
N89 S88 1.613 . S
N89 C92 1.350 . S
N90 S88 1.610 . S
N90 C91 1.351 . S
C91 C85 1.428 . S
C91 N90 1.351 . S
C91 C92 1.434 . S
C92 C83 1.429 . S
C92 N89 1.350 . S
C92 C91 1.434 . S
C93 C94 1.369 . S
C93 C95 1.419 . S
C93 H97 0.930 . S
C94 C93 1.369 . S
C94 C103 1.429 1_554 S
C95 C93 1.419 . S
C95 C96 1.363 . S
C95 H98 0.929 . S
C96 C95 1.363 . S
C96 C102 1.428 1_554 S
H97 C93 0.930 . S
H98 C95 0.929 . S
S99 N100 1.613 . S
S99 N101 1.610 . S
N100 S99 1.613 . S
N100 C103 1.350 . S
N101 S99 1.610 . S
N101 C102 1.351 . S
C102 C96 1.428 1_556 S
C102 N101 1.351 . S
C102 C103 1.434 . S
C103 C94 1.429 1_556 S
C103 N100 1.350 . S
C103 C102 1.434 . S
C104 C105 1.369 1_554 S
C104 C106 1.419 . S
C104 H108 0.930 . S
C105 C104 1.369 1_556 S
C105 C114 1.429 . S
C106 C104 1.419 . S
C106 C107 1.363 . S
C106 H109 0.929 . S
C107 C106 1.363 . S
C107 C113 1.428 1_554 S
H108 C104 0.930 . S
H109 C106 0.929 . S
S110 N111 1.613 . S
S110 N112 1.610 . S
N111 S110 1.613 . S
N111 C114 1.350 . S
N112 S110 1.610 . S
N112 C113 1.351 . S
C113 C107 1.428 1_556 S
C113 N112 1.351 . S
C113 C114 1.434 . S
C114 C105 1.429 . S
C114 N111 1.350 . S
C114 C113 1.434 . S
C115 C116 1.369 . S
C115 C117 1.419 . S
C115 H119 0.930 . S
C116 C115 1.369 . S
C116 C125 1.429 1_556 S
C117 C115 1.419 . S
C117 C118 1.363 1_556 S
C117 H120 0.929 . S
C118 C117 1.363 1_554 S
C118 C124 1.428 . S
H119 C115 0.930 . S
H120 C117 0.929 . S
S121 N122 1.613 . S
S121 N123 1.610 . S
N122 S121 1.613 . S
N122 C125 1.350 . S
N123 S121 1.610 . S
N123 C124 1.351 . S
C124 C118 1.428 . S
C124 N123 1.351 . S
C124 C125 1.434 . S
C125 C116 1.429 1_554 S
C125 N122 1.350 . S
C125 C124 1.434 . S
C126 C127 1.369 . S
C126 C128 1.419 . S
C126 H130 0.930 . S
C127 C126 1.369 . S
C127 C136 1.429 1_556 S
C128 C126 1.419 . S
C128 C129 1.363 . S
C128 H131 0.929 . S
C129 C128 1.363 . S
C129 C135 1.428 1_556 S
H130 C126 0.930 . S
H131 C128 0.929 . S
S132 N133 1.613 . S
S132 N134 1.610 . S
N133 S132 1.613 . S
N133 C136 1.350 . S
N134 S132 1.610 . S
N134 C135 1.351 . S
C135 C129 1.428 1_554 S
C135 N134 1.351 . S
C135 C136 1.434 . S
C136 C127 1.429 1_554 S
C136 N133 1.350 . S
C136 C135 1.434 . S
C137 C138 1.369 . S
C137 C139 1.419 . S
C137 H141 0.930 . S
C138 C137 1.369 . S
C138 C147 1.429 . S
C139 C137 1.419 . S
C139 C140 1.363 1_556 S
C139 H142 0.929 . S
C140 C139 1.363 1_554 S
C140 C146 1.428 . S
H141 C137 0.930 . S
H142 C139 0.929 . S
S143 N144 1.613 . S
S143 N145 1.610 1_556 S
N144 S143 1.613 . S
N144 C147 1.350 . S
N145 S143 1.610 1_554 S
N145 C146 1.351 . S
C146 C140 1.428 . S
C146 N145 1.351 . S
C146 C147 1.434 1_554 S
C147 C138 1.429 . S
C147 N144 1.350 . S
C147 C146 1.434 1_556 S
C148 C149 1.369 . S
C148 C150 1.419 . S
C148 H152 0.930 . S
C149 C148 1.369 . S
C149 C158 1.429 1_556 S
C150 C148 1.419 . S
C150 C151 1.363 1_556 S
C150 H153 0.929 . S
C151 C150 1.363 1_554 S
C151 C157 1.428 . S
H152 C148 0.930 . S
H153 C150 0.929 . S
S154 N155 1.613 . S
S154 N156 1.610 . S
N155 S154 1.613 . S
N155 C158 1.350 . S
N156 S154 1.610 . S
N156 C157 1.351 . S
C157 C151 1.428 . S
C157 N156 1.351 . S
C157 C158 1.434 . S
C158 C149 1.429 1_554 S
C158 N155 1.350 . S
C158 C157 1.434 . S
C61 C18 1.501 . S
C63 C19 1.499 . S
C72 C38 1.489 . S
C74 C39 1.479 1_545 S
C83 C58 1.477 . S
C85 C59 1.474 . S
C94 C2 1.333 . S
C96 C52 1.402 . S
C105 C32 1.314 . S
C107 C12 1.305 . S
C116 C22 1.405 . S
C118 C44 1.420 1_554 S
C127 C4 1.326 . S
C129 C49 1.399 . S
C138 C9 1.310 . S
C140 C29 1.320 . S
C149 C42 1.424 1_556 S
C151 C24 1.410 . S
