# Generated by pormake.
# Topology hex, (8)-cn, num edge types: 1
# Building blocks:
#     Node 0, Type 0, BuildingBlock: AJUNOK_clean_sbu_0, # of connection points: 8
#     Edge 1, Type (0, 0), BuildingBlock: XUDNAN_clean_linker_2, # of connection points: 2
#     Edge 2, Type (0, 0), BuildingBlock: XUDNAN_clean_linker_2, # of connection points: 2
#     Edge 3, Type (0, 0), BuildingBlock: XUDNAN_clean_linker_2, # of connection points: 2
#     Edge 4, Type (0, 0), BuildingBlock: XUDNAN_clean_linker_2, # of connection points: 2
# Relax obj value: 0.045
# Max RMSD: 0.091
# Mean RMSD: 0.091
data_MOF--net-hex--node1-AJUNOK_clean_sbu_0--edge1-XUDNAN_clean_linker_2
_symmetry_space_group_name_H-M    P1
_symmetry_Int_Tables_number       1
_symmetry_cell_setting            triclinic
loop_
_symmetry_equiv_pos_as_xyz
'x, y, z'
_cell_length_a     20.645177
_cell_length_b     21.461577
_cell_length_c     15.288878
_cell_angle_alpha  88.94764
_cell_angle_beta   91.02686
_cell_angle_gamma 125.00688
loop_
_atom_site_label
_atom_site_type_symbol
_atom_site_fract_x
_atom_site_fract_y
_atom_site_fract_z
_atom_type_partial_charge
Cd0 Cd 0.10523 0.08309 0.97346 0.0
Cd1 Cd 0.88454 0.8545 0.9716 0.0
C2 C 0.08153 0.19505 0.07859 0.0
N3 N 0.06349 0.16186 -0.0013 0.0
C4 C 0.01959 0.23803 0.94788 0.0
C5 C 0.03804 0.27334 0.02983 0.0
C6 C 0.06837 0.25044 0.09595 0.0
C7 C 0.03269 0.18183 0.93367 0.0
H8 H 0.10893 0.18052 0.12811 0.0
H9 H 0.02073 0.15601 0.87002 0.0
C10 C 0.9851 -0.01285 0.79393 0.0
C11 C 0.97469 0.77872 0.92961 0.0
C12 C -0.00121 0.73052 0.94519 0.0
C13 C 0.01513 0.71873 0.03128 0.0
C14 C 0.0133 0.76168 0.09847 0.0
C15 C -0.01268 0.80801 0.08022 0.0
N16 N 0.96693 0.81421 -0.00286 0.0
H17 H 0.956 0.78297 0.86455 0.0
H18 H 0.97863 0.83485 0.1334 0.0
C19 C 0.75268 0.8742 0.89809 0.0
N20 N 0.78536 0.87535 0.97649 0.0
C21 C 0.6838 0.87337 0.05238 0.0
C22 C 0.64698 0.86894 0.97223 0.0
C23 C 0.68337 0.87117 0.89438 0.0
C24 C 0.7531 0.8759 0.05302 0.0
H25 H 0.7785 0.87205 0.83839 0.0
H26 H 0.77884 0.87463 0.11454 0.0
C27 C 0.98255 -0.02117 0.1532 0.0
C28 C 0.26711 0.20241 0.95035 0.0
N29 N 0.12782 -0.011 0.98363 0.0
C30 C 0.15354 -0.02205 0.06097 0.0
C31 C 0.18929 0.93898 0.06344 0.0
C32 C 0.20021 0.91269 0.98528 0.0
C33 C 0.16987 0.92224 0.90702 0.0
C34 C 0.13411 -0.0389 0.90764 0.0
C35 C 0.7638 0.69985 0.9449 0.0
O36 O 0.04474 0.04742 0.8264 0.0
O37 O 0.93906 0.93012 0.84206 0.0
O38 O 0.93274 0.92244 0.10662 0.0
O39 O 0.0446 0.03681 0.11999 0.0
O40 O 0.22022 0.169 0.8865 0.0
O41 O 0.23855 0.18061 0.02648 0.0
O42 O 0.78007 0.72868 0.02078 0.0
O43 O 0.80347 0.74377 0.88132 0.0
H44 H 0.15071 0.0033 0.11994 0.0
H45 H 0.11642 -0.02641 0.84658 0.0
H46 H -0.00394 0.25421 0.89527 0.0
H47 H 0.08473 0.27724 0.15946 0.0
H48 H -0.00168 0.69844 0.8911 0.0
H49 H 0.02725 0.75622 0.16553 0.0
H50 H 0.65727 0.87107 0.1139 0.0
H51 H 0.65749 0.86877 0.83119 0.0
H52 H 0.21115 0.93239 0.12534 0.0
H53 H 0.17828 0.90452 0.8449 0.0
H54 H 0.08518 0.39773 0.92532 0.0
H55 H 0.97133 0.29035 0.17184 0.0
H56 H 0.96113 0.39698 0.20304 0.0
H57 H 0.19931 0.59244 0.00452 0.0
H58 H 0.18795 0.6299 0.90348 0.0
H59 H 0.18769 0.54593 0.90258 0.0
H60 H 0.05154 0.47375 0.82232 0.0
H61 H 0.0521 0.55791 0.82441 0.0
H62 H 0.97031 0.46999 0.87064 0.0
H63 H 0.95878 0.51192 0.20492 0.0
H64 H 0.96067 0.62578 0.17662 0.0
H65 H 0.08227 0.6631 0.9315 0.0
C66 C 0.05754 0.39647 0.98549 0.0
C67 C 0.02879 0.33575 0.04616 0.0
C68 C -0.00592 0.33658 0.1248 0.0
C69 C -0.01192 0.39684 0.14306 0.0
C70 C 0.01774 0.4562 0.08237 0.0
C71 C 0.05179 0.45662 0.00519 0.0
C72 C 0.07847 0.5272 0.95094 0.0
C73 C 0.16874 0.57678 0.9398 0.0
C74 C 0.03551 0.50591 0.86182 0.0
C75 C 0.05245 0.5655 0.00882 0.0
C76 C 0.01809 0.52376 0.08451 0.0
C77 C -0.0134 0.54574 0.14649 0.0
C78 C -0.01114 0.61137 0.13004 0.0
C79 C 0.02277 0.65495 0.05223 0.0
C80 C 0.05602 0.63176 -0.00833 0.0
H81 H 0.59928 0.94295 0.06799 0.0
H82 H 0.51875 0.7703 0.86993 0.0
H83 H 0.39045 0.75427 0.86114 0.0
H84 H 0.40778 0.85483 0.17712 0.0
H85 H 0.42324 0.94502 0.19687 0.0
H86 H 0.50665 0.93894 0.19243 0.0
H87 H 0.56952 0.04318 0.07126 0.0
H88 H 0.48668 0.04984 0.0758 0.0
H89 H 0.5133 0.03036 0.97334 0.0
H90 H 0.27483 0.76366 0.86613 0.0
H91 H 0.18034 0.79788 0.88447 0.0
H92 H 0.33705 -0.0348 0.07815 0.0
C93 C 0.55419 0.90098 0.02378 0.0
C94 C 0.56912 0.85808 0.96944 0.0
C95 C 0.509 0.80454 0.91136 0.0
C96 C 0.43569 0.79453 0.90643 0.0
C97 C 0.42319 0.83831 0.96018 0.0
C98 C 0.48072 0.89045 0.01779 0.0
C99 C 0.45386 0.93334 0.06471 0.0
C100 C 0.4475 0.91703 0.16366 0.0
C101 C 0.50911 0.01924 0.04505 0.0
C102 C 0.37299 0.89828 0.02319 0.0
C103 C 0.35604 0.84302 0.96374 0.0
C104 C 0.28669 0.80571 0.91379 0.0
C105 C 0.23365 0.82596 0.9242 0.0
C106 C 0.25065 0.88375 0.98332 0.0
C107 C 0.3209 0.91931 0.03422 0.0
H108 H 0.37292 0.30326 0.07129 0.0
H109 H 0.34651 0.24632 0.79604 0.0
H110 H 0.48 0.36151 0.76803 0.0
H111 H 0.46027 0.49396 0.04077 0.0
H112 H 0.52758 0.52553 0.13267 0.0
H113 H 0.43625 0.43233 0.13449 0.0
H114 H 0.51325 0.37174 0.16203 0.0
H115 H 0.60511 0.46507 0.16095 0.0
H116 H 0.59069 0.39289 0.08818 0.0
H117 H 0.60698 0.48955 0.76615 0.0
H118 H 0.72009 0.62231 0.79099 0.0
H119 H 0.66333 0.5962 0.06719 0.0
C120 C 0.39617 0.31399 0.00564 0.0
C121 C 0.34983 0.26604 0.93589 0.0
C122 C 0.38134 0.28251 0.85043 0.0
C123 C 0.45717 0.3475 0.83394 0.0
C124 C 0.50058 0.39493 0.90371 0.0
C125 C 0.47155 0.3788 -0.01201 0.0
C126 C 0.52671 0.44282 0.04958 0.0
C127 C 0.48521 0.47558 0.09179 0.0
C128 C 0.56098 0.41654 0.1193 0.0
C129 C 0.5895 0.49872 0.98598 0.0
C130 C 0.57405 0.46953 0.90249 0.0
C131 C 0.62061 0.51267 0.83148 0.0
C132 C 0.68438 0.58802 0.84615 0.0
C133 C 0.7003 0.61924 0.93099 0.0
C134 C 0.65294 0.57354 0.00179 0.0
H135 H 0.0825 0.08301 0.66087 0.0
H136 H 0.84991 0.87648 0.71172 0.0
H137 H 0.82228 0.85935 0.55426 0.0
H138 H 0.02402 0.14635 0.46621 0.0
H139 H 0.11441 0.18023 0.40919 0.0
H140 H 0.11426 0.18195 0.52704 0.0
H141 H 0.17327 0.10313 0.534 0.0
H142 H 0.17332 0.1009 0.41635 0.0
H143 H 0.12294 0.01323 0.47848 0.0
H144 H 0.82234 0.85647 0.39501 0.0
H145 H 0.84915 0.86883 0.23814 0.0
H146 H 0.08156 0.0776 0.28362 0.0
C147 C 0.02526 0.03508 0.63877 0.0
C148 C 0.96814 -0.01851 0.69895 0.0
C149 C 0.89449 0.91867 0.66733 0.0
C150 C 0.87805 0.90836 0.5778 0.0
C151 C 0.93579 -0.03876 0.52033 0.0
C152 C 0.00784 0.02352 0.54895 0.0
C153 C 0.06089 0.06874 0.47206 0.0
C154 C 0.07948 0.14909 0.46843 0.0
C155 C 0.1371 0.07163 0.47546 0.0
C156 C 0.00775 0.02087 0.39632 0.0
C157 C 0.93576 -0.0404 0.42627 0.0
C158 C 0.87796 0.9048 0.37036 0.0
C159 C 0.89397 0.91247 0.28108 0.0
C160 C 0.96721 -0.02531 0.24801 0.0
C161 C 0.02468 0.02995 0.30665 0.0
loop_
_geom_bond_atom_site_label_1
_geom_bond_atom_site_label_2
_geom_bond_distance
_geom_bond_site_symmetry_2
_ccdc_geom_bond_type
Cd0 N3 2.334 . S
Cd0 N29 2.304 . S
Cd0 O36 2.268 1_554 S
Cd0 O39 2.273 . S
Cd0 O40 2.417 1_554 S
Cd0 O41 2.330 . S
Cd1 N16 2.304 . S
Cd1 N20 2.334 . S
Cd1 O37 2.273 . S
Cd1 O38 2.268 1_556 S
Cd1 O42 2.417 1_556 S
Cd1 O43 2.330 . S
C2 N3 1.332 . S
C2 C6 1.381 . S
C2 H8 0.931 . S
N3 Cd0 2.334 . S
N3 C2 1.332 . S
N3 C7 1.328 1_554 S
C4 C5 1.396 1_556 S
C4 C7 1.378 1_655 S
C4 H46 0.931 . S
C5 C4 1.396 1_554 S
C5 C6 1.382 1_655 S
C6 C2 1.381 . S
C6 C5 1.382 1_455 S
C6 H47 0.930 . S
C7 N3 1.328 1_556 S
C7 C4 1.378 1_455 S
C7 H9 0.930 . S
H8 C2 0.931 . S
H9 C7 0.930 . S
C10 O36 1.238 1_665 S
C10 O37 1.253 . S
C11 C12 1.379 . S
C11 N16 1.337 . S
C11 H17 0.929 . S
C12 C11 1.379 . S
C12 C13 1.380 1_655 S
C12 H48 0.929 . S
C13 C12 1.380 1_455 S
C13 C14 1.399 1_556 S
C14 C13 1.399 1_554 S
C14 C15 1.376 1_455 S
C14 H49 0.931 . S
C15 C14 1.376 1_655 S
C15 N16 1.338 1_554 S
C15 H18 0.930 . S
N16 Cd1 2.304 . S
N16 C11 1.337 . S
N16 C15 1.338 1_556 S
H17 C11 0.929 . S
H18 C15 0.930 . S
C19 N20 1.332 . S
C19 C23 1.381 . S
C19 H25 0.931 . S
N20 Cd1 2.334 . S
N20 C19 1.332 . S
N20 C24 1.328 1_556 S
C21 C22 1.396 1_554 S
C21 C24 1.378 1_545 S
C21 H50 0.931 . S
C22 C21 1.396 1_556 S
C22 C23 1.382 1_545 S
C23 C19 1.381 . S
C23 C22 1.382 1_565 S
C23 H51 0.930 . S
C24 N20 1.328 1_554 S
C24 C21 1.378 1_565 S
C24 H26 0.930 . S
H25 C19 0.931 . S
H26 C24 0.930 . S
C27 O38 1.238 1_445 S
C27 O39 1.253 . S
C28 O40 1.239 . S
C28 O41 1.230 1_556 S
N29 Cd0 2.304 . S
N29 C30 1.337 . S
N29 C34 1.338 1_554 S
C30 N29 1.337 . S
C30 C31 1.379 . S
C30 H44 0.929 . S
C31 C30 1.379 . S
C31 C32 1.380 1_545 S
C31 H52 0.929 . S
C32 C31 1.380 1_565 S
C32 C33 1.399 1_554 S
C33 C32 1.399 1_556 S
C33 C34 1.376 1_565 S
C33 H53 0.931 . S
C34 N29 1.338 1_556 S
C34 C33 1.376 1_545 S
C34 H45 0.930 . S
C35 O42 1.239 . S
C35 O43 1.230 1_554 S
O36 Cd0 2.268 1_556 S
O36 C10 1.238 1_445 S
O37 Cd1 2.273 . S
O37 C10 1.253 . S
O38 Cd1 2.268 1_554 S
O38 C27 1.238 1_665 S
O39 Cd0 2.273 . S
O39 C27 1.253 . S
O40 Cd0 2.417 1_556 S
O40 C28 1.239 . S
O41 Cd0 2.330 . S
O41 C28 1.230 1_554 S
O42 Cd1 2.417 1_554 S
O42 C35 1.239 . S
O43 Cd1 2.330 . S
O43 C35 1.230 1_556 S
H44 C30 0.929 . S
H45 C34 0.930 . S
H46 C4 0.931 . S
H47 C6 0.930 . S
H48 C12 0.929 . S
H49 C14 0.931 . S
H50 C21 0.931 . S
H51 C23 0.930 . S
H52 C31 0.929 . S
H53 C33 0.931 . S
H54 C66 0.930 . S
H55 C68 0.930 . S
H56 C69 0.930 . S
H57 C73 0.959 1_554 S
H58 C73 0.959 . S
H59 C73 0.961 . S
H60 C74 0.960 . S
H61 C74 0.961 . S
H62 C74 0.959 . S
H63 C77 0.929 . S
H64 C78 0.931 . S
H65 C80 0.930 . S
C66 H54 0.930 . S
C66 C67 1.399 1_456 S
C66 C71 1.399 . S
C67 C66 1.399 1_654 S
C67 C68 1.376 . S
C68 H55 0.930 . S
C68 C67 1.376 . S
C68 C69 1.388 . S
C69 H56 0.930 . S
C69 C68 1.388 . S
C69 C70 1.390 . S
C70 C69 1.390 . S
C70 C71 1.394 1_654 S
C70 C76 1.465 . S
C71 C66 1.399 . S
C71 C70 1.394 1_456 S
C71 C72 1.516 . S
C72 C71 1.516 . S
C72 C73 1.502 . S
C72 C74 1.561 . S
C72 C75 1.526 . S
C73 H57 0.959 1_556 S
C73 H58 0.959 . S
C73 H59 0.961 . S
C73 C72 1.502 . S
C74 H60 0.960 . S
C74 H61 0.961 . S
C74 H62 0.959 . S
C74 C72 1.561 . S
C75 C72 1.526 . S
C75 C76 1.396 1_456 S
C75 C80 1.390 . S
C76 C70 1.465 . S
C76 C75 1.396 1_654 S
C76 C77 1.399 . S
C77 H63 0.929 . S
C77 C76 1.399 . S
C77 C78 1.385 . S
C78 H64 0.931 . S
C78 C77 1.385 . S
C78 C79 1.389 1_654 S
C79 C78 1.389 1_456 S
C79 C80 1.387 . S
C80 H65 0.930 . S
C80 C75 1.390 . S
C80 C79 1.387 . S
H81 C93 0.930 . S
H82 C95 0.930 . S
H83 C96 0.930 . S
H84 C100 0.959 . S
H85 C100 0.959 . S
H86 C100 0.961 . S
H87 C101 0.960 . S
H88 C101 0.961 . S
H89 C101 0.959 1_556 S
H90 C104 0.929 . S
H91 C105 0.931 . S
H92 C107 0.930 . S
C93 H81 0.930 . S
C93 C94 1.399 1_554 S
C93 C98 1.399 . S
C94 C93 1.399 1_556 S
C94 C95 1.376 1_545 S
C95 H82 0.930 . S
C95 C94 1.376 1_565 S
C95 C96 1.388 . S
C96 H83 0.930 . S
C96 C95 1.388 . S
C96 C97 1.390 . S
C97 C96 1.390 . S
C97 C98 1.394 1_566 S
C97 C103 1.465 . S
C98 C93 1.399 . S
C98 C97 1.394 1_544 S
C98 C99 1.516 . S
C99 C98 1.516 . S
C99 C100 1.502 . S
C99 C101 1.561 . S
C99 C102 1.526 . S
C100 H84 0.959 . S
C100 H85 0.959 . S
C100 H86 0.961 . S
C100 C99 1.502 . S
C101 H87 0.960 . S
C101 H88 0.961 . S
C101 H89 0.959 1_554 S
C101 C99 1.561 . S
C102 C99 1.526 . S
C102 C103 1.396 1_544 S
C102 C107 1.390 . S
C103 C97 1.465 . S
C103 C102 1.396 1_566 S
C103 C104 1.399 . S
C104 H90 0.929 . S
C104 C103 1.399 . S
C104 C105 1.385 . S
C105 H91 0.931 . S
C105 C104 1.385 . S
C105 C106 1.389 1_556 S
C106 C105 1.389 1_554 S
C106 C107 1.387 1_565 S
C107 H92 0.930 . S
C107 C102 1.390 . S
C107 C106 1.387 1_545 S
H108 C120 0.930 . S
H109 C122 0.930 . S
H110 C123 0.930 . S
H111 C127 0.959 . S
H112 C127 0.959 . S
H113 C127 0.961 . S
H114 C128 0.960 . S
H115 C128 0.961 . S
H116 C128 0.959 . S
H117 C131 0.929 . S
H118 C132 0.931 . S
H119 C134 0.930 . S
C120 H108 0.930 . S
C120 C121 1.399 1_554 S
C120 C125 1.399 . S
C121 C120 1.399 1_556 S
C121 C122 1.376 . S
C122 H109 0.930 . S
C122 C121 1.376 . S
C122 C123 1.388 . S
C123 H110 0.930 . S
C123 C122 1.388 . S
C123 C124 1.390 . S
C124 C123 1.390 . S
C124 C125 1.394 1_556 S
C124 C130 1.465 . S
C125 C120 1.399 . S
C125 C124 1.394 1_554 S
C125 C126 1.516 . S
C126 C125 1.516 . S
C126 C127 1.502 . S
C126 C128 1.561 . S
C126 C129 1.526 . S
C127 H111 0.959 . S
C127 H112 0.959 . S
C127 H113 0.961 . S
C127 C126 1.502 . S
C128 H114 0.960 . S
C128 H115 0.961 . S
C128 H116 0.959 . S
C128 C126 1.561 . S
C129 C126 1.526 . S
C129 C130 1.396 1_554 S
C129 C134 1.390 . S
C130 C124 1.465 . S
C130 C129 1.396 1_556 S
C130 C131 1.399 . S
C131 H117 0.929 . S
C131 C130 1.399 . S
C131 C132 1.385 . S
C132 H118 0.931 . S
C132 C131 1.385 . S
C132 C133 1.389 1_556 S
C133 C132 1.389 1_554 S
C133 C134 1.387 . S
C134 H119 0.930 . S
C134 C129 1.390 . S
C134 C133 1.387 . S
H135 C147 0.930 . S
H136 C149 0.930 . S
H137 C150 0.930 . S
H138 C154 0.959 . S
H139 C154 0.959 1_455 S
H140 C154 0.961 . S
H141 C155 0.960 . S
H142 C155 0.961 . S
H143 C155 0.959 . S
H144 C158 0.929 . S
H145 C159 0.931 . S
H146 C161 0.930 . S
C147 H135 0.930 . S
C147 C148 1.399 1_545 S
C147 C152 1.399 . S
C148 C147 1.399 1_565 S
C148 C149 1.376 1_455 S
C149 H136 0.930 . S
C149 C148 1.376 1_655 S
C149 C150 1.388 . S
C150 H137 0.930 . S
C150 C149 1.388 . S
C150 C151 1.386 . S
C151 C150 1.386 . S
C151 C152 1.399 1_665 S
C151 C157 1.465 . S
C152 C147 1.399 . S
C152 C151 1.399 1_445 S
C152 C153 1.516 . S
C153 C152 1.516 . S
C153 C154 1.502 1_455 S
C153 C155 1.561 . S
C153 C156 1.526 . S
C154 H138 0.959 . S
C154 H139 0.959 1_655 S
C154 H140 0.961 . S
C154 C153 1.502 1_655 S
C155 H141 0.960 . S
C155 H142 0.961 . S
C155 H143 0.959 . S
C155 C153 1.561 . S
C156 C153 1.526 . S
C156 C157 1.396 1_445 S
C156 C161 1.390 . S
C157 C151 1.465 . S
C157 C156 1.396 1_665 S
C157 C158 1.399 . S
C158 H144 0.929 . S
C158 C157 1.399 . S
C158 C159 1.385 . S
C159 H145 0.931 . S
C159 C158 1.385 . S
C159 C160 1.389 . S
C160 C159 1.389 . S
C160 C161 1.387 1_665 S
C161 H146 0.930 . S
C161 C156 1.390 . S
C161 C160 1.387 1_445 S
C67 C5 1.910 . S
C79 C13 1.845 . S
C94 C22 1.869 . S
C106 C32 1.893 . S
C121 C28 0.532 . S
C133 C35 0.488 . S
C148 C10 1.469 1_455 S
C160 C27 1.486 1_665 S
