# Generated by pormake.
# Topology dia, (4)-cn, num edge types: 1
# Building blocks:
#     Node 0, Type 0, BuildingBlock: CEKHIL_clean_sbu_0, # of connection points: 4
#     Node 1, Type 0, BuildingBlock: CEKHIL_clean_sbu_0, # of connection points: 4
#     Node 2, Type 0, BuildingBlock: CEKHIL_clean_sbu_0, # of connection points: 4
#     Node 3, Type 0, BuildingBlock: CEKHIL_clean_sbu_0, # of connection points: 4
#     Node 4, Type 0, BuildingBlock: CEKHIL_clean_sbu_0, # of connection points: 4
#     Node 5, Type 0, BuildingBlock: CEKHIL_clean_sbu_0, # of connection points: 4
#     Node 6, Type 0, BuildingBlock: CEKHIL_clean_sbu_0, # of connection points: 4
#     Node 7, Type 0, BuildingBlock: CEKHIL_clean_sbu_0, # of connection points: 4
#     Edge 8, Type (0, 0), None
#     Edge 9, Type (0, 0), None
#     Edge 10, Type (0, 0), None
#     Edge 11, Type (0, 0), None
#     Edge 12, Type (0, 0), None
#     Edge 13, Type (0, 0), None
#     Edge 14, Type (0, 0), None
#     Edge 15, Type (0, 0), None
#     Edge 16, Type (0, 0), None
#     Edge 17, Type (0, 0), None
#     Edge 18, Type (0, 0), None
#     Edge 19, Type (0, 0), None
#     Edge 20, Type (0, 0), None
#     Edge 21, Type (0, 0), None
#     Edge 22, Type (0, 0), None
#     Edge 23, Type (0, 0), None
# Relax obj value: 0.001
# Max RMSD: 0.016
# Mean RMSD: 0.016
data_MOF--net-dia--node1-CEKHIL_clean_sbu_0--edge1-none
_symmetry_space_group_name_H-M    P1
_symmetry_Int_Tables_number       1
_symmetry_cell_setting            triclinic
loop_
_symmetry_equiv_pos_as_xyz
'x, y, z'
_cell_length_a     16.838986
_cell_length_b     16.844109
_cell_length_c     10.994283
_cell_angle_alpha  88.113162
_cell_angle_beta   88.115747
_cell_angle_gamma 93.979575
loop_
_atom_site_label
_atom_site_type_symbol
_atom_site_fract_x
_atom_site_fract_y
_atom_site_fract_z
_atom_type_partial_charge
Co0 Co 0.14189 0.16535 0.66067 0.0
O1 O 0.05717 0.23839 0.66398 0.0
O2 O 0.09419 0.16842 0.82314 0.0
C3 C 0.23171 0.24754 0.54776 0.0
O4 O 0.22365 0.08629 0.70516 0.0
Co5 Co 0.21658 0.09657 0.43056 0.0
O6 O 0.28537 0.03864 0.54238 0.0
C7 C 0.05332 0.04339 0.51322 0.0
C8 C 0.04776 0.21976 0.77971 0.0
C9 C 0.27379 0.04144 0.65719 0.0
O10 O 0.06462 0.075 0.61692 0.0
O11 O 0.10236 0.05434 0.4219 0.0
O12 O 0.22291 0.25496 0.66489 0.0
O13 O 0.18477 0.1938 0.50188 0.0
Co14 Co 0.86818 0.39164 0.85683 0.0
O15 O 0.79513 0.47635 0.85351 0.0
O16 O 0.86511 0.43933 0.69436 0.0
C17 C 0.78598 0.30184 0.96974 0.0
O18 O 0.94725 0.30991 0.81234 0.0
Co19 Co 0.937 0.317 0.08695 0.0
O20 O 0.99491 0.24819 0.97514 0.0
C21 C 0.99015 0.48022 1.00429 0.0
C22 C 0.81377 0.48576 0.73778 0.0
C23 C 0.99209 0.25976 0.86032 0.0
O24 O 0.95855 0.4689 0.90057 0.0
O25 O 0.9792 0.4312 0.09561 0.0
O26 O 0.77854 0.31065 0.85262 0.0
O27 O 0.83973 0.34878 0.01562 0.0
Co28 Co 0.64189 0.16535 0.16066 0.0
O29 O 0.55716 0.23838 0.16399 0.0
O30 O 0.59419 0.16842 0.32314 0.0
C31 C 0.73168 0.24756 0.04775 0.0
O32 O 0.72365 0.0863 0.20516 0.0
Co33 Co 0.71659 0.09658 0.93055 0.0
O34 O 0.78537 0.03864 0.04237 0.0
C35 C 0.55333 0.04339 0.01322 0.0
C36 C 0.54776 0.21976 0.27972 0.0
C37 C 0.77379 0.04144 0.15719 0.0
O38 O 0.56462 0.075 0.11693 0.0
O39 O 0.60237 0.05434 0.92191 0.0
O40 O 0.7229 0.25497 0.16488 0.0
O41 O 0.68475 0.1938 1.00187 0.0
Co42 Co 0.86819 0.89164 0.35684 0.0
O43 O 0.79513 0.97635 0.35353 0.0
O44 O 0.86512 0.93934 0.19437 0.0
C45 C 0.78599 0.80184 0.46973 0.0
O46 O 0.94726 0.80991 0.31234 0.0
Co47 Co 0.93701 0.81698 0.58695 0.0
O48 O 0.99491 0.74818 0.47513 0.0
C49 C 0.99011 0.98022 0.50434 0.0
C50 C 0.81376 0.98576 0.23779 0.0
C51 C 0.9921 0.75976 0.36031 0.0
O52 O 0.95856 0.9689 0.4006 0.0
O53 O 0.97919 0.93118 0.59565 0.0
O54 O 0.77855 0.81066 0.35261 0.0
O55 O 0.83974 0.84877 0.51562 0.0
Co56 Co 0.14189 0.66534 0.16064 0.0
O57 O 0.05717 0.73839 0.16396 0.0
O58 O 0.09419 0.66841 0.32312 0.0
C59 C 0.23171 0.74754 0.04775 0.0
O60 O 0.22364 0.58629 0.20514 0.0
Co61 Co 0.21659 0.59657 0.93053 0.0
O62 O 0.28537 0.53863 0.04236 0.0
C63 C 0.05331 0.54343 0.01315 0.0
C64 C 0.04777 0.71977 0.2797 0.0
C65 C 0.27378 0.54143 0.15717 0.0
O66 O 0.06462 0.575 0.11689 0.0
O67 O 0.10237 0.55436 0.92186 0.0
O68 O 0.22291 0.75495 0.16487 0.0
O69 O 0.18477 0.6938 1.00186 0.0
Co70 Co 0.36818 0.39164 0.35684 0.0
O71 O 0.29513 0.47635 0.35352 0.0
O72 O 0.36511 0.43933 0.19436 0.0
C73 C 0.28597 0.30186 0.46976 0.0
O74 O 0.44725 0.30991 0.31235 0.0
Co75 Co 0.437 0.31699 0.58696 0.0
O76 O 0.4949 0.24818 0.47515 0.0
C77 C 0.49015 0.48022 0.50429 0.0
C78 C 0.31375 0.48575 0.23778 0.0
C79 C 0.49209 0.25975 0.36033 0.0
O80 O 0.45855 0.4689 0.40057 0.0
O81 O 0.47921 0.43119 0.59561 0.0
O82 O 0.27854 0.31065 0.35263 0.0
O83 O 0.33973 0.34879 0.51563 0.0
Co84 Co 0.36819 0.89165 0.85685 0.0
O85 O 0.29514 0.97635 0.85353 0.0
O86 O 0.36512 0.93934 0.69437 0.0
C87 C 0.28598 0.80186 0.96975 0.0
O88 O 0.44726 0.80991 0.81235 0.0
Co89 Co 0.437 0.81697 0.08696 0.0
O90 O 0.4949 0.74817 0.97513 0.0
C91 C 0.49012 0.98022 1.00435 0.0
C92 C 0.31376 0.98576 0.7378 0.0
C93 C 0.4921 0.75976 0.86032 0.0
O94 O 0.45856 0.9689 0.9006 0.0
O95 O 0.47919 0.93118 0.09565 0.0
O96 O 0.27855 0.81066 0.85263 0.0
O97 O 0.33974 0.84878 0.01563 0.0
Co98 Co 0.64189 0.66534 0.66064 0.0
O99 O 0.55716 0.73838 0.66397 0.0
O100 O 0.59419 0.66842 0.82312 0.0
C101 C 0.73168 0.74756 0.54773 0.0
O102 O 0.72365 0.58629 0.70514 0.0
Co103 Co 0.71659 0.59658 0.43053 0.0
O104 O 0.78538 0.53864 0.54236 0.0
C105 C 0.55331 0.54343 0.51316 0.0
C106 C 0.54777 0.71977 0.7797 0.0
C107 C 0.77379 0.54145 0.65717 0.0
O108 O 0.56462 0.575 0.6169 0.0
O109 O 0.60237 0.55436 0.42186 0.0
O110 O 0.7229 0.75496 0.66486 0.0
O111 O 0.68476 0.6938 0.50186 0.0
loop_
_geom_bond_atom_site_label_1
_geom_bond_atom_site_label_2
_geom_bond_distance
_geom_bond_site_symmetry_2
_ccdc_geom_bond_type
Co0 O1 2.216 . S
Co0 O2 2.091 . S
Co0 O4 2.004 . S
Co0 O10 2.021 . S
Co0 O12 2.137 . S
Co0 O13 2.244 . S
O1 Co0 2.216 . S
O1 C8 1.247 . S
O2 Co0 2.091 . S
O2 C8 1.261 . S
C3 O12 1.247 . S
C3 O13 1.272 . S
O4 Co0 2.004 . S
O4 C9 1.259 . S
Co5 O6 2.061 . S
Co5 O11 2.052 . S
Co5 O13 2.135 . S
O6 Co5 2.061 . S
O6 C9 1.235 . S
C7 O10 1.238 . S
C7 O11 1.241 . S
C8 O1 1.247 . S
C8 O2 1.261 . S
C9 O4 1.259 . S
C9 O6 1.235 . S
O10 Co0 2.021 . S
O10 C7 1.238 . S
O11 Co5 2.052 . S
O11 C7 1.241 . S
O12 Co0 2.137 . S
O12 C3 1.247 . S
O13 Co0 2.244 . S
O13 C3 1.272 . S
O13 Co5 2.135 . S
Co14 O15 2.216 . S
Co14 O16 2.091 . S
Co14 O18 2.004 . S
Co14 O24 2.021 . S
Co14 O26 2.137 . S
Co14 O27 2.244 1_556 S
O15 Co14 2.216 . S
O15 C22 1.247 . S
O16 Co14 2.091 . S
O16 C22 1.261 . S
C17 O26 1.247 . S
C17 O27 1.272 1_556 S
O18 Co14 2.004 . S
O18 C23 1.259 . S
Co19 O20 2.061 1_554 S
Co19 O25 2.052 . S
Co19 O27 2.135 . S
O20 Co19 2.061 1_556 S
O20 C23 1.235 . S
C21 O24 1.238 . S
C21 O25 1.241 1_556 S
C22 O15 1.247 . S
C22 O16 1.261 . S
C23 O18 1.259 . S
C23 O20 1.235 . S
O24 Co14 2.021 . S
O24 C21 1.238 . S
O25 Co19 2.052 . S
O25 C21 1.241 1_554 S
O26 Co14 2.137 . S
O26 C17 1.247 . S
O27 Co14 2.244 1_554 S
O27 C17 1.272 1_554 S
O27 Co19 2.135 . S
Co28 O29 2.216 . S
Co28 O30 2.091 . S
Co28 O32 2.004 . S
Co28 O38 2.021 . S
Co28 O40 2.137 . S
Co28 O41 2.244 1_554 S
O29 Co28 2.216 . S
O29 C36 1.247 . S
O30 Co28 2.091 . S
O30 C36 1.261 . S
C31 O40 1.247 . S
C31 O41 1.272 1_554 S
O32 Co28 2.004 . S
O32 C37 1.259 . S
Co33 O34 2.061 1_556 S
Co33 O39 2.052 . S
Co33 O41 2.135 . S
O34 Co33 2.061 1_554 S
O34 C37 1.235 . S
C35 O38 1.238 . S
C35 O39 1.241 1_554 S
C36 O29 1.247 . S
C36 O30 1.261 . S
C37 O32 1.259 . S
C37 O34 1.235 . S
O38 Co28 2.021 . S
O38 C35 1.238 . S
O39 Co33 2.052 . S
O39 C35 1.241 1_556 S
O40 Co28 2.137 . S
O40 C31 1.247 . S
O41 Co28 2.244 1_556 S
O41 C31 1.272 1_556 S
O41 Co33 2.135 . S
Co42 O43 2.216 . S
Co42 O44 2.091 . S
Co42 O46 2.004 . S
Co42 O52 2.021 . S
Co42 O54 2.137 . S
Co42 O55 2.244 . S
O43 Co42 2.216 . S
O43 C50 1.247 . S
O44 Co42 2.091 . S
O44 C50 1.261 . S
C45 O54 1.247 . S
C45 O55 1.272 . S
O46 Co42 2.004 . S
O46 C51 1.259 . S
Co47 O48 2.061 . S
Co47 O53 2.052 . S
Co47 O55 2.135 . S
O48 Co47 2.061 . S
O48 C51 1.235 . S
C49 O52 1.238 . S
C49 O53 1.241 . S
C50 O43 1.247 . S
C50 O44 1.261 . S
C51 O46 1.259 . S
C51 O48 1.235 . S
O52 Co42 2.021 . S
O52 C49 1.238 . S
O53 Co47 2.052 . S
O53 C49 1.241 . S
O54 Co42 2.137 . S
O54 C45 1.247 . S
O55 Co42 2.244 . S
O55 C45 1.272 . S
O55 Co47 2.135 . S
Co56 O57 2.216 . S
Co56 O58 2.091 . S
Co56 O60 2.004 . S
Co56 O66 2.021 . S
Co56 O68 2.137 . S
Co56 O69 2.244 1_554 S
O57 Co56 2.216 . S
O57 C64 1.247 . S
O58 Co56 2.091 . S
O58 C64 1.261 . S
C59 O68 1.247 . S
C59 O69 1.272 1_554 S
O60 Co56 2.004 . S
O60 C65 1.259 . S
Co61 O62 2.061 1_556 S
Co61 O67 2.052 . S
Co61 O69 2.135 . S
O62 Co61 2.061 1_554 S
O62 C65 1.235 . S
C63 O66 1.238 . S
C63 O67 1.241 1_554 S
C64 O57 1.247 . S
C64 O58 1.261 . S
C65 O60 1.259 . S
C65 O62 1.235 . S
O66 Co56 2.021 . S
O66 C63 1.238 . S
O67 Co61 2.052 . S
O67 C63 1.241 1_556 S
O68 Co56 2.137 . S
O68 C59 1.247 . S
O69 Co56 2.244 1_556 S
O69 C59 1.272 1_556 S
O69 Co61 2.135 . S
Co70 O71 2.216 . S
Co70 O72 2.091 . S
Co70 O74 2.004 . S
Co70 O80 2.021 . S
Co70 O82 2.137 . S
Co70 O83 2.244 . S
O71 Co70 2.216 . S
O71 C78 1.247 . S
O72 Co70 2.091 . S
O72 C78 1.261 . S
C73 O82 1.247 . S
C73 O83 1.272 . S
O74 Co70 2.004 . S
O74 C79 1.259 . S
Co75 O76 2.061 . S
Co75 O81 2.052 . S
Co75 O83 2.135 . S
O76 Co75 2.061 . S
O76 C79 1.235 . S
C77 O80 1.238 . S
C77 O81 1.241 . S
C78 O71 1.247 . S
C78 O72 1.261 . S
C79 O74 1.259 . S
C79 O76 1.235 . S
O80 Co70 2.021 . S
O80 C77 1.238 . S
O81 Co75 2.052 . S
O81 C77 1.241 . S
O82 Co70 2.137 . S
O82 C73 1.247 . S
O83 Co70 2.244 . S
O83 C73 1.272 . S
O83 Co75 2.135 . S
Co84 O85 2.216 . S
Co84 O86 2.091 . S
Co84 O88 2.004 . S
Co84 O94 2.021 . S
Co84 O96 2.137 . S
Co84 O97 2.244 1_556 S
O85 Co84 2.216 . S
O85 C92 1.247 . S
O86 Co84 2.091 . S
O86 C92 1.261 . S
C87 O96 1.247 . S
C87 O97 1.272 1_556 S
O88 Co84 2.004 . S
O88 C93 1.259 . S
Co89 O90 2.061 1_554 S
Co89 O95 2.052 . S
Co89 O97 2.135 . S
O90 Co89 2.061 1_556 S
O90 C93 1.235 . S
C91 O94 1.238 . S
C91 O95 1.241 1_556 S
C92 O85 1.247 . S
C92 O86 1.261 . S
C93 O88 1.259 . S
C93 O90 1.235 . S
O94 Co84 2.021 . S
O94 C91 1.238 . S
O95 Co89 2.052 . S
O95 C91 1.241 1_554 S
O96 Co84 2.137 . S
O96 C87 1.247 . S
O97 Co84 2.244 1_554 S
O97 C87 1.272 1_554 S
O97 Co89 2.135 . S
Co98 O99 2.216 . S
Co98 O100 2.091 . S
Co98 O102 2.004 . S
Co98 O108 2.021 . S
Co98 O110 2.137 . S
Co98 O111 2.244 . S
O99 Co98 2.216 . S
O99 C106 1.247 . S
O100 Co98 2.091 . S
O100 C106 1.261 . S
C101 O110 1.247 . S
C101 O111 1.272 . S
O102 Co98 2.004 . S
O102 C107 1.259 . S
Co103 O104 2.061 . S
Co103 O109 2.052 . S
Co103 O111 2.135 . S
O104 Co103 2.061 . S
O104 C107 1.235 . S
C105 O108 1.238 . S
C105 O109 1.241 . S
C106 O99 1.247 . S
C106 O100 1.261 . S
C107 O102 1.259 . S
C107 O104 1.235 . S
O108 Co98 2.021 . S
O108 C105 1.238 . S
O109 Co103 2.052 . S
O109 C105 1.241 . S
O110 Co98 2.137 . S
O110 C101 1.247 . S
O111 Co98 2.244 . S
O111 C101 1.272 . S
O111 Co103 2.135 . S
C73 C3 1.500 . S
C107 C22 1.481 . S
C35 C91 1.433 1_544 S
C51 C64 1.481 1_655 S
C92 C9 1.481 1_565 S
C21 C63 1.433 1_656 S
C79 C36 1.481 . S
C45 C101 1.500 . S
C65 C78 1.481 . S
C17 C31 1.500 1_556 S
C50 C37 1.481 1_565 S
C49 C7 1.433 1_665 S
C23 C8 1.481 1_655 S
C106 C93 1.481 . S
C59 C87 1.500 1_554 S
C77 C105 1.433 . S
