# Generated by pormake.
# Topology tsi, (8)-cn, num edge types: 1
# Building blocks:
#     Node 0, Type 0, BuildingBlock: LIZSOE_clean_sbu_0, # of connection points: 8
#     Node 1, Type 0, BuildingBlock: LIZSOE_clean_sbu_0, # of connection points: 8
#     Node 2, Type 0, BuildingBlock: LIZSOE_clean_sbu_0, # of connection points: 8
#     Node 3, Type 0, BuildingBlock: LIZSOE_clean_sbu_0, # of connection points: 8
#     Edge 4, Type (0, 0), None
#     Edge 5, Type (0, 0), None
#     Edge 6, Type (0, 0), None
#     Edge 7, Type (0, 0), None
#     Edge 8, Type (0, 0), None
#     Edge 9, Type (0, 0), None
#     Edge 10, Type (0, 0), None
#     Edge 11, Type (0, 0), None
#     Edge 12, Type (0, 0), None
#     Edge 13, Type (0, 0), None
#     Edge 14, Type (0, 0), None
#     Edge 15, Type (0, 0), None
#     Edge 16, Type (0, 0), None
#     Edge 17, Type (0, 0), None
#     Edge 18, Type (0, 0), None
#     Edge 19, Type (0, 0), None
# Relax obj value: 0.453
# Max RMSD: 0.282
# Mean RMSD: 0.277
data_MOF--net-tsi--node1-LIZSOE_clean_sbu_0--edge1-none
_symmetry_space_group_name_H-M    P1
_symmetry_Int_Tables_number       1
_symmetry_cell_setting            triclinic
loop_
_symmetry_equiv_pos_as_xyz
'x, y, z'
_cell_length_a     7.4482199
_cell_length_b     7.4480485
_cell_length_c     35.156652
_cell_angle_alpha  103.27671
_cell_angle_beta   103.25735
_cell_angle_gamma 87.228163
loop_
_atom_site_label
_atom_site_type_symbol
_atom_site_fract_x
_atom_site_fract_y
_atom_site_fract_z
_atom_type_partial_charge
Co0 Co 0.59477 0.50456 0.50652 0.0
N1 N 0.74275 0.44096 0.54998 0.0
C2 C 0.92668 0.46596 0.56175 0.0
N3 N 0.85953 0.25117 0.59 0.0
C4 C 0.70413 0.31066 0.56755 0.0
C5 C 0.99851 0.3505 0.58654 0.0
Co6 Co 1.04978 0.76419 0.39312 0.0
N7 N 0.8708 0.89481 0.36475 0.0
N8 N 0.6564 0.76244 0.31015 0.0
C9 C 0.80426 0.80795 0.29829 0.0
C10 C 0.93133 0.89526 0.33149 0.0
C11 C 0.69524 0.83322 0.35049 0.0
Co12 Co 0.31497 0.61959 0.47078 0.0
C13 C 0.1344 0.50166 0.38158 0.0
H14 H 1.0751 0.91153 0.3317 0.0
O15 O 0.40148 0.57333 0.53324 0.0
O16 O 1.059 0.62296 0.47821 0.0
O17 O 0.26484 0.34159 0.45314 0.0
O18 O 0.57831 0.64674 0.45962 0.0
O19 O 0.77357 0.44311 0.48145 0.0
O20 O 0.88705 0.72273 0.42607 0.0
O21 O 0.22151 0.62411 0.41299 0.0
O22 O 0.15077 0.98014 0.42742 0.0
O23 O 0.51891 0.25163 0.48613 0.0
O24 O 0.39812 0.5766 0.53473 0.0
O25 O 0.33922 0.90645 0.48225 0.0
O26 O 0.97744 0.54912 0.36162 0.0
C27 C 0.35849 0.21249 0.46606 0.0
C28 C 0.56332 0.83915 0.37744 0.0
H29 H 0.60947 0.94241 0.40606 0.0
H30 H 0.42274 0.8752 0.36244 0.0
H31 H 0.55568 0.70181 0.38418 0.0
C32 C 0.90283 0.6551 0.45679 0.0
C33 C 0.74132 0.57667 0.46507 0.0
H34 H 1.00535 0.55091 0.55024 0.0
H35 H 0.44315 0.27134 0.58034 0.0
H36 H 0.52891 1.07343 0.54465 0.0
H37 H 0.39776 0.26962 0.53741 0.0
C38 C 0.51605 0.2233 0.55656 0.0
C39 C 0.44527 0.66388 0.5724 0.0
C40 C 0.2779 1.02215 0.459 0.0
H41 H 0.143 0.33044 0.59859 0.0
H42 H 0.83408 0.75662 0.26919 0.0
Co43 Co 0.38154 0.3663 0.77649 0.0
N44 N 0.22289 0.22581 0.78909 0.0
C45 C 0.22019 1.04579 0.7894 0.0
N46 N 0.96385 0.1645 0.80508 0.0
C47 C 1.06018 0.29137 0.79627 0.0
C48 C 1.06322 1.00844 0.80041 0.0
Co49 Co 0.6843 0.66884 0.63273 0.0
N50 N 0.82439 0.82763 0.62008 0.0
N51 N 0.88482 1.0867 0.60399 0.0
C52 C 1.04107 0.98758 0.6086 0.0
C53 C 1.00425 0.83054 0.61965 0.0
C54 C 0.75836 0.99022 0.6129 0.0
Co55 Co 0.52384 0.52666 0.70465 0.0
C56 C 0.40696 0.59513 0.61248 0.0
H57 H 1.10174 0.7272 0.62771 0.0
O58 O 0.51849 0.52828 0.7665 0.0
O59 O 0.5124 0.80273 0.71864 0.0
O60 O 0.24789 0.53914 0.69078 0.0
O61 O 0.53908 0.24204 0.69532 0.0
O62 O 0.46493 0.16244 0.74706 0.0
O63 O 0.66466 0.86793 0.67696 0.0
O64 O 0.52207 0.53207 0.64279 0.0
O65 O 0.88822 0.58653 0.66233 0.0
O66 O 0.18256 0.38472 0.73206 0.0
O67 O 0.32993 0.57722 0.80882 0.0
O68 O 0.80832 0.51061 0.71385 0.0
O69 O 0.47402 0.71928 0.60024 0.0
C70 C 0.13034 0.47429 0.70517 0.0
C71 C 0.57963 1.06889 0.62135 0.0
H72 H 0.49792 1.01931 0.63821 0.0
H73 H 0.59867 0.21792 0.63294 0.0
H74 H 0.46858 1.02087 0.59522 0.0
C75 C 0.57645 0.92024 0.7041 0.0
C76 C 0.52984 0.12137 0.71635 0.0
H77 H 0.32358 0.9485 0.78126 0.0
H78 H 1.02857 0.5811 0.81384 0.0
H79 H 0.83209 0.45016 0.77612 0.0
H80 H 1.03075 0.55102 0.77086 0.0
C81 C 0.98104 0.46968 0.78775 0.0
C82 C 0.45508 0.64356 0.79674 0.0
C83 C 0.92918 0.52087 0.69293 0.0
H84 H 1.02573 0.87796 0.80474 0.0
H85 H 0.1713 1.02526 0.60418 0.0
Co86 Co 0.28554 0.99949 1.01592 0.0
N87 N 0.15489 0.17857 1.04428 0.0
C88 C 0.15431 0.11809 1.07753 0.0
N89 N 0.28719 0.39302 0.09889 0.0
C90 C 0.21654 0.35413 1.05854 0.0
C91 C 0.24156 0.24518 0.11075 0.0
Co92 Co 0.54534 0.4535 0.90247 0.0
N93 N 0.60898 0.30592 0.85899 0.0
N94 N 0.79957 0.18943 0.81914 0.0
C95 C 0.70046 1.05021 0.82255 0.0
C96 C 0.58455 0.12187 0.84727 0.0
C97 C 0.73936 0.34481 0.84147 0.0
Co98 Co 0.43021 0.73409 0.93827 0.0
C99 C 0.38536 0.60483 0.83668 0.0
H100 H 0.49971 1.04305 0.85877 0.0
O101 O 0.42567 0.82773 0.99606 0.0
O102 O 0.70816 0.78429 0.95586 0.0
O103 O 0.42665 0.98994 0.93079 0.0
O104 O 0.14342 0.70961 0.92683 0.0
O105 O 1.06957 0.89844 0.9816 0.0
O106 O 0.79819 0.52997 0.92292 0.0
O107 O 0.47622 0.64701 0.87583 0.0
O108 O 0.60692 0.27488 0.92751 0.0
O109 O 0.32721 0.16213 0.98298 0.0
O110 O 0.50056 1.07188 1.04743 0.0
O111 O 0.40356 0.47066 0.94944 0.0
O112 O 0.47266 0.65004 0.87437 0.0
C113 C 0.3948 0.14618 0.95224 0.0
C114 C 0.82637 0.53306 0.8525 0.0
H115 H 0.77965 0.65122 0.87164 0.0
H116 H 0.97623 0.52051 0.86443 0.0
H117 H 0.77838 0.6059 0.82873 0.0
C118 C 0.8373 0.69049 0.94298 0.0
C119 C 1.02765 0.77108 0.95005 0.0
H120 H 0.13801 0.97431 1.07732 0.0
H121 H 0.34798 0.49363 1.02485 0.0
H122 H 0.17459 0.62663 1.0466 0.0
H123 H 1.10742 0.43983 1.00299 0.0
C124 C 0.21065 0.48603 1.0316 0.0
C125 C 0.54808 0.9149 1.02747 0.0
C126 C 0.47348 0.30752 0.94396 0.0
H127 H 0.29283 0.21528 0.13983 0.0
H128 H 0.72099 0.90576 0.81055 0.0
Co129 Co 0.4538 0.35052 0.27992 0.0
N130 N 0.34059 0.22662 0.30834 0.0
C131 C 0.4698 0.22646 0.3422 0.0
N132 N 0.22566 0.35785 0.36242 0.0
C133 C 0.18829 0.28952 0.3219 0.0
C134 C 0.40188 0.31043 0.3751 0.0
Co135 Co 0.69913 0.5956 0.12911 0.0
N136 N 0.8231 0.7088 0.1007 0.0
N137 N 0.69186 0.8237 1.04663 0.0
C138 C 0.73927 0.64746 1.03394 0.0
C139 C 0.82325 0.57955 1.06683 0.0
C140 C 0.76022 0.86111 0.08715 0.0
Co141 Co 0.56733 0.48218 0.20451 0.0
C142 C 0.43344 0.50869 0.11772 0.0
H143 H 0.83894 0.43386 1.06619 0.0
O144 O 0.57808 0.49031 0.26141 0.0
O145 O 0.55824 0.761 0.21567 0.0
O146 O 0.28853 0.49127 0.19336 0.0
O147 O 0.5768 0.20024 0.19287 0.0
O148 O 0.49848 0.12343 0.245 0.0
O149 O 0.65651 0.82941 0.16505 0.0
O150 O 0.5593 0.47135 0.14762 0.0
O151 O 0.92616 0.55099 0.16404 0.0
O152 O 0.22005 0.39307 0.24397 0.0
O153 O 0.42867 0.56996 0.31076 0.0
O154 O 0.84926 0.47271 0.21615 0.0
O155 O 0.47975 0.62067 0.09826 0.0
C156 C 0.17065 0.457 0.2123 0.0
C157 C 0.76017 1.04722 0.11502 0.0
H158 H 0.86058 1.05125 0.14393 0.0
H159 H 0.79646 0.15646 0.10125 0.0
H160 H 0.62049 1.0763 0.12082 0.0
C161 C 0.59253 0.87886 0.19673 0.0
C162 C 0.55391 1.07904 0.21228 0.0
H163 H 0.61549 0.21078 0.34283 0.0
H164 H 0.9731 0.42917 0.28823 0.0
H165 H 0.89297 0.25321 0.3078 0.0
H166 H 0.99822 0.18904 0.26512 0.0
C167 C 1.00221 0.2895 0.29403 0.0
C168 C 0.5407 0.61623 0.2913 0.0
C169 C 0.97049 0.49559 0.19675 0.0
H170 H 0.48452 0.35616 0.40499 0.0
H171 H 0.69356 0.56486 1.00404 0.0
loop_
_geom_bond_atom_site_label_1
_geom_bond_atom_site_label_2
_geom_bond_distance
_geom_bond_site_symmetry_2
_ccdc_geom_bond_type
Co0 N1 2.034 . S
Co0 O15 2.262 . S
Co0 O19 1.958 . S
Co0 O23 1.950 . S
Co0 O24 2.057 . S
N1 Co0 2.034 . S
N1 C2 1.366 . S
N1 C4 1.332 . S
C2 N1 1.366 . S
C2 C5 1.377 . S
C2 H34 0.931 . S
N3 C4 1.346 . S
N3 C5 1.337 . S
C4 N1 1.332 . S
C4 N3 1.346 . S
C4 C38 1.361 . S
C5 C2 1.377 . S
C5 N3 1.337 . S
C5 H41 0.930 1_655 S
Co6 N7 2.034 1_455 S
Co6 O20 1.950 1_455 S
Co6 O21 2.262 . S
Co6 O22 1.958 . S
Co6 O26 2.057 . S
N7 Co6 2.034 1_655 S
N7 C10 1.366 1_565 S
N7 C11 1.332 . S
N8 C9 1.337 1_565 S
N8 C11 1.346 . S
C9 N8 1.337 1_545 S
C9 C10 1.377 . S
C9 H42 0.930 . S
C10 N7 1.366 1_545 S
C10 C9 1.377 . S
C10 H14 0.931 . S
C11 N7 1.332 . S
C11 N8 1.346 . S
C11 C28 1.361 . S
Co12 O15 2.097 . S
Co12 O16 2.071 . S
Co12 O17 2.065 . S
Co12 O18 2.042 . S
Co12 O21 2.097 . S
Co12 O25 2.042 . S
C13 O21 1.253 . S
C13 O26 1.263 . S
H14 C10 0.931 . S
O15 Co0 2.262 . S
O15 Co12 2.097 . S
O15 C39 1.253 . S
O16 Co12 2.071 . S
O16 C32 1.217 1_455 S
O17 Co12 2.065 . S
O17 C27 1.221 . S
O18 Co12 2.042 . S
O18 C33 1.237 . S
O19 Co0 1.958 . S
O19 C33 1.278 . S
O20 Co6 1.950 1_655 S
O20 C32 1.277 . S
O21 Co6 2.262 . S
O21 Co12 2.097 . S
O21 C13 1.253 . S
O22 Co6 1.958 . S
O22 C40 1.278 . S
O23 Co0 1.950 . S
O23 C27 1.277 . S
O24 Co0 2.057 . S
O24 C39 1.263 . S
O25 Co12 2.042 . S
O25 C40 1.237 . S
O26 Co6 2.057 . S
O26 C13 1.263 . S
C27 O17 1.221 . S
C27 O23 1.277 . S
C28 C11 1.361 . S
C28 H29 0.960 . S
C28 H30 0.961 . S
C28 H31 0.961 . S
H29 C28 0.960 . S
H30 C28 0.961 . S
H31 C28 0.961 . S
C32 O16 1.217 1_655 S
C32 O20 1.277 . S
C33 O18 1.237 . S
C33 O19 1.278 . S
H34 C2 0.931 . S
H35 C38 0.961 . S
H36 C38 0.961 1_565 S
H37 C38 0.960 . S
C38 C4 1.361 . S
C38 H35 0.961 . S
C38 H36 0.961 1_545 S
C38 H37 0.960 . S
C39 O15 1.253 . S
C39 O24 1.263 . S
C40 O22 1.278 . S
C40 O25 1.237 . S
H41 C5 0.930 1_455 S
H42 C9 0.930 . S
Co43 N44 2.034 . S
Co43 O58 2.262 . S
Co43 O62 1.958 . S
Co43 O66 1.950 . S
Co43 O67 2.057 . S
N44 Co43 2.034 . S
N44 C45 1.366 1_545 S
N44 C47 1.332 1_455 S
C45 N44 1.366 1_565 S
C45 C48 1.377 1_455 S
C45 H77 0.931 . S
N46 C47 1.346 . S
N46 C48 1.337 1_545 S
C47 N44 1.332 1_655 S
C47 N46 1.346 . S
C47 C81 1.361 . S
C48 C45 1.377 1_655 S
C48 N46 1.337 1_565 S
C48 H84 0.930 . S
Co49 N50 2.034 . S
Co49 O63 1.950 . S
Co49 O64 2.262 . S
Co49 O65 1.958 . S
Co49 O69 2.057 . S
N50 Co49 2.034 . S
N50 C53 1.366 . S
N50 C54 1.332 . S
N51 C52 1.337 . S
N51 C54 1.346 . S
C52 N51 1.337 . S
C52 C53 1.377 . S
C52 H85 0.930 1_655 S
C53 N50 1.366 . S
C53 C52 1.377 . S
C53 H57 0.931 1_655 S
C54 N50 1.332 . S
C54 N51 1.346 . S
C54 C71 1.361 . S
Co55 O58 2.097 . S
Co55 O59 2.065 . S
Co55 O60 2.065 . S
Co55 O61 2.042 . S
Co55 O64 2.097 . S
Co55 O68 2.042 . S
C56 O64 1.253 . S
C56 O69 1.263 . S
H57 C53 0.931 1_455 S
O58 Co43 2.262 . S
O58 Co55 2.097 . S
O58 C82 1.253 . S
O59 Co55 2.065 . S
O59 C75 1.221 . S
O60 Co55 2.065 . S
O60 C70 1.221 . S
O61 Co55 2.042 . S
O61 C76 1.237 . S
O62 Co43 1.958 . S
O62 C76 1.278 . S
O63 Co49 1.950 . S
O63 C75 1.277 . S
O64 Co49 2.262 . S
O64 Co55 2.097 . S
O64 C56 1.253 . S
O65 Co49 1.958 . S
O65 C83 1.278 . S
O66 Co43 1.950 . S
O66 C70 1.277 . S
O67 Co43 2.057 . S
O67 C82 1.263 . S
O68 Co55 2.042 . S
O68 C83 1.237 . S
O69 Co49 2.057 . S
O69 C56 1.263 . S
C70 O60 1.221 . S
C70 O66 1.277 . S
C71 C54 1.361 . S
C71 H72 0.960 . S
C71 H73 0.961 1_565 S
C71 H74 0.961 . S
H72 C71 0.960 . S
H73 C71 0.961 1_545 S
H74 C71 0.961 . S
C75 O59 1.221 . S
C75 O63 1.277 . S
C76 O61 1.237 . S
C76 O62 1.278 . S
H77 C45 0.931 . S
H78 C81 0.961 . S
H79 C81 0.961 . S
H80 C81 0.960 . S
C81 C47 1.361 . S
C81 H78 0.961 . S
C81 H79 0.961 . S
C81 H80 0.960 . S
C82 O58 1.253 . S
C82 O67 1.263 . S
C83 O65 1.278 . S
C83 O68 1.237 . S
H84 C48 0.930 . S
H85 C52 0.930 1_455 S
Co86 N87 2.034 1_455 S
Co86 O101 2.262 . S
Co86 O105 1.958 1_455 S
Co86 O109 1.950 . S
Co86 O110 2.057 . S
N87 Co86 2.034 1_655 S
N87 C88 1.366 . S
N87 C90 1.332 1_665 S
C88 N87 1.366 . S
C88 C91 1.377 1_565 S
C88 H120 0.931 . S
N89 C90 1.346 1_655 S
N89 C91 1.337 . S
C90 N87 1.332 1_445 S
C90 N89 1.346 1_455 S
C90 C124 1.361 . S
C91 C88 1.377 1_545 S
C91 N89 1.337 . S
C91 H127 0.930 . S
Co92 N93 2.034 . S
Co92 O106 1.950 . S
Co92 O107 2.262 . S
Co92 O108 1.958 . S
Co92 O112 2.057 . S
N93 Co92 2.034 . S
N93 C96 1.366 1_545 S
N93 C97 1.332 . S
N94 C95 1.337 1_545 S
N94 C97 1.346 . S
C95 N94 1.337 1_565 S
C95 C96 1.377 . S
C95 H128 0.930 . S
C96 N93 1.366 1_565 S
C96 C95 1.377 . S
C96 H100 0.931 . S
C97 N93 1.332 . S
C97 N94 1.346 . S
C97 C114 1.361 . S
Co98 O101 2.097 . S
Co98 O102 2.065 . S
Co98 O103 2.065 . S
Co98 O104 2.042 . S
Co98 O107 2.097 . S
Co98 O111 2.042 . S
C99 O107 1.253 . S
C99 O112 1.263 . S
H100 C96 0.931 . S
O101 Co86 2.262 . S
O101 Co98 2.097 . S
O101 C125 1.253 . S
O102 Co98 2.065 . S
O102 C118 1.221 . S
O103 Co98 2.065 . S
O103 C113 1.221 . S
O104 Co98 2.042 . S
O104 C119 1.237 1_455 S
O105 Co86 1.958 1_655 S
O105 C119 1.278 . S
O106 Co92 1.950 . S
O106 C118 1.277 . S
O107 Co92 2.262 . S
O107 Co98 2.097 . S
O107 C99 1.253 . S
O108 Co92 1.958 . S
O108 C126 1.278 . S
O109 Co86 1.950 . S
O109 C113 1.277 . S
O110 Co86 2.057 . S
O110 C125 1.263 . S
O111 Co98 2.042 . S
O111 C126 1.237 . S
O112 Co92 2.057 . S
O112 C99 1.263 . S
C113 O103 1.221 . S
C113 O109 1.277 . S
C114 C97 1.361 . S
C114 H115 0.960 . S
C114 H116 0.961 . S
C114 H117 0.961 . S
H115 C114 0.960 . S
H116 C114 0.961 . S
H117 C114 0.961 . S
C118 O102 1.221 . S
C118 O106 1.277 . S
C119 O104 1.237 1_655 S
C119 O105 1.278 . S
H120 C88 0.931 . S
H121 C124 0.961 1_554 S
H122 C124 0.961 . S
H123 C124 0.960 . S
C124 C90 1.361 . S
C124 H121 0.961 1_556 S
C124 H122 0.961 . S
C124 H123 0.960 . S
C125 O101 1.253 . S
C125 O110 1.263 . S
C126 O108 1.278 . S
C126 O111 1.237 . S
H127 C91 0.930 . S
H128 C95 0.930 . S
Co129 N130 2.034 . S
Co129 O144 2.262 . S
Co129 O148 1.958 . S
Co129 O152 1.950 . S
Co129 O153 2.057 . S
N130 Co129 2.034 . S
N130 C131 1.366 . S
N130 C133 1.332 . S
C131 N130 1.366 . S
C131 C134 1.377 . S
C131 H163 0.931 1_545 S
N132 C133 1.346 . S
N132 C134 1.337 . S
C133 N130 1.332 . S
C133 N132 1.346 . S
C133 C167 1.361 . S
C134 C131 1.377 . S
C134 N132 1.337 . S
C134 H170 0.930 1_545 S
Co135 N136 2.034 . S
Co135 O149 1.950 . S
Co135 O150 2.262 . S
Co135 O151 1.958 . S
Co135 O155 2.057 . S
N136 Co135 2.034 . S
N136 C139 1.366 . S
N136 C140 1.332 1_554 S
N137 C138 1.337 . S
N137 C140 1.346 . S
C138 N137 1.337 . S
C138 C139 1.377 1_556 S
C138 H171 0.930 . S
C139 N136 1.366 . S
C139 C138 1.377 1_554 S
C139 H143 0.931 . S
C140 N136 1.332 1_556 S
C140 N137 1.346 . S
C140 C157 1.361 . S
Co141 O144 2.097 . S
Co141 O145 2.065 . S
Co141 O146 2.065 . S
Co141 O147 2.042 . S
Co141 O150 2.097 . S
Co141 O154 2.042 . S
C142 O150 1.253 . S
C142 O155 1.263 . S
H143 C139 0.931 . S
O144 Co129 2.262 . S
O144 Co141 2.097 . S
O144 C168 1.253 . S
O145 Co141 2.065 . S
O145 C161 1.221 . S
O146 Co141 2.065 . S
O146 C156 1.221 . S
O147 Co141 2.042 . S
O147 C162 1.237 . S
O148 Co129 1.958 . S
O148 C162 1.278 . S
O149 Co135 1.950 . S
O149 C161 1.277 . S
O150 Co135 2.262 . S
O150 Co141 2.097 . S
O150 C142 1.253 . S
O151 Co135 1.958 . S
O151 C169 1.278 . S
O152 Co129 1.950 . S
O152 C156 1.277 . S
O153 Co129 2.057 . S
O153 C168 1.263 . S
O154 Co141 2.042 . S
O154 C169 1.237 . S
O155 Co135 2.057 . S
O155 C142 1.263 . S
C156 O146 1.221 . S
C156 O152 1.277 . S
C157 C140 1.361 . S
C157 H158 0.960 1_556 S
C157 H159 0.961 . S
C157 H160 0.961 . S
H158 C157 0.960 1_554 S
H159 C157 0.961 . S
H160 C157 0.961 . S
C161 O145 1.221 . S
C161 O149 1.277 . S
C162 O147 1.237 . S
C162 O148 1.278 . S
H163 C131 0.931 1_565 S
H164 C167 0.961 . S
H165 C167 0.961 1_655 S
H166 C167 0.960 . S
C167 C133 1.361 . S
C167 H164 0.961 . S
C167 H165 0.961 1_455 S
C167 H166 0.960 . S
C168 O144 1.253 . S
C168 O153 1.263 . S
C169 O151 1.278 . S
C169 O154 1.237 . S
H170 C134 0.930 1_565 S
H171 C138 0.930 . S
C39 C56 3.375 . S
N94 N46 1.225 . S
C125 N137 2.246 . S
N8 C168 2.814 . S
N132 C13 2.245 . S
C82 C99 3.375 . S
N89 C142 2.815 1_656 S
N3 N51 1.224 1_545 S
C27 C40 1.642 1_545 S
C83 C70 1.695 1_655 S
C126 C113 2.755 1_545 S
C156 C169 2.142 1_455 S
C75 C76 1.695 1_565 S
C118 C119 1.642 . S
C161 C162 2.143 1_565 S
C32 C33 2.755 . S
