# Generated by pormake.
# Topology kag, (6)-cn, num edge types: 1
# Building blocks:
#     Node 0, Type 0, BuildingBlock: LEVNOQ01_clean_sbu_1, # of connection points: 6
#     Node 1, Type 0, BuildingBlock: LEVNOQ01_clean_sbu_1, # of connection points: 6
#     Node 2, Type 0, BuildingBlock: LEVNOQ01_clean_sbu_1, # of connection points: 6
#     Edge 3, Type (0, 0), BuildingBlock: OJICUG_clean_linker_0, # of connection points: 2
#     Edge 4, Type (0, 0), BuildingBlock: OJICUG_clean_linker_0, # of connection points: 2
#     Edge 5, Type (0, 0), BuildingBlock: OJICUG_clean_linker_0, # of connection points: 2
#     Edge 6, Type (0, 0), BuildingBlock: OJICUG_clean_linker_0, # of connection points: 2
#     Edge 7, Type (0, 0), BuildingBlock: OJICUG_clean_linker_0, # of connection points: 2
#     Edge 8, Type (0, 0), BuildingBlock: OJICUG_clean_linker_0, # of connection points: 2
#     Edge 9, Type (0, 0), BuildingBlock: OJICUG_clean_linker_0, # of connection points: 2
#     Edge 10, Type (0, 0), BuildingBlock: OJICUG_clean_linker_0, # of connection points: 2
#     Edge 11, Type (0, 0), BuildingBlock: OJICUG_clean_linker_0, # of connection points: 2
# Relax obj value: 0.110
# Max RMSD: 0.157
# Mean RMSD: 0.150
data_MOF--net-kag--node1-LEVNOQ01_clean_sbu_1--edge1-OJICUG_clean_linker_0
_symmetry_space_group_name_H-M    P1
_symmetry_Int_Tables_number       1
_symmetry_cell_setting            triclinic
loop_
_symmetry_equiv_pos_as_xyz
'x, y, z'
_cell_length_a     23.501993
_cell_length_b     23.010518
_cell_length_c     11.624917
_cell_angle_alpha  89.206198
_cell_angle_beta   104.71128
_cell_angle_gamma 119.81354
loop_
_atom_site_label
_atom_site_type_symbol
_atom_site_fract_x
_atom_site_fract_y
_atom_site_fract_z
_atom_type_partial_charge
O0 O 0.85141 0.3731 0.873 0.0
Mg1 Mg 0.89954 0.47405 0.83064 0.0
O2 O 0.94587 0.37781 0.98545 0.0
Mg3 Mg 0.0235 0.49288 0.01107 0.0
O4 O -0.01146 0.49472 0.80433 0.0
O5 O 0.89921 0.48385 0.65794 0.0
O6 O 0.10144 0.60804 0.0377 0.0
O7 O 0.10265 0.47371 0.95074 0.0
Mg8 Mg 0.14717 0.51073 0.19108 0.0
O9 O 0.05837 0.49065 0.2175 0.0
O10 O 0.19552 0.61195 0.15019 0.0
O11 O 0.13901 0.42896 0.09614 0.0
O12 O 0.1472 0.50038 0.36363 0.0
C13 C 0.91307 0.54381 0.03109 0.0
C14 C 0.8818 0.3443 0.93128 0.0
C15 C 0.96057 0.49411 0.69189 0.0
C16 C 0.16544 0.64122 0.09269 0.0
C17 C 0.13379 0.44198 0.98986 0.0
C18 C 0.08612 0.49085 0.32982 0.0
O19 O 0.90743 0.55598 0.92431 0.0
O20 O 0.94432 0.51228 0.07116 0.0
O21 O 0.45657 0.82177 0.98365 0.0
Mg22 Mg 0.41681 0.86986 0.85499 0.0
O23 O 0.55316 0.91473 0.07943 0.0
Mg24 Mg 0.52368 -0.00509 0.019 0.0
O25 O 0.49239 0.9548 0.81685 0.0
O26 O 0.41948 0.86267 0.68183 0.0
O27 O 0.49414 0.07505 0.95803 0.0
O28 O 0.63112 0.06476 0.98229 0.0
Mg29 Mg 0.6303 0.12041 0.18297 0.0
O30 O 0.55501 0.0351 0.2211 0.0
O31 O 0.59042 0.16822 0.0541 0.0
O32 O 0.70655 0.10377 0.15799 0.0
O33 O 0.62748 0.12734 0.35608 0.0
C34 C 0.35379 0.89475 0.99217 0.0
C35 C 0.51497 0.85044 0.06115 0.0
C36 C 0.46902 0.92473 0.70739 0.0
C37 C 0.53221 0.13935 0.97607 0.0
C38 C 0.69369 0.09545 0.04553 0.0
C39 C 0.57823 0.06514 0.33057 0.0
O40 O 0.3414 0.888 0.87973 0.0
O41 O 0.41627 0.92477 0.05579 0.0
O42 O 0.42527 0.56373 0.90827 0.0
Mg43 Mg 0.52875 0.60803 0.89629 0.0
O44 O 0.41124 0.46402 0.95263 0.0
Mg45 Mg 0.5243 0.495 0.01086 0.0
O46 O 0.53359 0.53205 0.82534 0.0
O47 O 0.53989 0.61944 0.72935 0.0
O48 O 0.63725 0.52565 0.0691 0.0
O49 O 0.50284 0.39558 0.90499 0.0
Mg50 Mg 0.51861 0.38153 0.12477 0.0
O51 O 0.51511 0.45812 0.19655 0.0
O52 O 0.62202 0.42536 0.11225 0.0
O53 O 0.42741 0.3226 0.98376 0.0
O54 O 0.50773 0.37025 0.29195 0.0
C55 C 0.59023 0.65595 0.11842 0.0
C56 C 0.38683 0.50256 0.92246 0.0
C57 C 0.53859 0.56271 0.73056 0.0
C58 C 0.66099 0.4865 0.0986 0.0
C59 C 0.45755 0.33428 0.90379 0.0
C60 C 0.50996 0.42743 0.29125 0.0
O61 O 0.61939 0.66879 0.03687 0.0
O62 O 0.54573 0.59432 0.11714 0.0
C63 C 0.96004 0.48859 0.47783 0.0
C64 C -0.00585 0.49609 0.6 0.0
H65 H 0.96176 0.47947 0.29635 0.0
C66 C 0.0578 0.50023 0.63218 0.0
H67 H 0.91055 0.48479 0.44997 0.0
C68 C 0.08675 0.49661 0.54387 0.0
C69 C 0.05262 0.48908 0.42172 0.0
H70 H 0.08501 0.50569 0.72534 0.0
H71 H 0.13623 0.5004 0.57174 0.0
C72 C -0.01101 0.48498 0.38952 0.0
C73 C 0.5706 0.06429 0.54129 0.0
C74 C 0.54954 0.02919 0.42627 0.0
H75 H 0.56111 0.05876 0.72004 0.0
C76 C 0.5024 0.95948 0.40493 0.0
H77 H 0.60693 0.11814 0.56071 0.0
C78 C 0.47666 0.9255 0.49666 0.0
C79 C 0.49774 0.9606 0.61167 0.0
H80 H 0.48591 0.93104 0.31775 0.0
H81 H 0.4403 0.87165 0.47726 0.0
C82 C 0.5448 0.03032 0.63296 0.0
C83 C 0.53106 0.55892 0.51334 0.0
C84 C 0.53424 0.52932 0.61956 0.0
H85 H 0.51924 0.54908 0.32529 0.0
C86 C 0.52794 0.46546 0.61647 0.0
H87 H 0.53526 0.60798 0.5128 0.0
C88 C 0.51821 0.43154 0.50876 0.0
C89 C 0.5149 0.46107 0.40251 0.0
H90 H 0.52997 0.44135 0.69681 0.0
H91 H 0.51397 0.38246 0.50928 0.0
C92 C 0.52133 0.525 0.40565 0.0
C93 C 0.21137 0.40145 0.96878 0.0
C94 C 0.18524 0.44444 0.93585 0.0
H95 H 0.29576 0.38595 0.99001 0.0
C96 C 0.22061 0.50018 0.87879 0.0
H97 H 0.18507 0.3581 0.01291 0.0
C98 C 0.28471 0.51694 0.86774 0.0
C99 C 0.31408 0.47778 0.91223 0.0
H100 H 0.20217 0.53462 0.85339 0.0
H101 H 0.31292 0.56284 0.83092 0.0
C102 C 0.2751 0.4178 0.95661 0.0
C103 C 0.72871 0.1688 0.88746 0.0
C104 C 0.74748 0.1449 0.99387 0.0
H105 H 0.7568 0.25138 0.78468 0.0
C106 C 0.81594 0.18111 0.06574 0.0
H107 H 0.67669 0.14229 0.82976 0.0
C108 C 0.86206 0.24415 0.04011 0.0
C109 C 0.84025 0.27193 0.94247 0.0
H110 H 0.83215 0.16368 0.14787 0.0
H111 H 0.91275 0.27332 0.10231 0.0
C112 C 0.77452 0.23197 0.86251 0.0
C113 C 0.49344 0.74134 0.13575 0.0
C114 C 0.54034 0.80711 0.11995 0.0
H115 H 0.47398 0.64131 0.15629 0.0
C116 C 0.60931 0.82634 0.14172 0.0
H117 H 0.44015 0.72567 0.12199 0.0
C118 C 0.62876 0.77772 0.16058 0.0
C119 C 0.57957 0.70956 0.15896 0.0
H120 H 0.64666 0.87694 0.13145 0.0
H121 H 0.68047 0.79192 0.16277 0.0
C122 C 0.51312 0.69312 0.15693 0.0
C123 C 0.83648 0.58568 0.05176 0.0
C124 C 0.86199 0.54223 0.08513 0.0
H125 H 0.75278 0.6023 0.03022 0.0
C126 C 0.82624 0.48684 0.14251 0.0
H127 H 0.86308 0.62875 0.00728 0.0
C128 C 0.76234 0.47086 0.15353 0.0
C129 C 0.73358 0.5105 0.10874 0.0
H130 H 0.84421 0.45206 0.16821 0.0
H131 H 0.73379 0.4252 0.19062 0.0
C132 C 0.77297 0.57014 0.06394 0.0
C133 C 0.27276 0.75319 0.1661 0.0
C134 C 0.2072 0.7141 0.08504 0.0
H135 H 0.37044 0.84346 0.20331 0.0
C136 C 0.1855 0.74366 0.99053 0.0
H137 H 0.29038 0.73241 0.24175 0.0
C138 C 0.23155 0.80789 0.96885 0.0
C139 C 0.29988 0.8435 0.04151 0.0
H140 H 0.13491 0.71521 0.92773 0.0
H141 H 0.21546 0.8269 0.88884 0.0
C142 C 0.31851 0.81751 0.14509 0.0
C143 C 0.41904 0.21215 0.86789 0.0
C144 C 0.46846 0.27999 0.86762 0.0
H145 H 0.40068 0.11334 0.90224 0.0
C146 C 0.53508 0.29588 0.8722 0.0
H147 H 0.36719 0.19835 0.86379 0.0
C148 C 0.55455 0.24773 0.89751 0.0
C149 C 0.50729 0.18249 0.91486 0.0
H150 H 0.57439 0.34739 0.87135 0.0
H151 H 0.60787 0.26312 0.91282 0.0
C152 C 0.4383 0.16356 0.89088 0.0
loop_
_geom_bond_atom_site_label_1
_geom_bond_atom_site_label_2
_geom_bond_distance
_geom_bond_site_symmetry_2
_ccdc_geom_bond_type
O0 Mg1 1.990 . S
O0 C14 1.253 . S
Mg1 O0 1.990 . S
Mg1 O4 2.180 1_655 S
Mg1 O5 2.117 . S
Mg1 O19 2.030 . S
O2 Mg3 2.072 1_655 S
O2 C14 1.260 1_554 S
Mg3 O2 2.072 1_455 S
Mg3 O4 2.099 1_554 S
Mg3 O6 2.079 . S
Mg3 O7 2.072 1_554 S
Mg3 O9 2.099 . S
Mg3 O20 2.079 1_455 S
O4 Mg1 2.180 1_455 S
O4 Mg3 2.099 1_556 S
O4 C15 1.279 . S
O5 Mg1 2.117 . S
O5 C15 1.250 1_655 S
O6 Mg3 2.079 . S
O6 C16 1.264 . S
O7 Mg3 2.072 1_556 S
O7 C17 1.260 1_556 S
Mg8 O9 2.180 . S
Mg8 O10 2.030 . S
Mg8 O11 1.990 . S
Mg8 O12 2.117 . S
O9 Mg3 2.099 . S
O9 Mg8 2.180 . S
O9 C18 1.279 . S
O10 Mg8 2.030 . S
O10 C16 1.248 . S
O11 Mg8 1.990 . S
O11 C17 1.253 . S
O12 Mg8 2.117 . S
O12 C18 1.250 . S
C13 O19 1.248 . S
C13 O20 1.264 1_556 S
C14 O0 1.253 . S
C14 O2 1.260 1_556 S
C15 O4 1.279 . S
C15 O5 1.250 1_455 S
C16 O6 1.264 . S
C16 O10 1.248 . S
C17 O7 1.260 1_554 S
C17 O11 1.253 . S
C18 O9 1.279 . S
C18 O12 1.250 . S
O19 Mg1 2.030 . S
O19 C13 1.248 . S
O20 Mg3 2.079 1_655 S
O20 C13 1.264 1_554 S
O21 Mg22 1.990 . S
O21 C35 1.253 1_556 S
Mg22 O21 1.990 . S
Mg22 O25 2.180 . S
Mg22 O26 2.117 . S
Mg22 O40 2.030 . S
O23 Mg24 2.072 1_565 S
O23 C35 1.260 . S
Mg24 O23 2.072 1_545 S
Mg24 O25 2.099 1_544 S
Mg24 O27 2.079 1_554 S
Mg24 O28 2.072 1_554 S
Mg24 O30 2.099 . S
Mg24 O41 2.079 1_545 S
O25 Mg22 2.180 . S
O25 Mg24 2.099 1_566 S
O25 C36 1.279 . S
O26 Mg22 2.117 . S
O26 C36 1.250 . S
O27 Mg24 2.079 1_556 S
O27 C37 1.264 1_556 S
O28 Mg24 2.072 1_556 S
O28 C38 1.260 1_556 S
Mg29 O30 2.180 . S
Mg29 O31 2.030 . S
Mg29 O32 1.990 . S
Mg29 O33 2.117 . S
O30 Mg24 2.099 . S
O30 Mg29 2.180 . S
O30 C39 1.279 . S
O31 Mg29 2.030 . S
O31 C37 1.248 . S
O32 Mg29 1.990 . S
O32 C38 1.253 . S
O33 Mg29 2.117 . S
O33 C39 1.250 . S
C34 O40 1.248 . S
C34 O41 1.264 1_556 S
C35 O21 1.253 1_554 S
C35 O23 1.260 . S
C36 O25 1.279 . S
C36 O26 1.250 . S
C37 O27 1.264 1_554 S
C37 O31 1.248 . S
C38 O28 1.260 1_554 S
C38 O32 1.253 . S
C39 O30 1.279 . S
C39 O33 1.250 . S
O40 Mg22 2.030 . S
O40 C34 1.248 . S
O41 Mg24 2.079 1_565 S
O41 C34 1.264 1_554 S
O42 Mg43 1.990 . S
O42 C56 1.253 . S
Mg43 O42 1.990 . S
Mg43 O46 2.180 . S
Mg43 O47 2.117 . S
Mg43 O61 2.030 . S
O44 Mg45 2.072 . S
O44 C56 1.260 1_554 S
Mg45 O44 2.072 . S
Mg45 O46 2.099 1_554 S
Mg45 O48 2.079 . S
Mg45 O49 2.072 1_554 S
Mg45 O51 2.099 . S
Mg45 O62 2.079 . S
O46 Mg43 2.180 . S
O46 Mg45 2.099 1_556 S
O46 C57 1.279 . S
O47 Mg43 2.117 . S
O47 C57 1.250 . S
O48 Mg45 2.079 . S
O48 C58 1.264 . S
O49 Mg45 2.072 1_556 S
O49 C59 1.260 1_556 S
Mg50 O51 2.180 . S
Mg50 O52 2.030 . S
Mg50 O53 1.990 . S
Mg50 O54 2.117 . S
O51 Mg45 2.099 . S
O51 Mg50 2.180 . S
O51 C60 1.279 . S
O52 Mg50 2.030 . S
O52 C58 1.248 . S
O53 Mg50 1.990 . S
O53 C59 1.253 . S
O54 Mg50 2.117 . S
O54 C60 1.250 . S
C55 O61 1.248 1_554 S
C55 O62 1.264 . S
C56 O42 1.253 . S
C56 O44 1.260 1_556 S
C57 O46 1.279 . S
C57 O47 1.250 . S
C58 O48 1.264 . S
C58 O52 1.248 . S
C59 O49 1.260 1_554 S
C59 O53 1.253 . S
C60 O51 1.279 . S
C60 O54 1.250 . S
O61 Mg43 2.030 . S
O61 C55 1.248 1_556 S
O62 Mg45 2.079 . S
O62 C55 1.264 . S
C63 C64 1.387 . S
C63 H67 0.950 . S
C63 C72 1.390 . S
C64 C63 1.387 . S
C64 C66 1.387 . S
H65 C72 0.950 . S
C66 C64 1.387 . S
C66 C68 1.390 . S
C66 H70 0.950 . S
H67 C63 0.950 . S
C68 C66 1.390 . S
C68 C69 1.387 . S
C68 H71 0.950 . S
C69 C68 1.387 . S
C69 C72 1.387 . S
H70 C66 0.950 . S
H71 C68 0.950 . S
C72 C63 1.390 . S
C72 H65 0.950 . S
C72 C69 1.387 . S
C73 C74 1.387 . S
C73 H77 0.950 . S
C73 C82 1.390 . S
C74 C73 1.387 . S
C74 C76 1.387 1_545 S
H75 C82 0.950 . S
C76 C74 1.387 1_565 S
C76 C78 1.390 . S
C76 H80 0.950 . S
H77 C73 0.950 . S
C78 C76 1.390 . S
C78 C79 1.387 1_565 S
C78 H81 0.950 . S
C79 C78 1.387 1_545 S
C79 C82 1.387 . S
H80 C76 0.950 . S
H81 C78 0.950 . S
C82 C73 1.390 . S
C82 H75 0.950 . S
C82 C79 1.387 . S
C83 C84 1.387 . S
C83 H87 0.950 . S
C83 C92 1.390 . S
C84 C83 1.387 . S
C84 C86 1.387 . S
H85 C92 0.950 . S
C86 C84 1.387 . S
C86 C88 1.390 . S
C86 H90 0.950 . S
H87 C83 0.950 . S
C88 C86 1.390 . S
C88 C89 1.387 . S
C88 H91 0.950 . S
C89 C88 1.387 . S
C89 C92 1.387 . S
H90 C86 0.950 . S
H91 C88 0.950 . S
C92 C83 1.390 . S
C92 H85 0.950 . S
C92 C89 1.387 . S
C93 C94 1.387 . S
C93 H97 0.950 . S
C93 C102 1.390 . S
C94 C93 1.387 . S
C94 C96 1.387 . S
H95 C102 0.950 . S
C96 C94 1.387 . S
C96 C98 1.390 . S
C96 H100 0.950 . S
H97 C93 0.950 . S
C98 C96 1.390 . S
C98 C99 1.387 . S
C98 H101 0.950 . S
C99 C98 1.387 . S
C99 C102 1.387 . S
H100 C96 0.950 . S
H101 C98 0.950 . S
C102 C93 1.390 . S
C102 H95 0.950 . S
C102 C99 1.387 . S
C103 C104 1.387 1_556 S
C103 H107 0.950 . S
C103 C112 1.390 . S
C104 C103 1.387 1_554 S
C104 C106 1.387 . S
H105 C112 0.950 . S
C106 C104 1.387 . S
C106 C108 1.390 . S
C106 H110 0.950 . S
H107 C103 0.950 . S
C108 C106 1.390 . S
C108 C109 1.387 . S
C108 H111 0.950 . S
C109 C108 1.387 . S
C109 C112 1.387 1_554 S
H110 C106 0.950 . S
H111 C108 0.950 . S
C112 C103 1.390 . S
C112 H105 0.950 . S
C112 C109 1.387 1_556 S
C113 C114 1.387 . S
C113 H117 0.950 . S
C113 C122 1.390 . S
C114 C113 1.387 . S
C114 C116 1.387 1_554 S
H115 C122 0.950 . S
C116 C114 1.387 1_556 S
C116 C118 1.390 . S
C116 H120 0.950 . S
H117 C113 0.950 . S
C118 C116 1.390 . S
C118 C119 1.387 1_556 S
C118 H121 0.950 . S
C119 C118 1.387 1_554 S
C119 C122 1.387 . S
H120 C116 0.950 . S
H121 C118 0.950 . S
C122 C113 1.390 . S
C122 H115 0.950 . S
C122 C119 1.387 . S
C123 C124 1.387 . S
C123 H127 0.950 . S
C123 C132 1.390 . S
C124 C123 1.387 . S
C124 C126 1.387 . S
H125 C132 0.950 . S
C126 C124 1.387 . S
C126 C128 1.390 . S
C126 H130 0.950 . S
H127 C123 0.950 . S
C128 C126 1.390 . S
C128 C129 1.387 . S
C128 H131 0.950 . S
C129 C128 1.387 . S
C129 C132 1.387 . S
H130 C126 0.950 . S
H131 C128 0.950 . S
C132 C123 1.390 . S
C132 H125 0.950 . S
C132 C129 1.387 . S
C133 C134 1.387 . S
C133 H137 0.950 . S
C133 C142 1.390 . S
C134 C133 1.387 . S
C134 C136 1.387 1_554 S
H135 C142 0.950 . S
C136 C134 1.387 1_556 S
C136 C138 1.390 . S
C136 H140 0.950 . S
H137 C133 0.950 . S
C138 C136 1.390 . S
C138 C139 1.387 1_556 S
C138 H141 0.950 . S
C139 C138 1.387 1_554 S
C139 C142 1.387 . S
H140 C136 0.950 . S
H141 C138 0.950 . S
C142 C133 1.390 . S
C142 H135 0.950 . S
C142 C139 1.387 . S
C143 C144 1.387 1_554 S
C143 H147 0.950 . S
C143 C152 1.390 . S
C144 C143 1.387 1_556 S
C144 C146 1.387 . S
H145 C152 0.950 . S
C146 C144 1.387 . S
C146 C148 1.390 . S
C146 H150 0.950 . S
H147 C143 0.950 . S
C148 C146 1.390 . S
C148 C149 1.387 . S
C148 H151 0.950 . S
C149 C148 1.387 . S
C149 C152 1.387 1_556 S
H150 C146 0.950 . S
H151 C148 0.950 . S
C152 C143 1.390 . S
C152 H145 0.950 . S
C152 C149 1.387 1_554 S
C64 C15 1.300 . S
C69 C18 1.300 . S
C74 C39 1.268 . S
C79 C36 1.268 1_545 S
C84 C57 1.265 . S
C89 C60 1.266 . S
C94 C17 1.265 . S
C99 C56 1.268 1_554 S
C104 C38 1.267 . S
C109 C14 1.263 1_554 S
C114 C35 1.231 . S
C119 C55 1.246 . S
C124 C13 1.229 1_554 S
C129 C58 1.224 . S
C134 C16 1.229 . S
C139 C34 1.221 1_554 S
C144 C59 1.230 1_556 S
C149 C37 1.248 1_556 S
