# Generated by pormake.
# Topology uol, (4)-cn, num edge types: 1
# Building blocks:
#     Node 0, Type 0, BuildingBlock: GALJAG_clean_sbu_0, # of connection points: 4
#     Node 1, Type 0, BuildingBlock: GALJAG_clean_sbu_0, # of connection points: 4
#     Node 2, Type 0, BuildingBlock: GALJAG_clean_sbu_0, # of connection points: 4
#     Node 3, Type 0, BuildingBlock: GALJAG_clean_sbu_0, # of connection points: 4
#     Node 4, Type 0, BuildingBlock: GALJAG_clean_sbu_0, # of connection points: 4
#     Node 5, Type 0, BuildingBlock: GALJAG_clean_sbu_0, # of connection points: 4
#     Node 6, Type 0, BuildingBlock: GALJAG_clean_sbu_0, # of connection points: 4
#     Node 7, Type 0, BuildingBlock: GALJAG_clean_sbu_0, # of connection points: 4
#     Node 8, Type 0, BuildingBlock: GALJAG_clean_sbu_0, # of connection points: 4
#     Node 9, Type 0, BuildingBlock: GALJAG_clean_sbu_0, # of connection points: 4
#     Node 10, Type 0, BuildingBlock: GALJAG_clean_sbu_0, # of connection points: 4
#     Node 11, Type 0, BuildingBlock: GALJAG_clean_sbu_0, # of connection points: 4
#     Edge 12, Type (0, 0), None
#     Edge 13, Type (0, 0), None
#     Edge 14, Type (0, 0), None
#     Edge 15, Type (0, 0), None
#     Edge 16, Type (0, 0), None
#     Edge 17, Type (0, 0), None
#     Edge 18, Type (0, 0), None
#     Edge 19, Type (0, 0), None
#     Edge 20, Type (0, 0), None
#     Edge 21, Type (0, 0), None
#     Edge 22, Type (0, 0), None
#     Edge 23, Type (0, 0), None
#     Edge 24, Type (0, 0), None
#     Edge 25, Type (0, 0), None
#     Edge 26, Type (0, 0), None
#     Edge 27, Type (0, 0), None
#     Edge 28, Type (0, 0), None
#     Edge 29, Type (0, 0), None
#     Edge 30, Type (0, 0), None
#     Edge 31, Type (0, 0), None
#     Edge 32, Type (0, 0), None
#     Edge 33, Type (0, 0), None
#     Edge 34, Type (0, 0), None
#     Edge 35, Type (0, 0), None
# Relax obj value: 0.121
# Max RMSD: 0.117
# Mean RMSD: 0.117
data_MOF--net-uol--node1-GALJAG_clean_sbu_0--edge1-none
_symmetry_space_group_name_H-M    P1
_symmetry_Int_Tables_number       1
_symmetry_cell_setting            triclinic
loop_
_symmetry_equiv_pos_as_xyz
'x, y, z'
_cell_length_a     15.472909
_cell_length_b     15.473321
_cell_length_c     26.769883
_cell_angle_alpha  90.000279
_cell_angle_beta   89.999861
_cell_angle_gamma 120.00185
loop_
_atom_site_label
_atom_site_type_symbol
_atom_site_fract_x
_atom_site_fract_y
_atom_site_fract_z
_atom_type_partial_charge
In0 In 0.16707 0.36596 0.08913 0.0
O1 O 0.00422 0.23495 0.10021 0.0
O2 O 0.05474 0.37006 0.1406 0.0
C3 C 0.23664 0.33355 0.0031 0.0
C4 C 0.2003 0.55322 0.08448 0.0
C5 C 0.25449 0.29692 0.15172 0.0
O6 O 0.14349 0.29191 0.01108 0.0
O7 O 0.2907 0.39364 0.03652 0.0
O8 O 0.29727 0.38797 0.13965 0.0
O9 O 0.16917 0.24326 0.1333 0.0
C10 C 0.9858 0.28199 0.13333 0.0
O11 O 0.22509 0.52081 0.12193 0.0
O12 O 0.16119 0.49222 0.04868 0.0
In13 In 0.80215 0.16653 0.25579 0.0
O14 O 0.77032 0.0037 0.26688 0.0
O15 O 0.68572 0.05421 0.30726 0.0
C16 C 0.90411 0.23608 0.16977 0.0
C17 C 0.64812 0.19976 0.25115 0.0
C18 C 0.95864 0.25398 0.31837 0.0
O19 O 0.85259 0.14293 0.17774 0.0
O20 O 0.89806 0.29016 0.20317 0.0
O21 O 0.91035 0.29674 0.30631 0.0
O22 O 0.92698 0.16866 0.29994 0.0
C23 C 0.70486 0.98528 0.3 0.0
O24 O 0.70532 0.22455 0.2886 0.0
O25 O 0.66999 0.16065 0.21535 0.0
In26 In 0.63666 0.80164 0.42246 0.0
O27 O 0.76769 0.76983 0.43355 0.0
O28 O 0.63254 0.68515 0.4739 0.0
C29 C 0.66909 0.9036 0.33643 0.0
C30 C 0.44939 0.64761 0.41782 0.0
C31 C 0.70571 0.9581 0.48505 0.0
O32 O 0.71072 0.85208 0.34441 0.0
O33 O 0.60895 0.89754 0.36984 0.0
O34 O 0.61464 0.90981 0.47298 0.0
O35 O 0.75936 0.92644 0.46663 0.0
C36 C 0.72062 0.70432 0.46665 0.0
O37 O 0.48182 0.7048 0.45528 0.0
O38 O 0.51037 0.66949 0.38201 0.0
In39 In 0.83603 0.63612 0.58911 0.0
O40 O 0.77797 0.48125 0.62191 0.0
O41 O 0.84197 0.50987 0.54868 0.0
C42 C 0.74857 0.7052 0.65166 0.0
C43 C 0.01724 0.72005 0.63336 0.0
C44 C 0.76652 0.66853 0.50308 0.0
O45 O 0.70581 0.61414 0.63962 0.0
O46 O 0.8339 0.75885 0.63323 0.0
O47 O 0.85967 0.71019 0.51107 0.0
O48 O 0.71242 0.60837 0.53647 0.0
C49 C 0.80282 0.44886 0.58447 0.0
O50 O 0.99891 0.76707 0.6002 0.0
O51 O 0.94825 0.63202 0.64066 0.0
In52 In 0.20097 0.83552 0.75579 0.0
O53 O 0.2328 0.99836 0.76688 0.0
O54 O 0.31743 0.94787 0.80725 0.0
C55 C 0.09895 0.76595 0.66979 0.0
C56 C 0.35498 0.80227 0.75114 0.0
C57 C 0.04451 0.74811 0.81839 0.0
O58 O 0.15052 0.85911 0.67774 0.0
O59 O 0.10498 0.71188 0.7032 0.0
O60 O 0.09279 0.70534 0.80633 0.0
O61 O 0.07618 0.83343 0.79996 0.0
C62 C 0.29829 0.01678 0.79999 0.0
O63 O 0.2978 0.7775 0.7886 0.0
O64 O 0.3331 0.84137 0.71533 0.0
In65 In 0.36647 0.20042 0.92245 0.0
O66 O 0.23557 0.23244 0.93349 0.0
O67 O 0.37053 0.3166 0.97408 0.0
C68 C 0.33406 0.09848 0.83642 0.0
C69 C 0.55371 0.3545 0.9178 0.0
C70 C 0.29737 0.04387 0.98499 0.0
O71 O 0.2924 0.14996 0.84441 0.0
O72 O 0.39423 0.10456 0.86982 0.0
O73 O 0.38845 0.09219 0.97295 0.0
O74 O 0.24372 0.07553 0.96656 0.0
C75 C 0.28254 0.29763 0.96674 0.0
O76 O 0.52136 0.29724 0.95523 0.0
O77 O 0.49268 0.33266 0.88202 0.0
In78 In 0.63662 0.8355 0.74776 0.0
O79 O 0.48176 0.77745 0.71496 0.0
O80 O 0.51035 0.8414 0.78821 0.0
C81 C 0.70569 0.74809 0.68518 0.0
C82 C 0.72056 0.01676 0.70355 0.0
C83 C 0.66903 0.76593 0.83379 0.0
O84 O 0.61462 0.70531 0.69723 0.0
O85 O 0.75933 0.83341 0.7036 0.0
O86 O 0.71067 0.85908 0.82581 0.0
O87 O 0.60893 0.71187 0.80037 0.0
C88 C 0.44937 0.8023 0.7524 0.0
O89 O 0.7676 0.99836 0.73668 0.0
O90 O 0.6325 0.9478 0.69628 0.0
In91 In 0.80217 0.6361 0.91444 0.0
O92 O 0.77013 0.76699 0.9034 0.0
O93 O 0.68602 0.63205 0.86279 0.0
C94 C 0.90409 0.66847 1.00049 0.0
C95 C 0.64807 0.44889 0.91907 0.0
C96 C 0.95874 0.70523 0.85191 0.0
O97 O 0.85264 0.71017 0.99248 0.0
O98 O 0.89801 0.60833 0.96708 0.0
O99 O 0.91043 0.61415 0.86394 0.0
O100 O 0.92707 0.75887 0.87035 0.0
C101 C 0.70495 0.72002 0.87014 0.0
O102 O 0.70538 0.48122 0.88166 0.0
O103 O 0.6699 0.5099 0.95486 0.0
In104 In 0.1671 0.80163 0.08109 0.0
O105 O 0.0042 0.76966 0.07006 0.0
O106 O 0.05489 0.68535 0.02953 0.0
C107 C 0.2367 0.90365 0.16711 0.0
C108 C 0.20027 0.64757 0.08575 0.0
C109 C 0.2545 0.95811 0.01851 0.0
O110 O 0.14354 0.85212 0.15914 0.0
O111 O 0.29075 0.89762 0.13369 0.0
O112 O 0.29728 0.90984 0.03057 0.0
O113 O 0.16918 0.92644 0.03695 0.0
C114 C 0.98591 0.70438 0.03685 0.0
O115 O 0.22518 0.70483 0.04831 0.0
O116 O 0.16113 0.66943 0.12154 0.0
In117 In 0.36652 0.16662 0.24777 0.0
O118 O 0.52142 0.22473 0.21501 0.0
O119 O 0.49271 0.16055 0.28821 0.0
C120 C 0.29738 0.25404 0.18524 0.0
C121 C 0.2826 0.98549 0.20346 0.0
C122 C 0.33412 0.23618 0.3338 0.0
O123 O 0.38847 0.29682 0.19727 0.0
O124 O 0.24375 0.16874 0.20368 0.0
O125 O 0.29245 0.14304 0.3258 0.0
O126 O 0.39425 0.29025 0.30039 0.0
C127 C 0.55373 0.19974 0.25242 0.0
O128 O 0.23565 0.00367 0.23674 0.0
O129 O 0.37057 0.05456 0.1961 0.0
In130 In 0.20095 0.366 0.41443 0.0
O131 O 0.29774 0.52089 0.38167 0.0
O132 O 0.33319 0.49221 0.45488 0.0
C133 C 0.04441 0.29687 0.35189 0.0
C134 C 0.29819 0.28209 0.37015 0.0
C135 C 0.09897 0.33359 0.50046 0.0
O136 O 0.09271 0.38795 0.36393 0.0
O137 O 0.07608 0.24324 0.37033 0.0
O138 O 0.15047 0.29194 0.49247 0.0
O139 O 0.10502 0.39371 0.46705 0.0
C140 C 0.35503 0.55322 0.41909 0.0
O141 O 0.233 0.23512 0.4034 0.0
O142 O 0.31713 0.37007 0.3628 0.0
In143 In 0.83599 0.20043 0.58111 0.0
O144 O 0.77789 0.29721 0.54833 0.0
O145 O 0.84203 0.33268 0.62154 0.0
C146 C 0.74856 0.04387 0.51857 0.0
C147 C 0.01714 0.29767 0.53682 0.0
C148 C 0.76646 0.09847 0.66713 0.0
O149 O 0.70579 0.09216 0.53061 0.0
O150 O 0.83388 0.07555 0.53701 0.0
O151 O 0.85962 0.14997 0.65915 0.0
O152 O 0.71237 0.10454 0.63374 0.0
C153 C 0.80285 0.35451 0.58575 0.0
O154 O 0.99893 0.23249 0.57008 0.0
O155 O 0.94809 0.31659 0.52947 0.0
loop_
_geom_bond_atom_site_label_1
_geom_bond_atom_site_label_2
_geom_bond_distance
_geom_bond_site_symmetry_2
_ccdc_geom_bond_type
In0 O1 2.294 . S
In0 O2 2.326 . S
In0 O6 2.266 . S
In0 O7 2.326 . S
In0 O8 2.266 . S
In0 O9 2.326 . S
In0 O11 2.294 . S
In0 O12 2.326 . S
O1 In0 2.294 . S
O1 C10 1.240 . S
O2 In0 2.326 . S
O2 C10 1.252 . S
C3 O6 1.252 . S
C3 O7 1.260 . S
C4 O11 1.240 . S
C4 O12 1.252 . S
C5 O8 1.252 . S
C5 O9 1.260 . S
O6 In0 2.266 . S
O6 C3 1.252 . S
O7 In0 2.326 . S
O7 C3 1.260 . S
O8 In0 2.266 . S
O8 C5 1.252 . S
O9 In0 2.326 . S
O9 C5 1.260 . S
C10 O1 1.240 . S
C10 O2 1.252 . S
O11 In0 2.294 . S
O11 C4 1.240 . S
O12 In0 2.326 . S
O12 C4 1.252 . S
In13 O14 2.294 . S
In13 O15 2.326 . S
In13 O19 2.266 . S
In13 O20 2.326 . S
In13 O21 2.266 . S
In13 O22 2.326 . S
In13 O24 2.294 . S
In13 O25 2.326 . S
O14 In13 2.294 . S
O14 C23 1.240 . S
O15 In13 2.326 . S
O15 C23 1.252 . S
C16 O19 1.252 . S
C16 O20 1.260 . S
C17 O24 1.240 . S
C17 O25 1.252 . S
C18 O21 1.252 . S
C18 O22 1.260 . S
O19 In13 2.266 . S
O19 C16 1.252 . S
O20 In13 2.326 . S
O20 C16 1.260 . S
O21 In13 2.266 . S
O21 C18 1.252 . S
O22 In13 2.326 . S
O22 C18 1.260 . S
C23 O14 1.240 . S
C23 O15 1.252 . S
O24 In13 2.294 . S
O24 C17 1.240 . S
O25 In13 2.326 . S
O25 C17 1.252 . S
In26 O27 2.294 . S
In26 O28 2.326 . S
In26 O32 2.266 . S
In26 O33 2.326 . S
In26 O34 2.266 . S
In26 O35 2.326 . S
In26 O37 2.294 . S
In26 O38 2.326 . S
O27 In26 2.294 . S
O27 C36 1.240 . S
O28 In26 2.326 . S
O28 C36 1.252 . S
C29 O32 1.252 . S
C29 O33 1.260 . S
C30 O37 1.240 . S
C30 O38 1.252 . S
C31 O34 1.252 . S
C31 O35 1.260 . S
O32 In26 2.266 . S
O32 C29 1.252 . S
O33 In26 2.326 . S
O33 C29 1.260 . S
O34 In26 2.266 . S
O34 C31 1.252 . S
O35 In26 2.326 . S
O35 C31 1.260 . S
C36 O27 1.240 . S
C36 O28 1.252 . S
O37 In26 2.294 . S
O37 C30 1.240 . S
O38 In26 2.326 . S
O38 C30 1.252 . S
In39 O40 2.294 . S
In39 O41 2.326 . S
In39 O45 2.266 . S
In39 O46 2.326 . S
In39 O47 2.266 . S
In39 O48 2.326 . S
In39 O50 2.294 . S
In39 O51 2.326 . S
O40 In39 2.294 . S
O40 C49 1.240 . S
O41 In39 2.326 . S
O41 C49 1.252 . S
C42 O45 1.252 . S
C42 O46 1.260 . S
C43 O50 1.240 . S
C43 O51 1.252 . S
C44 O47 1.252 . S
C44 O48 1.260 . S
O45 In39 2.266 . S
O45 C42 1.252 . S
O46 In39 2.326 . S
O46 C42 1.260 . S
O47 In39 2.266 . S
O47 C44 1.252 . S
O48 In39 2.326 . S
O48 C44 1.260 . S
C49 O40 1.240 . S
C49 O41 1.252 . S
O50 In39 2.294 . S
O50 C43 1.240 . S
O51 In39 2.326 . S
O51 C43 1.252 . S
In52 O53 2.294 . S
In52 O54 2.326 . S
In52 O58 2.266 . S
In52 O59 2.326 . S
In52 O60 2.266 . S
In52 O61 2.326 . S
In52 O63 2.294 . S
In52 O64 2.326 . S
O53 In52 2.294 . S
O53 C62 1.240 . S
O54 In52 2.326 . S
O54 C62 1.252 . S
C55 O58 1.252 . S
C55 O59 1.260 . S
C56 O63 1.240 . S
C56 O64 1.252 . S
C57 O60 1.252 . S
C57 O61 1.260 . S
O58 In52 2.266 . S
O58 C55 1.252 . S
O59 In52 2.326 . S
O59 C55 1.260 . S
O60 In52 2.266 . S
O60 C57 1.252 . S
O61 In52 2.326 . S
O61 C57 1.260 . S
C62 O53 1.240 . S
C62 O54 1.252 . S
O63 In52 2.294 . S
O63 C56 1.240 . S
O64 In52 2.326 . S
O64 C56 1.252 . S
In65 O66 2.294 . S
In65 O67 2.326 1_556 S
In65 O71 2.266 . S
In65 O72 2.326 . S
In65 O73 2.266 . S
In65 O74 2.326 . S
In65 O76 2.294 . S
In65 O77 2.326 . S
O66 In65 2.294 . S
O66 C75 1.240 . S
O67 In65 2.326 1_554 S
O67 C75 1.252 1_554 S
C68 O71 1.252 . S
C68 O72 1.260 . S
C69 O76 1.240 . S
C69 O77 1.252 . S
C70 O73 1.252 . S
C70 O74 1.260 . S
O71 In65 2.266 . S
O71 C68 1.252 . S
O72 In65 2.326 . S
O72 C68 1.260 . S
O73 In65 2.266 . S
O73 C70 1.252 . S
O74 In65 2.326 . S
O74 C70 1.260 . S
C75 O66 1.240 . S
C75 O67 1.252 1_556 S
O76 In65 2.294 . S
O76 C69 1.240 . S
O77 In65 2.326 . S
O77 C69 1.252 . S
In78 O79 2.294 . S
In78 O80 2.326 . S
In78 O84 2.266 . S
In78 O85 2.326 . S
In78 O86 2.266 . S
In78 O87 2.326 . S
In78 O89 2.294 . S
In78 O90 2.326 . S
O79 In78 2.294 . S
O79 C88 1.240 . S
O80 In78 2.326 . S
O80 C88 1.252 . S
C81 O84 1.252 . S
C81 O85 1.260 . S
C82 O89 1.240 . S
C82 O90 1.252 . S
C83 O86 1.252 . S
C83 O87 1.260 . S
O84 In78 2.266 . S
O84 C81 1.252 . S
O85 In78 2.326 . S
O85 C81 1.260 . S
O86 In78 2.266 . S
O86 C83 1.252 . S
O87 In78 2.326 . S
O87 C83 1.260 . S
C88 O79 1.240 . S
C88 O80 1.252 . S
O89 In78 2.294 . S
O89 C82 1.240 . S
O90 In78 2.326 . S
O90 C82 1.252 . S
In91 O92 2.294 . S
In91 O93 2.326 . S
In91 O97 2.266 . S
In91 O98 2.326 . S
In91 O99 2.266 . S
In91 O100 2.326 . S
In91 O102 2.294 . S
In91 O103 2.326 . S
O92 In91 2.294 . S
O92 C101 1.240 . S
O93 In91 2.326 . S
O93 C101 1.252 . S
C94 O97 1.252 . S
C94 O98 1.260 . S
C95 O102 1.240 . S
C95 O103 1.252 . S
C96 O99 1.252 . S
C96 O100 1.260 . S
O97 In91 2.266 . S
O97 C94 1.252 . S
O98 In91 2.326 . S
O98 C94 1.260 . S
O99 In91 2.266 . S
O99 C96 1.252 . S
O100 In91 2.326 . S
O100 C96 1.260 . S
C101 O92 1.240 . S
C101 O93 1.252 . S
O102 In91 2.294 . S
O102 C95 1.240 . S
O103 In91 2.326 . S
O103 C95 1.252 . S
In104 O105 2.294 . S
In104 O106 2.326 1_554 S
In104 O110 2.266 . S
In104 O111 2.326 . S
In104 O112 2.266 . S
In104 O113 2.326 . S
In104 O115 2.294 . S
In104 O116 2.326 . S
O105 In104 2.294 . S
O105 C114 1.240 . S
O106 In104 2.326 1_556 S
O106 C114 1.252 1_556 S
C107 O110 1.252 . S
C107 O111 1.260 . S
C108 O115 1.240 . S
C108 O116 1.252 . S
C109 O112 1.252 . S
C109 O113 1.260 . S
O110 In104 2.266 . S
O110 C107 1.252 . S
O111 In104 2.326 . S
O111 C107 1.260 . S
O112 In104 2.266 . S
O112 C109 1.252 . S
O113 In104 2.326 . S
O113 C109 1.260 . S
C114 O105 1.240 . S
C114 O106 1.252 1_554 S
O115 In104 2.294 . S
O115 C108 1.240 . S
O116 In104 2.326 . S
O116 C108 1.252 . S
In117 O118 2.294 . S
In117 O119 2.326 . S
In117 O123 2.266 . S
In117 O124 2.326 . S
In117 O125 2.266 . S
In117 O126 2.326 . S
In117 O128 2.294 . S
In117 O129 2.326 . S
O118 In117 2.294 . S
O118 C127 1.240 . S
O119 In117 2.326 . S
O119 C127 1.252 . S
C120 O123 1.252 . S
C120 O124 1.260 . S
C121 O128 1.240 . S
C121 O129 1.252 . S
C122 O125 1.252 . S
C122 O126 1.260 . S
O123 In117 2.266 . S
O123 C120 1.252 . S
O124 In117 2.326 . S
O124 C120 1.260 . S
O125 In117 2.266 . S
O125 C122 1.252 . S
O126 In117 2.326 . S
O126 C122 1.260 . S
C127 O118 1.240 . S
C127 O119 1.252 . S
O128 In117 2.294 . S
O128 C121 1.240 . S
O129 In117 2.326 . S
O129 C121 1.252 . S
In130 O131 2.294 . S
In130 O132 2.326 . S
In130 O136 2.266 . S
In130 O137 2.326 . S
In130 O138 2.266 . S
In130 O139 2.326 . S
In130 O141 2.294 . S
In130 O142 2.326 . S
O131 In130 2.294 . S
O131 C140 1.240 . S
O132 In130 2.326 . S
O132 C140 1.252 . S
C133 O136 1.252 . S
C133 O137 1.260 . S
C134 O141 1.240 . S
C134 O142 1.252 . S
C135 O138 1.252 . S
C135 O139 1.260 . S
O136 In130 2.266 . S
O136 C133 1.252 . S
O137 In130 2.326 . S
O137 C133 1.260 . S
O138 In130 2.266 . S
O138 C135 1.252 . S
O139 In130 2.326 . S
O139 C135 1.260 . S
C140 O131 1.240 . S
C140 O132 1.252 . S
O141 In130 2.294 . S
O141 C134 1.240 . S
O142 In130 2.326 . S
O142 C134 1.252 . S
In143 O144 2.294 . S
In143 O145 2.326 . S
In143 O149 2.266 . S
In143 O150 2.326 . S
In143 O151 2.266 . S
In143 O152 2.326 . S
In143 O154 2.294 . S
In143 O155 2.326 . S
O144 In143 2.294 . S
O144 C153 1.240 . S
O145 In143 2.326 . S
O145 C153 1.252 . S
C146 O149 1.252 . S
C146 O150 1.260 . S
C147 O154 1.240 . S
C147 O155 1.252 . S
C148 O151 1.252 . S
C148 O152 1.260 . S
O149 In143 2.266 . S
O149 C146 1.252 . S
O150 In143 2.326 . S
O150 C146 1.260 . S
O151 In143 2.266 . S
O151 C148 1.252 . S
O152 In143 2.326 . S
O152 C148 1.260 . S
C153 O144 1.240 . S
C153 O145 1.252 . S
O154 In143 2.294 . S
O154 C147 1.240 . S
O155 In143 2.326 . S
O155 C147 1.252 . S
C108 C4 1.273 . S
C17 C127 1.273 . S
C30 C140 1.273 . S
C49 C153 1.273 . S
C88 C56 1.273 . S
C69 C95 1.273 . S
C120 C5 1.082 . S
C18 C133 1.082 1_655 S
C146 C31 1.082 1_545 S
C42 C81 1.082 . S
C96 C57 1.082 1_655 S
C109 C70 1.082 1_564 S
C3 C75 1.728 1_554 S
C16 C10 1.729 1_655 S
C23 C29 1.728 1_545 S
C44 C36 1.728 . S
C55 C43 1.729 1_455 S
C68 C62 1.728 1_545 S
C83 C101 1.728 . S
C94 C114 1.728 1_656 S
C107 C121 1.729 1_565 S
C122 C134 1.728 . S
C135 C147 1.728 1_455 S
C82 C148 1.729 1_565 S
