# Generated by pormake.
# Topology hex, (8)-cn, num edge types: 1
# Building blocks:
#     Node 0, Type 0, BuildingBlock: HISSIN_clean_sbu_1, # of connection points: 8
#     Edge 1, Type (0, 0), BuildingBlock: OJICUG_clean_linker_0, # of connection points: 2
#     Edge 2, Type (0, 0), BuildingBlock: OJICUG_clean_linker_0, # of connection points: 2
#     Edge 3, Type (0, 0), BuildingBlock: OJICUG_clean_linker_0, # of connection points: 2
#     Edge 4, Type (0, 0), BuildingBlock: OJICUG_clean_linker_0, # of connection points: 2
# Relax obj value: 0.034
# Max RMSD: 0.092
# Mean RMSD: 0.092
data_MOF--net-hex--node1-HISSIN_clean_sbu_1--edge1-OJICUG_clean_linker_0
_symmetry_space_group_name_H-M    P1
_symmetry_Int_Tables_number       1
_symmetry_cell_setting            triclinic
loop_
_symmetry_equiv_pos_as_xyz
'x, y, z'
_cell_length_a     16.817893
_cell_length_b     14.614636
_cell_length_c     11.022552
_cell_angle_alpha  107.4713
_cell_angle_beta   109.19392
_cell_angle_gamma 112.17998
loop_
_atom_site_label
_atom_site_type_symbol
_atom_site_fract_x
_atom_site_fract_y
_atom_site_fract_z
_atom_type_partial_charge
Eu0 Eu 0.12453 0.13362 0.07076 0.0
C1 C 1.05148 0.9769 0.74237 0.0
O2 O 0.12941 0.29432 0.08823 0.0
C3 C 0.75303 0.79911 0.88434 0.0
C4 C 0.61242 0.75925 0.97681 0.0
C5 C 0.71807 0.70654 0.90923 0.0
C6 C 0.6474 0.68617 0.9551 0.0
C7 C 0.71685 0.87148 0.9065 0.0
C8 C 0.64676 0.85222 0.95363 0.0
Eu9 Eu 1.00063 0.84878 0.91335 0.0
O10 O 0.06252 0.08033 0.2072 0.0
O11 O 0.99575 0.68808 0.89588 0.0
O12 O 0.06264 0.90207 0.77692 0.0
O13 O 0.08697 0.93319 0.15959 0.0
C14 C 0.0748 0.69211 0.98099 0.0
O15 O 0.15867 0.79033 0.06881 0.0
O16 O 0.90875 0.92107 0.91709 0.0
C17 C 0.82629 0.82118 0.83401 0.0
C18 C 1.05036 0.2903 0.00312 0.0
O19 O 0.96649 0.19207 0.91531 0.0
O20 O 0.84024 0.73871 0.78059 0.0
O21 O 1.03819 0.04921 0.82452 0.0
C22 C 0.29887 0.16122 0.15011 0.0
O23 O 0.21641 0.06133 0.06703 0.0
C24 C 0.37213 0.18329 0.09977 0.0
C25 C 0.51274 0.22315 0.0073 0.0
C26 C 0.40709 0.27586 0.07488 0.0
C27 C 0.47776 0.29623 0.02902 0.0
C28 C 0.40831 0.11092 0.07761 0.0
C29 C 0.4784 0.13018 0.03049 0.0
C30 C 0.07368 0.0055 0.24174 0.0
O31 O 0.28492 0.24369 0.20352 0.0
H32 H 0.55538 0.74139 0.00724 0.0
H33 H 0.7459 0.65059 0.89365 0.0
H34 H 0.74382 0.94319 0.88801 0.0
H35 H 0.56978 0.24101 0.97687 0.0
H36 H 0.37926 0.33181 0.09046 0.0
H37 H 0.38134 0.03921 0.09611 0.0
C38 C 0.97208 0.38797 0.90593 0.0
C39 C 1.05652 0.39361 -0.00065 0.0
H40 H 0.91145 0.47685 0.82611 0.0
C41 C 0.14711 0.49809 0.08536 0.0
H42 H 0.90106 0.3089 0.83775 0.0
C43 C 0.15308 0.59443 0.07818 0.0
C44 C 0.06864 0.58879 0.98476 0.0
H45 H 0.21371 0.50556 0.158 0.0
H46 H 0.2241 0.6735 0.14637 0.0
C47 C 0.97806 0.48432 0.89875 0.0
C48 C 0.59257 0.95852 0.0969 0.0
C49 C 0.60622 0.92612 0.97515 0.0
H50 H 0.54123 0.04813 0.20963 0.0
C51 C 0.57598 0.95966 0.87064 0.0
H52 H 0.6161 0.93475 0.18005 0.0
C53 C 0.53259 0.02388 0.88721 0.0
C54 C 0.51894 0.05628 0.00896 0.0
H55 H 0.58393 0.93427 0.77448 0.0
H56 H 0.50906 0.04764 0.80406 0.0
C57 C 0.54918 0.02274 0.11348 0.0
C58 C 0.54907 0.50268 0.11331 0.0
C59 C 0.51855 0.39566 0.00807 0.0
H60 H 0.61657 0.67918 0.18109 0.0
C61 C 0.5323 0.38504 0.88653 0.0
H62 H 0.541 0.51357 0.20933 0.0
C63 C 0.57609 0.47972 0.8708 0.0
C64 C 0.60662 0.58675 0.97605 0.0
H65 H 0.50859 0.30322 0.80302 0.0
H66 H 0.58416 0.46883 0.77478 0.0
C67 C 0.59286 0.59737 0.09758 0.0
C68 C 1.04537 0.06448 0.57888 0.0
C69 C 1.05596 0.98289 0.6131 0.0
H70 H 1.04303 0.13609 0.43538 0.0
C71 C 0.07328 0.90974 0.52505 0.0
H72 H 1.03224 0.12254 0.64481 0.0
C73 C 0.07979 0.91792 0.40524 0.0
C74 C 0.0692 -0.00049 0.37102 0.0
H75 H 0.08213 0.84631 0.54873 0.0
H76 H 0.09292 0.85987 0.3393 0.0
C77 C 1.05188 0.07267 0.45906 0.0
loop_
_geom_bond_atom_site_label_1
_geom_bond_atom_site_label_2
_geom_bond_distance
_geom_bond_site_symmetry_2
_ccdc_geom_bond_type
Eu0 O2 2.323 . S
Eu0 O10 2.328 . S
Eu0 O21 2.316 1_554 S
Eu0 C22 2.837 . S
Eu0 O23 2.488 . S
Eu0 O31 2.461 . S
C1 O12 1.251 . S
C1 O21 1.237 1_665 S
O2 Eu0 2.323 . S
O2 C18 1.279 1_455 S
C3 C5 1.383 . S
C3 C7 1.388 . S
C3 C17 1.491 . S
C4 C6 1.403 . S
C4 C8 1.385 1_554 S
C4 H32 0.931 . S
C5 C3 1.383 . S
C5 C6 1.393 1_556 S
C5 H33 0.930 . S
C6 C4 1.403 . S
C6 C5 1.393 1_554 S
C7 C3 1.388 . S
C7 C8 1.394 . S
C7 H34 0.930 . S
C8 C4 1.385 1_556 S
C8 C7 1.394 . S
Eu9 O11 2.323 . S
Eu9 O12 2.328 . S
Eu9 O13 2.316 1_556 S
Eu9 O16 2.488 . S
Eu9 C17 2.837 . S
Eu9 O20 2.461 . S
O10 Eu0 2.328 . S
O10 C30 1.251 . S
O11 Eu9 2.323 . S
O11 C14 1.279 1_655 S
O12 C1 1.251 . S
O12 Eu9 2.328 . S
O13 Eu9 2.316 1_554 S
O13 C30 1.237 1_665 S
C14 O11 1.279 1_455 S
C14 O15 1.244 . S
O15 C14 1.244 . S
O16 Eu9 2.488 . S
O16 C17 1.271 . S
C17 C3 1.491 . S
C17 Eu9 2.837 . S
C17 O16 1.271 . S
C17 O20 1.261 . S
C18 O2 1.279 1_655 S
C18 O19 1.244 . S
O19 C18 1.244 . S
O20 Eu9 2.461 . S
O20 C17 1.261 . S
O21 Eu0 2.316 1_556 S
O21 C1 1.237 1_445 S
C22 Eu0 2.837 . S
C22 O23 1.271 . S
C22 C24 1.491 . S
C22 O31 1.261 . S
O23 Eu0 2.488 . S
O23 C22 1.271 . S
C24 C22 1.491 . S
C24 C26 1.383 . S
C24 C28 1.388 . S
C25 C27 1.403 . S
C25 C29 1.385 1_556 S
C25 H35 0.931 . S
C26 C24 1.383 . S
C26 C27 1.393 1_554 S
C26 H36 0.930 . S
C27 C25 1.403 . S
C27 C26 1.393 1_556 S
C28 C24 1.388 . S
C28 C29 1.394 . S
C28 H37 0.930 . S
C29 C25 1.385 1_554 S
C29 C28 1.394 . S
C30 O10 1.251 . S
C30 O13 1.237 1_445 S
O31 Eu0 2.461 . S
O31 C22 1.261 . S
H32 C4 0.931 . S
H33 C5 0.930 . S
H34 C7 0.930 . S
H35 C25 0.931 . S
H36 C26 0.930 . S
H37 C28 0.930 . S
C38 C39 1.387 1_556 S
C38 H42 0.950 . S
C38 C47 1.390 . S
C39 C38 1.387 1_554 S
C39 C41 1.387 1_655 S
H40 C47 0.950 . S
C41 C39 1.387 1_455 S
C41 C43 1.390 . S
C41 H45 0.950 . S
H42 C38 0.950 . S
C43 C41 1.390 . S
C43 C44 1.387 1_554 S
C43 H46 0.950 . S
C44 C43 1.387 1_556 S
C44 C47 1.387 1_455 S
H45 C41 0.950 . S
H46 C43 0.950 . S
C47 C38 1.390 . S
C47 H40 0.950 . S
C47 C44 1.387 1_655 S
C48 C49 1.387 1_554 S
C48 H52 0.950 . S
C48 C57 1.390 . S
C49 C48 1.387 1_556 S
C49 C51 1.387 1_565 S
H50 C57 0.950 . S
C51 C49 1.387 1_545 S
C51 C53 1.390 . S
C51 H55 0.950 . S
H52 C48 0.950 . S
C53 C51 1.390 . S
C53 C54 1.387 1_556 S
C53 H56 0.950 . S
C54 C53 1.387 1_554 S
C54 C57 1.387 1_545 S
H55 C51 0.950 . S
H56 C53 0.950 . S
C57 C48 1.390 . S
C57 H50 0.950 . S
C57 C54 1.387 1_565 S
C58 C59 1.387 1_554 S
C58 H62 0.950 . S
C58 C67 1.390 . S
C59 C58 1.387 1_556 S
C59 C61 1.387 . S
H60 C67 0.950 . S
C61 C59 1.387 . S
C61 C63 1.390 . S
C61 H65 0.950 . S
H62 C58 0.950 . S
C63 C61 1.390 . S
C63 C64 1.387 1_556 S
C63 H66 0.950 . S
C64 C63 1.387 1_554 S
C64 C67 1.387 . S
H65 C61 0.950 . S
H66 C63 0.950 . S
C67 C58 1.390 . S
C67 H60 0.950 . S
C67 C64 1.387 . S
C68 C69 1.389 1_455 S
C68 H72 0.950 . S
C68 C77 1.390 . S
C69 C68 1.389 1_655 S
C69 C71 1.387 1_545 S
H70 C77 0.950 . S
C71 C69 1.387 1_565 S
C71 C73 1.390 . S
C71 H75 0.950 . S
H72 C68 0.950 . S
C73 C71 1.390 . S
C73 C74 1.386 1_655 S
C73 H76 0.950 . S
C74 C73 1.386 1_455 S
C74 C77 1.389 1_565 S
H75 C71 0.950 . S
H76 C73 0.950 . S
C77 C68 1.390 . S
C77 H70 0.950 . S
C77 C74 1.389 1_545 S
C39 C18 0.637 . S
C44 C14 0.637 . S
C49 C8 2.036 . S
C54 C29 2.036 . S
C59 C27 1.853 . S
C64 C6 1.853 . S
C69 C1 1.489 1_545 S
C74 C30 1.491 1_565 S
