# Generated by pormake.
# Topology unh, (4)-cn, num edge types: 1
# Building blocks:
#     Node 0, Type 0, BuildingBlock: QUQFOY_clean_sbu_1, # of connection points: 4
#     Node 1, Type 0, BuildingBlock: QUQFOY_clean_sbu_1, # of connection points: 4
#     Node 2, Type 0, BuildingBlock: QUQFOY_clean_sbu_1, # of connection points: 4
#     Node 3, Type 0, BuildingBlock: QUQFOY_clean_sbu_1, # of connection points: 4
#     Node 4, Type 0, BuildingBlock: QUQFOY_clean_sbu_1, # of connection points: 4
#     Node 5, Type 0, BuildingBlock: QUQFOY_clean_sbu_1, # of connection points: 4
#     Edge 6, Type (0, 0), BuildingBlock: OJICUG_clean_linker_0, # of connection points: 2
#     Edge 7, Type (0, 0), BuildingBlock: OJICUG_clean_linker_0, # of connection points: 2
#     Edge 8, Type (0, 0), BuildingBlock: OJICUG_clean_linker_0, # of connection points: 2
#     Edge 9, Type (0, 0), BuildingBlock: OJICUG_clean_linker_0, # of connection points: 2
#     Edge 10, Type (0, 0), BuildingBlock: OJICUG_clean_linker_0, # of connection points: 2
#     Edge 11, Type (0, 0), BuildingBlock: OJICUG_clean_linker_0, # of connection points: 2
#     Edge 12, Type (0, 0), BuildingBlock: OJICUG_clean_linker_0, # of connection points: 2
#     Edge 13, Type (0, 0), BuildingBlock: OJICUG_clean_linker_0, # of connection points: 2
#     Edge 14, Type (0, 0), BuildingBlock: OJICUG_clean_linker_0, # of connection points: 2
#     Edge 15, Type (0, 0), BuildingBlock: OJICUG_clean_linker_0, # of connection points: 2
#     Edge 16, Type (0, 0), BuildingBlock: OJICUG_clean_linker_0, # of connection points: 2
#     Edge 17, Type (0, 0), BuildingBlock: OJICUG_clean_linker_0, # of connection points: 2
# Relax obj value: 0.055
# Max RMSD: 0.146
# Mean RMSD: 0.146
data_MOF--net-unh--node1-QUQFOY_clean_sbu_1--edge1-OJICUG_clean_linker_0
_symmetry_space_group_name_H-M    P1
_symmetry_Int_Tables_number       1
_symmetry_cell_setting            triclinic
loop_
_symmetry_equiv_pos_as_xyz
'x, y, z'
_cell_length_a     32.109124
_cell_length_b     32.268539
_cell_length_c     16.746544
_cell_angle_alpha  89.991045
_cell_angle_beta   90.02645
_cell_angle_gamma 120.08473
loop_
_atom_site_label
_atom_site_type_symbol
_atom_site_fract_x
_atom_site_fract_y
_atom_site_fract_z
_atom_type_partial_charge
O0 O 0.06519 0.55915 1.00174 0.0
Cd1 Cd 0.10773 0.60941 0.08433 0.0
Cd2 Cd 0.165 0.57032 0.06259 0.0
O3 O 0.10648 0.52139 0.9944 0.0
O4 O 0.06519 0.61648 0.16329 0.0
O5 O 0.10987 0.58354 0.19081 0.0
C6 C 0.07753 0.59384 0.21299 0.0
C7 C 0.20963 0.54615 0.14107 0.0
C8 C 0.07008 0.52502 0.97481 0.0
C9 C 0.20225 0.67507 0.01499 0.0
O10 O 0.20786 0.6388 0.01788 0.0
O11 O 0.16397 0.67274 0.04108 0.0
O12 O 0.21174 0.54665 0.06425 0.0
O13 O 0.17953 0.55635 0.17395 0.0
O14 O 0.52109 0.05875 0.16799 0.0
Cd15 Cd 0.51408 0.1035 0.24641 0.0
Cd16 Cd 0.61201 0.15778 0.22403 0.0
O17 O 0.60042 0.09779 0.15916 0.0
O18 O 0.46024 0.0632 0.32171 0.0
O19 O 0.53713 0.10452 0.35652 0.0
C20 C 0.49312 0.07428 0.37542 0.0
C21 C 0.67386 0.19511 0.31842 0.0
C22 C 0.55963 0.06198 0.14122 0.0
C23 C 0.54849 0.19794 0.1695 0.0
O24 O 0.59012 0.20233 0.1733 0.0
O25 O 0.51181 0.16118 0.19783 0.0
O26 O 0.68323 0.19846 0.24303 0.0
O27 O 0.62968 0.16874 0.34036 0.0
O28 O 0.46547 0.51828 0.34068 0.0
Cd29 Cd 0.41844 0.51903 0.42426 0.0
Cd30 Cd 0.46407 0.61104 0.38078 0.0
O31 O 0.51458 0.59632 0.33282 0.0
O32 O 0.40308 0.46574 0.50209 0.0
O33 O 0.44645 0.54268 0.53219 0.0
C34 C 0.42932 0.49862 0.55316 0.0
C35 C 0.47978 0.67101 0.47389 0.0
C36 C 0.50433 0.55387 0.31526 0.0
C37 C 0.36141 0.55011 0.32949 0.0
O38 O 0.40197 0.58699 0.31505 0.0
O39 O 0.3577 0.51949 0.38123 0.0
O40 O 0.4931 0.68172 0.40042 0.0
O41 O 0.45968 0.62667 0.49484 0.0
O42 O 0.95872 0.45429 0.50167 0.0
Cd43 Cd 0.91619 0.40405 0.58425 0.0
Cd44 Cd 0.85892 0.44315 0.56245 0.0
O45 O 0.91744 0.49206 0.49427 0.0
O46 O 0.95873 0.39696 0.66327 0.0
O47 O 0.91407 0.42991 0.6907 0.0
C48 C 0.94639 0.4196 0.71294 0.0
C49 C 0.81438 0.46734 0.64105 0.0
C50 C 0.95383 0.48842 0.47471 0.0
C51 C 0.82162 0.33838 0.51491 0.0
O52 O 0.81602 0.37465 0.51777 0.0
O53 O 0.85992 0.34072 0.54101 0.0
O54 O 0.81221 0.46686 0.56422 0.0
O55 O 0.84449 0.45711 0.67385 0.0
O56 O 0.50281 0.95427 0.66804 0.0
Cd57 Cd 0.50982 0.90951 0.7465 0.0
Cd58 Cd 0.41188 0.85521 0.72394 0.0
O59 O 0.42349 0.91517 0.65895 0.0
O60 O 0.56366 0.94982 0.82187 0.0
O61 O 0.48677 0.90849 0.85658 0.0
C62 C 0.53078 0.93873 0.87554 0.0
C63 C 0.35002 0.818 0.81826 0.0
C64 C 0.46427 0.95101 0.64112 0.0
C65 C 0.47543 0.81506 0.66965 0.0
O66 O 0.43379 0.81064 0.67341 0.0
O67 O 0.51211 0.85185 0.69796 0.0
O68 O 0.34065 0.81456 0.74286 0.0
O69 O 0.3942 0.84438 0.84026 0.0
O70 O 0.55844 0.49479 0.84079 0.0
Cd71 Cd 0.60551 0.49407 0.9244 0.0
Cd72 Cd 0.56 0.4021 0.88069 0.0
O73 O 0.50944 0.41674 0.83268 0.0
O74 O 0.62082 0.54733 1.00225 0.0
O75 O 0.57753 0.47039 0.03232 0.0
C76 C 0.59462 0.51444 0.05329 0.0
C77 C 0.5443 0.34209 0.97371 0.0
C78 C 0.51962 0.45919 0.81523 0.0
C79 C 0.66266 0.46318 0.82961 0.0
O80 O 0.62213 0.42627 0.81508 0.0
O81 O 0.66631 0.49375 0.8814 0.0
O82 O 0.53104 0.33142 0.90019 0.0
O83 O 0.56436 0.38642 0.99475 0.0
C84 C 0.04394 0.46075 0.87021 0.0
C85 C 0.03449 0.49156 0.91619 0.0
H86 H 0.02303 0.41318 0.76997 0.0
C87 C 0.99213 0.49303 0.90126 0.0
H88 H 0.07608 0.45856 0.88048 0.0
C89 C 0.96167 0.46692 0.8384 0.0
C90 C 0.97289 0.43879 0.78879 0.0
H91 H 0.98334 0.51585 0.93622 0.0
H92 H 0.93058 0.47069 0.82642 0.0
C93 C 0.01344 0.43466 0.80698 0.0
C94 C 0.58731 1.0048 0.967 0.0
C95 C 0.5418 0.96449 0.95269 0.0
H96 H 0.62897 0.06741 0.03866 0.0
C97 C 0.50466 0.953 0.00792 0.0
H98 H 0.61672 0.01453 0.92564 0.0
C99 C 0.5116 0.9833 0.07219 0.0
C100 C 0.55589 0.02572 0.08295 0.0
H101 H 0.46929 0.92197 0.99917 0.0
H102 H 0.48142 0.97455 0.1113 0.0
C103 C 0.59434 0.03515 0.03173 0.0
C104 C 0.56934 0.58312 0.211 0.0
C105 C 0.53461 0.54551 0.25801 0.0
H106 H 0.61602 0.60289 0.1093 0.0
C107 C 0.52532 0.4987 0.24374 0.0
H108 H 0.57749 0.61962 0.22058 0.0
C109 C 0.54754 0.48918 0.18037 0.0
C110 C 0.57942 0.5262 0.12949 0.0
H111 H 0.49921 0.46895 0.27936 0.0
H112 H 0.53774 0.45235 0.16889 0.0
C113 C 0.59146 0.57353 0.14718 0.0
C114 C 0.03176 0.52038 0.40124 0.0
C115 C 0.98942 0.52187 0.41612 0.0
H116 H 0.09331 0.5427 0.32648 0.0
C117 C 0.97998 0.55269 0.37013 0.0
H118 H 0.04054 0.49754 0.43622 0.0
C119 C 1.01049 0.57879 0.30694 0.0
C120 C 0.05103 0.57464 0.2888 0.0
H121 H 0.94785 0.55491 0.38035 0.0
H122 H 1.00091 0.60028 0.26992 0.0
C123 C 0.06223 0.54649 0.33843 0.0
C124 C 0.4366 0.00818 0.46678 0.0
C125 C 0.48211 0.0485 0.45255 0.0
H126 H 0.39495 0.94556 0.53839 0.0
C127 C 0.51924 0.05999 0.50785 0.0
H128 H 0.40719 0.99845 0.42537 0.0
C129 C 0.5123 0.02969 0.57212 0.0
C130 C 0.46802 0.98726 0.58281 0.0
H131 H 0.55461 0.09102 0.49915 0.0
H132 H 0.54248 0.03844 0.61128 0.0
C133 C 0.42957 0.97783 0.53152 0.0
C134 C 0.49855 0.51432 0.74376 0.0
C135 C 0.48932 0.46753 0.75796 0.0
H136 H 0.48609 0.56067 0.66894 0.0
C137 C 0.45463 0.42993 0.71084 0.0
H138 H 0.52462 0.54407 0.77946 0.0
C139 C 0.43251 0.43952 0.647 0.0
C140 C 0.44449 0.48684 0.62937 0.0
H141 H 0.44653 0.39343 0.72037 0.0
H142 H 0.40799 0.41017 0.60904 0.0
C143 C 0.47633 0.52385 0.68036 0.0
C144 C 0.28791 0.54825 0.15309 0.0
C145 C 0.2449 0.54001 0.18909 0.0
H146 H 0.35853 0.55854 0.1701 0.0
C147 C 0.23872 0.53083 0.27171 0.0
H148 H 0.29399 0.55568 0.08976 0.0
C149 C 0.27562 0.53135 0.31762 0.0
C150 C 0.31954 0.54245 0.28176 0.0
H151 H 0.20597 0.52443 0.30104 0.0
H152 H 0.27076 0.52549 0.38146 0.0
C153 C 0.32502 0.55013 0.19908 0.0
C154 C 0.69958 0.24223 0.44476 0.0
C155 C 0.71166 0.22497 0.37678 0.0
H156 H 0.72551 0.29256 0.54152 0.0
C157 C 0.7604 0.24096 0.36091 0.0
H158 H 0.66235 0.23079 0.45814 0.0
C159 C 0.79649 0.27519 0.41033 0.0
C160 C 0.78433 0.29493 0.47472 0.0
H161 H 0.77064 0.22822 0.30883 0.0
H162 H 0.83388 0.28858 0.39501 0.0
C163 C 0.73563 0.27754 0.49244 0.0
C164 C 0.51765 0.79098 0.57059 0.0
C165 C 0.48092 0.77804 0.62728 0.0
H166 H 0.5456 0.76703 0.47585 0.0
C167 C 0.44647 0.72951 0.63742 0.0
H168 H 0.54436 0.82829 0.5613 0.0
C169 C 0.44799 0.69453 0.59043 0.0
C170 C 0.48301 0.7076 0.53052 0.0
H171 H 0.41777 0.71874 0.68068 0.0
H172 H 0.42023 0.65746 0.59831 0.0
C173 C 0.51822 0.75607 0.5216 0.0
C174 C 0.74842 0.48185 0.8178 0.0
C175 C 0.70454 0.47096 0.7819 0.0
H176 H 0.818 0.48864 0.80119 0.0
C177 C 0.69912 0.46355 0.69914 0.0
H178 H 0.75323 0.48749 0.88169 0.0
C179 C 0.73622 0.46548 0.65312 0.0
C180 C 0.77916 0.47349 0.68915 0.0
H181 H 0.66565 0.4553 0.67014 0.0
H182 H 0.73017 0.45825 0.58973 0.0
C183 C 0.7853 0.48242 0.77184 0.0
C184 C 0.26345 0.77214 0.86051 0.0
C185 C 0.31219 0.78826 0.87664 0.0
H186 H 0.18997 0.72451 0.89446 0.0
C187 C 0.32427 0.77123 0.94496 0.0
H188 H 0.25322 0.78471 0.80818 0.0
C189 C 0.28821 0.73601 0.99272 0.0
C190 C 0.23951 0.71849 0.97474 0.0
H191 H 0.36151 0.78276 0.95856 0.0
H192 H 0.29834 0.72115 0.04206 0.0
C193 C 0.22735 0.73801 0.90999 0.0
C194 C 0.50583 0.257 0.02126 0.0
C195 C 0.54103 0.30547 0.03032 0.0
H196 H 0.47965 0.18476 0.06087 0.0
C197 C 0.576 0.31851 0.09036 0.0
H198 H 0.47849 0.24606 0.97541 0.0
C199 C 0.57748 0.2835 0.13736 0.0
C200 C 0.54303 0.23498 0.1271 0.0
H201 H 0.60375 0.35557 0.09834 0.0
H202 H 0.60614 0.29425 0.18074 0.0
C203 C 0.50635 0.22206 0.07027 0.0
loop_
_geom_bond_atom_site_label_1
_geom_bond_atom_site_label_2
_geom_bond_distance
_geom_bond_site_symmetry_2
_ccdc_geom_bond_type
O0 Cd1 2.223 1_556 S
O0 C8 1.315 . S
Cd1 O0 2.223 1_554 S
Cd1 O4 2.297 . S
Cd1 O5 2.439 . S
Cd1 O11 2.240 . S
Cd2 O3 2.240 . S
Cd2 O10 2.223 1_554 S
Cd2 O12 2.297 . S
Cd2 O13 2.439 . S
O3 Cd2 2.240 . S
O3 C8 1.279 1_554 S
O4 Cd1 2.297 . S
O4 C6 1.247 . S
O5 Cd1 2.439 . S
O5 C6 1.208 . S
C6 O4 1.247 . S
C6 O5 1.208 . S
C7 O12 1.247 . S
C7 O13 1.208 . S
C8 O0 1.315 . S
C8 O3 1.279 1_556 S
C9 O10 1.315 . S
C9 O11 1.279 1_556 S
O10 Cd2 2.223 1_556 S
O10 C9 1.315 . S
O11 Cd1 2.240 . S
O11 C9 1.279 1_554 S
O12 Cd2 2.297 . S
O12 C7 1.247 . S
O13 Cd2 2.439 . S
O13 C7 1.208 . S
O14 Cd15 2.223 . S
O14 C22 1.315 . S
Cd15 O14 2.223 . S
Cd15 O18 2.297 . S
Cd15 O19 2.439 . S
Cd15 O25 2.240 . S
Cd16 O17 2.240 . S
Cd16 O24 2.223 . S
Cd16 O26 2.297 . S
Cd16 O27 2.439 . S
O17 Cd16 2.240 . S
O17 C22 1.279 . S
O18 Cd15 2.297 . S
O18 C20 1.247 . S
O19 Cd15 2.439 . S
O19 C20 1.208 . S
C20 O18 1.247 . S
C20 O19 1.208 . S
C21 O26 1.247 . S
C21 O27 1.208 . S
C22 O14 1.315 . S
C22 O17 1.279 . S
C23 O24 1.315 . S
C23 O25 1.279 . S
O24 Cd16 2.223 . S
O24 C23 1.315 . S
O25 Cd15 2.240 . S
O25 C23 1.279 . S
O26 Cd16 2.297 . S
O26 C21 1.247 . S
O27 Cd16 2.439 . S
O27 C21 1.208 . S
O28 Cd29 2.223 . S
O28 C36 1.315 . S
Cd29 O28 2.223 . S
Cd29 O32 2.297 . S
Cd29 O33 2.439 . S
Cd29 O39 2.240 . S
Cd30 O31 2.240 . S
Cd30 O38 2.223 . S
Cd30 O40 2.297 . S
Cd30 O41 2.439 . S
O31 Cd30 2.240 . S
O31 C36 1.279 . S
O32 Cd29 2.297 . S
O32 C34 1.247 . S
O33 Cd29 2.439 . S
O33 C34 1.208 . S
C34 O32 1.247 . S
C34 O33 1.208 . S
C35 O40 1.247 . S
C35 O41 1.208 . S
C36 O28 1.315 . S
C36 O31 1.279 . S
C37 O38 1.315 . S
C37 O39 1.279 . S
O38 Cd30 2.223 . S
O38 C37 1.315 . S
O39 Cd29 2.240 . S
O39 C37 1.279 . S
O40 Cd30 2.297 . S
O40 C35 1.247 . S
O41 Cd30 2.439 . S
O41 C35 1.208 . S
O42 Cd43 2.223 . S
O42 C50 1.315 . S
Cd43 O42 2.223 . S
Cd43 O46 2.297 . S
Cd43 O47 2.439 . S
Cd43 O53 2.240 . S
Cd44 O45 2.240 . S
Cd44 O52 2.223 . S
Cd44 O54 2.297 . S
Cd44 O55 2.439 . S
O45 Cd44 2.240 . S
O45 C50 1.279 . S
O46 Cd43 2.297 . S
O46 C48 1.247 . S
O47 Cd43 2.439 . S
O47 C48 1.208 . S
C48 O46 1.247 . S
C48 O47 1.208 . S
C49 O54 1.247 . S
C49 O55 1.208 . S
C50 O42 1.315 . S
C50 O45 1.279 . S
C51 O52 1.315 . S
C51 O53 1.279 . S
O52 Cd44 2.223 . S
O52 C51 1.315 . S
O53 Cd43 2.240 . S
O53 C51 1.279 . S
O54 Cd44 2.297 . S
O54 C49 1.247 . S
O55 Cd44 2.439 . S
O55 C49 1.208 . S
O56 Cd57 2.223 . S
O56 C64 1.315 . S
Cd57 O56 2.223 . S
Cd57 O60 2.297 . S
Cd57 O61 2.439 . S
Cd57 O67 2.240 . S
Cd58 O59 2.240 . S
Cd58 O66 2.223 . S
Cd58 O68 2.297 . S
Cd58 O69 2.439 . S
O59 Cd58 2.240 . S
O59 C64 1.279 . S
O60 Cd57 2.297 . S
O60 C62 1.247 . S
O61 Cd57 2.439 . S
O61 C62 1.208 . S
C62 O60 1.247 . S
C62 O61 1.208 . S
C63 O68 1.247 . S
C63 O69 1.208 . S
C64 O56 1.315 . S
C64 O59 1.279 . S
C65 O66 1.315 . S
C65 O67 1.279 . S
O66 Cd58 2.223 . S
O66 C65 1.315 . S
O67 Cd57 2.240 . S
O67 C65 1.279 . S
O68 Cd58 2.297 . S
O68 C63 1.247 . S
O69 Cd58 2.439 . S
O69 C63 1.208 . S
O70 Cd71 2.223 . S
O70 C78 1.315 . S
Cd71 O70 2.223 . S
Cd71 O74 2.297 1_556 S
Cd71 O75 2.439 1_556 S
Cd71 O81 2.240 . S
Cd72 O73 2.240 . S
Cd72 O80 2.223 . S
Cd72 O82 2.297 . S
Cd72 O83 2.432 1_556 S
O73 Cd72 2.240 . S
O73 C78 1.279 . S
O74 Cd71 2.297 1_554 S
O74 C76 1.247 . S
O75 Cd71 2.439 1_554 S
O75 C76 1.208 . S
C76 O74 1.247 . S
C76 O75 1.208 . S
C77 O82 1.247 . S
C77 O83 1.206 1_556 S
C78 O70 1.315 . S
C78 O73 1.279 . S
C79 O80 1.315 . S
C79 O81 1.279 . S
O80 Cd72 2.223 . S
O80 C79 1.315 . S
O81 Cd71 2.240 . S
O81 C79 1.279 . S
O82 Cd72 2.297 . S
O82 C77 1.247 . S
O83 Cd72 2.432 1_554 S
O83 C77 1.206 1_554 S
C84 C85 1.387 . S
C84 H88 0.950 . S
C84 C93 1.390 1_455 S
C85 C84 1.387 . S
C85 C87 1.387 . S
H86 C93 0.950 . S
C87 C85 1.387 . S
C87 C89 1.390 . S
C87 H91 0.950 . S
H88 C84 0.950 . S
C89 C87 1.390 . S
C89 C90 1.387 1_455 S
C89 H92 0.950 . S
C90 C89 1.387 1_655 S
C90 C93 1.387 . S
H91 C87 0.950 . S
H92 C89 0.950 . S
C93 C84 1.390 1_655 S
C93 H86 0.950 . S
C93 C90 1.387 . S
C94 C95 1.387 1_545 S
C94 H98 0.950 . S
C94 C103 1.390 . S
C95 C94 1.387 1_565 S
C95 C97 1.387 1_556 S
H96 C103 0.950 . S
C97 C95 1.387 1_554 S
C97 C99 1.390 1_565 S
C97 H101 0.950 . S
H98 C94 0.950 . S
C99 C97 1.390 1_545 S
C99 C100 1.387 . S
C99 H102 0.950 1_545 S
C100 C99 1.387 . S
C100 C103 1.387 1_554 S
H101 C97 0.950 . S
H102 C99 0.950 1_565 S
C103 C94 1.390 . S
C103 H96 0.950 . S
C103 C100 1.387 1_556 S
C104 C105 1.387 . S
C104 H108 0.950 . S
C104 C113 1.390 . S
C105 C104 1.387 . S
C105 C107 1.387 . S
H106 C113 0.950 . S
C107 C105 1.387 . S
C107 C109 1.390 . S
C107 H111 0.950 . S
H108 C104 0.950 . S
C109 C107 1.390 . S
C109 C110 1.387 . S
C109 H112 0.950 . S
C110 C109 1.387 . S
C110 C113 1.387 . S
H111 C107 0.950 . S
H112 C109 0.950 . S
C113 C104 1.390 . S
C113 H106 0.950 . S
C113 C110 1.387 . S
C114 C115 1.387 . S
C114 H118 0.950 . S
C114 C123 1.390 . S
C115 C114 1.387 . S
C115 C117 1.387 . S
H116 C123 0.950 . S
C117 C115 1.387 . S
C117 C119 1.390 1_655 S
C117 H121 0.950 . S
H118 C114 0.950 . S
C119 C117 1.390 1_455 S
C119 C120 1.387 . S
C119 H122 0.950 . S
C120 C119 1.387 . S
C120 C123 1.387 1_455 S
H121 C117 0.950 . S
H122 C119 0.950 . S
C123 C114 1.390 . S
C123 H116 0.950 . S
C123 C120 1.387 1_655 S
C124 C125 1.387 1_565 S
C124 H128 0.950 . S
C124 C133 1.390 . S
C125 C124 1.387 1_545 S
C125 C127 1.387 . S
H126 C133 0.950 . S
C127 C125 1.387 . S
C127 C129 1.390 1_545 S
C127 H131 0.950 . S
H128 C124 0.950 . S
C129 C127 1.390 1_565 S
C129 C130 1.387 . S
C129 H132 0.950 1_565 S
C130 C129 1.387 . S
C130 C133 1.387 . S
H131 C127 0.950 . S
H132 C129 0.950 1_545 S
C133 C124 1.390 . S
C133 H126 0.950 . S
C133 C130 1.387 . S
C134 C135 1.387 . S
C134 H138 0.950 . S
C134 C143 1.390 . S
C135 C134 1.387 . S
C135 C137 1.387 . S
H136 C143 0.950 . S
C137 C135 1.387 . S
C137 C139 1.390 . S
C137 H141 0.950 . S
H138 C134 0.950 . S
C139 C137 1.390 . S
C139 C140 1.387 . S
C139 H142 0.950 . S
C140 C139 1.387 . S
C140 C143 1.387 . S
H141 C137 0.950 . S
H142 C139 0.950 . S
C143 C134 1.390 . S
C143 H136 0.950 . S
C143 C140 1.387 . S
C144 C145 1.387 . S
C144 H148 0.950 . S
C144 C153 1.390 . S
C145 C144 1.387 . S
C145 C147 1.387 . S
H146 C153 0.950 . S
C147 C145 1.387 . S
C147 C149 1.390 . S
C147 H151 0.950 . S
H148 C144 0.950 . S
C149 C147 1.390 . S
C149 C150 1.387 . S
C149 H152 0.950 . S
C150 C149 1.387 . S
C150 C153 1.387 . S
H151 C147 0.950 . S
H152 C149 0.950 . S
C153 C144 1.390 . S
C153 H146 0.950 . S
C153 C150 1.387 . S
C154 C155 1.387 . S
C154 H158 0.950 . S
C154 C163 1.390 . S
C155 C154 1.387 . S
C155 C157 1.387 . S
H156 C163 0.950 . S
C157 C155 1.387 . S
C157 C159 1.390 . S
C157 H161 0.950 . S
H158 C154 0.950 . S
C159 C157 1.390 . S
C159 C160 1.387 . S
C159 H162 0.950 . S
C160 C159 1.387 . S
C160 C163 1.387 . S
H161 C157 0.950 . S
H162 C159 0.950 . S
C163 C154 1.390 . S
C163 H156 0.950 . S
C163 C160 1.387 . S
C164 C165 1.387 . S
C164 H168 0.950 . S
C164 C173 1.390 . S
C165 C164 1.387 . S
C165 C167 1.387 . S
H166 C173 0.950 . S
C167 C165 1.387 . S
C167 C169 1.390 . S
C167 H171 0.950 . S
H168 C164 0.950 . S
C169 C167 1.390 . S
C169 C170 1.387 . S
C169 H172 0.950 . S
C170 C169 1.387 . S
C170 C173 1.387 . S
H171 C167 0.950 . S
H172 C169 0.950 . S
C173 C164 1.390 . S
C173 H166 0.950 . S
C173 C170 1.387 . S
C174 C175 1.387 . S
C174 H178 0.950 . S
C174 C183 1.390 . S
C175 C174 1.387 . S
C175 C177 1.387 . S
H176 C183 0.950 . S
C177 C175 1.387 . S
C177 C179 1.390 . S
C177 H181 0.950 . S
H178 C174 0.950 . S
C179 C177 1.390 . S
C179 C180 1.387 . S
C179 H182 0.950 . S
C180 C179 1.387 . S
C180 C183 1.387 . S
H181 C177 0.950 . S
H182 C179 0.950 . S
C183 C174 1.390 . S
C183 H176 0.950 . S
C183 C180 1.387 . S
C184 C185 1.387 . S
C184 H188 0.950 . S
C184 C193 1.390 . S
C185 C184 1.387 . S
C185 C187 1.387 . S
H186 C193 0.950 . S
C187 C185 1.387 . S
C187 C189 1.390 . S
C187 H191 0.950 . S
H188 C184 0.950 . S
C189 C187 1.390 . S
C189 C190 1.387 . S
C189 H192 0.950 . S
C190 C189 1.387 . S
C190 C193 1.387 . S
H191 C187 0.950 . S
H192 C189 0.950 . S
C193 C184 1.390 . S
C193 H186 0.950 . S
C193 C190 1.387 . S
C194 C195 1.387 . S
C194 H198 0.950 1_554 S
C194 C203 1.390 . S
C195 C194 1.387 . S
C195 C197 1.387 . S
H196 C203 0.950 . S
C197 C195 1.387 . S
C197 C199 1.390 . S
C197 H201 0.950 . S
H198 C194 0.950 1_556 S
C199 C197 1.390 . S
C199 C200 1.387 . S
C199 H202 0.950 . S
C200 C199 1.387 . S
C200 C203 1.387 . S
H201 C197 0.950 . S
H202 C199 0.950 . S
C203 C194 1.390 . S
C203 H196 0.950 . S
C203 C200 1.387 . S
C85 C8 1.446 . S
C90 C48 1.488 . S
C95 C62 1.486 . S
C100 C22 1.443 . S
C105 C36 1.445 . S
C110 C76 1.487 . S
C115 C50 1.443 . S
C120 C6 1.487 . S
C125 C20 1.486 . S
C130 C64 1.443 . S
C135 C78 1.445 . S
C140 C34 1.488 . S
C145 C7 1.456 . S
C150 C37 1.470 . S
C155 C21 1.456 . S
C160 C51 1.471 . S
C165 C65 1.470 . S
C170 C35 1.457 . S
C175 C79 1.471 . S
C180 C49 1.455 . S
C185 C63 1.457 . S
C190 C9 1.470 . S
C195 C77 1.457 1_554 S
C200 C23 1.470 . S
