# Generated by pormake.
# Topology hex, (8)-cn, num edge types: 1
# Building blocks:
#     Node 0, Type 0, BuildingBlock: AJUNOK_clean_sbu_0, # of connection points: 8
#     Edge 1, Type (0, 0), BuildingBlock: FUNLAD_clean_linker_0, # of connection points: 2
#     Edge 2, Type (0, 0), BuildingBlock: FUNLAD_clean_linker_0, # of connection points: 2
#     Edge 3, Type (0, 0), BuildingBlock: FUNLAD_clean_linker_0, # of connection points: 2
#     Edge 4, Type (0, 0), BuildingBlock: FUNLAD_clean_linker_0, # of connection points: 2
# Relax obj value: 0.046
# Max RMSD: 0.092
# Mean RMSD: 0.092
data_MOF--net-hex--node1-AJUNOK_clean_sbu_0--edge1-FUNLAD_clean_linker_0
_symmetry_space_group_name_H-M    P1
_symmetry_Int_Tables_number       1
_symmetry_cell_setting            triclinic
loop_
_symmetry_equiv_pos_as_xyz
'x, y, z'
_cell_length_a     23.724056
_cell_length_b     23.588808
_cell_length_c     17.767854
_cell_angle_alpha  91.121829
_cell_angle_beta   91.147378
_cell_angle_gamma 127.00579
loop_
_atom_site_label
_atom_site_type_symbol
_atom_site_fract_x
_atom_site_fract_y
_atom_site_fract_z
_atom_type_partial_charge
Cd0 Cd 0.09102 0.0601 0.97252 0.0
Cd1 Cd 0.88471 0.85713 0.97108 0.0
C2 C -0.00461 0.10015 0.041 0.0
N3 N 0.0101 0.08469 0.97355 0.0
C4 C 0.96793 0.14092 0.90845 0.0
C5 C 0.95439 0.16009 0.97751 0.0
C6 C 0.9661 0.1367 0.0442 0.0
C7 C -0.00382 0.10332 0.90782 0.0
H8 H 0.0098 0.08738 0.09257 0.0
H9 H 0.01194 0.09376 0.85529 0.0
C10 C -0.00641 0.94647 0.81572 0.0
C11 C 0.92874 0.75677 0.91951 0.0
C12 C 0.93628 0.70248 0.92296 0.0
C13 C 0.92204 0.66601 -0.01008 0.0
C14 C 0.90124 0.68596 0.05229 0.0
C15 C 0.89388 0.74014 0.04616 0.0
N16 N 0.90764 0.77423 0.98055 0.0
H17 H 0.93837 0.78402 0.86765 0.0
H18 H 0.8756 0.75397 0.09328 0.0
C19 C 0.83746 0.95285 0.92882 0.0
N20 N 0.86077 0.93802 -0.00971 0.0
C21 C 0.81145 -0.02228 0.07241 0.0
C22 C 0.78303 -0.01018 0.00997 0.0
C23 C 0.79865 -0.02076 0.93736 0.0
C24 C 0.84919 0.95044 0.06125 0.0
H25 H 0.8443 0.93897 0.87313 0.0
H26 H 0.86536 0.93513 0.10916 0.0
C27 C 0.00587 0.94699 0.12558 0.0
C28 C 0.19634 0.20819 0.97897 0.0
N29 N 0.17072 0.03286 0.97387 0.0
C30 C 0.20675 0.04444 0.03991 0.0
C31 C 0.26244 0.03935 0.04221 0.0
C32 C 0.2817 0.02284 0.9757 0.0
C33 C 0.24223 0.0093 0.90868 0.0
C34 C 0.18685 0.0149 0.90896 0.0
C35 C 0.73704 0.75605 0.9562 0.0
O36 O 0.04673 0.0022 0.84883 0.0
O37 O 0.94076 0.89907 0.8519 0.0
O38 O 0.94855 0.89682 0.09198 0.0
O39 O 0.05372 0.00117 0.09113 0.0
O40 O 0.17557 0.17265 0.91684 0.0
O41 O 0.17067 0.17387 0.03839 0.0
O42 O 0.76892 0.77847 0.02027 0.0
O43 O 0.77468 0.7768 0.89875 0.0
H44 H 0.19405 0.06044 0.09031 0.0
H45 H 0.15848 0.00732 0.85681 0.0
H46 H 0.96152 0.15885 0.85561 0.0
H47 H 0.95537 0.14878 0.09873 0.0
H48 H 0.95296 0.68913 0.87377 0.0
H49 H 0.88878 0.65857 0.10459 0.0
H50 H 0.80202 -0.01389 0.12946 0.0
H51 H 0.77697 -0.01375 0.88736 0.0
H52 H 0.29198 0.05126 0.09489 0.0
H53 H 0.25475 -0.0043 0.85627 0.0
C54 C 0.96167 0.2612 0.03985 0.0
C55 C 0.9354 0.21003 0.98031 0.0
C56 C 0.94952 0.31224 0.03972 0.0
C57 C 0.91157 0.31432 0.97933 0.0
C58 C 0.88295 0.26166 0.92134 0.0
C59 C 0.89503 0.21046 0.92151 0.0
C60 C 0.90128 0.37059 0.97438 0.0
C61 C 0.94376 0.43461 0.011 0.0
C62 C 0.93577 0.49223 0.00429 0.0
C63 C 0.9634 0.54415 0.06295 0.0
C64 C 0.95884 0.60036 0.05838 0.0
C65 C 0.92736 0.60653 -0.00558 0.0
H66 H 0.88445 0.46091 0.89257 0.0
C67 C 0.90045 0.55512 0.93517 0.0
C68 C 0.90454 0.49854 0.93998 0.0
H69 H 0.87559 0.55825 0.88528 0.0
H70 H -0.00616 0.26369 0.08579 0.0
H71 H 0.97041 0.34991 0.08711 0.0
H72 H 0.85255 0.26114 0.87462 0.0
H73 H 0.87313 0.17162 0.87504 0.0
H74 H 0.85841 0.35925 0.93733 0.0
H75 H -0.01329 0.44625 0.04803 0.0
H76 H -0.01151 0.54113 0.11274 0.0
H77 H 0.98085 0.63957 0.10457 0.0
C78 C 0.72571 0.04663 0.96847 0.0
C79 C 0.73134 0.00558 0.02006 0.0
C80 C 0.67224 0.0549 0.97362 0.0
C81 C 0.62276 0.02188 0.03041 0.0
C82 C 0.63019 -0.01637 0.08387 0.0
C83 C 0.68332 -0.02496 0.0785 0.0
C84 C 0.56216 0.025 0.03527 0.0
C85 C 0.53122 0.03083 0.97451 0.0
C86 C 0.46713 0.02849 0.97731 0.0
C87 C 0.45194 0.05567 0.9172 0.0
C88 C 0.39168 0.05338 0.91643 0.0
C89 C 0.34468 0.02328 0.97563 0.0
H90 H 0.42759 -0.02648 0.08234 0.0
C91 C 0.35929 -0.00478 0.03542 0.0
C92 C 0.4196 -0.00251 0.03621 0.0
H93 H 0.32353 -0.02946 0.08124 0.0
H94 H 0.76196 0.07165 0.9233 0.0
H95 H 0.66988 0.08701 0.93292 0.0
H96 H 0.5931 0.958 0.12848 0.0
H97 H 0.68462 0.94186 0.11861 0.0
H98 H 0.54055 0.0185 0.09037 0.0
H99 H 0.55309 0.03693 0.91956 0.0
H100 H 0.48719 0.0794 0.87081 0.0
H101 H 0.38261 0.07637 0.86995 0.0
C102 C 0.27498 0.32256 0.91531 0.0
C103 C 0.24672 0.28599 0.98182 0.0
C104 C 0.32471 0.39616 0.91806 0.0
C105 C 0.34669 0.43465 0.9876 0.0
C106 C 0.31633 0.39808 0.0537 0.0
C107 C 0.26667 0.3244 0.05091 0.0
C108 C 0.40855 0.51024 -0.00506 0.0
C109 C 0.43653 0.55328 0.93646 0.0
C110 C 0.51176 0.61514 0.93919 0.0
C111 C 0.551 0.6284 0.8751 0.0
C112 C 0.62456 0.67549 0.88 0.0
C113 C 0.65966 0.70996 0.94914 0.0
H114 H 0.51773 0.64727 0.05632 0.0
C115 C 0.62019 0.70088 0.01175 0.0
C116 C 0.54676 0.65432 0.00668 0.0
H117 H 0.64602 0.72879 0.06509 0.0
H118 H 0.26016 0.2942 0.8612 0.0
H119 H 0.34798 0.42152 0.86586 0.0
H120 H 0.33285 0.42635 0.10801 0.0
H121 H 0.24506 0.29752 0.10304 0.0
H122 H 0.43712 0.52758 0.04918 0.0
H123 H 0.4086 0.53663 0.88198 0.0
H124 H 0.52501 0.59912 0.82235 0.0
H125 H 0.65387 0.6828 0.83048 0.0
C126 C 0.05051 -0.01158 0.69162 0.0
C127 C -0.00716 0.93671 0.73327 0.0
C128 C 0.04888 -0.0198 0.61344 0.0
C129 C -0.0104 0.91969 0.57531 0.0
C130 C 0.93224 0.86795 0.61702 0.0
C131 C 0.93387 0.87611 0.69518 0.0
C132 C 0.98345 0.91093 0.49204 0.0
C133 C 0.03933 0.94357 0.44755 0.0
C134 C 0.03171 0.94038 0.3643 0.0
C135 C 0.08542 -0.00194 0.32432 0.0
C136 C 0.07771 -0.00027 0.2465 0.0
C137 C 0.01621 0.94329 0.20706 0.0
H138 H 0.9304 0.83566 0.35282 0.0
C139 C 0.9639 0.88401 0.24663 0.0
C140 C 0.97166 0.88238 0.32441 0.0
H141 H 0.91641 0.83909 0.21778 0.0
H142 H 0.09661 0.03592 0.71921 0.0
H143 H 0.09327 0.02251 0.58337 0.0
H144 H 0.88571 0.82117 0.58898 0.0
H145 H 0.88851 0.83523 0.72554 0.0
H146 H 0.93029 0.87744 0.46689 0.0
H147 H 0.09258 -0.02266 0.47237 0.0
H148 H 0.13257 0.04301 0.35365 0.0
H149 H 0.11939 0.04591 0.21762 0.0
loop_
_geom_bond_atom_site_label_1
_geom_bond_atom_site_label_2
_geom_bond_distance
_geom_bond_site_symmetry_2
_ccdc_geom_bond_type
Cd0 N3 2.334 . S
Cd0 N29 2.304 . S
Cd0 O36 2.268 1_554 S
Cd0 O39 2.273 . S
Cd0 O40 2.417 1_554 S
Cd0 O41 2.330 . S
Cd1 N16 2.304 . S
Cd1 N20 2.334 . S
Cd1 O37 2.273 . S
Cd1 O38 2.268 1_556 S
Cd1 O42 2.417 1_556 S
Cd1 O43 2.330 . S
C2 N3 1.332 . S
C2 C6 1.381 . S
C2 H8 0.931 . S
N3 Cd0 2.334 . S
N3 C2 1.332 . S
N3 C7 1.328 1_554 S
C4 C5 1.396 1_556 S
C4 C7 1.378 1_655 S
C4 H46 0.931 . S
C5 C4 1.396 1_554 S
C5 C6 1.382 1_655 S
C6 C2 1.381 . S
C6 C5 1.382 1_455 S
C6 H47 0.930 . S
C7 N3 1.328 1_556 S
C7 C4 1.378 1_455 S
C7 H9 0.930 . S
H8 C2 0.931 . S
H9 C7 0.930 . S
C10 O36 1.238 1_665 S
C10 O37 1.253 . S
C11 C12 1.379 . S
C11 N16 1.337 . S
C11 H17 0.929 . S
C12 C11 1.379 . S
C12 C13 1.380 1_655 S
C12 H48 0.929 . S
C13 C12 1.380 1_455 S
C13 C14 1.399 1_556 S
C14 C13 1.399 1_554 S
C14 C15 1.376 1_455 S
C14 H49 0.931 . S
C15 C14 1.376 1_655 S
C15 N16 1.338 1_554 S
C15 H18 0.930 . S
N16 Cd1 2.304 . S
N16 C11 1.337 . S
N16 C15 1.338 1_556 S
H17 C11 0.929 . S
H18 C15 0.930 . S
C19 N20 1.332 . S
C19 C23 1.381 . S
C19 H25 0.931 . S
N20 Cd1 2.334 . S
N20 C19 1.332 . S
N20 C24 1.328 1_556 S
C21 C22 1.396 1_554 S
C21 C24 1.378 1_545 S
C21 H50 0.931 . S
C22 C21 1.396 1_556 S
C22 C23 1.382 1_545 S
C23 C19 1.381 . S
C23 C22 1.382 1_565 S
C23 H51 0.930 . S
C24 N20 1.328 1_554 S
C24 C21 1.378 1_565 S
C24 H26 0.930 . S
H25 C19 0.931 . S
H26 C24 0.930 . S
C27 O38 1.238 1_445 S
C27 O39 1.253 . S
C28 O40 1.239 . S
C28 O41 1.230 1_556 S
N29 Cd0 2.304 . S
N29 C30 1.337 . S
N29 C34 1.338 1_554 S
C30 N29 1.337 . S
C30 C31 1.379 . S
C30 H44 0.929 . S
C31 C30 1.379 . S
C31 C32 1.380 1_545 S
C31 H52 0.929 . S
C32 C31 1.380 1_565 S
C32 C33 1.399 1_554 S
C33 C32 1.399 1_556 S
C33 C34 1.376 1_565 S
C33 H53 0.931 . S
C34 N29 1.338 1_556 S
C34 C33 1.376 1_545 S
C34 H45 0.930 . S
C35 O42 1.239 . S
C35 O43 1.230 1_554 S
O36 Cd0 2.268 1_556 S
O36 C10 1.238 1_445 S
O37 Cd1 2.273 . S
O37 C10 1.253 . S
O38 Cd1 2.268 1_554 S
O38 C27 1.238 1_665 S
O39 Cd0 2.273 . S
O39 C27 1.253 . S
O40 Cd0 2.417 1_556 S
O40 C28 1.239 . S
O41 Cd0 2.330 . S
O41 C28 1.230 1_554 S
O42 Cd1 2.417 1_554 S
O42 C35 1.239 . S
O43 Cd1 2.330 . S
O43 C35 1.230 1_556 S
H44 C30 0.929 . S
H45 C34 0.930 . S
H46 C4 0.931 . S
H47 C6 0.930 . S
H48 C12 0.929 . S
H49 C14 0.931 . S
H50 C21 0.931 . S
H51 C23 0.930 . S
H52 C31 0.929 . S
H53 C33 0.931 . S
C54 C55 1.386 1_455 S
C54 C56 1.383 . S
C54 H70 0.951 . S
C55 C54 1.386 1_655 S
C55 C59 1.383 1_554 S
C56 C54 1.383 . S
C56 C57 1.402 1_454 S
C56 H71 0.951 . S
C57 C56 1.402 1_656 S
C57 C58 1.375 . S
C57 C60 1.481 . S
C58 C57 1.375 . S
C58 C59 1.367 . S
C58 H72 0.951 . S
C59 C55 1.383 1_556 S
C59 C58 1.367 . S
C59 H73 0.950 . S
C60 C57 1.481 . S
C60 C61 1.297 1_655 S
C60 H74 0.950 . S
C61 C60 1.297 1_455 S
C61 C62 1.479 . S
C61 H75 0.950 . S
C62 C61 1.479 . S
C62 C63 1.375 . S
C62 C68 1.404 1_455 S
C63 C62 1.375 . S
C63 C64 1.369 . S
C63 H76 0.950 . S
C64 C63 1.369 . S
C64 C65 1.392 . S
C64 H77 0.951 1_556 S
C65 C64 1.392 . S
C65 C67 1.384 1_455 S
H66 C68 0.949 . S
C67 C65 1.384 1_655 S
C67 C68 1.385 . S
C67 H69 0.950 . S
C68 C62 1.404 1_655 S
C68 H66 0.949 . S
C68 C67 1.385 . S
H69 C67 0.950 . S
H70 C54 0.951 . S
H71 C56 0.951 . S
H72 C58 0.951 . S
H73 C59 0.950 . S
H74 C60 0.950 . S
H75 C61 0.950 . S
H76 C63 0.950 . S
H77 C64 0.951 1_554 S
C78 C79 1.386 . S
C78 C80 1.383 . S
C78 H94 0.951 . S
C79 C78 1.386 . S
C79 C83 1.383 1_546 S
C80 C78 1.383 . S
C80 C81 1.402 1_545 S
C80 H95 0.951 . S
C81 C80 1.402 1_565 S
C81 C82 1.375 1_556 S
C81 C84 1.481 . S
C82 C81 1.375 1_554 S
C82 C83 1.367 . S
C82 H96 0.951 . S
C83 C79 1.383 1_564 S
C83 C82 1.367 . S
C83 H97 0.950 . S
C84 C81 1.481 . S
C84 C85 1.297 . S
C84 H98 0.950 1_556 S
C85 C84 1.297 . S
C85 C86 1.479 . S
C85 H99 0.950 1_565 S
C86 C85 1.479 . S
C86 C87 1.375 1_565 S
C86 C92 1.404 1_556 S
C87 C86 1.375 1_545 S
C87 C88 1.369 . S
C87 H100 0.950 . S
C88 C87 1.369 . S
C88 C89 1.390 1_546 S
C88 H101 0.951 . S
C89 C88 1.390 1_564 S
C89 C91 1.385 . S
H90 C92 0.949 . S
C91 C89 1.385 . S
C91 C92 1.385 . S
C91 H93 0.950 . S
C92 C86 1.404 1_554 S
C92 H90 0.949 . S
C92 C91 1.385 . S
H93 C91 0.950 . S
H94 C78 0.951 . S
H95 C80 0.951 . S
H96 C82 0.951 . S
H97 C83 0.950 . S
H98 C84 0.950 1_554 S
H99 C85 0.950 1_545 S
H100 C87 0.950 . S
H101 C88 0.951 . S
C102 C103 1.386 . S
C102 C104 1.383 . S
C102 H118 0.951 . S
C103 C102 1.386 . S
C103 C107 1.383 1_556 S
C104 C102 1.383 . S
C104 C105 1.402 . S
C104 H119 0.951 . S
C105 C104 1.402 . S
C105 C106 1.375 1_556 S
C105 C108 1.481 1_556 S
C106 C105 1.375 1_554 S
C106 C107 1.367 . S
C106 H120 0.951 . S
C107 C103 1.383 1_554 S
C107 C106 1.367 . S
C107 H121 0.950 . S
C108 C105 1.481 1_554 S
C108 C109 1.297 1_554 S
C108 H122 0.950 . S
C109 C108 1.297 1_556 S
C109 C110 1.479 . S
C109 H123 0.950 . S
C110 C109 1.479 . S
C110 C111 1.375 . S
C110 C116 1.404 1_556 S
C111 C110 1.375 . S
C111 C112 1.369 . S
C111 H124 0.950 . S
C112 C111 1.369 . S
C112 C113 1.392 1_556 S
C112 H125 0.951 . S
C113 C112 1.392 1_554 S
C113 C115 1.384 . S
H114 C116 0.949 . S
C115 C113 1.384 . S
C115 C116 1.385 . S
C115 H117 0.950 . S
C116 C110 1.404 1_554 S
C116 H114 0.949 . S
C116 C115 1.385 . S
H117 C115 0.950 . S
H118 C102 0.951 . S
H119 C104 0.951 . S
H120 C106 0.951 . S
H121 C107 0.950 . S
H122 C108 0.950 . S
H123 C109 0.950 . S
H124 C111 0.950 . S
H125 C112 0.951 . S
C126 C127 1.386 1_445 S
C126 C128 1.383 . S
C126 H142 0.951 . S
C127 C126 1.386 1_665 S
C127 C131 1.383 . S
C128 C126 1.383 . S
C128 C129 1.402 1_445 S
C128 H143 0.951 . S
C129 C128 1.402 1_665 S
C129 C130 1.375 . S
C129 C132 1.481 . S
C130 C129 1.375 . S
C130 C131 1.367 . S
C130 H144 0.951 . S
C131 C127 1.383 . S
C131 C130 1.367 . S
C131 H145 0.950 . S
C132 C129 1.481 . S
C132 C133 1.297 1_655 S
C132 H146 0.950 . S
C133 C132 1.297 1_455 S
C133 C134 1.479 . S
C133 H147 0.950 1_565 S
C134 C133 1.479 . S
C134 C135 1.375 1_565 S
C134 C140 1.404 1_455 S
C135 C134 1.375 1_545 S
C135 C136 1.369 . S
C135 H148 0.950 . S
C136 C135 1.369 . S
C136 C137 1.392 1_545 S
C136 H149 0.951 . S
C137 C136 1.392 1_565 S
C137 C139 1.384 1_455 S
H138 C140 0.949 . S
C139 C137 1.384 1_655 S
C139 C140 1.385 . S
C139 H141 0.950 . S
C140 C134 1.404 1_655 S
C140 H138 0.949 . S
C140 C139 1.385 . S
H141 C139 0.950 . S
H142 C126 0.951 . S
H143 C128 0.951 . S
H144 C130 0.951 . S
H145 C131 0.950 . S
H146 C132 0.950 . S
H147 C133 0.950 1_545 S
H148 C135 0.950 . S
H149 C136 0.951 . S
C55 C5 1.943 . S
C65 C13 1.934 . S
C79 C22 1.907 . S
C89 C32 1.932 . S
C103 C28 0.368 . S
C113 C35 0.345 . S
C127 C10 1.460 . S
C137 C27 1.478 1_565 S
