# Generated by pormake.
# Topology qtz, (4)-cn, num edge types: 1
# Building blocks:
#     Node 0, Type 0, BuildingBlock: CEKHIL_clean_sbu_0, # of connection points: 4
#     Node 1, Type 0, BuildingBlock: CEKHIL_clean_sbu_0, # of connection points: 4
#     Node 2, Type 0, BuildingBlock: CEKHIL_clean_sbu_0, # of connection points: 4
#     Edge 3, Type (0, 0), BuildingBlock: UVAHIK_clean_linker_0, # of connection points: 2
#     Edge 4, Type (0, 0), BuildingBlock: UVAHIK_clean_linker_0, # of connection points: 2
#     Edge 5, Type (0, 0), BuildingBlock: UVAHIK_clean_linker_0, # of connection points: 2
#     Edge 6, Type (0, 0), BuildingBlock: UVAHIK_clean_linker_0, # of connection points: 2
#     Edge 7, Type (0, 0), BuildingBlock: UVAHIK_clean_linker_0, # of connection points: 2
#     Edge 8, Type (0, 0), BuildingBlock: UVAHIK_clean_linker_0, # of connection points: 2
# Relax obj value: 0.004
# Max RMSD: 0.040
# Mean RMSD: 0.038
data_MOF--net-qtz--node1-CEKHIL_clean_sbu_0--edge1-UVAHIK_clean_linker_0
_symmetry_space_group_name_H-M    P1
_symmetry_Int_Tables_number       1
_symmetry_cell_setting            triclinic
loop_
_symmetry_equiv_pos_as_xyz
'x, y, z'
_cell_length_a     29.9298
_cell_length_b     30.024481
_cell_length_c     37.013835
_cell_angle_alpha  91.58392
_cell_angle_beta   89.992681
_cell_angle_gamma 120.567
loop_
_atom_site_label
_atom_site_type_symbol
_atom_site_fract_x
_atom_site_fract_y
_atom_site_fract_z
_atom_type_partial_charge
Co0 Co 0.00239 0.51952 0.15469 0.0
O1 O 0.05507 0.55162 0.11899 0.0
O2 O 0.0436 0.48638 0.15202 0.0
C3 C 0.93731 0.51274 0.11948 0.0
O4 O 0.95085 0.47542 0.1932 0.0
Co5 Co 0.94624 0.57569 0.18377 0.0
O6 O 0.90175 0.5099 0.20829 0.0
C7 C 0.05372 0.61171 0.20753 0.0
C8 C 0.06919 0.51869 0.12676 0.0
C9 C 0.91309 0.47449 0.21064 0.0
O10 O 0.05091 0.57104 0.19274 0.0
O11 O 0.01797 0.62286 0.20404 0.0
O12 O 0.95103 0.47811 0.11701 0.0
O13 O 0.96568 0.55193 0.14089 0.0
Co14 Co 0.52162 0.02038 0.51646 0.0
O15 O 0.48538 0.96828 0.55129 0.0
O16 O 0.55157 0.97614 0.51976 0.0
C17 C 0.52927 0.0854 0.55296 0.0
O18 O 0.56981 0.0719 0.47928 0.0
Co19 Co 0.47337 0.0838 0.48872 0.0
O20 O 0.54544 0.131 0.47354 0.0
C21 C 0.43479 0.97702 0.45973 0.0
C22 C 0.51784 0.95268 0.54498 0.0
C23 C 0.5776 0.11565 0.46817 0.0
O24 O 0.47065 0.97425 0.4771 0.0
O25 O 0.42791 0.01569 0.46298 0.0
O26 O 0.56267 0.07016 0.55534 0.0
O27 O 0.49111 0.05906 0.53059 0.0
Co28 Co 0.4993 0.51983 0.8215 0.0
O29 O 0.465 0.5392 0.78696 0.0
O30 O 0.5306 0.59476 0.82216 0.0
C31 C 0.50793 0.46522 0.7831 0.0
O32 O 0.54568 0.51309 0.859 0.0
Co33 Co 0.44827 0.40515 0.84369 0.0
O34 O 0.51951 0.42847 0.86133 0.0
C35 C 0.41233 0.47244 0.87643 0.0
C36 C 0.4981 0.58695 0.79594 0.0
C37 C 0.55219 0.47588 0.86895 0.0
O38 O 0.44778 0.51197 0.85995 0.0
O39 O 0.40463 0.42662 0.87165 0.0
O40 O 0.54134 0.51448 0.7832 0.0
O41 O 0.46865 0.45125 0.80388 0.0
C42 C 0.34971 0.43989 0.92731 0.0
C43 C 0.37964 0.47965 0.90341 0.0
C44 C 0.31915 0.44585 0.95318 0.0
C45 C 0.29964 0.54403 1.00187 0.0
H46 H 0.1648 0.42496 0.02129 0.0
C47 C 0.14069 0.55665 0.08219 0.0
C48 C 0.11069 0.51707 0.10613 0.0
C49 C 0.17684 0.5536 0.06004 0.0
C50 C 0.20264 0.45836 0.01657 0.0
H51 H 0.4009 0.55716 0.88826 0.0
H52 H 0.34625 0.56714 0.93306 0.0
H53 H 0.21997 0.41727 0.9763 0.0
H54 H 0.09617 0.44394 0.12643 0.0
H55 H 0.15953 0.43846 0.0875 0.0
H56 H 0.28144 0.5853 0.04173 0.0
C57 C 0.34726 0.53159 0.93206 0.0
C58 C 0.23434 0.45403 0.99073 0.0
C59 C 0.37835 0.52578 0.90622 0.0
C60 C 0.11871 0.47501 0.10824 0.0
C61 C 0.15471 0.47174 0.08581 0.0
C62 C 0.26772 0.54844 0.0276 0.0
C63 C 0.31712 0.49154 0.95578 0.0
C64 C 0.2833 0.49676 0.98304 0.0
C65 C 0.18366 0.51072 0.06113 0.0
C66 C 0.21884 0.50563 0.03521 0.0
H67 H 0.3502 0.40405 0.9264 0.0
H68 H 0.29748 0.41464 0.97146 0.0
H69 H 0.33738 0.5775 0.99708 0.0
H70 H 0.13552 0.58966 0.07995 0.0
H71 H 0.19813 0.584 0.04112 0.0
C72 C 0.84841 0.43659 0.25991 0.0
C73 C 0.88222 0.43199 0.23576 0.0
C74 C 0.81892 0.39755 0.28378 0.0
C75 C 0.80728 0.28442 0.3293 0.0
H76 H 0.66802 0.25815 0.3456 0.0
C77 C 0.64663 0.12794 0.42353 0.0
C78 C 0.62306 0.14874 0.44573 0.0
C79 C 0.68288 0.1586 0.39759 0.0
C80 C 0.70682 0.265 0.34133 0.0
H81 H 0.91199 0.38251 0.21842 0.0
H82 H 0.85925 0.31328 0.26012 0.0
H83 H 0.72034 0.3171 0.29908 0.0
H84 H 0.62263 0.219 0.46044 0.0
H85 H 0.68518 0.27174 0.41562 0.0
H86 H 0.79282 0.23167 0.37208 0.0
C87 C 0.85619 0.34771 0.26053 0.0
C88 C 0.73693 0.29895 0.31477 0.0
C89 C 0.88619 0.38724 0.23654 0.0
C90 C 0.63927 0.20146 0.44334 0.0
C91 C 0.67508 0.23174 0.41763 0.0
C92 C 0.77668 0.24979 0.3559 0.0
C93 C 0.82175 0.35227 0.28415 0.0
C94 C 0.78815 0.31052 0.30917 0.0
C95 C 0.69581 0.21025 0.39361 0.0
C96 C 0.72675 0.24113 0.36283 0.0
H97 H 0.84479 0.47071 0.26067 0.0
H98 H 0.79396 0.40314 0.30223 0.0
H99 H 0.84657 0.29244 0.32564 0.0
H100 H 0.63493 0.08745 0.42476 0.0
H101 H 0.69853 0.14123 0.3794 0.0
C102 C 0.55437 0.89698 0.56355 0.0
C103 C 0.51881 0.91402 0.56854 0.0
C104 C 0.55725 0.86394 0.58838 0.0
C105 C 0.52925 0.82599 0.68323 0.0
H106 H 0.52215 0.69835 0.65172 0.0
C107 C 0.5405 0.68114 0.78043 0.0
C108 C 0.50188 0.62913 0.77382 0.0
C109 C 0.54707 0.71926 0.75631 0.0
C110 C 0.52442 0.73403 0.6609 0.0
H111 H 0.45782 0.90887 0.60318 0.0
H112 H 0.46328 0.85214 0.64611 0.0
H113 H 0.52632 0.75854 0.60673 0.0
H114 H 0.43886 0.5768 0.73732 0.0
H115 H 0.45063 0.64279 0.69561 0.0
H116 H 0.52646 0.80103 0.73739 0.0
C117 C 0.48913 0.86444 0.6233 0.0
C118 C 0.5272 0.76859 0.63516 0.0
C119 C 0.48576 0.89665 0.59842 0.0
C120 C 0.46914 0.6164 0.74328 0.0
C121 C 0.47611 0.65414 0.71911 0.0
C122 C 0.5272 0.79176 0.70899 0.0
C123 C 0.52523 0.84816 0.61886 0.0
C124 C 0.52843 0.81435 0.64604 0.0
C125 C 0.51563 0.70579 0.72497 0.0
C126 C 0.52353 0.74486 0.69805 0.0
H127 H 0.58043 0.9098 0.54088 0.0
H128 H 0.58535 0.85178 0.58427 0.0
H129 H 0.53064 0.86126 0.69238 0.0
H130 H 0.56642 0.69214 0.80364 0.0
H131 H 0.57774 0.75892 0.76152 0.0
C132 C 0.61171 0.44935 0.89485 0.0
C133 C 0.59721 0.48695 0.89221 0.0
C134 C 0.64947 0.45568 0.91982 0.0
C135 C 0.75671 0.54968 0.97967 0.0
H136 H 0.72371 0.42614 0.03135 0.0
C137 C 0.88491 0.55068 0.09766 0.0
C138 C 0.89514 0.50986 0.09687 0.0
C139 C 0.84758 0.54962 0.07432 0.0
C140 C 0.73373 0.46089 0.017 0.0
H141 H 0.61299 0.56203 0.91261 0.0
H142 H 0.67919 0.573 0.9568 0.0
H143 H 0.6626 0.42294 0.98657 0.0
H144 H 0.87365 0.43551 0.07156 0.0
H145 H 0.80867 0.43363 0.03088 0.0
H146 H 0.82815 0.58747 0.01018 0.0
C147 C 0.6612 0.53864 0.93929 0.0
C148 C 0.69873 0.45907 0.99127 0.0
C149 C 0.62333 0.53239 0.914 0.0
C150 C 0.86653 0.46747 0.07289 0.0
C151 C 0.82914 0.46633 0.04966 0.0
C152 C 0.79183 0.55151 0.00553 0.0
C153 C 0.67365 0.49964 0.94307 0.0
C154 C 0.71011 0.50317 0.97185 0.0
C155 C 0.81953 0.50759 0.04986 0.0
C156 C 0.78102 0.50689 0.0241 0.0
H157 H 0.59306 0.41427 0.87804 0.0
H158 H 0.65919 0.4256 0.92128 0.0
H159 H 0.76672 0.58423 0.96507 0.0
H160 H 0.90631 0.58387 0.1159 0.0
H161 H 0.84063 0.58169 0.07544 0.0
C162 C 0.39976 0.88757 0.43107 0.0
C163 C 0.39953 0.9343 0.43424 0.0
C164 C 0.36478 0.84753 0.40734 0.0
C165 C 0.23802 0.8005 0.36327 0.0
H166 H 0.2786 0.73154 0.29166 0.0
C167 C 0.10806 0.69579 0.24129 0.0
C168 C 0.0989 0.64635 0.23119 0.0
C169 C 0.14714 0.72702 0.26627 0.0
C170 C 0.26663 0.74999 0.31185 0.0
H171 H 0.36343 0.97594 0.41373 0.0
H172 H 0.30344 0.90699 0.37301 0.0
H173 H 0.3427 0.79236 0.33652 0.0
H174 H 0.1254 0.59193 0.23829 0.0
H175 H 0.19384 0.6468 0.28254 0.0
H176 H 0.16257 0.75935 0.33874 0.0
C177 C 0.3298 0.90072 0.3892 0.0
C178 C 0.30322 0.78465 0.3375 0.0
C179 C 0.36447 0.94041 0.4126 0.0
C180 C 0.1314 0.6298 0.24557 0.0
C181 C 0.17061 0.66119 0.27085 0.0
C182 C 0.20172 0.7661 0.33787 0.0
C183 C 0.32892 0.8536 0.38665 0.0
C184 C 0.28951 0.81135 0.36274 0.0
C185 C 0.17796 0.70961 0.28209 0.0
C186 C 0.2159 0.74163 0.31118 0.0
H187 H 0.4264 0.88165 0.4472 0.0
H188 H 0.36491 0.81153 0.4058 0.0
H189 H 0.22605 0.81965 0.38292 0.0
H190 H 0.08443 0.71021 0.23032 0.0
H191 H 0.15275 0.76473 0.27363 0.0
C192 C 0.56305 0.44095 0.74659 0.0
C193 C 0.51466 0.42743 0.7612 0.0
C194 C 0.56893 0.40505 0.7254 0.0
C195 C 0.50226 0.2639 0.70103 0.0
H196 H 0.59288 0.31062 0.61836 0.0
C197 C 0.48829 0.13201 0.58067 0.0
C198 C 0.53274 0.12819 0.57557 0.0
C199 C 0.48996 0.17011 0.60397 0.0
C200 C 0.56782 0.29732 0.64156 0.0
H201 H 0.43437 0.36628 0.765 0.0
H202 H 0.44376 0.30451 0.72685 0.0
H203 H 0.58767 0.37401 0.65828 0.0
H204 H 0.6142 0.16212 0.58967 0.0
H205 H 0.61743 0.23038 0.62979 0.0
H206 H 0.48055 0.18701 0.68289 0.0
C207 C 0.47783 0.342 0.73261 0.0
C208 C 0.56496 0.33348 0.66458 0.0
C209 C 0.47225 0.37755 0.75429 0.0
C210 C 0.57938 0.16421 0.59328 0.0
C211 C 0.58131 0.20315 0.61606 0.0
C212 C 0.50439 0.22786 0.67763 0.0
C213 C 0.52627 0.35516 0.71793 0.0
C214 C 0.5317 0.31717 0.69445 0.0
C215 C 0.53634 0.20571 0.62195 0.0
C216 C 0.53686 0.2443 0.64764 0.0
H217 H 0.59649 0.47914 0.75177 0.0
H218 H 0.607 0.41637 0.71513 0.0
H219 H 0.47727 0.24984 0.72421 0.0
H220 H 0.4518 0.10468 0.56741 0.0
H221 H 0.45495 0.17171 0.6081 0.0
loop_
_geom_bond_atom_site_label_1
_geom_bond_atom_site_label_2
_geom_bond_distance
_geom_bond_site_symmetry_2
_ccdc_geom_bond_type
Co0 O1 2.216 . S
Co0 O2 2.091 . S
Co0 O4 2.004 1_455 S
Co0 O10 2.021 . S
Co0 O12 2.137 1_455 S
Co0 O13 2.244 1_455 S
O1 Co0 2.216 . S
O1 C8 1.247 . S
O2 Co0 2.091 . S
O2 C8 1.261 . S
C3 O12 1.247 . S
C3 O13 1.272 . S
O4 Co0 2.004 1_655 S
O4 C9 1.259 . S
Co5 O6 2.061 . S
Co5 O11 2.052 1_655 S
Co5 O13 2.135 . S
O6 Co5 2.061 . S
O6 C9 1.235 . S
C7 O10 1.238 . S
C7 O11 1.241 . S
C8 O1 1.247 . S
C8 O2 1.261 . S
C9 O4 1.259 . S
C9 O6 1.235 . S
O10 Co0 2.021 . S
O10 C7 1.238 . S
O11 Co5 2.052 1_455 S
O11 C7 1.241 . S
O12 Co0 2.137 1_655 S
O12 C3 1.247 . S
O13 Co0 2.244 1_655 S
O13 C3 1.272 . S
O13 Co5 2.135 . S
Co14 O15 2.216 1_545 S
Co14 O16 2.091 1_545 S
Co14 O18 2.004 . S
Co14 O24 2.021 1_545 S
Co14 O26 2.137 . S
Co14 O27 2.244 . S
O15 Co14 2.216 1_565 S
O15 C22 1.247 . S
O16 Co14 2.091 1_565 S
O16 C22 1.261 . S
C17 O26 1.247 . S
C17 O27 1.272 . S
O18 Co14 2.004 . S
O18 C23 1.259 . S
Co19 O20 2.061 . S
Co19 O25 2.052 1_545 S
Co19 O27 2.135 . S
O20 Co19 2.061 . S
O20 C23 1.235 . S
C21 O24 1.238 . S
C21 O25 1.241 . S
C22 O15 1.247 . S
C22 O16 1.261 . S
C23 O18 1.259 . S
C23 O20 1.235 . S
O24 Co14 2.021 1_565 S
O24 C21 1.238 . S
O25 Co19 2.052 1_565 S
O25 C21 1.241 . S
O26 Co14 2.137 . S
O26 C17 1.247 . S
O27 Co14 2.244 . S
O27 C17 1.272 . S
O27 Co19 2.135 . S
Co28 O29 2.216 . S
Co28 O30 2.091 . S
Co28 O32 2.004 . S
Co28 O38 2.021 . S
Co28 O40 2.137 . S
Co28 O41 2.244 . S
O29 Co28 2.216 . S
O29 C36 1.247 . S
O30 Co28 2.091 . S
O30 C36 1.261 . S
C31 O40 1.247 . S
C31 O41 1.272 . S
O32 Co28 2.004 . S
O32 C37 1.259 . S
Co33 O34 2.061 . S
Co33 O39 2.052 . S
Co33 O41 2.135 . S
O34 Co33 2.061 . S
O34 C37 1.235 . S
C35 O38 1.238 . S
C35 O39 1.241 . S
C36 O29 1.247 . S
C36 O30 1.261 . S
C37 O32 1.259 . S
C37 O34 1.235 . S
O38 Co28 2.021 . S
O38 C35 1.238 . S
O39 Co33 2.052 . S
O39 C35 1.241 . S
O40 Co28 2.137 . S
O40 C31 1.247 . S
O41 Co28 2.244 . S
O41 C31 1.272 . S
O41 Co33 2.135 . S
C42 C43 1.349 . S
C42 C44 1.327 . S
C42 H67 0.950 . S
C43 C42 1.349 . S
C43 C59 1.349 . S
C44 C42 1.327 . S
C44 C63 1.429 . S
C44 H68 0.950 . S
C45 C62 1.574 . S
C45 C64 1.368 . S
C45 H69 0.949 . S
H46 C50 0.949 . S
C47 C48 1.349 . S
C47 C49 1.327 . S
C47 H70 0.950 . S
C48 C47 1.349 . S
C48 C60 1.349 . S
C49 C47 1.327 . S
C49 C65 1.429 . S
C49 H71 0.950 . S
C50 H46 0.949 . S
C50 C58 1.574 1_554 S
C50 C66 1.368 . S
H51 C59 0.950 . S
H52 C57 0.950 . S
H53 C58 0.949 . S
H54 C60 0.950 . S
H55 C61 0.950 . S
H56 C62 0.949 . S
C57 H52 0.950 . S
C57 C59 1.327 . S
C57 C63 1.429 . S
C58 C50 1.574 1_556 S
C58 H53 0.949 . S
C58 C64 1.368 . S
C59 C43 1.349 . S
C59 H51 0.950 . S
C59 C57 1.327 . S
C60 C48 1.349 . S
C60 H54 0.950 . S
C60 C61 1.327 . S
C61 H55 0.950 . S
C61 C60 1.327 . S
C61 C65 1.429 . S
C62 C45 1.574 . S
C62 H56 0.949 . S
C62 C66 1.368 1_556 S
C63 C44 1.429 . S
C63 C57 1.429 . S
C63 C64 1.523 . S
C64 C45 1.368 . S
C64 C58 1.368 . S
C64 C63 1.523 . S
C65 C49 1.429 . S
C65 C61 1.429 . S
C65 C66 1.523 . S
C66 C50 1.368 . S
C66 C62 1.368 1_554 S
C66 C65 1.523 . S
H67 C42 0.950 . S
H68 C44 0.950 . S
H69 C45 0.949 . S
H70 C47 0.950 . S
H71 C49 0.950 . S
C72 C73 1.349 . S
C72 C74 1.327 . S
C72 H97 0.950 . S
C73 C72 1.349 . S
C73 C89 1.349 . S
C74 C72 1.327 . S
C74 C93 1.429 . S
C74 H98 0.950 . S
C75 C92 1.574 . S
C75 C94 1.368 . S
C75 H99 0.949 . S
H76 C80 0.949 . S
C77 C78 1.349 . S
C77 C79 1.327 . S
C77 H100 0.950 . S
C78 C77 1.349 . S
C78 C90 1.349 . S
C79 C77 1.327 . S
C79 C95 1.429 . S
C79 H101 0.950 . S
C80 H76 0.949 . S
C80 C88 1.574 . S
C80 C96 1.368 . S
H81 C89 0.950 . S
H82 C87 0.950 . S
H83 C88 0.949 . S
H84 C90 0.950 . S
H85 C91 0.950 . S
H86 C92 0.949 . S
C87 H82 0.950 . S
C87 C89 1.327 . S
C87 C93 1.429 . S
C88 C80 1.574 . S
C88 H83 0.949 . S
C88 C94 1.368 . S
C89 C73 1.349 . S
C89 H81 0.950 . S
C89 C87 1.327 . S
C90 C78 1.349 . S
C90 H84 0.950 . S
C90 C91 1.327 . S
C91 H85 0.950 . S
C91 C90 1.327 . S
C91 C95 1.429 . S
C92 C75 1.574 . S
C92 H86 0.949 . S
C92 C96 1.368 . S
C93 C74 1.429 . S
C93 C87 1.429 . S
C93 C94 1.523 . S
C94 C75 1.368 . S
C94 C88 1.368 . S
C94 C93 1.523 . S
C95 C79 1.429 . S
C95 C91 1.429 . S
C95 C96 1.523 . S
C96 C80 1.368 . S
C96 C92 1.368 . S
C96 C95 1.523 . S
H97 C72 0.950 . S
H98 C74 0.950 . S
H99 C75 0.949 . S
H100 C77 0.950 . S
H101 C79 0.950 . S
C102 C103 1.349 . S
C102 C104 1.327 . S
C102 H127 0.950 . S
C103 C102 1.349 . S
C103 C119 1.349 . S
C104 C102 1.327 . S
C104 C123 1.429 . S
C104 H128 0.950 . S
C105 C122 1.574 . S
C105 C124 1.368 . S
C105 H129 0.949 . S
H106 C110 0.949 . S
C107 C108 1.349 . S
C107 C109 1.327 . S
C107 H130 0.950 . S
C108 C107 1.349 . S
C108 C120 1.349 . S
C109 C107 1.327 . S
C109 C125 1.429 . S
C109 H131 0.950 . S
C110 H106 0.949 . S
C110 C118 1.574 . S
C110 C126 1.368 . S
H111 C119 0.950 . S
H112 C117 0.950 . S
H113 C118 0.949 . S
H114 C120 0.950 . S
H115 C121 0.950 . S
H116 C122 0.949 . S
C117 H112 0.950 . S
C117 C119 1.327 . S
C117 C123 1.429 . S
C118 C110 1.574 . S
C118 H113 0.949 . S
C118 C124 1.368 . S
C119 C103 1.349 . S
C119 H111 0.950 . S
C119 C117 1.327 . S
C120 C108 1.349 . S
C120 H114 0.950 . S
C120 C121 1.327 . S
C121 H115 0.950 . S
C121 C120 1.327 . S
C121 C125 1.429 . S
C122 C105 1.574 . S
C122 H116 0.949 . S
C122 C126 1.368 . S
C123 C104 1.429 . S
C123 C117 1.429 . S
C123 C124 1.523 . S
C124 C105 1.368 . S
C124 C118 1.368 . S
C124 C123 1.523 . S
C125 C109 1.429 . S
C125 C121 1.429 . S
C125 C126 1.523 . S
C126 C110 1.368 . S
C126 C122 1.368 . S
C126 C125 1.523 . S
H127 C102 0.950 . S
H128 C104 0.950 . S
H129 C105 0.949 . S
H130 C107 0.950 . S
H131 C109 0.950 . S
C132 C133 1.349 . S
C132 C134 1.327 . S
C132 H157 0.950 . S
C133 C132 1.349 . S
C133 C149 1.349 . S
C134 C132 1.327 . S
C134 C153 1.429 . S
C134 H158 0.950 . S
C135 C152 1.574 . S
C135 C154 1.368 1_554 S
C135 H159 0.949 . S
H136 C140 0.949 . S
C137 C138 1.349 . S
C137 C139 1.327 . S
C137 H160 0.950 . S
C138 C137 1.349 . S
C138 C150 1.349 . S
C139 C137 1.327 . S
C139 C155 1.429 . S
C139 H161 0.950 . S
C140 H136 0.949 . S
C140 C148 1.575 . S
C140 C156 1.367 1_556 S
H141 C149 0.950 . S
H142 C147 0.950 . S
H143 C148 0.949 . S
H144 C150 0.950 . S
H145 C151 0.950 . S
H146 C152 0.949 . S
C147 H142 0.950 . S
C147 C149 1.327 . S
C147 C153 1.429 . S
C148 C140 1.575 . S
C148 H143 0.949 . S
C148 C154 1.368 . S
C149 C133 1.349 . S
C149 H141 0.950 . S
C149 C147 1.327 . S
C150 C138 1.349 . S
C150 H144 0.950 . S
C150 C151 1.327 . S
C151 H145 0.950 . S
C151 C150 1.327 . S
C151 C155 1.429 . S
C152 C135 1.574 . S
C152 H146 0.949 . S
C152 C156 1.368 . S
C153 C134 1.429 . S
C153 C147 1.429 . S
C153 C154 1.523 . S
C154 C135 1.368 1_556 S
C154 C148 1.368 . S
C154 C153 1.523 . S
C155 C139 1.429 . S
C155 C151 1.429 . S
C155 C156 1.523 . S
C156 C140 1.367 1_554 S
C156 C152 1.368 . S
C156 C155 1.523 . S
H157 C132 0.950 . S
H158 C134 0.950 . S
H159 C135 0.949 . S
H160 C137 0.950 . S
H161 C139 0.950 . S
C162 C163 1.349 . S
C162 C164 1.327 . S
C162 H187 0.950 . S
C163 C162 1.349 . S
C163 C179 1.349 . S
C164 C162 1.327 . S
C164 C183 1.429 . S
C164 H188 0.950 . S
C165 C182 1.574 . S
C165 C184 1.368 . S
C165 H189 0.949 . S
H166 C170 0.949 . S
C167 C168 1.349 . S
C167 C169 1.327 . S
C167 H190 0.950 . S
C168 C167 1.349 . S
C168 C180 1.349 . S
C169 C167 1.327 . S
C169 C185 1.429 . S
C169 H191 0.950 . S
C170 H166 0.949 . S
C170 C178 1.574 . S
C170 C186 1.368 . S
H171 C179 0.950 . S
H172 C177 0.950 . S
H173 C178 0.949 . S
H174 C180 0.950 . S
H175 C181 0.950 . S
H176 C182 0.949 . S
C177 H172 0.950 . S
C177 C179 1.327 . S
C177 C183 1.429 . S
C178 C170 1.574 . S
C178 H173 0.949 . S
C178 C184 1.368 . S
C179 C163 1.349 . S
C179 H171 0.950 . S
C179 C177 1.327 . S
C180 C168 1.349 . S
C180 H174 0.950 . S
C180 C181 1.327 . S
C181 H175 0.950 . S
C181 C180 1.327 . S
C181 C185 1.429 . S
C182 C165 1.574 . S
C182 H176 0.949 . S
C182 C186 1.368 . S
C183 C164 1.429 . S
C183 C177 1.429 . S
C183 C184 1.523 . S
C184 C165 1.368 . S
C184 C178 1.368 . S
C184 C183 1.523 . S
C185 C169 1.429 . S
C185 C181 1.429 . S
C185 C186 1.523 . S
C186 C170 1.368 . S
C186 C182 1.368 . S
C186 C185 1.523 . S
H187 C162 0.950 . S
H188 C164 0.950 . S
H189 C165 0.949 . S
H190 C167 0.950 . S
H191 C169 0.950 . S
C192 C193 1.349 . S
C192 C194 1.327 . S
C192 H217 0.950 . S
C193 C192 1.349 . S
C193 C209 1.349 . S
C194 C192 1.327 . S
C194 C213 1.429 . S
C194 H218 0.950 . S
C195 C212 1.574 . S
C195 C214 1.368 . S
C195 H219 0.949 . S
H196 C200 0.949 . S
C197 C198 1.349 . S
C197 C199 1.327 . S
C197 H220 0.950 . S
C198 C197 1.349 . S
C198 C210 1.349 . S
C199 C197 1.327 . S
C199 C215 1.429 . S
C199 H221 0.950 . S
C200 H196 0.949 . S
C200 C208 1.574 . S
C200 C216 1.368 . S
H201 C209 0.950 . S
H202 C207 0.950 . S
H203 C208 0.949 . S
H204 C210 0.950 . S
H205 C211 0.950 . S
H206 C212 0.949 . S
C207 H202 0.950 . S
C207 C209 1.327 . S
C207 C213 1.429 . S
C208 C200 1.574 . S
C208 H203 0.949 . S
C208 C214 1.368 . S
C209 C193 1.349 . S
C209 H201 0.950 . S
C209 C207 1.327 . S
C210 C198 1.349 . S
C210 H204 0.950 . S
C210 C211 1.327 . S
C211 H205 0.950 . S
C211 C210 1.327 . S
C211 C215 1.429 . S
C212 C195 1.574 . S
C212 H206 0.949 . S
C212 C216 1.368 . S
C213 C194 1.429 . S
C213 C207 1.429 . S
C213 C214 1.523 . S
C214 C195 1.368 . S
C214 C208 1.368 . S
C214 C213 1.523 . S
C215 C199 1.429 . S
C215 C211 1.429 . S
C215 C216 1.523 . S
C216 C200 1.368 . S
C216 C212 1.368 . S
C216 C215 1.523 . S
H217 C192 0.950 . S
H218 C194 0.950 . S
H219 C195 0.949 . S
H220 C197 0.950 . S
H221 C199 0.950 . S
C43 C35 1.412 . S
C48 C8 1.432 . S
C73 C9 1.489 . S
C78 C23 1.489 . S
C103 C22 1.451 . S
C108 C36 1.451 . S
C133 C37 1.447 . S
C138 C3 1.461 . S
C163 C21 1.396 . S
C168 C7 1.395 . S
C193 C31 1.419 . S
C198 C17 1.419 . S
