# Generated by pormake.
# Topology pcu, (6)-cn, num edge types: 1
# Building blocks:
#     Node 0, Type 0, BuildingBlock: KUMJIN_clean_sbu_0, # of connection points: 6
#     Edge 1, Type (0, 0), BuildingBlock: OJICUG_clean_linker_0, # of connection points: 2
#     Edge 2, Type (0, 0), BuildingBlock: OJICUG_clean_linker_0, # of connection points: 2
#     Edge 3, Type (0, 0), BuildingBlock: OJICUG_clean_linker_0, # of connection points: 2
# Relax obj value: 0.000
# Max RMSD: 0.000
# Mean RMSD: 0.000
data_MOF--net-pcu--node1-KUMJIN_clean_sbu_0--edge1-OJICUG_clean_linker_0
_symmetry_space_group_name_H-M    P1
_symmetry_Int_Tables_number       1
_symmetry_cell_setting            triclinic
loop_
_symmetry_equiv_pos_as_xyz
'x, y, z'
_cell_length_a     9.9194842
_cell_length_b     20.481333
_cell_length_c     11.143947
_cell_angle_alpha  115.50031
_cell_angle_beta   76.197047
_cell_angle_gamma 113.55871
loop_
_atom_site_label
_atom_site_type_symbol
_atom_site_fract_x
_atom_site_fract_y
_atom_site_fract_z
_atom_type_partial_charge
Eu0 Eu 0.12649 0.09968 0.05545 0.0
C1 C 0.70701 0.77546 0.71909 0.0
C2 C 0.46367 0.76916 0.83182 0.0
C3 C 0.49038 0.69943 0.59244 0.0
C4 C 0.61832 0.79709 0.8348 0.0
C5 C 0.64404 0.72527 0.5969 0.0
C6 C 0.40035 0.72143 0.7097 0.0
C7 C 0.8886 0.72614 0.49459 0.0
N8 N 0.85484 0.80139 0.72693 0.0
C9 C 0.94571 0.77566 0.61819 0.0
C10 C 0.73724 0.70141 0.48352 0.0
Eu11 Eu 0.94366 0.8873 0.9381 0.0
N12 N 0.68285 0.84305 0.9512 0.0
C13 C 0.59875 0.85885 0.06957 0.0
C14 C 0.37723 0.78881 0.9521 0.0
C15 C 0.4449 0.83287 0.07171 0.0
H16 H 0.06287 0.795 0.62631 0.0
H17 H 0.37874 0.84726 0.16546 0.0
H18 H 0.28177 0.7 0.70534 0.0
H19 H 0.9613 0.70718 0.40804 0.0
H20 H 0.65006 0.89332 0.16248 0.0
H21 H 0.6914 0.13985 0.828 0.0
H22 H 0.2584 0.76917 0.95383 0.0
H23 H 1.0073 0.1919 0.36733 0.0
H24 H 0.42008 0.09377 0.83102 0.0
H25 H 0.1089 0.27968 0.58559 0.0
H26 H 0.43993 0.66132 0.49934 0.0
H27 H 0.81177 0.21789 0.03962 0.0
H28 H 0.78843 0.28701 0.28812 0.0
H29 H 0.69325 0.66292 0.3877 0.0
H30 H 0.63029 0.32561 0.49417 0.0
N31 N 0.38732 0.14398 0.04231 0.0
C32 C 0.4714 0.12822 0.92393 0.0
C33 C 0.69294 0.19825 0.04137 0.0
C34 C 0.60651 0.21787 0.16166 0.0
C35 C 0.62525 0.15422 0.92176 0.0
C36 C 0.45186 0.18992 0.15871 0.0
H37 H 0.37697 0.32396 0.60587 0.0
N38 N 0.21533 0.18555 0.26664 0.0
C39 C 0.1816 0.26074 0.49901 0.0
C40 C 0.36317 0.2115 0.27445 0.0
C41 C 0.12447 0.21125 0.37542 0.0
C42 C 0.33297 0.28548 0.51006 0.0
C43 C 0.42616 0.26167 0.39664 0.0
O44 O 0.03906 0.18981 0.0945 0.0
O45 O 0.92131 0.00055 0.99219 0.0
O46 O 0.95136 0.92388 0.77182 0.0
O47 O 0.14822 0.03996 0.8275 0.0
O48 O 0.89318 0.09706 0.14589 0.0
O49 O 0.20762 0.16861 0.93226 0.0
O50 O 1.03104 0.79717 0.89912 0.0
O51 O 0.1487 0.98641 0.00109 0.0
O52 O 0.11894 0.06306 0.22162 0.0
O53 O 0.92195 0.94706 0.16603 0.0
O54 O 0.17708 0.8899 0.84783 0.0
O55 O 0.86251 0.81843 0.06138 0.0
C56 C 0.825 0.02836 0.06759 0.0
C57 C 0.19755 0.2947 0.03565 0.0
C58 C 0.18999 0.41431 0.04461 0.0
C59 C 0.12874 0.3342 0.00859 0.0
C60 C 0.32315 0.45437 0.10695 0.0
C61 C 0.33004 0.3353 0.09798 0.0
C62 C 0.39273 0.41488 0.13292 0.0
C63 C 0.05067 0.98271 0.7435 0.0
C64 C 0.1262 0.21156 0.00068 0.0
C65 C 0.57983 0.28753 0.40106 0.0
C66 C 0.66985 0.26556 0.28378 0.0
C67 C 0.2452 0.95867 0.92598 0.0
C68 C 0.87253 0.69232 0.95807 0.0
C69 C 0.94137 0.65282 0.98508 0.0
C70 C 0.88011 0.57272 0.9491 0.0
C71 C 0.74691 0.53266 0.88683 0.0
C72 C 0.73999 0.65172 0.8958 0.0
C73 C 0.67729 0.57214 0.86089 0.0
C74 C 1.01962 0.00425 0.24996 0.0
C75 C 0.9439 0.77546 0.99297 0.0
H76 H 1.02562 0.30254 0.9616 0.0
H77 H 0.37402 0.516 0.13458 0.0
H78 H 0.38451 0.30567 0.11974 0.0
H79 H 0.49524 0.44612 0.18072 0.0
H80 H 0.04454 0.68448 0.032 0.0
H81 H 0.69603 0.47102 0.85922 0.0
H82 H 0.68549 0.68135 0.87407 0.0
H83 H 0.57475 0.5409 0.81314 0.0
C84 C 0.13877 0.05381 0.46142 0.0
C85 C 1.02455 -5e-05 0.37818 0.0
H86 H 0.23814 0.0902 0.64034 0.0
C87 C 0.92119 0.93947 0.41487 0.0
H88 H 0.2217 0.10062 0.43567 0.0
C89 C 0.93157 0.93312 0.53201 0.0
C90 C 0.04578 0.98698 0.61525 0.0
H91 H 0.83219 0.89674 0.35309 0.0
H92 H 0.84863 0.88631 0.55776 0.0
C93 C 0.14914 0.04746 0.57856 0.0
C94 C 0.50333 0.95785 0.86312 0.0
C95 C 0.39481 0.97913 0.96255 0.0
H96 H 0.72511 0.9582 0.81751 0.0
C97 C 0.42732 0.014 0.09677 0.0
H98 H 0.48057 0.92998 0.75904 0.0
C99 C 0.5669 0.0293 0.13053 0.0
C100 C 0.67541 0.00801 0.03109 0.0
H101 H 0.34508 0.0289 0.17613 0.0
H102 H 0.58966 0.05715 0.2346 0.0
C103 C 0.64289 0.97314 0.89688 0.0
C104 C 1.02343 0.56274 0.0946 0.0
C105 C 0.95746 0.53147 0.97434 0.0
H106 H 0.14758 0.55017 0.2114 0.0
C107 C 0.96986 0.46177 0.87688 0.0
H108 H 1.0143 0.61586 0.17233 0.0
C109 C 0.0467 0.4243 0.89909 0.0
C110 C 0.11266 0.45556 0.01935 0.0
H111 H 0.92253 0.43686 0.7823 0.0
H112 H 0.05584 0.37117 0.82136 0.0
C113 C 0.10026 0.52526 0.11681 0.0
loop_
_geom_bond_atom_site_label_1
_geom_bond_atom_site_label_2
_geom_bond_distance
_geom_bond_site_symmetry_2
_ccdc_geom_bond_type
Eu0 N31 2.657 1_554 S
Eu0 N38 2.609 . S
Eu0 O44 2.558 . S
Eu0 O45 2.612 1_444 S
Eu0 O47 2.339 1_554 S
Eu0 O48 2.563 1_455 S
Eu0 O49 2.419 . S
Eu0 O51 2.380 . S
Eu0 O52 2.432 1_455 S
Eu0 C64 2.848 . S
C1 C4 1.429 . S
C1 C5 1.411 . S
C1 N8 1.377 . S
C2 C4 1.420 . S
C2 C6 1.423 . S
C2 C14 1.392 1_556 S
C3 C5 1.420 . S
C3 C6 1.351 . S
C3 H26 0.931 . S
C4 C1 1.429 . S
C4 C2 1.420 . S
C4 N12 1.362 1_556 S
C5 C1 1.411 . S
C5 C3 1.420 . S
C5 C10 1.395 . S
C6 C2 1.423 . S
C6 C3 1.351 . S
C6 H18 0.930 . S
C7 C9 1.400 . S
C7 C10 1.386 . S
C7 H19 0.930 . S
N8 C1 1.377 . S
N8 C9 1.321 . S
N8 Eu11 2.609 . S
C9 C7 1.400 . S
C9 N8 1.321 . S
C9 H16 0.930 . S
C10 C5 1.395 . S
C10 C7 1.386 . S
C10 H29 0.930 . S
Eu11 N8 2.609 . S
Eu11 N12 2.657 1_556 S
Eu11 O45 2.380 . S
Eu11 O46 2.432 1_655 S
Eu11 O50 2.558 . S
Eu11 O51 2.612 1_666 S
Eu11 O53 2.339 1_556 S
Eu11 O54 2.563 1_655 S
Eu11 O55 2.419 . S
Eu11 C75 2.848 . S
N12 C4 1.362 1_554 S
N12 Eu11 2.657 1_554 S
N12 C13 1.334 . S
C13 N12 1.334 . S
C13 C15 1.413 . S
C13 H20 0.929 . S
C14 C2 1.392 1_554 S
C14 C15 1.367 . S
C14 H22 0.930 . S
C15 C13 1.413 . S
C15 C14 1.367 . S
C15 H17 0.930 . S
H16 C9 0.930 . S
H17 C15 0.930 . S
H18 C6 0.930 . S
H19 C7 0.930 . S
H20 C13 0.929 . S
H21 C35 0.930 . S
H22 C14 0.930 . S
H23 C41 0.930 . S
H24 C32 0.929 . S
H25 C39 0.930 . S
H26 C3 0.931 . S
H27 C33 0.930 . S
H28 C66 0.930 . S
H29 C10 0.930 . S
H30 C65 0.931 . S
N31 Eu0 2.657 1_556 S
N31 C32 1.334 . S
N31 C36 1.362 1_556 S
C32 H24 0.929 . S
C32 N31 1.334 . S
C32 C35 1.413 . S
C33 H27 0.930 . S
C33 C34 1.392 1_556 S
C33 C35 1.367 . S
C34 C33 1.392 1_554 S
C34 C36 1.420 . S
C34 C66 1.423 . S
C35 H21 0.930 . S
C35 C32 1.413 . S
C35 C33 1.367 . S
C36 N31 1.362 1_554 S
C36 C34 1.420 . S
C36 C40 1.429 . S
H37 C42 0.930 . S
N38 Eu0 2.609 . S
N38 C40 1.377 . S
N38 C41 1.321 . S
C39 H25 0.930 . S
C39 C41 1.400 . S
C39 C42 1.386 . S
C40 C36 1.429 . S
C40 N38 1.377 . S
C40 C43 1.411 . S
C41 H23 0.930 . S
C41 N38 1.321 . S
C41 C39 1.400 . S
C42 H37 0.930 . S
C42 C39 1.386 . S
C42 C43 1.395 . S
C43 C40 1.411 . S
C43 C42 1.395 . S
C43 C65 1.420 . S
O44 Eu0 2.558 . S
O44 C64 1.257 . S
O45 Eu0 2.612 1_666 S
O45 Eu11 2.380 . S
O45 C56 1.276 1_566 S
O46 Eu11 2.432 1_455 S
O46 C63 1.264 . S
O47 Eu0 2.339 1_556 S
O47 C63 1.254 1_545 S
O48 Eu0 2.563 1_655 S
O48 C56 1.235 . S
O49 Eu0 2.419 . S
O49 C64 1.249 . S
O50 Eu11 2.558 . S
O50 C75 1.257 . S
O51 Eu0 2.380 . S
O51 Eu11 2.612 1_444 S
O51 C67 1.276 1_544 S
O52 Eu0 2.432 1_655 S
O52 C74 1.264 . S
O53 Eu11 2.339 1_554 S
O53 C74 1.254 1_565 S
O54 Eu11 2.563 1_455 S
O54 C67 1.235 . S
O55 Eu11 2.419 . S
O55 C75 1.249 . S
C56 O45 1.276 1_544 S
C56 O48 1.235 . S
C57 C59 1.393 . S
C57 C61 1.395 . S
C57 C64 1.492 . S
C58 C59 1.392 . S
C58 C60 1.386 . S
C59 C57 1.393 . S
C59 C58 1.392 . S
C59 H76 0.930 1_554 S
C60 C58 1.386 . S
C60 C62 1.395 . S
C60 H77 0.930 . S
C61 C57 1.395 . S
C61 C62 1.379 . S
C61 H78 0.930 . S
C62 C60 1.395 . S
C62 C61 1.379 . S
C62 H79 0.930 . S
C63 O46 1.264 . S
C63 O47 1.254 1_565 S
C64 Eu0 2.848 . S
C64 O44 1.257 . S
C64 O49 1.249 . S
C64 C57 1.492 . S
C65 H30 0.931 . S
C65 C43 1.420 . S
C65 C66 1.351 . S
C66 H28 0.930 . S
C66 C34 1.423 . S
C66 C65 1.351 . S
C67 O51 1.276 1_566 S
C67 O54 1.235 . S
C68 C69 1.393 . S
C68 C72 1.395 . S
C68 C75 1.492 . S
C69 C68 1.393 . S
C69 C70 1.392 . S
C69 H80 0.930 1_556 S
C70 C69 1.392 . S
C70 C71 1.386 . S
C71 C70 1.386 . S
C71 C73 1.395 . S
C71 H81 0.930 . S
C72 C68 1.395 . S
C72 C73 1.379 . S
C72 H82 0.930 . S
C73 C71 1.395 . S
C73 C72 1.379 . S
C73 H83 0.930 . S
C74 O52 1.264 . S
C74 O53 1.254 1_545 S
C75 Eu11 2.848 . S
C75 O50 1.257 . S
C75 O55 1.249 . S
C75 C68 1.492 . S
H76 C59 0.930 1_556 S
H77 C60 0.930 . S
H78 C61 0.930 . S
H79 C62 0.930 . S
H80 C69 0.930 1_554 S
H81 C71 0.930 . S
H82 C72 0.930 . S
H83 C73 0.930 . S
C84 C85 1.389 1_545 S
C84 H88 0.950 . S
C84 C93 1.390 . S
C85 C84 1.389 1_565 S
C85 C87 1.387 1_455 S
H86 C93 0.950 . S
C87 C85 1.387 1_655 S
C87 C89 1.390 . S
C87 H91 0.950 . S
H88 C84 0.950 . S
C89 C87 1.390 . S
C89 C90 1.387 1_565 S
C89 H92 0.950 . S
C90 C89 1.387 1_545 S
C90 C93 1.390 1_655 S
H91 C87 0.950 . S
H92 C89 0.950 . S
C93 C84 1.390 . S
C93 H86 0.950 . S
C93 C90 1.390 1_455 S
C94 C95 1.387 1_556 S
C94 H98 0.950 . S
C94 C103 1.390 . S
C95 C94 1.387 1_554 S
C95 C97 1.389 1_565 S
H96 C103 0.950 . S
C97 C95 1.389 1_545 S
C97 C99 1.390 . S
C97 H101 0.950 . S
H98 C94 0.950 . S
C99 C97 1.390 . S
C99 C100 1.390 1_554 S
C99 H102 0.950 . S
C100 C99 1.390 1_556 S
C100 C103 1.388 1_545 S
H101 C97 0.950 . S
H102 C99 0.950 . S
C103 C94 1.390 . S
C103 H96 0.950 . S
C103 C100 1.388 1_565 S
C104 C105 1.389 1_655 S
C104 H108 0.950 . S
C104 C113 1.390 . S
C105 C104 1.389 1_455 S
C105 C107 1.389 1_554 S
H106 C113 0.950 . S
C107 C105 1.389 1_556 S
C107 C109 1.390 . S
C107 H111 0.950 . S
H108 C104 0.950 . S
C109 C107 1.390 . S
C109 C110 1.387 1_455 S
C109 H112 0.950 . S
C110 C109 1.387 1_655 S
C110 C113 1.390 1_556 S
H111 C107 0.950 . S
H112 C109 0.950 . S
C113 C104 1.390 . S
C113 H106 0.950 . S
C113 C110 1.390 1_554 S
C85 C74 1.472 1_465 S
C90 C63 1.470 1_645 S
C95 C67 1.436 1_554 S
C100 C56 1.435 1_556 S
C105 C70 1.321 1_454 S
C110 C58 1.324 1_656 S
