# Generated by pormake.
# Topology cdl, (4)-cn, num edge types: 1
# Building blocks:
#     Node 0, Type 0, BuildingBlock: NAWXER_clean_sbu_0, # of connection points: 4
#     Node 1, Type 0, BuildingBlock: NAWXER_clean_sbu_0, # of connection points: 4
#     Node 2, Type 0, BuildingBlock: NAWXER_clean_sbu_0, # of connection points: 4
#     Node 3, Type 0, BuildingBlock: NAWXER_clean_sbu_0, # of connection points: 4
#     Edge 4, Type (0, 0), BuildingBlock: KIFKEQ_clean_linker_1, # of connection points: 2
#     Edge 5, Type (0, 0), BuildingBlock: KIFKEQ_clean_linker_1, # of connection points: 2
#     Edge 6, Type (0, 0), BuildingBlock: KIFKEQ_clean_linker_1, # of connection points: 2
#     Edge 7, Type (0, 0), BuildingBlock: KIFKEQ_clean_linker_1, # of connection points: 2
#     Edge 8, Type (0, 0), BuildingBlock: KIFKEQ_clean_linker_1, # of connection points: 2
#     Edge 9, Type (0, 0), BuildingBlock: KIFKEQ_clean_linker_1, # of connection points: 2
#     Edge 10, Type (0, 0), BuildingBlock: KIFKEQ_clean_linker_1, # of connection points: 2
#     Edge 11, Type (0, 0), BuildingBlock: KIFKEQ_clean_linker_1, # of connection points: 2
# Relax obj value: 0.000
# Max RMSD: 0.003
# Mean RMSD: 0.003
data_MOF--net-cdl--node1-NAWXER_clean_sbu_0--edge1-KIFKEQ_clean_linker_1
_symmetry_space_group_name_H-M    P1
_symmetry_Int_Tables_number       1
_symmetry_cell_setting            triclinic
loop_
_symmetry_equiv_pos_as_xyz
'x, y, z'
_cell_length_a     14.963917
_cell_length_b     14.95652
_cell_length_c     59.389999
_cell_angle_alpha  96.855285
_cell_angle_beta   96.713759
_cell_angle_gamma 88.630536
loop_
_atom_site_label
_atom_site_type_symbol
_atom_site_fract_x
_atom_site_fract_y
_atom_site_fract_z
_atom_type_partial_charge
C0 C 0.2582 0.25635 0.14564 0.0
C1 C 0.25784 0.92782 0.14134 0.0
O2 O 0.32641 0.20398 0.1465 0.0
Zn3 Zn 0.26008 0.09225 0.14355 0.0
O4 O 0.17895 0.22312 0.14314 0.0
Zn5 Zn 0.11733 0.09336 0.1392 0.0
O6 O 0.04997 0.09962 0.16507 0.0
O7 O 0.1969 0.10432 0.17475 0.0
O8 O 0.17864 0.9626 0.13899 0.0
O9 O 0.32596 0.97889 0.14465 0.0
O10 O 0.19851 0.08363 0.10855 0.0
O11 O 0.05137 0.08904 0.10928 0.0
C12 C 0.1167 0.10565 0.18048 0.0
C13 C 0.11863 0.0839 0.09796 0.0
C14 C 0.26704 0.86149 0.62888 0.0
C15 C 0.94032 0.86099 0.62859 0.0
O16 O 0.21667 0.79303 0.62675 0.0
Zn17 Zn 0.10353 0.8589 0.62864 0.0
O18 O 0.23242 0.94059 0.63199 0.0
Zn19 Zn 0.10323 1.00173 0.63498 0.0
O20 O 0.11598 0.06179 0.66572 0.0
O21 O 0.11206 0.91377 0.66421 0.0
O22 O 0.97432 0.93997 0.63246 0.0
O23 O 0.9912 0.79291 0.62471 0.0
O24 O 0.09217 0.92886 0.59856 0.0
O25 O 0.08906 0.07457 0.61016 0.0
C26 C 0.11622 0.99179 0.67593 0.0
C27 C 0.08716 1.01071 0.59396 0.0
C28 C 0.89988 0.23293 0.88244 0.0
C29 C 0.90136 0.90431 0.87801 0.0
O30 O 0.97917 0.19863 0.88498 0.0
Zn31 Zn 0.04132 0.06888 0.88502 0.0
O32 O 0.83211 0.18144 0.87894 0.0
Zn33 Zn 0.89856 0.06805 0.88008 0.0
O34 O 0.95815 0.07414 0.91521 0.0
O35 O 0.10558 0.07569 0.91519 0.0
O36 O 0.83281 0.95617 0.87664 0.0
O37 O 0.98051 0.9381 0.88097 0.0
O38 O 0.11026 0.06311 0.85942 0.0
O39 O 0.96372 0.05638 0.84922 0.0
C40 C 0.0375 0.07647 0.92615 0.0
C41 C 0.04433 0.05596 0.84379 0.0
C42 C 0.21552 0.29293 0.39837 0.0
C43 C 0.88643 0.29554 0.39289 0.0
O44 O 0.18124 0.21397 0.39436 0.0
Zn45 Zn 0.04999 0.15386 0.3892 0.0
O46 O 0.16402 0.36158 0.40053 0.0
Zn47 Zn 0.05151 0.29632 0.39584 0.0
O48 O 0.05933 0.22564 0.42574 0.0
O49 O 0.05359 0.08025 0.41374 0.0
O50 O 0.93825 0.36303 0.3972 0.0
O51 O 0.9204 0.21628 0.38957 0.0
O52 O 0.04465 0.09424 0.35851 0.0
O53 O 0.04836 0.24236 0.36027 0.0
C54 C 0.05883 0.1436 0.43009 0.0
C55 C 0.04612 0.1645 0.34847 0.0
H56 H 0.40539 0.35241 0.13869 0.0
H57 H 0.13231 0.38376 0.15547 0.0
H58 H 0.41256 0.51527 0.13714 0.0
H59 H 0.14024 0.54492 0.15463 0.0
H60 H 0.13225 0.80268 0.1241 0.0
H61 H 0.14038 0.64138 0.12543 0.0
H62 H 0.41227 0.66606 0.15905 0.0
H63 H 0.40492 0.82903 0.15706 0.0
C64 C 0.3475 0.39413 0.14235 0.0
C65 C 0.26787 0.35513 0.14688 0.0
C66 C 0.35164 0.48734 0.14151 0.0
C67 C 0.27635 0.54298 0.14532 0.0
C68 C 0.19857 0.50393 0.15092 0.0
C69 C 0.19419 0.41137 0.15154 0.0
C70 C 0.19408 0.77395 0.13169 0.0
C71 C 0.26758 0.82885 0.14072 0.0
C72 C 0.19857 0.68131 0.13259 0.0
C73 C 0.2763 0.64084 0.1428 0.0
C74 C 0.3514 0.69511 0.15107 0.0
C75 C 0.34715 0.78838 0.14998 0.0
H76 H 0.37879 0.99063 0.62082 0.0
H77 H 0.37655 0.71212 0.6334 0.0
H78 H 0.54013 0.9822 0.62013 0.0
H79 H 0.54072 0.70437 0.63345 0.0
H80 H 0.8314 0.7172 0.61086 0.0
H81 H 0.66726 0.70995 0.61018 0.0
H82 H 0.66695 0.97511 0.64813 0.0
H83 H 0.82822 0.98337 0.64815 0.0
C84 C 0.41296 0.92752 0.62359 0.0
C85 C 0.36498 0.85239 0.62749 0.0
C86 C 0.50578 0.92279 0.62329 0.0
C87 C 0.55378 0.84317 0.62721 0.0
C88 C 0.50569 0.76671 0.63036 0.0
C89 C 0.41188 0.77122 0.63043 0.0
C90 C 0.79588 0.77359 0.61908 0.0
C91 C 0.84247 0.85145 0.6292 0.0
C92 C 0.70209 0.76933 0.61878 0.0
C93 C 0.65375 0.84266 0.62873 0.0
C94 C 0.70148 0.91849 0.63969 0.0
C95 C 0.79427 0.92308 0.63979 0.0
H96 H 0.02321 0.35831 0.90099 0.0
H97 H 0.75456 0.33137 0.86551 0.0
H98 H 0.01567 0.5196 0.89965 0.0
H99 H 0.7479 0.49438 0.8635 0.0
H100 H 0.75251 0.80797 0.88358 0.0
H101 H 0.74468 0.64526 0.88517 0.0
H102 H 0.02089 0.61598 0.87066 0.0
H103 H 0.02939 0.77711 0.86979 0.0
C104 C 0.96238 0.38694 0.89284 0.0
C105 C 0.88988 0.33189 0.88311 0.0
C106 C 0.95826 0.47957 0.89194 0.0
C107 C 0.88197 0.51988 0.881 0.0
C108 C 0.80768 0.46547 0.87204 0.0
C109 C 0.81151 0.37218 0.87315 0.0
C110 C 0.81118 0.76639 0.8806 0.0
C111 C 0.89193 0.80551 0.87688 0.0
C112 C 0.80665 0.67324 0.88145 0.0
C113 C 0.88269 0.61773 0.87848 0.0
C114 C 0.96184 0.65688 0.87372 0.0
C115 C 0.96656 0.74942 0.87307 0.0
H116 H 0.31262 0.44357 0.39464 0.0
H117 H 0.34212 0.16267 0.40475 0.0
H118 H 0.47505 0.45164 0.39279 0.0
H119 H 0.50308 0.17126 0.40364 0.0
H120 H 0.76039 0.17453 0.3732 0.0
H121 H 0.59934 0.18157 0.37492 0.0
H122 H 0.62604 0.44481 0.41377 0.0
H123 H 0.78871 0.43875 0.41138 0.0
C124 C 0.35387 0.38402 0.39679 0.0
C125 C 0.31437 0.30219 0.39955 0.0
C126 C 0.44689 0.38866 0.39578 0.0
C127 C 0.50201 0.31166 0.39763 0.0
C128 C 0.46253 0.23124 0.40145 0.0
C129 C 0.37008 0.22643 0.40225 0.0
C130 C 0.73211 0.23431 0.38201 0.0
C131 C 0.78752 0.30568 0.39237 0.0
C132 C 0.63961 0.2381 0.38314 0.0
C133 C 0.59975 0.31288 0.39493 0.0
C134 C 0.65453 0.38619 0.40455 0.0
C135 C 0.74766 0.38271 0.40321 0.0
H136 H 0.91285 0.03633 0.95337 0.0
H137 H 0.18836 0.12001 0.9558 0.0
H138 H 0.93222 0.03493 0.99456 0.0
H139 H 0.20687 0.12284 0.99717 0.0
H140 H 0.24144 0.03449 0.06809 0.0
H141 H 0.22133 0.03086 0.02674 0.0
H142 H 0.9474 0.12656 0.0296 0.0
H143 H 0.9666 0.12599 0.07086 0.0
C144 C 0.97736 0.05543 0.96276 0.0
C145 C 0.04911 0.07819 0.95131 0.0
C146 C 0.98839 0.05515 0.98645 0.0
C147 C 0.07115 0.07887 0.99936 0.0
C148 C 0.14266 0.1025 0.98785 0.0
C149 C 0.13194 0.10154 0.9641 0.0
C150 C 0.17681 0.05441 0.05986 0.0
C151 C 0.10558 0.08039 0.07276 0.0
C152 C 0.16541 0.05304 0.03612 0.0
C153 C 0.08281 0.07884 0.02468 0.0
C154 C 1.01153 0.10476 0.03767 0.0
C155 C 0.02261 0.10491 0.06139 0.0
H156 H 0.01857 0.98562 0.44539 0.0
H157 H 0.10893 0.25637 0.46893 0.0
H158 H 0.02198 0.95415 0.48477 0.0
H159 H 0.11649 0.22398 0.5083 0.0
H160 H 0.03829 0.16903 0.57685 0.0
H161 H 0.02903 0.2003 0.53731 0.0
H162 H 0.11817 0.92813 0.51744 0.0
H163 H 0.12324 0.89608 0.55675 0.0
C164 C 0.04009 0.03814 0.45899 0.0
C165 C 0.06334 0.1235 0.45403 0.0
C166 C 0.04257 0.02 0.48163 0.0
C167 C 0.06958 0.08642 0.49987 0.0
C168 C 0.09363 0.17159 0.4948 0.0
C169 C 0.08995 0.19006 0.47218 0.0
C170 C 0.0556 0.11588 0.564 0.0
C171 C 0.08126 0.03004 0.56994 0.0
C172 C 0.05093 0.13392 0.54131 0.0
C173 C 0.07304 0.06689 0.52404 0.0
C174 C 0.09898 0.98107 0.53009 0.0
C175 C 0.10243 0.96274 0.55272 0.0
H176 H 0.09654 0.2933 0.32378 0.0
H177 H 1.00425 0.0187 0.31672 0.0
H178 H 0.11036 0.27921 0.28295 0.0
H179 H 0.01708 1.00536 0.2757 0.0
H180 H 0.96601 0.06491 0.19921 0.0
H181 H 0.94463 0.07913 0.23978 0.0
H182 H 0.21391 0.18198 0.25738 0.0
H183 H 0.23601 0.16672 0.21701 0.0
C184 C 0.07839 0.23021 0.31349 0.0
C185 C 0.04948 0.15701 0.3235 0.0
C186 C 0.08678 0.2221 0.29015 0.0
C187 C 0.06503 0.14116 0.27623 0.0
C188 C 0.03385 0.06864 0.28606 0.0
C189 C 0.02691 0.07621 0.30952 0.0
C190 C 0.02057 0.0906 0.21175 0.0
C191 C 0.10271 0.11469 0.20492 0.0
C192 C 1.00843 0.09829 0.23493 0.0
C193 C 0.07754 0.13186 0.25166 0.0
C194 C 0.1593 0.15658 0.24481 0.0
C195 C 0.17203 0.14739 0.22171 0.0
H196 H 0.15818 0.1389 0.70733 0.0
H197 H 0.07086 0.86282 0.70121 0.0
H198 H 0.1462 0.15356 0.74841 0.0
H199 H 0.05792 0.87821 0.74206 0.0
H200 H 0.92743 0.99202 0.80708 0.0
H201 H 0.95153 0.97539 0.76685 0.0
H202 H 0.21892 0.08255 0.78495 0.0
H203 H 0.19553 0.09815 0.82543 0.0
C204 C 0.13703 0.08129 0.71475 0.0
C205 C 0.11531 0.99976 0.701 0.0
C206 C 0.13054 0.08963 0.73825 0.0
C207 C 0.1007 0.01714 0.74833 0.0
C208 C 0.08042 0.93533 0.73467 0.0
C209 C 0.08832 0.92648 0.7113 0.0
C210 C 0.99143 1.01203 0.80253 0.0
C211 C 0.05963 0.04631 0.81943 0.0
C212 C 1.00531 1.00204 0.77951 0.0
C213 C 0.08713 0.02749 0.77284 0.0
C214 C 0.15512 0.06274 0.78967 0.0
C215 C 0.14183 0.07123 0.81279 0.0
loop_
_geom_bond_atom_site_label_1
_geom_bond_atom_site_label_2
_geom_bond_distance
_geom_bond_site_symmetry_2
_ccdc_geom_bond_type
C0 O2 1.247 . S
C0 O4 1.258 1_455 S
C1 O8 1.247 1_455 S
C1 O9 1.258 . S
O2 C0 1.247 . S
O2 Zn3 2.028 . S
Zn3 O2 2.028 . S
Zn3 O7 2.035 . S
Zn3 O9 2.035 1_545 S
Zn3 O10 2.028 . S
O4 C0 1.258 1_655 S
O4 Zn5 2.035 . S
Zn5 O4 2.035 . S
Zn5 O6 2.028 . S
Zn5 O8 2.028 1_545 S
Zn5 O11 2.035 . S
O6 Zn5 2.028 . S
O6 C12 1.247 1_655 S
O7 Zn3 2.035 . S
O7 C12 1.258 . S
O8 C1 1.247 1_655 S
O8 Zn5 2.028 1_565 S
O9 C1 1.258 . S
O9 Zn3 2.035 1_565 S
O10 Zn3 2.028 . S
O10 C13 1.247 . S
O11 Zn5 2.035 . S
O11 C13 1.258 1_655 S
C12 O6 1.247 1_455 S
C12 O7 1.258 . S
C13 O10 1.247 . S
C13 O11 1.258 1_455 S
C14 O16 1.247 1_545 S
C14 O18 1.258 . S
C15 O22 1.247 . S
C15 O23 1.258 1_545 S
O16 C14 1.247 1_565 S
O16 Zn17 2.028 . S
Zn17 O16 2.028 . S
Zn17 O21 2.035 . S
Zn17 O23 2.035 1_455 S
Zn17 O24 2.028 . S
O18 C14 1.258 . S
O18 Zn19 2.035 . S
Zn19 O18 2.035 . S
Zn19 O20 2.028 . S
Zn19 O22 2.028 1_455 S
Zn19 O25 2.035 . S
O20 Zn19 2.028 . S
O20 C26 1.247 . S
O21 Zn17 2.035 . S
O21 C26 1.258 1_565 S
O22 C15 1.247 . S
O22 Zn19 2.028 1_655 S
O23 C15 1.258 1_565 S
O23 Zn17 2.035 1_655 S
O24 Zn17 2.028 . S
O24 C27 1.247 1_565 S
O25 Zn19 2.035 . S
O25 C27 1.258 . S
C26 O20 1.247 . S
C26 O21 1.258 1_545 S
C27 O24 1.247 1_545 S
C27 O25 1.258 . S
C28 O30 1.247 . S
C28 O32 1.258 1_455 S
C29 O36 1.247 1_455 S
C29 O37 1.258 . S
O30 C28 1.247 . S
O30 Zn31 2.028 . S
Zn31 O30 2.028 . S
Zn31 O35 2.035 . S
Zn31 O37 2.035 1_545 S
Zn31 O38 2.028 . S
O32 C28 1.258 1_655 S
O32 Zn33 2.035 . S
Zn33 O32 2.035 . S
Zn33 O34 2.028 . S
Zn33 O36 2.028 1_545 S
Zn33 O39 2.035 . S
O34 Zn33 2.028 . S
O34 C40 1.247 1_655 S
O35 Zn31 2.035 . S
O35 C40 1.258 . S
O36 C29 1.247 1_655 S
O36 Zn33 2.028 1_565 S
O37 C29 1.258 . S
O37 Zn31 2.035 1_565 S
O38 Zn31 2.028 . S
O38 C41 1.247 . S
O39 Zn33 2.035 . S
O39 C41 1.258 1_655 S
C40 O34 1.247 1_455 S
C40 O35 1.258 . S
C41 O38 1.247 . S
C41 O39 1.258 1_455 S
C42 O44 1.247 1_545 S
C42 O46 1.258 . S
C43 O50 1.247 . S
C43 O51 1.258 1_545 S
O44 C42 1.247 1_565 S
O44 Zn45 2.028 . S
Zn45 O44 2.028 . S
Zn45 O49 2.035 . S
Zn45 O51 2.035 1_455 S
Zn45 O52 2.028 . S
O46 C42 1.258 . S
O46 Zn47 2.035 . S
Zn47 O46 2.035 . S
Zn47 O48 2.028 . S
Zn47 O50 2.028 1_455 S
Zn47 O53 2.035 . S
O48 Zn47 2.028 . S
O48 C54 1.247 . S
O49 Zn45 2.035 . S
O49 C54 1.258 1_565 S
O50 C43 1.247 . S
O50 Zn47 2.028 1_655 S
O51 C43 1.258 1_565 S
O51 Zn45 2.035 1_655 S
O52 Zn45 2.028 . S
O52 C55 1.247 1_565 S
O53 Zn47 2.035 . S
O53 C55 1.258 . S
C54 O48 1.247 . S
C54 O49 1.258 1_545 S
C55 O52 1.247 1_545 S
C55 O53 1.258 . S
H56 C64 0.950 . S
H57 C69 0.950 . S
H58 C66 0.950 . S
H59 C68 0.950 . S
H60 C70 0.950 . S
H61 C72 0.950 . S
H62 C74 0.950 . S
H63 C75 0.950 . S
C64 H56 0.950 . S
C64 C65 1.386 . S
C64 C66 1.391 . S
C65 C64 1.386 . S
C65 C69 1.393 1_455 S
C66 H58 0.950 . S
C66 C64 1.391 . S
C66 C67 1.400 . S
C67 C66 1.400 . S
C67 C68 1.398 1_455 S
C67 C73 1.491 . S
C68 H59 0.950 . S
C68 C67 1.398 1_655 S
C68 C69 1.391 . S
C69 H57 0.950 . S
C69 C65 1.393 1_655 S
C69 C68 1.391 . S
C70 H60 0.950 . S
C70 C71 1.386 1_655 S
C70 C72 1.391 . S
C71 C70 1.386 1_455 S
C71 C75 1.393 . S
C72 H61 0.950 . S
C72 C70 1.391 . S
C72 C73 1.400 1_655 S
C73 C67 1.491 . S
C73 C72 1.400 1_455 S
C73 C74 1.398 . S
C74 H62 0.950 . S
C74 C73 1.398 . S
C74 C75 1.391 . S
C75 H63 0.950 . S
C75 C71 1.393 . S
C75 C74 1.391 . S
H76 C84 0.950 . S
H77 C89 0.950 . S
H78 C86 0.950 . S
H79 C88 0.950 . S
H80 C90 0.950 . S
H81 C92 0.950 . S
H82 C94 0.950 . S
H83 C95 0.950 . S
C84 H76 0.950 . S
C84 C85 1.386 . S
C84 C86 1.391 . S
C85 C84 1.386 . S
C85 C89 1.393 1_545 S
C86 H78 0.950 . S
C86 C84 1.391 . S
C86 C87 1.400 . S
C87 C86 1.400 . S
C87 C88 1.398 1_545 S
C87 C93 1.491 . S
C88 H79 0.950 . S
C88 C87 1.398 1_565 S
C88 C89 1.391 . S
C89 H77 0.950 . S
C89 C85 1.393 1_565 S
C89 C88 1.391 . S
C90 H80 0.950 . S
C90 C91 1.386 1_565 S
C90 C92 1.391 . S
C91 C90 1.386 1_545 S
C91 C95 1.393 . S
C92 H81 0.950 . S
C92 C90 1.391 . S
C92 C93 1.400 1_565 S
C93 C87 1.491 . S
C93 C92 1.400 1_545 S
C93 C94 1.398 . S
C94 H82 0.950 . S
C94 C93 1.398 . S
C94 C95 1.391 . S
C95 H83 0.950 . S
C95 C91 1.393 . S
C95 C94 1.391 . S
H96 C104 0.950 . S
H97 C109 0.950 . S
H98 C106 0.950 . S
H99 C108 0.950 . S
H100 C110 0.950 . S
H101 C112 0.950 . S
H102 C114 0.950 . S
H103 C115 0.950 . S
C104 H96 0.950 . S
C104 C105 1.386 . S
C104 C106 1.391 . S
C105 C104 1.386 . S
C105 C109 1.393 1_455 S
C106 H98 0.950 . S
C106 C104 1.391 . S
C106 C107 1.400 . S
C107 C106 1.400 . S
C107 C108 1.398 1_455 S
C107 C113 1.491 . S
C108 H99 0.950 . S
C108 C107 1.398 1_655 S
C108 C109 1.391 . S
C109 H97 0.950 . S
C109 C105 1.393 1_655 S
C109 C108 1.391 . S
C110 H100 0.950 . S
C110 C111 1.386 1_655 S
C110 C112 1.391 . S
C111 C110 1.386 1_455 S
C111 C115 1.393 . S
C112 H101 0.950 . S
C112 C110 1.391 . S
C112 C113 1.400 1_655 S
C113 C107 1.491 . S
C113 C112 1.400 1_455 S
C113 C114 1.398 . S
C114 H102 0.950 . S
C114 C113 1.398 . S
C114 C115 1.391 . S
C115 H103 0.950 . S
C115 C111 1.393 . S
C115 C114 1.391 . S
H116 C124 0.950 . S
H117 C129 0.950 . S
H118 C126 0.950 . S
H119 C128 0.950 . S
H120 C130 0.950 . S
H121 C132 0.950 . S
H122 C134 0.950 . S
H123 C135 0.950 . S
C124 H116 0.950 . S
C124 C125 1.386 . S
C124 C126 1.391 . S
C125 C124 1.386 . S
C125 C129 1.393 . S
C126 H118 0.950 . S
C126 C124 1.391 . S
C126 C127 1.400 . S
C127 C126 1.400 . S
C127 C128 1.398 . S
C127 C133 1.491 . S
C128 H119 0.950 . S
C128 C127 1.398 . S
C128 C129 1.391 . S
C129 H117 0.950 . S
C129 C125 1.393 . S
C129 C128 1.391 . S
C130 H120 0.950 . S
C130 C131 1.386 . S
C130 C132 1.391 . S
C131 C130 1.386 . S
C131 C135 1.393 . S
C132 H121 0.950 . S
C132 C130 1.391 . S
C132 C133 1.400 . S
C133 C127 1.491 . S
C133 C132 1.400 . S
C133 C134 1.398 . S
C134 H122 0.950 . S
C134 C133 1.398 . S
C134 C135 1.391 . S
C135 H123 0.950 . S
C135 C131 1.393 . S
C135 C134 1.391 . S
H136 C144 0.950 . S
H137 C149 0.950 . S
H138 C146 0.950 . S
H139 C148 0.950 . S
H140 C150 0.950 . S
H141 C152 0.950 . S
H142 C154 0.950 . S
H143 C155 0.950 . S
C144 H136 0.950 . S
C144 C145 1.386 1_565 S
C144 C146 1.391 . S
C145 C144 1.386 1_545 S
C145 C149 1.393 . S
C146 H138 0.950 . S
C146 C144 1.391 . S
C146 C147 1.400 1_565 S
C147 C146 1.400 1_545 S
C147 C148 1.398 . S
C147 C153 1.491 1_556 S
C148 H139 0.950 . S
C148 C147 1.398 . S
C148 C149 1.391 . S
C149 H137 0.950 . S
C149 C145 1.393 . S
C149 C148 1.391 . S
C150 H140 0.950 . S
C150 C151 1.386 . S
C150 C152 1.391 . S
C151 C150 1.386 . S
C151 C155 1.393 1_545 S
C152 H141 0.950 . S
C152 C150 1.391 . S
C152 C153 1.400 . S
C153 C147 1.491 1_554 S
C153 C152 1.400 . S
C153 C154 1.398 1_545 S
C154 H142 0.950 . S
C154 C153 1.398 1_565 S
C154 C155 1.391 . S
C155 H143 0.950 . S
C155 C151 1.393 1_565 S
C155 C154 1.391 . S
H156 C164 0.950 . S
H157 C169 0.950 . S
H158 C166 0.950 . S
H159 C168 0.950 . S
H160 C170 0.950 . S
H161 C172 0.950 . S
H162 C174 0.950 . S
H163 C175 0.950 . S
C164 H156 0.950 . S
C164 C165 1.386 1_565 S
C164 C166 1.391 . S
C165 C164 1.386 1_545 S
C165 C169 1.393 . S
C166 H158 0.950 . S
C166 C164 1.391 . S
C166 C167 1.400 1_565 S
C167 C166 1.400 1_545 S
C167 C168 1.398 . S
C167 C173 1.491 . S
C168 H159 0.950 . S
C168 C167 1.398 . S
C168 C169 1.391 . S
C169 H157 0.950 . S
C169 C165 1.393 . S
C169 C168 1.391 . S
C170 H160 0.950 . S
C170 C171 1.386 . S
C170 C172 1.391 . S
C171 C170 1.386 . S
C171 C175 1.393 1_545 S
C172 H161 0.950 . S
C172 C170 1.391 . S
C172 C173 1.400 . S
C173 C167 1.491 . S
C173 C172 1.400 . S
C173 C174 1.398 1_545 S
C174 H162 0.950 . S
C174 C173 1.398 1_565 S
C174 C175 1.391 . S
C175 H163 0.950 . S
C175 C171 1.393 1_565 S
C175 C174 1.391 . S
H176 C184 0.950 . S
H177 C189 0.950 . S
H178 C186 0.950 . S
H179 C188 0.950 . S
H180 C190 0.950 . S
H181 C192 0.950 . S
H182 C194 0.950 . S
H183 C195 0.950 . S
C184 H176 0.950 . S
C184 C185 1.386 . S
C184 C186 1.391 . S
C185 C184 1.386 . S
C185 C189 1.393 1_455 S
C186 H178 0.950 . S
C186 C184 1.391 . S
C186 C187 1.400 . S
C187 C186 1.400 . S
C187 C188 1.398 1_455 S
C187 C193 1.491 . S
C188 H179 0.950 . S
C188 C187 1.398 1_655 S
C188 C189 1.391 . S
C189 H177 0.950 . S
C189 C185 1.393 1_655 S
C189 C188 1.391 . S
C190 H180 0.950 . S
C190 C191 1.386 1_655 S
C190 C192 1.391 . S
C191 C190 1.386 1_455 S
C191 C195 1.393 . S
C192 H181 0.950 . S
C192 C190 1.391 . S
C192 C193 1.400 1_655 S
C193 C187 1.491 . S
C193 C192 1.400 1_455 S
C193 C194 1.398 . S
C194 H182 0.950 . S
C194 C193 1.398 . S
C194 C195 1.391 . S
C195 H183 0.950 . S
C195 C191 1.393 . S
C195 C194 1.391 . S
H196 C204 0.950 . S
H197 C209 0.950 . S
H198 C206 0.950 . S
H199 C208 0.950 . S
H200 C210 0.950 . S
H201 C212 0.950 . S
H202 C214 0.950 . S
H203 C215 0.950 . S
C204 H196 0.950 . S
C204 C205 1.386 . S
C204 C206 1.391 . S
C205 C204 1.386 . S
C205 C209 1.393 1_455 S
C206 H198 0.950 . S
C206 C204 1.391 . S
C206 C207 1.400 . S
C207 C206 1.400 . S
C207 C208 1.398 1_455 S
C207 C213 1.491 . S
C208 H199 0.950 . S
C208 C207 1.398 1_655 S
C208 C209 1.391 . S
C209 H197 0.950 . S
C209 C205 1.393 1_655 S
C209 C208 1.391 . S
C210 H200 0.950 . S
C210 C211 1.386 1_655 S
C210 C212 1.391 . S
C211 C210 1.386 1_455 S
C211 C215 1.393 . S
C212 H201 0.950 . S
C212 C210 1.391 . S
C212 C213 1.400 1_655 S
C213 C207 1.491 . S
C213 C212 1.400 1_455 S
C213 C214 1.398 . S
C214 H202 0.950 . S
C214 C213 1.398 . S
C214 C215 1.391 . S
C215 H203 0.950 . S
C215 C211 1.393 . S
C215 C214 1.391 . S
C65 C0 1.500 . S
C71 C1 1.500 . S
C85 C14 1.495 . S
C91 C15 1.495 . S
C105 C28 1.500 . S
C111 C29 1.500 . S
C125 C42 1.497 . S
C131 C43 1.497 . S
C145 C40 1.498 . S
C151 C13 1.498 . S
C165 C54 1.496 . S
C171 C27 1.496 . S
C185 C55 1.498 . S
C191 C12 1.496 . S
C205 C26 1.499 . S
C211 C41 1.496 . S
