# Generated by pormake.
# Topology pcu, (6)-cn, num edge types: 1
# Building blocks:
#     Node 0, Type 0, BuildingBlock: BETDEL_clean_sbu_0, # of connection points: 6
#     Edge 1, Type (0, 0), BuildingBlock: AJUNOK_clean_linker_0, # of connection points: 2
#     Edge 2, Type (0, 0), BuildingBlock: AJUNOK_clean_linker_0, # of connection points: 2
#     Edge 3, Type (0, 0), BuildingBlock: AJUNOK_clean_linker_0, # of connection points: 2
# Relax obj value: 0.000
# Max RMSD: 0.000
# Mean RMSD: 0.000
data_MOF--net-pcu--node1-BETDEL_clean_sbu_0--edge1-AJUNOK_clean_linker_0
_symmetry_space_group_name_H-M    P1
_symmetry_Int_Tables_number       1
_symmetry_cell_setting            triclinic
loop_
_symmetry_equiv_pos_as_xyz
'x, y, z'
_cell_length_a     11.337022
_cell_length_b     14.434495
_cell_length_c     10.346599
_cell_angle_alpha  102.90104
_cell_angle_beta   91.699022
_cell_angle_gamma 102.75659
loop_
_atom_site_label
_atom_site_type_symbol
_atom_site_fract_x
_atom_site_fract_y
_atom_site_fract_z
_atom_type_partial_charge
Dy0 Dy 0.00774 0.07787 0.05489 0.0
C1 C 0.96325 0.65561 1.02888 0.0
C2 C 0.00477 0.26365 0.04243 0.0
Dy3 Dy 0.948 0.8385 1.01406 0.0
O4 O 0.92259 0.20563 0.08996 0.0
O5 O 0.09016 0.21972 0.99923 0.0
O6 O 0.02799 0.11285 0.28031 0.0
O7 O -0.01121 -0.02958 0.17175 0.0
C8 C 0.00323 0.02227 0.28823 0.0
C9 C 0.94702 0.89451 0.78082 0.0
O10 O 0.76484 0.8699 0.05031 0.0
O11 O 0.80947 0.02111 0.99311 0.0
O12 O 0.03568 0.71269 0.97017 0.0
O13 O 0.87964 0.69849 0.08105 0.0
O14 O 0.92156 0.8036 0.78781 0.0
O15 O 0.96705 0.94588 0.89767 0.0
O16 O 0.18937 0.04674 1.01685 0.0
O17 O 0.14817 0.89426 0.07038 0.0
C18 C 0.73187 0.94762 1.0245 0.0
C19 C 0.22451 -0.02976 0.04291 0.0
C20 C 0.98138 0.89232 0.41671 0.0
C21 C -0.01412 -0.01036 0.41313 0.0
C22 C 0.96711 0.86212 0.53639 0.0
C23 C 0.95678 0.92819 0.65609 0.0
H24 H -0.00943 0.83964 0.32716 0.0
H25 H 0.96603 0.78673 0.53544 0.0
S26 S 0.94864 0.18803 0.69546 0.0
N27 N 0.96994 0.15022 0.53715 0.0
N28 N 0.94205 0.09276 0.7608 0.0
C29 C 0.95755 0.02477 0.65269 0.0
C30 C 0.97238 0.05565 0.53137 0.0
C31 C 0.38895 0.87846 0.03645 0.0
C32 C 0.35464 -0.03267 0.04083 0.0
C33 C 0.51061 0.87238 1.03127 0.0
C34 C 0.6031 0.95479 1.02978 0.0
H35 H 0.32123 0.81229 1.03551 0.0
H36 H 0.53188 0.80227 1.02717 0.0
S37 S 0.56262 0.20661 0.04812 0.0
N38 N 0.42413 0.14044 0.04882 0.0
N39 N 0.6519 0.12977 0.03919 0.0
C40 C 0.57011 0.04458 1.03592 0.0
C41 C 0.4463 0.05063 0.04131 0.0
C42 C 0.89102 0.4963 0.09225 0.0
C43 C 0.97618 0.55646 1.03276 0.0
C44 C 0.90164 0.40172 0.09475 0.0
C45 C -0.00208 0.36401 0.03828 0.0
H46 H 0.81542 0.52216 0.13665 0.0
H47 H 0.83355 0.35785 0.14151 0.0
S48 S 0.24538 0.4923 0.87096 0.0
N49 N 0.16071 0.57166 0.91616 0.0
N50 N 0.17997 0.3941 0.92165 0.0
C51 C 0.08393 0.42343 0.97901 0.0
C52 C 0.07315 0.51964 0.97609 0.0
loop_
_geom_bond_atom_site_label_1
_geom_bond_atom_site_label_2
_geom_bond_distance
_geom_bond_site_symmetry_2
_ccdc_geom_bond_type
Dy0 O4 2.398 . S
Dy0 O5 2.491 1_554 S
Dy0 O6 2.403 . S
Dy0 O7 2.664 1_545 S
Dy0 O11 2.326 1_455 S
Dy0 O15 2.309 1_454 S
Dy0 O16 2.351 . S
C1 O12 1.185 . S
C1 O13 1.355 1_556 S
C2 O4 1.185 . S
C2 O5 1.355 1_554 S
Dy3 O7 2.310 1_656 S
Dy3 O10 2.351 . S
Dy3 O12 2.398 . S
Dy3 O13 2.491 1_556 S
Dy3 O14 2.403 . S
Dy3 O15 2.663 1_565 S
Dy3 O17 2.326 1_655 S
O4 Dy0 2.398 . S
O4 C2 1.185 . S
O5 Dy0 2.491 1_556 S
O5 C2 1.355 1_556 S
O6 Dy0 2.403 . S
O6 C8 1.254 . S
O7 Dy0 2.664 1_565 S
O7 Dy3 2.310 1_454 S
O7 C8 1.268 1_565 S
C8 O6 1.254 . S
C8 O7 1.268 1_545 S
C9 O14 1.254 . S
C9 O15 1.267 1_565 S
O10 Dy3 2.351 . S
O10 C18 1.249 1_556 S
O11 Dy0 2.326 1_655 S
O11 C18 1.267 1_545 S
O12 C1 1.185 . S
O12 Dy3 2.398 . S
O13 C1 1.355 1_554 S
O13 Dy3 2.491 1_554 S
O14 Dy3 2.403 . S
O14 C9 1.254 . S
O15 Dy0 2.309 1_656 S
O15 Dy3 2.663 1_545 S
O15 C9 1.267 1_545 S
O16 Dy0 2.351 . S
O16 C19 1.249 1_554 S
O17 Dy3 2.326 1_455 S
O17 C19 1.267 1_565 S
C18 O10 1.249 1_554 S
C18 O11 1.267 1_565 S
C19 O16 1.249 1_556 S
C19 O17 1.267 1_545 S
C20 C21 1.369 1_465 S
C20 C22 1.419 . S
C20 H24 0.930 . S
C21 C20 1.369 1_645 S
C21 C30 1.429 . S
C22 C20 1.419 . S
C22 C23 1.355 1_465 S
C22 H25 0.929 . S
C23 C22 1.355 1_645 S
C23 C29 1.438 . S
H24 C20 0.930 . S
H25 C22 0.929 . S
S26 N27 1.613 . S
S26 N28 1.610 . S
N27 S26 1.613 . S
N27 C30 1.350 . S
N28 S26 1.610 . S
N28 C29 1.351 . S
C29 C23 1.438 . S
C29 N28 1.351 . S
C29 C30 1.434 . S
C30 C21 1.429 . S
C30 N27 1.350 . S
C30 C29 1.434 . S
C31 C32 1.368 1_566 S
C31 C33 1.419 . S
C31 H35 0.930 . S
C32 C31 1.368 1_544 S
C32 C41 1.430 . S
C33 C31 1.419 . S
C33 C34 1.361 1_566 S
C33 H36 0.929 . S
C34 C33 1.361 1_544 S
C34 C40 1.430 . S
H35 C31 0.930 . S
H36 C33 0.929 . S
S37 N38 1.613 . S
S37 N39 1.610 . S
N38 S37 1.613 . S
N38 C41 1.350 . S
N39 S37 1.610 . S
N39 C40 1.351 . S
C40 C34 1.430 . S
C40 N39 1.351 . S
C40 C41 1.434 . S
C41 C32 1.430 . S
C41 N38 1.350 . S
C41 C40 1.434 . S
C42 C43 1.369 1_554 S
C42 C44 1.419 . S
C42 H46 0.930 . S
C43 C42 1.369 1_556 S
C43 C52 1.428 1_655 S
C44 C42 1.419 . S
C44 C45 1.363 1_554 S
C44 H47 0.929 . S
C45 C44 1.363 1_556 S
C45 C51 1.428 1_655 S
H46 C42 0.930 . S
H47 C44 0.929 . S
S48 N49 1.613 . S
S48 N50 1.610 . S
N49 S48 1.613 . S
N49 C52 1.350 . S
N50 S48 1.610 . S
N50 C51 1.351 . S
C51 C45 1.428 1_455 S
C51 N50 1.351 . S
C51 C52 1.434 . S
C52 C43 1.428 1_455 S
C52 N49 1.350 . S
C52 C51 1.434 . S
C21 C8 1.454 1_655 S
C23 C9 1.456 1_545 S
C32 C19 1.490 1_554 S
C34 C18 1.492 1_545 S
C43 C1 1.482 . S
C45 C2 1.483 1_656 S
