# Generated by pormake.
# Topology rob, (6)-cn, num edge types: 1
# Building blocks:
#     Node 0, Type 0, BuildingBlock: GEDQOX_clean_sbu_0, # of connection points: 6
#     Node 1, Type 0, BuildingBlock: GEDQOX_clean_sbu_0, # of connection points: 6
#     Node 2, Type 0, BuildingBlock: GEDQOX_clean_sbu_0, # of connection points: 6
#     Node 3, Type 0, BuildingBlock: GEDQOX_clean_sbu_0, # of connection points: 6
#     Edge 4, Type (0, 0), None
#     Edge 5, Type (0, 0), None
#     Edge 6, Type (0, 0), None
#     Edge 7, Type (0, 0), None
#     Edge 8, Type (0, 0), None
#     Edge 9, Type (0, 0), None
#     Edge 10, Type (0, 0), None
#     Edge 11, Type (0, 0), None
#     Edge 12, Type (0, 0), None
#     Edge 13, Type (0, 0), None
#     Edge 14, Type (0, 0), None
#     Edge 15, Type (0, 0), None
# Relax obj value: 0.122
# Max RMSD: 0.274
# Mean RMSD: 0.242
data_MOF--net-rob--node1-GEDQOX_clean_sbu_0--edge1-none
_symmetry_space_group_name_H-M    P1
_symmetry_Int_Tables_number       1
_symmetry_cell_setting            triclinic
loop_
_symmetry_equiv_pos_as_xyz
'x, y, z'
_cell_length_a     11.832
_cell_length_b     25.525
_cell_length_c     16.628
_cell_angle_alpha  113.737
_cell_angle_beta   129.829
_cell_angle_gamma 37.402
loop_
_atom_site_label
_atom_site_type_symbol
_atom_site_fract_x
_atom_site_fract_y
_atom_site_fract_z
_atom_type_partial_charge
Nd0 Nd 0.09966 0.34625 0.97929 0.0
Nd1 Nd 0.40244 0.15273 0.03279 0.0
C2 C 0.21429 0.40689 0.9857 0.0
C3 C 0.28024 0.44175 0.98951 0.0
C4 C 0.26715 0.44745 0.90219 0.0
C5 C 0.34897 0.47074 0.90819 0.0
C6 C 0.45439 0.48833 0.003 0.0
C7 C 0.46813 0.48175 0.09077 0.0
C8 C 0.38496 0.45883 0.08426 0.0
C9 C 0.33082 0.29806 0.18234 0.0
C10 C 0.39894 0.22938 0.89052 0.0
C11 C 0.30662 0.08062 0.01644 0.0
C12 C 0.22215 0.05702 0.01895 0.0
C13 C 0.22736 0.05656 0.1062 0.0
C14 C 0.14259 0.03493 0.10171 0.0
C15 C 0.04334 0.01413 0.00888 0.0
C16 C 0.03613 0.01676 0.92162 0.0
C17 C 0.12296 0.03705 0.92691 0.0
C18 C 0.16734 0.20253 0.82973 0.0
C19 C 0.09954 0.27032 0.1199 0.0
O20 O 0.0022 0.44942 0.91853 0.0
O21 O 0.35691 0.33685 0.05433 0.0
O22 O 0.12634 0.37901 0.12972 0.0
O23 O 0.41527 0.24352 0.12823 0.0
O24 O 0.18784 0.30222 0.86089 0.0
O25 O 0.53532 0.16217 0.96836 0.0
O26 O 0.51514 0.04145 0.08809 0.0
O27 O 0.15883 0.15522 0.95468 0.0
O28 O 0.37568 0.12271 0.88232 0.0
O29 O 0.08466 0.25595 0.88482 0.0
O30 O 0.31018 0.1971 0.14929 0.0
O31 O 0.9644 0.3376 0.04278 0.0
H32 H 0.1933 0.43342 0.82808 0.0
H33 H 0.32822 0.47405 0.83652 0.0
H34 H 0.54629 0.49303 0.1666 0.0
H35 H 0.40956 0.45199 0.15573 0.0
H36 H 0.29996 0.07175 0.17891 0.0
H37 H 0.15533 0.03535 0.17225 0.0
H38 H 0.96473 0.00251 0.84733 0.0
H39 H 0.10851 0.03832 0.85634 0.0
Nd40 Nd 0.59869 0.84647 0.97904 0.0
Nd41 Nd 0.90288 0.65262 0.03287 0.0
C42 C 0.71286 0.9072 0.98519 0.0
C43 C 0.77872 0.94212 0.9891 0.0
C44 C 0.76568 0.9478 0.90179 0.0
C45 C 0.84745 0.9711 0.90778 0.0
C46 C 0.9529 0.98868 0.00258 0.0
C47 C 0.9668 0.98204 0.09039 0.0
C48 C 0.88366 0.95911 0.0839 0.0
C49 C 0.82957 0.79824 0.1822 0.0
C50 C 0.90028 0.72916 0.8912 0.0
C51 C 0.80935 0.57969 0.01698 0.0
C52 C 0.72415 0.55647 0.01951 0.0
C53 C 0.72939 0.55601 0.10678 0.0
C54 C 0.64449 0.53444 0.10226 0.0
C55 C 0.54505 0.51371 0.00939 0.0
C56 C 0.53782 0.51634 0.92214 0.0
C57 C 0.62475 0.53658 0.92744 0.0
C58 C 0.66797 0.70244 0.82972 0.0
C59 C 0.5971 0.77078 0.11878 0.0
O60 O 0.5007 0.94977 0.9181 0.0
O61 O 0.85537 0.83735 0.0541 0.0
O62 O 0.62516 0.87921 0.12955 0.0
O63 O 0.91414 0.74383 0.1281 0.0
O64 O 0.68901 0.802 0.86141 0.0
O65 O 0.03651 0.66194 0.96895 0.0
O66 O 0.01707 0.54121 0.08928 0.0
O67 O 0.66174 0.65375 0.95422 0.0
O68 O 0.87638 0.62265 0.88237 0.0
O69 O 0.58509 0.75576 0.88477 0.0
O70 O 0.80781 0.69752 0.14829 0.0
O71 O 0.46237 0.83808 0.0419 0.0
H72 H 0.69184 0.93377 0.82768 0.0
H73 H 0.82658 0.97446 0.83608 0.0
H74 H 0.04499 0.99331 0.16622 0.0
H75 H 0.90836 0.95222 0.15538 0.0
H76 H 0.80221 0.57113 0.17953 0.0
H77 H 0.65732 0.53482 0.17282 0.0
H78 H 0.46631 0.50215 0.84782 0.0
H79 H 0.61037 0.53782 0.85688 0.0
Nd80 Nd 0.3979 0.69906 0.48407 0.0
Nd81 Nd 0.09756 0.80314 0.52748 0.0
C82 C 0.50276 0.6933 0.36875 0.0
C83 C 0.51818 0.72159 0.30877 0.0
C84 C 0.36561 0.75412 0.19469 0.0
C85 C 0.37803 0.77611 0.13462 0.0
C86 C 0.54266 0.76886 0.18327 0.0
C87 C 0.70164 0.73298 0.29739 0.0
C88 C 0.68955 0.71088 0.35773 0.0
C89 C 0.46931 0.54855 0.50406 0.0
C90 C 0.949 0.7747 0.29375 0.0
C91 C 0.99454 0.80829 0.64333 0.0
C92 C 0.97988 0.77942 0.70294 0.0
C93 C 0.1349 0.74521 0.8168 0.0
C94 C 0.12124 0.72343 0.87631 0.0
C95 C 0.95436 0.73184 0.82724 0.0
C96 C 0.79418 0.76887 0.71344 0.0
C97 C 0.80655 0.79125 0.65371 0.0
C98 C 0.02626 0.95362 0.50758 0.0
C99 C 0.5468 0.72667 0.71816 0.0
O100 O 0.30405 0.73714 0.33361 0.0
O101 O 0.65464 0.64854 0.46912 0.0
O102 O 0.57606 0.54692 0.49309 0.0
O103 O 0.33118 0.6384 0.5128 0.0
O104 O 0.16222 0.70115 0.34238 0.0
O105 O 0.8633 0.83445 0.34605 0.0
O106 O 0.19318 0.7642 0.67796 0.0
O107 O 0.8417 0.85367 0.54319 0.0
O108 O 0.91939 0.95528 0.51847 0.0
O109 O 0.16448 0.86376 0.49886 0.0
O110 O 0.33382 0.8004 0.66998 0.0
O111 O 0.63206 0.6674 0.66544 0.0
H112 H 0.23853 0.75936 0.1497 0.0
H113 H 0.26195 0.79575 0.04807 0.0
H114 H 0.844 0.71882 0.34118 0.0
H115 H 0.81989 0.68314 0.4434 0.0
H116 H 0.26506 0.73841 0.86215 0.0
H117 H 0.23768 0.70329 0.96278 0.0
H118 H 0.65072 0.78368 0.66944 0.0
H119 H 0.67504 0.82001 0.56824 0.0
Nd120 Nd 0.89838 0.19897 0.48432 0.0
Nd121 Nd 0.59731 0.30318 0.52734 0.0
C122 C 0.00434 0.193 0.3695 0.0
C123 C 0.02023 0.22116 0.30968 0.0
C124 C 0.86728 0.254 0.19567 0.0
C125 C 0.88003 0.27586 0.13567 0.0
C126 C 0.04531 0.26826 0.18438 0.0
C127 C 0.20472 0.23204 0.29843 0.0
C128 C 0.19238 0.21 0.35868 0.0
C129 C 0.96945 0.04853 0.50415 0.0
C130 C 0.44989 0.27456 0.29379 0.0
C131 C 0.49317 0.30853 0.64265 0.0
C132 C 0.47835 0.27969 0.7022 0.0
C133 C 0.63312 0.24563 0.81608 0.0
C134 C 0.61945 0.22387 0.8756 0.0
C135 C 0.45289 0.2321 0.82652 0.0
C136 C 0.29283 0.26902 0.71268 0.0
C137 C 0.30516 0.29142 0.65294 0.0
C138 C 0.52618 0.45363 0.50752 0.0
C139 C 0.04631 0.22673 0.71824 0.0
O140 O 0.80545 0.23687 0.33413 0.0
O141 O 0.15587 0.14829 0.46987 0.0
O142 O 0.07639 0.04686 0.4933 0.0
O143 O 0.83122 0.1384 0.5128 0.0
O144 O 0.66307 0.20098 0.34252 0.0
O145 O 0.36383 0.33435 0.34595 0.0
O146 O 0.69187 0.26456 0.6776 0.0
O147 O 0.34077 0.35371 0.54245 0.0
O148 O 0.41917 0.45531 0.51831 0.0
O149 O 0.66455 0.36374 0.49891 0.0
O150 O 0.83332 0.30046 0.67001 0.0
O151 O 0.13186 0.16745 0.66563 0.0
H152 H 0.7396 0.25957 0.15064 0.0
H153 H 0.76377 0.29563 0.04912 0.0
H154 H 0.34757 0.21758 0.34223 0.0
H155 H 0.32308 0.18196 0.4443 0.0
H156 H 0.76303 0.23896 0.86143 0.0
H157 H 0.73555 0.20395 0.9621 0.0
H158 H 0.14949 0.28375 0.66868 0.0
H159 H 0.17376 0.32011 0.56745 0.0
loop_
_geom_bond_atom_site_label_1
_geom_bond_atom_site_label_2
_geom_bond_distance
_geom_bond_site_symmetry_2
_ccdc_geom_bond_type
Nd0 C2 2.836 1_554 S
Nd0 O20 2.500 1_454 S
Nd0 O21 2.492 . S
Nd0 O22 2.487 . S
Nd0 O23 2.682 . S
Nd0 O24 2.410 . S
Nd0 O29 2.414 1_554 S
Nd0 O31 2.424 1_455 S
Nd1 C11 2.836 . S
Nd1 O23 2.414 . S
Nd1 O25 2.424 1_554 S
Nd1 O26 2.500 . S
Nd1 O27 2.492 1_554 S
Nd1 O28 2.487 1_554 S
Nd1 O29 2.682 1_554 S
Nd1 O30 2.410 . S
C2 Nd0 2.836 1_556 S
C2 C3 1.498 . S
C2 O20 1.258 1_455 S
C2 O21 1.239 1_556 S
C3 C2 1.498 . S
C3 C4 1.366 . S
C3 C8 1.407 . S
C4 C3 1.366 . S
C4 C5 1.392 . S
C4 H32 0.930 1_455 S
C5 C4 1.392 . S
C5 C6 1.398 . S
C5 H33 0.929 1_455 S
C6 C5 1.398 . S
C6 C7 1.352 . S
C7 C6 1.352 . S
C7 C8 1.384 . S
C7 H34 0.930 1_556 S
C8 C3 1.407 . S
C8 C7 1.384 . S
C8 H35 0.929 1_556 S
C9 O22 1.241 . S
C9 O23 1.273 . S
C10 O24 1.251 1_556 S
C10 O25 1.268 . S
C11 Nd1 2.836 . S
C11 C12 1.498 1_545 S
C11 O26 1.258 . S
C11 O27 1.239 1_554 S
C12 C11 1.498 1_565 S
C12 C13 1.366 . S
C12 C17 1.407 . S
C13 C12 1.366 . S
C13 C14 1.392 . S
C13 H36 0.930 1_565 S
C14 C13 1.392 . S
C14 C15 1.398 . S
C14 H37 0.929 . S
C15 C14 1.398 . S
C15 C16 1.352 . S
C16 C15 1.352 . S
C16 C17 1.384 . S
C16 H38 0.930 . S
C17 C12 1.407 . S
C17 C16 1.384 . S
C17 H39 0.929 1_554 S
C18 O28 1.241 1_655 S
C18 O29 1.273 1_655 S
C19 O30 1.251 1_655 S
C19 O31 1.268 . S
O20 Nd0 2.500 1_656 S
O20 C2 1.258 1_655 S
O21 Nd0 2.492 . S
O21 C2 1.239 1_554 S
O22 Nd0 2.487 . S
O22 C9 1.241 . S
O23 Nd0 2.682 . S
O23 Nd1 2.414 . S
O23 C9 1.273 . S
O24 Nd0 2.410 . S
O24 C10 1.251 1_554 S
O25 Nd1 2.424 1_556 S
O25 C10 1.268 . S
O26 Nd1 2.500 . S
O26 C11 1.258 . S
O27 Nd1 2.492 1_556 S
O27 C11 1.239 1_556 S
O28 Nd1 2.487 1_556 S
O28 C18 1.241 1_455 S
O29 Nd0 2.414 1_556 S
O29 Nd1 2.682 1_556 S
O29 C18 1.273 1_455 S
O30 Nd1 2.410 . S
O30 C19 1.251 1_455 S
O31 Nd0 2.424 1_655 S
O31 C19 1.268 . S
H32 C4 0.930 1_655 S
H33 C5 0.929 1_655 S
H34 C7 0.930 1_554 S
H35 C8 0.929 1_554 S
H36 C13 0.930 1_545 S
H37 C14 0.929 . S
H38 C16 0.930 . S
H39 C17 0.929 1_556 S
Nd40 C42 2.836 1_554 S
Nd40 O60 2.500 1_554 S
Nd40 O61 2.492 . S
Nd40 O62 2.487 . S
Nd40 O63 2.682 . S
Nd40 O64 2.410 . S
Nd40 O69 2.414 1_554 S
Nd40 O71 2.424 . S
Nd41 C51 2.836 . S
Nd41 O63 2.414 . S
Nd41 O65 2.424 1_654 S
Nd41 O66 2.500 1_655 S
Nd41 O67 2.492 1_554 S
Nd41 O68 2.487 1_554 S
Nd41 O69 2.682 1_554 S
Nd41 O70 2.410 . S
C42 Nd40 2.836 1_556 S
C42 C43 1.498 1_565 S
C42 O60 1.258 . S
C42 O61 1.239 1_556 S
C43 C42 1.498 1_545 S
C43 C44 1.366 . S
C43 C48 1.407 . S
C44 C43 1.366 . S
C44 C45 1.392 . S
C44 H72 0.930 1_545 S
C45 C44 1.392 . S
C45 C46 1.398 . S
C45 H73 0.929 . S
C46 C45 1.398 . S
C46 C47 1.352 . S
C47 C46 1.352 . S
C47 C48 1.384 . S
C47 H74 0.930 1_556 S
C48 C43 1.407 . S
C48 C47 1.384 . S
C48 H75 0.929 1_556 S
C49 O62 1.241 1_455 S
C49 O63 1.273 1_455 S
C50 O64 1.251 1_456 S
C50 O65 1.268 . S
C51 Nd41 2.836 . S
C51 C52 1.498 . S
C51 O66 1.258 1_655 S
C51 O67 1.239 1_554 S
C52 C51 1.498 . S
C52 C53 1.366 . S
C52 C57 1.407 . S
C53 C52 1.366 . S
C53 C54 1.392 . S
C53 H76 0.930 1_655 S
C54 C53 1.392 . S
C54 C55 1.398 . S
C54 H77 0.929 1_655 S
C55 C54 1.398 . S
C55 C56 1.352 . S
C56 C55 1.352 . S
C56 C57 1.384 . S
C56 H78 0.930 . S
C57 C52 1.407 . S
C57 C56 1.384 . S
C57 H79 0.929 1_554 S
C58 O68 1.241 . S
C58 O69 1.273 . S
C59 O70 1.251 . S
C59 O71 1.268 . S
O60 Nd40 2.500 1_556 S
O60 C42 1.258 . S
O61 Nd40 2.492 . S
O61 C42 1.239 1_554 S
O62 Nd40 2.487 . S
O62 C49 1.241 1_655 S
O63 Nd40 2.682 . S
O63 Nd41 2.414 . S
O63 C49 1.273 1_655 S
O64 Nd40 2.410 . S
O64 C50 1.251 1_654 S
O65 Nd41 2.424 1_456 S
O65 C50 1.268 . S
O66 Nd41 2.500 1_455 S
O66 C51 1.258 1_455 S
O67 Nd41 2.492 1_556 S
O67 C51 1.239 1_556 S
O68 Nd41 2.487 1_556 S
O68 C58 1.241 . S
O69 Nd40 2.414 1_556 S
O69 Nd41 2.682 1_556 S
O69 C58 1.273 . S
O70 Nd41 2.410 . S
O70 C59 1.251 . S
O71 Nd40 2.424 . S
O71 C59 1.268 . S
H72 C44 0.930 1_565 S
H73 C45 0.929 . S
H74 C47 0.930 1_554 S
H75 C48 0.929 1_554 S
H76 C53 0.930 1_455 S
H77 C54 0.929 1_455 S
H78 C56 0.930 . S
H79 C57 0.929 1_556 S
Nd80 C82 2.836 . S
Nd80 O100 2.500 . S
Nd80 O101 2.492 . S
Nd80 O102 2.487 . S
Nd80 O103 2.682 . S
Nd80 O104 2.410 . S
Nd80 O109 2.414 . S
Nd80 O111 2.424 . S
Nd81 C91 2.836 . S
Nd81 O103 2.414 1_655 S
Nd81 O105 2.424 . S
Nd81 O106 2.500 1_655 S
Nd81 O107 2.492 . S
Nd81 O108 2.487 . S
Nd81 O109 2.682 1_655 S
Nd81 O110 2.410 1_655 S
C82 Nd80 2.836 . S
C82 C83 1.498 . S
C82 O100 1.258 . S
C82 O101 1.239 . S
C83 C82 1.498 . S
C83 C84 1.366 . S
C83 C88 1.407 . S
C84 C83 1.366 . S
C84 C85 1.392 . S
C84 H112 0.930 . S
C85 C84 1.392 . S
C85 C86 1.398 . S
C85 H113 0.929 . S
C86 C85 1.398 . S
C86 C87 1.352 . S
C87 C86 1.352 . S
C87 C88 1.384 . S
C87 H114 0.930 . S
C88 C83 1.407 . S
C88 C87 1.384 . S
C88 H115 0.929 . S
C89 O102 1.241 . S
C89 O103 1.273 . S
C90 O104 1.251 . S
C90 O105 1.268 1_455 S
C91 Nd81 2.836 . S
C91 C92 1.498 . S
C91 O106 1.258 1_655 S
C91 O107 1.239 . S
C92 C91 1.498 . S
C92 C93 1.366 1_655 S
C92 C97 1.407 . S
C93 C92 1.366 1_455 S
C93 C94 1.392 . S
C93 H116 0.930 . S
C94 C93 1.392 . S
C94 C95 1.398 1_455 S
C94 H117 0.929 . S
C95 C94 1.398 1_655 S
C95 C96 1.352 . S
C96 C95 1.352 . S
C96 C97 1.384 . S
C96 H118 0.930 . S
C97 C92 1.407 . S
C97 C96 1.384 . S
C97 H119 0.929 . S
C98 O108 1.241 . S
C98 O109 1.273 1_655 S
C99 O110 1.251 . S
C99 O111 1.268 . S
O100 Nd80 2.500 . S
O100 C82 1.258 . S
O101 Nd80 2.492 . S
O101 C82 1.239 . S
O102 Nd80 2.487 . S
O102 C89 1.241 . S
O103 Nd80 2.682 . S
O103 Nd81 2.414 1_455 S
O103 C89 1.273 . S
O104 Nd80 2.410 . S
O104 C90 1.251 . S
O105 Nd81 2.424 . S
O105 C90 1.268 1_655 S
O106 Nd81 2.500 1_455 S
O106 C91 1.258 1_455 S
O107 Nd81 2.492 . S
O107 C91 1.239 . S
O108 Nd81 2.487 . S
O108 C98 1.241 . S
O109 Nd80 2.414 . S
O109 Nd81 2.682 1_455 S
O109 C98 1.273 1_455 S
O110 Nd81 2.410 1_455 S
O110 C99 1.251 . S
O111 Nd80 2.424 . S
O111 C99 1.268 . S
H112 C84 0.930 . S
H113 C85 0.929 . S
H114 C87 0.930 . S
H115 C88 0.929 . S
H116 C93 0.930 . S
H117 C94 0.929 . S
H118 C96 0.930 . S
H119 C97 0.929 . S
Nd120 C122 2.836 . S
Nd120 O140 2.500 1_455 S
Nd120 O141 2.492 . S
Nd120 O142 2.487 . S
Nd120 O143 2.682 1_455 S
Nd120 O144 2.410 1_455 S
Nd120 O149 2.414 1_455 S
Nd120 O151 2.424 . S
Nd121 C131 2.836 . S
Nd121 O143 2.414 . S
Nd121 O145 2.424 . S
Nd121 O146 2.500 . S
Nd121 O147 2.492 . S
Nd121 O148 2.487 . S
Nd121 O149 2.682 . S
Nd121 O150 2.410 . S
C122 Nd120 2.836 . S
C122 C123 1.498 . S
C122 O140 1.258 1_455 S
C122 O141 1.239 . S
C123 C122 1.498 . S
C123 C124 1.366 1_455 S
C123 C128 1.407 . S
C124 C123 1.366 1_655 S
C124 C125 1.392 . S
C124 H152 0.930 . S
C125 C124 1.392 . S
C125 C126 1.398 1_655 S
C125 H153 0.929 . S
C126 C125 1.398 1_455 S
C126 C127 1.352 . S
C127 C126 1.352 . S
C127 C128 1.384 . S
C127 H154 0.930 . S
C128 C123 1.407 . S
C128 C127 1.384 . S
C128 H155 0.929 . S
C129 O142 1.241 . S
C129 O143 1.273 1_455 S
C130 O144 1.251 . S
C130 O145 1.268 . S
C131 Nd121 2.836 . S
C131 C132 1.498 . S
C131 O146 1.258 . S
C131 O147 1.239 . S
C132 C131 1.498 . S
C132 C133 1.366 . S
C132 C137 1.407 . S
C133 C132 1.366 . S
C133 C134 1.392 . S
C133 H156 0.930 . S
C134 C133 1.392 . S
C134 C135 1.398 . S
C134 H157 0.929 . S
C135 C134 1.398 . S
C135 C136 1.352 . S
C136 C135 1.352 . S
C136 C137 1.384 . S
C136 H158 0.930 . S
C137 C132 1.407 . S
C137 C136 1.384 . S
C137 H159 0.929 . S
C138 O148 1.241 . S
C138 O149 1.273 . S
C139 O150 1.251 . S
C139 O151 1.268 1_655 S
O140 Nd120 2.500 1_655 S
O140 C122 1.258 1_655 S
O141 Nd120 2.492 . S
O141 C122 1.239 . S
O142 Nd120 2.487 . S
O142 C129 1.241 . S
O143 Nd120 2.682 1_655 S
O143 Nd121 2.414 . S
O143 C129 1.273 1_655 S
O144 Nd120 2.410 1_655 S
O144 C130 1.251 . S
O145 Nd121 2.424 . S
O145 C130 1.268 . S
O146 Nd121 2.500 . S
O146 C131 1.258 . S
O147 Nd121 2.492 . S
O147 C131 1.239 . S
O148 Nd121 2.487 . S
O148 C138 1.241 . S
O149 Nd120 2.414 1_655 S
O149 Nd121 2.682 . S
O149 C138 1.273 . S
O150 Nd121 2.410 . S
O150 C139 1.251 . S
O151 Nd120 2.424 . S
O151 C139 1.268 1_455 S
H152 C124 0.930 . S
H153 C125 0.929 . S
H154 C127 0.930 . S
H155 C128 0.929 . S
H156 C133 0.930 . S
H157 C134 0.929 . S
H158 C136 0.930 . S
H159 C137 0.929 . S
C55 C6 5.119 1_554 S
C89 C138 4.088 . S
C15 C46 5.120 1_464 S
C129 C98 4.087 1_445 S
C130 C9 1.262 . S
C59 C86 2.789 . S
C58 C99 1.260 . S
C135 C10 2.793 . S
C49 C90 1.262 . S
C126 C19 2.789 1_455 S
C139 C18 1.261 . S
C95 C50 2.793 1_655 S
