# Generated by pormake.
# Topology acs, (6)-cn, num edge types: 1
# Building blocks:
#     Node 0, Type 0, BuildingBlock: IZENUY_clean_sbu_0, # of connection points: 6
#     Node 1, Type 0, BuildingBlock: IZENUY_clean_sbu_0, # of connection points: 6
#     Edge 2, Type (0, 0), BuildingBlock: OJICUG_clean_linker_0, # of connection points: 2
#     Edge 3, Type (0, 0), BuildingBlock: OJICUG_clean_linker_0, # of connection points: 2
#     Edge 4, Type (0, 0), BuildingBlock: OJICUG_clean_linker_0, # of connection points: 2
#     Edge 5, Type (0, 0), BuildingBlock: OJICUG_clean_linker_0, # of connection points: 2
#     Edge 6, Type (0, 0), BuildingBlock: OJICUG_clean_linker_0, # of connection points: 2
#     Edge 7, Type (0, 0), BuildingBlock: OJICUG_clean_linker_0, # of connection points: 2
# Relax obj value: 0.000
# Max RMSD: 0.012
# Mean RMSD: 0.012
data_MOF--net-acs--node1-IZENUY_clean_sbu_0--edge1-OJICUG_clean_linker_0
_symmetry_space_group_name_H-M    P1
_symmetry_Int_Tables_number       1
_symmetry_cell_setting            triclinic
loop_
_symmetry_equiv_pos_as_xyz
'x, y, z'
_cell_length_a     14.982296
_cell_length_b     14.992508
_cell_length_c     15.684556
_cell_angle_alpha  90.001418
_cell_angle_beta   89.998323
_cell_angle_gamma 119.98481
loop_
_atom_site_label
_atom_site_type_symbol
_atom_site_fract_x
_atom_site_fract_y
_atom_site_fract_z
_atom_type_partial_charge
Fe0 Fe 0.61678 0.32251 0.22303 0.0
Fe1 Fe 0.82164 0.32252 0.22304 0.0
O2 O 0.75332 0.39073 0.22304 0.0
Fe3 Fe 0.82155 0.52718 0.22304 0.0
O4 O 0.72516 0.53983 0.28582 0.0
O5 O 0.61247 0.38136 0.323 0.0
O6 O 0.60417 0.2136 0.28592 0.0
C7 C 0.66688 0.20666 0.33574 0.0
C8 C 0.66685 0.48836 0.1103 0.0
O9 O 0.76278 0.25938 0.32301 0.0
C10 C 0.93755 0.47721 0.11038 0.0
O11 O 0.6125 0.25935 0.12307 0.0
O12 O 0.72534 0.2136 0.16017 0.0
O13 O 0.76274 0.53145 0.12304 0.0
O14 O 0.60414 0.41878 0.16014 0.0
C15 C 0.93745 0.48838 0.33577 0.0
O16 O 0.8848 0.38137 0.12307 0.0
O17 O 0.9306 0.53983 0.16026 0.0
C18 C 0.65567 0.20664 0.11035 0.0
O19 O 0.93059 0.41882 0.28592 0.0
O20 O 0.88465 0.53146 0.32304 0.0
C21 C 0.65558 0.4772 0.33569 0.0
Fe22 Fe 0.55665 0.79248 0.72304 0.0
Fe23 Fe 0.35179 0.79246 0.72303 0.0
O24 O 0.42011 0.72426 0.72304 0.0
Fe25 Fe 0.35188 0.58781 0.72304 0.0
O26 O 0.41069 0.58353 0.82304 0.0
O27 O 0.5693 0.6962 0.78594 0.0
O28 O 0.56094 0.85564 0.823 0.0
C29 C 0.51776 0.90835 0.83572 0.0
C30 C 0.51786 0.63778 0.61038 0.0
O31 O 0.4481 0.90138 0.7859 0.0
C32 C 0.23598 0.6266 0.61031 0.0
O33 O 0.56927 0.90138 0.66015 0.0
O34 O 0.41066 0.8556 0.62307 0.0
O35 O 0.44828 0.57516 0.66026 0.0
O36 O 0.56097 0.73362 0.62308 0.0
C37 C 0.23589 0.63778 0.8357 0.0
O38 O 0.24285 0.69616 0.66015 0.0
O39 O 0.28879 0.58353 0.62304 0.0
C40 C 0.50655 0.90833 0.61034 0.0
O41 O 0.28863 0.73362 0.82301 0.0
O42 O 0.24283 0.57515 0.78582 0.0
C43 C 0.50658 0.62662 0.83577 0.0
C44 C 0.5075 1.04579 0.91903 0.0
C45 C 0.5534 0.98473 0.90595 0.0
H46 H 0.50354 0.16354 -0.00667 0.0
C47 C 0.63295 0.99723 0.96083 0.0
H48 H 0.44583 1.03814 0.87808 0.0
C49 C 0.66594 0.06919 0.02705 0.0
C50 C 0.62004 0.13026 0.04012 0.0
H51 H 0.66989 0.95145 0.95275 0.0
H52 H 0.7276 0.07685 0.06799 0.0
C53 C 0.54048 0.11775 -0.01475 0.0
C54 C 0.63275 0.66395 0.48507 0.0
C55 C 0.55346 0.59699 0.54015 0.0
H56 H 0.72714 0.67885 0.37772 0.0
C57 C 0.50776 0.49007 0.52725 0.0
H58 H 0.66953 0.74664 0.49301 0.0
C59 C 0.54068 0.45104 0.461 0.0
C60 C 0.61997 0.51799 0.40593 0.0
H61 H 0.4463 0.43613 0.56836 0.0
H62 H 0.50391 0.36835 0.45306 0.0
C63 C 0.66568 0.62492 0.41883 0.0
C64 C 1.02627 0.45104 -0.01493 0.0
C65 C 1.01395 0.518 0.04014 0.0
H66 H 0.10575 0.43613 0.87772 0.0
C67 C 1.0752 0.62492 0.02725 0.0
H68 H 0.98033 0.36835 -0.00699 0.0
C69 C 0.14716 0.66395 0.961 0.0
C70 C 0.15948 0.59699 0.90593 0.0
H71 H 1.06769 0.67886 0.06835 0.0
H72 H 0.1931 0.74664 0.95306 0.0
C73 C 0.09824 0.49006 0.91883 0.0
C74 C 0.48022 0.99721 0.48526 0.0
C75 C 0.54729 0.98472 0.54011 0.0
H76 H 0.46515 0.07683 0.37812 0.0
C77 C 0.65426 1.0458 0.52703 0.0
H78 H 0.39748 0.95141 0.49335 0.0
C79 C 0.69322 0.11777 0.46082 0.0
C80 C 0.62615 0.13027 0.40596 0.0
H81 H 0.70828 1.03815 0.56796 0.0
H82 H 0.77595 0.16357 0.45272 0.0
C83 C 0.51918 0.06918 0.41905 0.0
C84 C 0.48022 0.51135 0.96077 0.0
C85 C 0.54731 0.59092 0.90598 0.0
H86 H 0.46514 0.41658 0.06785 0.0
C87 C 0.65427 0.63673 0.91911 0.0
H88 H 0.39749 0.47446 0.95264 0.0
C89 C 0.69321 0.60364 -0.0147 0.0
C90 C 0.62613 0.52407 0.04009 0.0
H91 H 0.7083 0.6984 0.87823 0.0
H92 H 0.77595 0.64052 -0.00657 0.0
C93 C 0.51916 0.47826 0.02697 0.0
C94 C 0.14717 0.51145 0.48522 0.0
C95 C 0.15955 0.5909 0.5401 0.0
H96 H 1.06757 0.4168 0.37806 0.0
C97 C 0.0983 0.63661 0.52706 0.0
H98 H 0.1931 0.47466 0.49328 0.0
C99 C 1.02627 0.60353 0.46086 0.0
C100 C 1.01389 0.52408 0.40598 0.0
H101 H 0.10586 0.69819 0.56801 0.0
H102 H 0.98033 0.64033 0.4528 0.0
C103 C 1.07514 0.47838 0.41902 0.0
loop_
_geom_bond_atom_site_label_1
_geom_bond_atom_site_label_2
_geom_bond_distance
_geom_bond_site_symmetry_2
_ccdc_geom_bond_type
Fe0 O2 1.918 . S
Fe0 O5 1.997 . S
Fe0 O6 2.002 . S
Fe0 O11 1.976 . S
Fe0 O14 1.996 . S
Fe1 O2 1.918 . S
Fe1 O9 1.997 . S
Fe1 O12 1.996 . S
Fe1 O16 1.976 . S
Fe1 O19 2.002 . S
O2 Fe0 1.918 . S
O2 Fe1 1.918 . S
O2 Fe3 1.918 . S
Fe3 O2 1.918 . S
Fe3 O4 2.002 . S
Fe3 O13 1.976 . S
Fe3 O17 1.996 . S
Fe3 O20 1.997 . S
O4 Fe3 2.002 . S
O4 C21 1.295 . S
O5 Fe0 1.997 . S
O5 C21 1.235 . S
O6 Fe0 2.002 . S
O6 C7 1.295 . S
C7 O6 1.295 . S
C7 O9 1.235 . S
C8 O13 1.287 . S
C8 O14 1.255 . S
O9 Fe1 1.997 . S
O9 C7 1.235 . S
C10 O16 1.287 . S
C10 O17 1.255 . S
O11 Fe0 1.976 . S
O11 C18 1.287 . S
O12 Fe1 1.996 . S
O12 C18 1.255 . S
O13 Fe3 1.976 . S
O13 C8 1.287 . S
O14 Fe0 1.996 . S
O14 C8 1.255 . S
C15 O19 1.295 . S
C15 O20 1.235 . S
O16 Fe1 1.976 . S
O16 C10 1.287 . S
O17 Fe3 1.996 . S
O17 C10 1.255 . S
C18 O11 1.287 . S
C18 O12 1.255 . S
O19 Fe1 2.002 . S
O19 C15 1.295 . S
O20 Fe3 1.997 . S
O20 C15 1.235 . S
C21 O4 1.295 . S
C21 O5 1.235 . S
Fe22 O24 1.918 . S
Fe22 O27 1.997 . S
Fe22 O28 2.002 . S
Fe22 O33 1.976 . S
Fe22 O36 1.996 . S
Fe23 O24 1.918 . S
Fe23 O31 1.997 . S
Fe23 O34 1.996 . S
Fe23 O38 1.976 . S
Fe23 O41 2.002 . S
O24 Fe22 1.918 . S
O24 Fe23 1.918 . S
O24 Fe25 1.918 . S
Fe25 O24 1.918 . S
Fe25 O26 2.002 . S
Fe25 O35 1.976 . S
Fe25 O39 1.996 . S
Fe25 O42 1.997 . S
O26 Fe25 2.002 . S
O26 C43 1.295 . S
O27 Fe22 1.997 . S
O27 C43 1.235 . S
O28 Fe22 2.002 . S
O28 C29 1.295 . S
C29 O28 1.295 . S
C29 O31 1.235 . S
C30 O35 1.287 . S
C30 O36 1.255 . S
O31 Fe23 1.997 . S
O31 C29 1.235 . S
C32 O38 1.287 . S
C32 O39 1.255 . S
O33 Fe22 1.976 . S
O33 C40 1.287 . S
O34 Fe23 1.996 . S
O34 C40 1.255 . S
O35 Fe25 1.976 . S
O35 C30 1.287 . S
O36 Fe22 1.996 . S
O36 C30 1.255 . S
C37 O41 1.295 . S
C37 O42 1.235 . S
O38 Fe23 1.976 . S
O38 C32 1.287 . S
O39 Fe25 1.996 . S
O39 C32 1.255 . S
C40 O33 1.287 . S
C40 O34 1.255 . S
O41 Fe23 2.002 . S
O41 C37 1.295 . S
O42 Fe25 1.997 . S
O42 C37 1.235 . S
C43 O26 1.295 . S
C43 O27 1.235 . S
C44 C45 1.387 . S
C44 H48 0.950 . S
C44 C53 1.390 1_566 S
C45 C44 1.387 . S
C45 C47 1.387 . S
H46 C53 0.950 . S
C47 C45 1.387 . S
C47 C49 1.390 1_566 S
C47 H51 0.950 . S
H48 C44 0.950 . S
C49 C47 1.390 1_544 S
C49 C50 1.387 . S
C49 H52 0.950 . S
C50 C49 1.387 . S
C50 C53 1.387 . S
H51 C47 0.950 . S
H52 C49 0.950 . S
C53 C44 1.390 1_544 S
C53 H46 0.950 . S
C53 C50 1.387 . S
C54 C55 1.387 . S
C54 H58 0.950 . S
C54 C63 1.390 . S
C55 C54 1.387 . S
C55 C57 1.387 . S
H56 C63 0.950 . S
C57 C55 1.387 . S
C57 C59 1.390 . S
C57 H61 0.950 . S
H58 C54 0.950 . S
C59 C57 1.390 . S
C59 C60 1.387 . S
C59 H62 0.950 . S
C60 C59 1.387 . S
C60 C63 1.387 . S
H61 C57 0.950 . S
H62 C59 0.950 . S
C63 C54 1.390 . S
C63 H56 0.950 . S
C63 C60 1.387 . S
C64 C65 1.387 1_556 S
C64 H68 0.950 . S
C64 C73 1.390 1_655 S
C65 C64 1.387 1_554 S
C65 C67 1.387 1_655 S
H66 C73 0.950 1_655 S
C67 C65 1.387 1_455 S
C67 C69 1.390 . S
C67 H71 0.950 . S
H68 C64 0.950 . S
C69 C67 1.390 . S
C69 C70 1.387 1_554 S
C69 H72 0.950 . S
C70 C69 1.387 1_556 S
C70 C73 1.387 . S
H71 C67 0.950 . S
H72 C69 0.950 . S
C73 C64 1.390 1_455 S
C73 H66 0.950 1_455 S
C73 C70 1.387 . S
C74 C75 1.387 . S
C74 H78 0.950 . S
C74 C83 1.390 1_565 S
C75 C74 1.387 . S
C75 C77 1.387 . S
H76 C83 0.950 . S
C77 C75 1.387 . S
C77 C79 1.390 1_565 S
C77 H81 0.950 . S
H78 C74 0.950 . S
C79 C77 1.390 1_545 S
C79 C80 1.387 . S
C79 H82 0.950 . S
C80 C79 1.387 . S
C80 C83 1.387 . S
H81 C77 0.950 . S
H82 C79 0.950 . S
C83 C74 1.390 1_545 S
C83 H76 0.950 . S
C83 C80 1.387 . S
C84 C85 1.387 . S
C84 H88 0.950 . S
C84 C93 1.390 . S
C85 C84 1.387 . S
C85 C87 1.387 1_556 S
H86 C93 0.950 . S
C87 C85 1.387 1_554 S
C87 C89 1.390 . S
C87 H91 0.950 . S
H88 C84 0.950 . S
C89 C87 1.390 . S
C89 C90 1.387 . S
C89 H92 0.950 . S
C90 C89 1.387 . S
C90 C93 1.387 1_554 S
H91 C87 0.950 . S
H92 C89 0.950 . S
C93 C84 1.390 . S
C93 H86 0.950 . S
C93 C90 1.387 1_556 S
C94 C95 1.387 . S
C94 H98 0.950 . S
C94 C103 1.390 1_455 S
C95 C94 1.387 . S
C95 C97 1.387 . S
H96 C103 0.950 . S
C97 C95 1.387 . S
C97 C99 1.390 1_455 S
C97 H101 0.950 . S
H98 C94 0.950 . S
C99 C97 1.390 1_655 S
C99 C100 1.387 . S
C99 H102 0.950 . S
C100 C99 1.387 . S
C100 C103 1.387 . S
H101 C97 0.950 . S
H102 C99 0.950 . S
C103 C94 1.390 1_655 S
C103 H96 0.950 . S
C103 C100 1.387 . S
C45 C29 1.487 . S
C50 C18 1.498 . S
C55 C30 1.498 . S
C60 C21 1.488 . S
C65 C10 1.498 . S
C70 C37 1.488 . S
C75 C40 1.498 . S
C80 C7 1.489 . S
C85 C43 1.489 . S
C90 C8 1.498 . S
C95 C32 1.498 . S
C100 C15 1.489 . S
