# Generated by pormake.
# Topology cdl, (4)-cn, num edge types: 1
# Building blocks:
#     Node 0, Type 0, BuildingBlock: MUDLON_clean_sbu_0, # of connection points: 4
#     Node 1, Type 0, BuildingBlock: MUDLON_clean_sbu_0, # of connection points: 4
#     Node 2, Type 0, BuildingBlock: MUDLON_clean_sbu_0, # of connection points: 4
#     Node 3, Type 0, BuildingBlock: MUDLON_clean_sbu_0, # of connection points: 4
#     Edge 4, Type (0, 0), BuildingBlock: OJICUG_clean_linker_0, # of connection points: 2
#     Edge 5, Type (0, 0), BuildingBlock: OJICUG_clean_linker_0, # of connection points: 2
#     Edge 6, Type (0, 0), BuildingBlock: OJICUG_clean_linker_0, # of connection points: 2
#     Edge 7, Type (0, 0), BuildingBlock: OJICUG_clean_linker_0, # of connection points: 2
#     Edge 8, Type (0, 0), BuildingBlock: OJICUG_clean_linker_0, # of connection points: 2
#     Edge 9, Type (0, 0), BuildingBlock: OJICUG_clean_linker_0, # of connection points: 2
#     Edge 10, Type (0, 0), BuildingBlock: OJICUG_clean_linker_0, # of connection points: 2
#     Edge 11, Type (0, 0), BuildingBlock: OJICUG_clean_linker_0, # of connection points: 2
# Relax obj value: 0.001
# Max RMSD: 0.021
# Mean RMSD: 0.019
data_MOF--net-cdl--node1-MUDLON_clean_sbu_0--edge1-OJICUG_clean_linker_0
_symmetry_space_group_name_H-M    P1
_symmetry_Int_Tables_number       1
_symmetry_cell_setting            triclinic
loop_
_symmetry_equiv_pos_as_xyz
'x, y, z'
_cell_length_a     11.363453
_cell_length_b     11.365028
_cell_length_c     43.823523
_cell_angle_alpha  90.765768
_cell_angle_beta   90.697323
_cell_angle_gamma 90.084558
loop_
_atom_site_label
_atom_site_type_symbol
_atom_site_fract_x
_atom_site_fract_y
_atom_site_fract_z
_atom_type_partial_charge
Mg0 Mg 0.058 0.98517 0.15525 0.0
C1 C 0.15425 0.23339 0.15946 0.0
O2 O 0.2492 0.17251 0.16607 0.0
C3 C 0.15653 0.73756 0.15652 0.0
O4 O 0.25437 0.79841 0.1543 0.0
C5 C 0.11051 0.03399 0.08504 0.0
O6 O 0.18655 0.11025 0.09647 0.0
O7 O 0.04986 0.97179 0.10298 0.0
O8 O 0.05878 0.17997 0.1533 0.0
O9 O 0.05893 0.9989 0.20738 0.0
C10 C 0.14824 0.979 0.2243 0.0
O11 O 0.24743 0.94642 0.21167 0.0
O12 O 0.0588 0.79078 0.15757 0.0
Mg13 Mg 0.04995 0.0135 0.65377 0.0
C14 C 0.29815 0.91492 0.65656 0.0
O15 O 0.23698 0.81714 0.65832 0.0
C16 C 0.80236 0.91462 0.65327 0.0
O17 O 0.86366 0.8167 0.65274 0.0
C18 C 0.1066 0.96897 0.58311 0.0
O19 O 0.1761 0.88642 0.59368 0.0
O20 O 0.04692 0.0312 0.60165 0.0
O21 O 0.24507 0.01243 0.65432 0.0
O22 O 0.04959 1.00119 0.7059 0.0
C23 C 0.04851 0.90284 0.71939 0.0
O24 O 0.05034 0.80533 0.70297 0.0
O25 O 0.85532 0.01274 0.6535 0.0
Mg26 Mg 0.81922 0.95804 0.90435 0.0
C27 C 0.73396 0.20909 0.89003 0.0
O28 O 0.77687 0.18085 0.86322 0.0
C29 C 0.73357 0.70824 0.91935 0.0
O30 O 0.78153 0.7366 0.94587 0.0
C31 C 0.95144 0.87905 0.84829 0.0
O32 O 0.93074 0.77596 0.86035 0.0
O33 O 0.92188 0.97157 0.86292 0.0
O34 O 0.72915 0.12995 0.91044 0.0
O35 O 0.92695 0.94262 0.94538 0.0
C36 C 0.98152 0.03011 0.95714 0.0
O37 O 0.98301 0.1301 0.94244 0.0
O38 O 0.72504 0.78736 0.89898 0.0
Mg39 Mg 0.03931 0.26373 0.40433 0.0
C40 C 0.28927 0.36612 0.39069 0.0
O41 O 0.25785 0.34862 0.36205 0.0
C42 C 0.78892 0.34606 0.41993 0.0
O43 O 0.81604 0.29192 0.44535 0.0
C44 C 0.13309 0.10057 0.35279 0.0
O45 O 0.22645 0.08933 0.37049 0.0
O46 O 0.0464 0.16126 0.3621 0.0
O47 O 0.21297 0.35092 0.41147 0.0
O48 O 0.02288 0.15538 0.44456 0.0
C49 C 0.11029 0.10224 0.45636 0.0
O50 O 0.21134 0.1022 0.44211 0.0
O51 O 0.86899 0.359 0.39998 0.0
C52 C 0.0512 0.42451 0.15585 0.0
C53 C 0.15707 0.36226 0.15892 0.0
H54 H 0.96836 0.59165 0.15276 0.0
C55 C 0.2639 0.42414 0.16127 0.0
H56 H 0.96738 0.37922 0.15407 0.0
C57 C 0.26454 0.54687 0.16037 0.0
C58 C 0.15826 0.60871 0.15736 0.0
H59 H 0.34677 0.37796 0.16361 0.0
H60 H 0.34782 0.59308 0.16216 0.0
C61 C 0.05175 0.54641 0.15517 0.0
C62 C 0.48934 0.019 0.65446 0.0
C63 C 0.42704 0.91266 0.65599 0.0
H64 H 0.65642 0.10264 0.65231 0.0
C65 C 0.48886 0.80582 0.65659 0.0
H66 H 0.44417 0.10285 0.65397 0.0
C67 C 0.61156 0.80568 0.65558 0.0
C68 C 0.67346 0.91239 0.65403 0.0
H69 H 0.44269 0.72258 0.65774 0.0
H70 H 0.65766 0.72237 0.65609 0.0
C71 C 0.6112 0.01887 0.6535 0.0
C72 C 0.70675 0.42013 0.87435 0.0
C73 C 0.7121 0.33582 0.89764 0.0
H74 H 0.70681 0.60313 0.86277 0.0
C75 C 0.71026 0.37592 0.92813 0.0
H76 H 0.70784 0.39272 0.85059 0.0
C77 C 0.71072 0.49695 0.93511 0.0
C78 C 0.71152 0.58132 0.91181 0.0
H79 H 0.71484 0.31399 0.94668 0.0
H80 H 0.71502 0.5244 0.95886 0.0
C81 C 0.70571 0.54116 0.88133 0.0
C82 C 0.45673 0.36889 0.42912 0.0
C83 C 0.41684 0.38136 0.39882 0.0
H84 H 0.60437 0.34913 0.45949 0.0
C85 C 0.50166 0.39568 0.37592 0.0
H86 H 0.39461 0.35739 0.4474 0.0
C87 C 0.62275 0.39158 0.38291 0.0
C88 C 0.66237 0.37206 0.41296 0.0
H89 H 0.47461 0.40562 0.35232 0.0
H90 H 0.68506 0.39789 0.36449 0.0
C91 C 0.57756 0.36389 0.43605 0.0
C92 C 0.09485 0.11679 1.00155 0.0
C93 C 0.02684 0.02442 0.98895 0.0
H94 H 0.17596 0.19157 0.04172 0.0
C95 C 0.99411 0.93098 1.0078 0.0
H96 H 0.12173 0.1899 0.98762 0.0
C97 C 0.02381 0.93271 0.03886 0.0
C98 C 0.08834 0.02704 0.05168 0.0
H99 H 0.94161 0.85843 0.99887 0.0
H100 H 0.99423 0.8611 0.05293 0.0
C101 C 0.12601 0.11767 0.03255 0.0
C102 C 1.01002 0.09153 0.50684 0.0
C103 C 0.10303 0.05701 0.48784 0.0
H104 H 0.93885 0.09179 0.55186 0.0
C105 C 0.19352 0.987 0.50002 0.0
H106 H 0.93902 0.14573 0.49822 0.0
C107 C 0.19268 0.95499 0.53075 0.0
C108 C 0.10237 0.99402 0.55004 0.0
H109 H 0.26628 0.95882 0.48597 0.0
H110 H 0.2649 0.90299 0.53962 0.0
C111 C 1.01021 0.06119 0.53765 0.0
C112 C 0.23713 1.01085 0.30786 0.0
C113 C 0.13407 0.0573 0.32071 0.0
H114 H 0.32268 0.94969 0.26733 0.0
C115 C 0.03382 0.0704 0.30194 0.0
H116 H 0.31593 0.9996 0.32166 0.0
C117 C 0.03769 0.04196 0.27086 0.0
C118 C 0.14199 0.99987 0.25773 0.0
H119 H 0.95275 0.10544 0.31108 0.0
H120 H 0.95946 0.05572 0.25701 0.0
C121 C 0.2411 0.98258 0.27668 0.0
C122 C 0.03341 0.78902 0.76778 0.0
C123 C 0.03622 0.89796 0.753 0.0
H124 H 1.00612 0.69766 0.80947 0.0
C125 C 0.02139 1.0015 0.77046 0.0
H126 H 0.04534 0.70758 0.75508 0.0
C127 C 0.99897 0.99583 0.80174 0.0
C128 C 0.99103 0.8865 0.81625 0.0
H129 H 0.02363 0.08695 0.75983 0.0
H130 H 0.98408 0.07705 0.81432 0.0
C131 C 1.01119 0.78336 0.79904 0.0
loop_
_geom_bond_atom_site_label_1
_geom_bond_atom_site_label_2
_geom_bond_distance
_geom_bond_site_symmetry_2
_ccdc_geom_bond_type
Mg0 O7 2.141 1_545 S
Mg0 O8 2.048 . S
Mg0 O9 2.048 1_545 S
Mg0 O12 2.141 1_545 S
C1 O2 1.313 . S
C1 O8 1.195 1_455 S
O2 C1 1.313 . S
C3 O4 1.245 . S
C3 O12 1.289 1_455 S
O4 C3 1.245 . S
C5 O6 1.245 . S
C5 O7 1.289 1_445 S
O6 C5 1.245 . S
O7 Mg0 2.141 1_565 S
O7 C5 1.289 1_665 S
O8 Mg0 2.048 . S
O8 C1 1.195 1_655 S
O9 Mg0 2.048 1_565 S
O9 C10 1.195 1_665 S
C10 O9 1.195 1_445 S
C10 O11 1.313 . S
O11 C10 1.313 . S
O12 Mg0 2.141 1_565 S
O12 C3 1.289 1_655 S
Mg13 O20 2.141 1_455 S
Mg13 O21 2.048 . S
Mg13 O22 2.048 1_455 S
Mg13 O25 2.141 1_455 S
C14 O15 1.313 1_545 S
C14 O21 1.195 . S
O15 C14 1.313 1_565 S
C16 O17 1.245 1_545 S
C16 O25 1.289 . S
O17 C16 1.245 1_565 S
C18 O19 1.245 1_545 S
C18 O20 1.289 1_455 S
O19 C18 1.245 1_565 S
O20 Mg13 2.141 1_655 S
O20 C18 1.289 1_655 S
O21 Mg13 2.048 . S
O21 C14 1.195 . S
O22 Mg13 2.048 1_655 S
O22 C23 1.195 1_655 S
C23 O22 1.195 1_455 S
C23 O24 1.313 1_545 S
O24 C23 1.313 1_565 S
O25 Mg13 2.141 1_655 S
O25 C16 1.289 . S
Mg26 O33 2.141 . S
Mg26 O34 2.048 . S
Mg26 O35 2.048 . S
Mg26 O38 2.141 1_545 S
C27 O28 1.313 . S
C27 O34 1.195 1_455 S
O28 C27 1.313 . S
C29 O30 1.245 . S
C29 O38 1.289 1_455 S
O30 C29 1.245 . S
C31 O32 1.245 . S
C31 O33 1.289 1_455 S
O32 C31 1.245 . S
O33 Mg26 2.141 . S
O33 C31 1.289 1_655 S
O34 Mg26 2.048 . S
O34 C27 1.195 1_655 S
O35 Mg26 2.048 . S
O35 C36 1.195 1_655 S
C36 O35 1.195 1_455 S
C36 O37 1.313 . S
O37 C36 1.313 . S
O38 Mg26 2.141 1_565 S
O38 C29 1.289 1_655 S
Mg39 O46 2.141 . S
Mg39 O47 2.048 . S
Mg39 O48 2.048 . S
Mg39 O51 2.141 1_455 S
C40 O41 1.313 1_545 S
C40 O47 1.195 . S
O41 C40 1.313 1_565 S
C42 O43 1.245 . S
C42 O51 1.289 1_565 S
O43 C42 1.245 . S
C44 O45 1.245 . S
C44 O46 1.289 1_565 S
O45 C44 1.245 . S
O46 Mg39 2.141 . S
O46 C44 1.289 1_545 S
O47 Mg39 2.048 . S
O47 C40 1.195 . S
O48 Mg39 2.048 . S
O48 C49 1.195 . S
C49 O48 1.195 . S
C49 O50 1.313 1_545 S
O50 C49 1.313 1_565 S
O51 Mg39 2.141 1_655 S
O51 C42 1.289 1_545 S
C52 C53 1.387 1_655 S
C52 H56 0.950 . S
C52 C61 1.390 . S
C53 C52 1.387 1_455 S
C53 C55 1.387 . S
H54 C61 0.950 . S
C55 C53 1.387 . S
C55 C57 1.390 . S
C55 H59 0.950 . S
H56 C52 0.950 . S
C57 C55 1.390 . S
C57 C58 1.387 . S
C57 H60 0.950 . S
C58 C57 1.387 . S
C58 C61 1.387 1_455 S
H59 C55 0.950 . S
H60 C57 0.950 . S
C61 C52 1.390 . S
C61 H54 0.950 . S
C61 C58 1.387 1_655 S
C62 C63 1.387 . S
C62 H66 0.950 . S
C62 C71 1.390 . S
C63 C62 1.387 . S
C63 C65 1.387 1_545 S
H64 C71 0.950 . S
C65 C63 1.387 1_565 S
C65 C67 1.390 . S
C65 H69 0.950 . S
H66 C62 0.950 . S
C67 C65 1.390 . S
C67 C68 1.387 1_565 S
C67 H70 0.950 . S
C68 C67 1.387 1_545 S
C68 C71 1.387 . S
H69 C65 0.950 . S
H70 C67 0.950 . S
C71 C62 1.390 . S
C71 H64 0.950 . S
C71 C68 1.387 . S
C72 C73 1.387 1_655 S
C72 H76 0.950 . S
C72 C81 1.390 . S
C73 C72 1.387 1_455 S
C73 C75 1.387 . S
H74 C81 0.950 . S
C75 C73 1.387 . S
C75 C77 1.390 . S
C75 H79 0.950 . S
H76 C72 0.950 . S
C77 C75 1.390 . S
C77 C78 1.387 . S
C77 H80 0.950 . S
C78 C77 1.387 . S
C78 C81 1.387 1_455 S
H79 C75 0.950 . S
H80 C77 0.950 . S
C81 C72 1.390 . S
C81 H74 0.950 . S
C81 C78 1.387 1_655 S
C82 C83 1.387 . S
C82 H86 0.950 . S
C82 C91 1.390 . S
C83 C82 1.387 . S
C83 C85 1.387 1_545 S
H84 C91 0.950 . S
C85 C83 1.387 1_565 S
C85 C87 1.390 . S
C85 H89 0.950 . S
H86 C82 0.950 . S
C87 C85 1.390 . S
C87 C88 1.387 1_565 S
C87 H90 0.950 . S
C88 C87 1.387 1_545 S
C88 C91 1.387 . S
H89 C85 0.950 . S
H90 C87 0.950 . S
C91 C82 1.390 . S
C91 H84 0.950 . S
C91 C88 1.387 . S
C92 C93 1.387 . S
C92 H96 0.950 . S
C92 C101 1.390 1_556 S
C93 C92 1.387 . S
C93 C95 1.387 1_545 S
H94 C101 0.950 . S
C95 C93 1.387 1_565 S
C95 C97 1.390 1_556 S
C95 H99 0.950 . S
H96 C92 0.950 . S
C97 C95 1.390 1_554 S
C97 C98 1.387 1_565 S
C97 H100 0.950 . S
C98 C97 1.387 1_545 S
C98 C101 1.387 . S
H99 C95 0.950 . S
H100 C97 0.950 . S
C101 C92 1.390 1_554 S
C101 H94 0.950 . S
C101 C98 1.387 . S
C102 C103 1.387 1_655 S
C102 H106 0.950 . S
C102 C111 1.390 . S
C103 C102 1.387 1_455 S
C103 C105 1.387 . S
H104 C111 0.950 . S
C105 C103 1.387 . S
C105 C107 1.390 . S
C105 H109 0.950 1_545 S
H106 C102 0.950 . S
C107 C105 1.390 . S
C107 C108 1.387 . S
C107 H110 0.950 . S
C108 C107 1.387 . S
C108 C111 1.387 1_455 S
H109 C105 0.950 1_565 S
H110 C107 0.950 . S
C111 C102 1.390 . S
C111 H104 0.950 . S
C111 C108 1.387 1_655 S
C112 C113 1.387 1_565 S
C112 H116 0.950 . S
C112 C121 1.390 . S
C113 C112 1.387 1_545 S
C113 C115 1.387 1_455 S
H114 C121 0.950 . S
C115 C113 1.387 1_655 S
C115 C117 1.390 . S
C115 H119 0.950 . S
H116 C112 0.950 . S
C117 C115 1.390 . S
C117 C118 1.387 1_655 S
C117 H120 0.950 . S
C118 C117 1.387 1_455 S
C118 C121 1.387 1_545 S
H119 C115 0.950 . S
H120 C117 0.950 . S
C121 C112 1.390 . S
C121 H114 0.950 . S
C121 C118 1.387 1_565 S
C122 C123 1.387 1_565 S
C122 H126 0.950 . S
C122 C131 1.390 . S
C123 C122 1.387 1_545 S
C123 C125 1.387 1_455 S
H124 C131 0.950 . S
C125 C123 1.387 1_655 S
C125 C127 1.390 . S
C125 H129 0.950 . S
H126 C122 0.950 . S
C127 C125 1.390 . S
C127 C128 1.387 1_655 S
C127 H130 0.950 . S
C128 C127 1.387 1_455 S
C128 C131 1.387 1_545 S
H129 C125 0.950 . S
H130 C127 0.950 . S
C131 C122 1.390 . S
C131 H124 0.950 . S
C131 C128 1.387 1_565 S
C53 C1 1.493 . S
C58 C3 1.489 . S
C63 C14 1.493 . S
C68 C16 1.489 . S
C73 C27 1.494 . S
C78 C29 1.489 . S
C83 C40 1.494 . S
C88 C42 1.489 1_545 S
C93 C36 1.492 . S
C98 C5 1.497 . S
C103 C49 1.499 . S
C108 C18 1.485 . S
C113 C44 1.493 1_545 S
C118 C10 1.498 . S
C123 C23 1.491 . S
C128 C31 1.489 . S
