# Generated by pormake.
# Topology hcp, (12)-cn, num edge types: 1
# Building blocks:
#     Node 0, Type 0, BuildingBlock: UKIBUN_clean_sbu_0, # of connection points: 12
#     Node 1, Type 0, BuildingBlock: UKIBUN_clean_sbu_0, # of connection points: 12
#     Edge 2, Type (0, 0), BuildingBlock: AJUNOK_clean_linker_0, # of connection points: 2
#     Edge 3, Type (0, 0), BuildingBlock: AJUNOK_clean_linker_0, # of connection points: 2
#     Edge 4, Type (0, 0), BuildingBlock: AJUNOK_clean_linker_0, # of connection points: 2
#     Edge 5, Type (0, 0), BuildingBlock: AJUNOK_clean_linker_0, # of connection points: 2
#     Edge 6, Type (0, 0), BuildingBlock: AJUNOK_clean_linker_0, # of connection points: 2
#     Edge 7, Type (0, 0), BuildingBlock: AJUNOK_clean_linker_0, # of connection points: 2
#     Edge 8, Type (0, 0), BuildingBlock: AJUNOK_clean_linker_0, # of connection points: 2
#     Edge 9, Type (0, 0), BuildingBlock: AJUNOK_clean_linker_0, # of connection points: 2
#     Edge 10, Type (0, 0), BuildingBlock: AJUNOK_clean_linker_0, # of connection points: 2
#     Edge 11, Type (0, 0), BuildingBlock: AJUNOK_clean_linker_0, # of connection points: 2
#     Edge 12, Type (0, 0), BuildingBlock: AJUNOK_clean_linker_0, # of connection points: 2
#     Edge 13, Type (0, 0), BuildingBlock: AJUNOK_clean_linker_0, # of connection points: 2
# Relax obj value: 0.181
# Max RMSD: 0.266
# Mean RMSD: 0.266
data_MOF--net-hcp--node1-UKIBUN_clean_sbu_0--edge1-AJUNOK_clean_linker_0
_symmetry_space_group_name_H-M    P1
_symmetry_Int_Tables_number       1
_symmetry_cell_setting            triclinic
loop_
_symmetry_equiv_pos_as_xyz
'x, y, z'
_cell_length_a     14.218036
_cell_length_b     14.204213
_cell_length_c     23.058628
_cell_angle_alpha  90.467357
_cell_angle_beta   89.777883
_cell_angle_gamma 119.86224
loop_
_atom_site_label
_atom_site_type_symbol
_atom_site_fract_x
_atom_site_fract_y
_atom_site_fract_z
_atom_type_partial_charge
C0 C 0.9855 0.60974 0.26559 0.0
C1 C 0.93663 0.27534 0.255 0.0
O2 O 0.75971 0.47176 0.29033 0.0
O3 O 0.65535 0.32895 0.17298 0.0
O4 O 0.61302 0.42917 0.23648 0.0
O5 O 0.79975 0.37133 0.23328 0.0
Hf6 Hf 0.76279 0.48272 0.2013 0.0
O7 O 0.6589 0.32635 0.34953 0.0
Hf8 Hf 0.81167 0.37106 0.3219 0.0
O9 O 0.51357 0.28601 0.29078 0.0
Hf10 Hf 0.61489 0.43647 0.32573 0.0
O11 O 0.69932 0.22593 0.28765 0.0
Hf12 Hf 0.50204 0.28215 0.20181 0.0
Hf13 Hf 0.7029 0.2213 0.19857 0.0
O14 O 0.5563 0.1848 0.23358 0.0
Hf15 Hf 0.54804 0.17396 0.32238 0.0
C16 C 0.49161 0.1095 0.11062 0.0
C17 C 0.81382 0.51066 0.42445 0.0
C18 C 0.37681 0.37617 0.27198 0.0
C19 C 0.71553 0.66168 0.26587 0.0
O20 O 0.74715 0.63032 0.22024 0.0
O21 O 0.87024 0.46885 0.13333 0.0
C22 C 0.87176 0.38618 0.10929 0.0
O23 O 0.54947 0.01922 0.30156 0.0
O24 O 0.35304 0.11966 0.21646 0.0
O25 O 0.51709 0.40105 0.13354 0.0
O26 O 0.484 0.21025 0.40751 0.0
O27 O 0.77267 0.26203 0.40275 0.0
O28 O 0.96003 0.53655 0.30583 0.0
O29 O 0.86916 0.23964 0.21149 0.0
O30 O 0.57777 0.11178 0.13203 0.0
C31 C 0.47432 0.29341 0.4255 0.0
O32 O 0.45212 0.42556 0.31115 0.0
O33 O 0.71983 0.50005 0.40902 0.0
C34 C 0.60244 -0.00314 0.26278 0.0
O35 O 0.60738 0.11141 0.38703 0.0
O36 O 0.69854 0.52146 0.12467 0.0
O37 O 0.92643 0.60282 0.2225 0.0
O38 O 0.37651 0.06948 0.30697 0.0
O39 O 0.66432 0.06114 0.22365 0.0
O40 O 0.50773 0.38106 0.39787 0.0
C41 C 0.32143 0.05532 0.26085 0.0
O42 O 0.6802 0.60748 0.31246 0.0
O43 O 0.86738 0.47862 0.39441 0.0
O44 O 0.80476 0.28683 0.12168 0.0
O45 O 0.382 0.3244 0.22771 0.0
O46 O 0.45908 0.17575 0.1257 0.0
O47 O 0.92276 0.31338 0.30249 0.0
C48 C 0.69206 0.16563 0.41697 0.0
C49 C 0.59918 0.4855 0.11045 0.0
C50 C 0.50479 0.69702 0.92857 0.0
C51 C 0.27524 0.80781 0.92612 0.0
O52 O 0.46859 0.7074 0.79419 0.0
O53 O 0.22417 0.51861 0.79054 0.0
O54 O 0.37396 0.56636 0.7368 0.0
O55 O 0.32039 0.66067 0.85196 0.0
Hf56 Hf 0.36958 0.55499 0.82568 0.0
O57 O 0.42603 0.81008 0.73976 0.0
Hf58 Hf 0.42905 0.8149 0.82907 0.0
O59 O 0.33046 0.66818 0.67666 0.0
Hf60 Hf 0.48338 0.71564 0.70521 0.0
O61 O 0.27976 0.76437 0.79289 0.0
Hf62 Hf 0.2247 0.51252 0.70164 0.0
Hf63 Hf 0.16848 0.61632 0.82366 0.0
O64 O 0.18495 0.62153 0.73524 0.0
Hf65 Hf 0.28079 0.77412 0.70385 0.0
C66 C -0.00562 0.38905 0.76019 0.0
C67 C 0.65233 0.94248 0.76996 0.0
C68 C 0.38681 0.51426 0.60892 0.0
C69 C 0.60777 0.61798 0.77199 0.0
O70 O 0.53093 0.56461 0.80957 0.0
O71 O 0.26804 0.4917 0.90857 0.0
C72 C 0.17028 0.47205 0.92176 0.0
O73 O 0.11493 0.75481 0.71706 0.0
O74 O 0.1245 0.53235 0.63295 0.0
O75 O 0.24208 0.36457 0.71703 0.0
O76 O 0.40095 0.87813 0.63459 0.0
O77 O 0.42689 0.96979 0.81335 0.0
O78 O 0.4914 0.77833 0.91314 0.0
O79 O 0.19535 0.71433 0.90789 0.0
O80 O 0.01573 0.463 0.79966 0.0
C81 C 0.48676 0.88046 0.61228 0.0
O82 O 0.46855 0.59815 0.63375 0.0
O83 O 0.62347 0.88309 0.72311 0.0
C84 C 0.04749 0.71845 0.76033 0.0
O85 O 0.32187 0.93549 0.73165 0.0
O86 O 0.30449 0.38406 0.81016 0.0
O87 O 0.47592 0.61163 0.89865 0.0
O88 O 0.17755 0.71263 0.62709 0.0
O89 O 0.06061 0.67887 0.80704 0.0
O90 O 0.52412 0.81938 0.62894 0.0
C91 C 0.11757 0.61332 0.61154 0.0
O92 O 0.60524 0.67568 0.73041 0.0
O93 O 0.60143 0.91321 0.81775 0.0
O94 O 0.11235 0.49515 0.88973 0.0
O95 O 0.28759 0.47686 0.6234 0.0
O96 O 0.0602 0.39262 0.72126 0.0
O97 O 0.36394 0.86403 0.8992 0.0
C98 C 0.37743 -0.00508 0.77438 0.0
C99 C 0.27031 0.33112 0.76276 0.0
C100 C 0.3616 0.8452 0.02162 0.0
C101 C 0.28462 0.85173 0.98591 0.0
C102 C 0.42709 0.92733 0.06148 0.0
C103 C 0.41901 0.02129 0.06837 0.0
H104 H 0.38196 0.78309 1.01315 0.0
H105 H 0.48778 0.9189 0.08514 0.0
S106 S 0.22151 0.0751 0.99006 0.0
N107 N 0.19866 0.95717 0.96358 0.0
N108 N 0.31831 0.11106 0.03893 0.0
C109 C 0.33636 0.02573 0.03603 0.0
C110 C 0.27009 0.94144 0.99512 0.0
C111 C 0.32134 0.37004 0.52897 0.0
C112 C 0.40608 0.44737 0.56467 0.0
C113 C 0.3379 0.30288 0.48931 0.0
C114 C 0.43887 0.30703 0.48445 0.0
H115 H 0.2423 0.36385 0.53004 0.0
H116 H 0.27369 0.25376 0.45892 0.0
S117 S 0.67925 0.48207 0.57576 0.0
N118 N 0.58946 0.51528 0.59682 0.0
N119 N 0.62028 0.38914 0.52433 0.0
C120 C 0.52089 0.37946 0.52282 0.0
C121 C 0.50501 0.44959 0.56187 0.0
C122 C 0.03985 0.51125 0.05282 0.0
C123 C 0.9593 0.40505 0.0664 0.0
C124 C 0.11941 0.53108 1.01104 0.0
C125 C 0.12423 0.44646 0.98098 0.0
H126 H 0.03986 0.58029 0.07313 0.0
H127 H 0.17497 0.61442 0.99995 0.0
S128 S 0.94241 0.15288 1.00502 0.0
N129 N 0.89726 0.2122 0.05026 0.0
N130 N 0.04606 0.25226 0.97074 0.0
C131 C 0.04879 0.33997 0.99646 0.0
C132 C 0.96712 0.31875 0.03936 0.0
C133 C 0.53378 0.04808 0.55353 0.0
C134 C 0.55146 0.96141 0.56569 0.0
C135 C 0.59221 0.12345 0.50979 0.0
C136 C 0.67262 0.11774 0.47596 0.0
H137 H 0.47191 0.05621 0.57675 0.0
H138 H 0.56956 0.18369 0.49997 0.0
S139 S 0.75205 0.90725 0.48937 0.0
N140 N 0.65876 0.87582 0.54 0.0
N141 N 0.76564 0.0171 0.4576 0.0
C142 C 0.69333 0.03339 0.48845 0.0
C143 C 0.63408 0.95605 0.53325 0.0
C144 C 0.66089 0.62357 0.02942 0.0
C145 C 0.57899 0.55239 0.06789 0.0
C146 C 0.64237 0.68749 0.98947 0.0
C147 C 0.54184 0.68458 0.98658 0.0
H148 H 0.73875 0.62711 0.0286 0.0
H149 H 0.7042 0.73265 0.95733 0.0
S150 S 0.30573 0.51923 0.08206 0.0
N151 N 0.3984 0.49112 0.1044 0.0
N152 N 0.36142 0.60543 0.02816 0.0
C153 C 0.46201 0.61748 0.02704 0.0
C154 C 0.48089 0.5529 0.06764 0.0
C155 C 0.94072 0.64869 0.49695 0.0
C156 C 0.86225 0.54092 0.48364 0.0
C157 C 0.02298 0.67298 0.53857 0.0
C158 C 0.02931 0.58986 0.56888 0.0
H159 H 0.94187 0.71399 0.47291 0.0
H160 H 0.08371 0.7572 0.5456 0.0
S161 S 0.83189 0.29726 0.55972 0.0
N162 N 0.79216 0.35241 0.50975 0.0
N163 N 0.93881 0.39842 0.58985 0.0
C164 C 0.94619 0.4835 0.55964 0.0
C165 C 0.86546 0.45898 0.5166 0.0
C166 C 0.63528 0.86581 0.31663 0.0
C167 C 0.60847 0.89675 0.26466 0.0
C168 C 0.67847 0.79615 0.31611 0.0
C169 C 0.69631 0.75469 0.26358 0.0
H170 H 0.62844 0.90001 0.35753 0.0
H171 H 0.69724 0.77382 0.35751 0.0
S172 S 0.64551 0.81915 0.11599 0.0
N173 N 0.60372 0.88312 0.15955 0.0
N174 N 0.68818 0.75533 0.15855 0.0
C175 C 0.67062 0.78628 0.21149 0.0
C176 C 0.62452 0.85504 0.21213 0.0
C177 C 0.90845 0.7678 0.78454 0.0
C178 C 0.93699 0.69927 0.75478 0.0
C179 C 0.79948 0.73469 0.7958 0.0
C180 C 0.71564 0.63092 0.77909 0.0
H181 H 0.97085 0.8464 0.80028 0.0
H182 H 0.78009 0.79221 0.81593 0.0
S183 S 0.74942 0.41618 0.70694 0.0
N184 N 0.87412 0.51983 0.71323 0.0
N185 N 0.66881 0.45802 0.73436 0.0
C186 C 0.74331 0.5605 0.75094 0.0
C187 C 0.85412 0.5946 0.73884 0.0
C188 C 0.21669 0.87461 0.21396 0.0
C189 C 0.22447 0.94711 0.25779 0.0
C190 C 0.14528 0.76277 0.21954 0.0
C191 C 0.08164 0.71871 0.26989 0.0
H192 H 0.26846 0.90394 0.17606 0.0
H193 H 0.13702 0.71037 0.18319 0.0
S194 S 0.06322 0.87777 0.39299 0.0
N195 N 0.15684 0.96967 0.35045 0.0
N196 N 0.02292 0.75912 0.36101 0.0
C197 C 0.08699 0.79116 0.31314 0.0
C198 C 0.15812 0.90516 0.30699 0.0
C199 C 0.26173 0.17197 0.81144 0.0
C200 C 0.28568 0.2359 0.76101 0.0
C201 C 0.30341 0.1019 0.81968 0.0
C202 C 0.37217 0.09484 0.77836 0.0
H203 H 0.21173 0.17777 0.84531 0.0
H204 H 0.27744 0.04909 0.85697 0.0
S205 S 0.45953 0.24154 0.64007 0.0
N206 N 0.38295 0.28617 0.66967 0.0
N207 N 0.46171 0.15471 0.68594 0.0
C208 C 0.39794 0.15893 0.72864 0.0
C209 C 0.35403 0.22858 0.71953 0.0
C210 C 0.18288 0.25568 0.29061 0.0
C211 C 0.26786 0.3616 0.27882 0.0
C212 C 0.07466 0.22329 0.27717 0.0
C213 C 0.0478 0.2947 0.24989 0.0
H214 H 0.20098 0.19612 0.30851 0.0
H215 H 0.01138 0.14287 0.28947 0.0
S216 S 0.2391 0.58281 0.21429 0.0
N217 N 0.31748 0.53847 0.24085 0.0
N218 N 0.11401 0.47869 0.21577 0.0
C219 C 0.13195 0.40124 0.23873 0.0
C220 C 0.24182 0.43437 0.2531 0.0
C221 C 0.86473 0.21466 0.71274 0.0
C222 C 0.89334 0.28355 0.76198 0.0
C223 C 0.78914 0.10434 0.71587 0.0
C224 C 0.73838 0.05795 0.7684 0.0
H225 H 0.90514 0.24497 0.67166 0.0
H226 H 0.77122 0.05533 0.67684 0.0
S227 S 0.7729 0.20692 0.90838 0.0
N228 N 0.85716 0.30042 0.86315 0.0
N229 N 0.71427 0.09304 0.8704 0.0
C230 C 0.7617 0.12751 0.81757 0.0
C231 C 0.83863 0.24031 0.81392 0.0
loop_
_geom_bond_atom_site_label_1
_geom_bond_atom_site_label_2
_geom_bond_distance
_geom_bond_site_symmetry_2
_ccdc_geom_bond_type
C0 O28 1.281 1_455 S
C0 O37 1.281 1_455 S
C1 O29 1.281 . S
C1 O47 1.281 . S
O2 Hf6 2.202 . S
O2 Hf8 2.202 . S
O2 Hf10 2.202 . S
O3 Hf6 2.202 . S
O3 Hf12 2.202 . S
O3 Hf13 2.202 . S
O4 Hf6 2.072 . S
O4 Hf10 2.072 . S
O4 Hf12 2.072 . S
O5 Hf6 2.072 . S
O5 Hf8 2.072 . S
O5 Hf13 2.072 . S
Hf6 O2 2.202 . S
Hf6 O3 2.202 . S
Hf6 O4 2.072 . S
Hf6 O5 2.072 . S
Hf6 O20 2.209 . S
Hf6 O21 2.209 . S
Hf6 O36 2.209 . S
Hf6 O37 2.209 . S
O7 Hf8 2.072 . S
O7 Hf10 2.072 . S
O7 Hf15 2.072 . S
Hf8 O2 2.202 . S
Hf8 O5 2.072 . S
Hf8 O7 2.072 . S
Hf8 O11 2.202 . S
Hf8 O27 2.209 . S
Hf8 O28 2.209 . S
Hf8 O43 2.209 . S
Hf8 O47 2.209 . S
O9 Hf10 2.202 . S
O9 Hf12 2.202 . S
O9 Hf15 2.202 . S
Hf10 O2 2.202 . S
Hf10 O4 2.072 . S
Hf10 O7 2.072 . S
Hf10 O9 2.202 . S
Hf10 O32 2.209 . S
Hf10 O33 2.209 . S
Hf10 O40 2.209 . S
Hf10 O42 2.209 . S
O11 Hf8 2.202 . S
O11 Hf13 2.202 . S
O11 Hf15 2.202 . S
Hf12 O3 2.202 . S
Hf12 O4 2.072 . S
Hf12 O9 2.202 . S
Hf12 O14 2.072 . S
Hf12 O24 2.209 . S
Hf12 O25 2.209 . S
Hf12 O45 2.209 . S
Hf12 O46 2.209 . S
Hf13 O3 2.202 . S
Hf13 O5 2.072 . S
Hf13 O11 2.202 . S
Hf13 O14 2.072 . S
Hf13 O29 2.209 . S
Hf13 O30 2.209 . S
Hf13 O39 2.209 . S
Hf13 O44 2.209 . S
O14 Hf12 2.072 . S
O14 Hf13 2.072 . S
O14 Hf15 2.072 . S
Hf15 O7 2.072 . S
Hf15 O9 2.202 . S
Hf15 O11 2.202 . S
Hf15 O14 2.072 . S
Hf15 O23 2.209 . S
Hf15 O26 2.209 . S
Hf15 O35 2.209 . S
Hf15 O38 2.209 . S
C16 O30 1.281 . S
C16 O46 1.281 . S
C17 O33 1.281 . S
C17 O43 1.281 . S
C18 O32 1.281 . S
C18 O45 1.281 . S
C19 O20 1.281 . S
C19 O42 1.281 . S
O20 Hf6 2.209 . S
O20 C19 1.281 . S
O21 Hf6 2.209 . S
O21 C22 1.281 . S
C22 O21 1.281 . S
C22 O44 1.281 . S
O23 Hf15 2.209 . S
O23 C34 1.281 1_545 S
O24 Hf12 2.209 . S
O24 C41 1.281 . S
O25 Hf12 2.209 . S
O25 C49 1.281 . S
O26 Hf15 2.209 . S
O26 C31 1.281 . S
O27 Hf8 2.209 . S
O27 C48 1.281 . S
O28 C0 1.281 1_655 S
O28 Hf8 2.209 . S
O29 C1 1.281 . S
O29 Hf13 2.209 . S
O30 Hf13 2.209 . S
O30 C16 1.281 . S
C31 O26 1.281 . S
C31 O40 1.281 . S
O32 Hf10 2.209 . S
O32 C18 1.281 . S
O33 Hf10 2.209 . S
O33 C17 1.281 . S
C34 O23 1.281 1_565 S
C34 O39 1.281 1_565 S
O35 Hf15 2.209 . S
O35 C48 1.281 . S
O36 Hf6 2.209 . S
O36 C49 1.281 . S
O37 C0 1.281 1_655 S
O37 Hf6 2.209 . S
O38 Hf15 2.209 . S
O38 C41 1.281 . S
O39 Hf13 2.209 . S
O39 C34 1.281 1_545 S
O40 Hf10 2.209 . S
O40 C31 1.281 . S
C41 O24 1.281 . S
C41 O38 1.281 . S
O42 Hf10 2.209 . S
O42 C19 1.281 . S
O43 Hf8 2.209 . S
O43 C17 1.281 . S
O44 Hf13 2.209 . S
O44 C22 1.281 . S
O45 Hf12 2.209 . S
O45 C18 1.281 . S
O46 Hf12 2.209 . S
O46 C16 1.281 . S
O47 C1 1.281 . S
O47 Hf8 2.209 . S
C48 O27 1.281 . S
C48 O35 1.281 . S
C49 O25 1.281 . S
C49 O36 1.281 . S
C50 O78 1.281 . S
C50 O87 1.281 . S
C51 O79 1.281 . S
C51 O97 1.281 . S
O52 Hf56 2.202 . S
O52 Hf58 2.202 . S
O52 Hf60 2.202 . S
O53 Hf56 2.202 . S
O53 Hf62 2.202 . S
O53 Hf63 2.202 . S
O54 Hf56 2.072 . S
O54 Hf60 2.072 . S
O54 Hf62 2.072 . S
O55 Hf56 2.072 . S
O55 Hf58 2.072 . S
O55 Hf63 2.072 . S
Hf56 O52 2.202 . S
Hf56 O53 2.202 . S
Hf56 O54 2.072 . S
Hf56 O55 2.072 . S
Hf56 O70 2.209 . S
Hf56 O71 2.209 . S
Hf56 O86 2.209 . S
Hf56 O87 2.209 . S
O57 Hf58 2.072 . S
O57 Hf60 2.072 . S
O57 Hf65 2.072 . S
Hf58 O52 2.202 . S
Hf58 O55 2.072 . S
Hf58 O57 2.072 . S
Hf58 O61 2.202 . S
Hf58 O77 2.209 . S
Hf58 O78 2.209 . S
Hf58 O93 2.209 . S
Hf58 O97 2.209 . S
O59 Hf60 2.202 . S
O59 Hf62 2.202 . S
O59 Hf65 2.202 . S
Hf60 O52 2.202 . S
Hf60 O54 2.072 . S
Hf60 O57 2.072 . S
Hf60 O59 2.202 . S
Hf60 O82 2.209 . S
Hf60 O83 2.209 . S
Hf60 O90 2.209 . S
Hf60 O92 2.209 . S
O61 Hf58 2.202 . S
O61 Hf63 2.202 . S
O61 Hf65 2.202 . S
Hf62 O53 2.202 . S
Hf62 O54 2.072 . S
Hf62 O59 2.202 . S
Hf62 O64 2.072 . S
Hf62 O74 2.209 . S
Hf62 O75 2.209 . S
Hf62 O95 2.209 . S
Hf62 O96 2.209 . S
Hf63 O53 2.202 . S
Hf63 O55 2.072 . S
Hf63 O61 2.202 . S
Hf63 O64 2.072 . S
Hf63 O79 2.209 . S
Hf63 O80 2.209 . S
Hf63 O89 2.209 . S
Hf63 O94 2.209 . S
O64 Hf62 2.072 . S
O64 Hf63 2.072 . S
O64 Hf65 2.072 . S
Hf65 O57 2.072 . S
Hf65 O59 2.202 . S
Hf65 O61 2.202 . S
Hf65 O64 2.072 . S
Hf65 O73 2.209 . S
Hf65 O76 2.209 . S
Hf65 O85 2.209 . S
Hf65 O88 2.209 . S
C66 O80 1.281 1_655 S
C66 O96 1.281 1_655 S
C67 O83 1.281 . S
C67 O93 1.281 . S
C68 O82 1.281 . S
C68 O95 1.281 . S
C69 O70 1.281 . S
C69 O92 1.281 . S
O70 Hf56 2.209 . S
O70 C69 1.281 . S
O71 Hf56 2.209 . S
O71 C72 1.281 . S
C72 O71 1.281 . S
C72 O94 1.281 . S
O73 Hf65 2.209 . S
O73 C84 1.281 . S
O74 Hf62 2.209 . S
O74 C91 1.281 . S
O75 Hf62 2.209 . S
O75 C99 1.281 . S
O76 Hf65 2.209 . S
O76 C81 1.281 . S
O77 Hf58 2.209 . S
O77 C98 1.281 1_565 S
O78 C50 1.281 . S
O78 Hf58 2.209 . S
O79 C51 1.281 . S
O79 Hf63 2.209 . S
O80 Hf63 2.209 . S
O80 C66 1.281 1_455 S
C81 O76 1.281 . S
C81 O90 1.281 . S
O82 Hf60 2.209 . S
O82 C68 1.281 . S
O83 Hf60 2.209 . S
O83 C67 1.281 . S
C84 O73 1.281 . S
C84 O89 1.281 . S
O85 Hf65 2.209 . S
O85 C98 1.281 1_565 S
O86 Hf56 2.209 . S
O86 C99 1.281 . S
O87 C50 1.281 . S
O87 Hf56 2.209 . S
O88 Hf65 2.209 . S
O88 C91 1.281 . S
O89 Hf63 2.209 . S
O89 C84 1.281 . S
O90 Hf60 2.209 . S
O90 C81 1.281 . S
C91 O74 1.281 . S
C91 O88 1.281 . S
O92 Hf60 2.209 . S
O92 C69 1.281 . S
O93 Hf58 2.209 . S
O93 C67 1.281 . S
O94 Hf63 2.209 . S
O94 C72 1.281 . S
O95 Hf62 2.209 . S
O95 C68 1.281 . S
O96 Hf62 2.209 . S
O96 C66 1.281 1_455 S
O97 C51 1.281 . S
O97 Hf58 2.209 . S
C98 O77 1.281 1_545 S
C98 O85 1.281 1_545 S
C99 O75 1.281 . S
C99 O86 1.281 . S
C100 C101 1.369 1_554 S
C100 C102 1.419 . S
C100 H104 0.930 . S
C101 C100 1.369 1_556 S
C101 C110 1.429 . S
C102 C100 1.419 . S
C102 C103 1.363 1_565 S
C102 H105 0.929 . S
C103 C102 1.363 1_545 S
C103 C109 1.428 . S
H104 C100 0.930 . S
H105 C102 0.929 . S
S106 N107 1.613 . S
S106 N108 1.610 1_556 S
N107 S106 1.613 . S
N107 C110 1.350 1_545 S
N108 S106 1.610 1_554 S
N108 C109 1.351 . S
C109 C103 1.428 . S
C109 N108 1.351 . S
C109 C110 1.434 1_544 S
C110 C101 1.429 . S
C110 N107 1.350 1_565 S
C110 C109 1.434 1_566 S
C111 C112 1.369 . S
C111 C113 1.419 . S
C111 H115 0.930 . S
C112 C111 1.369 . S
C112 C121 1.429 . S
C113 C111 1.419 . S
C113 C114 1.363 . S
C113 H116 0.929 . S
C114 C113 1.363 . S
C114 C120 1.428 . S
H115 C111 0.930 . S
H116 C113 0.929 . S
S117 N118 1.613 . S
S117 N119 1.610 . S
N118 S117 1.613 . S
N118 C121 1.350 . S
N119 S117 1.610 . S
N119 C120 1.351 . S
C120 C114 1.428 . S
C120 N119 1.351 . S
C120 C121 1.434 . S
C121 C112 1.429 . S
C121 N118 1.350 . S
C121 C120 1.434 . S
C122 C123 1.369 1_455 S
C122 C124 1.419 . S
C122 H126 0.930 . S
C123 C122 1.369 1_655 S
C123 C132 1.429 1_554 S
C124 C122 1.419 . S
C124 C125 1.363 1_554 S
C124 H127 0.929 . S
C125 C124 1.363 1_556 S
C125 C131 1.428 . S
H126 C122 0.930 . S
H127 C124 0.929 . S
S128 N129 1.613 . S
S128 N130 1.610 . S
N129 S128 1.613 . S
N129 C132 1.350 . S
N130 S128 1.610 . S
N130 C131 1.351 1_655 S
C131 C125 1.428 . S
C131 N130 1.351 1_455 S
C131 C132 1.434 1_455 S
C132 C123 1.429 1_556 S
C132 N129 1.350 . S
C132 C131 1.434 1_655 S
C133 C134 1.369 1_545 S
C133 C135 1.419 . S
C133 H137 0.930 . S
C134 C133 1.369 1_565 S
C134 C143 1.429 . S
C135 C133 1.419 . S
C135 C136 1.363 . S
C135 H138 0.929 . S
C136 C135 1.363 . S
C136 C142 1.428 . S
H137 C133 0.930 . S
H138 C135 0.929 . S
S139 N140 1.613 . S
S139 N141 1.610 . S
N140 S139 1.613 . S
N140 C143 1.350 . S
N141 S139 1.610 . S
N141 C142 1.351 1_565 S
C142 C136 1.428 . S
C142 N141 1.351 1_545 S
C142 C143 1.434 1_545 S
C143 C134 1.429 . S
C143 N140 1.350 . S
C143 C142 1.434 1_565 S
C144 C145 1.369 . S
C144 C146 1.419 . S
C144 H148 0.930 . S
C145 C144 1.369 . S
C145 C154 1.429 . S
C146 C144 1.419 . S
C146 C147 1.363 1_554 S
C146 H149 0.929 . S
C147 C146 1.363 1_556 S
C147 C153 1.428 . S
H148 C144 0.930 . S
H149 C146 0.929 . S
S150 N151 1.613 . S
S150 N152 1.610 . S
N151 S150 1.613 . S
N151 C154 1.350 1_556 S
N152 S150 1.610 . S
N152 C153 1.351 . S
C153 C147 1.428 . S
C153 N152 1.351 . S
C153 C154 1.434 1_556 S
C154 C145 1.429 . S
C154 N151 1.350 1_554 S
C154 C153 1.434 1_554 S
C155 C156 1.369 . S
C155 C157 1.419 . S
C155 H159 0.930 . S
C156 C155 1.369 . S
C156 C165 1.429 . S
C157 C155 1.419 . S
C157 C158 1.363 1_655 S
C157 H160 0.929 1_655 S
C158 C157 1.363 1_455 S
C158 C164 1.428 1_455 S
H159 C155 0.930 . S
H160 C157 0.929 1_455 S
S161 N162 1.613 . S
S161 N163 1.610 . S
N162 S161 1.613 . S
N162 C165 1.350 . S
N163 S161 1.610 . S
N163 C164 1.351 . S
C164 C158 1.428 1_655 S
C164 N163 1.351 . S
C164 C165 1.434 . S
C165 C156 1.429 . S
C165 N162 1.350 . S
C165 C164 1.434 . S
C166 C167 1.369 . S
C166 C168 1.419 . S
C166 H170 0.930 . S
C167 C166 1.369 . S
C167 C176 1.429 . S
C168 C166 1.419 . S
C168 C169 1.363 . S
C168 H171 0.929 . S
C169 C168 1.363 . S
C169 C175 1.428 . S
H170 C166 0.930 . S
H171 C168 0.929 . S
S172 N173 1.613 1_565 S
S172 N174 1.610 . S
N173 S172 1.613 1_545 S
N173 C176 1.350 1_545 S
N174 S172 1.610 . S
N174 C175 1.351 . S
C175 C169 1.428 . S
C175 N174 1.351 . S
C175 C176 1.434 . S
C176 C167 1.429 . S
C176 N173 1.350 1_565 S
C176 C175 1.434 . S
C177 C178 1.369 . S
C177 C179 1.419 . S
C177 H181 0.930 . S
C178 C177 1.369 . S
C178 C187 1.429 . S
C179 C177 1.419 . S
C179 C180 1.363 . S
C179 H182 0.929 . S
C180 C179 1.363 . S
C180 C186 1.428 . S
H181 C177 0.930 . S
H182 C179 0.929 . S
S183 N184 1.613 . S
S183 N185 1.610 . S
N184 S183 1.613 . S
N184 C187 1.350 . S
N185 S183 1.610 . S
N185 C186 1.351 . S
C186 C180 1.428 . S
C186 N185 1.351 . S
C186 C187 1.434 . S
C187 C178 1.429 . S
C187 N184 1.350 . S
C187 C186 1.434 . S
C188 C189 1.369 . S
C188 C190 1.419 . S
C188 H192 0.930 . S
C189 C188 1.369 . S
C189 C198 1.429 . S
C190 C188 1.419 . S
C190 C191 1.363 . S
C190 H193 0.929 . S
C191 C190 1.363 . S
C191 C197 1.428 . S
H192 C188 0.930 . S
H193 C190 0.929 . S
S194 N195 1.613 1_655 S
S194 N196 1.610 . S
N195 S194 1.613 1_455 S
N195 C198 1.350 . S
N196 S194 1.610 . S
N196 C197 1.351 1_655 S
C197 C191 1.428 . S
C197 N196 1.351 1_455 S
C197 C198 1.434 . S
C198 C189 1.429 . S
C198 N195 1.350 . S
C198 C197 1.434 . S
C199 C200 1.369 . S
C199 C201 1.419 . S
C199 H203 0.930 . S
C200 C199 1.369 . S
C200 C209 1.429 . S
C201 C199 1.419 . S
C201 C202 1.363 . S
C201 H204 0.929 1_545 S
C202 C201 1.363 . S
C202 C208 1.428 . S
H203 C199 0.930 . S
H204 C201 0.929 1_565 S
S205 N206 1.613 . S
S205 N207 1.610 . S
N206 S205 1.613 . S
N206 C209 1.350 . S
N207 S205 1.610 . S
N207 C208 1.351 . S
C208 C202 1.428 . S
C208 N207 1.351 . S
C208 C209 1.434 . S
C209 C200 1.429 . S
C209 N206 1.350 . S
C209 C208 1.434 . S
C210 C211 1.369 . S
C210 C212 1.419 . S
C210 H214 0.930 . S
C211 C210 1.369 . S
C211 C220 1.429 . S
C212 C210 1.419 . S
C212 C213 1.363 . S
C212 H215 0.929 . S
C213 C212 1.363 . S
C213 C219 1.428 . S
H214 C210 0.930 . S
H215 C212 0.929 . S
S216 N217 1.613 . S
S216 N218 1.610 . S
N217 S216 1.613 . S
N217 C220 1.350 . S
N218 S216 1.610 . S
N218 C219 1.351 . S
C219 C213 1.428 . S
C219 N218 1.351 . S
C219 C220 1.434 . S
C220 C211 1.429 . S
C220 N217 1.350 . S
C220 C219 1.434 . S
C221 C222 1.369 . S
C221 C223 1.419 . S
C221 H225 0.930 1_655 S
C222 C221 1.369 . S
C222 C231 1.429 . S
C223 C221 1.419 . S
C223 C224 1.363 . S
C223 H226 0.929 . S
C224 C223 1.363 . S
C224 C230 1.428 . S
H225 C221 0.930 1_455 S
H226 C223 0.929 . S
S227 N228 1.613 . S
S227 N229 1.610 . S
N228 S227 1.613 . S
N228 C231 1.350 . S
N229 S227 1.610 . S
N229 C230 1.351 . S
C230 C224 1.428 . S
C230 N229 1.351 . S
C230 C231 1.434 . S
C231 C222 1.429 . S
C231 N228 1.350 . S
C231 C230 1.434 . S
C101 C51 1.758 . S
C103 C16 1.917 . S
C112 C68 1.919 . S
C114 C31 1.755 . S
C123 C22 1.916 . S
C125 C72 1.760 . S
C134 C81 1.917 . S
C136 C48 1.759 . S
C145 C49 1.919 . S
C147 C50 1.755 . S
C156 C17 1.756 . S
C158 C91 1.919 . S
C167 C34 1.249 . S
C169 C19 1.265 . S
C178 C84 1.262 1_655 S
C180 C69 1.253 . S
C189 C41 1.266 1_565 S
C191 C0 1.247 . S
C200 C99 1.261 . S
C202 C98 1.254 . S
C211 C18 1.255 . S
C213 C1 1.261 1_455 S
C222 C66 1.255 . S
C224 C67 1.261 1_545 S
