# Generated by pormake.
# Topology kag, (6)-cn, num edge types: 1
# Building blocks:
#     Node 0, Type 0, BuildingBlock: MIFKUJ_clean_sbu_0, # of connection points: 6
#     Node 1, Type 0, BuildingBlock: MIFKUJ_clean_sbu_0, # of connection points: 6
#     Node 2, Type 0, BuildingBlock: MIFKUJ_clean_sbu_0, # of connection points: 6
#     Edge 3, Type (0, 0), BuildingBlock: OJICUG_clean_linker_0, # of connection points: 2
#     Edge 4, Type (0, 0), BuildingBlock: OJICUG_clean_linker_0, # of connection points: 2
#     Edge 5, Type (0, 0), BuildingBlock: OJICUG_clean_linker_0, # of connection points: 2
#     Edge 6, Type (0, 0), BuildingBlock: OJICUG_clean_linker_0, # of connection points: 2
#     Edge 7, Type (0, 0), BuildingBlock: OJICUG_clean_linker_0, # of connection points: 2
#     Edge 8, Type (0, 0), BuildingBlock: OJICUG_clean_linker_0, # of connection points: 2
#     Edge 9, Type (0, 0), BuildingBlock: OJICUG_clean_linker_0, # of connection points: 2
#     Edge 10, Type (0, 0), BuildingBlock: OJICUG_clean_linker_0, # of connection points: 2
#     Edge 11, Type (0, 0), BuildingBlock: OJICUG_clean_linker_0, # of connection points: 2
# Relax obj value: 0.014
# Max RMSD: 0.075
# Mean RMSD: 0.048
data_MOF--net-kag--node1-MIFKUJ_clean_sbu_0--edge1-OJICUG_clean_linker_0
_symmetry_space_group_name_H-M    P1
_symmetry_Int_Tables_number       1
_symmetry_cell_setting            triclinic
loop_
_symmetry_equiv_pos_as_xyz
'x, y, z'
_cell_length_a     27.425523
_cell_length_b     26.549854
_cell_length_c     10.10494
_cell_angle_alpha  92.152135
_cell_angle_beta   97.725555
_cell_angle_gamma 115.38813
loop_
_atom_site_label
_atom_site_type_symbol
_atom_site_fract_x
_atom_site_fract_y
_atom_site_fract_z
_atom_type_partial_charge
Zn0 Zn 0.07147 0.54284 0.05864 0.0
Zn1 Zn 0.94926 0.41486 0.03184 0.0
C2 C 0.16953 0.5331 0.13215 0.0
O3 O 0.1676 0.56141 0.23924 0.0
C4 C 0.86911 0.44622 0.90262 0.0
O5 O 0.87073 0.4129 0.80552 0.0
O6 O 0.11041 0.62639 0.06137 0.0
O7 O 0.01047 0.51355 0.90484 0.0
O8 O 0.99171 0.4246 0.88523 0.0
C9 C 0.13734 0.64335 0.96613 0.0
O10 O 0.13471 0.6061 0.87268 0.0
O11 O 0.1296 0.51635 0.03506 0.0
C12 C 0.86914 0.31386 0.10699 0.0
O13 O 0.88114 0.34579 0.22042 0.0
O14 O 0.89522 0.3339 0.01203 0.0
O15 O 0.99344 0.43344 0.21353 0.0
O16 O 0.04975 0.52488 0.23624 0.0
O17 O 0.90224 0.45692 0.01233 0.0
C18 C 0.00871 0.4714 0.83806 0.0
C19 C 0.02569 0.47893 0.28522 0.0
Zn20 Zn 0.42923 0.93008 0.97493 0.0
Zn21 Zn 0.54416 0.08053 0.00839 0.0
C22 C 0.46696 0.85795 0.8562 0.0
O23 O 0.43624 0.8633 0.75131 0.0
C24 C 0.48572 0.15081 0.97414 0.0
O25 O 0.4523 0.11612 0.04628 0.0
O26 O 0.35272 0.86894 0.94757 0.0
O27 O 0.44522 0.9713 0.15492 0.0
O28 O 0.51366 0.05733 0.17673 0.0
C29 C 0.31566 0.86351 0.01654 0.0
O30 O 0.32554 0.90183 0.11554 0.0
O31 O 0.47487 0.8874 0.96621 0.0
C32 C 0.65921 0.12382 0.98155 0.0
O33 O 0.64026 0.09989 0.85761 0.0
O34 O 0.62584 0.11815 0.06198 0.0
O35 O 0.52139 0.02002 0.85816 0.0
O36 O 0.43191 0.97564 0.82399 0.0
O37 O 0.52511 0.14205 0.94345 0.0
C38 C 0.47691 0.01762 0.22409 0.0
C39 C 0.47568 0.00797 0.78525 0.0
Zn40 Zn 0.58583 0.49185 0.96097 0.0
Zn41 Zn 0.46838 0.54682 0.95785 0.0
C42 C 0.50475 0.37428 0.94754 0.0
O43 O 0.48357 0.3932 0.03497 0.0
C44 C 0.48456 0.64957 0.84939 0.0
O45 O 0.46016 0.61412 0.74061 0.0
O46 O 0.66556 0.50783 0.96415 0.0
O47 O 0.56443 0.54065 0.84141 0.0
O48 O 0.47624 0.51476 0.78478 0.0
C49 C 0.67669 0.48599 0.8651 0.0
O50 O 0.63753 0.45889 0.76261 0.0
O51 O 0.54415 0.40905 0.89643 0.0
C52 C 0.3787 0.53766 0.07979 0.0
O53 O 0.42051 0.56922 0.17277 0.0
O54 O 0.38807 0.51918 0.97279 0.0
O55 O 0.50694 0.52847 0.11851 0.0
O56 O 0.57434 0.50249 0.14984 0.0
O57 O 0.496 0.63106 0.95777 0.0
C58 C 0.52112 0.51879 0.75422 0.0
C59 C 0.53926 0.51493 0.1946 0.0
C60 C 0.03474 0.52597 0.64433 0.0
C61 C 0.02014 0.47511 0.70103 0.0
H62 H 0.04921 0.56726 0.46671 0.0
C63 C 0.01358 0.42704 0.62336 0.0
H64 H 0.03987 0.56361 0.70209 0.0
C65 C 0.0181 0.42898 0.48841 0.0
C66 C 0.02993 0.47915 0.43031 0.0
H67 H 1.00288 0.38741 0.66518 0.0
H68 H 0.01062 0.39085 0.42864 0.0
C69 C 0.04017 0.52812 0.50987 0.0
C70 C 0.42606 0.98767 0.41395 0.0
C71 C 0.47382 0.023 0.36718 0.0
H72 H 0.38891 0.95579 0.5835 0.0
C73 C 0.52012 0.05904 0.45952 0.0
H74 H 0.38953 0.96019 0.34481 0.0
C75 C 0.51999 0.05624 0.59692 0.0
C76 C 0.47346 0.01778 0.6432 0.0
H77 H 0.55738 0.08702 0.42582 0.0
H78 H 0.55682 0.08264 0.66643 0.0
C79 C 0.42573 0.98532 0.55083 0.0
C80 C 0.47919 0.50033 0.51225 0.0
C81 C 0.52523 0.51304 0.61099 0.0
H82 H 0.44791 0.49129 0.30315 0.0
C83 C 0.57566 0.52371 0.57114 0.0
H84 H 0.43966 0.49164 0.53927 0.0
C85 C 0.58016 0.52285 0.43515 0.0
C86 C 0.53457 0.51251 0.33743 0.0
H87 H 0.61194 0.53414 0.64487 0.0
H88 H 0.61961 0.53212 0.4068 0.0
C89 C 0.48395 0.5005 0.37695 0.0
C90 C 0.26307 0.54575 0.23119 0.0
C91 C 0.22027 0.52714 0.12079 0.0
H92 H 0.34599 0.56304 0.30504 0.0
C93 C 0.22842 0.50711 -0.00126 0.0
H94 H 0.25819 0.56106 0.32706 0.0
C95 C 0.27922 0.50818 -0.01389 0.0
C96 C 0.32277 0.52941 0.09521 0.0
H97 H 0.19627 0.49247 0.91176 0.0
H98 H 0.28494 0.49434 0.88967 0.0
C99 C 0.31359 0.54691 0.21855 0.0
C100 C 0.73614 0.19362 0.15098 0.0
C101 C 0.71703 0.16542 0.02048 0.0
H102 H 0.79956 0.26238 0.28118 0.0
C103 C 0.75179 0.18193 0.92405 0.0
H104 H 0.71061 0.18158 0.22811 0.0
C105 C 0.80287 0.22839 0.95456 0.0
C106 C 0.82017 0.25915 0.08213 0.0
H107 H 0.73847 0.16085 0.82287 0.0
H108 H 0.82756 0.24175 0.87605 0.0
C109 C 0.7872 0.24 0.18149 0.0
C110 C 0.47131 0.77731 0.73086 0.0
C111 C 0.48199 0.8105 0.85258 0.0
H112 H 0.46445 0.70099 0.63427 0.0
C113 C 0.50062 0.79369 0.97174 0.0
H114 H 0.45736 0.78919 0.63703 0.0
C115 C 0.5046 0.74276 0.97023 0.0
C116 C 0.4901 0.70771 0.84949 0.0
H117 H 0.50934 0.81832 0.06726 0.0
H118 H 0.51638 0.72963 0.06454 0.0
C119 C 0.47534 0.72658 0.72933 0.0
C120 C 0.8149 0.49035 0.00049 0.0
C121 C 0.82452 0.46428 0.88962 0.0
H122 H 0.76076 0.51814 0.07993 0.0
C123 C 0.78806 0.45106 0.76773 0.0
H124 H 0.84224 0.50119 0.09584 0.0
C125 C 0.74156 0.46071 0.7587 0.0
C126 C 0.73022 0.48391 0.87124 0.0
H127 H 0.79436 0.43139 0.67993 0.0
H128 H 0.71351 0.44817 0.6642 0.0
C129 C 0.76821 0.5001 -0.00863 0.0
C130 C 0.18698 0.74163 0.08018 0.0
C131 C 0.17719 0.70261 0.9701 0.0
H132 H 0.2385 0.82377 0.18098 0.0
C133 C 0.2094 0.71939 0.86859 0.0
H134 H 0.16264 0.73 0.15972 0.0
C135 C 0.25276 0.77278 0.88098 0.0
C136 C 0.26475 0.8107 -0.00514 0.0
H137 H 0.2026 0.69055 0.78178 0.0
H138 H 0.27809 0.78359 0.80327 0.0
C139 C 0.23038 0.79535 0.09231 0.0
C140 C 0.52295 0.29526 0.8614 0.0
C141 C 0.49186 0.31386 0.9321 0.0
H142 H 0.54519 0.22909 0.81862 0.0
C143 C 0.45338 0.27559 0.00189 0.0
H144 H 0.55275 0.32344 0.80583 0.0
C145 C 0.44897 0.22127 0.00894 0.0
C146 C 0.48313 0.20419 0.94688 0.0
H147 H 0.42853 0.28839 0.05674 0.0
H148 H 0.42078 0.19375 0.06888 0.0
C149 C 0.51874 0.24111 0.86904 0.0
loop_
_geom_bond_atom_site_label_1
_geom_bond_atom_site_label_2
_geom_bond_distance
_geom_bond_site_symmetry_2
_ccdc_geom_bond_type
Zn0 O6 1.969 . S
Zn0 O7 1.965 1_554 S
Zn0 O11 2.024 1_554 S
Zn0 O16 1.969 . S
Zn1 O8 1.969 . S
Zn1 O14 1.969 . S
Zn1 O15 1.965 1_556 S
Zn1 O17 2.024 1_556 S
C2 O3 1.229 . S
C2 O11 1.058 1_554 S
O3 C2 1.229 . S
C4 O5 1.229 . S
C4 O17 1.058 1_556 S
O5 C4 1.229 . S
O6 Zn0 1.969 . S
O6 C9 1.267 1_554 S
O7 Zn0 1.965 1_556 S
O7 C18 1.260 1_455 S
O8 Zn1 1.969 . S
O8 C18 1.258 . S
C9 O6 1.267 1_556 S
C9 O10 1.228 . S
O10 C9 1.228 . S
O11 Zn0 2.024 1_556 S
O11 C2 1.058 1_556 S
C12 O13 1.228 . S
C12 O14 1.267 1_554 S
O13 C12 1.228 . S
O14 Zn1 1.969 . S
O14 C12 1.267 1_556 S
O15 Zn1 1.965 1_554 S
O15 C19 1.260 1_655 S
O16 Zn0 1.969 . S
O16 C19 1.258 . S
O17 Zn1 2.024 1_554 S
O17 C4 1.058 1_554 S
C18 O7 1.260 1_655 S
C18 O8 1.258 . S
C19 O15 1.260 1_455 S
C19 O16 1.258 . S
Zn20 O26 1.969 . S
Zn20 O27 1.965 1_556 S
Zn20 O31 2.024 1_556 S
Zn20 O36 1.969 . S
Zn21 O28 1.969 . S
Zn21 O34 1.969 . S
Zn21 O35 1.965 1_554 S
Zn21 O37 2.024 1_554 S
C22 O23 1.229 . S
C22 O31 1.058 1_556 S
O23 C22 1.229 . S
C24 O25 1.229 . S
C24 O37 1.058 1_554 S
O25 C24 1.229 . S
O26 Zn20 1.969 . S
O26 C29 1.267 1_556 S
O27 Zn20 1.965 1_554 S
O27 C38 1.260 1_565 S
O28 Zn21 1.969 . S
O28 C38 1.258 . S
C29 O26 1.267 1_554 S
C29 O30 1.228 . S
O30 C29 1.228 . S
O31 Zn20 2.024 1_554 S
O31 C22 1.058 1_554 S
C32 O33 1.228 . S
C32 O34 1.267 1_556 S
O33 C32 1.228 . S
O34 Zn21 1.969 . S
O34 C32 1.267 1_554 S
O35 Zn21 1.965 1_556 S
O35 C39 1.260 1_545 S
O36 Zn20 1.969 . S
O36 C39 1.258 . S
O37 Zn21 2.024 1_556 S
O37 C24 1.058 1_556 S
C38 O27 1.260 1_545 S
C38 O28 1.258 . S
C39 O35 1.260 1_565 S
C39 O36 1.258 . S
Zn40 O46 1.969 . S
Zn40 O47 1.965 1_554 S
Zn40 O51 2.024 1_554 S
Zn40 O56 1.969 . S
Zn41 O48 1.969 . S
Zn41 O54 1.969 . S
Zn41 O55 1.965 1_556 S
Zn41 O57 2.024 1_556 S
C42 O43 1.229 . S
C42 O51 1.058 1_554 S
O43 C42 1.229 . S
C44 O45 1.229 . S
C44 O57 1.058 1_556 S
O45 C44 1.229 . S
O46 Zn40 1.969 . S
O46 C49 1.267 1_554 S
O47 Zn40 1.965 1_556 S
O47 C58 1.260 . S
O48 Zn41 1.969 . S
O48 C58 1.258 . S
C49 O46 1.267 1_556 S
C49 O50 1.228 . S
O50 C49 1.228 . S
O51 Zn40 2.024 1_556 S
O51 C42 1.058 1_556 S
C52 O53 1.228 . S
C52 O54 1.267 1_554 S
O53 C52 1.228 . S
O54 Zn41 1.969 . S
O54 C52 1.267 1_556 S
O55 Zn41 1.965 1_554 S
O55 C59 1.260 . S
O56 Zn40 1.969 . S
O56 C59 1.258 . S
O57 Zn41 2.024 1_554 S
O57 C44 1.058 1_554 S
C58 O47 1.260 . S
C58 O48 1.258 . S
C59 O55 1.260 . S
C59 O56 1.258 . S
C60 C61 1.387 1_455 S
C60 H64 0.950 . S
C60 C69 1.390 . S
C61 C60 1.387 1_655 S
C61 C63 1.387 . S
H62 C69 0.950 . S
C63 C61 1.387 . S
C63 C65 1.390 . S
C63 H67 0.950 . S
H64 C60 0.950 . S
C65 C63 1.390 . S
C65 C66 1.387 1_655 S
C65 H68 0.950 . S
C66 C65 1.387 1_455 S
C66 C69 1.387 . S
H67 C63 0.950 . S
H68 C65 0.950 . S
C69 C60 1.390 . S
C69 H62 0.950 . S
C69 C66 1.387 . S
C70 C71 1.387 1_565 S
C70 H74 0.950 . S
C70 C79 1.390 . S
C71 C70 1.387 1_545 S
C71 C73 1.387 . S
H72 C79 0.950 . S
C73 C71 1.387 . S
C73 C75 1.390 . S
C73 H77 0.950 . S
H74 C70 0.950 . S
C75 C73 1.390 . S
C75 C76 1.398 . S
C75 H78 0.950 . S
C76 C75 1.398 . S
C76 C79 1.378 1_545 S
H77 C73 0.950 . S
H78 C75 0.950 . S
C79 C70 1.390 . S
C79 H72 0.950 . S
C79 C76 1.378 1_565 S
C80 C81 1.387 . S
C80 H84 0.950 . S
C80 C89 1.390 . S
C81 C80 1.387 . S
C81 C83 1.387 . S
H82 C89 0.950 . S
C83 C81 1.387 . S
C83 C85 1.390 . S
C83 H87 0.950 . S
H84 C80 0.950 . S
C85 C83 1.390 . S
C85 C86 1.387 . S
C85 H88 0.950 . S
C86 C85 1.387 . S
C86 C89 1.387 . S
H87 C83 0.950 . S
H88 C85 0.950 . S
C89 C80 1.390 . S
C89 H82 0.950 . S
C89 C86 1.387 . S
C90 C91 1.387 . S
C90 H94 0.950 . S
C90 C99 1.390 . S
C91 C90 1.387 . S
C91 C93 1.387 1_554 S
H92 C99 0.950 . S
C93 C91 1.387 1_556 S
C93 C95 1.390 . S
C93 H97 0.950 . S
H94 C90 0.950 . S
C95 C93 1.390 . S
C95 C96 1.387 1_556 S
C95 H98 0.950 . S
C96 C95 1.387 1_554 S
C96 C99 1.387 . S
H97 C93 0.950 . S
H98 C95 0.950 . S
C99 C90 1.390 . S
C99 H92 0.950 . S
C99 C96 1.387 . S
C100 C101 1.387 1_554 S
C100 H104 0.950 . S
C100 C109 1.390 . S
C101 C100 1.387 1_556 S
C101 C103 1.387 . S
H102 C109 0.950 . S
C103 C101 1.387 . S
C103 C105 1.390 . S
C103 H107 0.950 . S
H104 C100 0.950 . S
C105 C103 1.390 . S
C105 C106 1.387 1_556 S
C105 H108 0.950 . S
C106 C105 1.387 1_554 S
C106 C109 1.387 . S
H107 C103 0.950 . S
H108 C105 0.950 . S
C109 C100 1.390 . S
C109 H102 0.950 . S
C109 C106 1.387 . S
C110 C111 1.387 . S
C110 H114 0.950 . S
C110 C119 1.390 . S
C111 C110 1.387 . S
C111 C113 1.387 1_556 S
H112 C119 0.950 . S
C113 C111 1.387 1_554 S
C113 C115 1.390 . S
C113 H117 0.950 . S
H114 C110 0.950 . S
C115 C113 1.390 . S
C115 C116 1.387 . S
C115 H118 0.950 . S
C116 C115 1.387 . S
C116 C119 1.387 1_554 S
H117 C113 0.950 . S
H118 C115 0.950 . S
C119 C110 1.390 . S
C119 H112 0.950 . S
C119 C116 1.387 1_556 S
C120 C121 1.387 1_554 S
C120 H124 0.950 . S
C120 C129 1.390 . S
C121 C120 1.387 1_556 S
C121 C123 1.387 . S
H122 C129 0.950 . S
C123 C121 1.387 . S
C123 C125 1.390 . S
C123 H127 0.950 . S
H124 C120 0.950 . S
C125 C123 1.390 . S
C125 C126 1.387 . S
C125 H128 0.950 . S
C126 C125 1.387 . S
C126 C129 1.387 1_556 S
H127 C123 0.950 . S
H128 C125 0.950 . S
C129 C120 1.390 . S
C129 H122 0.950 . S
C129 C126 1.387 1_554 S
C130 C131 1.387 1_554 S
C130 H134 0.950 . S
C130 C139 1.390 . S
C131 C130 1.387 1_556 S
C131 C133 1.387 . S
H132 C139 0.950 . S
C133 C131 1.387 . S
C133 C135 1.390 . S
C133 H137 0.950 . S
H134 C130 0.950 . S
C135 C133 1.390 . S
C135 C136 1.387 1_556 S
C135 H138 0.950 . S
C136 C135 1.387 1_554 S
C136 C139 1.387 . S
H137 C133 0.950 . S
H138 C135 0.950 . S
C139 C130 1.390 . S
C139 H132 0.950 . S
C139 C136 1.387 . S
C140 C141 1.387 . S
C140 H144 0.950 . S
C140 C149 1.390 . S
C141 C140 1.387 . S
C141 C143 1.387 1_556 S
H142 C149 0.950 . S
C143 C141 1.387 1_554 S
C143 C145 1.390 . S
C143 H147 0.950 . S
H144 C140 0.950 . S
C145 C143 1.390 . S
C145 C146 1.387 . S
C145 H148 0.950 . S
C146 C145 1.387 . S
C146 C149 1.387 1_554 S
H147 C143 0.950 . S
H148 C145 0.950 . S
C149 C140 1.390 . S
C149 H142 0.950 . S
C149 C146 1.387 1_556 S
C61 C18 1.500 . S
C66 C19 1.500 . S
C71 C38 1.482 . S
C76 C39 1.478 1_545 S
C81 C58 1.476 . S
C86 C59 1.476 . S
C91 C2 1.330 . S
C96 C52 1.402 . S
C101 C32 1.316 . S
C106 C12 1.308 . S
C111 C22 1.406 . S
C116 C44 1.425 1_554 S
C121 C4 1.330 . S
C126 C49 1.402 . S
C131 C9 1.308 . S
C136 C29 1.316 . S
C141 C42 1.425 1_556 S
C146 C24 1.406 . S
