# Generated by pormake.
# Topology smu, (6)-cn, num edge types: 1
# Building blocks:
#     Node 0, Type 0, BuildingBlock: CUKXOW_clean_sbu_0, # of connection points: 6
#     Node 1, Type 0, BuildingBlock: CUKXOW_clean_sbu_0, # of connection points: 6
#     Node 2, Type 0, BuildingBlock: CUKXOW_clean_sbu_0, # of connection points: 6
#     Node 3, Type 0, BuildingBlock: CUKXOW_clean_sbu_0, # of connection points: 6
#     Node 4, Type 0, BuildingBlock: CUKXOW_clean_sbu_0, # of connection points: 6
#     Node 5, Type 0, BuildingBlock: CUKXOW_clean_sbu_0, # of connection points: 6
#     Edge 6, Type (0, 0), BuildingBlock: EYOCIG_clean_linker_4, # of connection points: 2
#     Edge 7, Type (0, 0), BuildingBlock: EYOCIG_clean_linker_4, # of connection points: 2
#     Edge 8, Type (0, 0), BuildingBlock: EYOCIG_clean_linker_4, # of connection points: 2
#     Edge 9, Type (0, 0), BuildingBlock: EYOCIG_clean_linker_4, # of connection points: 2
#     Edge 10, Type (0, 0), BuildingBlock: EYOCIG_clean_linker_4, # of connection points: 2
#     Edge 11, Type (0, 0), BuildingBlock: EYOCIG_clean_linker_4, # of connection points: 2
#     Edge 12, Type (0, 0), BuildingBlock: EYOCIG_clean_linker_4, # of connection points: 2
#     Edge 13, Type (0, 0), BuildingBlock: EYOCIG_clean_linker_4, # of connection points: 2
#     Edge 14, Type (0, 0), BuildingBlock: EYOCIG_clean_linker_4, # of connection points: 2
#     Edge 15, Type (0, 0), BuildingBlock: EYOCIG_clean_linker_4, # of connection points: 2
#     Edge 16, Type (0, 0), BuildingBlock: EYOCIG_clean_linker_4, # of connection points: 2
#     Edge 17, Type (0, 0), BuildingBlock: EYOCIG_clean_linker_4, # of connection points: 2
#     Edge 18, Type (0, 0), BuildingBlock: EYOCIG_clean_linker_4, # of connection points: 2
#     Edge 19, Type (0, 0), BuildingBlock: EYOCIG_clean_linker_4, # of connection points: 2
#     Edge 20, Type (0, 0), BuildingBlock: EYOCIG_clean_linker_4, # of connection points: 2
#     Edge 21, Type (0, 0), BuildingBlock: EYOCIG_clean_linker_4, # of connection points: 2
#     Edge 22, Type (0, 0), BuildingBlock: EYOCIG_clean_linker_4, # of connection points: 2
#     Edge 23, Type (0, 0), BuildingBlock: EYOCIG_clean_linker_4, # of connection points: 2
# Relax obj value: 0.194
# Max RMSD: 0.299
# Mean RMSD: 0.279
data_MOF--net-smu--node1-CUKXOW_clean_sbu_0--edge1-EYOCIG_clean_linker_4
_symmetry_space_group_name_H-M    P1
_symmetry_Int_Tables_number       1
_symmetry_cell_setting            triclinic
loop_
_symmetry_equiv_pos_as_xyz
'x, y, z'
_cell_length_a     24.748752
_cell_length_b     24.753883
_cell_length_c     22.24549
_cell_angle_alpha  93.171289
_cell_angle_beta   91.414733
_cell_angle_gamma 120.07677
loop_
_atom_site_label
_atom_site_type_symbol
_atom_site_fract_x
_atom_site_fract_y
_atom_site_fract_z
_atom_type_partial_charge
Tb0 Tb 0.3901 0.1861 0.29225 0.0
C1 C 0.34137 0.09646 0.40964 0.0
Tb2 Tb 0.30711 0.03606 0.28165 0.0
O3 O 0.31686 0.21009 0.298 0.0
O4 O 0.2983 0.11758 0.28941 0.0
O5 O 0.37693 0.1543 0.38893 0.0
C6 C 0.18972 0.94871 0.27066 0.0
O7 O 0.30977 0.04463 0.37525 0.0
C8 C 0.43063 0.08496 0.28016 0.0
C9 C 0.33683 0.09251 0.16248 0.0
O10 O 0.22668 0.95878 0.31785 0.0
O11 O 0.22015 0.98337 0.22824 0.0
O12 O 0.39161 0.02409 0.27475 0.0
O13 O 0.39776 0.10916 0.28673 0.0
O14 O 0.30733 0.04082 0.18921 0.0
O15 O 0.3724 0.15054 0.19165 0.0
C16 C 0.49189 0.29988 0.29199 0.0
O17 O 0.45204 0.26981 0.24656 0.0
O18 O 0.47476 0.266 0.33805 0.0
C19 C 0.27351 0.15125 0.29355 0.0
Tb20 Tb 0.75669 0.73078 0.27706 0.0
C21 C 0.77585 0.69571 0.39921 0.0
Tb22 Tb 0.82087 0.6474 0.27551 0.0
O23 O 0.66222 0.6476 0.2885 0.0
O24 O 0.73561 0.63847 0.25871 0.0
O25 O 0.75812 0.72872 0.36989 0.0
C26 C 0.83418 0.5462 0.27493 0.0
O27 O 0.79682 0.65929 0.37285 0.0
C28 C 0.90501 0.76392 0.2806 0.0
C29 C 0.788 0.70255 0.15311 0.0
O30 O 0.84781 0.5868 0.32045 0.0
O31 O 0.81279 0.56223 0.22944 0.0
O32 O 0.91928 0.71998 0.27821 0.0
O33 O 0.84657 0.73955 0.281 0.0
O34 O 0.81176 0.66845 0.17704 0.0
O35 O 0.76241 0.72908 0.18422 0.0
C36 C 0.78905 0.84861 0.28646 0.0
O37 O 0.75644 0.81007 0.24012 0.0
O38 O 0.79814 0.81973 0.32868 0.0
C39 C 0.6822 0.60807 0.27718 0.0
Tb40 Tb 0.85264 0.21473 0.27187 0.0
C41 C 0.94125 0.25307 0.40123 0.0
Tb42 Tb 1.00257 0.28136 0.28227 0.0
O43 O 0.82786 0.117 0.27175 0.0
O44 O 0.9204 0.19121 0.2782 0.0
O45 O 0.88383 0.23077 0.37273 0.0
C46 C 0.08722 0.24843 0.28438 0.0
O47 O 0.99321 0.27438 0.37412 0.0
C48 C 0.95445 0.35669 0.28092 0.0
C49 C 0.94753 0.25779 0.15488 0.0
O50 O 0.08066 0.28118 0.32844 0.0
O51 O 0.05089 0.24008 0.23766 0.0
O52 O 1.01517 0.37862 0.28626 0.0
O53 O 0.93007 0.29909 0.27581 0.0
O54 O 0.99904 0.27982 0.18893 0.0
O55 O 0.88904 0.2344 0.17606 0.0
C56 C 0.73989 0.20467 0.27203 0.0
O57 O 0.76179 0.18784 0.22674 0.0
O58 O 0.78159 0.22778 0.317 0.0
C59 C 0.8865 0.13261 0.27719 0.0
Tb60 Tb 0.04244 0.30167 0.7818 0.0
C61 C 0.09772 0.33016 0.66141 0.0
Tb62 Tb 0.19111 0.38521 0.78928 0.0
O63 O 0.03102 0.38493 0.76776 0.0
O64 O 0.11442 0.39365 0.79673 0.0
O65 O 0.04662 0.29886 0.68911 0.0
C66 C 0.30474 0.48717 0.78745 0.0
O67 O 0.15524 0.36792 0.68968 0.0
C68 C 0.1579 0.26881 0.78759 0.0
C69 C 0.10225 0.33666 0.90884 0.0
O70 O 0.27431 0.44701 0.74201 0.0
O71 O 0.27141 0.47019 0.83439 0.0
O72 O 0.21644 0.31275 0.79223 0.0
O73 O 0.12382 0.29306 0.78476 0.0
O74 O 0.16027 0.37052 0.88706 0.0
O75 O 0.05018 0.30703 0.87532 0.0
C76 C 0.9557 0.184 0.77754 0.0
O77 O 0.96678 0.22425 0.82307 0.0
O78 O 0.98876 0.21118 0.73289 0.0
C79 C 0.09126 0.42453 0.77849 0.0
Tb80 Tb 0.28697 0.99604 0.7804 0.0
C81 C 0.26395 0.94111 0.65215 0.0
Tb82 Tb 0.22096 0.84688 0.76818 0.0
O83 O 0.38297 1.00708 0.79098 0.0
O84 O 0.30512 0.92401 0.7619 0.0
O85 O 0.28743 0.99294 0.68712 0.0
C86 C 0.21054 0.73373 0.7669 0.0
O87 O 0.23945 0.88247 0.67239 0.0
C88 C 0.1384 0.88044 0.77614 0.0
C89 C 0.2585 0.93605 0.89879 0.0
O90 O 0.19345 0.75492 0.72244 0.0
O91 O 0.23421 0.77644 0.81173 0.0
O92 O 0.12299 0.82182 0.76877 0.0
O93 O 0.19698 0.91432 0.7778 0.0
O94 O 0.23771 0.87879 0.86939 0.0
O95 O 0.27838 0.98751 0.87221 0.0
C96 C 0.25568 0.08218 0.78206 0.0
O97 O 0.28548 0.0747 0.82684 0.0
O98 O 0.24959 0.04599 0.73505 0.0
C99 C 0.36095 0.94682 0.77846 0.0
Tb100 Tb 0.73703 0.75154 0.77906 0.0
C101 C 0.69784 0.76885 0.65661 0.0
Tb102 Tb 0.65346 0.81655 0.7826 0.0
O103 O 0.6525 0.65532 0.7831 0.0
O104 O 0.64591 0.73218 0.76645 0.0
O105 O 0.72769 0.7464 0.68588 0.0
C106 C 0.55106 0.82731 0.77853 0.0
O107 O 0.66564 0.79442 0.68315 0.0
C108 C 0.77012 0.9002 0.78984 0.0
C109 C 0.71197 0.78466 0.90452 0.0
O110 O 0.58929 0.83942 0.73574 0.0
O111 O 0.57021 0.80892 0.82387 0.0
O112 O 0.72647 0.91491 0.78968 0.0
O113 O 0.74549 0.84158 0.78718 0.0
O114 O 0.67283 0.80287 0.8808 0.0
O115 O 0.74317 0.76548 0.87243 0.0
C116 C 0.8542 0.78279 0.77636 0.0
O117 O 0.81888 0.75407 0.81967 0.0
O118 O 0.82214 0.78775 0.73239 0.0
C119 C 0.61362 0.67659 0.77706 0.0
C120 C 0.28079 0.98825 1.00771 0.0
C121 C 0.26454 0.95041 0.96364 0.0
C122 C 0.30648 0.03999 0.05343 0.0
C123 C 0.32784 0.07785 0.09764 0.0
C124 C 0.72279 0.74448 0.5495 0.0
C125 C 0.70356 0.76155 0.59241 0.0
C126 C 0.74825 0.71984 0.50549 0.0
C127 C 0.76592 0.70071 0.46277 0.0
C128 C 0.99996 0.28149 0.05189 0.0
C129 C 0.96284 0.26469 0.0919 0.0
C130 C 0.05057 0.30727 1.01156 0.0
C131 C 0.08782 0.32817 0.9719 0.0
C132 C 0.31309 0.04463 0.51152 0.0
C133 C 0.33383 0.08192 0.47248 0.0
C134 C 0.28735 0.99368 0.55057 0.0
C135 C 0.27039 0.9562 0.58952 0.0
C136 C 0.74528 0.76365 1.00876 0.0
C137 C 0.72266 0.77917 0.96807 0.0
C138 C 0.77089 0.73758 0.04986 0.0
C139 C 0.786 0.71481 0.09008 0.0
C140 C 0.99312 0.27472 0.50887 0.0
C141 C 0.95515 0.25844 0.46572 0.0
C142 C 0.04501 0.3004 0.55336 0.0
C143 C 0.08286 0.32183 0.5969 0.0
C144 C 0.55482 0.1476 0.2769 0.0
C145 C 0.49825 0.11932 0.27842 0.0
C146 C 0.62085 0.1745 0.27589 0.0
C147 C 0.67541 0.1889 0.2755 0.0
C148 C 0.62053 0.4845 0.28551 0.0
C149 C 0.64891 0.54075 0.2816 0.0
C150 C 0.58129 0.41887 0.28977 0.0
C151 C 0.54126 0.36461 0.29306 0.0
C152 C 0.89204 0.41863 0.27821 0.0
C153 C 0.9204 0.39036 0.27944 0.0
C154 C 0.86489 0.45749 0.27543 0.0
C155 C 0.84999 0.4972 0.27305 0.0
C156 C 0.15379 0.54857 0.77262 0.0
C157 C 0.12548 0.4921 0.77535 0.0
C158 C 0.18044 0.61459 0.77071 0.0
C159 C 0.19467 0.66915 0.77004 0.0
C160 C 0.42243 0.88387 0.7771 0.0
C161 C 0.39424 0.91235 0.77765 0.0
C162 C 0.46165 0.85702 0.77735 0.0
C163 C 0.50204 0.84294 0.77931 0.0
C164 C 0.42366 0.57638 0.78433 0.0
C165 C 0.36943 0.53628 0.78763 0.0
C166 C 0.48948 0.6153 0.78117 0.0
C167 C 0.54602 0.64343 0.77925 0.0
C168 C 0.16695 0.14273 0.29333 0.0
C169 C 0.20911 0.13223 0.29256 0.0
C170 C 0.135 0.17593 0.29352 0.0
C171 C 0.11401 0.21011 0.29169 0.0
C172 C 1.00356 0.86882 0.27316 0.0
C173 C 0.95082 0.8276 0.27656 0.0
C174 C 0.06867 0.90026 0.27176 0.0
C175 C 0.12411 0.9221 0.27236 0.0
C176 C 0.89414 0.03495 0.28643 0.0
C177 C 0.90504 0.08749 0.28343 0.0
C178 C 0.8608 0.96977 0.28629 0.0
C179 C 0.82713 0.91425 0.28454 0.0
C180 C 0.15011 0.16254 0.78886 0.0
C181 C 0.1395 0.20458 0.78755 0.0
C182 C 0.18318 0.13047 0.78976 0.0
C183 C 0.21721 0.1092 0.78857 0.0
C184 C 0.04065 0.88876 0.78526 0.0
C185 C 0.09311 0.89909 0.78229 0.0
C186 C 0.9755 0.85576 0.78592 0.0
C187 C 0.92005 0.82158 0.78371 0.0
C188 C 0.90817 0.06372 0.7845 0.0
C189 C 0.92957 0.1189 0.78261 0.0
C190 C 0.87614 0.99872 0.78648 0.0
C191 C 0.83415 0.94604 0.78789 0.0
loop_
_geom_bond_atom_site_label_1
_geom_bond_atom_site_label_2
_geom_bond_distance
_geom_bond_site_symmetry_2
_ccdc_geom_bond_type
Tb0 O3 2.453 . S
Tb0 O4 2.596 . S
Tb0 O5 2.374 . S
Tb0 O13 2.343 . S
Tb0 O15 2.353 . S
Tb0 O17 2.427 . S
Tb0 O18 2.513 . S
C1 O5 1.251 . S
C1 O7 1.263 . S
Tb2 O4 2.343 . S
Tb2 O7 2.353 . S
Tb2 O10 2.427 1_545 S
Tb2 O11 2.513 1_545 S
Tb2 O12 2.453 . S
Tb2 O13 2.596 . S
Tb2 O14 2.374 . S
O3 Tb0 2.453 . S
O3 C19 1.245 . S
O4 Tb0 2.596 . S
O4 Tb2 2.343 . S
O4 C19 1.259 . S
O5 Tb0 2.374 . S
O5 C1 1.251 . S
C6 O10 1.275 . S
C6 O11 1.246 . S
O7 C1 1.263 . S
O7 Tb2 2.353 . S
C8 O12 1.245 . S
C8 O13 1.259 . S
C9 O14 1.250 . S
C9 O15 1.263 . S
O10 Tb2 2.427 1_565 S
O10 C6 1.275 . S
O11 Tb2 2.513 1_565 S
O11 C6 1.246 . S
O12 Tb2 2.453 . S
O12 C8 1.245 . S
O13 Tb0 2.343 . S
O13 Tb2 2.596 . S
O13 C8 1.259 . S
O14 Tb2 2.374 . S
O14 C9 1.250 . S
O15 Tb0 2.353 . S
O15 C9 1.263 . S
C16 O17 1.275 . S
C16 O18 1.246 . S
O17 Tb0 2.427 . S
O17 C16 1.275 . S
O18 Tb0 2.513 . S
O18 C16 1.246 . S
C19 O3 1.245 . S
C19 O4 1.259 . S
Tb20 O23 2.453 . S
Tb20 O24 2.596 . S
Tb20 O25 2.374 . S
Tb20 O33 2.343 . S
Tb20 O35 2.353 . S
Tb20 O37 2.427 . S
Tb20 O38 2.513 . S
C21 O25 1.251 . S
C21 O27 1.263 . S
Tb22 O24 2.343 . S
Tb22 O27 2.353 . S
Tb22 O30 2.427 . S
Tb22 O31 2.513 . S
Tb22 O32 2.453 . S
Tb22 O33 2.596 . S
Tb22 O34 2.374 . S
O23 Tb20 2.453 . S
O23 C39 1.245 . S
O24 Tb20 2.596 . S
O24 Tb22 2.343 . S
O24 C39 1.259 . S
O25 Tb20 2.374 . S
O25 C21 1.251 . S
C26 O30 1.275 . S
C26 O31 1.246 . S
O27 C21 1.263 . S
O27 Tb22 2.353 . S
C28 O32 1.245 . S
C28 O33 1.259 . S
C29 O34 1.250 . S
C29 O35 1.263 . S
O30 Tb22 2.427 . S
O30 C26 1.275 . S
O31 Tb22 2.513 . S
O31 C26 1.246 . S
O32 Tb22 2.453 . S
O32 C28 1.245 . S
O33 Tb20 2.343 . S
O33 Tb22 2.596 . S
O33 C28 1.259 . S
O34 Tb22 2.374 . S
O34 C29 1.250 . S
O35 Tb20 2.353 . S
O35 C29 1.263 . S
C36 O37 1.275 . S
C36 O38 1.246 . S
O37 Tb20 2.427 . S
O37 C36 1.275 . S
O38 Tb20 2.513 . S
O38 C36 1.246 . S
C39 O23 1.245 . S
C39 O24 1.259 . S
Tb40 O43 2.453 . S
Tb40 O44 2.596 . S
Tb40 O45 2.374 . S
Tb40 O53 2.343 . S
Tb40 O55 2.353 . S
Tb40 O57 2.427 . S
Tb40 O58 2.513 . S
C41 O45 1.251 . S
C41 O47 1.263 . S
Tb42 O44 2.343 . S
Tb42 O47 2.353 . S
Tb42 O50 2.427 1_655 S
Tb42 O51 2.513 1_655 S
Tb42 O52 2.453 . S
Tb42 O53 2.596 . S
Tb42 O54 2.374 . S
O43 Tb40 2.453 . S
O43 C59 1.245 . S
O44 Tb40 2.596 . S
O44 Tb42 2.343 . S
O44 C59 1.259 . S
O45 Tb40 2.374 . S
O45 C41 1.251 . S
C46 O50 1.275 . S
C46 O51 1.246 . S
O47 C41 1.263 . S
O47 Tb42 2.353 . S
C48 O52 1.245 . S
C48 O53 1.259 . S
C49 O54 1.250 . S
C49 O55 1.263 . S
O50 Tb42 2.427 1_455 S
O50 C46 1.275 . S
O51 Tb42 2.513 1_455 S
O51 C46 1.246 . S
O52 Tb42 2.453 . S
O52 C48 1.245 . S
O53 Tb40 2.343 . S
O53 Tb42 2.596 . S
O53 C48 1.259 . S
O54 Tb42 2.374 . S
O54 C49 1.250 . S
O55 Tb40 2.353 . S
O55 C49 1.263 . S
C56 O57 1.275 . S
C56 O58 1.246 . S
O57 Tb40 2.427 . S
O57 C56 1.275 . S
O58 Tb40 2.513 . S
O58 C56 1.246 . S
C59 O43 1.245 . S
C59 O44 1.259 . S
Tb60 O63 2.453 . S
Tb60 O64 2.596 . S
Tb60 O65 2.374 . S
Tb60 O73 2.343 . S
Tb60 O75 2.353 . S
Tb60 O77 2.427 1_455 S
Tb60 O78 2.513 1_455 S
C61 O65 1.251 . S
C61 O67 1.263 . S
Tb62 O64 2.343 . S
Tb62 O67 2.353 . S
Tb62 O70 2.427 . S
Tb62 O71 2.513 . S
Tb62 O72 2.453 . S
Tb62 O73 2.596 . S
Tb62 O74 2.374 . S
O63 Tb60 2.453 . S
O63 C79 1.245 . S
O64 Tb60 2.596 . S
O64 Tb62 2.343 . S
O64 C79 1.259 . S
O65 Tb60 2.374 . S
O65 C61 1.251 . S
C66 O70 1.275 . S
C66 O71 1.246 . S
O67 C61 1.263 . S
O67 Tb62 2.353 . S
C68 O72 1.245 . S
C68 O73 1.259 . S
C69 O74 1.250 . S
C69 O75 1.263 . S
O70 Tb62 2.427 . S
O70 C66 1.275 . S
O71 Tb62 2.513 . S
O71 C66 1.246 . S
O72 Tb62 2.453 . S
O72 C68 1.245 . S
O73 Tb60 2.343 . S
O73 Tb62 2.596 . S
O73 C68 1.259 . S
O74 Tb62 2.374 . S
O74 C69 1.250 . S
O75 Tb60 2.353 . S
O75 C69 1.263 . S
C76 O77 1.275 . S
C76 O78 1.246 . S
O77 Tb60 2.427 1_655 S
O77 C76 1.275 . S
O78 Tb60 2.513 1_655 S
O78 C76 1.246 . S
C79 O63 1.245 . S
C79 O64 1.259 . S
Tb80 O83 2.453 . S
Tb80 O84 2.596 . S
Tb80 O85 2.374 . S
Tb80 O93 2.343 . S
Tb80 O95 2.353 . S
Tb80 O97 2.427 1_565 S
Tb80 O98 2.513 1_565 S
C81 O85 1.251 . S
C81 O87 1.263 . S
Tb82 O84 2.343 . S
Tb82 O87 2.353 . S
Tb82 O90 2.427 . S
Tb82 O91 2.513 . S
Tb82 O92 2.453 . S
Tb82 O93 2.596 . S
Tb82 O94 2.374 . S
O83 Tb80 2.453 . S
O83 C99 1.245 . S
O84 Tb80 2.596 . S
O84 Tb82 2.343 . S
O84 C99 1.259 . S
O85 Tb80 2.374 . S
O85 C81 1.251 . S
C86 O90 1.275 . S
C86 O91 1.246 . S
O87 C81 1.263 . S
O87 Tb82 2.353 . S
C88 O92 1.245 . S
C88 O93 1.259 . S
C89 O94 1.250 . S
C89 O95 1.263 . S
O90 Tb82 2.427 . S
O90 C86 1.275 . S
O91 Tb82 2.513 . S
O91 C86 1.246 . S
O92 Tb82 2.453 . S
O92 C88 1.245 . S
O93 Tb80 2.343 . S
O93 Tb82 2.596 . S
O93 C88 1.259 . S
O94 Tb82 2.374 . S
O94 C89 1.250 . S
O95 Tb80 2.353 . S
O95 C89 1.263 . S
C96 O97 1.275 . S
C96 O98 1.246 . S
O97 Tb80 2.427 1_545 S
O97 C96 1.275 . S
O98 Tb80 2.513 1_545 S
O98 C96 1.246 . S
C99 O83 1.245 . S
C99 O84 1.259 . S
Tb100 O103 2.453 . S
Tb100 O104 2.596 . S
Tb100 O105 2.374 . S
Tb100 O113 2.343 . S
Tb100 O115 2.353 . S
Tb100 O117 2.427 . S
Tb100 O118 2.513 . S
C101 O105 1.251 . S
C101 O107 1.263 . S
Tb102 O104 2.343 . S
Tb102 O107 2.353 . S
Tb102 O110 2.427 . S
Tb102 O111 2.513 . S
Tb102 O112 2.453 . S
Tb102 O113 2.596 . S
Tb102 O114 2.374 . S
O103 Tb100 2.453 . S
O103 C119 1.245 . S
O104 Tb100 2.596 . S
O104 Tb102 2.343 . S
O104 C119 1.259 . S
O105 Tb100 2.374 . S
O105 C101 1.251 . S
C106 O110 1.275 . S
C106 O111 1.246 . S
O107 C101 1.263 . S
O107 Tb102 2.353 . S
C108 O112 1.245 . S
C108 O113 1.259 . S
C109 O114 1.250 . S
C109 O115 1.263 . S
O110 Tb102 2.427 . S
O110 C106 1.275 . S
O111 Tb102 2.513 . S
O111 C106 1.246 . S
O112 Tb102 2.453 . S
O112 C108 1.245 . S
O113 Tb100 2.343 . S
O113 Tb102 2.596 . S
O113 C108 1.259 . S
O114 Tb102 2.374 . S
O114 C109 1.250 . S
O115 Tb100 2.353 . S
O115 C109 1.263 . S
C116 O117 1.275 . S
C116 O118 1.246 . S
O117 Tb100 2.427 . S
O117 C116 1.275 . S
O118 Tb100 2.513 . S
O118 C116 1.246 . S
C119 O103 1.245 . S
C119 O104 1.259 . S
C120 C121 1.170 . S
C120 C122 1.380 1_566 S
C121 C120 1.170 . S
C122 C120 1.380 1_544 S
C122 C123 1.170 . S
C123 C122 1.170 . S
C124 C125 1.170 . S
C124 C126 1.380 . S
C125 C124 1.170 . S
C126 C124 1.380 . S
C126 C127 1.170 . S
C127 C126 1.170 . S
C128 C129 1.170 . S
C128 C130 1.380 1_654 S
C129 C128 1.170 . S
C130 C128 1.380 1_456 S
C130 C131 1.170 . S
C131 C130 1.170 . S
C132 C133 1.170 . S
C132 C134 1.380 1_545 S
C133 C132 1.170 . S
C134 C132 1.380 1_565 S
C134 C135 1.170 . S
C135 C134 1.170 . S
C136 C137 1.170 . S
C136 C138 1.380 1_556 S
C137 C136 1.170 . S
C138 C136 1.380 1_554 S
C138 C139 1.170 . S
C139 C138 1.170 . S
C140 C141 1.170 . S
C140 C142 1.380 1_655 S
C141 C140 1.170 . S
C142 C140 1.380 1_455 S
C142 C143 1.170 . S
C143 C142 1.170 . S
C144 C145 1.170 . S
C144 C146 1.380 . S
C145 C144 1.170 . S
C146 C144 1.380 . S
C146 C147 1.170 . S
C147 C146 1.170 . S
C148 C149 1.170 . S
C148 C150 1.380 . S
C149 C148 1.170 . S
C150 C148 1.380 . S
C150 C151 1.170 . S
C151 C150 1.170 . S
C152 C153 1.170 . S
C152 C154 1.380 . S
C153 C152 1.170 . S
C154 C152 1.380 . S
C154 C155 1.170 . S
C155 C154 1.170 . S
C156 C157 1.170 . S
C156 C158 1.380 . S
C157 C156 1.170 . S
C158 C156 1.380 . S
C158 C159 1.170 . S
C159 C158 1.170 . S
C160 C161 1.170 . S
C160 C162 1.380 . S
C161 C160 1.170 . S
C162 C160 1.380 . S
C162 C163 1.170 . S
C163 C162 1.170 . S
C164 C165 1.170 . S
C164 C166 1.380 . S
C165 C164 1.170 . S
C166 C164 1.380 . S
C166 C167 1.170 . S
C167 C166 1.170 . S
C168 C169 1.170 . S
C168 C170 1.380 . S
C169 C168 1.170 . S
C170 C168 1.380 . S
C170 C171 1.170 . S
C171 C170 1.170 . S
C172 C173 1.170 . S
C172 C174 1.380 1_655 S
C173 C172 1.170 . S
C174 C172 1.380 1_455 S
C174 C175 1.170 . S
C175 C174 1.170 . S
C176 C177 1.170 . S
C176 C178 1.380 1_545 S
C177 C176 1.170 . S
C178 C176 1.380 1_565 S
C178 C179 1.170 . S
C179 C178 1.170 . S
C180 C181 1.170 . S
C180 C182 1.380 . S
C181 C180 1.170 . S
C182 C180 1.380 . S
C182 C183 1.170 . S
C183 C182 1.170 . S
C184 C185 1.170 . S
C184 C186 1.380 1_455 S
C185 C184 1.170 . S
C186 C184 1.380 1_655 S
C186 C187 1.170 . S
C187 C186 1.170 . S
C188 C189 1.170 . S
C188 C190 1.380 1_545 S
C189 C188 1.170 . S
C190 C188 1.380 1_565 S
C190 C191 1.170 . S
C191 C190 1.170 . S
C121 C89 1.890 . S
C123 C9 1.894 . S
C125 C101 2.036 . S
C127 C21 2.070 . S
C129 C49 2.220 . S
C131 C69 2.228 . S
C133 C1 2.318 . S
C135 C81 2.257 . S
C137 C109 2.155 . S
C139 C29 2.173 . S
C141 C41 1.930 . S
C143 C61 1.931 . S
C145 C8 1.792 . S
C147 C56 1.669 . S
C149 C39 1.790 . S
C151 C16 1.625 . S
C153 C48 1.789 . S
C155 C26 1.651 . S
C157 C79 1.815 . S
C159 C86 1.674 . S
C161 C99 1.811 . S
C163 C106 1.680 . S
C165 C66 1.695 . S
C167 C119 1.801 . S
C169 C19 1.140 . S
C171 C46 1.291 . S
C173 C28 1.116 . S
C175 C6 1.284 . S
C177 C59 1.118 . S
C179 C36 1.272 . S
C181 C68 1.062 . S
C183 C96 1.285 . S
C185 C88 1.103 . S
C187 C116 1.273 . S
C189 C76 1.320 . S
C191 C108 1.071 . S
