# Generated by pormake.
# Topology ths, (3)-cn, num edge types: 1
# Building blocks:
#     Node 0, Type 0, BuildingBlock: OLANEW_clean_sbu_2, # of connection points: 3
#     Node 1, Type 0, BuildingBlock: OLANEW_clean_sbu_2, # of connection points: 3
#     Node 2, Type 0, BuildingBlock: OLANEW_clean_sbu_2, # of connection points: 3
#     Node 3, Type 0, BuildingBlock: OLANEW_clean_sbu_2, # of connection points: 3
#     Node 4, Type 0, BuildingBlock: OLANEW_clean_sbu_2, # of connection points: 3
#     Node 5, Type 0, BuildingBlock: OLANEW_clean_sbu_2, # of connection points: 3
#     Node 6, Type 0, BuildingBlock: OLANEW_clean_sbu_2, # of connection points: 3
#     Node 7, Type 0, BuildingBlock: OLANEW_clean_sbu_2, # of connection points: 3
#     Edge 8, Type (0, 0), None
#     Edge 9, Type (0, 0), None
#     Edge 10, Type (0, 0), None
#     Edge 11, Type (0, 0), None
#     Edge 12, Type (0, 0), None
#     Edge 13, Type (0, 0), None
#     Edge 14, Type (0, 0), None
#     Edge 15, Type (0, 0), None
#     Edge 16, Type (0, 0), None
#     Edge 17, Type (0, 0), None
#     Edge 18, Type (0, 0), None
#     Edge 19, Type (0, 0), None
# Relax obj value: 0.000
# Max RMSD: 0.040
# Mean RMSD: 0.020
data_MOF--net-ths--node1-OLANEW_clean_sbu_2--edge1-none
_symmetry_space_group_name_H-M    P1
_symmetry_Int_Tables_number       1
_symmetry_cell_setting            triclinic
loop_
_symmetry_equiv_pos_as_xyz
'x, y, z'
_cell_length_a     16.189427
_cell_length_b     16.136349
_cell_length_c     33.5951
_cell_angle_alpha  102.92927
_cell_angle_beta   90.000154
_cell_angle_gamma 89.996825
loop_
_atom_site_label
_atom_site_type_symbol
_atom_site_fract_x
_atom_site_fract_y
_atom_site_fract_z
_atom_type_partial_charge
O0 O 0.03113 0.8887 0.12836 0.0
Cd1 Cd 0.9383 0.85205 0.06922 0.0
O2 O 0.10759 0.79752 0.0863 0.0
Cd3 Cd 0.21321 0.71457 0.0661 0.0
O4 O 0.23789 0.58631 0.03029 0.0
C5 C 0.17428 0.55311 0.01094 0.0
O6 O 0.10576 0.59765 0.01389 0.0
C7 C 0.09905 0.84895 0.12067 0.0
C8 C 0.93766 0.97155 0.02039 0.0
O9 O 0.87499 0.96346 0.04245 0.0
O10 O 0.00068 0.92425 0.02148 0.0
O11 O 0.74123 0.63381 0.38024 0.0
Cd12 Cd 0.85896 0.59187 0.3345 0.0
O13 O 0.65794 0.62532 0.32805 0.0
Cd14 Cd 0.5426 0.64558 0.29763 0.0
O15 O 0.47942 0.70407 0.25317 0.0
C16 C 0.42496 0.76149 0.26368 0.0
O17 O 0.40154 0.7836 0.30202 0.0
C18 C 0.66886 0.63869 0.36643 0.0
C19 C 0.89701 0.69639 0.28129 0.0
O20 O 0.9272 0.71106 0.31745 0.0
O21 O 0.84674 0.63406 0.27054 0.0
O22 O 0.53114 0.3887 0.62835 0.0
Cd23 Cd 0.43833 0.35209 0.5692 0.0
O24 O 0.60767 0.29767 0.58625 0.0
Cd25 Cd 0.71334 0.21479 0.56603 0.0
O26 O 0.73785 0.08641 0.53032 0.0
C27 C 0.67354 0.05237 0.51197 0.0
O28 O 0.60449 0.09617 0.51581 0.0
C29 C 0.59908 0.34901 0.62063 0.0
C30 C 0.43772 0.47161 0.52037 0.0
O31 O 0.37504 0.46352 0.54243 0.0
O32 O 0.50073 0.42431 0.52147 0.0
O33 O 0.24117 0.13388 0.88029 0.0
Cd34 Cd 0.35893 0.09199 0.83455 0.0
O35 O 0.15789 0.12537 0.8281 0.0
Cd36 Cd 0.04254 0.14559 0.79767 0.0
O37 O 0.97937 0.20407 0.7532 0.0
C38 C 0.92491 0.26148 0.7637 0.0
O39 O 0.90147 0.28359 0.80204 0.0
C40 C 0.1688 0.13872 0.86647 0.0
C41 C 0.39695 0.19645 0.78131 0.0
O42 O 0.42714 0.21117 0.81748 0.0
O43 O 0.3467 0.1341 0.77058 0.0
O44 O 0.03103 0.11747 0.88684 0.0
Cd45 Cd 0.93769 0.1533 0.94581 0.0
O46 O 0.10783 0.20662 0.92972 0.0
Cd47 Cd 0.21375 0.28867 0.95056 0.0
O48 O 0.23824 0.41853 0.98442 0.0
C49 C 0.17437 0.46517 0.98707 0.0
O50 O 0.10577 0.43251 0.96934 0.0
C51 C 0.0992 0.15646 0.89499 0.0
C52 C 0.93755 0.03369 0.99458 0.0
O53 O 0.87493 0.0414 0.97241 0.0
O54 O 0.00029 0.08142 0.99362 0.0
O55 O 0.24093 0.87208 0.13537 0.0
Cd56 Cd 0.35853 0.91491 0.18108 0.0
O57 O 0.15751 0.88161 0.18758 0.0
Cd58 Cd 0.04203 0.86166 0.21797 0.0
O59 O 0.97885 0.80319 0.26242 0.0
C60 C 0.92456 0.74561 0.25191 0.0
O61 O 0.90126 0.72333 0.21355 0.0
C62 C 0.16853 0.86745 0.14921 0.0
C63 C 0.39722 0.81063 0.23431 0.0
O64 O 0.42745 0.79612 0.19815 0.0
O65 O 0.34665 0.87271 0.24504 0.0
O66 O 0.53111 0.61748 0.38682 0.0
Cd67 Cd 0.4378 0.65337 0.4458 0.0
O68 O 0.60791 0.70669 0.42966 0.0
Cd69 Cd 0.71384 0.78877 0.45046 0.0
O70 O 0.73817 0.91857 0.48444 0.0
C71 C 0.67363 0.96443 0.4881 0.0
O72 O 0.60452 0.93104 0.47128 0.0
C73 C 0.59927 0.65648 0.39495 0.0
C74 C 0.43761 0.53376 0.49457 0.0
O75 O 0.375 0.5415 0.4724 0.0
O76 O 0.50037 0.58146 0.4936 0.0
O77 O 0.74096 0.37213 0.63537 0.0
Cd78 Cd 0.85854 0.41491 0.6811 0.0
O79 O 0.6575 0.38158 0.68756 0.0
Cd80 Cd 0.542 0.36161 0.71793 0.0
O81 O 0.47881 0.3032 0.76241 0.0
C82 C 0.42451 0.24562 0.75191 0.0
O83 O 0.40121 0.2233 0.71356 0.0
C84 C 0.66854 0.36747 0.64919 0.0
C85 C 0.89718 0.31062 0.73432 0.0
O86 O 0.92743 0.29611 0.69817 0.0
O87 O 0.84662 0.37271 0.74505 0.0
loop_
_geom_bond_atom_site_label_1
_geom_bond_atom_site_label_2
_geom_bond_distance
_geom_bond_site_symmetry_2
_ccdc_geom_bond_type
O0 Cd1 2.300 . S
O0 C7 1.275 . S
Cd1 O0 2.300 . S
Cd1 O9 2.381 . S
Cd1 O10 2.378 1_554 S
O2 Cd3 2.385 . S
O2 C7 1.255 . S
Cd3 O2 2.385 . S
Cd3 O4 2.310 1_554 S
O4 Cd3 2.310 1_556 S
O4 C5 1.225 1_556 S
C5 O4 1.225 1_554 S
C5 O6 1.218 . S
O6 C5 1.218 . S
C7 O0 1.275 . S
C7 O2 1.255 . S
C8 O9 1.258 . S
C8 O10 1.256 1_554 S
O9 Cd1 2.381 . S
O9 C8 1.258 . S
O10 Cd1 2.378 1_556 S
O10 C8 1.256 1_556 S
O11 Cd12 2.300 . S
O11 C18 1.275 . S
Cd12 O11 2.300 . S
Cd12 O20 2.381 . S
Cd12 O21 2.378 . S
O13 Cd14 2.385 . S
O13 C18 1.255 . S
Cd14 O13 2.385 . S
Cd14 O15 2.317 . S
O15 Cd14 2.317 . S
O15 C16 1.232 . S
C16 O15 1.232 . S
C16 O17 1.218 . S
O17 C16 1.218 . S
C18 O11 1.275 . S
C18 O13 1.255 . S
C19 O20 1.258 . S
C19 O21 1.256 . S
O20 Cd12 2.381 . S
O20 C19 1.258 . S
O21 Cd12 2.378 . S
O21 C19 1.256 . S
O22 Cd23 2.300 . S
O22 C29 1.275 . S
Cd23 O22 2.300 . S
Cd23 O31 2.381 . S
Cd23 O32 2.378 . S
O24 Cd25 2.385 . S
O24 C29 1.255 . S
Cd25 O24 2.385 . S
Cd25 O26 2.317 . S
O26 Cd25 2.317 . S
O26 C27 1.232 . S
C27 O26 1.232 . S
C27 O28 1.218 1_545 S
O28 C27 1.218 1_565 S
C29 O22 1.275 . S
C29 O24 1.255 . S
C30 O31 1.258 . S
C30 O32 1.256 . S
O31 Cd23 2.381 . S
O31 C30 1.258 . S
O32 Cd23 2.378 . S
O32 C30 1.256 . S
O33 Cd34 2.300 . S
O33 C40 1.275 . S
Cd34 O33 2.300 . S
Cd34 O42 2.381 . S
Cd34 O43 2.378 . S
O35 Cd36 2.385 . S
O35 C40 1.255 . S
Cd36 O35 2.385 . S
Cd36 O37 2.317 1_455 S
O37 Cd36 2.317 1_655 S
O37 C38 1.232 . S
C38 O37 1.232 . S
C38 O39 1.218 . S
O39 C38 1.218 . S
C40 O33 1.275 . S
C40 O35 1.255 . S
C41 O42 1.258 . S
C41 O43 1.256 . S
O42 Cd34 2.381 . S
O42 C41 1.258 . S
O43 Cd34 2.378 . S
O43 C41 1.256 . S
O44 Cd45 2.300 . S
O44 C51 1.275 . S
Cd45 O44 2.300 . S
Cd45 O53 2.381 . S
Cd45 O54 2.378 1_556 S
O46 Cd47 2.385 . S
O46 C51 1.255 . S
Cd47 O46 2.385 . S
Cd47 O48 2.310 1_556 S
O48 Cd47 2.310 1_554 S
O48 C49 1.225 1_554 S
C49 O48 1.225 1_556 S
C49 O50 1.218 . S
O50 C49 1.218 . S
C51 O44 1.275 . S
C51 O46 1.255 . S
C52 O53 1.258 . S
C52 O54 1.256 1_556 S
O53 Cd45 2.381 . S
O53 C52 1.258 . S
O54 Cd45 2.378 1_554 S
O54 C52 1.256 1_554 S
O55 Cd56 2.300 . S
O55 C62 1.275 . S
Cd56 O55 2.300 . S
Cd56 O64 2.381 . S
Cd56 O65 2.378 . S
O57 Cd58 2.385 . S
O57 C62 1.255 . S
Cd58 O57 2.385 . S
Cd58 O59 2.317 1_455 S
O59 Cd58 2.317 1_655 S
O59 C60 1.232 . S
C60 O59 1.232 . S
C60 O61 1.218 . S
O61 C60 1.218 . S
C62 O55 1.275 . S
C62 O57 1.255 . S
C63 O64 1.258 . S
C63 O65 1.256 . S
O64 Cd56 2.381 . S
O64 C63 1.258 . S
O65 Cd56 2.378 . S
O65 C63 1.256 . S
O66 Cd67 2.300 . S
O66 C73 1.275 . S
Cd67 O66 2.300 . S
Cd67 O75 2.381 . S
Cd67 O76 2.378 . S
O68 Cd69 2.385 . S
O68 C73 1.255 . S
Cd69 O68 2.385 . S
Cd69 O70 2.317 . S
O70 Cd69 2.317 . S
O70 C71 1.232 . S
C71 O70 1.232 . S
C71 O72 1.218 1_565 S
O72 C71 1.218 1_545 S
C73 O66 1.275 . S
C73 O68 1.255 . S
C74 O75 1.258 . S
C74 O76 1.256 . S
O75 Cd67 2.381 . S
O75 C74 1.258 . S
O76 Cd67 2.378 . S
O76 C74 1.256 . S
O77 Cd78 2.300 . S
O77 C84 1.275 . S
Cd78 O77 2.300 . S
Cd78 O86 2.381 . S
Cd78 O87 2.378 . S
O79 Cd80 2.385 . S
O79 C84 1.255 . S
Cd80 O79 2.385 . S
Cd80 O81 2.317 . S
O81 Cd80 2.317 . S
O81 C82 1.232 . S
C82 O81 1.232 . S
C82 O83 1.218 . S
O83 C82 1.218 . S
C84 O77 1.275 . S
C84 O79 1.255 . S
C85 O86 1.258 . S
C85 O87 1.256 . S
O86 Cd78 2.381 . S
O86 C85 1.258 . S
O87 Cd78 2.378 . S
O87 C85 1.256 . S
C49 C5 0.778 1_556 S
C60 C19 1.384 . S
C30 C74 1.466 . S
C38 C85 1.384 . S
C82 C41 1.384 . S
C63 C16 1.384 . S
C71 C27 0.778 1_565 S
C8 C52 1.465 1_564 S
C62 C7 1.345 . S
C73 C18 1.345 . S
C29 C84 1.345 . S
C51 C40 1.345 . S
