# Generated by pormake.
# Topology wli, (5)-cn, num edge types: 1
# Building blocks:
#     Node 0, Type 0, BuildingBlock: XOMCOT_clean_sbu_1, # of connection points: 5
#     Node 1, Type 0, BuildingBlock: XOMCOT_clean_sbu_1, # of connection points: 5
#     Node 2, Type 0, BuildingBlock: XOMCOT_clean_sbu_1, # of connection points: 5
#     Node 3, Type 0, BuildingBlock: XOMCOT_clean_sbu_1, # of connection points: 5
#     Node 4, Type 0, BuildingBlock: XOMCOT_clean_sbu_1, # of connection points: 5
#     Node 5, Type 0, BuildingBlock: XOMCOT_clean_sbu_1, # of connection points: 5
#     Edge 6, Type (0, 0), None
#     Edge 7, Type (0, 0), None
#     Edge 8, Type (0, 0), None
#     Edge 9, Type (0, 0), None
#     Edge 10, Type (0, 0), None
#     Edge 11, Type (0, 0), None
#     Edge 12, Type (0, 0), None
#     Edge 13, Type (0, 0), None
#     Edge 14, Type (0, 0), None
#     Edge 15, Type (0, 0), None
#     Edge 16, Type (0, 0), None
#     Edge 17, Type (0, 0), None
#     Edge 18, Type (0, 0), None
#     Edge 19, Type (0, 0), None
#     Edge 20, Type (0, 0), None
# Relax obj value: 0.124
# Max RMSD: 0.141
# Mean RMSD: 0.141
data_MOF--net-wli--node1-XOMCOT_clean_sbu_1--edge1-none
_symmetry_space_group_name_H-M    P1
_symmetry_Int_Tables_number       1
_symmetry_cell_setting            triclinic
loop_
_symmetry_equiv_pos_as_xyz
'x, y, z'
_cell_length_a     16.500976
_cell_length_b     16.606747
_cell_length_c     14.362663
_cell_angle_alpha  90.498751
_cell_angle_beta   90.345249
_cell_angle_gamma 117.66581
loop_
_atom_site_label
_atom_site_type_symbol
_atom_site_fract_x
_atom_site_fract_y
_atom_site_fract_z
_atom_type_partial_charge
C0 C 0.37293 0.69826 0.0816 0.0
C1 C 0.44241 0.76524 0.03106 0.0
N2 N 0.51176 0.74401 0.02659 0.0
N3 N 0.39992 0.63689 0.1104 0.0
C4 C 0.48568 0.6687 0.07829 0.0
H5 H 0.30488 0.69106 0.09092 0.0
Co6 Co 0.32913 0.5215 0.16204 0.0
C7 C 0.39974 0.42272 0.02379 0.0
O8 O 0.31754 0.36896 0.99059 0.0
N9 N 0.25657 0.40663 0.22084 0.0
C10 C 0.19438 0.26313 0.27021 0.0
C11 C 0.25524 0.32518 0.20895 0.0
C12 C 0.19707 0.39242 0.29207 0.0
N13 N 0.15781 0.30541 0.32262 0.0
O14 O 0.40761 0.55609 0.27172 0.0
H15 H 0.29652 0.31095 0.16026 0.0
H16 H 0.18191 0.44475 0.31962 0.0
O17 O 0.40959 0.47547 0.09465 0.0
C18 C 0.40403 0.60201 0.34245 0.0
O19 O 0.43433 0.59037 0.42341 0.0
N20 N 0.24926 0.48814 0.05692 0.0
C21 C 0.13544 0.42274 0.90186 0.0
C22 C 0.22774 0.48294 0.89108 0.0
C23 C 0.28358 0.51495 0.96944 0.0
C24 C 0.15709 0.4369 0.06821 0.0
C25 C 0.09897 0.40118 0.99111 0.0
H26 H 0.35582 0.55598 0.95824 0.0
H27 H 0.12792 0.42138 0.1367 0.0
H28 H 0.52548 0.6324 0.08465 0.0
H29 H 0.43691 0.81726 0.99059 0.0
H30 H 0.17885 0.1925 0.27587 0.0
H31 H 0.25733 0.50168 0.82251 0.0
H32 H 1.02661 0.35705 1.00095 0.0
C33 C 0.4569 0.70775 0.75487 0.0
C34 C 0.38619 0.70662 0.70186 0.0
N35 N 0.42002 0.78431 0.65376 0.0
N36 N 0.53433 0.78614 0.74083 0.0
C37 C 0.50912 0.8316 0.67952 0.0
H38 H 0.45232 0.65396 0.79988 0.0
Co39 Co 0.64798 0.81639 0.79747 0.0
C40 C 0.76952 1.0021 0.70544 0.0
O41 O 0.82709 0.97368 0.67581 0.0
N42 N 0.76129 0.84193 0.86129 0.0
C43 C 0.87953 0.91149 0.96047 0.0
C44 C 0.82355 0.92347 0.89624 0.0
C45 C 0.78186 0.78135 0.90629 0.0
N46 N 0.85219 0.82186 0.96765 0.0
O47 O 0.60095 0.83943 0.9109 0.0
H48 H 0.82331 0.98734 0.88352 0.0
H49 H 0.74193 0.70844 0.90035 0.0
O50 O 0.70049 0.94934 0.75577 0.0
C51 C 0.57391 0.76635 0.95752 0.0
O52 O 0.59278 0.70271 0.9256 0.0
N53 N 0.6836 0.78022 0.68849 0.0
C54 C 0.70628 0.69171 0.53258 0.0
C55 C 0.70046 0.77289 0.52335 0.0
C56 C 0.68543 0.81395 0.60164 0.0
C57 C 0.68311 0.69857 0.69787 0.0
C58 C 0.6944 0.65319 0.62125 0.0
H59 H 0.67356 0.87173 0.59119 0.0
H60 H 0.66867 0.66562 0.76439 0.0
H61 H 0.5555 0.89786 0.65293 0.0
H62 H 0.31681 0.65195 0.69661 0.0
H63 H 0.93101 0.96411 1.00399 0.0
H64 H 0.70738 0.80499 0.45658 0.0
H65 H 0.69207 0.5877 0.63178 0.0
C66 C 0.38091 0.79917 0.31289 0.0
C67 C 0.4129 0.74007 0.28501 0.0
N68 N 0.37205 0.66387 0.33509 0.0
N69 N 0.32132 0.76242 0.38306 0.0
C70 C 0.32077 0.6813 0.39749 0.0
H71 H 0.40796 0.86859 0.29006 0.0
Co72 Co 0.28103 0.82868 0.46236 0.0
C73 C 0.10154 0.67678 0.37426 0.0
O74 O 0.14321 0.63864 0.32793 0.0
N75 N 0.24802 0.8999 0.54501 0.0
C76 C 0.17888 0.97322 0.61219 0.0
C77 C 0.16862 0.90465 0.55024 0.0
C78 C 0.30548 0.96656 0.60485 0.0
N79 N 0.26519 1.01213 0.64628 0.0
O80 O 0.29273 0.76339 0.56654 0.0
H81 H 0.10792 0.86338 0.50919 0.0
H82 H 0.3767 0.98424 0.61495 0.0
O83 O 0.14692 0.7421 0.43341 0.0
C84 C 0.37821 0.80945 0.5867 0.0
O85 O 0.42825 0.88142 0.53676 0.0
N86 N 0.28174 0.90074 0.3642 0.0
C87 C 0.32223 1.02025 0.21854 0.0
C88 C 0.24844 0.93332 0.21104 0.0
C89 C 0.23002 0.87394 0.28436 0.0
C90 C 0.35143 0.98672 0.37376 0.0
C91 C 0.37289 1.04792 0.30176 0.0
H92 H 0.17875 0.80577 0.27218 0.0
H93 H 0.39447 1.00606 0.43537 0.0
H94 H 0.28687 0.63757 0.45547 0.0
H95 H 0.47207 0.75813 0.2417 0.0
H96 H 0.12735 0.99388 0.62888 0.0
H97 H 0.20842 0.90981 0.14725 0.0
H98 H 0.43228 0.11399 0.30916 0.0
C99 C 0.64075 0.28381 0.03756 0.0
C100 C 0.72711 0.34301 0.06911 0.0
N101 N 0.75757 0.42097 0.02178 0.0
N102 N 0.61566 0.32281 0.96882 0.0
C103 C 0.69075 0.40472 0.95775 0.0
H104 H 0.60229 0.21365 0.05812 0.0
Co105 Co 0.51015 0.26092 0.89067 0.0
C106 C 0.4791 0.41531 0.98239 0.0
O107 O 0.55853 0.45611 0.02567 0.0
N108 N 0.40579 0.19504 0.80856 0.0
C109 C 0.26656 0.1374 0.74217 0.0
C110 C 0.32752 0.20227 0.8034 0.0
C111 C 0.39009 0.12464 0.74886 0.0
N112 N 0.306 0.08845 0.70812 0.0
O113 O 0.58302 0.32573 0.78635 0.0
H114 H 0.31371 0.24975 0.84356 0.0
H115 H 0.43751 0.09755 0.73831 0.0
O116 O 0.46298 0.3509 0.92249 0.0
C117 C 0.61806 0.27517 0.75867 0.0
O118 O 0.59204 0.19654 0.79948 0.0
N119 N 0.44302 0.19101 0.99027 0.0
C120 C 0.35427 0.07782 0.13662 0.0
C121 C 0.38843 0.17146 0.14652 0.0
C122 C 0.43495 0.22691 0.07354 0.0
C123 C 0.40928 0.09947 0.97934 0.0
C124 C 0.36382 1.04124 0.05162 0.0
H125 H 0.47092 0.29808 0.08846 0.0
H126 H 0.42156 0.07159 0.91602 0.0
H127 H 0.69776 0.45054 0.9016 0.0
H128 H 0.76871 0.32485 0.11411 0.0
H129 H 0.19809 0.12635 0.72563 0.0
H130 H 0.38434 0.2021 0.2121 0.0
H131 H 0.34142 0.96909 0.0428 0.0
C132 C 0.81572 0.38758 0.62326 0.0
C133 C 0.74343 0.38899 0.66999 0.0
N134 N 0.68879 0.30407 0.698 0.0
N135 N 0.80792 0.30252 0.62303 0.0
C136 C 0.72667 0.25286 0.6649 0.0
H137 H 0.87009 0.44563 0.59041 0.0
Co138 Co 0.89125 0.2694 0.56143 0.0
C139 C 0.79274 0.09907 0.68909 0.0
O140 O 0.79715 0.14901 0.76223 0.0
N141 N 0.97689 0.24323 0.49358 0.0
C142 C 1.03195 0.1739 0.39805 0.0
C143 C 0.96424 0.16161 0.46113 0.0
C144 C 1.05407 0.30425 0.44965 0.0
N145 N 1.08766 0.26378 0.38987 0.0
O146 O 0.81557 0.24374 0.45244 0.0
H147 H 0.90608 0.09732 0.47708 0.0
H148 H 1.08241 0.37718 0.45763 0.0
O149 O 0.825 0.13761 0.60987 0.0
C150 C 0.85688 0.31808 0.4078 0.0
O151 O 0.9348 0.38137 0.4418 0.0
N152 N 0.96984 0.30644 0.66346 0.0
C153 C 1.07835 0.38214 0.81935 0.0
C154 C 1.04507 0.28954 0.79893 0.0
C155 C 0.99293 0.25328 0.71812 0.0
C156 C 1.00968 0.39804 0.67794 0.0
C157 C 1.06349 0.43748 0.75643 0.0
H158 H 0.9713 0.183 0.70006 0.0
H159 H 0.99974 0.44092 0.62815 0.0
H160 H 0.69279 0.17973 0.66836 0.0
H161 H 0.73383 0.44802 0.68498 0.0
H162 H 1.03614 0.12092 0.35724 0.0
H163 H 1.06072 0.24646 0.84393 0.0
H164 H 0.09281 0.51023 0.76813 0.0
C165 C 0.72324 0.38517 0.27362 0.0
C166 C 0.72856 0.31848 0.32665 0.0
N167 N 0.81765 0.34059 0.33633 0.0
N168 N 0.80847 0.44692 0.2484 0.0
C169 C 0.86361 0.41587 0.28519 0.0
H170 H 0.66213 0.39201 0.26027 0.0
Co171 Co 0.84602 0.5624 0.1975 0.0
C172 C 1.01143 0.66446 0.33705 0.0
O173 O 0.97888 0.71723 0.37085 0.0
N174 N 0.88131 0.67779 0.14052 0.0
C175 C 0.95654 0.82101 0.09082 0.0
C176 C 0.95738 0.75839 0.1528 0.0
C177 C 0.83631 0.69311 0.06839 0.0
N178 N 0.88054 0.77987 0.03757 0.0
O179 O 0.89313 0.52886 0.08863 0.0
H180 H 1.01224 0.77157 0.20128 0.0
H181 H 0.77226 0.64148 0.03953 0.0
O182 O 0.9701 0.60992 0.26744 0.0
C183 C 0.8475 0.48333 0.01681 0.0
O184 O 0.88993 0.49557 0.93702 0.0
N185 N 0.79489 0.59321 0.30012 0.0
C186 C 0.72851 0.6497 0.45155 0.0
C187 C 0.77856 0.60182 0.46493 0.0
C188 C 0.80863 0.57202 0.38859 0.0
C189 C 0.73886 0.63167 0.28514 0.0
C190 C 0.70509 0.66085 0.35999 0.0
H191 H 0.84861 0.53706 0.40163 0.0
H192 H 0.72081 0.64092 0.21513 0.0
H193 H 0.93751 0.45279 0.28272 0.0
H194 H 0.67314 0.26615 0.3651 0.0
H195 H 1.00865 0.89091 0.08454 0.0
H196 H 0.79872 0.59074 0.53351 0.0
H197 H 0.66217 0.69273 0.34583 0.0
loop_
_geom_bond_atom_site_label_1
_geom_bond_atom_site_label_2
_geom_bond_distance
_geom_bond_site_symmetry_2
_ccdc_geom_bond_type
C0 C1 1.351 . S
C0 N3 1.368 . S
C0 H5 0.934 . S
C1 C0 1.351 . S
C1 N2 1.373 . S
C1 H29 0.930 . S
N2 C1 1.373 . S
N2 C4 1.340 . S
N3 C0 1.368 . S
N3 C4 1.321 . S
N3 Co6 2.135 1_556 S
C4 N2 1.340 . S
C4 N3 1.321 . S
C4 H28 0.930 . S
H5 C0 0.934 . S
Co6 N3 2.135 1_554 S
Co6 N9 2.121 . S
Co6 O14 2.055 . S
Co6 O17 2.039 . S
Co6 N20 2.140 1_554 S
C7 O8 1.227 1_554 S
C7 O17 1.265 . S
O8 C7 1.227 1_556 S
N9 Co6 2.121 . S
N9 C11 1.375 . S
N9 C12 1.313 . S
C10 C11 1.338 . S
C10 N13 1.377 . S
C10 H30 0.930 . S
C11 N9 1.375 . S
C11 C10 1.338 . S
C11 H15 0.931 . S
C12 N9 1.313 . S
C12 N13 1.344 . S
C12 H16 0.930 . S
N13 C10 1.377 . S
N13 C12 1.344 . S
O14 Co6 2.055 . S
O14 C18 1.253 . S
H15 C11 0.931 . S
H16 C12 0.930 . S
O17 Co6 2.039 . S
O17 C7 1.265 . S
C18 O14 1.253 . S
C18 O19 1.227 . S
O19 C18 1.227 . S
N20 Co6 2.140 1_556 S
N20 C23 1.346 . S
N20 C24 1.345 1_556 S
C21 C22 1.387 . S
C21 C25 1.391 1_455 S
C22 C21 1.387 . S
C22 C23 1.369 . S
C22 H31 0.929 . S
C23 N20 1.346 . S
C23 C22 1.369 . S
C23 H26 0.928 . S
C24 N20 1.345 1_554 S
C24 C25 1.371 1_454 S
C24 H27 0.931 . S
C25 C21 1.391 1_655 S
C25 C24 1.371 1_656 S
C25 H32 0.930 . S
H26 C23 0.928 . S
H27 C24 0.931 . S
H28 C4 0.930 . S
H29 C1 0.930 . S
H30 C10 0.930 . S
H31 C22 0.929 . S
H32 C25 0.930 . S
C33 C34 1.351 . S
C33 N36 1.368 . S
C33 H38 0.931 . S
C34 C33 1.351 . S
C34 N35 1.373 . S
C34 H62 0.930 . S
N35 C34 1.373 . S
N35 C37 1.340 . S
N36 C33 1.368 . S
N36 C37 1.321 . S
N36 Co39 2.135 . S
C37 N35 1.340 . S
C37 N36 1.321 . S
C37 H61 0.930 . S
H38 C33 0.931 . S
Co39 N36 2.135 . S
Co39 N42 2.121 . S
Co39 O47 2.055 . S
Co39 O50 2.039 . S
Co39 N53 2.140 . S
C40 O41 1.227 . S
C40 O50 1.265 . S
O41 C40 1.227 . S
N42 Co39 2.121 . S
N42 C44 1.375 . S
N42 C45 1.313 . S
C43 C44 1.338 . S
C43 N46 1.377 . S
C43 H63 0.930 . S
C44 N42 1.375 . S
C44 C43 1.338 . S
C44 H48 0.931 . S
C45 N42 1.313 . S
C45 N46 1.344 . S
C45 H49 0.930 . S
N46 C43 1.377 . S
N46 C45 1.344 . S
O47 Co39 2.055 . S
O47 C51 1.253 . S
H48 C44 0.931 . S
H49 C45 0.930 . S
O50 Co39 2.039 . S
O50 C40 1.265 . S
C51 O47 1.253 . S
C51 O52 1.227 . S
O52 C51 1.227 . S
N53 Co39 2.140 . S
N53 C56 1.346 . S
N53 C57 1.345 . S
C54 C55 1.387 . S
C54 C58 1.391 . S
C55 C54 1.387 . S
C55 C56 1.369 . S
C55 H64 0.929 . S
C56 N53 1.346 . S
C56 C55 1.369 . S
C56 H59 0.928 . S
C57 N53 1.345 . S
C57 C58 1.371 . S
C57 H60 0.931 . S
C58 C54 1.391 . S
C58 C57 1.371 . S
C58 H65 0.930 . S
H59 C56 0.928 . S
H60 C57 0.931 . S
H61 C37 0.930 . S
H62 C34 0.930 . S
H63 C43 0.930 . S
H64 C55 0.929 . S
H65 C58 0.930 . S
C66 C67 1.351 . S
C66 N69 1.368 . S
C66 H71 0.931 . S
C67 C66 1.351 . S
C67 N68 1.373 . S
C67 H95 0.930 . S
N68 C67 1.373 . S
N68 C70 1.340 . S
N69 C66 1.368 . S
N69 C70 1.321 . S
N69 Co72 2.135 . S
C70 N68 1.340 . S
C70 N69 1.321 . S
C70 H94 0.930 . S
H71 C66 0.931 . S
Co72 N69 2.135 . S
Co72 N75 2.121 . S
Co72 O80 2.055 . S
Co72 O83 2.039 . S
Co72 N86 2.140 . S
C73 O74 1.227 . S
C73 O83 1.265 . S
O74 C73 1.227 . S
N75 Co72 2.121 . S
N75 C77 1.375 . S
N75 C78 1.313 . S
C76 C77 1.338 . S
C76 N79 1.377 . S
C76 H96 0.930 . S
C77 N75 1.375 . S
C77 C76 1.338 . S
C77 H81 0.931 . S
C78 N75 1.313 . S
C78 N79 1.344 . S
C78 H82 0.930 . S
N79 C76 1.377 . S
N79 C78 1.344 . S
O80 Co72 2.055 . S
O80 C84 1.253 . S
H81 C77 0.931 . S
H82 C78 0.930 . S
O83 Co72 2.039 . S
O83 C73 1.265 . S
C84 O80 1.253 . S
C84 O85 1.227 . S
O85 C84 1.227 . S
N86 Co72 2.140 . S
N86 C89 1.346 . S
N86 C90 1.345 . S
C87 C88 1.387 . S
C87 C91 1.391 . S
C88 C87 1.387 . S
C88 C89 1.369 . S
C88 H97 0.929 . S
C89 N86 1.346 . S
C89 C88 1.369 . S
C89 H92 0.928 . S
C90 N86 1.345 . S
C90 C91 1.381 . S
C90 H93 0.931 . S
C91 C87 1.391 . S
C91 C90 1.381 . S
C91 H98 0.920 1_565 S
H92 C89 0.928 . S
H93 C90 0.931 . S
H94 C70 0.930 . S
H95 C67 0.930 . S
H96 C76 0.930 . S
H97 C88 0.929 . S
H98 C91 0.920 1_545 S
C99 C100 1.351 . S
C99 N102 1.368 . S
C99 H104 0.934 . S
C100 C99 1.351 . S
C100 N101 1.373 . S
C100 H128 0.930 . S
N101 C100 1.373 . S
N101 C103 1.340 . S
N102 C99 1.368 . S
N102 C103 1.321 . S
N102 Co105 2.135 1_554 S
C103 N101 1.340 . S
C103 N102 1.321 . S
C103 H127 0.930 . S
H104 C99 0.934 . S
Co105 N102 2.135 1_556 S
Co105 N108 2.121 . S
Co105 O113 2.055 . S
Co105 O116 2.039 . S
Co105 N119 2.140 1_556 S
C106 O107 1.227 1_556 S
C106 O116 1.265 . S
O107 C106 1.227 1_554 S
N108 Co105 2.121 . S
N108 C110 1.375 . S
N108 C111 1.313 . S
C109 C110 1.338 . S
C109 N112 1.377 . S
C109 H129 0.930 . S
C110 N108 1.375 . S
C110 C109 1.338 . S
C110 H114 0.931 . S
C111 N108 1.313 . S
C111 N112 1.344 . S
C111 H115 0.930 . S
N112 C109 1.377 . S
N112 C111 1.344 . S
O113 Co105 2.055 . S
O113 C117 1.253 . S
H114 C110 0.931 . S
H115 C111 0.930 . S
O116 Co105 2.039 . S
O116 C106 1.265 . S
C117 O113 1.253 . S
C117 O118 1.227 . S
O118 C117 1.227 . S
N119 Co105 2.140 1_554 S
N119 C122 1.346 . S
N119 C123 1.345 1_554 S
C120 C121 1.387 . S
C120 C124 1.391 1_545 S
C121 C120 1.387 . S
C121 C122 1.369 . S
C121 H130 0.929 . S
C122 N119 1.346 . S
C122 C121 1.369 . S
C122 H125 0.928 . S
C123 N119 1.345 1_556 S
C123 C124 1.371 1_546 S
C123 H126 0.931 . S
C124 C120 1.391 1_565 S
C124 C123 1.371 1_564 S
C124 H131 0.930 . S
H125 C122 0.928 . S
H126 C123 0.931 . S
H127 C103 0.930 . S
H128 C100 0.930 . S
H129 C109 0.930 . S
H130 C121 0.929 . S
H131 C124 0.930 . S
C132 C133 1.351 . S
C132 N135 1.368 . S
C132 H137 0.931 . S
C133 C132 1.351 . S
C133 N134 1.373 . S
C133 H161 0.930 . S
N134 C133 1.373 . S
N134 C136 1.340 . S
N135 C132 1.368 . S
N135 C136 1.321 . S
N135 Co138 2.135 . S
C136 N134 1.340 . S
C136 N135 1.321 . S
C136 H160 0.930 . S
H137 C132 0.931 . S
Co138 N135 2.135 . S
Co138 N141 2.121 . S
Co138 O146 2.055 . S
Co138 O149 2.039 . S
Co138 N152 2.140 . S
C139 O140 1.227 . S
C139 O149 1.265 . S
O140 C139 1.227 . S
N141 Co138 2.121 . S
N141 C143 1.375 . S
N141 C144 1.313 . S
C142 C143 1.338 . S
C142 N145 1.377 . S
C142 H162 0.930 . S
C143 N141 1.375 . S
C143 C142 1.338 . S
C143 H147 0.931 . S
C144 N141 1.313 . S
C144 N145 1.344 . S
C144 H148 0.930 . S
N145 C142 1.377 . S
N145 C144 1.344 . S
O146 Co138 2.055 . S
O146 C150 1.253 . S
H147 C143 0.931 . S
H148 C144 0.930 . S
O149 Co138 2.039 . S
O149 C139 1.265 . S
C150 O146 1.253 . S
C150 O151 1.227 . S
O151 C150 1.227 . S
N152 Co138 2.140 . S
N152 C155 1.346 . S
N152 C156 1.345 . S
C153 C154 1.387 . S
C153 C157 1.391 . S
C154 C153 1.387 . S
C154 C155 1.369 . S
C154 H163 0.929 . S
C155 N152 1.346 . S
C155 C154 1.369 . S
C155 H158 0.928 . S
C156 N152 1.345 . S
C156 C157 1.381 . S
C156 H159 0.931 . S
C157 C153 1.391 . S
C157 C156 1.381 . S
C157 H164 0.920 1_655 S
H158 C155 0.928 . S
H159 C156 0.931 . S
H160 C136 0.930 . S
H161 C133 0.930 . S
H162 C142 0.930 . S
H163 C154 0.929 . S
H164 C157 0.920 1_455 S
C165 C166 1.351 . S
C165 N168 1.368 . S
C165 H170 0.931 . S
C166 C165 1.351 . S
C166 N167 1.373 . S
C166 H194 0.930 . S
N167 C166 1.373 . S
N167 C169 1.340 . S
N168 C165 1.368 . S
N168 C169 1.321 . S
N168 Co171 2.135 . S
C169 N167 1.340 . S
C169 N168 1.321 . S
C169 H193 0.930 . S
H170 C165 0.931 . S
Co171 N168 2.135 . S
Co171 N174 2.121 . S
Co171 O179 2.055 . S
Co171 O182 2.039 . S
Co171 N185 2.140 . S
C172 O173 1.227 . S
C172 O182 1.265 . S
O173 C172 1.227 . S
N174 Co171 2.121 . S
N174 C176 1.375 . S
N174 C177 1.313 . S
C175 C176 1.338 . S
C175 N178 1.377 . S
C175 H195 0.930 . S
C176 N174 1.375 . S
C176 C175 1.338 . S
C176 H180 0.931 . S
C177 N174 1.313 . S
C177 N178 1.344 . S
C177 H181 0.930 . S
N178 C175 1.377 . S
N178 C177 1.344 . S
O179 Co171 2.055 . S
O179 C183 1.253 . S
H180 C176 0.931 . S
H181 C177 0.930 . S
O182 Co171 2.039 . S
O182 C172 1.265 . S
C183 O179 1.253 . S
C183 O184 1.227 . S
O184 C183 1.227 . S
N185 Co171 2.140 . S
N185 C188 1.346 . S
N185 C189 1.345 . S
C186 C187 1.387 . S
C186 C190 1.391 . S
C187 C186 1.387 . S
C187 C188 1.369 . S
C187 H196 0.929 . S
C188 N185 1.346 . S
C188 C187 1.369 . S
C188 H191 0.928 . S
C189 N185 1.345 . S
C189 C190 1.371 . S
C189 H192 0.931 . S
C190 C186 1.391 . S
C190 C189 1.371 . S
C190 H197 0.930 . S
H191 C188 0.928 . S
H192 C189 0.931 . S
H193 C169 0.930 . S
H194 C166 0.930 . S
H195 C175 0.930 . S
H196 C187 0.929 . S
H197 C190 0.930 . S
N68 C18 1.322 . S
C51 N2 1.322 . S
C84 N35 1.322 . S
C117 N134 1.322 . S
N167 C150 1.322 . S
N101 C183 1.322 . S
C153 C21 0.643 1_655 S
C186 C54 0.643 . S
C120 C87 0.643 1_545 S
C106 C7 2.054 1_556 S
C139 C40 2.054 1_545 S
C73 C172 2.054 1_455 S
N145 N13 2.053 1_655 S
N46 N178 2.053 1_556 S
N112 N79 2.053 1_545 S
