# Generated by pormake.
# Topology snw, (6)-cn, num edge types: 1
# Building blocks:
#     Node 0, Type 0, BuildingBlock: OJICUG_clean_sbu_0, # of connection points: 6
#     Node 1, Type 0, BuildingBlock: OJICUG_clean_sbu_0, # of connection points: 6
#     Node 2, Type 0, BuildingBlock: OJICUG_clean_sbu_0, # of connection points: 6
#     Node 3, Type 0, BuildingBlock: OJICUG_clean_sbu_0, # of connection points: 6
#     Node 4, Type 0, BuildingBlock: OJICUG_clean_sbu_0, # of connection points: 6
#     Node 5, Type 0, BuildingBlock: OJICUG_clean_sbu_0, # of connection points: 6
#     Node 6, Type 0, BuildingBlock: OJICUG_clean_sbu_0, # of connection points: 6
#     Node 7, Type 0, BuildingBlock: OJICUG_clean_sbu_0, # of connection points: 6
#     Edge 8, Type (0, 0), None
#     Edge 9, Type (0, 0), None
#     Edge 10, Type (0, 0), None
#     Edge 11, Type (0, 0), None
#     Edge 12, Type (0, 0), None
#     Edge 13, Type (0, 0), None
#     Edge 14, Type (0, 0), None
#     Edge 15, Type (0, 0), None
#     Edge 16, Type (0, 0), None
#     Edge 17, Type (0, 0), None
#     Edge 18, Type (0, 0), None
#     Edge 19, Type (0, 0), None
#     Edge 20, Type (0, 0), None
#     Edge 21, Type (0, 0), None
#     Edge 22, Type (0, 0), None
#     Edge 23, Type (0, 0), None
#     Edge 24, Type (0, 0), None
#     Edge 25, Type (0, 0), None
#     Edge 26, Type (0, 0), None
#     Edge 27, Type (0, 0), None
#     Edge 28, Type (0, 0), None
#     Edge 29, Type (0, 0), None
#     Edge 30, Type (0, 0), None
#     Edge 31, Type (0, 0), None
# Relax obj value: 0.000
# Max RMSD: 0.008
# Mean RMSD: 0.008
data_MOF--net-snw--node1-OJICUG_clean_sbu_0--edge1-none
_symmetry_space_group_name_H-M    P1
_symmetry_Int_Tables_number       1
_symmetry_cell_setting            triclinic
loop_
_symmetry_equiv_pos_as_xyz
'x, y, z'
_cell_length_a     10.689841
_cell_length_b     10.689841
_cell_length_c     38.529204
_cell_angle_alpha  90.0
_cell_angle_beta   90.0
_cell_angle_gamma 90.0
loop_
_atom_site_label
_atom_site_type_symbol
_atom_site_fract_x
_atom_site_fract_y
_atom_site_fract_z
_atom_type_partial_charge
Sc0 Sc 0.15868 0.24486 0.02462 0.0
Sc1 Sc 0.83116 0.24486 0.02462 0.0
Sc2 Sc -0.00508 0.24486 0.10451 0.0
O3 O -0.00508 0.24486 0.05141 0.0
C4 C 0.21993 0.05991 0.08745 0.0
C5 C -0.00508 0.05064 -0.01931 0.0
C6 C 0.76989 0.05992 0.08745 0.0
C7 C -0.00508 0.43909 -0.01931 0.0
C8 C 0.21994 0.4298 0.08745 0.0
C9 C 0.7699 0.42981 0.08745 0.0
O10 O 0.23723 0.10012 0.05679 0.0
O11 O 0.89054 0.09658 -0.00992 0.0
O12 O 0.8528 0.1029 0.10783 0.0
O13 O 0.0993 0.39315 -0.00992 0.0
O14 O 0.13703 0.38682 0.10783 0.0
O15 O 0.75261 0.38961 0.05679 0.0
O16 O 0.23723 0.38961 0.05679 0.0
O17 O 0.89054 0.39315 -0.00992 0.0
O18 O 0.85281 0.38683 0.10783 0.0
O19 O 0.09929 0.09657 -0.00992 0.0
O20 O 0.13702 0.10289 0.10783 0.0
O21 O 0.7526 0.10012 0.05679 0.0
Sc22 Sc -0.00509 0.90862 0.27462 0.0
Sc23 Sc -0.00509 0.5811 0.27462 0.0
Sc24 Sc -0.00509 0.74486 0.35451 0.0
O25 O -0.00509 0.74486 0.30141 0.0
C26 C 0.17986 0.96988 0.33745 0.0
C27 C 0.18914 0.74486 0.23069 0.0
C28 C 0.17985 0.51983 0.33745 0.0
C29 C 0.80069 0.74486 0.23069 0.0
C30 C 0.80997 0.96989 0.33745 0.0
C31 C 0.80996 0.51984 0.33745 0.0
O32 O 0.13966 0.98717 0.30679 0.0
O33 O 0.1432 0.64048 0.24008 0.0
O34 O 0.13687 0.60275 0.35783 0.0
O35 O 0.84663 0.84924 0.24008 0.0
O36 O 0.85295 0.88698 0.35783 0.0
O37 O 0.85016 0.50255 0.30679 0.0
O38 O 0.85017 0.98717 0.30679 0.0
O39 O 0.84662 0.64049 0.24008 0.0
O40 O 0.85294 0.60276 0.35783 0.0
O41 O 0.1432 0.84924 0.24008 0.0
O42 O 0.13688 0.88697 0.35783 0.0
O43 O 0.13965 0.50255 0.30679 0.0
Sc44 Sc 0.65867 0.74486 0.52462 0.0
Sc45 Sc 0.33115 0.74486 0.52462 0.0
Sc46 Sc 0.49491 0.74486 0.60451 0.0
O47 O 0.49491 0.74486 0.55141 0.0
C48 C 0.71993 0.55992 0.58745 0.0
C49 C 0.49491 0.55064 0.48069 0.0
C50 C 0.26988 0.55992 0.58745 0.0
C51 C 0.49491 0.93909 0.48069 0.0
C52 C 0.71994 0.9298 0.58745 0.0
C53 C 0.26989 0.92981 0.58745 0.0
O54 O 0.73722 0.60012 0.55679 0.0
O55 O 0.39053 0.59658 0.49008 0.0
O56 O 0.3528 0.6029 0.60783 0.0
O57 O 0.59929 0.89315 0.49008 0.0
O58 O 0.63702 0.88682 0.60783 0.0
O59 O 0.2526 0.88961 0.55679 0.0
O60 O 0.73722 0.88961 0.55679 0.0
O61 O 0.39053 0.89315 0.49008 0.0
O62 O 0.35281 0.88683 0.60783 0.0
O63 O 0.59928 0.59657 0.49008 0.0
O64 O 0.63701 0.60289 0.60783 0.0
O65 O 0.2526 0.60012 0.55679 0.0
Sc66 Sc 0.49492 0.40862 0.77462 0.0
Sc67 Sc 0.49491 0.0811 0.77462 0.0
Sc68 Sc 0.49491 0.24486 0.85451 0.0
O69 O 0.49491 0.24486 0.80141 0.0
C70 C 0.67986 0.46988 0.83745 0.0
C71 C 0.68914 0.24486 0.73069 0.0
C72 C 0.67985 0.01983 0.83745 0.0
C73 C 0.30069 0.24486 0.73069 0.0
C74 C 0.30998 0.46989 0.83745 0.0
C75 C 0.30997 0.01984 0.83745 0.0
O76 O 0.63966 0.48717 0.80679 0.0
O77 O 0.6432 0.14048 0.74008 0.0
O78 O 0.63688 0.10275 0.85783 0.0
O79 O 0.34663 0.34924 0.74008 0.0
O80 O 0.35295 0.38698 0.85783 0.0
O81 O 0.35017 0.00255 0.80679 0.0
O82 O 0.35017 0.48717 0.80679 0.0
O83 O 0.34662 0.14049 0.74008 0.0
O84 O 0.35294 0.10276 0.85783 0.0
O85 O 0.6432 0.34924 0.74008 0.0
O86 O 0.63689 0.38697 0.85783 0.0
O87 O 0.63966 0.00255 0.80679 0.0
Sc88 Sc -0.00508 0.74486 0.83413 0.0
Sc89 Sc 0.15867 0.74486 0.91402 0.0
Sc90 Sc 0.83116 0.74486 0.91402 0.0
O91 O -0.00508 0.74486 0.88723 0.0
C92 C 0.76991 0.92982 0.85119 0.0
C93 C 0.21991 0.92983 0.85119 0.0
C94 C -0.00508 0.93909 0.95795 0.0
C95 C 0.21992 0.5599 0.85119 0.0
C96 C 0.76992 0.55989 0.85119 0.0
C97 C -0.00508 0.55064 0.95795 0.0
O98 O 0.8528 0.88683 0.83081 0.0
O99 O 0.23722 0.88961 0.88185 0.0
O100 O 0.89054 0.89315 0.94856 0.0
O101 O 0.13703 0.6029 0.83081 0.0
O102 O 0.75261 0.60012 0.88185 0.0
O103 O 0.0993 0.59658 0.94856 0.0
O104 O 0.85281 0.60289 0.83081 0.0
O105 O 0.23722 0.60012 0.88185 0.0
O106 O 0.89054 0.59657 0.94856 0.0
O107 O 0.13702 0.88684 0.83081 0.0
O108 O 0.75261 0.8896 0.88185 0.0
O109 O 0.09929 0.89315 0.94856 0.0
Sc110 Sc 0.49491 0.74486 0.08413 0.0
Sc111 Sc 0.49491 0.90862 0.16402 0.0
Sc112 Sc 0.49492 0.58111 0.16402 0.0
O113 O 0.49491 0.74486 0.13723 0.0
C114 C 0.30996 0.51986 0.10119 0.0
C115 C 0.30995 0.96986 0.10119 0.0
C116 C 0.30069 0.74486 0.20795 0.0
C117 C 0.67987 0.96987 0.10119 0.0
C118 C 0.67988 0.51987 0.10119 0.0
C119 C 0.68914 0.74486 0.20795 0.0
O120 O 0.35295 0.60274 0.08081 0.0
O121 O 0.35017 0.98716 0.13185 0.0
O122 O 0.34663 0.64048 0.19856 0.0
O123 O 0.63688 0.88698 0.08081 0.0
O124 O 0.63966 0.50256 0.13185 0.0
O125 O 0.6432 0.84924 0.19856 0.0
O126 O 0.63689 0.60276 0.08081 0.0
O127 O 0.63966 0.98717 0.13185 0.0
O128 O 0.6432 0.64049 0.19856 0.0
O129 O 0.35294 0.88697 0.08081 0.0
O130 O 0.35017 0.50256 0.13185 0.0
O131 O 0.34662 0.84924 0.19856 0.0
Sc132 Sc 0.49491 0.24486 0.33413 0.0
Sc133 Sc 0.65867 0.24486 0.41402 0.0
Sc134 Sc 0.33115 0.24486 0.41402 0.0
O135 O 0.49491 0.24486 0.38723 0.0
C136 C 0.26991 0.42982 0.35119 0.0
C137 C 0.7199 0.42983 0.35119 0.0
C138 C 0.49491 0.43909 0.45795 0.0
C139 C 0.71991 0.0599 0.35119 0.0
C140 C 0.26992 0.05989 0.35119 0.0
C141 C 0.49491 0.05064 0.45795 0.0
O142 O 0.35279 0.38683 0.33081 0.0
O143 O 0.73721 0.38961 0.38185 0.0
O144 O 0.39053 0.39315 0.44856 0.0
O145 O 0.63703 0.1029 0.33081 0.0
O146 O 0.25261 0.10012 0.38185 0.0
O147 O 0.59929 0.09658 0.44856 0.0
O148 O 0.3528 0.10289 0.33081 0.0
O149 O 0.73721 0.10012 0.38185 0.0
O150 O 0.39053 0.09657 0.44856 0.0
O151 O 0.63702 0.38684 0.33081 0.0
O152 O 0.2526 0.3896 0.38185 0.0
O153 O 0.59928 0.39315 0.44856 0.0
Sc154 Sc -0.00509 0.24486 0.58413 0.0
Sc155 Sc -0.00509 0.40862 0.66402 0.0
Sc156 Sc -0.00509 0.08111 0.66402 0.0
O157 O -0.00509 0.24486 0.63723 0.0
C158 C 0.80995 0.01986 0.60119 0.0
C159 C 0.80994 0.46986 0.60119 0.0
C160 C 0.80069 0.24486 0.70795 0.0
C161 C 0.17987 0.46987 0.60119 0.0
C162 C 0.17988 0.01987 0.60119 0.0
C163 C 0.18914 0.24486 0.70795 0.0
O164 O 0.85295 0.10274 0.58081 0.0
O165 O 0.85017 0.48717 0.63185 0.0
O166 O 0.84663 0.14048 0.69856 0.0
O167 O 0.13687 0.38698 0.58081 0.0
O168 O 0.13966 0.00256 0.63185 0.0
O169 O 0.1432 0.34924 0.69856 0.0
O170 O 0.13688 0.10276 0.58081 0.0
O171 O 0.13965 0.48717 0.63185 0.0
O172 O 0.1432 0.14049 0.69856 0.0
O173 O 0.85294 0.38697 0.58081 0.0
O174 O 0.85017 0.00256 0.63185 0.0
O175 O 0.84662 0.34924 0.69856 0.0
loop_
_geom_bond_atom_site_label_1
_geom_bond_atom_site_label_2
_geom_bond_distance
_geom_bond_site_symmetry_2
_ccdc_geom_bond_type
Sc0 O3 2.025 . S
Sc0 O10 2.105 . S
Sc0 O13 2.105 . S
Sc0 O16 2.105 . S
Sc0 O19 2.105 . S
Sc1 O3 2.025 1_655 S
Sc1 O11 2.105 . S
Sc1 O15 2.105 . S
Sc1 O17 2.105 . S
Sc1 O21 2.105 . S
Sc2 O3 2.025 . S
Sc2 O12 2.105 1_455 S
Sc2 O14 2.105 . S
Sc2 O18 2.105 1_455 S
Sc2 O20 2.105 . S
O3 Sc0 2.025 . S
O3 Sc1 2.025 1_455 S
O3 Sc2 2.025 . S
C4 O10 1.268 . S
C4 O20 1.268 . S
C5 O11 1.268 1_455 S
C5 O19 1.268 . S
C6 O12 1.268 . S
C6 O21 1.268 . S
C7 O13 1.268 . S
C7 O17 1.268 1_455 S
C8 O14 1.268 . S
C8 O16 1.268 . S
C9 O15 1.268 . S
C9 O18 1.268 . S
O10 Sc0 2.105 . S
O10 C4 1.268 . S
O11 Sc1 2.105 . S
O11 C5 1.268 1_655 S
O12 Sc2 2.105 1_655 S
O12 C6 1.268 . S
O13 Sc0 2.105 . S
O13 C7 1.268 . S
O14 Sc2 2.105 . S
O14 C8 1.268 . S
O15 Sc1 2.105 . S
O15 C9 1.268 . S
O16 Sc0 2.105 . S
O16 C8 1.268 . S
O17 Sc1 2.105 . S
O17 C7 1.268 1_655 S
O18 Sc2 2.105 1_655 S
O18 C9 1.268 . S
O19 Sc0 2.105 . S
O19 C5 1.268 . S
O20 Sc2 2.105 . S
O20 C4 1.268 . S
O21 Sc1 2.105 . S
O21 C6 1.268 . S
Sc22 O25 2.025 . S
Sc22 O32 2.105 . S
Sc22 O35 2.105 1_455 S
Sc22 O38 2.105 1_455 S
Sc22 O41 2.105 . S
Sc23 O25 2.025 . S
Sc23 O33 2.105 . S
Sc23 O37 2.105 1_455 S
Sc23 O39 2.105 1_455 S
Sc23 O43 2.105 . S
Sc24 O25 2.025 . S
Sc24 O34 2.105 . S
Sc24 O36 2.105 1_455 S
Sc24 O40 2.105 1_455 S
Sc24 O42 2.105 . S
O25 Sc22 2.025 . S
O25 Sc23 2.025 . S
O25 Sc24 2.025 . S
C26 O32 1.268 . S
C26 O42 1.268 . S
C27 O33 1.268 . S
C27 O41 1.268 . S
C28 O34 1.268 . S
C28 O43 1.268 . S
C29 O35 1.268 . S
C29 O39 1.268 . S
C30 O36 1.268 . S
C30 O38 1.268 . S
C31 O37 1.268 . S
C31 O40 1.268 . S
O32 Sc22 2.105 . S
O32 C26 1.268 . S
O33 Sc23 2.105 . S
O33 C27 1.268 . S
O34 Sc24 2.105 . S
O34 C28 1.268 . S
O35 Sc22 2.105 1_655 S
O35 C29 1.268 . S
O36 Sc24 2.105 1_655 S
O36 C30 1.268 . S
O37 Sc23 2.105 1_655 S
O37 C31 1.268 . S
O38 Sc22 2.105 1_655 S
O38 C30 1.268 . S
O39 Sc23 2.105 1_655 S
O39 C29 1.268 . S
O40 Sc24 2.105 1_655 S
O40 C31 1.268 . S
O41 Sc22 2.105 . S
O41 C27 1.268 . S
O42 Sc24 2.105 . S
O42 C26 1.268 . S
O43 Sc23 2.105 . S
O43 C28 1.268 . S
Sc44 O47 2.025 . S
Sc44 O54 2.105 . S
Sc44 O57 2.105 . S
Sc44 O60 2.105 . S
Sc44 O63 2.105 . S
Sc45 O47 2.025 . S
Sc45 O55 2.105 . S
Sc45 O59 2.105 . S
Sc45 O61 2.105 . S
Sc45 O65 2.105 . S
Sc46 O47 2.025 . S
Sc46 O56 2.105 . S
Sc46 O58 2.105 . S
Sc46 O62 2.105 . S
Sc46 O64 2.105 . S
O47 Sc44 2.025 . S
O47 Sc45 2.025 . S
O47 Sc46 2.025 . S
C48 O54 1.268 . S
C48 O64 1.268 . S
C49 O55 1.268 . S
C49 O63 1.268 . S
C50 O56 1.268 . S
C50 O65 1.268 . S
C51 O57 1.268 . S
C51 O61 1.268 . S
C52 O58 1.268 . S
C52 O60 1.268 . S
C53 O59 1.268 . S
C53 O62 1.268 . S
O54 Sc44 2.105 . S
O54 C48 1.268 . S
O55 Sc45 2.105 . S
O55 C49 1.268 . S
O56 Sc46 2.105 . S
O56 C50 1.268 . S
O57 Sc44 2.105 . S
O57 C51 1.268 . S
O58 Sc46 2.105 . S
O58 C52 1.268 . S
O59 Sc45 2.105 . S
O59 C53 1.268 . S
O60 Sc44 2.105 . S
O60 C52 1.268 . S
O61 Sc45 2.105 . S
O61 C51 1.268 . S
O62 Sc46 2.105 . S
O62 C53 1.268 . S
O63 Sc44 2.105 . S
O63 C49 1.268 . S
O64 Sc46 2.105 . S
O64 C48 1.268 . S
O65 Sc45 2.105 . S
O65 C50 1.268 . S
Sc66 O69 2.025 . S
Sc66 O76 2.105 . S
Sc66 O79 2.105 . S
Sc66 O82 2.105 . S
Sc66 O85 2.105 . S
Sc67 O69 2.025 . S
Sc67 O77 2.105 . S
Sc67 O81 2.105 . S
Sc67 O83 2.105 . S
Sc67 O87 2.105 . S
Sc68 O69 2.025 . S
Sc68 O78 2.105 . S
Sc68 O80 2.105 . S
Sc68 O84 2.105 . S
Sc68 O86 2.105 . S
O69 Sc66 2.025 . S
O69 Sc67 2.025 . S
O69 Sc68 2.025 . S
C70 O76 1.268 . S
C70 O86 1.268 . S
C71 O77 1.268 . S
C71 O85 1.268 . S
C72 O78 1.268 . S
C72 O87 1.268 . S
C73 O79 1.268 . S
C73 O83 1.268 . S
C74 O80 1.268 . S
C74 O82 1.268 . S
C75 O81 1.268 . S
C75 O84 1.268 . S
O76 Sc66 2.105 . S
O76 C70 1.268 . S
O77 Sc67 2.105 . S
O77 C71 1.268 . S
O78 Sc68 2.105 . S
O78 C72 1.268 . S
O79 Sc66 2.105 . S
O79 C73 1.268 . S
O80 Sc68 2.105 . S
O80 C74 1.268 . S
O81 Sc67 2.105 . S
O81 C75 1.268 . S
O82 Sc66 2.105 . S
O82 C74 1.268 . S
O83 Sc67 2.105 . S
O83 C73 1.268 . S
O84 Sc68 2.105 . S
O84 C75 1.268 . S
O85 Sc66 2.105 . S
O85 C71 1.268 . S
O86 Sc68 2.105 . S
O86 C70 1.268 . S
O87 Sc67 2.105 . S
O87 C72 1.268 . S
Sc88 O91 2.025 . S
Sc88 O98 2.105 1_455 S
Sc88 O101 2.105 . S
Sc88 O104 2.105 1_455 S
Sc88 O107 2.105 . S
Sc89 O91 2.025 . S
Sc89 O99 2.105 . S
Sc89 O103 2.105 . S
Sc89 O105 2.105 . S
Sc89 O109 2.105 . S
Sc90 O91 2.025 1_655 S
Sc90 O100 2.105 . S
Sc90 O102 2.105 . S
Sc90 O106 2.105 . S
Sc90 O108 2.105 . S
O91 Sc88 2.025 . S
O91 Sc89 2.025 . S
O91 Sc90 2.025 1_455 S
C92 O98 1.268 . S
C92 O108 1.268 . S
C93 O99 1.268 . S
C93 O107 1.268 . S
C94 O100 1.268 1_455 S
C94 O109 1.268 . S
C95 O101 1.268 . S
C95 O105 1.268 . S
C96 O102 1.268 . S
C96 O104 1.268 . S
C97 O103 1.268 . S
C97 O106 1.268 1_455 S
O98 Sc88 2.105 1_655 S
O98 C92 1.268 . S
O99 Sc89 2.105 . S
O99 C93 1.268 . S
O100 Sc90 2.105 . S
O100 C94 1.268 1_655 S
O101 Sc88 2.105 . S
O101 C95 1.268 . S
O102 Sc90 2.105 . S
O102 C96 1.268 . S
O103 Sc89 2.105 . S
O103 C97 1.268 . S
O104 Sc88 2.105 1_655 S
O104 C96 1.268 . S
O105 Sc89 2.105 . S
O105 C95 1.268 . S
O106 Sc90 2.105 . S
O106 C97 1.268 1_655 S
O107 Sc88 2.105 . S
O107 C93 1.268 . S
O108 Sc90 2.105 . S
O108 C92 1.268 . S
O109 Sc89 2.105 . S
O109 C94 1.268 . S
Sc110 O113 2.025 . S
Sc110 O120 2.105 . S
Sc110 O123 2.105 . S
Sc110 O126 2.105 . S
Sc110 O129 2.105 . S
Sc111 O113 2.025 . S
Sc111 O121 2.105 . S
Sc111 O125 2.105 . S
Sc111 O127 2.105 . S
Sc111 O131 2.105 . S
Sc112 O113 2.025 . S
Sc112 O122 2.105 . S
Sc112 O124 2.105 . S
Sc112 O128 2.105 . S
Sc112 O130 2.105 . S
O113 Sc110 2.025 . S
O113 Sc111 2.025 . S
O113 Sc112 2.025 . S
C114 O120 1.268 . S
C114 O130 1.268 . S
C115 O121 1.268 . S
C115 O129 1.268 . S
C116 O122 1.268 . S
C116 O131 1.268 . S
C117 O123 1.268 . S
C117 O127 1.268 . S
C118 O124 1.268 . S
C118 O126 1.268 . S
C119 O125 1.268 . S
C119 O128 1.268 . S
O120 Sc110 2.105 . S
O120 C114 1.268 . S
O121 Sc111 2.105 . S
O121 C115 1.268 . S
O122 Sc112 2.105 . S
O122 C116 1.268 . S
O123 Sc110 2.105 . S
O123 C117 1.268 . S
O124 Sc112 2.105 . S
O124 C118 1.268 . S
O125 Sc111 2.105 . S
O125 C119 1.268 . S
O126 Sc110 2.105 . S
O126 C118 1.268 . S
O127 Sc111 2.105 . S
O127 C117 1.268 . S
O128 Sc112 2.105 . S
O128 C119 1.268 . S
O129 Sc110 2.105 . S
O129 C115 1.268 . S
O130 Sc112 2.105 . S
O130 C114 1.268 . S
O131 Sc111 2.105 . S
O131 C116 1.268 . S
Sc132 O135 2.025 . S
Sc132 O142 2.105 . S
Sc132 O145 2.105 . S
Sc132 O148 2.105 . S
Sc132 O151 2.105 . S
Sc133 O135 2.025 . S
Sc133 O143 2.105 . S
Sc133 O147 2.105 . S
Sc133 O149 2.105 . S
Sc133 O153 2.105 . S
Sc134 O135 2.025 . S
Sc134 O144 2.105 . S
Sc134 O146 2.105 . S
Sc134 O150 2.105 . S
Sc134 O152 2.105 . S
O135 Sc132 2.025 . S
O135 Sc133 2.025 . S
O135 Sc134 2.025 . S
C136 O142 1.268 . S
C136 O152 1.268 . S
C137 O143 1.268 . S
C137 O151 1.268 . S
C138 O144 1.268 . S
C138 O153 1.268 . S
C139 O145 1.268 . S
C139 O149 1.268 . S
C140 O146 1.268 . S
C140 O148 1.268 . S
C141 O147 1.268 . S
C141 O150 1.268 . S
O142 Sc132 2.105 . S
O142 C136 1.268 . S
O143 Sc133 2.105 . S
O143 C137 1.268 . S
O144 Sc134 2.105 . S
O144 C138 1.268 . S
O145 Sc132 2.105 . S
O145 C139 1.268 . S
O146 Sc134 2.105 . S
O146 C140 1.268 . S
O147 Sc133 2.105 . S
O147 C141 1.268 . S
O148 Sc132 2.105 . S
O148 C140 1.268 . S
O149 Sc133 2.105 . S
O149 C139 1.268 . S
O150 Sc134 2.105 . S
O150 C141 1.268 . S
O151 Sc132 2.105 . S
O151 C137 1.268 . S
O152 Sc134 2.105 . S
O152 C136 1.268 . S
O153 Sc133 2.105 . S
O153 C138 1.268 . S
Sc154 O157 2.025 . S
Sc154 O164 2.105 1_455 S
Sc154 O167 2.105 . S
Sc154 O170 2.105 . S
Sc154 O173 2.105 1_455 S
Sc155 O157 2.025 . S
Sc155 O165 2.105 1_455 S
Sc155 O169 2.105 . S
Sc155 O171 2.105 . S
Sc155 O175 2.105 1_455 S
Sc156 O157 2.025 . S
Sc156 O166 2.105 1_455 S
Sc156 O168 2.105 . S
Sc156 O172 2.105 . S
Sc156 O174 2.105 1_455 S
O157 Sc154 2.025 . S
O157 Sc155 2.025 . S
O157 Sc156 2.025 . S
C158 O164 1.268 . S
C158 O174 1.268 . S
C159 O165 1.268 . S
C159 O173 1.268 . S
C160 O166 1.268 . S
C160 O175 1.268 . S
C161 O167 1.268 . S
C161 O171 1.268 . S
C162 O168 1.268 . S
C162 O170 1.268 . S
C163 O169 1.268 . S
C163 O172 1.268 . S
O164 Sc154 2.105 1_655 S
O164 C158 1.268 . S
O165 Sc155 2.105 1_655 S
O165 C159 1.268 . S
O166 Sc156 2.105 1_655 S
O166 C160 1.268 . S
O167 Sc154 2.105 . S
O167 C161 1.268 . S
O168 Sc156 2.105 . S
O168 C162 1.268 . S
O169 Sc155 2.105 . S
O169 C163 1.268 . S
O170 Sc154 2.105 . S
O170 C162 1.268 . S
O171 Sc155 2.105 . S
O171 C161 1.268 . S
O172 Sc156 2.105 . S
O172 C163 1.268 . S
O173 Sc154 2.105 1_655 S
O173 C159 1.268 . S
O174 Sc156 2.105 1_655 S
O174 C158 1.268 . S
O175 Sc155 2.105 1_655 S
O175 C160 1.268 . S
C7 C97 1.474 1_554 S
C119 C29 1.475 . S
C49 C138 1.474 . S
C71 C160 1.475 . S
C73 C163 1.473 . S
C116 C27 1.473 . S
C141 C51 1.474 1_545 S
C5 C94 1.474 1_544 S
C115 C4 1.447 1_565 S
C26 C140 1.447 1_565 S
C162 C53 1.447 1_545 S
C93 C75 1.447 1_565 S
C92 C72 1.448 1_565 S
C158 C52 1.448 1_545 S
C30 C139 1.448 1_565 S
C117 C6 1.448 1_565 S
C159 C48 1.448 . S
C96 C70 1.448 . S
C118 C9 1.448 . S
C31 C137 1.448 . S
C136 C28 1.447 . S
C8 C114 1.447 . S
C95 C74 1.447 . S
C161 C50 1.447 . S
