# Generated by pormake.
# Topology acs, (6)-cn, num edge types: 1
# Building blocks:
#     Node 0, Type 0, BuildingBlock: OJICUG_clean_sbu_0, # of connection points: 6
#     Node 1, Type 0, BuildingBlock: OJICUG_clean_sbu_0, # of connection points: 6
#     Edge 2, Type (0, 0), BuildingBlock: OJICUG_clean_linker_0, # of connection points: 2
#     Edge 3, Type (0, 0), BuildingBlock: OJICUG_clean_linker_0, # of connection points: 2
#     Edge 4, Type (0, 0), BuildingBlock: OJICUG_clean_linker_0, # of connection points: 2
#     Edge 5, Type (0, 0), BuildingBlock: OJICUG_clean_linker_0, # of connection points: 2
#     Edge 6, Type (0, 0), BuildingBlock: OJICUG_clean_linker_0, # of connection points: 2
#     Edge 7, Type (0, 0), BuildingBlock: OJICUG_clean_linker_0, # of connection points: 2
# Relax obj value: 0.000
# Max RMSD: 0.000
# Mean RMSD: 0.000
data_MOF--net-acs--node1-OJICUG_clean_sbu_0--edge1-OJICUG_clean_linker_0
_symmetry_space_group_name_H-M    P1
_symmetry_Int_Tables_number       1
_symmetry_cell_setting            triclinic
loop_
_symmetry_equiv_pos_as_xyz
'x, y, z'
_cell_length_a     16.202531
_cell_length_b     16.20486
_cell_length_c     16.777168
_cell_angle_alpha  90.002335
_cell_angle_beta   89.996067
_cell_angle_gamma 119.9676
loop_
_atom_site_label
_atom_site_type_symbol
_atom_site_fract_x
_atom_site_fract_y
_atom_site_fract_z
_atom_type_partial_charge
Sc0 Sc 0.72911 0.47149 0.23634 0.0
Sc1 Sc 0.51149 0.2539 0.23635 0.0
Sc2 Sc 0.7292 0.25383 0.23634 0.0
O3 O 0.6566 0.3264 0.23635 0.0
C4 C 0.85413 0.42512 0.11667 0.0
C5 C 0.55782 0.42521 0.11668 0.0
C6 C 0.55786 0.12891 0.11667 0.0
C7 C 0.55778 0.42517 0.35601 0.0
C8 C 0.85412 0.42516 0.35602 0.0
C9 C 0.55789 0.1289 0.35602 0.0
O10 O 0.82561 0.47973 0.14413 0.0
O11 O 0.50321 0.34213 0.14412 0.0
O12 O 0.64097 0.15735 0.1441 0.0
O13 O 0.64087 0.47977 0.32856 0.0
O14 O 0.82568 0.34206 0.32859 0.0
O15 O 0.50326 0.15741 0.32857 0.0
O16 O 0.82547 0.47971 0.32868 0.0
O17 O 0.50323 0.34201 0.32869 0.0
O18 O 0.64108 0.15749 0.3287 0.0
O19 O 0.64099 0.47975 0.14401 0.0
O20 O 0.82555 0.34194 0.14399 0.0
O21 O 0.50329 0.15755 0.14401 0.0
Sc22 Sc 0.25072 0.51474 0.73635 0.0
Sc23 Sc 0.46834 0.73234 0.73634 0.0
Sc24 Sc 0.25064 0.7324 0.73635 0.0
O25 O 0.32323 0.65983 0.73635 0.0
C26 C 0.12571 0.56107 0.61667 0.0
C27 C 0.42205 0.56106 0.61668 0.0
C28 C 0.42195 0.85733 0.61667 0.0
C29 C 0.42201 0.56102 0.85601 0.0
C30 C 0.12571 0.56112 0.85602 0.0
C31 C 0.42198 0.85733 0.85602 0.0
O32 O 0.15437 0.50652 0.64401 0.0
O33 O 0.4766 0.64423 0.644 0.0
O34 O 0.33875 0.82874 0.64399 0.0
O35 O 0.33884 0.50649 0.82868 0.0
O36 O 0.15429 0.64429 0.8287 0.0
O37 O 0.47655 0.82868 0.82868 0.0
O38 O 0.15422 0.5065 0.82856 0.0
O39 O 0.47662 0.64411 0.82857 0.0
O40 O 0.33886 0.82888 0.82859 0.0
O41 O 0.33896 0.50646 0.64413 0.0
O42 O 0.15416 0.64418 0.6441 0.0
O43 O 0.47658 0.82882 0.64412 0.0
C44 C 0.54807 0.96006 0.95514 0.0
C45 C 0.45674 0.92683 0.92273 0.0
H46 H 0.65154 0.04944 0.04126 0.0
C47 C 0.39902 0.96073 0.95477 0.0
H48 H 0.59458 0.93559 0.9321 0.0
C49 C 0.43177 0.02617 0.01755 0.0
C50 C 0.52309 0.05941 0.04996 0.0
H51 H 0.32829 0.9368 0.93143 0.0
H52 H 0.38525 0.05064 0.0406 0.0
C53 C 0.58082 0.02551 0.01792 0.0
C54 C 0.54802 0.58434 0.51742 0.0
C55 C 0.45679 0.52629 0.54997 0.0
H56 H 0.65137 0.59837 0.43116 0.0
C57 C 0.39911 0.43464 0.51807 0.0
H58 H 0.59448 0.65534 0.54035 0.0
C59 C 0.43182 0.40189 0.45527 0.0
C60 C 0.52304 0.45995 0.42272 0.0
H61 H 0.32846 0.38787 0.54153 0.0
H62 H 0.38535 0.3309 0.43234 0.0
C63 C 0.58072 0.55159 0.45462 0.0
C64 C 0.95748 0.55155 0.01804 0.0
C65 C 0.92363 0.45991 0.04997 0.0
H66 H 0.04735 0.65531 0.93231 0.0
C67 C 0.95691 0.4019 0.01743 0.0
H68 H 0.93351 0.59829 0.04149 0.0
C69 C 0.02236 0.43468 0.95465 0.0
C70 C 0.0562 0.52632 0.92272 0.0
H71 H 0.93248 0.33092 0.04038 0.0
H72 H 0.04632 0.38794 0.9312 0.0
C73 C 0.02292 0.58433 0.95526 0.0
C74 C 0.39873 0.96018 0.51751 0.0
C75 C 0.45673 0.92683 0.54996 0.0
H76 H 0.38476 0.04964 0.43135 0.0
C77 C 0.54834 0.96061 0.51796 0.0
H78 H 0.32777 0.9358 0.54052 0.0
C79 C 0.5811 0.02606 0.45518 0.0
C80 C 0.5231 0.0594 0.42273 0.0
H81 H 0.59507 0.9366 0.54134 0.0
H82 H 0.65206 0.05044 0.43217 0.0
C83 C 0.4315 0.02562 0.45473 0.0
C84 C 0.54838 0.58396 0.95471 0.0
C85 C 0.45677 0.52627 0.92272 0.0
H86 H 0.65207 0.59771 0.0405 0.0
C87 C 0.39873 0.435 0.95519 0.0
H88 H 0.59514 0.65464 0.93131 0.0
C89 C 0.43146 0.40227 0.01798 0.0
C90 C 0.52306 0.45997 0.04997 0.0
H91 H 0.32776 0.38852 0.9322 0.0
H92 H 0.3847 0.33159 0.04138 0.0
C93 C 0.5811 0.55123 0.0175 0.0
C94 C 0.02293 0.43496 0.5176 0.0
C95 C 0.05621 0.5263 0.54996 0.0
H96 H 0.93351 0.33146 0.4315 0.0
C97 C 0.02235 0.58403 0.51788 0.0
H98 H 0.04736 0.38844 0.54067 0.0
C99 C 0.9569 0.55127 0.4551 0.0
C100 C 0.92362 0.45994 0.42273 0.0
H101 H 0.04632 0.65477 0.54119 0.0
H102 H 0.93247 0.59779 0.43202 0.0
C103 C 0.95748 0.4022 0.45481 0.0
loop_
_geom_bond_atom_site_label_1
_geom_bond_atom_site_label_2
_geom_bond_distance
_geom_bond_site_symmetry_2
_ccdc_geom_bond_type
Sc0 O3 2.025 . S
Sc0 O10 2.105 . S
Sc0 O13 2.105 . S
Sc0 O16 2.105 . S
Sc0 O19 2.105 . S
Sc1 O3 2.025 . S
Sc1 O11 2.105 . S
Sc1 O15 2.105 . S
Sc1 O17 2.105 . S
Sc1 O21 2.105 . S
Sc2 O3 2.025 . S
Sc2 O12 2.105 . S
Sc2 O14 2.105 . S
Sc2 O18 2.105 . S
Sc2 O20 2.105 . S
O3 Sc0 2.025 . S
O3 Sc1 2.025 . S
O3 Sc2 2.025 . S
C4 O10 1.268 . S
C4 O20 1.268 . S
C5 O11 1.268 . S
C5 O19 1.268 . S
C6 O12 1.268 . S
C6 O21 1.268 . S
C7 O13 1.268 . S
C7 O17 1.268 . S
C8 O14 1.268 . S
C8 O16 1.268 . S
C9 O15 1.268 . S
C9 O18 1.268 . S
O10 Sc0 2.105 . S
O10 C4 1.268 . S
O11 Sc1 2.105 . S
O11 C5 1.268 . S
O12 Sc2 2.105 . S
O12 C6 1.268 . S
O13 Sc0 2.105 . S
O13 C7 1.268 . S
O14 Sc2 2.105 . S
O14 C8 1.268 . S
O15 Sc1 2.105 . S
O15 C9 1.268 . S
O16 Sc0 2.105 . S
O16 C8 1.268 . S
O17 Sc1 2.105 . S
O17 C7 1.268 . S
O18 Sc2 2.105 . S
O18 C9 1.268 . S
O19 Sc0 2.105 . S
O19 C5 1.268 . S
O20 Sc2 2.105 . S
O20 C4 1.268 . S
O21 Sc1 2.105 . S
O21 C6 1.268 . S
Sc22 O25 2.025 . S
Sc22 O32 2.105 . S
Sc22 O35 2.105 . S
Sc22 O38 2.105 . S
Sc22 O41 2.105 . S
Sc23 O25 2.025 . S
Sc23 O33 2.105 . S
Sc23 O37 2.105 . S
Sc23 O39 2.105 . S
Sc23 O43 2.105 . S
Sc24 O25 2.025 . S
Sc24 O34 2.105 . S
Sc24 O36 2.105 . S
Sc24 O40 2.105 . S
Sc24 O42 2.105 . S
O25 Sc22 2.025 . S
O25 Sc23 2.025 . S
O25 Sc24 2.025 . S
C26 O32 1.268 . S
C26 O42 1.268 . S
C27 O33 1.268 . S
C27 O41 1.268 . S
C28 O34 1.268 . S
C28 O43 1.268 . S
C29 O35 1.268 . S
C29 O39 1.268 . S
C30 O36 1.268 . S
C30 O38 1.268 . S
C31 O37 1.268 . S
C31 O40 1.268 . S
O32 Sc22 2.105 . S
O32 C26 1.268 . S
O33 Sc23 2.105 . S
O33 C27 1.268 . S
O34 Sc24 2.105 . S
O34 C28 1.268 . S
O35 Sc22 2.105 . S
O35 C29 1.268 . S
O36 Sc24 2.105 . S
O36 C30 1.268 . S
O37 Sc23 2.105 . S
O37 C31 1.268 . S
O38 Sc22 2.105 . S
O38 C30 1.268 . S
O39 Sc23 2.105 . S
O39 C29 1.268 . S
O40 Sc24 2.105 . S
O40 C31 1.268 . S
O41 Sc22 2.105 . S
O41 C27 1.268 . S
O42 Sc24 2.105 . S
O42 C26 1.268 . S
O43 Sc23 2.105 . S
O43 C28 1.268 . S
C44 C45 1.387 . S
C44 H48 0.950 . S
C44 C53 1.390 1_566 S
C45 C44 1.387 . S
C45 C47 1.387 . S
H46 C53 0.950 . S
C47 C45 1.387 . S
C47 C49 1.390 1_566 S
C47 H51 0.950 . S
H48 C44 0.950 . S
C49 C47 1.390 1_544 S
C49 C50 1.387 . S
C49 H52 0.950 . S
C50 C49 1.387 . S
C50 C53 1.387 . S
H51 C47 0.950 . S
H52 C49 0.950 . S
C53 C44 1.390 1_544 S
C53 H46 0.950 . S
C53 C50 1.387 . S
C54 C55 1.387 . S
C54 H58 0.950 . S
C54 C63 1.390 . S
C55 C54 1.387 . S
C55 C57 1.387 . S
H56 C63 0.950 . S
C57 C55 1.387 . S
C57 C59 1.390 . S
C57 H61 0.950 . S
H58 C54 0.950 . S
C59 C57 1.390 . S
C59 C60 1.387 . S
C59 H62 0.950 . S
C60 C59 1.387 . S
C60 C63 1.387 . S
H61 C57 0.950 . S
H62 C59 0.950 . S
C63 C54 1.390 . S
C63 H56 0.950 . S
C63 C60 1.387 . S
C64 C65 1.387 1_455 S
C64 H68 0.950 . S
C64 C73 1.390 . S
C65 C64 1.387 1_655 S
C65 C67 1.387 1_554 S
H66 C73 0.950 . S
C67 C65 1.387 1_556 S
C67 C69 1.390 . S
C67 H71 0.950 . S
H68 C64 0.950 . S
C69 C67 1.390 . S
C69 C70 1.387 1_655 S
C69 H72 0.950 . S
C70 C69 1.387 1_455 S
C70 C73 1.387 1_556 S
H71 C67 0.950 . S
H72 C69 0.950 . S
C73 C64 1.390 . S
C73 H66 0.950 . S
C73 C70 1.387 1_554 S
C74 C75 1.387 . S
C74 H78 0.950 . S
C74 C83 1.390 1_565 S
C75 C74 1.387 . S
C75 C77 1.387 . S
H76 C83 0.950 . S
C77 C75 1.387 . S
C77 C79 1.390 1_565 S
C77 H81 0.950 . S
H78 C74 0.950 . S
C79 C77 1.390 1_545 S
C79 C80 1.387 . S
C79 H82 0.950 . S
C80 C79 1.387 . S
C80 C83 1.387 . S
H81 C77 0.950 . S
H82 C79 0.950 . S
C83 C74 1.390 1_545 S
C83 H76 0.950 . S
C83 C80 1.387 . S
C84 C85 1.387 . S
C84 H88 0.950 . S
C84 C93 1.390 1_556 S
C85 C84 1.387 . S
C85 C87 1.387 . S
H86 C93 0.950 . S
C87 C85 1.387 . S
C87 C89 1.390 1_556 S
C87 H91 0.950 . S
H88 C84 0.950 . S
C89 C87 1.390 1_554 S
C89 C90 1.387 . S
C89 H92 0.950 . S
C90 C89 1.387 . S
C90 C93 1.387 . S
H91 C87 0.950 . S
H92 C89 0.950 . S
C93 C84 1.390 1_554 S
C93 H86 0.950 . S
C93 C90 1.387 . S
C94 C95 1.387 1_655 S
C94 H98 0.950 . S
C94 C103 1.390 . S
C95 C94 1.387 1_455 S
C95 C97 1.387 . S
H96 C103 0.950 . S
C97 C95 1.387 . S
C97 C99 1.390 . S
C97 H101 0.950 . S
H98 C94 0.950 . S
C99 C97 1.390 . S
C99 C100 1.387 1_455 S
C99 H102 0.950 . S
C100 C99 1.387 1_655 S
C100 C103 1.387 . S
H101 C97 0.950 . S
H102 C99 0.950 . S
C103 C94 1.390 . S
C103 H96 0.950 . S
C103 C100 1.387 . S
C45 C31 1.481 . S
C50 C6 1.481 . S
C55 C27 1.480 . S
C60 C7 1.480 . S
C65 C4 1.481 . S
C70 C30 1.481 . S
C75 C28 1.481 . S
C80 C9 1.481 . S
C85 C29 1.479 . S
C90 C5 1.479 . S
C95 C26 1.480 . S
C100 C8 1.480 . S
