# Generated by pormake.
# Topology pcu, (6)-cn, num edge types: 1
# Building blocks:
#     Node 0, Type 0, BuildingBlock: KUMBUR_clean_sbu_1, # of connection points: 6
#     Edge 1, Type (0, 0), BuildingBlock: OJICUG_clean_linker_0, # of connection points: 2
#     Edge 2, Type (0, 0), BuildingBlock: OJICUG_clean_linker_0, # of connection points: 2
#     Edge 3, Type (0, 0), BuildingBlock: OJICUG_clean_linker_0, # of connection points: 2
# Relax obj value: 0.000
# Max RMSD: 0.000
# Mean RMSD: 0.000
data_MOF--net-pcu--node1-KUMBUR_clean_sbu_1--edge1-OJICUG_clean_linker_0
_symmetry_space_group_name_H-M    P1
_symmetry_Int_Tables_number       1
_symmetry_cell_setting            triclinic
loop_
_symmetry_equiv_pos_as_xyz
'x, y, z'
_cell_length_a     10.724758
_cell_length_b     20.278135
_cell_length_c     10.726452
_cell_angle_alpha  113.38301
_cell_angle_beta   90.085564
_cell_angle_gamma 114.51109
loop_
_atom_site_label
_atom_site_type_symbol
_atom_site_fract_x
_atom_site_fract_y
_atom_site_fract_z
_atom_type_partial_charge
Tb0 Tb 0.938 0.89946 0.90457 0.0
C1 C 0.44467 0.23591 0.25401 0.0
N2 N 0.31503 0.20536 0.28253 0.0
C3 C 0.41612 0.2545 0.5204 0.0
C4 C 0.56585 0.27561 0.3576 0.0
C5 C 0.29912 0.21458 0.41378 0.0
C6 C 0.55015 0.28484 0.49218 0.0
C7 C 0.58808 0.25272 0.08402 0.0
C8 C 0.45531 0.2244 0.11879 0.0
C9 C 0.7092 0.29213 0.18667 0.0
C10 C 0.6982 0.30383 0.32321 0.0
Tb11 Tb 0.13163 0.14383 0.10185 0.0
N12 N 0.33553 0.18483 0.02145 0.0
C13 C 0.59512 0.24108 0.94728 0.0
C14 C 0.34298 0.18027 0.89135 0.0
C15 C 0.47211 0.20591 0.85119 0.0
H16 H 0.19614 0.19331 0.4373 0.0
H17 H 0.47681 0.19978 0.74664 0.0
H18 H 0.87353 0.84999 0.56912 0.0
H19 H 0.59278 0.84355 0.25976 0.0
H20 H 0.25132 0.15985 0.81877 0.0
H21 H 0.69476 0.26079 0.91567 0.0
H22 H 0.81829 0.88347 0.18765 0.0
H23 H 0.40268 0.26238 0.62447 0.0
H24 H 0.81179 0.31415 0.16159 0.0
H25 H 0.79264 0.33444 0.4012 0.0
H26 H 0.66701 0.78094 0.38194 0.0
H27 H 0.64059 0.31534 0.57487 0.0
H28 H 0.37485 0.78253 0.0907 0.0
N29 N 0.75462 0.83794 0.72388 0.0
C30 C 0.62498 0.80738 0.75238 0.0
C31 C 0.65356 0.78881 0.486 0.0
C32 C 0.5038 0.7677 0.64879 0.0
C33 C 0.77055 0.82872 0.59263 0.0
C34 C 0.51952 0.75848 0.51421 0.0
N35 N 0.73409 0.85843 0.98493 0.0
C36 C 0.72663 0.86304 0.11506 0.0
C37 C 0.48155 0.79058 0.92236 0.0
C38 C 0.61432 0.81889 0.8876 0.0
C39 C 0.47449 0.80223 0.05909 0.0
C40 C 0.5975 0.8374 0.1552 0.0
H41 H 0.42909 0.72799 0.43151 0.0
H42 H 0.27701 0.70889 0.60517 0.0
H43 H 0.25783 0.72917 0.84478 0.0
O44 O 0.95573 0.81261 0.95844 0.0
O45 O 0.81875 0.96489 0.89998 0.0
O46 O 0.9101 0.08082 0.1055 0.0
O47 O 0.92884 0.79471 0.74461 0.0
O48 O 1.03095 0.95897 0.12739 0.0
O49 O 1.01582 0.07942 0.21873 0.0
O50 O 0.11392 0.23068 0.04799 0.0
O51 O 0.25088 0.07841 0.10646 0.0
O52 O 0.15954 0.96248 0.90093 0.0
O53 O 0.14081 0.24859 0.26182 0.0
O54 O 0.03868 0.08433 0.87903 0.0
O55 O 0.05382 0.96388 0.7877 0.0
C56 C 0.80639 0.02387 1.00111 0.0
C57 C 0.94236 0.68611 0.7779 0.0
C58 C 0.96909 0.58155 0.81926 0.0
C59 C 0.93986 0.53452 0.67504 0.0
C60 C 0.9139 0.63762 0.63446 0.0
C61 C 0.91217 0.56237 0.5838 0.0
C62 C 0.96951 0.6576 0.87007 0.0
C63 C 1.02858 1.0207 0.2327 0.0
C64 C 0.94174 0.76546 0.82874 0.0
C65 C 0.37144 0.73949 0.68316 0.0
C66 C 0.36044 0.75118 0.8197 0.0
C67 C 0.26324 1.01942 0.00533 0.0
C68 C 0.12731 0.35719 0.22853 0.0
C69 C 0.10057 0.46175 0.18717 0.0
C70 C 0.12981 0.50878 0.33139 0.0
C71 C 0.15577 0.40568 0.37197 0.0
C72 C 0.10015 0.38571 0.13636 0.0
C73 C 0.1575 0.48093 0.42263 0.0
C74 C 0.04105 0.0226 0.77372 0.0
C75 C 0.12791 0.27784 0.17769 0.0
H76 H 0.94056 0.47653 0.63221 0.0
H77 H 0.89218 0.65762 0.56088 0.0
H78 H 0.8897 0.5255 0.47311 0.0
H79 H 0.99023 0.69429 0.98077 0.0
H80 H 0.12912 0.56678 0.37422 0.0
H81 H 0.17749 0.38568 0.44555 0.0
H82 H 0.07943 0.34901 0.02566 0.0
H83 H 0.17997 0.51781 0.53332 0.0
C84 C 0.98302 0.06799 0.47426 0.0
C85 C 1.03243 1.02152 0.37142 0.0
H86 H 0.94668 0.10461 0.68169 0.0
C87 C 0.08383 0.97498 0.40164 0.0
H88 H 0.94134 0.10385 0.45373 0.0
C89 C 0.08662 0.97531 0.53216 0.0
C90 C 0.03721 0.02178 0.63501 0.0
H91 H 0.12296 0.93869 0.32473 0.0
H92 H 0.1283 0.93945 0.5527 0.0
C93 C 0.98581 0.06832 0.60479 0.0
C94 C 0.5044 0.06511 0.12676 0.0
C95 C 0.40174 1.01997 0.00457 0.0
H96 H 0.71267 0.10217 0.22152 0.0
C97 C 0.43338 0.97616 0.88111 0.0
H98 H 0.48251 0.09825 0.22408 0.0
C99 C 0.56523 0.97819 0.87968 0.0
C100 C 0.6679 0.02333 1.00187 0.0
H101 H 0.35697 0.94112 0.78492 0.0
H102 H 0.58713 0.94505 0.78236 0.0
C103 C 0.63626 0.06714 0.12533 0.0
C104 C 0.10711 0.6034 0.03439 0.0
C105 C 1.0011 0.55119 0.915 0.0
H106 H 0.2245 0.6162 0.21109 0.0
C107 C 0.92898 0.46902 0.8852 0.0
H108 H 0.16598 0.66665 0.05962 0.0
C109 C 0.96255 0.4399 0.97204 0.0
C110 C 0.06856 0.49211 0.09143 0.0
H111 H 0.84517 0.4271 0.79534 0.0
H112 H 0.90368 0.37665 0.94681 0.0
C113 C 0.14069 0.57428 0.12123 0.0
loop_
_geom_bond_atom_site_label_1
_geom_bond_atom_site_label_2
_geom_bond_distance
_geom_bond_site_symmetry_2
_ccdc_geom_bond_type
Tb0 N29 2.617 . S
Tb0 N35 2.572 . S
Tb0 O44 2.465 . S
Tb0 O45 2.387 . S
Tb0 O47 2.428 . S
Tb0 O48 2.308 1_556 S
Tb0 O52 2.349 1_655 S
Tb0 O55 2.393 . S
Tb0 C64 2.802 . S
C1 N2 1.379 . S
C1 C4 1.416 . S
C1 C8 1.424 . S
N2 C1 1.379 . S
N2 C5 1.334 . S
N2 Tb11 2.617 . S
C3 C5 1.390 . S
C3 C6 1.339 . S
C3 H23 0.930 . S
C4 C1 1.416 . S
C4 C6 1.416 . S
C4 C10 1.448 . S
C5 N2 1.334 . S
C5 C3 1.390 . S
C5 H16 0.930 . S
C6 C3 1.339 . S
C6 C4 1.416 . S
C6 H27 0.930 . S
C7 C8 1.413 . S
C7 C9 1.427 . S
C7 C13 1.416 . S
C8 C1 1.424 . S
C8 C7 1.413 . S
C8 N12 1.361 . S
C9 C7 1.427 . S
C9 C10 1.328 . S
C9 H24 0.929 . S
C10 C4 1.448 . S
C10 C9 1.328 . S
C10 H25 0.930 . S
Tb11 N2 2.617 . S
Tb11 N12 2.572 . S
Tb11 O46 2.349 1_455 S
Tb11 O49 2.393 . S
Tb11 O50 2.465 . S
Tb11 O51 2.387 . S
Tb11 O53 2.428 . S
Tb11 O54 2.308 1_554 S
Tb11 C75 2.802 . S
N12 C8 1.361 . S
N12 Tb11 2.572 . S
N12 C14 1.340 1_554 S
C13 C7 1.416 . S
C13 C15 1.332 1_554 S
C13 H21 0.931 1_554 S
C14 N12 1.340 1_556 S
C14 C15 1.407 . S
C14 H20 0.930 . S
C15 C13 1.332 1_556 S
C15 C14 1.407 . S
C15 H17 0.929 . S
H16 C5 0.930 . S
H17 C15 0.929 . S
H18 C33 0.930 . S
H19 C40 0.929 . S
H20 C14 0.930 . S
H21 C13 0.931 1_556 S
H22 C36 0.930 . S
H23 C3 0.930 . S
H24 C9 0.929 . S
H25 C10 0.930 . S
H26 C31 0.930 . S
H27 C6 0.930 . S
H28 C39 0.931 1_554 S
N29 Tb0 2.617 . S
N29 C30 1.379 . S
N29 C33 1.334 . S
C30 N29 1.379 . S
C30 C32 1.416 . S
C30 C38 1.424 . S
C31 H26 0.930 . S
C31 C33 1.390 . S
C31 C34 1.339 . S
C32 C30 1.416 . S
C32 C34 1.416 . S
C32 C65 1.448 . S
C33 H18 0.930 . S
C33 N29 1.334 . S
C33 C31 1.390 . S
C34 C31 1.339 . S
C34 C32 1.416 . S
C34 H41 0.930 . S
N35 Tb0 2.572 . S
N35 C36 1.340 1_556 S
N35 C38 1.361 . S
C36 H22 0.930 . S
C36 N35 1.340 1_554 S
C36 C40 1.407 . S
C37 C38 1.413 . S
C37 C39 1.416 . S
C37 C66 1.427 . S
C38 C30 1.424 . S
C38 N35 1.361 . S
C38 C37 1.413 . S
C39 H28 0.931 1_556 S
C39 C37 1.416 . S
C39 C40 1.332 1_556 S
C40 H19 0.929 . S
C40 C36 1.407 . S
C40 C39 1.332 1_554 S
H41 C34 0.930 . S
H42 C65 0.930 . S
H43 C66 0.929 . S
O44 Tb0 2.465 . S
O44 C64 1.264 . S
O45 Tb0 2.387 . S
O45 C56 1.257 1_565 S
O46 Tb11 2.349 1_655 S
O46 C56 1.247 1_554 S
O47 Tb0 2.428 . S
O47 C64 1.256 . S
O48 Tb0 2.308 1_554 S
O48 C63 1.266 1_565 S
O49 Tb11 2.393 . S
O49 C63 1.248 1_455 S
O50 Tb11 2.465 . S
O50 C75 1.264 . S
O51 Tb11 2.387 . S
O51 C67 1.260 1_545 S
O52 Tb0 2.349 1_455 S
O52 C67 1.245 1_556 S
O53 Tb11 2.428 . S
O53 C75 1.256 . S
O54 Tb11 2.308 1_556 S
O54 C74 1.266 1_545 S
O55 Tb0 2.393 . S
O55 C74 1.248 1_655 S
C56 O45 1.257 1_545 S
C56 O46 1.247 1_556 S
C57 C60 1.399 . S
C57 C62 1.383 . S
C57 C64 1.496 . S
C58 C59 1.399 . S
C58 C62 1.389 . S
C59 C58 1.399 . S
C59 C61 1.380 . S
C59 H76 0.929 . S
C60 C57 1.399 . S
C60 C61 1.392 . S
C60 H77 0.929 . S
C61 C59 1.380 . S
C61 C60 1.392 . S
C61 H78 0.929 . S
C62 C57 1.383 . S
C62 C58 1.389 . S
C62 H79 0.931 1_556 S
C63 O48 1.266 1_545 S
C63 O49 1.248 1_655 S
C64 Tb0 2.802 . S
C64 O44 1.264 . S
C64 O47 1.256 . S
C64 C57 1.496 . S
C65 C32 1.448 . S
C65 H42 0.930 . S
C65 C66 1.328 . S
C66 C37 1.427 . S
C66 H43 0.929 . S
C66 C65 1.328 . S
C67 O51 1.260 1_565 S
C67 O52 1.245 1_554 S
C68 C71 1.399 . S
C68 C72 1.383 . S
C68 C75 1.496 . S
C69 C70 1.399 . S
C69 C72 1.389 . S
C70 C69 1.399 . S
C70 C73 1.380 . S
C70 H80 0.929 . S
C71 C68 1.399 . S
C71 C73 1.392 . S
C71 H81 0.929 . S
C72 C68 1.383 . S
C72 C69 1.389 . S
C72 H82 0.931 1_554 S
C73 C70 1.380 . S
C73 C71 1.392 . S
C73 H83 0.929 . S
C74 O54 1.266 1_565 S
C74 O55 1.248 1_455 S
C75 Tb11 2.802 . S
C75 O50 1.264 . S
C75 O53 1.256 . S
C75 C68 1.496 . S
H76 C59 0.929 . S
H77 C60 0.929 . S
H78 C61 0.929 . S
H79 C62 0.931 1_554 S
H80 C70 0.929 . S
H81 C71 0.929 . S
H82 C72 0.931 1_556 S
H83 C73 0.929 . S
C84 C85 1.386 1_665 S
C84 H88 0.950 . S
C84 C93 1.390 . S
C85 C84 1.386 1_445 S
C85 C87 1.386 . S
H86 C93 0.950 . S
C87 C85 1.386 . S
C87 C89 1.390 . S
C87 H91 0.950 . S
H88 C84 0.950 . S
C89 C87 1.390 . S
C89 C90 1.388 1_445 S
C89 H92 0.950 . S
C90 C89 1.388 1_665 S
C90 C93 1.386 . S
H91 C87 0.950 . S
H92 C89 0.950 . S
C93 C84 1.390 . S
C93 H86 0.950 . S
C93 C90 1.386 . S
C94 C95 1.386 . S
C94 H98 0.950 . S
C94 C103 1.390 . S
C95 C94 1.386 . S
C95 C97 1.386 1_544 S
H96 C103 0.950 . S
C97 C95 1.386 1_566 S
C97 C99 1.390 . S
C97 H101 0.950 . S
H98 C94 0.950 . S
C99 C97 1.390 . S
C99 C100 1.386 . S
C99 H102 0.950 . S
C100 C99 1.386 . S
C100 C103 1.388 1_566 S
H101 C97 0.950 . S
H102 C99 0.950 . S
C103 C94 1.390 . S
C103 H96 0.950 . S
C103 C100 1.388 1_544 S
C104 C105 1.390 1_554 S
C104 H108 0.950 . S
C104 C113 1.390 . S
C105 C104 1.390 1_556 S
C105 C107 1.387 1_455 S
H106 C113 0.950 . S
C107 C105 1.387 1_655 S
C107 C109 1.390 . S
C107 H111 0.950 . S
H108 C104 0.950 . S
C109 C107 1.390 . S
C109 C110 1.388 1_556 S
C109 H112 0.950 . S
C110 C109 1.388 1_554 S
C110 C113 1.388 1_655 S
H111 C107 0.950 . S
H112 C109 0.950 . S
C113 C104 1.390 . S
C113 H106 0.950 . S
C113 C110 1.388 1_455 S
C85 C63 1.483 1_455 S
C90 C74 1.481 1_655 S
C95 C67 1.500 1_545 S
C100 C56 1.500 1_565 S
C105 C58 1.354 1_455 S
C110 C69 1.357 1_655 S
