# Generated by pormake.
# Topology uob, (4)-cn, num edge types: 1
# Building blocks:
#     Node 0, Type 0, BuildingBlock: MUDLON_clean_sbu_0, # of connection points: 4
#     Node 1, Type 0, BuildingBlock: MUDLON_clean_sbu_0, # of connection points: 4
#     Node 2, Type 0, BuildingBlock: MUDLON_clean_sbu_0, # of connection points: 4
#     Node 3, Type 0, BuildingBlock: MUDLON_clean_sbu_0, # of connection points: 4
#     Node 4, Type 0, BuildingBlock: MUDLON_clean_sbu_0, # of connection points: 4
#     Node 5, Type 0, BuildingBlock: MUDLON_clean_sbu_0, # of connection points: 4
#     Node 6, Type 0, BuildingBlock: MUDLON_clean_sbu_0, # of connection points: 4
#     Node 7, Type 0, BuildingBlock: MUDLON_clean_sbu_0, # of connection points: 4
#     Node 8, Type 0, BuildingBlock: MUDLON_clean_sbu_0, # of connection points: 4
#     Node 9, Type 0, BuildingBlock: MUDLON_clean_sbu_0, # of connection points: 4
#     Node 10, Type 0, BuildingBlock: MUDLON_clean_sbu_0, # of connection points: 4
#     Node 11, Type 0, BuildingBlock: MUDLON_clean_sbu_0, # of connection points: 4
#     Node 12, Type 0, BuildingBlock: MUDLON_clean_sbu_0, # of connection points: 4
#     Node 13, Type 0, BuildingBlock: MUDLON_clean_sbu_0, # of connection points: 4
#     Node 14, Type 0, BuildingBlock: MUDLON_clean_sbu_0, # of connection points: 4
#     Node 15, Type 0, BuildingBlock: MUDLON_clean_sbu_0, # of connection points: 4
#     Edge 16, Type (0, 0), None
#     Edge 17, Type (0, 0), None
#     Edge 18, Type (0, 0), None
#     Edge 19, Type (0, 0), None
#     Edge 20, Type (0, 0), None
#     Edge 21, Type (0, 0), None
#     Edge 22, Type (0, 0), None
#     Edge 23, Type (0, 0), None
#     Edge 24, Type (0, 0), None
#     Edge 25, Type (0, 0), None
#     Edge 26, Type (0, 0), None
#     Edge 27, Type (0, 0), None
#     Edge 28, Type (0, 0), None
#     Edge 29, Type (0, 0), None
#     Edge 30, Type (0, 0), None
#     Edge 31, Type (0, 0), None
#     Edge 32, Type (0, 0), None
#     Edge 33, Type (0, 0), None
#     Edge 34, Type (0, 0), None
#     Edge 35, Type (0, 0), None
#     Edge 36, Type (0, 0), None
#     Edge 37, Type (0, 0), None
#     Edge 38, Type (0, 0), None
#     Edge 39, Type (0, 0), None
#     Edge 40, Type (0, 0), None
#     Edge 41, Type (0, 0), None
#     Edge 42, Type (0, 0), None
#     Edge 43, Type (0, 0), None
#     Edge 44, Type (0, 0), None
#     Edge 45, Type (0, 0), None
#     Edge 46, Type (0, 0), None
#     Edge 47, Type (0, 0), None
# Relax obj value: 0.165
# Max RMSD: 0.255
# Mean RMSD: 0.255
data_MOF--net-uob--node1-MUDLON_clean_sbu_0--edge1-none
_symmetry_space_group_name_H-M    P1
_symmetry_Int_Tables_number       1
_symmetry_cell_setting            triclinic
loop_
_symmetry_equiv_pos_as_xyz
'x, y, z'
_cell_length_a     25.027954
_cell_length_b     25.027955
_cell_length_c     13.84023
_cell_angle_alpha  89.999975
_cell_angle_beta   89.999989
_cell_angle_gamma 89.993846
loop_
_atom_site_label
_atom_site_type_symbol
_atom_site_fract_x
_atom_site_fract_y
_atom_site_fract_z
_atom_type_partial_charge
Mg0 Mg 0.14753 0.09619 0.31792 0.0
C1 C 0.12322 0.10438 0.52002 0.0
O2 O 0.15346 0.06161 0.51504 0.0
C3 C 0.15771 0.13473 0.11107 0.0
O4 O 0.1894 0.093 0.10573 0.0
C5 C 0.24753 0.1248 0.41524 0.0
O6 O 0.22078 0.1698 0.40887 0.0
O7 O 0.22904 0.0834 0.37316 0.0
O8 O 0.11182 0.13016 0.44371 0.0
O9 O 0.09339 0.02954 0.29607 0.0
C10 C 0.04433 0.04311 0.2898 0.0
O11 O 0.03157 0.09399 0.29206 0.0
O12 O 0.13821 0.14796 0.19246 0.0
Mg13 Mg 0.95003 0.64753 0.56791 0.0
C14 C 0.94183 0.62324 0.77002 0.0
O15 O 0.9846 0.65346 0.76505 0.0
C16 C 0.91148 0.65772 0.36106 0.0
O17 O 0.95321 0.6894 0.35572 0.0
C18 C 0.92143 0.74755 0.66523 0.0
O19 O 0.87643 0.72081 0.65886 0.0
O20 O 0.96283 0.72905 0.62315 0.0
O21 O 0.91606 0.61184 0.69371 0.0
O22 O 1.01668 0.59338 0.54606 0.0
C23 C 1.00311 0.54433 0.5398 0.0
O24 O 0.95224 0.53157 0.54206 0.0
O25 O 0.89826 0.63823 0.44245 0.0
Mg26 Mg 0.3987 0.45004 0.81792 0.0
C27 C 0.423 0.44185 0.02002 0.0
O28 O 0.39277 0.48462 0.01504 0.0
C29 C 0.38851 0.4115 0.61107 0.0
O30 O 0.35683 0.45323 0.60573 0.0
C31 C 0.2987 0.42143 0.91524 0.0
O32 O 0.32545 0.37643 0.90887 0.0
O33 O 0.31718 0.46283 0.87316 0.0
O34 O 0.4344 0.41607 0.94371 0.0
O35 O 0.45284 0.51669 0.79607 0.0
C36 C 0.50189 0.50312 0.7898 0.0
O37 O 0.51466 0.45224 0.79206 0.0
O38 O 0.40801 0.39827 0.69246 0.0
Mg39 Mg 0.5962 0.8987 0.06791 0.0
C40 C 0.60439 0.92299 0.27002 0.0
O41 O 0.56162 0.89277 0.26505 0.0
C42 C 0.63474 0.88851 0.86106 0.0
O43 O 0.59302 0.85683 0.85572 0.0
C44 C 0.6248 0.79868 0.16523 0.0
O45 O 0.6698 0.82542 0.15886 0.0
O46 O 0.5834 0.81718 0.12315 0.0
O47 O 0.63016 0.93439 0.19371 0.0
O48 O 0.52954 0.95285 0.04606 0.0
C49 C 0.54311 1.0019 0.0398 0.0
O50 O 0.59399 1.01466 0.04206 0.0
O51 O 0.64797 0.908 0.94245 0.0
Mg52 Mg 0.14753 0.45003 0.06516 0.0
C53 C 0.12324 0.44184 0.86304 0.0
O54 O 0.15346 0.4846 0.86802 0.0
C55 C 0.15772 0.41148 0.27201 0.0
O56 O 0.1894 0.45321 0.27735 0.0
C57 C 0.24755 0.42143 0.96784 0.0
O58 O 0.22081 0.37643 0.97421 0.0
O59 O 0.22904 0.46283 0.00992 0.0
O60 O 0.11184 0.41606 0.93936 0.0
O61 O 0.09338 0.51668 0.087 0.0
C62 C 0.04433 0.50312 0.09327 0.0
O63 O 0.03157 0.45224 0.09101 0.0
O64 O 0.13822 0.39826 0.19061 0.0
Mg65 Mg 0.59619 0.64753 0.31515 0.0
C66 C 0.60438 0.62323 0.11304 0.0
O67 O 0.56161 0.65346 0.11802 0.0
C68 C 0.63473 0.65771 0.522 0.0
O69 O 0.593 0.6894 0.52733 0.0
C70 C 0.62479 0.74754 0.21784 0.0
O71 O 0.66979 0.72078 0.2242 0.0
O72 O 0.58339 0.72904 0.25991 0.0
O73 O 0.63015 0.61183 0.18935 0.0
O74 O 0.52954 0.59339 0.337 0.0
C75 C 0.54311 0.54433 0.34327 0.0
O76 O 0.59399 0.53157 0.34101 0.0
O77 O 0.64796 0.63821 0.44061 0.0
Mg78 Mg 0.39869 0.0962 0.56516 0.0
C79 C 0.42299 0.10439 0.36304 0.0
O80 O 0.39276 0.06163 0.36802 0.0
C81 C 0.3885 0.13475 0.77201 0.0
O82 O 0.35682 0.09302 0.77735 0.0
C83 C 0.29868 0.1248 0.46784 0.0
O84 O 0.32542 0.1698 0.47421 0.0
O85 O 0.31718 0.0834 0.50992 0.0
O86 O 0.43439 0.13017 0.43936 0.0
O87 O 0.45285 0.02955 0.587 0.0
C88 C 0.5019 0.04311 0.59327 0.0
O89 O 0.51465 0.09399 0.59101 0.0
O90 O 0.408 0.14797 0.69061 0.0
Mg91 Mg 0.95004 0.8987 0.81515 0.0
C92 C 0.94185 0.923 0.61304 0.0
O93 O 0.98462 0.89277 0.61802 0.0
C94 C 0.9115 0.88852 0.022 0.0
O95 O 0.95323 0.85683 0.02733 0.0
C96 C 0.92143 0.79869 0.71784 0.0
O97 O 0.87643 0.82545 0.7242 0.0
O98 O 0.96283 0.81719 0.75991 0.0
O99 O 0.91607 0.9344 0.68935 0.0
O100 O 1.01669 0.95284 0.837 0.0
C101 C 1.00312 1.0019 0.84327 0.0
O102 O 0.95224 1.01466 0.84101 0.0
O103 O 0.89827 0.90802 0.94061 0.0
Mg104 Mg 0.6475 0.59666 0.81789 0.0
C105 C 0.62307 0.60468 0.01994 0.0
O106 O 0.65334 0.56194 0.0149 0.0
C107 C 0.65749 0.63499 0.61099 0.0
O108 O 0.68901 0.59314 0.60567 0.0
C109 C 0.74751 0.62529 0.91528 0.0
O110 O 0.72073 0.67028 0.90901 0.0
O111 O 0.72903 0.5839 0.87315 0.0
O112 O 0.61173 0.63054 0.94368 0.0
O113 O 0.5934 0.52998 0.79603 0.0
C114 C 0.54435 0.54354 0.78979 0.0
O115 O 0.53158 0.59442 0.79205 0.0
O116 O 0.63816 0.6484 0.69241 0.0
Mg117 Mg 0.44957 0.14753 0.0679 0.0
C118 C 0.44154 0.12309 0.26994 0.0
O119 O 0.48428 0.15335 0.26491 0.0
C120 C 0.41123 0.15751 0.86099 0.0
O121 O 0.45308 0.18902 0.85566 0.0
C122 C 0.42094 0.24754 0.16529 0.0
O123 O 0.37594 0.22077 0.15903 0.0
O124 O 0.46232 0.22904 0.12315 0.0
O125 O 0.41568 0.11175 0.19369 0.0
O126 O 0.51625 0.09342 0.04603 0.0
C127 C 0.50268 0.04436 0.03979 0.0
O128 O 0.45181 0.0316 0.04205 0.0
O129 O 0.39782 0.13818 0.94242 0.0
Mg130 Mg 0.89872 0.94957 0.31789 0.0
C131 C 0.92316 0.94155 0.51994 0.0
O132 O 0.89289 0.98429 0.5149 0.0
C133 C 0.88874 0.91124 0.11099 0.0
O134 O 0.85721 0.95309 0.10567 0.0
C135 C 0.79872 0.92094 0.41528 0.0
O136 O 0.82549 0.87595 0.40901 0.0
O137 O 0.8172 0.96233 0.37315 0.0
O138 O 0.9345 0.91569 0.44368 0.0
O139 O 0.95282 1.01625 0.29603 0.0
C140 C 1.00188 1.00269 0.28979 0.0
O141 O 1.01465 0.95181 0.29205 0.0
O142 O 0.90807 0.89783 0.19241 0.0
Mg143 Mg 0.09666 0.3987 0.5679 0.0
C144 C 0.10469 0.42314 0.76994 0.0
O145 O 0.06195 0.39288 0.76491 0.0
C146 C 0.135 0.38872 0.36099 0.0
O147 O 0.09315 0.35721 0.35566 0.0
C148 C 0.12529 0.29869 0.66529 0.0
O149 O 0.17028 0.32546 0.65902 0.0
O150 O 0.0839 0.31719 0.62315 0.0
O151 O 0.13054 0.43448 0.69369 0.0
O152 O 0.02998 0.45281 0.54603 0.0
C153 C 0.04354 0.50187 0.53979 0.0
O154 O 0.09442 0.51463 0.54205 0.0
O155 O 0.14841 0.40805 0.44242 0.0
Mg156 Mg 0.64752 0.94957 0.56517 0.0
C157 C 0.62308 0.94154 0.36312 0.0
O158 O 0.65335 0.98428 0.36816 0.0
C159 C 0.6575 0.91123 0.77207 0.0
O160 O 0.68902 0.95308 0.7774 0.0
C161 C 0.74753 0.92094 0.46779 0.0
O162 O 0.72077 0.87595 0.47404 0.0
O163 O 0.72904 0.96232 0.50992 0.0
O164 O 0.61175 0.91569 0.43938 0.0
O165 O 0.59341 1.01625 0.58704 0.0
C166 C 0.54436 1.00269 0.59328 0.0
O167 O 0.5316 0.95181 0.59102 0.0
O168 O 0.63818 0.89782 0.69065 0.0
Mg169 Mg 0.09665 0.14751 0.81517 0.0
C170 C 0.10468 0.12307 0.61313 0.0
O171 O 0.06194 0.15334 0.61817 0.0
C172 C 0.13499 0.15749 0.02208 0.0
O173 O 0.09314 0.18901 0.0274 0.0
C174 C 0.12529 0.24751 0.7178 0.0
O175 O 0.17028 0.22074 0.72406 0.0
O176 O 0.0839 0.22903 0.75992 0.0
O177 O 0.13054 0.11173 0.68938 0.0
O178 O 0.02997 0.09341 0.83704 0.0
C179 C 0.04354 0.04435 0.84328 0.0
O180 O 0.09442 0.03158 0.84102 0.0
O181 O 0.1484 0.13816 0.94065 0.0
Mg182 Mg 0.8987 0.59666 0.06517 0.0
C183 C 0.92314 0.60469 0.86312 0.0
O184 O 0.89287 0.56195 0.86816 0.0
C185 C 0.88872 0.635 0.27207 0.0
O186 O 0.85721 0.59315 0.2774 0.0
C187 C 0.79869 0.62529 0.96779 0.0
O188 O 0.82546 0.67028 0.97404 0.0
O189 O 0.81718 0.58391 0.00992 0.0
O190 O 0.93447 0.63054 0.93938 0.0
O191 O 0.95281 0.52998 0.08704 0.0
C192 C 1.00187 0.54354 0.09328 0.0
O193 O 1.01463 0.59442 0.09102 0.0
O194 O 0.90805 0.64841 0.19065 0.0
Mg195 Mg 0.44957 0.39872 0.31517 0.0
C196 C 0.44155 0.42316 0.11313 0.0
O197 O 0.48429 0.39289 0.11817 0.0
C198 C 0.41124 0.38874 0.52208 0.0
O199 O 0.45309 0.35722 0.5274 0.0
C200 C 0.42094 0.29872 0.2178 0.0
O201 O 0.37595 0.32549 0.22406 0.0
O202 O 0.46233 0.3172 0.25992 0.0
O203 O 0.41569 0.4345 0.18938 0.0
O204 O 0.51625 0.45282 0.33704 0.0
C205 C 0.50269 0.50188 0.34328 0.0
O206 O 0.45181 0.51465 0.34102 0.0
O207 O 0.39783 0.40807 0.44065 0.0
loop_
_geom_bond_atom_site_label_1
_geom_bond_atom_site_label_2
_geom_bond_distance
_geom_bond_site_symmetry_2
_ccdc_geom_bond_type
Mg0 O7 2.141 . S
Mg0 O8 2.048 . S
Mg0 O9 2.048 . S
Mg0 O12 2.141 . S
C1 O2 1.313 . S
C1 O8 1.195 . S
O2 C1 1.313 . S
C3 O4 1.245 . S
C3 O12 1.289 . S
O4 C3 1.245 . S
C5 O6 1.245 . S
C5 O7 1.289 . S
O6 C5 1.245 . S
O7 Mg0 2.141 . S
O7 C5 1.289 . S
O8 Mg0 2.048 . S
O8 C1 1.195 . S
O9 Mg0 2.048 . S
O9 C10 1.195 . S
C10 O9 1.195 . S
C10 O11 1.313 . S
O11 C10 1.313 . S
O12 Mg0 2.141 . S
O12 C3 1.289 . S
Mg13 O20 2.141 . S
Mg13 O21 2.048 . S
Mg13 O22 2.048 . S
Mg13 O25 2.141 . S
C14 O15 1.313 . S
C14 O21 1.195 . S
O15 C14 1.313 . S
C16 O17 1.245 . S
C16 O25 1.289 . S
O17 C16 1.245 . S
C18 O19 1.245 . S
C18 O20 1.289 . S
O19 C18 1.245 . S
O20 Mg13 2.141 . S
O20 C18 1.289 . S
O21 Mg13 2.048 . S
O21 C14 1.195 . S
O22 Mg13 2.048 . S
O22 C23 1.195 . S
C23 O22 1.195 . S
C23 O24 1.313 . S
O24 C23 1.313 . S
O25 Mg13 2.141 . S
O25 C16 1.289 . S
Mg26 O33 2.141 . S
Mg26 O34 2.048 . S
Mg26 O35 2.048 . S
Mg26 O38 2.141 . S
C27 O28 1.313 . S
C27 O34 1.195 1_554 S
O28 C27 1.313 . S
C29 O30 1.245 . S
C29 O38 1.289 . S
O30 C29 1.245 . S
C31 O32 1.245 . S
C31 O33 1.289 . S
O32 C31 1.245 . S
O33 Mg26 2.141 . S
O33 C31 1.289 . S
O34 Mg26 2.048 . S
O34 C27 1.195 1_556 S
O35 Mg26 2.048 . S
O35 C36 1.195 . S
C36 O35 1.195 . S
C36 O37 1.313 . S
O37 C36 1.313 . S
O38 Mg26 2.141 . S
O38 C29 1.289 . S
Mg39 O46 2.141 . S
Mg39 O47 2.048 . S
Mg39 O48 2.048 . S
Mg39 O51 2.141 1_554 S
C40 O41 1.313 . S
C40 O47 1.195 . S
O41 C40 1.313 . S
C42 O43 1.245 . S
C42 O51 1.289 . S
O43 C42 1.245 . S
C44 O45 1.245 . S
C44 O46 1.289 . S
O45 C44 1.245 . S
O46 Mg39 2.141 . S
O46 C44 1.289 . S
O47 Mg39 2.048 . S
O47 C40 1.195 . S
O48 Mg39 2.048 . S
O48 C49 1.195 . S
C49 O48 1.195 . S
C49 O50 1.313 . S
O50 C49 1.313 . S
O51 Mg39 2.141 1_556 S
O51 C42 1.289 . S
Mg52 O59 2.141 . S
Mg52 O60 2.048 1_554 S
Mg52 O61 2.048 . S
Mg52 O64 2.141 . S
C53 O54 1.313 . S
C53 O60 1.195 . S
O54 C53 1.313 . S
C55 O56 1.245 . S
C55 O64 1.289 . S
O56 C55 1.245 . S
C57 O58 1.245 . S
C57 O59 1.289 . S
O58 C57 1.245 . S
O59 Mg52 2.141 . S
O59 C57 1.289 . S
O60 Mg52 2.048 1_556 S
O60 C53 1.195 . S
O61 Mg52 2.048 . S
O61 C62 1.195 . S
C62 O61 1.195 . S
C62 O63 1.313 . S
O63 C62 1.313 . S
O64 Mg52 2.141 . S
O64 C55 1.289 . S
Mg65 O72 2.141 . S
Mg65 O73 2.048 . S
Mg65 O74 2.048 . S
Mg65 O77 2.141 . S
C66 O67 1.313 . S
C66 O73 1.195 . S
O67 C66 1.313 . S
C68 O69 1.245 . S
C68 O77 1.289 . S
O69 C68 1.245 . S
C70 O71 1.245 . S
C70 O72 1.289 . S
O71 C70 1.245 . S
O72 Mg65 2.141 . S
O72 C70 1.289 . S
O73 Mg65 2.048 . S
O73 C66 1.195 . S
O74 Mg65 2.048 . S
O74 C75 1.195 . S
C75 O74 1.195 . S
C75 O76 1.313 . S
O76 C75 1.313 . S
O77 Mg65 2.141 . S
O77 C68 1.289 . S
Mg78 O85 2.141 . S
Mg78 O86 2.048 . S
Mg78 O87 2.048 . S
Mg78 O90 2.141 . S
C79 O80 1.313 . S
C79 O86 1.195 . S
O80 C79 1.313 . S
C81 O82 1.245 . S
C81 O90 1.289 . S
O82 C81 1.245 . S
C83 O84 1.245 . S
C83 O85 1.289 . S
O84 C83 1.245 . S
O85 Mg78 2.141 . S
O85 C83 1.289 . S
O86 Mg78 2.048 . S
O86 C79 1.195 . S
O87 Mg78 2.048 . S
O87 C88 1.195 . S
C88 O87 1.195 . S
C88 O89 1.313 . S
O89 C88 1.313 . S
O90 Mg78 2.141 . S
O90 C81 1.289 . S
Mg91 O98 2.141 . S
Mg91 O99 2.048 . S
Mg91 O100 2.048 . S
Mg91 O103 2.141 . S
C92 O93 1.313 . S
C92 O99 1.195 . S
O93 C92 1.313 . S
C94 O95 1.245 1_554 S
C94 O103 1.289 1_554 S
O95 C94 1.245 1_556 S
C96 O97 1.245 . S
C96 O98 1.289 . S
O97 C96 1.245 . S
O98 Mg91 2.141 . S
O98 C96 1.289 . S
O99 Mg91 2.048 . S
O99 C92 1.195 . S
O100 Mg91 2.048 . S
O100 C101 1.195 . S
C101 O100 1.195 . S
C101 O102 1.313 . S
O102 C101 1.313 . S
O103 Mg91 2.141 . S
O103 C94 1.289 1_556 S
Mg104 O111 2.141 . S
Mg104 O112 2.048 . S
Mg104 O113 2.048 . S
Mg104 O116 2.141 . S
C105 O106 1.313 . S
C105 O112 1.195 1_554 S
O106 C105 1.313 . S
C107 O108 1.245 . S
C107 O116 1.289 . S
O108 C107 1.245 . S
C109 O110 1.245 . S
C109 O111 1.289 . S
O110 C109 1.245 . S
O111 Mg104 2.141 . S
O111 C109 1.289 . S
O112 Mg104 2.048 . S
O112 C105 1.195 1_556 S
O113 Mg104 2.048 . S
O113 C114 1.195 . S
C114 O113 1.195 . S
C114 O115 1.313 . S
O115 C114 1.313 . S
O116 Mg104 2.141 . S
O116 C107 1.289 . S
Mg117 O124 2.141 . S
Mg117 O125 2.048 . S
Mg117 O126 2.048 . S
Mg117 O129 2.141 1_554 S
C118 O119 1.313 . S
C118 O125 1.195 . S
O119 C118 1.313 . S
C120 O121 1.245 . S
C120 O129 1.289 . S
O121 C120 1.245 . S
C122 O123 1.245 . S
C122 O124 1.289 . S
O123 C122 1.245 . S
O124 Mg117 2.141 . S
O124 C122 1.289 . S
O125 Mg117 2.048 . S
O125 C118 1.195 . S
O126 Mg117 2.048 . S
O126 C127 1.195 . S
C127 O126 1.195 . S
C127 O128 1.313 . S
O128 C127 1.313 . S
O129 Mg117 2.141 1_556 S
O129 C120 1.289 . S
Mg130 O137 2.141 . S
Mg130 O138 2.048 . S
Mg130 O139 2.048 . S
Mg130 O142 2.141 . S
C131 O132 1.313 . S
C131 O138 1.195 . S
O132 C131 1.313 . S
C133 O134 1.245 . S
C133 O142 1.289 . S
O134 C133 1.245 . S
C135 O136 1.245 . S
C135 O137 1.289 . S
O136 C135 1.245 . S
O137 Mg130 2.141 . S
O137 C135 1.289 . S
O138 Mg130 2.048 . S
O138 C131 1.195 . S
O139 Mg130 2.048 . S
O139 C140 1.195 . S
C140 O139 1.195 . S
C140 O141 1.313 . S
O141 C140 1.313 . S
O142 Mg130 2.141 . S
O142 C133 1.289 . S
Mg143 O150 2.141 . S
Mg143 O151 2.048 . S
Mg143 O152 2.048 . S
Mg143 O155 2.141 . S
C144 O145 1.313 . S
C144 O151 1.195 . S
O145 C144 1.313 . S
C146 O147 1.245 . S
C146 O155 1.289 . S
O147 C146 1.245 . S
C148 O149 1.245 . S
C148 O150 1.289 . S
O149 C148 1.245 . S
O150 Mg143 2.141 . S
O150 C148 1.289 . S
O151 Mg143 2.048 . S
O151 C144 1.195 . S
O152 Mg143 2.048 . S
O152 C153 1.195 . S
C153 O152 1.195 . S
C153 O154 1.313 . S
O154 C153 1.313 . S
O155 Mg143 2.141 . S
O155 C146 1.289 . S
Mg156 O163 2.141 . S
Mg156 O164 2.048 . S
Mg156 O165 2.048 . S
Mg156 O168 2.141 . S
C157 O158 1.313 . S
C157 O164 1.195 . S
O158 C157 1.313 . S
C159 O160 1.245 . S
C159 O168 1.289 . S
O160 C159 1.245 . S
C161 O162 1.245 . S
C161 O163 1.289 . S
O162 C161 1.245 . S
O163 Mg156 2.141 . S
O163 C161 1.289 . S
O164 Mg156 2.048 . S
O164 C157 1.195 . S
O165 Mg156 2.048 . S
O165 C166 1.195 . S
C166 O165 1.195 . S
C166 O167 1.313 . S
O167 C166 1.313 . S
O168 Mg156 2.141 . S
O168 C159 1.289 . S
Mg169 O176 2.141 . S
Mg169 O177 2.048 . S
Mg169 O178 2.048 . S
Mg169 O181 2.141 . S
C170 O171 1.313 . S
C170 O177 1.195 . S
O171 C170 1.313 . S
C172 O173 1.245 1_554 S
C172 O181 1.289 1_554 S
O173 C172 1.245 1_556 S
C174 O175 1.245 . S
C174 O176 1.289 . S
O175 C174 1.245 . S
O176 Mg169 2.141 . S
O176 C174 1.289 . S
O177 Mg169 2.048 . S
O177 C170 1.195 . S
O178 Mg169 2.048 . S
O178 C179 1.195 . S
C179 O178 1.195 . S
C179 O180 1.313 . S
O180 C179 1.313 . S
O181 Mg169 2.141 . S
O181 C172 1.289 1_556 S
Mg182 O189 2.141 . S
Mg182 O190 2.048 1_554 S
Mg182 O191 2.048 . S
Mg182 O194 2.141 . S
C183 O184 1.313 . S
C183 O190 1.195 . S
O184 C183 1.313 . S
C185 O186 1.245 . S
C185 O194 1.289 . S
O186 C185 1.245 . S
C187 O188 1.245 . S
C187 O189 1.289 . S
O188 C187 1.245 . S
O189 Mg182 2.141 . S
O189 C187 1.289 . S
O190 Mg182 2.048 1_556 S
O190 C183 1.195 . S
O191 Mg182 2.048 . S
O191 C192 1.195 . S
C192 O191 1.195 . S
C192 O193 1.313 . S
O193 C192 1.313 . S
O194 Mg182 2.141 . S
O194 C185 1.289 . S
Mg195 O202 2.141 . S
Mg195 O203 2.048 . S
Mg195 O204 2.048 . S
Mg195 O207 2.141 . S
C196 O197 1.313 . S
C196 O203 1.195 . S
O197 C196 1.313 . S
C198 O199 1.245 . S
C198 O207 1.289 . S
O199 C198 1.245 . S
C200 O201 1.245 . S
C200 O202 1.289 . S
O201 C200 1.245 . S
O202 Mg195 2.141 . S
O202 C200 1.289 . S
O203 Mg195 2.048 . S
O203 C196 1.195 . S
O204 Mg195 2.048 . S
O204 C205 1.195 . S
C205 O204 1.195 . S
C205 O206 1.313 . S
O206 C205 1.313 . S
O207 Mg195 2.141 . S
O207 C198 1.289 . S
C83 C5 2.506 . S
C96 C18 2.506 . S
C31 C57 2.506 1_556 S
C44 C70 2.506 . S
C109 C187 2.506 1_556 S
C200 C122 2.506 . S
C135 C161 2.506 . S
C148 C174 2.506 . S
C10 C140 2.527 1_445 S
C23 C153 2.527 1_655 S
C36 C114 2.527 . S
C49 C127 2.527 1_565 S
C62 C192 2.527 1_455 S
C205 C75 2.526 . S
C88 C166 2.527 1_545 S
C179 C101 2.527 1_445 S
C170 C1 0.789 . S
C14 C183 0.789 . S
C196 C27 0.789 . S
C157 C40 0.790 . S
C144 C53 0.789 . S
C66 C105 0.789 . S
C79 C118 0.790 . S
C92 C131 0.789 . S
C172 C3 2.262 . S
C16 C185 2.262 . S
C29 C198 2.262 . S
C159 C42 2.262 . S
C146 C55 2.262 . S
C107 C68 2.262 . S
C81 C120 2.262 . S
C133 C94 2.262 . S
