# Generated by pormake.
# Topology uoc, (4)-cn, num edge types: 1
# Building blocks:
#     Node 0, Type 0, BuildingBlock: GALJAG_clean_sbu_0, # of connection points: 4
#     Node 1, Type 0, BuildingBlock: GALJAG_clean_sbu_0, # of connection points: 4
#     Node 2, Type 0, BuildingBlock: GALJAG_clean_sbu_0, # of connection points: 4
#     Node 3, Type 0, BuildingBlock: GALJAG_clean_sbu_0, # of connection points: 4
#     Node 4, Type 0, BuildingBlock: GALJAG_clean_sbu_0, # of connection points: 4
#     Node 5, Type 0, BuildingBlock: GALJAG_clean_sbu_0, # of connection points: 4
#     Node 6, Type 0, BuildingBlock: GALJAG_clean_sbu_0, # of connection points: 4
#     Node 7, Type 0, BuildingBlock: GALJAG_clean_sbu_0, # of connection points: 4
#     Edge 8, Type (0, 0), None
#     Edge 9, Type (0, 0), None
#     Edge 10, Type (0, 0), None
#     Edge 11, Type (0, 0), None
#     Edge 12, Type (0, 0), None
#     Edge 13, Type (0, 0), None
#     Edge 14, Type (0, 0), None
#     Edge 15, Type (0, 0), None
#     Edge 16, Type (0, 0), None
#     Edge 17, Type (0, 0), None
#     Edge 18, Type (0, 0), None
#     Edge 19, Type (0, 0), None
#     Edge 20, Type (0, 0), None
#     Edge 21, Type (0, 0), None
#     Edge 22, Type (0, 0), None
#     Edge 23, Type (0, 0), None
# Relax obj value: 0.017
# Max RMSD: 0.050
# Mean RMSD: 0.050
data_MOF--net-uoc--node1-GALJAG_clean_sbu_0--edge1-none
_symmetry_space_group_name_H-M    P1
_symmetry_Int_Tables_number       1
_symmetry_cell_setting            triclinic
loop_
_symmetry_equiv_pos_as_xyz
'x, y, z'
_cell_length_a     12.407293
_cell_length_b     12.407294
_cell_length_c     25.025397
_cell_angle_alpha  89.999997
_cell_angle_beta   89.999997
_cell_angle_gamma 90.453816
loop_
_atom_site_label
_atom_site_type_symbol
_atom_site_fract_x
_atom_site_fract_y
_atom_site_fract_z
_atom_type_partial_charge
In0 In 0.12013 0.25364 0.11883 0.0
O1 O 0.97226 0.36269 0.11895 0.0
O2 O 0.12816 0.43693 0.11867 0.0
C3 C 0.02733 0.0567 0.11825 0.0
C4 C 0.2064 0.26772 0.21711 0.0
C5 C 0.20843 0.24035 0.02101 0.0
O6 O 0.97224 0.14228 0.11812 0.0
O7 O 0.12814 0.07049 0.11879 0.0
O8 O 0.25698 0.2078 0.0623 0.0
O9 O 0.11806 0.28258 0.02934 0.0
C10 C 0.02734 0.44914 0.11892 0.0
O11 O 0.25581 0.3013 0.17611 0.0
O12 O 0.11616 0.22425 0.20827 0.0
In13 In 0.75366 0.6201 0.36941 0.0
O14 O 0.80133 0.75578 0.31213 0.0
O15 O 0.72427 0.61613 0.27997 0.0
C16 C 0.74038 0.7084 0.46723 0.0
C17 C 0.94916 0.52731 0.36932 0.0
C18 C 0.55673 0.5273 0.36999 0.0
O19 O 0.70783 0.75695 0.42593 0.0
O20 O 0.78261 0.61804 0.4589 0.0
O21 O 0.6423 0.47222 0.37011 0.0
O22 O 0.57051 0.62812 0.36945 0.0
C23 C 0.76775 0.70638 0.27113 0.0
O24 O 0.86271 0.47223 0.36929 0.0
O25 O 0.93696 0.62814 0.36957 0.0
In26 In 0.38537 0.25181 0.61883 0.0
O27 O 0.53325 0.14276 0.61895 0.0
O28 O 0.37734 0.06852 0.61867 0.0
C29 C 0.47817 0.44875 0.61825 0.0
C30 C 0.2991 0.23773 0.71711 0.0
C31 C 0.29707 0.2651 0.52101 0.0
O32 O 0.53326 0.36317 0.61812 0.0
O33 O 0.37736 0.43496 0.61879 0.0
O34 O 0.24852 0.29765 0.5623 0.0
O35 O 0.38744 0.22287 0.52934 0.0
C36 C 0.47816 0.05631 0.61892 0.0
O37 O 0.24969 0.20415 0.67611 0.0
O38 O 0.38934 0.2812 0.70827 0.0
In39 In 0.75184 0.88535 0.86941 0.0
O40 O 0.70417 0.74967 0.81213 0.0
O41 O 0.78123 0.88932 0.77997 0.0
C42 C 0.76512 0.79705 0.96723 0.0
C43 C 0.55634 0.97814 0.86932 0.0
C44 C 0.94878 0.97815 0.86999 0.0
O45 O 0.79767 0.7485 0.92593 0.0
O46 O 0.72289 0.88741 0.9589 0.0
O47 O 0.8632 0.03323 0.87011 0.0
O48 O 0.93499 0.87733 0.86945 0.0
C49 C 0.73775 0.79907 0.77113 0.0
O50 O 0.64279 0.03322 0.86929 0.0
O51 O 0.56854 0.87731 0.86957 0.0
In52 In 0.62014 0.75364 0.61883 0.0
O53 O 0.47227 0.86269 0.61896 0.0
O54 O 0.62818 0.93694 0.61865 0.0
C55 C 0.52735 0.5567 0.61825 0.0
C56 C 0.70639 0.76779 0.7171 0.0
C57 C 0.70841 0.74028 0.52102 0.0
O58 O 0.47226 0.64227 0.61811 0.0
O59 O 0.62816 0.57049 0.61881 0.0
O60 O 0.75701 0.70781 0.56231 0.0
O61 O 0.61805 0.78254 0.52933 0.0
C62 C 0.52736 0.94914 0.61891 0.0
O63 O 0.75584 0.80129 0.6761 0.0
O64 O 0.61615 0.72429 0.70827 0.0
In65 In 0.25366 0.12011 0.86941 0.0
O66 O 0.30132 0.25581 0.81214 0.0
O67 O 0.22431 0.11612 0.77996 0.0
C68 C 0.24031 0.20838 0.96722 0.0
C69 C 0.44917 0.02733 0.86932 0.0
C70 C 0.05672 0.02732 0.86999 0.0
O71 O 0.20783 0.25698 0.92592 0.0
O72 O 0.28256 0.11803 0.9589 0.0
O73 O 0.1423 0.97223 0.87012 0.0
O74 O 0.07051 0.12813 0.86943 0.0
C75 C 0.26781 0.20636 0.77114 0.0
O76 O 0.36272 0.97225 0.86927 0.0
O77 O 0.43696 0.12815 0.86959 0.0
In78 In 0.88536 0.75182 0.11883 0.0
O79 O 0.74966 0.70416 0.1761 0.0
O80 O 0.88935 0.78116 0.20827 0.0
C81 C 0.79709 0.76517 0.02102 0.0
C82 C 0.97814 0.55631 0.11891 0.0
C83 C 0.97815 0.94875 0.11825 0.0
O84 O 0.74849 0.79764 0.06231 0.0
O85 O 0.88745 0.72291 0.02933 0.0
O86 O 0.03324 0.86318 0.11811 0.0
O87 O 0.87734 0.93496 0.11881 0.0
C88 C 0.79911 0.73766 0.2171 0.0
O89 O 0.03323 0.64276 0.11896 0.0
O90 O 0.87732 0.56851 0.11865 0.0
In91 In 0.25184 0.38534 0.36941 0.0
O92 O 0.20418 0.24964 0.31214 0.0
O93 O 0.28119 0.38933 0.27996 0.0
C94 C 0.26519 0.29707 0.46722 0.0
C95 C 0.05633 0.47812 0.36932 0.0
C96 C 0.44878 0.47813 0.36999 0.0
O97 O 0.29767 0.24847 0.42592 0.0
O98 O 0.22294 0.38742 0.4589 0.0
O99 O 0.3632 0.53322 0.37012 0.0
O100 O 0.43499 0.37732 0.36943 0.0
C101 C 0.23769 0.29909 0.27114 0.0
O102 O 0.14278 0.5332 0.36927 0.0
O103 O 0.06854 0.3773 0.36959 0.0
loop_
_geom_bond_atom_site_label_1
_geom_bond_atom_site_label_2
_geom_bond_distance
_geom_bond_site_symmetry_2
_ccdc_geom_bond_type
In0 O1 2.294 1_455 S
In0 O2 2.326 . S
In0 O6 2.266 1_455 S
In0 O7 2.326 . S
In0 O8 2.266 . S
In0 O9 2.326 . S
In0 O11 2.294 . S
In0 O12 2.326 . S
O1 In0 2.294 1_655 S
O1 C10 1.240 1_655 S
O2 In0 2.326 . S
O2 C10 1.252 . S
C3 O6 1.252 1_455 S
C3 O7 1.260 . S
C4 O11 1.240 . S
C4 O12 1.252 . S
C5 O8 1.252 . S
C5 O9 1.260 . S
O6 In0 2.266 1_655 S
O6 C3 1.252 1_655 S
O7 In0 2.326 . S
O7 C3 1.260 . S
O8 In0 2.266 . S
O8 C5 1.252 . S
O9 In0 2.326 . S
O9 C5 1.260 . S
C10 O1 1.240 1_455 S
C10 O2 1.252 . S
O11 In0 2.294 . S
O11 C4 1.240 . S
O12 In0 2.326 . S
O12 C4 1.252 . S
In13 O14 2.294 . S
In13 O15 2.326 . S
In13 O19 2.266 . S
In13 O20 2.326 . S
In13 O21 2.266 . S
In13 O22 2.326 . S
In13 O24 2.294 . S
In13 O25 2.326 . S
O14 In13 2.294 . S
O14 C23 1.240 . S
O15 In13 2.326 . S
O15 C23 1.252 . S
C16 O19 1.252 . S
C16 O20 1.260 . S
C17 O24 1.240 . S
C17 O25 1.252 . S
C18 O21 1.252 . S
C18 O22 1.260 . S
O19 In13 2.266 . S
O19 C16 1.252 . S
O20 In13 2.326 . S
O20 C16 1.260 . S
O21 In13 2.266 . S
O21 C18 1.252 . S
O22 In13 2.326 . S
O22 C18 1.260 . S
C23 O14 1.240 . S
C23 O15 1.252 . S
O24 In13 2.294 . S
O24 C17 1.240 . S
O25 In13 2.326 . S
O25 C17 1.252 . S
In26 O27 2.294 . S
In26 O28 2.326 . S
In26 O32 2.266 . S
In26 O33 2.326 . S
In26 O34 2.266 . S
In26 O35 2.326 . S
In26 O37 2.294 . S
In26 O38 2.326 . S
O27 In26 2.294 . S
O27 C36 1.240 . S
O28 In26 2.326 . S
O28 C36 1.252 . S
C29 O32 1.252 . S
C29 O33 1.260 . S
C30 O37 1.240 . S
C30 O38 1.252 . S
C31 O34 1.252 . S
C31 O35 1.260 . S
O32 In26 2.266 . S
O32 C29 1.252 . S
O33 In26 2.326 . S
O33 C29 1.260 . S
O34 In26 2.266 . S
O34 C31 1.252 . S
O35 In26 2.326 . S
O35 C31 1.260 . S
C36 O27 1.240 . S
C36 O28 1.252 . S
O37 In26 2.294 . S
O37 C30 1.240 . S
O38 In26 2.326 . S
O38 C30 1.252 . S
In39 O40 2.294 . S
In39 O41 2.326 . S
In39 O45 2.266 . S
In39 O46 2.326 . S
In39 O47 2.266 1_565 S
In39 O48 2.326 . S
In39 O50 2.294 1_565 S
In39 O51 2.326 . S
O40 In39 2.294 . S
O40 C49 1.240 . S
O41 In39 2.326 . S
O41 C49 1.252 . S
C42 O45 1.252 . S
C42 O46 1.260 . S
C43 O50 1.240 1_565 S
C43 O51 1.252 . S
C44 O47 1.252 1_565 S
C44 O48 1.260 . S
O45 In39 2.266 . S
O45 C42 1.252 . S
O46 In39 2.326 . S
O46 C42 1.260 . S
O47 In39 2.266 1_545 S
O47 C44 1.252 1_545 S
O48 In39 2.326 . S
O48 C44 1.260 . S
C49 O40 1.240 . S
C49 O41 1.252 . S
O50 In39 2.294 1_545 S
O50 C43 1.240 1_545 S
O51 In39 2.326 . S
O51 C43 1.252 . S
In52 O53 2.294 . S
In52 O54 2.326 . S
In52 O58 2.266 . S
In52 O59 2.326 . S
In52 O60 2.266 . S
In52 O61 2.326 . S
In52 O63 2.294 . S
In52 O64 2.326 . S
O53 In52 2.294 . S
O53 C62 1.240 . S
O54 In52 2.326 . S
O54 C62 1.252 . S
C55 O58 1.252 . S
C55 O59 1.260 . S
C56 O63 1.240 . S
C56 O64 1.252 . S
C57 O60 1.252 . S
C57 O61 1.260 . S
O58 In52 2.266 . S
O58 C55 1.252 . S
O59 In52 2.326 . S
O59 C55 1.260 . S
O60 In52 2.266 . S
O60 C57 1.252 . S
O61 In52 2.326 . S
O61 C57 1.260 . S
C62 O53 1.240 . S
C62 O54 1.252 . S
O63 In52 2.294 . S
O63 C56 1.240 . S
O64 In52 2.326 . S
O64 C56 1.252 . S
In65 O66 2.294 . S
In65 O67 2.326 . S
In65 O71 2.266 . S
In65 O72 2.326 . S
In65 O73 2.266 1_545 S
In65 O74 2.326 . S
In65 O76 2.294 1_545 S
In65 O77 2.326 . S
O66 In65 2.294 . S
O66 C75 1.240 . S
O67 In65 2.326 . S
O67 C75 1.252 . S
C68 O71 1.252 . S
C68 O72 1.260 . S
C69 O76 1.240 1_545 S
C69 O77 1.252 . S
C70 O73 1.252 1_545 S
C70 O74 1.260 . S
O71 In65 2.266 . S
O71 C68 1.252 . S
O72 In65 2.326 . S
O72 C68 1.260 . S
O73 In65 2.266 1_565 S
O73 C70 1.252 1_565 S
O74 In65 2.326 . S
O74 C70 1.260 . S
C75 O66 1.240 . S
C75 O67 1.252 . S
O76 In65 2.294 1_565 S
O76 C69 1.240 1_565 S
O77 In65 2.326 . S
O77 C69 1.252 . S
In78 O79 2.294 . S
In78 O80 2.326 . S
In78 O84 2.266 . S
In78 O85 2.326 . S
In78 O86 2.266 1_655 S
In78 O87 2.326 . S
In78 O89 2.294 1_655 S
In78 O90 2.326 . S
O79 In78 2.294 . S
O79 C88 1.240 . S
O80 In78 2.326 . S
O80 C88 1.252 . S
C81 O84 1.252 . S
C81 O85 1.260 . S
C82 O89 1.240 1_655 S
C82 O90 1.252 . S
C83 O86 1.252 1_655 S
C83 O87 1.260 . S
O84 In78 2.266 . S
O84 C81 1.252 . S
O85 In78 2.326 . S
O85 C81 1.260 . S
O86 In78 2.266 1_455 S
O86 C83 1.252 1_455 S
O87 In78 2.326 . S
O87 C83 1.260 . S
C88 O79 1.240 . S
C88 O80 1.252 . S
O89 In78 2.294 1_455 S
O89 C82 1.240 1_455 S
O90 In78 2.326 . S
O90 C82 1.252 . S
In91 O92 2.294 . S
In91 O93 2.326 . S
In91 O97 2.266 . S
In91 O98 2.326 . S
In91 O99 2.266 . S
In91 O100 2.326 . S
In91 O102 2.294 . S
In91 O103 2.326 . S
O92 In91 2.294 . S
O92 C101 1.240 . S
O93 In91 2.326 . S
O93 C101 1.252 . S
C94 O97 1.252 . S
C94 O98 1.260 . S
C95 O102 1.240 . S
C95 O103 1.252 . S
C96 O99 1.252 . S
C96 O100 1.260 . S
O97 In91 2.266 . S
O97 C94 1.252 . S
O98 In91 2.326 . S
O98 C94 1.260 . S
O99 In91 2.266 . S
O99 C96 1.252 . S
O100 In91 2.326 . S
O100 C96 1.260 . S
C101 O92 1.240 . S
C101 O93 1.252 . S
O102 In91 2.294 . S
O102 C95 1.240 . S
O103 In91 2.326 . S
O103 C95 1.252 . S
C5 C68 1.385 1_554 S
C23 C88 1.410 . S
C31 C94 1.385 . S
C49 C56 1.410 . S
C101 C4 1.410 . S
C57 C16 1.385 . S
C30 C75 1.410 . S
C81 C42 1.385 1_554 S
C3 C83 1.555 1_445 S
C95 C17 1.542 1_455 S
C29 C55 1.555 . S
C43 C69 1.542 1_565 S
C82 C10 1.542 1_655 S
C96 C18 1.555 . S
C36 C62 1.542 1_545 S
C44 C70 1.555 1_665 S
