# Generated by pormake.
# Topology pcu, (6)-cn, num edge types: 1
# Building blocks:
#     Node 0, Type 0, BuildingBlock: JUFBIX_clean_sbu_0, # of connection points: 6
#     Edge 1, Type (0, 0), BuildingBlock: ZUJKAS_clean_linker_0, # of connection points: 2
#     Edge 2, Type (0, 0), BuildingBlock: ZUJKAS_clean_linker_0, # of connection points: 2
#     Edge 3, Type (0, 0), BuildingBlock: ZUJKAS_clean_linker_0, # of connection points: 2
# Relax obj value: 0.000
# Max RMSD: 0.000
# Mean RMSD: 0.000
data_MOF--net-pcu--node1-JUFBIX_clean_sbu_0--edge1-ZUJKAS_clean_linker_0
_symmetry_space_group_name_H-M    P1
_symmetry_Int_Tables_number       1
_symmetry_cell_setting            triclinic
loop_
_symmetry_equiv_pos_as_xyz
'x, y, z'
_cell_length_a     19.452416
_cell_length_b     24.309157
_cell_length_c     19.44256
_cell_angle_alpha  86.14949
_cell_angle_beta   92.856671
_cell_angle_gamma 99.178605
loop_
_atom_site_label
_atom_site_type_symbol
_atom_site_fract_x
_atom_site_fract_y
_atom_site_fract_z
_atom_type_partial_charge
Co0 Co 0.99459 0.97677 0.00795 0.0
C1 C 0.00848 0.03168 0.13315 0.0
Co2 Co 0.01461 0.06918 0.99884 0.0
C3 C 0.99639 0.85596 0.00604 0.0
C4 C 0.9184 0.8779 0.06837 0.0
N5 N 0.96946 0.90022 0.02564 0.0
N6 N 0.96422 0.80719 0.03562 0.0
C7 C 0.91499 0.82112 0.07448 0.0
H8 H 0.03992 0.8596 0.97257 0.0
H9 H 0.8863 0.90162 0.09468 0.0
C10 C 1.00072 1.01427 0.87364 0.0
N11 N 0.03973 0.14573 0.98114 0.0
C12 C 0.01281 0.18998 1.00074 0.0
C13 C 0.09079 0.16804 0.93841 0.0
N14 N 0.04498 0.23875 0.97116 0.0
C15 C 0.0942 0.22482 0.93231 0.0
C16 C 0.1338 1.01549 0.00945 0.0
O17 O 0.99144 0.96894 0.91112 0.0
O18 O 0.01103 0.06049 0.90231 0.0
O19 O 0.11056 0.06161 0.00398 0.0
O20 O 0.09092 0.97015 0.01259 0.0
O21 O 0.01776 0.077 0.09567 0.0
H22 H 0.12289 0.14433 0.9121 0.0
H23 H 0.96928 0.18635 0.03422 0.0
O24 O 0.99816 0.98545 0.10447 0.0
O25 O 0.89863 0.98434 1.0028 0.0
O26 O 0.91827 0.0758 0.9942 0.0
C27 C 0.87539 0.03045 0.99733 0.0
H28 H 0.87889 0.79226 0.10525 0.0
H29 H 0.13031 0.25368 0.90153 0.0
H30 H 0.02645 0.12141 0.21491 0.0
H31 H 0.02679 0.11876 0.34147 0.0
H32 H 0.99106 0.93882 0.34939 0.0
H33 H 0.99123 0.94087 0.22405 0.0
H34 H 0.91875 0.06729 0.42913 0.0
H35 H 0.16078 0.97519 0.48195 0.0
H36 H 0.13882 1.00637 0.39845 0.0
H37 H 0.09842 0.93687 0.42465 0.0
C38 C 0.01905 0.08134 0.2437 0.0
C39 C 0.00923 0.03141 0.20937 0.0
C40 C 0.0192 0.07989 0.31588 0.0
C41 C 0.01011 0.02857 0.35471 0.0
C42 C 0.99966 0.97883 0.3205 0.0
H43 H 0.98275 0.92453 0.79188 0.0
H44 H 0.98241 0.92718 0.66531 0.0
C45 C 0.99942 0.98019 0.24869 0.0
C46 C 0.00931 0.02653 0.43098 0.0
H47 H 0.09044 0.97865 0.57765 0.0
C48 C 0.95654 0.0483 0.46169 0.0
C49 C 0.05839 1.00128 0.47318 0.0
C50 C 0.11772 0.97901 0.44304 0.0
C51 C 0.95081 0.04467 0.5336 0.0
C52 C 0.99989 1.01942 0.5758 0.0
C53 C 0.05266 0.99765 0.54509 0.0
C54 C 0.99909 1.01737 0.65207 0.0
C55 C 0.89148 0.06693 0.56374 0.0
C56 C 0.00953 0.06711 0.68629 0.0
C57 C 0.00977 0.06576 0.75809 0.0
C58 C 0.99996 1.01453 0.79742 0.0
C59 C 0.99014 0.9646 0.76308 0.0
C60 C 0.99 0.96606 0.6909 0.0
H61 H 0.84842 0.07075 0.52484 0.0
H62 H 0.87038 0.03958 0.60833 0.0
H63 H 0.91077 0.10908 0.58213 0.0
H64 H 0.01814 0.10712 0.65739 0.0
H65 H 0.01797 0.10507 0.78273 0.0
H66 H 0.20428 0.92568 0.01597 0.0
H67 H 0.33093 0.92799 0.01563 0.0
H68 H 0.36155 0.10794 0.00394 0.0
H69 H 0.23606 0.1062 0.00496 0.0
H70 H 0.42308 0.97913 0.91325 0.0
H71 H 0.49239 0.07073 0.1661 0.0
H72 H 0.4045 0.04028 0.1416 0.0
H73 H 0.43952 0.10964 0.10943 0.0
C74 C 0.23807 0.96569 0.01387 0.0
C75 C 0.21004 1.01571 0.01088 0.0
C76 C 0.31031 0.96694 0.01358 0.0
C77 C 0.35558 1.01815 0.01086 0.0
C78 C 0.32767 0.06799 0.00756 0.0
H79 H 0.80492 0.12027 0.99082 0.0
H80 H 0.67827 0.11795 0.99116 0.0
C81 C 0.25576 0.06683 0.00778 0.0
C82 C 0.43197 1.01989 0.00893 0.0
H83 H 0.58612 0.06681 0.09354 0.0
C84 C 0.45876 0.99792 0.95287 0.0
C85 C 0.47833 0.04486 0.06046 0.0
C86 C 0.45236 0.0673 0.12315 0.0
C87 C 0.53086 1.00108 0.94633 0.0
C88 C 0.57723 0.02605 0.99786 0.0
C89 C 0.55044 0.04802 0.05392 0.0
C90 C 0.65361 0.0278 0.99593 0.0
C91 C 0.55684 0.97865 0.88364 0.0
C92 C 0.68152 0.97795 0.99922 0.0
C93 C 0.75343 0.97911 0.999 0.0
C94 C 0.79915 0.03024 0.99591 0.0
C95 C 0.77113 0.08025 0.99292 0.0
C96 C 0.69888 0.079 0.99321 0.0
H97 H 0.5168 0.97521 0.84069 0.0
H98 H 0.60469 1.00567 0.86519 0.0
H99 H 0.56967 0.93631 0.89736 0.0
H100 H 0.64764 0.938 1.00285 0.0
H101 H 0.77313 0.93975 1.00182 0.0
H102 H 0.94863 0.72226 0.13328 0.0
H103 H 0.96373 0.62579 0.1211 0.0
H104 H 0.02798 0.66834 0.91256 0.0
H105 H 0.01284 0.76562 0.92459 0.0
H106 H 0.8933 0.55427 0.02695 0.0
H107 H 0.17934 0.58178 0.99605 0.0
H108 H 0.13685 0.63529 0.02784 0.0
H109 H 0.13375 0.62477 0.93707 0.0
C110 C 0.96602 0.7112 0.08477 0.0
C111 C 0.97901 0.7515 0.02963 0.0
C112 C 0.97487 0.65605 0.07802 0.0
C113 C 0.99725 0.63988 0.01613 0.0
C114 C 0.01172 0.68013 0.96123 0.0
H115 H 0.06057 0.32369 0.8735 0.0
H116 H 0.04547 0.42016 0.88569 0.0
C117 C 1.00308 0.73563 0.96808 0.0
C118 C 1.00231 0.58034 0.00872 0.0
H119 H 0.1159 0.49168 0.97985 0.0
C120 C 0.942 0.5405 0.01683 0.0
C121 C 0.0659 0.56255 0.99565 0.0
C122 C 0.13286 0.60318 0.98922 0.0
C123 C 0.94331 0.48339 0.01114 0.0
C124 C 0.00689 0.46561 0.99808 0.0
C125 C 0.0672 0.50545 0.98996 0.0
C126 C 0.01195 0.40606 0.99067 0.0
C127 C 0.87635 0.44277 0.01758 0.0
C128 C 0.99748 0.36582 0.04556 0.0
C129 C 1.00612 0.31031 0.03871 0.0
C130 C 0.03019 0.29444 0.97716 0.0
C131 C 0.04318 0.33474 0.92202 0.0
C132 C 0.03433 0.38989 0.92877 0.0
H133 H 0.82987 0.46416 0.01074 0.0
H134 H 0.87236 0.41065 0.97895 0.0
H135 H 0.87546 0.42118 0.06972 0.0
H136 H 0.98123 0.37761 0.09423 0.0
H137 H 0.99637 0.28032 0.0822 0.0
loop_
_geom_bond_atom_site_label_1
_geom_bond_atom_site_label_2
_geom_bond_distance
_geom_bond_site_symmetry_2
_ccdc_geom_bond_type
Co0 N5 2.057 1_556 S
Co0 O17 2.021 . S
Co0 O20 2.062 1_655 S
Co0 O24 2.117 1_556 S
Co0 O25 2.020 . S
C1 O21 1.259 . S
C1 O24 1.258 1_445 S
Co2 N11 2.057 1_554 S
Co2 O18 2.117 1_554 S
Co2 O19 2.020 . S
Co2 O21 2.021 . S
Co2 O26 2.062 1_455 S
C3 N5 1.316 1_556 S
C3 N6 1.347 1_556 S
C3 H8 0.931 . S
C4 N5 1.375 . S
C4 C7 1.350 . S
C4 H9 0.930 . S
N5 Co0 2.057 1_554 S
N5 C3 1.316 1_554 S
N5 C4 1.375 . S
N6 C3 1.347 1_554 S
N6 C7 1.373 . S
C7 C4 1.350 . S
C7 N6 1.373 . S
C7 H28 0.931 . S
H8 C3 0.931 . S
H9 C4 0.930 . S
C10 O17 1.259 . S
C10 O18 1.258 1_665 S
N11 Co2 2.057 1_556 S
N11 C12 1.316 1_556 S
N11 C13 1.375 . S
C12 N11 1.316 1_554 S
C12 N14 1.347 1_554 S
C12 H23 0.931 . S
C13 N11 1.375 . S
C13 C15 1.350 . S
C13 H22 0.930 . S
N14 C12 1.347 1_556 S
N14 C15 1.373 . S
C15 C13 1.350 . S
C15 N14 1.373 . S
C15 H29 0.931 . S
C16 O19 1.262 1_556 S
C16 O20 1.249 1_545 S
O17 Co0 2.021 . S
O17 C10 1.259 . S
O18 Co2 2.117 1_556 S
O18 C10 1.258 1_445 S
O19 Co2 2.020 . S
O19 C16 1.262 1_554 S
O20 Co0 2.062 1_455 S
O20 C16 1.249 1_565 S
O21 C1 1.259 . S
O21 Co2 2.021 . S
H22 C13 0.930 . S
H23 C12 0.931 . S
O24 Co0 2.117 1_554 S
O24 C1 1.258 1_665 S
O25 Co0 2.020 . S
O25 C27 1.259 1_556 S
O26 Co2 2.062 1_655 S
O26 C27 1.252 1_545 S
C27 O25 1.259 1_554 S
C27 O26 1.252 1_565 S
H28 C7 0.931 . S
H29 C15 0.931 . S
H30 C38 0.929 . S
H31 C40 0.930 . S
H32 C42 0.930 . S
H33 C45 0.929 . S
H34 C48 0.930 . S
H35 C50 0.960 . S
H36 C50 0.960 . S
H37 C50 0.960 . S
C38 H30 0.929 . S
C38 C39 1.389 . S
C38 C40 1.384 . S
C39 C38 1.389 . S
C39 C45 1.379 1_445 S
C40 H31 0.930 . S
C40 C38 1.384 . S
C40 C41 1.372 . S
C41 C40 1.372 . S
C41 C42 1.400 1_445 S
C41 C46 1.489 1_455 S
C42 H32 0.930 . S
C42 C41 1.400 1_665 S
C42 C45 1.386 . S
H43 C59 0.930 . S
H44 C60 0.931 . S
C45 H33 0.929 . S
C45 C39 1.379 1_665 S
C45 C42 1.386 . S
C46 C41 1.489 1_655 S
C46 C48 1.403 . S
C46 C49 1.395 1_645 S
H47 C53 0.930 . S
C48 H34 0.930 . S
C48 C46 1.403 . S
C48 C51 1.403 . S
C49 C46 1.395 1_465 S
C49 C50 1.524 . S
C49 C53 1.400 . S
C50 H35 0.960 . S
C50 H36 0.960 . S
C50 H37 0.960 . S
C50 C49 1.524 . S
C51 C48 1.403 . S
C51 C52 1.392 . S
C51 C55 1.495 . S
C52 C51 1.392 . S
C52 C53 1.385 1_645 S
C52 C54 1.478 . S
C53 H47 0.930 . S
C53 C49 1.400 . S
C53 C52 1.385 1_465 S
C54 C52 1.478 . S
C54 C56 1.381 1_655 S
C54 C60 1.383 1_545 S
C55 C51 1.495 . S
C55 H61 0.959 . S
C55 H62 0.961 . S
C55 H63 0.960 . S
C56 C54 1.381 1_455 S
C56 C57 1.394 . S
C56 H64 0.930 . S
C57 C56 1.394 . S
C57 C58 1.383 1_455 S
C57 H65 0.929 . S
C58 C57 1.383 1_655 S
C58 C59 1.377 1_545 S
C59 H43 0.930 . S
C59 C58 1.377 1_565 S
C59 C60 1.379 . S
C60 H44 0.931 . S
C60 C54 1.383 1_565 S
C60 C59 1.379 . S
H61 C55 0.959 . S
H62 C55 0.961 . S
H63 C55 0.960 . S
H64 C56 0.930 . S
H65 C57 0.929 . S
H66 C74 0.929 1_556 S
H67 C76 0.931 . S
H68 C78 0.930 . S
H69 C81 0.929 . S
H70 C84 0.930 . S
H71 C86 0.960 . S
H72 C86 0.960 . S
H73 C86 0.960 . S
C74 H66 0.929 1_554 S
C74 C75 1.385 . S
C74 C76 1.383 1_554 S
C75 C74 1.385 . S
C75 C81 1.384 1_565 S
C76 H67 0.931 . S
C76 C74 1.383 1_556 S
C76 C77 1.372 1_556 S
C77 C76 1.372 1_554 S
C77 C78 1.401 1_565 S
C77 C82 1.489 1_554 S
C78 H68 0.930 . S
C78 C77 1.401 1_545 S
C78 C81 1.386 . S
H79 C95 0.930 . S
H80 C96 0.931 . S
C81 H69 0.929 . S
C81 C75 1.384 1_545 S
C81 C78 1.386 . S
C82 C77 1.489 1_556 S
C82 C84 1.395 . S
C82 C85 1.403 1_566 S
H83 C89 0.930 . S
C84 H70 0.930 . S
C84 C82 1.395 . S
C84 C87 1.403 . S
C85 C82 1.403 1_544 S
C85 C86 1.524 . S
C85 C89 1.400 . S
C86 H71 0.960 . S
C86 H72 0.960 . S
C86 H73 0.960 . S
C86 C85 1.524 . S
C87 C84 1.403 . S
C87 C88 1.392 . S
C87 C91 1.495 . S
C88 C87 1.392 . S
C88 C89 1.385 1_566 S
C88 C90 1.478 . S
C89 H83 0.930 . S
C89 C85 1.400 . S
C89 C88 1.385 1_544 S
C90 C88 1.478 . S
C90 C92 1.381 . S
C90 C96 1.383 1_565 S
C91 C87 1.495 . S
C91 H97 0.959 . S
C91 H98 0.961 . S
C91 H99 0.960 . S
C92 C90 1.381 . S
C92 C93 1.395 . S
C92 H100 0.930 . S
C93 C92 1.395 . S
C93 C94 1.384 . S
C93 H101 0.928 1_556 S
C94 C93 1.384 . S
C94 C95 1.377 1_565 S
C95 H79 0.930 . S
C95 C94 1.377 1_545 S
C95 C96 1.379 . S
C96 H80 0.931 . S
C96 C90 1.383 1_545 S
C96 C95 1.379 . S
H97 C91 0.959 . S
H98 C91 0.961 . S
H99 C91 0.960 . S
H100 C92 0.930 . S
H101 C93 0.928 1_554 S
H102 C110 0.929 . S
H103 C112 0.930 . S
H104 C114 0.930 . S
H105 C117 0.929 . S
H106 C120 0.930 . S
H107 C122 0.960 . S
H108 C122 0.960 . S
H109 C122 0.960 . S
C110 H102 0.929 . S
C110 C111 1.386 . S
C110 C112 1.384 . S
C111 C110 1.386 . S
C111 C117 1.381 1_454 S
C112 H103 0.930 . S
C112 C110 1.384 . S
C112 C113 1.372 . S
C113 C112 1.372 . S
C113 C114 1.400 1_454 S
C113 C118 1.490 1_455 S
C114 H104 0.930 . S
C114 C113 1.400 1_656 S
C114 C117 1.386 . S
H115 C131 0.930 . S
H116 C132 0.931 . S
C117 H105 0.929 . S
C117 C111 1.381 1_656 S
C117 C114 1.386 . S
C118 C113 1.490 1_655 S
C118 C120 1.397 . S
C118 C121 1.400 1_654 S
H119 C125 0.930 . S
C120 H106 0.930 . S
C120 C118 1.397 . S
C120 C123 1.403 . S
C121 C118 1.400 1_456 S
C121 C122 1.524 . S
C121 C125 1.400 . S
C122 H107 0.960 . S
C122 H108 0.960 . S
C122 H109 0.960 . S
C122 C121 1.524 . S
C123 C120 1.403 . S
C123 C124 1.392 . S
C123 C127 1.495 . S
C124 C123 1.392 . S
C124 C125 1.385 1_654 S
C124 C126 1.478 . S
C125 H119 0.930 . S
C125 C121 1.400 . S
C125 C124 1.385 1_456 S
C126 C124 1.478 . S
C126 C128 1.381 1_655 S
C126 C132 1.383 1_554 S
C127 C123 1.495 . S
C127 H133 0.959 . S
C127 H134 0.961 . S
C127 H135 0.960 . S
C128 C126 1.381 1_455 S
C128 C129 1.394 . S
C128 H136 0.930 . S
C129 C128 1.394 . S
C129 C130 1.383 1_455 S
C129 H137 0.929 . S
C130 C129 1.383 1_655 S
C130 C131 1.377 1_554 S
C131 H115 0.930 . S
C131 C130 1.377 1_556 S
C131 C132 1.379 . S
C132 H116 0.931 . S
C132 C126 1.383 1_556 S
C132 C131 1.379 . S
H133 C127 0.959 . S
H134 C127 0.961 . S
H135 C127 0.960 . S
H136 C128 0.930 . S
H137 C129 0.929 . S
C39 C1 1.495 . S
C58 C10 1.493 1_545 S
C75 C16 1.498 1_564 S
C94 C27 1.497 1_556 S
C111 N6 1.467 1_455 S
C130 N14 1.481 1_654 S
