# Generated by pormake.
# Topology pcu, (6)-cn, num edge types: 1
# Building blocks:
#     Node 0, Type 0, BuildingBlock: KUMBUR_clean_sbu_0, # of connection points: 6
#     Edge 1, Type (0, 0), BuildingBlock: KIFKEQ_clean_linker_1, # of connection points: 2
#     Edge 2, Type (0, 0), BuildingBlock: KIFKEQ_clean_linker_1, # of connection points: 2
#     Edge 3, Type (0, 0), BuildingBlock: KIFKEQ_clean_linker_1, # of connection points: 2
# Relax obj value: 0.000
# Max RMSD: 0.000
# Mean RMSD: 0.000
data_MOF--net-pcu--node1-KUMBUR_clean_sbu_0--edge1-KIFKEQ_clean_linker_1
_symmetry_space_group_name_H-M    P1
_symmetry_Int_Tables_number       1
_symmetry_cell_setting            triclinic
loop_
_symmetry_equiv_pos_as_xyz
'x, y, z'
_cell_length_a     14.130213
_cell_length_b     24.472603
_cell_length_c     15.408875
_cell_angle_alpha  115.12991
_cell_angle_beta   74.93731
_cell_angle_gamma 115.42821
loop_
_atom_site_label
_atom_site_type_symbol
_atom_site_fract_x
_atom_site_fract_y
_atom_site_fract_z
_atom_type_partial_charge
Tb0 Tb 0.10843 0.09037 0.03449 0.0
C1 C 0.79152 0.82806 0.81213 0.0
C2 C 0.62394 0.8266 0.90373 0.0
C3 C 0.63136 0.7678 0.73082 0.0
C4 C 0.73449 0.84809 0.89851 0.0
C5 C 0.74074 0.7863 0.72747 0.0
C6 C 0.57297 0.78801 0.81894 0.0
C7 C 0.90833 0.7796 0.64527 0.0
N8 N 0.89663 0.84664 0.81245 0.0
C9 C 0.95501 0.82127 0.73125 0.0
C10 C 0.80095 0.76277 0.64298 0.0
Tb11 Tb 0.96696 0.91588 0.95589 0.0
N12 N 0.78677 0.88421 0.97863 0.0
C13 C 0.73158 0.89556 0.0676 0.0
C14 C 0.5678 0.84203 0.99431 0.0
C15 C 0.62174 0.8754 0.07669 0.0
H16 H 0.03822 0.8344 0.73191 0.0
H17 H 0.5789 0.88613 0.14733 0.0
H18 H 0.48822 0.77169 0.82124 0.0
H19 H 0.95529 0.76075 0.58079 0.0
H20 H 0.77158 0.92176 0.13221 0.0
H21 H 0.49444 0.11611 0.84016 0.0
H22 H 0.4828 0.82653 0.00156 0.0
H23 H 0.03646 0.16684 0.26157 0.0
H24 H 0.30159 0.08017 0.85664 0.0
H25 H 0.12014 0.2382 0.413 0.0
H26 H 0.59085 0.73632 0.66639 0.0
H27 H 0.59254 0.18079 0.9848 0.0
H28 H 0.58891 0.23784 0.1647 0.0
H29 H 0.76495 0.73046 0.57638 0.0
H30 H 0.4869 0.27071 0.32098 0.0
N31 N 0.28845 0.12258 0.01001 0.0
C32 C 0.34254 0.10846 0.92074 0.0
C33 C 0.5075 0.16517 0.99265 0.0
C34 C 0.45226 0.18211 0.08344 0.0
C35 C 0.4524 0.12876 0.91088 0.0
C36 C 0.34158 0.16014 0.08958 0.0
H37 H 0.31191 0.27152 0.41428 0.0
N38 N 0.17888 0.158 0.17832 0.0
C39 C 0.16731 0.22144 0.34718 0.0
C40 C 0.28466 0.1783 0.17706 0.0
C41 C 0.12021 0.18113 0.26115 0.0
C42 C 0.27554 0.24003 0.34767 0.0
C43 C 0.33599 0.21934 0.26156 0.0
O44 O 0.0495 0.16381 0.07036 0.0
O45 O 0.96193 0.01033 0.99788 0.0
O46 O 0.96911 0.94648 0.84085 0.0
O47 O 0.11282 0.04464 0.87571 0.0
O48 O 0.95303 0.0916 0.10868 0.0
O49 O 0.16741 0.1497 0.95122 0.0
O50 O 1.01816 0.83877 0.91858 0.0
O51 O 0.11424 0.99568 0.99141 0.0
O52 O 0.10697 0.0592 0.14798 0.0
O53 O 0.96079 0.96239 0.11512 0.0
O54 O 0.12164 0.91373 0.88196 0.0
O55 O 0.91443 0.86236 0.04684 0.0
C56 C 0.89728 0.03434 0.05691 0.0
C57 C 0.16635 0.25617 0.03418 0.0
C58 C 0.1739 0.36161 0.04841 0.0
C59 C 0.12613 0.29328 0.01558 0.0
C60 C 0.26283 0.39169 0.10027 0.0
C61 C 0.256 0.28738 0.08429 0.0
C62 C 0.30372 0.35474 0.11726 0.0
C63 C 0.04194 0.99583 0.81727 0.0
C64 C 0.11151 0.18532 0.00378 0.0
C65 C 0.44592 0.2396 0.25675 0.0
C66 C 0.50399 0.22096 0.16777 0.0
C67 C 0.17846 0.97079 0.93311 0.0
C68 C 0.89879 0.75266 0.96975 0.0
C69 C 0.9419 0.71284 0.9773 0.0
C70 C 0.8814 0.64696 0.96207 0.0
C71 C 0.77776 0.62125 0.93768 0.0
C72 C 0.79541 0.7259 0.9447 0.0
C73 C 0.73548 0.66048 0.92849 0.0
C74 C 1.03237 0.01114 0.17293 0.0
C75 C 0.96163 0.82217 0.99106 0.0
H76 H 0.05799 0.26862 0.97511 0.0
H77 H 0.30032 0.44394 0.12916 0.0
H78 H 0.28885 0.25991 0.09845 0.0
H79 H 0.37226 0.3785 0.15694 0.0
H80 H 1.02151 0.73348 0.99735 0.0
H81 H 0.72975 0.57066 0.92501 0.0
H82 H 0.76053 0.75553 0.93869 0.0
H83 H 0.6557 0.64022 0.90941 0.0
H84 H 0.1974 0.07007 0.28153 0.0
H85 H 0.86635 0.95165 0.28087 0.0
H86 H 0.20069 0.06531 0.43456 0.0
H87 H 0.86703 0.95053 0.4379 0.0
H88 H 0.9153 0.90507 0.67344 0.0
H89 H 0.91512 0.90835 0.51884 0.0
H90 H 0.15763 0.09994 0.59704 0.0
H91 H 0.16445 0.09354 0.74787 0.0
C92 C 0.12472 0.0438 0.31501 0.0
C93 C 1.03165 0.01095 0.2689 0.0
C94 C 0.12629 0.04145 0.40359 0.0
C95 C 1.03415 0.00748 0.44978 0.0
C96 C 0.94038 0.97587 0.40417 0.0
C97 C 0.9395 0.97693 0.31429 0.0
C98 C 0.97054 0.94715 0.65681 0.0
C99 C 0.04169 0.99817 0.72259 0.0
C100 C 0.96897 0.94975 0.56836 0.0
C101 C 0.03634 0.00448 0.54422 0.0
C102 C 0.10619 0.05615 0.61115 0.0
C103 C 0.10958 0.05274 0.69856 0.0
H104 H 0.32381 0.92595 0.80505 0.0
H105 H 0.27045 0.03711 0.10413 0.0
H106 H 0.49132 0.93501 0.83406 0.0
H107 H 0.44321 0.05525 0.13183 0.0
H108 H 0.72925 0.04422 0.18702 0.0
H109 H 0.55534 0.02575 0.15826 0.0
H110 H 0.65943 0.987 0.85452 0.0
H111 H 0.82822 0.99882 0.88398 0.0
C112 C 0.34974 0.95434 0.87664 0.0
C113 C 0.28531 0.98314 0.95135 0.0
C114 C 0.4471 0.96037 0.89352 0.0
C115 C 0.48459 0.99695 0.98549 0.0
C116 C 0.41891 0.02558 0.06015 0.0
C117 C 0.31968 0.01694 0.04384 0.0
C118 C 0.71339 0.03062 0.11405 0.0
C119 C 0.79081 0.0208 0.03747 0.0
C120 C 0.61371 0.02093 0.09713 0.0
C121 C 0.59045 0.00478 0.00345 0.0
C122 C 0.67051 0.99705 0.92732 0.0
C123 C 0.76862 0.00415 0.94401 0.0
H124 H 0.79223 0.56838 0.06733 0.0
H125 H 0.06887 0.63119 0.88161 0.0
H126 H 0.86286 0.49964 0.08642 0.0
H127 H 0.13808 0.55996 0.89606 0.0
H128 H 0.28295 0.47581 0.01471 0.0
H129 H 0.21319 0.54469 0.99653 0.0
H130 H 0.89777 0.40491 0.01353 0.0
H131 H 0.96689 0.3389 0.04079 0.0
C132 C 0.86784 0.56679 0.02969 0.0
C133 C 0.92516 0.60513 0.97311 0.0
C134 C 0.90824 0.52698 0.03995 0.0
C135 C 1.00638 0.52357 0.99249 0.0
C136 C 0.06329 0.56191 0.93532 0.0
C137 C 1.02357 0.60262 0.9265 0.0
C138 C 0.19848 0.46006 0.01628 0.0
C139 C 0.13089 0.40169 0.03037 0.0
C140 C 0.15836 0.49928 0.004 0.0
C141 C 0.0494 0.48086 0.00357 0.0
C142 C 0.98194 0.42168 0.01522 0.0
C143 C 1.02197 0.38296 0.02917 0.0
loop_
_geom_bond_atom_site_label_1
_geom_bond_atom_site_label_2
_geom_bond_distance
_geom_bond_site_symmetry_2
_ccdc_geom_bond_type
Tb0 N31 2.660 1_554 S
Tb0 N38 2.600 . S
Tb0 O44 2.546 . S
Tb0 O45 2.610 1_444 S
Tb0 O47 2.320 1_554 S
Tb0 O48 2.552 1_455 S
Tb0 O49 2.413 . S
Tb0 O51 2.362 . S
Tb0 O52 2.422 1_455 S
Tb0 C64 2.833 . S
C1 C4 1.432 . S
C1 C5 1.414 . S
C1 N8 1.359 . S
C2 C4 1.417 . S
C2 C6 1.432 . S
C2 C14 1.410 1_556 S
C3 C5 1.444 . S
C3 C6 1.317 . S
C3 H26 0.929 . S
C4 C1 1.432 . S
C4 C2 1.417 . S
C4 N12 1.360 1_556 S
C5 C1 1.414 . S
C5 C3 1.444 . S
C5 C10 1.385 . S
C6 C2 1.432 . S
C6 C3 1.317 . S
C6 H18 0.930 . S
C7 C9 1.392 . S
C7 C10 1.370 . S
C7 H19 0.931 . S
N8 C1 1.359 . S
N8 C9 1.327 . S
N8 Tb11 2.600 . S
C9 C7 1.392 . S
C9 N8 1.327 . S
C9 H16 0.930 . S
C10 C5 1.385 . S
C10 C7 1.370 . S
C10 H29 0.930 . S
Tb11 N8 2.600 . S
Tb11 N12 2.660 1_556 S
Tb11 O45 2.362 . S
Tb11 O46 2.421 1_655 S
Tb11 O50 2.546 . S
Tb11 O51 2.610 1_666 S
Tb11 O53 2.320 1_556 S
Tb11 O54 2.552 1_655 S
Tb11 O55 2.413 . S
Tb11 C75 2.833 . S
N12 C4 1.360 1_554 S
N12 Tb11 2.660 1_554 S
N12 C13 1.305 . S
C13 N12 1.305 . S
C13 C15 1.407 . S
C13 H20 0.930 . S
C14 C2 1.410 1_554 S
C14 C15 1.345 . S
C14 H22 0.930 . S
C15 C13 1.407 . S
C15 C14 1.345 . S
C15 H17 0.930 . S
H16 C9 0.930 . S
H17 C15 0.930 . S
H18 C6 0.930 . S
H19 C7 0.931 . S
H20 C13 0.930 . S
H21 C35 0.930 . S
H22 C14 0.930 . S
H23 C41 0.930 . S
H24 C32 0.930 . S
H25 C39 0.931 . S
H26 C3 0.929 . S
H27 C33 0.930 . S
H28 C66 0.930 . S
H29 C10 0.930 . S
H30 C65 0.929 . S
N31 Tb0 2.660 1_556 S
N31 C32 1.305 . S
N31 C36 1.360 1_556 S
C32 H24 0.930 . S
C32 N31 1.305 . S
C32 C35 1.407 . S
C33 H27 0.930 . S
C33 C34 1.410 1_556 S
C33 C35 1.345 . S
C34 C33 1.410 1_554 S
C34 C36 1.417 . S
C34 C66 1.432 . S
C35 H21 0.930 . S
C35 C32 1.407 . S
C35 C33 1.345 . S
C36 N31 1.360 1_554 S
C36 C34 1.417 . S
C36 C40 1.432 . S
H37 C42 0.930 . S
N38 Tb0 2.600 . S
N38 C40 1.359 . S
N38 C41 1.327 . S
C39 H25 0.931 . S
C39 C41 1.392 . S
C39 C42 1.370 . S
C40 C36 1.432 . S
C40 N38 1.359 . S
C40 C43 1.414 . S
C41 H23 0.930 . S
C41 N38 1.327 . S
C41 C39 1.392 . S
C42 H37 0.930 . S
C42 C39 1.370 . S
C42 C43 1.385 . S
C43 C40 1.414 . S
C43 C42 1.385 . S
C43 C65 1.444 . S
O44 Tb0 2.546 . S
O44 C64 1.251 . S
O45 Tb0 2.610 1_666 S
O45 Tb11 2.362 . S
O45 C56 1.283 1_566 S
O46 Tb11 2.421 1_455 S
O46 C63 1.262 . S
O47 Tb0 2.320 1_556 S
O47 C63 1.260 1_545 S
O48 Tb0 2.552 1_655 S
O48 C56 1.243 . S
O49 Tb0 2.413 . S
O49 C64 1.256 . S
O50 Tb11 2.546 . S
O50 C75 1.251 . S
O51 Tb0 2.362 . S
O51 Tb11 2.610 1_444 S
O51 C67 1.283 1_544 S
O52 Tb0 2.422 1_655 S
O52 C74 1.258 . S
O53 Tb11 2.320 1_554 S
O53 C74 1.260 1_565 S
O54 Tb11 2.552 1_455 S
O54 C67 1.243 . S
O55 Tb11 2.413 . S
O55 C75 1.256 . S
C56 O45 1.283 1_544 S
C56 O48 1.243 . S
C57 C59 1.382 . S
C57 C61 1.393 . S
C57 C64 1.500 . S
C58 C59 1.400 . S
C58 C60 1.384 . S
C59 C57 1.382 . S
C59 C58 1.400 . S
C59 H76 0.930 1_554 S
C60 C58 1.384 . S
C60 C62 1.392 . S
C60 H77 0.931 . S
C61 C57 1.393 . S
C61 C62 1.401 . S
C61 H78 0.930 . S
C62 C60 1.392 . S
C62 C61 1.401 . S
C62 H79 0.930 . S
C63 O46 1.262 . S
C63 O47 1.260 1_565 S
C64 Tb0 2.833 . S
C64 O44 1.251 . S
C64 O49 1.256 . S
C64 C57 1.500 . S
C65 H30 0.929 . S
C65 C43 1.444 . S
C65 C66 1.317 . S
C66 H28 0.930 . S
C66 C34 1.432 . S
C66 C65 1.317 . S
C67 O51 1.283 1_566 S
C67 O54 1.243 . S
C68 C69 1.382 . S
C68 C72 1.393 . S
C68 C75 1.500 . S
C69 C68 1.382 . S
C69 C70 1.400 . S
C69 H80 0.930 1_556 S
C70 C69 1.400 . S
C70 C71 1.384 . S
C71 C70 1.384 . S
C71 C73 1.392 . S
C71 H81 0.931 . S
C72 C68 1.393 . S
C72 C73 1.401 . S
C72 H82 0.930 . S
C73 C71 1.392 . S
C73 C72 1.401 . S
C73 H83 0.930 . S
C74 O52 1.258 . S
C74 O53 1.260 1_545 S
C75 Tb11 2.833 . S
C75 O50 1.251 . S
C75 O55 1.256 . S
C75 C68 1.500 . S
H76 C59 0.930 1_556 S
H77 C60 0.931 . S
H78 C61 0.930 . S
H79 C62 0.930 . S
H80 C69 0.930 1_554 S
H81 C71 0.931 . S
H82 C72 0.930 . S
H83 C73 0.930 . S
H84 C92 0.950 . S
H85 C97 0.968 1_565 S
H86 C94 0.950 . S
H87 C96 0.950 . S
H88 C98 0.950 . S
H89 C100 0.950 . S
H90 C102 0.950 . S
H91 C103 0.955 1_545 S
C92 H84 0.950 . S
C92 C93 1.386 . S
C92 C94 1.391 . S
C93 C92 1.386 . S
C93 C97 1.391 1_455 S
C94 H86 0.950 . S
C94 C92 1.391 . S
C94 C95 1.406 . S
C95 C94 1.406 . S
C95 C96 1.390 1_455 S
C95 C101 1.495 1_445 S
C96 H87 0.950 . S
C96 C95 1.390 1_655 S
C96 C97 1.384 . S
C97 H85 0.968 1_545 S
C97 C93 1.391 1_655 S
C97 C96 1.384 . S
C98 H88 0.950 . S
C98 C99 1.398 . S
C98 C100 1.391 . S
C99 C98 1.398 . S
C99 C103 1.383 1_655 S
C100 H89 0.950 . S
C100 C98 1.391 . S
C100 C101 1.404 . S
C101 C95 1.495 1_665 S
C101 C100 1.404 . S
C101 C102 1.393 1_655 S
C102 H90 0.950 . S
C102 C101 1.393 1_455 S
C102 C103 1.386 . S
C103 H91 0.955 1_565 S
C103 C99 1.383 1_455 S
C103 C102 1.386 . S
H104 C112 0.950 . S
H105 C117 0.950 . S
H106 C114 0.950 . S
H107 C116 0.950 . S
H108 C118 0.950 . S
H109 C120 0.950 . S
H110 C122 0.950 . S
H111 C123 0.950 . S
C112 H104 0.950 . S
C112 C113 1.376 1_565 S
C112 C114 1.391 . S
C113 C112 1.376 1_545 S
C113 C117 1.397 1_556 S
C114 H106 0.950 . S
C114 C112 1.391 . S
C114 C115 1.398 1_565 S
C115 C114 1.398 1_545 S
C115 C116 1.403 1_556 S
C115 C121 1.489 1_546 S
C116 H107 0.950 . S
C116 C115 1.403 1_554 S
C116 C117 1.391 . S
C117 H105 0.950 . S
C117 C113 1.397 1_554 S
C117 C116 1.391 . S
C118 H108 0.950 . S
C118 C119 1.381 1_545 S
C118 C120 1.391 . S
C119 C118 1.381 1_565 S
C119 C123 1.395 1_554 S
C120 H109 0.950 . S
C120 C118 1.391 . S
C120 C121 1.401 1_545 S
C121 C115 1.489 1_564 S
C121 C120 1.401 1_565 S
C121 C122 1.398 1_554 S
C122 H110 0.950 . S
C122 C121 1.398 1_556 S
C122 C123 1.391 . S
C123 H111 0.950 . S
C123 C119 1.395 1_556 S
C123 C122 1.391 . S
H124 C132 0.950 . S
H125 C137 0.950 . S
H126 C134 0.950 . S
H127 C136 0.950 . S
H128 C138 0.950 . S
H129 C140 0.950 . S
H130 C142 0.950 . S
H131 C143 0.950 . S
C132 H124 0.950 . S
C132 C133 1.386 1_655 S
C132 C134 1.391 . S
C133 C132 1.386 1_455 S
C133 C137 1.393 1_556 S
C134 H126 0.950 . S
C134 C132 1.391 . S
C134 C135 1.400 1_655 S
C135 C134 1.400 1_455 S
C135 C136 1.398 1_556 S
C135 C141 1.491 1_456 S
C136 H127 0.950 . S
C136 C135 1.398 1_554 S
C136 C137 1.391 . S
C137 H125 0.950 . S
C137 C133 1.393 1_554 S
C137 C136 1.391 . S
C138 H128 0.950 . S
C138 C139 1.386 1_455 S
C138 C140 1.391 . S
C139 C138 1.386 1_655 S
C139 C143 1.393 1_554 S
C140 H129 0.950 . S
C140 C138 1.391 . S
C140 C141 1.400 1_455 S
C141 C135 1.491 1_654 S
C141 C140 1.400 1_655 S
C141 C142 1.398 1_554 S
C142 H130 0.950 . S
C142 C141 1.398 1_556 S
C142 C143 1.391 . S
C143 H131 0.950 . S
C143 C139 1.393 1_556 S
C143 C142 1.391 . S
C93 C74 1.468 1_455 S
C99 C63 1.462 1_655 S
C113 C67 1.437 1_545 S
C119 C56 1.436 1_565 S
C133 C70 1.316 1_455 S
C139 C58 1.316 1_655 S
