# Generated by pormake.
# Topology pcu, (6)-cn, num edge types: 1
# Building blocks:
#     Node 0, Type 0, BuildingBlock: NUHQIS_clean_sbu_0, # of connection points: 6
#     Edge 1, Type (0, 0), BuildingBlock: OJICUG_clean_linker_0, # of connection points: 2
#     Edge 2, Type (0, 0), BuildingBlock: OJICUG_clean_linker_0, # of connection points: 2
#     Edge 3, Type (0, 0), BuildingBlock: OJICUG_clean_linker_0, # of connection points: 2
# Relax obj value: 0.000
# Max RMSD: 0.000
# Mean RMSD: 0.000
data_MOF--net-pcu--node1-NUHQIS_clean_sbu_0--edge1-OJICUG_clean_linker_0
_symmetry_space_group_name_H-M    P1
_symmetry_Int_Tables_number       1
_symmetry_cell_setting            triclinic
loop_
_symmetry_equiv_pos_as_xyz
'x, y, z'
_cell_length_a     21.148227
_cell_length_b     11.217345
_cell_length_c     11.089442
_cell_angle_alpha  91.418071
_cell_angle_beta   96.710692
_cell_angle_gamma 121.27918
loop_
_atom_site_label
_atom_site_type_symbol
_atom_site_fract_x
_atom_site_fract_y
_atom_site_fract_z
_atom_type_partial_charge
Tb0 Tb 0.9443 0.88441 0.97312 0.0
Eu1 Eu 0.1319 0.06623 0.01717 0.0
C2 C 1.03575 0.96525 0.75349 0.0
C3 C 1.03266 0.72746 -0.0117 0.0
C4 C 0.75007 0.80887 0.9468 0.0
C5 C 0.62332 0.76182 0.90388 0.0
C6 C 0.67421 0.71791 0.89991 0.0
C7 C 0.77465 0.94497 -0.00384 0.0
C8 C 0.72404 -0.01091 -3e-05 0.0
C9 C 0.64754 0.89768 0.95502 0.0
C10 C 0.80281 0.76019 0.94829 0.0
O11 O 0.98376 0.87714 0.16124 0.0
O12 O 0.09462 0.08816 0.19308 0.0
O13 O 0.09845 0.22216 0.97458 0.0
O14 O 0.97719 0.10115 0.01662 0.0
C15 C 1.03817 -0.01638 0.23473 0.0
O16 O 0.23691 0.13013 0.13395 0.0
O17 O 0.23898 0.20262 0.95451 0.0
O18 O 0.09262 0.97275 0.82255 0.0
O19 O 0.98001 0.95996 0.79971 0.0
O20 O 0.97231 0.72608 0.93981 0.0
O21 O 0.09405 0.84219 0.03982 0.0
C22 C 1.03683 0.2167 -0.0065 0.0
O23 O 0.84037 0.78814 0.85722 0.0
O24 O 0.84586 0.78679 0.05172 0.0
C25 C 0.332 0.15452 0.02751 0.0
C26 C 0.43568 0.07387 -0.0041 0.0
C27 C 0.4601 0.20876 0.04972 0.0
C28 C 0.40866 0.24855 0.06542 0.0
C29 C 0.30725 0.0207 0.97202 0.0
C30 C 0.35862 -0.01928 0.9562 0.0
C31 C 0.27802 0.19439 0.05056 0.0
H32 H 0.56475 0.6882 0.86968 0.0
H33 H 0.65412 0.61219 0.862 0.0
H34 H 0.83289 0.0165 0.03354 0.0
H35 H 0.74492 0.09498 0.03829 0.0
H36 H 0.51906 0.28375 0.07971 0.0
H37 H 0.4287 0.35231 0.10835 0.0
H38 H 0.24809 0.94652 0.94263 0.0
H39 H 0.33777 0.87566 0.91572 0.0
C40 C 0.10508 0.04639 0.44903 0.0
C41 C 1.03762 -0.01906 0.36745 0.0
H42 H 0.15726 0.08989 0.63549 0.0
C43 C 0.96946 0.91015 0.41358 0.0
H44 H 0.15839 0.10092 0.41572 0.0
C45 C 0.96877 0.90617 0.53932 0.0
C46 C 1.03624 0.96961 0.62079 0.0
H47 H 0.91665 0.85914 0.35248 0.0
H48 H 0.91548 0.85175 0.57268 0.0
C49 C 0.10441 0.03921 0.57454 0.0
C50 C 0.54898 0.06599 0.07967 0.0
C51 C 0.49017 0.02948 0.98422 0.0
H52 H 0.64349 0.05126 0.1463 0.0
C53 C 0.48344 0.949 0.87872 0.0
H54 H 0.55502 0.12552 0.16318 0.0
C55 C 0.53438 0.90635 0.86893 0.0
C56 C 0.59325 0.9431 0.96444 0.0
H57 H 0.43933 0.92044 0.80289 0.0
H58 H 0.52823 0.84619 0.78577 0.0
C59 C 0.59978 0.02332 0.06995 0.0
C60 C 0.101 0.60076 0.00444 0.0
C61 C 1.03267 0.59569 0.98606 0.0
H62 H 0.15582 0.48552 0.02057 0.0
C63 C 0.96543 0.46461 0.96858 0.0
H64 H 0.15389 0.70007 0.01749 0.0
C65 C 0.96663 0.34115 0.97168 0.0
C66 C 1.03507 0.34659 -0.00936 0.0
H67 H 0.91194 0.45737 0.95439 0.0
H68 H 0.91398 0.24161 0.95801 0.0
C69 C 0.10218 0.47767 0.00588 0.0
loop_
_geom_bond_atom_site_label_1
_geom_bond_atom_site_label_2
_geom_bond_distance
_geom_bond_site_symmetry_2
_ccdc_geom_bond_type
Tb0 C10 2.825 . S
Tb0 O11 2.347 1_556 S
Tb0 O14 2.366 1_565 S
Tb0 O19 2.418 . S
Tb0 O20 2.384 . S
Tb0 O23 2.479 . S
Tb0 O24 2.471 1_556 S
Eu1 O12 2.418 . S
Eu1 O13 2.384 . S
Eu1 O16 2.479 . S
Eu1 O17 2.471 1_554 S
Eu1 O18 2.347 1_554 S
Eu1 O21 2.366 1_545 S
Eu1 C31 2.825 . S
C2 O18 1.259 1_665 S
C2 O19 1.265 . S
C3 O20 1.255 1_554 S
C3 O21 1.265 1_655 S
C4 C6 1.380 . S
C4 C7 1.374 1_566 S
C4 C10 1.507 . S
C5 C6 1.384 . S
C5 C9 1.387 . S
C5 H32 0.930 . S
C6 C4 1.380 . S
C6 C5 1.384 . S
C6 H33 0.931 . S
C7 C4 1.374 1_544 S
C7 C8 1.390 . S
C7 H34 0.930 . S
C8 C7 1.390 . S
C8 C9 1.391 1_544 S
C8 H35 0.930 . S
C9 C5 1.387 . S
C9 C8 1.391 1_566 S
C10 Tb0 2.825 . S
C10 C4 1.507 . S
C10 O23 1.238 . S
C10 O24 1.247 1_556 S
O11 Tb0 2.347 1_554 S
O11 C15 1.259 1_665 S
O12 Eu1 2.418 . S
O12 C15 1.265 . S
O13 Eu1 2.384 . S
O13 C22 1.255 . S
O14 Tb0 2.366 1_545 S
O14 C22 1.265 1_656 S
C15 O11 1.259 1_445 S
C15 O12 1.265 . S
O16 Eu1 2.479 . S
O16 C31 1.238 . S
O17 Eu1 2.471 1_556 S
O17 C31 1.247 1_556 S
O18 Eu1 2.347 1_556 S
O18 C2 1.259 1_445 S
O19 Tb0 2.418 . S
O19 C2 1.265 . S
O20 Tb0 2.384 . S
O20 C3 1.255 1_556 S
O21 Eu1 2.366 1_565 S
O21 C3 1.265 1_455 S
C22 O13 1.255 . S
C22 O14 1.265 1_454 S
O23 Tb0 2.479 . S
O23 C10 1.238 . S
O24 Tb0 2.471 1_554 S
O24 C10 1.247 1_554 S
C25 C28 1.380 . S
C25 C29 1.374 1_544 S
C25 C31 1.507 . S
C26 C27 1.387 . S
C26 C30 1.391 1_544 S
C27 C26 1.387 . S
C27 C28 1.384 . S
C27 H36 0.930 . S
C28 C25 1.380 . S
C28 C27 1.384 . S
C28 H37 0.931 . S
C29 C25 1.374 1_566 S
C29 C30 1.390 . S
C29 H38 0.930 . S
C30 C26 1.391 1_566 S
C30 C29 1.390 . S
C30 H39 0.930 . S
C31 Eu1 2.825 . S
C31 O16 1.238 . S
C31 O17 1.247 1_554 S
C31 C25 1.507 . S
H32 C5 0.930 . S
H33 C6 0.931 . S
H34 C7 0.930 . S
H35 C8 0.930 . S
H36 C27 0.930 . S
H37 C28 0.931 . S
H38 C29 0.930 . S
H39 C30 0.930 . S
C40 C41 1.387 . S
C40 H44 0.950 . S
C40 C49 1.390 . S
C41 C40 1.387 . S
C41 C43 1.387 1_445 S
H42 C49 0.950 . S
C43 C41 1.387 1_665 S
C43 C45 1.390 . S
C43 H47 0.950 . S
H44 C40 0.950 . S
C45 C43 1.390 . S
C45 C46 1.387 1_565 S
C45 H48 0.950 . S
C46 C45 1.387 1_545 S
C46 C49 1.388 1_655 S
H47 C43 0.950 . S
H48 C45 0.950 . S
C49 C40 1.390 . S
C49 H42 0.950 . S
C49 C46 1.388 1_455 S
C50 C51 1.385 1_565 S
C50 H54 0.950 . S
C50 C59 1.390 . S
C51 C50 1.385 1_545 S
C51 C53 1.385 1_554 S
H52 C59 0.950 . S
C53 C51 1.385 1_556 S
C53 C55 1.390 . S
C53 H57 0.950 . S
H54 C50 0.950 . S
C55 C53 1.390 . S
C55 C56 1.385 1_545 S
C55 H58 0.950 . S
C56 C55 1.385 1_565 S
C56 C59 1.387 1_556 S
H57 C53 0.950 . S
H58 C55 0.950 . S
C59 C50 1.390 . S
C59 H52 0.950 . S
C59 C56 1.387 1_554 S
C60 C61 1.387 1_554 S
C60 H64 0.950 . S
C60 C69 1.390 . S
C61 C60 1.387 1_556 S
C61 C63 1.387 1_455 S
H62 C69 0.950 . S
C63 C61 1.387 1_655 S
C63 C65 1.390 . S
C63 H67 0.950 . S
H64 C60 0.950 . S
C65 C63 1.390 . S
C65 C66 1.387 1_656 S
C65 H68 0.950 . S
C66 C65 1.387 1_454 S
C66 C69 1.387 . S
H67 C63 0.950 . S
H68 C65 0.950 . S
C69 C60 1.390 . S
C69 H62 0.950 . S
C69 C66 1.387 . S
C41 C15 1.470 . S
C46 C2 1.469 1_545 S
C51 C26 1.498 . S
C56 C9 1.496 . S
C61 C3 1.500 1_456 S
C66 C22 1.500 . S
