# Generated by pormake.
# Topology pcu, (6)-cn, num edge types: 1
# Building blocks:
#     Node 0, Type 0, BuildingBlock: KUMBUR_clean_sbu_0, # of connection points: 6
#     Edge 1, Type (0, 0), BuildingBlock: FUNLAD_clean_linker_0, # of connection points: 2
#     Edge 2, Type (0, 0), BuildingBlock: FUNLAD_clean_linker_0, # of connection points: 2
#     Edge 3, Type (0, 0), BuildingBlock: FUNLAD_clean_linker_0, # of connection points: 2
# Relax obj value: 0.000
# Max RMSD: 0.000
# Mean RMSD: 0.000
data_MOF--net-pcu--node1-KUMBUR_clean_sbu_0--edge1-FUNLAD_clean_linker_0
_symmetry_space_group_name_H-M    P1
_symmetry_Int_Tables_number       1
_symmetry_cell_setting            triclinic
loop_
_symmetry_equiv_pos_as_xyz
'x, y, z'
_cell_length_a     16.462073
_cell_length_b     26.939696
_cell_length_c     17.650321
_cell_angle_alpha  115.499
_cell_angle_beta   75.008066
_cell_angle_gamma 116.38031
loop_
_atom_site_label
_atom_site_type_symbol
_atom_site_fract_x
_atom_site_fract_y
_atom_site_fract_z
_atom_type_partial_charge
Tb0 Tb 0.08956 0.08559 0.03109 0.0
C1 C 0.80998 0.83922 0.85082 0.0
C2 C 0.6669 0.8391 0.93161 0.0
C3 C 0.66912 0.77954 0.7819 0.0
C4 C 0.76254 0.85954 0.92614 0.0
C5 C 0.76395 0.79796 0.77805 0.0
C6 C 0.62063 0.80012 0.85863 0.0
C7 C 0.9077 0.79251 0.70561 0.0
N8 N 0.90124 0.85779 0.85013 0.0
C9 C 0.95011 0.83333 0.77968 0.0
C10 C 0.81435 0.77528 0.70446 0.0
Tb11 Tb 0.96522 0.92568 0.97371 0.0
N12 N 0.80984 0.89647 0.99516 0.0
C13 C 0.76438 0.91111 0.07316 0.0
C14 C 0.62062 0.85695 0.01062 0.0
C15 C 0.66952 0.89235 0.08186 0.0
H16 H 1.02236 0.84661 0.77984 0.0
H17 H 0.63426 0.90544 0.14356 0.0
H18 H 0.54724 0.7844 0.86133 0.0
H19 H 0.94703 0.7744 0.6495 0.0
H20 H 0.80074 0.93865 0.12901 0.0
H21 H 0.4204 0.10587 0.86095 0.0
H22 H 0.54718 0.84241 0.01757 0.0
H23 H 0.0326 0.16463 0.22507 0.0
H24 H 0.25393 0.07266 0.87564 0.0
H25 H 0.10805 0.23678 0.35537 0.0
H26 H 0.63246 0.74827 0.72651 0.0
H27 H 0.50761 0.16883 0.98686 0.0
H28 H 0.50768 0.22677 0.14312 0.0
H29 H 0.78159 0.74349 0.64713 0.0
H30 H 0.42258 0.26286 0.27804 0.0
N31 N 0.24494 0.11481 0.0095 0.0
C32 C 0.29034 0.10018 0.93147 0.0
C33 C 0.43417 0.15431 0.99388 0.0
C34 C 0.38795 0.17212 0.07293 0.0
C35 C 0.3852 0.11893 0.92268 0.0
C36 C 0.29231 0.15169 0.07849 0.0
H37 H 0.2735 0.26764 0.35758 0.0
N38 N 0.15366 0.15342 0.15465 0.0
C39 C 0.14733 0.21867 0.2992 0.0
C40 C 0.24493 0.17198 0.15387 0.0
C41 C 0.10486 0.17789 0.22516 0.0
C42 C 0.24069 0.23588 0.30027 0.0
C43 C 0.29102 0.21321 0.22661 0.0
O44 O 0.04311 0.15312 0.05717 0.0
O45 O 0.96203 0.011 0.00295 0.0
O46 O 0.96622 0.9475 0.86796 0.0
O47 O 0.09094 0.03823 0.89268 0.0
O48 O 0.95648 0.08786 0.09411 0.0
O49 O 0.13716 0.13288 0.94948 0.0
O50 O 1.01159 0.85814 0.94777 0.0
O51 O 0.09266 0.00025 0.0017 0.0
O52 O 0.08864 0.06372 0.13677 0.0
O53 O 0.96379 0.97307 0.11212 0.0
O54 O 0.09838 0.9234 0.91087 0.0
O55 O 0.91756 0.87848 0.05544 0.0
C56 C 0.90723 0.03412 0.05197 0.0
C57 C 0.14739 0.23256 0.01458 0.0
C58 C 0.15771 0.32919 0.02708 0.0
C59 C 0.10873 0.26757 0.00795 0.0
C60 C 0.24591 0.35514 0.05345 0.0
C61 C 0.23558 0.25941 0.04053 0.0
C62 C 0.28433 0.32039 0.06007 0.0
C63 C 0.02907 0.9909 0.84336 0.0
C64 C 0.09438 0.16839 0.99483 0.0
C65 C 0.38586 0.23162 0.22267 0.0
C66 C 0.43429 0.21106 0.14589 0.0
C67 C 0.14759 0.97718 0.95288 0.0
C68 C 0.90725 0.77877 0.9905 0.0
C69 C 0.94587 0.74377 -0.00282 0.0
C70 C 0.89684 0.68216 0.97812 0.0
C71 C 0.80864 0.65622 0.95179 0.0
C72 C 0.81904 0.75193 0.96459 0.0
C73 C 0.77024 0.69097 0.94513 0.0
C74 C 0.02575 0.02034 0.16138 0.0
C75 C 0.9603 0.84293 0.01015 0.0
H76 H 0.04021 0.24683 0.98865 0.0
H77 H 0.28594 0.40218 0.06757 0.0
H78 H 0.26705 0.2334 0.04529 0.0
H79 H 0.35244 0.34075 0.0799 0.0
H80 H 1.0144 0.7645 0.01645 0.0
H81 H 0.76857 0.60919 0.93773 0.0
H82 H 0.78759 0.77795 0.95978 0.0
H83 H 0.70212 0.67062 0.92532 0.0
C84 C 0.95892 0.98157 0.27951 0.0
C85 C 0.02776 0.02349 0.24687 0.0
C86 C 0.96375 0.98294 0.35845 0.0
C87 C 0.03797 0.02618 0.40632 0.0
C88 C 0.10547 0.06878 0.37443 0.0
C89 C 0.1009 0.06723 0.29551 0.0
C90 C 0.04694 0.02921 0.49015 0.0
C91 C 1.00792 0.98201 0.51458 0.0
C92 C 1.0169 0.98505 0.5984 0.0
C93 C 0.94943 0.94241 0.63026 0.0
C94 C 0.954 0.94396 0.70918 0.0
C95 C 0.02709 0.98774 0.75787 0.0
H96 H 0.14617 0.0608 0.623 0.0
C97 C 0.09589 0.02969 0.72526 0.0
C98 C 0.09107 0.02831 0.64631 0.0
H99 H 0.1535 0.0638 0.76072 0.0
H100 H 0.90127 0.94749 0.24408 0.0
H101 H 0.90862 0.95049 0.3818 0.0
H102 H 0.16308 0.10282 0.41003 0.0
H103 H 0.15584 0.09981 0.2722 0.0
H104 H 0.08892 0.07196 0.53224 0.0
H105 H 0.96594 0.93926 0.47247 0.0
H106 H 0.89186 0.90834 0.59463 0.0
H107 H 0.89909 0.91136 0.73247 0.0
C108 C 0.30131 0.97268 0.90535 0.0
C109 C 0.24006 0.9918 0.97105 0.0
C110 C 0.38701 0.98262 0.92202 0.0
C111 C 0.41243 0.01097 0.00529 0.0
C112 C 0.35098 0.03014 0.07074 0.0
C113 C 0.26531 0.0199 0.05401 0.0
C114 C 0.50234 0.02211 0.02664 0.0
C115 C 0.55252 0.98941 0.9784 0.0
C116 C 0.64242 0.00054 -0.00028 0.0
C117 C 0.70378 0.98126 0.93427 0.0
C118 C 0.78944 0.99145 0.95095 0.0
C119 C 0.81479 0.01962 0.03388 0.0
H120 H 0.62194 0.04305 0.13563 0.0
C121 C 0.75363 0.03885 0.09959 0.0
C122 C 0.66794 0.02895 0.08296 0.0
H123 H 0.77203 0.06124 0.16402 0.0
H124 H 0.28298 0.95033 0.84091 0.0
H125 H 0.43309 0.96861 0.86938 0.0
H126 H 0.36859 0.05218 0.13541 0.0
H127 H 0.21882 0.03332 0.10637 0.0
H128 H 0.52662 0.05804 0.08536 0.0
H129 H 0.52822 0.95348 0.91969 0.0
H130 H 0.68609 0.95916 0.86962 0.0
H131 H 0.83585 0.97791 0.89857 0.0
C132 C 0.92373 0.58747 0.92669 0.0
C133 C 0.93662 0.64498 0.98666 0.0
C134 C 0.95814 0.5516 0.93615 0.0
C135 C 1.00594 0.57233 0.00633 0.0
C136 C 1.02068 0.63032 0.06509 0.0
C137 C 0.98621 0.66617 0.05564 0.0
C138 C 0.04334 0.53569 0.01962 0.0
C139 C 1.01114 0.47566 0.98568 0.0
C140 C 0.04855 0.43902 -0.00104 0.0
C141 C 0.03384 0.38103 0.94018 0.0
C142 C 0.06833 0.34519 0.9496 0.0
C143 C 0.11791 0.36637 0.01858 0.0
H144 H 0.1063 0.50314 0.11776 0.0
C145 C 0.13077 0.42387 0.07858 0.0
C146 C 0.09634 0.45974 0.06914 0.0
H147 H 0.16678 0.44105 0.13352 0.0
H148 H 0.88772 0.57028 0.87175 0.0
H149 H 0.94817 0.5082 0.88754 0.0
H150 H 0.05788 0.64773 0.11936 0.0
H151 H 0.99684 0.71005 0.10338 0.0
H152 H 0.09877 0.55963 0.06012 0.0
H153 H 0.95571 0.45172 0.94519 0.0
H154 H 0.99664 0.36364 0.8859 0.0
H155 H 0.05772 0.30132 0.90184 0.0
loop_
_geom_bond_atom_site_label_1
_geom_bond_atom_site_label_2
_geom_bond_distance
_geom_bond_site_symmetry_2
_ccdc_geom_bond_type
Tb0 N31 2.660 1_554 S
Tb0 N38 2.600 . S
Tb0 O44 2.546 . S
Tb0 O45 2.610 1_444 S
Tb0 O47 2.320 1_554 S
Tb0 O48 2.552 1_455 S
Tb0 O49 2.413 . S
Tb0 O51 2.362 . S
Tb0 O52 2.422 1_455 S
Tb0 C64 2.833 . S
C1 C4 1.432 . S
C1 C5 1.414 . S
C1 N8 1.359 . S
C2 C4 1.417 . S
C2 C6 1.432 . S
C2 C14 1.410 1_556 S
C3 C5 1.444 . S
C3 C6 1.317 . S
C3 H26 0.929 . S
C4 C1 1.432 . S
C4 C2 1.417 . S
C4 N12 1.360 1_556 S
C5 C1 1.414 . S
C5 C3 1.444 . S
C5 C10 1.385 . S
C6 C2 1.432 . S
C6 C3 1.317 . S
C6 H18 0.930 . S
C7 C9 1.392 . S
C7 C10 1.370 . S
C7 H19 0.931 . S
N8 C1 1.359 . S
N8 C9 1.327 . S
N8 Tb11 2.600 . S
C9 C7 1.392 . S
C9 N8 1.327 . S
C9 H16 0.930 . S
C10 C5 1.385 . S
C10 C7 1.370 . S
C10 H29 0.930 . S
Tb11 N8 2.600 . S
Tb11 N12 2.660 1_556 S
Tb11 O45 2.362 . S
Tb11 O46 2.422 1_655 S
Tb11 O50 2.546 . S
Tb11 O51 2.610 1_666 S
Tb11 O53 2.320 1_556 S
Tb11 O54 2.552 1_655 S
Tb11 O55 2.413 . S
Tb11 C75 2.833 . S
N12 C4 1.360 1_554 S
N12 Tb11 2.660 1_554 S
N12 C13 1.305 . S
C13 N12 1.305 . S
C13 C15 1.407 . S
C13 H20 0.930 . S
C14 C2 1.410 1_554 S
C14 C15 1.345 . S
C14 H22 0.930 . S
C15 C13 1.407 . S
C15 C14 1.345 . S
C15 H17 0.930 . S
H16 C9 0.930 . S
H17 C15 0.930 . S
H18 C6 0.930 . S
H19 C7 0.931 . S
H20 C13 0.930 . S
H21 C35 0.930 . S
H22 C14 0.930 . S
H23 C41 0.930 . S
H24 C32 0.930 . S
H25 C39 0.931 . S
H26 C3 0.929 . S
H27 C33 0.930 . S
H28 C66 0.930 . S
H29 C10 0.930 . S
H30 C65 0.929 . S
N31 Tb0 2.660 1_556 S
N31 C32 1.305 . S
N31 C36 1.360 1_556 S
C32 H24 0.930 . S
C32 N31 1.305 . S
C32 C35 1.407 . S
C33 H27 0.930 . S
C33 C34 1.410 1_556 S
C33 C35 1.345 . S
C34 C33 1.410 1_554 S
C34 C36 1.417 . S
C34 C66 1.432 . S
C35 H21 0.930 . S
C35 C32 1.407 . S
C35 C33 1.345 . S
C36 N31 1.360 1_554 S
C36 C34 1.417 . S
C36 C40 1.432 . S
H37 C42 0.930 . S
N38 Tb0 2.600 . S
N38 C40 1.359 . S
N38 C41 1.327 . S
C39 H25 0.931 . S
C39 C41 1.392 . S
C39 C42 1.370 . S
C40 C36 1.432 . S
C40 N38 1.359 . S
C40 C43 1.414 . S
C41 H23 0.930 . S
C41 N38 1.327 . S
C41 C39 1.392 . S
C42 H37 0.930 . S
C42 C39 1.370 . S
C42 C43 1.385 . S
C43 C40 1.414 . S
C43 C42 1.385 . S
C43 C65 1.444 . S
O44 Tb0 2.546 . S
O44 C64 1.251 . S
O45 Tb0 2.610 1_666 S
O45 Tb11 2.362 . S
O45 C56 1.283 1_566 S
O46 Tb11 2.422 1_455 S
O46 C63 1.257 . S
O47 Tb0 2.320 1_556 S
O47 C63 1.260 1_545 S
O48 Tb0 2.552 1_655 S
O48 C56 1.243 . S
O49 Tb0 2.413 . S
O49 C64 1.256 . S
O50 Tb11 2.546 . S
O50 C75 1.251 . S
O51 Tb0 2.362 . S
O51 Tb11 2.610 1_444 S
O51 C67 1.283 1_544 S
O52 Tb0 2.422 1_655 S
O52 C74 1.259 . S
O53 Tb11 2.320 1_554 S
O53 C74 1.260 1_565 S
O54 Tb11 2.552 1_455 S
O54 C67 1.243 . S
O55 Tb11 2.413 . S
O55 C75 1.256 . S
C56 O45 1.283 1_544 S
C56 O48 1.243 . S
C57 C59 1.382 . S
C57 C61 1.393 . S
C57 C64 1.500 . S
C58 C59 1.400 . S
C58 C60 1.384 . S
C59 C57 1.382 . S
C59 C58 1.400 . S
C59 H76 0.930 1_554 S
C60 C58 1.384 . S
C60 C62 1.392 . S
C60 H77 0.931 . S
C61 C57 1.393 . S
C61 C62 1.401 . S
C61 H78 0.930 . S
C62 C60 1.392 . S
C62 C61 1.401 . S
C62 H79 0.930 . S
C63 O46 1.257 . S
C63 O47 1.260 1_565 S
C64 Tb0 2.833 . S
C64 O44 1.251 . S
C64 O49 1.256 . S
C64 C57 1.500 . S
C65 H30 0.929 . S
C65 C43 1.444 . S
C65 C66 1.317 . S
C66 H28 0.930 . S
C66 C34 1.432 . S
C66 C65 1.317 . S
C67 O51 1.283 1_566 S
C67 O54 1.243 . S
C68 C69 1.382 . S
C68 C72 1.393 . S
C68 C75 1.500 . S
C69 C68 1.382 . S
C69 C70 1.400 . S
C69 H80 0.930 1_556 S
C70 C69 1.400 . S
C70 C71 1.384 . S
C71 C70 1.384 . S
C71 C73 1.392 . S
C71 H81 0.931 . S
C72 C68 1.393 . S
C72 C73 1.401 . S
C72 H82 0.930 . S
C73 C71 1.392 . S
C73 C72 1.401 . S
C73 H83 0.930 . S
C74 O52 1.259 . S
C74 O53 1.260 1_545 S
C75 Tb11 2.833 . S
C75 O50 1.251 . S
C75 O55 1.256 . S
C75 C68 1.500 . S
H76 C59 0.930 1_556 S
H77 C60 0.931 . S
H78 C61 0.930 . S
H79 C62 0.930 . S
H80 C69 0.930 1_554 S
H81 C71 0.931 . S
H82 C72 0.930 . S
H83 C73 0.930 . S
C84 C85 1.378 1_465 S
C84 C86 1.383 . S
C84 H100 0.951 . S
C85 C84 1.378 1_645 S
C85 C89 1.389 . S
C86 C84 1.383 . S
C86 C87 1.402 1_465 S
C86 H101 0.951 . S
C87 C86 1.402 1_645 S
C87 C88 1.375 . S
C87 C90 1.481 . S
C88 C87 1.375 . S
C88 C89 1.367 . S
C88 H102 0.951 . S
C89 C85 1.389 . S
C89 C88 1.367 . S
C89 H103 0.950 . S
C90 C87 1.481 . S
C90 C91 1.297 1_655 S
C90 H104 0.950 . S
C91 C90 1.297 1_455 S
C91 C92 1.479 . S
C91 H105 0.950 . S
C92 C91 1.479 . S
C92 C93 1.375 1_545 S
C92 C98 1.404 1_455 S
C93 C92 1.375 1_565 S
C93 C94 1.369 . S
C93 H106 0.950 . S
C94 C93 1.369 . S
C94 C95 1.392 1_565 S
C94 H107 0.951 . S
C95 C94 1.392 1_545 S
C95 C97 1.384 1_455 S
H96 C98 0.949 . S
C97 C95 1.384 1_655 S
C97 C98 1.385 . S
C97 H99 0.950 . S
C98 C92 1.404 1_655 S
C98 H96 0.949 . S
C98 C97 1.385 . S
H99 C97 0.950 . S
H100 C84 0.951 . S
H101 C86 0.951 . S
H102 C88 0.951 . S
H103 C89 0.950 . S
H104 C90 0.950 . S
H105 C91 0.950 . S
H106 C93 0.950 . S
H107 C94 0.951 . S
C108 C109 1.386 1_566 S
C108 C110 1.383 . S
C108 H124 0.951 . S
C109 C108 1.386 1_544 S
C109 C113 1.383 . S
C110 C108 1.383 . S
C110 C111 1.402 1_566 S
C110 H125 0.951 . S
C111 C110 1.402 1_544 S
C111 C112 1.375 . S
C111 C114 1.481 . S
C112 C111 1.375 . S
C112 C113 1.367 . S
C112 H126 0.951 . S
C113 C109 1.383 . S
C113 C112 1.367 . S
C113 H127 0.950 . S
C114 C111 1.481 . S
C114 C115 1.297 1_554 S
C114 H128 0.950 . S
C115 C114 1.297 1_556 S
C115 C116 1.479 . S
C115 H129 0.950 . S
C116 C115 1.479 . S
C116 C117 1.375 1_545 S
C116 C122 1.404 1_556 S
C117 C116 1.375 1_565 S
C117 C118 1.370 . S
C117 H130 0.950 . S
C118 C117 1.370 . S
C118 C119 1.403 1_565 S
C118 H131 0.951 . S
C119 C118 1.403 1_545 S
C119 C121 1.378 1_556 S
H120 C122 0.949 . S
C121 C119 1.378 1_554 S
C121 C122 1.385 . S
C121 H123 0.950 . S
C122 C116 1.404 1_554 S
C122 H120 0.949 . S
C122 C121 1.385 . S
H123 C121 0.950 . S
H124 C108 0.951 . S
H125 C110 0.951 . S
H126 C112 0.951 . S
H127 C113 0.950 . S
H128 C114 0.950 . S
H129 C115 0.950 . S
H130 C117 0.950 . S
H131 C118 0.951 . S
C132 C133 1.386 1_456 S
C132 C134 1.383 . S
C132 H148 0.951 . S
C133 C132 1.386 1_654 S
C133 C137 1.383 . S
C134 C132 1.383 . S
C134 C135 1.402 1_456 S
C134 H149 0.951 . S
C135 C134 1.402 1_654 S
C135 C136 1.375 . S
C135 C138 1.481 . S
C136 C135 1.375 . S
C136 C137 1.367 . S
C136 H150 0.951 . S
C137 C133 1.383 . S
C137 C136 1.367 . S
C137 H151 0.950 . S
C138 C135 1.481 . S
C138 C139 1.297 1_655 S
C138 H152 0.950 . S
C139 C138 1.297 1_455 S
C139 C140 1.479 . S
C139 H153 0.950 1_554 S
C140 C139 1.479 . S
C140 C141 1.375 1_554 S
C140 C146 1.404 1_455 S
C141 C140 1.375 1_556 S
C141 C142 1.369 . S
C141 H154 0.950 . S
C142 C141 1.369 . S
C142 C143 1.392 1_556 S
C142 H155 0.951 . S
C143 C142 1.392 1_554 S
C143 C145 1.384 1_455 S
H144 C146 0.949 . S
C145 C143 1.384 1_655 S
C145 C146 1.385 . S
C145 H147 0.950 . S
C146 C140 1.404 1_655 S
C146 H144 0.949 . S
C146 C145 1.385 . S
H147 C145 0.950 . S
H148 C132 0.951 . S
H149 C134 0.951 . S
H150 C136 0.951 . S
H151 C137 0.950 . S
H152 C138 0.950 . S
H153 C139 0.950 1_556 S
H154 C141 0.950 . S
H155 C142 0.951 . S
C85 C74 1.458 . S
C95 C63 1.451 1_545 S
C109 C67 1.461 1_544 S
C119 C56 1.375 1_556 S
C133 C70 1.357 1_554 S
C143 C58 1.225 . S
