# Generated by pormake.
# Topology pcu, (6)-cn, num edge types: 1
# Building blocks:
#     Node 0, Type 0, BuildingBlock: PAMTOO_clean_sbu_0, # of connection points: 6
#     Edge 1, Type (0, 0), BuildingBlock: EYOCIG_clean_linker_4, # of connection points: 2
#     Edge 2, Type (0, 0), BuildingBlock: EYOCIG_clean_linker_4, # of connection points: 2
#     Edge 3, Type (0, 0), BuildingBlock: EYOCIG_clean_linker_4, # of connection points: 2
# Relax obj value: 0.000
# Max RMSD: 0.000
# Mean RMSD: 0.000
data_MOF--net-pcu--node1-PAMTOO_clean_sbu_0--edge1-EYOCIG_clean_linker_4
_symmetry_space_group_name_H-M    P1
_symmetry_Int_Tables_number       1
_symmetry_cell_setting            triclinic
loop_
_symmetry_equiv_pos_as_xyz
'x, y, z'
_cell_length_a     22.607267
_cell_length_b     12.101582
_cell_length_c     12.055192
_cell_angle_alpha  85.061125
_cell_angle_beta   98.462621
_cell_angle_gamma 116.26513
loop_
_atom_site_label
_atom_site_type_symbol
_atom_site_fract_x
_atom_site_fract_y
_atom_site_fract_z
_atom_type_partial_charge
Dy0 Dy 0.11045 0.04481 -0.0007 0.0
Dy1 Dy 0.94425 0.92796 0.96516 0.0
C2 C 1.02588 -0.01269 0.76016 0.0
O3 O 0.08919 0.20197 0.03115 0.0
O4 O 0.98284 0.13144 0.9375 0.0
O5 O 0.20343 0.13527 0.92879 0.0
O6 O 0.2033 0.08287 0.10479 0.0
O7 O 0.97777 -0.00484 0.14008 0.0
O8 O 0.07534 0.97519 0.16673 0.0
O9 O 0.96776 0.76717 0.01168 0.0
O10 O 0.07374 0.84726 0.96045 0.0
O11 O 0.84813 0.82195 0.02272 0.0
O12 O 0.85534 0.90863 0.85673 0.0
C13 C 0.03721 0.21903 -0.01373 0.0
O14 O 0.07635 0.0715 0.81985 0.0
O15 O 0.97548 0.90256 0.80608 0.0
C16 C 0.2902 0.08364 0.015 0.0
C17 C 0.39706 0.02698 0.00187 0.0
C18 C 0.34866 0.00905 0.90917 0.0
C19 C 0.29542 0.03709 0.91557 0.0
C20 C 0.33797 0.09791 0.10834 0.0
C21 C 0.39096 0.06966 0.10187 0.0
C22 C 0.23874 0.12616 0.02167 0.0
C23 C 1.02693 -0.01438 0.20582 0.0
C24 C 1.01949 0.75448 -0.01138 0.0
C25 C 0.76378 0.88461 0.94596 0.0
C26 C 0.6571 0.93823 0.96835 0.0
C27 C 0.70638 0.95386 0.05921 0.0
C28 C 0.75963 0.92737 0.04816 0.0
C29 C 0.71502 0.87212 0.85477 0.0
C30 C 0.66208 0.89879 0.86584 0.0
C31 C 0.81633 0.84754 0.93241 0.0
H32 H 0.35274 0.9758 0.83131 0.0
H33 H 0.25933 0.02481 0.84221 0.0
H34 H 0.33516 0.13381 0.18569 0.0
H35 H 0.42796 0.08373 0.17426 0.0
H36 H 0.7032 -0.01524 0.13893 0.0
H37 H 0.79679 0.93859 0.11965 0.0
H38 H 0.71732 0.83964 0.77522 0.0
H39 H 0.62447 0.88668 0.7948 0.0
C40 C 0.0275 -0.01313 0.42476 0.0
C41 C 0.02763 -0.01378 0.3249 0.0
C42 C 1.0268 -0.01274 0.54155 0.0
C43 C 1.02629 -0.01287 0.64136 0.0
C44 C 0.50289 -0.01002 -0.01028 0.0
C45 C 0.45436 0.00635 -0.00624 0.0
C46 C 0.55181 0.97494 -0.01432 0.0
C47 C 0.6003 0.95893 0.98022 0.0
C48 C 1.02306 0.53931 -0.00336 0.0
C49 C 1.01793 0.63443 -0.00534 0.0
C50 C 0.03219 0.43129 -0.00353 0.0
C51 C 0.03753 0.33677 -0.00555 0.0
loop_
_geom_bond_atom_site_label_1
_geom_bond_atom_site_label_2
_geom_bond_distance
_geom_bond_site_symmetry_2
_ccdc_geom_bond_type
Dy0 O3 2.307 . S
Dy0 O5 2.395 1_554 S
Dy0 O6 2.379 . S
Dy0 O8 2.339 . S
Dy0 O10 2.298 1_545 S
Dy0 O14 2.275 1_554 S
Dy0 C22 2.738 . S
Dy1 O4 2.298 1_565 S
Dy1 O7 2.275 1_556 S
Dy1 O9 2.307 . S
Dy1 O11 2.395 1_556 S
Dy1 O12 2.379 . S
Dy1 O15 2.339 . S
Dy1 C31 2.738 . S
C2 O14 1.254 1_665 S
C2 O15 1.257 . S
O3 Dy0 2.307 . S
O3 C13 1.275 1_554 S
O4 Dy1 2.298 1_545 S
O4 C13 1.232 1_655 S
O5 Dy0 2.395 1_556 S
O5 C22 1.255 1_556 S
O6 Dy0 2.379 . S
O6 C22 1.249 . S
O7 Dy1 2.275 1_554 S
O7 C23 1.254 1_665 S
O8 Dy0 2.339 . S
O8 C23 1.257 . S
O9 Dy1 2.307 . S
O9 C24 1.270 1_556 S
O10 Dy0 2.298 1_565 S
O10 C24 1.234 1_455 S
O11 Dy1 2.395 1_554 S
O11 C31 1.255 1_554 S
O12 Dy1 2.379 . S
O12 C31 1.249 . S
C13 O3 1.275 1_556 S
C13 O4 1.232 1_455 S
O14 Dy0 2.275 1_556 S
O14 C2 1.254 1_445 S
O15 Dy1 2.339 . S
O15 C2 1.257 . S
C16 C19 1.344 1_544 S
C16 C20 1.328 . S
C16 C22 1.516 . S
C17 C18 1.304 . S
C17 C21 1.323 1_566 S
C18 C17 1.304 . S
C18 C19 1.371 . S
C18 H32 0.930 . S
C19 C16 1.344 1_566 S
C19 C18 1.371 . S
C19 H33 0.931 . S
C20 C16 1.328 . S
C20 C21 1.433 . S
C20 H34 0.931 . S
C21 C17 1.323 1_544 S
C21 C20 1.433 . S
C21 H35 0.933 . S
C22 Dy0 2.738 . S
C22 O5 1.255 1_554 S
C22 O6 1.249 . S
C22 C16 1.516 . S
C23 O7 1.254 1_445 S
C23 O8 1.257 . S
C24 O9 1.270 1_554 S
C24 O10 1.234 1_655 S
C25 C28 1.344 1_566 S
C25 C29 1.328 . S
C25 C31 1.516 . S
C26 C27 1.304 . S
C26 C30 1.323 1_544 S
C27 C26 1.304 . S
C27 C28 1.371 . S
C27 H36 0.930 . S
C28 C25 1.344 1_544 S
C28 C27 1.371 . S
C28 H37 0.931 . S
C29 C25 1.328 . S
C29 C30 1.433 . S
C29 H38 0.931 . S
C30 C26 1.323 1_566 S
C30 C29 1.433 . S
C30 H39 0.933 . S
C31 Dy1 2.738 . S
C31 O11 1.255 1_556 S
C31 O12 1.249 . S
C31 C25 1.516 . S
H32 C18 0.930 . S
H33 C19 0.931 . S
H34 C20 0.931 . S
H35 C21 0.933 . S
H36 C27 0.930 . S
H37 C28 0.931 . S
H38 C29 0.931 . S
H39 C30 0.933 . S
C40 C41 1.173 1_455 S
C40 C42 1.381 . S
C41 C40 1.173 1_655 S
C42 C40 1.381 . S
C42 C43 1.170 . S
C43 C42 1.170 . S
C44 C45 1.170 . S
C44 C46 1.380 . S
C45 C44 1.170 . S
C46 C44 1.380 . S
C46 C47 1.168 . S
C47 C46 1.168 . S
C48 C49 1.170 . S
C48 C50 1.380 . S
C49 C48 1.170 . S
C50 C48 1.380 . S
C50 C51 1.170 . S
C51 C50 1.170 . S
C41 C23 1.466 1_655 S
C43 C2 1.466 1_445 S
C45 C17 1.498 1_554 S
C47 C26 1.496 1_565 S
C49 C24 1.491 1_455 S
C51 C13 1.492 1_554 S
