# Generated by pormake.
# Topology pcu, (6)-cn, num edge types: 1
# Building blocks:
#     Node 0, Type 0, BuildingBlock: MIDCAF_clean_sbu_0, # of connection points: 6
#     Edge 1, Type (0, 0), BuildingBlock: CIFDUS_clean_linker_0, # of connection points: 2
#     Edge 2, Type (0, 0), BuildingBlock: CIFDUS_clean_linker_0, # of connection points: 2
#     Edge 3, Type (0, 0), BuildingBlock: CIFDUS_clean_linker_0, # of connection points: 2
# Relax obj value: 0.148
# Max RMSD: 0.201
# Mean RMSD: 0.201
data_MOF--net-pcu--node1-MIDCAF_clean_sbu_0--edge1-CIFDUS_clean_linker_0
_symmetry_space_group_name_H-M    P1
_symmetry_Int_Tables_number       1
_symmetry_cell_setting            triclinic
loop_
_symmetry_equiv_pos_as_xyz
'x, y, z'
_cell_length_a     13.533777
_cell_length_b     13.679184
_cell_length_c     13.528225
_cell_angle_alpha  96.753678
_cell_angle_beta   99.344091
_cell_angle_gamma 97.156137
loop_
_atom_site_label
_atom_site_type_symbol
_atom_site_fract_x
_atom_site_fract_y
_atom_site_fract_z
_atom_type_partial_charge
Zn0 Zn 0.86903 0.88747 0.89368 0.0
Zn1 Zn 0.12015 0.11102 0.14352 0.0
Zn2 Zn 0.00765 0.9992 1.00561 0.0
C3 C 0.2252 0.10056 0.98335 0.0
C4 C 0.09355 0.95548 0.23635 0.0
O5 O 0.86458 0.06697 0.97785 0.0
O6 O 0.7581 0.96229 0.85987 0.0
C7 C 0.02932 0.89833 0.78852 0.0
O8 O 0.14732 0.03653 0.94012 0.0
O9 O 0.22737 0.14531 0.07056 0.0
O10 O 0.15371 0.0359 0.25468 0.0
O11 O 0.03523 0.93112 0.14885 0.0
O12 O 0.94181 0.85366 0.78653 0.0
O13 O 0.07293 0.96227 0.86611 0.0
O14 O 0.98012 0.85516 0.06858 0.0
O15 O 0.84175 0.77664 0.96728 0.0
C16 C 0.91202 0.77734 0.04088 0.0
O17 O 0.94505 0.14293 0.03277 0.0
O18 O 0.04698 0.22152 0.17057 0.0
C19 C 0.7769 0.0426 0.91974 0.0
C20 C 0.9731 0.22066 0.10056 0.0
H21 H 0.22885 0.94437 0.40596 0.0
H22 H 0.91569 0.85754 0.26308 0.0
H23 H 0.87222 0.81841 0.42272 0.0
H24 H 0.91627 0.84076 0.60458 0.0
H25 H 0.22703 0.91579 0.75405 0.0
H26 H 0.27937 0.93085 0.58922 0.0
C27 C 0.15172 0.91415 0.40953 0.0
C28 C 0.07531 0.90448 0.32309 0.0
C29 C 0.12663 0.89417 0.50265 0.0
C30 C 0.97584 0.86487 0.32811 0.0
C31 C 0.95071 0.84365 0.41972 0.0
C32 C 0.99607 0.85898 0.60194 0.0
C33 C 0.06766 0.88641 0.69208 0.0
C34 C 0.0245 0.86302 0.50788 0.0
C35 C 0.17038 0.90489 0.6861 0.0
C36 C 0.19994 0.91062 0.59189 0.0
H37 H 0.4093 0.15676 0.09655 0.0
H38 H 0.25997 0.08396 0.78575 0.0
H39 H 0.4247 0.06878 0.73369 0.0
H40 H 0.60765 0.05458 0.78438 0.0
H41 H 0.75052 0.13933 0.09753 0.0
H42 H 0.59116 0.1784 0.14082 0.0
C43 C 0.41197 0.13903 0.0168 0.0
C44 C 0.32179 0.11231 0.94512 0.0
C45 C 0.50602 0.1349 0.98851 0.0
C46 C 0.32785 0.09438 0.84247 0.0
C47 C 0.42203 0.08855 0.81306 0.0
C48 C 0.60417 0.08434 0.86147 0.0
C49 C 0.69049 0.09347 0.93792 0.0
C50 C 0.51121 0.10435 0.88644 0.0
C51 C 0.68558 0.13244 0.03735 0.0
C52 C 0.59414 0.15363 0.06237 0.0
H53 H 0.79607 0.59926 0.97234 0.0
H54 H 0.0564 0.7389 0.19419 0.0
H55 H 0.07959 0.57897 0.24875 0.0
H56 H 0.04102 0.39827 0.21699 0.0
H57 H 0.82007 0.25908 0.95593 0.0
H58 H 0.76495 0.41866 0.93316 0.0
C59 C 0.85697 0.59553 0.03407 0.0
C60 C 0.92138 0.68288 0.08281 0.0
C61 C 0.87685 0.50197 0.05697 0.0
C62 C 0.00177 0.67499 0.15985 0.0
C63 C 0.0165 0.58269 0.18935 0.0
C64 C 0.97937 0.402 0.156 0.0
C65 C 0.931 0.31483 0.09128 0.0
C66 C 0.9562 0.49552 0.13639 0.0
C67 C 0.85407 0.32276 1.0108 0.0
C68 C 0.82427 0.4149 0.99631 0.0
loop_
_geom_bond_atom_site_label_1
_geom_bond_atom_site_label_2
_geom_bond_distance
_geom_bond_site_symmetry_2
_ccdc_geom_bond_type
Zn0 O6 1.920 . S
Zn0 O12 1.898 . S
Zn0 O15 1.905 . S
Zn1 O9 1.905 . S
Zn1 O10 1.898 . S
Zn1 O18 1.920 . S
Zn2 O5 2.075 1_455 S
Zn2 O8 2.120 . S
Zn2 O11 2.119 1_465 S
Zn2 O13 2.120 1_464 S
Zn2 O14 2.117 1_554 S
Zn2 O17 2.077 1_564 S
C3 O8 1.166 1_545 S
C3 O9 1.182 . S
C4 O10 1.167 . S
C4 O11 1.299 1_455 S
O5 Zn2 2.075 1_655 S
O5 C19 1.305 1_554 S
O6 Zn0 1.920 . S
O6 C19 1.234 . S
C7 O12 1.174 . S
C7 O13 1.300 1_565 S
O8 Zn2 2.120 . S
O8 C3 1.166 1_565 S
O9 Zn1 1.905 . S
O9 C3 1.182 . S
O10 Zn1 1.898 . S
O10 C4 1.167 . S
O11 Zn2 2.119 1_645 S
O11 C4 1.299 1_655 S
O12 Zn0 1.898 . S
O12 C7 1.174 . S
O13 Zn2 2.120 1_646 S
O13 C7 1.300 1_545 S
O14 Zn2 2.117 1_556 S
O14 C16 1.166 1_455 S
O15 Zn0 1.905 . S
O15 C16 1.182 . S
C16 O14 1.166 1_655 S
C16 O15 1.182 . S
O17 Zn2 2.077 1_546 S
O17 C20 1.305 1_556 S
O18 Zn1 1.920 . S
O18 C20 1.234 . S
C19 O5 1.305 1_556 S
C19 O6 1.234 . S
C20 O17 1.305 1_554 S
C20 O18 1.234 . S
H21 C27 0.930 1_545 S
H22 C30 0.930 . S
H23 C31 0.930 . S
H24 C32 0.930 . S
H25 C35 0.930 . S
H26 C36 0.930 . S
C27 H21 0.930 1_565 S
C27 C28 1.355 . S
C27 C29 1.415 . S
C28 C27 1.355 . S
C28 C30 1.419 1_455 S
C29 C27 1.415 . S
C29 C34 1.425 1_455 S
C29 C36 1.409 1_565 S
C30 H22 0.930 . S
C30 C28 1.419 1_655 S
C30 C31 1.362 . S
C31 H23 0.930 . S
C31 C30 1.362 . S
C31 C34 1.409 . S
C32 H24 0.930 . S
C32 C33 1.355 1_655 S
C32 C34 1.415 . S
C33 C32 1.355 1_455 S
C33 C35 1.419 1_565 S
C34 C29 1.425 1_655 S
C34 C31 1.409 . S
C34 C32 1.415 . S
C35 H25 0.930 . S
C35 C33 1.419 1_545 S
C35 C36 1.362 . S
C36 H26 0.930 . S
C36 C29 1.409 1_545 S
C36 C35 1.362 . S
H37 C43 0.930 1_554 S
H38 C46 0.930 . S
H39 C47 0.930 . S
H40 C48 0.930 . S
H41 C51 0.930 . S
H42 C52 0.930 . S
C43 H37 0.930 1_556 S
C43 C44 1.355 1_565 S
C43 C45 1.415 . S
C44 C43 1.355 1_545 S
C44 C46 1.419 . S
C45 C43 1.415 . S
C45 C50 1.425 1_565 S
C45 C52 1.409 1_556 S
C46 H38 0.930 . S
C46 C44 1.419 . S
C46 C47 1.362 . S
C47 H39 0.930 . S
C47 C46 1.362 . S
C47 C50 1.409 . S
C48 H40 0.930 . S
C48 C49 1.355 . S
C48 C50 1.415 . S
C49 C48 1.355 . S
C49 C51 1.419 1_546 S
C50 C45 1.425 1_545 S
C50 C47 1.409 . S
C50 C48 1.415 . S
C51 H41 0.930 . S
C51 C49 1.419 1_564 S
C51 C52 1.362 . S
C52 H42 0.930 . S
C52 C45 1.409 1_554 S
C52 C51 1.362 . S
H53 C59 0.930 1_455 S
H54 C62 0.930 . S
H55 C63 0.930 . S
H56 C64 0.930 . S
H57 C67 0.930 1_455 S
H58 C68 0.930 1_455 S
C59 H53 0.930 1_655 S
C59 C60 1.355 . S
C59 C61 1.415 . S
C60 C59 1.355 . S
C60 C62 1.419 1_554 S
C61 C59 1.415 . S
C61 C66 1.425 1_554 S
C61 C68 1.409 . S
C62 H54 0.930 . S
C62 C60 1.419 1_556 S
C62 C63 1.362 . S
C63 H55 0.930 . S
C63 C62 1.362 . S
C63 C66 1.409 . S
C64 H56 0.930 . S
C64 C65 1.355 1_556 S
C64 C66 1.415 . S
C65 C64 1.355 1_554 S
C65 C67 1.419 . S
C66 C61 1.425 1_556 S
C66 C63 1.409 . S
C66 C64 1.415 . S
C67 H57 0.930 1_655 S
C67 C65 1.419 . S
C67 C68 1.362 . S
C68 H58 0.930 1_655 S
C68 C61 1.409 . S
C68 C67 1.362 . S
C28 C4 1.380 1_565 S
C33 C7 1.373 1_455 S
C44 C3 1.321 1_556 S
C49 C19 1.283 1_545 S
C60 C16 1.285 1_554 S
C65 C20 1.314 1_655 S
