# Generated by pormake.
# Topology uoy, (4)-cn, num edge types: 1
# Building blocks:
#     Node 0, Type 0, BuildingBlock: GALJAG_clean_sbu_0, # of connection points: 4
#     Node 1, Type 0, BuildingBlock: GALJAG_clean_sbu_0, # of connection points: 4
#     Node 2, Type 0, BuildingBlock: GALJAG_clean_sbu_0, # of connection points: 4
#     Node 3, Type 0, BuildingBlock: GALJAG_clean_sbu_0, # of connection points: 4
#     Node 4, Type 0, BuildingBlock: GALJAG_clean_sbu_0, # of connection points: 4
#     Node 5, Type 0, BuildingBlock: GALJAG_clean_sbu_0, # of connection points: 4
#     Node 6, Type 0, BuildingBlock: GALJAG_clean_sbu_0, # of connection points: 4
#     Node 7, Type 0, BuildingBlock: GALJAG_clean_sbu_0, # of connection points: 4
#     Node 8, Type 0, BuildingBlock: GALJAG_clean_sbu_0, # of connection points: 4
#     Node 9, Type 0, BuildingBlock: GALJAG_clean_sbu_0, # of connection points: 4
#     Node 10, Type 0, BuildingBlock: GALJAG_clean_sbu_0, # of connection points: 4
#     Node 11, Type 0, BuildingBlock: GALJAG_clean_sbu_0, # of connection points: 4
#     Node 12, Type 0, BuildingBlock: GALJAG_clean_sbu_0, # of connection points: 4
#     Node 13, Type 0, BuildingBlock: GALJAG_clean_sbu_0, # of connection points: 4
#     Node 14, Type 0, BuildingBlock: GALJAG_clean_sbu_0, # of connection points: 4
#     Node 15, Type 0, BuildingBlock: GALJAG_clean_sbu_0, # of connection points: 4
#     Edge 16, Type (0, 0), None
#     Edge 17, Type (0, 0), None
#     Edge 18, Type (0, 0), None
#     Edge 19, Type (0, 0), None
#     Edge 20, Type (0, 0), None
#     Edge 21, Type (0, 0), None
#     Edge 22, Type (0, 0), None
#     Edge 23, Type (0, 0), None
#     Edge 24, Type (0, 0), None
#     Edge 25, Type (0, 0), None
#     Edge 26, Type (0, 0), None
#     Edge 27, Type (0, 0), None
#     Edge 28, Type (0, 0), None
#     Edge 29, Type (0, 0), None
#     Edge 30, Type (0, 0), None
#     Edge 31, Type (0, 0), None
#     Edge 32, Type (0, 0), None
#     Edge 33, Type (0, 0), None
#     Edge 34, Type (0, 0), None
#     Edge 35, Type (0, 0), None
#     Edge 36, Type (0, 0), None
#     Edge 37, Type (0, 0), None
#     Edge 38, Type (0, 0), None
#     Edge 39, Type (0, 0), None
#     Edge 40, Type (0, 0), None
#     Edge 41, Type (0, 0), None
#     Edge 42, Type (0, 0), None
#     Edge 43, Type (0, 0), None
#     Edge 44, Type (0, 0), None
#     Edge 45, Type (0, 0), None
#     Edge 46, Type (0, 0), None
#     Edge 47, Type (0, 0), None
# Relax obj value: 0.037
# Max RMSD: 0.056
# Mean RMSD: 0.056
data_MOF--net-uoy--node1-GALJAG_clean_sbu_0--edge1-none
_symmetry_space_group_name_H-M    P1
_symmetry_Int_Tables_number       1
_symmetry_cell_setting            triclinic
loop_
_symmetry_equiv_pos_as_xyz
'x, y, z'
_cell_length_a     12.350653
_cell_length_b     12.350653
_cell_length_c     49.398818
_cell_angle_alpha  90.002273
_cell_angle_beta   90.002273
_cell_angle_gamma 90.0
loop_
_atom_site_label
_atom_site_type_symbol
_atom_site_fract_x
_atom_site_fract_y
_atom_site_fract_z
_atom_type_partial_charge
In0 In 0.25182 0.12254 0.18742 0.0
O1 O 0.23373 0.27497 0.16177 0.0
O2 O 0.24952 0.12349 0.14142 0.0
C3 C 0.26788 0.2058 0.23776 0.0
C4 C 0.05585 0.02796 0.18758 0.0
C5 C 0.44859 0.02736 0.18537 0.0
O6 O 0.30157 0.25565 0.21714 0.0
O7 O 0.22271 0.11646 0.23297 0.0
O8 O 0.36193 0.97305 0.18604 0.0
O9 O 0.43615 0.12837 0.18547 0.0
C10 C 0.239 0.22468 0.13955 0.0
O11 O 0.14272 0.97367 0.1872 0.0
O12 O 0.0676 0.12961 0.18798 0.0
In13 In 0.88211 0.75181 0.43742 0.0
O14 O 0.03098 0.64271 0.43721 0.0
O15 O 0.87504 0.56759 0.43798 0.0
C16 C 0.97728 0.94858 0.43537 0.0
C17 C 0.77997 0.73898 0.38955 0.0
C18 C 0.79885 0.76787 0.48776 0.0
O19 O 0.0316 0.86192 0.43605 0.0
O20 O 0.87627 0.93614 0.43546 0.0
O21 O 0.74899 0.80157 0.46714 0.0
O22 O 0.88818 0.72271 0.48297 0.0
C23 C 0.97668 0.55584 0.43758 0.0
O24 O 0.72967 0.73372 0.41177 0.0
O25 O 0.88116 0.7495 0.39142 0.0
In26 In 0.25283 0.38211 0.68742 0.0
O27 O 0.27093 0.22968 0.66178 0.0
O28 O 0.25513 0.38117 0.64142 0.0
C29 C 0.23677 0.29885 0.73776 0.0
C30 C 0.4488 0.47669 0.68758 0.0
C31 C 0.05607 0.4773 0.68537 0.0
O32 O 0.20307 0.249 0.71714 0.0
O33 O 0.28195 0.38818 0.73297 0.0
O34 O 0.14273 0.53161 0.68606 0.0
O35 O 0.06851 0.37628 0.68545 0.0
C36 C 0.26566 0.27998 0.63955 0.0
O37 O 0.36193 0.53099 0.6872 0.0
O38 O 0.43705 0.37505 0.68798 0.0
In39 In 0.62253 0.75282 0.93742 0.0
O40 O 0.47366 0.86192 0.9372 0.0
O41 O 0.62959 0.93704 0.93798 0.0
C42 C 0.52735 0.55606 0.93537 0.0
C43 C 0.72467 0.76565 0.88955 0.0
C44 C 0.7058 0.73677 0.98776 0.0
O45 O 0.47304 0.64272 0.93605 0.0
O46 O 0.62836 0.56849 0.93546 0.0
O47 O 0.75564 0.70306 0.96714 0.0
O48 O 0.61646 0.78194 0.98297 0.0
C49 C 0.52795 0.94879 0.93758 0.0
O50 O 0.77496 0.77092 0.91178 0.0
O51 O 0.62348 0.75512 0.89142 0.0
In52 In 0.25182 0.38211 0.06556 0.0
O53 O 0.23373 0.22968 0.0912 0.0
O54 O 0.24953 0.38117 0.11156 0.0
C55 C 0.26788 0.29885 0.01522 0.0
C56 C 0.05585 0.47669 0.0654 0.0
C57 C 0.44859 0.47729 0.06761 0.0
O58 O 0.30158 0.249 0.03584 0.0
O59 O 0.2227 0.38818 0.02001 0.0
O60 O 0.36193 0.53161 0.06693 0.0
O61 O 0.43615 0.37628 0.06752 0.0
C62 C 0.23901 0.27997 0.11343 0.0
O63 O 0.14273 0.53099 0.06578 0.0
O64 O 0.0676 0.37505 0.065 0.0
In65 In 0.62253 0.75182 0.31556 0.0
O66 O 0.47365 0.64272 0.31578 0.0
O67 O 0.62959 0.56759 0.315 0.0
C68 C 0.52735 0.94858 0.31761 0.0
C69 C 0.72467 0.739 0.36343 0.0
C70 C 0.7058 0.76787 0.26522 0.0
O71 O 0.47303 0.86192 0.31692 0.0
O72 O 0.62836 0.93614 0.31753 0.0
O73 O 0.75564 0.80157 0.28584 0.0
O74 O 0.61646 0.7227 0.27001 0.0
C75 C 0.52795 0.55584 0.3154 0.0
O76 O 0.77497 0.73371 0.3412 0.0
O77 O 0.62348 0.74951 0.36156 0.0
In78 In 0.25283 0.12254 0.56556 0.0
O79 O 0.27093 0.27498 0.5912 0.0
O80 O 0.25514 0.12349 0.61156 0.0
C81 C 0.23677 0.2058 0.51522 0.0
C82 C 0.4488 0.02796 0.5654 0.0
C83 C 0.05607 0.02736 0.56761 0.0
O84 O 0.20308 0.25565 0.53584 0.0
O85 O 0.28194 0.11646 0.52001 0.0
O86 O 0.14273 0.97304 0.56693 0.0
O87 O 0.0685 0.12837 0.56752 0.0
C88 C 0.26564 0.22468 0.61343 0.0
O89 O 0.36193 0.97366 0.56577 0.0
O90 O 0.43705 0.12961 0.565 0.0
In91 In 0.8821 0.75282 0.81556 0.0
O92 O 0.72967 0.77091 0.8412 0.0
O93 O 0.88116 0.75512 0.86156 0.0
C94 C 0.79885 0.73677 0.76522 0.0
C95 C 0.97668 0.9488 0.8154 0.0
C96 C 0.97728 0.55606 0.81761 0.0
O97 O 0.74899 0.70307 0.78584 0.0
O98 O 0.88818 0.78194 0.77001 0.0
O99 O 0.0316 0.64272 0.81694 0.0
O100 O 0.87627 0.56849 0.81751 0.0
C101 C 0.77996 0.76563 0.86343 0.0
O102 O 0.03098 0.86192 0.81578 0.0
O103 O 0.87504 0.93704 0.815 0.0
In104 In 0.75183 0.62255 0.68742 0.0
O105 O 0.64272 0.47368 0.6872 0.0
O106 O 0.5676 0.62962 0.68798 0.0
C107 C 0.94859 0.52737 0.68537 0.0
C108 C 0.739 0.72468 0.63955 0.0
C109 C 0.76794 0.70578 0.73775 0.0
O110 O 0.86193 0.47306 0.68604 0.0
O111 O 0.93615 0.62839 0.68546 0.0
O112 O 0.80155 0.75569 0.71713 0.0
O113 O 0.72277 0.61644 0.73297 0.0
C114 C 0.55585 0.52798 0.68758 0.0
O115 O 0.73373 0.77498 0.66177 0.0
O116 O 0.74952 0.62349 0.64142 0.0
In117 In 0.3821 0.25182 0.93742 0.0
O118 O 0.22967 0.23372 0.91177 0.0
O119 O 0.38116 0.24951 0.89142 0.0
C120 C 0.29887 0.26794 0.98775 0.0
C121 C 0.47667 0.05584 0.93758 0.0
C122 C 0.47727 0.44858 0.93537 0.0
O123 O 0.24896 0.30154 0.96713 0.0
O124 O 0.38821 0.22276 0.98298 0.0
O125 O 0.53159 0.36192 0.93605 0.0
O126 O 0.37626 0.43614 0.93546 0.0
C127 C 0.27997 0.23899 0.88955 0.0
O128 O 0.53097 0.14271 0.9372 0.0
O129 O 0.37503 0.06759 0.93798 0.0
In130 In 0.75283 0.88211 0.18742 0.0
O131 O 0.77093 0.72968 0.16178 0.0
O132 O 0.75513 0.88117 0.14142 0.0
C133 C 0.7367 0.79887 0.23775 0.0
C134 C 0.9488 0.97668 0.18758 0.0
C135 C 0.55606 0.97728 0.18537 0.0
O136 O 0.7031 0.74897 0.21713 0.0
O137 O 0.78189 0.8882 0.23298 0.0
O138 O 0.64272 0.0316 0.18606 0.0
O139 O 0.5685 0.87627 0.18545 0.0
C140 C 0.76566 0.77998 0.13955 0.0
O141 O 0.86193 0.03098 0.1872 0.0
O142 O 0.93705 0.87504 0.18799 0.0
In143 In 0.12254 0.25282 0.43742 0.0
O144 O 0.97367 0.36192 0.4372 0.0
O145 O 0.12961 0.43704 0.43799 0.0
C146 C 0.02736 0.05605 0.43537 0.0
C147 C 0.22467 0.26564 0.38955 0.0
C148 C 0.20578 0.2367 0.48775 0.0
O149 O 0.97305 0.14271 0.43605 0.0
O150 O 0.12837 0.06849 0.43546 0.0
O151 O 0.25568 0.20309 0.46713 0.0
O152 O 0.11644 0.28188 0.48297 0.0
C153 C 0.02796 0.44879 0.43758 0.0
O154 O 0.27497 0.27092 0.41178 0.0
O155 O 0.12348 0.25511 0.39142 0.0
In156 In 0.75183 0.88211 0.56556 0.0
O157 O 0.64272 0.03098 0.56578 0.0
O158 O 0.5676 0.87504 0.56499 0.0
C159 C 0.94859 0.97728 0.56761 0.0
C160 C 0.73902 0.77997 0.61343 0.0
C161 C 0.76794 0.79887 0.51523 0.0
O162 O 0.86193 0.0316 0.56693 0.0
O163 O 0.93615 0.87627 0.56752 0.0
O164 O 0.80155 0.74897 0.53585 0.0
O165 O 0.72276 0.8882 0.52 0.0
C166 C 0.55585 0.97668 0.5654 0.0
O167 O 0.73373 0.72967 0.5912 0.0
O168 O 0.74953 0.88116 0.61156 0.0
In169 In 0.12254 0.25182 0.81556 0.0
O170 O 0.97367 0.14271 0.81578 0.0
O171 O 0.12961 0.06759 0.81499 0.0
C172 C 0.02736 0.44858 0.81761 0.0
C173 C 0.22467 0.239 0.86343 0.0
C174 C 0.20577 0.26794 0.76523 0.0
O175 O 0.97305 0.36192 0.81692 0.0
O176 O 0.12837 0.43614 0.81753 0.0
O177 O 0.25568 0.30155 0.78585 0.0
O178 O 0.11644 0.22276 0.77 0.0
C179 C 0.02796 0.05584 0.8154 0.0
O180 O 0.27497 0.23372 0.8412 0.0
O181 O 0.12348 0.24952 0.86156 0.0
In182 In 0.75283 0.62255 0.06556 0.0
O183 O 0.77092 0.77498 0.0912 0.0
O184 O 0.75513 0.62349 0.11156 0.0
C185 C 0.7367 0.70578 0.01523 0.0
C186 C 0.94881 0.52797 0.0654 0.0
C187 C 0.55606 0.52737 0.06761 0.0
O188 O 0.7031 0.75568 0.03585 0.0
O189 O 0.78188 0.61644 0.02 0.0
O190 O 0.64272 0.47306 0.06693 0.0
O191 O 0.5685 0.62838 0.06752 0.0
C192 C 0.76564 0.72468 0.11343 0.0
O193 O 0.86193 0.47368 0.06578 0.0
O194 O 0.93705 0.62962 0.065 0.0
In195 In 0.3821 0.25282 0.31556 0.0
O196 O 0.22966 0.27091 0.3412 0.0
O197 O 0.38115 0.25512 0.36156 0.0
C198 C 0.29887 0.2367 0.26523 0.0
C199 C 0.47667 0.4488 0.3154 0.0
C200 C 0.47727 0.05605 0.31761 0.0
O201 O 0.24896 0.2031 0.28585 0.0
O202 O 0.38821 0.28188 0.27001 0.0
O203 O 0.53159 0.14271 0.31694 0.0
O204 O 0.37626 0.06849 0.31752 0.0
C205 C 0.27996 0.26563 0.36343 0.0
O206 O 0.53097 0.36192 0.31578 0.0
O207 O 0.37503 0.43704 0.315 0.0
loop_
_geom_bond_atom_site_label_1
_geom_bond_atom_site_label_2
_geom_bond_distance
_geom_bond_site_symmetry_2
_ccdc_geom_bond_type
In0 O1 2.294 . S
In0 O2 2.326 . S
In0 O6 2.266 . S
In0 O7 2.326 . S
In0 O8 2.266 1_545 S
In0 O9 2.326 . S
In0 O11 2.294 1_545 S
In0 O12 2.326 . S
O1 In0 2.294 . S
O1 C10 1.240 . S
O2 In0 2.326 . S
O2 C10 1.252 . S
C3 O6 1.252 . S
C3 O7 1.260 . S
C4 O11 1.240 1_545 S
C4 O12 1.252 . S
C5 O8 1.252 1_545 S
C5 O9 1.260 . S
O6 In0 2.266 . S
O6 C3 1.252 . S
O7 In0 2.326 . S
O7 C3 1.260 . S
O8 In0 2.266 1_565 S
O8 C5 1.252 1_565 S
O9 In0 2.326 . S
O9 C5 1.260 . S
C10 O1 1.240 . S
C10 O2 1.252 . S
O11 In0 2.294 1_565 S
O11 C4 1.240 1_565 S
O12 In0 2.326 . S
O12 C4 1.252 . S
In13 O14 2.294 1_655 S
In13 O15 2.326 . S
In13 O19 2.266 1_655 S
In13 O20 2.326 . S
In13 O21 2.266 . S
In13 O22 2.326 . S
In13 O24 2.294 . S
In13 O25 2.326 . S
O14 In13 2.294 1_455 S
O14 C23 1.240 1_455 S
O15 In13 2.326 . S
O15 C23 1.252 . S
C16 O19 1.252 1_655 S
C16 O20 1.260 . S
C17 O24 1.240 . S
C17 O25 1.252 . S
C18 O21 1.252 . S
C18 O22 1.260 . S
O19 In13 2.266 1_455 S
O19 C16 1.252 1_455 S
O20 In13 2.326 . S
O20 C16 1.260 . S
O21 In13 2.266 . S
O21 C18 1.252 . S
O22 In13 2.326 . S
O22 C18 1.260 . S
C23 O14 1.240 1_655 S
C23 O15 1.252 . S
O24 In13 2.294 . S
O24 C17 1.240 . S
O25 In13 2.326 . S
O25 C17 1.252 . S
In26 O27 2.294 . S
In26 O28 2.326 . S
In26 O32 2.266 . S
In26 O33 2.326 . S
In26 O34 2.266 . S
In26 O35 2.326 . S
In26 O37 2.294 . S
In26 O38 2.326 . S
O27 In26 2.294 . S
O27 C36 1.240 . S
O28 In26 2.326 . S
O28 C36 1.252 . S
C29 O32 1.252 . S
C29 O33 1.260 . S
C30 O37 1.240 . S
C30 O38 1.252 . S
C31 O34 1.252 . S
C31 O35 1.260 . S
O32 In26 2.266 . S
O32 C29 1.252 . S
O33 In26 2.326 . S
O33 C29 1.260 . S
O34 In26 2.266 . S
O34 C31 1.252 . S
O35 In26 2.326 . S
O35 C31 1.260 . S
C36 O27 1.240 . S
C36 O28 1.252 . S
O37 In26 2.294 . S
O37 C30 1.240 . S
O38 In26 2.326 . S
O38 C30 1.252 . S
In39 O40 2.294 . S
In39 O41 2.326 . S
In39 O45 2.266 . S
In39 O46 2.326 . S
In39 O47 2.266 . S
In39 O48 2.326 . S
In39 O50 2.294 . S
In39 O51 2.326 . S
O40 In39 2.294 . S
O40 C49 1.240 . S
O41 In39 2.326 . S
O41 C49 1.252 . S
C42 O45 1.252 . S
C42 O46 1.260 . S
C43 O50 1.240 . S
C43 O51 1.252 . S
C44 O47 1.252 . S
C44 O48 1.260 . S
O45 In39 2.266 . S
O45 C42 1.252 . S
O46 In39 2.326 . S
O46 C42 1.260 . S
O47 In39 2.266 . S
O47 C44 1.252 . S
O48 In39 2.326 . S
O48 C44 1.260 . S
C49 O40 1.240 . S
C49 O41 1.252 . S
O50 In39 2.294 . S
O50 C43 1.240 . S
O51 In39 2.326 . S
O51 C43 1.252 . S
In52 O53 2.294 . S
In52 O54 2.326 . S
In52 O58 2.266 . S
In52 O59 2.326 . S
In52 O60 2.266 . S
In52 O61 2.326 . S
In52 O63 2.294 . S
In52 O64 2.326 . S
O53 In52 2.294 . S
O53 C62 1.240 . S
O54 In52 2.326 . S
O54 C62 1.252 . S
C55 O58 1.252 . S
C55 O59 1.260 . S
C56 O63 1.240 . S
C56 O64 1.252 . S
C57 O60 1.252 . S
C57 O61 1.260 . S
O58 In52 2.266 . S
O58 C55 1.252 . S
O59 In52 2.326 . S
O59 C55 1.260 . S
O60 In52 2.266 . S
O60 C57 1.252 . S
O61 In52 2.326 . S
O61 C57 1.260 . S
C62 O53 1.240 . S
C62 O54 1.252 . S
O63 In52 2.294 . S
O63 C56 1.240 . S
O64 In52 2.326 . S
O64 C56 1.252 . S
In65 O66 2.294 . S
In65 O67 2.326 . S
In65 O71 2.266 . S
In65 O72 2.326 . S
In65 O73 2.266 . S
In65 O74 2.326 . S
In65 O76 2.294 . S
In65 O77 2.326 . S
O66 In65 2.294 . S
O66 C75 1.240 . S
O67 In65 2.326 . S
O67 C75 1.252 . S
C68 O71 1.252 . S
C68 O72 1.260 . S
C69 O76 1.240 . S
C69 O77 1.252 . S
C70 O73 1.252 . S
C70 O74 1.260 . S
O71 In65 2.266 . S
O71 C68 1.252 . S
O72 In65 2.326 . S
O72 C68 1.260 . S
O73 In65 2.266 . S
O73 C70 1.252 . S
O74 In65 2.326 . S
O74 C70 1.260 . S
C75 O66 1.240 . S
C75 O67 1.252 . S
O76 In65 2.294 . S
O76 C69 1.240 . S
O77 In65 2.326 . S
O77 C69 1.252 . S
In78 O79 2.294 . S
In78 O80 2.326 . S
In78 O84 2.266 . S
In78 O85 2.326 . S
In78 O86 2.266 1_545 S
In78 O87 2.326 . S
In78 O89 2.294 1_545 S
In78 O90 2.326 . S
O79 In78 2.294 . S
O79 C88 1.240 . S
O80 In78 2.326 . S
O80 C88 1.252 . S
C81 O84 1.252 . S
C81 O85 1.260 . S
C82 O89 1.240 1_545 S
C82 O90 1.252 . S
C83 O86 1.252 1_545 S
C83 O87 1.260 . S
O84 In78 2.266 . S
O84 C81 1.252 . S
O85 In78 2.326 . S
O85 C81 1.260 . S
O86 In78 2.266 1_565 S
O86 C83 1.252 1_565 S
O87 In78 2.326 . S
O87 C83 1.260 . S
C88 O79 1.240 . S
C88 O80 1.252 . S
O89 In78 2.294 1_565 S
O89 C82 1.240 1_565 S
O90 In78 2.326 . S
O90 C82 1.252 . S
In91 O92 2.294 . S
In91 O93 2.326 . S
In91 O97 2.266 . S
In91 O98 2.326 . S
In91 O99 2.266 1_655 S
In91 O100 2.326 . S
In91 O102 2.294 1_655 S
In91 O103 2.326 . S
O92 In91 2.294 . S
O92 C101 1.240 . S
O93 In91 2.326 . S
O93 C101 1.252 . S
C94 O97 1.252 . S
C94 O98 1.260 . S
C95 O102 1.240 1_655 S
C95 O103 1.252 . S
C96 O99 1.252 1_655 S
C96 O100 1.260 . S
O97 In91 2.266 . S
O97 C94 1.252 . S
O98 In91 2.326 . S
O98 C94 1.260 . S
O99 In91 2.266 1_455 S
O99 C96 1.252 1_455 S
O100 In91 2.326 . S
O100 C96 1.260 . S
C101 O92 1.240 . S
C101 O93 1.252 . S
O102 In91 2.294 1_455 S
O102 C95 1.240 1_455 S
O103 In91 2.326 . S
O103 C95 1.252 . S
In104 O105 2.294 . S
In104 O106 2.326 . S
In104 O110 2.266 . S
In104 O111 2.326 . S
In104 O112 2.266 . S
In104 O113 2.326 . S
In104 O115 2.294 . S
In104 O116 2.326 . S
O105 In104 2.294 . S
O105 C114 1.240 . S
O106 In104 2.326 . S
O106 C114 1.252 . S
C107 O110 1.252 . S
C107 O111 1.260 . S
C108 O115 1.240 . S
C108 O116 1.252 . S
C109 O112 1.252 . S
C109 O113 1.260 . S
O110 In104 2.266 . S
O110 C107 1.252 . S
O111 In104 2.326 . S
O111 C107 1.260 . S
O112 In104 2.266 . S
O112 C109 1.252 . S
O113 In104 2.326 . S
O113 C109 1.260 . S
C114 O105 1.240 . S
C114 O106 1.252 . S
O115 In104 2.294 . S
O115 C108 1.240 . S
O116 In104 2.326 . S
O116 C108 1.252 . S
In117 O118 2.294 . S
In117 O119 2.326 . S
In117 O123 2.266 . S
In117 O124 2.326 . S
In117 O125 2.266 . S
In117 O126 2.326 . S
In117 O128 2.294 . S
In117 O129 2.326 . S
O118 In117 2.294 . S
O118 C127 1.240 . S
O119 In117 2.326 . S
O119 C127 1.252 . S
C120 O123 1.252 . S
C120 O124 1.260 . S
C121 O128 1.240 . S
C121 O129 1.252 . S
C122 O125 1.252 . S
C122 O126 1.260 . S
O123 In117 2.266 . S
O123 C120 1.252 . S
O124 In117 2.326 . S
O124 C120 1.260 . S
O125 In117 2.266 . S
O125 C122 1.252 . S
O126 In117 2.326 . S
O126 C122 1.260 . S
C127 O118 1.240 . S
C127 O119 1.252 . S
O128 In117 2.294 . S
O128 C121 1.240 . S
O129 In117 2.326 . S
O129 C121 1.252 . S
In130 O131 2.294 . S
In130 O132 2.326 . S
In130 O136 2.266 . S
In130 O137 2.326 . S
In130 O138 2.266 1_565 S
In130 O139 2.326 . S
In130 O141 2.294 1_565 S
In130 O142 2.326 . S
O131 In130 2.294 . S
O131 C140 1.240 . S
O132 In130 2.326 . S
O132 C140 1.252 . S
C133 O136 1.252 . S
C133 O137 1.260 . S
C134 O141 1.240 1_565 S
C134 O142 1.252 . S
C135 O138 1.252 1_565 S
C135 O139 1.260 . S
O136 In130 2.266 . S
O136 C133 1.252 . S
O137 In130 2.326 . S
O137 C133 1.260 . S
O138 In130 2.266 1_545 S
O138 C135 1.252 1_545 S
O139 In130 2.326 . S
O139 C135 1.260 . S
C140 O131 1.240 . S
C140 O132 1.252 . S
O141 In130 2.294 1_545 S
O141 C134 1.240 1_545 S
O142 In130 2.326 . S
O142 C134 1.252 . S
In143 O144 2.294 1_455 S
In143 O145 2.326 . S
In143 O149 2.266 1_455 S
In143 O150 2.326 . S
In143 O151 2.266 . S
In143 O152 2.326 . S
In143 O154 2.294 . S
In143 O155 2.326 . S
O144 In143 2.294 1_655 S
O144 C153 1.240 1_655 S
O145 In143 2.326 . S
O145 C153 1.252 . S
C146 O149 1.252 1_455 S
C146 O150 1.260 . S
C147 O154 1.240 . S
C147 O155 1.252 . S
C148 O151 1.252 . S
C148 O152 1.260 . S
O149 In143 2.266 1_655 S
O149 C146 1.252 1_655 S
O150 In143 2.326 . S
O150 C146 1.260 . S
O151 In143 2.266 . S
O151 C148 1.252 . S
O152 In143 2.326 . S
O152 C148 1.260 . S
C153 O144 1.240 1_455 S
C153 O145 1.252 . S
O154 In143 2.294 . S
O154 C147 1.240 . S
O155 In143 2.326 . S
O155 C147 1.252 . S
In156 O157 2.294 1_565 S
In156 O158 2.326 . S
In156 O162 2.266 1_565 S
In156 O163 2.326 . S
In156 O164 2.266 . S
In156 O165 2.326 . S
In156 O167 2.294 . S
In156 O168 2.326 . S
O157 In156 2.294 1_545 S
O157 C166 1.240 1_545 S
O158 In156 2.326 . S
O158 C166 1.252 . S
C159 O162 1.252 1_565 S
C159 O163 1.260 . S
C160 O167 1.240 . S
C160 O168 1.252 . S
C161 O164 1.252 . S
C161 O165 1.260 . S
O162 In156 2.266 1_545 S
O162 C159 1.252 1_545 S
O163 In156 2.326 . S
O163 C159 1.260 . S
O164 In156 2.266 . S
O164 C161 1.252 . S
O165 In156 2.326 . S
O165 C161 1.260 . S
C166 O157 1.240 1_565 S
C166 O158 1.252 . S
O167 In156 2.294 . S
O167 C160 1.240 . S
O168 In156 2.326 . S
O168 C160 1.252 . S
In169 O170 2.294 1_455 S
In169 O171 2.326 . S
In169 O175 2.266 1_455 S
In169 O176 2.326 . S
In169 O177 2.266 . S
In169 O178 2.326 . S
In169 O180 2.294 . S
In169 O181 2.326 . S
O170 In169 2.294 1_655 S
O170 C179 1.240 1_655 S
O171 In169 2.326 . S
O171 C179 1.252 . S
C172 O175 1.252 1_455 S
C172 O176 1.260 . S
C173 O180 1.240 . S
C173 O181 1.252 . S
C174 O177 1.252 . S
C174 O178 1.260 . S
O175 In169 2.266 1_655 S
O175 C172 1.252 1_655 S
O176 In169 2.326 . S
O176 C172 1.260 . S
O177 In169 2.266 . S
O177 C174 1.252 . S
O178 In169 2.326 . S
O178 C174 1.260 . S
C179 O170 1.240 1_455 S
C179 O171 1.252 . S
O180 In169 2.294 . S
O180 C173 1.240 . S
O181 In169 2.326 . S
O181 C173 1.252 . S
In182 O183 2.294 . S
In182 O184 2.326 . S
In182 O188 2.266 . S
In182 O189 2.326 . S
In182 O190 2.266 . S
In182 O191 2.326 . S
In182 O193 2.294 . S
In182 O194 2.326 . S
O183 In182 2.294 . S
O183 C192 1.240 . S
O184 In182 2.326 . S
O184 C192 1.252 . S
C185 O188 1.252 . S
C185 O189 1.260 . S
C186 O193 1.240 . S
C186 O194 1.252 . S
C187 O190 1.252 . S
C187 O191 1.260 . S
O188 In182 2.266 . S
O188 C185 1.252 . S
O189 In182 2.326 . S
O189 C185 1.260 . S
O190 In182 2.266 . S
O190 C187 1.252 . S
O191 In182 2.326 . S
O191 C187 1.260 . S
C192 O183 1.240 . S
C192 O184 1.252 . S
O193 In182 2.294 . S
O193 C186 1.240 . S
O194 In182 2.326 . S
O194 C186 1.252 . S
In195 O196 2.294 . S
In195 O197 2.326 . S
In195 O201 2.266 . S
In195 O202 2.326 . S
In195 O203 2.266 . S
In195 O204 2.326 . S
In195 O206 2.294 . S
In195 O207 2.326 . S
O196 In195 2.294 . S
O196 C205 1.240 . S
O197 In195 2.326 . S
O197 C205 1.252 . S
C198 O201 1.252 . S
C198 O202 1.260 . S
C199 O206 1.240 . S
C199 O207 1.252 . S
C200 O203 1.252 . S
C200 O204 1.260 . S
O201 In195 2.266 . S
O201 C198 1.252 . S
O202 In195 2.326 . S
O202 C198 1.260 . S
O203 In195 2.266 . S
O203 C200 1.252 . S
O204 In195 2.326 . S
O204 C200 1.260 . S
C205 O196 1.240 . S
C205 O197 1.252 . S
O206 In195 2.294 . S
O206 C199 1.240 . S
O207 In195 2.326 . S
O207 C199 1.252 . S
C62 C10 1.593 . S
C17 C69 1.592 . S
C88 C36 1.592 . S
C101 C43 1.593 . S
C160 C108 1.593 . S
C127 C173 1.592 . S
C192 C140 1.592 . S
C147 C205 1.593 . S
C3 C198 1.548 . S
C18 C161 1.549 . S
C29 C174 1.549 . S
C185 C44 1.549 1_554 S
C55 C120 1.549 1_554 S
C70 C133 1.549 . S
C148 C81 1.549 . S
C109 C94 1.548 . S
C4 C134 1.663 1_445 S
C153 C23 1.663 1_455 S
C30 C114 1.663 . S
C121 C49 1.663 1_545 S
C56 C186 1.663 1_455 S
C75 C199 1.663 . S
C166 C82 1.663 1_565 S
C179 C95 1.663 1_445 S
C135 C5 1.453 1_565 S
C16 C146 1.453 1_665 S
C31 C107 1.453 1_455 S
C122 C42 1.453 . S
C187 C57 1.453 . S
C200 C68 1.453 1_545 S
C159 C83 1.453 1_665 S
C96 C172 1.453 1_655 S
