# Generated by pormake.
# Topology und, (4)-cn, num edge types: 1
# Building blocks:
#     Node 0, Type 0, BuildingBlock: QUQFOY_clean_sbu_1, # of connection points: 4
#     Node 1, Type 0, BuildingBlock: QUQFOY_clean_sbu_1, # of connection points: 4
#     Node 2, Type 0, BuildingBlock: QUQFOY_clean_sbu_1, # of connection points: 4
#     Node 3, Type 0, BuildingBlock: QUQFOY_clean_sbu_1, # of connection points: 4
#     Node 4, Type 0, BuildingBlock: QUQFOY_clean_sbu_1, # of connection points: 4
#     Node 5, Type 0, BuildingBlock: QUQFOY_clean_sbu_1, # of connection points: 4
#     Node 6, Type 0, BuildingBlock: QUQFOY_clean_sbu_1, # of connection points: 4
#     Node 7, Type 0, BuildingBlock: QUQFOY_clean_sbu_1, # of connection points: 4
#     Node 8, Type 0, BuildingBlock: QUQFOY_clean_sbu_1, # of connection points: 4
#     Node 9, Type 0, BuildingBlock: QUQFOY_clean_sbu_1, # of connection points: 4
#     Node 10, Type 0, BuildingBlock: QUQFOY_clean_sbu_1, # of connection points: 4
#     Node 11, Type 0, BuildingBlock: QUQFOY_clean_sbu_1, # of connection points: 4
#     Node 12, Type 0, BuildingBlock: QUQFOY_clean_sbu_1, # of connection points: 4
#     Node 13, Type 0, BuildingBlock: QUQFOY_clean_sbu_1, # of connection points: 4
#     Node 14, Type 0, BuildingBlock: QUQFOY_clean_sbu_1, # of connection points: 4
#     Node 15, Type 0, BuildingBlock: QUQFOY_clean_sbu_1, # of connection points: 4
#     Edge 16, Type (0, 0), None
#     Edge 17, Type (0, 0), None
#     Edge 18, Type (0, 0), None
#     Edge 19, Type (0, 0), None
#     Edge 20, Type (0, 0), None
#     Edge 21, Type (0, 0), None
#     Edge 22, Type (0, 0), None
#     Edge 23, Type (0, 0), None
#     Edge 24, Type (0, 0), None
#     Edge 25, Type (0, 0), None
#     Edge 26, Type (0, 0), None
#     Edge 27, Type (0, 0), None
#     Edge 28, Type (0, 0), None
#     Edge 29, Type (0, 0), None
#     Edge 30, Type (0, 0), None
#     Edge 31, Type (0, 0), None
#     Edge 32, Type (0, 0), None
#     Edge 33, Type (0, 0), None
#     Edge 34, Type (0, 0), None
#     Edge 35, Type (0, 0), None
#     Edge 36, Type (0, 0), None
#     Edge 37, Type (0, 0), None
#     Edge 38, Type (0, 0), None
#     Edge 39, Type (0, 0), None
#     Edge 40, Type (0, 0), None
#     Edge 41, Type (0, 0), None
#     Edge 42, Type (0, 0), None
#     Edge 43, Type (0, 0), None
#     Edge 44, Type (0, 0), None
#     Edge 45, Type (0, 0), None
#     Edge 46, Type (0, 0), None
#     Edge 47, Type (0, 0), None
# Relax obj value: 0.073
# Max RMSD: 0.102
# Mean RMSD: 0.084
data_MOF--net-und--node1-QUQFOY_clean_sbu_1--edge1-none
_symmetry_space_group_name_H-M    P1
_symmetry_Int_Tables_number       1
_symmetry_cell_setting            triclinic
loop_
_symmetry_equiv_pos_as_xyz
'x, y, z'
_cell_length_a     27.578745
_cell_length_b     27.57981
_cell_length_c     10.945609
_cell_angle_alpha  90.002334
_cell_angle_beta   89.997611
_cell_angle_gamma 91.030766
loop_
_atom_site_label
_atom_site_type_symbol
_atom_site_fract_x
_atom_site_fract_y
_atom_site_fract_z
_atom_type_partial_charge
O0 O 0.33709 0.34431 0.85521 0.0
Cd1 Cd 0.33573 0.38597 0.00414 0.0
Cd2 Cd 0.26778 0.43521 0.91934 0.0
O3 O 0.26265 0.36976 0.82049 0.0
O4 O 0.35931 0.35004 0.14905 0.0
O5 O 0.28125 0.36135 0.11264 0.0
C6 C 0.31442 0.3426 0.17914 0.0
C7 C 0.21781 0.46919 0.07029 0.0
C8 C 0.29787 0.34161 0.79584 0.0
C9 C 0.36103 0.48202 0.8903 0.0
O10 O 0.31872 0.48091 0.84559 0.0
O11 O 0.37297 0.45186 0.9731 0.0
O12 O 0.20616 0.47132 0.95593 0.0
O13 O 0.25661 0.4467 0.09916 0.0
O14 O 0.89764 0.05983 0.38887 0.0
Cd15 Cd 0.94335 0.11076 0.31513 0.0
Cd16 Cd 0.99259 1.04281 0.23033 0.0
O17 O 0.9267 1.00558 0.26138 0.0
O18 O 0.90724 0.17239 0.27857 0.0
O19 O 0.93186 0.12194 0.13531 0.0
C20 C 0.90937 0.16074 0.16419 0.0
C21 C 1.03596 0.06412 0.05533 0.0
C22 C 0.89654 1.01752 0.34417 0.0
C23 C 1.03696 0.08066 0.43863 0.0
O24 O 1.03425 1.04145 0.37925 0.0
O25 O 1.0088 0.11589 0.41398 0.0
O26 O 1.02852 1.01923 0.08541 0.0
O27 O 1.01721 0.09729 0.12184 0.0
O28 O 0.26327 0.81243 0.35524 0.0
Cd29 Cd 0.26463 0.77077 0.50416 0.0
Cd30 Cd 0.33258 0.72153 0.41936 0.0
O31 O 0.33771 0.78698 0.32051 0.0
O32 O 0.24105 0.80669 0.64908 0.0
O33 O 0.31911 0.79539 0.61265 0.0
C34 C 0.28594 0.81414 0.67916 0.0
C35 C 0.38256 0.68755 0.5703 0.0
C36 C 0.30248 0.81513 0.29586 0.0
C37 C 0.23934 0.67472 0.39032 0.0
O38 O 0.28165 0.67582 0.34561 0.0
O39 O 0.22739 0.70488 0.47311 0.0
O40 O 0.39422 0.68542 0.45593 0.0
O41 O 0.34376 0.71004 0.59918 0.0
O42 O 0.70273 0.0969 0.8889 0.0
Cd43 Cd 0.65703 0.04597 0.81516 0.0
Cd44 Cd 0.60778 0.11391 0.73036 0.0
O45 O 0.67367 0.15115 0.76139 0.0
O46 O 0.69314 0.98434 0.77857 0.0
O47 O 0.66851 1.03479 0.63534 0.0
C48 C 0.69101 0.996 0.6642 0.0
C49 C 0.56441 0.0926 0.55535 0.0
C50 C 0.70383 0.13922 0.84418 0.0
C51 C 0.56342 0.07606 0.93866 0.0
O52 O 0.56612 0.11528 0.87928 0.0
O53 O 0.59157 1.04084 0.914 0.0
O54 O 0.57185 0.13749 0.58545 0.0
O55 O 0.58316 0.05944 0.62185 0.0
O56 O 0.83573 0.80867 0.86558 0.0
Cd57 Cd 0.83659 0.75425 -0.01098 0.0
Cd58 Cd 0.74622 0.76949 -0.01775 0.0
O59 O 0.76097 0.79365 0.80429 0.0
O60 O 0.90356 0.73235 0.95621 0.0
O61 O 0.83874 0.68666 0.91475 0.0
C62 C 0.88492 0.69439 0.90431 0.0
C63 C 0.69634 0.71283 0.07703 0.0
C64 C 0.8024 0.81412 0.78811 0.0
C65 C 0.79522 0.8104 0.1887 0.0
O66 O 0.76322 0.81924 0.10972 0.0
O67 O 0.82697 0.77816 0.16844 0.0
O68 O 0.67882 0.75178 0.02963 0.0
O69 O 0.74105 0.70243 0.05425 0.0
O70 O 0.06989 1.04282 0.86888 0.0
Cd71 Cd 0.12431 1.04195 0.74545 0.0
Cd72 Cd 0.10907 0.13233 0.75223 0.0
O73 O 0.08491 0.11757 0.93018 0.0
O74 O 0.14621 0.97498 0.77826 0.0
O75 O 0.1919 1.03979 0.81972 0.0
C76 C 0.18416 0.99362 0.83017 0.0
C77 C 0.16572 0.18221 0.65744 0.0
C78 C 0.06443 0.07614 0.94636 0.0
C79 C 0.06816 0.08332 0.54578 0.0
O80 O 0.05932 0.11532 0.62476 0.0
O81 O 0.1004 0.05157 0.56603 0.0
O82 O 0.12677 0.19972 0.70485 0.0
O83 O 0.17613 0.1375 0.6802 0.0
O84 O 0.76464 0.34806 0.36562 0.0
Cd85 Cd 0.76377 0.40249 0.48905 0.0
Cd86 Cd 0.85414 0.38724 0.48227 0.0
O87 O 0.83939 0.36308 0.30431 0.0
O88 O 0.6968 0.42439 0.45623 0.0
O89 O 0.76162 0.47007 0.41477 0.0
C90 C 0.71544 0.46234 0.40432 0.0
C91 C 0.90403 0.4439 0.57705 0.0
C92 C 0.79796 0.34261 0.28814 0.0
C93 C 0.80513 0.34634 0.68872 0.0
O94 O 0.83714 0.3375 0.60974 0.0
O95 O 0.77339 0.37858 0.66847 0.0
O96 O 0.92154 0.40495 0.52965 0.0
O97 O 0.85931 0.45431 0.55429 0.0
O98 O 0.53048 0.1139 0.36892 0.0
Cd99 Cd 0.47606 0.11477 0.24548 0.0
Cd100 Cd 0.4913 1.0244 0.25225 0.0
O101 O 0.51546 1.03915 0.43021 0.0
O102 O 0.45416 0.18174 0.27828 0.0
O103 O 0.40847 0.11693 0.31974 0.0
C104 C 0.41621 0.16311 0.33018 0.0
C105 C 0.43465 0.97452 0.15747 0.0
C106 C 0.53593 0.08058 0.44639 0.0
C107 C 0.53221 0.07341 0.04581 0.0
O108 O 0.54105 1.0414 0.12478 0.0
O109 O 0.49997 0.10515 0.06606 0.0
O110 O 0.47359 0.957 0.20486 0.0
O111 O 0.42424 1.01923 0.18024 0.0
O112 O 0.83709 0.84431 0.35522 0.0
Cd113 Cd 0.83574 0.88597 0.50414 0.0
Cd114 Cd 0.76778 0.93521 0.41934 0.0
O115 O 0.76265 0.86975 0.3205 0.0
O116 O 0.85931 0.85004 0.64906 0.0
O117 O 0.78125 0.86135 0.61265 0.0
C118 C 0.81443 0.8426 0.67915 0.0
C119 C 0.71782 0.9692 0.57029 0.0
C120 C 0.79787 0.8416 0.29586 0.0
C121 C 0.86103 0.98202 0.3903 0.0
O122 O 0.81872 0.98091 0.34559 0.0
O123 O 0.87297 0.95186 0.4731 0.0
O124 O 0.70616 0.97132 0.45592 0.0
O125 O 0.75661 0.9467 0.59916 0.0
O126 O 0.39764 0.55983 0.88888 0.0
Cd127 Cd 0.44335 0.61076 0.81514 0.0
Cd128 Cd 0.49259 0.54281 0.73034 0.0
O129 O 0.4267 0.50558 0.76138 0.0
O130 O 0.40724 0.67239 0.77857 0.0
O131 O 0.43186 0.62194 0.63532 0.0
C132 C 0.40936 0.66074 0.6642 0.0
C133 C 0.53596 0.56412 0.55533 0.0
C134 C 0.39654 0.51752 0.84417 0.0
C135 C 0.53696 0.58066 0.93863 0.0
O136 O 0.53425 0.54145 0.87925 0.0
O137 O 0.5088 0.61589 0.91398 0.0
O138 O 0.52852 0.51924 0.58541 0.0
O139 O 0.51721 0.59729 0.62184 0.0
O140 O 0.76326 0.31243 0.85525 0.0
Cd141 Cd 0.76462 0.27077 0.00416 0.0
Cd142 Cd 0.83258 0.22153 0.91936 0.0
O143 O 0.83771 0.28698 0.82052 0.0
O144 O 0.74105 0.30669 0.14909 0.0
O145 O 0.81911 0.29538 0.11266 0.0
C146 C 0.78594 0.31414 0.17917 0.0
C147 C 0.88256 0.18754 0.07029 0.0
C148 C 0.80248 0.31514 0.79588 0.0
C149 C 0.73933 0.17472 0.89032 0.0
O150 O 0.78165 0.17582 0.84561 0.0
O151 O 0.72739 0.20488 0.97311 0.0
O152 O 0.89422 0.18542 0.95592 0.0
O153 O 0.84376 0.21004 0.09918 0.0
O154 O 0.20273 0.5969 0.3889 0.0
Cd155 Cd 0.15703 0.54597 0.31516 0.0
Cd156 Cd 0.10778 0.61391 0.23036 0.0
O157 O 0.17367 0.65115 0.26139 0.0
O158 O 0.19314 0.48434 0.27858 0.0
O159 O 0.16852 0.53479 0.13534 0.0
C160 C 0.19101 0.496 0.16421 0.0
C161 C 0.06441 0.5926 0.05535 0.0
C162 C 0.20383 0.63921 0.34419 0.0
C163 C 0.06342 0.57606 0.43866 0.0
O164 O 0.06612 0.61528 0.37928 0.0
O165 O 0.09157 0.54084 0.414 0.0
O166 O 0.07185 0.63749 0.08545 0.0
O167 O 0.08316 0.55943 0.12185 0.0
O168 O 0.33572 0.30867 0.36558 0.0
Cd169 Cd 0.33659 0.25425 0.48901 0.0
Cd170 Cd 0.24621 0.26949 0.48224 0.0
O171 O 0.26097 0.29365 0.30429 0.0
O172 O 0.40356 0.23235 0.4562 0.0
O173 O 0.33874 0.18666 0.41475 0.0
C174 C 0.38492 0.1944 0.40429 0.0
C175 C 0.19634 0.21284 0.57703 0.0
C176 C 0.3024 0.31412 0.2881 0.0
C177 C 0.29522 0.3104 0.68868 0.0
O178 O 0.26322 0.31924 0.60971 0.0
O179 O 0.32697 0.27816 0.66843 0.0
O180 O 0.17882 0.25178 0.52963 0.0
O181 O 0.24105 0.20243 0.55425 0.0
O182 O 0.56989 0.54282 0.36888 0.0
Cd183 Cd 0.62431 0.54195 0.24545 0.0
Cd184 Cd 0.60907 0.63233 0.25223 0.0
O185 O 0.58491 0.61757 0.43019 0.0
O186 O 0.64621 0.47498 0.27827 0.0
O187 O 0.6919 0.5398 0.31973 0.0
C188 C 0.68416 0.49362 0.33019 0.0
C189 C 0.66572 0.68221 0.15744 0.0
C190 C 0.56443 0.57614 0.44636 0.0
C191 C 0.56816 0.58332 0.04578 0.0
O192 O 0.55932 0.61532 0.12476 0.0
O193 O 0.6004 0.55157 0.06603 0.0
O194 O 0.62677 0.69972 0.20485 0.0
O195 O 0.67613 0.6375 0.18021 0.0
O196 O 0.26464 0.84806 0.86562 0.0
Cd197 Cd 0.26377 0.90249 -0.01096 0.0
Cd198 Cd 0.35415 0.88724 -0.01773 0.0
O199 O 0.33939 0.86309 0.80431 0.0
O200 O 0.1968 0.92439 0.95622 0.0
O201 O 0.26162 0.97007 0.91476 0.0
C202 C 0.21544 0.96233 0.9043 0.0
C203 C 0.40403 0.9439 0.07705 0.0
C204 C 0.29796 0.84261 0.78813 0.0
C205 C 0.30514 0.84634 0.18871 0.0
O206 O 0.33714 0.8375 0.10973 0.0
O207 O 0.27339 0.87857 0.16846 0.0
O208 O 0.42154 0.90495 0.02964 0.0
O209 O 0.35931 0.95431 0.05429 0.0
O210 O 1.03048 0.6139 0.86892 0.0
Cd211 Cd 0.97606 0.61477 0.74548 0.0
Cd212 Cd 0.9913 0.5244 0.75225 0.0
O213 O 1.01546 0.53915 0.93021 0.0
O214 O 0.95417 0.68174 0.77829 0.0
O215 O 0.90847 0.61693 0.81975 0.0
C216 C 0.91621 0.66311 0.8302 0.0
C217 C 0.93465 0.47452 0.65747 0.0
C218 C 1.03593 0.58058 0.94639 0.0
C219 C 1.03221 0.57341 0.54581 0.0
O220 O 1.04105 0.5414 0.62478 0.0
O221 O 0.99997 0.60515 0.56606 0.0
O222 O 0.97359 0.457 0.70486 0.0
O223 O 0.92424 0.51923 0.68024 0.0
loop_
_geom_bond_atom_site_label_1
_geom_bond_atom_site_label_2
_geom_bond_distance
_geom_bond_site_symmetry_2
_ccdc_geom_bond_type
O0 Cd1 2.223 1_556 S
O0 C8 1.315 . S
Cd1 O0 2.223 1_554 S
Cd1 O4 2.297 . S
Cd1 O5 2.439 . S
Cd1 O11 2.240 . S
Cd2 O3 2.240 . S
Cd2 O10 2.223 . S
Cd2 O12 2.297 . S
Cd2 O13 2.439 1_556 S
O3 Cd2 2.240 . S
O3 C8 1.279 . S
O4 Cd1 2.297 . S
O4 C6 1.247 . S
O5 Cd1 2.439 . S
O5 C6 1.208 . S
C6 O4 1.247 . S
C6 O5 1.208 . S
C7 O12 1.247 1_554 S
C7 O13 1.208 . S
C8 O0 1.315 . S
C8 O3 1.279 . S
C9 O10 1.315 . S
C9 O11 1.279 1_556 S
O10 Cd2 2.223 . S
O10 C9 1.315 . S
O11 Cd1 2.240 . S
O11 C9 1.279 1_554 S
O12 Cd2 2.297 . S
O12 C7 1.247 1_556 S
O13 Cd2 2.439 1_554 S
O13 C7 1.208 . S
O14 Cd15 2.223 . S
O14 C22 1.315 1_545 S
Cd15 O14 2.223 . S
Cd15 O18 2.297 . S
Cd15 O19 2.439 . S
Cd15 O25 2.240 . S
Cd16 O17 2.240 . S
Cd16 O24 2.223 . S
Cd16 O26 2.297 . S
Cd16 O27 2.439 1_565 S
O17 Cd16 2.240 . S
O17 C22 1.279 . S
O18 Cd15 2.297 . S
O18 C20 1.247 . S
O19 Cd15 2.439 . S
O19 C20 1.208 . S
C20 O18 1.247 . S
C20 O19 1.208 . S
C21 O26 1.247 1_545 S
C21 O27 1.208 . S
C22 O14 1.315 1_565 S
C22 O17 1.279 . S
C23 O24 1.315 1_545 S
C23 O25 1.279 . S
O24 Cd16 2.223 . S
O24 C23 1.315 1_565 S
O25 Cd15 2.240 . S
O25 C23 1.279 . S
O26 Cd16 2.297 . S
O26 C21 1.247 1_565 S
O27 Cd16 2.439 1_545 S
O27 C21 1.208 . S
O28 Cd29 2.223 . S
O28 C36 1.315 . S
Cd29 O28 2.223 . S
Cd29 O32 2.297 . S
Cd29 O33 2.439 . S
Cd29 O39 2.240 . S
Cd30 O31 2.240 . S
Cd30 O38 2.223 . S
Cd30 O40 2.297 . S
Cd30 O41 2.439 . S
O31 Cd30 2.240 . S
O31 C36 1.279 . S
O32 Cd29 2.297 . S
O32 C34 1.247 . S
O33 Cd29 2.439 . S
O33 C34 1.208 . S
C34 O32 1.247 . S
C34 O33 1.208 . S
C35 O40 1.247 . S
C35 O41 1.208 . S
C36 O28 1.315 . S
C36 O31 1.279 . S
C37 O38 1.315 . S
C37 O39 1.279 . S
O38 Cd30 2.223 . S
O38 C37 1.315 . S
O39 Cd29 2.240 . S
O39 C37 1.279 . S
O40 Cd30 2.297 . S
O40 C35 1.247 . S
O41 Cd30 2.439 . S
O41 C35 1.208 . S
O42 Cd43 2.223 . S
O42 C50 1.315 . S
Cd43 O42 2.223 . S
Cd43 O46 2.297 1_545 S
Cd43 O47 2.439 1_545 S
Cd43 O53 2.240 . S
Cd44 O45 2.240 . S
Cd44 O52 2.223 . S
Cd44 O54 2.297 . S
Cd44 O55 2.439 . S
O45 Cd44 2.240 . S
O45 C50 1.279 . S
O46 Cd43 2.297 1_565 S
O46 C48 1.247 . S
O47 Cd43 2.439 1_565 S
O47 C48 1.208 . S
C48 O46 1.247 . S
C48 O47 1.208 . S
C49 O54 1.247 . S
C49 O55 1.208 . S
C50 O42 1.315 . S
C50 O45 1.279 . S
C51 O52 1.315 . S
C51 O53 1.279 . S
O52 Cd44 2.223 . S
O52 C51 1.315 . S
O53 Cd43 2.240 . S
O53 C51 1.279 . S
O54 Cd44 2.297 . S
O54 C49 1.247 . S
O55 Cd44 2.439 . S
O55 C49 1.208 . S
O56 Cd57 2.223 1_556 S
O56 C64 1.315 . S
Cd57 O56 2.223 1_554 S
Cd57 O60 2.297 1_554 S
Cd57 O61 2.439 1_554 S
Cd57 O67 2.240 . S
Cd58 O59 2.240 1_554 S
Cd58 O66 2.223 . S
Cd58 O68 2.297 . S
Cd58 O69 2.439 . S
O59 Cd58 2.240 1_556 S
O59 C64 1.279 . S
O60 Cd57 2.297 1_556 S
O60 C62 1.247 . S
O61 Cd57 2.439 1_556 S
O61 C62 1.208 . S
C62 O60 1.247 . S
C62 O61 1.208 . S
C63 O68 1.247 . S
C63 O69 1.208 . S
C64 O56 1.315 . S
C64 O59 1.279 . S
C65 O66 1.315 . S
C65 O67 1.279 . S
O66 Cd58 2.223 . S
O66 C65 1.315 . S
O67 Cd57 2.240 . S
O67 C65 1.279 . S
O68 Cd58 2.297 . S
O68 C63 1.247 . S
O69 Cd58 2.439 . S
O69 C63 1.208 . S
O70 Cd71 2.223 1_655 S
O70 C78 1.315 1_655 S
Cd71 O70 2.223 1_455 S
Cd71 O74 2.297 . S
Cd71 O75 2.439 . S
Cd71 O81 2.240 1_565 S
Cd72 O73 2.240 . S
Cd72 O80 2.223 . S
Cd72 O82 2.297 . S
Cd72 O83 2.439 . S
O73 Cd72 2.240 . S
O73 C78 1.279 1_545 S
O74 Cd71 2.297 . S
O74 C76 1.247 . S
O75 Cd71 2.439 . S
O75 C76 1.208 . S
C76 O74 1.247 . S
C76 O75 1.208 . S
C77 O82 1.247 . S
C77 O83 1.208 . S
C78 O70 1.315 1_455 S
C78 O73 1.279 1_565 S
C79 O80 1.315 . S
C79 O81 1.279 . S
O80 Cd72 2.223 . S
O80 C79 1.315 . S
O81 Cd71 2.240 1_545 S
O81 C79 1.279 . S
O82 Cd72 2.297 . S
O82 C77 1.247 . S
O83 Cd72 2.439 . S
O83 C77 1.208 . S
O84 Cd85 2.223 . S
O84 C92 1.315 . S
Cd85 O84 2.223 . S
Cd85 O88 2.297 . S
Cd85 O89 2.439 . S
Cd85 O95 2.240 . S
Cd86 O87 2.240 . S
Cd86 O94 2.223 . S
Cd86 O96 2.297 . S
Cd86 O97 2.439 . S
O87 Cd86 2.240 . S
O87 C92 1.279 . S
O88 Cd85 2.297 . S
O88 C90 1.247 . S
O89 Cd85 2.439 . S
O89 C90 1.208 . S
C90 O88 1.247 . S
C90 O89 1.208 . S
C91 O96 1.247 . S
C91 O97 1.208 . S
C92 O84 1.315 . S
C92 O87 1.279 . S
C93 O94 1.315 . S
C93 O95 1.279 . S
O94 Cd86 2.223 . S
O94 C93 1.315 . S
O95 Cd85 2.240 . S
O95 C93 1.279 . S
O96 Cd86 2.297 . S
O96 C91 1.247 . S
O97 Cd86 2.439 . S
O97 C91 1.208 . S
O98 Cd99 2.223 . S
O98 C106 1.315 . S
Cd99 O98 2.223 . S
Cd99 O102 2.297 . S
Cd99 O103 2.439 . S
Cd99 O109 2.240 . S
Cd100 O101 2.240 1_565 S
Cd100 O108 2.223 1_565 S
Cd100 O110 2.297 . S
Cd100 O111 2.439 . S
O101 Cd100 2.240 1_545 S
O101 C106 1.279 . S
O102 Cd99 2.297 . S
O102 C104 1.247 . S
O103 Cd99 2.439 . S
O103 C104 1.208 . S
C104 O102 1.247 . S
C104 O103 1.208 . S
C105 O110 1.247 . S
C105 O111 1.208 . S
C106 O98 1.315 . S
C106 O101 1.279 . S
C107 O108 1.315 . S
C107 O109 1.279 . S
O108 Cd100 2.223 1_545 S
O108 C107 1.315 . S
O109 Cd99 2.240 . S
O109 C107 1.279 . S
O110 Cd100 2.297 . S
O110 C105 1.247 . S
O111 Cd100 2.439 . S
O111 C105 1.208 . S
O112 Cd113 2.223 . S
O112 C120 1.315 . S
Cd113 O112 2.223 . S
Cd113 O116 2.297 . S
Cd113 O117 2.439 . S
Cd113 O123 2.240 . S
Cd114 O115 2.240 . S
Cd114 O122 2.223 . S
Cd114 O124 2.297 . S
Cd114 O125 2.439 . S
O115 Cd114 2.240 . S
O115 C120 1.279 . S
O116 Cd113 2.297 . S
O116 C118 1.247 . S
O117 Cd113 2.439 . S
O117 C118 1.208 . S
C118 O116 1.247 . S
C118 O117 1.208 . S
C119 O124 1.247 . S
C119 O125 1.208 . S
C120 O112 1.315 . S
C120 O115 1.279 . S
C121 O122 1.315 . S
C121 O123 1.279 . S
O122 Cd114 2.223 . S
O122 C121 1.315 . S
O123 Cd113 2.240 . S
O123 C121 1.279 . S
O124 Cd114 2.297 . S
O124 C119 1.247 . S
O125 Cd114 2.439 . S
O125 C119 1.208 . S
O126 Cd127 2.223 . S
O126 C134 1.315 . S
Cd127 O126 2.223 . S
Cd127 O130 2.297 . S
Cd127 O131 2.439 . S
Cd127 O137 2.240 . S
Cd128 O129 2.240 . S
Cd128 O136 2.223 . S
Cd128 O138 2.297 . S
Cd128 O139 2.439 . S
O129 Cd128 2.240 . S
O129 C134 1.279 . S
O130 Cd127 2.297 . S
O130 C132 1.247 . S
O131 Cd127 2.439 . S
O131 C132 1.208 . S
C132 O130 1.247 . S
C132 O131 1.208 . S
C133 O138 1.247 . S
C133 O139 1.208 . S
C134 O126 1.315 . S
C134 O129 1.279 . S
C135 O136 1.315 . S
C135 O137 1.279 . S
O136 Cd128 2.223 . S
O136 C135 1.315 . S
O137 Cd127 2.240 . S
O137 C135 1.279 . S
O138 Cd128 2.297 . S
O138 C133 1.247 . S
O139 Cd128 2.439 . S
O139 C133 1.208 . S
O140 Cd141 2.223 1_556 S
O140 C148 1.315 . S
Cd141 O140 2.223 1_554 S
Cd141 O144 2.297 . S
Cd141 O145 2.439 . S
Cd141 O151 2.240 . S
Cd142 O143 2.240 . S
Cd142 O150 2.223 . S
Cd142 O152 2.297 . S
Cd142 O153 2.439 1_556 S
O143 Cd142 2.240 . S
O143 C148 1.279 . S
O144 Cd141 2.297 . S
O144 C146 1.247 . S
O145 Cd141 2.439 . S
O145 C146 1.208 . S
C146 O144 1.247 . S
C146 O145 1.208 . S
C147 O152 1.247 1_554 S
C147 O153 1.208 . S
C148 O140 1.315 . S
C148 O143 1.279 . S
C149 O150 1.315 . S
C149 O151 1.279 1_556 S
O150 Cd142 2.223 . S
O150 C149 1.315 . S
O151 Cd141 2.240 . S
O151 C149 1.279 1_554 S
O152 Cd142 2.297 . S
O152 C147 1.247 1_556 S
O153 Cd142 2.439 1_554 S
O153 C147 1.208 . S
O154 Cd155 2.223 . S
O154 C162 1.315 . S
Cd155 O154 2.223 . S
Cd155 O158 2.297 . S
Cd155 O159 2.439 . S
Cd155 O165 2.240 . S
Cd156 O157 2.240 . S
Cd156 O164 2.223 . S
Cd156 O166 2.297 . S
Cd156 O167 2.439 . S
O157 Cd156 2.240 . S
O157 C162 1.279 . S
O158 Cd155 2.297 . S
O158 C160 1.247 . S
O159 Cd155 2.439 . S
O159 C160 1.208 . S
C160 O158 1.247 . S
C160 O159 1.208 . S
C161 O166 1.247 . S
C161 O167 1.208 . S
C162 O154 1.315 . S
C162 O157 1.279 . S
C163 O164 1.315 . S
C163 O165 1.279 . S
O164 Cd156 2.223 . S
O164 C163 1.315 . S
O165 Cd155 2.240 . S
O165 C163 1.279 . S
O166 Cd156 2.297 . S
O166 C161 1.247 . S
O167 Cd156 2.439 . S
O167 C161 1.208 . S
O168 Cd169 2.223 . S
O168 C176 1.315 . S
Cd169 O168 2.223 . S
Cd169 O172 2.297 . S
Cd169 O173 2.439 . S
Cd169 O179 2.240 . S
Cd170 O171 2.240 . S
Cd170 O178 2.223 . S
Cd170 O180 2.297 . S
Cd170 O181 2.439 . S
O171 Cd170 2.240 . S
O171 C176 1.279 . S
O172 Cd169 2.297 . S
O172 C174 1.247 . S
O173 Cd169 2.439 . S
O173 C174 1.208 . S
C174 O172 1.247 . S
C174 O173 1.208 . S
C175 O180 1.247 . S
C175 O181 1.208 . S
C176 O168 1.315 . S
C176 O171 1.279 . S
C177 O178 1.315 . S
C177 O179 1.279 . S
O178 Cd170 2.223 . S
O178 C177 1.315 . S
O179 Cd169 2.240 . S
O179 C177 1.279 . S
O180 Cd170 2.297 . S
O180 C175 1.247 . S
O181 Cd170 2.439 . S
O181 C175 1.208 . S
O182 Cd183 2.223 . S
O182 C190 1.315 . S
Cd183 O182 2.223 . S
Cd183 O186 2.297 . S
Cd183 O187 2.439 . S
Cd183 O193 2.240 . S
Cd184 O185 2.240 . S
Cd184 O192 2.223 . S
Cd184 O194 2.297 . S
Cd184 O195 2.439 . S
O185 Cd184 2.240 . S
O185 C190 1.279 . S
O186 Cd183 2.297 . S
O186 C188 1.247 . S
O187 Cd183 2.439 . S
O187 C188 1.208 . S
C188 O186 1.247 . S
C188 O187 1.208 . S
C189 O194 1.247 . S
C189 O195 1.208 . S
C190 O182 1.315 . S
C190 O185 1.279 . S
C191 O192 1.315 . S
C191 O193 1.279 . S
O192 Cd184 2.223 . S
O192 C191 1.315 . S
O193 Cd183 2.240 . S
O193 C191 1.279 . S
O194 Cd184 2.297 . S
O194 C189 1.247 . S
O195 Cd184 2.439 . S
O195 C189 1.208 . S
O196 Cd197 2.223 1_556 S
O196 C204 1.315 . S
Cd197 O196 2.223 1_554 S
Cd197 O200 2.297 1_554 S
Cd197 O201 2.439 1_554 S
Cd197 O207 2.240 . S
Cd198 O199 2.240 1_554 S
Cd198 O206 2.223 . S
Cd198 O208 2.297 . S
Cd198 O209 2.439 . S
O199 Cd198 2.240 1_556 S
O199 C204 1.279 . S
O200 Cd197 2.297 1_556 S
O200 C202 1.247 . S
O201 Cd197 2.439 1_556 S
O201 C202 1.208 . S
C202 O200 1.247 . S
C202 O201 1.208 . S
C203 O208 1.247 . S
C203 O209 1.208 . S
C204 O196 1.315 . S
C204 O199 1.279 . S
C205 O206 1.315 . S
C205 O207 1.279 . S
O206 Cd198 2.223 . S
O206 C205 1.315 . S
O207 Cd197 2.240 . S
O207 C205 1.279 . S
O208 Cd198 2.297 . S
O208 C203 1.247 . S
O209 Cd198 2.439 . S
O209 C203 1.208 . S
O210 Cd211 2.223 1_455 S
O210 C218 1.315 1_455 S
Cd211 O210 2.223 1_655 S
Cd211 O214 2.297 . S
Cd211 O215 2.439 . S
Cd211 O221 2.240 . S
Cd212 O213 2.240 . S
Cd212 O220 2.223 . S
Cd212 O222 2.297 . S
Cd212 O223 2.439 . S
O213 Cd212 2.240 . S
O213 C218 1.279 . S
O214 Cd211 2.297 . S
O214 C216 1.247 . S
O215 Cd211 2.439 . S
O215 C216 1.208 . S
C216 O214 1.247 . S
C216 O215 1.208 . S
C217 O222 1.247 . S
C217 O223 1.208 . S
C218 O210 1.315 1_655 S
C218 O213 1.279 . S
C219 O220 1.315 . S
C219 O221 1.279 . S
O220 Cd212 2.223 . S
O220 C219 1.315 . S
O221 Cd211 2.240 . S
O221 C219 1.279 . S
O222 Cd212 2.297 . S
O222 C217 1.247 . S
O223 Cd212 2.439 . S
O223 C217 1.208 . S
C6 C176 1.379 . S
C23 C79 2.032 1_655 S
C34 C204 1.379 . S
C107 C51 2.031 1_554 S
C205 C36 2.032 . S
C106 C49 1.379 . S
C177 C8 2.032 . S
C78 C21 1.379 1_466 S
C64 C118 1.379 . S
C92 C146 1.379 . S
C148 C93 2.032 . S
C65 C120 2.032 . S
C191 C135 2.032 1_554 S
C163 C219 2.032 1_455 S
C161 C218 1.379 1_454 S
C133 C190 1.379 . S
C160 C7 1.755 . S
C121 C22 1.489 . S
C35 C132 1.755 . S
C149 C50 1.489 . S
C162 C37 1.488 . S
C48 C119 1.754 . S
C134 C9 1.488 . S
C147 C20 1.755 . S
C62 C216 1.416 . S
C175 C77 1.805 . S
C90 C188 1.416 . S
C105 C203 1.805 . S
C91 C217 1.805 . S
C174 C104 1.416 . S
C189 C63 1.805 . S
C202 C76 1.416 . S
