# Generated by pormake.
# Topology pcu, (6)-cn, num edge types: 1
# Building blocks:
#     Node 0, Type 0, BuildingBlock: HISSIN_clean_sbu_0, # of connection points: 6
#     Edge 1, Type (0, 0), BuildingBlock: TEMPAE_clean_linker_10, # of connection points: 2
#     Edge 2, Type (0, 0), BuildingBlock: TEMPAE_clean_linker_10, # of connection points: 2
#     Edge 3, Type (0, 0), BuildingBlock: TEMPAE_clean_linker_10, # of connection points: 2
# Relax obj value: 0.000
# Max RMSD: 0.000
# Mean RMSD: 0.000
data_MOF--net-pcu--node1-HISSIN_clean_sbu_0--edge1-TEMPAE_clean_linker_10
_symmetry_space_group_name_H-M    P1
_symmetry_Int_Tables_number       1
_symmetry_cell_setting            triclinic
loop_
_symmetry_equiv_pos_as_xyz
'x, y, z'
_cell_length_a     15.482509
_cell_length_b     25.545564
_cell_length_c     15.589659
_cell_angle_alpha  122.38726
_cell_angle_beta   91.449095
_cell_angle_gamma 96.517249
loop_
_atom_site_label
_atom_site_type_symbol
_atom_site_fract_x
_atom_site_fract_y
_atom_site_fract_z
_atom_type_partial_charge
Eu0 Eu 0.96945 0.94366 0.91382 0.0
Eu1 Eu 0.00036 0.09883 0.04694 0.0
C2 C 0.15926 1.02129 -0.01639 0.0
C3 C 0.95976 0.77417 0.83995 0.0
C4 C 0.00831 0.79165 0.931 0.0
C5 C 0.93302 0.66659 0.79576 0.0
C6 C 0.01916 0.74676 0.95428 0.0
C7 C 0.92249 0.71143 0.77246 0.0
C8 C 0.98115 0.68372 0.88716 0.0
C9 C 0.94495 0.82113 0.81618 0.0
O10 O 0.96061 0.06841 0.88531 0.0
O11 O 0.00159 0.97035 0.80052 0.0
C12 C 0.98131 1.01946 0.80209 0.0
O13 O 0.84308 0.97497 0.89809 0.0
O14 O 0.08578 0.18954 0.12448 0.0
O15 O 0.94548 0.18599 0.1193 0.0
O16 O 0.8628 0.06433 0.05675 0.0
C17 C 0.81081 1.01952 0.97703 0.0
O18 O 0.95031 0.97493 0.07627 0.0
O19 O 0.02908 0.0743 0.16266 0.0
O20 O 0.12581 0.0656 0.98154 0.0
O21 O 0.88547 0.85572 0.86412 0.0
O22 O 0.01442 0.8539 0.81297 0.0
O23 O 0.10873 0.977 -0.01498 0.0
C24 C 0.02672 0.26742 0.11327 0.0
C25 C -0.00624 0.25007 0.01536 0.0
C26 C 0.06398 0.37498 0.15938 0.0
C27 C -0.00529 0.29508 -0.00987 0.0
C28 C 0.06262 0.32995 0.18463 0.0
C29 C 0.02905 0.35831 0.06219 0.0
C30 C 0.02092 0.22131 0.1429 0.0
C31 C 0.99052 1.02497 0.16059 0.0
H32 H 0.03699 0.84009 -0.01555 0.0
H33 H 0.90379 0.61837 0.74191 0.0
H34 H 0.05573 0.76164 0.02578 0.0
H35 H 0.88467 0.69718 0.70194 0.0
H36 H 0.96578 0.20193 0.95905 0.0
H37 H 0.09232 0.42291 0.21614 0.0
H38 H 0.96642 0.28057 0.91501 0.0
H39 H 0.08871 0.34413 0.26041 0.0
C40 C 0.92679 0.98521 0.26403 0.0
C41 C 0.99042 1.02562 0.25593 0.0
C42 C 0.9252 0.98484 0.35353 0.0
C43 C 0.98982 1.02501 0.43627 0.0
C44 C 0.05467 0.06564 0.42842 0.0
C45 C 0.05368 0.06592 0.33855 0.0
C46 C 0.85402 0.94169 0.35971 0.0
C47 C 0.12549 0.10834 0.51454 0.0
C48 C 0.94137 0.06373 0.69986 0.0
C49 C 0.98313 1.02047 0.7082 0.0
C50 C 0.94325 0.06586 0.61189 0.0
C51 C 0.98916 1.02438 0.531 0.0
C52 C 0.03237 0.98113 0.53943 0.0
C53 C 0.02821 0.97932 0.62765 0.0
C54 C 0.8952 0.11195 0.60501 0.0
C55 C 0.08314 0.93686 0.45533 0.0
H56 H 0.87728 0.95429 0.20069 0.0
H57 H 0.10333 0.09691 0.33233 0.0
H58 H 0.88328 0.90835 0.37225 0.0
H59 H 0.81696 0.96935 0.42577 0.0
H60 H 0.8075 0.9144 0.28938 0.0
H61 H 0.17197 0.13631 0.49566 0.0
H62 H 0.09595 0.14101 0.58442 0.0
H63 H 0.16258 0.08021 0.5328 0.0
H64 H 0.90621 0.09559 0.76174 0.0
H65 H 0.0614 0.94624 0.63406 0.0
H66 H 0.84451 0.08633 0.53865 0.0
H67 H 0.94108 0.14329 0.59243 0.0
H68 H 0.86319 0.14132 0.67502 0.0
H69 H 0.03871 0.9052 0.38425 0.0
H70 H 0.11587 0.90777 0.47544 0.0
H71 H 0.13349 0.96379 0.43853 0.0
C72 C 0.30797 0.06147 0.96471 0.0
C73 C 0.25476 1.02061 0.98237 0.0
C74 C 0.39842 0.06092 0.96226 0.0
C75 C 0.4367 1.01888 0.97877 0.0
C76 C 0.38346 0.97764 -0.00306 0.0
C77 C 0.29306 0.97881 -0.0019 0.0
C78 C 0.45301 0.10528 0.9419 0.0
C79 C 0.42207 0.93252 0.01573 0.0
C80 C 0.65924 0.97875 0.88709 0.0
C81 C 0.7151 1.01897 0.97719 0.0
C82 C 0.56845 0.97832 0.88639 0.0
C83 C 0.53269 1.01859 0.97819 0.0
C84 C 0.58868 0.05893 0.0695 0.0
C85 C 0.67922 0.05887 0.06779 0.0
C86 C 0.51082 0.93508 0.78732 0.0
C87 C 0.55292 0.1021 0.1691 0.0
H88 H 0.27891 0.09372 0.95199 0.0
H89 H 0.25249 0.94717 0.01205 0.0
H90 H 0.50294 0.137 0.00753 0.0
H91 H 0.4884 0.07841 0.87387 0.0
H92 H 0.41299 0.13429 0.92883 0.0
H93 H 0.37171 0.90355 0.02872 0.0
H94 H 0.4562 0.90081 0.94948 0.0
H95 H 0.47142 0.95883 0.08338 0.0
H96 H 0.68649 0.94797 0.8167 0.0
H97 H 0.72186 0.08987 0.13788 0.0
H98 H 0.47324 0.96281 0.76864 0.0
H99 H 0.46274 0.90266 0.79528 0.0
H100 H 0.54889 0.90687 0.72251 0.0
H101 H 0.517 0.13499 0.16194 0.0
H102 H 0.60516 0.12986 0.23367 0.0
H103 H 0.50568 0.07443 0.18767 0.0
C104 C 0.91828 0.59206 0.89639 0.0
C105 C 0.99041 0.63611 0.91287 0.0
C106 C 0.9257 0.5469 0.92032 0.0
C107 C 0.00731 0.54554 0.96164 0.0
C108 C 0.08045 0.58978 0.97835 0.0
C109 C 0.07109 0.63458 0.95396 0.0
C110 C 0.84599 0.50083 0.90192 0.0
C111 C 0.16861 0.58974 0.02194 0.0
C112 C 0.00517 0.46609 0.1099 0.0
C113 C 0.0262 0.40689 0.0371 0.0
C114 C 0.0 0.51185 0.08681 0.0
C115 C 0.0157 0.49815 -0.01175 0.0
C116 C 0.03753 0.43873 0.91457 0.0
C117 C 0.0427 0.39393 0.93991 0.0
C118 C 0.97648 0.57461 0.16753 0.0
C119 C 0.05473 0.42229 0.80863 0.0
H120 H 0.85543 0.59349 0.86606 0.0
H121 H 0.12734 0.668 0.96586 0.0
H122 H 0.85896 0.45215 0.84949 0.0
H123 H 0.83101 0.5057 0.97487 0.0
H124 H 0.78751 0.50777 0.86851 0.0
H125 H 0.21908 0.62704 0.02985 0.0
H126 H 0.16361 0.59667 0.09814 0.0
H127 H 0.19068 0.54366 0.97208 0.0
H128 H 0.9909 0.47633 0.18463 0.0
H129 H 0.06016 0.34872 0.88355 0.0
H130 H 0.91438 0.58189 0.14114 0.0
H131 H 0.02769 0.61293 0.18056 0.0
H132 H 0.96884 0.57859 0.24139 0.0
H133 H -0.00411 0.4252 0.77013 0.0
H134 H 0.07218 0.3744 0.7606 0.0
H135 H 0.10873 0.4565 0.8133 0.0
loop_
_geom_bond_atom_site_label_1
_geom_bond_atom_site_label_2
_geom_bond_distance
_geom_bond_site_symmetry_2
_ccdc_geom_bond_type
Eu0 C9 2.828 . S
Eu0 O11 2.392 . S
Eu0 O13 2.418 . S
Eu0 O18 2.373 1_556 S
Eu0 O21 2.488 . S
Eu0 O22 2.471 1_655 S
Eu0 O23 2.349 1_655 S
Eu1 O10 2.373 1_554 S
Eu1 O14 2.488 . S
Eu1 O15 2.471 1_455 S
Eu1 O16 2.349 1_455 S
Eu1 O19 2.392 . S
Eu1 O20 2.418 . S
Eu1 C30 2.828 . S
C2 O20 1.244 . S
C2 O23 1.265 1_544 S
C3 C4 1.379 1_656 S
C3 C7 1.373 . S
C3 C9 1.505 . S
C4 C3 1.379 1_454 S
C4 C6 1.369 . S
C4 H32 0.930 . S
C5 C7 1.383 . S
C5 C8 1.382 . S
C5 H33 0.930 . S
C6 C4 1.369 . S
C6 C8 1.392 1_454 S
C6 H34 0.930 . S
C7 C3 1.373 . S
C7 C5 1.383 . S
C7 H35 0.931 . S
C8 C5 1.382 . S
C8 C6 1.392 1_656 S
C9 Eu0 2.828 . S
C9 C3 1.505 . S
C9 O21 1.249 . S
C9 O22 1.244 1_655 S
O10 Eu1 2.373 1_556 S
O10 C12 1.258 1_545 S
O11 Eu0 2.392 . S
O11 C12 1.242 1_655 S
C12 O10 1.258 1_565 S
C12 O11 1.242 1_455 S
O13 Eu0 2.418 . S
O13 C17 1.244 . S
O14 Eu1 2.488 . S
O14 C30 1.249 . S
O15 Eu1 2.471 1_655 S
O15 C30 1.244 1_655 S
O16 Eu1 2.349 1_655 S
O16 C17 1.265 1_544 S
C17 O13 1.244 . S
C17 O16 1.265 1_566 S
O18 Eu0 2.373 1_554 S
O18 C31 1.258 1_665 S
O19 Eu1 2.392 . S
O19 C31 1.242 . S
O20 Eu1 2.418 . S
O20 C2 1.244 . S
O21 Eu0 2.488 . S
O21 C9 1.249 . S
O22 Eu0 2.471 1_455 S
O22 C9 1.244 1_455 S
O23 Eu0 2.349 1_455 S
O23 C2 1.265 1_566 S
C24 C25 1.379 1_454 S
C24 C28 1.373 . S
C24 C30 1.505 . S
C25 C24 1.379 1_656 S
C25 C27 1.369 . S
C25 H36 0.930 . S
C26 C28 1.383 . S
C26 C29 1.382 . S
C26 H37 0.930 . S
C27 C25 1.369 . S
C27 C29 1.392 1_656 S
C27 H38 0.930 . S
C28 C24 1.373 . S
C28 C26 1.383 . S
C28 H39 0.931 . S
C29 C26 1.382 . S
C29 C27 1.392 1_454 S
C30 Eu1 2.828 . S
C30 O14 1.249 . S
C30 O15 1.244 1_455 S
C30 C24 1.505 . S
C31 O18 1.258 1_445 S
C31 O19 1.242 . S
H32 C4 0.930 . S
H33 C5 0.930 . S
H34 C6 0.930 . S
H35 C7 0.931 . S
H36 C25 0.930 . S
H37 C26 0.930 . S
H38 C27 0.930 . S
H39 C28 0.931 . S
C40 C41 1.391 1_655 S
C40 C42 1.394 . S
C40 H56 0.931 . S
C41 C40 1.391 1_455 S
C41 C45 1.376 1_565 S
C42 C40 1.394 . S
C42 C43 1.369 1_655 S
C42 C46 1.531 . S
C43 C42 1.369 1_455 S
C43 C44 1.410 1_565 S
C43 C51 1.503 . S
C44 C43 1.410 1_545 S
C44 C45 1.392 . S
C44 C47 1.511 . S
C45 C41 1.376 1_545 S
C45 C44 1.392 . S
C45 H57 0.929 . S
C46 C42 1.531 . S
C46 H58 0.960 . S
C46 H59 0.962 . S
C46 H60 0.960 . S
C47 C44 1.511 . S
C47 H61 0.961 . S
C47 H62 0.961 . S
C47 H63 0.961 . S
C48 C49 1.370 1_645 S
C48 C50 1.363 . S
C48 H64 0.931 . S
C49 C48 1.370 1_465 S
C49 C53 1.408 . S
C50 C48 1.363 . S
C50 C51 1.370 1_645 S
C50 C54 1.524 . S
C51 C43 1.503 . S
C51 C50 1.370 1_465 S
C51 C52 1.403 . S
C52 C51 1.403 . S
C52 C53 1.404 . S
C52 C55 1.539 . S
C53 C49 1.408 . S
C53 C52 1.404 . S
C53 H65 0.930 . S
C54 C50 1.524 . S
C54 H66 0.956 . S
C54 H67 0.961 . S
C54 H68 0.961 . S
C55 C52 1.539 . S
C55 H69 0.958 . S
C55 H70 0.961 . S
C55 H71 0.960 . S
H56 C40 0.931 . S
H57 C45 0.929 . S
H58 C46 0.960 . S
H59 C46 0.962 . S
H60 C46 0.960 . S
H61 C47 0.961 . S
H62 C47 0.961 . S
H63 C47 0.961 . S
H64 C48 0.931 . S
H65 C53 0.930 . S
H66 C54 0.956 . S
H67 C54 0.961 . S
H68 C54 0.961 . S
H69 C55 0.958 . S
H70 C55 0.961 . S
H71 C55 0.960 . S
C72 C73 1.391 1_545 S
C72 C74 1.394 . S
C72 H88 0.931 . S
C73 C72 1.391 1_565 S
C73 C77 1.376 1_554 S
C74 C72 1.394 . S
C74 C75 1.369 1_545 S
C74 C78 1.531 . S
C75 C74 1.369 1_565 S
C75 C76 1.410 1_554 S
C75 C83 1.503 . S
C76 C75 1.410 1_556 S
C76 C77 1.392 . S
C76 C79 1.511 . S
C77 C73 1.376 1_556 S
C77 C76 1.392 . S
C77 H89 0.929 . S
C78 C74 1.531 . S
C78 H90 0.960 . S
C78 H91 0.962 . S
C78 H92 0.960 . S
C79 C76 1.511 . S
C79 H93 0.961 . S
C79 H94 0.961 . S
C79 H95 0.961 . S
C80 C81 1.370 1_546 S
C80 C82 1.363 . S
C80 H96 0.931 . S
C81 C80 1.370 1_564 S
C81 C85 1.408 . S
C82 C80 1.363 . S
C82 C83 1.370 1_546 S
C82 C86 1.524 . S
C83 C75 1.503 . S
C83 C82 1.370 1_564 S
C83 C84 1.403 . S
C84 C83 1.403 . S
C84 C85 1.404 . S
C84 C87 1.539 . S
C85 C81 1.408 . S
C85 C84 1.404 . S
C85 H97 0.930 . S
C86 C82 1.524 . S
C86 H98 0.956 . S
C86 H99 0.961 . S
C86 H100 0.961 . S
C87 C84 1.539 . S
C87 H101 0.958 . S
C87 H102 0.961 . S
C87 H103 0.960 . S
H88 C72 0.931 . S
H89 C77 0.929 . S
H90 C78 0.960 . S
H91 C78 0.962 . S
H92 C78 0.960 . S
H93 C79 0.961 . S
H94 C79 0.961 . S
H95 C79 0.961 . S
H96 C80 0.931 . S
H97 C85 0.930 . S
H98 C86 0.956 . S
H99 C86 0.961 . S
H100 C86 0.961 . S
H101 C87 0.958 . S
H102 C87 0.961 . S
H103 C87 0.960 . S
C104 C105 1.381 1_655 S
C104 C106 1.394 . S
C104 H120 0.931 . S
C105 C104 1.381 1_455 S
C105 C109 1.388 1_556 S
C106 C104 1.394 . S
C106 C107 1.358 1_655 S
C106 C110 1.531 . S
C107 C106 1.358 1_455 S
C107 C108 1.418 . S
C107 C115 1.503 . S
C108 C107 1.418 . S
C108 C109 1.392 1_556 S
C108 C111 1.511 1_556 S
C109 C105 1.388 1_554 S
C109 C108 1.392 1_554 S
C109 H121 0.929 . S
C110 C106 1.531 . S
C110 H122 0.960 . S
C110 H123 0.962 . S
C110 H124 0.960 . S
C111 C108 1.511 1_554 S
C111 H125 0.961 . S
C111 H126 0.961 . S
C111 H127 0.961 1_554 S
C112 C113 1.366 1_654 S
C112 C114 1.363 . S
C112 H128 0.931 . S
C113 C112 1.366 1_456 S
C113 C117 1.410 . S
C114 C112 1.363 . S
C114 C115 1.369 1_654 S
C114 C118 1.524 . S
C115 C107 1.503 . S
C115 C114 1.369 1_456 S
C115 C116 1.406 . S
C116 C115 1.406 . S
C116 C117 1.404 . S
C116 C119 1.539 . S
C117 C113 1.410 . S
C117 C116 1.404 . S
C117 H129 0.930 . S
C118 C114 1.524 . S
C118 H130 0.956 . S
C118 H131 0.961 1_655 S
C118 H132 0.961 . S
C119 C116 1.539 . S
C119 H133 0.958 1_455 S
C119 H134 0.961 . S
C119 H135 0.960 . S
H120 C104 0.931 . S
H121 C109 0.929 . S
H122 C110 0.960 . S
H123 C110 0.962 . S
H124 C110 0.960 . S
H125 C111 0.961 . S
H126 C111 0.961 . S
H127 C111 0.961 1_556 S
H128 C112 0.931 . S
H129 C117 0.930 . S
H130 C118 0.956 . S
H131 C118 0.961 1_455 S
H132 C118 0.961 . S
H133 C119 0.958 1_655 S
H134 C119 0.961 . S
H135 C119 0.960 . S
C41 C31 1.497 1_565 S
C49 C12 1.498 . S
C73 C2 1.473 1_565 S
C81 C17 1.459 1_554 S
C105 C8 1.476 1_455 S
C113 C29 1.498 1_556 S
