# Generated by pormake.
# Topology unh, (4)-cn, num edge types: 1
# Building blocks:
#     Node 0, Type 0, BuildingBlock: QUQFOY_clean_sbu_1, # of connection points: 4
#     Node 1, Type 0, BuildingBlock: QUQFOY_clean_sbu_1, # of connection points: 4
#     Node 2, Type 0, BuildingBlock: QUQFOY_clean_sbu_1, # of connection points: 4
#     Node 3, Type 0, BuildingBlock: QUQFOY_clean_sbu_1, # of connection points: 4
#     Node 4, Type 0, BuildingBlock: QUQFOY_clean_sbu_1, # of connection points: 4
#     Node 5, Type 0, BuildingBlock: QUQFOY_clean_sbu_1, # of connection points: 4
#     Edge 6, Type (0, 0), BuildingBlock: EYOCIG_clean_linker_4, # of connection points: 2
#     Edge 7, Type (0, 0), BuildingBlock: EYOCIG_clean_linker_4, # of connection points: 2
#     Edge 8, Type (0, 0), BuildingBlock: EYOCIG_clean_linker_4, # of connection points: 2
#     Edge 9, Type (0, 0), BuildingBlock: EYOCIG_clean_linker_4, # of connection points: 2
#     Edge 10, Type (0, 0), BuildingBlock: EYOCIG_clean_linker_4, # of connection points: 2
#     Edge 11, Type (0, 0), BuildingBlock: EYOCIG_clean_linker_4, # of connection points: 2
#     Edge 12, Type (0, 0), BuildingBlock: EYOCIG_clean_linker_4, # of connection points: 2
#     Edge 13, Type (0, 0), BuildingBlock: EYOCIG_clean_linker_4, # of connection points: 2
#     Edge 14, Type (0, 0), BuildingBlock: EYOCIG_clean_linker_4, # of connection points: 2
#     Edge 15, Type (0, 0), BuildingBlock: EYOCIG_clean_linker_4, # of connection points: 2
#     Edge 16, Type (0, 0), BuildingBlock: EYOCIG_clean_linker_4, # of connection points: 2
#     Edge 17, Type (0, 0), BuildingBlock: EYOCIG_clean_linker_4, # of connection points: 2
# Relax obj value: 0.055
# Max RMSD: 0.146
# Mean RMSD: 0.146
data_MOF--net-unh--node1-QUQFOY_clean_sbu_1--edge1-EYOCIG_clean_linker_4
_symmetry_space_group_name_H-M    P1
_symmetry_Int_Tables_number       1
_symmetry_cell_setting            triclinic
loop_
_symmetry_equiv_pos_as_xyz
'x, y, z'
_cell_length_a     34.688573
_cell_length_b     34.692048
_cell_length_c     18.070034
_cell_angle_alpha  90.020047
_cell_angle_beta   89.984673
_cell_angle_gamma 119.94842
loop_
_atom_site_label
_atom_site_type_symbol
_atom_site_fract_x
_atom_site_fract_y
_atom_site_fract_z
_atom_type_partial_charge
O0 O 0.08794 0.536 0.01533 0.0
Cd1 Cd 0.12702 0.5711 0.1035 0.0
Cd2 Cd 0.17422 0.53906 0.04471 0.0
O3 O 0.11671 0.49323 0.99079 0.0
O4 O 0.08673 0.58699 0.15729 0.0
O5 O 0.1103 0.54389 0.20589 0.0
C6 C 0.08619 0.56249 0.211 0.0
C7 C 0.21519 0.52943 0.13572 0.0
C8 C 0.0871 0.50403 0.98006 0.0
C9 C 0.20655 0.63496 0.02197 0.0
O10 O 0.20608 0.6008 0.99566 0.0
O11 O 0.18141 0.63162 0.07565 0.0
O12 O 0.21916 0.52082 0.06744 0.0
O13 O 0.18518 0.53955 0.15295 0.0
O14 O 0.55938 0.08423 0.1815 0.0
Cd15 Cd 0.56435 0.12307 0.27061 0.0
Cd16 Cd 0.64335 0.16954 0.21173 0.0
O17 O 0.63075 0.11184 0.15715 0.0
O18 O 0.50841 0.08298 0.32485 0.0
O19 O 0.5752 0.10534 0.3719 0.0
C20 C 0.53252 0.0816 0.37756 0.0
C21 C 0.69439 0.2099 0.30259 0.0
C22 C 0.59019 0.08284 0.14612 0.0
C23 C 0.58061 0.20315 0.19065 0.0
O24 O 0.61388 0.20214 0.16363 0.0
O25 O 0.55891 0.17811 0.24444 0.0
O26 O 0.70673 0.21384 0.23418 0.0
O27 O 0.65421 0.18022 0.31998 0.0
O28 O 0.48414 0.5549 0.34955 0.0
Cd29 Cd 0.44938 0.5595 0.43774 0.0
Cd30 Cd 0.48202 0.63869 0.37914 0.0
O31 O 0.52751 0.62632 0.32534 0.0
O32 O 0.4332 0.50348 0.49214 0.0
O33 O 0.47694 0.57021 0.53987 0.0
C34 C 0.45805 0.52754 0.54546 0.0
C35 C 0.49196 0.68903 0.47088 0.0
C36 C 0.51634 0.58583 0.31447 0.0
C37 C 0.38599 0.57598 0.35626 0.0
O38 O 0.42032 0.60943 0.32993 0.0
O39 O 0.3891 0.55407 0.40995 0.0
O40 O 0.50084 0.7019 0.40277 0.0
O41 O 0.48135 0.64872 0.48751 0.0
O42 O 0.93756 0.48005 0.51516 0.0
Cd43 Cd 0.89858 0.44496 0.60342 0.0
Cd44 Cd 0.85099 0.47654 0.5447 0.0
O45 O 0.90836 0.52241 0.49041 0.0
O46 O 0.93907 0.42939 0.65722 0.0
O47 O 0.91522 0.4723 0.70573 0.0
C48 C 0.93947 0.45386 0.71089 0.0
C49 C 0.81007 0.48636 0.63569 0.0
C50 C 0.93817 0.51186 0.47976 0.0
C51 C 0.81901 0.38063 0.52245 0.0
O52 O 0.8192 0.41463 0.49609 0.0
O53 O 0.84436 0.38423 0.57591 0.0
O54 O 0.80595 0.49468 0.56732 0.0
O55 O 0.84016 0.47638 0.65298 0.0
O56 O 0.46529 0.93195 0.68141 0.0
Cd57 Cd 0.46055 0.89319 0.77055 0.0
Cd58 Cd 0.38184 0.84598 0.7107 0.0
O59 O 0.39396 0.90333 0.65561 0.0
O60 O 0.51629 0.93357 0.82503 0.0
O61 O 0.44935 0.91049 0.87203 0.0
C62 C 0.492 0.93448 0.87787 0.0
C63 C 0.33079 0.80544 0.80135 0.0
C64 C 0.43444 0.93277 0.64524 0.0
C65 C 0.44536 0.81328 0.69081 0.0
O66 O 0.41195 0.81381 0.66339 0.0
O67 O 0.46677 0.83855 0.74455 0.0
O68 O 0.31858 0.80122 0.73285 0.0
O69 O 0.37078 0.83549 0.81891 0.0
O70 O 0.54085 0.46108 0.84931 0.0
Cd71 Cd 0.57568 0.4566 0.93746 0.0
Cd72 Cd 0.54337 0.37749 0.87864 0.0
O73 O 0.49771 0.38964 0.82496 0.0
O74 O 0.59162 0.51251 0.99204 0.0
O75 O 0.54806 0.4457 0.03958 0.0
C76 C 0.56681 0.48835 0.04531 0.0
C77 C 0.53375 0.32709 0.97004 0.0
C78 C 0.50872 0.43009 0.81419 0.0
C79 C 0.63934 0.44048 0.85595 0.0
O80 O 0.60509 0.40701 0.82948 0.0
O81 O 0.63609 0.46229 0.90971 0.0
O82 O 0.52489 0.31431 0.90188 0.0
O83 O 0.54409 0.36731 0.98693 0.0
C84 C 0.02588 0.4733 0.87643 0.0
C85 C 0.05495 0.48428 0.92188 0.0
C86 C 0.99369 0.46623 0.82215 0.0
C87 C 0.9683 0.4618 0.77297 0.0
C88 C 0.53358 0.98919 0.98868 0.0
C89 C 0.51265 0.96357 0.93975 0.0
C90 C 0.5589 0.02151 0.04263 0.0
C91 C 0.57733 0.05058 0.088 0.0
C92 C 0.54703 0.55502 0.21112 0.0
C93 C 0.53605 0.57319 0.25649 0.0
C94 C 0.55422 0.52997 0.1568 0.0
C95 C 0.55874 0.50913 0.10747 0.0
C96 C 0.99952 0.5429 0.37628 0.0
C97 C 0.97035 0.53176 0.42165 0.0
C98 C 0.03182 0.55013 0.3221 0.0
C99 C 0.05726 0.55458 0.27295 0.0
C100 C 0.49069 0.02639 0.48766 0.0
C101 C 0.51165 0.05219 0.43897 0.0
C102 C 0.46549 0.99395 0.54151 0.0
C103 C 0.44722 0.9649 0.58694 0.0
C104 C 0.47782 0.46075 0.71097 0.0
C105 C 0.4889 0.44264 0.75627 0.0
C106 C 0.47057 0.48578 0.65674 0.0
C107 C 0.46607 0.50665 0.60748 0.0
C108 C 0.27506 0.53846 0.23502 0.0
C109 C 0.24779 0.53431 0.18955 0.0
C110 C 0.31089 0.5489 0.28352 0.0
C111 C 0.34425 0.5598 0.31885 0.0
C112 C 0.74578 0.26942 0.40187 0.0
C113 C 0.72243 0.24232 0.35639 0.0
C114 C 0.77131 0.30524 0.45032 0.0
C115 C 0.79368 0.3387 0.48548 0.0
C116 C 0.47307 0.76528 0.61956 0.0
C117 C 0.46205 0.7878 0.65451 0.0
C118 C 0.48341 0.73983 0.57096 0.0
C119 C 0.48735 0.71673 0.52514 0.0
C120 C 0.71455 0.4675 0.78353 0.0
C121 C 0.68116 0.45668 0.81879 0.0
C122 C 0.75035 0.47774 0.73506 0.0
C123 C 0.77757 0.4817 0.6896 0.0
C124 C 0.27962 0.74586 0.90068 0.0
C125 C 0.30286 0.77298 0.85517 0.0
C126 C 0.25421 0.71011 0.94929 0.0
C127 C 0.23188 0.67676 0.98468 0.0
C128 C 0.54284 0.2765 0.06978 0.0
C129 C 0.53864 0.29947 0.02406 0.0
C130 C 0.55332 0.2512 0.11846 0.0
C131 C 0.56425 0.2287 0.15367 0.0
loop_
_geom_bond_atom_site_label_1
_geom_bond_atom_site_label_2
_geom_bond_distance
_geom_bond_site_symmetry_2
_ccdc_geom_bond_type
O0 Cd1 2.223 1_556 S
O0 C8 1.315 . S
Cd1 O0 2.223 1_554 S
Cd1 O4 2.297 . S
Cd1 O5 2.439 . S
Cd1 O11 2.240 . S
Cd2 O3 2.240 . S
Cd2 O10 2.223 1_554 S
Cd2 O12 2.297 . S
Cd2 O13 2.439 . S
O3 Cd2 2.240 . S
O3 C8 1.279 1_554 S
O4 Cd1 2.297 . S
O4 C6 1.247 . S
O5 Cd1 2.439 . S
O5 C6 1.208 . S
C6 O4 1.247 . S
C6 O5 1.208 . S
C7 O12 1.247 . S
C7 O13 1.208 . S
C8 O0 1.315 . S
C8 O3 1.279 1_556 S
C9 O10 1.315 . S
C9 O11 1.279 1_556 S
O10 Cd2 2.223 1_556 S
O10 C9 1.315 . S
O11 Cd1 2.240 . S
O11 C9 1.279 1_554 S
O12 Cd2 2.297 . S
O12 C7 1.247 . S
O13 Cd2 2.439 . S
O13 C7 1.208 . S
O14 Cd15 2.223 . S
O14 C22 1.315 . S
Cd15 O14 2.223 . S
Cd15 O18 2.297 . S
Cd15 O19 2.439 . S
Cd15 O25 2.240 . S
Cd16 O17 2.240 . S
Cd16 O24 2.223 . S
Cd16 O26 2.297 . S
Cd16 O27 2.439 . S
O17 Cd16 2.240 . S
O17 C22 1.279 . S
O18 Cd15 2.297 . S
O18 C20 1.247 . S
O19 Cd15 2.439 . S
O19 C20 1.208 . S
C20 O18 1.247 . S
C20 O19 1.208 . S
C21 O26 1.247 . S
C21 O27 1.208 . S
C22 O14 1.315 . S
C22 O17 1.279 . S
C23 O24 1.315 . S
C23 O25 1.279 . S
O24 Cd16 2.223 . S
O24 C23 1.315 . S
O25 Cd15 2.240 . S
O25 C23 1.279 . S
O26 Cd16 2.297 . S
O26 C21 1.247 . S
O27 Cd16 2.439 . S
O27 C21 1.208 . S
O28 Cd29 2.223 . S
O28 C36 1.315 . S
Cd29 O28 2.223 . S
Cd29 O32 2.297 . S
Cd29 O33 2.439 . S
Cd29 O39 2.240 . S
Cd30 O31 2.240 . S
Cd30 O38 2.223 . S
Cd30 O40 2.297 . S
Cd30 O41 2.439 . S
O31 Cd30 2.240 . S
O31 C36 1.279 . S
O32 Cd29 2.297 . S
O32 C34 1.247 . S
O33 Cd29 2.439 . S
O33 C34 1.208 . S
C34 O32 1.247 . S
C34 O33 1.208 . S
C35 O40 1.247 . S
C35 O41 1.208 . S
C36 O28 1.315 . S
C36 O31 1.279 . S
C37 O38 1.315 . S
C37 O39 1.279 . S
O38 Cd30 2.223 . S
O38 C37 1.315 . S
O39 Cd29 2.240 . S
O39 C37 1.279 . S
O40 Cd30 2.297 . S
O40 C35 1.247 . S
O41 Cd30 2.439 . S
O41 C35 1.208 . S
O42 Cd43 2.223 . S
O42 C50 1.315 . S
Cd43 O42 2.223 . S
Cd43 O46 2.297 . S
Cd43 O47 2.439 . S
Cd43 O53 2.240 . S
Cd44 O45 2.240 . S
Cd44 O52 2.223 . S
Cd44 O54 2.297 . S
Cd44 O55 2.439 . S
O45 Cd44 2.240 . S
O45 C50 1.279 . S
O46 Cd43 2.297 . S
O46 C48 1.247 . S
O47 Cd43 2.439 . S
O47 C48 1.208 . S
C48 O46 1.247 . S
C48 O47 1.208 . S
C49 O54 1.247 . S
C49 O55 1.208 . S
C50 O42 1.315 . S
C50 O45 1.279 . S
C51 O52 1.315 . S
C51 O53 1.279 . S
O52 Cd44 2.223 . S
O52 C51 1.315 . S
O53 Cd43 2.240 . S
O53 C51 1.279 . S
O54 Cd44 2.297 . S
O54 C49 1.247 . S
O55 Cd44 2.439 . S
O55 C49 1.208 . S
O56 Cd57 2.223 . S
O56 C64 1.315 . S
Cd57 O56 2.223 . S
Cd57 O60 2.297 . S
Cd57 O61 2.439 . S
Cd57 O67 2.240 . S
Cd58 O59 2.240 . S
Cd58 O66 2.223 . S
Cd58 O68 2.297 . S
Cd58 O69 2.439 . S
O59 Cd58 2.240 . S
O59 C64 1.279 . S
O60 Cd57 2.297 . S
O60 C62 1.247 . S
O61 Cd57 2.439 . S
O61 C62 1.208 . S
C62 O60 1.247 . S
C62 O61 1.208 . S
C63 O68 1.247 . S
C63 O69 1.208 . S
C64 O56 1.315 . S
C64 O59 1.279 . S
C65 O66 1.315 . S
C65 O67 1.279 . S
O66 Cd58 2.223 . S
O66 C65 1.315 . S
O67 Cd57 2.240 . S
O67 C65 1.279 . S
O68 Cd58 2.297 . S
O68 C63 1.247 . S
O69 Cd58 2.439 . S
O69 C63 1.208 . S
O70 Cd71 2.223 . S
O70 C78 1.315 . S
Cd71 O70 2.223 . S
Cd71 O74 2.297 . S
Cd71 O75 2.439 1_556 S
Cd71 O81 2.240 . S
Cd72 O73 2.240 . S
Cd72 O80 2.223 . S
Cd72 O82 2.297 . S
Cd72 O83 2.439 . S
O73 Cd72 2.240 . S
O73 C78 1.279 . S
O74 Cd71 2.297 . S
O74 C76 1.247 1_556 S
O75 Cd71 2.439 1_554 S
O75 C76 1.208 . S
C76 O74 1.247 1_554 S
C76 O75 1.208 . S
C77 O82 1.247 . S
C77 O83 1.208 . S
C78 O70 1.315 . S
C78 O73 1.279 . S
C79 O80 1.315 . S
C79 O81 1.279 . S
O80 Cd72 2.223 . S
O80 C79 1.315 . S
O81 Cd71 2.240 . S
O81 C79 1.279 . S
O82 Cd72 2.297 . S
O82 C77 1.247 . S
O83 Cd72 2.439 . S
O83 C77 1.208 . S
C84 C85 1.170 . S
C84 C86 1.380 . S
C85 C84 1.170 . S
C86 C84 1.380 . S
C86 C87 1.170 1_455 S
C87 C86 1.170 1_655 S
C88 C89 1.170 1_545 S
C88 C90 1.380 1_556 S
C89 C88 1.170 1_565 S
C90 C88 1.380 1_554 S
C90 C91 1.170 . S
C91 C90 1.170 . S
C92 C93 1.170 . S
C92 C94 1.380 . S
C93 C92 1.170 . S
C94 C92 1.380 . S
C94 C95 1.170 . S
C95 C94 1.170 . S
C96 C97 1.170 . S
C96 C98 1.380 . S
C97 C96 1.170 . S
C98 C96 1.380 . S
C98 C99 1.170 1_655 S
C99 C98 1.170 1_455 S
C100 C101 1.170 1_565 S
C100 C102 1.380 . S
C101 C100 1.170 1_545 S
C102 C100 1.380 . S
C102 C103 1.170 . S
C103 C102 1.170 . S
C104 C105 1.170 . S
C104 C106 1.380 . S
C105 C104 1.170 . S
C106 C104 1.380 . S
C106 C107 1.170 . S
C107 C106 1.170 . S
C108 C109 1.170 . S
C108 C110 1.380 . S
C109 C108 1.170 . S
C110 C108 1.380 . S
C110 C111 1.170 . S
C111 C110 1.170 . S
C112 C113 1.170 . S
C112 C114 1.380 . S
C113 C112 1.170 . S
C114 C112 1.380 . S
C114 C115 1.170 . S
C115 C114 1.170 . S
C116 C117 1.170 . S
C116 C118 1.380 . S
C117 C116 1.170 . S
C118 C116 1.380 . S
C118 C119 1.170 . S
C119 C118 1.170 . S
C120 C121 1.170 . S
C120 C122 1.380 . S
C121 C120 1.170 . S
C122 C120 1.380 . S
C122 C123 1.170 . S
C123 C122 1.170 . S
C124 C125 1.170 . S
C124 C126 1.380 . S
C125 C124 1.170 . S
C126 C124 1.380 . S
C126 C127 1.170 . S
C127 C126 1.170 . S
C128 C129 1.170 . S
C128 C130 1.380 . S
C129 C128 1.170 . S
C130 C128 1.380 . S
C130 C131 1.170 . S
C131 C130 1.170 . S
C85 C8 1.460 . S
C87 C48 1.465 . S
C89 C62 1.495 . S
C91 C22 1.416 . S
C93 C36 1.427 . S
C95 C76 1.477 . S
C97 C50 1.447 . S
C99 C6 1.466 . S
C101 C20 1.492 . S
C103 C64 1.453 . S
C105 C78 1.442 . S
C107 C34 1.467 . S
C109 C7 1.424 . S
C111 C37 1.437 . S
C113 C21 1.445 . S
C115 C51 1.454 . S
C117 C65 1.439 . S
C119 C35 1.440 . S
C121 C79 1.435 . S
C123 C49 1.428 . S
C125 C63 1.424 . S
C127 C9 1.440 . S
C129 C77 1.428 1_554 S
C131 C23 1.436 . S
