# Generated by pormake.
# Topology afw, (4)-cn, num edge types: 1
# Building blocks:
#     Node 0, Type 0, BuildingBlock: QUQFOY_clean_sbu_1, # of connection points: 4
#     Node 1, Type 0, BuildingBlock: QUQFOY_clean_sbu_1, # of connection points: 4
#     Node 2, Type 0, BuildingBlock: QUQFOY_clean_sbu_1, # of connection points: 4
#     Node 3, Type 0, BuildingBlock: QUQFOY_clean_sbu_1, # of connection points: 4
#     Node 4, Type 0, BuildingBlock: QUQFOY_clean_sbu_1, # of connection points: 4
#     Node 5, Type 0, BuildingBlock: QUQFOY_clean_sbu_1, # of connection points: 4
#     Node 6, Type 0, BuildingBlock: QUQFOY_clean_sbu_1, # of connection points: 4
#     Node 7, Type 0, BuildingBlock: QUQFOY_clean_sbu_1, # of connection points: 4
#     Node 8, Type 0, BuildingBlock: QUQFOY_clean_sbu_1, # of connection points: 4
#     Edge 9, Type (0, 0), None
#     Edge 10, Type (0, 0), None
#     Edge 11, Type (0, 0), None
#     Edge 12, Type (0, 0), None
#     Edge 13, Type (0, 0), None
#     Edge 14, Type (0, 0), None
#     Edge 15, Type (0, 0), None
#     Edge 16, Type (0, 0), None
#     Edge 17, Type (0, 0), None
#     Edge 18, Type (0, 0), None
#     Edge 19, Type (0, 0), None
#     Edge 20, Type (0, 0), None
#     Edge 21, Type (0, 0), None
#     Edge 22, Type (0, 0), None
#     Edge 23, Type (0, 0), None
#     Edge 24, Type (0, 0), None
#     Edge 25, Type (0, 0), None
#     Edge 26, Type (0, 0), None
# Relax obj value: 0.103
# Max RMSD: 0.164
# Mean RMSD: 0.164
data_MOF--net-afw--node1-QUQFOY_clean_sbu_1--edge1-none
_symmetry_space_group_name_H-M    P1
_symmetry_Int_Tables_number       1
_symmetry_cell_setting            triclinic
loop_
_symmetry_equiv_pos_as_xyz
'x, y, z'
_cell_length_a     19.442885
_cell_length_b     19.442297
_cell_length_c     17.912122
_cell_angle_alpha  90.000886
_cell_angle_beta   89.998992
_cell_angle_gamma 120.0016
loop_
_atom_site_label
_atom_site_type_symbol
_atom_site_fract_x
_atom_site_fract_y
_atom_site_fract_z
_atom_type_partial_charge
O0 O 0.12851 0.1998 0.98826 0.0
Cd1 Cd 0.03477 0.21971 0.97693 0.0
Cd2 Cd 0.03901 0.22183 0.12203 0.0
O3 O 0.14723 0.2263 0.10862 0.0
O4 O 0.04232 0.26268 0.87407 0.0
O5 O 0.06075 0.33319 0.97704 0.0
C6 C 0.06209 0.32995 0.90513 0.0
C7 C 1.0117 0.30476 0.19383 0.0
C8 C 0.16686 0.20661 0.04781 0.0
C9 C 0.90691 0.07664 0.05115 0.0
O10 O 0.94526 0.10818 0.1107 0.0
O11 O 0.92654 0.11596 0.99034 0.0
O12 O 0.03146 0.25726 0.22489 0.0
O13 O 1.01304 0.30933 0.12192 0.0
O14 O 0.96177 0.86633 0.11069 0.0
Cd15 Cd 0.84812 0.84643 0.12204 0.0
Cd16 Cd 0.85022 0.84429 0.97692 0.0
O17 O 0.95399 0.83984 0.99034 0.0
O18 O 0.81271 0.80345 0.22491 0.0
O19 O 0.76062 0.73295 0.12193 0.0
C20 C 0.76521 0.73619 0.19385 0.0
C21 C 0.73999 0.76136 0.90512 0.0
C22 C 0.9933 0.85953 0.05114 0.0
C23 C 0.86329 0.98946 0.0478 0.0
O24 O 0.8701 0.95794 0.98825 0.0
O25 O 0.84364 0.95018 0.10863 0.0
O26 O 0.80725 0.80886 0.87406 0.0
O27 O 0.73676 0.75678 0.97704 0.0
O28 O 0.112 0.94142 0.98824 0.0
Cd29 Cd 0.22565 0.03518 0.9769 0.0
Cd30 Cd 0.22352 0.03094 0.12204 0.0
O31 O 0.11976 0.92272 0.10862 0.0
O32 O 0.26107 0.02763 0.87404 0.0
O33 O 0.31315 1.00922 0.97702 0.0
C34 C 0.30857 1.00788 0.9051 0.0
C35 C 0.33375 0.05823 0.19384 0.0
C36 C 0.08048 0.90308 0.04779 0.0
C37 C 0.21047 0.16305 0.05115 0.0
O38 O 0.20366 0.12471 0.11071 0.0
O39 O 0.23011 0.1434 0.99033 0.0
O40 O 0.26649 0.03848 0.22491 0.0
O41 O 0.33699 0.05689 0.12193 0.0
O42 O 0.61192 0.44151 0.44402 0.0
Cd43 Cd 0.70567 0.55516 0.45536 0.0
Cd44 Cd 0.70143 0.55304 0.31026 0.0
O45 O 0.59321 0.44929 0.32367 0.0
O46 O 0.69812 0.59059 0.55822 0.0
O47 O 0.6797 0.64266 0.45525 0.0
C48 C 0.67836 0.63809 0.52716 0.0
C49 C 0.72876 0.66327 0.23846 0.0
C50 C 0.57357 0.40997 0.38448 0.0
C51 C 0.83352 0.53994 0.38114 0.0
O52 O 0.79518 0.53313 0.32159 0.0
O53 O 0.81389 0.55963 0.44195 0.0
O54 O 0.70899 0.59601 0.20739 0.0
O55 O 0.72741 0.66652 0.31038 0.0
O56 O 0.62844 0.19966 0.44402 0.0
Cd57 Cd 0.51478 0.17976 0.45537 0.0
Cd58 Cd 0.51689 0.17762 0.31025 0.0
O59 O 0.62065 0.17317 0.32367 0.0
O60 O 0.47937 0.13678 0.55824 0.0
O61 O 0.42729 0.06628 0.45526 0.0
C62 C 0.43187 0.06952 0.52718 0.0
C63 C 0.40667 0.0947 0.23845 0.0
C64 C 0.65997 0.19286 0.38447 0.0
C65 C 0.52995 0.32279 0.38113 0.0
O66 O 0.53677 0.29127 0.32158 0.0
O67 O 0.51031 0.28351 0.44196 0.0
O68 O 0.47392 0.14219 0.20739 0.0
O69 O 0.40342 0.09011 0.31037 0.0
O70 O 0.87032 0.45805 0.44404 0.0
Cd71 Cd 0.89019 0.36427 0.45538 0.0
Cd72 Cd 0.89231 0.36852 0.31023 0.0
O73 O 0.89677 0.47674 0.32366 0.0
O74 O 0.93316 0.37182 0.55824 0.0
O75 O 1.00365 0.39023 0.45526 0.0
C76 C 1.00042 0.39157 0.52718 0.0
C77 C 0.97523 0.34121 0.23844 0.0
C78 C 0.87714 0.49638 0.38449 0.0
C79 C 0.74715 0.23642 0.38113 0.0
O80 O 0.77867 0.27475 0.32157 0.0
O81 O 0.78643 0.25606 0.44195 0.0
O82 O 0.92774 0.36097 0.20737 0.0
O83 O 0.97982 0.34255 0.31036 0.0
O84 O 0.46184 0.86646 0.65493 0.0
Cd85 Cd 0.3681 0.88637 0.64359 0.0
Cd86 Cd 0.37234 0.8885 0.78869 0.0
O87 O 0.48056 0.89296 0.77528 0.0
O88 O 0.37566 0.92935 0.54073 0.0
O89 O 0.39408 0.99985 0.64371 0.0
C90 C 0.39543 0.99661 0.57179 0.0
C91 C 0.34502 0.97141 0.86049 0.0
C92 C 0.50019 0.87327 0.71447 0.0
C93 C 0.24024 0.74331 0.71781 0.0
O94 O 0.27859 0.77484 0.77736 0.0
O95 O 0.25987 0.78262 0.65701 0.0
O96 O 0.36479 0.92392 0.89156 0.0
O97 O 0.34637 0.976 0.78858 0.0
O98 O 0.2951 0.533 0.77736 0.0
Cd99 Cd 0.18145 0.51309 0.78871 0.0
Cd100 Cd 0.18356 0.51096 0.64359 0.0
O101 O 0.28732 0.50651 0.65701 0.0
O102 O 0.14604 0.47012 0.89158 0.0
O103 O 0.09396 0.39962 0.7886 0.0
C104 C 0.09855 0.40286 0.86051 0.0
C105 C 0.07333 0.42803 0.57179 0.0
C106 C 0.32663 0.5262 0.71781 0.0
C107 C 0.19662 0.65612 0.71447 0.0
O108 O 0.20344 0.62461 0.65492 0.0
O109 O 0.17697 0.61684 0.7753 0.0
O110 O 0.14059 0.47553 0.54073 0.0
O111 O 0.07009 0.42345 0.64371 0.0
O112 O 0.44533 0.60808 0.65491 0.0
Cd113 Cd 0.55898 0.70185 0.64357 0.0
Cd114 Cd 0.55686 0.69761 0.78871 0.0
O115 O 0.45309 0.58939 0.77529 0.0
O116 O 0.5944 0.6943 0.5407 0.0
O117 O 0.64648 0.67588 0.64369 0.0
C118 C 0.64189 0.67454 0.57177 0.0
C119 C 0.66708 0.72491 0.86051 0.0
C120 C 0.41381 0.56975 0.71446 0.0
C121 C 0.5438 0.82971 0.71782 0.0
O122 O 0.53699 0.79138 0.77737 0.0
O123 O 0.56344 0.81007 0.65699 0.0
O124 O 0.59982 0.70515 0.89158 0.0
O125 O 0.67032 0.72356 0.78859 0.0
loop_
_geom_bond_atom_site_label_1
_geom_bond_atom_site_label_2
_geom_bond_distance
_geom_bond_site_symmetry_2
_ccdc_geom_bond_type
O0 Cd1 2.223 . S
O0 C8 1.315 . S
Cd1 O0 2.223 . S
Cd1 O4 2.297 . S
Cd1 O5 2.439 . S
Cd1 O11 2.240 1_456 S
Cd2 O3 2.240 . S
Cd2 O10 2.223 1_455 S
Cd2 O12 2.297 1_455 S
Cd2 O13 2.439 1_455 S
O3 Cd2 2.240 . S
O3 C8 1.279 1_554 S
O4 Cd1 2.297 . S
O4 C6 1.247 . S
O5 Cd1 2.439 . S
O5 C6 1.208 . S
C6 O4 1.247 . S
C6 O5 1.208 . S
C7 O12 1.247 . S
C7 O13 1.208 . S
C8 O0 1.315 . S
C8 O3 1.279 1_556 S
C9 O10 1.315 . S
C9 O11 1.279 . S
O10 Cd2 2.223 1_655 S
O10 C9 1.315 . S
O11 Cd1 2.240 1_654 S
O11 C9 1.279 . S
O12 Cd2 2.297 1_655 S
O12 C7 1.247 . S
O13 Cd2 2.439 1_655 S
O13 C7 1.208 . S
O14 Cd15 2.223 . S
O14 C22 1.315 . S
Cd15 O14 2.223 . S
Cd15 O18 2.297 . S
Cd15 O19 2.439 . S
Cd15 O25 2.240 . S
Cd16 O17 2.240 1_556 S
Cd16 O24 2.223 . S
Cd16 O26 2.297 . S
Cd16 O27 2.439 . S
O17 Cd16 2.240 1_554 S
O17 C22 1.279 . S
O18 Cd15 2.297 . S
O18 C20 1.247 . S
O19 Cd15 2.439 . S
O19 C20 1.208 . S
C20 O18 1.247 . S
C20 O19 1.208 . S
C21 O26 1.247 . S
C21 O27 1.208 . S
C22 O14 1.315 . S
C22 O17 1.279 . S
C23 O24 1.315 . S
C23 O25 1.279 1_556 S
O24 Cd16 2.223 . S
O24 C23 1.315 . S
O25 Cd15 2.240 . S
O25 C23 1.279 1_554 S
O26 Cd16 2.297 . S
O26 C21 1.247 . S
O27 Cd16 2.439 . S
O27 C21 1.208 . S
O28 Cd29 2.223 1_565 S
O28 C36 1.315 . S
Cd29 O28 2.223 1_545 S
Cd29 O32 2.297 1_545 S
Cd29 O33 2.439 1_545 S
Cd29 O39 2.240 1_556 S
Cd30 O31 2.240 1_545 S
Cd30 O38 2.223 . S
Cd30 O40 2.297 . S
Cd30 O41 2.439 . S
O31 Cd30 2.240 1_565 S
O31 C36 1.279 1_554 S
O32 Cd29 2.297 1_565 S
O32 C34 1.247 . S
O33 Cd29 2.439 1_565 S
O33 C34 1.208 . S
C34 O32 1.247 . S
C34 O33 1.208 . S
C35 O40 1.247 . S
C35 O41 1.208 . S
C36 O28 1.315 . S
C36 O31 1.279 1_556 S
C37 O38 1.315 . S
C37 O39 1.279 . S
O38 Cd30 2.223 . S
O38 C37 1.315 . S
O39 Cd29 2.240 1_554 S
O39 C37 1.279 . S
O40 Cd30 2.297 . S
O40 C35 1.247 . S
O41 Cd30 2.439 . S
O41 C35 1.208 . S
O42 Cd43 2.223 . S
O42 C50 1.315 . S
Cd43 O42 2.223 . S
Cd43 O46 2.297 . S
Cd43 O47 2.439 . S
Cd43 O53 2.240 . S
Cd44 O45 2.240 . S
Cd44 O52 2.223 . S
Cd44 O54 2.297 . S
Cd44 O55 2.439 . S
O45 Cd44 2.240 . S
O45 C50 1.279 . S
O46 Cd43 2.297 . S
O46 C48 1.247 . S
O47 Cd43 2.439 . S
O47 C48 1.208 . S
C48 O46 1.247 . S
C48 O47 1.208 . S
C49 O54 1.247 . S
C49 O55 1.208 . S
C50 O42 1.315 . S
C50 O45 1.279 . S
C51 O52 1.315 . S
C51 O53 1.279 . S
O52 Cd44 2.223 . S
O52 C51 1.315 . S
O53 Cd43 2.240 . S
O53 C51 1.279 . S
O54 Cd44 2.297 . S
O54 C49 1.247 . S
O55 Cd44 2.439 . S
O55 C49 1.208 . S
O56 Cd57 2.223 . S
O56 C64 1.315 . S
Cd57 O56 2.223 . S
Cd57 O60 2.297 . S
Cd57 O61 2.439 . S
Cd57 O67 2.240 . S
Cd58 O59 2.240 . S
Cd58 O66 2.223 . S
Cd58 O68 2.297 . S
Cd58 O69 2.439 . S
O59 Cd58 2.240 . S
O59 C64 1.279 . S
O60 Cd57 2.297 . S
O60 C62 1.247 . S
O61 Cd57 2.439 . S
O61 C62 1.208 . S
C62 O60 1.247 . S
C62 O61 1.208 . S
C63 O68 1.247 . S
C63 O69 1.208 . S
C64 O56 1.315 . S
C64 O59 1.279 . S
C65 O66 1.315 . S
C65 O67 1.279 . S
O66 Cd58 2.223 . S
O66 C65 1.315 . S
O67 Cd57 2.240 . S
O67 C65 1.279 . S
O68 Cd58 2.297 . S
O68 C63 1.247 . S
O69 Cd58 2.439 . S
O69 C63 1.208 . S
O70 Cd71 2.223 . S
O70 C78 1.315 . S
Cd71 O70 2.223 . S
Cd71 O74 2.297 . S
Cd71 O75 2.439 . S
Cd71 O81 2.240 . S
Cd72 O73 2.240 . S
Cd72 O80 2.223 . S
Cd72 O82 2.297 . S
Cd72 O83 2.439 . S
O73 Cd72 2.240 . S
O73 C78 1.279 . S
O74 Cd71 2.297 . S
O74 C76 1.247 . S
O75 Cd71 2.439 . S
O75 C76 1.208 . S
C76 O74 1.247 . S
C76 O75 1.208 . S
C77 O82 1.247 . S
C77 O83 1.208 . S
C78 O70 1.315 . S
C78 O73 1.279 . S
C79 O80 1.315 . S
C79 O81 1.279 . S
O80 Cd72 2.223 . S
O80 C79 1.315 . S
O81 Cd71 2.240 . S
O81 C79 1.279 . S
O82 Cd72 2.297 . S
O82 C77 1.247 . S
O83 Cd72 2.439 . S
O83 C77 1.208 . S
O84 Cd85 2.223 . S
O84 C92 1.315 . S
Cd85 O84 2.223 . S
Cd85 O88 2.297 . S
Cd85 O89 2.439 . S
Cd85 O95 2.240 . S
Cd86 O87 2.240 . S
Cd86 O94 2.223 . S
Cd86 O96 2.297 . S
Cd86 O97 2.439 . S
O87 Cd86 2.240 . S
O87 C92 1.279 . S
O88 Cd85 2.297 . S
O88 C90 1.247 . S
O89 Cd85 2.439 . S
O89 C90 1.208 . S
C90 O88 1.247 . S
C90 O89 1.208 . S
C91 O96 1.247 . S
C91 O97 1.208 . S
C92 O84 1.315 . S
C92 O87 1.279 . S
C93 O94 1.315 . S
C93 O95 1.279 . S
O94 Cd86 2.223 . S
O94 C93 1.315 . S
O95 Cd85 2.240 . S
O95 C93 1.279 . S
O96 Cd86 2.297 . S
O96 C91 1.247 . S
O97 Cd86 2.439 . S
O97 C91 1.208 . S
O98 Cd99 2.223 . S
O98 C106 1.315 . S
Cd99 O98 2.223 . S
Cd99 O102 2.297 . S
Cd99 O103 2.439 . S
Cd99 O109 2.240 . S
Cd100 O101 2.240 . S
Cd100 O108 2.223 . S
Cd100 O110 2.297 . S
Cd100 O111 2.439 . S
O101 Cd100 2.240 . S
O101 C106 1.279 . S
O102 Cd99 2.297 . S
O102 C104 1.247 . S
O103 Cd99 2.439 . S
O103 C104 1.208 . S
C104 O102 1.247 . S
C104 O103 1.208 . S
C105 O110 1.247 . S
C105 O111 1.208 . S
C106 O98 1.315 . S
C106 O101 1.279 . S
C107 O108 1.315 . S
C107 O109 1.279 . S
O108 Cd100 2.223 . S
O108 C107 1.315 . S
O109 Cd99 2.240 . S
O109 C107 1.279 . S
O110 Cd100 2.297 . S
O110 C105 1.247 . S
O111 Cd100 2.439 . S
O111 C105 1.208 . S
O112 Cd113 2.223 . S
O112 C120 1.315 . S
Cd113 O112 2.223 . S
Cd113 O116 2.297 . S
Cd113 O117 2.439 . S
Cd113 O123 2.240 . S
Cd114 O115 2.240 . S
Cd114 O122 2.223 . S
Cd114 O124 2.297 . S
Cd114 O125 2.439 . S
O115 Cd114 2.240 . S
O115 C120 1.279 . S
O116 Cd113 2.297 . S
O116 C118 1.247 . S
O117 Cd113 2.439 . S
O117 C118 1.208 . S
C118 O116 1.247 . S
C118 O117 1.208 . S
C119 O124 1.247 . S
C119 O125 1.208 . S
C120 O112 1.315 . S
C120 O115 1.279 . S
C121 O122 1.315 . S
C121 O123 1.279 . S
O122 Cd114 2.223 . S
O122 C121 1.315 . S
O123 Cd113 2.240 . S
O123 C121 1.279 . S
O124 Cd114 2.297 . S
O124 C119 1.247 . S
O125 Cd114 2.439 . S
O125 C119 1.208 . S
C37 C8 1.628 1_554 S
C23 C9 1.628 1_566 S
C22 C36 1.628 1_654 S
C78 C51 1.628 . S
C65 C50 1.628 . S
C64 C79 1.628 . S
C92 C121 1.628 . S
C93 C107 1.628 . S
C106 C120 1.628 . S
C6 C104 1.424 . S
C21 C119 1.424 . S
C91 C34 1.424 . S
C63 C35 1.424 . S
C7 C77 1.424 . S
C49 C20 1.424 . S
C105 C76 1.424 1_455 S
C48 C118 1.424 . S
C90 C62 1.424 1_565 S
