# Generated by pormake.
# Topology dia, (4)-cn, num edge types: 1
# Building blocks:
#     Node 0, Type 0, BuildingBlock: QUQFOY_clean_sbu_3, # of connection points: 4
#     Node 1, Type 0, BuildingBlock: QUQFOY_clean_sbu_3, # of connection points: 4
#     Node 2, Type 0, BuildingBlock: QUQFOY_clean_sbu_3, # of connection points: 4
#     Node 3, Type 0, BuildingBlock: QUQFOY_clean_sbu_3, # of connection points: 4
#     Node 4, Type 0, BuildingBlock: QUQFOY_clean_sbu_3, # of connection points: 4
#     Node 5, Type 0, BuildingBlock: QUQFOY_clean_sbu_3, # of connection points: 4
#     Node 6, Type 0, BuildingBlock: QUQFOY_clean_sbu_3, # of connection points: 4
#     Node 7, Type 0, BuildingBlock: QUQFOY_clean_sbu_3, # of connection points: 4
#     Edge 8, Type (0, 0), BuildingBlock: EYOCIG_clean_linker_4, # of connection points: 2
#     Edge 9, Type (0, 0), BuildingBlock: EYOCIG_clean_linker_4, # of connection points: 2
#     Edge 10, Type (0, 0), BuildingBlock: EYOCIG_clean_linker_4, # of connection points: 2
#     Edge 11, Type (0, 0), BuildingBlock: EYOCIG_clean_linker_4, # of connection points: 2
#     Edge 12, Type (0, 0), BuildingBlock: EYOCIG_clean_linker_4, # of connection points: 2
#     Edge 13, Type (0, 0), BuildingBlock: EYOCIG_clean_linker_4, # of connection points: 2
#     Edge 14, Type (0, 0), BuildingBlock: EYOCIG_clean_linker_4, # of connection points: 2
#     Edge 15, Type (0, 0), BuildingBlock: EYOCIG_clean_linker_4, # of connection points: 2
#     Edge 16, Type (0, 0), BuildingBlock: EYOCIG_clean_linker_4, # of connection points: 2
#     Edge 17, Type (0, 0), BuildingBlock: EYOCIG_clean_linker_4, # of connection points: 2
#     Edge 18, Type (0, 0), BuildingBlock: EYOCIG_clean_linker_4, # of connection points: 2
#     Edge 19, Type (0, 0), BuildingBlock: EYOCIG_clean_linker_4, # of connection points: 2
#     Edge 20, Type (0, 0), BuildingBlock: EYOCIG_clean_linker_4, # of connection points: 2
#     Edge 21, Type (0, 0), BuildingBlock: EYOCIG_clean_linker_4, # of connection points: 2
#     Edge 22, Type (0, 0), BuildingBlock: EYOCIG_clean_linker_4, # of connection points: 2
#     Edge 23, Type (0, 0), BuildingBlock: EYOCIG_clean_linker_4, # of connection points: 2
# Relax obj value: 0.120
# Max RMSD: 0.163
# Mean RMSD: 0.163
data_MOF--net-dia--node1-QUQFOY_clean_sbu_3--edge1-EYOCIG_clean_linker_4
_symmetry_space_group_name_H-M    P1
_symmetry_Int_Tables_number       1
_symmetry_cell_setting            triclinic
loop_
_symmetry_equiv_pos_as_xyz
'x, y, z'
_cell_length_a     27.779745
_cell_length_b     27.801597
_cell_length_c     32.731582
_cell_angle_alpha  91.491644
_cell_angle_beta   91.515808
_cell_angle_gamma 94.169696
loop_
_atom_site_label
_atom_site_type_symbol
_atom_site_fract_x
_atom_site_fract_y
_atom_site_fract_z
_atom_type_partial_charge
C0 C 0.04383 0.17787 0.64923 0.0
O1 O 0.01627 0.17811 0.61779 0.0
Cd2 Cd 0.02665 0.13936 0.5534 0.0
O3 O 0.08012 0.15237 0.6504 0.0
Cd4 Cd 0.11354 0.09085 0.60402 0.0
C5 C 0.14591 0.17639 0.53598 0.0
O6 O 0.03851 0.05874 0.57024 0.0
O7 O 0.10343 0.03518 0.54368 0.0
O8 O 0.11264 0.0374 0.66239 0.0
C9 C 0.05773 0.03337 0.54349 0.0
O10 O 0.10111 0.17653 0.52702 0.0
C11 C 0.15706 0.02996 0.66122 0.0
O12 O 0.16162 0.15048 0.5643 0.0
O13 O 0.18183 0.05119 0.63405 0.0
C14 C 0.77919 0.41452 0.79871 0.0
O15 O 0.77964 0.44195 0.83025 0.0
Cd16 Cd 0.81921 0.43102 0.89413 0.0
O17 O 0.80457 0.37815 0.79706 0.0
Cd18 Cd 0.86645 0.34406 0.84293 0.0
C19 C 0.78028 0.31219 0.91053 0.0
O20 O 0.89976 0.41852 0.8771 0.0
O21 O 0.92187 0.35296 0.90347 0.0
O22 O 0.92041 0.34327 0.7848 0.0
C23 C 0.92471 0.39863 0.90378 0.0
O24 O 0.78082 0.35689 0.91991 0.0
C25 C 0.92719 0.29877 0.78663 0.0
O26 O 0.80611 0.29644 0.88218 0.0
O27 O 0.90518 0.27478 0.81384 0.0
C28 C 0.54328 0.17796 0.14874 0.0
O29 O 0.51564 0.17763 0.11732 0.0
Cd30 Cd 0.52574 0.13792 0.05334 0.0
O31 O 0.57978 0.15273 0.15011 0.0
Cd32 Cd 0.6136 0.09129 0.10375 0.0
C33 C 0.64419 0.17624 0.03464 0.0
O34 O 0.53847 0.0575 0.07067 0.0
O35 O 0.60378 0.03512 0.04394 0.0
O36 O 0.61475 0.03762 0.16199 0.0
C37 C 0.55809 0.0321 0.04415 0.0
O38 O 0.59926 0.17565 0.026 0.0
C39 C 0.65923 0.0307 0.16003 0.0
O40 O 0.66058 0.15098 0.06313 0.0
O41 O 0.68316 0.05257 0.13271 0.0
C42 C 0.77947 0.91359 0.29749 0.0
O43 O 0.77917 0.94123 0.32885 0.0
Cd44 Cd 0.81814 0.93167 0.39327 0.0
O45 O 0.80507 0.87737 0.29641 0.0
Cd46 Cd 0.86672 0.84419 0.34284 0.0
C47 C 0.78175 0.8125 0.41174 0.0
O48 O 0.89856 0.91973 0.37583 0.0
O49 O 0.92299 0.85538 0.40269 0.0
O50 O 0.92005 0.84487 0.28436 0.0
C51 C 0.92447 0.90102 0.40251 0.0
O52 O 0.78153 0.85737 0.42026 0.0
C53 C 0.92773 0.80056 0.2857 0.0
O54 O 0.80748 0.79649 0.38341 0.0
O55 O 0.90663 0.77586 0.31298 0.0
C56 C 0.04379 0.67946 0.14806 0.0
O57 O 0.0162 0.679 0.1166 0.0
Cd58 Cd 0.02659 0.63861 0.053 0.0
O59 O 0.07996 0.65379 0.14972 0.0
Cd60 Cd 0.11323 0.59128 0.10404 0.0
C61 C 0.1456 0.67592 0.03534 0.0
O62 O 0.03788 0.55811 0.07106 0.0
O63 O 0.1028 0.53483 0.04431 0.0
O64 O 0.11398 0.53816 0.16266 0.0
C65 C 0.05711 0.53223 0.04466 0.0
O66 O 0.10082 0.67581 0.02626 0.0
C67 C 0.15841 0.53097 0.16078 0.0
O68 O 0.16131 0.65035 0.06387 0.0
O69 O 0.18243 0.55233 0.13325 0.0
C70 C 0.27972 0.41446 0.29828 0.0
O71 O 0.28012 0.4419 0.3298 0.0
Cd72 Cd 0.31979 0.43094 0.39374 0.0
O73 O 0.30493 0.37798 0.29679 0.0
Cd74 Cd 0.36649 0.34412 0.34293 0.0
C75 C 0.28167 0.31237 0.41167 0.0
O76 O 0.40048 0.41863 0.37679 0.0
O77 O 0.42239 0.35287 0.40303 0.0
O78 O 0.41994 0.34372 0.28454 0.0
C79 C 0.42559 0.39854 0.40327 0.0
O80 O 0.28216 0.35715 0.42075 0.0
C81 C 0.4267 0.29921 0.28607 0.0
O82 O 0.30691 0.29649 0.38297 0.0
O83 O 0.40498 0.27502 0.31332 0.0
C84 C 0.27864 0.91421 0.79892 0.0
O85 O 0.27946 0.9418 0.83036 0.0
Cd86 Cd 0.31984 0.93084 0.89397 0.0
O87 O 0.30399 0.87783 0.79723 0.0
Cd88 Cd 0.36645 0.84426 0.84281 0.0
C89 C 0.28176 0.81213 0.91149 0.0
O90 O 0.4005 0.91869 0.87679 0.0
O91 O 0.42225 0.85287 0.90303 0.0
O92 O 0.41978 0.84412 0.78428 0.0
C93 C 0.42555 0.89855 0.90328 0.0
O94 O 0.28225 0.85687 0.92072 0.0
C95 C 0.42668 0.79962 0.78573 0.0
O96 O 0.30703 0.79637 0.88276 0.0
O97 O 0.40508 0.77534 0.81299 0.0
C98 C 0.54315 0.67821 0.64837 0.0
O99 O 0.51581 0.67795 0.61677 0.0
Cd100 Cd 0.52694 0.63835 0.55292 0.0
O101 O 0.57951 0.65281 0.65 0.0
Cd102 Cd 0.61331 0.59101 0.60409 0.0
C103 C 0.6459 0.67637 0.53597 0.0
O104 O 0.53846 0.55764 0.5703 0.0
O105 O 0.60398 0.53488 0.5442 0.0
O106 O 0.61302 0.53788 0.66269 0.0
C107 C 0.55827 0.53208 0.54401 0.0
O108 O 0.60116 0.67614 0.52669 0.0
C109 C 0.65745 0.53059 0.66132 0.0
O110 O 0.66151 0.65064 0.56445 0.0
O111 O 0.68197 0.55186 0.63403 0.0
C112 C 0.23036 0.2553 0.45985 0.0
C113 C 0.25438 0.27945 0.43678 0.0
C114 C 0.20326 0.2281 0.48829 0.0
C115 C 0.17904 0.20385 0.51115 0.0
C116 C 0.69924 0.47279 0.71189 0.0
C117 C 0.67914 0.49894 0.68926 0.0
C118 C 0.72598 0.44525 0.73873 0.0
C119 C 0.75123 0.42746 0.76382 0.0
C120 C 0.50543 0.9792 -0.01105 0.0
C121 C 0.52962 0.0033 0.01409 0.0
C122 C 0.47739 0.95068 0.9595 0.0
C123 C 0.45386 0.92648 0.934 0.0
C124 C -0.01412 0.75947 0.23497 0.0
C125 C 0.95956 0.77924 0.25768 0.0
C126 C 0.01346 0.73291 0.20803 0.0
C127 C 0.03109 0.70755 0.18295 0.0
C128 C 0.22507 0.94466 0.739 0.0
C129 C 0.25044 0.92703 0.7641 0.0
C130 C 0.19838 0.9721 0.71204 0.0
C131 C 0.17846 -0.00173 0.6893 0.0
C132 C 0.97559 0.45107 0.96038 0.0
C133 C 0.95248 0.42678 0.93469 0.0
C134 C 0.00368 0.47956 -0.01018 0.0
C135 C 0.02821 0.50356 0.0148 0.0
C136 C 0.48455 0.25678 0.23596 0.0
C137 C 0.45837 0.27708 0.25842 0.0
C138 C 0.51226 0.23021 0.20916 0.0
C139 C 0.53027 0.20539 0.18391 0.0
C140 C 0.73052 0.75569 0.46023 0.0
C141 C 0.75454 0.77971 0.43706 0.0
C142 C 0.70337 0.72849 0.48865 0.0
C143 C 0.6791 0.70406 0.51136 0.0
C144 C 0.20091 0.47316 0.21091 0.0
C145 C 0.18062 0.49934 0.18843 0.0
C146 C 0.22746 0.44554 0.23782 0.0
C147 C 0.25227 0.42761 0.26315 0.0
C148 C 0.72753 0.25498 0.95755 0.0
C149 C 0.75224 0.27914 0.93497 0.0
C150 C 0.70039 0.22785 -0.01402 0.0
C151 C 0.67663 0.2037 0.00923 0.0
C152 C 0.72802 0.94433 0.23646 0.0
C153 C 0.75254 0.9264 0.26198 0.0
C154 C 0.70172 0.97222 0.20958 0.0
C155 C 0.68154 -0.00128 0.18732 0.0
C156 C 0.97562 0.95513 0.45782 0.0
C157 C 0.95229 0.93036 0.43259 0.0
C158 C 0.00408 -0.0168 0.48726 0.0
C159 C 0.02884 0.00601 0.51282 0.0
C160 C -0.01457 0.25604 0.73704 0.0
C161 C 0.95906 0.27642 0.75928 0.0
C162 C 0.01312 0.22952 0.71016 0.0
C163 C 0.03097 0.20492 0.68465 0.0
C164 C 0.51207 0.73068 0.70863 0.0
C165 C 0.53001 0.70575 0.68341 0.0
C166 C 0.48445 0.75733 0.73546 0.0
C167 C 0.45832 0.77761 0.75797 0.0
C168 C 0.20299 0.72762 -0.01233 0.0
C169 C 0.17873 0.70339 0.01051 0.0
C170 C 0.2302 0.75487 0.95934 0.0
C171 C 0.25434 0.7791 0.93641 0.0
C172 C 0.47772 0.45073 0.45924 0.0
C173 C 0.45405 0.42652 0.43384 0.0
C174 C 0.50583 0.47922 0.48865 0.0
C175 C 0.52999 0.50328 0.51384 0.0
loop_
_geom_bond_atom_site_label_1
_geom_bond_atom_site_label_2
_geom_bond_distance
_geom_bond_site_symmetry_2
_ccdc_geom_bond_type
C0 O1 1.306 . S
C0 O3 1.160 . S
O1 C0 1.306 . S
O1 Cd2 2.228 . S
Cd2 O1 2.228 . S
Cd2 O6 2.273 . S
Cd2 O10 2.277 . S
O3 C0 1.160 . S
O3 Cd4 2.203 . S
Cd4 O3 2.203 . S
Cd4 O6 2.411 . S
Cd4 O7 2.333 . S
Cd4 O8 2.352 . S
Cd4 O12 2.277 . S
Cd4 O13 2.356 . S
C5 O10 1.209 . S
C5 O12 1.226 . S
O6 Cd2 2.273 . S
O6 Cd4 2.411 . S
O6 C9 1.320 . S
O7 Cd4 2.333 . S
O7 C9 1.214 . S
O8 Cd4 2.352 . S
O8 C11 1.258 . S
C9 O6 1.320 . S
C9 O7 1.214 . S
O10 Cd2 2.277 . S
O10 C5 1.209 . S
C11 O8 1.258 . S
C11 O13 1.282 . S
O12 Cd4 2.277 . S
O12 C5 1.226 . S
O13 Cd4 2.356 . S
O13 C11 1.282 . S
C14 O15 1.306 . S
C14 O17 1.160 . S
O15 C14 1.306 . S
O15 Cd16 2.228 . S
Cd16 O15 2.228 . S
Cd16 O20 2.273 . S
Cd16 O24 2.277 . S
O17 C14 1.160 . S
O17 Cd18 2.203 . S
Cd18 O17 2.203 . S
Cd18 O20 2.411 . S
Cd18 O21 2.333 . S
Cd18 O22 2.352 . S
Cd18 O26 2.277 . S
Cd18 O27 2.356 . S
C19 O24 1.209 . S
C19 O26 1.226 . S
O20 Cd16 2.273 . S
O20 Cd18 2.411 . S
O20 C23 1.320 . S
O21 Cd18 2.333 . S
O21 C23 1.214 . S
O22 Cd18 2.352 . S
O22 C25 1.258 . S
C23 O20 1.320 . S
C23 O21 1.214 . S
O24 Cd16 2.277 . S
O24 C19 1.209 . S
C25 O22 1.258 . S
C25 O27 1.282 . S
O26 Cd18 2.277 . S
O26 C19 1.226 . S
O27 Cd18 2.356 . S
O27 C25 1.282 . S
C28 O29 1.306 . S
C28 O31 1.160 . S
O29 C28 1.306 . S
O29 Cd30 2.228 . S
Cd30 O29 2.228 . S
Cd30 O34 2.273 . S
Cd30 O38 2.277 . S
O31 C28 1.160 . S
O31 Cd32 2.203 . S
Cd32 O31 2.203 . S
Cd32 O34 2.411 . S
Cd32 O35 2.333 . S
Cd32 O36 2.352 . S
Cd32 O40 2.277 . S
Cd32 O41 2.356 . S
C33 O38 1.209 . S
C33 O40 1.226 . S
O34 Cd30 2.273 . S
O34 Cd32 2.411 . S
O34 C37 1.320 . S
O35 Cd32 2.333 . S
O35 C37 1.214 . S
O36 Cd32 2.352 . S
O36 C39 1.258 . S
C37 O34 1.320 . S
C37 O35 1.214 . S
O38 Cd30 2.277 . S
O38 C33 1.209 . S
C39 O36 1.258 . S
C39 O41 1.282 . S
O40 Cd32 2.277 . S
O40 C33 1.226 . S
O41 Cd32 2.356 . S
O41 C39 1.282 . S
C42 O43 1.306 . S
C42 O45 1.160 . S
O43 C42 1.306 . S
O43 Cd44 2.228 . S
Cd44 O43 2.228 . S
Cd44 O48 2.273 . S
Cd44 O52 2.277 . S
O45 C42 1.160 . S
O45 Cd46 2.203 . S
Cd46 O45 2.203 . S
Cd46 O48 2.411 . S
Cd46 O49 2.333 . S
Cd46 O50 2.352 . S
Cd46 O54 2.277 . S
Cd46 O55 2.356 . S
C47 O52 1.209 . S
C47 O54 1.226 . S
O48 Cd44 2.273 . S
O48 Cd46 2.411 . S
O48 C51 1.320 . S
O49 Cd46 2.333 . S
O49 C51 1.214 . S
O50 Cd46 2.352 . S
O50 C53 1.258 . S
C51 O48 1.320 . S
C51 O49 1.214 . S
O52 Cd44 2.277 . S
O52 C47 1.209 . S
C53 O50 1.258 . S
C53 O55 1.282 . S
O54 Cd46 2.277 . S
O54 C47 1.226 . S
O55 Cd46 2.356 . S
O55 C53 1.282 . S
C56 O57 1.306 . S
C56 O59 1.160 . S
O57 C56 1.306 . S
O57 Cd58 2.228 . S
Cd58 O57 2.228 . S
Cd58 O62 2.273 . S
Cd58 O66 2.277 . S
O59 C56 1.160 . S
O59 Cd60 2.203 . S
Cd60 O59 2.203 . S
Cd60 O62 2.411 . S
Cd60 O63 2.333 . S
Cd60 O64 2.352 . S
Cd60 O68 2.277 . S
Cd60 O69 2.356 . S
C61 O66 1.209 . S
C61 O68 1.226 . S
O62 Cd58 2.273 . S
O62 Cd60 2.411 . S
O62 C65 1.320 . S
O63 Cd60 2.333 . S
O63 C65 1.214 . S
O64 Cd60 2.352 . S
O64 C67 1.258 . S
C65 O62 1.320 . S
C65 O63 1.214 . S
O66 Cd58 2.277 . S
O66 C61 1.209 . S
C67 O64 1.258 . S
C67 O69 1.282 . S
O68 Cd60 2.277 . S
O68 C61 1.226 . S
O69 Cd60 2.356 . S
O69 C67 1.282 . S
C70 O71 1.306 . S
C70 O73 1.160 . S
O71 C70 1.306 . S
O71 Cd72 2.228 . S
Cd72 O71 2.228 . S
Cd72 O76 2.273 . S
Cd72 O80 2.277 . S
O73 C70 1.160 . S
O73 Cd74 2.203 . S
Cd74 O73 2.203 . S
Cd74 O76 2.411 . S
Cd74 O77 2.333 . S
Cd74 O78 2.352 . S
Cd74 O82 2.277 . S
Cd74 O83 2.356 . S
C75 O80 1.209 . S
C75 O82 1.226 . S
O76 Cd72 2.273 . S
O76 Cd74 2.411 . S
O76 C79 1.320 . S
O77 Cd74 2.333 . S
O77 C79 1.214 . S
O78 Cd74 2.352 . S
O78 C81 1.258 . S
C79 O76 1.320 . S
C79 O77 1.214 . S
O80 Cd72 2.277 . S
O80 C75 1.209 . S
C81 O78 1.258 . S
C81 O83 1.282 . S
O82 Cd74 2.277 . S
O82 C75 1.226 . S
O83 Cd74 2.356 . S
O83 C81 1.282 . S
C84 O85 1.306 . S
C84 O87 1.160 . S
O85 C84 1.306 . S
O85 Cd86 2.228 . S
Cd86 O85 2.228 . S
Cd86 O90 2.273 . S
Cd86 O94 2.277 . S
O87 C84 1.160 . S
O87 Cd88 2.203 . S
Cd88 O87 2.203 . S
Cd88 O90 2.411 . S
Cd88 O91 2.333 . S
Cd88 O92 2.352 . S
Cd88 O96 2.277 . S
Cd88 O97 2.356 . S
C89 O94 1.209 . S
C89 O96 1.226 . S
O90 Cd86 2.273 . S
O90 Cd88 2.411 . S
O90 C93 1.320 . S
O91 Cd88 2.333 . S
O91 C93 1.214 . S
O92 Cd88 2.352 . S
O92 C95 1.258 . S
C93 O90 1.320 . S
C93 O91 1.214 . S
O94 Cd86 2.277 . S
O94 C89 1.209 . S
C95 O92 1.258 . S
C95 O97 1.282 . S
O96 Cd88 2.277 . S
O96 C89 1.226 . S
O97 Cd88 2.356 . S
O97 C95 1.282 . S
C98 O99 1.306 . S
C98 O101 1.160 . S
O99 C98 1.306 . S
O99 Cd100 2.228 . S
Cd100 O99 2.228 . S
Cd100 O104 2.273 . S
Cd100 O108 2.277 . S
O101 C98 1.160 . S
O101 Cd102 2.203 . S
Cd102 O101 2.203 . S
Cd102 O104 2.411 . S
Cd102 O105 2.333 . S
Cd102 O106 2.352 . S
Cd102 O110 2.277 . S
Cd102 O111 2.356 . S
C103 O108 1.209 . S
C103 O110 1.226 . S
O104 Cd100 2.273 . S
O104 Cd102 2.411 . S
O104 C107 1.320 . S
O105 Cd102 2.333 . S
O105 C107 1.214 . S
O106 Cd102 2.352 . S
O106 C109 1.258 . S
C107 O104 1.320 . S
C107 O105 1.214 . S
O108 Cd100 2.277 . S
O108 C103 1.209 . S
C109 O106 1.258 . S
C109 O111 1.282 . S
O110 Cd102 2.277 . S
O110 C103 1.226 . S
O111 Cd102 2.356 . S
O111 C109 1.282 . S
C112 C113 1.170 . S
C112 C114 1.380 . S
C113 C112 1.170 . S
C114 C112 1.380 . S
C114 C115 1.170 . S
C115 C114 1.170 . S
C116 C117 1.170 . S
C116 C118 1.380 . S
C117 C116 1.170 . S
C118 C116 1.380 . S
C118 C119 1.170 . S
C119 C118 1.170 . S
C120 C121 1.170 1_565 S
C120 C122 1.380 1_554 S
C121 C120 1.170 1_545 S
C122 C120 1.380 1_556 S
C122 C123 1.170 . S
C123 C122 1.170 . S
C124 C125 1.170 1_455 S
C124 C126 1.380 . S
C125 C124 1.170 1_655 S
C126 C124 1.380 . S
C126 C127 1.170 . S
C127 C126 1.170 . S
C128 C129 1.170 . S
C128 C130 1.380 . S
C129 C128 1.170 . S
C130 C128 1.380 . S
C130 C131 1.170 1_565 S
C131 C130 1.170 1_545 S
C132 C133 1.170 . S
C132 C134 1.380 1_656 S
C133 C132 1.170 . S
C134 C132 1.380 1_454 S
C134 C135 1.170 . S
C135 C134 1.170 . S
C136 C137 1.170 . S
C136 C138 1.380 . S
C137 C136 1.170 . S
C138 C136 1.380 . S
C138 C139 1.170 . S
C139 C138 1.170 . S
C140 C141 1.170 . S
C140 C142 1.380 . S
C141 C140 1.170 . S
C142 C140 1.380 . S
C142 C143 1.170 . S
C143 C142 1.170 . S
C144 C145 1.170 . S
C144 C146 1.380 . S
C145 C144 1.170 . S
C146 C144 1.380 . S
C146 C147 1.170 . S
C147 C146 1.170 . S
C148 C149 1.170 . S
C148 C150 1.380 1_556 S
C149 C148 1.170 . S
C150 C148 1.380 1_554 S
C150 C151 1.170 . S
C151 C150 1.170 . S
C152 C153 1.170 . S
C152 C154 1.380 . S
C153 C152 1.170 . S
C154 C152 1.380 . S
C154 C155 1.170 1_565 S
C155 C154 1.170 1_545 S
C156 C157 1.170 . S
C156 C158 1.380 1_665 S
C157 C156 1.170 . S
C158 C156 1.380 1_445 S
C158 C159 1.170 . S
C159 C158 1.170 . S
C160 C161 1.170 1_455 S
C160 C162 1.380 . S
C161 C160 1.170 1_655 S
C162 C160 1.380 . S
C162 C163 1.170 . S
C163 C162 1.170 . S
C164 C165 1.170 . S
C164 C166 1.380 . S
C165 C164 1.170 . S
C166 C164 1.380 . S
C166 C167 1.170 . S
C167 C166 1.170 . S
C168 C169 1.170 . S
C168 C170 1.380 1_554 S
C169 C168 1.170 . S
C170 C168 1.380 1_556 S
C170 C171 1.170 . S
C171 C170 1.170 . S
C172 C173 1.170 . S
C172 C174 1.380 . S
C173 C172 1.170 . S
C174 C172 1.380 . S
C174 C175 1.170 . S
C175 C174 1.170 . S
C113 C75 1.550 . S
C115 C5 1.549 . S
C117 C109 1.535 . S
C119 C14 1.524 . S
C121 C37 1.530 . S
C123 C93 1.530 . S
C125 C53 1.539 . S
C127 C56 1.525 . S
C129 C84 1.524 . S
C131 C11 1.538 . S
C133 C23 1.531 . S
C135 C65 1.530 . S
C137 C81 1.527 . S
C139 C28 1.528 . S
C141 C47 1.551 . S
C143 C103 1.549 . S
C145 C67 1.527 . S
C147 C70 1.528 . S
C149 C19 1.552 . S
C151 C33 1.556 . S
C153 C42 1.535 . S
C155 C39 1.522 . S
C157 C51 1.531 . S
C159 C9 1.532 . S
C161 C25 1.522 . S
C163 C0 1.534 . S
C165 C98 1.526 . S
C167 C95 1.530 . S
C169 C61 1.549 . S
C171 C89 1.549 . S
C173 C79 1.530 . S
C175 C107 1.530 . S
