# Generated by pormake.
# Topology snz, (6)-cn, num edge types: 1
# Building blocks:
#     Node 0, Type 0, BuildingBlock: MIFKUJ_clean_sbu_0, # of connection points: 6
#     Node 1, Type 0, BuildingBlock: MIFKUJ_clean_sbu_0, # of connection points: 6
#     Node 2, Type 0, BuildingBlock: MIFKUJ_clean_sbu_0, # of connection points: 6
#     Node 3, Type 0, BuildingBlock: MIFKUJ_clean_sbu_0, # of connection points: 6
#     Node 4, Type 0, BuildingBlock: MIFKUJ_clean_sbu_0, # of connection points: 6
#     Node 5, Type 0, BuildingBlock: MIFKUJ_clean_sbu_0, # of connection points: 6
#     Node 6, Type 0, BuildingBlock: MIFKUJ_clean_sbu_0, # of connection points: 6
#     Node 7, Type 0, BuildingBlock: MIFKUJ_clean_sbu_0, # of connection points: 6
#     Node 8, Type 0, BuildingBlock: MIFKUJ_clean_sbu_0, # of connection points: 6
#     Edge 9, Type (0, 0), None
#     Edge 10, Type (0, 0), None
#     Edge 11, Type (0, 0), None
#     Edge 12, Type (0, 0), None
#     Edge 13, Type (0, 0), None
#     Edge 14, Type (0, 0), None
#     Edge 15, Type (0, 0), None
#     Edge 16, Type (0, 0), None
#     Edge 17, Type (0, 0), None
#     Edge 18, Type (0, 0), None
#     Edge 19, Type (0, 0), None
#     Edge 20, Type (0, 0), None
#     Edge 21, Type (0, 0), None
#     Edge 22, Type (0, 0), None
#     Edge 23, Type (0, 0), None
#     Edge 24, Type (0, 0), None
#     Edge 25, Type (0, 0), None
#     Edge 26, Type (0, 0), None
#     Edge 27, Type (0, 0), None
#     Edge 28, Type (0, 0), None
#     Edge 29, Type (0, 0), None
#     Edge 30, Type (0, 0), None
#     Edge 31, Type (0, 0), None
#     Edge 32, Type (0, 0), None
#     Edge 33, Type (0, 0), None
#     Edge 34, Type (0, 0), None
#     Edge 35, Type (0, 0), None
# Relax obj value: 0.242
# Max RMSD: 0.196
# Mean RMSD: 0.117
data_MOF--net-snz--node1-MIFKUJ_clean_sbu_0--edge1-none
_symmetry_space_group_name_H-M    P1
_symmetry_Int_Tables_number       1
_symmetry_cell_setting            triclinic
loop_
_symmetry_equiv_pos_as_xyz
'x, y, z'
_cell_length_a     32.081085
_cell_length_b     27.500446
_cell_length_c     6.3361729
_cell_angle_alpha  93.549754
_cell_angle_beta   92.95669
_cell_angle_gamma 120.47978
loop_
_atom_site_label
_atom_site_type_symbol
_atom_site_fract_x
_atom_site_fract_y
_atom_site_fract_z
_atom_type_partial_charge
Zn0 Zn 0.07628 0.54491 1.05484 0.0
Zn1 Zn 0.05379 0.38251 1.0025 0.0
C2 C 0.15681 0.6526 0.26268 0.0
O3 O 0.14642 0.62769 0.43855 0.0
C4 C 0.98105 0.27988 0.78104 0.0
O5 O 0.01802 0.29284 0.66916 0.0
O6 O 0.02374 0.56462 1.03177 0.0
O7 O 0.07388 0.5069 0.7627 0.0
O8 O 0.06531 0.42118 0.72625 0.0
C9 C -0.01228 0.54459 0.89146 0.0
O10 O 0.97797 0.50133 0.75547 0.0
O11 O 0.135 0.62408 0.08547 0.0
C12 C 0.12302 0.35393 0.20515 0.0
O13 O 0.13458 0.39581 0.35144 0.0
O14 O 0.09389 0.34488 1.04279 0.0
O15 O 0.06124 0.42276 0.29704 0.0
O16 O 0.07443 0.51048 0.33503 0.0
O17 O -0.01389 0.3141 0.93897 0.0
C18 C 0.07049 0.46523 0.64759 0.0
C19 C 0.06908 0.46643 0.41383 0.0
Zn20 Zn 0.53093 0.41156 1.04077 0.0
Zn21 Zn 0.64031 0.44335 0.08434 0.0
C22 C 0.51797 0.29429 0.96081 0.0
O23 O 0.56337 0.31313 1.02982 0.0
C24 C 0.67419 0.55446 0.28823 0.0
O25 O 0.68068 0.53079 0.4505 0.0
O26 O 0.47042 0.41467 0.07518 0.0
O27 O 0.56388 0.442 0.34236 0.0
O28 O 0.61177 0.40681 0.35392 0.0
C29 C 0.44829 0.38754 0.22862 0.0
O30 O 0.46597 0.3618 0.33734 0.0
O31 O 0.5012 0.32732 0.9661 0.0
C32 C 0.72959 0.46781 0.91845 0.0
O33 O 0.70535 0.46426 0.73925 0.0
O34 O 0.70823 0.4566 0.08786 0.0
O35 O 0.60757 0.40579 0.78766 0.0
O36 O 0.56326 0.44619 0.77461 0.0
O37 O 0.65431 0.5244 0.11159 0.0
C38 C 0.58644 0.4234 0.44778 0.0
C39 C 0.58568 0.42517 0.68068 0.0
Zn40 Zn 0.66619 0.00669 0.16854 0.0
Zn41 Zn 0.54998 0.94825 0.1197 0.0
C42 C 0.71819 0.95612 0.32238 0.0
O43 O 0.7423 0.00653 0.42795 0.0
C44 C 0.5836 0.0746 0.07259 0.0
O45 O 0.62148 0.12628 0.0873 0.0
O46 O 0.72959 0.08325 0.19505 0.0
O47 O 0.63434 0.99869 0.86699 0.0
O48 O 0.5603 0.92302 0.82559 0.0
C49 C 0.7646 0.09953 0.07828 0.0
O50 O 0.8022 0.15119 0.1177 0.0
O51 O 0.68362 0.94513 0.18406 0.0
C52 C 0.45546 0.88897 0.28825 0.0
O53 O 0.47476 0.86601 0.40328 0.0
O54 O 0.47931 0.92179 0.15036 0.0
O55 O 0.56937 0.92252 0.38274 0.0
O56 O 0.63566 0.00605 0.44764 0.0
O57 O 0.5897 0.03503 0.133 0.0
C58 C 0.59797 0.96029 0.74685 0.0
C59 C 0.60083 0.96252 0.51488 0.0
Zn60 Zn 0.80306 0.88664 0.55962 0.0
Zn61 Zn 0.78054 0.72423 0.50727 0.0
C62 C 0.87578 0.98929 0.78104 0.0
O63 O 0.83882 0.97631 0.89293 0.0
C64 C 0.69999 0.61656 0.29943 0.0
O65 O 0.71038 0.64146 0.12352 0.0
O66 O 0.76295 0.92426 0.51933 0.0
O67 O 0.79561 0.84639 0.26508 0.0
O68 O 0.78241 0.75867 0.22709 0.0
C69 C 0.73381 0.9152 0.35697 0.0
O70 O 0.72226 0.87333 0.21065 0.0
O71 O 0.87073 0.95507 0.62312 0.0
C72 C 0.86908 0.72451 0.67066 0.0
O73 O 0.87884 0.76778 0.80663 0.0
O74 O 0.83307 0.70449 0.53034 0.0
O75 O 0.78295 0.76224 0.79942 0.0
O76 O 0.79154 0.84798 0.83587 0.0
O77 O 0.7218 0.64507 0.47664 0.0
C78 C 0.78777 0.80272 0.14829 0.0
C79 C 0.78636 0.80392 0.91453 0.0
Zn80 Zn 0.21649 0.8258 0.4778 0.0
Zn81 Zn 0.32587 0.85759 0.52138 0.0
C82 C 0.18261 0.7147 0.27388 0.0
O83 O 0.17613 0.73836 0.11158 0.0
C84 C 0.33885 0.97486 0.60137 0.0
O85 O 0.29345 0.95603 0.53235 0.0
O86 O 0.14856 0.81254 0.4743 0.0
O87 O 0.24923 0.86336 0.77448 0.0
O88 O 0.29354 0.82297 0.78754 0.0
C89 C 0.12721 0.80132 0.64371 0.0
O90 O 0.15145 0.80488 0.8229 0.0
O91 O 0.20249 0.74475 0.45053 0.0
C92 C 0.40851 0.8816 0.33352 0.0
O93 O 0.39083 0.90735 0.22482 0.0
O94 O 0.38638 0.85447 0.48695 0.0
O95 O 0.29293 0.82716 0.21978 0.0
O96 O 0.24503 0.86234 0.20822 0.0
O97 O 0.35561 0.94183 0.59607 0.0
C98 C 0.27112 0.84399 0.88146 0.0
C99 C 0.27036 0.84576 0.11437 0.0
Zn100 Zn 0.30682 0.32087 0.44244 0.0
Zn101 Zn 0.19062 0.26243 0.39361 0.0
C102 C 0.27321 0.19453 0.48955 0.0
O103 O 0.23534 0.14285 0.47482 0.0
C104 C 0.13863 0.31301 0.23976 0.0
O105 O 0.11453 0.2626 0.13417 0.0
O106 O 0.37749 0.34735 0.41179 0.0
O107 O 0.28742 0.3466 0.1794 0.0
O108 O 0.22115 0.26306 0.11451 0.0
C109 C 0.40133 0.38017 0.27388 0.0
O110 O 0.38203 0.40311 0.15881 0.0
O111 O 0.26711 0.23409 0.42913 0.0
C112 C 0.09221 0.16962 0.48387 0.0
O113 O 0.0546 0.11796 0.44452 0.0
O114 O 0.12721 0.18588 0.36711 0.0
O115 O 0.22246 0.27041 0.69515 0.0
O116 O 0.29649 0.3461 0.73655 0.0
O117 O 0.1732 0.324 0.37808 0.0
C118 C 0.25597 0.30659 1.04725 0.0
C119 C 0.25883 0.30882 0.81529 0.0
Zn120 Zn 0.47555 0.11514 0.93347 0.0
Zn121 Zn 0.38127 0.15402 0.62871 0.0
C122 C 0.53561 0.06574 1.0017 0.0
O123 O 0.49671 0.02616 0.07707 0.0
C124 C 0.3212 0.20341 0.56047 0.0
O125 O 0.36011 0.24298 0.48509 0.0
O126 O 0.46825 0.10935 0.24092 0.0
O127 O 0.49857 0.19909 0.92 0.0
O128 O 0.44363 0.21966 0.79015 0.0
C129 C 0.44409 0.12667 0.33875 0.0
O130 O 0.45214 0.13679 0.54491 0.0
O131 O 0.5335 0.10485 0.91248 0.0
C132 C 0.41273 0.14247 0.22344 0.0
O133 O 0.40468 0.13236 1.01728 0.0
O134 O 0.38857 0.15981 0.32127 0.0
O135 O 0.35825 0.07006 0.64219 0.0
O136 O 0.41319 0.04949 0.77203 0.0
O137 O 0.32333 0.1643 0.64971 0.0
C138 C 0.48534 0.23448 0.88188 0.0
C139 C 0.37149 0.03468 0.68031 0.0
Zn140 Zn -0.01149 0.14447 0.63971 0.0
Zn141 Zn 0.8683 0.12472 0.92232 0.0
C142 C 0.09506 0.20603 0.67035 0.0
O143 O 0.13688 0.25044 0.743 0.0
C144 C 0.76175 0.06314 0.89174 0.0
O145 O 0.71993 0.01874 0.81903 0.0
O146 O -0.01201 0.14785 0.33378 0.0
O147 O 0.95505 0.06161 0.71491 0.0
O148 O 0.90757 0.0879 0.84293 0.0
C149 C 0.95271 0.14919 0.24231 0.0
O150 O 0.96343 0.18938 0.12058 0.0
O151 O 0.05747 0.19654 0.7605 0.0
C152 C 0.90412 0.11998 0.31961 0.0
O153 O 0.89342 0.0798 0.44139 0.0
O154 O 0.86884 0.12134 0.22825 0.0
O155 O 0.90177 0.20758 0.84713 0.0
O156 O 0.94923 0.18126 0.71907 0.0
O157 O 0.79935 0.07266 0.80156 0.0
C158 C 0.91597 0.04825 0.79915 0.0
C159 C 0.94085 0.22093 0.76287 0.0
Zn160 Zn 0.8744 0.58233 0.77764 0.0
Zn161 Zn 0.9824 0.68677 0.78449 0.0
C162 C 0.78271 0.4973 0.93198 0.0
O163 O 0.80743 0.51178 0.11914 0.0
C164 C 0.07409 0.77183 0.63018 0.0
O165 O 0.04937 0.75736 0.44302 0.0
O166 O 0.89346 0.62527 1.05265 0.0
O167 O 0.92282 0.55461 0.74231 0.0
O168 O 0.98315 0.62727 0.94947 0.0
C169 C 0.91126 0.61211 0.20375 0.0
O170 O 0.90557 0.56126 0.2001 0.0
O171 O 0.80422 0.51876 0.76943 0.0
C172 C 0.94555 0.65699 0.35838 0.0
O173 O 0.95123 0.70784 0.362 0.0
O174 O 0.96335 0.64383 0.50948 0.0
O175 O 0.93398 0.71449 0.81982 0.0
O176 O 0.87365 0.64183 0.61265 0.0
O177 O 0.05257 0.75035 0.79271 0.0
C178 C 0.96288 0.57647 0.86105 0.0
C179 C 0.89392 0.69263 0.70107 0.0
loop_
_geom_bond_atom_site_label_1
_geom_bond_atom_site_label_2
_geom_bond_distance
_geom_bond_site_symmetry_2
_ccdc_geom_bond_type
Zn0 O6 1.969 1_455 S
Zn0 O7 1.965 1_554 S
Zn0 O11 2.024 . S
Zn0 O16 1.969 . S
Zn1 O8 1.969 1_554 S
Zn1 O14 1.969 . S
Zn1 O15 1.965 . S
Zn1 O17 2.024 1_455 S
C2 O3 1.229 . S
C2 O11 1.058 . S
O3 C2 1.229 . S
C4 O5 1.229 1_655 S
C4 O17 1.058 1_556 S
O5 C4 1.229 1_455 S
O6 Zn0 1.969 1_655 S
O6 C9 1.267 1_554 S
O7 Zn0 1.965 1_556 S
O7 C18 1.260 . S
O8 Zn1 1.969 1_556 S
O8 C18 1.258 . S
C9 O6 1.267 1_556 S
C9 O10 1.228 1_655 S
O10 C9 1.228 1_455 S
O11 Zn0 2.024 . S
O11 C2 1.058 . S
C12 O13 1.228 . S
C12 O14 1.267 . S
O13 C12 1.228 . S
O14 Zn1 1.969 . S
O14 C12 1.267 . S
O15 Zn1 1.965 . S
O15 C19 1.260 . S
O16 Zn0 1.969 . S
O16 C19 1.258 . S
O17 Zn1 2.024 1_655 S
O17 C4 1.058 1_554 S
C18 O7 1.260 . S
C18 O8 1.258 . S
C19 O15 1.260 . S
C19 O16 1.258 . S
Zn20 O26 1.969 . S
Zn20 O27 1.965 . S
Zn20 O31 2.024 . S
Zn20 O36 1.969 1_554 S
Zn21 O28 1.969 . S
Zn21 O34 1.969 . S
Zn21 O35 1.965 1_554 S
Zn21 O37 2.024 . S
C22 O23 1.229 . S
C22 O31 1.058 1_556 S
O23 C22 1.229 . S
C24 O25 1.229 . S
C24 O37 1.058 . S
O25 C24 1.229 . S
O26 Zn20 1.969 . S
O26 C29 1.267 . S
O27 Zn20 1.965 . S
O27 C38 1.260 . S
O28 Zn21 1.969 . S
O28 C38 1.258 . S
C29 O26 1.267 . S
C29 O30 1.228 . S
O30 C29 1.228 . S
O31 Zn20 2.024 . S
O31 C22 1.058 1_554 S
C32 O33 1.228 1_554 S
C32 O34 1.267 . S
O33 C32 1.228 1_556 S
O34 Zn21 1.969 . S
O34 C32 1.267 . S
O35 Zn21 1.965 1_556 S
O35 C39 1.260 . S
O36 Zn20 1.969 1_556 S
O36 C39 1.258 . S
O37 Zn21 2.024 . S
O37 C24 1.058 . S
C38 O27 1.260 . S
C38 O28 1.258 . S
C39 O35 1.260 . S
C39 O36 1.258 . S
Zn40 O46 1.969 . S
Zn40 O47 1.965 . S
Zn40 O51 2.024 1_545 S
Zn40 O56 1.969 . S
Zn41 O48 1.964 1_544 S
Zn41 O54 1.969 1_545 S
Zn41 O55 1.965 1_545 S
Zn41 O57 2.024 . S
C42 O43 1.229 . S
C42 O51 1.058 . S
O43 C42 1.229 . S
C44 O45 1.229 . S
C44 O57 1.058 . S
O45 C44 1.229 . S
O46 Zn40 1.969 . S
O46 C49 1.267 . S
O47 Zn40 1.965 . S
O47 C58 1.260 1_554 S
O48 Zn41 1.964 1_566 S
O48 C58 1.265 1_565 S
C49 O46 1.267 . S
C49 O50 1.228 . S
O50 C49 1.228 . S
O51 Zn40 2.024 1_565 S
O51 C42 1.058 . S
C52 O53 1.228 . S
C52 O54 1.267 . S
O53 C52 1.228 . S
O54 Zn41 1.969 1_565 S
O54 C52 1.267 . S
O55 Zn41 1.965 1_565 S
O55 C59 1.260 1_565 S
O56 Zn40 1.969 . S
O56 C59 1.258 . S
O57 Zn41 2.024 . S
O57 C44 1.058 . S
C58 O47 1.260 1_556 S
C58 O48 1.265 1_545 S
C59 O55 1.260 1_545 S
C59 O56 1.258 . S
Zn60 O66 1.969 . S
Zn60 O67 1.965 . S
Zn60 O71 2.024 . S
Zn60 O76 1.969 . S
Zn61 O68 1.969 . S
Zn61 O74 1.969 . S
Zn61 O75 1.965 . S
Zn61 O77 2.024 . S
C62 O63 1.229 . S
C62 O71 1.058 . S
O63 C62 1.229 . S
C64 O65 1.229 . S
C64 O77 1.058 . S
O65 C64 1.229 . S
O66 Zn60 1.969 . S
O66 C69 1.267 . S
O67 Zn60 1.965 . S
O67 C78 1.260 . S
O68 Zn61 1.969 . S
O68 C78 1.258 . S
C69 O66 1.267 . S
C69 O70 1.228 . S
O70 C69 1.228 . S
O71 Zn60 2.024 . S
O71 C62 1.058 . S
C72 O73 1.228 . S
C72 O74 1.267 . S
O73 C72 1.228 . S
O74 Zn61 1.969 . S
O74 C72 1.267 . S
O75 Zn61 1.965 . S
O75 C79 1.260 . S
O76 Zn60 1.969 . S
O76 C79 1.258 . S
O77 Zn61 2.024 . S
O77 C64 1.058 . S
C78 O67 1.260 . S
C78 O68 1.258 . S
C79 O75 1.260 . S
C79 O76 1.258 . S
Zn80 O86 1.969 . S
Zn80 O87 1.965 . S
Zn80 O91 2.024 . S
Zn80 O96 1.969 . S
Zn81 O88 1.969 . S
Zn81 O94 1.969 . S
Zn81 O95 1.965 . S
Zn81 O97 2.024 . S
C82 O83 1.229 . S
C82 O91 1.058 . S
O83 C82 1.229 . S
C84 O85 1.229 . S
C84 O97 1.058 1_545 S
O85 C84 1.229 . S
O86 Zn80 1.969 . S
O86 C89 1.267 . S
O87 Zn80 1.965 . S
O87 C98 1.260 . S
O88 Zn81 1.969 . S
O88 C98 1.258 . S
C89 O86 1.267 . S
C89 O90 1.228 . S
O90 C89 1.228 . S
O91 Zn80 2.024 . S
O91 C82 1.058 . S
C92 O93 1.228 . S
C92 O94 1.267 . S
O93 C92 1.228 . S
O94 Zn81 1.969 . S
O94 C92 1.267 . S
O95 Zn81 1.965 . S
O95 C99 1.260 . S
O96 Zn80 1.969 . S
O96 C99 1.258 . S
O97 Zn81 2.024 . S
O97 C84 1.058 1_565 S
C98 O87 1.260 . S
C98 O88 1.258 . S
C99 O95 1.260 . S
C99 O96 1.258 . S
Zn100 O106 1.969 . S
Zn100 O107 1.965 . S
Zn100 O111 2.024 . S
Zn100 O116 1.969 . S
Zn101 O108 1.969 1_554 S
Zn101 O114 1.969 . S
Zn101 O115 1.965 . S
Zn101 O117 2.024 . S
C102 O103 1.229 . S
C102 O111 1.058 . S
O103 C102 1.229 . S
C104 O105 1.229 . S
C104 O117 1.058 . S
O105 C104 1.229 . S
O106 Zn100 1.969 . S
O106 C109 1.267 . S
O107 Zn100 1.965 . S
O107 C118 1.260 1_554 S
O108 Zn101 1.969 1_556 S
O108 C118 1.258 . S
C109 O106 1.267 . S
C109 O110 1.228 . S
O110 C109 1.228 . S
O111 Zn100 2.024 . S
O111 C102 1.058 . S
C112 O113 1.228 . S
C112 O114 1.267 . S
O113 C112 1.228 . S
O114 Zn101 1.969 . S
O114 C112 1.267 . S
O115 Zn101 1.965 . S
O115 C119 1.260 . S
O116 Zn100 1.969 . S
O116 C119 1.258 . S
O117 Zn101 2.024 . S
O117 C104 1.058 . S
C118 O107 1.260 1_556 S
C118 O108 1.258 . S
C119 O115 1.260 . S
C119 O116 1.258 . S
Zn120 O126 1.969 1_556 S
Zn120 O127 1.965 . S
Zn120 O131 2.024 . S
Zn120 O136 1.969 . S
Zn121 O128 1.969 . S
Zn121 O134 1.969 . S
Zn121 O135 1.965 . S
Zn121 O137 2.024 . S
C122 O123 1.229 . S
C122 O131 1.058 1_554 S
O123 C122 1.229 . S
C124 O125 1.229 . S
C124 O137 1.058 . S
O125 C124 1.229 . S
O126 Zn120 1.969 1_554 S
O126 C129 1.267 . S
O127 Zn120 1.965 . S
O127 C138 1.260 . S
O128 Zn121 1.969 . S
O128 C138 1.258 . S
C129 O126 1.267 . S
C129 O130 1.228 . S
O130 C129 1.228 . S
O131 Zn120 2.024 . S
O131 C122 1.058 1_556 S
C132 O133 1.228 . S
C132 O134 1.267 . S
O133 C132 1.228 . S
O134 Zn121 1.969 . S
O134 C132 1.267 . S
O135 Zn121 1.965 . S
O135 C139 1.260 . S
O136 Zn120 1.969 . S
O136 C139 1.258 . S
O137 Zn121 2.024 . S
O137 C124 1.058 . S
C138 O127 1.260 . S
C138 O128 1.258 . S
C139 O135 1.260 . S
C139 O136 1.258 . S
Zn140 O146 1.969 . S
Zn140 O147 1.965 . S
Zn140 O151 2.024 1_655 S
Zn140 O156 1.969 . S
Zn141 O148 1.969 . S
Zn141 O154 1.969 1_556 S
Zn141 O155 1.965 . S
Zn141 O157 2.024 . S
C142 O143 1.229 . S
C142 O151 1.058 . S
O143 C142 1.229 . S
C144 O145 1.229 1_556 S
C144 O157 1.058 . S
O145 C144 1.229 1_554 S
O146 Zn140 1.969 . S
O146 C149 1.267 . S
O147 Zn140 1.965 . S
O147 C158 1.260 . S
O148 Zn141 1.969 . S
O148 C158 1.258 . S
C149 O146 1.267 . S
C149 O150 1.228 . S
O150 C149 1.228 . S
O151 Zn140 2.024 1_455 S
O151 C142 1.058 . S
C152 O153 1.228 . S
C152 O154 1.267 . S
O153 C152 1.228 . S
O154 Zn141 1.969 1_554 S
O154 C152 1.267 . S
O155 Zn141 1.965 . S
O155 C159 1.260 . S
O156 Zn140 1.969 . S
O156 C159 1.258 . S
O157 Zn141 2.024 . S
O157 C144 1.058 . S
C158 O147 1.260 . S
C158 O148 1.258 . S
C159 O155 1.260 . S
C159 O156 1.258 . S
Zn160 O166 1.969 1_556 S
Zn160 O167 1.965 . S
Zn160 O171 2.024 . S
Zn160 O176 1.969 . S
Zn161 O168 1.969 . S
Zn161 O174 1.969 . S
Zn161 O175 1.965 . S
Zn161 O177 2.024 1_655 S
C162 O163 1.229 1_556 S
C162 O171 1.058 . S
O163 C162 1.229 1_554 S
C164 O165 1.229 . S
C164 O177 1.058 . S
O165 C164 1.229 . S
O166 Zn160 1.969 1_554 S
O166 C169 1.267 . S
O167 Zn160 1.965 . S
O167 C178 1.260 . S
O168 Zn161 1.969 . S
O168 C178 1.258 . S
C169 O166 1.267 . S
C169 O170 1.228 . S
O170 C169 1.228 . S
O171 Zn160 2.024 . S
O171 C162 1.058 . S
C172 O173 1.228 . S
C172 O174 1.267 . S
O173 C172 1.228 . S
O174 Zn161 1.969 . S
O174 C172 1.267 . S
O175 Zn161 1.965 . S
O175 C179 1.260 . S
O176 Zn160 1.969 . S
O176 C179 1.258 . S
O177 Zn161 2.024 1_455 S
O177 C164 1.058 . S
C178 O167 1.260 . S
C178 O168 1.258 . S
C179 O175 1.260 . S
C179 O176 1.258 . S
C18 C19 3.125 . S
C39 C38 3.161 . S
C58 C59 3.175 . S
C79 C78 3.125 1_556 S
C98 C99 3.161 1_556 S
C119 C118 3.175 . S
C132 C129 1.872 . S
C149 C152 1.729 . S
C172 C169 1.819 . S
C104 C12 1.264 . S
C24 C64 1.232 . S
C52 C92 1.398 . S
C44 C122 1.213 . S
C159 C4 1.464 . S
C162 C32 1.277 1_556 S
C178 C9 1.674 . S
C22 C138 1.536 . S
C144 C49 1.483 1_556 S
C42 C69 1.264 . S
C82 C2 1.232 . S
C29 C109 1.398 . S
C179 C72 1.674 . S
C139 C84 1.536 . S
C142 C112 1.484 . S
C124 C102 1.213 . S
C62 C158 1.464 1_565 S
C164 C89 1.277 . S
