# Generated by pormake.
# Topology hex, (8)-cn, num edge types: 1
# Building blocks:
#     Node 0, Type 0, BuildingBlock: AJUNOK_clean_sbu_0, # of connection points: 8
#     Edge 1, Type (0, 0), BuildingBlock: OJICUG_clean_linker_0, # of connection points: 2
#     Edge 2, Type (0, 0), BuildingBlock: OJICUG_clean_linker_0, # of connection points: 2
#     Edge 3, Type (0, 0), BuildingBlock: OJICUG_clean_linker_0, # of connection points: 2
#     Edge 4, Type (0, 0), BuildingBlock: OJICUG_clean_linker_0, # of connection points: 2
# Relax obj value: 0.041
# Max RMSD: 0.087
# Mean RMSD: 0.087
data_MOF--net-hex--node1-AJUNOK_clean_sbu_0--edge1-OJICUG_clean_linker_0
_symmetry_space_group_name_H-M    P1
_symmetry_Int_Tables_number       1
_symmetry_cell_setting            triclinic
loop_
_symmetry_equiv_pos_as_xyz
'x, y, z'
_cell_length_a     17.121913
_cell_length_b     17.131463
_cell_length_c     11.199887
_cell_angle_alpha  91.194847
_cell_angle_beta   92.436286
_cell_angle_gamma 125.81889
loop_
_atom_site_label
_atom_site_type_symbol
_atom_site_fract_x
_atom_site_fract_y
_atom_site_fract_z
_atom_type_partial_charge
Cd0 Cd 0.11062 0.08643 0.00054 0.0
Cd1 Cd 0.83064 0.8068 0.98048 0.0
C2 C -0.01095 0.15888 0.09711 0.0
N3 N 0.00253 0.12666 -0.00638 0.0
C4 C 0.9399 0.19628 0.87772 0.0
C5 C 0.9325 0.23733 0.98274 0.0
C6 C 0.95325 0.21415 0.09376 0.0
C7 C -0.02348 0.14196 0.88517 0.0
H8 H 0.01364 0.14864 0.18191 0.0
H9 H -0.0092 0.11824 0.80416 0.0
C10 C -0.02796 0.92467 0.74572 0.0
C11 C 0.876 0.66328 0.87246 0.0
C12 C 0.88614 0.58812 0.86965 0.0
C13 C 0.90025 0.556 0.97736 0.0
C14 C 0.90733 0.60338 0.08565 0.0
C15 C 0.8971 0.67855 0.0843 0.0
N16 N 0.88107 0.70638 0.97873 0.0
H17 H 0.85924 0.68385 0.79004 0.0
H18 H 0.89763 0.7117 0.16783 0.0
C19 C 0.76315 0.93044 0.86848 0.0
N20 N 0.79027 0.91461 0.97577 0.0
C21 C 0.7148 -0.02562 0.07995 0.0
C22 C 0.6795 -0.01523 0.97029 0.0
C23 C 0.70845 -0.03316 0.86372 0.0
C24 C 0.76981 0.93829 0.08058 0.0
H25 H 0.77778 0.90824 0.78642 0.0
H26 H 0.78923 0.92165 0.16443 0.0
C27 C -0.00731 0.94473 0.23598 0.0
C28 C 0.27 0.28154 -0.00123 0.0
N29 N 0.21097 0.03622 -0.00871 0.0
C30 C 0.25053 0.02884 0.09443 0.0
C31 C 0.32592 0.01898 0.0912 0.0
C32 C 0.36119 0.01733 0.98081 0.0
C33 C 0.31702 0.02248 0.87564 0.0
C34 C 0.24221 0.03271 0.88305 0.0
C35 C 0.63588 0.64767 -0.012 0.0
O36 O 0.03786 -0.00357 0.81211 0.0
O37 O 0.89653 0.85428 0.78826 0.0
O38 O 0.92057 0.87896 0.16969 0.0
O39 O 0.06318 0.02003 0.19301 0.0
O40 O 0.22507 0.23151 0.90256 0.0
O41 O 0.23972 0.24049 0.09623 0.0
O42 O 0.68926 0.69037 0.0831 0.0
O43 O 0.67342 0.68011 0.88947 0.0
H44 H 0.22659 0.03491 0.17965 0.0
H45 H 0.21244 0.0427 0.80273 0.0
H46 H 0.92325 0.21091 0.79031 0.0
H47 H 0.94978 0.24498 0.17698 0.0
H48 H 0.87869 0.55274 0.78428 0.0
H49 H 0.91899 0.58152 0.17066 0.0
H50 H 0.69353 -0.01392 0.16429 0.0
H51 H 0.6842 -0.02475 0.77727 0.0
H52 H 0.35733 0.01437 0.17433 0.0
H53 H 0.34283 0.02296 0.78885 0.0
C54 C 0.96242 0.38406 0.89083 0.0
C55 C 0.91687 0.31401 0.97634 0.0
H56 H -0.00566 0.5156 0.82548 0.0
C57 C 0.86382 0.3231 0.0608 0.0
H58 H 0.00594 0.38094 0.82622 0.0
C59 C 0.85791 0.40123 0.06088 0.0
C60 C 0.90497 0.47202 0.97653 0.0
H61 H 0.82739 0.2702 0.12737 0.0
H62 H 0.81616 0.40598 0.12678 0.0
C63 C 0.95638 0.46187 0.8908 0.0
C64 C 0.52303 0.94755 0.88293 0.0
C65 C 0.60273 0.00063 0.96719 0.0
H66 H 0.38421 0.90995 0.82242 0.0
C67 C 0.60351 0.06159 0.05406 0.0
H68 H 0.51862 0.89807 0.81645 0.0
C69 C 0.52554 0.06755 0.05813 0.0
C70 C 0.4451 0.01281 0.9753 0.0
H71 H 0.66397 0.10401 0.11966 0.0
H72 H 0.52836 0.11524 0.12603 0.0
C73 C 0.44539 -0.04626 0.88678 0.0
C74 C 0.39229 0.42214 0.88729 0.0
C75 C 0.35749 0.38063 -0.00311 0.0
H76 H 0.50803 0.54017 0.79865 0.0
C77 C 0.41067 0.43194 0.10412 0.0
H78 H 0.35235 0.38439 0.80327 0.0
C79 C 0.49978 0.52112 0.10147 0.0
C80 C 0.53693 0.5602 -0.00844 0.0
H81 H 0.38515 0.4018 0.18993 0.0
H82 H 0.54094 0.55771 0.18532 0.0
C83 C 0.48136 0.51128 0.88464 0.0
C84 C 0.06195 0.00597 0.56634 0.0
C85 C -0.01867 0.92587 0.61574 0.0
H86 H 0.12908 0.07457 0.40728 0.0
C87 C 0.90773 0.84907 0.53939 0.0
H88 H 0.12015 0.06614 0.62289 0.0
C89 C 0.91284 0.85398 0.41576 0.0
C90 C -0.00833 0.93576 0.36629 0.0
H91 H 0.845 0.78605 0.57483 0.0
H92 H 0.85385 0.79456 0.35913 0.0
C93 C 0.0671 0.01084 0.44273 0.0
loop_
_geom_bond_atom_site_label_1
_geom_bond_atom_site_label_2
_geom_bond_distance
_geom_bond_site_symmetry_2
_ccdc_geom_bond_type
Cd0 N3 2.334 . S
Cd0 N29 2.304 . S
Cd0 O36 2.268 1_554 S
Cd0 O39 2.273 . S
Cd0 O40 2.417 1_554 S
Cd0 O41 2.330 . S
Cd1 N16 2.304 . S
Cd1 N20 2.334 . S
Cd1 O37 2.273 . S
Cd1 O38 2.268 1_556 S
Cd1 O42 2.417 1_556 S
Cd1 O43 2.330 . S
C2 N3 1.332 . S
C2 C6 1.381 . S
C2 H8 0.931 . S
N3 Cd0 2.334 . S
N3 C2 1.332 . S
N3 C7 1.328 1_554 S
C4 C5 1.396 1_556 S
C4 C7 1.378 1_655 S
C4 H46 0.931 . S
C5 C4 1.396 1_554 S
C5 C6 1.382 1_655 S
C6 C2 1.381 . S
C6 C5 1.382 1_455 S
C6 H47 0.930 . S
C7 N3 1.328 1_556 S
C7 C4 1.378 1_455 S
C7 H9 0.930 . S
H8 C2 0.931 . S
H9 C7 0.930 . S
C10 O36 1.238 1_665 S
C10 O37 1.253 . S
C11 C12 1.379 . S
C11 N16 1.337 . S
C11 H17 0.929 . S
C12 C11 1.379 . S
C12 C13 1.380 1_655 S
C12 H48 0.929 . S
C13 C12 1.380 1_455 S
C13 C14 1.399 1_556 S
C14 C13 1.399 1_554 S
C14 C15 1.376 1_455 S
C14 H49 0.931 . S
C15 C14 1.376 1_655 S
C15 N16 1.338 1_554 S
C15 H18 0.930 . S
N16 Cd1 2.304 . S
N16 C11 1.337 . S
N16 C15 1.338 1_556 S
H17 C11 0.929 . S
H18 C15 0.930 . S
C19 N20 1.332 . S
C19 C23 1.381 . S
C19 H25 0.931 . S
N20 Cd1 2.334 . S
N20 C19 1.332 . S
N20 C24 1.328 1_556 S
C21 C22 1.396 1_554 S
C21 C24 1.378 1_545 S
C21 H50 0.931 . S
C22 C21 1.396 1_556 S
C22 C23 1.382 1_545 S
C23 C19 1.381 . S
C23 C22 1.382 1_565 S
C23 H51 0.930 . S
C24 N20 1.328 1_554 S
C24 C21 1.378 1_565 S
C24 H26 0.930 . S
H25 C19 0.931 . S
H26 C24 0.930 . S
C27 O38 1.238 1_445 S
C27 O39 1.253 . S
C28 O40 1.239 . S
C28 O41 1.230 1_556 S
N29 Cd0 2.304 . S
N29 C30 1.337 . S
N29 C34 1.338 1_554 S
C30 N29 1.337 . S
C30 C31 1.379 . S
C30 H44 0.929 . S
C31 C30 1.379 . S
C31 C32 1.380 1_545 S
C31 H52 0.929 . S
C32 C31 1.380 1_565 S
C32 C33 1.399 1_554 S
C33 C32 1.399 1_556 S
C33 C34 1.376 1_565 S
C33 H53 0.931 . S
C34 N29 1.338 1_556 S
C34 C33 1.376 1_545 S
C34 H45 0.930 . S
C35 O42 1.239 . S
C35 O43 1.230 1_554 S
O36 Cd0 2.268 1_556 S
O36 C10 1.238 1_445 S
O37 Cd1 2.273 . S
O37 C10 1.253 . S
O38 Cd1 2.268 1_554 S
O38 C27 1.238 1_665 S
O39 Cd0 2.273 . S
O39 C27 1.253 . S
O40 Cd0 2.417 1_556 S
O40 C28 1.239 . S
O41 Cd0 2.330 . S
O41 C28 1.230 1_554 S
O42 Cd1 2.417 1_554 S
O42 C35 1.239 . S
O43 Cd1 2.330 . S
O43 C35 1.230 1_556 S
H44 C30 0.929 . S
H45 C34 0.930 . S
H46 C4 0.931 . S
H47 C6 0.930 . S
H48 C12 0.929 . S
H49 C14 0.931 . S
H50 C21 0.931 . S
H51 C23 0.930 . S
H52 C31 0.929 . S
H53 C33 0.931 . S
C54 C55 1.387 1_556 S
C54 H58 0.950 . S
C54 C63 1.390 1_655 S
C55 C54 1.387 1_554 S
C55 C57 1.387 . S
H56 C63 0.950 . S
C57 C55 1.387 . S
C57 C59 1.390 1_655 S
C57 H61 0.950 . S
H58 C54 0.950 . S
C59 C57 1.390 1_455 S
C59 C60 1.387 1_554 S
C59 H62 0.950 . S
C60 C59 1.387 1_556 S
C60 C63 1.387 . S
H61 C57 0.950 . S
H62 C59 0.950 . S
C63 C54 1.390 1_455 S
C63 H56 0.950 . S
C63 C60 1.387 . S
C64 C65 1.387 1_565 S
C64 H68 0.950 . S
C64 C73 1.390 . S
C65 C64 1.387 1_545 S
C65 C67 1.387 1_556 S
H66 C73 0.950 . S
C67 C65 1.387 1_554 S
C67 C69 1.390 . S
C67 H71 0.950 . S
H68 C64 0.950 . S
C69 C67 1.390 . S
C69 C70 1.387 1_545 S
C69 H72 0.950 . S
C70 C69 1.387 1_565 S
C70 C73 1.387 1_554 S
H71 C67 0.950 . S
H72 C69 0.950 . S
C73 C64 1.390 . S
C73 H66 0.950 . S
C73 C70 1.387 1_556 S
C74 C75 1.387 . S
C74 H78 0.950 . S
C74 C83 1.390 . S
C75 C74 1.387 . S
C75 C77 1.387 1_556 S
H76 C83 0.950 . S
C77 C75 1.387 1_554 S
C77 C79 1.390 . S
C77 H81 0.950 . S
H78 C74 0.950 . S
C79 C77 1.390 . S
C79 C80 1.387 . S
C79 H82 0.950 . S
C80 C79 1.387 . S
C80 C83 1.387 1_554 S
H81 C77 0.950 . S
H82 C79 0.950 . S
C83 C74 1.390 . S
C83 H76 0.950 . S
C83 C80 1.387 1_556 S
C84 C85 1.389 . S
C84 H88 0.950 . S
C84 C93 1.390 . S
C85 C84 1.389 . S
C85 C87 1.386 1_445 S
H86 C93 0.950 . S
C87 C85 1.386 1_665 S
C87 C89 1.390 . S
C87 H91 0.950 . S
H88 C84 0.950 . S
C89 C87 1.390 . S
C89 C90 1.390 . S
C89 H92 0.950 . S
C90 C89 1.390 . S
C90 C93 1.385 1_665 S
H91 C87 0.950 . S
H92 C89 0.950 . S
C93 C84 1.390 . S
C93 H86 0.950 . S
C93 C90 1.385 1_445 S
C55 C5 1.806 . S
C60 C13 1.805 . S
C65 C22 1.810 . S
C70 C32 1.808 . S
C75 C28 0.747 . S
C80 C35 0.747 . S
C85 C10 1.479 1_445 S
C90 C27 1.480 1_665 S
