# Generated by pormake.
# Topology gis, (4)-cn, num edge types: 1
# Building blocks:
#     Node 0, Type 0, BuildingBlock: NAHDIM_clean_sbu_0, # of connection points: 4
#     Node 1, Type 0, BuildingBlock: NAHDIM_clean_sbu_0, # of connection points: 4
#     Node 2, Type 0, BuildingBlock: NAHDIM_clean_sbu_0, # of connection points: 4
#     Node 3, Type 0, BuildingBlock: NAHDIM_clean_sbu_0, # of connection points: 4
#     Node 4, Type 0, BuildingBlock: NAHDIM_clean_sbu_0, # of connection points: 4
#     Node 5, Type 0, BuildingBlock: NAHDIM_clean_sbu_0, # of connection points: 4
#     Node 6, Type 0, BuildingBlock: NAHDIM_clean_sbu_0, # of connection points: 4
#     Node 7, Type 0, BuildingBlock: NAHDIM_clean_sbu_0, # of connection points: 4
#     Node 8, Type 0, BuildingBlock: NAHDIM_clean_sbu_0, # of connection points: 4
#     Node 9, Type 0, BuildingBlock: NAHDIM_clean_sbu_0, # of connection points: 4
#     Node 10, Type 0, BuildingBlock: NAHDIM_clean_sbu_0, # of connection points: 4
#     Node 11, Type 0, BuildingBlock: NAHDIM_clean_sbu_0, # of connection points: 4
#     Node 12, Type 0, BuildingBlock: NAHDIM_clean_sbu_0, # of connection points: 4
#     Node 13, Type 0, BuildingBlock: NAHDIM_clean_sbu_0, # of connection points: 4
#     Node 14, Type 0, BuildingBlock: NAHDIM_clean_sbu_0, # of connection points: 4
#     Node 15, Type 0, BuildingBlock: NAHDIM_clean_sbu_0, # of connection points: 4
#     Edge 16, Type (0, 0), None
#     Edge 17, Type (0, 0), None
#     Edge 18, Type (0, 0), None
#     Edge 19, Type (0, 0), None
#     Edge 20, Type (0, 0), None
#     Edge 21, Type (0, 0), None
#     Edge 22, Type (0, 0), None
#     Edge 23, Type (0, 0), None
#     Edge 24, Type (0, 0), None
#     Edge 25, Type (0, 0), None
#     Edge 26, Type (0, 0), None
#     Edge 27, Type (0, 0), None
#     Edge 28, Type (0, 0), None
#     Edge 29, Type (0, 0), None
#     Edge 30, Type (0, 0), None
#     Edge 31, Type (0, 0), None
#     Edge 32, Type (0, 0), None
#     Edge 33, Type (0, 0), None
#     Edge 34, Type (0, 0), None
#     Edge 35, Type (0, 0), None
#     Edge 36, Type (0, 0), None
#     Edge 37, Type (0, 0), None
#     Edge 38, Type (0, 0), None
#     Edge 39, Type (0, 0), None
#     Edge 40, Type (0, 0), None
#     Edge 41, Type (0, 0), None
#     Edge 42, Type (0, 0), None
#     Edge 43, Type (0, 0), None
#     Edge 44, Type (0, 0), None
#     Edge 45, Type (0, 0), None
#     Edge 46, Type (0, 0), None
#     Edge 47, Type (0, 0), None
# Relax obj value: 0.161
# Max RMSD: 0.166
# Mean RMSD: 0.151
data_MOF--net-gis--node1-NAHDIM_clean_sbu_0--edge1-none
_symmetry_space_group_name_H-M    P1
_symmetry_Int_Tables_number       1
_symmetry_cell_setting            triclinic
loop_
_symmetry_equiv_pos_as_xyz
'x, y, z'
_cell_length_a     22.107761
_cell_length_b     20.549263
_cell_length_c     22.118051
_cell_angle_alpha  92.732553
_cell_angle_beta   93.369492
_cell_angle_gamma 90.641111
loop_
_atom_site_label
_atom_site_type_symbol
_atom_site_fract_x
_atom_site_fract_y
_atom_site_fract_z
_atom_type_partial_charge
C0 C 0.22996 0.51428 0.21661 0.0
O1 O 0.23263 0.46903 0.17294 0.0
O2 O 0.18509 0.52354 0.06304 0.0
Zn3 Zn 0.1607 0.58855 0.12758 0.0
O4 O 0.18778 0.68058 0.11196 0.0
C5 C 0.04133 0.53021 0.12574 0.0
O6 O 0.0717 0.47605 0.1191 0.0
O7 O 0.20083 0.56622 0.20741 0.0
C8 C 0.15573 0.72063 0.08239 0.0
O9 O 0.10245 0.70214 0.05771 0.0
C10 C 0.18379 0.53757 0.00782 0.0
O11 O 0.16913 0.59659 -0.00732 0.0
O12 O 0.06965 0.58456 0.1312 0.0
C13 C 0.71896 0.93058 0.25576 0.0
O14 O 0.75315 0.93625 0.30639 0.0
O15 O 0.66279 0.97626 0.40097 0.0
Zn16 Zn 0.62921 0.9073 0.33887 0.0
O17 O 0.64922 0.81495 0.3596 0.0
C18 C 0.51051 0.9671 0.3358 0.0
O19 O 0.54176 0.02153 0.34672 0.0
O20 O 0.66247 0.9204 0.25795 0.0
C21 C 0.61763 0.78396 0.39516 0.0
O22 O 0.57525 0.81453 0.42399 0.0
C23 C 0.68631 0.96552 0.4533 0.0
O24 O 0.69191 0.90534 0.47005 0.0
O25 O 0.53801 0.91338 0.33044 0.0
C26 C 0.30431 0.46649 0.5332 0.0
O27 O 0.29989 0.5113 0.57703 0.0
O28 O 0.28555 0.43136 0.68785 0.0
Zn29 Zn 0.34851 0.39755 0.63254 0.0
O30 O 0.43292 0.43761 0.6435 0.0
C31 C 0.34304 0.25594 0.61171 0.0
O32 O 0.317 0.26688 0.55834 0.0
O33 O 0.32137 0.40982 0.54612 0.0
C34 C 0.4719 0.4149 0.68117 0.0
O35 O 0.45408 0.3743 0.72084 0.0
C36 C 0.2972 0.46572 0.73633 0.0
O37 O 0.35312 0.48537 0.75078 0.0
O38 O 0.35863 0.30318 0.64842 0.0
C39 C 0.79173 0.98071 0.95042 0.0
O40 O 0.7752 0.95423 0.89671 0.0
O41 O 0.78631 0.06543 0.80634 0.0
Zn42 Zn 0.84302 0.08157 0.88115 0.0
O43 O 0.92578 0.04729 0.86656 0.0
C44 C 0.82101 0.22088 0.87477 0.0
O45 O 0.77236 0.20154 0.84154 0.0
O46 O 0.81722 0.0366 0.95461 0.0
C47 C 0.9603 0.07895 0.83442 0.0
O48 O 0.9394 0.13012 0.807 0.0
C49 C 0.79612 0.02286 0.76455 0.0
O50 O 0.84293 0.98446 0.77064 0.0
O51 O 0.85543 0.17883 0.89856 0.0
C52 C 0.25116 0.47156 0.78133 0.0
O53 O 0.26758 0.49251 0.83691 0.0
O54 O 0.16817 0.49668 0.9071 0.0
Zn55 Zn 0.1466 0.42909 0.83996 0.0
O56 O 0.16481 0.33628 0.86163 0.0
C57 C 0.02445 0.448 0.86721 0.0
O58 O 0.05375 0.46266 0.91943 0.0
O59 O 0.19868 0.44599 0.76988 0.0
C60 C 0.13613 0.30439 0.89892 0.0
O61 O 0.0954 0.33367 0.93095 0.0
C62 C 0.187 0.48547 0.9608 0.0
O63 O 0.19813 0.42551 0.97567 0.0
O64 O 0.05447 0.43301 0.82118 0.0
C65 C 0.747 0.92598 0.19744 0.0
O66 O 0.71399 0.91082 0.14733 0.0
O67 O 0.8235 0.9601 0.05156 0.0
Zn68 Zn 0.84548 0.90252 0.12091 0.0
O69 O 0.82776 0.80752 0.09949 0.0
C70 C 0.97119 0.94611 0.11777 0.0
O71 O 0.94924 0.99142 0.08314 0.0
O72 O 0.80427 0.92798 0.19644 0.0
C73 C 0.86211 0.77767 0.06365 0.0
O74 O 0.90278 0.81089 0.03647 0.0
C75 C 0.79209 0.94109 0.00389 0.0
O76 O 0.76891 0.88185 -0.0007 0.0
O77 O 0.93549 0.90619 0.14006 0.0
C78 C 0.30368 0.48555 0.47037 0.0
O79 O 0.31847 0.44322 0.42754 0.0
O80 O 0.2687 0.5582 0.3112 0.0
Zn81 Zn 0.32969 0.57395 0.38085 0.0
O82 O 0.40876 0.53041 0.36668 0.0
C83 C 0.31188 0.71164 0.3685 0.0
O84 O 0.25753 0.69307 0.34682 0.0
O85 O 0.3013 0.54555 0.45952 0.0
C86 C 0.44367 0.55674 0.33111 0.0
O87 O 0.42412 0.60592 0.29993 0.0
C88 C 0.26798 0.51044 0.27268 0.0
O89 O 0.30736 0.46353 0.27899 0.0
O90 O 0.34903 0.66973 0.38786 0.0
C91 C 0.7595 0.02182 0.70691 0.0
O92 O 0.77392 0.983 0.66128 0.0
O93 O 0.69476 0.00894 0.55433 0.0
Zn94 Zn 0.67326 0.07766 0.61838 0.0
O95 O 0.69466 0.17062 0.59796 0.0
C96 C 0.54841 0.05912 0.57871 0.0
O97 O 0.57236 0.0564 0.52586 0.0
O98 O 0.71779 0.0632 0.69918 0.0
C99 C 0.6555 0.21144 0.57993 0.0
O100 O 0.5989 0.19265 0.56876 0.0
C101 C 0.6952 0.02016 0.49835 0.0
O102 O 0.68892 0.08016 0.4812 0.0
O103 O 0.58244 0.06879 0.6268 0.0
C104 C 0.74562 0.48495 0.74783 0.0
O105 O 0.7384 0.52576 0.79425 0.0
O106 O 0.8124 0.48771 0.89698 0.0
Zn107 Zn 0.83347 0.4222 0.82959 0.0
O108 O 0.80868 0.32998 0.84694 0.0
C109 C 0.95795 0.44541 0.86587 0.0
O110 O 0.93196 0.45874 0.91666 0.0
O111 O 0.78509 0.4406 0.75199 0.0
C112 C 0.84017 0.28969 0.8767 0.0
O113 O 0.89314 0.30785 0.90234 0.0
C114 C 0.80704 0.4741 0.95194 0.0
O115 O 0.81098 0.41331 0.96734 0.0
O116 O 0.92514 0.42732 0.81874 0.0
C117 C 0.27298 0.05346 0.70048 0.0
O118 O 0.24298 0.06897 0.6503 0.0
O119 O 0.3395 0.9845 0.5558 0.0
Zn120 Zn 0.36593 0.05321 0.62015 0.0
O121 O 0.3424 0.14145 0.59261 0.0
C122 C 0.48247 0.05586 0.58049 0.0
O123 O 0.44898 0.0568 0.52953 0.0
O124 O 0.32884 0.0404 0.6993 0.0
C125 C 0.35626 0.18959 0.62888 0.0
O126 O 0.38413 0.1796 0.68165 0.0
C127 C 0.31511 -0.0001 0.50507 0.0
O128 O 0.3017 0.06088 0.49616 0.0
O129 O 0.4569 0.05339 0.63023 0.0
C130 C 0.73573 0.5626 0.26115 0.0
O131 O 0.76865 0.58224 0.31011 0.0
O132 O 0.65133 0.53202 0.40978 0.0
Zn133 Zn 0.63456 0.58646 0.33691 0.0
O134 O 0.65229 0.682 0.35693 0.0
C135 C 0.50851 0.54289 0.33571 0.0
O136 O 0.5292 0.4978 0.37128 0.0
O137 O 0.67857 0.55796 0.26307 0.0
C138 C 0.61982 0.71253 0.39417 0.0
O139 O 0.58006 0.68003 0.42318 0.0
C140 C 0.6872 0.54907 0.4549 0.0
O141 O 0.71952 0.60296 0.45399 0.0
O142 O 0.54512 0.58274 0.31453 0.0
C143 C 0.20635 0.02704 0.00329 0.0
O144 O 0.22496 0.05223 0.05692 0.0
O145 O 0.21075 0.94416 0.14648 0.0
Zn146 Zn 0.15306 0.92824 0.07292 0.0
O147 O 0.07068 0.96345 0.0878 0.0
C148 C 0.17487 0.78935 0.08272 0.0
O149 O 0.2235 0.80946 0.11554 0.0
O150 O 0.17878 0.97228 -0.00093 0.0
C151 C 0.03623 0.93315 0.12107 0.0
O152 O 0.05702 0.88274 0.14972 0.0
C153 C 0.20107 0.98339 0.19092 0.0
O154 O 0.15291 0.02019 0.18882 0.0
O155 O 0.14057 0.8307 0.05754 0.0
C156 C 0.76326 0.55662 0.20236 0.0
O157 O 0.72863 0.54804 0.15224 0.0
O158 O 0.82521 0.51432 0.0537 0.0
Zn159 Zn 0.85404 0.58313 0.11834 0.0
O160 O 0.83257 0.6748 0.09696 0.0
C161 C 0.97485 0.52817 0.12354 0.0
O162 O 0.94553 0.47237 0.11396 0.0
O163 O 0.81933 0.56903 0.19912 0.0
C164 C 0.86558 0.70645 0.06315 0.0
O165 O 0.91025 0.67693 0.03701 0.0
C166 C 0.81077 0.52705 -0.00094 0.0
O167 O 0.80995 0.58784 -0.01662 0.0
O168 O 0.94544 0.58074 0.12803 0.0
C169 C 0.24424 0.06054 0.75828 0.0
O170 O 0.27522 0.05093 0.80948 0.0
O171 O 0.17247 0.0505 0.90351 0.0
Zn172 Zn 0.15116 0.10937 0.83508 0.0
O173 O 0.1704 0.20386 0.85747 0.0
C174 C 0.02535 0.06618 0.83743 0.0
O175 O 0.04727 0.01907 0.8699 0.0
O176 O 0.19125 0.08346 0.75902 0.0
C177 C 0.13909 0.23306 0.89654 0.0
O178 O 0.10055 0.19939 0.92601 0.0
C179 C 0.20618 0.06729 0.95029 0.0
O180 O 0.2322 0.1252 0.95469 0.0
O181 O 0.06107 0.10726 0.81679 0.0
C182 C 0.68703 0.51255 0.5104 0.0
O183 O 0.72236 0.53118 0.55799 0.0
O184 O 0.70192 0.43629 0.65612 0.0
Zn185 Zn 0.63523 0.41911 0.5906 0.0
O186 O 0.55307 0.44271 0.62107 0.0
C187 C 0.67084 0.28126 0.58142 0.0
O188 O 0.72504 0.3021 0.6015 0.0
O189 O 0.64863 0.4666 0.51417 0.0
C190 C 0.53671 0.41943 0.66993 0.0
O191 O 0.57579 0.38633 0.70281 0.0
C192 C 0.70208 0.48379 0.69507 0.0
O193 O 0.65847 0.52658 0.69223 0.0
O194 O 0.62884 0.32189 0.57179 0.0
C195 C 0.23844 0.97969 0.24763 0.0
O196 O 0.2234 0.01243 0.2968 0.0
O197 O 0.30333 0.97163 0.40011 0.0
Zn198 Zn 0.32305 0.91244 0.32912 0.0
O199 O 0.29588 0.82079 0.34262 0.0
C200 C 0.44406 0.96775 0.33339 0.0
O201 O 0.41566 0.02223 0.34528 0.0
O202 O 0.28024 0.93786 0.251 0.0
C203 C 0.33186 0.77932 0.36492 0.0
O204 O 0.38822 0.79627 0.38081 0.0
C205 C 0.31387 0.95264 0.4535 0.0
O206 O 0.33383 0.89357 0.46133 0.0
O207 O 0.41387 0.91497 0.32309 0.0
loop_
_geom_bond_atom_site_label_1
_geom_bond_atom_site_label_2
_geom_bond_distance
_geom_bond_site_symmetry_2
_ccdc_geom_bond_type
C0 O1 1.160 . S
C0 O7 1.185 . S
O1 C0 1.160 . S
O2 Zn3 1.899 . S
O2 C10 1.284 . S
Zn3 O2 1.899 . S
Zn3 O4 2.032 . S
Zn3 O7 2.086 . S
Zn3 O12 1.977 . S
O4 Zn3 2.032 . S
O4 C8 1.278 . S
C5 O6 1.203 . S
C5 O12 1.267 . S
O6 C5 1.203 . S
O7 C0 1.185 . S
O7 Zn3 2.086 . S
C8 O4 1.278 . S
C8 O9 1.211 . S
O9 C8 1.211 . S
C10 O2 1.284 . S
C10 O11 1.276 . S
O11 C10 1.276 . S
O12 Zn3 1.977 . S
O12 C5 1.267 . S
C13 O14 1.160 . S
C13 O20 1.185 . S
O14 C13 1.160 . S
O15 Zn16 1.899 . S
O15 C23 1.284 . S
Zn16 O15 1.899 . S
Zn16 O17 2.032 . S
Zn16 O20 2.086 . S
Zn16 O25 1.977 . S
O17 Zn16 2.032 . S
O17 C21 1.278 . S
C18 O19 1.203 . S
C18 O25 1.267 . S
O19 C18 1.203 . S
O20 C13 1.185 . S
O20 Zn16 2.086 . S
C21 O17 1.278 . S
C21 O22 1.211 . S
O22 C21 1.211 . S
C23 O15 1.284 . S
C23 O24 1.273 . S
O24 C23 1.273 . S
O25 Zn16 1.977 . S
O25 C18 1.267 . S
C26 O27 1.160 . S
C26 O33 1.185 . S
O27 C26 1.160 . S
O28 Zn29 1.899 . S
O28 C36 1.284 . S
Zn29 O28 1.899 . S
Zn29 O30 2.032 . S
Zn29 O33 2.086 . S
Zn29 O38 1.977 . S
O30 Zn29 2.032 . S
O30 C34 1.278 . S
C31 O32 1.203 . S
C31 O38 1.267 . S
O32 C31 1.203 . S
O33 C26 1.185 . S
O33 Zn29 2.086 . S
C34 O30 1.278 . S
C34 O35 1.211 . S
O35 C34 1.211 . S
C36 O28 1.284 . S
C36 O37 1.273 . S
O37 C36 1.273 . S
O38 Zn29 1.977 . S
O38 C31 1.267 . S
C39 O40 1.160 1_545 S
C39 O46 1.185 . S
O40 C39 1.160 1_565 S
O41 Zn42 1.899 . S
O41 C49 1.284 . S
Zn42 O41 1.899 . S
Zn42 O43 2.032 . S
Zn42 O46 2.086 . S
Zn42 O51 1.977 . S
O43 Zn42 2.032 . S
O43 C47 1.278 . S
C44 O45 1.203 . S
C44 O51 1.267 . S
O45 C44 1.203 . S
O46 C39 1.185 . S
O46 Zn42 2.086 . S
C47 O43 1.278 . S
C47 O48 1.211 . S
O48 C47 1.211 . S
C49 O41 1.284 . S
C49 O50 1.273 . S
O50 C49 1.273 . S
O51 Zn42 1.977 . S
O51 C44 1.267 . S
C52 O53 1.160 . S
C52 O59 1.185 . S
O53 C52 1.160 . S
O54 Zn55 1.899 . S
O54 C62 1.284 . S
Zn55 O54 1.899 . S
Zn55 O56 2.032 . S
Zn55 O59 2.086 . S
Zn55 O64 1.977 . S
O56 Zn55 2.032 . S
O56 C60 1.278 . S
C57 O58 1.203 . S
C57 O64 1.267 . S
O58 C57 1.203 . S
O59 C52 1.185 . S
O59 Zn55 2.086 . S
C60 O56 1.278 . S
C60 O61 1.211 . S
O61 C60 1.211 . S
C62 O54 1.284 . S
C62 O63 1.277 . S
O63 C62 1.277 . S
O64 Zn55 1.977 . S
O64 C57 1.267 . S
C65 O66 1.160 . S
C65 O72 1.185 . S
O66 C65 1.160 . S
O67 Zn68 1.899 . S
O67 C75 1.284 . S
Zn68 O67 1.899 . S
Zn68 O69 2.032 . S
Zn68 O72 2.086 . S
Zn68 O77 1.977 . S
O69 Zn68 2.032 . S
O69 C73 1.278 . S
C70 O71 1.203 . S
C70 O77 1.267 . S
O71 C70 1.203 . S
O72 C65 1.185 . S
O72 Zn68 2.086 . S
C73 O69 1.278 . S
C73 O74 1.211 . S
O74 C73 1.211 . S
C75 O67 1.284 . S
C75 O76 1.273 . S
O76 C75 1.273 . S
O77 Zn68 1.977 . S
O77 C70 1.267 . S
C78 O79 1.160 . S
C78 O85 1.185 . S
O79 C78 1.160 . S
O80 Zn81 1.899 . S
O80 C88 1.284 . S
Zn81 O80 1.899 . S
Zn81 O82 2.032 . S
Zn81 O85 2.086 . S
Zn81 O90 1.977 . S
O82 Zn81 2.032 . S
O82 C86 1.278 . S
C83 O84 1.203 . S
C83 O90 1.267 . S
O84 C83 1.203 . S
O85 C78 1.185 . S
O85 Zn81 2.086 . S
C86 O82 1.278 . S
C86 O87 1.211 . S
O87 C86 1.211 . S
C88 O80 1.284 . S
C88 O89 1.273 . S
O89 C88 1.273 . S
O90 Zn81 1.977 . S
O90 C83 1.267 . S
C91 O92 1.160 . S
C91 O98 1.185 . S
O92 C91 1.160 . S
O93 Zn94 1.887 1_565 S
O93 C101 1.279 1_565 S
Zn94 O93 1.887 1_545 S
Zn94 O95 2.032 . S
Zn94 O98 2.086 . S
Zn94 O103 1.977 . S
O95 Zn94 2.032 . S
O95 C99 1.278 . S
C96 O97 1.203 . S
C96 O103 1.267 . S
O97 C96 1.203 . S
O98 C91 1.185 . S
O98 Zn94 2.086 . S
C99 O95 1.278 . S
C99 O100 1.211 . S
O100 C99 1.211 . S
C101 O93 1.279 1_545 S
C101 O102 1.273 . S
O102 C101 1.273 . S
O103 Zn94 1.977 . S
O103 C96 1.267 . S
C104 O105 1.160 . S
C104 O111 1.185 . S
O105 C104 1.160 . S
O106 Zn107 1.899 . S
O106 C114 1.284 . S
Zn107 O106 1.899 . S
Zn107 O108 2.032 . S
Zn107 O111 2.086 . S
Zn107 O116 1.977 . S
O108 Zn107 2.032 . S
O108 C112 1.278 . S
C109 O110 1.203 . S
C109 O116 1.267 . S
O110 C109 1.203 . S
O111 C104 1.185 . S
O111 Zn107 2.086 . S
C112 O108 1.278 . S
C112 O113 1.211 . S
O113 C112 1.211 . S
C114 O106 1.284 . S
C114 O115 1.273 . S
O115 C114 1.273 . S
O116 Zn107 1.977 . S
O116 C109 1.267 . S
C117 O118 1.160 . S
C117 O124 1.185 . S
O118 C117 1.160 . S
O119 Zn120 1.910 . S
O119 C127 1.290 . S
Zn120 O119 1.910 . S
Zn120 O121 2.032 . S
Zn120 O124 2.086 . S
Zn120 O129 1.977 . S
O121 Zn120 2.032 . S
O121 C125 1.278 . S
C122 O123 1.203 . S
C122 O129 1.267 . S
O123 C122 1.203 . S
O124 C117 1.185 . S
O124 Zn120 2.086 . S
C125 O121 1.278 . S
C125 O126 1.211 . S
O126 C125 1.211 . S
C127 O119 1.290 . S
C127 O128 1.273 . S
O128 C127 1.273 . S
O129 Zn120 1.977 . S
O129 C122 1.267 . S
C130 O131 1.160 . S
C130 O137 1.185 . S
O131 C130 1.160 . S
O132 Zn133 1.899 . S
O132 C140 1.284 . S
Zn133 O132 1.899 . S
Zn133 O134 2.032 . S
Zn133 O137 2.086 . S
Zn133 O142 1.977 . S
O134 Zn133 2.032 . S
O134 C138 1.278 . S
C135 O136 1.203 . S
C135 O142 1.267 . S
O136 C135 1.203 . S
O137 C130 1.185 . S
O137 Zn133 2.086 . S
C138 O134 1.278 . S
C138 O139 1.211 . S
O139 C138 1.211 . S
C140 O132 1.284 . S
C140 O141 1.273 . S
O141 C140 1.273 . S
O142 Zn133 1.977 . S
O142 C135 1.267 . S
C143 O144 1.167 . S
C143 O150 1.173 1_545 S
O144 C143 1.167 . S
O145 Zn146 1.899 . S
O145 C153 1.284 . S
Zn146 O145 1.899 . S
Zn146 O147 2.032 . S
Zn146 O150 2.086 . S
Zn146 O155 1.977 . S
O147 Zn146 2.032 . S
O147 C151 1.278 . S
C148 O149 1.203 . S
C148 O155 1.267 . S
O149 C148 1.203 . S
O150 C143 1.173 1_565 S
O150 Zn146 2.086 . S
C151 O147 1.278 . S
C151 O152 1.211 . S
O152 C151 1.211 . S
C153 O145 1.284 . S
C153 O154 1.273 . S
O154 C153 1.273 . S
O155 Zn146 1.977 . S
O155 C148 1.267 . S
C156 O157 1.160 . S
C156 O163 1.185 . S
O157 C156 1.160 . S
O158 Zn159 1.899 . S
O158 C166 1.284 . S
Zn159 O158 1.899 . S
Zn159 O160 2.032 . S
Zn159 O163 2.086 . S
Zn159 O168 1.977 . S
O160 Zn159 2.032 . S
O160 C164 1.278 . S
C161 O162 1.203 . S
C161 O168 1.267 . S
O162 C161 1.203 . S
O163 C156 1.185 . S
O163 Zn159 2.086 . S
C164 O160 1.278 . S
C164 O165 1.211 . S
O165 C164 1.211 . S
C166 O158 1.284 . S
C166 O167 1.273 1_554 S
O167 C166 1.273 1_556 S
O168 Zn159 1.977 . S
O168 C161 1.267 . S
C169 O170 1.160 . S
C169 O176 1.185 . S
O170 C169 1.160 . S
O171 Zn172 1.899 . S
O171 C179 1.284 . S
Zn172 O171 1.899 . S
Zn172 O173 2.032 . S
Zn172 O176 2.086 . S
Zn172 O181 1.977 . S
O173 Zn172 2.032 . S
O173 C177 1.278 . S
C174 O175 1.203 . S
C174 O181 1.267 . S
O175 C174 1.203 . S
O176 C169 1.185 . S
O176 Zn172 2.086 . S
C177 O173 1.278 . S
C177 O178 1.211 . S
O178 C177 1.211 . S
C179 O171 1.284 . S
C179 O180 1.273 . S
O180 C179 1.273 . S
O181 Zn172 1.977 . S
O181 C174 1.267 . S
C182 O183 1.160 . S
C182 O189 1.185 . S
O183 C182 1.160 . S
O184 Zn185 1.899 . S
O184 C192 1.284 . S
Zn185 O184 1.899 . S
Zn185 O186 2.032 . S
Zn185 O189 2.086 . S
Zn185 O194 1.977 . S
O186 Zn185 2.032 . S
O186 C190 1.278 . S
C187 O188 1.203 . S
C187 O194 1.267 . S
O188 C187 1.203 . S
O189 C182 1.185 . S
O189 Zn185 2.086 . S
C190 O186 1.278 . S
C190 O191 1.211 . S
O191 C190 1.211 . S
C192 O184 1.284 . S
C192 O193 1.273 . S
O193 C192 1.273 . S
O194 Zn185 1.977 . S
O194 C187 1.267 . S
C195 O196 1.160 . S
C195 O202 1.185 . S
O196 C195 1.160 . S
O197 Zn198 1.899 1_545 S
O197 C205 1.284 1_545 S
Zn198 O197 1.899 1_565 S
Zn198 O199 2.032 . S
Zn198 O202 2.086 . S
Zn198 O207 1.977 . S
O199 Zn198 2.032 . S
O199 C203 1.278 . S
C200 O201 1.203 . S
C200 O207 1.267 . S
O201 C200 1.203 . S
O202 C195 1.185 . S
O202 Zn198 2.086 . S
C203 O199 1.278 . S
C203 O204 1.211 . S
O204 C203 1.211 . S
C205 O197 1.284 1_565 S
C205 O206 1.273 . S
O206 C205 1.273 . S
O207 Zn198 1.977 . S
O207 C200 1.267 . S
C148 C8 1.382 . S
C200 C18 1.291 . S
C31 C125 1.347 . S
C174 C47 1.353 1_455 S
C60 C177 1.384 . S
C70 C151 1.357 1_655 S
C83 C203 1.301 . S
C96 C122 1.250 . S
C44 C112 1.382 . S
C138 C21 1.354 . S
C164 C73 1.361 . S
C187 C99 1.401 . S
C57 C109 1.359 1_455 S
C135 C86 1.375 . S
C190 C34 1.437 . S
C5 C161 1.292 1_455 S
C10 C62 1.251 1_554 S
C13 C65 1.337 . S
C26 C78 1.272 . S
C91 C49 1.291 . S
C114 C166 1.194 1_556 S
C169 C117 1.227 . S
C140 C182 1.377 . S
C195 C153 1.322 . S
C101 C23 1.192 1_545 S
C36 C52 1.407 . S
C39 C75 1.305 1_546 S
C0 C88 1.262 . S
C127 C205 1.103 1_545 S
C156 C130 1.363 . S
C143 C179 1.289 1_554 S
C192 C104 1.330 . S
