# Generated by pormake.
# Topology unc, (4)-cn, num edge types: 1
# Building blocks:
#     Node 0, Type 0, BuildingBlock: CEKHIL_clean_sbu_0, # of connection points: 4
#     Node 1, Type 0, BuildingBlock: CEKHIL_clean_sbu_0, # of connection points: 4
#     Node 2, Type 0, BuildingBlock: CEKHIL_clean_sbu_0, # of connection points: 4
#     Node 3, Type 0, BuildingBlock: CEKHIL_clean_sbu_0, # of connection points: 4
#     Edge 4, Type (0, 0), BuildingBlock: EZIPEK_clean_linker_0, # of connection points: 2
#     Edge 5, Type (0, 0), BuildingBlock: EZIPEK_clean_linker_0, # of connection points: 2
#     Edge 6, Type (0, 0), BuildingBlock: EZIPEK_clean_linker_0, # of connection points: 2
#     Edge 7, Type (0, 0), BuildingBlock: EZIPEK_clean_linker_0, # of connection points: 2
#     Edge 8, Type (0, 0), BuildingBlock: EZIPEK_clean_linker_0, # of connection points: 2
#     Edge 9, Type (0, 0), BuildingBlock: EZIPEK_clean_linker_0, # of connection points: 2
#     Edge 10, Type (0, 0), BuildingBlock: EZIPEK_clean_linker_0, # of connection points: 2
#     Edge 11, Type (0, 0), BuildingBlock: EZIPEK_clean_linker_0, # of connection points: 2
# Relax obj value: 0.004
# Max RMSD: 0.039
# Mean RMSD: 0.039
data_MOF--net-unc--node1-CEKHIL_clean_sbu_0--edge1-EZIPEK_clean_linker_0
_symmetry_space_group_name_H-M    P1
_symmetry_Int_Tables_number       1
_symmetry_cell_setting            triclinic
loop_
_symmetry_equiv_pos_as_xyz
'x, y, z'
_cell_length_a     21.599662
_cell_length_b     21.704142
_cell_length_c     16.108901
_cell_angle_alpha  90.040119
_cell_angle_beta   90.044784
_cell_angle_gamma 93.875652
loop_
_atom_site_label
_atom_site_type_symbol
_atom_site_fract_x
_atom_site_fract_y
_atom_site_fract_z
_atom_type_partial_charge
Co0 Co 0.01952 0.69433 0.953 0.0
O1 O 1.00486 0.76343 0.88107 0.0
O2 O 0.9454 0.73318 0.98668 0.0
C3 C 0.03696 0.62632 0.84934 0.0
O4 O 0.01583 0.62523 0.03986 0.0
Co5 Co 0.14463 0.63588 0.96103 0.0
O6 O 0.10567 0.57902 0.04492 0.0
C7 C 0.1323 0.75529 0.04272 0.0
C8 C 0.95511 0.77051 0.92428 0.0
C9 C 0.0506 0.58485 0.07014 0.0
O10 O 0.07343 0.75066 0.0285 0.0
O11 O 0.1696 0.7168 0.01536 0.0
O12 O 0.98111 0.63701 0.87206 0.0
O13 O 0.08098 0.66034 0.88466 0.0
Co14 Co 0.35497 0.03869 0.30626 0.0
O15 O 0.289 0.05939 0.38002 0.0
O16 O 0.31229 0.10716 0.26157 0.0
C17 C 0.42732 0.03373 0.40819 0.0
O18 O 0.42153 0.03259 0.21526 0.0
Co19 Co 0.41489 0.91463 0.31891 0.0
O20 O 0.475 0.94838 0.23541 0.0
C21 C 0.29257 0.91845 0.23748 0.0
C22 C 0.27822 0.10305 0.32817 0.0
C23 C 0.46582 0.99785 0.19629 0.0
O24 O 0.29568 0.97751 0.24615 0.0
O25 O 0.3336 0.88454 0.26695 0.0
O26 O 0.41469 0.08606 0.37556 0.0
O27 O 0.39302 0.9862 0.38235 0.0
Co28 Co 0.03668 0.3548 0.45316 0.0
O29 O 0.05082 0.28684 0.3792 0.0
O30 O 0.10952 0.31413 0.48756 0.0
C31 C 0.02146 0.42447 0.35093 0.0
O32 O 0.04083 0.42285 0.54159 0.0
Co33 Co 0.9128 0.41462 0.46118 0.0
O34 O 0.95246 0.47152 0.54479 0.0
C35 C 0.92233 0.29346 0.53848 0.0
C36 C 0.09967 0.27834 0.42353 0.0
C37 C 0.00703 0.46434 0.57106 0.0
O38 O 0.98137 0.29805 0.52608 0.0
O39 O 0.88574 0.33272 0.51137 0.0
O40 O 0.07681 0.41274 0.37474 0.0
O41 O 0.97654 0.39065 0.38454 0.0
Co42 Co 0.69925 0.01399 0.80785 0.0
O43 O 0.76431 0.99417 0.88375 0.0
O44 O 0.74098 0.94309 0.76832 0.0
C45 C 0.62561 0.02266 0.90749 0.0
O46 O 0.6351 0.01882 0.71434 0.0
Co47 Co 0.64079 0.13879 0.81463 0.0
O48 O 0.58406 0.10534 0.72673 0.0
C49 C 0.76348 0.13192 0.73632 0.0
C50 C 0.77477 0.94838 0.83519 0.0
C51 C 0.59303 0.05448 0.69087 0.0
O52 O 0.75981 0.07289 0.74608 0.0
O53 O 0.72306 0.16687 0.76478 0.0
O54 O 0.63717 0.96938 0.87698 0.0
O55 O 0.66154 0.06894 0.88189 0.0
C56 C 0.03023 0.47798 0.12603 0.0
C57 C 0.02681 0.54246 0.13731 0.0
C58 C 0.99558 0.52361 0.28205 0.0
C59 C 0.01281 0.46202 0.27505 0.0
N60 N 0.04479 0.37879 0.18932 0.0
N61 N 0.00748 0.62783 0.22816 0.0
C62 C 0.02918 0.43852 0.19647 0.0
C63 C 0.00869 0.56567 0.21553 0.0
N64 N 0.03252 0.45449 0.04752 0.0
N65 N 0.96607 0.54164 0.35182 0.0
H66 H 0.01579 0.66039 0.18136 0.0
H67 H 1.00232 0.64741 0.28659 0.0
H68 H 0.95426 0.51085 0.39959 0.0
H69 H 0.94751 0.58446 0.35813 0.0
H70 H 0.03009 0.40741 0.03433 0.0
H71 H 0.02952 0.48229 0.99513 0.0
H72 H 0.06474 0.3613 0.13618 0.0
H73 H 0.04031 0.34733 0.23814 0.0
C74 C 0.45906 0.99824 0.55176 0.0
C75 C 0.47382 0.0312 0.47694 0.0
C76 C 0.57057 0.07499 0.54122 0.0
C77 C 0.55683 0.03995 0.614 0.0
N78 N 0.49603 0.95805 0.68218 0.0
N79 N 0.54987 0.0916 0.39557 0.0
C80 C 0.50396 0.99778 0.61671 0.0
C81 C 0.53155 0.06668 0.47026 0.0
N82 N 0.4005 0.97196 0.56445 0.0
N83 N 0.62018 0.11766 0.54068 0.0
H84 H 0.52285 0.08745 0.34207 0.0
H85 H 0.59423 0.11162 0.38433 0.0
H86 H 0.65184 0.12279 0.58953 0.0
H87 H 0.62808 0.15053 0.49417 0.0
H88 H 0.38552 0.95331 0.62109 0.0
H89 H 0.3644 0.97452 0.52206 0.0
H90 H 0.46182 0.92186 0.68372 0.0
H91 H 0.52733 0.95766 0.73151 0.0
C92 C 0.03352 0.61193 0.69472 0.0
C93 C 0.04724 0.58839 0.77418 0.0
C94 C 0.04915 0.48396 0.71644 0.0
C95 C 0.03175 0.50688 0.63772 0.0
N96 N 0.02905 0.59405 0.546 0.0
N97 N 0.0909 0.50833 0.85326 0.0
C98 C 0.03069 0.5715 0.62507 0.0
C99 C 0.0625 0.52633 0.78261 0.0
N100 N 0.02252 0.67283 0.68618 0.0
N101 N 0.04968 0.42184 0.7297 0.0
H102 H 0.10325 0.53955 0.9004 0.0
H103 H 0.10821 0.46506 0.86094 0.0
H104 H 0.04232 0.38912 0.68287 0.0
H105 H 0.0539 0.40248 0.78841 0.0
H106 H 1.00428 0.69139 0.63259 0.0
H107 H 0.03007 0.70459 0.73434 0.0
H108 H 0.0329 0.64089 0.53158 0.0
H109 H 0.03073 0.56539 0.49419 0.0
C110 C 0.57203 0.01984 0.1333 0.0
C111 C 0.50646 0.01299 0.12289 0.0
C112 C 0.51983 0.02598 0.97186 0.0
C113 C 0.58506 0.02663 0.98177 0.0
N114 N 0.67423 0.02053 0.07058 0.0
N115 N 0.41836 0.99971 0.03084 0.0
C116 C 0.61144 0.0233 0.06226 0.0
C117 C 0.48036 0.01431 0.04181 0.0
N118 N 0.59676 0.02353 0.21141 0.0
N119 N 0.49557 0.03666 0.89529 0.0
H120 H 0.38833 0.98866 0.07986 0.0
H121 H 0.39749 0.99289 0.973 0.0
H122 H 0.52324 0.04394 0.84286 0.0
H123 H 0.44896 0.04355 0.88492 0.0
H124 H 0.64307 0.0367 0.22384 0.0
H125 H 0.57017 0.01699 0.26485 0.0
H126 H 0.69596 0.00931 0.12569 0.0
H127 H 0.70493 0.02619 0.0209 0.0
C128 C 0.20702 0.83476 0.23157 0.0
C129 C 0.23863 0.88657 0.19295 0.0
C130 C 0.18007 0.86258 0.06427 0.0
C131 C 0.15911 0.80477 0.09822 0.0
N132 N 0.15195 0.73452 0.21406 0.0
N133 N 0.25379 0.95156 0.0715 0.0
C134 C 0.17172 0.79082 0.18226 0.0
C135 C 0.22377 0.90186 0.10948 0.0
N136 N 0.2098 0.8285 0.31589 0.0
N137 N 0.15833 0.8796 0.98855 0.0
H138 H 0.28332 0.98359 0.10249 0.0
H139 H 0.25165 0.95978 0.00794 0.0
H140 H 0.12694 0.85126 0.95405 0.0
H141 H 0.16676 0.92353 0.9634 0.0
H142 H 0.18345 0.79483 0.34882 0.0
H143 H 0.23353 0.86122 0.35379 0.0
H144 H 0.16598 0.71855 0.27157 0.0
H145 H 0.12416 0.70209 0.18062 0.0
C146 C 0.25126 0.21159 0.35932 0.0
C147 C 0.23171 0.14838 0.34775 0.0
C148 C 0.12635 0.16944 0.39239 0.0
C149 C 0.14492 0.23332 0.39782 0.0
N150 N 0.2214 0.31687 0.36904 0.0
N151 N 0.14874 0.06862 0.3392 0.0
C152 C 0.20637 0.25489 0.3764 0.0
C153 C 0.16863 0.12769 0.36036 0.0
N154 N 0.31306 0.23003 0.35796 0.0
N155 N 0.06916 0.14835 0.4208 0.0
H156 H 0.17824 0.0371 0.31471 0.0
H157 H 0.10223 0.05251 0.33877 0.0
H158 H 0.03722 0.17746 0.44516 0.0
H159 H 0.0553 0.10168 0.42683 0.0
H160 H 0.33042 0.27403 0.37568 0.0
H161 H 0.34773 0.19998 0.34643 0.0
H162 H 0.26337 0.335 0.34451 0.0
H163 H 0.18988 0.35028 0.37987 0.0
C164 C 0.82348 0.15079 0.60272 0.0
C165 C 0.81625 0.16242 0.68903 0.0
C166 C 0.88855 0.25426 0.6788 0.0
C167 C 0.89471 0.24348 0.59243 0.0
N168 N 0.88184 0.17434 0.47621 0.0
N169 N 0.85541 0.2133 0.81295 0.0
C170 C 0.86688 0.18905 0.55587 0.0
C171 C 0.85342 0.21034 0.72822 0.0
N172 N 0.78619 0.10601 0.56434 0.0
N173 N 0.91371 0.30797 0.71284 0.0
H174 H 0.83089 0.18096 0.85051 0.0
H175 H 0.88578 0.24365 0.84575 0.0
H176 H 0.94052 0.34066 0.67873 0.0
H177 H 0.9048 0.322 0.77324 0.0
H178 H 0.78369 0.10062 0.50018 0.0
H179 H 0.75464 0.07627 0.59611 0.0
H180 H 0.86788 0.13246 0.44814 0.0
H181 H 0.9131 0.20199 0.44068 0.0
C182 C 0.82866 0.88469 0.94158 0.0
C183 C 0.82139 0.90309 0.85747 0.0
C184 C 0.89525 0.82769 0.81646 0.0
C185 C 0.90997 0.81706 0.90119 0.0
N186 N 0.90046 0.85017 0.04379 0.0
N187 N 0.86207 0.90226 0.71752 0.0
C188 C 0.87966 0.84996 0.9637 0.0
C189 C 0.85892 0.87769 0.79554 0.0
N190 N 0.78533 0.89696 0.99998 0.0
N191 N 0.91243 0.78822 0.75594 0.0
H192 H 0.83972 0.94146 0.70069 0.0
H193 H 0.89297 0.88809 0.67278 0.0
H194 H 0.93332 0.74747 0.76888 0.0
H195 H 0.89829 0.79176 0.69432 0.0
H196 H 0.78667 0.87993 0.06041 0.0
H197 H 0.74402 0.91675 0.98573 0.0
H198 H 0.88266 0.87786 0.08971 0.0
H199 H 0.94012 0.82888 0.06198 0.0
loop_
_geom_bond_atom_site_label_1
_geom_bond_atom_site_label_2
_geom_bond_distance
_geom_bond_site_symmetry_2
_ccdc_geom_bond_type
Co0 O1 2.216 1_554 S
Co0 O2 2.091 . S
Co0 O4 2.004 . S
Co0 O10 2.021 1_655 S
Co0 O12 2.137 1_554 S
Co0 O13 2.244 1_654 S
O1 Co0 2.216 1_556 S
O1 C8 1.247 . S
O2 Co0 2.091 . S
O2 C8 1.261 1_554 S
C3 O12 1.247 1_455 S
C3 O13 1.272 . S
O4 Co0 2.004 . S
O4 C9 1.259 1_655 S
Co5 O6 2.061 . S
Co5 O11 2.052 . S
Co5 O13 2.135 1_554 S
O6 Co5 2.061 . S
O6 C9 1.235 . S
C7 O10 1.238 . S
C7 O11 1.241 . S
C8 O1 1.247 . S
C8 O2 1.261 1_556 S
C9 O4 1.259 1_455 S
C9 O6 1.235 . S
O10 Co0 2.021 1_455 S
O10 C7 1.238 . S
O11 Co5 2.052 . S
O11 C7 1.241 . S
O12 Co0 2.137 1_556 S
O12 C3 1.247 1_655 S
O13 Co0 2.244 1_456 S
O13 C3 1.272 . S
O13 Co5 2.135 1_556 S
Co14 O15 2.216 . S
Co14 O16 2.091 . S
Co14 O18 2.004 . S
Co14 O24 2.021 1_545 S
Co14 O26 2.137 . S
Co14 O27 2.244 1_545 S
O15 Co14 2.216 . S
O15 C22 1.247 . S
O16 Co14 2.091 . S
O16 C22 1.261 . S
C17 O26 1.247 . S
C17 O27 1.272 1_545 S
O18 Co14 2.004 . S
O18 C23 1.259 . S
Co19 O20 2.061 . S
Co19 O25 2.052 . S
Co19 O27 2.135 . S
O20 Co19 2.061 . S
O20 C23 1.235 1_565 S
C21 O24 1.238 . S
C21 O25 1.241 . S
C22 O15 1.247 . S
C22 O16 1.261 . S
C23 O18 1.259 . S
C23 O20 1.235 1_545 S
O24 Co14 2.021 1_565 S
O24 C21 1.238 . S
O25 Co19 2.052 . S
O25 C21 1.241 . S
O26 Co14 2.137 . S
O26 C17 1.247 . S
O27 Co14 2.244 1_565 S
O27 C17 1.272 1_565 S
O27 Co19 2.135 . S
Co28 O29 2.216 . S
Co28 O30 2.091 . S
Co28 O32 2.004 . S
Co28 O38 2.021 1_455 S
Co28 O40 2.137 . S
Co28 O41 2.244 1_455 S
O29 Co28 2.216 . S
O29 C36 1.247 . S
O30 Co28 2.091 . S
O30 C36 1.261 . S
C31 O40 1.247 . S
C31 O41 1.272 1_455 S
O32 Co28 2.004 . S
O32 C37 1.259 . S
Co33 O34 2.061 . S
Co33 O39 2.052 . S
Co33 O41 2.135 . S
O34 Co33 2.061 . S
O34 C37 1.235 1_655 S
C35 O38 1.238 . S
C35 O39 1.241 . S
C36 O29 1.247 . S
C36 O30 1.261 . S
C37 O32 1.259 . S
C37 O34 1.235 1_455 S
O38 Co28 2.021 1_655 S
O38 C35 1.238 . S
O39 Co33 2.052 . S
O39 C35 1.241 . S
O40 Co28 2.137 . S
O40 C31 1.247 . S
O41 Co28 2.244 1_655 S
O41 C31 1.272 1_655 S
O41 Co33 2.135 . S
Co42 O43 2.216 . S
Co42 O44 2.091 . S
Co42 O46 2.004 . S
Co42 O52 2.021 1_565 S
Co42 O54 2.137 . S
Co42 O55 2.244 1_565 S
O43 Co42 2.216 . S
O43 C50 1.247 . S
O44 Co42 2.091 . S
O44 C50 1.261 . S
C45 O54 1.247 1_545 S
C45 O55 1.272 . S
O46 Co42 2.004 . S
O46 C51 1.259 1_565 S
Co47 O48 2.061 . S
Co47 O53 2.052 . S
Co47 O55 2.135 . S
O48 Co47 2.061 . S
O48 C51 1.235 . S
C49 O52 1.238 . S
C49 O53 1.241 . S
C50 O43 1.247 . S
C50 O44 1.261 . S
C51 O46 1.259 1_545 S
C51 O48 1.235 . S
O52 Co42 2.021 1_545 S
O52 C49 1.238 . S
O53 Co47 2.052 . S
O53 C49 1.241 . S
O54 Co42 2.137 . S
O54 C45 1.247 1_565 S
O55 Co42 2.244 1_545 S
O55 C45 1.272 . S
O55 Co47 2.135 . S
C56 C57 1.363 . S
C56 C62 1.379 . S
C56 N64 1.356 . S
C57 C56 1.363 . S
C57 C63 1.363 1_455 S
C58 C59 1.363 1_655 S
C58 C63 1.379 . S
C58 N65 1.356 . S
C59 C58 1.363 1_455 S
C59 C62 1.363 . S
N60 C62 1.356 . S
N60 H72 0.984 . S
N60 H73 0.985 . S
N61 C63 1.356 . S
N61 H66 0.984 . S
N61 H67 0.985 . S
C62 C56 1.379 . S
C62 C59 1.363 . S
C62 N60 1.356 . S
C63 C57 1.363 1_655 S
C63 C58 1.379 . S
C63 N61 1.356 . S
N64 C56 1.356 . S
N64 H70 0.984 . S
N64 H71 0.984 . S
N65 C58 1.356 . S
N65 H68 0.984 . S
N65 H69 0.985 . S
H66 N61 0.984 . S
H67 N61 0.985 . S
H68 N65 0.984 . S
H69 N65 0.985 . S
H70 N64 0.984 . S
H71 N64 0.984 . S
H72 N60 0.984 . S
H73 N60 0.985 . S
C74 C75 1.363 1_565 S
C74 C80 1.379 . S
C74 N82 1.356 . S
C75 C74 1.363 1_545 S
C75 C81 1.363 . S
C76 C77 1.363 . S
C76 C81 1.379 . S
C76 N83 1.356 . S
C77 C76 1.363 . S
C77 C80 1.363 1_545 S
N78 C80 1.356 . S
N78 H90 0.984 . S
N78 H91 0.985 . S
N79 C81 1.356 . S
N79 H84 0.984 . S
N79 H85 0.985 . S
C80 C74 1.379 . S
C80 C77 1.363 1_565 S
C80 N78 1.356 . S
C81 C75 1.363 . S
C81 C76 1.379 . S
C81 N79 1.356 . S
N82 C74 1.356 . S
N82 H88 0.984 . S
N82 H89 0.984 . S
N83 C76 1.356 . S
N83 H86 0.984 . S
N83 H87 0.985 . S
H84 N79 0.984 . S
H85 N79 0.985 . S
H86 N83 0.984 . S
H87 N83 0.985 . S
H88 N82 0.984 . S
H89 N82 0.984 . S
H90 N78 0.984 . S
H91 N78 0.985 . S
C92 C93 1.363 1_655 S
C92 C98 1.379 . S
C92 N100 1.356 . S
C93 C92 1.363 1_455 S
C93 C99 1.363 . S
C94 C95 1.363 . S
C94 C99 1.379 . S
C94 N101 1.356 . S
C95 C94 1.363 . S
C95 C98 1.363 1_455 S
N96 C98 1.356 . S
N96 H108 0.984 . S
N96 H109 0.985 . S
N97 C99 1.356 . S
N97 H102 0.984 . S
N97 H103 0.985 . S
C98 C92 1.379 . S
C98 C95 1.363 1_655 S
C98 N96 1.356 . S
C99 C93 1.363 . S
C99 C94 1.379 . S
C99 N97 1.356 . S
N100 C92 1.356 . S
N100 H106 0.984 . S
N100 H107 0.984 . S
N101 C94 1.356 . S
N101 H104 0.984 . S
N101 H105 0.985 . S
H102 N97 0.984 . S
H103 N97 0.985 . S
H104 N101 0.984 . S
H105 N101 0.985 . S
H106 N100 0.984 . S
H107 N100 0.984 . S
H108 N96 0.984 . S
H109 N96 0.985 . S
C110 C111 1.363 1_565 S
C110 C116 1.379 1_554 S
C110 N118 1.356 . S
C111 C110 1.363 1_545 S
C111 C117 1.363 1_554 S
C112 C113 1.363 . S
C112 C117 1.379 . S
C112 N119 1.356 . S
C113 C112 1.363 . S
C113 C116 1.363 1_545 S
N114 C116 1.356 . S
N114 H126 0.984 1_556 S
N114 H127 0.985 . S
N115 C117 1.356 1_554 S
N115 H120 0.984 . S
N115 H121 0.985 1_554 S
C116 C110 1.379 1_556 S
C116 C113 1.363 1_565 S
C116 N114 1.356 . S
C117 C111 1.363 1_556 S
C117 C112 1.379 . S
C117 N115 1.356 1_556 S
N118 C110 1.356 . S
N118 H124 0.984 . S
N118 H125 0.984 . S
N119 C112 1.356 . S
N119 H122 0.984 . S
N119 H123 0.985 . S
H120 N115 0.984 . S
H121 N115 0.985 1_556 S
H122 N119 0.984 . S
H123 N119 0.985 . S
H124 N118 0.984 . S
H125 N118 0.984 . S
H126 N114 0.984 1_554 S
H127 N114 0.985 . S
C128 C129 1.363 . S
C128 C134 1.379 . S
C128 N136 1.356 . S
C129 C128 1.363 . S
C129 C135 1.363 . S
C130 C131 1.363 . S
C130 C135 1.379 . S
C130 N137 1.356 . S
C131 C130 1.363 . S
C131 C134 1.363 . S
N132 C134 1.356 . S
N132 H144 0.984 . S
N132 H145 0.985 . S
N133 C135 1.356 . S
N133 H138 0.984 . S
N133 H139 0.979 1_565 S
C134 C128 1.379 . S
C134 C131 1.363 . S
C134 N132 1.356 . S
C135 C129 1.363 . S
C135 C130 1.379 . S
C135 N133 1.356 . S
N136 C128 1.356 . S
N136 H142 0.984 . S
N136 H143 0.984 . S
N137 C130 1.356 . S
N137 H140 0.984 . S
N137 H141 0.985 1_554 S
H138 N133 0.984 . S
H139 N133 0.979 1_545 S
H140 N137 0.984 . S
H141 N137 0.985 1_556 S
H142 N136 0.984 . S
H143 N136 0.984 . S
H144 N132 0.984 . S
H145 N132 0.985 . S
C146 C147 1.363 . S
C146 C152 1.379 . S
C146 N154 1.356 . S
C147 C146 1.363 . S
C147 C153 1.363 . S
C148 C149 1.363 . S
C148 C153 1.379 . S
C148 N155 1.356 . S
C149 C148 1.363 . S
C149 C152 1.363 . S
N150 C152 1.356 . S
N150 H162 0.984 . S
N150 H163 0.985 . S
N151 C153 1.356 . S
N151 H156 0.984 . S
N151 H157 0.985 . S
C152 C146 1.379 . S
C152 C149 1.363 . S
C152 N150 1.356 . S
C153 C147 1.363 . S
C153 C148 1.379 . S
C153 N151 1.356 . S
N154 C146 1.356 . S
N154 H160 0.984 . S
N154 H161 0.984 . S
N155 C148 1.356 . S
N155 H158 0.984 . S
N155 H159 0.985 . S
H156 N151 0.984 . S
H157 N151 0.985 . S
H158 N155 0.984 . S
H159 N155 0.985 . S
H160 N154 0.984 . S
H161 N154 0.984 . S
H162 N150 0.984 . S
H163 N150 0.985 . S
C164 C165 1.363 . S
C164 C170 1.379 . S
C164 N172 1.356 . S
C165 C164 1.363 . S
C165 C171 1.363 . S
C166 C167 1.363 . S
C166 C171 1.379 . S
C166 N173 1.356 . S
C167 C166 1.363 . S
C167 C170 1.363 . S
N168 C170 1.356 . S
N168 H180 0.984 . S
N168 H181 0.985 . S
N169 C171 1.356 . S
N169 H174 0.984 . S
N169 H175 0.985 . S
C170 C164 1.379 . S
C170 C167 1.363 . S
C170 N168 1.356 . S
C171 C165 1.363 . S
C171 C166 1.379 . S
C171 N169 1.356 . S
N172 C164 1.356 . S
N172 H178 0.984 . S
N172 H179 0.984 . S
N173 C166 1.356 . S
N173 H176 0.984 . S
N173 H177 0.985 . S
H174 N169 0.984 . S
H175 N169 0.985 . S
H176 N173 0.984 . S
H177 N173 0.985 . S
H178 N172 0.984 . S
H179 N172 0.984 . S
H180 N168 0.984 . S
H181 N168 0.985 . S
C182 C183 1.363 . S
C182 C188 1.379 . S
C182 N190 1.356 . S
C183 C182 1.363 . S
C183 C189 1.363 . S
C184 C185 1.363 . S
C184 C189 1.379 . S
C184 N191 1.356 . S
C185 C184 1.363 . S
C185 C188 1.363 . S
N186 C188 1.356 1_554 S
N186 H198 0.984 . S
N186 H199 0.985 . S
N187 C189 1.356 . S
N187 H192 0.984 . S
N187 H193 0.985 . S
C188 C182 1.379 . S
C188 C185 1.363 . S
C188 N186 1.356 1_556 S
C189 C183 1.363 . S
C189 C184 1.379 . S
C189 N187 1.356 . S
N190 C182 1.356 . S
N190 H196 0.984 . S
N190 H197 0.984 . S
N191 C184 1.356 . S
N191 H194 0.984 . S
N191 H195 0.985 . S
H192 N187 0.984 . S
H193 N187 0.985 . S
H194 N191 0.984 . S
H195 N191 0.985 . S
H196 N190 0.984 . S
H197 N190 0.984 . S
H198 N186 0.984 . S
H199 N186 0.985 . S
C57 C9 1.424 . S
C59 C31 1.440 . S
C75 C17 1.440 . S
C77 C51 1.424 . S
C93 C3 1.440 . S
C95 C37 1.424 . S
C111 C23 1.424 . S
C113 C45 1.440 . S
C129 C21 1.469 . S
C131 C7 1.469 . S
C147 C22 1.493 . S
C149 C36 1.493 . S
C165 C49 1.469 . S
C167 C35 1.469 . S
C183 C50 1.493 . S
C185 C8 1.493 . S
