# Generated by pormake.
# Topology sxc, (6)-cn, num edge types: 1
# Building blocks:
#     Node 0, Type 0, BuildingBlock: LEVNOQ01_clean_sbu_1, # of connection points: 6
#     Node 1, Type 0, BuildingBlock: LEVNOQ01_clean_sbu_1, # of connection points: 6
#     Node 2, Type 0, BuildingBlock: LEVNOQ01_clean_sbu_1, # of connection points: 6
#     Edge 3, Type (0, 0), BuildingBlock: EYOCIG_clean_linker_4, # of connection points: 2
#     Edge 4, Type (0, 0), BuildingBlock: EYOCIG_clean_linker_4, # of connection points: 2
#     Edge 5, Type (0, 0), BuildingBlock: EYOCIG_clean_linker_4, # of connection points: 2
#     Edge 6, Type (0, 0), BuildingBlock: EYOCIG_clean_linker_4, # of connection points: 2
#     Edge 7, Type (0, 0), BuildingBlock: EYOCIG_clean_linker_4, # of connection points: 2
#     Edge 8, Type (0, 0), BuildingBlock: EYOCIG_clean_linker_4, # of connection points: 2
#     Edge 9, Type (0, 0), BuildingBlock: EYOCIG_clean_linker_4, # of connection points: 2
#     Edge 10, Type (0, 0), BuildingBlock: EYOCIG_clean_linker_4, # of connection points: 2
#     Edge 11, Type (0, 0), BuildingBlock: EYOCIG_clean_linker_4, # of connection points: 2
# Relax obj value: 0.101
# Max RMSD: 0.150
# Mean RMSD: 0.143
data_MOF--net-sxc--node1-LEVNOQ01_clean_sbu_1--edge1-EYOCIG_clean_linker_4
_symmetry_space_group_name_H-M    P1
_symmetry_Int_Tables_number       1
_symmetry_cell_setting            triclinic
loop_
_symmetry_equiv_pos_as_xyz
'x, y, z'
_cell_length_a     12.966419
_cell_length_b     13.015519
_cell_length_c     37.495129
_cell_angle_alpha  103.75344
_cell_angle_beta   90.056859
_cell_angle_gamma 119.8987
loop_
_atom_site_label
_atom_site_type_symbol
_atom_site_fract_x
_atom_site_fract_y
_atom_site_fract_z
_atom_type_partial_charge
O0 O 0.04717 0.78346 0.95966 0.0
Mg1 Mg 0.91262 0.8101 0.94095 0.0
O2 O 0.03669 0.88058 0.0151 0.0
Mg3 Mg -0.00861 0.03436 0.01239 0.0
O4 O -0.03307 -0.01009 0.94831 0.0
O5 O 0.91522 0.85451 0.89235 0.0
O6 O 0.94609 0.18929 0.01194 0.0
O7 O 0.1906 0.18799 0.00978 0.0
Mg8 Mg 0.13721 0.25939 0.08432 0.0
O9 O 0.0123 0.07911 0.07637 0.0
O10 O 0.06297 0.34462 0.06158 0.0
O11 O 0.29806 0.28618 0.06532 0.0
O12 O 0.09476 0.21249 0.13263 0.0
C13 C 0.72353 0.76844 0.99279 0.0
C14 C 0.05636 0.80051 0.99437 0.0
C15 C -0.04665 0.9654 0.91237 0.0
C16 C -0.01059 0.30039 0.0322 0.0
C17 C 0.29023 0.26852 0.03058 0.0
C18 C 0.02255 0.10195 0.11225 0.0
O19 O 0.75324 0.72406 0.96358 0.0
O20 O 0.79101 0.87979 0.01292 0.0
O21 O 0.37054 0.06301 0.2956 0.0
Mg22 Mg 0.19465 0.9129 0.2802 0.0
O23 O 0.30071 0.03974 0.34781 0.0
Mg24 Mg 0.09963 -0.00517 0.34299 0.0
O25 O 0.05745 0.94572 0.2776 0.0
O26 O 0.12441 0.8729 0.22785 0.0
O27 O 0.89717 0.94757 0.34142 0.0
O28 O 0.14592 0.19407 0.3409 0.0
Mg29 Mg 0.06981 0.15437 0.41307 0.0
O30 O 0.14119 0.04493 0.40743 0.0
O31 O 0.88657 0.06159 0.39423 0.0
O32 O 0.16878 0.3144 0.39664 0.0
O33 O 0.12569 0.14975 0.46228 0.0
C34 C 0.09325 0.7296 0.32492 0.0
C35 C 0.38775 0.06591 0.32895 0.0
C36 C 0.05393 0.91012 0.24176 0.0
C37 C 0.83834 -0.01511 0.36278 0.0
C38 C 0.16831 0.29781 0.3621 0.0
C39 C 0.16029 0.07826 0.44356 0.0
O40 O 0.15674 0.76144 0.29965 0.0
O41 O 0.05051 0.79364 0.34273 0.0
O42 O 0.89585 0.74888 0.62853 0.0
Mg43 Mg -0.04597 0.90938 0.61272 0.0
O44 O -0.01325 0.87412 0.6842 0.0
Mg45 Mg 0.14016 0.0725 0.68156 0.0
O46 O 0.13429 0.02159 0.61688 0.0
O47 O 0.00876 0.91088 0.5629 0.0
O48 O 0.29221 0.27359 0.68155 0.0
O49 O 0.2961 0.02749 0.67766 0.0
Mg50 Mg 0.3179 0.16046 0.74554 0.0
O51 O 0.1457 0.12196 0.74687 0.0
O52 O 0.42957 0.31293 0.72642 0.0
O53 O 0.35012 0.01483 0.73087 0.0
O54 O 0.28389 0.19862 0.79745 0.0
C55 C 0.8874 0.07766 0.66109 0.0
C56 C 0.90809 0.76842 0.66326 0.0
C57 C 0.1161 -0.01542 0.58072 0.0
C58 C 0.39791 0.3412 0.70017 0.0
C59 C 0.35992 0.00571 0.69703 0.0
C60 C 0.17594 0.15826 0.78283 0.0
O61 O 0.85832 -0.00302 0.63048 0.0
O62 O -0.01466 0.11987 0.68233 0.0
C63 C -0.01197 0.48371 0.01547 0.0
C64 C -0.02356 0.38884 0.01905 0.0
C65 C 0.01859 0.60185 0.01251 0.0
C66 C 0.03663 0.69699 0.00709 0.0
C67 C 0.55262 0.01241 0.34293 0.0
C68 C 0.47591 0.03664 0.33823 0.0
C69 C 0.63955 -0.02216 0.34525 0.0
C70 C 0.72622 -0.03254 0.34869 0.0
C71 C 0.70809 0.61302 0.68355 0.0
C72 C 0.80466 0.68936 0.67803 0.0
C73 C 0.5888 0.52511 0.68619 0.0
C74 C 0.49207 0.44186 0.68893 0.0
C75 C 0.69577 0.08568 0.6782 0.0
C76 C 0.79261 0.09567 0.67468 0.0
C77 C 0.57494 0.05274 0.68114 0.0
C78 C 0.47516 0.03106 0.68653 0.0
C79 C 0.53872 0.58511 0.00944 0.0
C80 C 0.62198 0.68006 0.00591 0.0
C81 C 0.45118 0.4669 0.01237 0.0
C82 C 0.37403 0.37175 0.01776 0.0
C83 C 0.13046 0.45665 0.34139 0.0
C84 C 0.14855 0.37894 0.3469 0.0
C85 C 0.1001 0.5452 0.33865 0.0
C86 C 0.08638 0.62825 0.33585 0.0
C87 C 0.94105 0.92946 0.18867 0.0
C88 C -0.01748 0.92434 0.21647 0.0
C89 C 0.93342 0.95766 0.15511 0.0
C90 C -0.03808 0.00744 0.13059 0.0
C91 C 0.25347 0.02962 0.49271 0.0
C92 C 0.21847 0.03804 0.46442 0.0
C93 C 0.25381 0.03004 0.53029 0.0
C94 C 0.21185 0.0231 0.55883 0.0
C95 C 0.04113 0.13518 0.83517 0.0
C96 C 0.08846 0.14146 0.80754 0.0
C97 C 0.00588 0.10726 0.86879 0.0
C98 C -0.01422 0.05856 0.89356 0.0
loop_
_geom_bond_atom_site_label_1
_geom_bond_atom_site_label_2
_geom_bond_distance
_geom_bond_site_symmetry_2
_ccdc_geom_bond_type
O0 Mg1 1.990 1_455 S
O0 C14 1.253 1_556 S
Mg1 O0 1.990 1_655 S
Mg1 O4 2.180 1_665 S
Mg1 O5 2.117 1_655 S
Mg1 O19 2.030 . S
O2 Mg3 2.072 1_565 S
O2 C14 1.260 . S
Mg3 O2 2.072 1_545 S
Mg3 O4 2.099 1_554 S
Mg3 O6 2.079 1_455 S
Mg3 O7 2.072 . S
Mg3 O9 2.099 . S
Mg3 O20 2.079 1_445 S
O4 Mg1 2.180 1_445 S
O4 Mg3 2.099 1_556 S
O4 C15 1.279 . S
O5 Mg1 2.117 1_455 S
O5 C15 1.250 1_565 S
O6 Mg3 2.079 1_655 S
O6 C16 1.264 1_655 S
O7 Mg3 2.072 . S
O7 C17 1.260 . S
Mg8 O9 2.180 . S
Mg8 O10 2.030 . S
Mg8 O11 1.990 . S
Mg8 O12 2.117 . S
O9 Mg3 2.099 . S
O9 Mg8 2.180 . S
O9 C18 1.279 . S
O10 Mg8 2.030 . S
O10 C16 1.248 . S
O11 Mg8 1.990 . S
O11 C17 1.253 . S
O12 Mg8 2.117 . S
O12 C18 1.250 . S
C13 O19 1.248 1_554 S
C13 O20 1.264 . S
C14 O0 1.253 1_554 S
C14 O2 1.260 . S
C15 O4 1.279 . S
C15 O5 1.250 1_545 S
C16 O6 1.264 1_455 S
C16 O10 1.248 . S
C17 O7 1.260 . S
C17 O11 1.253 . S
C18 O9 1.279 . S
C18 O12 1.250 . S
O19 Mg1 2.030 . S
O19 C13 1.248 1_556 S
O20 Mg3 2.079 1_665 S
O20 C13 1.264 . S
O21 Mg22 1.990 1_545 S
O21 C35 1.253 . S
Mg22 O21 1.990 1_565 S
Mg22 O25 2.180 . S
Mg22 O26 2.117 1_565 S
Mg22 O40 2.030 . S
O23 Mg24 2.072 . S
O23 C35 1.260 . S
Mg24 O23 2.072 . S
Mg24 O25 2.099 1_545 S
Mg24 O27 2.079 1_445 S
Mg24 O28 2.072 . S
Mg24 O30 2.099 . S
Mg24 O41 2.079 1_545 S
O25 Mg22 2.180 . S
O25 Mg24 2.099 1_565 S
O25 C36 1.279 1_565 S
O26 Mg22 2.117 1_545 S
O26 C36 1.250 . S
O27 Mg24 2.079 1_665 S
O27 C37 1.264 1_565 S
O28 Mg24 2.072 . S
O28 C38 1.260 . S
Mg29 O30 2.180 . S
Mg29 O31 2.030 1_455 S
Mg29 O32 1.990 . S
Mg29 O33 2.117 . S
O30 Mg24 2.099 . S
O30 Mg29 2.180 . S
O30 C39 1.279 . S
O31 Mg29 2.030 1_655 S
O31 C37 1.248 . S
O32 Mg29 1.990 . S
O32 C38 1.253 . S
O33 Mg29 2.117 . S
O33 C39 1.250 . S
C34 O40 1.248 . S
C34 O41 1.264 . S
C35 O21 1.253 . S
C35 O23 1.260 . S
C36 O25 1.279 1_545 S
C36 O26 1.250 . S
C37 O27 1.264 1_545 S
C37 O31 1.248 . S
C38 O28 1.260 . S
C38 O32 1.253 . S
C39 O30 1.279 . S
C39 O33 1.250 . S
O40 Mg22 2.030 . S
O40 C34 1.248 . S
O41 Mg24 2.079 1_565 S
O41 C34 1.264 . S
O42 Mg43 1.990 . S
O42 C56 1.253 . S
Mg43 O42 1.990 . S
Mg43 O46 2.180 1_665 S
Mg43 O47 2.117 1_655 S
Mg43 O61 2.030 1_565 S
O44 Mg45 2.072 1_565 S
O44 C56 1.260 1_455 S
Mg45 O44 2.072 1_545 S
Mg45 O46 2.099 . S
Mg45 O48 2.079 . S
Mg45 O49 2.072 . S
Mg45 O51 2.099 . S
Mg45 O62 2.079 . S
O46 Mg43 2.180 1_445 S
O46 Mg45 2.099 . S
O46 C57 1.279 . S
O47 Mg43 2.117 1_455 S
O47 C57 1.250 1_565 S
O48 Mg45 2.079 . S
O48 C58 1.264 . S
O49 Mg45 2.072 . S
O49 C59 1.260 . S
Mg50 O51 2.180 . S
Mg50 O52 2.030 . S
Mg50 O53 1.990 . S
Mg50 O54 2.117 . S
O51 Mg45 2.099 . S
O51 Mg50 2.180 . S
O51 C60 1.279 . S
O52 Mg50 2.030 . S
O52 C58 1.248 . S
O53 Mg50 1.990 . S
O53 C59 1.253 . S
O54 Mg50 2.117 . S
O54 C60 1.250 . S
C55 O61 1.248 . S
C55 O62 1.264 1_655 S
C56 O42 1.253 . S
C56 O44 1.260 1_655 S
C57 O46 1.279 . S
C57 O47 1.250 1_545 S
C58 O48 1.264 . S
C58 O52 1.248 . S
C59 O49 1.260 . S
C59 O53 1.253 . S
C60 O51 1.279 . S
C60 O54 1.250 . S
O61 Mg43 2.030 1_545 S
O61 C55 1.248 . S
O62 Mg45 2.079 . S
O62 C55 1.264 1_455 S
C63 C64 1.170 . S
C63 C65 1.380 . S
C64 C63 1.170 . S
C65 C63 1.380 . S
C65 C66 1.170 . S
C66 C65 1.170 . S
C67 C68 1.170 . S
C67 C69 1.380 . S
C68 C67 1.170 . S
C69 C67 1.380 . S
C69 C70 1.170 1_545 S
C70 C69 1.170 1_565 S
C71 C72 1.170 . S
C71 C73 1.380 . S
C72 C71 1.170 . S
C73 C71 1.380 . S
C73 C74 1.170 . S
C74 C73 1.170 . S
C75 C76 1.170 . S
C75 C77 1.380 . S
C76 C75 1.170 . S
C77 C75 1.380 . S
C77 C78 1.170 . S
C78 C77 1.170 . S
C79 C80 1.170 . S
C79 C81 1.380 . S
C80 C79 1.170 . S
C81 C79 1.380 . S
C81 C82 1.170 . S
C82 C81 1.170 . S
C83 C84 1.170 . S
C83 C85 1.380 . S
C84 C83 1.170 . S
C85 C83 1.380 . S
C85 C86 1.170 . S
C86 C85 1.170 . S
C87 C88 1.170 . S
C87 C89 1.380 . S
C88 C87 1.170 . S
C89 C87 1.380 . S
C89 C90 1.170 . S
C90 C89 1.170 . S
C91 C92 1.170 . S
C91 C93 1.380 . S
C92 C91 1.170 . S
C93 C91 1.380 . S
C93 C94 1.170 . S
C94 C93 1.170 . S
C95 C96 1.170 . S
C95 C97 1.380 . S
C96 C95 1.170 . S
C97 C95 1.380 . S
C97 C98 1.170 . S
C98 C97 1.170 . S
C64 C16 1.272 . S
C66 C14 1.230 . S
C68 C35 1.213 . S
C70 C37 1.255 1_565 S
C72 C56 1.249 . S
C74 C58 1.258 . S
C76 C55 1.194 . S
C78 C59 1.273 . S
C80 C13 1.269 . S
C82 C17 1.229 . S
C84 C38 1.260 . S
C86 C34 1.244 . S
C88 C36 1.294 . S
C90 C18 1.293 . S
C92 C39 1.309 . S
C94 C57 1.280 . S
C96 C60 1.299 . S
C98 C15 1.312 . S
