# Generated by pormake.
# Topology dia, (4)-cn, num edge types: 1
# Building blocks:
#     Node 0, Type 0, BuildingBlock: AZAVOO_clean_sbu_0, # of connection points: 4
#     Node 1, Type 0, BuildingBlock: AZAVOO_clean_sbu_0, # of connection points: 4
#     Node 2, Type 0, BuildingBlock: AZAVOO_clean_sbu_0, # of connection points: 4
#     Node 3, Type 0, BuildingBlock: AZAVOO_clean_sbu_0, # of connection points: 4
#     Node 4, Type 0, BuildingBlock: AZAVOO_clean_sbu_0, # of connection points: 4
#     Node 5, Type 0, BuildingBlock: AZAVOO_clean_sbu_0, # of connection points: 4
#     Node 6, Type 0, BuildingBlock: AZAVOO_clean_sbu_0, # of connection points: 4
#     Node 7, Type 0, BuildingBlock: AZAVOO_clean_sbu_0, # of connection points: 4
#     Edge 8, Type (0, 0), None
#     Edge 9, Type (0, 0), None
#     Edge 10, Type (0, 0), None
#     Edge 11, Type (0, 0), None
#     Edge 12, Type (0, 0), None
#     Edge 13, Type (0, 0), None
#     Edge 14, Type (0, 0), None
#     Edge 15, Type (0, 0), None
#     Edge 16, Type (0, 0), None
#     Edge 17, Type (0, 0), None
#     Edge 18, Type (0, 0), None
#     Edge 19, Type (0, 0), None
#     Edge 20, Type (0, 0), None
#     Edge 21, Type (0, 0), None
#     Edge 22, Type (0, 0), None
#     Edge 23, Type (0, 0), None
# Relax obj value: 0.001
# Max RMSD: 0.014
# Mean RMSD: 0.014
data_MOF--net-dia--node1-AZAVOO_clean_sbu_0--edge1-none
_symmetry_space_group_name_H-M    P1
_symmetry_Int_Tables_number       1
_symmetry_cell_setting            triclinic
loop_
_symmetry_equiv_pos_as_xyz
'x, y, z'
_cell_length_a     14.208056
_cell_length_b     14.975716
_cell_length_c     14.207515
_cell_angle_alpha  95.852275
_cell_angle_beta   114.24777
_cell_angle_gamma 95.855253
loop_
_atom_site_label
_atom_site_type_symbol
_atom_site_fract_x
_atom_site_fract_y
_atom_site_fract_z
_atom_type_partial_charge
Mg0 Mg 0.30937 0.24682 0.82149 0.0
O1 O 0.18539 0.12089 0.72878 0.0
O2 O 1.03914 0.16859 0.62355 0.0
Mg3 Mg 1.06331 0.32366 0.66268 0.0
C4 C 1.09163 0.10526 0.65749 0.0
C5 C 0.45477 0.08632 0.83443 0.0
O6 O 0.54395 1.05575 0.87615 0.0
O7 O 0.3243 0.27419 0.67253 0.0
O8 O 0.17829 0.33092 0.58562 0.0
O9 O 0.2611 0.24552 0.95198 0.0
O10 O 0.18776 0.3162 0.81683 0.0
C11 C 0.26609 0.30922 0.59504 0.0
C12 C 0.18841 0.29064 0.90098 0.0
O13 O 0.44827 0.1665 0.8681 0.0
Mg14 Mg 0.8799 0.36926 0.89201 0.0
O15 O 0.97259 0.4952 1.01599 0.0
O16 O 1.07782 0.44751 0.16225 0.0
Mg17 Mg 1.0387 0.29244 0.13808 0.0
C18 C 1.04388 0.51083 0.10975 0.0
C19 C 0.86694 0.52976 0.74659 0.0
O20 O 0.8252 0.56033 0.65741 0.0
O21 O 1.02886 0.34191 0.87709 0.0
O22 O 0.11576 0.28519 1.0231 0.0
O23 O 0.74941 0.37055 0.94027 0.0
O24 O 0.88455 0.29988 1.01362 0.0
C25 C 0.10635 0.30688 0.9353 0.0
C26 C 0.80041 0.32543 1.01296 0.0
O27 O 0.83327 0.44958 0.75309 0.0
Mg28 Mg 0.80936 0.24681 0.32148 0.0
O29 O 0.68538 0.12087 0.22879 0.0
O30 O 0.53913 0.16856 0.12355 0.0
Mg31 Mg 0.5633 0.32364 0.16267 0.0
C32 C 0.59162 0.10524 0.1575 0.0
C33 C 0.95478 0.08633 0.33442 0.0
O34 O 1.04395 1.05575 0.37615 0.0
O35 O 0.82429 0.27416 0.17252 0.0
O36 O 0.67828 0.33089 1.08561 0.0
O37 O 0.76109 0.24552 0.45198 0.0
O38 O 0.68775 0.31619 0.31682 0.0
C39 C 0.76608 0.30919 1.09503 0.0
C40 C 0.68841 0.29064 0.40097 0.0
O41 O 0.94827 0.1665 0.36811 0.0
Mg42 Mg 0.87988 0.86927 0.392 0.0
O43 O 0.97256 0.99523 0.51596 0.0
O44 O 1.0778 0.94755 0.66222 0.0
Mg45 Mg 1.03871 0.79248 0.63809 0.0
C46 C 1.04385 1.01086 0.60972 0.0
C47 C 0.86689 1.02973 0.24654 0.0
O48 O 0.82515 0.06031 0.15737 0.0
O49 O 1.02884 0.84192 0.37708 0.0
O50 O 0.11576 0.78521 0.5231 0.0
O51 O 0.7494 0.87055 0.44027 0.0
O52 O 0.88456 0.7999 0.51363 0.0
C53 C 0.10634 0.8069 0.4353 0.0
C54 C 0.80041 0.82545 0.51297 0.0
O55 O 0.83322 0.94956 0.25306 0.0
Mg56 Mg 0.30937 0.74682 0.3215 0.0
O57 O 0.18541 0.62086 0.22882 0.0
O58 O 1.03915 0.66855 0.12357 0.0
Mg59 Mg 1.0633 0.82362 0.16266 0.0
C60 C 1.09165 0.60523 0.15753 0.0
C61 C 0.45481 0.58636 0.33447 0.0
O62 O 0.54399 0.55579 0.37621 0.0
O63 O 0.3243 0.77417 0.17254 0.0
O64 O 0.17828 0.83087 1.08561 0.0
O65 O 0.2611 0.74554 0.45199 0.0
O66 O 0.18775 0.81619 0.31682 0.0
C67 C 0.26608 0.80918 1.09504 0.0
C68 C 0.1884 0.79064 0.40097 0.0
O69 O 0.44829 0.66653 0.36815 0.0
Mg70 Mg 0.3799 0.36928 0.39201 0.0
O71 O 0.47259 0.49522 0.51598 0.0
O72 O 0.57782 0.44753 0.66224 0.0
Mg73 Mg 0.53871 0.29246 0.63808 0.0
C74 C 0.54388 0.51085 0.60975 0.0
C75 C 0.36694 0.52976 0.24658 0.0
O76 O 0.32521 0.56034 0.15741 0.0
O77 O 0.52886 0.34192 0.37708 0.0
O78 O 0.61576 0.2852 0.5231 0.0
O79 O 0.24941 0.37057 0.44028 0.0
O80 O 0.38456 0.2999 0.51363 0.0
C81 C 0.60635 0.30689 0.4353 0.0
C82 C 0.30042 0.32547 0.51298 0.0
O83 O 0.33327 0.44959 0.25309 0.0
Mg84 Mg 0.37988 0.86925 0.892 0.0
O85 O 0.47256 0.99521 1.01596 0.0
O86 O 0.5778 0.94753 0.16223 0.0
Mg87 Mg 0.53871 0.79245 0.13809 0.0
C88 C 0.54385 1.01084 0.10973 0.0
C89 C 0.36689 1.02972 0.74655 0.0
O90 O 0.32514 0.0603 0.65737 0.0
O91 O 0.52885 0.84191 0.87708 0.0
O92 O 0.61576 0.7852 1.0231 0.0
O93 O 0.24939 0.87053 0.94027 0.0
O94 O 0.38455 0.79988 1.01363 0.0
C95 C 0.60634 0.80689 0.9353 0.0
C96 C 0.30041 0.82543 1.01297 0.0
O97 O 0.33322 0.94955 0.75307 0.0
Mg98 Mg 0.80937 0.74683 0.8215 0.0
O99 O 0.68541 0.62088 0.72881 0.0
O100 O 0.53916 0.66857 0.62357 0.0
Mg101 Mg 0.56331 0.82364 0.66268 0.0
C102 C 0.59165 0.60525 0.65752 0.0
C103 C 0.95481 0.58636 0.83447 0.0
O104 O 1.04399 0.55578 0.87621 0.0
O105 O 0.8243 0.77419 0.67254 0.0
O106 O 0.67829 0.8309 0.58562 0.0
O107 O 0.7611 0.74554 0.95199 0.0
O108 O 0.68776 0.81621 0.81683 0.0
C109 C 0.76609 0.80921 0.59504 0.0
C110 C 0.68841 0.79065 0.90098 0.0
O111 O 0.94829 0.66653 0.86815 0.0
loop_
_geom_bond_atom_site_label_1
_geom_bond_atom_site_label_2
_geom_bond_distance
_geom_bond_site_symmetry_2
_ccdc_geom_bond_type
Mg0 O1 2.028 . S
Mg0 O7 1.986 . S
Mg0 O9 2.114 . S
Mg0 O10 2.251 . S
Mg0 O13 2.010 . S
O1 Mg0 2.028 . S
O1 C4 1.250 . S
O2 Mg3 2.028 1_655 S
O2 C4 1.248 1_655 S
Mg3 O2 2.028 1_455 S
Mg3 O8 2.032 . S
Mg3 O10 2.079 . S
C4 O1 1.250 . S
C4 O2 1.248 1_455 S
C5 O6 1.264 . S
C5 O13 1.249 . S
O6 C5 1.264 . S
O7 Mg0 1.986 . S
O7 C11 1.246 . S
O8 Mg3 2.032 . S
O8 C11 1.259 . S
O9 Mg0 2.114 . S
O9 C12 1.252 . S
O10 Mg0 2.251 . S
O10 Mg3 2.079 . S
O10 C12 1.273 . S
C11 O7 1.246 . S
C11 O8 1.259 . S
C12 O9 1.252 . S
C12 O10 1.273 . S
O13 Mg0 2.010 . S
O13 C5 1.249 . S
Mg14 O15 2.028 . S
Mg14 O21 1.986 . S
Mg14 O23 2.114 . S
Mg14 O24 2.251 . S
Mg14 O27 2.010 . S
O15 Mg14 2.028 . S
O15 C18 1.250 . S
O16 Mg17 2.028 1_454 S
O16 C18 1.248 1_454 S
Mg17 O16 2.028 1_656 S
Mg17 O22 2.032 1_655 S
Mg17 O24 2.079 . S
C18 O15 1.250 . S
C18 O16 1.248 1_656 S
C19 O20 1.264 . S
C19 O27 1.249 . S
O20 C19 1.264 . S
O21 Mg14 1.986 . S
O21 C25 1.246 . S
O22 Mg17 2.032 1_455 S
O22 C25 1.259 1_455 S
O23 Mg14 2.114 . S
O23 C26 1.252 . S
O24 Mg14 2.251 . S
O24 Mg17 2.079 . S
O24 C26 1.273 . S
C25 O21 1.246 . S
C25 O22 1.259 1_655 S
C26 O23 1.252 . S
C26 O24 1.273 . S
O27 Mg14 2.010 . S
O27 C19 1.249 . S
Mg28 O29 2.028 . S
Mg28 O35 1.986 . S
Mg28 O37 2.114 . S
Mg28 O38 2.251 . S
Mg28 O41 2.010 . S
O29 Mg28 2.028 . S
O29 C32 1.250 . S
O30 Mg31 2.028 1_556 S
O30 C32 1.248 1_556 S
Mg31 O30 2.028 1_554 S
Mg31 O36 2.032 1_554 S
Mg31 O38 2.079 . S
C32 O29 1.250 . S
C32 O30 1.248 1_554 S
C33 O34 1.264 . S
C33 O41 1.249 . S
O34 C33 1.264 . S
O35 Mg28 1.986 . S
O35 C39 1.246 . S
O36 Mg31 2.032 1_556 S
O36 C39 1.259 1_556 S
O37 Mg28 2.114 . S
O37 C40 1.252 . S
O38 Mg28 2.251 . S
O38 Mg31 2.079 . S
O38 C40 1.273 . S
C39 O35 1.246 . S
C39 O36 1.259 1_554 S
C40 O37 1.252 . S
C40 O38 1.273 . S
O41 Mg28 2.010 . S
O41 C33 1.249 . S
Mg42 O43 2.028 . S
Mg42 O49 1.986 . S
Mg42 O51 2.114 . S
Mg42 O52 2.251 . S
Mg42 O55 2.010 . S
O43 Mg42 2.028 . S
O43 C46 1.250 . S
O44 Mg45 2.028 1_455 S
O44 C46 1.248 1_455 S
Mg45 O44 2.028 1_655 S
Mg45 O50 2.032 1_655 S
Mg45 O52 2.079 . S
C46 O43 1.250 . S
C46 O44 1.248 1_655 S
C47 O48 1.264 . S
C47 O55 1.249 . S
O48 C47 1.264 . S
O49 Mg42 1.986 . S
O49 C53 1.246 . S
O50 Mg45 2.032 1_455 S
O50 C53 1.259 1_455 S
O51 Mg42 2.114 . S
O51 C54 1.252 . S
O52 Mg42 2.251 . S
O52 Mg45 2.079 . S
O52 C54 1.273 . S
C53 O49 1.246 . S
C53 O50 1.259 1_655 S
C54 O51 1.252 . S
C54 O52 1.273 . S
O55 Mg42 2.010 . S
O55 C47 1.249 . S
Mg56 O57 2.028 . S
Mg56 O63 1.986 . S
Mg56 O65 2.114 . S
Mg56 O66 2.251 . S
Mg56 O69 2.010 . S
O57 Mg56 2.028 . S
O57 C60 1.250 . S
O58 Mg59 2.028 1_656 S
O58 C60 1.248 1_656 S
Mg59 O58 2.028 1_454 S
Mg59 O64 2.032 1_554 S
Mg59 O66 2.079 . S
C60 O57 1.250 . S
C60 O58 1.248 1_454 S
C61 O62 1.264 . S
C61 O69 1.249 . S
O62 C61 1.264 . S
O63 Mg56 1.986 . S
O63 C67 1.246 . S
O64 Mg59 2.032 1_556 S
O64 C67 1.259 1_556 S
O65 Mg56 2.114 . S
O65 C68 1.252 . S
O66 Mg56 2.251 . S
O66 Mg59 2.079 . S
O66 C68 1.273 . S
C67 O63 1.246 . S
C67 O64 1.259 1_554 S
C68 O65 1.252 . S
C68 O66 1.273 . S
O69 Mg56 2.010 . S
O69 C61 1.249 . S
Mg70 O71 2.028 . S
Mg70 O77 1.986 . S
Mg70 O79 2.114 . S
Mg70 O80 2.251 . S
Mg70 O83 2.010 . S
O71 Mg70 2.028 . S
O71 C74 1.250 . S
O72 Mg73 2.028 . S
O72 C74 1.248 . S
Mg73 O72 2.028 . S
Mg73 O78 2.032 . S
Mg73 O80 2.079 . S
C74 O71 1.250 . S
C74 O72 1.248 . S
C75 O76 1.264 . S
C75 O83 1.249 . S
O76 C75 1.264 . S
O77 Mg70 1.986 . S
O77 C81 1.246 . S
O78 Mg73 2.032 . S
O78 C81 1.259 . S
O79 Mg70 2.114 . S
O79 C82 1.252 . S
O80 Mg70 2.251 . S
O80 Mg73 2.079 . S
O80 C82 1.273 . S
C81 O77 1.246 . S
C81 O78 1.259 . S
C82 O79 1.252 . S
C82 O80 1.273 . S
O83 Mg70 2.010 . S
O83 C75 1.249 . S
Mg84 O85 2.028 . S
Mg84 O91 1.986 . S
Mg84 O93 2.114 . S
Mg84 O94 2.251 . S
Mg84 O97 2.010 . S
O85 Mg84 2.028 . S
O85 C88 1.250 . S
O86 Mg87 2.028 1_554 S
O86 C88 1.248 1_554 S
Mg87 O86 2.028 1_556 S
Mg87 O92 2.032 . S
Mg87 O94 2.079 . S
C88 O85 1.250 . S
C88 O86 1.248 1_556 S
C89 O90 1.264 . S
C89 O97 1.249 . S
O90 C89 1.264 . S
O91 Mg84 1.986 . S
O91 C95 1.246 . S
O92 Mg87 2.032 . S
O92 C95 1.259 . S
O93 Mg84 2.114 . S
O93 C96 1.252 . S
O94 Mg84 2.251 . S
O94 Mg87 2.079 . S
O94 C96 1.273 . S
C95 O91 1.246 . S
C95 O92 1.259 . S
C96 O93 1.252 . S
C96 O94 1.273 . S
O97 Mg84 2.010 . S
O97 C89 1.249 . S
Mg98 O99 2.028 . S
Mg98 O105 1.986 . S
Mg98 O107 2.114 . S
Mg98 O108 2.251 . S
Mg98 O111 2.010 . S
O99 Mg98 2.028 . S
O99 C102 1.250 . S
O100 Mg101 2.028 . S
O100 C102 1.248 . S
Mg101 O100 2.028 . S
Mg101 O106 2.032 . S
Mg101 O108 2.079 . S
C102 O99 1.250 . S
C102 O100 1.248 . S
C103 O104 1.264 . S
C103 O111 1.249 . S
O104 C103 1.264 . S
O105 Mg98 1.986 . S
O105 C109 1.246 . S
O106 Mg101 2.032 . S
O106 C109 1.259 . S
O107 Mg98 2.114 . S
O107 C110 1.252 . S
O108 Mg98 2.251 . S
O108 Mg101 2.079 . S
O108 C110 1.273 . S
C109 O105 1.246 . S
C109 O106 1.259 . S
C110 O107 1.252 . S
C110 O108 1.273 . S
O111 Mg98 2.010 . S
O111 C103 1.249 . S
C82 C11 1.471 . S
C103 C19 1.499 . S
C32 C88 1.501 1_544 S
C53 C68 1.471 1_655 S
C89 C5 1.499 1_565 S
C18 C60 1.501 1_656 S
C81 C40 1.471 . S
C54 C109 1.471 . S
C61 C75 1.499 . S
C26 C39 1.471 1_556 S
C47 C33 1.499 1_565 S
C46 C4 1.501 1_665 S
C25 C12 1.471 1_655 S
C110 C95 1.471 . S
C67 C96 1.471 1_554 S
C74 C102 1.501 . S
