# Generated by pormake.
# Topology ukt, (4)-cn, num edge types: 1
# Building blocks:
#     Node 0, Type 0, BuildingBlock: NAHDIM_clean_sbu_0, # of connection points: 4
#     Node 1, Type 0, BuildingBlock: NAHDIM_clean_sbu_0, # of connection points: 4
#     Node 2, Type 0, BuildingBlock: NAHDIM_clean_sbu_0, # of connection points: 4
#     Node 3, Type 0, BuildingBlock: NAHDIM_clean_sbu_0, # of connection points: 4
#     Node 4, Type 0, BuildingBlock: NAHDIM_clean_sbu_0, # of connection points: 4
#     Node 5, Type 0, BuildingBlock: NAHDIM_clean_sbu_0, # of connection points: 4
#     Node 6, Type 0, BuildingBlock: NAHDIM_clean_sbu_0, # of connection points: 4
#     Node 7, Type 0, BuildingBlock: NAHDIM_clean_sbu_0, # of connection points: 4
#     Node 8, Type 0, BuildingBlock: NAHDIM_clean_sbu_0, # of connection points: 4
#     Node 9, Type 0, BuildingBlock: NAHDIM_clean_sbu_0, # of connection points: 4
#     Node 10, Type 0, BuildingBlock: NAHDIM_clean_sbu_0, # of connection points: 4
#     Node 11, Type 0, BuildingBlock: NAHDIM_clean_sbu_0, # of connection points: 4
#     Node 12, Type 0, BuildingBlock: NAHDIM_clean_sbu_0, # of connection points: 4
#     Node 13, Type 0, BuildingBlock: NAHDIM_clean_sbu_0, # of connection points: 4
#     Node 14, Type 0, BuildingBlock: NAHDIM_clean_sbu_0, # of connection points: 4
#     Node 15, Type 0, BuildingBlock: NAHDIM_clean_sbu_0, # of connection points: 4
#     Edge 16, Type (0, 0), None
#     Edge 17, Type (0, 0), None
#     Edge 18, Type (0, 0), None
#     Edge 19, Type (0, 0), None
#     Edge 20, Type (0, 0), None
#     Edge 21, Type (0, 0), None
#     Edge 22, Type (0, 0), None
#     Edge 23, Type (0, 0), None
#     Edge 24, Type (0, 0), None
#     Edge 25, Type (0, 0), None
#     Edge 26, Type (0, 0), None
#     Edge 27, Type (0, 0), None
#     Edge 28, Type (0, 0), None
#     Edge 29, Type (0, 0), None
#     Edge 30, Type (0, 0), None
#     Edge 31, Type (0, 0), None
#     Edge 32, Type (0, 0), None
#     Edge 33, Type (0, 0), None
#     Edge 34, Type (0, 0), None
#     Edge 35, Type (0, 0), None
#     Edge 36, Type (0, 0), None
#     Edge 37, Type (0, 0), None
#     Edge 38, Type (0, 0), None
#     Edge 39, Type (0, 0), None
#     Edge 40, Type (0, 0), None
#     Edge 41, Type (0, 0), None
#     Edge 42, Type (0, 0), None
#     Edge 43, Type (0, 0), None
#     Edge 44, Type (0, 0), None
#     Edge 45, Type (0, 0), None
#     Edge 46, Type (0, 0), None
#     Edge 47, Type (0, 0), None
# Relax obj value: 0.307
# Max RMSD: 0.220
# Mean RMSD: 0.220
data_MOF--net-ukt--node1-NAHDIM_clean_sbu_0--edge1-none
_symmetry_space_group_name_H-M    P1
_symmetry_Int_Tables_number       1
_symmetry_cell_setting            triclinic
loop_
_symmetry_equiv_pos_as_xyz
'x, y, z'
_cell_length_a     20.534793
_cell_length_b     20.534793
_cell_length_c     15.311213
_cell_angle_alpha  89.999995
_cell_angle_beta   90.000022
_cell_angle_gamma 90.0
loop_
_atom_site_label
_atom_site_type_symbol
_atom_site_fract_x
_atom_site_fract_y
_atom_site_fract_z
_atom_type_partial_charge
C0 C 0.50114 -0.00367 0.01783 0.0
O1 O 0.55254 -0.00207 0.96682 0.0
O2 O 0.5692 0.14414 0.21655 0.0
Zn3 Zn 0.57575 0.09069 0.10494 0.0
O4 O 0.6566 0.03617 0.10404 0.0
C5 C 0.54635 0.18433 0.9632 0.0
O6 O 0.48486 0.18039 0.98617 0.0
O7 O 0.49858 0.0333 0.08426 0.0
C8 C 0.70828 0.06994 0.10284 0.0
O9 O 0.70436 0.13248 0.12024 0.0
C10 C 0.56973 0.20623 0.21667 0.0
O11 O 0.57337 0.23823 0.1427 0.0
O12 O 0.58864 0.15044 1.00287 0.0
C13 C 0.45211 0.50114 0.01783 0.0
O14 O 0.45051 0.55254 0.96682 0.0
O15 O 0.3043 0.5692 0.21655 0.0
Zn16 Zn 0.35775 0.57575 0.10494 0.0
O17 O 0.41226 0.6566 0.10404 0.0
C18 C 0.26411 0.54635 0.9632 0.0
O19 O 0.26805 0.48486 0.98617 0.0
O20 O 0.41514 0.49858 0.08426 0.0
C21 C 0.3785 0.70828 0.10284 0.0
O22 O 0.31596 0.70436 0.12024 0.0
C23 C 0.24221 0.56973 0.21667 0.0
O24 O 0.21021 0.57337 0.1427 0.0
O25 O 0.298 0.58864 1.00287 0.0
C26 C 0.9473 0.45211 0.01783 0.0
O27 O 0.8959 0.45051 0.96682 0.0
O28 O 0.87924 0.3043 0.21655 0.0
Zn29 Zn 0.87269 0.35775 0.10494 0.0
O30 O 0.79184 0.41226 0.10404 0.0
C31 C 0.90209 0.26411 0.9632 0.0
O32 O 0.96358 0.26805 0.98617 0.0
O33 O 0.94986 0.41514 0.08426 0.0
C34 C 0.74016 0.3785 0.10284 0.0
O35 O 0.74408 0.31596 0.12024 0.0
C36 C 0.87871 0.24221 0.21667 0.0
O37 O 0.87507 0.21021 0.1427 0.0
O38 O 0.8598 0.298 1.00287 0.0
C39 C -0.00367 0.9473 0.01783 0.0
O40 O -0.00207 0.8959 0.96682 0.0
O41 O 0.14414 0.87924 0.21655 0.0
Zn42 Zn 0.09069 0.87269 0.10494 0.0
O43 O 0.03617 0.79184 0.10404 0.0
C44 C 0.18433 0.90209 0.9632 0.0
O45 O 0.18039 0.96358 0.98617 0.0
O46 O 0.0333 0.94986 0.08426 0.0
C47 C 0.06994 0.74016 0.10284 0.0
O48 O 0.13248 0.74408 0.12024 0.0
C49 C 0.20623 0.87871 0.21667 0.0
O50 O 0.23823 0.87507 0.1427 0.0
O51 O 0.15044 0.8598 1.00287 0.0
C52 C 0.50114 0.45211 0.49822 0.0
O53 O 0.55254 0.45051 0.54923 0.0
O54 O 0.5692 0.3043 0.29951 0.0
Zn55 Zn 0.57575 0.35775 0.41111 0.0
O56 O 0.6566 0.41226 0.41202 0.0
C57 C 0.54635 0.26411 0.55285 0.0
O58 O 0.48486 0.26805 0.52989 0.0
O59 O 0.49858 0.41514 0.4318 0.0
C60 C 0.70828 0.3785 0.41321 0.0
O61 O 0.70436 0.31596 0.39581 0.0
C62 C 0.56973 0.24221 0.29938 0.0
O63 O 0.57337 0.21021 0.37336 0.0
O64 O 0.58864 0.298 0.51318 0.0
C65 C -0.00367 0.50114 0.49822 0.0
O66 O -0.00207 0.55254 0.54923 0.0
O67 O 0.14414 0.5692 0.29951 0.0
Zn68 Zn 0.09069 0.57575 0.41111 0.0
O69 O 0.03617 0.6566 0.41202 0.0
C70 C 0.18433 0.54635 0.55285 0.0
O71 O 0.18039 0.48486 0.52989 0.0
O72 O 0.0333 0.49858 0.4318 0.0
C73 C 0.06994 0.70828 0.41321 0.0
O74 O 0.13248 0.70436 0.39581 0.0
C75 C 0.20623 0.56973 0.29938 0.0
O76 O 0.23823 0.57337 0.37336 0.0
O77 O 0.15044 0.58864 0.51318 0.0
C78 C 0.9473 -0.00367 0.49822 0.0
O79 O 0.8959 -0.00207 0.54923 0.0
O80 O 0.87924 0.14414 0.29951 0.0
Zn81 Zn 0.87269 0.09069 0.41111 0.0
O82 O 0.79184 0.03617 0.41202 0.0
C83 C 0.90209 0.18433 0.55285 0.0
O84 O 0.96358 0.18039 0.52989 0.0
O85 O 0.94986 0.0333 0.4318 0.0
C86 C 0.74016 0.06994 0.41321 0.0
O87 O 0.74408 0.13248 0.39581 0.0
C88 C 0.87871 0.20623 0.29938 0.0
O89 O 0.87507 0.23823 0.37336 0.0
O90 O 0.8598 0.15044 0.51318 0.0
C91 C 0.45211 0.9473 0.49822 0.0
O92 O 0.45051 0.8959 0.54923 0.0
O93 O 0.3043 0.87924 0.29951 0.0
Zn94 Zn 0.35775 0.87269 0.41111 0.0
O95 O 0.41226 0.79184 0.41202 0.0
C96 C 0.26411 0.90209 0.55285 0.0
O97 O 0.26805 0.96358 0.52989 0.0
O98 O 0.41514 0.94986 0.4318 0.0
C99 C 0.3785 0.74016 0.41321 0.0
O100 O 0.31596 0.74408 0.39581 0.0
C101 C 0.24221 0.87871 0.29938 0.0
O102 O 0.21021 0.87507 0.37336 0.0
O103 O 0.298 0.8598 0.51318 0.0
C104 C 0.4473 0.95213 0.9982 0.0
O105 O 0.3959 0.95053 0.04921 0.0
O106 O 0.37925 0.8043 0.7995 0.0
Zn107 Zn 0.3727 0.85776 0.9111 0.0
O108 O 0.29185 0.91226 0.912 0.0
C109 C 0.40211 0.76414 0.05285 0.0
O110 O 0.46361 0.76804 0.02989 0.0
O111 O 0.44986 0.91516 0.93177 0.0
C112 C 0.24017 0.87849 0.91316 0.0
O113 O 0.24407 0.81595 0.89576 0.0
C114 C 0.37872 0.74221 0.79938 0.0
O115 O 0.37508 0.71022 0.87336 0.0
O116 O 0.35981 0.79802 0.01317 0.0
C117 C 0.49631 0.4473 0.9982 0.0
O118 O 0.49791 0.3959 0.04921 0.0
O119 O 0.64414 0.37925 0.7995 0.0
Zn120 Zn 0.59068 0.3727 0.9111 0.0
O121 O 0.53617 0.29185 0.912 0.0
C122 C 0.6843 0.40211 0.05285 0.0
O123 O 0.6804 0.46361 0.02989 0.0
O124 O 0.53328 0.44986 0.93177 0.0
C125 C 0.56995 0.24017 0.91316 0.0
O126 O 0.63249 0.24407 0.89576 0.0
C127 C 0.70623 0.37872 0.79938 0.0
O128 O 0.73822 0.37508 0.87336 0.0
O129 O 0.65042 0.35981 0.01317 0.0
C130 C 0.00114 0.49631 0.9982 0.0
O131 O 0.05254 0.49791 0.04921 0.0
O132 O 0.06919 0.64414 0.7995 0.0
Zn133 Zn 0.07574 0.59068 0.9111 0.0
O134 O 0.15659 0.53617 0.912 0.0
C135 C 0.04633 0.6843 0.05285 0.0
O136 O -0.01517 0.6804 0.02989 0.0
O137 O -0.00142 0.53328 0.93177 0.0
C138 C 0.20827 0.56995 0.91316 0.0
O139 O 0.20437 0.63249 0.89576 0.0
C140 C 0.06972 0.70623 0.79938 0.0
O141 O 0.07336 0.73822 0.87336 0.0
O142 O 0.08863 0.65042 0.01317 0.0
C143 C 0.95213 0.00114 0.9982 0.0
O144 O 0.95053 0.05254 0.04921 0.0
O145 O 0.8043 0.06919 0.7995 0.0
Zn146 Zn 0.85776 0.07574 0.9111 0.0
O147 O 0.91226 0.15659 0.912 0.0
C148 C 0.76414 0.04633 0.05285 0.0
O149 O 0.76804 -0.01517 0.02989 0.0
O150 O 0.91516 -0.00142 0.93177 0.0
C151 C 0.87849 0.20827 0.91316 0.0
O152 O 0.81595 0.20437 0.89576 0.0
C153 C 0.74221 0.06972 0.79938 0.0
O154 O 0.71022 0.07336 0.87336 0.0
O155 O 0.79802 0.08863 0.01317 0.0
C156 C 0.4473 0.49631 0.51785 0.0
O157 O 0.3959 0.49791 0.46685 0.0
O158 O 0.37925 0.64414 0.71656 0.0
Zn159 Zn 0.3727 0.59068 0.60496 0.0
O160 O 0.29185 0.53617 0.60405 0.0
C161 C 0.40211 0.6843 0.46321 0.0
O162 O 0.46361 0.6804 0.48616 0.0
O163 O 0.44986 0.53328 0.58428 0.0
C164 C 0.24017 0.56995 0.60289 0.0
O165 O 0.24407 0.63249 0.6203 0.0
C166 C 0.37872 0.70623 0.71667 0.0
O167 O 0.37508 0.73822 0.64269 0.0
O168 O 0.35981 0.65042 0.50288 0.0
C169 C 0.95213 0.4473 0.51785 0.0
O170 O 0.95053 0.3959 0.46685 0.0
O171 O 0.8043 0.37925 0.71656 0.0
Zn172 Zn 0.85776 0.3727 0.60496 0.0
O173 O 0.91226 0.29185 0.60405 0.0
C174 C 0.76414 0.40211 0.46321 0.0
O175 O 0.76804 0.46361 0.48616 0.0
O176 O 0.91516 0.44986 0.58428 0.0
C177 C 0.87849 0.24017 0.60289 0.0
O178 O 0.81595 0.24407 0.6203 0.0
C179 C 0.74221 0.37872 0.71667 0.0
O180 O 0.71022 0.37508 0.64269 0.0
O181 O 0.79802 0.35981 0.50288 0.0
C182 C 0.00114 0.95213 0.51785 0.0
O183 O 0.05254 0.95053 0.46685 0.0
O184 O 0.06919 0.8043 0.71656 0.0
Zn185 Zn 0.07574 0.85776 0.60496 0.0
O186 O 0.15659 0.91226 0.60405 0.0
C187 C 0.04633 0.76414 0.46321 0.0
O188 O -0.01517 0.76804 0.48616 0.0
O189 O -0.00142 0.91516 0.58428 0.0
C190 C 0.20827 0.87849 0.60289 0.0
O191 O 0.20437 0.81595 0.6203 0.0
C192 C 0.06972 0.74221 0.71667 0.0
O193 O 0.07336 0.71022 0.64269 0.0
O194 O 0.08863 0.79802 0.50288 0.0
C195 C 0.49631 0.00114 0.51785 0.0
O196 O 0.49791 0.05254 0.46685 0.0
O197 O 0.64414 0.06919 0.71656 0.0
Zn198 Zn 0.59068 0.07574 0.60496 0.0
O199 O 0.53617 0.15659 0.60405 0.0
C200 C 0.6843 0.04633 0.46321 0.0
O201 O 0.6804 -0.01517 0.48616 0.0
O202 O 0.53328 -0.00142 0.58428 0.0
C203 C 0.56995 0.20827 0.60289 0.0
O204 O 0.63249 0.20437 0.6203 0.0
C205 C 0.70623 0.06972 0.71667 0.0
O206 O 0.73822 0.07336 0.64269 0.0
O207 O 0.65042 0.08863 0.50288 0.0
loop_
_geom_bond_atom_site_label_1
_geom_bond_atom_site_label_2
_geom_bond_distance
_geom_bond_site_symmetry_2
_ccdc_geom_bond_type
C0 O1 1.160 . S
C0 O7 1.185 . S
O1 C0 1.160 . S
O2 Zn3 1.899 . S
O2 C10 1.284 . S
Zn3 O2 1.899 . S
Zn3 O4 2.032 . S
Zn3 O7 2.086 . S
Zn3 O12 1.977 1_554 S
O4 Zn3 2.032 . S
O4 C8 1.278 . S
C5 O6 1.203 1_556 S
C5 O12 1.267 . S
O6 C5 1.203 1_554 S
O7 C0 1.185 . S
O7 Zn3 2.086 . S
C8 O4 1.278 . S
C8 O9 1.211 . S
O9 C8 1.211 . S
C10 O2 1.284 . S
C10 O11 1.273 . S
O11 C10 1.273 . S
O12 Zn3 1.977 1_556 S
O12 C5 1.267 . S
C13 O14 1.160 . S
C13 O20 1.185 . S
O14 C13 1.160 . S
O15 Zn16 1.899 . S
O15 C23 1.284 . S
Zn16 O15 1.899 . S
Zn16 O17 2.032 . S
Zn16 O20 2.086 . S
Zn16 O25 1.977 1_554 S
O17 Zn16 2.032 . S
O17 C21 1.278 . S
C18 O19 1.203 1_556 S
C18 O25 1.267 . S
O19 C18 1.203 1_554 S
O20 C13 1.185 . S
O20 Zn16 2.086 . S
C21 O17 1.278 . S
C21 O22 1.211 . S
O22 C21 1.211 . S
C23 O15 1.284 . S
C23 O24 1.273 . S
O24 C23 1.273 . S
O25 Zn16 1.977 1_556 S
O25 C18 1.267 . S
C26 O27 1.160 . S
C26 O33 1.185 . S
O27 C26 1.160 . S
O28 Zn29 1.899 . S
O28 C36 1.284 . S
Zn29 O28 1.899 . S
Zn29 O30 2.032 . S
Zn29 O33 2.086 1_655 S
Zn29 O38 1.977 1_554 S
O30 Zn29 2.032 . S
O30 C34 1.278 . S
C31 O32 1.203 1_556 S
C31 O38 1.267 . S
O32 C31 1.203 1_554 S
O33 C26 1.185 . S
O33 Zn29 2.086 1_455 S
C34 O30 1.278 . S
C34 O35 1.211 . S
O35 C34 1.211 . S
C36 O28 1.284 . S
C36 O37 1.273 . S
O37 C36 1.273 . S
O38 Zn29 1.977 1_556 S
O38 C31 1.267 . S
C39 O40 1.160 . S
C39 O46 1.185 . S
O40 C39 1.160 . S
O41 Zn42 1.899 . S
O41 C49 1.284 . S
Zn42 O41 1.899 . S
Zn42 O43 2.032 . S
Zn42 O46 2.086 1_565 S
Zn42 O51 1.977 1_554 S
O43 Zn42 2.032 . S
O43 C47 1.278 . S
C44 O45 1.203 1_556 S
C44 O51 1.267 . S
O45 C44 1.203 1_554 S
O46 C39 1.185 . S
O46 Zn42 2.086 1_545 S
C47 O43 1.278 . S
C47 O48 1.211 . S
O48 C47 1.211 . S
C49 O41 1.284 . S
C49 O50 1.273 . S
O50 C49 1.273 . S
O51 Zn42 1.977 1_556 S
O51 C44 1.267 . S
C52 O53 1.160 . S
C52 O59 1.185 . S
O53 C52 1.160 . S
O54 Zn55 1.899 . S
O54 C62 1.284 . S
Zn55 O54 1.899 . S
Zn55 O56 2.032 . S
Zn55 O59 2.086 . S
Zn55 O64 1.977 . S
O56 Zn55 2.032 . S
O56 C60 1.278 . S
C57 O58 1.203 . S
C57 O64 1.267 . S
O58 C57 1.203 . S
O59 C52 1.185 . S
O59 Zn55 2.086 . S
C60 O56 1.278 . S
C60 O61 1.211 . S
O61 C60 1.211 . S
C62 O54 1.284 . S
C62 O63 1.273 . S
O63 C62 1.273 . S
O64 Zn55 1.977 . S
O64 C57 1.267 . S
C65 O66 1.160 . S
C65 O72 1.185 . S
O66 C65 1.160 . S
O67 Zn68 1.899 . S
O67 C75 1.284 . S
Zn68 O67 1.899 . S
Zn68 O69 2.032 . S
Zn68 O72 2.086 . S
Zn68 O77 1.977 . S
O69 Zn68 2.032 . S
O69 C73 1.278 . S
C70 O71 1.203 . S
C70 O77 1.267 . S
O71 C70 1.203 . S
O72 C65 1.185 . S
O72 Zn68 2.086 . S
C73 O69 1.278 . S
C73 O74 1.211 . S
O74 C73 1.211 . S
C75 O67 1.284 . S
C75 O76 1.273 . S
O76 C75 1.273 . S
O77 Zn68 1.977 . S
O77 C70 1.267 . S
C78 O79 1.160 . S
C78 O85 1.185 . S
O79 C78 1.160 . S
O80 Zn81 1.899 . S
O80 C88 1.284 . S
Zn81 O80 1.899 . S
Zn81 O82 2.032 . S
Zn81 O85 2.086 1_655 S
Zn81 O90 1.977 . S
O82 Zn81 2.032 . S
O82 C86 1.278 . S
C83 O84 1.203 . S
C83 O90 1.267 . S
O84 C83 1.203 . S
O85 C78 1.185 . S
O85 Zn81 2.086 1_455 S
C86 O82 1.278 . S
C86 O87 1.211 . S
O87 C86 1.211 . S
C88 O80 1.284 . S
C88 O89 1.273 . S
O89 C88 1.273 . S
O90 Zn81 1.977 . S
O90 C83 1.267 . S
C91 O92 1.160 . S
C91 O98 1.185 . S
O92 C91 1.160 . S
O93 Zn94 1.899 . S
O93 C101 1.284 . S
Zn94 O93 1.899 . S
Zn94 O95 2.032 . S
Zn94 O98 2.086 1_565 S
Zn94 O103 1.977 . S
O95 Zn94 2.032 . S
O95 C99 1.278 . S
C96 O97 1.203 . S
C96 O103 1.267 . S
O97 C96 1.203 . S
O98 C91 1.185 . S
O98 Zn94 2.086 1_545 S
C99 O95 1.278 . S
C99 O100 1.211 . S
O100 C99 1.211 . S
C101 O93 1.284 . S
C101 O102 1.273 . S
O102 C101 1.273 . S
O103 Zn94 1.977 . S
O103 C96 1.267 . S
C104 O105 1.160 . S
C104 O111 1.185 . S
O105 C104 1.160 . S
O106 Zn107 1.899 . S
O106 C114 1.284 . S
Zn107 O106 1.899 . S
Zn107 O108 2.032 . S
Zn107 O111 2.086 . S
Zn107 O116 1.977 1_556 S
O108 Zn107 2.032 . S
O108 C112 1.278 . S
C109 O110 1.203 1_554 S
C109 O116 1.267 . S
O110 C109 1.203 1_556 S
O111 C104 1.185 . S
O111 Zn107 2.086 . S
C112 O108 1.278 . S
C112 O113 1.211 . S
O113 C112 1.211 . S
C114 O106 1.284 . S
C114 O115 1.273 . S
O115 C114 1.273 . S
O116 Zn107 1.977 1_554 S
O116 C109 1.267 . S
C117 O118 1.160 . S
C117 O124 1.185 . S
O118 C117 1.160 . S
O119 Zn120 1.899 . S
O119 C127 1.284 . S
Zn120 O119 1.899 . S
Zn120 O121 2.032 . S
Zn120 O124 2.086 . S
Zn120 O129 1.977 1_556 S
O121 Zn120 2.032 . S
O121 C125 1.278 . S
C122 O123 1.203 1_554 S
C122 O129 1.267 . S
O123 C122 1.203 1_556 S
O124 C117 1.185 . S
O124 Zn120 2.086 . S
C125 O121 1.278 . S
C125 O126 1.211 . S
O126 C125 1.211 . S
C127 O119 1.284 . S
C127 O128 1.273 . S
O128 C127 1.273 . S
O129 Zn120 1.977 1_554 S
O129 C122 1.267 . S
C130 O131 1.160 . S
C130 O137 1.185 . S
O131 C130 1.160 . S
O132 Zn133 1.899 . S
O132 C140 1.284 . S
Zn133 O132 1.899 . S
Zn133 O134 2.032 . S
Zn133 O137 2.086 1_455 S
Zn133 O142 1.977 1_556 S
O134 Zn133 2.032 . S
O134 C138 1.278 . S
C135 O136 1.203 1_554 S
C135 O142 1.267 . S
O136 C135 1.203 1_556 S
O137 C130 1.185 . S
O137 Zn133 2.086 1_655 S
C138 O134 1.278 . S
C138 O139 1.211 . S
O139 C138 1.211 . S
C140 O132 1.284 . S
C140 O141 1.273 . S
O141 C140 1.273 . S
O142 Zn133 1.977 1_554 S
O142 C135 1.267 . S
C143 O144 1.160 . S
C143 O150 1.185 . S
O144 C143 1.160 . S
O145 Zn146 1.899 . S
O145 C153 1.284 . S
Zn146 O145 1.899 . S
Zn146 O147 2.032 . S
Zn146 O150 2.086 1_545 S
Zn146 O155 1.977 1_556 S
O147 Zn146 2.032 . S
O147 C151 1.278 . S
C148 O149 1.203 1_554 S
C148 O155 1.267 . S
O149 C148 1.203 1_556 S
O150 C143 1.185 . S
O150 Zn146 2.086 1_565 S
C151 O147 1.278 . S
C151 O152 1.211 . S
O152 C151 1.211 . S
C153 O145 1.284 . S
C153 O154 1.273 . S
O154 C153 1.273 . S
O155 Zn146 1.977 1_554 S
O155 C148 1.267 . S
C156 O157 1.160 . S
C156 O163 1.185 . S
O157 C156 1.160 . S
O158 Zn159 1.899 . S
O158 C166 1.284 . S
Zn159 O158 1.899 . S
Zn159 O160 2.032 . S
Zn159 O163 2.086 . S
Zn159 O168 1.977 . S
O160 Zn159 2.032 . S
O160 C164 1.278 . S
C161 O162 1.203 . S
C161 O168 1.267 . S
O162 C161 1.203 . S
O163 C156 1.185 . S
O163 Zn159 2.086 . S
C164 O160 1.278 . S
C164 O165 1.211 . S
O165 C164 1.211 . S
C166 O158 1.284 . S
C166 O167 1.273 . S
O167 C166 1.273 . S
O168 Zn159 1.977 . S
O168 C161 1.267 . S
C169 O170 1.160 . S
C169 O176 1.185 . S
O170 C169 1.160 . S
O171 Zn172 1.899 . S
O171 C179 1.284 . S
Zn172 O171 1.899 . S
Zn172 O173 2.032 . S
Zn172 O176 2.086 . S
Zn172 O181 1.977 . S
O173 Zn172 2.032 . S
O173 C177 1.278 . S
C174 O175 1.203 . S
C174 O181 1.267 . S
O175 C174 1.203 . S
O176 C169 1.185 . S
O176 Zn172 2.086 . S
C177 O173 1.278 . S
C177 O178 1.211 . S
O178 C177 1.211 . S
C179 O171 1.284 . S
C179 O180 1.273 . S
O180 C179 1.273 . S
O181 Zn172 1.977 . S
O181 C174 1.267 . S
C182 O183 1.160 . S
C182 O189 1.185 . S
O183 C182 1.160 . S
O184 Zn185 1.899 . S
O184 C192 1.284 . S
Zn185 O184 1.899 . S
Zn185 O186 2.032 . S
Zn185 O189 2.086 1_455 S
Zn185 O194 1.977 . S
O186 Zn185 2.032 . S
O186 C190 1.278 . S
C187 O188 1.203 . S
C187 O194 1.267 . S
O188 C187 1.203 . S
O189 C182 1.185 . S
O189 Zn185 2.086 1_655 S
C190 O186 1.278 . S
C190 O191 1.211 . S
O191 C190 1.211 . S
C192 O184 1.284 . S
C192 O193 1.273 . S
O193 C192 1.273 . S
O194 Zn185 1.977 . S
O194 C187 1.267 . S
C195 O196 1.160 . S
C195 O202 1.185 . S
O196 C195 1.160 . S
O197 Zn198 1.899 . S
O197 C205 1.284 . S
Zn198 O197 1.899 . S
Zn198 O199 2.032 . S
Zn198 O202 2.086 1_545 S
Zn198 O207 1.977 . S
O199 Zn198 2.032 . S
O199 C203 1.278 . S
C200 O201 1.203 . S
C200 O207 1.267 . S
O201 C200 1.203 . S
O202 C195 1.185 . S
O202 Zn198 2.086 1_565 S
C203 O199 1.278 . S
C203 O204 1.211 . S
O204 C203 1.211 . S
C205 O197 1.284 . S
C205 O206 1.273 . S
O206 C205 1.273 . S
O207 Zn198 1.977 . S
O207 C200 1.267 . S
C5 C125 1.058 . S
C138 C18 1.058 . S
C151 C31 1.058 . S
C112 C44 1.058 . S
C57 C203 1.058 . S
C164 C70 1.058 . S
C177 C83 1.058 . S
C190 C96 1.058 . S
C109 C21 1.058 . S
C122 C34 1.058 . S
C135 C47 1.058 . S
C8 C148 1.058 . S
C161 C99 1.058 . S
C174 C60 1.058 . S
C73 C187 1.058 . S
C200 C86 1.058 . S
C104 C0 2.593 1_566 S
C13 C117 2.593 1_554 S
C130 C26 2.593 1_656 S
C39 C143 2.593 1_444 S
C156 C52 2.593 . S
C65 C169 2.593 1_455 S
C182 C78 2.593 1_665 S
C195 C91 2.593 1_565 S
C62 C10 2.223 . S
C75 C23 2.223 . S
C36 C88 2.223 . S
C101 C49 2.223 . S
C114 C166 2.223 . S
C179 C127 2.223 . S
C192 C140 2.223 . S
C205 C153 2.223 . S
