# Generated by pormake.
# Topology pcu, (6)-cn, num edge types: 1
# Building blocks:
#     Node 0, Type 0, BuildingBlock: PAMTOO_clean_sbu_0, # of connection points: 6
#     Edge 1, Type (0, 0), BuildingBlock: MIFKUJ_clean_linker_0, # of connection points: 2
#     Edge 2, Type (0, 0), BuildingBlock: MIFKUJ_clean_linker_0, # of connection points: 2
#     Edge 3, Type (0, 0), BuildingBlock: MIFKUJ_clean_linker_0, # of connection points: 2
# Relax obj value: 0.000
# Max RMSD: 0.000
# Mean RMSD: 0.000
data_MOF--net-pcu--node1-PAMTOO_clean_sbu_0--edge1-MIFKUJ_clean_linker_0
_symmetry_space_group_name_H-M    P1
_symmetry_Int_Tables_number       1
_symmetry_cell_setting            triclinic
loop_
_symmetry_equiv_pos_as_xyz
'x, y, z'
_cell_length_a     30.465363
_cell_length_b     19.82189
_cell_length_c     19.623035
_cell_angle_alpha  82.739614
_cell_angle_beta   98.894863
_cell_angle_gamma 118.23192
loop_
_atom_site_label
_atom_site_type_symbol
_atom_site_fract_x
_atom_site_fract_y
_atom_site_fract_z
_atom_type_partial_charge
Dy0 Dy 0.08245 0.03617 0.01032 0.0
Dy1 Dy 0.95585 0.94883 -0.00444 0.0
C2 C 1.01704 0.00087 0.86438 0.0
O3 O 0.06111 0.13034 0.98295 0.0
O4 O 0.9807 0.0705 0.01474 0.0
O5 O 0.15394 0.11032 0.9716 0.0
O6 O 0.15115 0.05621 0.07519 0.0
O7 O 0.98591 0.92711 0.1022 0.0
O8 O 0.05691 0.04138 0.10877 0.0
O9 O 0.97491 0.85765 0.97725 0.0
O10 O 0.05787 0.91043 0.02425 0.0
O11 O 0.88921 0.9012 0.04779 0.0
O12 O 0.88235 0.90066 0.93655 0.0
C13 C 0.02089 0.13235 -0.00302 0.0
O14 O 0.05608 2e-05 0.90283 0.0
O15 O 0.97908 -0.00187 0.89074 0.0
C16 C 0.22069 0.08064 0.01779 0.0
C17 C 0.3029 0.05542 0.00321 0.0
C18 C 0.2649 0.04415 0.94812 0.0
C19 C 0.22419 0.05657 0.95532 0.0
C20 C 0.25812 0.09088 0.07293 0.0
C21 C 0.29859 0.07824 0.06589 0.0
C22 C 0.17951 0.09738 0.02688 0.0
C23 C 0.02158 0.98193 0.13872 0.0
C24 C 1.01632 0.85254 -0.00052 0.0
C25 C 0.81872 0.91145 0.98532 0.0
C26 C 0.73633 0.94316 0.97782 0.0
C27 C 0.76977 0.95459 0.0385 0.0
C28 C 0.81037 0.93893 0.04224 0.0
C29 C 0.78579 0.90099 0.92437 0.0
C30 C 0.74524 0.9169 0.92054 0.0
C31 C 0.85893 0.88801 0.99077 0.0
H32 H 0.26708 0.02723 0.8989 0.0
H33 H 0.19581 0.04806 0.91188 0.0
H34 H 0.25619 0.10914 0.12167 0.0
H35 H 0.32641 0.08603 0.10993 0.0
H36 H 0.76383 0.97354 0.08406 0.0
H37 H 0.83455 0.94691 0.0904 0.0
H38 H 0.79093 0.87932 0.87983 0.0
H39 H 0.72079 0.90838 0.87261 0.0
H40 H 0.9447 0.88581 0.21441 0.0
H41 H 0.94208 0.88535 0.33848 0.0
H42 H 0.09351 0.06914 0.35692 0.0
H43 H 0.09652 0.07035 0.23297 0.0
H44 H 0.07335 0.94711 0.46118 0.0
H45 H 1.00327 0.1134 0.34979 0.0
H46 H 0.94391 0.14169 0.26623 0.0
H47 H 0.82015 0.95874 0.3621 0.0
H48 H 0.8788 0.92865 0.44563 0.0
H49 H 0.09557 0.07165 0.78789 0.0
H50 H 0.0939 0.06748 0.66367 0.0
H51 H 0.93346 0.925 0.64784 0.0
H52 H 0.93477 0.93313 0.77173 0.0
H53 H 0.95469 0.01817 0.5411 0.0
H54 H 0.01974 0.85071 0.65349 0.0
H55 H 0.07549 0.8137 0.73622 0.0
H56 H 0.20318 0.9842 0.6388 0.0
H57 H 0.14826 0.02296 0.55605 0.0
C58 C 0.97759 0.92574 0.24495 0.0
C59 C 0.02076 0.9784 0.21399 0.0
C60 C 0.97593 0.92551 0.31565 0.0
C61 C 0.01748 0.97759 0.35636 0.0
C62 C 0.06111 0.02862 0.32607 0.0
C63 C 0.06265 0.0294 0.25531 0.0
C64 C 1.01513 0.98051 0.43034 0.0
C65 C 0.04781 0.9633 0.47889 0.0
C66 C 0.98058 -0.00076 0.45291 0.0
C67 C 0.9454 0.01832 0.40352 0.0
C68 C 0.96339 0.07888 0.35275 0.0
C69 C 0.92987 0.09529 0.30544 0.0
C70 C 0.87828 0.05191 0.30873 0.0
C71 C 0.86011 0.99224 0.35955 0.0
C72 C 0.89347 0.97553 0.40692 0.0
C73 C 0.05995 0.03999 0.75766 0.0
C74 C 1.01534 0.00222 0.78907 0.0
C75 C 0.05903 0.03715 0.68685 0.0
C76 C 1.01373 -0.00597 0.64673 0.0
C77 C 0.96888 0.95822 0.67781 0.0
C78 C 0.96964 0.96283 0.74845 0.0
C79 C 1.0134 0.98547 0.57267 0.0
C80 C 0.98014 0.00148 0.52387 0.0
C81 C 0.04682 0.96415 0.5499 0.0
C82 C 0.0799 0.94012 0.59889 0.0
C83 C 0.05973 0.88056 0.64992 0.0
C84 C 0.09118 0.85926 0.69681 0.0
C85 C 0.14285 0.89668 0.69285 0.0
C86 C 0.16315 0.9553 0.64183 0.0
C87 C 0.13187 0.97689 0.59486 0.0
H88 H 0.16714 0.88019 0.72926 0.0
H89 H 0.85239 0.06463 0.272 0.0
H90 H 0.40096 0.1412 0.05482 0.0
H91 H 0.47286 0.12126 0.04591 0.0
H92 H 0.37844 0.92722 0.9232 0.0
H93 H 0.30559 0.9447 0.93452 0.0
H94 H 0.43941 0.89405 0.01661 0.0
H95 H 0.46109 0.10341 0.85027 0.0
H96 H 0.46793 0.23028 0.80826 0.0
H97 H 0.59664 0.33855 0.95555 0.0
H98 H 0.59018 0.2122 -0.0009 0.0
H99 H 0.64111 0.85889 0.91472 0.0
H100 H 0.56776 0.87885 0.91292 0.0
H101 H 0.65571 0.07496 0.03557 0.0
H102 H 0.72986 0.05753 0.03495 0.0
H103 H 0.59669 0.10553 0.93727 0.0
H104 H 0.57332 0.89673 0.10643 0.0
H105 H 0.56647 0.77014 0.1497 0.0
H106 H 0.44096 0.6612 -0.00201 0.0
H107 H 0.44749 0.78731 0.95321 0.0
C108 C 0.3952 0.09375 0.02642 0.0
C109 C 0.34719 0.04447 -0.00445 0.0
C110 C 0.43664 0.083 0.02063 0.0
C111 C 0.43141 0.02335 0.98303 0.0
C112 C 0.38358 0.9739 0.95222 0.0
C113 C 0.34197 0.98442 0.95822 0.0
C114 C 0.47567 0.01185 0.97721 0.0
C115 C 0.47349 0.93999 -0.00185 0.0
C116 C 0.52073 0.07214 0.95469 0.0
C117 C 0.52488 0.14825 0.92832 0.0
C118 C 0.49064 0.15422 0.87402 0.0
C119 C 0.49449 0.22606 0.84988 0.0
C120 C 0.53263 0.29242 0.87931 0.0
C121 C 0.56709 0.2871 0.93283 0.0
C122 C 0.56339 0.21539 0.95721 0.0
C123 C 0.64518 0.90701 0.94051 0.0
C124 C 0.69164 0.95643 0.97519 0.0
C125 C 0.60291 0.91779 0.94015 0.0
C126 C 0.60582 0.9777 0.97507 0.0
C127 C 0.65231 0.02803 0.00854 0.0
C128 C 0.69466 0.01752 0.00868 0.0
C129 C 0.56051 0.98788 0.97703 0.0
C130 C 0.56251 0.0595 0.95539 0.0
C131 C 0.51532 0.9274 -0.001 0.0
C132 C 0.51123 0.85152 0.02602 0.0
C133 C 0.5445 0.84583 0.08196 0.0
C134 C 0.54063 0.77416 0.10682 0.0
C135 C 0.50339 0.70769 0.07649 0.0
C136 C 0.46984 0.71274 0.02136 0.0
C137 C 0.47358 0.78429 -0.00374 0.0
H138 H 0.50046 0.65225 0.09581 0.0
H139 H 0.53553 0.34798 0.86057 0.0
H140 H 0.93557 0.71075 0.98427 0.0
H141 H 0.93668 0.58855 0.98084 0.0
H142 H 0.0983 0.70528 0.00341 0.0
H143 H 0.0977 0.82758 0.00728 0.0
H144 H 0.05441 0.59767 0.89913 0.0
H145 H 0.04429 0.61466 0.13874 0.0
H146 H 1.0081 0.63195 0.23516 0.0
H147 H 0.86819 0.4356 0.17978 0.0
H148 H 0.90335 0.41783 0.08232 0.0
H149 H 0.10039 0.27613 0.98619 0.0
H150 H 0.09937 0.39902 0.98324 0.0
H151 H 0.9398 0.28027 -0.0044 0.0
H152 H 0.94064 0.15748 0.00036 0.0
H153 H 0.9825 0.39019 0.08092 0.0
H154 H 0.99012 0.37018 0.84301 0.0
H155 H 0.02335 0.3521 0.74371 0.0
H156 H 0.16345 0.55146 0.79092 0.0
H157 H 0.1313 0.57013 0.89116 0.0
C158 C 0.97134 0.71045 0.98835 0.0
C159 C 1.01654 0.77869 -0.00349 0.0
C160 C 0.97188 0.64067 0.98651 0.0
C161 C 0.01758 0.63819 0.99225 0.0
C162 C 0.06271 0.70627 -0.00104 0.0
C163 C 0.06223 0.77591 0.00159 0.0
C164 C 0.01836 0.56427 -0.00746 0.0
C165 C 0.03926 0.55245 0.9392 0.0
C166 C 0.9974 0.50506 0.04401 0.0
C167 C 0.97629 0.51542 0.1028 0.0
C168 C 1.00567 0.57558 0.14675 0.0
C169 C 0.98537 0.58539 0.20166 0.0
C170 C 0.93583 0.53504 0.21348 0.0
C171 C 0.90653 0.47463 0.1705 0.0
C172 C 0.92663 0.46463 0.11545 0.0
C173 C 0.06506 0.27619 0.98803 0.0
C174 C 0.02063 0.20703 -0.00643 0.0
C175 C 0.0645 0.34647 0.98604 0.0
C176 C 0.0194 0.34879 0.98844 0.0
C177 C 0.97503 0.27982 -0.00623 0.0
C178 C 0.97561 0.20965 -0.00359 0.0
C179 C 0.01848 0.42298 0.98723 0.0
C180 C 0.9976 0.43506 0.04057 0.0
C181 C 0.03901 0.4821 0.9353 0.0
C182 C 0.05847 0.47107 0.87504 0.0
C183 C 0.02816 0.4098 0.83257 0.0
C184 C 0.04678 0.39951 0.77605 0.0
C185 C 0.09552 0.45047 0.76113 0.0
C186 C 0.12572 0.51196 0.80261 0.0
C187 C 0.10731 0.52245 0.85925 0.0
H188 H 0.10986 0.44242 0.71733 0.0
H189 H 0.92018 0.54272 0.25603 0.0
loop_
_geom_bond_atom_site_label_1
_geom_bond_atom_site_label_2
_geom_bond_distance
_geom_bond_site_symmetry_2
_ccdc_geom_bond_type
Dy0 O3 2.307 . S
Dy0 O5 2.395 1_554 S
Dy0 O6 2.379 . S
Dy0 O8 2.339 . S
Dy0 O10 2.298 1_545 S
Dy0 O14 2.275 1_554 S
Dy0 C22 2.738 . S
Dy1 O4 2.298 1_565 S
Dy1 O7 2.275 1_556 S
Dy1 O9 2.307 . S
Dy1 O11 2.395 1_556 S
Dy1 O12 2.379 . S
Dy1 O15 2.339 . S
Dy1 C31 2.738 . S
C2 O14 1.254 1_665 S
C2 O15 1.257 . S
O3 Dy0 2.307 . S
O3 C13 1.275 1_554 S
O4 Dy1 2.298 1_545 S
O4 C13 1.232 1_655 S
O5 Dy0 2.395 1_556 S
O5 C22 1.255 1_556 S
O6 Dy0 2.379 . S
O6 C22 1.249 . S
O7 Dy1 2.275 1_554 S
O7 C23 1.254 1_665 S
O8 Dy0 2.339 . S
O8 C23 1.257 . S
O9 Dy1 2.307 . S
O9 C24 1.269 1_556 S
O10 Dy0 2.298 1_565 S
O10 C24 1.235 1_455 S
O11 Dy1 2.395 1_554 S
O11 C31 1.255 1_554 S
O12 Dy1 2.379 . S
O12 C31 1.249 . S
C13 O3 1.275 1_556 S
C13 O4 1.232 1_455 S
O14 Dy0 2.275 1_556 S
O14 C2 1.254 1_445 S
O15 Dy1 2.339 . S
O15 C2 1.257 . S
C16 C19 1.344 1_544 S
C16 C20 1.328 . S
C16 C22 1.516 . S
C17 C18 1.304 . S
C17 C21 1.323 1_566 S
C18 C17 1.304 . S
C18 C19 1.371 . S
C18 H32 0.930 . S
C19 C16 1.344 1_566 S
C19 C18 1.371 . S
C19 H33 0.931 . S
C20 C16 1.328 . S
C20 C21 1.433 . S
C20 H34 0.931 . S
C21 C17 1.323 1_544 S
C21 C20 1.433 . S
C21 H35 0.933 . S
C22 Dy0 2.738 . S
C22 O5 1.255 1_554 S
C22 O6 1.249 . S
C22 C16 1.516 . S
C23 O7 1.254 1_445 S
C23 O8 1.257 . S
C24 O9 1.269 1_554 S
C24 O10 1.235 1_655 S
C25 C28 1.344 1_566 S
C25 C29 1.328 . S
C25 C31 1.516 . S
C26 C27 1.304 . S
C26 C30 1.323 1_544 S
C27 C26 1.304 . S
C27 C28 1.371 . S
C27 H36 0.930 . S
C28 C25 1.344 1_544 S
C28 C27 1.371 . S
C28 H37 0.931 . S
C29 C25 1.328 . S
C29 C30 1.433 . S
C29 H38 0.931 . S
C30 C26 1.323 1_566 S
C30 C29 1.433 . S
C30 H39 0.933 . S
C31 Dy1 2.738 . S
C31 O11 1.255 1_556 S
C31 O12 1.249 . S
C31 C25 1.516 . S
H32 C18 0.930 . S
H33 C19 0.931 . S
H34 C20 0.931 . S
H35 C21 0.933 . S
H36 C27 0.930 . S
H37 C28 0.931 . S
H38 C29 0.931 . S
H39 C30 0.933 . S
H40 C58 0.951 . S
H41 C60 0.951 . S
H42 C62 0.950 . S
H43 C63 0.950 . S
H44 C65 0.950 . S
H45 C68 0.950 . S
H46 C69 0.950 . S
H47 C71 0.950 . S
H48 C72 0.950 . S
H49 C73 0.951 . S
H50 C75 0.951 . S
H51 C77 0.950 . S
H52 C78 0.950 . S
H53 C80 0.950 . S
H54 C83 0.950 . S
H55 C84 0.950 . S
H56 C86 0.950 . S
H57 C87 0.950 . S
C58 H40 0.951 . S
C58 C59 1.365 1_665 S
C58 C60 1.388 . S
C59 C58 1.365 1_445 S
C59 C63 1.385 . S
C60 H41 0.951 . S
C60 C58 1.388 . S
C60 C61 1.366 1_565 S
C61 C60 1.366 1_545 S
C61 C62 1.414 1_655 S
C61 C64 1.497 . S
C62 H42 0.950 . S
C62 C61 1.414 1_455 S
C62 C63 1.374 . S
C63 H43 0.950 . S
C63 C59 1.385 . S
C63 C62 1.374 . S
C64 C61 1.497 . S
C64 C65 1.367 1_655 S
C64 C66 1.397 1_545 S
C65 H44 0.950 . S
C65 C64 1.367 1_455 S
C65 C81 1.377 . S
C66 C64 1.397 1_565 S
C66 C67 1.524 . S
C66 C80 1.377 . S
C67 C66 1.524 . S
C67 C68 1.397 1_565 S
C67 C72 1.363 . S
C68 H45 0.950 . S
C68 C67 1.397 1_545 S
C68 C69 1.334 . S
C69 H46 0.950 . S
C69 C68 1.334 . S
C69 C70 1.287 1_545 S
C70 C69 1.287 1_565 S
C70 C71 1.524 . S
C70 H89 0.913 . S
C71 H47 0.950 . S
C71 C70 1.524 . S
C71 C72 1.415 . S
C72 H48 0.950 . S
C72 C67 1.363 . S
C72 C71 1.415 . S
C73 H49 0.951 . S
C73 C74 1.365 . S
C73 C75 1.388 . S
C74 C73 1.365 . S
C74 C78 1.385 1_445 S
C75 H50 0.951 . S
C75 C73 1.388 . S
C75 C76 1.366 1_545 S
C76 C75 1.366 1_565 S
C76 C77 1.414 1_455 S
C76 C79 1.496 . S
C77 H51 0.950 . S
C77 C76 1.414 1_655 S
C77 C78 1.374 . S
C78 H52 0.950 . S
C78 C74 1.385 1_665 S
C78 C77 1.374 . S
C79 C76 1.496 . S
C79 C80 1.362 1_455 S
C79 C81 1.402 1_565 S
C80 H53 0.950 . S
C80 C66 1.377 . S
C80 C79 1.362 1_655 S
C81 C65 1.377 . S
C81 C79 1.402 1_545 S
C81 C82 1.524 . S
C82 C81 1.524 . S
C82 C83 1.397 1_545 S
C82 C87 1.363 . S
C83 H54 0.950 . S
C83 C82 1.397 1_565 S
C83 C84 1.334 . S
C84 H55 0.950 . S
C84 C83 1.334 . S
C84 C85 1.287 1_565 S
C85 C84 1.287 1_545 S
C85 C86 1.524 . S
C85 H88 0.999 . S
C86 H56 0.950 . S
C86 C85 1.524 . S
C86 C87 1.415 . S
C87 H57 0.950 . S
C87 C82 1.363 . S
C87 C86 1.415 . S
H88 C85 0.999 . S
H89 C70 0.913 . S
H90 C108 0.951 . S
H91 C110 0.951 . S
H92 C112 0.950 . S
H93 C113 0.950 . S
H94 C115 0.950 . S
H95 C118 0.950 . S
H96 C119 0.950 . S
H97 C121 0.950 1_554 S
H98 C122 0.950 . S
H99 C123 0.951 . S
H100 C125 0.951 . S
H101 C127 0.950 . S
H102 C128 0.950 . S
H103 C130 0.950 . S
H104 C133 0.950 . S
H105 C134 0.950 . S
H106 C136 0.950 1_556 S
H107 C137 0.950 . S
C108 H90 0.951 . S
C108 C109 1.367 1_545 S
C108 C110 1.388 . S
C109 C108 1.367 1_565 S
C109 C113 1.382 1_554 S
C110 H91 0.951 . S
C110 C108 1.388 . S
C110 C111 1.366 1_554 S
C111 C110 1.366 1_556 S
C111 C112 1.414 1_545 S
C111 C114 1.499 . S
C112 H92 0.950 . S
C112 C111 1.414 1_565 S
C112 C113 1.374 . S
C113 H93 0.950 . S
C113 C109 1.382 1_556 S
C113 C112 1.374 . S
C114 C111 1.499 . S
C114 C115 1.373 1_546 S
C114 C116 1.389 . S
C115 H94 0.950 . S
C115 C114 1.373 1_564 S
C115 C131 1.377 . S
C116 C114 1.389 . S
C116 C117 1.524 . S
C116 C130 1.377 . S
C117 C116 1.524 . S
C117 C118 1.397 . S
C117 C122 1.363 1_556 S
C118 H95 0.950 . S
C118 C117 1.397 . S
C118 C119 1.334 . S
C119 H96 0.950 . S
C119 C118 1.334 . S
C119 C120 1.287 . S
C120 C119 1.287 . S
C120 C121 1.524 . S
C120 H139 0.913 . S
C121 H97 0.950 1_556 S
C121 C120 1.524 . S
C121 C122 1.415 1_556 S
C122 H98 0.950 . S
C122 C117 1.363 1_554 S
C122 C121 1.415 1_554 S
C123 H99 0.951 . S
C123 C124 1.366 1_566 S
C123 C125 1.388 . S
C124 C123 1.366 1_544 S
C124 C128 1.385 . S
C125 H100 0.951 . S
C125 C123 1.388 . S
C125 C126 1.366 1_556 S
C126 C125 1.366 1_554 S
C126 C127 1.414 1_565 S
C126 C129 1.499 . S
C127 H101 0.950 . S
C127 C126 1.414 1_545 S
C127 C128 1.374 . S
C128 H102 0.950 . S
C128 C124 1.385 . S
C128 C127 1.374 . S
C129 C126 1.499 . S
C129 C130 1.373 1_564 S
C129 C131 1.389 . S
C130 H103 0.950 . S
C130 C116 1.377 . S
C130 C129 1.373 1_546 S
C131 C115 1.377 . S
C131 C129 1.389 . S
C131 C132 1.524 . S
C132 C131 1.524 . S
C132 C133 1.397 . S
C132 C137 1.363 1_554 S
C133 H104 0.950 . S
C133 C132 1.397 . S
C133 C134 1.334 . S
C134 H105 0.950 . S
C134 C133 1.334 . S
C134 C135 1.287 . S
C135 C134 1.287 . S
C135 C136 1.524 . S
C135 H138 0.999 . S
C136 H106 0.950 1_554 S
C136 C135 1.524 . S
C136 C137 1.415 1_554 S
C137 H107 0.950 . S
C137 C132 1.363 1_556 S
C137 C136 1.415 1_556 S
H138 C135 0.999 . S
H139 C120 0.913 . S
H140 C158 0.951 . S
H141 C160 0.951 . S
H142 C162 0.952 . S
H143 C163 0.950 . S
H144 C165 0.950 . S
H145 C168 0.950 1_455 S
H146 C169 0.950 . S
H147 C171 0.950 . S
H148 C172 0.950 . S
H149 C173 0.951 . S
H150 C175 0.951 . S
H151 C177 0.953 . S
H152 C178 0.950 . S
H153 C180 0.950 . S
H154 C183 0.950 1_655 S
H155 C184 0.950 . S
H156 C186 0.950 . S
H157 C187 0.950 . S
C158 H140 0.951 . S
C158 C159 1.366 1_654 S
C158 C160 1.388 . S
C159 C158 1.366 1_456 S
C159 C163 1.385 . S
C160 H141 0.951 . S
C160 C158 1.388 . S
C160 C161 1.349 1_655 S
C161 C160 1.349 1_455 S
C161 C162 1.421 1_554 S
C161 C164 1.507 . S
C162 H142 0.952 . S
C162 C161 1.421 1_556 S
C162 C163 1.373 . S
C163 H143 0.950 . S
C163 C159 1.385 . S
C163 C162 1.373 . S
C164 C161 1.507 . S
C164 C165 1.373 1_554 S
C164 C166 1.389 1_455 S
C165 H144 0.950 . S
C165 C164 1.373 1_556 S
C165 C181 1.377 . S
C166 C164 1.389 1_655 S
C166 C167 1.524 . S
C166 C180 1.377 . S
C167 C166 1.524 . S
C167 C168 1.397 . S
C167 C172 1.363 . S
C168 H145 0.950 1_655 S
C168 C167 1.397 . S
C168 C169 1.334 . S
C169 H146 0.950 . S
C169 C168 1.334 . S
C169 C170 1.287 . S
C170 C169 1.287 . S
C170 C171 1.524 . S
C170 H189 0.913 . S
C171 H147 0.950 . S
C171 C170 1.524 . S
C171 C172 1.415 . S
C172 H148 0.950 . S
C172 C167 1.363 . S
C172 C171 1.415 . S
C173 H149 0.951 . S
C173 C174 1.365 1_556 S
C173 C175 1.388 . S
C174 C173 1.365 1_554 S
C174 C178 1.385 1_455 S
C175 H150 0.951 . S
C175 C173 1.388 . S
C175 C176 1.355 1_455 S
C176 C175 1.355 1_655 S
C176 C177 1.418 1_556 S
C176 C179 1.504 . S
C177 H151 0.953 . S
C177 C176 1.418 1_554 S
C177 C178 1.372 . S
C178 H152 0.950 . S
C178 C174 1.385 1_655 S
C178 C177 1.372 . S
C179 C176 1.504 . S
C179 C180 1.373 1_556 S
C179 C181 1.389 1_655 S
C180 H153 0.950 . S
C180 C166 1.377 . S
C180 C179 1.373 1_554 S
C181 C165 1.377 . S
C181 C179 1.389 1_455 S
C181 C182 1.524 . S
C182 C181 1.524 . S
C182 C183 1.397 . S
C182 C187 1.363 . S
C183 H154 0.950 1_455 S
C183 C182 1.397 . S
C183 C184 1.334 . S
C184 H155 0.950 . S
C184 C183 1.334 . S
C184 C185 1.287 . S
C185 C184 1.287 . S
C185 C186 1.524 . S
C185 H188 0.999 . S
C186 H156 0.950 . S
C186 C185 1.524 . S
C186 C187 1.415 . S
C187 H157 0.950 . S
C187 C182 1.363 . S
C187 C186 1.415 . S
H188 C185 0.999 . S
H189 C170 0.913 . S
C59 C23 1.468 . S
C74 C2 1.468 1_445 S
C109 C17 1.499 1_554 S
C124 C26 1.497 . S
C159 C24 1.497 1_456 S
C174 C13 1.493 1_554 S
