# Generated by pormake.
# Topology vme, (6)-cn, num edge types: 1
# Building blocks:
#     Node 0, Type 0, BuildingBlock: MIDCAF_clean_sbu_0, # of connection points: 6
#     Node 1, Type 0, BuildingBlock: MIDCAF_clean_sbu_0, # of connection points: 6
#     Node 2, Type 0, BuildingBlock: MIDCAF_clean_sbu_0, # of connection points: 6
#     Node 3, Type 0, BuildingBlock: MIDCAF_clean_sbu_0, # of connection points: 6
#     Edge 4, Type (0, 0), BuildingBlock: AJUNOK_clean_linker_0, # of connection points: 2
#     Edge 5, Type (0, 0), BuildingBlock: AJUNOK_clean_linker_0, # of connection points: 2
#     Edge 6, Type (0, 0), BuildingBlock: AJUNOK_clean_linker_0, # of connection points: 2
#     Edge 7, Type (0, 0), BuildingBlock: AJUNOK_clean_linker_0, # of connection points: 2
#     Edge 8, Type (0, 0), BuildingBlock: AJUNOK_clean_linker_0, # of connection points: 2
#     Edge 9, Type (0, 0), BuildingBlock: AJUNOK_clean_linker_0, # of connection points: 2
#     Edge 10, Type (0, 0), BuildingBlock: AJUNOK_clean_linker_0, # of connection points: 2
#     Edge 11, Type (0, 0), BuildingBlock: AJUNOK_clean_linker_0, # of connection points: 2
#     Edge 12, Type (0, 0), BuildingBlock: AJUNOK_clean_linker_0, # of connection points: 2
#     Edge 13, Type (0, 0), BuildingBlock: AJUNOK_clean_linker_0, # of connection points: 2
#     Edge 14, Type (0, 0), BuildingBlock: AJUNOK_clean_linker_0, # of connection points: 2
#     Edge 15, Type (0, 0), BuildingBlock: AJUNOK_clean_linker_0, # of connection points: 2
# Relax obj value: 0.250
# Max RMSD: 0.207
# Mean RMSD: 0.207
data_MOF--net-vme--node1-MIDCAF_clean_sbu_0--edge1-AJUNOK_clean_linker_0
_symmetry_space_group_name_H-M    P1
_symmetry_Int_Tables_number       1
_symmetry_cell_setting            triclinic
loop_
_symmetry_equiv_pos_as_xyz
'x, y, z'
_cell_length_a     17.297236
_cell_length_b     18.376453
_cell_length_c     20.139954
_cell_angle_alpha  89.735678
_cell_angle_beta   99.13425
_cell_angle_gamma 90.250622
loop_
_atom_site_label
_atom_site_type_symbol
_atom_site_fract_x
_atom_site_fract_y
_atom_site_fract_z
_atom_type_partial_charge
Zn0 Zn 0.28318 0.51452 0.2537 0.0
Zn1 Zn 0.06778 0.27086 0.4347 0.0
Zn2 Zn 0.22203 0.41704 0.31702 0.0
C3 C 0.23721 0.34226 0.4476 0.0
C4 C 0.1329 0.27901 0.29173 0.0
O5 O 0.14351 0.51417 0.2956 0.0
O6 O 0.19889 0.59017 0.23243 0.0
C7 C 0.3787 0.48916 0.38069 0.0
O8 O 0.28233 0.38238 0.41803 0.0
O9 O 0.17112 0.32504 0.41359 0.0
O10 O 0.12557 0.30118 0.35073 0.0
O11 O 0.17826 0.317 0.26047 0.0
O12 O 0.36835 0.53129 0.3303 0.0
O13 O 0.33077 0.43629 0.38538 0.0
O14 O 0.23727 0.3561 0.22811 0.0
O15 O 0.30367 0.44241 0.18493 0.0
C16 C 0.27771 0.37785 0.18344 0.0
O17 O 0.12476 0.47167 0.34565 0.0
O18 O 0.09229 0.36829 0.38563 0.0
C19 C 0.14156 0.5739 0.26149 0.0
C20 C 0.08563 0.43754 0.3846 0.0
Zn21 Zn 0.7889 0.7249 0.03453 0.0
Zn22 Zn 0.74857 1.00694 0.21122 0.0
Zn23 Zn 0.81436 0.91961 0.12855 0.0
C24 C 0.7561 0.86359 0.26409 0.0
C25 C 0.6513 1.01237 0.08782 0.0
O26 O 0.86044 0.8448 0.06697 0.0
O27 O 0.88719 0.76485 -0.00421 0.0
C28 C 0.86822 0.73914 0.17089 0.0
O29 O 0.79379 0.85409 0.21489 0.0
O30 O 0.72626 0.92493 0.27241 0.0
O31 O 0.65996 0.04503 0.14359 0.0
O32 O 0.70177 0.96466 0.07682 0.0
O33 O 0.83374 0.69465 0.12768 0.0
O34 O 0.85799 0.80879 0.16452 0.0
O35 O 0.74486 0.91294 0.02519 0.0
O36 O 0.70936 0.8031 0.04677 0.0
C37 C 0.71162 0.85289 0.00369 0.0
O38 O 0.90185 1.00552 0.15464 0.0
O39 O 0.84993 0.06357 0.23234 0.0
C40 C 0.90273 0.82618 0.02373 0.0
C41 C 0.90582 0.05518 0.19937 0.0
Zn42 Zn 0.73814 0.54492 0.71247 0.0
Zn43 Zn 0.96478 0.75681 0.51925 0.0
Zn44 Zn 0.80326 0.6269 0.64185 0.0
C45 C 0.79033 0.69405 0.50747 0.0
C46 C 0.90049 0.75821 0.66095 0.0
O47 O 0.87155 0.52325 0.66339 0.0
O48 O 0.81122 0.46118 0.73404 0.0
C49 C 0.63962 0.56602 0.58621 0.0
O50 O 0.74317 0.65935 0.53951 0.0
O51 O 0.85886 0.70642 0.53961 0.0
O52 O 0.90315 0.73404 0.60187 0.0
O53 O 0.85293 0.7262 0.69427 0.0
O54 O 0.64834 0.52909 0.63989 0.0
O55 O 0.69242 0.61225 0.57563 0.0
O56 O 0.79205 0.69799 0.72866 0.0
O57 O 0.72302 0.62045 0.77945 0.0
C58 C 0.7508 0.68371 0.77506 0.0
O59 O 0.90083 0.56408 0.61806 0.0
O60 O 0.93421 0.66428 0.57309 0.0
C61 C 0.86666 0.46652 0.70038 0.0
C62 C 0.94463 0.5959 0.58147 0.0
Zn63 Zn 0.12239 0.1751 0.88106 0.0
Zn64 Zn 0.28348 0.04571 0.75833 0.0
Zn65 Zn 0.20346 0.11984 0.82578 0.0
C66 C 0.26085 0.18305 0.69538 0.0
C67 C 0.37311 0.06132 0.88655 0.0
O68 O 0.11723 0.04198 0.8597 0.0
O69 O 0.10148 0.10413 0.94949 0.0
C70 C 0.07115 0.22572 0.76468 0.0
O71 O 0.21053 0.18744 0.73602 0.0
O72 O 0.3051 0.1282 0.69806 0.0
O73 O 0.36672 0.0205 0.83558 0.0
O74 O 0.31962 0.10884 0.89097 0.0
O75 O 0.03679 0.19167 0.80598 0.0
O76 O 0.14532 0.21521 0.76661 0.0
O77 O 0.26849 0.15892 0.92103 0.0
O78 O 0.19493 0.25651 0.9107 0.0
C79 C 0.25439 0.22344 0.94022 0.0
O80 O 0.1356 0.01974 0.79966 0.0
O81 O 0.19959 0.97256 0.7239 0.0
C82 C 0.09212 0.04569 0.91664 0.0
C83 C 0.14051 0.97225 0.75371 0.0
C84 C 0.00683 0.10976 0.2861 0.0
C85 C 0.9763 0.10182 0.21761 0.0
C86 C 0.062 0.16383 0.30841 0.0
C87 C 0.08832 0.21357 0.26344 0.0
H88 H 0.98543 0.07556 0.32329 0.0
H89 H 0.08166 0.16846 0.362 0.0
S90 S 0.03115 0.21263 0.07787 0.0
N91 N 0.98072 0.14452 0.104 0.0
N92 N 0.0833 0.248 0.14607 0.0
C93 C 0.0619 0.20367 0.19418 0.0
C94 C 0.00604 0.14744 0.17126 0.0
C95 C 0.07728 0.69486 0.23378 0.0
C96 C 0.07146 0.62177 0.25406 0.0
C97 C 0.0102 0.7378 0.21557 0.0
C98 C 0.93512 0.70889 0.21687 0.0
H99 H 0.13368 0.71791 0.2283 0.0
H100 H 0.01684 0.79126 0.19419 0.0
S101 S 0.88726 0.52547 0.27544 0.0
N102 N 0.98335 0.52567 0.28037 0.0
N103 N 0.85877 0.60747 0.24862 0.0
C104 C 0.92892 0.63893 0.2435 0.0
C105 C 0.9967 0.59489 0.26124 0.0
C106 C 0.09561 0.85249 0.70401 0.0
C107 C 0.07789 0.91713 0.73536 0.0
C108 C 0.03751 0.80112 0.68193 0.0
C109 C 0.95932 0.81197 0.69046 0.0
H110 H 0.15487 0.84158 0.69582 0.0
H111 H 0.05394 0.75251 0.65733 0.0
S112 S 0.88051 0.97314 0.76622 0.0
N113 N 0.97527 0.98987 0.77236 0.0
N114 N 0.866 0.89283 0.72972 0.0
C115 C 0.94032 0.87576 0.722 0.0
C116 C 0.99968 0.92848 0.74473 0.0
C117 C 0.8938 0.33429 0.6983 0.0
C118 C 0.92264 0.40583 0.70118 0.0
C119 C 0.9445 0.27496 0.70971 0.0
C120 C 0.02608 0.28478 0.72632 0.0
H121 H 0.83125 0.32414 0.69008 0.0
H122 H 0.91905 0.22108 0.71125 0.0
S123 S 0.13154 0.46123 0.73102 0.0
N124 N 0.03808 0.48344 0.71254 0.0
N125 N 0.13382 0.37158 0.73795 0.0
C126 C 0.0562 0.35577 0.72368 0.0
C127 C 0.00424 0.4165 0.71036 0.0
C128 C 0.96776 0.48081 0.52266 0.0
C129 C 0.98881 0.55365 0.53826 0.0
C130 C 0.99903 0.44334 0.47266 0.0
C131 C 0.05206 0.4776 0.43654 0.0
H132 H 0.92453 0.45328 0.5473 0.0
H133 H 0.98045 0.38778 0.46139 0.0
S134 S 0.13531 0.66387 0.46636 0.0
N135 N 0.07255 0.65545 0.51961 0.0
N136 N 0.13111 0.58605 0.42549 0.0
C137 C 0.07649 0.54927 0.45423 0.0
C138 C 0.045 0.58701 0.50526 0.0
C139 C 0.94291 0.9539 0.00663 0.0
C140 C 0.95403 0.87945 -0.00351 0.0
C141 C 0.98777 1.00643 -0.01999 0.0
C142 C 0.04555 0.987 0.94162 0.0
H143 H 0.89739 0.97215 0.03357 0.0
H144 H 0.97588 0.06311 -0.0114 0.0
S145 S 0.09658 0.7994 0.8981 0.0
N146 N 0.02561 0.78848 0.94338 0.0
N147 N 0.11137 0.88808 0.89402 0.0
C148 C 0.05682 0.91283 0.92989 0.0
C149 C 0.01068 0.85887 0.95711 0.0
C150 C 0.30889 0.32661 0.00868 0.0
C151 C 0.2898 0.25249 0.0054 0.0
C152 C 0.30964 0.36535 0.06812 0.0
C153 C 0.28999 0.33151 0.12619 0.0
H154 H 0.3165 0.35619 0.96345 0.0
H155 H 0.32014 0.42345 0.06672 0.0
S156 S 0.25152 0.13458 0.14636 0.0
N157 N 0.26251 0.14373 0.06674 0.0
N158 N 0.2645 0.21664 0.17959 0.0
C159 C 0.2789 0.25566 0.1254 0.0
C160 C 0.27894 0.216 0.06464 0.0
C161 C 0.82442 0.76841 0.34001 0.0
C162 C 0.75562 0.80718 0.31713 0.0
C163 C 0.83178 0.72605 0.39864 0.0
C164 C 0.77094 0.72139 0.43749 0.0
H165 H 0.87535 0.7756 0.3158 0.0
H166 H 0.88764 0.70026 0.41591 0.0
S167 S 0.57531 0.80592 0.39565 0.0
N168 N 0.6224 0.83284 0.33451 0.0
N169 N 0.63695 0.75371 0.44566 0.0
C170 C 0.69976 0.75559 0.4129 0.0
C171 C 0.69217 0.79887 0.3528 0.0
C172 C 0.76851 0.84459 0.89613 0.0
C173 C 0.70729 0.82983 0.93279 0.0
C174 C 0.78205 0.79852 0.84334 0.0
C175 C 0.73163 0.7397 0.82298 0.0
H176 H 0.8104 0.88723 0.91223 0.0
H177 H 0.83496 0.80579 0.8219 0.0
S178 S 0.5473 0.69585 0.88803 0.0
N179 N 0.58692 0.76302 0.93606 0.0
N180 N 0.60734 0.6812 0.8335 0.0
C181 C 0.66355 0.7322 0.85282 0.0
C182 C 0.65196 0.77681 0.90792 0.0
C183 C 0.1948 0.27543 0.61448 0.0
C184 C 0.26294 0.23719 0.64061 0.0
C185 C 0.19038 0.3158 0.55495 0.0
C186 C 0.25357 0.31895 0.51865 0.0
H187 H 0.14251 0.26996 0.63715 0.0
H188 H 0.13503 0.34103 0.53491 0.0
S189 S 0.44935 0.23814 0.57055 0.0
N190 N 0.399 0.21305 0.63008 0.0
N191 N 0.38907 0.2875 0.51663 0.0
C192 C 0.32413 0.28612 0.5467 0.0
C193 C 0.32904 0.24524 0.60789 0.0
C194 C 0.51173 0.54076 0.41722 0.0
C195 C 0.44499 0.50538 0.43423 0.0
C196 C 0.57351 0.56269 0.46666 0.0
C197 C 0.57074 0.55007 0.53497 0.0
H198 H 0.51647 0.55145 0.36506 0.0
H199 H 0.62438 0.58805 0.45104 0.0
S200 S 0.40561 0.46637 0.60642 0.0
N201 N 0.37737 0.46384 0.52426 0.0
N202 N 0.49352 0.50398 0.61757 0.0
C203 C 0.50352 0.51611 0.55279 0.0
C204 C 0.44071 0.49384 0.50235 0.0
C205 C 0.48147 0.98396 0.94527 0.0
C206 C 0.44237 0.05139 0.94005 0.0
C207 C 0.54876 0.97217 -0.0073 0.0
C208 C 0.58074 0.0273 0.03692 0.0
H209 H 0.45955 0.93922 0.91267 0.0
H210 H 0.57448 0.91865 -0.00444 0.0
S211 S 0.50264 0.21469 0.04335 0.0
N212 N 0.44199 0.17479 -0.01735 0.0
N213 N 0.56814 0.15249 0.07246 0.0
C214 C 0.54213 0.09501 0.03277 0.0
C215 C 0.47325 0.10709 -0.01579 0.0
loop_
_geom_bond_atom_site_label_1
_geom_bond_atom_site_label_2
_geom_bond_distance
_geom_bond_site_symmetry_2
_ccdc_geom_bond_type
Zn0 O6 1.920 . S
Zn0 O12 1.898 . S
Zn0 O15 1.905 . S
Zn1 O9 1.905 . S
Zn1 O10 1.898 . S
Zn1 O18 1.920 . S
Zn2 O5 2.080 . S
Zn2 O8 2.114 . S
Zn2 O11 2.120 . S
Zn2 O13 2.120 . S
Zn2 O14 2.114 . S
Zn2 O17 2.080 . S
C3 O8 1.166 . S
C3 O9 1.182 . S
C4 O10 1.167 . S
C4 O11 1.299 . S
O5 Zn2 2.080 . S
O5 C19 1.305 . S
O6 Zn0 1.920 . S
O6 C19 1.234 . S
C7 O12 1.167 . S
C7 O13 1.299 . S
O8 Zn2 2.114 . S
O8 C3 1.166 . S
O9 Zn1 1.905 . S
O9 C3 1.182 . S
O10 Zn1 1.898 . S
O10 C4 1.167 . S
O11 Zn2 2.120 . S
O11 C4 1.299 . S
O12 Zn0 1.898 . S
O12 C7 1.167 . S
O13 Zn2 2.120 . S
O13 C7 1.299 . S
O14 Zn2 2.114 . S
O14 C16 1.166 . S
O15 Zn0 1.905 . S
O15 C16 1.182 . S
C16 O14 1.166 . S
C16 O15 1.182 . S
O17 Zn2 2.080 . S
O17 C20 1.305 . S
O18 Zn1 1.920 . S
O18 C20 1.234 . S
C19 O5 1.305 . S
C19 O6 1.234 . S
C20 O17 1.305 . S
C20 O18 1.234 . S
Zn21 O27 1.920 . S
Zn21 O33 1.898 . S
Zn21 O36 1.905 1_554 S
Zn22 O30 1.905 . S
Zn22 O31 1.898 . S
Zn22 O39 1.920 1_565 S
Zn23 O26 2.080 . S
Zn23 O29 2.114 . S
Zn23 O32 2.120 . S
Zn23 O34 2.120 . S
Zn23 O35 2.114 . S
Zn23 O38 2.080 . S
C24 O29 1.166 . S
C24 O30 1.182 . S
C25 O31 1.167 . S
C25 O32 1.299 . S
O26 Zn23 2.080 . S
O26 C40 1.305 . S
O27 Zn21 1.920 . S
O27 C40 1.234 . S
C28 O33 1.167 . S
C28 O34 1.299 . S
O29 Zn23 2.114 . S
O29 C24 1.166 . S
O30 Zn22 1.905 . S
O30 C24 1.182 . S
O31 Zn22 1.898 . S
O31 C25 1.167 . S
O32 Zn23 2.120 . S
O32 C25 1.299 . S
O33 Zn21 1.898 . S
O33 C28 1.167 . S
O34 Zn23 2.120 . S
O34 C28 1.299 . S
O35 Zn23 2.114 . S
O35 C37 1.166 1_554 S
O36 Zn21 1.905 1_556 S
O36 C37 1.182 . S
C37 O35 1.166 1_556 S
C37 O36 1.182 . S
O38 Zn23 2.080 . S
O38 C41 1.305 1_565 S
O39 Zn22 1.920 1_545 S
O39 C41 1.234 . S
C40 O26 1.305 . S
C40 O27 1.234 . S
C41 O38 1.305 1_545 S
C41 O39 1.234 . S
Zn42 O48 1.920 . S
Zn42 O54 1.898 . S
Zn42 O57 1.905 . S
Zn43 O51 1.905 . S
Zn43 O52 1.898 . S
Zn43 O60 1.920 . S
Zn44 O47 2.080 . S
Zn44 O50 2.114 . S
Zn44 O53 2.120 . S
Zn44 O55 2.120 . S
Zn44 O56 2.114 . S
Zn44 O59 2.080 . S
C45 O50 1.166 . S
C45 O51 1.182 . S
C46 O52 1.167 . S
C46 O53 1.299 . S
O47 Zn44 2.080 . S
O47 C61 1.305 . S
O48 Zn42 1.920 . S
O48 C61 1.234 . S
C49 O54 1.167 . S
C49 O55 1.299 . S
O50 Zn44 2.114 . S
O50 C45 1.166 . S
O51 Zn43 1.905 . S
O51 C45 1.182 . S
O52 Zn43 1.898 . S
O52 C46 1.167 . S
O53 Zn44 2.120 . S
O53 C46 1.299 . S
O54 Zn42 1.898 . S
O54 C49 1.167 . S
O55 Zn44 2.120 . S
O55 C49 1.299 . S
O56 Zn44 2.114 . S
O56 C58 1.166 . S
O57 Zn42 1.905 . S
O57 C58 1.182 . S
C58 O56 1.166 . S
C58 O57 1.182 . S
O59 Zn44 2.080 . S
O59 C62 1.305 . S
O60 Zn43 1.920 . S
O60 C62 1.234 . S
C61 O47 1.305 . S
C61 O48 1.234 . S
C62 O59 1.305 . S
C62 O60 1.234 . S
Zn63 O69 1.920 . S
Zn63 O75 1.898 . S
Zn63 O78 1.905 1_556 S
Zn64 O72 1.905 . S
Zn64 O73 1.898 . S
Zn64 O81 1.920 1_545 S
Zn65 O68 2.080 . S
Zn65 O71 2.114 . S
Zn65 O74 2.120 . S
Zn65 O76 2.120 . S
Zn65 O77 2.114 . S
Zn65 O80 2.080 . S
C66 O71 1.166 . S
C66 O72 1.182 . S
C67 O73 1.167 . S
C67 O74 1.299 . S
O68 Zn65 2.080 . S
O68 C82 1.305 . S
O69 Zn63 1.920 . S
O69 C82 1.234 . S
C70 O75 1.167 . S
C70 O76 1.299 . S
O71 Zn65 2.114 . S
O71 C66 1.166 . S
O72 Zn64 1.905 . S
O72 C66 1.182 . S
O73 Zn64 1.898 . S
O73 C67 1.167 . S
O74 Zn65 2.120 . S
O74 C67 1.299 . S
O75 Zn63 1.898 . S
O75 C70 1.167 . S
O76 Zn65 2.120 . S
O76 C70 1.299 . S
O77 Zn65 2.114 . S
O77 C79 1.166 1_556 S
O78 Zn63 1.905 1_554 S
O78 C79 1.182 . S
C79 O77 1.166 1_554 S
C79 O78 1.182 . S
O80 Zn65 2.080 . S
O80 C83 1.305 1_545 S
O81 Zn64 1.920 1_565 S
O81 C83 1.234 . S
C82 O68 1.305 . S
C82 O69 1.234 . S
C83 O80 1.305 1_565 S
C83 O81 1.234 . S
C84 C85 1.369 . S
C84 C86 1.419 . S
C84 H88 0.930 . S
C85 C84 1.369 . S
C85 C94 1.429 . S
C86 C84 1.419 . S
C86 C87 1.363 1_655 S
C86 H89 0.929 . S
C87 C86 1.363 1_455 S
C87 C93 1.428 . S
H88 C84 0.930 . S
H89 C86 0.929 . S
S90 N91 1.613 . S
S90 N92 1.610 . S
N91 S90 1.613 . S
N91 C94 1.350 1_455 S
N92 S90 1.610 . S
N92 C93 1.351 . S
C93 C87 1.428 . S
C93 N92 1.351 . S
C93 C94 1.434 1_455 S
C94 C85 1.429 . S
C94 N91 1.350 1_655 S
C94 C93 1.434 1_655 S
C95 C96 1.369 . S
C95 C97 1.419 . S
C95 H99 0.930 . S
C96 C95 1.369 . S
C96 C105 1.429 . S
C97 C95 1.419 . S
C97 C98 1.363 1_455 S
C97 H100 0.929 . S
C98 C97 1.363 1_655 S
C98 C104 1.428 . S
H99 C95 0.930 . S
H100 C97 0.929 . S
S101 N102 1.613 . S
S101 N103 1.610 . S
N102 S101 1.613 . S
N102 C105 1.350 1_655 S
N103 S101 1.610 . S
N103 C104 1.351 . S
C104 C98 1.428 . S
C104 N103 1.351 . S
C104 C105 1.434 1_655 S
C105 C96 1.429 . S
C105 N102 1.350 1_455 S
C105 C104 1.434 1_455 S
C106 C107 1.369 . S
C106 C108 1.419 . S
C106 H110 0.930 . S
C107 C106 1.369 . S
C107 C116 1.429 . S
C108 C106 1.419 . S
C108 C109 1.363 1_455 S
C108 H111 0.929 . S
C109 C108 1.363 1_655 S
C109 C115 1.428 . S
H110 C106 0.930 . S
H111 C108 0.929 . S
S112 N113 1.613 . S
S112 N114 1.610 . S
N113 S112 1.613 . S
N113 C116 1.350 1_655 S
N114 S112 1.610 . S
N114 C115 1.351 . S
C115 C109 1.428 . S
C115 N114 1.351 . S
C115 C116 1.434 1_655 S
C116 C107 1.429 . S
C116 N113 1.350 1_455 S
C116 C115 1.434 1_455 S
C117 C118 1.369 . S
C117 C119 1.419 . S
C117 H121 0.930 . S
C118 C117 1.369 . S
C118 C127 1.429 . S
C119 C117 1.419 . S
C119 C120 1.363 1_655 S
C119 H122 0.929 . S
C120 C119 1.363 1_455 S
C120 C126 1.428 . S
H121 C117 0.930 . S
H122 C119 0.929 . S
S123 N124 1.613 . S
S123 N125 1.610 . S
N124 S123 1.613 . S
N124 C127 1.350 1_455 S
N125 S123 1.610 . S
N125 C126 1.351 . S
C126 C120 1.428 . S
C126 N125 1.351 . S
C126 C127 1.434 1_455 S
C127 C118 1.429 . S
C127 N124 1.350 1_655 S
C127 C126 1.434 1_655 S
C128 C129 1.369 . S
C128 C130 1.419 1_655 S
C128 H132 0.930 . S
C129 C128 1.369 . S
C129 C138 1.429 . S
C130 C128 1.419 1_455 S
C130 C131 1.363 . S
C130 H133 0.929 . S
C131 C130 1.363 . S
C131 C137 1.428 . S
H132 C128 0.930 . S
H133 C130 0.929 . S
S134 N135 1.613 1_455 S
S134 N136 1.610 . S
N135 S134 1.613 1_655 S
N135 C138 1.350 . S
N136 S134 1.610 . S
N136 C137 1.351 . S
C137 C131 1.428 . S
C137 N136 1.351 . S
C137 C138 1.434 1_455 S
C138 C129 1.429 . S
C138 N135 1.350 . S
C138 C137 1.434 1_655 S
C139 C140 1.369 1_556 S
C139 C141 1.419 1_565 S
C139 H143 0.930 . S
C140 C139 1.369 1_554 S
C140 C149 1.429 1_655 S
C141 C139 1.419 1_545 S
C141 C142 1.363 1_655 S
C141 H144 0.929 . S
C142 C141 1.363 1_455 S
C142 C148 1.428 1_556 S
H143 C139 0.930 . S
H144 C141 0.929 . S
S145 N146 1.613 . S
S145 N147 1.610 1_565 S
N146 S145 1.613 . S
N146 C149 1.350 . S
N147 S145 1.610 1_545 S
N147 C148 1.351 . S
C148 C142 1.428 1_554 S
C148 N147 1.351 . S
C148 C149 1.434 1_545 S
C149 C140 1.429 1_455 S
C149 N146 1.350 . S
C149 C148 1.434 1_565 S
C150 C151 1.369 . S
C150 C152 1.419 . S
C150 H154 0.930 . S
C151 C150 1.369 . S
C151 C160 1.429 . S
C152 C150 1.419 . S
C152 C153 1.363 . S
C152 H155 0.929 . S
C153 C152 1.363 . S
C153 C159 1.428 . S
H154 C150 0.930 . S
H155 C152 0.929 . S
S156 N157 1.613 . S
S156 N158 1.610 . S
N157 S156 1.613 . S
N157 C160 1.350 . S
N158 S156 1.610 . S
N158 C159 1.351 . S
C159 C153 1.428 . S
C159 N158 1.351 . S
C159 C160 1.434 . S
C160 C151 1.429 . S
C160 N157 1.350 . S
C160 C159 1.434 . S
C161 C162 1.369 . S
C161 C163 1.419 . S
C161 H165 0.930 . S
C162 C161 1.369 . S
C162 C171 1.429 . S
C163 C161 1.419 . S
C163 C164 1.363 . S
C163 H166 0.929 . S
C164 C163 1.363 . S
C164 C170 1.428 . S
H165 C161 0.930 . S
H166 C163 0.929 . S
S167 N168 1.613 . S
S167 N169 1.610 . S
N168 S167 1.613 . S
N168 C171 1.350 . S
N169 S167 1.610 . S
N169 C170 1.351 . S
C170 C164 1.428 . S
C170 N169 1.351 . S
C170 C171 1.434 . S
C171 C162 1.429 . S
C171 N168 1.350 . S
C171 C170 1.434 . S
C172 C173 1.369 . S
C172 C174 1.419 . S
C172 H176 0.930 . S
C173 C172 1.369 . S
C173 C182 1.429 . S
C174 C172 1.419 . S
C174 C175 1.363 . S
C174 H177 0.929 . S
C175 C174 1.363 . S
C175 C181 1.428 . S
H176 C172 0.930 . S
H177 C174 0.929 . S
S178 N179 1.613 . S
S178 N180 1.610 . S
N179 S178 1.613 . S
N179 C182 1.350 . S
N180 S178 1.610 . S
N180 C181 1.351 . S
C181 C175 1.428 . S
C181 N180 1.351 . S
C181 C182 1.434 . S
C182 C173 1.429 . S
C182 N179 1.350 . S
C182 C181 1.434 . S
C183 C184 1.369 . S
C183 C185 1.419 . S
C183 H187 0.930 . S
C184 C183 1.369 . S
C184 C193 1.429 . S
C185 C183 1.419 . S
C185 C186 1.363 . S
C185 H188 0.929 . S
C186 C185 1.363 . S
C186 C192 1.428 . S
H187 C183 0.930 . S
H188 C185 0.929 . S
S189 N190 1.613 . S
S189 N191 1.610 . S
N190 S189 1.613 . S
N190 C193 1.350 . S
N191 S189 1.610 . S
N191 C192 1.351 . S
C192 C186 1.428 . S
C192 N191 1.351 . S
C192 C193 1.434 . S
C193 C184 1.429 . S
C193 N190 1.350 . S
C193 C192 1.434 . S
C194 C195 1.369 . S
C194 C196 1.419 . S
C194 H198 0.930 . S
C195 C194 1.369 . S
C195 C204 1.429 . S
C196 C194 1.419 . S
C196 C197 1.363 . S
C196 H199 0.929 . S
C197 C196 1.363 . S
C197 C203 1.428 . S
H198 C194 0.930 . S
H199 C196 0.929 . S
S200 N201 1.613 . S
S200 N202 1.610 . S
N201 S200 1.613 . S
N201 C204 1.350 . S
N202 S200 1.610 . S
N202 C203 1.351 . S
C203 C197 1.428 . S
C203 N202 1.351 . S
C203 C204 1.434 . S
C204 C195 1.429 . S
C204 N201 1.350 . S
C204 C203 1.434 . S
C205 C206 1.362 1_564 S
C205 C207 1.421 . S
C205 H209 0.935 . S
C206 C205 1.362 1_546 S
C206 C215 1.429 . S
C207 C205 1.421 . S
C207 C208 1.363 . S
C207 H210 0.929 . S
C208 C207 1.363 . S
C208 C214 1.428 1_564 S
H209 C205 0.935 . S
H210 C207 0.929 . S
S211 N212 1.613 . S
S211 N213 1.610 . S
N212 S211 1.613 . S
N212 C215 1.350 . S
N213 S211 1.610 . S
N213 C214 1.351 . S
C214 C208 1.428 1_546 S
C214 N213 1.351 . S
C214 C215 1.434 . S
C215 C206 1.429 . S
C215 N212 1.350 . S
C215 C214 1.434 . S
C85 C41 1.678 . S
C87 C4 1.547 . S
C96 C19 1.679 . S
C98 C28 1.548 . S
C107 C83 1.678 . S
C109 C46 1.550 . S
C118 C61 1.679 . S
C120 C70 1.548 . S
C129 C62 0.762 . S
C131 C20 0.786 . S
C140 C40 0.781 . S
C142 C82 0.773 . S
C151 C79 1.234 . S
C153 C16 1.470 . S
C162 C24 1.468 . S
C164 C45 1.235 . S
C173 C37 1.250 . S
C175 C58 1.461 . S
C184 C66 1.461 . S
C186 C3 1.240 . S
C195 C7 1.293 . S
C197 C49 1.284 . S
C206 C67 1.284 . S
C208 C25 1.290 . S
