# Generated by pormake.
# Topology qtz-x, (6)-cn, num edge types: 1
# Building blocks:
#     Node 0, Type 0, BuildingBlock: MIFKUJ_clean_sbu_0, # of connection points: 6
#     Node 1, Type 0, BuildingBlock: MIFKUJ_clean_sbu_0, # of connection points: 6
#     Node 2, Type 0, BuildingBlock: MIFKUJ_clean_sbu_0, # of connection points: 6
#     Edge 3, Type (0, 0), BuildingBlock: OJICUG_clean_linker_0, # of connection points: 2
#     Edge 4, Type (0, 0), BuildingBlock: OJICUG_clean_linker_0, # of connection points: 2
#     Edge 5, Type (0, 0), BuildingBlock: OJICUG_clean_linker_0, # of connection points: 2
#     Edge 6, Type (0, 0), BuildingBlock: OJICUG_clean_linker_0, # of connection points: 2
#     Edge 7, Type (0, 0), BuildingBlock: OJICUG_clean_linker_0, # of connection points: 2
#     Edge 8, Type (0, 0), BuildingBlock: OJICUG_clean_linker_0, # of connection points: 2
#     Edge 9, Type (0, 0), BuildingBlock: OJICUG_clean_linker_0, # of connection points: 2
#     Edge 10, Type (0, 0), BuildingBlock: OJICUG_clean_linker_0, # of connection points: 2
#     Edge 11, Type (0, 0), BuildingBlock: OJICUG_clean_linker_0, # of connection points: 2
# Relax obj value: 0.186
# Max RMSD: 0.247
# Mean RMSD: 0.246
data_MOF--net-qtz-x--node1-MIFKUJ_clean_sbu_0--edge1-OJICUG_clean_linker_0
_symmetry_space_group_name_H-M    P1
_symmetry_Int_Tables_number       1
_symmetry_cell_setting            triclinic
loop_
_symmetry_equiv_pos_as_xyz
'x, y, z'
_cell_length_a     10.605594
_cell_length_b     10.612524
_cell_length_c     34.479327
_cell_angle_alpha  96.296851
_cell_angle_beta   88.16524
_cell_angle_gamma 120.3995
loop_
_atom_site_label
_atom_site_type_symbol
_atom_site_fract_x
_atom_site_fract_y
_atom_site_fract_z
_atom_type_partial_charge
Zn0 Zn 0.12164 0.54759 0.22283 0.0
Zn1 Zn 0.89056 0.40653 0.15652 0.0
C2 C 0.94529 0.55101 0.28746 0.0
O3 O 0.02945 0.69403 0.28775 0.0
C4 C 0.18755 0.54344 0.11218 0.0
O5 O 0.27762 0.60098 0.14268 0.0
O6 O 0.28963 0.66216 0.26122 0.0
O7 O 0.1303 0.37399 0.19533 0.0
O8 O 0.89187 0.25026 0.18482 0.0
C9 C 0.28952 0.613 0.29326 0.0
O10 O 0.20137 0.47263 0.29653 0.0
O11 O 0.95218 0.46746 0.25905 0.0
C12 C 0.72963 0.39091 0.09384 0.0
O13 O 0.83626 0.5286 0.09835 0.0
O14 O 0.71584 0.30708 0.11935 0.0
O15 O 0.88555 0.58025 0.18557 0.0
O16 O 0.12365 0.70267 0.19343 0.0
O17 O 0.05021 0.4732 0.11669 0.0
C18 C 0.01091 0.25177 0.18997 0.0
C19 C 0.00496 0.70216 0.18947 0.0
Zn20 Zn 0.45887 0.96713 0.55374 0.0
Zn21 Zn 0.59289 0.20187 0.49896 0.0
C22 C 0.57175 0.09306 0.63071 0.0
O23 O 0.61061 -0.0071 0.62654 0.0
C24 C 0.43726 0.01388 0.43314 0.0
O25 O 0.4157 0.12482 0.43167 0.0
O26 O 0.3591 0.78042 0.57919 0.0
O27 O 0.30367 0.97827 0.52427 0.0
O28 O 0.42893 0.21893 0.52568 0.0
C29 C 0.26252 0.76488 0.60414 0.0
O30 O 0.20755 0.85179 0.6053 0.0
O31 O 0.51937 0.11548 0.60122 0.0
C32 C 0.76239 0.32043 0.43568 0.0
O33 O 0.78592 0.21392 0.44186 0.0
O34 O 0.6878 0.35274 0.46008 0.0
O35 O 0.75699 0.21831 0.53109 0.0
O36 O 0.63889 0.97803 0.52854 0.0
O37 O 0.50334 0.01124 0.46287 0.0
C38 C 0.30652 0.10001 0.52556 0.0
C39 C 0.75914 0.09956 0.53046 0.0
Zn40 Zn 0.36119 0.34025 0.88685 0.0
Zn41 Zn 0.2517 0.42328 0.81484 0.0
C42 C 0.38742 0.52496 0.95519 0.0
O43 O 0.52555 0.5662 0.94958 0.0
C44 C 0.41731 0.2572 0.78192 0.0
O45 O 0.43338 0.21027 0.81406 0.0
O46 O 0.4615 0.27131 0.91978 0.0
O47 O 0.18611 0.16178 0.86003 0.0
O48 O 0.07344 0.27009 0.83963 0.0
C49 C 0.39729 0.20741 0.94956 0.0
O50 O 0.25593 0.15538 0.95238 0.0
O51 O 0.29265 0.43778 0.92886 0.0
C52 C 0.29413 0.56569 0.74968 0.0
O53 O 0.42578 0.59665 0.76002 0.0
O54 O 0.18809 0.49545 0.77174 0.0
O55 O 0.39929 0.60463 0.84784 0.0
O56 O 0.52167 0.49469 0.85738 0.0
O57 O 0.35251 0.33049 0.78241 0.0
C58 C 0.06917 0.15689 0.85011 0.0
C59 C 0.52036 0.61123 0.85309 0.0
C60 C 0.13833 0.97784 0.19539 0.0
C61 C 0.00637 0.84266 0.18957 0.0
H62 H 0.24349 0.21254 0.20013 0.0
C63 C 0.87609 0.84334 0.18387 0.0
H64 H 0.24076 0.98144 0.19989 0.0
C65 C 0.87771 0.97601 0.18402 0.0
C66 C 0.00964 0.11125 0.18987 0.0
H67 H 0.77258 0.74131 0.17924 0.0
H68 H 0.77522 0.9723 0.17951 0.0
C69 C 0.13995 0.11054 0.19555 0.0
C70 C 0.16653 0.23424 0.52857 0.0
C71 C 0.16732 0.1016 0.52692 0.0
H72 H 0.03737 0.33807 0.53111 0.0
C73 C 0.03302 0.96921 0.52694 0.0
H74 H 0.26799 0.33824 0.52872 0.0
C75 C 0.9012 0.96911 0.52839 0.0
C76 C 0.90003 0.1014 0.52985 0.0
H77 H 0.02929 0.86496 0.52582 0.0
H78 H 0.80003 0.86483 0.52823 0.0
C79 C 0.03428 0.23414 0.53002 0.0
C80 C 0.79165 0.76081 0.86251 0.0
C81 C 0.65966 0.75189 0.85267 0.0
H82 H 0.02361 0.89499 0.86949 0.0
C83 C 0.66288 0.8776 0.84202 0.0
H84 H 0.79295 0.6661 0.87095 0.0
C85 C 0.7958 0.0094 0.84104 0.0
C86 C 0.92788 0.01803 0.85085 0.0
H87 H 0.56297 0.87402 0.83413 0.0
H88 H 0.7949 0.10429 0.8326 0.0
C89 C 0.92409 0.89229 0.86167 0.0
C90 C 0.19116 0.49582 1.00177 0.0
C91 C 0.33996 0.54991 0.99472 0.0
H92 H 0.02699 0.45107 0.04417 0.0
C93 C 0.44059 0.61234 0.02659 0.0
H94 H 0.11075 0.44705 0.97797 0.0
C95 C 0.39239 0.61445 0.06482 0.0
C96 C 0.24265 0.55405 0.07191 0.0
H97 H 0.55612 0.65433 1.0222 0.0
H98 H 0.47188 0.65914 0.0888 0.0
C99 C 0.14315 0.49773 0.03986 0.0
C100 C 0.79962 0.28933 0.36467 0.0
C101 C 0.79836 0.37945 0.39751 0.0
H102 H 0.84084 0.27051 0.304 0.0
C103 C 0.83077 0.52267 0.39308 0.0
H104 H 0.7721 0.17728 0.36704 0.0
C105 C 0.87221 0.57736 0.35671 0.0
C106 C 0.87818 0.48825 0.3241 0.0
H107 H 0.82927 0.59375 0.41794 0.0
H108 H 0.90346 0.69043 0.35439 0.0
C109 C 0.83736 0.34236 0.32835 0.0
C110 C 0.15956 0.62885 0.70387 0.0
C111 C 0.27107 0.59931 0.71108 0.0
H112 H 0.0687 0.7049 0.66379 0.0
C113 C 0.36601 0.60582 0.68103 0.0
H114 H 0.08439 0.62351 0.72654 0.0
C115 C 0.3544 0.6473 0.64502 0.0
C116 C 0.25014 0.68763 0.63851 0.0
H117 H 0.45183 0.58162 0.68555 0.0
H118 H 0.43317 0.65597 0.62312 0.0
C119 C 0.15024 0.67447 0.66794 0.0
C120 C 0.63301 0.34872 0.98737 0.0
C121 C 0.48596 0.23557 0.98511 0.0
H122 H 0.82241 0.48847 1.0237 0.0
C123 C 0.42104 0.16634 1.01875 0.0
H124 H 0.68659 0.4052 0.9622 0.0
C125 C 0.50079 0.21307 0.05424 0.0
C126 C 0.6449 0.33219 0.05668 0.0
H127 H 0.30764 0.07918 1.0179 0.0
H128 H 0.44826 0.16016 0.07997 0.0
C129 C 0.71066 0.39773 1.02281 0.0
C130 C 0.34261 0.66917 0.36563 0.0
C131 C 0.34901 0.71819 0.32889 0.0
H132 H 0.36681 0.72535 0.42788 0.0
C133 C 0.39316 0.86654 0.32707 0.0
H134 H 0.30847 0.55539 0.36799 0.0
C135 C 0.42147 0.9613 0.3611 0.0
C136 C 0.40999 0.91132 0.39778 0.0
H137 H 0.39923 0.90847 0.29938 0.0
H138 H 0.45174 0.07408 0.35864 0.0
C139 C 0.37475 0.76572 0.39986 0.0
C140 C 0.52787 0.12943 0.74024 0.0
C141 C 0.47225 0.2253 0.74424 0.0
H142 H 0.60475 0.01325 0.70107 0.0
C143 C 0.46441 0.28831 0.7112 0.0
H144 H 0.53577 0.0794 0.7651 0.0
C145 C 0.5051 0.25195 0.67476 0.0
C146 C 0.55414 0.15092 0.67029 0.0
H147 H 0.42295 0.3632 0.71317 0.0
H148 H 0.49286 0.2991 0.64982 0.0
C149 C 0.56829 0.09241 0.70356 0.0
loop_
_geom_bond_atom_site_label_1
_geom_bond_atom_site_label_2
_geom_bond_distance
_geom_bond_site_symmetry_2
_ccdc_geom_bond_type
Zn0 O6 1.969 . S
Zn0 O7 1.965 . S
Zn0 O11 2.024 1_455 S
Zn0 O16 1.969 . S
Zn1 O8 1.969 . S
Zn1 O14 1.969 1_455 S
Zn1 O15 1.965 1_455 S
Zn1 O17 2.024 . S
C2 O3 1.229 . S
C2 O11 1.058 . S
O3 C2 1.229 . S
C4 O5 1.229 . S
C4 O17 1.058 . S
O5 C4 1.229 . S
O6 Zn0 1.969 . S
O6 C9 1.267 . S
O7 Zn0 1.965 . S
O7 C18 1.260 . S
O8 Zn1 1.969 . S
O8 C18 1.258 . S
C9 O6 1.267 . S
C9 O10 1.228 . S
O10 C9 1.228 . S
O11 Zn0 2.024 1_655 S
O11 C2 1.058 . S
C12 O13 1.228 . S
C12 O14 1.267 . S
O13 C12 1.228 . S
O14 Zn1 1.969 1_655 S
O14 C12 1.267 . S
O15 Zn1 1.965 1_655 S
O15 C19 1.260 1_655 S
O16 Zn0 1.969 . S
O16 C19 1.258 . S
O17 Zn1 2.024 . S
O17 C4 1.058 . S
C18 O7 1.260 . S
C18 O8 1.258 . S
C19 O15 1.260 1_455 S
C19 O16 1.258 . S
Zn20 O26 1.969 1_545 S
Zn20 O27 1.965 1_545 S
Zn20 O31 2.024 . S
Zn20 O36 1.969 . S
Zn21 O28 1.969 . S
Zn21 O34 1.969 . S
Zn21 O35 1.965 . S
Zn21 O37 2.024 1_545 S
C22 O23 1.229 . S
C22 O31 1.058 . S
O23 C22 1.229 . S
C24 O25 1.229 . S
C24 O37 1.058 . S
O25 C24 1.229 . S
O26 Zn20 1.969 1_565 S
O26 C29 1.267 . S
O27 Zn20 1.965 1_565 S
O27 C38 1.260 1_565 S
O28 Zn21 1.969 . S
O28 C38 1.258 . S
C29 O26 1.267 . S
C29 O30 1.228 . S
O30 C29 1.228 . S
O31 Zn20 2.024 . S
O31 C22 1.058 . S
C32 O33 1.228 . S
C32 O34 1.267 . S
O33 C32 1.228 . S
O34 Zn21 1.969 . S
O34 C32 1.267 . S
O35 Zn21 1.965 . S
O35 C39 1.260 . S
O36 Zn20 1.969 . S
O36 C39 1.258 . S
O37 Zn21 2.024 1_565 S
O37 C24 1.058 . S
C38 O27 1.260 1_545 S
C38 O28 1.258 . S
C39 O35 1.260 . S
C39 O36 1.258 . S
Zn40 O46 1.969 . S
Zn40 O47 1.965 . S
Zn40 O51 2.024 . S
Zn40 O56 1.969 . S
Zn41 O48 1.969 . S
Zn41 O54 1.969 . S
Zn41 O55 1.965 . S
Zn41 O57 2.024 . S
C42 O43 1.229 . S
C42 O51 1.058 . S
O43 C42 1.229 . S
C44 O45 1.229 . S
C44 O57 1.058 . S
O45 C44 1.229 . S
O46 Zn40 1.969 . S
O46 C49 1.267 . S
O47 Zn40 1.965 . S
O47 C58 1.260 . S
O48 Zn41 1.969 . S
O48 C58 1.258 . S
C49 O46 1.267 . S
C49 O50 1.228 . S
O50 C49 1.228 . S
O51 Zn40 2.024 . S
O51 C42 1.058 . S
C52 O53 1.228 . S
C52 O54 1.267 . S
O53 C52 1.228 . S
O54 Zn41 1.969 . S
O54 C52 1.267 . S
O55 Zn41 1.965 . S
O55 C59 1.260 . S
O56 Zn40 1.969 . S
O56 C59 1.258 . S
O57 Zn41 2.024 . S
O57 C44 1.058 . S
C58 O47 1.260 . S
C58 O48 1.258 . S
C59 O55 1.260 . S
C59 O56 1.258 . S
C60 C61 1.387 . S
C60 H64 0.950 . S
C60 C69 1.390 1_565 S
C61 C60 1.387 . S
C61 C63 1.387 . S
H62 C69 0.950 . S
C63 C61 1.387 . S
C63 C65 1.390 1_565 S
C63 H67 0.950 . S
H64 C60 0.950 . S
C65 C63 1.390 1_545 S
C65 C66 1.387 . S
C65 H68 0.950 . S
C66 C65 1.387 . S
C66 C69 1.387 . S
H67 C63 0.950 . S
H68 C65 0.950 . S
C69 C60 1.390 1_545 S
C69 H62 0.950 . S
C69 C66 1.387 . S
C70 C71 1.387 . S
C70 H74 0.950 . S
C70 C79 1.390 . S
C71 C70 1.387 . S
C71 C73 1.387 1_545 S
H72 C79 0.950 . S
C73 C71 1.387 1_565 S
C73 C75 1.390 1_455 S
C73 H77 0.950 . S
H74 C70 0.950 . S
C75 C73 1.390 1_655 S
C75 C76 1.387 1_565 S
C75 H78 0.950 . S
C76 C75 1.387 1_545 S
C76 C79 1.387 1_655 S
H77 C73 0.950 . S
H78 C75 0.950 . S
C79 C70 1.390 . S
C79 H72 0.950 . S
C79 C76 1.387 1_455 S
C80 C81 1.387 . S
C80 H84 0.950 . S
C80 C89 1.390 1_665 S
C81 C80 1.387 . S
C81 C83 1.387 . S
H82 C89 0.950 . S
C83 C81 1.387 . S
C83 C85 1.390 1_665 S
C83 H87 0.950 . S
H84 C80 0.950 . S
C85 C83 1.390 1_445 S
C85 C86 1.387 . S
C85 H88 0.950 . S
C86 C85 1.387 . S
C86 C89 1.387 . S
H87 C83 0.950 . S
H88 C85 0.950 . S
C89 C80 1.390 1_445 S
C89 H82 0.950 . S
C89 C86 1.387 . S
C90 C91 1.387 . S
C90 H94 0.950 . S
C90 C99 1.390 1_556 S
C91 C90 1.387 . S
C91 C93 1.387 . S
H92 C99 0.950 . S
C93 C91 1.387 . S
C93 C95 1.390 1_556 S
C93 H97 0.950 . S
H94 C90 0.950 . S
C95 C93 1.390 1_554 S
C95 C96 1.387 . S
C95 H98 0.950 . S
C96 C95 1.387 . S
C96 C99 1.387 . S
H97 C93 0.950 . S
H98 C95 0.950 . S
C99 C90 1.390 1_554 S
C99 H92 0.950 . S
C99 C96 1.387 . S
C100 C101 1.387 . S
C100 H104 0.950 . S
C100 C109 1.390 . S
C101 C100 1.387 . S
C101 C103 1.387 . S
H102 C109 0.950 . S
C103 C101 1.387 . S
C103 C105 1.390 . S
C103 H107 0.950 . S
H104 C100 0.950 . S
C105 C103 1.390 . S
C105 C106 1.387 . S
C105 H108 0.950 . S
C106 C105 1.387 . S
C106 C109 1.387 . S
H107 C103 0.950 . S
H108 C105 0.950 . S
C109 C100 1.390 . S
C109 H102 0.950 . S
C109 C106 1.387 . S
C110 C111 1.387 . S
C110 H114 0.950 . S
C110 C119 1.390 . S
C111 C110 1.387 . S
C111 C113 1.387 . S
H112 C119 0.950 . S
C113 C111 1.387 . S
C113 C115 1.390 . S
C113 H117 0.950 . S
H114 C110 0.950 . S
C115 C113 1.390 . S
C115 C116 1.387 . S
C115 H118 0.950 . S
C116 C115 1.387 . S
C116 C119 1.387 . S
H117 C113 0.950 . S
H118 C115 0.950 . S
C119 C110 1.390 . S
C119 H112 0.950 . S
C119 C116 1.387 . S
C120 C121 1.387 . S
C120 H124 0.950 . S
C120 C129 1.390 1_556 S
C121 C120 1.387 . S
C121 C123 1.387 . S
H122 C129 0.950 . S
C123 C121 1.387 . S
C123 C125 1.390 1_556 S
C123 H127 0.950 . S
H124 C120 0.950 . S
C125 C123 1.390 1_554 S
C125 C126 1.387 . S
C125 H128 0.950 . S
C126 C125 1.387 . S
C126 C129 1.387 . S
H127 C123 0.950 . S
H128 C125 0.950 . S
C129 C120 1.390 1_554 S
C129 H122 0.950 . S
C129 C126 1.387 . S
C130 C131 1.387 . S
C130 H134 0.950 . S
C130 C139 1.390 . S
C131 C130 1.387 . S
C131 C133 1.387 . S
H132 C139 0.950 . S
C133 C131 1.387 . S
C133 C135 1.390 . S
C133 H137 0.950 . S
H134 C130 0.950 . S
C135 C133 1.390 . S
C135 C136 1.387 . S
C135 H138 0.950 . S
C136 C135 1.387 . S
C136 C139 1.387 . S
H137 C133 0.950 . S
H138 C135 0.950 . S
C139 C130 1.390 . S
C139 H132 0.950 . S
C139 C136 1.387 . S
C140 C141 1.387 . S
C140 H144 0.950 . S
C140 C149 1.390 . S
C141 C140 1.387 . S
C141 C143 1.387 . S
H142 C149 0.950 . S
C143 C141 1.387 . S
C143 C145 1.390 . S
C143 H147 0.950 . S
H144 C140 0.950 . S
C145 C143 1.390 . S
C145 C146 1.387 . S
C145 H148 0.950 . S
C146 C145 1.387 . S
C146 C149 1.387 . S
H147 C143 0.950 . S
H148 C145 0.950 . S
C149 C140 1.390 . S
C149 H142 0.950 . S
C149 C146 1.387 . S
C61 C19 1.619 . S
C66 C18 1.619 . S
C71 C38 1.606 . S
C76 C39 1.606 . S
C81 C59 1.614 . S
C86 C58 1.614 . S
C91 C42 1.152 . S
C96 C4 1.218 . S
C101 C32 1.302 . S
C106 C2 1.218 . S
C111 C52 1.189 . S
C116 C29 1.184 . S
C121 C49 1.163 . S
C126 C12 1.189 . S
C131 C9 1.111 . S
C136 C24 1.137 . S
C141 C44 1.231 . S
C146 C22 1.134 . S
