# Generated by pormake.
# Topology pcu, (6)-cn, num edge types: 1
# Building blocks:
#     Node 0, Type 0, BuildingBlock: BETFEN_clean_sbu_0, # of connection points: 6
#     Edge 1, Type (0, 0), BuildingBlock: OJICUG_clean_linker_0, # of connection points: 2
#     Edge 2, Type (0, 0), BuildingBlock: OJICUG_clean_linker_0, # of connection points: 2
#     Edge 3, Type (0, 0), BuildingBlock: OJICUG_clean_linker_0, # of connection points: 2
# Relax obj value: 0.000
# Max RMSD: 0.000
# Mean RMSD: 0.000
data_MOF--net-pcu--node1-BETFEN_clean_sbu_0--edge1-OJICUG_clean_linker_0
_symmetry_space_group_name_H-M    P1
_symmetry_Int_Tables_number       1
_symmetry_cell_setting            triclinic
loop_
_symmetry_equiv_pos_as_xyz
'x, y, z'
_cell_length_a     21.213907
_cell_length_b     11.621789
_cell_length_c     10.534348
_cell_angle_alpha  88.501641
_cell_angle_beta   95.735416
_cell_angle_gamma 122.59651
loop_
_atom_site_label
_atom_site_type_symbol
_atom_site_fract_x
_atom_site_fract_y
_atom_site_fract_z
_atom_type_partial_charge
Pr0 Pr 0.95371 0.88345 0.01846 0.0
Pr1 Pr 0.12307 0.05562 1.00802 0.0
C2 C 0.81019 0.77505 0.06838 0.0
C3 C 0.75482 0.81543 0.06016 0.0
C4 C 0.67973 0.72033 0.01474 0.0
C5 C 0.62676 0.75758 1.00381 0.0
C6 C 0.64791 0.89094 0.03819 0.0
C7 C 0.7233 -0.01415 0.08419 0.0
C8 C 0.77617 0.94846 0.095 0.0
C9 C 0.99776 0.92208 0.77205 0.0
C10 C 0.0418 0.22396 1.0101 0.0
C11 C 0.26675 0.16434 0.95887 0.0
C12 C 0.32211 0.12394 0.96702 0.0
C13 C 0.3972 0.219 1.01243 0.0
C14 C 0.45015 0.18173 0.02333 0.0
C15 C 0.42898 0.04835 0.98893 0.0
C16 C 0.35359 0.95348 0.94293 0.0
C17 C 0.30073 -0.0091 0.93215 0.0
C18 C 0.07857 0.01686 0.25427 0.0
C19 C 1.03497 0.71512 0.01591 0.0
O20 O 0.86795 0.8392 0.15477 0.0
O21 O 0.82803 0.75373 0.96009 0.0
O22 O 1.02613 0.01384 0.85929 0.0
O23 O 0.9431 0.80663 0.80928 0.0
O24 O 0.10014 0.22848 0.97074 0.0
O25 O 0.98408 0.10879 0.04716 0.0
O26 O 0.20916 0.10065 0.87212 0.0
O27 O 0.24867 0.18499 0.0672 0.0
O28 O 0.05072 0.92512 0.16715 0.0
O29 O 0.13308 0.13251 0.21703 0.0
O30 O 0.97664 0.71057 0.05539 0.0
O31 O 0.09268 0.83033 0.97891 0.0
H32 H 0.66204 0.61708 0.98752 0.0
H33 H 0.56905 0.68142 0.96963 0.0
H34 H 0.74179 0.08981 0.11003 0.0
H35 H 0.8338 0.02371 0.13012 0.0
H36 H 0.4149 0.32226 0.03968 0.0
H37 H 0.50787 0.25787 0.05751 0.0
H38 H 0.33508 0.84951 0.91708 0.0
H39 H 0.2431 0.91568 0.89705 0.0
C40 C 0.09508 0.09917 0.47951 0.0
C41 C 0.05763 -0.00752 0.38649 0.0
H42 H 0.10566 0.16044 0.67475 0.0
C43 C 1.00044 0.86252 0.42125 0.0
H44 H 0.13939 0.20044 0.45541 0.0
C45 C 0.98117 0.83968 0.54676 0.0
C46 C 1.01864 0.94637 0.63978 0.0
H47 H 0.97062 0.77841 0.3515 0.0
H48 H 0.93685 0.73841 0.57088 0.0
C49 C 0.07582 0.07633 0.60502 0.0
C50 C 0.53915 0.05251 0.10818 0.0
C51 C 0.48516 0.00818 1.00145 0.0
H52 H 0.63176 0.04872 0.20454 0.0
C53 C 0.48512 0.9248 0.907 0.0
H54 H 0.54005 0.11496 0.18373 0.0
C55 C 0.53772 0.88674 0.91896 0.0
C56 C 0.59172 0.93108 0.02569 0.0
H57 H 0.44512 0.89053 0.8226 0.0
H58 H 0.53683 0.82429 0.84341 0.0
C59 C 0.59175 0.01446 0.12014 0.0
C60 C 0.97635 0.46517 0.05348 0.0
C61 C 1.03662 0.58938 0.01441 0.0
H62 H 0.93072 0.25302 0.08286 0.0
C63 C 0.09863 0.5923 0.9738 0.0
H64 H 0.92766 0.45907 0.08529 0.0
C65 C 0.10039 0.47388 0.97237 0.0
C66 C 0.04013 0.34968 1.01147 0.0
H67 H 0.14602 0.68604 0.94298 0.0
H68 H 0.14908 0.47998 0.94057 0.0
C69 C 0.97811 0.34675 0.05204 0.0
loop_
_geom_bond_atom_site_label_1
_geom_bond_atom_site_label_2
_geom_bond_distance
_geom_bond_site_symmetry_2
_ccdc_geom_bond_type
Pr0 C2 2.880 . S
Pr0 O20 2.562 1_556 S
Pr0 O21 2.490 . S
Pr0 O22 2.695 1_655 S
Pr0 O23 2.512 . S
Pr0 O25 2.437 1_565 S
Pr0 O28 2.436 1_566 S
Pr0 O30 2.438 . S
Pr1 C11 2.880 . S
Pr1 O22 2.436 1_544 S
Pr1 O24 2.438 . S
Pr1 O26 2.562 1_554 S
Pr1 O27 2.490 . S
Pr1 O28 2.695 1_455 S
Pr1 O29 2.512 . S
Pr1 O31 2.437 1_545 S
C2 Pr0 2.880 . S
C2 C3 1.491 . S
C2 O20 1.254 1_556 S
C2 O21 1.225 . S
C3 C2 1.491 . S
C3 C4 1.392 . S
C3 C8 1.356 1_566 S
C4 C3 1.392 . S
C4 C5 1.368 . S
C4 H32 0.929 . S
C5 C4 1.368 . S
C5 C6 1.386 . S
C5 H33 0.929 . S
C6 C5 1.386 . S
C6 C7 1.373 1_566 S
C7 C6 1.373 1_544 S
C7 C8 1.409 . S
C7 H34 0.931 . S
C8 C3 1.356 1_544 S
C8 C7 1.409 . S
C8 H35 0.930 . S
C9 O22 1.270 1_655 S
C9 O23 1.248 . S
C10 O24 1.267 1_556 S
C10 O25 1.278 1_455 S
C11 Pr1 2.880 . S
C11 C12 1.491 . S
C11 O26 1.254 1_554 S
C11 O27 1.225 . S
C12 C11 1.491 . S
C12 C13 1.392 . S
C12 C17 1.356 1_544 S
C13 C12 1.392 . S
C13 C14 1.368 . S
C13 H36 0.929 . S
C14 C13 1.368 . S
C14 C15 1.386 . S
C14 H37 0.929 . S
C15 C14 1.386 . S
C15 C16 1.373 1_544 S
C16 C15 1.373 1_566 S
C16 C17 1.409 . S
C16 H38 0.931 . S
C17 C12 1.356 1_566 S
C17 C16 1.409 . S
C17 H39 0.930 . S
C18 O28 1.270 1_455 S
C18 O29 1.248 . S
C19 O30 1.267 1_554 S
C19 O31 1.278 1_655 S
O20 Pr0 2.562 1_554 S
O20 C2 1.254 1_554 S
O21 Pr0 2.490 . S
O21 C2 1.225 . S
O22 Pr0 2.695 1_455 S
O22 Pr1 2.436 1_566 S
O22 C9 1.270 1_455 S
O23 Pr0 2.512 . S
O23 C9 1.248 . S
O24 Pr1 2.438 . S
O24 C10 1.267 1_554 S
O25 Pr0 2.437 1_545 S
O25 C10 1.278 1_655 S
O26 Pr1 2.562 1_556 S
O26 C11 1.254 1_556 S
O27 Pr1 2.490 . S
O27 C11 1.225 . S
O28 Pr0 2.436 1_544 S
O28 Pr1 2.695 1_655 S
O28 C18 1.270 1_655 S
O29 Pr1 2.512 . S
O29 C18 1.248 . S
O30 Pr0 2.438 . S
O30 C19 1.267 1_556 S
O31 Pr1 2.437 1_565 S
O31 C19 1.278 1_455 S
H32 C4 0.929 . S
H33 C5 0.929 . S
H34 C7 0.931 . S
H35 C8 0.930 . S
H36 C13 0.929 . S
H37 C14 0.929 . S
H38 C16 0.931 . S
H39 C17 0.930 . S
C40 C41 1.387 . S
C40 H44 0.950 . S
C40 C49 1.390 . S
C41 C40 1.387 . S
C41 C43 1.387 1_445 S
H42 C49 0.950 . S
C43 C41 1.387 1_665 S
C43 C45 1.390 . S
C43 H47 0.950 . S
H44 C40 0.950 . S
C45 C43 1.390 . S
C45 C46 1.387 . S
C45 H48 0.950 . S
C46 C45 1.387 . S
C46 C49 1.387 1_665 S
H47 C43 0.950 . S
H48 C45 0.950 . S
C49 C40 1.390 . S
C49 H42 0.950 . S
C49 C46 1.387 1_445 S
C50 C51 1.385 1_565 S
C50 H54 0.950 . S
C50 C59 1.390 . S
C51 C50 1.385 1_545 S
C51 C53 1.385 1_554 S
H52 C59 0.950 . S
C53 C51 1.385 1_556 S
C53 C55 1.390 . S
C53 H57 0.950 . S
H54 C50 0.950 . S
C55 C53 1.390 . S
C55 C56 1.386 1_546 S
C55 H58 0.950 . S
C56 C55 1.386 1_564 S
C56 C59 1.386 . S
H57 C53 0.950 . S
H58 C55 0.950 . S
C59 C50 1.390 . S
C59 H52 0.950 . S
C59 C56 1.386 . S
C60 C61 1.390 . S
C60 H64 0.950 . S
C60 C69 1.390 . S
C61 C60 1.390 . S
C61 C63 1.390 1_454 S
H62 C69 0.950 . S
C63 C61 1.390 1_656 S
C63 C65 1.390 . S
C63 H67 0.950 . S
H64 C60 0.950 . S
C65 C63 1.390 . S
C65 C66 1.388 1_556 S
C65 H68 0.950 . S
C66 C65 1.388 1_554 S
C66 C69 1.388 1_655 S
H67 C63 0.950 . S
H68 C65 0.950 . S
C69 C60 1.390 . S
C69 H62 0.950 . S
C69 C66 1.388 1_455 S
C41 C18 1.451 . S
C46 C9 1.450 . S
C51 C15 1.504 . S
C56 C6 1.502 1_554 S
C61 C19 1.486 1_455 S
C66 C10 1.489 1_654 S
