# Generated by pormake.
# Topology fnv, (5)-cn, num edge types: 1
# Building blocks:
#     Node 0, Type 0, BuildingBlock: BEQFEK_clean_sbu_0, # of connection points: 5
#     Node 1, Type 0, BuildingBlock: BEQFEK_clean_sbu_0, # of connection points: 5
#     Node 2, Type 0, BuildingBlock: BEQFEK_clean_sbu_0, # of connection points: 5
#     Node 3, Type 0, BuildingBlock: BEQFEK_clean_sbu_0, # of connection points: 5
#     Node 4, Type 0, BuildingBlock: BEQFEK_clean_sbu_0, # of connection points: 5
#     Node 5, Type 0, BuildingBlock: BEQFEK_clean_sbu_0, # of connection points: 5
#     Edge 6, Type (0, 0), None
#     Edge 7, Type (0, 0), None
#     Edge 8, Type (0, 0), None
#     Edge 9, Type (0, 0), None
#     Edge 10, Type (0, 0), None
#     Edge 11, Type (0, 0), None
#     Edge 12, Type (0, 0), None
#     Edge 13, Type (0, 0), None
#     Edge 14, Type (0, 0), None
#     Edge 15, Type (0, 0), None
#     Edge 16, Type (0, 0), None
#     Edge 17, Type (0, 0), None
#     Edge 18, Type (0, 0), None
#     Edge 19, Type (0, 0), None
#     Edge 20, Type (0, 0), None
# Relax obj value: 0.531
# Max RMSD: 0.275
# Mean RMSD: 0.275
data_MOF--net-fnv--node1-BEQFEK_clean_sbu_0--edge1-none
_symmetry_space_group_name_H-M    P1
_symmetry_Int_Tables_number       1
_symmetry_cell_setting            triclinic
loop_
_symmetry_equiv_pos_as_xyz
'x, y, z'
_cell_length_a     17.49163
_cell_length_b     17.492569
_cell_length_c     18.224431
_cell_angle_alpha  90.002618
_cell_angle_beta   89.995594
_cell_angle_gamma 120.0012
loop_
_atom_site_label
_atom_site_type_symbol
_atom_site_fract_x
_atom_site_fract_y
_atom_site_fract_z
_atom_type_partial_charge
Co0 Co 0.28568 0.37053 0.87912 0.0
Co1 Co 0.3253 0.52893 -0.01466 0.0
C2 C 0.28735 0.52693 0.82315 0.0
O3 O 0.27675 0.45141 0.80713 0.0
O4 O 0.30442 0.55694 0.88787 0.0
C5 C 0.25965 0.24439 0.75998 0.0
O6 O 0.22778 0.28468 0.72031 0.0
C7 C 0.2719 0.64684 0.05418 0.0
C8 C 0.39347 0.73948 0.11261 0.0
C9 C 0.30738 0.72014 0.09981 0.0
N10 N 0.33319 0.62342 0.04208 0.0
N11 N 0.40689 0.68122 0.07501 0.0
C12 C 0.17876 0.59595 0.02706 0.0
H13 H 0.16734 0.53647 -0.00385 0.0
H14 H 0.13202 0.57653 0.0738 0.0
H15 H 0.16562 0.63898 -0.00931 0.0
C16 C 0.13366 0.27926 -0.01207 0.0
N17 N 0.21072 0.3487 -0.03519 0.0
N18 N 0.23558 0.41304 0.01319 0.0
C19 C 0.17912 0.38437 0.07036 0.0
C20 C 0.11074 0.29938 0.05577 0.0
C21 C 0.07998 0.19745 -0.05621 0.0
H22 H 0.12237 0.18755 0.90415 0.0
H23 H 0.02922 0.20435 0.91267 0.0
H24 H 0.04558 0.13922 -0.01956 0.0
O25 O 0.41292 0.43104 0.90918 0.0
O26 O 0.44171 0.54118 -0.01455 0.0
H27 H 0.25316 0.49965 0.13831 0.0
H28 H 0.17924 0.4003 0.18696 0.0
C29 C 0.18761 0.43905 0.13638 0.0
H30 H 0.1346 0.45624 0.13593 0.0
H31 H 0.46536 0.67895 0.07407 0.0
O32 O 0.27515 0.2633 0.82796 0.0
C33 C 0.46612 0.49546 -0.05074 0.0
Co34 Co 0.92343 0.28139 0.21242 0.0
Co35 Co 0.80463 0.32104 0.31858 0.0
C36 C 0.76873 0.28309 0.15639 0.0
O37 O 0.83365 0.27249 0.1404 0.0
O38 O 0.75576 0.30015 0.22112 0.0
C39 C 0.02358 0.25548 0.09327 0.0
O40 O 0.95159 0.22412 0.05343 0.0
C41 C 0.63331 0.26763 0.38742 0.0
C42 C 0.66221 0.3892 0.44584 0.0
C43 C 0.59548 0.30311 0.43306 0.0
N44 N 0.71801 0.32893 0.37531 0.0
N45 N 0.7339 0.40263 0.40823 0.0
C46 C 0.59108 0.17449 0.36032 0.0
H47 H 0.63915 0.16307 0.32941 0.0
H48 H 0.56376 0.12777 0.40706 0.0
H49 H 0.53491 0.16134 0.32394 0.0
C50 C 0.86265 0.12939 0.32123 0.0
N51 N 0.87026 0.20644 0.2981 0.0
N52 N 0.83079 0.23131 0.34646 0.0
C53 C 0.80298 0.17487 0.40364 0.0
C54 C 0.81961 0.1065 0.38907 0.0
C55 C 0.89079 0.07571 0.27711 0.0
H56 H 0.94312 0.11809 0.2375 0.0
H57 H 0.83315 0.02499 0.24595 0.0
H58 H 0.91456 0.04127 0.31377 0.0
O59 O 0.99021 0.40863 0.24248 0.0
O60 O 0.90881 0.43744 0.31869 0.0
H61 H 0.76175 0.24893 0.47157 0.0
H62 H 0.78721 0.17504 0.52024 0.0
C63 C 0.75681 0.18338 0.46967 0.0
H64 H 0.68661 0.13037 0.46922 0.0
H65 H 0.79464 0.46111 0.40729 0.0
O66 O 0.02009 0.27073 0.16129 0.0
C67 C 0.97897 0.46184 0.28253 0.0
Co68 Co 0.65035 0.91924 0.54576 0.0
Co69 Co 0.4919 0.80045 0.65193 0.0
C70 C 0.49393 0.7645 0.48975 0.0
O71 O 0.56944 0.82943 0.47375 0.0
O72 O 0.4639 0.75152 0.55447 0.0
C73 C 0.77636 0.01935 0.42658 0.0
O74 O 0.73571 0.94736 0.38675 0.0
C75 C 0.37407 0.6292 0.72088 0.0
C76 C 0.28153 0.65825 0.77947 0.0
C77 C 0.30097 0.59159 0.76671 0.0
N78 N 0.39744 0.71388 0.7087 0.0
N79 N 0.33969 0.72984 0.74171 0.0
C80 C 0.42494 0.58693 0.69376 0.0
H81 H 0.48441 0.63496 0.66282 0.0
H82 H 0.44437 0.55962 0.7405 0.0
H83 H 0.38187 0.53075 0.65741 0.0
C84 C 0.74159 0.85848 0.65456 0.0
N85 N 0.67215 0.86609 0.63144 0.0
N86 N 0.6078 0.82663 0.67981 0.0
C87 C 0.63646 0.79885 0.73699 0.0
C88 C 0.72145 0.81546 0.72241 0.0
C89 C 0.8234 0.8866 0.61043 0.0
H90 H 0.83334 0.93891 0.57081 0.0
H91 H 0.81648 0.82895 0.57928 0.0
H92 H 0.88162 0.91039 0.64709 0.0
O93 O 0.58989 0.98602 0.57582 0.0
O94 O 0.47966 0.90462 0.65201 0.0
H95 H 0.5212 0.7577 0.80496 0.0
H96 H 0.62056 0.78314 0.8536 0.0
C97 C 0.58179 0.75272 0.80304 0.0
H98 H 0.56458 0.68253 0.80261 0.0
H99 H 0.34196 0.79057 0.74072 0.0
O100 O 0.75764 0.01588 0.49461 0.0
C101 C 0.52543 0.97478 0.61586 0.0
Co102 Co 0.73946 0.64617 0.87907 0.0
Co103 Co 0.69983 0.4877 -0.0148 0.0
C104 C 0.73777 0.48976 0.82301 0.0
O105 O 0.74834 0.56527 0.80704 0.0
O106 O 0.72073 0.45972 0.88773 0.0
C107 C 0.76535 0.7722 0.75991 0.0
O108 O 0.79672 0.73158 0.72008 0.0
C109 C 0.75324 0.36985 0.05414 0.0
C110 C 0.6316 0.27727 0.11266 0.0
C111 C 0.71772 0.29673 0.09994 0.0
N112 N 0.69192 0.39322 0.04195 0.0
N113 N 0.6182 0.33546 0.07491 0.0
C114 C 0.8464 0.42073 0.02707 0.0
H115 H 0.85784 0.4802 -0.00387 0.0
H116 H 0.8931 0.44015 0.07383 0.0
H117 H 0.85954 0.37768 -0.00927 0.0
C118 C 0.89146 0.73739 -0.01211 0.0
N119 N 0.81442 0.66794 -0.03526 0.0
N120 N 0.78955 0.60359 0.01309 0.0
C121 C 0.84596 0.63224 0.07029 0.0
C122 C 0.91433 0.71724 0.05573 0.0
C123 C 0.94514 0.81924 -0.0562 0.0
H124 H 0.90277 0.82915 0.90416 0.0
H125 H 0.99593 0.81239 0.91268 0.0
H126 H 0.9795 0.87744 -0.01952 0.0
O127 O 0.61223 0.58572 0.90917 0.0
O128 O 0.58343 0.47549 -0.01466 0.0
H129 H 0.77185 0.51696 0.13822 0.0
H130 H 0.84571 0.61631 0.1869 0.0
C131 C 0.8374 0.57756 0.13633 0.0
H132 H 0.89041 0.56038 0.13592 0.0
H133 H 0.55972 0.33771 0.0739 0.0
O134 O 0.75009 0.75346 0.82793 0.0
C135 C 0.55904 0.52127 -0.05077 0.0
Co136 Co 0.10156 0.73519 0.21243 0.0
Co137 Co 0.22043 0.69557 0.31851 0.0
C138 C 0.25635 0.73363 0.15635 0.0
O139 O 0.19138 0.74417 0.1404 0.0
O140 O 0.26936 0.71653 0.22104 0.0
C141 C 1.00147 0.76115 0.09328 0.0
O142 O 0.07349 0.79258 0.05347 0.0
C143 C 0.39169 0.74897 0.38747 0.0
C144 C 0.36262 0.62737 0.44602 0.0
C145 C 0.42929 0.71348 0.4333 0.0
N146 N 0.307 0.68766 0.37527 0.0
N147 N 0.29104 0.61395 0.40825 0.0
C148 C 0.43397 0.84212 0.36038 0.0
H149 H 0.38594 0.85357 0.32945 0.0
H150 H 0.46127 0.88884 0.40714 0.0
H151 H 0.49016 0.85525 0.32403 0.0
C152 C 0.16229 0.88714 0.32127 0.0
N153 N 0.15472 0.81012 0.29811 0.0
N154 N 0.19423 0.78526 0.34644 0.0
C155 C 0.22201 0.84168 0.40364 0.0
C156 C 0.20534 0.91003 0.38911 0.0
C157 C 0.1341 0.94081 0.27719 0.0
H158 H 0.08175 0.89841 0.23761 0.0
H159 H 0.19172 0.99153 0.246 0.0
H160 H 0.11035 0.97524 0.31388 0.0
O161 O 0.03479 0.60795 0.24248 0.0
O162 O 0.11626 0.57915 0.3186 0.0
H163 H 0.26323 0.76761 0.47156 0.0
H164 H 0.23775 0.84148 0.52024 0.0
C165 C 0.26817 0.83316 0.46966 0.0
H166 H 0.33836 0.88617 0.46923 0.0
H167 H 0.2303 0.55548 0.40724 0.0
O168 O 1.00491 0.74585 0.16129 0.0
C169 C 0.04607 0.55475 0.28251 0.0
Co170 Co 0.37464 0.09734 0.54575 0.0
Co171 Co 0.53319 0.21626 0.65178 0.0
C172 C 0.53098 0.25208 0.48961 0.0
O173 O 0.45547 0.1871 0.47369 0.0
O174 O 0.56112 0.26513 0.5543 0.0
C175 C 0.24857 0.99717 0.42663 0.0
O176 O 0.28917 0.06918 0.38681 0.0
C177 C 0.65105 0.38753 0.72072 0.0
C178 C 0.74362 0.35848 0.77925 0.0
C179 C 0.72416 0.42514 0.76654 0.0
N180 N 0.6277 0.30286 0.70851 0.0
N181 N 0.68545 0.2869 0.74147 0.0
C182 C 0.60017 0.4298 0.69364 0.0
H183 H 0.54071 0.38178 0.6627 0.0
H184 H 0.58075 0.45709 0.7404 0.0
H185 H 0.64323 0.486 0.6573 0.0
C186 C 0.28349 0.15823 0.65453 0.0
N187 N 0.35291 0.15058 0.6314 0.0
N188 N 0.4173 0.1901 0.67972 0.0
C189 C 0.38871 0.21798 0.73689 0.0
C190 C 0.30376 0.20146 0.72228 0.0
C191 C 0.20158 0.12996 0.6105 0.0
H192 H 0.19176 0.07779 0.57077 0.0
H193 H 0.20826 0.1876 0.57949 0.0
H194 H 0.14339 0.10594 0.64722 0.0
O195 O 0.43511 0.03058 0.57583 0.0
O196 O 0.54543 0.11209 0.6519 0.0
H197 H 0.50399 0.25914 0.80481 0.0
H198 H 0.40464 0.23359 0.8535 0.0
C199 C 0.44339 0.26407 0.80293 0.0
H200 H 0.46055 0.33426 0.80257 0.0
H201 H 0.6832 0.22617 0.74046 0.0
O202 O 0.26732 1.00065 0.49465 0.0
C203 C 0.49961 0.04188 0.61584 0.0
loop_
_geom_bond_atom_site_label_1
_geom_bond_atom_site_label_2
_geom_bond_distance
_geom_bond_site_symmetry_2
_ccdc_geom_bond_type
Co0 O3 1.970 . S
Co0 N17 1.989 1_556 S
Co0 O25 1.967 . S
Co0 O32 1.920 . S
Co1 O4 1.966 1_554 S
Co1 N10 2.022 . S
Co1 N18 1.993 . S
Co1 O26 1.941 . S
C2 O3 1.258 . S
C2 O4 1.263 . S
O3 Co0 1.970 . S
O3 C2 1.258 . S
O4 Co1 1.966 1_556 S
O4 C2 1.263 . S
C5 O6 1.235 . S
C5 O32 1.289 . S
O6 C5 1.235 . S
C7 C9 1.400 . S
C7 N10 1.351 . S
C7 C12 1.501 . S
C8 C9 1.387 . S
C8 N11 1.341 . S
C9 C7 1.400 . S
C9 C8 1.387 . S
N10 Co1 2.022 . S
N10 C7 1.351 . S
N10 N11 1.365 . S
N11 C8 1.341 . S
N11 N10 1.365 . S
N11 H31 0.862 . S
C12 C7 1.501 . S
C12 H13 0.961 . S
C12 H14 0.961 . S
C12 H15 0.960 . S
H13 C12 0.961 . S
H14 C12 0.961 . S
H15 C12 0.960 . S
C16 N17 1.342 . S
C16 C20 1.401 . S
C16 C21 1.499 1_554 S
N17 Co0 1.989 1_554 S
N17 C16 1.342 . S
N17 N18 1.388 . S
N18 Co1 1.993 . S
N18 N17 1.388 . S
N18 C19 1.346 . S
C19 N18 1.346 . S
C19 C20 1.396 . S
C19 C29 1.510 . S
C20 C16 1.401 . S
C20 C19 1.396 . S
C21 C16 1.499 1_556 S
C21 H22 0.959 . S
C21 H23 0.960 . S
C21 H24 0.961 1_556 S
H22 C21 0.959 . S
H23 C21 0.960 . S
H24 C21 0.961 1_554 S
O25 Co0 1.967 . S
O25 C33 1.258 1_556 S
O26 Co1 1.941 . S
O26 C33 1.266 . S
H27 C29 0.959 . S
H28 C29 0.961 . S
C29 C19 1.510 . S
C29 H27 0.959 . S
C29 H28 0.961 . S
C29 H30 0.960 . S
H30 C29 0.960 . S
H31 N11 0.862 . S
O32 Co0 1.920 . S
O32 C5 1.289 . S
C33 O25 1.258 1_554 S
C33 O26 1.266 . S
Co34 O37 1.970 . S
Co34 N51 1.989 . S
Co34 O59 1.967 1_655 S
Co34 O66 1.920 1_655 S
Co35 O38 1.966 . S
Co35 N44 2.022 . S
Co35 N52 1.993 . S
Co35 O60 1.941 . S
C36 O37 1.258 . S
C36 O38 1.263 . S
O37 Co34 1.970 . S
O37 C36 1.258 . S
O38 Co35 1.966 . S
O38 C36 1.263 . S
C39 O40 1.235 1_455 S
C39 O66 1.289 . S
O40 C39 1.235 1_655 S
C41 C43 1.400 . S
C41 N44 1.351 . S
C41 C46 1.501 . S
C42 C43 1.387 . S
C42 N45 1.341 . S
C43 C41 1.400 . S
C43 C42 1.387 . S
N44 Co35 2.022 . S
N44 C41 1.351 . S
N44 N45 1.365 . S
N45 C42 1.341 . S
N45 N44 1.365 . S
N45 H65 0.862 . S
C46 C41 1.501 . S
C46 H47 0.961 . S
C46 H48 0.961 . S
C46 H49 0.960 . S
H47 C46 0.961 . S
H48 C46 0.961 . S
H49 C46 0.960 . S
C50 N51 1.342 . S
C50 C54 1.401 . S
C50 C55 1.499 . S
N51 Co34 1.989 . S
N51 C50 1.342 . S
N51 N52 1.388 . S
N52 Co35 1.993 . S
N52 N51 1.388 . S
N52 C53 1.346 . S
C53 N52 1.346 . S
C53 C54 1.396 . S
C53 C63 1.510 . S
C54 C50 1.401 . S
C54 C53 1.396 . S
C55 C50 1.499 . S
C55 H56 0.959 . S
C55 H57 0.960 . S
C55 H58 0.961 1_655 S
H56 C55 0.959 . S
H57 C55 0.960 . S
H58 C55 0.961 1_455 S
O59 Co34 1.967 1_455 S
O59 C67 1.258 1_455 S
O60 Co35 1.941 . S
O60 C67 1.266 . S
H61 C63 0.959 . S
H62 C63 0.961 . S
C63 C53 1.510 . S
C63 H61 0.959 . S
C63 H62 0.961 . S
C63 H64 0.960 . S
H64 C63 0.960 . S
H65 N45 0.862 . S
O66 Co34 1.920 1_455 S
O66 C39 1.289 . S
C67 O59 1.258 1_655 S
C67 O60 1.266 . S
Co68 O71 1.970 . S
Co68 N85 1.989 . S
Co68 O93 1.967 1_565 S
Co68 O100 1.920 1_565 S
Co69 O72 1.966 . S
Co69 N78 2.022 . S
Co69 N86 1.993 . S
Co69 O94 1.941 . S
C70 O71 1.258 . S
C70 O72 1.263 . S
O71 Co68 1.970 . S
O71 C70 1.258 . S
O72 Co69 1.966 . S
O72 C70 1.263 . S
C73 O74 1.235 1_545 S
C73 O100 1.289 . S
O74 C73 1.235 1_565 S
C75 C77 1.400 . S
C75 N78 1.351 . S
C75 C80 1.501 . S
C76 C77 1.387 . S
C76 N79 1.341 . S
C77 C75 1.400 . S
C77 C76 1.387 . S
N78 Co69 2.022 . S
N78 C75 1.351 . S
N78 N79 1.365 . S
N79 C76 1.341 . S
N79 N78 1.365 . S
N79 H99 0.862 . S
C80 C75 1.501 . S
C80 H81 0.961 . S
C80 H82 0.961 . S
C80 H83 0.960 . S
H81 C80 0.961 . S
H82 C80 0.961 . S
H83 C80 0.960 . S
C84 N85 1.342 . S
C84 C88 1.401 . S
C84 C89 1.499 . S
N85 Co68 1.989 . S
N85 C84 1.342 . S
N85 N86 1.388 . S
N86 Co69 1.993 . S
N86 N85 1.388 . S
N86 C87 1.346 . S
C87 N86 1.346 . S
C87 C88 1.396 . S
C87 C97 1.510 . S
C88 C84 1.401 . S
C88 C87 1.396 . S
C89 C84 1.499 . S
C89 H90 0.959 . S
C89 H91 0.960 . S
C89 H92 0.961 1_565 S
H90 C89 0.959 . S
H91 C89 0.960 . S
H92 C89 0.961 1_545 S
O93 Co68 1.967 1_545 S
O93 C101 1.258 1_545 S
O94 Co69 1.941 . S
O94 C101 1.266 . S
H95 C97 0.959 . S
H96 C97 0.961 . S
C97 C87 1.510 . S
C97 H95 0.959 . S
C97 H96 0.961 . S
C97 H98 0.960 . S
H98 C97 0.960 . S
H99 N79 0.862 . S
O100 Co68 1.920 1_545 S
O100 C73 1.289 . S
C101 O93 1.258 1_565 S
C101 O94 1.266 . S
Co102 O105 1.970 . S
Co102 N119 1.989 1_556 S
Co102 O127 1.967 . S
Co102 O134 1.920 . S
Co103 O106 1.966 1_554 S
Co103 N112 2.022 . S
Co103 N120 1.993 . S
Co103 O128 1.941 . S
C104 O105 1.258 . S
C104 O106 1.263 . S
O105 Co102 1.970 . S
O105 C104 1.258 . S
O106 Co103 1.966 1_556 S
O106 C104 1.263 . S
C107 O108 1.235 . S
C107 O134 1.289 . S
O108 C107 1.235 . S
C109 C111 1.400 . S
C109 N112 1.351 . S
C109 C114 1.501 . S
C110 C111 1.387 . S
C110 N113 1.341 . S
C111 C109 1.400 . S
C111 C110 1.387 . S
N112 Co103 2.022 . S
N112 C109 1.351 . S
N112 N113 1.365 . S
N113 C110 1.341 . S
N113 N112 1.365 . S
N113 H133 0.862 . S
C114 C109 1.501 . S
C114 H115 0.961 . S
C114 H116 0.961 . S
C114 H117 0.960 . S
H115 C114 0.961 . S
H116 C114 0.961 . S
H117 C114 0.960 . S
C118 N119 1.342 . S
C118 C122 1.401 . S
C118 C123 1.499 1_554 S
N119 Co102 1.989 1_554 S
N119 C118 1.342 . S
N119 N120 1.388 . S
N120 Co103 1.993 . S
N120 N119 1.388 . S
N120 C121 1.346 . S
C121 N120 1.346 . S
C121 C122 1.396 . S
C121 C131 1.510 . S
C122 C118 1.401 . S
C122 C121 1.396 . S
C123 C118 1.499 1_556 S
C123 H124 0.959 . S
C123 H125 0.960 . S
C123 H126 0.961 1_556 S
H124 C123 0.959 . S
H125 C123 0.960 . S
H126 C123 0.961 1_554 S
O127 Co102 1.967 . S
O127 C135 1.258 1_556 S
O128 Co103 1.941 . S
O128 C135 1.266 . S
H129 C131 0.959 . S
H130 C131 0.961 . S
C131 C121 1.510 . S
C131 H129 0.959 . S
C131 H130 0.961 . S
C131 H132 0.960 . S
H132 C131 0.960 . S
H133 N113 0.862 . S
O134 Co102 1.920 . S
O134 C107 1.289 . S
C135 O127 1.258 1_554 S
C135 O128 1.266 . S
Co136 O139 1.970 . S
Co136 N153 1.989 . S
Co136 O161 1.967 1_455 S
Co136 O168 1.920 1_455 S
Co137 O140 1.966 . S
Co137 N146 2.022 . S
Co137 N154 1.993 . S
Co137 O162 1.941 . S
C138 O139 1.258 . S
C138 O140 1.263 . S
O139 Co136 1.970 . S
O139 C138 1.258 . S
O140 Co137 1.966 . S
O140 C138 1.263 . S
C141 O142 1.235 1_655 S
C141 O168 1.289 . S
O142 C141 1.235 1_455 S
C143 C145 1.400 . S
C143 N146 1.351 . S
C143 C148 1.501 . S
C144 C145 1.387 . S
C144 N147 1.341 . S
C145 C143 1.400 . S
C145 C144 1.387 . S
N146 Co137 2.022 . S
N146 C143 1.351 . S
N146 N147 1.365 . S
N147 C144 1.341 . S
N147 N146 1.365 . S
N147 H167 0.862 . S
C148 C143 1.501 . S
C148 H149 0.961 . S
C148 H150 0.961 . S
C148 H151 0.960 . S
H149 C148 0.961 . S
H150 C148 0.961 . S
H151 C148 0.960 . S
C152 N153 1.342 . S
C152 C156 1.401 . S
C152 C157 1.499 . S
N153 Co136 1.989 . S
N153 C152 1.342 . S
N153 N154 1.388 . S
N154 Co137 1.993 . S
N154 N153 1.388 . S
N154 C155 1.346 . S
C155 N154 1.346 . S
C155 C156 1.396 . S
C155 C165 1.510 . S
C156 C152 1.401 . S
C156 C155 1.396 . S
C157 C152 1.499 . S
C157 H158 0.959 . S
C157 H159 0.960 . S
C157 H160 0.961 1_455 S
H158 C157 0.959 . S
H159 C157 0.960 . S
H160 C157 0.961 1_655 S
O161 Co136 1.967 1_655 S
O161 C169 1.258 1_655 S
O162 Co137 1.941 . S
O162 C169 1.266 . S
H163 C165 0.959 . S
H164 C165 0.961 . S
C165 C155 1.510 . S
C165 H163 0.959 . S
C165 H164 0.961 . S
C165 H166 0.960 . S
H166 C165 0.960 . S
H167 N147 0.862 . S
O168 Co136 1.920 1_655 S
O168 C141 1.289 . S
C169 O161 1.258 1_455 S
C169 O162 1.266 . S
Co170 O173 1.970 . S
Co170 N187 1.989 . S
Co170 O195 1.967 1_545 S
Co170 O202 1.920 1_545 S
Co171 O174 1.966 . S
Co171 N180 2.022 . S
Co171 N188 1.993 . S
Co171 O196 1.941 . S
C172 O173 1.258 . S
C172 O174 1.263 . S
O173 Co170 1.970 . S
O173 C172 1.258 . S
O174 Co171 1.966 . S
O174 C172 1.263 . S
C175 O176 1.235 1_565 S
C175 O202 1.289 . S
O176 C175 1.235 1_545 S
C177 C179 1.400 . S
C177 N180 1.351 . S
C177 C182 1.501 . S
C178 C179 1.387 . S
C178 N181 1.341 . S
C179 C177 1.400 . S
C179 C178 1.387 . S
N180 Co171 2.022 . S
N180 C177 1.351 . S
N180 N181 1.365 . S
N181 C178 1.341 . S
N181 N180 1.365 . S
N181 H201 0.862 . S
C182 C177 1.501 . S
C182 H183 0.961 . S
C182 H184 0.961 . S
C182 H185 0.960 . S
H183 C182 0.961 . S
H184 C182 0.961 . S
H185 C182 0.960 . S
C186 N187 1.342 . S
C186 C190 1.401 . S
C186 C191 1.499 . S
N187 Co170 1.989 . S
N187 C186 1.342 . S
N187 N188 1.388 . S
N188 Co171 1.993 . S
N188 N187 1.388 . S
N188 C189 1.346 . S
C189 N188 1.346 . S
C189 C190 1.396 . S
C189 C199 1.510 . S
C190 C186 1.401 . S
C190 C189 1.396 . S
C191 C186 1.499 . S
C191 H192 0.959 . S
C191 H193 0.960 . S
C191 H194 0.961 1_545 S
H192 C191 0.959 . S
H193 C191 0.960 . S
H194 C191 0.961 1_565 S
O195 Co170 1.967 1_565 S
O195 C203 1.258 1_565 S
O196 Co171 1.941 . S
O196 C203 1.266 . S
H197 C199 0.959 . S
H198 C199 0.961 . S
C199 C189 1.510 . S
C199 H197 0.959 . S
C199 H198 0.961 . S
C199 H200 0.960 . S
H200 C199 0.960 . S
H201 N181 0.862 . S
O202 Co170 1.920 1_565 S
O202 C175 1.289 . S
C203 O195 1.258 1_545 S
C203 O196 1.266 . S
C135 C33 2.031 . S
C169 C67 2.031 1_455 S
C101 C203 2.031 1_565 S
C138 C9 1.188 . S
C172 C43 1.187 . S
C77 C2 1.187 . S
C36 C111 1.188 . S
C145 C70 1.187 . S
C179 C104 1.187 . S
C190 C5 1.165 . S
C39 C20 1.165 . S
C54 C73 1.165 . S
C88 C107 1.165 . S
C122 C141 1.165 . S
C156 C175 1.165 . S
