# Generated by pormake.
# Topology sma, (6)-cn, num edge types: 1
# Building blocks:
#     Node 0, Type 0, BuildingBlock: CUKXOW_clean_sbu_0, # of connection points: 6
#     Node 1, Type 0, BuildingBlock: CUKXOW_clean_sbu_0, # of connection points: 6
#     Node 2, Type 0, BuildingBlock: CUKXOW_clean_sbu_0, # of connection points: 6
#     Edge 3, Type (0, 0), None
#     Edge 4, Type (0, 0), None
#     Edge 5, Type (0, 0), None
#     Edge 6, Type (0, 0), None
#     Edge 7, Type (0, 0), None
#     Edge 8, Type (0, 0), None
#     Edge 9, Type (0, 0), None
#     Edge 10, Type (0, 0), None
#     Edge 11, Type (0, 0), None
# Relax obj value: 0.148
# Max RMSD: 0.257
# Mean RMSD: 0.232
data_MOF--net-sma--node1-CUKXOW_clean_sbu_0--edge1-none
_symmetry_space_group_name_H-M    P1
_symmetry_Int_Tables_number       1
_symmetry_cell_setting            triclinic
loop_
_symmetry_equiv_pos_as_xyz
'x, y, z'
_cell_length_a     14.529913
_cell_length_b     11.948059
_cell_length_c     6.8445145
_cell_angle_alpha  92.674784
_cell_angle_beta   89.339722
_cell_angle_gamma 102.68406
loop_
_atom_site_label
_atom_site_type_symbol
_atom_site_fract_x
_atom_site_fract_y
_atom_site_fract_z
_atom_type_partial_charge
Tb0 Tb 0.12762 0.70387 0.01442 0.0
C1 C 0.07807 0.57403 0.39677 0.0
Tb2 Tb 1.02391 0.44838 -0.00156 0.0
O3 O 1.01796 0.76062 0.85623 0.0
O4 O 0.98795 0.61115 0.02295 0.0
O5 O 0.08376 0.67212 0.31381 0.0
C6 C 0.89243 0.30473 0.1914 0.0
O7 O 0.07414 0.47722 0.2959 0.0
C8 C 0.19948 0.48716 0.89434 0.0
C9 C 0.07716 0.5732 0.60676 0.0
O10 O 0.96826 0.2779 0.11627 0.0
O11 O 0.88459 0.40341 0.13059 0.0
O12 O 0.13854 0.39346 0.83735 0.0
O13 O 0.16277 0.54257 0.02596 0.0
O14 O 1.01716 0.48705 0.69108 0.0
O15 O 0.13553 0.66037 0.70253 0.0
C16 C 0.26248 0.85766 0.19216 0.0
O17 O 0.27535 0.77108 0.08188 0.0
O18 O 0.17554 0.86826 0.1787 0.0
C19 C 0.95525 0.66763 0.89692 0.0
Tb20 Tb 0.47857 1.04014 0.53194 0.0
C21 C 0.57926 0.08698 0.14338 0.0
Tb22 Tb 0.68327 0.12506 0.53222 0.0
O23 O 0.44708 0.17923 0.71036 0.0
O24 O 0.56671 0.2073 0.51999 0.0
O25 O 0.50524 0.10219 0.24145 0.0
C26 C 0.83227 0.24568 0.34726 0.0
O27 O 0.6525 1.06739 0.23234 0.0
C28 C 0.63852 0.91942 0.66011 0.0
C29 C 0.57889 0.08761 -0.06636 0.0
O30 O 0.76862 0.28851 0.44079 0.0
O31 O 0.82044 0.13791 0.3843 0.0
O32 O 0.71621 0.9939 0.70762 0.0
O33 O 0.59541 0.95672 0.52211 0.0
O34 O 0.65458 0.14872 0.84397 0.0
O35 O 0.50411 1.02355 0.83999 0.0
C36 C 0.33097 0.91488 0.34009 0.0
O37 O 0.32994 1.00969 0.44037 0.0
O38 O 0.40903 0.8835 0.37206 0.0
C39 C 0.52392 0.25118 0.65915 0.0
Tb40 Tb 0.47906 0.56231 0.72832 0.0
C41 C 0.5791 0.58992 0.11319 0.0
Tb42 Tb 0.67818 0.61026 0.7238 0.0
O43 O 0.48233 0.39938 0.85531 0.0
O44 O 0.57736 0.45569 0.64127 0.0
O45 O 0.51428 0.62731 0.02288 0.0
C46 C 0.86184 0.63257 0.80161 0.0
O47 O 0.64413 0.55307 0.01421 0.0
C48 C 0.61472 0.80498 0.74921 0.0
C49 C 0.57819 0.58618 0.32183 0.0
O50 O 0.79433 0.55087 0.85856 0.0
O51 O 0.82752 0.69331 0.67976 0.0
O52 O 0.67864 0.77999 0.8574 0.0
O53 O 0.57951 0.71488 0.65058 0.0
O54 O 0.65827 0.5814 0.41044 0.0
O55 O 0.4982 0.58961 0.41688 0.0
C56 C 0.29349 0.52712 0.80366 0.0
O57 O 0.33234 0.46858 0.67452 0.0
O58 O 0.35729 0.6138 0.86914 0.0
C59 C 0.5452 0.37071 0.74196 0.0
loop_
_geom_bond_atom_site_label_1
_geom_bond_atom_site_label_2
_geom_bond_distance
_geom_bond_site_symmetry_2
_ccdc_geom_bond_type
Tb0 O3 2.453 1_455 S
Tb0 O4 2.596 1_455 S
Tb0 O5 2.374 . S
Tb0 O13 2.343 . S
Tb0 O15 2.353 1_554 S
Tb0 O17 2.427 . S
Tb0 O18 2.513 . S
C1 O5 1.249 1_655 S
C1 O7 1.260 . S
Tb2 O4 2.343 . S
Tb2 O7 2.353 . S
Tb2 O10 2.427 . S
Tb2 O11 2.513 1_554 S
Tb2 O12 2.453 1_655 S
Tb2 O13 2.596 1_655 S
Tb2 O14 2.374 1_554 S
O3 Tb0 2.453 1_655 S
O3 C19 1.245 . S
O4 Tb0 2.596 1_655 S
O4 Tb2 2.343 . S
O4 C19 1.259 . S
O5 Tb0 2.374 . S
O5 C1 1.249 1_455 S
C6 O10 1.275 . S
C6 O11 1.246 1_554 S
O7 C1 1.260 . S
O7 Tb2 2.353 . S
C8 O12 1.245 . S
C8 O13 1.259 . S
C9 O14 1.250 1_455 S
C9 O15 1.263 . S
O10 Tb2 2.427 . S
O10 C6 1.275 . S
O11 Tb2 2.513 1_556 S
O11 C6 1.246 1_556 S
O12 Tb2 2.453 1_455 S
O12 C8 1.245 . S
O13 Tb0 2.343 . S
O13 Tb2 2.596 1_455 S
O13 C8 1.259 . S
O14 Tb2 2.374 1_556 S
O14 C9 1.250 1_655 S
O15 Tb0 2.353 1_556 S
O15 C9 1.263 . S
C16 O17 1.275 . S
C16 O18 1.246 . S
O17 Tb0 2.427 . S
O17 C16 1.275 . S
O18 Tb0 2.513 . S
O18 C16 1.246 . S
C19 O3 1.245 . S
C19 O4 1.259 . S
Tb20 O23 2.453 1_565 S
Tb20 O24 2.596 1_565 S
Tb20 O25 2.374 . S
Tb20 O33 2.343 . S
Tb20 O35 2.353 1_565 S
Tb20 O37 2.427 . S
Tb20 O38 2.513 . S
C21 O25 1.251 1_545 S
C21 O27 1.263 1_545 S
Tb22 O24 2.343 . S
Tb22 O27 2.353 1_545 S
Tb22 O30 2.427 . S
Tb22 O31 2.513 . S
Tb22 O32 2.453 1_545 S
Tb22 O33 2.596 1_545 S
Tb22 O34 2.374 . S
O23 Tb20 2.453 1_545 S
O23 C39 1.245 . S
O24 Tb20 2.596 1_545 S
O24 Tb22 2.343 . S
O24 C39 1.259 . S
O25 Tb20 2.374 . S
O25 C21 1.251 1_565 S
C26 O30 1.275 . S
C26 O31 1.246 . S
O27 C21 1.263 1_565 S
O27 Tb22 2.353 1_565 S
C28 O32 1.245 . S
C28 O33 1.259 . S
C29 O34 1.250 . S
C29 O35 1.263 . S
O30 Tb22 2.427 . S
O30 C26 1.275 . S
O31 Tb22 2.513 . S
O31 C26 1.246 . S
O32 Tb22 2.453 1_565 S
O32 C28 1.245 . S
O33 Tb20 2.343 . S
O33 Tb22 2.596 1_565 S
O33 C28 1.259 . S
O34 Tb22 2.374 . S
O34 C29 1.250 . S
O35 Tb20 2.353 1_545 S
O35 C29 1.263 . S
C36 O37 1.275 . S
C36 O38 1.246 . S
O37 Tb20 2.427 . S
O37 C36 1.275 . S
O38 Tb20 2.513 . S
O38 C36 1.246 . S
C39 O23 1.245 . S
C39 O24 1.259 . S
Tb40 O43 2.453 . S
Tb40 O44 2.596 . S
Tb40 O45 2.374 1_556 S
Tb40 O53 2.343 . S
Tb40 O55 2.353 . S
Tb40 O57 2.427 . S
Tb40 O58 2.513 . S
C41 O45 1.251 . S
C41 O47 1.263 . S
Tb42 O44 2.343 . S
Tb42 O47 2.353 1_556 S
Tb42 O50 2.427 1_556 S
Tb42 O51 2.513 . S
Tb42 O52 2.453 . S
Tb42 O53 2.596 . S
Tb42 O54 2.374 . S
O43 Tb40 2.453 . S
O43 C59 1.245 . S
O44 Tb40 2.596 . S
O44 Tb42 2.343 . S
O44 C59 1.259 . S
O45 Tb40 2.374 1_554 S
O45 C41 1.251 . S
C46 O50 1.275 1_556 S
C46 O51 1.246 . S
O47 C41 1.263 . S
O47 Tb42 2.353 1_554 S
C48 O52 1.245 . S
C48 O53 1.259 . S
C49 O54 1.250 . S
C49 O55 1.263 . S
O50 Tb42 2.427 1_554 S
O50 C46 1.275 1_554 S
O51 Tb42 2.513 . S
O51 C46 1.246 . S
O52 Tb42 2.453 . S
O52 C48 1.245 . S
O53 Tb40 2.343 . S
O53 Tb42 2.596 . S
O53 C48 1.259 . S
O54 Tb42 2.374 . S
O54 C49 1.250 . S
O55 Tb40 2.353 . S
O55 C49 1.263 . S
C56 O57 1.275 . S
C56 O58 1.246 . S
O57 Tb40 2.427 . S
O57 C56 1.275 . S
O58 Tb40 2.513 . S
O58 C56 1.246 . S
C59 O43 1.245 . S
C59 O44 1.259 . S
C8 C56 2.773 1_554 S
C26 C6 2.975 . S
C28 C48 2.769 . S
C46 C19 2.581 1_556 S
C36 C16 1.875 . S
C59 C39 2.426 . S
C9 C1 0.628 1_455 S
C21 C29 0.588 1_554 S
C49 C41 0.506 . S
