# Generated by pormake.
# Topology qzd, (4)-cn, num edge types: 1
# Building blocks:
#     Node 0, Type 0, BuildingBlock: MUDLON_clean_sbu_0, # of connection points: 4
#     Node 1, Type 0, BuildingBlock: MUDLON_clean_sbu_0, # of connection points: 4
#     Node 2, Type 0, BuildingBlock: MUDLON_clean_sbu_0, # of connection points: 4
#     Edge 3, Type (0, 0), BuildingBlock: ZUJKAS_clean_linker_0, # of connection points: 2
#     Edge 4, Type (0, 0), BuildingBlock: ZUJKAS_clean_linker_0, # of connection points: 2
#     Edge 5, Type (0, 0), BuildingBlock: ZUJKAS_clean_linker_0, # of connection points: 2
#     Edge 6, Type (0, 0), BuildingBlock: ZUJKAS_clean_linker_0, # of connection points: 2
#     Edge 7, Type (0, 0), BuildingBlock: ZUJKAS_clean_linker_0, # of connection points: 2
#     Edge 8, Type (0, 0), BuildingBlock: ZUJKAS_clean_linker_0, # of connection points: 2
# Relax obj value: 0.001
# Max RMSD: 0.021
# Mean RMSD: 0.017
data_MOF--net-qzd--node1-MUDLON_clean_sbu_0--edge1-ZUJKAS_clean_linker_0
_symmetry_space_group_name_H-M    P1
_symmetry_Int_Tables_number       1
_symmetry_cell_setting            triclinic
loop_
_symmetry_equiv_pos_as_xyz
'x, y, z'
_cell_length_a     20.244754
_cell_length_b     19.587523
_cell_length_c     58.924092
_cell_angle_alpha  91.56361
_cell_angle_beta   90.165489
_cell_angle_gamma 120.649
loop_
_atom_site_label
_atom_site_type_symbol
_atom_site_fract_x
_atom_site_fract_y
_atom_site_fract_z
_atom_type_partial_charge
Mg0 Mg 1.00339 1.01317 0.01884 0.0
C1 C 0.12063 0.95648 1.01185 0.0
O2 O 0.05966 0.89724 1.00168 0.0
C3 C 0.82939 0.95457 0.02362 0.0
O4 O 0.83103 0.89356 0.03169 0.0
C5 C 0.96273 0.9606 0.96685 0.0
O6 O 0.90693 0.89654 0.97585 0.0
O7 O 0.01069 1.01737 0.97992 0.0
O8 O 0.11596 1.0137 0.02072 0.0
O9 O 0.9973 1.012 0.05783 0.0
C10 C 1.00201 0.96087 0.06951 0.0
O11 O 0.01005 0.90561 0.05899 0.0
O12 O 0.89134 1.01349 0.01689 0.0
Mg13 Mg 0.91292 0.09395 0.35392 0.0
C14 C 0.045 0.25198 0.34657 0.0
O15 O 0.06424 0.20136 0.33856 0.0
C16 C 0.76009 0.95826 0.3615 0.0
O17 O 0.80818 0.93276 0.36445 0.0
C18 C 0.94826 1.00978 0.31278 0.0
O19 O 0.95422 0.96344 0.32731 0.0
O20 O 0.93324 0.06218 0.31988 0.0
O21 O 0.97806 0.22447 0.35463 0.0
O22 O 0.95384 0.05829 0.38331 0.0
C23 C 0.97987 0.10804 0.40007 0.0
O24 O 0.98576 0.17745 0.39788 0.0
O25 O 0.7876 0.0309 0.35681 0.0
Mg26 Mg 0.15743 0.06609 0.68172 0.0
C27 C 0.20321 0.23364 0.66929 0.0
O28 O 0.14936 0.19221 0.65389 0.0
C29 C 0.23018 0.97165 0.69884 0.0
O30 O 0.20901 0.98566 0.71863 0.0
C31 C 0.13819 0.04039 0.63248 0.0
O32 O 0.21153 0.06871 0.6368 0.0
O33 O 0.09426 0.02917 0.64918 0.0
O34 O 0.22309 0.19711 0.68277 0.0
O35 O 0.08935 0.03242 0.71268 0.0
C36 C 0.12226 0.07964 0.72973 0.0
O37 O 0.18991 0.14314 0.72694 0.0
O38 O 0.22155 1.0033 0.68133 0.0
H39 H 0.80621 0.07015 1.00719 0.0
H40 H 0.68594 0.07104 1.0056 0.0
H41 H 0.56741 0.84094 0.03544 0.0
H42 H 0.68753 0.83974 0.03733 0.0
H43 H 0.5475 0.96219 0.98312 0.0
H44 H 0.50957 0.97597 0.07611 0.0
H45 H 0.59958 0.99732 0.0639 0.0
H46 H 0.52326 0.89626 0.06653 0.0
C47 C 0.75465 0.01979 0.01349 0.0
C48 C 0.75654 0.955 0.02249 0.0
C49 C 0.68599 0.0204 1.01254 0.0
C50 C 0.6181 0.95657 0.02068 0.0
C51 C 0.61952 0.89145 0.02946 0.0
H52 H 0.15082 0.84523 0.99386 0.0
H53 H 0.27185 0.84588 0.99575 0.0
C54 C 0.68816 0.89072 0.03041 0.0
C55 C 0.54553 0.95761 0.01959 0.0
H56 H 0.40539 0.95469 0.05237 0.0
C57 C 0.51643 0.9607 0.99824 0.0
C58 C 0.50577 0.95665 0.03939 0.0
C59 C 0.53632 0.9571 0.06281 0.0
C60 C 0.44783 0.96164 0.99613 0.0
C61 C 0.40689 0.95832 0.01588 0.0
C62 C 0.43662 0.95648 0.03725 0.0
C63 C 0.33351 0.95771 0.01476 0.0
C64 C 0.42038 0.96746 0.97282 0.0
C65 C 0.32767 1.0195 0.02526 0.0
C66 C 0.25854 1.01917 0.02431 0.0
C67 C 0.19379 0.9567 1.01294 0.0
C68 C 0.19967 0.89442 1.00265 0.0
C69 C 0.26889 0.89487 1.0036 0.0
H70 H 0.46719 0.98917 0.96029 0.0
H71 H 0.37386 0.90776 0.96684 0.0
H72 H 0.39697 1.00787 0.97324 0.0
H73 H 0.37686 0.06833 0.03406 0.0
H74 H 0.25592 0.06792 0.03249 0.0
H75 H 0.63935 0.97861 0.34928 0.0
H76 H 0.50154 0.87778 0.34895 0.0
H77 H 0.55465 0.70773 0.37533 0.0
H78 H 0.69062 0.80707 0.37597 0.0
H79 H 0.42875 0.73523 0.32481 0.0
H80 H 0.38204 0.67737 0.41615 0.0
H81 H 0.4654 0.76456 0.40577 0.0
H82 H 0.46339 0.67166 0.40687 0.0
C83 C 0.62136 0.92007 0.35534 0.0
C84 C 0.67614 0.90108 0.36267 0.0
C85 C 0.54266 0.86248 0.35512 0.0
C86 C 0.51745 0.78543 0.36252 0.0
C87 C 0.57218 0.76711 0.3701 0.0
H88 H 0.17948 0.32464 0.32413 0.0
H89 H 0.28277 0.46226 0.32769 0.0
C90 C 0.6503 0.8241 0.37025 0.0
C91 C 0.43515 0.72146 0.36076 0.0
H92 H 0.29545 0.56869 0.39037 0.0
C93 C 0.3989 0.69991 0.33925 0.0
C94 C 0.39519 0.67594 0.37961 0.0
C95 C 0.42828 0.69916 0.40343 0.0
C96 C 0.32669 0.63071 0.33582 0.0
C97 C 0.29029 0.58097 0.35429 0.0
C98 C 0.32363 0.60598 0.3761 0.0
C99 C 0.22321 0.49898 0.35091 0.0
C100 C 0.29113 0.61038 0.31227 0.0
C101 C 0.15506 0.4728 0.36303 0.0
C102 C 0.09525 0.39312 0.36108 0.0
C103 C 0.10327 0.33816 0.34725 0.0
C104 C 0.17111 0.36517 0.33492 0.0
C105 C 0.23024 0.44433 0.33677 0.0
H106 H 0.30978 0.66486 0.30253 0.0
H107 H 0.31023 0.57363 0.30297 0.0
H108 H 0.22743 0.57648 0.31281 0.0
H109 H 0.14864 0.51371 0.37424 0.0
H110 H 0.04401 0.37409 0.37092 0.0
H111 H 0.23732 0.89623 0.6598 0.0
H112 H 0.25269 0.78031 0.65666 0.0
H113 H 0.28769 0.79069 0.72918 0.0
H114 H 0.26976 0.90493 0.73255 0.0
H115 H 0.36336 0.74776 0.66712 0.0
H116 H 0.1096 0.56832 0.72018 0.0
H117 H 0.13311 0.66414 0.71018 0.0
H118 H 0.18306 0.65696 0.73447 0.0
C119 C 0.24913 0.87446 0.67508 0.0
C120 C 0.25137 0.90942 0.69647 0.0
C121 C 0.25783 0.80798 0.67325 0.0
C122 C 0.26933 0.77521 0.69274 0.0
C123 C 0.27646 0.81314 0.71396 0.0
H124 H 0.27014 0.32942 0.70744 0.0
H125 H 0.29782 0.46612 0.71395 0.0
C126 C 0.26684 0.879 0.71583 0.0
C127 C 0.27083 0.69985 0.69086 0.0
H128 H 0.17977 0.50817 0.70828 0.0
C129 C 0.32336 0.69553 0.67619 0.0
C130 C 0.21846 0.63124 0.70262 0.0
C131 C 0.15737 0.62987 0.71757 0.0
C132 C 0.32468 0.62476 0.67293 0.0
C133 C 0.27199 0.55632 0.68455 0.0
C134 C 0.22066 0.56096 0.69956 0.0
C135 C 0.26448 0.47755 0.67999 0.0
C136 C 0.38221 0.6235 0.65699 0.0
C137 C 0.23729 0.43892 0.65871 0.0
C138 C 0.22091 0.36094 0.65502 0.0
C139 C 0.23168 0.31981 0.6725 0.0
C140 C 0.26192 0.35966 0.69357 0.0
C141 C 0.27745 0.43762 0.69734 0.0
H142 H 0.43061 0.68432 0.65392 0.0
H143 H 0.40559 0.58762 0.66381 0.0
H144 H 0.35333 0.596 0.64042 0.0
H145 H 0.22571 0.46799 0.64519 0.0
H146 H 0.19758 0.332 0.63861 0.0
H147 H 0.93807 0.09637 0.27884 0.0
H148 H 0.95175 0.08282 0.23815 0.0
H149 H 0.99561 0.89285 0.24954 0.0
H150 H 0.98088 0.90519 0.29051 0.0
H151 H 0.0772 0.09872 0.21452 0.0
H152 H 0.82341 0.79542 0.20114 0.0
H153 H 0.8383 0.85449 0.22678 0.0
H154 H 0.89166 0.80503 0.22242 0.0
C155 C 0.95042 0.05141 0.27279 0.0
C156 C 0.95793 1.00151 0.28803 0.0
C157 C 0.95835 0.04389 0.24946 0.0
C158 C 0.97369 0.98617 0.24072 0.0
C159 C 0.98227 0.93681 0.25584 0.0
H160 H 0.0178 0.86548 0.09954 0.0
H161 H 0.01505 0.87193 0.14104 0.0
C162 C 0.97426 0.94424 0.27928 0.0
C163 C 0.98144 0.97907 0.21579 0.0
H164 H 0.89931 0.85501 0.16923 0.0
C165 C 0.03841 0.04535 0.20463 0.0
C166 C 0.93099 0.90933 0.20288 0.0
C167 C 0.86718 0.8371 0.21381 0.0
C168 C 0.04619 0.04396 0.18095 0.0
C169 C 0.9946 0.9749 0.16797 0.0
C170 C 0.93866 0.908 0.17917 0.0
C171 C 0.99667 0.97148 0.14273 0.0
C172 C 0.11019 0.11628 0.1701 0.0
C173 C 0.98616 0.02455 0.12981 0.0
C174 C 0.98788 0.02118 0.10607 0.0
C175 C 0.99949 0.96412 0.09471 0.0
C176 C 0.0089 0.91029 0.1077 0.0
C177 C 1.00731 0.91384 0.13145 0.0
H178 H 0.15709 0.15393 0.18253 0.0
H179 H 0.13475 0.09924 0.15572 0.0
H180 H 0.08718 0.1527 0.16347 0.0
H181 H 0.97603 0.06834 0.13809 0.0
H182 H 0.97984 0.06317 0.09663 0.0
H183 H 0.22444 0.07765 0.59454 0.0
H184 H 0.18326 0.06885 0.55525 0.0
H185 H 0.94834 0.96651 0.57616 0.0
H186 H 0.98983 0.97768 0.61601 0.0
H187 H 0.0891 0.94852 0.52694 0.0
H188 H 0.9751 0.15121 0.54057 0.0
H189 H 0.03029 0.13735 0.56208 0.0
H190 H 0.93078 0.06377 0.55714 0.0
C191 C 0.16384 0.05303 0.5909 0.0
C192 C 0.11051 0.02908 0.60852 0.0
C193 C 0.14034 0.04779 0.56832 0.0
C194 C 0.06285 1.01816 0.56267 0.0
C195 C 0.00874 0.99133 0.58011 0.0
H196 H 0.9288 0.95943 0.41667 0.0
H197 H 0.94265 0.92769 0.45581 0.0
C198 C 0.03243 0.99728 0.60287 0.0
C199 C 0.04064 1.01856 0.53855 0.0
H200 H 0.96865 0.10184 0.50338 0.0
C201 C 0.06214 0.98149 0.52178 0.0
C202 C 1.00606 0.06216 0.53178 0.0
C203 C 0.98473 0.10651 0.54877 0.0
C204 C 0.0524 0.98895 0.4985 0.0
C205 C 0.01855 0.03322 0.49176 0.0
C206 C 0.99455 0.06785 0.50854 0.0
C207 C 0.01299 0.0503 0.46757 0.0
C208 C 0.08186 0.95265 0.48137 0.0
C209 C 0.04765 0.12952 0.46109 0.0
C210 C 0.0391 0.14764 0.43893 0.0
C211 C 0.99593 0.08699 0.42259 0.0
C212 C 0.96315 1.00746 0.42881 0.0
C213 C 0.97111 0.98927 0.45118 0.0
H214 H 0.12194 0.93677 0.48927 0.0
H215 H 0.03268 0.89758 0.47379 0.0
H216 H 0.11191 0.99396 0.46747 0.0
H217 H 0.08054 0.17768 0.47334 0.0
H218 H 0.06528 0.20951 0.43471 0.0
H219 H 0.99766 0.94186 0.74465 0.0
H220 H 0.95224 0.91259 0.78384 0.0
H221 H 0.12951 0.14768 0.80604 0.0
H222 H 0.17423 0.17752 0.76731 0.0
H223 H 0.0361 0.91405 0.8218 0.0
H224 H 0.94056 0.1307 0.83537 0.0
H225 H 0.95711 0.10276 0.80744 0.0
H226 H 0.03631 0.17613 0.82479 0.0
C227 C 0.02607 0.98762 0.75785 0.0
C228 C 0.08946 0.06209 0.75281 0.0
C229 C 1.00025 0.97076 0.78023 0.0
C230 C 0.03674 0.02838 0.79784 0.0
C231 C 0.09927 0.10287 0.79271 0.0
H232 H 0.06825 0.08644 0.94267 0.0
H233 H 0.0791 0.0963 0.9014 0.0
C234 C 0.12514 0.11961 0.7705 0.0
C235 C 0.01348 1.01017 0.82187 0.0
H236 H 0.9666 0.08093 0.86901 0.0
C237 C 0.01956 0.94955 0.83206 0.0
C238 C 0.99202 0.05661 0.83526 0.0
C239 C 0.98033 0.11965 0.8251 0.0
C240 C 0.00857 0.93683 0.85548 0.0
C241 C 0.99007 0.98539 0.869 0.0
C242 C 0.9814 0.04416 0.85867 0.0
C243 C 0.98254 0.97842 0.89405 0.0
C244 C 0.02019 0.87391 0.86576 0.0
C245 C 0.92416 0.9091 0.90365 0.0
C246 C 0.91774 0.90325 0.92728 0.0
C247 C 0.96949 0.96674 0.94178 0.0
C248 C 0.02755 0.03631 0.93206 0.0
C249 C 0.03377 0.04214 0.90845 0.0
H250 H 0.0493 0.85285 0.85397 0.0
H251 H 0.05473 0.89676 0.88177 0.0
H252 H 0.96349 0.82221 0.86986 0.0
H253 H 0.88321 0.85969 0.89287 0.0
H254 H 0.87211 0.84895 0.93415 0.0
loop_
_geom_bond_atom_site_label_1
_geom_bond_atom_site_label_2
_geom_bond_distance
_geom_bond_site_symmetry_2
_ccdc_geom_bond_type
Mg0 O7 2.141 1_554 S
Mg0 O8 2.048 . S
Mg0 O9 2.048 . S
Mg0 O12 2.141 1_455 S
C1 O2 1.313 1_545 S
C1 O8 1.195 . S
O2 C1 1.313 1_565 S
C3 O4 1.245 1_545 S
C3 O12 1.289 . S
O4 C3 1.245 1_565 S
C5 O6 1.245 1_445 S
C5 O7 1.289 . S
O6 C5 1.245 1_665 S
O7 Mg0 2.141 1_556 S
O7 C5 1.289 . S
O8 Mg0 2.048 . S
O8 C1 1.195 . S
O9 Mg0 2.048 . S
O9 C10 1.195 . S
C10 O9 1.195 . S
C10 O11 1.313 1_445 S
O11 C10 1.313 1_665 S
O12 Mg0 2.141 1_655 S
O12 C3 1.289 . S
Mg13 O20 2.141 . S
Mg13 O21 2.048 1_655 S
Mg13 O22 2.048 . S
Mg13 O25 2.141 1_545 S
C14 O15 1.313 . S
C14 O21 1.195 . S
O15 C14 1.313 . S
C16 O17 1.245 . S
C16 O25 1.289 . S
O17 C16 1.245 . S
C18 O19 1.245 1_545 S
C18 O20 1.289 1_455 S
O19 C18 1.245 1_565 S
O20 Mg13 2.141 . S
O20 C18 1.289 1_655 S
O21 Mg13 2.048 1_455 S
O21 C14 1.195 . S
O22 Mg13 2.048 . S
O22 C23 1.195 1_655 S
C23 O22 1.195 1_455 S
C23 O24 1.313 1_545 S
O24 C23 1.313 1_565 S
O25 Mg13 2.141 1_565 S
O25 C16 1.289 . S
Mg26 O33 2.141 1_445 S
Mg26 O34 2.048 . S
Mg26 O35 2.047 1_545 S
Mg26 O38 2.141 1_445 S
C27 O28 1.313 . S
C27 O34 1.195 . S
O28 C27 1.313 . S
C29 O30 1.245 . S
C29 O38 1.289 1_455 S
O30 C29 1.245 . S
C31 O32 1.245 . S
C31 O33 1.289 1_445 S
O32 C31 1.245 . S
O33 Mg26 2.141 1_665 S
O33 C31 1.289 1_665 S
O34 Mg26 2.048 . S
O34 C27 1.195 . S
O35 Mg26 2.047 1_565 S
O35 C36 1.194 1_565 S
C36 O35 1.194 1_545 S
C36 O37 1.313 . S
O37 C36 1.313 . S
O38 Mg26 2.141 1_665 S
O38 C29 1.289 1_655 S
H39 C47 0.929 . S
H40 C49 0.930 . S
H41 C51 0.930 . S
H42 C54 0.929 . S
H43 C57 0.930 . S
H44 C59 0.960 . S
H45 C59 0.960 . S
H46 C59 0.960 . S
C47 H39 0.929 . S
C47 C48 1.377 1_556 S
C47 C49 1.384 . S
C48 C47 1.377 1_554 S
C48 C54 1.390 1_545 S
C49 H40 0.930 . S
C49 C47 1.384 . S
C49 C50 1.372 1_556 S
C50 C49 1.372 1_554 S
C50 C51 1.400 1_545 S
C50 C55 1.490 . S
C51 H41 0.930 . S
C51 C50 1.400 1_565 S
C51 C54 1.386 . S
H52 C68 0.930 . S
H53 C69 0.931 . S
C54 H42 0.929 . S
C54 C48 1.390 1_565 S
C54 C51 1.386 . S
C55 C50 1.490 . S
C55 C57 1.395 1_554 S
C55 C58 1.403 . S
H56 C62 0.930 . S
C57 H43 0.930 . S
C57 C55 1.395 1_556 S
C57 C60 1.403 . S
C58 C55 1.403 . S
C58 C59 1.524 . S
C58 C62 1.400 . S
C59 H44 0.960 . S
C59 H45 0.960 . S
C59 H46 0.960 . S
C59 C58 1.524 . S
C60 C57 1.403 . S
C60 C61 1.392 1_556 S
C60 C64 1.495 . S
C61 C60 1.392 1_554 S
C61 C62 1.385 . S
C61 C63 1.478 . S
C62 H56 0.930 . S
C62 C58 1.400 . S
C62 C61 1.385 . S
C63 C61 1.478 . S
C63 C65 1.381 1_554 S
C63 C69 1.383 1_545 S
C64 C60 1.495 . S
C64 H70 0.959 1_545 S
C64 H71 0.961 1_545 S
C64 H72 0.960 . S
C65 C63 1.381 1_556 S
C65 C66 1.394 . S
C65 H73 0.930 . S
C66 C65 1.394 . S
C66 C67 1.383 1_556 S
C66 H74 0.929 . S
C67 C66 1.383 1_554 S
C67 C68 1.377 1_545 S
C68 H52 0.930 . S
C68 C67 1.377 1_565 S
C68 C69 1.379 . S
C69 H53 0.931 . S
C69 C63 1.383 1_565 S
C69 C68 1.379 . S
H70 C64 0.959 1_565 S
H71 C64 0.961 1_565 S
H72 C64 0.960 . S
H73 C65 0.930 . S
H74 C66 0.929 . S
H75 C83 0.929 . S
H76 C85 0.930 . S
H77 C87 0.930 . S
H78 C90 0.929 . S
H79 C93 0.930 . S
H80 C95 0.960 . S
H81 C95 0.960 . S
H82 C95 0.960 . S
C83 H75 0.929 . S
C83 C84 1.377 . S
C83 C85 1.384 . S
C84 C83 1.377 . S
C84 C90 1.390 . S
C85 H76 0.930 . S
C85 C83 1.384 . S
C85 C86 1.372 . S
C86 C85 1.372 . S
C86 C87 1.400 . S
C86 C91 1.490 . S
C87 H77 0.930 . S
C87 C86 1.400 . S
C87 C90 1.386 . S
H88 C104 0.930 . S
H89 C105 0.931 . S
C90 H78 0.929 . S
C90 C84 1.390 . S
C90 C87 1.386 . S
C91 C86 1.490 . S
C91 C93 1.395 . S
C91 C94 1.403 . S
H92 C98 0.930 . S
C93 H79 0.930 . S
C93 C91 1.395 . S
C93 C96 1.403 . S
C94 C91 1.403 . S
C94 C95 1.524 . S
C94 C98 1.400 . S
C95 H80 0.960 . S
C95 H81 0.960 . S
C95 H82 0.960 . S
C95 C94 1.524 . S
C96 C93 1.403 . S
C96 C97 1.392 . S
C96 C100 1.495 . S
C97 C96 1.392 . S
C97 C98 1.385 . S
C97 C99 1.478 . S
C98 H92 0.930 . S
C98 C94 1.400 . S
C98 C97 1.385 . S
C99 C97 1.478 . S
C99 C101 1.381 . S
C99 C105 1.383 . S
C100 C96 1.495 . S
C100 H106 0.959 . S
C100 H107 0.961 . S
C100 H108 0.960 . S
C101 C99 1.381 . S
C101 C102 1.394 . S
C101 H109 0.930 . S
C102 C101 1.394 . S
C102 C103 1.383 . S
C102 H110 0.929 . S
C103 C102 1.383 . S
C103 C104 1.377 . S
C104 H88 0.930 . S
C104 C103 1.377 . S
C104 C105 1.379 . S
C105 H89 0.931 . S
C105 C99 1.383 . S
C105 C104 1.379 . S
H106 C100 0.959 . S
H107 C100 0.961 . S
H108 C100 0.960 . S
H109 C101 0.930 . S
H110 C102 0.929 . S
H111 C119 0.929 . S
H112 C121 0.930 . S
H113 C123 0.930 . S
H114 C126 0.929 . S
H115 C129 0.930 . S
H116 C131 0.960 . S
H117 C131 0.960 . S
H118 C131 0.960 . S
C119 H111 0.929 . S
C119 C120 1.377 1_655 S
C119 C121 1.384 . S
C120 C119 1.377 1_455 S
C120 C126 1.390 . S
C121 H112 0.930 . S
C121 C119 1.384 . S
C121 C122 1.372 1_655 S
C122 C121 1.372 1_455 S
C122 C123 1.400 . S
C122 C127 1.490 . S
C123 H113 0.930 . S
C123 C122 1.400 . S
C123 C126 1.386 . S
H124 C140 0.930 . S
H125 C141 0.931 . S
C126 H114 0.929 . S
C126 C120 1.390 . S
C126 C123 1.386 . S
C127 C122 1.490 . S
C127 C129 1.395 . S
C127 C130 1.403 . S
H128 C134 0.930 . S
C129 H115 0.930 . S
C129 C127 1.395 . S
C129 C132 1.403 . S
C130 C127 1.403 . S
C130 C131 1.524 . S
C130 C134 1.400 . S
C131 H116 0.960 . S
C131 H117 0.960 . S
C131 H118 0.960 . S
C131 C130 1.524 . S
C132 C129 1.403 . S
C132 C133 1.392 . S
C132 C136 1.495 . S
C133 C132 1.392 . S
C133 C134 1.385 . S
C133 C135 1.478 . S
C134 H128 0.930 . S
C134 C130 1.400 . S
C134 C133 1.385 . S
C135 C133 1.478 . S
C135 C137 1.381 1_455 S
C135 C141 1.383 . S
C136 C132 1.495 . S
C136 H142 0.959 . S
C136 H143 0.961 . S
C136 H144 0.960 1_455 S
C137 C135 1.381 1_655 S
C137 C138 1.394 . S
C137 H145 0.930 . S
C138 C137 1.394 . S
C138 C139 1.383 1_655 S
C138 H146 0.929 . S
C139 C138 1.383 1_455 S
C139 C140 1.377 . S
C140 H124 0.930 . S
C140 C139 1.377 . S
C140 C141 1.379 . S
C141 H125 0.931 . S
C141 C135 1.383 . S
C141 C140 1.379 . S
H142 C136 0.959 . S
H143 C136 0.961 . S
H144 C136 0.960 1_655 S
H145 C137 0.930 . S
H146 C138 0.929 . S
H147 C155 0.929 . S
H148 C157 0.930 . S
H149 C159 0.930 1_565 S
H150 C162 0.929 1_565 S
H151 C165 0.930 . S
H152 C167 0.960 . S
H153 C167 0.960 . S
H154 C167 0.960 1_455 S
C155 H147 0.929 . S
C155 C156 1.377 1_655 S
C155 C157 1.384 . S
C156 C155 1.377 1_455 S
C156 C162 1.390 . S
C157 H148 0.930 . S
C157 C155 1.384 . S
C157 C158 1.368 1_655 S
C158 C157 1.368 1_455 S
C158 C159 1.404 . S
C158 C163 1.490 . S
C159 H149 0.930 1_545 S
C159 C158 1.404 . S
C159 C162 1.386 . S
H160 C176 0.930 . S
H161 C177 0.931 . S
C162 H150 0.929 1_545 S
C162 C156 1.390 . S
C162 C159 1.386 . S
C163 C158 1.490 . S
C163 C165 1.395 . S
C163 C166 1.403 1_445 S
H164 C170 0.930 . S
C165 H151 0.930 . S
C165 C163 1.395 . S
C165 C168 1.403 . S
C166 C163 1.403 1_665 S
C166 C167 1.524 . S
C166 C170 1.400 . S
C167 H152 0.960 . S
C167 H153 0.960 . S
C167 H154 0.960 1_655 S
C167 C166 1.524 . S
C168 C165 1.403 . S
C168 C169 1.392 . S
C168 C172 1.495 . S
C169 C168 1.392 . S
C169 C170 1.385 1_445 S
C169 C171 1.478 . S
C170 H164 0.930 . S
C170 C166 1.400 . S
C170 C169 1.385 1_665 S
C171 C169 1.478 . S
C171 C173 1.381 1_455 S
C171 C177 1.383 . S
C172 C168 1.495 . S
C172 H178 0.959 . S
C172 H179 0.961 . S
C172 H180 0.960 1_455 S
C173 C171 1.381 1_655 S
C173 C174 1.394 . S
C173 H181 0.930 . S
C174 C173 1.394 . S
C174 C175 1.383 1_655 S
C174 H182 0.929 . S
C175 C174 1.383 1_455 S
C175 C176 1.377 . S
C176 H160 0.930 . S
C176 C175 1.377 . S
C176 C177 1.379 . S
C177 H161 0.931 . S
C177 C171 1.383 . S
C177 C176 1.379 . S
H178 C172 0.959 . S
H179 C172 0.961 . S
H180 C172 0.960 1_655 S
H181 C173 0.930 . S
H182 C174 0.929 . S
H183 C191 0.929 . S
H184 C193 0.930 . S
H185 C195 0.930 . S
H186 C198 0.929 . S
H187 C201 0.930 . S
H188 C203 0.960 . S
H189 C203 0.960 . S
H190 C203 0.960 . S
C191 H183 0.929 . S
C191 C192 1.377 . S
C191 C193 1.384 . S
C192 C191 1.377 . S
C192 C198 1.390 1_455 S
C193 H184 0.930 . S
C193 C191 1.384 . S
C193 C194 1.372 . S
C194 C193 1.372 . S
C194 C195 1.400 1_455 S
C194 C199 1.490 . S
C195 H185 0.930 . S
C195 C194 1.400 1_655 S
C195 C198 1.386 . S
H196 C212 0.930 . S
H197 C213 0.931 . S
C198 H186 0.929 . S
C198 C192 1.390 1_655 S
C198 C195 1.386 . S
C199 C194 1.490 . S
C199 C201 1.395 1_545 S
C199 C202 1.403 . S
H200 C206 0.930 . S
C201 H187 0.930 . S
C201 C199 1.395 1_565 S
C201 C204 1.403 . S
C202 C199 1.403 . S
C202 C203 1.524 . S
C202 C206 1.400 . S
C203 H188 0.960 . S
C203 H189 0.960 . S
C203 H190 0.960 . S
C203 C202 1.524 . S
C204 C201 1.403 . S
C204 C205 1.392 1_565 S
C204 C208 1.495 . S
C205 C204 1.392 1_545 S
C205 C206 1.385 . S
C205 C207 1.478 . S
C206 H200 0.930 . S
C206 C202 1.400 . S
C206 C205 1.385 . S
C207 C205 1.478 . S
C207 C209 1.381 . S
C207 C213 1.383 1_455 S
C208 C204 1.495 . S
C208 H214 0.959 . S
C208 H215 0.961 1_455 S
C208 H216 0.960 . S
C209 C207 1.381 . S
C209 C210 1.394 . S
C209 H217 0.930 . S
C210 C209 1.394 . S
C210 C211 1.383 . S
C210 H218 0.929 . S
C211 C210 1.383 . S
C211 C212 1.377 1_455 S
C212 H196 0.930 . S
C212 C211 1.377 1_655 S
C212 C213 1.379 . S
C213 H197 0.931 . S
C213 C207 1.383 1_655 S
C213 C212 1.379 . S
H214 C208 0.959 . S
H215 C208 0.961 1_655 S
H216 C208 0.960 . S
H217 C209 0.930 . S
H218 C210 0.929 . S
H219 C227 0.929 . S
H220 C229 0.930 . S
H221 C231 0.930 . S
H222 C234 0.929 . S
H223 C237 0.930 . S
H224 C239 0.960 . S
H225 C239 0.960 . S
H226 C239 0.960 . S
C227 H219 0.929 . S
C227 C228 1.377 1_655 S
C227 C229 1.384 . S
C228 C227 1.377 1_455 S
C228 C234 1.390 . S
C229 H220 0.930 . S
C229 C227 1.384 . S
C229 C230 1.372 1_655 S
C230 C229 1.372 1_455 S
C230 C231 1.400 . S
C230 C235 1.490 . S
C231 H221 0.930 . S
C231 C230 1.400 . S
C231 C234 1.386 . S
H232 C248 0.930 . S
H233 C249 0.931 . S
C234 H222 0.929 . S
C234 C228 1.390 . S
C234 C231 1.386 . S
C235 C230 1.490 . S
C235 C237 1.395 1_445 S
C235 C238 1.403 . S
H236 C242 0.930 . S
C237 H223 0.930 . S
C237 C235 1.395 1_665 S
C237 C240 1.403 . S
C238 C235 1.403 . S
C238 C239 1.524 . S
C238 C242 1.400 . S
C239 H224 0.960 . S
C239 H225 0.960 . S
C239 H226 0.960 . S
C239 C238 1.524 . S
C240 C237 1.403 . S
C240 C241 1.392 1_665 S
C240 C244 1.495 . S
C241 C240 1.392 1_445 S
C241 C242 1.385 . S
C241 C243 1.478 . S
C242 H236 0.930 . S
C242 C238 1.400 . S
C242 C241 1.385 . S
C243 C241 1.478 . S
C243 C245 1.381 1_455 S
C243 C249 1.383 . S
C244 C240 1.495 . S
C244 H250 0.959 . S
C244 H251 0.961 . S
C244 H252 0.960 . S
C245 C243 1.381 1_655 S
C245 C246 1.394 . S
C245 H253 0.925 . S
C246 C245 1.394 . S
C246 C247 1.383 1_655 S
C246 H254 0.929 . S
C247 C246 1.383 1_455 S
C247 C248 1.377 . S
C248 H232 0.930 . S
C248 C247 1.377 . S
C248 C249 1.379 . S
C249 H233 0.931 . S
C249 C243 1.383 . S
C249 C248 1.379 . S
H250 C244 0.959 . S
H251 C244 0.961 . S
H252 C244 0.960 . S
H253 C245 0.925 . S
H254 C246 0.929 . S
C48 C3 1.491 . S
C67 C1 1.490 . S
C84 C16 1.489 . S
C103 C14 1.498 . S
C120 C29 1.491 . S
C139 C27 1.493 . S
C156 C18 1.489 . S
C175 C10 1.499 . S
C192 C31 1.494 . S
C211 C23 1.487 . S
C228 C36 1.498 . S
C247 C5 1.476 . S
