# Generated by pormake.
# Topology dmp, (4)-cn, num edge types: 1
# Building blocks:
#     Node 0, Type 0, BuildingBlock: ESEHIV_clean_sbu_0, # of connection points: 4
#     Node 1, Type 0, BuildingBlock: ESEHIV_clean_sbu_0, # of connection points: 4
#     Node 2, Type 0, BuildingBlock: ESEHIV_clean_sbu_0, # of connection points: 4
#     Node 3, Type 0, BuildingBlock: ESEHIV_clean_sbu_0, # of connection points: 4
#     Edge 4, Type (0, 0), BuildingBlock: AJUNOK_clean_linker_0, # of connection points: 2
#     Edge 5, Type (0, 0), BuildingBlock: AJUNOK_clean_linker_0, # of connection points: 2
#     Edge 6, Type (0, 0), BuildingBlock: AJUNOK_clean_linker_0, # of connection points: 2
#     Edge 7, Type (0, 0), BuildingBlock: AJUNOK_clean_linker_0, # of connection points: 2
#     Edge 8, Type (0, 0), BuildingBlock: AJUNOK_clean_linker_0, # of connection points: 2
#     Edge 9, Type (0, 0), BuildingBlock: AJUNOK_clean_linker_0, # of connection points: 2
#     Edge 10, Type (0, 0), BuildingBlock: AJUNOK_clean_linker_0, # of connection points: 2
#     Edge 11, Type (0, 0), BuildingBlock: AJUNOK_clean_linker_0, # of connection points: 2
# Relax obj value: 0.000
# Max RMSD: 0.006
# Mean RMSD: 0.006
data_MOF--net-dmp--node1-ESEHIV_clean_sbu_0--edge1-AJUNOK_clean_linker_0
_symmetry_space_group_name_H-M    P1
_symmetry_Int_Tables_number       1
_symmetry_cell_setting            triclinic
loop_
_symmetry_equiv_pos_as_xyz
'x, y, z'
_cell_length_a     29.546409
_cell_length_b     18.389176
_cell_length_c     5.1266659
_cell_angle_alpha  90.146845
_cell_angle_beta   89.16576
_cell_angle_gamma 101.30938
loop_
_atom_site_label
_atom_site_type_symbol
_atom_site_fract_x
_atom_site_fract_y
_atom_site_fract_z
_atom_type_partial_charge
Cu0 Cu 0.16457 0.29495 0.23677 0.0
N1 N 0.21063 0.26834 0.00831 0.0
N2 N 0.25646 0.18868 0.88642 0.0
C3 C 0.2134 0.19683 0.95426 0.0
C4 C 0.28253 0.25711 0.90254 0.0
C5 C 0.25459 0.30553 -0.02179 0.0
O6 O 0.12078 0.20045 0.27919 0.0
C7 C 0.22077 0.41183 0.45446 0.0
O8 O 0.2138 0.43437 0.21828 0.0
H9 H 0.18626 0.14987 -0.001 0.0
H10 H 0.26721 0.36214 0.03541 0.0
N11 N 0.12603 0.36418 0.15155 0.0
N12 N 0.07943 0.44374 0.26291 0.0
C13 C 0.11599 0.41404 0.32855 0.0
C14 C 0.09398 0.36291 -0.03407 0.0
C15 C 0.06554 0.41153 0.0336 0.0
C16 C 0.10317 0.17673 0.06041 0.0
O17 O 0.11741 0.21481 0.84889 0.0
H18 H 0.13302 0.42455 0.51336 0.0
H19 H 0.08928 0.32659 0.79916 0.0
O20 O 0.20131 0.34612 0.52463 0.0
H21 H 0.3198 0.27006 0.88407 0.0
H22 H 0.0357 0.41985 0.9271 0.0
Cu23 Cu 0.39985 0.78956 0.27352 0.0
N24 N 0.3573 0.82488 0.05879 0.0
N25 N 0.31769 0.90958 0.9147 0.0
C26 C 0.35825 0.89732 0.00823 0.0
C27 C 0.29025 0.84168 0.9043 0.0
C28 C 0.31451 0.79002 -0.00593 0.0
O29 O 0.439 0.88019 0.40153 0.0
C30 C 0.34726 0.65875 0.4454 0.0
O31 O 0.3522 0.64571 0.19579 0.0
H32 H 0.38712 0.94088 0.05734 0.0
H33 H 0.3003 0.73227 0.0317 0.0
N34 N 0.43843 0.73466 0.09856 0.0
N35 N 0.48624 0.65499 0.05014 0.0
C36 C 0.4533 0.67614 0.19983 0.0
C37 C 0.46306 0.75089 0.87671 0.0
C38 C 0.49278 0.70184 0.8457 0.0
C39 C 0.48292 0.89474 0.37681 0.0
O40 O 0.50493 0.84054 0.32959 0.0
H41 H 0.44122 0.65066 0.38436 0.0
H42 H 0.46064 0.79696 0.75421 0.0
O43 O 0.36487 0.7226 0.53562 0.0
H44 H 0.25387 0.83058 0.85954 0.0
H45 H 0.51698 0.70039 0.68605 0.0
Cu46 Cu 0.90899 0.78049 0.87883 0.0
N47 N 0.86835 0.83668 0.03624 0.0
N48 N 0.82108 0.91876 -0.00943 0.0
C49 C 0.8574 0.89221 0.89252 0.0
C50 C 0.80853 0.87778 0.20775 0.0
C51 C 0.83726 0.82705 0.23388 0.0
O52 O 0.95711 0.86192 0.7532 0.0
C53 C 0.84185 0.66325 0.84698 0.0
O54 O 0.85179 0.67113 0.09544 0.0
H55 H 0.87351 0.90777 0.70502 0.0
H56 H 0.83286 0.783 0.37463 0.0
N57 N 0.94494 0.71423 0.0159 0.0
N58 N 0.99034 0.63146 0.924 0.0
C59 C 0.95377 0.66046 0.8531 0.0
C60 C 0.97752 0.71915 0.20045 0.0
C61 C 1.00547 0.66841 0.14375 0.0
C62 C 0.97577 0.89617 0.95479 0.0
O63 O 0.95971 0.87305 0.18617 0.0
H64 H 0.93658 0.64848 0.66882 0.0
H65 H 0.98326 0.76012 0.35393 0.0
O66 O 0.86461 0.70929 0.68281 0.0
H67 H 0.77923 0.88146 0.33271 0.0
H68 H 0.03608 0.66229 0.24794 0.0
Cu69 Cu 0.64364 0.27353 0.66324 0.0
N70 N 0.67596 0.20818 0.49355 0.0
N71 N 0.72116 0.12267 0.49895 0.0
C72 C 0.68757 0.15052 0.62189 0.0
C73 C 0.73029 0.16375 0.27887 0.0
C74 C 0.7029 0.21688 0.27819 0.0
O75 O 0.60932 0.20372 0.92375 0.0
C76 C 0.6883 0.41753 0.83876 0.0
O77 O 0.64696 0.43178 0.87577 0.0
H78 H 0.67468 0.13376 0.81495 0.0
H79 H 0.70503 0.26173 0.14065 0.0
N80 N 0.60379 0.31795 0.45405 0.0
N81 N 0.56239 0.39793 0.28789 0.0
C82 C 0.6035 0.38946 0.38781 0.0
C83 C 0.56216 0.28131 0.3881 0.0
C84 C 0.53688 0.32871 0.28618 0.0
C85 C 0.56575 0.18106 0.95092 0.0
O86 O 0.53725 0.22125 0.86375 0.0
H87 H 0.63222 0.43442 0.41924 0.0
H88 H 0.55061 0.22346 0.42182 0.0
O89 O 0.69278 0.35194 0.7831 0.0
H90 H 0.75613 0.15825 0.13256 0.0
H91 H 0.50184 0.31248 0.21915 0.0
C92 C 0.3226 0.04008 0.05431 0.0
C93 C 0.30355 0.98066 0.89048 0.0
C94 C 0.30811 0.10836 0.0466 0.0
C95 C 0.27298 0.11974 0.87851 0.0
H96 H 0.34751 1.03261 0.19821 0.0
H97 H 0.32319 0.15168 0.18075 0.0
S98 S 0.21173 0.98408 0.4051 0.0
N99 N 0.24837 0.93971 0.54629 0.0
N100 N 0.21965 0.06696 0.54209 0.0
C101 C 0.2534 0.06129 0.71345 0.0
C102 C 0.26891 0.99208 0.71701 0.0
C103 C 0.24052 0.53334 0.66631 0.0
C104 C 0.25282 0.46437 0.61448 0.0
C105 C 0.27375 0.59954 0.65864 0.0
C106 C 0.32027 0.59822 0.60376 0.0
H107 H 0.2044 0.53726 0.67323 0.0
H108 H 0.26199 0.65176 0.6584 0.0
S109 S 0.37159 0.43133 0.52294 0.0
N110 N 0.31559 0.3986 0.55106 0.0
N111 N 0.37822 0.52215 0.556 0.0
C112 C 0.33375 0.52912 0.59762 0.0
C113 C 0.29991 0.4621 0.59837 0.0
C114 C 0.72446 1.01427 0.78336 0.0
C115 C 0.74649 0.06987 0.60935 0.0
C116 C 0.74891 0.96602 0.90846 0.0
C117 C 0.79673 0.97094 0.86643 0.0
H118 H 0.68781 1.00782 0.82322 0.0
H119 H 0.72985 0.92386 0.03651 0.0
S120 S 0.87147 0.11016 0.44247 0.0
N121 N 0.8195 0.12859 0.41053 0.0
N122 N 0.86541 0.03934 0.64555 0.0
C123 C 0.81926 1.02689 0.6947 0.0
C124 C 0.79423 0.07571 0.56625 0.0
C125 C 0.76176 0.60908 0.7131 0.0
C126 C 0.80621 0.59899 0.77596 0.0
C127 C 0.7236 0.54995 0.73327 0.0
C128 C 0.72882 0.47901 0.81643 0.0
H129 H 0.75602 0.66382 0.66429 0.0
H130 H 0.68975 0.56014 0.68673 0.0
S131 S 0.83845 0.42392 -0.00971 0.0
N132 N 0.8534 0.51295 0.91827 0.0
N133 N 0.78227 0.40154 0.94641 0.0
C134 C 0.77343 0.46775 0.86699 0.0
C135 C 0.81195 0.52788 0.84971 0.0
C136 C 0.07524 0.04316 0.18106 0.0
C137 C 0.07125 0.10461 0.02811 0.0
C138 C 0.04602 0.97416 0.14135 0.0
C139 C 1.01206 0.96395 0.94635 0.0
H140 H 0.10076 0.04851 0.3332 0.0
H141 H 0.04903 0.9288 0.27036 0.0
S142 S 0.98719 0.10814 0.49931 0.0
N143 N 0.03066 0.15124 0.67529 0.0
N144 N 0.97585 1.0214 0.60281 0.0
C145 C 1.00842 1.02448 0.78892 0.0
C146 C 0.038 0.09483 0.8296 0.0
C147 C 0.57206 0.05511 0.11396 0.0
C148 C 0.54673 0.11206 0.09805 0.0
C149 C 0.55242 0.98621 0.22408 0.0
C150 C 0.50703 0.97224 0.3275 0.0
H151 H 0.60635 0.06224 0.02843 0.0
H152 H 0.57223 0.94254 0.21532 0.0
S153 S 0.43119 0.1099 0.39819 0.0
N154 N 0.47608 0.15314 0.2273 0.0
N155 N 0.44136 1.02644 0.45665 0.0
C156 C 0.48332 1.03136 0.3381 0.0
C157 C 0.50242 0.10029 0.21586 0.0
C158 C 0.06102 0.59165 0.74893 0.0
C159 C 1.01252 0.5819 0.76744 0.0
C160 C 0.08263 0.5473 0.58111 0.0
C161 C 0.05671 0.4912 0.42514 0.0
H162 H 0.08246 0.6349 0.86037 0.0
H163 H 0.11996 0.55718 0.57221 0.0
S164 S 0.92909 0.43678 0.42741 0.0
N165 N 0.93967 0.50769 0.63001 0.0
N166 N 0.97991 0.42472 0.31895 0.0
C167 C 1.00833 0.47992 0.44676 0.0
C168 C 0.98642 0.5249 0.61706 0.0
C169 C 0.47854 0.52333 0.15027 0.0
C170 C 0.50697 0.59184 0.09638 0.0
C171 C 0.49703 0.46154 0.21405 0.0
C172 C 0.54523 0.46474 0.22451 0.0
H173 H 0.44144 0.51776 0.14277 0.0
H174 H 0.47261 0.41128 0.25992 0.0
S175 S 0.63464 0.63518 0.10829 0.0
N176 N 0.58521 0.66216 0.06297 0.0
N177 N 0.62099 0.54607 0.18149 0.0
C178 C 0.57426 0.53417 0.17207 0.0
C179 C 0.55494 0.59746 0.10645 0.0
loop_
_geom_bond_atom_site_label_1
_geom_bond_atom_site_label_2
_geom_bond_distance
_geom_bond_site_symmetry_2
_ccdc_geom_bond_type
Cu0 N1 1.999 . S
Cu0 O6 1.974 . S
Cu0 N11 1.985 . S
Cu0 O20 1.959 . S
N1 Cu0 1.999 . S
N1 C3 1.263 . S
N1 C5 1.389 . S
N2 C3 1.358 . S
N2 C4 1.400 . S
C3 N1 1.263 . S
C3 N2 1.358 . S
C3 H9 0.930 . S
C4 N2 1.400 . S
C4 C5 1.351 . S
C4 H21 0.930 . S
C5 N1 1.389 . S
C5 C4 1.351 . S
C5 H10 0.930 . S
O6 Cu0 1.974 . S
O6 C16 1.282 . S
C7 O8 1.261 1_554 S
C7 O20 1.251 . S
O8 C7 1.261 1_556 S
H9 C3 0.930 . S
H10 C5 0.930 . S
N11 Cu0 1.985 . S
N11 C13 1.335 . S
N11 C14 1.390 . S
N12 C13 1.345 . S
N12 C15 1.336 . S
C13 N11 1.335 . S
C13 N12 1.345 . S
C13 H18 0.930 . S
C14 N11 1.390 . S
C14 C15 1.346 . S
C14 H19 0.930 . S
C15 N12 1.336 . S
C15 C14 1.346 . S
C15 H22 0.929 1_455 S
C16 O6 1.282 . S
C16 O17 1.216 1_554 S
O17 C16 1.216 1_556 S
H18 C13 0.930 . S
H19 C14 0.930 . S
O20 Cu0 1.959 . S
O20 C7 1.251 . S
H21 C4 0.930 . S
H22 C15 0.929 1_655 S
Cu23 N24 1.999 . S
Cu23 O29 1.974 . S
Cu23 N34 1.985 . S
Cu23 O43 1.959 . S
N24 Cu23 1.999 . S
N24 C26 1.263 . S
N24 C28 1.389 . S
N25 C26 1.358 . S
N25 C27 1.400 . S
C26 N24 1.263 . S
C26 N25 1.358 . S
C26 H32 0.930 . S
C27 N25 1.400 . S
C27 C28 1.351 . S
C27 H44 0.930 . S
C28 N24 1.389 . S
C28 C27 1.351 . S
C28 H33 0.930 . S
O29 Cu23 1.974 . S
O29 C39 1.282 . S
C30 O31 1.261 1_554 S
C30 O43 1.251 . S
O31 C30 1.261 1_556 S
H32 C26 0.930 . S
H33 C28 0.930 . S
N34 Cu23 1.985 . S
N34 C36 1.335 . S
N34 C37 1.390 . S
N35 C36 1.345 . S
N35 C38 1.336 . S
C36 N34 1.335 . S
C36 N35 1.345 . S
C36 H41 0.930 . S
C37 N34 1.390 . S
C37 C38 1.346 . S
C37 H42 0.930 . S
C38 N35 1.336 . S
C38 C37 1.346 . S
C38 H45 0.929 . S
C39 O29 1.282 . S
C39 O40 1.216 1_554 S
O40 C39 1.216 1_556 S
H41 C36 0.930 . S
H42 C37 0.930 . S
O43 Cu23 1.959 . S
O43 C30 1.251 . S
H44 C27 0.930 . S
H45 C38 0.929 . S
Cu46 N47 1.999 . S
Cu46 O52 1.974 . S
Cu46 N57 1.985 . S
Cu46 O66 1.959 . S
N47 Cu46 1.999 . S
N47 C49 1.263 . S
N47 C51 1.389 . S
N48 C49 1.358 . S
N48 C50 1.400 . S
C49 N47 1.263 . S
C49 N48 1.358 . S
C49 H55 0.930 . S
C50 N48 1.400 . S
C50 C51 1.351 . S
C50 H67 0.930 . S
C51 N47 1.389 . S
C51 C50 1.351 . S
C51 H56 0.930 . S
O52 Cu46 1.974 . S
O52 C62 1.282 . S
C53 O54 1.261 1_556 S
C53 O66 1.251 . S
O54 C53 1.261 1_554 S
H55 C49 0.930 . S
H56 C51 0.930 . S
N57 Cu46 1.985 . S
N57 C59 1.335 . S
N57 C60 1.390 . S
N58 C59 1.345 . S
N58 C61 1.336 . S
C59 N57 1.335 . S
C59 N58 1.345 . S
C59 H64 0.930 . S
C60 N57 1.390 . S
C60 C61 1.346 . S
C60 H65 0.930 . S
C61 N58 1.336 . S
C61 C60 1.346 . S
C61 H68 0.929 1_655 S
C62 O52 1.282 . S
C62 O63 1.216 1_556 S
O63 C62 1.216 1_554 S
H64 C59 0.930 . S
H65 C60 0.930 . S
O66 Cu46 1.959 . S
O66 C53 1.251 . S
H67 C50 0.930 . S
H68 C61 0.929 1_455 S
Cu69 N70 1.999 . S
Cu69 O75 1.974 . S
Cu69 N80 1.985 . S
Cu69 O89 1.959 . S
N70 Cu69 1.999 . S
N70 C72 1.263 . S
N70 C74 1.389 . S
N71 C72 1.358 . S
N71 C73 1.400 . S
C72 N70 1.263 . S
C72 N71 1.358 . S
C72 H78 0.930 . S
C73 N71 1.400 . S
C73 C74 1.351 . S
C73 H90 0.930 . S
C74 N70 1.389 . S
C74 C73 1.351 . S
C74 H79 0.930 . S
O75 Cu69 1.974 . S
O75 C85 1.282 . S
C76 O77 1.261 1_556 S
C76 O89 1.251 . S
O77 C76 1.261 1_554 S
H78 C72 0.930 . S
H79 C74 0.930 . S
N80 Cu69 1.985 . S
N80 C82 1.335 . S
N80 C83 1.390 . S
N81 C82 1.345 . S
N81 C84 1.336 . S
C82 N80 1.335 . S
C82 N81 1.345 . S
C82 H87 0.930 . S
C83 N80 1.390 . S
C83 C84 1.346 . S
C83 H88 0.930 . S
C84 N81 1.336 . S
C84 C83 1.346 . S
C84 H91 0.929 . S
C85 O75 1.282 . S
C85 O86 1.216 1_556 S
O86 C85 1.216 1_554 S
H87 C82 0.930 . S
H88 C83 0.930 . S
O89 Cu69 1.959 . S
O89 C76 1.251 . S
H90 C73 0.930 . S
H91 C84 0.929 . S
C92 C93 1.374 . S
C92 C94 1.413 1_565 S
C92 H96 0.931 1_565 S
C93 C92 1.374 . S
C93 C102 1.429 . S
C94 C92 1.413 1_545 S
C94 C95 1.363 . S
C94 H97 0.929 . S
C95 C94 1.363 . S
C95 C101 1.419 1_545 S
H96 C92 0.931 1_545 S
H97 C94 0.929 . S
S98 N99 1.613 . S
S98 N100 1.610 . S
N99 S98 1.613 . S
N99 C102 1.350 1_556 S
N100 S98 1.610 . S
N100 C101 1.350 1_556 S
C101 C95 1.419 1_565 S
C101 N100 1.350 1_554 S
C101 C102 1.445 . S
C102 C93 1.429 . S
C102 N99 1.350 1_554 S
C102 C101 1.445 . S
C103 C104 1.369 . S
C103 C105 1.419 . S
C103 H107 0.930 . S
C104 C103 1.369 . S
C104 C113 1.429 . S
C105 C103 1.419 . S
C105 C106 1.363 . S
C105 H108 0.929 . S
C106 C105 1.363 . S
C106 C112 1.428 . S
H107 C103 0.930 . S
H108 C105 0.929 . S
S109 N110 1.613 . S
S109 N111 1.610 . S
N110 S109 1.613 . S
N110 C113 1.350 . S
N111 S109 1.610 . S
N111 C112 1.351 . S
C112 C106 1.428 . S
C112 N111 1.351 . S
C112 C113 1.434 . S
C113 C104 1.429 . S
C113 N110 1.350 . S
C113 C112 1.434 . S
C114 C115 1.369 1_565 S
C114 C116 1.419 . S
C114 H118 0.930 . S
C115 C114 1.369 1_545 S
C115 C124 1.429 . S
C116 C114 1.419 . S
C116 C117 1.363 . S
C116 H119 0.929 . S
C117 C116 1.363 . S
C117 C123 1.428 1_565 S
H118 C114 0.930 . S
H119 C116 0.929 . S
S120 N121 1.613 . S
S120 N122 1.610 . S
N121 S120 1.613 . S
N121 C124 1.350 . S
N122 S120 1.610 . S
N122 C123 1.351 . S
C123 C117 1.428 1_545 S
C123 N122 1.351 . S
C123 C124 1.434 . S
C124 C115 1.429 . S
C124 N121 1.350 . S
C124 C123 1.434 . S
C125 C126 1.369 . S
C125 C127 1.419 . S
C125 H129 0.930 . S
C126 C125 1.369 . S
C126 C135 1.429 . S
C127 C125 1.419 . S
C127 C128 1.363 . S
C127 H130 0.929 . S
C128 C127 1.363 . S
C128 C134 1.428 . S
H129 C125 0.930 . S
H130 C127 0.929 . S
S131 N132 1.613 . S
S131 N133 1.610 . S
N132 S131 1.613 . S
N132 C135 1.350 1_554 S
N133 S131 1.610 . S
N133 C134 1.351 1_554 S
C134 C128 1.428 . S
C134 N133 1.351 1_556 S
C134 C135 1.434 . S
C135 C126 1.429 . S
C135 N132 1.350 1_556 S
C135 C134 1.434 . S
C136 C137 1.369 . S
C136 C138 1.419 1_544 S
C136 H140 0.930 1_545 S
C137 C136 1.369 . S
C137 C146 1.429 1_455 S
C138 C136 1.419 1_566 S
C138 C139 1.363 1_455 S
C138 H141 0.929 . S
C139 C138 1.363 1_655 S
C139 C145 1.420 1_565 S
H140 C136 0.930 1_565 S
H141 C138 0.929 . S
S142 N143 1.613 1_556 S
S142 N144 1.610 . S
N143 S142 1.613 1_554 S
N143 C146 1.350 . S
N144 S142 1.610 . S
N144 C145 1.354 . S
C145 C139 1.420 1_545 S
C145 N144 1.354 . S
C145 C146 1.440 1_556 S
C146 C137 1.429 1_655 S
C146 N143 1.350 . S
C146 C145 1.440 1_554 S
C147 C148 1.369 . S
C147 C149 1.419 1_545 S
C147 H151 0.930 . S
C148 C147 1.369 . S
C148 C157 1.429 1_556 S
C149 C147 1.419 1_565 S
C149 C150 1.363 1_556 S
C149 H152 0.929 . S
C150 C149 1.363 1_554 S
C150 C156 1.428 . S
H151 C147 0.930 . S
H152 C149 0.929 . S
S153 N154 1.613 . S
S153 N155 1.610 1_545 S
N154 S153 1.613 . S
N154 C157 1.350 . S
N155 S153 1.610 1_565 S
N155 C156 1.351 . S
C156 C150 1.428 . S
C156 N155 1.351 . S
C156 C157 1.434 1_565 S
C157 C148 1.429 1_554 S
C157 N154 1.350 . S
C157 C156 1.434 1_545 S
C158 C159 1.369 1_455 S
C158 C160 1.419 . S
C158 H162 0.930 . S
C159 C158 1.369 1_655 S
C159 C168 1.429 . S
C160 C158 1.419 . S
C160 C161 1.363 . S
C160 H163 0.929 . S
C161 C160 1.363 . S
C161 C167 1.428 1_455 S
H162 C158 0.930 . S
H163 C160 0.929 . S
S164 N165 1.613 . S
S164 N166 1.610 . S
N165 S164 1.613 . S
N165 C168 1.350 . S
N166 S164 1.610 . S
N166 C167 1.351 . S
C167 C161 1.428 1_655 S
C167 N166 1.351 . S
C167 C168 1.434 . S
C168 C159 1.429 . S
C168 N165 1.350 . S
C168 C167 1.434 . S
C169 C170 1.369 . S
C169 C171 1.419 . S
C169 H173 0.930 . S
C170 C169 1.369 . S
C170 C179 1.429 . S
C171 C169 1.419 . S
C171 C172 1.363 . S
C171 H174 0.929 . S
C172 C171 1.363 . S
C172 C178 1.428 . S
H173 C169 0.930 . S
H174 C171 0.929 . S
S175 N176 1.613 . S
S175 N177 1.610 . S
N176 S175 1.613 . S
N176 C179 1.350 . S
N177 S175 1.610 . S
N177 C178 1.351 . S
C178 C172 1.428 . S
C178 N177 1.351 . S
C178 C179 1.434 . S
C179 C170 1.429 . S
C179 N176 1.350 . S
C179 C178 1.434 . S
C93 N25 1.456 . S
C95 N2 1.456 . S
C104 C7 1.497 . S
C106 C30 1.497 . S
C115 N71 1.449 . S
C117 N48 1.453 . S
C126 C53 1.497 . S
C128 C76 1.496 . S
C137 C16 1.482 . S
C139 C62 1.483 . S
C148 C85 1.480 . S
C150 C39 1.485 . S
C159 N58 1.472 . S
C161 N12 1.467 . S
C170 N35 1.466 . S
C172 N81 1.472 . S
