# Generated by pormake.
# Topology unh, (4)-cn, num edge types: 1
# Building blocks:
#     Node 0, Type 0, BuildingBlock: CEKHIL_clean_sbu_0, # of connection points: 4
#     Node 1, Type 0, BuildingBlock: CEKHIL_clean_sbu_0, # of connection points: 4
#     Node 2, Type 0, BuildingBlock: CEKHIL_clean_sbu_0, # of connection points: 4
#     Node 3, Type 0, BuildingBlock: CEKHIL_clean_sbu_0, # of connection points: 4
#     Node 4, Type 0, BuildingBlock: CEKHIL_clean_sbu_0, # of connection points: 4
#     Node 5, Type 0, BuildingBlock: CEKHIL_clean_sbu_0, # of connection points: 4
#     Edge 6, Type (0, 0), BuildingBlock: EYOCIG_clean_linker_4, # of connection points: 2
#     Edge 7, Type (0, 0), BuildingBlock: EYOCIG_clean_linker_4, # of connection points: 2
#     Edge 8, Type (0, 0), BuildingBlock: EYOCIG_clean_linker_4, # of connection points: 2
#     Edge 9, Type (0, 0), BuildingBlock: EYOCIG_clean_linker_4, # of connection points: 2
#     Edge 10, Type (0, 0), BuildingBlock: EYOCIG_clean_linker_4, # of connection points: 2
#     Edge 11, Type (0, 0), BuildingBlock: EYOCIG_clean_linker_4, # of connection points: 2
#     Edge 12, Type (0, 0), BuildingBlock: EYOCIG_clean_linker_4, # of connection points: 2
#     Edge 13, Type (0, 0), BuildingBlock: EYOCIG_clean_linker_4, # of connection points: 2
#     Edge 14, Type (0, 0), BuildingBlock: EYOCIG_clean_linker_4, # of connection points: 2
#     Edge 15, Type (0, 0), BuildingBlock: EYOCIG_clean_linker_4, # of connection points: 2
#     Edge 16, Type (0, 0), BuildingBlock: EYOCIG_clean_linker_4, # of connection points: 2
#     Edge 17, Type (0, 0), BuildingBlock: EYOCIG_clean_linker_4, # of connection points: 2
# Relax obj value: 0.073
# Max RMSD: 0.185
# Mean RMSD: 0.185
data_MOF--net-unh--node1-CEKHIL_clean_sbu_0--edge1-EYOCIG_clean_linker_4
_symmetry_space_group_name_H-M    P1
_symmetry_Int_Tables_number       1
_symmetry_cell_setting            triclinic
loop_
_symmetry_equiv_pos_as_xyz
'x, y, z'
_cell_length_a     33.270444
_cell_length_b     33.227536
_cell_length_c     17.29679
_cell_angle_alpha  89.992109
_cell_angle_beta   89.988484
_cell_angle_gamma 119.88524
loop_
_atom_site_label
_atom_site_type_symbol
_atom_site_fract_x
_atom_site_fract_y
_atom_site_fract_z
_atom_type_partial_charge
Co0 Co 0.1223 0.55187 0.11608 0.0
O1 O 0.0743 0.51078 0.18598 0.0
O2 O 0.08548 0.57936 0.1474 0.0
C3 C 0.1798 0.54687 0.17486 0.0
O4 O 0.16912 0.60471 0.04833 0.0
Co5 Co 0.17574 0.51689 0.01459 0.0
O6 O 0.21675 0.58365 0.99137 0.0
C7 C 0.0829 0.49775 0.96634 0.0
C8 C 0.06287 0.54272 0.19042 0.0
C9 C 0.20469 0.61355 0.00695 0.0
O10 O 0.08108 0.52153 0.02356 0.0
O11 O 0.116 0.48935 0.95518 0.0
O12 O 0.16641 0.57483 0.201 0.0
O13 O 0.15585 0.51992 0.11869 0.0
Co14 Co 0.56674 0.12401 0.28305 0.0
O15 O 0.55987 0.07601 0.35313 0.0
O16 O 0.50259 0.08724 0.31429 0.0
C17 C 0.62905 0.18162 0.34179 0.0
O18 O 0.56065 0.17079 0.21508 0.0
Co19 Co 0.65497 0.17742 0.18159 0.0
O20 O 0.6291 0.21836 0.15784 0.0
C21 C 0.58152 0.08446 0.13341 0.0
C22 C 0.51659 0.06462 0.35747 0.0
C23 C 0.58722 0.20629 0.17344 0.0
O24 O 0.55598 0.08265 0.19066 0.0
O25 O 0.62289 0.1176 0.12219 0.0
O26 O 0.58777 0.16828 0.36784 0.0
O27 O 0.6321 0.15758 0.28571 0.0
Co28 Co 0.43857 0.5685 0.44851 0.0
O29 O 0.47974 0.56164 0.51839 0.0
O30 O 0.4114 0.50427 0.47976 0.0
C31 C 0.4432 0.63087 0.50734 0.0
O32 O 0.3857 0.56241 0.38077 0.0
Co33 Co 0.47306 0.65684 0.34707 0.0
O34 O 0.40635 0.63097 0.3237 0.0
C35 C 0.49273 0.58332 0.29878 0.0
C36 C 0.44799 0.51831 0.52281 0.0
C37 C 0.37668 0.58905 0.33932 0.0
O38 O 0.46906 0.55772 0.356 0.0
O39 O 0.50087 0.62475 0.28762 0.0
O40 O 0.41541 0.58954 0.53343 0.0
O41 O 0.47019 0.63393 0.45114 0.0
Co42 Co 0.86614 0.43994 0.61605 0.0
O43 O 0.91402 0.48106 0.686 0.0
O44 O 0.9031 0.41261 0.64728 0.0
C45 C 0.80847 0.44465 0.67487 0.0
O46 O 0.81945 0.38712 0.54818 0.0
Co47 Co 0.81259 0.47486 0.51469 0.0
O48 O 0.77173 0.4081 0.49135 0.0
C49 C 0.90552 0.49426 0.46638 0.0
C50 C 0.92559 0.44922 0.69037 0.0
C51 C 0.78388 0.37825 0.50682 0.0
O52 O 0.90738 0.47047 0.52357 0.0
O53 O 0.87235 0.50256 0.45525 0.0
O54 O 0.82198 0.41676 0.70093 0.0
O55 O 0.83241 0.47172 0.61877 0.0
Co56 Co 0.42203 0.86786 0.78339 0.0
O57 O 0.42915 0.91593 0.8535 0.0
O58 O 0.48624 0.90446 0.81439 0.0
C59 C 0.35967 0.81037 0.8423 0.0
O60 O 0.42781 0.82096 0.7153 0.0
Co61 Co 0.33363 0.81477 0.68226 0.0
O62 O 0.35925 0.77365 0.65824 0.0
C63 C 0.40736 0.90756 0.6338 0.0
C64 C 0.47239 0.92718 0.85764 0.0
C65 C 0.4011 0.78554 0.67366 0.0
O66 O 0.43287 0.90927 0.69101 0.0
O67 O 0.36592 0.87454 0.62269 0.0
O68 O 0.40095 0.82358 0.8682 0.0
O69 O 0.35667 0.83449 0.7863 0.0
Co70 Co 0.55001 0.42351 0.94886 0.0
O71 O 0.50905 0.43072 0.01872 0.0
O72 O 0.57755 0.48779 0.97996 0.0
C73 C 0.54498 0.36098 0.0078 0.0
O74 O 0.60272 0.42921 0.88108 0.0
Co75 Co 0.51501 0.33505 0.8476 0.0
O76 O 0.58165 0.36055 0.82405 0.0
C77 C 0.49599 0.40899 0.79912 0.0
C78 C 0.54099 0.47399 0.02302 0.0
C79 C 0.61151 0.40242 0.8396 0.0
O80 O 0.51972 0.43452 0.85632 0.0
O81 O 0.48759 0.36747 0.78803 0.0
O82 O 0.57295 0.40227 0.03382 0.0
O83 O 0.51805 0.35807 0.95162 0.0
C84 C 0.01924 0.47071 0.85702 0.0
C85 C 0.04805 0.48326 0.90739 0.0
C86 C 0.98705 0.45968 0.7963 0.0
C87 C 0.95881 0.45278 0.74681 0.0
C88 C 0.52366 0.98855 0.96341 0.0
C89 C 0.5022 0.96034 0.91398 0.0
C90 C 0.54494 0.02075 0.02409 0.0
C91 C 0.56121 0.04961 0.07443 0.0
C92 C 0.51989 0.54668 0.18945 0.0
C93 C 0.5073 0.563 0.23978 0.0
C94 C 0.53083 0.52535 0.12879 0.0
C95 C 0.53759 0.50383 0.07938 0.0
C96 C 0.96921 0.52139 0.35705 0.0
C97 C 0.94037 0.5088 0.4074 0.0
C98 C 0.00143 0.53239 0.29634 0.0
C99 C 0.02967 0.53923 0.24687 0.0
C100 C 0.46548 0.00329 0.4635 0.0
C101 C 0.48692 0.03148 0.41398 0.0
C102 C 0.44416 0.97115 0.52428 0.0
C103 C 0.42779 0.94235 0.57471 0.0
C104 C 0.46923 0.44588 0.68961 0.0
C105 C 0.48165 0.42948 0.74004 0.0
C106 C 0.45837 0.46721 0.62884 0.0
C107 C 0.45156 0.48865 0.57933 0.0
C108 C 0.25376 0.55055 0.23725 0.0
C109 C 0.21977 0.5471 0.20624 0.0
C110 C 0.29481 0.55918 0.27522 0.0
C111 C 0.33137 0.57058 0.3062 0.0
C112 C 0.69922 0.25545 0.40446 0.0
C113 C 0.6687 0.22152 0.37338 0.0
C114 C 0.73172 0.29641 0.44254 0.0
C115 C 0.75698 0.33293 0.47363 0.0
C116 C 0.43073 0.73341 0.60866 0.0
C117 C 0.4194 0.75859 0.64003 0.0
C118 C 0.43936 0.70103 0.57028 0.0
C119 C 0.44288 0.67055 0.53901 0.0
C120 C 0.6933 0.43199 0.77532 0.0
C121 C 0.65676 0.42067 0.80634 0.0
C122 C 0.73437 0.44066 0.73732 0.0
C123 C 0.76842 0.44424 0.70629 0.0
C124 C 0.28947 0.73648 0.90488 0.0
C125 C 0.32 0.77045 0.87383 0.0
C126 C 0.25696 0.69546 0.94287 0.0
C127 C 0.23167 0.6589 0.97385 0.0
C128 C 0.54861 0.29066 0.07056 0.0
C129 C 0.54516 0.3212 0.03935 0.0
C130 C 0.55728 0.25826 0.10881 0.0
C131 C 0.56872 0.23313 0.14003 0.0
loop_
_geom_bond_atom_site_label_1
_geom_bond_atom_site_label_2
_geom_bond_distance
_geom_bond_site_symmetry_2
_ccdc_geom_bond_type
Co0 O1 2.216 . S
Co0 O2 2.091 . S
Co0 O4 2.004 . S
Co0 O10 2.021 . S
Co0 O12 2.137 . S
Co0 O13 2.244 . S
O1 Co0 2.216 . S
O1 C8 1.247 . S
O2 Co0 2.091 . S
O2 C8 1.261 . S
C3 O12 1.247 . S
C3 O13 1.272 . S
O4 Co0 2.004 . S
O4 C9 1.259 . S
Co5 O6 2.061 . S
Co5 O11 2.052 . S
Co5 O13 2.135 1_556 S
O6 Co5 2.061 . S
O6 C9 1.235 1_556 S
C7 O10 1.238 1_556 S
C7 O11 1.241 . S
C8 O1 1.247 . S
C8 O2 1.261 . S
C9 O4 1.259 . S
C9 O6 1.235 1_554 S
O10 Co0 2.021 . S
O10 C7 1.238 1_554 S
O11 Co5 2.052 . S
O11 C7 1.241 . S
O12 Co0 2.137 . S
O12 C3 1.247 . S
O13 Co0 2.244 . S
O13 C3 1.272 . S
O13 Co5 2.135 1_554 S
Co14 O15 2.216 . S
Co14 O16 2.091 . S
Co14 O18 2.004 . S
Co14 O24 2.021 . S
Co14 O26 2.137 . S
Co14 O27 2.244 . S
O15 Co14 2.216 . S
O15 C22 1.247 . S
O16 Co14 2.091 . S
O16 C22 1.261 . S
C17 O26 1.247 . S
C17 O27 1.272 . S
O18 Co14 2.004 . S
O18 C23 1.259 . S
Co19 O20 2.061 . S
Co19 O25 2.052 . S
Co19 O27 2.135 . S
O20 Co19 2.061 . S
O20 C23 1.235 . S
C21 O24 1.238 . S
C21 O25 1.241 . S
C22 O15 1.247 . S
C22 O16 1.261 . S
C23 O18 1.259 . S
C23 O20 1.235 . S
O24 Co14 2.021 . S
O24 C21 1.238 . S
O25 Co19 2.052 . S
O25 C21 1.241 . S
O26 Co14 2.137 . S
O26 C17 1.247 . S
O27 Co14 2.244 . S
O27 C17 1.272 . S
O27 Co19 2.135 . S
Co28 O29 2.216 . S
Co28 O30 2.091 . S
Co28 O32 2.004 . S
Co28 O38 2.021 . S
Co28 O40 2.137 . S
Co28 O41 2.244 . S
O29 Co28 2.216 . S
O29 C36 1.247 . S
O30 Co28 2.091 . S
O30 C36 1.261 . S
C31 O40 1.247 . S
C31 O41 1.272 . S
O32 Co28 2.004 . S
O32 C37 1.259 . S
Co33 O34 2.061 . S
Co33 O39 2.052 . S
Co33 O41 2.135 . S
O34 Co33 2.061 . S
O34 C37 1.235 . S
C35 O38 1.238 . S
C35 O39 1.241 . S
C36 O29 1.247 . S
C36 O30 1.261 . S
C37 O32 1.259 . S
C37 O34 1.235 . S
O38 Co28 2.021 . S
O38 C35 1.238 . S
O39 Co33 2.052 . S
O39 C35 1.241 . S
O40 Co28 2.137 . S
O40 C31 1.247 . S
O41 Co28 2.244 . S
O41 C31 1.272 . S
O41 Co33 2.135 . S
Co42 O43 2.216 . S
Co42 O44 2.091 . S
Co42 O46 2.004 . S
Co42 O52 2.021 . S
Co42 O54 2.137 . S
Co42 O55 2.244 . S
O43 Co42 2.216 . S
O43 C50 1.247 . S
O44 Co42 2.091 . S
O44 C50 1.261 . S
C45 O54 1.247 . S
C45 O55 1.272 . S
O46 Co42 2.004 . S
O46 C51 1.259 . S
Co47 O48 2.061 . S
Co47 O53 2.052 . S
Co47 O55 2.135 . S
O48 Co47 2.061 . S
O48 C51 1.235 . S
C49 O52 1.238 . S
C49 O53 1.241 . S
C50 O43 1.247 . S
C50 O44 1.261 . S
C51 O46 1.259 . S
C51 O48 1.235 . S
O52 Co42 2.021 . S
O52 C49 1.238 . S
O53 Co47 2.052 . S
O53 C49 1.241 . S
O54 Co42 2.137 . S
O54 C45 1.247 . S
O55 Co42 2.244 . S
O55 C45 1.272 . S
O55 Co47 2.135 . S
Co56 O57 2.216 . S
Co56 O58 2.091 . S
Co56 O60 2.004 . S
Co56 O66 2.021 . S
Co56 O68 2.137 . S
Co56 O69 2.244 . S
O57 Co56 2.216 . S
O57 C64 1.247 . S
O58 Co56 2.091 . S
O58 C64 1.261 . S
C59 O68 1.247 . S
C59 O69 1.272 . S
O60 Co56 2.004 . S
O60 C65 1.259 . S
Co61 O62 2.061 . S
Co61 O67 2.052 . S
Co61 O69 2.135 . S
O62 Co61 2.061 . S
O62 C65 1.235 . S
C63 O66 1.238 . S
C63 O67 1.241 . S
C64 O57 1.247 . S
C64 O58 1.261 . S
C65 O60 1.259 . S
C65 O62 1.235 . S
O66 Co56 2.021 . S
O66 C63 1.238 . S
O67 Co61 2.052 . S
O67 C63 1.241 . S
O68 Co56 2.137 . S
O68 C59 1.247 . S
O69 Co56 2.244 . S
O69 C59 1.272 . S
O69 Co61 2.135 . S
Co70 O71 2.216 1_556 S
Co70 O72 2.091 1_556 S
Co70 O74 2.004 . S
Co70 O80 2.021 . S
Co70 O82 2.137 1_556 S
Co70 O83 2.244 . S
O71 Co70 2.216 1_554 S
O71 C78 1.247 . S
O72 Co70 2.091 1_554 S
O72 C78 1.261 . S
C73 O82 1.247 1_556 S
C73 O83 1.272 . S
O74 Co70 2.004 . S
O74 C79 1.259 . S
Co75 O76 2.061 . S
Co75 O81 2.052 . S
Co75 O83 2.135 . S
O76 Co75 2.061 . S
O76 C79 1.235 . S
C77 O80 1.238 . S
C77 O81 1.241 . S
C78 O71 1.247 . S
C78 O72 1.261 . S
C79 O74 1.259 . S
C79 O76 1.235 . S
O80 Co70 2.021 . S
O80 C77 1.238 . S
O81 Co75 2.052 . S
O81 C77 1.241 . S
O82 Co70 2.137 1_554 S
O82 C73 1.247 1_554 S
O83 Co70 2.244 . S
O83 C73 1.272 . S
O83 Co75 2.135 . S
C84 C85 1.170 . S
C84 C86 1.380 1_455 S
C85 C84 1.170 . S
C86 C84 1.380 1_655 S
C86 C87 1.170 . S
C87 C86 1.170 . S
C88 C89 1.170 . S
C88 C90 1.380 1_566 S
C89 C88 1.170 . S
C90 C88 1.380 1_544 S
C90 C91 1.170 . S
C91 C90 1.170 . S
C92 C93 1.170 . S
C92 C94 1.380 . S
C93 C92 1.170 . S
C94 C92 1.380 . S
C94 C95 1.170 . S
C95 C94 1.170 . S
C96 C97 1.170 . S
C96 C98 1.380 1_655 S
C97 C96 1.170 . S
C98 C96 1.380 1_455 S
C98 C99 1.170 . S
C99 C98 1.170 . S
C100 C101 1.170 . S
C100 C102 1.380 1_545 S
C101 C100 1.170 . S
C102 C100 1.380 1_565 S
C102 C103 1.170 . S
C103 C102 1.170 . S
C104 C105 1.170 . S
C104 C106 1.380 . S
C105 C104 1.170 . S
C106 C104 1.380 . S
C106 C107 1.170 . S
C107 C106 1.170 . S
C108 C109 1.170 . S
C108 C110 1.380 . S
C109 C108 1.170 . S
C110 C108 1.380 . S
C110 C111 1.170 . S
C111 C110 1.170 . S
C112 C113 1.170 . S
C112 C114 1.380 . S
C113 C112 1.170 . S
C114 C112 1.380 . S
C114 C115 1.170 . S
C115 C114 1.170 . S
C116 C117 1.170 . S
C116 C118 1.380 . S
C117 C116 1.170 . S
C118 C116 1.380 . S
C118 C119 1.170 . S
C119 C118 1.170 . S
C120 C121 1.170 . S
C120 C122 1.380 . S
C121 C120 1.170 . S
C122 C120 1.380 . S
C122 C123 1.170 . S
C123 C122 1.170 . S
C124 C125 1.170 . S
C124 C126 1.380 . S
C125 C124 1.170 . S
C126 C124 1.380 . S
C126 C127 1.170 . S
C127 C126 1.170 . S
C128 C129 1.170 . S
C128 C130 1.380 . S
C129 C128 1.170 . S
C130 C128 1.380 . S
C130 C131 1.170 . S
C131 C130 1.170 . S
C85 C7 1.362 . S
C87 C50 1.373 . S
C89 C64 1.371 . S
C91 C21 1.343 . S
C93 C35 1.341 . S
C95 C78 1.367 . S
C97 C49 1.341 . S
C99 C8 1.369 . S
C101 C22 1.361 . S
C103 C63 1.350 . S
C105 C77 1.343 . S
C107 C36 1.363 . S
C109 C3 1.325 . S
C111 C37 1.306 . S
C113 C17 1.322 . S
C115 C51 1.309 . S
C117 C65 1.295 . S
C119 C31 1.323 . S
C121 C79 1.273 . S
C123 C45 1.309 . S
C125 C59 1.298 . S
C127 C9 1.282 1_556 S
C129 C73 1.323 1_554 S
C131 C23 1.295 . S
