# Generated by pormake.
# Topology qtz, (4)-cn, num edge types: 1
# Building blocks:
#     Node 0, Type 0, BuildingBlock: NAHDIM_clean_sbu_0, # of connection points: 4
#     Node 1, Type 0, BuildingBlock: NAHDIM_clean_sbu_0, # of connection points: 4
#     Node 2, Type 0, BuildingBlock: NAHDIM_clean_sbu_0, # of connection points: 4
#     Edge 3, Type (0, 0), None
#     Edge 4, Type (0, 0), None
#     Edge 5, Type (0, 0), None
#     Edge 6, Type (0, 0), None
#     Edge 7, Type (0, 0), None
#     Edge 8, Type (0, 0), None
# Relax obj value: 0.102
# Max RMSD: 0.176
# Mean RMSD: 0.163
data_MOF--net-qtz--node1-NAHDIM_clean_sbu_0--edge1-none
_symmetry_space_group_name_H-M    P1
_symmetry_Int_Tables_number       1
_symmetry_cell_setting            triclinic
loop_
_symmetry_equiv_pos_as_xyz
'x, y, z'
_cell_length_a     10.228768
_cell_length_b     10.911996
_cell_length_c     13.267371
_cell_angle_alpha  93.16107
_cell_angle_beta   91.959822
_cell_angle_gamma 122.03793
loop_
_atom_site_label
_atom_site_type_symbol
_atom_site_fract_x
_atom_site_fract_y
_atom_site_fract_z
_atom_type_partial_charge
C0 C 0.23582 0.44083 -0.01254 0.0
O1 O 0.23243 0.55883 -0.01858 0.0
O2 O 0.90035 0.44101 0.02869 0.0
Zn3 Zn 0.0438 0.42814 0.12951 0.0
O4 O 0.21403 0.62165 0.19635 0.0
C5 C 0.80158 0.30963 0.26002 0.0
O6 O 0.77785 0.40185 0.21624 0.0
O7 O 0.15466 0.35148 0.05044 0.0
C8 C 0.20664 0.70021 0.26726 0.0
O9 O 0.07301 0.66195 0.30264 0.0
C10 C 0.91093 0.54953 -0.01005 0.0
O11 O 0.0305 0.68096 0.01534 0.0
O12 O 0.91413 0.298 0.23593 0.0
C13 C 0.48091 0.79441 0.5974 0.0
O14 O 0.34497 0.77687 0.57821 0.0
O15 O 0.54019 0.16893 0.5727 0.0
Zn16 Zn 0.5529 0.02417 0.47915 0.0
O17 O 0.34917 0.89126 0.39725 0.0
C18 C 0.69606 0.22122 0.33466 0.0
O19 O 0.57577 0.23052 0.35179 0.0
O20 O 0.59916 0.89967 0.56275 0.0
C21 C 0.35113 0.82063 0.31866 0.0
O22 O 0.4839 0.84325 0.29132 0.0
C23 C 0.41557 0.15766 0.59757 0.0
O24 O 0.2814 0.044 0.56269 0.0
O25 O 0.71757 0.13523 0.38286 0.0
C26 C 0.49157 0.69137 0.65809 0.0
O27 O 0.36331 0.57483 0.68031 0.0
O28 O 0.55474 0.38447 0.69402 0.0
Zn29 Zn 0.5986 0.56052 0.78248 0.0
O30 O 0.42745 0.5227 0.8718 0.0
C31 C 0.78611 0.52413 0.91737 0.0
O32 O 0.66627 0.39144 0.89697 0.0
O33 O 0.62083 0.714 0.69261 0.0
C34 C 0.34094 0.42159 0.92608 0.0
O35 O 0.35191 0.3075 0.93077 0.0
C36 C 0.42338 0.27404 0.66351 0.0
O37 O 0.29648 0.26588 0.68951 0.0
O38 O 0.79018 0.62712 0.87426 0.0
loop_
_geom_bond_atom_site_label_1
_geom_bond_atom_site_label_2
_geom_bond_distance
_geom_bond_site_symmetry_2
_ccdc_geom_bond_type
C0 O1 1.160 1_554 S
C0 O7 1.185 . S
O1 C0 1.160 1_556 S
O2 Zn3 1.899 1_655 S
O2 C10 1.284 . S
Zn3 O2 1.899 1_455 S
Zn3 O4 2.032 . S
Zn3 O7 2.086 . S
Zn3 O12 1.977 1_455 S
O4 Zn3 2.032 . S
O4 C8 1.278 . S
C5 O6 1.203 . S
C5 O12 1.267 . S
O6 C5 1.203 . S
O7 C0 1.185 . S
O7 Zn3 2.086 . S
C8 O4 1.278 . S
C8 O9 1.211 . S
O9 C8 1.211 . S
C10 O2 1.284 . S
C10 O11 1.273 . S
O11 C10 1.273 . S
O12 Zn3 1.977 1_655 S
O12 C5 1.267 . S
C13 O14 1.160 . S
C13 O20 1.185 . S
O14 C13 1.160 . S
O15 Zn16 1.899 . S
O15 C23 1.284 . S
Zn16 O15 1.899 . S
Zn16 O17 2.032 1_545 S
Zn16 O20 2.086 1_545 S
Zn16 O25 1.977 . S
O17 Zn16 2.032 1_565 S
O17 C21 1.278 . S
C18 O19 1.203 . S
C18 O25 1.267 . S
O19 C18 1.203 . S
O20 C13 1.185 . S
O20 Zn16 2.086 1_565 S
C21 O17 1.278 . S
C21 O22 1.211 . S
O22 C21 1.211 . S
C23 O15 1.284 . S
C23 O24 1.273 . S
O24 C23 1.273 . S
O25 Zn16 1.977 . S
O25 C18 1.267 . S
C26 O27 1.160 . S
C26 O33 1.185 . S
O27 C26 1.160 . S
O28 Zn29 1.899 . S
O28 C36 1.284 . S
Zn29 O28 1.899 . S
Zn29 O30 2.032 . S
Zn29 O33 2.086 . S
Zn29 O38 1.977 . S
O30 Zn29 2.032 . S
O30 C34 1.278 . S
C31 O32 1.203 . S
C31 O38 1.267 . S
O32 C31 1.203 . S
O33 C26 1.185 . S
O33 Zn29 2.086 . S
C34 O30 1.278 . S
C34 O35 1.211 1_556 S
O35 C34 1.211 1_554 S
C36 O28 1.284 . S
C36 O37 1.273 . S
O37 C36 1.273 . S
O38 Zn29 1.977 . S
O38 C31 1.267 . S
C34 C0 1.306 1_556 S
C5 C18 1.279 . S
C13 C26 1.278 . S
C31 C10 1.370 1_556 S
C21 C8 1.338 . S
C36 C23 1.424 . S
