# Generated by pormake.
# Topology cag, (4)-cn, num edge types: 1
# Building blocks:
#     Node 0, Type 0, BuildingBlock: NAHDIM_clean_sbu_0, # of connection points: 4
#     Node 1, Type 0, BuildingBlock: NAHDIM_clean_sbu_0, # of connection points: 4
#     Node 2, Type 0, BuildingBlock: NAHDIM_clean_sbu_0, # of connection points: 4
#     Node 3, Type 0, BuildingBlock: NAHDIM_clean_sbu_0, # of connection points: 4
#     Node 4, Type 0, BuildingBlock: NAHDIM_clean_sbu_0, # of connection points: 4
#     Node 5, Type 0, BuildingBlock: NAHDIM_clean_sbu_0, # of connection points: 4
#     Node 6, Type 0, BuildingBlock: NAHDIM_clean_sbu_0, # of connection points: 4
#     Node 7, Type 0, BuildingBlock: NAHDIM_clean_sbu_0, # of connection points: 4
#     Node 8, Type 0, BuildingBlock: NAHDIM_clean_sbu_0, # of connection points: 4
#     Node 9, Type 0, BuildingBlock: NAHDIM_clean_sbu_0, # of connection points: 4
#     Node 10, Type 0, BuildingBlock: NAHDIM_clean_sbu_0, # of connection points: 4
#     Node 11, Type 0, BuildingBlock: NAHDIM_clean_sbu_0, # of connection points: 4
#     Node 12, Type 0, BuildingBlock: NAHDIM_clean_sbu_0, # of connection points: 4
#     Node 13, Type 0, BuildingBlock: NAHDIM_clean_sbu_0, # of connection points: 4
#     Node 14, Type 0, BuildingBlock: NAHDIM_clean_sbu_0, # of connection points: 4
#     Node 15, Type 0, BuildingBlock: NAHDIM_clean_sbu_0, # of connection points: 4
#     Edge 16, Type (0, 0), None
#     Edge 17, Type (0, 0), None
#     Edge 18, Type (0, 0), None
#     Edge 19, Type (0, 0), None
#     Edge 20, Type (0, 0), None
#     Edge 21, Type (0, 0), None
#     Edge 22, Type (0, 0), None
#     Edge 23, Type (0, 0), None
#     Edge 24, Type (0, 0), None
#     Edge 25, Type (0, 0), None
#     Edge 26, Type (0, 0), None
#     Edge 27, Type (0, 0), None
#     Edge 28, Type (0, 0), None
#     Edge 29, Type (0, 0), None
#     Edge 30, Type (0, 0), None
#     Edge 31, Type (0, 0), None
#     Edge 32, Type (0, 0), None
#     Edge 33, Type (0, 0), None
#     Edge 34, Type (0, 0), None
#     Edge 35, Type (0, 0), None
#     Edge 36, Type (0, 0), None
#     Edge 37, Type (0, 0), None
#     Edge 38, Type (0, 0), None
#     Edge 39, Type (0, 0), None
#     Edge 40, Type (0, 0), None
#     Edge 41, Type (0, 0), None
#     Edge 42, Type (0, 0), None
#     Edge 43, Type (0, 0), None
#     Edge 44, Type (0, 0), None
#     Edge 45, Type (0, 0), None
#     Edge 46, Type (0, 0), None
#     Edge 47, Type (0, 0), None
# Relax obj value: 0.043
# Max RMSD: 0.075
# Mean RMSD: 0.073
data_MOF--net-cag--node1-NAHDIM_clean_sbu_0--edge1-none
_symmetry_space_group_name_H-M    P1
_symmetry_Int_Tables_number       1
_symmetry_cell_setting            triclinic
loop_
_symmetry_equiv_pos_as_xyz
'x, y, z'
_cell_length_a     19.422755
_cell_length_b     22.343629
_cell_length_c     18.990273
_cell_angle_alpha  89.999943
_cell_angle_beta   90.000019
_cell_angle_gamma 90.791393
loop_
_atom_site_label
_atom_site_type_symbol
_atom_site_fract_x
_atom_site_fract_y
_atom_site_fract_z
_atom_type_partial_charge
C0 C 0.20445 0.27521 0.08326 0.0
O1 O 0.22367 0.28261 0.14901 0.0
O2 O 0.37127 0.18475 0.08989 0.0
Zn3 Zn 0.27061 0.16215 0.10125 0.0
O4 O 0.24506 0.15595 0.20437 0.0
C5 C 0.28869 0.07254 0.99716 0.0
O6 O 0.32697 0.11568 0.9702 0.0
O7 O 0.21655 0.2261 0.05221 0.0
C8 C 0.25467 0.10715 0.23713 0.0
O9 O 0.27984 0.06106 0.2034 0.0
C10 C 0.4185 0.1648 0.1293 0.0
O11 O 0.40251 0.13001 0.18265 0.0
O12 O 0.25577 0.08194 0.05378 0.0
C13 C 0.25595 0.7527 0.58326 0.0
O14 O 0.23673 0.7453 0.64901 0.0
O15 O 0.08913 0.84316 0.58989 0.0
Zn16 Zn 0.18979 0.86576 0.60125 0.0
O17 O 0.21534 0.87196 0.70437 0.0
C18 C 0.17171 0.95537 0.49716 0.0
O19 O 0.13343 0.91223 0.4702 0.0
O20 O 0.24385 0.8018 0.55221 0.0
C21 C 0.20573 0.92076 0.73713 0.0
O22 O 0.18056 0.96685 0.7034 0.0
C23 C 0.0419 0.86311 0.6293 0.0
O24 O 0.05789 0.89789 0.68265 0.0
O25 O 0.20463 0.94597 0.55378 0.0
C26 C 0.2477 0.76879 0.98726 0.0
O27 O 0.30059 0.76289 0.94488 0.0
O28 O 0.37579 0.87687 0.96576 0.0
Zn29 Zn 0.27438 0.88813 0.94886 0.0
O30 O 0.25268 0.88456 0.84437 0.0
C31 C 0.29072 1.01259 0.96592 0.0
O32 O 0.33454 1.00208 0.91489 0.0
O33 O 0.22388 0.82065 0.99849 0.0
C34 C 0.21963 0.92527 0.81278 0.0
O35 O 0.19717 0.97149 0.84819 0.0
C36 C 0.42096 0.87686 0.9175 0.0
O37 O 0.40231 0.88232 0.85138 0.0
O38 O 0.25409 0.96965 0.99015 0.0
C39 C 0.2127 0.25912 0.48726 0.0
O40 O 0.15981 0.26502 0.44488 0.0
O41 O 0.08461 0.15103 0.46576 0.0
Zn42 Zn 0.18602 0.13977 0.44886 0.0
O43 O 0.20772 0.14335 0.34437 0.0
C44 C 0.16968 0.01532 0.46592 0.0
O45 O 0.12586 0.02583 0.41489 0.0
O46 O 0.23652 0.20725 0.49849 0.0
C47 C 0.24077 0.10264 0.31278 0.0
O48 O 0.26323 0.05642 0.34819 0.0
C49 C 0.03944 0.15105 0.4175 0.0
O50 O 0.05809 0.14559 0.35138 0.0
O51 O 0.20631 0.05826 0.49015 0.0
C52 C 0.71058 0.84414 0.80012 0.0
O53 O 0.68883 0.79394 0.82898 0.0
O54 O 0.53971 0.88158 0.8891 0.0
Zn55 Zn 0.63882 0.89143 0.91737 0.0
O56 O 0.668 0.82156 0.97757 0.0
C57 C 0.62193 0.01605 0.94856 0.0
O58 O 0.5901 0.0148 0.88757 0.0
O59 O 0.69622 0.89372 0.82899 0.0
C60 C 0.67551 0.82539 0.0439 0.0
O61 O 0.6629 0.87605 0.07611 0.0
C62 C 0.494 0.87654 0.9365 0.0
O63 O 0.5124 0.87599 1.00303 0.0
O64 O 0.64902 0.96864 0.97204 0.0
C65 C 0.74982 0.18377 0.30012 0.0
O66 O 0.77157 0.23397 0.32898 0.0
O67 O 0.92069 0.14633 0.3891 0.0
Zn68 Zn 0.82158 0.13648 0.41737 0.0
O69 O 0.7924 0.20634 0.47757 0.0
C70 C 0.83847 1.01186 0.44856 0.0
O71 O 0.8703 1.0131 0.38757 0.0
O72 O 0.76418 0.13418 0.32899 0.0
C73 C 0.78489 0.20252 0.54391 0.0
O74 O 0.7975 0.15186 0.57611 0.0
C75 C 0.9664 0.15137 0.4365 0.0
O76 O 0.948 0.15192 0.50303 0.0
O77 O 0.81138 0.05926 0.47204 0.0
C78 C 0.70899 0.18553 0.23531 0.0
O79 O 0.68768 0.23709 0.21107 0.0
O80 O 0.53716 0.14684 0.14391 0.0
Zn81 Zn 0.63643 0.14443 0.11431 0.0
O82 O 0.66575 0.21912 0.06118 0.0
C83 C 0.62138 0.07066 0.99145 0.0
O84 O 0.58991 0.11835 0.9681 0.0
O85 O 0.69405 0.1377 0.20215 0.0
C86 C 0.71976 0.21597 0.02375 0.0
O87 O 0.7524 0.16501 0.01967 0.0
C88 C 0.49089 0.17438 0.11025 0.0
O89 O 0.50742 0.20582 0.05419 0.0
O90 O 0.64739 0.07113 0.05289 0.0
C91 C 0.7514 0.84238 0.73531 0.0
O92 O 0.77272 0.79081 0.71107 0.0
O93 O 0.92324 0.88107 0.64391 0.0
Zn94 Zn 0.82397 0.88347 0.61431 0.0
O95 O 0.79465 0.80878 0.56118 0.0
C96 C 0.83902 0.95724 0.49145 0.0
O97 O 0.87049 0.90956 0.4681 0.0
O98 O 0.76635 0.8902 0.70215 0.0
C99 C 0.74064 0.81194 0.52375 0.0
O100 O 0.708 0.86289 0.51967 0.0
C101 C 0.96951 0.85353 0.61025 0.0
O102 O 0.95298 0.82209 0.55419 0.0
O103 O 0.81301 0.95678 0.55289 0.0
C104 C 0.70444 0.77521 0.08327 0.0
O105 O 0.72366 0.78261 0.14902 0.0
O106 O 0.87127 0.68475 0.08989 0.0
Zn107 Zn 0.77061 0.66215 0.10125 0.0
O108 O 0.74506 0.65595 0.20437 0.0
C109 C 0.78869 0.57254 0.99716 0.0
O110 O 0.82697 0.61568 0.97021 0.0
O111 O 0.71655 0.72611 0.05222 0.0
C112 C 0.75466 0.60715 0.23713 0.0
O113 O 0.77984 0.56106 0.2034 0.0
C114 C 0.9185 0.6648 0.1293 0.0
O115 O 0.90251 0.63001 0.18265 0.0
O116 O 0.75577 0.58194 0.05378 0.0
C117 C 0.75596 0.2527 0.58327 0.0
O118 O 0.73674 0.2453 0.64902 0.0
O119 O 0.58913 0.34315 0.58989 0.0
Zn120 Zn 0.68979 0.36576 0.60125 0.0
O121 O 0.71534 0.37196 0.70437 0.0
C122 C 0.67171 0.45537 0.49716 0.0
O123 O 0.63343 0.41223 0.47021 0.0
O124 O 0.74385 0.3018 0.55222 0.0
C125 C 0.70574 0.42076 0.73713 0.0
O126 O 0.68056 0.46685 0.7034 0.0
C127 C 0.5419 0.36311 0.6293 0.0
O128 O 0.55789 0.3979 0.68265 0.0
O129 O 0.70463 0.44596 0.55378 0.0
C130 C 0.74771 0.26879 0.98727 0.0
O131 O 0.8006 0.26289 0.94488 0.0
O132 O 0.87579 0.37687 0.96576 0.0
Zn133 Zn 0.77438 0.38813 0.94886 0.0
O134 O 0.75268 0.38456 0.84437 0.0
C135 C 0.79072 0.51259 0.96593 0.0
O136 O 0.83454 0.50208 0.91489 0.0
O137 O 0.72388 0.32065 0.99849 0.0
C138 C 0.71963 0.42527 0.81278 0.0
O139 O 0.69718 0.47149 0.84819 0.0
C140 C 0.92097 0.37686 0.9175 0.0
O141 O 0.90231 0.38231 0.85138 0.0
O142 O 0.75409 0.46965 0.99016 0.0
C143 C 0.71269 0.75912 0.48727 0.0
O144 O 0.6598 0.76502 0.44488 0.0
O145 O 0.58461 0.65103 0.46576 0.0
Zn146 Zn 0.68602 0.63977 0.44886 0.0
O147 O 0.70772 0.64335 0.34437 0.0
C148 C 0.66968 0.51532 0.46593 0.0
O149 O 0.62586 0.52583 0.41489 0.0
O150 O 0.73652 0.70725 0.49849 0.0
C151 C 0.74077 0.60264 0.31278 0.0
O152 O 0.76322 0.55642 0.34819 0.0
C153 C 0.53943 0.65105 0.4175 0.0
O154 O 0.55809 0.64559 0.35138 0.0
O155 O 0.70631 0.55826 0.49016 0.0
C156 C 0.21058 0.34414 0.80012 0.0
O157 O 0.18883 0.29394 0.82898 0.0
O158 O 0.03971 0.38158 0.8891 0.0
Zn159 Zn 0.13882 0.39143 0.91737 0.0
O160 O 0.168 0.32156 0.97757 0.0
C161 C 0.12193 0.51605 0.94856 0.0
O162 O 0.09009 0.5148 0.88757 0.0
O163 O 0.19622 0.39372 0.82899 0.0
C164 C 0.17551 0.32539 0.0439 0.0
O165 O 0.1629 0.37605 0.07611 0.0
C166 C -0.006 0.37654 0.9365 0.0
O167 O 0.0124 0.37599 1.00303 0.0
O168 O 0.14902 0.46864 0.97204 0.0
C169 C 0.24982 0.68377 0.30012 0.0
O170 O 0.27157 0.73397 0.32898 0.0
O171 O 0.42069 0.64633 0.3891 0.0
Zn172 Zn 0.32158 0.63648 0.41737 0.0
O173 O 0.2924 0.70635 0.47757 0.0
C174 C 0.33847 0.51186 0.44856 0.0
O175 O 0.37031 0.51311 0.38757 0.0
O176 O 0.26418 0.63418 0.32899 0.0
C177 C 0.28489 0.70252 0.5439 0.0
O178 O 0.2975 0.65185 0.57611 0.0
C179 C 0.4664 0.65137 0.4365 0.0
O180 O 0.448 0.65192 0.50303 0.0
O181 O 0.31138 0.55926 0.47204 0.0
C182 C 0.20899 0.68553 0.23531 0.0
O183 O 0.18768 0.73709 0.21107 0.0
O184 O 0.03716 0.64683 0.14391 0.0
Zn185 Zn 0.13643 0.64443 0.11431 0.0
O186 O 0.16574 0.71912 0.06118 0.0
C187 C 0.12138 0.57066 0.99145 0.0
O188 O 0.0899 0.61835 0.9681 0.0
O189 O 0.19405 0.6377 0.20215 0.0
C190 C 0.21976 0.71597 0.02375 0.0
O191 O 0.2524 0.66501 0.01967 0.0
C192 C -0.00911 0.67438 0.11025 0.0
O193 O 0.00742 0.70582 0.05419 0.0
O194 O 0.1474 0.57113 0.05289 0.0
C195 C 0.25141 0.34238 0.73531 0.0
O196 O 0.27272 0.29081 0.71107 0.0
O197 O 0.42324 0.38107 0.64391 0.0
Zn198 Zn 0.32397 0.38347 0.61431 0.0
O199 O 0.29466 0.30878 0.56118 0.0
C200 C 0.33902 0.45724 0.49145 0.0
O201 O 0.3705 0.40956 0.4681 0.0
O202 O 0.26635 0.3902 0.70215 0.0
C203 C 0.24064 0.31194 0.52375 0.0
O204 O 0.208 0.36289 0.51967 0.0
C205 C 0.46951 0.35353 0.61026 0.0
O206 O 0.45298 0.32209 0.55419 0.0
O207 O 0.31301 0.45678 0.55289 0.0
loop_
_geom_bond_atom_site_label_1
_geom_bond_atom_site_label_2
_geom_bond_distance
_geom_bond_site_symmetry_2
_ccdc_geom_bond_type
C0 O1 1.160 . S
C0 O7 1.185 . S
O1 C0 1.160 . S
O2 Zn3 1.899 . S
O2 C10 1.284 . S
Zn3 O2 1.899 . S
Zn3 O4 2.032 . S
Zn3 O7 2.086 . S
Zn3 O12 1.977 . S
O4 Zn3 2.032 . S
O4 C8 1.278 . S
C5 O6 1.203 . S
C5 O12 1.267 . S
O6 C5 1.203 . S
O7 C0 1.185 . S
O7 Zn3 2.086 . S
C8 O4 1.278 . S
C8 O9 1.211 . S
O9 C8 1.211 . S
C10 O2 1.284 . S
C10 O11 1.273 . S
O11 C10 1.273 . S
O12 Zn3 1.977 . S
O12 C5 1.267 . S
C13 O14 1.160 . S
C13 O20 1.185 . S
O14 C13 1.160 . S
O15 Zn16 1.899 . S
O15 C23 1.284 . S
Zn16 O15 1.899 . S
Zn16 O17 2.032 . S
Zn16 O20 2.086 . S
Zn16 O25 1.977 . S
O17 Zn16 2.032 . S
O17 C21 1.278 . S
C18 O19 1.203 . S
C18 O25 1.267 . S
O19 C18 1.203 . S
O20 C13 1.185 . S
O20 Zn16 2.086 . S
C21 O17 1.278 . S
C21 O22 1.211 . S
O22 C21 1.211 . S
C23 O15 1.284 . S
C23 O24 1.273 . S
O24 C23 1.273 . S
O25 Zn16 1.977 . S
O25 C18 1.267 . S
C26 O27 1.160 . S
C26 O33 1.185 . S
O27 C26 1.160 . S
O28 Zn29 1.899 . S
O28 C36 1.284 . S
Zn29 O28 1.899 . S
Zn29 O30 2.032 . S
Zn29 O33 2.086 . S
Zn29 O38 1.977 . S
O30 Zn29 2.032 . S
O30 C34 1.278 . S
C31 O32 1.203 . S
C31 O38 1.267 . S
O32 C31 1.203 . S
O33 C26 1.185 . S
O33 Zn29 2.086 . S
C34 O30 1.278 . S
C34 O35 1.211 . S
O35 C34 1.211 . S
C36 O28 1.284 . S
C36 O37 1.273 . S
O37 C36 1.273 . S
O38 Zn29 1.977 . S
O38 C31 1.267 . S
C39 O40 1.160 . S
C39 O46 1.185 . S
O40 C39 1.160 . S
O41 Zn42 1.899 . S
O41 C49 1.284 . S
Zn42 O41 1.899 . S
Zn42 O43 2.032 . S
Zn42 O46 2.086 . S
Zn42 O51 1.977 . S
O43 Zn42 2.032 . S
O43 C47 1.278 . S
C44 O45 1.203 . S
C44 O51 1.267 . S
O45 C44 1.203 . S
O46 C39 1.185 . S
O46 Zn42 2.086 . S
C47 O43 1.278 . S
C47 O48 1.211 . S
O48 C47 1.211 . S
C49 O41 1.284 . S
C49 O50 1.273 . S
O50 C49 1.273 . S
O51 Zn42 1.977 . S
O51 C44 1.267 . S
C52 O53 1.160 . S
C52 O59 1.185 . S
O53 C52 1.160 . S
O54 Zn55 1.899 . S
O54 C62 1.284 . S
Zn55 O54 1.899 . S
Zn55 O56 2.032 . S
Zn55 O59 2.086 . S
Zn55 O64 1.977 . S
O56 Zn55 2.032 . S
O56 C60 1.278 . S
C57 O58 1.204 . S
C57 O64 1.263 1_554 S
O58 C57 1.204 . S
O59 C52 1.185 . S
O59 Zn55 2.086 . S
C60 O56 1.278 . S
C60 O61 1.211 1_556 S
O61 C60 1.211 1_554 S
C62 O54 1.284 . S
C62 O63 1.273 . S
O63 C62 1.273 . S
O64 Zn55 1.977 . S
O64 C57 1.263 1_556 S
C65 O66 1.160 . S
C65 O72 1.185 . S
O66 C65 1.160 . S
O67 Zn68 1.899 . S
O67 C75 1.284 . S
Zn68 O67 1.899 . S
Zn68 O69 2.032 . S
Zn68 O72 2.086 . S
Zn68 O77 1.977 . S
O69 Zn68 2.032 . S
O69 C73 1.278 . S
C70 O71 1.203 . S
C70 O77 1.267 . S
O71 C70 1.203 . S
O72 C65 1.185 . S
O72 Zn68 2.086 . S
C73 O69 1.278 . S
C73 O74 1.211 . S
O74 C73 1.211 . S
C75 O67 1.284 . S
C75 O76 1.273 . S
O76 C75 1.273 . S
O77 Zn68 1.977 . S
O77 C70 1.267 . S
C78 O79 1.160 . S
C78 O85 1.185 . S
O79 C78 1.160 . S
O80 Zn81 1.899 . S
O80 C88 1.284 . S
Zn81 O80 1.899 . S
Zn81 O82 2.032 . S
Zn81 O85 2.086 . S
Zn81 O90 1.977 . S
O82 Zn81 2.032 . S
O82 C86 1.278 . S
C83 O84 1.204 . S
C83 O90 1.263 1_556 S
O84 C83 1.204 . S
O85 C78 1.185 . S
O85 Zn81 2.086 . S
C86 O82 1.278 . S
C86 O87 1.211 1_554 S
O87 C86 1.211 1_556 S
C88 O80 1.284 . S
C88 O89 1.273 . S
O89 C88 1.273 . S
O90 Zn81 1.977 . S
O90 C83 1.263 1_554 S
C91 O92 1.160 . S
C91 O98 1.185 . S
O92 C91 1.160 . S
O93 Zn94 1.899 . S
O93 C101 1.284 . S
Zn94 O93 1.899 . S
Zn94 O95 2.032 . S
Zn94 O98 2.086 . S
Zn94 O103 1.977 . S
O95 Zn94 2.032 . S
O95 C99 1.278 . S
C96 O97 1.203 . S
C96 O103 1.267 . S
O97 C96 1.203 . S
O98 C91 1.185 . S
O98 Zn94 2.086 . S
C99 O95 1.278 . S
C99 O100 1.211 . S
O100 C99 1.211 . S
C101 O93 1.284 . S
C101 O102 1.273 . S
O102 C101 1.273 . S
O103 Zn94 1.977 . S
O103 C96 1.267 . S
C104 O105 1.160 . S
C104 O111 1.185 . S
O105 C104 1.160 . S
O106 Zn107 1.899 . S
O106 C114 1.284 . S
Zn107 O106 1.899 . S
Zn107 O108 2.032 . S
Zn107 O111 2.086 . S
Zn107 O116 1.977 . S
O108 Zn107 2.032 . S
O108 C112 1.278 . S
C109 O110 1.203 . S
C109 O116 1.267 . S
O110 C109 1.203 . S
O111 C104 1.185 . S
O111 Zn107 2.086 . S
C112 O108 1.278 . S
C112 O113 1.211 . S
O113 C112 1.211 . S
C114 O106 1.284 . S
C114 O115 1.273 . S
O115 C114 1.273 . S
O116 Zn107 1.977 . S
O116 C109 1.267 . S
C117 O118 1.160 . S
C117 O124 1.185 . S
O118 C117 1.160 . S
O119 Zn120 1.899 . S
O119 C127 1.284 . S
Zn120 O119 1.899 . S
Zn120 O121 2.032 . S
Zn120 O124 2.086 . S
Zn120 O129 1.977 . S
O121 Zn120 2.032 . S
O121 C125 1.278 . S
C122 O123 1.203 . S
C122 O129 1.267 . S
O123 C122 1.203 . S
O124 C117 1.185 . S
O124 Zn120 2.086 . S
C125 O121 1.278 . S
C125 O126 1.211 . S
O126 C125 1.211 . S
C127 O119 1.284 . S
C127 O128 1.273 . S
O128 C127 1.273 . S
O129 Zn120 1.977 . S
O129 C122 1.267 . S
C130 O131 1.160 . S
C130 O137 1.185 . S
O131 C130 1.160 . S
O132 Zn133 1.899 . S
O132 C140 1.284 . S
Zn133 O132 1.899 . S
Zn133 O134 2.032 . S
Zn133 O137 2.086 . S
Zn133 O142 1.977 . S
O134 Zn133 2.032 . S
O134 C138 1.278 . S
C135 O136 1.203 . S
C135 O142 1.267 . S
O136 C135 1.203 . S
O137 C130 1.185 . S
O137 Zn133 2.086 . S
C138 O134 1.278 . S
C138 O139 1.211 . S
O139 C138 1.211 . S
C140 O132 1.284 . S
C140 O141 1.273 . S
O141 C140 1.273 . S
O142 Zn133 1.977 . S
O142 C135 1.267 . S
C143 O144 1.160 . S
C143 O150 1.185 . S
O144 C143 1.160 . S
O145 Zn146 1.899 . S
O145 C153 1.284 . S
Zn146 O145 1.899 . S
Zn146 O147 2.032 . S
Zn146 O150 2.086 . S
Zn146 O155 1.977 . S
O147 Zn146 2.032 . S
O147 C151 1.278 . S
C148 O149 1.203 . S
C148 O155 1.267 . S
O149 C148 1.203 . S
O150 C143 1.185 . S
O150 Zn146 2.086 . S
C151 O147 1.278 . S
C151 O152 1.211 . S
O152 C151 1.211 . S
C153 O145 1.284 . S
C153 O154 1.273 . S
O154 C153 1.273 . S
O155 Zn146 1.977 . S
O155 C148 1.267 . S
C156 O157 1.160 . S
C156 O163 1.185 . S
O157 C156 1.160 . S
O158 Zn159 1.899 . S
O158 C166 1.284 . S
Zn159 O158 1.899 . S
Zn159 O160 2.032 . S
Zn159 O163 2.086 . S
Zn159 O168 1.977 . S
O160 Zn159 2.032 . S
O160 C164 1.278 . S
C161 O162 1.204 . S
C161 O168 1.263 1_554 S
O162 C161 1.204 . S
O163 C156 1.185 . S
O163 Zn159 2.086 . S
C164 O160 1.278 . S
C164 O165 1.211 1_556 S
O165 C164 1.211 1_554 S
C166 O158 1.284 . S
C166 O167 1.273 . S
O167 C166 1.273 . S
O168 Zn159 1.977 . S
O168 C161 1.263 1_556 S
C169 O170 1.160 . S
C169 O176 1.185 . S
O170 C169 1.160 . S
O171 Zn172 1.899 . S
O171 C179 1.284 . S
Zn172 O171 1.899 . S
Zn172 O173 2.032 . S
Zn172 O176 2.086 . S
Zn172 O181 1.977 . S
O173 Zn172 2.032 . S
O173 C177 1.278 . S
C174 O175 1.203 . S
C174 O181 1.267 . S
O175 C174 1.203 . S
O176 C169 1.185 . S
O176 Zn172 2.086 . S
C177 O173 1.278 . S
C177 O178 1.211 . S
O178 C177 1.211 . S
C179 O171 1.284 . S
C179 O180 1.273 . S
O180 C179 1.273 . S
O181 Zn172 1.977 . S
O181 C174 1.267 . S
C182 O183 1.160 . S
C182 O189 1.185 . S
O183 C182 1.160 . S
O184 Zn185 1.899 . S
O184 C192 1.284 . S
Zn185 O184 1.899 . S
Zn185 O186 2.032 . S
Zn185 O189 2.086 . S
Zn185 O194 1.977 . S
O186 Zn185 2.032 . S
O186 C190 1.278 . S
C187 O188 1.204 . S
C187 O194 1.263 1_556 S
O188 C187 1.204 . S
O189 C182 1.185 . S
O189 Zn185 2.086 . S
C190 O186 1.278 . S
C190 O191 1.211 1_554 S
O191 C190 1.211 1_556 S
C192 O184 1.284 . S
C192 O193 1.273 . S
O193 C192 1.273 . S
O194 Zn185 1.977 . S
O194 C187 1.263 1_554 S
C195 O196 1.160 . S
C195 O202 1.185 . S
O196 C195 1.160 . S
O197 Zn198 1.899 . S
O197 C205 1.284 . S
Zn198 O197 1.899 . S
Zn198 O199 2.032 . S
Zn198 O202 2.086 . S
Zn198 O207 1.977 . S
O199 Zn198 2.032 . S
O199 C203 1.278 . S
C200 O201 1.203 . S
C200 O207 1.267 . S
O201 C200 1.203 . S
O202 C195 1.185 . S
O202 Zn198 2.086 . S
C203 O199 1.278 . S
C203 O204 1.211 . S
O204 C203 1.211 . S
C205 O197 1.284 . S
C205 O206 1.273 . S
O206 C205 1.273 . S
O207 Zn198 1.977 . S
O207 C200 1.267 . S
C0 C164 1.359 1_554 S
C177 C13 1.359 . S
C26 C190 1.359 1_556 S
C203 C39 1.359 . S
C104 C60 1.359 1_554 S
C73 C117 1.359 . S
C130 C86 1.359 1_556 S
C99 C143 1.359 . S
C5 C31 1.669 1_544 S
C18 C44 1.669 1_565 S
C57 C83 1.435 1_564 S
C70 C96 1.435 1_545 S
C135 C109 1.669 1_556 S
C122 C148 1.669 . S
C187 C161 1.435 1_556 S
C174 C200 1.435 . S
C88 C10 1.490 . S
C101 C23 1.490 1_655 S
C36 C62 1.490 . S
C49 C75 1.490 1_455 S
C192 C114 1.490 1_455 S
C127 C205 1.490 . S
C166 C140 1.490 1_455 S
C153 C179 1.490 . S
C8 C47 1.588 . S
C34 C21 1.588 . S
C52 C91 1.359 . S
C65 C78 1.359 . S
C151 C112 1.588 . S
C125 C138 1.588 . S
C195 C156 1.359 . S
C169 C182 1.359 . S
