# Generated by pormake.
# Topology pcu, (6)-cn, num edge types: 1
# Building blocks:
#     Node 0, Type 0, BuildingBlock: PAMTUU_clean_sbu_0, # of connection points: 6
#     Edge 1, Type (0, 0), BuildingBlock: AJUNOK_clean_linker_0, # of connection points: 2
#     Edge 2, Type (0, 0), BuildingBlock: AJUNOK_clean_linker_0, # of connection points: 2
#     Edge 3, Type (0, 0), BuildingBlock: AJUNOK_clean_linker_0, # of connection points: 2
# Relax obj value: 0.000
# Max RMSD: 0.000
# Mean RMSD: 0.000
data_MOF--net-pcu--node1-PAMTUU_clean_sbu_0--edge1-AJUNOK_clean_linker_0
_symmetry_space_group_name_H-M    P1
_symmetry_Int_Tables_number       1
_symmetry_cell_setting            triclinic
loop_
_symmetry_equiv_pos_as_xyz
'x, y, z'
_cell_length_a     21.53263
_cell_length_b     11.150305
_cell_length_c     10.97627
_cell_angle_alpha  83.438717
_cell_angle_beta   97.997484
_cell_angle_gamma 116.85322
loop_
_atom_site_label
_atom_site_type_symbol
_atom_site_fract_x
_atom_site_fract_y
_atom_site_fract_z
_atom_type_partial_charge
Tb0 Tb 0.12115 0.05944 0.0115 0.0
Tb1 Tb 0.94654 0.9125 0.98426 0.0
C2 C 1.03552 0.98431 0.23467 0.0
C3 C 0.31043 0.13196 0.01689 0.0
C4 C 0.42155 0.07194 0.98694 0.0
C5 C 0.43189 0.17302 0.06417 0.0
C6 C 0.37691 0.20274 0.07875 0.0
C7 C 0.29946 0.03024 0.94018 0.0
C8 C 0.35455 0.00019 0.92564 0.0
C9 C 0.25353 0.16479 0.03619 0.0
O10 O 0.08779 0.84534 0.05158 0.0
O11 O 0.9752 0.75536 0.95552 0.0
O12 O 0.98301 0.00272 0.80536 0.0
O13 O 0.08502 0.98113 0.8298 0.0
O14 O 0.85416 0.82582 0.07186 0.0
O15 O 0.84974 0.83861 0.87403 0.0
O16 O 0.97782 0.12033 0.01864 0.0
O17 O 0.08977 0.21968 0.95892 0.0
O18 O 0.08599 0.08283 0.17911 0.0
O19 O 0.98648 0.8846 0.17331 0.0
C20 C 1.03219 0.74446 0.00265 0.0
O21 O 0.21649 0.18409 0.93814 0.0
O22 O 0.21442 0.09311 0.12312 0.0
C23 C 1.03328 0.99208 0.75936 0.0
C24 C 0.75981 0.85742 0.96105 0.0
C25 C 0.65154 0.93632 0.95659 0.0
C26 C 0.64086 0.82438 0.89364 0.0
C27 C 0.69442 0.78536 0.89601 0.0
C28 C 0.77119 0.97058 0.02244 0.0
C29 C 0.71749 0.00905 0.0209 0.0
C30 C 0.81404 0.80934 0.9687 0.0
C31 C 1.03423 0.22712 0.98734 0.0
H32 H 0.48231 0.22785 0.11496 0.0
H33 H 0.38625 0.28075 0.13922 0.0
H34 H 0.24839 0.97411 0.89189 0.0
H35 H 0.34496 0.92156 0.86577 0.0
H36 H 0.5909 0.76658 0.84276 0.0
H37 H 0.68445 0.69764 0.84821 0.0
H38 H 0.82116 0.02773 0.07365 0.0
H39 H 0.72715 0.09375 0.0728 0.0
C40 C 1.01988 0.87046 0.44503 0.0
C41 C 1.03335 0.98723 0.36764 0.0
C42 C 1.02014 0.87295 0.5726 0.0
C43 C 1.03157 0.991 0.6255 0.0
H44 H 1.01076 0.77769 0.40712 0.0
H45 H 1.01107 0.78203 0.6302 0.0
S46 S 0.06569 0.3209 0.46226 0.0
N47 N 0.05729 0.22315 0.35258 0.0
N48 N 0.05478 0.22576 0.59203 0.0
C49 C 0.04335 0.10723 0.54905 0.0
C50 C 0.04503 0.10586 0.41988 0.0
C51 C 0.47041 0.90529 0.98773 0.0
C52 C 0.48019 0.03955 0.97319 0.0
C53 C 0.52575 0.87297 0.981 0.0
C54 C 0.59316 0.97349 0.95895 0.0
H55 H 0.41994 0.82471 0.00742 0.0
H56 H 0.51593 0.76845 0.99592 0.0
S57 S 0.64435 0.3393 0.90167 0.0
N58 N 0.56127 0.27288 0.9276 0.0
N59 N 0.66493 0.21228 0.9138 0.0
C60 C 0.60311 0.10786 0.94098 0.0
C61 C 0.54681 0.14077 0.94829 0.0
C62 C 0.97167 0.49504 0.98672 0.0
C63 C 1.03435 0.61429 -0.00125 0.0
C64 C 0.97227 0.37059 0.9825 0.0
C65 C 1.03555 0.36077 0.98831 0.0
H66 H 0.92162 0.49732 0.9819 0.0
H67 H 0.92255 0.28149 0.9741 0.0
S68 S 0.21432 0.64388 0.01703 0.0
N69 N 0.16162 0.71522 0.01451 0.0
N70 N 0.16269 0.48151 0.00586 0.0
C71 C 0.09868 0.47947 -0.00108 0.0
C72 C 0.09809 0.6061 0.00453 0.0
loop_
_geom_bond_atom_site_label_1
_geom_bond_atom_site_label_2
_geom_bond_distance
_geom_bond_site_symmetry_2
_ccdc_geom_bond_type
Tb0 C9 2.764 . S
Tb0 O10 2.325 1_545 S
Tb0 O13 2.303 1_554 S
Tb0 O17 2.322 . S
Tb0 O18 2.349 . S
Tb0 O21 2.415 1_554 S
Tb0 O22 2.399 . S
Tb1 O11 2.322 . S
Tb1 O12 2.349 . S
Tb1 O14 2.415 1_556 S
Tb1 O15 2.399 . S
Tb1 O16 2.325 1_565 S
Tb1 O19 2.303 1_556 S
Tb1 C30 2.764 . S
C2 O18 1.261 . S
C2 O19 1.257 1_445 S
C3 C6 1.358 . S
C3 C7 1.332 1_544 S
C3 C9 1.504 . S
C4 C5 1.373 1_566 S
C4 C8 1.308 . S
C5 C4 1.373 1_544 S
C5 C6 1.429 . S
C5 H32 0.932 . S
C6 C3 1.358 . S
C6 C5 1.429 . S
C6 H33 0.930 . S
C7 C3 1.332 1_566 S
C7 C8 1.394 . S
C7 H34 0.932 . S
C8 C4 1.308 . S
C8 C7 1.394 . S
C8 H35 0.929 . S
C9 Tb0 2.764 . S
C9 C3 1.504 . S
C9 O21 1.239 1_554 S
C9 O22 1.263 . S
O10 Tb0 2.325 1_565 S
O10 C20 1.231 1_455 S
O11 Tb1 2.322 . S
O11 C20 1.267 1_556 S
O12 Tb1 2.349 . S
O12 C23 1.261 . S
O13 Tb0 2.303 1_556 S
O13 C23 1.257 1_445 S
O14 Tb1 2.415 1_554 S
O14 C30 1.239 1_554 S
O15 Tb1 2.399 . S
O15 C30 1.263 . S
O16 Tb1 2.325 1_545 S
O16 C31 1.229 1_655 S
O17 Tb0 2.322 . S
O17 C31 1.271 1_554 S
O18 Tb0 2.349 . S
O18 C2 1.261 . S
O19 Tb1 2.303 1_554 S
O19 C2 1.257 1_665 S
C20 O10 1.231 1_655 S
C20 O11 1.267 1_554 S
O21 Tb0 2.415 1_556 S
O21 C9 1.239 1_556 S
O22 Tb0 2.399 . S
O22 C9 1.263 . S
C23 O12 1.261 . S
C23 O13 1.257 1_665 S
C24 C27 1.358 . S
C24 C28 1.332 1_566 S
C24 C30 1.504 . S
C25 C26 1.373 1_544 S
C25 C29 1.308 . S
C26 C25 1.373 1_566 S
C26 C27 1.429 . S
C26 H36 0.932 . S
C27 C24 1.358 . S
C27 C26 1.429 . S
C27 H37 0.930 . S
C28 C24 1.332 1_544 S
C28 C29 1.394 . S
C28 H38 0.932 . S
C29 C25 1.308 . S
C29 C28 1.394 . S
C29 H39 0.929 . S
C30 Tb1 2.764 . S
C30 O14 1.239 1_556 S
C30 O15 1.263 . S
C30 C24 1.504 . S
C31 O16 1.229 1_455 S
C31 O17 1.271 1_556 S
H32 C5 0.932 . S
H33 C6 0.930 . S
H34 C7 0.932 . S
H35 C8 0.929 . S
H36 C26 0.932 . S
H37 C27 0.930 . S
H38 C28 0.932 . S
H39 C29 0.929 . S
C40 C41 1.371 1_565 S
C40 C42 1.419 . S
C40 H44 0.930 . S
C41 C40 1.371 1_545 S
C41 C50 1.425 1_455 S
C42 C40 1.419 . S
C42 C43 1.365 1_565 S
C42 H45 0.929 . S
C43 C42 1.365 1_545 S
C43 C49 1.427 1_455 S
H44 C40 0.930 . S
H45 C42 0.929 . S
S46 N47 1.613 . S
S46 N48 1.610 . S
N47 S46 1.613 . S
N47 C50 1.350 . S
N48 S46 1.610 . S
N48 C49 1.351 . S
C49 C43 1.427 1_655 S
C49 N48 1.351 . S
C49 C50 1.434 . S
C50 C41 1.425 1_655 S
C50 N47 1.350 . S
C50 C49 1.434 . S
C51 C52 1.370 1_564 S
C51 C53 1.419 . S
C51 H55 0.930 . S
C52 C51 1.370 1_546 S
C52 C61 1.429 . S
C53 C51 1.419 . S
C53 C54 1.363 1_564 S
C53 H56 0.929 . S
C54 C53 1.363 1_546 S
C54 C60 1.428 . S
H55 C51 0.930 . S
H56 C53 0.929 . S
S57 N58 1.613 . S
S57 N59 1.610 . S
N58 S57 1.613 . S
N58 C61 1.350 . S
N59 S57 1.610 . S
N59 C60 1.351 . S
C60 C54 1.428 . S
C60 N59 1.351 . S
C60 C61 1.434 . S
C61 C52 1.429 . S
C61 N58 1.350 . S
C61 C60 1.434 . S
C62 C63 1.369 1_554 S
C62 C64 1.419 . S
C62 H66 0.930 . S
C63 C62 1.369 1_556 S
C63 C72 1.429 1_655 S
C64 C62 1.419 . S
C64 C65 1.364 1_654 S
C64 H67 0.929 . S
C65 C64 1.364 1_456 S
C65 C71 1.428 . S
H66 C62 0.930 . S
H67 C64 0.929 . S
S68 N69 1.613 . S
S68 N70 1.610 . S
N69 S68 1.613 . S
N69 C72 1.350 . S
N70 S68 1.610 . S
N70 C71 1.351 . S
C71 C65 1.428 . S
C71 N70 1.351 . S
C71 C72 1.434 . S
C72 C63 1.429 1_455 S
C72 N69 1.350 . S
C72 C71 1.434 . S
C41 C2 1.468 . S
C43 C23 1.465 1_445 S
C52 C4 1.499 1_545 S
C54 C25 1.500 1_556 S
C63 C20 1.493 1_556 S
C65 C31 1.488 . S
