# Generated by pormake.
# Topology eci, (8)-cn, num edge types: 1
# Building blocks:
#     Node 0, Type 0, BuildingBlock: TAGTUT_clean_sbu_3, # of connection points: 8
#     Node 1, Type 0, BuildingBlock: TAGTUT_clean_sbu_3, # of connection points: 8
#     Node 2, Type 0, BuildingBlock: TAGTUT_clean_sbu_3, # of connection points: 8
#     Node 3, Type 0, BuildingBlock: TAGTUT_clean_sbu_3, # of connection points: 8
#     Edge 4, Type (0, 0), None
#     Edge 5, Type (0, 0), None
#     Edge 6, Type (0, 0), None
#     Edge 7, Type (0, 0), None
#     Edge 8, Type (0, 0), None
#     Edge 9, Type (0, 0), None
#     Edge 10, Type (0, 0), None
#     Edge 11, Type (0, 0), None
#     Edge 12, Type (0, 0), None
#     Edge 13, Type (0, 0), None
#     Edge 14, Type (0, 0), None
#     Edge 15, Type (0, 0), None
#     Edge 16, Type (0, 0), None
#     Edge 17, Type (0, 0), None
#     Edge 18, Type (0, 0), None
#     Edge 19, Type (0, 0), None
# Relax obj value: 0.366
# Max RMSD: 0.273
# Mean RMSD: 0.267
data_MOF--net-eci--node1-TAGTUT_clean_sbu_3--edge1-none
_symmetry_space_group_name_H-M    P1
_symmetry_Int_Tables_number       1
_symmetry_cell_setting            triclinic
loop_
_symmetry_equiv_pos_as_xyz
'x, y, z'
_cell_length_a     16.603818
_cell_length_b     17.610202
_cell_length_c     7.9394247
_cell_angle_alpha  92.707868
_cell_angle_beta   88.952212
_cell_angle_gamma 89.698628
loop_
_atom_site_label
_atom_site_type_symbol
_atom_site_fract_x
_atom_site_fract_y
_atom_site_fract_z
_atom_type_partial_charge
C0 C 0.73439 0.96739 0.1172 0.0
C1 C 0.50902 0.78215 0.93173 0.0
C2 C 0.71059 0.60771 0.04993 0.0
Mg3 Mg 0.91409 0.96123 0.14238 0.0
Mg4 Mg 0.96261 0.85776 0.78247 0.0
O5 O 0.92675 0.85129 0.01941 0.0
Mg6 Mg 0.81865 0.82004 -0.03037 0.0
O7 O 0.70579 0.80071 0.93668 0.0
Mg8 Mg 0.67351 0.79382 0.17837 0.0
Mg9 Mg 0.67392 0.7291 0.77709 0.0
C10 C 0.92944 0.6998 0.78709 0.0
O11 O 0.81744 0.84436 0.68125 0.0
O12 O 0.99561 0.85423 0.08471 0.0
O13 O 0.73522 0.76279 0.54901 0.0
O14 O 0.97308 0.01704 0.90207 0.0
O15 O 0.08127 0.87397 0.88119 0.0
O16 O 0.89462 0.95799 0.72982 0.0
O17 O 0.80316 0.79982 0.24969 0.0
O18 O 0.86155 0.90064 0.3757 0.0
C19 C 0.82047 0.83928 0.38264 0.0
C20 C 0.06916 0.86385 0.0365 0.0
O21 O 0.87941 0.70163 0.91223 0.0
O22 O 0.54505 0.79279 0.07303 0.0
O23 O 0.92172 0.7491 0.67887 0.0
O24 O 0.68671 0.6561 0.16742 0.0
O25 O 0.54713 0.75896 0.79744 0.0
O26 O 0.71427 0.62675 0.89639 0.0
O27 O 0.78982 0.93562 0.02929 0.0
O28 O 0.67867 0.92887 0.18876 0.0
C29 C 0.94978 0.00464 0.75096 0.0
C30 C 0.78739 0.81578 0.54574 0.0
C31 C 0.55731 0.24025 0.35783 0.0
C32 C 0.75009 0.04734 0.1582 0.0
C33 C 0.96627 0.20442 0.3033 0.0
Mg34 Mg 0.54899 0.396 0.4545 0.0
Mg35 Mg 0.59225 0.46061 0.12801 0.0
O36 O 0.6592 0.43899 0.32006 0.0
Mg37 Mg 0.72053 0.34134 0.23845 0.0
O38 O 0.74873 0.23249 0.19864 0.0
Mg39 Mg 0.75407 0.19446 0.42985 0.0
Mg40 Mg 0.8287 0.19892 0.03952 0.0
C41 C 0.71274 0.52339 0.07166 0.0
O42 O 0.69988 0.3417 0.95436 0.0
O43 O 0.62206 0.50393 0.44263 0.0
O44 O 0.7932 0.26463 0.82501 0.0
O45 O 0.45768 0.42313 0.24291 0.0
O46 O 0.53968 0.55861 0.27843 0.0
O47 O 0.52662 0.35889 0.05378 0.0
O48 O 0.74715 0.32243 0.52236 0.0
O49 O 0.63469 0.36362 0.65765 0.0
C50 C 0.70646 0.3374 0.65856 0.0
C51 C 0.57958 0.56158 0.41422 0.0
O52 O 0.72279 0.48869 0.21317 0.0
O53 O 0.74446 0.07315 0.3113 0.0
O54 O 0.68091 0.48646 0.95019 0.0
O55 O 0.90836 0.19464 0.41411 0.0
O56 O 0.78352 0.08467 0.04105 0.0
O57 O 0.94876 0.21234 0.14894 0.0
O58 O 0.58866 0.29888 0.29529 0.0
O59 O 0.60562 0.19416 0.42878 0.0
C60 C 0.46368 0.39552 0.09106 0.0
C61 C 0.73612 0.31393 0.82104 0.0
C62 C 0.20186 0.11422 0.01463 0.0
C63 C 0.12881 0.87719 0.16209 0.0
C64 C 0.00977 -0.00049 0.6134 0.0
Mg65 Mg 0.25195 0.25576 0.27669 0.0
Mg66 Mg 0.32354 0.24901 0.65757 0.0
O67 O 0.25062 0.20465 0.50268 0.0
Mg68 Mg 0.21994 0.09616 0.42661 0.0
O69 O 0.16745 -9e-05 0.3168 0.0
Mg70 Mg 0.05463 0.0421 0.22481 0.0
Mg71 Mg 0.16607 0.91573 0.46459 0.0
C72 C 0.23251 0.12997 0.86418 0.0
O73 O 0.22296 0.00241 0.6713 0.0
O74 O 0.23909 0.37919 0.40572 0.0
O75 O 0.29373 0.92324 0.5066 0.0
O76 O 0.4091 0.25169 0.28908 0.0
O77 O 0.27516 0.36578 0.67146 0.0
O78 O 0.44553 0.2346 0.55444 0.0
O79 O 0.08722 0.14087 0.39838 0.0
O80 O 0.10479 0.2528 0.28813 0.0
C81 C 0.05649 0.20254 0.34677 0.0
C82 C 0.24298 0.40541 0.55842 0.0
O83 O 0.20371 0.09436 0.7294 0.0
O84 O 0.14738 0.9461 0.20194 0.0
O85 O 0.28752 0.18065 0.86033 0.0
O86 O 0.98593 0.00805 0.46323 0.0
O87 O 0.13418 0.8304 0.27813 0.0
O88 O 0.07589 0.96587 0.64097 0.0
O89 O 0.2395 0.13331 0.15191 0.0
O90 O 0.13288 0.08233 0.0162 0.0
C91 C 0.46562 0.24077 0.39989 0.0
C92 C 0.25664 0.93476 0.64486 0.0
C93 C 0.32258 0.6152 0.33888 0.0
C94 C 0.55095 0.60558 0.56202 0.0
C95 C 0.44605 0.44884 -0.03588 0.0
Mg96 Mg 0.18102 0.6689 0.56701 0.0
Mg97 Mg 0.18117 0.73853 -0.02692 0.0
O98 O 0.20883 0.66032 0.80906 0.0
Mg99 Mg 0.3196 0.63189 0.76332 0.0
O100 O 0.42535 0.592 0.70802 0.0
Mg101 Mg 0.40229 0.48764 0.56801 0.0
Mg102 Mg 0.50195 0.61215 0.88961 0.0
C103 C 0.29513 0.63843 0.19056 0.0
O104 O 0.37992 0.75171 0.82453 0.0
O105 O 0.05468 0.67529 0.67187 0.0
O106 O 0.43201 0.69632 0.03325 0.0
O107 O 0.2085 0.80458 0.61162 0.0
O108 O 0.05002 0.7114 0.94618 0.0
O109 O 0.23076 0.84731 0.87444 0.0
O110 O 0.28223 0.51734 0.69224 0.0
O111 O 0.17538 0.53052 0.53534 0.0
C112 C 0.22794 0.48774 0.60331 0.0
C113 C 0.01547 0.68647 0.81084 0.0
O114 O 0.32086 0.60391 0.05261 0.0
O115 O 0.47653 0.59805 0.6066 0.0
O116 O 0.24668 0.69557 0.18904 0.0
O117 O 0.4342 0.42618 0.81121 0.0
O118 O 0.59649 0.61754 0.68686 0.0
O119 O 0.47104 0.51463 0.00319 0.0
O120 O 0.30762 0.65438 0.47718 0.0
O121 O 0.36084 0.55195 0.34 0.0
C122 C 0.22757 0.85991 0.71777 0.0
C123 C 0.42752 0.75439 0.94978 0.0
loop_
_geom_bond_atom_site_label_1
_geom_bond_atom_site_label_2
_geom_bond_distance
_geom_bond_site_symmetry_2
_ccdc_geom_bond_type
C0 O27 1.312 . S
C0 O28 1.208 . S
C1 O22 1.331 . S
C1 O25 1.244 . S
C2 O24 1.264 . S
C2 O26 1.273 1_554 S
Mg3 O5 1.936 . S
Mg3 O12 2.081 1_655 S
Mg3 O14 2.023 1_564 S
Mg3 O18 2.031 . S
Mg3 O27 2.291 . S
Mg4 O5 1.963 1_456 S
Mg4 O15 1.942 1_556 S
Mg4 O16 1.955 1_455 S
Mg4 O23 1.986 . S
O5 Mg3 1.936 . S
O5 Mg4 1.963 1_654 S
O5 Mg6 1.915 1_554 S
Mg6 O5 1.915 1_556 S
Mg6 O7 1.915 . S
Mg6 O11 2.013 . S
Mg6 O17 2.114 1_556 S
Mg6 O21 2.013 . S
Mg6 O27 2.114 1_556 S
O7 Mg6 1.915 . S
O7 Mg8 1.936 1_556 S
O7 Mg9 1.963 . S
Mg8 O7 1.936 1_554 S
Mg8 O17 2.291 . S
Mg8 O22 2.081 1_554 S
Mg8 O24 2.023 . S
Mg8 O28 2.031 . S
Mg9 O7 1.963 . S
Mg9 O13 1.986 . S
Mg9 O25 1.942 . S
Mg9 O26 1.955 . S
C10 O21 1.191 . S
C10 O23 1.307 1_655 S
O11 Mg6 2.013 . S
O11 C30 1.191 . S
O12 Mg3 2.081 1_455 S
O12 C20 1.331 . S
O13 Mg9 1.986 . S
O13 C30 1.307 . S
O14 Mg3 2.023 1_546 S
O14 C29 1.264 . S
O15 Mg4 1.942 1_554 S
O15 C20 1.244 . S
O16 Mg4 1.955 1_655 S
O16 C29 1.273 1_565 S
O17 Mg6 2.114 1_554 S
O17 Mg8 2.291 . S
O17 C19 1.312 . S
O18 Mg3 2.031 . S
O18 C19 1.208 . S
C19 O17 1.312 . S
C19 O18 1.208 . S
C20 O12 1.331 . S
C20 O15 1.244 . S
O21 Mg6 2.013 . S
O21 C10 1.191 . S
O22 C1 1.331 . S
O22 Mg8 2.081 1_556 S
O23 Mg4 1.986 . S
O23 C10 1.307 1_455 S
O24 C2 1.264 . S
O24 Mg8 2.023 . S
O25 C1 1.244 . S
O25 Mg9 1.942 . S
O26 C2 1.273 1_556 S
O26 Mg9 1.955 . S
O27 C0 1.312 . S
O27 Mg3 2.291 . S
O27 Mg6 2.114 1_554 S
O28 C0 1.208 . S
O28 Mg8 2.031 . S
C29 O14 1.264 . S
C29 O16 1.273 1_545 S
C30 O11 1.191 . S
C30 O13 1.307 . S
C31 O58 1.312 . S
C31 O59 1.208 . S
C32 O53 1.331 . S
C32 O56 1.244 . S
C33 O55 1.264 . S
C33 O57 1.273 . S
Mg34 O36 1.936 . S
Mg34 O43 2.081 . S
Mg34 O45 2.023 . S
Mg34 O49 2.031 . S
Mg34 O58 2.291 . S
Mg35 O36 1.963 . S
Mg35 O46 1.942 . S
Mg35 O47 1.955 1_554 S
Mg35 O54 1.986 . S
O36 Mg34 1.936 . S
O36 Mg35 1.963 . S
O36 Mg37 1.915 . S
Mg37 O36 1.915 . S
Mg37 O38 1.915 . S
Mg37 O42 2.013 1_554 S
Mg37 O48 2.114 . S
Mg37 O52 2.013 . S
Mg37 O58 2.114 . S
O38 Mg37 1.915 . S
O38 Mg39 1.936 . S
O38 Mg40 1.963 . S
Mg39 O38 1.936 . S
Mg39 O48 2.291 . S
Mg39 O53 2.081 . S
Mg39 O55 2.023 . S
Mg39 O59 2.031 . S
Mg40 O38 1.963 . S
Mg40 O44 1.986 1_554 S
Mg40 O56 1.942 . S
Mg40 O57 1.955 . S
C41 O52 1.191 . S
C41 O54 1.307 . S
O42 Mg37 2.013 1_556 S
O42 C61 1.191 . S
O43 Mg34 2.081 . S
O43 C51 1.331 . S
O44 Mg40 1.986 1_556 S
O44 C61 1.307 . S
O45 Mg34 2.023 . S
O45 C60 1.264 . S
O46 Mg35 1.942 . S
O46 C51 1.244 . S
O47 Mg35 1.955 1_556 S
O47 C60 1.273 1_556 S
O48 Mg37 2.114 . S
O48 Mg39 2.291 . S
O48 C50 1.312 . S
O49 Mg34 2.031 . S
O49 C50 1.208 . S
C50 O48 1.312 . S
C50 O49 1.208 . S
C51 O43 1.331 . S
C51 O46 1.244 . S
O52 Mg37 2.013 . S
O52 C41 1.191 . S
O53 C32 1.331 . S
O53 Mg39 2.081 . S
O54 Mg35 1.986 . S
O54 C41 1.307 . S
O55 C33 1.264 . S
O55 Mg39 2.023 . S
O56 C32 1.244 . S
O56 Mg40 1.942 . S
O57 C33 1.273 . S
O57 Mg40 1.955 . S
O58 C31 1.312 . S
O58 Mg34 2.291 . S
O58 Mg37 2.114 . S
O59 C31 1.208 . S
O59 Mg39 2.031 . S
C60 O45 1.264 . S
C60 O47 1.273 1_554 S
C61 O42 1.191 . S
C61 O44 1.307 . S
C62 O89 1.312 . S
C62 O90 1.208 . S
C63 O84 1.331 . S
C63 O87 1.244 . S
C64 O86 1.264 . S
C64 O88 1.273 1_655 S
Mg65 O67 1.936 . S
Mg65 O74 2.081 . S
Mg65 O76 2.023 . S
Mg65 O80 2.031 . S
Mg65 O89 2.291 . S
Mg66 O67 1.963 . S
Mg66 O77 1.942 . S
Mg66 O78 1.955 . S
Mg66 O85 1.986 . S
O67 Mg65 1.936 . S
O67 Mg66 1.963 . S
O67 Mg68 1.915 . S
Mg68 O67 1.915 . S
Mg68 O69 1.915 . S
Mg68 O73 2.013 . S
Mg68 O79 2.114 . S
Mg68 O83 2.013 . S
Mg68 O89 2.114 . S
O69 Mg68 1.915 . S
O69 Mg70 1.936 . S
O69 Mg71 1.963 1_545 S
Mg70 O69 1.936 . S
Mg70 O79 2.291 . S
Mg70 O84 2.081 1_545 S
Mg70 O86 2.023 1_455 S
Mg70 O90 2.031 . S
Mg71 O69 1.963 1_565 S
Mg71 O75 1.986 . S
Mg71 O87 1.942 . S
Mg71 O88 1.955 1_565 S
C72 O83 1.191 . S
C72 O85 1.307 . S
O73 Mg68 2.013 . S
O73 C92 1.191 . S
O74 Mg65 2.081 . S
O74 C82 1.331 . S
O75 Mg71 1.986 . S
O75 C92 1.307 1_565 S
O76 Mg65 2.023 . S
O76 C91 1.264 . S
O77 Mg66 1.942 . S
O77 C82 1.244 . S
O78 Mg66 1.955 . S
O78 C91 1.273 . S
O79 Mg68 2.114 . S
O79 Mg70 2.291 . S
O79 C81 1.312 . S
O80 Mg65 2.031 . S
O80 C81 1.208 . S
C81 O79 1.312 . S
C81 O80 1.208 . S
C82 O74 1.331 . S
C82 O77 1.244 . S
O83 Mg68 2.013 . S
O83 C72 1.191 . S
O84 C63 1.331 . S
O84 Mg70 2.081 1_565 S
O85 Mg66 1.986 . S
O85 C72 1.307 . S
O86 C64 1.264 . S
O86 Mg70 2.023 1_655 S
O87 C63 1.244 . S
O87 Mg71 1.942 . S
O88 C64 1.273 1_455 S
O88 Mg71 1.955 1_545 S
O89 C62 1.312 . S
O89 Mg65 2.291 . S
O89 Mg68 2.114 . S
O90 C62 1.208 . S
O90 Mg70 2.031 . S
C91 O76 1.264 . S
C91 O78 1.273 . S
C92 O73 1.191 . S
C92 O75 1.307 1_545 S
C93 O120 1.312 . S
C93 O121 1.208 . S
C94 O115 1.331 . S
C94 O118 1.244 . S
C95 O117 1.264 . S
C95 O119 1.273 1_556 S
Mg96 O98 1.936 . S
Mg96 O105 2.081 . S
Mg96 O107 2.023 . S
Mg96 O111 2.031 . S
Mg96 O120 2.291 . S
Mg97 O98 1.963 . S
Mg97 O108 1.942 1_556 S
Mg97 O109 1.955 . S
Mg97 O116 1.986 1_556 S
O98 Mg96 1.936 . S
O98 Mg97 1.963 . S
O98 Mg99 1.915 . S
Mg99 O98 1.915 . S
Mg99 O100 1.915 . S
Mg99 O104 2.013 . S
Mg99 O110 2.114 . S
Mg99 O114 2.013 1_556 S
Mg99 O120 2.114 . S
O100 Mg99 1.915 . S
O100 Mg101 1.936 . S
O100 Mg102 1.963 . S
Mg101 O100 1.936 . S
Mg101 O110 2.291 . S
Mg101 O115 2.081 . S
Mg101 O117 2.023 . S
Mg101 O121 2.031 . S
Mg102 O100 1.963 . S
Mg102 O106 1.986 . S
Mg102 O118 1.942 . S
Mg102 O119 1.955 1_556 S
C103 O114 1.191 . S
C103 O116 1.307 . S
O104 Mg99 2.013 . S
O104 C123 1.191 . S
O105 Mg96 2.081 . S
O105 C113 1.331 . S
O106 Mg102 1.986 . S
O106 C123 1.307 . S
O107 Mg96 2.023 . S
O107 C122 1.264 . S
O108 Mg97 1.942 1_554 S
O108 C113 1.244 1_554 S
O109 Mg97 1.955 . S
O109 C122 1.273 . S
O110 Mg99 2.114 . S
O110 Mg101 2.291 . S
O110 C112 1.312 . S
O111 Mg96 2.031 . S
O111 C112 1.208 . S
C112 O110 1.312 . S
C112 O111 1.208 . S
C113 O105 1.331 . S
C113 O108 1.244 1_556 S
O114 Mg99 2.013 1_554 S
O114 C103 1.191 . S
O115 C94 1.331 . S
O115 Mg101 2.081 . S
O116 Mg97 1.986 1_554 S
O116 C103 1.307 . S
O117 C95 1.264 . S
O117 Mg101 2.023 . S
O118 C94 1.244 . S
O118 Mg102 1.942 . S
O119 C95 1.273 1_554 S
O119 Mg102 1.955 1_554 S
O120 C93 1.312 . S
O120 Mg96 2.291 . S
O120 Mg99 2.114 . S
O121 C93 1.208 . S
O121 Mg101 2.031 . S
C122 O107 1.264 . S
C122 O109 1.273 . S
C123 O104 1.191 . S
C123 O106 1.307 . S
C19 C30 1.496 . S
C50 C61 1.515 . S
C72 C62 1.515 1_556 S
C103 C93 1.496 . S
C123 C1 1.932 . S
C32 C0 2.508 1_545 S
C91 C31 2.873 . S
C122 C92 2.294 1_565 S
C10 C113 1.932 1_655 S
C41 C2 2.294 . S
C33 C81 2.873 1_655 S
C82 C112 2.508 . S
C63 C20 1.118 . S
C51 C94 1.118 . S
C64 C29 0.606 . S
C60 C95 0.605 1_554 S
