# Generated by pormake.
# Topology crb, (4)-cn, num edge types: 1
# Building blocks:
#     Node 0, Type 0, BuildingBlock: AZAVOO_clean_sbu_0, # of connection points: 4
#     Node 1, Type 0, BuildingBlock: AZAVOO_clean_sbu_0, # of connection points: 4
#     Node 2, Type 0, BuildingBlock: AZAVOO_clean_sbu_0, # of connection points: 4
#     Node 3, Type 0, BuildingBlock: AZAVOO_clean_sbu_0, # of connection points: 4
#     Node 4, Type 0, BuildingBlock: AZAVOO_clean_sbu_0, # of connection points: 4
#     Node 5, Type 0, BuildingBlock: AZAVOO_clean_sbu_0, # of connection points: 4
#     Node 6, Type 0, BuildingBlock: AZAVOO_clean_sbu_0, # of connection points: 4
#     Node 7, Type 0, BuildingBlock: AZAVOO_clean_sbu_0, # of connection points: 4
#     Edge 8, Type (0, 0), BuildingBlock: EYOCIG_clean_linker_4, # of connection points: 2
#     Edge 9, Type (0, 0), BuildingBlock: EYOCIG_clean_linker_4, # of connection points: 2
#     Edge 10, Type (0, 0), BuildingBlock: EYOCIG_clean_linker_4, # of connection points: 2
#     Edge 11, Type (0, 0), BuildingBlock: EYOCIG_clean_linker_4, # of connection points: 2
#     Edge 12, Type (0, 0), BuildingBlock: EYOCIG_clean_linker_4, # of connection points: 2
#     Edge 13, Type (0, 0), BuildingBlock: EYOCIG_clean_linker_4, # of connection points: 2
#     Edge 14, Type (0, 0), BuildingBlock: EYOCIG_clean_linker_4, # of connection points: 2
#     Edge 15, Type (0, 0), BuildingBlock: EYOCIG_clean_linker_4, # of connection points: 2
#     Edge 16, Type (0, 0), BuildingBlock: EYOCIG_clean_linker_4, # of connection points: 2
#     Edge 17, Type (0, 0), BuildingBlock: EYOCIG_clean_linker_4, # of connection points: 2
#     Edge 18, Type (0, 0), BuildingBlock: EYOCIG_clean_linker_4, # of connection points: 2
#     Edge 19, Type (0, 0), BuildingBlock: EYOCIG_clean_linker_4, # of connection points: 2
#     Edge 20, Type (0, 0), BuildingBlock: EYOCIG_clean_linker_4, # of connection points: 2
#     Edge 21, Type (0, 0), BuildingBlock: EYOCIG_clean_linker_4, # of connection points: 2
#     Edge 22, Type (0, 0), BuildingBlock: EYOCIG_clean_linker_4, # of connection points: 2
#     Edge 23, Type (0, 0), BuildingBlock: EYOCIG_clean_linker_4, # of connection points: 2
# Relax obj value: 0.037
# Max RMSD: 0.066
# Mean RMSD: 0.066
data_MOF--net-crb--node1-AZAVOO_clean_sbu_0--edge1-EYOCIG_clean_linker_4
_symmetry_space_group_name_H-M    P1
_symmetry_Int_Tables_number       1
_symmetry_cell_setting            triclinic
loop_
_symmetry_equiv_pos_as_xyz
'x, y, z'
_cell_length_a     37.368035
_cell_length_b     29.585844
_cell_length_c     21.077696
_cell_angle_alpha  89.991945
_cell_angle_beta   90.01004
_cell_angle_gamma 90.003255
loop_
_atom_site_label
_atom_site_type_symbol
_atom_site_fract_x
_atom_site_fract_y
_atom_site_fract_z
_atom_type_partial_charge
Mg0 Mg 0.31945 0.28541 -0.00348 0.0
O1 O 0.31071 0.36241 -0.00393 0.0
O2 O 0.2516 0.37444 -0.00689 0.0
Mg3 Mg 0.22275 0.3061 -0.0131 0.0
C4 C 0.28374 0.38882 -0.00453 0.0
C5 C 0.4002 0.27247 -0.00938 0.0
O6 O 0.38821 0.24356 0.94849 0.0
O7 O 0.30088 0.28054 0.09994 0.0
O8 O 0.24146 0.2875 0.08723 0.0
O9 O 0.31949 0.28274 0.89023 0.0
O10 O 0.27118 0.27413 0.94948 0.0
C11 C 0.26894 0.28012 0.12166 0.0
C12 C 0.28538 0.27594 0.89418 0.0
O13 O 0.37817 0.29604 0.02243 0.0
Mg14 Mg 0.65893 0.28557 0.00869 0.0
O15 O 0.66774 0.36255 0.00854 0.0
O16 O 0.72686 0.37453 0.01109 0.0
Mg17 Mg 0.75567 0.30617 0.0175 0.0
C18 C 0.69473 0.38893 0.00883 0.0
C19 C 0.57819 0.27229 0.01446 0.0
O20 O 0.59023 0.24302 0.05606 0.0
O21 O 0.67726 0.28031 0.90518 0.0
O22 O 0.73671 0.28729 0.91743 0.0
O23 O 0.65911 0.28332 0.11498 0.0
O24 O 0.70729 0.27442 0.0555 0.0
C25 C 0.70915 0.27981 0.88325 0.0
C26 C 0.69321 0.27649 0.11088 0.0
O27 O 0.60018 0.29619 -0.01696 0.0
Mg28 Mg 0.6591 0.71754 -0.00294 0.0
O29 O 0.66793 0.64058 -0.00264 0.0
O30 O 0.72705 0.62859 -0.00457 0.0
Mg31 Mg 0.75586 0.69696 -0.01072 0.0
C32 C 0.69491 0.61419 -0.00265 0.0
C33 C 0.57825 0.73049 -0.00944 0.0
O34 O 0.59022 0.7596 0.94869 0.0
O35 O 0.67711 0.72291 0.10075 0.0
O36 O 0.7366 0.71594 0.08912 0.0
O37 O 0.65961 0.71972 0.89075 0.0
O38 O 0.7076 0.72869 0.95071 0.0
C39 C 0.70893 0.72345 0.12301 0.0
C40 C 0.6937 0.72656 0.89519 0.0
O41 O 0.60028 0.70685 0.02227 0.0
Mg42 Mg 0.31943 0.71745 0.0082 0.0
O43 O 0.31063 0.64047 0.00762 0.0
O44 O 0.25152 0.62845 0.00971 0.0
Mg45 Mg 0.22268 0.69679 0.0163 0.0
C46 C 0.28366 0.61408 0.00759 0.0
C47 C 0.40027 0.73012 0.01514 0.0
O48 O 0.38828 0.75871 0.0577 0.0
O49 O 0.30127 0.72301 0.90458 0.0
O50 O 0.2418 0.71597 0.91644 0.0
O51 O 0.31904 0.71947 0.11452 0.0
O52 O 0.27098 0.7285 0.05477 0.0
C53 C 0.26942 0.72356 0.88246 0.0
C54 C 0.28495 0.72633 0.11023 0.0
O55 O 0.37824 0.70691 -0.0172 0.0
Mg56 Mg 0.81941 0.78571 0.49706 0.0
O57 O 0.81054 0.8627 0.49754 0.0
O58 O 0.75141 0.8746 0.49572 0.0
Mg59 Mg 0.72262 0.80621 0.48944 0.0
C60 C 0.78354 0.88904 0.49764 0.0
C61 C 0.90014 0.77219 0.49069 0.0
O62 O 0.88795 0.74282 0.44937 0.0
O63 O 0.80147 0.78022 0.60079 0.0
O64 O 0.74197 0.78715 0.58922 0.0
O65 O 0.81884 0.78361 0.39076 0.0
O66 O 0.77088 0.77459 0.45075 0.0
C67 C 0.76966 0.77963 0.62307 0.0
C68 C 0.78476 0.77674 0.39522 0.0
O69 O 0.87827 0.79627 0.52208 0.0
Mg70 Mg 0.15898 0.7855 0.50811 0.0
O71 O 0.16758 0.86252 0.50764 0.0
O72 O 0.22667 0.87476 0.50979 0.0
Mg73 Mg 0.25567 0.80653 0.51636 0.0
C74 C 0.19449 0.88901 0.50766 0.0
C75 C 0.0782 0.7719 0.51404 0.0
O76 O 0.09027 0.74264 0.55563 0.0
O77 O 0.17717 0.7801 0.40452 0.0
O78 O 0.23662 0.78733 0.41645 0.0
O79 O 0.15934 0.7834 0.61443 0.0
O80 O 0.20745 0.77462 0.55474 0.0
C81 C 0.20903 0.77967 0.38244 0.0
C82 C 0.19345 0.77669 0.61018 0.0
O83 O 0.10015 0.79586 0.48265 0.0
Mg84 Mg 0.15886 0.21771 0.49649 0.0
O85 O 0.16749 0.1407 0.49608 0.0
O86 O 0.22657 0.12851 0.49318 0.0
Mg87 Mg 0.25553 0.19678 0.48694 0.0
C88 C 0.19441 0.11422 0.49552 0.0
C89 C 0.0781 0.23068 0.49046 0.0
O90 O 0.09008 0.2595 0.4482 0.0
O91 O 0.17745 0.22254 0.59992 0.0
O92 O 0.23686 0.21544 0.58725 0.0
O93 O 0.15883 0.22039 0.3902 0.0
O94 O 0.20715 0.22888 0.44948 0.0
C95 C 0.20939 0.22288 0.62165 0.0
C96 C 0.19296 0.22711 0.39417 0.0
O97 O 0.10013 0.20719 0.5224 0.0
Mg98 Mg 0.81938 0.21765 0.50875 0.0
O99 O 0.81046 0.14069 0.50872 0.0
O100 O 0.75134 0.12881 0.51127 0.0
Mg101 Mg 0.72262 0.19724 0.51755 0.0
C102 C 0.78345 0.11435 0.50906 0.0
C103 C 0.90012 0.23093 0.51429 0.0
O104 O 0.88811 0.26041 0.55561 0.0
O105 O 0.80105 0.22293 0.40522 0.0
O106 O 0.74158 0.21608 0.41747 0.0
O107 O 0.81922 0.21997 0.61504 0.0
O108 O 0.77104 0.22893 0.55552 0.0
C109 C 0.76915 0.2235 0.38329 0.0
C110 C 0.78512 0.22686 0.61091 0.0
O111 O 0.87811 0.20689 0.48312 0.0
C112 C 0.29199 0.47755 -2e-05 0.0
C113 C 0.28953 0.43687 -0.00202 0.0
C114 C 0.29196 0.52536 0.00257 0.0
C115 C 0.28945 0.56603 0.00481 0.0
C116 C 0.4703 0.28013 0.00168 0.0
C117 C 0.43811 0.278 -0.00144 0.0
C118 C 0.50809 0.28007 0.00365 0.0
C119 C 0.54027 0.27787 0.00672 0.0
C120 C 0.68653 0.47766 0.00425 0.0
C121 C 0.68896 0.43698 0.00628 0.0
C122 C 0.68659 0.52547 0.00182 0.0
C123 C 0.68911 0.56614 -0.00018 0.0
C124 C 0.47037 0.72255 0.00387 0.0
C125 C 0.43818 0.72468 0.0071 0.0
C126 C 0.50816 0.72263 0.00169 0.0
C127 C 0.54033 0.72489 -0.00153 0.0
C128 C 0.7917 0.97779 0.50224 0.0
C129 C 0.78927 0.93711 0.50019 0.0
C130 C 0.79166 0.0256 0.50466 0.0
C131 C 0.78918 0.06628 0.50661 0.0
C132 C 0.00808 0.77959 0.50319 0.0
C133 C 0.04027 0.77741 0.5063 0.0
C134 C 0.97029 0.77967 0.50124 0.0
C135 C 0.93809 0.7776 0.49826 0.0
C136 C 0.18602 0.02551 0.50009 0.0
C137 C 0.18854 0.06619 0.49807 0.0
C138 C 0.18605 0.97771 0.50269 0.0
C139 C 0.18859 0.93704 0.50491 0.0
C140 C 0.97022 0.22307 0.50351 0.0
C141 C 0.93803 0.2253 0.50657 0.0
C142 C 0.00801 0.22302 0.50154 0.0
C143 C 0.04019 0.22516 0.49841 0.0
C144 C 0.23225 0.24386 0.29285 0.0
C145 C 0.21417 0.23619 0.33894 0.0
C146 C 0.25085 0.25618 0.23722 0.0
C147 C 0.26249 0.26678 0.18602 0.0
C148 C 0.73266 0.26006 0.21212 0.0
C149 C 0.71452 0.26759 0.16606 0.0
C150 C 0.75127 0.24774 0.26776 0.0
C151 C 0.76285 0.23702 0.31895 0.0
C152 C 0.74509 0.76022 0.29426 0.0
C153 C 0.76329 0.76777 0.34025 0.0
C154 C 0.72652 0.74784 0.23861 0.0
C155 C 0.71504 0.73705 0.18738 0.0
C156 C 0.22681 0.75522 0.26694 0.0
C157 C 0.21527 0.76602 0.31813 0.0
C158 C 0.2454 0.74285 0.21133 0.0
C159 C 0.26357 0.73528 0.16531 0.0
C160 C 0.23304 0.76033 0.71131 0.0
C161 C 0.21485 0.76782 0.66528 0.0
C162 C 0.25166 0.74801 0.76694 0.0
C163 C 0.26321 0.7372 0.81813 0.0
C164 C 0.2461 0.25915 0.79284 0.0
C165 C 0.26417 0.26684 0.83894 0.0
C166 C 0.2275 0.24682 0.7372 0.0
C167 C 0.21586 0.23623 0.68601 0.0
C168 C 0.72705 0.25563 0.76772 0.0
C169 C 0.71546 0.26632 0.81891 0.0
C170 C 0.74567 0.24333 0.71211 0.0
C171 C 0.76382 0.23578 0.66607 0.0
C172 C 0.73342 0.74293 0.79425 0.0
C173 C 0.71518 0.73544 0.84021 0.0
C174 C 0.75206 0.75524 0.73866 0.0
C175 C 0.76357 0.76602 0.68744 0.0
loop_
_geom_bond_atom_site_label_1
_geom_bond_atom_site_label_2
_geom_bond_distance
_geom_bond_site_symmetry_2
_ccdc_geom_bond_type
Mg0 O1 2.028 . S
Mg0 O7 1.986 . S
Mg0 O9 2.114 1_554 S
Mg0 O10 2.251 1_554 S
Mg0 O13 2.010 . S
O1 Mg0 2.028 . S
O1 C4 1.250 . S
O2 Mg3 2.028 . S
O2 C4 1.248 . S
Mg3 O2 2.028 . S
Mg3 O8 2.032 . S
Mg3 O10 2.079 1_554 S
C4 O1 1.250 . S
C4 O2 1.248 . S
C5 O6 1.264 . S
C5 O13 1.249 . S
O6 C5 1.264 . S
O7 Mg0 1.986 . S
O7 C11 1.246 . S
O8 Mg3 2.032 . S
O8 C11 1.259 . S
O9 Mg0 2.114 1_556 S
O9 C12 1.252 . S
O10 Mg0 2.251 1_556 S
O10 Mg3 2.079 1_556 S
O10 C12 1.273 . S
C11 O7 1.246 . S
C11 O8 1.259 . S
C12 O9 1.252 . S
C12 O10 1.273 . S
O13 Mg0 2.010 . S
O13 C5 1.249 . S
Mg14 O15 2.028 . S
Mg14 O21 1.986 1_554 S
Mg14 O23 2.114 . S
Mg14 O24 2.251 . S
Mg14 O27 2.010 . S
O15 Mg14 2.028 . S
O15 C18 1.250 . S
O16 Mg17 2.028 . S
O16 C18 1.248 . S
Mg17 O16 2.028 . S
Mg17 O22 2.032 1_554 S
Mg17 O24 2.079 . S
C18 O15 1.250 . S
C18 O16 1.248 . S
C19 O20 1.264 . S
C19 O27 1.249 . S
O20 C19 1.264 . S
O21 Mg14 1.986 1_556 S
O21 C25 1.246 . S
O22 Mg17 2.032 1_556 S
O22 C25 1.259 . S
O23 Mg14 2.114 . S
O23 C26 1.252 . S
O24 Mg14 2.251 . S
O24 Mg17 2.079 . S
O24 C26 1.273 . S
C25 O21 1.246 . S
C25 O22 1.259 . S
C26 O23 1.252 . S
C26 O24 1.273 . S
O27 Mg14 2.010 . S
O27 C19 1.249 . S
Mg28 O29 2.028 . S
Mg28 O35 1.986 . S
Mg28 O37 2.114 1_554 S
Mg28 O38 2.251 1_554 S
Mg28 O41 2.010 . S
O29 Mg28 2.028 . S
O29 C32 1.250 . S
O30 Mg31 2.028 . S
O30 C32 1.248 . S
Mg31 O30 2.028 . S
Mg31 O36 2.032 . S
Mg31 O38 2.079 1_554 S
C32 O29 1.250 . S
C32 O30 1.248 . S
C33 O34 1.264 . S
C33 O41 1.249 . S
O34 C33 1.264 . S
O35 Mg28 1.986 . S
O35 C39 1.246 . S
O36 Mg31 2.032 . S
O36 C39 1.259 . S
O37 Mg28 2.114 1_556 S
O37 C40 1.252 . S
O38 Mg28 2.251 1_556 S
O38 Mg31 2.079 1_556 S
O38 C40 1.273 . S
C39 O35 1.246 . S
C39 O36 1.259 . S
C40 O37 1.252 . S
C40 O38 1.273 . S
O41 Mg28 2.010 . S
O41 C33 1.249 . S
Mg42 O43 2.028 . S
Mg42 O49 1.986 1_554 S
Mg42 O51 2.114 . S
Mg42 O52 2.251 . S
Mg42 O55 2.010 . S
O43 Mg42 2.028 . S
O43 C46 1.250 . S
O44 Mg45 2.028 . S
O44 C46 1.248 . S
Mg45 O44 2.028 . S
Mg45 O50 2.032 1_554 S
Mg45 O52 2.079 . S
C46 O43 1.250 . S
C46 O44 1.248 . S
C47 O48 1.264 . S
C47 O55 1.249 . S
O48 C47 1.264 . S
O49 Mg42 1.986 1_556 S
O49 C53 1.246 . S
O50 Mg45 2.032 1_556 S
O50 C53 1.259 . S
O51 Mg42 2.114 . S
O51 C54 1.252 . S
O52 Mg42 2.251 . S
O52 Mg45 2.079 . S
O52 C54 1.273 . S
C53 O49 1.246 . S
C53 O50 1.259 . S
C54 O51 1.252 . S
C54 O52 1.273 . S
O55 Mg42 2.010 . S
O55 C47 1.249 . S
Mg56 O57 2.028 . S
Mg56 O63 1.986 . S
Mg56 O65 2.114 . S
Mg56 O66 2.251 . S
Mg56 O69 2.010 . S
O57 Mg56 2.028 . S
O57 C60 1.250 . S
O58 Mg59 2.028 . S
O58 C60 1.248 . S
Mg59 O58 2.028 . S
Mg59 O64 2.032 . S
Mg59 O66 2.079 . S
C60 O57 1.250 . S
C60 O58 1.248 . S
C61 O62 1.264 . S
C61 O69 1.249 . S
O62 C61 1.264 . S
O63 Mg56 1.986 . S
O63 C67 1.246 . S
O64 Mg59 2.032 . S
O64 C67 1.259 . S
O65 Mg56 2.114 . S
O65 C68 1.252 . S
O66 Mg56 2.251 . S
O66 Mg59 2.079 . S
O66 C68 1.273 . S
C67 O63 1.246 . S
C67 O64 1.259 . S
C68 O65 1.252 . S
C68 O66 1.273 . S
O69 Mg56 2.010 . S
O69 C61 1.249 . S
Mg70 O71 2.028 . S
Mg70 O77 1.986 . S
Mg70 O79 2.114 . S
Mg70 O80 2.251 . S
Mg70 O83 2.010 . S
O71 Mg70 2.028 . S
O71 C74 1.250 . S
O72 Mg73 2.028 . S
O72 C74 1.248 . S
Mg73 O72 2.028 . S
Mg73 O78 2.032 . S
Mg73 O80 2.079 . S
C74 O71 1.250 . S
C74 O72 1.248 . S
C75 O76 1.264 . S
C75 O83 1.249 . S
O76 C75 1.264 . S
O77 Mg70 1.986 . S
O77 C81 1.246 . S
O78 Mg73 2.032 . S
O78 C81 1.259 . S
O79 Mg70 2.114 . S
O79 C82 1.252 . S
O80 Mg70 2.251 . S
O80 Mg73 2.079 . S
O80 C82 1.273 . S
C81 O77 1.246 . S
C81 O78 1.259 . S
C82 O79 1.252 . S
C82 O80 1.273 . S
O83 Mg70 2.010 . S
O83 C75 1.249 . S
Mg84 O85 2.028 . S
Mg84 O91 1.986 . S
Mg84 O93 2.114 . S
Mg84 O94 2.251 . S
Mg84 O97 2.010 . S
O85 Mg84 2.028 . S
O85 C88 1.250 . S
O86 Mg87 2.028 . S
O86 C88 1.248 . S
Mg87 O86 2.028 . S
Mg87 O92 2.032 . S
Mg87 O94 2.079 . S
C88 O85 1.250 . S
C88 O86 1.248 . S
C89 O90 1.264 . S
C89 O97 1.249 . S
O90 C89 1.264 . S
O91 Mg84 1.986 . S
O91 C95 1.246 . S
O92 Mg87 2.032 . S
O92 C95 1.259 . S
O93 Mg84 2.114 . S
O93 C96 1.252 . S
O94 Mg84 2.251 . S
O94 Mg87 2.079 . S
O94 C96 1.273 . S
C95 O91 1.246 . S
C95 O92 1.259 . S
C96 O93 1.252 . S
C96 O94 1.273 . S
O97 Mg84 2.010 . S
O97 C89 1.249 . S
Mg98 O99 2.028 . S
Mg98 O105 1.986 . S
Mg98 O107 2.114 . S
Mg98 O108 2.251 . S
Mg98 O111 2.010 . S
O99 Mg98 2.028 . S
O99 C102 1.250 . S
O100 Mg101 2.028 . S
O100 C102 1.248 . S
Mg101 O100 2.028 . S
Mg101 O106 2.032 . S
Mg101 O108 2.079 . S
C102 O99 1.250 . S
C102 O100 1.248 . S
C103 O104 1.264 . S
C103 O111 1.249 . S
O104 C103 1.264 . S
O105 Mg98 1.986 . S
O105 C109 1.246 . S
O106 Mg101 2.032 . S
O106 C109 1.259 . S
O107 Mg98 2.114 . S
O107 C110 1.252 . S
O108 Mg98 2.251 . S
O108 Mg101 2.079 . S
O108 C110 1.273 . S
C109 O105 1.246 . S
C109 O106 1.259 . S
C110 O107 1.252 . S
C110 O108 1.273 . S
O111 Mg98 2.010 . S
O111 C103 1.249 . S
C112 C113 1.170 . S
C112 C114 1.380 . S
C113 C112 1.170 . S
C114 C112 1.380 . S
C114 C115 1.170 . S
C115 C114 1.170 . S
C116 C117 1.170 . S
C116 C118 1.380 . S
C117 C116 1.170 . S
C118 C116 1.380 . S
C118 C119 1.170 . S
C119 C118 1.170 . S
C120 C121 1.170 . S
C120 C122 1.380 . S
C121 C120 1.170 . S
C122 C120 1.380 . S
C122 C123 1.170 . S
C123 C122 1.170 . S
C124 C125 1.170 . S
C124 C126 1.380 . S
C125 C124 1.170 . S
C126 C124 1.380 . S
C126 C127 1.170 . S
C127 C126 1.170 . S
C128 C129 1.170 . S
C128 C130 1.380 1_565 S
C129 C128 1.170 . S
C130 C128 1.380 1_545 S
C130 C131 1.170 . S
C131 C130 1.170 . S
C132 C133 1.170 . S
C132 C134 1.380 1_455 S
C133 C132 1.170 . S
C134 C132 1.380 1_655 S
C134 C135 1.170 . S
C135 C134 1.170 . S
C136 C137 1.170 . S
C136 C138 1.380 1_545 S
C137 C136 1.170 . S
C138 C136 1.380 1_565 S
C138 C139 1.170 . S
C139 C138 1.170 . S
C140 C141 1.170 . S
C140 C142 1.380 1_655 S
C141 C140 1.170 . S
C142 C140 1.380 1_455 S
C142 C143 1.170 . S
C143 C142 1.170 . S
C144 C145 1.170 . S
C144 C146 1.380 . S
C145 C144 1.170 . S
C146 C144 1.380 . S
C146 C147 1.170 . S
C147 C146 1.170 . S
C148 C149 1.170 . S
C148 C150 1.380 . S
C149 C148 1.170 . S
C150 C148 1.380 . S
C150 C151 1.170 . S
C151 C150 1.170 . S
C152 C153 1.170 . S
C152 C154 1.380 . S
C153 C152 1.170 . S
C154 C152 1.380 . S
C154 C155 1.170 . S
C155 C154 1.170 . S
C156 C157 1.170 . S
C156 C158 1.380 . S
C157 C156 1.170 . S
C158 C156 1.380 . S
C158 C159 1.170 . S
C159 C158 1.170 . S
C160 C161 1.170 . S
C160 C162 1.380 . S
C161 C160 1.170 . S
C162 C160 1.380 . S
C162 C163 1.170 . S
C163 C162 1.170 . S
C164 C165 1.170 . S
C164 C166 1.380 . S
C165 C164 1.170 . S
C166 C164 1.380 . S
C166 C167 1.170 . S
C167 C166 1.170 . S
C168 C169 1.170 . S
C168 C170 1.380 . S
C169 C168 1.170 . S
C170 C168 1.380 . S
C170 C171 1.170 . S
C171 C170 1.170 . S
C172 C173 1.170 . S
C172 C174 1.380 . S
C173 C172 1.170 . S
C174 C172 1.380 . S
C174 C175 1.170 . S
C175 C174 1.170 . S
C113 C4 1.471 . S
C115 C46 1.477 . S
C117 C5 1.308 . S
C119 C19 1.290 . S
C121 C18 1.481 . S
C123 C32 1.478 . S
C125 C47 1.340 . S
C127 C33 1.333 . S
C129 C60 1.468 . S
C131 C102 1.462 . S
C133 C75 1.280 . S
C135 C61 1.296 . S
C137 C88 1.477 . S
C139 C74 1.481 . S
C141 C103 1.284 . S
C143 C89 1.301 . S
C145 C96 1.438 . S
C147 C11 1.398 . S
C149 C26 1.436 . S
C151 C109 1.426 . S
C153 C68 1.437 . S
C155 C39 1.426 . S
C157 C81 1.414 . S
C159 C54 1.440 . S
C161 C82 1.438 . S
C163 C53 1.425 . S
C165 C12 1.438 . S
C167 C95 1.398 . S
C169 C25 1.417 . S
C171 C110 1.439 . S
C173 C40 1.438 . S
C175 C67 1.423 . S
