# Generated by pormake.
# Topology pcu, (6)-cn, num edge types: 1
# Building blocks:
#     Node 0, Type 0, BuildingBlock: BETFEN_clean_sbu_0, # of connection points: 6
#     Edge 1, Type (0, 0), BuildingBlock: MIFKUJ_clean_linker_0, # of connection points: 2
#     Edge 2, Type (0, 0), BuildingBlock: MIFKUJ_clean_linker_0, # of connection points: 2
#     Edge 3, Type (0, 0), BuildingBlock: MIFKUJ_clean_linker_0, # of connection points: 2
# Relax obj value: 0.000
# Max RMSD: 0.000
# Mean RMSD: 0.000
data_MOF--net-pcu--node1-BETFEN_clean_sbu_0--edge1-MIFKUJ_clean_linker_0
_symmetry_space_group_name_H-M    P1
_symmetry_Int_Tables_number       1
_symmetry_cell_setting            triclinic
loop_
_symmetry_equiv_pos_as_xyz
'x, y, z'
_cell_length_a     30.044267
_cell_length_b     20.063205
_cell_length_c     19.035207
_cell_angle_alpha  88.12843
_cell_angle_beta   94.386394
_cell_angle_gamma 124.27826
loop_
_atom_site_label
_atom_site_type_symbol
_atom_site_fract_x
_atom_site_fract_y
_atom_site_fract_z
_atom_type_partial_charge
Pr0 Pr 0.96566 0.93957 0.02308 0.0
Pr1 Pr 0.08352 0.03493 0.99399 0.0
C2 C 0.86736 0.88444 0.06755 0.0
C3 C 0.8249 0.9009 0.05765 0.0
C4 C 0.79497 0.88626 0.99269 0.0
C5 C 0.75384 0.89963 0.98523 0.0
C6 C 0.7416 0.92795 0.04245 0.0
C7 C 0.77196 0.94326 0.10717 0.0
C8 C 0.81299 0.92975 0.11461 0.0
C9 C 0.98372 0.95306 0.8797 0.0
C10 C 0.03361 0.13847 1.00628 0.0
C11 C 0.18194 0.0902 0.94986 0.0
C12 C 0.22434 0.07359 0.95971 0.0
C13 C 0.25428 0.08816 0.02466 0.0
C14 C 0.29536 0.07471 0.03207 0.0
C15 C 0.30756 0.04637 0.97481 0.0
C16 C 0.2772 0.03113 0.91011 0.0
C17 C 0.2362 0.04473 0.90271 0.0
C18 C 0.06515 0.02135 0.13735 0.0
C19 C 1.01556 0.83602 0.01055 0.0
O20 O 0.91255 0.93851 0.10244 0.0
O21 O 0.87468 0.85243 0.01463 0.0
O22 O 1.00994 0.00991 0.92426 0.0
O23 O 0.94543 0.88771 0.90791 0.0
O24 O 0.06853 0.13555 0.97098 0.0
O25 O 0.99594 0.07465 0.03922 0.0
O26 O 0.13682 0.0364 0.91469 0.0
O27 O 0.17452 0.1219 1.00292 0.0
O28 O 0.03928 0.96448 0.09278 0.0
O29 O 0.10334 0.08683 0.10916 0.0
O30 O 0.98065 0.83891 0.0459 0.0
O31 O 0.05323 0.89987 0.97766 0.0
H32 H 0.8031 0.86422 0.94754 0.0
H33 H 0.73185 0.88828 0.93436 0.0
H34 H 0.76332 0.96419 0.15262 0.0
H35 H 0.83525 0.9413 0.16524 0.0
H36 H 0.24618 0.11022 0.06983 0.0
H37 H 0.31735 0.08601 0.08293 0.0
H38 H 0.28581 0.0102 0.86464 0.0
H39 H 0.21395 0.03324 0.85208 0.0
H40 H 0.99098 0.88653 0.20744 0.0
H41 H 0.97702 0.87468 0.33369 0.0
H42 H 0.10435 0.12685 0.36427 0.0
H43 H 0.11902 0.13853 0.2386 0.0
H44 H 0.11406 0.0399 0.46459 0.0
H45 H 0.96995 0.05776 0.362 0.0
H46 H 0.89029 0.01944 0.28208 0.0
H47 H 0.80219 0.78267 0.37109 0.0
H48 H 0.88158 0.81931 0.45103 0.0
H49 H 0.05795 0.08771 0.80951 0.0
H50 H 0.07185 0.09941 0.68326 0.0
H51 H 0.94429 0.84732 0.65283 0.0
H52 H 0.92966 0.8358 0.77851 0.0
H53 H 0.93469 0.93411 0.55242 0.0
H54 H 0.07881 0.91636 0.65516 0.0
H55 H 0.15845 0.95478 0.73514 0.0
H56 H 0.24657 0.1914 0.64585 0.0
H57 H 0.16719 0.15468 0.56587 0.0
C58 C 1.01595 0.93934 0.24119 0.0
C59 C 0.0561 0.01343 0.21329 0.0
C60 C 1.00779 0.93264 0.31324 0.0
C61 C 0.0393 0.00011 0.3585 0.0
C62 C 0.07958 0.07397 0.33053 0.0
C63 C 0.08783 0.08061 0.25866 0.0
C64 C 0.03081 -0.00614 0.4351 0.0
C65 C 0.07497 0.01774 0.48378 0.0
C66 C 0.97959 0.96329 0.4603 0.0
C67 C 0.93189 0.94106 0.41205 0.0
C68 C 0.93374 -0.00269 0.36413 0.0
C69 C 0.8886 0.97592 0.3189 0.0
C70 C 0.84124 0.8986 0.32141 0.0
C71 C 0.83892 0.84252 0.36917 0.0
C72 C 0.88395 0.86358 0.4145 0.0
C73 C 0.03292 0.03489 0.77579 0.0
C74 C 0.99271 0.96086 0.80374 0.0
C75 C 0.04104 0.04149 0.70373 0.0
C76 C 1.00946 0.974 0.65852 0.0
C77 C 0.96912 0.90021 0.68654 0.0
C78 C 0.9609 0.89366 0.75841 0.0
C79 C 1.01794 0.98016 0.58192 0.0
C80 C 0.97378 0.95626 0.53324 0.0
C81 C 0.06917 0.01072 0.55672 0.0
C82 C 0.11688 0.03299 0.60497 0.0
C83 C 0.11502 0.9768 0.65298 0.0
C84 C 0.16015 -0.00176 0.69824 0.0
C85 C 0.20752 0.07556 0.69567 0.0
C86 C 0.20985 0.13157 0.64782 0.0
C87 C 0.16482 0.11045 0.60246 0.0
H88 H 0.2425 0.09203 0.73057 0.0
H89 H 0.80625 0.88217 0.28654 0.0
H90 H 0.3091 0.9223 0.92114 0.0
H91 H 0.38276 0.903 0.93218 0.0
H92 H 0.48025 0.12113 0.05752 0.0
H93 H 0.40735 0.14213 0.04497 0.0
H94 H 0.53875 0.11403 0.96157 0.0
H95 H 0.41887 0.93593 0.13354 0.0
H96 H 0.33142 0.82712 0.17627 0.0
H97 H 0.3242 0.65877 0.03433 0.0
H98 H 0.41127 0.76691 0.98994 0.0
H99 H 0.74 0.05199 0.09605 0.0
H100 H 0.66631 0.07122 0.08494 0.0
H101 H 0.56889 0.85305 0.95964 0.0
H102 H 0.64183 0.83212 0.97227 0.0
H103 H 0.51034 0.86013 0.05551 0.0
H104 H 0.63022 0.0382 0.88356 0.0
H105 H 0.71767 0.14701 0.84081 0.0
H106 H 0.72488 0.3154 0.98269 0.0
H107 H 0.63782 0.20726 0.0271 0.0
C108 C 0.34634 0.96655 0.95063 0.0
C109 C 0.35214 0.0337 0.98231 0.0
C110 C 0.3883 0.95503 0.95743 0.0
C111 C 0.43696 0.01014 0.99634 0.0
C112 C 0.44309 0.07762 0.02744 0.0
C113 C 0.40112 0.08913 0.02074 0.0
C114 C 0.48154 -0.00234 1.00437 0.0
C115 C 0.5327 0.05893 0.98301 0.0
C116 C 0.47348 0.92507 0.03086 0.0
C117 C 0.42135 0.85974 0.05791 0.0
C118 C 0.39845 0.87585 0.11105 0.0
C119 C 0.34897 0.81427 0.13562 0.0
C120 C 0.3222 0.73613 0.10789 0.0
C121 C 0.34494 0.71936 0.05568 0.0
C122 C 0.39438 0.78076 0.03083 0.0
C123 C 0.70277 0.00771 0.06656 0.0
C124 C 0.697 0.94057 0.03491 0.0
C125 C 0.66079 0.01919 0.05971 0.0
C126 C 0.61214 0.96405 0.02079 0.0
C127 C 0.60605 0.89658 0.98973 0.0
C128 C 0.64803 0.88511 0.99647 0.0
C129 C 0.56755 0.9765 0.01272 0.0
C130 C 0.51639 0.91522 0.03407 0.0
C131 C 0.57561 0.04909 0.98622 0.0
C132 C 0.62774 0.11442 0.95916 0.0
C133 C 0.65064 0.0983 0.90603 0.0
C134 C 0.70011 0.15987 0.88145 0.0
C135 C 0.72688 0.23802 0.90916 0.0
C136 C 0.70413 0.2548 0.96136 0.0
C137 C 0.65471 0.1934 0.98622 0.0
H138 H 0.7652 0.2856 0.89008 0.0
H139 H 0.28388 0.68855 0.12696 0.0
H140 H 0.97016 0.71004 0.10217 0.0
H141 H 0.97355 0.59066 0.10125 0.0
H142 H 0.06073 0.67501 0.91306 0.0
H143 H 0.05822 0.79457 0.91404 0.0
H144 H 0.97412 0.50746 0.91016 0.0
H145 H 0.13179 0.7036 0.05378 0.0
H146 H 0.18137 0.80323 0.15061 0.0
H147 H 0.08985 0.62001 0.30137 0.0
H148 H 0.03921 0.51942 0.20522 0.0
H149 H 0.07899 0.26437 0.91456 0.0
H150 H 0.07562 0.38377 0.9154 0.0
H151 H 0.98846 0.29958 0.1036 0.0
H152 H 0.99095 0.18 0.10272 0.0
H153 H 0.07509 0.46709 0.10646 0.0
H154 H 0.91741 0.27096 0.96285 0.0
H155 H 0.86782 0.17132 0.86602 0.0
H156 H 0.95937 0.35451 0.71526 0.0
H157 H 1.01002 0.45511 0.8114 0.0
C158 C 0.98965 0.7027 0.06038 0.0
C159 C 1.01416 0.76159 1.00842 0.0
C160 C 0.99171 0.63484 0.06005 0.0
C161 C 1.01764 0.62468 1.00727 0.0
C162 C 0.0406 0.68208 0.95416 0.0
C163 C 0.0393 0.75038 0.95505 0.0
C164 C 1.0222 0.55524 1.00831 0.0
C165 C 0.99666 0.49897 0.95262 0.0
C166 C 0.05096 0.54401 0.06434 0.0
C167 C 0.08129 0.60423 0.12228 0.0
C168 C 0.12188 0.68472 0.10753 0.0
C169 C 0.15026 0.74133 0.16229 0.0
C170 C 0.13864 0.71802 0.23209 0.0
C171 C 0.09873 0.63799 0.24726 0.0
C172 C 0.07021 0.58114 0.19266 0.0
C173 C 0.05951 0.27175 0.95634 0.0
C174 C 0.035 0.21289 1.00833 0.0
C175 C 0.05746 0.33961 0.95662 0.0
C176 C 0.03154 0.34983 0.00939 0.0
C177 C 1.00858 0.29247 0.06252 0.0
C178 C 1.00987 0.22416 0.06168 0.0
C179 C 0.02701 0.4193 1.00831 0.0
C180 C 0.05256 0.47557 0.064 0.0
C181 C 0.99826 0.43054 0.95227 0.0
C182 C 0.96793 0.37031 0.89435 0.0
C183 C 0.92732 0.28982 0.9091 0.0
C184 C 0.89894 0.23322 0.85434 0.0
C185 C 0.91057 0.25651 0.78454 0.0
C186 C 0.95049 0.33653 0.76936 0.0
C187 C 0.97901 0.39339 0.82396 0.0
H188 H 0.88855 0.2126 0.7422 0.0
H189 H 0.16066 0.76193 0.27443 0.0
loop_
_geom_bond_atom_site_label_1
_geom_bond_atom_site_label_2
_geom_bond_distance
_geom_bond_site_symmetry_2
_ccdc_geom_bond_type
Pr0 C2 2.880 . S
Pr0 O20 2.562 1_556 S
Pr0 O21 2.490 . S
Pr0 O22 2.695 1_655 S
Pr0 O23 2.512 . S
Pr0 O25 2.437 1_565 S
Pr0 O28 2.436 1_566 S
Pr0 O30 2.438 . S
Pr1 C11 2.880 . S
Pr1 O22 2.436 1_544 S
Pr1 O24 2.438 . S
Pr1 O26 2.562 1_554 S
Pr1 O27 2.490 . S
Pr1 O28 2.695 1_455 S
Pr1 O29 2.512 . S
Pr1 O31 2.437 1_545 S
C2 Pr0 2.880 . S
C2 C3 1.491 . S
C2 O20 1.254 1_556 S
C2 O21 1.225 . S
C3 C2 1.491 . S
C3 C4 1.392 . S
C3 C8 1.356 1_566 S
C4 C3 1.392 . S
C4 C5 1.368 . S
C4 H32 0.929 . S
C5 C4 1.368 . S
C5 C6 1.398 . S
C5 H33 0.929 . S
C6 C5 1.398 . S
C6 C7 1.362 1_566 S
C7 C6 1.362 1_544 S
C7 C8 1.409 . S
C7 H34 0.931 . S
C8 C3 1.356 1_544 S
C8 C7 1.409 . S
C8 H35 0.930 . S
C9 O22 1.270 1_655 S
C9 O23 1.248 . S
C10 O24 1.267 1_556 S
C10 O25 1.278 1_455 S
C11 Pr1 2.880 . S
C11 C12 1.491 . S
C11 O26 1.254 1_554 S
C11 O27 1.225 . S
C12 C11 1.491 . S
C12 C13 1.392 . S
C12 C17 1.356 1_544 S
C13 C12 1.392 . S
C13 C14 1.368 . S
C13 H36 0.929 . S
C14 C13 1.368 . S
C14 C15 1.386 . S
C14 H37 0.929 . S
C15 C14 1.386 . S
C15 C16 1.373 1_544 S
C16 C15 1.373 1_566 S
C16 C17 1.409 . S
C16 H38 0.931 . S
C17 C12 1.356 1_566 S
C17 C16 1.409 . S
C17 H39 0.930 . S
C18 O28 1.270 1_455 S
C18 O29 1.248 . S
C19 O30 1.267 1_554 S
C19 O31 1.278 1_655 S
O20 Pr0 2.562 1_554 S
O20 C2 1.254 1_554 S
O21 Pr0 2.490 . S
O21 C2 1.225 . S
O22 Pr0 2.695 1_455 S
O22 Pr1 2.436 1_566 S
O22 C9 1.270 1_455 S
O23 Pr0 2.512 . S
O23 C9 1.248 . S
O24 Pr1 2.438 . S
O24 C10 1.267 1_554 S
O25 Pr0 2.437 1_545 S
O25 C10 1.278 1_655 S
O26 Pr1 2.562 1_556 S
O26 C11 1.254 1_556 S
O27 Pr1 2.490 . S
O27 C11 1.225 . S
O28 Pr0 2.436 1_544 S
O28 Pr1 2.695 1_655 S
O28 C18 1.270 1_655 S
O29 Pr1 2.512 . S
O29 C18 1.248 . S
O30 Pr0 2.438 . S
O30 C19 1.267 1_556 S
O31 Pr1 2.437 1_565 S
O31 C19 1.278 1_455 S
H32 C4 0.929 . S
H33 C5 0.929 . S
H34 C7 0.931 . S
H35 C8 0.930 . S
H36 C13 0.929 . S
H37 C14 0.929 . S
H38 C16 0.931 . S
H39 C17 0.930 . S
H40 C58 0.951 . S
H41 C60 0.951 . S
H42 C62 0.950 . S
H43 C63 0.950 . S
H44 C65 0.950 . S
H45 C68 0.950 . S
H46 C69 0.950 . S
H47 C71 0.950 . S
H48 C72 0.950 . S
H49 C73 0.951 . S
H50 C75 0.951 . S
H51 C77 0.950 . S
H52 C78 0.950 . S
H53 C80 0.950 . S
H54 C83 0.950 . S
H55 C84 0.950 . S
H56 C86 0.950 . S
H57 C87 0.950 . S
C58 H40 0.951 . S
C58 C59 1.365 1_665 S
C58 C60 1.388 . S
C59 C58 1.365 1_445 S
C59 C63 1.385 . S
C60 H41 0.951 . S
C60 C58 1.388 . S
C60 C61 1.378 . S
C61 C60 1.378 . S
C61 C62 1.403 1_665 S
C61 C64 1.497 1_565 S
C62 H42 0.950 . S
C62 C61 1.403 1_445 S
C62 C63 1.374 . S
C63 H43 0.950 . S
C63 C59 1.385 . S
C63 C62 1.374 . S
C64 C61 1.497 1_545 S
C64 C65 1.373 1_655 S
C64 C66 1.389 1_545 S
C65 H44 0.950 . S
C65 C64 1.373 1_455 S
C65 C81 1.377 . S
C66 C64 1.389 1_565 S
C66 C67 1.524 . S
C66 C80 1.377 . S
C67 C66 1.524 . S
C67 C68 1.397 . S
C67 C72 1.363 . S
C68 H45 0.950 . S
C68 C67 1.397 . S
C68 C69 1.334 . S
C69 H46 0.950 . S
C69 C68 1.334 . S
C69 C70 1.287 . S
C70 C69 1.287 . S
C70 C71 1.524 . S
C70 H89 0.913 . S
C71 H47 0.950 . S
C71 C70 1.524 . S
C71 C72 1.415 . S
C72 H48 0.950 . S
C72 C67 1.363 . S
C72 C71 1.415 . S
C73 H49 0.951 . S
C73 C74 1.365 . S
C73 C75 1.388 . S
C74 C73 1.365 . S
C74 C78 1.385 1_445 S
C75 H50 0.951 . S
C75 C73 1.388 . S
C75 C76 1.366 . S
C76 C75 1.366 . S
C76 C77 1.414 1_445 S
C76 C79 1.499 1_545 S
C77 H51 0.950 . S
C77 C76 1.414 1_665 S
C77 C78 1.374 . S
C78 H52 0.950 . S
C78 C74 1.385 1_665 S
C78 C77 1.374 . S
C79 C76 1.499 1_565 S
C79 C80 1.373 1_455 S
C79 C81 1.389 1_565 S
C80 H53 0.950 . S
C80 C66 1.377 . S
C80 C79 1.373 1_655 S
C81 C65 1.377 . S
C81 C79 1.389 1_545 S
C81 C82 1.524 . S
C82 C81 1.524 . S
C82 C83 1.397 . S
C82 C87 1.363 . S
C83 H54 0.950 . S
C83 C82 1.397 . S
C83 C84 1.334 . S
C84 H55 0.950 . S
C84 C83 1.334 . S
C84 C85 1.287 . S
C85 C84 1.287 . S
C85 C86 1.524 . S
C85 H88 0.999 . S
C86 H56 0.950 . S
C86 C85 1.524 . S
C86 C87 1.415 . S
C87 H57 0.950 . S
C87 C82 1.363 . S
C87 C86 1.415 . S
H88 C85 0.999 . S
H89 C70 0.913 . S
H90 C108 0.951 . S
H91 C110 0.951 . S
H92 C112 0.950 . S
H93 C113 0.950 . S
H94 C115 0.950 . S
H95 C118 0.950 . S
H96 C119 0.950 . S
H97 C121 0.950 . S
H98 C122 0.950 . S
H99 C123 0.951 . S
H100 C125 0.951 . S
H101 C127 0.950 . S
H102 C128 0.950 . S
H103 C130 0.950 . S
H104 C133 0.950 . S
H105 C134 0.950 . S
H106 C136 0.950 . S
H107 C137 0.950 . S
C108 H90 0.951 . S
C108 C109 1.365 1_566 S
C108 C110 1.388 . S
C109 C108 1.365 1_544 S
C109 C113 1.385 . S
C110 H91 0.951 . S
C110 C108 1.388 . S
C110 C111 1.366 1_556 S
C111 C110 1.366 1_554 S
C111 C112 1.414 1_565 S
C111 C114 1.507 1_565 S
C112 H92 0.950 . S
C112 C111 1.414 1_545 S
C112 C113 1.374 . S
C113 H93 0.950 . S
C113 C109 1.385 . S
C113 C112 1.374 . S
C114 C111 1.507 1_545 S
C114 C115 1.378 1_554 S
C114 C116 1.376 1_545 S
C115 H94 0.950 . S
C115 C114 1.378 1_556 S
C115 C131 1.377 . S
C116 C114 1.376 1_565 S
C116 C117 1.524 . S
C116 C130 1.377 . S
C117 C116 1.524 . S
C117 C118 1.397 . S
C117 C122 1.363 . S
C118 H95 0.950 . S
C118 C117 1.397 . S
C118 C119 1.334 . S
C119 H96 0.950 . S
C119 C118 1.334 . S
C119 C120 1.287 . S
C120 C119 1.287 . S
C120 C121 1.524 . S
C120 H139 0.913 . S
C121 H97 0.950 . S
C121 C120 1.524 . S
C121 C122 1.415 . S
C122 H98 0.950 . S
C122 C117 1.363 . S
C122 C121 1.415 . S
C123 H99 0.951 . S
C123 C124 1.365 . S
C123 C125 1.388 . S
C124 C123 1.365 . S
C124 C128 1.385 1_544 S
C125 H100 0.951 . S
C125 C123 1.388 . S
C125 C126 1.366 1_554 S
C126 C125 1.366 1_556 S
C126 C127 1.414 1_545 S
C126 C129 1.505 1_545 S
C127 H101 0.950 . S
C127 C126 1.414 1_565 S
C127 C128 1.374 . S
C128 H102 0.950 . S
C128 C124 1.385 1_566 S
C128 C127 1.374 . S
C129 C126 1.505 1_565 S
C129 C130 1.377 1_556 S
C129 C131 1.380 1_565 S
C130 H103 0.950 . S
C130 C116 1.377 . S
C130 C129 1.377 1_554 S
C131 C115 1.377 . S
C131 C129 1.380 1_545 S
C131 C132 1.524 . S
C132 C131 1.524 . S
C132 C133 1.397 . S
C132 C137 1.363 . S
C133 H104 0.950 . S
C133 C132 1.397 . S
C133 C134 1.334 . S
C134 H105 0.950 . S
C134 C133 1.334 . S
C134 C135 1.287 . S
C135 C134 1.287 . S
C135 C136 1.524 . S
C135 H138 0.999 . S
C136 H106 0.950 . S
C136 C135 1.524 . S
C136 C137 1.415 . S
C137 H107 0.950 . S
C137 C132 1.363 . S
C137 C136 1.415 . S
H138 C135 0.999 . S
H139 C120 0.913 . S
H140 C158 0.951 . S
H141 C160 0.951 . S
H142 C162 0.950 . S
H143 C163 0.950 . S
H144 C165 0.950 . S
H145 C168 0.950 . S
H146 C169 0.950 . S
H147 C171 0.950 . S
H148 C172 0.950 1_655 S
H149 C173 0.951 . S
H150 C175 0.951 . S
H151 C177 0.950 . S
H152 C178 0.950 . S
H153 C180 0.950 . S
H154 C183 0.950 . S
H155 C184 0.950 . S
H156 C186 0.950 . S
H157 C187 0.950 1_455 S
C158 H140 0.951 . S
C158 C159 1.365 1_655 S
C158 C160 1.388 . S
C159 C158 1.365 1_455 S
C159 C163 1.385 1_554 S
C160 H141 0.951 . S
C160 C158 1.388 . S
C160 C161 1.366 1_655 S
C161 C160 1.366 1_455 S
C161 C162 1.414 1_554 S
C161 C164 1.499 . S
C162 H142 0.950 . S
C162 C161 1.414 1_556 S
C162 C163 1.374 . S
C163 H143 0.950 . S
C163 C159 1.385 1_556 S
C163 C162 1.374 . S
C164 C161 1.499 . S
C164 C165 1.370 1_454 S
C164 C166 1.393 . S
C165 H144 0.950 . S
C165 C164 1.370 1_656 S
C165 C181 1.377 . S
C166 C164 1.393 . S
C166 C167 1.524 . S
C166 C180 1.377 . S
C167 C166 1.524 . S
C167 C168 1.397 . S
C167 C172 1.363 . S
C168 H145 0.950 . S
C168 C167 1.397 . S
C168 C169 1.334 . S
C169 H146 0.950 . S
C169 C168 1.334 . S
C169 C170 1.287 . S
C170 C169 1.287 . S
C170 C171 1.524 . S
C170 H189 0.913 . S
C171 H147 0.950 . S
C171 C170 1.524 . S
C171 C172 1.415 . S
C172 H148 0.950 1_455 S
C172 C167 1.363 . S
C172 C171 1.415 . S
C173 H149 0.951 . S
C173 C174 1.365 1_556 S
C173 C175 1.388 . S
C174 C173 1.365 1_554 S
C174 C178 1.385 1_455 S
C175 H150 0.951 . S
C175 C173 1.388 . S
C175 C176 1.366 1_455 S
C176 C175 1.366 1_655 S
C176 C177 1.414 1_556 S
C176 C179 1.499 . S
C177 H151 0.950 . S
C177 C176 1.414 1_554 S
C177 C178 1.374 . S
C178 H152 0.950 . S
C178 C174 1.385 1_655 S
C178 C177 1.374 . S
C179 C176 1.499 . S
C179 C180 1.373 1_656 S
C179 C181 1.390 . S
C180 H153 0.950 . S
C180 C166 1.377 . S
C180 C179 1.373 1_454 S
C181 C165 1.377 . S
C181 C179 1.390 . S
C181 C182 1.524 . S
C182 C181 1.524 . S
C182 C183 1.397 . S
C182 C187 1.363 . S
C183 H154 0.950 . S
C183 C182 1.397 . S
C183 C184 1.334 . S
C184 H155 0.950 . S
C184 C183 1.334 . S
C184 C185 1.287 . S
C185 C184 1.287 . S
C185 C186 1.524 . S
C185 H188 0.999 . S
C186 H156 0.950 . S
C186 C185 1.524 . S
C186 C187 1.415 . S
C187 H157 0.950 1_655 S
C187 C182 1.363 . S
C187 C186 1.415 . S
H188 C185 0.999 . S
H189 C170 0.913 . S
C59 C18 1.451 . S
C74 C9 1.451 1_445 S
C109 C15 1.500 . S
C124 C6 1.499 1_544 S
C159 C19 1.491 1_455 S
C174 C10 1.491 1_554 S
