# Generated by pormake.
# Topology pcu, (6)-cn, num edge types: 1
# Building blocks:
#     Node 0, Type 0, BuildingBlock: UKALOJ_clean_sbu_0, # of connection points: 6
#     Edge 1, Type (0, 0), BuildingBlock: ZUJKAS_clean_linker_0, # of connection points: 2
#     Edge 2, Type (0, 0), BuildingBlock: ZUJKAS_clean_linker_0, # of connection points: 2
#     Edge 3, Type (0, 0), BuildingBlock: ZUJKAS_clean_linker_0, # of connection points: 2
# Relax obj value: 0.010
# Max RMSD: 0.054
# Mean RMSD: 0.054
data_MOF--net-pcu--node1-UKALOJ_clean_sbu_0--edge1-ZUJKAS_clean_linker_0
_symmetry_space_group_name_H-M    P1
_symmetry_Int_Tables_number       1
_symmetry_cell_setting            triclinic
loop_
_symmetry_equiv_pos_as_xyz
'x, y, z'
_cell_length_a     19.86535
_cell_length_b     19.867615
_cell_length_c     24.716024
_cell_angle_alpha  98.029669
_cell_angle_beta   82.319957
_cell_angle_gamma 99.723209
loop_
_atom_site_label
_atom_site_type_symbol
_atom_site_fract_x
_atom_site_fract_y
_atom_site_fract_z
_atom_type_partial_charge
Zn0 Zn 0.97717 -0.00025 0.06463 0.0
O1 O 0.96818 0.89279 0.06924 0.0
C2 C 0.12388 0.00506 0.02071 0.0
Zn3 Zn -0.00987 0.98514 0.97305 0.0
C4 C 0.97275 0.85316 0.02427 0.0
O5 O 0.9812 0.87869 0.97904 0.0
C6 C -0.00545 0.13173 1.01341 0.0
O7 O 0.88243 0.97472 0.97188 0.0
O8 O 0.86972 0.98964 0.0621 0.0
N9 N 0.00535 0.96372 0.88938 0.0
C10 C -0.01392 0.99 0.84741 0.0
C11 C 0.04109 0.90804 0.81255 0.0
N12 N 0.0396 0.91295 0.86753 0.0
N13 N 0.00811 0.95596 0.79872 0.0
C14 C 0.98123 -0.00511 0.19026 0.0
C15 C 0.92621 0.07685 0.22513 0.0
N16 N 0.96195 0.02116 0.1483 0.0
N17 N 0.92771 0.07194 0.17015 0.0
N18 N 0.9592 0.02894 0.23895 0.0
H19 H -0.00973 0.88865 0.18591 0.0
H20 H 0.05886 0.94649 0.21619 0.0
H21 H 0.05571 0.93609 0.14267 0.0
C22 C 0.02446 0.93864 0.18325 0.0
C23 C 0.94285 0.04625 0.85442 0.0
H24 H 0.9116 0.04879 0.895 0.0
H25 H 0.90845 0.03841 0.82148 0.0
H26 H 0.97704 0.09624 0.85177 0.0
O27 O -0.00088 0.09209 0.96844 0.0
O28 O -0.0139 0.1062 0.05864 0.0
C29 C 0.84342 0.97983 0.01696 0.0
O30 O 0.08488 0.01016 0.0658 0.0
O31 O 0.09758 -0.00475 0.97557 0.0
H32 H -0.00979 0.12945 0.32031 0.0
H33 H -0.00017 0.11644 0.41602 0.0
H34 H 0.955 0.89595 0.37876 0.0
H35 H 0.94497 0.909 0.28312 0.0
H36 H 0.89837 0.05445 0.49033 0.0
H37 H 0.12852 0.92284 0.45746 0.0
H38 H 0.10483 0.96705 0.40548 0.0
H39 H 0.06072 0.88267 0.41698 0.0
C40 C 0.98313 0.07826 0.33258 0.0
C41 C 0.96852 0.02018 0.29413 0.0
C42 C -0.01142 0.07087 0.38711 0.0
C43 C 0.97931 0.00522 0.40424 0.0
C44 C 0.96418 0.94702 0.36602 0.0
H45 H 0.9771 0.85545 0.71736 0.0
H46 H 0.9675 0.86847 0.62165 0.0
C47 C 0.95882 0.95444 0.31137 0.0
C48 C 0.98261 -0.00196 0.46266 0.0
H49 H 0.06897 0.93047 0.54735 0.0
C50 C 0.93583 0.0276 0.50289 0.0
C51 C 0.03148 0.96291 0.4788 0.0
C52 C 0.0847 0.93252 0.43755 0.0
C53 C 0.93586 0.022 0.55888 0.0
C54 C 0.98473 0.98687 0.57502 0.0
C55 C 0.03151 0.95731 0.53479 0.0
C56 C -0.01197 0.97969 0.63344 0.0
C57 C 0.88264 0.05239 0.60013 0.0
C58 C 0.00315 0.03789 0.67165 0.0
C59 C 0.00851 0.03046 0.72631 0.0
C60 C -0.0012 0.96471 0.74355 0.0
C61 C 0.98419 0.90664 0.70509 0.0
C62 C 0.97875 0.91404 0.65056 0.0
H63 H 0.83882 0.06207 0.58021 0.0
H64 H 0.8625 0.01785 0.63219 0.0
H65 H 0.90662 0.10224 0.6207 0.0
H66 H 0.01234 0.08895 0.65892 0.0
H67 H 0.02235 0.0759 0.75456 0.0
H68 H 0.19622 0.01817 0.10945 0.0
H69 H 0.31915 0.01563 0.10857 0.0
H70 H 0.34328 0.99209 0.93127 0.0
H71 H 0.22087 -0.00459 0.93163 0.0
H72 H 0.39106 0.90832 0.06011 0.0
H73 H 0.49644 0.15039 0.97 0.0
H74 H 0.40772 0.13111 0.99833 0.0
H75 H 0.43621 0.0927 0.93072 0.0
C76 C 0.22781 0.01325 0.07026 0.0
C77 C 0.19877 0.00732 0.0206 0.0
C78 C 0.29798 0.01163 0.06986 0.0
C79 C 0.34041 0.00454 0.01988 0.0
C80 C 0.3117 -0.00103 0.9703 0.0
H81 H 0.77108 0.96672 0.92822 0.0
H82 H 0.64815 0.96926 0.9291 0.0
C83 C 0.24161 0.00056 0.97062 0.0
C84 C 0.41413 -7e-05 0.0195 0.0
H85 H 0.57624 0.07657 0.97756 0.0
C86 C 0.43163 0.94529 0.04237 0.0
C87 C 0.46681 0.04808 0.99606 0.0
C88 C 0.45109 0.10926 0.9728 0.0
C89 C 0.50049 0.93681 0.04162 0.0
C90 C 0.55317 0.98496 0.01817 0.0
C91 C 0.53568 0.0396 0.99531 0.0
C92 C 0.62689 0.98035 0.01779 0.0
C93 C 0.51621 0.87562 0.06487 0.0
C94 C 0.65561 0.98592 0.06738 0.0
C95 C 0.7257 0.98433 0.06706 0.0
C96 C 0.76853 0.97757 0.01708 0.0
C97 C 0.73949 0.97163 0.96741 0.0
C98 C 0.66933 0.97326 0.96782 0.0
H99 H 0.47086 0.83449 0.06767 0.0
H100 H 0.55958 0.85378 0.03934 0.0
H101 H 0.5311 0.89218 0.10695 0.0
H102 H 0.62403 -0.0072 0.10641 0.0
H103 H 0.74643 0.98948 0.10605 0.0
H104 H 0.96436 0.78116 0.11255 0.0
H105 H 0.96905 0.65832 0.11045 0.0
H106 H 0.98211 0.63343 0.93342 0.0
H107 H 0.97826 0.75579 0.93493 0.0
H108 H 0.88143 0.54251 0.06494 0.0
H109 H 0.14925 0.55347 0.96349 0.0
H110 H 0.11366 0.62947 0.99451 0.0
H111 H 0.09328 0.58916 0.92771 0.0
C112 C 0.96806 0.74951 0.07319 0.0
C113 C 0.97141 0.77838 0.02391 0.0
C114 C 0.97078 0.67941 0.07208 0.0
C115 C 0.97723 0.6372 0.02173 0.0
C116 C 0.97868 0.66547 0.97263 0.0
H117 H 0.00295 0.20373 0.92513 0.0
H118 H -0.00175 0.32657 0.92722 0.0
C119 C 0.97604 0.73539 0.97366 0.0
C120 C 0.98193 0.56338 0.02036 0.0
H121 H 0.08587 0.44237 0.97273 0.0
C122 C 0.92622 0.5206 0.04507 0.0
C123 C 0.04041 0.53507 0.9942 0.0
C124 C 0.10287 0.57918 0.96886 0.0
C125 C 0.92689 0.44982 0.04348 0.0
C126 C 0.98537 0.4215 0.01731 0.0
C127 C 0.04108 0.46429 0.9926 0.0
C128 C -0.00993 0.34769 0.01595 0.0
C129 C 0.86444 0.40571 0.06881 0.0
C130 C -0.01138 0.31942 0.06504 0.0
C131 C -0.00873 0.2495 0.06402 0.0
C132 C -0.0041 0.2065 1.01377 0.0
C133 C -0.00076 0.23538 0.96448 0.0
C134 C -0.00348 0.30548 0.9656 0.0
H135 H 0.81806 0.43142 0.07419 0.0
H136 H 0.85364 0.35542 0.04316 0.0
H137 H 0.87402 0.39572 0.10997 0.0
H138 H 0.98519 0.35145 0.10425 0.0
H139 H -0.01096 0.2291 0.10274 0.0
loop_
_geom_bond_atom_site_label_1
_geom_bond_atom_site_label_2
_geom_bond_distance
_geom_bond_site_symmetry_2
_ccdc_geom_bond_type
Zn0 O1 2.055 . S
Zn0 O8 2.046 . S
Zn0 N16 2.036 1_565 S
Zn0 O28 2.053 1_565 S
Zn0 O30 2.066 1_665 S
O1 Zn0 2.055 . S
O1 C4 1.259 1_554 S
C2 O30 1.256 1_565 S
C2 O31 1.244 1_554 S
Zn3 O5 2.046 . S
Zn3 O7 2.055 . S
Zn3 N9 2.036 1_655 S
Zn3 O27 2.066 1_665 S
Zn3 O31 2.053 1_655 S
C4 O1 1.259 1_556 S
C4 O5 1.254 . S
O5 Zn3 2.046 . S
O5 C4 1.254 . S
C6 O27 1.256 1_655 S
C6 O28 1.244 1_556 S
O7 Zn3 2.055 . S
O7 C29 1.259 1_556 S
O8 Zn0 2.046 . S
O8 C29 1.254 . S
N9 Zn3 2.036 1_455 S
N9 C10 1.298 1_465 S
N9 N12 1.398 . S
C10 N9 1.298 1_645 S
C10 N13 1.367 1_655 S
C10 C23 1.481 . S
C11 N12 1.299 . S
C11 N13 1.379 1_565 S
N12 N9 1.398 . S
N12 C11 1.299 . S
N13 C10 1.367 1_455 S
N13 C11 1.379 1_545 S
C14 N16 1.298 1_465 S
C14 N18 1.367 1_565 S
C14 C22 1.481 . S
C15 N17 1.299 . S
C15 N18 1.379 1_655 S
N16 Zn0 2.036 1_545 S
N16 C14 1.298 1_645 S
N16 N17 1.398 . S
N17 C15 1.299 . S
N17 N16 1.398 . S
N18 C14 1.367 1_545 S
N18 C15 1.379 1_455 S
H19 C22 0.980 . S
H20 C22 0.981 . S
H21 C22 0.981 . S
C22 C14 1.481 . S
C22 H19 0.980 . S
C22 H20 0.981 . S
C22 H21 0.981 . S
C23 C10 1.481 . S
C23 H24 0.980 . S
C23 H25 0.981 . S
C23 H26 0.981 . S
H24 C23 0.980 . S
H25 C23 0.981 . S
H26 C23 0.981 . S
O27 Zn3 2.066 1_445 S
O27 C6 1.256 1_455 S
O28 Zn0 2.053 1_545 S
O28 C6 1.244 1_554 S
C29 O7 1.259 1_554 S
C29 O8 1.254 . S
O30 Zn0 2.066 1_445 S
O30 C2 1.256 1_545 S
O31 C2 1.244 1_556 S
O31 Zn3 2.053 1_455 S
H32 C40 0.929 . S
H33 C42 0.930 . S
H34 C44 0.930 . S
H35 C47 0.929 . S
H36 C50 0.930 . S
H37 C52 0.960 . S
H38 C52 0.960 . S
H39 C52 0.960 . S
C40 H32 0.929 . S
C40 C41 1.377 . S
C40 C42 1.384 . S
C41 C40 1.377 . S
C41 C47 1.390 1_445 S
C42 H33 0.930 . S
C42 C40 1.384 . S
C42 C43 1.372 . S
C43 C42 1.372 . S
C43 C44 1.400 1_445 S
C43 C48 1.490 . S
C44 H34 0.930 . S
C44 C43 1.400 1_665 S
C44 C47 1.386 . S
H45 C61 0.930 . S
H46 C62 0.931 . S
C47 H35 0.929 . S
C47 C41 1.390 1_665 S
C47 C44 1.386 . S
C48 C43 1.490 . S
C48 C50 1.395 1_455 S
C48 C51 1.403 1_545 S
H49 C55 0.930 . S
C50 H36 0.930 . S
C50 C48 1.395 1_655 S
C50 C53 1.403 . S
C51 C48 1.403 1_565 S
C51 C52 1.524 . S
C51 C55 1.400 . S
C52 H37 0.960 . S
C52 H38 0.960 . S
C52 H39 0.960 . S
C52 C51 1.524 . S
C53 C50 1.403 . S
C53 C54 1.392 1_655 S
C53 C57 1.495 . S
C54 C53 1.392 1_455 S
C54 C55 1.385 1_545 S
C54 C56 1.478 . S
C55 H49 0.930 . S
C55 C51 1.400 . S
C55 C54 1.385 1_565 S
C56 C54 1.478 . S
C56 C58 1.381 . S
C56 C62 1.383 1_445 S
C57 C53 1.495 . S
C57 H63 0.959 . S
C57 H64 0.961 . S
C57 H65 0.960 . S
C58 C56 1.381 . S
C58 C59 1.394 . S
C58 H66 0.930 . S
C59 C58 1.394 . S
C59 C60 1.383 . S
C59 H67 0.929 . S
C60 C59 1.383 . S
C60 C61 1.377 1_445 S
C61 H45 0.930 . S
C61 C60 1.377 1_665 S
C61 C62 1.379 . S
C62 H46 0.931 . S
C62 C56 1.383 1_665 S
C62 C61 1.379 . S
H63 C57 0.959 . S
H64 C57 0.961 . S
H65 C57 0.960 . S
H66 C58 0.930 . S
H67 C59 0.929 . S
H68 C76 0.929 . S
H69 C78 0.930 . S
H70 C80 0.930 . S
H71 C83 0.929 . S
H72 C86 0.930 . S
H73 C88 0.960 . S
H74 C88 0.960 . S
H75 C88 0.960 . S
C76 H68 0.929 . S
C76 C77 1.377 1_545 S
C76 C78 1.384 . S
C77 C76 1.377 1_565 S
C77 C83 1.390 1_554 S
C78 H69 0.930 . S
C78 C76 1.384 . S
C78 C79 1.372 1_545 S
C79 C78 1.372 1_565 S
C79 C80 1.400 1_554 S
C79 C84 1.490 . S
C80 H70 0.930 . S
C80 C79 1.400 1_556 S
C80 C83 1.386 . S
H81 C97 0.930 . S
H82 C98 0.931 . S
C83 H71 0.929 . S
C83 C77 1.390 1_556 S
C83 C80 1.386 . S
C84 C79 1.490 . S
C84 C86 1.395 . S
C84 C87 1.403 1_564 S
H85 C91 0.930 . S
C86 H72 0.930 . S
C86 C84 1.395 . S
C86 C89 1.403 . S
C87 C84 1.403 1_546 S
C87 C88 1.524 . S
C87 C91 1.400 . S
C88 H73 0.960 . S
C88 H74 0.960 . S
C88 H75 0.960 . S
C88 C87 1.524 . S
C89 C86 1.403 . S
C89 C90 1.392 . S
C89 C93 1.495 . S
C90 C89 1.392 . S
C90 C91 1.385 1_564 S
C90 C92 1.478 . S
C91 H85 0.930 . S
C91 C87 1.400 . S
C91 C90 1.385 1_546 S
C92 C90 1.478 . S
C92 C94 1.381 1_565 S
C92 C98 1.383 1_554 S
C93 C89 1.495 . S
C93 H99 0.959 . S
C93 H100 0.961 . S
C93 H101 0.960 . S
C94 C92 1.381 1_545 S
C94 C95 1.394 . S
C94 H102 0.930 . S
C95 C94 1.394 . S
C95 C96 1.383 1_545 S
C95 H103 0.929 . S
C96 C95 1.383 1_565 S
C96 C97 1.377 1_554 S
C97 H81 0.930 . S
C97 C96 1.377 1_556 S
C97 C98 1.379 . S
C98 H82 0.931 . S
C98 C92 1.383 1_556 S
C98 C97 1.379 . S
H99 C93 0.959 . S
H100 C93 0.961 . S
H101 C93 0.960 . S
H102 C94 0.930 . S
H103 C95 0.929 . S
H104 C112 0.929 . S
H105 C114 0.930 . S
H106 C116 0.930 . S
H107 C119 0.929 . S
H108 C122 0.930 . S
H109 C124 0.960 . S
H110 C124 0.960 1_455 S
H111 C124 0.960 . S
C112 H104 0.929 . S
C112 C113 1.377 1_454 S
C112 C114 1.384 . S
C113 C112 1.377 1_656 S
C113 C119 1.390 . S
C114 H105 0.930 . S
C114 C112 1.384 . S
C114 C115 1.372 1_454 S
C115 C114 1.372 1_656 S
C115 C116 1.400 . S
C115 C120 1.490 . S
C116 H106 0.930 . S
C116 C115 1.400 . S
C116 C119 1.386 . S
H117 C133 0.930 . S
H118 C134 0.931 . S
C119 H107 0.929 . S
C119 C113 1.390 . S
C119 C116 1.386 . S
C120 C115 1.490 . S
C120 C122 1.395 1_656 S
C120 C123 1.403 . S
H121 C127 0.930 . S
C122 H108 0.930 . S
C122 C120 1.395 1_454 S
C122 C125 1.403 . S
C123 C120 1.403 . S
C123 C124 1.524 . S
C123 C127 1.400 . S
C124 H109 0.960 . S
C124 H110 0.960 1_655 S
C124 H111 0.960 . S
C124 C123 1.524 . S
C125 C122 1.403 . S
C125 C126 1.392 1_455 S
C125 C129 1.495 . S
C126 C125 1.392 1_655 S
C126 C127 1.385 1_554 S
C126 C128 1.478 . S
C127 H121 0.930 . S
C127 C123 1.400 . S
C127 C126 1.385 1_556 S
C128 C126 1.478 . S
C128 C130 1.381 1_655 S
C128 C134 1.383 1_554 S
C129 C125 1.495 . S
C129 H135 0.959 . S
C129 H136 0.961 1_455 S
C129 H137 0.960 . S
C130 C128 1.381 1_455 S
C130 C131 1.394 . S
C130 H138 0.930 . S
C131 C130 1.394 . S
C131 C132 1.384 1_455 S
C131 H139 0.929 . S
C132 C131 1.384 1_655 S
C132 C133 1.376 1_554 S
C133 H117 0.930 . S
C133 C132 1.376 1_556 S
C133 C134 1.379 . S
C134 H118 0.931 . S
C134 C128 1.383 1_556 S
C134 C133 1.379 . S
H135 C129 0.959 . S
H136 C129 0.961 1_655 S
H137 C129 0.960 . S
H138 C130 0.930 . S
H139 C131 0.929 . S
C41 N18 1.459 . S
C60 N13 1.476 . S
C77 C2 1.495 . S
C96 C29 1.486 . S
C113 C4 1.493 . S
C132 C6 1.494 1_554 S
