# Generated by pormake.
# Topology ukg, (4)-cn, num edge types: 1
# Building blocks:
#     Node 0, Type 0, BuildingBlock: MUDLON_clean_sbu_0, # of connection points: 4
#     Node 1, Type 0, BuildingBlock: MUDLON_clean_sbu_0, # of connection points: 4
#     Node 2, Type 0, BuildingBlock: MUDLON_clean_sbu_0, # of connection points: 4
#     Node 3, Type 0, BuildingBlock: MUDLON_clean_sbu_0, # of connection points: 4
#     Node 4, Type 0, BuildingBlock: MUDLON_clean_sbu_0, # of connection points: 4
#     Node 5, Type 0, BuildingBlock: MUDLON_clean_sbu_0, # of connection points: 4
#     Node 6, Type 0, BuildingBlock: MUDLON_clean_sbu_0, # of connection points: 4
#     Node 7, Type 0, BuildingBlock: MUDLON_clean_sbu_0, # of connection points: 4
#     Edge 8, Type (0, 0), BuildingBlock: OJICUG_clean_linker_0, # of connection points: 2
#     Edge 9, Type (0, 0), BuildingBlock: OJICUG_clean_linker_0, # of connection points: 2
#     Edge 10, Type (0, 0), BuildingBlock: OJICUG_clean_linker_0, # of connection points: 2
#     Edge 11, Type (0, 0), BuildingBlock: OJICUG_clean_linker_0, # of connection points: 2
#     Edge 12, Type (0, 0), BuildingBlock: OJICUG_clean_linker_0, # of connection points: 2
#     Edge 13, Type (0, 0), BuildingBlock: OJICUG_clean_linker_0, # of connection points: 2
#     Edge 14, Type (0, 0), BuildingBlock: OJICUG_clean_linker_0, # of connection points: 2
#     Edge 15, Type (0, 0), BuildingBlock: OJICUG_clean_linker_0, # of connection points: 2
#     Edge 16, Type (0, 0), BuildingBlock: OJICUG_clean_linker_0, # of connection points: 2
#     Edge 17, Type (0, 0), BuildingBlock: OJICUG_clean_linker_0, # of connection points: 2
#     Edge 18, Type (0, 0), BuildingBlock: OJICUG_clean_linker_0, # of connection points: 2
#     Edge 19, Type (0, 0), BuildingBlock: OJICUG_clean_linker_0, # of connection points: 2
#     Edge 20, Type (0, 0), BuildingBlock: OJICUG_clean_linker_0, # of connection points: 2
#     Edge 21, Type (0, 0), BuildingBlock: OJICUG_clean_linker_0, # of connection points: 2
#     Edge 22, Type (0, 0), BuildingBlock: OJICUG_clean_linker_0, # of connection points: 2
#     Edge 23, Type (0, 0), BuildingBlock: OJICUG_clean_linker_0, # of connection points: 2
# Relax obj value: 0.084
# Max RMSD: 0.240
# Mean RMSD: 0.240
data_MOF--net-ukg--node1-MUDLON_clean_sbu_0--edge1-OJICUG_clean_linker_0
_symmetry_space_group_name_H-M    P1
_symmetry_Int_Tables_number       1
_symmetry_cell_setting            triclinic
loop_
_symmetry_equiv_pos_as_xyz
'x, y, z'
_cell_length_a     23.548839
_cell_length_b     23.896821
_cell_length_c     27.455051
_cell_angle_alpha  89.925875
_cell_angle_beta   90.413646
_cell_angle_gamma 89.431677
loop_
_atom_site_label
_atom_site_type_symbol
_atom_site_fract_x
_atom_site_fract_y
_atom_site_fract_z
_atom_type_partial_charge
Mg0 Mg 0.04143 0.69297 0.15662 0.0
C1 C 0.97754 0.66386 0.24867 0.0
O2 O 0.96982 0.71835 0.24925 0.0
C3 C 0.15421 0.73294 0.12501 0.0
O4 O 0.12308 0.73992 0.0855 0.0
C5 C 0.05033 0.59674 0.08814 0.0
O6 O 0.08576 0.58185 0.12313 0.0
O7 O 1.02521 0.64404 0.09108 0.0
O8 O 1.00925 0.64238 0.21617 0.0
O9 O 0.99478 0.77213 0.15884 0.0
C10 C 1.01849 0.81309 0.18015 0.0
O11 O 0.07116 0.80705 0.19549 0.0
O12 O 0.13154 0.71129 0.16237 0.0
Mg13 Mg 0.35685 0.54693 0.66833 0.0
C14 C 0.38744 0.48558 0.76288 0.0
O15 O 0.33226 0.48769 0.76935 0.0
C16 C 0.33288 0.66219 0.63503 0.0
O17 O 0.33011 0.63352 0.59429 0.0
C18 C 0.45181 0.54002 0.59873 0.0
O19 O 0.47462 0.56413 0.63706 0.0
O20 O 0.39955 0.52691 0.60018 0.0
O21 O 0.40861 0.50969 0.72597 0.0
O22 O 0.27034 0.51768 0.67595 0.0
C23 C 0.2549 0.46699 0.67846 0.0
O24 O 0.29248 0.42698 0.67092 0.0
O25 O 0.34724 0.63689 0.67404 0.0
Mg26 Mg 0.50364 0.83429 0.16122 0.0
C27 C 0.55533 0.91221 0.23892 0.0
O28 O 0.53442 0.95247 0.21134 0.0
C29 C 0.38636 0.81061 0.12736 0.0
O30 O 0.41454 0.81195 0.08624 0.0
C31 C 0.49587 0.93761 0.09696 0.0
O32 O 0.45435 0.94898 0.12721 0.0
O33 O 0.52343 0.89181 0.10195 0.0
O34 O 0.54501 0.86167 0.228 0.0
O35 O 0.54315 0.7525 0.15226 0.0
C36 C 0.51899 0.71141 0.17276 0.0
O37 O 0.46835 0.71928 0.19146 0.0
O38 O 0.41262 0.82136 0.16683 0.0
Mg39 Mg 0.19508 0.99622 0.66939 0.0
C40 C 0.16369 0.04696 0.76677 0.0
O41 O 0.21921 0.04944 0.77098 0.0
C42 C 0.24307 0.88813 0.63562 0.0
O43 O 0.24689 0.91939 0.59639 0.0
C44 C 0.0935 0.99695 0.60279 0.0
O45 O 0.07233 0.97361 0.64194 0.0
O46 O 0.14554 1.01101 0.60312 0.0
O47 O 0.14222 0.02317 0.72962 0.0
O48 O 0.27167 0.04645 0.67339 0.0
C49 C 0.31655 0.0245 0.6915 0.0
O50 O 0.31631 0.97121 0.70327 0.0
O51 O 0.22039 0.90887 0.67349 0.0
Mg52 Mg 1.00763 0.33681 0.86941 0.0
C53 C 1.02526 0.21444 0.85707 0.0
O54 O 0.97419 0.22167 0.8384 0.0
C55 C 0.99772 0.43894 0.9342 0.0
O56 O 0.9552 0.44894 0.90407 0.0
C57 C 0.89235 0.30941 0.90416 0.0
O58 O 0.92219 0.30977 0.94479 0.0
O59 O 0.91679 0.32205 0.86455 0.0
O60 O 0.04908 0.25574 0.87777 0.0
O61 O 0.04663 0.36586 0.80253 0.0
C62 C 0.05956 0.41644 0.7942 0.0
O63 O 0.04252 0.4555 0.82453 0.0
O64 O 0.02702 0.39431 0.92889 0.0
Mg65 Mg 0.69102 0.49447 0.36195 0.0
C66 C 0.81198 0.52292 0.33896 0.0
O67 O 0.81154 0.46969 0.32716 0.0
C68 C 0.59091 0.49602 0.42913 0.0
O69 O 0.56857 0.47262 0.39027 0.0
C70 C 0.73911 0.38625 0.39634 0.0
O71 O 0.74334 0.41744 0.43556 0.0
O72 O 0.71621 0.40711 0.3583 0.0
O73 O 0.76748 0.54476 0.35728 0.0
O74 O 0.63681 0.52085 0.30171 0.0
C75 C 0.65754 0.54333 0.26386 0.0
O76 O 0.71297 0.5448 0.25906 0.0
O77 O 0.64303 0.50976 0.42836 0.0
Mg78 Mg 0.5465 0.1927 0.8765 0.0
C79 C 0.52404 0.31319 0.85313 0.0
O80 O 0.57666 0.30717 0.83834 0.0
C81 C 0.55232 0.09482 0.94388 0.0
O82 O 0.58565 0.07859 0.9083 0.0
C83 C 0.66074 0.23053 0.90861 0.0
O84 O 0.63107 0.23624 0.94868 0.0
O85 O 0.63663 0.21045 0.87101 0.0
O86 O 0.50027 0.27211 0.87402 0.0
O87 O 0.51395 0.1428 0.81644 0.0
C88 C 0.48254 0.16467 0.78349 0.0
O89 O 0.47513 0.21921 0.78291 0.0
O90 O 0.52989 0.14348 0.94174 0.0
Mg91 Mg 0.85292 0.04495 0.36493 0.0
C92 C 0.75264 0.96338 0.35429 0.0
O93 O 0.79163 0.92419 0.36016 0.0
C94 C 0.94971 0.03916 0.4339 0.0
O95 O 0.97132 0.06326 0.39528 0.0
C96 C 0.82827 0.16005 0.39779 0.0
O97 O 0.82636 0.13142 0.43863 0.0
O98 O 0.84218 0.13478 0.35887 0.0
O99 O 0.76671 1.01437 0.35804 0.0
O100 O 0.90379 1.00821 0.30722 0.0
C101 C 0.88228 0.98456 0.27002 0.0
O102 O 0.82705 0.98681 0.2632 0.0
O103 O 0.89753 0.02564 0.43289 0.0
C104 C 0.98219 0.53105 0.97635 0.0
C105 C 1.01179 0.47974 0.97311 0.0
H106 H 0.97131 0.60841 1.01479 0.0
C107 C 0.05497 0.46799 1.0073 0.0
H108 H 0.9488 0.54159 0.9505 0.0
C109 C 0.0678 0.5063 0.04418 0.0
C110 C 0.03795 0.55743 0.04767 0.0
H111 H 0.0787 0.42897 1.00585 0.0
H112 H 0.10103 0.49559 0.07013 0.0
C113 C 0.99521 0.56951 1.01313 0.0
C114 C 0.46381 0.50292 0.51362 0.0
C115 C 0.48706 0.52844 0.55519 0.0
H116 H 0.47827 0.47262 0.44135 0.0
C117 C 0.54485 0.54293 0.55501 0.0
H118 H 0.41951 0.49121 0.51253 0.0
C119 C 0.57859 0.53227 0.51427 0.0
C120 C 0.55538 0.50686 0.47264 0.0
H121 H 0.56425 0.56261 0.58641 0.0
H122 H 0.62287 0.54407 0.51542 0.0
C123 C 0.49759 0.49225 0.47281 0.0
C124 C 0.55237 0.96477 0.0235 0.0
C125 C 0.51088 0.9782 0.05823 0.0
H126 H 0.59799 0.99092 0.96046 0.0
C127 C 0.48398 0.031 0.05573 0.0
H128 H 0.57401 0.92457 0.02437 0.0
C129 C 0.49799 0.0693 0.01917 0.0
C130 C 0.53901 0.05558 0.98411 0.0
H131 H 0.45198 0.04285 0.08201 0.0
H132 H 0.47618 0.10941 0.0181 0.0
C133 C 0.56616 1.00293 0.98684 0.0
C134 C 0.96418 1.00262 0.51916 0.0
C135 C 0.98616 0.02806 0.47726 0.0
H136 H 0.98072 0.9728 0.59151 0.0
C137 C 0.04386 0.04291 0.47694 0.0
H138 H 0.91999 0.99063 0.52063 0.0
C139 C 0.07873 0.03268 0.51751 0.0
C140 C 0.05678 1.00735 0.55946 0.0
H141 H 0.0623 0.06255 0.44528 0.0
H142 H 0.12289 0.04475 0.51597 0.0
C143 C 0.99909 0.99238 0.55979 0.0
C144 C 0.24017 0.76919 0.08289 0.0
C145 C 0.21366 0.75266 0.1262 0.0
H146 H 0.31514 0.8005 0.04937 0.0
C147 C 0.24401 0.75661 0.17036 0.0
H148 H 0.218 0.76681 0.04826 0.0
C149 C 0.29973 0.77665 0.17106 0.0
C150 C 0.32636 0.79255 0.12756 0.0
H151 H 0.22464 0.74455 0.2044 0.0
H152 H 0.3222 0.77887 0.20556 0.0
C153 C 0.29591 0.78862 0.08353 0.0
C154 C 0.29869 0.74734 0.67996 0.0
C155 C 0.3133 0.72117 0.6359 0.0
H156 H 0.26415 0.82043 0.71444 0.0
C157 C 0.30544 0.75068 0.59204 0.0
H158 H 0.30394 0.72555 0.71434 0.0
C159 C 0.28293 0.80495 0.59211 0.0
C160 C 0.2671 0.83071 0.636 0.0
H161 H 0.31629 0.7317 0.55748 0.0
H162 H 0.27722 0.82641 0.55762 0.0
C163 C 0.27547 0.80148 0.67998 0.0
C164 C 0.74855 0.25624 0.86237 0.0
C165 C 0.72015 0.25022 0.90695 0.0
H166 H 0.82502 0.28049 0.82636 0.0
C167 C 0.74852 0.26485 0.95022 0.0
H168 H 0.72771 0.24567 0.82836 0.0
C169 C 0.80413 0.28456 0.94909 0.0
C170 C 0.83258 0.29068 0.90461 0.0
H171 H 0.72788 0.26082 0.98516 0.0
H172 H 0.82481 0.29502 0.9832 0.0
C173 C 0.80412 0.27656 0.8612 0.0
C174 C 0.77899 0.30286 0.44023 0.0
C175 C 0.76286 0.32872 0.39621 0.0
H176 H 0.81245 0.22947 0.47515 0.0
C177 C 0.77062 0.29947 0.35232 0.0
H178 H 0.77372 0.32432 0.47465 0.0
C179 C 0.79363 0.24524 0.35256 0.0
C180 C 0.80862 0.21901 0.39674 0.0
H181 H 0.75904 0.31848 0.31777 0.0
H182 H 0.79847 0.22347 0.31824 0.0
C183 C 0.80129 0.24851 0.44051 0.0
C184 C 0.85758 0.61681 0.32961 0.0
C185 C 0.85976 0.55848 0.32334 0.0
H186 H 0.89364 0.69591 0.31151 0.0
C187 C 0.90548 0.53484 0.29758 0.0
H188 H 0.82316 0.63635 0.34952 0.0
C189 C 0.94584 0.56897 0.27564 0.0
C190 C 0.94148 0.62751 0.27912 0.0
H191 H 0.90878 0.49 0.29238 0.0
H192 H 0.97897 0.54949 0.25415 0.0
C193 C 0.89809 0.65097 0.30781 0.0
C194 C 0.48256 0.44619 0.78665 0.0
C195 C 0.42342 0.44767 0.793 0.0
H196 H 0.56079 0.40319 0.80137 0.0
C197 C 0.39862 0.40856 0.82452 0.0
H198 H 0.50309 0.47599 0.76297 0.0
C199 C 0.43176 0.36645 0.84643 0.0
C200 C 0.49038 0.36284 0.83745 0.0
H201 H 0.35318 0.40864 0.83034 0.0
H202 H 0.41099 0.33529 0.86857 0.0
C203 C 0.51567 0.40438 0.80874 0.0
C204 C 0.61181 0.9803 0.28835 0.0
C205 C 0.59924 0.92468 0.27625 0.0
H206 H 0.66944 0.03614 0.32336 0.0
C207 C 0.63337 0.88143 0.29596 0.0
H208 H 0.58614 1.01456 0.27416 0.0
C209 C 0.68155 0.89378 0.32393 0.0
C210 C 0.69633 0.9496 0.33313 0.0
H211 H 0.62476 0.83804 0.2876 0.0
H212 H 0.70859 0.85964 0.33634 0.0
C213 C 0.65965 0.99262 0.31666 0.0
C214 C 0.03402 0.12221 0.81481 0.0
C215 C 0.05882 0.16405 0.84373 0.0
H216 H 0.04769 0.05187 0.76811 0.0
C217 C 0.11743 0.161 0.85359 0.0
H218 H 0.98888 0.12287 0.80693 0.0
C219 C 0.15122 0.12 0.83137 0.0
C220 C 0.12704 0.08146 0.79876 0.0
H221 H 0.13782 0.19228 0.87603 0.0
H222 H 0.19671 0.12087 0.83739 0.0
C223 C 0.06778 0.08143 0.79248 0.0
C224 C 0.11699 0.4851 0.74687 0.0
C225 C 0.10263 0.42937 0.75679 0.0
H226 H 0.17562 0.54075 0.7135 0.0
C227 C 0.13443 0.38611 0.73493 0.0
H228 H 0.09314 0.5194 0.76278 0.0
C229 C 0.18221 0.3983 0.70694 0.0
C230 C 0.19885 0.454 0.69985 0.0
H231 H 0.12442 0.34265 0.74164 0.0
H232 H 0.20754 0.36398 0.69281 0.0
C233 C 0.16437 0.49729 0.71851 0.0
C234 C 0.56138 0.57842 0.23822 0.0
C235 C 0.62049 0.57769 0.23157 0.0
H236 H 0.48264 0.62067 0.22385 0.0
C237 C 0.64429 0.6155 0.19832 0.0
H238 H 0.54158 0.54941 0.26307 0.0
C239 C 0.61044 0.65665 0.17589 0.0
C240 C 0.55214 0.66059 0.18616 0.0
H241 H 0.68963 0.61574 0.192 0.0
H242 H 0.63065 0.68744 0.15298 0.0
C243 C 0.52755 0.61935 0.21565 0.0
C244 C 0.40269 0.15238 0.7237 0.0
C245 C 0.44643 0.12867 0.75243 0.0
H246 H 0.32733 0.13807 0.68158 0.0
C247 C 0.45111 0.07011 0.7554 0.0
H248 H 0.39802 0.19736 0.72038 0.0
C249 C 0.41066 0.03614 0.733 0.0
C250 C 0.36452 0.05997 0.70729 0.0
H251 H 0.48454 0.05045 0.77687 0.0
H252 H 0.41418 0.99124 0.73785 0.0
C253 C 0.36207 0.11838 0.70143 0.0
C254 C 0.92604 0.86595 0.1865 0.0
C255 C 0.98478 0.86255 0.19569 0.0
H256 H 0.84747 0.90775 0.20238 0.0
C257 C 1.01024 0.9041 0.22449 0.0
H258 H 0.90513 0.83477 0.1643 0.0
C259 C 0.97723 0.9457 0.24648 0.0
C260 C 0.91801 0.94694 0.23994 0.0
H261 H 0.05546 0.90309 0.232 0.0
H262 H 0.99793 0.9755 0.27023 0.0
C263 C 0.89298 0.90785 0.20832 0.0
loop_
_geom_bond_atom_site_label_1
_geom_bond_atom_site_label_2
_geom_bond_distance
_geom_bond_site_symmetry_2
_ccdc_geom_bond_type
Mg0 O7 2.141 . S
Mg0 O8 2.048 1_455 S
Mg0 O9 2.048 . S
Mg0 O12 2.141 . S
C1 O2 1.313 . S
C1 O8 1.195 . S
O2 C1 1.313 . S
C3 O4 1.245 . S
C3 O12 1.289 . S
O4 C3 1.245 . S
C5 O6 1.245 . S
C5 O7 1.289 . S
O6 C5 1.245 . S
O7 Mg0 2.141 . S
O7 C5 1.289 . S
O8 Mg0 2.048 1_655 S
O8 C1 1.195 . S
O9 Mg0 2.048 . S
O9 C10 1.195 1_455 S
C10 O9 1.195 1_655 S
C10 O11 1.313 . S
O11 C10 1.313 . S
O12 Mg0 2.141 . S
O12 C3 1.289 . S
Mg13 O20 2.141 . S
Mg13 O21 2.048 . S
Mg13 O22 2.048 . S
Mg13 O25 2.141 . S
C14 O15 1.313 . S
C14 O21 1.195 . S
O15 C14 1.313 . S
C16 O17 1.245 . S
C16 O25 1.289 . S
O17 C16 1.245 . S
C18 O19 1.245 . S
C18 O20 1.289 . S
O19 C18 1.245 . S
O20 Mg13 2.141 . S
O20 C18 1.289 . S
O21 Mg13 2.048 . S
O21 C14 1.195 . S
O22 Mg13 2.048 . S
O22 C23 1.195 . S
C23 O22 1.195 . S
C23 O24 1.313 . S
O24 C23 1.313 . S
O25 Mg13 2.141 . S
O25 C16 1.289 . S
Mg26 O33 2.141 . S
Mg26 O34 2.048 . S
Mg26 O35 2.048 . S
Mg26 O38 2.141 . S
C27 O28 1.313 . S
C27 O34 1.195 . S
O28 C27 1.313 . S
C29 O30 1.245 . S
C29 O38 1.289 . S
O30 C29 1.245 . S
C31 O32 1.245 . S
C31 O33 1.289 . S
O32 C31 1.245 . S
O33 Mg26 2.141 . S
O33 C31 1.289 . S
O34 Mg26 2.048 . S
O34 C27 1.195 . S
O35 Mg26 2.048 . S
O35 C36 1.195 . S
C36 O35 1.195 . S
C36 O37 1.313 . S
O37 C36 1.313 . S
O38 Mg26 2.141 . S
O38 C29 1.289 . S
Mg39 O46 2.141 . S
Mg39 O47 2.048 1_565 S
Mg39 O48 2.048 . S
Mg39 O51 2.141 . S
C40 O41 1.313 . S
C40 O47 1.195 . S
O41 C40 1.313 . S
C42 O43 1.245 . S
C42 O51 1.289 . S
O43 C42 1.245 . S
C44 O45 1.245 . S
C44 O46 1.289 . S
O45 C44 1.245 . S
O46 Mg39 2.141 . S
O46 C44 1.289 . S
O47 Mg39 2.048 1_545 S
O47 C40 1.195 . S
O48 Mg39 2.048 . S
O48 C49 1.195 1_565 S
C49 O48 1.195 1_545 S
C49 O50 1.313 . S
O50 C49 1.313 . S
O51 Mg39 2.141 . S
O51 C42 1.289 . S
Mg52 O59 2.141 . S
Mg52 O60 2.048 . S
Mg52 O61 2.048 1_655 S
Mg52 O64 2.141 . S
C53 O54 1.313 . S
C53 O60 1.195 1_455 S
O54 C53 1.313 . S
C55 O56 1.245 . S
C55 O64 1.289 . S
O56 C55 1.245 . S
C57 O58 1.245 . S
C57 O59 1.289 . S
O58 C57 1.245 . S
O59 Mg52 2.141 . S
O59 C57 1.289 . S
O60 Mg52 2.048 . S
O60 C53 1.195 1_655 S
O61 Mg52 2.048 1_455 S
O61 C62 1.195 . S
C62 O61 1.195 . S
C62 O63 1.313 . S
O63 C62 1.313 . S
O64 Mg52 2.141 . S
O64 C55 1.289 . S
Mg65 O72 2.141 . S
Mg65 O73 2.048 . S
Mg65 O74 2.048 . S
Mg65 O77 2.141 . S
C66 O67 1.313 . S
C66 O73 1.195 . S
O67 C66 1.313 . S
C68 O69 1.245 . S
C68 O77 1.289 . S
O69 C68 1.245 . S
C70 O71 1.245 . S
C70 O72 1.289 . S
O71 C70 1.245 . S
O72 Mg65 2.141 . S
O72 C70 1.289 . S
O73 Mg65 2.048 . S
O73 C66 1.195 . S
O74 Mg65 2.048 . S
O74 C75 1.195 . S
C75 O74 1.195 . S
C75 O76 1.313 . S
O76 C75 1.313 . S
O77 Mg65 2.141 . S
O77 C68 1.289 . S
Mg78 O85 2.141 . S
Mg78 O86 2.048 . S
Mg78 O87 2.048 . S
Mg78 O90 2.141 . S
C79 O80 1.313 . S
C79 O86 1.195 . S
O80 C79 1.313 . S
C81 O82 1.245 . S
C81 O90 1.289 . S
O82 C81 1.245 . S
C83 O84 1.245 . S
C83 O85 1.289 . S
O84 C83 1.245 . S
O85 Mg78 2.141 . S
O85 C83 1.289 . S
O86 Mg78 2.048 . S
O86 C79 1.195 . S
O87 Mg78 2.048 . S
O87 C88 1.195 . S
C88 O87 1.195 . S
C88 O89 1.313 . S
O89 C88 1.313 . S
O90 Mg78 2.141 . S
O90 C81 1.289 . S
Mg91 O98 2.141 . S
Mg91 O99 2.048 . S
Mg91 O100 2.048 1_545 S
Mg91 O103 2.141 . S
C92 O93 1.313 . S
C92 O99 1.195 1_565 S
O93 C92 1.313 . S
C94 O95 1.245 . S
C94 O103 1.289 . S
O95 C94 1.245 . S
C96 O97 1.245 . S
C96 O98 1.289 . S
O97 C96 1.245 . S
O98 Mg91 2.141 . S
O98 C96 1.289 . S
O99 Mg91 2.048 . S
O99 C92 1.195 1_545 S
O100 Mg91 2.048 1_565 S
O100 C101 1.195 . S
C101 O100 1.195 . S
C101 O102 1.313 . S
O102 C101 1.313 . S
O103 Mg91 2.141 . S
O103 C94 1.289 . S
C104 C105 1.387 1_554 S
C104 H108 0.950 . S
C104 C113 1.390 . S
C105 C104 1.387 1_556 S
C105 C107 1.387 1_655 S
H106 C113 0.950 . S
C107 C105 1.387 1_455 S
C107 C109 1.390 . S
C107 H111 0.950 . S
H108 C104 0.950 . S
C109 C107 1.390 . S
C109 C110 1.387 1_556 S
C109 H112 0.950 . S
C110 C109 1.387 1_554 S
C110 C113 1.387 1_455 S
H111 C107 0.950 . S
H112 C109 0.950 . S
C113 C104 1.390 . S
C113 H106 0.950 . S
C113 C110 1.387 1_655 S
C114 C115 1.387 . S
C114 H118 0.950 . S
C114 C123 1.390 . S
C115 C114 1.387 . S
C115 C117 1.387 . S
H116 C123 0.950 . S
C117 C115 1.387 . S
C117 C119 1.390 . S
C117 H121 0.950 . S
H118 C114 0.950 . S
C119 C117 1.390 . S
C119 C120 1.387 . S
C119 H122 0.950 . S
C120 C119 1.387 . S
C120 C123 1.387 . S
H121 C117 0.950 . S
H122 C119 0.950 . S
C123 C114 1.390 . S
C123 H116 0.950 . S
C123 C120 1.387 . S
C124 C125 1.387 1_545 S
C124 H128 0.950 . S
C124 C133 1.390 1_554 S
C125 C124 1.387 1_565 S
C125 C127 1.387 . S
H126 C133 0.950 . S
C127 C125 1.387 . S
C127 C129 1.390 1_554 S
C127 H131 0.950 . S
H128 C124 0.950 . S
C129 C127 1.390 1_556 S
C129 C130 1.387 1_565 S
C129 H132 0.950 . S
C130 C129 1.387 1_545 S
C130 C133 1.387 . S
H131 C127 0.950 . S
H132 C129 0.950 . S
C133 C124 1.390 1_556 S
C133 H126 0.950 . S
C133 C130 1.387 . S
C134 C135 1.387 . S
C134 H138 0.950 . S
C134 C143 1.390 1_655 S
C135 C134 1.387 . S
C135 C137 1.387 1_545 S
H136 C143 0.950 . S
C137 C135 1.387 1_565 S
C137 C139 1.390 1_655 S
C137 H141 0.950 . S
H138 C134 0.950 . S
C139 C137 1.390 1_455 S
C139 C140 1.387 . S
C139 H142 0.950 . S
C140 C139 1.387 . S
C140 C143 1.387 1_565 S
H141 C137 0.950 . S
H142 C139 0.950 . S
C143 C134 1.390 1_455 S
C143 H136 0.950 . S
C143 C140 1.387 1_545 S
C144 C145 1.387 . S
C144 H148 0.950 . S
C144 C153 1.390 . S
C145 C144 1.387 . S
C145 C147 1.387 . S
H146 C153 0.950 . S
C147 C145 1.387 . S
C147 C149 1.390 . S
C147 H151 0.950 . S
H148 C144 0.950 . S
C149 C147 1.390 . S
C149 C150 1.387 . S
C149 H152 0.950 . S
C150 C149 1.387 . S
C150 C153 1.387 . S
H151 C147 0.950 . S
H152 C149 0.950 . S
C153 C144 1.390 . S
C153 H146 0.950 . S
C153 C150 1.387 . S
C154 C155 1.387 . S
C154 H158 0.950 . S
C154 C163 1.390 . S
C155 C154 1.387 . S
C155 C157 1.387 . S
H156 C163 0.950 . S
C157 C155 1.387 . S
C157 C159 1.390 . S
C157 H161 0.950 . S
H158 C154 0.950 . S
C159 C157 1.390 . S
C159 C160 1.387 . S
C159 H162 0.950 . S
C160 C159 1.387 . S
C160 C163 1.387 . S
H161 C157 0.950 . S
H162 C159 0.950 . S
C163 C154 1.390 . S
C163 H156 0.950 . S
C163 C160 1.387 . S
C164 C165 1.387 . S
C164 H168 0.950 . S
C164 C173 1.390 . S
C165 C164 1.387 . S
C165 C167 1.387 . S
H166 C173 0.950 . S
C167 C165 1.387 . S
C167 C169 1.390 . S
C167 H171 0.950 . S
H168 C164 0.950 . S
C169 C167 1.390 . S
C169 C170 1.387 . S
C169 H172 0.950 . S
C170 C169 1.387 . S
C170 C173 1.387 . S
H171 C167 0.950 . S
H172 C169 0.950 . S
C173 C164 1.390 . S
C173 H166 0.950 . S
C173 C170 1.387 . S
C174 C175 1.387 . S
C174 H178 0.950 . S
C174 C183 1.390 . S
C175 C174 1.387 . S
C175 C177 1.387 . S
H176 C183 0.950 . S
C177 C175 1.387 . S
C177 C179 1.390 . S
C177 H181 0.950 . S
H178 C174 0.950 . S
C179 C177 1.390 . S
C179 C180 1.387 . S
C179 H182 0.950 . S
C180 C179 1.387 . S
C180 C183 1.387 . S
H181 C177 0.950 . S
H182 C179 0.950 . S
C183 C174 1.390 . S
C183 H176 0.950 . S
C183 C180 1.387 . S
C184 C185 1.387 . S
C184 H188 0.950 . S
C184 C193 1.390 . S
C185 C184 1.387 . S
C185 C187 1.387 . S
H186 C193 0.950 . S
C187 C185 1.387 . S
C187 C189 1.390 . S
C187 H191 0.950 . S
H188 C184 0.950 . S
C189 C187 1.390 . S
C189 C190 1.387 . S
C189 H192 0.950 . S
C190 C189 1.387 . S
C190 C193 1.387 . S
H191 C187 0.950 . S
H192 C189 0.950 . S
C193 C184 1.390 . S
C193 H186 0.950 . S
C193 C190 1.387 . S
C194 C195 1.387 . S
C194 H198 0.950 . S
C194 C203 1.390 . S
C195 C194 1.387 . S
C195 C197 1.387 . S
H196 C203 0.950 . S
C197 C195 1.387 . S
C197 C199 1.390 . S
C197 H201 0.950 . S
H198 C194 0.950 . S
C199 C197 1.390 . S
C199 C200 1.387 . S
C199 H202 0.950 . S
C200 C199 1.387 . S
C200 C203 1.387 . S
H201 C197 0.950 . S
H202 C199 0.950 . S
C203 C194 1.390 . S
C203 H196 0.950 . S
C203 C200 1.387 . S
C204 C205 1.387 . S
C204 H208 0.950 . S
C204 C213 1.390 . S
C205 C204 1.387 . S
C205 C207 1.387 . S
H206 C213 0.950 1_545 S
C207 C205 1.387 . S
C207 C209 1.390 . S
C207 H211 0.950 . S
H208 C204 0.950 . S
C209 C207 1.390 . S
C209 C210 1.387 . S
C209 H212 0.950 . S
C210 C209 1.387 . S
C210 C213 1.387 . S
H211 C207 0.950 . S
H212 C209 0.950 . S
C213 C204 1.390 . S
C213 H206 0.950 1_565 S
C213 C210 1.387 . S
C214 C215 1.387 . S
C214 H218 0.950 . S
C214 C223 1.390 . S
C215 C214 1.387 . S
C215 C217 1.387 . S
H216 C223 0.950 . S
C217 C215 1.387 . S
C217 C219 1.390 . S
C217 H221 0.950 . S
H218 C214 0.950 . S
C219 C217 1.390 . S
C219 C220 1.387 . S
C219 H222 0.950 . S
C220 C219 1.387 . S
C220 C223 1.387 . S
H221 C217 0.950 . S
H222 C219 0.950 . S
C223 C214 1.390 . S
C223 H216 0.950 . S
C223 C220 1.387 . S
C224 C225 1.387 . S
C224 H228 0.950 . S
C224 C233 1.390 . S
C225 C224 1.387 . S
C225 C227 1.387 . S
H226 C233 0.950 . S
C227 C225 1.387 . S
C227 C229 1.390 . S
C227 H231 0.950 . S
H228 C224 0.950 . S
C229 C227 1.390 . S
C229 C230 1.387 . S
C229 H232 0.950 . S
C230 C229 1.387 . S
C230 C233 1.387 . S
H231 C227 0.950 . S
H232 C229 0.950 . S
C233 C224 1.390 . S
C233 H226 0.950 . S
C233 C230 1.387 . S
C234 C235 1.387 . S
C234 H238 0.950 . S
C234 C243 1.390 . S
C235 C234 1.387 . S
C235 C237 1.387 . S
H236 C243 0.950 . S
C237 C235 1.387 . S
C237 C239 1.390 . S
C237 H241 0.950 . S
H238 C234 0.950 . S
C239 C237 1.390 . S
C239 C240 1.387 . S
C239 H242 0.950 . S
C240 C239 1.387 . S
C240 C243 1.387 . S
H241 C237 0.950 . S
H242 C239 0.950 . S
C243 C234 1.390 . S
C243 H236 0.950 . S
C243 C240 1.387 . S
C244 C245 1.387 . S
C244 H248 0.950 . S
C244 C253 1.390 . S
C245 C244 1.387 . S
C245 C247 1.387 . S
H246 C253 0.950 1_565 S
C247 C245 1.387 . S
C247 C249 1.390 . S
C247 H251 0.950 . S
H248 C244 0.950 . S
C249 C247 1.390 . S
C249 C250 1.387 . S
C249 H252 0.950 . S
C250 C249 1.387 . S
C250 C253 1.387 . S
H251 C247 0.950 . S
H252 C249 0.950 . S
C253 C244 1.390 . S
C253 H246 0.950 1_545 S
C253 C250 1.387 . S
C254 C255 1.387 . S
C254 H258 0.950 . S
C254 C263 1.390 . S
C255 C254 1.387 . S
C255 C257 1.387 . S
H256 C263 0.950 . S
C257 C255 1.387 . S
C257 C259 1.390 . S
C257 H261 0.950 . S
H258 C254 0.950 . S
C259 C257 1.390 . S
C259 C260 1.387 . S
C259 H262 0.950 . S
C260 C259 1.387 . S
C260 C263 1.387 . S
H261 C257 0.950 . S
H262 C259 0.950 . S
C263 C254 1.390 . S
C263 H256 0.950 . S
C263 C260 1.387 . S
C105 C55 1.807 . S
C110 C5 1.807 . S
C115 C18 1.805 . S
C120 C68 1.805 . S
C125 C31 1.804 . S
C130 C81 1.804 . S
C135 C94 1.807 . S
C140 C44 1.807 . S
C145 C3 1.851 . S
C150 C29 1.851 . S
C155 C16 1.851 . S
C160 C42 1.851 . S
C165 C83 1.851 . S
C170 C57 1.851 . S
C175 C70 1.851 . S
C180 C96 1.851 . S
C185 C66 1.488 . S
C190 C1 1.552 . S
C195 C14 1.552 . S
C200 C79 1.485 . S
C205 C27 1.553 . S
C210 C92 1.487 . S
C215 C53 1.485 . S
C220 C40 1.552 . S
C225 C62 1.552 . S
C230 C23 1.487 . S
C235 C75 1.552 . S
C240 C36 1.488 . S
C245 C88 1.552 . S
C250 C49 1.486 . S
C255 C10 1.486 . S
C260 C101 1.552 . S
