# Generated by pormake.
# Topology vmv, (8)-cn, num edge types: 1
# Building blocks:
#     Node 0, Type 0, BuildingBlock: TAGTUT_clean_sbu_1, # of connection points: 8
#     Node 1, Type 0, BuildingBlock: TAGTUT_clean_sbu_1, # of connection points: 8
#     Node 2, Type 0, BuildingBlock: TAGTUT_clean_sbu_1, # of connection points: 8
#     Node 3, Type 0, BuildingBlock: TAGTUT_clean_sbu_1, # of connection points: 8
#     Edge 4, Type (0, 0), None
#     Edge 5, Type (0, 0), None
#     Edge 6, Type (0, 0), None
#     Edge 7, Type (0, 0), None
#     Edge 8, Type (0, 0), None
#     Edge 9, Type (0, 0), None
#     Edge 10, Type (0, 0), None
#     Edge 11, Type (0, 0), None
#     Edge 12, Type (0, 0), None
#     Edge 13, Type (0, 0), None
#     Edge 14, Type (0, 0), None
#     Edge 15, Type (0, 0), None
#     Edge 16, Type (0, 0), None
#     Edge 17, Type (0, 0), None
#     Edge 18, Type (0, 0), None
#     Edge 19, Type (0, 0), None
# Relax obj value: 0.353
# Max RMSD: 0.301
# Mean RMSD: 0.289
data_MOF--net-vmv--node1-TAGTUT_clean_sbu_1--edge1-none
_symmetry_space_group_name_H-M    P1
_symmetry_Int_Tables_number       1
_symmetry_cell_setting            triclinic
loop_
_symmetry_equiv_pos_as_xyz
'x, y, z'
_cell_length_a     8.1445858
_cell_length_b     16.310764
_cell_length_c     16.686574
_cell_angle_alpha  88.134032
_cell_angle_beta   109.79863
_cell_angle_gamma 88.586983
loop_
_atom_site_label
_atom_site_type_symbol
_atom_site_fract_x
_atom_site_fract_y
_atom_site_fract_z
_atom_type_partial_charge
C0 C 0.25512 0.05038 0.77218 0.0
C1 C 0.69884 0.25876 0.92174 0.0
C2 C 0.23079 0.48699 0.78337 0.0
Mg3 Mg 0.49175 0.17526 0.73093 0.0
O4 O 0.28891 0.23269 0.74272 0.0
Mg5 Mg 0.2572 0.26718 0.84877 0.0
Mg6 Mg 0.31216 0.33949 0.69995 0.0
O7 O 0.3988 0.43902 0.64511 0.0
Mg8 Mg 0.2792 0.53693 0.6384 0.0
Mg9 Mg 0.33674 0.37578 0.5206 0.0
C10 C 0.32934 0.24 0.53986 0.0
C11 C 0.71158 0.32323 0.67135 0.0
O12 O 0.20777 0.11158 0.81139 0.0
O13 O 0.38415 0.05827 0.74557 0.0
O14 O 0.556 0.26177 0.93731 0.0
O15 O 0.69872 0.22979 0.84975 0.0
O16 O 0.44773 0.18661 0.58306 0.0
O17 O 0.25717 0.28093 0.58133 0.0
C18 C 0.8903 0.3167 0.70424 0.0
O19 O 0.98722 0.33993 0.66111 0.0
O20 O 0.96337 0.28902 0.78041 0.0
O21 O 0.38192 0.47121 0.43209 0.0
O22 O 0.29147 0.55123 0.5108 0.0
O23 O 0.05241 0.42634 0.46671 0.0
C24 C 0.41717 0.51679 0.49364 0.0
O25 O 0.13477 0.44009 0.59889 0.0
O26 O 0.13497 0.4823 0.70816 0.0
C27 C 0.03142 0.46138 0.52923 0.0
O28 O 0.31487 0.41948 0.82467 0.0
O29 O 0.6214 0.3245 0.72233 0.0
O30 O 0.63362 0.33045 0.59011 0.0
C31 C 0.78123 0.76477 0.6063 0.0
C32 C 0.2216 0.57498 0.80945 0.0
C33 C 0.125 0.74602 0.05721 0.0
Mg34 Mg 0.14339 0.76927 0.73277 0.0
O35 O 0.96144 0.77518 0.78397 0.0
Mg36 Mg 0.87723 0.68112 0.8341 0.0
Mg37 Mg 0.07069 0.83147 0.88567 0.0
O38 O 0.1992 0.89454 0.98603 0.0
Mg39 Mg 0.21383 0.90086 0.10893 0.0
Mg40 Mg 0.19868 1.00145 0.91268 0.0
C41 C 0.16617 0.96569 0.75881 0.0
C42 C 0.47632 0.84549 0.88147 0.0
O43 O 0.73943 0.72515 0.66737 0.0
O44 O 0.94095 0.77727 0.61736 0.0
O45 O 0.084 0.58844 0.82674 0.0
O46 O 0.27308 0.63509 0.77131 0.0
O47 O 0.23095 0.90446 0.72998 0.0
O48 O 0.06073 0.94863 0.7977 0.0
C49 C 0.63152 0.81801 0.87327 0.0
O50 O 0.7655 0.8629 0.88468 0.0
O51 O 0.6443 0.74481 0.85383 0.0
O52 O 0.32603 0.05615 0.03036 0.0
O53 O 0.4543 0.93833 0.09346 0.0
O54 O 0.15764 0.07169 0.02703 0.0
C55 C 0.44178 1.00129 0.04293 0.0
O56 O 0.10607 0.01084 0.13346 0.0
O57 O 0.02386 0.80316 0.06303 0.0
C58 C 0.05466 0.03243 0.05548 0.0
O59 O 0.09753 0.71602 0.98129 0.0
O60 O 0.35609 0.79554 0.88062 0.0
O61 O 0.44468 0.92159 0.88687 0.0
C62 C 0.58088 0.49712 0.56039 0.0
C63 C 0.96925 0.54668 0.52159 0.0
C64 C 0.67532 0.76881 0.51067 0.0
Mg65 Mg 0.71785 0.47138 0.41574 0.0
O66 O 0.59907 0.56983 0.40577 0.0
Mg67 Mg 0.66343 0.63415 0.53007 0.0
Mg68 Mg 0.69066 0.66859 0.34998 0.0
O69 O 0.71366 0.77529 0.30785 0.0
Mg70 Mg 0.51187 0.83351 0.31984 0.0
Mg71 Mg 0.74419 0.74201 0.20156 0.0
C72 C 0.7582 0.52051 0.26856 0.0
C73 C 0.11158 0.69228 0.34542 0.0
O74 O 0.61525 0.54219 0.62227 0.0
O75 O 0.70694 0.46254 0.54375 0.0
O76 O 0.94642 0.58163 0.58379 0.0
O77 O 0.86765 0.56781 0.45149 0.0
O78 O 0.85428 0.52637 0.34347 0.0
O79 O 0.68954 0.58886 0.22377 0.0
C80 C 0.29031 0.68633 0.37832 0.0
O81 O 0.38075 0.68384 0.32744 0.0
O82 O 0.36793 0.68073 0.45964 0.0
O83 O 0.79382 0.89744 0.237 0.0
O84 O 0.61977 0.95006 0.30449 0.0
O85 O 0.44556 0.74782 0.11366 0.0
C86 C 0.7472 0.95828 0.2768 0.0
O87 O 0.30296 0.78035 0.20111 0.0
O88 O 0.55705 0.82235 0.46772 0.0
C89 C 0.30269 0.7514 0.12913 0.0
O90 O 0.74609 0.72731 0.46885 0.0
O91 O 0.01507 0.66841 0.38858 0.0
O92 O 0.03818 0.72019 0.26936 0.0
C93 C 0.55719 0.01611 1.00137 0.0
C94 C 0.95131 0.97726 0.99783 0.0
C95 C 0.83581 0.04286 0.2902 0.0
Mg96 Mg 0.79529 0.11057 0.94231 0.0
O97 O 0.80564 0.11668 0.06473 0.0
Mg98 Mg 0.79552 0.01008 0.13578 0.0
Mg99 Mg 0.93167 0.17892 0.16527 0.0
O100 O 0.04039 0.23449 0.26706 0.0
Mg101 Mg 0.85972 0.23854 0.31873 0.0
Mg102 Mg 0.12326 0.32935 0.21744 0.0
C103 C 0.87701 0.26533 0.99336 0.0
C104 C 0.36972 0.19318 0.1781 0.0
O105 O 0.67164 0.96082 1.01493 0.0
O106 O 0.54604 0.0782 0.95019 0.0
O107 O 0.84566 0.93947 0.0256 0.0
O108 O 0.90064 0.99918 0.91993 0.0
O109 O 0.98102 0.20986 0.98661 0.0
O110 O 0.90433 0.29461 0.06965 0.0
C111 C 0.52418 0.16513 0.16981 0.0
O112 O 0.64537 0.21447 0.17039 0.0
O113 O 0.55343 0.08889 0.16415 0.0
O114 O 0.2634 0.28513 0.38369 0.0
O115 O 0.06445 0.22976 0.43345 0.0
O116 O 0.91482 0.4218 0.22542 0.0
C117 C 0.2235 0.24385 0.44437 0.0
O118 O 0.72756 0.37179 0.28058 0.0
O119 O 0.77172 0.10363 0.3199 0.0
C120 C 0.77667 0.43305 0.24294 0.0
O121 O 0.94179 0.0603 0.25172 0.0
O122 O 0.23579 0.1484 0.16671 0.0
O123 O 0.35718 0.26646 0.19739 0.0
loop_
_geom_bond_atom_site_label_1
_geom_bond_atom_site_label_2
_geom_bond_distance
_geom_bond_site_symmetry_2
_ccdc_geom_bond_type
C0 O12 1.241 . S
C0 O13 1.280 . S
C1 O14 1.277 . S
C1 O15 1.245 . S
C2 O26 1.247 . S
C2 O28 1.289 . S
Mg3 O4 1.926 . S
Mg3 O13 1.984 . S
Mg3 O15 1.988 . S
Mg3 O16 2.061 . S
O4 Mg3 1.926 . S
O4 Mg5 1.986 . S
O4 Mg6 1.917 . S
Mg5 O4 1.986 . S
Mg5 O12 2.042 . S
Mg5 O14 2.041 . S
Mg5 O20 2.038 1_455 S
Mg5 O28 2.238 . S
Mg6 O4 1.917 . S
Mg6 O7 1.917 . S
Mg6 O17 2.106 . S
Mg6 O19 2.079 . S
Mg6 O28 2.106 . S
Mg6 O29 2.079 . S
O7 Mg6 1.917 . S
O7 Mg8 1.926 . S
O7 Mg9 1.986 . S
Mg8 O7 1.926 . S
Mg8 O22 1.984 . S
Mg8 O25 1.988 1_455 S
Mg8 O26 2.061 . S
Mg9 O7 1.986 . S
Mg9 O17 2.238 . S
Mg9 O21 2.042 . S
Mg9 O23 2.041 . S
Mg9 O30 2.038 . S
C10 O16 1.247 . S
C10 O17 1.289 . S
C11 O29 1.245 . S
C11 O30 1.274 . S
O12 C0 1.241 . S
O12 Mg5 2.042 . S
O13 C0 1.280 . S
O13 Mg3 1.984 . S
O14 C1 1.277 . S
O14 Mg5 2.041 . S
O15 C1 1.245 . S
O15 Mg3 1.988 . S
O16 Mg3 2.061 . S
O16 C10 1.247 . S
O17 Mg6 2.106 . S
O17 Mg9 2.238 . S
O17 C10 1.289 . S
C18 O19 1.245 1_655 S
C18 O20 1.274 . S
O19 Mg6 2.079 . S
O19 C18 1.245 1_455 S
O20 Mg5 2.038 1_655 S
O20 C18 1.274 . S
O21 Mg9 2.042 . S
O21 C24 1.241 . S
O22 Mg8 1.984 . S
O22 C24 1.280 . S
O23 Mg9 2.041 . S
O23 C27 1.277 1_455 S
C24 O21 1.241 . S
C24 O22 1.280 . S
O25 Mg8 1.988 1_655 S
O25 C27 1.245 . S
O26 C2 1.247 . S
O26 Mg8 2.061 . S
C27 O23 1.277 1_655 S
C27 O25 1.245 . S
O28 C2 1.289 . S
O28 Mg5 2.238 . S
O28 Mg6 2.106 . S
O29 Mg6 2.079 . S
O29 C11 1.245 . S
O30 Mg9 2.038 . S
O30 C11 1.274 . S
C31 O43 1.241 . S
C31 O44 1.280 . S
C32 O45 1.277 . S
C32 O46 1.245 . S
C33 O57 1.247 1_556 S
C33 O59 1.289 . S
Mg34 O35 1.926 . S
Mg34 O44 1.984 1_455 S
Mg34 O46 1.988 . S
Mg34 O47 2.061 . S
O35 Mg34 1.926 . S
O35 Mg36 1.986 . S
O35 Mg37 1.917 . S
Mg36 O35 1.986 . S
Mg36 O43 2.042 1_455 S
Mg36 O45 2.041 . S
Mg36 O51 2.038 1_455 S
Mg36 O59 2.238 . S
Mg37 O35 1.917 . S
Mg37 O38 1.917 . S
Mg37 O48 2.106 . S
Mg37 O50 2.079 1_455 S
Mg37 O59 2.106 . S
Mg37 O60 2.079 . S
O38 Mg37 1.917 . S
O38 Mg39 1.926 1_556 S
O38 Mg40 1.986 . S
Mg39 O38 1.926 1_554 S
Mg39 O53 1.984 . S
Mg39 O56 1.988 . S
Mg39 O57 2.061 . S
Mg40 O38 1.986 . S
Mg40 O48 2.238 . S
Mg40 O52 2.042 1_566 S
Mg40 O54 2.041 1_565 S
Mg40 O61 2.038 . S
C41 O47 1.247 . S
C41 O48 1.289 . S
C42 O60 1.245 . S
C42 O61 1.274 . S
O43 C31 1.241 . S
O43 Mg36 2.042 1_655 S
O44 C31 1.280 . S
O44 Mg34 1.984 1_655 S
O45 C32 1.277 . S
O45 Mg36 2.041 . S
O46 C32 1.245 . S
O46 Mg34 1.988 . S
O47 Mg34 2.061 . S
O47 C41 1.247 . S
O48 Mg37 2.106 . S
O48 Mg40 2.238 . S
O48 C41 1.289 . S
C49 O50 1.245 . S
C49 O51 1.274 . S
O50 Mg37 2.079 1_655 S
O50 C49 1.245 . S
O51 Mg36 2.038 1_655 S
O51 C49 1.274 . S
O52 Mg40 2.042 1_544 S
O52 C55 1.241 1_545 S
O53 Mg39 1.984 . S
O53 C55 1.280 . S
O54 Mg40 2.041 1_545 S
O54 C58 1.277 . S
C55 O52 1.241 1_565 S
C55 O53 1.280 . S
O56 Mg39 1.988 . S
O56 C58 1.245 1_564 S
O57 C33 1.247 1_554 S
O57 Mg39 2.061 . S
C58 O54 1.277 . S
C58 O56 1.245 1_546 S
O59 C33 1.289 . S
O59 Mg36 2.238 . S
O59 Mg37 2.106 . S
O60 Mg37 2.079 . S
O60 C42 1.245 . S
O61 Mg40 2.038 . S
O61 C42 1.274 . S
C62 O74 1.241 . S
C62 O75 1.280 . S
C63 O76 1.277 1_455 S
C63 O77 1.245 . S
C64 O88 1.247 . S
C64 O90 1.289 . S
Mg65 O66 1.926 . S
Mg65 O75 1.984 . S
Mg65 O77 1.988 1_655 S
Mg65 O78 2.061 . S
O66 Mg65 1.926 . S
O66 Mg67 1.986 . S
O66 Mg68 1.917 . S
Mg67 O66 1.986 . S
Mg67 O74 2.042 . S
Mg67 O76 2.041 . S
Mg67 O82 2.038 . S
Mg67 O90 2.238 . S
Mg68 O66 1.917 . S
Mg68 O69 1.917 . S
Mg68 O79 2.106 . S
Mg68 O81 2.079 . S
Mg68 O90 2.106 . S
Mg68 O91 2.079 . S
O69 Mg68 1.917 . S
O69 Mg70 1.926 . S
O69 Mg71 1.986 . S
Mg70 O69 1.926 . S
Mg70 O84 1.984 . S
Mg70 O87 1.988 . S
Mg70 O88 2.061 . S
Mg71 O69 1.986 . S
Mg71 O79 2.238 . S
Mg71 O83 2.042 . S
Mg71 O85 2.041 . S
Mg71 O92 2.038 1_655 S
C72 O78 1.247 . S
C72 O79 1.289 . S
C73 O91 1.245 1_455 S
C73 O92 1.274 . S
O74 C62 1.241 . S
O74 Mg67 2.042 . S
O75 C62 1.280 . S
O75 Mg65 1.984 . S
O76 C63 1.277 1_655 S
O76 Mg67 2.041 . S
O77 C63 1.245 . S
O77 Mg65 1.988 1_455 S
O78 Mg65 2.061 . S
O78 C72 1.247 . S
O79 Mg68 2.106 . S
O79 Mg71 2.238 . S
O79 C72 1.289 . S
C80 O81 1.245 . S
C80 O82 1.274 . S
O81 Mg68 2.079 . S
O81 C80 1.245 . S
O82 Mg67 2.038 . S
O82 C80 1.274 . S
O83 Mg71 2.042 . S
O83 C86 1.241 . S
O84 Mg70 1.984 . S
O84 C86 1.280 . S
O85 Mg71 2.041 . S
O85 C89 1.277 . S
C86 O83 1.241 . S
C86 O84 1.280 . S
O87 Mg70 1.988 . S
O87 C89 1.245 . S
O88 C64 1.247 . S
O88 Mg70 2.061 . S
C89 O85 1.277 . S
C89 O87 1.245 . S
O90 C64 1.289 . S
O90 Mg67 2.238 . S
O90 Mg68 2.106 . S
O91 Mg68 2.079 . S
O91 C73 1.245 1_655 S
O92 Mg71 2.038 1_455 S
O92 C73 1.274 . S
C93 O105 1.241 1_545 S
C93 O106 1.280 . S
C94 O107 1.277 . S
C94 O108 1.245 1_564 S
C95 O119 1.247 . S
C95 O121 1.289 . S
Mg96 O97 1.926 1_556 S
Mg96 O106 1.984 . S
Mg96 O108 1.988 . S
Mg96 O109 2.061 . S
O97 Mg96 1.926 1_554 S
O97 Mg98 1.986 . S
O97 Mg99 1.917 . S
Mg98 O97 1.986 . S
Mg98 O105 2.042 1_544 S
Mg98 O107 2.041 1_545 S
Mg98 O113 2.038 . S
Mg98 O121 2.238 . S
Mg99 O97 1.917 . S
Mg99 O100 1.917 . S
Mg99 O110 2.106 . S
Mg99 O112 2.079 . S
Mg99 O121 2.106 . S
Mg99 O122 2.079 1_655 S
O100 Mg99 1.917 . S
O100 Mg101 1.926 . S
O100 Mg102 1.986 . S
Mg101 O100 1.926 . S
Mg101 O115 1.984 1_655 S
Mg101 O118 1.988 . S
Mg101 O119 2.061 . S
Mg102 O100 1.986 . S
Mg102 O110 2.238 . S
Mg102 O114 2.042 1_655 S
Mg102 O116 2.041 . S
Mg102 O123 2.038 1_655 S
C103 O109 1.247 1_554 S
C103 O110 1.289 . S
C104 O122 1.245 . S
C104 O123 1.274 . S
O105 C93 1.241 1_565 S
O105 Mg98 2.042 1_566 S
O106 C93 1.280 . S
O106 Mg96 1.984 . S
O107 C94 1.277 . S
O107 Mg98 2.041 1_565 S
O108 C94 1.245 1_546 S
O108 Mg96 1.988 . S
O109 Mg96 2.061 . S
O109 C103 1.247 1_556 S
O110 Mg99 2.106 . S
O110 Mg102 2.238 . S
O110 C103 1.289 . S
C111 O112 1.245 . S
C111 O113 1.274 . S
O112 Mg99 2.079 . S
O112 C111 1.245 . S
O113 Mg98 2.038 . S
O113 C111 1.274 . S
O114 Mg102 2.042 1_455 S
O114 C117 1.241 . S
O115 Mg101 1.984 1_455 S
O115 C117 1.280 . S
O116 Mg102 2.041 . S
O116 C120 1.277 . S
C117 O114 1.241 . S
C117 O115 1.280 . S
O118 Mg101 1.988 . S
O118 C120 1.245 . S
O119 C95 1.247 . S
O119 Mg101 2.061 . S
C120 O116 1.277 . S
C120 O118 1.245 . S
O121 C95 1.289 . S
O121 Mg98 2.238 . S
O121 Mg99 2.106 . S
O122 Mg99 2.079 1_455 S
O122 C104 1.245 . S
O123 Mg102 2.038 1_455 S
O123 C104 1.274 . S
C63 C27 1.608 1_455 S
C93 C55 2.674 1_546 S
C62 C24 2.638 . S
C94 C58 1.923 1_664 S
C1 C103 2.666 1_556 S
C64 C31 3.217 . S
C33 C89 2.666 1_556 S
C117 C10 3.217 . S
C18 C11 2.048 . S
C42 C49 2.035 . S
C73 C80 2.048 . S
C104 C111 2.035 . S
C0 C41 3.263 1_545 S
C2 C32 2.630 . S
C86 C95 3.263 1_565 S
C120 C72 2.630 . S
