# Generated by pormake.
# Topology sxa, (6)-cn, num edge types: 1
# Building blocks:
#     Node 0, Type 0, BuildingBlock: JUFBIX_clean_sbu_0, # of connection points: 6
#     Node 1, Type 0, BuildingBlock: JUFBIX_clean_sbu_0, # of connection points: 6
#     Node 2, Type 0, BuildingBlock: JUFBIX_clean_sbu_0, # of connection points: 6
#     Node 3, Type 0, BuildingBlock: JUFBIX_clean_sbu_0, # of connection points: 6
#     Edge 4, Type (0, 0), BuildingBlock: AJUNOK_clean_linker_0, # of connection points: 2
#     Edge 5, Type (0, 0), BuildingBlock: AJUNOK_clean_linker_0, # of connection points: 2
#     Edge 6, Type (0, 0), BuildingBlock: AJUNOK_clean_linker_0, # of connection points: 2
#     Edge 7, Type (0, 0), BuildingBlock: AJUNOK_clean_linker_0, # of connection points: 2
#     Edge 8, Type (0, 0), BuildingBlock: AJUNOK_clean_linker_0, # of connection points: 2
#     Edge 9, Type (0, 0), BuildingBlock: AJUNOK_clean_linker_0, # of connection points: 2
#     Edge 10, Type (0, 0), BuildingBlock: AJUNOK_clean_linker_0, # of connection points: 2
#     Edge 11, Type (0, 0), BuildingBlock: AJUNOK_clean_linker_0, # of connection points: 2
#     Edge 12, Type (0, 0), BuildingBlock: AJUNOK_clean_linker_0, # of connection points: 2
#     Edge 13, Type (0, 0), BuildingBlock: AJUNOK_clean_linker_0, # of connection points: 2
#     Edge 14, Type (0, 0), BuildingBlock: AJUNOK_clean_linker_0, # of connection points: 2
#     Edge 15, Type (0, 0), BuildingBlock: AJUNOK_clean_linker_0, # of connection points: 2
# Relax obj value: 0.462
# Max RMSD: 0.309
# Mean RMSD: 0.309
data_MOF--net-sxa--node1-JUFBIX_clean_sbu_0--edge1-AJUNOK_clean_linker_0
_symmetry_space_group_name_H-M    P1
_symmetry_Int_Tables_number       1
_symmetry_cell_setting            triclinic
loop_
_symmetry_equiv_pos_as_xyz
'x, y, z'
_cell_length_a     21.603369
_cell_length_b     19.475706
_cell_length_c     12.092342
_cell_angle_alpha  91.215949
_cell_angle_beta   69.463668
_cell_angle_gamma 86.811727
loop_
_atom_site_label
_atom_site_type_symbol
_atom_site_fract_x
_atom_site_fract_y
_atom_site_fract_z
_atom_type_partial_charge
Co0 Co 0.03194 0.80383 0.1586 0.0
C1 C 0.04112 0.93349 0.21398 0.0
Co2 Co 0.0608 0.80156 0.31088 0.0
C3 C 0.96585 0.75843 1.01421 0.0
C4 C 0.02279 0.84259 0.93683 0.0
N5 N 0.01082 0.79922 1.02612 0.0
N6 N 0.94146 0.78016 0.93222 0.0
C7 C 0.9796 0.83105 0.87885 0.0
H8 H 0.94097 0.7236 0.08207 0.0
H9 H 0.05368 0.88561 0.92538 0.0
C10 C 0.05201 0.67242 0.21573 0.0
N11 N 0.09458 0.80286 0.43928 0.0
C12 C 0.15435 0.82193 0.44044 0.0
C13 C 0.06869 0.77173 0.54261 0.0
N14 N 0.1669 0.8031 0.53884 0.0
C15 C 0.11255 0.7716 0.60302 0.0
C16 C 0.92548 0.80578 0.38178 0.0
O17 O 0.0484 0.71294 0.1398 0.0
O18 O 0.05311 0.69743 0.31481 0.0
O19 O 0.97319 0.81726 0.41612 0.0
O20 O 0.93861 0.7934 0.27024 0.0
O21 O 0.06923 0.90666 0.28348 0.0
H22 H 0.02223 0.74729 0.56986 0.0
H23 H 0.19004 0.84511 0.36689 0.0
O24 O 0.01286 0.89464 0.16679 0.0
O25 O 0.12411 0.81487 1.05891 0.0
O26 O 0.14398 0.78499 0.21647 0.0
C27 C 0.16493 0.79836 0.1099 0.0
H28 H 0.96851 0.86588 0.81862 0.0
H29 H 0.1056 0.74829 0.68667 0.0
Co30 Co 0.54077 0.30586 0.15199 0.0
C31 C 0.5479 0.4351 0.2115 0.0
Co32 Co 0.56829 0.30329 0.30436 0.0
C33 C 0.47156 0.26477 1.01208 0.0
C34 C 0.5311 0.34677 0.93245 0.0
N35 N 0.51953 0.3023 1.02005 0.0
N36 N 0.44488 0.29023 0.93565 0.0
C37 C 0.48465 0.33944 0.88005 0.0
H38 H 0.44669 0.23019 0.0802 0.0
H39 H 0.56364 0.38845 0.92013 0.0
C40 C 0.56006 0.17431 0.20803 0.0
N41 N 0.60213 0.3043 0.43235 0.0
C42 C 0.66504 0.31385 0.42891 0.0
C43 C 0.57034 0.28707 0.54464 0.0
N44 N 0.67395 0.30174 0.53292 0.0
C45 C 0.61366 0.28582 0.60596 0.0
C46 C 0.43307 0.30845 0.37585 0.0
O47 O 0.55811 0.21484 0.13094 0.0
O48 O 0.5593 0.19946 0.3083 0.0
O49 O 0.48118 0.31947 0.4091 0.0
O50 O 0.44628 0.29494 0.26454 0.0
O51 O 0.57687 0.40825 0.2795 0.0
H52 H 0.51923 0.27411 0.5795 0.0
H53 H 0.7047 0.32671 0.34994 0.0
O54 O 0.52101 0.39608 0.16215 0.0
O55 O 0.63322 0.31808 1.05195 0.0
O56 O 0.65156 0.28609 0.20947 0.0
C57 C 0.67347 0.29987 0.10325 0.0
H58 H 0.47332 0.37621 0.82293 0.0
H59 H 0.60121 0.27359 0.69763 0.0
Co60 Co 0.03472 0.30391 0.84524 0.0
C61 C 0.04799 0.42879 0.94878 0.0
Co62 Co 0.0698 0.2941 0.98902 0.0
C63 C 0.93224 0.29673 0.73277 0.0
C64 C 0.02404 0.32739 0.61221 0.0
N65 N 0.99567 0.30779 0.72415 0.0
N66 N 0.91996 0.30891 0.63157 0.0
C67 C 0.97828 0.32807 0.55583 0.0
H68 H 0.89489 0.28256 0.81369 0.0
H69 H 0.07459 0.34176 0.57406 0.0
C70 C 0.0557 0.16807 0.92401 0.0
N71 N 0.09715 0.29136 0.11454 0.0
C72 C 0.14566 0.32835 0.12198 0.0
C73 C 0.08882 0.24354 0.19649 0.0
N74 N 0.17472 0.30058 0.19343 0.0
C75 C 0.13725 0.24886 0.24494 0.0
C76 C 0.93574 0.30261 1.05404 0.0
O77 O 0.02464 0.19921 0.86324 0.0
O78 O 0.08811 0.20312 0.96854 0.0
O79 O 0.97931 0.2815 0.09628 0.0
O80 O 0.95323 0.31992 0.94936 0.0
O81 O 0.05442 0.38523 1.01873 0.0
H82 H 0.05668 0.20162 0.20725 0.0
H83 H 0.16848 0.36546 1.05691 0.0
O84 O 0.04358 0.40756 0.84989 0.0
O85 O 0.12126 0.2888 0.73027 0.0
O86 O 0.16086 0.30614 0.87153 0.0
C87 C 0.17104 0.29748 0.76038 0.0
H88 H 0.98751 0.34201 0.46552 0.0
H89 H 0.15132 0.21002 0.29605 0.0
Co90 Co 0.52746 0.8048 0.84967 0.0
C91 C 0.54129 0.93011 0.95399 0.0
Co92 Co 0.56237 0.79556 0.99201 0.0
C93 C 0.42643 0.79565 0.73324 0.0
C94 C 0.51411 0.84022 0.62402 0.0
N95 N 0.4886 0.81012 0.72837 0.0
N96 N 0.41193 0.81701 0.63806 0.0
C97 C 0.46781 0.84425 0.56882 0.0
H98 H 0.39102 0.77301 0.80807 0.0
H99 H 0.56256 0.86053 0.59181 0.0
C100 C 0.54998 0.66883 0.92644 0.0
N101 N 0.58872 0.79128 0.11808 0.0
C102 C 0.64055 0.82362 0.12199 0.0
C103 C 0.57956 0.74172 0.19721 0.0
N104 N 0.67094 0.79044 0.18656 0.0
C105 C 0.63099 0.74068 0.239 0.0
C106 C 0.42821 0.80198 1.05486 0.0
O107 O 0.51686 0.6993 0.86823 0.0
O108 O 0.58254 0.70503 0.96849 0.0
O109 O 0.47174 0.78096 0.09722 0.0
O110 O 0.44593 0.82169 0.95177 0.0
O111 O 0.5459 0.88655 1.02527 0.0
H112 H 0.54518 0.70194 0.20795 0.0
H113 H 0.66401 0.86094 1.05788 0.0
O114 O 0.53784 0.90861 0.85441 0.0
O115 O 0.61372 0.78879 0.7359 0.0
O116 O 0.65375 0.80873 0.8757 0.0
C117 C 0.66375 0.7977 0.76514 0.0
H118 H 0.47474 0.86649 0.48437 0.0
H119 H 0.6443 0.69857 0.28488 0.0
C120 C 0.99057 0.52923 0.082 0.0
C121 C 0.04883 0.50039 0.99367 0.0
C122 C 0.99229 0.5779 0.16947 0.0
C123 C 0.05244 0.5996 0.17573 0.0
H124 H 0.94301 0.51205 0.08624 0.0
H125 H 0.94567 0.60177 0.22916 0.0
S126 S 0.2196 0.53892 0.96812 0.0
N127 N 0.16883 0.49619 0.92148 0.0
N128 N 0.17199 0.58799 0.08288 0.0
C129 C 0.11095 0.57041 0.08884 0.0
C130 C 0.10917 0.5215 0.99909 0.0
C131 C 0.60496 0.50939 1.04662 0.0
C132 C 0.55464 0.50421 0.15822 0.0
C133 C 0.59878 0.55644 0.96251 0.0
C134 C 0.54106 0.60023 0.98251 0.0
H135 H 0.64846 0.47396 1.02082 0.0
H136 H 0.64109 0.56054 0.88217 0.0
S137 S 0.3939 0.60788 0.26019 0.0
N138 N 0.44415 0.54703 0.28218 0.0
N139 N 0.43321 0.6357 0.12738 0.0
C140 C 0.49026 0.59507 0.09352 0.0
C141 C 0.49688 0.54765 0.17963 0.0
C142 C 0.60684 1.01765 1.00516 0.0
C143 C 0.54565 1.00165 0.99603 0.0
C144 C 0.61111 0.06713 0.08932 0.0
C145 C 0.55426 0.10209 0.17229 0.0
H146 H 0.65207 0.98945 0.94921 0.0
H147 H 0.65978 0.08054 0.08567 0.0
S148 S 0.38211 0.08276 0.18483 0.0
N149 N 0.42684 1.02701 0.07784 0.0
N150 N 0.43484 0.11914 0.23489 0.0
C151 C 0.49289 0.08618 0.16469 0.0
C152 C 0.48863 1.03687 0.07743 0.0
C153 C 0.99778 1.04929 0.17639 0.0
C154 C 0.05241 1.00082 0.15385 0.0
C155 C 0.99408 0.09793 0.09262 0.0
C156 C 0.04368 0.09976 0.9792 0.0
H157 H 0.95623 1.04832 0.25875 0.0
H158 H 0.95337 0.13694 0.11965 0.0
S159 S 0.19435 0.98059 0.86781 0.0
N160 N 0.15484 0.95536 1.00239 0.0
N161 N 0.14872 1.04706 0.8491 0.0
C162 C 0.09764 1.05077 0.9545 0.0
C163 C 0.10175 1.00175 1.03984 0.0
C164 C 0.31047 0.75775 0.64541 0.0
C165 C 0.34927 0.8152 0.61681 0.0
C166 C 0.25134 0.75424 0.62008 0.0
C167 C 0.2278 0.8081 0.56522 0.0
H168 H 0.32667 0.71447 0.68551 0.0
H169 H 0.22439 0.70825 0.64194 0.0
S170 S 0.30435 0.97488 0.49102 0.0
N171 N 0.35513 0.93046 0.54213 0.0
N172 N 0.24492 0.92386 0.496 0.0
C173 C 0.2648 0.8668 0.54044 0.0
C174 C 0.32499 0.87037 0.56588 0.0
C175 C 0.25061 0.27144 0.54864 0.0
C176 C 0.23841 0.30009 0.66401 0.0
C177 C 0.31215 0.27555 0.45472 0.0
C178 C 0.36464 0.30917 0.47095 0.0
H179 H 0.21222 0.24487 0.53059 0.0
H180 H 0.3189 0.25117 0.36955 0.0
S181 S 0.3557 0.40112 0.7507 0.0
N182 N 0.28315 0.36777 0.78479 0.0
N183 N 0.39694 0.37726 0.61115 0.0
C184 C 0.35204 0.34005 0.58511 0.0
C185 C 0.28982 0.33504 0.68049 0.0
C186 C 0.84432 0.34894 0.52549 0.0
C187 C 0.85767 0.30625 0.60893 0.0
C188 C 0.78497 0.34702 0.50096 0.0
C189 C 0.73538 0.30251 0.55879 0.0
H190 H 0.87975 0.3851 0.47928 0.0
H191 H 0.77754 0.3816 0.43714 0.0
S192 S 0.74766 0.17473 0.77617 0.0
N193 N 0.81697 0.21449 0.74334 0.0
N194 N 0.70655 0.21088 0.69808 0.0
C195 C 0.74849 0.25864 0.641 0.0
C196 C 0.80901 0.26055 0.66583 0.0
C197 C 0.84413 0.83662 0.5888 0.0
C198 C 0.85727 0.80462 0.47552 0.0
C199 C 0.78283 0.83298 0.68261 0.0
C200 C 0.73117 0.79711 0.66832 0.0
H201 H 0.88181 0.86508 0.60566 0.0
H202 H 0.7756 0.85943 0.76638 0.0
S203 S 0.74251 0.69621 0.39592 0.0
N204 N 0.81454 0.73095 0.35932 0.0
N205 N 0.70004 0.72376 0.53329 0.0
C206 C 0.74421 0.76345 0.55636 0.0
C207 C 0.80669 0.76734 0.46093 0.0
C208 C 0.33633 0.73917 1.05025 0.0
C209 C 0.35797 0.79319 0.10425 0.0
C210 C 0.27614 0.74565 1.03119 0.0
C211 C 0.23534 0.80647 1.0649 0.0
H212 H 0.36884 0.69394 1.01179 0.0
H213 H 0.25998 0.70166 0.99479 0.0
S214 S 0.26707 0.96154 0.2146 0.0
N215 N 0.33291 0.90846 0.1935 0.0
N216 N 0.21903 0.92054 0.1595 0.0
C217 C 0.25643 0.86074 0.11863 0.0
C218 C 0.31692 0.85354 0.14028 0.0
C219 C 0.27664 0.23649 0.07521 0.0
C220 C 0.24498 0.29501 0.14751 0.0
C221 C 0.34021 0.23827 0.99216 0.0
C222 C 0.37458 0.29813 0.97989 0.0
H223 H 0.25055 0.19022 0.07861 0.0
H224 H 0.36447 0.19154 0.94175 0.0
S225 S 0.31361 0.46403 0.1514 0.0
N226 N 0.25163 0.4137 0.20238 0.0
N227 N 0.37301 0.417 1.04897 0.0
C228 C 0.34329 0.35702 1.05187 0.0
C229 C 0.27864 0.355 0.1363 0.0
C230 C 0.78258 0.24258 1.04528 0.0
C231 C 0.74448 0.30518 1.05919 0.0
C232 C 0.84152 0.23861 1.06917 0.0
C233 C 0.86502 0.29725 0.10706 0.0
H234 H 0.76458 0.19541 1.02251 0.0
H235 H 0.87164 0.19045 1.04834 0.0
S236 S 0.78087 0.47192 0.16872 0.0
N237 N 0.73218 0.42596 0.12198 0.0
N238 N 0.84382 0.41853 0.16465 0.0
C239 C 0.82625 0.35939 0.12546 0.0
C240 C 0.76691 0.36376 0.09931 0.0
C241 C 0.83888 0.84472 1.04173 0.0
C242 C 0.87129 0.78605 0.97066 0.0
C243 C 0.7755 0.84258 0.12472 0.0
C244 C 0.7412 0.78273 0.13646 0.0
H245 H 0.86488 0.89093 1.03948 0.0
H246 H 0.75144 0.88899 0.17641 0.0
S247 S 0.80248 0.61748 0.9631 0.0
N248 N 0.86487 0.66754 0.91437 0.0
N249 N 0.74245 0.66448 1.06453 0.0
C250 C 0.77222 0.72428 1.06305 0.0
C251 C 0.83748 0.72621 0.98018 0.0
loop_
_geom_bond_atom_site_label_1
_geom_bond_atom_site_label_2
_geom_bond_distance
_geom_bond_site_symmetry_2
_ccdc_geom_bond_type
Co0 N5 2.057 1_455 S
Co0 O17 2.021 . S
Co0 O20 2.062 1_455 S
Co0 O24 2.117 . S
Co0 O25 2.017 1_554 S
C1 O21 1.259 . S
C1 O24 1.258 . S
Co2 N11 2.057 . S
Co2 O18 2.117 . S
Co2 O19 2.020 1_455 S
Co2 O21 2.021 . S
Co2 O26 2.062 . S
C3 N5 1.316 1_556 S
C3 N6 1.347 . S
C3 H8 0.931 . S
C4 N5 1.375 1_556 S
C4 C7 1.350 . S
C4 H9 0.930 . S
N5 Co0 2.057 1_655 S
N5 C3 1.316 1_554 S
N5 C4 1.375 1_554 S
N6 C3 1.347 . S
N6 C7 1.373 . S
C7 C4 1.350 . S
C7 N6 1.373 . S
C7 H28 0.931 . S
H8 C3 0.931 . S
H9 C4 0.930 . S
C10 O17 1.259 . S
C10 O18 1.258 . S
N11 Co2 2.057 . S
N11 C12 1.316 . S
N11 C13 1.375 . S
C12 N11 1.316 . S
C12 N14 1.347 . S
C12 H23 0.931 . S
C13 N11 1.375 . S
C13 C15 1.350 . S
C13 H22 0.930 . S
N14 C12 1.347 . S
N14 C15 1.373 . S
C15 C13 1.350 . S
C15 N14 1.373 . S
C15 H29 0.931 . S
C16 O19 1.256 . S
C16 O20 1.255 . S
O17 Co0 2.021 . S
O17 C10 1.259 . S
O18 Co2 2.117 . S
O18 C10 1.258 . S
O19 Co2 2.020 1_655 S
O19 C16 1.256 . S
O20 Co0 2.062 1_655 S
O20 C16 1.255 . S
O21 C1 1.259 . S
O21 Co2 2.021 . S
H22 C13 0.930 . S
H23 C12 0.931 . S
O24 Co0 2.117 . S
O24 C1 1.258 . S
O25 Co0 2.017 1_556 S
O25 C27 1.248 1_556 S
O26 Co2 2.062 . S
O26 C27 1.255 . S
C27 O25 1.248 1_554 S
C27 O26 1.255 . S
H28 C7 0.931 . S
H29 C15 0.931 . S
Co30 N35 2.057 . S
Co30 O47 2.021 . S
Co30 O50 2.062 . S
Co30 O54 2.117 . S
Co30 O55 2.017 1_554 S
C31 O51 1.259 . S
C31 O54 1.258 . S
Co32 N41 2.057 . S
Co32 O48 2.117 . S
Co32 O49 2.020 . S
Co32 O51 2.021 . S
Co32 O56 2.062 . S
C33 N35 1.316 1_556 S
C33 N36 1.347 . S
C33 H38 0.931 . S
C34 N35 1.375 1_556 S
C34 C37 1.350 . S
C34 H39 0.930 . S
N35 Co30 2.057 . S
N35 C33 1.316 1_554 S
N35 C34 1.375 1_554 S
N36 C33 1.347 . S
N36 C37 1.373 . S
C37 C34 1.350 . S
C37 N36 1.373 . S
C37 H58 0.931 . S
H38 C33 0.931 . S
H39 C34 0.930 . S
C40 O47 1.259 . S
C40 O48 1.258 . S
N41 Co32 2.057 . S
N41 C42 1.316 . S
N41 C43 1.375 . S
C42 N41 1.316 . S
C42 N44 1.347 . S
C42 H53 0.931 . S
C43 N41 1.375 . S
C43 C45 1.350 . S
C43 H52 0.930 . S
N44 C42 1.347 . S
N44 C45 1.373 . S
C45 C43 1.350 . S
C45 N44 1.373 . S
C45 H59 0.931 . S
C46 O49 1.256 . S
C46 O50 1.255 . S
O47 Co30 2.021 . S
O47 C40 1.259 . S
O48 Co32 2.117 . S
O48 C40 1.258 . S
O49 Co32 2.020 . S
O49 C46 1.256 . S
O50 Co30 2.062 . S
O50 C46 1.255 . S
O51 C31 1.259 . S
O51 Co32 2.021 . S
H52 C43 0.930 . S
H53 C42 0.931 . S
O54 Co30 2.117 . S
O54 C31 1.258 . S
O55 Co30 2.017 1_556 S
O55 C57 1.248 1_556 S
O56 Co32 2.062 . S
O56 C57 1.255 . S
C57 O55 1.248 1_554 S
C57 O56 1.255 . S
H58 C37 0.931 . S
H59 C45 0.931 . S
Co60 N65 2.057 1_455 S
Co60 O77 2.021 . S
Co60 O80 2.062 1_455 S
Co60 O84 2.117 . S
Co60 O85 2.020 . S
C61 O81 1.259 . S
C61 O84 1.258 . S
Co62 N71 2.057 . S
Co62 O78 2.117 . S
Co62 O79 2.017 1_456 S
Co62 O81 2.021 . S
Co62 O86 2.062 . S
C63 N65 1.316 . S
C63 N66 1.347 . S
C63 H68 0.931 . S
C64 N65 1.375 . S
C64 C67 1.350 . S
C64 H69 0.930 . S
N65 Co60 2.057 1_655 S
N65 C63 1.316 . S
N65 C64 1.375 . S
N66 C63 1.347 . S
N66 C67 1.373 . S
C67 C64 1.350 . S
C67 N66 1.373 . S
C67 H88 0.931 . S
H68 C63 0.931 . S
H69 C64 0.930 . S
C70 O77 1.259 . S
C70 O78 1.258 . S
N71 Co62 2.057 . S
N71 C72 1.316 1_556 S
N71 C73 1.375 1_556 S
C72 N71 1.316 1_554 S
C72 N74 1.347 . S
C72 H83 0.931 . S
C73 N71 1.375 1_554 S
C73 C75 1.350 . S
C73 H82 0.930 . S
N74 C72 1.347 . S
N74 C75 1.373 . S
C75 C73 1.350 . S
C75 N74 1.373 . S
C75 H89 0.931 . S
C76 O79 1.248 1_556 S
C76 O80 1.255 . S
O77 Co60 2.021 . S
O77 C70 1.259 . S
O78 Co62 2.117 . S
O78 C70 1.258 . S
O79 Co62 2.017 1_654 S
O79 C76 1.248 1_554 S
O80 Co60 2.062 1_655 S
O80 C76 1.255 . S
O81 C61 1.259 . S
O81 Co62 2.021 . S
H82 C73 0.930 . S
H83 C72 0.931 . S
O84 Co60 2.117 . S
O84 C61 1.258 . S
O85 Co60 2.020 . S
O85 C87 1.256 . S
O86 Co62 2.062 . S
O86 C87 1.255 . S
C87 O85 1.256 . S
C87 O86 1.255 . S
H88 C67 0.931 . S
H89 C75 0.931 . S
Co90 N95 2.057 . S
Co90 O107 2.021 . S
Co90 O110 2.062 . S
Co90 O114 2.117 . S
Co90 O115 2.020 . S
C91 O111 1.259 . S
C91 O114 1.258 . S
Co92 N101 2.057 . S
Co92 O108 2.117 . S
Co92 O109 2.017 1_556 S
Co92 O111 2.021 . S
Co92 O116 2.062 . S
C93 N95 1.316 . S
C93 N96 1.347 . S
C93 H98 0.931 . S
C94 N95 1.375 . S
C94 C97 1.350 . S
C94 H99 0.930 . S
N95 Co90 2.057 . S
N95 C93 1.316 . S
N95 C94 1.375 . S
N96 C93 1.347 . S
N96 C97 1.373 . S
C97 C94 1.350 . S
C97 N96 1.373 . S
C97 H118 0.931 . S
H98 C93 0.931 . S
H99 C94 0.930 . S
C100 O107 1.259 . S
C100 O108 1.258 . S
N101 Co92 2.057 . S
N101 C102 1.316 1_556 S
N101 C103 1.375 1_556 S
C102 N101 1.316 1_554 S
C102 N104 1.347 . S
C102 H113 0.931 . S
C103 N101 1.375 1_554 S
C103 C105 1.350 . S
C103 H112 0.930 . S
N104 C102 1.347 . S
N104 C105 1.373 . S
C105 C103 1.350 . S
C105 N104 1.373 . S
C105 H119 0.931 . S
C106 O109 1.248 1_556 S
C106 O110 1.255 . S
O107 Co90 2.021 . S
O107 C100 1.259 . S
O108 Co92 2.117 . S
O108 C100 1.258 . S
O109 Co92 2.017 1_554 S
O109 C106 1.248 1_554 S
O110 Co90 2.062 . S
O110 C106 1.255 . S
O111 C91 1.259 . S
O111 Co92 2.021 . S
H112 C103 0.930 . S
H113 C102 0.931 . S
O114 Co90 2.117 . S
O114 C91 1.258 . S
O115 Co90 2.020 . S
O115 C117 1.256 . S
O116 Co92 2.062 . S
O116 C117 1.255 . S
C117 O115 1.256 . S
C117 O116 1.255 . S
H118 C97 0.931 . S
H119 C105 0.931 . S
C120 C121 1.369 1_654 S
C120 C122 1.419 . S
C120 H124 0.930 . S
C121 C120 1.369 1_456 S
C121 C130 1.429 . S
C122 C120 1.419 . S
C122 C123 1.363 1_655 S
C122 H125 0.929 . S
C123 C122 1.363 1_455 S
C123 C129 1.428 1_554 S
H124 C120 0.930 . S
H125 C122 0.929 . S
S126 N127 1.613 . S
S126 N128 1.610 . S
N127 S126 1.613 . S
N127 C130 1.350 . S
N128 S126 1.610 . S
N128 C129 1.351 . S
C129 C123 1.428 1_556 S
C129 N128 1.351 . S
C129 C130 1.434 . S
C130 C121 1.429 . S
C130 N127 1.350 . S
C130 C129 1.434 . S
C131 C132 1.369 1_556 S
C131 C133 1.419 . S
C131 H135 0.930 . S
C132 C131 1.369 1_554 S
C132 C141 1.429 . S
C133 C131 1.419 . S
C133 C134 1.363 . S
C133 H136 0.929 . S
C134 C133 1.363 . S
C134 C140 1.428 1_556 S
H135 C131 0.930 . S
H136 C133 0.929 . S
S137 N138 1.613 . S
S137 N139 1.610 . S
N138 S137 1.613 . S
N138 C141 1.350 . S
N139 S137 1.610 . S
N139 C140 1.351 . S
C140 C134 1.428 1_554 S
C140 N139 1.351 . S
C140 C141 1.434 . S
C141 C132 1.429 . S
C141 N138 1.350 . S
C141 C140 1.434 . S
C142 C143 1.369 1_545 S
C142 C144 1.419 1_556 S
C142 H146 0.930 . S
C143 C142 1.369 1_565 S
C143 C152 1.429 . S
C144 C142 1.419 1_554 S
C144 C145 1.363 . S
C144 H147 0.929 . S
C145 C144 1.363 . S
C145 C151 1.428 1_545 S
H146 C142 0.930 . S
H147 C144 0.929 . S
S148 N149 1.613 1_554 S
S148 N150 1.610 . S
N149 S148 1.613 1_556 S
N149 C152 1.350 . S
N150 S148 1.610 . S
N150 C151 1.351 . S
C151 C145 1.428 1_565 S
C151 N150 1.351 . S
C151 C152 1.434 1_554 S
C152 C143 1.429 . S
C152 N149 1.350 . S
C152 C151 1.434 1_556 S
C153 C154 1.369 . S
C153 C155 1.419 1_554 S
C153 H157 0.930 1_455 S
C154 C153 1.369 . S
C154 C163 1.429 1_565 S
C155 C153 1.419 1_556 S
C155 C156 1.363 1_565 S
C155 H158 0.929 1_455 S
C156 C155 1.363 1_545 S
C156 C162 1.428 . S
H157 C153 0.930 1_655 S
H158 C155 0.929 1_655 S
S159 N160 1.613 . S
S159 N161 1.610 1_554 S
N160 S159 1.613 . S
N160 C163 1.350 . S
N161 S159 1.610 1_556 S
N161 C162 1.351 . S
C162 C156 1.428 . S
C162 N161 1.351 . S
C162 C163 1.434 1_556 S
C163 C154 1.429 1_545 S
C163 N160 1.350 . S
C163 C162 1.434 1_554 S
C164 C165 1.369 . S
C164 C166 1.419 . S
C164 H168 0.930 . S
C165 C164 1.369 . S
C165 C174 1.429 . S
C166 C164 1.419 . S
C166 C167 1.363 . S
C166 H169 0.929 . S
C167 C166 1.363 . S
C167 C173 1.428 . S
H168 C164 0.930 . S
H169 C166 0.929 . S
S170 N171 1.613 . S
S170 N172 1.610 . S
N171 S170 1.613 . S
N171 C174 1.350 . S
N172 S170 1.610 . S
N172 C173 1.351 . S
C173 C167 1.428 . S
C173 N172 1.351 . S
C173 C174 1.434 . S
C174 C165 1.429 . S
C174 N171 1.350 . S
C174 C173 1.434 . S
C175 C176 1.369 . S
C175 C177 1.419 . S
C175 H179 0.930 . S
C176 C175 1.369 . S
C176 C185 1.429 . S
C177 C175 1.419 . S
C177 C178 1.363 . S
C177 H180 0.929 . S
C178 C177 1.363 . S
C178 C184 1.428 . S
H179 C175 0.930 . S
H180 C177 0.929 . S
S181 N182 1.613 . S
S181 N183 1.610 . S
N182 S181 1.613 . S
N182 C185 1.350 . S
N183 S181 1.610 . S
N183 C184 1.351 . S
C184 C178 1.428 . S
C184 N183 1.351 . S
C184 C185 1.434 . S
C185 C176 1.429 . S
C185 N182 1.350 . S
C185 C184 1.434 . S
C186 C187 1.369 . S
C186 C188 1.419 . S
C186 H190 0.930 . S
C187 C186 1.369 . S
C187 C196 1.429 . S
C188 C186 1.419 . S
C188 C189 1.363 . S
C188 H191 0.929 . S
C189 C188 1.363 . S
C189 C195 1.428 . S
H190 C186 0.930 . S
H191 C188 0.929 . S
S192 N193 1.613 . S
S192 N194 1.610 . S
N193 S192 1.613 . S
N193 C196 1.350 . S
N194 S192 1.610 . S
N194 C195 1.351 . S
C195 C189 1.428 . S
C195 N194 1.351 . S
C195 C196 1.434 . S
C196 C187 1.429 . S
C196 N193 1.350 . S
C196 C195 1.434 . S
C197 C198 1.369 . S
C197 C199 1.419 . S
C197 H201 0.930 . S
C198 C197 1.369 . S
C198 C207 1.429 . S
C199 C197 1.419 . S
C199 C200 1.363 . S
C199 H202 0.929 . S
C200 C199 1.363 . S
C200 C206 1.428 . S
H201 C197 0.930 . S
H202 C199 0.929 . S
S203 N204 1.613 . S
S203 N205 1.610 . S
N204 S203 1.613 . S
N204 C207 1.350 . S
N205 S203 1.610 . S
N205 C206 1.351 . S
C206 C200 1.428 . S
C206 N205 1.351 . S
C206 C207 1.434 . S
C207 C198 1.429 . S
C207 N204 1.350 . S
C207 C206 1.434 . S
C208 C209 1.369 . S
C208 C210 1.419 . S
C208 H212 0.930 . S
C209 C208 1.369 . S
C209 C218 1.433 . S
C210 C208 1.419 . S
C210 C211 1.363 1_554 S
C210 H213 0.929 . S
C211 C210 1.363 1_556 S
C211 C217 1.428 . S
H212 C208 0.930 . S
H213 C210 0.929 . S
S214 N215 1.613 1_556 S
S214 N216 1.610 . S
N215 S214 1.613 1_554 S
N215 C218 1.352 . S
N216 S214 1.610 . S
N216 C217 1.351 . S
C217 C211 1.428 . S
C217 N216 1.351 . S
C217 C218 1.428 1_556 S
C218 C209 1.433 . S
C218 N215 1.352 . S
C218 C217 1.428 1_554 S
C219 C220 1.369 1_556 S
C219 C221 1.419 . S
C219 H223 0.930 . S
C220 C219 1.369 1_554 S
C220 C229 1.429 . S
C221 C219 1.419 . S
C221 C222 1.363 . S
C221 H224 0.929 . S
C222 C221 1.363 . S
C222 C228 1.428 1_556 S
H223 C219 0.930 . S
H224 C221 0.929 . S
S225 N226 1.613 . S
S225 N227 1.610 . S
N226 S225 1.613 . S
N226 C229 1.350 . S
N227 S225 1.610 . S
N227 C228 1.351 . S
C228 C222 1.428 1_554 S
C228 N227 1.351 . S
C228 C229 1.434 . S
C229 C220 1.429 . S
C229 N226 1.350 . S
C229 C228 1.434 . S
C230 C231 1.369 . S
C230 C232 1.419 1_556 S
C230 H234 0.930 . S
C231 C230 1.369 . S
C231 C240 1.429 . S
C232 C230 1.419 1_554 S
C232 C233 1.363 . S
C232 H235 0.929 . S
C233 C232 1.363 . S
C233 C239 1.432 . S
H234 C230 0.930 . S
H235 C232 0.929 . S
S236 N237 1.613 . S
S236 N238 1.610 . S
N237 S236 1.613 . S
N237 C240 1.350 . S
N238 S236 1.610 . S
N238 C239 1.352 1_556 S
C239 C233 1.432 . S
C239 N238 1.352 1_554 S
C239 C240 1.428 1_554 S
C240 C231 1.429 . S
C240 N237 1.350 . S
C240 C239 1.428 1_556 S
C241 C242 1.369 . S
C241 C243 1.419 . S
C241 H245 0.930 . S
C242 C241 1.369 . S
C242 C251 1.429 1_556 S
C243 C241 1.419 . S
C243 C244 1.363 1_556 S
C243 H246 0.929 . S
C244 C243 1.363 1_554 S
C244 C250 1.428 . S
H245 C241 0.930 . S
H246 C243 0.929 . S
S247 N248 1.613 . S
S247 N249 1.610 . S
N248 S247 1.613 . S
N248 C251 1.350 . S
N249 S247 1.610 . S
N249 C250 1.351 . S
C250 C244 1.428 . S
C250 N249 1.351 . S
C250 C251 1.434 . S
C251 C242 1.429 1_554 S
C251 N248 1.350 . S
C251 C250 1.434 . S
C121 C61 2.249 . S
C123 C10 2.250 . S
C132 C31 2.357 . S
C134 C100 2.355 . S
C143 C91 2.245 . S
C145 C40 2.254 . S
C154 C1 2.359 . S
C156 C70 2.353 . S
C165 N96 1.573 . S
C167 N14 1.577 . S
C176 C87 1.571 . S
C178 C46 1.570 . S
C187 N66 1.578 . S
C189 N44 1.574 . S
C198 C16 1.571 . S
C200 C117 1.570 . S
C209 C106 1.349 1_554 S
C211 C27 1.345 1_556 S
C220 N74 1.044 . S
C222 N36 1.025 . S
C231 C57 1.349 1_556 S
C233 C76 1.344 1_554 S
C242 N6 1.034 . S
C244 N104 1.034 . S
