# Generated by pormake.
# Topology wkw, (8)-cn, num edge types: 1
# Building blocks:
#     Node 0, Type 0, BuildingBlock: TAGTUT_clean_sbu_1, # of connection points: 8
#     Node 1, Type 0, BuildingBlock: TAGTUT_clean_sbu_1, # of connection points: 8
#     Node 2, Type 0, BuildingBlock: TAGTUT_clean_sbu_1, # of connection points: 8
#     Node 3, Type 0, BuildingBlock: TAGTUT_clean_sbu_1, # of connection points: 8
#     Node 4, Type 0, BuildingBlock: TAGTUT_clean_sbu_1, # of connection points: 8
#     Node 5, Type 0, BuildingBlock: TAGTUT_clean_sbu_1, # of connection points: 8
#     Edge 6, Type (0, 0), None
#     Edge 7, Type (0, 0), None
#     Edge 8, Type (0, 0), None
#     Edge 9, Type (0, 0), None
#     Edge 10, Type (0, 0), None
#     Edge 11, Type (0, 0), None
#     Edge 12, Type (0, 0), None
#     Edge 13, Type (0, 0), None
#     Edge 14, Type (0, 0), None
#     Edge 15, Type (0, 0), None
#     Edge 16, Type (0, 0), None
#     Edge 17, Type (0, 0), None
#     Edge 18, Type (0, 0), None
#     Edge 19, Type (0, 0), None
#     Edge 20, Type (0, 0), None
#     Edge 21, Type (0, 0), None
#     Edge 22, Type (0, 0), None
#     Edge 23, Type (0, 0), None
#     Edge 24, Type (0, 0), None
#     Edge 25, Type (0, 0), None
#     Edge 26, Type (0, 0), None
#     Edge 27, Type (0, 0), None
#     Edge 28, Type (0, 0), None
#     Edge 29, Type (0, 0), None
# Relax obj value: 0.250
# Max RMSD: 0.279
# Mean RMSD: 0.279
data_MOF--net-wkw--node1-TAGTUT_clean_sbu_1--edge1-none
_symmetry_space_group_name_H-M    P1
_symmetry_Int_Tables_number       1
_symmetry_cell_setting            triclinic
loop_
_symmetry_equiv_pos_as_xyz
'x, y, z'
_cell_length_a     19.730422
_cell_length_b     19.720303
_cell_length_c     11.232693
_cell_angle_alpha  89.714787
_cell_angle_beta   91.49437
_cell_angle_gamma 120.21018
loop_
_atom_site_label
_atom_site_type_symbol
_atom_site_fract_x
_atom_site_fract_y
_atom_site_fract_z
_atom_type_partial_charge
C0 C 0.68598 0.18998 0.70763 0.0
C1 C 0.8711 0.30891 0.49755 0.0
C2 C 0.06285 0.31588 0.91141 0.0
Mg3 Mg 0.78831 0.32355 0.72767 0.0
O4 O 0.85915 0.29915 0.79643 0.0
Mg5 Mg 0.86865 0.21442 0.73057 0.0
Mg6 Mg 0.91024 0.33109 -0.05406 0.0
O7 O 0.96625 0.37959 0.09769 0.0
Mg8 Mg 0.01993 0.33474 0.18726 0.0
Mg9 Mg 0.91737 0.45363 0.14974 0.0
C10 C 0.81678 0.42765 -0.06181 0.0
C11 C 0.98064 0.51071 0.88512 0.0
O12 O 0.73687 0.17828 0.65365 0.0
O13 O 0.70293 0.22202 0.80805 0.0
O14 O 0.91147 0.28876 0.56492 0.0
O15 O 0.81891 0.32277 0.53885 0.0
O16 O 0.80139 0.42069 0.82655 0.0
O17 O 0.83146 0.38002 -0.00195 0.0
C18 C 0.80374 0.13308 -0.01664 0.0
O19 O 0.83044 0.20246 0.02824 0.0
O20 O 0.81216 0.12462 0.87455 0.0
O21 O 0.02342 0.45056 0.15233 0.0
O22 O 0.10059 0.43981 0.28065 0.0
O23 O 0.87723 0.37244 0.31586 0.0
C24 C 0.06322 0.4741 0.24947 0.0
O25 O 0.93482 0.29706 0.33051 0.0
O26 O 0.07882 0.33038 0.02349 0.0
C27 C 0.8918 0.3236 0.3713 0.0
O28 O 0.99071 0.28438 0.87013 0.0
O29 O 0.98569 0.44935 0.87078 0.0
O30 O 0.96794 0.53161 -0.01416 0.0
C31 C 0.5054 0.68429 0.85388 0.0
C32 C 0.57685 0.86424 0.63067 0.0
C33 C 0.75643 0.06133 0.05591 0.0
Mg34 Mg 0.47559 0.7879 0.86591 0.0
O35 O 0.57299 0.84576 -0.05796 0.0
Mg36 Mg 0.66842 0.86556 0.87462 0.0
Mg37 Mg 0.59121 0.90474 0.07843 0.0
O38 O 0.60169 0.97116 0.21642 0.0
Mg39 Mg 0.68546 0.01206 0.32792 0.0
Mg40 Mg 0.4904 0.91619 0.26794 0.0
C41 C 0.40137 0.80781 0.08466 0.0
C42 C 0.47259 0.96607 0.00157 0.0
O43 O 0.56976 0.73372 0.8013 0.0
O44 O 0.48942 0.70206 -0.04875 0.0
O45 O 0.6371 0.90586 0.69916 0.0
O46 O 0.50944 0.81569 0.67384 0.0
O47 O 0.3909 0.79696 -0.02809 0.0
O48 O 0.46432 0.81887 0.13935 0.0
C49 C 0.68903 0.80676 0.1368 0.0
O50 O 0.64874 0.83637 0.17824 0.0
O51 O 0.70215 0.81023 0.0266 0.0
O52 O 0.52983 0.02398 0.36064 0.0
O53 O 0.64354 0.06398 0.45271 0.0
O54 O 0.5234 0.87071 0.44136 0.0
C55 C 0.56917 0.03373 0.45571 0.0
O56 O 0.65334 0.91765 0.45594 0.0
O57 O 0.7542 0.07443 0.16825 0.0
C58 C 0.58433 0.88023 0.49989 0.0
O59 O 0.71871 0.99004 0.00957 0.0
O60 O 0.53173 0.96077 -0.02873 0.0
O61 O 0.45408 0.96292 0.10985 0.0
C62 C 0.81506 0.49008 0.00483 0.0
C63 C 0.70994 0.57424 0.80756 0.0
C64 C 0.71251 0.75974 0.21543 0.0
Mg65 Mg 0.67929 0.47498 0.04443 0.0
O66 O 0.74345 0.56883 0.12727 0.0
Mg67 Mg 0.81037 0.66279 0.04394 0.0
Mg68 Mg 0.69942 0.59231 0.25272 0.0
O69 O 0.64225 0.60681 0.38386 0.0
Mg70 Mg 0.68469 0.6908 0.49411 0.0
Mg71 Mg 0.57847 0.49535 0.43993 0.0
C72 C 0.59758 0.40039 0.27483 0.0
C73 C 0.51754 0.47699 0.16978 0.0
O74 O 0.83587 0.55997 -0.03617 0.0
O75 O 0.77119 0.46242 0.09144 0.0
O76 O 0.73233 0.63408 0.87565 0.0
O77 O 0.68391 0.50539 0.85165 0.0
O78 O 0.59369 0.38952 0.16212 0.0
O79 O 0.65079 0.46446 0.32547 0.0
C80 C 0.89728 0.69099 0.30437 0.0
O81 O 0.82785 0.65333 0.34974 0.0
O82 O 0.90474 0.69878 0.19232 0.0
O83 O 0.51228 0.54178 0.51843 0.0
O84 O 0.58842 0.65166 0.61484 0.0
O85 O 0.65235 0.52477 0.6169 0.0
C86 C 0.54329 0.5773 0.61506 0.0
O87 O 0.73984 0.65371 0.63185 0.0
O88 O 0.69656 0.75887 0.32698 0.0
C89 C 0.70434 0.58421 0.67651 0.0
O90 O 0.7428 0.71855 0.17378 0.0
O91 O 0.58469 0.53297 0.14044 0.0
O92 O 0.49935 0.46051 0.27785 0.0
C93 C 0.3386 0.80148 0.15867 0.0
C94 C 0.14137 0.70162 -0.01522 0.0
C95 C 0.96925 0.7171 0.38302 0.0
Mg96 Mg 0.20957 0.67154 0.22459 0.0
O97 O 0.19574 0.74561 0.30997 0.0
Mg98 Mg 0.16739 0.81109 0.22022 0.0
Mg99 Mg 0.12004 0.69886 0.42862 0.0
O100 O 0.04285 0.64059 0.55357 0.0
Mg101 Mg 1.0052 0.68614 0.66262 0.0
Mg102 Mg 0.08216 0.56986 0.61384 0.0
C103 C 0.20072 0.58841 0.4589 0.0
C104 C 0.04576 0.51812 0.33709 0.0
O105 O 0.29269 0.83031 0.13382 0.0
O106 O 0.32258 0.7502 0.2363 0.0
O107 O 0.11465 0.73562 0.04952 0.0
O108 O 0.17752 0.66898 0.03246 0.0
O109 O 0.2086 0.58666 0.34674 0.0
O110 O 0.19116 0.64154 0.50936 0.0
C111 C 0.22226 0.89491 0.48715 0.0
O112 O 0.1873 0.82438 0.53082 0.0
O113 O 0.22685 0.90455 0.37435 0.0
O114 O 0.96421 0.5084 0.68006 0.0
O115 O 0.93727 0.58785 0.777 0.0
O116 O 0.12633 0.64023 0.79557 0.0
C117 C 0.96152 0.53894 0.77669 0.0
O118 O 0.09519 0.73489 0.80549 0.0
O119 O 0.95378 0.70279 0.49466 0.0
C120 C 0.12357 0.69464 0.85349 0.0
O121 O 0.04121 0.74689 0.34299 0.0
O122 O 0.06284 0.5878 0.31055 0.0
O123 O 0.03978 0.49592 0.44478 0.0
C124 C 0.53915 0.34007 0.35205 0.0
C125 C 0.45219 0.13916 0.1847 0.0
C126 C 0.26411 0.96515 0.57081 0.0
Mg127 Mg 0.55022 0.21837 0.41703 0.0
O128 O 0.45859 0.18688 0.49916 0.0
Mg129 Mg 0.36534 0.16226 0.40887 0.0
Mg130 Mg 0.43289 0.11906 0.63029 0.0
O131 O 0.41984 0.05136 0.769 0.0
Mg132 Mg 0.32105 1.00066 0.85422 0.0
Mg133 Mg 0.54171 0.09295 0.83162 0.0
C134 C 0.62551 0.19976 0.64219 0.0
C135 C 0.53247 0.03866 0.56063 0.0
O136 O 0.4668 0.28909 0.31915 0.0
O137 O 0.57177 0.3285 0.44073 0.0
O138 O 0.39131 0.10855 0.24873 0.0
O139 O 0.52079 0.18357 0.23011 0.0
O140 O 0.63097 0.20713 0.52961 0.0
O141 O 0.56415 0.18968 0.69845 0.0
C142 C 0.33938 0.22168 0.6685 0.0
O143 O 0.3778 0.19072 0.71731 0.0
O144 O 0.33097 0.22169 0.55548 0.0
O145 O 0.4285 0.99108 0.81764 0.0
O146 O 0.3391 0.91307 0.93744 0.0
O147 O 0.50501 0.13136 0.00238 0.0
C148 C 0.41095 0.94956 0.91105 0.0
O149 O 0.3726 0.07893 0.01148 0.0
O150 O 0.25955 0.94747 0.68198 0.0
C151 C 0.44291 0.11776 0.05723 0.0
O152 O 0.30667 0.03838 0.53672 0.0
O153 O 0.47814 0.05417 0.54032 0.0
O154 O 0.56399 0.04338 0.66337 0.0
C155 C 0.19333 0.52343 0.53305 0.0
C156 C 0.31413 0.45074 0.34265 0.0
C157 C 0.31046 0.26345 0.7462 0.0
Mg158 Mg 0.33027 0.54954 0.57314 0.0
O159 O 0.2887 0.45414 0.65042 0.0
Mg160 Mg 0.21088 0.35996 0.57351 0.0
Mg161 Mg 0.32771 0.43198 0.78991 0.0
O162 O 0.38012 0.42119 0.93442 0.0
Mg163 Mg 0.33049 0.32322 0.02426 0.0
Mg164 Mg 0.45845 0.54328 -0.00775 0.0
C165 C 0.43476 0.62354 0.78993 0.0
C166 C 0.50688 0.53438 0.72179 0.0
O167 O 0.17818 0.45605 0.48906 0.0
O168 O 0.23119 0.54795 0.62944 0.0
O169 O 0.28692 0.3894 0.40814 0.0
O170 O 0.33276 0.51835 0.38552 0.0
O171 O 0.4282 0.63036 0.67805 0.0
O172 O 0.38498 0.56244 0.84899 0.0
C173 C 0.13238 0.34163 0.83374 0.0
O174 O 0.20271 0.38214 0.87905 0.0
O175 O 0.12164 0.32798 0.72233 0.0
O176 O 0.44834 0.43046 -0.01414 0.0
O177 O 0.43558 0.34299 0.11414 0.0
O178 O 0.37985 0.50538 0.16207 0.0
C179 C 0.47212 0.41424 0.08235 0.0
O180 O 0.29834 0.373 0.17246 0.0
O181 O 0.32309 0.26012 0.85838 0.0
C182 C 0.32918 0.44312 0.21637 0.0
O183 O 0.27882 0.30409 0.70639 0.0
O184 O 0.43956 0.47437 0.70292 0.0
O185 O 0.53213 0.56644 0.8245 0.0
loop_
_geom_bond_atom_site_label_1
_geom_bond_atom_site_label_2
_geom_bond_distance
_geom_bond_site_symmetry_2
_ccdc_geom_bond_type
C0 O12 1.241 . S
C0 O13 1.280 . S
C1 O14 1.277 . S
C1 O15 1.245 . S
C2 O26 1.247 1_656 S
C2 O28 1.289 . S
Mg3 O4 1.926 . S
Mg3 O13 1.984 . S
Mg3 O15 1.988 . S
Mg3 O16 2.061 . S
O4 Mg3 1.926 . S
O4 Mg5 1.986 . S
O4 Mg6 1.915 1_556 S
Mg5 O4 1.986 . S
Mg5 O12 2.042 . S
Mg5 O14 2.041 . S
Mg5 O20 2.038 . S
Mg5 O28 2.238 . S
Mg6 O4 1.915 1_554 S
Mg6 O7 1.919 . S
Mg6 O17 2.108 . S
Mg6 O19 2.080 . S
Mg6 O28 2.105 1_554 S
Mg6 O29 2.077 1_554 S
O7 Mg6 1.919 . S
O7 Mg8 1.926 1_655 S
O7 Mg9 1.986 . S
Mg8 O7 1.926 1_455 S
Mg8 O22 1.984 . S
Mg8 O25 1.988 1_455 S
Mg8 O26 2.061 . S
Mg9 O7 1.986 . S
Mg9 O17 2.238 . S
Mg9 O21 2.042 1_655 S
Mg9 O23 2.041 . S
Mg9 O30 2.038 . S
C10 O16 1.247 1_554 S
C10 O17 1.289 . S
C11 O29 1.245 . S
C11 O30 1.274 1_556 S
O12 C0 1.241 . S
O12 Mg5 2.042 . S
O13 C0 1.280 . S
O13 Mg3 1.984 . S
O14 C1 1.277 . S
O14 Mg5 2.041 . S
O15 C1 1.245 . S
O15 Mg3 1.988 . S
O16 Mg3 2.061 . S
O16 C10 1.247 1_556 S
O17 Mg6 2.108 . S
O17 Mg9 2.238 . S
O17 C10 1.289 . S
C18 O19 1.245 . S
C18 O20 1.274 1_554 S
O19 Mg6 2.080 . S
O19 C18 1.245 . S
O20 Mg5 2.038 . S
O20 C18 1.274 1_556 S
O21 Mg9 2.042 1_455 S
O21 C24 1.241 . S
O22 Mg8 1.984 . S
O22 C24 1.280 . S
O23 Mg9 2.041 . S
O23 C27 1.277 . S
C24 O21 1.241 . S
C24 O22 1.280 . S
O25 Mg8 1.988 1_655 S
O25 C27 1.245 . S
O26 C2 1.247 1_454 S
O26 Mg8 2.061 . S
C27 O23 1.277 . S
C27 O25 1.245 . S
O28 C2 1.289 . S
O28 Mg5 2.238 . S
O28 Mg6 2.105 1_556 S
O29 Mg6 2.077 1_556 S
O29 C11 1.245 . S
O30 Mg9 2.038 . S
O30 C11 1.274 1_554 S
C31 O43 1.241 . S
C31 O44 1.280 . S
C32 O45 1.277 . S
C32 O46 1.245 . S
C33 O57 1.247 1_565 S
C33 O59 1.289 . S
Mg34 O35 1.926 1_556 S
Mg34 O44 1.984 . S
Mg34 O46 1.988 . S
Mg34 O47 2.061 1_556 S
O35 Mg34 1.926 1_554 S
O35 Mg36 1.986 1_554 S
O35 Mg37 1.917 . S
Mg36 O35 1.986 1_556 S
Mg36 O43 2.042 . S
Mg36 O45 2.041 . S
Mg36 O51 2.038 1_556 S
Mg36 O59 2.238 1_556 S
Mg37 O35 1.917 . S
Mg37 O38 1.917 . S
Mg37 O48 2.106 . S
Mg37 O50 2.079 . S
Mg37 O59 2.106 . S
Mg37 O60 2.079 . S
O38 Mg37 1.917 . S
O38 Mg39 1.926 1_565 S
O38 Mg40 1.986 . S
Mg39 O38 1.926 1_545 S
Mg39 O53 1.984 . S
Mg39 O56 1.988 1_545 S
Mg39 O57 2.061 . S
Mg40 O38 1.986 . S
Mg40 O48 2.238 . S
Mg40 O52 2.042 1_565 S
Mg40 O54 2.041 . S
Mg40 O61 2.038 . S
C41 O47 1.247 . S
C41 O48 1.289 . S
C42 O60 1.245 . S
C42 O61 1.274 . S
O43 C31 1.241 . S
O43 Mg36 2.042 . S
O44 C31 1.280 . S
O44 Mg34 1.984 . S
O45 C32 1.277 . S
O45 Mg36 2.041 . S
O46 C32 1.245 . S
O46 Mg34 1.988 . S
O47 Mg34 2.061 1_554 S
O47 C41 1.247 . S
O48 Mg37 2.106 . S
O48 Mg40 2.238 . S
O48 C41 1.289 . S
C49 O50 1.245 . S
C49 O51 1.274 . S
O50 Mg37 2.079 . S
O50 C49 1.245 . S
O51 Mg36 2.038 1_554 S
O51 C49 1.274 . S
O52 Mg40 2.042 1_545 S
O52 C55 1.241 . S
O53 Mg39 1.984 . S
O53 C55 1.280 . S
O54 Mg40 2.041 . S
O54 C58 1.277 . S
C55 O52 1.241 . S
C55 O53 1.280 . S
O56 Mg39 1.988 1_565 S
O56 C58 1.245 . S
O57 C33 1.247 1_545 S
O57 Mg39 2.061 . S
C58 O54 1.277 . S
C58 O56 1.245 . S
O59 C33 1.289 . S
O59 Mg36 2.238 1_554 S
O59 Mg37 2.106 . S
O60 Mg37 2.079 . S
O60 C42 1.245 . S
O61 Mg40 2.038 . S
O61 C42 1.274 . S
C62 O74 1.241 . S
C62 O75 1.280 . S
C63 O76 1.277 . S
C63 O77 1.245 . S
C64 O88 1.247 . S
C64 O90 1.289 . S
Mg65 O66 1.926 . S
Mg65 O75 1.984 . S
Mg65 O77 1.988 1_554 S
Mg65 O78 2.061 . S
O66 Mg65 1.926 . S
O66 Mg67 1.986 . S
O66 Mg68 1.917 . S
Mg67 O66 1.986 . S
Mg67 O74 2.042 . S
Mg67 O76 2.041 1_554 S
Mg67 O82 2.038 . S
Mg67 O90 2.238 . S
Mg68 O66 1.917 . S
Mg68 O69 1.917 . S
Mg68 O79 2.106 . S
Mg68 O81 2.079 . S
Mg68 O90 2.106 . S
Mg68 O91 2.079 . S
O69 Mg68 1.917 . S
O69 Mg70 1.926 . S
O69 Mg71 1.986 . S
Mg70 O69 1.926 . S
Mg70 O84 1.984 . S
Mg70 O87 1.988 . S
Mg70 O88 2.061 . S
Mg71 O69 1.986 . S
Mg71 O79 2.238 . S
Mg71 O83 2.042 . S
Mg71 O85 2.041 . S
Mg71 O92 2.038 . S
C72 O78 1.247 . S
C72 O79 1.289 . S
C73 O91 1.245 . S
C73 O92 1.274 . S
O74 C62 1.241 . S
O74 Mg67 2.042 . S
O75 C62 1.280 . S
O75 Mg65 1.984 . S
O76 C63 1.277 . S
O76 Mg67 2.041 1_556 S
O77 C63 1.245 . S
O77 Mg65 1.988 1_556 S
O78 Mg65 2.061 . S
O78 C72 1.247 . S
O79 Mg68 2.106 . S
O79 Mg71 2.238 . S
O79 C72 1.289 . S
C80 O81 1.245 . S
C80 O82 1.274 . S
O81 Mg68 2.079 . S
O81 C80 1.245 . S
O82 Mg67 2.038 . S
O82 C80 1.274 . S
O83 Mg71 2.042 . S
O83 C86 1.241 . S
O84 Mg70 1.984 . S
O84 C86 1.280 . S
O85 Mg71 2.041 . S
O85 C89 1.277 . S
C86 O83 1.241 . S
C86 O84 1.280 . S
O87 Mg70 1.988 . S
O87 C89 1.245 . S
O88 C64 1.247 . S
O88 Mg70 2.061 . S
C89 O85 1.277 . S
C89 O87 1.245 . S
O90 C64 1.289 . S
O90 Mg67 2.238 . S
O90 Mg68 2.106 . S
O91 Mg68 2.079 . S
O91 C73 1.245 . S
O92 Mg71 2.038 . S
O92 C73 1.274 . S
C93 O105 1.241 . S
C93 O106 1.280 . S
C94 O107 1.277 . S
C94 O108 1.245 . S
C95 O119 1.247 1_455 S
C95 O121 1.289 . S
Mg96 O97 1.926 . S
Mg96 O106 1.984 . S
Mg96 O108 1.988 . S
Mg96 O109 2.061 . S
O97 Mg96 1.926 . S
O97 Mg98 1.986 . S
O97 Mg99 1.917 . S
Mg98 O97 1.986 . S
Mg98 O105 2.042 . S
Mg98 O107 2.041 . S
Mg98 O113 2.038 . S
Mg98 O121 2.238 . S
Mg99 O97 1.917 . S
Mg99 O100 1.917 . S
Mg99 O110 2.106 . S
Mg99 O112 2.079 . S
Mg99 O121 2.106 . S
Mg99 O122 2.079 . S
O100 Mg99 1.917 . S
O100 Mg101 1.926 1_455 S
O100 Mg102 1.986 . S
Mg101 O100 1.926 1_655 S
Mg101 O115 1.984 . S
Mg101 O118 1.988 1_655 S
Mg101 O119 2.061 . S
Mg102 O100 1.986 . S
Mg102 O110 2.238 . S
Mg102 O114 2.042 1_455 S
Mg102 O116 2.041 . S
Mg102 O123 2.038 . S
C103 O109 1.247 . S
C103 O110 1.289 . S
C104 O122 1.245 . S
C104 O123 1.274 . S
O105 C93 1.241 . S
O105 Mg98 2.042 . S
O106 C93 1.280 . S
O106 Mg96 1.984 . S
O107 C94 1.277 . S
O107 Mg98 2.041 . S
O108 C94 1.245 . S
O108 Mg96 1.988 . S
O109 Mg96 2.061 . S
O109 C103 1.247 . S
O110 Mg99 2.106 . S
O110 Mg102 2.238 . S
O110 C103 1.289 . S
C111 O112 1.245 . S
C111 O113 1.274 . S
O112 Mg99 2.079 . S
O112 C111 1.245 . S
O113 Mg98 2.038 . S
O113 C111 1.274 . S
O114 Mg102 2.042 1_655 S
O114 C117 1.241 . S
O115 Mg101 1.984 . S
O115 C117 1.280 . S
O116 Mg102 2.041 . S
O116 C120 1.277 . S
C117 O114 1.241 . S
C117 O115 1.280 . S
O118 Mg101 1.988 1_455 S
O118 C120 1.245 . S
O119 C95 1.247 1_655 S
O119 Mg101 2.061 . S
C120 O116 1.277 . S
C120 O118 1.245 . S
O121 C95 1.289 . S
O121 Mg98 2.238 . S
O121 Mg99 2.106 . S
O122 Mg99 2.079 . S
O122 C104 1.245 . S
O123 Mg102 2.038 . S
O123 C104 1.274 . S
C124 O136 1.241 . S
C124 O137 1.280 . S
C125 O138 1.277 . S
C125 O139 1.245 . S
C126 O150 1.247 1_545 S
C126 O152 1.289 . S
Mg127 O128 1.926 . S
Mg127 O137 1.984 . S
Mg127 O139 1.988 . S
Mg127 O140 2.061 . S
O128 Mg127 1.926 . S
O128 Mg129 1.986 . S
O128 Mg130 1.917 . S
Mg129 O128 1.986 . S
Mg129 O136 2.042 . S
Mg129 O138 2.041 . S
Mg129 O144 2.038 . S
Mg129 O152 2.238 . S
Mg130 O128 1.917 . S
Mg130 O131 1.917 . S
Mg130 O141 2.106 . S
Mg130 O143 2.079 . S
Mg130 O152 2.106 . S
Mg130 O153 2.079 . S
O131 Mg130 1.917 . S
O131 Mg132 1.926 1_545 S
O131 Mg133 1.986 . S
Mg132 O131 1.926 1_565 S
Mg132 O146 1.984 . S
Mg132 O149 1.988 1_566 S
Mg132 O150 2.061 . S
Mg133 O131 1.986 . S
Mg133 O141 2.238 . S
Mg133 O145 2.042 1_545 S
Mg133 O147 2.041 1_556 S
Mg133 O154 2.038 . S
C134 O140 1.247 . S
C134 O141 1.289 . S
C135 O153 1.245 . S
C135 O154 1.274 . S
O136 C124 1.241 . S
O136 Mg129 2.042 . S
O137 C124 1.280 . S
O137 Mg127 1.984 . S
O138 C125 1.277 . S
O138 Mg129 2.041 . S
O139 C125 1.245 . S
O139 Mg127 1.988 . S
O140 Mg127 2.061 . S
O140 C134 1.247 . S
O141 Mg130 2.106 . S
O141 Mg133 2.238 . S
O141 C134 1.289 . S
C142 O143 1.245 . S
C142 O144 1.274 . S
O143 Mg130 2.079 . S
O143 C142 1.245 . S
O144 Mg129 2.038 . S
O144 C142 1.274 . S
O145 Mg133 2.042 1_565 S
O145 C148 1.241 . S
O146 Mg132 1.984 . S
O146 C148 1.280 . S
O147 Mg133 2.041 1_554 S
O147 C151 1.277 . S
C148 O145 1.241 . S
C148 O146 1.280 . S
O149 Mg132 1.988 1_544 S
O149 C151 1.245 . S
O150 C126 1.247 1_565 S
O150 Mg132 2.061 . S
C151 O147 1.277 . S
C151 O149 1.245 . S
O152 C126 1.289 . S
O152 Mg129 2.238 . S
O152 Mg130 2.106 . S
O153 Mg130 2.079 . S
O153 C135 1.245 . S
O154 Mg133 2.038 . S
O154 C135 1.274 . S
C155 O167 1.241 . S
C155 O168 1.280 . S
C156 O169 1.277 . S
C156 O170 1.245 . S
C157 O181 1.247 . S
C157 O183 1.289 . S
Mg158 O159 1.926 . S
Mg158 O168 1.984 . S
Mg158 O170 1.988 . S
Mg158 O171 2.061 . S
O159 Mg158 1.926 . S
O159 Mg160 1.986 . S
O159 Mg161 1.917 . S
Mg160 O159 1.986 . S
Mg160 O167 2.042 . S
Mg160 O169 2.041 . S
Mg160 O175 2.038 . S
Mg160 O183 2.238 . S
Mg161 O159 1.917 . S
Mg161 O162 1.917 . S
Mg161 O172 2.106 . S
Mg161 O174 2.079 . S
Mg161 O183 2.106 . S
Mg161 O184 2.079 . S
O162 Mg161 1.917 . S
O162 Mg163 1.926 1_556 S
O162 Mg164 1.986 1_556 S
Mg163 O162 1.926 1_554 S
Mg163 O177 1.984 . S
Mg163 O180 1.988 . S
Mg163 O181 2.061 1_554 S
Mg164 O162 1.986 1_554 S
Mg164 O172 2.238 1_554 S
Mg164 O176 2.042 . S
Mg164 O178 2.041 . S
Mg164 O185 2.038 1_554 S
C165 O171 1.247 . S
C165 O172 1.289 . S
C166 O184 1.245 . S
C166 O185 1.274 . S
O167 C155 1.241 . S
O167 Mg160 2.042 . S
O168 C155 1.280 . S
O168 Mg158 1.984 . S
O169 C156 1.277 . S
O169 Mg160 2.041 . S
O170 C156 1.245 . S
O170 Mg158 1.988 . S
O171 Mg158 2.061 . S
O171 C165 1.247 . S
O172 Mg161 2.106 . S
O172 Mg164 2.238 1_556 S
O172 C165 1.289 . S
C173 O174 1.245 . S
C173 O175 1.274 . S
O174 Mg161 2.079 . S
O174 C173 1.245 . S
O175 Mg160 2.038 . S
O175 C173 1.274 . S
O176 Mg164 2.042 . S
O176 C179 1.241 . S
O177 Mg163 1.984 . S
O177 C179 1.280 . S
O178 Mg164 2.041 . S
O178 C182 1.277 . S
C179 O176 1.241 . S
C179 O177 1.280 . S
O180 Mg163 1.988 . S
O180 C182 1.245 . S
O181 C157 1.247 . S
O181 Mg163 2.061 1_556 S
C182 O178 1.277 . S
C182 O180 1.245 . S
O183 C157 1.289 . S
O183 Mg160 2.238 . S
O183 Mg161 2.106 . S
O184 Mg161 2.079 . S
O184 C166 1.245 . S
O185 Mg164 2.038 1_556 S
O185 C166 1.274 . S
C27 C1 1.338 . S
C58 C32 1.338 . S
C63 C89 1.338 . S
C94 C120 1.338 1_554 S
C151 C125 1.338 . S
C182 C156 1.338 . S
C134 C0 2.782 . S
C31 C165 2.782 . S
C10 C62 2.782 . S
C41 C93 2.782 . S
C124 C72 2.782 . S
C103 C155 2.782 . S
C18 C33 2.718 1_545 S
C49 C64 2.719 . S
C95 C80 2.718 1_455 S
C111 C126 2.718 1_565 S
C142 C157 2.718 . S
C2 C173 2.718 1_655 S
C24 C104 2.175 . S
C135 C55 2.175 . S
C86 C166 2.176 . S
C117 C11 2.175 . S
C42 C148 2.176 1_554 S
C179 C73 2.175 . S
