# Generated by pormake.
# Topology hex, (8)-cn, num edge types: 1
# Building blocks:
#     Node 0, Type 0, BuildingBlock: HISSIN_clean_sbu_1, # of connection points: 8
#     Edge 1, Type (0, 0), BuildingBlock: MIFKUJ_clean_linker_0, # of connection points: 2
#     Edge 2, Type (0, 0), BuildingBlock: MIFKUJ_clean_linker_0, # of connection points: 2
#     Edge 3, Type (0, 0), BuildingBlock: MIFKUJ_clean_linker_0, # of connection points: 2
#     Edge 4, Type (0, 0), BuildingBlock: MIFKUJ_clean_linker_0, # of connection points: 2
# Relax obj value: 0.038
# Max RMSD: 0.102
# Mean RMSD: 0.102
data_MOF--net-hex--node1-HISSIN_clean_sbu_1--edge1-MIFKUJ_clean_linker_0
_symmetry_space_group_name_H-M    P1
_symmetry_Int_Tables_number       1
_symmetry_cell_setting            triclinic
loop_
_symmetry_equiv_pos_as_xyz
'x, y, z'
_cell_length_a     27.864458
_cell_length_b     21.436758
_cell_length_c     19.299923
_cell_angle_alpha  113.69091
_cell_angle_beta   99.493862
_cell_angle_gamma 111.34501
loop_
_atom_site_label
_atom_site_type_symbol
_atom_site_fract_x
_atom_site_fract_y
_atom_site_fract_z
_atom_type_partial_charge
Eu0 Eu 0.06985 0.09238 0.03195 0.0
C1 C 1.00111 0.98116 0.84637 0.0
O2 O 0.05458 0.17731 0.00384 0.0
C3 C 0.78786 0.88492 0.96762 0.0
C4 C 0.69486 0.84627 0.01114 0.0
C5 C 0.76975 0.82211 0.98217 0.0
C6 C 0.72335 0.80356 0.0053 0.0
C7 C 0.75863 0.92724 0.97457 0.0
C8 C 0.71152 0.90677 0.99468 0.0
Eu9 Eu 0.92843 0.91337 0.93544 0.0
O10 O 0.02492 0.07988 0.11677 0.0
O11 O 0.92481 0.79654 0.88823 0.0
O12 O 0.95304 0.96151 0.855 0.0
O13 O 0.98411 0.94787 0.05755 0.0
C14 C 0.97124 0.79274 0.90091 0.0
O15 O 0.01832 0.85676 0.93289 0.0
O16 O 0.8804 0.96744 0.98689 0.0
C17 C 0.83325 0.90382 0.93714 0.0
C18 C 0.005 0.17036 0.98005 0.0
O19 O 0.96202 0.11162 0.97191 0.0
O20 O 0.83884 0.84631 0.88602 0.0
O21 O 0.04533 1.00001 0.90305 0.0
C22 C 0.17545 0.14871 0.1033 0.0
O23 O 0.13898 0.07703 0.07826 0.0
C24 C 0.22641 0.16025 0.08428 0.0
C25 C 0.32522 0.18367 0.05573 0.0
C26 C 0.25036 0.2151 0.06028 0.0
C27 C 0.29959 0.22593 0.04496 0.0
C28 C 0.25339 0.11858 0.09495 0.0
C29 C 0.30311 0.13126 0.08168 0.0
C30 C 0.00683 0.01684 0.1222 0.0
O31 O 0.15264 0.19102 0.09682 0.0
H32 H 0.65772 0.83029 0.02562 0.0
H33 H 0.79098 0.78773 0.97475 0.0
H34 H 0.771 0.97369 0.9607 0.0
H35 H 0.36395 0.19322 0.04591 0.0
H36 H 0.23112 0.24911 0.05354 0.0
H37 H 0.23655 0.07789 0.11536 0.0
H38 H 0.90858 0.17062 0.92058 0.0
H39 H 0.89871 0.27089 0.8985 0.0
H40 H 0.07621 0.40395 0.98212 0.0
H41 H 0.08649 0.30458 0.00468 0.0
H42 H 0.02984 0.49304 0.05223 0.0
H43 H 0.99821 0.30336 0.78146 0.0
H44 H 0.95171 0.17337 0.65926 0.0
H45 H 0.79623 0.17532 0.63004 0.0
H46 H 0.84169 0.30503 0.75247 0.0
H47 H 0.06058 0.77003 0.93432 0.0
H48 H 0.06144 0.6581 0.93835 0.0
H49 H 0.88318 0.54108 0.85413 0.0
H50 H 0.88183 0.653 0.84947 0.0
H51 H 0.92439 0.44154 0.78429 0.0
H52 H 0.95322 0.62915 0.04918 0.0
H53 H 0.99675 0.75907 0.17066 0.0
H54 H 0.15311 0.75961 0.21378 0.0
H55 H 0.11074 0.63022 0.09159 0.0
C56 C 0.9455 0.22114 0.93408 0.0
C57 C 0.99832 0.22961 0.96452 0.0
C58 C 0.93978 0.27824 0.92113 0.0
C59 C 0.98674 0.34474 0.93828 0.0
C60 C 0.03943 0.35319 0.96856 0.0
C61 C 0.04518 0.29612 0.98118 0.0
C62 C 0.98139 0.40651 0.92633 0.0
C63 C 0.00735 0.48193 0.99342 0.0
C64 C 0.95051 0.39153 0.85019 0.0
C65 C 0.92325 0.31357 0.77659 0.0
C66 C 0.95402 0.27579 0.74936 0.0
C67 C 0.92787 0.20221 0.68 0.0
C68 C 0.87103 0.16604 0.63718 0.0
C69 C 0.84024 0.2034 0.66341 0.0
C70 C 0.86618 0.27697 0.73267 0.0
C71 C 0.02144 0.72015 0.91549 0.0
C72 C 0.97114 0.72079 0.89227 0.0
C73 C 0.02205 0.65628 0.91814 0.0
C74 C 0.97243 0.59183 0.89787 0.0
C75 C 0.92195 0.59039 0.87035 0.0
C76 C 0.92129 0.65446 0.86783 0.0
C77 C 0.97371 0.52815 0.90984 0.0
C78 C 0.94683 0.45252 0.84305 0.0
C79 C 0.00331 0.5427 0.98649 0.0
C80 C 0.02889 0.62022 0.06068 0.0
C81 C 0.99699 0.6572 0.08417 0.0
C82 C 0.02144 0.73073 0.15321 0.0
C83 C 0.07768 0.76764 0.1998 0.0
C84 C 0.10956 0.73098 0.17755 0.0
C85 C 0.08534 0.65752 0.1084 0.0
H86 H 0.09653 0.82457 0.25324 0.0
H87 H 0.8508 0.10922 0.5835 0.0
H88 H 0.73241 0.05196 0.10259 0.0
H89 H 0.66227 0.09465 0.12068 0.0
H90 H 0.53908 0.88104 0.90444 0.0
H91 H 0.60901 0.83947 0.88605 0.0
H92 H 0.51732 0.99377 0.91861 0.0
H93 H 0.56847 0.90332 0.0954 0.0
H94 H 0.63159 0.90379 0.20138 0.0
H95 H 0.66445 0.13167 0.37375 0.0
H96 H 0.60172 0.13253 0.26811 0.0
H97 H 0.27853 0.98128 0.98838 0.0
H98 H 0.34772 0.93602 0.97924 0.0
H99 H 0.4703 0.15398 0.19097 0.0
H100 H 0.40101 0.19787 0.2012 0.0
H101 H 0.49277 0.0399 0.18061 0.0
H102 H 0.43783 0.12702 0.00268 0.0
H103 H 0.37726 0.12679 0.89451 0.0
H104 H 0.34983 0.90222 0.72238 0.0
H105 H 0.41097 0.90148 0.82982 0.0
C106 C 0.6908 0.01593 0.05749 0.0
C107 C 0.67569 0.94272 0.99305 0.0
C108 C 0.65069 0.03973 0.06821 0.0
C109 C 0.59513 0.98991 0.01518 0.0
C110 C 0.58149 0.92006 0.94654 0.0
C111 C 0.62141 0.89646 0.93582 0.0
C112 C 0.55005 0.00559 0.03485 0.0
C113 C 0.51162 0.00314 0.97557 0.0
C114 C 0.54309 0.01865 0.10971 0.0
C115 C 0.58056 0.01803 0.17353 0.0
C116 C 0.58915 0.95346 0.15576 0.0
C117 C 0.62493 0.95355 0.21579 0.0
C118 C 0.6521 0.0178 0.29431 0.0
C119 C 0.6434 0.08195 0.31288 0.0
C120 C 0.60769 0.08212 0.2529 0.0
C121 C 0.31941 0.01738 0.03547 0.0
C122 C 0.33477 0.09275 0.09551 0.0
C123 C 0.35907 0.99207 0.02969 0.0
C124 C 0.41446 0.04263 0.08309 0.0
C125 C 0.42793 0.11421 0.14892 0.0
C126 C 0.3883 0.13912 0.15505 0.0
C127 C 0.45971 0.02723 0.06397 0.0
C128 C 0.49831 0.03014 0.12349 0.0
C129 C 0.46671 0.01426 0.98911 0.0
C130 C 0.42914 0.01427 0.92467 0.0
C131 C 0.41916 0.0777 0.9419 0.0
C132 C 0.38455 0.07767 0.88064 0.0
C133 C 0.35952 0.01444 0.8016 0.0
C134 C 0.36922 0.95119 0.78367 0.0
C135 C 0.404 0.95108 0.84475 0.0
H136 H 0.33266 0.01449 0.75423 0.0
H137 H 0.67984 0.01786 0.34078 0.0
H138 H 0.32704 0.20044 0.91162 0.0
H139 H 0.40237 0.29556 0.9005 0.0
H140 H 0.41556 0.47857 0.12042 0.0
H141 H 0.34118 0.38272 0.13306 0.0
H142 H 0.431 0.51832 -0.00289 0.0
H143 H 0.49651 0.41174 0.1414 0.0
H144 H 0.50623 0.31349 0.16925 0.0
H145 H 0.55268 0.23287 0.96212 0.0
H146 H 0.5421 0.32964 0.9319 0.0
H147 H 0.70384 0.8048 0.13845 0.0
H148 H 0.63117 0.69739 0.13766 0.0
H149 H 0.61125 0.54224 0.89509 0.0
H150 H 0.68314 0.65072 0.89464 0.0
H151 H 0.59918 0.48496 0.02396 0.0
H152 H 0.53263 0.59599 0.88183 0.0
H153 H 0.52737 0.70114 0.86385 0.0
H154 H 0.4846 0.77712 0.0755 0.0
H155 H 0.49133 0.67383 0.09624 0.0
C156 C 0.34495 0.26129 0.95615 0.0
C157 C 0.32867 0.28439 0.02341 0.0
C158 C 0.38819 0.31539 0.95012 0.0
C159 C 0.4153 0.39375 0.01063 0.0
C160 C 0.39533 0.41816 0.07342 0.0
C161 C 0.35244 0.36365 0.08011 0.0
C162 C 0.46689 0.44878 0.01151 0.0
C163 C 0.46783 0.51126 0.00348 0.0
C164 C 0.51476 0.43884 0.01876 0.0
C165 C 0.51799 0.37757 0.03392 0.0
C166 C 0.50792 0.37229 0.10096 0.0
C167 C 0.51392 0.31717 0.11749 0.0
C168 C 0.53064 0.26759 0.06799 0.0
C169 C 0.54019 0.27181 0.00079 0.0
C170 C 0.53408 0.32667 0.98383 0.0
C171 C 0.68574 0.74709 0.08636 0.0
C172 C 0.69894 0.73596 0.0165 0.0
C173 C 0.64391 0.68599 0.08572 0.0
C174 C 0.61532 0.61246 0.01581 0.0
C175 C 0.63289 0.59885 0.9495 0.0
C176 C 0.67435 0.66056 0.9496 0.0
C177 C 0.56294 0.55384 0.00893 0.0
C178 C 0.56202 0.49116 0.01644 0.0
C179 C 0.51515 0.56372 0.00169 0.0
C180 C 0.51319 0.62773 0.99116 0.0
C181 C 0.52316 0.63599 0.92545 0.0
C182 C 0.5197 0.69508 0.91456 0.0
C183 C 0.50552 0.74559 0.96836 0.0
C184 C 0.49549 0.73782 0.03379 0.0
C185 C 0.49928 0.67917 0.04528 0.0
H186 H 0.50202 0.79055 0.95918 0.0
H187 H 0.53596 0.22562 0.0815 0.0
H188 H 0.95252 0.04336 0.78068 0.0
H189 H 0.96008 0.06012 0.66446 0.0
H190 H 0.06725 0.95554 0.63646 0.0
H191 H 0.06274 0.94401 0.7569 0.0
H192 H 0.10303 0.061 0.60371 0.0
H193 H 0.92164 0.85729 0.5159 0.0
H194 H 0.82862 0.7915 0.51677 0.0
H195 H 0.78867 0.95688 0.48703 0.0
H196 H 0.88183 0.0244 0.48722 0.0
H197 H 0.01298 0.91213 0.16377 0.0
H198 H 0.01948 0.91755 0.29421 0.0
H199 H 0.02009 0.13754 0.39119 0.0
H200 H 0.01518 0.13381 0.26111 0.0
H201 H 0.93152 0.9772 0.38758 0.0
H202 H 0.12354 0.17922 0.47945 0.0
H203 H 0.21384 0.2248 0.46354 0.0
H204 H 0.22774 0.03245 0.46559 0.0
H205 H 0.1371 0.9852 0.48037 0.0
C206 C 0.97769 0.02404 0.74958 0.0
C207 C 0.00646 0.99139 0.77662 0.0
C208 C 0.98183 0.0333 0.68291 0.0
C209 C 0.01298 0.00713 0.63987 0.0
C210 C 0.04273 0.97593 0.66819 0.0
C211 C 0.04 0.96897 0.73666 0.0
C212 C 0.01407 0.01169 0.56511 0.0
C213 C 0.06531 0.04214 0.55652 0.0
C214 C 0.96503 0.98701 0.50271 0.0
C215 C 0.909 0.94656 0.50272 0.0
C216 C 0.89321 0.88007 0.5103 0.0
C217 C 0.84043 0.8424 0.51049 0.0
C218 C 0.80285 0.8702 0.50232 0.0
C219 C 0.8179 0.93558 0.49365 0.0
C220 C 0.87068 0.97357 0.49361 0.0
C221 C 0.01494 0.96203 0.21301 0.0
C222 C 0.01342 0.02255 0.20233 0.0
C223 C 0.01884 0.96507 0.28741 0.0
C224 C 0.02048 0.02804 0.3519 0.0
C225 C 0.01927 0.08881 0.3419 0.0
C226 C 0.01652 0.08662 0.26784 0.0
C227 C 0.02008 0.0275 0.42796 0.0
C228 C 0.96894 0.99686 0.43589 0.0
C229 C 0.06876 0.04949 0.48823 0.0
C230 C 0.12337 0.07832 0.48015 0.0
C231 C 0.14562 0.14627 0.47569 0.0
C232 C 0.19692 0.17251 0.4671 0.0
C233 C 0.22645 0.13143 0.46333 0.0
C234 C 0.20481 0.06416 0.46842 0.0
C235 C 0.15352 0.03769 0.477 0.0
H236 H 0.26615 0.15183 0.45666 0.0
H237 H 0.762 0.84092 0.50242 0.0
loop_
_geom_bond_atom_site_label_1
_geom_bond_atom_site_label_2
_geom_bond_distance
_geom_bond_site_symmetry_2
_ccdc_geom_bond_type
Eu0 O2 2.323 . S
Eu0 O10 2.328 . S
Eu0 O21 2.316 1_554 S
Eu0 C22 2.837 . S
Eu0 O23 2.488 . S
Eu0 O31 2.461 . S
C1 O12 1.251 . S
C1 O21 1.237 1_665 S
O2 Eu0 2.323 . S
O2 C18 1.279 1_455 S
C3 C5 1.383 . S
C3 C7 1.388 . S
C3 C17 1.491 . S
C4 C6 1.403 . S
C4 C8 1.385 1_554 S
C4 H32 0.931 . S
C5 C3 1.383 . S
C5 C6 1.393 1_556 S
C5 H33 0.930 . S
C6 C4 1.403 . S
C6 C5 1.393 1_554 S
C7 C3 1.388 . S
C7 C8 1.394 . S
C7 H34 0.930 . S
C8 C4 1.385 1_556 S
C8 C7 1.394 . S
Eu9 O11 2.323 . S
Eu9 O12 2.328 . S
Eu9 O13 2.316 1_556 S
Eu9 O16 2.488 . S
Eu9 C17 2.837 . S
Eu9 O20 2.461 . S
O10 Eu0 2.328 . S
O10 C30 1.251 . S
O11 Eu9 2.323 . S
O11 C14 1.279 1_655 S
O12 C1 1.251 . S
O12 Eu9 2.328 . S
O13 Eu9 2.316 1_554 S
O13 C30 1.237 1_665 S
C14 O11 1.279 1_455 S
C14 O15 1.244 . S
O15 C14 1.244 . S
O16 Eu9 2.488 . S
O16 C17 1.271 . S
C17 C3 1.491 . S
C17 Eu9 2.837 . S
C17 O16 1.271 . S
C17 O20 1.261 . S
C18 O2 1.279 1_655 S
C18 O19 1.244 . S
O19 C18 1.244 . S
O20 Eu9 2.461 . S
O20 C17 1.261 . S
O21 Eu0 2.316 1_556 S
O21 C1 1.237 1_445 S
C22 Eu0 2.837 . S
C22 O23 1.271 . S
C22 C24 1.491 . S
C22 O31 1.261 . S
O23 Eu0 2.488 . S
O23 C22 1.271 . S
C24 C22 1.491 . S
C24 C26 1.383 . S
C24 C28 1.388 . S
C25 C27 1.403 . S
C25 C29 1.385 1_556 S
C25 H35 0.931 . S
C26 C24 1.383 . S
C26 C27 1.393 1_554 S
C26 H36 0.930 . S
C27 C25 1.403 . S
C27 C26 1.393 1_556 S
C28 C24 1.388 . S
C28 C29 1.394 . S
C28 H37 0.930 . S
C29 C25 1.385 1_554 S
C29 C28 1.394 . S
C30 O10 1.251 . S
C30 O13 1.237 1_445 S
O31 Eu0 2.461 . S
O31 C22 1.261 . S
H32 C4 0.931 . S
H33 C5 0.930 . S
H34 C7 0.930 . S
H35 C25 0.931 . S
H36 C26 0.930 . S
H37 C28 0.930 . S
H38 C56 0.951 . S
H39 C58 0.951 . S
H40 C60 0.950 . S
H41 C61 0.950 . S
H42 C63 0.950 . S
H43 C66 0.950 . S
H44 C67 0.950 . S
H45 C69 0.950 . S
H46 C70 0.950 . S
H47 C71 0.951 . S
H48 C73 0.951 . S
H49 C75 0.950 . S
H50 C76 0.950 . S
H51 C78 0.950 . S
H52 C81 0.950 . S
H53 C82 0.950 . S
H54 C84 0.950 . S
H55 C85 0.950 . S
C56 H38 0.951 . S
C56 C57 1.366 1_556 S
C56 C58 1.388 . S
C57 C56 1.366 1_554 S
C57 C61 1.385 1_655 S
C58 H39 0.951 . S
C58 C56 1.388 . S
C58 C59 1.372 1_556 S
C59 C58 1.372 1_554 S
C59 C60 1.404 1_655 S
C59 C62 1.503 1_655 S
C60 H40 0.950 . S
C60 C59 1.404 1_455 S
C60 C61 1.374 . S
C61 H41 0.950 . S
C61 C57 1.385 1_455 S
C61 C60 1.374 . S
C62 C59 1.503 1_455 S
C62 C63 1.373 . S
C62 C64 1.389 1_454 S
C63 H42 0.950 . S
C63 C62 1.373 . S
C63 C79 1.377 . S
C64 C62 1.389 1_656 S
C64 C65 1.524 . S
C64 C78 1.377 . S
C65 C64 1.524 . S
C65 C66 1.397 1_655 S
C65 C70 1.363 . S
C66 H43 0.950 . S
C66 C65 1.397 1_455 S
C66 C67 1.334 . S
C67 H44 0.950 . S
C67 C66 1.334 . S
C67 C68 1.287 1_455 S
C68 C67 1.287 1_655 S
C68 C69 1.524 . S
C68 H87 0.913 . S
C69 H45 0.950 . S
C69 C68 1.524 . S
C69 C70 1.415 . S
C70 H46 0.950 . S
C70 C65 1.363 . S
C70 C69 1.415 . S
C71 H47 0.951 . S
C71 C72 1.366 1_554 S
C71 C73 1.388 . S
C72 C71 1.366 1_556 S
C72 C76 1.385 1_455 S
C73 H48 0.951 . S
C73 C71 1.388 . S
C73 C74 1.375 1_554 S
C74 C73 1.375 1_556 S
C74 C75 1.399 1_455 S
C74 C77 1.510 1_455 S
C75 H49 0.950 . S
C75 C74 1.399 1_655 S
C75 C76 1.374 . S
C76 H50 0.950 . S
C76 C72 1.385 1_655 S
C76 C75 1.374 . S
C77 C74 1.510 1_655 S
C77 C78 1.381 . S
C77 C79 1.376 1_656 S
C78 H51 0.950 . S
C78 C64 1.377 . S
C78 C77 1.381 . S
C79 C63 1.377 . S
C79 C77 1.376 1_454 S
C79 C80 1.524 . S
C80 C79 1.524 . S
C80 C81 1.397 1_455 S
C80 C85 1.363 . S
C81 H52 0.950 . S
C81 C80 1.397 1_655 S
C81 C82 1.334 . S
C82 H53 0.950 . S
C82 C81 1.334 . S
C82 C83 1.287 1_655 S
C83 C82 1.287 1_455 S
C83 C84 1.524 . S
C83 H86 0.999 . S
C84 H54 0.950 . S
C84 C83 1.524 . S
C84 C85 1.415 . S
C85 H55 0.950 . S
C85 C80 1.363 . S
C85 C84 1.415 . S
H86 C83 0.999 . S
H87 C68 0.913 . S
H88 C106 0.951 . S
H89 C108 0.951 . S
H90 C110 0.950 . S
H91 C111 0.950 . S
H92 C113 0.950 . S
H93 C116 0.950 . S
H94 C117 0.950 . S
H95 C119 0.950 . S
H96 C120 0.950 . S
H97 C121 0.951 . S
H98 C123 0.951 . S
H99 C125 0.950 . S
H100 C126 0.950 . S
H101 C128 0.950 . S
H102 C131 0.950 . S
H103 C132 0.950 . S
H104 C134 0.950 . S
H105 C135 0.950 . S
C106 H88 0.951 . S
C106 C107 1.366 1_544 S
C106 C108 1.388 . S
C107 C106 1.366 1_566 S
C107 C111 1.385 . S
C108 H89 0.951 . S
C108 C106 1.388 . S
C108 C109 1.366 1_544 S
C109 C108 1.366 1_566 S
C109 C110 1.414 . S
C109 C112 1.499 1_556 S
C110 H90 0.950 . S
C110 C109 1.414 . S
C110 C111 1.374 . S
C111 H91 0.950 . S
C111 C107 1.385 . S
C111 C110 1.374 . S
C112 C109 1.499 1_554 S
C112 C113 1.373 1_554 S
C112 C114 1.389 1_565 S
C113 H92 0.950 . S
C113 C112 1.373 1_556 S
C113 C129 1.377 . S
C114 C112 1.389 1_545 S
C114 C115 1.524 . S
C114 C128 1.377 . S
C115 C114 1.524 . S
C115 C116 1.397 . S
C115 C120 1.363 . S
C116 H93 0.950 . S
C116 C115 1.397 . S
C116 C117 1.334 . S
C117 H94 0.950 . S
C117 C116 1.334 . S
C117 C118 1.287 . S
C118 C117 1.287 . S
C118 C119 1.524 . S
C118 H137 0.913 . S
C119 H95 0.950 . S
C119 C118 1.524 . S
C119 C120 1.415 . S
C120 H96 0.950 . S
C120 C115 1.363 . S
C120 C119 1.415 . S
C121 H97 0.951 . S
C121 C122 1.366 1_566 S
C121 C123 1.388 . S
C122 C121 1.366 1_544 S
C122 C126 1.385 . S
C123 H98 0.951 . S
C123 C121 1.388 . S
C123 C124 1.366 1_566 S
C124 C123 1.366 1_544 S
C124 C125 1.414 . S
C124 C127 1.499 1_554 S
C125 H99 0.950 . S
C125 C124 1.414 . S
C125 C126 1.374 . S
C126 H100 0.950 . S
C126 C122 1.385 . S
C126 C125 1.374 . S
C127 C124 1.499 1_556 S
C127 C128 1.373 1_556 S
C127 C129 1.389 1_545 S
C128 H101 0.950 . S
C128 C114 1.377 . S
C128 C127 1.373 1_554 S
C129 C113 1.377 . S
C129 C127 1.389 1_565 S
C129 C130 1.524 . S
C130 C129 1.524 . S
C130 C131 1.397 . S
C130 C135 1.363 . S
C131 H102 0.950 . S
C131 C130 1.397 . S
C131 C132 1.334 . S
C132 H103 0.950 . S
C132 C131 1.334 . S
C132 C133 1.287 . S
C133 C132 1.287 . S
C133 C134 1.524 . S
C133 H136 0.999 . S
C134 H104 0.950 . S
C134 C133 1.524 . S
C134 C135 1.415 . S
C135 H105 0.950 . S
C135 C130 1.363 . S
C135 C134 1.415 . S
H136 C133 0.999 . S
H137 C118 0.913 . S
H138 C156 0.951 . S
H139 C158 0.951 . S
H140 C160 0.950 . S
H141 C161 0.950 . S
H142 C163 0.950 . S
H143 C166 0.950 . S
H144 C167 0.950 . S
H145 C169 0.950 . S
H146 C170 0.950 . S
H147 C171 0.951 . S
H148 C173 0.951 . S
H149 C175 0.950 . S
H150 C176 0.950 . S
H151 C178 0.950 . S
H152 C181 0.950 . S
H153 C182 0.950 . S
H154 C184 0.950 . S
H155 C185 0.950 . S
C156 H138 0.951 . S
C156 C157 1.366 . S
C156 C158 1.388 . S
C157 C156 1.366 . S
C157 C161 1.385 1_556 S
C158 H139 0.951 . S
C158 C156 1.388 . S
C158 C159 1.366 . S
C159 C158 1.366 . S
C159 C160 1.414 1_556 S
C159 C162 1.499 1_556 S
C160 H140 0.950 . S
C160 C159 1.414 1_554 S
C160 C161 1.374 . S
C161 H141 0.950 . S
C161 C157 1.385 1_554 S
C161 C160 1.374 . S
C162 C159 1.499 1_554 S
C162 C163 1.373 . S
C162 C164 1.389 1_554 S
C163 H142 0.950 . S
C163 C162 1.373 . S
C163 C179 1.377 . S
C164 C162 1.389 1_556 S
C164 C165 1.524 . S
C164 C178 1.377 . S
C165 C164 1.524 . S
C165 C166 1.397 1_556 S
C165 C170 1.363 . S
C166 H143 0.950 . S
C166 C165 1.397 1_554 S
C166 C167 1.334 . S
C167 H144 0.950 . S
C167 C166 1.334 . S
C167 C168 1.287 1_554 S
C168 C167 1.287 1_556 S
C168 C169 1.524 . S
C168 H187 0.913 . S
C169 H145 0.950 . S
C169 C168 1.524 . S
C169 C170 1.415 . S
C170 H146 0.950 . S
C170 C165 1.363 . S
C170 C169 1.415 . S
C171 H147 0.951 . S
C171 C172 1.366 . S
C171 C173 1.388 . S
C172 C171 1.366 . S
C172 C176 1.385 1_554 S
C173 H148 0.951 . S
C173 C171 1.388 . S
C173 C174 1.366 . S
C174 C173 1.366 . S
C174 C175 1.414 1_554 S
C174 C177 1.499 1_554 S
C175 H149 0.950 . S
C175 C174 1.414 1_556 S
C175 C176 1.374 . S
C176 H150 0.950 . S
C176 C172 1.385 1_556 S
C176 C175 1.374 . S
C177 C174 1.499 1_556 S
C177 C178 1.373 . S
C177 C179 1.389 1_556 S
C178 H151 0.950 . S
C178 C164 1.377 . S
C178 C177 1.373 . S
C179 C163 1.377 . S
C179 C177 1.389 1_554 S
C179 C180 1.524 . S
C180 C179 1.524 . S
C180 C181 1.397 1_554 S
C180 C185 1.363 . S
C181 H152 0.950 . S
C181 C180 1.397 1_556 S
C181 C182 1.334 . S
C182 H153 0.950 . S
C182 C181 1.334 . S
C182 C183 1.287 1_556 S
C183 C182 1.287 1_554 S
C183 C184 1.524 . S
C183 H186 0.999 . S
C184 H154 0.950 . S
C184 C183 1.524 . S
C184 C185 1.415 . S
C185 H155 0.950 . S
C185 C180 1.363 . S
C185 C184 1.415 . S
H186 C183 0.999 . S
H187 C168 0.913 . S
H188 C206 0.951 . S
H189 C208 0.951 . S
H190 C210 0.950 . S
H191 C211 0.950 . S
H192 C213 0.950 . S
H193 C216 0.950 . S
H194 C217 0.950 . S
H195 C219 0.950 . S
H196 C220 0.950 . S
H197 C221 0.951 . S
H198 C223 0.951 . S
H199 C225 0.950 . S
H200 C226 0.950 . S
H201 C228 0.950 . S
H202 C231 0.950 . S
H203 C232 0.950 . S
H204 C234 0.950 . S
H205 C235 0.950 . S
C206 H188 0.951 . S
C206 C207 1.369 1_655 S
C206 C208 1.388 . S
C207 C206 1.369 1_455 S
C207 C211 1.384 1_545 S
C208 H189 0.951 . S
C208 C206 1.388 . S
C208 C209 1.366 1_545 S
C209 C208 1.366 1_565 S
C209 C210 1.414 1_655 S
C209 C212 1.499 . S
C210 H190 0.950 . S
C210 C209 1.414 1_455 S
C210 C211 1.374 . S
C211 H191 0.950 . S
C211 C207 1.384 1_565 S
C211 C210 1.374 . S
C212 C209 1.499 . S
C212 C213 1.373 1_665 S
C212 C214 1.389 . S
C213 H192 0.950 . S
C213 C212 1.373 1_445 S
C213 C229 1.377 . S
C214 C212 1.389 . S
C214 C215 1.524 . S
C214 C228 1.377 . S
C215 C214 1.524 . S
C215 C216 1.397 . S
C215 C220 1.363 . S
C216 H193 0.950 . S
C216 C215 1.397 . S
C216 C217 1.334 . S
C217 H194 0.950 . S
C217 C216 1.334 . S
C217 C218 1.287 . S
C218 C217 1.287 . S
C218 C219 1.524 . S
C218 H237 0.913 . S
C219 H195 0.950 . S
C219 C218 1.524 . S
C219 C220 1.415 . S
C220 H196 0.950 . S
C220 C215 1.363 . S
C220 C219 1.415 . S
C221 H197 0.951 . S
C221 C222 1.365 . S
C221 C223 1.388 . S
C222 C221 1.365 . S
C222 C226 1.385 1_465 S
C223 H198 0.951 . S
C223 C221 1.388 . S
C223 C224 1.366 1_565 S
C224 C223 1.366 1_545 S
C224 C225 1.414 1_455 S
C224 C227 1.499 . S
C225 H199 0.950 . S
C225 C224 1.414 1_655 S
C225 C226 1.374 . S
C226 H200 0.950 . S
C226 C222 1.385 1_645 S
C226 C225 1.374 . S
C227 C224 1.499 . S
C227 C228 1.373 1_445 S
C227 C229 1.389 . S
C228 H201 0.950 . S
C228 C214 1.377 . S
C228 C227 1.373 1_665 S
C229 C213 1.377 . S
C229 C227 1.389 . S
C229 C230 1.524 . S
C230 C229 1.524 . S
C230 C231 1.397 . S
C230 C235 1.363 . S
C231 H202 0.950 . S
C231 C230 1.397 . S
C231 C232 1.334 . S
C232 H203 0.950 . S
C232 C231 1.334 . S
C232 C233 1.287 . S
C233 C232 1.287 . S
C233 C234 1.524 . S
C233 H236 0.999 . S
C234 H204 0.950 . S
C234 C233 1.524 . S
C234 C235 1.415 . S
C235 H205 0.950 . S
C235 C230 1.363 . S
C235 C234 1.415 . S
H236 C233 0.999 . S
H237 C218 0.913 . S
C57 C18 0.427 . S
C72 C14 0.427 . S
C107 C8 2.167 . S
C122 C29 2.167 . S
C157 C27 1.911 . S
C172 C6 1.911 . S
C207 C1 1.488 1_445 S
C222 C30 1.490 1_565 S
