# Generated by pormake.
# Topology mdf, (4)-cn, num edge types: 1
# Building blocks:
#     Node 0, Type 0, BuildingBlock: NAHDIM_clean_sbu_0, # of connection points: 4
#     Node 1, Type 0, BuildingBlock: NAHDIM_clean_sbu_0, # of connection points: 4
#     Node 2, Type 0, BuildingBlock: NAHDIM_clean_sbu_0, # of connection points: 4
#     Node 3, Type 0, BuildingBlock: NAHDIM_clean_sbu_0, # of connection points: 4
#     Node 4, Type 0, BuildingBlock: NAHDIM_clean_sbu_0, # of connection points: 4
#     Node 5, Type 0, BuildingBlock: NAHDIM_clean_sbu_0, # of connection points: 4
#     Node 6, Type 0, BuildingBlock: NAHDIM_clean_sbu_0, # of connection points: 4
#     Node 7, Type 0, BuildingBlock: NAHDIM_clean_sbu_0, # of connection points: 4
#     Edge 8, Type (0, 0), BuildingBlock: EYOCIG_clean_linker_4, # of connection points: 2
#     Edge 9, Type (0, 0), BuildingBlock: EYOCIG_clean_linker_4, # of connection points: 2
#     Edge 10, Type (0, 0), BuildingBlock: EYOCIG_clean_linker_4, # of connection points: 2
#     Edge 11, Type (0, 0), BuildingBlock: EYOCIG_clean_linker_4, # of connection points: 2
#     Edge 12, Type (0, 0), BuildingBlock: EYOCIG_clean_linker_4, # of connection points: 2
#     Edge 13, Type (0, 0), BuildingBlock: EYOCIG_clean_linker_4, # of connection points: 2
#     Edge 14, Type (0, 0), BuildingBlock: EYOCIG_clean_linker_4, # of connection points: 2
#     Edge 15, Type (0, 0), BuildingBlock: EYOCIG_clean_linker_4, # of connection points: 2
#     Edge 16, Type (0, 0), BuildingBlock: EYOCIG_clean_linker_4, # of connection points: 2
#     Edge 17, Type (0, 0), BuildingBlock: EYOCIG_clean_linker_4, # of connection points: 2
#     Edge 18, Type (0, 0), BuildingBlock: EYOCIG_clean_linker_4, # of connection points: 2
#     Edge 19, Type (0, 0), BuildingBlock: EYOCIG_clean_linker_4, # of connection points: 2
#     Edge 20, Type (0, 0), BuildingBlock: EYOCIG_clean_linker_4, # of connection points: 2
#     Edge 21, Type (0, 0), BuildingBlock: EYOCIG_clean_linker_4, # of connection points: 2
#     Edge 22, Type (0, 0), BuildingBlock: EYOCIG_clean_linker_4, # of connection points: 2
#     Edge 23, Type (0, 0), BuildingBlock: EYOCIG_clean_linker_4, # of connection points: 2
# Relax obj value: 0.050
# Max RMSD: 0.056
# Mean RMSD: 0.056
data_MOF--net-mdf--node1-NAHDIM_clean_sbu_0--edge1-EYOCIG_clean_linker_4
_symmetry_space_group_name_H-M    P1
_symmetry_Int_Tables_number       1
_symmetry_cell_setting            triclinic
loop_
_symmetry_equiv_pos_as_xyz
'x, y, z'
_cell_length_a     28.223845
_cell_length_b     28.227576
_cell_length_c     11.939269
_cell_angle_alpha  90.000188
_cell_angle_beta   89.944082
_cell_angle_gamma 97.391113
loop_
_atom_site_label
_atom_site_type_symbol
_atom_site_fract_x
_atom_site_fract_y
_atom_site_fract_z
_atom_type_partial_charge
C0 C 0.20781 0.61056 0.52518 0.0
O1 O 0.19141 0.61687 0.42421 0.0
O2 O 0.28816 0.58836 0.29019 0.0
Zn3 Zn 0.25881 0.54344 0.41096 0.0
O4 O 0.20058 0.50073 0.35388 0.0
C5 C 0.34182 0.49273 0.40381 0.0
O6 O 0.34589 0.50935 0.3012 0.0
O7 O 0.23781 0.58136 0.54068 0.0
C8 C 0.20345 0.45851 0.32023 0.0
O9 O 0.24487 0.44218 0.31867 0.0
C10 C 0.28006 0.58073 0.18672 0.0
O11 O 0.25095 0.54322 0.15464 0.0
O12 O 0.30795 0.50261 0.4662 0.0
C13 C 0.38023 0.78313 0.46157 0.0
O14 O 0.3743 0.7999 0.5624 0.0
O15 O 0.40212 0.70255 0.69659 0.0
Zn16 Zn 0.44703 0.73181 0.57566 0.0
O17 O 0.4898 0.79003 0.63263 0.0
C18 C 0.49771 0.64878 0.58275 0.0
O19 O 0.48115 0.64483 0.68545 0.0
O20 O 0.40909 0.75278 0.44608 0.0
C21 C 0.53208 0.78717 0.6658 0.0
O22 O 0.54845 0.74577 0.66691 0.0
C23 C 0.40988 0.71056 0.80005 0.0
O24 O 0.44753 0.73951 0.832 0.0
O25 O 0.4878 0.68259 0.52031 0.0
C26 C 0.28171 0.88159 0.02474 0.0
O27 O 0.29844 0.87559 0.92388 0.0
O28 O 0.2011 0.90348 0.7899 0.0
Zn29 Zn 0.23047 0.94842 0.91049 0.0
O30 O 0.28874 0.99108 0.85316 0.0
C31 C 0.14753 -0.00077 0.90348 0.0
O32 O 0.14349 0.9826 0.80091 0.0
O33 O 0.25141 0.9105 0.04019 0.0
C34 C 0.28588 0.03326 0.81931 0.0
O35 O 0.24446 0.04958 0.81766 0.0
C36 C 0.20907 0.91117 0.68636 0.0
O37 O 0.23805 0.94876 0.65408 0.0
O38 O 0.18136 0.98931 0.96581 0.0
C39 C 0.10914 0.70896 0.96232 0.0
O40 O 0.1154 0.69254 0.06331 0.0
O41 O 0.08682 0.78929 0.19709 0.0
Zn42 Zn 0.04195 0.75994 0.0764 0.0
O43 O -0.00076 0.7017 0.13366 0.0
C44 C 0.99111 0.84286 0.0834 0.0
O45 O 0.00752 0.84683 0.18615 0.0
O46 O 0.07994 0.73896 0.94675 0.0
C47 C 0.95686 0.70446 0.16643 0.0
O48 O 0.94032 0.74577 0.16693 0.0
C49 C 0.07904 0.78134 0.3006 0.0
O50 O 0.04137 0.75243 0.33276 0.0
O51 O 0.00116 0.80908 0.021 0.0
C52 C 0.70751 0.1101 0.02447 0.0
O53 O 0.69086 0.11605 0.92357 0.0
O54 O 0.78828 0.08808 0.78973 0.0
Zn55 Zn 0.75885 0.04321 0.91051 0.0
O56 O 0.70063 0.00053 0.85328 0.0
C57 C 0.84181 0.99238 0.90381 0.0
O58 O 0.84592 0.00887 0.8011 0.0
O59 O 0.73779 0.08119 0.04004 0.0
C60 C 0.70342 0.9582 0.82031 0.0
O61 O 0.74476 0.9417 0.81956 0.0
C62 C 0.78055 0.08018 0.68622 0.0
O63 O 0.75183 0.04239 0.65414 0.0
O64 O 0.80794 0.00238 0.96606 0.0
C65 C 0.88031 0.28306 0.96163 0.0
O66 O 0.87423 0.29963 0.0626 0.0
O67 O 0.9024 0.20249 0.19628 0.0
Zn68 Zn 0.9473 0.23187 0.07545 0.0
O69 O 0.99 0.29009 0.13268 0.0
C70 C -0.00189 0.14892 0.08222 0.0
O71 O 0.98161 0.14491 0.18496 0.0
O72 O 0.90933 0.25289 0.94596 0.0
C73 C 0.03234 0.2873 0.16547 0.0
O74 O 0.04885 0.24597 0.16601 0.0
C75 C 0.91037 0.21016 0.29979 0.0
O76 O 0.94824 0.23878 0.33182 0.0
O77 O 0.98812 0.18273 0.01989 0.0
C78 C 0.78168 0.38172 0.52524 0.0
O79 O 0.79882 0.3762 0.42455 0.0
O80 O 0.70076 0.40336 0.29022 0.0
Zn81 Zn 0.73005 0.44821 0.41105 0.0
O82 O 0.78833 0.49091 0.35387 0.0
C83 C 0.64711 0.49905 0.40412 0.0
O84 O 0.64315 0.48258 0.3014 0.0
O85 O 0.75098 0.41021 0.54062 0.0
C86 C 0.7856 0.5333 0.32126 0.0
O87 O 0.74429 0.54985 0.32087 0.0
C88 C 0.70848 0.4114 0.18672 0.0
O89 O 0.73709 0.44931 0.15475 0.0
O90 O 0.68088 0.48903 0.4665 0.0
C91 C 0.60867 0.20864 0.46116 0.0
O92 O 0.61414 0.19149 0.5618 0.0
O93 O 0.58698 0.28956 0.69633 0.0
Zn94 Zn 0.54215 0.26029 0.57547 0.0
O95 O 0.49943 0.20203 0.63264 0.0
C96 C 0.49125 0.34319 0.58261 0.0
O97 O 0.50754 0.34706 0.68547 0.0
O98 O 0.58019 0.23935 0.44587 0.0
C99 C 0.45688 0.20464 0.66429 0.0
O100 O 0.4401 0.24584 0.66361 0.0
C101 C 0.57883 0.28191 0.79982 0.0
O102 O 0.54083 0.25342 0.83171 0.0
O103 O 0.50139 0.30949 0.5201 0.0
C104 C 0.35464 0.66329 0.95235 0.0
C105 C 0.37972 0.68476 0.88242 0.0
C106 C 0.32736 0.63601 0.03455 0.0
C107 C 0.30588 0.61091 0.10442 0.0
C108 C 0.33691 0.81744 0.28923 0.0
C109 C 0.35675 0.80168 0.36769 0.0
C110 C 0.31602 0.83832 0.19716 0.0
C111 C 0.30026 0.85814 0.11867 0.0
C112 C 0.13433 0.82862 0.45255 0.0
C113 C 0.10922 0.80714 0.3828 0.0
C114 C 0.16166 0.8559 0.53455 0.0
C115 C 0.18319 0.881 0.60426 0.0
C116 C 0.15252 0.67466 0.78987 0.0
C117 C 0.13266 0.69039 0.86841 0.0
C118 C 0.17343 0.65381 0.69769 0.0
C119 C 0.1892 0.634 0.61913 0.0
C120 C 0.82786 0.13548 0.53411 0.0
C121 C 0.80637 0.11037 0.60397 0.0
C122 C 0.85513 0.16279 0.45195 0.0
C123 C 0.88021 0.1843 0.38206 0.0
C124 C 0.83694 0.31745 0.78947 0.0
C125 C 0.85681 0.30166 0.86785 0.0
C126 C 0.81602 0.33837 0.6975 0.0
C127 C 0.80024 0.35823 0.61912 0.0
C128 C 0.66125 0.35624 0.03445 0.0
C129 C 0.68269 0.38127 0.10441 0.0
C130 C 0.63402 0.32905 0.95217 0.0
C131 C 0.60897 0.30764 0.88218 0.0
C132 C 0.67305 0.15344 0.19674 0.0
C133 C 0.68887 0.13359 0.11831 0.0
C134 C 0.65209 0.17434 0.28878 0.0
C135 C 0.6322 0.1901 0.36723 0.0
C136 C 0.4017 0.43478 0.47499 0.0
C137 C 0.3742 0.46121 0.44322 0.0
C138 C 0.43336 0.40309 0.51122 0.0
C139 C 0.45977 0.37557 0.54305 0.0
C140 C 0.62783 0.89903 0.75931 0.0
C141 C 0.66121 0.92743 0.78789 0.0
C142 C 0.5914 0.86268 0.72661 0.0
C143 C 0.56293 0.82934 0.6981 0.0
C144 C 0.05605 0.08902 0.01079 0.0
C145 C 0.02963 0.11655 0.0426 0.0
C146 C 0.08771 0.0573 0.97463 0.0
C147 C 0.11519 0.03082 0.9429 0.0
C148 C 0.89764 0.62887 0.22747 0.0
C149 C 0.92607 0.66224 0.19888 0.0
C150 C 0.86122 0.59248 0.26022 0.0
C151 C 0.82784 0.56406 0.28881 0.0
C152 C 0.36144 0.09255 0.75832 0.0
C153 C 0.32808 0.0641 0.78694 0.0
C154 C 0.3978 0.12899 0.72552 0.0
C155 C 0.42618 0.16239 0.69689 0.0
C156 C 0.9016 0.93443 0.97548 0.0
C157 C 0.87413 0.96086 0.94351 0.0
C158 C 0.93324 0.90275 0.01189 0.0
C159 C 0.95963 0.87524 0.04381 0.0
C160 C 0.09153 0.36286 0.22657 0.0
C161 C 0.06312 0.3295 0.19795 0.0
C162 C 0.12791 0.39925 0.25934 0.0
C163 C 0.16126 0.42768 0.2879 0.0
C164 C 0.55561 0.5888 0.51157 0.0
C165 C 0.5292 0.61636 0.5433 0.0
C166 C 0.58727 0.55707 0.47542 0.0
C167 C 0.61477 0.53061 0.44365 0.0
loop_
_geom_bond_atom_site_label_1
_geom_bond_atom_site_label_2
_geom_bond_distance
_geom_bond_site_symmetry_2
_ccdc_geom_bond_type
C0 O1 1.160 . S
C0 O7 1.185 . S
O1 C0 1.160 . S
O2 Zn3 1.899 . S
O2 C10 1.284 . S
Zn3 O2 1.899 . S
Zn3 O4 2.032 . S
Zn3 O7 2.086 . S
Zn3 O12 1.977 . S
O4 Zn3 2.032 . S
O4 C8 1.278 . S
C5 O6 1.203 . S
C5 O12 1.267 . S
O6 C5 1.203 . S
O7 C0 1.185 . S
O7 Zn3 2.086 . S
C8 O4 1.278 . S
C8 O9 1.211 . S
O9 C8 1.211 . S
C10 O2 1.284 . S
C10 O11 1.273 . S
O11 C10 1.273 . S
O12 Zn3 1.977 . S
O12 C5 1.267 . S
C13 O14 1.160 . S
C13 O20 1.185 . S
O14 C13 1.160 . S
O15 Zn16 1.899 . S
O15 C23 1.284 . S
Zn16 O15 1.899 . S
Zn16 O17 2.032 . S
Zn16 O20 2.086 . S
Zn16 O25 1.977 . S
O17 Zn16 2.032 . S
O17 C21 1.278 . S
C18 O19 1.203 . S
C18 O25 1.267 . S
O19 C18 1.203 . S
O20 C13 1.185 . S
O20 Zn16 2.086 . S
C21 O17 1.278 . S
C21 O22 1.211 . S
O22 C21 1.211 . S
C23 O15 1.284 . S
C23 O24 1.273 . S
O24 C23 1.273 . S
O25 Zn16 1.977 . S
O25 C18 1.267 . S
C26 O27 1.160 1_554 S
C26 O33 1.185 . S
O27 C26 1.160 1_556 S
O28 Zn29 1.899 . S
O28 C36 1.284 . S
Zn29 O28 1.899 . S
Zn29 O30 2.032 . S
Zn29 O33 2.086 1_556 S
Zn29 O38 1.977 . S
O30 Zn29 2.032 . S
O30 C34 1.278 1_565 S
C31 O32 1.203 . S
C31 O38 1.267 1_545 S
O32 C31 1.203 . S
O33 C26 1.185 . S
O33 Zn29 2.086 1_554 S
C34 O30 1.278 1_545 S
C34 O35 1.211 . S
O35 C34 1.211 . S
C36 O28 1.284 . S
C36 O37 1.273 . S
O37 C36 1.273 . S
O38 Zn29 1.977 . S
O38 C31 1.267 1_565 S
C39 O40 1.160 1_556 S
C39 O46 1.185 . S
O40 C39 1.160 1_554 S
O41 Zn42 1.899 . S
O41 C49 1.284 . S
Zn42 O41 1.899 . S
Zn42 O43 2.032 . S
Zn42 O46 2.086 1_554 S
Zn42 O51 1.977 . S
O43 Zn42 2.032 . S
O43 C47 1.278 1_455 S
C44 O45 1.203 . S
C44 O51 1.267 1_655 S
O45 C44 1.203 . S
O46 C39 1.185 . S
O46 Zn42 2.086 1_556 S
C47 O43 1.278 1_655 S
C47 O48 1.211 . S
O48 C47 1.211 . S
C49 O41 1.284 . S
C49 O50 1.273 . S
O50 C49 1.273 . S
O51 Zn42 1.977 . S
O51 C44 1.267 1_455 S
C52 O53 1.160 1_554 S
C52 O59 1.185 . S
O53 C52 1.160 1_556 S
O54 Zn55 1.899 . S
O54 C62 1.284 . S
Zn55 O54 1.899 . S
Zn55 O56 2.032 . S
Zn55 O59 2.086 1_556 S
Zn55 O64 1.977 . S
O56 Zn55 2.032 . S
O56 C60 1.278 1_545 S
C57 O58 1.203 . S
C57 O64 1.267 1_565 S
O58 C57 1.203 . S
O59 C52 1.185 . S
O59 Zn55 2.086 1_554 S
C60 O56 1.278 1_565 S
C60 O61 1.211 . S
O61 C60 1.211 . S
C62 O54 1.284 . S
C62 O63 1.273 . S
O63 C62 1.273 . S
O64 Zn55 1.977 . S
O64 C57 1.267 1_545 S
C65 O66 1.160 1_556 S
C65 O72 1.185 . S
O66 C65 1.160 1_554 S
O67 Zn68 1.899 . S
O67 C75 1.284 . S
Zn68 O67 1.899 . S
Zn68 O69 2.032 . S
Zn68 O72 2.086 1_554 S
Zn68 O77 1.977 . S
O69 Zn68 2.032 . S
O69 C73 1.278 1_655 S
C70 O71 1.203 . S
C70 O77 1.267 1_455 S
O71 C70 1.203 . S
O72 C65 1.185 . S
O72 Zn68 2.086 1_556 S
C73 O69 1.278 1_455 S
C73 O74 1.211 . S
O74 C73 1.211 . S
C75 O67 1.284 . S
C75 O76 1.273 . S
O76 C75 1.273 . S
O77 Zn68 1.977 . S
O77 C70 1.267 1_655 S
C78 O79 1.160 . S
C78 O85 1.185 . S
O79 C78 1.160 . S
O80 Zn81 1.899 . S
O80 C88 1.284 . S
Zn81 O80 1.899 . S
Zn81 O82 2.032 . S
Zn81 O85 2.086 . S
Zn81 O90 1.977 . S
O82 Zn81 2.032 . S
O82 C86 1.278 . S
C83 O84 1.203 . S
C83 O90 1.267 . S
O84 C83 1.203 . S
O85 C78 1.185 . S
O85 Zn81 2.086 . S
C86 O82 1.278 . S
C86 O87 1.211 . S
O87 C86 1.211 . S
C88 O80 1.284 . S
C88 O89 1.273 . S
O89 C88 1.273 . S
O90 Zn81 1.977 . S
O90 C83 1.267 . S
C91 O92 1.160 . S
C91 O98 1.185 . S
O92 C91 1.160 . S
O93 Zn94 1.899 . S
O93 C101 1.284 . S
Zn94 O93 1.899 . S
Zn94 O95 2.032 . S
Zn94 O98 2.086 . S
Zn94 O103 1.977 . S
O95 Zn94 2.032 . S
O95 C99 1.278 . S
C96 O97 1.203 . S
C96 O103 1.267 . S
O97 C96 1.203 . S
O98 C91 1.185 . S
O98 Zn94 2.086 . S
C99 O95 1.278 . S
C99 O100 1.211 . S
O100 C99 1.211 . S
C101 O93 1.284 . S
C101 O102 1.273 . S
O102 C101 1.273 . S
O103 Zn94 1.977 . S
O103 C96 1.267 . S
C104 C105 1.170 . S
C104 C106 1.380 1_556 S
C105 C104 1.170 . S
C106 C104 1.380 1_554 S
C106 C107 1.170 . S
C107 C106 1.170 . S
C108 C109 1.170 . S
C108 C110 1.380 . S
C109 C108 1.170 . S
C110 C108 1.380 . S
C110 C111 1.170 . S
C111 C110 1.170 . S
C112 C113 1.170 . S
C112 C114 1.380 . S
C113 C112 1.170 . S
C114 C112 1.380 . S
C114 C115 1.170 . S
C115 C114 1.170 . S
C116 C117 1.170 . S
C116 C118 1.380 . S
C117 C116 1.170 . S
C118 C116 1.380 . S
C118 C119 1.170 . S
C119 C118 1.170 . S
C120 C121 1.170 . S
C120 C122 1.380 . S
C121 C120 1.170 . S
C122 C120 1.380 . S
C122 C123 1.170 . S
C123 C122 1.170 . S
C124 C125 1.170 . S
C124 C126 1.380 . S
C125 C124 1.170 . S
C126 C124 1.380 . S
C126 C127 1.170 . S
C127 C126 1.170 . S
C128 C129 1.170 . S
C128 C130 1.380 1_554 S
C129 C128 1.170 . S
C130 C128 1.380 1_556 S
C130 C131 1.170 . S
C131 C130 1.170 . S
C132 C133 1.170 . S
C132 C134 1.380 . S
C133 C132 1.170 . S
C134 C132 1.380 . S
C134 C135 1.170 . S
C135 C134 1.170 . S
C136 C137 1.170 . S
C136 C138 1.380 . S
C137 C136 1.170 . S
C138 C136 1.380 . S
C138 C139 1.170 . S
C139 C138 1.170 . S
C140 C141 1.170 . S
C140 C142 1.380 . S
C141 C140 1.170 . S
C142 C140 1.380 . S
C142 C143 1.170 . S
C143 C142 1.170 . S
C144 C145 1.170 . S
C144 C146 1.380 1_554 S
C145 C144 1.170 . S
C146 C144 1.380 1_556 S
C146 C147 1.170 . S
C147 C146 1.170 . S
C148 C149 1.170 . S
C148 C150 1.380 . S
C149 C148 1.170 . S
C150 C148 1.380 . S
C150 C151 1.170 . S
C151 C150 1.170 . S
C152 C153 1.170 . S
C152 C154 1.380 . S
C153 C152 1.170 . S
C154 C152 1.380 . S
C154 C155 1.170 . S
C155 C154 1.170 . S
C156 C157 1.170 . S
C156 C158 1.380 1_556 S
C157 C156 1.170 . S
C158 C156 1.380 1_554 S
C158 C159 1.170 . S
C159 C158 1.170 . S
C160 C161 1.170 . S
C160 C162 1.380 . S
C161 C160 1.170 . S
C162 C160 1.380 . S
C162 C163 1.170 . S
C163 C162 1.170 . S
C164 C165 1.170 . S
C164 C166 1.380 . S
C165 C164 1.170 . S
C166 C164 1.380 . S
C166 C167 1.170 . S
C167 C166 1.170 . S
C105 C23 1.413 . S
C107 C10 1.407 . S
C109 C13 1.412 . S
C111 C26 1.422 . S
C113 C49 1.396 . S
C115 C36 1.417 . S
C117 C39 1.410 . S
C119 C0 1.414 . S
C121 C62 1.395 . S
C123 C75 1.398 . S
C125 C65 1.412 . S
C127 C78 1.421 . S
C129 C88 1.397 . S
C131 C101 1.396 . S
C133 C52 1.418 . S
C135 C91 1.428 . S
C137 C5 1.425 . S
C139 C96 1.443 . S
C141 C60 1.439 . S
C143 C21 1.436 . S
C145 C70 1.446 . S
C147 C31 1.423 . S
C149 C47 1.456 . S
C151 C86 1.458 . S
C153 C34 1.447 . S
C155 C99 1.444 . S
C157 C57 1.440 . S
C159 C44 1.427 . S
C161 C73 1.428 . S
C163 C8 1.426 . S
C165 C18 1.420 . S
C167 C83 1.456 . S
