# Generated by pormake.
# Topology qtz-x, (6)-cn, num edge types: 1
# Building blocks:
#     Node 0, Type 0, BuildingBlock: LEVNOQ01_clean_sbu_1, # of connection points: 6
#     Node 1, Type 0, BuildingBlock: LEVNOQ01_clean_sbu_1, # of connection points: 6
#     Node 2, Type 0, BuildingBlock: LEVNOQ01_clean_sbu_1, # of connection points: 6
#     Edge 3, Type (0, 0), BuildingBlock: KIFKEQ_clean_linker_1, # of connection points: 2
#     Edge 4, Type (0, 0), BuildingBlock: KIFKEQ_clean_linker_1, # of connection points: 2
#     Edge 5, Type (0, 0), BuildingBlock: KIFKEQ_clean_linker_1, # of connection points: 2
#     Edge 6, Type (0, 0), BuildingBlock: KIFKEQ_clean_linker_1, # of connection points: 2
#     Edge 7, Type (0, 0), BuildingBlock: KIFKEQ_clean_linker_1, # of connection points: 2
#     Edge 8, Type (0, 0), BuildingBlock: KIFKEQ_clean_linker_1, # of connection points: 2
#     Edge 9, Type (0, 0), BuildingBlock: KIFKEQ_clean_linker_1, # of connection points: 2
#     Edge 10, Type (0, 0), BuildingBlock: KIFKEQ_clean_linker_1, # of connection points: 2
#     Edge 11, Type (0, 0), BuildingBlock: KIFKEQ_clean_linker_1, # of connection points: 2
# Relax obj value: 0.267
# Max RMSD: 0.266
# Mean RMSD: 0.263
data_MOF--net-qtz-x--node1-LEVNOQ01_clean_sbu_1--edge1-KIFKEQ_clean_linker_1
_symmetry_space_group_name_H-M    P1
_symmetry_Int_Tables_number       1
_symmetry_cell_setting            triclinic
loop_
_symmetry_equiv_pos_as_xyz
'x, y, z'
_cell_length_a     16.116409
_cell_length_b     15.998902
_cell_length_c     39.372043
_cell_angle_alpha  95.028938
_cell_angle_beta   94.823932
_cell_angle_gamma 119.8967
loop_
_atom_site_label
_atom_site_type_symbol
_atom_site_fract_x
_atom_site_fract_y
_atom_site_fract_z
_atom_type_partial_charge
O0 O 0.78579 0.23297 0.08441 0.0
Mg1 Mg 0.92621 0.263 0.09552 0.0
O2 O 0.82874 0.37699 0.11307 0.0
Mg3 Mg 0.9618 0.42055 0.1564 0.0
O4 O 0.95955 0.27814 0.14664 0.0
O5 O 0.94315 0.15423 0.10978 0.0
O6 O 0.09562 0.46198 0.19774 0.0
O7 O 0.85615 0.34703 0.19663 0.0
Mg8 Mg -0.01823 0.56575 0.21768 0.0
O9 O -0.02898 0.56775 0.16643 0.0
O10 O 0.10854 0.57311 0.23901 0.0
O11 O 0.85138 0.4619 0.23055 0.0
O12 O -0.01028 0.68838 0.20593 0.0
C13 C 0.08078 0.46479 0.08765 0.0
C14 C 0.77168 0.30344 0.09006 0.0
C15 C 0.95821 0.19679 0.14097 0.0
C16 C 0.13851 0.5198 0.22604 0.0
C17 C 0.82061 0.37287 0.22046 0.0
C18 C -0.02292 0.65108 0.17415 0.0
O19 O 0.03485 0.37598 0.07414 0.0
O20 O 0.06525 0.49322 0.11647 0.0
O21 O 0.6078 0.19861 0.45213 0.0
Mg22 Mg 0.49764 0.05073 0.4472 0.0
O23 O 0.66038 0.09923 0.45751 0.0
Mg24 Mg 0.55847 0.00844 0.49757 0.0
O25 O 0.41214 0.01354 0.48443 0.0
O26 O 0.37224 0.03994 0.43158 0.0
O27 O 0.46751 0.91387 0.53749 0.0
O28 O 0.61533 0.14798 0.53748 0.0
Mg29 Mg 0.68139 -0.00361 0.56256 0.0
O30 O 0.69298 0.00042 0.51245 0.0
O31 O 0.55634 0.86536 0.56592 0.0
O32 O 0.69414 0.12977 0.58283 0.0
O33 O 0.79955 -0.00755 0.54995 0.0
C34 C 0.49232 0.86494 0.42724 0.0
C35 C 0.66904 0.17465 0.44601 0.0
C36 C 0.352 0.01941 0.46181 0.0
C37 C 0.4756 0.85851 0.55731 0.0
C38 C 0.6626 0.17806 0.56805 0.0
C39 C 0.77052 -0.00377 0.51889 0.0
O40 O 0.50098 0.93839 0.41454 0.0
O41 O 0.49937 0.86651 0.45967 0.0
O42 O 0.45441 0.74824 0.881 0.0
Mg43 Mg 0.53448 0.67951 0.87722 0.0
O44 O 0.36043 0.59078 0.86644 0.0
Mg45 Mg 0.43761 0.54434 0.82546 0.0
O46 O 0.58898 0.68255 0.83206 0.0
O47 O 0.67627 0.77211 0.88338 0.0
O48 O 0.50261 0.49014 0.78484 0.0
O49 O 0.39765 0.62453 0.78378 0.0
Mg50 Mg 0.29245 0.4471 0.7755 0.0
O51 O 0.29639 0.39355 0.81954 0.0
O52 O 0.38667 0.44637 0.74136 0.0
O53 O 0.2407 0.5433 0.77707 0.0
O54 O 0.18345 0.31188 0.77219 0.0
C55 C 0.50121 0.49566 0.89759 0.0
C56 C 0.3757 0.67156 0.88233 0.0
C57 C 0.66953 0.74846 0.85071 0.0
C58 C 0.46892 0.46026 0.75299 0.0
C59 C 0.31724 0.61517 0.77125 0.0
C60 C 0.21837 0.317 0.80349 0.0
O61 O 0.5108 0.57548 0.91047 0.0
O62 O 0.48693 0.4723 0.86506 0.0
H63 H 0.81382 0.63851 0.1447 0.0
H64 H 0.12218 0.79193 0.14721 0.0
H65 H 0.81362 0.78855 0.14549 0.0
H66 H 0.12597 0.94344 0.14883 0.0
H67 H 0.12827 0.22028 0.1686 0.0
H68 H 0.1332 0.0733 0.16718 0.0
H69 H 0.82516 0.91342 0.17325 0.0
H70 H 0.82346 0.06266 0.17356 0.0
C71 C 0.88146 0.70495 0.14388 0.0
C72 C -0.03126 0.70587 0.14813 0.0
C73 C 0.88268 0.79284 0.14624 0.0
C74 C -0.02829 0.88237 0.15262 0.0
C75 C 0.05613 0.87912 0.14787 0.0
C76 C 0.05415 0.79087 0.14529 0.0
C77 C 0.0628 0.15366 0.17118 0.0
C78 C -0.0257 0.15015 0.1685 0.0
C79 C 0.06398 0.06703 0.16869 0.0
C80 C -0.02362 0.97647 0.16468 0.0
C81 C 0.89271 0.97842 0.17179 0.0
C82 C 0.89214 0.06541 0.17394 0.0
H83 H 0.17984 0.89476 0.4241 0.0
H84 H 0.31642 0.10969 0.51567 0.0
H85 H 0.02814 0.89132 0.42807 0.0
H86 H 0.16373 0.10575 0.5202 0.0
H87 H 0.9228 0.15778 0.50467 0.0
H88 H 0.06578 0.15927 0.48774 0.0
H89 H 0.90019 0.84484 0.4626 0.0
H90 H 0.75759 0.84473 0.47879 0.0
C91 C 0.17617 0.93965 0.44551 0.0
C92 C 0.25855 0.00233 0.46961 0.0
C93 C 0.08982 0.93808 0.44769 0.0
C94 C 0.08498 9e-05 0.47385 0.0
C95 C 0.16643 0.05918 0.49916 0.0
C96 C 0.25293 0.0601 0.49709 0.0
C97 C 0.91613 0.08992 0.4935 0.0
C98 C 0.83044 0.0011 0.49286 0.0
C99 C -0.00182 0.09038 0.48468 0.0
C100 C -0.00529 0.00186 0.4752 0.0
C101 C 0.90517 0.91413 0.47012 0.0
C102 C 0.82318 0.91392 0.47888 0.0
H103 H 0.8384 0.75203 0.86026 0.0
H104 H 0.6868 0.87189 0.80653 0.0
H105 H -0.00648 0.88878 0.85096 0.0
H106 H 0.84125 0.00906 0.79768 0.0
H107 H 0.09152 0.29263 0.84666 0.0
H108 H 0.9593 0.13298 0.85424 0.0
H109 H 0.0952 -0.00622 0.80278 0.0
H110 H 0.22765 0.15421 0.79523 0.0
C111 C 0.83886 0.80588 0.84526 0.0
C112 C 0.75297 0.80405 0.83436 0.0
C113 C 0.92673 0.88354 0.84014 0.0
C114 C 0.92768 0.95953 0.82483 0.0
C115 C 0.84092 0.95124 0.81022 0.0
C116 C 0.75322 0.87292 0.81486 0.0
C117 C 0.09506 0.22804 0.83863 0.0
C118 C 0.16777 0.23344 0.82043 0.0
C119 C 0.0194 0.13734 0.84238 0.0
C120 C 0.01702 0.05268 0.8279 0.0
C121 C 0.09604 0.0589 0.81359 0.0
C122 C 0.17153 0.14983 0.80964 0.0
H123 H 0.44732 0.79975 0.94199 0.0
H124 H 0.19182 0.53532 0.8904 0.0
H125 H 0.38175 0.77346 -0.00382 0.0
H126 H 0.12488 0.5117 0.94475 0.0
H127 H 0.01303 0.54554 0.04524 0.0
H128 H 0.08265 0.61703 -0.00518 0.0
H129 H 0.33902 0.60673 0.02814 0.0
H130 H 0.26755 0.53192 0.07806 0.0
C131 C 0.37539 0.73818 0.94182 0.0
C132 C 0.32418 0.66969 0.91178 0.0
C133 C 0.3386 0.72302 0.97297 0.0
C134 C 0.24876 0.6409 0.97439 0.0
C135 C 0.19423 0.57609 0.94401 0.0
C136 C 0.23215 0.58976 0.91298 0.0
C137 C 0.08593 0.56248 0.04244 0.0
C138 C 0.1362 0.53537 0.06555 0.0
C139 C 0.12506 0.60228 0.01356 0.0
C140 C 0.21564 0.61689 0.00782 0.0
C141 C 0.26929 0.59679 0.03238 0.0
C142 C 0.22908 0.55487 0.06094 0.0
H143 H 0.73966 0.34914 0.42283 0.0
H144 H 0.68684 0.05726 0.39641 0.0
H145 H 0.75995 0.3763 0.36337 0.0
H146 H 0.7021 0.0824 0.33662 0.0
H147 H 0.83775 0.22274 0.24006 0.0
H148 H 0.80605 0.16796 0.29591 0.0
H149 H 0.6495 0.31971 0.31026 0.0
H150 H 0.6838 0.37653 0.25499 0.0
C151 C 0.7349 0.29179 0.40447 0.0
C152 C 0.71209 0.20147 0.41428 0.0
C153 C 0.74419 0.3063 0.37025 0.0
C154 C 0.72917 0.23017 0.34501 0.0
C155 C 0.71361 0.14229 0.35536 0.0
C156 C 0.70591 0.12834 0.38976 0.0
C157 C 0.79271 0.24046 0.25445 0.0
C158 C 0.76455 0.30508 0.24359 0.0
C159 C 0.77555 0.21012 0.28668 0.0
C160 C 0.7291 0.24326 0.30815 0.0
C161 C 0.68911 0.2964 0.29493 0.0
C162 C 0.70686 0.3272 0.26295 0.0
H163 H 0.18615 0.51898 0.71383 0.0
H164 H 0.43952 0.7974 0.75572 0.0
H165 H 0.19177 0.56926 0.65716 0.0
H166 H 0.4425 0.84907 0.69859 0.0
H167 H 0.3865 0.92908 0.59547 0.0
H168 H 0.32393 0.86944 0.64835 0.0
H169 H 0.34071 0.61168 0.62086 0.0
H170 H 0.40605 0.67273 0.56872 0.0
C171 C 0.2408 0.59257 0.71127 0.0
C172 C 0.31173 0.65525 0.73939 0.0
C173 C 0.24394 0.62079 0.67874 0.0
C174 C 0.31646 0.71313 0.67382 0.0
C175 C 0.38475 0.77795 0.70212 0.0
C176 C 0.38329 0.74862 0.73465 0.0
C177 C 0.37189 0.85737 0.5999 0.0
C178 C 0.40059 0.80505 0.57825 0.0
C179 C 0.33761 0.82415 0.6303 0.0
C180 C 0.32924 0.73711 0.63867 0.0
C181 C 0.34658 0.67907 0.61483 0.0
C182 C 0.38299 0.71336 0.58492 0.0
H183 H 0.63803 0.44465 0.89859 0.0
H184 H 0.40373 0.42232 0.95025 0.0
H185 H 0.68997 0.38435 0.94602 0.0
H186 H 0.45317 0.35855 -0.00268 0.0
H187 H 0.68138 0.41182 0.09311 0.0
H188 H 0.59797 0.43861 0.04379 0.0
H189 H 0.64229 0.24195 0.97581 0.0
H190 H 0.72324 0.21457 0.02414 0.0
C191 C 0.59553 0.42293 0.9195 0.0
C192 C 0.51677 0.43699 0.92094 0.0
C193 C 0.62529 0.38897 0.94671 0.0
C194 C 0.57595 0.36775 0.97553 0.0
C195 C 0.49343 0.37617 0.97576 0.0
C196 C 0.46454 0.41134 0.94876 0.0
C197 C 0.67119 0.37299 0.06773 0.0
C198 C 0.70811 0.31064 0.06269 0.0
C199 C 0.6235 0.388 0.03955 0.0
C200 C 0.61434 0.34264 0.00596 0.0
C201 C 0.64867 0.27821 0.00129 0.0
C202 C 0.69427 0.26192 0.02925 0.0
H203 H 0.32921 0.65026 0.23154 0.0
H204 H 0.12158 0.39532 0.27051 0.0
H205 H 0.43881 0.7014 0.28511 0.0
H206 H 0.23151 0.44544 0.32459 0.0
H207 H 0.31605 0.7025 0.4157 0.0
H208 H 0.25079 0.57818 0.365 0.0
H209 H 0.5358 0.7029 0.33462 0.0
H210 H 0.5993 0.83055 0.38483 0.0
C211 C 0.31002 0.60185 0.2508 0.0
C212 C 0.21741 0.51939 0.24714 0.0
C213 C 0.37268 0.63119 0.28177 0.0
C214 C 0.34268 0.57905 0.30968 0.0
C215 C 0.2559 0.48829 0.30387 0.0
C216 C 0.19346 0.45877 0.27273 0.0
C217 C 0.36517 0.70051 0.39889 0.0
C218 C 0.4622 0.77541 0.40379 0.0
C219 C 0.32812 0.62892 0.36984 0.0
C220 C 0.38791 0.63112 0.34534 0.0
C221 C 0.48759 0.70011 0.35264 0.0
C222 C 0.52413 0.77281 0.38137 0.0
H223 H 0.65044 0.57324 0.73648 0.0
H224 H 0.39863 0.28384 0.71648 0.0
H225 H 0.71826 0.52903 0.6888 0.0
H226 H 0.46603 0.23959 0.6697 0.0
H227 H 0.52689 0.2312 0.56336 0.0
H228 H 0.49656 0.31666 0.61056 0.0
H229 H 0.76568 0.3864 0.67047 0.0
H230 H 0.7962 0.29985 0.62322 0.0
C231 C 0.61106 0.49986 0.72236 0.0
C232 C 0.51926 0.43192 0.7295 0.0
C233 C 0.64932 0.47491 0.69517 0.0
C234 C 0.59565 0.38206 0.67518 0.0
C235 C 0.50715 0.31258 0.68414 0.0
C236 C 0.46902 0.33751 0.71093 0.0
C237 C 0.58183 0.26852 0.58587 0.0
C238 C 0.66326 0.25796 0.58986 0.0
C239 C 0.56399 0.31655 0.613 0.0
C240 C 0.62804 0.35601 0.64419 0.0
C241 C 0.71525 0.356 0.64666 0.0
C242 C 0.73257 0.30671 0.61965 0.0
loop_
_geom_bond_atom_site_label_1
_geom_bond_atom_site_label_2
_geom_bond_distance
_geom_bond_site_symmetry_2
_ccdc_geom_bond_type
O0 Mg1 2.000 . S
O0 C14 1.253 . S
Mg1 O0 2.000 . S
Mg1 O4 2.180 1_655 S
Mg1 O5 2.117 . S
Mg1 O19 2.028 1_655 S
O2 Mg3 2.072 1_655 S
O2 C14 1.260 . S
Mg3 O2 2.072 1_455 S
Mg3 O4 2.099 . S
Mg3 O6 2.079 . S
Mg3 O7 2.072 1_455 S
Mg3 O9 2.099 . S
Mg3 O20 2.079 . S
O4 Mg1 2.180 1_455 S
O4 Mg3 2.099 . S
O4 C15 1.279 1_455 S
O5 Mg1 2.117 . S
O5 C15 1.250 . S
O6 Mg3 2.079 . S
O6 C16 1.264 . S
O7 Mg3 2.072 1_655 S
O7 C17 1.260 . S
Mg8 O9 2.180 . S
Mg8 O10 2.030 . S
Mg8 O11 1.990 1_455 S
Mg8 O12 2.117 1_455 S
O9 Mg3 2.099 . S
O9 Mg8 2.180 . S
O9 C18 1.279 1_455 S
O10 Mg8 2.030 . S
O10 C16 1.248 . S
O11 Mg8 1.990 1_655 S
O11 C17 1.253 . S
O12 Mg8 2.117 1_655 S
O12 C18 1.250 . S
C13 O19 1.248 . S
C13 O20 1.264 . S
C14 O0 1.253 . S
C14 O2 1.260 . S
C15 O4 1.279 1_655 S
C15 O5 1.250 . S
C16 O6 1.264 . S
C16 O10 1.248 . S
C17 O7 1.260 . S
C17 O11 1.253 . S
C18 O9 1.279 1_655 S
C18 O12 1.250 . S
O19 Mg1 2.028 1_455 S
O19 C13 1.248 . S
O20 Mg3 2.079 . S
O20 C13 1.264 . S
O21 Mg22 1.990 . S
O21 C35 1.253 . S
Mg22 O21 1.990 . S
Mg22 O25 2.180 1_545 S
Mg22 O26 2.117 . S
Mg22 O40 2.030 1_545 S
O23 Mg24 2.072 1_545 S
O23 C35 1.260 . S
Mg24 O23 2.072 1_565 S
Mg24 O25 2.099 . S
Mg24 O27 2.079 . S
Mg24 O28 2.072 1_565 S
Mg24 O30 2.099 . S
Mg24 O41 2.079 . S
O25 Mg22 2.180 1_565 S
O25 Mg24 2.099 . S
O25 C36 1.279 1_565 S
O26 Mg22 2.117 . S
O26 C36 1.250 . S
O27 Mg24 2.079 . S
O27 C37 1.264 . S
O28 Mg24 2.072 1_545 S
O28 C38 1.260 . S
Mg29 O30 2.180 1_545 S
Mg29 O31 2.030 1_545 S
Mg29 O32 1.990 . S
Mg29 O33 2.117 . S
O30 Mg24 2.099 . S
O30 Mg29 2.180 1_565 S
O30 C39 1.279 1_565 S
O31 Mg29 2.030 1_565 S
O31 C37 1.248 . S
O32 Mg29 1.990 . S
O32 C38 1.253 . S
O33 Mg29 2.117 . S
O33 C39 1.250 . S
C34 O40 1.248 . S
C34 O41 1.264 . S
C35 O21 1.253 . S
C35 O23 1.260 . S
C36 O25 1.279 1_545 S
C36 O26 1.250 . S
C37 O27 1.264 . S
C37 O31 1.248 . S
C38 O28 1.260 . S
C38 O32 1.253 . S
C39 O30 1.279 1_545 S
C39 O33 1.250 . S
O40 Mg22 2.030 1_565 S
O40 C34 1.248 . S
O41 Mg24 2.079 . S
O41 C34 1.264 . S
O42 Mg43 1.990 . S
O42 C56 1.253 . S
Mg43 O42 1.990 . S
Mg43 O46 2.180 . S
Mg43 O47 2.117 . S
Mg43 O61 2.030 . S
O44 Mg45 2.072 . S
O44 C56 1.260 . S
Mg45 O44 2.072 . S
Mg45 O46 2.099 . S
Mg45 O48 2.079 . S
Mg45 O49 2.072 . S
Mg45 O51 2.099 . S
Mg45 O62 2.079 . S
O46 Mg43 2.180 . S
O46 Mg45 2.099 . S
O46 C57 1.279 . S
O47 Mg43 2.117 . S
O47 C57 1.250 . S
O48 Mg45 2.079 . S
O48 C58 1.264 . S
O49 Mg45 2.072 . S
O49 C59 1.260 . S
Mg50 O51 2.180 . S
Mg50 O52 2.030 . S
Mg50 O53 1.990 . S
Mg50 O54 2.117 . S
O51 Mg45 2.099 . S
O51 Mg50 2.180 . S
O51 C60 1.279 . S
O52 Mg50 2.030 . S
O52 C58 1.248 . S
O53 Mg50 1.990 . S
O53 C59 1.253 . S
O54 Mg50 2.117 . S
O54 C60 1.250 . S
C55 O61 1.248 . S
C55 O62 1.264 . S
C56 O42 1.253 . S
C56 O44 1.260 . S
C57 O46 1.279 . S
C57 O47 1.250 . S
C58 O48 1.264 . S
C58 O52 1.248 . S
C59 O49 1.260 . S
C59 O53 1.253 . S
C60 O51 1.279 . S
C60 O54 1.250 . S
O61 Mg43 2.030 . S
O61 C55 1.248 . S
O62 Mg45 2.079 . S
O62 C55 1.264 . S
H63 C71 0.950 . S
H64 C76 0.950 . S
H65 C73 0.950 . S
H66 C75 0.950 . S
H67 C77 0.950 . S
H68 C79 0.950 . S
H69 C81 0.950 1_565 S
H70 C82 0.950 . S
C71 H63 0.950 . S
C71 C72 1.386 . S
C71 C73 1.391 . S
C72 C71 1.386 . S
C72 C76 1.393 1_655 S
C73 H65 0.950 . S
C73 C71 1.391 . S
C73 C74 1.400 . S
C74 C73 1.400 . S
C74 C75 1.398 1_655 S
C74 C80 1.491 1_565 S
C75 H66 0.950 . S
C75 C74 1.398 1_455 S
C75 C76 1.391 . S
C76 H64 0.950 . S
C76 C72 1.393 1_455 S
C76 C75 1.391 . S
C77 H67 0.950 . S
C77 C78 1.386 1_455 S
C77 C79 1.391 . S
C78 C77 1.386 1_655 S
C78 C82 1.393 . S
C79 H68 0.950 . S
C79 C77 1.391 . S
C79 C80 1.400 1_455 S
C80 C74 1.491 1_545 S
C80 C79 1.400 1_655 S
C80 C81 1.398 . S
C81 H69 0.950 1_545 S
C81 C80 1.398 . S
C81 C82 1.391 . S
C82 H70 0.950 . S
C82 C78 1.393 . S
C82 C81 1.391 . S
H83 C91 0.950 . S
H84 C96 0.950 . S
H85 C93 0.950 . S
H86 C95 0.950 . S
H87 C97 0.950 . S
H88 C99 0.950 . S
H89 C101 0.950 . S
H90 C102 0.950 . S
C91 H83 0.950 . S
C91 C92 1.386 1_565 S
C91 C93 1.391 . S
C92 C91 1.386 1_545 S
C92 C96 1.393 . S
C93 H85 0.950 . S
C93 C91 1.391 . S
C93 C94 1.400 1_565 S
C94 C93 1.400 1_545 S
C94 C95 1.398 . S
C94 C100 1.491 . S
C95 H86 0.950 . S
C95 C94 1.398 . S
C95 C96 1.391 . S
C96 H84 0.950 . S
C96 C92 1.393 . S
C96 C95 1.391 . S
C97 H87 0.950 . S
C97 C98 1.386 . S
C97 C99 1.391 1_655 S
C98 C97 1.386 . S
C98 C102 1.393 1_545 S
C99 H88 0.950 . S
C99 C97 1.391 1_455 S
C99 C100 1.400 . S
C100 C94 1.491 . S
C100 C99 1.400 . S
C100 C101 1.398 1_445 S
C101 H89 0.950 . S
C101 C100 1.398 1_665 S
C101 C102 1.391 . S
C102 H90 0.950 . S
C102 C98 1.393 1_565 S
C102 C101 1.391 . S
H103 C111 0.950 . S
H104 C116 0.950 . S
H105 C113 0.950 . S
H106 C115 0.950 . S
H107 C117 0.950 . S
H108 C119 0.950 1_655 S
H109 C121 0.950 . S
H110 C122 0.950 . S
C111 H103 0.950 . S
C111 C112 1.386 . S
C111 C113 1.391 . S
C112 C111 1.386 . S
C112 C116 1.393 . S
C113 H105 0.950 . S
C113 C111 1.391 . S
C113 C114 1.400 1_565 S
C114 C113 1.400 1_545 S
C114 C115 1.398 . S
C114 C120 1.491 1_655 S
C115 H106 0.950 . S
C115 C114 1.398 . S
C115 C116 1.391 1_545 S
C116 H104 0.950 . S
C116 C112 1.393 . S
C116 C115 1.391 1_565 S
C117 H107 0.950 . S
C117 C118 1.386 . S
C117 C119 1.391 . S
C118 C117 1.386 . S
C118 C122 1.393 . S
C119 H108 0.950 1_455 S
C119 C117 1.391 . S
C119 C120 1.400 . S
C120 C114 1.491 1_455 S
C120 C119 1.400 . S
C120 C121 1.398 . S
C121 H109 0.950 . S
C121 C120 1.398 . S
C121 C122 1.391 . S
C122 H110 0.950 . S
C122 C118 1.393 . S
C122 C121 1.391 . S
H123 C131 0.950 . S
H124 C136 0.950 . S
H125 C133 0.970 . S
H126 C135 0.950 . S
H127 C137 0.950 . S
H128 C139 0.950 1_556 S
H129 C141 0.950 . S
H130 C142 0.950 . S
C131 H123 0.950 . S
C131 C132 1.386 . S
C131 C133 1.391 . S
C132 C131 1.386 . S
C132 C136 1.393 . S
C133 H125 0.970 . S
C133 C131 1.391 . S
C133 C134 1.400 . S
C134 C133 1.400 . S
C134 C135 1.398 . S
C134 C140 1.491 1_556 S
C135 H126 0.950 . S
C135 C134 1.398 . S
C135 C136 1.391 . S
C136 H124 0.950 . S
C136 C132 1.393 . S
C136 C135 1.391 . S
C137 H127 0.950 . S
C137 C138 1.386 . S
C137 C139 1.391 . S
C138 C137 1.386 . S
C138 C142 1.393 . S
C139 H128 0.950 1_554 S
C139 C137 1.391 . S
C139 C140 1.400 . S
C140 C134 1.491 1_554 S
C140 C139 1.400 . S
C140 C141 1.398 . S
C141 H129 0.950 . S
C141 C140 1.398 . S
C141 C142 1.391 . S
C142 H130 0.950 . S
C142 C138 1.393 . S
C142 C141 1.391 . S
H143 C151 0.950 . S
H144 C156 0.950 . S
H145 C153 0.950 . S
H146 C155 0.950 . S
H147 C157 0.950 . S
H148 C159 0.950 . S
H149 C161 0.950 . S
H150 C162 0.950 . S
C151 H143 0.950 . S
C151 C152 1.386 . S
C151 C153 1.391 . S
C152 C151 1.386 . S
C152 C156 1.393 . S
C153 H145 0.950 . S
C153 C151 1.391 . S
C153 C154 1.400 . S
C154 C153 1.400 . S
C154 C155 1.398 . S
C154 C160 1.491 . S
C155 H146 0.950 . S
C155 C154 1.398 . S
C155 C156 1.391 . S
C156 H144 0.950 . S
C156 C152 1.393 . S
C156 C155 1.391 . S
C157 H147 0.950 . S
C157 C158 1.386 . S
C157 C159 1.391 . S
C158 C157 1.386 . S
C158 C162 1.393 . S
C159 H148 0.950 . S
C159 C157 1.391 . S
C159 C160 1.400 . S
C160 C154 1.491 . S
C160 C159 1.400 . S
C160 C161 1.398 . S
C161 H149 0.950 . S
C161 C160 1.398 . S
C161 C162 1.391 . S
C162 H150 0.950 . S
C162 C158 1.393 . S
C162 C161 1.391 . S
H163 C171 0.950 . S
H164 C176 0.950 . S
H165 C173 0.950 . S
H166 C175 0.950 . S
H167 C177 0.950 . S
H168 C179 0.950 . S
H169 C181 0.950 . S
H170 C182 0.950 . S
C171 H163 0.950 . S
C171 C172 1.386 . S
C171 C173 1.391 . S
C172 C171 1.386 . S
C172 C176 1.393 . S
C173 H165 0.950 . S
C173 C171 1.391 . S
C173 C174 1.400 . S
C174 C173 1.400 . S
C174 C175 1.398 . S
C174 C180 1.491 . S
C175 H166 0.950 . S
C175 C174 1.398 . S
C175 C176 1.391 . S
C176 H164 0.950 . S
C176 C172 1.393 . S
C176 C175 1.391 . S
C177 H167 0.950 . S
C177 C178 1.386 . S
C177 C179 1.391 . S
C178 C177 1.386 . S
C178 C182 1.393 . S
C179 H168 0.950 . S
C179 C177 1.391 . S
C179 C180 1.400 . S
C180 C174 1.491 . S
C180 C179 1.400 . S
C180 C181 1.398 . S
C181 H169 0.950 . S
C181 C180 1.398 . S
C181 C182 1.391 . S
C182 H170 0.950 . S
C182 C178 1.393 . S
C182 C181 1.391 . S
H183 C191 0.950 . S
H184 C196 0.950 . S
H185 C193 0.950 . S
H186 C195 0.950 1_554 S
H187 C197 0.950 . S
H188 C199 0.950 . S
H189 C201 0.950 1_556 S
H190 C202 0.950 . S
C191 H183 0.950 . S
C191 C192 1.386 . S
C191 C193 1.391 . S
C192 C191 1.386 . S
C192 C196 1.393 . S
C193 H185 0.950 . S
C193 C191 1.391 . S
C193 C194 1.400 . S
C194 C193 1.400 . S
C194 C195 1.398 . S
C194 C200 1.491 1_556 S
C195 H186 0.950 1_556 S
C195 C194 1.398 . S
C195 C196 1.391 . S
C196 H184 0.950 . S
C196 C192 1.393 . S
C196 C195 1.391 . S
C197 H187 0.950 . S
C197 C198 1.386 . S
C197 C199 1.391 . S
C198 C197 1.386 . S
C198 C202 1.393 . S
C199 H188 0.950 . S
C199 C197 1.391 . S
C199 C200 1.400 . S
C200 C194 1.491 1_554 S
C200 C199 1.400 . S
C200 C201 1.398 . S
C201 H189 0.950 1_554 S
C201 C200 1.398 . S
C201 C202 1.391 . S
C202 H190 0.950 . S
C202 C198 1.393 . S
C202 C201 1.391 . S
H203 C211 0.950 . S
H204 C216 0.950 . S
H205 C213 0.950 . S
H206 C215 0.950 . S
H207 C217 0.950 . S
H208 C219 0.950 . S
H209 C221 0.950 . S
H210 C222 0.950 . S
C211 H203 0.950 . S
C211 C212 1.386 . S
C211 C213 1.391 . S
C212 C211 1.386 . S
C212 C216 1.393 . S
C213 H205 0.950 . S
C213 C211 1.391 . S
C213 C214 1.400 . S
C214 C213 1.400 . S
C214 C215 1.398 . S
C214 C220 1.491 . S
C215 H206 0.950 . S
C215 C214 1.398 . S
C215 C216 1.391 . S
C216 H204 0.950 . S
C216 C212 1.393 . S
C216 C215 1.391 . S
C217 H207 0.950 . S
C217 C218 1.386 . S
C217 C219 1.391 . S
C218 C217 1.386 . S
C218 C222 1.393 . S
C219 H208 0.950 . S
C219 C217 1.391 . S
C219 C220 1.400 . S
C220 C214 1.491 . S
C220 C219 1.400 . S
C220 C221 1.398 . S
C221 H209 0.950 . S
C221 C220 1.398 . S
C221 C222 1.391 . S
C222 H210 0.950 . S
C222 C218 1.393 . S
C222 C221 1.391 . S
H223 C231 0.950 . S
H224 C236 0.950 . S
H225 C233 0.950 . S
H226 C235 0.950 . S
H227 C237 0.950 . S
H228 C239 0.950 . S
H229 C241 0.950 . S
H230 C242 0.950 . S
C231 H223 0.950 . S
C231 C232 1.386 . S
C231 C233 1.391 . S
C232 C231 1.386 . S
C232 C236 1.393 . S
C233 H225 0.950 . S
C233 C231 1.391 . S
C233 C234 1.400 . S
C234 C233 1.400 . S
C234 C235 1.398 . S
C234 C240 1.491 . S
C235 H226 0.950 . S
C235 C234 1.398 . S
C235 C236 1.391 . S
C236 H224 0.950 . S
C236 C232 1.393 . S
C236 C235 1.391 . S
C237 H227 0.950 . S
C237 C238 1.386 . S
C237 C239 1.391 . S
C238 C237 1.386 . S
C238 C242 1.393 . S
C239 H228 0.950 . S
C239 C237 1.391 . S
C239 C240 1.400 . S
C240 C234 1.491 . S
C240 C239 1.400 . S
C240 C241 1.398 . S
C241 H229 0.950 . S
C241 C240 1.398 . S
C241 C242 1.391 . S
C242 H230 0.950 . S
C242 C238 1.393 . S
C242 C241 1.391 . S
C72 C18 1.172 . S
C78 C15 1.172 . S
C92 C36 1.219 . S
C98 C39 1.219 . S
C112 C57 1.239 . S
C118 C60 1.239 . S
C132 C56 1.131 . S
C138 C13 1.065 . S
C152 C35 1.450 . S
C158 C17 1.444 . S
C172 C59 1.124 . S
C178 C37 1.057 . S
C192 C55 1.059 . S
C198 C14 1.133 . S
C212 C16 0.774 . S
C218 C34 0.838 . S
C232 C58 1.086 . S
C238 C38 1.151 . S
