# Generated by pormake.
# Topology neb, (4)-cn, num edge types: 1
# Building blocks:
#     Node 0, Type 0, BuildingBlock: AZAVOO_clean_sbu_0, # of connection points: 4
#     Node 1, Type 0, BuildingBlock: AZAVOO_clean_sbu_0, # of connection points: 4
#     Node 2, Type 0, BuildingBlock: AZAVOO_clean_sbu_0, # of connection points: 4
#     Node 3, Type 0, BuildingBlock: AZAVOO_clean_sbu_0, # of connection points: 4
#     Node 4, Type 0, BuildingBlock: AZAVOO_clean_sbu_0, # of connection points: 4
#     Node 5, Type 0, BuildingBlock: AZAVOO_clean_sbu_0, # of connection points: 4
#     Node 6, Type 0, BuildingBlock: AZAVOO_clean_sbu_0, # of connection points: 4
#     Node 7, Type 0, BuildingBlock: AZAVOO_clean_sbu_0, # of connection points: 4
#     Node 8, Type 0, BuildingBlock: AZAVOO_clean_sbu_0, # of connection points: 4
#     Node 9, Type 0, BuildingBlock: AZAVOO_clean_sbu_0, # of connection points: 4
#     Node 10, Type 0, BuildingBlock: AZAVOO_clean_sbu_0, # of connection points: 4
#     Node 11, Type 0, BuildingBlock: AZAVOO_clean_sbu_0, # of connection points: 4
#     Node 12, Type 0, BuildingBlock: AZAVOO_clean_sbu_0, # of connection points: 4
#     Node 13, Type 0, BuildingBlock: AZAVOO_clean_sbu_0, # of connection points: 4
#     Node 14, Type 0, BuildingBlock: AZAVOO_clean_sbu_0, # of connection points: 4
#     Node 15, Type 0, BuildingBlock: AZAVOO_clean_sbu_0, # of connection points: 4
#     Edge 16, Type (0, 0), None
#     Edge 17, Type (0, 0), None
#     Edge 18, Type (0, 0), None
#     Edge 19, Type (0, 0), None
#     Edge 20, Type (0, 0), None
#     Edge 21, Type (0, 0), None
#     Edge 22, Type (0, 0), None
#     Edge 23, Type (0, 0), None
#     Edge 24, Type (0, 0), None
#     Edge 25, Type (0, 0), None
#     Edge 26, Type (0, 0), None
#     Edge 27, Type (0, 0), None
#     Edge 28, Type (0, 0), None
#     Edge 29, Type (0, 0), None
#     Edge 30, Type (0, 0), None
#     Edge 31, Type (0, 0), None
#     Edge 32, Type (0, 0), None
#     Edge 33, Type (0, 0), None
#     Edge 34, Type (0, 0), None
#     Edge 35, Type (0, 0), None
#     Edge 36, Type (0, 0), None
#     Edge 37, Type (0, 0), None
#     Edge 38, Type (0, 0), None
#     Edge 39, Type (0, 0), None
#     Edge 40, Type (0, 0), None
#     Edge 41, Type (0, 0), None
#     Edge 42, Type (0, 0), None
#     Edge 43, Type (0, 0), None
#     Edge 44, Type (0, 0), None
#     Edge 45, Type (0, 0), None
#     Edge 46, Type (0, 0), None
#     Edge 47, Type (0, 0), None
# Relax obj value: 0.079
# Max RMSD: 0.135
# Mean RMSD: 0.135
data_MOF--net-neb--node1-AZAVOO_clean_sbu_0--edge1-none
_symmetry_space_group_name_H-M    P1
_symmetry_Int_Tables_number       1
_symmetry_cell_setting            triclinic
loop_
_symmetry_equiv_pos_as_xyz
'x, y, z'
_cell_length_a     23.590697
_cell_length_b     9.5361676
_cell_length_c     30.843459
_cell_angle_alpha  104.56817
_cell_angle_beta   89.998708
_cell_angle_gamma 89.998597
loop_
_atom_site_label
_atom_site_type_symbol
_atom_site_fract_x
_atom_site_fract_y
_atom_site_fract_z
_atom_type_partial_charge
Mg0 Mg 0.08247 0.23106 0.49265 0.0
O1 O 0.09701 0.00193 0.44677 0.0
O2 O 0.16467 0.01379 0.39696 0.0
Mg3 Mg 0.19176 0.24691 0.40781 0.0
C4 C 0.12853 0.94316 0.41354 0.0
C5 C 0.00536 0.03739 0.55014 0.0
O6 O -0.00469 0.01383 0.58952 0.0
O7 O 0.16857 0.22234 0.526 0.0
O8 O 0.23275 0.24723 0.47472 0.0
O9 O 0.01899 0.29677 0.44361 0.0
O10 O 0.11129 0.32053 0.44245 0.0
C11 C 0.21968 0.23677 0.5139 0.0
C12 C 0.06336 0.33791 0.42547 0.0
O13 O 0.03927 0.13951 0.54773 0.0
Mg14 Mg 0.08247 -0.00148 0.81758 0.0
O15 O 0.09701 0.22766 0.86346 0.0
O16 O 0.16468 0.2158 0.91326 0.0
Mg17 Mg 0.19177 0.98268 0.90242 0.0
C18 C 0.12853 0.28643 0.89668 0.0
C19 C 0.00536 0.19216 0.76008 0.0
O20 O -0.0047 0.2157 0.7207 0.0
O21 O 0.16857 0.00722 0.78423 0.0
O22 O 0.23274 0.98233 0.83551 0.0
O23 O 0.01899 0.93283 0.86663 0.0
O24 O 0.11129 0.90907 0.86779 0.0
C25 C 0.21968 -0.00722 0.79632 0.0
C26 C 0.06336 0.89169 0.88477 0.0
O27 O 0.03927 0.09004 0.7625 0.0
Mg28 Mg 0.9027 0.7485 0.56757 0.0
O29 O 0.88817 0.97764 0.61346 0.0
O30 O 0.8205 0.96578 0.66327 0.0
Mg31 Mg 0.79341 0.73265 0.65242 0.0
C32 C 0.85664 0.0364 0.64669 0.0
C33 C 0.97981 0.94217 0.51008 0.0
O34 O 0.98987 0.96572 0.4707 0.0
O35 O 0.81661 0.75722 0.53423 0.0
O36 O 0.75243 0.73233 0.58551 0.0
O37 O 0.96618 0.68279 0.61662 0.0
O38 O 0.87389 0.65903 0.61778 0.0
C39 C 0.76549 0.74279 0.54633 0.0
C40 C 0.92182 0.64166 0.63476 0.0
O41 O 0.9459 0.84005 0.5125 0.0
Mg42 Mg 0.9027 0.98104 0.24265 0.0
O43 O 0.88817 0.7519 0.19677 0.0
O44 O 0.8205 0.76376 0.14696 0.0
Mg45 Mg 0.79341 -0.00312 0.15781 0.0
C46 C 0.85664 0.69313 0.16354 0.0
C47 C 0.97982 0.7874 0.30014 0.0
O48 O 0.98988 0.76386 0.33953 0.0
O49 O 0.81661 0.97234 0.276 0.0
O50 O 0.75243 -0.00277 0.22472 0.0
O51 O 0.96618 0.04673 0.1936 0.0
O52 O 0.87389 0.07049 0.19244 0.0
C53 C 0.76549 0.98678 0.26391 0.0
C54 C 0.92182 0.08787 0.17546 0.0
O55 O 0.9459 0.88952 0.29773 0.0
Mg56 Mg 0.08247 0.73111 0.99266 0.0
O57 O 0.09701 0.50199 0.94677 0.0
O58 O 0.16467 0.5139 0.89696 0.0
Mg59 Mg 0.19177 0.74703 0.90782 0.0
C60 C 0.12852 0.44327 0.91352 0.0
C61 C 0.00536 0.5374 0.05014 0.0
O62 O -0.0047 0.51385 0.08952 0.0
O63 O 0.16856 0.72238 1.02601 0.0
O64 O 0.23274 0.7473 0.97473 0.0
O65 O 0.01899 0.79684 0.94362 0.0
O66 O 0.11129 0.82062 0.94246 0.0
C67 C 0.21968 0.73682 1.01391 0.0
C68 C 0.06336 0.83797 0.92548 0.0
O69 O 0.03927 0.63953 0.04773 0.0
Mg70 Mg 0.08247 0.49847 0.31757 0.0
O71 O 0.09701 0.72759 0.36346 0.0
O72 O 0.16467 0.71569 0.41327 0.0
Mg73 Mg 0.19177 0.48257 0.40241 0.0
C74 C 0.12852 0.78633 0.3967 0.0
C75 C 0.00537 0.69216 0.26009 0.0
O76 O -0.0047 0.71569 0.2207 0.0
O77 O 0.16857 0.5072 0.28422 0.0
O78 O 0.23274 0.48228 0.3355 0.0
O79 O 0.01899 0.43275 0.36662 0.0
O80 O 0.11129 0.40898 0.36778 0.0
C81 C 0.21968 0.49276 0.29632 0.0
C82 C 0.06336 0.39163 0.38476 0.0
O83 O 0.03927 0.59003 0.2625 0.0
Mg84 Mg 0.9027 0.24845 0.06757 0.0
O85 O 0.88817 0.47757 0.11346 0.0
O86 O 0.8205 0.46566 0.16327 0.0
Mg87 Mg 0.79341 0.23253 0.15241 0.0
C88 C 0.85665 0.5363 0.1467 0.0
C89 C 0.97981 0.44217 1.01008 0.0
O90 O 0.98988 0.46571 0.9707 0.0
O91 O 0.81661 0.25718 0.03422 0.0
O92 O 0.75243 0.23226 0.0855 0.0
O93 O 0.96618 0.18272 0.11661 0.0
O94 O 0.87389 0.15894 0.11777 0.0
C95 C 0.76549 0.24274 0.04631 0.0
C96 C 0.92182 0.1416 0.13475 0.0
O97 O 0.94591 0.34003 1.0125 0.0
Mg98 Mg 0.9027 0.48109 0.74265 0.0
O99 O 0.88817 0.25197 0.69677 0.0
O100 O 0.8205 0.26387 0.64696 0.0
Mg101 Mg 0.79341 0.497 0.65782 0.0
C102 C 0.85665 0.19324 0.66353 0.0
C103 C 0.97981 0.2874 0.80014 0.0
O104 O 0.98987 0.26387 0.83952 0.0
O105 O 0.81661 0.47236 0.776 0.0
O106 O 0.75243 0.49728 0.72473 0.0
O107 O 0.96618 0.54681 0.69361 0.0
O108 O 0.87389 0.57058 0.69245 0.0
C109 C 0.76549 0.4868 0.76391 0.0
C110 C 0.92182 0.58793 0.67547 0.0
O111 O 0.9459 0.38954 0.79773 0.0
Mg112 Mg 0.58247 0.23106 0.99265 0.0
O113 O 0.59701 0.00193 0.94677 0.0
O114 O 0.66467 0.01379 0.89696 0.0
Mg115 Mg 0.69177 0.24691 0.90781 0.0
C116 C 0.62853 0.94316 0.91354 0.0
C117 C 0.50536 0.03739 0.05014 0.0
O118 O 0.49531 0.01383 0.08952 0.0
O119 O 0.66857 0.22234 1.026 0.0
O120 O 0.73275 0.24723 0.97472 0.0
O121 O 0.51899 0.29677 0.94361 0.0
O122 O 0.61129 0.32053 0.94245 0.0
C123 C 0.71968 0.23677 1.0139 0.0
C124 C 0.56336 0.33791 0.92547 0.0
O125 O 0.53927 0.13951 0.04773 0.0
Mg126 Mg 0.58247 -0.00148 0.31758 0.0
O127 O 0.59701 0.22766 0.36346 0.0
O128 O 0.66468 0.2158 0.41326 0.0
Mg129 Mg 0.69177 0.98268 0.40242 0.0
C130 C 0.62853 0.28643 0.39668 0.0
C131 C 0.50536 0.19216 0.26008 0.0
O132 O 0.4953 0.2157 0.2207 0.0
O133 O 0.66857 0.00722 0.28423 0.0
O134 O 0.73274 0.98233 0.33551 0.0
O135 O 0.51899 0.93283 0.36663 0.0
O136 O 0.61129 0.90907 0.36779 0.0
C137 C 0.71968 -0.00721 0.29632 0.0
C138 C 0.56336 0.89169 0.38477 0.0
O139 O 0.53927 0.09004 0.2625 0.0
Mg140 Mg 0.4027 0.7485 0.06757 0.0
O141 O 0.38817 0.97764 0.11346 0.0
O142 O 0.3205 0.96578 0.16327 0.0
Mg143 Mg 0.29341 0.73265 0.15242 0.0
C144 C 0.35664 0.0364 0.14669 0.0
C145 C 0.47981 0.94217 1.01008 0.0
O146 O 0.48987 0.96572 0.9707 0.0
O147 O 0.31661 0.75722 0.03423 0.0
O148 O 0.25243 0.73233 0.08551 0.0
O149 O 0.46618 0.68279 0.11662 0.0
O150 O 0.37389 0.65903 0.11778 0.0
C151 C 0.26549 0.74279 0.04633 0.0
C152 C 0.42182 0.64166 0.13476 0.0
O153 O 0.4459 0.84005 1.0125 0.0
Mg154 Mg 0.4027 0.98104 0.74265 0.0
O155 O 0.38817 0.7519 0.69677 0.0
O156 O 0.3205 0.76376 0.64696 0.0
Mg157 Mg 0.29341 -0.00312 0.65781 0.0
C158 C 0.35664 0.69313 0.66354 0.0
C159 C 0.47982 0.7874 0.80014 0.0
O160 O 0.48988 0.76386 0.83953 0.0
O161 O 0.31661 0.97234 0.776 0.0
O162 O 0.25243 -0.00277 0.72472 0.0
O163 O 0.46618 0.04673 0.6936 0.0
O164 O 0.37389 0.07049 0.69244 0.0
C165 C 0.26549 0.98678 0.76391 0.0
C166 C 0.42182 0.08787 0.67546 0.0
O167 O 0.4459 0.88952 0.79773 0.0
Mg168 Mg 0.58247 0.73111 0.49266 0.0
O169 O 0.59701 0.50199 0.44677 0.0
O170 O 0.66467 0.5139 0.39696 0.0
Mg171 Mg 0.69177 0.74703 0.40782 0.0
C172 C 0.62852 0.44327 0.41352 0.0
C173 C 0.50536 0.5374 0.55014 0.0
O174 O 0.4953 0.51385 0.58952 0.0
O175 O 0.66856 0.72238 0.52601 0.0
O176 O 0.73274 0.7473 0.47473 0.0
O177 O 0.51899 0.79684 0.44362 0.0
O178 O 0.61129 0.82062 0.44246 0.0
C179 C 0.71968 0.73681 0.51391 0.0
C180 C 0.56336 0.83797 0.42548 0.0
O181 O 0.53927 0.63953 0.54773 0.0
Mg182 Mg 0.58247 0.49847 0.81757 0.0
O183 O 0.59701 0.72759 0.86346 0.0
O184 O 0.66467 0.71569 0.91327 0.0
Mg185 Mg 0.69177 0.48256 0.90241 0.0
C186 C 0.62852 0.78633 0.8967 0.0
C187 C 0.50537 0.69216 0.76009 0.0
O188 O 0.4953 0.71569 0.7207 0.0
O189 O 0.66857 0.5072 0.78422 0.0
O190 O 0.73274 0.48228 0.8355 0.0
O191 O 0.51899 0.43275 0.86662 0.0
O192 O 0.61129 0.40898 0.86778 0.0
C193 C 0.71968 0.49277 0.79632 0.0
C194 C 0.56336 0.39163 0.88476 0.0
O195 O 0.53927 0.59003 0.7625 0.0
Mg196 Mg 0.4027 0.24845 0.56757 0.0
O197 O 0.38817 0.47757 0.61346 0.0
O198 O 0.3205 0.46566 0.66327 0.0
Mg199 Mg 0.29341 0.23253 0.65241 0.0
C200 C 0.35665 0.5363 0.6467 0.0
C201 C 0.47981 0.44217 0.51008 0.0
O202 O 0.48988 0.46571 0.4707 0.0
O203 O 0.31661 0.25718 0.53422 0.0
O204 O 0.25243 0.23226 0.5855 0.0
O205 O 0.46618 0.18272 0.61661 0.0
O206 O 0.37389 0.15894 0.61777 0.0
C207 C 0.26549 0.24275 0.54632 0.0
C208 C 0.42182 0.1416 0.63475 0.0
O209 O 0.44591 0.34003 0.5125 0.0
Mg210 Mg 0.4027 0.48109 0.24265 0.0
O211 O 0.38817 0.25197 0.19677 0.0
O212 O 0.3205 0.26387 0.14696 0.0
Mg213 Mg 0.29341 0.497 0.15782 0.0
C214 C 0.35665 0.19324 0.16353 0.0
C215 C 0.47981 0.2874 0.30014 0.0
O216 O 0.48987 0.26387 0.33952 0.0
O217 O 0.31661 0.47236 0.276 0.0
O218 O 0.25243 0.49728 0.22473 0.0
O219 O 0.46618 0.54681 0.19361 0.0
O220 O 0.37389 0.57058 0.19245 0.0
C221 C 0.26549 0.48679 0.26391 0.0
C222 C 0.42182 0.58793 0.17547 0.0
O223 O 0.4459 0.38954 0.29773 0.0
loop_
_geom_bond_atom_site_label_1
_geom_bond_atom_site_label_2
_geom_bond_distance
_geom_bond_site_symmetry_2
_ccdc_geom_bond_type
Mg0 O1 2.028 1_545 S
Mg0 O7 1.986 . S
Mg0 O9 2.114 . S
Mg0 O10 2.251 . S
Mg0 O13 2.010 . S
O1 Mg0 2.028 1_565 S
O1 C4 1.250 . S
O2 Mg3 2.028 1_565 S
O2 C4 1.248 . S
Mg3 O2 2.028 1_545 S
Mg3 O8 2.032 . S
Mg3 O10 2.079 . S
C4 O1 1.250 . S
C4 O2 1.248 . S
C5 O6 1.264 1_455 S
C5 O13 1.249 . S
O6 C5 1.264 1_655 S
O7 Mg0 1.986 . S
O7 C11 1.246 . S
O8 Mg3 2.032 . S
O8 C11 1.259 . S
O9 Mg0 2.114 . S
O9 C12 1.252 . S
O10 Mg0 2.251 . S
O10 Mg3 2.079 . S
O10 C12 1.273 . S
C11 O7 1.246 . S
C11 O8 1.259 . S
C12 O9 1.252 . S
C12 O10 1.273 . S
O13 Mg0 2.010 . S
O13 C5 1.249 . S
Mg14 O15 2.028 . S
Mg14 O21 1.986 . S
Mg14 O23 2.114 1_545 S
Mg14 O24 2.251 1_545 S
Mg14 O27 2.010 . S
O15 Mg14 2.028 . S
O15 C18 1.250 . S
O16 Mg17 2.028 . S
O16 C18 1.248 . S
Mg17 O16 2.028 . S
Mg17 O22 2.032 . S
Mg17 O24 2.079 1_545 S
C18 O15 1.250 . S
C18 O16 1.248 . S
C19 O20 1.264 1_455 S
C19 O27 1.249 . S
O20 C19 1.264 1_655 S
O21 Mg14 1.986 . S
O21 C25 1.246 . S
O22 Mg17 2.032 . S
O22 C25 1.259 . S
O23 Mg14 2.114 1_565 S
O23 C26 1.252 . S
O24 Mg14 2.251 1_565 S
O24 Mg17 2.079 1_565 S
O24 C26 1.273 . S
C25 O21 1.246 . S
C25 O22 1.259 . S
C26 O23 1.252 . S
C26 O24 1.273 . S
O27 Mg14 2.010 . S
O27 C19 1.249 . S
Mg28 O29 2.028 1_565 S
Mg28 O35 1.986 . S
Mg28 O37 2.114 . S
Mg28 O38 2.251 . S
Mg28 O41 2.010 . S
O29 Mg28 2.028 1_545 S
O29 C32 1.250 . S
O30 Mg31 2.028 1_545 S
O30 C32 1.248 . S
Mg31 O30 2.028 1_565 S
Mg31 O36 2.032 . S
Mg31 O38 2.079 . S
C32 O29 1.250 . S
C32 O30 1.248 . S
C33 O34 1.264 1_655 S
C33 O41 1.249 . S
O34 C33 1.264 1_455 S
O35 Mg28 1.986 . S
O35 C39 1.246 . S
O36 Mg31 2.032 . S
O36 C39 1.259 . S
O37 Mg28 2.114 . S
O37 C40 1.252 . S
O38 Mg28 2.251 . S
O38 Mg31 2.079 . S
O38 C40 1.273 . S
C39 O35 1.246 . S
C39 O36 1.259 . S
C40 O37 1.252 . S
C40 O38 1.273 . S
O41 Mg28 2.010 . S
O41 C33 1.249 . S
Mg42 O43 2.028 . S
Mg42 O49 1.986 . S
Mg42 O51 2.114 1_565 S
Mg42 O52 2.251 1_565 S
Mg42 O55 2.010 . S
O43 Mg42 2.028 . S
O43 C46 1.250 . S
O44 Mg45 2.028 . S
O44 C46 1.248 . S
Mg45 O44 2.028 . S
Mg45 O50 2.032 . S
Mg45 O52 2.079 1_565 S
C46 O43 1.250 . S
C46 O44 1.248 . S
C47 O48 1.264 1_655 S
C47 O55 1.249 . S
O48 C47 1.264 1_455 S
O49 Mg42 1.986 . S
O49 C53 1.246 . S
O50 Mg45 2.032 . S
O50 C53 1.259 . S
O51 Mg42 2.114 1_545 S
O51 C54 1.252 . S
O52 Mg42 2.251 1_545 S
O52 Mg45 2.079 1_545 S
O52 C54 1.273 . S
C53 O49 1.246 . S
C53 O50 1.259 . S
C54 O51 1.252 . S
C54 O52 1.273 . S
O55 Mg42 2.010 . S
O55 C47 1.249 . S
Mg56 O57 2.028 . S
Mg56 O63 1.986 . S
Mg56 O65 2.114 . S
Mg56 O66 2.251 . S
Mg56 O69 2.010 . S
O57 Mg56 2.028 . S
O57 C60 1.250 . S
O58 Mg59 2.028 . S
O58 C60 1.248 . S
Mg59 O58 2.028 . S
Mg59 O64 2.032 . S
Mg59 O66 2.079 . S
C60 O57 1.250 . S
C60 O58 1.248 . S
C61 O62 1.264 1_455 S
C61 O69 1.249 1_554 S
O62 C61 1.264 1_655 S
O63 Mg56 1.986 . S
O63 C67 1.246 . S
O64 Mg59 2.032 . S
O64 C67 1.259 . S
O65 Mg56 2.114 . S
O65 C68 1.252 . S
O66 Mg56 2.251 . S
O66 Mg59 2.079 . S
O66 C68 1.273 . S
C67 O63 1.246 . S
C67 O64 1.259 . S
C68 O65 1.252 . S
C68 O66 1.273 . S
O69 Mg56 2.010 . S
O69 C61 1.249 1_556 S
Mg70 O71 2.028 . S
Mg70 O77 1.986 . S
Mg70 O79 2.114 . S
Mg70 O80 2.251 . S
Mg70 O83 2.010 . S
O71 Mg70 2.028 . S
O71 C74 1.250 . S
O72 Mg73 2.028 . S
O72 C74 1.248 . S
Mg73 O72 2.028 . S
Mg73 O78 2.032 . S
Mg73 O80 2.079 . S
C74 O71 1.250 . S
C74 O72 1.248 . S
C75 O76 1.264 1_455 S
C75 O83 1.249 . S
O76 C75 1.264 1_655 S
O77 Mg70 1.986 . S
O77 C81 1.246 . S
O78 Mg73 2.032 . S
O78 C81 1.259 . S
O79 Mg70 2.114 . S
O79 C82 1.252 . S
O80 Mg70 2.251 . S
O80 Mg73 2.079 . S
O80 C82 1.273 . S
C81 O77 1.246 . S
C81 O78 1.259 . S
C82 O79 1.252 . S
C82 O80 1.273 . S
O83 Mg70 2.010 . S
O83 C75 1.249 . S
Mg84 O85 2.028 . S
Mg84 O91 1.986 . S
Mg84 O93 2.114 . S
Mg84 O94 2.251 . S
Mg84 O97 2.010 . S
O85 Mg84 2.028 . S
O85 C88 1.250 . S
O86 Mg87 2.028 . S
O86 C88 1.248 . S
Mg87 O86 2.028 . S
Mg87 O92 2.032 . S
Mg87 O94 2.079 . S
C88 O85 1.250 . S
C88 O86 1.248 . S
C89 O90 1.264 1_655 S
C89 O97 1.249 1_556 S
O90 C89 1.264 1_455 S
O91 Mg84 1.986 . S
O91 C95 1.246 . S
O92 Mg87 2.032 . S
O92 C95 1.259 . S
O93 Mg84 2.114 . S
O93 C96 1.252 . S
O94 Mg84 2.251 . S
O94 Mg87 2.079 . S
O94 C96 1.273 . S
C95 O91 1.246 . S
C95 O92 1.259 . S
C96 O93 1.252 . S
C96 O94 1.273 . S
O97 Mg84 2.010 . S
O97 C89 1.249 1_554 S
Mg98 O99 2.028 . S
Mg98 O105 1.986 . S
Mg98 O107 2.114 . S
Mg98 O108 2.251 . S
Mg98 O111 2.010 . S
O99 Mg98 2.028 . S
O99 C102 1.250 . S
O100 Mg101 2.028 . S
O100 C102 1.248 . S
Mg101 O100 2.028 . S
Mg101 O106 2.032 . S
Mg101 O108 2.079 . S
C102 O99 1.250 . S
C102 O100 1.248 . S
C103 O104 1.264 1_655 S
C103 O111 1.249 . S
O104 C103 1.264 1_455 S
O105 Mg98 1.986 . S
O105 C109 1.246 . S
O106 Mg101 2.032 . S
O106 C109 1.259 . S
O107 Mg98 2.114 . S
O107 C110 1.252 . S
O108 Mg98 2.251 . S
O108 Mg101 2.079 . S
O108 C110 1.273 . S
C109 O105 1.246 . S
C109 O106 1.259 . S
C110 O107 1.252 . S
C110 O108 1.273 . S
O111 Mg98 2.010 . S
O111 C103 1.249 . S
Mg112 O113 2.028 1_545 S
Mg112 O119 1.986 . S
Mg112 O121 2.114 . S
Mg112 O122 2.251 . S
Mg112 O125 2.010 . S
O113 Mg112 2.028 1_565 S
O113 C116 1.250 . S
O114 Mg115 2.028 1_565 S
O114 C116 1.248 . S
Mg115 O114 2.028 1_545 S
Mg115 O120 2.032 . S
Mg115 O122 2.079 . S
C116 O113 1.250 . S
C116 O114 1.248 . S
C117 O118 1.264 . S
C117 O125 1.249 1_554 S
O118 C117 1.264 . S
O119 Mg112 1.986 . S
O119 C123 1.246 . S
O120 Mg115 2.032 . S
O120 C123 1.259 . S
O121 Mg112 2.114 . S
O121 C124 1.252 . S
O122 Mg112 2.251 . S
O122 Mg115 2.079 . S
O122 C124 1.273 . S
C123 O119 1.246 . S
C123 O120 1.259 . S
C124 O121 1.252 . S
C124 O122 1.273 . S
O125 Mg112 2.010 . S
O125 C117 1.249 1_556 S
Mg126 O127 2.028 . S
Mg126 O133 1.986 . S
Mg126 O135 2.114 1_545 S
Mg126 O136 2.251 1_545 S
Mg126 O139 2.010 . S
O127 Mg126 2.028 . S
O127 C130 1.250 . S
O128 Mg129 2.028 . S
O128 C130 1.248 . S
Mg129 O128 2.028 . S
Mg129 O134 2.032 . S
Mg129 O136 2.079 1_545 S
C130 O127 1.250 . S
C130 O128 1.248 . S
C131 O132 1.264 . S
C131 O139 1.249 . S
O132 C131 1.264 . S
O133 Mg126 1.986 . S
O133 C137 1.246 . S
O134 Mg129 2.032 . S
O134 C137 1.259 . S
O135 Mg126 2.114 1_565 S
O135 C138 1.252 . S
O136 Mg126 2.251 1_565 S
O136 Mg129 2.079 1_565 S
O136 C138 1.273 . S
C137 O133 1.246 . S
C137 O134 1.259 . S
C138 O135 1.252 . S
C138 O136 1.273 . S
O139 Mg126 2.010 . S
O139 C131 1.249 . S
Mg140 O141 2.028 1_565 S
Mg140 O147 1.986 . S
Mg140 O149 2.114 . S
Mg140 O150 2.251 . S
Mg140 O153 2.010 . S
O141 Mg140 2.028 1_545 S
O141 C144 1.250 . S
O142 Mg143 2.028 1_545 S
O142 C144 1.248 . S
Mg143 O142 2.028 1_565 S
Mg143 O148 2.032 . S
Mg143 O150 2.079 . S
C144 O141 1.250 . S
C144 O142 1.248 . S
C145 O146 1.264 . S
C145 O153 1.249 1_556 S
O146 C145 1.264 . S
O147 Mg140 1.986 . S
O147 C151 1.246 . S
O148 Mg143 2.032 . S
O148 C151 1.259 . S
O149 Mg140 2.114 . S
O149 C152 1.252 . S
O150 Mg140 2.251 . S
O150 Mg143 2.079 . S
O150 C152 1.273 . S
C151 O147 1.246 . S
C151 O148 1.259 . S
C152 O149 1.252 . S
C152 O150 1.273 . S
O153 Mg140 2.010 . S
O153 C145 1.249 1_554 S
Mg154 O155 2.028 . S
Mg154 O161 1.986 . S
Mg154 O163 2.114 1_565 S
Mg154 O164 2.251 1_565 S
Mg154 O167 2.010 . S
O155 Mg154 2.028 . S
O155 C158 1.250 . S
O156 Mg157 2.028 . S
O156 C158 1.248 . S
Mg157 O156 2.028 . S
Mg157 O162 2.032 . S
Mg157 O164 2.079 1_565 S
C158 O155 1.250 . S
C158 O156 1.248 . S
C159 O160 1.264 . S
C159 O167 1.249 . S
O160 C159 1.264 . S
O161 Mg154 1.986 . S
O161 C165 1.246 . S
O162 Mg157 2.032 . S
O162 C165 1.259 . S
O163 Mg154 2.114 1_545 S
O163 C166 1.252 . S
O164 Mg154 2.251 1_545 S
O164 Mg157 2.079 1_545 S
O164 C166 1.273 . S
C165 O161 1.246 . S
C165 O162 1.259 . S
C166 O163 1.252 . S
C166 O164 1.273 . S
O167 Mg154 2.010 . S
O167 C159 1.249 . S
Mg168 O169 2.028 . S
Mg168 O175 1.986 . S
Mg168 O177 2.114 . S
Mg168 O178 2.251 . S
Mg168 O181 2.010 . S
O169 Mg168 2.028 . S
O169 C172 1.250 . S
O170 Mg171 2.028 . S
O170 C172 1.248 . S
Mg171 O170 2.028 . S
Mg171 O176 2.032 . S
Mg171 O178 2.079 . S
C172 O169 1.250 . S
C172 O170 1.248 . S
C173 O174 1.264 . S
C173 O181 1.249 . S
O174 C173 1.264 . S
O175 Mg168 1.986 . S
O175 C179 1.246 . S
O176 Mg171 2.032 . S
O176 C179 1.259 . S
O177 Mg168 2.114 . S
O177 C180 1.252 . S
O178 Mg168 2.251 . S
O178 Mg171 2.079 . S
O178 C180 1.273 . S
C179 O175 1.246 . S
C179 O176 1.259 . S
C180 O177 1.252 . S
C180 O178 1.273 . S
O181 Mg168 2.010 . S
O181 C173 1.249 . S
Mg182 O183 2.028 . S
Mg182 O189 1.986 . S
Mg182 O191 2.114 . S
Mg182 O192 2.251 . S
Mg182 O195 2.010 . S
O183 Mg182 2.028 . S
O183 C186 1.250 . S
O184 Mg185 2.028 . S
O184 C186 1.248 . S
Mg185 O184 2.028 . S
Mg185 O190 2.032 . S
Mg185 O192 2.079 . S
C186 O183 1.250 . S
C186 O184 1.248 . S
C187 O188 1.264 . S
C187 O195 1.249 . S
O188 C187 1.264 . S
O189 Mg182 1.986 . S
O189 C193 1.246 . S
O190 Mg185 2.032 . S
O190 C193 1.259 . S
O191 Mg182 2.114 . S
O191 C194 1.252 . S
O192 Mg182 2.251 . S
O192 Mg185 2.079 . S
O192 C194 1.273 . S
C193 O189 1.246 . S
C193 O190 1.259 . S
C194 O191 1.252 . S
C194 O192 1.273 . S
O195 Mg182 2.010 . S
O195 C187 1.249 . S
Mg196 O197 2.028 . S
Mg196 O203 1.986 . S
Mg196 O205 2.114 . S
Mg196 O206 2.251 . S
Mg196 O209 2.010 . S
O197 Mg196 2.028 . S
O197 C200 1.250 . S
O198 Mg199 2.028 . S
O198 C200 1.248 . S
Mg199 O198 2.028 . S
Mg199 O204 2.032 . S
Mg199 O206 2.079 . S
C200 O197 1.250 . S
C200 O198 1.248 . S
C201 O202 1.264 . S
C201 O209 1.249 . S
O202 C201 1.264 . S
O203 Mg196 1.986 . S
O203 C207 1.246 . S
O204 Mg199 2.032 . S
O204 C207 1.259 . S
O205 Mg196 2.114 . S
O205 C208 1.252 . S
O206 Mg196 2.251 . S
O206 Mg199 2.079 . S
O206 C208 1.273 . S
C207 O203 1.246 . S
C207 O204 1.259 . S
C208 O205 1.252 . S
C208 O206 1.273 . S
O209 Mg196 2.010 . S
O209 C201 1.249 . S
Mg210 O211 2.028 . S
Mg210 O217 1.986 . S
Mg210 O219 2.114 . S
Mg210 O220 2.251 . S
Mg210 O223 2.010 . S
O211 Mg210 2.028 . S
O211 C214 1.250 . S
O212 Mg213 2.028 . S
O212 C214 1.248 . S
Mg213 O212 2.028 . S
Mg213 O218 2.032 . S
Mg213 O220 2.079 . S
C214 O211 1.250 . S
C214 O212 1.248 . S
C215 O216 1.264 . S
C215 O223 1.249 . S
O216 C215 1.264 . S
O217 Mg210 1.986 . S
O217 C221 1.246 . S
O218 Mg213 2.032 . S
O218 C221 1.259 . S
O219 Mg210 2.114 . S
O219 C222 1.252 . S
O220 Mg210 2.251 . S
O220 Mg213 2.079 . S
O220 C222 1.273 . S
C221 O217 1.246 . S
C221 O218 1.259 . S
C222 O219 1.252 . S
C222 O220 1.273 . S
O223 Mg210 2.010 . S
O223 C215 1.249 . S
C207 C11 1.663 . S
C33 C5 2.275 1_665 S
C165 C25 1.663 1_565 S
C19 C103 2.275 1_455 S
C39 C179 1.663 . S
C137 C53 1.663 1_545 S
C47 C75 2.275 1_655 S
C151 C67 1.663 1_554 S
C61 C89 2.275 1_454 S
C221 C81 1.663 . S
C123 C95 1.663 1_556 S
C193 C109 1.663 . S
C117 C145 2.275 1_544 S
C215 C131 2.275 . S
C159 C187 2.275 . S
C201 C173 2.275 . S
C74 C4 1.080 . S
C12 C82 1.327 . S
C18 C60 1.080 . S
C68 C26 1.327 . S
C102 C32 1.080 . S
C110 C40 1.327 . S
C88 C46 1.080 . S
C54 C96 1.327 . S
C186 C116 1.080 . S
C124 C194 1.327 . S
C130 C172 1.080 . S
C180 C138 1.327 . S
C214 C144 1.080 . S
C222 C152 1.327 . S
C158 C200 1.080 . S
C208 C166 1.327 . S
