# Generated by pormake.
# Topology uni, (4)-cn, num edge types: 1
# Building blocks:
#     Node 0, Type 0, BuildingBlock: NAHDIM_clean_sbu_0, # of connection points: 4
#     Node 1, Type 0, BuildingBlock: NAHDIM_clean_sbu_0, # of connection points: 4
#     Node 2, Type 0, BuildingBlock: NAHDIM_clean_sbu_0, # of connection points: 4
#     Node 3, Type 0, BuildingBlock: NAHDIM_clean_sbu_0, # of connection points: 4
#     Node 4, Type 0, BuildingBlock: NAHDIM_clean_sbu_0, # of connection points: 4
#     Node 5, Type 0, BuildingBlock: NAHDIM_clean_sbu_0, # of connection points: 4
#     Edge 6, Type (0, 0), BuildingBlock: AJUNOK_clean_linker_0, # of connection points: 2
#     Edge 7, Type (0, 0), BuildingBlock: AJUNOK_clean_linker_0, # of connection points: 2
#     Edge 8, Type (0, 0), BuildingBlock: AJUNOK_clean_linker_0, # of connection points: 2
#     Edge 9, Type (0, 0), BuildingBlock: AJUNOK_clean_linker_0, # of connection points: 2
#     Edge 10, Type (0, 0), BuildingBlock: AJUNOK_clean_linker_0, # of connection points: 2
#     Edge 11, Type (0, 0), BuildingBlock: AJUNOK_clean_linker_0, # of connection points: 2
#     Edge 12, Type (0, 0), BuildingBlock: AJUNOK_clean_linker_0, # of connection points: 2
#     Edge 13, Type (0, 0), BuildingBlock: AJUNOK_clean_linker_0, # of connection points: 2
#     Edge 14, Type (0, 0), BuildingBlock: AJUNOK_clean_linker_0, # of connection points: 2
#     Edge 15, Type (0, 0), BuildingBlock: AJUNOK_clean_linker_0, # of connection points: 2
#     Edge 16, Type (0, 0), BuildingBlock: AJUNOK_clean_linker_0, # of connection points: 2
#     Edge 17, Type (0, 0), BuildingBlock: AJUNOK_clean_linker_0, # of connection points: 2
# Relax obj value: 0.044
# Max RMSD: 0.077
# Mean RMSD: 0.077
data_MOF--net-uni--node1-NAHDIM_clean_sbu_0--edge1-AJUNOK_clean_linker_0
_symmetry_space_group_name_H-M    P1
_symmetry_Int_Tables_number       1
_symmetry_cell_setting            triclinic
loop_
_symmetry_equiv_pos_as_xyz
'x, y, z'
_cell_length_a     28.832725
_cell_length_b     28.85275
_cell_length_c     17.266614
_cell_angle_alpha  90.110433
_cell_angle_beta   90.035407
_cell_angle_gamma 119.80762
loop_
_atom_site_label
_atom_site_type_symbol
_atom_site_fract_x
_atom_site_fract_y
_atom_site_fract_z
_atom_type_partial_charge
C0 C 0.66389 0.93815 0.15386 0.0
O1 O 0.6742 0.9729 0.20983 0.0
O2 O 0.71775 0.07536 0.04952 0.0
Zn3 Zn 0.64444 0.01214 0.06691 0.0
O4 O 0.60813 0.02566 0.15688 0.0
C5 C 0.57247 0.02151 0.95876 0.0
O6 O 0.56979 0.05149 0.01393 0.0
O7 O 0.65045 0.94689 0.08778 0.0
C8 C 0.55878 0.99349 0.16847 0.0
O9 O 0.5333 0.95221 0.12204 0.0
C10 C 0.72255 0.12126 0.04084 0.0
O11 O 0.67986 0.12619 0.04765 0.0
O12 O 0.60137 0.00015 0.96906 0.0
C13 C 0.75984 0.6647 0.25658 0.0
O14 O 0.739 0.67939 0.31244 0.0
O15 O 0.66497 0.71037 0.1669 0.0
Zn16 Zn 0.6608 0.63903 0.18111 0.0
O17 O 0.61653 0.59914 0.27388 0.0
C18 C 0.57612 0.57869 0.0751 0.0
O19 O 0.55044 0.59084 0.1267 0.0
O20 O 0.73392 0.64695 0.19368 0.0
C21 C 0.58017 0.60548 0.30524 0.0
O22 O 0.56983 0.64174 0.27752 0.0
C23 C 0.6736 0.74477 0.21921 0.0
O24 O 0.68164 0.73509 0.2908 0.0
O25 O 0.62557 0.59521 0.0855 0.0
C26 C 0.11338 0.7617 0.4486 0.0
O27 O 0.06894 0.76146 0.46618 0.0
O28 O 0.98255 0.67116 0.36617 0.0
Zn29 Zn 0.04127 0.65467 0.39118 0.0
O30 O 0.02042 0.60555 0.48274 0.0
C31 C 0.07115 0.63755 0.23672 0.0
O32 O 0.08597 0.68807 0.22557 0.0
O33 O 0.11064 0.72102 0.41559 0.0
C34 C 0.99191 0.55533 0.47334 0.0
O35 O 0.97401 0.53654 0.4037 0.0
C36 C 0.9469 0.64311 0.31649 0.0
O37 O 0.94937 0.60391 0.28156 0.0
O38 O 0.05221 0.6166 0.302 0.0
C39 C 0.37144 0.11775 0.59194 0.0
O40 O 0.32531 0.07388 0.60126 0.0
O41 O 0.33332 0.98398 0.54466 0.0
Zn42 Zn 0.40896 0.04312 0.56253 0.0
O43 O 0.43708 0.03107 0.66254 0.0
C44 C 0.43694 0.02885 0.40694 0.0
O45 O 0.38675 0.01451 0.39314 0.0
O46 O 0.41212 0.11415 0.57283 0.0
C47 C 0.46641 0.00973 0.66611 0.0
O48 O 0.47751 0.99263 0.60205 0.0
C49 C 0.32436 0.93692 0.53142 0.0
O50 O 0.36482 0.92798 0.5315 0.0
O51 O 0.45566 0.04425 0.47465 0.0
C52 C 0.27907 0.38546 0.74664 0.0
O53 O 0.29136 0.35567 0.78984 0.0
O54 O 0.36725 0.34061 0.65862 0.0
Zn55 Zn 0.38121 0.41521 0.68119 0.0
O56 O 0.42131 0.44353 0.78156 0.0
C57 C 0.45531 0.45923 0.55261 0.0
O58 O 0.46266 0.41866 0.56693 0.0
O59 O 0.31137 0.41389 0.69385 0.0
C60 C 0.47175 0.47264 0.78703 0.0
O61 O 0.50107 0.48363 0.72427 0.0
C62 C 0.40045 0.32577 0.67766 0.0
O63 O 0.44466 0.35962 0.71372 0.0
O64 O 0.42225 0.46544 0.59375 0.0
C65 C 0.92956 0.29962 0.95145 0.0
O66 O 0.97344 0.29942 0.97143 0.0
O67 O 0.05987 0.38456 0.8618 0.0
Zn68 Zn 0.00339 0.4038 0.88803 0.0
O69 O 0.02633 0.45248 0.98044 0.0
C70 C 0.97582 0.41981 0.7331 0.0
O71 O 0.96228 0.36938 0.72449 0.0
O72 O 0.93321 0.33904 0.91373 0.0
C73 C 0.05252 0.50301 0.97397 0.0
O74 O 0.06661 0.5242 0.9047 0.0
C75 C 0.09854 0.41588 0.81868 0.0
O76 O 0.09998 0.45932 0.79258 0.0
O77 O 0.99332 0.44209 0.79837 0.0
C78 C 0.47337 0.98013 0.22513 0.0
C79 C 0.52931 0.00396 0.22996 0.0
C80 C 0.44416 0.98942 0.28173 0.0
C81 C 0.46959 0.02234 0.34617 0.0
H82 H 0.45178 0.95428 0.17685 0.0
H83 H 0.40113 0.96982 0.2754 0.0
S84 S 0.61548 0.09435 0.38625 0.0
N85 N 0.60925 0.06235 0.30411 0.0
N86 N 0.55429 0.07927 0.41121 0.0
C87 C 0.52559 0.04653 0.35179 0.0
C88 C 0.55545 0.03754 0.29353 0.0
C89 C 0.55661 0.52787 0.3924 0.0
C90 C 0.5482 0.56996 0.3697 0.0
C91 C 0.52636 0.49252 0.45131 0.0
C92 C 0.48643 0.49773 0.49051 0.0
H93 H 0.58663 0.52169 0.36411 0.0
H94 H 0.53456 0.46082 0.46609 0.0
S95 S 0.44884 0.60173 0.45447 0.0
N96 N 0.49718 0.61523 0.39192 0.0
N97 N 0.44034 0.54881 0.50291 0.0
C98 C 0.47774 0.5399 0.469 0.0
C99 C 0.50857 0.57595 0.40862 0.0
C100 C 0.99524 0.50726 0.67643 0.0
C101 C 0.97522 0.45207 0.66662 0.0
C102 C -0.00087 0.53987 0.61405 0.0
C103 C 0.98299 0.51875 0.53906 0.0
H104 H 0.00919 0.52594 0.73256 0.0
H105 H 0.01579 0.58222 0.62475 0.0
S106 S 0.92477 0.37616 0.4827 0.0
N107 N 0.93676 0.37723 0.57636 0.0
N108 N 0.94399 0.43852 0.45902 0.0
C109 C 0.96126 0.46331 0.52867 0.0
C110 C 0.95743 0.43002 0.59238 0.0
C111 C 0.51079 0.03764 0.87614 0.0
C112 C 0.54364 0.0147 0.88461 0.0
C113 C 0.48508 0.03458 0.806 0.0
C114 C 0.49119 0.00859 0.74099 0.0
H115 H 0.50526 0.05888 0.9238 0.0
H116 H 0.46102 0.05377 0.80258 0.0
S117 S 0.57031 0.93903 0.73361 0.0
N118 N 0.579 0.96288 0.82265 0.0
N119 N 0.53072 0.95722 0.69067 0.0
C120 C 0.5228 0.98419 0.74904 0.0
C121 C 0.54896 0.9872 0.82079 0.0
C122 C 0.57829 0.54912 0.93931 0.0
C123 C 0.54844 0.54863 0.00407 0.0
C124 C 0.55312 0.52376 0.86991 0.0
C125 C 0.49706 0.49641 0.86264 0.0
H126 H 0.62155 0.5703 0.9415 0.0
H127 H 0.57799 0.52615 0.82136 0.0
S128 S 0.40036 0.48029 0.01697 0.0
N129 N 0.45959 0.51642 0.05768 0.0
N130 N 0.41231 0.46857 0.92772 0.0
C131 C 0.46664 0.49428 0.92777 0.0
C132 C 0.49231 0.52046 -0.00174 0.0
C133 C 0.07882 0.59202 0.03302 0.0
C134 C 0.0622 0.53753 0.04277 0.0
C135 C 0.08325 0.62447 0.09631 0.0
C136 C 0.07134 0.60378 0.17194 0.0
H137 H 0.08697 0.60957 0.97576 0.0
H138 H 0.09468 0.66574 0.08533 0.0
S139 S 0.03186 0.46497 0.22994 0.0
N140 N 0.03791 0.4653 0.13489 0.0
N141 N 0.04635 0.52614 0.2537 0.0
C142 C 0.05703 0.54989 0.18298 0.0
C143 C 0.05242 0.51684 0.11849 0.0
C144 C 0.681 0.83182 0.25872 0.0
C145 C 0.67219 0.79428 0.2002 0.0
C146 C 0.67858 0.87823 0.24303 0.0
C147 C 0.66716 0.88908 0.16814 0.0
H148 H 0.68959 0.82533 0.31752 0.0
H149 H 0.6854 0.90558 0.29036 0.0
S150 S 0.6419 0.80417 0.99355 0.0
N151 N 0.65229 0.7716 0.06364 0.0
N152 N 0.64773 0.85859 0.03427 0.0
C153 C 0.65869 0.8521 0.10878 0.0
C154 C 0.66122 0.80484 0.12473 0.0
C155 C 0.86632 0.62463 0.23872 0.0
C156 C 0.90179 0.65262 0.29975 0.0
C157 C 0.82159 0.63018 0.22371 0.0
C158 C 0.81009 0.66353 0.26958 0.0
H159 H 0.87264 0.59757 0.20254 0.0
H160 H 0.79501 0.60686 0.17703 0.0
S161 S 0.89221 0.74879 0.43292 0.0
N162 N 0.9239 0.71747 0.40372 0.0
N163 N 0.83951 0.72746 0.37584 0.0
C164 C 0.84596 0.69298 0.32944 0.0
C165 C 0.89187 0.68768 0.34437 0.0
C166 C 0.21205 0.80187 0.46565 0.0
C167 C 0.16634 0.80749 0.46991 0.0
C168 C 0.26259 0.84371 0.48636 0.0
C169 C 0.26982 0.89324 0.51176 0.0
H170 H 0.20891 0.76461 0.44661 0.0
H171 H 0.29631 0.83707 0.48185 0.0
S172 S 0.16328 0.92917 0.53245 0.0
N173 N 0.13163 0.86682 0.50112 0.0
N174 N 0.22674 0.94567 0.53973 0.0
C175 C 0.22451 0.89963 0.51612 0.0
C176 C 0.17281 0.85676 0.49534 0.0
C177 C 0.43516 0.26352 0.65065 0.0
C178 C 0.39147 0.27239 0.65486 0.0
C179 C 0.42835 0.2138 0.62848 0.0
C180 C 0.37744 0.17062 0.61075 0.0
H181 H 0.47518 0.29535 0.66404 0.0
H182 H 0.4633 0.20902 0.62666 0.0
S183 S 0.24986 0.17296 0.61241 0.0
N184 N 0.29545 0.23397 0.63857 0.0
N185 N 0.28252 0.1402 0.59795 0.0
C186 C 0.33333 0.17891 0.61452 0.0
C187 C 0.34038 0.22984 0.63621 0.0
C188 C 0.18119 0.43731 0.74464 0.0
C189 C 0.14227 0.40486 0.79911 0.0
C190 C 0.22434 0.42978 0.72684 0.0
C191 C 0.23073 0.38966 0.76309 0.0
H192 H 0.17873 0.46929 0.71568 0.0
H193 H 0.25347 0.45649 0.6853 0.0
S194 S 0.13861 0.29199 0.90744 0.0
N195 N 0.11183 0.32954 0.88723 0.0
N196 N 0.19312 0.31551 0.85403 0.0
C197 C 0.19152 0.35607 0.81654 0.0
C198 C 0.14728 0.3636 0.83443 0.0
C199 C 0.87121 0.20623 -0.0009 0.0
C200 C 0.87644 0.25503 0.97439 0.0
C201 C 0.82145 0.1634 0.02087 0.0
C202 C 0.77495 0.16781 0.01962 0.0
H203 H 0.90573 0.20073 0.00095 0.0
H204 H 0.81953 0.12654 0.03878 0.0
S205 S 0.76736 0.28791 0.96202 0.0
N206 N 0.83094 0.30573 0.95153 0.0
N207 N 0.73769 0.2256 0.99281 0.0
C208 C 0.77975 0.2167 0.99597 0.0
C209 C 0.83036 0.26016 0.9732 0.0
loop_
_geom_bond_atom_site_label_1
_geom_bond_atom_site_label_2
_geom_bond_distance
_geom_bond_site_symmetry_2
_ccdc_geom_bond_type
C0 O1 1.160 . S
C0 O7 1.185 . S
O1 C0 1.160 . S
O2 Zn3 1.899 . S
O2 C10 1.284 . S
Zn3 O2 1.899 . S
Zn3 O4 2.032 . S
Zn3 O7 2.086 1_545 S
Zn3 O12 1.977 1_544 S
O4 Zn3 2.032 . S
O4 C8 1.278 . S
C5 O6 1.203 . S
C5 O12 1.267 1_545 S
O6 C5 1.203 . S
O7 C0 1.185 . S
O7 Zn3 2.086 1_565 S
C8 O4 1.278 . S
C8 O9 1.211 . S
O9 C8 1.211 . S
C10 O2 1.284 . S
C10 O11 1.273 . S
O11 C10 1.273 . S
O12 Zn3 1.977 1_566 S
O12 C5 1.267 1_565 S
C13 O14 1.160 . S
C13 O20 1.185 . S
O14 C13 1.160 . S
O15 Zn16 1.899 . S
O15 C23 1.284 . S
Zn16 O15 1.899 . S
Zn16 O17 2.032 . S
Zn16 O20 2.086 . S
Zn16 O25 1.977 . S
O17 Zn16 2.032 . S
O17 C21 1.278 . S
C18 O19 1.203 . S
C18 O25 1.267 . S
O19 C18 1.203 . S
O20 C13 1.185 . S
O20 Zn16 2.086 . S
C21 O17 1.278 . S
C21 O22 1.211 . S
O22 C21 1.211 . S
C23 O15 1.284 . S
C23 O24 1.273 . S
O24 C23 1.273 . S
O25 Zn16 1.977 . S
O25 C18 1.267 . S
C26 O27 1.160 . S
C26 O33 1.185 . S
O27 C26 1.160 . S
O28 Zn29 1.899 1_655 S
O28 C36 1.284 . S
Zn29 O28 1.899 1_455 S
Zn29 O30 2.032 . S
Zn29 O33 2.086 . S
Zn29 O38 1.977 . S
O30 Zn29 2.032 . S
O30 C34 1.278 . S
C31 O32 1.203 1_455 S
C31 O38 1.267 . S
O32 C31 1.203 1_655 S
O33 C26 1.185 . S
O33 Zn29 2.086 . S
C34 O30 1.278 . S
C34 O35 1.211 1_455 S
O35 C34 1.211 1_655 S
C36 O28 1.284 . S
C36 O37 1.273 . S
O37 C36 1.273 . S
O38 Zn29 1.977 . S
O38 C31 1.267 . S
C39 O40 1.160 . S
C39 O46 1.185 . S
O40 C39 1.160 . S
O41 Zn42 1.899 1_565 S
O41 C49 1.284 . S
Zn42 O41 1.899 1_545 S
Zn42 O43 2.032 . S
Zn42 O46 2.086 . S
Zn42 O51 1.977 . S
O43 Zn42 2.032 . S
O43 C47 1.278 . S
C44 O45 1.203 1_545 S
C44 O51 1.267 . S
O45 C44 1.203 1_565 S
O46 C39 1.185 . S
O46 Zn42 2.086 . S
C47 O43 1.278 . S
C47 O48 1.225 . S
O48 C47 1.225 . S
C49 O41 1.284 . S
C49 O50 1.273 . S
O50 C49 1.273 . S
O51 Zn42 1.977 . S
O51 C44 1.267 . S
C52 O53 1.160 . S
C52 O59 1.185 . S
O53 C52 1.160 . S
O54 Zn55 1.899 . S
O54 C62 1.284 . S
Zn55 O54 1.899 . S
Zn55 O56 2.032 . S
Zn55 O59 2.086 . S
Zn55 O64 1.977 . S
O56 Zn55 2.032 . S
O56 C60 1.278 . S
C57 O58 1.203 . S
C57 O64 1.267 . S
O58 C57 1.203 . S
O59 C52 1.185 . S
O59 Zn55 2.086 . S
C60 O56 1.278 . S
C60 O61 1.211 . S
O61 C60 1.211 . S
C62 O54 1.284 . S
C62 O63 1.273 . S
O63 C62 1.273 . S
O64 Zn55 1.977 . S
O64 C57 1.267 . S
C65 O66 1.160 . S
C65 O72 1.185 . S
O66 C65 1.160 . S
O67 Zn68 1.899 . S
O67 C75 1.284 . S
Zn68 O67 1.899 . S
Zn68 O69 2.032 . S
Zn68 O72 2.086 1_455 S
Zn68 O77 1.977 1_455 S
O69 Zn68 2.032 . S
O69 C73 1.278 . S
C70 O71 1.203 . S
C70 O77 1.267 1_455 S
O71 C70 1.203 . S
O72 C65 1.185 . S
O72 Zn68 2.086 1_655 S
C73 O69 1.278 . S
C73 O74 1.211 . S
O74 C73 1.211 . S
C75 O67 1.284 . S
C75 O76 1.273 . S
O76 C75 1.273 . S
O77 Zn68 1.977 1_655 S
O77 C70 1.267 1_655 S
C78 C79 1.369 . S
C78 C80 1.419 . S
C78 H82 0.930 1_545 S
C79 C78 1.369 . S
C79 C88 1.429 . S
C80 C78 1.419 . S
C80 C81 1.363 . S
C80 H83 0.929 1_545 S
C81 C80 1.363 . S
C81 C87 1.428 . S
H82 C78 0.930 1_565 S
H83 C80 0.929 1_565 S
S84 N85 1.613 . S
S84 N86 1.610 . S
N85 S84 1.613 . S
N85 C88 1.350 . S
N86 S84 1.610 . S
N86 C87 1.351 . S
C87 C81 1.428 . S
C87 N86 1.351 . S
C87 C88 1.434 . S
C88 C79 1.429 . S
C88 N85 1.350 . S
C88 C87 1.434 . S
C89 C90 1.369 . S
C89 C91 1.419 . S
C89 H93 0.930 . S
C90 C89 1.369 . S
C90 C99 1.429 . S
C91 C89 1.419 . S
C91 C92 1.363 . S
C91 H94 0.929 . S
C92 C91 1.363 . S
C92 C98 1.428 . S
H93 C89 0.930 . S
H94 C91 0.929 . S
S95 N96 1.613 . S
S95 N97 1.610 . S
N96 S95 1.613 . S
N96 C99 1.350 . S
N97 S95 1.610 . S
N97 C98 1.351 . S
C98 C92 1.428 . S
C98 N97 1.351 . S
C98 C99 1.434 . S
C99 C90 1.429 . S
C99 N96 1.350 . S
C99 C98 1.434 . S
C100 C101 1.369 . S
C100 C102 1.419 . S
C100 H104 0.930 . S
C101 C100 1.369 . S
C101 C110 1.429 . S
C102 C100 1.419 . S
C102 C103 1.363 . S
C102 H105 0.929 . S
C103 C102 1.363 . S
C103 C109 1.428 . S
H104 C100 0.930 . S
H105 C102 0.929 . S
S106 N107 1.613 . S
S106 N108 1.610 . S
N107 S106 1.613 . S
N107 C110 1.350 . S
N108 S106 1.610 . S
N108 C109 1.351 . S
C109 C103 1.428 . S
C109 N108 1.351 . S
C109 C110 1.434 . S
C110 C101 1.429 . S
C110 N107 1.350 . S
C110 C109 1.434 . S
C111 C112 1.369 . S
C111 C113 1.419 . S
C111 H115 0.930 . S
C112 C111 1.369 . S
C112 C121 1.429 1_545 S
C113 C111 1.419 . S
C113 C114 1.363 . S
C113 H116 0.929 . S
C114 C113 1.363 . S
C114 C120 1.428 1_545 S
H115 C111 0.930 . S
H116 C113 0.929 . S
S117 N118 1.613 . S
S117 N119 1.610 . S
N118 S117 1.613 . S
N118 C121 1.350 . S
N119 S117 1.610 . S
N119 C120 1.351 . S
C120 C114 1.428 1_565 S
C120 N119 1.351 . S
C120 C121 1.434 . S
C121 C112 1.429 1_565 S
C121 N118 1.350 . S
C121 C120 1.434 . S
C122 C123 1.369 1_556 S
C122 C124 1.419 . S
C122 H126 0.930 . S
C123 C122 1.369 1_554 S
C123 C132 1.429 . S
C124 C122 1.419 . S
C124 C125 1.363 . S
C124 H127 0.929 . S
C125 C124 1.363 . S
C125 C131 1.428 . S
H126 C122 0.930 . S
H127 C124 0.929 . S
S128 N129 1.613 . S
S128 N130 1.610 1_554 S
N129 S128 1.613 . S
N129 C132 1.350 . S
N130 S128 1.610 1_556 S
N130 C131 1.351 . S
C131 C125 1.428 . S
C131 N130 1.351 . S
C131 C132 1.434 1_556 S
C132 C123 1.429 . S
C132 N129 1.350 . S
C132 C131 1.434 1_554 S
C133 C134 1.369 . S
C133 C135 1.419 . S
C133 H137 0.930 . S
C134 C133 1.369 . S
C134 C143 1.429 . S
C135 C133 1.419 . S
C135 C136 1.363 . S
C135 H138 0.929 . S
C136 C135 1.363 . S
C136 C142 1.428 . S
H137 C133 0.930 . S
H138 C135 0.929 . S
S139 N140 1.613 . S
S139 N141 1.610 . S
N140 S139 1.613 . S
N140 C143 1.350 . S
N141 S139 1.610 . S
N141 C142 1.351 . S
C142 C136 1.428 . S
C142 N141 1.351 . S
C142 C143 1.434 . S
C143 C134 1.429 . S
C143 N140 1.350 . S
C143 C142 1.434 . S
C144 C145 1.369 . S
C144 C146 1.419 . S
C144 H148 0.930 . S
C145 C144 1.369 . S
C145 C154 1.429 . S
C146 C144 1.419 . S
C146 C147 1.363 . S
C146 H149 0.929 . S
C147 C146 1.363 . S
C147 C153 1.428 . S
H148 C144 0.930 . S
H149 C146 0.929 . S
S150 N151 1.613 1_556 S
S150 N152 1.610 1_556 S
N151 S150 1.613 1_554 S
N151 C154 1.350 . S
N152 S150 1.610 1_554 S
N152 C153 1.351 . S
C153 C147 1.428 . S
C153 N152 1.351 . S
C153 C154 1.434 . S
C154 C145 1.429 . S
C154 N151 1.350 . S
C154 C153 1.434 . S
C155 C156 1.369 . S
C155 C157 1.419 . S
C155 H159 0.930 . S
C156 C155 1.369 . S
C156 C165 1.429 . S
C157 C155 1.419 . S
C157 C158 1.363 . S
C157 H160 0.929 . S
C158 C157 1.363 . S
C158 C164 1.428 . S
H159 C155 0.930 . S
H160 C157 0.929 . S
S161 N162 1.613 . S
S161 N163 1.610 . S
N162 S161 1.613 . S
N162 C165 1.350 . S
N163 S161 1.610 . S
N163 C164 1.351 . S
C164 C158 1.428 . S
C164 N163 1.351 . S
C164 C165 1.434 . S
C165 C156 1.429 . S
C165 N162 1.350 . S
C165 C164 1.434 . S
C166 C167 1.369 . S
C166 C168 1.419 . S
C166 H170 0.930 . S
C167 C166 1.369 . S
C167 C176 1.429 . S
C168 C166 1.419 . S
C168 C169 1.363 . S
C168 H171 0.929 . S
C169 C168 1.363 . S
C169 C175 1.428 . S
H170 C166 0.930 . S
H171 C168 0.929 . S
S172 N173 1.613 . S
S172 N174 1.610 . S
N173 S172 1.613 . S
N173 C176 1.350 . S
N174 S172 1.610 . S
N174 C175 1.351 . S
C175 C169 1.428 . S
C175 N174 1.351 . S
C175 C176 1.434 . S
C176 C167 1.429 . S
C176 N173 1.350 . S
C176 C175 1.434 . S
C177 C178 1.369 . S
C177 C179 1.419 . S
C177 H181 0.930 . S
C178 C177 1.369 . S
C178 C187 1.429 . S
C179 C177 1.419 . S
C179 C180 1.363 . S
C179 H182 0.929 . S
C180 C179 1.363 . S
C180 C186 1.428 . S
H181 C177 0.930 . S
H182 C179 0.929 . S
S183 N184 1.613 . S
S183 N185 1.610 . S
N184 S183 1.613 . S
N184 C187 1.350 . S
N185 S183 1.610 . S
N185 C186 1.351 . S
C186 C180 1.428 . S
C186 N185 1.351 . S
C186 C187 1.434 . S
C187 C178 1.429 . S
C187 N184 1.350 . S
C187 C186 1.434 . S
C188 C189 1.369 . S
C188 C190 1.419 . S
C188 H192 0.930 . S
C189 C188 1.369 . S
C189 C198 1.429 . S
C190 C188 1.419 . S
C190 C191 1.363 . S
C190 H193 0.929 . S
C191 C190 1.363 . S
C191 C197 1.428 . S
H192 C188 0.930 . S
H193 C190 0.929 . S
S194 N195 1.613 . S
S194 N196 1.610 . S
N195 S194 1.613 . S
N195 C198 1.350 . S
N196 S194 1.610 . S
N196 C197 1.351 . S
C197 C191 1.428 . S
C197 N196 1.351 . S
C197 C198 1.434 . S
C198 C189 1.429 . S
C198 N195 1.350 . S
C198 C197 1.434 . S
C199 C200 1.369 . S
C199 C201 1.419 . S
C199 H203 0.930 . S
C200 C199 1.369 . S
C200 C209 1.429 . S
C201 C199 1.419 . S
C201 C202 1.363 1_556 S
C201 H204 0.929 1_556 S
C202 C201 1.363 1_554 S
C202 C208 1.428 1_554 S
H203 C199 0.930 . S
H204 C201 0.929 1_554 S
S205 N206 1.613 . S
S205 N207 1.610 1_556 S
N206 S205 1.613 . S
N206 C209 1.350 . S
N207 S205 1.610 1_554 S
N207 C208 1.351 1_554 S
C208 C202 1.428 1_556 S
C208 N207 1.351 1_556 S
C208 C209 1.434 . S
C209 C200 1.429 . S
C209 N206 1.350 . S
C209 C208 1.434 . S
C79 C8 1.408 . S
C81 C44 1.417 . S
C90 C21 1.401 . S
C92 C57 1.419 . S
C101 C70 1.415 . S
C103 C34 1.400 . S
C112 C5 1.418 . S
C114 C47 1.400 . S
C123 C18 1.413 . S
C125 C60 1.406 . S
C134 C73 1.408 1_554 S
C136 C31 1.415 . S
C145 C23 1.449 . S
C147 C0 1.443 . S
C156 C36 1.452 . S
C158 C13 1.440 . S
C167 C26 1.441 . S
C169 C49 1.451 . S
C178 C62 1.452 . S
C180 C39 1.439 . S
C189 C75 1.451 . S
C191 C52 1.440 . S
C200 C65 1.443 . S
C202 C10 1.448 . S
