# Generated by pormake.
# Topology qtz, (4)-cn, num edge types: 1
# Building blocks:
#     Node 0, Type 0, BuildingBlock: CEKHIL_clean_sbu_0, # of connection points: 4
#     Node 1, Type 0, BuildingBlock: CEKHIL_clean_sbu_0, # of connection points: 4
#     Node 2, Type 0, BuildingBlock: CEKHIL_clean_sbu_0, # of connection points: 4
#     Edge 3, Type (0, 0), BuildingBlock: CIFDUS_clean_linker_0, # of connection points: 2
#     Edge 4, Type (0, 0), BuildingBlock: CIFDUS_clean_linker_0, # of connection points: 2
#     Edge 5, Type (0, 0), BuildingBlock: CIFDUS_clean_linker_0, # of connection points: 2
#     Edge 6, Type (0, 0), BuildingBlock: CIFDUS_clean_linker_0, # of connection points: 2
#     Edge 7, Type (0, 0), BuildingBlock: CIFDUS_clean_linker_0, # of connection points: 2
#     Edge 8, Type (0, 0), BuildingBlock: CIFDUS_clean_linker_0, # of connection points: 2
# Relax obj value: 0.004
# Max RMSD: 0.040
# Mean RMSD: 0.037
data_MOF--net-qtz--node1-CEKHIL_clean_sbu_0--edge1-CIFDUS_clean_linker_0
_symmetry_space_group_name_H-M    P1
_symmetry_Int_Tables_number       1
_symmetry_cell_setting            triclinic
loop_
_symmetry_equiv_pos_as_xyz
'x, y, z'
_cell_length_a     20.197655
_cell_length_b     20.341212
_cell_length_c     24.468458
_cell_angle_alpha  92.162316
_cell_angle_beta   89.982109
_cell_angle_gamma 120.48301
loop_
_atom_site_label
_atom_site_type_symbol
_atom_site_fract_x
_atom_site_fract_y
_atom_site_fract_z
_atom_type_partial_charge
Co0 Co 0.01123 0.52915 0.16893 0.0
O1 O 0.09471 0.57983 0.11894 0.0
O2 O 0.08144 0.49138 0.17499 0.0
C3 C 0.91854 0.50508 0.10577 0.0
O4 O 0.93224 0.46055 0.22428 0.0
Co5 Co 0.89978 0.58709 0.19729 0.0
O6 O 0.83552 0.48477 0.22705 0.0
C7 C 0.05592 0.66289 0.24947 0.0
C8 C 0.11947 0.53632 0.13591 0.0
C9 C 0.86484 0.44461 0.23963 0.0
O10 O 0.06929 0.61201 0.22796 0.0
O11 O 0.99478 0.66477 0.23882 0.0
O12 O 0.94613 0.45992 0.10902 0.0
O13 O 0.94989 0.56471 0.13856 0.0
Co14 Co 0.52375 0.03701 0.53714 0.0
O15 O 0.48796 0.96614 0.59453 0.0
O16 O 0.57557 0.97758 0.53566 0.0
C17 C 0.54133 0.13677 0.59226 0.0
O18 O 0.57457 0.10765 0.47314 0.0
Co19 Co 0.42625 0.11194 0.5103 0.0
O20 O 0.51406 0.17436 0.46332 0.0
C21 C 0.37536 0.95434 0.46832 0.0
C22 C 0.53543 0.9449 0.5785 0.0
C23 C 0.56615 0.15923 0.45009 0.0
O24 O 0.43787 0.95917 0.48621 0.0
O25 O 0.35833 0.00621 0.47841 0.0
O26 O 0.5948 0.11943 0.58867 0.0
O27 O 0.47818 0.09055 0.56623 0.0
Co28 Co 0.51598 0.54625 0.83012 0.0
O29 O 0.46254 0.5716 0.7776 0.0
O30 O 0.57078 0.65605 0.82087 0.0
C31 C 0.51003 0.44907 0.77849 0.0
O32 O 0.58841 0.53988 0.88574 0.0
Co33 Co 0.43494 0.38719 0.88072 0.0
O34 O 0.54043 0.41654 0.90425 0.0
C35 C 0.40092 0.50534 0.92221 0.0
C36 C 0.51702 0.64197 0.78506 0.0
C37 C 0.59428 0.48612 0.9075 0.0
O38 O 0.45197 0.55474 0.89092 0.0
O39 O 0.3833 0.43531 0.92182 0.0
O40 O 0.56411 0.51885 0.77133 0.0
O41 O 0.45871 0.44074 0.81346 0.0
H42 H 0.33564 0.44045 1.01698 0.0
H43 H 0.3734 0.62382 0.9144 0.0
H44 H 0.29431 0.65402 0.97442 0.0
H45 H 0.20627 0.62132 0.05213 0.0
H46 H 0.17056 0.43805 0.15431 0.0
H47 H 0.2578 0.41543 0.09859 0.0
C48 C 0.32691 0.48731 1.00779 0.0
C49 C 0.35949 0.52912 0.96081 0.0
C50 C 0.28174 0.50434 0.04244 0.0
C51 C 0.34883 0.59059 0.95018 0.0
C52 C 0.3034 0.60769 0.98441 0.0
C53 C 0.21847 0.57718 0.0627 0.0
C54 C 0.18142 0.53108 0.10721 0.0
C55 C 0.26845 0.56403 0.03013 0.0
C56 C 0.19811 0.47432 0.12037 0.0
C57 C 0.24775 0.46107 0.08832 0.0
H58 H 0.71114 0.36302 0.24863 0.0
H59 H 0.91917 0.3831 0.3136 0.0
H60 H 0.84498 0.29034 0.38275 0.0
H61 H 0.7204 0.2125 0.43045 0.0
H62 H 0.51552 0.19704 0.36228 0.0
H63 H 0.5887 0.27801 0.28894 0.0
C64 C 0.74036 0.34667 0.27758 0.0
C65 C 0.82058 0.38068 0.27639 0.0
C66 C 0.69768 0.29418 0.31714 0.0
C67 C 0.85732 0.35779 0.31364 0.0
C68 C 0.81492 0.30505 0.35342 0.0
C69 C 0.69196 0.22604 0.39899 0.0
C70 C 0.61275 0.19981 0.40255 0.0
C71 C 0.735 0.27409 0.35647 0.0
C72 C 0.57661 0.21766 0.36129 0.0
C73 C 0.61834 0.26394 0.31911 0.0
H74 H 0.43878 0.85384 0.65391 0.0
H75 H 0.65238 0.91198 0.57642 0.0
H76 H 0.66945 0.82772 0.63704 0.0
H77 H 0.62237 0.73685 0.71293 0.0
H78 H 0.40516 0.67634 0.7852 0.0
H79 H 0.39139 0.7636 0.72664 0.0
C80 C 0.48915 0.84813 0.65 0.0
C81 C 0.54431 0.88926 0.61066 0.0
C82 C 0.49835 0.8 0.68479 0.0
C83 C 0.60881 0.88056 0.60606 0.0
C84 C 0.61881 0.83285 0.64103 0.0
C85 C 0.57291 0.74415 0.71626 0.0
C86 C 0.5155 0.70183 0.75398 0.0
C87 C 0.56413 0.79263 0.68089 0.0
C88 C 0.4504 0.70945 0.757 0.0
C89 C 0.44232 0.75881 0.72329 0.0
H90 H 0.64119 0.38895 0.93758 0.0
H91 H 0.70195 0.62517 0.95418 0.0
H92 H 0.80709 0.65162 0.01775 0.0
H93 H 0.87858 0.60612 0.07132 0.0
H94 H 0.81907 0.37055 0.05194 0.0
H95 H 0.71584 0.34515 0.98715 0.0
C96 C 0.67756 0.44642 0.95485 0.0
C97 C 0.66321 0.50488 0.94133 0.0
C98 C 0.73763 0.4611 0.99131 0.0
C99 C 0.71169 0.57913 0.96366 0.0
C100 C 0.77153 0.59417 1.00032 0.0
C101 C 0.84286 0.5492 0.05295 0.0
C102 C 0.856 0.49006 0.06671 0.0
C103 C 0.78439 0.53534 1.01497 0.0
C104 C 0.81 0.41691 0.0421 0.0
C105 C 0.75104 0.40241 1.00502 0.0
H106 H 0.2442 0.93244 0.42183 0.0
H107 H 0.3863 0.83048 0.42881 0.0
H108 H 0.30084 0.73084 0.36097 0.0
H109 H 0.18585 0.67462 0.29787 0.0
H110 H 0.05077 0.78492 0.29251 0.0
H111 H 0.13434 0.87951 0.36098 0.0
C112 C 0.25697 0.8885 0.40905 0.0
C113 C 0.3219 0.88933 0.43074 0.0
C114 C 0.20895 0.83289 0.36968 0.0
C115 C 0.33664 0.83136 0.41311 0.0
C116 C 0.28794 0.77455 0.37406 0.0
C117 C 0.17503 0.71957 0.31154 0.0
C118 C 0.11149 0.72189 0.28974 0.0
C119 C 0.22406 0.77511 0.35161 0.0
C120 C 0.09856 0.78075 0.30827 0.0
C121 C 0.14641 0.83526 0.3477 0.0
H122 H 0.62571 0.44044 0.72819 0.0
H123 H 0.3825 0.31086 0.75798 0.0
H124 H 0.37067 0.20388 0.70136 0.0
H125 H 0.42874 0.14782 0.64237 0.0
H126 H 0.6732 0.2715 0.61794 0.0
H127 H 0.6856 0.38047 0.67336 0.0
C128 C 0.57028 0.38863 0.72227 0.0
C129 C 0.50494 0.38356 0.74677 0.0
C130 C 0.56418 0.32663 0.69054 0.0
C131 C 0.43358 0.31595 0.73953 0.0
C132 C 0.42671 0.2549 0.70703 0.0
C133 C 0.48468 0.19879 0.6491 0.0
C134 C 0.54989 0.20235 0.62583 0.0
C135 C 0.49147 0.25981 0.68211 0.0
C136 C 0.62227 0.26787 0.63552 0.0
C137 C 0.62928 0.33001 0.6671 0.0
loop_
_geom_bond_atom_site_label_1
_geom_bond_atom_site_label_2
_geom_bond_distance
_geom_bond_site_symmetry_2
_ccdc_geom_bond_type
Co0 O1 2.216 . S
Co0 O2 2.091 . S
Co0 O4 2.004 1_455 S
Co0 O10 2.021 . S
Co0 O12 2.137 1_455 S
Co0 O13 2.244 1_455 S
O1 Co0 2.216 . S
O1 C8 1.247 . S
O2 Co0 2.091 . S
O2 C8 1.261 . S
C3 O12 1.247 . S
C3 O13 1.272 . S
O4 Co0 2.004 1_655 S
O4 C9 1.259 . S
Co5 O6 2.061 . S
Co5 O11 2.052 1_655 S
Co5 O13 2.135 . S
O6 Co5 2.061 . S
O6 C9 1.235 . S
C7 O10 1.238 . S
C7 O11 1.241 . S
C8 O1 1.247 . S
C8 O2 1.261 . S
C9 O4 1.259 . S
C9 O6 1.235 . S
O10 Co0 2.021 . S
O10 C7 1.238 . S
O11 Co5 2.052 1_455 S
O11 C7 1.241 . S
O12 Co0 2.137 1_655 S
O12 C3 1.247 . S
O13 Co0 2.244 1_655 S
O13 C3 1.272 . S
O13 Co5 2.135 . S
Co14 O15 2.216 1_545 S
Co14 O16 2.091 1_545 S
Co14 O18 2.004 . S
Co14 O24 2.021 1_545 S
Co14 O26 2.137 . S
Co14 O27 2.244 . S
O15 Co14 2.216 1_565 S
O15 C22 1.247 . S
O16 Co14 2.091 1_565 S
O16 C22 1.261 . S
C17 O26 1.247 . S
C17 O27 1.272 . S
O18 Co14 2.004 . S
O18 C23 1.259 . S
Co19 O20 2.061 . S
Co19 O25 2.052 1_545 S
Co19 O27 2.135 . S
O20 Co19 2.061 . S
O20 C23 1.235 . S
C21 O24 1.238 . S
C21 O25 1.241 . S
C22 O15 1.247 . S
C22 O16 1.261 . S
C23 O18 1.259 . S
C23 O20 1.235 . S
O24 Co14 2.021 1_565 S
O24 C21 1.238 . S
O25 Co19 2.052 1_565 S
O25 C21 1.241 . S
O26 Co14 2.137 . S
O26 C17 1.247 . S
O27 Co14 2.244 . S
O27 C17 1.272 . S
O27 Co19 2.135 . S
Co28 O29 2.216 . S
Co28 O30 2.091 . S
Co28 O32 2.004 . S
Co28 O38 2.021 . S
Co28 O40 2.137 . S
Co28 O41 2.244 . S
O29 Co28 2.216 . S
O29 C36 1.247 . S
O30 Co28 2.091 . S
O30 C36 1.261 . S
C31 O40 1.247 . S
C31 O41 1.272 . S
O32 Co28 2.004 . S
O32 C37 1.259 . S
Co33 O34 2.061 . S
Co33 O39 2.052 . S
Co33 O41 2.135 . S
O34 Co33 2.061 . S
O34 C37 1.235 . S
C35 O38 1.238 . S
C35 O39 1.241 . S
C36 O29 1.247 . S
C36 O30 1.261 . S
C37 O32 1.259 . S
C37 O34 1.235 . S
O38 Co28 2.021 . S
O38 C35 1.238 . S
O39 Co33 2.052 . S
O39 C35 1.241 . S
O40 Co28 2.137 . S
O40 C31 1.247 . S
O41 Co28 2.244 . S
O41 C31 1.272 . S
O41 Co33 2.135 . S
H42 C48 0.937 . S
H43 C51 0.930 . S
H44 C52 0.930 . S
H45 C53 0.930 1_556 S
H46 C56 0.930 . S
H47 C57 0.930 . S
C48 H42 0.937 . S
C48 C49 1.355 . S
C48 C50 1.415 1_556 S
C49 C48 1.355 . S
C49 C51 1.419 . S
C50 C48 1.415 1_554 S
C50 C55 1.425 1_554 S
C50 C57 1.409 . S
C51 H43 0.930 . S
C51 C49 1.419 . S
C51 C52 1.362 . S
C52 H44 0.930 . S
C52 C51 1.362 . S
C52 C55 1.409 . S
C53 H45 0.930 1_554 S
C53 C54 1.355 . S
C53 C55 1.415 1_554 S
C54 C53 1.355 . S
C54 C56 1.419 . S
C55 C50 1.425 1_556 S
C55 C52 1.409 . S
C55 C53 1.415 1_556 S
C56 H46 0.930 . S
C56 C54 1.419 . S
C56 C57 1.362 . S
C57 H47 0.930 . S
C57 C50 1.409 . S
C57 C56 1.362 . S
H58 C64 0.930 . S
H59 C67 0.930 . S
H60 C68 0.930 . S
H61 C69 0.930 . S
H62 C72 0.930 . S
H63 C73 0.930 . S
C64 H58 0.930 . S
C64 C65 1.355 . S
C64 C66 1.415 . S
C65 C64 1.355 . S
C65 C67 1.419 . S
C66 C64 1.415 . S
C66 C71 1.425 . S
C66 C73 1.409 . S
C67 H59 0.930 . S
C67 C65 1.419 . S
C67 C68 1.362 . S
C68 H60 0.930 . S
C68 C67 1.362 . S
C68 C71 1.409 . S
C69 H61 0.930 . S
C69 C70 1.355 . S
C69 C71 1.415 . S
C70 C69 1.355 . S
C70 C72 1.419 . S
C71 C66 1.425 . S
C71 C68 1.409 . S
C71 C69 1.415 . S
C72 H62 0.930 . S
C72 C70 1.419 . S
C72 C73 1.362 . S
C73 H63 0.930 . S
C73 C66 1.409 . S
C73 C72 1.362 . S
H74 C80 0.930 . S
H75 C83 0.930 . S
H76 C84 0.930 . S
H77 C85 0.930 . S
H78 C88 0.930 . S
H79 C89 0.930 . S
C80 H74 0.930 . S
C80 C81 1.355 . S
C80 C82 1.415 . S
C81 C80 1.355 . S
C81 C83 1.419 . S
C82 C80 1.415 . S
C82 C87 1.425 . S
C82 C89 1.409 . S
C83 H75 0.930 . S
C83 C81 1.419 . S
C83 C84 1.362 . S
C84 H76 0.930 . S
C84 C83 1.362 . S
C84 C87 1.409 . S
C85 H77 0.930 . S
C85 C86 1.355 . S
C85 C87 1.415 . S
C86 C85 1.355 . S
C86 C88 1.419 . S
C87 C82 1.425 . S
C87 C84 1.409 . S
C87 C85 1.415 . S
C88 H78 0.930 . S
C88 C86 1.419 . S
C88 C89 1.362 . S
C89 H79 0.930 . S
C89 C82 1.409 . S
C89 C88 1.362 . S
H90 C96 0.930 . S
H91 C99 0.930 . S
H92 C100 0.930 . S
H93 C101 0.930 . S
H94 C104 0.930 . S
H95 C105 0.930 . S
C96 H90 0.930 . S
C96 C97 1.355 . S
C96 C98 1.415 1_556 S
C97 C96 1.355 . S
C97 C99 1.419 . S
C98 C96 1.415 1_554 S
C98 C103 1.425 . S
C98 C105 1.409 . S
C99 H91 0.930 . S
C99 C97 1.419 . S
C99 C100 1.362 . S
C100 H92 0.930 . S
C100 C99 1.362 . S
C100 C103 1.409 1_556 S
C101 H93 0.930 . S
C101 C102 1.355 . S
C101 C103 1.415 . S
C102 C101 1.355 . S
C102 C104 1.419 . S
C103 C98 1.425 . S
C103 C100 1.409 1_554 S
C103 C101 1.415 . S
C104 H94 0.930 . S
C104 C102 1.419 . S
C104 C105 1.362 . S
C105 H95 0.930 . S
C105 C98 1.409 . S
C105 C104 1.362 . S
H106 C112 0.930 . S
H107 C115 0.930 . S
H108 C116 0.930 . S
H109 C117 0.930 . S
H110 C120 0.930 . S
H111 C121 0.930 . S
C112 H106 0.930 . S
C112 C113 1.355 . S
C112 C114 1.415 . S
C113 C112 1.355 . S
C113 C115 1.419 . S
C114 C112 1.415 . S
C114 C119 1.425 . S
C114 C121 1.409 . S
C115 H107 0.930 . S
C115 C113 1.419 . S
C115 C116 1.362 . S
C116 H108 0.930 . S
C116 C115 1.362 . S
C116 C119 1.409 . S
C117 H109 0.930 . S
C117 C118 1.355 . S
C117 C119 1.415 . S
C118 C117 1.355 . S
C118 C120 1.419 . S
C119 C114 1.425 . S
C119 C116 1.409 . S
C119 C117 1.415 . S
C120 H110 0.930 . S
C120 C118 1.419 . S
C120 C121 1.362 . S
C121 H111 0.930 . S
C121 C114 1.409 . S
C121 C120 1.362 . S
H122 C128 0.930 . S
H123 C131 0.930 . S
H124 C132 0.930 . S
H125 C133 0.930 . S
H126 C136 0.930 . S
H127 C137 0.930 . S
C128 H122 0.930 . S
C128 C129 1.355 . S
C128 C130 1.415 . S
C129 C128 1.355 . S
C129 C131 1.419 . S
C130 C128 1.415 . S
C130 C135 1.425 . S
C130 C137 1.409 . S
C131 H123 0.930 . S
C131 C129 1.419 . S
C131 C132 1.362 . S
C132 H124 0.930 . S
C132 C131 1.362 . S
C132 C135 1.409 . S
C133 H125 0.930 . S
C133 C134 1.355 . S
C133 C135 1.415 . S
C134 C133 1.355 . S
C134 C136 1.419 . S
C135 C130 1.425 . S
C135 C132 1.409 . S
C135 C133 1.415 . S
C136 H126 0.930 . S
C136 C134 1.419 . S
C136 C137 1.362 . S
C137 H127 0.930 . S
C137 C130 1.409 . S
C137 C136 1.362 . S
C49 C35 1.429 . S
C54 C8 1.452 . S
C65 C9 1.487 . S
C70 C23 1.472 . S
C81 C22 1.453 . S
C86 C36 1.458 . S
C97 C37 1.475 . S
C102 C3 1.460 . S
C113 C21 1.434 . S
C118 C7 1.395 . S
C129 C31 1.433 . S
C134 C17 1.429 . S
