# Generated by pormake.
# Topology rob, (6)-cn, num edge types: 1
# Building blocks:
#     Node 0, Type 0, BuildingBlock: MIFKUJ_clean_sbu_0, # of connection points: 6
#     Node 1, Type 0, BuildingBlock: MIFKUJ_clean_sbu_0, # of connection points: 6
#     Node 2, Type 0, BuildingBlock: MIFKUJ_clean_sbu_0, # of connection points: 6
#     Node 3, Type 0, BuildingBlock: MIFKUJ_clean_sbu_0, # of connection points: 6
#     Edge 4, Type (0, 0), BuildingBlock: EYOCIG_clean_linker_4, # of connection points: 2
#     Edge 5, Type (0, 0), BuildingBlock: EYOCIG_clean_linker_4, # of connection points: 2
#     Edge 6, Type (0, 0), BuildingBlock: EYOCIG_clean_linker_4, # of connection points: 2
#     Edge 7, Type (0, 0), BuildingBlock: EYOCIG_clean_linker_4, # of connection points: 2
#     Edge 8, Type (0, 0), BuildingBlock: EYOCIG_clean_linker_4, # of connection points: 2
#     Edge 9, Type (0, 0), BuildingBlock: EYOCIG_clean_linker_4, # of connection points: 2
#     Edge 10, Type (0, 0), BuildingBlock: EYOCIG_clean_linker_4, # of connection points: 2
#     Edge 11, Type (0, 0), BuildingBlock: EYOCIG_clean_linker_4, # of connection points: 2
#     Edge 12, Type (0, 0), BuildingBlock: EYOCIG_clean_linker_4, # of connection points: 2
#     Edge 13, Type (0, 0), BuildingBlock: EYOCIG_clean_linker_4, # of connection points: 2
#     Edge 14, Type (0, 0), BuildingBlock: EYOCIG_clean_linker_4, # of connection points: 2
#     Edge 15, Type (0, 0), BuildingBlock: EYOCIG_clean_linker_4, # of connection points: 2
# Relax obj value: 0.076
# Max RMSD: 0.178
# Mean RMSD: 0.178
data_MOF--net-rob--node1-MIFKUJ_clean_sbu_0--edge1-EYOCIG_clean_linker_4
_symmetry_space_group_name_H-M    P1
_symmetry_Int_Tables_number       1
_symmetry_cell_setting            triclinic
loop_
_symmetry_equiv_pos_as_xyz
'x, y, z'
_cell_length_a     13.842108
_cell_length_b     17.937595
_cell_length_c     26.373151
_cell_angle_alpha  89.996367
_cell_angle_beta   83.337614
_cell_angle_gamma 90.013648
loop_
_atom_site_label
_atom_site_type_symbol
_atom_site_fract_x
_atom_site_fract_y
_atom_site_fract_z
_atom_type_partial_charge
Zn0 Zn 0.18621 0.25696 0.92615 0.0
Zn1 Zn 0.26451 0.20052 0.04305 0.0
C2 C 0.33159 0.23796 0.84521 0.0
O3 O 0.31084 0.3091 0.84242 0.0
C4 C 0.11532 0.1981 0.12367 0.0
O5 O 0.14391 0.12833 0.12163 0.0
O6 O 0.10314 0.29886 0.87414 0.0
O7 O 0.10026 0.18812 0.97129 0.0
O8 O 0.21311 0.11866 0.0012 0.0
C9 C 0.07654 0.25213 0.84225 0.0
O10 O 0.09762 0.18131 0.8468 0.0
O11 O 0.29008 0.19924 0.88183 0.0
C12 C 0.36835 0.20112 0.12802 0.0
O13 O 0.34069 0.27091 0.12594 0.0
O14 O 0.34825 0.1557 0.09371 0.0
O15 O 0.34492 0.28265 0.00785 0.0
O16 O 0.25056 0.34236 0.95822 0.0
O17 O 0.15231 0.24388 0.09007 0.0
C18 C 0.13043 0.12556 -0.01468 0.0
C19 C 0.32461 0.33941 0.98241 0.0
Zn20 Zn 0.68637 0.75639 0.9265 0.0
Zn21 Zn 0.7653 0.70007 0.0425 0.0
C22 C 0.83222 0.73695 0.84585 0.0
O23 O 0.81127 0.808 0.84267 0.0
C24 C 0.61553 0.69666 0.12277 0.0
O25 O 0.64451 0.62698 0.12052 0.0
O26 O 0.6034 0.79759 0.87422 0.0
O27 O 0.60067 0.68761 0.97175 0.0
O28 O 0.71465 0.6181 0.0005 0.0
C29 C 0.57718 0.75058 0.84241 0.0
O30 O 0.59858 0.67986 0.84715 0.0
O31 O 0.79068 0.69853 0.88261 0.0
C32 C 0.86834 0.70108 0.12765 0.0
O33 O 0.84017 0.77073 0.1255 0.0
O34 O 0.84893 0.65553 0.09327 0.0
O35 O 0.84537 0.78259 0.00753 0.0
O36 O 0.75 0.84224 0.95845 0.0
O37 O 0.65253 0.7428 0.08942 0.0
C38 C 0.63149 0.62493 -0.01484 0.0
C39 C 0.82433 0.83949 0.98243 0.0
Zn40 Zn 0.2475 0.75766 0.55275 0.0
Zn41 Zn 0.18332 0.70925 0.42144 0.0
C42 C 0.11117 0.73321 0.63589 0.0
O43 O 0.12785 0.80513 0.63742 0.0
C44 C 0.32951 0.69777 0.33852 0.0
O45 O 0.29529 0.62949 0.34079 0.0
O46 O 0.33335 0.80126 0.60282 0.0
O47 O 0.33444 0.69436 0.50333 0.0
O48 O 0.22971 0.62705 0.46524 0.0
C49 C 0.36736 0.75371 0.63181 0.0
O50 O 0.35203 0.68244 0.62487 0.0
O51 O 0.15255 0.6948 0.59905 0.0
C52 C 0.07618 0.70837 0.33739 0.0
O53 O 0.10985 0.77681 0.336 0.0
O54 O 0.09345 0.66527 0.37355 0.0
O55 O 0.11469 0.79889 0.45425 0.0
O56 O 0.16918 0.83995 0.52558 0.0
O57 O 0.29741 0.74486 0.37234 0.0
C58 C 0.30694 0.63249 0.4867 0.0
C59 C 0.11537 0.84628 0.48995 0.0
Zn60 Zn 0.74824 0.25869 0.55219 0.0
Zn61 Zn 0.68322 0.2092 0.42191 0.0
C62 C 0.6109 0.23487 0.63504 0.0
O63 O 0.6275 0.30681 0.63639 0.0
C64 C 0.83031 0.19915 0.3394 0.0
O65 O 0.79721 0.13055 0.34157 0.0
O66 O 0.83363 0.30257 0.60238 0.0
O67 O 0.83555 0.19487 0.50328 0.0
O68 O 0.73033 0.12728 0.4657 0.0
C69 C 0.86709 0.25523 0.63172 0.0
O70 O 0.85147 0.18393 0.62508 0.0
O71 O 0.65276 0.19622 0.59846 0.0
C72 C 0.57675 0.20776 0.33756 0.0
O73 O 0.60948 0.27647 0.33641 0.0
O74 O 0.59445 0.16464 0.37364 0.0
O75 O 0.61294 0.2982 0.45461 0.0
O76 O 0.67035 0.34097 0.52472 0.0
O77 O 0.79716 0.24596 0.37318 0.0
C78 C 0.80824 0.13299 0.48654 0.0
C79 C 0.61484 0.3463 0.48978 0.0
C80 C 0.51293 0.51078 0.98327 0.0
C81 C 0.5691 0.56161 -0.01534 0.0
C82 C 0.44532 0.45262 0.98168 0.0
C83 C 0.38853 0.40205 0.98112 0.0
C84 C 0.42629 0.51828 0.4883 0.0
C85 C 0.37036 0.56946 0.48704 0.0
C86 C 0.49327 0.45937 0.4897 0.0
C87 C 0.54942 0.40825 0.49053 0.0
C88 C 0.01158 0.01155 0.98348 0.0
C89 C 0.06778 0.06238 -0.01516 0.0
C90 C 0.94419 0.95323 0.98186 0.0
C91 C 0.88775 0.90243 0.98122 0.0
C92 C 0.92775 0.01885 0.48808 0.0
C93 C 0.87177 0.07002 0.48687 0.0
C94 C -0.00547 0.9598 0.48957 0.0
C95 C 0.05031 0.90846 0.49055 0.0
C96 C 0.49166 0.16963 0.25704 0.0
C97 C 0.5292 0.18116 0.29539 0.0
C98 C 0.45039 0.16786 0.21042 0.0
C99 C 0.41388 0.17675 0.17144 0.0
C100 C 0.50165 0.73039 0.20658 0.0
C101 C 0.55329 0.72111 0.167 0.0
C102 C 0.4438 0.72991 0.25439 0.0
C103 C 0.39228 0.72049 0.294 0.0
C104 C 0.49424 0.78418 0.76018 0.0
C105 C 0.53192 0.77414 0.79868 0.0
C106 C 0.45128 0.7852 0.71403 0.0
C107 C 0.41263 0.77656 0.67569 0.0
C108 C 0.50221 0.18827 0.71706 0.0
C109 C 0.55245 0.20132 0.67755 0.0
C110 C 0.44383 0.18964 0.76473 0.0
C111 C 0.39233 0.20431 0.80355 0.0
C112 C 0.9499 0.66828 0.21026 0.0
C113 C 0.91366 0.67697 0.17119 0.0
C114 C -0.00907 0.67024 0.25693 0.0
C115 C 0.02848 0.68184 0.29527 0.0
C116 C 0.94436 0.23213 0.25538 0.0
C117 C 0.89288 0.22246 0.29497 0.0
C118 C 0.00206 0.23258 0.20752 0.0
C119 C 0.05343 0.22304 0.16788 0.0
C120 C 0.95073 0.28721 0.71394 0.0
C121 C 0.91224 0.2784 0.67557 0.0
C122 C -0.00638 0.28623 0.76011 0.0
C123 C 0.03131 0.27607 0.7986 0.0
C124 C 0.00294 0.68639 0.71796 0.0
C125 C 0.05295 0.69946 0.67839 0.0
C126 C 0.94465 0.68799 0.76565 0.0
C127 C 0.89308 0.70295 0.80438 0.0
loop_
_geom_bond_atom_site_label_1
_geom_bond_atom_site_label_2
_geom_bond_distance
_geom_bond_site_symmetry_2
_ccdc_geom_bond_type
Zn0 O6 1.969 . S
Zn0 O7 1.965 . S
Zn0 O11 2.024 . S
Zn0 O16 1.969 . S
Zn1 O8 1.969 . S
Zn1 O14 1.969 . S
Zn1 O15 1.965 . S
Zn1 O17 2.024 . S
C2 O3 1.229 . S
C2 O11 1.058 . S
O3 C2 1.229 . S
C4 O5 1.229 . S
C4 O17 1.058 . S
O5 C4 1.229 . S
O6 Zn0 1.969 . S
O6 C9 1.267 . S
O7 Zn0 1.965 . S
O7 C18 1.260 1_556 S
O8 Zn1 1.969 . S
O8 C18 1.258 . S
C9 O6 1.267 . S
C9 O10 1.228 . S
O10 C9 1.228 . S
O11 Zn0 2.024 . S
O11 C2 1.058 . S
C12 O13 1.228 . S
C12 O14 1.267 . S
O13 C12 1.228 . S
O14 Zn1 1.969 . S
O14 C12 1.267 . S
O15 Zn1 1.965 . S
O15 C19 1.260 1_554 S
O16 Zn0 1.969 . S
O16 C19 1.258 . S
O17 Zn1 2.024 . S
O17 C4 1.058 . S
C18 O7 1.260 1_554 S
C18 O8 1.258 . S
C19 O15 1.260 1_556 S
C19 O16 1.258 . S
Zn20 O26 1.969 . S
Zn20 O27 1.965 . S
Zn20 O31 2.024 . S
Zn20 O36 1.969 . S
Zn21 O28 1.969 . S
Zn21 O34 1.969 . S
Zn21 O35 1.965 . S
Zn21 O37 2.024 . S
C22 O23 1.229 . S
C22 O31 1.058 . S
O23 C22 1.229 . S
C24 O25 1.229 . S
C24 O37 1.058 . S
O25 C24 1.229 . S
O26 Zn20 1.969 . S
O26 C29 1.267 . S
O27 Zn20 1.965 . S
O27 C38 1.260 1_556 S
O28 Zn21 1.969 . S
O28 C38 1.258 . S
C29 O26 1.267 . S
C29 O30 1.228 . S
O30 C29 1.228 . S
O31 Zn20 2.024 . S
O31 C22 1.058 . S
C32 O33 1.228 . S
C32 O34 1.267 . S
O33 C32 1.228 . S
O34 Zn21 1.969 . S
O34 C32 1.267 . S
O35 Zn21 1.965 . S
O35 C39 1.260 1_554 S
O36 Zn20 1.969 . S
O36 C39 1.258 . S
O37 Zn21 2.024 . S
O37 C24 1.058 . S
C38 O27 1.260 1_554 S
C38 O28 1.258 . S
C39 O35 1.260 1_556 S
C39 O36 1.258 . S
Zn40 O46 1.969 . S
Zn40 O47 1.965 . S
Zn40 O51 2.024 . S
Zn40 O56 1.969 . S
Zn41 O48 1.969 . S
Zn41 O54 1.969 . S
Zn41 O55 1.965 . S
Zn41 O57 2.024 . S
C42 O43 1.229 . S
C42 O51 1.058 . S
O43 C42 1.229 . S
C44 O45 1.229 . S
C44 O57 1.058 . S
O45 C44 1.229 . S
O46 Zn40 1.969 . S
O46 C49 1.267 . S
O47 Zn40 1.965 . S
O47 C58 1.260 . S
O48 Zn41 1.969 . S
O48 C58 1.258 . S
C49 O46 1.267 . S
C49 O50 1.228 . S
O50 C49 1.228 . S
O51 Zn40 2.024 . S
O51 C42 1.058 . S
C52 O53 1.228 . S
C52 O54 1.267 . S
O53 C52 1.228 . S
O54 Zn41 1.969 . S
O54 C52 1.267 . S
O55 Zn41 1.965 . S
O55 C59 1.260 . S
O56 Zn40 1.969 . S
O56 C59 1.258 . S
O57 Zn41 2.024 . S
O57 C44 1.058 . S
C58 O47 1.260 . S
C58 O48 1.258 . S
C59 O55 1.260 . S
C59 O56 1.258 . S
Zn60 O66 1.969 . S
Zn60 O67 1.965 . S
Zn60 O71 2.024 . S
Zn60 O76 1.969 . S
Zn61 O68 1.969 . S
Zn61 O74 1.969 . S
Zn61 O75 1.965 . S
Zn61 O77 2.024 . S
C62 O63 1.229 . S
C62 O71 1.058 . S
O63 C62 1.229 . S
C64 O65 1.229 . S
C64 O77 1.058 . S
O65 C64 1.229 . S
O66 Zn60 1.969 . S
O66 C69 1.267 . S
O67 Zn60 1.965 . S
O67 C78 1.260 . S
O68 Zn61 1.969 . S
O68 C78 1.258 . S
C69 O66 1.267 . S
C69 O70 1.228 . S
O70 C69 1.228 . S
O71 Zn60 2.024 . S
O71 C62 1.058 . S
C72 O73 1.228 . S
C72 O74 1.267 . S
O73 C72 1.228 . S
O74 Zn61 1.969 . S
O74 C72 1.267 . S
O75 Zn61 1.965 . S
O75 C79 1.260 . S
O76 Zn60 1.969 . S
O76 C79 1.258 . S
O77 Zn61 2.024 . S
O77 C64 1.058 . S
C78 O67 1.260 . S
C78 O68 1.258 . S
C79 O75 1.260 . S
C79 O76 1.258 . S
C80 C81 1.170 . S
C80 C82 1.380 1_556 S
C81 C80 1.170 . S
C82 C80 1.380 1_554 S
C82 C83 1.170 . S
C83 C82 1.170 . S
C84 C85 1.170 . S
C84 C86 1.380 . S
C85 C84 1.170 . S
C86 C84 1.380 . S
C86 C87 1.170 . S
C87 C86 1.170 . S
C88 C89 1.170 1_554 S
C88 C90 1.380 1_445 S
C89 C88 1.170 1_556 S
C90 C88 1.380 1_665 S
C90 C91 1.170 . S
C91 C90 1.170 . S
C92 C93 1.170 . S
C92 C94 1.380 1_645 S
C93 C92 1.170 . S
C94 C92 1.380 1_465 S
C94 C95 1.170 . S
C95 C94 1.170 . S
C96 C97 1.170 . S
C96 C98 1.380 . S
C97 C96 1.170 . S
C98 C96 1.380 . S
C98 C99 1.170 . S
C99 C98 1.170 . S
C100 C101 1.170 . S
C100 C102 1.380 . S
C101 C100 1.170 . S
C102 C100 1.380 . S
C102 C103 1.170 . S
C103 C102 1.170 . S
C104 C105 1.170 . S
C104 C106 1.380 . S
C105 C104 1.170 . S
C106 C104 1.380 . S
C106 C107 1.170 . S
C107 C106 1.170 . S
C108 C109 1.170 . S
C108 C110 1.380 . S
C109 C108 1.170 . S
C110 C108 1.380 . S
C110 C111 1.170 . S
C111 C110 1.170 . S
C112 C113 1.170 . S
C112 C114 1.380 1_655 S
C113 C112 1.170 . S
C114 C112 1.380 1_455 S
C114 C115 1.170 . S
C115 C114 1.170 . S
C116 C117 1.170 . S
C116 C118 1.380 1_655 S
C117 C116 1.170 . S
C118 C116 1.380 1_455 S
C118 C119 1.170 . S
C119 C118 1.170 . S
C120 C121 1.170 . S
C120 C122 1.380 1_655 S
C121 C120 1.170 . S
C122 C120 1.380 1_455 S
C122 C123 1.170 . S
C123 C122 1.170 . S
C124 C125 1.170 . S
C124 C126 1.380 1_455 S
C125 C124 1.170 . S
C126 C124 1.380 1_655 S
C126 C127 1.170 . S
C127 C126 1.170 . S
C81 C38 1.494 1_556 S
C83 C19 1.512 1_554 S
C85 C58 1.512 . S
C87 C79 1.477 . S
C89 C18 1.479 1_556 S
C91 C39 1.519 1_554 S
C93 C78 1.503 . S
C95 C59 1.505 . S
C97 C72 1.297 . S
C99 C12 1.306 . S
C101 C24 1.078 . S
C103 C44 1.055 . S
C105 C29 1.261 . S
C107 C49 1.272 . S
C109 C62 1.136 . S
C111 C2 1.069 . S
C113 C32 1.257 . S
C115 C52 1.248 . S
C117 C64 1.132 . S
C119 C4 1.088 . S
C121 C69 1.298 . S
C123 C9 1.277 . S
C125 C42 1.097 . S
C127 C22 1.121 . S
