# Generated by pormake.
# Topology cdl, (4)-cn, num edge types: 1
# Building blocks:
#     Node 0, Type 0, BuildingBlock: NAWXER_clean_sbu_0, # of connection points: 4
#     Node 1, Type 0, BuildingBlock: NAWXER_clean_sbu_0, # of connection points: 4
#     Node 2, Type 0, BuildingBlock: NAWXER_clean_sbu_0, # of connection points: 4
#     Node 3, Type 0, BuildingBlock: NAWXER_clean_sbu_0, # of connection points: 4
#     Edge 4, Type (0, 0), BuildingBlock: CIFDUS_clean_linker_0, # of connection points: 2
#     Edge 5, Type (0, 0), BuildingBlock: CIFDUS_clean_linker_0, # of connection points: 2
#     Edge 6, Type (0, 0), BuildingBlock: CIFDUS_clean_linker_0, # of connection points: 2
#     Edge 7, Type (0, 0), BuildingBlock: CIFDUS_clean_linker_0, # of connection points: 2
#     Edge 8, Type (0, 0), BuildingBlock: CIFDUS_clean_linker_0, # of connection points: 2
#     Edge 9, Type (0, 0), BuildingBlock: CIFDUS_clean_linker_0, # of connection points: 2
#     Edge 10, Type (0, 0), BuildingBlock: CIFDUS_clean_linker_0, # of connection points: 2
#     Edge 11, Type (0, 0), BuildingBlock: CIFDUS_clean_linker_0, # of connection points: 2
# Relax obj value: 0.000
# Max RMSD: 0.005
# Mean RMSD: 0.005
data_MOF--net-cdl--node1-NAWXER_clean_sbu_0--edge1-CIFDUS_clean_linker_0
_symmetry_space_group_name_H-M    P1
_symmetry_Int_Tables_number       1
_symmetry_cell_setting            triclinic
loop_
_symmetry_equiv_pos_as_xyz
'x, y, z'
_cell_length_a     12.866309
_cell_length_b     12.858728
_cell_length_c     51.137873
_cell_angle_alpha  96.171909
_cell_angle_beta   96.462986
_cell_angle_gamma 88.983182
loop_
_atom_site_label
_atom_site_type_symbol
_atom_site_fract_x
_atom_site_fract_y
_atom_site_fract_z
_atom_type_partial_charge
C0 C 0.91453 0.32287 0.13397 0.0
C1 C 0.88281 0.94155 0.12902 0.0
O2 O 1.00167 0.27355 0.1367 0.0
Zn3 Zn 0.06037 0.11876 0.13682 0.0
O4 O 0.82955 0.2716 0.12961 0.0
Zn5 Zn 0.89407 0.13202 0.13032 0.0
O6 O 0.96091 0.13305 0.17131 0.0
O7 O 0.13311 0.12435 0.17176 0.0
O8 O 0.8078 1.00626 0.12555 0.0
O9 O 0.97714 0.97499 0.13313 0.0
O10 O 0.14207 0.10403 0.10746 0.0
O11 O 0.97301 0.11702 0.095 0.0
C12 C 0.05258 0.13051 0.18412 0.0
C13 C 0.06734 0.10726 0.0891 0.0
C14 C 0.31117 0.86482 0.62987 0.0
C15 C 0.93032 0.82971 0.626 0.0
O16 O 0.26039 0.77964 0.62461 0.0
Zn17 Zn 0.12156 0.84237 0.62701 0.0
O18 O 0.26149 0.95127 0.634 0.0
Zn19 Zn 0.10518 1.00801 0.63524 0.0
O20 O 0.10638 0.07317 0.67079 0.0
O21 O 0.13194 0.90191 0.66856 0.0
O22 O 0.96381 0.92369 0.63066 0.0
O23 O 0.99516 0.75522 0.62221 0.0
O24 O 0.10293 0.92866 0.59277 0.0
O25 O 0.08724 0.09576 0.60696 0.0
C26 C 0.12377 0.9908 0.68228 0.0
C27 C 0.09089 0.02433 0.5879 0.0
C28 C 0.24056 0.29162 0.89426 0.0
C29 C 0.27401 0.91009 0.89149 0.0
O30 O 0.32588 0.24001 0.89607 0.0
Zn31 Zn 0.26217 0.10046 0.89212 0.0
O32 O 0.15361 0.24257 0.89055 0.0
Zn33 Zn 0.09597 0.08787 0.88577 0.0
O34 O 1.01317 0.08934 0.91464 0.0
O35 O 0.18261 0.10226 0.92751 0.0
O36 O 0.17954 0.94367 0.88807 0.0
O37 O 0.3492 0.97478 0.89428 0.0
O38 O 0.19607 0.08266 0.85115 0.0
O39 O 0.02433 0.07668 0.85061 0.0
C40 C 0.08808 0.09727 0.93317 0.0
C41 C 0.10452 0.07566 0.83823 0.0
C42 C 0.22702 0.26438 0.39405 0.0
C43 C 0.84574 0.2325 0.38954 0.0
O44 O 0.19323 0.17029 0.38932 0.0
Zn45 Zn 0.04945 0.08717 0.38525 0.0
O46 O 0.16262 0.33911 0.39809 0.0
Zn47 Zn 0.03658 0.25292 0.39294 0.0
O48 O 0.05348 0.16885 0.42762 0.0
O49 O 0.06603 1.00113 0.41378 0.0
O50 O 0.89718 0.31731 0.39436 0.0
O51 O 0.89488 0.14557 0.38612 0.0
O52 O 0.04204 0.01864 0.34998 0.0
O53 O 0.03323 0.19127 0.35154 0.0
C54 C 0.0638 0.0733 0.43271 0.0
C55 C 0.03506 0.10086 0.33817 0.0
H56 H 0.7573 0.46196 0.11945 0.0
H57 H 0.0791 0.44483 0.15386 0.0
H58 H 0.09484 0.63263 0.15575 0.0
H59 H 0.0225 0.80046 0.14652 0.0
H60 H 0.70249 0.82754 0.11225 0.0
H61 H 0.68076 0.63759 0.1116 0.0
C62 C 0.83038 0.49969 0.12751 0.0
C63 C 0.91707 0.43872 0.13623 0.0
C64 C 0.83967 0.60942 0.12848 0.0
C65 C 1.01129 0.489 0.14667 0.0
C66 C 0.02064 0.59681 0.14784 0.0
C67 C 0.94768 0.76536 0.13882 0.0
C68 C 0.86465 0.82807 0.12917 0.0
C69 C 0.93608 0.65741 0.13852 0.0
C70 C 0.76793 0.78092 0.11971 0.0
C71 C 0.75559 0.67234 0.11931 0.0
H72 H 0.44987 0.70659 0.61612 0.0
H73 H 0.43359 0.03151 0.64775 0.0
H74 H 0.62132 0.04621 0.64967 0.0
H75 H 0.78882 0.97162 0.64171 0.0
H76 H 0.81568 0.64867 0.61008 0.0
H77 H 0.62533 0.62842 0.60901 0.0
C78 C 0.48771 0.78026 0.62351 0.0
C79 C 0.42694 0.8679 0.63158 0.0
C80 C 0.59747 0.78889 0.62454 0.0
C81 C 0.47746 0.96281 0.64117 0.0
C82 C 0.58527 0.97158 0.64234 0.0
C83 C 0.75374 0.89638 0.63449 0.0
C84 C 0.81655 0.81204 0.62577 0.0
C85 C 0.64567 0.88572 0.6339 0.0
C86 C 0.7691 0.71506 0.61685 0.0
C87 C 0.66029 0.7036 0.61621 0.0
H88 H 0.40063 0.43012 0.89186 0.0
H89 H 0.0717 0.41432 0.90131 0.0
H90 H 0.05564 0.60209 0.90177 0.0
H91 H 0.13016 0.76954 0.89801 0.0
H92 H 0.45742 0.79541 0.88872 0.0
H93 H 0.47892 0.60539 0.88984 0.0
C94 C 0.32587 0.46813 0.8942 0.0
C95 C 0.23741 0.40751 0.89628 0.0
C96 C 0.31645 0.57785 0.89436 0.0
C97 C 0.14102 0.45818 0.89935 0.0
C98 C 0.13146 0.56598 0.89966 0.0
C99 C 0.20653 0.73415 0.89615 0.0
C100 C 0.29175 0.79652 0.89298 0.0
C101 C 0.21801 0.6262 0.89684 0.0
C102 C 0.39032 0.74903 0.89108 0.0
C103 C 0.40252 0.64042 0.89169 0.0
H104 H 0.36793 0.12521 0.37656 0.0
H105 H 0.3415 0.4441 0.41127 0.0
H106 H 0.53152 0.46562 0.41221 0.0
H107 H 0.70701 0.38923 0.40438 0.0
H108 H 0.72325 0.06843 0.36957 0.0
H109 H 0.53553 0.05294 0.36752 0.0
C110 C 0.40315 0.19976 0.38442 0.0
C111 C 0.34057 0.28253 0.39409 0.0
C112 C 0.51114 0.21121 0.38491 0.0
C113 C 0.38797 0.37886 0.40378 0.0
C114 C 0.49661 0.39107 0.40434 0.0
C115 C 0.66912 0.31639 0.39622 0.0
C116 C 0.72988 0.22995 0.3874 0.0
C117 C 0.55936 0.30723 0.39513 0.0
C118 C 0.67933 0.13607 0.37682 0.0
C119 C 0.57153 0.12686 0.37556 0.0
H120 H 0.23003 0.09346 0.97674 0.0
H121 H 0.89797 0.1054 0.9524 0.0
H122 H 0.86255 0.10833 0.99836 0.0
H123 H 0.92553 0.10848 0.04544 0.0
H124 H 0.25751 0.09516 0.0698 0.0
H125 H 0.29296 0.09145 0.02381 0.0
C126 C 0.14986 0.0969 0.98146 0.0
C127 C 0.06686 0.0995 0.96111 0.0
C128 C 0.12992 0.0981 1.00794 0.0
C129 C 0.96345 0.10335 0.96763 0.0
C130 C 0.94304 0.10503 0.99393 0.0
C131 C 1.00571 0.10459 0.04073 0.0
C132 C 0.08867 0.10226 0.06111 0.0
C133 C 0.02564 0.10249 0.01424 0.0
C134 C 0.19205 0.09703 0.05456 0.0
C135 C 0.21248 0.09504 0.02825 0.0
H136 H 0.05348 0.2074 0.47737 0.0
H137 H 0.09143 0.88046 0.45035 0.0
H138 H 0.10243 0.83688 0.49584 0.0
H139 H 0.10112 0.89104 0.54322 0.0
H140 H 0.06306 0.21776 0.57039 0.0
H141 H 0.05207 0.26163 0.52488 0.0
C142 C 0.06431 0.12658 0.48141 0.0
C143 C 0.07166 0.04742 0.46042 0.0
C144 C 0.07036 0.10187 0.50764 0.0
C145 C 0.0855 0.94309 0.46607 0.0
C146 C 0.09177 0.91798 0.4921 0.0
C147 C 0.09027 0.9719 0.53923 0.0
C148 C 0.08289 0.05089 0.56025 0.0
C149 C 0.08418 0.99669 0.51303 0.0
C150 C 0.06897 0.15526 0.55464 0.0
C151 C 0.06274 0.18051 0.5286 0.0
H152 H 0.14335 0.21138 0.30838 0.0
H153 H 0.9108 0.97087 0.30328 0.0
H154 H 0.89282 0.96094 0.25486 0.0
H155 H 0.9424 0.02259 0.21398 0.0
H156 H 0.189 0.2486 0.21895 0.0
H157 H 0.20321 0.26256 0.26741 0.0
C158 C 0.08891 0.15695 0.29655 0.0
C159 C 0.02761 0.09267 0.30912 0.0
C160 C 0.0818 0.14924 0.2688 0.0
C161 C 0.95857 0.02097 0.29383 0.0
C162 C 0.94817 0.01551 0.26623 0.0
C163 C 0.99914 0.07472 0.22578 0.0
C164 C 0.06388 0.13534 0.21317 0.0
C165 C 1.00913 0.07953 0.25351 0.0
C166 C 0.13851 0.20135 0.22842 0.0
C167 C 0.14638 0.20948 0.25605 0.0
H168 H 1.00184 0.09982 0.71542 0.0
H169 H 0.26892 0.89319 0.71386 0.0
H170 H 0.2891 0.90375 0.7623 0.0
H171 H 0.23024 0.97217 0.80508 0.0
H172 H 0.95197 0.16351 0.80635 0.0
H173 H 0.93584 0.15845 0.75806 0.0
C174 C 0.06448 0.05754 0.7258 0.0
C175 C 0.1346 0.99682 0.71135 0.0
C176 C 0.07314 0.06104 0.75351 0.0
C177 C 0.21433 0.94051 0.72476 0.0
C178 C 0.22587 0.94664 0.75238 0.0
C179 C 0.16619 1.01263 0.7947 0.0
C180 C 0.09282 0.06876 0.8091 0.0
C181 C 0.15573 1.00668 0.76695 0.0
C182 C 1.00915 0.11964 0.79556 0.0
C183 C 1.00015 0.11705 0.76801 0.0
loop_
_geom_bond_atom_site_label_1
_geom_bond_atom_site_label_2
_geom_bond_distance
_geom_bond_site_symmetry_2
_ccdc_geom_bond_type
C0 O2 1.247 . S
C0 O4 1.258 1_455 S
C1 O8 1.247 1_455 S
C1 O9 1.258 . S
O2 C0 1.247 . S
O2 Zn3 2.028 . S
Zn3 O2 2.028 . S
Zn3 O7 2.035 . S
Zn3 O9 2.035 1_545 S
Zn3 O10 2.028 . S
O4 C0 1.258 1_655 S
O4 Zn5 2.035 . S
Zn5 O4 2.035 . S
Zn5 O6 2.028 . S
Zn5 O8 2.028 1_545 S
Zn5 O11 2.035 . S
O6 Zn5 2.028 . S
O6 C12 1.247 1_655 S
O7 Zn3 2.035 . S
O7 C12 1.258 . S
O8 C1 1.247 1_655 S
O8 Zn5 2.028 1_565 S
O9 C1 1.258 . S
O9 Zn3 2.035 1_565 S
O10 Zn3 2.028 . S
O10 C13 1.247 . S
O11 Zn5 2.035 . S
O11 C13 1.258 1_655 S
C12 O6 1.247 1_455 S
C12 O7 1.258 . S
C13 O10 1.247 . S
C13 O11 1.258 1_455 S
C14 O16 1.247 1_545 S
C14 O18 1.258 . S
C15 O22 1.247 . S
C15 O23 1.258 1_545 S
O16 C14 1.247 1_565 S
O16 Zn17 2.028 . S
Zn17 O16 2.028 . S
Zn17 O21 2.035 . S
Zn17 O23 2.035 1_455 S
Zn17 O24 2.028 . S
O18 C14 1.258 . S
O18 Zn19 2.035 . S
Zn19 O18 2.035 . S
Zn19 O20 2.028 . S
Zn19 O22 2.028 1_455 S
Zn19 O25 2.035 . S
O20 Zn19 2.028 . S
O20 C26 1.247 . S
O21 Zn17 2.035 . S
O21 C26 1.258 1_565 S
O22 C15 1.247 . S
O22 Zn19 2.028 1_655 S
O23 C15 1.258 1_565 S
O23 Zn17 2.035 1_655 S
O24 Zn17 2.028 . S
O24 C27 1.247 1_565 S
O25 Zn19 2.035 . S
O25 C27 1.258 . S
C26 O20 1.247 . S
C26 O21 1.258 1_545 S
C27 O24 1.247 1_545 S
C27 O25 1.258 . S
C28 O30 1.247 . S
C28 O32 1.258 1_455 S
C29 O36 1.247 1_455 S
C29 O37 1.258 . S
O30 C28 1.247 . S
O30 Zn31 2.028 . S
Zn31 O30 2.028 . S
Zn31 O35 2.035 . S
Zn31 O37 2.035 1_545 S
Zn31 O38 2.028 . S
O32 C28 1.258 1_655 S
O32 Zn33 2.035 . S
Zn33 O32 2.035 . S
Zn33 O34 2.028 . S
Zn33 O36 2.028 1_545 S
Zn33 O39 2.035 . S
O34 Zn33 2.028 . S
O34 C40 1.247 1_655 S
O35 Zn31 2.035 . S
O35 C40 1.258 . S
O36 C29 1.247 1_655 S
O36 Zn33 2.028 1_565 S
O37 C29 1.258 . S
O37 Zn31 2.035 1_565 S
O38 Zn31 2.028 . S
O38 C41 1.247 . S
O39 Zn33 2.035 . S
O39 C41 1.258 1_655 S
C40 O34 1.247 1_455 S
C40 O35 1.258 . S
C41 O38 1.247 . S
C41 O39 1.258 1_455 S
C42 O44 1.247 1_545 S
C42 O46 1.258 . S
C43 O50 1.247 . S
C43 O51 1.258 1_545 S
O44 C42 1.247 1_565 S
O44 Zn45 2.028 . S
Zn45 O44 2.028 . S
Zn45 O49 2.035 . S
Zn45 O51 2.035 1_455 S
Zn45 O52 2.028 . S
O46 C42 1.258 . S
O46 Zn47 2.035 . S
Zn47 O46 2.035 . S
Zn47 O48 2.028 . S
Zn47 O50 2.028 1_455 S
Zn47 O53 2.035 . S
O48 Zn47 2.028 . S
O48 C54 1.247 . S
O49 Zn45 2.035 . S
O49 C54 1.258 1_565 S
O50 C43 1.247 . S
O50 Zn47 2.028 1_655 S
O51 C43 1.258 1_565 S
O51 Zn45 2.035 1_655 S
O52 Zn45 2.028 . S
O52 C55 1.247 1_565 S
O53 Zn47 2.035 . S
O53 C55 1.258 . S
C54 O48 1.247 . S
C54 O49 1.258 1_545 S
C55 O52 1.247 1_545 S
C55 O53 1.258 . S
H56 C62 0.930 . S
H57 C65 0.930 . S
H58 C66 0.930 . S
H59 C67 0.930 . S
H60 C70 0.930 . S
H61 C71 0.930 1_655 S
C62 H56 0.930 . S
C62 C63 1.355 . S
C62 C64 1.415 . S
C63 C62 1.355 . S
C63 C65 1.419 . S
C64 C62 1.415 . S
C64 C69 1.425 . S
C64 C71 1.409 . S
C65 H57 0.930 . S
C65 C63 1.419 . S
C65 C66 1.362 . S
C66 H58 0.930 . S
C66 C65 1.362 . S
C66 C69 1.409 . S
C67 H59 0.930 . S
C67 C68 1.355 . S
C67 C69 1.415 . S
C68 C67 1.355 . S
C68 C70 1.419 . S
C69 C64 1.425 . S
C69 C66 1.409 . S
C69 C67 1.415 . S
C70 H60 0.930 . S
C70 C68 1.419 . S
C70 C71 1.362 . S
C71 H61 0.930 1_455 S
C71 C64 1.409 . S
C71 C70 1.362 . S
H72 C78 0.930 1_565 S
H73 C81 0.930 . S
H74 C82 0.930 . S
H75 C83 0.930 . S
H76 C86 0.930 . S
H77 C87 0.930 . S
C78 H72 0.930 1_545 S
C78 C79 1.355 . S
C78 C80 1.415 . S
C79 C78 1.355 . S
C79 C81 1.419 . S
C80 C78 1.415 . S
C80 C85 1.425 . S
C80 C87 1.409 1_545 S
C81 H73 0.930 . S
C81 C79 1.419 . S
C81 C82 1.362 . S
C82 H74 0.930 . S
C82 C81 1.362 . S
C82 C85 1.409 . S
C83 H75 0.930 . S
C83 C84 1.355 . S
C83 C85 1.415 . S
C84 C83 1.355 . S
C84 C86 1.419 1_545 S
C85 C80 1.425 . S
C85 C82 1.409 . S
C85 C83 1.415 . S
C86 H76 0.930 . S
C86 C84 1.419 1_565 S
C86 C87 1.362 . S
C87 H77 0.930 . S
C87 C80 1.409 1_565 S
C87 C86 1.362 . S
H88 C94 0.930 . S
H89 C97 0.930 . S
H90 C98 0.930 . S
H91 C99 0.930 1_655 S
H92 C102 0.930 . S
H93 C103 0.930 . S
C94 H88 0.930 . S
C94 C95 1.355 . S
C94 C96 1.415 . S
C95 C94 1.355 . S
C95 C97 1.419 1_455 S
C96 C94 1.415 . S
C96 C101 1.425 . S
C96 C103 1.409 . S
C97 H89 0.930 . S
C97 C95 1.419 1_655 S
C97 C98 1.362 . S
C98 H90 0.930 . S
C98 C97 1.362 . S
C98 C101 1.409 1_655 S
C99 H91 0.930 1_455 S
C99 C100 1.355 . S
C99 C101 1.415 . S
C100 C99 1.355 . S
C100 C102 1.419 . S
C101 C96 1.425 . S
C101 C98 1.409 1_455 S
C101 C99 1.415 . S
C102 H92 0.930 . S
C102 C100 1.419 . S
C102 C103 1.362 . S
C103 H93 0.930 . S
C103 C96 1.409 . S
C103 C102 1.362 . S
H104 C110 0.930 . S
H105 C113 0.930 . S
H106 C114 0.930 . S
H107 C115 0.930 . S
H108 C118 0.930 . S
H109 C119 0.930 . S
C110 H104 0.930 . S
C110 C111 1.355 . S
C110 C112 1.415 . S
C111 C110 1.355 . S
C111 C113 1.419 . S
C112 C110 1.415 . S
C112 C117 1.425 . S
C112 C119 1.409 . S
C113 H105 0.930 . S
C113 C111 1.419 . S
C113 C114 1.362 . S
C114 H106 0.930 . S
C114 C113 1.362 . S
C114 C117 1.409 . S
C115 H107 0.930 . S
C115 C116 1.355 . S
C115 C117 1.415 . S
C116 C115 1.355 . S
C116 C118 1.419 . S
C117 C112 1.425 . S
C117 C114 1.409 . S
C117 C115 1.415 . S
C118 H108 0.930 . S
C118 C116 1.419 . S
C118 C119 1.362 . S
C119 H109 0.930 . S
C119 C112 1.409 . S
C119 C118 1.362 . S
H120 C126 0.930 . S
H121 C129 0.930 . S
H122 C130 0.930 . S
H123 C131 0.930 . S
H124 C134 0.930 . S
H125 C135 0.930 . S
C126 H120 0.930 . S
C126 C127 1.355 1_565 S
C126 C128 1.415 1_565 S
C127 C126 1.355 1_545 S
C127 C129 1.419 . S
C128 C126 1.415 1_545 S
C128 C133 1.425 1_556 S
C128 C135 1.409 1_546 S
C129 H121 0.930 . S
C129 C127 1.419 . S
C129 C130 1.362 . S
C130 H122 0.930 . S
C130 C129 1.362 . S
C130 C133 1.409 1_556 S
C131 H123 0.930 . S
C131 C132 1.355 . S
C131 C133 1.415 . S
C132 C131 1.355 . S
C132 C134 1.419 1_545 S
C133 C128 1.425 1_554 S
C133 C130 1.409 1_554 S
C133 C131 1.415 . S
C134 H124 0.930 . S
C134 C132 1.419 1_565 S
C134 C135 1.362 . S
C135 H125 0.930 . S
C135 C128 1.409 1_564 S
C135 C134 1.362 . S
H136 C142 0.930 . S
H137 C145 0.930 . S
H138 C146 0.930 . S
H139 C147 0.930 1_565 S
H140 C150 0.930 . S
H141 C151 0.930 . S
C142 H136 0.930 . S
C142 C143 1.355 . S
C142 C144 1.415 . S
C143 C142 1.355 . S
C143 C145 1.419 1_545 S
C144 C142 1.415 . S
C144 C149 1.425 . S
C144 C151 1.409 . S
C145 H137 0.930 . S
C145 C143 1.419 1_565 S
C145 C146 1.362 . S
C146 H138 0.930 . S
C146 C145 1.362 . S
C146 C149 1.409 1_565 S
C147 H139 0.930 1_545 S
C147 C148 1.355 . S
C147 C149 1.415 . S
C148 C147 1.355 . S
C148 C150 1.419 . S
C149 C144 1.425 . S
C149 C146 1.409 1_545 S
C149 C147 1.415 . S
C150 H140 0.930 . S
C150 C148 1.419 . S
C150 C151 1.362 . S
C151 H141 0.930 . S
C151 C144 1.409 . S
C151 C150 1.362 . S
H152 C158 0.930 . S
H153 C161 0.930 . S
H154 C162 0.930 1_565 S
H155 C163 0.930 1_655 S
H156 C166 0.930 . S
H157 C167 0.930 . S
C158 H152 0.930 . S
C158 C159 1.355 . S
C158 C160 1.415 . S
C159 C158 1.355 . S
C159 C161 1.419 1_455 S
C160 C158 1.415 . S
C160 C165 1.425 . S
C160 C167 1.409 . S
C161 H153 0.930 . S
C161 C159 1.419 1_655 S
C161 C162 1.362 . S
C162 H154 0.930 1_545 S
C162 C161 1.362 . S
C162 C165 1.409 1_655 S
C163 H155 0.930 1_455 S
C163 C164 1.355 . S
C163 C165 1.415 . S
C164 C163 1.355 . S
C164 C166 1.419 . S
C165 C160 1.425 . S
C165 C162 1.409 1_455 S
C165 C163 1.415 . S
C166 H156 0.930 . S
C166 C164 1.419 . S
C166 C167 1.362 . S
C167 H157 0.930 . S
C167 C160 1.409 . S
C167 C166 1.362 . S
H168 C174 0.930 . S
H169 C177 0.930 . S
H170 C178 0.930 . S
H171 C179 0.936 . S
H172 C182 0.930 . S
H173 C183 0.930 . S
C174 H168 0.930 . S
C174 C175 1.355 . S
C174 C176 1.415 . S
C175 C174 1.355 . S
C175 C177 1.419 1_545 S
C176 C174 1.415 . S
C176 C181 1.425 . S
C176 C183 1.409 . S
C177 H169 0.930 . S
C177 C175 1.419 1_565 S
C177 C178 1.362 . S
C178 H170 0.930 . S
C178 C177 1.362 . S
C178 C181 1.409 1_565 S
C179 H171 0.936 . S
C179 C180 1.351 1_565 S
C179 C181 1.413 1_565 S
C180 C179 1.351 1_545 S
C180 C182 1.419 . S
C181 C176 1.425 . S
C181 C178 1.409 1_545 S
C181 C179 1.413 1_545 S
C182 H172 0.930 . S
C182 C180 1.419 . S
C182 C183 1.362 . S
C183 H173 0.930 . S
C183 C176 1.409 . S
C183 C182 1.362 . S
C63 C0 1.487 . S
C68 C1 1.487 . S
C79 C14 1.488 . S
C84 C15 1.488 . S
C95 C28 1.496 . S
C100 C29 1.496 . S
C111 C42 1.498 . S
C116 C43 1.498 . S
C127 C40 1.488 . S
C132 C13 1.488 . S
C143 C54 1.494 . S
C148 C27 1.494 . S
C159 C55 1.487 . S
C164 C12 1.494 . S
C175 C26 1.491 . S
C180 C41 1.499 . S
