# Generated by pormake.
# Topology pcu, (6)-cn, num edge types: 1
# Building blocks:
#     Node 0, Type 0, BuildingBlock: BETFAJ_clean_sbu_0, # of connection points: 6
#     Edge 1, Type (0, 0), BuildingBlock: FUNLAD_clean_linker_1, # of connection points: 2
#     Edge 2, Type (0, 0), BuildingBlock: FUNLAD_clean_linker_1, # of connection points: 2
#     Edge 3, Type (0, 0), BuildingBlock: FUNLAD_clean_linker_1, # of connection points: 2
# Relax obj value: 0.000
# Max RMSD: 0.000
# Mean RMSD: 0.000
data_MOF--net-pcu--node1-BETFAJ_clean_sbu_0--edge1-FUNLAD_clean_linker_1
_symmetry_space_group_name_H-M    P1
_symmetry_Int_Tables_number       1
_symmetry_cell_setting            triclinic
loop_
_symmetry_equiv_pos_as_xyz
'x, y, z'
_cell_length_a     26.255225
_cell_length_b     15.868137
_cell_length_c     14.466706
_cell_angle_alpha  85.340855
_cell_angle_beta   99.751513
_cell_angle_gamma 124.87767
loop_
_atom_site_label
_atom_site_type_symbol
_atom_site_fract_x
_atom_site_fract_y
_atom_site_fract_z
_atom_type_partial_charge
Sm0 Sm 0.96636 0.94538 0.06441 0.0
Sm1 Sm 0.09955 0.04861 1.01914 0.0
C2 C 0.86386 0.89663 0.1288 0.0
C3 C 0.81734 0.92246 0.10956 0.0
C4 C 0.77992 0.90373 0.17742 0.0
C5 C 0.73364 0.92364 0.15903 0.0
C6 C 0.72376 0.96279 0.07175 0.0
C7 C 0.76243 0.9831 1.00472 0.0
C8 C 0.80882 0.96349 1.02342 0.0
C9 C 0.97297 0.93961 0.87738 0.0
C10 C 0.05226 0.19257 1.02051 0.0
C11 C 0.20227 0.09766 0.95528 0.0
C12 C 0.24876 0.07175 0.97451 0.0
C13 C 0.28632 0.09078 0.90678 0.0
C14 C 0.33259 0.07084 0.92518 0.0
C15 C 0.34231 0.03134 1.01235 0.0
C16 C 0.3035 0.01074 0.07924 0.0
C17 C 0.25712 0.03038 0.06054 0.0
C18 C 0.09255 0.05422 0.20616 0.0
C19 C 1.01359 0.80136 0.06268 0.0
O20 O 0.92069 0.96952 0.16616 0.0
O21 O 0.86333 0.84356 0.06359 0.0
O22 O 1.01038 0.01559 0.93216 0.0
O23 O 0.92754 0.86581 0.91838 0.0
O24 O 1.00934 0.11885 0.06838 0.0
O25 O 0.08686 0.1781 0.97676 0.0
O26 O 0.14551 0.02497 0.91752 0.0
O27 O 0.20264 0.15037 1.02065 0.0
O28 O 0.05554 0.97827 0.15125 0.0
O29 O 0.13794 0.12829 0.16526 0.0
O30 O 0.05654 0.87514 1.01489 0.0
O31 O 0.97901 0.81579 0.10651 0.0
H32 H 0.78604 0.87252 0.24456 0.0
H33 H 0.70575 0.90684 0.21343 0.0
H34 H 0.75643 0.01357 0.93709 0.0
H35 H 0.83754 0.97922 0.97019 0.0
H36 H 0.28034 0.12228 0.83975 0.0
H37 H 0.36062 0.08794 0.8709 0.0
H38 H 0.30938 0.98001 0.14679 0.0
H39 H 0.22829 0.01442 0.11367 0.0
H40 H 0.123 0.12829 0.34545 0.0
C41 C 0.08696 0.05869 0.30489 0.0
H42 H 1.00334 0.91028 0.30601 0.0
H43 H 0.05505 0.87994 0.74905 0.0
H44 H 0.07317 0.7591 0.69699 0.0
H45 H 0.0735 0.74103 0.52934 0.0
H46 H 0.05618 0.84444 0.41282 0.0
C47 C 0.03878 0.98131 0.34506 0.0
C48 C 0.03465 0.98828 0.44534 0.0
C49 C 0.04335 0.92553 0.51229 0.0
C50 C 0.04199 0.93458 0.60879 0.0
C51 C 0.05363 0.87411 0.67457 0.0
C52 C 0.06459 0.8049 0.64572 0.0
C53 C 0.06487 0.79485 0.55136 0.0
C54 C 0.05472 0.85457 0.48518 0.0
H55 H 0.94207 0.86528 0.7381 0.0
C56 C 0.97829 0.93484 0.77856 0.0
H57 H 0.06212 0.08295 0.77714 0.0
H58 H 1.00986 0.11289 0.33414 0.0
H59 H 0.9917 0.23369 0.38619 0.0
H60 H 0.99142 0.25182 0.55385 0.0
H61 H 1.00883 0.14849 0.67038 0.0
C62 C 1.02648 0.01194 0.73819 0.0
C63 C 1.0304 0.00472 0.63787 0.0
C64 C 1.02165 0.06741 0.57091 0.0
C65 C 1.023 0.05835 0.47441 0.0
C66 C 1.01131 0.11876 0.40863 0.0
C67 C 1.00032 0.18793 0.43747 0.0
C68 C 1.00007 0.19802 0.53184 0.0
C69 C 1.01027 0.13835 0.59802 0.0
H70 H 0.3977 0.98574 0.10827 0.0
C71 C 0.39257 0.01224 1.03778 0.0
H72 H 0.43062 0.05489 0.91019 0.0
H73 H 0.69891 0.16554 0.08522 0.0
H74 H 0.72173 0.33401 0.04642 0.0
H75 H 0.63624 0.35695 0.99176 0.0
H76 H 0.52732 0.21146 0.9762 0.0
C77 C 0.43221 0.02617 0.98033 0.0
C78 C 0.48352 0.01073 1.01271 0.0
C79 C 0.54719 0.09626 1.01976 0.0
C80 C 0.59665 0.08279 0.04994 0.0
C81 C 0.65954 0.17049 0.05997 0.0
C82 C 0.67336 0.26799 1.03859 0.0
C83 C 0.62523 0.28092 1.00793 0.0
C84 C 0.56285 0.19655 0.99897 0.0
H85 H 0.66836 0.00841 0.97586 0.0
C86 C 0.67349 0.98187 0.04634 0.0
H87 H 0.63537 0.93901 0.17387 0.0
H88 H 0.36711 0.82849 0.99894 0.0
H89 H 0.34429 0.66001 1.0377 0.0
H90 H 0.42977 0.63705 0.09233 0.0
H91 H 0.5387 0.78254 0.10789 0.0
C92 C 0.63381 0.96784 0.10377 0.0
C93 C 0.5825 0.98328 0.07141 0.0
C94 C 0.51883 0.89775 0.06436 0.0
C95 C 0.46937 0.91122 1.03419 0.0
C96 C 0.40648 0.82353 1.02416 0.0
C97 C 0.39266 0.72602 0.04553 0.0
C98 C 0.44079 0.71309 0.07617 0.0
C99 C 0.50317 0.79746 0.08513 0.0
H100 H 0.98175 0.65009 0.1245 0.0
C101 C 1.0066 0.70267 0.07027 0.0
H102 H 0.05632 0.73075 0.95821 0.0
H103 H 0.15366 0.45787 0.11239 0.0
H104 H 0.2503 0.62848 0.12429 0.0
H105 H 0.24836 0.78155 0.0913 0.0
H106 H 0.14975 0.76503 0.04756 0.0
C107 C 1.03123 0.67804 1.01224 0.0
C108 C 1.03163 0.58497 1.02596 0.0
C109 C 0.09 0.59646 0.04975 0.0
C110 C 0.09126 0.50825 0.0666 0.0
C111 C 0.14997 0.52192 0.09503 0.0
C112 C 0.20588 0.61961 0.10309 0.0
C113 C 0.20478 0.70581 0.08474 0.0
C114 C 0.1477 0.695 0.0592 0.0
H115 H 0.08407 0.34376 0.95853 0.0
C116 C 0.05922 0.29124 1.01278 0.0
H117 H 1.00949 0.26325 0.1248 0.0
H118 H 0.91215 0.53608 0.97054 0.0
H119 H 0.81551 0.36548 0.95867 0.0
H120 H 0.81745 0.21241 0.99163 0.0
H121 H 0.91606 0.22892 1.03534 0.0
C122 C 0.03457 0.31591 0.07075 0.0
C123 C 0.03418 0.40898 0.05695 0.0
C124 C 0.97581 0.39749 1.03315 0.0
C125 C 0.97455 0.4857 1.01631 0.0
C126 C 0.91584 0.47203 0.9879 0.0
C127 C 0.85993 0.37434 0.97984 0.0
C128 C 0.86103 0.28814 0.99818 0.0
C129 C 0.91811 0.29895 1.0237 0.0
loop_
_geom_bond_atom_site_label_1
_geom_bond_atom_site_label_2
_geom_bond_distance
_geom_bond_site_symmetry_2
_ccdc_geom_bond_type
Sm0 C2 2.846 . S
Sm0 O20 2.543 1_556 S
Sm0 O21 2.450 . S
Sm0 O22 2.681 1_665 S
Sm0 O23 2.464 . S
Sm0 O24 2.396 1_565 S
Sm0 O28 2.386 1_566 S
Sm0 O31 2.408 . S
Sm1 C11 2.846 . S
Sm1 O22 2.386 1_554 S
Sm1 O25 2.408 . S
Sm1 O26 2.543 1_554 S
Sm1 O27 2.450 . S
Sm1 O28 2.681 1_455 S
Sm1 O29 2.464 . S
Sm1 O30 2.396 1_545 S
C2 Sm0 2.846 . S
C2 C3 1.506 . S
C2 O20 1.261 1_556 S
C2 O21 1.242 . S
C3 C2 1.506 . S
C3 C4 1.358 1_566 S
C3 C8 1.382 . S
C4 C3 1.358 1_544 S
C4 C5 1.385 . S
C4 H32 0.930 . S
C5 C4 1.385 . S
C5 C6 1.395 1_544 S
C5 H33 0.929 . S
C6 C5 1.395 1_566 S
C6 C7 1.335 . S
C7 C6 1.335 . S
C7 C8 1.398 . S
C7 H34 0.930 . S
C8 C3 1.382 . S
C8 C7 1.398 . S
C8 H35 0.929 . S
C9 O22 1.271 1_665 S
C9 O23 1.251 . S
C10 O24 1.252 1_455 S
C10 O25 1.272 1_556 S
C11 Sm1 2.846 . S
C11 C12 1.506 . S
C11 O26 1.261 1_554 S
C11 O27 1.242 . S
C12 C11 1.506 . S
C12 C13 1.358 1_544 S
C12 C17 1.382 . S
C13 C12 1.358 1_566 S
C13 C14 1.385 . S
C13 H36 0.930 . S
C14 C13 1.385 . S
C14 C15 1.395 1_566 S
C14 H37 0.929 . S
C15 C14 1.395 1_544 S
C15 C16 1.335 . S
C16 C15 1.335 . S
C16 C17 1.398 . S
C16 H38 0.930 . S
C17 C12 1.382 . S
C17 C16 1.398 . S
C17 H39 0.929 . S
C18 O28 1.271 1_455 S
C18 O29 1.251 . S
C19 O30 1.252 1_655 S
C19 O31 1.272 1_554 S
O20 Sm0 2.543 1_554 S
O20 C2 1.261 1_554 S
O21 Sm0 2.450 . S
O21 C2 1.242 . S
O22 Sm0 2.681 1_445 S
O22 Sm1 2.386 1_556 S
O22 C9 1.271 1_445 S
O23 Sm0 2.464 . S
O23 C9 1.251 . S
O24 Sm0 2.396 1_545 S
O24 C10 1.252 1_655 S
O25 Sm1 2.408 . S
O25 C10 1.272 1_554 S
O26 Sm1 2.543 1_556 S
O26 C11 1.261 1_556 S
O27 Sm1 2.450 . S
O27 C11 1.242 . S
O28 Sm0 2.386 1_544 S
O28 Sm1 2.681 1_655 S
O28 C18 1.271 1_655 S
O29 Sm1 2.464 . S
O29 C18 1.251 . S
O30 Sm1 2.396 1_565 S
O30 C19 1.252 1_455 S
O31 Sm0 2.408 . S
O31 C19 1.272 1_556 S
H32 C4 0.930 . S
H33 C5 0.929 . S
H34 C7 0.930 . S
H35 C8 0.929 . S
H36 C13 0.930 . S
H37 C14 0.929 . S
H38 C16 0.930 . S
H39 C17 0.929 . S
H40 C41 0.951 . S
C41 H40 0.951 . S
C41 C47 1.265 1_445 S
H42 C47 0.950 . S
H43 C51 0.949 . S
H44 C52 0.950 . S
H45 C53 0.951 . S
H46 C54 0.951 . S
C47 C41 1.265 1_665 S
C47 H42 0.950 . S
C47 C48 1.478 . S
C48 C47 1.478 . S
C48 C49 1.397 . S
C48 C65 1.394 1_665 S
C49 C48 1.397 . S
C49 C50 1.438 . S
C49 C54 1.429 . S
C50 C49 1.438 . S
C50 C51 1.428 . S
C50 C63 1.394 1_665 S
C51 H43 0.949 . S
C51 C50 1.428 . S
C51 C52 1.345 . S
C52 H44 0.950 . S
C52 C51 1.345 . S
C52 C53 1.424 . S
C53 H45 0.951 . S
C53 C52 1.424 . S
C53 C54 1.347 . S
C54 H46 0.951 . S
C54 C49 1.429 . S
C54 C53 1.347 . S
H55 C56 0.951 . S
C56 H55 0.951 . S
C56 C62 1.265 1_665 S
H57 C62 0.950 . S
H58 C66 0.949 . S
H59 C67 0.950 . S
H60 C68 0.951 . S
H61 C69 0.951 . S
C62 C56 1.265 1_445 S
C62 H57 0.950 . S
C62 C63 1.478 . S
C63 C50 1.394 1_445 S
C63 C62 1.478 . S
C63 C64 1.397 . S
C64 C63 1.397 . S
C64 C65 1.438 . S
C64 C69 1.429 . S
C65 C48 1.394 1_445 S
C65 C64 1.438 . S
C65 C66 1.428 . S
C66 H58 0.949 . S
C66 C65 1.428 . S
C66 C67 1.345 . S
C67 H59 0.950 . S
C67 C66 1.345 . S
C67 C68 1.424 . S
C68 H60 0.951 . S
C68 C67 1.424 . S
C68 C69 1.347 . S
C69 H61 0.951 . S
C69 C64 1.429 . S
C69 C68 1.347 . S
H70 C71 0.951 . S
C71 H70 0.951 . S
C71 C77 1.265 1_564 S
H72 C77 0.950 . S
H73 C81 0.949 1_554 S
H74 C82 0.950 . S
H75 C83 0.951 . S
H76 C84 0.951 . S
C77 C71 1.265 1_546 S
C77 H72 0.950 . S
C77 C78 1.478 . S
C78 C77 1.478 . S
C78 C79 1.397 . S
C78 C95 1.394 1_546 S
C79 C78 1.397 . S
C79 C80 1.438 . S
C79 C84 1.429 . S
C80 C79 1.438 . S
C80 C81 1.428 . S
C80 C93 1.394 1_546 S
C81 H73 0.949 1_556 S
C81 C80 1.428 . S
C81 C82 1.345 . S
C82 H74 0.950 . S
C82 C81 1.345 . S
C82 C83 1.424 . S
C83 H75 0.951 . S
C83 C82 1.424 . S
C83 C84 1.347 . S
C84 H76 0.951 . S
C84 C79 1.429 . S
C84 C83 1.347 . S
H85 C86 0.951 . S
C86 H85 0.951 . S
C86 C92 1.265 1_546 S
H87 C92 0.950 . S
H88 C96 0.949 1_556 S
H89 C97 0.950 . S
H90 C98 0.951 . S
H91 C99 0.951 . S
C92 C86 1.265 1_564 S
C92 H87 0.950 . S
C92 C93 1.478 . S
C93 C80 1.394 1_564 S
C93 C92 1.478 . S
C93 C94 1.397 . S
C94 C93 1.397 . S
C94 C95 1.438 . S
C94 C99 1.429 . S
C95 C78 1.394 1_564 S
C95 C94 1.438 . S
C95 C96 1.428 . S
C96 H88 0.949 1_554 S
C96 C95 1.428 . S
C96 C97 1.345 . S
C97 H89 0.950 . S
C97 C96 1.345 . S
C97 C98 1.424 . S
C98 H90 0.951 . S
C98 C97 1.424 . S
C98 C99 1.347 . S
C99 H91 0.951 . S
C99 C94 1.429 . S
C99 C98 1.347 . S
H100 C101 0.951 . S
C101 H100 0.951 . S
C101 C107 1.265 1_454 S
H102 C107 0.950 . S
H103 C111 0.949 1_455 S
H104 C112 0.950 . S
H105 C113 0.951 . S
H106 C114 0.951 . S
C107 C101 1.265 1_656 S
C107 H102 0.950 . S
C107 C108 1.478 . S
C108 C107 1.478 . S
C108 C109 1.397 . S
C108 C125 1.394 1_656 S
C109 C108 1.397 . S
C109 C110 1.438 . S
C109 C114 1.429 . S
C110 C109 1.438 . S
C110 C111 1.428 . S
C110 C123 1.394 1_656 S
C111 H103 0.949 1_655 S
C111 C110 1.428 . S
C111 C112 1.345 . S
C112 H104 0.950 . S
C112 C111 1.345 . S
C112 C113 1.424 . S
C113 H105 0.951 . S
C113 C112 1.424 . S
C113 C114 1.347 . S
C114 H106 0.951 . S
C114 C109 1.429 . S
C114 C113 1.347 . S
H115 C116 0.951 . S
C116 H115 0.951 . S
C116 C122 1.265 1_656 S
H117 C122 0.950 . S
H118 C126 0.949 1_655 S
H119 C127 0.950 . S
H120 C128 0.951 . S
H121 C129 0.951 . S
C122 C116 1.265 1_454 S
C122 H117 0.950 . S
C122 C123 1.478 . S
C123 C110 1.394 1_454 S
C123 C122 1.478 . S
C123 C124 1.397 . S
C124 C123 1.397 . S
C124 C125 1.438 . S
C124 C129 1.429 . S
C125 C108 1.394 1_454 S
C125 C124 1.438 . S
C125 C126 1.428 . S
C126 H118 0.949 1_455 S
C126 C125 1.428 . S
C126 C127 1.345 . S
C127 H119 0.950 . S
C127 C126 1.345 . S
C127 C128 1.424 . S
C128 H120 0.951 . S
C128 C127 1.424 . S
C128 C129 1.347 . S
C129 H121 0.951 . S
C129 C124 1.429 . S
C129 C128 1.347 . S
C41 C18 1.402 . S
C56 C9 1.402 . S
C71 C15 1.487 1_565 S
C86 C6 1.487 1_545 S
C101 C19 1.482 1_455 S
C116 C10 1.482 1_655 S
