# Generated by pormake.
# Topology cds, (4)-cn, num edge types: 1
# Building blocks:
#     Node 0, Type 0, BuildingBlock: ESEHIV_clean_sbu_0, # of connection points: 4
#     Node 1, Type 0, BuildingBlock: ESEHIV_clean_sbu_0, # of connection points: 4
#     Edge 2, Type (0, 0), BuildingBlock: EZIPEK_clean_linker_0, # of connection points: 2
#     Edge 3, Type (0, 0), BuildingBlock: EZIPEK_clean_linker_0, # of connection points: 2
#     Edge 4, Type (0, 0), BuildingBlock: EZIPEK_clean_linker_0, # of connection points: 2
#     Edge 5, Type (0, 0), BuildingBlock: EZIPEK_clean_linker_0, # of connection points: 2
# Relax obj value: 0.000
# Max RMSD: 0.099
# Mean RMSD: 0.094
data_MOF--net-cds--node1-ESEHIV_clean_sbu_0--edge1-EZIPEK_clean_linker_0
_symmetry_space_group_name_H-M    P1
_symmetry_Int_Tables_number       1
_symmetry_cell_setting            triclinic
loop_
_symmetry_equiv_pos_as_xyz
'x, y, z'
_cell_length_a     10.877751
_cell_length_b     13.001716
_cell_length_c     23.408355
_cell_angle_alpha  103.51104
_cell_angle_beta   103.10808
_cell_angle_gamma 87.53808
loop_
_atom_site_label
_atom_site_type_symbol
_atom_site_fract_x
_atom_site_fract_y
_atom_site_fract_z
_atom_type_partial_charge
Cu0 Cu 0.20071 0.15183 0.09806 0.0
N1 N 0.16428 0.06506 1.0199 0.0
N2 N 0.12011 1.01548 0.9193 0.0
C3 C 0.1539 0.0964 0.968 0.0
C4 C 0.10908 0.93005 0.94121 0.0
C5 C 0.13663 0.96083 1.00334 0.0
O6 O 0.35296 0.23341 0.10826 0.0
C7 C 0.95295 0.18651 0.10288 0.0
O8 O 0.95746 0.0829 0.09259 0.0
H9 H 0.16701 0.17737 0.96585 0.0
H10 H 0.13359 0.91131 0.03425 0.0
N11 N 0.23133 0.07134 0.1567 0.0
N12 N 0.2239 1.01775 0.23983 0.0
C13 C 0.18481 0.08993 0.2068 0.0
C14 C 0.30363 0.98484 0.15869 0.0
C15 C 0.29897 0.95134 0.21004 0.0
C16 C 0.44413 0.18203 0.08974 0.0
O17 O 0.42899 0.08112 0.0635 0.0
H18 H 0.12204 0.15401 0.21853 0.0
H19 H 0.35473 0.94784 0.12479 0.0
O20 O 0.05271 0.23849 0.10756 0.0
H21 H 0.07987 0.85187 0.91409 0.0
H22 H 0.34441 0.88256 0.22377 0.0
Cu23 Cu 0.93342 1.0127 0.54606 0.0
N24 N 0.83682 0.88755 0.5167 0.0
N25 N 0.78268 0.71793 0.50296 0.0
C26 C 0.85387 0.80049 0.53943 0.0
C27 C 0.71827 0.75431 0.45539 0.0
C28 C 0.75071 0.85915 0.46432 0.0
O29 O 0.02223 1.02001 0.62975 0.0
C30 C 1.00222 1.01882 0.43885 0.0
O31 O 0.87993 1.03021 0.42164 0.0
H32 H 0.9212 0.79609 0.58063 0.0
H33 H 0.71638 0.90985 0.43369 0.0
N34 N 0.83219 0.13312 0.546 0.0
N35 N 0.7771 0.29942 0.54171 0.0
C36 C 0.85274 0.21796 0.52538 0.0
C37 C 0.73901 0.16169 0.57566 0.0
C38 C 0.70567 0.26445 0.57357 0.0
C39 C 0.95956 1.0035 0.66676 0.0
O40 O 0.83901 0.97934 0.64734 0.0
H41 H 0.92632 0.22232 0.50171 0.0
H42 H 0.70118 0.11305 0.59933 0.0
O43 O 0.04907 1.01073 0.49273 0.0
H44 H 0.65381 0.7078 0.41663 0.0
H45 H 0.63654 0.31093 0.59498 0.0
C46 C 0.09052 0.93202 0.28812 0.0
C47 C 0.18279 1.00884 0.29285 0.0
C48 C 0.17123 0.08574 0.39779 0.0
C49 C 0.07999 1.00749 0.39319 0.0
N50 N 0.97788 0.84061 0.34017 0.0
N51 N 0.32987 0.14483 0.35369 0.0
C52 C 0.04782 0.92554 0.3402 0.0
C53 C 0.22939 0.08118 0.34844 0.0
N54 N 0.0389 0.86903 0.23306 0.0
N55 N 0.19717 0.16727 0.44776 0.0
H56 H 0.37281 0.14272 0.31783 0.0
H57 H 0.37673 0.19291 0.39428 0.0
H58 H 0.1578 0.17232 0.48497 0.0
H59 H 0.25195 0.23302 0.45108 0.0
H60 H 0.9612 0.81949 0.22527 0.0
H61 H 0.06735 0.87261 0.19392 0.0
H62 H 0.96088 0.77364 0.30483 0.0
H63 H 0.94751 0.83253 0.37813 0.0
C64 C 0.98167 0.07744 0.83478 0.0
C65 C 0.08882 1.02051 0.85668 0.0
C66 C 0.11967 0.95601 0.75357 0.0
C67 C 1.01629 1.01814 0.7323 0.0
N68 N 0.87251 0.16028 0.75534 0.0
N69 N 0.27512 0.92352 0.83995 0.0
C70 C 0.95483 0.086 0.77387 0.0
C71 C 0.16278 0.96541 0.81687 0.0
N72 N 0.90122 0.11805 0.87126 0.0
N73 N 0.17219 0.88407 0.71354 0.0
H74 H 0.3086 0.9303 0.88614 0.0
H75 H 0.33959 0.89082 0.81412 0.0
H76 H 0.14307 0.87436 0.66699 0.0
H77 H 0.23821 0.82857 0.72629 0.0
H78 H 0.81473 0.15139 0.856 0.0
H79 H 0.91487 0.10828 0.91518 0.0
H80 H 0.83367 0.21815 0.7849 0.0
H81 H 0.85399 0.17131 0.71145 0.0
C82 C 0.78671 0.25109 0.15932 0.0
C83 C 0.82956 0.23769 0.10544 0.0
C84 C 0.61191 0.24253 0.04831 0.0
C85 C 0.56968 0.23073 0.09942 0.0
N86 N 0.61211 0.23363 0.20535 0.0
N87 N 0.78975 0.24041 1.00084 0.0
C88 C 0.65546 0.24099 0.15602 0.0
C89 C 0.74389 0.24206 0.05072 0.0
N90 N 0.87262 0.27211 0.21312 0.0
N91 N 0.5249 0.2516 0.99755 0.0
H92 H 0.88636 0.24573 1.00321 0.0
H93 H 0.73392 0.23338 0.95769 0.0
H94 H 0.42805 0.2529 0.99579 0.0
H95 H 0.54747 0.26514 0.95906 0.0
H96 H 0.84863 0.28887 0.2549 0.0
H97 H 0.96815 0.28341 0.21538 0.0
H98 H 0.67061 0.22804 0.24636 0.0
H99 H 0.51617 0.22938 0.20454 0.0
C100 C 0.66471 0.56041 0.50602 0.0
C101 C 0.78097 0.61145 0.51158 0.0
C102 C 0.89386 0.46176 0.54516 0.0
C103 C 0.77855 0.40462 0.53126 0.0
N104 N 0.55677 0.39211 0.48361 0.0
N105 N 1.00591 0.59517 0.51996 0.0
C106 C 0.6644 0.45175 0.50728 0.0
C107 C 0.89577 0.5576 0.52633 0.0
N108 N 0.55534 0.61643 0.50239 0.0
N109 N 1.00025 0.42782 0.57888 0.0
H110 H 1.00944 0.66061 0.50175 0.0
H111 H 0.09033 0.55372 0.52578 0.0
H112 H 1.00029 0.36291 0.59791 0.0
H113 H 0.08404 0.47182 0.59399 0.0
H114 H 0.4698 0.58432 0.50328 0.0
H115 H 0.55303 0.69777 0.50559 0.0
H116 H 0.47355 0.42112 0.46108 0.0
H117 H 0.55495 0.31082 0.4804 0.0
loop_
_geom_bond_atom_site_label_1
_geom_bond_atom_site_label_2
_geom_bond_distance
_geom_bond_site_symmetry_2
_ccdc_geom_bond_type
Cu0 N1 1.999 1_454 S
Cu0 O6 1.974 . S
Cu0 N11 1.985 . S
Cu0 O20 1.959 1_455 S
N1 Cu0 1.999 1_656 S
N1 C3 1.263 1_655 S
N1 C5 1.389 . S
N2 C3 1.358 1_655 S
N2 C4 1.400 . S
C3 N1 1.263 1_455 S
C3 N2 1.358 1_455 S
C3 H9 0.930 1_545 S
C4 N2 1.400 . S
C4 C5 1.351 . S
C4 H21 0.930 . S
C5 N1 1.389 . S
C5 C4 1.351 . S
C5 H10 0.930 . S
O6 Cu0 1.974 . S
O6 C16 1.282 1_545 S
C7 O8 1.261 . S
C7 O20 1.251 1_565 S
O8 C7 1.261 . S
H9 C3 0.930 1_565 S
H10 C5 0.930 . S
N11 Cu0 1.985 . S
N11 C13 1.335 1_455 S
N11 C14 1.390 1_545 S
N12 C13 1.345 1_455 S
N12 C15 1.336 1_545 S
C13 N11 1.335 1_655 S
C13 N12 1.345 1_655 S
C13 H18 0.930 . S
C14 N11 1.390 1_565 S
C14 C15 1.346 . S
C14 H19 0.930 . S
C15 N12 1.336 1_565 S
C15 C14 1.346 . S
C15 H22 0.929 . S
C16 O6 1.282 1_565 S
C16 O17 1.216 . S
O17 C16 1.216 . S
H18 C13 0.930 . S
H19 C14 0.930 . S
O20 Cu0 1.959 1_655 S
O20 C7 1.251 1_545 S
H21 C4 0.930 . S
H22 C15 0.929 . S
Cu23 N24 1.999 1_545 S
Cu23 O29 1.974 . S
Cu23 N34 1.985 . S
Cu23 O43 1.959 . S
N24 Cu23 1.999 1_565 S
N24 C26 1.263 . S
N24 C28 1.389 . S
N25 C26 1.358 . S
N25 C27 1.400 . S
C26 N24 1.263 . S
C26 N25 1.358 . S
C26 H32 0.930 1_455 S
C27 N25 1.400 . S
C27 C28 1.351 . S
C27 H44 0.930 . S
C28 N24 1.389 . S
C28 C27 1.351 . S
C28 H33 0.930 . S
O29 Cu23 1.974 . S
O29 C39 1.282 1_455 S
C30 O31 1.261 1_545 S
C30 O43 1.251 1_655 S
O31 C30 1.261 1_565 S
H32 C26 0.930 1_655 S
H33 C28 0.930 . S
N34 Cu23 1.985 . S
N34 C36 1.335 . S
N34 C37 1.390 1_455 S
N35 C36 1.345 . S
N35 C38 1.336 1_455 S
C36 N34 1.335 . S
C36 N35 1.345 . S
C36 H41 0.930 . S
C37 N34 1.390 1_655 S
C37 C38 1.346 . S
C37 H42 0.930 . S
C38 N35 1.336 1_655 S
C38 C37 1.346 . S
C38 H45 0.929 . S
C39 O29 1.282 1_655 S
C39 O40 1.216 . S
O40 C39 1.216 . S
H41 C36 0.930 . S
H42 C37 0.930 . S
O43 Cu23 1.959 . S
O43 C30 1.251 1_455 S
H44 C27 0.930 . S
H45 C38 0.929 . S
C46 C47 1.363 1_665 S
C46 C52 1.379 . S
C46 N54 1.356 . S
C47 C46 1.363 1_445 S
C47 C53 1.363 . S
C48 C49 1.363 1_455 S
C48 C53 1.379 . S
C48 N55 1.356 . S
C49 C48 1.363 1_655 S
C49 C52 1.363 1_545 S
N50 C52 1.356 . S
N50 H62 0.984 . S
N50 H63 0.985 . S
N51 C53 1.356 . S
N51 H56 0.984 . S
N51 H57 0.985 . S
C52 C46 1.379 . S
C52 C49 1.363 1_565 S
C52 N50 1.356 . S
C53 C47 1.363 . S
C53 C48 1.379 . S
C53 N51 1.356 . S
N54 C46 1.356 . S
N54 H60 0.984 . S
N54 H61 0.984 . S
N55 C48 1.356 . S
N55 H58 0.984 . S
N55 H59 0.985 . S
H56 N51 0.984 . S
H57 N51 0.985 . S
H58 N55 0.984 . S
H59 N55 0.985 . S
H60 N54 0.984 . S
H61 N54 0.984 . S
H62 N50 0.984 . S
H63 N50 0.985 . S
C64 C65 1.363 1_655 S
C64 C70 1.379 . S
C64 N72 1.356 . S
C65 C64 1.363 1_455 S
C65 C71 1.363 1_545 S
C66 C67 1.363 1_465 S
C66 C71 1.379 . S
C66 N73 1.356 . S
C67 C66 1.363 1_645 S
C67 C70 1.363 . S
N68 C70 1.356 . S
N68 H80 0.984 . S
N68 H81 0.985 . S
N69 C71 1.356 . S
N69 H74 0.984 . S
N69 H75 0.985 . S
C70 C64 1.379 . S
C70 C67 1.363 . S
C70 N68 1.356 . S
C71 C65 1.363 1_565 S
C71 C66 1.379 . S
C71 N69 1.356 . S
N72 C64 1.356 . S
N72 H78 0.984 . S
N72 H79 0.984 . S
N73 C66 1.356 . S
N73 H76 0.984 . S
N73 H77 0.985 . S
H74 N69 0.984 . S
H75 N69 0.985 . S
H76 N73 0.984 . S
H77 N73 0.985 . S
H78 N72 0.984 . S
H79 N72 0.984 . S
H80 N68 0.984 . S
H81 N68 0.985 . S
C82 C83 1.363 1_545 S
C82 C88 1.379 . S
C82 N90 1.356 . S
C83 C82 1.363 1_565 S
C83 C89 1.363 1_554 S
C84 C85 1.363 1_556 S
C84 C89 1.379 . S
C84 N91 1.356 . S
C85 C84 1.363 1_554 S
C85 C88 1.363 1_565 S
N86 C88 1.356 . S
N86 H98 0.984 . S
N86 H99 0.985 . S
N87 C89 1.356 . S
N87 H92 0.984 . S
N87 H93 0.985 . S
C88 C82 1.379 . S
C88 C85 1.363 1_545 S
C88 N86 1.356 . S
C89 C83 1.363 1_556 S
C89 C84 1.379 . S
C89 N87 1.356 . S
N90 C82 1.356 . S
N90 H96 0.984 . S
N90 H97 0.984 . S
N91 C84 1.356 . S
N91 H94 0.984 . S
N91 H95 0.985 . S
H92 N87 0.984 . S
H93 N87 0.985 . S
H94 N91 0.984 . S
H95 N91 0.985 . S
H96 N90 0.984 . S
H97 N90 0.984 . S
H98 N86 0.984 . S
H99 N86 0.985 . S
C100 C101 1.363 1_655 S
C100 C106 1.379 . S
C100 N108 1.356 . S
C101 C100 1.363 1_455 S
C101 C107 1.363 . S
C102 C103 1.363 . S
C102 C107 1.379 . S
C102 N109 1.356 . S
C103 C102 1.363 . S
C103 C106 1.363 1_455 S
N104 C106 1.356 . S
N104 H116 0.984 . S
N104 H117 0.985 . S
N105 C107 1.356 . S
N105 H110 0.984 . S
N105 H111 0.985 . S
C106 C100 1.379 . S
C106 C103 1.363 1_655 S
C106 N104 1.356 . S
C107 C101 1.363 . S
C107 C102 1.379 . S
C107 N105 1.356 . S
N108 C100 1.356 . S
N108 H114 0.984 . S
N108 H115 0.984 . S
N109 C102 1.356 . S
N109 H112 0.984 . S
N109 H113 0.985 . S
H110 N105 0.984 . S
H111 N105 0.985 . S
H112 N109 0.984 . S
H113 N109 0.985 . S
H114 N108 0.984 . S
H115 N108 0.984 . S
H116 N104 0.984 . S
H117 N104 0.985 . S
C47 N12 1.488 . S
C49 C30 1.512 . S
C65 N2 1.471 1_455 S
C67 C39 1.509 . S
C83 C7 1.497 . S
C85 C16 1.490 . S
C101 N25 1.463 . S
C103 N35 1.465 . S
