# Generated by pormake.
# Topology sma, (6)-cn, num edge types: 1
# Building blocks:
#     Node 0, Type 0, BuildingBlock: BETDEL_clean_sbu_0, # of connection points: 6
#     Node 1, Type 0, BuildingBlock: BETDEL_clean_sbu_0, # of connection points: 6
#     Node 2, Type 0, BuildingBlock: BETDEL_clean_sbu_0, # of connection points: 6
#     Edge 3, Type (0, 0), BuildingBlock: CIFDUS_clean_linker_0, # of connection points: 2
#     Edge 4, Type (0, 0), BuildingBlock: CIFDUS_clean_linker_0, # of connection points: 2
#     Edge 5, Type (0, 0), BuildingBlock: CIFDUS_clean_linker_0, # of connection points: 2
#     Edge 6, Type (0, 0), BuildingBlock: CIFDUS_clean_linker_0, # of connection points: 2
#     Edge 7, Type (0, 0), BuildingBlock: CIFDUS_clean_linker_0, # of connection points: 2
#     Edge 8, Type (0, 0), BuildingBlock: CIFDUS_clean_linker_0, # of connection points: 2
#     Edge 9, Type (0, 0), BuildingBlock: CIFDUS_clean_linker_0, # of connection points: 2
#     Edge 10, Type (0, 0), BuildingBlock: CIFDUS_clean_linker_0, # of connection points: 2
#     Edge 11, Type (0, 0), BuildingBlock: CIFDUS_clean_linker_0, # of connection points: 2
# Relax obj value: 0.123
# Max RMSD: 0.201
# Mean RMSD: 0.201
data_MOF--net-sma--node1-BETDEL_clean_sbu_0--edge1-CIFDUS_clean_linker_0
_symmetry_space_group_name_H-M    P1
_symmetry_Int_Tables_number       1
_symmetry_cell_setting            triclinic
loop_
_symmetry_equiv_pos_as_xyz
'x, y, z'
_cell_length_a     27.954676
_cell_length_b     28.122251
_cell_length_c     12.402526
_cell_angle_alpha  90.17261
_cell_angle_beta   89.223646
_cell_angle_gamma 120.56302
loop_
_atom_site_label
_atom_site_type_symbol
_atom_site_fract_x
_atom_site_fract_y
_atom_site_fract_z
_atom_type_partial_charge
Dy0 Dy 0.09323 0.52641 0.10519 0.0
C1 C 0.91706 0.57877 0.14182 0.0
C2 C 0.1708 0.50658 0.01362 0.0
Dy3 Dy 1.00731 0.56507 0.12833 0.0
O4 O 0.16907 0.51767 0.11493 0.0
O5 O 0.12997 0.50561 -0.03655 0.0
O6 O 0.08006 0.49495 0.27382 0.0
O7 O 0.06593 0.56 0.23396 0.0
C8 C 0.0593 0.52514 0.305 0.0
C9 C 1.04396 0.56434 0.92946 0.0
O10 O 0.08351 0.64084 0.18651 0.0
O11 O 0.14582 0.62022 0.10285 0.0
O12 O 0.92014 0.5383 0.18468 0.0
O13 O 0.96492 0.61374 0.09929 0.0
O14 O 1.02749 0.59757 -0.04044 0.0
O15 O 1.03306 0.52884 0.00132 0.0
O16 O 1.01527 0.44332 0.11756 0.0
O17 O 0.95704 0.4756 0.17448 0.0
C18 C 0.13463 0.65589 0.15181 0.0
C19 C 0.96774 0.43511 0.16022 0.0
Dy20 Dy 0.51243 0.99798 0.43565 0.0
C21 C 0.7342 0.1744 0.48472 0.0
C22 C 0.42145 0.91555 0.33415 0.0
Dy23 Dy 0.63068 0.08148 0.47192 0.0
O24 O 0.42007 0.93829 0.42459 0.0
O25 O 0.47239 0.9378 0.29954 0.0
O26 O 0.48306 1.00915 0.59663 0.0
O27 O 0.56415 1.02214 0.57975 0.0
C28 C 0.53075 1.02695 0.64251 0.0
C29 C 0.60416 0.0496 0.26578 0.0
O30 O 0.63301 1.01034 0.54444 0.0
O31 O 0.55301 0.94584 0.4584 0.0
O32 O 0.72361 0.12712 0.44675 0.0
O33 O 0.68853 0.16942 0.52368 0.0
O34 O 0.64851 0.05706 0.31141 0.0
O35 O 0.5762 0.06033 0.33117 0.0
O36 O 0.50706 0.0747 0.42108 0.0
O37 O 0.58886 0.12894 0.51233 0.0
C38 C 0.59893 0.95896 0.51264 0.0
C39 C 0.54083 0.11985 0.47575 0.0
Dy40 Dy 0.56801 0.58464 0.77988 0.0
C41 C 0.51567 0.35854 0.75402 0.0
C42 C 0.58829 0.68247 0.69375 0.0
Dy43 Dy 0.52815 0.45986 0.78802 0.0
O44 O 0.5922 0.64442 0.64217 0.0
O45 O 0.57417 0.66769 0.79383 0.0
O46 O 0.6006 0.60082 0.94687 0.0
O47 O 0.53524 0.52152 0.90392 0.0
C48 C 0.57003 0.5491 -0.02431 0.0
C49 C 0.51935 0.50111 0.60141 0.0
O50 O 0.45004 0.45441 0.84868 0.0
O51 O 0.47356 0.54241 0.78759 0.0
O52 O 0.53671 0.39934 0.6865 0.0
O53 O 0.50222 0.37303 0.84468 0.0
O54 O 0.48276 0.45263 0.6367 0.0
O55 O 0.55983 0.52377 0.66439 0.0
O56 O 0.65085 0.58969 0.78392 0.0
O57 O 0.61668 0.49889 0.83992 0.0
C58 C 0.4369 0.49279 0.82819 0.0
C59 C 0.65821 0.55029 0.82499 0.0
H60 H 0.23137 0.46506 0.09659 0.0
H61 H 0.21099 0.53943 0.8109 0.0
H62 H 0.29104 0.54072 0.72536 0.0
H63 H 0.37021 0.52511 0.7362 0.0
H64 H 0.38492 0.44253 0.01507 0.0
H65 H 0.30357 0.43924 0.09842 0.0
C66 C 0.24438 0.4811 0.01535 0.0
C67 C 0.21605 0.50268 -0.03968 0.0
C68 C 0.28933 0.48009 -0.03452 0.0
C69 C 0.23244 0.52265 0.85459 0.0
C70 C 0.27823 0.52353 0.80581 0.0
C71 C 0.35496 0.50574 0.81448 0.0
C72 C 0.38337 0.4842 0.8696 0.0
C73 C 0.30743 0.50296 0.86099 0.0
C74 C 0.36328 0.4589 -0.02927 0.0
C75 C 0.31706 0.45739 0.01882 0.0
H76 H 0.81513 0.19152 0.33885 0.0
H77 H 0.76003 0.27695 0.54994 0.0
H78 H 0.82726 0.36499 0.46617 0.0
H79 H 0.89624 0.41645 0.32519 0.0
H80 H 0.9528 0.33271 0.11287 0.0
H81 H 0.88964 0.2448 0.2039 0.0
C82 C 0.81875 0.22958 0.3681 0.0
C83 C 0.78274 0.22779 0.45083 0.0
C84 C 0.85662 0.27998 0.31751 0.0
C85 C 0.78747 0.27731 0.48699 0.0
C86 C 0.8255 0.32757 0.43832 0.0
C87 C 0.89453 0.37896 0.29779 0.0
C88 C 0.92834 0.38096 0.21049 0.0
C89 C 0.85912 0.32913 0.35171 0.0
C90 C 0.92667 0.33217 0.1787 0.0
C91 C 0.89079 0.28201 0.23117 0.0
H92 H 0.57519 0.86273 0.41604 0.0
H93 H 0.63723 0.9551 0.7101 0.0
H94 H 0.63931 0.87764 0.79349 0.0
H95 H 0.61921 0.78151 0.78559 0.0
H96 H 0.56623 0.69263 0.48606 0.0
H97 H 0.56498 0.77045 0.40184 0.0
C98 C 0.58966 0.86589 0.49793 0.0
C99 C 0.60573 0.91423 0.55706 0.0
C100 C 0.59208 0.82167 0.54454 0.0
C101 C 0.62491 0.9183 0.66279 0.0
C102 C 0.62584 0.87393 0.71078 0.0
C103 C 0.6078 0.77956 0.70175 0.0
C104 C 0.59224 0.73146 0.64227 0.0
C105 C 0.60886 0.82513 0.65291 0.0
C106 C 0.57826 0.72937 0.53332 0.0
C107 C 0.57742 0.77377 0.48521 0.0
H108 H 0.67466 0.49984 -0.00689 0.0
H109 H 0.76242 0.63651 0.77191 0.0
H110 H 0.85034 0.66166 0.85976 0.0
H111 H 0.9024 0.64136 -0.00612 0.0
H112 H 0.81306 0.50443 0.21398 0.0
H113 H 0.72516 0.48367 0.13381 0.0
C114 C 0.71305 0.53487 -0.03687 0.0
C115 C 0.7122 0.56549 0.87418 0.0
C116 C 0.76293 0.54953 0.01515 0.0
C117 C 0.7621 0.61182 0.83907 0.0
C118 C 0.81226 0.62632 0.88968 0.0
C119 C 0.86356 0.60776 0.02586 0.0
C120 C 0.86419 0.57447 0.11 0.0
C121 C 0.8132 0.59522 -0.02259 0.0
C122 C 0.81363 0.53078 0.14982 0.0
C123 C 0.76343 0.51857 0.10323 0.0
H124 H 0.31228 0.87423 0.38286 0.0
H125 H 0.42232 0.85372 0.16614 0.0
H126 H 0.34296 0.77344 0.08514 0.0
H127 H 0.24271 0.70589 0.08315 0.0
H128 H 0.13248 0.72787 0.29743 0.0
H129 H 0.21121 0.81097 0.37068 0.0
C130 C 0.31874 0.8523 0.31747 0.0
C131 C 0.37298 0.8694 0.28121 0.0
C132 C 0.27286 0.80645 0.27067 0.0
C133 C 0.38088 0.8411 0.19575 0.0
C134 C 0.33554 0.79518 0.14944 0.0
C135 C 0.23579 0.72916 0.14505 0.0
C136 C 0.18166 0.71026 0.18506 0.0
C137 C 0.28138 0.77702 0.18724 0.0
C138 C 0.17356 0.7413 0.26477 0.0
C139 C 0.21867 0.78878 0.30734 0.0
H140 H 0.49335 0.31218 0.55856 0.0
H141 H 0.52422 0.28519 0.88586 0.0
H142 H 0.5306 0.20493 0.82754 0.0
H143 H 0.53782 0.14985 0.67957 0.0
H144 H 0.50345 0.17482 0.35359 0.0
H145 H 0.48738 0.2488 0.41502 0.0
C146 C 0.50051 0.28805 0.61737 0.0
C147 C 0.50895 0.30456 0.72608 0.0
C148 C 0.50391 0.24229 0.58311 0.0
C149 C 0.51752 0.27295 0.80198 0.0
C150 C 0.52156 0.22748 0.76839 0.0
C151 C 0.52597 0.17109 0.62246 0.0
C152 C 0.52242 0.15786 0.51216 0.0
C153 C 0.51644 0.21289 0.65871 0.0
C154 C 0.50639 0.18466 0.43865 0.0
C155 C 0.49752 0.22696 0.47381 0.0
H156 H 0.97553 0.54312 0.7651 0.0
H157 H 0.13975 0.5784 0.84432 0.0
H158 H 0.15708 0.56341 0.65697 0.0
H159 H 0.12535 0.54186 0.47059 0.0
H160 H 0.967 0.52114 0.38532 0.0
H161 H 0.94686 0.52942 0.57542 0.0
C162 C 1.01485 0.54715 0.74058 0.0
C163 C 0.05522 0.55808 0.81756 0.0
C164 C 1.02531 0.54155 0.63236 0.0
C165 C 0.10687 0.56553 0.78653 0.0
C166 C 0.1171 0.55826 0.67947 0.0
C167 C 0.08643 0.53893 0.49448 0.0
C168 C 1.04712 0.53015 0.41677 0.0
C169 C 0.07642 0.54586 0.60207 0.0
C170 C 0.99731 0.52758 0.44579 0.0
C171 C 0.98596 0.53233 0.55371 0.0
H172 H 0.52319 0.05104 0.14783 0.0
H173 H 0.66741 1.03331 0.12096 0.0
H174 H 0.65883 1.02687 0.92545 0.0
H175 H 0.61119 1.02717 0.7618 0.0
H176 H 0.46573 0.04264 0.78595 0.0
H177 H 0.47437 0.05001 -0.01766 0.0
C178 C 0.5525 0.04558 0.09892 0.0
C179 C 0.59593 0.04284 0.14842 0.0
C180 C 0.54744 0.04203 -0.0139 0.0
C181 C 0.63367 0.03567 0.08451 0.0
C182 C 0.62893 1.03213 -0.0273 0.0
C183 C 0.58152 1.0323 0.81008 0.0
C184 C 0.53788 1.03424 0.75997 0.0
C185 C 0.58623 0.03558 0.9226 0.0
C186 C 0.49959 0.04083 0.82324 0.0
C187 C 0.50445 0.04496 0.93538 0.0
H188 H 0.52833 0.44436 0.43735 0.0
H189 H 0.5178 0.58821 0.51358 0.0
H190 H 0.5373 0.61842 0.325 0.0
H191 H 0.5586 0.6039 0.14 0.0
H192 H 0.55905 0.45509 0.05854 0.0
H193 H 0.54188 0.42585 0.24847 0.0
C194 C 0.53002 0.48207 0.41176 0.0
C195 C 0.52422 0.51567 0.48799 0.0
C196 C 0.53953 0.49794 0.30336 0.0
C197 C 0.52532 0.56381 0.45584 0.0
C198 C 0.53564 0.58049 0.34833 0.0
C199 C 0.5553 0.56531 0.16456 0.0
C200 C 0.56098 0.53189 0.08792 0.0
C201 C 0.54367 0.54828 0.27196 0.0
C202 C 0.55523 0.48129 0.11808 0.0
C203 C 0.54532 0.46468 0.22588 0.0
loop_
_geom_bond_atom_site_label_1
_geom_bond_atom_site_label_2
_geom_bond_distance
_geom_bond_site_symmetry_2
_ccdc_geom_bond_type
Dy0 O4 2.398 . S
Dy0 O5 2.491 . S
Dy0 O6 2.403 . S
Dy0 O7 2.664 1_455 S
Dy0 O11 2.326 . S
Dy0 O15 2.310 . S
Dy0 O16 2.351 1_455 S
C1 O12 1.185 . S
C1 O13 1.355 . S
C2 O4 1.185 . S
C2 O5 1.355 . S
Dy3 O7 2.310 . S
Dy3 O10 2.351 1_655 S
Dy3 O12 2.398 . S
Dy3 O13 2.491 . S
Dy3 O14 2.403 1_554 S
Dy3 O15 2.664 1_655 S
Dy3 O17 2.326 . S
O4 Dy0 2.398 . S
O4 C2 1.185 . S
O5 Dy0 2.491 . S
O5 C2 1.355 . S
O6 Dy0 2.403 . S
O6 C8 1.254 . S
O7 Dy0 2.664 1_655 S
O7 Dy3 2.310 . S
O7 C8 1.268 1_655 S
C8 O6 1.254 . S
C8 O7 1.268 1_455 S
C9 O14 1.256 . S
C9 O15 1.267 1_656 S
O10 Dy3 2.351 1_455 S
O10 C18 1.249 . S
O11 Dy0 2.326 . S
O11 C18 1.267 . S
O12 C1 1.185 . S
O12 Dy3 2.398 . S
O13 C1 1.355 . S
O13 Dy3 2.491 . S
O14 Dy3 2.403 1_556 S
O14 C9 1.256 . S
O15 Dy0 2.310 . S
O15 Dy3 2.664 1_455 S
O15 C9 1.267 1_454 S
O16 Dy0 2.351 1_655 S
O16 C19 1.249 . S
O17 Dy3 2.326 . S
O17 C19 1.267 . S
C18 O10 1.249 . S
C18 O11 1.267 . S
C19 O16 1.249 . S
C19 O17 1.267 . S
Dy20 O24 2.398 . S
Dy20 O25 2.491 . S
Dy20 O26 2.403 . S
Dy20 O27 2.664 1_565 S
Dy20 O31 2.326 . S
Dy20 O35 2.310 . S
Dy20 O36 2.351 1_565 S
C21 O32 1.185 . S
C21 O33 1.355 . S
C22 O24 1.185 . S
C22 O25 1.355 . S
Dy23 O27 2.310 . S
Dy23 O30 2.351 1_545 S
Dy23 O32 2.398 . S
Dy23 O33 2.491 . S
Dy23 O34 2.403 . S
Dy23 O35 2.664 1_545 S
Dy23 O37 2.326 . S
O24 Dy20 2.398 . S
O24 C22 1.185 . S
O25 Dy20 2.491 . S
O25 C22 1.355 . S
O26 Dy20 2.403 . S
O26 C28 1.254 . S
O27 Dy20 2.664 1_545 S
O27 Dy23 2.310 . S
O27 C28 1.268 1_545 S
C28 O26 1.254 . S
C28 O27 1.268 1_565 S
C29 O34 1.254 . S
C29 O35 1.268 1_545 S
O30 Dy23 2.351 1_565 S
O30 C38 1.249 . S
O31 Dy20 2.326 . S
O31 C38 1.267 . S
O32 C21 1.185 . S
O32 Dy23 2.398 . S
O33 C21 1.355 . S
O33 Dy23 2.491 . S
O34 Dy23 2.403 . S
O34 C29 1.254 . S
O35 Dy20 2.310 . S
O35 Dy23 2.664 1_565 S
O35 C29 1.268 1_565 S
O36 Dy20 2.351 1_545 S
O36 C39 1.249 . S
O37 Dy23 2.326 . S
O37 C39 1.267 . S
C38 O30 1.249 . S
C38 O31 1.267 . S
C39 O36 1.249 . S
C39 O37 1.267 . S
Dy40 O44 2.398 . S
Dy40 O45 2.491 . S
Dy40 O46 2.403 1_556 S
Dy40 O47 2.664 . S
Dy40 O51 2.326 . S
Dy40 O55 2.310 . S
Dy40 O56 2.351 . S
C41 O52 1.185 . S
C41 O53 1.355 . S
C42 O44 1.185 . S
C42 O45 1.355 . S
Dy43 O47 2.310 . S
Dy43 O50 2.351 . S
Dy43 O52 2.398 . S
Dy43 O53 2.491 . S
Dy43 O54 2.403 . S
Dy43 O55 2.664 . S
Dy43 O57 2.326 . S
O44 Dy40 2.398 . S
O44 C42 1.185 . S
O45 Dy40 2.491 . S
O45 C42 1.355 . S
O46 Dy40 2.403 1_554 S
O46 C48 1.254 . S
O47 Dy40 2.664 . S
O47 Dy43 2.310 . S
O47 C48 1.268 1_556 S
C48 O46 1.254 . S
C48 O47 1.268 1_554 S
C49 O54 1.254 . S
C49 O55 1.268 . S
O50 Dy43 2.351 . S
O50 C58 1.249 . S
O51 Dy40 2.326 . S
O51 C58 1.267 . S
O52 C41 1.185 . S
O52 Dy43 2.398 . S
O53 C41 1.355 . S
O53 Dy43 2.491 . S
O54 Dy43 2.403 . S
O54 C49 1.254 . S
O55 Dy40 2.310 . S
O55 Dy43 2.664 . S
O55 C49 1.268 . S
O56 Dy40 2.351 . S
O56 C59 1.249 . S
O57 Dy43 2.326 . S
O57 C59 1.267 . S
C58 O50 1.249 . S
C58 O51 1.267 . S
C59 O56 1.249 . S
C59 O57 1.267 . S
H60 C66 0.930 . S
H61 C69 0.930 . S
H62 C70 0.930 . S
H63 C71 0.930 . S
H64 C74 0.930 . S
H65 C75 0.930 . S
C66 H60 0.930 . S
C66 C67 1.355 . S
C66 C68 1.415 . S
C67 C66 1.355 . S
C67 C69 1.419 1_554 S
C68 C66 1.415 . S
C68 C73 1.425 1_554 S
C68 C75 1.409 . S
C69 H61 0.930 . S
C69 C67 1.419 1_556 S
C69 C70 1.362 . S
C70 H62 0.930 . S
C70 C69 1.362 . S
C70 C73 1.409 . S
C71 H63 0.930 . S
C71 C72 1.355 . S
C71 C73 1.415 . S
C72 C71 1.355 . S
C72 C74 1.419 1_556 S
C73 C68 1.425 1_556 S
C73 C70 1.409 . S
C73 C71 1.415 . S
C74 H64 0.930 . S
C74 C72 1.419 1_554 S
C74 C75 1.362 . S
C75 H65 0.930 . S
C75 C68 1.409 . S
C75 C74 1.362 . S
H76 C82 0.930 . S
H77 C85 0.930 . S
H78 C86 0.930 . S
H79 C87 0.930 . S
H80 C90 0.930 . S
H81 C91 0.930 . S
C82 H76 0.930 . S
C82 C83 1.355 . S
C82 C84 1.415 . S
C83 C82 1.355 . S
C83 C85 1.419 . S
C84 C82 1.415 . S
C84 C89 1.425 . S
C84 C91 1.409 . S
C85 H77 0.930 . S
C85 C83 1.419 . S
C85 C86 1.362 . S
C86 H78 0.930 . S
C86 C85 1.362 . S
C86 C89 1.409 . S
C87 H79 0.930 . S
C87 C88 1.355 . S
C87 C89 1.415 . S
C88 C87 1.355 . S
C88 C90 1.419 . S
C89 C84 1.425 . S
C89 C86 1.409 . S
C89 C87 1.415 . S
C90 H80 0.930 . S
C90 C88 1.419 . S
C90 C91 1.362 . S
C91 H81 0.930 . S
C91 C84 1.409 . S
C91 C90 1.362 . S
H92 C98 0.930 . S
H93 C101 0.930 . S
H94 C102 0.930 . S
H95 C103 0.930 . S
H96 C106 0.930 . S
H97 C107 0.930 . S
C98 H92 0.930 . S
C98 C99 1.355 . S
C98 C100 1.415 . S
C99 C98 1.355 . S
C99 C101 1.419 . S
C100 C98 1.415 . S
C100 C105 1.425 . S
C100 C107 1.409 . S
C101 H93 0.930 . S
C101 C99 1.419 . S
C101 C102 1.362 . S
C102 H94 0.930 . S
C102 C101 1.362 . S
C102 C105 1.409 . S
C103 H95 0.930 . S
C103 C104 1.355 . S
C103 C105 1.415 . S
C104 C103 1.355 . S
C104 C106 1.419 . S
C105 C100 1.425 . S
C105 C102 1.409 . S
C105 C103 1.415 . S
C106 H96 0.930 . S
C106 C104 1.419 . S
C106 C107 1.362 . S
C107 H97 0.930 . S
C107 C100 1.409 . S
C107 C106 1.362 . S
H108 C114 0.930 . S
H109 C117 0.930 . S
H110 C118 0.930 . S
H111 C119 0.930 . S
H112 C122 0.930 . S
H113 C123 0.930 . S
C114 H108 0.930 . S
C114 C115 1.355 . S
C114 C116 1.415 1_556 S
C115 C114 1.355 . S
C115 C117 1.419 . S
C116 C114 1.415 1_554 S
C116 C121 1.425 . S
C116 C123 1.409 . S
C117 H109 0.930 . S
C117 C115 1.419 . S
C117 C118 1.362 . S
C118 H110 0.930 . S
C118 C117 1.362 . S
C118 C121 1.409 1_556 S
C119 H111 0.930 . S
C119 C120 1.355 . S
C119 C121 1.415 . S
C120 C119 1.355 . S
C120 C122 1.419 . S
C121 C116 1.425 . S
C121 C118 1.409 1_554 S
C121 C119 1.415 . S
C122 H112 0.930 . S
C122 C120 1.419 . S
C122 C123 1.362 . S
C123 H113 0.930 . S
C123 C116 1.409 . S
C123 C122 1.362 . S
H124 C130 0.930 . S
H125 C133 0.930 . S
H126 C134 0.930 . S
H127 C135 0.930 . S
H128 C138 0.930 . S
H129 C139 0.930 . S
C130 H124 0.930 . S
C130 C131 1.355 . S
C130 C132 1.415 . S
C131 C130 1.355 . S
C131 C133 1.419 . S
C132 C130 1.415 . S
C132 C137 1.425 . S
C132 C139 1.409 . S
C133 H125 0.930 . S
C133 C131 1.419 . S
C133 C134 1.362 . S
C134 H126 0.930 . S
C134 C133 1.362 . S
C134 C137 1.409 . S
C135 H127 0.930 . S
C135 C136 1.355 . S
C135 C137 1.415 . S
C136 C135 1.355 . S
C136 C138 1.419 . S
C137 C132 1.425 . S
C137 C134 1.409 . S
C137 C135 1.415 . S
C138 H128 0.930 . S
C138 C136 1.419 . S
C138 C139 1.362 . S
C139 H129 0.930 . S
C139 C132 1.409 . S
C139 C138 1.362 . S
H140 C146 0.930 . S
H141 C149 0.930 . S
H142 C150 0.930 . S
H143 C151 0.930 . S
H144 C154 0.930 . S
H145 C155 0.930 . S
C146 H140 0.930 . S
C146 C147 1.355 . S
C146 C148 1.415 . S
C147 C146 1.355 . S
C147 C149 1.419 . S
C148 C146 1.415 . S
C148 C153 1.425 . S
C148 C155 1.409 . S
C149 H141 0.930 . S
C149 C147 1.419 . S
C149 C150 1.362 . S
C150 H142 0.930 . S
C150 C149 1.362 . S
C150 C153 1.409 . S
C151 H143 0.930 . S
C151 C152 1.355 . S
C151 C153 1.415 . S
C152 C151 1.355 . S
C152 C154 1.419 . S
C153 C148 1.425 . S
C153 C150 1.409 . S
C153 C151 1.415 . S
C154 H144 0.930 . S
C154 C152 1.419 . S
C154 C155 1.362 . S
C155 H145 0.930 . S
C155 C148 1.409 . S
C155 C154 1.362 . S
H156 C162 0.930 . S
H157 C165 0.930 . S
H158 C166 0.930 . S
H159 C167 0.930 . S
H160 C170 0.930 . S
H161 C171 0.930 . S
C162 H156 0.930 . S
C162 C163 1.355 1_655 S
C162 C164 1.415 . S
C163 C162 1.355 1_455 S
C163 C165 1.419 . S
C164 C162 1.415 . S
C164 C169 1.425 1_655 S
C164 C171 1.409 . S
C165 H157 0.930 . S
C165 C163 1.419 . S
C165 C166 1.362 . S
C166 H158 0.930 . S
C166 C165 1.362 . S
C166 C169 1.409 . S
C167 H159 0.930 . S
C167 C168 1.355 1_455 S
C167 C169 1.415 . S
C168 C167 1.355 1_655 S
C168 C170 1.419 . S
C169 C164 1.425 1_455 S
C169 C166 1.409 . S
C169 C167 1.415 . S
C170 H160 0.930 . S
C170 C168 1.419 . S
C170 C171 1.362 . S
C171 H161 0.930 . S
C171 C164 1.409 . S
C171 C170 1.362 . S
H172 C178 0.930 . S
H173 C181 0.930 . S
H174 C182 0.930 . S
H175 C183 0.930 . S
H176 C186 0.930 . S
H177 C187 0.930 . S
C178 H172 0.930 . S
C178 C179 1.355 . S
C178 C180 1.415 . S
C179 C178 1.355 . S
C179 C181 1.419 1_565 S
C180 C178 1.415 . S
C180 C185 1.425 1_564 S
C180 C187 1.409 1_554 S
C181 H173 0.930 . S
C181 C179 1.419 1_545 S
C181 C182 1.362 . S
C182 H174 0.930 . S
C182 C181 1.362 . S
C182 C185 1.409 1_554 S
C183 H175 0.930 . S
C183 C184 1.355 . S
C183 C185 1.415 . S
C184 C183 1.355 . S
C184 C186 1.419 1_545 S
C185 C180 1.425 1_546 S
C185 C182 1.409 1_556 S
C185 C183 1.415 . S
C186 H176 0.930 . S
C186 C184 1.419 1_565 S
C186 C187 1.362 . S
C187 H177 0.930 . S
C187 C180 1.409 1_556 S
C187 C186 1.362 . S
H188 C194 0.930 . S
H189 C197 0.930 . S
H190 C198 0.930 . S
H191 C199 0.930 . S
H192 C202 0.930 . S
H193 C203 0.930 . S
C194 H188 0.930 . S
C194 C195 1.355 . S
C194 C196 1.415 . S
C195 C194 1.355 . S
C195 C197 1.419 . S
C196 C194 1.415 . S
C196 C201 1.425 . S
C196 C203 1.409 . S
C197 H189 0.930 . S
C197 C195 1.419 . S
C197 C198 1.362 . S
C198 H190 0.930 . S
C198 C197 1.362 . S
C198 C201 1.409 . S
C199 H191 0.930 . S
C199 C200 1.355 . S
C199 C201 1.415 . S
C200 C199 1.355 . S
C200 C202 1.419 . S
C201 C196 1.425 . S
C201 C198 1.409 . S
C201 C199 1.415 . S
C202 H192 0.930 . S
C202 C200 1.419 . S
C202 C203 1.362 . S
C203 H193 0.930 . S
C203 C196 1.409 . S
C203 C202 1.362 . S
C67 C2 1.833 . S
C72 C58 1.743 . S
C83 C21 1.878 . S
C88 C19 1.950 . S
C99 C38 1.751 . S
C104 C42 1.850 . S
C115 C59 1.927 . S
C120 C1 1.850 . S
C131 C22 1.863 . S
C136 C18 1.772 . S
C147 C41 1.880 . S
C152 C39 1.944 . S
C163 C9 0.735 1_455 S
C168 C8 0.736 1_655 S
C179 C29 0.579 1_565 S
C184 C28 0.579 1_545 S
C195 C49 0.737 . S
C200 C48 0.737 . S
