# Generated by pormake.
# Topology hex, (8)-cn, num edge types: 1
# Building blocks:
#     Node 0, Type 0, BuildingBlock: EBIMEJ_clean_sbu_0, # of connection points: 8
#     Edge 1, Type (0, 0), BuildingBlock: XUDNAN_clean_linker_2, # of connection points: 2
#     Edge 2, Type (0, 0), BuildingBlock: XUDNAN_clean_linker_2, # of connection points: 2
#     Edge 3, Type (0, 0), BuildingBlock: XUDNAN_clean_linker_2, # of connection points: 2
#     Edge 4, Type (0, 0), BuildingBlock: XUDNAN_clean_linker_2, # of connection points: 2
# Relax obj value: 0.012
# Max RMSD: 0.051
# Mean RMSD: 0.051
data_MOF--net-hex--node1-EBIMEJ_clean_sbu_0--edge1-XUDNAN_clean_linker_2
_symmetry_space_group_name_H-M    P1
_symmetry_Int_Tables_number       1
_symmetry_cell_setting            triclinic
loop_
_symmetry_equiv_pos_as_xyz
'x, y, z'
_cell_length_a     17.365035
_cell_length_b     20.464449
_cell_length_c     16.22872
_cell_angle_alpha  73.357381
_cell_angle_beta   115.97529
_cell_angle_gamma 125.32043
loop_
_atom_site_label
_atom_site_type_symbol
_atom_site_fract_x
_atom_site_fract_y
_atom_site_fract_z
_atom_type_partial_charge
Co0 Co 0.99973 0.8779 0.98855 0.0
Co1 Co 0.91389 0.96928 0.02114 0.0
Co2 Co 0.12202 0.06692 0.01304 0.0
H3 H 0.05293 0.97166 0.02061 0.0
O4 O 0.02902 0.95594 0.06389 0.0
H5 H 0.98506 0.06371 0.02306 0.0
O6 O 0.01028 0.08182 0.98039 0.0
Co7 Co 0.03134 0.15394 0.05833 0.0
O8 O 0.88561 0.10641 0.04002 0.0
O9 O 0.80308 0.9887 0.97726 0.0
O10 O 0.17266 0.23456 0.05387 0.0
O11 O 0.21127 0.18242 0.98338 0.0
O12 O 0.01489 0.81688 0.92135 0.0
O13 O 0.9895 0.76901 0.04433 0.0
O14 O 0.04821 0.1097 0.1883 0.0
O15 O 0.94235 0.98158 0.15238 0.0
C16 C 0.21693 0.99394 0.99949 0.0
C17 C 0.80773 0.78917 0.03098 0.0
C18 C 0.02769 0.2793 0.02623 0.0
C19 C 0.99056 0.98613 0.83195 0.0
C20 C 0.80469 0.04515 0.99803 0.0
C21 C 0.22651 0.24169 0.01379 0.0
C22 C 1.00312 0.75946 0.97972 0.0
C23 C 0.99652 0.0362 0.2106 0.0
O24 O 0.13123 0.93094 0.97025 0.0
O25 O 0.2308 0.04765 0.03879 0.0
O26 O 0.81745 0.8535 0.04135 0.0
O27 O 0.87065 0.7888 0.01098 0.0
O28 O 0.02814 0.23869 0.10089 0.0
O29 O 0.03041 0.24906 0.97098 0.0
O30 O 0.93617 0.923 0.87116 0.0
O31 O 0.07183 0.04446 0.8794 0.0
H32 H 0.98896 0.34237 0.12324 0.0
H33 H 0.05723 0.38335 0.87928 0.0
H34 H 0.05816 0.509 0.84291 0.0
H35 H 0.81824 0.4181 0.0155 0.0
H36 H 0.85556 0.46277 0.11766 0.0
H37 H 0.86122 0.37564 0.1269 0.0
H38 H 0.04973 0.45156 0.22785 0.0
H39 H 0.04492 0.5389 0.21949 0.0
H40 H 0.13606 0.54644 0.18592 0.0
H41 H 0.05692 0.63129 0.83387 0.0
H42 H 0.04639 0.742 0.84887 0.0
H43 H 0.97114 0.62289 0.09449 0.0
C44 C 1.00428 0.37803 0.06234 0.0
C45 C 0.02499 0.35368 1.00497 0.0
C46 C 0.04286 0.40119 0.92507 0.0
C47 C 0.04311 0.47264 0.90354 0.0
C48 C 0.02328 0.49534 0.9615 0.0
C49 C 1.0029 0.44925 0.03868 0.0
C50 C 0.98159 0.48726 0.08766 0.0
C51 C 0.8727 0.4327 0.08686 0.0
C52 C 0.05765 0.50724 0.18606 0.0
C53 C 0.99628 0.56293 0.02733 0.0
C54 C 0.01976 0.56576 0.95478 0.0
C55 C 0.03791 0.62957 0.88998 0.0
C56 C 0.03175 0.69225 0.89915 0.0
C57 C 0.00777 0.69116 0.97264 0.0
C58 C 0.98964 0.62539 0.03758 0.0
H59 H 0.76934 0.12651 0.07031 0.0
H60 H 0.62521 0.95086 0.87026 0.0
H61 H 0.4632 0.93693 0.83328 0.0
H62 H 0.58447 0.0281 0.16169 0.0
H63 H 0.59151 0.11481 0.17917 0.0
H64 H 0.70047 0.12438 0.17762 0.0
H65 H 0.71362 0.23505 0.04761 0.0
H66 H 0.60518 0.22659 0.04972 0.0
H67 H 0.60601 0.21537 0.944 0.0
H68 H 0.31806 0.92861 0.83097 0.0
H69 H 0.19011 0.91922 0.86776 0.0
H70 H 0.42321 0.09714 0.0742 0.0
C71 C 0.70404 0.08655 0.01717 0.0
C72 C 0.70935 0.0398 0.97283 0.0
C73 C 0.62238 0.98697 0.90509 0.0
C74 C 0.53045 0.97937 0.88291 0.0
C75 C 0.52733 0.02516 0.92902 0.0
C76 C 0.61143 0.07772 0.99477 0.0
C77 C 0.58452 0.11205 0.04192 0.0
C78 C 0.61714 0.09365 0.14625 0.0
C79 C 0.63001 0.20264 0.01946 0.0
C80 C 0.47113 0.06614 0.99653 0.0
C81 C 0.44087 0.01856 0.92966 0.0
C82 C 0.34048 0.96618 0.88223 0.0
C83 C 0.26845 0.96074 0.90477 0.0
C84 C 0.29695 1.00667 0.9752 0.0
C85 C 0.39961 0.06162 0.02011 0.0
H86 H 0.43019 0.31031 0.04668 0.0
H87 H 0.19282 0.36136 0.94146 0.0
H88 H 0.31629 0.50537 0.93815 0.0
H89 H 0.61228 0.47246 0.19184 0.0
H90 H 0.71928 0.49762 0.16878 0.0
H91 H 0.61246 0.39635 0.15717 0.0
H92 H 0.59437 0.39895 0.98954 0.0
H93 H 0.70229 0.49977 1.00122 0.0
H94 H 0.58451 0.47808 0.90982 0.0
H95 H 0.46215 0.64152 0.96438 0.0
H96 H 0.62582 0.76843 0.98951 0.0
H97 H 0.7748 0.6362 0.06705 0.0
C98 C 0.40456 0.352 0.02052 0.0
C99 C 0.30186 0.32491 0.99525 0.0
C100 C 0.27102 0.38103 0.96249 0.0
C101 C 0.34068 0.46304 0.96027 0.0
C102 C 0.44155 0.48844 0.98979 0.0
C103 C 0.474 0.43521 0.01688 0.0
C104 C 0.58807 0.48049 0.04573 0.0
C105 C 0.63579 0.46052 0.1469 0.0
C106 C 0.61911 0.46331 0.98279 0.0
C107 C 0.61338 0.56667 0.03181 0.0
C108 C 0.52736 0.56919 1.00077 0.0
C109 C 0.53031 0.64081 0.98723 0.0
C110 C 0.62379 0.71256 1.00273 0.0
C111 C 0.71296 0.71229 0.03005 0.0
C112 C 0.70767 0.63817 0.04576 0.0
H113 H 0.08597 0.10722 0.71604 0.0
H114 H 0.85273 0.85585 0.72565 0.0
H115 H 0.83475 0.84177 0.57206 0.0
H116 H 0.96568 0.14244 0.46982 0.0
H117 H 0.08405 0.2106 0.45125 0.0
H118 H 0.07729 0.2021 0.56184 0.0
H119 H 0.21827 0.16983 0.63787 0.0
H120 H 0.22438 0.17695 0.52742 0.0
H121 H 0.20202 0.08687 0.59942 0.0
H122 H 0.84862 0.85079 0.42259 0.0
H123 H 0.87754 0.88708 0.27622 0.0
H124 H 0.09598 0.13409 0.35607 0.0
C125 C 0.02997 0.04959 0.6852 0.0
C126 C 0.97084 0.98278 0.73368 0.0
C127 C 0.89873 0.90833 0.69051 0.0
C128 C 0.88823 0.89938 0.60315 0.0
C129 C 0.94918 0.96559 0.55843 0.0
C130 C 0.01719 0.03972 0.59682 0.0
C131 C 0.07186 0.10121 0.53241 0.0
C132 C 0.0483 0.16804 0.50203 0.0
C133 C 0.1859 0.13572 0.57697 0.0
C134 C 0.02504 0.04953 0.4529 0.0
C135 C 0.95501 0.97139 0.46999 0.0
C136 C 0.90261 0.91199 0.40793 0.0
C137 C 0.92009 0.93326 0.32494 0.0
C138 C 0.98898 1.01356 0.30385 0.0
C139 C 0.04297 0.07214 0.36972 0.0
loop_
_geom_bond_atom_site_label_1
_geom_bond_atom_site_label_2
_geom_bond_distance
_geom_bond_site_symmetry_2
_ccdc_geom_bond_type
Co0 H3 2.400 1_556 S
Co0 O4 2.009 1_556 S
Co0 O12 2.115 1_455 S
Co0 O13 2.315 1_556 S
Co0 O24 2.053 . S
Co0 O27 2.094 1_455 S
Co0 O30 2.122 1_455 S
Co1 O4 2.126 1_655 S
Co1 H5 2.388 1_564 S
Co1 O6 2.053 1_564 S
Co1 O9 2.047 1_554 S
Co1 O15 2.113 . S
Co1 O26 2.063 . S
Co2 H3 2.388 1_546 S
Co2 O4 2.053 1_546 S
Co2 O6 2.126 1_455 S
Co2 O11 2.063 . S
Co2 O25 2.047 1_556 S
Co2 O31 2.113 . S
H3 Co0 2.400 1_554 S
H3 Co2 2.388 1_564 S
H3 O4 0.760 . S
O4 Co0 2.009 1_554 S
O4 Co1 2.126 1_455 S
O4 Co2 2.053 1_564 S
O4 H3 0.760 . S
H5 Co1 2.388 1_546 S
H5 O6 0.760 . S
H5 Co7 2.400 1_556 S
O6 Co1 2.053 1_546 S
O6 Co2 2.126 1_655 S
O6 H5 0.760 . S
O6 Co7 2.009 1_556 S
Co7 H5 2.400 1_554 S
Co7 O6 2.009 1_554 S
Co7 O8 2.053 . S
Co7 O10 2.094 1_655 S
Co7 O14 2.122 1_655 S
Co7 O28 2.115 1_655 S
Co7 O29 2.315 1_554 S
O8 Co7 2.053 . S
O8 C20 1.259 . S
O9 Co1 2.047 1_556 S
O9 C20 1.257 1_566 S
O10 Co7 2.094 1_455 S
O10 C21 1.253 . S
O11 Co2 2.063 . S
O11 C21 1.268 1_556 S
O12 Co0 2.115 1_655 S
O12 C22 1.281 1_556 S
O13 Co0 2.315 1_554 S
O13 C22 1.252 1_455 S
O14 Co7 2.122 1_455 S
O14 C23 1.272 1_455 S
O15 Co1 2.113 . S
O15 C23 1.245 1_565 S
C16 O24 1.259 . S
C16 O25 1.257 1_566 S
C17 O26 1.268 1_556 S
C17 O27 1.253 . S
C18 O28 1.281 1_556 S
C18 O29 1.252 1_455 S
C19 O30 1.272 1_455 S
C19 O31 1.245 1_565 S
C20 O8 1.259 . S
C20 O9 1.257 1_544 S
C21 O10 1.253 . S
C21 O11 1.268 1_554 S
C22 O12 1.281 1_554 S
C22 O13 1.252 1_655 S
C23 O14 1.272 1_655 S
C23 O15 1.245 1_545 S
O24 Co0 2.053 . S
O24 C16 1.259 . S
O25 Co2 2.047 1_554 S
O25 C16 1.257 1_544 S
O26 Co1 2.063 . S
O26 C17 1.268 1_554 S
O27 Co0 2.094 1_655 S
O27 C17 1.253 . S
O28 Co7 2.115 1_455 S
O28 C18 1.281 1_554 S
O29 Co7 2.315 1_556 S
O29 C18 1.252 1_655 S
O30 Co0 2.122 1_655 S
O30 C19 1.272 1_655 S
O31 Co2 2.113 . S
O31 C19 1.245 1_545 S
H32 C44 0.930 . S
H33 C46 0.930 . S
H34 C47 0.930 . S
H35 C51 0.959 . S
H36 C51 0.959 . S
H37 C51 0.961 . S
H38 C52 0.960 . S
H39 C52 0.958 1_655 S
H40 C52 0.959 . S
H41 C55 0.929 . S
H42 C56 0.931 . S
H43 C58 0.930 . S
C44 H32 0.930 . S
C44 C45 1.399 1_654 S
C44 C49 1.399 . S
C45 C44 1.399 1_456 S
C45 C46 1.376 . S
C46 H33 0.930 . S
C46 C45 1.376 . S
C46 C47 1.388 . S
C47 H34 0.930 . S
C47 C46 1.388 . S
C47 C48 1.390 . S
C48 C47 1.390 . S
C48 C49 1.394 1_456 S
C48 C54 1.465 . S
C49 C44 1.399 . S
C49 C48 1.394 1_654 S
C49 C50 1.516 . S
C50 C49 1.516 . S
C50 C51 1.502 . S
C50 C52 1.561 1_655 S
C50 C53 1.526 . S
C51 H35 0.959 . S
C51 H36 0.959 . S
C51 H37 0.961 . S
C51 C50 1.502 . S
C52 H38 0.960 . S
C52 H39 0.958 1_455 S
C52 H40 0.959 . S
C52 C50 1.561 1_455 S
C53 C50 1.526 . S
C53 C54 1.396 1_654 S
C53 C58 1.390 . S
C54 C48 1.465 . S
C54 C53 1.396 1_456 S
C54 C55 1.399 . S
C55 H41 0.929 . S
C55 C54 1.399 . S
C55 C56 1.385 . S
C56 H42 0.931 . S
C56 C55 1.385 . S
C56 C57 1.389 1_456 S
C57 C56 1.389 1_654 S
C57 C58 1.387 . S
C58 H43 0.930 . S
C58 C53 1.390 . S
C58 C57 1.387 . S
H59 C71 0.930 . S
H60 C73 0.930 . S
H61 C74 0.930 . S
H62 C78 0.959 . S
H63 C78 0.959 . S
H64 C78 0.961 . S
H65 C79 0.960 1_554 S
H66 C79 0.961 1_554 S
H67 C79 0.959 . S
H68 C82 0.929 . S
H69 C83 0.931 . S
H70 C85 0.930 . S
C71 H59 0.930 . S
C71 C72 1.399 1_545 S
C71 C76 1.399 . S
C72 C71 1.399 1_565 S
C72 C73 1.376 1_554 S
C73 H60 0.930 . S
C73 C72 1.376 1_556 S
C73 C74 1.388 . S
C74 H61 0.930 . S
C74 C73 1.388 . S
C74 C75 1.390 . S
C75 C74 1.390 . S
C75 C76 1.394 1_566 S
C75 C81 1.465 . S
C76 C71 1.399 . S
C76 C75 1.394 1_544 S
C76 C77 1.516 . S
C77 C76 1.516 . S
C77 C78 1.502 . S
C77 C79 1.561 1_554 S
C77 C80 1.526 . S
C78 H62 0.959 . S
C78 H63 0.959 . S
C78 H64 0.961 . S
C78 C77 1.502 . S
C79 H65 0.960 1_556 S
C79 H66 0.961 1_556 S
C79 H67 0.959 . S
C79 C77 1.561 1_556 S
C80 C77 1.526 . S
C80 C81 1.396 1_544 S
C80 C85 1.390 . S
C81 C75 1.465 . S
C81 C80 1.396 1_566 S
C81 C82 1.399 . S
C82 H68 0.929 . S
C82 C81 1.399 . S
C82 C83 1.385 . S
C83 H69 0.931 . S
C83 C82 1.385 . S
C83 C84 1.389 . S
C84 C83 1.389 . S
C84 C85 1.387 1_566 S
C85 H70 0.930 . S
C85 C80 1.390 . S
C85 C84 1.387 1_544 S
H86 C98 0.930 . S
H87 C100 0.930 . S
H88 C101 0.930 . S
H89 C105 0.959 . S
H90 C105 0.959 . S
H91 C105 0.961 . S
H92 C106 0.960 . S
H93 C106 0.961 . S
H94 C106 0.959 . S
H95 C109 0.929 . S
H96 C110 0.931 . S
H97 C112 0.930 . S
C98 H86 0.930 . S
C98 C99 1.399 . S
C98 C103 1.399 . S
C99 C98 1.399 . S
C99 C100 1.376 1_554 S
C100 H87 0.930 . S
C100 C99 1.376 1_556 S
C100 C101 1.388 . S
C101 H88 0.930 . S
C101 C100 1.388 . S
C101 C102 1.390 . S
C102 C101 1.390 . S
C102 C103 1.394 1_556 S
C102 C108 1.465 . S
C103 C98 1.399 . S
C103 C102 1.394 1_554 S
C103 C104 1.516 . S
C104 C103 1.516 . S
C104 C105 1.502 . S
C104 C106 1.561 1_554 S
C104 C107 1.526 . S
C105 H89 0.959 . S
C105 H90 0.959 . S
C105 H91 0.961 . S
C105 C104 1.502 . S
C106 H92 0.960 . S
C106 H93 0.961 . S
C106 H94 0.959 . S
C106 C104 1.561 1_556 S
C107 C104 1.526 . S
C107 C108 1.396 1_554 S
C107 C112 1.390 . S
C108 C102 1.465 . S
C108 C107 1.396 1_556 S
C108 C109 1.399 . S
C109 H95 0.929 . S
C109 C108 1.399 . S
C109 C110 1.385 . S
C110 H96 0.931 . S
C110 C109 1.385 . S
C110 C111 1.389 . S
C111 C110 1.389 . S
C111 C112 1.387 1_556 S
C112 H97 0.930 . S
C112 C107 1.390 . S
C112 C111 1.387 1_554 S
H113 C125 0.930 . S
H114 C127 0.930 . S
H115 C128 0.930 . S
H116 C132 0.959 1_655 S
H117 C132 0.959 . S
H118 C132 0.961 . S
H119 C133 0.960 . S
H120 C133 0.961 . S
H121 C133 0.959 . S
H122 C136 0.929 . S
H123 C137 0.931 . S
H124 C139 0.930 . S
C125 H113 0.930 . S
C125 C126 1.399 1_445 S
C125 C130 1.399 . S
C126 C125 1.399 1_665 S
C126 C127 1.376 . S
C127 H114 0.930 . S
C127 C126 1.376 . S
C127 C128 1.388 . S
C128 H115 0.930 . S
C128 C127 1.388 . S
C128 C129 1.390 . S
C129 C128 1.390 . S
C129 C130 1.394 1_665 S
C129 C135 1.465 . S
C130 C125 1.399 . S
C130 C129 1.394 1_445 S
C130 C131 1.516 . S
C131 C130 1.516 . S
C131 C132 1.502 . S
C131 C133 1.561 . S
C131 C134 1.526 . S
C132 H116 0.959 1_455 S
C132 H117 0.959 . S
C132 H118 0.961 . S
C132 C131 1.502 . S
C133 H119 0.960 . S
C133 H120 0.961 . S
C133 H121 0.959 . S
C133 C131 1.561 . S
C134 C131 1.526 . S
C134 C135 1.396 1_445 S
C134 C139 1.390 . S
C135 C129 1.465 . S
C135 C134 1.396 1_665 S
C135 C136 1.399 . S
C136 H122 0.929 . S
C136 C135 1.399 . S
C136 C137 1.385 . S
C137 H123 0.931 . S
C137 C136 1.385 . S
C137 C138 1.389 . S
C138 C137 1.389 . S
C138 C139 1.387 1_665 S
C139 H124 0.930 . S
C139 C134 1.390 . S
C139 C138 1.387 1_445 S
C45 C18 1.739 . S
C57 C22 1.687 . S
C72 C20 1.018 1_565 S
C84 C16 1.000 . S
C99 C21 1.675 . S
C111 C17 1.672 . S
C126 C19 1.426 1_655 S
C138 C23 1.483 1_565 S
