# Generated by pormake.
# Topology sxa, (6)-cn, num edge types: 1
# Building blocks:
#     Node 0, Type 0, BuildingBlock: MIFKUJ_clean_sbu_0, # of connection points: 6
#     Node 1, Type 0, BuildingBlock: MIFKUJ_clean_sbu_0, # of connection points: 6
#     Node 2, Type 0, BuildingBlock: MIFKUJ_clean_sbu_0, # of connection points: 6
#     Node 3, Type 0, BuildingBlock: MIFKUJ_clean_sbu_0, # of connection points: 6
#     Edge 4, Type (0, 0), BuildingBlock: OJICUG_clean_linker_0, # of connection points: 2
#     Edge 5, Type (0, 0), BuildingBlock: OJICUG_clean_linker_0, # of connection points: 2
#     Edge 6, Type (0, 0), BuildingBlock: OJICUG_clean_linker_0, # of connection points: 2
#     Edge 7, Type (0, 0), BuildingBlock: OJICUG_clean_linker_0, # of connection points: 2
#     Edge 8, Type (0, 0), BuildingBlock: OJICUG_clean_linker_0, # of connection points: 2
#     Edge 9, Type (0, 0), BuildingBlock: OJICUG_clean_linker_0, # of connection points: 2
#     Edge 10, Type (0, 0), BuildingBlock: OJICUG_clean_linker_0, # of connection points: 2
#     Edge 11, Type (0, 0), BuildingBlock: OJICUG_clean_linker_0, # of connection points: 2
#     Edge 12, Type (0, 0), BuildingBlock: OJICUG_clean_linker_0, # of connection points: 2
#     Edge 13, Type (0, 0), BuildingBlock: OJICUG_clean_linker_0, # of connection points: 2
#     Edge 14, Type (0, 0), BuildingBlock: OJICUG_clean_linker_0, # of connection points: 2
#     Edge 15, Type (0, 0), BuildingBlock: OJICUG_clean_linker_0, # of connection points: 2
# Relax obj value: 0.132
# Max RMSD: 0.267
# Mean RMSD: 0.267
data_MOF--net-sxa--node1-MIFKUJ_clean_sbu_0--edge1-OJICUG_clean_linker_0
_symmetry_space_group_name_H-M    P1
_symmetry_Int_Tables_number       1
_symmetry_cell_setting            triclinic
loop_
_symmetry_equiv_pos_as_xyz
'x, y, z'
_cell_length_a     25.5109
_cell_length_b     18.159182
_cell_length_c     10.003628
_cell_angle_alpha  95.772869
_cell_angle_beta   89.123735
_cell_angle_gamma 86.701377
loop_
_atom_site_label
_atom_site_type_symbol
_atom_site_fract_x
_atom_site_fract_y
_atom_site_fract_z
_atom_type_partial_charge
Zn0 Zn 0.91599 0.77048 0.35832 0.0
Zn1 Zn 0.05983 0.80563 0.16604 0.0
C2 C 0.86041 0.69847 0.54558 0.0
O3 O 0.8654 0.64353 0.44932 0.0
C4 C 0.07552 0.84404 0.88857 0.0
O5 O 0.05888 0.86729 0.77571 0.0
O6 O 0.85193 0.74869 0.26086 0.0
O7 O 0.92118 0.88029 0.34269 0.0
O8 O 0.00064 0.84256 0.2878 0.0
C9 C 0.81062 0.78582 0.30519 0.0
O10 O 0.81395 0.84127 0.39916 0.0
O11 O 0.89255 0.74978 0.54523 0.0
C12 C 0.16627 0.77506 0.26302 0.0
O13 O 0.15877 0.70789 0.20767 0.0
O14 O 0.13041 0.82631 0.25454 0.0
O15 O 0.05011 0.69535 0.1375 0.0
O16 O -0.02646 0.70523 0.24617 0.0
O17 O 0.04438 0.8466 0.98882 0.0
C18 C 0.96376 0.89215 0.28474 0.0
C19 C 0.00928 0.66544 0.17701 0.0
Zn20 Zn 0.39875 0.30341 0.35737 0.0
Zn21 Zn 0.54891 0.33975 0.1986 0.0
C22 C 0.3475 0.22428 0.53886 0.0
O23 O 0.35227 0.1736 0.43523 0.0
C24 C 0.57215 0.37481 0.92152 0.0
O25 O 0.55942 0.40326 0.81004 0.0
O26 O 0.33163 0.28821 0.26719 0.0
O27 O 0.40686 0.41268 0.3488 0.0
O28 O 0.48766 0.37447 0.3142 0.0
C29 C 0.29234 0.32911 0.31497 0.0
O30 O 0.29906 0.38439 0.4071 0.0
O31 O 0.37732 0.27845 0.54225 0.0
C32 C 0.65139 0.2956 0.30678 0.0
O33 O 0.64165 0.23088 0.24415 0.0
O34 O 0.61819 0.3504 0.29989 0.0
O35 O 0.5349 0.23295 0.15267 0.0
O36 O 0.45442 0.23462 0.24333 0.0
O37 O 0.54177 0.38689 1.02377 0.0
C38 C 0.4516 0.42427 0.30288 0.0
C39 C 0.49301 0.20045 0.17519 0.0
Zn40 Zn 0.88328 0.25983 0.86994 0.0
Zn41 Zn 0.03671 0.25861 0.88614 0.0
C42 C 0.82928 0.31842 0.65952 0.0
O43 O 0.82571 0.37357 0.75555 0.0
C44 C 0.09696 0.24563 0.10354 0.0
O45 O 0.09734 0.1781 1.04257 0.0
O46 O 0.81308 0.27008 0.9609 0.0
O47 O 0.91538 0.16293 0.92231 0.0
O48 O 0.00228 0.16533 0.93019 0.0
C49 C 0.77729 0.23062 0.91114 0.0
O50 O 0.79015 0.17557 0.81879 0.0
O51 O 0.86021 0.26232 0.67566 0.0
C52 C 0.13991 0.28079 0.78569 0.0
O53 O 0.13019 0.34236 0.865 0.0
O54 O 0.10347 0.2356 0.76749 0.0
O55 O -0.00955 0.34261 0.82825 0.0
O56 O 0.9175 0.3509 0.94927 0.0
O57 O 0.06677 0.29559 1.0606 0.0
C58 C 0.96014 0.13243 0.94489 0.0
C59 C 0.96007 0.37811 0.91729 0.0
Zn60 Zn 0.39527 0.78114 0.84185 0.0
Zn61 Zn 0.54939 0.76196 0.87052 0.0
C62 C 0.34117 0.82358 0.61797 0.0
O63 O 0.33665 0.88375 0.70308 0.0
C64 C 0.6203 0.71401 1.05391 0.0
O65 O 0.61953 0.65395 0.96902 0.0
O66 O 0.32448 0.7968 0.92905 0.0
O67 O 0.42291 0.68757 0.91636 0.0
O68 O 0.50979 0.67636 0.91887 0.0
C69 C 0.29247 0.74782 0.89372 0.0
O70 O 0.30993 0.68702 0.82026 0.0
O71 O 0.37252 0.77021 0.64611 0.0
C72 C 0.64943 0.78176 0.75714 0.0
O73 O 0.64226 0.8411 0.84357 0.0
O74 O 0.61106 0.74019 0.73515 0.0
O75 O 0.51672 0.86527 0.89192 0.0
O76 O 0.42949 0.87687 0.89932 0.0
O77 O 0.59017 0.76976 1.03544 0.0
C78 C 0.46532 0.65171 0.94082 0.0
C79 C 0.47402 0.90476 0.91069 0.0
C80 C 0.02273 0.47967 0.96331 0.0
C81 C -0.0257 0.44993 0.98826 0.0
H82 H 0.07231 0.57008 1.00514 0.0
C83 C 0.9391 0.48956 0.08293 0.0
H84 H 0.05082 0.45065 0.89154 0.0
C85 C 0.95132 0.55802 0.14814 0.0
C86 C -0.00081 0.58868 0.12096 0.0
H87 H 0.90147 0.46835 0.10535 0.0
H88 H 0.92257 0.58775 0.2173 0.0
C89 C 0.0351 0.5481 1.02913 0.0
C90 C 0.50336 0.51422 0.18933 0.0
C91 C 0.45595 0.4811 0.20805 0.0
H92 H 0.54406 0.59189 0.08678 0.0
C93 C 0.41206 0.50209 0.13383 0.0
H94 H 0.5376 0.49942 0.24593 0.0
C95 C 0.41556 0.5551 1.04247 0.0
C96 C 0.46309 0.58825 1.02299 0.0
H97 H 0.37486 0.47734 0.14605 0.0
H98 H 0.38081 0.57094 0.98877 0.0
C99 C 0.50707 0.5666 0.09675 0.0
C100 C 0.52573 1.01587 0.97106 0.0
C101 C 0.47718 0.98287 0.96852 0.0
H102 H 0.5689 0.10927 1.03914 0.0
C103 C 0.43353 1.02226 1.03476 0.0
H104 H 0.56026 0.98714 0.92168 0.0
C105 C 0.43868 0.09235 0.10423 0.0
C106 C 0.4875 0.12474 0.10804 0.0
H107 H 0.39567 0.9982 1.03611 0.0
H108 H 0.40438 0.12116 0.15449 0.0
C109 C 0.53079 0.08585 1.03952 0.0
C110 C 0.91661 0.97642 0.1375 0.0
C111 C 0.9641 0.95036 0.19083 0.0
H112 H 0.87816 0.05229 1.01547 0.0
C113 C 0.01091 0.98037 0.15324 0.0
H114 H 0.87978 0.95397 0.16343 0.0
C115 C 0.01014 0.03593 1.06544 0.0
C116 C 0.96237 0.06402 1.01582 0.0
H117 H 0.04806 0.96139 0.19271 0.0
H118 H 0.04691 0.05839 1.04018 0.0
C119 C 0.91574 0.03232 1.05106 0.0
C120 C 0.29498 0.74278 0.44242 0.0
C121 C 0.30155 0.81301 0.51089 0.0
H122 H 0.24739 0.6758 0.31042 0.0
C123 C 0.26548 0.87194 0.48815 0.0
H124 H 0.32172 0.69604 0.45794 0.0
C125 C 0.22261 0.8603 0.40436 0.0
C126 C 0.21461 0.78937 0.34089 0.0
H127 H 0.26922 0.92688 0.53898 0.0
H128 H 0.1949 0.90656 0.39259 0.0
C129 C 0.25207 0.73115 0.35832 0.0
C130 C 0.20652 0.19777 0.64369 0.0
C131 C 0.19381 0.26331 0.72764 0.0
H132 H 0.2653 0.13301 0.5211 0.0
C133 C 0.23376 0.31228 0.75908 0.0
H134 H 0.17696 0.15849 0.61843 0.0
C135 C 0.28455 0.29746 0.70446 0.0
C136 C 0.29688 0.23326 0.61661 0.0
H137 H 0.22572 0.36296 0.82474 0.0
H138 H 0.31364 0.33776 0.72757 0.0
C139 C 0.25744 0.18289 0.58898 0.0
C140 C 0.78033 0.24843 0.47499 0.0
C141 C 0.78875 0.31509 0.55379 0.0
H142 H 0.73058 0.19 0.3356 0.0
C143 C 0.75358 0.37682 0.54281 0.0
H144 H 0.80632 0.19965 0.48136 0.0
C145 C 0.70991 0.37123 0.45995 0.0
C146 C 0.70012 0.30368 0.38593 0.0
H147 H 0.75874 0.42915 0.6019 0.0
H148 H 0.68302 0.4194 0.45699 0.0
C149 C 0.73656 0.24282 0.3921 0.0
C150 C 0.766 0.66979 0.58014 0.0
C151 C 0.80784 0.71545 0.61261 0.0
H152 H 0.68334 0.65511 0.59731 0.0
C153 C 0.79689 0.78234 0.69427 0.0
H154 H 0.77267 0.61811 0.51651 0.0
C155 C 0.74548 0.80388 0.73906 0.0
C156 C 0.70346 0.75916 0.7038 0.0
H157 H 0.82782 0.81928 0.72054 0.0
H158 H 0.73872 0.85611 0.80102 0.0
C159 C 0.7145 0.6914 0.62496 0.0
C160 C 0.21708 0.83302 0.98235 0.0
C161 C 0.23569 0.76705 0.90668 0.0
H162 H 0.15085 0.90914 1.0347 0.0
C163 C 0.20026 0.72458 0.83026 0.0
H164 H 0.24344 0.86691 1.04204 0.0
C165 C 0.1476 0.74928 0.82547 0.0
C166 C 0.12973 0.81591 0.89866 0.0
H167 H 0.21352 0.67389 0.76982 0.0
H168 H 0.12101 0.717 0.76341 0.0
C169 C 0.16437 0.85729 0.97813 0.0
C170 C 0.18166 0.21233 0.20531 0.0
C171 C 0.14172 0.26655 0.18653 0.0
H172 H 0.26132 0.1904 0.25799 0.0
C173 C 0.14958 0.34149 0.22671 0.0
H174 H 0.17657 0.15402 0.17723 0.0
C175 C 0.19827 0.36216 0.27455 0.0
C176 C 0.2395 0.30821 0.28009 0.0
H177 H 0.1193 0.3844 0.21393 0.0
H178 H 0.20452 0.42038 0.29981 0.0
C179 C 0.23037 0.2331 0.2501 0.0
C180 C 0.66007 0.35954 1.01717 0.0
C181 C 0.62215 0.33237 0.92887 0.0
H182 H 0.7387 0.34682 0.08463 0.0
C183 C 0.63376 0.2679 0.84202 0.0
H184 H 0.65189 0.4103 0.08264 0.0
C185 C 0.68344 0.2313 0.84254 0.0
C186 C 0.72222 0.25966 0.92854 0.0
H187 H 0.60481 0.2468 0.77222 0.0
H188 H 0.69211 0.18299 0.77133 0.0
C189 C 0.70965 0.32326 1.01779 0.0
C190 C 0.75566 0.69318 0.1861 0.0
C191 C 0.75951 0.76286 0.25876 0.0
H192 H 0.7073 0.6217 0.06716 0.0
C193 C 0.71448 0.81038 0.28424 0.0
H194 H 0.78959 0.65447 0.16895 0.0
C195 C 0.66724 0.79144 0.22643 0.0
C196 C 0.66464 0.72465 0.14329 0.0
H197 H 0.71631 0.86364 0.34286 0.0
H198 H 0.63369 0.83103 0.24032 0.0
C199 C 0.70841 0.67399 0.12928 0.0
loop_
_geom_bond_atom_site_label_1
_geom_bond_atom_site_label_2
_geom_bond_distance
_geom_bond_site_symmetry_2
_ccdc_geom_bond_type
Zn0 O6 1.969 . S
Zn0 O7 1.965 . S
Zn0 O11 2.024 . S
Zn0 O16 1.969 . S
Zn1 O8 1.969 . S
Zn1 O14 1.969 . S
Zn1 O15 1.965 . S
Zn1 O17 2.024 . S
C2 O3 1.229 . S
C2 O11 1.058 . S
O3 C2 1.229 . S
C4 O5 1.229 . S
C4 O17 1.058 . S
O5 C4 1.229 . S
O6 Zn0 1.969 . S
O6 C9 1.267 1_554 S
O7 Zn0 1.965 . S
O7 C18 1.260 1_655 S
O8 Zn1 1.969 . S
O8 C18 1.258 . S
C9 O6 1.267 1_556 S
C9 O10 1.228 1_556 S
O10 C9 1.228 1_554 S
O11 Zn0 2.024 . S
O11 C2 1.058 . S
C12 O13 1.228 . S
C12 O14 1.267 . S
O13 C12 1.228 . S
O14 Zn1 1.969 . S
O14 C12 1.267 . S
O15 Zn1 1.965 . S
O15 C19 1.257 1_455 S
O16 Zn0 1.969 . S
O16 C19 1.262 . S
O17 Zn1 2.024 . S
O17 C4 1.058 . S
C18 O7 1.260 1_455 S
C18 O8 1.258 . S
C19 O15 1.257 1_655 S
C19 O16 1.262 . S
Zn20 O26 1.969 . S
Zn20 O27 1.965 . S
Zn20 O31 2.024 . S
Zn20 O36 1.969 . S
Zn21 O28 1.969 . S
Zn21 O34 1.969 . S
Zn21 O35 1.965 . S
Zn21 O37 2.024 . S
C22 O23 1.229 . S
C22 O31 1.058 . S
O23 C22 1.229 . S
C24 O25 1.229 . S
C24 O37 1.058 . S
O25 C24 1.229 . S
O26 Zn20 1.969 . S
O26 C29 1.267 1_554 S
O27 Zn20 1.965 . S
O27 C38 1.260 . S
O28 Zn21 1.969 . S
O28 C38 1.258 . S
C29 O26 1.267 1_556 S
C29 O30 1.228 1_556 S
O30 C29 1.228 1_554 S
O31 Zn20 2.024 . S
O31 C22 1.058 . S
C32 O33 1.228 . S
C32 O34 1.267 . S
O33 C32 1.228 . S
O34 Zn21 1.969 . S
O34 C32 1.267 . S
O35 Zn21 1.965 . S
O35 C39 1.260 . S
O36 Zn20 1.969 . S
O36 C39 1.258 . S
O37 Zn21 2.024 . S
O37 C24 1.058 . S
C38 O27 1.260 . S
C38 O28 1.258 . S
C39 O35 1.260 . S
C39 O36 1.258 . S
Zn40 O46 1.969 . S
Zn40 O47 1.965 . S
Zn40 O51 2.024 . S
Zn40 O56 1.969 . S
Zn41 O48 1.969 . S
Zn41 O54 1.969 . S
Zn41 O55 1.965 . S
Zn41 O57 2.024 . S
C42 O43 1.229 . S
C42 O51 1.058 . S
O43 C42 1.229 . S
C44 O45 1.229 . S
C44 O57 1.058 . S
O45 C44 1.229 . S
O46 Zn40 1.969 . S
O46 C49 1.267 1_556 S
O47 Zn40 1.965 . S
O47 C58 1.260 1_655 S
O48 Zn41 1.969 . S
O48 C58 1.258 . S
C49 O46 1.267 1_554 S
C49 O50 1.228 1_554 S
O50 C49 1.228 1_556 S
O51 Zn40 2.024 . S
O51 C42 1.058 . S
C52 O53 1.228 . S
C52 O54 1.267 . S
O53 C52 1.228 . S
O54 Zn41 1.969 . S
O54 C52 1.267 . S
O55 Zn41 1.965 . S
O55 C59 1.257 1_455 S
O56 Zn40 1.969 . S
O56 C59 1.262 . S
O57 Zn41 2.024 . S
O57 C44 1.058 . S
C58 O47 1.260 1_455 S
C58 O48 1.258 . S
C59 O55 1.257 1_655 S
C59 O56 1.262 . S
Zn60 O66 1.969 . S
Zn60 O67 1.965 . S
Zn60 O71 2.024 . S
Zn60 O76 1.969 . S
Zn61 O68 1.969 . S
Zn61 O74 1.969 . S
Zn61 O75 1.965 . S
Zn61 O77 2.024 . S
C62 O63 1.229 . S
C62 O71 1.058 . S
O63 C62 1.229 . S
C64 O65 1.229 . S
C64 O77 1.058 . S
O65 C64 1.229 . S
O66 Zn60 1.969 . S
O66 C69 1.267 1_556 S
O67 Zn60 1.965 . S
O67 C78 1.260 . S
O68 Zn61 1.969 . S
O68 C78 1.258 . S
C69 O66 1.267 1_554 S
C69 O70 1.228 1_554 S
O70 C69 1.228 1_556 S
O71 Zn60 2.024 . S
O71 C62 1.058 . S
C72 O73 1.228 . S
C72 O74 1.267 . S
O73 C72 1.228 . S
O74 Zn61 1.969 . S
O74 C72 1.267 . S
O75 Zn61 1.965 . S
O75 C79 1.260 . S
O76 Zn60 1.969 . S
O76 C79 1.258 . S
O77 Zn61 2.024 . S
O77 C64 1.058 . S
C78 O67 1.260 . S
C78 O68 1.258 . S
C79 O75 1.260 . S
C79 O76 1.258 . S
C80 C81 1.387 . S
C80 H84 0.950 . S
C80 C89 1.390 1_556 S
C81 C80 1.387 . S
C81 C83 1.387 1_455 S
H82 C89 0.950 . S
C83 C81 1.387 1_655 S
C83 C85 1.390 1_556 S
C83 H87 0.950 . S
H84 C80 0.950 . S
C85 C83 1.390 1_554 S
C85 C86 1.387 1_655 S
C85 H88 0.950 . S
C86 C85 1.387 1_455 S
C86 C89 1.387 . S
H87 C83 0.950 . S
H88 C85 0.950 . S
C89 C80 1.390 1_554 S
C89 H82 0.950 . S
C89 C86 1.387 . S
C90 C91 1.387 . S
C90 H94 0.950 . S
C90 C99 1.390 1_554 S
C91 C90 1.387 . S
C91 C93 1.387 . S
H92 C99 0.950 . S
C93 C91 1.387 . S
C93 C95 1.390 1_554 S
C93 H97 0.950 . S
H94 C90 0.950 . S
C95 C93 1.390 1_556 S
C95 C96 1.387 . S
C95 H98 0.950 . S
C96 C95 1.387 . S
C96 C99 1.387 . S
H97 C93 0.950 . S
H98 C95 0.950 . S
C99 C90 1.390 1_556 S
C99 H92 0.950 . S
C99 C96 1.387 . S
C100 C101 1.387 . S
C100 H104 0.950 . S
C100 C109 1.390 1_566 S
C101 C100 1.387 . S
C101 C103 1.387 . S
H102 C109 0.950 . S
C103 C101 1.387 . S
C103 C105 1.390 1_566 S
C103 H107 0.950 . S
H104 C100 0.950 . S
C105 C103 1.390 1_544 S
C105 C106 1.387 . S
C105 H108 0.950 . S
C106 C105 1.387 . S
C106 C109 1.387 . S
H107 C103 0.950 . S
H108 C105 0.950 . S
C109 C100 1.390 1_544 S
C109 H102 0.950 . S
C109 C106 1.387 . S
C110 C111 1.387 . S
C110 H114 0.950 . S
C110 C119 1.390 1_564 S
C111 C110 1.387 . S
C111 C113 1.387 1_655 S
H112 C119 0.950 . S
C113 C111 1.387 1_455 S
C113 C115 1.390 1_564 S
C113 H117 0.950 . S
H114 C110 0.950 . S
C115 C113 1.390 1_546 S
C115 C116 1.387 1_455 S
C115 H118 0.950 . S
C116 C115 1.387 1_655 S
C116 C119 1.387 . S
H117 C113 0.950 . S
H118 C115 0.950 . S
C119 C110 1.390 1_546 S
C119 H112 0.950 . S
C119 C116 1.387 . S
C120 C121 1.387 . S
C120 H124 0.950 . S
C120 C129 1.390 . S
C121 C120 1.387 . S
C121 C123 1.387 . S
H122 C129 0.950 . S
C123 C121 1.387 . S
C123 C125 1.390 . S
C123 H127 0.950 . S
H124 C120 0.950 . S
C125 C123 1.390 . S
C125 C126 1.387 . S
C125 H128 0.950 . S
C126 C125 1.387 . S
C126 C129 1.387 . S
H127 C123 0.950 . S
H128 C125 0.950 . S
C129 C120 1.390 . S
C129 H122 0.950 . S
C129 C126 1.387 . S
C130 C131 1.387 . S
C130 H134 0.950 . S
C130 C139 1.390 . S
C131 C130 1.387 . S
C131 C133 1.387 . S
H132 C139 0.950 . S
C133 C131 1.387 . S
C133 C135 1.390 . S
C133 H137 0.950 . S
H134 C130 0.950 . S
C135 C133 1.390 . S
C135 C136 1.387 . S
C135 H138 0.950 . S
C136 C135 1.387 . S
C136 C139 1.387 . S
H137 C133 0.950 . S
H138 C135 0.950 . S
C139 C130 1.390 . S
C139 H132 0.950 . S
C139 C136 1.387 . S
C140 C141 1.387 . S
C140 H144 0.950 . S
C140 C149 1.390 . S
C141 C140 1.387 . S
C141 C143 1.387 . S
H142 C149 0.950 . S
C143 C141 1.387 . S
C143 C145 1.390 . S
C143 H147 0.950 . S
H144 C140 0.950 . S
C145 C143 1.390 . S
C145 C146 1.387 . S
C145 H148 0.950 . S
C146 C145 1.387 . S
C146 C149 1.387 . S
H147 C143 0.950 . S
H148 C145 0.950 . S
C149 C140 1.390 . S
C149 H142 0.950 . S
C149 C146 1.387 . S
C150 C151 1.387 . S
C150 H154 0.950 . S
C150 C159 1.390 . S
C151 C150 1.387 . S
C151 C153 1.387 . S
H152 C159 0.950 . S
C153 C151 1.387 . S
C153 C155 1.390 . S
C153 H157 0.950 . S
H154 C150 0.950 . S
C155 C153 1.390 . S
C155 C156 1.387 . S
C155 H158 0.950 . S
C156 C155 1.387 . S
C156 C159 1.387 . S
H157 C153 0.950 . S
H158 C155 0.950 . S
C159 C150 1.390 . S
C159 H152 0.950 . S
C159 C156 1.387 . S
C160 C161 1.387 . S
C160 H164 0.950 . S
C160 C169 1.390 . S
C161 C160 1.387 . S
C161 C163 1.387 1_554 S
H162 C169 0.950 . S
C163 C161 1.387 1_556 S
C163 C165 1.390 . S
C163 H167 0.950 . S
H164 C160 0.950 . S
C165 C163 1.390 . S
C165 C166 1.387 . S
C165 H168 0.950 . S
C166 C165 1.387 . S
C166 C169 1.387 1_556 S
H167 C163 0.950 . S
H168 C165 0.950 . S
C169 C160 1.390 . S
C169 H162 0.950 . S
C169 C166 1.387 1_554 S
C170 C171 1.387 1_556 S
C170 H174 0.950 . S
C170 C179 1.390 . S
C171 C170 1.387 1_554 S
C171 C173 1.387 . S
H172 C179 0.950 . S
C173 C171 1.387 . S
C173 C175 1.390 . S
C173 H177 0.950 . S
H174 C170 0.950 . S
C175 C173 1.390 . S
C175 C176 1.387 1_554 S
C175 H178 0.950 . S
C176 C175 1.387 1_556 S
C176 C179 1.387 . S
H177 C173 0.950 . S
H178 C175 0.950 . S
C179 C170 1.390 . S
C179 H172 0.950 . S
C179 C176 1.387 . S
C180 C181 1.387 1_554 S
C180 H184 0.950 . S
C180 C189 1.390 . S
C181 C180 1.387 1_556 S
C181 C183 1.387 . S
H182 C189 0.950 . S
C183 C181 1.387 . S
C183 C185 1.390 . S
C183 H187 0.950 . S
H184 C180 0.950 . S
C185 C183 1.390 . S
C185 C186 1.387 1_556 S
C185 H188 0.950 . S
C186 C185 1.387 1_554 S
C186 C189 1.387 . S
H187 C183 0.950 . S
H188 C185 0.950 . S
C189 C180 1.390 . S
C189 H182 0.950 . S
C189 C186 1.387 . S
C190 C191 1.387 . S
C190 H194 0.950 . S
C190 C199 1.390 . S
C191 C190 1.387 . S
C191 C193 1.387 . S
H192 C199 0.950 . S
C193 C191 1.387 . S
C193 C195 1.390 1_556 S
C193 H197 0.950 . S
H194 C190 0.950 . S
C195 C193 1.390 1_554 S
C195 C196 1.387 . S
C195 H198 0.950 . S
C196 C195 1.387 . S
C196 C199 1.387 1_554 S
H197 C193 0.950 . S
H198 C195 0.950 . S
C199 C190 1.390 . S
C199 H192 0.950 . S
C199 C196 1.387 1_556 S
C81 C59 1.915 1_455 S
C86 C19 1.915 1_455 S
C91 C38 2.123 . S
C96 C78 2.123 . S
C101 C79 1.915 . S
C106 C39 1.915 . S
C111 C18 2.120 1_655 S
C116 C58 2.120 1_655 S
C121 C62 1.439 . S
C126 C12 1.490 . S
C131 C52 1.487 . S
C136 C22 1.435 . S
C141 C42 1.439 . S
C146 C32 1.490 . S
C151 C2 1.435 . S
C156 C72 1.487 . S
C161 C69 1.086 . S
C166 C4 0.991 1_556 S
C171 C44 0.993 1_554 S
C176 C29 1.087 . S
C181 C24 0.992 1_556 S
C186 C49 1.086 . S
C191 C9 1.087 . S
C196 C64 0.993 1_554 S
