# Generated by pormake.
# Topology uki, (4)-cn, num edge types: 1
# Building blocks:
#     Node 0, Type 0, BuildingBlock: MUDLON_clean_sbu_0, # of connection points: 4
#     Node 1, Type 0, BuildingBlock: MUDLON_clean_sbu_0, # of connection points: 4
#     Node 2, Type 0, BuildingBlock: MUDLON_clean_sbu_0, # of connection points: 4
#     Node 3, Type 0, BuildingBlock: MUDLON_clean_sbu_0, # of connection points: 4
#     Node 4, Type 0, BuildingBlock: MUDLON_clean_sbu_0, # of connection points: 4
#     Node 5, Type 0, BuildingBlock: MUDLON_clean_sbu_0, # of connection points: 4
#     Node 6, Type 0, BuildingBlock: MUDLON_clean_sbu_0, # of connection points: 4
#     Node 7, Type 0, BuildingBlock: MUDLON_clean_sbu_0, # of connection points: 4
#     Node 8, Type 0, BuildingBlock: MUDLON_clean_sbu_0, # of connection points: 4
#     Node 9, Type 0, BuildingBlock: MUDLON_clean_sbu_0, # of connection points: 4
#     Node 10, Type 0, BuildingBlock: MUDLON_clean_sbu_0, # of connection points: 4
#     Node 11, Type 0, BuildingBlock: MUDLON_clean_sbu_0, # of connection points: 4
#     Node 12, Type 0, BuildingBlock: MUDLON_clean_sbu_0, # of connection points: 4
#     Node 13, Type 0, BuildingBlock: MUDLON_clean_sbu_0, # of connection points: 4
#     Node 14, Type 0, BuildingBlock: MUDLON_clean_sbu_0, # of connection points: 4
#     Node 15, Type 0, BuildingBlock: MUDLON_clean_sbu_0, # of connection points: 4
#     Edge 16, Type (0, 0), None
#     Edge 17, Type (0, 0), None
#     Edge 18, Type (0, 0), None
#     Edge 19, Type (0, 0), None
#     Edge 20, Type (0, 0), None
#     Edge 21, Type (0, 0), None
#     Edge 22, Type (0, 0), None
#     Edge 23, Type (0, 0), None
#     Edge 24, Type (0, 0), None
#     Edge 25, Type (0, 0), None
#     Edge 26, Type (0, 0), None
#     Edge 27, Type (0, 0), None
#     Edge 28, Type (0, 0), None
#     Edge 29, Type (0, 0), None
#     Edge 30, Type (0, 0), None
#     Edge 31, Type (0, 0), None
#     Edge 32, Type (0, 0), None
#     Edge 33, Type (0, 0), None
#     Edge 34, Type (0, 0), None
#     Edge 35, Type (0, 0), None
#     Edge 36, Type (0, 0), None
#     Edge 37, Type (0, 0), None
#     Edge 38, Type (0, 0), None
#     Edge 39, Type (0, 0), None
#     Edge 40, Type (0, 0), None
#     Edge 41, Type (0, 0), None
#     Edge 42, Type (0, 0), None
#     Edge 43, Type (0, 0), None
#     Edge 44, Type (0, 0), None
#     Edge 45, Type (0, 0), None
#     Edge 46, Type (0, 0), None
#     Edge 47, Type (0, 0), None
# Relax obj value: 0.065
# Max RMSD: 0.233
# Mean RMSD: 0.233
data_MOF--net-uki--node1-MUDLON_clean_sbu_0--edge1-none
_symmetry_space_group_name_H-M    P1
_symmetry_Int_Tables_number       1
_symmetry_cell_setting            triclinic
loop_
_symmetry_equiv_pos_as_xyz
'x, y, z'
_cell_length_a     14.307799
_cell_length_b     15.654863
_cell_length_c     33.443752
_cell_angle_alpha  90.00202
_cell_angle_beta   87.551275
_cell_angle_gamma 90.000183
loop_
_atom_site_label
_atom_site_type_symbol
_atom_site_fract_x
_atom_site_fract_y
_atom_site_fract_z
_atom_type_partial_charge
Mg0 Mg 0.12177 0.21951 0.32028 0.0
C1 C 0.91242 0.25702 0.31623 0.0
O2 O 0.90252 0.17576 0.3251 0.0
C3 C 0.27406 0.23667 0.37996 0.0
O4 O 0.32682 0.23175 0.34695 0.0
C5 C 0.18804 0.31769 0.24627 0.0
O6 O 0.09764 0.32279 0.24136 0.0
O7 O 0.21791 0.27257 0.27469 0.0
O8 O 0.9932 0.29101 0.31566 0.0
O9 O 0.08783 0.08591 0.31209 0.0
C10 C 0.0687 0.04466 0.3441 0.0
O11 O 0.07485 0.08316 0.37876 0.0
O12 O 0.18541 0.23528 0.37798 0.0
Mg13 Mg 0.27972 0.93333 0.73327 0.0
C14 C 0.33118 0.11933 0.73865 0.0
O15 O 0.24703 0.1225 0.75585 0.0
C16 C 0.31239 0.7763 0.67895 0.0
O17 O 0.36189 0.74899 0.70851 0.0
C18 C 0.33807 0.80292 0.7974 0.0
O19 O 0.25712 0.76576 0.7924 0.0
O20 O 0.35908 0.87083 0.77836 0.0
O21 O 0.35945 0.04991 0.72253 0.0
O22 O 0.13782 0.96551 0.75334 0.0
C23 C 0.08956 1.00143 0.72714 0.0
O24 O 0.12765 0.01543 0.6913 0.0
O25 O 0.27437 0.8499 0.68091 0.0
Mg26 Mg 0.97632 0.78709 0.31708 0.0
C27 C 0.18426 0.74368 0.30215 0.0
O28 O 0.19808 0.8245 0.31051 0.0
C29 C 0.81964 0.76762 0.3796 0.0
O30 O 0.77034 0.77356 0.3475 0.0
C31 C 0.89955 0.68393 0.24936 0.0
O32 O 0.98873 0.66873 0.24158 0.0
O33 O 0.87577 0.73932 0.27567 0.0
O34 O 0.10239 0.7122 0.30613 0.0
O35 O 1.01369 0.9207 0.31097 0.0
C36 C 1.0392 0.95528 0.3431 0.0
O37 O 1.03782 0.91019 0.37622 0.0
O38 O 0.90866 0.76904 0.37614 0.0
Mg39 Mg 0.79175 0.06593 0.70771 0.0
C40 C 0.75201 0.88054 0.72712 0.0
O41 O 0.83957 0.88329 0.73716 0.0
C42 C 0.79546 0.22048 0.65446 0.0
O43 O 0.84797 0.2471 0.68318 0.0
C44 C 0.75594 0.19556 0.77825 0.0
O45 O 0.83786 0.22979 0.76915 0.0
O46 O 0.72892 0.13032 0.75942 0.0
O47 O 0.71707 0.94461 0.70975 0.0
O48 O 0.94183 0.04579 0.70656 0.0
C49 C 0.99097 0.02295 0.73544 0.0
O50 O 0.9521 0.01294 0.77142 0.0
O51 O 0.76142 0.1453 0.65614 0.0
Mg52 Mg 0.11624 0.28707 0.98188 0.0
C53 C 0.90829 0.24367 0.99681 0.0
O54 O 0.89449 0.32449 0.98846 0.0
C55 C 0.27292 0.26762 0.91936 0.0
O56 O 0.32222 0.27359 0.95145 0.0
C57 C 0.19301 0.18393 0.0496 0.0
O58 O 0.10383 0.16873 0.05738 0.0
O59 O 0.21679 0.23931 1.02329 0.0
O60 O 0.99016 0.21219 0.99283 0.0
O61 O 0.07887 0.42068 0.98799 0.0
C62 C 0.05336 0.45527 0.95585 0.0
O63 O 0.05475 0.41017 0.92274 0.0
O64 O 0.18389 0.26902 0.92281 0.0
Mg65 Mg 0.31382 0.93371 0.06566 0.0
C66 C 0.26222 0.11968 0.06038 0.0
O67 O 0.34643 0.12299 0.04326 0.0
C68 C 0.28014 0.77691 0.12005 0.0
O69 O 0.22942 0.7503 0.09075 0.0
C70 C 0.25559 0.80297 1.00173 0.0
O71 O 0.3362 0.76551 1.0071 0.0
O72 O 0.2347 0.87127 1.02048 0.0
O73 O 0.23393 0.05019 0.07644 0.0
O74 O 0.4557 0.96605 0.04563 0.0
C75 C 0.50398 0.00183 0.07187 0.0
O76 O 0.46594 0.01561 0.10773 0.0
O77 O 0.31919 0.85005 0.11793 0.0
Mg78 Mg 0.97078 0.71949 0.97867 0.0
C79 C 0.18013 0.75701 0.98271 0.0
O80 O 0.19006 0.67575 0.97385 0.0
C81 C 0.81849 0.73667 0.91899 0.0
O82 O 0.76572 0.73179 0.95201 0.0
C83 C 0.90451 0.81768 0.05268 0.0
O84 O 0.99491 0.82279 0.05759 0.0
O85 O 0.87464 0.77256 1.02427 0.0
O86 O 0.09935 0.791 0.98329 0.0
O87 O 1.00472 0.5859 0.98687 0.0
C88 C 1.02386 0.54465 0.95486 0.0
O89 O 1.01772 0.58314 0.9202 0.0
O90 O 0.90713 0.73525 0.92098 0.0
Mg91 Mg 0.80178 0.06645 0.09122 0.0
C92 C 0.84167 0.88115 0.07177 0.0
O93 O 0.75415 0.88391 0.06168 0.0
C94 C 0.79699 0.22083 0.14455 0.0
O95 O 0.74327 0.24673 0.11611 0.0
C96 C 0.83751 0.19626 1.02081 0.0
O97 O 0.75592 0.23086 0.03018 0.0
O98 O 0.86438 0.1307 0.03943 0.0
O99 O 0.87657 0.94518 0.0892 0.0
O100 O 0.65172 0.04616 0.09245 0.0
C101 C 0.60255 0.02343 0.06356 0.0
O102 O 0.64135 0.01365 0.02756 0.0
O103 O 0.83215 0.14609 0.1427 0.0
Mg104 Mg 0.62292 0.71909 0.82026 0.0
C105 C 0.41355 0.75697 0.81641 0.0
O106 O 0.4034 0.67586 0.82553 0.0
C107 C 0.77521 0.73666 0.87993 0.0
O108 O 0.828 0.73212 0.84691 0.0
C109 C 0.6892 0.81704 0.74621 0.0
O110 O 0.59881 0.82213 0.74129 0.0
O111 O 0.7191 0.772 0.77464 0.0
O112 O 0.49445 0.79073 0.8156 0.0
O113 O 0.58883 0.58552 0.81208 0.0
C114 C 0.56978 0.54425 0.84409 0.0
O115 O 0.57606 0.58273 0.87875 0.0
O116 O 0.68657 0.73489 0.87795 0.0
Mg117 Mg 0.77872 0.43372 0.2333 0.0
C118 C 0.83033 0.61968 0.23858 0.0
O119 O 0.74612 0.62301 0.2557 0.0
C120 C 0.81241 0.27692 0.1789 0.0
O121 O 0.86314 0.25031 0.20821 0.0
C122 C 0.83695 0.30298 0.29722 0.0
O123 O 0.75635 0.26548 0.29186 0.0
O124 O 0.85784 0.37128 0.27848 0.0
O125 O 0.85862 0.55019 0.22252 0.0
O126 O 0.63685 0.46607 0.25333 0.0
C127 C 0.58857 0.50184 0.22709 0.0
O128 O 0.62661 0.5156 0.19123 0.0
O129 O 0.77335 0.35005 0.18103 0.0
Mg130 Mg 0.47724 0.28671 0.8171 0.0
C131 C 0.68521 0.243 0.80226 0.0
O132 O 0.69927 0.32371 0.81078 0.0
C133 C 0.3206 0.2676 0.87964 0.0
O134 O 0.27132 0.2738 0.84755 0.0
C135 C 0.40035 0.18366 0.74938 0.0
O136 O 0.48952 0.16854 0.74152 0.0
O137 O 0.3766 0.23896 0.77573 0.0
O138 O 0.60322 0.21171 0.80611 0.0
O139 O 0.5147 0.42029 0.81098 0.0
C140 C 0.54025 0.45488 0.8431 0.0
O141 O 0.53887 0.4098 0.87622 0.0
O142 O 0.40963 0.26874 0.87618 0.0
Mg143 Mg 0.29078 0.56645 0.20773 0.0
C144 C 0.25088 0.38115 0.22719 0.0
O145 O 0.3384 0.38392 0.23728 0.0
C146 C 0.29555 0.72083 0.15441 0.0
O147 O 0.34925 0.74674 0.18285 0.0
C148 C 0.25504 0.69627 0.27815 0.0
O149 O 0.33664 0.73086 0.26878 0.0
O150 O 0.22817 0.63071 0.25952 0.0
O151 O 0.21598 0.44518 0.20976 0.0
O152 O 0.44083 0.54616 0.20651 0.0
C153 C 0.49 0.52344 0.23539 0.0
O154 O 0.4512 0.51367 0.2714 0.0
O155 O 0.2604 0.64609 0.15626 0.0
Mg156 Mg 0.61532 0.78669 0.48186 0.0
C157 C 0.40736 0.74298 0.4967 0.0
O158 O 0.39333 0.82369 0.48819 0.0
C159 C 0.77196 0.7676 0.41932 0.0
O160 O 0.82124 0.77383 0.45141 0.0
C161 C 0.69223 0.68363 0.54957 0.0
O162 O 0.60306 0.66852 0.55741 0.0
O163 O 0.71597 0.73896 0.52323 0.0
O164 O 0.48934 0.71169 0.49285 0.0
O165 O 0.57785 0.92028 0.48798 0.0
C166 C 0.55231 0.95486 0.45586 0.0
O167 O 0.55369 0.90977 0.42274 0.0
O168 O 0.68293 0.76871 0.42278 0.0
Mg169 Mg 0.81284 0.43332 0.56568 0.0
C170 C 0.76142 0.61933 0.56031 0.0
O171 O 0.84557 0.62254 0.54313 0.0
C172 C 0.78016 0.27629 0.62001 0.0
O173 O 0.73068 0.24897 0.59044 0.0
C174 C 0.75448 0.3029 0.50156 0.0
O175 O 0.83543 0.26574 0.50655 0.0
O176 O 0.73347 0.37081 0.52059 0.0
O177 O 0.73311 0.5499 0.57642 0.0
O178 O 0.95474 0.46548 0.54561 0.0
C179 C 1.003 0.50141 0.57182 0.0
O180 O 0.96491 0.51542 0.60765 0.0
O181 O 0.81817 0.3499 0.61805 0.0
Mg182 Mg 0.46962 0.21906 0.4787 0.0
C183 C 0.679 0.25695 0.48255 0.0
O184 O 0.68915 0.17584 0.47342 0.0
C185 C 0.31734 0.23666 0.41902 0.0
O186 O 0.26455 0.23216 0.45204 0.0
C187 C 0.40333 0.31704 0.55275 0.0
O188 O 0.49373 0.32212 0.55765 0.0
O189 O 0.37344 0.27197 0.52432 0.0
O190 O 0.59809 0.29071 0.48335 0.0
O191 O 0.50372 0.0855 0.48688 0.0
C192 C 0.52277 0.04423 0.45486 0.0
O193 O 0.51649 0.0827 0.42021 0.0
O194 O 0.40598 0.23485 0.421 0.0
Mg195 Mg 0.30081 0.56593 0.59124 0.0
C196 C 0.34052 0.38052 0.57184 0.0
O197 O 0.25295 0.38323 0.56181 0.0
C198 C 0.29709 0.72048 0.64449 0.0
O199 O 0.24457 0.74709 0.61577 0.0
C200 C 0.3366 0.69554 0.52071 0.0
O201 O 0.2547 0.72981 0.52981 0.0
O202 O 0.36363 0.63031 0.53953 0.0
O203 O 0.37548 0.4446 0.5892 0.0
O204 O 0.15072 0.54579 0.59239 0.0
C205 C 0.10159 0.52292 0.56351 0.0
O206 O 0.14046 0.51289 0.52754 0.0
O207 O 0.33114 0.6453 0.64281 0.0
loop_
_geom_bond_atom_site_label_1
_geom_bond_atom_site_label_2
_geom_bond_distance
_geom_bond_site_symmetry_2
_ccdc_geom_bond_type
Mg0 O7 2.141 . S
Mg0 O8 2.048 . S
Mg0 O9 2.048 . S
Mg0 O12 2.141 . S
C1 O2 1.313 . S
C1 O8 1.195 1_655 S
O2 C1 1.313 . S
C3 O4 1.245 . S
C3 O12 1.289 . S
O4 C3 1.245 . S
C5 O6 1.245 . S
C5 O7 1.289 . S
O6 C5 1.245 . S
O7 Mg0 2.141 . S
O7 C5 1.289 . S
O8 Mg0 2.048 . S
O8 C1 1.195 1_455 S
O9 Mg0 2.048 . S
O9 C10 1.195 . S
C10 O9 1.195 . S
C10 O11 1.313 1_455 S
O11 C10 1.313 1_655 S
O12 Mg0 2.141 . S
O12 C3 1.289 . S
Mg13 O20 2.141 . S
Mg13 O21 2.048 1_565 S
Mg13 O22 2.048 . S
Mg13 O25 2.141 . S
C14 O15 1.318 . S
C14 O21 1.195 . S
O15 C14 1.318 . S
C16 O17 1.245 . S
C16 O25 1.289 . S
O17 C16 1.245 . S
C18 O19 1.245 . S
C18 O20 1.289 . S
O19 C18 1.245 . S
O20 Mg13 2.141 . S
O20 C18 1.289 . S
O21 Mg13 2.048 1_545 S
O21 C14 1.195 . S
O22 Mg13 2.048 . S
O22 C23 1.195 . S
C23 O22 1.195 . S
C23 O24 1.313 . S
O24 C23 1.313 . S
O25 Mg13 2.141 . S
O25 C16 1.289 . S
Mg26 O33 2.141 . S
Mg26 O34 2.048 . S
Mg26 O35 2.048 . S
Mg26 O38 2.141 . S
C27 O28 1.313 . S
C27 O34 1.195 1_455 S
O28 C27 1.313 . S
C29 O30 1.245 . S
C29 O38 1.289 . S
O30 C29 1.245 . S
C31 O32 1.245 . S
C31 O33 1.289 . S
O32 C31 1.245 . S
O33 Mg26 2.141 . S
O33 C31 1.289 . S
O34 Mg26 2.048 . S
O34 C27 1.195 1_655 S
O35 Mg26 2.048 . S
O35 C36 1.195 . S
C36 O35 1.195 . S
C36 O37 1.313 1_655 S
O37 C36 1.313 1_455 S
O38 Mg26 2.141 . S
O38 C29 1.289 . S
Mg39 O46 2.141 . S
Mg39 O47 2.048 1_545 S
Mg39 O48 2.048 . S
Mg39 O51 2.141 . S
C40 O41 1.318 . S
C40 O47 1.195 . S
O41 C40 1.318 . S
C42 O43 1.245 . S
C42 O51 1.289 . S
O43 C42 1.245 . S
C44 O45 1.245 . S
C44 O46 1.289 . S
O45 C44 1.245 . S
O46 Mg39 2.141 . S
O46 C44 1.289 . S
O47 Mg39 2.048 1_565 S
O47 C40 1.195 . S
O48 Mg39 2.048 . S
O48 C49 1.195 . S
C49 O48 1.195 . S
C49 O50 1.313 . S
O50 C49 1.313 . S
O51 Mg39 2.141 . S
O51 C42 1.289 . S
Mg52 O59 2.141 . S
Mg52 O60 2.048 1_556 S
Mg52 O61 2.048 . S
Mg52 O64 2.141 . S
C53 O54 1.313 1_554 S
C53 O60 1.195 1_655 S
O54 C53 1.313 1_556 S
C55 O56 1.245 . S
C55 O64 1.289 . S
O56 C55 1.245 . S
C57 O58 1.245 . S
C57 O59 1.289 . S
O58 C57 1.245 . S
O59 Mg52 2.141 . S
O59 C57 1.289 . S
O60 Mg52 2.048 1_554 S
O60 C53 1.195 1_455 S
O61 Mg52 2.048 . S
O61 C62 1.195 . S
C62 O61 1.195 . S
C62 O63 1.313 1_455 S
O63 C62 1.313 1_655 S
O64 Mg52 2.141 . S
O64 C55 1.289 . S
Mg65 O72 2.141 . S
Mg65 O73 2.048 1_565 S
Mg65 O74 2.048 . S
Mg65 O77 2.141 . S
C66 O67 1.318 . S
C66 O73 1.195 1_556 S
O67 C66 1.318 . S
C68 O69 1.245 . S
C68 O77 1.289 . S
O69 C68 1.245 . S
C70 O71 1.245 1_554 S
C70 O72 1.289 . S
O71 C70 1.245 1_556 S
O72 Mg65 2.141 . S
O72 C70 1.289 . S
O73 Mg65 2.048 1_545 S
O73 C66 1.195 1_554 S
O74 Mg65 2.048 . S
O74 C75 1.195 . S
C75 O74 1.195 . S
C75 O76 1.313 . S
O76 C75 1.313 . S
O77 Mg65 2.141 . S
O77 C68 1.289 . S
Mg78 O85 2.141 . S
Mg78 O86 2.048 1_556 S
Mg78 O87 2.048 . S
Mg78 O90 2.141 . S
C79 O80 1.313 1_554 S
C79 O86 1.195 1_455 S
O80 C79 1.313 1_556 S
C81 O82 1.245 . S
C81 O90 1.289 . S
O82 C81 1.245 . S
C83 O84 1.245 . S
C83 O85 1.289 . S
O84 C83 1.245 . S
O85 Mg78 2.141 . S
O85 C83 1.289 . S
O86 Mg78 2.048 1_554 S
O86 C79 1.195 1_655 S
O87 Mg78 2.048 . S
O87 C88 1.195 . S
C88 O87 1.195 . S
C88 O89 1.313 1_655 S
O89 C88 1.313 1_455 S
O90 Mg78 2.141 . S
O90 C81 1.289 . S
Mg91 O98 2.141 . S
Mg91 O99 2.048 1_545 S
Mg91 O100 2.048 . S
Mg91 O103 2.141 . S
C92 O93 1.318 . S
C92 O99 1.195 1_556 S
O93 C92 1.318 . S
C94 O95 1.245 . S
C94 O103 1.289 . S
O95 C94 1.245 . S
C96 O97 1.245 1_554 S
C96 O98 1.289 . S
O97 C96 1.245 1_556 S
O98 Mg91 2.141 . S
O98 C96 1.289 . S
O99 Mg91 2.048 1_565 S
O99 C92 1.195 1_554 S
O100 Mg91 2.048 . S
O100 C101 1.195 . S
C101 O100 1.195 . S
C101 O102 1.313 . S
O102 C101 1.313 . S
O103 Mg91 2.141 . S
O103 C94 1.289 . S
Mg104 O111 2.141 . S
Mg104 O112 2.048 . S
Mg104 O113 2.048 . S
Mg104 O116 2.141 . S
C105 O106 1.313 . S
C105 O112 1.195 . S
O106 C105 1.313 . S
C107 O108 1.245 . S
C107 O116 1.289 . S
O108 C107 1.245 . S
C109 O110 1.245 . S
C109 O111 1.289 . S
O110 C109 1.245 . S
O111 Mg104 2.141 . S
O111 C109 1.289 . S
O112 Mg104 2.048 . S
O112 C105 1.195 . S
O113 Mg104 2.048 . S
O113 C114 1.195 . S
C114 O113 1.195 . S
C114 O115 1.313 . S
O115 C114 1.313 . S
O116 Mg104 2.141 . S
O116 C107 1.289 . S
Mg117 O124 2.141 . S
Mg117 O125 2.048 . S
Mg117 O126 2.048 . S
Mg117 O129 2.141 . S
C118 O119 1.313 . S
C118 O125 1.195 . S
O119 C118 1.313 . S
C120 O121 1.245 . S
C120 O129 1.289 . S
O121 C120 1.245 . S
C122 O123 1.245 . S
C122 O124 1.289 . S
O123 C122 1.245 . S
O124 Mg117 2.141 . S
O124 C122 1.289 . S
O125 Mg117 2.048 . S
O125 C118 1.195 . S
O126 Mg117 2.048 . S
O126 C127 1.195 . S
C127 O126 1.195 . S
C127 O128 1.313 . S
O128 C127 1.313 . S
O129 Mg117 2.141 . S
O129 C120 1.289 . S
Mg130 O137 2.141 . S
Mg130 O138 2.048 . S
Mg130 O139 2.048 . S
Mg130 O142 2.141 . S
C131 O132 1.313 . S
C131 O138 1.195 . S
O132 C131 1.313 . S
C133 O134 1.245 . S
C133 O142 1.289 . S
O134 C133 1.245 . S
C135 O136 1.245 . S
C135 O137 1.289 . S
O136 C135 1.245 . S
O137 Mg130 2.141 . S
O137 C135 1.289 . S
O138 Mg130 2.048 . S
O138 C131 1.195 . S
O139 Mg130 2.048 . S
O139 C140 1.195 . S
C140 O139 1.195 . S
C140 O141 1.313 . S
O141 C140 1.313 . S
O142 Mg130 2.141 . S
O142 C133 1.289 . S
Mg143 O150 2.141 . S
Mg143 O151 2.048 . S
Mg143 O152 2.048 . S
Mg143 O155 2.141 . S
C144 O145 1.313 . S
C144 O151 1.195 . S
O145 C144 1.313 . S
C146 O147 1.245 . S
C146 O155 1.289 . S
O147 C146 1.245 . S
C148 O149 1.245 . S
C148 O150 1.289 . S
O149 C148 1.245 . S
O150 Mg143 2.141 . S
O150 C148 1.289 . S
O151 Mg143 2.048 . S
O151 C144 1.195 . S
O152 Mg143 2.048 . S
O152 C153 1.195 . S
C153 O152 1.195 . S
C153 O154 1.313 . S
O154 C153 1.313 . S
O155 Mg143 2.141 . S
O155 C146 1.289 . S
Mg156 O163 2.141 . S
Mg156 O164 2.048 . S
Mg156 O165 2.048 . S
Mg156 O168 2.141 . S
C157 O158 1.313 . S
C157 O164 1.195 . S
O158 C157 1.313 . S
C159 O160 1.245 . S
C159 O168 1.289 . S
O160 C159 1.245 . S
C161 O162 1.245 . S
C161 O163 1.289 . S
O162 C161 1.245 . S
O163 Mg156 2.141 . S
O163 C161 1.289 . S
O164 Mg156 2.048 . S
O164 C157 1.195 . S
O165 Mg156 2.048 . S
O165 C166 1.195 . S
C166 O165 1.195 . S
C166 O167 1.313 . S
O167 C166 1.313 . S
O168 Mg156 2.141 . S
O168 C159 1.289 . S
Mg169 O176 2.141 . S
Mg169 O177 2.048 . S
Mg169 O178 2.048 . S
Mg169 O181 2.141 . S
C170 O171 1.313 . S
C170 O177 1.195 . S
O171 C170 1.313 . S
C172 O173 1.245 . S
C172 O181 1.289 . S
O173 C172 1.245 . S
C174 O175 1.245 . S
C174 O176 1.289 . S
O175 C174 1.245 . S
O176 Mg169 2.141 . S
O176 C174 1.289 . S
O177 Mg169 2.048 . S
O177 C170 1.195 . S
O178 Mg169 2.048 . S
O178 C179 1.195 . S
C179 O178 1.195 . S
C179 O180 1.313 . S
O180 C179 1.313 . S
O181 Mg169 2.141 . S
O181 C172 1.289 . S
Mg182 O189 2.141 . S
Mg182 O190 2.048 . S
Mg182 O191 2.048 . S
Mg182 O194 2.141 . S
C183 O184 1.313 . S
C183 O190 1.195 . S
O184 C183 1.313 . S
C185 O186 1.245 . S
C185 O194 1.289 . S
O186 C185 1.245 . S
C187 O188 1.245 . S
C187 O189 1.289 . S
O188 C187 1.245 . S
O189 Mg182 2.141 . S
O189 C187 1.289 . S
O190 Mg182 2.048 . S
O190 C183 1.195 . S
O191 Mg182 2.048 . S
O191 C192 1.195 . S
C192 O191 1.195 . S
C192 O193 1.313 . S
O193 C192 1.313 . S
O194 Mg182 2.141 . S
O194 C185 1.289 . S
Mg195 O202 2.141 . S
Mg195 O203 2.048 . S
Mg195 O204 2.048 . S
Mg195 O207 2.141 . S
C196 O197 1.313 . S
C196 O203 1.195 . S
O197 C196 1.313 . S
C198 O199 1.245 . S
C198 O207 1.289 . S
O199 C198 1.245 . S
C200 O201 1.245 . S
C200 O202 1.289 . S
O201 C200 1.245 . S
O202 Mg195 2.141 . S
O202 C200 1.289 . S
O203 Mg195 2.048 . S
O203 C196 1.195 . S
O204 Mg195 2.048 . S
O204 C205 1.195 . S
C205 O204 1.195 . S
C205 O206 1.313 . S
O206 C205 1.313 . S
O207 Mg195 2.141 . S
O207 C198 1.289 . S
C5 C144 1.920 . S
C105 C18 1.722 . S
C118 C31 1.920 . S
C131 C44 1.722 . S
C66 C57 1.920 . S
C70 C79 1.722 . S
C83 C92 1.920 . S
C96 C53 1.722 . S
C109 C40 1.920 . S
C1 C122 1.722 . S
C14 C135 1.920 . S
C27 C148 1.722 . S
C170 C161 1.920 . S
C174 C183 1.722 . S
C196 C187 1.920 . S
C157 C200 1.722 . S
C185 C3 2.012 . S
C198 C16 2.504 . S
C159 C29 2.012 . S
C42 C172 2.504 . S
C55 C133 2.012 . S
C146 C68 2.504 . S
C81 C107 2.012 . S
C94 C120 2.504 . S
C36 C10 1.704 1_665 S
C49 C23 1.564 1_645 S
C62 C88 1.704 1_455 S
C75 C101 1.564 1_565 S
C140 C114 1.704 . S
C127 C153 1.564 . S
C192 C166 1.704 1_545 S
C179 C205 1.564 1_655 S
