# Generated by pormake.
# Topology pcu, (6)-cn, num edge types: 1
# Building blocks:
#     Node 0, Type 0, BuildingBlock: PAMTUU_clean_sbu_0, # of connection points: 6
#     Edge 1, Type (0, 0), BuildingBlock: KIFKEQ_clean_linker_1, # of connection points: 2
#     Edge 2, Type (0, 0), BuildingBlock: KIFKEQ_clean_linker_1, # of connection points: 2
#     Edge 3, Type (0, 0), BuildingBlock: KIFKEQ_clean_linker_1, # of connection points: 2
# Relax obj value: 0.000
# Max RMSD: 0.000
# Mean RMSD: 0.000
data_MOF--net-pcu--node1-PAMTUU_clean_sbu_0--edge1-KIFKEQ_clean_linker_1
_symmetry_space_group_name_H-M    P1
_symmetry_Int_Tables_number       1
_symmetry_cell_setting            triclinic
loop_
_symmetry_equiv_pos_as_xyz
'x, y, z'
_cell_length_a     25.70249
_cell_length_b     15.495592
_cell_length_c     15.329351
_cell_angle_alpha  86.511353
_cell_angle_beta   96.939369
_cell_angle_gamma 117.436
loop_
_atom_site_label
_atom_site_type_symbol
_atom_site_fract_x
_atom_site_fract_y
_atom_site_fract_z
_atom_type_partial_charge
Tb0 Tb 0.10598 0.04325 0.0157 0.0
Tb1 Tb 0.95954 0.93266 -0.00596 0.0
C2 C 0.03367 0.98541 0.17511 0.0
C3 C 0.26546 0.10207 0.01794 0.0
C4 C 0.35964 0.06379 0.99022 0.0
C5 C 0.36498 0.12378 0.05959 0.0
C6 C 0.31843 0.14275 0.0731 0.0
C7 C 0.25941 0.0414 0.94898 0.0
C8 C 0.30615 0.0226 0.93513 0.0
C9 C 0.21743 0.12385 0.0344 0.0
O10 O 0.08015 0.88935 0.03751 0.0
O11 O 0.98403 0.81951 0.97304 0.0
O12 O 0.98913 -0.00534 0.8672 0.0
O13 O 0.07635 0.98609 0.88351 0.0
O14 O 0.88195 0.88249 0.05494 0.0
O15 O 0.8781 0.85986 0.91649 0.0
O16 O 0.98455 0.08376 0.01917 0.0
O17 O 0.0802 0.15781 0.98276 0.0
O18 O 0.07591 0.05766 0.1376 0.0
O19 O 0.99185 0.91387 0.12795 0.0
C20 C 0.03217 0.81371 0.00504 0.0
O21 O 0.18609 0.13624 0.96587 0.0
O22 O 0.18468 0.07177 0.09514 0.0
C23 C 0.03253 -0.00942 0.83328 0.0
C24 C 0.79974 0.87846 0.96533 0.0
C25 C 0.70365 0.92193 0.95071 0.0
C26 C 0.69489 0.82785 0.93292 0.0
C27 C 0.74247 0.80642 0.94031 0.0
C28 C 0.80922 0.97337 0.98019 0.0
C29 C 0.76159 -0.00505 0.97293 0.0
C30 C 0.84793 0.85124 0.98181 0.0
C31 C 0.03232 0.1616 -6e-05 0.0
H32 H 0.40491 0.15516 0.10443 0.0
H33 H 0.32375 0.18914 0.12708 0.0
H34 H 0.21871 0.00887 0.90579 0.0
H35 H 0.30061 0.97675 0.88066 0.0
H36 H 0.65109 0.77034 0.91413 0.0
H37 H 0.73432 0.7328 0.92841 0.0
H38 H 0.85318 0.03002 -0.00023 0.0
H39 H 0.76994 0.06793 0.98776 0.0
H40 H 0.12001 0.10806 0.29484 0.0
H41 H 0.94588 0.86313 0.27369 0.0
H42 H 0.11886 0.10963 0.45345 0.0
H43 H 0.94506 0.86459 0.43279 0.0
H44 H 0.94315 0.97291 0.70694 0.0
H45 H 0.94295 0.9712 0.5476 0.0
H46 H 0.12053 0.00477 0.58192 0.0
H47 H 0.12109 0.00712 0.74075 0.0
C48 C 0.08151 0.05443 0.32397 0.0
C49 C 0.03306 0.98535 0.27157 0.0
C50 C 0.08101 0.0551 0.41494 0.0
C51 C 1.0319 0.98719 0.45555 0.0
C52 C 0.9833 0.91838 0.40321 0.0
C53 C 0.98397 0.91718 0.31218 0.0
C54 C 0.9822 0.98015 0.6805 0.0
C55 C 0.03215 -0.00971 0.73662 0.0
C56 C 0.98191 0.97853 0.58928 0.0
C57 C 1.03174 0.98791 0.55232 0.0
C58 C 0.08171 -0.00159 0.60843 0.0
C59 C 0.08185 -0.00076 0.69951 0.0
H60 H 0.47784 0.19048 0.00641 0.0
H61 H 0.35488 0.89191 0.94298 0.0
H62 H 0.55977 0.15582 -0.00675 0.0
H63 H 0.43687 0.85843 0.9256 0.0
H64 H 0.59754 0.80655 0.01325 0.0
H65 H 0.5145 0.84082 0.01651 0.0
H66 H 0.61013 0.1183 0.89036 0.0
H67 H 0.69358 0.08401 0.88747 0.0
C68 C 0.4682 0.11744 0.98935 0.0
C69 C 0.40959 0.04384 0.97649 0.0
C70 C 0.51528 0.09788 0.98063 0.0
C71 C 0.50509 0.00422 0.95854 0.0
C72 C 0.44645 0.93109 0.94385 0.0
C73 C 0.39933 0.95061 0.95275 0.0
C74 C 0.60064 0.87434 0.98504 0.0
C75 C 0.65231 0.9424 0.94988 0.0
C76 C 0.55289 0.89401 0.98688 0.0
C77 C 0.55541 0.98229 0.95357 0.0
C78 C 0.60691 0.05013 0.91772 0.0
C79 C 0.65478 0.03047 0.916 0.0
H80 H 0.12228 0.77011 0.06495 0.0
H81 H 0.94277 0.64097 0.94183 0.0
H82 H 0.12229 0.613 0.06315 0.0
H83 H 0.94339 0.48469 0.93845 0.0
H84 H 0.9436 0.20042 0.0365 0.0
H85 H 0.94418 0.35768 0.03793 0.0
H86 H 0.12121 0.49742 0.96151 0.0
H87 H 0.12123 0.34014 0.9617 0.0
C88 C 0.08286 0.70842 0.03727 0.0
C89 C 0.03244 0.71831 0.00383 0.0
C90 C 0.08304 0.61843 0.03571 0.0
C91 C 0.03283 0.53621 0.00069 0.0
C92 C 0.98252 0.54621 0.96703 0.0
C93 C 0.98231 0.6361 0.96859 0.0
C94 C 0.98269 0.2645 0.01983 0.0
C95 C 0.03239 0.2574 -0.00099 0.0
C96 C 0.98287 0.35476 0.02023 0.0
C97 C 0.03272 0.44021 -0.00022 0.0
C98 C 0.08237 0.43316 0.97869 0.0
C99 C 0.08222 0.34282 0.97829 0.0
loop_
_geom_bond_atom_site_label_1
_geom_bond_atom_site_label_2
_geom_bond_distance
_geom_bond_site_symmetry_2
_ccdc_geom_bond_type
Tb0 C9 2.764 . S
Tb0 O10 2.325 1_545 S
Tb0 O13 2.303 1_554 S
Tb0 O17 2.322 . S
Tb0 O18 2.349 . S
Tb0 O21 2.415 1_554 S
Tb0 O22 2.399 . S
Tb1 O11 2.322 . S
Tb1 O12 2.349 . S
Tb1 O14 2.415 1_556 S
Tb1 O15 2.399 . S
Tb1 O16 2.325 1_565 S
Tb1 O19 2.303 1_556 S
Tb1 C30 2.764 . S
C2 O18 1.261 . S
C2 O19 1.257 1_445 S
C3 C6 1.358 . S
C3 C7 1.332 1_544 S
C3 C9 1.504 . S
C4 C5 1.373 1_566 S
C4 C8 1.308 . S
C5 C4 1.373 1_544 S
C5 C6 1.429 . S
C5 H32 0.932 . S
C6 C3 1.358 . S
C6 C5 1.429 . S
C6 H33 0.930 . S
C7 C3 1.332 1_566 S
C7 C8 1.394 . S
C7 H34 0.932 . S
C8 C4 1.308 . S
C8 C7 1.394 . S
C8 H35 0.929 . S
C9 Tb0 2.764 . S
C9 C3 1.504 . S
C9 O21 1.239 1_554 S
C9 O22 1.263 . S
O10 Tb0 2.325 1_565 S
O10 C20 1.232 1_455 S
O11 Tb1 2.322 . S
O11 C20 1.266 1_556 S
O12 Tb1 2.349 . S
O12 C23 1.261 . S
O13 Tb0 2.303 1_556 S
O13 C23 1.257 1_445 S
O14 Tb1 2.415 1_554 S
O14 C30 1.239 1_554 S
O15 Tb1 2.399 . S
O15 C30 1.263 . S
O16 Tb1 2.325 1_545 S
O16 C31 1.229 1_655 S
O17 Tb0 2.322 . S
O17 C31 1.271 1_554 S
O18 Tb0 2.349 . S
O18 C2 1.261 . S
O19 Tb1 2.303 1_554 S
O19 C2 1.257 1_665 S
C20 O10 1.232 1_655 S
C20 O11 1.266 1_554 S
O21 Tb0 2.415 1_556 S
O21 C9 1.239 1_556 S
O22 Tb0 2.399 . S
O22 C9 1.263 . S
C23 O12 1.261 . S
C23 O13 1.257 1_665 S
C24 C27 1.358 . S
C24 C28 1.332 1_566 S
C24 C30 1.504 . S
C25 C26 1.373 1_544 S
C25 C29 1.308 . S
C26 C25 1.373 1_566 S
C26 C27 1.429 . S
C26 H36 0.932 . S
C27 C24 1.358 . S
C27 C26 1.429 . S
C27 H37 0.930 . S
C28 C24 1.332 1_544 S
C28 C29 1.394 . S
C28 H38 0.932 . S
C29 C25 1.308 . S
C29 C28 1.394 . S
C29 H39 0.929 . S
C30 Tb1 2.764 . S
C30 O14 1.239 1_556 S
C30 O15 1.263 . S
C30 C24 1.504 . S
C31 O16 1.229 1_455 S
C31 O17 1.271 1_556 S
H32 C5 0.932 . S
H33 C6 0.930 . S
H34 C7 0.932 . S
H35 C8 0.929 . S
H36 C26 0.932 . S
H37 C27 0.930 . S
H38 C28 0.932 . S
H39 C29 0.929 . S
H40 C48 0.950 . S
H41 C53 0.950 . S
H42 C50 0.950 . S
H43 C52 0.950 . S
H44 C54 0.950 . S
H45 C56 0.950 . S
H46 C58 0.950 . S
H47 C59 0.950 . S
C48 H40 0.950 . S
C48 C49 1.386 1_455 S
C48 C50 1.391 . S
C49 C48 1.386 1_655 S
C49 C53 1.393 1_545 S
C50 H42 0.950 . S
C50 C48 1.391 . S
C50 C51 1.399 1_455 S
C51 C50 1.399 1_655 S
C51 C52 1.397 1_545 S
C51 C57 1.497 1_645 S
C52 H43 0.950 . S
C52 C51 1.397 1_565 S
C52 C53 1.391 . S
C53 H41 0.950 . S
C53 C49 1.393 1_565 S
C53 C52 1.391 . S
C54 H44 0.950 . S
C54 C55 1.386 1_655 S
C54 C56 1.391 . S
C55 C54 1.386 1_455 S
C55 C59 1.393 1_565 S
C56 H45 0.950 . S
C56 C54 1.391 . S
C56 C57 1.395 1_655 S
C57 C51 1.497 1_465 S
C57 C56 1.395 1_455 S
C57 C58 1.401 1_565 S
C58 H46 0.950 . S
C58 C57 1.401 1_545 S
C58 C59 1.391 . S
C59 H47 0.950 . S
C59 C55 1.393 1_545 S
C59 C58 1.391 . S
H60 C68 0.950 . S
H61 C73 0.950 . S
H62 C70 0.950 . S
H63 C72 0.950 . S
H64 C74 0.950 . S
H65 C76 0.950 . S
H66 C78 0.950 . S
H67 C79 0.950 . S
C68 H60 0.950 . S
C68 C69 1.386 1_545 S
C68 C70 1.391 . S
C69 C68 1.386 1_565 S
C69 C73 1.393 1_554 S
C70 H62 0.950 . S
C70 C68 1.391 . S
C70 C71 1.392 1_545 S
C71 C70 1.392 1_565 S
C71 C72 1.402 1_554 S
C71 C77 1.501 1_564 S
C72 H63 0.950 . S
C72 C71 1.402 1_556 S
C72 C73 1.391 . S
C73 H61 0.950 . S
C73 C69 1.393 1_556 S
C73 C72 1.391 . S
C74 H64 0.950 . S
C74 C75 1.386 1_565 S
C74 C76 1.391 . S
C75 C74 1.386 1_545 S
C75 C79 1.393 1_556 S
C76 H65 0.950 . S
C76 C74 1.391 . S
C76 C77 1.389 1_565 S
C77 C71 1.501 1_546 S
C77 C76 1.389 1_545 S
C77 C78 1.404 1_556 S
C78 H66 0.950 . S
C78 C77 1.404 1_554 S
C78 C79 1.391 . S
C79 H67 0.950 . S
C79 C75 1.393 1_554 S
C79 C78 1.391 . S
H80 C88 0.950 . S
H81 C93 0.950 . S
H82 C90 0.950 . S
H83 C92 0.950 . S
H84 C94 0.950 . S
H85 C96 0.950 . S
H86 C98 0.950 . S
H87 C99 0.950 . S
C88 H80 0.950 . S
C88 C89 1.393 1_455 S
C88 C90 1.391 . S
C89 C88 1.393 1_655 S
C89 C93 1.384 1_554 S
C90 H82 0.950 . S
C90 C88 1.391 . S
C90 C91 1.406 1_455 S
C91 C90 1.406 1_655 S
C91 C92 1.406 1_554 S
C91 C97 1.478 1_654 S
C92 H83 0.950 . S
C92 C91 1.406 1_556 S
C92 C93 1.391 . S
C93 H81 0.950 . S
C93 C89 1.384 1_556 S
C93 C92 1.391 . S
C94 H84 0.950 . S
C94 C95 1.391 1_655 S
C94 C96 1.391 . S
C95 C94 1.391 1_455 S
C95 C99 1.386 1_556 S
C96 H85 0.950 . S
C96 C94 1.391 . S
C96 C97 1.403 1_655 S
C97 C91 1.478 1_456 S
C97 C96 1.403 1_455 S
C97 C98 1.396 1_556 S
C98 H86 0.950 . S
C98 C97 1.396 1_554 S
C98 C99 1.391 . S
C99 H87 0.950 . S
C99 C95 1.386 1_554 S
C99 C98 1.391 . S
C49 C2 1.474 1_655 S
C55 C23 1.474 1_455 S
C69 C4 1.499 1_554 S
C75 C25 1.499 1_556 S
C89 C20 1.493 . S
C95 C31 1.490 . S
