# Generated by pormake.
# Topology sml, (6)-cn, num edge types: 1
# Building blocks:
#     Node 0, Type 0, BuildingBlock: BETDEL_clean_sbu_0, # of connection points: 6
#     Node 1, Type 0, BuildingBlock: BETDEL_clean_sbu_0, # of connection points: 6
#     Node 2, Type 0, BuildingBlock: BETDEL_clean_sbu_0, # of connection points: 6
#     Node 3, Type 0, BuildingBlock: BETDEL_clean_sbu_0, # of connection points: 6
#     Node 4, Type 0, BuildingBlock: BETDEL_clean_sbu_0, # of connection points: 6
#     Node 5, Type 0, BuildingBlock: BETDEL_clean_sbu_0, # of connection points: 6
#     Edge 6, Type (0, 0), None
#     Edge 7, Type (0, 0), None
#     Edge 8, Type (0, 0), None
#     Edge 9, Type (0, 0), None
#     Edge 10, Type (0, 0), None
#     Edge 11, Type (0, 0), None
#     Edge 12, Type (0, 0), None
#     Edge 13, Type (0, 0), None
#     Edge 14, Type (0, 0), None
#     Edge 15, Type (0, 0), None
#     Edge 16, Type (0, 0), None
#     Edge 17, Type (0, 0), None
#     Edge 18, Type (0, 0), None
#     Edge 19, Type (0, 0), None
#     Edge 20, Type (0, 0), None
#     Edge 21, Type (0, 0), None
#     Edge 22, Type (0, 0), None
#     Edge 23, Type (0, 0), None
# Relax obj value: 0.182
# Max RMSD: 0.205
# Mean RMSD: 0.205
data_MOF--net-sml--node1-BETDEL_clean_sbu_0--edge1-none
_symmetry_space_group_name_H-M    P1
_symmetry_Int_Tables_number       1
_symmetry_cell_setting            triclinic
loop_
_symmetry_equiv_pos_as_xyz
'x, y, z'
_cell_length_a     15.726953
_cell_length_b     15.724862
_cell_length_c     8.7913019
_cell_angle_alpha  89.999914
_cell_angle_beta   89.999731
_cell_angle_gamma 119.99804
loop_
_atom_site_label
_atom_site_type_symbol
_atom_site_fract_x
_atom_site_fract_y
_atom_site_fract_z
_atom_type_partial_charge
Dy0 Dy 0.10152 0.40134 1.01753 0.0
C1 C 0.17792 0.38673 0.59714 0.0
C2 C 0.1414 0.40181 0.72401 0.0
Dy3 Dy 0.20942 0.38754 0.30077 0.0
O4 O 0.05892 0.33618 0.78596 0.0
O5 O 0.18817 0.47871 0.81053 0.0
O6 O 0.95681 0.33947 0.13845 0.0
O7 O 0.06393 0.30343 0.20668 0.0
C8 C -0.01726 0.29745 0.2434 0.0
C9 C 0.32171 0.49027 0.06189 0.0
O10 O 0.2147 0.26511 0.1819 0.0
O11 O 0.14422 0.28667 0.9636 0.0
O12 O 0.25921 0.45252 0.53218 0.0
O13 O 0.12878 0.31042 0.51046 0.0
O14 O 0.35198 0.45205 0.1671 0.0
O15 O 0.24431 0.4864 0.11174 0.0
O16 O 0.09779 0.52419 0.15071 0.0
O17 O 0.17652 0.50563 0.36124 0.0
C18 C 0.18915 0.24681 1.03605 0.0
C19 C 0.12923 0.54441 0.29513 0.0
Dy20 Dy 0.8207 0.26091 0.62508 0.0
C21 C 0.74423 0.1699 1.04546 0.0
C22 C 0.78078 0.22149 0.9186 0.0
Dy23 Dy 0.71271 0.13919 0.34184 0.0
O24 O 0.86324 0.23831 0.85665 0.0
O25 O 0.73405 0.25166 0.83206 0.0
O26 O -0.0346 0.34377 0.50407 0.0
O27 O 0.8582 0.20058 0.43588 0.0
C28 C 0.93934 0.27583 0.39907 0.0
C29 C 0.60047 0.12966 0.58076 0.0
O30 O 0.70744 0.01149 0.46073 0.0
O31 O 0.77801 0.10355 0.679 0.0
O32 O 0.66296 0.15445 0.11043 0.0
O33 O 0.79333 0.14268 0.13215 0.0
O34 O 0.57016 0.06117 0.47554 0.0
O35 O 0.67789 0.2032 0.5309 0.0
O36 O 0.82443 0.38751 0.49192 0.0
O37 O 0.74563 0.29021 0.28141 0.0
C38 C 0.73303 0.01874 0.60657 0.0
C39 C 0.79295 0.37628 0.34751 0.0
Dy40 Dy 0.53387 0.68734 0.68418 0.0
C41 C 0.54844 0.77837 0.26381 0.0
C42 C 0.53338 0.72677 0.39067 0.0
Dy43 Dy 0.54763 0.80903 0.96743 0.0
O44 O 0.599 0.70991 0.4526 0.0
O45 O 0.45649 0.69664 0.47721 0.0
O46 O 0.59574 0.6045 0.80514 0.0
O47 O 0.63175 0.74766 0.87334 0.0
C48 C 0.63775 0.67245 0.91008 0.0
C49 C 0.44492 0.81862 0.72854 0.0
O50 O 0.67007 0.93674 0.84858 0.0
O51 O 0.64854 0.84469 0.63026 0.0
O52 O 0.48264 0.79384 0.19883 0.0
O53 O 0.62474 0.80554 0.17713 0.0
O54 O 0.48312 0.8871 0.83377 0.0
O55 O 0.44879 0.74507 0.77839 0.0
O56 O 0.41101 0.56076 0.81728 0.0
O57 O 0.4296 0.658 1.02792 0.0
C58 C 0.68843 0.92948 0.70275 0.0
C59 C 0.39081 0.57195 0.96173 0.0
Dy60 Dy 0.67435 0.54699 0.29176 0.0
C61 C 0.76537 0.56155 0.71216 0.0
C62 C 0.71379 0.54649 0.58528 0.0
Dy63 Dy 0.79606 0.56073 1.00854 0.0
O64 O 0.6969 0.61211 0.52335 0.0
O65 O 0.68369 0.46961 0.49872 0.0
O66 O 0.59147 0.60882 0.17076 0.0
O67 O 0.73466 0.64485 0.10257 0.0
C68 C 0.65939 0.6507 0.06576 0.0
C69 C 0.80552 0.45791 0.24723 0.0
O70 O 0.92374 0.68316 0.12741 0.0
O71 O 0.83169 0.66167 0.34568 0.0
O72 O 0.78088 0.49576 0.77711 0.0
O73 O 0.79251 0.63785 0.79886 0.0
O74 O 0.87416 0.49627 0.14228 0.0
O75 O 0.73199 0.46183 0.1975 0.0
O76 O 0.54778 0.42414 0.15859 0.0
O77 O 0.64508 0.44261 0.9481 0.0
C78 C 0.91649 0.7015 0.27324 0.0
C79 C 0.55902 0.40388 1.01419 0.0
Dy80 Dy 0.24786 0.83372 0.35083 0.0
C81 C 0.15684 0.75729 0.93045 0.0
C82 C 0.20843 0.7938 1.05732 0.0
Dy83 Dy 0.12619 0.72582 0.63408 0.0
O84 O 0.22535 0.87632 0.11924 0.0
O85 O 0.23849 0.74699 0.14388 0.0
O86 O 0.33073 -0.02156 0.47178 0.0
O87 O 0.18757 0.87133 0.54 0.0
C88 C 0.2628 0.95252 0.57673 0.0
C89 C 0.11669 0.61349 0.39542 0.0
O90 O -0.0015 0.72056 0.51525 0.0
O91 O 0.09053 0.79105 0.29692 0.0
O92 O 0.14131 0.67598 0.86549 0.0
O93 O 0.12973 0.80647 0.84375 0.0
O94 O 0.04806 0.58323 0.50039 0.0
O95 O 0.19023 0.69094 0.44513 0.0
O96 O 0.37443 0.83743 0.48394 0.0
O97 O 0.2772 0.75877 0.69457 0.0
C98 C 0.00575 0.74617 0.36942 0.0
C99 C 0.36325 0.80604 0.62838 0.0
Dy100 Dy 0.38829 0.11455 0.95843 0.0
C101 C 0.37377 0.19107 0.37882 0.0
C102 C 0.38881 0.15453 0.25194 0.0
Dy103 Dy 0.3746 0.22256 0.6752 0.0
O104 O 0.32319 0.07202 0.19004 0.0
O105 O 0.46568 0.20129 0.16537 0.0
O106 O 0.32645 0.96984 0.8374 0.0
O107 O 0.29046 0.07705 0.76923 0.0
C108 C 0.28458 -0.00409 0.73241 0.0
C109 C 0.4774 0.33483 0.9139 0.0
O110 O 0.25216 0.22782 0.79406 0.0
O111 O 0.27362 0.15722 1.01235 0.0
O112 O 0.43957 0.27235 0.44378 0.0
O113 O 0.29748 0.14194 0.46552 0.0
O114 O 0.43906 0.36513 0.80893 0.0
O115 O 0.47346 0.25735 0.86418 0.0
O116 O 0.51115 0.11083 0.82534 0.0
O117 O 0.49265 0.18957 0.61475 0.0
C118 C 0.23377 0.20216 0.93986 0.0
C119 C 0.5314 0.14227 0.68092 0.0
loop_
_geom_bond_atom_site_label_1
_geom_bond_atom_site_label_2
_geom_bond_distance
_geom_bond_site_symmetry_2
_ccdc_geom_bond_type
Dy0 O4 2.398 1_554 S
Dy0 O5 2.491 1_554 S
Dy0 O6 2.403 . S
Dy0 O7 2.664 . S
Dy0 O11 2.326 1_554 S
Dy0 O15 2.310 . S
Dy0 O16 2.351 . S
C1 O12 1.185 . S
C1 O13 1.355 . S
C2 O4 1.185 . S
C2 O5 1.355 . S
Dy3 O7 2.310 . S
Dy3 O10 2.351 . S
Dy3 O12 2.398 . S
Dy3 O13 2.491 . S
Dy3 O14 2.403 . S
Dy3 O15 2.664 . S
Dy3 O17 2.326 . S
O4 Dy0 2.398 1_556 S
O4 C2 1.185 . S
O5 Dy0 2.491 1_556 S
O5 C2 1.355 . S
O6 Dy0 2.403 . S
O6 C8 1.254 . S
O7 Dy0 2.664 . S
O7 Dy3 2.310 . S
O7 C8 1.268 . S
C8 O6 1.254 . S
C8 O7 1.268 . S
C9 O14 1.254 . S
C9 O15 1.268 . S
O10 Dy3 2.351 . S
O10 C18 1.249 . S
O11 Dy0 2.326 1_556 S
O11 C18 1.267 1_556 S
O12 C1 1.185 . S
O12 Dy3 2.398 . S
O13 C1 1.355 . S
O13 Dy3 2.491 . S
O14 Dy3 2.403 . S
O14 C9 1.254 . S
O15 Dy0 2.310 . S
O15 Dy3 2.664 . S
O15 C9 1.268 . S
O16 Dy0 2.351 . S
O16 C19 1.249 . S
O17 Dy3 2.326 . S
O17 C19 1.267 . S
C18 O10 1.249 . S
C18 O11 1.267 1_554 S
C19 O16 1.249 . S
C19 O17 1.267 . S
Dy20 O24 2.398 . S
Dy20 O25 2.491 . S
Dy20 O26 2.403 . S
Dy20 O27 2.664 . S
Dy20 O31 2.326 . S
Dy20 O35 2.310 . S
Dy20 O36 2.351 . S
C21 O32 1.185 . S
C21 O33 1.355 . S
C22 O24 1.185 . S
C22 O25 1.355 . S
Dy23 O27 2.310 . S
Dy23 O30 2.351 1_545 S
Dy23 O32 2.398 1_554 S
Dy23 O33 2.491 1_554 S
Dy23 O34 2.403 . S
Dy23 O35 2.664 . S
Dy23 O37 2.326 . S
O24 Dy20 2.398 . S
O24 C22 1.185 . S
O25 Dy20 2.491 . S
O25 C22 1.355 . S
O26 Dy20 2.403 . S
O26 C28 1.254 . S
O27 Dy20 2.664 . S
O27 Dy23 2.310 . S
O27 C28 1.268 . S
C28 O26 1.254 . S
C28 O27 1.268 . S
C29 O34 1.254 . S
C29 O35 1.268 . S
O30 Dy23 2.351 1_565 S
O30 C38 1.249 1_565 S
O31 Dy20 2.326 . S
O31 C38 1.267 . S
O32 C21 1.185 . S
O32 Dy23 2.398 1_556 S
O33 C21 1.355 . S
O33 Dy23 2.491 1_556 S
O34 Dy23 2.403 . S
O34 C29 1.254 . S
O35 Dy20 2.310 . S
O35 Dy23 2.664 . S
O35 C29 1.268 . S
O36 Dy20 2.351 . S
O36 C39 1.249 . S
O37 Dy23 2.326 . S
O37 C39 1.267 . S
C38 O30 1.249 1_545 S
C38 O31 1.267 . S
C39 O36 1.249 . S
C39 O37 1.267 . S
Dy40 O44 2.398 . S
Dy40 O45 2.491 . S
Dy40 O46 2.403 . S
Dy40 O47 2.664 . S
Dy40 O51 2.326 . S
Dy40 O55 2.310 . S
Dy40 O56 2.351 . S
C41 O52 1.185 . S
C41 O53 1.355 . S
C42 O44 1.185 . S
C42 O45 1.355 . S
Dy43 O47 2.310 1_554 S
Dy43 O50 2.351 1_564 S
Dy43 O52 2.398 . S
Dy43 O53 2.491 . S
Dy43 O54 2.403 1_554 S
Dy43 O55 2.664 1_554 S
Dy43 O57 2.326 . S
O44 Dy40 2.398 . S
O44 C42 1.185 . S
O45 Dy40 2.491 . S
O45 C42 1.355 . S
O46 Dy40 2.403 . S
O46 C48 1.254 . S
O47 Dy40 2.664 . S
O47 Dy43 2.310 1_556 S
O47 C48 1.268 . S
C48 O46 1.254 . S
C48 O47 1.268 . S
C49 O54 1.254 . S
C49 O55 1.268 . S
O50 Dy43 2.351 1_546 S
O50 C58 1.249 1_545 S
O51 Dy40 2.326 . S
O51 C58 1.267 . S
O52 C41 1.185 . S
O52 Dy43 2.398 . S
O53 C41 1.355 . S
O53 Dy43 2.491 . S
O54 Dy43 2.403 1_556 S
O54 C49 1.254 . S
O55 Dy40 2.310 . S
O55 Dy43 2.664 1_556 S
O55 C49 1.268 . S
O56 Dy40 2.351 . S
O56 C59 1.249 . S
O57 Dy43 2.326 . S
O57 C59 1.267 1_554 S
C58 O50 1.249 1_565 S
C58 O51 1.267 . S
C59 O56 1.249 . S
C59 O57 1.267 1_556 S
Dy60 O64 2.398 . S
Dy60 O65 2.491 . S
Dy60 O66 2.403 . S
Dy60 O67 2.664 1_554 S
Dy60 O71 2.326 . S
Dy60 O75 2.310 . S
Dy60 O76 2.351 1_554 S
C61 O72 1.185 . S
C61 O73 1.355 . S
C62 O64 1.185 . S
C62 O65 1.355 . S
Dy63 O67 2.310 . S
Dy63 O70 2.351 1_656 S
Dy63 O72 2.398 . S
Dy63 O73 2.491 . S
Dy63 O74 2.403 . S
Dy63 O75 2.664 1_556 S
Dy63 O77 2.326 . S
O64 Dy60 2.398 . S
O64 C62 1.185 . S
O65 Dy60 2.491 . S
O65 C62 1.355 . S
O66 Dy60 2.403 . S
O66 C68 1.254 1_554 S
O67 Dy60 2.664 1_556 S
O67 Dy63 2.310 . S
O67 C68 1.268 . S
C68 O66 1.254 1_556 S
C68 O67 1.268 . S
C69 O74 1.254 1_554 S
C69 O75 1.268 . S
O70 Dy63 2.351 1_454 S
O70 C78 1.249 1_455 S
O71 Dy60 2.326 . S
O71 C78 1.267 . S
O72 C61 1.185 . S
O72 Dy63 2.398 . S
O73 C61 1.355 . S
O73 Dy63 2.491 . S
O74 Dy63 2.403 . S
O74 C69 1.254 1_556 S
O75 Dy60 2.310 . S
O75 Dy63 2.664 1_554 S
O75 C69 1.268 . S
O76 Dy60 2.351 1_556 S
O76 C79 1.249 . S
O77 Dy63 2.326 . S
O77 C79 1.267 . S
C78 O70 1.249 1_655 S
C78 O71 1.267 . S
C79 O76 1.249 . S
C79 O77 1.267 . S
Dy80 O84 2.398 . S
Dy80 O85 2.491 . S
Dy80 O86 2.403 . S
Dy80 O87 2.664 . S
Dy80 O91 2.326 . S
Dy80 O95 2.310 . S
Dy80 O96 2.351 . S
C81 O92 1.185 . S
C81 O93 1.355 . S
C82 O84 1.185 . S
C82 O85 1.355 . S
Dy83 O87 2.310 . S
Dy83 O90 2.351 1_455 S
Dy83 O92 2.398 . S
Dy83 O93 2.491 . S
Dy83 O94 2.403 . S
Dy83 O95 2.664 . S
Dy83 O97 2.326 . S
O84 Dy80 2.398 . S
O84 C82 1.185 . S
O85 Dy80 2.491 . S
O85 C82 1.355 . S
O86 Dy80 2.403 . S
O86 C88 1.254 . S
O87 Dy80 2.664 . S
O87 Dy83 2.310 . S
O87 C88 1.268 . S
C88 O86 1.254 . S
C88 O87 1.268 . S
C89 O94 1.254 . S
C89 O95 1.268 . S
O90 Dy83 2.351 1_655 S
O90 C98 1.249 1_655 S
O91 Dy80 2.326 . S
O91 C98 1.267 . S
O92 C81 1.185 . S
O92 Dy83 2.398 . S
O93 C81 1.355 . S
O93 Dy83 2.491 . S
O94 Dy83 2.403 . S
O94 C89 1.254 . S
O95 Dy80 2.310 . S
O95 Dy83 2.664 . S
O95 C89 1.268 . S
O96 Dy80 2.351 . S
O96 C99 1.249 . S
O97 Dy83 2.326 . S
O97 C99 1.267 . S
C98 O90 1.249 1_455 S
C98 O91 1.267 . S
C99 O96 1.249 . S
C99 O97 1.267 . S
Dy100 O104 2.398 1_556 S
Dy100 O105 2.491 1_556 S
Dy100 O106 2.403 . S
Dy100 O107 2.664 . S
Dy100 O111 2.326 . S
Dy100 O115 2.310 . S
Dy100 O116 2.351 . S
C101 O112 1.185 . S
C101 O113 1.355 . S
C102 O104 1.185 . S
C102 O105 1.355 . S
Dy103 O107 2.310 . S
Dy103 O110 2.351 . S
Dy103 O112 2.398 . S
Dy103 O113 2.491 . S
Dy103 O114 2.403 . S
Dy103 O115 2.664 . S
Dy103 O117 2.326 . S
O104 Dy100 2.398 1_554 S
O104 C102 1.185 . S
O105 Dy100 2.491 1_554 S
O105 C102 1.355 . S
O106 Dy100 2.403 . S
O106 C108 1.254 . S
O107 Dy100 2.664 . S
O107 Dy103 2.310 . S
O107 C108 1.268 . S
C108 O106 1.254 . S
C108 O107 1.268 . S
C109 O114 1.254 . S
C109 O115 1.268 . S
O110 Dy103 2.351 . S
O110 C118 1.249 . S
O111 Dy100 2.326 . S
O111 C118 1.267 . S
O112 C101 1.185 . S
O112 Dy103 2.398 . S
O113 C101 1.355 . S
O113 Dy103 2.491 . S
O114 Dy103 2.403 . S
O114 C109 1.254 . S
O115 Dy100 2.310 . S
O115 Dy103 2.664 . S
O115 C109 1.268 . S
O116 Dy100 2.351 . S
O116 C119 1.249 . S
O117 Dy103 2.326 . S
O117 C119 1.267 . S
C118 O110 1.249 . S
C118 O111 1.267 . S
C119 O116 1.249 . S
C119 O117 1.267 . S
C118 C18 2.118 1_556 S
C8 C28 1.514 1_455 S
C38 C58 2.118 1_545 S
C48 C68 1.514 . S
C98 C78 2.118 1_455 S
C108 C88 1.515 1_545 S
C2 C1 2.147 . S
C21 C22 2.147 . S
C42 C41 2.147 . S
C61 C62 2.147 . S
C81 C82 2.147 1_556 S
C101 C102 2.147 . S
C19 C89 2.097 . S
C29 C119 2.096 . S
C9 C59 2.097 1_554 S
C39 C69 2.097 . S
C99 C49 2.096 . S
C79 C109 2.096 . S
