# Generated by pormake.
# Topology umm, (4)-cn, num edge types: 1
# Building blocks:
#     Node 0, Type 0, BuildingBlock: NAWXER_clean_sbu_0, # of connection points: 4
#     Node 1, Type 0, BuildingBlock: NAWXER_clean_sbu_0, # of connection points: 4
#     Node 2, Type 0, BuildingBlock: NAWXER_clean_sbu_0, # of connection points: 4
#     Node 3, Type 0, BuildingBlock: NAWXER_clean_sbu_0, # of connection points: 4
#     Node 4, Type 0, BuildingBlock: NAWXER_clean_sbu_0, # of connection points: 4
#     Node 5, Type 0, BuildingBlock: NAWXER_clean_sbu_0, # of connection points: 4
#     Node 6, Type 0, BuildingBlock: NAWXER_clean_sbu_0, # of connection points: 4
#     Node 7, Type 0, BuildingBlock: NAWXER_clean_sbu_0, # of connection points: 4
#     Node 8, Type 0, BuildingBlock: NAWXER_clean_sbu_0, # of connection points: 4
#     Node 9, Type 0, BuildingBlock: NAWXER_clean_sbu_0, # of connection points: 4
#     Node 10, Type 0, BuildingBlock: NAWXER_clean_sbu_0, # of connection points: 4
#     Node 11, Type 0, BuildingBlock: NAWXER_clean_sbu_0, # of connection points: 4
#     Edge 12, Type (0, 0), None
#     Edge 13, Type (0, 0), None
#     Edge 14, Type (0, 0), None
#     Edge 15, Type (0, 0), None
#     Edge 16, Type (0, 0), None
#     Edge 17, Type (0, 0), None
#     Edge 18, Type (0, 0), None
#     Edge 19, Type (0, 0), None
#     Edge 20, Type (0, 0), None
#     Edge 21, Type (0, 0), None
#     Edge 22, Type (0, 0), None
#     Edge 23, Type (0, 0), None
#     Edge 24, Type (0, 0), None
#     Edge 25, Type (0, 0), None
#     Edge 26, Type (0, 0), None
#     Edge 27, Type (0, 0), None
#     Edge 28, Type (0, 0), None
#     Edge 29, Type (0, 0), None
#     Edge 30, Type (0, 0), None
#     Edge 31, Type (0, 0), None
#     Edge 32, Type (0, 0), None
#     Edge 33, Type (0, 0), None
#     Edge 34, Type (0, 0), None
#     Edge 35, Type (0, 0), None
# Relax obj value: 0.044
# Max RMSD: 0.161
# Mean RMSD: 0.161
data_MOF--net-umm--node1-NAWXER_clean_sbu_0--edge1-none
_symmetry_space_group_name_H-M    P1
_symmetry_Int_Tables_number       1
_symmetry_cell_setting            triclinic
loop_
_symmetry_equiv_pos_as_xyz
'x, y, z'
_cell_length_a     25.062443
_cell_length_b     25.063794
_cell_length_c     12.541812
_cell_angle_alpha  89.999879
_cell_angle_beta   89.99997
_cell_angle_gamma 120.00337
loop_
_atom_site_label
_atom_site_type_symbol
_atom_site_fract_x
_atom_site_fract_y
_atom_site_fract_z
_atom_type_partial_charge
C0 C 0.27446 0.49319 0.04494 0.0
C1 C 0.47356 0.50301 0.12482 0.0
O2 O 0.32121 0.54643 0.06254 0.0
Zn3 Zn 0.41652 0.58976 0.09952 0.0
O4 O 0.27696 0.44494 0.06884 0.0
Zn5 Zn 0.36679 0.49026 0.10726 0.0
O6 O 0.37681 0.53588 0.25797 0.0
O7 O 0.42966 0.63631 0.22974 0.0
O8 O 0.42065 0.45429 0.12386 0.0
O9 O 0.47722 0.55539 0.11701 0.0
O10 O 0.44458 0.62947 0.96407 0.0
O11 O 0.39458 0.52741 0.95316 0.0
C12 C 0.40264 0.5913 0.29376 0.0
C13 C 0.42144 0.58011 0.9089 0.0
C14 C 0.84285 0.4207 0.24222 0.0
C15 C 0.81286 0.40189 0.62709 0.0
O16 O 0.8687 0.39384 0.28648 0.0
Zn17 Zn 0.87805 0.36605 0.44058 0.0
O18 O 0.81662 0.44382 0.29739 0.0
Zn19 Zn 0.82827 0.41576 0.43284 0.0
O20 O 0.92335 0.47647 0.45034 0.0
O21 O 0.96789 0.41991 0.45719 0.0
O22 O 0.79486 0.4289 0.56307 0.0
O23 O 0.84245 0.37606 0.59129 0.0
O24 O 0.83354 0.27622 0.40215 0.0
O25 O 0.77629 0.32046 0.39585 0.0
C26 C 0.97208 0.47282 0.45815 0.0
C27 C 0.7828 0.27373 0.37824 0.0
C28 C 0.41249 0.81211 0.96037 0.0
C29 C 0.42369 0.8421 0.5755 0.0
O30 O 0.46791 0.84171 0.92458 0.0
Zn31 Zn 0.51354 0.87732 0.77388 0.0
O32 O 0.36748 0.79412 0.89634 0.0
Zn33 Zn 0.41404 0.82753 0.76612 0.0
O34 O 0.45737 0.77556 0.72917 0.0
O35 O 0.55886 0.83281 0.73547 0.0
O36 O 0.37434 0.81587 0.63066 0.0
O37 O 0.4764 0.86795 0.61977 0.0
O38 O 0.54951 0.96715 0.79047 0.0
O39 O 0.4484 0.9226 0.78361 0.0
C40 C 0.51061 0.78206 0.71158 0.0
C41 C 0.50078 0.97133 0.79142 0.0
C42 C 0.58308 0.42292 0.90891 0.0
C43 C 0.60189 0.41175 0.29377 0.0
O44 O 0.60994 0.47563 0.95317 0.0
Zn45 Zn 0.63774 0.51278 0.10726 0.0
O46 O 0.55995 0.37357 0.96408 0.0
Zn47 Zn 0.58802 0.41329 0.09952 0.0
O48 O 0.52731 0.44765 0.11701 0.0
O49 O 0.58388 0.54876 0.12386 0.0
O50 O 0.57487 0.36674 0.22975 0.0
O51 O 0.62773 0.46717 0.25797 0.0
O52 O 0.72757 0.5581 0.06883 0.0
O53 O 0.68332 0.45661 0.06254 0.0
C54 C 0.53097 0.50003 0.12482 0.0
C55 C 0.73006 0.50985 0.04493 0.0
C56 C 0.19169 0.60116 0.62708 0.0
C57 C 0.16169 0.58235 0.24222 0.0
O58 O 0.1621 0.62698 0.59129 0.0
Zn59 Zn 0.12648 0.63699 0.44059 0.0
O60 O 0.20968 0.57414 0.56306 0.0
Zn61 Zn 0.17627 0.58728 0.43283 0.0
O62 O 0.22825 0.68258 0.39586 0.0
O63 O 0.171 0.72682 0.40216 0.0
O64 O 0.18792 0.55923 0.29738 0.0
O65 O 0.13584 0.6092 0.28648 0.0
O66 O 0.03665 0.58313 0.45719 0.0
O67 O 0.08119 0.52657 0.45033 0.0
C68 C 0.22175 0.72932 0.37826 0.0
C69 C 0.03246 0.53022 0.45814 0.0
C70 C 0.59204 0.19093 0.96037 0.0
C71 C 0.58085 0.16094 0.57551 0.0
O72 O 0.53662 0.16133 0.92458 0.0
Zn73 Zn 0.491 0.12572 0.77388 0.0
O74 O 0.63706 0.20892 0.89634 0.0
Zn75 Zn 0.5905 0.17551 0.76612 0.0
O76 O 0.54717 0.22748 0.72916 0.0
O77 O 0.44567 0.17023 0.73547 0.0
O78 O 0.6302 0.18717 0.63067 0.0
O79 O 0.52814 0.13509 0.61977 0.0
O80 O 0.45503 0.03589 0.79047 0.0
O81 O 0.55614 0.08044 0.78361 0.0
C82 C 0.49393 0.22098 0.71158 0.0
C83 C 0.50376 0.03171 0.79142 0.0
C84 C 0.42368 0.58235 0.79418 0.0
C85 C 0.4125 0.60115 0.40933 0.0
O86 O 0.47639 0.60921 0.74992 0.0
Zn87 Zn 0.51354 0.63699 0.59582 0.0
O88 O 0.37433 0.55922 0.73902 0.0
Zn89 Zn 0.41404 0.58728 0.60357 0.0
O90 O 0.4484 0.52657 0.58608 0.0
O91 O 0.54951 0.58313 0.57923 0.0
O92 O 0.36748 0.57413 0.47334 0.0
O93 O 0.46793 0.62699 0.44512 0.0
O94 O 0.55886 0.72683 0.63424 0.0
O95 O 0.45737 0.68258 0.64054 0.0
C96 C 0.50078 0.53022 0.57827 0.0
C97 C 0.51061 0.72932 0.65814 0.0
C98 C 0.81285 0.41174 0.74266 0.0
C99 C 0.84285 0.42293 0.12751 0.0
O100 O 0.84244 0.46716 0.77844 0.0
Zn101 Zn 0.87806 0.51278 0.92914 0.0
O102 O 0.79485 0.36673 0.80667 0.0
Zn103 Zn 0.82827 0.41329 0.93689 0.0
O104 O 0.77629 0.45661 0.97387 0.0
O105 O 0.83355 0.5581 0.96757 0.0
O106 O 0.81662 0.37358 0.07234 0.0
O107 O 0.8687 0.47564 0.08324 0.0
O108 O 0.96789 0.54876 0.91254 0.0
O109 O 0.92335 0.44765 0.91939 0.0
C110 C 0.7828 0.50985 0.99146 0.0
C111 C 0.97208 0.50004 0.91158 0.0
C112 C 0.47357 0.97133 0.24487 0.0
C113 C 0.27447 0.78205 0.32479 0.0
O114 O 0.47723 0.92261 0.25267 0.0
Zn115 Zn 0.41652 0.82753 0.27017 0.0
O116 O 0.42065 0.96713 0.24584 0.0
Zn117 Zn 0.3668 0.87731 0.26244 0.0
O118 O 0.3946 0.86795 0.41653 0.0
O119 O 0.44459 0.81588 0.40561 0.0
O120 O 0.27697 0.83279 0.30088 0.0
O121 O 0.32121 0.77555 0.30717 0.0
O122 O 0.42966 0.79413 0.13994 0.0
O123 O 0.3768 0.8417 0.11173 0.0
C124 C 0.42146 0.84211 0.46078 0.0
C125 C 0.40263 0.81212 0.07594 0.0
C126 C 0.49392 0.27371 0.65813 0.0
C127 C 0.50375 0.47282 0.57828 0.0
O128 O 0.54717 0.32046 0.64054 0.0
Zn129 Zn 0.5905 0.41576 0.60357 0.0
O130 O 0.44567 0.27621 0.63424 0.0
Zn131 Zn 0.49099 0.36605 0.59583 0.0
O132 O 0.53661 0.37606 0.44512 0.0
O133 O 0.63706 0.42891 0.47335 0.0
O134 O 0.45503 0.41991 0.57923 0.0
O135 O 0.55614 0.47647 0.58608 0.0
O136 O 0.6302 0.44381 0.73903 0.0
O137 O 0.52814 0.39383 0.74993 0.0
C138 C 0.59204 0.40189 0.40934 0.0
C139 C 0.58085 0.42068 0.79419 0.0
C140 C 0.19169 0.5913 0.74265 0.0
C141 C 0.16169 0.58012 0.1275 0.0
O142 O 0.16209 0.53588 0.77843 0.0
Zn143 Zn 0.12648 0.49026 0.92914 0.0
O144 O 0.20968 0.63632 0.80666 0.0
Zn145 Zn 0.17627 0.58976 0.93688 0.0
O146 O 0.22824 0.54643 0.97386 0.0
O147 O 0.17099 0.44494 0.96757 0.0
O148 O 0.18792 0.62947 0.07234 0.0
O149 O 0.13584 0.52741 0.08324 0.0
O150 O 0.03665 0.45429 0.91254 0.0
O151 O 0.08119 0.5554 0.91939 0.0
C152 C 0.22174 0.49319 0.99147 0.0
C153 C 0.03246 0.50301 0.91158 0.0
C154 C 0.58308 0.16094 0.46079 0.0
C155 C 0.6019 0.19092 0.07594 0.0
O156 O 0.60994 0.13509 0.41653 0.0
Zn157 Zn 0.63774 0.12574 0.26244 0.0
O158 O 0.55995 0.18716 0.40562 0.0
Zn159 Zn 0.58802 0.17551 0.27017 0.0
O160 O 0.52731 0.08044 0.25268 0.0
O161 O 0.58389 0.03591 0.24584 0.0
O162 O 0.57488 0.20892 0.13994 0.0
O163 O 0.62774 0.16134 0.11173 0.0
O164 O 0.72757 0.17025 0.30088 0.0
O165 O 0.68333 0.22749 0.30716 0.0
C166 C 0.53097 0.03171 0.24487 0.0
C167 C 0.73006 0.22099 0.32478 0.0
loop_
_geom_bond_atom_site_label_1
_geom_bond_atom_site_label_2
_geom_bond_distance
_geom_bond_site_symmetry_2
_ccdc_geom_bond_type
C0 O2 1.247 . S
C0 O4 1.258 . S
C1 O8 1.247 . S
C1 O9 1.258 . S
O2 C0 1.247 . S
O2 Zn3 2.028 . S
Zn3 O2 2.028 . S
Zn3 O7 2.035 . S
Zn3 O9 2.035 . S
Zn3 O10 2.028 1_554 S
O4 C0 1.258 . S
O4 Zn5 2.035 . S
Zn5 O4 2.035 . S
Zn5 O6 2.028 . S
Zn5 O8 2.028 . S
Zn5 O11 2.035 1_554 S
O6 Zn5 2.028 . S
O6 C12 1.247 . S
O7 Zn3 2.035 . S
O7 C12 1.258 . S
O8 C1 1.247 . S
O8 Zn5 2.028 . S
O9 C1 1.258 . S
O9 Zn3 2.035 . S
O10 Zn3 2.028 1_556 S
O10 C13 1.247 . S
O11 Zn5 2.035 1_556 S
O11 C13 1.258 . S
C12 O6 1.247 . S
C12 O7 1.258 . S
C13 O10 1.247 . S
C13 O11 1.258 . S
C14 O16 1.247 . S
C14 O18 1.258 . S
C15 O22 1.247 . S
C15 O23 1.258 . S
O16 C14 1.247 . S
O16 Zn17 2.028 . S
Zn17 O16 2.028 . S
Zn17 O21 2.035 . S
Zn17 O23 2.035 . S
Zn17 O24 2.028 . S
O18 C14 1.258 . S
O18 Zn19 2.035 . S
Zn19 O18 2.035 . S
Zn19 O20 2.028 . S
Zn19 O22 2.028 . S
Zn19 O25 2.035 . S
O20 Zn19 2.028 . S
O20 C26 1.247 . S
O21 Zn17 2.035 . S
O21 C26 1.258 . S
O22 C15 1.247 . S
O22 Zn19 2.028 . S
O23 C15 1.258 . S
O23 Zn17 2.035 . S
O24 Zn17 2.028 . S
O24 C27 1.247 . S
O25 Zn19 2.035 . S
O25 C27 1.258 . S
C26 O20 1.247 . S
C26 O21 1.258 . S
C27 O24 1.247 . S
C27 O25 1.258 . S
C28 O30 1.247 . S
C28 O32 1.258 . S
C29 O36 1.247 . S
C29 O37 1.258 . S
O30 C28 1.247 . S
O30 Zn31 2.028 . S
Zn31 O30 2.028 . S
Zn31 O35 2.035 . S
Zn31 O37 2.035 . S
Zn31 O38 2.028 . S
O32 C28 1.258 . S
O32 Zn33 2.035 . S
Zn33 O32 2.035 . S
Zn33 O34 2.028 . S
Zn33 O36 2.028 . S
Zn33 O39 2.035 . S
O34 Zn33 2.028 . S
O34 C40 1.247 . S
O35 Zn31 2.035 . S
O35 C40 1.258 . S
O36 C29 1.247 . S
O36 Zn33 2.028 . S
O37 C29 1.258 . S
O37 Zn31 2.035 . S
O38 Zn31 2.028 . S
O38 C41 1.247 . S
O39 Zn33 2.035 . S
O39 C41 1.258 . S
C40 O34 1.247 . S
C40 O35 1.258 . S
C41 O38 1.247 . S
C41 O39 1.258 . S
C42 O44 1.247 . S
C42 O46 1.258 . S
C43 O50 1.247 . S
C43 O51 1.258 . S
O44 C42 1.247 . S
O44 Zn45 2.028 1_556 S
Zn45 O44 2.028 1_554 S
Zn45 O49 2.035 . S
Zn45 O51 2.035 . S
Zn45 O52 2.028 . S
O46 C42 1.258 . S
O46 Zn47 2.035 1_556 S
Zn47 O46 2.035 1_554 S
Zn47 O48 2.028 . S
Zn47 O50 2.028 . S
Zn47 O53 2.035 . S
O48 Zn47 2.028 . S
O48 C54 1.247 . S
O49 Zn45 2.035 . S
O49 C54 1.258 . S
O50 C43 1.247 . S
O50 Zn47 2.028 . S
O51 C43 1.258 . S
O51 Zn45 2.035 . S
O52 Zn45 2.028 . S
O52 C55 1.247 . S
O53 Zn47 2.035 . S
O53 C55 1.258 . S
C54 O48 1.247 . S
C54 O49 1.258 . S
C55 O52 1.247 . S
C55 O53 1.258 . S
C56 O58 1.247 . S
C56 O60 1.258 . S
C57 O64 1.247 . S
C57 O65 1.258 . S
O58 C56 1.247 . S
O58 Zn59 2.028 . S
Zn59 O58 2.028 . S
Zn59 O63 2.035 . S
Zn59 O65 2.035 . S
Zn59 O66 2.028 . S
O60 C56 1.258 . S
O60 Zn61 2.035 . S
Zn61 O60 2.035 . S
Zn61 O62 2.028 . S
Zn61 O64 2.028 . S
Zn61 O67 2.035 . S
O62 Zn61 2.028 . S
O62 C68 1.247 . S
O63 Zn59 2.035 . S
O63 C68 1.258 . S
O64 C57 1.247 . S
O64 Zn61 2.028 . S
O65 C57 1.258 . S
O65 Zn59 2.035 . S
O66 Zn59 2.028 . S
O66 C69 1.247 . S
O67 Zn61 2.035 . S
O67 C69 1.258 . S
C68 O62 1.247 . S
C68 O63 1.258 . S
C69 O66 1.247 . S
C69 O67 1.258 . S
C70 O72 1.247 . S
C70 O74 1.258 . S
C71 O78 1.247 . S
C71 O79 1.258 . S
O72 C70 1.247 . S
O72 Zn73 2.028 . S
Zn73 O72 2.028 . S
Zn73 O77 2.035 . S
Zn73 O79 2.035 . S
Zn73 O80 2.028 . S
O74 C70 1.258 . S
O74 Zn75 2.035 . S
Zn75 O74 2.035 . S
Zn75 O76 2.028 . S
Zn75 O78 2.028 . S
Zn75 O81 2.035 . S
O76 Zn75 2.028 . S
O76 C82 1.247 . S
O77 Zn73 2.035 . S
O77 C82 1.258 . S
O78 C71 1.247 . S
O78 Zn75 2.028 . S
O79 C71 1.258 . S
O79 Zn73 2.035 . S
O80 Zn73 2.028 . S
O80 C83 1.247 . S
O81 Zn75 2.035 . S
O81 C83 1.258 . S
C82 O76 1.247 . S
C82 O77 1.258 . S
C83 O80 1.247 . S
C83 O81 1.258 . S
C84 O86 1.247 . S
C84 O88 1.258 . S
C85 O92 1.247 . S
C85 O93 1.258 . S
O86 C84 1.247 . S
O86 Zn87 2.028 . S
Zn87 O86 2.028 . S
Zn87 O91 2.035 . S
Zn87 O93 2.035 . S
Zn87 O94 2.028 . S
O88 C84 1.258 . S
O88 Zn89 2.035 . S
Zn89 O88 2.035 . S
Zn89 O90 2.028 . S
Zn89 O92 2.028 . S
Zn89 O95 2.035 . S
O90 Zn89 2.028 . S
O90 C96 1.247 . S
O91 Zn87 2.035 . S
O91 C96 1.258 . S
O92 C85 1.247 . S
O92 Zn89 2.028 . S
O93 C85 1.258 . S
O93 Zn87 2.035 . S
O94 Zn87 2.028 . S
O94 C97 1.247 . S
O95 Zn89 2.035 . S
O95 C97 1.258 . S
C96 O90 1.247 . S
C96 O91 1.258 . S
C97 O94 1.247 . S
C97 O95 1.258 . S
C98 O100 1.247 . S
C98 O102 1.258 . S
C99 O106 1.247 . S
C99 O107 1.258 . S
O100 C98 1.247 . S
O100 Zn101 2.028 . S
Zn101 O100 2.028 . S
Zn101 O105 2.035 . S
Zn101 O107 2.035 1_556 S
Zn101 O108 2.028 . S
O102 C98 1.258 . S
O102 Zn103 2.035 . S
Zn103 O102 2.035 . S
Zn103 O104 2.028 . S
Zn103 O106 2.028 1_556 S
Zn103 O109 2.035 . S
O104 Zn103 2.028 . S
O104 C110 1.247 . S
O105 Zn101 2.035 . S
O105 C110 1.258 . S
O106 C99 1.247 . S
O106 Zn103 2.028 1_554 S
O107 C99 1.258 . S
O107 Zn101 2.035 1_554 S
O108 Zn101 2.028 . S
O108 C111 1.247 . S
O109 Zn103 2.035 . S
O109 C111 1.258 . S
C110 O104 1.247 . S
C110 O105 1.258 . S
C111 O108 1.247 . S
C111 O109 1.258 . S
C112 O114 1.247 . S
C112 O116 1.258 . S
C113 O120 1.247 . S
C113 O121 1.258 . S
O114 C112 1.247 . S
O114 Zn115 2.028 . S
Zn115 O114 2.028 . S
Zn115 O119 2.035 . S
Zn115 O121 2.035 . S
Zn115 O122 2.028 . S
O116 C112 1.258 . S
O116 Zn117 2.035 . S
Zn117 O116 2.035 . S
Zn117 O118 2.028 . S
Zn117 O120 2.028 . S
Zn117 O123 2.035 . S
O118 Zn117 2.028 . S
O118 C124 1.247 . S
O119 Zn115 2.035 . S
O119 C124 1.258 . S
O120 C113 1.247 . S
O120 Zn117 2.028 . S
O121 C113 1.258 . S
O121 Zn115 2.035 . S
O122 Zn115 2.028 . S
O122 C125 1.247 . S
O123 Zn117 2.035 . S
O123 C125 1.258 . S
C124 O118 1.247 . S
C124 O119 1.258 . S
C125 O122 1.247 . S
C125 O123 1.258 . S
C126 O128 1.247 . S
C126 O130 1.258 . S
C127 O134 1.247 . S
C127 O135 1.258 . S
O128 C126 1.247 . S
O128 Zn129 2.028 . S
Zn129 O128 2.028 . S
Zn129 O133 2.035 . S
Zn129 O135 2.035 . S
Zn129 O136 2.028 . S
O130 C126 1.258 . S
O130 Zn131 2.035 . S
Zn131 O130 2.035 . S
Zn131 O132 2.028 . S
Zn131 O134 2.028 . S
Zn131 O137 2.035 . S
O132 Zn131 2.028 . S
O132 C138 1.247 . S
O133 Zn129 2.035 . S
O133 C138 1.258 . S
O134 C127 1.247 . S
O134 Zn131 2.028 . S
O135 C127 1.258 . S
O135 Zn129 2.035 . S
O136 Zn129 2.028 . S
O136 C139 1.247 . S
O137 Zn131 2.035 . S
O137 C139 1.258 . S
C138 O132 1.247 . S
C138 O133 1.258 . S
C139 O136 1.247 . S
C139 O137 1.258 . S
C140 O142 1.247 . S
C140 O144 1.258 . S
C141 O148 1.247 . S
C141 O149 1.258 . S
O142 C140 1.247 . S
O142 Zn143 2.028 . S
Zn143 O142 2.028 . S
Zn143 O147 2.035 . S
Zn143 O149 2.035 1_556 S
Zn143 O150 2.028 . S
O144 C140 1.258 . S
O144 Zn145 2.035 . S
Zn145 O144 2.035 . S
Zn145 O146 2.028 . S
Zn145 O148 2.028 1_556 S
Zn145 O151 2.035 . S
O146 Zn145 2.028 . S
O146 C152 1.247 . S
O147 Zn143 2.035 . S
O147 C152 1.258 . S
O148 C141 1.247 . S
O148 Zn145 2.028 1_554 S
O149 C141 1.258 . S
O149 Zn143 2.035 1_554 S
O150 Zn143 2.028 . S
O150 C153 1.247 . S
O151 Zn145 2.035 . S
O151 C153 1.258 . S
C152 O146 1.247 . S
C152 O147 1.258 . S
C153 O150 1.247 . S
C153 O151 1.258 . S
C154 O156 1.247 . S
C154 O158 1.258 . S
C155 O162 1.247 . S
C155 O163 1.258 . S
O156 C154 1.247 . S
O156 Zn157 2.028 . S
Zn157 O156 2.028 . S
Zn157 O161 2.035 . S
Zn157 O163 2.035 . S
Zn157 O164 2.028 . S
O158 C154 1.258 . S
O158 Zn159 2.035 . S
Zn159 O158 2.035 . S
Zn159 O160 2.028 . S
Zn159 O162 2.028 . S
Zn159 O165 2.035 . S
O160 Zn159 2.028 . S
O160 C166 1.247 . S
O161 Zn157 2.035 . S
O161 C166 1.258 . S
O162 C155 1.247 . S
O162 Zn159 2.028 . S
O163 C155 1.258 . S
O163 Zn157 2.035 . S
O164 Zn157 2.028 . S
O164 C167 1.247 . S
O165 Zn159 2.035 . S
O165 C167 1.258 . S
C166 O160 1.247 . S
C166 O161 1.258 . S
C167 O164 1.247 . S
C167 O165 1.258 . S
C12 C85 1.727 . S
C15 C98 1.727 . S
C28 C125 1.727 1_556 S
C43 C138 1.727 . S
C56 C140 1.731 . S
C155 C70 1.727 1_554 S
C0 C152 2.035 1_554 S
C27 C167 2.031 . S
C40 C97 2.033 . S
C55 C110 2.033 1_554 S
C68 C113 2.033 . S
C82 C126 2.035 . S
C1 C54 2.109 . S
C26 C69 2.109 1_655 S
C83 C41 2.101 1_545 S
C96 C127 2.108 . S
C153 C111 2.102 1_455 S
C112 C166 2.116 1_565 S
C84 C13 1.167 . S
C14 C99 1.167 . S
C29 C124 1.167 . S
C139 C42 1.167 . S
C141 C57 1.165 . S
C71 C154 1.167 . S
