# Generated by pormake.
# Topology qtz-x, (6)-cn, num edge types: 1
# Building blocks:
#     Node 0, Type 0, BuildingBlock: LEVNOQ01_clean_sbu_1, # of connection points: 6
#     Node 1, Type 0, BuildingBlock: LEVNOQ01_clean_sbu_1, # of connection points: 6
#     Node 2, Type 0, BuildingBlock: LEVNOQ01_clean_sbu_1, # of connection points: 6
#     Edge 3, Type (0, 0), None
#     Edge 4, Type (0, 0), None
#     Edge 5, Type (0, 0), None
#     Edge 6, Type (0, 0), None
#     Edge 7, Type (0, 0), None
#     Edge 8, Type (0, 0), None
#     Edge 9, Type (0, 0), None
#     Edge 10, Type (0, 0), None
#     Edge 11, Type (0, 0), None
# Relax obj value: 0.282
# Max RMSD: 0.268
# Mean RMSD: 0.265
data_MOF--net-qtz-x--node1-LEVNOQ01_clean_sbu_1--edge1-none
_symmetry_space_group_name_H-M    P1
_symmetry_Int_Tables_number       1
_symmetry_cell_setting            triclinic
loop_
_symmetry_equiv_pos_as_xyz
'x, y, z'
_cell_length_a     8.0399109
_cell_length_b     7.7803283
_cell_length_c     18.42465
_cell_angle_alpha  94.948251
_cell_angle_beta   90.07476
_cell_angle_gamma 116.77185
loop_
_atom_site_label
_atom_site_type_symbol
_atom_site_fract_x
_atom_site_fract_y
_atom_site_fract_z
_atom_type_partial_charge
O0 O 0.58523 0.14026 0.0062 0.0
Mg1 Mg 0.83833 0.12508 0.02655 0.0
O2 O 0.64066 0.36921 0.09657 0.0
Mg3 Mg -0.07564 0.46075 0.15833 0.0
O4 O -0.08502 0.16825 0.13115 0.0
O5 O 0.87521 0.89951 0.06461 0.0
O6 O 0.20574 0.57894 0.2224 0.0
O7 O 0.80176 0.34045 0.269 0.0
Mg8 Mg 0.89548 0.73664 0.29435 0.0
O9 O -0.07391 0.74899 0.18748 0.0
O10 O 0.11896 0.68024 0.32636 0.0
O11 O 0.64114 0.49781 0.30028 0.0
O12 O -0.08032 -0.00643 0.25547 0.0
C13 C 0.09869 0.51422 -0.01299 0.0
C14 C 0.55088 0.27152 0.03764 0.0
C15 C -0.08652 0.00106 0.12696 0.0
C16 C 0.23379 0.63988 0.29036 0.0
C17 C 0.69679 0.37507 0.31324 0.0
C18 C -0.07296 0.91517 0.192 0.0
O19 O 0.04785 0.33518 0.97276 0.0
O20 O 0.06564 0.58339 0.04804 0.0
O21 O 0.56131 0.34566 0.42432 0.0
Mg22 Mg 0.35571 0.09722 0.36718 0.0
O23 O 0.71495 0.17837 0.40147 0.0
Mg24 Mg 0.54569 -0.05572 0.48204 0.0
O25 O 0.26968 -0.03607 0.46052 0.0
O26 O 0.0819 0.03387 0.39504 0.0
O27 O 0.3577 0.72115 0.56266 0.0
O28 O 0.63941 0.17341 0.58052 0.0
Mg29 Mg 0.73692 0.80388 0.59624 0.0
O30 O 0.81519 0.91381 0.49977 0.0
O31 O 0.4936 0.53724 0.57524 0.0
O32 O 0.6792 0.00931 0.66571 0.0
O33 O -0.00173 0.83311 0.56441 0.0
C34 C 0.42096 0.74843 0.32091 0.0
C35 C 0.68046 0.31768 0.38788 0.0
C36 C 0.11238 -0.0306 0.45284 0.0
C37 C 0.35225 0.56733 0.5836 0.0
C38 C 0.64454 0.14416 0.64763 0.0
C39 C -0.03086 0.90029 0.50684 0.0
O40 O 0.4816 0.92458 0.31004 0.0
O41 O 0.44543 0.70925 0.38473 0.0
O42 O 0.32095 0.79851 0.94448 0.0
Mg43 Mg 0.5714 0.77256 0.94151 0.0
O44 O 0.17972 0.54391 0.8664 0.0
Mg45 Mg 0.36264 0.40819 0.81464 0.0
O46 O 0.63819 0.70764 0.83659 0.0
O47 O 0.82351 -0.02448 0.90573 0.0
O48 O 0.54527 0.28162 0.75121 0.0
O49 O 0.33276 0.5097 0.70412 0.0
Mg50 Mg 0.09652 0.09601 0.68573 0.0
O51 O 0.07822 0.10996 0.79629 0.0
O52 O 0.34436 0.09045 0.66074 0.0
O53 O 0.08734 0.32442 0.63196 0.0
O54 O 0.87701 0.85646 0.72233 0.0
C55 C 0.4886 0.37637 -0.01013 0.0
C56 C 0.18337 0.63567 0.92767 0.0
C57 C 0.79202 0.87075 0.8451 0.0
C58 C 0.50675 0.17478 0.69045 0.0
C59 C 0.23774 0.47953 0.64489 0.0
C60 C -0.07707 -0.05276 0.78641 0.0
O61 O 0.55722 0.55745 0.00692 0.0
O62 O 0.41708 0.30134 0.92559 0.0
loop_
_geom_bond_atom_site_label_1
_geom_bond_atom_site_label_2
_geom_bond_distance
_geom_bond_site_symmetry_2
_ccdc_geom_bond_type
O0 Mg1 1.990 . S
O0 C14 1.255 . S
Mg1 O0 1.990 . S
Mg1 O4 2.180 1_655 S
Mg1 O5 2.117 1_545 S
Mg1 O19 2.030 1_654 S
O2 Mg3 2.072 1_655 S
O2 C14 1.260 . S
Mg3 O2 2.072 1_455 S
Mg3 O4 2.099 . S
Mg3 O6 2.079 . S
Mg3 O7 2.072 1_455 S
Mg3 O9 2.099 . S
Mg3 O20 2.079 . S
O4 Mg1 2.180 1_455 S
O4 Mg3 2.099 . S
O4 C15 1.279 1_445 S
O5 Mg1 2.117 1_565 S
O5 C15 1.250 . S
O6 Mg3 2.079 . S
O6 C16 1.264 . S
O7 Mg3 2.072 1_655 S
O7 C17 1.260 . S
Mg8 O9 2.180 . S
Mg8 O10 2.030 . S
Mg8 O11 1.990 1_455 S
Mg8 O12 2.117 1_455 S
O9 Mg3 2.099 . S
O9 Mg8 2.180 . S
O9 C18 1.279 1_455 S
O10 Mg8 2.030 . S
O10 C16 1.248 . S
O11 Mg8 1.990 1_655 S
O11 C17 1.253 . S
O12 Mg8 2.117 1_655 S
O12 C18 1.250 . S
C13 O19 1.248 1_554 S
C13 O20 1.264 . S
C14 O0 1.255 . S
C14 O2 1.260 . S
C15 O4 1.279 1_665 S
C15 O5 1.250 . S
C16 O6 1.264 . S
C16 O10 1.248 . S
C17 O7 1.260 . S
C17 O11 1.253 . S
C18 O9 1.279 1_655 S
C18 O12 1.250 . S
O19 Mg1 2.030 1_456 S
O19 C13 1.248 1_556 S
O20 Mg3 2.079 . S
O20 C13 1.264 . S
O21 Mg22 1.990 1_545 S
O21 C35 1.253 . S
Mg22 O21 1.990 1_565 S
Mg22 O25 2.180 . S
Mg22 O26 2.117 1_565 S
Mg22 O40 2.030 . S
O23 Mg24 2.072 1_545 S
O23 C35 1.260 . S
Mg24 O23 2.072 1_565 S
Mg24 O25 2.099 . S
Mg24 O27 2.079 . S
Mg24 O28 2.072 1_565 S
Mg24 O30 2.099 . S
Mg24 O41 2.079 . S
O25 Mg22 2.180 . S
O25 Mg24 2.099 . S
O25 C36 1.279 1_565 S
O26 Mg22 2.117 1_545 S
O26 C36 1.250 . S
O27 Mg24 2.079 . S
O27 C37 1.264 . S
O28 Mg24 2.072 1_545 S
O28 C38 1.260 . S
Mg29 O30 2.180 1_545 S
Mg29 O31 2.030 1_545 S
Mg29 O32 1.990 . S
Mg29 O33 2.117 1_655 S
O30 Mg24 2.099 . S
O30 Mg29 2.180 1_565 S
O30 C39 1.279 1_665 S
O31 Mg29 2.030 1_565 S
O31 C37 1.248 . S
O32 Mg29 1.990 . S
O32 C38 1.253 . S
O33 Mg29 2.117 1_455 S
O33 C39 1.250 . S
C34 O40 1.248 . S
C34 O41 1.264 . S
C35 O21 1.253 . S
C35 O23 1.260 . S
C36 O25 1.279 1_545 S
C36 O26 1.250 . S
C37 O27 1.264 . S
C37 O31 1.248 . S
C38 O28 1.260 . S
C38 O32 1.253 . S
C39 O30 1.279 1_445 S
C39 O33 1.250 . S
O40 Mg22 2.030 . S
O40 C34 1.248 . S
O41 Mg24 2.079 . S
O41 C34 1.264 . S
O42 Mg43 1.990 . S
O42 C56 1.253 . S
Mg43 O42 1.990 . S
Mg43 O46 2.180 . S
Mg43 O47 2.117 1_565 S
Mg43 O61 2.030 1_556 S
O44 Mg45 2.072 . S
O44 C56 1.260 . S
Mg45 O44 2.072 . S
Mg45 O46 2.099 . S
Mg45 O48 2.079 . S
Mg45 O49 2.072 . S
Mg45 O51 2.099 . S
Mg45 O62 2.079 . S
O46 Mg43 2.180 . S
O46 Mg45 2.099 . S
O46 C57 1.279 1_565 S
O47 Mg43 2.117 1_545 S
O47 C57 1.250 . S
O48 Mg45 2.079 . S
O48 C58 1.264 . S
O49 Mg45 2.072 . S
O49 C59 1.260 . S
Mg50 O51 2.180 . S
Mg50 O52 2.030 . S
Mg50 O53 1.990 . S
Mg50 O54 2.117 1_455 S
O51 Mg45 2.099 . S
O51 Mg50 2.180 . S
O51 C60 1.279 . S
O52 Mg50 2.030 . S
O52 C58 1.248 . S
O53 Mg50 1.990 . S
O53 C59 1.253 . S
O54 Mg50 2.117 1_655 S
O54 C60 1.250 1_655 S
C55 O61 1.248 1_556 S
C55 O62 1.264 . S
C56 O42 1.253 . S
C56 O44 1.260 . S
C57 O46 1.279 1_545 S
C57 O47 1.250 . S
C58 O48 1.264 . S
C58 O52 1.248 . S
C59 O49 1.260 . S
C59 O53 1.253 . S
C60 O51 1.279 . S
C60 O54 1.250 1_455 S
O61 Mg43 2.030 1_554 S
O61 C55 1.248 1_554 S
O62 Mg45 2.079 . S
O62 C55 1.264 . S
C18 C15 1.112 . S
C36 C39 1.112 . S
C57 C60 1.329 1_655 S
C56 C13 1.327 1_556 S
C35 C17 1.454 . S
C59 C37 1.327 . S
C55 C14 1.303 1_556 S
C16 C34 0.590 . S
C58 C38 1.302 . S
