# Generated by pormake.
# Topology unc, (4)-cn, num edge types: 1
# Building blocks:
#     Node 0, Type 0, BuildingBlock: CEKHIL_clean_sbu_0, # of connection points: 4
#     Node 1, Type 0, BuildingBlock: CEKHIL_clean_sbu_0, # of connection points: 4
#     Node 2, Type 0, BuildingBlock: CEKHIL_clean_sbu_0, # of connection points: 4
#     Node 3, Type 0, BuildingBlock: CEKHIL_clean_sbu_0, # of connection points: 4
#     Edge 4, Type (0, 0), BuildingBlock: CIFDUS_clean_linker_0, # of connection points: 2
#     Edge 5, Type (0, 0), BuildingBlock: CIFDUS_clean_linker_0, # of connection points: 2
#     Edge 6, Type (0, 0), BuildingBlock: CIFDUS_clean_linker_0, # of connection points: 2
#     Edge 7, Type (0, 0), BuildingBlock: CIFDUS_clean_linker_0, # of connection points: 2
#     Edge 8, Type (0, 0), BuildingBlock: CIFDUS_clean_linker_0, # of connection points: 2
#     Edge 9, Type (0, 0), BuildingBlock: CIFDUS_clean_linker_0, # of connection points: 2
#     Edge 10, Type (0, 0), BuildingBlock: CIFDUS_clean_linker_0, # of connection points: 2
#     Edge 11, Type (0, 0), BuildingBlock: CIFDUS_clean_linker_0, # of connection points: 2
# Relax obj value: 0.004
# Max RMSD: 0.040
# Mean RMSD: 0.040
data_MOF--net-unc--node1-CEKHIL_clean_sbu_0--edge1-CIFDUS_clean_linker_0
_symmetry_space_group_name_H-M    P1
_symmetry_Int_Tables_number       1
_symmetry_cell_setting            triclinic
loop_
_symmetry_equiv_pos_as_xyz
'x, y, z'
_cell_length_a     25.686477
_cell_length_b     25.860838
_cell_length_c     19.101202
_cell_angle_alpha  89.888861
_cell_angle_beta   89.920426
_cell_angle_gamma 93.07509
loop_
_atom_site_label
_atom_site_type_symbol
_atom_site_fract_x
_atom_site_fract_y
_atom_site_fract_z
_atom_type_partial_charge
Co0 Co 0.03021 0.69336 0.96973 0.0
O1 O 1.00723 0.74523 0.90531 0.0
O2 O 0.97597 0.73239 0.01212 0.0
C3 C 0.02841 0.6282 0.8896 0.0
O4 O 0.04153 0.64235 0.05004 0.0
Co5 Co 0.13392 0.6399 0.94512 0.0
O6 O 0.1126 0.59769 0.02788 0.0
C7 C 0.13653 0.74667 1.00082 0.0
C8 C 0.97429 0.75757 0.95318 0.0
C9 C 0.07349 0.60737 0.06588 0.0
O10 O 0.08655 0.74372 1.00871 0.0
O11 O 0.16136 0.71145 0.97024 0.0
O12 O 0.98613 0.64037 0.92163 0.0
O13 O 0.06911 0.65788 0.90304 0.0
Co14 Co 0.35394 0.03199 0.31821 0.0
O15 O 0.30291 0.04504 0.38923 0.0
O16 O 0.3134 0.09061 0.29197 0.0
C17 C 0.42075 0.02519 0.39504 0.0
O18 O 0.40474 0.03148 0.23466 0.0
Co19 Co 0.40739 0.92779 0.31686 0.0
O20 O 0.45105 0.96009 0.24192 0.0
C21 C 0.30275 0.93334 0.25423 0.0
C22 C 0.28954 0.08393 0.35179 0.0
C23 C 0.44082 1.00259 0.21254 0.0
O24 O 0.30276 0.98207 0.26817 0.0
O25 O 0.33967 0.90467 0.27176 0.0
O26 O 0.40723 0.06993 0.37272 0.0
O27 O 0.39109 0.98605 0.37473 0.0
Co28 Co 0.02236 0.35374 0.46982 0.0
O29 O 0.04461 0.30635 0.39993 0.0
O30 O 0.08199 0.31655 0.50333 0.0
C31 C 0.01743 0.42097 0.39336 0.0
O32 O 1.01015 0.40174 0.55335 0.0
Co33 Co 0.91287 0.39557 0.45363 0.0
O34 O 0.93373 0.43864 0.5354 0.0
C35 C 0.92234 0.29149 0.51228 0.0
C36 C 0.0814 0.29438 0.44206 0.0
C37 C 0.97476 0.43284 0.57142 0.0
O38 O 0.97229 0.29882 0.51174 0.0
O39 O 0.89147 0.32362 0.4863 0.0
O40 O 0.06113 0.41035 0.42258 0.0
O41 O 0.97882 0.38817 0.40667 0.0
Co42 Co 0.7009 0.01128 0.80767 0.0
O43 O 0.75274 0.98641 0.87036 0.0
O44 O 0.74107 0.95922 0.76172 0.0
C45 C 0.6341 1.00517 0.88609 0.0
O46 O 0.64963 0.02686 0.72922 0.0
Co47 Co 0.65177 0.11462 0.84318 0.0
O48 O 0.60831 0.09821 0.75966 0.0
C49 C 0.7563 0.1174 0.78055 0.0
C50 C 0.76612 0.9558 0.82068 0.0
C51 C 0.61582 0.06102 0.71771 0.0
O52 O 0.75148 0.06806 0.77155 0.0
O53 O 0.72313 0.1428 0.81449 0.0
O54 O 0.64767 0.96519 0.85084 0.0
O55 O 0.66456 0.04627 0.87831 0.0
H56 H 0.98469 0.56466 0.12896 0.0
H57 H 0.15119 0.58747 0.15436 0.0
H58 H 0.14731 0.53663 0.26182 0.0
H59 H 0.09858 0.48058 0.34356 0.0
H60 H 0.93312 0.4504 0.31665 0.0
H61 H 0.93436 0.50937 0.21563 0.0
C62 C 0.01985 0.55882 0.15865 0.0
C63 C 0.06823 0.57952 0.13357 0.0
C64 C 0.01758 0.52799 0.21992 0.0
C65 C 0.11361 0.57145 0.17218 0.0
C66 C 0.11144 0.54246 0.23373 0.0
C67 C 0.06255 0.48721 0.31622 0.0
C68 C 0.01586 0.46093 0.33756 0.0
C69 C 0.06391 0.51973 0.25732 0.0
C70 C 0.96964 0.47009 0.30127 0.0
C71 C 0.9704 0.50368 0.24333 0.0
H72 H 0.47815 0.10371 0.45433 0.0
H73 H 0.45606 0.93727 0.45639 0.0
H74 H 0.5183 0.93257 0.55331 0.0
H75 H 0.57435 0.97712 0.64387 0.0
H76 H 0.59028 0.1441 0.64272 0.0
H77 H 0.53555 0.14715 0.53918 0.0
C78 C 0.48723 0.06626 0.47538 0.0
C79 C 0.46226 0.02095 0.44837 0.0
C80 C 0.52187 0.06401 0.53186 0.0
C81 C 0.47464 0.9728 0.47638 0.0
C82 C 0.51013 0.97013 0.53195 0.0
C83 C 0.56619 0.01399 0.62029 0.0
C84 C 0.58599 0.06034 0.65134 0.0
C85 C 0.53331 0.01562 0.56112 0.0
C86 C 0.57496 0.10791 0.62045 0.0
C87 C 0.54373 0.10975 0.56108 0.0
H88 H 0.94562 0.57035 0.83906 0.0
H89 H 0.1124 0.59358 0.81857 0.0
H90 H 0.11197 0.53156 0.72186 0.0
H91 H 0.06276 0.47521 0.63659 0.0
H92 H 0.89544 0.45646 0.6562 0.0
H93 H 0.89765 0.51146 0.75938 0.0
C94 C 0.98197 0.56145 0.814 0.0
C95 C 0.02887 0.5868 0.83585 0.0
C96 C 0.98133 0.52654 0.75762 0.0
C97 C 0.07563 0.57478 0.80263 0.0
C98 C 0.07542 0.53933 0.74716 0.0
C99 C 0.02701 0.4827 0.66412 0.0
C100 C 0.979 0.46209 0.6382 0.0
C101 C 0.02833 0.51561 0.7232 0.0
C102 C 0.9329 0.47237 0.67436 0.0
C103 C 0.93405 0.50381 0.73357 0.0
H104 H 0.4625 0.93823 0.1083 0.0
H105 H 0.4866 0.09712 0.17293 0.0
H106 H 0.5471 0.1137 0.07426 0.0
H107 H 0.59904 0.0798 0.97522 0.0
H108 H 0.57098 0.92034 0.91255 0.0
H109 H 0.50603 0.90739 1.00428 0.0
C110 C 0.48057 0.9767 0.10032 0.0
C111 C 0.47067 0.01626 0.14807 0.0
C112 C 0.51495 0.98569 0.04399 0.0
C113 C 0.49363 0.06609 0.13668 0.0
C114 C 0.52845 0.07539 0.08058 0.0
C115 C 0.57825 0.04245 0.98129 0.0
C116 C 0.5906 1.00089 0.93751 0.0
C117 C 0.54038 0.03507 0.03472 0.0
C118 C 0.56287 0.95289 0.9457 0.0
C119 C 0.52561 0.94533 0.9983 0.0
H120 H 0.3166 0.88967 0.12976 0.0
H121 H 0.19705 0.92322 0.27839 0.0
H122 H 0.13212 0.87216 0.20874 0.0
H123 H 0.11228 0.81028 0.11091 0.0
H124 H 0.23419 0.78024 0.96272 0.0
H125 H 0.29479 0.83829 0.02585 0.0
C126 C 0.2761 0.88632 0.14628 0.0
C127 C 0.26148 0.90946 0.20914 0.0
C128 C 0.23945 0.85738 0.10601 0.0
C129 C 0.20899 0.90554 0.23 0.0
C130 C 0.17205 0.87622 0.19032 0.0
C131 C 0.15175 0.81736 0.09166 0.0
C132 C 0.16872 0.79006 0.03262 0.0
C133 C 0.1871 0.85087 0.1289 0.0
C134 C 0.22012 0.79989 1.0085 0.0
C135 C 0.255 0.8331 0.04465 0.0
H136 H 0.24089 0.15959 0.28081 0.0
H137 H 0.25291 0.09006 0.48517 0.0
H138 H 0.19254 0.15058 0.53303 0.0
H139 H 0.13461 0.22328 0.51684 0.0
H140 H 0.11859 0.2884 0.31057 0.0
H141 H 0.18202 0.23054 0.26411 0.0
C142 C 0.23023 0.15767 0.33575 0.0
C143 C 0.25143 0.12023 0.3791 0.0
C144 C 0.19471 0.1922 0.36296 0.0
C145 C 0.237 0.11824 0.45028 0.0
C146 C 0.20254 0.15304 0.47794 0.0
C147 C 0.14541 0.2249 0.46195 0.0
C148 C 0.12204 0.26013 0.41732 0.0
C149 C 0.18101 0.19024 0.43484 0.0
C150 C 0.13587 0.26142 0.346 0.0
C151 C 0.17218 0.22833 0.31927 0.0
H152 H 0.7862 0.10676 0.64556 0.0
H153 H 0.81856 0.19703 0.83138 0.0
H154 H 0.87892 0.25526 0.76531 0.0
H155 H 0.91506 0.28581 0.65211 0.0
H156 H 0.87455 0.20195 0.46377 0.0
H157 H 0.82507 0.13567 0.53268 0.0
C158 C 0.80747 0.13853 0.67174 0.0
C159 C 0.7985 0.14741 0.74334 0.0
C160 C 0.84015 0.17322 0.63256 0.0
C161 C 0.82514 0.18941 0.77642 0.0
C162 C 0.85943 0.22274 0.73857 0.0
C163 C 0.89619 0.25234 0.62661 0.0
C164 C 0.89879 0.24802 0.55341 0.0
C165 C 0.8662 0.21584 0.66632 0.0
C166 C 0.87336 0.20546 0.52024 0.0
C167 C 0.84498 0.16784 0.55963 0.0
H168 H 0.80284 0.924 0.94559 0.0
H169 H 0.82018 0.90217 0.72313 0.0
H170 H 0.88755 0.84035 0.74456 0.0
H171 H 0.94112 0.7921 0.82695 0.0
H172 H 0.91931 0.81045 0.04933 0.0
H173 H 0.85416 0.87418 0.02754 0.0
C174 C 0.82147 0.90589 0.90167 0.0
C175 C 0.80675 0.91801 0.83274 0.0
C176 C 0.85939 0.86978 0.91449 0.0
C177 C 0.8308 0.8936 0.7766 0.0
C178 C 0.86937 0.85831 0.78889 0.0
C179 C 0.9223 0.81029 0.87064 0.0
C180 C 0.93539 0.79684 0.93977 0.0
C181 C 0.88399 0.8461 0.85764 0.0
C182 C 0.91006 0.82015 0.99573 0.0
C183 C 0.8728 0.8566 0.98327 0.0
loop_
_geom_bond_atom_site_label_1
_geom_bond_atom_site_label_2
_geom_bond_distance
_geom_bond_site_symmetry_2
_ccdc_geom_bond_type
Co0 O1 2.216 1_554 S
Co0 O2 2.091 . S
Co0 O4 2.004 . S
Co0 O10 2.021 1_655 S
Co0 O12 2.137 1_554 S
Co0 O13 2.244 1_654 S
O1 Co0 2.216 1_556 S
O1 C8 1.247 . S
O2 Co0 2.091 . S
O2 C8 1.261 1_554 S
C3 O12 1.247 1_455 S
C3 O13 1.272 . S
O4 Co0 2.004 . S
O4 C9 1.259 1_655 S
Co5 O6 2.061 . S
Co5 O11 2.052 . S
Co5 O13 2.135 1_554 S
O6 Co5 2.061 . S
O6 C9 1.235 . S
C7 O10 1.238 . S
C7 O11 1.241 . S
C8 O1 1.247 . S
C8 O2 1.261 1_556 S
C9 O4 1.259 1_455 S
C9 O6 1.235 . S
O10 Co0 2.021 1_455 S
O10 C7 1.238 . S
O11 Co5 2.052 . S
O11 C7 1.241 . S
O12 Co0 2.137 1_556 S
O12 C3 1.247 1_655 S
O13 Co0 2.244 1_456 S
O13 C3 1.272 . S
O13 Co5 2.135 1_556 S
Co14 O15 2.216 . S
Co14 O16 2.091 . S
Co14 O18 2.004 . S
Co14 O24 2.021 1_545 S
Co14 O26 2.137 . S
Co14 O27 2.244 1_545 S
O15 Co14 2.216 . S
O15 C22 1.247 . S
O16 Co14 2.091 . S
O16 C22 1.261 . S
C17 O26 1.247 . S
C17 O27 1.272 1_545 S
O18 Co14 2.004 . S
O18 C23 1.259 . S
Co19 O20 2.061 . S
Co19 O25 2.052 . S
Co19 O27 2.135 . S
O20 Co19 2.061 . S
O20 C23 1.235 1_565 S
C21 O24 1.238 . S
C21 O25 1.241 . S
C22 O15 1.247 . S
C22 O16 1.261 . S
C23 O18 1.259 . S
C23 O20 1.235 1_545 S
O24 Co14 2.021 1_565 S
O24 C21 1.238 . S
O25 Co19 2.052 . S
O25 C21 1.241 . S
O26 Co14 2.137 . S
O26 C17 1.247 . S
O27 Co14 2.244 1_565 S
O27 C17 1.272 1_565 S
O27 Co19 2.135 . S
Co28 O29 2.216 . S
Co28 O30 2.091 . S
Co28 O32 2.004 . S
Co28 O38 2.021 1_455 S
Co28 O40 2.137 . S
Co28 O41 2.244 1_455 S
O29 Co28 2.216 . S
O29 C36 1.247 . S
O30 Co28 2.091 . S
O30 C36 1.261 . S
C31 O40 1.247 . S
C31 O41 1.272 1_455 S
O32 Co28 2.004 . S
O32 C37 1.259 . S
Co33 O34 2.061 . S
Co33 O39 2.052 . S
Co33 O41 2.135 . S
O34 Co33 2.061 . S
O34 C37 1.235 1_655 S
C35 O38 1.238 . S
C35 O39 1.241 . S
C36 O29 1.247 . S
C36 O30 1.261 . S
C37 O32 1.259 . S
C37 O34 1.235 1_455 S
O38 Co28 2.021 1_655 S
O38 C35 1.238 . S
O39 Co33 2.052 . S
O39 C35 1.241 . S
O40 Co28 2.137 . S
O40 C31 1.247 . S
O41 Co28 2.244 1_655 S
O41 C31 1.272 1_655 S
O41 Co33 2.135 . S
Co42 O43 2.216 . S
Co42 O44 2.091 . S
Co42 O46 2.004 . S
Co42 O52 2.021 1_565 S
Co42 O54 2.137 . S
Co42 O55 2.244 1_565 S
O43 Co42 2.216 . S
O43 C50 1.247 . S
O44 Co42 2.091 . S
O44 C50 1.261 . S
C45 O54 1.247 1_545 S
C45 O55 1.272 . S
O46 Co42 2.004 . S
O46 C51 1.259 1_565 S
Co47 O48 2.061 . S
Co47 O53 2.052 . S
Co47 O55 2.135 . S
O48 Co47 2.061 . S
O48 C51 1.235 . S
C49 O52 1.238 . S
C49 O53 1.241 . S
C50 O43 1.247 . S
C50 O44 1.261 . S
C51 O46 1.259 1_545 S
C51 O48 1.235 . S
O52 Co42 2.021 1_545 S
O52 C49 1.238 . S
O53 Co47 2.052 . S
O53 C49 1.241 . S
O54 Co42 2.137 . S
O54 C45 1.247 1_565 S
O55 Co42 2.244 1_545 S
O55 C45 1.272 . S
O55 Co47 2.135 . S
H56 C62 0.930 . S
H57 C65 0.930 . S
H58 C66 0.930 . S
H59 C67 0.930 . S
H60 C70 0.930 . S
H61 C71 0.930 . S
C62 H56 0.930 . S
C62 C63 1.355 1_655 S
C62 C64 1.413 1_655 S
C63 C62 1.355 1_455 S
C63 C65 1.419 . S
C64 C62 1.413 1_455 S
C64 C69 1.431 . S
C64 C71 1.406 1_455 S
C65 H57 0.930 . S
C65 C63 1.419 . S
C65 C66 1.362 . S
C66 H58 0.930 . S
C66 C65 1.362 . S
C66 C69 1.409 . S
C67 H59 0.930 . S
C67 C68 1.355 . S
C67 C69 1.415 . S
C68 C67 1.355 . S
C68 C70 1.419 1_455 S
C69 C64 1.431 . S
C69 C66 1.409 . S
C69 C67 1.415 . S
C70 H60 0.930 . S
C70 C68 1.419 1_655 S
C70 C71 1.362 . S
C71 H61 0.930 . S
C71 C64 1.406 1_655 S
C71 C70 1.362 . S
H72 C78 0.930 . S
H73 C81 0.930 . S
H74 C82 0.930 . S
H75 C83 0.930 . S
H76 C86 0.930 . S
H77 C87 0.930 . S
C78 H72 0.930 . S
C78 C79 1.355 . S
C78 C80 1.415 . S
C79 C78 1.355 . S
C79 C81 1.419 1_545 S
C80 C78 1.415 . S
C80 C85 1.425 1_545 S
C80 C87 1.409 . S
C81 H73 0.930 . S
C81 C79 1.419 1_565 S
C81 C82 1.362 . S
C82 H74 0.930 . S
C82 C81 1.362 . S
C82 C85 1.409 . S
C83 H75 0.930 . S
C83 C84 1.355 1_565 S
C83 C85 1.415 . S
C84 C83 1.355 1_545 S
C84 C86 1.419 . S
C85 C80 1.425 1_565 S
C85 C82 1.409 . S
C85 C83 1.415 . S
C86 H76 0.930 . S
C86 C84 1.419 . S
C86 C87 1.362 . S
C87 H77 0.930 . S
C87 C80 1.409 . S
C87 C86 1.362 . S
H88 C94 0.931 . S
H89 C97 0.930 . S
H90 C98 0.930 . S
H91 C99 0.930 . S
H92 C102 0.930 . S
H93 C103 0.930 . S
C94 H88 0.931 . S
C94 C95 1.354 1_655 S
C94 C96 1.414 1_655 S
C95 C94 1.354 1_455 S
C95 C97 1.419 . S
C96 C94 1.414 1_455 S
C96 C101 1.425 . S
C96 C103 1.409 1_455 S
C97 H89 0.930 . S
C97 C95 1.419 . S
C97 C98 1.362 . S
C98 H90 0.930 . S
C98 C97 1.362 . S
C98 C101 1.409 . S
C99 H91 0.930 . S
C99 C100 1.355 . S
C99 C101 1.415 . S
C100 C99 1.355 . S
C100 C102 1.419 1_455 S
C101 C96 1.425 . S
C101 C98 1.409 . S
C101 C99 1.415 . S
C102 H92 0.930 . S
C102 C100 1.419 1_655 S
C102 C103 1.362 . S
C103 H93 0.930 . S
C103 C96 1.409 1_655 S
C103 C102 1.362 . S
H104 C110 0.930 1_565 S
H105 C113 0.930 . S
H106 C114 0.930 . S
H107 C115 0.930 . S
H108 C118 0.930 . S
H109 C119 0.930 . S
C110 H104 0.930 1_545 S
C110 C111 1.355 . S
C110 C112 1.415 1_554 S
C111 C110 1.355 . S
C111 C113 1.419 . S
C112 C110 1.415 1_556 S
C112 C117 1.425 1_556 S
C112 C119 1.409 1_545 S
C113 H105 0.930 . S
C113 C111 1.419 . S
C113 C114 1.362 . S
C114 H106 0.930 . S
C114 C113 1.362 . S
C114 C117 1.409 . S
C115 H107 0.930 . S
C115 C116 1.355 . S
C115 C117 1.415 1_556 S
C116 C115 1.355 . S
C116 C118 1.419 1_545 S
C117 C112 1.425 1_554 S
C117 C114 1.409 . S
C117 C115 1.415 1_554 S
C118 H108 0.930 . S
C118 C116 1.419 1_565 S
C118 C119 1.362 . S
C119 H109 0.930 . S
C119 C112 1.409 1_565 S
C119 C118 1.362 . S
H120 C126 0.930 . S
H121 C129 0.930 . S
H122 C130 0.930 . S
H123 C131 0.930 . S
H124 C134 0.930 . S
H125 C135 0.930 . S
C126 H120 0.930 . S
C126 C127 1.355 . S
C126 C128 1.415 . S
C127 C126 1.355 . S
C127 C129 1.419 . S
C128 C126 1.415 . S
C128 C133 1.425 . S
C128 C135 1.409 . S
C129 H121 0.930 . S
C129 C127 1.419 . S
C129 C130 1.362 . S
C130 H122 0.930 . S
C130 C129 1.362 . S
C130 C133 1.409 . S
C131 H123 0.930 . S
C131 C132 1.355 . S
C131 C133 1.415 . S
C132 C131 1.355 . S
C132 C134 1.419 . S
C133 C128 1.425 . S
C133 C130 1.409 . S
C133 C131 1.415 . S
C134 H124 0.930 . S
C134 C132 1.419 . S
C134 C135 1.362 . S
C135 H125 0.930 . S
C135 C128 1.409 . S
C135 C134 1.362 . S
H136 C142 0.930 . S
H137 C145 0.930 . S
H138 C146 0.930 . S
H139 C147 0.930 . S
H140 C150 0.930 . S
H141 C151 0.930 . S
C142 H136 0.930 . S
C142 C143 1.355 . S
C142 C144 1.415 . S
C143 C142 1.355 . S
C143 C145 1.419 . S
C144 C142 1.415 . S
C144 C149 1.425 . S
C144 C151 1.409 . S
C145 H137 0.930 . S
C145 C143 1.419 . S
C145 C146 1.362 . S
C146 H138 0.930 . S
C146 C145 1.362 . S
C146 C149 1.409 . S
C147 H139 0.930 . S
C147 C148 1.355 . S
C147 C149 1.415 . S
C148 C147 1.355 . S
C148 C150 1.419 . S
C149 C144 1.425 . S
C149 C146 1.409 . S
C149 C147 1.415 . S
C150 H140 0.930 . S
C150 C148 1.419 . S
C150 C151 1.362 . S
C151 H141 0.930 . S
C151 C144 1.409 . S
C151 C150 1.362 . S
H152 C158 0.930 . S
H153 C161 0.930 . S
H154 C162 0.930 . S
H155 C163 0.930 . S
H156 C166 0.930 . S
H157 C167 0.930 . S
C158 H152 0.930 . S
C158 C159 1.355 . S
C158 C160 1.415 . S
C159 C158 1.355 . S
C159 C161 1.419 . S
C160 C158 1.415 . S
C160 C165 1.425 . S
C160 C167 1.409 . S
C161 H153 0.930 . S
C161 C159 1.419 . S
C161 C162 1.362 . S
C162 H154 0.930 . S
C162 C161 1.362 . S
C162 C165 1.409 . S
C163 H155 0.930 . S
C163 C164 1.355 . S
C163 C165 1.415 . S
C164 C163 1.355 . S
C164 C166 1.419 . S
C165 C160 1.425 . S
C165 C162 1.409 . S
C165 C163 1.415 . S
C166 H156 0.930 . S
C166 C164 1.419 . S
C166 C167 1.362 . S
C167 H157 0.930 . S
C167 C160 1.409 . S
C167 C166 1.362 . S
H168 C174 0.930 . S
H169 C177 0.930 . S
H170 C178 0.930 . S
H171 C179 0.930 . S
H172 C182 0.930 1_554 S
H173 C183 0.930 . S
C174 H168 0.930 . S
C174 C175 1.355 . S
C174 C176 1.415 . S
C175 C174 1.355 . S
C175 C177 1.419 . S
C176 C174 1.415 . S
C176 C181 1.425 . S
C176 C183 1.409 . S
C177 H169 0.930 . S
C177 C175 1.419 . S
C177 C178 1.362 . S
C178 H170 0.930 . S
C178 C177 1.362 . S
C178 C181 1.409 . S
C179 H171 0.930 . S
C179 C180 1.355 . S
C179 C181 1.415 . S
C180 C179 1.355 . S
C180 C182 1.419 . S
C181 C176 1.425 . S
C181 C178 1.409 . S
C181 C179 1.415 . S
C182 H172 0.930 1_556 S
C182 C180 1.419 . S
C182 C183 1.362 . S
C183 H173 0.930 . S
C183 C176 1.409 . S
C183 C182 1.362 . S
C63 C9 1.416 . S
C68 C31 1.426 . S
C79 C17 1.430 . S
C84 C51 1.383 . S
C95 C3 1.433 . S
C100 C37 1.396 . S
C111 C23 1.398 . S
C116 C45 1.419 . S
C127 C21 1.486 . S
C132 C7 1.440 . S
C143 C22 1.484 . S
C148 C36 1.479 . S
C159 C49 1.484 . S
C164 C35 1.445 . S
C175 C50 1.487 . S
C180 C8 1.489 . S
