# Generated by pormake.
# Topology pcu, (6)-cn, num edge types: 1
# Building blocks:
#     Node 0, Type 0, BuildingBlock: MIFKUJ_clean_sbu_0, # of connection points: 6
#     Edge 1, Type (0, 0), BuildingBlock: FUNLAD_clean_linker_1, # of connection points: 2
#     Edge 2, Type (0, 0), BuildingBlock: FUNLAD_clean_linker_1, # of connection points: 2
#     Edge 3, Type (0, 0), BuildingBlock: FUNLAD_clean_linker_1, # of connection points: 2
# Relax obj value: 0.000
# Max RMSD: 0.000
# Mean RMSD: 0.000
data_MOF--net-pcu--node1-MIFKUJ_clean_sbu_0--edge1-FUNLAD_clean_linker_1
_symmetry_space_group_name_H-M    P1
_symmetry_Int_Tables_number       1
_symmetry_cell_setting            triclinic
loop_
_symmetry_equiv_pos_as_xyz
'x, y, z'
_cell_length_a     17.115684
_cell_length_b     18.68583
_cell_length_c     15.03261
_cell_angle_alpha  96.257774
_cell_angle_beta   90.772636
_cell_angle_gamma 109.45365
loop_
_atom_site_label
_atom_site_type_symbol
_atom_site_fract_x
_atom_site_fract_y
_atom_site_fract_z
_atom_type_partial_charge
Zn0 Zn 0.03638 0.91108 0.96797 0.0
Zn1 Zn 1.02271 0.07627 -0.01197 0.0
C2 C 0.20888 0.93891 0.95006 0.0
O3 O 0.178 0.88191 0.88606 0.0
C4 C 0.85021 0.04845 0.00594 0.0
O5 O 0.88109 0.10544 0.06994 0.0
O6 O 1.02104 0.7986 0.96097 0.0
O7 O 0.97321 0.93185 0.07407 0.0
O8 O 0.05286 0.05177 0.10859 0.0
C9 C 0.04291 0.77702 0.03181 0.0
O10 O 0.07107 0.82715 0.10305 0.0
O11 O 0.15978 0.96476 -0.00464 0.0
C12 C 1.01618 0.21033 0.92419 0.0
O13 O 0.98802 0.1602 0.85295 0.0
O14 O 0.03805 0.18875 -0.00497 0.0
O15 O 0.08588 0.0555 0.88193 0.0
O16 O 1.00623 0.93558 0.84741 0.0
O17 O 0.89931 0.0226 0.96064 0.0
C18 C 1.00873 0.98816 0.1326 0.0
C19 C 0.05036 -0.00081 0.8234 0.0
H20 H 0.96419 0.92 0.24359 0.0
C21 C 1.00207 0.97615 0.22774 0.0
H22 H 0.08055 0.08676 0.28081 0.0
H23 H 0.92263 0.04158 0.66233 0.0
H24 H 0.85843 0.12809 0.60997 0.0
H25 H 0.87579 0.16299 0.45601 0.0
H26 H 0.95736 0.1113 0.35339 0.0
C27 C 0.04353 0.02972 0.2944 0.0
C28 C 0.03785 0.01243 0.38881 0.0
C29 C 0.99151 0.04439 0.44839 0.0
C30 C 0.98248 0.02507 0.53749 0.0
C31 C 0.93333 0.05573 0.59466 0.0
C32 C 0.89564 0.10512 0.56527 0.0
C33 C 0.90532 0.12469 0.47856 0.0
C34 C 0.95238 0.09467 0.4204 0.0
H35 H 0.0949 0.06735 0.71241 0.0
C36 C 0.05702 0.0112 0.72826 0.0
H37 H 0.97854 0.90059 0.67518 0.0
H38 H 0.13646 0.94577 0.29367 0.0
H39 H 0.20066 0.85926 0.34603 0.0
H40 H 0.1833 0.82436 0.49999 0.0
H41 H 0.10173 0.87605 0.60261 0.0
C42 C 1.01556 0.95764 0.6616 0.0
C43 C 1.02124 0.97492 0.56719 0.0
C44 C 0.06758 0.94296 0.50761 0.0
C45 C 0.07661 0.96228 0.41851 0.0
C46 C 0.12576 0.93162 0.36134 0.0
C47 C 0.16345 0.88223 0.39073 0.0
C48 C 0.15376 0.86266 0.47744 0.0
C49 C 0.10671 0.89268 0.5356 0.0
H50 H 0.32264 0.01763 0.02509 0.0
C51 C 0.29909 0.96972 0.9727 0.0
H52 H 0.32902 0.89112 0.87919 0.0
H53 H 0.70657 0.09005 0.86406 0.0
H54 H 0.65231 0.103 0.71936 0.0
H55 H 0.50171 0.05397 0.68124 0.0
H56 H 0.40445 0.99218 0.78807 0.0
C57 C 0.35169 0.93805 0.93284 0.0
C58 C 0.44254 0.96734 0.95683 0.0
C59 C 0.49882 0.0019 0.89298 0.0
C60 C 0.58583 0.02901 0.91443 0.0
C61 C 0.64015 0.06626 0.85061 0.0
C62 C 0.60978 0.07463 0.76737 0.0
C63 C 0.525 0.04711 0.74594 0.0
C64 C 0.46986 0.01149 0.80784 0.0
H65 H 0.73645 0.96972 0.93091 0.0
C66 C 0.76 0.01763 -0.0167 0.0
H67 H 0.73007 0.09624 0.07681 0.0
H68 H 0.35252 0.8973 0.09194 0.0
H69 H 0.40678 0.88436 0.23664 0.0
H70 H 0.55737 0.93339 0.27476 0.0
H71 H 0.65464 -0.00483 0.16794 0.0
C72 C 0.7074 0.0493 0.02316 0.0
C73 C 0.61655 0.02002 -0.00082 0.0
C74 C 0.56027 0.98546 0.06302 0.0
C75 C 0.47326 0.95834 0.04158 0.0
C76 C 0.41894 0.92109 0.10539 0.0
C77 C 0.44931 0.91272 0.18864 0.0
C78 C 0.53409 0.94025 0.21006 0.0
C79 C 0.58923 0.97587 0.14816 0.0
H80 H 0.0579 0.68304 0.09874 0.0
C81 C 0.03984 0.69764 0.03536 0.0
H82 H 1.00353 0.6583 0.89897 0.0
H83 H 0.16828 0.39965 0.8998 0.0
H84 H 0.26349 0.48802 0.81169 0.0
H85 H 0.24966 0.61315 0.79467 0.0
H86 H 0.1407 0.65075 0.86591 0.0
C87 C 1.01838 0.64411 0.96385 0.0
C88 C 1.02278 0.56649 0.96983 0.0
C89 C 0.08574 0.54474 0.92617 0.0
C90 C 0.09303 0.47215 0.935 0.0
C91 C 0.15847 0.45316 0.89343 0.0
C92 C 0.21396 0.50361 0.84314 0.0
C93 C 0.20624 0.57409 0.83364 0.0
C94 C 0.14326 0.59487 0.87479 0.0
H95 H 1.00119 0.30431 0.85726 0.0
C96 C 1.01925 0.28971 0.92064 0.0
H97 H 0.05556 0.32905 0.05703 0.0
H98 H 0.89081 0.5877 0.0562 0.0
H99 H 0.7956 0.49933 0.14431 0.0
H100 H 0.80943 0.3742 0.16133 0.0
H101 H 0.91839 0.3366 0.09009 0.0
C102 C 0.04071 0.34324 -0.00785 0.0
C103 C 0.03631 0.42086 -0.01383 0.0
C104 C 0.97335 0.44261 0.02982 0.0
C105 C 0.96606 0.5152 0.02099 0.0
C106 C 0.90062 0.53419 0.06257 0.0
C107 C 0.84513 0.48375 0.11286 0.0
C108 C 0.85285 0.41326 0.12236 0.0
C109 C 0.91583 0.39248 0.08121 0.0
loop_
_geom_bond_atom_site_label_1
_geom_bond_atom_site_label_2
_geom_bond_distance
_geom_bond_site_symmetry_2
_ccdc_geom_bond_type
Zn0 O6 1.969 . S
Zn0 O7 1.965 1_456 S
Zn0 O11 2.024 1_556 S
Zn0 O16 1.969 . S
Zn1 O8 1.969 . S
Zn1 O14 1.969 . S
Zn1 O15 1.965 1_654 S
Zn1 O17 2.024 1_554 S
C2 O3 1.229 . S
C2 O11 1.058 1_556 S
O3 C2 1.229 . S
C4 O5 1.229 . S
C4 O17 1.058 1_554 S
O5 C4 1.229 . S
O6 Zn0 1.969 . S
O6 C9 1.267 1_556 S
O7 Zn0 1.965 1_654 S
O7 C18 1.266 . S
O8 Zn1 1.969 . S
O8 C18 1.249 1_545 S
C9 O6 1.267 1_554 S
C9 O10 1.228 . S
O10 C9 1.228 . S
O11 Zn0 2.024 1_554 S
O11 C2 1.058 1_554 S
C12 O13 1.228 . S
C12 O14 1.267 1_556 S
O13 C12 1.228 . S
O14 Zn1 1.969 . S
O14 C12 1.267 1_554 S
O15 Zn1 1.965 1_456 S
O15 C19 1.269 . S
O16 Zn0 1.969 . S
O16 C19 1.245 1_565 S
O17 Zn1 2.024 1_556 S
O17 C4 1.058 1_556 S
C18 O7 1.266 . S
C18 O8 1.249 1_565 S
C19 O15 1.269 . S
C19 O16 1.245 1_545 S
H20 C21 0.951 . S
C21 H20 0.951 . S
C21 C27 1.265 1_665 S
H22 C27 0.950 . S
H23 C31 0.949 . S
H24 C32 0.950 . S
H25 C33 0.948 . S
H26 C34 0.951 . S
C27 C21 1.265 1_445 S
C27 H22 0.950 . S
C27 C28 1.478 . S
C28 C27 1.478 . S
C28 C29 1.397 . S
C28 C45 1.394 1_545 S
C29 C28 1.397 . S
C29 C30 1.438 1_455 S
C29 C34 1.429 . S
C30 C29 1.438 1_655 S
C30 C31 1.428 . S
C30 C43 1.394 1_545 S
C31 H23 0.949 . S
C31 C30 1.428 . S
C31 C32 1.345 . S
C32 H24 0.950 . S
C32 C31 1.345 . S
C32 C33 1.424 . S
C33 H25 0.948 . S
C33 C32 1.424 . S
C33 C34 1.347 1_655 S
C34 H26 0.951 . S
C34 C29 1.429 . S
C34 C33 1.347 1_455 S
H35 C36 0.951 . S
C36 H35 0.951 . S
C36 C42 1.265 1_445 S
H37 C42 0.950 . S
H38 C46 0.949 . S
H39 C47 0.950 . S
H40 C48 0.947 . S
H41 C49 0.951 . S
C42 C36 1.265 1_665 S
C42 H37 0.950 . S
C42 C43 1.478 . S
C43 C30 1.394 1_565 S
C43 C42 1.478 . S
C43 C44 1.397 . S
C44 C43 1.397 . S
C44 C45 1.438 1_655 S
C44 C49 1.429 . S
C45 C28 1.394 1_565 S
C45 C44 1.438 1_455 S
C45 C46 1.428 . S
C46 H38 0.949 . S
C46 C45 1.428 . S
C46 C47 1.345 . S
C47 H39 0.950 . S
C47 C46 1.345 . S
C47 C48 1.424 . S
C48 H40 0.947 . S
C48 C47 1.424 . S
C48 C49 1.347 1_455 S
C49 H41 0.951 . S
C49 C44 1.429 . S
C49 C48 1.347 1_655 S
H50 C51 0.951 . S
C51 H50 0.951 . S
C51 C57 1.265 1_546 S
H52 C57 0.950 . S
H53 C61 0.949 . S
H54 C62 0.950 . S
H55 C63 0.951 . S
H56 C64 0.951 . S
C57 C51 1.265 1_564 S
C57 H52 0.950 . S
C57 C58 1.478 . S
C58 C57 1.478 . S
C58 C59 1.397 1_554 S
C58 C75 1.394 1_565 S
C59 C58 1.397 1_556 S
C59 C60 1.438 . S
C59 C64 1.429 . S
C60 C59 1.438 . S
C60 C61 1.428 . S
C60 C73 1.394 1_565 S
C61 H53 0.949 . S
C61 C60 1.428 . S
C61 C62 1.345 . S
C62 H54 0.950 . S
C62 C61 1.345 . S
C62 C63 1.424 . S
C63 H55 0.951 . S
C63 C62 1.424 . S
C63 C64 1.347 . S
C64 H56 0.951 . S
C64 C59 1.429 . S
C64 C63 1.347 . S
H65 C66 0.951 . S
C66 H65 0.951 . S
C66 C72 1.265 1_564 S
H67 C72 0.950 . S
H68 C76 0.949 . S
H69 C77 0.950 . S
H70 C78 0.951 . S
H71 C79 0.951 . S
C72 C66 1.265 1_546 S
C72 H67 0.950 . S
C72 C73 1.478 . S
C73 C60 1.394 1_545 S
C73 C72 1.478 . S
C73 C74 1.397 1_556 S
C74 C73 1.397 1_554 S
C74 C75 1.438 . S
C74 C79 1.429 . S
C75 C58 1.394 1_545 S
C75 C74 1.438 . S
C75 C76 1.428 . S
C76 H68 0.949 . S
C76 C75 1.428 . S
C76 C77 1.345 . S
C77 H69 0.950 . S
C77 C76 1.345 . S
C77 C78 1.424 . S
C78 H70 0.951 . S
C78 C77 1.424 . S
C78 C79 1.347 . S
C79 H71 0.951 . S
C79 C74 1.429 . S
C79 C78 1.347 . S
H80 C81 0.951 . S
C81 H80 0.951 . S
C81 C87 1.265 1_454 S
H82 C87 0.950 . S
H83 C91 0.949 1_455 S
H84 C92 0.950 . S
H85 C93 0.951 . S
H86 C94 0.951 . S
C87 C81 1.265 1_656 S
C87 H82 0.950 . S
C87 C88 1.478 . S
C88 C87 1.478 . S
C88 C89 1.397 . S
C88 C105 1.394 1_656 S
C89 C88 1.397 . S
C89 C90 1.438 . S
C89 C94 1.429 . S
C90 C89 1.438 . S
C90 C91 1.428 . S
C90 C103 1.394 1_656 S
C91 H83 0.949 1_655 S
C91 C90 1.428 . S
C91 C92 1.345 . S
C92 H84 0.950 . S
C92 C91 1.345 . S
C92 C93 1.424 . S
C93 H85 0.951 . S
C93 C92 1.424 . S
C93 C94 1.347 . S
C94 H86 0.951 . S
C94 C89 1.429 . S
C94 C93 1.347 . S
H95 C96 0.951 . S
C96 H95 0.951 . S
C96 C102 1.265 1_656 S
H97 C102 0.950 . S
H98 C106 0.949 1_655 S
H99 C107 0.950 . S
H100 C108 0.951 . S
H101 C109 0.951 . S
C102 C96 1.265 1_454 S
C102 H97 0.950 . S
C102 C103 1.478 . S
C103 C90 1.394 1_454 S
C103 C102 1.478 . S
C103 C104 1.397 . S
C104 C103 1.397 . S
C104 C105 1.438 . S
C104 C109 1.429 . S
C105 C88 1.394 1_454 S
C105 C104 1.438 . S
C105 C106 1.428 . S
C106 H98 0.949 1_455 S
C106 C105 1.428 . S
C106 C107 1.345 . S
C107 H99 0.950 . S
C107 C106 1.345 . S
C107 C108 1.424 . S
C108 H100 0.951 . S
C108 C107 1.424 . S
C108 C109 1.347 . S
C109 H101 0.951 . S
C109 C104 1.429 . S
C109 C108 1.347 . S
C21 C18 1.453 . S
C36 C19 1.454 . S
C51 C2 1.452 1_545 S
C66 C4 1.452 1_565 S
C81 C9 1.406 . S
C96 C12 1.406 . S
