# Generated by pormake.
# Topology uov, (4)-cn, num edge types: 1
# Building blocks:
#     Node 0, Type 0, BuildingBlock: GALJAG_clean_sbu_0, # of connection points: 4
#     Node 1, Type 0, BuildingBlock: GALJAG_clean_sbu_0, # of connection points: 4
#     Node 2, Type 0, BuildingBlock: GALJAG_clean_sbu_0, # of connection points: 4
#     Node 3, Type 0, BuildingBlock: GALJAG_clean_sbu_0, # of connection points: 4
#     Node 4, Type 0, BuildingBlock: GALJAG_clean_sbu_0, # of connection points: 4
#     Node 5, Type 0, BuildingBlock: GALJAG_clean_sbu_0, # of connection points: 4
#     Node 6, Type 0, BuildingBlock: GALJAG_clean_sbu_0, # of connection points: 4
#     Node 7, Type 0, BuildingBlock: GALJAG_clean_sbu_0, # of connection points: 4
#     Edge 8, Type (0, 0), None
#     Edge 9, Type (0, 0), None
#     Edge 10, Type (0, 0), None
#     Edge 11, Type (0, 0), None
#     Edge 12, Type (0, 0), None
#     Edge 13, Type (0, 0), None
#     Edge 14, Type (0, 0), None
#     Edge 15, Type (0, 0), None
#     Edge 16, Type (0, 0), None
#     Edge 17, Type (0, 0), None
#     Edge 18, Type (0, 0), None
#     Edge 19, Type (0, 0), None
#     Edge 20, Type (0, 0), None
#     Edge 21, Type (0, 0), None
#     Edge 22, Type (0, 0), None
#     Edge 23, Type (0, 0), None
# Relax obj value: 0.176
# Max RMSD: 0.147
# Mean RMSD: 0.147
data_MOF--net-uov--node1-GALJAG_clean_sbu_0--edge1-none
_symmetry_space_group_name_H-M    P1
_symmetry_Int_Tables_number       1
_symmetry_cell_setting            triclinic
loop_
_symmetry_equiv_pos_as_xyz
'x, y, z'
_cell_length_a     13.421062
_cell_length_b     13.420996
_cell_length_c     20.015136
_cell_angle_alpha  90.001284
_cell_angle_beta   89.998714
_cell_angle_gamma 89.999993
loop_
_atom_site_label
_atom_site_type_symbol
_atom_site_fract_x
_atom_site_fract_y
_atom_site_fract_z
_atom_type_partial_charge
In0 In 0.02691 0.23424 0.63047 0.0
O1 O 0.07575 0.39561 0.63961 0.0
O2 O 0.92649 0.35844 0.66757 0.0
C3 C 0.14683 0.14393 0.54265 0.0
C4 C 0.10253 0.15079 0.74207 0.0
C5 C 0.87272 0.1943 0.55047 0.0
O6 O 0.12978 0.23638 0.53796 0.0
O7 O 0.10884 0.10115 0.59244 0.0
O8 O 0.87228 0.16619 0.61111 0.0
O9 O 0.94784 0.24373 0.53273 0.0
C10 C -0.00871 0.42547 0.65936 0.0
O11 O 0.01941 0.12328 0.71816 0.0
O12 O 0.14293 0.22353 0.71251 0.0
In13 In 0.23422 0.92965 0.41127 0.0
O14 O 0.39558 0.88077 0.40213 0.0
O15 O 0.35844 0.03004 0.37416 0.0
C16 C 0.14382 0.80982 0.49909 0.0
C17 C 0.15077 0.85399 0.29968 0.0
C18 C 0.19439 0.08378 0.49131 0.0
O19 O 0.23631 0.8267 0.50373 0.0
O20 O 0.10103 0.84794 0.44934 0.0
O21 O 0.16627 0.08431 0.43067 0.0
O22 O 0.24385 0.00866 0.50902 0.0
C23 C 0.42546 0.96521 0.38237 0.0
O24 O 0.12332 0.93715 0.32355 0.0
O25 O 0.22347 0.81356 0.32928 0.0
In26 In 0.92959 0.72227 0.63047 0.0
O27 O 0.88079 0.56089 0.63962 0.0
O28 O 0.03007 0.5981 0.66755 0.0
C29 C 0.80962 0.81255 0.54268 0.0
C30 C 0.85398 0.80573 0.74207 0.0
C31 C 0.08367 0.76222 0.55041 0.0
O32 O 0.82665 0.72009 0.538 0.0
O33 O 0.84766 0.85536 0.59245 0.0
O34 O 0.08423 0.79029 0.61107 0.0
O35 O 0.00855 0.71278 0.53269 0.0
C36 C 0.96527 0.53105 0.65932 0.0
O37 O 0.93709 0.83324 0.71815 0.0
O38 O 0.81359 0.73297 0.71252 0.0
In39 In 0.72226 0.02682 0.4113 0.0
O40 O 0.5609 0.07567 0.40216 0.0
O41 O 0.59808 0.92641 0.37416 0.0
C42 C 0.81265 0.14658 0.49916 0.0
C43 C 0.80574 0.10253 0.29973 0.0
C44 C 0.76204 0.87269 0.49134 0.0
O45 O 0.72011 0.12988 0.50371 0.0
O46 O 0.85549 0.10835 0.44947 0.0
O47 O 0.79019 0.87216 0.4307 0.0
O48 O 0.71257 0.94779 0.50905 0.0
C49 C 0.53105 -0.00879 0.38241 0.0
O50 O 0.83317 0.01935 0.32359 0.0
O51 O 0.73305 0.14296 0.32934 0.0
In52 In 0.92958 0.23423 0.13049 0.0
O53 O 0.93708 0.12327 0.21817 0.0
O54 O 0.81356 0.22352 0.21253 0.0
C55 C 0.08376 0.19428 0.05047 0.0
C56 C 0.9652 0.42547 0.15937 0.0
C57 C 0.80962 0.14394 0.04268 0.0
O58 O 0.0842 0.16617 0.11112 0.0
O59 O 0.00863 0.2437 0.03274 0.0
O60 O 0.82671 0.23639 0.03798 0.0
O61 O 0.84761 0.10116 0.09247 0.0
C62 C 0.85397 0.15077 0.24209 0.0
O63 O 0.88074 0.3956 0.13963 0.0
O64 O 0.03001 0.35843 0.16758 0.0
In65 In 0.23423 0.02684 0.91128 0.0
O66 O 0.39558 0.07572 0.90215 0.0
O67 O 0.35844 0.92647 0.87413 0.0
C68 C 0.14384 0.14657 0.99916 0.0
C69 C 0.15075 0.10255 0.79972 0.0
C70 C 0.19446 0.8726 0.99128 0.0
O71 O 0.23637 0.12983 1.00373 0.0
O72 O 0.10101 0.10841 0.94945 0.0
O73 O 0.16626 0.87218 0.93065 0.0
O74 O 0.2439 0.94771 1.009 0.0
C75 C 0.42547 -0.00871 0.88237 0.0
O76 O 0.12333 0.01936 0.82356 0.0
O77 O 0.22344 0.14298 0.82933 0.0
In78 In 0.02689 0.72226 0.13046 0.0
O79 O 0.07569 0.56088 0.1396 0.0
O80 O 0.92643 0.5981 0.16757 0.0
C81 C 0.14677 0.81253 0.0426 0.0
C82 C 0.10254 0.80575 0.24204 0.0
C83 C 0.8727 0.76216 0.05044 0.0
O84 O 0.12986 0.72004 0.038 0.0
O85 O 0.10868 0.85538 0.09234 0.0
O86 O 0.87226 0.7903 0.11108 0.0
O87 O 0.94781 0.71272 0.03271 0.0
C88 C -0.00878 0.53105 0.15933 0.0
O89 O 0.01941 0.83323 0.21814 0.0
O90 O 0.14295 0.73301 0.21247 0.0
In91 In 0.72227 0.92967 0.91128 0.0
O92 O 0.83319 0.93715 0.82357 0.0
O93 O 0.73305 0.81355 0.82932 0.0
C94 C 0.76206 0.0838 0.99133 0.0
C95 C 0.53105 0.96529 0.8824 0.0
C96 C 0.81263 0.80988 0.99913 0.0
O97 O 0.79021 0.08433 0.93069 0.0
O98 O 0.7126 0.00869 1.00904 0.0
O99 O 0.7201 0.82661 1.00369 0.0
O100 O 0.85548 0.8481 0.94944 0.0
C101 C 0.80575 0.85397 0.79971 0.0
O102 O 0.56091 0.88082 0.90213 0.0
O103 O 0.59808 0.03009 0.87416 0.0
loop_
_geom_bond_atom_site_label_1
_geom_bond_atom_site_label_2
_geom_bond_distance
_geom_bond_site_symmetry_2
_ccdc_geom_bond_type
In0 O1 2.294 . S
In0 O2 2.326 . S
In0 O6 2.266 . S
In0 O7 2.326 . S
In0 O8 2.266 1_455 S
In0 O9 2.326 1_455 S
In0 O11 2.294 . S
In0 O12 2.326 . S
O1 In0 2.294 . S
O1 C10 1.240 . S
O2 In0 2.326 . S
O2 C10 1.252 . S
C3 O6 1.252 . S
C3 O7 1.260 . S
C4 O11 1.240 . S
C4 O12 1.252 . S
C5 O8 1.252 . S
C5 O9 1.260 . S
O6 In0 2.266 . S
O6 C3 1.252 . S
O7 In0 2.326 . S
O7 C3 1.260 . S
O8 In0 2.266 1_655 S
O8 C5 1.252 . S
O9 In0 2.326 1_655 S
O9 C5 1.260 . S
C10 O1 1.240 . S
C10 O2 1.252 . S
O11 In0 2.294 . S
O11 C4 1.240 . S
O12 In0 2.326 . S
O12 C4 1.252 . S
In13 O14 2.294 . S
In13 O15 2.326 . S
In13 O19 2.266 . S
In13 O20 2.326 . S
In13 O21 2.266 1_565 S
In13 O22 2.326 1_565 S
In13 O24 2.294 . S
In13 O25 2.326 . S
O14 In13 2.294 . S
O14 C23 1.240 . S
O15 In13 2.326 . S
O15 C23 1.252 . S
C16 O19 1.252 . S
C16 O20 1.260 . S
C17 O24 1.240 . S
C17 O25 1.252 . S
C18 O21 1.252 . S
C18 O22 1.260 . S
O19 In13 2.266 . S
O19 C16 1.252 . S
O20 In13 2.326 . S
O20 C16 1.260 . S
O21 In13 2.266 1_545 S
O21 C18 1.252 . S
O22 In13 2.326 1_545 S
O22 C18 1.260 . S
C23 O14 1.240 . S
C23 O15 1.252 . S
O24 In13 2.294 . S
O24 C17 1.240 . S
O25 In13 2.326 . S
O25 C17 1.252 . S
In26 O27 2.294 . S
In26 O28 2.326 . S
In26 O32 2.266 . S
In26 O33 2.326 . S
In26 O34 2.266 1_655 S
In26 O35 2.326 1_655 S
In26 O37 2.294 . S
In26 O38 2.326 . S
O27 In26 2.294 . S
O27 C36 1.240 . S
O28 In26 2.326 . S
O28 C36 1.252 . S
C29 O32 1.252 . S
C29 O33 1.260 . S
C30 O37 1.240 . S
C30 O38 1.252 . S
C31 O34 1.252 . S
C31 O35 1.260 . S
O32 In26 2.266 . S
O32 C29 1.252 . S
O33 In26 2.326 . S
O33 C29 1.260 . S
O34 In26 2.266 1_455 S
O34 C31 1.252 . S
O35 In26 2.326 1_455 S
O35 C31 1.260 . S
C36 O27 1.240 . S
C36 O28 1.252 . S
O37 In26 2.294 . S
O37 C30 1.240 . S
O38 In26 2.326 . S
O38 C30 1.252 . S
In39 O40 2.294 . S
In39 O41 2.326 . S
In39 O45 2.266 . S
In39 O46 2.326 . S
In39 O47 2.266 1_545 S
In39 O48 2.326 1_545 S
In39 O50 2.294 . S
In39 O51 2.326 . S
O40 In39 2.294 . S
O40 C49 1.240 . S
O41 In39 2.326 . S
O41 C49 1.252 . S
C42 O45 1.252 . S
C42 O46 1.260 . S
C43 O50 1.240 . S
C43 O51 1.252 . S
C44 O47 1.252 . S
C44 O48 1.260 . S
O45 In39 2.266 . S
O45 C42 1.252 . S
O46 In39 2.326 . S
O46 C42 1.260 . S
O47 In39 2.266 1_565 S
O47 C44 1.252 . S
O48 In39 2.326 1_565 S
O48 C44 1.260 . S
C49 O40 1.240 . S
C49 O41 1.252 . S
O50 In39 2.294 . S
O50 C43 1.240 . S
O51 In39 2.326 . S
O51 C43 1.252 . S
In52 O53 2.294 . S
In52 O54 2.326 . S
In52 O58 2.266 1_655 S
In52 O59 2.326 1_655 S
In52 O60 2.266 . S
In52 O61 2.326 . S
In52 O63 2.294 . S
In52 O64 2.326 . S
O53 In52 2.294 . S
O53 C62 1.240 . S
O54 In52 2.326 . S
O54 C62 1.252 . S
C55 O58 1.252 . S
C55 O59 1.260 . S
C56 O63 1.240 . S
C56 O64 1.252 . S
C57 O60 1.252 . S
C57 O61 1.260 . S
O58 In52 2.266 1_455 S
O58 C55 1.252 . S
O59 In52 2.326 1_455 S
O59 C55 1.260 . S
O60 In52 2.266 . S
O60 C57 1.252 . S
O61 In52 2.326 . S
O61 C57 1.260 . S
C62 O53 1.240 . S
C62 O54 1.252 . S
O63 In52 2.294 . S
O63 C56 1.240 . S
O64 In52 2.326 . S
O64 C56 1.252 . S
In65 O66 2.294 . S
In65 O67 2.326 . S
In65 O71 2.266 . S
In65 O72 2.326 . S
In65 O73 2.266 1_545 S
In65 O74 2.326 1_545 S
In65 O76 2.294 . S
In65 O77 2.326 . S
O66 In65 2.294 . S
O66 C75 1.240 . S
O67 In65 2.326 . S
O67 C75 1.252 . S
C68 O71 1.252 . S
C68 O72 1.260 . S
C69 O76 1.240 . S
C69 O77 1.252 . S
C70 O73 1.252 . S
C70 O74 1.260 . S
O71 In65 2.266 . S
O71 C68 1.252 . S
O72 In65 2.326 . S
O72 C68 1.260 . S
O73 In65 2.266 1_565 S
O73 C70 1.252 . S
O74 In65 2.326 1_565 S
O74 C70 1.260 . S
C75 O66 1.240 . S
C75 O67 1.252 . S
O76 In65 2.294 . S
O76 C69 1.240 . S
O77 In65 2.326 . S
O77 C69 1.252 . S
In78 O79 2.294 . S
In78 O80 2.326 . S
In78 O84 2.266 . S
In78 O85 2.326 . S
In78 O86 2.266 1_455 S
In78 O87 2.326 1_455 S
In78 O89 2.294 . S
In78 O90 2.326 . S
O79 In78 2.294 . S
O79 C88 1.240 . S
O80 In78 2.326 . S
O80 C88 1.252 . S
C81 O84 1.252 . S
C81 O85 1.260 . S
C82 O89 1.240 . S
C82 O90 1.252 . S
C83 O86 1.252 . S
C83 O87 1.260 . S
O84 In78 2.266 . S
O84 C81 1.252 . S
O85 In78 2.326 . S
O85 C81 1.260 . S
O86 In78 2.266 1_655 S
O86 C83 1.252 . S
O87 In78 2.326 1_655 S
O87 C83 1.260 . S
C88 O79 1.240 . S
C88 O80 1.252 . S
O89 In78 2.294 . S
O89 C82 1.240 . S
O90 In78 2.326 . S
O90 C82 1.252 . S
In91 O92 2.294 . S
In91 O93 2.326 . S
In91 O97 2.266 1_565 S
In91 O98 2.326 1_565 S
In91 O99 2.266 . S
In91 O100 2.326 . S
In91 O102 2.294 . S
In91 O103 2.326 . S
O92 In91 2.294 . S
O92 C101 1.240 . S
O93 In91 2.326 . S
O93 C101 1.252 . S
C94 O97 1.252 . S
C94 O98 1.260 . S
C95 O102 1.240 . S
C95 O103 1.252 . S
C96 O99 1.252 . S
C96 O100 1.260 . S
O97 In91 2.266 1_545 S
O97 C94 1.252 . S
O98 In91 2.326 1_545 S
O98 C94 1.260 . S
O99 In91 2.266 . S
O99 C96 1.252 . S
O100 In91 2.326 . S
O100 C96 1.260 . S
C101 O92 1.240 . S
C101 O93 1.252 . S
O102 In91 2.294 . S
O102 C95 1.240 . S
O103 In91 2.326 . S
O103 C95 1.252 . S
C36 C10 2.070 1_655 S
C49 C23 2.070 1_545 S
C56 C88 2.070 1_655 S
C75 C95 2.070 1_545 S
C18 C3 1.371 . S
C16 C31 1.371 . S
C44 C29 1.371 . S
C42 C5 1.371 . S
C94 C57 1.371 1_556 S
C68 C55 1.371 1_556 S
C81 C70 1.371 1_554 S
C96 C83 1.371 1_556 S
C4 C69 1.931 . S
C82 C17 1.931 . S
C30 C101 1.931 . S
C43 C62 1.931 . S
