# Generated by pormake.
# Topology sqp, (5)-cn, num edge types: 1
# Building blocks:
#     Node 0, Type 0, BuildingBlock: XOMCOT_clean_sbu_1, # of connection points: 5
#     Node 1, Type 0, BuildingBlock: XOMCOT_clean_sbu_1, # of connection points: 5
#     Node 2, Type 0, BuildingBlock: XOMCOT_clean_sbu_1, # of connection points: 5
#     Node 3, Type 0, BuildingBlock: XOMCOT_clean_sbu_1, # of connection points: 5
#     Edge 4, Type (0, 0), BuildingBlock: AJUNOK_clean_linker_0, # of connection points: 2
#     Edge 5, Type (0, 0), BuildingBlock: AJUNOK_clean_linker_0, # of connection points: 2
#     Edge 6, Type (0, 0), BuildingBlock: AJUNOK_clean_linker_0, # of connection points: 2
#     Edge 7, Type (0, 0), BuildingBlock: AJUNOK_clean_linker_0, # of connection points: 2
#     Edge 8, Type (0, 0), BuildingBlock: AJUNOK_clean_linker_0, # of connection points: 2
#     Edge 9, Type (0, 0), BuildingBlock: AJUNOK_clean_linker_0, # of connection points: 2
#     Edge 10, Type (0, 0), BuildingBlock: AJUNOK_clean_linker_0, # of connection points: 2
#     Edge 11, Type (0, 0), BuildingBlock: AJUNOK_clean_linker_0, # of connection points: 2
#     Edge 12, Type (0, 0), BuildingBlock: AJUNOK_clean_linker_0, # of connection points: 2
#     Edge 13, Type (0, 0), BuildingBlock: AJUNOK_clean_linker_0, # of connection points: 2
# Relax obj value: 0.084
# Max RMSD: 0.167
# Mean RMSD: 0.167
data_MOF--net-sqp--node1-XOMCOT_clean_sbu_1--edge1-AJUNOK_clean_linker_0
_symmetry_space_group_name_H-M    P1
_symmetry_Int_Tables_number       1
_symmetry_cell_setting            triclinic
loop_
_symmetry_equiv_pos_as_xyz
'x, y, z'
_cell_length_a     17.251122
_cell_length_b     13.936249
_cell_length_c     39.453749
_cell_angle_alpha  89.824448
_cell_angle_beta   101.72002
_cell_angle_gamma 89.798474
loop_
_atom_site_label
_atom_site_type_symbol
_atom_site_fract_x
_atom_site_fract_y
_atom_site_fract_z
_atom_type_partial_charge
C0 C 0.06346 0.2839 0.29929 0.0
C1 C 1.00293 0.3488 0.28789 0.0
N2 N 0.94862 0.30712 0.26276 0.0
N3 N 0.04789 0.20179 0.28138 0.0
C4 C 0.9788 0.21899 0.25905 0.0
H5 H 0.11515 0.29554 0.31949 0.0
Co6 Co 0.10574 0.08665 0.28637 0.0
C7 C 0.99915 0.96128 0.23802 0.0
O8 O 0.05767 0.93863 0.22277 0.0
N9 N 0.16212 0.96866 0.29096 0.0
C10 C 0.18805 0.81309 0.30093 0.0
C11 C 0.14047 0.88857 0.3061 0.0
C12 C 0.22357 0.9395 0.2769 0.0
N13 N 0.2398 0.84517 0.28229 0.0
O14 O 0.13765 0.11418 0.24374 0.0
H15 H 0.09037 0.88373 0.31862 0.0
H16 H 0.25256 0.98414 0.26084 0.0
O17 O 1.01155 1.0182 0.26377 0.0
C18 C 0.20068 0.16366 0.2525 0.0
O19 O 0.22852 0.17806 0.28565 0.0
N20 N 0.082 1.06864 0.3297 0.0
C21 C 0.06781 1.05579 0.39837 0.0
C22 C 1.0003 1.05162 0.37165 0.0
C23 C 1.00868 1.05843 0.33718 0.0
C24 C 0.14774 0.07433 0.35539 0.0
C25 C 0.14215 1.06665 0.38993 0.0
H26 H 0.95663 1.05741 0.31673 0.0
H27 H 0.20503 0.08524 0.34886 0.0
H28 H 0.95046 0.167 0.24052 0.0
H29 H 1.00062 0.42119 0.29734 0.0
H30 H 0.18269 0.73945 0.30892 0.0
H31 H 0.94186 1.04395 0.37741 0.0
H32 H 0.19527 1.07187 0.40992 0.0
C33 C 0.0998 0.27965 0.63829 0.0
C34 C 0.16336 0.33978 0.64927 0.0
N35 N 0.20915 0.30085 0.67778 0.0
N36 N 0.10587 0.20337 0.65981 0.0
C37 C 0.17292 0.21874 0.68362 0.0
H38 H 0.0524 0.29048 0.61602 0.0
Co39 Co 1.03655 0.09972 0.65842 0.0
C40 C 0.15982 0.94478 0.67837 0.0
O41 O 0.13733 0.89779 0.6493 0.0
N42 N 0.96663 0.99277 0.65817 0.0
C43 C 0.91021 0.84796 0.65135 0.0
C44 C 0.96249 0.90929 0.64037 0.0
C45 C 0.91424 0.98016 0.67912 0.0
N46 N 0.88074 0.89235 0.67616 0.0
O47 O 1.01113 0.14476 0.70058 0.0
H48 H 0.99626 0.89212 0.62095 0.0
H49 H 0.90098 1.03382 0.6967 0.0
O50 O 0.1241 1.02176 0.68399 0.0
C51 C 0.95702 0.20777 0.69117 0.0
O52 O 0.935 0.22609 0.65788 0.0
N53 N 0.05443 1.0671 0.61476 0.0
C54 C 0.05917 1.0573 0.54472 0.0
C55 C 0.12953 1.05502 0.56998 0.0
C56 C 0.12595 1.06169 0.60505 0.0
C57 C 0.98606 1.07138 0.59039 0.0
C58 C 0.98686 1.06357 0.55541 0.0
H59 H 0.18032 1.06653 0.62423 0.0
H60 H 0.93017 0.08279 0.59821 0.0
H61 H 0.19448 0.17152 0.70533 0.0
H62 H 0.17561 0.40597 0.63697 0.0
H63 H 0.89768 0.77484 0.64284 0.0
H64 H 0.18665 1.05236 0.56261 0.0
H65 H 0.93121 1.06484 0.53683 0.0
C66 C 0.53721 0.76837 0.81617 0.0
C67 C 0.47594 0.83127 0.80395 0.0
N68 N 0.44085 0.80439 0.77166 0.0
N69 N 0.54067 0.70188 0.79177 0.0
C70 C 0.48276 0.72729 0.7648 0.0
H71 H 0.57668 0.77123 0.84121 0.0
Co72 Co 0.60958 0.59723 0.7935 0.0
C73 C 0.50326 0.43465 0.76256 0.0
O74 O 0.54898 0.36995 0.78095 0.0
N75 N 0.68134 0.4909 0.79516 0.0
C76 C 0.75455 0.35876 0.81002 0.0
C77 C 0.70083 0.42111 0.81948 0.0
C78 C 0.72524 0.46864 0.77141 0.0
N79 N 0.77039 0.38915 0.77981 0.0
O80 O 0.64092 0.64592 0.75296 0.0
H81 H 0.67542 0.41219 0.84213 0.0
H82 H 0.72419 0.50948 0.74802 0.0
O83 O 0.52214 0.52336 0.76557 0.0
C84 C 0.69525 0.70653 0.76426 0.0
O85 O 0.71467 0.71912 0.79789 0.0
N86 N 0.58511 0.56027 0.83528 0.0
C87 C 0.56984 0.54374 0.90371 0.0
C88 C 0.50837 0.51361 0.87684 0.0
C89 C 0.51675 0.52381 0.84236 0.0
C90 C 0.64499 0.58918 0.86123 0.0
C91 C 0.6389 0.58086 0.89558 0.0
H92 H 0.46759 0.50629 0.82171 0.0
H93 H 0.69761 0.62053 0.85497 0.0
H94 H 0.47163 0.68941 0.74047 0.0
H95 H 0.45992 0.89283 0.8177 0.0
H96 H 0.777 0.29374 0.82365 0.0
H97 H 0.45345 0.48668 0.8824 0.0
H98 H 0.68721 0.60536 0.91568 0.0
C99 C 0.56012 0.79069 0.16238 0.0
C100 C 0.62066 0.85535 0.17181 0.0
N101 N 0.68793 0.80586 0.18371 0.0
N102 N 0.58904 0.7009 0.16826 0.0
C103 C 0.66739 0.7124 0.18096 0.0
H104 H 0.49854 0.80794 0.15238 0.0
Co105 Co 0.52651 0.59146 0.1619 0.0
C106 C 0.6364 0.42823 0.18965 0.0
O107 O 0.59219 0.36409 0.17051 0.0
N108 N 0.46018 0.48187 0.15522 0.0
C109 C 0.36976 0.37404 0.13186 0.0
C110 C 0.42012 0.44463 0.12509 0.0
C111 C 0.43302 0.43186 0.17986 0.0
N112 N 0.37745 0.36687 0.16636 0.0
O113 O 0.49264 0.62014 0.20387 0.0
H114 H 0.42467 0.46847 0.09953 0.0
H115 H 0.45123 0.44554 0.20731 0.0
O116 O 0.6158 0.51651 0.1876 0.0
C117 C 0.42349 0.65678 0.19725 0.0
O118 O 0.38617 0.66518 0.16486 0.0
N119 N 0.55423 0.57244 0.11916 0.0
C120 C 0.56067 0.55882 0.04953 0.0
C121 C 0.61263 0.50476 0.07442 0.0
C122 C 0.60919 0.51349 0.10943 0.0
C123 C 0.50594 0.62829 0.09536 0.0
C124 C 0.50804 0.62258 0.06041 0.0
H125 H 0.65037 0.47265 0.12812 0.0
H126 H 0.46319 0.67507 0.1036 0.0
H127 H 0.7085 0.65396 0.18904 0.0
H128 H 0.61557 0.93273 0.17008 0.0
H129 H 0.33004 0.33213 0.11283 0.0
H130 H 0.65576 0.45696 0.06688 0.0
H131 H 0.46751 0.66603 0.04194 0.0
C132 C 0.10712 0.98831 0.45819 0.0
C133 C 0.06162 1.054 0.43516 0.0
C134 C 0.10641 0.98991 0.49366 0.0
C135 C 0.06054 1.05766 0.50726 0.0
H136 H 0.14355 0.93539 0.44867 0.0
H137 H 0.14147 0.93736 0.51048 0.0
S138 S 0.93696 0.25069 0.45806 0.0
N139 N 0.97288 0.19135 0.42848 0.0
N140 N 0.97247 0.19598 0.49517 0.0
C141 C 1.01579 0.12471 0.48448 0.0
C142 C 1.01604 0.12241 0.44841 0.0
C143 C 0.57049 0.63579 -0.00638 0.0
C144 C 0.56195 0.55184 0.01229 0.0
C145 C 0.57071 0.6323 0.95825 0.0
C146 C 0.56147 0.54493 0.94019 0.0
H147 H 0.57815 0.70457 0.00658 0.0
H148 H 0.57888 0.69847 0.94493 0.0
S149 S 0.5339 0.30549 -0.02318 0.0
N150 N 0.54179 0.3792 0.01008 0.0
N151 N 0.54201 0.37289 0.94319 0.0
C152 C 0.55129 0.46067 0.9583 0.0
C153 C 0.55188 0.46403 -0.00548 0.0
C154 C 0.32689 0.21733 0.23786 0.0
C155 C 0.24468 0.20392 0.22733 0.0
C156 C 0.36999 0.26795 0.21728 0.0
C157 C 0.33269 0.30748 0.18534 0.0
H158 H 0.35815 0.19027 0.26269 0.0
H159 H 0.43293 0.27766 0.22668 0.0
S160 S 0.11834 0.29348 0.14605 0.0
N161 N 0.12749 0.23319 0.18277 0.0
N162 N 0.20834 0.32992 0.14404 0.0
C163 C 0.25073 0.29249 0.17397 0.0
C164 C 0.20677 0.2402 0.19497 0.0
C165 C 0.83478 0.3006 0.21291 0.0
C166 C 0.87227 0.34333 0.24439 0.0
C167 C 0.75849 0.32764 0.19585 0.0
C168 C 0.71653 0.40063 0.20884 0.0
H169 H 0.86427 0.24545 0.20098 0.0
H170 H 0.7327 0.29187 0.17188 0.0
S171 S 0.78539 0.53807 0.28953 0.0
N172 N 0.85882 0.46309 0.28787 0.0
N173 N 0.71733 0.51709 0.25446 0.0
C174 C 0.75321 0.44631 0.23959 0.0
C175 C 0.8305 0.41714 0.25762 0.0
C176 C 0.83321 0.80392 0.18943 0.0
C177 C 0.76497 0.84455 0.19792 0.0
C178 C 0.90856 0.84217 0.20247 0.0
C179 C 0.91867 0.92144 0.22503 0.0
H180 H 0.82802 0.74318 0.17208 0.0
H181 H 0.95926 0.80897 0.19487 0.0
S182 S 0.75813 1.04997 0.25676 0.0
N183 N 0.71199 0.96567 0.23112 0.0
N184 N 0.85287 1.03691 0.25605 0.0
C185 C 0.85061 0.96121 0.23428 0.0
C186 C 0.77399 0.92304 0.22059 0.0
C187 C 0.36692 0.82074 0.26398 0.0
C188 C 0.29054 0.78826 0.26547 0.0
C189 C 0.41349 0.77249 0.24402 0.0
C190 C 0.38423 0.69147 0.22455 0.0
H191 H 0.38959 0.88549 0.2775 0.0
H192 H 0.47045 0.80211 0.24211 0.0
S193 S 0.1897 0.57576 0.22032 0.0
N194 N 0.18939 0.66766 0.24665 0.0
N195 N 0.27647 0.57848 0.20878 0.0
C196 C 0.30939 0.65639 0.22674 0.0
C197 C 0.26256 0.70437 0.24736 0.0
C198 C 0.36207 0.8357 0.71293 0.0
C199 C 0.37179 0.84531 0.74909 0.0
C200 C 0.29335 0.86791 0.69043 0.0
C201 C 0.23189 0.91292 0.703 0.0
H202 H 0.40785 0.80265 0.70176 0.0
H203 H 0.28871 0.85812 0.66286 0.0
S204 S 0.22568 0.95503 0.79509 0.0
N205 N 0.31168 0.90127 0.79631 0.0
N206 N 0.1843 0.96583 0.75368 0.0
C207 C 0.24096 0.9251 0.7389 0.0
C208 C 0.31043 0.89048 0.76201 0.0
C209 C 0.34623 0.27394 0.70952 0.0
C210 C 0.28252 0.3369 0.6978 0.0
C211 C 0.4174 0.3067 0.72996 0.0
C212 C 0.4276 0.40371 0.73981 0.0
H213 H 0.34105 0.19872 0.70264 0.0
H214 H 0.46476 0.25523 0.73812 0.0
S215 S 0.27498 0.59546 0.71841 0.0
N216 N 0.23216 0.4993 0.6987 0.0
N217 N 0.36463 0.56077 0.73788 0.0
C218 C 0.36351 0.46705 0.7286 0.0
C219 C 0.29137 0.43372 0.70741 0.0
C220 C 0.84459 0.30797 0.70148 0.0
C221 C 0.91235 0.25302 0.71538 0.0
C222 C 0.79906 0.35138 0.72266 0.0
C223 C 0.81921 0.34282 0.75886 0.0
H224 H 0.82545 0.31716 0.67377 0.0
H225 H 0.74672 0.39083 0.71034 0.0
S226 S 0.99251 0.20909 0.80867 0.0
N227 N 0.99793 0.19256 0.76778 0.0
N228 N 0.91344 0.27686 0.80796 0.0
C229 C 0.88717 0.28843 0.77334 0.0
C230 C 0.93347 0.2431 0.75155 0.0
C231 C 0.72873 0.73633 0.70586 0.0
C232 C 0.73947 0.75852 0.74128 0.0
C233 C 0.77419 0.78129 0.6846 0.0
C234 C 0.83184 0.85026 0.69792 0.0
H235 H 0.68587 0.68282 0.69456 0.0
H236 H 0.76434 0.76178 0.65753 0.0
S237 S 0.88373 0.93354 0.78907 0.0
N238 N 0.81165 0.85585 0.78853 0.0
N239 N 0.89833 0.93646 0.74908 0.0
C240 C 0.84273 0.87339 0.73324 0.0
C241 C 0.79627 0.82851 0.75476 0.0
loop_
_geom_bond_atom_site_label_1
_geom_bond_atom_site_label_2
_geom_bond_distance
_geom_bond_site_symmetry_2
_ccdc_geom_bond_type
C0 C1 1.351 . S
C0 N3 1.368 . S
C0 H5 0.931 1_655 S
C1 C0 1.351 . S
C1 N2 1.373 . S
C1 H29 0.930 . S
N2 C1 1.373 . S
N2 C4 1.340 . S
N3 C0 1.368 . S
N3 C4 1.321 . S
N3 Co6 2.135 1_655 S
C4 N2 1.340 . S
C4 N3 1.321 . S
C4 H28 0.930 . S
H5 C0 0.931 1_455 S
Co6 N3 2.135 1_455 S
Co6 N9 2.121 1_545 S
Co6 O14 2.055 . S
Co6 O17 2.039 1_445 S
Co6 N20 2.140 . S
C7 O8 1.227 . S
C7 O17 1.265 . S
O8 C7 1.227 . S
N9 Co6 2.121 1_565 S
N9 C11 1.375 . S
N9 C12 1.313 . S
C10 C11 1.338 . S
C10 N13 1.377 . S
C10 H30 0.930 . S
C11 N9 1.375 . S
C11 C10 1.338 . S
C11 H15 0.931 . S
C12 N9 1.313 . S
C12 N13 1.344 . S
C12 H16 0.930 . S
N13 C10 1.377 . S
N13 C12 1.344 . S
O14 Co6 2.055 . S
O14 C18 1.253 . S
H15 C11 0.931 . S
H16 C12 0.930 . S
O17 Co6 2.039 1_665 S
O17 C7 1.265 . S
C18 O14 1.253 . S
C18 O19 1.227 . S
O19 C18 1.227 . S
N20 Co6 2.140 . S
N20 C23 1.346 1_455 S
N20 C24 1.345 1_545 S
C21 C22 1.387 1_465 S
C21 C25 1.391 . S
C22 C21 1.387 1_645 S
C22 C23 1.369 . S
C22 H31 0.929 . S
C23 N20 1.346 1_655 S
C23 C22 1.369 . S
C23 H26 0.928 . S
C24 N20 1.345 1_565 S
C24 C25 1.371 . S
C24 H27 0.931 . S
C25 C21 1.391 . S
C25 C24 1.371 . S
C25 H32 0.930 . S
H26 C23 0.928 . S
H27 C24 0.931 . S
H28 C4 0.930 . S
H29 C1 0.930 . S
H30 C10 0.930 . S
H31 C22 0.929 . S
H32 C25 0.930 . S
C33 C34 1.351 . S
C33 N36 1.368 . S
C33 H38 0.931 . S
C34 C33 1.351 . S
C34 N35 1.373 . S
C34 H62 0.930 . S
N35 C34 1.373 . S
N35 C37 1.340 . S
N36 C33 1.368 . S
N36 C37 1.321 . S
N36 Co39 2.135 . S
C37 N35 1.340 . S
C37 N36 1.321 . S
C37 H61 0.930 . S
H38 C33 0.931 . S
Co39 N36 2.135 . S
Co39 N42 2.121 1_445 S
Co39 O47 2.055 1_455 S
Co39 O50 2.039 1_545 S
Co39 N53 2.140 . S
C40 O41 1.227 . S
C40 O50 1.265 . S
O41 C40 1.227 . S
N42 Co39 2.121 1_665 S
N42 C44 1.375 . S
N42 C45 1.313 . S
C43 C44 1.338 . S
C43 N46 1.377 . S
C43 H63 0.930 . S
C44 N42 1.375 . S
C44 C43 1.338 . S
C44 H48 0.931 1_655 S
C45 N42 1.313 . S
C45 N46 1.344 . S
C45 H49 0.930 . S
N46 C43 1.377 . S
N46 C45 1.344 . S
O47 Co39 2.055 1_655 S
O47 C51 1.253 . S
H48 C44 0.931 1_455 S
H49 C45 0.930 . S
O50 Co39 2.039 1_565 S
O50 C40 1.265 . S
C51 O47 1.253 . S
C51 O52 1.227 . S
O52 C51 1.227 . S
N53 Co39 2.140 . S
N53 C56 1.346 . S
N53 C57 1.345 1_445 S
C54 C55 1.387 1_565 S
C54 C58 1.391 1_455 S
C55 C54 1.387 1_545 S
C55 C56 1.369 . S
C55 H64 0.929 . S
C56 N53 1.346 . S
C56 C55 1.369 . S
C56 H59 0.928 . S
C57 N53 1.345 1_665 S
C57 C58 1.371 . S
C57 H60 0.931 . S
C58 C54 1.391 1_655 S
C58 C57 1.371 . S
C58 H65 0.930 . S
H59 C56 0.928 . S
H60 C57 0.931 . S
H61 C37 0.930 . S
H62 C34 0.930 . S
H63 C43 0.930 . S
H64 C55 0.929 . S
H65 C58 0.930 . S
C66 C67 1.351 . S
C66 N69 1.368 . S
C66 H71 0.931 . S
C67 C66 1.351 . S
C67 N68 1.373 . S
C67 H95 0.930 . S
N68 C67 1.373 . S
N68 C70 1.340 . S
N69 C66 1.368 . S
N69 C70 1.321 . S
N69 Co72 2.135 . S
C70 N68 1.340 . S
C70 N69 1.321 . S
C70 H94 0.930 . S
H71 C66 0.931 . S
Co72 N69 2.135 . S
Co72 N75 2.121 . S
Co72 O80 2.055 . S
Co72 O83 2.039 . S
Co72 N86 2.140 . S
C73 O74 1.227 . S
C73 O83 1.265 . S
O74 C73 1.227 . S
N75 Co72 2.121 . S
N75 C77 1.375 . S
N75 C78 1.313 . S
C76 C77 1.338 . S
C76 N79 1.377 . S
C76 H96 0.930 . S
C77 N75 1.375 . S
C77 C76 1.338 . S
C77 H81 0.931 . S
C78 N75 1.313 . S
C78 N79 1.344 . S
C78 H82 0.930 . S
N79 C76 1.377 . S
N79 C78 1.344 . S
O80 Co72 2.055 . S
O80 C84 1.253 . S
H81 C77 0.931 . S
H82 C78 0.930 . S
O83 Co72 2.039 . S
O83 C73 1.265 . S
C84 O80 1.253 . S
C84 O85 1.227 . S
O85 C84 1.227 . S
N86 Co72 2.140 . S
N86 C89 1.346 . S
N86 C90 1.345 . S
C87 C88 1.387 . S
C87 C91 1.391 . S
C88 C87 1.387 . S
C88 C89 1.369 . S
C88 H97 0.929 . S
C89 N86 1.346 . S
C89 C88 1.369 . S
C89 H92 0.928 . S
C90 N86 1.345 . S
C90 C91 1.371 . S
C90 H93 0.931 . S
C91 C87 1.391 . S
C91 C90 1.371 . S
C91 H98 0.930 . S
H92 C89 0.928 . S
H93 C90 0.931 . S
H94 C70 0.930 . S
H95 C67 0.930 . S
H96 C76 0.930 . S
H97 C88 0.929 . S
H98 C91 0.930 . S
C99 C100 1.351 . S
C99 N102 1.368 . S
C99 H104 0.931 . S
C100 C99 1.351 . S
C100 N101 1.373 . S
C100 H128 0.930 . S
N101 C100 1.373 . S
N101 C103 1.340 . S
N102 C99 1.368 . S
N102 C103 1.321 . S
N102 Co105 2.135 . S
C103 N101 1.340 . S
C103 N102 1.321 . S
C103 H127 0.930 . S
H104 C99 0.931 . S
Co105 N102 2.135 . S
Co105 N108 2.121 . S
Co105 O113 2.055 . S
Co105 O116 2.039 . S
Co105 N119 2.140 . S
C106 O107 1.227 . S
C106 O116 1.265 . S
O107 C106 1.227 . S
N108 Co105 2.121 . S
N108 C110 1.375 . S
N108 C111 1.313 . S
C109 C110 1.338 . S
C109 N112 1.377 . S
C109 H129 0.930 . S
C110 N108 1.375 . S
C110 C109 1.338 . S
C110 H114 0.931 . S
C111 N108 1.313 . S
C111 N112 1.344 . S
C111 H115 0.930 . S
N112 C109 1.377 . S
N112 C111 1.344 . S
O113 Co105 2.055 . S
O113 C117 1.253 . S
H114 C110 0.931 . S
H115 C111 0.930 . S
O116 Co105 2.039 . S
O116 C106 1.265 . S
C117 O113 1.253 . S
C117 O118 1.227 . S
O118 C117 1.227 . S
N119 Co105 2.140 . S
N119 C122 1.346 . S
N119 C123 1.345 . S
C120 C121 1.387 . S
C120 C124 1.391 . S
C121 C120 1.387 . S
C121 C122 1.369 . S
C121 H130 0.929 . S
C122 N119 1.346 . S
C122 C121 1.369 . S
C122 H125 0.928 . S
C123 N119 1.345 . S
C123 C124 1.371 . S
C123 H126 0.931 . S
C124 C120 1.391 . S
C124 C123 1.371 . S
C124 H131 0.930 . S
H125 C122 0.928 . S
H126 C123 0.931 . S
H127 C103 0.930 . S
H128 C100 0.930 . S
H129 C109 0.930 . S
H130 C121 0.929 . S
H131 C124 0.930 . S
C132 C133 1.369 . S
C132 C134 1.419 . S
C132 H136 0.930 . S
C133 C132 1.369 . S
C133 C142 1.429 1_465 S
C134 C132 1.419 . S
C134 C135 1.363 . S
C134 H137 0.929 . S
C135 C134 1.363 . S
C135 C141 1.428 1_465 S
H136 C132 0.930 . S
H137 C134 0.929 . S
S138 N139 1.613 . S
S138 N140 1.610 . S
N139 S138 1.613 . S
N139 C142 1.350 . S
N140 S138 1.610 . S
N140 C141 1.351 . S
C141 C135 1.428 1_645 S
C141 N140 1.351 . S
C141 C142 1.434 . S
C142 C133 1.429 1_645 S
C142 N139 1.350 . S
C142 C141 1.434 . S
C143 C144 1.369 . S
C143 C145 1.419 1_554 S
C143 H147 0.930 . S
C144 C143 1.369 . S
C144 C153 1.429 . S
C145 C143 1.419 1_556 S
C145 C146 1.363 . S
C145 H148 0.929 . S
C146 C145 1.363 . S
C146 C152 1.428 . S
H147 C143 0.930 . S
H148 C145 0.929 . S
S149 N150 1.613 1_556 S
S149 N151 1.610 . S
N150 S149 1.613 1_554 S
N150 C153 1.350 . S
N151 S149 1.610 . S
N151 C152 1.351 . S
C152 C146 1.428 . S
C152 N151 1.351 . S
C152 C153 1.434 1_556 S
C153 C144 1.429 . S
C153 N150 1.350 . S
C153 C152 1.434 1_554 S
C154 C155 1.369 . S
C154 C156 1.419 . S
C154 H158 0.930 . S
C155 C154 1.369 . S
C155 C164 1.429 . S
C156 C154 1.419 . S
C156 C157 1.363 . S
C156 H159 0.929 . S
C157 C156 1.363 . S
C157 C163 1.428 . S
H158 C154 0.930 . S
H159 C156 0.929 . S
S160 N161 1.613 . S
S160 N162 1.610 . S
N161 S160 1.613 . S
N161 C164 1.350 . S
N162 S160 1.610 . S
N162 C163 1.351 . S
C163 C157 1.428 . S
C163 N162 1.351 . S
C163 C164 1.434 . S
C164 C155 1.429 . S
C164 N161 1.350 . S
C164 C163 1.434 . S
C165 C166 1.369 . S
C165 C167 1.419 . S
C165 H169 0.930 . S
C166 C165 1.369 . S
C166 C175 1.429 . S
C167 C165 1.419 . S
C167 C168 1.363 . S
C167 H170 0.929 . S
C168 C167 1.363 . S
C168 C174 1.428 . S
H169 C165 0.930 . S
H170 C167 0.929 . S
S171 N172 1.613 . S
S171 N173 1.610 . S
N172 S171 1.613 . S
N172 C175 1.350 . S
N173 S171 1.610 . S
N173 C174 1.351 . S
C174 C168 1.428 . S
C174 N173 1.351 . S
C174 C175 1.434 . S
C175 C166 1.429 . S
C175 N172 1.350 . S
C175 C174 1.434 . S
C176 C177 1.369 . S
C176 C178 1.419 . S
C176 H180 0.930 . S
C177 C176 1.369 . S
C177 C186 1.429 . S
C178 C176 1.419 . S
C178 C179 1.363 . S
C178 H181 0.929 . S
C179 C178 1.363 . S
C179 C185 1.428 . S
H180 C176 0.930 . S
H181 C178 0.929 . S
S182 N183 1.613 . S
S182 N184 1.610 . S
N183 S182 1.613 . S
N183 C186 1.350 . S
N184 S182 1.610 . S
N184 C185 1.351 . S
C185 C179 1.428 . S
C185 N184 1.351 . S
C185 C186 1.434 . S
C186 C177 1.429 . S
C186 N183 1.350 . S
C186 C185 1.434 . S
C187 C188 1.369 . S
C187 C189 1.419 . S
C187 H191 0.930 . S
C188 C187 1.369 . S
C188 C197 1.429 . S
C189 C187 1.419 . S
C189 C190 1.363 . S
C189 H192 0.929 . S
C190 C189 1.363 . S
C190 C196 1.428 . S
H191 C187 0.930 . S
H192 C189 0.929 . S
S193 N194 1.613 . S
S193 N195 1.610 . S
N194 S193 1.613 . S
N194 C197 1.350 . S
N195 S193 1.610 . S
N195 C196 1.351 . S
C196 C190 1.428 . S
C196 N195 1.351 . S
C196 C197 1.434 . S
C197 C188 1.429 . S
C197 N194 1.350 . S
C197 C196 1.434 . S
C198 C199 1.369 . S
C198 C200 1.419 . S
C198 H202 0.930 . S
C199 C198 1.369 . S
C199 C208 1.429 . S
C200 C198 1.419 . S
C200 C201 1.363 . S
C200 H203 0.929 . S
C201 C200 1.363 . S
C201 C207 1.428 . S
H202 C198 0.930 . S
H203 C200 0.929 . S
S204 N205 1.613 . S
S204 N206 1.610 . S
N205 S204 1.613 . S
N205 C208 1.350 . S
N206 S204 1.610 . S
N206 C207 1.351 . S
C207 C201 1.428 . S
C207 N206 1.351 . S
C207 C208 1.434 . S
C208 C199 1.429 . S
C208 N205 1.350 . S
C208 C207 1.434 . S
C209 C210 1.369 . S
C209 C211 1.419 . S
C209 H213 0.930 . S
C210 C209 1.369 . S
C210 C219 1.429 . S
C211 C209 1.419 . S
C211 C212 1.363 . S
C211 H214 0.929 . S
C212 C211 1.363 . S
C212 C218 1.428 . S
H213 C209 0.930 . S
H214 C211 0.929 . S
S215 N216 1.613 . S
S215 N217 1.610 . S
N216 S215 1.613 . S
N216 C219 1.350 . S
N217 S215 1.610 . S
N217 C218 1.351 . S
C218 C212 1.428 . S
C218 N217 1.351 . S
C218 C219 1.434 . S
C219 C210 1.429 . S
C219 N216 1.350 . S
C219 C218 1.434 . S
C220 C221 1.369 . S
C220 C222 1.419 . S
C220 H224 0.930 . S
C221 C220 1.369 . S
C221 C230 1.429 . S
C222 C220 1.419 . S
C222 C223 1.363 . S
C222 H225 0.929 . S
C223 C222 1.363 . S
C223 C229 1.428 . S
H224 C220 0.930 . S
H225 C222 0.929 . S
S226 N227 1.613 . S
S226 N228 1.610 . S
N227 S226 1.613 . S
N227 C230 1.350 . S
N228 S226 1.610 . S
N228 C229 1.351 . S
C229 C223 1.428 . S
C229 N228 1.351 . S
C229 C230 1.434 . S
C230 C221 1.429 . S
C230 N227 1.350 . S
C230 C229 1.434 . S
C231 C232 1.369 . S
C231 C233 1.419 . S
C231 H235 0.930 . S
C232 C231 1.369 . S
C232 C241 1.429 . S
C233 C231 1.419 . S
C233 C234 1.363 . S
C233 H236 0.929 . S
C234 C233 1.363 . S
C234 C240 1.428 . S
H235 C231 0.930 . S
H236 C233 0.929 . S
S237 N238 1.613 . S
S237 N239 1.610 . S
N238 S237 1.613 . S
N238 C241 1.350 . S
N239 S237 1.610 . S
N239 C240 1.351 . S
C240 C234 1.428 . S
C240 N239 1.351 . S
C240 C241 1.434 . S
C241 C232 1.429 . S
C241 N238 1.350 . S
C241 C240 1.434 . S
C133 C21 1.494 . S
C135 C54 1.495 . S
C144 C120 1.494 . S
C146 C87 1.494 . S
C155 C18 1.545 . S
C157 N112 1.495 . S
C166 N2 1.421 . S
C168 C106 1.469 . S
C177 N101 1.413 . S
C179 C7 1.469 . S
C188 N13 1.492 . S
C190 C117 1.545 . S
C199 N68 1.417 . S
C201 C40 1.470 . S
C210 N35 1.413 . S
C212 C73 1.467 . S
C221 C51 1.545 . S
C223 N79 1.496 . S
C232 C84 1.543 . S
C234 N46 1.498 . S
