# Generated by pormake.
# Topology unh, (4)-cn, num edge types: 1
# Building blocks:
#     Node 0, Type 0, BuildingBlock: NAWXER_clean_sbu_0, # of connection points: 4
#     Node 1, Type 0, BuildingBlock: NAWXER_clean_sbu_0, # of connection points: 4
#     Node 2, Type 0, BuildingBlock: NAWXER_clean_sbu_0, # of connection points: 4
#     Node 3, Type 0, BuildingBlock: NAWXER_clean_sbu_0, # of connection points: 4
#     Node 4, Type 0, BuildingBlock: NAWXER_clean_sbu_0, # of connection points: 4
#     Node 5, Type 0, BuildingBlock: NAWXER_clean_sbu_0, # of connection points: 4
#     Edge 6, Type (0, 0), None
#     Edge 7, Type (0, 0), None
#     Edge 8, Type (0, 0), None
#     Edge 9, Type (0, 0), None
#     Edge 10, Type (0, 0), None
#     Edge 11, Type (0, 0), None
#     Edge 12, Type (0, 0), None
#     Edge 13, Type (0, 0), None
#     Edge 14, Type (0, 0), None
#     Edge 15, Type (0, 0), None
#     Edge 16, Type (0, 0), None
#     Edge 17, Type (0, 0), None
# Relax obj value: 0.020
# Max RMSD: 0.247
# Mean RMSD: 0.247
data_MOF--net-unh--node1-NAWXER_clean_sbu_0--edge1-none
_symmetry_space_group_name_H-M    P1
_symmetry_Int_Tables_number       1
_symmetry_cell_setting            triclinic
loop_
_symmetry_equiv_pos_as_xyz
'x, y, z'
_cell_length_a     18.864869
_cell_length_b     18.860451
_cell_length_c     10.221648
_cell_angle_alpha  89.999657
_cell_angle_beta   90.0006
_cell_angle_gamma 120.00502
loop_
_atom_site_label
_atom_site_type_symbol
_atom_site_fract_x
_atom_site_fract_y
_atom_site_fract_z
_atom_type_partial_charge
C0 C 0.07751 0.57619 0.24713 0.0
C1 C 0.28591 0.73267 0.92794 0.0
O2 O 0.10892 0.65006 0.21159 0.0
Zn3 Zn 0.17879 0.65 0.07689 0.0
O4 O 0.09736 0.52876 0.18753 0.0
Zn5 Zn 0.17874 0.54465 0.02517 0.0
O6 O 0.24611 0.50796 0.09979 0.0
O7 O 0.26859 0.62695 0.178 0.0
O8 O 0.26856 0.65749 0.92398 0.0
O9 O 0.2462 0.75406 0.00222 0.0
O10 O 0.09736 0.5845 0.91455 0.0
O11 O 0.10881 0.47471 0.8905 0.0
C12 C 0.28589 0.5691 0.17402 0.0
C13 C 0.07746 0.51721 0.85496 0.0
C14 C 0.58512 0.27002 0.0946 0.0
C15 C 0.53318 0.06156 0.41375 0.0
O16 O 0.52401 0.23028 0.16887 0.0
Zn17 Zn 0.56065 0.16287 0.24352 0.0
O18 O 0.64293 0.25268 0.09062 0.0
Zn19 Zn 0.66595 0.16286 0.19179 0.0
O20 O 0.66595 0.09293 0.05712 0.0
O21 O 0.54472 0.08144 0.08117 0.0
O22 O 0.60044 0.08144 0.35415 0.0
O23 O 0.49072 0.09296 0.3782 0.0
O24 O 0.67349 0.25269 0.34466 0.0
O25 O 0.76999 0.23025 0.26642 0.0
C26 C 0.5921 0.06154 0.02157 0.0
C27 C 0.74864 0.27001 0.34069 0.0
C28 C 0.56238 0.57619 0.1881 0.0
C29 C 0.51046 0.73267 0.50731 0.0
O30 O 0.60484 0.65006 0.22365 0.0
Zn31 Zn 0.53491 0.65 0.35836 0.0
O32 O 0.49512 0.52876 0.24771 0.0
Zn33 Zn 0.42962 0.54465 0.41008 0.0
O34 O 0.32557 0.50796 0.33546 0.0
O35 O 0.42206 0.62695 0.25725 0.0
O36 O 0.45264 0.65749 0.51128 0.0
O37 O 0.57156 0.75406 0.43302 0.0
O38 O 0.55085 0.5845 0.52069 0.0
O39 O 0.42962 0.4747 0.54473 0.0
C40 C 0.34692 0.5691 0.26124 0.0
C41 C 0.50348 0.5172 0.58027 0.0
C42 C 0.80968 0.4946 0.67402 0.0
C43 C 1.01811 0.54649 0.35496 0.0
O44 O 0.84945 0.55573 0.59978 0.0
Zn45 Zn 0.91682 0.51905 0.52516 0.0
O46 O 0.82698 0.43675 0.678 0.0
Zn47 Zn 0.91678 0.4137 0.57688 0.0
O48 O 0.98665 0.41365 0.71158 0.0
O49 O 0.99821 0.53494 0.68753 0.0
O50 O 0.9982 0.4792 0.41455 0.0
O51 O 0.98675 0.58899 0.3905 0.0
O52 O 0.82701 0.4062 0.42398 0.0
O53 O 0.84938 0.30964 0.50223 0.0
C54 C 1.01805 0.48752 0.74713 0.0
C55 C 0.80966 0.33103 0.42795 0.0
C56 C 0.34693 0.79368 0.84068 0.0
C57 C 0.50347 1.00215 0.52158 0.0
O58 O 0.32558 0.83344 0.76641 0.0
Zn59 Zn 0.42962 0.90084 0.69178 0.0
O60 O 0.42207 0.81101 0.84466 0.0
Zn61 Zn 0.53492 0.90082 0.74352 0.0
O62 O 0.60485 0.97073 0.87821 0.0
O63 O 0.49512 0.98226 0.85415 0.0
O64 O 0.55085 0.98226 0.58117 0.0
O65 O 0.42962 0.97077 0.55711 0.0
O66 O 0.45264 0.81101 0.59061 0.0
O67 O 0.57156 0.83341 0.66888 0.0
C68 C 0.56239 1.00213 0.91375 0.0
C69 C 0.51045 0.79367 0.5946 0.0
C70 C 0.53319 0.48751 0.6881 0.0
C71 C 0.58511 0.33103 0.00731 0.0
O72 O 0.49073 0.41364 0.72365 0.0
Zn73 Zn 0.56066 0.4137 0.85836 0.0
O74 O 0.60045 0.53493 0.74771 0.0
Zn75 Zn 0.66595 0.51905 0.91008 0.0
O76 O 0.77 0.55573 0.83546 0.0
O77 O 0.67351 0.43675 0.75726 0.0
O78 O 0.64293 0.40621 0.01128 0.0
O79 O 0.52401 0.30964 0.93302 0.0
O80 O 0.54472 0.4792 0.02069 0.0
O81 O 0.66595 0.589 0.04474 0.0
C82 C 0.74865 0.4946 0.76124 0.0
C83 C 0.5921 0.54649 0.08027 0.0
loop_
_geom_bond_atom_site_label_1
_geom_bond_atom_site_label_2
_geom_bond_distance
_geom_bond_site_symmetry_2
_ccdc_geom_bond_type
C0 O2 1.247 . S
C0 O4 1.258 . S
C1 O8 1.247 . S
C1 O9 1.258 . S
O2 C0 1.247 . S
O2 Zn3 2.028 . S
Zn3 O2 2.028 . S
Zn3 O7 2.035 . S
Zn3 O9 2.035 1_554 S
Zn3 O10 2.028 1_554 S
O4 C0 1.258 . S
O4 Zn5 2.035 . S
Zn5 O4 2.035 . S
Zn5 O6 2.028 . S
Zn5 O8 2.028 1_554 S
Zn5 O11 2.035 1_554 S
O6 Zn5 2.028 . S
O6 C12 1.247 . S
O7 Zn3 2.035 . S
O7 C12 1.258 . S
O8 C1 1.247 . S
O8 Zn5 2.028 1_556 S
O9 C1 1.258 . S
O9 Zn3 2.035 1_556 S
O10 Zn3 2.028 1_556 S
O10 C13 1.247 . S
O11 Zn5 2.035 1_556 S
O11 C13 1.258 . S
C12 O6 1.247 . S
C12 O7 1.258 . S
C13 O10 1.247 . S
C13 O11 1.258 . S
C14 O16 1.247 . S
C14 O18 1.258 . S
C15 O22 1.247 . S
C15 O23 1.258 . S
O16 C14 1.247 . S
O16 Zn17 2.028 . S
Zn17 O16 2.028 . S
Zn17 O21 2.035 . S
Zn17 O23 2.035 . S
Zn17 O24 2.028 . S
O18 C14 1.258 . S
O18 Zn19 2.035 . S
Zn19 O18 2.035 . S
Zn19 O20 2.028 . S
Zn19 O22 2.028 . S
Zn19 O25 2.035 . S
O20 Zn19 2.028 . S
O20 C26 1.247 . S
O21 Zn17 2.035 . S
O21 C26 1.258 . S
O22 C15 1.247 . S
O22 Zn19 2.028 . S
O23 C15 1.258 . S
O23 Zn17 2.035 . S
O24 Zn17 2.028 . S
O24 C27 1.247 . S
O25 Zn19 2.035 . S
O25 C27 1.258 . S
C26 O20 1.247 . S
C26 O21 1.258 . S
C27 O24 1.247 . S
C27 O25 1.258 . S
C28 O30 1.247 . S
C28 O32 1.258 . S
C29 O36 1.247 . S
C29 O37 1.258 . S
O30 C28 1.247 . S
O30 Zn31 2.028 . S
Zn31 O30 2.028 . S
Zn31 O35 2.035 . S
Zn31 O37 2.035 . S
Zn31 O38 2.028 . S
O32 C28 1.258 . S
O32 Zn33 2.035 . S
Zn33 O32 2.035 . S
Zn33 O34 2.028 . S
Zn33 O36 2.028 . S
Zn33 O39 2.035 . S
O34 Zn33 2.028 . S
O34 C40 1.247 . S
O35 Zn31 2.035 . S
O35 C40 1.258 . S
O36 C29 1.247 . S
O36 Zn33 2.028 . S
O37 C29 1.258 . S
O37 Zn31 2.035 . S
O38 Zn31 2.028 . S
O38 C41 1.247 . S
O39 Zn33 2.035 . S
O39 C41 1.258 . S
C40 O34 1.247 . S
C40 O35 1.258 . S
C41 O38 1.247 . S
C41 O39 1.258 . S
C42 O44 1.247 . S
C42 O46 1.258 . S
C43 O50 1.247 . S
C43 O51 1.258 . S
O44 C42 1.247 . S
O44 Zn45 2.028 . S
Zn45 O44 2.028 . S
Zn45 O49 2.035 . S
Zn45 O51 2.035 . S
Zn45 O52 2.028 . S
O46 C42 1.258 . S
O46 Zn47 2.035 . S
Zn47 O46 2.035 . S
Zn47 O48 2.028 . S
Zn47 O50 2.028 . S
Zn47 O53 2.035 . S
O48 Zn47 2.028 . S
O48 C54 1.247 . S
O49 Zn45 2.035 . S
O49 C54 1.258 . S
O50 C43 1.247 . S
O50 Zn47 2.028 . S
O51 C43 1.258 . S
O51 Zn45 2.035 . S
O52 Zn45 2.028 . S
O52 C55 1.247 . S
O53 Zn47 2.035 . S
O53 C55 1.258 . S
C54 O48 1.247 . S
C54 O49 1.258 . S
C55 O52 1.247 . S
C55 O53 1.258 . S
C56 O58 1.247 . S
C56 O60 1.258 . S
C57 O64 1.247 . S
C57 O65 1.258 . S
O58 C56 1.247 . S
O58 Zn59 2.028 . S
Zn59 O58 2.028 . S
Zn59 O63 2.035 . S
Zn59 O65 2.035 . S
Zn59 O66 2.028 . S
O60 C56 1.258 . S
O60 Zn61 2.035 . S
Zn61 O60 2.035 . S
Zn61 O62 2.028 . S
Zn61 O64 2.028 . S
Zn61 O67 2.035 . S
O62 Zn61 2.028 . S
O62 C68 1.247 . S
O63 Zn59 2.035 . S
O63 C68 1.258 . S
O64 C57 1.247 . S
O64 Zn61 2.028 . S
O65 C57 1.258 . S
O65 Zn59 2.035 . S
O66 Zn59 2.028 . S
O66 C69 1.247 . S
O67 Zn61 2.035 . S
O67 C69 1.258 . S
C68 O62 1.247 . S
C68 O63 1.258 . S
C69 O66 1.247 . S
C69 O67 1.258 . S
C70 O72 1.247 . S
C70 O74 1.258 . S
C71 O78 1.247 . S
C71 O79 1.258 . S
O72 C70 1.247 . S
O72 Zn73 2.028 . S
Zn73 O72 2.028 . S
Zn73 O77 2.035 . S
Zn73 O79 2.035 1_556 S
Zn73 O80 2.028 1_556 S
O74 C70 1.258 . S
O74 Zn75 2.035 . S
Zn75 O74 2.035 . S
Zn75 O76 2.028 . S
Zn75 O78 2.028 1_556 S
Zn75 O81 2.035 1_556 S
O76 Zn75 2.028 . S
O76 C82 1.247 . S
O77 Zn73 2.035 . S
O77 C82 1.258 . S
O78 C71 1.247 . S
O78 Zn75 2.028 1_554 S
O79 C71 1.258 . S
O79 Zn73 2.035 1_554 S
O80 Zn73 2.028 1_554 S
O80 C83 1.247 . S
O81 Zn75 2.035 1_554 S
O81 C83 1.258 . S
C82 O76 1.247 . S
C82 O77 1.258 . S
C83 O80 1.247 . S
C83 O81 1.258 . S
C13 C54 1.882 1_455 S
C68 C26 1.879 1_566 S
C28 C83 1.882 . S
C43 C0 1.882 1_655 S
C15 C57 1.885 1_545 S
C70 C41 1.882 . S
C12 C40 1.927 . S
C27 C55 1.937 . S
C69 C29 1.937 . S
C82 C42 1.927 . S
C56 C1 1.932 . S
C71 C14 1.932 . S
