# Generated by pormake.
# Topology smm, (6)-cn, num edge types: 1
# Building blocks:
#     Node 0, Type 0, BuildingBlock: MIFKUJ_clean_sbu_0, # of connection points: 6
#     Node 1, Type 0, BuildingBlock: MIFKUJ_clean_sbu_0, # of connection points: 6
#     Node 2, Type 0, BuildingBlock: MIFKUJ_clean_sbu_0, # of connection points: 6
#     Node 3, Type 0, BuildingBlock: MIFKUJ_clean_sbu_0, # of connection points: 6
#     Node 4, Type 0, BuildingBlock: MIFKUJ_clean_sbu_0, # of connection points: 6
#     Node 5, Type 0, BuildingBlock: MIFKUJ_clean_sbu_0, # of connection points: 6
#     Node 6, Type 0, BuildingBlock: MIFKUJ_clean_sbu_0, # of connection points: 6
#     Node 7, Type 0, BuildingBlock: MIFKUJ_clean_sbu_0, # of connection points: 6
#     Node 8, Type 0, BuildingBlock: MIFKUJ_clean_sbu_0, # of connection points: 6
#     Edge 9, Type (0, 0), None
#     Edge 10, Type (0, 0), None
#     Edge 11, Type (0, 0), None
#     Edge 12, Type (0, 0), None
#     Edge 13, Type (0, 0), None
#     Edge 14, Type (0, 0), None
#     Edge 15, Type (0, 0), None
#     Edge 16, Type (0, 0), None
#     Edge 17, Type (0, 0), None
#     Edge 18, Type (0, 0), None
#     Edge 19, Type (0, 0), None
#     Edge 20, Type (0, 0), None
#     Edge 21, Type (0, 0), None
#     Edge 22, Type (0, 0), None
#     Edge 23, Type (0, 0), None
#     Edge 24, Type (0, 0), None
#     Edge 25, Type (0, 0), None
#     Edge 26, Type (0, 0), None
#     Edge 27, Type (0, 0), None
#     Edge 28, Type (0, 0), None
#     Edge 29, Type (0, 0), None
#     Edge 30, Type (0, 0), None
#     Edge 31, Type (0, 0), None
#     Edge 32, Type (0, 0), None
#     Edge 33, Type (0, 0), None
#     Edge 34, Type (0, 0), None
#     Edge 35, Type (0, 0), None
# Relax obj value: 0.022
# Max RMSD: 0.108
# Mean RMSD: 0.090
data_MOF--net-smm--node1-MIFKUJ_clean_sbu_0--edge1-none
_symmetry_space_group_name_H-M    P1
_symmetry_Int_Tables_number       1
_symmetry_cell_setting            triclinic
loop_
_symmetry_equiv_pos_as_xyz
'x, y, z'
_cell_length_a     33.629272
_cell_length_b     34.80898
_cell_length_c     5.6086266
_cell_angle_alpha  92.725744
_cell_angle_beta   92.821697
_cell_angle_gamma 120.17832
loop_
_atom_site_label
_atom_site_type_symbol
_atom_site_fract_x
_atom_site_fract_y
_atom_site_fract_z
_atom_type_partial_charge
Zn0 Zn 0.96467 0.09567 0.03608 0.0
Zn1 Zn 0.97115 0.22259 0.08811 0.0
C2 C 0.0569 0.10535 0.08444 0.0
O3 O 0.06864 0.13569 0.92988 0.0
C4 C 0.91767 0.26061 0.17422 0.0
O5 O 0.93713 0.26358 0.38841 0.0
O6 O 0.90786 0.03468 -0.0074 0.0
O7 O 0.96469 0.14315 0.25683 0.0
O8 O 0.96645 0.20211 0.42186 0.0
C9 C 0.90315 0.00671 0.14142 0.0
O10 O 0.9256 0.02162 0.35457 0.0
O11 O 0.01627 0.08597 0.1508 0.0
C12 C 0.05823 0.29634 0.93519 0.0
O13 O 0.05374 0.26982 0.74854 0.0
O14 O 0.02982 0.28168 0.09466 0.0
O15 O 0.97022 0.17491 0.86349 0.0
O16 O 0.97055 0.11661 0.70265 0.0
O17 O 0.92248 0.23831 0.00354 0.0
C18 C 0.96583 0.16574 0.44326 0.0
C19 C 0.969 0.15191 0.67866 0.0
Zn20 Zn 0.91555 0.8926 0.10756 0.0
Zn21 Zn 0.79853 0.76503 0.01493 0.0
C22 C 0.01691 0.93835 0.0492 0.0
O23 O 0.02286 0.92155 0.24336 0.0
C24 C 0.72141 0.77978 0.89701 0.0
O25 O 0.73811 0.79103 0.68845 0.0
O26 O 0.8959 0.93713 0.1898 0.0
O27 O 0.87433 0.842 0.86226 0.0
O28 O 0.81957 0.77935 0.68184 0.0
C29 C 0.88997 0.96135 0.04751 0.0
O30 O 0.88757 0.95221 0.81546 0.0
O31 O -0.02326 0.92908 0.97311 0.0
C32 C 0.75012 0.68139 0.21163 0.0
O33 O 0.74359 0.70608 0.37126 0.0
O34 O 0.77726 0.70018 0.05056 0.0
O35 O 0.85051 0.80983 0.25047 0.0
O36 O 0.91239 0.86717 0.43067 0.0
O37 O 0.74276 0.77047 0.05561 0.0
C38 C 0.856 0.8167 0.67148 0.0
C39 C 0.8747 0.83074 0.44281 0.0
Zn40 Zn 0.14653 0.05482 0.00529 0.0
Zn41 Zn 0.20532 -0.00422 0.91808 0.0
C42 C 0.05643 0.97484 0.94742 0.0
O43 O 0.04937 -0.00484 0.773 0.0
C44 C 0.30001 0.06706 0.02726 0.0
O45 O 0.28973 0.06187 0.25067 0.0
O46 O 0.1203 0.09563 0.02007 0.0
O47 O 0.19662 0.06963 0.25243 0.0
O48 O 0.18789 0.00199 0.24157 0.0
C49 C 0.08684 0.08729 0.14488 0.0
O50 O 0.07356 0.05558 0.29186 0.0
O51 O 0.09607 -0.00744 0.05901 0.0
C52 C 0.22615 0.93396 0.69915 0.0
O53 O 0.23319 0.95979 0.52383 0.0
O54 O 0.21035 0.94069 0.8877 0.0
O55 O 0.15969 -0.00726 0.6741 0.0
O56 O 0.17147 0.06099 0.69453 0.0
O57 O 0.26857 0.04523 0.85928 0.0
C58 C 0.19009 0.03546 0.3544 0.0
C59 C 0.17287 0.02942 0.5843 0.0
Zn60 Zn 0.62657 0.44048 0.21463 0.0
Zn61 Zn 0.62219 0.56043 0.23358 0.0
C62 C 0.56803 0.34382 0.18066 0.0
O63 O 0.56218 0.35018 0.40587 0.0
C64 C 0.71702 0.63324 0.17996 0.0
O65 O 0.71542 0.60983 -0.01471 0.0
O66 O 0.69231 0.45511 0.27082 0.0
O67 O 0.61972 0.48319 0.01192 0.0
O68 O 0.61503 0.5391 0.88403 0.0
C69 C 0.70929 0.43901 0.12793 0.0
O70 O 0.68621 0.41842 0.92185 0.0
O71 O 0.59094 0.37728 0.06263 0.0
C72 C 0.5835 0.60145 0.49292 0.0
O73 O 0.61762 0.60704 0.64239 0.0
O74 O 0.57478 0.57807 0.29604 0.0
O75 O 0.61607 0.51031 0.42471 0.0
O76 O 0.61105 0.4496 0.54923 0.0
O77 O 0.68356 0.61719 0.31172 0.0
C78 C 0.61487 0.50297 0.8394 0.0
C79 C 0.61267 0.48649 0.59469 0.0
Zn80 Zn 0.559 0.21869 0.17839 0.0
Zn81 Zn 0.43485 0.09419 0.09503 0.0
C82 C 0.65965 0.2576 0.1827 0.0
O83 O 0.6582 0.24564 0.40217 0.0
C84 C 0.34818 0.0861 0.97356 0.0
O85 O 0.35725 0.07765 0.75866 0.0
O86 O 0.54572 0.26875 0.22539 0.0
O87 O 0.51379 0.1692 0.94011 0.0
O88 O 0.45542 0.10892 0.75986 0.0
C89 C 0.55945 0.29997 0.08676 0.0
O90 O 0.5765 0.29637 0.88671 0.0
O91 O 0.62238 0.24695 0.06009 0.0
C92 C 0.41723 0.01063 0.31213 0.0
O93 O 0.44754 0.03492 0.4918 0.0
O94 O 0.41139 0.02916 0.13472 0.0
O95 O 0.48755 0.1382 0.32767 0.0
O96 O 0.55057 0.1942 0.50766 0.0
O97 O 0.37912 0.09924 0.1461 0.0
C98 C 0.49349 0.14483 0.74887 0.0
C99 C 0.51199 0.15869 0.51982 0.0
Zn100 Zn 0.78782 0.37576 0.23222 0.0
Zn101 Zn 0.91588 0.38166 0.25406 0.0
C102 C 0.74687 0.43249 0.21982 0.0
O103 O 0.76311 0.44428 0.44544 0.0
C104 C 0.9032 0.29288 0.12334 0.0
O105 O 0.89487 0.2988 0.90099 0.0
O106 O 0.73862 0.31178 0.25084 0.0
O107 O 0.83881 0.38323 0.03219 0.0
O108 O 0.9016 0.38829 0.90864 0.0
C109 C 0.70304 0.29302 0.10361 0.0
O110 O 0.70202 0.31275 0.91138 0.0
O111 O 0.75573 0.40655 0.09765 0.0
C112 C 0.00044 0.41999 0.54101 0.0
O113 O 0.97392 0.38802 0.67257 0.0
O114 O -0.01755 0.42672 0.35499 0.0
O115 O 0.87089 0.38864 0.44859 0.0
O116 O 0.81368 0.39392 0.57932 0.0
O117 O 0.90979 0.32183 0.29104 0.0
C118 C 0.86448 0.3887 0.86447 0.0
C119 C 0.85012 0.39216 0.62267 0.0
Zn120 Zn 0.28642 0.7577 0.54765 0.0
Zn121 Zn 0.32094 0.8903 0.57394 0.0
C122 C 0.38519 0.78944 0.73339 0.0
O123 O 0.40156 0.82549 0.61692 0.0
C124 C 0.24692 0.90571 0.70171 0.0
O125 O 0.24754 0.88636 0.89599 0.0
O126 O 0.23858 0.69199 0.52746 0.0
O127 O 0.27331 0.7994 0.75192 0.0
O128 O 0.3215 0.86854 0.89806 0.0
C129 C 0.23853 0.6701 0.70223 0.0
O130 O 0.26157 0.69195 0.90609 0.0
O131 O 0.34237 0.76094 0.71213 0.0
C132 C 0.38195 0.9642 0.33835 0.0
O133 O 0.34536 0.94461 0.18421 0.0
O134 O 0.3817 0.94586 0.52931 0.0
O135 O 0.30839 0.83928 0.34477 0.0
O136 O 0.29252 0.7738 0.19873 0.0
O137 O 0.27253 0.908 0.53742 0.0
C138 C 0.30081 0.82698 0.92322 0.0
C139 C 0.30121 0.81286 0.16401 0.0
Zn140 Zn 0.24801 0.55369 0.79687 0.0
Zn141 Zn 0.12674 0.42467 0.71025 0.0
C142 C 0.3435 0.612 0.83651 0.0
O143 O 0.33182 0.62449 0.03296 0.0
C144 C 0.05049 0.43873 0.57187 0.0
O145 O 0.07648 0.46226 0.40682 0.0
O146 O 0.23809 0.60619 0.82029 0.0
O147 O 0.20392 0.5028 0.5608 0.0
O148 O 0.1484 0.44044 0.38054 0.0
C149 C 0.22606 0.62328 0.65738 0.0
O150 O 0.214 0.6038 0.43863 0.0
O151 O 0.31298 0.57819 0.70539 0.0
C152 C 0.08716 0.34482 0.93176 0.0
O153 O 0.07992 0.37057 0.08012 0.0
O154 O 0.11117 0.36163 0.75705 0.0
O155 O 0.17674 0.47155 0.94839 0.0
O156 O 0.2374 0.5307 0.12695 0.0
O157 O 0.06642 0.4233 0.72618 0.0
C158 C 0.18409 0.47829 0.36922 0.0
C159 C 0.20062 0.49359 0.1396 0.0
Zn160 Zn 0.46778 0.73512 0.75561 0.0
Zn161 Zn 0.5807 0.71593 0.77303 0.0
C162 C 0.38803 0.64232 0.74632 0.0
O163 O 0.39748 0.63434 0.53151 0.0
C164 C 0.67315 0.76575 0.92683 0.0
O165 O 0.65476 0.74496 0.11642 0.0
O166 O 0.45214 0.78401 0.75844 0.0
O167 O 0.52515 0.74887 0.96772 0.0
O168 O 0.56227 0.71727 0.10829 0.0
C169 C 0.41577 0.77654 0.85367 0.0
O170 O 0.39812 0.74511 0.00192 0.0
O171 O 0.41343 0.6801 0.86072 0.0
C172 C 0.56431 0.63063 0.53003 0.0
O173 O 0.53896 0.63433 0.35728 0.0
O174 O 0.58102 0.65902 0.71059 0.0
O175 O 0.5353 0.72154 0.55052 0.0
O176 O 0.47908 0.72903 0.40078 0.0
O177 O 0.64672 0.76292 0.74874 0.0
C178 C 0.5325 0.72888 0.13425 0.0
C179 C 0.51412 0.7254 0.36863 0.0
loop_
_geom_bond_atom_site_label_1
_geom_bond_atom_site_label_2
_geom_bond_distance
_geom_bond_site_symmetry_2
_ccdc_geom_bond_type
Zn0 O6 1.969 1_454 S
Zn0 O7 1.965 1_455 S
Zn0 O11 2.024 . S
Zn0 O16 1.969 1_554 S
Zn1 O8 1.969 . S
Zn1 O14 1.969 . S
Zn1 O15 1.965 1_554 S
Zn1 O17 2.024 1_454 S
C2 O3 1.229 1_554 S
C2 O11 1.058 . S
O3 C2 1.229 1_556 S
C4 O5 1.229 . S
C4 O17 1.058 1_554 S
O5 C4 1.229 . S
O6 Zn0 1.969 1_656 S
O6 C9 1.267 1_556 S
O7 Zn0 1.965 1_655 S
O7 C18 1.260 1_655 S
O8 Zn1 1.969 . S
O8 C18 1.258 . S
C9 O6 1.267 1_554 S
C9 O10 1.228 . S
O10 C9 1.228 . S
O11 Zn0 2.024 . S
O11 C2 1.058 . S
C12 O13 1.228 . S
C12 O14 1.267 1_556 S
O13 C12 1.228 . S
O14 Zn1 1.969 . S
O14 C12 1.267 1_554 S
O15 Zn1 1.965 1_556 S
O15 C19 1.260 . S
O16 Zn0 1.969 1_556 S
O16 C19 1.258 . S
O17 Zn1 2.024 1_656 S
O17 C4 1.058 1_556 S
C18 O7 1.260 1_455 S
C18 O8 1.258 . S
C19 O15 1.260 . S
C19 O16 1.258 . S
Zn20 O26 1.969 . S
Zn20 O27 1.965 1_554 S
Zn20 O31 2.024 . S
Zn20 O36 1.969 . S
Zn21 O28 1.969 1_554 S
Zn21 O34 1.969 1_554 S
Zn21 O35 1.965 . S
Zn21 O37 2.024 . S
C22 O23 1.228 . S
C22 O31 1.058 . S
O23 C22 1.228 . S
C24 O25 1.229 . S
C24 O37 1.058 1_556 S
O25 C24 1.229 . S
O26 Zn20 1.969 . S
O26 C29 1.267 1_554 S
O27 Zn20 1.965 1_556 S
O27 C38 1.260 . S
O28 Zn21 1.969 1_556 S
O28 C38 1.258 . S
C29 O26 1.267 1_556 S
C29 O30 1.228 . S
O30 C29 1.228 . S
O31 Zn20 2.024 . S
O31 C22 1.058 . S
C32 O33 1.228 . S
C32 O34 1.267 1_554 S
O33 C32 1.228 . S
O34 Zn21 1.969 1_556 S
O34 C32 1.267 1_556 S
O35 Zn21 1.965 . S
O35 C39 1.260 . S
O36 Zn20 1.969 . S
O36 C39 1.258 . S
O37 Zn21 2.024 . S
O37 C24 1.058 1_554 S
C38 O27 1.260 . S
C38 O28 1.258 . S
C39 O35 1.260 . S
C39 O36 1.258 . S
Zn40 O46 1.969 1_554 S
Zn40 O47 1.965 . S
Zn40 O51 2.024 1_545 S
Zn40 O56 1.969 1_554 S
Zn41 O48 1.969 . S
Zn41 O54 1.969 1_545 S
Zn41 O55 1.965 1_544 S
Zn41 O57 2.024 1_554 S
C42 O43 1.229 . S
C42 O51 1.058 1_556 S
O43 C42 1.229 . S
C44 O45 1.229 . S
C44 O57 1.058 1_554 S
O45 C44 1.229 . S
O46 Zn40 1.969 1_556 S
O46 C49 1.267 1_556 S
O47 Zn40 1.965 . S
O47 C58 1.260 . S
O48 Zn41 1.969 . S
O48 C58 1.258 . S
C49 O46 1.267 1_554 S
C49 O50 1.228 . S
O50 C49 1.228 . S
O51 Zn40 2.024 1_565 S
O51 C42 1.058 1_554 S
C52 O53 1.228 . S
C52 O54 1.267 1_556 S
O53 C52 1.228 . S
O54 Zn41 1.969 1_565 S
O54 C52 1.267 1_554 S
O55 Zn41 1.965 1_566 S
O55 C59 1.260 1_565 S
O56 Zn40 1.969 1_556 S
O56 C59 1.258 . S
O57 Zn41 2.024 1_556 S
O57 C44 1.058 1_556 S
C58 O47 1.260 . S
C58 O48 1.258 . S
C59 O55 1.260 1_545 S
C59 O56 1.258 . S
Zn60 O66 1.969 . S
Zn60 O67 1.965 . S
Zn60 O71 2.024 . S
Zn60 O76 1.969 . S
Zn61 O68 1.969 1_554 S
Zn61 O74 1.969 . S
Zn61 O75 1.965 . S
Zn61 O77 2.024 . S
C62 O63 1.229 . S
C62 O71 1.058 . S
O63 C62 1.229 . S
C64 O65 1.229 . S
C64 O77 1.058 . S
O65 C64 1.229 . S
O66 Zn60 1.969 . S
O66 C69 1.267 . S
O67 Zn60 1.965 . S
O67 C78 1.260 1_554 S
O68 Zn61 1.969 1_556 S
O68 C78 1.258 . S
C69 O66 1.267 . S
C69 O70 1.228 1_554 S
O70 C69 1.228 1_556 S
O71 Zn60 2.024 . S
O71 C62 1.058 . S
C72 O73 1.228 . S
C72 O74 1.267 . S
O73 C72 1.228 . S
O74 Zn61 1.969 . S
O74 C72 1.267 . S
O75 Zn61 1.965 . S
O75 C79 1.260 . S
O76 Zn60 1.969 . S
O76 C79 1.258 . S
O77 Zn61 2.024 . S
O77 C64 1.058 . S
C78 O67 1.260 1_556 S
C78 O68 1.258 . S
C79 O75 1.260 . S
C79 O76 1.258 . S
Zn80 O86 1.969 . S
Zn80 O87 1.965 1_554 S
Zn80 O91 2.024 . S
Zn80 O96 1.969 . S
Zn81 O88 1.969 1_554 S
Zn81 O94 1.969 . S
Zn81 O95 1.965 . S
Zn81 O97 2.024 . S
C82 O83 1.229 . S
C82 O91 1.058 . S
O83 C82 1.229 . S
C84 O85 1.229 1_554 S
C84 O97 1.058 . S
O85 C84 1.229 1_556 S
O86 Zn80 1.969 . S
O86 C89 1.267 . S
O87 Zn80 1.965 1_556 S
O87 C98 1.260 . S
O88 Zn81 1.969 1_556 S
O88 C98 1.258 . S
C89 O86 1.267 . S
C89 O90 1.228 1_554 S
O90 C89 1.228 1_556 S
O91 Zn80 2.024 . S
O91 C82 1.058 . S
C92 O93 1.228 . S
C92 O94 1.267 . S
O93 C92 1.228 . S
O94 Zn81 1.969 . S
O94 C92 1.267 . S
O95 Zn81 1.965 . S
O95 C99 1.260 . S
O96 Zn80 1.969 . S
O96 C99 1.258 . S
O97 Zn81 2.024 . S
O97 C84 1.058 . S
C98 O87 1.260 . S
C98 O88 1.258 . S
C99 O95 1.260 . S
C99 O96 1.258 . S
Zn100 O106 1.969 . S
Zn100 O107 1.965 . S
Zn100 O111 2.024 . S
Zn100 O116 1.969 . S
Zn101 O108 1.969 1_554 S
Zn101 O114 1.969 . S
Zn101 O115 1.965 . S
Zn101 O117 2.024 . S
C102 O103 1.229 . S
C102 O111 1.058 . S
O103 C102 1.229 . S
C104 O105 1.229 . S
C104 O117 1.058 . S
O105 C104 1.229 . S
O106 Zn100 1.969 . S
O106 C109 1.267 . S
O107 Zn100 1.965 . S
O107 C118 1.260 1_554 S
O108 Zn101 1.969 1_556 S
O108 C118 1.258 . S
C109 O106 1.267 . S
C109 O110 1.228 1_554 S
O110 C109 1.228 1_556 S
O111 Zn100 2.024 . S
O111 C102 1.058 . S
C112 O113 1.228 . S
C112 O114 1.267 1_455 S
O113 C112 1.228 . S
O114 Zn101 1.969 . S
O114 C112 1.267 1_655 S
O115 Zn101 1.965 . S
O115 C119 1.260 . S
O116 Zn100 1.969 . S
O116 C119 1.258 . S
O117 Zn101 2.024 . S
O117 C104 1.058 . S
C118 O107 1.260 1_556 S
C118 O108 1.258 . S
C119 O115 1.260 . S
C119 O116 1.258 . S
Zn120 O126 1.969 . S
Zn120 O127 1.965 . S
Zn120 O131 2.024 . S
Zn120 O136 1.969 . S
Zn121 O128 1.969 1_556 S
Zn121 O134 1.969 . S
Zn121 O135 1.965 . S
Zn121 O137 2.024 . S
C122 O123 1.229 . S
C122 O131 1.058 . S
O123 C122 1.229 . S
C124 O125 1.229 . S
C124 O137 1.058 . S
O125 C124 1.229 . S
O126 Zn120 1.969 . S
O126 C129 1.267 . S
O127 Zn120 1.965 . S
O127 C138 1.260 1_556 S
O128 Zn121 1.969 1_554 S
O128 C138 1.258 . S
C129 O126 1.267 . S
C129 O130 1.228 . S
O130 C129 1.228 . S
O131 Zn120 2.024 . S
O131 C122 1.058 . S
C132 O133 1.231 1_545 S
C132 O134 1.267 1_545 S
O133 C132 1.231 1_565 S
O134 Zn121 1.969 . S
O134 C132 1.267 1_565 S
O135 Zn121 1.965 . S
O135 C139 1.260 . S
O136 Zn120 1.969 . S
O136 C139 1.258 . S
O137 Zn121 2.024 . S
O137 C124 1.058 . S
C138 O127 1.260 1_554 S
C138 O128 1.258 . S
C139 O135 1.260 . S
C139 O136 1.258 . S
Zn140 O146 1.969 . S
Zn140 O147 1.965 . S
Zn140 O151 2.024 . S
Zn140 O156 1.969 1_556 S
Zn141 O148 1.969 . S
Zn141 O154 1.969 . S
Zn141 O155 1.965 . S
Zn141 O157 2.024 . S
C142 O143 1.229 . S
C142 O151 1.058 . S
O143 C142 1.229 . S
C144 O145 1.229 . S
C144 O157 1.058 . S
O145 C144 1.229 . S
O146 Zn140 1.969 . S
O146 C149 1.267 . S
O147 Zn140 1.965 . S
O147 C158 1.260 . S
O148 Zn141 1.969 . S
O148 C158 1.258 . S
C149 O146 1.267 . S
C149 O150 1.228 . S
O150 C149 1.228 . S
O151 Zn140 2.024 . S
O151 C142 1.058 . S
C152 O153 1.228 . S
C152 O154 1.267 . S
O153 C152 1.228 . S
O154 Zn141 1.969 . S
O154 C152 1.267 . S
O155 Zn141 1.965 . S
O155 C159 1.260 1_556 S
O156 Zn140 1.969 1_554 S
O156 C159 1.258 . S
O157 Zn141 2.024 . S
O157 C144 1.058 . S
C158 O147 1.260 . S
C158 O148 1.258 . S
C159 O155 1.260 1_554 S
C159 O156 1.258 . S
Zn160 O166 1.969 . S
Zn160 O167 1.965 . S
Zn160 O171 2.024 . S
Zn160 O176 1.969 . S
Zn161 O168 1.969 1_556 S
Zn161 O174 1.969 . S
Zn161 O175 1.965 . S
Zn161 O177 2.024 . S
C162 O163 1.229 . S
C162 O171 1.058 . S
O163 C162 1.229 . S
C164 O165 1.229 . S
C164 O177 1.058 . S
O165 C164 1.229 . S
O166 Zn160 1.969 . S
O166 C169 1.267 . S
O167 Zn160 1.965 . S
O167 C178 1.260 1_556 S
O168 Zn161 1.969 1_554 S
O168 C178 1.258 . S
C169 O166 1.267 . S
C169 O170 1.228 1_556 S
O170 C169 1.228 1_554 S
O171 Zn160 2.024 . S
O171 C162 1.058 . S
C172 O173 1.228 . S
C172 O174 1.267 . S
O173 C172 1.228 . S
O174 Zn161 1.969 . S
O174 C172 1.267 . S
O175 Zn161 1.965 . S
O175 C179 1.260 . S
O176 Zn160 1.969 . S
O176 C179 1.258 . S
O177 Zn161 2.024 . S
O177 C164 1.058 . S
C178 O167 1.260 1_554 S
C178 O168 1.258 . S
C179 O175 1.260 . S
C179 O176 1.258 . S
C12 C152 1.331 . S
C24 C164 1.441 . S
C52 C124 1.349 . S
C84 C44 1.247 . S
C104 C4 1.305 . S
C32 C64 1.361 . S
C144 C112 1.416 . S
C172 C72 1.459 . S
C92 C132 1.620 . S
C49 C2 1.369 . S
C29 C9 1.594 1_566 S
C22 C42 1.682 1_654 S
C69 C102 1.597 . S
C62 C89 1.526 . S
C82 C109 1.653 . S
C169 C122 1.737 . S
C149 C129 1.419 . S
C162 C142 1.521 . S
C19 C18 1.268 . S
C38 C39 1.321 . S
C59 C58 1.358 . S
C79 C78 1.244 . S
C99 C98 1.329 . S
C119 C118 1.291 . S
C139 C138 1.276 . S
C159 C158 1.278 . S
C179 C178 1.310 . S
