# Generated by pormake.
# Topology lcy, (6)-cn, num edge types: 1
# Building blocks:
#     Node 0, Type 0, BuildingBlock: VOLQOD_clean_sbu_1, # of connection points: 6
#     Node 1, Type 0, BuildingBlock: VOLQOD_clean_sbu_1, # of connection points: 6
#     Node 2, Type 0, BuildingBlock: VOLQOD_clean_sbu_1, # of connection points: 6
#     Node 3, Type 0, BuildingBlock: VOLQOD_clean_sbu_1, # of connection points: 6
#     Edge 4, Type (0, 0), BuildingBlock: AJUNOK_clean_linker_0, # of connection points: 2
#     Edge 5, Type (0, 0), BuildingBlock: AJUNOK_clean_linker_0, # of connection points: 2
#     Edge 6, Type (0, 0), BuildingBlock: AJUNOK_clean_linker_0, # of connection points: 2
#     Edge 7, Type (0, 0), BuildingBlock: AJUNOK_clean_linker_0, # of connection points: 2
#     Edge 8, Type (0, 0), BuildingBlock: AJUNOK_clean_linker_0, # of connection points: 2
#     Edge 9, Type (0, 0), BuildingBlock: AJUNOK_clean_linker_0, # of connection points: 2
#     Edge 10, Type (0, 0), BuildingBlock: AJUNOK_clean_linker_0, # of connection points: 2
#     Edge 11, Type (0, 0), BuildingBlock: AJUNOK_clean_linker_0, # of connection points: 2
#     Edge 12, Type (0, 0), BuildingBlock: AJUNOK_clean_linker_0, # of connection points: 2
#     Edge 13, Type (0, 0), BuildingBlock: AJUNOK_clean_linker_0, # of connection points: 2
#     Edge 14, Type (0, 0), BuildingBlock: AJUNOK_clean_linker_0, # of connection points: 2
#     Edge 15, Type (0, 0), BuildingBlock: AJUNOK_clean_linker_0, # of connection points: 2
# Relax obj value: 0.277
# Max RMSD: 0.253
# Mean RMSD: 0.248
data_MOF--net-lcy--node1-VOLQOD_clean_sbu_1--edge1-AJUNOK_clean_linker_0
_symmetry_space_group_name_H-M    P1
_symmetry_Int_Tables_number       1
_symmetry_cell_setting            triclinic
loop_
_symmetry_equiv_pos_as_xyz
'x, y, z'
_cell_length_a     21.106025
_cell_length_b     20.968668
_cell_length_c     21.054232
_cell_angle_alpha  90.290467
_cell_angle_beta   89.257364
_cell_angle_gamma 90.882364
loop_
_atom_site_label
_atom_site_type_symbol
_atom_site_fract_x
_atom_site_fract_y
_atom_site_fract_z
_atom_type_partial_charge
O0 O 0.42893 0.26576 0.46462 0.0
Zn1 Zn 0.35598 0.27496 0.40155 0.0
O2 O 0.35862 0.35811 0.36285 0.0
Zn3 Zn 0.27711 0.39703 0.36237 0.0
Zn4 Zn 0.41248 0.41085 0.41297 0.0
Zn5 Zn 0.39233 0.35558 0.278 0.0
O6 O 0.25599 0.43338 0.27528 0.0
O7 O 0.32598 0.38098 0.2163 0.0
O8 O 0.26574 0.25505 0.4335 0.0
O9 O 0.21322 0.33002 0.38218 0.0
O10 O 0.26756 0.45696 0.43779 0.0
O11 O 0.36254 0.45235 0.48203 0.0
O12 O 0.45165 0.47726 0.35824 0.0
O13 O 0.37671 0.21008 0.33485 0.0
O14 O 0.45918 0.42511 0.26651 0.0
O15 O 0.41904 0.26601 0.25487 0.0
C16 C 0.47784 0.30171 0.47249 0.0
C17 C 0.27762 0.41626 0.22086 0.0
C18 C 0.305 0.46938 0.48351 0.0
C19 C 0.21379 0.27983 0.41578 0.0
C20 C 0.47068 0.47428 0.30078 0.0
C21 C 0.40462 0.21275 0.28094 0.0
O22 O 0.4796 0.35827 0.45094 0.0
O23 O 0.95922 0.02631 0.69016 0.0
Zn24 Zn 0.89839 0.10129 0.68651 0.0
O25 O 0.85469 0.10473 0.60746 0.0
Zn26 Zn 0.85418 0.19021 0.5762 0.0
Zn27 Zn 0.904 0.05513 0.55135 0.0
Zn28 Zn 0.7709 0.06754 0.61035 0.0
O29 O 0.76568 0.21421 0.54766 0.0
O30 O 0.70776 0.13449 0.58844 0.0
O31 O 0.93492 0.1883 0.7099 0.0
O32 O 0.87957 0.24987 0.64605 0.0
O33 O 0.92567 0.20247 0.51163 0.0
O34 O 0.9734 0.10893 0.515 0.0
O35 O 0.84983 0.0209 0.48385 0.0
O36 O 0.83429 0.07928 0.75211 0.0
O37 O 0.76066 0.00207 0.53829 0.0
O38 O 0.75154 0.03753 0.70089 0.0
C39 C 0.96258 0.97887 0.65202 0.0
C40 C 0.71183 0.18829 0.56069 0.0
C41 C 0.97319 0.16733 0.49892 0.0
C42 C 0.91677 0.2434 0.69267 0.0
C43 C 0.7946 -0.00379 0.48779 0.0
C44 C 0.78074 0.05071 0.75239 0.0
O45 O 0.93933 0.98147 0.59681 0.0
O46 O 0.02313 0.69249 0.75654 0.0
Zn47 Zn 0.0309 0.61817 0.81866 0.0
O48 O 0.11395 0.61596 0.85485 0.0
Zn49 Zn 0.14639 0.53129 0.85094 0.0
Zn50 Zn 0.16667 0.67007 0.80364 0.0
Zn51 Zn 0.11549 0.64609 0.94125 0.0
O52 O 0.18557 0.50607 0.93519 0.0
O53 O 0.13656 0.57413 -0.0004 0.0
O54 O 0.00538 0.53053 0.78421 0.0
O55 O 0.07524 0.47056 0.83357 0.0
O56 O 0.20195 0.52184 0.7722 0.0
O57 O 0.2041 0.61998 0.73209 0.0
O58 O 0.23493 0.70734 0.85549 0.0
O59 O 0.97003 0.64021 0.88821 0.0
O60 O 0.19144 0.7063 0.95254 0.0
O61 O 0.02838 0.68011 0.96683 0.0
C62 C 0.06007 0.7408 0.7488 0.0
C63 C 0.17072 0.52515 -0.00883 0.0
C64 C 0.21644 0.56093 0.72785 0.0
C65 C 0.02522 0.47589 0.80105 0.0
C66 C 0.23657 0.72139 0.91417 0.0
C67 C 0.97445 0.66788 0.94196 0.0
O68 O 0.11645 0.74094 0.76924 0.0
O69 O 0.49851 0.92757 0.19997 0.0
Zn70 Zn 0.56361 0.85662 0.19082 0.0
O71 O 0.60351 0.85872 0.10819 0.0
Zn72 Zn 0.60162 0.77682 0.06824 0.0
Zn73 Zn 0.55585 0.9139 0.05715 0.0
Zn74 Zn 0.68895 0.89055 0.11028 0.0
O75 O 0.68733 0.75487 0.0295 0.0
O76 O 0.74832 0.82101 0.08538 0.0
O77 O 0.53372 0.76593 0.2115 0.0
O78 O 0.58345 0.71275 0.13434 0.0
O79 O 0.52508 0.76808 0.01136 0.0
O80 O 0.48615 0.86596 0.01598 0.0
O81 O 0.61115 0.95247 -0.00878 0.0
O82 O 0.62845 0.88065 0.25497 0.0
O83 O 0.70351 0.95585 0.04036 0.0
O84 O 0.71094 0.91919 0.19948 0.0
C85 C 0.49276 0.97746 0.16587 0.0
C86 C 0.74207 0.77352 0.04792 0.0
C87 C 0.48173 0.80783 -0.00071 0.0
C88 C 0.55143 0.71358 0.18582 0.0
C89 C 0.66923 0.96914 -0.00722 0.0
C90 C 0.68294 0.90741 0.25241 0.0
O91 O 0.51806 0.98098 0.11088 0.0
C92 C 0.1742 0.51087 0.10942 0.0
C93 C 0.19575 0.49267 0.04832 0.0
C94 C 0.19974 0.48497 0.16462 0.0
C95 C 0.24821 0.43976 0.16144 0.0
H96 H 0.13771 0.54628 0.11499 0.0
H97 H 0.18199 0.50161 0.21019 0.0
S98 S 0.31961 0.37322 0.01313 0.0
N99 N 0.26707 0.42452 -0.01189 0.0
N100 N 0.31505 0.37572 0.09139 0.0
C101 C 0.26916 0.41975 0.10055 0.0
C102 C 0.24295 0.44613 0.04427 0.0
C103 C 0.67507 0.93806 0.36697 0.0
C104 C 0.71308 0.926 0.31285 0.0
C105 C 0.70189 0.95797 0.42439 0.0
C106 C 0.7678 0.96621 0.42997 0.0
H107 H 0.62393 0.93388 0.36456 0.0
H108 H 0.67049 0.96908 0.46388 0.0
S109 S 0.8886 0.93228 0.30454 0.0
N110 N 0.82006 0.91808 0.26996 0.0
N111 N 0.87092 0.95457 0.37786 0.0
C112 C 0.80654 0.95118 0.37697 0.0
C113 C 0.77909 0.93146 0.31841 0.0
C114 C 0.29327 0.56405 0.63675 0.0
C115 C 0.23971 0.53629 0.66651 0.0
C116 C 0.31373 0.54302 0.57662 0.0
C117 C 0.27959 0.49566 0.54341 0.0
H118 H 0.3199 0.60154 0.6605 0.0
H119 H 0.3564 0.56398 0.55587 0.0
S120 S 0.13456 0.41016 0.59993 0.0
N121 N 0.15246 0.45982 0.6584 0.0
N122 N 0.18937 0.42212 0.54435 0.0
C123 C 0.22508 0.46872 0.57213 0.0
C124 C 0.20551 0.48862 0.63404 0.0
C125 C 0.66057 0.00638 0.88062 0.0
C126 C 0.69846 -0.00338 0.93439 0.0
C127 C 0.68738 0.02355 0.82189 0.0
C128 C 0.75308 0.03236 0.81467 0.0
H129 H 0.60968 -0.00082 0.88323 0.0
H130 H 0.65635 0.02996 0.78191 0.0
S131 S 0.87363 0.01416 0.94035 0.0
N132 N 0.80538 -0.00162 0.97642 0.0
N133 N 0.85578 0.03084 0.86628 0.0
C134 C 0.79156 0.02429 0.86826 0.0
C135 C 0.76427 0.00654 0.92803 0.0
C136 C 0.08764 0.15918 0.4672 0.0
C137 C 0.03244 0.19618 0.47225 0.0
C138 C 0.14624 0.18642 0.44943 0.0
C139 C 0.15188 0.25159 0.43528 0.0
H140 H 0.08615 0.10882 0.47841 0.0
H141 H 0.18731 0.15613 0.44656 0.0
S142 S 0.02242 0.3699 0.44106 0.0
N143 N -0.01229 0.30181 0.46119 0.0
N144 N 0.09747 0.35288 0.4277 0.0
C145 C 0.09704 0.2891 0.43923 0.0
C146 C 0.03747 0.26145 0.4576 0.0
C147 C 0.06107 0.85965 0.74124 0.0
C148 C 0.03615 0.80031 0.7208 0.0
C149 C 0.03735 0.91727 0.71871 0.0
C150 C -0.01108 0.91775 0.67366 0.0
H151 H 0.09821 0.86173 0.77628 0.0
H152 H 0.05716 0.96171 0.73662 0.0
S153 S 0.90827 0.77548 0.60388 0.0
N154 N 0.96053 0.74568 0.65282 0.0
N155 N 0.91687 0.85373 0.60904 0.0
C156 C 0.96434 0.85873 0.65191 0.0
C157 C -0.01237 0.8001 0.67589 0.0
C158 C 0.32878 0.71379 -0.0148 0.0
C159 C 0.29633 0.74755 0.93858 0.0
C160 C 0.39045 0.73184 0.00231 0.0
C161 C 0.42083 0.78498 0.97426 0.0
H162 H 0.30712 0.67205 0.00713 0.0
H163 H 0.41391 0.705 0.0388 0.0
S164 S 0.35546 0.8893 0.85046 0.0
N165 N 0.29891 0.83553 0.86401 0.0
N166 N 0.4138 0.87159 0.89859 0.0
C167 C 0.38845 0.8196 0.9283 0.0
C168 C 0.32641 0.80023 0.90974 0.0
C169 C 0.43044 0.09701 0.28622 0.0
C170 C 0.42219 0.15216 0.24948 0.0
C171 C 0.45042 0.03977 0.25846 0.0
C172 C 0.46257 0.03528 0.19277 0.0
H173 H 0.42338 0.09849 0.33726 0.0
H174 H 0.4585 -0.00049 0.2892 0.0
S175 S 0.43943 0.16378 0.07442 0.0
N176 N 0.4219 0.19722 0.14342 0.0
N177 N 0.45863 0.0897 0.09077 0.0
C178 C 0.45121 0.0893 0.15502 0.0
C179 C 0.43138 0.14771 0.18348 0.0
C180 C 0.59565 0.18329 0.53704 0.0
C181 C 0.65217 0.21965 0.54185 0.0
C182 C 0.53907 0.21058 0.51692 0.0
C183 C 0.5363 0.2756 0.50111 0.0
H184 H 0.59527 0.13273 0.54736 0.0
H185 H 0.49763 0.17988 0.51224 0.0
S186 S 0.66975 0.39325 0.5118 0.0
N187 N 0.70083 0.32504 0.53322 0.0
N188 N 0.59485 0.37676 0.49612 0.0
C189 C 0.59204 0.31312 0.50816 0.0
C190 C 0.64979 0.28508 0.52818 0.0
C191 C 0.95311 0.4185 0.7258 0.0
C192 C -0.00691 0.41669 0.77855 0.0
C193 C 0.92777 0.36237 0.69944 0.0
C194 C 0.94118 0.30194 0.72478 0.0
H195 H 0.94284 0.46344 0.70326 0.0
H196 H 0.89855 0.36659 0.6578 0.0
S197 S 0.03799 0.27158 0.86717 0.0
N198 N 0.0411 0.34973 0.85843 0.0
N199 N -0.00645 0.24437 0.80878 0.0
C200 C 0.9791 0.29963 0.77913 0.0
C201 C 0.00497 0.35687 0.80601 0.0
C202 C 0.91662 0.74045 0.01689 0.0
C203 C 0.91511 0.68954 0.97333 0.0
C204 C 0.8605 0.7662 0.04154 0.0
C205 C 0.80042 0.74194 0.02395 0.0
H206 H 0.96138 0.76212 0.03049 0.0
H207 H 0.86454 0.80648 0.07372 0.0
S208 S 0.77082 0.6038 0.91676 0.0
N209 N 0.84867 0.61214 0.91748 0.0
N210 N 0.74343 0.66051 0.96378 0.0
C211 C 0.79836 0.68916 0.98249 0.0
C212 C 0.85556 0.66301 0.95724 0.0
C213 C 0.52082 0.64747 0.28011 0.0
C214 C 0.53388 0.65162 0.21477 0.0
C215 C 0.50381 0.5891 0.308 0.0
C216 C 0.49846 0.53266 0.27148 0.0
H217 H 0.52361 0.68961 0.31 0.0
H218 H 0.49306 0.58883 0.35844 0.0
S219 S 0.52848 0.51817 0.09782 0.0
N220 N 0.5413 0.5943 0.114 0.0
N221 N 0.50925 0.48484 0.16634 0.0
C222 C 0.51281 0.53601 0.20615 0.0
C223 C 0.53038 0.5954 0.17782 0.0
loop_
_geom_bond_atom_site_label_1
_geom_bond_atom_site_label_2
_geom_bond_distance
_geom_bond_site_symmetry_2
_ccdc_geom_bond_type
O0 Zn1 1.953 . S
O0 C16 1.225 . S
Zn1 O0 1.953 . S
Zn1 O2 1.949 . S
Zn1 O8 1.919 . S
Zn1 O13 1.924 . S
O2 Zn1 1.949 . S
O2 Zn3 1.923 . S
O2 Zn4 1.950 . S
O2 Zn5 1.945 . S
Zn3 O2 1.923 . S
Zn3 O6 1.933 . S
Zn3 O9 1.941 . S
Zn3 O10 1.965 . S
Zn4 O2 1.950 . S
Zn4 O11 1.938 . S
Zn4 O12 1.906 . S
Zn4 O22 1.953 . S
Zn5 O2 1.945 . S
Zn5 O7 1.932 . S
Zn5 O14 1.977 . S
Zn5 O15 1.910 . S
O6 Zn3 1.933 . S
O6 C17 1.226 . S
O7 Zn5 1.932 . S
O7 C17 1.307 . S
O8 Zn1 1.919 . S
O8 C19 1.253 . S
O9 Zn3 1.941 . S
O9 C19 1.283 . S
O10 Zn3 1.965 . S
O10 C18 1.303 . S
O11 Zn4 1.938 . S
O11 C18 1.247 . S
O12 Zn4 1.906 . S
O12 C20 1.304 . S
O13 Zn1 1.924 . S
O13 C21 1.311 . S
O14 Zn5 1.977 . S
O14 C20 1.272 . S
O15 Zn5 1.910 . S
O15 C21 1.231 . S
C16 O0 1.225 . S
C16 O22 1.298 . S
C17 O6 1.226 . S
C17 O7 1.307 . S
C18 O10 1.303 . S
C18 O11 1.247 . S
C19 O8 1.253 . S
C19 O9 1.283 . S
C20 O12 1.304 . S
C20 O14 1.272 . S
C21 O13 1.311 . S
C21 O15 1.231 . S
O22 Zn4 1.953 . S
O22 C16 1.298 . S
O23 Zn24 1.953 . S
O23 C39 1.225 . S
Zn24 O23 1.953 . S
Zn24 O25 1.949 . S
Zn24 O31 1.919 . S
Zn24 O36 1.924 . S
O25 Zn24 1.949 . S
O25 Zn26 1.923 . S
O25 Zn27 1.950 . S
O25 Zn28 1.945 . S
Zn26 O25 1.923 . S
Zn26 O29 1.933 . S
Zn26 O32 1.941 . S
Zn26 O33 1.965 . S
Zn27 O25 1.950 . S
Zn27 O34 1.938 . S
Zn27 O35 1.906 . S
Zn27 O45 1.953 . S
Zn28 O25 1.945 . S
Zn28 O30 1.932 . S
Zn28 O37 1.977 . S
Zn28 O38 1.910 . S
O29 Zn26 1.933 . S
O29 C40 1.226 . S
O30 Zn28 1.932 . S
O30 C40 1.307 . S
O31 Zn24 1.919 . S
O31 C42 1.253 . S
O32 Zn26 1.941 . S
O32 C42 1.283 . S
O33 Zn26 1.965 . S
O33 C41 1.303 1_655 S
O34 Zn27 1.938 . S
O34 C41 1.247 1_655 S
O35 Zn27 1.906 . S
O35 C43 1.304 . S
O36 Zn24 1.924 . S
O36 C44 1.311 . S
O37 Zn28 1.977 . S
O37 C43 1.272 . S
O38 Zn28 1.910 . S
O38 C44 1.231 . S
C39 O23 1.225 . S
C39 O45 1.298 . S
C40 O29 1.226 . S
C40 O30 1.307 . S
C41 O33 1.303 1_455 S
C41 O34 1.247 1_455 S
C42 O31 1.253 . S
C42 O32 1.283 . S
C43 O35 1.304 . S
C43 O37 1.272 . S
C44 O36 1.311 . S
C44 O38 1.231 . S
O45 Zn27 1.953 . S
O45 C39 1.298 . S
O46 Zn47 1.953 . S
O46 C62 1.225 . S
Zn47 O46 1.953 . S
Zn47 O48 1.949 . S
Zn47 O54 1.919 1_455 S
Zn47 O59 1.924 1_455 S
O48 Zn47 1.949 . S
O48 Zn49 1.923 . S
O48 Zn50 1.950 . S
O48 Zn51 1.945 . S
Zn49 O48 1.923 . S
Zn49 O52 1.933 . S
Zn49 O55 1.941 . S
Zn49 O56 1.965 . S
Zn50 O48 1.950 . S
Zn50 O57 1.938 . S
Zn50 O58 1.906 . S
Zn50 O68 1.953 . S
Zn51 O48 1.945 . S
Zn51 O53 1.932 1_556 S
Zn51 O60 1.977 . S
Zn51 O61 1.910 1_556 S
O52 Zn49 1.933 . S
O52 C63 1.226 . S
O53 Zn51 1.932 1_554 S
O53 C63 1.307 1_554 S
O54 Zn47 1.919 1_655 S
O54 C65 1.253 1_655 S
O55 Zn49 1.941 . S
O55 C65 1.283 . S
O56 Zn49 1.965 . S
O56 C64 1.303 . S
O57 Zn50 1.938 . S
O57 C64 1.247 . S
O58 Zn50 1.906 . S
O58 C66 1.304 . S
O59 Zn47 1.924 1_655 S
O59 C67 1.311 1_655 S
O60 Zn51 1.977 . S
O60 C66 1.272 . S
O61 Zn51 1.910 1_554 S
O61 C67 1.231 1_554 S
C62 O46 1.225 . S
C62 O68 1.298 . S
C63 O52 1.226 . S
C63 O53 1.307 1_556 S
C64 O56 1.303 . S
C64 O57 1.247 . S
C65 O54 1.253 1_455 S
C65 O55 1.283 . S
C66 O58 1.304 . S
C66 O60 1.272 . S
C67 O59 1.311 1_455 S
C67 O61 1.231 1_556 S
O68 Zn50 1.953 . S
O68 C62 1.298 . S
O69 Zn70 1.953 . S
O69 C85 1.225 . S
Zn70 O69 1.953 . S
Zn70 O71 1.949 . S
Zn70 O77 1.919 . S
Zn70 O82 1.924 . S
O71 Zn70 1.949 . S
O71 Zn72 1.923 . S
O71 Zn73 1.950 . S
O71 Zn74 1.945 . S
Zn72 O71 1.923 . S
Zn72 O75 1.933 . S
Zn72 O78 1.941 . S
Zn72 O79 1.965 . S
Zn73 O71 1.950 . S
Zn73 O80 1.938 . S
Zn73 O81 1.906 . S
Zn73 O91 1.953 . S
Zn74 O71 1.945 . S
Zn74 O76 1.932 . S
Zn74 O83 1.977 . S
Zn74 O84 1.910 . S
O75 Zn72 1.933 . S
O75 C86 1.226 . S
O76 Zn74 1.932 . S
O76 C86 1.307 . S
O77 Zn70 1.919 . S
O77 C88 1.253 . S
O78 Zn72 1.941 . S
O78 C88 1.283 . S
O79 Zn72 1.965 . S
O79 C87 1.303 . S
O80 Zn73 1.938 . S
O80 C87 1.247 . S
O81 Zn73 1.906 . S
O81 C89 1.304 . S
O82 Zn70 1.924 . S
O82 C90 1.311 . S
O83 Zn74 1.977 . S
O83 C89 1.272 . S
O84 Zn74 1.910 . S
O84 C90 1.231 . S
C85 O69 1.225 . S
C85 O91 1.298 . S
C86 O75 1.226 . S
C86 O76 1.307 . S
C87 O79 1.303 . S
C87 O80 1.247 . S
C88 O77 1.253 . S
C88 O78 1.283 . S
C89 O81 1.304 . S
C89 O83 1.272 . S
C90 O82 1.311 . S
C90 O84 1.231 . S
O91 Zn73 1.953 . S
O91 C85 1.298 . S
C92 C93 1.369 . S
C92 C94 1.419 . S
C92 H96 0.930 . S
C93 C92 1.369 . S
C93 C102 1.429 . S
C94 C92 1.419 . S
C94 C95 1.363 . S
C94 H97 0.929 . S
C95 C94 1.363 . S
C95 C101 1.428 . S
H96 C92 0.930 . S
H97 C94 0.929 . S
S98 N99 1.613 . S
S98 N100 1.610 . S
N99 S98 1.613 . S
N99 C102 1.350 . S
N100 S98 1.610 . S
N100 C101 1.351 . S
C101 C95 1.428 . S
C101 N100 1.351 . S
C101 C102 1.434 . S
C102 C93 1.429 . S
C102 N99 1.350 . S
C102 C101 1.434 . S
C103 C104 1.369 . S
C103 C105 1.419 . S
C103 H107 0.930 . S
C104 C103 1.369 . S
C104 C113 1.429 . S
C105 C103 1.419 . S
C105 C106 1.363 . S
C105 H108 0.929 . S
C106 C105 1.363 . S
C106 C112 1.428 . S
H107 C103 0.930 . S
H108 C105 0.929 . S
S109 N110 1.613 1_545 S
S109 N111 1.610 . S
N110 S109 1.613 1_565 S
N110 C113 1.350 . S
N111 S109 1.610 . S
N111 C112 1.351 1_545 S
C112 C106 1.428 . S
C112 N111 1.351 1_565 S
C112 C113 1.434 . S
C113 C104 1.429 . S
C113 N110 1.350 . S
C113 C112 1.434 . S
C114 C115 1.369 . S
C114 C116 1.419 . S
C114 H118 0.930 . S
C115 C114 1.369 . S
C115 C124 1.429 . S
C116 C114 1.419 . S
C116 C117 1.363 . S
C116 H119 0.929 . S
C117 C116 1.363 . S
C117 C123 1.428 . S
H118 C114 0.930 . S
H119 C116 0.929 . S
S120 N121 1.613 . S
S120 N122 1.610 . S
N121 S120 1.613 . S
N121 C124 1.350 . S
N122 S120 1.610 . S
N122 C123 1.351 . S
C123 C117 1.428 . S
C123 N122 1.351 . S
C123 C124 1.434 . S
C124 C115 1.429 . S
C124 N121 1.350 . S
C124 C123 1.434 . S
C125 C126 1.371 . S
C125 C127 1.419 . S
C125 H129 0.930 . S
C126 C125 1.371 . S
C126 C135 1.429 . S
C127 C125 1.419 . S
C127 C128 1.363 . S
C127 H130 0.929 . S
C128 C127 1.363 . S
C128 C134 1.428 . S
H129 C125 0.930 . S
H130 C127 0.929 . S
S131 N132 1.613 . S
S131 N133 1.610 . S
N132 S131 1.613 . S
N132 C135 1.350 . S
N133 S131 1.610 . S
N133 C134 1.351 . S
C134 C128 1.428 . S
C134 N133 1.351 . S
C134 C135 1.434 . S
C135 C126 1.429 . S
C135 N132 1.350 . S
C135 C134 1.434 . S
C136 C137 1.369 . S
C136 C138 1.419 . S
C136 H140 0.930 . S
C137 C136 1.369 . S
C137 C146 1.429 . S
C138 C136 1.419 . S
C138 C139 1.363 . S
C138 H141 0.929 . S
C139 C138 1.363 . S
C139 C145 1.428 . S
H140 C136 0.930 . S
H141 C138 0.929 . S
S142 N143 1.613 . S
S142 N144 1.610 . S
N143 S142 1.613 . S
N143 C146 1.350 . S
N144 S142 1.610 . S
N144 C145 1.351 . S
C145 C139 1.428 . S
C145 N144 1.351 . S
C145 C146 1.434 . S
C146 C137 1.429 . S
C146 N143 1.350 . S
C146 C145 1.434 . S
C147 C148 1.369 . S
C147 C149 1.419 . S
C147 H151 0.930 . S
C148 C147 1.369 . S
C148 C157 1.429 . S
C149 C147 1.419 . S
C149 C150 1.363 . S
C149 H152 0.929 . S
C150 C149 1.363 . S
C150 C156 1.428 1_455 S
H151 C147 0.930 . S
H152 C149 0.929 . S
S153 N154 1.613 . S
S153 N155 1.610 . S
N154 S153 1.613 . S
N154 C157 1.350 1_655 S
N155 S153 1.610 . S
N155 C156 1.351 . S
C156 C150 1.428 1_655 S
C156 N155 1.351 . S
C156 C157 1.434 1_655 S
C157 C148 1.429 . S
C157 N154 1.350 1_455 S
C157 C156 1.434 1_455 S
C158 C159 1.369 1_554 S
C158 C160 1.419 . S
C158 H162 0.930 . S
C159 C158 1.369 1_556 S
C159 C168 1.429 . S
C160 C158 1.419 . S
C160 C161 1.363 . S
C160 H163 0.929 . S
C161 C160 1.363 . S
C161 C167 1.428 1_554 S
H162 C158 0.930 . S
H163 C160 0.929 . S
S164 N165 1.613 . S
S164 N166 1.610 . S
N165 S164 1.613 . S
N165 C168 1.350 . S
N166 S164 1.610 . S
N166 C167 1.351 . S
C167 C161 1.428 1_556 S
C167 N166 1.351 . S
C167 C168 1.434 . S
C168 C159 1.429 . S
C168 N165 1.350 . S
C168 C167 1.434 . S
C169 C170 1.369 . S
C169 C171 1.419 . S
C169 H173 0.930 . S
C170 C169 1.369 . S
C170 C179 1.429 . S
C171 C169 1.419 . S
C171 C172 1.363 . S
C171 H174 0.929 . S
C172 C171 1.363 . S
C172 C178 1.428 . S
H173 C169 0.930 . S
H174 C171 0.929 . S
S175 N176 1.613 . S
S175 N177 1.610 . S
N176 S175 1.613 . S
N176 C179 1.350 . S
N177 S175 1.610 . S
N177 C178 1.351 . S
C178 C172 1.428 . S
C178 N177 1.351 . S
C178 C179 1.434 . S
C179 C170 1.429 . S
C179 N176 1.350 . S
C179 C178 1.434 . S
C180 C181 1.369 . S
C180 C182 1.419 . S
C180 H184 0.930 . S
C181 C180 1.369 . S
C181 C190 1.429 . S
C182 C180 1.419 . S
C182 C183 1.363 . S
C182 H185 0.929 . S
C183 C182 1.363 . S
C183 C189 1.428 . S
H184 C180 0.930 . S
H185 C182 0.929 . S
S186 N187 1.613 . S
S186 N188 1.610 . S
N187 S186 1.613 . S
N187 C190 1.350 . S
N188 S186 1.610 . S
N188 C189 1.351 . S
C189 C183 1.428 . S
C189 N188 1.351 . S
C189 C190 1.434 . S
C190 C181 1.429 . S
C190 N187 1.350 . S
C190 C189 1.434 . S
C191 C192 1.369 1_455 S
C191 C193 1.419 1_455 S
C191 H195 0.930 . S
C192 C191 1.369 1_655 S
C192 C201 1.429 . S
C193 C191 1.419 1_655 S
C193 C194 1.363 . S
C193 H196 0.929 1_655 S
C194 C193 1.363 . S
C194 C200 1.428 . S
H195 C191 0.930 . S
H196 C193 0.929 1_455 S
S197 N198 1.613 . S
S197 N199 1.610 . S
N198 S197 1.613 . S
N198 C201 1.350 . S
N199 S197 1.610 . S
N199 C200 1.351 . S
C200 C194 1.428 . S
C200 N199 1.351 . S
C200 C201 1.434 . S
C201 C192 1.429 . S
C201 N198 1.350 . S
C201 C200 1.434 . S
C202 C203 1.369 . S
C202 C204 1.419 . S
C202 H206 0.930 . S
C203 C202 1.369 . S
C203 C212 1.429 1_554 S
C204 C202 1.419 . S
C204 C205 1.363 . S
C204 H207 0.929 . S
C205 C204 1.363 . S
C205 C211 1.428 1_554 S
H206 C202 0.930 . S
H207 C204 0.929 . S
S208 N209 1.613 . S
S208 N210 1.610 . S
N209 S208 1.613 . S
N209 C212 1.350 . S
N210 S208 1.610 . S
N210 C211 1.351 . S
C211 C205 1.428 1_556 S
C211 N210 1.351 . S
C211 C212 1.434 . S
C212 C203 1.429 1_556 S
C212 N209 1.350 . S
C212 C211 1.434 . S
C213 C214 1.369 . S
C213 C215 1.419 . S
C213 H217 0.930 . S
C214 C213 1.369 . S
C214 C223 1.429 . S
C215 C213 1.419 . S
C215 C216 1.363 . S
C215 H218 0.929 . S
C216 C215 1.363 . S
C216 C222 1.428 . S
H217 C213 0.930 . S
H218 C215 0.929 . S
S219 N220 1.613 . S
S219 N221 1.610 . S
N220 S219 1.613 . S
N220 C223 1.350 . S
N221 S219 1.610 . S
N221 C222 1.351 . S
C222 C216 1.428 . S
C222 N221 1.351 . S
C222 C223 1.434 . S
C223 C214 1.429 . S
C223 N220 1.350 . S
C223 C222 1.434 . S
C93 C63 1.618 1_554 S
C95 C17 1.612 . S
C104 C90 1.359 . S
C106 C43 1.418 1_565 S
C115 C64 1.460 . S
C117 C18 1.461 . S
C126 C89 1.414 1_546 S
C128 C44 1.359 . S
C137 C41 1.344 . S
C139 C19 1.312 . S
C148 C62 1.692 . S
C150 C39 1.689 1_465 S
C159 C66 1.361 . S
C161 C87 1.368 . S
C170 C21 1.474 . S
C172 C85 1.481 1_545 S
C181 C40 1.680 . S
C183 C16 1.681 . S
C192 C65 1.316 1_655 S
C194 C42 1.322 . S
C203 C67 1.459 1_654 S
C205 C86 1.474 . S
C214 C88 1.316 . S
C216 C20 1.364 . S
