# Generated by pormake.
# Topology sxc, (6)-cn, num edge types: 1
# Building blocks:
#     Node 0, Type 0, BuildingBlock: GEDQOX_clean_sbu_0, # of connection points: 6
#     Node 1, Type 0, BuildingBlock: GEDQOX_clean_sbu_0, # of connection points: 6
#     Node 2, Type 0, BuildingBlock: GEDQOX_clean_sbu_0, # of connection points: 6
#     Edge 3, Type (0, 0), None
#     Edge 4, Type (0, 0), None
#     Edge 5, Type (0, 0), None
#     Edge 6, Type (0, 0), None
#     Edge 7, Type (0, 0), None
#     Edge 8, Type (0, 0), None
#     Edge 9, Type (0, 0), None
#     Edge 10, Type (0, 0), None
#     Edge 11, Type (0, 0), None
# Relax obj value: 0.945
# Max RMSD: 0.244
# Mean RMSD: 0.134
data_MOF--net-sxc--node1-GEDQOX_clean_sbu_0--edge1-none
_symmetry_space_group_name_H-M    P1
_symmetry_Int_Tables_number       1
_symmetry_cell_setting            triclinic
loop_
_symmetry_equiv_pos_as_xyz
'x, y, z'
_cell_length_a     17.169283
_cell_length_b     15.218223
_cell_length_c     19.960191
_cell_angle_alpha  93.444521
_cell_angle_beta   89.945876
_cell_angle_gamma 154.91837
loop_
_atom_site_label
_atom_site_type_symbol
_atom_site_fract_x
_atom_site_fract_y
_atom_site_fract_z
_atom_type_partial_charge
Nd0 Nd 0.23858 0.31687 -0.00342 0.0
Nd1 Nd 0.22998 0.15207 0.96913 0.0
C2 C 0.32993 0.57581 0.01611 0.0
C3 C 0.3808 0.71992 0.02688 0.0
C4 C 0.37873 0.76417 0.96858 0.0
C5 C 0.26217 0.71666 0.9614 0.0
C6 C 0.15641 0.63436 0.01391 0.0
C7 C 0.20636 0.65378 0.07831 0.0
C8 C 0.32864 0.70904 0.0855 0.0
C9 C 0.2105 0.21002 0.11694 0.0
C10 C 0.64395 0.6418 0.9885 0.0
C11 C 0.11919 0.8766 0.94086 0.0
C12 C 0.96868 0.66967 0.95891 0.0
C13 C 0.96307 0.6531 0.02789 0.0
C14 C 0.98775 0.59396 0.05008 0.0
C15 C 1.00382 0.54105 0.00155 0.0
C16 C 0.92539 0.47118 0.93433 0.0
C17 C 0.9103 0.54051 0.91224 0.0
C18 C 0.28231 0.27885 0.85013 0.0
C19 C 0.82893 0.83054 0.98584 0.0
O20 O 0.26708 0.47636 0.95641 0.0
O21 O 0.32436 0.51984 0.06621 0.0
O22 O 1.09959 0.15645 0.09262 0.0
O23 O 0.32317 0.30241 0.07572 0.0
O24 O 0.54947 0.61801 0.98063 0.0
O25 O 0.55022 0.47359 -0.00557 0.0
O26 O 0.25421 1.03648 0.98883 0.0
O27 O 1.07028 0.88894 0.90092 0.0
O28 O 0.38999 0.33263 0.88043 0.0
O29 O 0.16078 0.18044 0.88758 0.0
O30 O 0.92713 0.85959 -0.00386 0.0
O31 O 0.91861 0.99361 0.97474 0.0
H32 H 0.43385 0.79175 0.92429 0.0
H33 H 0.24417 0.728 0.91305 0.0
H34 H 0.13928 0.60773 0.12147 0.0
H35 H 0.34601 0.69516 0.13308 0.0
H36 H 0.98968 0.73556 0.06471 0.0
H37 H 1.03111 0.63184 0.10339 0.0
H38 H 0.91773 0.40865 0.89667 0.0
H39 H 0.89761 0.53617 0.85832 0.0
Nd40 Nd 0.97377 1.06321 0.32174 0.0
Nd41 Nd 0.26112 0.2286 0.3217 0.0
C42 C 0.84196 1.0685 0.38711 0.0
C43 C 0.76327 1.0746 0.37524 0.0
C44 C 0.8117 0.17338 0.3228 0.0
C45 C 0.74989 0.19662 0.31723 0.0
C46 C 0.64054 1.12239 0.36436 0.0
C47 C 0.58531 1.01475 0.41467 0.0
C48 C 0.64642 0.99106 0.42003 0.0
C49 C 1.09813 1.11832 0.44648 0.0
C50 C 1.04673 0.16523 0.28465 0.0
C51 C 0.40067 0.23363 0.38006 0.0
C52 C 0.48019 0.2278 0.37162 0.0
C53 C 0.57321 0.28658 0.42891 0.0
C54 C 0.62935 0.25675 0.4257 0.0
C55 C 0.59424 0.16906 0.36487 0.0
C56 C 0.51015 1.12094 0.30627 0.0
C57 C 0.45205 0.14912 0.30974 0.0
C58 C 0.23546 0.21961 0.19008 0.0
C59 C 0.89737 0.94494 0.28735 0.0
O60 O 0.73829 0.8945 0.36309 0.0
O61 O 1.0197 0.24178 0.38273 0.0
O62 O 0.93281 0.93612 0.41408 0.0
O63 O 0.20009 0.25458 0.40671 0.0
O64 O 1.01721 0.19615 0.23985 0.0
O65 O 0.23671 0.34417 0.30109 0.0
O66 O 0.22215 1.05853 0.35905 0.0
O67 O 0.50397 0.40753 0.37017 0.0
O68 O 0.39596 0.36832 0.22475 0.0
O69 O 1.10052 1.07902 0.22553 0.0
O70 O 0.95004 0.91012 0.29212 0.0
O71 O 0.72889 0.78103 0.25151 0.0
H72 H 0.9018 0.23829 0.28772 0.0
H73 H 0.79401 0.2803 0.27819 0.0
H74 H 0.49873 0.95378 0.45094 0.0
H75 H 0.60731 0.91343 0.46048 0.0
H76 H 0.59738 0.3497 0.4767 0.0
H77 H 0.69759 0.29898 0.47107 0.0
H78 H 0.48296 1.05417 0.25881 0.0
H79 H 0.38058 1.10389 0.26503 0.0
Nd80 Nd 0.15936 0.2716 0.65474 0.0
Nd81 Nd 0.14948 1.05754 0.64787 0.0
C82 C 0.13656 0.41799 0.69405 0.0
C83 C 0.99268 0.34123 0.68469 0.0
C84 C 0.89756 0.27383 0.73889 0.0
C85 C 0.76005 0.19812 0.73052 0.0
C86 C 0.71515 0.19012 0.6679 0.0
C87 C 0.81228 0.26045 0.61397 0.0
C88 C 0.94846 0.33427 0.62214 0.0
C89 C 0.11629 0.16752 0.51889 0.0
C90 C 0.74516 0.75483 0.64581 0.0
C91 C 0.14675 0.88048 0.62966 0.0
C92 C 0.29208 0.95974 0.63961 0.0
C93 C 0.46235 1.14139 0.61376 0.0
C94 C 0.59816 0.21492 0.62282 0.0
C95 C 0.56924 1.11082 0.65879 0.0
C96 C 0.39986 0.93069 0.68562 0.0
C97 C 0.26284 0.85566 0.67585 0.0
C98 C 0.26391 0.25349 0.77503 0.0
C99 C 0.55721 0.56729 0.64614 0.0
O100 O 1.1034 0.32008 0.73178 0.0
O101 O 0.2147 0.46961 0.64137 0.0
O102 O 0.11866 0.25212 0.53961 0.0
O103 O 0.12893 1.13396 0.56938 0.0
O104 O 0.84268 0.92847 0.65477 0.0
O105 O 0.82814 0.76187 0.63759 0.0
O106 O 0.15935 0.94634 0.58094 0.0
O107 O 1.09857 0.87266 0.68417 0.0
O108 O 0.34434 0.27028 0.74656 0.0
O109 O 0.12906 1.14102 0.73447 0.0
O110 O 0.45522 0.39113 0.62933 0.0
O111 O 0.47881 0.56289 0.66495 0.0
H112 H 0.92932 0.27928 0.78798 0.0
H113 H 0.69064 0.14859 0.77351 0.0
H114 H 0.78122 0.25579 0.5649 0.0
H115 H 1.01851 0.38517 0.57916 0.0
H116 H 0.49143 0.22801 0.58673 0.0
H117 H 0.72761 0.35593 0.60248 0.0
H118 H 0.37187 0.84554 0.71331 0.0
H119 H 0.13369 0.7159 0.69664 0.0
loop_
_geom_bond_atom_site_label_1
_geom_bond_atom_site_label_2
_geom_bond_distance
_geom_bond_site_symmetry_2
_ccdc_geom_bond_type
Nd0 C2 2.836 1_655 S
Nd0 O20 2.500 1_654 S
Nd0 O21 2.492 1_655 S
Nd0 O22 2.487 . S
Nd0 O23 2.682 1_645 S
Nd0 O24 2.410 1_655 S
Nd0 O29 2.414 1_654 S
Nd0 O31 2.424 1_545 S
Nd1 C11 2.836 1_455 S
Nd1 O23 2.414 1_556 S
Nd1 O25 2.424 1_565 S
Nd1 O26 2.500 1_456 S
Nd1 O27 2.492 1_455 S
Nd1 O28 2.487 . S
Nd1 O29 2.682 1_565 S
Nd1 O30 2.410 1_455 S
C2 Nd0 2.836 1_455 S
C2 C3 1.498 . S
C2 O20 1.258 1_554 S
C2 O21 1.239 . S
C3 C2 1.498 . S
C3 C4 1.366 1_554 S
C3 C8 1.407 . S
C4 C3 1.366 1_556 S
C4 C5 1.392 . S
C4 H32 0.930 . S
C5 C4 1.392 . S
C5 C6 1.398 1_556 S
C5 H33 0.929 . S
C6 C5 1.398 1_554 S
C6 C7 1.352 . S
C7 C6 1.352 . S
C7 C8 1.384 . S
C7 H34 0.930 . S
C8 C3 1.407 . S
C8 C7 1.384 . S
C8 H35 0.929 . S
C9 O22 1.241 1_455 S
C9 O23 1.273 1_545 S
C10 O24 1.251 . S
C10 O25 1.268 1_554 S
C11 Nd1 2.836 1_655 S
C11 C12 1.498 . S
C11 O26 1.258 1_556 S
C11 O27 1.239 . S
C12 C11 1.498 . S
C12 C13 1.366 1_556 S
C12 C17 1.407 . S
C13 C12 1.366 1_554 S
C13 C14 1.392 . S
C13 H36 0.930 . S
C14 C13 1.392 . S
C14 C15 1.398 1_554 S
C14 H37 0.929 . S
C15 C14 1.398 1_556 S
C15 C16 1.352 . S
C16 C15 1.352 . S
C16 C17 1.384 . S
C16 H38 0.930 . S
C17 C12 1.407 . S
C17 C16 1.384 . S
C17 H39 0.929 . S
C18 O28 1.241 . S
C18 O29 1.273 1_565 S
C19 O30 1.251 . S
C19 O31 1.268 1_556 S
O20 Nd0 2.500 1_456 S
O20 C2 1.258 1_556 S
O21 Nd0 2.492 1_455 S
O21 C2 1.239 . S
O22 Nd0 2.487 . S
O22 C9 1.241 1_655 S
O23 Nd0 2.682 1_465 S
O23 Nd1 2.414 1_554 S
O23 C9 1.273 1_565 S
O24 Nd0 2.410 1_455 S
O24 C10 1.251 . S
O25 Nd1 2.424 1_545 S
O25 C10 1.268 1_556 S
O26 Nd1 2.500 1_654 S
O26 C11 1.258 1_554 S
O27 Nd1 2.492 1_655 S
O27 C11 1.239 . S
O28 Nd1 2.487 . S
O28 C18 1.241 . S
O29 Nd0 2.414 1_456 S
O29 Nd1 2.682 1_545 S
O29 C18 1.273 1_545 S
O30 Nd1 2.410 1_655 S
O30 C19 1.251 . S
O31 Nd0 2.424 1_565 S
O31 C19 1.268 1_554 S
H32 C4 0.930 . S
H33 C5 0.929 . S
H34 C7 0.930 . S
H35 C8 0.929 . S
H36 C13 0.930 . S
H37 C14 0.929 . S
H38 C16 0.930 . S
H39 C17 0.929 . S
Nd40 C42 2.836 . S
Nd40 O60 2.500 . S
Nd40 O61 2.492 . S
Nd40 O62 2.487 . S
Nd40 O63 2.682 1_665 S
Nd40 O64 2.410 1_565 S
Nd40 O69 2.414 1_665 S
Nd40 O71 2.424 . S
Nd41 C51 2.836 . S
Nd41 O63 2.414 . S
Nd41 O65 2.424 . S
Nd41 O66 2.500 . S
Nd41 O67 2.492 . S
Nd41 O68 2.487 . S
Nd41 O69 2.682 . S
Nd41 O70 2.410 1_545 S
C42 Nd40 2.836 . S
C42 C43 1.498 . S
C42 O60 1.258 . S
C42 O61 1.239 . S
C43 C42 1.498 . S
C43 C44 1.366 . S
C43 C48 1.407 . S
C44 C43 1.366 . S
C44 C45 1.392 . S
C44 H72 0.930 . S
C45 C44 1.392 . S
C45 C46 1.398 . S
C45 H73 0.929 . S
C46 C45 1.398 . S
C46 C47 1.352 . S
C47 C46 1.352 . S
C47 C48 1.384 . S
C47 H74 0.930 . S
C48 C43 1.407 . S
C48 C47 1.384 . S
C48 H75 0.929 . S
C49 O62 1.237 1_455 S
C49 O63 1.274 1_565 S
C50 O64 1.251 1_455 S
C50 O65 1.268 . S
C51 Nd41 2.836 . S
C51 C52 1.498 . S
C51 O66 1.258 . S
C51 O67 1.239 . S
C52 C51 1.498 . S
C52 C53 1.366 . S
C52 C57 1.407 . S
C53 C52 1.366 . S
C53 C54 1.392 . S
C53 H76 0.930 . S
C54 C53 1.392 . S
C54 C55 1.398 . S
C54 H77 0.929 . S
C55 C54 1.398 . S
C55 C56 1.352 . S
C56 C55 1.352 . S
C56 C57 1.384 . S
C56 H78 0.930 . S
C57 C52 1.407 . S
C57 C56 1.384 . S
C57 H79 0.929 . S
C58 O68 1.241 . S
C58 O69 1.273 . S
C59 O70 1.251 . S
C59 O71 1.268 1_455 S
O60 Nd40 2.500 . S
O60 C42 1.258 . S
O61 Nd40 2.492 . S
O61 C42 1.239 . S
O62 Nd40 2.487 . S
O62 C49 1.237 1_655 S
O63 Nd40 2.682 1_445 S
O63 Nd41 2.414 . S
O63 C49 1.274 1_545 S
O64 Nd40 2.410 1_545 S
O64 C50 1.251 1_655 S
O65 Nd41 2.424 . S
O65 C50 1.268 . S
O66 Nd41 2.500 . S
O66 C51 1.258 . S
O67 Nd41 2.492 . S
O67 C51 1.239 . S
O68 Nd41 2.487 . S
O68 C58 1.241 . S
O69 Nd40 2.414 1_445 S
O69 Nd41 2.682 . S
O69 C58 1.273 . S
O70 Nd41 2.410 1_565 S
O70 C59 1.251 . S
O71 Nd40 2.424 . S
O71 C59 1.268 1_655 S
H72 C44 0.930 . S
H73 C45 0.929 . S
H74 C47 0.930 . S
H75 C48 0.929 . S
H76 C53 0.930 . S
H77 C54 0.929 . S
H78 C56 0.930 . S
H79 C57 0.929 . S
Nd80 C82 2.836 1_455 S
Nd80 O100 2.500 1_455 S
Nd80 O101 2.492 1_455 S
Nd80 O102 2.487 . S
Nd80 O103 2.682 . S
Nd80 O104 2.410 1_445 S
Nd80 O109 2.414 . S
Nd80 O111 2.424 . S
Nd81 C91 2.836 . S
Nd81 O103 2.414 1_565 S
Nd81 O105 2.424 1_455 S
Nd81 O106 2.500 . S
Nd81 O107 2.492 . S
Nd81 O108 2.487 . S
Nd81 O109 2.682 1_565 S
Nd81 O110 2.410 1_565 S
C82 Nd80 2.836 1_655 S
C82 C83 1.498 . S
C82 O100 1.258 . S
C82 O101 1.239 . S
C83 C82 1.498 . S
C83 C84 1.366 . S
C83 C88 1.407 . S
C84 C83 1.366 . S
C84 C85 1.392 1_545 S
C84 H112 0.930 1_545 S
C85 C84 1.392 1_565 S
C85 C86 1.398 1_565 S
C85 H113 0.929 . S
C86 C85 1.398 1_545 S
C86 C87 1.352 . S
C87 C86 1.352 . S
C87 C88 1.384 . S
C87 H114 0.930 . S
C88 C83 1.407 . S
C88 C87 1.384 . S
C88 H115 0.929 . S
C89 O102 1.241 . S
C89 O103 1.273 . S
C90 O104 1.251 . S
C90 O105 1.268 . S
C91 Nd81 2.836 . S
C91 C92 1.498 . S
C91 O106 1.258 . S
C91 O107 1.239 . S
C92 C91 1.498 . S
C92 C93 1.366 1_565 S
C92 C97 1.407 . S
C93 C92 1.366 1_545 S
C93 C94 1.392 . S
C93 H116 0.930 . S
C94 C93 1.392 . S
C94 C95 1.398 . S
C94 H117 0.929 . S
C95 C94 1.398 . S
C95 C96 1.352 1_545 S
C96 C95 1.352 1_565 S
C96 C97 1.384 . S
C96 H118 0.930 . S
C97 C92 1.407 . S
C97 C96 1.384 . S
C97 H119 0.929 . S
C98 O108 1.241 1_545 S
C98 O109 1.273 . S
C99 O110 1.251 . S
C99 O111 1.268 . S
O100 Nd80 2.500 1_655 S
O100 C82 1.258 . S
O101 Nd80 2.492 1_655 S
O101 C82 1.239 . S
O102 Nd80 2.487 . S
O102 C89 1.241 . S
O103 Nd80 2.682 . S
O103 Nd81 2.414 1_545 S
O103 C89 1.273 . S
O104 Nd80 2.410 1_665 S
O104 C90 1.251 . S
O105 Nd81 2.424 1_655 S
O105 C90 1.268 . S
O106 Nd81 2.500 . S
O106 C91 1.258 . S
O107 Nd81 2.492 . S
O107 C91 1.239 . S
O108 Nd81 2.487 . S
O108 C98 1.241 1_565 S
O109 Nd80 2.414 . S
O109 Nd81 2.682 1_545 S
O109 C98 1.273 . S
O110 Nd81 2.410 1_545 S
O110 C99 1.251 . S
O111 Nd80 2.424 . S
O111 C99 1.268 . S
H112 C84 0.930 1_565 S
H113 C85 0.929 . S
H114 C87 0.930 . S
H115 C88 0.929 . S
H116 C93 0.930 . S
H117 C94 0.929 . S
H118 C96 0.930 . S
H119 C97 0.929 . S
C6 C15 5.594 1_454 S
C55 C46 2.650 1_545 S
C90 C99 4.655 . S
C86 C95 0.779 . S
C19 C10 5.063 1_556 S
C50 C59 5.531 1_545 S
C58 C9 1.575 . S
C49 C89 1.354 1_565 S
C98 C18 1.307 1_545 S
