# Generated by pormake.
# Topology tsi, (8)-cn, num edge types: 1
# Building blocks:
#     Node 0, Type 0, BuildingBlock: AJUNOK_clean_sbu_0, # of connection points: 8
#     Node 1, Type 0, BuildingBlock: AJUNOK_clean_sbu_0, # of connection points: 8
#     Node 2, Type 0, BuildingBlock: AJUNOK_clean_sbu_0, # of connection points: 8
#     Node 3, Type 0, BuildingBlock: AJUNOK_clean_sbu_0, # of connection points: 8
#     Edge 4, Type (0, 0), None
#     Edge 5, Type (0, 0), None
#     Edge 6, Type (0, 0), None
#     Edge 7, Type (0, 0), None
#     Edge 8, Type (0, 0), None
#     Edge 9, Type (0, 0), None
#     Edge 10, Type (0, 0), None
#     Edge 11, Type (0, 0), None
#     Edge 12, Type (0, 0), None
#     Edge 13, Type (0, 0), None
#     Edge 14, Type (0, 0), None
#     Edge 15, Type (0, 0), None
#     Edge 16, Type (0, 0), None
#     Edge 17, Type (0, 0), None
#     Edge 18, Type (0, 0), None
#     Edge 19, Type (0, 0), None
# Relax obj value: 0.207
# Max RMSD: 0.207
# Mean RMSD: 0.207
data_MOF--net-tsi--node1-AJUNOK_clean_sbu_0--edge1-none
_symmetry_space_group_name_H-M    P1
_symmetry_Int_Tables_number       1
_symmetry_cell_setting            triclinic
loop_
_symmetry_equiv_pos_as_xyz
'x, y, z'
_cell_length_a     8.2135342
_cell_length_b     8.2135487
_cell_length_c     45.788356
_cell_angle_alpha  89.99996
_cell_angle_beta   89.999975
_cell_angle_gamma 89.999988
loop_
_atom_site_label
_atom_site_type_symbol
_atom_site_fract_x
_atom_site_fract_y
_atom_site_fract_z
_atom_type_partial_charge
Cd0 Cd 0.05049 0.13605 0.38504 0.0
Cd1 Cd 0.96944 0.38339 0.38505 0.0
C2 C 0.22818 0.31486 0.32452 0.0
N3 N 0.15097 0.18067 0.33548 0.0
C4 C 0.17643 0.04691 0.28903 0.0
C5 C 0.24979 0.18513 0.27713 0.0
C6 C 0.27686 0.32027 0.29522 0.0
C7 C 0.12838 0.04726 0.31816 0.0
H8 H 0.24622 0.42136 0.33775 0.0
H9 H 0.06647 0.94152 0.32638 0.0
C10 C 0.595 0.27058 0.3882 0.0
C11 C 0.8117 0.36752 0.4524 0.0
C12 C 0.80815 0.39856 0.4824 0.0
C13 C 0.93944 0.4793 0.49567 0.0
C14 C 0.07051 0.52945 0.4783 0.0
C15 C 0.06861 0.49681 0.4484 0.0
N16 N 0.94296 0.41291 0.43615 0.0
H17 H 0.71114 0.30409 0.44247 0.0
H18 H 0.16914 0.53649 0.43494 0.0
C19 C 0.7917 0.20467 0.32452 0.0
N20 N 0.8689 0.33885 0.33548 0.0
C21 C 0.84336 0.47267 0.28904 0.0
C22 C 0.76997 0.33447 0.27714 0.0
C23 C 0.74296 0.1993 0.29522 0.0
C24 C 0.89146 0.47229 0.31817 0.0
H25 H 0.7737 0.09814 0.33775 0.0
H26 H 0.95339 0.57801 0.32639 0.0
C27 C 0.42493 0.2488 0.3882 0.0
C28 C 0.01796 0.83578 0.37845 0.0
N29 N 0.07702 0.10663 0.43614 0.0
C30 C 0.20829 0.15205 0.45239 0.0
C31 C 0.21188 0.12105 0.48239 0.0
C32 C 0.0806 0.04032 0.49566 0.0
C33 C 0.94951 0.99014 0.4783 0.0
C34 C 0.95138 0.02274 0.4484 0.0
C35 C 1.00196 0.68366 0.37846 0.0
O36 O 0.69979 0.15233 0.38754 0.0
O37 O 0.65753 0.41089 0.38856 0.0
O38 O 0.32014 0.36706 0.38754 0.0
O39 O 0.36239 0.1085 0.38854 0.0
O40 O 0.89268 0.92487 0.37738 0.0
O41 O 0.15877 0.89505 0.38087 0.0
O42 O 0.12725 0.59457 0.37738 0.0
O43 O 0.86116 0.6244 0.38088 0.0
H44 H 0.30884 0.21547 0.44245 0.0
H45 H 0.85084 0.98303 0.43494 0.0
H46 H 0.15131 0.94087 0.2757 0.0
H47 H 0.33411 0.42931 0.28675 0.0
H48 H 0.70423 0.35901 0.49513 0.0
H49 H 0.17184 0.59603 0.48762 0.0
H50 H 0.86845 0.57873 0.27571 0.0
H51 H 0.68571 0.09027 0.28675 0.0
H52 H 0.31581 0.16061 0.49511 0.0
H53 H 0.8482 0.92357 0.48763 0.0
Cd54 Cd 0.13379 0.80043 0.63504 0.0
Cd55 Cd 0.88646 0.71937 0.63505 0.0
C56 C 0.95498 0.97812 0.57452 0.0
N57 N 0.08917 0.90092 0.58548 0.0
C58 C 0.22293 0.92638 0.53903 0.0
C59 C 0.08471 0.99974 0.52713 0.0
C60 C 0.94957 0.02681 0.54522 0.0
C61 C 0.22259 0.87832 0.56816 0.0
H62 H 0.84849 0.99616 0.58776 0.0
H63 H 0.32832 0.81641 0.57638 0.0
C64 C 0.99927 0.34494 0.6382 0.0
C65 C 0.90233 0.56164 0.70241 0.0
C66 C 0.87128 0.55808 0.7324 0.0
C67 C 0.79053 0.68938 0.74567 0.0
C68 C 0.74038 0.82045 0.7283 0.0
C69 C 0.77303 0.81854 0.6984 0.0
N70 N 0.85694 0.69289 0.68615 0.0
H71 H 0.96575 0.46108 0.69247 0.0
H72 H 0.73335 0.91908 0.68494 0.0
C73 C 0.06518 0.54164 0.57452 0.0
N74 N 0.931 0.61884 0.58548 0.0
C75 C 0.79718 0.59331 0.53904 0.0
C76 C 0.93538 0.51993 0.52713 0.0
C77 C 0.07055 0.4929 0.54522 0.0
C78 C 0.79756 0.64141 0.56817 0.0
H79 H 0.1717 0.52364 0.58775 0.0
H80 H 0.69183 0.70333 0.57639 0.0
C81 C 0.02105 0.17486 0.6382 0.0
C82 C 0.43407 0.7679 0.62845 0.0
N83 N 0.16321 0.82695 0.68614 0.0
C84 C 0.11779 0.95822 0.70239 0.0
C85 C 0.14879 0.96181 0.73238 0.0
C86 C 0.22951 0.83054 0.74566 0.0
C87 C 0.2797 0.69945 0.7283 0.0
C88 C 0.2471 0.70132 0.6984 0.0
C89 C 0.58618 0.7519 0.62846 0.0
O90 O 0.11752 0.44973 0.63754 0.0
O91 O 0.85896 0.40747 0.63856 0.0
O92 O 0.90279 0.07008 0.63755 0.0
O93 O 0.16135 0.11233 0.63854 0.0
O94 O 0.34498 0.64262 0.62738 0.0
O95 O 0.3748 0.90871 0.63087 0.0
O96 O 0.67528 0.87719 0.62738 0.0
O97 O 0.64545 0.6111 0.63088 0.0
H98 H 0.05437 0.05877 0.69245 0.0
H99 H 0.28681 0.60078 0.68494 0.0
H100 H 0.32897 0.90126 0.52569 0.0
H101 H 0.84053 0.08406 0.53675 0.0
H102 H 0.91082 0.45417 0.74513 0.0
H103 H 0.6738 0.92178 0.73762 0.0
H104 H 0.69112 0.6184 0.52571 0.0
H105 H 0.17958 0.43565 0.53675 0.0
H106 H 0.10922 0.06574 0.74511 0.0
H107 H 0.34627 0.59813 0.73763 0.0
Cd108 Cd 0.55045 0.63639 0.88505 0.0
Cd109 Cd 0.46939 0.88372 0.88504 0.0
C110 C 0.72818 0.81511 0.82452 0.0
N111 N 0.65098 0.68093 0.83548 0.0
C112 C 0.67652 0.54711 0.78904 0.0
C113 C 0.7499 0.68531 0.77713 0.0
C114 C 0.77692 0.82048 0.79522 0.0
C115 C 0.62842 0.5475 0.81817 0.0
H116 H 0.74618 0.92164 0.83775 0.0
H117 H 0.5665 0.44177 0.82639 0.0
C118 C 0.09496 0.77097 0.8882 0.0
C119 C 0.31159 0.86773 0.95239 0.0
C120 C 0.308 0.89873 0.98239 0.0
C121 C 0.43928 0.97946 0.99566 0.0
C122 C 0.57037 0.02964 0.9783 0.0
C123 C 0.5685 0.99704 0.9484 0.0
N124 N 0.44286 0.91315 0.93614 0.0
H125 H 0.21105 0.80431 0.94245 0.0
H126 H 0.66904 0.03675 0.93494 0.0
C127 C 0.2917 0.70492 0.82452 0.0
N128 N 0.36891 0.8391 0.83548 0.0
C129 C 0.34345 0.97286 0.78903 0.0
C130 C 0.27009 0.83464 0.77713 0.0
C131 C 0.24302 0.69951 0.79522 0.0
C132 C 0.3915 0.97252 0.81816 0.0
H133 H 0.27366 0.59842 0.83775 0.0
H134 H 0.45341 0.07826 0.82638 0.0
C135 C 0.92488 0.74919 0.8882 0.0
C136 C 0.51792 0.33611 0.87846 0.0
N137 N 0.57693 0.60687 0.93615 0.0
C138 C 0.70818 0.65226 0.95241 0.0
C139 C 0.71173 0.62122 0.9824 0.0
C140 C 0.58044 0.54048 0.99567 0.0
C141 C 0.44937 0.49033 0.9783 0.0
C142 C 0.45127 0.52296 0.9484 0.0
C143 C 0.50192 0.184 0.87845 0.0
O144 O 0.19975 0.65272 0.88755 0.0
O145 O 0.15749 0.91128 0.88855 0.0
O146 O 0.82009 0.86744 0.88754 0.0
O147 O 0.86235 0.60889 0.88856 0.0
O148 O 0.39263 0.42521 0.87738 0.0
O149 O 0.65872 0.39538 0.88088 0.0
O150 O 0.62721 0.09491 0.87738 0.0
O151 O 0.36111 0.12473 0.88087 0.0
H152 H 0.80874 0.71569 0.94247 0.0
H153 H 0.35074 0.48328 0.93494 0.0
H154 H 0.65143 0.44105 0.77571 0.0
H155 H 0.83417 0.92951 0.78675 0.0
H156 H 0.20407 0.85916 0.99511 0.0
H157 H 0.67168 0.09621 0.98763 0.0
H158 H 0.36857 0.0789 0.7757 0.0
H159 H 0.18577 0.59047 0.78675 0.0
H160 H 0.81565 0.66077 0.99513 0.0
H161 H 0.34804 0.42375 0.98762 0.0
Cd162 Cd 0.63342 0.30041 0.13505 0.0
Cd163 Cd 0.38608 0.21935 0.13504 0.0
C164 C 0.4547 0.47814 0.07452 0.0
N165 N 0.58888 0.40093 0.08548 0.0
C166 C 0.7227 0.42647 0.03904 0.0
C167 C 0.5845 0.49985 0.02713 0.0
C168 C 0.44933 0.52687 0.04522 0.0
C169 C 0.72232 0.37837 0.06817 0.0
H170 H 0.34817 0.49614 0.08775 0.0
H171 H 0.82804 0.31645 0.07639 0.0
C172 C 0.49883 0.84491 0.1382 0.0
C173 C 0.40209 0.06155 0.20239 0.0
C174 C 0.37109 0.05796 0.23238 0.0
C175 C 0.29036 0.18924 0.24566 0.0
C176 C 0.24018 0.32033 0.2283 0.0
C177 C 0.27277 0.31846 0.1984 0.0
N178 N 0.35667 0.19282 0.18614 0.0
H179 H 0.46551 0.96101 0.19245 0.0
H180 H 0.23306 0.419 0.18494 0.0
C181 C 0.5649 0.04166 0.07452 0.0
N182 N 0.43071 0.11886 0.08548 0.0
C183 C 0.29695 0.0934 0.03903 0.0
C184 C 0.43517 0.02004 0.02713 0.0
C185 C 0.57031 0.99297 0.04522 0.0
C186 C 0.29729 0.14145 0.06816 0.0
H187 H 0.67139 0.02362 0.08776 0.0
H188 H 0.19155 0.20336 0.07638 0.0
C189 C 0.52061 0.67484 0.1382 0.0
C190 C 0.93369 0.26788 0.12846 0.0
N191 N 0.66294 0.32689 0.18615 0.0
C192 C 0.61755 0.45814 0.20241 0.0
C193 C 0.6486 0.4617 0.2324 0.0
C194 C 0.72935 0.33041 0.24567 0.0
C195 C 0.7795 0.19934 0.2283 0.0
C196 C 0.74685 0.20124 0.1984 0.0
C197 C 0.08581 0.25188 0.12845 0.0
O198 O 0.61708 0.9497 0.13755 0.0
O199 O 0.35853 0.90745 0.13854 0.0
O200 O 0.40236 0.57005 0.13754 0.0
O201 O 0.66092 0.61231 0.13856 0.0
O202 O 0.8446 0.14259 0.12738 0.0
O203 O 0.87443 0.40868 0.13088 0.0
O204 O 0.1749 0.37716 0.12738 0.0
O205 O 0.14508 0.11107 0.13087 0.0
H206 H 0.55412 0.5587 0.19247 0.0
H207 H 0.78653 0.1007 0.18494 0.0
H208 H 0.82876 0.40138 0.02571 0.0
H209 H 0.3403 0.58412 0.03675 0.0
H210 H 0.41067 0.95404 0.24511 0.0
H211 H 0.17361 0.42164 0.23763 0.0
H212 H 0.19091 0.11852 0.02569 0.0
H213 H 0.67935 0.93572 0.03675 0.0
H214 H 0.60905 0.56562 0.24513 0.0
H215 H 0.84608 0.09801 0.23762 0.0
loop_
_geom_bond_atom_site_label_1
_geom_bond_atom_site_label_2
_geom_bond_distance
_geom_bond_site_symmetry_2
_ccdc_geom_bond_type
Cd0 N3 2.334 . S
Cd0 N29 2.304 . S
Cd0 O36 2.268 1_455 S
Cd0 O39 2.273 . S
Cd0 O40 2.417 1_445 S
Cd0 O41 2.330 1_545 S
Cd1 N16 2.304 . S
Cd1 N20 2.334 . S
Cd1 O37 2.273 . S
Cd1 O38 2.268 1_655 S
Cd1 O42 2.417 1_655 S
Cd1 O43 2.330 . S
C2 N3 1.332 . S
C2 C6 1.381 . S
C2 H8 0.931 1_545 S
N3 Cd0 2.334 . S
N3 C2 1.332 . S
N3 C7 1.328 1_455 S
C4 C5 1.396 1_655 S
C4 C7 1.378 . S
C4 H46 0.931 . S
C5 C4 1.396 1_455 S
C5 C6 1.382 . S
C6 C2 1.381 . S
C6 C5 1.382 . S
C6 H47 0.930 1_545 S
C7 N3 1.328 1_655 S
C7 C4 1.378 . S
C7 H9 0.930 . S
H8 C2 0.931 1_565 S
H9 C7 0.930 . S
C10 O36 1.238 . S
C10 O37 1.253 . S
C11 C12 1.379 . S
C11 N16 1.337 . S
C11 H17 0.929 . S
C12 C11 1.379 . S
C12 C13 1.380 . S
C12 H48 0.929 . S
C13 C12 1.380 . S
C13 C14 1.399 1_655 S
C14 C13 1.399 1_455 S
C14 C15 1.376 . S
C14 H49 0.931 . S
C15 C14 1.376 . S
C15 N16 1.338 1_455 S
C15 H18 0.930 . S
N16 Cd1 2.304 . S
N16 C11 1.337 . S
N16 C15 1.338 1_655 S
H17 C11 0.929 . S
H18 C15 0.930 . S
C19 N20 1.332 . S
C19 C23 1.381 . S
C19 H25 0.931 . S
N20 Cd1 2.334 . S
N20 C19 1.332 . S
N20 C24 1.328 1_655 S
C21 C22 1.396 1_455 S
C21 C24 1.378 . S
C21 H50 0.931 . S
C22 C21 1.396 1_655 S
C22 C23 1.382 . S
C23 C19 1.381 . S
C23 C22 1.382 . S
C23 H51 0.930 . S
C24 N20 1.328 1_455 S
C24 C21 1.378 . S
C24 H26 0.930 . S
H25 C19 0.931 . S
H26 C24 0.930 . S
C27 O38 1.238 . S
C27 O39 1.253 . S
C28 O40 1.239 1_455 S
C28 O41 1.230 . S
N29 Cd0 2.304 . S
N29 C30 1.337 . S
N29 C34 1.338 1_455 S
C30 N29 1.337 . S
C30 C31 1.379 . S
C30 H44 0.929 1_545 S
C31 C30 1.379 . S
C31 C32 1.380 . S
C31 H52 0.929 1_545 S
C32 C31 1.380 . S
C32 C33 1.399 1_455 S
C33 C32 1.399 1_655 S
C33 C34 1.376 . S
C33 H53 0.931 . S
C34 N29 1.338 1_655 S
C34 C33 1.376 . S
C34 H45 0.930 . S
C35 O42 1.239 1_655 S
C35 O43 1.230 . S
O36 Cd0 2.268 1_655 S
O36 C10 1.238 . S
O37 Cd1 2.273 . S
O37 C10 1.253 . S
O38 Cd1 2.268 1_455 S
O38 C27 1.238 . S
O39 Cd0 2.273 . S
O39 C27 1.253 . S
O40 Cd0 2.417 1_665 S
O40 C28 1.239 1_655 S
O41 Cd0 2.330 1_565 S
O41 C28 1.230 . S
O42 Cd1 2.417 1_455 S
O42 C35 1.239 1_455 S
O43 Cd1 2.330 . S
O43 C35 1.230 . S
H44 C30 0.929 1_565 S
H45 C34 0.930 . S
H46 C4 0.931 . S
H47 C6 0.930 1_565 S
H48 C12 0.929 . S
H49 C14 0.931 . S
H50 C21 0.931 . S
H51 C23 0.930 . S
H52 C31 0.929 1_565 S
H53 C33 0.931 . S
Cd54 N57 2.334 . S
Cd54 N83 2.304 . S
Cd54 O90 2.268 . S
Cd54 O93 2.273 1_565 S
Cd54 O94 2.417 . S
Cd54 O95 2.330 . S
Cd55 N70 2.304 . S
Cd55 N74 2.334 . S
Cd55 O91 2.273 . S
Cd55 O92 2.268 . S
Cd55 O96 2.417 . S
Cd55 O97 2.330 . S
C56 N57 1.332 . S
C56 C60 1.381 . S
C56 H62 0.931 1_565 S
N57 Cd54 2.334 . S
N57 C56 1.332 . S
N57 C61 1.328 . S
C58 C59 1.396 . S
C58 C61 1.378 . S
C58 H100 0.931 . S
C59 C58 1.396 . S
C59 C60 1.382 . S
C60 C56 1.381 . S
C60 C59 1.382 . S
C60 H101 0.930 1_565 S
C61 N57 1.328 . S
C61 C58 1.378 . S
C61 H63 0.930 . S
H62 C56 0.931 1_545 S
H63 C61 0.930 . S
C64 O90 1.238 1_655 S
C64 O91 1.253 . S
C65 C66 1.379 . S
C65 N70 1.337 . S
C65 H71 0.929 . S
C66 C65 1.379 . S
C66 C67 1.380 . S
C66 H102 0.929 . S
C67 C66 1.380 . S
C67 C68 1.399 . S
C68 C67 1.399 . S
C68 C69 1.376 . S
C68 H103 0.931 . S
C69 C68 1.376 . S
C69 N70 1.338 . S
C69 H72 0.930 . S
N70 Cd55 2.304 . S
N70 C65 1.337 . S
N70 C69 1.338 . S
H71 C65 0.929 . S
H72 C69 0.930 . S
C73 N74 1.332 . S
C73 C77 1.381 . S
C73 H79 0.931 . S
N74 Cd55 2.334 . S
N74 C73 1.332 . S
N74 C78 1.328 . S
C75 C76 1.396 . S
C75 C78 1.378 . S
C75 H104 0.931 . S
C76 C75 1.396 . S
C76 C77 1.382 . S
C77 C73 1.381 . S
C77 C76 1.382 . S
C77 H105 0.930 . S
C78 N74 1.328 . S
C78 C75 1.378 . S
C78 H80 0.930 . S
H79 C73 0.931 . S
H80 C78 0.930 . S
C81 O92 1.238 1_445 S
C81 O93 1.253 . S
C82 O94 1.239 . S
C82 O95 1.230 . S
N83 Cd54 2.304 . S
N83 C84 1.337 . S
N83 C88 1.338 . S
C84 N83 1.337 . S
C84 C85 1.379 . S
C84 H98 0.929 1_565 S
C85 C84 1.379 . S
C85 C86 1.380 . S
C85 H106 0.929 1_565 S
C86 C85 1.380 . S
C86 C87 1.399 . S
C87 C86 1.399 . S
C87 C88 1.376 . S
C87 H107 0.931 . S
C88 N83 1.338 . S
C88 C87 1.376 . S
C88 H99 0.930 . S
C89 O96 1.239 . S
C89 O97 1.230 . S
O90 Cd54 2.268 . S
O90 C64 1.238 1_455 S
O91 Cd55 2.273 . S
O91 C64 1.253 . S
O92 Cd55 2.268 . S
O92 C81 1.238 1_665 S
O93 Cd54 2.273 1_545 S
O93 C81 1.253 . S
O94 Cd54 2.417 . S
O94 C82 1.239 . S
O95 Cd54 2.330 . S
O95 C82 1.230 . S
O96 Cd55 2.417 . S
O96 C89 1.239 . S
O97 Cd55 2.330 . S
O97 C89 1.230 . S
H98 C84 0.929 1_545 S
H99 C88 0.930 . S
H100 C58 0.931 . S
H101 C60 0.930 1_545 S
H102 C66 0.929 . S
H103 C68 0.931 . S
H104 C75 0.931 . S
H105 C77 0.930 . S
H106 C85 0.929 1_545 S
H107 C87 0.931 . S
Cd108 N111 2.334 . S
Cd108 N137 2.304 . S
Cd108 O144 2.268 . S
Cd108 O147 2.273 . S
Cd108 O148 2.417 . S
Cd108 O149 2.330 . S
Cd109 N124 2.304 . S
Cd109 N128 2.334 . S
Cd109 O145 2.273 . S
Cd109 O146 2.268 . S
Cd109 O150 2.417 1_565 S
Cd109 O151 2.330 1_565 S
C110 N111 1.332 . S
C110 C114 1.381 . S
C110 H116 0.931 . S
N111 Cd108 2.334 . S
N111 C110 1.332 . S
N111 C115 1.328 . S
C112 C113 1.396 . S
C112 C115 1.378 . S
C112 H154 0.931 . S
C113 C112 1.396 . S
C113 C114 1.382 . S
C114 C110 1.381 . S
C114 C113 1.382 . S
C114 H155 0.930 . S
C115 N111 1.328 . S
C115 C112 1.378 . S
C115 H117 0.930 . S
H116 C110 0.931 . S
H117 C115 0.930 . S
C118 O144 1.238 . S
C118 O145 1.253 . S
C119 C120 1.379 . S
C119 N124 1.337 . S
C119 H125 0.929 1_565 S
C120 C119 1.379 . S
C120 C121 1.380 . S
C120 H156 0.929 1_565 S
C121 C120 1.380 . S
C121 C122 1.399 . S
C122 C121 1.399 . S
C122 C123 1.376 . S
C122 H157 0.931 . S
C123 C122 1.376 . S
C123 N124 1.338 . S
C123 H126 0.930 . S
N124 Cd109 2.304 . S
N124 C119 1.337 . S
N124 C123 1.338 . S
H125 C119 0.929 1_545 S
H126 C123 0.930 . S
C127 N128 1.332 . S
C127 C131 1.381 . S
C127 H133 0.931 1_565 S
N128 Cd109 2.334 . S
N128 C127 1.332 . S
N128 C132 1.328 . S
C129 C130 1.396 . S
C129 C132 1.378 . S
C129 H158 0.931 . S
C130 C129 1.396 . S
C130 C131 1.382 . S
C131 C127 1.381 . S
C131 C130 1.382 . S
C131 H159 0.930 1_565 S
C132 N128 1.328 . S
C132 C129 1.378 . S
C132 H134 0.930 . S
H133 C127 0.931 1_545 S
H134 C132 0.930 . S
C135 O146 1.238 . S
C135 O147 1.253 . S
C136 O148 1.239 . S
C136 O149 1.230 . S
N137 Cd108 2.304 . S
N137 C138 1.337 . S
N137 C142 1.338 . S
C138 N137 1.337 . S
C138 C139 1.379 . S
C138 H152 0.929 . S
C139 C138 1.379 . S
C139 C140 1.380 . S
C139 H160 0.929 . S
C140 C139 1.380 . S
C140 C141 1.399 . S
C141 C140 1.399 . S
C141 C142 1.376 . S
C141 H161 0.931 . S
C142 N137 1.338 . S
C142 C141 1.376 . S
C142 H153 0.930 . S
C143 O150 1.239 . S
C143 O151 1.230 . S
O144 Cd108 2.268 . S
O144 C118 1.238 . S
O145 Cd109 2.273 . S
O145 C118 1.253 . S
O146 Cd109 2.268 . S
O146 C135 1.238 . S
O147 Cd108 2.273 . S
O147 C135 1.253 . S
O148 Cd108 2.417 . S
O148 C136 1.239 . S
O149 Cd108 2.330 . S
O149 C136 1.230 . S
O150 Cd109 2.417 1_545 S
O150 C143 1.239 . S
O151 Cd109 2.330 1_545 S
O151 C143 1.230 . S
H152 C138 0.929 . S
H153 C142 0.930 . S
H154 C112 0.931 . S
H155 C114 0.930 . S
H156 C120 0.929 1_545 S
H157 C122 0.931 . S
H158 C129 0.931 . S
H159 C131 0.930 1_545 S
H160 C139 0.929 . S
H161 C141 0.931 . S
Cd162 N165 2.334 . S
Cd162 N191 2.304 . S
Cd162 O198 2.268 . S
Cd162 O201 2.273 . S
Cd162 O202 2.417 . S
Cd162 O203 2.330 . S
Cd163 N178 2.304 . S
Cd163 N182 2.334 . S
Cd163 O199 2.273 1_545 S
Cd163 O200 2.268 . S
Cd163 O204 2.417 . S
Cd163 O205 2.330 . S
C164 N165 1.332 . S
C164 C168 1.381 . S
C164 H170 0.931 . S
N165 Cd162 2.334 . S
N165 C164 1.332 . S
N165 C169 1.328 . S
C166 C167 1.396 . S
C166 C169 1.378 . S
C166 H208 0.931 . S
C167 C166 1.396 . S
C167 C168 1.382 . S
C168 C164 1.381 . S
C168 C167 1.382 . S
C168 H209 0.930 . S
C169 N165 1.328 . S
C169 C166 1.378 . S
C169 H171 0.930 . S
H170 C164 0.931 . S
H171 C169 0.930 . S
C172 O198 1.238 1_565 S
C172 O199 1.253 . S
C173 C174 1.379 . S
C173 N178 1.337 . S
C173 H179 0.929 1_545 S
C174 C173 1.379 . S
C174 C175 1.380 . S
C174 H210 0.929 1_545 S
C175 C174 1.380 . S
C175 C176 1.399 . S
C176 C175 1.399 . S
C176 C177 1.376 . S
C176 H211 0.931 . S
C177 C176 1.376 . S
C177 N178 1.338 . S
C177 H180 0.930 . S
N178 Cd163 2.304 . S
N178 C173 1.337 . S
N178 C177 1.338 . S
H179 C173 0.929 1_565 S
H180 C177 0.930 . S
C181 N182 1.332 . S
C181 C185 1.381 . S
C181 H187 0.931 1_545 S
N182 Cd163 2.334 . S
N182 C181 1.332 . S
N182 C186 1.328 . S
C183 C184 1.396 . S
C183 C186 1.378 . S
C183 H212 0.931 . S
C184 C183 1.396 . S
C184 C185 1.382 . S
C185 C181 1.381 . S
C185 C184 1.382 . S
C185 H213 0.930 1_545 S
C186 N182 1.328 . S
C186 C183 1.378 . S
C186 H188 0.930 . S
H187 C181 0.931 1_565 S
H188 C186 0.930 . S
C189 O200 1.238 . S
C189 O201 1.253 . S
C190 O202 1.239 1_455 S
C190 O203 1.230 1_455 S
N191 Cd162 2.304 . S
N191 C192 1.337 . S
N191 C196 1.338 . S
C192 N191 1.337 . S
C192 C193 1.379 . S
C192 H206 0.929 . S
C193 C192 1.379 . S
C193 C194 1.380 . S
C193 H214 0.929 . S
C194 C193 1.380 . S
C194 C195 1.399 . S
C195 C194 1.399 . S
C195 C196 1.376 . S
C195 H215 0.931 . S
C196 N191 1.338 . S
C196 C195 1.376 . S
C196 H207 0.930 . S
C197 O204 1.239 1_655 S
C197 O205 1.230 1_655 S
O198 Cd162 2.268 . S
O198 C172 1.238 1_545 S
O199 Cd163 2.273 1_565 S
O199 C172 1.253 . S
O200 Cd163 2.268 . S
O200 C189 1.238 . S
O201 Cd162 2.273 . S
O201 C189 1.253 . S
O202 Cd162 2.417 . S
O202 C190 1.239 1_655 S
O203 Cd162 2.330 . S
O203 C190 1.230 1_655 S
O204 Cd163 2.417 . S
O204 C197 1.239 1_455 S
O205 Cd163 2.330 . S
O205 C197 1.230 1_455 S
H206 C192 0.929 . S
H207 C196 0.930 . S
H208 C166 0.931 . S
H209 C168 0.930 . S
H210 C174 0.929 1_565 S
H211 C176 0.931 . S
H212 C183 0.931 . S
H213 C185 0.930 1_565 S
H214 C193 0.929 . S
H215 C195 0.931 . S
C13 C76 2.913 . S
C113 C67 2.913 . S
C140 C167 2.913 1_556 S
C22 C194 2.913 . S
C175 C5 2.912 . S
C86 C130 2.912 . S
C121 C184 2.913 1_566 S
C32 C59 2.913 1_545 S
C28 C35 1.015 1_455 S
C82 C89 1.015 . S
C136 C143 1.015 . S
C197 C190 1.015 1_655 S
C81 C64 3.243 1_455 S
C135 C118 3.243 1_655 S
C189 C172 3.243 . S
C10 C27 3.243 . S
