# Generated by pormake.
# Topology cds, (4)-cn, num edge types: 1
# Building blocks:
#     Node 0, Type 0, BuildingBlock: NAWXER_clean_sbu_0, # of connection points: 4
#     Node 1, Type 0, BuildingBlock: NAWXER_clean_sbu_0, # of connection points: 4
#     Edge 2, Type (0, 0), BuildingBlock: TEMPAE_clean_linker_10, # of connection points: 2
#     Edge 3, Type (0, 0), BuildingBlock: TEMPAE_clean_linker_10, # of connection points: 2
#     Edge 4, Type (0, 0), BuildingBlock: TEMPAE_clean_linker_10, # of connection points: 2
#     Edge 5, Type (0, 0), BuildingBlock: TEMPAE_clean_linker_10, # of connection points: 2
# Relax obj value: 0.000
# Max RMSD: 0.000
# Mean RMSD: 0.000
data_MOF--net-cds--node1-NAWXER_clean_sbu_0--edge1-TEMPAE_clean_linker_10
_symmetry_space_group_name_H-M    P1
_symmetry_Int_Tables_number       1
_symmetry_cell_setting            triclinic
loop_
_symmetry_equiv_pos_as_xyz
'x, y, z'
_cell_length_a     14.887329
_cell_length_b     14.890793
_cell_length_c     29.732351
_cell_angle_alpha  97.125669
_cell_angle_beta   97.019999
_cell_angle_gamma 89.317754
loop_
_atom_site_label
_atom_site_type_symbol
_atom_site_fract_x
_atom_site_fract_y
_atom_site_fract_z
_atom_type_partial_charge
C0 C 0.09869 0.86709 0.99741 0.0
C1 C 0.77007 0.86799 0.9881 0.0
O2 O 0.04528 0.79958 0.98961 0.0
Zn3 Zn 0.93454 0.86725 0.99279 0.0
O4 O 0.06676 0.9475 1.00356 0.0
Zn5 Zn 0.93521 1.01005 1.00351 0.0
O6 O 0.94159 0.07428 0.06417 0.0
O7 O 0.94447 0.92603 0.06336 0.0
O8 O 0.80306 0.94837 0.99405 0.0
O9 O 0.82262 0.80024 0.98578 0.0
O10 O 0.92778 0.93301 0.9317 0.0
O11 O 0.93051 0.08023 0.95303 0.0
C12 C 0.94591 1.00557 0.08575 0.0
C13 C 0.92748 0.01423 0.92139 0.0
C14 C 0.14587 0.24248 0.52792 0.0
C15 C 0.14592 0.91382 0.51868 0.0
O16 O 0.2135 0.18979 0.53003 0.0
Zn17 Zn 0.14622 0.07802 0.52324 0.0
O18 O 0.06542 0.20972 0.52221 0.0
Zn19 Zn 1.00341 0.07773 0.51285 0.0
O20 O 0.93346 0.08292 0.56349 0.0
O21 O 0.08074 0.08537 0.58454 0.0
O22 O 0.0656 0.94602 0.51273 0.0
O23 O 0.21358 0.96706 0.52627 0.0
O24 O 0.08712 0.06787 0.45278 0.0
O25 O 0.93893 0.07128 0.45228 0.0
C26 C 0.99956 0.08597 0.59501 0.0
C27 C 1.00752 0.0666 0.43055 0.0
C28 C 0.95589 0.10284 0.16147 0.0
C29 C 0.95248 0.01645 0.13633 0.0
C30 C 0.96285 0.11351 0.2094 0.0
C31 C 0.96642 0.03598 0.23274 0.0
C32 C 0.96234 0.94868 0.20757 0.0
C33 C 0.95547 0.93998 0.15973 0.0
C34 C 0.96712 0.20772 0.23509 0.0
C35 C 0.96594 0.86435 0.2312 0.0
C36 C 0.0728 0.05569 0.35638 0.0
C37 C 0.99644 0.05986 0.37996 0.0
C38 C 0.06392 0.04878 0.30854 0.0
C39 C 0.97654 0.04589 0.28356 0.0
C40 C 0.89913 0.0506 0.30708 0.0
C41 C 0.90998 0.05753 0.35501 0.0
C42 C 0.14814 0.04391 0.28471 0.0
C43 C 0.80484 0.04765 0.28159 0.0
H44 H 0.95352 0.16232 0.14373 0.0
H45 H 0.95269 0.87292 0.14068 0.0
H46 H 0.91159 0.21717 0.25694 0.0
H47 H 0.03182 0.21718 0.25801 0.0
H48 H 0.96178 0.26101 0.21186 0.0
H49 H 0.96024 0.80147 0.20664 0.0
H50 H 0.03057 0.8625 0.25401 0.0
H51 H 0.91031 0.86511 0.2529 0.0
H52 H 0.13992 0.05758 0.37529 0.0
H53 H 0.85058 0.06082 0.37289 0.0
H54 H 0.14821 0.09959 0.26314 0.0
H55 H 0.14896 0.97929 0.26174 0.0
H56 H 0.21113 0.04859 0.30914 0.0
H57 H 0.7961 0.10338 0.25991 0.0
H58 H 0.75167 0.05363 0.30495 0.0
H59 H 0.79446 0.98313 0.25853 0.0
C60 C 0.93052 0.95641 0.83893 0.0
C61 C 0.92798 0.03006 0.87312 0.0
C62 C 0.93721 0.96963 0.79355 0.0
C63 C 0.94116 0.05872 0.78192 0.0
C64 C 0.93605 0.13346 0.81594 0.0
C65 C 0.92967 0.11826 0.86118 0.0
C66 C 0.94261 0.88809 0.75829 0.0
C67 C 0.93963 0.22944 0.80478 0.0
C68 C 0.05759 0.08365 0.67745 0.0
C69 C 0.98387 0.08584 0.64334 0.0
C70 C 0.04446 0.07719 0.72287 0.0
C71 C 0.95541 0.07307 0.73462 0.0
C72 C 0.8806 0.0779 0.70068 0.0
C73 C 0.8957 0.08409 0.65541 0.0
C74 C 0.12607 0.07211 0.75804 0.0
C75 C 0.78466 0.07413 0.71196 0.0
H76 H 0.92911 0.88799 0.84772 0.0
H77 H 0.92749 0.17561 0.8873 0.0
H78 H 0.88939 0.89172 0.72901 0.0
H79 H 1.00896 0.88743 0.74484 0.0
H80 H 0.93461 0.82341 0.77244 0.0
H81 H 0.92913 0.28 0.83442 0.0
H82 H 1.00636 0.24247 0.7938 0.0
H83 H 0.8873 0.23961 0.77595 0.0
H84 H 0.12598 0.08515 0.66857 0.0
H85 H 0.83831 0.086 0.62934 0.0
H86 H 0.12704 1.00573 0.77143 0.0
H87 H 0.12225 0.12526 0.78738 0.0
H88 H 0.19068 0.08042 0.74384 0.0
H89 H 0.77178 1.00734 0.72287 0.0
H90 H 0.73403 0.08459 0.6824 0.0
H91 H 0.77445 0.12638 0.74087 0.0
C92 C 0.6123 0.91397 0.96355 0.0
C93 C 0.67152 0.85548 0.98589 0.0
C94 C 0.51845 0.90748 0.96381 0.0
C95 C 0.48343 0.84325 0.98854 0.0
C96 C 0.5431 0.78327 0.01076 0.0
C97 C 0.63656 0.78909 0.00848 0.0
C98 C 0.45697 0.97073 0.93843 0.0
C99 C 0.50873 0.71592 0.03867 0.0
C100 C 0.25701 0.91026 0.02867 0.0
C101 C 0.19709 0.8545 0.99772 0.0
C102 C 0.35078 0.904 0.02742 0.0
C103 C 0.38503 0.84294 0.99322 0.0
C104 C 0.32466 0.78569 0.96216 0.0
C105 C 0.23127 0.79109 0.96531 0.0
C106 C 0.413 0.96418 0.0621 0.0
C107 C 0.35824 0.72186 0.92434 0.0
H108 H 0.63953 0.96496 0.94585 0.0
H109 H 0.68268 0.74453 0.02617 0.0
H110 H 0.40186 0.93195 0.91606 0.0
H111 H 0.42485 0.01894 0.96312 0.0
H112 H 0.49402 0.01014 0.91714 0.0
H113 H 0.56338 0.67147 0.05217 0.0
H114 H 0.47827 0.75264 0.06789 0.0
H115 H 0.45485 0.67291 0.01785 0.0
H116 H 0.23038 0.95894 0.0539 0.0
H117 H 0.18463 0.74869 0.94106 0.0
H118 H 0.44571 0.01462 0.04484 0.0
H119 H 0.46764 0.92343 0.07847 0.0
H120 H 0.37642 1.00102 0.08914 0.0
H121 H 0.38917 0.7614 0.90088 0.0
H122 H 0.30308 0.67913 0.90426 0.0
H123 H 0.41161 0.67706 0.93853 0.0
C124 C 0.22373 0.78106 0.54965 0.0
C125 C 0.15827 0.81535 0.51831 0.0
C126 C 0.22938 0.68768 0.55275 0.0
C127 C 0.17016 0.6274 0.52273 0.0
C128 C 0.10684 0.66173 0.48959 0.0
C129 C 0.10054 0.75548 0.48838 0.0
C130 C 0.29578 0.65403 0.58944 0.0
C131 C 0.0444 0.5996 0.45602 0.0
C132 C 0.22291 0.37568 0.50617 0.0
C133 C 0.15856 0.34096 0.53011 0.0
C134 C 0.22845 0.46912 0.50386 0.0
C135 C 0.1704 0.52901 0.52742 0.0
C136 C 0.10841 0.49422 0.5535 0.0
C137 C 0.10199 0.40038 0.55376 0.0
C138 C 0.29326 0.50322 0.47448 0.0
C139 C 0.04738 0.55592 0.58032 0.0
H140 H 0.26772 0.82761 0.57312 0.0
H141 H 0.05028 0.78212 0.46395 0.0
H142 H 0.2583 0.62321 0.61377 0.0
H143 H 0.33941 0.60056 0.57428 0.0
H144 H 0.33966 0.70912 0.60878 0.0
H145 H 1.00554 0.6362 0.42964 0.0
H146 H 0.08375 0.54481 0.43871 0.0
H147 H 0.99569 0.56707 0.4744 0.0
H148 H 0.26592 0.32937 0.48747 0.0
H149 H 0.05258 0.37329 0.57247 0.0
H150 H 0.33748 0.55705 0.49453 0.0
H151 H 0.25446 0.53368 0.44588 0.0
H152 H 0.33656 0.44843 0.46003 0.0
H153 H 0.08758 0.61096 0.60199 0.0
H154 H 1.00995 0.51903 0.6025 0.0
H155 H 0.99743 0.58812 0.55653 0.0
loop_
_geom_bond_atom_site_label_1
_geom_bond_atom_site_label_2
_geom_bond_distance
_geom_bond_site_symmetry_2
_ccdc_geom_bond_type
C0 O2 1.251 1_554 S
C0 O4 1.257 1_565 S
C1 O8 1.251 1_556 S
C1 O9 1.254 1_545 S
O2 C0 1.251 1_556 S
O2 Zn3 2.025 . S
Zn3 O2 2.025 . S
Zn3 O7 2.035 1_556 S
Zn3 O9 2.036 1_455 S
Zn3 O10 2.028 1_455 S
O4 C0 1.257 1_545 S
O4 Zn5 2.036 . S
Zn5 O4 2.036 . S
Zn5 O6 2.028 . S
Zn5 O8 2.027 1_455 S
Zn5 O11 2.035 1_454 S
O6 Zn5 2.028 . S
O6 C12 1.251 . S
O7 Zn3 2.035 1_554 S
O7 C12 1.254 1_565 S
O8 C1 1.251 1_554 S
O8 Zn5 2.027 1_655 S
O9 C1 1.254 1_565 S
O9 Zn3 2.036 1_655 S
O10 Zn3 2.028 1_655 S
O10 C13 1.248 . S
O11 Zn5 2.035 1_656 S
O11 C13 1.257 1_545 S
C12 O6 1.251 . S
C12 O7 1.254 1_545 S
C13 O10 1.248 . S
C13 O11 1.257 1_565 S
C14 O16 1.251 . S
C14 O18 1.254 1_455 S
C15 O22 1.248 . S
C15 O23 1.257 1_655 S
O16 C14 1.251 . S
O16 Zn17 2.028 . S
Zn17 O16 2.028 . S
Zn17 O21 2.035 . S
Zn17 O23 2.035 1_545 S
Zn17 O24 2.028 1_545 S
O18 C14 1.254 1_655 S
O18 Zn19 2.023 1_545 S
Zn19 O18 2.023 1_565 S
Zn19 O20 2.029 1_565 S
Zn19 O22 2.040 . S
Zn19 O25 2.034 . S
O20 Zn19 2.029 1_545 S
O20 C26 1.248 . S
O21 Zn17 2.035 . S
O21 C26 1.256 1_455 S
O22 C15 1.248 . S
O22 Zn19 2.040 . S
O23 C15 1.257 1_455 S
O23 Zn17 2.035 1_565 S
O24 Zn17 2.028 1_565 S
O24 C27 1.251 . S
O25 Zn19 2.034 . S
O25 C27 1.254 1_655 S
C26 O20 1.248 . S
C26 O21 1.256 1_655 S
C27 O24 1.251 . S
C27 O25 1.254 1_455 S
C28 C29 1.391 1_455 S
C28 C30 1.394 . S
C28 H44 0.931 . S
C29 C28 1.391 1_655 S
C29 C33 1.376 1_545 S
C30 C28 1.394 . S
C30 C31 1.369 1_455 S
C30 C34 1.531 . S
C31 C30 1.369 1_655 S
C31 C32 1.410 1_545 S
C31 C39 1.503 . S
C32 C31 1.410 1_565 S
C32 C33 1.392 . S
C32 C35 1.511 . S
C33 C29 1.376 1_565 S
C33 C32 1.392 . S
C33 H45 0.929 . S
C34 C30 1.531 . S
C34 H46 0.960 . S
C34 H47 0.962 . S
C34 H48 0.960 . S
C35 C32 1.511 . S
C35 H49 0.961 . S
C35 H50 0.961 . S
C35 H51 0.961 . S
C36 C37 1.370 1_465 S
C36 C38 1.363 . S
C36 H52 0.931 . S
C37 C36 1.370 1_645 S
C37 C41 1.408 . S
C38 C36 1.363 . S
C38 C39 1.370 1_465 S
C38 C42 1.524 . S
C39 C31 1.503 . S
C39 C38 1.370 1_645 S
C39 C40 1.403 . S
C40 C39 1.403 . S
C40 C41 1.404 . S
C40 C43 1.539 . S
C41 C37 1.408 . S
C41 C40 1.404 . S
C41 H53 0.930 . S
C42 C38 1.524 . S
C42 H54 0.956 . S
C42 H55 0.961 . S
C42 H56 0.961 . S
C43 C40 1.539 . S
C43 H57 0.958 . S
C43 H58 0.961 . S
C43 H59 0.960 . S
H44 C28 0.931 . S
H45 C33 0.929 . S
H46 C34 0.960 . S
H47 C34 0.962 . S
H48 C34 0.960 . S
H49 C35 0.961 . S
H50 C35 0.961 . S
H51 C35 0.961 . S
H52 C36 0.931 . S
H53 C41 0.930 . S
H54 C42 0.956 . S
H55 C42 0.961 . S
H56 C42 0.961 . S
H57 C43 0.958 . S
H58 C43 0.961 . S
H59 C43 0.960 . S
C60 C61 1.391 1_455 S
C60 C62 1.394 . S
C60 H76 0.931 . S
C61 C60 1.391 1_655 S
C61 C65 1.376 1_565 S
C62 C60 1.394 . S
C62 C63 1.369 1_455 S
C62 C66 1.531 . S
C63 C62 1.369 1_655 S
C63 C64 1.410 1_565 S
C63 C71 1.503 . S
C64 C63 1.410 1_545 S
C64 C65 1.392 . S
C64 C67 1.511 . S
C65 C61 1.376 1_545 S
C65 C64 1.392 . S
C65 H77 0.929 . S
C66 C62 1.531 . S
C66 H78 0.960 . S
C66 H79 0.962 . S
C66 H80 0.960 . S
C67 C64 1.511 . S
C67 H81 0.961 . S
C67 H82 0.961 . S
C67 H83 0.961 . S
C68 C69 1.370 1_445 S
C68 C70 1.363 . S
C68 H84 0.931 . S
C69 C68 1.370 1_665 S
C69 C73 1.408 . S
C70 C68 1.363 . S
C70 C71 1.370 1_445 S
C70 C74 1.524 . S
C71 C63 1.503 . S
C71 C70 1.370 1_665 S
C71 C72 1.403 . S
C72 C71 1.403 . S
C72 C73 1.404 . S
C72 C75 1.539 . S
C73 C69 1.408 . S
C73 C72 1.404 . S
C73 H85 0.930 . S
C74 C70 1.524 . S
C74 H86 0.956 . S
C74 H87 0.961 . S
C74 H88 0.961 . S
C75 C72 1.539 . S
C75 H89 0.958 . S
C75 H90 0.961 . S
C75 H91 0.960 . S
H76 C60 0.931 . S
H77 C65 0.929 . S
H78 C66 0.960 . S
H79 C66 0.962 . S
H80 C66 0.960 . S
H81 C67 0.961 . S
H82 C67 0.961 . S
H83 C67 0.961 . S
H84 C68 0.931 . S
H85 C73 0.930 . S
H86 C74 0.956 . S
H87 C74 0.961 . S
H88 C74 0.961 . S
H89 C75 0.958 . S
H90 C75 0.961 . S
H91 C75 0.960 . S
C92 C93 1.391 1_545 S
C92 C94 1.394 . S
C92 H108 0.931 . S
C93 C92 1.391 1_565 S
C93 C97 1.376 1_556 S
C94 C92 1.394 . S
C94 C95 1.369 1_545 S
C94 C98 1.531 . S
C95 C94 1.369 1_565 S
C95 C96 1.410 1_556 S
C95 C103 1.503 . S
C96 C95 1.410 1_554 S
C96 C97 1.392 . S
C96 C99 1.511 . S
C97 C93 1.376 1_554 S
C97 C96 1.392 . S
C97 H109 0.929 . S
C98 C94 1.531 . S
C98 H110 0.960 . S
C98 H111 0.962 . S
C98 H112 0.960 . S
C99 C96 1.511 . S
C99 H113 0.961 . S
C99 H114 0.961 . S
C99 H115 0.961 . S
C100 C101 1.363 1_544 S
C100 C102 1.363 . S
C100 H116 0.931 . S
C101 C100 1.363 1_566 S
C101 C105 1.420 . S
C102 C100 1.363 . S
C102 C103 1.370 1_544 S
C102 C106 1.524 . S
C103 C95 1.503 . S
C103 C102 1.370 1_566 S
C103 C104 1.403 . S
C104 C103 1.403 . S
C104 C105 1.404 . S
C104 C107 1.539 . S
C105 C101 1.420 . S
C105 C104 1.404 . S
C105 H117 0.930 . S
C106 C102 1.524 . S
C106 H118 0.956 . S
C106 H119 0.961 . S
C106 H120 0.961 . S
C107 C104 1.539 . S
C107 H121 0.958 . S
C107 H122 0.961 . S
C107 H123 0.960 . S
H108 C92 0.931 . S
H109 C97 0.929 . S
H110 C98 0.960 . S
H111 C98 0.962 . S
H112 C98 0.960 . S
H113 C99 0.961 . S
H114 C99 0.961 . S
H115 C99 0.961 . S
H116 C100 0.931 . S
H117 C105 0.930 . S
H118 C106 0.956 . S
H119 C106 0.961 . S
H120 C106 0.961 . S
H121 C107 0.958 . S
H122 C107 0.961 . S
H123 C107 0.960 . S
C124 C125 1.391 1_455 S
C124 C126 1.394 . S
C124 H140 0.931 . S
C125 C124 1.391 1_655 S
C125 C129 1.376 . S
C126 C124 1.394 . S
C126 C127 1.369 . S
C126 C130 1.531 . S
C127 C126 1.369 . S
C127 C128 1.410 1_455 S
C127 C135 1.503 . S
C128 C127 1.410 1_655 S
C128 C129 1.392 . S
C128 C131 1.511 . S
C129 C125 1.376 . S
C129 C128 1.392 . S
C129 H141 0.929 . S
C130 C126 1.531 . S
C130 H142 0.960 . S
C130 H143 0.962 . S
C130 H144 0.960 . S
C131 C128 1.511 . S
C131 H145 0.961 . S
C131 H146 0.961 . S
C131 H147 0.961 . S
C132 C133 1.369 1_455 S
C132 C134 1.363 . S
C132 H148 0.931 . S
C133 C132 1.369 1_655 S
C133 C137 1.408 . S
C134 C132 1.363 . S
C134 C135 1.371 . S
C134 C138 1.524 . S
C135 C127 1.503 . S
C135 C134 1.371 . S
C135 C136 1.402 . S
C136 C135 1.402 . S
C136 C137 1.404 1_455 S
C136 C139 1.539 1_455 S
C137 C133 1.408 . S
C137 C136 1.404 1_655 S
C137 H149 0.931 . S
C138 C134 1.524 . S
C138 H150 0.956 . S
C138 H151 0.961 1_455 S
C138 H152 0.961 1_455 S
C139 C136 1.539 1_655 S
C139 H153 0.958 1_655 S
C139 H154 0.961 . S
C139 H155 0.960 . S
H140 C124 0.931 . S
H141 C129 0.929 . S
H142 C130 0.960 . S
H143 C130 0.962 . S
H144 C130 0.960 . S
H145 C131 0.961 . S
H146 C131 0.961 . S
H147 C131 0.961 . S
H148 C132 0.931 . S
H149 C137 0.931 . S
H150 C138 0.956 . S
H151 C138 0.961 1_655 S
H152 C138 0.961 1_655 S
H153 C139 0.958 1_455 S
H154 C139 0.961 . S
H155 C139 0.960 . S
C29 C12 1.497 1_655 S
C37 C27 1.497 1_645 S
C61 C13 1.491 . S
C69 C26 1.503 1_565 S
C93 C1 1.491 1_565 S
C101 C0 1.495 1_556 S
C125 C15 1.499 . S
C133 C14 1.496 1_655 S
