# Generated by pormake.
# Topology acs, (6)-cn, num edge types: 1
# Building blocks:
#     Node 0, Type 0, BuildingBlock: OJICUG_clean_sbu_0, # of connection points: 6
#     Node 1, Type 0, BuildingBlock: OJICUG_clean_sbu_0, # of connection points: 6
#     Edge 2, Type (0, 0), BuildingBlock: FUNLAD_clean_linker_1, # of connection points: 2
#     Edge 3, Type (0, 0), BuildingBlock: FUNLAD_clean_linker_1, # of connection points: 2
#     Edge 4, Type (0, 0), BuildingBlock: FUNLAD_clean_linker_1, # of connection points: 2
#     Edge 5, Type (0, 0), BuildingBlock: FUNLAD_clean_linker_1, # of connection points: 2
#     Edge 6, Type (0, 0), BuildingBlock: FUNLAD_clean_linker_1, # of connection points: 2
#     Edge 7, Type (0, 0), BuildingBlock: FUNLAD_clean_linker_1, # of connection points: 2
# Relax obj value: 0.000
# Max RMSD: 0.000
# Mean RMSD: 0.000
data_MOF--net-acs--node1-OJICUG_clean_sbu_0--edge1-FUNLAD_clean_linker_1
_symmetry_space_group_name_H-M    P1
_symmetry_Int_Tables_number       1
_symmetry_cell_setting            triclinic
loop_
_symmetry_equiv_pos_as_xyz
'x, y, z'
_cell_length_a     22.169672
_cell_length_b     22.146651
_cell_length_c     22.716304
_cell_angle_alpha  89.982309
_cell_angle_beta   89.969426
_cell_angle_gamma 120.05208
loop_
_atom_site_label
_atom_site_type_symbol
_atom_site_fract_x
_atom_site_fract_y
_atom_site_fract_z
_atom_type_partial_charge
Sc0 Sc 0.70469 0.43873 0.24767 0.0
Sc1 Sc 0.56125 0.26702 0.24732 0.0
Sc2 Sc 0.73269 0.2952 0.2473 0.0
O3 O 0.66622 0.33366 0.24743 0.0
C4 C 0.80941 0.42502 0.15983 0.0
C5 C 0.5753 0.38642 0.1602 0.0
C6 C 0.61421 0.19131 0.15893 0.0
C7 C 0.5757 0.38539 0.33582 0.0
C8 C 0.80928 0.42418 0.33525 0.0
C9 C 0.61355 0.18966 0.3345 0.0
O10 O 0.77954 0.45712 0.17941 0.0
O11 O 0.54314 0.32436 0.17975 0.0
O12 O 0.67599 0.22069 0.1789 0.0
O13 O 0.63429 0.43227 0.31597 0.0
O14 O 0.79708 0.36538 0.31556 0.0
O15 O 0.56695 0.20173 0.31478 0.0
O16 O 0.78007 0.45674 0.31526 0.0
O17 O 0.54321 0.32361 0.31569 0.0
O18 O 0.67547 0.21941 0.31479 0.0
O19 O 0.63385 0.43316 0.18014 0.0
O20 O 0.79775 0.36652 0.17987 0.0
O21 O 0.56741 0.20293 0.17898 0.0
Sc22 Sc 0.2941 0.5615 0.74717 0.0
Sc23 Sc 0.43754 0.73321 0.74752 0.0
Sc24 Sc 0.2661 0.70502 0.74754 0.0
O25 O 0.33257 0.66657 0.74741 0.0
C26 C 0.18951 0.57605 0.65958 0.0
C27 C 0.42309 0.61484 0.65901 0.0
C28 C 0.38524 0.81057 0.66033 0.0
C29 C 0.42349 0.61381 0.83463 0.0
C30 C 0.18938 0.57521 0.83501 0.0
C31 C 0.38458 0.80892 0.8359 0.0
O32 O 0.21872 0.54349 0.67957 0.0
O33 O 0.45558 0.67662 0.67915 0.0
O34 O 0.32332 0.78082 0.68005 0.0
O35 O 0.36493 0.56706 0.81469 0.0
O36 O 0.20104 0.63371 0.81496 0.0
O37 O 0.43138 0.7973 0.81586 0.0
O38 O 0.21925 0.54311 0.81543 0.0
O39 O 0.45565 0.67587 0.81509 0.0
O40 O 0.3228 0.77954 0.81594 0.0
O41 O 0.3645 0.56796 0.67887 0.0
O42 O 0.20171 0.63485 0.67928 0.0
O43 O 0.43184 0.7985 0.68005 0.0
H44 H 0.36185 0.86968 0.9001 0.0
C45 C 0.40224 0.85961 0.88413 0.0
H46 H 0.50789 0.88648 0.89153 0.0
H47 H 0.60208 0.18434 -0.00132 0.0
H48 H 0.65405 0.21514 0.90154 0.0
H49 H 0.62861 0.12425 0.82723 0.0
H50 H 0.55092 0.00206 0.84965 0.0
C51 C 0.46616 0.89405 0.90813 0.0
C52 C 0.48346 0.94799 0.95417 0.0
C53 C 0.53011 0.01908 0.94068 0.0
C54 C 0.54555 0.07139 0.98378 0.0
C55 C 0.59011 0.14224 0.9683 0.0
C56 C 0.6199 0.16074 0.91247 0.0
C57 C 0.60553 0.10959 0.87062 0.0
C58 C 0.56095 0.03957 0.88418 0.0
H59 H 0.63694 0.13055 0.09474 0.0
C60 C 0.59654 0.14062 0.11071 0.0
H61 H 0.4909 0.11374 0.10331 0.0
H62 H 0.3967 0.81588 0.99616 0.0
H63 H 0.34474 0.78509 0.09329 0.0
H64 H 0.37018 0.87598 0.16761 0.0
H65 H 0.44786 0.99817 0.14519 0.0
C66 C 0.53263 0.10618 0.08671 0.0
C67 C 0.51533 0.05224 0.04067 0.0
C68 C 0.46868 0.98115 0.05416 0.0
C69 C 0.45324 0.92884 0.01106 0.0
C70 C 0.40868 0.85799 0.02653 0.0
C71 C 0.37889 0.83949 0.08236 0.0
C72 C 0.39326 0.89064 0.12421 0.0
C73 C 0.43783 0.96066 0.11066 0.0
H74 H 0.50681 0.63768 0.59502 0.0
C75 C 0.45619 0.59726 0.61082 0.0
H76 H 0.3771 0.4916 0.60309 0.0
H77 H 0.54978 0.55215 0.34982 0.0
H78 H 0.50595 0.63027 0.32748 0.0
H79 H 0.44048 0.6557 0.40174 0.0
H80 H 0.41866 0.60334 0.49875 0.0
C81 C 0.42657 0.53336 0.58665 0.0
C82 C 0.46323 0.51607 0.54065 0.0
C83 C 0.47468 0.54653 0.48383 0.0
C84 C 0.51153 0.53107 0.44075 0.0
C85 C 0.52229 0.56217 0.38433 0.0
C86 C 0.49723 0.60699 0.37082 0.0
C87 C 0.46044 0.62137 0.41264 0.0
C88 C 0.44878 0.59134 0.46839 0.0
H89 H 0.49198 0.36255 0.39982 0.0
C90 C 0.5426 0.40297 0.38402 0.0
H91 H 0.62169 0.50863 0.39175 0.0
H92 H 0.449 0.44808 0.64501 0.0
H93 H 0.49284 0.36996 0.66736 0.0
H94 H 0.5583 0.34453 0.5931 0.0
H95 H 0.58012 0.39689 0.49609 0.0
C96 C 0.57222 0.46687 0.40818 0.0
C97 C 0.53556 0.48416 0.45419 0.0
C98 C 0.52411 0.4537 0.51101 0.0
C99 C 0.48726 0.46916 0.55408 0.0
C100 C 0.4765 0.43806 0.61051 0.0
C101 C 0.50156 0.39323 0.62401 0.0
C102 C 0.53835 0.37886 0.5822 0.0
C103 C 0.55001 0.40889 0.52644 0.0
H104 H 0.87128 0.50917 0.09629 0.0
C105 C 0.86125 0.45874 0.11248 0.0
H106 H 0.88694 0.37905 0.10427 0.0
H107 H 0.00163 0.47342 0.84407 0.0
H108 H 0.89048 0.37015 0.82339 0.0
H109 H 0.80527 0.30919 0.90286 0.0
H110 H 0.83066 0.35147 0.00344 0.0
C111 C 0.89724 0.43018 0.08996 0.0
C112 C 0.94975 0.46592 0.04281 0.0
C113 C 0.93464 0.43967 0.98455 0.0
C114 C 0.98411 0.47425 0.93894 0.0
C115 C 0.96667 0.44832 0.88071 0.0
C116 C 0.90285 0.38927 0.86814 0.0
C117 C 0.85485 0.35499 0.91286 0.0
C118 C 0.87016 0.37976 0.97043 0.0
H119 H 0.12751 0.49105 0.89855 0.0
C120 C 0.13754 0.54148 0.88236 0.0
H121 H 0.11185 0.62118 0.89057 0.0
H122 H 0.99716 0.5268 0.15076 0.0
H123 H 0.10831 0.63008 0.17144 0.0
H124 H 0.19352 0.69104 0.09198 0.0
H125 H 0.16813 0.64876 0.99139 0.0
C126 C 0.10155 0.57005 0.90487 0.0
C127 C 0.04904 0.53431 0.95203 0.0
C128 C 0.06415 0.56056 0.01028 0.0
C129 C 0.01468 0.52597 0.0559 0.0
C130 C 0.03212 0.55191 0.11413 0.0
C131 C 0.09594 0.61096 0.12669 0.0
C132 C 0.14394 0.64524 0.08197 0.0
C133 C 0.12863 0.62047 0.02441 0.0
H134 H 0.36328 0.87315 0.59747 0.0
C135 C 0.40348 0.86264 0.61315 0.0
H136 H 0.50841 0.88734 0.60373 0.0
H137 H 0.52397 0.00087 0.34349 0.0
H138 H 0.51332 0.8886 0.32226 0.0
H139 H 0.48974 0.80353 0.40169 0.0
H140 H 0.4763 0.83016 0.50282 0.0
C141 C 0.46779 0.89812 0.59001 0.0
C142 C 0.48437 0.95059 0.54284 0.0
C143 C 0.49347 0.93472 0.48424 0.0
C144 C 0.50793 0.98408 0.43861 0.0
C145 C 0.51445 0.96596 0.3801 0.0
C146 C 0.50808 0.90151 0.36723 0.0
C147 C 0.49473 0.85359 0.41193 0.0
C148 C 0.48726 0.8696 0.46981 0.0
H149 H 0.63551 0.12708 0.39736 0.0
C150 C 0.59531 0.13759 0.38169 0.0
H151 H 0.49038 0.11289 0.39111 0.0
H152 H 0.47482 0.99935 0.65135 0.0
H153 H 0.48547 0.11163 0.67258 0.0
H154 H 0.50905 0.1967 0.59314 0.0
H155 H 0.52249 0.17007 0.49202 0.0
C156 C 0.531 0.10211 0.40483 0.0
C157 C 0.51442 0.04964 0.452 0.0
C158 C 0.50532 0.06551 0.5106 0.0
C159 C 0.49086 0.01615 0.55623 0.0
C160 C 0.48433 0.03427 0.61474 0.0
C161 C 0.4907 0.09872 0.62761 0.0
C162 C 0.50405 0.14664 0.5829 0.0
C163 C 0.51153 0.13063 0.52503 0.0
H164 H 0.50722 0.63647 0.89845 0.0
C165 C 0.45719 0.59572 0.88196 0.0
H166 H 0.37848 0.48979 0.88958 0.0
H167 H 0.65209 0.48756 0.00548 0.0
H168 H 0.69719 0.5083 0.90569 0.0
H169 H 0.63579 0.53054 0.8255 0.0
H170 H 0.52925 0.5326 0.84466 0.0
C171 C 0.42923 0.53097 0.90418 0.0
C172 C 0.46497 0.51464 0.95163 0.0
C173 C 0.52689 0.51297 0.93941 0.0
C174 C 0.56171 0.4991 0.98544 0.0
C175 C 0.62352 0.49784 0.97216 0.0
C176 C 0.64992 0.50952 0.91504 0.0
C177 C 0.61541 0.52213 0.86992 0.0
C178 C 0.55448 0.52363 0.88163 0.0
H179 H 0.49157 0.36376 0.09639 0.0
C180 C 0.5416 0.4045 0.11288 0.0
H181 H 0.62031 0.51044 0.10526 0.0
H182 H 0.3467 0.51267 0.98936 0.0
H183 H 0.3016 0.49193 0.08915 0.0
H184 H 0.363 0.46968 0.16933 0.0
H185 H 0.46954 0.46763 0.15018 0.0
C186 C 0.56956 0.46925 0.09066 0.0
C187 C 0.53382 0.48558 0.0432 0.0
C188 C 0.4719 0.48725 0.05542 0.0
C189 C 0.43708 0.50112 0.0094 0.0
C190 C 0.37527 0.50239 0.02268 0.0
C191 C 0.34886 0.4907 0.07979 0.0
C192 C 0.38338 0.47809 0.12492 0.0
C193 C 0.44431 0.4766 0.11321 0.0
H194 H 0.12699 0.49145 0.59675 0.0
C195 C 0.13769 0.54233 0.61228 0.0
H196 H 0.11325 0.62277 0.60273 0.0
H197 H 0.99665 0.52358 0.34358 0.0
H198 H 0.10808 0.62585 0.32148 0.0
H199 H 0.19382 0.68804 0.40018 0.0
H200 H 0.16869 0.64799 0.50144 0.0
C201 C 0.10232 0.57123 0.58912 0.0
C202 C 0.04938 0.53498 0.5424 0.0
C203 C 0.06434 0.55995 0.48373 0.0
C204 C 0.01454 0.52467 0.43854 0.0
C205 C 0.03183 0.54928 0.37991 0.0
C206 C 0.09582 0.60774 0.36653 0.0
C207 C 0.14412 0.6427 0.41082 0.0
C208 C 0.12897 0.61922 0.46877 0.0
H209 H 0.8718 0.50878 0.39808 0.0
C210 C 0.8611 0.4579 0.38255 0.0
H211 H 0.88554 0.37746 0.39211 0.0
H212 H 0.00214 0.47665 0.65125 0.0
H213 H 0.89071 0.37437 0.67336 0.0
H214 H 0.80497 0.31219 0.59466 0.0
H215 H 0.8301 0.35223 0.4934 0.0
C216 C 0.89647 0.429 0.40571 0.0
C217 C 0.9494 0.46525 0.45244 0.0
C218 C 0.93445 0.44028 0.51111 0.0
C219 C 0.98425 0.47556 0.5563 0.0
C220 C 0.96696 0.45095 0.61493 0.0
C221 C 0.90296 0.39249 0.62831 0.0
C222 C 0.85467 0.35753 0.58402 0.0
C223 C 0.86982 0.38101 0.52606 0.0
loop_
_geom_bond_atom_site_label_1
_geom_bond_atom_site_label_2
_geom_bond_distance
_geom_bond_site_symmetry_2
_ccdc_geom_bond_type
Sc0 O3 2.025 . S
Sc0 O10 2.105 . S
Sc0 O13 2.105 . S
Sc0 O16 2.105 . S
Sc0 O19 2.105 . S
Sc1 O3 2.025 . S
Sc1 O11 2.105 . S
Sc1 O15 2.105 . S
Sc1 O17 2.105 . S
Sc1 O21 2.105 . S
Sc2 O3 2.025 . S
Sc2 O12 2.105 . S
Sc2 O14 2.105 . S
Sc2 O18 2.105 . S
Sc2 O20 2.105 . S
O3 Sc0 2.025 . S
O3 Sc1 2.025 . S
O3 Sc2 2.025 . S
C4 O10 1.268 . S
C4 O20 1.268 . S
C5 O11 1.268 . S
C5 O19 1.268 . S
C6 O12 1.268 . S
C6 O21 1.268 . S
C7 O13 1.268 . S
C7 O17 1.268 . S
C8 O14 1.268 . S
C8 O16 1.268 . S
C9 O15 1.268 . S
C9 O18 1.268 . S
O10 Sc0 2.105 . S
O10 C4 1.268 . S
O11 Sc1 2.105 . S
O11 C5 1.268 . S
O12 Sc2 2.105 . S
O12 C6 1.268 . S
O13 Sc0 2.105 . S
O13 C7 1.268 . S
O14 Sc2 2.105 . S
O14 C8 1.268 . S
O15 Sc1 2.105 . S
O15 C9 1.268 . S
O16 Sc0 2.105 . S
O16 C8 1.268 . S
O17 Sc1 2.105 . S
O17 C7 1.268 . S
O18 Sc2 2.105 . S
O18 C9 1.268 . S
O19 Sc0 2.105 . S
O19 C5 1.268 . S
O20 Sc2 2.105 . S
O20 C4 1.268 . S
O21 Sc1 2.105 . S
O21 C6 1.268 . S
Sc22 O25 2.025 . S
Sc22 O32 2.105 . S
Sc22 O35 2.105 . S
Sc22 O38 2.105 . S
Sc22 O41 2.105 . S
Sc23 O25 2.025 . S
Sc23 O33 2.105 . S
Sc23 O37 2.105 . S
Sc23 O39 2.105 . S
Sc23 O43 2.105 . S
Sc24 O25 2.025 . S
Sc24 O34 2.105 . S
Sc24 O36 2.105 . S
Sc24 O40 2.105 . S
Sc24 O42 2.105 . S
O25 Sc22 2.025 . S
O25 Sc23 2.025 . S
O25 Sc24 2.025 . S
C26 O32 1.268 . S
C26 O42 1.268 . S
C27 O33 1.268 . S
C27 O41 1.268 . S
C28 O34 1.268 . S
C28 O43 1.268 . S
C29 O35 1.268 . S
C29 O39 1.268 . S
C30 O36 1.268 . S
C30 O38 1.268 . S
C31 O37 1.268 . S
C31 O40 1.268 . S
O32 Sc22 2.105 . S
O32 C26 1.268 . S
O33 Sc23 2.105 . S
O33 C27 1.268 . S
O34 Sc24 2.105 . S
O34 C28 1.268 . S
O35 Sc22 2.105 . S
O35 C29 1.268 . S
O36 Sc24 2.105 . S
O36 C30 1.268 . S
O37 Sc23 2.105 . S
O37 C31 1.268 . S
O38 Sc22 2.105 . S
O38 C30 1.268 . S
O39 Sc23 2.105 . S
O39 C29 1.268 . S
O40 Sc24 2.105 . S
O40 C31 1.268 . S
O41 Sc22 2.105 . S
O41 C27 1.268 . S
O42 Sc24 2.105 . S
O42 C26 1.268 . S
O43 Sc23 2.105 . S
O43 C28 1.268 . S
H44 C45 0.951 . S
C45 H44 0.951 . S
C45 C51 1.265 . S
H46 C51 0.950 . S
H47 C55 0.949 . S
H48 C56 0.950 . S
H49 C57 0.951 . S
H50 C58 0.951 . S
C51 C45 1.265 . S
C51 H46 0.950 . S
C51 C52 1.478 . S
C52 C51 1.478 . S
C52 C53 1.397 1_565 S
C52 C69 1.394 1_556 S
C53 C52 1.397 1_545 S
C53 C54 1.438 . S
C53 C58 1.429 . S
C54 C53 1.438 . S
C54 C55 1.428 . S
C54 C67 1.394 1_556 S
C55 H47 0.949 . S
C55 C54 1.428 . S
C55 C56 1.345 . S
C56 H48 0.950 . S
C56 C55 1.345 . S
C56 C57 1.424 . S
C57 H49 0.951 . S
C57 C56 1.424 . S
C57 C58 1.347 . S
C58 H50 0.951 . S
C58 C53 1.429 . S
C58 C57 1.347 . S
H59 C60 0.951 . S
C60 H59 0.951 . S
C60 C66 1.265 . S
H61 C66 0.950 . S
H62 C70 0.949 . S
H63 C71 0.950 . S
H64 C72 0.951 . S
H65 C73 0.951 . S
C66 C60 1.265 . S
C66 H61 0.950 . S
C66 C67 1.478 . S
C67 C54 1.394 1_554 S
C67 C66 1.478 . S
C67 C68 1.397 1_545 S
C68 C67 1.397 1_565 S
C68 C69 1.438 . S
C68 C73 1.429 . S
C69 C52 1.394 1_554 S
C69 C68 1.438 . S
C69 C70 1.428 . S
C70 H62 0.949 . S
C70 C69 1.428 . S
C70 C71 1.345 . S
C71 H63 0.950 . S
C71 C70 1.345 . S
C71 C72 1.424 . S
C72 H64 0.951 . S
C72 C71 1.424 . S
C72 C73 1.347 . S
C73 H65 0.951 . S
C73 C68 1.429 . S
C73 C72 1.347 . S
H74 C75 0.951 . S
C75 H74 0.951 . S
C75 C81 1.265 . S
H76 C81 0.950 . S
H77 C85 0.949 . S
H78 C86 0.950 . S
H79 C87 0.951 . S
H80 C88 0.951 . S
C81 C75 1.265 . S
C81 H76 0.950 . S
C81 C82 1.478 . S
C82 C81 1.478 . S
C82 C83 1.397 . S
C82 C99 1.394 . S
C83 C82 1.397 . S
C83 C84 1.438 . S
C83 C88 1.429 . S
C84 C83 1.438 . S
C84 C85 1.428 . S
C84 C97 1.394 . S
C85 H77 0.949 . S
C85 C84 1.428 . S
C85 C86 1.345 . S
C86 H78 0.950 . S
C86 C85 1.345 . S
C86 C87 1.424 . S
C87 H79 0.951 . S
C87 C86 1.424 . S
C87 C88 1.347 . S
C88 H80 0.951 . S
C88 C83 1.429 . S
C88 C87 1.347 . S
H89 C90 0.951 . S
C90 H89 0.951 . S
C90 C96 1.265 . S
H91 C96 0.950 . S
H92 C100 0.949 . S
H93 C101 0.950 . S
H94 C102 0.951 . S
H95 C103 0.951 . S
C96 C90 1.265 . S
C96 H91 0.950 . S
C96 C97 1.478 . S
C97 C84 1.394 . S
C97 C96 1.478 . S
C97 C98 1.397 . S
C98 C97 1.397 . S
C98 C99 1.438 . S
C98 C103 1.429 . S
C99 C82 1.394 . S
C99 C98 1.438 . S
C99 C100 1.428 . S
C100 H92 0.949 . S
C100 C99 1.428 . S
C100 C101 1.345 . S
C101 H93 0.950 . S
C101 C100 1.345 . S
C101 C102 1.424 . S
C102 H94 0.951 . S
C102 C101 1.424 . S
C102 C103 1.347 . S
C103 H95 0.951 . S
C103 C98 1.429 . S
C103 C102 1.347 . S
H104 C105 0.951 . S
C105 H104 0.951 . S
C105 C111 1.265 . S
H106 C111 0.950 . S
H107 C115 0.949 . S
H108 C116 0.950 . S
H109 C117 0.951 . S
H110 C118 0.951 . S
C111 C105 1.265 . S
C111 H106 0.950 . S
C111 C112 1.478 . S
C112 C111 1.478 . S
C112 C113 1.397 . S
C112 C129 1.394 . S
C113 C112 1.397 . S
C113 C114 1.438 1_654 S
C113 C118 1.429 . S
C114 C113 1.438 1_456 S
C114 C115 1.428 . S
C114 C127 1.394 . S
C115 H107 0.949 . S
C115 C114 1.428 . S
C115 C116 1.345 1_455 S
C116 H108 0.950 . S
C116 C115 1.345 1_655 S
C116 C117 1.424 . S
C117 H109 0.951 . S
C117 C116 1.424 . S
C117 C118 1.347 1_556 S
C118 H110 0.951 . S
C118 C113 1.429 . S
C118 C117 1.347 1_554 S
H119 C120 0.951 . S
C120 H119 0.951 . S
C120 C126 1.265 . S
H121 C126 0.950 . S
H122 C130 0.949 . S
H123 C131 0.950 . S
H124 C132 0.951 . S
H125 C133 0.951 . S
C126 C120 1.265 . S
C126 H121 0.950 . S
C126 C127 1.478 . S
C127 C114 1.394 . S
C127 C126 1.478 . S
C127 C128 1.397 . S
C128 C127 1.397 . S
C128 C129 1.438 1_456 S
C128 C133 1.429 . S
C129 C112 1.394 . S
C129 C128 1.438 1_654 S
C129 C130 1.428 . S
C130 H122 0.949 . S
C130 C129 1.428 . S
C130 C131 1.345 1_655 S
C131 H123 0.950 . S
C131 C130 1.345 1_455 S
C131 C132 1.424 . S
C132 H124 0.951 . S
C132 C131 1.424 . S
C132 C133 1.347 1_554 S
C133 H125 0.951 . S
C133 C128 1.429 . S
C133 C132 1.347 1_556 S
H134 C135 0.951 . S
C135 H134 0.951 . S
C135 C141 1.265 . S
H136 C141 0.950 . S
H137 C145 0.949 1_545 S
H138 C146 0.950 . S
H139 C147 0.951 . S
H140 C148 0.951 . S
C141 C135 1.265 . S
C141 H136 0.950 . S
C141 C142 1.478 . S
C142 C141 1.478 . S
C142 C143 1.397 . S
C142 C159 1.394 1_565 S
C143 C142 1.397 . S
C143 C144 1.438 . S
C143 C148 1.429 . S
C144 C143 1.438 . S
C144 C145 1.428 . S
C144 C157 1.394 1_565 S
C145 H137 0.949 1_565 S
C145 C144 1.428 . S
C145 C146 1.345 . S
C146 H138 0.950 . S
C146 C145 1.345 . S
C146 C147 1.424 . S
C147 H139 0.951 . S
C147 C146 1.424 . S
C147 C148 1.347 . S
C148 H140 0.951 . S
C148 C143 1.429 . S
C148 C147 1.347 . S
H149 C150 0.951 . S
C150 H149 0.951 . S
C150 C156 1.265 . S
H151 C156 0.950 . S
H152 C160 0.949 1_565 S
H153 C161 0.950 . S
H154 C162 0.951 . S
H155 C163 0.951 . S
C156 C150 1.265 . S
C156 H151 0.950 . S
C156 C157 1.478 . S
C157 C144 1.394 1_545 S
C157 C156 1.478 . S
C157 C158 1.397 . S
C158 C157 1.397 . S
C158 C159 1.438 . S
C158 C163 1.429 . S
C159 C142 1.394 1_545 S
C159 C158 1.438 . S
C159 C160 1.428 . S
C160 H152 0.949 1_545 S
C160 C159 1.428 . S
C160 C161 1.345 . S
C161 H153 0.950 . S
C161 C160 1.345 . S
C161 C162 1.424 . S
C162 H154 0.951 . S
C162 C161 1.424 . S
C162 C163 1.347 . S
C163 H155 0.951 . S
C163 C158 1.429 . S
C163 C162 1.347 . S
H164 C165 0.951 . S
C165 H164 0.951 . S
C165 C171 1.265 . S
H166 C171 0.950 . S
H167 C175 0.949 . S
H168 C176 0.950 . S
H169 C177 0.951 . S
H170 C178 0.951 . S
C171 C165 1.265 . S
C171 H166 0.950 . S
C171 C172 1.478 . S
C172 C171 1.478 . S
C172 C173 1.397 . S
C172 C189 1.394 . S
C173 C172 1.397 . S
C173 C174 1.438 1_556 S
C173 C178 1.429 . S
C174 C173 1.438 1_554 S
C174 C175 1.428 . S
C174 C187 1.394 . S
C175 H167 0.949 . S
C175 C174 1.428 . S
C175 C176 1.345 . S
C176 H168 0.950 . S
C176 C175 1.345 . S
C176 C177 1.424 1_554 S
C177 H169 0.951 . S
C177 C176 1.424 1_556 S
C177 C178 1.347 . S
C178 H170 0.951 . S
C178 C173 1.429 . S
C178 C177 1.347 . S
H179 C180 0.951 . S
C180 H179 0.951 . S
C180 C186 1.265 . S
H181 C186 0.950 . S
H182 C190 0.949 . S
H183 C191 0.950 . S
H184 C192 0.951 . S
H185 C193 0.951 . S
C186 C180 1.265 . S
C186 H181 0.950 . S
C186 C187 1.478 . S
C187 C174 1.394 . S
C187 C186 1.478 . S
C187 C188 1.397 . S
C188 C187 1.397 . S
C188 C189 1.438 1_554 S
C188 C193 1.429 . S
C189 C172 1.394 . S
C189 C188 1.438 1_556 S
C189 C190 1.428 . S
C190 H182 0.949 . S
C190 C189 1.428 . S
C190 C191 1.345 . S
C191 H183 0.950 . S
C191 C190 1.345 . S
C191 C192 1.424 1_556 S
C192 H184 0.951 . S
C192 C191 1.424 1_554 S
C192 C193 1.347 . S
C193 H185 0.951 . S
C193 C188 1.429 . S
C193 C192 1.347 . S
H194 C195 0.951 . S
C195 H194 0.951 . S
C195 C201 1.265 . S
H196 C201 0.950 . S
H197 C205 0.949 1_655 S
H198 C206 0.950 . S
H199 C207 0.951 . S
H200 C208 0.951 . S
C201 C195 1.265 . S
C201 H196 0.950 . S
C201 C202 1.478 . S
C202 C201 1.478 . S
C202 C203 1.397 . S
C202 C219 1.394 1_455 S
C203 C202 1.397 . S
C203 C204 1.438 . S
C203 C208 1.429 . S
C204 C203 1.438 . S
C204 C205 1.428 . S
C204 C217 1.394 1_455 S
C205 H197 0.949 1_455 S
C205 C204 1.428 . S
C205 C206 1.345 . S
C206 H198 0.950 . S
C206 C205 1.345 . S
C206 C207 1.424 . S
C207 H199 0.951 . S
C207 C206 1.424 . S
C207 C208 1.347 . S
C208 H200 0.951 . S
C208 C203 1.429 . S
C208 C207 1.347 . S
H209 C210 0.951 . S
C210 H209 0.951 . S
C210 C216 1.265 . S
H211 C216 0.950 . S
H212 C220 0.949 1_455 S
H213 C221 0.950 . S
H214 C222 0.951 . S
H215 C223 0.951 . S
C216 C210 1.265 . S
C216 H211 0.950 . S
C216 C217 1.478 . S
C217 C204 1.394 1_655 S
C217 C216 1.478 . S
C217 C218 1.397 . S
C218 C217 1.397 . S
C218 C219 1.438 . S
C218 C223 1.429 . S
C219 C202 1.394 1_655 S
C219 C218 1.438 . S
C219 C220 1.428 . S
C220 H212 0.949 1_655 S
C220 C219 1.428 . S
C220 C221 1.345 . S
C221 H213 0.950 . S
C221 C220 1.345 . S
C221 C222 1.424 . S
C222 H214 0.951 . S
C222 C221 1.424 . S
C222 C223 1.347 . S
C223 H215 0.951 . S
C223 C218 1.429 . S
C223 C222 1.347 . S
C45 C31 1.476 . S
C60 C6 1.476 . S
C75 C27 1.456 . S
C90 C7 1.456 . S
C105 C4 1.489 . S
C120 C30 1.489 . S
C135 C28 1.472 . S
C150 C9 1.472 . S
C165 C29 1.495 . S
C180 C5 1.495 . S
C195 C26 1.473 . S
C210 C8 1.473 . S
