# Generated by pormake.
# Topology reo, (8)-cn, num edge types: 1
# Building blocks:
#     Node 0, Type 0, BuildingBlock: VETTIZ_charged_sbu_0, # of connection points: 8
#     Node 1, Type 0, BuildingBlock: VETTIZ_charged_sbu_0, # of connection points: 8
#     Node 2, Type 0, BuildingBlock: VETTIZ_charged_sbu_0, # of connection points: 8
#     Edge 3, Type (0, 0), None
#     Edge 4, Type (0, 0), None
#     Edge 5, Type (0, 0), None
#     Edge 6, Type (0, 0), None
#     Edge 7, Type (0, 0), None
#     Edge 8, Type (0, 0), None
#     Edge 9, Type (0, 0), None
#     Edge 10, Type (0, 0), None
#     Edge 11, Type (0, 0), None
#     Edge 12, Type (0, 0), None
#     Edge 13, Type (0, 0), None
#     Edge 14, Type (0, 0), None
# Relax obj value: 0.145
# Max RMSD: 0.165
# Mean RMSD: 0.165
data_MOF--net-reo--node1-VETTIZ_charged_sbu_0--edge1-none
_symmetry_space_group_name_H-M    P1
_symmetry_Int_Tables_number       1
_symmetry_cell_setting            triclinic
loop_
_symmetry_equiv_pos_as_xyz
'x, y, z'
_cell_length_a     12.401531
_cell_length_b     12.401607
_cell_length_c     12.401511
_cell_angle_alpha  90.805074
_cell_angle_beta   90.80535
_cell_angle_gamma 90.805635
loop_
_atom_site_label
_atom_site_type_symbol
_atom_site_fract_x
_atom_site_fract_y
_atom_site_fract_z
_atom_type_partial_charge
Fe0 Fe 0.98295 0.99066 0.37017 0.0
O1 O 0.98528 0.10456 0.48745 0.0
Fe2 Fe 0.12824 0.78472 0.49479 0.0
Fe3 Fe 0.8663 0.20998 0.50007 0.0
O4 O 0.011 0.89075 0.49395 0.0
O5 O 0.00925 0.89014 0.50742 0.0
O6 O 0.98354 0.10395 0.50091 0.0
Fe7 Fe 0.01159 0.00404 0.62469 0.0
C8 C 0.9555 0.22929 0.28167 0.0
O9 O 0.82426 0.96854 0.38656 0.0
O10 O 0.76704 0.13442 0.38195 0.0
O11 O 0.03762 0.87045 0.73387 0.0
O12 O 0.05171 0.72165 0.62017 0.0
O13 O 0.03282 0.70871 0.38463 0.0
O14 O 0.9778 0.8448 0.27098 0.0
O15 O 0.78997 0.14246 0.63117 0.0
O16 O 0.85436 0.97968 0.65606 0.0
C17 C 0.98685 0.74252 0.29872 0.0
O18 O 0.17028 0.02616 0.6083 0.0
O19 O 0.2275 0.86028 0.61292 0.0
O20 O 0.95692 0.12425 0.26099 0.0
O21 O 0.94283 0.27305 0.3747 0.0
C22 C 0.76929 0.03978 0.34124 0.0
C23 C 0.79732 0.05704 0.68689 0.0
C24 C 0.00769 0.25218 0.69615 0.0
O25 O 0.96172 0.28599 0.61023 0.0
O26 O 0.01674 0.1499 0.72389 0.0
C27 C 0.03904 0.76541 0.7132 0.0
O28 O 0.20457 0.85224 0.36369 0.0
O29 O 0.14018 0.01502 0.3388 0.0
C30 C 0.22525 0.95492 0.65362 0.0
C31 C 0.19722 0.93766 0.30797 0.0
Fe32 Fe 0.37002 0.98301 0.99074 0.0
O33 O 0.4873 0.98534 0.10465 0.0
Fe34 Fe 0.49459 0.12836 0.78481 0.0
Fe35 Fe 0.49995 0.86634 0.21005 0.0
O36 O 0.49378 0.01109 0.89083 0.0
O37 O 0.50724 0.00936 0.89022 0.0
O38 O 0.50076 0.98361 0.10404 0.0
Fe39 Fe 0.62452 0.01169 0.00412 0.0
C40 C 0.28155 0.95566 0.22936 0.0
O41 O 0.38642 0.82433 0.96861 0.0
O42 O 0.38183 0.76708 0.13449 0.0
O43 O 0.73368 0.03772 0.87054 0.0
O44 O 0.61998 0.05188 0.72172 0.0
O45 O 0.38445 0.03293 0.70879 0.0
O46 O 0.27082 0.97787 0.84489 0.0
O47 O 0.63107 0.79005 0.1425 0.0
O48 O 0.65587 0.85448 0.97973 0.0
C49 C 0.29857 0.9869 0.74261 0.0
O50 O 0.60812 0.17037 0.02625 0.0
O51 O 0.61271 0.22762 0.86038 0.0
O52 O 0.26085 0.95698 0.12433 0.0
O53 O 0.37455 0.94282 0.27314 0.0
C54 C 0.34112 0.76934 0.03985 0.0
C55 C 0.68676 0.79744 0.05706 0.0
C56 C 0.69597 0.0078 0.25225 0.0
O57 O 0.61009 0.96177 0.28607 0.0
O58 O 0.72372 0.01683 0.14997 0.0
C59 C 0.71298 0.03904 0.7655 0.0
O60 O 0.36347 0.20465 0.85236 0.0
O61 O 0.33867 0.14022 0.01514 0.0
C62 C 0.65342 0.22536 0.95502 0.0
C63 C 0.30778 0.19726 0.9378 0.0
Fe64 Fe 0.99055 0.37009 0.98311 0.0
O65 O 0.89067 0.49389 0.01115 0.0
Fe66 Fe 0.20993 0.49994 0.86648 0.0
Fe67 Fe 0.78461 0.49476 0.12838 0.0
O68 O 0.10448 0.48735 0.98546 0.0
O69 O 0.10387 0.50081 0.98371 0.0
O70 O 0.89005 0.50735 0.00941 0.0
Fe71 Fe 0.00398 0.62461 0.01176 0.0
C72 C 0.74241 0.29868 0.98699 0.0
O73 O 0.0149 0.3387 0.14032 0.0
O74 O 0.85212 0.36367 0.20473 0.0
O75 O 0.14985 0.72378 0.01692 0.0
O76 O 0.28594 0.61011 0.96189 0.0
O77 O 0.27297 0.37457 0.94304 0.0
O78 O 0.12413 0.2609 0.95709 0.0
O79 O 0.86018 0.6129 0.22762 0.0
O80 O 0.02608 0.60819 0.17045 0.0
C81 C 0.22917 0.28158 0.95588 0.0
O82 O 0.97964 0.656 0.85454 0.0
O83 O 0.14242 0.63103 0.79013 0.0
O84 O 0.84469 0.27092 0.97795 0.0
O85 O 0.7086 0.38459 0.03297 0.0
C86 C 0.93751 0.30791 0.19735 0.0
C87 C 0.95485 0.65353 0.22542 0.0
C88 C 0.76537 0.71312 0.03898 0.0
O89 O 0.72157 0.62013 0.05182 0.0
O90 O 0.87041 0.7338 0.03777 0.0
C91 C 0.25213 0.69602 0.00787 0.0
O92 O 0.13436 0.3818 0.76724 0.0
O93 O 0.96846 0.38651 0.82442 0.0
C94 C 0.05703 0.68679 0.79751 0.0
C95 C 0.03969 0.34117 0.76945 0.0
loop_
_geom_bond_atom_site_label_1
_geom_bond_atom_site_label_2
_geom_bond_distance
_geom_bond_site_symmetry_2
_ccdc_geom_bond_type
Fe0 O1 1.886 . S
Fe0 O4 1.715 1_645 S
Fe0 O9 2.077 1_545 S
Fe0 O14 1.935 1_545 S
Fe0 O20 2.077 1_655 S
Fe0 O29 1.935 1_655 S
O1 Fe0 1.886 . S
O1 Fe3 1.715 . S
Fe2 O4 1.886 . S
Fe2 O5 1.715 . S
Fe2 O12 1.935 . S
Fe2 O13 2.077 . S
Fe2 O19 1.935 . S
Fe2 O28 2.077 . S
Fe3 O1 1.715 . S
Fe3 O6 1.886 . S
Fe3 O10 1.935 . S
Fe3 O15 2.077 . S
Fe3 O21 1.935 . S
Fe3 O25 2.077 . S
O4 Fe0 1.715 1_465 S
O4 Fe2 1.886 . S
O5 Fe2 1.715 . S
O5 Fe7 1.886 . S
O6 Fe3 1.886 . S
O6 Fe7 1.715 1_645 S
Fe7 O5 1.886 . S
Fe7 O6 1.715 1_465 S
Fe7 O11 2.077 1_455 S
Fe7 O16 1.935 1_455 S
Fe7 O18 2.077 1_565 S
Fe7 O26 1.935 1_565 S
C8 O20 1.381 1_655 S
C8 O21 1.421 . S
O9 Fe0 2.077 1_565 S
O9 C22 1.381 1_565 S
O10 Fe3 1.935 . S
O10 C22 1.421 . S
O11 Fe7 2.077 1_655 S
O11 C27 1.381 1_655 S
O12 Fe2 1.935 . S
O12 C27 1.421 . S
O13 Fe2 2.077 . S
O13 C17 1.381 . S
O14 Fe0 1.935 1_565 S
O14 C17 1.421 1_655 S
O15 Fe3 2.077 . S
O15 C23 1.381 . S
O16 Fe7 1.935 1_655 S
O16 C23 1.421 1_565 S
C17 O13 1.381 . S
C17 O14 1.421 1_455 S
O18 Fe7 2.077 1_545 S
O18 C30 1.381 1_545 S
O19 Fe2 1.935 . S
O19 C30 1.421 . S
O20 Fe0 2.077 1_455 S
O20 C8 1.381 1_455 S
O21 Fe3 1.935 . S
O21 C8 1.421 . S
C22 O9 1.381 1_545 S
C22 O10 1.421 . S
C23 O15 1.381 . S
C23 O16 1.421 1_545 S
C24 O25 1.381 . S
C24 O26 1.421 1_655 S
O25 Fe3 2.077 . S
O25 C24 1.381 . S
O26 Fe7 1.935 1_545 S
O26 C24 1.421 1_455 S
C27 O11 1.381 1_455 S
C27 O12 1.421 . S
O28 Fe2 2.077 . S
O28 C31 1.381 . S
O29 Fe0 1.935 1_455 S
O29 C31 1.421 1_545 S
C30 O18 1.381 1_565 S
C30 O19 1.421 . S
C31 O28 1.381 . S
C31 O29 1.421 1_565 S
Fe32 O33 1.886 . S
Fe32 O36 1.715 1_564 S
Fe32 O41 2.077 1_554 S
Fe32 O46 1.935 1_554 S
Fe32 O52 2.077 1_565 S
Fe32 O61 1.935 1_565 S
O33 Fe32 1.886 . S
O33 Fe35 1.715 . S
Fe34 O36 1.886 . S
Fe34 O37 1.715 . S
Fe34 O44 1.935 . S
Fe34 O45 2.077 . S
Fe34 O51 1.935 . S
Fe34 O60 2.077 . S
Fe35 O33 1.715 . S
Fe35 O38 1.886 . S
Fe35 O42 1.935 . S
Fe35 O47 2.077 . S
Fe35 O53 1.935 . S
Fe35 O57 2.077 . S
O36 Fe32 1.715 1_546 S
O36 Fe34 1.886 . S
O37 Fe34 1.715 . S
O37 Fe39 1.886 . S
O38 Fe35 1.886 . S
O38 Fe39 1.715 1_564 S
Fe39 O37 1.886 . S
Fe39 O38 1.715 1_546 S
Fe39 O43 2.077 1_545 S
Fe39 O48 1.935 1_545 S
Fe39 O50 2.077 1_556 S
Fe39 O58 1.935 1_556 S
C40 O52 1.381 1_565 S
C40 O53 1.421 . S
O41 Fe32 2.077 1_556 S
O41 C54 1.381 1_556 S
O42 Fe35 1.935 . S
O42 C54 1.421 . S
O43 Fe39 2.077 1_565 S
O43 C59 1.381 1_565 S
O44 Fe34 1.935 . S
O44 C59 1.421 . S
O45 Fe34 2.077 . S
O45 C49 1.381 . S
O46 Fe32 1.935 1_556 S
O46 C49 1.421 1_565 S
O47 Fe35 2.077 . S
O47 C55 1.381 . S
O48 Fe39 1.935 1_565 S
O48 C55 1.421 1_556 S
C49 O45 1.381 . S
C49 O46 1.421 1_545 S
O50 Fe39 2.077 1_554 S
O50 C62 1.381 1_554 S
O51 Fe34 1.935 . S
O51 C62 1.421 . S
O52 Fe32 2.077 1_545 S
O52 C40 1.381 1_545 S
O53 Fe35 1.935 . S
O53 C40 1.421 . S
C54 O41 1.381 1_554 S
C54 O42 1.421 . S
C55 O47 1.381 . S
C55 O48 1.421 1_554 S
C56 O57 1.381 . S
C56 O58 1.421 1_565 S
O57 Fe35 2.077 . S
O57 C56 1.381 . S
O58 Fe39 1.935 1_554 S
O58 C56 1.421 1_545 S
C59 O43 1.381 1_545 S
C59 O44 1.421 . S
O60 Fe34 2.077 . S
O60 C63 1.381 . S
O61 Fe32 1.935 1_545 S
O61 C63 1.421 1_554 S
C62 O50 1.381 1_556 S
C62 O51 1.421 . S
C63 O60 1.381 . S
C63 O61 1.421 1_556 S
Fe64 O65 1.886 . S
Fe64 O68 1.715 1_654 S
Fe64 O73 2.077 1_655 S
Fe64 O78 1.935 1_655 S
Fe64 O84 2.077 1_554 S
Fe64 O93 1.935 1_554 S
O65 Fe64 1.886 . S
O65 Fe67 1.715 . S
Fe66 O68 1.886 . S
Fe66 O69 1.715 . S
Fe66 O76 1.935 . S
Fe66 O77 2.077 . S
Fe66 O83 1.935 . S
Fe66 O92 2.077 . S
Fe67 O65 1.715 . S
Fe67 O70 1.886 . S
Fe67 O74 1.935 . S
Fe67 O79 2.077 . S
Fe67 O85 1.935 . S
Fe67 O89 2.077 . S
O68 Fe64 1.715 1_456 S
O68 Fe66 1.886 . S
O69 Fe66 1.715 . S
O69 Fe71 1.886 . S
O70 Fe67 1.886 . S
O70 Fe71 1.715 1_654 S
Fe71 O69 1.886 . S
Fe71 O70 1.715 1_456 S
Fe71 O75 2.077 1_556 S
Fe71 O80 1.935 1_556 S
Fe71 O82 2.077 1_455 S
Fe71 O90 1.935 1_455 S
C72 O84 1.381 1_554 S
C72 O85 1.421 . S
O73 Fe64 2.077 1_455 S
O73 C86 1.381 1_455 S
O74 Fe67 1.935 . S
O74 C86 1.421 . S
O75 Fe71 2.077 1_554 S
O75 C91 1.381 1_554 S
O76 Fe66 1.935 . S
O76 C91 1.421 . S
O77 Fe66 2.077 . S
O77 C81 1.381 . S
O78 Fe64 1.935 1_455 S
O78 C81 1.421 1_554 S
O79 Fe67 2.077 . S
O79 C87 1.381 . S
O80 Fe71 1.935 1_554 S
O80 C87 1.421 1_455 S
C81 O77 1.381 . S
C81 O78 1.421 1_556 S
O82 Fe71 2.077 1_655 S
O82 C94 1.381 1_655 S
O83 Fe66 1.935 . S
O83 C94 1.421 . S
O84 Fe64 2.077 1_556 S
O84 C72 1.381 1_556 S
O85 Fe67 1.935 . S
O85 C72 1.421 . S
C86 O73 1.381 1_655 S
C86 O74 1.421 . S
C87 O79 1.381 . S
C87 O80 1.421 1_655 S
C88 O89 1.381 . S
C88 O90 1.421 1_554 S
O89 Fe67 2.077 . S
O89 C88 1.381 . S
O90 Fe71 1.935 1_655 S
O90 C88 1.421 1_556 S
C91 O75 1.381 1_556 S
C91 O76 1.421 . S
O92 Fe66 2.077 . S
O92 C95 1.381 . S
O93 Fe64 1.935 1_556 S
O93 C95 1.421 1_655 S
C94 O82 1.381 1_455 S
C94 O83 1.421 . S
C95 O92 1.381 . S
C95 O93 1.421 1_455 S
C86 C8 1.022 . S
C22 C56 1.174 1_545 S
C17 C87 1.112 1_455 S
C40 C31 1.011 . S
C27 C94 1.025 . S
C49 C30 1.174 1_545 S
C95 C24 1.112 1_455 S
C59 C23 1.014 . S
C81 C63 0.980 . S
C91 C54 1.226 1_556 S
C62 C72 1.226 1_556 S
C88 C55 0.984 . S
