# Generated by pormake.
# Topology pcu, (6)-cn, num edge types: 1
# Building blocks:
#     Node 0, Type 0, BuildingBlock: BETDIP_clean_sbu_0, # of connection points: 6
#     Edge 1, Type (0, 0), None
#     Edge 2, Type (0, 0), None
#     Edge 3, Type (0, 0), None
# Relax obj value: 0.000
# Max RMSD: 0.000
# Mean RMSD: 0.000
data_MOF--net-pcu--node1-BETDIP_clean_sbu_0--edge1-none
_symmetry_space_group_name_H-M    P1
_symmetry_Int_Tables_number       1
_symmetry_cell_setting            triclinic
loop_
_symmetry_equiv_pos_as_xyz
'x, y, z'
_cell_length_a     16.734421
_cell_length_b     6.8350208
_cell_length_c     5.8365892
_cell_angle_alpha  85.757717
_cell_angle_beta   97.630242
_cell_angle_gamma 119.55227
loop_
_atom_site_label
_atom_site_type_symbol
_atom_site_fract_x
_atom_site_fract_y
_atom_site_fract_z
_atom_type_partial_charge
Tb0 Tb 0.94629 0.82988 1.00798 0.0
Tb1 Tb 0.15826 0.09658 0.07835 0.0
C2 C 0.77779 0.67329 0.0488 0.0
C3 C 0.71319 0.76283 0.04883 0.0
C4 C 0.71347 0.87455 0.24194 0.0
C5 C 0.65036 0.95255 0.24158 0.0
C6 C 0.58541 0.9214 0.04805 0.0
C7 C 0.58545 0.80946 0.85495 0.0
C8 C 0.64805 0.7298 0.85619 0.0
C9 C 1.0291 0.93548 0.63399 0.0
C10 C 0.05377 0.36867 1.04377 0.0
C11 C 0.327 0.25554 1.03904 0.0
C12 C 0.39136 0.16656 1.04092 0.0
C13 C 0.36548 -0.03401 0.92822 0.0
C14 C 0.42804 0.88578 0.93183 0.0
C15 C 0.51794 0.00455 0.04777 0.0
C16 C 0.54274 0.20386 0.16308 0.0
C17 C 0.48004 0.28342 0.15993 0.0
C18 C 0.07512 -0.00894 0.45203 0.0
C19 C 1.05072 0.55772 1.04238 0.0
O20 O 0.8418 0.72382 0.22514 0.0
O21 O 0.80942 0.68428 0.85195 0.0
O22 O 0.05356 0.05629 0.80845 0.0
O23 O 0.95186 0.75218 0.65501 0.0
O24 O 0.97624 0.1761 0.06171 0.0
O25 O 0.13326 0.37942 1.01998 0.0
O26 O 0.26301 0.20206 0.86231 0.0
O27 O 0.2951 0.24308 0.23568 0.0
O28 O 1.05106 0.87051 0.27759 0.0
O29 O 0.15237 0.17436 0.43122 0.0
O30 O 0.12826 0.75029 1.02474 0.0
O31 O 0.9712 0.5469 0.06588 0.0
H32 H 0.76192 0.90051 0.39467 0.0
H33 H 0.65178 0.03419 0.39517 0.0
H34 H 0.53761 0.78444 0.70124 0.0
H35 H 0.64521 0.64129 0.70617 0.0
H36 H 0.29689 0.87073 0.83766 0.0
H37 H 0.40531 0.72918 0.84556 0.0
H38 H 0.61114 0.30116 0.25325 0.0
H39 H 0.50105 0.43741 0.24981 0.0
loop_
_geom_bond_atom_site_label_1
_geom_bond_atom_site_label_2
_geom_bond_distance
_geom_bond_site_symmetry_2
_ccdc_geom_bond_type
Tb0 C2 2.809 . S
Tb0 O20 2.484 1_556 S
Tb0 O21 2.440 . S
Tb0 O22 2.658 1_655 S
Tb0 O23 2.409 . S
Tb0 O24 2.378 1_565 S
Tb0 O28 2.325 1_566 S
Tb0 O31 2.341 . S
Tb1 C11 2.809 . S
Tb1 O22 2.325 1_544 S
Tb1 O25 2.341 . S
Tb1 O26 2.484 1_554 S
Tb1 O27 2.440 . S
Tb1 O28 2.658 1_455 S
Tb1 O29 2.409 . S
Tb1 O30 2.378 1_545 S
C2 Tb0 2.809 . S
C2 C3 1.514 . S
C2 O20 1.248 1_556 S
C2 O21 1.266 . S
C3 C2 1.514 . S
C3 C4 1.359 1_566 S
C3 C8 1.348 . S
C4 C3 1.359 1_544 S
C4 C5 1.380 . S
C4 H32 0.929 . S
C5 C4 1.380 . S
C5 C6 1.347 1_544 S
C5 H33 0.931 . S
C6 C5 1.347 1_566 S
C6 C7 1.369 . S
C7 C6 1.369 . S
C7 C8 1.408 . S
C7 H34 0.930 . S
C8 C3 1.348 . S
C8 C7 1.408 . S
C8 H35 0.930 . S
C9 O22 1.281 1_655 S
C9 O23 1.254 . S
C10 O24 1.236 1_455 S
C10 O25 1.266 1_556 S
C11 Tb1 2.809 . S
C11 C12 1.514 . S
C11 O26 1.248 1_554 S
C11 O27 1.266 . S
C12 C11 1.514 . S
C12 C13 1.359 1_544 S
C12 C17 1.348 . S
C13 C12 1.359 1_566 S
C13 C14 1.380 . S
C13 H36 0.929 . S
C14 C13 1.380 . S
C14 C15 1.347 1_566 S
C14 H37 0.931 . S
C15 C14 1.347 1_544 S
C15 C16 1.369 . S
C16 C15 1.369 . S
C16 C17 1.408 . S
C16 H38 0.930 . S
C17 C12 1.348 . S
C17 C16 1.408 . S
C17 H39 0.930 . S
C18 O28 1.281 1_455 S
C18 O29 1.254 . S
C19 O30 1.236 1_655 S
C19 O31 1.266 1_554 S
O20 Tb0 2.484 1_554 S
O20 C2 1.248 1_554 S
O21 Tb0 2.440 . S
O21 C2 1.266 . S
O22 Tb0 2.658 1_455 S
O22 Tb1 2.325 1_566 S
O22 C9 1.281 1_455 S
O23 Tb0 2.409 . S
O23 C9 1.254 . S
O24 Tb0 2.378 1_545 S
O24 C10 1.236 1_655 S
O25 Tb1 2.341 . S
O25 C10 1.266 1_554 S
O26 Tb1 2.484 1_556 S
O26 C11 1.248 1_556 S
O27 Tb1 2.440 . S
O27 C11 1.266 . S
O28 Tb0 2.325 1_544 S
O28 Tb1 2.658 1_655 S
O28 C18 1.281 1_655 S
O29 Tb1 2.409 . S
O29 C18 1.254 . S
O30 Tb1 2.378 1_565 S
O30 C19 1.236 1_455 S
O31 Tb0 2.341 . S
O31 C19 1.266 1_556 S
H32 C4 0.929 . S
H33 C5 0.931 . S
H34 C7 0.930 . S
H35 C8 0.930 . S
H36 C13 0.929 . S
H37 C14 0.931 . S
H38 C16 0.930 . S
H39 C17 0.930 . S
C18 C9 1.500 1_445 S
C15 C6 1.500 1_544 S
C19 C10 1.500 1_654 S
