# Generated by pormake.
# Topology bnn, (5)-cn, num edge types: 1
# Building blocks:
#     Node 0, Type 0, BuildingBlock: XOMCOT_clean_sbu_1, # of connection points: 5
#     Node 1, Type 0, BuildingBlock: XOMCOT_clean_sbu_1, # of connection points: 5
#     Edge 2, Type (0, 0), BuildingBlock: TEMPAE_clean_linker_10, # of connection points: 2
#     Edge 3, Type (0, 0), BuildingBlock: TEMPAE_clean_linker_10, # of connection points: 2
#     Edge 4, Type (0, 0), BuildingBlock: TEMPAE_clean_linker_10, # of connection points: 2
#     Edge 5, Type (0, 0), BuildingBlock: TEMPAE_clean_linker_10, # of connection points: 2
#     Edge 6, Type (0, 0), BuildingBlock: TEMPAE_clean_linker_10, # of connection points: 2
# Relax obj value: 0.039
# Max RMSD: 0.098
# Mean RMSD: 0.098
data_MOF--net-bnn--node1-XOMCOT_clean_sbu_1--edge1-TEMPAE_clean_linker_10
_symmetry_space_group_name_H-M    P1
_symmetry_Int_Tables_number       1
_symmetry_cell_setting            triclinic
loop_
_symmetry_equiv_pos_as_xyz
'x, y, z'
_cell_length_a     30.421871
_cell_length_b     27.687616
_cell_length_c     17.705781
_cell_angle_alpha  97.013686
_cell_angle_beta   90.762501
_cell_angle_gamma 123.97227
loop_
_atom_site_label
_atom_site_type_symbol
_atom_site_fract_x
_atom_site_fract_y
_atom_site_fract_z
_atom_type_partial_charge
C0 C 0.29345 0.61095 0.96639 0.0
C1 C 0.2855 0.6033 0.88804 0.0
N2 N 0.2978 0.65446 0.86775 0.0
N3 N 0.31162 0.66705 0.99542 0.0
C4 C 0.31304 0.69233 0.93386 0.0
H5 H 0.28857 0.57848 1.00005 0.0
Co6 Co 0.33347 0.69882 0.09941 0.0
C7 C 0.42532 0.82052 0.07346 0.0
O8 O 0.46029 0.80813 0.08585 0.0
N9 N 0.35448 0.73072 0.20582 0.0
C10 C 0.40457 0.77833 0.31679 0.0
C11 C 0.40461 0.77041 0.23904 0.0
C12 C 0.32463 0.71519 0.26604 0.0
N13 N 0.35421 0.74357 0.33443 0.0
O14 O 0.27037 0.69845 0.10541 0.0
H15 H 0.44013 0.7894 0.21027 0.0
H16 H 0.28221 0.68239 0.26017 0.0
O17 O 0.37539 0.78121 0.07478 0.0
C18 C 0.23543 0.64533 0.11476 0.0
O19 O 0.25219 0.61198 0.12694 0.0
N20 N 0.38989 0.68824 0.09265 0.0
C21 C 0.44371 0.63319 0.07001 0.0
C22 C 0.44347 0.66644 1.01651 0.0
C23 C 0.416 0.69326 0.02857 0.0
C24 C 0.39038 0.65627 0.14528 0.0
C25 C 0.41795 0.62963 0.13598 0.0
H26 H 0.41319 0.71523 0.98415 0.0
H27 H 0.36595 0.64725 0.19225 0.0
H28 H 0.32752 0.73826 0.93687 0.0
H29 H 0.27295 0.56366 0.84876 0.0
H30 H 0.4398 0.80489 0.35713 0.0
H31 H 0.4626 0.66977 0.9644 0.0
H32 H 0.41586 0.60292 0.17752 0.0
C33 C 0.73184 0.44503 0.10673 0.0
C34 C 0.737 0.45032 0.18511 0.0
N35 N 0.69464 0.40136 0.20558 0.0
N36 N 0.68696 0.39244 0.07812 0.0
C37 C 0.66466 0.36717 0.1399 0.0
H38 H 0.75959 0.47695 0.07261 0.0
Co39 Co 0.66488 0.36264 0.97494 0.0
C40 C 0.62389 0.23656 0.96142 0.0
O41 O 0.65357 0.24468 0.90463 0.0
N42 N 0.64097 0.33283 0.86967 0.0
C43 C 0.58456 0.27792 0.76519 0.0
C44 C 0.59086 0.28638 0.84368 0.0
C45 C 0.66342 0.35342 0.80528 0.0
N46 N 0.63023 0.32038 0.74153 0.0
O47 O 0.60446 0.36615 0.9866 0.0
H48 H 0.5601 0.2609 0.87976 0.0
H49 H 0.70257 0.39257 0.8038 0.0
O50 O 0.62536 0.2806 0.99747 0.0
C51 C 0.62013 0.41698 0.9713 0.0
O52 O 0.66835 0.44972 0.94994 0.0
N53 N 0.72899 0.36806 0.96513 0.0
C54 C 0.83805 0.41738 0.98759 0.0
C55 C 0.80153 0.36791 1.02076 0.0
C56 C 0.7469 0.34378 1.0089 0.0
C57 C 0.76449 0.41627 0.93309 0.0
C58 C 0.81882 0.44035 0.94137 0.0
H59 H 0.72006 0.30986 0.04134 0.0
H60 H 0.75177 0.44102 0.90922 0.0
H61 H 0.62798 0.32393 0.13691 0.0
H62 H 0.76928 0.48716 0.22412 0.0
H63 H 0.54863 0.24491 0.72848 0.0
H64 H 0.81533 0.35026 0.0589 0.0
H65 H 0.84601 0.48023 0.918 0.0
C66 C 0.49898 0.59829 0.11161 0.0
C67 C 0.46644 0.59798 0.05453 0.0
C68 C 0.5196 0.56394 0.09832 0.0
C69 C 0.50681 0.52792 0.0265 0.0
C70 C 0.47289 0.52637 0.96929 0.0
C71 C 0.45339 0.56175 0.98383 0.0
C72 C 0.55637 0.5676 0.16031 0.0
C73 C 0.45799 0.48814 0.89228 0.0
C74 C 0.6091 0.49859 0.96324 0.0
C75 C 0.58811 0.44205 0.98134 0.0
C76 C 0.5826 0.52639 0.9768 0.0
C77 C 0.53338 0.49684 1.00868 0.0
C78 C 0.51097 0.43903 0.02518 0.0
C79 C 0.53877 0.41226 1.01154 0.0
C80 C 0.60807 0.58813 0.95863 0.0
C81 C 0.4582 0.40604 0.05845 0.0
H82 H 0.50904 0.62625 0.16632 0.0
H83 H 0.4273 0.56051 0.94016 0.0
H84 H 0.54194 0.52284 0.17213 0.0
H85 H 0.59669 0.58699 0.14085 0.0
H86 H 0.55981 0.59496 0.21442 0.0
H87 H 0.42774 0.48815 0.85645 0.0
H88 H 0.49394 0.50419 0.8611 0.0
H89 H 0.44214 0.44208 0.89967 0.0
H90 H 0.64709 0.52201 0.93951 0.0
H91 H 0.52233 0.36859 0.02557 0.0
H92 H 0.61593 0.61882 1.0116 0.0
H93 H 0.58062 0.58934 0.91827 0.0
H94 H 0.64622 0.60461 0.933 0.0
H95 H 0.4615 0.42962 0.11583 0.0
H96 H 0.44474 0.36027 0.06398 0.0
H97 H 0.42728 0.40435 0.02198 0.0
C98 C 0.91663 0.47542 0.08551 0.0
C99 C 0.8961 0.45073 1.00909 0.0
C100 C 0.97185 0.5125 0.1061 0.0
C101 C 1.00728 0.524 0.04904 0.0
C102 C 0.98656 0.49884 0.97173 0.0
C103 C 0.93116 0.46313 0.95257 0.0
C104 C 0.9923 0.53926 0.18887 0.0
C105 C 0.02287 0.50865 0.90946 0.0
C106 C 0.1554 0.64837 0.08568 0.0
C107 C 0.17712 0.61755 0.1042 0.0
C108 C 0.09985 0.61899 0.06966 0.0
C109 C 0.06571 0.55743 0.07096 0.0
C110 C 0.08754 0.52664 0.09102 0.0
C111 C 0.14261 0.55706 0.10806 0.0
C112 C 0.07776 0.65346 0.05004 0.0
C113 C 0.05288 0.46094 0.09215 0.0
H114 H 0.88937 0.46693 0.1289 0.0
H115 H 0.9151 0.44451 0.89338 0.0
H116 H 0.014 0.52173 0.21151 0.0
H117 H 0.02095 0.58776 0.19394 0.0
H118 H 0.95967 0.52975 0.22519 0.0
H119 H 1.00049 0.48731 0.85196 0.0
H120 H 0.05144 0.55652 0.9087 0.0
H121 H 0.04653 0.49064 0.9211 0.0
H122 H 0.18171 0.69501 0.08262 0.0
H123 H 0.15869 0.53255 0.12243 0.0
H124 H 0.04583 0.64571 0.08683 0.0
H125 H 0.05958 0.63811 0.98993 0.0
H126 H 0.10893 0.70158 0.05711 0.0
H127 H 0.02216 0.45036 0.13238 0.0
H128 H 0.07617 0.44362 0.10934 0.0
H129 H 0.03172 0.43734 0.03454 0.0
C130 C 0.49845 0.9273 0.09385 0.0
C131 C 0.44604 0.8822 0.06396 0.0
C132 C 0.52199 0.98553 0.0813 0.0
C133 C 0.49274 0.99959 0.03702 0.0
C134 C 0.43895 0.95487 1.00921 0.0
C135 C 0.41604 0.8966 0.02339 0.0
C136 C 0.57921 1.03151 0.11268 0.0
C137 C 0.40643 0.96801 0.96169 0.0
C138 C 0.55796 0.1649 0.04332 0.0
C139 C 0.58745 0.17585 0.97971 0.0
C140 C 0.52478 0.10726 0.06096 0.0
C141 C 0.52091 0.05949 1.01382 0.0
C142 C 0.54922 0.07021 0.94822 0.0
C143 C 0.58205 0.12797 0.93218 0.0
C144 C 0.49534 0.09779 0.13145 0.0
C145 C 0.54652 1.02088 0.8963 0.0
H146 H 0.52173 0.91692 0.12649 0.0
H147 H 0.37553 0.86205 1.00027 0.0
H148 H 0.60459 0.04606 0.06477 0.0
H149 H 0.58298 0.07088 0.14467 0.0
H150 H 0.59494 1.01462 0.1513 0.0
H151 H 0.36377 0.93066 0.95195 0.0
H152 H 0.40948 1.00798 0.98984 0.0
H153 H 0.42234 0.97717 0.90535 0.0
H154 H 0.56153 0.20144 0.08014 0.0
H155 H 0.60408 0.13557 0.88237 0.0
H156 H 0.51239 0.0852 0.1746 0.0
H157 H 0.45278 0.06106 0.11735 0.0
H158 H 0.49788 0.13798 0.15748 0.0
H159 H 0.56517 1.00334 0.92767 0.0
H160 H 0.56729 0.03561 0.84425 0.0
H161 H 0.50444 0.98403 0.87843 0.0
C162 C 0.3241 0.6487 0.73809 0.0
C163 C 0.30088 0.66758 0.79103 0.0
C164 C 0.32859 0.66181 0.66335 0.0
C165 C 0.30801 0.69325 0.64016 0.0
C166 C 0.28335 0.71128 0.69302 0.0
C167 C 0.28088 0.69905 0.76836 0.0
C168 C 0.3566 0.64323 0.60979 0.0
C169 C 0.2596 0.74338 0.66996 0.0
C170 C 0.37176 0.77558 0.47456 0.0
C171 C 0.3381 0.73405 0.4109 0.0
C172 C 0.36142 0.76374 0.54947 0.0
C173 C 0.31521 0.7097 0.56183 0.0
C174 C 0.27886 0.66941 0.49847 0.0
C175 C 0.29095 0.68173 0.42376 0.0
C176 C 0.40168 0.80775 0.61509 0.0
C177 C 0.22833 0.61202 0.50934 0.0
H178 H 0.34006 0.62494 0.75605 0.0
H179 H 0.26255 0.71314 0.80934 0.0
H180 H 0.3295 0.61431 0.55782 0.0
H181 H 0.39153 0.68264 0.59104 0.0
H182 H 0.37052 0.61928 0.63682 0.0
H183 H 0.23878 0.75092 0.71618 0.0
H184 H 0.29135 0.78667 0.65502 0.0
H185 H 0.2309 0.71776 0.61825 0.0
H186 H 0.40735 0.81702 0.46602 0.0
H187 H 0.26437 0.64922 0.37566 0.0
H188 H 0.4198 0.788 0.64246 0.0
H189 H 0.38201 0.81894 0.65936 0.0
H190 H 0.43406 0.84914 0.59631 0.0
H191 H 0.23826 0.58186 0.52704 0.0
H192 H 0.20067 0.58977 0.45608 0.0
H193 H 0.20751 0.61964 0.55538 0.0
C194 C 0.63386 0.36355 0.30585 0.0
C195 C 0.68474 0.38758 0.28167 0.0
C196 C 0.62422 0.35194 0.38103 0.0
C197 C 0.66619 0.36305 0.43218 0.0
C198 C 0.71735 0.38589 0.40716 0.0
C199 C 0.72618 0.39871 0.33243 0.0
C200 C 0.56951 0.32903 0.40618 0.0
C201 C 0.7627 0.3967 0.45926 0.0
C202 C 0.6601 0.38738 0.64641 0.0
C203 C 0.63984 0.33118 0.66436 0.0
C204 C 0.66801 0.39813 0.57075 0.0
C205 C 0.65693 0.3519 0.51234 0.0
C206 C 0.63732 0.29522 0.53067 0.0
C207 C 0.62814 0.28532 0.60648 0.0
C208 C 0.68756 0.4587 0.55319 0.0
C209 C 0.62659 0.24532 0.47044 0.0
H210 H 0.60209 0.35545 0.26639 0.0
H211 H 0.76532 0.41665 0.31301 0.0
H212 H 0.55273 0.28601 0.426 0.0
H213 H 0.57235 0.36004 0.45523 0.0
H214 H 0.54141 0.3233 0.35958 0.0
H215 H 0.7992 0.41164 0.42966 0.0
H216 H 0.77244 0.43069 0.50907 0.0
H217 H 0.75075 0.35574 0.4818 0.0
H218 H 0.66846 0.42244 0.69153 0.0
H219 H 0.61274 0.24203 0.62112 0.0
H220 H 0.65912 0.45536 0.50948 0.0
H221 H 0.72644 0.47825 0.52899 0.0
H222 H 0.6924 0.48912 0.60475 0.0
H223 H 0.5957 0.23536 0.42549 0.0
H224 H 0.61299 0.20447 0.49465 0.0
H225 H 0.66327 0.25848 0.44227 0.0
loop_
_geom_bond_atom_site_label_1
_geom_bond_atom_site_label_2
_geom_bond_distance
_geom_bond_site_symmetry_2
_ccdc_geom_bond_type
C0 C1 1.351 . S
C0 N3 1.368 . S
C0 H5 0.931 . S
C1 C0 1.351 . S
C1 N2 1.373 . S
C1 H29 0.930 . S
N2 C1 1.373 . S
N2 C4 1.340 . S
N3 C0 1.368 . S
N3 C4 1.321 . S
N3 Co6 2.135 1_556 S
C4 N2 1.340 . S
C4 N3 1.321 . S
C4 H28 0.930 . S
H5 C0 0.931 . S
Co6 N3 2.135 1_554 S
Co6 N9 2.121 . S
Co6 O14 2.055 . S
Co6 O17 2.039 . S
Co6 N20 2.140 . S
C7 O8 1.227 1_554 S
C7 O17 1.265 . S
O8 C7 1.227 1_556 S
N9 Co6 2.121 . S
N9 C11 1.375 . S
N9 C12 1.313 . S
C10 C11 1.338 . S
C10 N13 1.377 . S
C10 H30 0.930 . S
C11 N9 1.375 . S
C11 C10 1.338 . S
C11 H15 0.931 . S
C12 N9 1.313 . S
C12 N13 1.344 . S
C12 H16 0.930 . S
N13 C10 1.377 . S
N13 C12 1.344 . S
O14 Co6 2.055 . S
O14 C18 1.253 . S
H15 C11 0.931 . S
H16 C12 0.930 . S
O17 Co6 2.039 . S
O17 C7 1.265 . S
C18 O14 1.253 . S
C18 O19 1.227 . S
O19 C18 1.227 . S
N20 Co6 2.140 . S
N20 C23 1.346 1_554 S
N20 C24 1.345 . S
C21 C22 1.387 . S
C21 C25 1.391 1_556 S
C22 C21 1.387 . S
C22 C23 1.369 . S
C22 H31 0.929 . S
C23 N20 1.346 1_556 S
C23 C22 1.369 . S
C23 H26 0.928 . S
C24 N20 1.345 . S
C24 C25 1.371 . S
C24 H27 0.931 . S
C25 C21 1.391 1_554 S
C25 C24 1.371 . S
C25 H32 0.930 . S
H26 C23 0.928 . S
H27 C24 0.931 . S
H28 C4 0.930 . S
H29 C1 0.930 . S
H30 C10 0.930 . S
H31 C22 0.929 . S
H32 C25 0.930 . S
C33 C34 1.351 . S
C33 N36 1.368 . S
C33 H38 0.931 . S
C34 C33 1.351 . S
C34 N35 1.373 . S
C34 H62 0.930 . S
N35 C34 1.373 . S
N35 C37 1.340 . S
N36 C33 1.368 . S
N36 C37 1.321 . S
N36 Co39 2.135 . S
C37 N35 1.340 . S
C37 N36 1.321 . S
C37 H61 0.930 . S
H38 C33 0.931 . S
Co39 N36 2.135 . S
Co39 N42 2.121 1_554 S
Co39 O47 2.055 . S
Co39 O50 2.039 . S
Co39 N53 2.140 . S
C40 O41 1.227 . S
C40 O50 1.265 . S
O41 C40 1.227 . S
N42 Co39 2.121 1_556 S
N42 C44 1.375 . S
N42 C45 1.313 . S
C43 C44 1.338 . S
C43 N46 1.377 . S
C43 H63 0.930 . S
C44 N42 1.375 . S
C44 C43 1.338 . S
C44 H48 0.931 . S
C45 N42 1.313 . S
C45 N46 1.344 . S
C45 H49 0.930 . S
N46 C43 1.377 . S
N46 C45 1.344 . S
O47 Co39 2.055 . S
O47 C51 1.253 . S
H48 C44 0.931 . S
H49 C45 0.930 . S
O50 Co39 2.039 . S
O50 C40 1.265 . S
C51 O47 1.253 . S
C51 O52 1.227 1_554 S
O52 C51 1.227 1_556 S
N53 Co39 2.140 . S
N53 C56 1.346 . S
N53 C57 1.345 1_554 S
C54 C55 1.387 . S
C54 C58 1.391 1_554 S
C55 C54 1.387 . S
C55 C56 1.369 . S
C55 H64 0.929 . S
C56 N53 1.346 . S
C56 C55 1.369 . S
C56 H59 0.928 . S
C57 N53 1.345 1_556 S
C57 C58 1.371 . S
C57 H60 0.931 . S
C58 C54 1.391 1_556 S
C58 C57 1.371 . S
C58 H65 0.930 . S
H59 C56 0.928 . S
H60 C57 0.931 . S
H61 C37 0.930 . S
H62 C34 0.930 . S
H63 C43 0.930 . S
H64 C55 0.929 . S
H65 C58 0.930 . S
C66 C67 1.385 1_554 S
C66 C68 1.394 . S
C66 H82 0.931 . S
C67 C66 1.385 1_556 S
C67 C71 1.381 . S
C68 C66 1.394 . S
C68 C69 1.369 . S
C68 C72 1.531 . S
C69 C68 1.369 . S
C69 C70 1.410 1_554 S
C69 C77 1.503 . S
C70 C69 1.410 1_556 S
C70 C71 1.392 . S
C70 C73 1.511 . S
C71 C67 1.381 . S
C71 C70 1.392 . S
C71 H83 0.929 . S
C72 C68 1.531 . S
C72 H84 0.960 . S
C72 H85 0.962 . S
C72 H86 0.960 . S
C73 C70 1.511 . S
C73 H87 0.961 . S
C73 H88 0.961 . S
C73 H89 0.961 . S
C74 C75 1.368 1_556 S
C74 C76 1.363 . S
C74 H90 0.931 . S
C75 C74 1.368 1_554 S
C75 C79 1.411 . S
C76 C74 1.363 . S
C76 C77 1.370 1_556 S
C76 C80 1.524 . S
C77 C69 1.503 . S
C77 C76 1.370 1_554 S
C77 C78 1.403 . S
C78 C77 1.403 . S
C78 C79 1.404 . S
C78 C81 1.539 . S
C79 C75 1.411 . S
C79 C78 1.404 . S
C79 H91 0.930 . S
C80 C76 1.524 . S
C80 H92 0.956 . S
C80 H93 0.961 . S
C80 H94 0.961 . S
C81 C78 1.539 . S
C81 H95 0.958 . S
C81 H96 0.961 . S
C81 H97 0.960 . S
H82 C66 0.931 . S
H83 C71 0.929 . S
H84 C72 0.960 . S
H85 C72 0.962 . S
H86 C72 0.960 . S
H87 C73 0.961 . S
H88 C73 0.961 . S
H89 C73 0.961 . S
H90 C74 0.931 . S
H91 C79 0.930 . S
H92 C80 0.956 . S
H93 C80 0.961 . S
H94 C80 0.961 . S
H95 C81 0.958 . S
H96 C81 0.961 . S
H97 C81 0.960 . S
C98 C99 1.391 . S
C98 C100 1.394 . S
C98 H114 0.931 . S
C99 C98 1.391 . S
C99 C103 1.376 . S
C100 C98 1.394 . S
C100 C101 1.369 . S
C100 C104 1.531 1_655 S
C101 C100 1.369 . S
C101 C102 1.410 . S
C101 C109 1.503 1_655 S
C102 C101 1.410 . S
C102 C103 1.392 . S
C102 C105 1.511 1_554 S
C103 C99 1.376 . S
C103 C102 1.392 . S
C103 H115 0.929 1_554 S
C104 C100 1.531 1_455 S
C104 H116 0.960 . S
C104 H117 0.962 . S
C104 H118 0.960 1_455 S
C105 C102 1.511 1_556 S
C105 H119 0.961 . S
C105 H120 0.961 1_655 S
C105 H121 0.961 1_556 S
C106 C107 1.370 1_556 S
C106 C108 1.363 . S
C106 H122 0.931 . S
C107 C106 1.370 1_554 S
C107 C111 1.408 . S
C108 C106 1.363 . S
C108 C109 1.370 1_556 S
C108 C112 1.524 . S
C109 C101 1.503 1_455 S
C109 C108 1.370 1_554 S
C109 C110 1.403 . S
C110 C109 1.403 . S
C110 C111 1.404 . S
C110 C113 1.539 . S
C111 C107 1.408 . S
C111 C110 1.404 . S
C111 H123 0.930 . S
C112 C108 1.524 . S
C112 H124 0.956 . S
C112 H125 0.961 . S
C112 H126 0.961 . S
C113 C110 1.539 . S
C113 H127 0.958 . S
C113 H128 0.961 . S
C113 H129 0.960 . S
H114 C98 0.931 . S
H115 C103 0.929 1_556 S
H116 C104 0.960 . S
H117 C104 0.962 . S
H118 C104 0.960 1_655 S
H119 C105 0.961 . S
H120 C105 0.961 1_455 S
H121 C105 0.961 1_554 S
H122 C106 0.931 . S
H123 C111 0.930 . S
H124 C112 0.956 . S
H125 C112 0.961 . S
H126 C112 0.961 . S
H127 C113 0.958 . S
H128 C113 0.961 . S
H129 C113 0.960 . S
C130 C131 1.391 . S
C130 C132 1.394 . S
C130 H146 0.931 . S
C131 C130 1.391 . S
C131 C135 1.376 1_554 S
C132 C130 1.394 . S
C132 C133 1.369 . S
C132 C136 1.531 . S
C133 C132 1.369 . S
C133 C134 1.410 1_554 S
C133 C141 1.503 1_565 S
C134 C133 1.410 1_556 S
C134 C135 1.392 . S
C134 C137 1.511 . S
C135 C131 1.376 1_556 S
C135 C134 1.392 . S
C135 H147 0.929 . S
C136 C132 1.531 . S
C136 H148 0.960 1_565 S
C136 H149 0.962 . S
C136 H150 0.960 . S
C137 C134 1.511 . S
C137 H151 0.961 . S
C137 H152 0.961 . S
C137 H153 0.961 . S
C138 C139 1.370 . S
C138 C140 1.363 . S
C138 H154 0.931 . S
C139 C138 1.370 . S
C139 C143 1.408 1_554 S
C140 C138 1.363 . S
C140 C141 1.370 . S
C140 C144 1.524 . S
C141 C133 1.503 1_545 S
C141 C140 1.370 . S
C141 C142 1.403 1_554 S
C142 C141 1.403 1_556 S
C142 C143 1.404 . S
C142 C145 1.539 . S
C143 C139 1.408 1_556 S
C143 C142 1.404 . S
C143 H155 0.930 . S
C144 C140 1.524 . S
C144 H156 0.956 . S
C144 H157 0.961 1_545 S
C144 H158 0.961 . S
C145 C142 1.539 . S
C145 H159 0.958 . S
C145 H160 0.961 . S
C145 H161 0.960 1_545 S
H146 C130 0.931 . S
H147 C135 0.929 . S
H148 C136 0.960 1_545 S
H149 C136 0.962 . S
H150 C136 0.960 . S
H151 C137 0.961 . S
H152 C137 0.961 . S
H153 C137 0.961 . S
H154 C138 0.931 . S
H155 C143 0.930 . S
H156 C144 0.956 . S
H157 C144 0.961 1_565 S
H158 C144 0.961 . S
H159 C145 0.958 . S
H160 C145 0.961 . S
H161 C145 0.960 1_565 S
C162 C163 1.391 . S
C162 C164 1.394 . S
C162 H178 0.931 . S
C163 C162 1.391 . S
C163 C167 1.376 . S
C164 C162 1.394 . S
C164 C165 1.369 . S
C164 C168 1.531 . S
C165 C164 1.369 . S
C165 C166 1.410 . S
C165 C173 1.503 . S
C166 C165 1.410 . S
C166 C167 1.392 . S
C166 C169 1.511 . S
C167 C163 1.376 . S
C167 C166 1.392 . S
C167 H179 0.929 . S
C168 C164 1.531 . S
C168 H180 0.960 . S
C168 H181 0.962 . S
C168 H182 0.960 . S
C169 C166 1.511 . S
C169 H183 0.961 . S
C169 H184 0.961 . S
C169 H185 0.961 . S
C170 C171 1.370 . S
C170 C172 1.363 . S
C170 H186 0.931 . S
C171 C170 1.370 . S
C171 C175 1.408 . S
C172 C170 1.363 . S
C172 C173 1.370 . S
C172 C176 1.524 . S
C173 C165 1.503 . S
C173 C172 1.370 . S
C173 C174 1.403 . S
C174 C173 1.403 . S
C174 C175 1.404 . S
C174 C177 1.539 . S
C175 C171 1.408 . S
C175 C174 1.404 . S
C175 H187 0.930 . S
C176 C172 1.524 . S
C176 H188 0.956 . S
C176 H189 0.961 . S
C176 H190 0.961 . S
C177 C174 1.539 . S
C177 H191 0.958 . S
C177 H192 0.961 . S
C177 H193 0.960 . S
H178 C162 0.931 . S
H179 C167 0.929 . S
H180 C168 0.960 . S
H181 C168 0.962 . S
H182 C168 0.960 . S
H183 C169 0.961 . S
H184 C169 0.961 . S
H185 C169 0.961 . S
H186 C170 0.931 . S
H187 C175 0.930 . S
H188 C176 0.956 . S
H189 C176 0.961 . S
H190 C176 0.961 . S
H191 C177 0.958 . S
H192 C177 0.961 . S
H193 C177 0.960 . S
C194 C195 1.391 . S
C194 C196 1.394 . S
C194 H210 0.931 . S
C195 C194 1.391 . S
C195 C199 1.376 . S
C196 C194 1.394 . S
C196 C197 1.369 . S
C196 C200 1.531 . S
C197 C196 1.369 . S
C197 C198 1.410 . S
C197 C205 1.503 . S
C198 C197 1.410 . S
C198 C199 1.392 . S
C198 C201 1.511 . S
C199 C195 1.376 . S
C199 C198 1.392 . S
C199 H211 0.929 . S
C200 C196 1.531 . S
C200 H212 0.960 . S
C200 H213 0.962 . S
C200 H214 0.960 . S
C201 C198 1.511 . S
C201 H215 0.961 . S
C201 H216 0.961 . S
C201 H217 0.961 . S
C202 C203 1.370 . S
C202 C204 1.363 . S
C202 H218 0.931 . S
C203 C202 1.370 . S
C203 C207 1.408 . S
C204 C202 1.363 . S
C204 C205 1.370 . S
C204 C208 1.524 . S
C205 C197 1.503 . S
C205 C204 1.370 . S
C205 C206 1.403 . S
C206 C205 1.403 . S
C206 C207 1.404 . S
C206 C209 1.539 . S
C207 C203 1.408 . S
C207 C206 1.404 . S
C207 H219 0.930 . S
C208 C204 1.524 . S
C208 H220 0.956 . S
C208 H221 0.961 . S
C208 H222 0.961 . S
C209 C206 1.539 . S
C209 H223 0.958 . S
C209 H224 0.961 . S
C209 H225 0.960 . S
H210 C194 0.931 . S
H211 C199 0.929 . S
H212 C200 0.960 . S
H213 C200 0.962 . S
H214 C200 0.960 . S
H215 C201 0.961 . S
H216 C201 0.961 . S
H217 C201 0.961 . S
H218 C202 0.931 . S
H219 C207 0.930 . S
H220 C208 0.956 . S
H221 C208 0.961 . S
H222 C208 0.961 . S
H223 C209 0.958 . S
H224 C209 0.961 . S
H225 C209 0.960 . S
C67 C21 1.500 . S
C75 C51 1.506 . S
C99 C54 1.506 . S
C107 C18 1.507 . S
C131 C7 1.486 . S
C139 C40 1.497 . S
C163 N2 1.422 . S
C171 N13 1.469 . S
C195 N35 1.480 . S
C203 N46 1.446 . S
