# Generated by pormake.
# Topology ilc, (8)-cn, num edge types: 1
# Building blocks:
#     Node 0, Type 0, BuildingBlock: XADDAJ01_clean_sbu_3, # of connection points: 8
#     Node 1, Type 0, BuildingBlock: XADDAJ01_clean_sbu_3, # of connection points: 8
#     Node 2, Type 0, BuildingBlock: XADDAJ01_clean_sbu_3, # of connection points: 8
#     Edge 3, Type (0, 0), BuildingBlock: AJUNOK_clean_linker_0, # of connection points: 2
#     Edge 4, Type (0, 0), BuildingBlock: AJUNOK_clean_linker_0, # of connection points: 2
#     Edge 5, Type (0, 0), BuildingBlock: AJUNOK_clean_linker_0, # of connection points: 2
#     Edge 6, Type (0, 0), BuildingBlock: AJUNOK_clean_linker_0, # of connection points: 2
#     Edge 7, Type (0, 0), BuildingBlock: AJUNOK_clean_linker_0, # of connection points: 2
#     Edge 8, Type (0, 0), BuildingBlock: AJUNOK_clean_linker_0, # of connection points: 2
#     Edge 9, Type (0, 0), BuildingBlock: AJUNOK_clean_linker_0, # of connection points: 2
#     Edge 10, Type (0, 0), BuildingBlock: AJUNOK_clean_linker_0, # of connection points: 2
#     Edge 11, Type (0, 0), BuildingBlock: AJUNOK_clean_linker_0, # of connection points: 2
#     Edge 12, Type (0, 0), BuildingBlock: AJUNOK_clean_linker_0, # of connection points: 2
#     Edge 13, Type (0, 0), BuildingBlock: AJUNOK_clean_linker_0, # of connection points: 2
#     Edge 14, Type (0, 0), BuildingBlock: AJUNOK_clean_linker_0, # of connection points: 2
# Relax obj value: 0.196
# Max RMSD: 0.207
# Mean RMSD: 0.207
data_MOF--net-ilc--node1-XADDAJ01_clean_sbu_3--edge1-AJUNOK_clean_linker_0
_symmetry_space_group_name_H-M    P1
_symmetry_Int_Tables_number       1
_symmetry_cell_setting            triclinic
loop_
_symmetry_equiv_pos_as_xyz
'x, y, z'
_cell_length_a     18.491926
_cell_length_b     24.114838
_cell_length_c     14.643986
_cell_angle_alpha  101.94798
_cell_angle_beta   73.992599
_cell_angle_gamma 142.28848
loop_
_atom_site_label
_atom_site_type_symbol
_atom_site_fract_x
_atom_site_fract_y
_atom_site_fract_z
_atom_type_partial_charge
C0 C 0.17396 0.03611 0.20173 0.0
C1 C 0.13068 0.05009 0.28439 0.0
C2 C 0.11289 0.02392 0.37144 0.0
C3 C 0.14282 0.98788 0.37887 0.0
C4 C 0.18253 0.97029 0.29794 0.0
C5 C 0.19682 0.99309 0.20747 0.0
O6 O 0.92107 0.01566 0.17337 0.0
Tb7 Tb 0.09944 0.10139 0.08649 0.0
Tb8 Tb 0.87271 0.91137 0.98089 0.0
O9 O 0.15286 0.20668 0.18672 0.0
O10 O 0.83125 0.87838 0.12828 0.0
O11 O 0.2453 0.14381 0.10738 0.0
C12 C 0.79272 0.9563 0.96221 0.0
O13 O 0.07565 1.00079 0.0877 0.0
O14 O 0.04876 0.99285 0.89121 0.0
O15 O 0.14458 0.13214 0.9369 0.0
C16 C 0.1806 0.05941 0.11254 0.0
C17 C 0.85543 0.77863 0.86864 0.0
O18 O 0.9275 0.81149 0.9242 0.0
C19 C 0.84096 0.92976 0.19346 0.0
C20 C 0.13481 0.08005 0.87296 0.0
O21 O 0.81013 0.80338 0.8822 0.0
C22 C 0.78856 0.97522 0.87612 0.0
C23 C 0.77068 0.03868 0.78762 0.0
C24 C 0.76879 0.02115 0.87546 0.0
C25 C 0.81649 0.95276 0.79037 0.0
C26 C 0.82129 0.97275 0.70524 0.0
C27 C 0.79252 1.01081 0.70372 0.0
C28 C 0.11113 0.23398 0.19572 0.0
O29 O 0.04674 0.20593 0.13506 0.0
O30 O 0.72587 0.87162 0.97042 0.0
O31 O 0.90169 0.01475 0.97834 0.0
H32 H 0.10406 0.07659 0.28068 0.0
H33 H 0.12205 0.96403 0.44775 0.0
H34 H 0.2209 0.97505 0.14362 0.0
H35 H 0.75571 0.04489 0.94109 0.0
H36 H 0.84312 0.92547 0.7894 0.0
H37 H 0.80421 0.03055 0.63574 0.0
C38 C 0.82751 0.35163 0.56176 0.0
C39 C 0.8188 0.39182 0.63948 0.0
C40 C 0.82263 0.38469 0.72886 0.0
C41 C 0.82887 0.33366 0.7438 0.0
C42 C 0.83119 0.28853 0.66861 0.0
C43 C 0.83134 0.2978 0.57608 0.0
O44 O 0.58833 0.33795 0.51694 0.0
Tb45 Tb 0.76969 0.42369 0.43617 0.0
Tb46 Tb 0.56037 0.2631 0.3037 0.0
O47 O 0.82833 0.52928 0.53767 0.0
O48 O 0.48112 0.202 0.4448 0.0
O49 O 0.90681 0.45503 0.45447 0.0
C50 C 0.53277 0.34797 0.28917 0.0
O51 O 0.72805 0.3143 0.44541 0.0
O52 O 0.73864 0.33797 0.22811 0.0
O53 O 0.8382 0.4739 0.29057 0.0
C54 C 0.83268 0.36935 0.46861 0.0
C55 C 0.5267 0.12421 0.18818 0.0
O56 O 0.59288 0.15143 0.24635 0.0
C57 C 0.49694 0.24858 0.52132 0.0
C58 C 0.8297 0.42654 0.21937 0.0
O59 O 0.49063 0.156 0.19996 0.0
C60 C 0.59385 0.41702 0.21948 0.0
C61 C 0.61888 0.5136 0.14232 0.0
C62 C 0.55797 0.45085 0.21562 0.0
C63 C 0.68361 0.44208 0.14789 0.0
C64 C 0.73607 0.49817 0.07277 0.0
C65 C 0.71393 0.54159 0.07558 0.0
C66 C 0.7799 0.55153 0.55153 0.0
O67 O 0.7025 0.51358 0.49885 0.0
O68 O 0.46544 0.26577 0.25624 0.0
O69 O 0.60436 0.37482 0.34044 0.0
H70 H 0.8098 0.42964 0.63055 0.0
H71 H 0.82459 0.32474 0.81559 0.0
H72 H 0.83399 0.26374 0.51689 0.0
H73 H 0.48023 0.4251 0.2649 0.0
H74 H 0.69751 0.40543 0.14171 0.0
H75 H 0.75205 0.5818 1.01394 0.0
C76 C 0.43981 0.64232 0.86697 0.0
C77 C 0.34743 0.61564 0.93616 0.0
C78 C 0.30962 0.5748 1.02035 0.0
C79 C 0.35552 0.55234 1.03356 0.0
C80 C 0.45076 0.58057 0.96731 0.0
C81 C 0.49443 0.6263 0.88272 0.0
O82 O 0.25056 0.67997 0.83936 0.0
Tb83 Tb 0.43071 0.76096 0.76309 0.0
Tb84 Tb 0.21125 0.59255 0.6361 0.0
O85 O 0.49004 0.86693 0.86412 0.0
O86 O 0.15023 0.54288 0.78073 0.0
O87 O 0.5475 0.77983 0.80758 0.0
C88 C 0.15339 0.65461 0.61715 0.0
O89 O 0.39925 0.65486 0.74012 0.0
O90 O 0.39096 0.67371 0.55443 0.0
O91 O 0.49889 0.81231 0.61937 0.0
C92 C 0.48337 0.69604 0.78687 0.0
C93 C 0.1737 0.45149 0.51981 0.0
O94 O 0.23274 0.4729 0.58127 0.0
C95 C 0.1632 0.59213 0.85199 0.0
C96 C 0.48364 0.76296 0.54679 0.0
O97 O 0.14587 0.48882 0.52846 0.0
C98 C 0.15432 0.67481 0.52854 0.0
C99 C 0.14341 0.73897 0.432 0.0
C100 C 0.14441 0.72652 0.52201 0.0
C101 C 0.16577 0.6392 0.44643 0.0
C102 C 0.16305 0.65117 0.35981 0.0
C103 C 0.15228 0.7005 0.35249 0.0
C104 C 0.44392 0.89083 0.87503 0.0
O105 O 0.37098 0.85529 0.81871 0.0
O106 O 0.07705 0.56805 0.62821 0.0
O107 O 0.25956 0.70614 0.63355 0.0
H108 H 0.31664 0.63834 0.93057 0.0
H109 H 0.3282 0.5237 0.10165 0.0
H110 H 0.57046 0.65066 0.83208 0.0
H111 H 0.13831 0.75642 0.5847 0.0
H112 H 0.17946 0.6034 0.44942 0.0
H113 H 0.15994 0.71471 0.28272 0.0
C114 C 0.84171 0.92109 0.54831 0.0
C115 C 0.89464 0.98387 0.62106 0.0
C116 C 0.91441 0.9368 0.4645 0.0
C117 C 0.04013 0.01583 0.45282 0.0
H118 H 0.74478 0.86015 0.55665 0.0
H119 H 0.87286 0.8865 0.40938 0.0
S120 S 0.21773 0.2047 0.61858 0.0
N121 N 0.07666 0.12981 0.67506 0.0
N122 N 0.21396 0.15931 0.51567 0.0
C123 C 0.0934 0.07963 0.52415 0.0
C124 C 0.01994 0.06353 0.60933 0.0
C125 C 0.897 0.50712 0.84166 0.0
C126 C 0.80108 0.41877 0.80975 0.0
C127 C 0.87629 0.53556 0.92611 0.0
C128 C 0.75991 0.47513 0.97967 0.0
H129 H 0.98806 0.55321 0.80299 0.0
H130 H 0.95092 0.60335 0.95093 0.0
S131 S 0.47771 0.2436 0.91543 0.0
N132 N 0.58558 0.2762 0.82944 0.0
N133 N 0.54595 0.32928 0.98884 0.0
C134 C 0.66261 0.3893 0.94413 0.0
C135 C 0.68356 0.3609 0.85875 0.0
C136 C 0.15132 0.52128 0.15788 0.0
C137 C 0.26713 0.59212 0.10446 0.0
C138 C 0.1165 0.54011 0.2425 0.0
C139 C 0.19773 0.62962 0.27388 0.0
H140 H 0.08857 0.45194 0.1343 0.0
H141 H 0.02643 0.48513 0.28289 0.0
S142 S 0.51459 0.83562 0.1637 0.0
N143 N 0.46526 0.75278 0.09117 0.0
N144 N 0.39905 0.78778 0.2506 0.0
C145 C 0.31427 0.70012 0.22211 0.0
C146 C 0.34936 0.68135 0.13682 0.0
C147 C 0.25305 0.89225 0.40772 0.0
C148 C 0.14536 0.7977 0.41155 0.0
C149 C 0.27067 0.9486 0.36124 0.0
C150 C 0.1827 0.91221 0.31473 0.0
H151 H 0.32518 0.92256 0.43873 0.0
H152 H 0.35172 0.02138 0.36465 0.0
S153 S 0.88511 0.66923 0.30442 0.0
N154 N 0.94979 0.67039 0.3647 0.0
N155 N 0.98324 0.77633 0.27775 0.0
C156 C 0.07529 0.81794 0.31763 0.0
C157 C 0.05643 0.76086 0.36613 0.0
C158 C 0.15124 0.40483 0.34774 0.0
C159 C 0.14863 0.39174 0.43867 0.0
C160 C 0.14005 0.35428 0.26919 0.0
C161 C 0.12726 0.28952 0.27828 0.0
H162 H 0.16482 0.45583 0.33663 0.0
H163 H 0.14322 0.36696 0.20055 0.0
S164 S 0.09295 0.21872 0.50369 0.0
N165 N 0.11661 0.3012 0.53478 0.0
N166 N 0.09911 0.20872 0.38781 0.0
C167 C 0.12054 0.27406 0.36931 0.0
C168 C 0.13014 0.32435 0.44913 0.0
C169 C 0.57639 0.75655 0.3903 0.0
C170 C 0.57583 0.80743 0.45756 0.0
C171 C 0.6627 0.79657 0.30592 0.0
C172 C 0.7522 0.88925 0.2848 0.0
H173 H 0.50991 0.685 0.40291 0.0
H174 H 0.65874 0.75418 0.25684 0.0
S175 S 0.78733 0.05199 0.43556 0.0
N176 N 0.67055 0.95505 0.4957 0.0
N177 N 0.83289 0.03058 0.33841 0.0
C178 C 0.75237 0.94094 0.35146 0.0
C179 C 0.66431 0.90003 0.4373 0.0
C180 C 0.71668 0.1322 0.68437 0.0
C181 C 0.82115 0.22598 0.69334 0.0
C182 C 0.69482 0.0707 0.7235 0.0
C183 C 0.77522 0.10064 0.77486 0.0
H184 H 0.65084 0.10622 0.64786 0.0
H185 H 0.61707 0.99925 0.70989 0.0
S186 S 0.06566 0.33984 0.8126 0.0
N187 N 0.00836 0.34629 0.75319 0.0
N188 N 0.96633 0.2305 0.8277 0.0
C189 C 0.87981 0.19429 0.78428 0.0
C190 C 0.90304 0.2569 0.74318 0.0
C191 C 0.84196 0.62384 0.70997 0.0
C192 C 0.80446 0.61323 0.62943 0.0
C193 C 0.85649 0.67624 0.78721 0.0
C194 C 0.8345 0.72055 0.78724 0.0
H195 H 0.85787 0.58989 0.71441 0.0
H196 H 0.88446 0.68147 0.84777 0.0
S197 S 0.74792 0.72296 0.58885 0.0
N198 N 0.75373 0.65688 0.55192 0.0
N199 N 0.78247 0.75571 0.69577 0.0
C200 C 0.80012 0.71244 0.70599 0.0
C201 C 0.78495 0.65891 0.62755 0.0
C202 C 0.41931 0.25507 0.68784 0.0
C203 C 0.40632 0.20231 0.61191 0.0
C204 C 0.33165 0.21511 0.77115 0.0
C205 C 0.22742 0.12045 0.78378 0.0
H206 H 0.49635 0.32841 0.68234 0.0
H207 H 0.34606 0.2594 0.8256 0.0
S208 S 0.16002 0.95094 0.61498 0.0
N209 N 0.28748 0.04963 0.56047 0.0
N210 N 0.12311 0.97462 0.71686 0.0
C211 C 0.21638 0.06661 0.71083 0.0
C212 C 0.30565 0.10741 0.62534 0.0
C213 C 0.63048 0.61715 0.10453 0.0
C214 C 0.56543 0.52845 0.11154 0.0
C215 C 0.59983 0.63623 0.05017 0.0
C216 C 0.50682 0.56811 0.9978 0.0
H217 H 0.70667 0.67216 0.1399 0.0
H218 H 0.64667 0.70387 0.05115 0.0
S219 S 0.31436 0.32777 0.98887 0.0
N220 N 0.40631 0.37327 0.05968 0.0
N221 N 0.35065 0.40997 0.95654 0.0
C222 C 0.44291 0.48015 1.00338 0.0
C223 C 0.47166 0.46015 0.06037 0.0
C224 C 0.5109 0.96768 1.03105 0.0
C225 C 0.46709 0.95242 0.95261 0.0
C226 C 0.52738 0.02163 0.10703 0.0
C227 C 0.50156 0.06348 0.10805 0.0
H228 H 0.53113 0.93665 0.03461 0.0
H229 H 0.56083 0.03048 0.16563 0.0
S230 S 0.39003 0.04864 0.91733 0.0
N231 N 0.40065 0.98556 0.8797 0.0
N232 N 0.43414 0.08813 1.02086 0.0
C233 C 0.45898 0.04961 1.02944 0.0
C234 C 0.44129 0.99403 0.95234 0.0
C235 C -0.00693 0.45885 0.96745 0.0
C236 C 0.07944 0.55091 0.94623 0.0
C237 C 0.91359 0.41963 0.0557 0.0
C238 C 0.91649 0.47064 0.12674 0.0
H239 H 0.98677 0.41656 0.91577 0.0
H240 H 0.8494 0.34851 0.06818 0.0
S241 S 0.11868 0.71301 0.10426 0.0
N242 N 0.16023 0.6916 1.00364 0.0
N243 N 0.00812 0.61697 0.16626 0.0
C244 C 0.00107 0.56238 0.1058 0.0
C245 C 0.08329 0.60272 1.01675 0.0
loop_
_geom_bond_atom_site_label_1
_geom_bond_atom_site_label_2
_geom_bond_distance
_geom_bond_site_symmetry_2
_ccdc_geom_bond_type
C0 C1 1.386 . S
C0 C5 1.384 1_545 S
C0 C16 1.497 . S
C1 C0 1.386 . S
C1 C2 1.393 1_545 S
C1 H32 0.932 . S
C2 C1 1.393 1_565 S
C2 C3 1.387 . S
C3 C2 1.387 . S
C3 C4 1.392 . S
C3 H33 0.930 . S
C4 C3 1.392 . S
C4 C5 1.402 . S
C5 C0 1.384 1_565 S
C5 C4 1.402 . S
C5 H34 0.930 . S
O6 Tb7 2.288 1_655 S
O6 C19 1.257 1_545 S
Tb7 O6 2.288 1_455 S
Tb7 O9 2.303 . S
Tb7 O11 2.430 . S
Tb7 O13 2.459 . S
Tb7 O15 2.301 1_554 S
Tb7 C16 2.808 . S
Tb8 O10 2.301 1_556 S
Tb8 C12 2.808 . S
Tb8 O14 2.288 1_665 S
Tb8 O21 2.303 . S
Tb8 O30 2.430 . S
Tb8 O31 2.459 . S
O9 Tb7 2.303 . S
O9 C28 1.255 . S
O10 Tb8 2.301 1_554 S
O10 C19 1.237 . S
O11 Tb7 2.430 . S
O11 C16 1.248 . S
C12 Tb8 2.808 . S
C12 C22 1.497 . S
C12 O30 1.248 . S
C12 O31 1.260 . S
O13 Tb7 2.459 . S
O13 C16 1.260 . S
O14 Tb8 2.288 1_445 S
O14 C20 1.257 . S
O15 Tb7 2.301 1_556 S
O15 C20 1.237 . S
C16 C0 1.497 . S
C16 Tb7 2.808 . S
C16 O11 1.248 . S
C16 O13 1.260 . S
C17 O18 1.255 . S
C17 O21 1.255 . S
O18 C17 1.255 . S
C19 O6 1.257 1_565 S
C19 O10 1.237 . S
C20 O14 1.257 . S
C20 O15 1.237 . S
O21 Tb8 2.303 . S
O21 C17 1.255 . S
C22 C12 1.497 . S
C22 C24 1.384 1_565 S
C22 C25 1.386 . S
C23 C24 1.402 . S
C23 C27 1.392 . S
C24 C22 1.384 1_545 S
C24 C23 1.402 . S
C24 H35 0.930 . S
C25 C22 1.386 . S
C25 C26 1.393 1_565 S
C25 H36 0.932 . S
C26 C25 1.393 1_545 S
C26 C27 1.387 . S
C27 C23 1.392 . S
C27 C26 1.387 . S
C27 H37 0.930 . S
C28 O9 1.255 . S
C28 O29 1.255 . S
O29 C28 1.255 . S
O30 Tb8 2.430 . S
O30 C12 1.248 . S
O31 Tb8 2.459 . S
O31 C12 1.260 . S
H32 C1 0.932 . S
H33 C3 0.930 . S
H34 C5 0.930 . S
H35 C24 0.930 . S
H36 C25 0.932 . S
H37 C27 0.930 . S
C38 C39 1.386 . S
C38 C43 1.384 . S
C38 C54 1.497 . S
C39 C38 1.386 . S
C39 C40 1.393 . S
C39 H70 0.932 . S
C40 C39 1.393 . S
C40 C41 1.387 . S
C41 C40 1.387 . S
C41 C42 1.392 . S
C41 H71 0.930 . S
C42 C41 1.392 . S
C42 C43 1.402 . S
C43 C38 1.384 . S
C43 C42 1.402 . S
C43 H72 0.930 . S
O44 Tb45 2.288 . S
O44 C57 1.257 . S
Tb45 O44 2.288 . S
Tb45 O47 2.303 . S
Tb45 O49 2.430 . S
Tb45 O51 2.459 . S
Tb45 O53 2.301 . S
Tb45 C54 2.808 . S
Tb46 O48 2.301 . S
Tb46 C50 2.808 . S
Tb46 O52 2.288 . S
Tb46 O59 2.303 . S
Tb46 O68 2.430 . S
Tb46 O69 2.459 . S
O47 Tb45 2.303 . S
O47 C66 1.255 . S
O48 Tb46 2.301 . S
O48 C57 1.237 . S
O49 Tb45 2.430 . S
O49 C54 1.248 . S
C50 Tb46 2.808 . S
C50 C60 1.497 . S
C50 O68 1.248 . S
C50 O69 1.260 . S
O51 Tb45 2.459 . S
O51 C54 1.260 . S
O52 Tb46 2.288 . S
O52 C58 1.257 . S
O53 Tb45 2.301 . S
O53 C58 1.237 . S
C54 C38 1.497 . S
C54 Tb45 2.808 . S
C54 O49 1.248 . S
C54 O51 1.260 . S
C55 O56 1.255 . S
C55 O59 1.255 . S
O56 C55 1.255 . S
C57 O44 1.257 . S
C57 O48 1.237 . S
C58 O52 1.257 . S
C58 O53 1.237 . S
O59 Tb46 2.303 . S
O59 C55 1.255 . S
C60 C50 1.497 . S
C60 C62 1.384 . S
C60 C63 1.386 . S
C61 C62 1.402 . S
C61 C65 1.392 . S
C62 C60 1.384 . S
C62 C61 1.402 . S
C62 H73 0.930 . S
C63 C60 1.386 . S
C63 C64 1.393 1_554 S
C63 H74 0.932 . S
C64 C63 1.393 1_556 S
C64 C65 1.387 1_556 S
C65 C61 1.392 . S
C65 C64 1.387 1_554 S
C65 H75 0.930 1_554 S
C66 O47 1.255 . S
C66 O67 1.255 . S
O67 C66 1.255 . S
O68 Tb46 2.430 . S
O68 C50 1.248 . S
O69 Tb46 2.459 . S
O69 C50 1.260 . S
H70 C39 0.932 . S
H71 C41 0.930 . S
H72 C43 0.930 . S
H73 C62 0.930 . S
H74 C63 0.932 . S
H75 C65 0.930 1_556 S
C76 C77 1.386 . S
C76 C81 1.384 . S
C76 C92 1.497 . S
C77 C76 1.386 . S
C77 C78 1.393 1_556 S
C77 H108 0.932 . S
C78 C77 1.393 1_554 S
C78 C79 1.387 1_554 S
C79 C78 1.387 1_556 S
C79 C80 1.392 . S
C79 H109 0.930 1_556 S
C80 C79 1.392 . S
C80 C81 1.402 . S
C81 C76 1.384 . S
C81 C80 1.402 . S
C81 H110 0.930 . S
O82 Tb83 2.288 . S
O82 C95 1.257 . S
Tb83 O82 2.288 . S
Tb83 O85 2.303 . S
Tb83 O87 2.430 . S
Tb83 O89 2.459 . S
Tb83 O91 2.301 . S
Tb83 C92 2.808 . S
Tb84 O86 2.301 . S
Tb84 C88 2.808 . S
Tb84 O90 2.288 . S
Tb84 O97 2.303 . S
Tb84 O106 2.430 . S
Tb84 O107 2.459 . S
O85 Tb83 2.303 . S
O85 C104 1.255 . S
O86 Tb84 2.301 . S
O86 C95 1.237 . S
O87 Tb83 2.430 . S
O87 C92 1.248 . S
C88 Tb84 2.808 . S
C88 C98 1.497 . S
C88 O106 1.248 . S
C88 O107 1.260 . S
O89 Tb83 2.459 . S
O89 C92 1.260 . S
O90 Tb84 2.288 . S
O90 C96 1.257 . S
O91 Tb83 2.301 . S
O91 C96 1.237 . S
C92 C76 1.497 . S
C92 Tb83 2.808 . S
C92 O87 1.248 . S
C92 O89 1.260 . S
C93 O94 1.255 . S
C93 O97 1.255 . S
O94 C93 1.255 . S
C95 O82 1.257 . S
C95 O86 1.237 . S
C96 O90 1.257 . S
C96 O91 1.237 . S
O97 Tb84 2.303 . S
O97 C93 1.255 . S
C98 C88 1.497 . S
C98 C100 1.384 . S
C98 C101 1.386 . S
C99 C100 1.402 . S
C99 C103 1.392 . S
C100 C98 1.384 . S
C100 C99 1.402 . S
C100 H111 0.930 . S
C101 C98 1.386 . S
C101 C102 1.393 . S
C101 H112 0.932 . S
C102 C101 1.393 . S
C102 C103 1.387 . S
C103 C99 1.392 . S
C103 C102 1.387 . S
C103 H113 0.930 . S
C104 O85 1.255 . S
C104 O105 1.255 . S
O105 C104 1.255 . S
O106 Tb84 2.430 . S
O106 C88 1.248 . S
O107 Tb84 2.459 . S
O107 C88 1.260 . S
H108 C77 0.932 . S
H109 C79 0.930 1_554 S
H110 C81 0.930 . S
H111 C100 0.930 . S
H112 C101 0.932 . S
H113 C103 0.930 . S
C114 C115 1.369 1_565 S
C114 C116 1.419 . S
C114 H118 0.930 . S
C115 C114 1.369 1_545 S
C115 C124 1.429 1_655 S
C116 C114 1.419 . S
C116 C117 1.364 1_665 S
C116 H119 0.929 . S
C117 C116 1.364 1_445 S
C117 C123 1.439 . S
H118 C114 0.930 . S
H119 C116 0.929 . S
S120 N121 1.613 . S
S120 N122 1.610 . S
N121 S120 1.613 . S
N121 C124 1.350 . S
N122 S120 1.610 . S
N122 C123 1.351 . S
C123 C117 1.439 . S
C123 N122 1.351 . S
C123 C124 1.434 . S
C124 C115 1.429 1_455 S
C124 N121 1.350 . S
C124 C123 1.434 . S
C125 C126 1.369 . S
C125 C127 1.419 . S
C125 H129 0.930 . S
C126 C125 1.369 . S
C126 C135 1.429 . S
C127 C125 1.419 . S
C127 C128 1.363 . S
C127 H130 0.929 . S
C128 C127 1.363 . S
C128 C134 1.428 . S
H129 C125 0.930 . S
H130 C127 0.929 . S
S131 N132 1.613 . S
S131 N133 1.610 . S
N132 S131 1.613 . S
N132 C135 1.350 . S
N133 S131 1.610 . S
N133 C134 1.351 . S
C134 C128 1.428 . S
C134 N133 1.351 . S
C134 C135 1.434 . S
C135 C126 1.429 . S
C135 N132 1.350 . S
C135 C134 1.434 . S
C136 C137 1.369 . S
C136 C138 1.419 . S
C136 H140 0.930 . S
C137 C136 1.369 . S
C137 C146 1.429 . S
C138 C136 1.419 . S
C138 C139 1.363 . S
C138 H141 0.929 . S
C139 C138 1.363 . S
C139 C145 1.428 . S
H140 C136 0.930 . S
H141 C138 0.929 . S
S142 N143 1.613 . S
S142 N144 1.610 . S
N143 S142 1.613 . S
N143 C146 1.350 . S
N144 S142 1.610 . S
N144 C145 1.351 . S
C145 C139 1.428 . S
C145 N144 1.351 . S
C145 C146 1.434 . S
C146 C137 1.429 . S
C146 N143 1.350 . S
C146 C145 1.434 . S
C147 C148 1.369 . S
C147 C149 1.419 . S
C147 H151 0.930 . S
C148 C147 1.369 . S
C148 C157 1.429 . S
C149 C147 1.419 . S
C149 C150 1.363 . S
C149 H152 0.929 . S
C150 C149 1.363 . S
C150 C156 1.428 . S
H151 C147 0.930 . S
H152 C149 0.929 . S
S153 N154 1.613 . S
S153 N155 1.610 . S
N154 S153 1.613 . S
N154 C157 1.350 . S
N155 S153 1.610 . S
N155 C156 1.351 . S
C156 C150 1.428 . S
C156 N155 1.351 . S
C156 C157 1.434 . S
C157 C148 1.429 . S
C157 N154 1.350 . S
C157 C156 1.434 . S
C158 C159 1.369 . S
C158 C160 1.419 . S
C158 H162 0.930 . S
C159 C158 1.369 . S
C159 C168 1.429 . S
C160 C158 1.419 . S
C160 C161 1.363 . S
C160 H163 0.929 . S
C161 C160 1.363 . S
C161 C167 1.428 . S
H162 C158 0.930 . S
H163 C160 0.929 . S
S164 N165 1.613 1_655 S
S164 N166 1.610 . S
N165 S164 1.613 1_455 S
N165 C168 1.350 . S
N166 S164 1.610 . S
N166 C167 1.351 1_655 S
C167 C161 1.428 . S
C167 N166 1.351 1_455 S
C167 C168 1.434 . S
C168 C159 1.429 . S
C168 N165 1.350 . S
C168 C167 1.434 . S
C169 C170 1.369 . S
C169 C171 1.419 . S
C169 H173 0.930 . S
C170 C169 1.369 . S
C170 C179 1.429 . S
C171 C169 1.419 . S
C171 C172 1.363 . S
C171 H174 0.929 . S
C172 C171 1.363 . S
C172 C178 1.428 . S
H173 C169 0.930 . S
H174 C171 0.929 . S
S175 N176 1.613 1_545 S
S175 N177 1.610 1_545 S
N176 S175 1.613 1_565 S
N176 C179 1.350 . S
N177 S175 1.610 1_565 S
N177 C178 1.351 . S
C178 C172 1.428 . S
C178 N177 1.351 . S
C178 C179 1.434 . S
C179 C170 1.429 . S
C179 N176 1.350 . S
C179 C178 1.434 . S
C180 C181 1.369 . S
C180 C182 1.419 . S
C180 H184 0.930 . S
C181 C180 1.369 . S
C181 C190 1.429 . S
C182 C180 1.419 . S
C182 C183 1.363 . S
C182 H185 0.929 . S
C183 C182 1.363 . S
C183 C189 1.428 . S
H184 C180 0.930 . S
H185 C182 0.929 . S
S186 N187 1.613 . S
S186 N188 1.610 . S
N187 S186 1.613 . S
N187 C190 1.350 1_455 S
N188 S186 1.610 . S
N188 C189 1.351 1_455 S
C189 C183 1.428 . S
C189 N188 1.351 1_655 S
C189 C190 1.434 . S
C190 C181 1.429 . S
C190 N187 1.350 1_655 S
C190 C189 1.434 . S
C191 C192 1.369 . S
C191 C193 1.419 . S
C191 H195 0.930 . S
C192 C191 1.369 . S
C192 C201 1.429 . S
C193 C191 1.419 . S
C193 C194 1.363 . S
C193 H196 0.929 . S
C194 C193 1.363 . S
C194 C200 1.428 . S
H195 C191 0.930 . S
H196 C193 0.929 . S
S197 N198 1.613 . S
S197 N199 1.610 . S
N198 S197 1.613 . S
N198 C201 1.350 . S
N199 S197 1.610 . S
N199 C200 1.351 . S
C200 C194 1.428 . S
C200 N199 1.351 . S
C200 C201 1.434 . S
C201 C192 1.429 . S
C201 N198 1.350 . S
C201 C200 1.434 . S
C202 C203 1.369 . S
C202 C204 1.419 . S
C202 H206 0.930 . S
C203 C202 1.369 . S
C203 C212 1.429 . S
C204 C202 1.419 . S
C204 C205 1.363 . S
C204 H207 0.929 . S
C205 C204 1.363 . S
C205 C211 1.428 . S
H206 C202 0.930 . S
H207 C204 0.929 . S
S208 N209 1.613 . S
S208 N210 1.610 . S
N209 S208 1.613 . S
N209 C212 1.350 . S
N210 S208 1.610 . S
N210 C211 1.351 . S
C211 C205 1.428 . S
C211 N210 1.351 . S
C211 C212 1.434 . S
C212 C203 1.429 . S
C212 N209 1.350 . S
C212 C211 1.434 . S
C213 C214 1.369 1_556 S
C213 C215 1.419 . S
C213 H217 0.930 . S
C214 C213 1.369 1_554 S
C214 C223 1.429 . S
C215 C213 1.419 . S
C215 C216 1.363 . S
C215 H218 0.929 . S
C216 C215 1.363 . S
C216 C222 1.428 1_556 S
H217 C213 0.930 . S
H218 C215 0.929 . S
S219 N220 1.613 . S
S219 N221 1.610 . S
N220 S219 1.613 . S
N220 C223 1.350 . S
N221 S219 1.610 . S
N221 C222 1.351 . S
C222 C216 1.428 1_554 S
C222 N221 1.351 . S
C222 C223 1.434 . S
C223 C214 1.429 . S
C223 N220 1.350 . S
C223 C222 1.434 . S
C224 C225 1.369 . S
C224 C226 1.419 1_556 S
C224 H228 0.930 1_556 S
C225 C224 1.369 . S
C225 C234 1.429 1_565 S
C226 C224 1.419 1_554 S
C226 C227 1.363 1_565 S
C226 H229 0.929 . S
C227 C226 1.363 1_545 S
C227 C233 1.428 1_554 S
H228 C224 0.930 1_554 S
H229 C226 0.929 . S
S230 N231 1.613 . S
S230 N232 1.610 . S
N231 S230 1.613 . S
N231 C234 1.350 . S
N232 S230 1.610 . S
N232 C233 1.351 . S
C233 C227 1.428 1_556 S
C233 N232 1.351 . S
C233 C234 1.434 . S
C234 C225 1.429 1_545 S
C234 N231 1.350 . S
C234 C233 1.434 . S
C235 C236 1.369 1_655 S
C235 C237 1.419 1_556 S
C235 H239 0.930 . S
C236 C235 1.369 1_455 S
C236 C245 1.429 . S
C237 C235 1.419 1_554 S
C237 C238 1.363 . S
C237 H240 0.929 . S
C238 C237 1.363 . S
C238 C244 1.428 1_655 S
H239 C235 0.930 . S
H240 C237 0.929 . S
S241 N242 1.613 1_554 S
S241 N243 1.610 . S
N242 S241 1.613 1_556 S
N242 C245 1.350 . S
N243 S241 1.610 . S
N243 C244 1.351 . S
C244 C238 1.428 1_455 S
C244 N243 1.351 . S
C244 C245 1.434 1_554 S
C245 C236 1.429 . S
C245 N242 1.350 . S
C245 C244 1.434 1_556 S
C115 C26 1.444 . S
C117 C2 1.438 1_545 S
C126 C40 1.441 . S
C128 C64 1.446 . S
C137 C78 1.451 . S
C139 C102 1.439 . S
C148 C99 2.224 . S
C150 C4 2.218 . S
C159 C93 1.490 . S
C161 C28 1.488 . S
C170 C96 1.772 . S
C172 C19 1.771 . S
C181 C42 2.221 . S
C183 C23 2.222 . S
C192 C66 1.491 . S
C194 C17 1.490 . S
C203 C57 1.769 . S
C205 C20 1.775 . S
C214 C61 2.219 . S
C216 C80 2.222 . S
C225 C104 1.487 . S
C227 C55 1.491 . S
C236 C95 1.772 . S
C238 C58 1.772 . S
