# Generated by pormake.
# Topology bnn, (5)-cn, num edge types: 1
# Building blocks:
#     Node 0, Type 0, BuildingBlock: BEQFEK_clean_sbu_0, # of connection points: 5
#     Node 1, Type 0, BuildingBlock: BEQFEK_clean_sbu_0, # of connection points: 5
#     Edge 2, Type (0, 0), BuildingBlock: FUNLAD_clean_linker_0, # of connection points: 2
#     Edge 3, Type (0, 0), BuildingBlock: FUNLAD_clean_linker_0, # of connection points: 2
#     Edge 4, Type (0, 0), BuildingBlock: FUNLAD_clean_linker_0, # of connection points: 2
#     Edge 5, Type (0, 0), BuildingBlock: FUNLAD_clean_linker_0, # of connection points: 2
#     Edge 6, Type (0, 0), BuildingBlock: FUNLAD_clean_linker_0, # of connection points: 2
# Relax obj value: 0.107
# Max RMSD: 0.191
# Mean RMSD: 0.179
data_MOF--net-bnn--node1-BEQFEK_clean_sbu_0--edge1-FUNLAD_clean_linker_0
_symmetry_space_group_name_H-M    P1
_symmetry_Int_Tables_number       1
_symmetry_cell_setting            triclinic
loop_
_symmetry_equiv_pos_as_xyz
'x, y, z'
_cell_length_a     29.460984
_cell_length_b     31.049111
_cell_length_c     22.078493
_cell_angle_alpha  91.523421
_cell_angle_beta   86.020439
_cell_angle_gamma 111.24629
loop_
_atom_site_label
_atom_site_type_symbol
_atom_site_fract_x
_atom_site_fract_y
_atom_site_fract_z
_atom_type_partial_charge
Co0 Co 0.34046 0.68599 0.06041 0.0
Co1 Co 0.34457 0.68257 0.91734 0.0
C2 C 0.38609 0.7719 0.98239 0.0
O3 O 0.37436 0.75099 0.03331 0.0
O4 O 0.37639 0.74993 0.93238 0.0
C5 C 0.31894 0.71669 0.18102 0.0
O6 O 0.31399 0.75123 0.15262 0.0
C7 C 0.34238 0.6946 0.78357 0.0
C8 C 0.32824 0.62266 0.75346 0.0
C9 C 0.33653 0.66655 0.73217 0.0
N10 N 0.33739 0.66809 0.83278 0.0
N11 N 0.32887 0.62522 0.81423 0.0
C12 C 0.3569 0.74599 0.78611 0.0
H13 H 0.38965 0.7608 0.81268 0.0
H14 H 0.32704 0.75479 0.81014 0.0
H15 H 0.36523 0.76173 0.74026 0.0
C16 C 0.23535 0.63507 0.04328 0.0
N17 N 0.28144 0.65836 0.02142 0.0
N18 N 0.28288 0.65849 0.96167 0.0
C19 C 0.23747 0.63616 0.94369 0.0
C20 C 0.20588 0.62007 0.99467 0.0
C21 C 0.22117 0.62387 0.10903 0.0
H22 H 0.24986 0.61505 0.1299 0.0
H23 H 0.2181 0.65475 0.13272 0.0
H24 H 0.18585 0.59459 0.11541 0.0
O25 O 0.38301 0.6501 0.04225 0.0
O26 O 0.38706 0.64975 0.94167 0.0
H27 H 0.23269 0.60175 0.85797 0.0
H28 H 0.18489 0.62429 0.87566 0.0
C29 C 0.22432 0.6311 0.87892 0.0
H30 H 0.24592 0.66301 0.85334 0.0
H31 H 0.32423 0.59773 0.84322 0.0
O32 O 0.32885 0.68563 0.15027 0.0
C33 C 0.39875 0.63855 0.99168 0.0
Co34 Co 0.67108 0.32225 0.09911 0.0
Co35 Co 0.68162 0.32308 0.95718 0.0
C36 C 0.62211 0.37082 0.02663 0.0
O37 O 0.63114 0.3581 0.07738 0.0
O38 O 0.63946 0.35988 0.97657 0.0
C39 C 0.62815 0.31023 0.22361 0.0
O40 O 0.58701 0.3079 0.20165 0.0
C41 C 0.65888 0.30994 0.82682 0.0
C42 C 0.7285 0.30657 0.78717 0.0
C43 C 0.68309 0.3051 0.77212 0.0
N44 N 0.68881 0.31387 0.87182 0.0
N45 N 0.73018 0.31164 0.84762 0.0
C46 C 0.60927 0.31289 0.83592 0.0
H47 H 0.60459 0.32855 0.88028 0.0
H48 H 0.58126 0.27755 0.83496 0.0
H49 H 0.60314 0.33338 0.79904 0.0
C50 C 0.63116 0.22084 0.07716 0.0
N51 N 0.65198 0.26484 0.05762 0.0
N52 N 0.65622 0.26515 -0.00212 0.0
C53 C 0.63823 0.22128 0.97746 0.0
C54 C 0.62158 0.19172 0.02694 0.0
C55 C 0.61685 0.20775 0.14239 0.0
H56 H 0.64935 0.22228 0.16949 0.0
H57 H 0.5898 0.22308 0.15958 0.0
H58 H 0.60055 0.16982 0.1488 0.0
O59 O 0.74099 0.35917 0.08108 0.0
O60 O 0.74835 0.35959 0.98071 0.0
H61 H 0.67448 0.22447 0.88942 0.0
H62 H 0.62607 0.16999 0.90563 0.0
C63 C 0.63752 0.20792 0.91179 0.0
H64 H 0.6121 0.22045 0.8894 0.0
H65 H 0.75986 0.31397 0.8725 0.0
O66 O 0.66507 0.31422 0.18776 0.0
C67 C 0.76687 0.37153 0.03163 0.0
C68 C 0.44011 0.59407 0.04522 0.0
C69 C 0.42963 0.60999 0.9908 0.0
C70 C 0.46728 0.56531 0.04421 0.0
C71 C 0.48441 0.55163 0.98863 0.0
C72 C 0.47514 0.56862 0.93442 0.0
C73 C 0.44784 0.59725 0.93539 0.0
C74 C 0.51284 0.52059 0.98537 0.0
C75 C 0.50879 0.48937 0.02864 0.0
C76 C 0.53732 0.4584 0.02611 0.0
C77 C 0.54431 0.44012 0.08063 0.0
C78 C 0.57144 0.41142 0.08074 0.0
C79 C 0.59187 0.39992 0.02611 0.0
H80 H 0.5508 0.45798 0.92793 0.0
C81 C 0.58382 0.41721 0.97127 0.0
C82 C 0.55676 0.44605 0.97119 0.0
H83 H 0.59861 0.40869 0.92828 0.0
H84 H 0.42706 0.60354 0.08874 0.0
H85 H 0.47515 0.55442 0.08712 0.0
H86 H 0.48839 0.5591 0.89103 0.0
H87 H 0.4407 0.60904 0.89258 0.0
H88 H 0.53714 0.52331 0.94523 0.0
H89 H 0.48424 0.48666 0.06856 0.0
H90 H 0.52931 0.44861 0.12351 0.0
H91 H 0.57659 0.3985 0.12383 0.0
C92 C 0.84774 0.41709 0.97905 0.0
C93 C 0.81901 0.40155 0.03326 0.0
C94 C 0.89643 0.44667 0.98041 0.0
C95 C 0.91773 0.46109 0.03615 0.0
C96 C 0.88894 0.44577 0.09027 0.0
C97 C 0.84021 0.41618 0.08893 0.0
C98 C 0.96916 0.49324 0.03955 0.0
C99 C 0.00392 0.49748 0.99469 0.0
C100 C 0.05553 0.52926 0.99728 0.0
C101 C 0.09128 0.52012 0.95943 0.0
C102 C 0.14007 0.54948 0.95904 0.0
C103 C 0.15414 0.58896 0.99606 0.0
H104 H 0.04312 0.57806 0.06292 0.0
C105 C 0.11862 0.59843 0.03389 0.0
C106 C 0.06967 0.56896 0.03443 0.0
H107 H 0.12864 0.62903 0.06229 0.0
H108 H 0.83249 0.40694 0.93535 0.0
H109 H 0.91673 0.45886 0.93762 0.0
H110 H 0.90423 0.45662 0.13382 0.0
H111 H 0.8191 0.4051 0.13159 0.0
H112 H 0.97889 0.51225 0.08162 0.0
H113 H -0.00496 0.47519 0.95513 0.0
H114 H 0.08149 0.48997 0.93019 0.0
H115 H 0.1669 0.5411 0.93001 0.0
C116 C 0.42455 0.84698 0.03667 0.0
C117 C 0.41218 0.8227 0.98186 0.0
C118 C 0.44985 0.89469 0.03664 0.0
C119 C 0.46369 0.91934 0.98167 0.0
C120 C 0.45053 0.89528 0.927 0.0
C121 C 0.42528 0.84746 0.92699 0.0
C122 C 0.49024 0.97021 0.97992 0.0
C123 C 0.51907 0.99373 0.02377 0.0
C124 C 0.5452 0.04466 0.02284 0.0
C125 C 0.58665 0.06391 0.05654 0.0
C126 C 0.61165 0.11172 0.0578 0.0
C127 C 0.59533 0.14118 0.02586 0.0
H128 H 0.49602 0.06124 0.96647 0.0
C129 C 0.55366 0.1222 0.99272 0.0
C130 C 0.5287 0.07443 0.99127 0.0
H131 H 0.54005 0.14444 0.96847 0.0
H132 H 0.41464 0.82918 0.07989 0.0
H133 H 0.45769 0.9121 0.07991 0.0
H134 H 0.46021 0.91347 0.88404 0.0
H135 H 0.41611 0.82998 0.88396 0.0
H136 H 0.48745 0.98832 0.93978 0.0
H137 H 0.5256 0.97491 0.0609 0.0
H138 H 0.59993 0.04187 0.08169 0.0
H139 H 0.64387 0.12569 0.08346 0.0
C140 C 0.31788 0.70707 0.64518 0.0
C141 C 0.34088 0.67867 0.66711 0.0
C142 C 0.31881 0.71441 0.58258 0.0
C143 C 0.34273 0.69323 0.54084 0.0
C144 C 0.36659 0.66582 0.56341 0.0
C145 C 0.36536 0.65833 0.62558 0.0
C146 C 0.34343 0.69745 0.47362 0.0
C147 C 0.31485 0.71427 0.44405 0.0
C148 C 0.31494 0.71391 0.37656 0.0
C149 C 0.30455 0.74838 0.34687 0.0
C150 C 0.30528 0.74916 0.28337 0.0
C151 C 0.31576 0.71501 0.24831 0.0
H152 H 0.33022 0.65077 0.36268 0.0
C153 C 0.32451 0.67964 0.27821 0.0
C154 C 0.32401 0.67901 0.34148 0.0
H155 H 0.33213 0.65246 0.25275 0.0
H156 H 0.29787 0.7224 0.6762 0.0
H157 H 0.30049 0.73633 0.56758 0.0
H158 H 0.38547 0.64916 0.53269 0.0
H159 H 0.38334 0.63618 0.64121 0.0
H160 H 0.36823 0.68458 0.44694 0.0
H161 H 0.291 0.72903 0.46906 0.0
H162 H 0.29672 0.77527 0.3728 0.0
H163 H 0.29804 0.77673 0.26182 0.0
C164 C 0.59273 0.29787 0.33149 0.0
C165 C 0.63355 0.31217 0.28968 0.0
C166 C 0.59895 0.3012 0.39403 0.0
C167 C 0.64612 0.31956 0.41537 0.0
C168 C 0.68661 0.33414 0.37347 0.0
C169 C 0.6805 0.33004 0.31141 0.0
C170 C 0.65522 0.32535 0.48063 0.0
C171 C 0.6277 0.29594 0.52404 0.0
C172 C 0.64197 0.29907 0.58778 0.0
C173 C 0.60624 0.27913 0.63463 0.0
C174 C 0.61902 0.28092 0.69482 0.0
C175 C 0.66786 0.30284 0.70923 0.0
H176 H 0.72025 0.33337 0.56757 0.0
C177 C 0.70365 0.32167 0.66211 0.0
C178 C 0.69103 0.31962 0.60224 0.0
H179 H 0.74174 0.33813 0.67143 0.0
H180 H 0.55613 0.28415 0.31592 0.0
H181 H 0.56697 0.29045 0.42536 0.0
H182 H 0.72329 0.34854 0.38883 0.0
H183 H 0.71272 0.34176 0.28044 0.0
H184 H 0.68798 0.35364 0.49225 0.0
H185 H 0.59449 0.26808 0.51253 0.0
H186 H 0.56838 0.26203 0.62463 0.0
H187 H 0.59077 0.26417 0.72946 0.0
loop_
_geom_bond_atom_site_label_1
_geom_bond_atom_site_label_2
_geom_bond_distance
_geom_bond_site_symmetry_2
_ccdc_geom_bond_type
Co0 O3 1.970 . S
Co0 N17 1.989 . S
Co0 O25 1.967 . S
Co0 O32 1.920 . S
Co1 O4 1.966 . S
Co1 N10 2.022 . S
Co1 N18 1.993 . S
Co1 O26 1.941 . S
C2 O3 1.258 . S
C2 O4 1.263 1_554 S
O3 Co0 1.970 . S
O3 C2 1.258 . S
O4 Co1 1.966 . S
O4 C2 1.263 1_556 S
C5 O6 1.235 . S
C5 O32 1.289 . S
O6 C5 1.235 . S
C7 C9 1.400 . S
C7 N10 1.351 . S
C7 C12 1.501 . S
C8 C9 1.387 . S
C8 N11 1.341 . S
C9 C7 1.400 . S
C9 C8 1.387 . S
N10 Co1 2.022 . S
N10 C7 1.351 . S
N10 N11 1.365 . S
N11 C8 1.341 . S
N11 N10 1.365 . S
N11 H31 0.862 . S
C12 C7 1.501 . S
C12 H13 0.961 . S
C12 H14 0.961 . S
C12 H15 0.960 . S
H13 C12 0.961 . S
H14 C12 0.961 . S
H15 C12 0.960 . S
C16 N17 1.342 . S
C16 C20 1.401 . S
C16 C21 1.499 . S
N17 Co0 1.989 . S
N17 C16 1.342 . S
N17 N18 1.388 1_554 S
N18 Co1 1.993 . S
N18 N17 1.388 1_556 S
N18 C19 1.346 . S
C19 N18 1.346 . S
C19 C20 1.396 1_556 S
C19 C29 1.510 . S
C20 C16 1.401 . S
C20 C19 1.396 1_554 S
C21 C16 1.499 . S
C21 H22 0.959 . S
C21 H23 0.960 . S
C21 H24 0.961 . S
H22 C21 0.959 . S
H23 C21 0.960 . S
H24 C21 0.961 . S
O25 Co0 1.967 . S
O25 C33 1.258 . S
O26 Co1 1.941 . S
O26 C33 1.266 1_556 S
H27 C29 0.959 . S
H28 C29 0.961 . S
C29 C19 1.510 . S
C29 H27 0.959 . S
C29 H28 0.961 . S
C29 H30 0.960 . S
H30 C29 0.960 . S
H31 N11 0.862 . S
O32 Co0 1.920 . S
O32 C5 1.289 . S
C33 O25 1.258 . S
C33 O26 1.266 1_554 S
Co34 O37 1.970 . S
Co34 N51 1.989 . S
Co34 O59 1.967 . S
Co34 O66 1.920 . S
Co35 O38 1.966 . S
Co35 N44 2.022 . S
Co35 N52 1.993 . S
Co35 O60 1.941 . S
C36 O37 1.258 . S
C36 O38 1.263 1_554 S
O37 Co34 1.970 . S
O37 C36 1.258 . S
O38 Co35 1.966 . S
O38 C36 1.263 1_556 S
C39 O40 1.235 . S
C39 O66 1.289 . S
O40 C39 1.235 . S
C41 C43 1.400 . S
C41 N44 1.351 . S
C41 C46 1.501 . S
C42 C43 1.387 . S
C42 N45 1.341 . S
C43 C41 1.400 . S
C43 C42 1.387 . S
N44 Co35 2.022 . S
N44 C41 1.351 . S
N44 N45 1.365 . S
N45 C42 1.341 . S
N45 N44 1.365 . S
N45 H65 0.862 . S
C46 C41 1.501 . S
C46 H47 0.961 . S
C46 H48 0.961 . S
C46 H49 0.960 . S
H47 C46 0.961 . S
H48 C46 0.961 . S
H49 C46 0.960 . S
C50 N51 1.342 . S
C50 C54 1.401 . S
C50 C55 1.499 . S
N51 Co34 1.989 . S
N51 C50 1.342 . S
N51 N52 1.388 1_554 S
N52 Co35 1.993 . S
N52 N51 1.388 1_556 S
N52 C53 1.346 . S
C53 N52 1.346 . S
C53 C54 1.396 1_556 S
C53 C63 1.510 . S
C54 C50 1.401 . S
C54 C53 1.396 1_554 S
C55 C50 1.499 . S
C55 H56 0.959 . S
C55 H57 0.960 . S
C55 H58 0.961 . S
H56 C55 0.959 . S
H57 C55 0.960 . S
H58 C55 0.961 . S
O59 Co34 1.967 . S
O59 C67 1.258 . S
O60 Co35 1.941 . S
O60 C67 1.266 1_556 S
H61 C63 0.959 . S
H62 C63 0.961 . S
C63 C53 1.510 . S
C63 H61 0.959 . S
C63 H62 0.961 . S
C63 H64 0.960 . S
H64 C63 0.960 . S
H65 N45 0.862 . S
O66 Co34 1.920 . S
O66 C39 1.289 . S
C67 O59 1.258 . S
C67 O60 1.266 1_554 S
C68 C69 1.386 . S
C68 C70 1.383 . S
C68 H84 0.951 . S
C69 C68 1.386 . S
C69 C73 1.383 1_554 S
C70 C68 1.383 . S
C70 C71 1.402 1_554 S
C70 H85 0.951 . S
C71 C70 1.402 1_556 S
C71 C72 1.375 . S
C71 C74 1.481 . S
C72 C71 1.375 . S
C72 C73 1.367 . S
C72 H86 0.951 . S
C73 C69 1.383 1_556 S
C73 C72 1.367 . S
C73 H87 0.950 . S
C74 C71 1.481 . S
C74 C75 1.297 1_556 S
C74 H88 0.950 . S
C75 C74 1.297 1_554 S
C75 C76 1.479 . S
C75 H89 0.950 . S
C76 C75 1.479 . S
C76 C77 1.375 . S
C76 C82 1.404 1_554 S
C77 C76 1.375 . S
C77 C78 1.369 . S
C77 H90 0.950 . S
C78 C77 1.369 . S
C78 C79 1.392 . S
C78 H91 0.951 . S
C79 C78 1.392 . S
C79 C81 1.384 1_554 S
H80 C82 0.949 . S
C81 C79 1.384 1_556 S
C81 C82 1.385 . S
C81 H83 0.950 . S
C82 C76 1.404 1_556 S
C82 H80 0.949 . S
C82 C81 1.385 . S
H83 C81 0.950 . S
H84 C68 0.951 . S
H85 C70 0.951 . S
H86 C72 0.951 . S
H87 C73 0.950 . S
H88 C74 0.950 . S
H89 C75 0.950 . S
H90 C77 0.950 . S
H91 C78 0.951 . S
C92 C93 1.386 . S
C92 C94 1.383 1_554 S
C92 H108 0.951 1_554 S
C93 C92 1.386 . S
C93 C97 1.383 . S
C94 C92 1.383 1_556 S
C94 C95 1.402 1_556 S
C94 H109 0.951 . S
C95 C94 1.402 1_554 S
C95 C96 1.375 . S
C95 C98 1.481 . S
C96 C95 1.375 . S
C96 C97 1.367 . S
C96 H110 0.951 . S
C97 C93 1.383 . S
C97 C96 1.367 . S
C97 H111 0.950 . S
C98 C95 1.481 . S
C98 C99 1.297 1_654 S
C98 H112 0.950 . S
C99 C98 1.297 1_456 S
C99 C100 1.479 . S
C99 H113 0.950 . S
C100 C99 1.479 . S
C100 C101 1.375 . S
C100 C106 1.404 . S
C101 C100 1.375 . S
C101 C102 1.370 . S
C101 H114 0.950 . S
C102 C101 1.370 . S
C102 C103 1.391 1_556 S
C102 H115 0.951 . S
C103 C102 1.391 1_554 S
C103 C105 1.384 . S
H104 C106 0.949 . S
C105 C103 1.384 . S
C105 C106 1.385 1_554 S
C105 H107 0.950 . S
C106 C100 1.404 . S
C106 H104 0.949 . S
C106 C105 1.385 1_556 S
H107 C105 0.950 . S
H108 C92 0.951 1_556 S
H109 C94 0.951 . S
H110 C96 0.951 . S
H111 C97 0.950 . S
H112 C98 0.950 . S
H113 C99 0.950 . S
H114 C101 0.950 . S
H115 C102 0.951 . S
C116 C117 1.386 . S
C116 C118 1.383 . S
C116 H132 0.951 . S
C117 C116 1.386 . S
C117 C121 1.383 1_554 S
C118 C116 1.383 . S
C118 C119 1.402 1_554 S
C118 H133 0.951 . S
C119 C118 1.402 1_556 S
C119 C120 1.375 . S
C119 C122 1.481 . S
C120 C119 1.375 . S
C120 C121 1.367 . S
C120 H134 0.951 . S
C121 C117 1.383 1_556 S
C121 C120 1.367 . S
C121 H135 0.950 . S
C122 C119 1.481 . S
C122 C123 1.297 . S
C122 H136 0.950 . S
C123 C122 1.297 . S
C123 C124 1.479 1_565 S
C123 H137 0.950 1_556 S
C124 C123 1.479 1_545 S
C124 C125 1.375 1_556 S
C124 C130 1.404 . S
C125 C124 1.375 1_554 S
C125 C126 1.369 . S
C125 H138 0.950 . S
C126 C125 1.369 . S
C126 C127 1.392 . S
C126 H139 0.951 . S
C127 C126 1.392 . S
C127 C129 1.384 1_554 S
H128 C130 0.949 . S
C129 C127 1.384 1_556 S
C129 C130 1.385 . S
C129 H131 0.950 . S
C130 C124 1.404 . S
C130 H128 0.949 . S
C130 C129 1.385 . S
H131 C129 0.950 . S
H132 C116 0.951 . S
H133 C118 0.951 . S
H134 C120 0.951 . S
H135 C121 0.950 . S
H136 C122 0.950 . S
H137 C123 0.950 1_554 S
H138 C125 0.950 . S
H139 C126 0.951 . S
C140 C141 1.386 . S
C140 C142 1.383 . S
C140 H156 0.951 . S
C141 C140 1.386 . S
C141 C145 1.383 . S
C142 C140 1.383 . S
C142 C143 1.402 . S
C142 H157 0.951 . S
C143 C142 1.402 . S
C143 C144 1.375 . S
C143 C146 1.481 . S
C144 C143 1.375 . S
C144 C145 1.367 . S
C144 H158 0.951 . S
C145 C141 1.383 . S
C145 C144 1.367 . S
C145 H159 0.950 . S
C146 C143 1.481 . S
C146 C147 1.297 . S
C146 H160 0.950 . S
C147 C146 1.297 . S
C147 C148 1.479 . S
C147 H161 0.950 . S
C148 C147 1.479 . S
C148 C149 1.375 . S
C148 C154 1.404 . S
C149 C148 1.375 . S
C149 C150 1.369 . S
C149 H162 0.950 . S
C150 C149 1.369 . S
C150 C151 1.392 . S
C150 H163 0.951 . S
C151 C150 1.392 . S
C151 C153 1.384 . S
H152 C154 0.949 . S
C153 C151 1.384 . S
C153 C154 1.385 . S
C153 H155 0.950 . S
C154 C148 1.404 . S
C154 H152 0.949 . S
C154 C153 1.385 . S
H155 C153 0.950 . S
H156 C140 0.951 . S
H157 C142 0.951 . S
H158 C144 0.951 . S
H159 C145 0.950 . S
H160 C146 0.950 . S
H161 C147 0.950 . S
H162 C149 0.950 . S
H163 C150 0.951 . S
C164 C165 1.386 . S
C164 C166 1.383 . S
C164 H180 0.951 . S
C165 C164 1.386 . S
C165 C169 1.383 . S
C166 C164 1.383 . S
C166 C167 1.402 . S
C166 H181 0.951 . S
C167 C166 1.402 . S
C167 C168 1.375 . S
C167 C170 1.481 . S
C168 C167 1.375 . S
C168 C169 1.367 . S
C168 H182 0.951 . S
C169 C165 1.383 . S
C169 C168 1.367 . S
C169 H183 0.950 . S
C170 C167 1.481 . S
C170 C171 1.297 . S
C170 H184 0.950 . S
C171 C170 1.297 . S
C171 C172 1.479 . S
C171 H185 0.950 . S
C172 C171 1.479 . S
C172 C173 1.375 . S
C172 C178 1.404 . S
C173 C172 1.375 . S
C173 C174 1.369 . S
C173 H186 0.950 . S
C174 C173 1.369 . S
C174 C175 1.392 . S
C174 H187 0.951 . S
C175 C174 1.392 . S
C175 C177 1.384 . S
H176 C178 0.949 . S
C177 C175 1.384 . S
C177 C178 1.385 . S
C177 H179 0.950 . S
C178 C172 1.404 . S
C178 H176 0.949 . S
C178 C177 1.385 . S
H179 C177 0.950 . S
H180 C164 0.951 . S
H181 C166 0.951 . S
H182 C168 0.951 . S
H183 C169 0.950 . S
H184 C170 0.950 . S
H185 C171 0.950 . S
H186 C173 0.950 . S
H187 C174 0.951 . S
C69 C33 1.541 . S
C79 C36 1.524 . S
C93 C67 1.435 . S
C103 C20 1.436 . S
C117 C2 1.537 . S
C127 C54 1.531 . S
C141 C9 1.384 . S
C151 C5 1.456 . S
C165 C39 1.488 . S
C175 C43 1.372 . S
