# Generated by pormake.
# Topology qtz-e, (6)-cn, num edge types: 1
# Building blocks:
#     Node 0, Type 0, BuildingBlock: CIFDUS_clean_sbu_1, # of connection points: 6
#     Node 1, Type 0, BuildingBlock: CIFDUS_clean_sbu_1, # of connection points: 6
#     Node 2, Type 0, BuildingBlock: CIFDUS_clean_sbu_1, # of connection points: 6
#     Node 3, Type 0, BuildingBlock: CIFDUS_clean_sbu_1, # of connection points: 6
#     Node 4, Type 0, BuildingBlock: CIFDUS_clean_sbu_1, # of connection points: 6
#     Node 5, Type 0, BuildingBlock: CIFDUS_clean_sbu_1, # of connection points: 6
#     Edge 6, Type (0, 0), BuildingBlock: EYOCIG_clean_linker_4, # of connection points: 2
#     Edge 7, Type (0, 0), BuildingBlock: EYOCIG_clean_linker_4, # of connection points: 2
#     Edge 8, Type (0, 0), BuildingBlock: EYOCIG_clean_linker_4, # of connection points: 2
#     Edge 9, Type (0, 0), BuildingBlock: EYOCIG_clean_linker_4, # of connection points: 2
#     Edge 10, Type (0, 0), BuildingBlock: EYOCIG_clean_linker_4, # of connection points: 2
#     Edge 11, Type (0, 0), BuildingBlock: EYOCIG_clean_linker_4, # of connection points: 2
#     Edge 12, Type (0, 0), BuildingBlock: EYOCIG_clean_linker_4, # of connection points: 2
#     Edge 13, Type (0, 0), BuildingBlock: EYOCIG_clean_linker_4, # of connection points: 2
#     Edge 14, Type (0, 0), BuildingBlock: EYOCIG_clean_linker_4, # of connection points: 2
#     Edge 15, Type (0, 0), BuildingBlock: EYOCIG_clean_linker_4, # of connection points: 2
#     Edge 16, Type (0, 0), BuildingBlock: EYOCIG_clean_linker_4, # of connection points: 2
#     Edge 17, Type (0, 0), BuildingBlock: EYOCIG_clean_linker_4, # of connection points: 2
#     Edge 18, Type (0, 0), BuildingBlock: EYOCIG_clean_linker_4, # of connection points: 2
#     Edge 19, Type (0, 0), BuildingBlock: EYOCIG_clean_linker_4, # of connection points: 2
#     Edge 20, Type (0, 0), BuildingBlock: EYOCIG_clean_linker_4, # of connection points: 2
#     Edge 21, Type (0, 0), BuildingBlock: EYOCIG_clean_linker_4, # of connection points: 2
#     Edge 22, Type (0, 0), BuildingBlock: EYOCIG_clean_linker_4, # of connection points: 2
#     Edge 23, Type (0, 0), BuildingBlock: EYOCIG_clean_linker_4, # of connection points: 2
# Relax obj value: 0.338
# Max RMSD: 0.227
# Mean RMSD: 0.227
data_MOF--net-qtz-e--node1-CIFDUS_clean_sbu_1--edge1-EYOCIG_clean_linker_4
_symmetry_space_group_name_H-M    P1
_symmetry_Int_Tables_number       1
_symmetry_cell_setting            triclinic
loop_
_symmetry_equiv_pos_as_xyz
'x, y, z'
_cell_length_a     22.647073
_cell_length_b     22.633017
_cell_length_c     25.137702
_cell_angle_alpha  90.023619
_cell_angle_beta   90.041637
_cell_angle_gamma 119.97471
loop_
_atom_site_label
_atom_site_type_symbol
_atom_site_fract_x
_atom_site_fract_y
_atom_site_fract_z
_atom_type_partial_charge
O0 O 0.28782 0.42532 0.03262 0.0
Mn1 Mn 0.20533 0.4286 -0.00438 0.0
O2 O 0.36915 0.53709 0.0429 0.0
Mn3 Mn 0.32953 0.57752 0.00495 0.0
O4 O 0.12899 0.4406 0.96053 0.0
O5 O 0.16592 0.33417 0.96622 0.0
Mn6 Mn 0.07578 0.28827 0.97102 0.0
O7 O 0.14373 0.38985 0.06549 0.0
O8 O 0.04155 0.33907 0.93667 0.0
O9 O 0.26213 0.46068 0.92607 0.0
O10 O 0.33798 0.57281 0.93216 0.0
O11 O 0.10335 0.23559 0.93169 0.0
O12 O 0.06077 0.28238 0.04429 0.0
C13 C 0.24231 0.57543 0.03998 0.0
C14 C 0.34699 0.47347 0.04878 0.0
C15 C 0.07024 0.40398 0.93964 0.0
C16 C 0.16441 0.28666 0.93692 0.0
C17 C 0.09056 0.33161 0.07747 0.0
C18 C 0.30962 0.51658 0.90686 0.0
O19 O 0.24326 0.52426 0.01946 0.0
O20 O 0.3001 0.6316 0.038 0.0
O21 O 0.8573 0.29083 0.36695 0.0
Mn22 Mn 0.77094 0.20899 0.32998 0.0
O23 O 0.82693 0.37176 0.3804 0.0
Mn24 Mn 0.7468 0.33344 0.34261 0.0
O25 O 0.68207 0.13323 0.29494 0.0
O26 O 0.82544 0.16976 0.29892 0.0
Mn27 Mn 0.78081 0.07947 0.30352 0.0
O28 O 0.74886 0.14657 0.39922 0.0
O29 O 0.6956 0.04586 0.26967 0.0
O30 O 0.79471 0.26703 0.26118 0.0
O31 O 0.75981 0.34382 0.26984 0.0
O32 O 0.8605 0.10656 0.26384 0.0
O33 O 0.77245 0.06343 0.37667 0.0
C34 C 0.66162 0.24498 0.37639 0.0
C35 C 0.86855 0.34956 0.38453 0.0
C36 C 0.6596 0.07472 0.27347 0.0
C37 C 0.87108 0.16784 0.26942 0.0
C38 C 0.75372 0.0931 0.41049 0.0
C39 C 0.78676 0.31547 0.24334 0.0
O40 O 0.71383 0.24674 0.35543 0.0
O41 O 0.66327 0.30287 0.37591 0.0
O42 O 0.56042 0.85871 0.69939 0.0
Mn43 Mn 0.55725 0.773 0.66232 0.0
O44 O 0.44861 0.8277 0.71029 0.0
Mn45 Mn 0.40802 0.74736 0.67264 0.0
O46 O 0.5452 0.68455 0.62728 0.0
O47 O 0.65136 0.82807 0.63226 0.0
Mn48 Mn 0.69731 0.78378 0.63731 0.0
O49 O 0.59681 0.75072 0.73202 0.0
O50 O 0.64657 0.69855 0.60324 0.0
O51 O 0.52401 0.79717 0.59307 0.0
O52 O 0.41179 0.76008 0.59981 0.0
O53 O 0.74996 0.86369 0.59786 0.0
O54 O 0.70408 0.77528 0.71053 0.0
C55 C 0.4118 0.6631 0.70791 0.0
C56 C 0.51219 0.86942 0.71588 0.0
C57 C 0.58173 0.66233 0.60637 0.0
C58 C 0.69901 0.8739 0.60298 0.0
C59 C 0.65517 0.75604 0.74387 0.0
C60 C 0.46772 0.78828 0.57422 0.0
O61 O 0.46211 0.71518 0.68674 0.0
O62 O 0.35524 0.66401 0.70631 0.0
O63 O 0.69707 0.56138 0.03081 0.0
Mn64 Mn 0.78099 0.56103 -0.00612 0.0
O65 O 0.61669 0.44866 0.03717 0.0
Mn66 Mn 0.6592 0.41046 -1e-05 0.0
O67 O 0.85874 0.55141 0.95896 0.0
O68 O 0.81928 0.65589 0.96569 0.0
Mn69 Mn 0.90935 0.70293 0.97136 0.0
O70 O 0.84159 0.59928 0.06438 0.0
O71 O 0.94551 0.65401 0.93675 0.0
O72 O 0.72508 0.52955 0.92373 0.0
O73 O 0.65315 0.41636 0.92707 0.0
O74 O 0.88116 0.75534 0.93242 0.0
O75 O 0.92338 0.70776 0.04471 0.0
C76 C 0.74614 0.41496 0.03796 0.0
C77 C 0.63777 0.51177 0.04517 0.0
C78 C 0.91768 0.58913 0.93888 0.0
C79 C 0.8204 0.70356 0.93684 0.0
C80 C 0.8939 0.65779 0.07721 0.0
C81 C 0.67984 0.47341 0.90306 0.0
O82 O 0.74455 0.46525 0.01646 0.0
O83 O 0.68949 0.35781 0.03436 0.0
O84 O 0.13057 0.69949 0.36451 0.0
Mn85 Mn 0.21431 0.78376 0.32745 0.0
O86 O 0.1635 0.61953 0.37078 0.0
Mn87 Mn 0.24369 0.66234 0.33311 0.0
O88 O 0.30117 0.86201 0.29247 0.0
O89 O 0.15711 0.82154 0.29961 0.0
Mn90 Mn 0.19949 0.91162 0.30544 0.0
O91 O 0.23665 0.84419 0.39804 0.0
O92 O 0.28453 0.94851 0.2708 0.0
O93 O 0.18982 0.72808 0.25719 0.0
O94 O 0.23105 0.65608 0.26026 0.0
O95 O 0.11877 0.88289 0.26652 0.0
O96 O 0.2088 0.92534 0.37881 0.0
C97 C 0.32645 0.74939 0.37062 0.0
C98 C 0.12132 0.64034 0.37895 0.0
C99 C 0.32195 0.92106 0.27266 0.0
C100 C 0.11035 0.82228 0.27079 0.0
C101 C 0.22992 0.89615 0.41109 0.0
C102 C 0.20064 0.68285 0.23639 0.0
O103 O 0.27425 0.74775 0.34964 0.0
O104 O 0.32695 0.69271 0.36684 0.0
O105 O 0.42421 0.13143 0.69866 0.0
Mn106 Mn 0.42504 0.2159 0.66142 0.0
O107 O 0.53661 0.16324 0.7062 0.0
Mn108 Mn 0.57485 0.24295 0.66788 0.0
O109 O 0.43479 0.30324 0.62626 0.0
O110 O 0.33011 0.15953 0.63343 0.0
Mn111 Mn 0.28318 0.20271 0.63889 0.0
O112 O 0.38724 0.23889 0.73184 0.0
O113 O 0.33219 0.28771 0.60426 0.0
O114 O 0.4558 0.19074 0.59132 0.0
O115 O 0.56844 0.22934 0.59513 0.0
O116 O 0.23086 0.12209 0.59985 0.0
O117 O 0.27867 0.21209 0.71224 0.0
C118 C 0.57244 0.32741 0.70396 0.0
C119 C 0.47344 0.12149 0.71376 0.0
C120 C 0.39706 0.32459 0.60625 0.0
C121 C 0.28261 0.11306 0.60442 0.0
C122 C 0.32877 0.23274 0.74468 0.0
C123 C 0.51147 0.20008 0.57094 0.0
O124 O 0.52114 0.27508 0.68375 0.0
O125 O 0.62897 0.32661 0.70061 0.0
C126 C 0.15685 0.62707 0.14341 0.0
C127 C 0.17346 0.65716 0.18493 0.0
C128 C 0.15901 0.59128 0.09878 0.0
C129 C 0.18665 0.57167 0.06887 0.0
C130 C 0.52334 0.15655 0.47786 0.0
C131 C 0.50983 0.1731 0.51937 0.0
C132 C 0.56173 0.15947 0.43336 0.0
C133 C 0.60936 0.1881 0.40398 0.0
C134 C 0.36466 0.5292 0.81348 0.0
C135 C 0.33501 0.516 0.85513 0.0
C136 C 0.399 0.5662 0.76816 0.0
C137 C 0.4171 0.61248 0.7375 0.0
C138 C 0.82863 0.37101 0.1499 0.0
C139 C 0.81193 0.34161 0.19165 0.0
C140 C 0.82699 0.40413 0.10346 0.0
C141 C 0.8 0.4211 0.07077 0.0
C142 C 0.45488 0.83148 0.48111 0.0
C143 C 0.46763 0.81445 0.52271 0.0
C144 C 0.41953 0.83028 0.43511 0.0
C145 C 0.3749 0.80348 0.40289 0.0
C146 C 0.62378 0.46162 0.81018 0.0
C147 C 0.65386 0.47473 0.85169 0.0
C148 C 0.58806 0.42463 0.76517 0.0
C149 C 0.56849 0.37822 0.73439 0.0
C150 C 0.45618 0.47596 0.07975 0.0
C151 C 0.39822 0.45951 0.06811 0.0
C152 C 0.52809 0.5064 0.07897 0.0
C153 C 0.58587 0.52365 0.06617 0.0
C154 C 0.01761 0.53053 0.41329 0.0
C155 C 0.05789 0.5883 0.40024 0.0
C156 C 0.97613 0.4586 0.41433 0.0
C157 C 0.9343 0.40065 0.40293 0.0
C158 C 0.47847 0.01693 0.74724 0.0
C159 C 0.46113 0.0575 0.73463 0.0
C160 C 0.5092 0.97567 0.74754 0.0
C161 C 0.52589 0.93444 0.73547 0.0
C162 C 0.511 0.52956 0.58456 0.0
C163 C 0.5475 0.59026 0.59296 0.0
C164 C 0.46624 0.45732 0.58448 0.0
C165 C 0.43015 0.39657 0.59284 0.0
C166 C 0.00846 0.47487 0.91752 0.0
C167 C 0.03252 0.43826 0.92606 0.0
C168 C 0.98116 0.51981 0.91729 0.0
C169 C 0.9566 0.55603 0.92553 0.0
C170 C 0.45469 0.98559 0.25124 0.0
C171 C 0.39389 0.96057 0.25941 0.0
C172 C 0.52693 0.01326 0.25152 0.0
C173 C 0.58757 0.03735 0.26001 0.0
C174 C 0.29514 0.26862 0.83568 0.0
C175 C 0.31785 0.25421 0.79681 0.0
C176 C 0.2591 0.28333 0.87588 0.0
C177 C 0.22084 0.29104 0.90565 0.0
C178 C 0.96955 0.26203 0.20843 0.0
C179 C 0.92343 0.22419 0.23825 0.0
C180 C 0.02043 0.29756 0.16822 0.0
C181 C 0.05773 0.32015 0.12946 0.0
C182 C 0.7031 0.97195 0.54149 0.0
C183 C 0.69489 0.92599 0.57149 0.0
C184 C 0.71836 0.02267 0.50115 0.0
C185 C 0.73288 0.05994 0.46238 0.0
C186 C 0.69002 0.72102 0.83477 0.0
C187 C 0.66714 0.73527 0.79592 0.0
C188 C 0.72594 0.70635 0.87511 0.0
C189 C 0.76409 0.69877 0.90513 0.0
C190 C 0.01358 0.72753 0.20885 0.0
C191 C 0.05915 0.76582 0.23895 0.0
C192 C 0.96314 0.69155 0.16839 0.0
C193 C 0.9262 0.66886 0.1294 0.0
C194 C 0.28016 0.01591 0.54268 0.0
C195 C 0.28756 0.06159 0.57272 0.0
C196 C 0.26565 0.96542 0.50226 0.0
C197 C 0.25136 0.92849 0.46326 0.0
loop_
_geom_bond_atom_site_label_1
_geom_bond_atom_site_label_2
_geom_bond_distance
_geom_bond_site_symmetry_2
_ccdc_geom_bond_type
O0 Mn1 2.163 1_554 S
O0 C14 1.244 . S
Mn1 O0 2.163 1_556 S
Mn1 O4 2.160 . S
Mn1 O5 2.221 . S
Mn1 O7 2.163 1_556 S
Mn1 O9 2.160 . S
Mn1 O19 2.221 1_556 S
O2 Mn3 2.087 . S
O2 C14 1.256 . S
Mn3 O2 2.087 . S
Mn3 O10 2.089 1_554 S
Mn3 O19 2.290 . S
Mn3 O20 2.251 . S
O4 Mn1 2.160 . S
O4 C15 1.239 . S
O5 Mn1 2.221 . S
O5 Mn6 2.290 . S
O5 C16 1.278 . S
Mn6 O5 2.290 . S
Mn6 O8 2.089 . S
Mn6 O11 2.251 . S
Mn6 O12 2.087 1_556 S
O7 Mn1 2.163 1_554 S
O7 C17 1.244 . S
O8 Mn6 2.089 . S
O8 C15 1.256 . S
O9 Mn1 2.160 . S
O9 C18 1.239 . S
O10 Mn3 2.089 1_556 S
O10 C18 1.256 . S
O11 Mn6 2.251 . S
O11 C16 1.241 . S
O12 Mn6 2.087 1_554 S
O12 C17 1.256 . S
C13 O19 1.278 . S
C13 O20 1.241 . S
C14 O0 1.244 . S
C14 O2 1.256 . S
C15 O4 1.239 . S
C15 O8 1.256 . S
C16 O5 1.278 . S
C16 O11 1.241 . S
C17 O7 1.244 . S
C17 O12 1.256 . S
C18 O9 1.239 . S
C18 O10 1.256 . S
O19 Mn1 2.221 1_554 S
O19 Mn3 2.290 . S
O19 C13 1.278 . S
O20 Mn3 2.251 . S
O20 C13 1.241 . S
O21 Mn22 2.163 . S
O21 C35 1.244 . S
Mn22 O21 2.163 . S
Mn22 O25 2.160 . S
Mn22 O26 2.221 . S
Mn22 O28 2.163 . S
Mn22 O30 2.160 . S
Mn22 O40 2.221 . S
O23 Mn24 2.087 . S
O23 C35 1.256 . S
Mn24 O23 2.087 . S
Mn24 O31 2.089 . S
Mn24 O40 2.290 . S
Mn24 O41 2.251 . S
O25 Mn22 2.160 . S
O25 C36 1.239 . S
O26 Mn22 2.221 . S
O26 Mn27 2.290 . S
O26 C37 1.278 . S
Mn27 O26 2.290 . S
Mn27 O29 2.089 . S
Mn27 O32 2.251 . S
Mn27 O33 2.087 . S
O28 Mn22 2.163 . S
O28 C38 1.244 . S
O29 Mn27 2.089 . S
O29 C36 1.256 . S
O30 Mn22 2.160 . S
O30 C39 1.239 . S
O31 Mn24 2.089 . S
O31 C39 1.256 . S
O32 Mn27 2.251 . S
O32 C37 1.241 . S
O33 Mn27 2.087 . S
O33 C38 1.256 . S
C34 O40 1.278 . S
C34 O41 1.241 . S
C35 O21 1.244 . S
C35 O23 1.256 . S
C36 O25 1.239 . S
C36 O29 1.256 . S
C37 O26 1.278 . S
C37 O32 1.241 . S
C38 O28 1.244 . S
C38 O33 1.256 . S
C39 O30 1.239 . S
C39 O31 1.256 . S
O40 Mn22 2.221 . S
O40 Mn24 2.290 . S
O40 C34 1.278 . S
O41 Mn24 2.251 . S
O41 C34 1.241 . S
O42 Mn43 2.163 . S
O42 C56 1.244 . S
Mn43 O42 2.163 . S
Mn43 O46 2.160 . S
Mn43 O47 2.221 . S
Mn43 O49 2.163 . S
Mn43 O51 2.160 . S
Mn43 O61 2.221 . S
O44 Mn45 2.087 . S
O44 C56 1.256 . S
Mn45 O44 2.087 . S
Mn45 O52 2.089 . S
Mn45 O61 2.290 . S
Mn45 O62 2.251 . S
O46 Mn43 2.160 . S
O46 C57 1.239 . S
O47 Mn43 2.221 . S
O47 Mn48 2.290 . S
O47 C58 1.278 . S
Mn48 O47 2.290 . S
Mn48 O50 2.089 . S
Mn48 O53 2.251 . S
Mn48 O54 2.087 . S
O49 Mn43 2.163 . S
O49 C59 1.244 . S
O50 Mn48 2.089 . S
O50 C57 1.256 . S
O51 Mn43 2.160 . S
O51 C60 1.239 . S
O52 Mn45 2.089 . S
O52 C60 1.256 . S
O53 Mn48 2.251 . S
O53 C58 1.241 . S
O54 Mn48 2.087 . S
O54 C59 1.256 . S
C55 O61 1.278 . S
C55 O62 1.241 . S
C56 O42 1.244 . S
C56 O44 1.256 . S
C57 O46 1.239 . S
C57 O50 1.256 . S
C58 O47 1.278 . S
C58 O53 1.241 . S
C59 O49 1.244 . S
C59 O54 1.256 . S
C60 O51 1.239 . S
C60 O52 1.256 . S
O61 Mn43 2.221 . S
O61 Mn45 2.290 . S
O61 C55 1.278 . S
O62 Mn45 2.251 . S
O62 C55 1.241 . S
O63 Mn64 2.163 1_554 S
O63 C77 1.244 . S
Mn64 O63 2.163 1_556 S
Mn64 O67 2.160 . S
Mn64 O68 2.221 . S
Mn64 O70 2.163 1_556 S
Mn64 O72 2.160 . S
Mn64 O82 2.221 1_556 S
O65 Mn66 2.087 . S
O65 C77 1.256 . S
Mn66 O65 2.087 . S
Mn66 O73 2.089 1_554 S
Mn66 O82 2.290 . S
Mn66 O83 2.251 . S
O67 Mn64 2.160 . S
O67 C78 1.239 . S
O68 Mn64 2.221 . S
O68 Mn69 2.290 . S
O68 C79 1.278 . S
Mn69 O68 2.290 . S
Mn69 O71 2.089 . S
Mn69 O74 2.251 . S
Mn69 O75 2.087 1_556 S
O70 Mn64 2.163 1_554 S
O70 C80 1.244 . S
O71 Mn69 2.089 . S
O71 C78 1.256 . S
O72 Mn64 2.160 . S
O72 C81 1.239 . S
O73 Mn66 2.089 1_556 S
O73 C81 1.256 . S
O74 Mn69 2.251 . S
O74 C79 1.241 . S
O75 Mn69 2.087 1_554 S
O75 C80 1.256 . S
C76 O82 1.278 . S
C76 O83 1.241 . S
C77 O63 1.244 . S
C77 O65 1.256 . S
C78 O67 1.239 . S
C78 O71 1.256 . S
C79 O68 1.278 . S
C79 O74 1.241 . S
C80 O70 1.244 . S
C80 O75 1.256 . S
C81 O72 1.239 . S
C81 O73 1.256 . S
O82 Mn64 2.221 1_554 S
O82 Mn66 2.290 . S
O82 C76 1.278 . S
O83 Mn66 2.251 . S
O83 C76 1.241 . S
O84 Mn85 2.163 . S
O84 C98 1.244 . S
Mn85 O84 2.163 . S
Mn85 O88 2.160 . S
Mn85 O89 2.221 . S
Mn85 O91 2.163 . S
Mn85 O93 2.160 . S
Mn85 O103 2.221 . S
O86 Mn87 2.087 . S
O86 C98 1.256 . S
Mn87 O86 2.087 . S
Mn87 O94 2.089 . S
Mn87 O103 2.290 . S
Mn87 O104 2.251 . S
O88 Mn85 2.160 . S
O88 C99 1.239 . S
O89 Mn85 2.221 . S
O89 Mn90 2.290 . S
O89 C100 1.278 . S
Mn90 O89 2.290 . S
Mn90 O92 2.089 . S
Mn90 O95 2.251 . S
Mn90 O96 2.087 . S
O91 Mn85 2.163 . S
O91 C101 1.244 . S
O92 Mn90 2.089 . S
O92 C99 1.256 . S
O93 Mn85 2.160 . S
O93 C102 1.239 . S
O94 Mn87 2.089 . S
O94 C102 1.256 . S
O95 Mn90 2.251 . S
O95 C100 1.241 . S
O96 Mn90 2.087 . S
O96 C101 1.256 . S
C97 O103 1.278 . S
C97 O104 1.241 . S
C98 O84 1.244 . S
C98 O86 1.256 . S
C99 O88 1.239 . S
C99 O92 1.256 . S
C100 O89 1.278 . S
C100 O95 1.241 . S
C101 O91 1.244 . S
C101 O96 1.256 . S
C102 O93 1.239 . S
C102 O94 1.256 . S
O103 Mn85 2.221 . S
O103 Mn87 2.290 . S
O103 C97 1.278 . S
O104 Mn87 2.251 . S
O104 C97 1.241 . S
O105 Mn106 2.163 . S
O105 C119 1.244 . S
Mn106 O105 2.163 . S
Mn106 O109 2.160 . S
Mn106 O110 2.221 . S
Mn106 O112 2.163 . S
Mn106 O114 2.160 . S
Mn106 O124 2.221 . S
O107 Mn108 2.087 . S
O107 C119 1.256 . S
Mn108 O107 2.087 . S
Mn108 O115 2.089 . S
Mn108 O124 2.290 . S
Mn108 O125 2.251 . S
O109 Mn106 2.160 . S
O109 C120 1.239 . S
O110 Mn106 2.221 . S
O110 Mn111 2.290 . S
O110 C121 1.278 . S
Mn111 O110 2.290 . S
Mn111 O113 2.089 . S
Mn111 O116 2.251 . S
Mn111 O117 2.087 . S
O112 Mn106 2.163 . S
O112 C122 1.244 . S
O113 Mn111 2.089 . S
O113 C120 1.256 . S
O114 Mn106 2.160 . S
O114 C123 1.239 . S
O115 Mn108 2.089 . S
O115 C123 1.256 . S
O116 Mn111 2.251 . S
O116 C121 1.241 . S
O117 Mn111 2.087 . S
O117 C122 1.256 . S
C118 O124 1.278 . S
C118 O125 1.241 . S
C119 O105 1.244 . S
C119 O107 1.256 . S
C120 O109 1.239 . S
C120 O113 1.256 . S
C121 O110 1.278 . S
C121 O116 1.241 . S
C122 O112 1.244 . S
C122 O117 1.256 . S
C123 O114 1.239 . S
C123 O115 1.256 . S
O124 Mn106 2.221 . S
O124 Mn108 2.290 . S
O124 C118 1.278 . S
O125 Mn108 2.251 . S
O125 C118 1.241 . S
C126 C127 1.170 . S
C126 C128 1.380 . S
C127 C126 1.170 . S
C128 C126 1.380 . S
C128 C129 1.170 . S
C129 C128 1.170 . S
C130 C131 1.170 . S
C130 C132 1.380 . S
C131 C130 1.170 . S
C132 C130 1.380 . S
C132 C133 1.170 . S
C133 C132 1.170 . S
C134 C135 1.170 . S
C134 C136 1.380 . S
C135 C134 1.170 . S
C136 C134 1.380 . S
C136 C137 1.170 . S
C137 C136 1.170 . S
C138 C139 1.170 . S
C138 C140 1.380 . S
C139 C138 1.170 . S
C140 C138 1.380 . S
C140 C141 1.170 . S
C141 C140 1.170 . S
C142 C143 1.170 . S
C142 C144 1.380 . S
C143 C142 1.170 . S
C144 C142 1.380 . S
C144 C145 1.170 . S
C145 C144 1.170 . S
C146 C147 1.170 . S
C146 C148 1.380 . S
C147 C146 1.170 . S
C148 C146 1.380 . S
C148 C149 1.170 . S
C149 C148 1.170 . S
C150 C151 1.170 . S
C150 C152 1.380 . S
C151 C150 1.170 . S
C152 C150 1.380 . S
C152 C153 1.170 . S
C153 C152 1.170 . S
C154 C155 1.170 . S
C154 C156 1.380 1_455 S
C155 C154 1.170 . S
C156 C154 1.380 1_655 S
C156 C157 1.170 . S
C157 C156 1.170 . S
C158 C159 1.170 . S
C158 C160 1.380 1_545 S
C159 C158 1.170 . S
C160 C158 1.380 1_565 S
C160 C161 1.170 . S
C161 C160 1.170 . S
C162 C163 1.170 . S
C162 C164 1.380 . S
C163 C162 1.170 . S
C164 C162 1.380 . S
C164 C165 1.170 . S
C165 C164 1.170 . S
C166 C167 1.170 . S
C166 C168 1.380 1_455 S
C167 C166 1.170 . S
C168 C166 1.380 1_655 S
C168 C169 1.170 . S
C169 C168 1.170 . S
C170 C171 1.170 . S
C170 C172 1.380 1_565 S
C171 C170 1.170 . S
C172 C170 1.380 1_545 S
C172 C173 1.170 . S
C173 C172 1.170 . S
C174 C175 1.170 . S
C174 C176 1.380 . S
C175 C174 1.170 . S
C176 C174 1.380 . S
C176 C177 1.170 . S
C177 C176 1.170 . S
C178 C179 1.170 . S
C178 C180 1.380 1_655 S
C179 C178 1.170 . S
C180 C178 1.380 1_455 S
C180 C181 1.170 . S
C181 C180 1.170 . S
C182 C183 1.170 . S
C182 C184 1.380 1_565 S
C183 C182 1.170 . S
C184 C182 1.380 1_545 S
C184 C185 1.170 . S
C185 C184 1.170 . S
C186 C187 1.170 . S
C186 C188 1.380 . S
C187 C186 1.170 . S
C188 C186 1.380 . S
C188 C189 1.170 . S
C189 C188 1.170 . S
C190 C191 1.170 . S
C190 C192 1.380 1_455 S
C191 C190 1.170 . S
C192 C190 1.380 1_655 S
C192 C193 1.170 . S
C193 C192 1.170 . S
C194 C195 1.170 . S
C194 C196 1.380 1_545 S
C195 C194 1.170 . S
C196 C194 1.380 1_565 S
C196 C197 1.170 . S
C197 C196 1.170 . S
C127 C102 1.007 . S
C129 C13 0.898 . S
C131 C123 1.039 . S
C133 C34 0.968 . S
C135 C18 1.022 . S
C137 C55 0.909 . S
C139 C39 0.980 . S
C141 C76 0.946 . S
C143 C60 0.980 . S
C145 C97 0.949 . S
C147 C81 1.039 . S
C149 C118 0.953 . S
C151 C14 1.181 . S
C153 C77 1.193 . S
C155 C98 1.187 . S
C157 C35 1.149 . S
C159 C119 1.161 . S
C161 C56 1.173 . S
C163 C57 1.378 . S
C165 C120 1.377 . S
C167 C15 1.367 . S
C169 C78 1.382 . S
C171 C99 1.369 . S
C173 C36 1.382 . S
C175 C122 1.236 . S
C177 C16 1.225 . S
C179 C37 1.221 . S
C181 C17 1.238 . S
C183 C58 1.204 . S
C185 C38 1.251 . S
C187 C59 1.264 . S
C189 C79 1.201 . S
C191 C100 1.205 . S
C193 C80 1.268 . S
C195 C121 1.245 . S
C197 C101 1.234 . S
