# Generated by pormake.
# Topology acs, (6)-cn, num edge types: 1
# Building blocks:
#     Node 0, Type 0, BuildingBlock: OJICUG_clean_sbu_0, # of connection points: 6
#     Node 1, Type 0, BuildingBlock: OJICUG_clean_sbu_0, # of connection points: 6
#     Edge 2, Type (0, 0), BuildingBlock: FUNLAD_clean_linker_0, # of connection points: 2
#     Edge 3, Type (0, 0), BuildingBlock: FUNLAD_clean_linker_0, # of connection points: 2
#     Edge 4, Type (0, 0), BuildingBlock: FUNLAD_clean_linker_0, # of connection points: 2
#     Edge 5, Type (0, 0), BuildingBlock: FUNLAD_clean_linker_0, # of connection points: 2
#     Edge 6, Type (0, 0), BuildingBlock: FUNLAD_clean_linker_0, # of connection points: 2
#     Edge 7, Type (0, 0), BuildingBlock: FUNLAD_clean_linker_0, # of connection points: 2
# Relax obj value: 0.000
# Max RMSD: 0.000
# Mean RMSD: 0.000
data_MOF--net-acs--node1-OJICUG_clean_sbu_0--edge1-FUNLAD_clean_linker_0
_symmetry_space_group_name_H-M    P1
_symmetry_Int_Tables_number       1
_symmetry_cell_setting            triclinic
loop_
_symmetry_equiv_pos_as_xyz
'x, y, z'
_cell_length_a     24.284553
_cell_length_b     25.051612
_cell_length_c     25.418012
_cell_angle_alpha  90.118128
_cell_angle_beta   89.77312
_cell_angle_gamma 118.99791
loop_
_atom_site_label
_atom_site_type_symbol
_atom_site_fract_x
_atom_site_fract_y
_atom_site_fract_z
_atom_type_partial_charge
Sc0 Sc 0.70388 0.40272 0.23894 0.0
Sc1 Sc 0.56188 0.26298 0.23652 0.0
Sc2 Sc 0.70664 0.26338 0.24526 0.0
O3 O 0.65749 0.30976 0.24027 0.0
C4 C 0.79163 0.37142 0.16606 0.0
C5 C 0.5942 0.37028 0.15488 0.0
C6 C 0.59955 0.1814 0.16394 0.0
C7 C 0.58576 0.3747 0.31164 0.0
C8 C 0.7835 0.37422 0.32349 0.0
C9 C 0.58941 0.18553 0.32105 0.0
O10 O 0.77018 0.40638 0.18073 0.0
O11 O 0.55914 0.31671 0.1722 0.0
O12 O 0.65393 0.20125 0.18365 0.0
O13 O 0.64225 0.4089 0.29677 0.0
O14 O 0.76496 0.32021 0.30735 0.0
O15 O 0.55418 0.20417 0.30058 0.0
O16 O 0.7663 0.40978 0.30239 0.0
O17 O 0.55132 0.32162 0.29292 0.0
O18 O 0.64502 0.20229 0.3048 0.0
O19 O 0.64704 0.40679 0.17539 0.0
O20 O 0.77373 0.31915 0.18626 0.0
O21 O 0.56104 0.19888 0.17949 0.0
Sc22 Sc 0.28468 0.56402 0.73941 0.0
Sc23 Sc 0.42693 0.70349 0.74294 0.0
Sc24 Sc 0.28229 0.70374 0.73888 0.0
O25 O 0.33128 0.65702 0.74036 0.0
C26 C 0.2034 0.59564 0.65892 0.0
C27 C 0.40093 0.59479 0.66335 0.0
C28 C 0.39834 0.78461 0.66313 0.0
C29 C 0.3963 0.59298 0.82048 0.0
C30 C 0.19885 0.59311 0.81654 0.0
C31 C 0.39072 0.78199 0.82063 0.0
O32 O 0.22075 0.55932 0.67821 0.0
O33 O 0.43592 0.64714 0.68321 0.0
O34 O 0.34288 0.76713 0.6801 0.0
O35 O 0.34288 0.5573 0.80045 0.0
O36 O 0.21627 0.64585 0.79755 0.0
O37 O 0.42891 0.76502 0.80319 0.0
O38 O 0.21996 0.55853 0.80001 0.0
O39 O 0.43095 0.64713 0.80428 0.0
O40 O 0.33623 0.76332 0.80148 0.0
O41 O 0.34485 0.55997 0.67892 0.0
O42 O 0.22273 0.64932 0.67628 0.0
O43 O 0.43371 0.7651 0.68175 0.0
C44 C 0.47147 0.85073 0.88571 0.0
C45 C 0.41038 0.82567 0.86494 0.0
C46 C 0.49018 0.89294 0.9268 0.0
C47 C 0.44815 0.91117 0.94778 0.0
C48 C 0.38673 0.88495 0.928 0.0
C49 C 0.36806 0.84292 0.88687 0.0
C50 C 0.46614 0.95668 0.99065 0.0
C51 C 0.52577 0.00057 -0.00092 0.0
C52 C 0.54327 0.04692 0.04117 0.0
C53 C 0.60434 0.07352 0.06177 0.0
C54 C 0.62263 0.11718 0.10158 0.0
C55 C 0.58029 0.13567 0.12127 0.0
H56 H 0.45446 0.04845 0.04382 0.0
C57 C 0.5195 0.10997 0.0998 0.0
C58 C 0.50119 0.06618 0.06007 0.0
H59 H 0.48592 0.12363 0.1136 0.0
H60 H 0.50503 0.83791 0.8702 0.0
H61 H 0.53723 0.91042 0.94227 0.0
H62 H 0.35326 0.89772 0.94387 0.0
H63 H 0.32043 0.82417 0.87222 0.0
H64 H 0.42832 0.95463 0.01499 0.0
H65 H 0.56372 0.00265 0.97493 0.0
H66 H 0.63784 0.05998 0.04743 0.0
H67 H 0.67001 0.13632 0.11689 0.0
C68 C 0.39149 0.5143 0.5995 0.0
C69 C 0.42719 0.57303 0.62095 0.0
C70 C 0.41695 0.49311 0.56066 0.0
C71 C 0.47867 0.53046 0.54204 0.0
C72 C 0.51431 0.589 0.56354 0.0
C73 C 0.48888 0.6102 0.60237 0.0
C74 C 0.50851 0.50941 0.50193 0.0
C75 C 0.47569 0.46442 0.46721 0.0
C76 C 0.50566 0.44273 0.42778 0.0
C77 C 0.47035 0.38363 0.40731 0.0
C78 C 0.49643 0.36134 0.36999 0.0
C79 C 0.55846 0.39797 0.35192 0.0
H80 H 0.59572 0.52627 0.42263 0.0
C81 C 0.59365 0.45744 0.37202 0.0
C82 C 0.56753 0.47972 0.40934 0.0
H83 H 0.64131 0.4872 0.35858 0.0
H84 H 0.34403 0.48419 0.61318 0.0
H85 H 0.38848 0.44697 0.54653 0.0
H86 H 0.56209 0.61857 0.55023 0.0
H87 H 0.51787 0.65564 0.61802 0.0
H88 H 0.55957 0.53244 0.50123 0.0
H89 H 0.42462 0.44134 0.4679 0.0
H90 H 0.42244 0.35434 0.42048 0.0
H91 H 0.46777 0.31539 0.35526 0.0
C92 C 0.85986 0.44959 0.09951 0.0
C93 C 0.83929 0.39241 0.12338 0.0
C94 C 0.90457 0.46936 0.05915 0.0
C95 C 0.93017 0.43254 0.04196 0.0
C96 C 0.90898 0.3751 0.06523 0.0
C97 C 0.86427 0.35529 0.10564 0.0
C98 C 0.97739 0.45153 -0.00114 0.0
C99 C 0.01652 0.51035 0.98647 0.0
C100 C 0.06311 0.52984 0.94284 0.0
C101 C 0.08477 0.5881 0.92114 0.0
C102 C 0.12856 0.60854 0.88008 0.0
C103 C 0.15218 0.57125 0.86 0.0
H104 H 0.07363 0.44837 0.94005 0.0
C105 C 0.13121 0.51319 0.88226 0.0
C106 C 0.08733 0.49274 0.92332 0.0
H107 H 0.1489 0.48349 0.8682 0.0
H108 H 0.84115 0.47911 0.1117 0.0
H109 H 0.91778 0.51296 0.04101 0.0
H110 H 0.92741 0.34555 0.05237 0.0
H111 H 0.8493 0.31082 0.12285 0.0
H112 H 0.97995 0.41541 0.97723 0.0
H113 H 0.01397 0.54631 0.0084 0.0
H114 H 0.06735 0.61784 0.93572 0.0
H115 H 0.14387 0.65368 0.86419 0.0
C116 C 0.38805 0.85633 0.60029 0.0
C117 C 0.42338 0.83008 0.62016 0.0
C118 C 0.41249 0.90012 0.56044 0.0
C119 C 0.47298 0.91873 0.5398 0.0
C120 C 0.50759 0.89152 0.55882 0.0
C121 C 0.4833 0.84793 0.59871 0.0
C122 C 0.50113 0.96517 0.49769 0.0
C123 C 0.48525 0.009 0.4894 0.0
C124 C 0.51381 0.05518 0.44713 0.0
C125 C 0.47875 0.08084 0.42593 0.0
C126 C 0.50339 0.12341 0.38523 0.0
C127 C 0.56406 0.14173 0.36522 0.0
H128 H 0.60462 0.05771 0.44493 0.0
C129 C 0.59991 0.11734 0.38758 0.0
C130 C 0.57517 0.07465 0.4282 0.0
H131 H 0.6471 0.13099 0.37363 0.0
H132 H 0.34148 0.84319 0.61552 0.0
H133 H 0.38336 0.91838 0.54555 0.0
H134 H 0.554 0.90456 0.54319 0.0
H135 H 0.51171 0.82838 0.61273 0.0
H136 H 0.53713 0.96349 0.47339 0.0
H137 H 0.4491 0.01075 0.51341 0.0
H138 H 0.43168 0.06716 0.44029 0.0
H139 H 0.4746 0.14162 0.3693 0.0
C140 C 0.39027 0.50854 0.87759 0.0
C141 C 0.42052 0.57062 0.86368 0.0
C142 C 0.41533 0.48753 0.91675 0.0
C143 C 0.47125 0.5283 0.94275 0.0
C144 C 0.50025 0.59046 0.92995 0.0
C145 C 0.4755 0.61139 0.8907 0.0
C146 C 0.50018 0.5083 0.98413 0.0
C147 C 0.49277 0.45153 0.98672 0.0
C148 C 0.52157 0.43188 0.0285 0.0
C149 C 0.49173 0.37016 0.04288 0.0
C150 C 0.51587 0.35007 0.08332 0.0
C151 C 0.57101 0.39128 0.10994 0.0
H152 H 0.60363 0.52042 0.04246 0.0
C153 C 0.60232 0.45275 0.09414 0.0
C154 C 0.57792 0.47288 0.0538 0.0
H155 H 0.64523 0.48559 0.11339 0.0
H156 H 0.34758 0.47599 0.85788 0.0
H157 H 0.39031 0.43958 0.92679 0.0
H158 H 0.5429 0.62293 0.94981 0.0
H159 H 0.4998 0.65964 0.88143 0.0
H160 H 0.52967 0.54233 0.01276 0.0
H161 H 0.46317 0.41734 0.95826 0.0
H162 H 0.44876 0.3375 0.02353 0.0
H163 H 0.49081 0.30223 0.094 0.0
C164 C 0.12605 0.51292 0.59988 0.0
C165 C 0.15746 0.57454 0.61521 0.0
C166 C 0.08051 0.49297 0.56033 0.0
C167 C 0.06543 0.53433 0.53534 0.0
C168 C 0.09826 0.5961 0.54946 0.0
C169 C 0.14344 0.61599 0.58914 0.0
C170 C 0.0168 0.51511 0.49373 0.0
C171 C 0.96705 0.45857 0.49115 0.0
C172 C 0.91882 0.43863 0.44915 0.0
C173 C 0.88554 0.37641 0.43656 0.0
C174 C 0.84113 0.35559 0.39629 0.0
C175 C 0.82833 0.39652 0.36798 0.0
H176 H 0.92786 0.52757 0.43179 0.0
C177 C 0.86003 0.45863 0.38178 0.0
C178 C 0.90484 0.47954 0.42198 0.0
H179 H 0.85089 0.49129 0.36112 0.0
H180 H 0.13608 0.47988 0.61878 0.0
H181 H 0.05787 0.44533 0.54918 0.0
H182 H 0.08815 0.62902 0.53036 0.0
H183 H 0.16712 0.66394 0.5995 0.0
H184 H 0.02195 0.54934 0.46511 0.0
H185 H 0.96198 0.42455 0.51999 0.0
H186 H 0.89479 0.34383 0.45728 0.0
H187 H 0.81716 0.30729 0.38719 0.0
loop_
_geom_bond_atom_site_label_1
_geom_bond_atom_site_label_2
_geom_bond_distance
_geom_bond_site_symmetry_2
_ccdc_geom_bond_type
Sc0 O3 2.025 . S
Sc0 O10 2.105 . S
Sc0 O13 2.105 . S
Sc0 O16 2.105 . S
Sc0 O19 2.105 . S
Sc1 O3 2.025 . S
Sc1 O11 2.105 . S
Sc1 O15 2.105 . S
Sc1 O17 2.105 . S
Sc1 O21 2.105 . S
Sc2 O3 2.025 . S
Sc2 O12 2.105 . S
Sc2 O14 2.105 . S
Sc2 O18 2.105 . S
Sc2 O20 2.105 . S
O3 Sc0 2.025 . S
O3 Sc1 2.025 . S
O3 Sc2 2.025 . S
C4 O10 1.268 . S
C4 O20 1.268 . S
C5 O11 1.268 . S
C5 O19 1.268 . S
C6 O12 1.268 . S
C6 O21 1.268 . S
C7 O13 1.268 . S
C7 O17 1.268 . S
C8 O14 1.268 . S
C8 O16 1.268 . S
C9 O15 1.268 . S
C9 O18 1.268 . S
O10 Sc0 2.105 . S
O10 C4 1.268 . S
O11 Sc1 2.105 . S
O11 C5 1.268 . S
O12 Sc2 2.105 . S
O12 C6 1.268 . S
O13 Sc0 2.105 . S
O13 C7 1.268 . S
O14 Sc2 2.105 . S
O14 C8 1.268 . S
O15 Sc1 2.105 . S
O15 C9 1.268 . S
O16 Sc0 2.105 . S
O16 C8 1.268 . S
O17 Sc1 2.105 . S
O17 C7 1.268 . S
O18 Sc2 2.105 . S
O18 C9 1.268 . S
O19 Sc0 2.105 . S
O19 C5 1.268 . S
O20 Sc2 2.105 . S
O20 C4 1.268 . S
O21 Sc1 2.105 . S
O21 C6 1.268 . S
Sc22 O25 2.025 . S
Sc22 O32 2.105 . S
Sc22 O35 2.105 . S
Sc22 O38 2.105 . S
Sc22 O41 2.105 . S
Sc23 O25 2.025 . S
Sc23 O33 2.105 . S
Sc23 O37 2.105 . S
Sc23 O39 2.105 . S
Sc23 O43 2.105 . S
Sc24 O25 2.025 . S
Sc24 O34 2.105 . S
Sc24 O36 2.105 . S
Sc24 O40 2.105 . S
Sc24 O42 2.105 . S
O25 Sc22 2.025 . S
O25 Sc23 2.025 . S
O25 Sc24 2.025 . S
C26 O32 1.268 . S
C26 O42 1.268 . S
C27 O33 1.268 . S
C27 O41 1.268 . S
C28 O34 1.268 . S
C28 O43 1.268 . S
C29 O35 1.268 . S
C29 O39 1.268 . S
C30 O36 1.268 . S
C30 O38 1.268 . S
C31 O37 1.268 . S
C31 O40 1.268 . S
O32 Sc22 2.105 . S
O32 C26 1.268 . S
O33 Sc23 2.105 . S
O33 C27 1.268 . S
O34 Sc24 2.105 . S
O34 C28 1.268 . S
O35 Sc22 2.105 . S
O35 C29 1.268 . S
O36 Sc24 2.105 . S
O36 C30 1.268 . S
O37 Sc23 2.105 . S
O37 C31 1.268 . S
O38 Sc22 2.105 . S
O38 C30 1.268 . S
O39 Sc23 2.105 . S
O39 C29 1.268 . S
O40 Sc24 2.105 . S
O40 C31 1.268 . S
O41 Sc22 2.105 . S
O41 C27 1.268 . S
O42 Sc24 2.105 . S
O42 C26 1.268 . S
O43 Sc23 2.105 . S
O43 C28 1.268 . S
C44 C45 1.386 . S
C44 C46 1.383 . S
C44 H60 0.951 . S
C45 C44 1.386 . S
C45 C49 1.383 . S
C46 C44 1.383 . S
C46 C47 1.402 . S
C46 H61 0.951 . S
C47 C46 1.402 . S
C47 C48 1.375 . S
C47 C50 1.481 . S
C48 C47 1.375 . S
C48 C49 1.367 . S
C48 H62 0.951 . S
C49 C45 1.383 . S
C49 C48 1.367 . S
C49 H63 0.950 . S
C50 C47 1.481 . S
C50 C51 1.297 1_565 S
C50 H64 0.950 1_556 S
C51 C50 1.297 1_545 S
C51 C52 1.479 1_556 S
C51 H65 0.950 . S
C52 C51 1.479 1_554 S
C52 C53 1.375 . S
C52 C58 1.404 . S
C53 C52 1.375 . S
C53 C54 1.369 . S
C53 H66 0.950 . S
C54 C53 1.369 . S
C54 C55 1.392 . S
C54 H67 0.951 . S
C55 C54 1.392 . S
C55 C57 1.384 . S
H56 C58 0.949 . S
C57 C55 1.384 . S
C57 C58 1.385 . S
C57 H59 0.950 . S
C58 C52 1.404 . S
C58 H56 0.949 . S
C58 C57 1.385 . S
H59 C57 0.950 . S
H60 C44 0.951 . S
H61 C46 0.951 . S
H62 C48 0.951 . S
H63 C49 0.950 . S
H64 C50 0.950 1_554 S
H65 C51 0.950 . S
H66 C53 0.950 . S
H67 C54 0.951 . S
C68 C69 1.386 . S
C68 C70 1.383 . S
C68 H84 0.951 . S
C69 C68 1.386 . S
C69 C73 1.383 . S
C70 C68 1.383 . S
C70 C71 1.402 . S
C70 H85 0.951 . S
C71 C70 1.402 . S
C71 C72 1.375 . S
C71 C74 1.481 . S
C72 C71 1.375 . S
C72 C73 1.367 . S
C72 H86 0.951 . S
C73 C69 1.383 . S
C73 C72 1.367 . S
C73 H87 0.950 . S
C74 C71 1.481 . S
C74 C75 1.297 . S
C74 H88 0.950 . S
C75 C74 1.297 . S
C75 C76 1.479 . S
C75 H89 0.950 . S
C76 C75 1.479 . S
C76 C77 1.375 . S
C76 C82 1.404 . S
C77 C76 1.375 . S
C77 C78 1.369 . S
C77 H90 0.950 . S
C78 C77 1.369 . S
C78 C79 1.392 . S
C78 H91 0.951 . S
C79 C78 1.392 . S
C79 C81 1.384 . S
H80 C82 0.949 . S
C81 C79 1.384 . S
C81 C82 1.385 . S
C81 H83 0.950 . S
C82 C76 1.404 . S
C82 H80 0.949 . S
C82 C81 1.385 . S
H83 C81 0.950 . S
H84 C68 0.951 . S
H85 C70 0.951 . S
H86 C72 0.951 . S
H87 C73 0.950 . S
H88 C74 0.950 . S
H89 C75 0.950 . S
H90 C77 0.950 . S
H91 C78 0.951 . S
C92 C93 1.386 . S
C92 C94 1.383 . S
C92 H108 0.951 . S
C93 C92 1.386 . S
C93 C97 1.383 . S
C94 C92 1.383 . S
C94 C95 1.402 . S
C94 H109 0.951 . S
C95 C94 1.402 . S
C95 C96 1.375 . S
C95 C98 1.481 . S
C96 C95 1.375 . S
C96 C97 1.367 . S
C96 H110 0.951 . S
C97 C93 1.383 . S
C97 C96 1.367 . S
C97 H111 0.950 . S
C98 C95 1.481 . S
C98 C99 1.297 1_655 S
C98 H112 0.950 1_655 S
C99 C98 1.297 1_455 S
C99 C100 1.479 1_554 S
C99 H113 0.950 . S
C100 C99 1.479 1_556 S
C100 C101 1.375 . S
C100 C106 1.404 . S
C101 C100 1.375 . S
C101 C102 1.369 . S
C101 H114 0.950 . S
C102 C101 1.369 . S
C102 C103 1.392 . S
C102 H115 0.951 . S
C103 C102 1.392 . S
C103 C105 1.384 . S
H104 C106 0.949 . S
C105 C103 1.384 . S
C105 C106 1.385 . S
C105 H107 0.950 . S
C106 C100 1.404 . S
C106 H104 0.949 . S
C106 C105 1.385 . S
H107 C105 0.950 . S
H108 C92 0.951 . S
H109 C94 0.951 . S
H110 C96 0.951 . S
H111 C97 0.950 . S
H112 C98 0.950 1_455 S
H113 C99 0.950 . S
H114 C101 0.950 . S
H115 C102 0.951 . S
C116 C117 1.386 . S
C116 C118 1.383 . S
C116 H132 0.951 . S
C117 C116 1.386 . S
C117 C121 1.383 . S
C118 C116 1.383 . S
C118 C119 1.402 . S
C118 H133 0.951 . S
C119 C118 1.402 . S
C119 C120 1.375 . S
C119 C122 1.481 1_565 S
C120 C119 1.375 . S
C120 C121 1.367 . S
C120 H134 0.951 . S
C121 C117 1.383 . S
C121 C120 1.367 . S
C121 H135 0.950 . S
C122 C119 1.481 1_545 S
C122 C123 1.297 . S
C122 H136 0.950 . S
C123 C122 1.297 . S
C123 C124 1.479 . S
C123 H137 0.950 1_545 S
C124 C123 1.479 . S
C124 C125 1.375 . S
C124 C130 1.404 . S
C125 C124 1.375 . S
C125 C126 1.369 . S
C125 H138 0.950 . S
C126 C125 1.369 . S
C126 C127 1.392 . S
C126 H139 0.951 . S
C127 C126 1.392 . S
C127 C129 1.384 . S
H128 C130 0.949 . S
C129 C127 1.384 . S
C129 C130 1.385 . S
C129 H131 0.950 . S
C130 C124 1.404 . S
C130 H128 0.949 . S
C130 C129 1.385 . S
H131 C129 0.950 . S
H132 C116 0.951 . S
H133 C118 0.951 . S
H134 C120 0.951 . S
H135 C121 0.950 . S
H136 C122 0.950 . S
H137 C123 0.950 1_565 S
H138 C125 0.950 . S
H139 C126 0.951 . S
C140 C141 1.386 . S
C140 C142 1.383 . S
C140 H156 0.951 . S
C141 C140 1.386 . S
C141 C145 1.383 . S
C142 C140 1.383 . S
C142 C143 1.402 . S
C142 H157 0.951 . S
C143 C142 1.402 . S
C143 C144 1.375 . S
C143 C146 1.481 . S
C144 C143 1.375 . S
C144 C145 1.367 . S
C144 H158 0.951 . S
C145 C141 1.383 . S
C145 C144 1.367 . S
C145 H159 0.950 . S
C146 C143 1.481 . S
C146 C147 1.297 1_556 S
C146 H160 0.950 . S
C147 C146 1.297 1_554 S
C147 C148 1.479 . S
C147 H161 0.950 . S
C148 C147 1.479 . S
C148 C149 1.375 . S
C148 C154 1.404 . S
C149 C148 1.375 . S
C149 C150 1.369 . S
C149 H162 0.950 . S
C150 C149 1.369 . S
C150 C151 1.392 . S
C150 H163 0.951 . S
C151 C150 1.392 . S
C151 C153 1.384 . S
H152 C154 0.949 . S
C153 C151 1.384 . S
C153 C154 1.385 . S
C153 H155 0.950 . S
C154 C148 1.404 . S
C154 H152 0.949 . S
C154 C153 1.385 . S
H155 C153 0.950 . S
H156 C140 0.951 . S
H157 C142 0.951 . S
H158 C144 0.951 . S
H159 C145 0.950 . S
H160 C146 0.950 . S
H161 C147 0.950 . S
H162 C149 0.950 . S
H163 C150 0.951 . S
C164 C165 1.386 . S
C164 C166 1.383 . S
C164 H180 0.951 . S
C165 C164 1.386 . S
C165 C169 1.383 . S
C166 C164 1.383 . S
C166 C167 1.402 . S
C166 H181 0.951 . S
C167 C166 1.402 . S
C167 C168 1.375 . S
C167 C170 1.481 1_455 S
C168 C167 1.375 . S
C168 C169 1.367 . S
C168 H182 0.951 . S
C169 C165 1.383 . S
C169 C168 1.367 . S
C169 H183 0.950 . S
C170 C167 1.481 1_655 S
C170 C171 1.297 . S
C170 H184 0.950 . S
C171 C170 1.297 . S
C171 C172 1.479 . S
C171 H185 0.950 1_655 S
C172 C171 1.479 . S
C172 C173 1.375 . S
C172 C178 1.404 . S
C173 C172 1.375 . S
C173 C174 1.369 . S
C173 H186 0.950 . S
C174 C173 1.369 . S
C174 C175 1.392 . S
C174 H187 0.951 . S
C175 C174 1.392 . S
C175 C177 1.384 . S
H176 C178 0.949 . S
C177 C175 1.384 . S
C177 C178 1.385 . S
C177 H179 0.950 . S
C178 C172 1.404 . S
C178 H176 0.949 . S
C178 C177 1.385 . S
H179 C177 0.950 . S
H180 C164 0.951 . S
H181 C166 0.951 . S
H182 C168 0.951 . S
H183 C169 0.950 . S
H184 C170 0.950 . S
H185 C171 0.950 1_455 S
H186 C173 0.950 . S
H187 C174 0.951 . S
C45 C31 1.470 . S
C55 C6 1.498 . S
C69 C27 1.489 . S
C79 C7 1.439 . S
C93 C4 1.466 . S
C103 C30 1.499 . S
C117 C28 1.458 . S
C127 C9 1.491 . S
C141 C29 1.459 . S
C151 C5 1.491 . S
C165 C26 1.459 . S
C175 C8 1.479 . S
