# Generated by pormake.
# Topology qtz, (4)-cn, num edge types: 1
# Building blocks:
#     Node 0, Type 0, BuildingBlock: GALJAG_clean_sbu_0, # of connection points: 4
#     Node 1, Type 0, BuildingBlock: GALJAG_clean_sbu_0, # of connection points: 4
#     Node 2, Type 0, BuildingBlock: GALJAG_clean_sbu_0, # of connection points: 4
#     Edge 3, Type (0, 0), BuildingBlock: TEMPAE_clean_linker_10, # of connection points: 2
#     Edge 4, Type (0, 0), BuildingBlock: TEMPAE_clean_linker_10, # of connection points: 2
#     Edge 5, Type (0, 0), BuildingBlock: TEMPAE_clean_linker_10, # of connection points: 2
#     Edge 6, Type (0, 0), BuildingBlock: TEMPAE_clean_linker_10, # of connection points: 2
#     Edge 7, Type (0, 0), BuildingBlock: TEMPAE_clean_linker_10, # of connection points: 2
#     Edge 8, Type (0, 0), BuildingBlock: TEMPAE_clean_linker_10, # of connection points: 2
# Relax obj value: 0.004
# Max RMSD: 0.037
# Mean RMSD: 0.037
data_MOF--net-qtz--node1-GALJAG_clean_sbu_0--edge1-TEMPAE_clean_linker_10
_symmetry_space_group_name_H-M    P1
_symmetry_Int_Tables_number       1
_symmetry_cell_setting            triclinic
loop_
_symmetry_equiv_pos_as_xyz
'x, y, z'
_cell_length_a     25.217053
_cell_length_b     25.209642
_cell_length_c     26.79995
_cell_angle_alpha  90.130905
_cell_angle_beta   90.141498
_cell_angle_gamma 120.02851
loop_
_atom_site_label
_atom_site_type_symbol
_atom_site_fract_x
_atom_site_fract_y
_atom_site_fract_z
_atom_type_partial_charge
In0 In -0.00109 0.50585 0.16856 0.0
O1 O 0.94645 0.40554 0.19255 0.0
O2 O 0.92983 0.46909 0.23183 0.0
C3 C 0.07944 0.49444 0.10978 0.0
C4 C 0.91835 0.51592 0.10844 0.0
C5 C 0.07948 0.59688 0.2288 0.0
O6 O 0.05291 0.45897 0.14591 0.0
O7 O 0.06521 0.5353 0.10342 0.0
O8 O 0.05747 0.607 0.19005 0.0
O9 O 0.06059 0.54106 0.23718 0.0
C10 C 0.91753 0.4143 0.22696 0.0
O11 O 0.94325 0.55083 0.14546 0.0
O12 O 0.93427 0.47633 0.10182 0.0
In13 In 0.50368 0.00447 0.50223 0.0
O14 O 0.60443 0.06184 0.47996 0.0
O15 O 0.538 0.06585 0.43382 0.0
C16 C 0.51345 0.92465 0.56329 0.0
C17 C 0.49297 0.08595 0.56063 0.0
C18 C 0.41198 0.92263 0.44343 0.0
O19 O 0.5479 0.94836 0.5261 0.0
O20 O 0.47453 0.94147 0.56968 0.0
O21 O 0.4036 0.95279 0.47706 0.0
O22 O 0.46649 0.93391 0.43952 0.0
C23 C 0.59384 0.08404 0.4416 0.0
O24 O 0.45563 0.05694 0.52586 0.0
O25 O 0.53543 0.07373 0.56585 0.0
In26 In 0.49557 0.50113 0.83555 0.0
O27 O 0.54229 0.60204 0.81336 0.0
O28 O 0.46467 0.53828 0.77135 0.0
C29 C 0.58772 0.51186 0.8941 0.0
C30 C 0.40479 0.49024 0.89552 0.0
C31 C 0.485 0.41049 0.77502 0.0
O32 O 0.59662 0.54737 0.85797 0.0
O33 O 0.53255 0.4713 0.90059 0.0
O34 O 0.45206 0.40019 0.81318 0.0
O35 O 0.52277 0.46629 0.7674 0.0
C36 C 0.50595 0.59333 0.77772 0.0
O37 O 0.39477 0.45609 0.858 0.0
O38 O 0.46036 0.52946 0.9027 0.0
C39 C 0.37014 0.52209 0.97115 0.0
C40 C 0.35548 0.48587 0.92797 0.0
C41 C 0.3241 0.52042 0.00146 0.0
C42 C 0.2619 0.48187 0.98806 0.0
C43 C 0.24675 0.44441 0.94494 0.0
C44 C 0.29381 0.44673 0.91544 0.0
C45 C 0.34206 0.56077 0.04734 0.0
C46 C 0.18093 0.40294 0.9294 0.0
C47 C 0.14241 0.44625 0.0883 0.0
C48 C 0.12437 0.4894 0.07778 0.0
C49 C 0.18654 0.44259 0.05896 0.0
C50 C 0.21295 0.4829 0.01812 0.0
C51 C 0.1941 0.52583 0.00688 0.0
C52 C 0.15013 0.52864 0.03692 0.0
C53 C 0.20568 0.39637 0.07214 0.0
C54 C 0.22104 0.56942 0.96353 0.0
H55 H 0.41777 0.55222 0.98112 0.0
H56 H 0.28228 0.41864 0.88208 0.0
H57 H 0.32639 0.59458 0.04344 0.0
H58 H 0.31933 0.53275 0.08078 0.0
H59 H 0.39236 0.586 0.05378 0.0
H60 H 0.17678 0.37487 0.89603 0.0
H61 H 0.15474 0.37179 0.96042 0.0
H62 H 0.15923 0.43083 0.92086 0.0
H63 H 0.12258 0.41581 0.11985 0.0
H64 H 0.13619 0.56195 0.02853 0.0
H65 H 0.25511 0.42044 0.08192 0.0
H66 H 0.19927 0.36655 0.03951 0.0
H67 H 0.1793 0.36701 0.10404 0.0
H68 H 0.27103 0.5997 0.96929 0.0
H69 H 0.19983 0.59854 0.95874 0.0
H70 H 0.21478 0.54341 0.92847 0.0
C71 C 0.85755 0.3036 0.25043 0.0
C72 C 0.8723 0.36441 0.25879 0.0
C73 C 0.81355 0.25579 0.27978 0.0
C74 C 0.78388 0.26929 0.31841 0.0
C75 C 0.7992 0.33072 0.32738 0.0
C76 C 0.84316 0.37752 0.29739 0.0
C77 C 0.79823 0.19081 0.26905 0.0
C78 C 0.76869 0.34696 0.36833 0.0
C79 C 0.62779 0.1471 0.36421 0.0
C80 C 0.64282 0.12908 0.40902 0.0
C81 C 0.67344 0.19163 0.33375 0.0
C82 C 0.73555 0.21917 0.34873 0.0
C83 C 0.7511 0.20048 0.39358 0.0
C84 C 0.70449 0.1554 0.42313 0.0
C85 C 0.65509 0.20998 0.28598 0.0
C86 C 0.81682 0.2291 0.41089 0.0
H87 H 0.87999 0.29325 0.22063 0.0
H88 H 0.85449 0.42448 0.30408 0.0
H89 H 0.80539 0.17011 0.30304 0.0
H90 H 0.74919 0.16267 0.25854 0.0
H91 H 0.82645 0.18818 0.23843 0.0
H92 H 0.78706 0.39714 0.37137 0.0
H93 H 0.71867 0.32424 0.36119 0.0
H94 H 0.77513 0.32999 0.40472 0.0
H95 H 0.58018 0.12665 0.35303 0.0
H96 H 0.71629 0.14163 0.45778 0.0
H97 H 0.68003 0.20496 0.25394 0.0
H98 H 0.66789 0.25893 0.28804 0.0
H99 H 0.60511 0.18211 0.27851 0.0
H100 H 0.84519 0.22463 0.38143 0.0
H101 H 0.82146 0.20783 0.44566 0.0
H102 H 0.8357 0.27878 0.41777 0.0
C103 C 0.48063 0.85845 0.63896 0.0
C104 C 0.51701 0.87947 0.59607 0.0
C105 C 0.48148 0.81376 0.66948 0.0
C106 C 0.51931 0.78922 0.65656 0.0
C107 C 0.5569 0.81097 0.61373 0.0
C108 C 0.55545 0.85606 0.58404 0.0
C109 C 0.44107 0.79202 0.71506 0.0
C110 C 0.59759 0.78566 0.59867 0.0
C111 C 0.55419 0.70463 0.75692 0.0
C112 C 0.51073 0.6435 0.74614 0.0
C113 C 0.55798 0.75264 0.72779 0.0
C114 C 0.51754 0.73901 0.68683 0.0
C115 C 0.47414 0.6773 0.67542 0.0
C116 C 0.47116 0.6303 0.7053 0.0
C117 C 0.60464 0.81793 0.7412 0.0
C118 C 0.43041 0.66092 0.63191 0.0
H119 H 0.45103 0.87661 0.64854 0.0
H120 H 0.58363 0.87218 0.55089 0.0
H121 H 0.40671 0.74265 0.71104 0.0
H122 H 0.46889 0.79701 0.74874 0.0
H123 H 0.41649 0.81776 0.72117 0.0
H124 H 0.62575 0.80909 0.56539 0.0
H125 H 0.62863 0.79042 0.62992 0.0
H126 H 0.56913 0.73603 0.5902 0.0
H127 H 0.58486 0.71505 0.78848 0.0
H128 H 0.43759 0.58309 0.69671 0.0
H129 H 0.58104 0.84384 0.75041 0.0
H130 H 0.6348 0.84093 0.70885 0.0
H131 H 0.63361 0.82071 0.77353 0.0
H132 H 0.40084 0.68143 0.63739 0.0
H133 H 0.40061 0.61061 0.6272 0.0
H134 H 0.45637 0.68012 0.59691 0.0
C135 C 0.69906 0.5589 0.91496 0.0
C136 C 0.63781 0.51657 0.92597 0.0
C137 C 0.74695 0.5623 0.94422 0.0
C138 C 0.73308 0.52262 0.98553 0.0
C139 C 0.67126 0.4805 0.99724 0.0
C140 C 0.62437 0.47789 0.96723 0.0
C141 C 0.81235 0.60761 0.9305 0.0
C142 C 0.65464 0.43762 0.04112 0.0
C143 C 0.85056 0.48279 0.0333 0.0
C144 C 0.8731 0.51994 0.07593 0.0
C145 C 0.80597 0.48427 0.00292 0.0
C146 C 0.7831 0.52359 0.0157 0.0
C147 C 0.80636 0.56193 0.05829 0.0
C148 C 0.85128 0.55977 0.08786 0.0
C149 C 0.78257 0.44298 0.95762 0.0
C150 C 0.78285 0.60423 0.07318 0.0
H151 H 0.70964 0.58889 0.88308 0.0
H152 H 0.57708 0.44521 0.976 0.0
H153 H 0.83642 0.63804 0.96272 0.0
H154 H 0.83707 0.58281 0.92124 0.0
H155 H 0.81535 0.6364 0.89812 0.0
H156 H 0.60431 0.40904 0.04616 0.0
H157 H 0.67378 0.40683 0.03582 0.0
H158 H 0.675 0.46419 0.07589 0.0
H159 H 0.86748 0.4521 0.02379 0.0
H160 H 0.86859 0.58858 0.1208 0.0
H161 H 0.78778 0.4704 0.92376 0.0
H162 H 0.73301 0.4097 0.96191 0.0
H163 H 0.80704 0.41712 0.95163 0.0
H164 H 0.78791 0.63497 0.04175 0.0
H165 H 0.80732 0.63275 0.10626 0.0
H166 H 0.73329 0.57696 0.08189 0.0
C167 C 0.3745 0.84604 0.37406 0.0
C168 C 0.36195 0.87714 0.41144 0.0
C169 C 0.32749 0.80181 0.34398 0.0
C170 C 0.26644 0.78826 0.35159 0.0
C171 C 0.25353 0.81993 0.38895 0.0
C172 C 0.30152 0.86412 0.41844 0.0
C173 C 0.34309 0.76911 0.30441 0.0
C174 C 0.18895 0.80656 0.39821 0.0
C175 C 0.1529 0.70762 0.24606 0.0
C176 C 0.12505 0.64629 0.26117 0.0
C177 C 0.19846 0.75454 0.27547 0.0
C178 C 0.21602 0.73969 0.32122 0.0
C179 C 0.18695 0.67798 0.33719 0.0
C180 C 0.14202 0.63198 0.30683 0.0
C181 C 0.22877 0.81978 0.25708 0.0
C182 C 0.20403 0.66041 0.38597 0.0
H183 H 0.42116 0.85602 0.36843 0.0
H184 H 0.29162 0.8881 0.44727 0.0
H185 H 0.31924 0.71928 0.31233 0.0
H186 H 0.32693 0.7749 0.26736 0.0
H187 H 0.39308 0.78627 0.3023 0.0
H188 H 0.18681 0.83622 0.42792 0.0
H189 H 0.16916 0.81331 0.36342 0.0
H190 H 0.15971 0.75797 0.40928 0.0
H191 H 0.13996 0.71884 0.21073 0.0
H192 H 0.12036 0.58464 0.31878 0.0
H193 H 0.27833 0.83729 0.25112 0.0
H194 H 0.22486 0.84965 0.28554 0.0
H195 H 0.20837 0.82395 0.22155 0.0
H196 H 0.25265 0.67199 0.38495 0.0
H197 H 0.1751 0.61075 0.39405 0.0
H198 H 0.19942 0.68684 0.41714 0.0
C199 C 0.4457 0.29968 0.75644 0.0
C200 C 0.48112 0.36128 0.74248 0.0
C201 C 0.44429 0.25288 0.72695 0.0
C202 C 0.47872 0.26815 0.68232 0.0
C203 C 0.51334 0.33017 0.66747 0.0
C204 C 0.51433 0.37602 0.69786 0.0
C205 C 0.40714 0.18726 0.7441 0.0
C206 C 0.55025 0.34823 0.61993 0.0
C207 C 0.52998 0.16055 0.6314 0.0
C208 C 0.48798 0.13117 0.59248 0.0
C209 C 0.52685 0.20455 0.66139 0.0
C210 C 0.4807 0.21966 0.6521 0.0
C211 C 0.43775 0.1897 0.61316 0.0
C212 C 0.44185 0.14568 0.58381 0.0
C213 C 0.57338 0.23538 0.70267 0.0
C214 C 0.38804 0.20478 0.60208 0.0
H215 H 0.42001 0.28811 0.79095 0.0
H216 H 0.54154 0.42357 0.6868 0.0
H217 H 0.37446 0.15862 0.71445 0.0
H218 H 0.43794 0.16851 0.75129 0.0
H219 H 0.38103 0.18283 0.77867 0.0
H220 H 0.57236 0.39816 0.61252 0.0
H221 H 0.58642 0.33553 0.62226 0.0
H222 H 0.5204 0.32301 0.58772 0.0
H223 H 0.56565 0.1494 0.63833 0.0
H224 H 0.40924 0.12305 0.55377 0.0
H225 H 0.54977 0.22915 0.73889 0.0
H226 H 0.60072 0.28537 0.69567 0.0
H227 H 0.60518 0.21707 0.70599 0.0
H228 H 0.36006 0.19785 0.63591 0.0
H229 H 0.35727 0.17625 0.57133 0.0
H230 H 0.40891 0.25373 0.5916 0.0
loop_
_geom_bond_atom_site_label_1
_geom_bond_atom_site_label_2
_geom_bond_distance
_geom_bond_site_symmetry_2
_ccdc_geom_bond_type
In0 O1 2.294 1_455 S
In0 O2 2.326 1_455 S
In0 O6 2.266 . S
In0 O7 2.326 . S
In0 O8 2.266 . S
In0 O9 2.326 . S
In0 O11 2.294 1_455 S
In0 O12 2.326 1_455 S
O1 In0 2.294 1_655 S
O1 C10 1.240 . S
O2 In0 2.326 1_655 S
O2 C10 1.252 . S
C3 O6 1.252 . S
C3 O7 1.260 . S
C4 O11 1.240 . S
C4 O12 1.252 . S
C5 O8 1.252 . S
C5 O9 1.260 . S
O6 In0 2.266 . S
O6 C3 1.252 . S
O7 In0 2.326 . S
O7 C3 1.260 . S
O8 In0 2.266 . S
O8 C5 1.252 . S
O9 In0 2.326 . S
O9 C5 1.260 . S
C10 O1 1.240 . S
C10 O2 1.252 . S
O11 In0 2.294 1_655 S
O11 C4 1.240 . S
O12 In0 2.326 1_655 S
O12 C4 1.252 . S
In13 O14 2.294 . S
In13 O15 2.326 . S
In13 O19 2.266 1_545 S
In13 O20 2.326 1_545 S
In13 O21 2.266 1_545 S
In13 O22 2.326 1_545 S
In13 O24 2.294 . S
In13 O25 2.326 . S
O14 In13 2.294 . S
O14 C23 1.240 . S
O15 In13 2.326 . S
O15 C23 1.252 . S
C16 O19 1.252 . S
C16 O20 1.260 . S
C17 O24 1.240 . S
C17 O25 1.252 . S
C18 O21 1.252 . S
C18 O22 1.260 . S
O19 In13 2.266 1_565 S
O19 C16 1.252 . S
O20 In13 2.326 1_565 S
O20 C16 1.260 . S
O21 In13 2.266 1_565 S
O21 C18 1.252 . S
O22 In13 2.326 1_565 S
O22 C18 1.260 . S
C23 O14 1.240 . S
C23 O15 1.252 . S
O24 In13 2.294 . S
O24 C17 1.240 . S
O25 In13 2.326 . S
O25 C17 1.252 . S
In26 O27 2.294 . S
In26 O28 2.326 . S
In26 O32 2.266 . S
In26 O33 2.326 . S
In26 O34 2.266 . S
In26 O35 2.326 . S
In26 O37 2.294 . S
In26 O38 2.326 . S
O27 In26 2.294 . S
O27 C36 1.240 . S
O28 In26 2.326 . S
O28 C36 1.252 . S
C29 O32 1.252 . S
C29 O33 1.260 . S
C30 O37 1.240 . S
C30 O38 1.252 . S
C31 O34 1.252 . S
C31 O35 1.260 . S
O32 In26 2.266 . S
O32 C29 1.252 . S
O33 In26 2.326 . S
O33 C29 1.260 . S
O34 In26 2.266 . S
O34 C31 1.252 . S
O35 In26 2.326 . S
O35 C31 1.260 . S
C36 O27 1.240 . S
C36 O28 1.252 . S
O37 In26 2.294 . S
O37 C30 1.240 . S
O38 In26 2.326 . S
O38 C30 1.252 . S
C39 C40 1.391 . S
C39 C41 1.394 1_556 S
C39 H55 0.931 . S
C40 C39 1.391 . S
C40 C44 1.376 . S
C41 C39 1.394 1_554 S
C41 C42 1.369 1_554 S
C41 C45 1.531 . S
C42 C41 1.369 1_556 S
C42 C43 1.410 . S
C42 C50 1.503 1_556 S
C43 C42 1.410 . S
C43 C44 1.392 . S
C43 C46 1.511 . S
C44 C40 1.376 . S
C44 C43 1.392 . S
C44 H56 0.929 . S
C45 C41 1.531 . S
C45 H57 0.960 . S
C45 H58 0.962 . S
C45 H59 0.960 . S
C46 C43 1.511 . S
C46 H60 0.961 . S
C46 H61 0.961 . S
C46 H62 0.961 . S
C47 C48 1.370 . S
C47 C49 1.363 . S
C47 H63 0.931 . S
C48 C47 1.370 . S
C48 C52 1.408 . S
C49 C47 1.363 . S
C49 C50 1.370 . S
C49 C53 1.524 . S
C50 C42 1.503 1_554 S
C50 C49 1.370 . S
C50 C51 1.403 . S
C51 C50 1.403 . S
C51 C52 1.404 . S
C51 C54 1.539 . S
C52 C48 1.408 . S
C52 C51 1.404 . S
C52 H64 0.930 . S
C53 C49 1.524 . S
C53 H65 0.956 . S
C53 H66 0.961 1_554 S
C53 H67 0.961 . S
C54 C51 1.539 . S
C54 H68 0.958 . S
C54 H69 0.961 1_554 S
C54 H70 0.960 1_554 S
H55 C39 0.931 . S
H56 C44 0.929 . S
H57 C45 0.960 . S
H58 C45 0.962 . S
H59 C45 0.960 . S
H60 C46 0.961 . S
H61 C46 0.961 . S
H62 C46 0.961 . S
H63 C47 0.931 . S
H64 C52 0.930 . S
H65 C53 0.956 . S
H66 C53 0.961 1_556 S
H67 C53 0.961 . S
H68 C54 0.958 . S
H69 C54 0.961 1_556 S
H70 C54 0.960 1_556 S
C71 C72 1.391 . S
C71 C73 1.394 . S
C71 H87 0.931 . S
C72 C71 1.391 . S
C72 C76 1.376 . S
C73 C71 1.394 . S
C73 C74 1.369 . S
C73 C77 1.531 . S
C74 C73 1.369 . S
C74 C75 1.410 . S
C74 C82 1.503 . S
C75 C74 1.410 . S
C75 C76 1.392 . S
C75 C78 1.511 . S
C76 C72 1.376 . S
C76 C75 1.392 . S
C76 H88 0.929 . S
C77 C73 1.531 . S
C77 H89 0.960 . S
C77 H90 0.962 . S
C77 H91 0.960 . S
C78 C75 1.511 . S
C78 H92 0.961 . S
C78 H93 0.961 . S
C78 H94 0.961 . S
C79 C80 1.370 . S
C79 C81 1.363 . S
C79 H95 0.931 . S
C80 C79 1.370 . S
C80 C84 1.408 . S
C81 C79 1.363 . S
C81 C82 1.370 . S
C81 C85 1.524 . S
C82 C74 1.503 . S
C82 C81 1.370 . S
C82 C83 1.403 . S
C83 C82 1.403 . S
C83 C84 1.404 . S
C83 C86 1.539 . S
C84 C80 1.408 . S
C84 C83 1.404 . S
C84 H96 0.930 . S
C85 C81 1.524 . S
C85 H97 0.956 . S
C85 H98 0.961 . S
C85 H99 0.961 . S
C86 C83 1.539 . S
C86 H100 0.958 . S
C86 H101 0.961 . S
C86 H102 0.960 . S
H87 C71 0.931 . S
H88 C76 0.929 . S
H89 C77 0.960 . S
H90 C77 0.962 . S
H91 C77 0.960 . S
H92 C78 0.961 . S
H93 C78 0.961 . S
H94 C78 0.961 . S
H95 C79 0.931 . S
H96 C84 0.930 . S
H97 C85 0.956 . S
H98 C85 0.961 . S
H99 C85 0.961 . S
H100 C86 0.958 . S
H101 C86 0.961 . S
H102 C86 0.960 . S
C103 C104 1.391 . S
C103 C105 1.394 . S
C103 H119 0.931 . S
C104 C103 1.391 . S
C104 C108 1.376 . S
C105 C103 1.394 . S
C105 C106 1.369 . S
C105 C109 1.531 . S
C106 C105 1.369 . S
C106 C107 1.410 . S
C106 C114 1.503 . S
C107 C106 1.410 . S
C107 C108 1.392 . S
C107 C110 1.511 . S
C108 C104 1.376 . S
C108 C107 1.392 . S
C108 H120 0.929 . S
C109 C105 1.531 . S
C109 H121 0.960 . S
C109 H122 0.962 . S
C109 H123 0.960 . S
C110 C107 1.511 . S
C110 H124 0.961 . S
C110 H125 0.961 . S
C110 H126 0.961 . S
C111 C112 1.370 . S
C111 C113 1.363 . S
C111 H127 0.931 . S
C112 C111 1.370 . S
C112 C116 1.408 . S
C113 C111 1.363 . S
C113 C114 1.370 . S
C113 C117 1.524 . S
C114 C106 1.503 . S
C114 C113 1.370 . S
C114 C115 1.403 . S
C115 C114 1.403 . S
C115 C116 1.404 . S
C115 C118 1.539 . S
C116 C112 1.408 . S
C116 C115 1.404 . S
C116 H128 0.930 . S
C117 C113 1.524 . S
C117 H129 0.956 . S
C117 H130 0.961 . S
C117 H131 0.961 . S
C118 C115 1.539 . S
C118 H132 0.958 . S
C118 H133 0.961 . S
C118 H134 0.960 . S
H119 C103 0.931 . S
H120 C108 0.929 . S
H121 C109 0.960 . S
H122 C109 0.962 . S
H123 C109 0.960 . S
H124 C110 0.961 . S
H125 C110 0.961 . S
H126 C110 0.961 . S
H127 C111 0.931 . S
H128 C116 0.930 . S
H129 C117 0.956 . S
H130 C117 0.961 . S
H131 C117 0.961 . S
H132 C118 0.958 . S
H133 C118 0.961 . S
H134 C118 0.960 . S
C135 C136 1.391 . S
C135 C137 1.394 . S
C135 H151 0.931 . S
C136 C135 1.391 . S
C136 C140 1.376 . S
C137 C135 1.394 . S
C137 C138 1.369 . S
C137 C141 1.531 . S
C138 C137 1.369 . S
C138 C139 1.410 . S
C138 C146 1.503 1_556 S
C139 C138 1.410 . S
C139 C140 1.392 . S
C139 C142 1.511 1_556 S
C140 C136 1.376 . S
C140 C139 1.392 . S
C140 H152 0.929 . S
C141 C137 1.531 . S
C141 H153 0.960 1_556 S
C141 H154 0.962 . S
C141 H155 0.960 . S
C142 C139 1.511 1_554 S
C142 H156 0.961 1_554 S
C142 H157 0.961 . S
C142 H158 0.961 . S
C143 C144 1.370 . S
C143 C145 1.355 1_554 S
C143 H159 0.931 . S
C144 C143 1.370 . S
C144 C148 1.408 . S
C145 C143 1.355 1_556 S
C145 C146 1.364 1_556 S
C145 C149 1.539 . S
C146 C138 1.503 1_554 S
C146 C145 1.364 1_554 S
C146 C147 1.403 . S
C147 C146 1.403 . S
C147 C148 1.404 . S
C147 C150 1.539 . S
C148 C144 1.408 . S
C148 C147 1.404 . S
C148 H160 0.930 . S
C149 C145 1.539 . S
C149 H161 0.956 . S
C149 H162 0.961 . S
C149 H163 0.961 . S
C150 C147 1.539 . S
C150 H164 0.958 . S
C150 H165 0.961 . S
C150 H166 0.960 . S
H151 C135 0.931 . S
H152 C140 0.929 . S
H153 C141 0.960 1_554 S
H154 C141 0.962 . S
H155 C141 0.960 . S
H156 C142 0.961 1_556 S
H157 C142 0.961 . S
H158 C142 0.961 . S
H159 C143 0.931 . S
H160 C148 0.930 . S
H161 C149 0.956 . S
H162 C149 0.961 . S
H163 C149 0.961 . S
H164 C150 0.958 . S
H165 C150 0.961 . S
H166 C150 0.960 . S
C167 C168 1.391 . S
C167 C169 1.394 . S
C167 H183 0.931 . S
C168 C167 1.391 . S
C168 C172 1.376 . S
C169 C167 1.394 . S
C169 C170 1.369 . S
C169 C173 1.531 . S
C170 C169 1.369 . S
C170 C171 1.410 . S
C170 C178 1.503 . S
C171 C170 1.410 . S
C171 C172 1.392 . S
C171 C174 1.511 . S
C172 C168 1.376 . S
C172 C171 1.392 . S
C172 H184 0.929 . S
C173 C169 1.531 . S
C173 H185 0.960 . S
C173 H186 0.962 . S
C173 H187 0.960 . S
C174 C171 1.511 . S
C174 H188 0.961 . S
C174 H189 0.961 . S
C174 H190 0.961 . S
C175 C176 1.370 . S
C175 C177 1.363 . S
C175 H191 0.931 . S
C176 C175 1.370 . S
C176 C180 1.408 . S
C177 C175 1.363 . S
C177 C178 1.370 . S
C177 C181 1.524 . S
C178 C170 1.503 . S
C178 C177 1.370 . S
C178 C179 1.403 . S
C179 C178 1.403 . S
C179 C180 1.404 . S
C179 C182 1.539 . S
C180 C176 1.408 . S
C180 C179 1.404 . S
C180 H192 0.930 . S
C181 C177 1.524 . S
C181 H193 0.956 . S
C181 H194 0.961 . S
C181 H195 0.961 . S
C182 C179 1.539 . S
C182 H196 0.958 . S
C182 H197 0.961 . S
C182 H198 0.960 . S
H183 C167 0.931 . S
H184 C172 0.929 . S
H185 C173 0.960 . S
H186 C173 0.962 . S
H187 C173 0.960 . S
H188 C174 0.961 . S
H189 C174 0.961 . S
H190 C174 0.961 . S
H191 C175 0.931 . S
H192 C180 0.930 . S
H193 C181 0.956 . S
H194 C181 0.961 . S
H195 C181 0.961 . S
H196 C182 0.958 . S
H197 C182 0.961 . S
H198 C182 0.960 . S
C199 C200 1.391 . S
C199 C201 1.394 . S
C199 H215 0.931 . S
C200 C199 1.391 . S
C200 C204 1.376 . S
C201 C199 1.394 . S
C201 C202 1.369 . S
C201 C205 1.531 . S
C202 C201 1.369 . S
C202 C203 1.410 . S
C202 C210 1.503 . S
C203 C202 1.410 . S
C203 C204 1.392 . S
C203 C206 1.511 . S
C204 C200 1.376 . S
C204 C203 1.392 . S
C204 H216 0.929 . S
C205 C201 1.531 . S
C205 H217 0.960 . S
C205 H218 0.962 . S
C205 H219 0.960 . S
C206 C203 1.511 . S
C206 H220 0.961 . S
C206 H221 0.961 . S
C206 H222 0.961 . S
C207 C208 1.370 . S
C207 C209 1.363 . S
C207 H223 0.931 . S
C208 C207 1.370 . S
C208 C212 1.408 . S
C209 C207 1.363 . S
C209 C210 1.370 . S
C209 C213 1.524 . S
C210 C202 1.503 . S
C210 C209 1.370 . S
C210 C211 1.403 . S
C211 C210 1.403 . S
C211 C212 1.404 . S
C211 C214 1.539 . S
C212 C208 1.408 . S
C212 C211 1.404 . S
C212 H224 0.930 . S
C213 C209 1.524 . S
C213 H225 0.956 . S
C213 H226 0.961 . S
C213 H227 0.961 . S
C214 C211 1.539 . S
C214 H228 0.958 . S
C214 H229 0.961 . S
C214 H230 0.960 . S
H215 C199 0.931 . S
H216 C204 0.929 . S
H217 C205 0.960 . S
H218 C205 0.962 . S
H219 C205 0.960 . S
H220 C206 0.961 . S
H221 C206 0.961 . S
H222 C206 0.961 . S
H223 C207 0.931 . S
H224 C212 0.930 . S
H225 C213 0.956 . S
H226 C213 0.961 . S
H227 C213 0.961 . S
H228 C214 0.958 . S
H229 C214 0.961 . S
H230 C214 0.960 . S
C40 C30 1.543 . S
C48 C3 1.548 . S
C72 C10 1.540 . S
C80 C23 1.540 . S
C104 C16 1.543 . S
C112 C36 1.548 . S
C136 C29 1.544 . S
C144 C4 1.545 . S
C168 C18 1.549 . S
C176 C5 1.554 . S
C200 C31 1.543 . S
C208 C17 1.547 . S
