# Generated by pormake.
# Topology hex, (8)-cn, num edge types: 1
# Building blocks:
#     Node 0, Type 0, BuildingBlock: NUHRAL_clean_sbu_3, # of connection points: 8
#     Edge 1, Type (0, 0), BuildingBlock: AJUNOK_clean_linker_0, # of connection points: 2
#     Edge 2, Type (0, 0), BuildingBlock: AJUNOK_clean_linker_0, # of connection points: 2
#     Edge 3, Type (0, 0), BuildingBlock: AJUNOK_clean_linker_0, # of connection points: 2
#     Edge 4, Type (0, 0), BuildingBlock: AJUNOK_clean_linker_0, # of connection points: 2
# Relax obj value: 0.033
# Max RMSD: 0.092
# Mean RMSD: 0.092
data_MOF--net-hex--node1-NUHRAL_clean_sbu_3--edge1-AJUNOK_clean_linker_0
_symmetry_space_group_name_H-M    P1
_symmetry_Int_Tables_number       1
_symmetry_cell_setting            triclinic
loop_
_symmetry_equiv_pos_as_xyz
'x, y, z'
_cell_length_a     17.049303
_cell_length_b     14.541477
_cell_length_c     10.86445
_cell_angle_alpha  110.43984
_cell_angle_beta   106.38181
_cell_angle_gamma 111.75121
loop_
_atom_site_label
_atom_site_type_symbol
_atom_site_fract_x
_atom_site_fract_y
_atom_site_fract_z
_atom_type_partial_charge
C0 C 0.77144 0.81546 0.90594 0.0
C1 C 0.73348 0.72112 0.92605 0.0
C2 C 0.6596 0.70027 0.96557 0.0
C3 C 0.62498 0.77488 0.98709 0.0
C4 C 0.6617 0.86879 0.96712 0.0
C5 C 0.73517 0.889 0.92675 0.0
O6 O 0.09064 0.93494 0.16159 0.0
Tb7 Tb 1.00441 0.85033 0.9221 0.0
O8 O 0.99292 0.69107 0.90466 0.0
O9 O 0.08063 0.09652 0.23786 0.0
Eu10 Eu 0.13664 0.14863 0.0945 0.0
O11 O 0.8554 0.7493 0.7916 0.0
C12 C 0.30532 0.17609 0.15827 0.0
O13 O 0.92823 0.93417 0.95024 0.0
O14 O 1.04452 0.04874 0.84754 0.0
O15 O 0.06608 0.89697 0.78752 0.0
C16 C 0.8458 0.83661 0.85736 0.0
C17 C 1.0549 0.29807 0.02869 0.0
O18 O 0.97439 0.19839 0.95694 0.0
C19 C 0.08571 0.01451 0.25869 0.0
C20 C 1.06157 0.97768 0.7626 0.0
O21 O 0.13526 0.30627 0.10414 0.0
C22 C 0.3765 0.19614 0.10318 0.0
C23 C 0.48357 0.1422 0.03256 0.0
C24 C 0.41397 0.12379 0.08114 0.0
C25 C 0.4093 0.28737 0.0757 0.0
C26 C 0.47939 0.30643 0.02811 0.0
C27 C 0.51677 0.2347 0.00906 0.0
C28 C 0.06991 0.68966 0.97088 0.0
O29 O 0.15434 0.78334 0.03611 0.0
O30 O 0.29174 0.26095 0.21777 0.0
O31 O 0.22584 0.0746 0.07551 0.0
H32 H 0.7608 0.66376 0.91049 0.0
H33 H 0.56646 0.75721 0.01423 0.0
H34 H 0.76389 0.96167 0.91096 0.0
H35 H 0.38892 0.05319 0.10175 0.0
H36 H 0.3809 0.34359 0.09153 0.0
H37 H 0.57422 0.25301 0.97952 0.0
C38 C 0.14349 0.49338 0.06017 0.0
C39 C 1.05607 0.39718 0.0149 0.0
C40 C 0.14675 0.58611 0.04357 0.0
C41 C 1.06274 0.58722 0.98104 0.0
H42 H 0.21034 0.49695 0.10766 0.0
H43 H 0.21618 0.65765 0.0804 0.0
S44 S 0.81503 0.35801 0.84887 0.0
N45 N 0.88294 0.30993 0.90717 0.0
N46 N 0.88916 0.48386 0.87643 0.0
C47 C 0.97466 0.49176 0.93579 0.0
C48 C 0.97132 0.39707 0.95262 0.0
C49 C 0.60825 0.98534 0.11111 0.0
C50 C 0.61927 0.94178 0.98341 0.0
C51 C 0.56227 0.04785 0.12494 0.0
C52 C 0.52554 0.06871 0.01134 0.0
H53 H 0.63569 0.97117 0.20125 0.0
H54 H 0.55701 0.08185 0.22632 0.0
S55 S 0.52973 0.96602 0.65011 0.0
N56 N 0.58593 0.9192 0.73864 0.0
N57 N 0.49898 0.03623 0.76392 0.0
C58 C 0.53494 0.02424 0.88219 0.0
C59 C 0.58209 0.96109 0.8685 0.0
C60 C 0.55707 0.51676 0.12046 0.0
C61 C 0.51888 0.40474 0.0055 0.0
C62 C 0.60414 0.61212 0.10766 0.0
C63 C 0.61471 0.59855 0.97966 0.0
H64 H 0.5527 0.53093 0.22244 0.0
H65 H 0.63321 0.6973 0.19907 0.0
S66 S 0.52008 0.32249 0.6423 0.0
N67 N 0.48955 0.2848 0.7562 0.0
N68 N 0.57832 0.46449 0.73242 0.0
C69 C 0.57528 0.4869 0.86283 0.0
C70 C 0.52708 0.38984 0.87557 0.0
C71 C 1.05461 0.89572 0.51292 0.0
C72 C 0.07423 0.99014 0.63937 0.0
C73 C 1.05997 0.90518 0.39119 0.0
C74 C 0.08537 0.00946 0.39197 0.0
H75 H 1.03249 0.81324 0.50614 0.0
H76 H 1.04188 0.82921 0.29442 0.0
S77 S 0.15597 0.28619 0.70534 0.0
N78 N 0.12889 0.19422 0.7644 0.0
N79 N 0.13826 0.21142 0.53533 0.0
C80 C 0.10869 0.10564 0.5202 0.0
C81 C 0.10342 0.09613 0.64408 0.0
loop_
_geom_bond_atom_site_label_1
_geom_bond_atom_site_label_2
_geom_bond_distance
_geom_bond_site_symmetry_2
_ccdc_geom_bond_type
C0 C1 1.387 . S
C0 C5 1.380 . S
C0 C16 1.494 . S
C1 C0 1.387 . S
C1 C2 1.386 1_556 S
C1 H32 0.930 . S
C2 C1 1.386 1_554 S
C2 C3 1.397 . S
C3 C2 1.397 . S
C3 C4 1.393 1_554 S
C3 H33 0.930 . S
C4 C3 1.393 1_556 S
C4 C5 1.395 . S
C5 C0 1.380 . S
C5 C4 1.395 . S
C5 H34 0.930 . S
O6 Tb7 2.295 1_554 S
O6 C19 1.242 1_665 S
Tb7 O6 2.295 1_556 S
Tb7 O8 2.312 . S
Tb7 O11 2.438 . S
Tb7 O13 2.472 . S
Tb7 O15 2.308 . S
Tb7 C16 2.821 . S
O8 Tb7 2.312 . S
O8 C28 1.264 1_655 S
O9 Eu10 2.308 . S
O9 C19 1.243 . S
Eu10 O9 2.308 . S
Eu10 C12 2.821 . S
Eu10 O14 2.295 1_554 S
Eu10 O21 2.312 . S
Eu10 O30 2.438 . S
Eu10 O31 2.472 . S
O11 Tb7 2.438 . S
O11 C16 1.263 . S
C12 Eu10 2.821 . S
C12 C22 1.494 . S
C12 O30 1.263 . S
C12 O31 1.264 . S
O13 Tb7 2.472 . S
O13 C16 1.264 . S
O14 Eu10 2.295 1_556 S
O14 C20 1.242 1_445 S
O15 Tb7 2.308 . S
O15 C20 1.243 . S
C16 C0 1.494 . S
C16 Tb7 2.821 . S
C16 O11 1.263 . S
C16 O13 1.264 . S
C17 O18 1.260 . S
C17 O21 1.264 1_655 S
O18 C17 1.260 . S
C19 O6 1.242 1_445 S
C19 O9 1.243 . S
C20 O14 1.242 1_665 S
C20 O15 1.243 . S
O21 Eu10 2.312 . S
O21 C17 1.264 1_455 S
C22 C12 1.494 . S
C22 C24 1.380 . S
C22 C25 1.387 . S
C23 C24 1.395 . S
C23 C27 1.393 1_554 S
C24 C22 1.380 . S
C24 C23 1.395 . S
C24 H35 0.930 . S
C25 C22 1.387 . S
C25 C26 1.386 1_554 S
C25 H36 0.930 . S
C26 C25 1.386 1_556 S
C26 C27 1.397 . S
C27 C23 1.393 1_556 S
C27 C26 1.397 . S
C27 H37 0.930 . S
C28 O8 1.264 1_455 S
C28 O29 1.260 . S
O29 C28 1.260 . S
O30 Eu10 2.438 . S
O30 C12 1.263 . S
O31 Eu10 2.472 . S
O31 C12 1.264 . S
H32 C1 0.930 . S
H33 C3 0.930 . S
H34 C5 0.930 . S
H35 C24 0.930 . S
H36 C25 0.930 . S
H37 C27 0.930 . S
C38 C39 1.369 1_455 S
C38 C40 1.419 . S
C38 H42 0.930 . S
C39 C38 1.369 1_655 S
C39 C48 1.429 1_554 S
C40 C38 1.419 . S
C40 C41 1.363 1_554 S
C40 H43 0.929 . S
C41 C40 1.363 1_556 S
C41 C47 1.428 1_455 S
H42 C38 0.930 . S
H43 C40 0.929 . S
S44 N45 1.613 . S
S44 N46 1.610 . S
N45 S44 1.613 . S
N45 C48 1.350 . S
N46 S44 1.610 . S
N46 C47 1.351 . S
C47 C41 1.428 1_655 S
C47 N46 1.351 . S
C47 C48 1.434 . S
C48 C39 1.429 1_556 S
C48 N45 1.350 . S
C48 C47 1.434 . S
C49 C50 1.369 1_554 S
C49 C51 1.419 . S
C49 H53 0.930 . S
C50 C49 1.369 1_556 S
C50 C59 1.429 1_565 S
C51 C49 1.419 . S
C51 C52 1.363 1_565 S
C51 H54 0.929 . S
C52 C51 1.363 1_545 S
C52 C58 1.428 1_554 S
H53 C49 0.930 . S
H54 C51 0.929 . S
S55 N56 1.613 . S
S55 N57 1.610 . S
N56 S55 1.613 . S
N56 C59 1.350 . S
N57 S55 1.610 . S
N57 C58 1.351 . S
C58 C52 1.428 1_556 S
C58 N57 1.351 . S
C58 C59 1.434 . S
C59 C50 1.429 1_545 S
C59 N56 1.350 . S
C59 C58 1.434 . S
C60 C61 1.369 1_554 S
C60 C62 1.419 . S
C60 H64 0.930 . S
C61 C60 1.369 1_556 S
C61 C70 1.429 . S
C62 C60 1.419 . S
C62 C63 1.363 . S
C62 H65 0.929 . S
C63 C62 1.363 . S
C63 C69 1.428 1_554 S
H64 C60 0.930 . S
H65 C62 0.929 . S
S66 N67 1.613 . S
S66 N68 1.610 . S
N67 S66 1.613 . S
N67 C70 1.350 . S
N68 S66 1.610 . S
N68 C69 1.351 . S
C69 C63 1.428 1_556 S
C69 N68 1.351 . S
C69 C70 1.434 . S
C70 C61 1.429 . S
C70 N67 1.350 . S
C70 C69 1.434 . S
C71 C72 1.369 1_665 S
C71 C73 1.419 . S
C71 H75 0.930 . S
C72 C71 1.369 1_445 S
C72 C81 1.429 . S
C73 C71 1.419 . S
C73 C74 1.363 1_665 S
C73 H76 0.929 . S
C74 C73 1.363 1_445 S
C74 C80 1.428 . S
H75 C71 0.930 . S
H76 C73 0.929 . S
S77 N78 1.613 . S
S77 N79 1.610 . S
N78 S77 1.613 . S
N78 C81 1.350 . S
N79 S77 1.610 . S
N79 C80 1.351 . S
C80 C74 1.428 . S
C80 N79 1.351 . S
C80 C81 1.434 . S
C81 C72 1.429 . S
C81 N78 1.350 . S
C81 C80 1.434 . S
C39 C17 0.637 . S
C41 C28 0.622 . S
C50 C4 2.035 . S
C52 C23 2.028 . S
C61 C26 1.847 . S
C63 C2 1.846 . S
C72 C20 1.492 1_445 S
C74 C19 1.490 . S
