# Generated by pormake.
# Topology mmt, (4)-cn, num edge types: 1
# Building blocks:
#     Node 0, Type 0, BuildingBlock: GALJAG_clean_sbu_0, # of connection points: 4
#     Node 1, Type 0, BuildingBlock: GALJAG_clean_sbu_0, # of connection points: 4
#     Node 2, Type 0, BuildingBlock: GALJAG_clean_sbu_0, # of connection points: 4
#     Node 3, Type 0, BuildingBlock: GALJAG_clean_sbu_0, # of connection points: 4
#     Node 4, Type 0, BuildingBlock: GALJAG_clean_sbu_0, # of connection points: 4
#     Node 5, Type 0, BuildingBlock: GALJAG_clean_sbu_0, # of connection points: 4
#     Node 6, Type 0, BuildingBlock: GALJAG_clean_sbu_0, # of connection points: 4
#     Node 7, Type 0, BuildingBlock: GALJAG_clean_sbu_0, # of connection points: 4
#     Edge 8, Type (0, 0), BuildingBlock: EYOCIG_clean_linker_4, # of connection points: 2
#     Edge 9, Type (0, 0), BuildingBlock: EYOCIG_clean_linker_4, # of connection points: 2
#     Edge 10, Type (0, 0), BuildingBlock: EYOCIG_clean_linker_4, # of connection points: 2
#     Edge 11, Type (0, 0), BuildingBlock: EYOCIG_clean_linker_4, # of connection points: 2
#     Edge 12, Type (0, 0), BuildingBlock: EYOCIG_clean_linker_4, # of connection points: 2
#     Edge 13, Type (0, 0), BuildingBlock: EYOCIG_clean_linker_4, # of connection points: 2
#     Edge 14, Type (0, 0), BuildingBlock: EYOCIG_clean_linker_4, # of connection points: 2
#     Edge 15, Type (0, 0), BuildingBlock: EYOCIG_clean_linker_4, # of connection points: 2
#     Edge 16, Type (0, 0), BuildingBlock: EYOCIG_clean_linker_4, # of connection points: 2
#     Edge 17, Type (0, 0), BuildingBlock: EYOCIG_clean_linker_4, # of connection points: 2
#     Edge 18, Type (0, 0), BuildingBlock: EYOCIG_clean_linker_4, # of connection points: 2
#     Edge 19, Type (0, 0), BuildingBlock: EYOCIG_clean_linker_4, # of connection points: 2
#     Edge 20, Type (0, 0), BuildingBlock: EYOCIG_clean_linker_4, # of connection points: 2
#     Edge 21, Type (0, 0), BuildingBlock: EYOCIG_clean_linker_4, # of connection points: 2
#     Edge 22, Type (0, 0), BuildingBlock: EYOCIG_clean_linker_4, # of connection points: 2
#     Edge 23, Type (0, 0), BuildingBlock: EYOCIG_clean_linker_4, # of connection points: 2
# Relax obj value: 0.016
# Max RMSD: 0.061
# Mean RMSD: 0.061
data_MOF--net-mmt--node1-GALJAG_clean_sbu_0--edge1-EYOCIG_clean_linker_4
_symmetry_space_group_name_H-M    P1
_symmetry_Int_Tables_number       1
_symmetry_cell_setting            triclinic
loop_
_symmetry_equiv_pos_as_xyz
'x, y, z'
_cell_length_a     19.3145
_cell_length_b     29.408103
_cell_length_c     33.116449
_cell_angle_alpha  90.00501
_cell_angle_beta   89.982996
_cell_angle_gamma 89.980692
loop_
_atom_site_label
_atom_site_type_symbol
_atom_site_fract_x
_atom_site_fract_y
_atom_site_fract_z
_atom_type_partial_charge
In0 In 0.13797 0.56042 0.33478 0.0
O1 O 0.23526 0.51722 0.32718 0.0
O2 O 0.20015 0.55617 0.27672 0.0
C3 C 0.08869 0.5371 0.40807 0.0
C4 C 0.18937 0.64473 0.34332 0.0
C5 C 0.02989 0.52993 0.29199 0.0
O6 O 0.13816 0.51611 0.39151 0.0
O7 O 0.06575 0.57078 0.38867 0.0
O8 O 0.04096 0.57181 0.29727 0.0
O9 O 0.07357 0.50334 0.30754 0.0
C10 C 0.24502 0.52967 0.29111 0.0
O11 O 0.13792 0.63643 0.32102 0.0
O12 O 0.21313 0.61122 0.3626 0.0
In13 In 0.38596 0.93548 0.33486 0.0
O14 O 0.28729 0.97771 0.32835 0.0
O15 O 0.32292 0.94028 0.27713 0.0
C16 C 0.43715 0.95918 0.40754 0.0
C17 C 0.33687 0.85058 0.34331 0.0
C18 C 0.49439 0.96629 0.29267 0.0
O19 O 0.38712 0.98004 0.39143 0.0
O20 O 0.45926 0.92523 0.38818 0.0
O21 O 0.48294 0.92437 0.29733 0.0
O22 O 0.45042 0.99278 0.30809 0.0
C23 C 0.27736 0.96582 0.29215 0.0
O24 O 0.387 0.8597 0.32025 0.0
O25 O 0.31326 0.88358 0.36335 0.0
In26 In 0.63812 0.43561 0.14895 0.0
O27 O 0.6383 0.35959 0.163 0.0
O28 O 0.71145 0.38436 0.12 0.0
C29 C 0.52909 0.46608 0.19117 0.0
C30 C 0.74653 0.46674 0.19128 0.0
C31 C 0.58864 0.45908 0.07588 0.0
O32 O 0.541 0.4242 0.18656 0.0
O33 O 0.57276 0.49266 0.17563 0.0
O34 O 0.63803 0.48009 0.09245 0.0
O35 O 0.56586 0.42528 0.09517 0.0
C36 C 0.68832 0.35096 0.13968 0.0
O37 O 0.73557 0.47889 0.15527 0.0
O38 O 0.70209 0.44042 0.20635 0.0
In39 In 0.88547 0.06024 0.14927 0.0
O40 O 0.78789 0.01756 0.15741 0.0
O41 O 0.82392 0.05662 0.20758 0.0
C42 C 0.9346 0.03601 0.07631 0.0
C43 C 0.83497 0.14474 0.13948 0.0
C44 C 0.99377 0.02898 0.19151 0.0
O45 O 0.88455 0.01559 0.09283 0.0
O46 O 0.95808 0.06964 0.09554 0.0
O47 O 0.98289 0.07097 0.18666 0.0
O48 O 0.94966 0.00271 0.17597 0.0
C49 C 0.7787 0.0302 0.19347 0.0
O50 O 0.88585 0.1365 0.16226 0.0
O51 O 0.81119 0.11104 0.12049 0.0
In52 In 0.88598 0.43535 0.64931 0.0
O53 O 0.88614 0.35924 0.66278 0.0
O54 O 0.81277 0.38428 0.62002 0.0
C55 C 0.99472 0.46588 0.69143 0.0
C56 C 0.77804 0.4655 0.69265 0.0
C57 C 0.93709 0.45966 0.57684 0.0
O58 O 0.98298 0.42398 0.6868 0.0
O59 O 0.95087 0.49248 0.67604 0.0
O60 O 0.88692 0.48031 0.59305 0.0
O61 O 0.95941 0.42565 0.59601 0.0
C62 C 0.83602 0.35076 0.63951 0.0
O63 O 0.78784 0.47785 0.65656 0.0
O64 O 0.8234 0.43953 0.70728 0.0
In65 In 0.63809 0.06039 0.64929 0.0
O66 O 0.73574 0.01766 0.65673 0.0
O67 O 0.70101 0.05689 0.70713 0.0
C68 C 0.58882 0.03656 0.57624 0.0
C69 C 0.68872 0.14481 0.63952 0.0
C70 C 0.53009 0.02907 0.69181 0.0
O71 O 0.63857 0.01584 0.59277 0.0
O72 O 0.56559 0.07022 0.59556 0.0
O73 O 0.54086 0.07106 0.68693 0.0
O74 O 0.57421 0.00283 0.6762 0.0
C75 C 0.74592 0.03046 0.69266 0.0
O76 O 0.63792 0.13663 0.6624 0.0
O77 O 0.71224 0.11111 0.6204 0.0
In78 In 0.38587 0.56022 0.83465 0.0
O79 O 0.28808 0.51739 0.82757 0.0
O80 O 0.3239 0.55527 0.77664 0.0
C81 C 0.43701 0.53681 0.90738 0.0
C82 C 0.33541 0.64488 0.84284 0.0
C83 C 0.49381 0.5288 0.79239 0.0
O84 O 0.38658 0.51618 0.89148 0.0
O85 O 0.45955 0.57046 0.8878 0.0
O86 O 0.48291 0.5708 0.79705 0.0
O87 O 0.44971 0.50257 0.80801 0.0
C88 C 0.27869 0.52924 0.79131 0.0
O89 O 0.38634 0.63608 0.82026 0.0
O90 O 0.31169 0.6117 0.86258 0.0
In91 In 0.13764 0.93554 0.83476 0.0
O92 O 0.23606 0.97787 0.82819 0.0
O93 O 0.20074 0.94013 0.77706 0.0
C94 C 0.08642 0.95844 0.90765 0.0
C95 C 0.18776 0.85085 0.84285 0.0
C96 C 0.02998 0.96726 0.79239 0.0
O97 O 0.13636 0.97951 0.89166 0.0
O98 O 0.06431 0.9247 0.88802 0.0
O99 O 0.04072 0.92524 0.79698 0.0
O100 O 0.07416 0.99338 0.80807 0.0
C101 C 0.24614 0.9658 0.79204 0.0
O102 O 0.13695 0.85973 0.82021 0.0
O103 O 0.21143 0.88396 0.86271 0.0
C104 C 0.35614 0.50688 0.24958 0.0
C105 C 0.30548 0.51719 0.26867 0.0
C106 C 0.41667 0.4945 0.22855 0.0
C107 C 0.46836 0.48233 0.21136 0.0
C108 C 0.10467 -2e-05 0.23003 0.0
C109 C 0.05359 0.01227 0.2123 0.0
C110 C 0.16505 0.98782 0.25133 0.0
C111 C 0.21618 0.97793 0.27018 0.0
C112 C 0.85907 0.48956 0.23142 0.0
C113 C 0.80784 0.47932 0.21285 0.0
C114 C 0.91942 0.50172 0.25269 0.0
C115 C 0.97028 0.5137 0.27077 0.0
C116 C 0.66761 0.00732 0.2349 0.0
C117 C 0.71846 0.01789 0.21614 0.0
C118 C 0.60683 0.99478 0.25553 0.0
C119 C 0.55508 0.98265 0.27262 0.0
C120 C 0.60529 0.49973 0.75457 0.0
C121 C 0.55393 0.51204 0.77199 0.0
C122 C 0.66593 0.48751 0.7336 0.0
C123 C 0.71707 0.47752 0.71482 0.0
C124 C 0.85785 0.00862 0.73375 0.0
C125 C 0.80687 0.01845 0.7148 0.0
C126 C 0.91846 0.99651 0.75477 0.0
C127 C 0.96986 0.98416 0.7721 0.0
C128 C 0.16768 0.5063 0.74982 0.0
C129 C 0.21826 0.51666 0.76892 0.0
C130 C 0.10717 0.4941 0.72873 0.0
C131 C 0.05541 0.48212 0.71156 0.0
C132 C 0.35858 0.98773 0.75132 0.0
C133 C 0.30736 0.97785 0.77009 0.0
C134 C 0.41907 -4e-05 0.73017 0.0
C135 C 0.4702 0.01232 0.71252 0.0
C136 C 0.03024 0.50761 0.47545 0.0
C137 C 0.05663 0.52128 0.44469 0.0
C138 C 0.99787 0.49026 0.51057 0.0
C139 C 0.97041 0.47609 0.54082 0.0
C140 C 0.49812 0.98938 0.47387 0.0
C141 C 0.47062 0.97536 0.44358 0.0
C142 C 0.5305 0.00672 0.50898 0.0
C143 C 0.55688 0.02051 0.53968 0.0
C144 C 0.5302 0.48889 0.00869 0.0
C145 C 0.55652 0.47502 0.03937 0.0
C146 C 0.49794 0.50642 0.97363 0.0
C147 C 0.47051 0.52056 0.94338 0.0
C148 C 0.02559 0.98811 0.97425 0.0
C149 C 0.05296 0.97427 0.94384 0.0
C150 C 0.99319 0.00553 0.00933 0.0
C151 C 0.96667 0.01961 0.0399 0.0
C152 C 0.24828 0.72571 0.34566 0.0
C153 C 0.22155 0.68869 0.34468 0.0
C154 C 0.2798 0.76903 0.34565 0.0
C155 C 0.30577 0.80629 0.34463 0.0
C156 C 0.77704 0.22606 0.13584 0.0
C157 C 0.80325 0.18887 0.13737 0.0
C158 C 0.74573 0.2695 0.13593 0.0
C159 C 0.71969 0.30674 0.13754 0.0
C160 C 0.74704 0.22598 0.6359 0.0
C161 C 0.72064 0.18885 0.63743 0.0
C162 C 0.77847 0.26936 0.63588 0.0
C163 C 0.80451 0.3066 0.6374 0.0
C164 C 0.27738 0.72621 0.84489 0.0
C165 C 0.30376 0.68905 0.84402 0.0
C166 C 0.24584 0.76955 0.84488 0.0
C167 C 0.2194 0.80669 0.844 0.0
loop_
_geom_bond_atom_site_label_1
_geom_bond_atom_site_label_2
_geom_bond_distance
_geom_bond_site_symmetry_2
_ccdc_geom_bond_type
In0 O1 2.294 . S
In0 O2 2.326 . S
In0 O6 2.266 . S
In0 O7 2.326 . S
In0 O8 2.266 . S
In0 O9 2.326 . S
In0 O11 2.294 . S
In0 O12 2.326 . S
O1 In0 2.294 . S
O1 C10 1.240 . S
O2 In0 2.326 . S
O2 C10 1.252 . S
C3 O6 1.252 . S
C3 O7 1.260 . S
C4 O11 1.240 . S
C4 O12 1.252 . S
C5 O8 1.252 . S
C5 O9 1.260 . S
O6 In0 2.266 . S
O6 C3 1.252 . S
O7 In0 2.326 . S
O7 C3 1.260 . S
O8 In0 2.266 . S
O8 C5 1.252 . S
O9 In0 2.326 . S
O9 C5 1.260 . S
C10 O1 1.240 . S
C10 O2 1.252 . S
O11 In0 2.294 . S
O11 C4 1.240 . S
O12 In0 2.326 . S
O12 C4 1.252 . S
In13 O14 2.294 . S
In13 O15 2.326 . S
In13 O19 2.266 . S
In13 O20 2.326 . S
In13 O21 2.266 . S
In13 O22 2.326 . S
In13 O24 2.294 . S
In13 O25 2.326 . S
O14 In13 2.294 . S
O14 C23 1.240 . S
O15 In13 2.326 . S
O15 C23 1.252 . S
C16 O19 1.252 . S
C16 O20 1.260 . S
C17 O24 1.240 . S
C17 O25 1.252 . S
C18 O21 1.252 . S
C18 O22 1.260 . S
O19 In13 2.266 . S
O19 C16 1.252 . S
O20 In13 2.326 . S
O20 C16 1.260 . S
O21 In13 2.266 . S
O21 C18 1.252 . S
O22 In13 2.326 . S
O22 C18 1.260 . S
C23 O14 1.240 . S
C23 O15 1.252 . S
O24 In13 2.294 . S
O24 C17 1.240 . S
O25 In13 2.326 . S
O25 C17 1.252 . S
In26 O27 2.294 . S
In26 O28 2.326 . S
In26 O32 2.266 . S
In26 O33 2.326 . S
In26 O34 2.266 . S
In26 O35 2.326 . S
In26 O37 2.294 . S
In26 O38 2.326 . S
O27 In26 2.294 . S
O27 C36 1.240 . S
O28 In26 2.326 . S
O28 C36 1.252 . S
C29 O32 1.252 . S
C29 O33 1.260 . S
C30 O37 1.240 . S
C30 O38 1.252 . S
C31 O34 1.252 . S
C31 O35 1.260 . S
O32 In26 2.266 . S
O32 C29 1.252 . S
O33 In26 2.326 . S
O33 C29 1.260 . S
O34 In26 2.266 . S
O34 C31 1.252 . S
O35 In26 2.326 . S
O35 C31 1.260 . S
C36 O27 1.240 . S
C36 O28 1.252 . S
O37 In26 2.294 . S
O37 C30 1.240 . S
O38 In26 2.326 . S
O38 C30 1.252 . S
In39 O40 2.294 . S
In39 O41 2.326 . S
In39 O45 2.266 . S
In39 O46 2.326 . S
In39 O47 2.266 . S
In39 O48 2.326 . S
In39 O50 2.294 . S
In39 O51 2.326 . S
O40 In39 2.294 . S
O40 C49 1.240 . S
O41 In39 2.326 . S
O41 C49 1.252 . S
C42 O45 1.252 . S
C42 O46 1.260 . S
C43 O50 1.240 . S
C43 O51 1.252 . S
C44 O47 1.252 . S
C44 O48 1.260 . S
O45 In39 2.266 . S
O45 C42 1.252 . S
O46 In39 2.326 . S
O46 C42 1.260 . S
O47 In39 2.266 . S
O47 C44 1.252 . S
O48 In39 2.326 . S
O48 C44 1.260 . S
C49 O40 1.240 . S
C49 O41 1.252 . S
O50 In39 2.294 . S
O50 C43 1.240 . S
O51 In39 2.326 . S
O51 C43 1.252 . S
In52 O53 2.294 . S
In52 O54 2.326 . S
In52 O58 2.266 . S
In52 O59 2.326 . S
In52 O60 2.266 . S
In52 O61 2.326 . S
In52 O63 2.294 . S
In52 O64 2.326 . S
O53 In52 2.294 . S
O53 C62 1.240 . S
O54 In52 2.326 . S
O54 C62 1.252 . S
C55 O58 1.252 . S
C55 O59 1.260 . S
C56 O63 1.240 . S
C56 O64 1.252 . S
C57 O60 1.252 . S
C57 O61 1.260 . S
O58 In52 2.266 . S
O58 C55 1.252 . S
O59 In52 2.326 . S
O59 C55 1.260 . S
O60 In52 2.266 . S
O60 C57 1.252 . S
O61 In52 2.326 . S
O61 C57 1.260 . S
C62 O53 1.240 . S
C62 O54 1.252 . S
O63 In52 2.294 . S
O63 C56 1.240 . S
O64 In52 2.326 . S
O64 C56 1.252 . S
In65 O66 2.294 . S
In65 O67 2.326 . S
In65 O71 2.266 . S
In65 O72 2.326 . S
In65 O73 2.266 . S
In65 O74 2.326 . S
In65 O76 2.294 . S
In65 O77 2.326 . S
O66 In65 2.294 . S
O66 C75 1.240 . S
O67 In65 2.326 . S
O67 C75 1.252 . S
C68 O71 1.252 . S
C68 O72 1.260 . S
C69 O76 1.240 . S
C69 O77 1.252 . S
C70 O73 1.252 . S
C70 O74 1.260 . S
O71 In65 2.266 . S
O71 C68 1.252 . S
O72 In65 2.326 . S
O72 C68 1.260 . S
O73 In65 2.266 . S
O73 C70 1.252 . S
O74 In65 2.326 . S
O74 C70 1.260 . S
C75 O66 1.240 . S
C75 O67 1.252 . S
O76 In65 2.294 . S
O76 C69 1.240 . S
O77 In65 2.326 . S
O77 C69 1.252 . S
In78 O79 2.294 . S
In78 O80 2.326 . S
In78 O84 2.266 . S
In78 O85 2.326 . S
In78 O86 2.266 . S
In78 O87 2.326 . S
In78 O89 2.294 . S
In78 O90 2.326 . S
O79 In78 2.294 . S
O79 C88 1.240 . S
O80 In78 2.326 . S
O80 C88 1.252 . S
C81 O84 1.252 . S
C81 O85 1.260 . S
C82 O89 1.240 . S
C82 O90 1.252 . S
C83 O86 1.252 . S
C83 O87 1.260 . S
O84 In78 2.266 . S
O84 C81 1.252 . S
O85 In78 2.326 . S
O85 C81 1.260 . S
O86 In78 2.266 . S
O86 C83 1.252 . S
O87 In78 2.326 . S
O87 C83 1.260 . S
C88 O79 1.240 . S
C88 O80 1.252 . S
O89 In78 2.294 . S
O89 C82 1.240 . S
O90 In78 2.326 . S
O90 C82 1.252 . S
In91 O92 2.294 . S
In91 O93 2.326 . S
In91 O97 2.266 . S
In91 O98 2.326 . S
In91 O99 2.266 . S
In91 O100 2.326 . S
In91 O102 2.294 . S
In91 O103 2.326 . S
O92 In91 2.294 . S
O92 C101 1.240 . S
O93 In91 2.326 . S
O93 C101 1.252 . S
C94 O97 1.252 . S
C94 O98 1.260 . S
C95 O102 1.240 . S
C95 O103 1.252 . S
C96 O99 1.252 . S
C96 O100 1.260 . S
O97 In91 2.266 . S
O97 C94 1.252 . S
O98 In91 2.326 . S
O98 C94 1.260 . S
O99 In91 2.266 . S
O99 C96 1.252 . S
O100 In91 2.326 . S
O100 C96 1.260 . S
C101 O92 1.240 . S
C101 O93 1.252 . S
O102 In91 2.294 . S
O102 C95 1.240 . S
O103 In91 2.326 . S
O103 C95 1.252 . S
C104 C105 1.170 . S
C104 C106 1.380 . S
C105 C104 1.170 . S
C106 C104 1.380 . S
C106 C107 1.170 . S
C107 C106 1.170 . S
C108 C109 1.170 1_565 S
C108 C110 1.380 . S
C109 C108 1.170 1_545 S
C110 C108 1.380 . S
C110 C111 1.170 . S
C111 C110 1.170 . S
C112 C113 1.170 . S
C112 C114 1.380 . S
C113 C112 1.170 . S
C114 C112 1.380 . S
C114 C115 1.170 . S
C115 C114 1.170 . S
C116 C117 1.170 . S
C116 C118 1.380 1_545 S
C117 C116 1.170 . S
C118 C116 1.380 1_565 S
C118 C119 1.170 . S
C119 C118 1.170 . S
C120 C121 1.170 . S
C120 C122 1.380 . S
C121 C120 1.170 . S
C122 C120 1.380 . S
C122 C123 1.170 . S
C123 C122 1.170 . S
C124 C125 1.170 . S
C124 C126 1.380 . S
C125 C124 1.170 . S
C126 C124 1.380 . S
C126 C127 1.170 1_545 S
C127 C126 1.170 1_565 S
C128 C129 1.170 . S
C128 C130 1.380 . S
C129 C128 1.170 . S
C130 C128 1.380 . S
C130 C131 1.170 . S
C131 C130 1.170 . S
C132 C133 1.170 . S
C132 C134 1.380 . S
C133 C132 1.170 . S
C134 C132 1.380 . S
C134 C135 1.170 1_565 S
C135 C134 1.170 1_545 S
C136 C137 1.170 . S
C136 C138 1.380 1_455 S
C137 C136 1.170 . S
C138 C136 1.380 1_655 S
C138 C139 1.170 . S
C139 C138 1.170 . S
C140 C141 1.170 . S
C140 C142 1.380 1_565 S
C141 C140 1.170 . S
C142 C140 1.380 1_545 S
C142 C143 1.170 . S
C143 C142 1.170 . S
C144 C145 1.170 . S
C144 C146 1.380 1_554 S
C145 C144 1.170 . S
C146 C144 1.380 1_556 S
C146 C147 1.170 . S
C147 C146 1.170 . S
C148 C149 1.170 . S
C148 C150 1.380 1_466 S
C149 C148 1.170 . S
C150 C148 1.380 1_644 S
C150 C151 1.170 . S
C151 C150 1.170 . S
C152 C153 1.170 . S
C152 C154 1.380 . S
C153 C152 1.170 . S
C154 C152 1.380 . S
C154 C155 1.170 . S
C155 C154 1.170 . S
C156 C157 1.170 . S
C156 C158 1.380 . S
C157 C156 1.170 . S
C158 C156 1.380 . S
C158 C159 1.170 . S
C159 C158 1.170 . S
C160 C161 1.170 . S
C160 C162 1.380 . S
C161 C160 1.170 . S
C162 C160 1.380 . S
C162 C163 1.170 . S
C163 C162 1.170 . S
C164 C165 1.170 . S
C164 C166 1.380 . S
C165 C164 1.170 . S
C166 C164 1.380 . S
C166 C167 1.170 . S
C167 C166 1.170 . S
C105 C10 1.543 . S
C107 C29 1.546 . S
C109 C44 1.548 1_455 S
C111 C23 1.541 . S
C113 C30 1.544 . S
C115 C5 1.545 1_655 S
C117 C49 1.544 . S
C119 C18 1.545 . S
C121 C83 1.548 . S
C123 C56 1.542 . S
C125 C75 1.542 . S
C127 C96 1.548 1_655 S
C129 C88 1.546 . S
C131 C55 1.546 1_455 S
C133 C101 1.541 . S
C135 C70 1.547 . S
C137 C3 1.520 . S
C139 C57 1.515 . S
C141 C16 1.514 . S
C143 C68 1.516 . S
C145 C31 1.519 . S
C147 C81 1.516 . S
C149 C94 1.520 . S
C151 C42 1.516 . S
C153 C4 1.515 . S
C155 C17 1.517 . S
C157 C43 1.523 . S
C159 C36 1.524 . S
C161 C69 1.524 . S
C163 C62 1.522 . S
C165 C82 1.514 . S
C167 C95 1.514 . S
