# Generated by pormake.
# Topology lon, (4)-cn, num edge types: 1
# Building blocks:
#     Node 0, Type 0, BuildingBlock: QUQFOY_clean_sbu_3, # of connection points: 4
#     Node 1, Type 0, BuildingBlock: QUQFOY_clean_sbu_3, # of connection points: 4
#     Node 2, Type 0, BuildingBlock: QUQFOY_clean_sbu_3, # of connection points: 4
#     Node 3, Type 0, BuildingBlock: QUQFOY_clean_sbu_3, # of connection points: 4
#     Edge 4, Type (0, 0), BuildingBlock: AJUNOK_clean_linker_0, # of connection points: 2
#     Edge 5, Type (0, 0), BuildingBlock: AJUNOK_clean_linker_0, # of connection points: 2
#     Edge 6, Type (0, 0), BuildingBlock: AJUNOK_clean_linker_0, # of connection points: 2
#     Edge 7, Type (0, 0), BuildingBlock: AJUNOK_clean_linker_0, # of connection points: 2
#     Edge 8, Type (0, 0), BuildingBlock: AJUNOK_clean_linker_0, # of connection points: 2
#     Edge 9, Type (0, 0), BuildingBlock: AJUNOK_clean_linker_0, # of connection points: 2
#     Edge 10, Type (0, 0), BuildingBlock: AJUNOK_clean_linker_0, # of connection points: 2
#     Edge 11, Type (0, 0), BuildingBlock: AJUNOK_clean_linker_0, # of connection points: 2
# Relax obj value: 0.137
# Max RMSD: 0.174
# Mean RMSD: 0.169
data_MOF--net-lon--node1-QUQFOY_clean_sbu_3--edge1-AJUNOK_clean_linker_0
_symmetry_space_group_name_H-M    P1
_symmetry_Int_Tables_number       1
_symmetry_cell_setting            triclinic
loop_
_symmetry_equiv_pos_as_xyz
'x, y, z'
_cell_length_a     18.294253
_cell_length_b     19.65182
_cell_length_c     31.640627
_cell_angle_alpha  90.254391
_cell_angle_beta   89.628685
_cell_angle_gamma 117.00671
loop_
_atom_site_label
_atom_site_type_symbol
_atom_site_fract_x
_atom_site_fract_y
_atom_site_fract_z
_atom_type_partial_charge
C0 C 0.11236 0.62134 0.02746 0.0
O1 O 0.11676 0.68277 0.0431 0.0
Cd2 Cd 0.23944 0.78812 0.06802 0.0
O3 O 0.17552 0.60977 0.02561 0.0
Cd4 Cd 0.32261 0.67371 0.04579 0.0
C5 C 0.28771 0.70373 0.15002 0.0
O6 O 0.33908 0.79186 0.01766 0.0
O7 O 0.45138 0.79618 0.04114 0.0
O8 O 0.36252 0.61276 0.98839 0.0
C9 C 0.41503 0.83084 0.02427 0.0
O10 O 0.26287 0.75141 0.13805 0.0
C11 C 0.38112 0.57225 0.01303 0.0
O12 O 0.30969 0.66823 0.12306 0.0
O13 O 0.37426 0.58036 0.05243 0.0
C14 C 0.55311 0.36923 0.4973 0.0
O15 O 0.56229 0.33902 0.46342 0.0
Cd16 Cd 0.60905 0.24439 0.45962 0.0
O17 O 0.57002 0.35005 0.53296 0.0
Cd18 Cd 0.6226 0.26203 0.55915 0.0
C19 C 0.79797 0.34739 0.50116 0.0
O20 O 0.53417 0.15777 0.5153 0.0
O21 O 0.62767 0.13953 0.54683 0.0
O22 O 0.54384 0.24124 0.62502 0.0
C23 C 0.56368 0.11274 0.52425 0.0
O24 O 0.75774 0.31391 0.46832 0.0
C25 C 0.60534 0.25936 0.64904 0.0
O26 O 0.76149 0.34054 0.53633 0.0
O27 O 0.67403 0.27834 0.63105 0.0
C28 C 0.14534 0.55828 0.4866 0.0
O29 O 0.18497 0.59412 0.51896 0.0
Cd30 Cd 0.32397 0.68811 0.5196 0.0
O31 O 0.1796 0.57204 0.45026 0.0
Cd32 Cd 0.31758 0.65807 0.42106 0.0
C33 C 0.40882 0.57759 0.48182 0.0
O34 O 0.33496 0.76826 0.46101 0.0
O35 O 0.4458 0.77753 0.43174 0.0
O36 O 0.25803 0.67899 0.35659 0.0
C37 C 0.40953 0.80952 0.45178 0.0
O38 O 0.40223 0.61583 0.51286 0.0
C39 C 0.30044 0.6605 0.33145 0.0
O40 O 0.37893 0.57992 0.44599 0.0
O41 O 0.34961 0.63929 0.34814 0.0
C42 C 0.47587 0.34779 0.9483 0.0
O43 O 0.41984 0.28111 0.94016 0.0
Cd44 Cd 0.44152 0.17471 0.92001 0.0
O45 O 0.5517 0.36367 0.94656 0.0
Cd46 Cd 0.63716 0.29605 0.933 0.0
C47 C 0.56528 0.24595 0.83223 0.0
O48 O 0.54149 0.18908 0.97173 0.0
O49 O 0.64347 0.17383 0.94894 0.0
O50 O 0.73003 0.38934 0.98298 0.0
C51 C 0.57661 0.14691 0.96952 0.0
O52 O 0.49587 0.19967 0.8476 0.0
C53 C 0.79525 0.40039 0.96335 0.0
O54 O 0.62395 0.28816 0.85636 0.0
O55 O 0.78672 0.36317 0.9293 0.0
C56 C 0.25149 0.71723 0.22493 0.0
C57 C 0.29031 0.68944 0.19594 0.0
C58 C 0.25368 0.70604 0.26847 0.0
C59 C 0.29538 0.66715 0.28501 0.0
H60 H 0.21902 0.74813 0.21401 0.0
H61 H 0.22346 0.72933 0.28934 0.0
S62 S 0.40537 0.58101 0.22287 0.0
N63 N 0.37033 0.61946 0.18704 0.0
N64 N 0.37484 0.59896 0.26894 0.0
C65 C 0.3337 0.63814 0.25647 0.0
C66 C 0.33102 0.64909 0.21199 0.0
C67 C 0.51883 0.22265 0.7146 0.0
C68 C 0.59713 0.25761 0.69573 0.0
C69 C 0.50926 0.21893 0.75865 0.0
C70 C 0.57757 0.25074 0.78568 0.0
H71 H 0.46427 0.19726 0.69524 0.0
H72 H 0.4476 0.19124 0.77153 0.0
S73 S 0.79626 0.34949 0.75214 0.0
N74 N 0.74446 0.32507 0.70749 0.0
N75 N 0.72658 0.31855 0.79014 0.0
C76 C 0.65633 0.28637 0.76719 0.0
C77 C 0.66607 0.28963 0.72231 0.0
C78 C 0.4605 0.53262 0.96248 0.0
C79 C 0.40559 0.51529 -0.00325 0.0
C80 C 0.48456 0.47859 0.94712 0.0
C81 C 0.45189 0.40498 0.96463 0.0
H82 H 0.48593 0.58858 0.94795 0.0
H83 H 0.52771 0.49392 0.92102 0.0
S84 S 0.3049 0.33116 0.05408 0.0
N85 N 0.31979 0.41991 0.04775 0.0
N86 N 0.36211 0.31749 0.01773 0.0
C87 C 0.39624 0.38685 -0.00152 0.0
C88 C 0.37378 0.44231 0.01486 0.0
C89 C 0.00996 0.46901 0.45511 0.0
C90 C 0.05807 0.50134 0.4912 0.0
C91 C 0.92638 0.41796 0.4586 0.0
C92 C 0.88757 0.39725 0.49833 0.0
H93 H 0.03653 0.48418 0.42377 0.0
H94 H 0.89172 0.3959 0.42983 0.0
S95 S -0.01256 0.46086 0.60292 0.0
N96 N 0.0615 0.50529 0.5682 0.0
N97 N 0.9049 0.40962 0.57472 0.0
C98 C 0.93551 0.42737 0.53476 0.0
C99 C 0.02053 0.47929 0.53122 0.0
C100 C 0.57886 0.02316 0.98645 0.0
C101 C 0.53653 0.06774 0.9859 0.0
C102 C 0.54019 0.947 0.00032 0.0
C103 C 0.4576 0.91267 0.01334 0.0
H104 H 0.64201 0.04698 0.97577 0.0
H105 H 0.57436 0.91417 -0.00039 0.0
S106 S 0.32113 0.00571 0.02073 0.0
N107 N 0.40856 0.07266 0.0021 0.0
N108 N 0.33615 0.92976 0.02709 0.0
C109 C 0.4153 0.95703 0.01387 0.0
C110 C 0.45472 0.03455 0.00044 0.0
C111 C 0.49822 0.44264 0.45521 0.0
C112 C 0.52023 0.42551 0.49483 0.0
C113 C 0.46365 0.49267 0.45149 0.0
C114 C 0.44963 0.5281 0.48719 0.0
H115 H 0.5067 0.41652 0.4266 0.0
H116 H 0.44719 0.50297 0.42019 0.0
S117 S 0.49909 0.50516 0.5983 0.0
N118 N 0.52773 0.44988 0.57063 0.0
N119 N 0.46258 0.54424 0.5636 0.0
C120 C 0.47287 0.51294 0.52704 0.0
C121 C 0.5081 0.4616 0.53087 0.0
C122 C 0.95947 0.56287 0.02515 0.0
C123 C 0.03268 0.56305 0.01108 0.0
C124 C 0.88315 0.50953 0.00983 0.0
C125 C 0.87697 0.45492 0.97935 0.0
H126 H 0.9609 0.60408 0.04841 0.0
H127 H 0.82862 0.51187 0.02166 0.0
S128 S 0.05007 0.43084 0.93205 0.0
N129 N 0.09417 0.50337 0.96504 0.0
N130 N 0.9506 0.40365 0.93582 0.0
C131 C 0.9496 0.45428 0.96495 0.0
C132 C 0.02742 0.50809 0.98097 0.0
C133 C 0.44469 0.00104 0.49441 0.0
C134 C 0.52769 0.03533 0.50611 0.0
C135 C 0.40771 0.92823 0.47649 0.0
C136 C 0.45272 0.88753 0.46881 0.0
H137 H 0.4074 0.03034 0.49958 0.0
H138 H 0.34336 0.9038 0.46846 0.0
S139 S 0.67252 0.95238 0.49294 0.0
N140 N 0.65437 0.02359 0.50867 0.0
N141 N 0.58483 0.8865 0.47396 0.0
C142 C 0.53617 0.92132 0.47978 0.0
C143 C 0.57365 -0.0047 0.49883 0.0
loop_
_geom_bond_atom_site_label_1
_geom_bond_atom_site_label_2
_geom_bond_distance
_geom_bond_site_symmetry_2
_ccdc_geom_bond_type
C0 O1 1.306 . S
C0 O3 1.160 . S
O1 C0 1.306 . S
O1 Cd2 2.228 . S
Cd2 O1 2.228 . S
Cd2 O6 2.273 . S
Cd2 O10 2.277 . S
O3 C0 1.160 . S
O3 Cd4 2.203 . S
Cd4 O3 2.203 . S
Cd4 O6 2.411 . S
Cd4 O7 2.333 . S
Cd4 O8 2.352 1_554 S
Cd4 O12 2.277 . S
Cd4 O13 2.356 . S
C5 O10 1.209 . S
C5 O12 1.226 . S
O6 Cd2 2.273 . S
O6 Cd4 2.411 . S
O6 C9 1.320 . S
O7 Cd4 2.333 . S
O7 C9 1.214 . S
O8 Cd4 2.352 1_556 S
O8 C11 1.258 1_556 S
C9 O6 1.320 . S
C9 O7 1.214 . S
O10 Cd2 2.277 . S
O10 C5 1.209 . S
C11 O8 1.258 1_554 S
C11 O13 1.282 . S
O12 Cd4 2.277 . S
O12 C5 1.226 . S
O13 Cd4 2.356 . S
O13 C11 1.282 . S
C14 O15 1.306 . S
C14 O17 1.160 . S
O15 C14 1.306 . S
O15 Cd16 2.228 . S
Cd16 O15 2.228 . S
Cd16 O20 2.273 . S
Cd16 O24 2.277 . S
O17 C14 1.160 . S
O17 Cd18 2.203 . S
Cd18 O17 2.203 . S
Cd18 O20 2.411 . S
Cd18 O21 2.333 . S
Cd18 O22 2.352 . S
Cd18 O26 2.277 . S
Cd18 O27 2.356 . S
C19 O24 1.209 . S
C19 O26 1.226 . S
O20 Cd16 2.273 . S
O20 Cd18 2.411 . S
O20 C23 1.320 . S
O21 Cd18 2.333 . S
O21 C23 1.214 . S
O22 Cd18 2.352 . S
O22 C25 1.258 . S
C23 O20 1.320 . S
C23 O21 1.214 . S
O24 Cd16 2.277 . S
O24 C19 1.209 . S
C25 O22 1.258 . S
C25 O27 1.282 . S
O26 Cd18 2.277 . S
O26 C19 1.226 . S
O27 Cd18 2.356 . S
O27 C25 1.282 . S
C28 O29 1.306 . S
C28 O31 1.160 . S
O29 C28 1.306 . S
O29 Cd30 2.228 . S
Cd30 O29 2.228 . S
Cd30 O34 2.273 . S
Cd30 O38 2.277 . S
O31 C28 1.160 . S
O31 Cd32 2.203 . S
Cd32 O31 2.203 . S
Cd32 O34 2.411 . S
Cd32 O35 2.333 . S
Cd32 O36 2.352 . S
Cd32 O40 2.277 . S
Cd32 O41 2.356 . S
C33 O38 1.209 . S
C33 O40 1.226 . S
O34 Cd30 2.273 . S
O34 Cd32 2.411 . S
O34 C37 1.320 . S
O35 Cd32 2.333 . S
O35 C37 1.214 . S
O36 Cd32 2.352 . S
O36 C39 1.258 . S
C37 O34 1.320 . S
C37 O35 1.214 . S
O38 Cd30 2.277 . S
O38 C33 1.209 . S
C39 O36 1.258 . S
C39 O41 1.282 . S
O40 Cd32 2.277 . S
O40 C33 1.226 . S
O41 Cd32 2.356 . S
O41 C39 1.282 . S
C42 O43 1.306 . S
C42 O45 1.160 . S
O43 C42 1.306 . S
O43 Cd44 2.228 . S
Cd44 O43 2.228 . S
Cd44 O48 2.273 . S
Cd44 O52 2.277 . S
O45 C42 1.160 . S
O45 Cd46 2.203 . S
Cd46 O45 2.203 . S
Cd46 O48 2.411 . S
Cd46 O49 2.333 . S
Cd46 O50 2.352 1_556 S
Cd46 O54 2.277 . S
Cd46 O55 2.356 . S
C47 O52 1.209 . S
C47 O54 1.226 . S
O48 Cd44 2.273 . S
O48 Cd46 2.411 . S
O48 C51 1.320 . S
O49 Cd46 2.333 . S
O49 C51 1.214 . S
O50 Cd46 2.352 1_554 S
O50 C53 1.258 1_554 S
C51 O48 1.320 . S
C51 O49 1.214 . S
O52 Cd44 2.277 . S
O52 C47 1.209 . S
C53 O50 1.258 1_556 S
C53 O55 1.282 . S
O54 Cd46 2.277 . S
O54 C47 1.226 . S
O55 Cd46 2.356 . S
O55 C53 1.282 . S
C56 C57 1.369 . S
C56 C58 1.419 . S
C56 H60 0.930 . S
C57 C56 1.369 . S
C57 C66 1.429 . S
C58 C56 1.419 . S
C58 C59 1.363 . S
C58 H61 0.929 . S
C59 C58 1.363 . S
C59 C65 1.428 . S
H60 C56 0.930 . S
H61 C58 0.929 . S
S62 N63 1.613 . S
S62 N64 1.610 . S
N63 S62 1.613 . S
N63 C66 1.350 . S
N64 S62 1.610 . S
N64 C65 1.351 . S
C65 C59 1.428 . S
C65 N64 1.351 . S
C65 C66 1.434 . S
C66 C57 1.429 . S
C66 N63 1.350 . S
C66 C65 1.434 . S
C67 C68 1.369 . S
C67 C69 1.419 . S
C67 H71 0.930 . S
C68 C67 1.369 . S
C68 C77 1.429 . S
C69 C67 1.419 . S
C69 C70 1.363 . S
C69 H72 0.929 . S
C70 C69 1.363 . S
C70 C76 1.428 . S
H71 C67 0.930 . S
H72 C69 0.929 . S
S73 N74 1.613 . S
S73 N75 1.610 . S
N74 S73 1.613 . S
N74 C77 1.350 . S
N75 S73 1.610 . S
N75 C76 1.351 . S
C76 C70 1.428 . S
C76 N75 1.351 . S
C76 C77 1.434 . S
C77 C68 1.429 . S
C77 N74 1.350 . S
C77 C76 1.434 . S
C78 C79 1.369 . S
C78 C80 1.419 . S
C78 H82 0.930 . S
C79 C78 1.369 . S
C79 C88 1.429 1_556 S
C80 C78 1.419 . S
C80 C81 1.363 . S
C80 H83 0.929 . S
C81 C80 1.363 . S
C81 C87 1.428 1_556 S
H82 C78 0.930 . S
H83 C80 0.929 . S
S84 N85 1.613 . S
S84 N86 1.610 . S
N85 S84 1.613 . S
N85 C88 1.350 . S
N86 S84 1.610 . S
N86 C87 1.351 . S
C87 C81 1.428 1_554 S
C87 N86 1.351 . S
C87 C88 1.434 . S
C88 C79 1.429 1_554 S
C88 N85 1.350 . S
C88 C87 1.434 . S
C89 C90 1.369 . S
C89 C91 1.419 1_455 S
C89 H93 0.930 . S
C90 C89 1.369 . S
C90 C99 1.429 . S
C91 C89 1.419 1_655 S
C91 C92 1.363 . S
C91 H94 0.929 . S
C92 C91 1.363 . S
C92 C98 1.428 . S
H93 C89 0.930 . S
H94 C91 0.929 . S
S95 N96 1.613 1_655 S
S95 N97 1.610 . S
N96 S95 1.613 1_455 S
N96 C99 1.350 . S
N97 S95 1.610 . S
N97 C98 1.351 . S
C98 C92 1.428 . S
C98 N97 1.351 . S
C98 C99 1.434 1_655 S
C99 C90 1.429 . S
C99 N96 1.350 . S
C99 C98 1.434 1_455 S
C100 C101 1.369 . S
C100 C102 1.419 1_545 S
C100 H104 0.930 . S
C101 C100 1.369 . S
C101 C110 1.429 1_556 S
C102 C100 1.419 1_565 S
C102 C103 1.363 1_556 S
C102 H105 0.929 . S
C103 C102 1.363 1_554 S
C103 C109 1.428 . S
H104 C100 0.930 . S
H105 C102 0.929 . S
S106 N107 1.613 . S
S106 N108 1.610 1_545 S
N107 S106 1.613 . S
N107 C110 1.350 . S
N108 S106 1.610 1_565 S
N108 C109 1.351 . S
C109 C103 1.428 . S
C109 N108 1.351 . S
C109 C110 1.434 1_565 S
C110 C101 1.429 1_554 S
C110 N107 1.350 . S
C110 C109 1.434 1_545 S
C111 C112 1.369 . S
C111 C113 1.419 . S
C111 H115 0.930 . S
C112 C111 1.369 . S
C112 C121 1.429 . S
C113 C111 1.419 . S
C113 C114 1.363 . S
C113 H116 0.929 . S
C114 C113 1.363 . S
C114 C120 1.428 . S
H115 C111 0.930 . S
H116 C113 0.929 . S
S117 N118 1.613 . S
S117 N119 1.610 . S
N118 S117 1.613 . S
N118 C121 1.350 . S
N119 S117 1.610 . S
N119 C120 1.351 . S
C120 C114 1.428 . S
C120 N119 1.351 . S
C120 C121 1.434 . S
C121 C112 1.429 . S
C121 N118 1.350 . S
C121 C120 1.434 . S
C122 C123 1.369 . S
C122 C124 1.419 1_455 S
C122 H126 0.930 . S
C123 C122 1.369 . S
C123 C132 1.429 1_554 S
C124 C122 1.419 1_655 S
C124 C125 1.363 . S
C124 H127 0.929 . S
C125 C124 1.363 . S
C125 C131 1.428 1_554 S
H126 C122 0.930 . S
H127 C124 0.929 . S
S128 N129 1.613 . S
S128 N130 1.610 1_455 S
N129 S128 1.613 . S
N129 C132 1.350 . S
N130 S128 1.610 1_655 S
N130 C131 1.351 . S
C131 C125 1.428 1_556 S
C131 N130 1.351 . S
C131 C132 1.434 1_655 S
C132 C123 1.429 1_556 S
C132 N129 1.350 . S
C132 C131 1.434 1_455 S
C133 C134 1.369 . S
C133 C135 1.419 1_545 S
C133 H137 0.930 . S
C134 C133 1.369 . S
C134 C143 1.429 . S
C135 C133 1.419 1_565 S
C135 C136 1.363 . S
C135 H138 0.929 . S
C136 C135 1.363 . S
C136 C142 1.428 . S
H137 C133 0.930 . S
H138 C135 0.929 . S
S139 N140 1.614 . S
S139 N141 1.610 . S
N140 S139 1.614 . S
N140 C143 1.350 1_565 S
N141 S139 1.610 . S
N141 C142 1.351 . S
C142 C136 1.428 . S
C142 N141 1.351 . S
C142 C143 1.434 1_565 S
C143 C134 1.429 . S
C143 N140 1.350 1_545 S
C143 C142 1.434 1_545 S
C57 C5 1.576 . S
C59 C39 1.561 . S
C68 C25 1.563 . S
C70 C47 1.578 . S
C79 C11 1.448 1_556 S
C81 C42 1.466 . S
C90 C28 1.636 . S
C92 C19 1.634 . S
C101 C51 1.525 . S
C103 C9 1.529 . S
C112 C14 1.638 . S
C114 C33 1.636 . S
C123 C0 1.467 . S
C125 C53 1.449 1_554 S
C134 C23 1.590 . S
C136 C37 1.589 . S
