# Generated by pormake.
# Topology qtz, (4)-cn, num edge types: 1
# Building blocks:
#     Node 0, Type 0, BuildingBlock: AZAVOO_clean_sbu_0, # of connection points: 4
#     Node 1, Type 0, BuildingBlock: AZAVOO_clean_sbu_0, # of connection points: 4
#     Node 2, Type 0, BuildingBlock: AZAVOO_clean_sbu_0, # of connection points: 4
#     Edge 3, Type (0, 0), BuildingBlock: CIFDUS_clean_linker_0, # of connection points: 2
#     Edge 4, Type (0, 0), BuildingBlock: CIFDUS_clean_linker_0, # of connection points: 2
#     Edge 5, Type (0, 0), BuildingBlock: CIFDUS_clean_linker_0, # of connection points: 2
#     Edge 6, Type (0, 0), BuildingBlock: CIFDUS_clean_linker_0, # of connection points: 2
#     Edge 7, Type (0, 0), BuildingBlock: CIFDUS_clean_linker_0, # of connection points: 2
#     Edge 8, Type (0, 0), BuildingBlock: CIFDUS_clean_linker_0, # of connection points: 2
# Relax obj value: 0.162
# Max RMSD: 0.228
# Mean RMSD: 0.200
data_MOF--net-qtz--node1-AZAVOO_clean_sbu_0--edge1-CIFDUS_clean_linker_0
_symmetry_space_group_name_H-M    P1
_symmetry_Int_Tables_number       1
_symmetry_cell_setting            triclinic
loop_
_symmetry_equiv_pos_as_xyz
'x, y, z'
_cell_length_a     19.834646
_cell_length_b     20.575837
_cell_length_c     26.648897
_cell_angle_alpha  93.622562
_cell_angle_beta   94.768675
_cell_angle_gamma 123.96392
loop_
_atom_site_label
_atom_site_type_symbol
_atom_site_fract_x
_atom_site_fract_y
_atom_site_fract_z
_atom_type_partial_charge
Mg0 Mg 0.98094 0.45405 0.09431 0.0
O1 O 0.05862 0.56749 0.15266 0.0
O2 O 0.96932 0.57565 0.19414 0.0
Mg3 Mg 0.83954 0.46736 0.16683 0.0
C4 C 0.04243 0.60283 0.18577 0.0
C5 C 0.09852 0.43526 0.04158 0.0
O6 O 0.05043 0.36739 0.0585 0.0
O7 O 0.93547 0.51229 0.04424 0.0
O8 O 0.84632 0.51341 0.08996 0.0
O9 O 0.99017 0.38347 0.15111 0.0
O10 O 0.89118 0.40277 0.1408 0.0
C11 C 0.88216 0.52744 0.05042 0.0
C12 C 0.92419 0.37293 0.16518 0.0
O13 O 0.08789 0.49002 0.05113 0.0
Mg14 Mg 0.59565 0.0708 0.45328 0.0
O15 O 0.48135 0.97634 0.39676 0.0
O16 O 0.43671 0.03791 0.35334 0.0
Mg17 Mg 0.52416 0.17062 0.37904 0.0
C18 C 0.43068 0.97507 0.36308 0.0
C19 C 0.64502 0.98902 0.52788 0.0
O20 O 0.71175 0.06139 0.5368 0.0
O21 O 0.51987 0.09027 0.50488 0.0
O22 O 0.48403 0.15559 0.45786 0.0
O23 O 0.67647 0.086 0.39543 0.0
O24 O 0.62183 0.15419 0.40447 0.0
C25 C 0.48484 0.12628 0.4985 0.0
C26 C 0.66477 0.13776 0.37981 0.0
O27 O 0.58535 0.97403 0.49589 0.0
Mg28 Mg 0.48779 0.54322 0.76895 0.0
O29 O 0.59445 0.5847 0.83285 0.0
O30 O 0.61213 0.68617 0.88253 0.0
Mg31 Mg 0.5231 0.71416 0.84907 0.0
C32 C 0.63091 0.63737 0.87181 0.0
C33 C 0.45704 0.39626 0.70579 0.0
O34 O 0.38212 0.37743 0.70708 0.0
O35 O 0.56926 0.64719 0.7265 0.0
O36 O 0.58539 0.7473 0.77733 0.0
O37 O 0.39856 0.46703 0.81941 0.0
O38 O 0.44021 0.59052 0.81387 0.0
C39 C 0.59812 0.72037 0.73737 0.0
C40 C 0.39797 0.5276 0.83501 0.0
O41 O 0.51739 0.46339 0.7278 0.0
H42 H 0.31647 0.41015 0.8932 0.0
H43 H 0.37451 0.6405 0.86867 0.0
H44 H 0.2915 0.63467 0.93294 0.0
H45 H 0.19612 0.56115 -0.00735 0.0
H46 H 0.13566 0.32955 0.01596 0.0
H47 H 0.22613 0.33921 -0.04411 0.0
C48 C 0.31137 0.45927 0.90215 0.0
C49 C 0.35164 0.52557 0.87616 0.0
C50 C 0.2628 0.45527 0.93883 0.0
C51 C 0.34458 0.58886 0.88828 0.0
C52 C 0.29681 0.58552 0.92493 0.0
C53 C 0.20326 0.51307 -0.01507 0.0
C54 C 0.15875 0.44458 0.00849 0.0
C55 C 0.2548 0.51859 -0.05004 0.0
C56 C 0.16886 0.38286 -0.00186 0.0
C57 C 0.22053 0.38821 -0.03628 0.0
H58 H 0.77999 0.33085 0.19537 0.0
H59 H 0.98475 0.31214 0.22885 0.0
H60 H 0.91988 0.23322 0.29674 0.0
H61 H 0.80536 0.17137 0.34733 0.0
H62 H 0.60308 0.19338 0.31325 0.0
H63 H 0.66659 0.26914 0.2447 0.0
C64 C 0.81098 0.31025 0.21775 0.0
C65 C 0.88736 0.32794 0.20744 0.0
C66 C 0.77353 0.26517 0.25644 0.0
C67 C 0.926 0.29962 0.23629 0.0
C68 C 0.88888 0.25434 0.27498 0.0
C69 C 0.775 0.1922 0.3245 0.0
C70 C 0.69999 0.17745 0.33561 0.0
C71 C 0.81257 0.23674 0.28536 0.0
C72 C 0.66143 0.20511 0.30613 0.0
C73 C 0.69762 0.24827 0.26673 0.0
H74 H 0.73753 0.00855 0.61591 0.0
H75 H 0.53475 0.82949 0.50463 0.0
H76 H 0.51314 0.72717 0.55625 0.0
H77 H 0.54067 0.69089 0.63772 0.0
H78 H 0.73304 0.87177 0.75281 0.0
H79 H 0.77168 0.97081 0.69467 0.0
C80 C 0.68938 0.94702 0.60263 0.0
C81 C 0.6373 0.92672 0.5568 0.0
C82 C 0.67574 0.88878 0.63321 0.0
C83 C 0.57504 0.84675 0.54012 0.0
C84 C 0.56278 0.78816 0.56953 0.0
C85 C 0.59275 0.75154 0.64933 0.0
C86 C 0.63465 0.77423 0.69907 0.0
C87 C 0.61131 0.80873 0.61676 0.0
C88 C 0.70056 0.85321 0.71441 0.0
C89 C 0.72205 0.90982 0.68138 0.0
H90 H 0.71357 0.56859 0.85643 0.0
H91 H 0.68254 0.705 -0.02949 0.0
H92 H 0.76502 0.68952 0.03499 0.0
H93 H 0.83314 0.62554 0.06091 0.0
H94 H 0.86868 0.49206 -0.05209 0.0
H95 H 0.79853 0.51916 0.88099 0.0
C96 C 0.72575 0.59572 0.89527 0.0
C97 C 0.69078 0.63687 0.90865 0.0
C98 C 0.77379 0.58692 0.93242 0.0
C99 C 0.70825 0.67272 -0.04096 0.0
C100 C 0.75525 0.6637 -0.00389 0.0
C101 C 0.82665 0.60348 0.0215 0.0
C102 C 0.85496 0.55614 0.00931 0.0
C103 C 0.78639 0.6192 -0.01651 0.0
C104 C 0.84738 0.52878 -0.04186 0.0
C105 C 0.80672 0.54374 0.91996 0.0
H106 H 0.28551 0.9379 0.31451 0.0
H107 H 0.42844 0.8418 0.34265 0.0
H108 H 0.32333 0.71955 0.28758 0.0
H109 H 0.19008 0.63979 0.23091 0.0
H110 H 0.04375 0.73339 0.2088 0.0
H111 H 0.1511 0.85704 0.26141 0.0
C112 C 0.29365 0.89017 0.30866 0.0
C113 C 0.36481 0.89907 0.33249 0.0
C114 C 0.23253 0.81978 0.27764 0.0
C115 C 0.37398 0.83629 0.32497 0.0
C116 C 0.31413 0.76654 0.29324 0.0
C117 C 0.18236 0.6877 0.23739 0.0
C118 C 0.10979 0.67816 0.21571 0.0
C119 C 0.24325 0.75772 0.26918 0.0
C120 C 0.09937 0.73974 0.22508 0.0
C121 C 0.16058 0.8103 0.25519 0.0
H122 H 0.34734 0.26948 0.63601 0.0
H123 H 0.59752 0.40023 0.71119 0.0
H124 H 0.62283 0.31564 0.65939 0.0
H125 H 0.57849 0.21476 0.58614 0.0
H126 H 0.33384 0.09519 0.5048 0.0
H127 H 0.30053 0.16319 0.56634 0.0
C128 C 0.40712 0.27889 0.64151 0.0
C129 C 0.47067 0.34151 0.6771 0.0
C130 C 0.42185 0.23144 0.61064 0.0
C131 C 0.54784 0.35301 0.68365 0.0
C132 C 0.56227 0.30449 0.65417 0.0
C133 C 0.51711 0.20177 0.58313 0.0
C134 C 0.45796 0.14912 0.54191 0.0
C135 C 0.50032 0.24472 0.61676 0.0
C136 C 0.37952 0.13452 0.53695 0.0
C137 C 0.36096 0.17408 0.57173 0.0
loop_
_geom_bond_atom_site_label_1
_geom_bond_atom_site_label_2
_geom_bond_distance
_geom_bond_site_symmetry_2
_ccdc_geom_bond_type
Mg0 O1 2.028 1_655 S
Mg0 O7 1.986 . S
Mg0 O9 2.114 . S
Mg0 O10 2.251 . S
Mg0 O13 2.010 1_655 S
O1 Mg0 2.028 1_455 S
O1 C4 1.250 . S
O2 Mg3 2.028 1_455 S
O2 C4 1.248 . S
Mg3 O2 2.028 1_655 S
Mg3 O8 2.032 . S
Mg3 O10 2.079 . S
C4 O1 1.250 . S
C4 O2 1.248 . S
C5 O6 1.264 . S
C5 O13 1.249 . S
O6 C5 1.264 . S
O7 Mg0 1.986 . S
O7 C11 1.246 . S
O8 Mg3 2.032 . S
O8 C11 1.259 . S
O9 Mg0 2.114 . S
O9 C12 1.252 . S
O10 Mg0 2.251 . S
O10 Mg3 2.079 . S
O10 C12 1.273 . S
C11 O7 1.246 . S
C11 O8 1.259 . S
C12 O9 1.252 . S
C12 O10 1.273 . S
O13 Mg0 2.010 1_455 S
O13 C5 1.249 . S
Mg14 O15 2.028 1_545 S
Mg14 O21 1.986 . S
Mg14 O23 2.114 . S
Mg14 O24 2.251 . S
Mg14 O27 2.010 1_545 S
O15 Mg14 2.028 1_565 S
O15 C18 1.250 . S
O16 Mg17 2.028 . S
O16 C18 1.248 1_545 S
Mg17 O16 2.028 . S
Mg17 O22 2.032 . S
Mg17 O24 2.079 . S
C18 O15 1.250 . S
C18 O16 1.248 1_565 S
C19 O20 1.264 . S
C19 O27 1.249 . S
O20 C19 1.264 . S
O21 Mg14 1.986 . S
O21 C25 1.246 . S
O22 Mg17 2.032 . S
O22 C25 1.259 . S
O23 Mg14 2.114 . S
O23 C26 1.252 . S
O24 Mg14 2.251 . S
O24 Mg17 2.079 . S
O24 C26 1.273 . S
C25 O21 1.246 . S
C25 O22 1.259 . S
C26 O23 1.252 . S
C26 O24 1.273 . S
O27 Mg14 2.010 1_565 S
O27 C19 1.249 . S
Mg28 O29 2.028 . S
Mg28 O35 1.986 . S
Mg28 O37 2.114 . S
Mg28 O38 2.251 . S
Mg28 O41 2.010 . S
O29 Mg28 2.028 . S
O29 C32 1.250 . S
O30 Mg31 2.028 . S
O30 C32 1.248 . S
Mg31 O30 2.028 . S
Mg31 O36 2.032 . S
Mg31 O38 2.079 . S
C32 O29 1.250 . S
C32 O30 1.248 . S
C33 O34 1.264 . S
C33 O41 1.249 . S
O34 C33 1.264 . S
O35 Mg28 1.986 . S
O35 C39 1.246 . S
O36 Mg31 2.032 . S
O36 C39 1.259 . S
O37 Mg28 2.114 . S
O37 C40 1.252 . S
O38 Mg28 2.251 . S
O38 Mg31 2.079 . S
O38 C40 1.273 . S
C39 O35 1.246 . S
C39 O36 1.259 . S
C40 O37 1.252 . S
C40 O38 1.273 . S
O41 Mg28 2.010 . S
O41 C33 1.249 . S
H42 C48 0.930 . S
H43 C51 0.930 . S
H44 C52 0.930 . S
H45 C53 0.930 . S
H46 C56 0.930 . S
H47 C57 0.930 . S
C48 H42 0.930 . S
C48 C49 1.355 . S
C48 C50 1.410 1_556 S
C49 C48 1.355 . S
C49 C51 1.419 . S
C50 C48 1.410 1_554 S
C50 C55 1.425 1_554 S
C50 C57 1.414 . S
C51 H43 0.930 . S
C51 C49 1.419 . S
C51 C52 1.362 . S
C52 H44 0.930 . S
C52 C51 1.362 . S
C52 C55 1.417 . S
C53 H45 0.930 . S
C53 C54 1.355 . S
C53 C55 1.408 1_554 S
C54 C53 1.355 . S
C54 C56 1.419 . S
C55 C50 1.425 1_556 S
C55 C52 1.417 . S
C55 C53 1.408 1_556 S
C56 H46 0.930 . S
C56 C54 1.419 . S
C56 C57 1.362 . S
C57 H47 0.930 . S
C57 C50 1.414 . S
C57 C56 1.362 . S
H58 C64 0.930 . S
H59 C67 0.930 . S
H60 C68 0.930 . S
H61 C69 0.930 . S
H62 C72 0.930 . S
H63 C73 0.930 . S
C64 H58 0.930 . S
C64 C65 1.355 . S
C64 C66 1.415 . S
C65 C64 1.355 . S
C65 C67 1.419 . S
C66 C64 1.415 . S
C66 C71 1.425 . S
C66 C73 1.409 . S
C67 H59 0.930 . S
C67 C65 1.419 . S
C67 C68 1.362 . S
C68 H60 0.930 . S
C68 C67 1.362 . S
C68 C71 1.409 . S
C69 H61 0.930 . S
C69 C70 1.355 . S
C69 C71 1.415 . S
C70 C69 1.355 . S
C70 C72 1.419 . S
C71 C66 1.425 . S
C71 C68 1.409 . S
C71 C69 1.415 . S
C72 H62 0.930 . S
C72 C70 1.419 . S
C72 C73 1.362 . S
C73 H63 0.930 . S
C73 C66 1.409 . S
C73 C72 1.362 . S
H74 C80 0.930 . S
H75 C83 0.930 . S
H76 C84 0.930 . S
H77 C85 0.930 . S
H78 C88 0.930 . S
H79 C89 0.930 . S
C80 H74 0.930 . S
C80 C81 1.355 . S
C80 C82 1.415 . S
C81 C80 1.355 . S
C81 C83 1.419 . S
C82 C80 1.415 . S
C82 C87 1.425 . S
C82 C89 1.409 . S
C83 H75 0.930 . S
C83 C81 1.419 . S
C83 C84 1.362 . S
C84 H76 0.930 . S
C84 C83 1.362 . S
C84 C87 1.409 . S
C85 H77 0.930 . S
C85 C86 1.355 . S
C85 C87 1.415 . S
C86 C85 1.355 . S
C86 C88 1.419 . S
C87 C82 1.425 . S
C87 C84 1.409 . S
C87 C85 1.415 . S
C88 H78 0.930 . S
C88 C86 1.419 . S
C88 C89 1.362 . S
C89 H79 0.930 . S
C89 C82 1.409 . S
C89 C88 1.362 . S
H90 C96 0.930 . S
H91 C99 0.930 . S
H92 C100 0.930 . S
H93 C101 0.930 . S
H94 C104 0.930 . S
H95 C105 0.930 . S
C96 H90 0.930 . S
C96 C97 1.355 . S
C96 C98 1.415 . S
C97 C96 1.355 . S
C97 C99 1.419 . S
C98 C96 1.415 . S
C98 C103 1.425 1_556 S
C98 C105 1.409 . S
C99 H91 0.930 . S
C99 C97 1.419 . S
C99 C100 1.362 1_556 S
C100 H92 0.930 . S
C100 C99 1.362 1_554 S
C100 C103 1.409 . S
C101 H93 0.930 . S
C101 C102 1.355 . S
C101 C103 1.415 . S
C102 C101 1.355 . S
C102 C104 1.419 . S
C103 C98 1.425 1_554 S
C103 C100 1.409 . S
C103 C101 1.415 . S
C104 H94 0.930 . S
C104 C102 1.419 . S
C104 C105 1.362 1_554 S
C105 H95 0.930 . S
C105 C98 1.409 . S
C105 C104 1.362 1_556 S
H106 C112 0.930 . S
H107 C115 0.930 . S
H108 C116 0.930 . S
H109 C117 0.930 . S
H110 C120 0.930 . S
H111 C121 0.930 . S
C112 H106 0.930 . S
C112 C113 1.355 . S
C112 C114 1.415 . S
C113 C112 1.355 . S
C113 C115 1.419 . S
C114 C112 1.415 . S
C114 C119 1.425 . S
C114 C121 1.409 . S
C115 H107 0.930 . S
C115 C113 1.419 . S
C115 C116 1.362 . S
C116 H108 0.930 . S
C116 C115 1.362 . S
C116 C119 1.409 . S
C117 H109 0.930 . S
C117 C118 1.355 . S
C117 C119 1.415 . S
C118 C117 1.355 . S
C118 C120 1.419 . S
C119 C114 1.425 . S
C119 C116 1.409 . S
C119 C117 1.415 . S
C120 H110 0.930 . S
C120 C118 1.419 . S
C120 C121 1.362 . S
C121 H111 0.930 . S
C121 C114 1.409 . S
C121 C120 1.362 . S
H122 C128 0.930 . S
H123 C131 0.930 . S
H124 C132 0.930 . S
H125 C133 0.930 . S
H126 C136 0.930 . S
H127 C137 0.930 . S
C128 H122 0.930 . S
C128 C129 1.355 . S
C128 C130 1.415 . S
C129 C128 1.355 . S
C129 C131 1.419 . S
C130 C128 1.415 . S
C130 C135 1.425 . S
C130 C137 1.409 . S
C131 H123 0.930 . S
C131 C129 1.419 . S
C131 C132 1.362 . S
C132 H124 0.930 . S
C132 C131 1.362 . S
C132 C135 1.409 . S
C133 H125 0.930 . S
C133 C134 1.355 . S
C133 C135 1.415 . S
C134 C133 1.355 . S
C134 C136 1.419 . S
C135 C130 1.425 . S
C135 C132 1.409 . S
C135 C133 1.415 . S
C136 H126 0.930 . S
C136 C134 1.419 . S
C136 C137 1.362 . S
C137 H127 0.930 . S
C137 C130 1.409 . S
C137 C136 1.362 . S
C49 C40 1.331 . S
C54 C5 1.126 . S
C65 C12 1.379 . S
C70 C26 1.358 . S
C81 C19 1.174 . S
C86 C39 1.249 . S
C97 C32 1.253 . S
C102 C11 1.300 . S
C113 C18 1.350 . S
C118 C4 1.322 . S
C129 C33 1.183 . S
C134 C25 1.239 . S
