# Generated by pormake.
# Topology cdl, (4)-cn, num edge types: 1
# Building blocks:
#     Node 0, Type 0, BuildingBlock: ESEHIV_clean_sbu_0, # of connection points: 4
#     Node 1, Type 0, BuildingBlock: ESEHIV_clean_sbu_0, # of connection points: 4
#     Node 2, Type 0, BuildingBlock: ESEHIV_clean_sbu_0, # of connection points: 4
#     Node 3, Type 0, BuildingBlock: ESEHIV_clean_sbu_0, # of connection points: 4
#     Edge 4, Type (0, 0), BuildingBlock: OJICUG_clean_linker_0, # of connection points: 2
#     Edge 5, Type (0, 0), BuildingBlock: OJICUG_clean_linker_0, # of connection points: 2
#     Edge 6, Type (0, 0), BuildingBlock: OJICUG_clean_linker_0, # of connection points: 2
#     Edge 7, Type (0, 0), BuildingBlock: OJICUG_clean_linker_0, # of connection points: 2
#     Edge 8, Type (0, 0), BuildingBlock: OJICUG_clean_linker_0, # of connection points: 2
#     Edge 9, Type (0, 0), BuildingBlock: OJICUG_clean_linker_0, # of connection points: 2
#     Edge 10, Type (0, 0), BuildingBlock: OJICUG_clean_linker_0, # of connection points: 2
#     Edge 11, Type (0, 0), BuildingBlock: OJICUG_clean_linker_0, # of connection points: 2
# Relax obj value: 0.000
# Max RMSD: 0.146
# Mean RMSD: 0.095
data_MOF--net-cdl--node1-ESEHIV_clean_sbu_0--edge1-OJICUG_clean_linker_0
_symmetry_space_group_name_H-M    P1
_symmetry_Int_Tables_number       1
_symmetry_cell_setting            triclinic
loop_
_symmetry_equiv_pos_as_xyz
'x, y, z'
_cell_length_a     10.611246
_cell_length_b     12.95711
_cell_length_c     46.930482
_cell_angle_alpha  100.92888
_cell_angle_beta   99.297067
_cell_angle_gamma 87.267216
loop_
_atom_site_label
_atom_site_type_symbol
_atom_site_fract_x
_atom_site_fract_y
_atom_site_fract_z
_atom_type_partial_charge
Cu0 Cu 0.99252 0.15196 0.13003 0.0
N1 N 0.88921 1.03363 0.11931 0.0
N2 N 0.82991 0.86797 0.11554 0.0
C3 C 0.90107 0.94776 0.13197 0.0
C4 C 0.77132 0.90434 0.09163 0.0
C5 C 0.80747 1.00693 0.09411 0.0
O6 O 0.09136 0.14688 0.16874 0.0
C7 C 0.04541 0.17946 0.07549 0.0
O8 O 0.92953 0.22041 0.07415 0.0
H9 H 0.96739 0.94121 0.15168 0.0
H10 H 0.78201 0.05639 0.07784 0.0
N11 N 0.89375 0.27678 0.13306 0.0
N12 N 0.83613 0.44506 0.13327 0.0
C13 C 0.92921 0.37146 0.12942 0.0
C14 C 0.77406 0.29141 0.13939 0.0
C15 C 0.73859 0.39549 0.13975 0.0
C16 C 1.02763 0.15472 0.18992 0.0
O17 O 0.90285 0.16502 0.18434 0.0
H18 H 1.02103 0.38594 0.12383 0.0
H19 H 0.71631 0.23041 0.14326 0.0
O20 O 0.09584 0.14526 0.09858 0.0
H21 H 0.71094 0.85856 0.07321 0.0
H22 H 0.64716 0.43136 0.14362 0.0
Cu23 Cu 0.32842 0.26848 0.67292 0.0
N24 N 0.36085 0.19489 0.70414 0.0
N25 N 0.33308 0.1431 0.74555 0.0
C26 C 0.28312 0.19683 0.72424 0.0
C27 C 0.4472 0.10555 0.73856 0.0
C28 C 0.46379 0.13718 0.71286 0.0
O29 O 0.17369 0.35264 0.67935 0.0
C30 C 0.57176 0.37112 0.69137 0.0
O31 O 0.5608 0.36032 0.71813 0.0
H32 H 0.19286 0.23955 0.72365 0.0
H33 H 0.54609 0.1212 0.70169 0.0
N34 N 0.29941 0.17455 0.63708 0.0
N35 N 0.2927 0.11192 0.58888 0.0
C36 C 0.31748 0.19554 0.61101 0.0
C37 C 0.26239 0.0741 0.63156 0.0
C38 C 0.25802 1.03527 0.6019 0.0
C39 C 0.07591 0.35612 0.65978 0.0
O40 O 0.08457 0.31711 0.63221 0.0
H41 H 0.34734 0.27156 0.60856 0.0
H42 H 0.24135 1.03187 0.64798 0.0
O43 O 0.47849 0.34665 0.67071 0.0
H44 H 0.5135 0.05843 0.75103 0.0
H45 H 0.23284 0.95602 0.59107 0.0
Cu46 Cu 0.038 0.12846 0.90081 0.0
N47 N 0.93545 1.00914 0.89148 0.0
N48 N 0.86965 0.84342 0.88471 0.0
C49 C 0.96977 0.90891 0.89339 0.0
C50 C 0.76915 0.90486 0.87651 0.0
C51 C 0.81005 1.00646 0.88057 0.0
O52 O 0.11696 0.15269 0.94206 0.0
C53 C 0.09083 0.11421 0.84508 0.0
O54 O 0.96561 0.1094 0.84082 0.0
H55 H 0.06596 0.88462 0.9011 0.0
H56 H 0.75221 0.07355 0.87557 0.0
N57 N 0.93211 0.24669 0.89883 0.0
N58 N 0.86749 0.41084 0.89491 0.0
C59 C 0.95642 0.33449 0.88939 0.0
C60 C 0.82524 0.26827 0.91097 0.0
C61 C 0.78459 0.36895 0.9084 0.0
C62 C 0.16293 0.08816 0.95859 0.0
O63 O 0.18375 0.98974 0.94697 0.0
H64 H 0.03982 0.34291 0.87952 0.0
H65 H 0.78324 0.21606 0.92214 0.0
O66 O 0.15013 0.12147 0.87128 0.0
H67 H 0.67293 0.87848 0.86788 0.0
H68 H 0.70409 0.40984 0.91725 0.0
Cu69 Cu 0.30727 0.23245 0.39632 0.0
N70 N 0.29272 0.15688 0.35765 0.0
N71 N 0.25151 0.12485 0.30845 0.0
C72 C 0.22417 0.18577 0.33352 0.0
C73 C 0.34178 0.05557 0.31712 0.0
C74 C 0.36752 0.07596 0.34742 0.0
O75 O 0.45733 0.31616 0.39993 0.0
C76 C 0.04822 0.27086 0.39177 0.0
O77 O 0.04846 0.17415 0.37696 0.0
H78 H 0.16018 0.25351 0.33433 0.0
H79 H 0.44019 1.0377 0.36096 0.0
N80 N 0.3261 0.1436 0.42403 0.0
N81 N 0.3236 0.09243 0.46694 0.0
C82 C 0.31987 0.17463 0.45288 0.0
C83 C 0.33238 1.03787 0.4196 0.0
C84 C 0.33116 1.0061 0.44603 0.0
C85 C 0.55044 0.32857 0.42096 0.0
O86 O 0.53916 0.30051 0.44587 0.0
H87 H 0.30826 0.25598 0.46312 0.0
H88 H 0.33376 0.98709 0.39854 0.0
O89 O 0.15388 0.3161 0.40214 0.0
H90 H 0.3874 0.99555 0.30264 0.0
H91 H 0.33478 0.92573 0.44952 0.0
C92 C 0.7955 0.6344 0.14989 0.0
C93 C 0.83684 0.5522 0.12916 0.0
H94 H 0.76434 0.80129 0.16197 0.0
C95 C 0.87643 0.57562 0.10399 0.0
H96 H 0.7649 0.61782 0.16945 0.0
C97 C 0.87237 0.67933 0.09935 0.0
C98 C 0.83232 0.76153 0.12021 0.0
H99 H 0.90783 0.51326 0.08767 0.0
H100 H 0.90186 0.69588 0.07966 0.0
C101 C 0.79535 0.73862 0.14568 0.0
C102 C 0.80831 0.39949 0.70585 0.0
C103 C 0.69935 0.38949 0.68406 0.0
H104 H 1.01275 0.39832 0.71542 0.0
C105 C 0.71597 0.38388 0.65465 0.0
H106 H 0.79935 0.40444 0.72873 0.0
C107 C 0.83855 0.3802 0.647 0.0
C108 C 0.94773 0.38233 0.66855 0.0
H109 H 0.63447 0.37666 0.63726 0.0
H110 H 0.84753 0.37039 0.62397 0.0
C111 C 0.93104 0.3961 0.69819 0.0
C112 C 0.98121 0.56558 0.88838 0.0
C113 C 0.86731 0.51801 0.89039 0.0
H114 H 0.07125 0.70541 0.88459 0.0
C115 C 0.75361 0.57834 0.88913 0.0
H116 H 0.07086 0.52208 0.88946 0.0
C117 C 0.75418 0.68414 0.88681 0.0
C118 C 0.86846 0.73258 0.88553 0.0
H119 H 0.6638 0.54412 0.89016 0.0
H120 H 0.66513 0.72835 0.88677 0.0
C121 C 0.98173 0.67151 0.88596 0.0
C122 C 0.78624 0.35588 0.43641 0.0
C123 C 0.67894 0.34448 0.41419 0.0
H124 H 0.99069 0.34433 0.44648 0.0
C125 C 0.69788 0.3299 0.38467 0.0
H126 H 0.77478 0.36751 0.45933 0.0
C127 C 0.82062 0.31463 0.37744 0.0
C128 C 0.92677 0.3173 0.39955 0.0
H129 H 0.61772 0.32107 0.36694 0.0
H130 H 0.8321 0.29416 0.3545 0.0
C131 C 0.90968 0.34324 0.42911 0.0
C132 C 0.19522 1.04662 1.00979 0.0
C133 C 0.16332 0.11941 0.99082 0.0
H134 H 0.18528 1.00952 0.05217 0.0
C135 C 0.11354 0.21855 1.00218 0.0
H136 H 0.23419 0.96972 1.00184 0.0
C137 C 0.08437 0.24039 0.03069 0.0
C138 C 0.10669 0.16476 0.04882 0.0
H139 H 0.08872 0.27714 0.98844 0.0
H140 H 0.03791 0.31477 0.03806 0.0
C141 C 0.16783 0.06944 0.03867 0.0
C142 C 0.3666 0.18216 0.51889 0.0
C143 C 0.31687 0.09649 0.49764 0.0
H144 H 0.40143 0.25355 0.56412 0.0
C145 C 0.26001 1.01535 0.50687 0.0
H146 H 0.4127 0.24519 0.51255 0.0
C147 C 0.25184 1.02034 0.5366 0.0
C148 C 0.3016 0.10621 0.55804 0.0
H149 H 0.21941 0.94881 0.49101 0.0
H150 H 0.20499 0.95707 0.54255 0.0
C151 C 0.3598 0.18675 0.54864 0.0
C152 C 0.26939 0.10541 0.25552 0.0
C153 C 0.19792 0.13429 0.27872 0.0
H154 H 0.27284 0.09059 0.20924 0.0
C155 C 0.07231 0.17212 0.27242 0.0
H156 H 0.36697 0.07707 0.25971 0.0
C157 C 1.01858 0.17944 0.24366 0.0
C158 C 0.08934 0.15012 0.2204 0.0
H159 H 1.01437 0.1941 0.28967 0.0
H160 H 0.92085 0.20789 0.23969 0.0
C161 C 0.2159 0.1139 0.22666 0.0
C162 C 0.34952 0.12342 0.79777 0.0
C163 C 0.27511 0.13062 0.77047 0.0
H164 H 0.35025 0.11367 0.84308 0.0
C165 C 0.14165 0.12875 0.76797 0.0
H166 H 0.45267 0.12525 0.8004 0.0
C167 C 0.08353 0.12174 0.79212 0.0
C168 C 0.15698 0.1171 0.81965 0.0
H169 H 0.08166 0.13248 0.74721 0.0
H170 H 0.98018 0.12132 0.78916 0.0
C171 C 0.29093 0.11734 0.82221 0.0
loop_
_geom_bond_atom_site_label_1
_geom_bond_atom_site_label_2
_geom_bond_distance
_geom_bond_site_symmetry_2
_ccdc_geom_bond_type
Cu0 N1 1.999 1_545 S
Cu0 O6 1.974 . S
Cu0 N11 1.985 . S
Cu0 O20 1.959 . S
N1 Cu0 1.999 1_565 S
N1 C3 1.263 . S
N1 C5 1.389 . S
N2 C3 1.358 . S
N2 C4 1.400 . S
C3 N1 1.263 . S
C3 N2 1.358 . S
C3 H9 0.930 . S
C4 N2 1.400 . S
C4 C5 1.351 . S
C4 H21 0.930 . S
C5 N1 1.389 . S
C5 C4 1.351 . S
C5 H10 0.930 . S
O6 Cu0 1.974 . S
O6 C16 1.282 . S
C7 O8 1.261 . S
C7 O20 1.251 . S
O8 C7 1.261 . S
H9 C3 0.930 . S
H10 C5 0.930 . S
N11 Cu0 1.985 . S
N11 C13 1.335 . S
N11 C14 1.390 . S
N12 C13 1.345 . S
N12 C15 1.336 . S
C13 N11 1.335 . S
C13 N12 1.345 . S
C13 H18 0.930 . S
C14 N11 1.390 . S
C14 C15 1.346 . S
C14 H19 0.930 . S
C15 N12 1.336 . S
C15 C14 1.346 . S
C15 H22 0.929 . S
C16 O6 1.282 . S
C16 O17 1.216 . S
O17 C16 1.216 . S
H18 C13 0.930 . S
H19 C14 0.930 . S
O20 Cu0 1.959 . S
O20 C7 1.251 . S
H21 C4 0.930 . S
H22 C15 0.929 . S
Cu23 N24 1.999 . S
Cu23 O29 1.974 1_455 S
Cu23 N34 1.985 . S
Cu23 O43 1.959 . S
N24 Cu23 1.999 . S
N24 C26 1.263 . S
N24 C28 1.389 . S
N25 C26 1.358 . S
N25 C27 1.400 . S
C26 N24 1.263 . S
C26 N25 1.358 . S
C26 H32 0.930 1_455 S
C27 N25 1.400 . S
C27 C28 1.351 . S
C27 H44 0.930 . S
C28 N24 1.389 . S
C28 C27 1.351 . S
C28 H33 0.930 . S
O29 Cu23 1.974 1_655 S
O29 C39 1.282 . S
C30 O31 1.261 . S
C30 O43 1.251 . S
O31 C30 1.261 . S
H32 C26 0.930 1_655 S
H33 C28 0.930 . S
N34 Cu23 1.985 . S
N34 C36 1.335 . S
N34 C37 1.390 1_455 S
N35 C36 1.345 . S
N35 C38 1.336 1_455 S
C36 N34 1.335 . S
C36 N35 1.345 . S
C36 H41 0.930 . S
C37 N34 1.390 1_655 S
C37 C38 1.346 . S
C37 H42 0.930 . S
C38 N35 1.336 1_655 S
C38 C37 1.346 . S
C38 H45 0.929 . S
C39 O29 1.282 . S
C39 O40 1.216 . S
O40 C39 1.216 . S
H41 C36 0.930 . S
H42 C37 0.930 . S
O43 Cu23 1.959 . S
O43 C30 1.251 . S
H44 C27 0.930 . S
H45 C38 0.929 . S
Cu46 N47 1.999 1_545 S
Cu46 O52 1.974 . S
Cu46 N57 1.985 . S
Cu46 O66 1.959 . S
N47 Cu46 1.999 1_565 S
N47 C49 1.263 . S
N47 C51 1.389 . S
N48 C49 1.358 . S
N48 C50 1.400 . S
C49 N47 1.263 . S
C49 N48 1.358 . S
C49 H55 0.930 1_455 S
C50 N48 1.400 . S
C50 C51 1.351 . S
C50 H67 0.930 . S
C51 N47 1.389 . S
C51 C50 1.351 . S
C51 H56 0.930 . S
O52 Cu46 1.974 . S
O52 C62 1.282 1_455 S
C53 O54 1.261 . S
C53 O66 1.251 1_655 S
O54 C53 1.261 . S
H55 C49 0.930 1_655 S
H56 C51 0.930 . S
N57 Cu46 1.985 . S
N57 C59 1.335 . S
N57 C60 1.390 1_455 S
N58 C59 1.345 . S
N58 C61 1.336 1_455 S
C59 N57 1.335 . S
C59 N58 1.345 . S
C59 H64 0.930 . S
C60 N57 1.390 1_655 S
C60 C61 1.346 . S
C60 H65 0.930 . S
C61 N58 1.336 1_655 S
C61 C60 1.346 . S
C61 H68 0.929 . S
C62 O52 1.282 1_655 S
C62 O63 1.216 . S
O63 C62 1.216 . S
H64 C59 0.930 . S
H65 C60 0.930 . S
O66 Cu46 1.959 . S
O66 C53 1.251 1_455 S
H67 C50 0.930 . S
H68 C61 0.929 . S
Cu69 N70 1.999 . S
Cu69 O75 1.974 . S
Cu69 N80 1.985 . S
Cu69 O89 1.959 1_455 S
N70 Cu69 1.999 . S
N70 C72 1.263 . S
N70 C74 1.389 . S
N71 C72 1.358 . S
N71 C73 1.400 . S
C72 N70 1.263 . S
C72 N71 1.358 . S
C72 H78 0.930 . S
C73 N71 1.400 . S
C73 C74 1.351 . S
C73 H90 0.930 1_455 S
C74 N70 1.389 . S
C74 C73 1.351 . S
C74 H79 0.930 1_455 S
O75 Cu69 1.974 . S
O75 C85 1.282 . S
C76 O77 1.261 1_545 S
C76 O89 1.251 . S
O77 C76 1.261 1_565 S
H78 C72 0.930 . S
H79 C74 0.930 1_655 S
N80 Cu69 1.985 . S
N80 C82 1.335 . S
N80 C83 1.390 . S
N81 C82 1.345 . S
N81 C84 1.336 . S
C82 N80 1.335 . S
C82 N81 1.345 . S
C82 H87 0.930 . S
C83 N80 1.390 . S
C83 C84 1.346 . S
C83 H88 0.930 . S
C84 N81 1.336 . S
C84 C83 1.346 . S
C84 H91 0.929 . S
C85 O75 1.282 . S
C85 O86 1.216 1_545 S
O86 C85 1.216 1_565 S
H87 C82 0.930 . S
H88 C83 0.930 . S
O89 Cu69 1.959 1_655 S
O89 C76 1.251 . S
H90 C73 0.930 1_655 S
H91 C84 0.929 . S
C92 C93 1.387 . S
C92 H96 0.950 . S
C92 C101 1.390 . S
C93 C92 1.387 . S
C93 C95 1.387 . S
H94 C101 0.950 . S
C95 C93 1.387 . S
C95 C97 1.390 . S
C95 H99 0.950 . S
H96 C92 0.950 . S
C97 C95 1.390 . S
C97 C98 1.387 . S
C97 H100 0.950 . S
C98 C97 1.387 . S
C98 C101 1.387 . S
H99 C95 0.950 . S
H100 C97 0.950 . S
C101 C92 1.390 . S
C101 H94 0.950 . S
C101 C98 1.387 . S
C102 C103 1.387 . S
C102 H106 0.950 . S
C102 C111 1.390 . S
C103 C102 1.387 . S
C103 C105 1.387 . S
H104 C111 0.950 . S
C105 C103 1.387 . S
C105 C107 1.390 . S
C105 H109 0.950 1_545 S
H106 C102 0.950 . S
C107 C105 1.390 . S
C107 C108 1.387 . S
C107 H110 0.950 1_545 S
C108 C107 1.387 . S
C108 C111 1.387 . S
H109 C105 0.950 1_565 S
H110 C107 0.950 1_565 S
C111 C102 1.390 . S
C111 H104 0.950 . S
C111 C108 1.387 . S
C112 C113 1.387 . S
C112 H116 0.950 . S
C112 C121 1.390 . S
C113 C112 1.387 . S
C113 C115 1.387 1_455 S
H114 C121 0.950 . S
C115 C113 1.387 1_655 S
C115 C117 1.390 . S
C115 H119 0.950 . S
H116 C112 0.950 . S
C117 C115 1.390 . S
C117 C118 1.387 1_655 S
C117 H120 0.950 . S
C118 C117 1.387 1_455 S
C118 C121 1.387 . S
H119 C115 0.950 . S
H120 C117 0.950 . S
C121 C112 1.390 . S
C121 H114 0.950 . S
C121 C118 1.387 . S
C122 C123 1.387 . S
C122 H126 0.950 . S
C122 C131 1.390 . S
C123 C122 1.387 . S
C123 C125 1.387 1_545 S
H124 C131 0.950 . S
C125 C123 1.387 1_565 S
C125 C127 1.390 . S
C125 H129 0.950 . S
H126 C122 0.950 . S
C127 C125 1.390 . S
C127 C128 1.387 1_565 S
C127 H130 0.950 . S
C128 C127 1.387 1_545 S
C128 C131 1.387 . S
H129 C125 0.950 . S
H130 C127 0.950 . S
C131 C122 1.390 . S
C131 H124 0.950 . S
C131 C128 1.387 . S
C132 C133 1.387 . S
C132 H136 0.950 1_445 S
C132 C141 1.390 1_556 S
C133 C132 1.387 . S
C133 C135 1.387 . S
H134 C141 0.950 1_565 S
C135 C133 1.387 . S
C135 C137 1.390 1_556 S
C135 H139 0.950 . S
H136 C132 0.950 1_665 S
C137 C135 1.390 1_554 S
C137 C138 1.387 . S
C137 H140 0.950 . S
C138 C137 1.387 . S
C138 C141 1.387 . S
H139 C135 0.950 . S
H140 C137 0.950 . S
C141 C132 1.390 1_554 S
C141 H134 0.950 1_545 S
C141 C138 1.387 . S
C142 C143 1.387 . S
C142 H146 0.950 . S
C142 C151 1.390 . S
C143 C142 1.387 . S
C143 C145 1.384 1_455 S
H144 C151 0.950 . S
C145 C143 1.384 1_655 S
C145 C147 1.391 . S
C145 H149 0.952 . S
H146 C142 0.950 . S
C147 C145 1.391 . S
C147 C148 1.387 1_655 S
C147 H150 0.950 . S
C148 C147 1.387 1_455 S
C148 C151 1.387 . S
H149 C145 0.952 . S
H150 C147 0.950 . S
C151 C142 1.390 . S
C151 H144 0.950 . S
C151 C148 1.387 . S
C152 C153 1.387 1_565 S
C152 H156 0.950 . S
C152 C161 1.390 . S
C153 C152 1.387 1_545 S
C153 C155 1.387 . S
H154 C161 0.950 . S
C155 C153 1.387 . S
C155 C157 1.390 . S
C155 H159 0.950 . S
H156 C152 0.950 . S
C157 C155 1.390 . S
C157 C158 1.387 . S
C157 H160 0.950 . S
C158 C157 1.387 . S
C158 C161 1.387 1_545 S
H159 C155 0.950 . S
H160 C157 0.950 . S
C161 C152 1.390 . S
C161 H154 0.950 . S
C161 C158 1.387 1_565 S
C162 C163 1.387 . S
C162 H166 0.950 . S
C162 C171 1.390 . S
C163 C162 1.387 . S
C163 C165 1.387 1_455 S
H164 C171 0.950 . S
C165 C163 1.387 1_655 S
C165 C167 1.390 . S
C165 H169 0.950 . S
H166 C162 0.950 . S
C167 C165 1.390 . S
C167 C168 1.387 . S
C167 H170 0.950 . S
C168 C167 1.387 . S
C168 C171 1.387 1_655 S
H169 C165 0.950 . S
H170 C167 0.950 . S
C171 C162 1.390 . S
C171 H164 0.950 . S
C171 C168 1.387 1_455 S
C93 N12 1.468 . S
C98 N2 1.464 . S
C103 C30 1.497 . S
C108 C39 1.491 . S
C113 N58 1.463 . S
C118 N48 1.461 . S
C123 C85 1.490 . S
C128 C76 1.497 . S
C133 C62 1.573 1_455 S
C138 C7 1.561 . S
C143 N81 1.517 . S
C148 N35 1.495 . S
C153 N71 1.452 . S
C158 C16 1.483 . S
C163 N25 1.614 . S
C168 C53 1.606 . S
