# Generated by pormake.
# Topology sxc, (6)-cn, num edge types: 1
# Building blocks:
#     Node 0, Type 0, BuildingBlock: UKALOJ_clean_sbu_0, # of connection points: 6
#     Node 1, Type 0, BuildingBlock: UKALOJ_clean_sbu_0, # of connection points: 6
#     Node 2, Type 0, BuildingBlock: UKALOJ_clean_sbu_0, # of connection points: 6
#     Edge 3, Type (0, 0), BuildingBlock: XIVTED_clean_linker_0, # of connection points: 2
#     Edge 4, Type (0, 0), BuildingBlock: XIVTED_clean_linker_0, # of connection points: 2
#     Edge 5, Type (0, 0), BuildingBlock: XIVTED_clean_linker_0, # of connection points: 2
#     Edge 6, Type (0, 0), BuildingBlock: XIVTED_clean_linker_0, # of connection points: 2
#     Edge 7, Type (0, 0), BuildingBlock: XIVTED_clean_linker_0, # of connection points: 2
#     Edge 8, Type (0, 0), BuildingBlock: XIVTED_clean_linker_0, # of connection points: 2
#     Edge 9, Type (0, 0), BuildingBlock: XIVTED_clean_linker_0, # of connection points: 2
#     Edge 10, Type (0, 0), BuildingBlock: XIVTED_clean_linker_0, # of connection points: 2
#     Edge 11, Type (0, 0), BuildingBlock: XIVTED_clean_linker_0, # of connection points: 2
# Relax obj value: 0.116
# Max RMSD: 0.183
# Mean RMSD: 0.183
data_MOF--net-sxc--node1-UKALOJ_clean_sbu_0--edge1-XIVTED_clean_linker_0
_symmetry_space_group_name_H-M    P1
_symmetry_Int_Tables_number       1
_symmetry_cell_setting            triclinic
loop_
_symmetry_equiv_pos_as_xyz
'x, y, z'
_cell_length_a     15.213005
_cell_length_b     15.212446
_cell_length_c     60.984051
_cell_angle_alpha  90.000127
_cell_angle_beta   90.002197
_cell_angle_gamma 120.0022
loop_
_atom_site_label
_atom_site_type_symbol
_atom_site_fract_x
_atom_site_fract_y
_atom_site_fract_z
_atom_type_partial_charge
Zn0 Zn 0.94202 0.05397 1.00467 0.0
O1 O -0.01772 0.94031 1.0033 0.0
C2 C 0.74337 0.90272 0.02161 0.0
Zn3 Zn 0.94318 0.05371 0.04136 0.0
C4 C -0.00922 0.90274 0.02127 0.0
O5 O -0.01819 0.93918 0.03933 0.0
C6 C 0.89482 0.20509 0.02501 0.0
O7 O 0.09725 0.16744 0.04228 0.0
O8 O 0.0953 0.1683 1.00625 0.0
N9 N 0.93508 0.03828 0.07492 0.0
C10 C -0.01983 0.10233 0.09191 0.0
C11 C 0.8794 0.95659 0.10538 0.0
N12 N 0.87259 0.94794 0.08341 0.0
N13 N 0.94656 0.05266 0.11122 0.0
C14 C 0.92786 0.00546 0.95409 0.0
C15 C -0.0288 0.15094 0.94069 0.0
N16 N 0.94697 0.06938 0.97111 0.0
N17 N -0.02626 0.15954 0.96267 0.0
N18 N 0.94286 0.05506 0.9348 0.0
H19 H 0.84624 0.86465 0.9719 0.0
H20 H -0.04495 0.88132 0.9568 0.0
H21 H 0.84029 0.85161 0.94235 0.0
C22 C 0.88942 0.8941 0.95644 0.0
C23 C 0.0524 0.21383 0.08952 0.0
H24 H 0.03816 0.24299 0.07407 0.0
H25 H 0.13103 0.22724 0.08909 0.0
H26 H 0.04558 0.25613 0.10362 0.0
O27 O 0.90437 0.16786 0.04289 0.0
O28 O 0.90229 0.16802 1.00691 0.0
C29 C 0.14203 0.20482 0.02419 0.0
O30 O 0.78881 0.93969 1.00359 0.0
O31 O 0.78931 0.93992 0.03958 0.0
Zn32 Zn 0.13281 0.14824 0.33802 0.0
O33 O -0.0211 0.108 0.33664 0.0
C34 C 0.18023 0.3469 0.35497 0.0
Zn35 Zn 0.13138 0.14707 0.37471 0.0
C36 C 0.93282 0.09948 0.35461 0.0
O37 O -0.02178 0.10844 0.37268 0.0
C38 C 0.33114 0.19543 0.35836 0.0
O39 O 0.09102 -0.00701 0.37562 0.0
O40 O 0.09384 -0.00505 0.33959 0.0
N41 N 0.12404 0.15513 0.40827 0.0
C42 C 0.14302 0.11002 0.42525 0.0
C43 C 0.09801 0.21074 0.43874 0.0
N44 N 0.09618 0.21758 0.41676 0.0
N45 N 0.12694 0.14358 0.44457 0.0
C46 C 0.09854 0.16249 0.28743 0.0
C47 C 0.20068 0.11916 0.27403 0.0
N48 N 0.1433 0.14334 0.30445 0.0
N49 N 0.20669 0.11656 0.29602 0.0
N50 N 0.13318 0.14753 0.26814 0.0
H51 H 0.94722 0.13531 0.29013 0.0
H52 H 0.03232 0.25011 0.2757 0.0
H53 H 0.03933 0.24409 0.30525 0.0
C54 C 0.02563 0.20095 0.28978 0.0
C55 C 0.18233 0.03783 0.42285 0.0
H56 H 0.22569 0.05208 0.4074 0.0
H57 H 0.1171 0.95918 0.42243 0.0
H58 H 0.23148 0.04467 0.43695 0.0
O59 O 0.28435 0.18588 0.37624 0.0
O60 O 0.2866 0.18796 0.34026 0.0
C61 C 0.08363 0.94821 0.35753 0.0
O62 O 0.17177 0.30146 0.33694 0.0
O63 O 0.17147 0.30095 0.37294 0.0
Zn64 Zn 0.03701 0.95855 0.70804 0.0
O65 O 0.92328 -0.00112 0.70896 0.0
C66 C 0.88564 0.75877 0.6917 0.0
Zn67 Zn 0.03674 0.9571 0.67135 0.0
C68 C 0.88588 0.00625 0.69086 0.0
O69 O 0.9224 -0.00397 0.67293 0.0
C70 C 0.18801 0.90973 0.6883 0.0
O71 O 0.15039 0.11103 0.66997 0.0
O72 O 0.15153 0.11171 0.706 0.0
N73 N 0.02131 0.94658 0.63779 0.0
C74 C 0.08519 -0.00862 0.62076 0.0
C75 C 0.93971 0.88917 0.60737 0.0
N76 N 0.93114 0.88315 0.62935 0.0
N77 N 0.03557 0.95673 0.60148 0.0
C78 C -0.01161 0.947 0.75859 0.0
C79 C 0.13413 -0.008 0.77207 0.0
N80 N 0.05245 0.96592 0.7416 0.0
N81 N 0.14278 -0.00622 0.75009 0.0
N82 N 0.03806 0.96311 0.7779 0.0
H83 H 0.86349 -0.02705 0.75575 0.0
H84 H 0.8346 0.85862 0.7703 0.0
H85 H 0.84774 0.86428 0.74075 0.0
C86 C 0.87689 0.90771 0.75619 0.0
C87 C 0.19655 0.06434 0.62311 0.0
H88 H 0.20929 0.14274 0.62347 0.0
H89 H 0.23902 0.05771 0.60902 0.0
H90 H 0.22603 0.05064 0.63857 0.0
O91 O 0.15102 0.91818 0.67027 0.0
O92 O 0.15081 0.91848 0.70627 0.0
C93 C 0.18796 0.15712 0.68794 0.0
O94 O 0.92287 0.80557 0.70958 0.0
O95 O 0.9227 0.8033 0.67359 0.0
H96 H 0.90631 0.32126 0.06037 0.0
H97 H -0.01449 0.78851 0.98602 0.0
H98 H 0.88573 0.31067 0.98967 0.0
H99 H -0.00305 0.79651 0.05679 0.0
H100 H -0.04446 0.61535 0.98699 0.0
H101 H 0.93738 0.4949 0.05945 0.0
C102 C 0.90646 0.35472 0.04468 0.0
C103 C 0.89365 0.30142 0.02506 0.0
C104 C -0.03469 0.65528 1.0023 0.0
C105 C 0.93147 0.50082 0.02387 0.0
C106 C -0.01664 0.75456 1.00174 0.0
C107 C -0.00697 0.80692 0.02134 0.0
C108 C -0.04311 0.60809 0.02261 0.0
C109 C -0.01046 0.75894 0.04126 0.0
C110 C 0.92523 0.45426 0.04415 0.0
C111 C 0.89532 0.34892 1.00521 0.0
N112 N -0.02903 0.66193 0.04138 0.0
N113 N 0.91473 0.4462 1.00511 0.0
H114 H 0.43579 0.18388 0.39372 0.0
H115 H 0.82391 0.10485 0.31936 0.0
H116 H 0.44581 0.20456 0.32302 0.0
H117 H 0.82039 0.09326 0.39013 0.0
H118 H 0.68072 0.13481 0.32034 0.0
H119 H 0.57836 0.15283 0.3928 0.0
C120 C 0.46911 0.18376 0.37803 0.0
C121 C 0.42863 0.19659 0.35841 0.0
C122 C 0.71085 0.125 0.33565 0.0
C123 C 0.59021 0.15878 0.35722 0.0
C124 C 0.79209 0.10697 0.33508 0.0
C125 C 0.83476 0.09725 0.35468 0.0
C126 C 0.67207 0.13338 0.35595 0.0
C127 C 0.79024 0.10069 0.3746 0.0
C128 C 0.54987 0.16499 0.3775 0.0
C129 C 0.47446 0.19495 0.33856 0.0
N130 N 0.71181 0.11926 0.37472 0.0
N131 N 0.55234 0.17554 0.33846 0.0
H132 H 0.76943 0.65415 0.72706 0.0
H133 H 0.30226 0.266 0.65269 0.0
H134 H 0.78011 0.64405 0.65636 0.0
H135 H 0.29415 0.26958 0.72346 0.0
H136 H 0.47543 0.40917 0.65367 0.0
H137 H 0.59578 0.51158 0.72613 0.0
C138 C 0.73599 0.62081 0.71137 0.0
C139 C 0.78931 0.66127 0.69175 0.0
C140 C 0.43547 0.37906 0.66898 0.0
C141 C 0.58991 0.4997 0.69055 0.0
C142 C 0.33619 0.29783 0.66842 0.0
C143 C 0.28379 0.25518 0.68801 0.0
C144 C 0.48263 0.41785 0.68928 0.0
C145 C 0.33175 0.29972 0.70793 0.0
C146 C 0.63644 0.54005 0.71084 0.0
C147 C 0.74183 0.61542 0.67189 0.0
N148 N 0.42876 0.37814 0.70805 0.0
N149 N 0.64455 0.53755 0.6718 0.0
H150 H 0.78472 0.01905 0.65508 0.0
H151 H 0.28888 0.89513 0.72392 0.0
H152 H 0.76667 -0.00566 0.72568 0.0
H153 H 0.30854 0.92614 0.65341 0.0
H154 H 0.46234 0.92631 0.72474 0.0
H155 H 0.61165 -0.01103 0.6542 0.0
C156 C 0.745 0.00893 0.67045 0.0
C157 C 0.79014 0.0086 0.6905 0.0
C158 C 0.42849 0.92554 0.70907 0.0
C159 C 0.59116 -0.02794 0.68954 0.0
C160 C 0.32905 0.9068 0.70856 0.0
C161 C 0.28418 0.90831 0.68856 0.0
C162 C 0.4836 0.94615 0.68946 0.0
C163 C 0.34001 0.9241 0.6692 0.0
C164 C 0.64579 -0.00912 0.6699 0.0
C165 C 0.73494 -0.00496 0.70986 0.0
N166 N 0.43717 0.94318 0.67015 0.0
N167 N 0.63795 -0.02358 0.70888 0.0
H168 H 0.62785 0.80192 0.05723 0.0
H169 H 0.25605 0.3059 0.98842 0.0
H170 H 0.63929 0.78213 0.98673 0.0
H171 H 0.24927 0.32411 0.05901 0.0
H172 H 0.39904 0.47898 0.98753 0.0
H173 H 0.48556 0.62845 0.05806 0.0
C174 C 0.59936 0.76172 0.04187 0.0
C175 C 0.64576 0.80655 0.02187 0.0
C176 C 0.36679 0.44487 1.00323 0.0
C177 C 0.4842 0.60712 0.02278 0.0
C178 C 0.28563 0.34565 1.00378 0.0
C179 C 0.24013 0.30056 0.02383 0.0
C180 C 0.40256 0.49955 0.02286 0.0
C181 C 0.28174 0.35581 0.04319 0.0
C182 C 0.51866 0.66227 0.04239 0.0
C183 C 0.60575 0.75068 1.00251 0.0
N184 N 0.3601 0.4528 0.0422 0.0
N185 N 0.52768 0.65351 1.00347 0.0
H186 H 0.19482 0.46237 0.39059 0.0
H187 H 0.07083 0.83425 0.32175 0.0
H188 H 0.16381 0.45102 0.32008 0.0
H189 H 0.09554 0.84091 0.39235 0.0
H190 H 0.10092 0.69126 0.32087 0.0
H191 H 0.16361 0.60464 0.39141 0.0
C192 C 0.18315 0.49087 0.37523 0.0
C193 C 0.18165 0.4445 0.35523 0.0
C194 C 0.09901 0.72349 0.33657 0.0
C195 C 0.14376 0.60604 0.35612 0.0
C196 C 0.08095 0.80465 0.33711 0.0
C197 C 0.08127 0.85011 0.35717 0.0
C198 C 0.11784 0.68769 0.35621 0.0
C199 C 0.09484 0.80847 0.37652 0.0
C200 C 0.16439 0.57156 0.37574 0.0
C201 C 0.16585 0.48453 0.33587 0.0
N202 N 0.11346 0.73011 0.37555 0.0
N203 N 0.14675 0.5626 0.33682 0.0
H204 H 0.94323 0.07912 0.25196 0.0
H205 H 0.13638 0.17564 0.12733 0.0
H206 H 0.25837 0.22432 0.23342 0.0
H207 H 0.82147 0.00371 0.14597 0.0
H208 H 0.18254 0.21644 0.16599 0.0
H209 H 0.89709 0.07301 0.2133 0.0
C210 C 0.00284 0.11216 0.2398 0.0
C211 C 0.1049 0.15373 0.2459 0.0
C212 C 0.10316 0.17099 0.16162 0.0
C213 C 0.05275 0.14428 0.20154 0.0
C214 C 0.07681 0.14875 0.13952 0.0
C215 C -0.02518 0.08747 0.13345 0.0
C216 C 0.02699 0.13112 0.17778 0.0
C217 C 0.90091 0.05143 0.15002 0.0
C218 C -0.02349 0.1076 0.21769 0.0
C219 C 0.17888 0.19197 0.22934 0.0
N220 N 0.92836 0.07344 0.17141 0.0
N221 N 0.15144 0.18606 0.20794 0.0
H222 H 0.06017 0.95375 0.46066 0.0
H223 H 0.15698 0.14673 0.58531 0.0
H224 H 0.20307 0.26864 0.47932 0.0
H225 H -0.01284 0.83159 0.56674 0.0
H226 H 0.1969 0.19294 0.54665 0.0
H227 H 0.0549 0.90754 0.49931 0.0
C228 C 0.09285 0.0133 0.47285 0.0
C229 C 0.13351 0.1153 0.46679 0.0
C230 C 0.15212 0.1135 0.55103 0.0
C231 C 0.1251 0.06308 0.51112 0.0
C232 C 0.13041 0.08713 0.57314 0.0
C233 C 0.06999 -0.01495 0.57923 0.0
C234 C 0.11255 0.03728 0.53487 0.0
C235 C 0.03425 0.91109 0.56267 0.0
C236 C 0.08878 -0.01307 0.49495 0.0
C237 C 0.17138 0.18919 0.48337 0.0
N238 N 0.05571 0.93857 0.54127 0.0
N239 N 0.166 0.16172 0.50475 0.0
H240 H 0.91509 0.03001 0.79398 0.0
H241 H 0.01137 0.93356 0.91865 0.0
H242 H 0.08699 0.88707 0.81267 0.0
H243 H 0.86618 0.10345 0.90005 0.0
H244 H 0.01759 0.89351 0.87999 0.0
H245 H 0.87424 0.03546 0.83263 0.0
C246 C 0.94196 -0.00264 0.80617 0.0
C247 C 0.00324 0.95663 0.80013 0.0
C248 C -0.01702 0.93833 0.88436 0.0
C249 C -0.04046 0.96524 0.84445 0.0
C250 C -0.02165 0.96012 0.90647 0.0
C251 C 0.93675 0.02059 0.91255 0.0
C252 C 0.94634 -0.02212 0.8682 0.0
C253 C 0.89855 0.05632 0.89598 0.0
C254 C 0.9197 0.00152 0.82828 0.0
C255 C 0.03927 0.9188 0.81671 0.0
N256 N 0.90453 0.03478 0.87459 0.0
N257 N 0.01723 0.92428 0.83809 0.0
loop_
_geom_bond_atom_site_label_1
_geom_bond_atom_site_label_2
_geom_bond_distance
_geom_bond_site_symmetry_2
_ccdc_geom_bond_type
Zn0 O1 2.055 1_545 S
Zn0 O8 2.046 . S
Zn0 N16 2.036 . S
Zn0 O28 2.053 1_455 S
Zn0 O30 2.066 1_445 S
O1 Zn0 2.055 1_565 S
O1 C4 1.259 1_556 S
C2 O30 1.256 1_554 S
C2 O31 1.244 . S
Zn3 O5 2.046 1_545 S
Zn3 O7 2.055 . S
Zn3 N9 2.035 1_455 S
Zn3 O27 2.066 1_455 S
Zn3 O31 2.053 1_445 S
C4 O1 1.259 1_554 S
C4 O5 1.254 . S
O5 Zn3 2.046 1_565 S
O5 C4 1.254 . S
C6 O27 1.256 . S
C6 O28 1.244 1_554 S
O7 Zn3 2.055 . S
O7 C29 1.259 . S
O8 Zn0 2.046 . S
O8 C29 1.254 1_556 S
N9 Zn3 2.035 1_655 S
N9 C10 1.297 1_655 S
N9 N12 1.403 1_545 S
C10 N9 1.297 1_455 S
C10 N13 1.367 1_455 S
C10 C23 1.481 . S
C11 N12 1.299 1_545 S
C11 N13 1.379 . S
N12 N9 1.403 1_565 S
N12 C11 1.299 1_565 S
N13 C10 1.367 1_655 S
N13 C11 1.379 . S
C14 N16 1.298 1_655 S
C14 N18 1.367 . S
C14 C22 1.481 1_545 S
C15 N17 1.299 1_655 S
C15 N18 1.379 . S
N16 Zn0 2.036 . S
N16 C14 1.298 1_455 S
N16 N17 1.398 . S
N17 C15 1.299 1_455 S
N17 N16 1.398 . S
N18 C14 1.367 . S
N18 C15 1.379 . S
H19 C22 0.980 1_455 S
H20 C22 0.981 . S
H21 C22 0.981 . S
C22 C14 1.481 1_565 S
C22 H19 0.980 1_655 S
C22 H20 0.981 . S
C22 H21 0.981 . S
C23 C10 1.481 . S
C23 H24 0.980 . S
C23 H25 0.981 . S
C23 H26 0.981 . S
H24 C23 0.980 . S
H25 C23 0.981 . S
H26 C23 0.981 . S
O27 Zn3 2.066 1_655 S
O27 C6 1.256 . S
O28 Zn0 2.053 1_655 S
O28 C6 1.244 1_556 S
C29 O7 1.259 . S
C29 O8 1.254 1_554 S
O30 Zn0 2.066 1_665 S
O30 C2 1.256 1_556 S
O31 C2 1.244 . S
O31 Zn3 2.053 1_665 S
Zn32 O33 2.067 . S
Zn32 O40 2.046 1_545 S
Zn32 N48 2.036 . S
Zn32 O60 2.053 . S
Zn32 O62 2.066 . S
O33 Zn32 2.067 . S
O33 C36 1.253 1_455 S
C34 O62 1.256 . S
C34 O63 1.244 . S
Zn35 O37 2.046 1_455 S
Zn35 O39 2.067 . S
Zn35 N41 2.036 . S
Zn35 O59 2.066 . S
Zn35 O63 2.053 . S
C36 O33 1.253 1_655 S
C36 O37 1.254 . S
O37 Zn35 2.046 1_655 S
O37 C36 1.254 . S
C38 O59 1.256 . S
C38 O60 1.244 . S
O39 Zn35 2.067 . S
O39 C61 1.253 1_545 S
O40 Zn32 2.046 1_565 S
O40 C61 1.254 . S
N41 Zn35 2.036 . S
N41 C42 1.298 . S
N41 N44 1.398 . S
C42 N41 1.298 . S
C42 N45 1.367 . S
C42 C55 1.481 . S
C43 N44 1.299 . S
C43 N45 1.379 . S
N44 N41 1.398 . S
N44 C43 1.299 . S
N45 C42 1.367 . S
N45 C43 1.379 . S
C46 N48 1.298 . S
C46 N50 1.367 . S
C46 C54 1.481 . S
C47 N49 1.299 . S
C47 N50 1.379 . S
N48 Zn32 2.036 . S
N48 C46 1.298 . S
N48 N49 1.398 . S
N49 C47 1.299 . S
N49 N48 1.398 . S
N50 C46 1.367 . S
N50 C47 1.379 . S
H51 C54 0.980 1_655 S
H52 C54 0.981 1_655 S
H53 C54 0.981 . S
C54 C46 1.481 . S
C54 H51 0.980 1_455 S
C54 H52 0.981 1_455 S
C54 H53 0.981 . S
C55 C42 1.481 . S
C55 H56 0.980 1_545 S
C55 H57 0.981 1_545 S
C55 H58 0.981 . S
H56 C55 0.980 1_565 S
H57 C55 0.981 1_565 S
H58 C55 0.981 . S
O59 Zn35 2.066 . S
O59 C38 1.256 . S
O60 Zn32 2.053 . S
O60 C38 1.244 . S
C61 O39 1.253 1_565 S
C61 O40 1.254 . S
O62 Zn32 2.066 . S
O62 C34 1.256 . S
O63 C34 1.244 . S
O63 Zn35 2.053 . S
Zn64 O65 2.055 1_455 S
Zn64 O72 2.046 . S
Zn64 N80 2.036 . S
Zn64 O92 2.053 1_545 S
Zn64 O94 2.066 1_445 S
O65 Zn64 2.055 1_655 S
O65 C68 1.259 . S
C66 O94 1.256 . S
C66 O95 1.244 . S
Zn67 O69 2.046 1_455 S
Zn67 O71 2.055 . S
Zn67 N73 2.035 1_545 S
Zn67 O91 2.066 1_545 S
Zn67 O95 2.053 1_445 S
C68 O65 1.259 . S
C68 O69 1.254 . S
O69 Zn67 2.046 1_655 S
O69 C68 1.254 . S
C70 O91 1.256 . S
C70 O92 1.244 . S
O71 Zn67 2.055 . S
O71 C93 1.259 . S
O72 Zn64 2.046 . S
O72 C93 1.254 . S
N73 Zn67 2.035 1_565 S
N73 C74 1.297 1_565 S
N73 N76 1.403 1_455 S
C74 N73 1.297 1_545 S
C74 N77 1.367 1_545 S
C74 C87 1.481 . S
C75 N76 1.299 1_455 S
C75 N77 1.379 . S
N76 N73 1.403 1_655 S
N76 C75 1.299 1_655 S
N77 C74 1.367 1_565 S
N77 C75 1.379 . S
C78 N80 1.298 1_565 S
C78 N82 1.367 . S
C78 C86 1.481 1_455 S
C79 N81 1.299 1_565 S
C79 N82 1.379 . S
N80 Zn64 2.036 . S
N80 C78 1.298 1_545 S
N80 N81 1.398 . S
N81 C79 1.299 1_545 S
N81 N80 1.398 . S
N82 C78 1.367 . S
N82 C79 1.379 . S
H83 C86 0.980 1_545 S
H84 C86 0.981 . S
H85 C86 0.981 . S
C86 C78 1.481 1_655 S
C86 H83 0.980 1_565 S
C86 H84 0.981 . S
C86 H85 0.981 . S
C87 C74 1.481 . S
C87 H88 0.980 . S
C87 H89 0.981 . S
C87 H90 0.981 . S
H88 C87 0.980 . S
H89 C87 0.981 . S
H90 C87 0.981 . S
O91 Zn67 2.066 1_565 S
O91 C70 1.256 . S
O92 Zn64 2.053 1_565 S
O92 C70 1.244 . S
C93 O71 1.259 . S
C93 O72 1.254 . S
O94 Zn64 2.066 1_665 S
O94 C66 1.256 . S
O95 C66 1.244 . S
O95 Zn67 2.053 1_665 S
H96 C102 0.930 . S
H97 C106 0.930 . S
H98 C111 0.924 1_556 S
H99 C109 0.929 . S
H100 C104 0.929 . S
H101 C110 0.929 . S
C102 H96 0.930 . S
C102 C103 1.367 1_455 S
C102 C110 1.378 . S
C103 C102 1.367 1_655 S
C103 C111 1.439 . S
C104 H100 0.929 . S
C104 C106 1.378 . S
C104 C108 1.350 1_656 S
C105 C108 1.463 . S
C105 C110 1.350 . S
C105 N113 1.423 1_454 S
C106 H97 0.930 . S
C106 C104 1.378 . S
C106 C107 1.367 1_656 S
C107 C106 1.367 1_454 S
C107 C109 1.433 . S
C108 C104 1.350 1_454 S
C108 C105 1.463 . S
C108 N112 1.427 . S
C109 H99 0.929 . S
C109 C107 1.433 . S
C109 N112 1.384 . S
C110 H101 0.929 . S
C110 C102 1.378 . S
C110 C105 1.350 . S
C111 H98 0.924 1_554 S
C111 C103 1.439 . S
C111 N113 1.383 1_554 S
N112 C108 1.427 . S
N112 C109 1.384 . S
N113 C105 1.423 1_656 S
N113 C111 1.383 1_556 S
H114 C120 0.930 . S
H115 C124 0.930 . S
H116 C129 0.929 . S
H117 C127 0.929 1_565 S
H118 C122 0.929 . S
H119 C128 0.929 . S
C120 H114 0.930 . S
C120 C121 1.367 . S
C120 C128 1.378 . S
C121 C120 1.367 . S
C121 C129 1.433 . S
C122 H118 0.929 . S
C122 C124 1.378 . S
C122 C126 1.350 . S
C123 C126 1.463 . S
C123 C128 1.350 . S
C123 N131 1.427 . S
C124 H115 0.930 . S
C124 C122 1.378 . S
C124 C125 1.367 . S
C125 C124 1.367 . S
C125 C127 1.433 . S
C126 C122 1.350 . S
C126 C123 1.463 . S
C126 N130 1.427 . S
C127 H117 0.929 1_545 S
C127 C125 1.433 . S
C127 N130 1.384 . S
C128 H119 0.929 . S
C128 C120 1.378 . S
C128 C123 1.350 . S
C129 H116 0.929 . S
C129 C121 1.433 . S
C129 N131 1.384 . S
N130 C126 1.427 . S
N130 C127 1.384 . S
N131 C123 1.427 . S
N131 C129 1.384 . S
H132 C138 0.930 . S
H133 C142 0.930 . S
H134 C147 0.929 . S
H135 C145 0.929 . S
H136 C140 0.929 . S
H137 C146 0.929 . S
C138 H132 0.930 . S
C138 C139 1.367 . S
C138 C146 1.378 . S
C139 C138 1.367 . S
C139 C147 1.433 . S
C140 H136 0.929 . S
C140 C142 1.378 . S
C140 C144 1.350 . S
C141 C144 1.463 . S
C141 C146 1.350 . S
C141 N149 1.427 . S
C142 H133 0.930 . S
C142 C140 1.378 . S
C142 C143 1.367 . S
C143 C142 1.367 . S
C143 C145 1.433 . S
C144 C140 1.350 . S
C144 C141 1.463 . S
C144 N148 1.427 . S
C145 H135 0.929 . S
C145 C143 1.433 . S
C145 N148 1.384 . S
C146 H137 0.929 . S
C146 C138 1.378 . S
C146 C141 1.350 . S
C147 H134 0.929 . S
C147 C139 1.433 . S
C147 N149 1.384 . S
N148 C144 1.427 . S
N148 C145 1.384 . S
N149 C141 1.427 . S
N149 C147 1.384 . S
H150 C156 0.930 . S
H151 C160 0.930 . S
H152 C165 0.929 . S
H153 C163 0.929 . S
H154 C158 0.929 . S
H155 C164 0.929 . S
C156 H150 0.930 . S
C156 C157 1.367 . S
C156 C164 1.378 . S
C157 C156 1.367 . S
C157 C165 1.433 . S
C158 H154 0.929 . S
C158 C160 1.378 . S
C158 C162 1.350 1_565 S
C159 C162 1.463 . S
C159 C164 1.350 . S
C159 N167 1.423 1_545 S
C160 H151 0.930 . S
C160 C158 1.378 . S
C160 C161 1.367 . S
C161 C160 1.367 . S
C161 C163 1.433 1_565 S
C162 C158 1.350 1_545 S
C162 C159 1.463 . S
C162 N166 1.427 . S
C163 H153 0.929 . S
C163 C161 1.433 1_545 S
C163 N166 1.384 . S
C164 H155 0.929 . S
C164 C156 1.378 . S
C164 C159 1.350 . S
C165 H152 0.929 . S
C165 C157 1.433 . S
C165 N167 1.388 1_545 S
N166 C162 1.427 . S
N166 C163 1.384 . S
N167 C159 1.423 1_565 S
N167 C165 1.388 1_565 S
H168 C174 0.930 . S
H169 C178 0.930 . S
H170 C183 0.929 . S
H171 C181 0.929 . S
H172 C176 0.929 . S
H173 C182 0.929 . S
C174 H168 0.930 . S
C174 C175 1.367 . S
C174 C182 1.378 . S
C175 C174 1.367 . S
C175 C183 1.433 1_554 S
C176 H172 0.929 . S
C176 C178 1.378 . S
C176 C180 1.350 1_556 S
C177 C180 1.463 . S
C177 C182 1.350 . S
C177 N185 1.427 1_554 S
C178 H169 0.930 . S
C178 C176 1.378 . S
C178 C179 1.367 1_556 S
C179 C178 1.367 1_554 S
C179 C181 1.433 . S
C180 C176 1.350 1_554 S
C180 C177 1.463 . S
C180 N184 1.427 . S
C181 H171 0.929 . S
C181 C179 1.433 . S
C181 N184 1.384 . S
C182 H173 0.929 . S
C182 C174 1.378 . S
C182 C177 1.350 . S
C183 H170 0.929 . S
C183 C175 1.433 1_556 S
C183 N185 1.384 . S
N184 C180 1.427 . S
N184 C181 1.384 . S
N185 C177 1.427 1_556 S
N185 C183 1.384 . S
H186 C192 0.930 . S
H187 C196 0.930 . S
H188 C201 0.929 . S
H189 C199 0.929 . S
H190 C194 0.929 . S
H191 C200 0.929 . S
C192 H186 0.930 . S
C192 C193 1.367 . S
C192 C200 1.378 . S
C193 C192 1.367 . S
C193 C201 1.433 . S
C194 H190 0.929 . S
C194 C196 1.378 . S
C194 C198 1.350 . S
C195 C198 1.463 . S
C195 C200 1.350 . S
C195 N203 1.427 . S
C196 H187 0.930 . S
C196 C194 1.378 . S
C196 C197 1.367 . S
C197 C196 1.367 . S
C197 C199 1.433 . S
C198 C194 1.350 . S
C198 C195 1.463 . S
C198 N202 1.427 . S
C199 H189 0.929 . S
C199 C197 1.433 . S
C199 N202 1.384 . S
C200 H191 0.929 . S
C200 C192 1.378 . S
C200 C195 1.350 . S
C201 H188 0.929 . S
C201 C193 1.433 . S
C201 N203 1.384 . S
N202 C198 1.427 . S
N202 C199 1.384 . S
N203 C195 1.427 . S
N203 C201 1.384 . S
H204 C210 0.930 . S
H205 C214 0.930 . S
H206 C219 0.929 . S
H207 C217 0.929 1_565 S
H208 C212 0.929 . S
H209 C218 0.929 1_655 S
C210 H204 0.930 . S
C210 C211 1.367 . S
C210 C218 1.378 . S
C211 C210 1.367 . S
C211 C219 1.433 . S
C212 H208 0.929 . S
C212 C214 1.378 . S
C212 C216 1.350 . S
C213 C216 1.463 . S
C213 C218 1.350 . S
C213 N221 1.427 . S
C214 H205 0.930 . S
C214 C212 1.378 . S
C214 C215 1.367 . S
C215 C214 1.367 . S
C215 C217 1.433 1_455 S
C216 C212 1.350 . S
C216 C213 1.463 . S
C216 N220 1.427 1_455 S
C217 H207 0.929 1_545 S
C217 C215 1.433 1_655 S
C217 N220 1.384 . S
C218 H209 0.929 1_455 S
C218 C210 1.378 . S
C218 C213 1.350 . S
C219 H206 0.929 . S
C219 C211 1.433 . S
C219 N221 1.384 . S
N220 C216 1.427 1_655 S
N220 C217 1.384 . S
N221 C213 1.427 . S
N221 C219 1.384 . S
H222 C228 0.930 1_565 S
H223 C232 0.930 . S
H224 C237 0.929 . S
H225 C235 0.929 . S
H226 C230 0.929 . S
H227 C236 0.929 1_565 S
C228 H222 0.930 1_545 S
C228 C229 1.367 . S
C228 C236 1.378 . S
C229 C228 1.367 . S
C229 C237 1.433 . S
C230 H226 0.929 . S
C230 C232 1.378 . S
C230 C234 1.350 . S
C231 C234 1.463 . S
C231 C236 1.350 . S
C231 N239 1.427 . S
C232 H223 0.930 . S
C232 C230 1.378 . S
C232 C233 1.367 . S
C233 C232 1.367 . S
C233 C235 1.433 1_545 S
C234 C230 1.350 . S
C234 C231 1.463 . S
C234 N238 1.427 1_545 S
C235 H225 0.929 . S
C235 C233 1.433 1_565 S
C235 N238 1.384 . S
C236 H227 0.929 1_545 S
C236 C228 1.378 . S
C236 C231 1.350 . S
C237 H224 0.929 . S
C237 C229 1.433 . S
C237 N239 1.384 . S
N238 C234 1.427 1_565 S
N238 C235 1.384 . S
N239 C231 1.427 . S
N239 C237 1.384 . S
H240 C246 0.930 . S
H241 C250 0.930 . S
H242 C255 0.929 . S
H243 C253 0.929 . S
H244 C248 0.929 . S
H245 C254 0.929 . S
C246 H240 0.930 . S
C246 C247 1.367 1_645 S
C246 C254 1.378 . S
C247 C246 1.367 1_465 S
C247 C255 1.433 . S
C248 H244 0.929 . S
C248 C250 1.378 . S
C248 C252 1.350 . S
C249 C252 1.463 . S
C249 C254 1.350 1_565 S
C249 N257 1.427 1_655 S
C250 H241 0.930 . S
C250 C248 1.378 . S
C250 C251 1.367 1_565 S
C251 C250 1.367 1_545 S
C251 C253 1.433 . S
C252 C248 1.350 . S
C252 C249 1.463 . S
C252 N256 1.427 1_565 S
C253 H243 0.929 . S
C253 C251 1.433 . S
C253 N256 1.384 . S
C254 H245 0.929 . S
C254 C246 1.378 . S
C254 C249 1.350 1_545 S
C255 H242 0.929 . S
C255 C247 1.433 . S
C255 N257 1.384 . S
N256 C252 1.427 1_545 S
N256 C253 1.384 . S
N257 C249 1.427 1_455 S
N257 C255 1.384 . S
C103 C6 1.215 . S
C107 C4 1.223 . S
C121 C38 1.215 . S
C125 C36 1.223 . S
C139 C66 1.216 . S
C143 C93 1.224 . S
C157 C68 1.225 . S
C161 C70 1.220 . S
C175 C2 1.222 . S
C179 C29 1.227 . S
C193 C34 1.221 . S
C197 C61 1.226 . S
C211 N50 1.576 . S
C215 N13 1.585 1_455 S
C229 N45 1.583 . S
C233 N77 1.579 1_545 S
C247 N82 1.578 . S
C251 N18 1.583 . S
