# Generated by pormake.
# Topology sma, (6)-cn, num edge types: 1
# Building blocks:
#     Node 0, Type 0, BuildingBlock: INOVEN_clean_sbu_0, # of connection points: 6
#     Node 1, Type 0, BuildingBlock: INOVEN_clean_sbu_0, # of connection points: 6
#     Node 2, Type 0, BuildingBlock: INOVEN_clean_sbu_0, # of connection points: 6
#     Edge 3, Type (0, 0), None
#     Edge 4, Type (0, 0), None
#     Edge 5, Type (0, 0), None
#     Edge 6, Type (0, 0), None
#     Edge 7, Type (0, 0), None
#     Edge 8, Type (0, 0), None
#     Edge 9, Type (0, 0), None
#     Edge 10, Type (0, 0), None
#     Edge 11, Type (0, 0), None
# Relax obj value: 0.237
# Max RMSD: 0.338
# Mean RMSD: 0.227
data_MOF--net-sma--node1-INOVEN_clean_sbu_0--edge1-none
_symmetry_space_group_name_H-M    P1
_symmetry_Int_Tables_number       1
_symmetry_cell_setting            triclinic
loop_
_symmetry_equiv_pos_as_xyz
'x, y, z'
_cell_length_a     24.892626
_cell_length_b     30.43918
_cell_length_c     5.9824863
_cell_angle_alpha  92.621241
_cell_angle_beta   90.236602
_cell_angle_gamma 152.17013
loop_
_atom_site_label
_atom_site_type_symbol
_atom_site_fract_x
_atom_site_fract_y
_atom_site_fract_z
_atom_type_partial_charge
Gd0 Gd 0.2688 0.69686 0.20845 0.0
Gd1 Gd 1.11354 0.66853 0.18119 0.0
C2 C 0.38953 0.88194 0.20949 0.0
C3 C 0.42182 0.74928 0.11948 0.0
C4 C 0.4492 0.72353 0.05155 0.0
C5 C 0.38498 0.64118 0.11163 0.0
C6 C 0.54942 0.78843 0.94272 0.0
C7 C 0.52792 0.69397 -0.02639 0.0
C8 C 0.58859 0.77397 0.90448 0.0
C9 C 0.42382 0.62627 0.07191 0.0
C10 C 0.20914 0.68691 0.60127 0.0
C11 C 1.00027 0.48663 0.20993 0.0
C12 C 0.96847 0.62747 0.2384 0.0
C13 C 0.94113 0.65503 0.21179 0.0
C14 C 1.00668 0.73063 0.09246 0.0
C15 C 0.84117 0.59924 0.29869 0.0
C16 C 0.86805 0.69015 0.13924 0.0
C17 C 0.80502 0.61624 0.26265 0.0
C18 C 0.97084 0.74849 0.05784 0.0
C19 C 0.17567 0.68012 0.79023 0.0
O20 O 0.40073 0.84681 0.20059 0.0
O21 O 0.28788 0.82812 0.21456 0.0
O22 O 0.38726 0.73161 0.32 0.0
O23 O 0.37119 0.73764 -0.03304 0.0
O24 O 0.22451 0.65619 0.56247 0.0
O25 O 0.2338 0.727 0.44011 0.0
O26 O 0.99074 0.52318 0.2454 0.0
O27 O 1.09829 0.53878 0.16228 0.0
O28 O 0.96579 0.60002 0.05586 0.0
O29 O 1.04974 0.67548 0.39328 0.0
O30 O 1.16275 0.71264 0.8302 0.0
O31 O 1.14853 0.63848 0.95014 0.0
H32 H 0.30742 0.5903 0.19624 0.0
H33 H 0.60027 0.85255 0.89547 0.0
H34 H 0.66857 0.8272 0.82774 0.0
H35 H 0.37514 0.56399 0.12786 0.0
H36 H 1.08394 0.77446 0.02257 0.0
H37 H 0.78892 0.5405 0.39079 0.0
H38 H 0.72611 0.57021 0.32994 0.0
H39 H 1.0211 0.80557 0.96103 0.0
Gd40 Gd 0.77791 0.20085 0.23132 0.0
Gd41 Gd 0.61892 0.168 0.23264 0.0
C42 C 0.49499 0.98542 0.21717 0.0
C43 C 0.89523 0.21557 0.33532 0.0
C44 C 0.89423 0.1692 0.41381 0.0
C45 C 0.95573 0.18099 0.30229 0.0
C46 C 0.84373 1.12196 0.60928 0.0
C47 C 0.92015 1.10265 0.5827 0.0
C48 C 0.85676 1.08907 0.69306 0.0
C49 C 0.96834 0.14793 0.38577 0.0
C50 C 0.71533 0.1874 0.82847 0.0
C51 C 0.89796 0.38389 0.22204 0.0
C52 C 0.49671 0.14831 0.13793 0.0
C53 C 0.49328 0.19428 0.13965 0.0
C54 C 0.44347 0.18189 0.3132 0.0
C55 C 0.52559 0.2402 0.95542 0.0
C56 C 0.45474 0.25742 0.11506 0.0
C57 C 0.5065 0.27154 0.94341 0.0
C58 C 0.42513 0.21378 0.30166 0.0
C59 C 0.68345 0.18265 0.63612 0.0
O60 O 0.59843 1.04263 0.27021 0.0
O61 O 0.48277 1.01785 0.16314 0.0
O62 O 0.85055 0.19032 0.13082 0.0
O63 O 0.87794 0.23557 0.47953 0.0
O64 O 0.81518 0.24149 0.87725 0.0
O65 O 0.65143 0.13871 -0.01429 0.0
O66 O 0.79364 0.32645 0.20876 0.0
O67 O 0.91454 0.35307 0.24569 0.0
O68 O 0.50047 0.13255 0.33193 0.0
O69 O 0.55761 0.17151 -0.00697 0.0
O70 O 0.58394 0.12886 0.58833 0.0
O71 O 0.7463 0.23076 0.47782 0.0
H72 H 0.99691 0.21822 0.15335 0.0
H73 H 0.79614 1.11202 0.69948 0.0
H74 H 0.81835 1.05385 0.84506 0.0
H75 H 1.01846 0.15989 0.30047 0.0
H76 H 0.41518 0.14481 0.45474 0.0
H77 H 0.56283 0.2498 0.81766 0.0
H78 H 0.53156 0.30633 0.79928 0.0
H79 H 0.38419 0.20144 0.43478 0.0
Gd80 Gd 0.82123 0.80414 0.03439 0.0
Gd81 Gd 0.58238 0.58632 -0.02965 0.0
C82 C 0.57925 0.68654 -0.03523 0.0
C83 C 0.98039 0.97395 0.95392 0.0
C84 C 0.97025 1.01007 0.84969 0.0
C85 C 1.0373 1.09453 0.94232 0.0
C86 C 0.88853 0.95762 0.66465 0.0
C87 C 0.93795 1.07118 0.67352 0.0
C88 C 0.87301 0.98814 0.57692 0.0
C89 C 1.02161 1.125 0.85415 0.0
C90 C 0.7286 0.72061 0.41406 0.0
C91 C 0.81943 0.69933 0.08685 0.0
C92 C 0.40902 0.40999 0.00617 0.0
C93 C 0.40436 0.35937 0.04931 0.0
C94 C 0.36162 0.29856 0.87564 0.0
C95 C 0.45445 0.37945 0.25288 0.0
C96 C 0.43101 0.28767 0.09797 0.0
C97 C 0.4672 0.34352 0.27714 0.0
C98 C 0.37546 0.26344 0.89931 0.0
C99 C 0.6777 0.67317 0.59308 0.0
O100 O 0.69059 0.76319 0.93509 0.0
O101 O 0.5172 0.60752 0.00946 0.0
O102 O 0.94181 0.94404 0.15195 0.0
O103 O 0.95073 0.91799 0.82164 0.0
O104 O 0.83966 0.79967 0.39903 0.0
O105 O 0.67447 0.69442 0.2373 0.0
O106 O 0.70571 0.62144 0.08561 0.0
O107 O 0.88702 0.78163 0.04655 0.0
O108 O 0.44412 0.44467 0.81211 0.0
O109 O 0.45412 0.46866 0.17208 0.0
O110 O 0.5674 0.59607 0.60971 0.0
O111 O 0.73002 0.69685 0.76827 0.0
H112 H 1.10088 0.13637 0.08438 0.0
H113 H 0.83489 0.89191 0.58991 0.0
H114 H 0.80892 0.94607 0.4358 0.0
H115 H 1.07475 0.19064 0.92686 0.0
H116 H 0.32188 0.2814 0.71796 0.0
H117 H 0.4883 0.42607 0.39037 0.0
H118 H 0.50995 0.36283 0.43225 0.0
H119 H 0.34445 0.21861 0.76099 0.0
loop_
_geom_bond_atom_site_label_1
_geom_bond_atom_site_label_2
_geom_bond_distance
_geom_bond_site_symmetry_2
_ccdc_geom_bond_type
Gd0 C3 2.818 . S
Gd0 O20 2.377 . S
Gd0 O22 2.448 . S
Gd0 O23 2.506 1_554 S
Gd0 O24 2.435 . S
Gd0 O25 2.717 1_455 S
Gd0 O27 2.395 1_455 S
Gd0 O31 2.327 1_554 S
Gd1 C12 2.818 . S
Gd1 O21 2.395 1_655 S
Gd1 O25 2.327 . S
Gd1 O26 2.377 . S
Gd1 O28 2.448 . S
Gd1 O29 2.506 . S
Gd1 O30 2.435 1_554 S
Gd1 O31 2.717 1_654 S
C2 O20 1.240 . S
C2 O21 1.240 . S
C3 Gd0 2.818 . S
C3 C4 1.510 . S
C3 O22 1.249 . S
C3 O23 1.252 1_554 S
C4 C3 1.510 . S
C4 C5 1.404 . S
C4 C6 1.352 1_554 S
C5 C4 1.404 . S
C5 C9 1.389 . S
C5 H32 0.930 . S
C6 C4 1.352 1_556 S
C6 C8 1.374 . S
C6 H33 0.931 . S
C7 C8 1.359 1_554 S
C7 C9 1.364 . S
C8 C6 1.374 . S
C8 C7 1.359 1_556 S
C8 H34 0.931 . S
C9 C5 1.389 . S
C9 C7 1.364 . S
C9 H35 0.931 . S
C10 O24 1.256 . S
C10 O25 1.257 1_455 S
C11 O26 1.240 . S
C11 O27 1.240 . S
C12 Gd1 2.818 . S
C12 C13 1.510 . S
C12 O28 1.249 . S
C12 O29 1.252 . S
C13 C12 1.510 . S
C13 C14 1.404 . S
C13 C15 1.352 . S
C14 C13 1.404 . S
C14 C18 1.389 . S
C14 H36 0.930 1_554 S
C15 C13 1.352 . S
C15 C17 1.374 . S
C15 H37 0.931 . S
C16 C17 1.359 . S
C16 C18 1.364 . S
C17 C15 1.374 . S
C17 C16 1.359 . S
C17 H38 0.931 . S
C18 C14 1.389 . S
C18 C16 1.364 . S
C18 H39 0.931 1_554 S
C19 O30 1.256 1_455 S
C19 O31 1.257 . S
O20 Gd0 2.377 . S
O20 C2 1.240 . S
O21 Gd1 2.395 1_455 S
O21 C2 1.240 . S
O22 Gd0 2.448 . S
O22 C3 1.249 . S
O23 Gd0 2.506 1_556 S
O23 C3 1.252 1_556 S
O24 Gd0 2.435 . S
O24 C10 1.256 . S
O25 Gd0 2.717 1_655 S
O25 Gd1 2.327 . S
O25 C10 1.257 1_655 S
O26 Gd1 2.377 . S
O26 C11 1.240 . S
O27 Gd0 2.395 1_655 S
O27 C11 1.240 . S
O28 Gd1 2.448 . S
O28 C12 1.249 . S
O29 Gd1 2.506 . S
O29 C12 1.252 . S
O30 Gd1 2.435 1_556 S
O30 C19 1.256 1_655 S
O31 Gd0 2.327 1_556 S
O31 Gd1 2.717 1_456 S
O31 C19 1.257 . S
H32 C5 0.930 . S
H33 C6 0.931 . S
H34 C8 0.931 . S
H35 C9 0.931 . S
H36 C14 0.930 1_556 S
H37 C15 0.931 . S
H38 C17 0.931 . S
H39 C18 0.931 1_556 S
Gd40 C43 2.818 1_545 S
Gd40 O60 2.377 1_545 S
Gd40 O62 2.448 1_545 S
Gd40 O63 2.506 1_545 S
Gd40 O64 2.435 1_554 S
Gd40 O65 2.717 . S
Gd40 O67 2.395 . S
Gd40 O71 2.327 . S
Gd41 C52 2.818 . S
Gd41 O61 2.395 1_545 S
Gd41 O65 2.327 . S
Gd41 O66 2.377 . S
Gd41 O68 2.448 . S
Gd41 O69 2.506 . S
Gd41 O70 2.435 . S
Gd41 O71 2.717 . S
C42 O60 1.240 . S
C42 O61 1.240 . S
C43 Gd40 2.818 1_565 S
C43 C44 1.510 . S
C43 O62 1.249 . S
C43 O63 1.252 . S
C44 C43 1.510 . S
C44 C45 1.404 . S
C44 C46 1.352 . S
C45 C44 1.404 . S
C45 C49 1.389 . S
C45 H72 0.930 . S
C46 C44 1.352 . S
C46 C48 1.374 . S
C46 H73 0.931 . S
C47 C48 1.359 . S
C47 C49 1.364 . S
C48 C46 1.374 . S
C48 C47 1.359 . S
C48 H74 0.931 . S
C49 C45 1.389 . S
C49 C47 1.364 . S
C49 H75 0.931 . S
C50 O64 1.256 . S
C50 O65 1.257 1_556 S
C51 O66 1.240 . S
C51 O67 1.240 . S
C52 Gd41 2.818 . S
C52 C53 1.510 . S
C52 O68 1.249 . S
C52 O69 1.252 . S
C53 C52 1.510 . S
C53 C54 1.404 . S
C53 C55 1.352 . S
C54 C53 1.404 . S
C54 C58 1.389 . S
C54 H76 0.930 . S
C55 C53 1.352 . S
C55 C57 1.374 . S
C55 H77 0.931 . S
C56 C57 1.359 . S
C56 C58 1.364 . S
C57 C55 1.374 . S
C57 C56 1.359 . S
C57 H78 0.931 . S
C58 C54 1.389 . S
C58 C56 1.364 . S
C58 H79 0.931 . S
C59 O70 1.256 . S
C59 O71 1.257 . S
O60 Gd40 2.377 1_565 S
O60 C42 1.240 . S
O61 Gd41 2.395 1_565 S
O61 C42 1.240 . S
O62 Gd40 2.448 1_565 S
O62 C43 1.249 . S
O63 Gd40 2.506 1_565 S
O63 C43 1.252 . S
O64 Gd40 2.435 1_556 S
O64 C50 1.256 . S
O65 Gd40 2.717 . S
O65 Gd41 2.327 . S
O65 C50 1.257 1_554 S
O66 Gd41 2.377 . S
O66 C51 1.240 . S
O67 Gd40 2.395 . S
O67 C51 1.240 . S
O68 Gd41 2.448 . S
O68 C52 1.249 . S
O69 Gd41 2.506 . S
O69 C52 1.252 . S
O70 Gd41 2.435 . S
O70 C59 1.256 . S
O71 Gd40 2.327 . S
O71 Gd41 2.717 . S
O71 C59 1.257 . S
H72 C45 0.930 . S
H73 C46 0.931 . S
H74 C48 0.931 . S
H75 C49 0.931 . S
H76 C54 0.930 . S
H77 C55 0.931 . S
H78 C57 0.931 . S
H79 C58 0.931 . S
Gd80 C83 2.818 1_554 S
Gd80 O100 2.377 . S
Gd80 O102 2.448 . S
Gd80 O103 2.506 1_554 S
Gd80 O104 2.435 . S
Gd80 O105 2.717 . S
Gd80 O107 2.395 . S
Gd80 O111 2.327 1_554 S
Gd81 C92 2.818 . S
Gd81 O101 2.395 . S
Gd81 O105 2.327 1_556 S
Gd81 O106 2.377 . S
Gd81 O108 2.448 . S
Gd81 O109 2.506 1_556 S
Gd81 O110 2.435 . S
Gd81 O111 2.717 . S
C82 O100 1.240 1_556 S
C82 O101 1.240 . S
C83 Gd80 2.818 1_556 S
C83 C84 1.510 . S
C83 O102 1.249 1_556 S
C83 O103 1.252 . S
C84 C83 1.510 . S
C84 C85 1.404 1_556 S
C84 C86 1.352 . S
C85 C84 1.404 1_554 S
C85 C89 1.389 . S
C85 H112 0.930 . S
C86 C84 1.352 . S
C86 C88 1.374 . S
C86 H113 0.931 . S
C87 C88 1.359 . S
C87 C89 1.364 1_556 S
C88 C86 1.374 . S
C88 C87 1.359 . S
C88 H114 0.931 . S
C89 C85 1.389 . S
C89 C87 1.364 1_554 S
C89 H115 0.931 . S
C90 O104 1.256 . S
C90 O105 1.257 . S
C91 O106 1.240 . S
C91 O107 1.240 1_556 S
C92 Gd81 2.818 . S
C92 C93 1.510 . S
C92 O108 1.249 . S
C92 O109 1.252 1_556 S
C93 C92 1.510 . S
C93 C94 1.404 . S
C93 C95 1.352 1_556 S
C94 C93 1.404 . S
C94 C98 1.389 . S
C94 H116 0.930 . S
C95 C93 1.352 1_554 S
C95 C97 1.374 . S
C95 H117 0.931 . S
C96 C97 1.359 1_556 S
C96 C98 1.364 . S
C97 C95 1.374 . S
C97 C96 1.359 1_554 S
C97 H118 0.931 . S
C98 C94 1.389 . S
C98 C96 1.364 . S
C98 H119 0.931 . S
C99 O110 1.256 . S
C99 O111 1.257 . S
O100 Gd80 2.377 . S
O100 C82 1.240 1_554 S
O101 Gd81 2.395 . S
O101 C82 1.240 . S
O102 Gd80 2.448 . S
O102 C83 1.249 1_554 S
O103 Gd80 2.506 1_556 S
O103 C83 1.252 . S
O104 Gd80 2.435 . S
O104 C90 1.256 . S
O105 Gd80 2.717 . S
O105 Gd81 2.327 1_554 S
O105 C90 1.257 . S
O106 Gd81 2.377 . S
O106 C91 1.240 . S
O107 Gd80 2.395 . S
O107 C91 1.240 1_554 S
O108 Gd81 2.448 . S
O108 C92 1.249 . S
O109 Gd81 2.506 1_554 S
O109 C92 1.252 1_554 S
O110 Gd81 2.435 . S
O110 C99 1.256 . S
O111 Gd80 2.327 1_556 S
O111 Gd81 2.717 . S
O111 C99 1.257 . S
H112 C85 0.930 . S
H113 C86 0.931 . S
H114 C88 0.931 . S
H115 C89 0.931 . S
H116 C94 0.930 . S
H117 C95 0.931 . S
H118 C97 0.931 . S
H119 C98 0.931 . S
C7 C82 4.478 1_554 S
C51 C11 4.382 . S
C47 C87 3.136 . S
C91 C16 5.422 1_556 S
C42 C2 3.853 . S
C96 C56 2.533 1_556 S
C19 C10 0.557 . S
C50 C59 0.726 . S
C99 C90 0.793 . S
