# Generated by pormake.
# Topology pcu, (6)-cn, num edge types: 1
# Building blocks:
#     Node 0, Type 0, BuildingBlock: MIFKUJ_clean_sbu_0, # of connection points: 6
#     Edge 1, Type (0, 0), BuildingBlock: TEMPAE_clean_linker_10, # of connection points: 2
#     Edge 2, Type (0, 0), BuildingBlock: TEMPAE_clean_linker_10, # of connection points: 2
#     Edge 3, Type (0, 0), BuildingBlock: TEMPAE_clean_linker_10, # of connection points: 2
# Relax obj value: 0.000
# Max RMSD: 0.000
# Mean RMSD: 0.000
data_MOF--net-pcu--node1-MIFKUJ_clean_sbu_0--edge1-TEMPAE_clean_linker_10
_symmetry_space_group_name_H-M    P1
_symmetry_Int_Tables_number       1
_symmetry_cell_setting            triclinic
loop_
_symmetry_equiv_pos_as_xyz
'x, y, z'
_cell_length_a     17.344171
_cell_length_b     19.029595
_cell_length_c     14.321121
_cell_angle_alpha  101.09452
_cell_angle_beta   88.818543
_cell_angle_gamma 112.80065
loop_
_atom_site_label
_atom_site_type_symbol
_atom_site_fract_x
_atom_site_fract_y
_atom_site_fract_z
_atom_type_partial_charge
Zn0 Zn 0.03896 0.90284 0.96102 0.0
Zn1 Zn 0.97436 0.07954 0.98306 0.0
C2 C 0.19378 0.88721 0.98334 0.0
O3 O 0.15207 0.82204 0.92308 0.0
C4 C 0.81233 0.02557 0.06518 0.0
O5 O 0.85618 0.06351 0.14591 0.0
O6 O 0.9841 0.786 0.94136 0.0
O7 O 0.97602 0.95019 0.0528 0.0
O8 O 0.03517 0.07612 0.09815 0.0
C9 C 0.98002 0.7545 0.01293 0.0
O10 O 0.00498 0.79919 0.09773 0.0
O11 O 0.15843 0.93433 0.01185 0.0
C12 C 0.93226 0.20256 0.9455 0.0
O13 O 0.86762 0.14276 0.90056 0.0
O14 O 0.98945 0.19059 0.98588 0.0
O15 O 0.01042 0.03865 0.85666 0.0
O16 O 0.04498 0.93549 0.83471 0.0
O17 O 0.85019 0.02071 0.98875 0.0
C18 C 0.02113 0.00913 0.11382 0.0
C19 C 0.03409 -0.01036 0.80383 0.0
C20 C 0.98518 0.93633 0.24588 0.0
C21 C 0.03889 0.00054 0.21014 0.0
C22 C 0.99368 0.93212 0.34138 0.0
C23 C 0.05779 -0.00648 0.40225 0.0
C24 C 0.11546 0.0562 0.36508 0.0
C25 C 0.10478 0.05936 0.26936 0.0
C26 C 0.93034 0.86468 0.37848 0.0
C27 C 0.18559 0.12191 0.42752 0.0
C28 C 0.00572 0.03286 0.65961 0.0
C29 C 0.04479 -0.00619 0.70219 0.0
C30 C 0.0108 0.03414 0.56231 0.0
C31 C 0.05747 -0.0033 0.50649 0.0
C32 C 0.09945 0.95934 0.54946 0.0
C33 C 0.09188 0.9576 0.64689 0.0
C34 C 0.96403 0.07362 0.51875 0.0
C35 C 0.15109 0.92024 0.49225 0.0
H36 H 0.93341 0.89128 0.20059 0.0
H37 H 0.14667 0.10881 0.24146 0.0
H38 H 0.9622 0.83947 0.42058 0.0
H39 H 0.88946 0.88566 0.42668 0.0
H40 H 0.89016 0.81789 0.32007 0.0
H41 H 0.23195 0.15979 0.3851 0.0
H42 H 0.1593 0.15817 0.47713 0.0
H43 H 0.2185 0.09877 0.47142 0.0
H44 H 0.96891 0.06066 0.70182 0.0
H45 H 0.12283 0.92795 0.67975 0.0
H46 H 0.91658 0.03051 0.46341 0.0
H47 H 0.00789 0.11911 0.48322 0.0
H48 H 0.93168 0.10105 0.57249 0.0
H49 H 0.10987 0.86996 0.43836 0.0
H50 H 0.1851 0.89916 0.53778 0.0
H51 H 0.1973 0.96121 0.45303 0.0
C52 C 0.3377 -0.01643 0.044 0.0
C53 C 0.28202 0.90624 0.01238 0.0
C54 C 0.42359 0.0022 0.06087 0.0
C55 C 0.45387 0.94187 0.04747 0.0
C56 C 0.397 0.86343 0.02086 0.0
C57 C 0.31191 0.84664 0.00277 0.0
C58 C 0.48244 0.08662 0.08815 0.0
C59 C 0.42645 0.79734 0.00772 0.0
C60 C 0.6767 -0.0122 0.97376 0.0
C61 C 0.71998 -0.00094 0.06057 0.0
C62 C 0.59029 0.96968 0.96895 0.0
C63 C 0.54556 0.96092 0.05263 0.0
C64 C 0.5884 0.97011 0.14012 0.0
C65 C 0.67542 -0.01006 0.14326 0.0
C66 C 0.54716 0.96136 0.87446 0.0
C67 C 0.54243 0.95946 0.23031 0.0
H68 H 0.31482 0.0298 0.05148 0.0
H69 H 0.26887 0.78662 0.97954 0.0
H70 H 0.52272 0.09612 0.15232 0.0
H71 H 0.52442 0.10279 0.02947 0.0
H72 H 0.44842 0.1261 0.10268 0.0
H73 H 0.37339 0.73964 -0.00262 0.0
H74 H 0.46467 0.79877 0.94449 0.0
H75 H 0.46691 0.80369 0.07039 0.0
H76 H 0.71081 -0.0045 0.90971 0.0
H77 H 0.7086 -0.00156 0.21049 0.0
H78 H 0.51663 0.00352 0.88088 0.0
H79 H 0.49728 0.90223 0.85379 0.0
H80 H 0.59129 0.97135 0.81643 0.0
H81 H 0.51377 0.00295 0.24853 0.0
H82 H 0.58432 0.96576 0.29173 0.0
H83 H 0.49069 0.90104 0.21934 0.0
C84 C 0.94443 0.63367 0.0779 0.0
C85 C 0.96099 0.67033 -0.00057 0.0
C86 C 0.9352 0.55598 0.06819 0.0
C87 C 0.94412 0.51448 0.97816 0.0
C88 C 0.9587 0.55056 0.89817 0.0
C89 C 0.96628 0.62792 0.90961 0.0
C90 C 0.91805 0.51898 0.15477 0.0
C91 C 0.96946 0.50845 0.80124 0.0
C92 C 0.01169 0.34693 0.97781 0.0
C93 C 0.936 0.28235 0.95231 0.0
C94 C 0.01538 0.42282 0.98522 0.0
C95 C 0.94129 0.43431 0.96848 0.0
C96 C 0.86464 0.36932 0.94315 0.0
C97 C 0.86306 0.29407 0.93455 0.0
C98 C 0.09857 0.49074 0.01091 0.0
C99 C 0.78413 0.37929 0.92629 0.0
H100 H 0.93992 0.66611 0.1474 0.0
H101 H 0.97968 0.65609 0.84879 0.0
H102 H 0.86235 0.46324 0.13953 0.0
H103 H 0.972 0.50541 0.17266 0.0
H104 H 0.90714 0.55733 0.21801 0.0
H105 H 0.97729 0.54369 0.74558 0.0
H106 H 0.02533 0.49395 0.80456 0.0
H107 H 0.9145 0.45281 0.77942 0.0
H108 H 0.06828 0.33813 -0.00883 0.0
H109 H 0.80419 0.24437 0.91552 0.0
H110 H 0.0953 0.52878 0.07876 0.0
H111 H 0.11321 0.52643 0.9551 0.0
H112 H 0.15074 0.47182 0.01894 0.0
H113 H 0.77105 0.41441 -0.00883 0.0
H114 H 0.72967 0.32271 0.90761 0.0
H115 H 0.79032 0.41142 0.86777 0.0
loop_
_geom_bond_atom_site_label_1
_geom_bond_atom_site_label_2
_geom_bond_distance
_geom_bond_site_symmetry_2
_ccdc_geom_bond_type
Zn0 O6 1.969 . S
Zn0 O7 1.965 1_456 S
Zn0 O11 2.024 1_556 S
Zn0 O16 1.969 . S
Zn1 O8 1.969 . S
Zn1 O14 1.969 . S
Zn1 O15 1.965 1_654 S
Zn1 O17 2.024 1_554 S
C2 O3 1.229 . S
C2 O11 1.058 1_556 S
O3 C2 1.229 . S
C4 O5 1.229 . S
C4 O17 1.058 1_554 S
O5 C4 1.229 . S
O6 Zn0 1.969 . S
O6 C9 1.267 1_556 S
O7 Zn0 1.965 1_654 S
O7 C18 1.266 . S
O8 Zn1 1.969 . S
O8 C18 1.249 1_545 S
C9 O6 1.267 1_554 S
C9 O10 1.228 . S
O10 C9 1.228 . S
O11 Zn0 2.024 1_554 S
O11 C2 1.058 1_554 S
C12 O13 1.228 . S
C12 O14 1.267 1_556 S
O13 C12 1.228 . S
O14 Zn1 1.969 . S
O14 C12 1.267 1_554 S
O15 Zn1 1.965 1_456 S
O15 C19 1.269 . S
O16 Zn0 1.969 . S
O16 C19 1.245 1_565 S
O17 Zn1 2.024 1_556 S
O17 C4 1.058 1_556 S
C18 O7 1.266 . S
C18 O8 1.249 1_565 S
C19 O15 1.269 . S
C19 O16 1.245 1_545 S
C20 C21 1.391 1_655 S
C20 C22 1.394 . S
C20 H36 0.931 . S
C21 C20 1.391 1_455 S
C21 C25 1.376 1_565 S
C22 C20 1.394 . S
C22 C23 1.369 1_655 S
C22 C26 1.531 . S
C23 C22 1.369 1_455 S
C23 C24 1.410 1_565 S
C23 C31 1.503 . S
C24 C23 1.410 1_545 S
C24 C25 1.392 . S
C24 C27 1.511 . S
C25 C21 1.376 1_545 S
C25 C24 1.392 . S
C25 H37 0.929 . S
C26 C22 1.531 . S
C26 H38 0.960 . S
C26 H39 0.962 . S
C26 H40 0.960 . S
C27 C24 1.511 . S
C27 H41 0.961 . S
C27 H42 0.961 . S
C27 H43 0.961 . S
C28 C29 1.370 1_645 S
C28 C30 1.363 . S
C28 H44 0.931 . S
C29 C28 1.370 1_465 S
C29 C33 1.408 . S
C30 C28 1.363 . S
C30 C31 1.370 1_645 S
C30 C34 1.524 . S
C31 C23 1.503 . S
C31 C30 1.370 1_465 S
C31 C32 1.403 . S
C32 C31 1.403 . S
C32 C33 1.404 . S
C32 C35 1.539 . S
C33 C29 1.408 . S
C33 C32 1.404 . S
C33 H45 0.930 . S
C34 C30 1.524 . S
C34 H46 0.956 . S
C34 H47 0.961 1_655 S
C34 H48 0.961 . S
C35 C32 1.539 . S
C35 H49 0.958 1_455 S
C35 H50 0.961 . S
C35 H51 0.960 . S
H36 C20 0.931 . S
H37 C25 0.929 . S
H38 C26 0.960 . S
H39 C26 0.962 . S
H40 C26 0.960 . S
H41 C27 0.961 . S
H42 C27 0.961 . S
H43 C27 0.961 . S
H44 C28 0.931 . S
H45 C33 0.930 . S
H46 C34 0.956 . S
H47 C34 0.961 1_455 S
H48 C34 0.961 . S
H49 C35 0.958 1_655 S
H50 C35 0.961 . S
H51 C35 0.960 . S
C52 C53 1.391 1_545 S
C52 C54 1.394 . S
C52 H68 0.931 . S
C53 C52 1.391 1_565 S
C53 C57 1.376 1_554 S
C54 C52 1.394 . S
C54 C55 1.369 1_545 S
C54 C58 1.531 . S
C55 C54 1.369 1_565 S
C55 C56 1.410 1_554 S
C55 C63 1.503 . S
C56 C55 1.410 1_556 S
C56 C57 1.392 . S
C56 C59 1.511 . S
C57 C53 1.376 1_556 S
C57 C56 1.392 . S
C57 H69 0.929 . S
C58 C54 1.531 . S
C58 H70 0.960 . S
C58 H71 0.962 . S
C58 H72 0.960 . S
C59 C56 1.511 . S
C59 H73 0.961 . S
C59 H74 0.961 . S
C59 H75 0.961 . S
C60 C61 1.370 1_546 S
C60 C62 1.363 . S
C60 H76 0.931 . S
C61 C60 1.370 1_564 S
C61 C65 1.408 . S
C62 C60 1.363 . S
C62 C63 1.370 1_546 S
C62 C66 1.524 . S
C63 C55 1.503 . S
C63 C62 1.370 1_564 S
C63 C64 1.403 . S
C64 C63 1.403 . S
C64 C65 1.404 . S
C64 C67 1.539 . S
C65 C61 1.408 . S
C65 C64 1.404 . S
C65 H77 0.930 . S
C66 C62 1.524 . S
C66 H78 0.956 . S
C66 H79 0.961 . S
C66 H80 0.961 . S
C67 C64 1.539 . S
C67 H81 0.958 . S
C67 H82 0.961 . S
C67 H83 0.960 . S
H68 C52 0.931 . S
H69 C57 0.929 . S
H70 C58 0.960 . S
H71 C58 0.962 . S
H72 C58 0.960 . S
H73 C59 0.961 . S
H74 C59 0.961 . S
H75 C59 0.961 . S
H76 C60 0.931 . S
H77 C65 0.930 . S
H78 C66 0.956 . S
H79 C66 0.961 . S
H80 C66 0.961 . S
H81 C67 0.958 . S
H82 C67 0.961 . S
H83 C67 0.960 . S
C84 C85 1.391 1_554 S
C84 C86 1.394 . S
C84 H100 0.931 . S
C85 C84 1.391 1_556 S
C85 C89 1.376 1_655 S
C86 C84 1.394 . S
C86 C87 1.369 1_554 S
C86 C90 1.531 . S
C87 C86 1.369 1_556 S
C87 C88 1.410 1_655 S
C87 C95 1.503 . S
C88 C87 1.410 1_455 S
C88 C89 1.392 . S
C88 C91 1.511 . S
C89 C85 1.376 1_455 S
C89 C88 1.392 . S
C89 H101 0.929 . S
C90 C86 1.531 . S
C90 H102 0.960 . S
C90 H103 0.962 . S
C90 H104 0.960 . S
C91 C88 1.511 . S
C91 H105 0.961 . S
C91 H106 0.961 . S
C91 H107 0.961 1_455 S
C92 C93 1.370 1_454 S
C92 C94 1.363 . S
C92 H108 0.931 . S
C93 C92 1.370 1_656 S
C93 C97 1.408 . S
C94 C92 1.363 . S
C94 C95 1.370 1_454 S
C94 C98 1.524 . S
C95 C87 1.503 . S
C95 C94 1.370 1_656 S
C95 C96 1.403 . S
C96 C95 1.403 . S
C96 C97 1.404 . S
C96 C99 1.539 . S
C97 C93 1.408 . S
C97 C96 1.404 . S
C97 H109 0.930 . S
C98 C94 1.524 . S
C98 H110 0.956 . S
C98 H111 0.961 . S
C98 H112 0.961 . S
C99 C96 1.539 . S
C99 H113 0.958 . S
C99 H114 0.961 . S
C99 H115 0.960 . S
H100 C84 0.931 . S
H101 C89 0.929 . S
H102 C90 0.960 . S
H103 C90 0.962 . S
H104 C90 0.960 . S
H105 C91 0.961 . S
H106 C91 0.961 . S
H107 C91 0.961 1_655 S
H108 C92 0.931 . S
H109 C97 0.930 . S
H110 C98 0.956 . S
H111 C98 0.961 . S
H112 C98 0.961 . S
H113 C99 0.958 . S
H114 C99 0.961 . S
H115 C99 0.960 . S
C21 C18 1.488 1_455 S
C29 C19 1.476 1_565 S
C53 C2 1.382 1_554 S
C61 C4 1.427 1_565 S
C85 C9 1.481 1_656 S
C93 C12 1.446 . S
