# Generated by pormake.
# Topology msp, (4)-cn, num edge types: 1
# Building blocks:
#     Node 0, Type 0, BuildingBlock: ESEHIV_clean_sbu_0, # of connection points: 4
#     Node 1, Type 0, BuildingBlock: ESEHIV_clean_sbu_0, # of connection points: 4
#     Node 2, Type 0, BuildingBlock: ESEHIV_clean_sbu_0, # of connection points: 4
#     Node 3, Type 0, BuildingBlock: ESEHIV_clean_sbu_0, # of connection points: 4
#     Node 4, Type 0, BuildingBlock: ESEHIV_clean_sbu_0, # of connection points: 4
#     Node 5, Type 0, BuildingBlock: ESEHIV_clean_sbu_0, # of connection points: 4
#     Node 6, Type 0, BuildingBlock: ESEHIV_clean_sbu_0, # of connection points: 4
#     Node 7, Type 0, BuildingBlock: ESEHIV_clean_sbu_0, # of connection points: 4
#     Edge 8, Type (0, 0), None
#     Edge 9, Type (0, 0), None
#     Edge 10, Type (0, 0), None
#     Edge 11, Type (0, 0), None
#     Edge 12, Type (0, 0), None
#     Edge 13, Type (0, 0), None
#     Edge 14, Type (0, 0), None
#     Edge 15, Type (0, 0), None
#     Edge 16, Type (0, 0), None
#     Edge 17, Type (0, 0), None
#     Edge 18, Type (0, 0), None
#     Edge 19, Type (0, 0), None
#     Edge 20, Type (0, 0), None
#     Edge 21, Type (0, 0), None
#     Edge 22, Type (0, 0), None
#     Edge 23, Type (0, 0), None
# Relax obj value: 0.061
# Max RMSD: 0.195
# Mean RMSD: 0.160
data_MOF--net-msp--node1-ESEHIV_clean_sbu_0--edge1-none
_symmetry_space_group_name_H-M    P1
_symmetry_Int_Tables_number       1
_symmetry_cell_setting            triclinic
loop_
_symmetry_equiv_pos_as_xyz
'x, y, z'
_cell_length_a     10.590824
_cell_length_b     11.932915
_cell_length_c     20.999
_cell_angle_alpha  89.988396
_cell_angle_beta   97.815327
_cell_angle_gamma 90.00435
loop_
_atom_site_label
_atom_site_type_symbol
_atom_site_fract_x
_atom_site_fract_y
_atom_site_fract_z
_atom_type_partial_charge
Cu0 Cu 1.02869 0.26516 0.47694 0.0
N1 N 0.1061 0.14198 0.52217 0.0
N2 N 0.27863 0.05747 0.5742 0.0
C3 C 0.21292 0.15425 0.56444 0.0
C4 C 0.21044 0.98003 0.53768 0.0
C5 C 0.10398 0.0329 0.50505 0.0
O6 O 1.03661 0.39178 0.53644 0.0
C7 C 0.21027 0.22986 0.38779 0.0
O8 O 0.28604 0.18406 0.43534 0.0
H9 H 0.24807 0.23496 0.58241 0.0
H10 H 1.03754 -0.00276 0.46677 0.0
N11 N 0.85472 0.25529 0.44778 0.0
N12 N 0.68661 0.31011 0.37828 0.0
C13 C 0.80427 0.26393 0.38529 0.0
C14 C 0.76455 0.29573 0.4811 0.0
C15 C 0.66084 0.32937 0.43847 0.0
C16 C 0.08478 0.48725 0.52861 0.0
O17 O 0.14151 0.50506 0.47759 0.0
H18 H 0.85736 0.24702 0.34575 0.0
H19 H 0.77844 0.31091 0.53237 0.0
O20 O 0.10857 0.27977 0.39872 0.0
H21 H 0.24105 0.89499 0.53066 0.0
H22 H 0.57486 0.36807 0.45078 0.0
Cu23 Cu 0.66069 0.22265 0.72113 0.0
N24 N 0.58007 0.10905 0.66738 0.0
N25 N 0.40459 0.04632 0.60596 0.0
C26 C 0.48834 0.13124 0.61788 0.0
C27 C 0.44815 0.96387 0.64692 0.0
C28 C 0.55679 0.00285 0.68483 0.0
O29 O 0.64125 0.36604 0.67585 0.0
C30 C 0.49061 0.17123 0.8142 0.0
O31 O 0.40631 0.14193 0.76528 0.0
H32 H 0.47543 0.21172 0.59473 0.0
H33 H 0.60416 0.96249 0.72768 0.0
N34 N 0.83691 0.21175 0.74023 0.0
N35 N 1.01682 0.26692 0.80035 0.0
C36 C 0.8983 0.22528 0.80033 0.0
C37 C 0.92053 0.24459 0.70095 0.0
C38 C 1.03207 0.27808 0.73793 0.0
C39 C 0.53491 0.40664 0.65166 0.0
O40 O 0.42963 0.36321 0.66783 0.0
H41 H 0.85255 0.21558 0.8431 0.0
H42 H 0.8975 0.25481 0.64949 0.0
O43 O 0.596 0.21508 0.80401 0.0
H44 H 0.39724 0.88728 0.65421 0.0
H45 H 0.11541 0.31255 0.72031 0.0
Cu46 Cu 0.93525 0.74275 0.71614 0.0
N47 N 0.8013 0.6604 0.7433 0.0
N48 N 0.68276 0.6594 0.82396 0.0
C49 C 0.79789 0.63676 0.806 0.0
C50 C 0.6071 0.6877 0.7696 0.0
C51 C 0.68013 0.68791 0.72019 0.0
O52 O 1.06487 0.76305 0.79076 0.0
C53 C 0.8651 0.93178 0.63152 0.0
O54 O 0.98084 0.96593 0.62608 0.0
H55 H 0.88245 0.62057 0.83977 0.0
H56 H 0.65147 0.72521 0.67363 0.0
N57 N 1.01905 0.67539 0.65197 0.0
N58 N 0.08065 0.56947 0.57339 0.0
C59 C 1.00317 0.57695 0.61974 0.0
C60 C 0.11413 0.72774 0.62727 0.0
C61 C 0.15064 0.66404 0.57836 0.0
C62 C 1.0437 0.79382 0.84645 0.0
O63 O 0.93277 0.83781 0.85376 0.0
H64 H 0.93426 0.51394 0.62861 0.0
H65 H 0.15257 0.80856 0.64294 0.0
O66 O 0.84618 0.87897 0.68205 0.0
H67 H 0.51009 0.718 0.76692 0.0
H68 H 0.222 0.6863 0.54828 0.0
Cu69 Cu 0.64963 0.73245 0.49536 0.0
N70 N 0.79516 0.70397 0.45519 0.0
N71 N 0.90764 0.72102 0.3728 0.0
C72 C 0.79765 0.68481 0.39191 0.0
C73 C 0.98047 0.75681 0.42639 0.0
C74 C 0.91096 0.74615 0.47671 0.0
O75 O 0.5149 0.78487 0.42877 0.0
C76 C 0.77529 0.91358 0.57201 0.0
O77 O 0.79847 0.96042 0.5182 0.0
H78 H 0.71509 0.65821 0.35923 0.0
H79 H 0.93835 0.7787 0.52427 0.0
N80 N 0.58028 0.60431 0.5293 0.0
N81 N 0.52909 0.48037 0.60185 0.0
C82 C 0.62341 0.54253 0.58186 0.0
C83 C 0.45613 0.57762 0.51529 0.0
C84 C 0.4247 0.50183 0.55984 0.0
C85 C 0.53798 0.82953 0.37645 0.0
O86 O 0.64804 0.87943 0.37459 0.0
H87 H 0.71864 0.54906 0.60742 0.0
H88 H 0.39096 0.61557 0.47726 0.0
O89 O 0.70074 0.82941 0.56984 0.0
H90 H 0.07412 0.79421 0.42839 0.0
H91 H 0.33296 0.46392 0.56142 0.0
Cu92 Cu 0.48526 0.72304 0.9781 0.0
N93 N 0.56535 0.60912 1.0318 0.0
N94 N 0.74036 0.54601 1.09351 0.0
C95 C 0.65659 0.63093 1.08159 0.0
C96 C 0.69733 0.46399 1.05214 0.0
C97 C 0.58895 0.50315 1.01411 0.0
O98 O 0.50505 0.86635 1.02344 0.0
C99 C 0.65559 0.67172 0.88515 0.0
O100 O 0.73997 0.64283 0.93414 0.0
H101 H 0.66921 0.71123 0.10496 0.0
H102 H 0.5421 0.46318 0.97102 0.0
N103 N 0.30902 0.71261 0.95894 0.0
N104 N 0.12923 0.76801 0.8988 0.0
C105 C 0.24769 0.72625 0.89884 0.0
C106 C 0.22542 0.74552 0.9982 0.0
C107 C 0.11395 0.77916 0.96122 0.0
C108 C 0.61141 0.90646 1.04799 0.0
O109 O 0.71674 0.86266 1.03212 0.0
H110 H 0.29344 0.71647 0.85608 0.0
H111 H 0.24841 0.75564 1.04967 0.0
O112 O 0.55004 0.71535 0.89525 0.0
H113 H 0.74852 0.38765 1.04468 0.0
H114 H 1.03063 0.81366 0.97882 0.0
Cu115 Cu 0.11689 0.76461 0.22235 0.0
N116 N 1.03912 0.64164 0.17708 0.0
N117 N 0.8663 0.55726 0.12527 0.0
C118 C 0.93196 0.65406 0.13506 0.0
C119 C 0.93496 0.47961 0.16142 0.0
C120 C 1.04157 0.53241 0.19395 0.0
O121 O 0.10916 0.89131 0.16287 0.0
C122 C 0.93566 0.72919 0.31168 0.0
O123 O 0.85997 0.68304 0.26423 0.0
H124 H 0.89662 0.73484 0.1173 0.0
H125 H 0.10844 0.49654 0.23198 0.0
N126 N 0.29087 0.75442 0.25142 0.0
N127 N 0.45918 0.80921 0.32078 0.0
C128 C 0.34143 0.76321 0.31389 0.0
C129 C 0.38106 0.79457 0.21801 0.0
C130 C 0.4849 0.82819 0.26055 0.0
C131 C 1.06119 -0.01316 0.17074 0.0
O132 O 1.00466 0.00473 0.22179 0.0
H133 H 0.28836 0.74659 0.35347 0.0
H134 H 0.36712 0.80961 0.16672 0.0
O135 O 1.03719 0.77928 0.30062 0.0
H136 H 0.90463 0.39442 0.16825 0.0
H137 H 0.57092 0.86672 0.24817 0.0
Cu138 Cu 0.49612 0.23238 0.20394 0.0
N139 N 0.35077 0.20405 0.2443 0.0
N140 N 0.23837 0.2215 0.32669 0.0
C141 C 0.34841 0.18532 0.30763 0.0
C142 C 0.16538 0.25679 0.27302 0.0
C143 C 0.23485 0.24591 0.2227 0.0
O144 O 0.63092 0.28524 0.27034 0.0
C145 C 0.37012 0.41311 0.12707 0.0
O146 O 0.34712 0.46008 0.18086 0.0
H147 H 0.43104 0.15901 0.34036 0.0
H148 H 0.20735 0.27813 0.17507 0.0
N149 N 0.56547 0.10407 0.17023 0.0
N150 N 0.617 0.98006 1.09783 0.0
C151 C 0.52267 0.04254 0.11754 0.0
C152 C 0.68942 0.0769 0.18462 0.0
C153 C 0.72104 0.00103 0.14017 0.0
C154 C 0.60786 0.33023 0.32257 0.0
O155 O 0.49782 0.38019 0.32433 0.0
H156 H 0.42769 0.04945 1.09171 0.0
H157 H 0.75436 0.11455 0.22285 0.0
O158 O 0.44463 0.32893 0.12929 0.0
H159 H 1.07162 0.294 0.27094 0.0
H160 H 0.81266 0.9627 0.1389 0.0
Cu161 Cu 0.21077 0.24224 0.9831 0.0
N162 N 0.34498 0.16006 0.9561 0.0
N163 N 0.46345 0.15922 0.87542 0.0
C164 C 0.34845 0.13624 0.89343 0.0
C165 C 0.53908 0.18781 0.92973 0.0
C166 C 0.46607 0.18797 0.97915 0.0
O167 O 0.08118 0.26208 0.9084 0.0
C168 C 0.28046 0.43155 1.06752 0.0
O169 O 0.16483 0.466 1.07294 0.0
H170 H 0.26393 0.11969 0.8597 0.0
H171 H 0.49464 0.22545 1.02566 0.0
N172 N 0.12701 0.17495 1.04733 0.0
N173 N 1.06536 0.06904 0.12593 0.0
C174 C 0.1429 0.07654 1.07961 0.0
C175 C 1.03187 0.22727 1.07198 0.0
C176 C 0.99531 0.16357 0.1209 0.0
C177 C 0.10235 0.29278 0.85268 0.0
O178 O 0.21322 0.33686 0.84535 0.0
H179 H 0.21189 0.01357 1.0708 0.0
H180 H 0.9934 0.30807 1.05626 0.0
O181 O 0.29935 0.37881 1.01698 0.0
H182 H 0.63599 0.21833 0.93235 0.0
H183 H 0.92383 0.18576 0.15092 0.0
loop_
_geom_bond_atom_site_label_1
_geom_bond_atom_site_label_2
_geom_bond_distance
_geom_bond_site_symmetry_2
_ccdc_geom_bond_type
Cu0 N1 1.999 1_655 S
Cu0 O6 1.974 . S
Cu0 N11 1.985 . S
Cu0 O20 1.959 1_655 S
N1 Cu0 1.999 1_455 S
N1 C3 1.263 . S
N1 C5 1.389 . S
N2 C3 1.358 . S
N2 C4 1.400 . S
C3 N1 1.263 . S
C3 N2 1.358 . S
C3 H9 0.930 . S
C4 N2 1.400 . S
C4 C5 1.351 . S
C4 H21 0.930 . S
C5 N1 1.389 . S
C5 C4 1.351 . S
C5 H10 0.930 . S
O6 Cu0 1.974 . S
O6 C16 1.282 . S
C7 O8 1.261 . S
C7 O20 1.251 . S
O8 C7 1.261 . S
H9 C3 0.930 . S
H10 C5 0.930 . S
N11 Cu0 1.985 . S
N11 C13 1.335 . S
N11 C14 1.390 . S
N12 C13 1.345 . S
N12 C15 1.336 . S
C13 N11 1.335 . S
C13 N12 1.345 . S
C13 H18 0.930 . S
C14 N11 1.390 . S
C14 C15 1.346 . S
C14 H19 0.930 . S
C15 N12 1.336 . S
C15 C14 1.346 . S
C15 H22 0.929 . S
C16 O6 1.282 . S
C16 O17 1.216 . S
O17 C16 1.216 . S
H18 C13 0.930 . S
H19 C14 0.930 . S
O20 Cu0 1.959 1_455 S
O20 C7 1.251 . S
H21 C4 0.930 . S
H22 C15 0.929 . S
Cu23 N24 1.999 . S
Cu23 O29 1.974 . S
Cu23 N34 1.985 . S
Cu23 O43 1.959 . S
N24 Cu23 1.999 . S
N24 C26 1.263 . S
N24 C28 1.389 . S
N25 C26 1.358 . S
N25 C27 1.400 . S
C26 N24 1.263 . S
C26 N25 1.358 . S
C26 H32 0.930 . S
C27 N25 1.400 . S
C27 C28 1.351 . S
C27 H44 0.930 . S
C28 N24 1.389 . S
C28 C27 1.351 . S
C28 H33 0.930 . S
O29 Cu23 1.974 . S
O29 C39 1.282 . S
C30 O31 1.261 . S
C30 O43 1.251 . S
O31 C30 1.261 . S
H32 C26 0.930 . S
H33 C28 0.930 . S
N34 Cu23 1.985 . S
N34 C36 1.335 . S
N34 C37 1.390 . S
N35 C36 1.345 . S
N35 C38 1.336 . S
C36 N34 1.335 . S
C36 N35 1.345 . S
C36 H41 0.930 . S
C37 N34 1.390 . S
C37 C38 1.346 . S
C37 H42 0.930 . S
C38 N35 1.336 . S
C38 C37 1.346 . S
C38 H45 0.929 . S
C39 O29 1.282 . S
C39 O40 1.216 . S
O40 C39 1.216 . S
H41 C36 0.930 . S
H42 C37 0.930 . S
O43 Cu23 1.959 . S
O43 C30 1.251 . S
H44 C27 0.930 . S
H45 C38 0.929 . S
Cu46 N47 1.999 . S
Cu46 O52 1.974 1_655 S
Cu46 N57 1.985 . S
Cu46 O66 1.959 . S
N47 Cu46 1.999 . S
N47 C49 1.263 . S
N47 C51 1.389 . S
N48 C49 1.358 . S
N48 C50 1.400 . S
C49 N47 1.263 . S
C49 N48 1.358 . S
C49 H55 0.930 . S
C50 N48 1.400 . S
C50 C51 1.351 . S
C50 H67 0.930 . S
C51 N47 1.389 . S
C51 C50 1.351 . S
C51 H56 0.930 . S
O52 Cu46 1.974 1_455 S
O52 C62 1.282 . S
C53 O54 1.261 . S
C53 O66 1.251 . S
O54 C53 1.261 . S
H55 C49 0.930 . S
H56 C51 0.930 . S
N57 Cu46 1.985 . S
N57 C59 1.335 . S
N57 C60 1.390 1_655 S
N58 C59 1.345 1_455 S
N58 C61 1.336 . S
C59 N57 1.335 . S
C59 N58 1.345 1_655 S
C59 H64 0.930 . S
C60 N57 1.390 1_455 S
C60 C61 1.346 . S
C60 H65 0.930 . S
C61 N58 1.336 . S
C61 C60 1.346 . S
C61 H68 0.929 . S
C62 O52 1.282 . S
C62 O63 1.216 . S
O63 C62 1.216 . S
H64 C59 0.930 . S
H65 C60 0.930 . S
O66 Cu46 1.959 . S
O66 C53 1.251 . S
H67 C50 0.930 . S
H68 C61 0.929 . S
Cu69 N70 1.999 . S
Cu69 O75 1.974 . S
Cu69 N80 1.985 . S
Cu69 O89 1.959 . S
N70 Cu69 1.999 . S
N70 C72 1.263 . S
N70 C74 1.389 . S
N71 C72 1.358 . S
N71 C73 1.400 . S
C72 N70 1.263 . S
C72 N71 1.358 . S
C72 H78 0.930 . S
C73 N71 1.400 . S
C73 C74 1.351 . S
C73 H90 0.930 . S
C74 N70 1.389 . S
C74 C73 1.351 . S
C74 H79 0.930 . S
O75 Cu69 1.974 . S
O75 C85 1.282 . S
C76 O77 1.261 . S
C76 O89 1.251 . S
O77 C76 1.261 . S
H78 C72 0.930 . S
H79 C74 0.930 . S
N80 Cu69 1.985 . S
N80 C82 1.335 . S
N80 C83 1.390 . S
N81 C82 1.345 . S
N81 C84 1.336 . S
C82 N80 1.335 . S
C82 N81 1.345 . S
C82 H87 0.930 . S
C83 N80 1.390 . S
C83 C84 1.346 . S
C83 H88 0.930 . S
C84 N81 1.336 . S
C84 C83 1.346 . S
C84 H91 0.929 . S
C85 O75 1.282 . S
C85 O86 1.216 . S
O86 C85 1.216 . S
H87 C82 0.930 . S
H88 C83 0.930 . S
O89 Cu69 1.959 . S
O89 C76 1.251 . S
H90 C73 0.930 . S
H91 C84 0.929 . S
Cu92 N93 1.999 . S
Cu92 O98 1.974 . S
Cu92 N103 1.985 . S
Cu92 O112 1.959 . S
N93 Cu92 1.999 . S
N93 C95 1.263 . S
N93 C97 1.389 . S
N94 C95 1.358 . S
N94 C96 1.400 . S
C95 N93 1.263 . S
C95 N94 1.358 . S
C95 H101 0.930 . S
C96 N94 1.400 . S
C96 C97 1.351 . S
C96 H113 0.930 . S
C97 N93 1.389 . S
C97 C96 1.351 . S
C97 H102 0.930 . S
O98 Cu92 1.974 . S
O98 C108 1.282 . S
C99 O100 1.261 . S
C99 O112 1.251 . S
O100 C99 1.261 . S
H101 C95 0.930 . S
H102 C97 0.930 . S
N103 Cu92 1.985 . S
N103 C105 1.335 . S
N103 C106 1.390 . S
N104 C105 1.345 . S
N104 C107 1.336 . S
C105 N103 1.335 . S
C105 N104 1.345 . S
C105 H110 0.930 . S
C106 N103 1.390 . S
C106 C107 1.346 . S
C106 H111 0.930 . S
C107 N104 1.336 . S
C107 C106 1.346 . S
C107 H114 0.929 . S
C108 O98 1.282 . S
C108 O109 1.216 . S
O109 C108 1.216 . S
H110 C105 0.930 . S
H111 C106 0.930 . S
O112 Cu92 1.959 . S
O112 C99 1.251 . S
H113 C96 0.930 . S
H114 C107 0.929 . S
Cu115 N116 1.999 1_455 S
Cu115 O121 1.974 . S
Cu115 N126 1.985 . S
Cu115 O135 1.959 1_455 S
N116 Cu115 1.999 1_655 S
N116 C118 1.263 . S
N116 C120 1.389 . S
N117 C118 1.358 . S
N117 C119 1.400 . S
C118 N116 1.263 . S
C118 N117 1.358 . S
C118 H124 0.930 . S
C119 N117 1.400 . S
C119 C120 1.351 . S
C119 H136 0.930 . S
C120 N116 1.389 . S
C120 C119 1.351 . S
C120 H125 0.930 . S
O121 Cu115 1.974 . S
O121 C131 1.282 . S
C122 O123 1.261 . S
C122 O135 1.251 . S
O123 C122 1.261 . S
H124 C118 0.930 . S
H125 C120 0.930 . S
N126 Cu115 1.985 . S
N126 C128 1.335 . S
N126 C129 1.390 . S
N127 C128 1.345 . S
N127 C130 1.336 . S
C128 N126 1.335 . S
C128 N127 1.345 . S
C128 H133 0.930 . S
C129 N126 1.390 . S
C129 C130 1.346 . S
C129 H134 0.930 . S
C130 N127 1.336 . S
C130 C129 1.346 . S
C130 H137 0.929 . S
C131 O121 1.282 . S
C131 O132 1.216 . S
O132 C131 1.216 . S
H133 C128 0.930 . S
H134 C129 0.930 . S
O135 Cu115 1.959 1_655 S
O135 C122 1.251 . S
H136 C119 0.930 . S
H137 C130 0.929 . S
Cu138 N139 1.999 . S
Cu138 O144 1.974 . S
Cu138 N149 1.985 . S
Cu138 O158 1.959 . S
N139 Cu138 1.999 . S
N139 C141 1.263 . S
N139 C143 1.389 . S
N140 C141 1.358 . S
N140 C142 1.400 . S
C141 N139 1.263 . S
C141 N140 1.358 . S
C141 H147 0.930 . S
C142 N140 1.400 . S
C142 C143 1.351 . S
C142 H159 0.930 . S
C143 N139 1.389 . S
C143 C142 1.351 . S
C143 H148 0.930 . S
O144 Cu138 1.974 . S
O144 C154 1.282 . S
C145 O146 1.261 . S
C145 O158 1.251 . S
O146 C145 1.261 . S
H147 C141 0.930 . S
H148 C143 0.930 . S
N149 Cu138 1.985 . S
N149 C151 1.335 . S
N149 C152 1.390 . S
N150 C151 1.345 1_556 S
N150 C153 1.336 1_556 S
C151 N149 1.335 . S
C151 N150 1.345 1_554 S
C151 H156 0.930 1_554 S
C152 N149 1.390 . S
C152 C153 1.346 . S
C152 H157 0.930 . S
C153 N150 1.336 1_554 S
C153 C152 1.346 . S
C153 H160 0.929 . S
C154 O144 1.282 . S
C154 O155 1.216 . S
O155 C154 1.216 . S
H156 C151 0.930 1_556 S
H157 C152 0.930 . S
O158 Cu138 1.959 . S
O158 C145 1.251 . S
H159 C142 0.930 . S
H160 C153 0.929 . S
Cu161 N162 1.999 . S
Cu161 O167 1.974 1_455 S
Cu161 N172 1.985 . S
Cu161 O181 1.959 . S
N162 Cu161 1.999 . S
N162 C164 1.263 . S
N162 C166 1.389 . S
N163 C164 1.358 . S
N163 C165 1.400 . S
C164 N162 1.263 . S
C164 N163 1.358 . S
C164 H170 0.930 . S
C165 N163 1.400 . S
C165 C166 1.351 . S
C165 H182 0.930 . S
C166 N162 1.389 . S
C166 C165 1.351 . S
C166 H171 0.930 . S
O167 Cu161 1.974 1_655 S
O167 C177 1.282 . S
C168 O169 1.261 . S
C168 O181 1.251 . S
O169 C168 1.261 . S
H170 C164 0.930 . S
H171 C166 0.930 . S
N172 Cu161 1.985 . S
N172 C174 1.335 . S
N172 C175 1.390 1_455 S
N173 C174 1.345 1_654 S
N173 C176 1.336 1_554 S
C174 N172 1.335 . S
C174 N173 1.345 1_456 S
C174 H179 0.930 1_556 S
C175 N172 1.390 1_655 S
C175 C176 1.346 . S
C175 H180 0.930 . S
C176 N173 1.336 1_556 S
C176 C175 1.346 . S
C176 H183 0.929 . S
C177 O167 1.282 . S
C177 O178 1.216 . S
O178 C177 1.216 . S
H179 C174 0.930 1_554 S
H180 C175 0.930 . S
O181 Cu161 1.959 . S
O181 C168 1.251 . S
H182 C165 0.930 . S
H183 C176 0.929 . S
C16 N58 2.544 1_655 S
N81 C39 2.615 . S
N150 C108 2.617 1_545 S
C131 N173 2.542 1_465 S
C154 N12 1.792 . S
N35 C177 1.751 . S
C62 N104 1.752 . S
C85 N127 1.791 . S
N140 C7 2.150 . S
C30 N163 2.179 . S
C99 N48 2.179 . S
C122 N71 2.150 . S
N25 N2 1.338 . S
C53 C76 1.047 . S
N117 N94 1.338 1_554 S
C145 C168 1.047 1_554 S
