# Generated by pormake.
# Topology rob, (6)-cn, num edge types: 1
# Building blocks:
#     Node 0, Type 0, BuildingBlock: BETDIP_clean_sbu_0, # of connection points: 6
#     Node 1, Type 0, BuildingBlock: BETDIP_clean_sbu_0, # of connection points: 6
#     Node 2, Type 0, BuildingBlock: BETDIP_clean_sbu_0, # of connection points: 6
#     Node 3, Type 0, BuildingBlock: BETDIP_clean_sbu_0, # of connection points: 6
#     Edge 4, Type (0, 0), None
#     Edge 5, Type (0, 0), None
#     Edge 6, Type (0, 0), None
#     Edge 7, Type (0, 0), None
#     Edge 8, Type (0, 0), None
#     Edge 9, Type (0, 0), None
#     Edge 10, Type (0, 0), None
#     Edge 11, Type (0, 0), None
#     Edge 12, Type (0, 0), None
#     Edge 13, Type (0, 0), None
#     Edge 14, Type (0, 0), None
#     Edge 15, Type (0, 0), None
# Relax obj value: 0.048
# Max RMSD: 0.203
# Mean RMSD: 0.203
data_MOF--net-rob--node1-BETDIP_clean_sbu_0--edge1-none
_symmetry_space_group_name_H-M    P1
_symmetry_Int_Tables_number       1
_symmetry_cell_setting            triclinic
loop_
_symmetry_equiv_pos_as_xyz
'x, y, z'
_cell_length_a     10.602111
_cell_length_b     9.2630682
_cell_length_c     20.616088
_cell_angle_alpha  91.370795
_cell_angle_beta   90.004641
_cell_angle_gamma 89.99339
loop_
_atom_site_label
_atom_site_type_symbol
_atom_site_fract_x
_atom_site_fract_y
_atom_site_fract_z
_atom_type_partial_charge
Tb0 Tb 0.12656 0.34594 0.09325 0.0
Tb1 Tb 0.21616 0.13804 0.05658 0.0
C2 C -0.01423 0.44657 0.17653 0.0
C3 C -0.01763 0.41623 0.24704 0.0
C4 C 0.91613 0.25421 0.26969 0.0
C5 C 0.80318 0.22738 0.32926 0.0
C6 C 0.73643 0.35618 0.38048 0.0
C7 C 0.77208 0.53294 0.37426 0.0
C8 C -0.0526 0.57197 0.28772 0.0
C9 C 0.35611 0.45159 0.07298 0.0
C10 C 0.21516 0.16163 0.20171 0.0
C11 C 0.35679 0.03703 0.97333 0.0
C12 C 0.36033 0.06757 0.90284 0.0
C13 C 0.42658 0.22965 0.88025 0.0
C14 C 0.53954 0.25658 0.82069 0.0
C15 C 0.60629 0.12784 0.76943 0.0
C16 C 0.57063 0.95109 0.77558 0.0
C17 C 0.39531 0.91191 0.8621 0.0
C18 C -0.0136 0.03307 0.0771 0.0
C19 C 0.12759 0.32224 0.94809 0.0
O20 O -0.05068 0.34265 0.13716 0.0
O21 O 0.07718 0.52484 0.15354 0.0
O22 O 0.32896 0.32496 0.09647 0.0
O23 O 0.25105 0.51578 0.05742 0.0
O24 O 0.20454 0.29349 0.18535 0.0
O25 O 0.23255 0.06515 0.15501 0.0
O26 O 0.39352 0.14069 1.01278 0.0
O27 O 0.26512 0.95905 0.99625 0.0
O28 O 0.014 0.15915 1.0532 0.0
O29 O 0.09135 0.96883 0.0928 0.0
O30 O 0.13831 0.1904 0.96445 0.0
O31 O 0.11015 0.41871 0.9948 0.0
H32 H -0.06104 0.16024 0.23981 0.0
H33 H 0.77926 0.11644 0.33844 0.0
H34 H 0.72507 0.60833 0.40825 0.0
H35 H -0.00773 0.67022 0.27009 0.0
H36 H 0.40375 0.32356 0.91017 0.0
H37 H 0.56347 0.36753 0.81153 0.0
H38 H 0.61765 0.87574 0.74158 0.0
H39 H 0.35045 0.81362 0.8797 0.0
Tb40 Tb 0.62659 0.84589 0.09324 0.0
Tb41 Tb 0.71613 0.6381 0.05659 0.0
C42 C 0.48578 0.94647 0.17653 0.0
C43 C 0.48241 0.91619 0.24704 0.0
C44 C 0.41617 0.75418 0.26971 0.0
C45 C 0.30322 0.72739 0.32928 0.0
C46 C 0.23647 0.8562 0.38048 0.0
C47 C 0.27212 0.03295 0.37426 0.0
C48 C 0.44744 0.07195 0.28772 0.0
C49 C 0.8561 0.95165 0.07308 0.0
C50 C 0.71513 0.66165 0.20172 0.0
C51 C 0.85678 0.53712 0.97334 0.0
C52 C 0.86029 0.5676 0.90284 0.0
C53 C -0.07346 0.72967 0.88023 0.0
C54 C 0.0395 0.75657 0.82067 0.0
C55 C 0.10625 0.62783 0.76942 0.0
C56 C 0.07059 0.45107 0.77558 0.0
C57 C 0.89527 0.41193 0.86211 0.0
C58 C 0.48641 0.533 0.077 0.0
C59 C 0.62762 0.82222 0.94809 0.0
O60 O 0.44938 0.84248 0.13718 0.0
O61 O 0.57713 0.02479 0.15351 0.0
O62 O 0.82899 0.82495 0.0965 0.0
O63 O 0.75106 0.01577 0.05743 0.0
O64 O 0.70458 0.79351 0.18534 0.0
O65 O 0.73247 0.56516 0.15502 0.0
O66 O 0.89346 0.64085 1.01276 0.0
O67 O 0.76516 0.4591 0.99628 0.0
O68 O 0.51397 0.65915 1.05316 0.0
O69 O 0.59135 0.46884 0.09279 0.0
O70 O 0.63826 0.69038 0.96445 0.0
O71 O 0.61023 0.9187 0.99479 0.0
H72 H 0.439 0.6602 0.23984 0.0
H73 H 0.2793 0.61645 0.33847 0.0
H74 H 0.22512 0.10836 0.40824 0.0
H75 H 0.49231 0.1702 0.27008 0.0
H76 H 0.90372 0.82359 0.91015 0.0
H77 H 0.06343 0.86753 0.81151 0.0
H78 H 0.11761 0.37572 0.74159 0.0
H79 H 0.85041 0.31365 0.87971 0.0
Tb80 Tb 0.12657 0.63801 0.55656 0.0
Tb81 Tb 0.21615 0.84591 0.59333 0.0
C82 C -0.01412 0.53767 0.47317 0.0
C83 C -0.01743 0.56807 0.40266 0.0
C84 C 0.9161 0.73003 0.38005 0.0
C85 C 0.8029 0.75675 0.32059 0.0
C86 C 0.73607 0.62786 0.26946 0.0
C87 C 0.77193 0.45113 0.27561 0.0
C88 C -0.05237 0.41229 0.362 0.0
C89 C 0.3561 0.53235 0.57687 0.0
C90 C 0.21537 0.8224 0.4482 0.0
C91 C 0.35668 0.94665 0.67668 0.0
C92 C 0.36013 0.91605 0.74717 0.0
C93 C 0.42661 0.75402 0.76972 0.0
C94 C 0.53982 0.7272 0.82918 0.0
C95 C 0.60665 0.85602 0.88035 0.0
C96 C 0.57078 0.03275 0.87426 0.0
C97 C 0.39509 0.07174 0.78789 0.0
C98 C -0.0136 0.9509 0.57276 0.0
C99 C 0.12738 0.66163 0.70171 0.0
O100 O -0.05058 0.64158 0.51255 0.0
O101 O 0.07718 0.45924 0.4962 0.0
O102 O 0.32895 0.65902 0.55342 0.0
O103 O 0.25105 0.46812 0.59237 0.0
O104 O 0.20468 0.69053 0.46452 0.0
O105 O 0.2327 0.91887 0.49491 0.0
O106 O 0.39342 0.84299 0.63723 0.0
O107 O 0.26511 0.02477 0.65372 0.0
O108 O 0.01401 0.82479 0.59664 0.0
O109 O 0.09136 0.01518 0.55713 0.0
O110 O 0.13816 0.79349 0.6854 0.0
O111 O 0.11 0.56518 0.65499 0.0
H112 H -0.06104 0.82402 0.40991 0.0
H113 H 0.77884 0.86766 0.31141 0.0
H114 H 0.72488 0.37571 0.24166 0.0
H115 H -0.00734 0.31407 0.37959 0.0
H116 H 0.40375 0.66009 0.73982 0.0
H117 H 0.56388 0.61627 0.83833 0.0
H118 H 0.61784 0.10813 0.90822 0.0
H119 H 0.35005 0.16999 0.77034 0.0
Tb120 Tb 0.6266 0.13806 0.55657 0.0
Tb121 Tb 0.71612 0.34585 0.59331 0.0
C122 C 0.48589 0.03776 0.47317 0.0
C123 C 0.48261 0.0681 0.40266 0.0
C124 C 0.41614 0.23005 0.38003 0.0
C125 C 0.30294 0.25674 0.32057 0.0
C126 C 0.23611 0.12784 0.26945 0.0
C127 C 0.27197 0.95112 0.27562 0.0
C128 C 0.44767 0.9123 0.36201 0.0
C129 C 0.85609 0.03229 0.57677 0.0
C130 C 0.71535 0.32238 0.44819 0.0
C131 C 0.85667 0.44655 0.67668 0.0
C132 C 0.8601 0.41601 0.74718 0.0
C133 C -0.07343 0.254 0.76974 0.0
C134 C 0.03978 0.2272 0.8292 0.0
C135 C 0.10661 0.35604 0.88036 0.0
C136 C 0.07074 0.53276 0.87425 0.0
C137 C 0.89505 0.57173 0.78788 0.0
C138 C 0.48641 0.45096 0.57286 0.0
C139 C 0.62741 0.16165 0.70172 0.0
O140 O 0.44948 0.14174 0.51253 0.0
O141 O 0.57714 0.95929 0.49623 0.0
O142 O 0.82899 0.15903 0.55338 0.0
O143 O 0.75106 0.96813 0.59236 0.0
O144 O 0.70473 0.19051 0.46453 0.0
O145 O 0.73262 0.41886 0.4949 0.0
O146 O 0.89336 0.34283 0.63725 0.0
O147 O 0.76516 0.52473 0.65369 0.0
O148 O 0.51397 0.32478 0.59667 0.0
O149 O 0.59135 0.51517 0.55713 0.0
O150 O 0.63811 0.2935 0.68539 0.0
O151 O 0.61008 0.06518 0.655 0.0
H152 H 0.439 0.32406 0.40988 0.0
H153 H 0.27888 0.36766 0.31138 0.0
H154 H 0.22493 0.87568 0.24167 0.0
H155 H 0.4927 0.8141 0.37961 0.0
H156 H 0.90371 0.16005 0.73985 0.0
H157 H 0.06384 0.11627 0.83835 0.0
H158 H 0.1178 0.60815 0.90822 0.0
H159 H 0.85001 0.66996 0.77032 0.0
loop_
_geom_bond_atom_site_label_1
_geom_bond_atom_site_label_2
_geom_bond_distance
_geom_bond_site_symmetry_2
_ccdc_geom_bond_type
Tb0 C2 2.809 . S
Tb0 O20 2.484 1_455 S
Tb0 O21 2.440 . S
Tb0 O22 2.658 . S
Tb0 O23 2.409 . S
Tb0 O24 2.378 . S
Tb0 O28 2.325 . S
Tb0 O31 2.341 1_554 S
Tb1 C11 2.809 . S
Tb1 O22 2.325 1_556 S
Tb1 O25 2.341 1_556 S
Tb1 O26 2.484 . S
Tb1 O27 2.440 1_545 S
Tb1 O28 2.658 1_556 S
Tb1 O29 2.409 1_545 S
Tb1 O30 2.378 . S
C2 Tb0 2.809 . S
C2 C3 1.514 1_455 S
C2 O20 1.248 1_455 S
C2 O21 1.266 . S
C3 C2 1.514 1_655 S
C3 C4 1.359 . S
C3 C8 1.348 . S
C4 C3 1.359 . S
C4 C5 1.380 . S
C4 H32 0.929 . S
C5 C4 1.380 . S
C5 C6 1.347 . S
C5 H33 0.931 . S
C6 C5 1.347 . S
C6 C7 1.369 . S
C7 C6 1.369 . S
C7 C8 1.408 . S
C7 H34 0.930 . S
C8 C3 1.348 . S
C8 C7 1.408 . S
C8 H35 0.930 1_655 S
C9 O22 1.281 . S
C9 O23 1.254 . S
C10 O24 1.236 . S
C10 O25 1.266 . S
C11 Tb1 2.809 . S
C11 C12 1.514 . S
C11 O26 1.248 . S
C11 O27 1.266 1_545 S
C12 C11 1.514 . S
C12 C13 1.359 . S
C12 C17 1.348 1_545 S
C13 C12 1.359 . S
C13 C14 1.380 . S
C13 H36 0.929 . S
C14 C13 1.380 . S
C14 C15 1.347 . S
C14 H37 0.931 . S
C15 C14 1.347 . S
C15 C16 1.369 1_545 S
C16 C15 1.369 1_565 S
C16 C17 1.408 . S
C16 H38 0.930 . S
C17 C12 1.348 1_565 S
C17 C16 1.408 . S
C17 H39 0.930 . S
C18 O28 1.283 . S
C18 O29 1.253 1_544 S
C19 O30 1.236 . S
C19 O31 1.266 . S
O20 Tb0 2.484 1_655 S
O20 C2 1.248 1_655 S
O21 Tb0 2.440 . S
O21 C2 1.266 . S
O22 Tb0 2.658 . S
O22 Tb1 2.325 1_554 S
O22 C9 1.281 . S
O23 Tb0 2.409 . S
O23 C9 1.254 . S
O24 Tb0 2.378 . S
O24 C10 1.236 . S
O25 Tb1 2.341 1_554 S
O25 C10 1.266 . S
O26 Tb1 2.484 . S
O26 C11 1.248 . S
O27 Tb1 2.440 1_565 S
O27 C11 1.266 1_565 S
O28 Tb0 2.325 . S
O28 Tb1 2.658 1_554 S
O28 C18 1.283 . S
O29 Tb1 2.409 1_565 S
O29 C18 1.253 1_566 S
O30 Tb1 2.378 . S
O30 C19 1.236 . S
O31 Tb0 2.341 1_556 S
O31 C19 1.266 . S
H32 C4 0.929 . S
H33 C5 0.931 . S
H34 C7 0.930 . S
H35 C8 0.930 1_455 S
H36 C13 0.929 . S
H37 C14 0.931 . S
H38 C16 0.930 . S
H39 C17 0.930 . S
Tb40 C42 2.809 . S
Tb40 O60 2.484 . S
Tb40 O61 2.440 1_565 S
Tb40 O62 2.658 . S
Tb40 O63 2.409 1_565 S
Tb40 O64 2.378 . S
Tb40 O68 2.325 . S
Tb40 O71 2.341 1_554 S
Tb41 C51 2.809 . S
Tb41 O62 2.325 1_556 S
Tb41 O65 2.341 1_556 S
Tb41 O66 2.484 1_655 S
Tb41 O67 2.440 . S
Tb41 O68 2.658 1_556 S
Tb41 O69 2.409 . S
Tb41 O70 2.378 . S
C42 Tb40 2.809 . S
C42 C43 1.514 . S
C42 O60 1.248 . S
C42 O61 1.266 1_565 S
C43 C42 1.514 . S
C43 C44 1.359 . S
C43 C48 1.348 1_565 S
C44 C43 1.359 . S
C44 C45 1.380 . S
C44 H72 0.929 . S
C45 C44 1.380 . S
C45 C46 1.347 . S
C45 H73 0.931 . S
C46 C45 1.347 . S
C46 C47 1.369 1_565 S
C47 C46 1.369 1_545 S
C47 C48 1.408 . S
C47 H74 0.930 . S
C48 C43 1.348 1_545 S
C48 C47 1.408 . S
C48 H75 0.930 . S
C49 O62 1.281 . S
C49 O63 1.254 1_565 S
C50 O64 1.236 . S
C50 O65 1.266 . S
C51 Tb41 2.809 . S
C51 C52 1.514 1_655 S
C51 O66 1.248 1_655 S
C51 O67 1.266 . S
C52 C51 1.514 1_455 S
C52 C53 1.359 . S
C52 C57 1.348 . S
C53 C52 1.359 . S
C53 C54 1.380 . S
C53 H76 0.929 . S
C54 C53 1.380 . S
C54 C55 1.347 . S
C54 H77 0.931 . S
C55 C54 1.347 . S
C55 C56 1.369 . S
C56 C55 1.369 . S
C56 C57 1.408 . S
C56 H78 0.930 . S
C57 C52 1.348 . S
C57 C56 1.408 . S
C57 H79 0.930 1_455 S
C58 O68 1.281 . S
C58 O69 1.254 1_554 S
C59 O70 1.236 . S
C59 O71 1.266 . S
O60 Tb40 2.484 . S
O60 C42 1.248 . S
O61 Tb40 2.440 1_545 S
O61 C42 1.266 1_545 S
O62 Tb40 2.658 . S
O62 Tb41 2.325 1_554 S
O62 C49 1.281 . S
O63 Tb40 2.409 1_545 S
O63 C49 1.254 1_545 S
O64 Tb40 2.378 . S
O64 C50 1.236 . S
O65 Tb41 2.341 1_554 S
O65 C50 1.266 . S
O66 Tb41 2.484 1_455 S
O66 C51 1.248 1_455 S
O67 Tb41 2.440 . S
O67 C51 1.266 . S
O68 Tb40 2.325 . S
O68 Tb41 2.658 1_554 S
O68 C58 1.281 . S
O69 Tb41 2.409 . S
O69 C58 1.254 1_556 S
O70 Tb41 2.378 . S
O70 C59 1.236 . S
O71 Tb40 2.341 1_556 S
O71 C59 1.266 . S
H72 C44 0.929 . S
H73 C45 0.931 . S
H74 C47 0.930 . S
H75 C48 0.930 . S
H76 C53 0.929 . S
H77 C54 0.931 . S
H78 C56 0.930 . S
H79 C57 0.930 1_655 S
Tb80 C82 2.809 . S
Tb80 O100 2.484 1_455 S
Tb80 O101 2.440 . S
Tb80 O102 2.658 . S
Tb80 O103 2.409 . S
Tb80 O104 2.378 . S
Tb80 O108 2.325 . S
Tb80 O111 2.341 . S
Tb81 C91 2.809 . S
Tb81 O102 2.325 . S
Tb81 O105 2.341 . S
Tb81 O106 2.484 . S
Tb81 O107 2.440 1_565 S
Tb81 O108 2.658 . S
Tb81 O109 2.409 1_565 S
Tb81 O110 2.378 . S
C82 Tb80 2.809 . S
C82 C83 1.514 1_455 S
C82 O100 1.248 1_455 S
C82 O101 1.266 . S
C83 C82 1.514 1_655 S
C83 C84 1.359 . S
C83 C88 1.348 . S
C84 C83 1.359 . S
C84 C85 1.380 . S
C84 H112 0.929 . S
C85 C84 1.380 . S
C85 C86 1.347 . S
C85 H113 0.931 . S
C86 C85 1.347 . S
C86 C87 1.369 . S
C87 C86 1.369 . S
C87 C88 1.408 . S
C87 H114 0.930 . S
C88 C83 1.348 . S
C88 C87 1.408 . S
C88 H115 0.930 1_655 S
C89 O102 1.281 . S
C89 O103 1.254 . S
C90 O104 1.236 . S
C90 O105 1.266 . S
C91 Tb81 2.809 . S
C91 C92 1.514 . S
C91 O106 1.248 . S
C91 O107 1.266 1_565 S
C92 C91 1.514 . S
C92 C93 1.359 . S
C92 C97 1.348 1_565 S
C93 C92 1.359 . S
C93 C94 1.380 . S
C93 H116 0.929 . S
C94 C93 1.380 . S
C94 C95 1.347 . S
C94 H117 0.931 . S
C95 C94 1.347 . S
C95 C96 1.369 1_565 S
C96 C95 1.369 1_545 S
C96 C97 1.408 . S
C96 H118 0.930 . S
C97 C92 1.348 1_545 S
C97 C96 1.408 . S
C97 H119 0.930 . S
C98 O108 1.283 . S
C98 O109 1.253 1_565 S
C99 O110 1.236 . S
C99 O111 1.266 . S
O100 Tb80 2.484 1_655 S
O100 C82 1.248 1_655 S
O101 Tb80 2.440 . S
O101 C82 1.266 . S
O102 Tb80 2.658 . S
O102 Tb81 2.325 . S
O102 C89 1.281 . S
O103 Tb80 2.409 . S
O103 C89 1.254 . S
O104 Tb80 2.378 . S
O104 C90 1.236 . S
O105 Tb81 2.341 . S
O105 C90 1.266 . S
O106 Tb81 2.484 . S
O106 C91 1.248 . S
O107 Tb81 2.440 1_545 S
O107 C91 1.266 1_545 S
O108 Tb80 2.325 . S
O108 Tb81 2.658 . S
O108 C98 1.283 . S
O109 Tb81 2.409 1_545 S
O109 C98 1.253 1_545 S
O110 Tb81 2.378 . S
O110 C99 1.236 . S
O111 Tb80 2.341 . S
O111 C99 1.266 . S
H112 C84 0.929 . S
H113 C85 0.931 . S
H114 C87 0.930 . S
H115 C88 0.930 1_455 S
H116 C93 0.929 . S
H117 C94 0.931 . S
H118 C96 0.930 . S
H119 C97 0.930 . S
Tb120 C122 2.809 . S
Tb120 O140 2.484 . S
Tb120 O141 2.440 1_545 S
Tb120 O142 2.658 . S
Tb120 O143 2.409 1_545 S
Tb120 O144 2.378 . S
Tb120 O148 2.325 . S
Tb120 O151 2.341 . S
Tb121 C131 2.809 . S
Tb121 O142 2.325 . S
Tb121 O145 2.341 . S
Tb121 O146 2.484 1_655 S
Tb121 O147 2.440 . S
Tb121 O148 2.658 . S
Tb121 O149 2.409 . S
Tb121 O150 2.378 . S
C122 Tb120 2.809 . S
C122 C123 1.514 . S
C122 O140 1.248 . S
C122 O141 1.266 1_545 S
C123 C122 1.514 . S
C123 C124 1.359 . S
C123 C128 1.348 1_545 S
C124 C123 1.359 . S
C124 C125 1.380 . S
C124 H152 0.929 . S
C125 C124 1.380 . S
C125 C126 1.347 . S
C125 H153 0.931 . S
C126 C125 1.347 . S
C126 C127 1.369 1_545 S
C127 C126 1.369 1_565 S
C127 C128 1.408 . S
C127 H154 0.930 . S
C128 C123 1.348 1_565 S
C128 C127 1.408 . S
C128 H155 0.930 . S
C129 O142 1.281 . S
C129 O143 1.254 1_545 S
C130 O144 1.236 . S
C130 O145 1.266 . S
C131 Tb121 2.809 . S
C131 C132 1.514 1_655 S
C131 O146 1.248 1_655 S
C131 O147 1.266 . S
C132 C131 1.514 1_455 S
C132 C133 1.359 . S
C132 C137 1.348 . S
C133 C132 1.359 . S
C133 C134 1.380 . S
C133 H156 0.929 . S
C134 C133 1.380 . S
C134 C135 1.347 . S
C134 H157 0.931 . S
C135 C134 1.347 . S
C135 C136 1.369 . S
C136 C135 1.369 . S
C136 C137 1.408 . S
C136 H158 0.930 . S
C137 C132 1.348 . S
C137 C136 1.408 . S
C137 H159 0.930 1_455 S
C138 O148 1.281 . S
C138 O149 1.254 . S
C139 O150 1.236 . S
C139 O151 1.266 . S
O140 Tb120 2.484 . S
O140 C122 1.248 . S
O141 Tb120 2.440 1_565 S
O141 C122 1.266 1_565 S
O142 Tb120 2.658 . S
O142 Tb121 2.325 . S
O142 C129 1.281 . S
O143 Tb120 2.409 1_565 S
O143 C129 1.254 1_565 S
O144 Tb120 2.378 . S
O144 C130 1.236 . S
O145 Tb121 2.341 . S
O145 C130 1.266 . S
O146 Tb121 2.484 1_455 S
O146 C131 1.248 1_455 S
O147 Tb121 2.440 . S
O147 C131 1.266 . S
O148 Tb120 2.325 . S
O148 Tb121 2.658 . S
O148 C138 1.281 . S
O149 Tb121 2.409 . S
O149 C138 1.254 . S
O150 Tb121 2.378 . S
O150 C139 1.236 . S
O151 Tb120 2.341 . S
O151 C139 1.266 . S
H152 C124 0.929 . S
H153 C125 0.931 . S
H154 C127 0.930 . S
H155 C128 0.930 . S
H156 C133 0.929 . S
H157 C134 0.931 . S
H158 C136 0.930 . S
H159 C137 0.930 1_655 S
C58 C9 2.100 . S
C89 C138 2.100 . S
C18 C49 2.100 1_445 S
C129 C98 2.100 1_645 S
C126 C10 2.087 . S
C46 C90 2.087 . S
C59 C95 2.083 . S
C139 C15 2.083 . S
C50 C86 2.087 . S
C130 C6 2.087 . S
C135 C19 2.083 . S
C99 C55 2.083 . S
