# Generated by pormake.
# Topology lcy, (6)-cn, num edge types: 1
# Building blocks:
#     Node 0, Type 0, BuildingBlock: LEVNOQ01_clean_sbu_1, # of connection points: 6
#     Node 1, Type 0, BuildingBlock: LEVNOQ01_clean_sbu_1, # of connection points: 6
#     Node 2, Type 0, BuildingBlock: LEVNOQ01_clean_sbu_1, # of connection points: 6
#     Node 3, Type 0, BuildingBlock: LEVNOQ01_clean_sbu_1, # of connection points: 6
#     Edge 4, Type (0, 0), None
#     Edge 5, Type (0, 0), None
#     Edge 6, Type (0, 0), None
#     Edge 7, Type (0, 0), None
#     Edge 8, Type (0, 0), None
#     Edge 9, Type (0, 0), None
#     Edge 10, Type (0, 0), None
#     Edge 11, Type (0, 0), None
#     Edge 12, Type (0, 0), None
#     Edge 13, Type (0, 0), None
#     Edge 14, Type (0, 0), None
#     Edge 15, Type (0, 0), None
# Relax obj value: 0.347
# Max RMSD: 0.285
# Mean RMSD: 0.277
data_MOF--net-lcy--node1-LEVNOQ01_clean_sbu_1--edge1-none
_symmetry_space_group_name_H-M    P1
_symmetry_Int_Tables_number       1
_symmetry_cell_setting            triclinic
loop_
_symmetry_equiv_pos_as_xyz
'x, y, z'
_cell_length_a     12.386635
_cell_length_b     11.877368
_cell_length_c     12.703491
_cell_angle_alpha  89.90381
_cell_angle_beta   89.93904
_cell_angle_gamma 95.10482
loop_
_atom_site_label
_atom_site_type_symbol
_atom_site_fract_x
_atom_site_fract_y
_atom_site_fract_z
_atom_type_partial_charge
O0 O 0.52142 0.3131 0.43675 0.0
Mg1 Mg 0.37848 0.39393 0.39305 0.0
O2 O 0.39165 0.19261 0.48525 0.0
Mg3 Mg 0.30441 0.27473 0.34255 0.0
O4 O 0.24505 0.42105 0.46832 0.0
O5 O 0.40475 0.5036 0.51666 0.0
O6 O 0.22058 0.36002 0.1983 0.0
O7 O 0.13667 0.19587 0.40151 0.0
Mg8 Mg 0.19343 0.10208 0.1788 0.0
O9 O 0.33713 0.10925 0.25705 0.0
O10 O 0.2058 0.23441 0.06912 0.0
O11 O 0.05698 0.08367 0.27898 0.0
O12 O 0.27889 -0.03398 0.15148 0.0
C13 C 0.47094 0.46178 0.2307 0.0
C14 C 0.49136 0.22729 0.49014 0.0
C15 C 0.30231 0.48953 0.52996 0.0
C16 C 0.2072 0.3354 0.1007 0.0
C17 C 0.05505 0.13355 0.36679 0.0
C18 C 0.35447 0.01626 0.20874 0.0
O19 O 0.39311 0.50893 0.2681 0.0
O20 O 0.47483 0.35711 0.25145 0.0
O21 O 0.77269 0.82427 0.52584 0.0
Mg22 Mg 0.83802 -0.03325 0.60965 0.0
O23 O 0.73383 -0.01437 0.46379 0.0
Mg24 Mg 0.81545 0.10967 0.6064 0.0
O25 O -0.01749 0.02228 0.65902 0.0
O26 O 0.90812 0.86048 0.72025 0.0
O27 O 0.8985 0.26264 0.69907 0.0
O28 O 0.73372 0.02765 0.76189 0.0
Mg29 Mg 0.69093 0.27541 0.7067 0.0
O30 O 0.66392 0.20087 0.56048 0.0
O31 O 0.80578 0.41114 0.67163 0.0
O32 O 0.73308 0.18931 0.84548 0.0
O33 O 0.52989 0.23601 0.66822 0.0
C34 C 0.96228 0.10889 0.43541 0.0
C35 C 0.73632 0.87968 0.4513 0.0
C36 C -0.00697 0.92768 0.70504 0.0
C37 C 0.8945 0.36997 0.69135 0.0
C38 C 0.73519 0.08343 0.84819 0.0
C39 C 0.56067 0.20149 0.57811 0.0
O40 O 0.9435 0.00952 0.47172 0.0
O41 O 0.91116 0.1876 0.47236 0.0
O42 O 0.39894 0.82303 0.77879 0.0
Mg43 Mg 0.26333 0.80164 0.6781 0.0
O44 O 0.32152 0.70693 0.89998 0.0
Mg45 Mg 0.15423 0.62736 0.84203 0.0
O46 O 0.11853 0.79238 0.75578 0.0
O47 O 0.17525 0.93566 0.6492 0.0
O48 O -0.01582 0.54594 0.75223 0.0
O49 O 0.06701 0.70734 -0.01434 0.0
Mg50 Mg 0.08172 0.50659 0.89204 0.0
O51 O 0.2155 0.48106 0.9671 0.0
O52 O 0.06473 0.39282 0.76665 0.0
O53 O 0.93879 0.58398 0.93882 0.0
O54 O 0.05644 0.39722 0.01617 0.0
C55 C 0.25418 0.56787 0.60046 0.0
C56 C 0.40209 0.77126 0.86569 0.0
C57 C 0.10007 0.88498 0.70694 0.0
C58 C -0.01295 0.44148 0.73063 0.0
C59 C 0.96807 0.6699 -0.00812 0.0
C60 C 0.1587 0.41283 0.02962 0.0
O61 O 0.25653 0.66906 0.56878 0.0
O62 O 0.23793 0.54267 0.69764 0.0
O63 O 0.72199 0.71996 0.34328 0.0
Mg64 Mg 0.75683 0.64103 0.19853 0.0
O65 O 0.7194 0.88213 0.26161 0.0
Mg66 Mg 0.64016 0.79743 0.10592 0.0
O67 O 0.79893 0.71817 0.05627 0.0
O68 O 0.9192 0.65437 0.16869 0.0
O69 O 0.54671 0.71861 -0.02891 0.0
O70 O 0.7206 0.92242 0.96329 0.0
Mg71 Mg 0.61593 0.93761 0.10898 0.0
O72 O 0.47165 0.8799 0.15883 0.0
O73 O 0.51124 0.89579 -0.02876 0.0
O74 O 0.68009 0.08232 0.02644 0.0
O75 O 0.54585 0.04082 0.22157 0.0
C76 C 0.56203 0.53537 0.19044 0.0
C77 C 0.71909 0.82563 0.34747 0.0
C78 C 0.89746 0.6961 0.07831 0.0
C79 C 0.49435 0.79666 0.9344 0.0
C80 C 0.71739 0.02825 0.95155 0.0
C81 C 0.46114 -0.02648 0.20619 0.0
O82 O 0.65087 0.49669 0.16727 0.0
O83 O 0.55646 0.64242 0.19809 0.0
loop_
_geom_bond_atom_site_label_1
_geom_bond_atom_site_label_2
_geom_bond_distance
_geom_bond_site_symmetry_2
_ccdc_geom_bond_type
O0 Mg1 1.990 . S
O0 C14 1.253 . S
Mg1 O0 1.990 . S
Mg1 O4 2.180 . S
Mg1 O5 2.117 . S
Mg1 O19 2.030 . S
O2 Mg3 2.072 . S
O2 C14 1.260 . S
Mg3 O2 2.072 . S
Mg3 O4 2.099 . S
Mg3 O6 2.079 . S
Mg3 O7 2.072 . S
Mg3 O9 2.099 . S
Mg3 O20 2.079 . S
O4 Mg1 2.180 . S
O4 Mg3 2.099 . S
O4 C15 1.279 . S
O5 Mg1 2.117 . S
O5 C15 1.250 . S
O6 Mg3 2.079 . S
O6 C16 1.264 . S
O7 Mg3 2.072 . S
O7 C17 1.260 . S
Mg8 O9 2.180 . S
Mg8 O10 2.030 . S
Mg8 O11 1.990 . S
Mg8 O12 2.117 . S
O9 Mg3 2.099 . S
O9 Mg8 2.180 . S
O9 C18 1.279 . S
O10 Mg8 2.030 . S
O10 C16 1.248 . S
O11 Mg8 1.990 . S
O11 C17 1.253 . S
O12 Mg8 2.117 . S
O12 C18 1.250 . S
C13 O19 1.248 . S
C13 O20 1.264 . S
C14 O0 1.253 . S
C14 O2 1.260 . S
C15 O4 1.279 . S
C15 O5 1.250 . S
C16 O6 1.264 . S
C16 O10 1.248 . S
C17 O7 1.260 . S
C17 O11 1.253 . S
C18 O9 1.279 . S
C18 O12 1.250 . S
O19 Mg1 2.030 . S
O19 C13 1.248 . S
O20 Mg3 2.079 . S
O20 C13 1.264 . S
O21 Mg22 1.990 1_655 S
O21 C35 1.253 . S
Mg22 O21 1.990 1_455 S
Mg22 O25 2.180 1_465 S
Mg22 O26 2.117 . S
Mg22 O40 2.030 1_565 S
O23 Mg24 2.072 . S
O23 C35 1.260 1_545 S
Mg24 O23 2.072 . S
Mg24 O25 2.099 . S
Mg24 O27 2.079 . S
Mg24 O28 2.072 . S
Mg24 O30 2.099 . S
Mg24 O41 2.079 . S
O25 Mg22 2.180 1_645 S
O25 Mg24 2.099 . S
O25 C36 1.279 1_645 S
O26 Mg22 2.117 . S
O26 C36 1.250 . S
O27 Mg24 2.079 . S
O27 C37 1.264 . S
O28 Mg24 2.072 . S
O28 C38 1.260 . S
Mg29 O30 2.180 . S
Mg29 O31 2.030 . S
Mg29 O32 1.990 . S
Mg29 O33 2.117 . S
O30 Mg24 2.099 . S
O30 Mg29 2.180 . S
O30 C39 1.279 . S
O31 Mg29 2.030 . S
O31 C37 1.248 . S
O32 Mg29 1.990 . S
O32 C38 1.253 . S
O33 Mg29 2.117 . S
O33 C39 1.250 . S
C34 O40 1.248 . S
C34 O41 1.264 1_455 S
C35 O21 1.253 . S
C35 O23 1.260 1_565 S
C36 O25 1.279 1_465 S
C36 O26 1.250 . S
C37 O27 1.264 . S
C37 O31 1.248 . S
C38 O28 1.260 . S
C38 O32 1.253 . S
C39 O30 1.279 . S
C39 O33 1.250 . S
O40 Mg22 2.030 1_545 S
O40 C34 1.248 . S
O41 Mg24 2.079 . S
O41 C34 1.264 1_655 S
O42 Mg43 1.990 . S
O42 C56 1.253 . S
Mg43 O42 1.990 . S
Mg43 O46 2.180 . S
Mg43 O47 2.117 . S
Mg43 O61 2.030 . S
O44 Mg45 2.072 . S
O44 C56 1.260 . S
Mg45 O44 2.072 . S
Mg45 O46 2.099 . S
Mg45 O48 2.079 1_455 S
Mg45 O49 2.072 1_455 S
Mg45 O51 2.099 . S
Mg45 O62 2.079 . S
O46 Mg43 2.180 . S
O46 Mg45 2.099 . S
O46 C57 1.279 . S
O47 Mg43 2.117 . S
O47 C57 1.250 . S
O48 Mg45 2.079 1_655 S
O48 C58 1.264 . S
O49 Mg45 2.072 1_655 S
O49 C59 1.260 1_556 S
Mg50 O51 2.180 1_654 S
Mg50 O52 2.030 1_554 S
Mg50 O53 1.990 . S
Mg50 O54 2.117 1_655 S
O51 Mg45 2.099 . S
O51 Mg50 2.180 1_456 S
O51 C60 1.279 1_556 S
O52 Mg50 2.030 1_556 S
O52 C58 1.248 . S
O53 Mg50 1.990 . S
O53 C59 1.253 . S
O54 Mg50 2.117 1_455 S
O54 C60 1.250 . S
C55 O61 1.248 . S
C55 O62 1.264 . S
C56 O42 1.253 . S
C56 O44 1.260 . S
C57 O46 1.279 . S
C57 O47 1.250 . S
C58 O48 1.264 . S
C58 O52 1.248 . S
C59 O49 1.260 1_554 S
C59 O53 1.253 . S
C60 O51 1.279 1_554 S
C60 O54 1.250 . S
O61 Mg43 2.030 . S
O61 C55 1.248 . S
O62 Mg45 2.079 . S
O62 C55 1.264 . S
O63 Mg64 1.990 . S
O63 C77 1.253 . S
Mg64 O63 1.990 . S
Mg64 O67 2.180 . S
Mg64 O68 2.117 . S
Mg64 O82 2.030 . S
O65 Mg66 2.072 . S
O65 C77 1.260 . S
Mg66 O65 2.072 . S
Mg66 O67 2.099 . S
Mg66 O69 2.079 . S
Mg66 O70 2.072 1_554 S
Mg66 O72 2.099 . S
Mg66 O83 2.079 . S
O67 Mg64 2.180 . S
O67 Mg66 2.099 . S
O67 C78 1.279 . S
O68 Mg64 2.117 . S
O68 C78 1.250 . S
O69 Mg66 2.079 . S
O69 C79 1.264 1_554 S
O70 Mg66 2.072 1_556 S
O70 C80 1.260 1_565 S
Mg71 O72 2.180 1_546 S
Mg71 O73 2.030 1_545 S
Mg71 O74 1.990 . S
Mg71 O75 2.117 1_556 S
O72 Mg66 2.099 . S
O72 Mg71 2.180 1_564 S
O72 C81 1.279 1_565 S
O73 Mg71 2.030 1_565 S
O73 C79 1.248 . S
O74 Mg71 1.990 . S
O74 C80 1.253 . S
O75 Mg71 2.117 1_554 S
O75 C81 1.250 . S
C76 O82 1.248 . S
C76 O83 1.264 . S
C77 O63 1.253 . S
C77 O65 1.260 . S
C78 O67 1.279 . S
C78 O68 1.250 . S
C79 O69 1.264 1_556 S
C79 O73 1.248 . S
C80 O70 1.260 1_545 S
C80 O74 1.253 . S
C81 O72 1.279 1_545 S
C81 O75 1.250 . S
O82 Mg64 2.030 . S
O82 C76 1.248 . S
O83 Mg66 2.079 . S
O83 C76 1.264 . S
C60 C16 1.533 . S
C77 C35 1.517 . S
C55 C15 1.533 . S
C80 C38 1.517 . S
C34 C17 2.109 . S
C57 C36 0.750 . S
C56 C79 2.109 . S
C18 C81 0.750 . S
C39 C14 0.963 . S
C58 C37 1.281 . S
C59 C78 0.963 . S
C76 C13 1.281 . S
