# Generated by pormake.
# Topology cdl, (4)-cn, num edge types: 1
# Building blocks:
#     Node 0, Type 0, BuildingBlock: NAWXER_clean_sbu_0, # of connection points: 4
#     Node 1, Type 0, BuildingBlock: NAWXER_clean_sbu_0, # of connection points: 4
#     Node 2, Type 0, BuildingBlock: NAWXER_clean_sbu_0, # of connection points: 4
#     Node 3, Type 0, BuildingBlock: NAWXER_clean_sbu_0, # of connection points: 4
#     Edge 4, Type (0, 0), BuildingBlock: FUNLAD_clean_linker_0, # of connection points: 2
#     Edge 5, Type (0, 0), BuildingBlock: FUNLAD_clean_linker_0, # of connection points: 2
#     Edge 6, Type (0, 0), BuildingBlock: FUNLAD_clean_linker_0, # of connection points: 2
#     Edge 7, Type (0, 0), BuildingBlock: FUNLAD_clean_linker_0, # of connection points: 2
#     Edge 8, Type (0, 0), BuildingBlock: FUNLAD_clean_linker_0, # of connection points: 2
#     Edge 9, Type (0, 0), BuildingBlock: FUNLAD_clean_linker_0, # of connection points: 2
#     Edge 10, Type (0, 0), BuildingBlock: FUNLAD_clean_linker_0, # of connection points: 2
#     Edge 11, Type (0, 0), BuildingBlock: FUNLAD_clean_linker_0, # of connection points: 2
# Relax obj value: 0.000
# Max RMSD: 0.003
# Mean RMSD: 0.003
data_MOF--net-cdl--node1-NAWXER_clean_sbu_0--edge1-FUNLAD_clean_linker_0
_symmetry_space_group_name_H-M    P1
_symmetry_Int_Tables_number       1
_symmetry_cell_setting            triclinic
loop_
_symmetry_equiv_pos_as_xyz
'x, y, z'
_cell_length_a     17.244888
_cell_length_b     17.249643
_cell_length_c     68.614221
_cell_angle_alpha  96.839748
_cell_angle_beta   97.022329
_cell_angle_gamma 88.655694
loop_
_atom_site_label
_atom_site_type_symbol
_atom_site_fract_x
_atom_site_fract_y
_atom_site_fract_z
_atom_type_partial_charge
C0 C 0.25937 0.19579 0.13781 0.0
C1 C 0.2442 0.91325 0.13769 0.0
O2 O 0.31613 0.1479 0.13992 0.0
Zn3 Zn 0.25352 0.05464 0.13762 0.0
O4 O 0.18906 0.1705 0.1354 0.0
Zn5 Zn 0.12959 0.06128 0.13337 0.0
O6 O 0.07011 0.07557 0.15557 0.0
O7 O 0.19756 0.07248 0.16433 0.0
O8 O 0.17704 0.94657 0.13533 0.0
O9 O 0.30554 0.95414 0.13941 0.0
O10 O 0.20166 0.04661 0.1072 0.0
O11 O 0.07376 0.05384 0.10713 0.0
C12 C 0.12775 0.07903 0.16907 0.0
C13 C 0.13287 0.04748 0.09765 0.0
C14 C 0.23223 0.92718 0.6309 0.0
C15 C 0.94705 0.93984 0.62663 0.0
O16 O 0.18504 0.87042 0.62864 0.0
Zn17 Zn 0.08955 0.9321 0.62891 0.0
O18 O 0.20537 0.99733 0.63249 0.0
Zn19 Zn 0.09401 0.05547 0.63236 0.0
O20 O 0.09993 0.11438 0.65808 0.0
O21 O 0.09706 0.98716 0.6591 0.0
O22 O 0.97899 1.00721 0.62888 0.0
O23 O 0.98994 0.87884 0.62594 0.0
O24 O 0.08417 0.9853 0.60169 0.0
O25 O 0.0904 0.11277 0.60996 0.0
C26 C 0.10007 0.05695 0.66806 0.0
C27 C 0.08505 0.05464 0.59665 0.0
C28 C 0.90474 0.22726 0.87802 0.0
C29 C 0.91857 0.94195 0.87334 0.0
O30 O 0.97485 0.20087 0.88096 0.0
Zn31 Zn 0.03331 0.08979 0.88193 0.0
O32 O 0.84816 0.17968 0.87467 0.0
Zn33 Zn 0.91003 0.08458 0.8759 0.0
O34 O 0.95555 0.09039 0.9068 0.0
O35 O 0.08391 0.09542 0.90862 0.0
O36 O 0.85742 0.98432 0.87138 0.0
O37 O 0.98567 0.97448 0.87717 0.0
O38 O 0.09844 0.08722 0.86104 0.0
O39 O 0.97243 0.08274 0.8503 0.0
C40 C 0.02281 0.09387 0.91719 0.0
C41 C 0.04382 0.08392 0.84676 0.0
C42 C 0.17269 0.24006 0.38736 0.0
C43 C 0.88798 0.2263 0.3828 0.0
O44 O 0.14702 0.16989 0.38446 0.0
Zn45 Zn 0.03675 0.11112 0.38085 0.0
O46 O 0.1246 0.29686 0.38887 0.0
Zn47 Zn 0.03053 0.23478 0.38535 0.0
O48 O 0.04194 0.17785 0.41192 0.0
O49 O 0.0462 0.05089 0.40294 0.0
O50 O 0.92971 0.28731 0.38587 0.0
O51 O 0.92117 0.15903 0.38075 0.0
O52 O 0.03342 0.05589 0.35468 0.0
O53 O 0.02766 0.18394 0.3549 0.0
C54 C 0.04723 0.10779 0.41654 0.0
C55 C 0.02918 0.1154 0.34531 0.0
C56 C 0.20871 0.32997 0.13351 0.0
C57 C 0.27266 0.28035 0.13785 0.0
C58 C 0.21926 0.40978 0.13356 0.0
C59 C 0.29408 0.44266 0.13827 0.0
C60 C 0.35847 0.393 0.14213 0.0
C61 C 0.34791 0.31254 0.14201 0.0
C62 C 0.30584 0.52805 0.13856 0.0
C63 C 0.2499 0.58055 0.14322 0.0
C64 C 0.2527 0.6657 0.14175 0.0
C65 C 0.1818 0.70738 0.14114 0.0
C66 C 0.17956 0.78719 0.13965 0.0
C67 C 0.24847 0.82807 0.13894 0.0
H68 H 0.37821 0.67668 0.14188 0.0
C69 C 0.31996 0.78688 0.13974 0.0
C70 C 0.32215 0.70627 0.14108 0.0
H71 H 0.37414 0.81685 0.13933 0.0
H72 H 0.15005 0.30717 0.12988 0.0
H73 H 0.16847 0.4452 0.12958 0.0
H74 H 0.41688 0.41662 0.14549 0.0
H75 H 0.39847 0.27576 0.14527 0.0
H76 H 0.36088 0.54706 0.13468 0.0
H77 H 0.19659 0.55979 0.14772 0.0
H78 H 0.12739 0.67792 0.14166 0.0
H79 H 0.12343 0.81689 0.13919 0.0
C80 C 0.36826 0.97803 0.63462 0.0
C81 C 0.31764 0.91389 0.63124 0.0
C82 C 0.44844 0.96737 0.63418 0.0
C83 C 0.48031 0.89217 0.63013 0.0
C84 C 0.43025 0.82767 0.62741 0.0
C85 C 0.34956 0.83837 0.62785 0.0
C86 C 0.56565 0.88016 0.62918 0.0
C87 C 0.60956 0.93411 0.62306 0.0
C88 C 0.6961 0.93087 0.62349 0.0
C89 C 0.7342 1.00037 0.62184 0.0
C90 C 0.81524 1.00257 0.62271 0.0
C91 C 0.86077 0.93496 0.62505 0.0
H92 H 0.71435 0.80731 0.62643 0.0
C93 C 0.82296 0.86459 0.62623 0.0
C94 C 0.74131 0.86248 0.62551 0.0
H95 H 0.85645 0.81141 0.62796 0.0
H96 H 0.34604 0.03697 0.63759 0.0
H97 H 0.48527 0.01837 0.63725 0.0
H98 H 0.45341 0.76903 0.62457 0.0
H99 H 0.31222 0.78765 0.62531 0.0
H100 H 0.59183 0.82628 0.63364 0.0
H101 H 0.58079 0.98605 0.618 0.0
H102 H 0.70116 0.0539 0.62017 0.0
H103 H 0.84217 0.05773 0.62161 0.0
C104 C 0.95514 0.36361 0.88237 0.0
C105 C 0.89142 0.31255 0.87799 0.0
C106 C 0.94463 0.44363 0.88156 0.0
C107 C 0.87008 0.4749 0.87616 0.0
C108 C 0.80583 0.4244 0.87243 0.0
C109 C 0.81637 0.34389 0.87323 0.0
C110 C 0.85824 0.56008 0.87487 0.0
C111 C 0.9142 0.60446 0.86976 0.0
C112 C 0.91066 0.69093 0.87001 0.0
C113 C 0.98102 0.72974 0.86968 0.0
C114 C 0.98288 0.81078 0.87055 0.0
C115 C 0.91412 0.85562 0.87157 0.0
H116 H 0.78542 0.70792 0.87052 0.0
C117 C 0.84298 0.81708 0.87137 0.0
C118 C 0.84118 0.73543 0.87065 0.0
H119 H 0.78894 0.85001 0.87205 0.0
H120 H 0.01364 0.34185 0.88638 0.0
H121 H 0.99521 0.4808 0.88542 0.0
H122 H 0.74759 0.44708 0.86854 0.0
H123 H 0.76595 0.30623 0.86989 0.0
H124 H 0.80274 0.58579 0.87824 0.0
H125 H 0.96794 0.5762 0.86578 0.0
H126 H 0.03542 0.69727 0.86908 0.0
H127 H 0.03869 0.83828 0.87052 0.0
C128 C 0.30945 0.18896 0.38794 0.0
C129 C 0.25784 0.25324 0.38847 0.0
C130 C 0.38947 0.19948 0.3882 0.0
C131 C 0.42021 0.27466 0.38877 0.0
C132 C 0.36915 0.33929 0.38996 0.0
C133 C 0.2886 0.32874 0.38972 0.0
C134 C 0.50542 0.2865 0.38865 0.0
C135 C 0.55034 0.23253 0.37934 0.0
C136 C 0.63686 0.23551 0.38011 0.0
C137 C 0.67618 0.16587 0.37446 0.0
C138 C 0.75729 0.16352 0.37528 0.0
C139 C 0.80164 0.23113 0.38159 0.0
H140 H 0.65295 0.35913 0.39031 0.0
C141 C 0.76259 0.3016 0.38688 0.0
C142 C 0.68089 0.30385 0.3862 0.0
H143 H 0.79514 0.35478 0.39172 0.0
H144 H 0.28814 0.13003 0.38731 0.0
H145 H 0.42706 0.14835 0.38819 0.0
H146 H 0.39144 0.39791 0.39073 0.0
H147 H 0.25047 0.37954 0.39028 0.0
H148 H 0.53069 0.34019 0.3964 0.0
H149 H 0.52251 0.18078 0.3711 0.0
H150 H 0.64406 0.11237 0.36962 0.0
H151 H 0.78519 0.10827 0.37096 0.0
C152 C 0.1022 0.09039 0.95028 0.0
C153 C 0.02886 0.09348 0.93891 0.0
C154 C 0.10767 0.08703 0.97067 0.0
C155 C 0.03974 0.08642 0.98015 0.0
C156 C 0.96663 0.09151 0.96886 0.0
C157 C 0.96114 0.09452 0.94847 0.0
C158 C 0.04274 0.08278 1.0018 0.0
C159 C 0.10263 0.0502 0.01262 0.0
C160 C 0.10739 0.04761 0.03436 0.0
C161 C 0.18108 0.03756 0.04499 0.0
C162 C 0.18909 0.0364 0.06546 0.0
C163 C 0.12335 0.04457 0.07581 0.0
H164 H 0.98297 0.05896 0.03699 0.0
C165 C 0.04919 0.05242 0.06514 0.0
C166 C 0.04117 0.05379 0.04463 0.0
H167 H 0.99726 0.05822 0.07264 0.0
H168 H 0.15556 0.09017 0.94342 0.0
H169 H 0.16524 0.08607 0.97891 0.0
H170 H 0.9134 0.09209 0.97579 0.0
H171 H 0.90368 0.0973 0.94019 0.0
H172 H 0.99307 0.10704 0.00882 0.0
H173 H 0.15178 0.02552 1.00543 0.0
H174 H 0.23302 0.03182 0.03748 0.0
H175 H 0.24711 0.02985 0.07317 0.0
C176 C 0.0599 0.1574 0.4526 0.0
C177 C 0.05471 0.09402 0.43761 0.0
C178 C 0.06706 0.14504 0.47251 0.0
C179 C 0.06846 0.06873 0.47792 0.0
C180 C 0.0643 1.00543 0.46292 0.0
C181 C 0.05728 0.01782 0.443 0.0
C182 C 0.07645 0.05261 0.49894 0.0
C183 C 0.05823 0.10495 0.51398 0.0
C184 C 0.06657 0.08957 0.53504 0.0
C185 C 0.07114 0.15355 0.54984 0.0
C186 C 0.07771 0.14231 0.56981 0.0
C187 C 0.07918 0.0666 0.57548 0.0
H188 H 0.06175 0.96269 0.52984 0.0
C189 C 0.07399 1.00243 0.5607 0.0
C190 C 0.06756 0.01367 0.5407 0.0
H191 H 0.07429 0.9433 0.56454 0.0
H192 H 0.05903 0.2169 0.449 0.0
H193 H 0.07294 0.19564 0.48348 0.0
H194 H 0.06599 0.94602 0.46662 0.0
H195 H 0.05376 0.96764 0.43183 0.0
H196 H 0.09756 0.99496 0.50193 0.0
H197 H 0.03691 0.1625 0.51098 0.0
H198 H 0.06992 0.21267 0.54594 0.0
H199 H 0.08127 0.1931 0.5808 0.0
C200 C 0.0389 0.17179 0.31374 0.0
C201 C 0.0283 0.10644 0.32354 0.0
C202 C 0.04137 0.16349 0.29332 0.0
C203 C 0.03297 0.08957 0.28221 0.0
C204 C 0.0198 0.02466 0.29187 0.0
C205 C 0.01825 0.03279 0.31237 0.0
C206 C 0.03747 0.07886 0.26057 0.0
C207 C 0.08501 0.12189 0.25205 0.0
C208 C 0.09395 0.10965 0.23066 0.0
C209 C 0.16619 0.12586 0.22468 0.0
C210 C 0.17707 0.11548 0.2047 0.0
C211 C 0.11529 0.09031 0.19018 0.0
H212 H 0.9748 0.07351 0.22026 0.0
C213 C 0.04233 0.07557 0.1961 0.0
C214 C 0.03181 0.08471 0.21617 0.0
H215 H 0.99357 0.05627 0.18525 0.0
H216 H 0.04633 0.22946 0.32187 0.0
H217 H 0.04933 0.21515 0.28626 0.0
H218 H 0.0124 0.96721 0.28361 0.0
H219 H 0.00936 0.98138 0.31945 0.0
H220 H 1.0053 0.03083 0.25174 0.0
H221 H 0.12316 0.16434 0.26129 0.0
H222 H 0.21476 0.1458 0.23553 0.0
H223 H 0.23385 0.12788 0.20062 0.0
C224 C 0.11298 1.00764 0.70123 0.0
C225 C 0.0999 0.07013 0.68978 0.0
C226 C 0.10785 0.01889 0.72155 0.0
C227 C 0.08906 0.09292 0.73085 0.0
C228 C 0.07671 0.15544 0.71945 0.0
C229 C 0.08283 0.14444 0.69917 0.0
C230 C 0.07607 0.1053 0.75201 0.0
C231 C 0.11249 0.06308 0.76577 0.0
C232 C 0.09477 0.0722 0.78657 0.0
C233 C 0.15362 0.05728 0.80173 0.0
C234 C 0.13762 0.06246 0.82135 0.0
C235 C 0.06186 0.08095 0.82614 0.0
H236 H 0.97178 0.10099 0.78001 0.0
C237 C 1.00283 0.0953 0.81093 0.0
C238 C 0.0191 0.09124 0.79138 0.0
H239 H 0.94381 0.1095 0.81412 0.0
H240 H 0.12603 0.94962 0.69444 0.0
H241 H 0.11582 0.96888 0.72976 0.0
H242 H 0.06153 0.21289 0.72622 0.0
H243 H 0.072 0.19372 0.69076 0.0
H244 H 0.03613 0.15199 0.75642 0.0
H245 H 0.15826 0.02183 0.76188 0.0
H246 H 0.21217 0.04172 0.79837 0.0
H247 H 0.18426 0.05062 0.83271 0.0
loop_
_geom_bond_atom_site_label_1
_geom_bond_atom_site_label_2
_geom_bond_distance
_geom_bond_site_symmetry_2
_ccdc_geom_bond_type
C0 O2 1.247 . S
C0 O4 1.258 . S
C1 O8 1.247 . S
C1 O9 1.258 . S
O2 C0 1.247 . S
O2 Zn3 2.028 . S
Zn3 O2 2.028 . S
Zn3 O7 2.035 . S
Zn3 O9 2.035 1_545 S
Zn3 O10 2.028 . S
O4 C0 1.258 . S
O4 Zn5 2.035 1_455 S
Zn5 O4 2.035 1_655 S
Zn5 O6 2.028 1_655 S
Zn5 O8 2.028 1_645 S
Zn5 O11 2.035 1_655 S
O6 Zn5 2.028 1_455 S
O6 C12 1.247 . S
O7 Zn3 2.035 . S
O7 C12 1.258 . S
O8 C1 1.247 . S
O8 Zn5 2.028 1_465 S
O9 C1 1.258 . S
O9 Zn3 2.035 1_565 S
O10 Zn3 2.028 . S
O10 C13 1.247 . S
O11 Zn5 2.035 1_455 S
O11 C13 1.258 . S
C12 O6 1.247 . S
C12 O7 1.258 . S
C13 O10 1.247 . S
C13 O11 1.258 . S
C14 O16 1.247 . S
C14 O18 1.258 . S
C15 O22 1.247 . S
C15 O23 1.258 . S
O16 C14 1.247 . S
O16 Zn17 2.028 1_545 S
Zn17 O16 2.028 1_565 S
Zn17 O21 2.035 1_565 S
Zn17 O23 2.035 1_465 S
Zn17 O24 2.028 1_565 S
O18 C14 1.258 . S
O18 Zn19 2.035 . S
Zn19 O18 2.035 . S
Zn19 O20 2.028 . S
Zn19 O22 2.028 1_455 S
Zn19 O25 2.035 . S
O20 Zn19 2.028 . S
O20 C26 1.247 . S
O21 Zn17 2.035 1_545 S
O21 C26 1.258 . S
O22 C15 1.247 . S
O22 Zn19 2.028 1_655 S
O23 C15 1.258 . S
O23 Zn17 2.035 1_645 S
O24 Zn17 2.028 1_545 S
O24 C27 1.247 . S
O25 Zn19 2.035 . S
O25 C27 1.258 . S
C26 O20 1.247 . S
C26 O21 1.258 . S
C27 O24 1.247 . S
C27 O25 1.258 . S
C28 O30 1.247 . S
C28 O32 1.258 1_455 S
C29 O36 1.247 1_455 S
C29 O37 1.258 . S
O30 C28 1.247 . S
O30 Zn31 2.028 . S
Zn31 O30 2.028 . S
Zn31 O35 2.035 . S
Zn31 O37 2.035 1_545 S
Zn31 O38 2.028 . S
O32 C28 1.258 1_655 S
O32 Zn33 2.035 . S
Zn33 O32 2.035 . S
Zn33 O34 2.028 . S
Zn33 O36 2.028 1_545 S
Zn33 O39 2.035 . S
O34 Zn33 2.028 . S
O34 C40 1.247 1_655 S
O35 Zn31 2.035 . S
O35 C40 1.258 . S
O36 C29 1.247 1_655 S
O36 Zn33 2.028 1_565 S
O37 C29 1.258 . S
O37 Zn31 2.035 1_565 S
O38 Zn31 2.028 . S
O38 C41 1.247 . S
O39 Zn33 2.035 . S
O39 C41 1.258 1_655 S
C40 O34 1.247 1_455 S
C40 O35 1.258 . S
C41 O38 1.247 . S
C41 O39 1.258 1_455 S
C42 O44 1.247 1_545 S
C42 O46 1.258 . S
C43 O50 1.247 . S
C43 O51 1.258 1_545 S
O44 C42 1.247 1_565 S
O44 Zn45 2.028 . S
Zn45 O44 2.028 . S
Zn45 O49 2.035 . S
Zn45 O51 2.035 1_455 S
Zn45 O52 2.028 . S
O46 C42 1.258 . S
O46 Zn47 2.035 . S
Zn47 O46 2.035 . S
Zn47 O48 2.028 . S
Zn47 O50 2.028 1_455 S
Zn47 O53 2.035 . S
O48 Zn47 2.028 . S
O48 C54 1.247 . S
O49 Zn45 2.035 . S
O49 C54 1.258 1_565 S
O50 C43 1.247 . S
O50 Zn47 2.028 1_655 S
O51 C43 1.258 1_565 S
O51 Zn45 2.035 1_655 S
O52 Zn45 2.028 . S
O52 C55 1.247 1_565 S
O53 Zn47 2.035 . S
O53 C55 1.258 . S
C54 O48 1.247 . S
C54 O49 1.258 1_545 S
C55 O52 1.247 1_545 S
C55 O53 1.258 . S
C56 C57 1.386 . S
C56 C58 1.383 . S
C56 H72 0.951 . S
C57 C56 1.386 . S
C57 C61 1.383 . S
C58 C56 1.383 . S
C58 C59 1.402 . S
C58 H73 0.951 . S
C59 C58 1.402 . S
C59 C60 1.375 . S
C59 C62 1.481 . S
C60 C59 1.375 . S
C60 C61 1.367 . S
C60 H74 0.951 . S
C61 C57 1.383 . S
C61 C60 1.367 . S
C61 H75 0.950 . S
C62 C59 1.481 . S
C62 C63 1.297 . S
C62 H76 0.950 . S
C63 C62 1.297 . S
C63 C64 1.479 . S
C63 H77 0.950 . S
C64 C63 1.479 . S
C64 C65 1.375 . S
C64 C70 1.404 . S
C65 C64 1.375 . S
C65 C66 1.369 . S
C65 H78 0.950 . S
C66 C65 1.369 . S
C66 C67 1.392 . S
C66 H79 0.951 . S
C67 C66 1.392 . S
C67 C69 1.384 . S
H68 C70 0.949 . S
C69 C67 1.384 . S
C69 C70 1.385 . S
C69 H71 0.950 . S
C70 C64 1.404 . S
C70 H68 0.949 . S
C70 C69 1.385 . S
H71 C69 0.950 . S
H72 C56 0.951 . S
H73 C58 0.951 . S
H74 C60 0.951 . S
H75 C61 0.950 . S
H76 C62 0.950 . S
H77 C63 0.950 . S
H78 C65 0.950 . S
H79 C66 0.951 . S
C80 C81 1.386 . S
C80 C82 1.383 . S
C80 H96 0.951 . S
C81 C80 1.386 . S
C81 C85 1.383 . S
C82 C80 1.383 . S
C82 C83 1.402 . S
C82 H97 0.951 . S
C83 C82 1.402 . S
C83 C84 1.375 . S
C83 C86 1.481 . S
C84 C83 1.375 . S
C84 C85 1.367 . S
C84 H98 0.951 . S
C85 C81 1.383 . S
C85 C84 1.367 . S
C85 H99 0.950 . S
C86 C83 1.481 . S
C86 C87 1.297 . S
C86 H100 0.950 . S
C87 C86 1.297 . S
C87 C88 1.479 . S
C87 H101 0.950 . S
C88 C87 1.479 . S
C88 C89 1.375 . S
C88 C94 1.404 . S
C89 C88 1.375 . S
C89 C90 1.369 . S
C89 H102 0.950 . S
C90 C89 1.369 . S
C90 C91 1.392 . S
C90 H103 0.951 . S
C91 C90 1.392 . S
C91 C93 1.384 . S
H92 C94 0.949 . S
C93 C91 1.384 . S
C93 C94 1.385 . S
C93 H95 0.950 . S
C94 C88 1.404 . S
C94 H92 0.949 . S
C94 C93 1.385 . S
H95 C93 0.950 . S
H96 C80 0.951 . S
H97 C82 0.951 . S
H98 C84 0.951 . S
H99 C85 0.950 . S
H100 C86 0.950 . S
H101 C87 0.950 . S
H102 C89 0.950 . S
H103 C90 0.951 . S
C104 C105 1.386 . S
C104 C106 1.383 . S
C104 H120 0.951 . S
C105 C104 1.386 . S
C105 C109 1.383 . S
C106 C104 1.383 . S
C106 C107 1.402 . S
C106 H121 0.951 . S
C107 C106 1.402 . S
C107 C108 1.375 . S
C107 C110 1.481 . S
C108 C107 1.375 . S
C108 C109 1.367 . S
C108 H122 0.951 . S
C109 C105 1.383 . S
C109 C108 1.367 . S
C109 H123 0.950 . S
C110 C107 1.481 . S
C110 C111 1.297 . S
C110 H124 0.950 . S
C111 C110 1.297 . S
C111 C112 1.479 . S
C111 H125 0.950 . S
C112 C111 1.479 . S
C112 C113 1.375 . S
C112 C118 1.404 . S
C113 C112 1.375 . S
C113 C114 1.369 . S
C113 H126 0.950 . S
C114 C113 1.369 . S
C114 C115 1.392 . S
C114 H127 0.951 . S
C115 C114 1.392 . S
C115 C117 1.384 . S
H116 C118 0.949 1_655 S
C117 C115 1.384 . S
C117 C118 1.385 . S
C117 H119 0.950 . S
C118 C112 1.404 . S
C118 H116 0.949 1_455 S
C118 C117 1.385 . S
H119 C117 0.950 . S
H120 C104 0.951 . S
H121 C106 0.951 . S
H122 C108 0.951 . S
H123 C109 0.950 . S
H124 C110 0.950 . S
H125 C111 0.950 . S
H126 C113 0.950 . S
H127 C114 0.951 . S
C128 C129 1.386 . S
C128 C130 1.383 . S
C128 H144 0.951 1_545 S
C129 C128 1.386 . S
C129 C133 1.383 . S
C130 C128 1.383 . S
C130 C131 1.402 . S
C130 H145 0.951 . S
C131 C130 1.402 . S
C131 C132 1.375 . S
C131 C134 1.481 . S
C132 C131 1.375 . S
C132 C133 1.367 . S
C132 H146 0.951 . S
C133 C129 1.383 . S
C133 C132 1.367 . S
C133 H147 0.950 . S
C134 C131 1.481 . S
C134 C135 1.297 . S
C134 H148 0.950 . S
C135 C134 1.297 . S
C135 C136 1.479 . S
C135 H149 0.950 . S
C136 C135 1.479 . S
C136 C137 1.375 . S
C136 C142 1.404 . S
C137 C136 1.375 . S
C137 C138 1.369 . S
C137 H150 0.950 1_545 S
C138 C137 1.369 . S
C138 C139 1.392 . S
C138 H151 0.951 1_545 S
C139 C138 1.392 . S
C139 C141 1.384 . S
H140 C142 0.949 . S
C141 C139 1.384 . S
C141 C142 1.385 . S
C141 H143 0.950 . S
C142 C136 1.404 . S
C142 H140 0.949 . S
C142 C141 1.385 . S
H143 C141 0.950 . S
H144 C128 0.951 1_565 S
H145 C130 0.951 . S
H146 C132 0.951 . S
H147 C133 0.950 . S
H148 C134 0.950 . S
H149 C135 0.950 . S
H150 C137 0.950 1_565 S
H151 C138 0.951 1_565 S
C152 C153 1.386 . S
C152 C154 1.383 . S
C152 H168 0.951 . S
C153 C152 1.386 . S
C153 C157 1.383 1_455 S
C154 C152 1.383 . S
C154 C155 1.402 . S
C154 H169 0.951 . S
C155 C154 1.402 . S
C155 C156 1.375 1_455 S
C155 C158 1.481 . S
C156 C155 1.375 1_655 S
C156 C157 1.367 . S
C156 H170 0.951 . S
C157 C153 1.383 1_655 S
C157 C156 1.367 . S
C157 H171 0.950 . S
C158 C155 1.481 . S
C158 C159 1.297 1_556 S
C158 H172 0.950 1_455 S
C159 C158 1.297 1_554 S
C159 C160 1.479 . S
C159 H173 0.950 . S
C160 C159 1.479 . S
C160 C161 1.375 . S
C160 C166 1.404 . S
C161 C160 1.375 . S
C161 C162 1.369 . S
C161 H174 0.950 . S
C162 C161 1.369 . S
C162 C163 1.392 . S
C162 H175 0.951 . S
C163 C162 1.392 . S
C163 C165 1.384 . S
H164 C166 0.949 1_655 S
C165 C163 1.384 . S
C165 C166 1.385 . S
C165 H167 0.950 1_455 S
C166 C160 1.404 . S
C166 H164 0.949 1_455 S
C166 C165 1.385 . S
H167 C165 0.950 1_655 S
H168 C152 0.951 . S
H169 C154 0.951 . S
H170 C156 0.951 . S
H171 C157 0.950 . S
H172 C158 0.950 1_655 S
H173 C159 0.950 . S
H174 C161 0.950 . S
H175 C162 0.951 . S
C176 C177 1.386 . S
C176 C178 1.383 . S
C176 H192 0.951 . S
C177 C176 1.386 . S
C177 C181 1.383 1_455 S
C178 C176 1.383 . S
C178 C179 1.402 . S
C178 H193 0.951 . S
C179 C178 1.402 . S
C179 C180 1.375 1_455 S
C179 C182 1.481 . S
C180 C179 1.375 1_655 S
C180 C181 1.367 . S
C180 H194 0.951 . S
C181 C177 1.383 1_655 S
C181 C180 1.367 . S
C181 H195 0.950 . S
C182 C179 1.481 . S
C182 C183 1.297 . S
C182 H196 0.950 1_455 S
C183 C182 1.297 . S
C183 C184 1.479 . S
C183 H197 0.950 . S
C184 C183 1.479 . S
C184 C185 1.375 . S
C184 C190 1.404 1_455 S
C185 C184 1.375 . S
C185 C186 1.369 . S
C185 H198 0.950 . S
C186 C185 1.369 . S
C186 C187 1.392 . S
C186 H199 0.951 . S
C187 C186 1.392 . S
C187 C189 1.384 1_455 S
H188 C190 0.949 . S
C189 C187 1.384 1_655 S
C189 C190 1.385 . S
C189 H191 0.950 . S
C190 C184 1.404 1_655 S
C190 H188 0.949 . S
C190 C189 1.385 . S
H191 C189 0.950 . S
H192 C176 0.951 . S
H193 C178 0.951 . S
H194 C180 0.951 . S
H195 C181 0.950 . S
H196 C182 0.950 1_655 S
H197 C183 0.950 . S
H198 C185 0.950 . S
H199 C186 0.951 . S
C200 C201 1.386 . S
C200 C202 1.383 . S
C200 H216 0.951 . S
C201 C200 1.386 . S
C201 C205 1.383 1_455 S
C202 C200 1.383 . S
C202 C203 1.402 . S
C202 H217 0.951 . S
C203 C202 1.402 . S
C203 C204 1.375 1_455 S
C203 C206 1.481 . S
C204 C203 1.375 1_655 S
C204 C205 1.367 . S
C204 H218 0.951 . S
C205 C201 1.383 1_655 S
C205 C204 1.367 . S
C205 H219 0.950 . S
C206 C203 1.481 . S
C206 C207 1.297 . S
C206 H220 0.950 1_455 S
C207 C206 1.297 . S
C207 C208 1.479 . S
C207 H221 0.950 . S
C208 C207 1.479 . S
C208 C209 1.375 . S
C208 C214 1.404 . S
C209 C208 1.375 . S
C209 C210 1.369 . S
C209 H222 0.950 . S
C210 C209 1.369 . S
C210 C211 1.392 . S
C210 H223 0.951 . S
C211 C210 1.392 . S
C211 C213 1.384 . S
H212 C214 0.949 1_665 S
C213 C211 1.384 . S
C213 C214 1.385 . S
C213 H215 0.950 1_455 S
C214 C208 1.404 . S
C214 H212 0.949 1_445 S
C214 C213 1.385 . S
H215 C213 0.950 1_655 S
H216 C200 0.951 . S
H217 C202 0.951 . S
H218 C204 0.951 . S
H219 C205 0.950 . S
H220 C206 0.950 1_655 S
H221 C207 0.950 . S
H222 C209 0.950 . S
H223 C210 0.951 . S
C224 C225 1.386 . S
C224 C226 1.383 . S
C224 H240 0.951 1_545 S
C225 C224 1.386 . S
C225 C229 1.383 . S
C226 C224 1.383 . S
C226 C227 1.402 . S
C226 H241 0.951 . S
C227 C226 1.402 . S
C227 C228 1.375 . S
C227 C230 1.481 . S
C228 C227 1.375 . S
C228 C229 1.367 . S
C228 H242 0.951 1_455 S
C229 C225 1.383 . S
C229 C228 1.367 . S
C229 H243 0.950 1_455 S
C230 C227 1.481 . S
C230 C231 1.297 . S
C230 H244 0.950 . S
C231 C230 1.297 . S
C231 C232 1.479 . S
C231 H245 0.950 . S
C232 C231 1.479 . S
C232 C233 1.375 . S
C232 C238 1.404 . S
C233 C232 1.375 . S
C233 C234 1.369 . S
C233 H246 0.950 1_545 S
C234 C233 1.369 . S
C234 C235 1.392 . S
C234 H247 0.951 1_545 S
C235 C234 1.392 . S
C235 C237 1.384 . S
H236 C238 0.949 . S
C237 C235 1.384 . S
C237 C238 1.385 . S
C237 H239 0.950 . S
C238 C232 1.404 . S
C238 H236 0.949 . S
C238 C237 1.385 . S
H239 C237 0.950 . S
H240 C224 0.951 1_565 S
H241 C226 0.951 . S
H242 C228 0.951 1_655 S
H243 C229 0.950 1_655 S
H244 C230 0.950 . S
H245 C231 0.950 . S
H246 C233 0.950 1_565 S
H247 C234 0.951 1_565 S
C57 C0 1.497 . S
C67 C1 1.491 . S
C81 C14 1.490 . S
C91 C15 1.487 . S
C105 C28 1.492 . S
C115 C29 1.483 . S
C129 C42 1.494 . S
C139 C43 1.480 . S
C153 C40 1.491 . S
C163 C13 1.495 . S
C177 C54 1.499 . S
C187 C27 1.488 . S
C201 C55 1.492 . S
C211 C12 1.495 . S
C225 C26 1.495 . S
C235 C41 1.491 . S
