# Generated by pormake.
# Topology fnu, (5)-cn, num edge types: 1
# Building blocks:
#     Node 0, Type 0, BuildingBlock: XOMCOT_clean_sbu_1, # of connection points: 5
#     Node 1, Type 0, BuildingBlock: XOMCOT_clean_sbu_1, # of connection points: 5
#     Node 2, Type 0, BuildingBlock: XOMCOT_clean_sbu_1, # of connection points: 5
#     Node 3, Type 0, BuildingBlock: XOMCOT_clean_sbu_1, # of connection points: 5
#     Node 4, Type 0, BuildingBlock: XOMCOT_clean_sbu_1, # of connection points: 5
#     Node 5, Type 0, BuildingBlock: XOMCOT_clean_sbu_1, # of connection points: 5
#     Edge 6, Type (0, 0), BuildingBlock: EYOCIG_clean_linker_4, # of connection points: 2
#     Edge 7, Type (0, 0), BuildingBlock: EYOCIG_clean_linker_4, # of connection points: 2
#     Edge 8, Type (0, 0), BuildingBlock: EYOCIG_clean_linker_4, # of connection points: 2
#     Edge 9, Type (0, 0), BuildingBlock: EYOCIG_clean_linker_4, # of connection points: 2
#     Edge 10, Type (0, 0), BuildingBlock: EYOCIG_clean_linker_4, # of connection points: 2
#     Edge 11, Type (0, 0), BuildingBlock: EYOCIG_clean_linker_4, # of connection points: 2
#     Edge 12, Type (0, 0), BuildingBlock: EYOCIG_clean_linker_4, # of connection points: 2
#     Edge 13, Type (0, 0), BuildingBlock: EYOCIG_clean_linker_4, # of connection points: 2
#     Edge 14, Type (0, 0), BuildingBlock: EYOCIG_clean_linker_4, # of connection points: 2
#     Edge 15, Type (0, 0), BuildingBlock: EYOCIG_clean_linker_4, # of connection points: 2
#     Edge 16, Type (0, 0), BuildingBlock: EYOCIG_clean_linker_4, # of connection points: 2
#     Edge 17, Type (0, 0), BuildingBlock: EYOCIG_clean_linker_4, # of connection points: 2
#     Edge 18, Type (0, 0), BuildingBlock: EYOCIG_clean_linker_4, # of connection points: 2
#     Edge 19, Type (0, 0), BuildingBlock: EYOCIG_clean_linker_4, # of connection points: 2
#     Edge 20, Type (0, 0), BuildingBlock: EYOCIG_clean_linker_4, # of connection points: 2
# Relax obj value: 0.205
# Max RMSD: 0.144
# Mean RMSD: 0.144
data_MOF--net-fnu--node1-XOMCOT_clean_sbu_1--edge1-EYOCIG_clean_linker_4
_symmetry_space_group_name_H-M    P1
_symmetry_Int_Tables_number       1
_symmetry_cell_setting            triclinic
loop_
_symmetry_equiv_pos_as_xyz
'x, y, z'
_cell_length_a     21.486729
_cell_length_b     21.951027
_cell_length_c     27.486218
_cell_angle_alpha  89.989063
_cell_angle_beta   95.215991
_cell_angle_gamma 120.77235
loop_
_atom_site_label
_atom_site_type_symbol
_atom_site_fract_x
_atom_site_fract_y
_atom_site_fract_z
_atom_type_partial_charge
C0 C 0.19815 0.13747 0.34434 0.0
C1 C 0.19286 0.13717 0.39369 0.0
N2 N 0.12254 0.09635 0.40062 0.0
N3 N 0.1312 0.0976 0.31959 0.0
C4 C 0.08589 0.07235 0.35552 0.0
H5 H 0.24884 0.16352 0.32813 0.0
Co6 Co 0.11722 0.07788 0.25075 0.0
C7 C 1.01207 0.13221 0.25474 0.0
O8 O 0.97663 0.09358 0.2901 0.0
N9 N 0.10622 0.05869 0.18431 0.0
C10 C 0.0934 0.06413 0.10388 0.0
C11 C 0.10013 0.09732 0.14797 0.0
C12 C 0.10432 1.00311 0.16177 0.0
N13 N 0.096 1.00538 0.11306 0.0
O14 O 0.20573 0.16591 0.2421 0.0
H15 H 0.10089 0.14654 0.15311 0.0
H16 H 0.10843 0.96183 0.18065 0.0
O17 O 0.06397 0.1278 0.23956 0.0
C18 C 0.25787 0.15901 0.23021 0.0
O19 O 0.25114 0.09613 0.23055 0.0
N20 N 1.03272 0.98872 0.25559 0.0
C21 C 0.94403 0.84602 0.22481 0.0
C22 C 0.92474 0.89546 0.2095 0.0
C23 C 0.96996 0.96698 0.22535 0.0
C24 C 1.04808 0.93988 0.27459 0.0
C25 C 1.00425 0.8679 0.25957 0.0
H26 H 0.95957 1.00528 0.2077 0.0
H27 H 0.09933 0.95777 0.29663 0.0
H28 H 1.0279 1.03503 0.34908 0.0
H29 H 0.2375 0.16334 0.42244 0.0
H30 H 0.08694 0.08149 0.06787 0.0
H31 H 0.87891 0.88022 0.18216 0.0
H32 H 1.02087 0.83093 0.27183 0.0
C33 C 0.95001 1.01389 0.68296 0.0
C34 C 0.95524 1.01886 0.63361 0.0
N35 N 1.0255 0.04807 0.62662 0.0
N36 N 1.01694 0.04063 0.70766 0.0
C37 C 0.06218 0.06058 0.67169 0.0
H38 H 0.89936 0.98946 0.69921 0.0
Co39 Co 1.031 1.03481 0.77647 0.0
C40 C 0.13588 0.19437 0.77254 0.0
O41 O 0.17161 0.19173 0.7372 0.0
N42 N 1.04214 1.02667 0.84293 0.0
C43 C 1.05505 0.04501 0.92336 0.0
C44 C 1.04785 0.07122 0.87925 0.0
C45 C 1.04473 0.97333 0.86549 0.0
N46 N 1.05315 0.98399 0.9142 0.0
O47 O 0.94259 1.03438 0.78522 0.0
H48 H 1.04655 0.11941 0.87409 0.0
H49 H 1.0411 0.92817 0.84664 0.0
O50 O 0.08413 0.13777 0.78759 0.0
C51 C 0.89042 0.97537 0.79722 0.0
O52 O 0.89706 0.91919 0.79702 0.0
N53 N 0.11553 1.03027 0.77156 0.0
C54 C 0.20424 0.97633 0.80229 0.0
C55 C 0.22355 0.0451 0.81761 0.0
C56 C 0.17834 0.07137 0.80177 0.0
C57 C 0.10017 0.96608 0.75252 0.0
C58 C 0.144 0.93796 0.76752 0.0
H59 H 0.18877 0.12008 0.81942 0.0
H60 H 1.04892 0.93267 0.73049 0.0
H61 H 0.12013 0.08108 0.6781 0.0
H62 H 0.9106 1.00057 0.60489 0.0
H63 H 0.06142 0.0688 0.95937 0.0
H64 H 0.26941 0.07574 0.84492 0.0
H65 H 0.12737 0.88436 0.75523 0.0
C66 C 0.86468 0.47049 0.67756 0.0
C67 C 0.8595 0.47025 0.72691 0.0
N68 N 0.78917 0.42974 0.7339 0.0
N69 N 0.79764 0.43089 0.65286 0.0
C70 C 0.75239 0.40586 0.68883 0.0
H71 H 0.91533 0.49628 0.6613 0.0
Co72 Co 0.78351 0.41115 0.58403 0.0
C73 C 0.67831 0.46543 0.58807 0.0
O74 O 0.64275 0.42665 0.62334 0.0
N75 N 0.77236 0.39191 0.5176 0.0
C76 C 0.75923 0.39709 0.43716 0.0
C77 C 0.76592 0.43032 0.48123 0.0
C78 C 0.77068 0.33642 0.4951 0.0
N79 N 0.76219 0.33853 0.44639 0.0
O80 O 0.872 0.49916 0.57532 0.0
H81 H 0.76646 0.47944 0.48632 0.0
H82 H 0.77513 0.29534 0.51401 0.0
O83 O 0.73027 0.4611 0.57292 0.0
C84 C 0.92411 0.49225 0.56337 0.0
O85 O 0.91738 0.42937 0.5637 0.0
N86 N 0.69903 0.32199 0.58894 0.0
C87 C 0.61036 0.17929 0.55816 0.0
C88 C 0.59103 0.22871 0.54288 0.0
C89 C 0.63624 0.30024 0.55872 0.0
C90 C 0.71443 0.27317 0.60792 0.0
C91 C 0.67061 0.20119 0.5929 0.0
H92 H 0.62582 0.33851 0.54109 0.0
H93 H 0.7657 0.29108 0.62993 0.0
H94 H 0.69436 0.36873 0.68244 0.0
H95 H 0.90421 0.49624 0.75563 0.0
H96 H 0.75261 0.41432 0.40113 0.0
H97 H 0.54518 0.21346 0.51557 0.0
H98 H 0.68727 0.16423 0.60513 0.0
C99 C 0.6171 0.34641 0.01642 0.0
C100 C 0.62218 0.35136 0.96705 0.0
N101 N 0.69249 0.38128 0.96 0.0
N102 N 0.68417 0.37392 0.04106 0.0
C103 C 0.72934 0.39421 1.00504 0.0
H104 H 0.56648 0.32148 0.03273 0.0
Co105 Co 0.69844 0.36835 0.10988 0.0
C106 C 0.80367 0.52787 0.10581 0.0
O107 O 0.8393 0.52463 0.07062 0.0
N108 N 0.70972 0.36033 0.17633 0.0
C109 C 0.72291 0.37881 0.25675 0.0
C110 C 0.71566 0.405 0.21264 0.0
C111 C 0.71222 0.30695 0.19889 0.0
N112 N 0.7208 0.31769 0.24759 0.0
O113 O 0.60997 0.36781 0.11866 0.0
H114 H 0.71447 0.45324 0.20748 0.0
H115 H 0.70838 0.26168 0.18004 0.0
O116 O 0.75165 0.47155 0.12096 0.0
C117 C 0.55788 0.30881 0.13076 0.0
O118 O 0.5646 0.25266 0.13062 0.0
N119 N 0.78295 0.36378 0.1049 0.0
C120 C 0.87164 0.30979 0.13557 0.0
C121 C 0.89096 0.37855 0.15092 0.0
C122 C 0.84576 0.40484 0.13513 0.0
C123 C 0.7676 0.29961 0.08582 0.0
C124 C 0.81142 0.27147 0.10078 0.0
H125 H 0.85617 0.45351 0.15282 0.0
H126 H 0.71634 0.26621 0.06378 0.0
H127 H 0.78737 0.41519 1.01138 0.0
H128 H 0.57742 0.33258 0.93836 0.0
H129 H 0.72939 0.40267 0.29275 0.0
H130 H 0.93679 0.40914 0.17826 0.0
H131 H 0.79477 0.21787 0.08848 0.0
C132 C 0.53103 0.80429 1.01087 0.0
C133 C 0.52586 0.80401 0.06023 0.0
N134 N 0.45558 0.76312 0.06723 0.0
N135 N 0.46404 0.76433 0.98618 0.0
C136 C 0.41883 0.73903 0.02217 0.0
H137 H 0.58168 0.83039 0.99461 0.0
Co138 Co 0.44987 0.74452 0.91735 0.0
C139 C 0.34473 0.79889 0.92162 0.0
O140 O 0.30983 0.76057 0.95726 0.0
N141 N 0.43871 0.7252 0.85093 0.0
C142 C 0.42547 0.73027 0.7705 0.0
C143 C 0.43198 0.76343 0.81454 0.0
C144 C 0.43739 0.66988 0.82846 0.0
N145 N 0.42885 0.67193 0.77975 0.0
O146 O 0.53829 0.83256 0.90858 0.0
H147 H 0.43221 0.8124 0.81961 0.0
H148 H 0.44217 0.62899 0.84739 0.0
O149 O 0.39645 0.79439 0.90619 0.0
C150 C 0.59046 0.82569 0.89672 0.0
O151 O 0.58383 0.76286 0.89716 0.0
N152 N 0.36551 0.65531 0.9223 0.0
C153 C 0.27688 0.51259 0.89153 0.0
C154 C 0.25739 0.56195 0.87638 0.0
C155 C 0.3026 0.63349 0.89221 0.0
C156 C 0.38107 0.60653 0.94116 0.0
C157 C 0.33728 0.53455 0.92614 0.0
H158 H 0.29203 0.67175 0.87469 0.0
H159 H 0.43244 0.62449 0.96306 0.0
H160 H 0.36087 0.70161 0.0158 0.0
H161 H 0.57054 0.83027 0.08894 0.0
H162 H 0.41872 0.74741 0.73445 0.0
H163 H 0.21144 0.54666 0.84915 0.0
H164 H 0.35408 0.49765 0.93824 0.0
C165 C 0.28347 0.67947 0.34973 0.0
C166 C 0.28854 0.68441 0.30036 0.0
N167 N 0.35887 0.71451 0.29332 0.0
N168 N 0.35055 0.70717 0.37438 0.0
C169 C 0.39574 0.72757 0.33837 0.0
H170 H 0.23285 0.65439 0.36605 0.0
Co171 Co 0.36483 0.70163 0.4432 0.0
C172 C 0.4701 0.86115 0.43919 0.0
O173 O 0.50592 0.85788 0.40414 0.0
N174 N 0.37611 0.69364 0.50966 0.0
C175 C 0.38929 0.71218 0.59007 0.0
C176 C 0.38184 0.73823 0.54596 0.0
C177 C 0.37892 0.64043 0.53225 0.0
N178 N 0.38752 0.65122 0.58094 0.0
O179 O 0.27632 0.70104 0.45196 0.0
H180 H 0.3804 0.78634 0.54076 0.0
H181 H 0.37533 0.59527 0.51341 0.0
O182 O 0.41797 0.80484 0.45427 0.0
C183 C 0.22426 0.64205 0.4641 0.0
O184 O 0.23103 0.58593 0.46405 0.0
N185 N 0.44939 0.69713 0.43823 0.0
C186 C 0.5381 0.64318 0.46888 0.0
C187 C 0.55737 0.71189 0.48429 0.0
C188 C 0.51215 0.73817 0.4685 0.0
C189 C 0.4341 0.63302 0.41909 0.0
C190 C 0.47794 0.60489 0.43404 0.0
H191 H 0.5225 0.78678 0.48625 0.0
H192 H 0.38289 0.59964 0.39701 0.0
H193 H 0.4538 0.7487 0.34472 0.0
H194 H 0.24378 0.66548 0.27168 0.0
H195 H 0.3957 0.73602 0.62607 0.0
H196 H 0.60314 0.74245 0.51167 0.0
H197 H 0.46135 0.55133 0.42169 0.0
C198 C 0.37534 0.25414 0.19195 0.0
C199 C 0.31983 0.21599 0.21014 0.0
C200 C 0.44048 0.28664 0.16895 0.0
C201 C 0.49595 0.30388 0.15077 0.0
C202 C 0.96449 0.20788 0.20644 0.0
C203 C 0.98634 0.17343 0.22838 0.0
C204 C 0.93556 0.24558 0.18064 0.0
C205 C 0.90678 0.27524 0.16032 0.0
C206 C 0.85114 0.65119 0.15399 0.0
C207 C 0.82936 0.59487 0.13209 0.0
C208 C 0.88004 0.71784 0.17974 0.0
C209 C 0.90884 0.77631 0.20005 0.0
C210 C 0.18393 0.31785 0.82055 0.0
C211 C 0.16132 0.2611 0.79905 0.0
C212 C 0.21322 0.3846 0.84624 0.0
C213 C 0.24185 0.44298 0.86665 0.0
C214 C 0.70788 0.9208 0.8584 0.0
C215 C 0.65239 0.88266 0.87661 0.0
C216 C 0.77302 0.95326 0.8354 0.0
C217 C 0.8285 0.97047 0.81724 0.0
C218 C 0.26837 0.91224 0.84729 0.0
C219 C 0.23949 0.94184 0.82701 0.0
C220 C 0.2972 0.87452 0.87318 0.0
C221 C 0.31876 0.83999 0.89534 0.0
C222 C 1.04161 0.58739 0.52516 0.0
C223 C 0.98609 0.54924 0.54333 0.0
C224 C 0.10678 0.61988 0.50219 0.0
C225 C 0.16228 0.63712 0.48405 0.0
C226 C 0.63084 0.54119 0.53977 0.0
C227 C 0.65262 0.50669 0.56172 0.0
C228 C 0.60197 0.57892 0.51396 0.0
C229 C 0.57322 0.6086 0.49364 0.0
C230 C 0.51752 0.98447 0.48735 0.0
C231 C 0.49574 0.92813 0.46547 0.0
C232 C 0.5464 0.05112 0.5131 0.0
C233 C 0.57516 0.10959 0.53339 0.0
C234 C 0.06708 0.06548 0.53858 0.0
C235 C 1.05178 0.05896 0.58037 0.0
C236 C 0.08083 0.07232 0.48863 0.0
C237 C 0.09617 0.08103 0.44684 0.0
C238 C 0.73393 0.39902 0.87191 0.0
C239 C 0.7187 0.39239 0.91372 0.0
C240 C 0.74761 0.40588 0.82195 0.0
C241 C 0.76288 0.41454 0.78015 0.0
C242 C 0.40035 0.73228 0.20524 0.0
C243 C 0.3851 0.72564 0.24705 0.0
C244 C 0.41404 0.73914 0.15529 0.0
C245 C 0.42931 0.74783 0.11349 0.0
C246 C 0.08092 0.92595 0.03915 0.0
C247 C 0.08881 0.95642 0.07741 0.0
C248 C 0.06955 0.92029 0.98809 0.0
C249 C 0.06114 0.94264 0.94985 0.0
C250 C 0.73673 0.25376 0.32149 0.0
C251 C 0.72853 0.27621 0.28325 0.0
C252 C 0.74778 0.25931 0.37255 0.0
C253 C 0.75538 0.28971 0.41078 0.0
C254 C 0.40405 0.58759 0.65483 0.0
C255 C 0.39561 0.60993 0.61661 0.0
C256 C 0.41508 0.59305 0.70589 0.0
C257 C 0.42244 0.6233 0.74414 0.0
loop_
_geom_bond_atom_site_label_1
_geom_bond_atom_site_label_2
_geom_bond_distance
_geom_bond_site_symmetry_2
_ccdc_geom_bond_type
C0 C1 1.351 . S
C0 N3 1.368 . S
C0 H5 0.931 . S
C1 C0 1.351 . S
C1 N2 1.373 . S
C1 H29 0.930 . S
N2 C1 1.373 . S
N2 C4 1.340 . S
N3 C0 1.368 . S
N3 C4 1.321 . S
N3 Co6 2.135 . S
C4 N2 1.340 . S
C4 N3 1.321 . S
C4 H28 0.912 1_455 S
H5 C0 0.931 . S
Co6 N3 2.135 . S
Co6 N9 2.121 . S
Co6 O14 2.055 . S
Co6 O17 2.039 . S
Co6 N20 2.140 1_445 S
C7 O8 1.227 . S
C7 O17 1.265 1_655 S
O8 C7 1.227 . S
N9 Co6 2.121 . S
N9 C11 1.375 1_455 S
N9 C12 1.313 . S
C10 C11 1.338 . S
C10 N13 1.377 1_655 S
C10 H30 0.929 . S
C11 N9 1.375 1_655 S
C11 C10 1.338 . S
C11 H15 0.931 . S
C12 N9 1.313 . S
C12 N13 1.344 . S
C12 H16 0.930 . S
N13 C10 1.377 1_455 S
N13 C12 1.344 . S
O14 Co6 2.055 . S
O14 C18 1.253 . S
H15 C11 0.931 . S
H16 C12 0.930 . S
O17 Co6 2.039 . S
O17 C7 1.265 1_455 S
C18 O14 1.253 . S
C18 O19 1.227 . S
O19 C18 1.227 . S
N20 Co6 2.140 1_665 S
N20 C23 1.346 . S
N20 C24 1.345 . S
C21 C22 1.387 . S
C21 C25 1.391 . S
C22 C21 1.387 . S
C22 C23 1.369 . S
C22 H31 0.929 . S
C23 N20 1.346 . S
C23 C22 1.369 . S
C23 H26 0.928 . S
C24 N20 1.345 . S
C24 C25 1.371 . S
C24 H27 0.931 1_655 S
C25 C21 1.391 . S
C25 C24 1.371 . S
C25 H32 0.930 . S
H26 C23 0.928 . S
H27 C24 0.931 1_455 S
H28 C4 0.912 1_655 S
H29 C1 0.930 . S
H30 C10 0.929 . S
H31 C22 0.929 . S
H32 C25 0.930 . S
C33 C34 1.351 . S
C33 N36 1.376 . S
C33 H38 0.931 . S
C34 C33 1.351 . S
C34 N35 1.373 1_565 S
C34 H62 0.930 . S
N35 C34 1.373 1_545 S
N35 C37 1.340 . S
N36 C33 1.376 . S
N36 C37 1.322 1_565 S
N36 Co39 2.134 1_565 S
C37 N35 1.340 . S
C37 N36 1.322 1_545 S
C37 H61 0.926 1_655 S
H38 C33 0.931 . S
Co39 N36 2.134 1_545 S
Co39 N42 2.121 1_655 S
Co39 O47 2.055 1_545 S
Co39 O50 2.039 1_655 S
Co39 N53 2.140 1_645 S
C40 O41 1.227 . S
C40 O50 1.265 . S
O41 C40 1.227 . S
N42 Co39 2.121 1_455 S
N42 C44 1.375 . S
N42 C45 1.313 1_455 S
C43 C44 1.338 . S
C43 N46 1.390 . S
C43 H63 0.930 . S
C44 N42 1.375 . S
C44 C43 1.338 . S
C44 H48 0.931 . S
C45 N42 1.313 1_655 S
C45 N46 1.339 1_655 S
C45 H49 0.930 1_545 S
N46 C43 1.390 . S
N46 C45 1.339 1_455 S
O47 Co39 2.055 1_565 S
O47 C51 1.253 . S
H48 C44 0.931 . S
H49 C45 0.930 1_565 S
O50 Co39 2.039 1_455 S
O50 C40 1.265 . S
C51 O47 1.253 . S
C51 O52 1.227 . S
O52 C51 1.227 . S
N53 Co39 2.140 1_465 S
N53 C56 1.346 . S
N53 C57 1.345 . S
C54 C55 1.387 . S
C54 C58 1.391 . S
C55 C54 1.387 . S
C55 C56 1.369 . S
C55 H64 0.929 . S
C56 N53 1.346 . S
C56 C55 1.369 . S
C56 H59 0.928 1_565 S
C57 N53 1.345 . S
C57 C58 1.371 . S
C57 H60 0.931 . S
C58 C54 1.391 . S
C58 C57 1.371 . S
C58 H65 0.930 . S
H59 C56 0.928 1_545 S
H60 C57 0.931 . S
H61 C37 0.926 1_455 S
H62 C34 0.930 . S
H63 C43 0.930 . S
H64 C55 0.929 . S
H65 C58 0.930 . S
C66 C67 1.351 . S
C66 N69 1.368 . S
C66 H71 0.931 . S
C67 C66 1.351 . S
C67 N68 1.373 . S
C67 H95 0.930 . S
N68 C67 1.373 . S
N68 C70 1.340 . S
N69 C66 1.368 . S
N69 C70 1.321 . S
N69 Co72 2.135 . S
C70 N68 1.340 . S
C70 N69 1.321 . S
C70 H94 0.930 . S
H71 C66 0.931 . S
Co72 N69 2.135 . S
Co72 N75 2.121 . S
Co72 O80 2.055 . S
Co72 O83 2.039 . S
Co72 N86 2.140 . S
C73 O74 1.227 . S
C73 O83 1.265 . S
O74 C73 1.227 . S
N75 Co72 2.121 . S
N75 C77 1.375 . S
N75 C78 1.313 . S
C76 C77 1.338 . S
C76 N79 1.377 . S
C76 H96 0.930 . S
C77 N75 1.375 . S
C77 C76 1.338 . S
C77 H81 0.931 . S
C78 N75 1.313 . S
C78 N79 1.344 . S
C78 H82 0.930 . S
N79 C76 1.377 . S
N79 C78 1.344 . S
O80 Co72 2.055 . S
O80 C84 1.253 . S
H81 C77 0.931 . S
H82 C78 0.930 . S
O83 Co72 2.039 . S
O83 C73 1.265 . S
C84 O80 1.253 . S
C84 O85 1.227 . S
O85 C84 1.227 . S
N86 Co72 2.140 . S
N86 C89 1.346 . S
N86 C90 1.345 . S
C87 C88 1.387 . S
C87 C91 1.391 . S
C88 C87 1.387 . S
C88 C89 1.369 . S
C88 H97 0.929 . S
C89 N86 1.346 . S
C89 C88 1.369 . S
C89 H92 0.928 . S
C90 N86 1.345 . S
C90 C91 1.371 . S
C90 H93 0.931 . S
C91 C87 1.391 . S
C91 C90 1.371 . S
C91 H98 0.930 . S
H92 C89 0.928 . S
H93 C90 0.931 . S
H94 C70 0.930 . S
H95 C67 0.930 . S
H96 C76 0.930 . S
H97 C88 0.929 . S
H98 C91 0.930 . S
C99 C100 1.351 1_554 S
C99 N102 1.368 . S
C99 H104 0.931 . S
C100 C99 1.351 1_556 S
C100 N101 1.373 . S
C100 H128 0.930 . S
N101 C100 1.373 . S
N101 C103 1.340 1_556 S
N102 C99 1.368 . S
N102 C103 1.321 . S
N102 Co105 2.135 . S
C103 N101 1.340 1_554 S
C103 N102 1.321 . S
C103 H127 0.930 . S
H104 C99 0.931 . S
Co105 N102 2.135 . S
Co105 N108 2.121 . S
Co105 O113 2.055 . S
Co105 O116 2.039 . S
Co105 N119 2.140 . S
C106 O107 1.227 . S
C106 O116 1.265 . S
O107 C106 1.227 . S
N108 Co105 2.121 . S
N108 C110 1.375 . S
N108 C111 1.313 . S
C109 C110 1.338 . S
C109 N112 1.377 . S
C109 H129 0.930 . S
C110 N108 1.375 . S
C110 C109 1.338 . S
C110 H114 0.931 . S
C111 N108 1.313 . S
C111 N112 1.344 . S
C111 H115 0.930 . S
N112 C109 1.377 . S
N112 C111 1.344 . S
O113 Co105 2.055 . S
O113 C117 1.253 . S
H114 C110 0.931 . S
H115 C111 0.930 . S
O116 Co105 2.039 . S
O116 C106 1.265 . S
C117 O113 1.253 . S
C117 O118 1.227 . S
O118 C117 1.227 . S
N119 Co105 2.140 . S
N119 C122 1.346 . S
N119 C123 1.345 . S
C120 C121 1.387 . S
C120 C124 1.391 . S
C121 C120 1.387 . S
C121 C122 1.369 . S
C121 H130 0.929 . S
C122 N119 1.346 . S
C122 C121 1.369 . S
C122 H125 0.928 . S
C123 N119 1.345 . S
C123 C124 1.371 . S
C123 H126 0.931 . S
C124 C120 1.391 . S
C124 C123 1.371 . S
C124 H131 0.930 . S
H125 C122 0.928 . S
H126 C123 0.931 . S
H127 C103 0.930 . S
H128 C100 0.930 . S
H129 C109 0.930 . S
H130 C121 0.929 . S
H131 C124 0.930 . S
C132 C133 1.351 1_556 S
C132 N135 1.368 . S
C132 H137 0.931 . S
C133 C132 1.351 1_554 S
C133 N134 1.373 . S
C133 H161 0.930 . S
N134 C133 1.373 . S
N134 C136 1.340 1_554 S
N135 C132 1.368 . S
N135 C136 1.321 . S
N135 Co138 2.135 . S
C136 N134 1.340 1_556 S
C136 N135 1.321 . S
C136 H160 0.930 . S
H137 C132 0.931 . S
Co138 N135 2.135 . S
Co138 N141 2.121 . S
Co138 O146 2.055 . S
Co138 O149 2.039 . S
Co138 N152 2.140 . S
C139 O140 1.227 . S
C139 O149 1.265 . S
O140 C139 1.227 . S
N141 Co138 2.121 . S
N141 C143 1.375 . S
N141 C144 1.313 . S
C142 C143 1.338 . S
C142 N145 1.377 . S
C142 H162 0.930 . S
C143 N141 1.375 . S
C143 C142 1.338 . S
C143 H147 0.931 . S
C144 N141 1.313 . S
C144 N145 1.344 . S
C144 H148 0.930 . S
N145 C142 1.377 . S
N145 C144 1.344 . S
O146 Co138 2.055 . S
O146 C150 1.253 . S
H147 C143 0.931 . S
H148 C144 0.930 . S
O149 Co138 2.039 . S
O149 C139 1.265 . S
C150 O146 1.253 . S
C150 O151 1.227 . S
O151 C150 1.227 . S
N152 Co138 2.140 . S
N152 C155 1.346 . S
N152 C156 1.345 . S
C153 C154 1.387 . S
C153 C157 1.391 . S
C154 C153 1.387 . S
C154 C155 1.369 . S
C154 H163 0.929 . S
C155 N152 1.346 . S
C155 C154 1.369 . S
C155 H158 0.928 . S
C156 N152 1.345 . S
C156 C157 1.371 . S
C156 H159 0.931 . S
C157 C153 1.391 . S
C157 C156 1.371 . S
C157 H164 0.930 . S
H158 C155 0.928 . S
H159 C156 0.931 . S
H160 C136 0.930 . S
H161 C133 0.930 . S
H162 C142 0.930 . S
H163 C154 0.929 . S
H164 C157 0.930 . S
C165 C166 1.351 . S
C165 N168 1.368 . S
C165 H170 0.931 . S
C166 C165 1.351 . S
C166 N167 1.373 . S
C166 H194 0.930 . S
N167 C166 1.373 . S
N167 C169 1.340 . S
N168 C165 1.368 . S
N168 C169 1.321 . S
N168 Co171 2.135 . S
C169 N167 1.340 . S
C169 N168 1.321 . S
C169 H193 0.930 . S
H170 C165 0.931 . S
Co171 N168 2.135 . S
Co171 N174 2.121 . S
Co171 O179 2.055 . S
Co171 O182 2.039 . S
Co171 N185 2.140 . S
C172 O173 1.227 . S
C172 O182 1.265 . S
O173 C172 1.227 . S
N174 Co171 2.121 . S
N174 C176 1.375 . S
N174 C177 1.313 . S
C175 C176 1.338 . S
C175 N178 1.377 . S
C175 H195 0.930 . S
C176 N174 1.375 . S
C176 C175 1.338 . S
C176 H180 0.931 . S
C177 N174 1.313 . S
C177 N178 1.344 . S
C177 H181 0.930 . S
N178 C175 1.377 . S
N178 C177 1.344 . S
O179 Co171 2.055 . S
O179 C183 1.253 . S
H180 C176 0.931 . S
H181 C177 0.930 . S
O182 Co171 2.039 . S
O182 C172 1.265 . S
C183 O179 1.253 . S
C183 O184 1.227 . S
O184 C183 1.227 . S
N185 Co171 2.140 . S
N185 C188 1.346 . S
N185 C189 1.345 . S
C186 C187 1.387 . S
C186 C190 1.391 . S
C187 C186 1.387 . S
C187 C188 1.369 . S
C187 H196 0.929 . S
C188 N185 1.346 . S
C188 C187 1.369 . S
C188 H191 0.928 . S
C189 N185 1.345 . S
C189 C190 1.371 . S
C189 H192 0.931 . S
C190 C186 1.391 . S
C190 C189 1.371 . S
C190 H197 0.930 . S
H191 C188 0.928 . S
H192 C189 0.931 . S
H193 C169 0.930 . S
H194 C166 0.930 . S
H195 C175 0.930 . S
H196 C187 0.929 . S
H197 C190 0.930 . S
C198 C199 1.170 . S
C198 C200 1.380 . S
C199 C198 1.170 . S
C200 C198 1.380 . S
C200 C201 1.170 . S
C201 C200 1.170 . S
C202 C203 1.170 . S
C202 C204 1.380 . S
C203 C202 1.170 . S
C204 C202 1.380 . S
C204 C205 1.170 . S
C205 C204 1.170 . S
C206 C207 1.170 . S
C206 C208 1.380 . S
C207 C206 1.170 . S
C208 C206 1.380 . S
C208 C209 1.170 . S
C209 C208 1.170 . S
C210 C211 1.170 . S
C210 C212 1.380 . S
C211 C210 1.170 . S
C212 C210 1.380 . S
C212 C213 1.170 . S
C213 C212 1.170 . S
C214 C215 1.170 . S
C214 C216 1.380 . S
C215 C214 1.170 . S
C216 C214 1.380 . S
C216 C217 1.170 . S
C217 C216 1.170 . S
C218 C219 1.170 . S
C218 C220 1.380 . S
C219 C218 1.170 . S
C220 C218 1.380 . S
C220 C221 1.170 . S
C221 C220 1.170 . S
C222 C223 1.170 . S
C222 C224 1.380 1_655 S
C223 C222 1.170 . S
C224 C222 1.380 1_455 S
C224 C225 1.170 . S
C225 C224 1.170 . S
C226 C227 1.170 . S
C226 C228 1.380 . S
C227 C226 1.170 . S
C228 C226 1.380 . S
C228 C229 1.170 . S
C229 C228 1.170 . S
C230 C231 1.170 . S
C230 C232 1.380 1_565 S
C231 C230 1.170 . S
C232 C230 1.380 1_545 S
C232 C233 1.170 . S
C233 C232 1.170 . S
C234 C235 1.170 . S
C234 C236 1.380 . S
C235 C234 1.170 . S
C236 C234 1.380 . S
C236 C237 1.170 . S
C237 C236 1.170 . S
C238 C239 1.170 . S
C238 C240 1.380 . S
C239 C238 1.170 . S
C240 C238 1.380 . S
C240 C241 1.170 . S
C241 C240 1.170 . S
C242 C243 1.170 . S
C242 C244 1.380 . S
C243 C242 1.170 . S
C244 C242 1.380 . S
C244 C245 1.170 . S
C245 C244 1.170 . S
C246 C247 1.170 . S
C246 C248 1.380 1_554 S
C247 C246 1.170 . S
C248 C246 1.380 1_556 S
C248 C249 1.170 1_455 S
C249 C248 1.170 1_655 S
C250 C251 1.170 . S
C250 C252 1.380 . S
C251 C250 1.170 . S
C252 C250 1.380 . S
C252 C253 1.170 . S
C253 C252 1.170 . S
C254 C255 1.170 . S
C254 C256 1.380 . S
C255 C254 1.170 . S
C256 C254 1.380 . S
C256 C257 1.170 . S
C257 C256 1.170 . S
C199 C18 1.953 . S
C201 C117 1.940 . S
C203 C7 1.608 . S
C205 C120 1.612 . S
C207 C106 1.619 . S
C209 C21 1.611 . S
C211 C40 1.608 . S
C213 C153 1.614 . S
C215 C150 1.961 . S
C217 C51 1.938 . S
C219 C54 1.605 . S
C221 C139 1.624 . S
C223 C84 1.957 . S
C225 C183 1.938 . S
C227 C73 1.627 . S
C229 C186 1.601 . S
C231 C172 1.633 . S
C233 C87 1.587 . S
C235 N35 2.117 1_455 S
C237 N2 2.119 . S
C239 N101 2.107 . S
C241 N68 2.103 . S
C243 N167 2.116 . S
C245 N134 2.119 . S
C247 N13 0.707 . S
C249 N46 0.571 1_655 S
C251 N112 0.578 . S
C253 N79 0.711 . S
C255 N178 0.577 . S
C257 N145 0.711 . S
