# Generated by pormake.
# Topology kag, (6)-cn, num edge types: 1
# Building blocks:
#     Node 0, Type 0, BuildingBlock: UKALOJ_clean_sbu_0, # of connection points: 6
#     Node 1, Type 0, BuildingBlock: UKALOJ_clean_sbu_0, # of connection points: 6
#     Node 2, Type 0, BuildingBlock: UKALOJ_clean_sbu_0, # of connection points: 6
#     Edge 3, Type (0, 0), None
#     Edge 4, Type (0, 0), None
#     Edge 5, Type (0, 0), None
#     Edge 6, Type (0, 0), None
#     Edge 7, Type (0, 0), None
#     Edge 8, Type (0, 0), None
#     Edge 9, Type (0, 0), None
#     Edge 10, Type (0, 0), None
#     Edge 11, Type (0, 0), None
# Relax obj value: 0.088
# Max RMSD: 0.169
# Mean RMSD: 0.169
data_MOF--net-kag--node1-UKALOJ_clean_sbu_0--edge1-none
_symmetry_space_group_name_H-M    P1
_symmetry_Int_Tables_number       1
_symmetry_cell_setting            triclinic
loop_
_symmetry_equiv_pos_as_xyz
'x, y, z'
_cell_length_a     13.594343
_cell_length_b     13.593909
_cell_length_c     12.050623
_cell_angle_alpha  90.00022
_cell_angle_beta   90.00013
_cell_angle_gamma 119.99793
loop_
_atom_site_label
_atom_site_type_symbol
_atom_site_fract_x
_atom_site_fract_y
_atom_site_fract_z
_atom_type_partial_charge
Zn0 Zn -0.05367 0.46637 0.93091 0.0
O1 O 0.0726 0.63969 0.92008 0.0
C2 C 0.11666 0.41145 1.00936 0.0
Zn3 Zn -0.04951 0.46845 0.11633 0.0
C4 C 0.11642 0.69152 1.01029 0.0
O5 O 0.07924 0.6405 0.10234 0.0
C6 C 0.78017 0.2432 0.03789 0.0
O7 O 0.82421 0.51549 0.12715 0.0
O8 O 0.81758 0.50967 0.94489 0.0
N9 N -0.02403 0.478 0.28476 0.0
C10 C 0.90988 0.4649 0.37341 0.0
C11 C 0.07081 0.49712 0.43482 0.0
N12 N 0.07563 0.49807 0.32331 0.0
N13 N -0.03142 0.47861 0.46845 0.0
C14 C -0.01289 0.50337 0.67388 0.0
C15 C 0.82615 0.3748 0.61233 0.0
N16 N 0.9209 0.45043 0.76247 0.0
N17 N 0.82122 0.37094 0.72385 0.0
N18 N 0.9285 0.45836 0.57881 0.0
H19 H 0.10223 0.67816 0.70872 0.0
H20 H 0.15367 0.62258 0.60397 0.0
H21 H 0.15308 0.58401 0.74737 0.0
C22 C 0.10599 0.60183 0.68275 0.0
C23 C 0.79104 0.44461 0.36461 0.0
H24 H 0.79487 0.52464 0.33832 0.0
H25 H 0.74351 0.41809 0.44349 0.0
H26 H 0.74376 0.37947 0.30024 0.0
O27 O 0.8211 0.29589 0.12842 0.0
O28 O 0.82024 0.29345 0.94621 0.0
C29 C 0.7804 0.52351 0.03694 0.0
O30 O 0.07572 0.4232 0.91883 0.0
O31 O 0.07659 0.42162 0.10104 0.0
Zn32 Zn 0.44928 -0.03034 0.9309 0.0
O33 O 0.49634 0.84339 0.92007 0.0
C34 C 0.22405 0.79935 1.00935 0.0
Zn35 Zn 0.4472 -0.0345 0.11633 0.0
C36 C 0.50435 0.79957 1.01028 0.0
O37 O 0.4905 0.83674 0.10233 0.0
C38 C 0.39228 0.13582 0.0379 0.0
O39 O 0.62052 0.09177 0.12716 0.0
O40 O 0.62133 0.09841 0.94488 0.0
N41 N 0.43128 0.94002 0.28476 0.0
C42 C 0.48427 0.00611 0.37341 0.0
C43 C 0.35556 0.84518 0.43482 0.0
N44 N 0.35169 0.84036 0.32331 0.0
N45 N 0.43928 0.9474 0.46845 0.0
C46 C 0.44552 0.92889 0.67388 0.0
C47 C 0.47789 0.08984 0.61233 0.0
N48 N 0.45878 -0.0049 0.76247 0.0
N49 N 0.47895 0.09477 0.72385 0.0
N50 N 0.45911 -0.01251 0.57881 0.0
H51 H 0.50521 0.81378 0.70872 0.0
H52 H 0.39821 0.76233 0.60397 0.0
H53 H 0.36022 0.7629 0.74736 0.0
C54 C 0.42512 0.81001 0.68275 0.0
C55 C 0.58283 0.12495 0.36461 0.0
H56 H 0.65903 0.1211 0.33834 0.0
H57 H 0.60384 0.17248 0.44349 0.0
H58 H 0.56498 0.17222 0.30023 0.0
O59 O 0.40404 0.09489 0.12843 0.0
O60 O 0.40245 0.09575 0.94621 0.0
C61 C 0.67234 0.13557 0.03694 0.0
O62 O 0.27673 0.84027 0.91881 0.0
O63 O 0.27428 0.8394 0.10104 0.0
Zn64 Zn 0.44754 0.46879 0.11634 0.0
O65 O 0.40049 0.29547 0.12717 0.0
C66 C 0.67277 0.5237 0.03788 0.0
Zn67 Zn 0.44962 0.4667 0.9309 0.0
C68 C 0.39246 0.24364 0.03696 0.0
O69 O 0.40632 0.29465 0.9449 0.0
C70 C 0.50455 0.69194 1.00933 0.0
O71 O 0.27631 0.41967 0.92008 0.0
O72 O 0.27549 0.4255 0.10236 0.0
N73 N 0.46554 0.45714 0.76247 0.0
C74 C 0.41254 0.47023 0.67382 0.0
C75 C 0.54129 0.43805 0.61241 0.0
N76 N 0.54516 0.4371 0.72393 0.0
N77 N 0.45755 0.45653 0.57879 0.0
C78 C 0.45133 0.43179 0.37335 0.0
C79 C 0.41891 0.56034 0.43491 0.0
N80 N 0.43804 0.48473 0.28476 0.0
N81 N 0.41785 0.56421 0.32339 0.0
N82 N 0.43772 0.47679 0.46843 0.0
H83 H 0.39169 0.257 0.33854 0.0
H84 H 0.49874 0.31261 0.44325 0.0
H85 H 0.53666 0.35115 0.29984 0.0
C86 C 0.47177 0.33334 0.36448 0.0
C87 C 0.31397 0.49048 0.68261 0.0
H88 H 0.23779 0.41044 0.70893 0.0
H89 H 0.29292 0.51696 0.60373 0.0
H90 H 0.33182 0.55564 0.74697 0.0
O91 O 0.49278 0.63925 0.9188 0.0
O92 O 0.49437 0.64171 0.10103 0.0
C93 C 0.22448 0.41164 1.0103 0.0
O94 O 0.62009 0.51194 0.12842 0.0
O95 O 0.62254 0.51353 0.94619 0.0
loop_
_geom_bond_atom_site_label_1
_geom_bond_atom_site_label_2
_geom_bond_distance
_geom_bond_site_symmetry_2
_ccdc_geom_bond_type
Zn0 O1 2.055 1_655 S
Zn0 O8 2.046 . S
Zn0 N16 2.036 . S
Zn0 O28 2.053 . S
Zn0 O30 2.066 1_655 S
O1 Zn0 2.055 1_455 S
O1 C4 1.259 . S
C2 O30 1.256 . S
C2 O31 1.244 1_556 S
Zn3 O5 2.046 . S
Zn3 O7 2.055 1_455 S
Zn3 N9 2.036 . S
Zn3 O27 2.066 1_455 S
Zn3 O31 2.053 . S
C4 O1 1.259 . S
C4 O5 1.254 1_556 S
O5 Zn3 2.046 . S
O5 C4 1.254 1_554 S
C6 O27 1.256 . S
C6 O28 1.244 1_554 S
O7 Zn3 2.055 1_655 S
O7 C29 1.259 . S
O8 Zn0 2.046 . S
O8 C29 1.254 1_556 S
N9 Zn3 2.036 . S
N9 C10 1.298 1_455 S
N9 N12 1.398 . S
C10 N9 1.298 1_655 S
C10 N13 1.367 . S
C10 C23 1.481 . S
C11 N12 1.299 . S
C11 N13 1.379 1_455 S
N12 N9 1.398 . S
N12 C11 1.299 . S
N13 C10 1.367 . S
N13 C11 1.379 1_655 S
C14 N16 1.298 1_455 S
C14 N18 1.367 . S
C14 C22 1.481 . S
C15 N17 1.299 . S
C15 N18 1.379 1_655 S
N16 Zn0 2.036 . S
N16 C14 1.298 1_655 S
N16 N17 1.398 . S
N17 C15 1.299 . S
N17 N16 1.398 . S
N18 C14 1.367 . S
N18 C15 1.379 1_455 S
H19 C22 0.980 . S
H20 C22 0.981 . S
H21 C22 0.981 . S
C22 C14 1.481 . S
C22 H19 0.980 . S
C22 H20 0.981 . S
C22 H21 0.981 . S
C23 C10 1.481 . S
C23 H24 0.980 . S
C23 H25 0.981 . S
C23 H26 0.981 . S
H24 C23 0.980 . S
H25 C23 0.981 . S
H26 C23 0.981 . S
O27 Zn3 2.066 1_655 S
O27 C6 1.256 . S
O28 Zn0 2.053 . S
O28 C6 1.244 1_556 S
C29 O7 1.259 . S
C29 O8 1.254 1_554 S
O30 Zn0 2.066 1_455 S
O30 C2 1.256 . S
O31 C2 1.244 1_554 S
O31 Zn3 2.053 . S
Zn32 O33 2.055 1_545 S
Zn32 O40 2.046 . S
Zn32 N48 2.036 . S
Zn32 O60 2.053 . S
Zn32 O62 2.066 1_545 S
O33 Zn32 2.055 1_565 S
O33 C36 1.259 . S
C34 O62 1.256 . S
C34 O63 1.244 1_556 S
Zn35 O37 2.046 . S
Zn35 O39 2.055 1_565 S
Zn35 N41 2.036 . S
Zn35 O59 2.066 1_565 S
Zn35 O63 2.053 . S
C36 O33 1.259 . S
C36 O37 1.254 1_556 S
O37 Zn35 2.046 . S
O37 C36 1.254 1_554 S
C38 O59 1.256 . S
C38 O60 1.244 1_554 S
O39 Zn35 2.055 1_545 S
O39 C61 1.259 . S
O40 Zn32 2.046 . S
O40 C61 1.254 1_556 S
N41 Zn35 2.036 . S
N41 C42 1.298 1_565 S
N41 N44 1.398 . S
C42 N41 1.298 1_545 S
C42 N45 1.367 . S
C42 C55 1.481 . S
C43 N44 1.299 . S
C43 N45 1.379 1_565 S
N44 N41 1.398 . S
N44 C43 1.299 . S
N45 C42 1.367 . S
N45 C43 1.379 1_545 S
C46 N48 1.298 1_565 S
C46 N50 1.367 . S
C46 C54 1.481 . S
C47 N49 1.299 . S
C47 N50 1.379 1_545 S
N48 Zn32 2.036 . S
N48 C46 1.298 1_545 S
N48 N49 1.398 . S
N49 C47 1.299 . S
N49 N48 1.398 . S
N50 C46 1.367 . S
N50 C47 1.379 1_565 S
H51 C54 0.980 . S
H52 C54 0.981 . S
H53 C54 0.981 . S
C54 C46 1.481 . S
C54 H51 0.980 . S
C54 H52 0.981 . S
C54 H53 0.981 . S
C55 C42 1.481 . S
C55 H56 0.980 . S
C55 H57 0.981 . S
C55 H58 0.981 . S
H56 C55 0.980 . S
H57 C55 0.981 . S
H58 C55 0.981 . S
O59 Zn35 2.066 1_545 S
O59 C38 1.256 . S
O60 Zn32 2.053 . S
O60 C38 1.244 1_556 S
C61 O39 1.259 . S
C61 O40 1.254 1_554 S
O62 Zn32 2.066 1_565 S
O62 C34 1.256 . S
O63 C34 1.244 1_554 S
O63 Zn35 2.053 . S
Zn64 O65 2.055 . S
Zn64 O72 2.046 . S
Zn64 N80 2.036 . S
Zn64 O92 2.053 . S
Zn64 O94 2.066 . S
O65 Zn64 2.055 . S
O65 C68 1.259 . S
C66 O94 1.256 . S
C66 O95 1.244 1_554 S
Zn67 O69 2.046 . S
Zn67 O71 2.055 . S
Zn67 N73 2.036 . S
Zn67 O91 2.066 . S
Zn67 O95 2.053 . S
C68 O65 1.259 . S
C68 O69 1.254 1_554 S
O69 Zn67 2.046 . S
O69 C68 1.254 1_556 S
C70 O91 1.256 . S
C70 O92 1.244 1_556 S
O71 Zn67 2.055 . S
O71 C93 1.259 . S
O72 Zn64 2.046 . S
O72 C93 1.254 1_554 S
N73 Zn67 2.036 . S
N73 C74 1.298 . S
N73 N76 1.398 . S
C74 N73 1.298 . S
C74 N77 1.367 . S
C74 C87 1.481 . S
C75 N76 1.299 . S
C75 N77 1.379 . S
N76 N73 1.398 . S
N76 C75 1.299 . S
N77 C74 1.367 . S
N77 C75 1.379 . S
C78 N80 1.298 . S
C78 N82 1.367 . S
C78 C86 1.481 . S
C79 N81 1.299 . S
C79 N82 1.379 . S
N80 Zn64 2.036 . S
N80 C78 1.298 . S
N80 N81 1.398 . S
N81 C79 1.299 . S
N81 N80 1.398 . S
N82 C78 1.367 . S
N82 C79 1.379 . S
H83 C86 0.980 . S
H84 C86 0.981 . S
H85 C86 0.981 . S
C86 C78 1.481 . S
C86 H83 0.980 . S
C86 H84 0.981 . S
C86 H85 0.981 . S
C87 C74 1.481 . S
C87 H88 0.980 . S
C87 H89 0.981 . S
C87 H90 0.981 . S
H88 C87 0.980 . S
H89 C87 0.981 . S
H90 C87 0.981 . S
O91 Zn67 2.066 . S
O91 C70 1.256 . S
O92 Zn64 2.053 . S
O92 C70 1.244 1_554 S
C93 O71 1.259 . S
C93 O72 1.254 1_556 S
O94 Zn64 2.066 . S
O94 C66 1.256 . S
O95 C66 1.244 1_556 S
O95 Zn67 2.053 . S
N18 N13 1.402 1_455 S
N45 N50 1.402 1_545 S
N77 N82 1.402 . S
C2 C93 1.304 . S
C61 C6 1.304 . S
C36 C70 1.304 . S
C29 C66 1.304 . S
C4 C34 1.304 . S
C68 C38 1.304 . S
