# Generated by pormake.
# Topology sra, (4)-cn, num edge types: 1
# Building blocks:
#     Node 0, Type 0, BuildingBlock: QUQFOY_clean_sbu_1, # of connection points: 4
#     Node 1, Type 0, BuildingBlock: QUQFOY_clean_sbu_1, # of connection points: 4
#     Node 2, Type 0, BuildingBlock: QUQFOY_clean_sbu_1, # of connection points: 4
#     Node 3, Type 0, BuildingBlock: QUQFOY_clean_sbu_1, # of connection points: 4
#     Node 4, Type 0, BuildingBlock: QUQFOY_clean_sbu_1, # of connection points: 4
#     Node 5, Type 0, BuildingBlock: QUQFOY_clean_sbu_1, # of connection points: 4
#     Node 6, Type 0, BuildingBlock: QUQFOY_clean_sbu_1, # of connection points: 4
#     Node 7, Type 0, BuildingBlock: QUQFOY_clean_sbu_1, # of connection points: 4
#     Edge 8, Type (0, 0), None
#     Edge 9, Type (0, 0), None
#     Edge 10, Type (0, 0), None
#     Edge 11, Type (0, 0), None
#     Edge 12, Type (0, 0), None
#     Edge 13, Type (0, 0), None
#     Edge 14, Type (0, 0), None
#     Edge 15, Type (0, 0), None
#     Edge 16, Type (0, 0), None
#     Edge 17, Type (0, 0), None
#     Edge 18, Type (0, 0), None
#     Edge 19, Type (0, 0), None
#     Edge 20, Type (0, 0), None
#     Edge 21, Type (0, 0), None
#     Edge 22, Type (0, 0), None
#     Edge 23, Type (0, 0), None
# Relax obj value: 0.068
# Max RMSD: 0.070
# Mean RMSD: 0.070
data_MOF--net-sra--node1-QUQFOY_clean_sbu_1--edge1-none
_symmetry_space_group_name_H-M    P1
_symmetry_Int_Tables_number       1
_symmetry_cell_setting            triclinic
loop_
_symmetry_equiv_pos_as_xyz
'x, y, z'
_cell_length_a     12.716959
_cell_length_b     22.633256
_cell_length_c     19.036277
_cell_angle_alpha  89.999961
_cell_angle_beta   90.0
_cell_angle_gamma 89.999903
loop_
_atom_site_label
_atom_site_type_symbol
_atom_site_fract_x
_atom_site_fract_y
_atom_site_fract_z
_atom_type_partial_charge
O0 O 0.9064 0.14027 0.10943 0.0
Cd1 Cd 1.0364 0.15417 0.04633 0.0
Cd2 Cd 0.12688 0.15554 0.16754 0.0
O3 O 0.99288 0.11606 0.20554 0.0
O4 O 0.99837 0.12173 -0.0474 0.0
O5 O 0.12018 0.08171 0.02126 0.0
C6 C 0.06484 0.07986 -0.03554 0.0
C7 C 0.29986 0.12712 0.18762 0.0
C8 C 0.90672 0.12161 0.17241 0.0
C9 C 0.1035 0.27132 0.09381 0.0
O10 O 0.11174 0.24493 0.15243 0.0
O11 O 0.0868 0.24192 0.03789 0.0
O12 O 0.2413 0.14563 0.23836 0.0
O13 O 0.25776 0.1201 0.12647 0.0
O14 O 0.30774 0.46726 0.10943 0.0
Cd15 Cd 0.17774 0.45336 0.04633 0.0
Cd16 Cd 0.08726 0.45199 0.16754 0.0
O17 O 0.22125 0.49147 0.20555 0.0
O18 O 0.21577 0.4858 -0.0474 0.0
O19 O 0.09396 0.52582 0.02126 0.0
C20 C 0.1493 0.52767 -0.03554 0.0
C21 C 0.91428 0.48041 0.18762 0.0
C22 C 0.30742 0.48592 0.17241 0.0
C23 C 0.11064 0.33621 0.09381 0.0
O24 O 0.1024 0.3626 0.15243 0.0
O25 O 0.12734 0.36561 0.03789 0.0
O26 O 0.97284 0.4619 0.23836 0.0
O27 O 0.95638 0.48743 0.12647 0.0
O28 O 0.9064 0.96726 0.7743 0.0
Cd29 Cd 1.0364 0.95336 0.83741 0.0
Cd30 Cd 0.12688 0.95199 0.7162 0.0
O31 O 0.99289 0.99147 0.67819 0.0
O32 O 0.99836 0.9858 0.93114 0.0
O33 O 0.12018 1.02582 0.86247 0.0
C34 C 0.06483 1.02767 0.91926 0.0
C35 C 0.29986 0.98041 0.69611 0.0
C36 C 0.90672 0.98592 0.71133 0.0
C37 C 0.1035 0.83621 0.78993 0.0
O38 O 0.11174 0.8626 0.73131 0.0
O39 O 0.0868 0.86561 0.84585 0.0
O40 O 0.2413 0.9619 0.64538 0.0
O41 O 0.25776 0.98743 0.75726 0.0
O42 O 0.30774 0.64027 0.7743 0.0
Cd43 Cd 0.17774 0.65417 0.83741 0.0
Cd44 Cd 0.08726 0.65554 0.7162 0.0
O45 O 0.22125 0.61606 0.67819 0.0
O46 O 0.21578 0.62173 0.93114 0.0
O47 O 0.09396 0.58171 0.86247 0.0
C48 C 0.14931 0.57986 0.91926 0.0
C49 C 0.91428 0.62712 0.69611 0.0
C50 C 0.30742 0.62161 0.71133 0.0
C51 C 0.11064 0.77132 0.78993 0.0
O52 O 0.1024 0.74493 0.73131 0.0
O53 O 0.12734 0.74192 0.84585 0.0
O54 O 0.97283 0.64563 0.64538 0.0
O55 O 0.95638 0.6201 0.75726 0.0
O56 O 0.4064 0.64026 0.60943 0.0
Cd57 Cd 0.5364 0.65417 0.54633 0.0
Cd58 Cd 0.62688 0.65554 0.66756 0.0
O59 O 0.49288 0.61606 0.70556 0.0
O60 O 0.49838 0.62174 0.45259 0.0
O61 O 0.62019 0.58171 0.52126 0.0
C62 C 0.56485 0.57986 0.46446 0.0
C63 C 0.79985 0.62712 0.68763 0.0
C64 C 0.40673 0.6216 0.6724 0.0
C65 C 0.6035 0.77132 0.59382 0.0
O66 O 0.61174 0.74493 0.65244 0.0
O67 O 0.5868 0.74192 0.53789 0.0
O68 O 0.7413 0.64563 0.73838 0.0
O69 O 0.75776 0.6201 0.62648 0.0
O70 O 0.80774 0.96727 0.60943 0.0
Cd71 Cd 0.67774 0.95336 0.54633 0.0
Cd72 Cd 0.58725 0.95199 0.66756 0.0
O73 O 0.72125 0.99147 0.70556 0.0
O74 O 0.71576 0.98579 0.4526 0.0
O75 O 0.59395 1.02582 0.52126 0.0
C76 C 0.64928 1.02767 0.46446 0.0
C77 C 0.41429 0.98041 0.68763 0.0
C78 C 0.80741 0.98593 0.6724 0.0
C79 C 0.61064 0.83621 0.59382 0.0
O80 O 0.6024 0.8626 0.65244 0.0
O81 O 0.62734 0.86561 0.53789 0.0
O82 O 0.47283 0.9619 0.73838 0.0
O83 O 0.45638 0.98743 0.62648 0.0
O84 O 0.4064 0.46727 0.27431 0.0
Cd85 Cd 0.5364 0.45336 0.33741 0.0
Cd86 Cd 0.62689 0.45199 0.21618 0.0
O87 O 0.49289 0.49147 0.17818 0.0
O88 O 0.49838 0.4858 0.43114 0.0
O89 O 0.62019 0.52582 0.36247 0.0
C90 C 0.56485 0.52767 0.41926 0.0
C91 C 0.79985 0.48041 0.1961 0.0
C92 C 0.40673 0.48593 0.21133 0.0
C93 C 0.6035 0.33621 0.28992 0.0
O94 O 0.61174 0.3626 0.2313 0.0
O95 O 0.5868 0.36561 0.34584 0.0
O96 O 0.74131 0.4619 0.14536 0.0
O97 O 0.75776 0.48743 0.25725 0.0
O98 O 0.80774 0.14026 0.27431 0.0
Cd99 Cd 0.67774 0.15417 0.33741 0.0
Cd100 Cd 0.58725 0.15554 0.21618 0.0
O101 O 0.72125 0.11606 0.17818 0.0
O102 O 0.71576 0.12173 0.43114 0.0
O103 O 0.59395 0.08171 0.36247 0.0
C104 C 0.64929 0.07986 0.41926 0.0
C105 C 0.41429 0.12712 0.1961 0.0
C106 C 0.80741 0.1216 0.21133 0.0
C107 C 0.61064 0.27132 0.28992 0.0
O108 O 0.6024 0.24493 0.2313 0.0
O109 O 0.62734 0.24192 0.34584 0.0
O110 O 0.47283 0.14563 0.14536 0.0
O111 O 0.45638 0.1201 0.25725 0.0
loop_
_geom_bond_atom_site_label_1
_geom_bond_atom_site_label_2
_geom_bond_distance
_geom_bond_site_symmetry_2
_ccdc_geom_bond_type
O0 Cd1 2.223 . S
O0 C8 1.315 . S
Cd1 O0 2.223 . S
Cd1 O4 2.302 . S
Cd1 O5 2.439 1_655 S
Cd1 O11 2.240 1_655 S
Cd2 O3 2.240 1_455 S
Cd2 O10 2.223 . S
Cd2 O12 2.297 . S
Cd2 O13 2.439 . S
O3 Cd2 2.240 1_655 S
O3 C8 1.279 . S
O4 Cd1 2.302 . S
O4 C6 1.250 . S
O5 Cd1 2.439 1_455 S
O5 C6 1.208 1_455 S
C6 O4 1.250 . S
C6 O5 1.208 1_655 S
C7 O12 1.247 . S
C7 O13 1.208 . S
C8 O0 1.315 . S
C8 O3 1.279 . S
C9 O10 1.315 . S
C9 O11 1.279 . S
O10 Cd2 2.223 . S
O10 C9 1.315 . S
O11 Cd1 2.240 1_455 S
O11 C9 1.279 . S
O12 Cd2 2.297 . S
O12 C7 1.247 . S
O13 Cd2 2.439 . S
O13 C7 1.208 . S
O14 Cd15 2.223 . S
O14 C22 1.315 . S
Cd15 O14 2.223 . S
Cd15 O18 2.302 . S
Cd15 O19 2.439 . S
Cd15 O25 2.240 . S
Cd16 O17 2.240 . S
Cd16 O24 2.223 . S
Cd16 O26 2.297 1_455 S
Cd16 O27 2.439 1_455 S
O17 Cd16 2.240 . S
O17 C22 1.279 . S
O18 Cd15 2.302 . S
O18 C20 1.250 . S
O19 Cd15 2.439 . S
O19 C20 1.208 . S
C20 O18 1.250 . S
C20 O19 1.208 . S
C21 O26 1.247 . S
C21 O27 1.208 . S
C22 O14 1.315 . S
C22 O17 1.279 . S
C23 O24 1.315 . S
C23 O25 1.279 . S
O24 Cd16 2.223 . S
O24 C23 1.315 . S
O25 Cd15 2.240 . S
O25 C23 1.279 . S
O26 Cd16 2.297 1_655 S
O26 C21 1.247 . S
O27 Cd16 2.439 1_655 S
O27 C21 1.208 . S
O28 Cd29 2.223 . S
O28 C36 1.315 . S
Cd29 O28 2.223 . S
Cd29 O32 2.302 . S
Cd29 O33 2.439 1_655 S
Cd29 O39 2.240 1_655 S
Cd30 O31 2.240 1_455 S
Cd30 O38 2.223 . S
Cd30 O40 2.297 . S
Cd30 O41 2.439 . S
O31 Cd30 2.240 1_655 S
O31 C36 1.279 . S
O32 Cd29 2.302 . S
O32 C34 1.250 . S
O33 Cd29 2.439 1_455 S
O33 C34 1.208 1_455 S
C34 O32 1.250 . S
C34 O33 1.208 1_655 S
C35 O40 1.247 . S
C35 O41 1.208 . S
C36 O28 1.315 . S
C36 O31 1.279 . S
C37 O38 1.315 . S
C37 O39 1.279 . S
O38 Cd30 2.223 . S
O38 C37 1.315 . S
O39 Cd29 2.240 1_455 S
O39 C37 1.279 . S
O40 Cd30 2.297 . S
O40 C35 1.247 . S
O41 Cd30 2.439 . S
O41 C35 1.208 . S
O42 Cd43 2.223 . S
O42 C50 1.315 . S
Cd43 O42 2.223 . S
Cd43 O46 2.302 . S
Cd43 O47 2.439 . S
Cd43 O53 2.240 . S
Cd44 O45 2.240 . S
Cd44 O52 2.223 . S
Cd44 O54 2.297 1_455 S
Cd44 O55 2.439 1_455 S
O45 Cd44 2.240 . S
O45 C50 1.279 . S
O46 Cd43 2.302 . S
O46 C48 1.250 . S
O47 Cd43 2.439 . S
O47 C48 1.208 . S
C48 O46 1.250 . S
C48 O47 1.208 . S
C49 O54 1.247 . S
C49 O55 1.208 . S
C50 O42 1.315 . S
C50 O45 1.279 . S
C51 O52 1.315 . S
C51 O53 1.279 . S
O52 Cd44 2.223 . S
O52 C51 1.315 . S
O53 Cd43 2.240 . S
O53 C51 1.279 . S
O54 Cd44 2.297 1_655 S
O54 C49 1.247 . S
O55 Cd44 2.439 1_655 S
O55 C49 1.208 . S
O56 Cd57 2.223 . S
O56 C64 1.315 . S
Cd57 O56 2.223 . S
Cd57 O60 2.297 . S
Cd57 O61 2.439 . S
Cd57 O67 2.240 . S
Cd58 O59 2.240 . S
Cd58 O66 2.223 . S
Cd58 O68 2.297 . S
Cd58 O69 2.439 . S
O59 Cd58 2.240 . S
O59 C64 1.279 . S
O60 Cd57 2.297 . S
O60 C62 1.247 . S
O61 Cd57 2.439 . S
O61 C62 1.208 . S
C62 O60 1.247 . S
C62 O61 1.208 . S
C63 O68 1.247 . S
C63 O69 1.208 . S
C64 O56 1.315 . S
C64 O59 1.279 . S
C65 O66 1.315 . S
C65 O67 1.279 . S
O66 Cd58 2.223 . S
O66 C65 1.315 . S
O67 Cd57 2.240 . S
O67 C65 1.279 . S
O68 Cd58 2.297 . S
O68 C63 1.247 . S
O69 Cd58 2.439 . S
O69 C63 1.208 . S
O70 Cd71 2.223 . S
O70 C78 1.315 . S
Cd71 O70 2.223 . S
Cd71 O74 2.297 . S
Cd71 O75 2.439 . S
Cd71 O81 2.240 . S
Cd72 O73 2.240 . S
Cd72 O80 2.223 . S
Cd72 O82 2.297 . S
Cd72 O83 2.439 . S
O73 Cd72 2.240 . S
O73 C78 1.279 . S
O74 Cd71 2.297 . S
O74 C76 1.247 . S
O75 Cd71 2.439 . S
O75 C76 1.208 . S
C76 O74 1.247 . S
C76 O75 1.208 . S
C77 O82 1.247 . S
C77 O83 1.208 . S
C78 O70 1.315 . S
C78 O73 1.279 . S
C79 O80 1.315 . S
C79 O81 1.279 . S
O80 Cd72 2.223 . S
O80 C79 1.315 . S
O81 Cd71 2.240 . S
O81 C79 1.279 . S
O82 Cd72 2.297 . S
O82 C77 1.247 . S
O83 Cd72 2.439 . S
O83 C77 1.208 . S
O84 Cd85 2.223 . S
O84 C92 1.315 . S
Cd85 O84 2.223 . S
Cd85 O88 2.297 . S
Cd85 O89 2.439 . S
Cd85 O95 2.240 . S
Cd86 O87 2.240 . S
Cd86 O94 2.223 . S
Cd86 O96 2.297 . S
Cd86 O97 2.439 . S
O87 Cd86 2.240 . S
O87 C92 1.279 . S
O88 Cd85 2.297 . S
O88 C90 1.247 . S
O89 Cd85 2.439 . S
O89 C90 1.208 . S
C90 O88 1.247 . S
C90 O89 1.208 . S
C91 O96 1.247 . S
C91 O97 1.208 . S
C92 O84 1.315 . S
C92 O87 1.279 . S
C93 O94 1.315 . S
C93 O95 1.279 . S
O94 Cd86 2.223 . S
O94 C93 1.315 . S
O95 Cd85 2.240 . S
O95 C93 1.279 . S
O96 Cd86 2.297 . S
O96 C91 1.247 . S
O97 Cd86 2.439 . S
O97 C91 1.208 . S
O98 Cd99 2.223 . S
O98 C106 1.315 . S
Cd99 O98 2.223 . S
Cd99 O102 2.297 . S
Cd99 O103 2.439 . S
Cd99 O109 2.240 . S
Cd100 O101 2.240 . S
Cd100 O108 2.223 . S
Cd100 O110 2.297 . S
Cd100 O111 2.439 . S
O101 Cd100 2.240 . S
O101 C106 1.279 . S
O102 Cd99 2.297 . S
O102 C104 1.247 . S
O103 Cd99 2.439 . S
O103 C104 1.208 . S
C104 O102 1.247 . S
C104 O103 1.208 . S
C105 O110 1.247 . S
C105 O111 1.208 . S
C106 O98 1.315 . S
C106 O101 1.279 . S
C107 O108 1.315 . S
C107 O109 1.279 . S
O108 Cd100 2.223 . S
O108 C107 1.315 . S
O109 Cd99 2.240 . S
O109 C107 1.279 . S
O110 Cd100 2.297 . S
O110 C105 1.247 . S
O111 Cd100 2.439 . S
O111 C105 1.208 . S
C23 C9 1.601 . S
C37 C51 1.601 . S
C65 C79 1.601 . S
C93 C107 1.601 . S
C105 C7 1.459 . S
C91 C21 1.459 . S
C35 C77 1.459 . S
C63 C49 1.459 . S
C78 C36 1.984 . S
C64 C50 1.983 . S
C106 C8 1.984 . S
C22 C92 1.983 . S
C6 C34 1.566 1_544 S
C48 C20 1.566 1_556 S
C90 C62 1.566 . S
C76 C104 1.566 1_565 S
