# Generated by pormake.
# Topology pcu, (6)-cn, num edge types: 1
# Building blocks:
#     Node 0, Type 0, BuildingBlock: FUNLAD_clean_sbu_0, # of connection points: 6
#     Edge 1, Type (0, 0), None
#     Edge 2, Type (0, 0), None
#     Edge 3, Type (0, 0), None
# Relax obj value: 0.000
# Max RMSD: 0.000
# Mean RMSD: 0.000
data_MOF--net-pcu--node1-FUNLAD_clean_sbu_0--edge1-none
_symmetry_space_group_name_H-M    P1
_symmetry_Int_Tables_number       1
_symmetry_cell_setting            triclinic
loop_
_symmetry_equiv_pos_as_xyz
'x, y, z'
_cell_length_a     6.9514604
_cell_length_b     6.8165457
_cell_length_c     13.439369
_cell_angle_alpha  90.335514
_cell_angle_beta   90.838022
_cell_angle_gamma 90.193723
loop_
_atom_site_label
_atom_site_type_symbol
_atom_site_fract_x
_atom_site_fract_y
_atom_site_fract_z
_atom_type_partial_charge
C0 C 0.37386 -0.01627 1.0189 0.0
N1 N 0.97453 0.98228 0.78298 0.0
C2 C 0.06411 0.13074 0.73447 0.0
C3 C 0.06521 0.13523 0.63067 0.0
C4 C 0.97885 0.98201 0.57518 0.0
C5 C 0.89016 0.82885 0.62765 0.0
C6 C 0.88711 0.83352 0.73153 0.0
Zn7 Zn 0.97567 0.98249 0.93605 0.0
C8 C 0.97853 0.58055 0.0205 0.0
N9 N -0.01717 -0.01558 0.25609 0.0
C10 C 0.12687 0.07634 0.30791 0.0
C11 C 0.83845 0.89077 0.30417 0.0
C12 C 0.83293 0.89066 0.40792 0.0
C13 C -0.01914 0.98231 0.46387 0.0
C14 C 0.13027 0.07458 0.41187 0.0
Zn15 Zn -0.01877 -0.01502 0.10315 0.0
O16 O 0.27986 -0.01534 0.9373 0.0
C17 C 0.97827 0.38696 0.02087 0.0
O18 O 0.28623 0.98257 0.10111 0.0
H19 H 0.72609 0.81619 0.26222 0.0
H20 H 0.13519 0.24686 0.77607 0.0
H21 H 0.24029 0.15078 0.26878 0.0
O22 O 0.9734 0.29321 0.93907 0.0
O23 O -0.0171 0.29546 0.10285 0.0
H24 H 0.81567 0.71692 0.77088 0.0
O25 O 0.67645 -0.01221 0.09996 0.0
O26 O 0.67106 0.98028 0.93618 0.0
O27 O -0.02042 0.67479 0.10217 0.0
O28 O 0.97777 0.67157 0.93839 0.0
C29 C 0.58292 -0.01604 1.01823 0.0
H30 H 0.13203 0.25925 0.59488 0.0
H31 H 0.8251 0.7046 0.58951 0.0
H32 H 0.71202 0.82084 0.44326 0.0
H33 H 0.25043 0.14365 0.45046 0.0
loop_
_geom_bond_atom_site_label_1
_geom_bond_atom_site_label_2
_geom_bond_distance
_geom_bond_site_symmetry_2
_ccdc_geom_bond_type
C0 O16 1.243 1_544 S
C0 O18 1.263 . S
N1 C2 1.333 1_665 S
N1 C6 1.307 . S
N1 Zn7 2.020 . S
C2 N1 1.333 1_445 S
C2 C3 1.379 . S
C2 H20 0.952 . S
C3 C2 1.379 . S
C3 C4 1.391 1_455 S
C3 H30 0.949 . S
C4 C3 1.391 1_655 S
C4 C5 1.355 1_545 S
C5 C4 1.355 1_565 S
C5 C6 1.370 . S
C5 H31 0.950 . S
C6 N1 1.307 . S
C6 C5 1.370 . S
C6 H24 0.948 . S
Zn7 N1 2.020 . S
Zn7 O16 2.039 1_655 S
Zn7 O22 2.034 1_665 S
Zn7 O26 2.025 . S
Zn7 O28 2.024 . S
C8 O27 1.246 1_556 S
C8 O28 1.249 . S
N9 C10 1.307 . S
N9 C11 1.333 1_445 S
N9 Zn15 2.020 . S
C10 N9 1.307 . S
C10 C14 1.370 . S
C10 H21 0.948 . S
C11 N9 1.333 1_665 S
C11 C12 1.379 . S
C11 H19 0.952 . S
C12 C11 1.379 . S
C12 C13 1.391 1_655 S
C12 H32 0.949 . S
C13 C12 1.391 1_455 S
C13 C14 1.355 1_565 S
C14 C10 1.370 . S
C14 C13 1.355 1_545 S
C14 H33 0.950 . S
Zn15 N9 2.020 . S
Zn15 O18 2.025 . S
Zn15 O23 2.024 . S
Zn15 O25 2.039 1_455 S
Zn15 O27 2.034 1_445 S
O16 C0 1.243 1_566 S
O16 Zn7 2.039 1_455 S
C17 O22 1.246 1_554 S
C17 O23 1.249 . S
O18 C0 1.263 . S
O18 Zn15 2.025 . S
H19 C11 0.952 . S
H20 C2 0.952 . S
H21 C10 0.948 . S
O22 Zn7 2.034 1_445 S
O22 C17 1.246 1_556 S
O23 Zn15 2.024 . S
O23 C17 1.249 . S
H24 C6 0.948 . S
O25 Zn15 2.039 1_655 S
O25 C29 1.245 1_544 S
O26 Zn7 2.025 . S
O26 C29 1.260 . S
O27 C8 1.246 1_554 S
O27 Zn15 2.034 1_665 S
O28 Zn7 2.024 . S
O28 C8 1.249 . S
C29 O25 1.245 1_566 S
C29 O26 1.260 . S
H30 C3 0.949 . S
H31 C5 0.950 . S
H32 C12 0.949 . S
H33 C14 0.950 . S
C13 C4 1.500 1_465 S
C0 C29 1.499 1_544 S
C8 C17 1.500 1_656 S
