# Generated by pormake.
# Topology snp, (6)-cn, num edge types: 1
# Building blocks:
#     Node 0, Type 0, BuildingBlock: UKALOJ_clean_sbu_0, # of connection points: 6
#     Node 1, Type 0, BuildingBlock: UKALOJ_clean_sbu_0, # of connection points: 6
#     Node 2, Type 0, BuildingBlock: UKALOJ_clean_sbu_0, # of connection points: 6
#     Node 3, Type 0, BuildingBlock: UKALOJ_clean_sbu_0, # of connection points: 6
#     Edge 4, Type (0, 0), BuildingBlock: OJICUG_clean_linker_0, # of connection points: 2
#     Edge 5, Type (0, 0), BuildingBlock: OJICUG_clean_linker_0, # of connection points: 2
#     Edge 6, Type (0, 0), BuildingBlock: OJICUG_clean_linker_0, # of connection points: 2
#     Edge 7, Type (0, 0), BuildingBlock: OJICUG_clean_linker_0, # of connection points: 2
#     Edge 8, Type (0, 0), BuildingBlock: OJICUG_clean_linker_0, # of connection points: 2
#     Edge 9, Type (0, 0), BuildingBlock: OJICUG_clean_linker_0, # of connection points: 2
#     Edge 10, Type (0, 0), BuildingBlock: OJICUG_clean_linker_0, # of connection points: 2
#     Edge 11, Type (0, 0), BuildingBlock: OJICUG_clean_linker_0, # of connection points: 2
#     Edge 12, Type (0, 0), BuildingBlock: OJICUG_clean_linker_0, # of connection points: 2
#     Edge 13, Type (0, 0), BuildingBlock: OJICUG_clean_linker_0, # of connection points: 2
#     Edge 14, Type (0, 0), BuildingBlock: OJICUG_clean_linker_0, # of connection points: 2
#     Edge 15, Type (0, 0), BuildingBlock: OJICUG_clean_linker_0, # of connection points: 2
# Relax obj value: 1.038
# Max RMSD: 0.251
# Mean RMSD: 0.249
data_MOF--net-snp--node1-UKALOJ_clean_sbu_0--edge1-OJICUG_clean_linker_0
_symmetry_space_group_name_H-M    P1
_symmetry_Int_Tables_number       1
_symmetry_cell_setting            triclinic
loop_
_symmetry_equiv_pos_as_xyz
'x, y, z'
_cell_length_a     26.250696
_cell_length_b     26.236964
_cell_length_c     14.524392
_cell_angle_alpha  96.324189
_cell_angle_beta   96.072187
_cell_angle_gamma 89.069676
loop_
_atom_site_label
_atom_site_type_symbol
_atom_site_fract_x
_atom_site_fract_y
_atom_site_fract_z
_atom_type_partial_charge
Zn0 Zn 0.2934 0.07406 0.14382 0.0
O1 O 0.2846 1.01375 1.01924 0.0
C2 C 0.26994 0.14955 0.99894 0.0
Zn3 Zn 0.21776 0.0921 0.11136 0.0
C4 C 0.23865 0.999 0.99201 0.0
O5 O 0.20244 0.02413 1.02592 0.0
C6 C 0.26346 0.16824 0.25996 0.0
O7 O 0.19944 0.05476 0.22332 0.0
O8 O 0.27202 1.01302 0.23107 0.0
N9 N 0.15009 0.11363 0.08972 0.0
C10 C 0.10653 0.1412 0.18815 0.0
C11 C 0.04287 0.127 0.96965 0.0
N12 N 0.1165 0.10598 0.97387 0.0
N13 N 0.03239 0.1513 0.11326 0.0
C14 C 0.40832 0.06294 0.11436 0.0
C15 C 0.44268 0.04289 0.24507 0.0
N16 N 0.37028 0.05918 0.16875 0.0
N17 N 0.39168 0.04659 0.2499 0.0
N18 N 0.45424 0.0534 0.16091 0.0
H19 H 0.36133 0.06067 0.98267 0.0
H20 H 0.42918 0.0528 0.97373 0.0
H21 H 0.40317 0.11483 1.00994 0.0
C22 C 0.39995 0.07308 1.01425 0.0
C23 C 0.12373 0.16243 0.28577 0.0
H24 H 0.15709 0.1406 0.31449 0.0
H25 H 0.09154 0.16251 0.32928 0.0
H26 H 0.13449 0.20277 0.28459 0.0
O27 O 0.2285 0.16148 0.1936 0.0
O28 O 0.29764 0.13328 0.26745 0.0
C29 C 0.22602 0.01796 0.25289 0.0
O30 O 0.3079 0.13812 1.05583 0.0
O31 O 0.22841 0.12696 0.99936 0.0
Zn32 Zn 0.06376 0.30043 0.644 0.0
O33 O 0.12585 0.30703 0.54695 0.0
C34 C 0.98685 0.25479 0.47602 0.0
Zn35 Zn 0.0713 0.22011 0.59815 0.0
C36 C 0.14561 0.26648 0.50716 0.0
O37 O 0.12629 0.22374 0.51394 0.0
C38 C 0.99042 0.24391 0.73877 0.0
O39 O 0.12991 0.21953 0.70548 0.0
O40 O 0.12753 0.30037 0.75825 0.0
N41 N 0.07689 0.14728 0.57839 0.0
C42 C 0.05988 0.11923 0.66339 0.0
C43 C 0.04557 0.06267 0.46463 0.0
N44 N 0.06993 0.11961 0.47966 0.0
N45 N 0.03336 0.04832 0.59996 0.0
C46 C 0.06176 0.41554 0.6118 0.0
C47 C 0.04704 0.45266 0.74441 0.0
N48 N 0.05751 0.37859 0.6681 0.0
N49 N 0.04834 0.40173 0.75045 0.0
N50 N 0.0557 0.46241 0.65823 0.0
H51 H 0.05349 0.36716 0.4811 0.0
H52 H 0.11003 0.40622 0.50148 0.0
H53 H 0.04885 0.43522 0.47089 0.0
C54 C 0.06859 0.40538 0.51027 0.0
C55 C 0.08714 0.12797 0.76066 0.0
H56 H 0.12855 0.134 0.75736 0.0
H57 H 0.08372 0.09358 0.79735 0.0
H58 H 0.07117 0.16207 0.79992 0.0
O59 O 1.01159 0.21098 0.68507 0.0
O60 O 1.00557 0.29024 0.74387 0.0
C61 C 0.14878 0.2564 0.76095 0.0
O62 O 0.99721 0.29683 0.52814 0.0
O63 O 0.01547 0.21659 0.48753 0.0
Zn64 Zn 0.89652 0.04769 0.09074 0.0
O65 O 0.89722 0.98976 0.98276 0.0
C66 C 0.87045 0.12782 0.95314 0.0
Zn67 Zn 0.8159 0.05411 1.05213 0.0
C68 C 0.85963 0.96997 0.9307 0.0
O69 O 0.81543 0.99002 0.93778 0.0
C70 C 0.86228 0.13151 0.21752 0.0
O71 O 0.81175 0.99188 0.15044 0.0
O72 O 0.8953 0.99197 0.17437 0.0
N73 N 0.73779 0.0595 1.03096 0.0
C74 C 0.7013 0.05533 0.08841 0.0
C75 C 0.66343 0.07019 0.95687 0.0
N76 N 0.71418 0.06873 0.94928 0.0
N77 N 0.65425 0.06159 1.04338 0.0
C78 C 0.99724 0.06055 1.0217 0.0
C79 C 0.05269 0.07589 0.22078 0.0
N80 N 0.96868 0.04426 0.10697 0.0
N81 N 0.99587 0.05181 0.20571 0.0
N82 N 0.06804 0.08702 0.08562 0.0
H83 H 0.98177 0.99174 0.92781 0.0
H84 H 0.02298 0.03579 0.88781 0.0
H85 H 0.95467 0.04944 0.88535 0.0
C86 C 0.98843 0.03306 0.9245 0.0
C87 C 0.71213 0.0484 0.18965 0.0
H88 H 0.71133 1.00691 0.198 0.0
H89 H 0.68266 0.06819 0.23024 0.0
H90 H 0.7505 0.0634 0.21778 0.0
O91 O 0.8196 0.12082 0.16817 0.0
O92 O 0.90039 0.10337 0.20236 0.0
C93 C 0.85345 0.9722 0.1857 0.0
O94 O 0.90408 0.10695 1.00504 0.0
O95 O 0.82431 0.11252 0.95073 0.0
Zn96 Zn 0.0268 0.89883 0.57957 0.0
O97 O 0.06357 0.91484 0.465 0.0
C98 C 0.95115 0.85257 0.43394 0.0
Zn99 Zn 0.04513 0.82325 0.55354 0.0
C100 C 0.10065 0.88747 0.4386 0.0
O101 O 0.10681 0.84312 0.46724 0.0
C102 C 0.96906 0.84895 0.69547 0.0
O103 O 0.10455 0.8333 0.67882 0.0
O104 O 0.09526 0.91465 0.66292 0.0
N105 N 0.05976 0.7461 0.53093 0.0
C106 C 0.05563 0.70871 0.58638 0.0
C107 C 0.07638 0.67295 0.4567 0.0
N108 N 0.07277 0.72383 0.45042 0.0
N109 N 0.0654 0.66232 0.54115 0.0
C110 C 0.97991 1.00908 0.49721 0.0
C111 C 0.99234 0.07487 0.7144 0.0
N112 N 1.00628 0.96646 0.59754 0.0
N113 N 1.01306 1.00129 0.71251 0.0
N114 N 0.96947 0.084 0.57016 0.0
H115 H 0.9801 0.9565 0.37287 0.0
H116 H 0.95998 0.02215 0.3551 0.0
H117 H 0.91831 0.98122 0.40132 0.0
C118 C 0.95893 0.99083 0.40002 0.0
C119 C 0.04491 0.7182 0.68622 0.0
H120 H 0.0572 0.75709 0.71688 0.0
H121 H 0.0649 0.68941 0.72781 0.0
H122 H 1.00312 0.71516 0.69016 0.0
O123 O 0.98062 0.81013 0.64029 0.0
O124 O 0.99198 0.89025 0.69366 0.0
C125 C 0.11985 0.87957 0.70112 0.0
O126 O 0.95723 0.88791 0.49985 0.0
O127 O 0.98637 0.81842 0.42797 0.0
C128 C 0.08166 0.07043 0.0763 0.0
C129 C 0.0977 0.16984 1.0589 0.0
H130 H 0.05413 0.97447 0.10354 0.0
C131 C 0.06885 0.2182 0.08059 0.0
H132 H 0.11446 0.03235 1.05049 0.0
C133 C 0.02195 0.18545 0.11957 0.0
C134 C 1.00217 0.12263 0.13548 0.0
H135 H 0.10017 0.19542 1.05588 0.0
H136 H 0.99347 0.21898 0.14175 0.0
C137 C 0.04883 0.0157 0.10672 0.0
C138 C 0.10497 0.06685 0.57934 0.0
C139 C 0.99855 0.114 0.54862 0.0
H140 H 0.08745 1.00182 0.63654 0.0
C141 C 0.93541 0.09453 0.56284 0.0
H142 H 0.14601 0.06022 0.58371 0.0
C143 C 0.90198 0.04821 0.60196 0.0
C144 C 0.95001 0.01941 0.62555 0.0
H145 H 0.90224 0.12292 0.53911 0.0
H146 H 0.92438 0.0171 0.62809 0.0
C147 C 0.04976 0.03464 0.60957 0.0
C148 C 0.59157 0.02137 0.12866 0.0
C149 C 0.60455 0.06036 0.07648 0.0
H150 H 0.53291 0.9886 0.196 0.0
C151 C 0.56747 0.09717 1.05303 0.0
H152 H 0.6191 0.99186 0.14585 0.0
C153 C 0.51839 0.09528 0.08147 0.0
C154 C 0.50494 0.05574 0.13202 0.0
H155 H 0.57676 0.12775 1.01339 0.0
H156 H 0.49126 0.1252 0.06494 0.0
C157 C 0.54227 0.01926 0.15661 0.0
C158 C 0.02119 0.54983 0.6506 0.0
C159 C 0.05769 0.51239 0.62664 0.0
H160 H 0.99364 0.62623 0.63885 0.0
C161 C 0.09694 0.52511 0.57469 0.0
H162 H 0.99045 0.54076 0.69019 0.0
C163 C 0.0994 0.57434 0.54683 0.0
C164 C 0.06304 0.61193 0.57128 0.0
H165 H 0.12628 0.49735 0.55728 0.0
H166 H 0.13015 0.58337 0.50726 0.0
C167 C 0.02344 0.59889 0.62226 0.0
C168 C 0.19446 0.28004 0.37284 0.0
C169 C 0.19383 0.26438 0.46179 0.0
H170 H 0.22004 0.26196 0.23766 0.0
C171 C 0.23112 0.22843 0.49095 0.0
H172 H 0.16606 0.30707 0.34782 0.0
C173 C 0.26137 0.2016 0.42756 0.0
C174 C 0.25521 0.21077 0.33391 0.0
H175 H 0.2316 0.21565 0.55938 0.0
H176 H 0.28391 0.16919 0.44907 0.0
C177 C 0.22532 0.25362 0.30949 0.0
C178 C 0.95257 0.2349 0.89058 0.0
C179 C 0.94978 0.22547 0.79312 0.0
H180 H 0.92779 0.21244 1.01665 0.0
C181 C 0.91312 0.18953 0.74847 0.0
H182 H 0.98062 0.26152 0.92792 0.0
C183 C 0.8829 0.16108 0.79936 0.0
C184 C 0.88844 0.16778 0.89714 0.0
H185 H 0.90962 0.18171 0.67361 0.0
H186 H 0.85818 0.13124 0.76236 0.0
C187 C 0.92245 0.20635 0.94153 0.0
C188 C 0.92122 0.85705 0.26598 0.0
C189 C 0.90975 0.86101 0.3584 0.0
H190 H 0.90989 0.88922 0.13663 0.0
C191 C 0.86594 0.88996 0.38158 0.0
H192 H 0.95458 0.8356 0.24556 0.0
C193 C 0.84019 0.92144 0.31876 0.0
C194 C 0.85775 0.92401 0.23163 0.0
H195 H 0.85599 0.89379 0.45255 0.0
H196 H 0.81183 0.94865 0.34324 0.0
C197 C 0.89543 0.8882 0.20341 0.0
C198 C 0.19812 0.93259 0.75291 0.0
C199 C 0.16331 0.89581 0.77278 0.0
H200 H 0.25135 0.99283 0.80696 0.0
C201 C 0.16243 0.88663 0.86602 0.0
H202 H 0.19883 0.94153 0.68195 0.0
C203 C 0.19209 0.9168 0.9379 0.0
C204 C 0.22427 0.95598 0.91826 0.0
H205 H 0.13511 0.85987 0.88413 0.0
H206 H 0.18672 0.91232 1.00951 0.0
C207 C 0.22853 0.96196 0.82457 0.0
C208 C 0.85612 0.91806 0.77253 0.0
C209 C 0.87034 0.92268 0.86885 0.0
H210 H 0.87569 0.88579 0.63852 0.0
C211 C 0.90641 0.88742 0.90438 0.0
H212 H 0.82915 0.94498 0.74275 0.0
C213 C 0.9327 0.85319 0.84501 0.0
C214 C 0.92382 0.85352 0.74839 0.0
H215 H 0.91847 0.89013 0.97828 0.0
H216 H 0.96496 0.83198 0.87484 0.0
C217 C 0.88249 0.88346 0.71286 0.0
C218 C 0.14439 0.97761 0.27886 0.0
C219 C 0.19807 0.97861 0.29711 0.0
H220 H 0.07284 0.94772 0.30459 0.0
C221 C 0.221 0.94275 0.35475 0.0
H222 H 0.12524 1.00326 0.23372 0.0
C223 C 0.1901 0.90948 0.39672 0.0
C224 C 0.13595 0.91107 0.38043 0.0
H225 H 0.26223 0.94175 0.37019 0.0
H226 H 0.20835 0.88465 0.44534 0.0
C227 C 0.11411 0.9449 0.31901 0.0
C228 C 0.20182 0.26156 0.91845 0.0
C229 C 0.1959 0.24519 0.82271 0.0
H230 H 0.23558 0.2448 1.053 0.0
C231 C 0.23057 0.20812 0.7877 0.0
H232 H 0.17562 0.28957 0.94793 0.0
C233 C 0.26549 0.18312 0.84752 0.0
C234 C 0.26633 0.19401 0.94422 0.0
H235 H 0.22716 0.19456 0.71421 0.0
H236 H 0.28623 0.15015 0.81853 0.0
C237 C 0.23702 0.23632 0.97858 0.0
C238 C 0.90555 0.21592 0.2519 0.0
C239 C 0.87325 0.17973 0.28101 0.0
H240 H 0.96745 0.26948 0.29129 0.0
C241 C 0.86965 0.1808 0.37696 0.0
H242 H 0.90957 0.21559 0.17851 0.0
C243 C 0.90136 0.21348 0.44175 0.0
C244 C 0.93864 0.24456 0.41261 0.0
H245 H 0.84636 0.15274 0.40227 0.0
H246 H 0.90097 0.21005 0.51523 0.0
C247 C 0.93851 0.24726 0.31662 0.0
loop_
_geom_bond_atom_site_label_1
_geom_bond_atom_site_label_2
_geom_bond_distance
_geom_bond_site_symmetry_2
_ccdc_geom_bond_type
Zn0 O1 2.048 1_544 S
Zn0 O8 2.046 1_545 S
Zn0 N16 2.036 . S
Zn0 O28 2.053 . S
Zn0 O30 2.066 1_554 S
O1 Zn0 2.048 1_566 S
O1 C4 1.263 . S
C2 O30 1.256 . S
C2 O31 1.244 . S
Zn3 O5 2.046 1_544 S
Zn3 O7 2.055 . S
Zn3 N9 2.036 . S
Zn3 O27 2.066 . S
Zn3 O31 2.053 1_554 S
C4 O1 1.263 . S
C4 O5 1.254 . S
O5 Zn3 2.046 1_566 S
O5 C4 1.254 . S
C6 O27 1.256 . S
C6 O28 1.244 . S
O7 Zn3 2.055 . S
O7 C29 1.259 1_545 S
O8 Zn0 2.046 1_565 S
O8 C29 1.254 . S
N9 Zn3 2.036 . S
N9 C10 1.298 . S
N9 N12 1.398 1_554 S
C10 N9 1.298 . S
C10 N13 1.367 . S
C10 C23 1.481 . S
C11 N12 1.299 . S
C11 N13 1.379 1_556 S
N12 N9 1.398 1_556 S
N12 C11 1.299 . S
N13 C10 1.367 . S
N13 C11 1.379 1_554 S
C14 N16 1.298 . S
C14 N18 1.367 . S
C14 C22 1.481 1_554 S
C15 N17 1.299 . S
C15 N18 1.379 . S
N16 Zn0 2.036 . S
N16 C14 1.298 . S
N16 N17 1.398 . S
N17 C15 1.299 . S
N17 N16 1.398 . S
N18 C14 1.367 . S
N18 C15 1.379 . S
H19 C22 0.980 . S
H20 C22 0.981 . S
H21 C22 0.981 . S
C22 C14 1.481 1_556 S
C22 H19 0.980 . S
C22 H20 0.981 . S
C22 H21 0.981 . S
C23 C10 1.481 . S
C23 H24 0.980 . S
C23 H25 0.981 . S
C23 H26 0.981 . S
H24 C23 0.980 . S
H25 C23 0.981 . S
H26 C23 0.981 . S
O27 Zn3 2.066 . S
O27 C6 1.256 . S
O28 Zn0 2.053 . S
O28 C6 1.244 . S
C29 O7 1.259 1_565 S
C29 O8 1.254 . S
O30 Zn0 2.066 1_556 S
O30 C2 1.256 . S
O31 C2 1.244 . S
O31 Zn3 2.053 1_556 S
Zn32 O33 2.055 . S
Zn32 O40 2.046 . S
Zn32 N48 2.036 . S
Zn32 O60 2.053 1_455 S
Zn32 O62 2.066 1_455 S
O33 Zn32 2.055 . S
O33 C36 1.259 . S
C34 O62 1.256 . S
C34 O63 1.244 . S
Zn35 O37 2.046 . S
Zn35 O39 2.055 . S
Zn35 N41 2.036 . S
Zn35 O59 2.066 1_455 S
Zn35 O63 2.053 1_455 S
C36 O33 1.259 . S
C36 O37 1.254 . S
O37 Zn35 2.046 . S
O37 C36 1.254 . S
C38 O59 1.256 . S
C38 O60 1.244 . S
O39 Zn35 2.055 . S
O39 C61 1.259 . S
O40 Zn32 2.046 . S
O40 C61 1.254 . S
N41 Zn35 2.036 . S
N41 C42 1.298 . S
N41 N44 1.398 . S
C42 N41 1.298 . S
C42 N45 1.367 . S
C42 C55 1.481 . S
C43 N44 1.299 . S
C43 N45 1.379 . S
N44 N41 1.398 . S
N44 C43 1.299 . S
N45 C42 1.367 . S
N45 C43 1.379 . S
C46 N48 1.298 . S
C46 N50 1.367 . S
C46 C54 1.481 . S
C47 N49 1.299 . S
C47 N50 1.379 . S
N48 Zn32 2.036 . S
N48 C46 1.298 . S
N48 N49 1.398 . S
N49 C47 1.299 . S
N49 N48 1.398 . S
N50 C46 1.367 . S
N50 C47 1.379 . S
H51 C54 0.980 . S
H52 C54 0.981 . S
H53 C54 0.981 . S
C54 C46 1.481 . S
C54 H51 0.980 . S
C54 H52 0.981 . S
C54 H53 0.981 . S
C55 C42 1.481 . S
C55 H56 0.980 . S
C55 H57 0.981 . S
C55 H58 0.981 . S
H56 C55 0.980 . S
H57 C55 0.981 . S
H58 C55 0.981 . S
O59 Zn35 2.066 1_655 S
O59 C38 1.256 . S
O60 Zn32 2.053 1_655 S
O60 C38 1.244 . S
C61 O39 1.259 . S
C61 O40 1.254 . S
O62 Zn32 2.066 1_655 S
O62 C34 1.256 . S
O63 C34 1.244 . S
O63 Zn35 2.053 1_655 S
Zn64 O65 2.055 1_544 S
Zn64 O72 2.046 1_545 S
Zn64 N80 2.036 . S
Zn64 O92 2.053 . S
Zn64 O94 2.066 1_554 S
O65 Zn64 2.055 1_566 S
O65 C68 1.259 . S
C66 O94 1.256 . S
C66 O95 1.244 . S
Zn67 O69 2.046 1_545 S
Zn67 O71 2.055 1_546 S
Zn67 N73 2.036 . S
Zn67 O91 2.066 1_556 S
Zn67 O95 2.053 . S
C68 O65 1.259 . S
C68 O69 1.254 . S
O69 Zn67 2.046 1_565 S
O69 C68 1.254 . S
C70 O91 1.256 . S
C70 O92 1.244 . S
O71 Zn67 2.055 1_564 S
O71 C93 1.259 . S
O72 Zn64 2.046 1_565 S
O72 C93 1.254 . S
N73 Zn67 2.036 . S
N73 C74 1.298 1_556 S
N73 N76 1.398 . S
C74 N73 1.298 1_554 S
C74 N77 1.367 1_554 S
C74 C87 1.481 . S
C75 N76 1.299 . S
C75 N77 1.379 . S
N76 N73 1.398 . S
N76 C75 1.299 . S
N77 C74 1.367 1_556 S
N77 C75 1.379 . S
C78 N80 1.298 1_456 S
C78 N82 1.367 1_556 S
C78 C86 1.481 1_455 S
C79 N81 1.299 1_455 S
C79 N82 1.379 . S
N80 Zn64 2.036 . S
N80 C78 1.298 1_654 S
N80 N81 1.398 . S
N81 C79 1.299 1_655 S
N81 N80 1.398 . S
N82 C78 1.367 1_554 S
N82 C79 1.379 . S
H83 C86 0.980 . S
H84 C86 0.981 1_455 S
H85 C86 0.981 . S
C86 C78 1.481 1_655 S
C86 H83 0.980 . S
C86 H84 0.981 1_655 S
C86 H85 0.981 . S
C87 C74 1.481 . S
C87 H88 0.980 . S
C87 H89 0.981 . S
C87 H90 0.981 . S
H88 C87 0.980 . S
H89 C87 0.981 . S
H90 C87 0.981 . S
O91 Zn67 2.066 1_554 S
O91 C70 1.256 . S
O92 Zn64 2.053 . S
O92 C70 1.244 . S
C93 O71 1.259 . S
C93 O72 1.254 . S
O94 Zn64 2.066 1_556 S
O94 C66 1.256 . S
O95 C66 1.244 . S
O95 Zn67 2.053 . S
Zn96 O97 2.055 . S
Zn96 O104 2.046 . S
Zn96 N112 2.036 . S
Zn96 O124 2.053 1_455 S
Zn96 O126 2.066 1_455 S
O97 Zn96 2.055 . S
O97 C100 1.259 . S
C98 O126 1.256 . S
C98 O127 1.244 . S
Zn99 O101 2.046 . S
Zn99 O103 2.055 . S
Zn99 N105 2.036 . S
Zn99 O123 2.066 1_455 S
Zn99 O127 2.053 1_455 S
C100 O97 1.259 . S
C100 O101 1.254 . S
O101 Zn99 2.046 . S
O101 C100 1.254 . S
C102 O123 1.256 . S
C102 O124 1.244 . S
O103 Zn99 2.055 . S
O103 C125 1.259 . S
O104 Zn96 2.046 . S
O104 C125 1.254 . S
N105 Zn99 2.036 . S
N105 C106 1.298 . S
N105 N108 1.398 . S
C106 N105 1.298 . S
C106 N109 1.367 . S
C106 C119 1.481 . S
C107 N108 1.299 . S
C107 N109 1.379 . S
N108 N105 1.398 . S
N108 C107 1.299 . S
N109 C106 1.367 . S
N109 C107 1.379 . S
C110 N112 1.298 1_545 S
C110 N114 1.367 . S
C110 C118 1.481 . S
C111 N113 1.301 . S
C111 N114 1.383 . S
N112 Zn96 2.036 . S
N112 C110 1.298 1_565 S
N112 N113 1.398 1_565 S
N113 C111 1.301 . S
N113 N112 1.398 1_545 S
N114 C110 1.367 . S
N114 C111 1.383 . S
H115 C118 0.980 1_565 S
H116 C118 0.981 . S
H117 C118 0.981 . S
C118 C110 1.481 . S
C118 H115 0.980 1_545 S
C118 H116 0.981 . S
C118 H117 0.981 . S
C119 C106 1.481 . S
C119 H120 0.980 . S
C119 H121 0.981 . S
C119 H122 0.981 . S
H120 C119 0.980 . S
H121 C119 0.981 . S
H122 C119 0.981 . S
O123 Zn99 2.066 1_655 S
O123 C102 1.256 . S
O124 Zn96 2.053 1_655 S
O124 C102 1.244 . S
C125 O103 1.259 . S
C125 O104 1.254 . S
O126 Zn96 2.066 1_655 S
O126 C98 1.256 . S
O127 C98 1.244 . S
O127 Zn99 2.053 1_655 S
C128 C129 1.387 1_554 S
C128 H132 0.951 1_545 S
C128 C137 1.390 . S
C129 C128 1.387 1_556 S
C129 C131 1.387 1_556 S
H130 C137 0.948 1_655 S
C131 C129 1.387 1_554 S
C131 C133 1.390 . S
C131 H135 0.950 . S
H132 C128 0.951 1_565 S
C133 C131 1.390 . S
C133 C134 1.387 1_455 S
C133 H136 0.954 . S
C134 C133 1.387 1_655 S
C134 C137 1.387 1_655 S
H135 C131 0.950 . S
H136 C133 0.954 . S
C137 C128 1.390 . S
C137 H130 0.948 1_455 S
C137 C134 1.387 1_455 S
C138 C139 1.387 . S
C138 H142 0.950 . S
C138 C147 1.390 . S
C139 C138 1.387 . S
C139 C141 1.387 1_455 S
H140 C147 0.950 . S
C141 C139 1.387 1_655 S
C141 C143 1.390 . S
C141 H145 0.950 . S
H142 C138 0.950 . S
C143 C141 1.390 . S
C143 C144 1.387 1_655 S
C143 H146 0.950 . S
C144 C143 1.387 1_455 S
C144 C147 1.387 . S
H145 C141 0.950 . S
H146 C143 0.950 . S
C147 C138 1.390 . S
C147 H140 0.950 . S
C147 C144 1.387 . S
C148 C149 1.387 . S
C148 H152 0.950 1_545 S
C148 C157 1.390 . S
C149 C148 1.387 . S
C149 C151 1.387 . S
H150 C157 0.951 1_565 S
C151 C149 1.387 . S
C151 C153 1.390 . S
C151 H155 0.946 1_554 S
H152 C148 0.950 1_565 S
C153 C151 1.390 . S
C153 C154 1.387 . S
C153 H156 0.950 . S
C154 C153 1.387 . S
C154 C157 1.387 . S
H155 C151 0.946 1_556 S
H156 C153 0.950 . S
C157 C148 1.390 . S
C157 H150 0.951 1_545 S
C157 C154 1.387 . S
C158 C159 1.387 1_655 S
C158 H162 0.950 . S
C158 C167 1.390 . S
C159 C158 1.387 1_455 S
C159 C161 1.387 . S
H160 C167 0.950 . S
C161 C159 1.387 . S
C161 C163 1.390 . S
C161 H165 0.950 . S
H162 C158 0.950 . S
C163 C161 1.390 . S
C163 C164 1.387 . S
C163 H166 0.950 . S
C164 C163 1.387 . S
C164 C167 1.387 1_455 S
H165 C161 0.950 . S
H166 C163 0.950 . S
C167 C158 1.390 . S
C167 H160 0.950 . S
C167 C164 1.387 1_655 S
C168 C169 1.387 . S
C168 H172 0.950 . S
C168 C177 1.390 . S
C169 C168 1.387 . S
C169 C171 1.387 . S
H170 C177 0.950 . S
C171 C169 1.387 . S
C171 C173 1.390 . S
C171 H175 0.950 . S
H172 C168 0.950 . S
C173 C171 1.390 . S
C173 C174 1.387 . S
C173 H176 0.950 . S
C174 C173 1.387 . S
C174 C177 1.387 . S
H175 C171 0.950 . S
H176 C173 0.950 . S
C177 C168 1.390 . S
C177 H170 0.950 . S
C177 C174 1.387 . S
C178 C179 1.387 . S
C178 H182 0.950 . S
C178 C187 1.390 . S
C179 C178 1.387 . S
C179 C181 1.387 . S
H180 C187 0.950 . S
C181 C179 1.387 . S
C181 C183 1.390 . S
C181 H185 0.950 . S
H182 C178 0.950 . S
C183 C181 1.390 . S
C183 C184 1.387 . S
C183 H186 0.950 . S
C184 C183 1.387 . S
C184 C187 1.387 . S
H185 C181 0.950 . S
H186 C183 0.950 . S
C187 C178 1.390 . S
C187 H180 0.950 . S
C187 C184 1.387 . S
C188 C189 1.387 . S
C188 H192 0.950 . S
C188 C197 1.390 . S
C189 C188 1.387 . S
C189 C191 1.387 . S
H190 C197 0.950 . S
C191 C189 1.387 . S
C191 C193 1.390 . S
C191 H195 0.950 . S
H192 C188 0.950 . S
C193 C191 1.390 . S
C193 C194 1.387 . S
C193 H196 0.950 . S
C194 C193 1.387 . S
C194 C197 1.387 . S
H195 C191 0.950 . S
H196 C193 0.950 . S
C197 C188 1.390 . S
C197 H190 0.950 . S
C197 C194 1.387 . S
C198 C199 1.387 . S
C198 H202 0.950 . S
C198 C207 1.390 . S
C199 C198 1.387 . S
C199 C201 1.387 . S
H200 C207 0.935 1_545 S
C201 C199 1.387 . S
C201 C203 1.390 . S
C201 H205 0.950 . S
H202 C198 0.950 . S
C203 C201 1.390 . S
C203 C204 1.387 . S
C203 H206 0.950 . S
C204 C203 1.387 . S
C204 C207 1.387 . S
H205 C201 0.950 . S
H206 C203 0.950 . S
C207 C198 1.390 . S
C207 H200 0.935 1_565 S
C207 C204 1.387 . S
C208 C209 1.387 . S
C208 H212 0.950 . S
C208 C217 1.390 . S
C209 C208 1.387 . S
C209 C211 1.387 . S
H210 C217 0.950 . S
C211 C209 1.387 . S
C211 C213 1.390 . S
C211 H215 0.950 . S
H212 C208 0.950 . S
C213 C211 1.390 . S
C213 C214 1.387 . S
C213 H216 0.950 . S
C214 C213 1.387 . S
C214 C217 1.387 . S
H215 C211 0.950 . S
H216 C213 0.950 . S
C217 C208 1.390 . S
C217 H210 0.950 . S
C217 C214 1.387 . S
C218 C219 1.387 . S
C218 H222 0.950 . S
C218 C227 1.390 . S
C219 C218 1.387 . S
C219 C221 1.387 . S
H220 C227 0.950 . S
C221 C219 1.387 . S
C221 C223 1.390 . S
C221 H225 0.950 . S
H222 C218 0.950 . S
C223 C221 1.390 . S
C223 C224 1.387 . S
C223 H226 0.950 . S
C224 C223 1.387 . S
C224 C227 1.387 . S
H225 C221 0.950 . S
H226 C223 0.950 . S
C227 C218 1.390 . S
C227 H220 0.950 . S
C227 C224 1.387 . S
C228 C229 1.387 . S
C228 H232 0.950 . S
C228 C237 1.390 . S
C229 C228 1.387 . S
C229 C231 1.387 . S
H230 C237 0.950 . S
C231 C229 1.387 . S
C231 C233 1.390 . S
C231 H235 0.950 . S
H232 C228 0.950 . S
C233 C231 1.390 . S
C233 C234 1.387 . S
C233 H236 0.950 . S
C234 C233 1.387 . S
C234 C237 1.387 . S
H235 C231 0.950 . S
H236 C233 0.950 . S
C237 C228 1.390 . S
C237 H230 0.950 . S
C237 C234 1.387 . S
C238 C239 1.387 . S
C238 H242 0.950 . S
C238 C247 1.390 . S
C239 C238 1.387 . S
C239 C241 1.387 . S
H240 C247 0.950 . S
C241 C239 1.387 . S
C241 C243 1.390 . S
C241 H245 0.950 . S
H242 C238 0.950 . S
C243 C241 1.390 . S
C243 C244 1.387 . S
C243 H246 0.950 . S
C244 C243 1.387 . S
C244 C247 1.387 . S
H245 C241 0.950 . S
H246 C243 0.950 . S
C247 C238 1.390 . S
C247 H240 0.950 . S
C247 C244 1.387 . S
C129 N82 0.975 1_556 S
C134 N13 0.977 1_655 S
C139 N114 0.977 . S
C144 N45 0.975 . S
C149 N77 1.227 1_554 S
C154 N18 1.224 . S
C159 N50 1.229 . S
C164 N109 1.226 . S
C169 C36 1.931 . S
C174 C6 1.936 . S
C179 C38 2.215 . S
C184 C66 2.216 . S
C189 C98 1.933 . S
C194 C93 1.932 . S
C199 C125 1.676 . S
C204 C4 1.675 . S
C209 C68 2.047 . S
C214 C102 2.068 . S
C219 C29 2.121 . S
C224 C100 2.121 . S
C229 C61 2.046 . S
C234 C2 2.067 . S
C239 C70 1.997 . S
C244 C34 1.999 . S
