# Generated by pormake.
# Topology unm, (4)-cn, num edge types: 1
# Building blocks:
#     Node 0, Type 0, BuildingBlock: GALJAG_clean_sbu_0, # of connection points: 4
#     Node 1, Type 0, BuildingBlock: GALJAG_clean_sbu_0, # of connection points: 4
#     Node 2, Type 0, BuildingBlock: GALJAG_clean_sbu_0, # of connection points: 4
#     Node 3, Type 0, BuildingBlock: GALJAG_clean_sbu_0, # of connection points: 4
#     Node 4, Type 0, BuildingBlock: GALJAG_clean_sbu_0, # of connection points: 4
#     Node 5, Type 0, BuildingBlock: GALJAG_clean_sbu_0, # of connection points: 4
#     Node 6, Type 0, BuildingBlock: GALJAG_clean_sbu_0, # of connection points: 4
#     Node 7, Type 0, BuildingBlock: GALJAG_clean_sbu_0, # of connection points: 4
#     Edge 8, Type (0, 0), None
#     Edge 9, Type (0, 0), None
#     Edge 10, Type (0, 0), None
#     Edge 11, Type (0, 0), None
#     Edge 12, Type (0, 0), None
#     Edge 13, Type (0, 0), None
#     Edge 14, Type (0, 0), None
#     Edge 15, Type (0, 0), None
#     Edge 16, Type (0, 0), None
#     Edge 17, Type (0, 0), None
#     Edge 18, Type (0, 0), None
#     Edge 19, Type (0, 0), None
#     Edge 20, Type (0, 0), None
#     Edge 21, Type (0, 0), None
#     Edge 22, Type (0, 0), None
#     Edge 23, Type (0, 0), None
# Relax obj value: 0.111
# Max RMSD: 0.116
# Mean RMSD: 0.116
data_MOF--net-unm--node1-GALJAG_clean_sbu_0--edge1-none
_symmetry_space_group_name_H-M    P1
_symmetry_Int_Tables_number       1
_symmetry_cell_setting            triclinic
loop_
_symmetry_equiv_pos_as_xyz
'x, y, z'
_cell_length_a     11.678712
_cell_length_b     11.678682
_cell_length_c     20.057948
_cell_angle_alpha  89.998854
_cell_angle_beta   90.001149
_cell_angle_gamma 89.994907
loop_
_atom_site_label
_atom_site_type_symbol
_atom_site_fract_x
_atom_site_fract_y
_atom_site_fract_z
_atom_type_partial_charge
In0 In 0.1719 0.29203 0.13592 0.0
O1 O 0.32401 0.37663 0.19095 0.0
O2 O 0.33094 0.19687 0.17454 0.0
C3 C 0.05427 0.46799 0.09242 0.0
C4 C 0.21112 0.23297 0.00937 0.0
C5 C 0.99618 0.24921 0.22078 0.0
O6 O 0.15309 0.47991 0.11755 0.0
O7 O 0.01799 0.36711 0.08663 0.0
O8 O 0.03558 0.1717 0.1827 0.0
O9 O 0.05501 0.33964 0.22251 0.0
C10 C 0.38181 0.28567 0.19562 0.0
O11 O 0.15299 0.16814 0.04711 0.0
O12 O 0.25422 0.31971 0.03681 0.0
In13 In 0.23773 0.67192 0.63591 0.0
O14 O 0.15312 0.82404 0.69093 0.0
O15 O 0.33288 0.83093 0.67454 0.0
C16 C 0.0618 0.55429 0.59239 0.0
C17 C 0.29682 0.71115 0.50936 0.0
C18 C 0.28054 0.49618 0.72078 0.0
O19 O 0.04986 0.65311 0.61752 0.0
O20 O 0.16269 0.51802 0.5866 0.0
O21 O 0.35805 0.53557 0.6827 0.0
O22 O 0.19011 0.55502 0.7225 0.0
C23 C 0.24408 0.88182 0.69561 0.0
O24 O 0.36164 0.65301 0.54711 0.0
O25 O 0.21007 0.75427 0.53681 0.0
In26 In 0.85792 0.73779 0.13592 0.0
O27 O 0.70581 0.65318 0.19094 0.0
O28 O 0.69888 0.83294 0.17453 0.0
C29 C 0.97558 0.56187 0.09245 0.0
C30 C 0.81869 0.79685 0.00937 0.0
C31 C 0.03364 0.78061 0.22079 0.0
O32 O 0.87675 0.5499 0.11756 0.0
O33 O 1.01185 0.66275 0.08662 0.0
O34 O 0.99424 0.85812 0.1827 0.0
O35 O 0.97481 0.69018 0.22252 0.0
C36 C 0.64801 0.74414 0.19561 0.0
O37 O 0.87681 0.86169 0.04712 0.0
O38 O 0.7756 0.71009 0.03681 0.0
In39 In 0.79207 0.35792 0.63592 0.0
O40 O 0.66816 0.3768 0.54711 0.0
O41 O 0.81977 0.2756 0.53681 0.0
C42 C 0.74926 0.53365 0.72079 0.0
C43 C 0.78573 0.14801 0.69561 0.0
C44 C 0.96794 0.47559 0.59242 0.0
O45 O 0.67175 0.49426 0.6827 0.0
O46 O 0.83969 0.4748 0.72251 0.0
O47 O 0.97994 0.37677 0.61754 0.0
O48 O 0.86706 0.51186 0.5866 0.0
C49 C 0.733 0.31869 0.50937 0.0
O50 O 0.87669 0.2058 0.69093 0.0
O51 O 0.69693 0.19891 0.67453 0.0
In52 In 0.67192 0.23769 0.31243 0.0
O53 O 0.82403 0.15305 0.25742 0.0
O54 O 0.83093 0.33282 0.27379 0.0
C55 C 0.5543 0.0618 0.35601 0.0
C56 C 0.71119 0.29686 0.43896 0.0
C57 C 0.49615 0.28044 0.22759 0.0
O58 O 0.6531 0.04983 0.33086 0.0
O59 O 0.51804 0.16269 0.36179 0.0
O60 O 0.53558 0.358 0.26563 0.0
O61 O 0.555 0.19001 0.22587 0.0
C62 C 0.88181 0.24401 0.25272 0.0
O63 O 0.65302 0.36164 0.40121 0.0
O64 O 0.75431 0.21009 0.41153 0.0
In65 In 0.29207 0.17191 0.81242 0.0
O66 O 0.3767 0.32401 0.7574 0.0
O67 O 0.19693 0.33095 0.77379 0.0
C68 C 0.468 0.05428 0.85598 0.0
C69 C 0.23293 0.21117 0.93896 0.0
C70 C 0.24931 0.99616 0.72759 0.0
O71 O 0.47994 0.15309 0.83083 0.0
O72 O 0.36711 0.01802 0.86176 0.0
O73 O 0.17175 0.03559 0.76563 0.0
O74 O 0.33974 0.05499 0.72586 0.0
C75 C 0.28574 0.38181 0.75271 0.0
O76 O 0.16814 0.153 0.90121 0.0
O77 O 0.31968 0.25428 0.91152 0.0
In78 In 0.35791 0.79212 0.31243 0.0
O79 O 0.37679 0.66817 0.40121 0.0
O80 O 0.27555 0.81976 0.41153 0.0
C81 C 0.53367 0.74937 0.22758 0.0
C82 C 0.14802 0.78581 0.25272 0.0
C83 C 0.47557 0.96796 0.35598 0.0
O84 O 0.49425 0.67181 0.26562 0.0
O85 O 0.47482 0.83979 0.22586 0.0
O86 O 0.37677 0.97998 0.33084 0.0
O87 O 0.51182 0.86706 0.36179 0.0
C88 C 0.31864 0.73298 0.43896 0.0
O89 O 0.2058 0.87676 0.25742 0.0
O90 O 0.1989 0.697 0.27379 0.0
In91 In 0.73774 0.85792 0.81242 0.0
O92 O 0.86167 0.8768 0.90121 0.0
O93 O 0.71011 0.77556 0.91153 0.0
C94 C 0.7805 0.03367 0.72758 0.0
C95 C 0.74406 0.64802 0.75272 0.0
C96 C 0.56186 0.97557 0.85595 0.0
O97 O 0.85806 0.99423 0.76562 0.0
O98 O 0.69008 0.97484 0.72585 0.0
O99 O 0.54987 0.87676 0.83082 0.0
O100 O 0.66274 1.01183 0.86177 0.0
C101 C 0.79687 0.81865 0.93896 0.0
O102 O 0.65311 0.70582 0.75741 0.0
O103 O 0.83287 0.69888 0.77379 0.0
loop_
_geom_bond_atom_site_label_1
_geom_bond_atom_site_label_2
_geom_bond_distance
_geom_bond_site_symmetry_2
_ccdc_geom_bond_type
In0 O1 2.294 . S
In0 O2 2.326 . S
In0 O6 2.266 . S
In0 O7 2.326 . S
In0 O8 2.263 1_455 S
In0 O9 2.326 . S
In0 O11 2.294 . S
In0 O12 2.326 . S
O1 In0 2.294 . S
O1 C10 1.240 . S
O2 In0 2.326 . S
O2 C10 1.252 . S
C3 O6 1.252 . S
C3 O7 1.260 . S
C4 O11 1.240 . S
C4 O12 1.252 . S
C5 O8 1.253 . S
C5 O9 1.260 1_655 S
O6 In0 2.266 . S
O6 C3 1.252 . S
O7 In0 2.326 . S
O7 C3 1.260 . S
O8 In0 2.263 1_655 S
O8 C5 1.253 . S
O9 In0 2.326 . S
O9 C5 1.260 1_455 S
C10 O1 1.240 . S
C10 O2 1.252 . S
O11 In0 2.294 . S
O11 C4 1.240 . S
O12 In0 2.326 . S
O12 C4 1.252 . S
In13 O14 2.294 . S
In13 O15 2.326 . S
In13 O19 2.266 . S
In13 O20 2.326 . S
In13 O21 2.266 . S
In13 O22 2.326 . S
In13 O24 2.294 . S
In13 O25 2.326 . S
O14 In13 2.294 . S
O14 C23 1.240 . S
O15 In13 2.326 . S
O15 C23 1.252 . S
C16 O19 1.252 . S
C16 O20 1.260 . S
C17 O24 1.240 . S
C17 O25 1.252 . S
C18 O21 1.252 . S
C18 O22 1.260 . S
O19 In13 2.266 . S
O19 C16 1.252 . S
O20 In13 2.326 . S
O20 C16 1.260 . S
O21 In13 2.266 . S
O21 C18 1.252 . S
O22 In13 2.326 . S
O22 C18 1.260 . S
C23 O14 1.240 . S
C23 O15 1.252 . S
O24 In13 2.294 . S
O24 C17 1.240 . S
O25 In13 2.326 . S
O25 C17 1.252 . S
In26 O27 2.294 . S
In26 O28 2.326 . S
In26 O32 2.266 . S
In26 O33 2.326 . S
In26 O34 2.263 1_655 S
In26 O35 2.326 . S
In26 O37 2.294 . S
In26 O38 2.326 . S
O27 In26 2.294 . S
O27 C36 1.240 . S
O28 In26 2.326 . S
O28 C36 1.252 . S
C29 O32 1.252 . S
C29 O33 1.260 . S
C30 O37 1.240 . S
C30 O38 1.252 . S
C31 O34 1.253 . S
C31 O35 1.260 1_455 S
O32 In26 2.266 . S
O32 C29 1.252 . S
O33 In26 2.326 . S
O33 C29 1.260 . S
O34 In26 2.263 1_455 S
O34 C31 1.253 . S
O35 In26 2.326 . S
O35 C31 1.260 1_655 S
C36 O27 1.240 . S
C36 O28 1.252 . S
O37 In26 2.294 . S
O37 C30 1.240 . S
O38 In26 2.326 . S
O38 C30 1.252 . S
In39 O40 2.294 . S
In39 O41 2.326 . S
In39 O45 2.266 . S
In39 O46 2.326 . S
In39 O47 2.266 . S
In39 O48 2.326 . S
In39 O50 2.294 . S
In39 O51 2.326 . S
O40 In39 2.294 . S
O40 C49 1.240 . S
O41 In39 2.326 . S
O41 C49 1.252 . S
C42 O45 1.252 . S
C42 O46 1.260 . S
C43 O50 1.240 . S
C43 O51 1.252 . S
C44 O47 1.252 . S
C44 O48 1.260 . S
O45 In39 2.266 . S
O45 C42 1.252 . S
O46 In39 2.326 . S
O46 C42 1.260 . S
O47 In39 2.266 . S
O47 C44 1.252 . S
O48 In39 2.326 . S
O48 C44 1.260 . S
C49 O40 1.240 . S
C49 O41 1.252 . S
O50 In39 2.294 . S
O50 C43 1.240 . S
O51 In39 2.326 . S
O51 C43 1.252 . S
In52 O53 2.294 . S
In52 O54 2.326 . S
In52 O58 2.266 . S
In52 O59 2.326 . S
In52 O60 2.266 . S
In52 O61 2.326 . S
In52 O63 2.294 . S
In52 O64 2.326 . S
O53 In52 2.294 . S
O53 C62 1.240 . S
O54 In52 2.326 . S
O54 C62 1.252 . S
C55 O58 1.252 . S
C55 O59 1.260 . S
C56 O63 1.240 . S
C56 O64 1.252 . S
C57 O60 1.252 . S
C57 O61 1.260 . S
O58 In52 2.266 . S
O58 C55 1.252 . S
O59 In52 2.326 . S
O59 C55 1.260 . S
O60 In52 2.266 . S
O60 C57 1.252 . S
O61 In52 2.326 . S
O61 C57 1.260 . S
C62 O53 1.240 . S
C62 O54 1.252 . S
O63 In52 2.294 . S
O63 C56 1.240 . S
O64 In52 2.326 . S
O64 C56 1.252 . S
In65 O66 2.294 . S
In65 O67 2.326 . S
In65 O71 2.266 . S
In65 O72 2.326 . S
In65 O73 2.263 1_545 S
In65 O74 2.326 . S
In65 O76 2.294 . S
In65 O77 2.326 . S
O66 In65 2.294 . S
O66 C75 1.240 . S
O67 In65 2.326 . S
O67 C75 1.252 . S
C68 O71 1.252 . S
C68 O72 1.260 . S
C69 O76 1.240 . S
C69 O77 1.252 . S
C70 O73 1.253 . S
C70 O74 1.260 1_565 S
O71 In65 2.266 . S
O71 C68 1.252 . S
O72 In65 2.326 . S
O72 C68 1.260 . S
O73 In65 2.263 1_565 S
O73 C70 1.253 . S
O74 In65 2.326 . S
O74 C70 1.260 1_545 S
C75 O66 1.240 . S
C75 O67 1.252 . S
O76 In65 2.294 . S
O76 C69 1.240 . S
O77 In65 2.326 . S
O77 C69 1.252 . S
In78 O79 2.294 . S
In78 O80 2.326 . S
In78 O84 2.266 . S
In78 O85 2.326 . S
In78 O86 2.266 . S
In78 O87 2.326 . S
In78 O89 2.294 . S
In78 O90 2.326 . S
O79 In78 2.294 . S
O79 C88 1.240 . S
O80 In78 2.326 . S
O80 C88 1.252 . S
C81 O84 1.252 . S
C81 O85 1.260 . S
C82 O89 1.240 . S
C82 O90 1.252 . S
C83 O86 1.252 . S
C83 O87 1.260 . S
O84 In78 2.266 . S
O84 C81 1.252 . S
O85 In78 2.326 . S
O85 C81 1.260 . S
O86 In78 2.266 . S
O86 C83 1.252 . S
O87 In78 2.326 . S
O87 C83 1.260 . S
C88 O79 1.240 . S
C88 O80 1.252 . S
O89 In78 2.294 . S
O89 C82 1.240 . S
O90 In78 2.326 . S
O90 C82 1.252 . S
In91 O92 2.294 . S
In91 O93 2.326 . S
In91 O97 2.263 1_565 S
In91 O98 2.326 . S
In91 O99 2.266 . S
In91 O100 2.326 . S
In91 O102 2.294 . S
In91 O103 2.326 . S
O92 In91 2.294 . S
O92 C101 1.240 . S
O93 In91 2.326 . S
O93 C101 1.252 . S
C94 O97 1.253 . S
C94 O98 1.260 1_545 S
C95 O102 1.240 . S
C95 O103 1.252 . S
C96 O99 1.252 . S
C96 O100 1.260 . S
O97 In91 2.263 1_545 S
O97 C94 1.253 . S
O98 In91 2.326 . S
O98 C94 1.260 1_565 S
O99 In91 2.266 . S
O99 C96 1.252 . S
O100 In91 2.326 . S
O100 C96 1.260 . S
C101 O92 1.240 . S
C101 O93 1.252 . S
O102 In91 2.294 . S
O102 C95 1.240 . S
O103 In91 2.326 . S
O103 C95 1.252 . S
C4 C69 1.545 1_554 S
C17 C88 1.545 . S
C30 C101 1.545 1_554 S
C56 C49 1.545 . S
C10 C57 1.828 . S
C23 C70 1.828 . S
C81 C36 1.828 . S
C43 C94 1.828 . S
C62 C5 1.828 . S
C18 C75 1.828 . S
C82 C31 1.828 . S
C42 C95 1.828 . S
C29 C3 0.859 1_655 S
C44 C16 0.859 1_655 S
C55 C83 0.859 1_545 S
C68 C96 0.859 1_545 S
