# Generated by pormake.
# Topology sma, (6)-cn, num edge types: 1
# Building blocks:
#     Node 0, Type 0, BuildingBlock: BETFEN_clean_sbu_0, # of connection points: 6
#     Node 1, Type 0, BuildingBlock: BETFEN_clean_sbu_0, # of connection points: 6
#     Node 2, Type 0, BuildingBlock: BETFEN_clean_sbu_0, # of connection points: 6
#     Edge 3, Type (0, 0), BuildingBlock: OJICUG_clean_linker_0, # of connection points: 2
#     Edge 4, Type (0, 0), BuildingBlock: OJICUG_clean_linker_0, # of connection points: 2
#     Edge 5, Type (0, 0), BuildingBlock: OJICUG_clean_linker_0, # of connection points: 2
#     Edge 6, Type (0, 0), BuildingBlock: OJICUG_clean_linker_0, # of connection points: 2
#     Edge 7, Type (0, 0), BuildingBlock: OJICUG_clean_linker_0, # of connection points: 2
#     Edge 8, Type (0, 0), BuildingBlock: OJICUG_clean_linker_0, # of connection points: 2
#     Edge 9, Type (0, 0), BuildingBlock: OJICUG_clean_linker_0, # of connection points: 2
#     Edge 10, Type (0, 0), BuildingBlock: OJICUG_clean_linker_0, # of connection points: 2
#     Edge 11, Type (0, 0), BuildingBlock: OJICUG_clean_linker_0, # of connection points: 2
# Relax obj value: 0.157
# Max RMSD: 0.278
# Mean RMSD: 0.206
data_MOF--net-sma--node1-BETFEN_clean_sbu_0--edge1-OJICUG_clean_linker_0
_symmetry_space_group_name_H-M    P1
_symmetry_Int_Tables_number       1
_symmetry_cell_setting            triclinic
loop_
_symmetry_equiv_pos_as_xyz
'x, y, z'
_cell_length_a     23.318133
_cell_length_b     33.656197
_cell_length_c     10.234918
_cell_angle_alpha  90.716863
_cell_angle_beta   94.443242
_cell_angle_gamma 93.552823
loop_
_atom_site_label
_atom_site_type_symbol
_atom_site_fract_x
_atom_site_fract_y
_atom_site_fract_z
_atom_type_partial_charge
Pr0 Pr 0.09251 0.49823 0.01414 0.0
Pr1 Pr 0.09824 0.58788 -0.04396 0.0
C2 C 0.07471 0.42909 0.13847 0.0
C3 C 1.03257 0.39551 0.15783 0.0
C4 C 1.03877 0.35874 0.09635 0.0
C5 C 1.00296 0.32557 0.12218 0.0
C6 C 0.96057 0.32818 0.21182 0.0
C7 C 0.95347 0.3652 0.2717 0.0
C8 C 0.98922 0.39858 0.24516 0.0
C9 C 0.08909 0.51474 0.74888 0.0
C10 C 0.96826 0.54446 0.95498 0.0
C11 C 0.12161 0.66397 0.89147 0.0
C12 C 0.15302 0.69794 -0.0352 0.0
C13 C 0.13167 0.71354 0.07818 0.0
C14 C 0.16234 0.74445 0.15028 0.0
C15 C 0.21509 0.76084 0.11097 0.0
C16 C 0.23683 0.74499 -0.00183 0.0
C17 C 0.20603 0.71389 0.92576 0.0
C18 C 0.10392 0.56924 0.22132 0.0
C19 C 0.21964 0.53866 -0.03991 0.0
O20 O 1.06567 0.4638 0.18956 0.0
O21 O 0.09704 0.43145 0.02497 0.0
O22 O 1.06377 0.53334 0.83259 0.0
O23 O 0.1127 0.4836 0.79812 0.0
O24 O 0.99873 0.57491 0.90903 0.0
O25 O 0.99393 0.51375 0.00824 0.0
O26 O 0.15248 0.6351 0.85614 0.0
O27 O 1.07246 0.6511 0.93392 0.0
O28 O 0.12958 0.55243 0.13481 0.0
O29 O 0.07676 0.59881 0.17367 0.0
O30 O 0.19328 0.50904 0.02031 0.0
O31 O 0.19105 0.56889 0.9137 0.0
H32 H 1.07217 0.35536 0.02985 0.0
H33 H 1.00899 0.29769 0.07264 0.0
H34 H 0.92165 0.3681 0.34235 0.0
H35 H 0.98376 0.42643 0.29552 0.0
H36 H 0.0914 0.7017 0.11256 0.0
H37 H 0.1448 0.75521 0.23806 0.0
H38 H 0.27713 0.75702 -0.03547 0.0
H39 H 0.22371 0.70221 0.83938 0.0
Pr40 Pr 0.64646 0.04494 0.53749 0.0
Pr41 Pr 0.51965 0.02984 0.57826 0.0
C42 C 0.73992 0.07276 0.42138 0.0
C43 C 0.76881 0.11192 0.39611 0.0
C44 C 0.82475 0.12108 0.45251 0.0
C45 C 0.85387 0.15728 0.42756 0.0
C46 C 0.82801 0.185 0.34383 0.0
C47 C 0.7714 0.17619 0.28897 0.0
C48 C 0.74199 0.14 0.31499 0.0
C49 C 0.62423 0.04545 0.79942 0.0
C50 C 0.56207 0.12257 0.57429 0.0
C51 C 0.41679 0.99552 0.62399 0.0
C52 C 0.38603 0.95978 0.55936 0.0
C53 C 0.3371 0.96427 0.47361 0.0
C54 C 0.31106 0.93187 0.40024 0.0
C55 C 0.3327 0.89383 0.41195 0.0
C56 C 0.38161 0.8892 0.49864 0.0
C57 C 0.40811 0.92181 0.57126 0.0
C58 C 0.54699 0.02768 0.31756 0.0
C59 C 0.60792 0.95563 0.62089 0.0
O60 O 0.68984 0.06414 0.3575 0.0
O61 O 0.74259 0.06079 0.54296 0.0
O62 O 0.59378 0.06065 0.70831 0.0
O63 O 0.67136 0.03228 0.75906 0.0
O64 O 0.5234 0.09793 0.62368 0.0
O65 O 0.60741 0.10878 0.52192 0.0
O66 O 0.46352 0.98982 0.69887 0.0
O67 O 0.42223 0.02687 0.55049 0.0
O68 O 0.574 1.01164 0.4117 0.0
O69 O 0.50313 0.04503 0.356 0.0
O70 O 0.64644 0.97512 0.5532 0.0
O71 O 0.56196 0.97277 0.65495 0.0
H72 H 0.84623 0.10005 0.51556 0.0
H73 H 0.89692 0.16343 0.47373 0.0
H74 H 0.75039 0.19673 0.2232 0.0
H75 H 0.69866 0.13391 0.27011 0.0
H76 H 0.31975 0.99321 0.46068 0.0
H77 H 0.27438 0.93692 0.33236 0.0
H78 H 0.39926 0.86035 0.51122 0.0
H79 H 0.44632 0.91729 0.63514 0.0
Pr80 Pr 0.58881 0.49561 0.85447 0.0
Pr81 Pr 0.59429 0.59033 0.87862 0.0
C82 C 0.57601 0.418 0.78527 0.0
C83 C 0.56893 0.37518 0.74728 0.0
C84 C 0.55226 0.34663 0.83822 0.0
C85 C 0.54896 0.30599 0.80559 0.0
C86 C 0.56197 0.29278 0.68075 0.0
C87 C 0.57792 0.32154 0.58922 0.0
C88 C 0.5815 0.36221 0.62219 0.0
C89 C 0.61283 0.5265 0.10531 0.0
C90 C 0.71712 0.54166 0.89447 0.0
C91 C 0.62001 0.66932 0.91703 0.0
C92 C 0.61294 0.71 0.86607 0.0
C93 C 0.62128 0.71951 0.73494 0.0
C94 C 0.62195 0.75923 0.69394 0.0
C95 C 0.61447 0.79037 0.78311 0.0
C96 C 0.60524 0.78042 0.91367 0.0
C97 C 0.60427 0.74084 0.95418 0.0
C98 C 0.56843 0.55879 0.62906 0.0
C99 C 0.46661 0.54251 0.89259 0.0
O100 O 0.59432 0.4454 0.70614 0.0
O101 O 0.56303 0.43129 0.89938 0.0
O102 O 0.57818 0.53993 0.01962 0.0
O103 O 0.63348 0.49375 0.06605 0.0
O104 O 0.69069 0.5734 0.93005 0.0
O105 O 0.68805 0.50899 0.84723 0.0
O106 O 0.57721 0.65039 -0.02919 0.0
O107 O 0.65045 0.64591 0.85132 0.0
O108 O 0.60462 0.54625 0.71326 0.0
O109 O 0.54728 0.59111 0.6692 0.0
O110 O 0.49002 0.51022 0.84934 0.0
O111 O 0.49794 0.57611 0.92336 0.0
H112 H 0.54276 0.35561 0.93581 0.0
H113 H 0.53751 0.28491 0.87973 0.0
H114 H 0.58749 0.31272 0.49157 0.0
H115 H 0.5946 0.38345 0.54989 0.0
H116 H 0.62833 0.69637 0.66452 0.0
H117 H 0.62818 0.76546 0.5923 0.0
H118 H 0.6002 0.80333 -0.01368 0.0
H119 H 0.59854 0.73445 0.05602 0.0
C120 C 0.31243 0.50367 0.94687 0.0
C121 C 0.28296 0.53897 0.94481 0.0
H122 H 0.39302 0.47687 0.92961 0.0
C123 C 0.31462 0.57516 0.92607 0.0
H124 H 0.2895 0.47525 -0.03907 0.0
C125 C 0.37393 0.57618 0.91043 0.0
C126 C 0.40333 0.54094 0.90978 0.0
H127 H 0.29361 0.60299 0.9247 0.0
H128 H 0.39666 0.60471 0.89708 0.0
C129 C 0.37175 0.50459 0.9281 0.0
C130 C 0.8349 0.25846 0.29721 0.0
C131 C 0.86122 0.22207 0.31032 0.0
H132 H 0.84543 0.32055 0.25446 0.0
C133 C 0.92008 0.22106 0.29071 0.0
H134 H 0.78972 0.26033 0.31268 0.0
C135 C 0.95206 0.25552 0.26017 0.0
C136 C 0.9259 0.29188 0.24624 0.0
H137 H 0.9416 0.19347 0.29771 0.0
H138 H 0.99757 0.25362 0.24839 0.0
C139 C 0.86695 0.29304 0.26541 0.0
C140 C 0.57822 0.89872 0.75911 0.0
C141 C 0.61387 0.91389 0.66403 0.0
H142 H 0.54894 0.84878 0.86678 0.0
C143 C 0.65121 0.88824 0.6092 0.0
H144 H 0.54898 0.91743 0.8047 0.0
C145 C 0.65174 0.84813 0.64718 0.0
C146 C 0.61511 0.83296 0.74111 0.0
H147 H 0.67912 0.8989 0.53564 0.0
H148 H 0.68106 0.82912 0.60345 0.0
C149 C 0.57855 0.85906 0.79623 0.0
C150 C 0.80988 0.50694 0.92507 0.0
C151 C 0.78137 0.54248 0.91068 0.0
H152 H 0.89068 0.47969 0.95276 0.0
C153 C 0.81498 0.5787 0.91118 0.0
H154 H 0.78543 0.47852 0.92543 0.0
C155 C 0.87547 0.5793 0.9242 0.0
C156 C 0.90396 0.54379 0.94032 0.0
H157 H 0.79453 0.60661 0.89954 0.0
H158 H 0.89994 0.60771 0.92307 0.0
C159 C 0.87031 0.50762 0.94128 0.0
C160 C 0.24305 0.85632 0.31321 0.0
C161 C 0.30344 0.85933 0.33512 0.0
H162 H 0.16844 0.82408 0.22316 0.0
C163 C 0.33497 0.82949 0.28201 0.0
H164 H 0.21711 0.87825 0.35407 0.0
C165 C 0.30664 0.79758 0.20867 0.0
C166 C 0.24617 0.79484 0.18672 0.0
H167 H 0.38157 0.83096 0.29571 0.0
H168 H 0.33206 0.77486 0.17058 0.0
C169 C 0.21493 0.82478 0.23947 0.0
C170 C 0.5183 0.22254 0.69642 0.0
C171 C 0.56001 0.24926 0.64746 0.0
H172 H 0.48587 0.16197 0.7113 0.0
C173 C 0.60063 0.23386 0.56874 0.0
H174 H 0.48574 0.23319 0.75567 0.0
C175 C 0.60019 0.19294 0.54178 0.0
C176 C 0.55922 0.16625 0.59302 0.0
H177 H 0.63395 0.25324 0.5306 0.0
H178 H 0.6328 0.1822 0.48276 0.0
C179 C 0.51795 0.18161 0.66968 0.0
C180 C 0.12562 0.50817 0.5269 0.0
C181 C 0.09202 0.52762 0.6127 0.0
H182 H 0.15682 0.50676 0.33535 0.0
C183 C 1.06277 0.56081 0.56918 0.0
H184 H 0.14872 0.48258 0.55843 0.0
C185 C 1.06717 0.57446 0.44211 0.0
C186 C 0.10097 0.55523 0.35636 0.0
H187 H 1.0366 0.57639 0.63351 0.0
H188 H 1.04399 0.60006 0.41102 0.0
C189 C 0.13036 0.52205 0.39974 0.0
C190 C 0.61632 1.01307 0.15054 0.0
C191 C 0.56675 0.03121 0.18469 0.0
H192 H 0.67435 1.00408 0.00149 0.0
C193 C 0.53687 0.05416 0.09186 0.0
H194 H 0.64001 0.99509 0.22041 0.0
C195 C 0.55629 0.05915 -0.03261 0.0
C196 C 0.60604 0.04135 0.93331 0.0
H197 H 0.49855 0.06848 0.11553 0.0
H198 H 0.53219 0.07696 0.89774 0.0
C199 C 0.63609 1.01834 0.02586 0.0
C200 C 0.58186 0.58191 0.4058 0.0
C201 C 0.57351 0.5504 0.49173 0.0
H202 H 0.60389 0.5986 0.21407 0.0
C203 C 0.58024 0.51125 0.45143 0.0
H204 H 0.57788 0.61246 0.43665 0.0
C205 C 0.59696 0.50349 0.32707 0.0
C206 C 0.60606 0.53499 0.24169 0.0
H207 H 0.57288 0.48677 0.51626 0.0
H208 H 0.60074 0.4729 0.2963 0.0
C209 C 0.59801 0.57416 0.28069 0.0
loop_
_geom_bond_atom_site_label_1
_geom_bond_atom_site_label_2
_geom_bond_distance
_geom_bond_site_symmetry_2
_ccdc_geom_bond_type
Pr0 C2 2.880 1_455 S
Pr0 O20 2.562 1_455 S
Pr0 O21 2.490 1_455 S
Pr0 O22 2.695 1_554 S
Pr0 O23 2.512 1_554 S
Pr0 O25 2.437 1_455 S
Pr0 O28 2.436 . S
Pr0 O30 2.438 . S
Pr1 C11 2.880 . S
Pr1 O22 2.436 1_554 S
Pr1 O24 2.438 1_455 S
Pr1 O26 2.562 . S
Pr1 O27 2.490 . S
Pr1 O28 2.695 . S
Pr1 O29 2.512 . S
Pr1 O31 2.437 . S
C2 Pr0 2.880 1_655 S
C2 C3 1.491 . S
C2 O20 1.254 . S
C2 O21 1.225 . S
C3 C2 1.491 . S
C3 C4 1.392 . S
C3 C8 1.356 . S
C4 C3 1.392 . S
C4 C5 1.368 . S
C4 H32 0.929 1_554 S
C5 C4 1.368 . S
C5 C6 1.386 . S
C5 H33 0.929 1_554 S
C6 C5 1.386 . S
C6 C7 1.373 . S
C7 C6 1.373 . S
C7 C8 1.409 . S
C7 H34 0.931 . S
C8 C3 1.356 . S
C8 C7 1.409 . S
C8 H35 0.930 . S
C9 O22 1.270 . S
C9 O23 1.248 . S
C10 O24 1.267 . S
C10 O25 1.278 . S
C11 Pr1 2.880 . S
C11 C12 1.491 . S
C11 O26 1.254 . S
C11 O27 1.225 . S
C12 C11 1.491 . S
C12 C13 1.392 . S
C12 C17 1.356 1_554 S
C13 C12 1.392 . S
C13 C14 1.368 . S
C13 H36 0.929 . S
C14 C13 1.368 . S
C14 C15 1.386 . S
C14 H37 0.929 . S
C15 C14 1.386 . S
C15 C16 1.373 1_554 S
C16 C15 1.373 1_556 S
C16 C17 1.409 . S
C16 H38 0.931 . S
C17 C12 1.356 1_556 S
C17 C16 1.409 . S
C17 H39 0.930 . S
C18 O28 1.270 . S
C18 O29 1.248 . S
C19 O30 1.267 . S
C19 O31 1.278 . S
O20 Pr0 2.562 1_655 S
O20 C2 1.254 . S
O21 Pr0 2.490 1_655 S
O21 C2 1.225 . S
O22 Pr0 2.695 1_556 S
O22 Pr1 2.436 1_556 S
O22 C9 1.270 . S
O23 Pr0 2.512 1_556 S
O23 C9 1.248 . S
O24 Pr1 2.438 1_655 S
O24 C10 1.267 . S
O25 Pr0 2.437 1_655 S
O25 C10 1.278 . S
O26 Pr1 2.562 . S
O26 C11 1.254 . S
O27 Pr1 2.490 . S
O27 C11 1.225 . S
O28 Pr0 2.436 . S
O28 Pr1 2.695 . S
O28 C18 1.270 . S
O29 Pr1 2.512 . S
O29 C18 1.248 . S
O30 Pr0 2.438 . S
O30 C19 1.267 . S
O31 Pr1 2.437 . S
O31 C19 1.278 . S
H32 C4 0.929 1_556 S
H33 C5 0.929 1_556 S
H34 C7 0.931 . S
H35 C8 0.930 . S
H36 C13 0.929 . S
H37 C14 0.929 . S
H38 C16 0.931 . S
H39 C17 0.930 . S
Pr40 C42 2.880 . S
Pr40 O60 2.562 . S
Pr40 O61 2.490 . S
Pr40 O62 2.695 . S
Pr40 O63 2.512 . S
Pr40 O65 2.437 . S
Pr40 O68 2.436 . S
Pr40 O70 2.438 1_545 S
Pr41 C51 2.880 1_545 S
Pr41 O62 2.436 . S
Pr41 O64 2.438 . S
Pr41 O66 2.562 1_545 S
Pr41 O67 2.490 1_545 S
Pr41 O68 2.695 . S
Pr41 O69 2.512 . S
Pr41 O71 2.437 1_545 S
C42 Pr40 2.880 . S
C42 C43 1.491 . S
C42 O60 1.254 . S
C42 O61 1.225 . S
C43 C42 1.491 . S
C43 C44 1.392 . S
C43 C48 1.356 . S
C44 C43 1.392 . S
C44 C45 1.368 . S
C44 H72 0.929 . S
C45 C44 1.368 . S
C45 C46 1.386 . S
C45 H73 0.929 . S
C46 C45 1.386 . S
C46 C47 1.373 . S
C47 C46 1.373 . S
C47 C48 1.409 . S
C47 H74 0.931 . S
C48 C43 1.356 . S
C48 C47 1.409 . S
C48 H75 0.930 . S
C49 O62 1.270 . S
C49 O63 1.248 . S
C50 O64 1.267 . S
C50 O65 1.278 . S
C51 Pr41 2.880 1_565 S
C51 C52 1.491 . S
C51 O66 1.254 . S
C51 O67 1.225 . S
C52 C51 1.491 . S
C52 C53 1.392 . S
C52 C57 1.356 . S
C53 C52 1.392 . S
C53 C54 1.368 . S
C53 H76 0.929 . S
C54 C53 1.368 . S
C54 C55 1.386 . S
C54 H77 0.929 . S
C55 C54 1.386 . S
C55 C56 1.373 . S
C56 C55 1.373 . S
C56 C57 1.409 . S
C56 H78 0.931 . S
C57 C52 1.356 . S
C57 C56 1.409 . S
C57 H79 0.930 . S
C58 O68 1.270 . S
C58 O69 1.248 . S
C59 O70 1.267 . S
C59 O71 1.278 . S
O60 Pr40 2.562 . S
O60 C42 1.254 . S
O61 Pr40 2.490 . S
O61 C42 1.225 . S
O62 Pr40 2.695 . S
O62 Pr41 2.436 . S
O62 C49 1.270 . S
O63 Pr40 2.512 . S
O63 C49 1.248 . S
O64 Pr41 2.438 . S
O64 C50 1.267 . S
O65 Pr40 2.437 . S
O65 C50 1.278 . S
O66 Pr41 2.562 1_565 S
O66 C51 1.254 . S
O67 Pr41 2.490 1_565 S
O67 C51 1.225 . S
O68 Pr40 2.436 . S
O68 Pr41 2.695 . S
O68 C58 1.270 . S
O69 Pr41 2.512 . S
O69 C58 1.248 . S
O70 Pr40 2.438 1_565 S
O70 C59 1.267 . S
O71 Pr41 2.437 1_565 S
O71 C59 1.278 . S
H72 C44 0.929 . S
H73 C45 0.929 . S
H74 C47 0.931 . S
H75 C48 0.930 . S
H76 C53 0.929 . S
H77 C54 0.929 . S
H78 C56 0.931 . S
H79 C57 0.930 . S
Pr80 C82 2.880 . S
Pr80 O100 2.562 . S
Pr80 O101 2.490 . S
Pr80 O102 2.695 1_556 S
Pr80 O103 2.512 1_556 S
Pr80 O105 2.437 . S
Pr80 O108 2.436 . S
Pr80 O110 2.438 . S
Pr81 C91 2.880 . S
Pr81 O102 2.436 1_556 S
Pr81 O104 2.438 . S
Pr81 O106 2.562 . S
Pr81 O107 2.490 . S
Pr81 O108 2.695 . S
Pr81 O109 2.512 . S
Pr81 O111 2.437 . S
C82 Pr80 2.880 . S
C82 C83 1.491 . S
C82 O100 1.254 . S
C82 O101 1.225 . S
C83 C82 1.491 . S
C83 C84 1.392 . S
C83 C88 1.356 . S
C84 C83 1.392 . S
C84 C85 1.368 . S
C84 H112 0.929 1_556 S
C85 C84 1.368 . S
C85 C86 1.386 . S
C85 H113 0.929 . S
C86 C85 1.386 . S
C86 C87 1.373 . S
C87 C86 1.373 . S
C87 C88 1.409 . S
C87 H114 0.931 . S
C88 C83 1.356 . S
C88 C87 1.409 . S
C88 H115 0.930 . S
C89 O102 1.270 . S
C89 O103 1.248 . S
C90 O104 1.267 . S
C90 O105 1.278 . S
C91 Pr81 2.880 . S
C91 C92 1.491 . S
C91 O106 1.254 . S
C91 O107 1.225 . S
C92 C91 1.491 . S
C92 C93 1.392 . S
C92 C97 1.356 . S
C93 C92 1.392 . S
C93 C94 1.368 . S
C93 H116 0.929 . S
C94 C93 1.368 . S
C94 C95 1.386 . S
C94 H117 0.929 . S
C95 C94 1.386 . S
C95 C96 1.373 . S
C96 C95 1.373 . S
C96 C97 1.409 . S
C96 H118 0.931 1_556 S
C97 C92 1.356 . S
C97 C96 1.409 . S
C97 H119 0.930 1_556 S
C98 O108 1.270 . S
C98 O109 1.248 . S
C99 O110 1.267 . S
C99 O111 1.278 . S
O100 Pr80 2.562 . S
O100 C82 1.254 . S
O101 Pr80 2.490 . S
O101 C82 1.225 . S
O102 Pr80 2.695 1_554 S
O102 Pr81 2.436 1_554 S
O102 C89 1.270 . S
O103 Pr80 2.512 1_554 S
O103 C89 1.248 . S
O104 Pr81 2.438 . S
O104 C90 1.267 . S
O105 Pr80 2.437 . S
O105 C90 1.278 . S
O106 Pr81 2.562 . S
O106 C91 1.254 . S
O107 Pr81 2.490 . S
O107 C91 1.225 . S
O108 Pr80 2.436 . S
O108 Pr81 2.695 . S
O108 C98 1.270 . S
O109 Pr81 2.512 . S
O109 C98 1.248 . S
O110 Pr80 2.438 . S
O110 C99 1.267 . S
O111 Pr81 2.437 . S
O111 C99 1.278 . S
H112 C84 0.929 1_554 S
H113 C85 0.929 . S
H114 C87 0.931 . S
H115 C88 0.930 . S
H116 C93 0.929 . S
H117 C94 0.929 . S
H118 C96 0.931 1_554 S
H119 C97 0.930 1_554 S
C120 C121 1.387 1_556 S
C120 H124 0.950 . S
C120 C129 1.390 . S
C121 C120 1.387 1_554 S
C121 C123 1.387 . S
H122 C129 0.950 . S
C123 C121 1.387 . S
C123 C125 1.390 . S
C123 H127 0.950 . S
H124 C120 0.950 . S
C125 C123 1.390 . S
C125 C126 1.387 1_554 S
C125 H128 0.950 . S
C126 C125 1.387 1_556 S
C126 C129 1.387 . S
H127 C123 0.950 . S
H128 C125 0.950 . S
C129 C120 1.390 . S
C129 H122 0.950 . S
C129 C126 1.387 . S
C130 C131 1.387 . S
C130 H134 0.950 . S
C130 C139 1.390 . S
C131 C130 1.387 . S
C131 C133 1.387 . S
H132 C139 0.950 . S
C133 C131 1.387 . S
C133 C135 1.390 . S
C133 H137 0.950 . S
H134 C130 0.950 . S
C135 C133 1.390 . S
C135 C136 1.387 . S
C135 H138 0.950 . S
C136 C135 1.387 . S
C136 C139 1.387 . S
H137 C133 0.950 . S
H138 C135 0.950 . S
C139 C130 1.390 . S
C139 H132 0.950 . S
C139 C136 1.387 . S
C140 C141 1.387 . S
C140 H144 0.950 . S
C140 C149 1.390 . S
C141 C140 1.387 . S
C141 C143 1.387 . S
H142 C149 0.950 . S
C143 C141 1.387 . S
C143 C145 1.390 . S
C143 H147 0.950 . S
H144 C140 0.950 . S
C145 C143 1.390 . S
C145 C146 1.387 . S
C145 H148 0.950 . S
C146 C145 1.387 . S
C146 C149 1.387 . S
H147 C143 0.950 . S
H148 C145 0.950 . S
C149 C140 1.390 . S
C149 H142 0.950 . S
C149 C146 1.387 . S
C150 C151 1.387 1_554 S
C150 H154 0.950 . S
C150 C159 1.390 . S
C151 C150 1.387 1_556 S
C151 C153 1.387 . S
H152 C159 0.950 . S
C153 C151 1.387 . S
C153 C155 1.390 . S
C153 H157 0.950 . S
H154 C150 0.950 . S
C155 C153 1.390 . S
C155 C156 1.387 1_556 S
C155 H158 0.950 . S
C156 C155 1.387 1_554 S
C156 C159 1.387 . S
H157 C153 0.950 . S
H158 C155 0.950 . S
C159 C150 1.390 . S
C159 H152 0.950 . S
C159 C156 1.387 . S
C160 C161 1.387 . S
C160 H164 0.950 . S
C160 C169 1.390 . S
C161 C160 1.387 . S
C161 C163 1.387 . S
H162 C169 0.950 . S
C163 C161 1.387 . S
C163 C165 1.390 . S
C163 H167 0.950 . S
H164 C160 0.950 . S
C165 C163 1.390 . S
C165 C166 1.387 . S
C165 H168 0.950 . S
C166 C165 1.387 . S
C166 C169 1.387 . S
H167 C163 0.950 . S
H168 C165 0.950 . S
C169 C160 1.390 . S
C169 H162 0.950 . S
C169 C166 1.387 . S
C170 C171 1.387 . S
C170 H174 0.950 . S
C170 C179 1.390 . S
C171 C170 1.387 . S
C171 C173 1.387 . S
H172 C179 0.950 . S
C173 C171 1.387 . S
C173 C175 1.390 . S
C173 H177 0.950 . S
H174 C170 0.950 . S
C175 C173 1.390 . S
C175 C176 1.387 . S
C175 H178 0.950 . S
C176 C175 1.387 . S
C176 C179 1.387 . S
H177 C173 0.950 . S
H178 C175 0.950 . S
C179 C170 1.390 . S
C179 H172 0.950 . S
C179 C176 1.387 . S
C180 C181 1.387 . S
C180 H184 0.950 . S
C180 C189 1.390 . S
C181 C180 1.387 . S
C181 C183 1.390 . S
H182 C189 0.950 . S
C183 C181 1.390 . S
C183 C185 1.392 . S
C183 H187 0.946 1_455 S
H184 C180 0.950 . S
C185 C183 1.392 . S
C185 C186 1.387 . S
C185 H188 0.950 1_455 S
C186 C185 1.387 . S
C186 C189 1.387 . S
H187 C183 0.946 1_655 S
H188 C185 0.950 1_655 S
C189 C180 1.390 . S
C189 H182 0.950 . S
C189 C186 1.387 . S
C190 C191 1.387 1_565 S
C190 H194 0.950 . S
C190 C199 1.390 1_554 S
C191 C190 1.387 1_545 S
C191 C193 1.387 . S
H192 C199 0.950 . S
C193 C191 1.387 . S
C193 C195 1.390 1_554 S
C193 H197 0.950 . S
H194 C190 0.950 . S
C195 C193 1.390 1_556 S
C195 C196 1.387 . S
C195 H198 0.950 . S
C196 C195 1.387 . S
C196 C199 1.387 1_545 S
H197 C193 0.950 . S
H198 C195 0.950 . S
C199 C190 1.390 1_556 S
C199 H192 0.950 . S
C199 C196 1.387 1_565 S
C200 C201 1.387 . S
C200 H204 0.950 . S
C200 C209 1.390 . S
C201 C200 1.387 . S
C201 C203 1.387 . S
H202 C209 0.950 . S
C203 C201 1.387 . S
C203 C205 1.390 . S
C203 H207 0.950 . S
H204 C200 0.950 . S
C205 C203 1.390 . S
C205 C206 1.387 . S
C205 H208 0.950 . S
C206 C205 1.387 . S
C206 C209 1.387 . S
H207 C203 0.950 . S
H208 C205 0.950 . S
C209 C200 1.390 . S
C209 H202 0.950 . S
C209 C206 1.387 . S
C121 C19 2.956 . S
C126 C99 2.877 . S
C131 C46 1.660 . S
C136 C6 1.669 . S
C141 C59 2.779 . S
C146 C95 2.586 . S
C151 C90 2.612 . S
C156 C10 2.684 . S
C161 C55 1.711 . S
C166 C15 1.710 . S
C171 C86 2.329 . S
C176 C50 2.363 . S
C181 C9 0.769 . S
C186 C18 0.769 . S
C191 C58 0.773 . S
C196 C49 0.773 . S
C201 C98 0.775 . S
C206 C89 0.775 . S
