# Generated by pormake.
# Topology snp, (6)-cn, num edge types: 1
# Building blocks:
#     Node 0, Type 0, BuildingBlock: VOLQOD_clean_sbu_1, # of connection points: 6
#     Node 1, Type 0, BuildingBlock: VOLQOD_clean_sbu_1, # of connection points: 6
#     Node 2, Type 0, BuildingBlock: VOLQOD_clean_sbu_1, # of connection points: 6
#     Node 3, Type 0, BuildingBlock: VOLQOD_clean_sbu_1, # of connection points: 6
#     Edge 4, Type (0, 0), None
#     Edge 5, Type (0, 0), None
#     Edge 6, Type (0, 0), None
#     Edge 7, Type (0, 0), None
#     Edge 8, Type (0, 0), None
#     Edge 9, Type (0, 0), None
#     Edge 10, Type (0, 0), None
#     Edge 11, Type (0, 0), None
#     Edge 12, Type (0, 0), None
#     Edge 13, Type (0, 0), None
#     Edge 14, Type (0, 0), None
#     Edge 15, Type (0, 0), None
# Relax obj value: 0.792
# Max RMSD: 0.301
# Mean RMSD: 0.301
data_MOF--net-snp--node1-VOLQOD_clean_sbu_1--edge1-none
_symmetry_space_group_name_H-M    P1
_symmetry_Int_Tables_number       1
_symmetry_cell_setting            triclinic
loop_
_symmetry_equiv_pos_as_xyz
'x, y, z'
_cell_length_a     15.985315
_cell_length_b     15.98555
_cell_length_c     12.626996
_cell_angle_alpha  89.999413
_cell_angle_beta   90.000781
_cell_angle_gamma 94.17582
loop_
_atom_site_label
_atom_site_type_symbol
_atom_site_fract_x
_atom_site_fract_y
_atom_site_fract_z
_atom_type_partial_charge
O0 O 0.05304 0.90952 0.9074 0.0
Zn1 Zn 0.15285 0.88 0.97612 0.0
O2 O 0.21797 -0.01364 0.98512 0.0
Zn3 Zn 0.27232 -0.01299 0.84924 0.0
Zn4 Zn 0.15965 0.0873 0.97722 0.0
Zn5 Zn 0.27049 -0.01237 0.12101 0.0
O6 O 0.3939 -0.01765 0.89728 0.0
O7 O 0.39326 -0.01781 0.07698 0.0
O8 O 0.18932 0.78936 0.88422 0.0
O9 O 0.22503 0.88175 0.7606 0.0
O10 O 0.23864 0.09303 0.76203 0.0
O11 O 0.20148 0.18069 0.88472 0.0
O12 O 0.13406 0.13699 0.11582 0.0
O13 O 0.12068 0.82856 0.11412 0.0
O14 O 0.2366 0.08947 0.21185 0.0
O15 O 0.22209 0.88823 0.21411 0.0
C16 C 0.02131 -0.022 0.88712 0.0
C17 C 0.43148 -0.02049 0.98732 0.0
C18 C 0.21282 0.16452 0.78814 0.0
C19 C 0.19709 0.80739 0.78716 0.0
C20 C 0.17526 0.13643 0.20143 0.0
C21 C 0.15864 0.83537 0.20201 0.0
O22 O 0.05649 0.04903 0.91129 0.0
O23 O 0.91067 0.0519 0.58946 0.0
Zn24 Zn 0.88116 0.15172 0.52074 0.0
O25 O -0.01247 0.21683 0.51176 0.0
Zn26 Zn -0.01184 0.27118 0.64763 0.0
Zn27 Zn 0.08845 0.1585 0.51965 0.0
Zn28 Zn -0.01121 0.26935 0.37586 0.0
O29 O -0.01651 0.39276 0.59958 0.0
O30 O -0.01665 0.39211 0.41988 0.0
O31 O 0.79051 0.18818 0.61265 0.0
O32 O 0.8829 0.2239 0.73626 0.0
O33 O 0.09418 0.23753 0.73485 0.0
O34 O 0.18185 0.20032 0.61215 0.0
O35 O 0.13815 0.13291 0.38106 0.0
O36 O 0.82971 0.11954 0.38275 0.0
O37 O 0.09063 0.23545 0.28501 0.0
O38 O 0.88939 0.22095 0.28275 0.0
C39 C -0.02085 0.02017 0.60975 0.0
C40 C -0.01935 0.43034 0.50954 0.0
C41 C 0.16567 0.21171 0.70872 0.0
C42 C 0.80854 0.19595 0.70971 0.0
C43 C 0.13759 0.17412 0.29546 0.0
C44 C 0.83652 0.15751 0.29486 0.0
O45 O 0.05018 0.05534 0.58558 0.0
O46 O 0.90095 0.04219 0.90712 0.0
Zn47 Zn 0.80119 0.07172 0.97596 0.0
O48 O 0.73606 -0.03463 0.98503 0.0
Zn49 Zn 0.68167 -0.03531 0.84917 0.0
Zn50 Zn 0.79435 0.86441 0.97716 0.0
Zn51 Zn 0.68357 -0.03585 0.12093 0.0
O52 O 0.5601 -0.03064 0.89725 0.0
O53 O 0.56079 -0.03045 0.07695 0.0
O54 O 0.76465 0.16236 0.8841 0.0
O55 O 0.72892 0.06994 0.76049 0.0
O56 O 0.71534 0.85866 0.76199 0.0
O57 O 0.75246 0.771 0.88471 0.0
O58 O 0.81999 0.81476 0.11578 0.0
O59 O 0.83343 0.12318 0.11394 0.0
O60 O 0.71751 0.86235 0.21185 0.0
O61 O 0.73198 0.0636 0.21395 0.0
C62 C 0.93261 -0.02634 0.88686 0.0
C63 C 0.52255 -0.02779 0.98731 0.0
C64 C 0.74114 0.78716 0.78812 0.0
C65 C 0.75685 0.1443 0.78705 0.0
C66 C 0.77883 0.81538 0.20142 0.0
C67 C 0.79544 0.11644 0.20181 0.0
O68 O 0.89749 0.90265 0.91114 0.0
O69 O 0.04332 0.8998 0.58974 0.0
Zn70 Zn 0.07285 0.80004 0.5209 0.0
O71 O -0.03351 0.73491 0.51184 0.0
Zn72 Zn -0.03418 0.68052 0.6477 0.0
Zn73 Zn 0.86554 0.79321 0.51971 0.0
Zn74 Zn -0.03473 0.68243 0.37593 0.0
O75 O -0.0295 0.55895 0.59961 0.0
O76 O -0.02931 0.55965 0.41991 0.0
O77 O 0.16349 0.76351 0.61276 0.0
O78 O 0.07107 0.72777 0.73638 0.0
O79 O 0.8598 0.71416 0.73489 0.0
O80 O 0.77213 0.75133 0.61216 0.0
O81 O 0.81588 0.81885 0.38109 0.0
O82 O 0.12432 0.83228 0.38293 0.0
O83 O 0.86348 0.71637 0.28501 0.0
O84 O 0.06473 0.73083 0.28292 0.0
C85 C -0.0252 0.93147 0.61001 0.0
C86 C -0.02665 0.5214 0.50955 0.0
C87 C 0.7883 0.73996 0.70873 0.0
C88 C 0.14543 0.7557 0.70981 0.0
C89 C 0.8165 0.77769 0.29547 0.0
C90 C 0.11757 0.79429 0.29506 0.0
O91 O 0.90378 0.89636 0.58573 0.0
loop_
_geom_bond_atom_site_label_1
_geom_bond_atom_site_label_2
_geom_bond_distance
_geom_bond_site_symmetry_2
_ccdc_geom_bond_type
O0 Zn1 1.953 . S
O0 C16 1.225 1_566 S
Zn1 O0 1.953 . S
Zn1 O2 1.949 1_566 S
Zn1 O8 1.919 . S
Zn1 O13 1.924 1_556 S
O2 Zn1 1.949 1_544 S
O2 Zn3 1.923 1_554 S
O2 Zn4 1.950 . S
O2 Zn5 1.945 . S
Zn3 O2 1.923 1_556 S
Zn3 O6 1.933 . S
Zn3 O9 1.941 1_545 S
Zn3 O10 1.965 . S
Zn4 O2 1.950 . S
Zn4 O11 1.938 1_554 S
Zn4 O12 1.906 . S
Zn4 O22 1.953 . S
Zn5 O2 1.945 . S
Zn5 O7 1.932 . S
Zn5 O14 1.977 . S
Zn5 O15 1.910 1_545 S
O6 Zn3 1.933 . S
O6 C17 1.226 1_556 S
O7 Zn5 1.932 . S
O7 C17 1.307 . S
O8 Zn1 1.919 . S
O8 C19 1.253 . S
O9 Zn3 1.941 1_565 S
O9 C19 1.283 . S
O10 Zn3 1.965 . S
O10 C18 1.303 . S
O11 Zn4 1.938 1_556 S
O11 C18 1.247 . S
O12 Zn4 1.906 . S
O12 C20 1.304 . S
O13 Zn1 1.924 1_554 S
O13 C21 1.311 . S
O14 Zn5 1.977 . S
O14 C20 1.272 . S
O15 Zn5 1.910 1_565 S
O15 C21 1.231 . S
C16 O0 1.225 1_544 S
C16 O22 1.298 . S
C17 O6 1.226 1_554 S
C17 O7 1.307 . S
C18 O10 1.303 . S
C18 O11 1.247 . S
C19 O8 1.253 . S
C19 O9 1.283 . S
C20 O12 1.304 . S
C20 O14 1.272 . S
C21 O13 1.311 . S
C21 O15 1.231 . S
O22 Zn4 1.953 . S
O22 C16 1.298 . S
O23 Zn24 1.953 . S
O23 C39 1.225 1_655 S
Zn24 O23 1.953 . S
Zn24 O25 1.949 1_655 S
Zn24 O31 1.919 . S
Zn24 O36 1.924 . S
O25 Zn24 1.949 1_455 S
O25 Zn26 1.923 . S
O25 Zn27 1.950 . S
O25 Zn28 1.945 . S
Zn26 O25 1.923 . S
Zn26 O29 1.933 . S
Zn26 O32 1.941 1_455 S
Zn26 O33 1.965 . S
Zn27 O25 1.950 . S
Zn27 O34 1.938 . S
Zn27 O35 1.906 . S
Zn27 O45 1.953 . S
Zn28 O25 1.945 . S
Zn28 O30 1.932 . S
Zn28 O37 1.977 . S
Zn28 O38 1.910 1_455 S
O29 Zn26 1.933 . S
O29 C40 1.226 . S
O30 Zn28 1.932 . S
O30 C40 1.307 . S
O31 Zn24 1.919 . S
O31 C42 1.253 . S
O32 Zn26 1.941 1_655 S
O32 C42 1.283 . S
O33 Zn26 1.965 . S
O33 C41 1.303 . S
O34 Zn27 1.938 . S
O34 C41 1.247 . S
O35 Zn27 1.906 . S
O35 C43 1.304 . S
O36 Zn24 1.924 . S
O36 C44 1.311 . S
O37 Zn28 1.977 . S
O37 C43 1.272 . S
O38 Zn28 1.910 1_655 S
O38 C44 1.231 . S
C39 O23 1.225 1_455 S
C39 O45 1.298 . S
C40 O29 1.226 . S
C40 O30 1.307 . S
C41 O33 1.303 . S
C41 O34 1.247 . S
C42 O31 1.253 . S
C42 O32 1.283 . S
C43 O35 1.304 . S
C43 O37 1.272 . S
C44 O36 1.311 . S
C44 O38 1.231 . S
O45 Zn27 1.953 . S
O45 C39 1.298 . S
O46 Zn47 1.953 1_455 S
O46 C62 1.225 1_556 S
Zn47 O46 1.953 1_655 S
Zn47 O48 1.948 1_556 S
Zn47 O54 1.919 . S
Zn47 O59 1.924 1_556 S
O48 Zn47 1.948 1_554 S
O48 Zn49 1.923 1_544 S
O48 Zn50 1.951 1_545 S
O48 Zn51 1.944 . S
Zn49 O48 1.923 1_566 S
Zn49 O52 1.933 . S
Zn49 O55 1.941 1_565 S
Zn49 O56 1.965 . S
Zn50 O48 1.951 1_565 S
Zn50 O57 1.938 1_554 S
Zn50 O58 1.906 . S
Zn50 O68 1.953 . S
Zn51 O48 1.944 . S
Zn51 O53 1.932 . S
Zn51 O60 1.977 1_545 S
Zn51 O61 1.910 . S
O52 Zn49 1.933 . S
O52 C63 1.226 1_556 S
O53 Zn51 1.932 . S
O53 C63 1.307 1_545 S
O54 Zn47 1.919 . S
O54 C65 1.253 . S
O55 Zn49 1.941 1_545 S
O55 C65 1.283 . S
O56 Zn49 1.965 . S
O56 C64 1.303 . S
O57 Zn50 1.938 1_556 S
O57 C64 1.247 . S
O58 Zn50 1.906 . S
O58 C66 1.304 . S
O59 Zn47 1.924 1_554 S
O59 C67 1.311 . S
O60 Zn51 1.977 1_565 S
O60 C66 1.272 . S
O61 Zn51 1.910 . S
O61 C67 1.231 . S
C62 O46 1.225 1_554 S
C62 O68 1.298 1_445 S
C63 O52 1.226 1_554 S
C63 O53 1.307 1_565 S
C64 O56 1.303 . S
C64 O57 1.247 . S
C65 O54 1.253 . S
C65 O55 1.283 . S
C66 O58 1.304 . S
C66 O60 1.272 . S
C67 O59 1.311 . S
C67 O61 1.231 . S
O68 Zn50 1.953 . S
O68 C62 1.298 1_665 S
O69 Zn70 1.953 1_545 S
O69 C85 1.225 . S
Zn70 O69 1.953 1_565 S
Zn70 O71 1.948 . S
Zn70 O77 1.919 . S
Zn70 O82 1.924 . S
O71 Zn70 1.948 . S
O71 Zn72 1.923 1_455 S
O71 Zn73 1.951 1_455 S
O71 Zn74 1.944 . S
Zn72 O71 1.923 1_655 S
Zn72 O75 1.933 . S
Zn72 O78 1.941 1_655 S
Zn72 O79 1.965 . S
Zn73 O71 1.951 1_655 S
Zn73 O80 1.938 . S
Zn73 O81 1.906 . S
Zn73 O91 1.953 . S
Zn74 O71 1.944 . S
Zn74 O76 1.932 . S
Zn74 O83 1.977 1_455 S
Zn74 O84 1.910 . S
O75 Zn72 1.933 . S
O75 C86 1.226 . S
O76 Zn74 1.932 . S
O76 C86 1.307 1_455 S
O77 Zn70 1.919 . S
O77 C88 1.253 . S
O78 Zn72 1.941 1_455 S
O78 C88 1.283 . S
O79 Zn72 1.965 . S
O79 C87 1.303 . S
O80 Zn73 1.938 . S
O80 C87 1.247 . S
O81 Zn73 1.906 . S
O81 C89 1.304 . S
O82 Zn70 1.924 . S
O82 C90 1.311 . S
O83 Zn74 1.977 1_655 S
O83 C89 1.272 . S
O84 Zn74 1.910 . S
O84 C90 1.231 . S
C85 O69 1.225 . S
C85 O91 1.298 1_445 S
C86 O75 1.226 . S
C86 O76 1.307 1_655 S
C87 O79 1.303 . S
C87 O80 1.247 . S
C88 O77 1.253 . S
C88 O78 1.283 . S
C89 O81 1.304 . S
C89 O83 1.272 . S
C90 O82 1.311 . S
C90 O84 1.231 . S
O91 Zn73 1.953 . S
O91 C85 1.298 1_665 S
C62 C16 0.567 . S
C85 C39 0.567 . S
C63 C17 1.132 1_565 S
C40 C86 1.132 1_455 S
C43 C20 2.310 . S
C42 C65 2.196 . S
C89 C66 2.311 . S
C88 C19 2.196 . S
C64 C87 1.549 . S
C21 C90 1.473 . S
C41 C18 1.549 . S
C67 C44 1.473 . S
