# Generated by pormake.
# Topology uni, (4)-cn, num edge types: 1
# Building blocks:
#     Node 0, Type 0, BuildingBlock: AZAVOO_clean_sbu_0, # of connection points: 4
#     Node 1, Type 0, BuildingBlock: AZAVOO_clean_sbu_0, # of connection points: 4
#     Node 2, Type 0, BuildingBlock: AZAVOO_clean_sbu_0, # of connection points: 4
#     Node 3, Type 0, BuildingBlock: AZAVOO_clean_sbu_0, # of connection points: 4
#     Node 4, Type 0, BuildingBlock: AZAVOO_clean_sbu_0, # of connection points: 4
#     Node 5, Type 0, BuildingBlock: AZAVOO_clean_sbu_0, # of connection points: 4
#     Edge 6, Type (0, 0), BuildingBlock: OJICUG_clean_linker_0, # of connection points: 2
#     Edge 7, Type (0, 0), BuildingBlock: OJICUG_clean_linker_0, # of connection points: 2
#     Edge 8, Type (0, 0), BuildingBlock: OJICUG_clean_linker_0, # of connection points: 2
#     Edge 9, Type (0, 0), BuildingBlock: OJICUG_clean_linker_0, # of connection points: 2
#     Edge 10, Type (0, 0), BuildingBlock: OJICUG_clean_linker_0, # of connection points: 2
#     Edge 11, Type (0, 0), BuildingBlock: OJICUG_clean_linker_0, # of connection points: 2
#     Edge 12, Type (0, 0), BuildingBlock: OJICUG_clean_linker_0, # of connection points: 2
#     Edge 13, Type (0, 0), BuildingBlock: OJICUG_clean_linker_0, # of connection points: 2
#     Edge 14, Type (0, 0), BuildingBlock: OJICUG_clean_linker_0, # of connection points: 2
#     Edge 15, Type (0, 0), BuildingBlock: OJICUG_clean_linker_0, # of connection points: 2
#     Edge 16, Type (0, 0), BuildingBlock: OJICUG_clean_linker_0, # of connection points: 2
#     Edge 17, Type (0, 0), BuildingBlock: OJICUG_clean_linker_0, # of connection points: 2
# Relax obj value: 0.051
# Max RMSD: 0.093
# Mean RMSD: 0.093
data_MOF--net-uni--node1-AZAVOO_clean_sbu_0--edge1-OJICUG_clean_linker_0
_symmetry_space_group_name_H-M    P1
_symmetry_Int_Tables_number       1
_symmetry_cell_setting            triclinic
loop_
_symmetry_equiv_pos_as_xyz
'x, y, z'
_cell_length_a     30.061611
_cell_length_b     30.059137
_cell_length_c     15.465386
_cell_angle_alpha  89.97942
_cell_angle_beta   90.010731
_cell_angle_gamma 120.17886
loop_
_atom_site_label
_atom_site_type_symbol
_atom_site_fract_x
_atom_site_fract_y
_atom_site_fract_z
_atom_type_partial_charge
Mg0 Mg 0.63331 -0.01026 0.03596 0.0
O1 O 0.59041 0.00901 0.13814 0.0
O2 O 0.58576 0.0771 0.09252 0.0
Mg3 Mg 0.62245 0.09913 0.95865 0.0
C4 C 0.57667 0.04249 0.14879 0.0
C5 C 0.67845 0.93064 0.14672 0.0
O6 O 0.72235 0.96125 0.10797 0.0
O7 O 0.71093 0.05925 0.07255 0.0
O8 O 0.70149 0.12255 0.01618 0.0
O9 O 0.55934 0.93741 0.96993 0.0
O10 O 0.60742 0.02008 0.93906 0.0
C11 C 0.72852 0.10671 0.0548 0.0
C12 C 0.56565 0.97691 0.9263 0.0
O13 O 0.63994 0.93629 0.13252 0.0
Mg14 Mg 0.64551 0.62987 0.18774 0.0
O15 O 0.58162 0.58555 0.28703 0.0
O16 O 0.50958 0.58191 0.24 0.0
Mg17 Mg 0.52647 0.6209 0.10788 0.0
C18 C 0.53425 0.57182 0.29637 0.0
C19 C 0.74704 0.67335 0.307 0.0
O20 O 0.76056 0.71865 0.27377 0.0
O21 O 0.65376 0.70689 0.22758 0.0
O22 O 0.58172 0.69871 0.17012 0.0
O23 O 0.62407 0.55696 0.11848 0.0
O24 O 0.59045 0.60584 0.0889 0.0
C25 C 0.62424 0.72487 0.21054 0.0
C26 C 0.59156 0.56416 0.07462 0.0
O27 O 0.70406 0.63469 0.28612 0.0
Mg28 Mg 0.01476 0.64268 0.36002 0.0
O29 O -0.00456 0.57924 0.45989 0.0
O30 O 0.92744 0.50651 0.41303 0.0
Mg31 Mg 0.90544 0.52254 0.28022 0.0
C32 C 0.96205 0.53173 0.46951 0.0
C33 C 0.07325 0.74524 0.47698 0.0
O34 O 0.04249 0.75913 0.44103 0.0
O35 O 0.94517 0.64984 0.39853 0.0
O36 O 0.88196 0.57727 0.34067 0.0
O37 O 0.0671 0.62211 0.29182 0.0
O38 O -0.01559 0.58736 0.26146 0.0
C39 C 0.89771 0.61977 0.3807 0.0
C40 C 0.02757 0.58915 0.24777 0.0
O41 O 0.06808 0.7017 0.45847 0.0
Mg42 Mg 0.37336 0.01241 0.5358 0.0
O43 O 0.41631 -0.00678 0.63806 0.0
O44 O 0.42098 0.92514 0.59257 0.0
Mg45 Mg 0.38434 0.9031 0.45865 0.0
C46 C 0.43006 0.95975 0.64878 0.0
C47 C 0.32784 0.07101 0.64688 0.0
O48 O 0.28392 0.04016 0.60841 0.0
O49 O 0.29578 0.94285 0.57234 0.0
O50 O 0.30523 0.87957 0.516 0.0
O51 O 0.44733 0.06482 0.4698 0.0
O52 O 0.39934 0.98214 0.43901 0.0
C53 C 0.27819 0.8954 0.55457 0.0
C54 C 0.44108 0.02534 0.42624 0.0
O55 O 0.36653 0.06573 0.63232 0.0
Mg56 Mg 0.3602 0.37149 0.6879 0.0
O57 O 0.42412 0.41576 0.78711 0.0
O58 O 0.49614 0.41939 0.74008 0.0
Mg59 Mg 0.47917 0.38034 0.60807 0.0
C60 C 0.47149 0.42949 0.79644 0.0
C61 C 0.25874 0.32838 0.80744 0.0
O62 O 0.24502 0.28297 0.77457 0.0
O63 O 0.35184 0.29443 0.72792 0.0
O64 O 0.42389 0.30261 0.67054 0.0
O65 O 0.38171 0.4444 0.6185 0.0
O66 O 0.41521 0.39543 0.58899 0.0
C67 C 0.38138 0.27647 0.71099 0.0
C68 C 0.41416 0.43713 0.57463 0.0
O69 O 0.30176 0.3669 0.78626 0.0
Mg70 Mg -0.00853 0.35979 0.86017 0.0
O71 O 0.01076 0.42321 0.96 0.0
O72 O 0.07877 0.49594 0.91312 0.0
Mg73 Mg 0.10078 0.47995 0.78031 0.0
C74 C 0.04415 0.47072 0.9696 0.0
C75 C 0.93325 0.25722 0.97713 0.0
O76 O 0.96411 0.2435 0.94111 0.0
O77 O 0.06108 0.35268 0.89868 0.0
O78 O 0.1243 0.42522 0.84072 0.0
O79 O 0.9391 0.38033 0.79195 0.0
O80 O 0.0218 0.41513 0.76161 0.0
C81 C 0.10854 0.38271 0.8808 0.0
C82 C 0.97862 0.41331 0.74791 0.0
O83 O 0.93824 0.3007 0.95865 0.0
C84 C 0.54497 0.08263 0.25573 0.0
C85 C 0.54612 0.03908 0.2259 0.0
H86 H 0.51156 0.11245 0.34396 0.0
C87 C 0.51509 -0.0085 0.26683 0.0
H88 H 0.56867 0.11985 0.22569 0.0
C89 C 0.48169 0.98708 0.33346 0.0
C90 C 0.47955 0.03036 0.36171 0.0
H91 H 0.51505 0.95723 0.24506 0.0
H92 H 0.45715 0.94965 0.3618 0.0
C93 C 0.51243 0.07841 0.32365 0.0
C94 C 0.52211 0.50946 0.41382 0.0
C95 C 0.50612 0.54071 0.37255 0.0
H96 H 0.50537 0.4518 0.5095 0.0
C97 C 0.46144 0.53982 0.40181 0.0
H98 H 0.5563 0.50922 0.39246 0.0
C99 C 0.43277 0.50756 0.46993 0.0
C100 C 0.44756 0.47471 0.50877 0.0
H101 H 0.44834 0.56368 0.37148 0.0
H102 H 0.398 0.50704 0.49008 0.0
C103 C 0.49277 0.47635 0.48063 0.0
C104 C 0.01703 0.49217 0.65455 0.0
C105 C 0.97377 0.44635 0.68235 0.0
H106 H 0.047 0.55575 0.56653 0.0
C107 C 0.92592 0.43057 0.64325 0.0
H108 H 0.0543 0.50554 0.68368 0.0
C109 C 0.92186 0.45884 0.57508 0.0
C110 C 0.96536 0.50409 0.54602 0.0
H111 H 0.89191 0.39532 0.66317 0.0
H112 H 0.88477 0.44495 0.54445 0.0
C113 C 0.01276 0.52108 0.58768 0.0
C114 C 0.4942 0.92384 0.8239 0.0
C115 C 0.52721 0.97192 0.86172 0.0
H116 H 0.43785 0.88236 0.72612 0.0
C117 C 0.5252 0.01523 0.83319 0.0
H118 H 0.49497 0.88977 0.84443 0.0
C119 C 0.49179 0.01081 0.76656 0.0
C120 C 0.46063 0.96319 0.72589 0.0
H121 H 0.54986 0.0527 0.86132 0.0
H122 H 0.49194 0.04511 0.74457 0.0
C123 C 0.46165 0.91961 0.75597 0.0
C124 C 0.51282 0.52473 0.98095 0.0
C125 C 0.55817 0.52656 1.00881 0.0
H126 H 0.44919 0.49172 0.89299 0.0
C127 C 0.57311 0.4939 0.96974 0.0
H128 H 0.50011 0.54911 0.01002 0.0
C129 C 0.54444 0.46165 0.90165 0.0
C130 C 0.49963 0.46057 0.87261 0.0
H131 H 0.60799 0.49457 0.9897 0.0
H132 H 0.55766 0.43794 0.87113 0.0
C133 C 0.4835 0.49162 0.91414 0.0
C134 C -0.00661 0.48144 0.08751 0.0
C135 C 0.04083 0.49836 0.04604 0.0
H136 H 0.95182 0.49706 0.18328 0.0
C137 C 0.08435 0.54353 0.07522 0.0
H138 H 0.95913 0.44684 0.06625 0.0
C139 C 0.08029 0.57181 0.14334 0.0
C140 C 0.03241 0.55611 0.18225 0.0
H141 H 0.12147 0.55735 0.04474 0.0
H142 H 0.11432 0.607 0.16336 0.0
C143 C -0.01088 0.51037 0.15432 0.0
C144 C 0.69388 0.81698 0.2043 0.0
C145 C 0.64262 0.78004 0.22346 0.0
H146 H 0.74588 0.89461 0.16466 0.0
C147 C 0.60658 0.7961 0.23556 0.0
H148 H 0.72242 0.80554 0.19448 0.0
C149 C 0.61999 0.84695 0.21923 0.0
C150 C 0.66951 0.88255 0.18892 0.0
H151 H 0.56692 0.76843 0.25117 0.0
H152 H 0.59021 0.85711 0.22347 0.0
C153 C 0.70721 0.86794 0.18669 0.0
C154 C 0.87503 0.68904 0.37399 0.0
C155 C 0.86039 0.63758 0.39156 0.0
H156 H 0.8501 0.74117 0.33311 0.0
C157 C 0.80791 0.60104 0.39966 0.0
H158 H 0.91528 0.718 0.36732 0.0
C159 C 0.7707 0.61424 0.38054 0.0
C160 C 0.78526 0.66414 0.35177 0.0
H161 H 0.79561 0.56121 0.41408 0.0
H162 H 0.73062 0.58418 0.38159 0.0
C163 C 0.83765 0.70222 0.35384 0.0
C164 C 0.13565 0.83591 0.52338 0.0
C165 C 0.12075 0.78343 0.52215 0.0
H166 H 0.1981 0.91342 0.53732 0.0
C167 C 0.15557 0.76866 0.55241 0.0
H168 H 0.10956 0.84852 0.50148 0.0
C169 C 0.20612 0.80571 0.57237 0.0
C170 C 0.22269 0.85824 0.56376 0.0
H171 H 0.14511 0.72852 0.55408 0.0
H172 H 0.23328 0.79321 0.58806 0.0
C173 C 0.18631 0.87312 0.54447 0.0
C174 C 0.31187 0.18432 0.70445 0.0
C175 C 0.36305 0.22131 0.72403 0.0
H176 H 0.26013 0.10674 0.66435 0.0
C177 C 0.39913 0.20534 0.7365 0.0
H178 H 0.2833 0.19569 0.69434 0.0
C179 C 0.38589 0.15456 0.72004 0.0
C180 C 0.3365 0.11894 0.68927 0.0
H181 H 0.43873 0.23305 0.75243 0.0
H182 H 0.41572 0.14448 0.72454 0.0
C183 C 0.29871 0.13343 0.68674 0.0
C184 C 0.19834 0.40131 0.89927 0.0
C185 C 0.14581 0.36483 0.89165 0.0
H186 H 0.27553 0.41792 0.88096 0.0
C187 C 0.13103 0.31327 0.87465 0.0
H188 H 0.21076 0.44121 0.91326 0.0
C189 C 0.16827 0.2999 0.85461 0.0
C190 C 0.22068 0.33789 0.85208 0.0
H191 H 0.09073 0.28435 0.86837 0.0
H192 H 0.15569 0.26085 0.83434 0.0
C193 C 0.23542 0.38792 0.88028 0.0
C194 C 0.85101 0.23354 0.05302 0.0
C195 C 0.88585 0.2189 0.02238 0.0
H196 H 0.77331 0.20879 0.089 0.0
C197 C 0.87103 0.16644 0.0233 0.0
H198 H 0.86142 0.27366 0.05494 0.0
C199 C 0.82041 0.12913 0.04443 0.0
C200 C 0.784 0.14389 0.06408 0.0
H201 H 0.89715 0.15392 1.0011 0.0
H202 H 0.80867 0.08886 0.037 0.0
C203 C 0.8005 0.19639 0.07304 0.0
loop_
_geom_bond_atom_site_label_1
_geom_bond_atom_site_label_2
_geom_bond_distance
_geom_bond_site_symmetry_2
_ccdc_geom_bond_type
Mg0 O1 2.028 . S
Mg0 O7 1.986 . S
Mg0 O9 2.114 1_544 S
Mg0 O10 2.251 1_554 S
Mg0 O13 2.010 1_545 S
O1 Mg0 2.028 . S
O1 C4 1.250 . S
O2 Mg3 2.028 . S
O2 C4 1.248 . S
Mg3 O2 2.028 . S
Mg3 O8 2.032 . S
Mg3 O10 2.079 1_554 S
C4 O1 1.250 . S
C4 O2 1.248 . S
C5 O6 1.264 . S
C5 O13 1.249 . S
O6 C5 1.264 . S
O7 Mg0 1.986 . S
O7 C11 1.246 . S
O8 Mg3 2.032 . S
O8 C11 1.259 . S
O9 Mg0 2.114 1_566 S
O9 C12 1.252 1_565 S
O10 Mg0 2.251 1_556 S
O10 Mg3 2.079 1_556 S
O10 C12 1.273 . S
C11 O7 1.246 . S
C11 O8 1.259 . S
C12 O9 1.252 1_545 S
C12 O10 1.273 . S
O13 Mg0 2.010 1_565 S
O13 C5 1.249 . S
Mg14 O15 2.028 . S
Mg14 O21 1.986 . S
Mg14 O23 2.114 . S
Mg14 O24 2.251 . S
Mg14 O27 2.010 . S
O15 Mg14 2.028 . S
O15 C18 1.250 . S
O16 Mg17 2.028 . S
O16 C18 1.248 . S
Mg17 O16 2.028 . S
Mg17 O22 2.032 . S
Mg17 O24 2.079 . S
C18 O15 1.250 . S
C18 O16 1.248 . S
C19 O20 1.264 . S
C19 O27 1.249 . S
O20 C19 1.264 . S
O21 Mg14 1.986 . S
O21 C25 1.246 . S
O22 Mg17 2.032 . S
O22 C25 1.259 . S
O23 Mg14 2.114 . S
O23 C26 1.252 . S
O24 Mg14 2.251 . S
O24 Mg17 2.079 . S
O24 C26 1.273 . S
C25 O21 1.246 . S
C25 O22 1.259 . S
C26 O23 1.252 . S
C26 O24 1.273 . S
O27 Mg14 2.010 . S
O27 C19 1.249 . S
Mg28 O29 2.028 . S
Mg28 O35 1.986 1_455 S
Mg28 O37 2.114 . S
Mg28 O38 2.251 1_455 S
Mg28 O41 2.010 . S
O29 Mg28 2.028 . S
O29 C32 1.250 . S
O30 Mg31 2.028 . S
O30 C32 1.248 1_655 S
Mg31 O30 2.028 . S
Mg31 O36 2.032 . S
Mg31 O38 2.079 . S
C32 O29 1.250 . S
C32 O30 1.248 1_455 S
C33 O34 1.264 . S
C33 O41 1.249 . S
O34 C33 1.264 . S
O35 Mg28 1.986 1_655 S
O35 C39 1.246 . S
O36 Mg31 2.032 . S
O36 C39 1.259 . S
O37 Mg28 2.114 . S
O37 C40 1.252 . S
O38 Mg28 2.251 1_655 S
O38 Mg31 2.079 . S
O38 C40 1.273 1_655 S
C39 O35 1.246 . S
C39 O36 1.259 . S
C40 O37 1.252 . S
C40 O38 1.273 1_455 S
O41 Mg28 2.010 . S
O41 C33 1.249 . S
Mg42 O43 2.028 . S
Mg42 O49 1.986 1_545 S
Mg42 O51 2.114 . S
Mg42 O52 2.251 1_545 S
Mg42 O55 2.010 . S
O43 Mg42 2.028 . S
O43 C46 1.250 1_545 S
O44 Mg45 2.028 . S
O44 C46 1.248 . S
Mg45 O44 2.028 . S
Mg45 O50 2.032 . S
Mg45 O52 2.079 . S
C46 O43 1.250 1_565 S
C46 O44 1.248 . S
C47 O48 1.264 . S
C47 O55 1.249 . S
O48 C47 1.264 . S
O49 Mg42 1.986 1_565 S
O49 C53 1.246 . S
O50 Mg45 2.032 . S
O50 C53 1.259 . S
O51 Mg42 2.114 . S
O51 C54 1.252 . S
O52 Mg42 2.251 1_565 S
O52 Mg45 2.079 . S
O52 C54 1.273 1_565 S
C53 O49 1.246 . S
C53 O50 1.259 . S
C54 O51 1.252 . S
C54 O52 1.273 1_545 S
O55 Mg42 2.010 . S
O55 C47 1.249 . S
Mg56 O57 2.028 . S
Mg56 O63 1.986 . S
Mg56 O65 2.114 . S
Mg56 O66 2.251 . S
Mg56 O69 2.010 . S
O57 Mg56 2.028 . S
O57 C60 1.250 . S
O58 Mg59 2.028 . S
O58 C60 1.248 . S
Mg59 O58 2.028 . S
Mg59 O64 2.032 . S
Mg59 O66 2.079 . S
C60 O57 1.250 . S
C60 O58 1.248 . S
C61 O62 1.264 . S
C61 O69 1.249 . S
O62 C61 1.264 . S
O63 Mg56 1.986 . S
O63 C67 1.246 . S
O64 Mg59 2.032 . S
O64 C67 1.259 . S
O65 Mg56 2.114 . S
O65 C68 1.252 . S
O66 Mg56 2.251 . S
O66 Mg59 2.079 . S
O66 C68 1.273 . S
C67 O63 1.246 . S
C67 O64 1.259 . S
C68 O65 1.252 . S
C68 O66 1.273 . S
O69 Mg56 2.010 . S
O69 C61 1.249 . S
Mg70 O71 2.028 . S
Mg70 O77 1.986 . S
Mg70 O79 2.114 1_455 S
Mg70 O80 2.251 . S
Mg70 O83 2.010 1_455 S
O71 Mg70 2.028 . S
O71 C74 1.250 1_556 S
O72 Mg73 2.028 . S
O72 C74 1.248 1_556 S
Mg73 O72 2.028 . S
Mg73 O78 2.032 . S
Mg73 O80 2.079 . S
C74 O71 1.250 1_554 S
C74 O72 1.248 1_554 S
C75 O76 1.264 . S
C75 O83 1.249 . S
O76 C75 1.264 . S
O77 Mg70 1.986 . S
O77 C81 1.246 . S
O78 Mg73 2.032 . S
O78 C81 1.259 . S
O79 Mg70 2.114 1_655 S
O79 C82 1.252 1_655 S
O80 Mg70 2.251 . S
O80 Mg73 2.079 . S
O80 C82 1.273 . S
C81 O77 1.246 . S
C81 O78 1.259 . S
C82 O79 1.252 1_455 S
C82 O80 1.273 . S
O83 Mg70 2.010 1_655 S
O83 C75 1.249 . S
C84 C85 1.387 . S
C84 H88 0.950 . S
C84 C93 1.390 . S
C85 C84 1.387 . S
C85 C87 1.387 1_545 S
H86 C93 0.950 . S
C87 C85 1.387 1_565 S
C87 C89 1.390 . S
C87 H91 0.950 . S
H88 C84 0.950 . S
C89 C87 1.390 . S
C89 C90 1.387 1_565 S
C89 H92 0.950 . S
C90 C89 1.387 1_545 S
C90 C93 1.387 . S
H91 C87 0.950 . S
H92 C89 0.950 . S
C93 C84 1.390 . S
C93 H86 0.950 . S
C93 C90 1.387 . S
C94 C95 1.387 . S
C94 H98 0.950 . S
C94 C103 1.390 . S
C95 C94 1.387 . S
C95 C97 1.387 . S
H96 C103 0.950 . S
C97 C95 1.387 . S
C97 C99 1.390 . S
C97 H101 0.950 . S
H98 C94 0.950 . S
C99 C97 1.390 . S
C99 C100 1.387 . S
C99 H102 0.950 . S
C100 C99 1.387 . S
C100 C103 1.387 . S
H101 C97 0.950 . S
H102 C99 0.950 . S
C103 C94 1.390 . S
C103 H96 0.950 . S
C103 C100 1.387 . S
C104 C105 1.387 . S
C104 H108 0.950 . S
C104 C113 1.390 . S
C105 C104 1.387 . S
C105 C107 1.387 1_455 S
H106 C113 0.950 . S
C107 C105 1.387 1_655 S
C107 C109 1.390 . S
C107 H111 0.950 . S
H108 C104 0.950 . S
C109 C107 1.390 . S
C109 C110 1.387 1_655 S
C109 H112 0.950 . S
C110 C109 1.387 1_455 S
C110 C113 1.387 . S
H111 C107 0.950 . S
H112 C109 0.950 . S
C113 C104 1.390 . S
C113 H106 0.950 . S
C113 C110 1.387 . S
C114 C115 1.383 1_565 S
C114 H118 0.950 . S
C114 C123 1.390 . S
C115 C114 1.383 1_545 S
C115 C117 1.394 . S
H116 C123 0.950 . S
C117 C115 1.394 . S
C117 C119 1.390 . S
C117 H121 0.950 . S
H118 C114 0.950 . S
C119 C117 1.390 . S
C119 C120 1.387 . S
C119 H122 0.950 . S
C120 C119 1.387 . S
C120 C123 1.387 1_545 S
H121 C117 0.950 . S
H122 C119 0.950 . S
C123 C114 1.390 . S
C123 H116 0.950 . S
C123 C120 1.387 1_565 S
C124 C125 1.387 . S
C124 H128 0.950 . S
C124 C133 1.390 1_554 S
C125 C124 1.387 . S
C125 C127 1.387 1_554 S
H126 C133 0.950 1_554 S
C127 C125 1.387 1_556 S
C127 C129 1.390 . S
C127 H131 0.950 . S
H128 C124 0.950 . S
C129 C127 1.390 . S
C129 C130 1.387 . S
C129 H132 0.950 . S
C130 C129 1.387 . S
C130 C133 1.387 . S
H131 C127 0.950 . S
H132 C129 0.950 . S
C133 C124 1.390 1_556 S
C133 H126 0.950 1_556 S
C133 C130 1.387 . S
C134 C135 1.387 . S
C134 H138 0.950 1_455 S
C134 C143 1.390 . S
C135 C134 1.387 . S
C135 C137 1.387 . S
H136 C143 0.950 1_655 S
C137 C135 1.387 . S
C137 C139 1.390 . S
C137 H141 0.950 . S
H138 C134 0.950 1_655 S
C139 C137 1.390 . S
C139 C140 1.387 . S
C139 H142 0.950 . S
C140 C139 1.387 . S
C140 C143 1.387 . S
H141 C137 0.950 . S
H142 C139 0.950 . S
C143 C134 1.390 . S
C143 H136 0.950 1_455 S
C143 C140 1.387 . S
C144 C145 1.387 . S
C144 H148 0.950 . S
C144 C153 1.390 . S
C145 C144 1.387 . S
C145 C147 1.387 . S
H146 C153 0.950 . S
C147 C145 1.387 . S
C147 C149 1.390 . S
C147 H151 0.950 . S
H148 C144 0.950 . S
C149 C147 1.390 . S
C149 C150 1.387 . S
C149 H152 0.950 . S
C150 C149 1.387 . S
C150 C153 1.387 . S
H151 C147 0.950 . S
H152 C149 0.950 . S
C153 C144 1.390 . S
C153 H146 0.950 . S
C153 C150 1.387 . S
C154 C155 1.387 . S
C154 H158 0.950 . S
C154 C163 1.390 . S
C155 C154 1.387 . S
C155 C157 1.387 . S
H156 C163 0.950 . S
C157 C155 1.387 . S
C157 C159 1.390 . S
C157 H161 0.950 . S
H158 C154 0.950 . S
C159 C157 1.390 . S
C159 C160 1.387 . S
C159 H162 0.950 . S
C160 C159 1.387 . S
C160 C163 1.387 . S
H161 C157 0.950 . S
H162 C159 0.950 . S
C163 C154 1.390 . S
C163 H156 0.950 . S
C163 C160 1.387 . S
C164 C165 1.387 . S
C164 H168 0.950 . S
C164 C173 1.390 . S
C165 C164 1.387 . S
C165 C167 1.387 . S
H166 C173 0.950 . S
C167 C165 1.387 . S
C167 C169 1.390 . S
C167 H171 0.950 . S
H168 C164 0.950 . S
C169 C167 1.390 . S
C169 C170 1.387 . S
C169 H172 0.950 . S
C170 C169 1.387 . S
C170 C173 1.387 . S
H171 C167 0.950 . S
H172 C169 0.950 . S
C173 C164 1.390 . S
C173 H166 0.950 . S
C173 C170 1.387 . S
C174 C175 1.387 . S
C174 H178 0.950 . S
C174 C183 1.390 . S
C175 C174 1.387 . S
C175 C177 1.387 . S
H176 C183 0.950 . S
C177 C175 1.387 . S
C177 C179 1.390 . S
C177 H181 0.950 . S
H178 C174 0.950 . S
C179 C177 1.390 . S
C179 C180 1.387 . S
C179 H182 0.950 . S
C180 C179 1.387 . S
C180 C183 1.387 . S
H181 C177 0.950 . S
H182 C179 0.950 . S
C183 C174 1.390 . S
C183 H176 0.950 . S
C183 C180 1.387 . S
C184 C185 1.387 . S
C184 H188 0.950 . S
C184 C193 1.390 . S
C185 C184 1.387 . S
C185 C187 1.387 . S
H186 C193 0.950 . S
C187 C185 1.387 . S
C187 C189 1.390 . S
C187 H191 0.950 . S
H188 C184 0.950 . S
C189 C187 1.390 . S
C189 C190 1.387 . S
C189 H192 0.950 . S
C190 C189 1.387 . S
C190 C193 1.387 . S
H191 C187 0.950 . S
H192 C189 0.950 . S
C193 C184 1.390 . S
C193 H186 0.950 . S
C193 C190 1.387 . S
C194 C195 1.387 1_554 S
C194 H198 0.950 . S
C194 C203 1.390 . S
C195 C194 1.387 1_556 S
C195 C197 1.387 . S
H196 C203 0.950 . S
C197 C195 1.387 . S
C197 C199 1.390 . S
C197 H201 0.950 . S
H198 C194 0.950 . S
C199 C197 1.390 . S
C199 C200 1.387 1_556 S
C199 H202 0.950 . S
C200 C199 1.387 1_554 S
C200 C203 1.387 . S
H201 C197 0.950 . S
H202 C199 0.950 . S
C203 C194 1.390 . S
C203 H196 0.950 . S
C203 C200 1.387 . S
C85 C4 1.366 . S
C90 C54 1.409 . S
C95 C18 1.364 . S
C100 C68 1.408 . S
C105 C82 1.408 . S
C110 C32 1.365 . S
C115 C12 1.406 . S
C120 C46 1.366 1_545 S
C125 C26 1.409 . S
C130 C60 1.366 . S
C135 C74 1.364 . S
C140 C40 1.408 . S
C145 C25 1.447 . S
C150 C5 1.336 . S
C155 C39 1.447 . S
C160 C19 1.332 . S
C165 C33 1.332 . S
C170 C53 1.446 . S
C175 C67 1.448 . S
C180 C47 1.335 . S
C185 C81 1.445 . S
C190 C61 1.337 . S
C195 C75 1.335 . S
C200 C11 1.445 . S
