# Generated by pormake.
# Topology pcu, (6)-cn, num edge types: 1
# Building blocks:
#     Node 0, Type 0, BuildingBlock: BETGAK_clean_sbu_0, # of connection points: 6
#     Edge 1, Type (0, 0), BuildingBlock: XIVTED_clean_linker_0, # of connection points: 2
#     Edge 2, Type (0, 0), BuildingBlock: XIVTED_clean_linker_0, # of connection points: 2
#     Edge 3, Type (0, 0), BuildingBlock: XIVTED_clean_linker_0, # of connection points: 2
# Relax obj value: 0.000
# Max RMSD: 0.000
# Mean RMSD: 0.000
data_MOF--net-pcu--node1-BETGAK_clean_sbu_0--edge1-XIVTED_clean_linker_0
_symmetry_space_group_name_H-M    P1
_symmetry_Int_Tables_number       1
_symmetry_cell_setting            triclinic
loop_
_symmetry_equiv_pos_as_xyz
'x, y, z'
_cell_length_a     15.603677
_cell_length_b     25.323979
_cell_length_c     14.284846
_cell_angle_alpha  102.27734
_cell_angle_beta   89.826942
_cell_angle_gamma 120.83035
loop_
_atom_site_label
_atom_site_type_symbol
_atom_site_fract_x
_atom_site_fract_y
_atom_site_fract_z
_atom_type_partial_charge
La0 La 0.07395 0.09208 0.04023 0.0
La1 La 0.95302 0.9526 1.03917 0.0
C2 C 0.14352 0.19752 0.99817 0.0
C3 C 0.11764 0.2462 1.00266 0.0
C4 C 0.04882 0.25009 0.06287 0.0
C5 C 0.02898 0.29869 0.06866 0.0
C6 C 0.07756 0.34412 1.01418 0.0
C7 C 0.14479 0.33889 0.9525 0.0
C8 C 0.16461 0.29048 0.94698 0.0
C9 C 0.05671 0.06705 0.21142 0.0
C10 C 0.83414 1.02075 1.03841 0.0
C11 C 0.88326 0.847 0.08072 0.0
C12 C 0.90933 0.79842 0.07649 0.0
C13 C 0.97829 0.79457 1.01643 0.0
C14 C 0.99821 0.74602 1.01082 0.0
C15 C 0.94961 0.70061 0.06533 0.0
C16 C 0.88228 0.70582 0.12688 0.0
C17 C 0.86236 0.75418 0.13223 0.0
C18 C 0.97037 0.97796 0.8681 0.0
C19 C 0.19283 0.02395 0.04121 0.0
O20 O 0.16783 0.19116 0.0809 0.0
O21 O 0.08482 0.14271 0.93711 0.0
O22 O 0.13449 0.11551 0.1916 0.0
O23 O 0.99002 0.03835 0.13962 0.0
O24 O 0.91769 0.06954 1.02127 0.0
O25 O 0.83378 0.97265 0.0612 0.0
O26 O 0.85958 0.85351 0.99787 0.0
O27 O 0.94141 0.90173 0.14215 0.0
O28 O 0.89243 0.92954 0.88782 0.0
O29 O 0.03692 1.00631 0.93995 0.0
O30 O 0.10929 0.9752 0.05843 0.0
O31 O 0.19317 0.072 1.01826 0.0
H32 H 1.01154 0.21611 0.10625 0.0
H33 H 0.97739 0.30148 0.11742 0.0
H34 H 0.18197 0.37213 0.90806 0.0
H35 H 0.21741 0.28789 0.89957 0.0
H36 H 0.01557 0.82852 0.97302 0.0
H37 H 0.04989 0.74324 0.96215 0.0
H38 H 0.84507 0.6726 0.17135 0.0
H39 H 0.80946 0.75674 0.17952 0.0
H40 H 0.88623 0.97803 0.269 0.0
H41 H 0.14115 0.06689 0.81063 0.0
H42 H 0.19566 0.12445 0.37185 0.0
H43 H 0.83147 0.92096 0.7078 0.0
H44 H 0.16272 0.08896 0.65069 0.0
H45 H 0.86479 0.95608 0.42897 0.0
C46 C 0.94976 1.00539 0.3253 0.0
C47 C 0.04297 0.05295 0.30731 0.0
C48 C 0.08997 0.05215 0.663 0.0
C49 C 0.01896 0.02851 0.49073 0.0
C50 C 0.0776 0.03968 0.75435 0.0
C51 C 0.98428 0.99222 0.77232 0.0
C52 C 1.00843 1.01677 0.58898 0.0
C53 C 0.90466 0.95798 0.69679 0.0
C54 C 0.93746 0.99298 0.41668 0.0
C55 C 0.12256 0.08735 0.38288 0.0
N56 N 0.91852 0.97092 0.60841 0.0
N57 N 0.10877 0.07446 0.4713 0.0
H58 H 0.22129 0.93096 0.07506 0.0
H59 H 0.80571 0.11378 1.00472 0.0
H60 H 0.3787 0.11416 1.00824 0.0
H61 H 0.64828 0.93054 0.0714 0.0
H62 H 0.64997 0.11474 1.00562 0.0
H63 H 0.37703 0.93002 0.07423 0.0
C64 C 0.28852 0.97105 0.0603 0.0
C65 C 0.28671 0.02274 0.04167 0.0
C66 C 0.64949 0.0743 1.02002 0.0
C67 C 0.46552 1.02189 0.04055 0.0
C68 C 0.73848 0.07369 1.01947 0.0
C69 C 0.74027 1.02198 1.03804 0.0
C70 C 0.56148 0.02284 1.03923 0.0
C71 C 0.65066 0.97145 0.05676 0.0
C72 C 0.37751 0.97044 0.05979 0.0
C73 C 0.37633 0.07326 1.02293 0.0
N74 N 0.56503 0.97318 0.05689 0.0
N75 N 0.46196 0.07154 1.02284 0.0
H76 H 0.8122 0.57626 0.06256 0.0
H77 H 0.215 0.46848 1.01701 0.0
H78 H 0.12765 0.70327 0.04927 0.0
H79 H 0.89957 0.34149 1.03043 0.0
H80 H 0.18427 0.55474 1.02796 0.0
H81 H 0.84296 0.49002 0.0517 0.0
C82 C 0.88815 0.58622 0.05795 0.0
C83 C 0.96752 0.64745 0.05729 0.0
C84 C 0.12172 0.50804 1.02854 0.0
C85 C 1.00303 0.5482 0.04346 0.0
C86 C 0.13906 0.45853 1.02167 0.0
C87 C 0.05968 0.3973 1.02233 0.0
C88 C 0.0242 0.49657 1.03626 0.0
C89 C 0.96333 0.3879 1.0306 0.0
C90 C 0.90551 0.53672 0.05114 0.0
C91 C 0.0639 0.65687 0.0491 0.0
N92 N 0.94833 0.43689 1.03706 0.0
N93 N 0.07891 0.60788 0.04268 0.0
loop_
_geom_bond_atom_site_label_1
_geom_bond_atom_site_label_2
_geom_bond_distance
_geom_bond_site_symmetry_2
_ccdc_geom_bond_type
La0 C2 2.928 . S
La0 O20 2.521 . S
La0 O21 2.628 1_554 S
La0 O22 2.554 . S
La0 O23 2.757 1_545 S
La0 O24 2.470 1_455 S
La0 O29 2.482 1_454 S
La0 O31 2.503 . S
La1 C11 2.928 . S
La1 O23 2.482 1_656 S
La1 O25 2.503 . S
La1 O26 2.521 . S
La1 O27 2.628 1_556 S
La1 O28 2.554 . S
La1 O29 2.757 1_565 S
La1 O30 2.470 1_655 S
C2 La0 2.928 . S
C2 C3 1.503 . S
C2 O20 1.261 . S
C2 O21 1.243 1_554 S
C3 C2 1.503 . S
C3 C4 1.394 . S
C3 C8 1.373 1_454 S
C4 C3 1.394 . S
C4 C5 1.380 . S
C4 H32 0.930 . S
C5 C4 1.380 . S
C5 C6 1.387 . S
C5 H33 0.930 . S
C6 C5 1.387 . S
C6 C7 1.361 1_454 S
C7 C6 1.361 1_656 S
C7 C8 1.396 . S
C7 H34 0.929 . S
C8 C3 1.373 1_656 S
C8 C7 1.396 . S
C8 H35 0.929 . S
C9 O22 1.240 . S
C9 O23 1.289 1_545 S
C10 O24 1.258 1_565 S
C10 O25 1.255 1_554 S
C11 La1 2.928 . S
C11 C12 1.503 . S
C11 O26 1.261 . S
C11 O27 1.243 1_556 S
C12 C11 1.503 . S
C12 C13 1.394 . S
C12 C17 1.373 1_656 S
C13 C12 1.394 . S
C13 C14 1.380 . S
C13 H36 0.930 . S
C14 C13 1.380 . S
C14 C15 1.384 . S
C14 H37 0.930 . S
C15 C14 1.384 . S
C15 C16 1.363 1_656 S
C16 C15 1.363 1_454 S
C16 C17 1.396 . S
C16 H38 0.929 . S
C17 C12 1.373 1_454 S
C17 C16 1.396 . S
C17 H39 0.929 . S
C18 O28 1.240 . S
C18 O29 1.289 1_565 S
C19 O30 1.258 1_545 S
C19 O31 1.255 1_556 S
O20 La0 2.521 . S
O20 C2 1.261 . S
O21 La0 2.628 1_556 S
O21 C2 1.243 1_556 S
O22 La0 2.554 . S
O22 C9 1.240 . S
O23 La0 2.757 1_565 S
O23 La1 2.482 1_454 S
O23 C9 1.289 1_565 S
O24 La0 2.470 1_655 S
O24 C10 1.258 1_545 S
O25 La1 2.503 . S
O25 C10 1.255 1_556 S
O26 La1 2.521 . S
O26 C11 1.261 . S
O27 La1 2.628 1_554 S
O27 C11 1.243 1_554 S
O28 La1 2.554 . S
O28 C18 1.240 . S
O29 La0 2.482 1_656 S
O29 La1 2.757 1_545 S
O29 C18 1.289 1_545 S
O30 La1 2.470 1_455 S
O30 C19 1.258 1_565 S
O31 La0 2.503 . S
O31 C19 1.255 1_554 S
H32 C4 0.930 . S
H33 C5 0.930 . S
H34 C7 0.929 . S
H35 C8 0.929 . S
H36 C13 0.930 . S
H37 C14 0.930 . S
H38 C16 0.929 . S
H39 C17 0.929 . S
H40 C46 0.930 . S
H41 C50 0.930 . S
H42 C55 0.929 . S
H43 C53 0.929 . S
H44 C48 0.929 . S
H45 C54 0.929 . S
C46 H40 0.930 . S
C46 C47 1.388 . S
C46 C54 1.378 . S
C47 C46 1.388 . S
C47 C55 1.410 1_645 S
C48 H44 0.929 . S
C48 C50 1.378 . S
C48 C52 1.368 . S
C49 C52 1.459 1_645 S
C49 C54 1.350 . S
C49 N57 1.427 1_645 S
C50 H41 0.930 . S
C50 C48 1.378 . S
C50 C51 1.386 . S
C51 C50 1.386 . S
C51 C53 1.412 1_465 S
C52 C48 1.368 . S
C52 C49 1.459 1_465 S
C52 N56 1.411 1_465 S
C53 H43 0.929 . S
C53 C51 1.412 1_645 S
C53 N56 1.384 . S
C54 H45 0.929 . S
C54 C46 1.378 . S
C54 C49 1.350 . S
C55 H42 0.929 . S
C55 C47 1.410 1_465 S
C55 N57 1.384 . S
N56 C52 1.411 1_645 S
N56 C53 1.384 . S
N57 C49 1.427 1_465 S
N57 C55 1.384 . S
H58 C64 0.930 . S
H59 C68 0.930 . S
H60 C73 0.929 . S
H61 C71 0.929 . S
H62 C66 0.929 . S
H63 C72 0.929 . S
C64 H58 0.930 . S
C64 C65 1.373 . S
C64 C72 1.378 . S
C65 C64 1.373 . S
C65 C73 1.432 1_564 S
C66 H62 0.929 . S
C66 C68 1.378 . S
C66 C70 1.352 . S
C67 C70 1.485 1_564 S
C67 C72 1.352 . S
C67 N75 1.416 1_564 S
C68 H59 0.930 . S
C68 C66 1.378 . S
C68 C69 1.377 . S
C69 C68 1.377 . S
C69 C71 1.432 1_546 S
C70 C66 1.352 . S
C70 C67 1.485 1_546 S
C70 N74 1.413 1_546 S
C71 H61 0.929 . S
C71 C69 1.432 1_564 S
C71 N74 1.384 . S
C72 H63 0.929 . S
C72 C64 1.378 . S
C72 C67 1.352 . S
C73 H60 0.929 . S
C73 C65 1.432 1_546 S
C73 N75 1.384 . S
N74 C70 1.413 1_564 S
N74 C71 1.384 . S
N75 C67 1.416 1_546 S
N75 C73 1.384 . S
H76 C82 0.930 . S
H77 C86 0.930 . S
H78 C91 0.929 . S
H79 C89 0.929 . S
H80 C84 0.929 . S
H81 C90 0.929 . S
C82 H76 0.930 . S
C82 C83 1.367 . S
C82 C90 1.378 . S
C83 C82 1.367 . S
C83 C91 1.433 1_654 S
C84 H80 0.929 . S
C84 C86 1.378 . S
C84 C88 1.350 . S
C85 C88 1.463 1_654 S
C85 C90 1.350 . S
C85 N93 1.427 1_654 S
C86 H77 0.930 . S
C86 C84 1.378 . S
C86 C87 1.367 . S
C87 C86 1.367 . S
C87 C89 1.433 1_456 S
C88 C84 1.350 . S
C88 C85 1.463 1_456 S
C88 N92 1.427 1_456 S
C89 H79 0.929 . S
C89 C87 1.433 1_654 S
C89 N92 1.384 . S
C90 H81 0.929 . S
C90 C82 1.378 . S
C90 C85 1.350 . S
C91 H78 0.929 . S
C91 C83 1.433 1_456 S
C91 N93 1.384 . S
N92 C88 1.427 1_654 S
N92 C89 1.384 . S
N93 C85 1.427 1_456 S
N93 C91 1.384 . S
C47 C9 1.452 1_655 S
C51 C18 1.450 1_455 S
C65 C19 1.481 1_564 S
C69 C10 1.478 1_546 S
C83 C15 1.498 1_554 S
C87 C6 1.497 1_556 S
