# Generated by pormake.
# Topology pcu, (6)-cn, num edge types: 1
# Building blocks:
#     Node 0, Type 0, BuildingBlock: KUMBUR_clean_sbu_1, # of connection points: 6
#     Edge 1, Type (0, 0), BuildingBlock: XUDNAN_clean_linker_2, # of connection points: 2
#     Edge 2, Type (0, 0), BuildingBlock: XUDNAN_clean_linker_2, # of connection points: 2
#     Edge 3, Type (0, 0), BuildingBlock: XUDNAN_clean_linker_2, # of connection points: 2
# Relax obj value: 0.000
# Max RMSD: 0.000
# Mean RMSD: 0.000
data_MOF--net-pcu--node1-KUMBUR_clean_sbu_1--edge1-XUDNAN_clean_linker_2
_symmetry_space_group_name_H-M    P1
_symmetry_Int_Tables_number       1
_symmetry_cell_setting            triclinic
loop_
_symmetry_equiv_pos_as_xyz
'x, y, z'
_cell_length_a     14.642861
_cell_length_b     24.386213
_cell_length_c     14.658166
_cell_angle_alpha  112.86469
_cell_angle_beta   89.913958
_cell_angle_gamma 114.57998
loop_
_atom_site_label
_atom_site_type_symbol
_atom_site_fract_x
_atom_site_fract_y
_atom_site_fract_z
_atom_type_partial_charge
Tb0 Tb 0.95501 0.91508 0.94065 0.0
C1 C 0.32635 0.18828 0.18849 0.0
N2 N 0.22786 0.1717 0.20008 0.0
C3 C 0.2811 0.21667 0.37931 0.0
C4 C 0.40584 0.21679 0.27121 0.0
C5 C 0.20525 0.18904 0.29465 0.0
C6 C 0.38159 0.22943 0.36734 0.0
C7 C 0.4494 0.20016 0.07821 0.0
C8 C 0.34801 0.18045 0.09407 0.0
C9 C 0.52862 0.22507 0.15898 0.0
C10 C 0.50686 0.23344 0.25545 0.0
Tb11 Tb 0.10829 0.11785 0.05444 0.0
N12 N 0.26897 0.1549 0.01791 0.0
C13 C 0.46787 0.19555 0.98234 0.0
C14 C 0.28709 0.15534 0.92655 0.0
C15 C 0.38654 0.17428 0.90674 0.0
H16 H 0.12839 0.18111 0.30506 0.0
H17 H 0.40036 0.17231 0.83324 0.0
H18 H 0.8646 0.87861 0.70795 0.0
H19 H 0.76789 0.88044 0.24815 0.0
H20 H 0.22411 0.13857 0.86814 0.0
H21 H 0.54475 0.21007 0.96684 0.0
H22 H 0.91321 0.90511 0.16236 0.0
H23 H 0.26208 0.22844 0.45371 0.0
H24 H 0.60704 0.23955 0.14824 0.0
H25 H 0.56894 0.25448 0.31774 0.0
H26 H 0.69536 0.832 0.60278 0.0
H27 H 0.44032 0.2512 0.43303 0.0
H28 H 0.59403 0.84161 0.15958 0.0
N29 N 0.80402 0.87524 0.83863 0.0
C30 C 0.71875 0.85584 0.87856 0.0
C31 C 0.70101 0.83889 0.68046 0.0
C32 C 0.62078 0.82892 0.82145 0.0
C33 C 0.79673 0.8657 0.74031 0.0
C34 C 0.61267 0.82066 0.72127 0.0
N35 N 0.82675 0.88976 0.02987 0.0
C36 C 0.83982 0.89271 0.12434 0.0
C37 C 0.64416 0.84682 0.02289 0.0
C38 C 0.73068 0.86467 0.97798 0.0
C39 C 0.65846 0.85456 0.12225 0.0
C40 C 0.75655 0.8768 0.17266 0.0
H41 H 0.53867 0.80001 0.67476 0.0
H42 H 0.4584 0.79006 0.82325 0.0
H43 H 0.47889 0.8067 0.99999 0.0
O44 O 0.9126 0.82117 0.94056 0.0
O45 O 0.88099 0.97717 0.93751 0.0
O46 O 0.95687 0.07026 0.08654 0.0
O47 O 0.97752 0.84241 0.81987 0.0
O48 O 0.04046 0.96846 0.09533 0.0
O49 O 0.04467 0.07304 0.15994 0.0
O50 O 0.06208 0.16182 0.97765 0.0
O51 O 0.18643 0.05691 0.98087 0.0
O52 O 0.11799 0.96251 0.00954 0.0
O53 O 0.1307 0.21703 0.13409 0.0
O54 O 1.02954 0.05878 0.89554 0.0
O55 O 0.03142 0.95608 0.8376 0.0
C56 C 0.87521 0.02379 0.01773 0.0
C57 C 1.02192 0.77389 0.87097 0.0
C58 C 0.05262 0.68773 0.89323 0.0
C59 C 0.15688 0.72287 0.89229 0.0
C60 C 0.12659 0.80821 0.87184 0.0
C61 C 0.1933 0.78264 0.8822 0.0
C62 C 0.98562 0.71401 0.88239 0.0
C63 C 0.05602 0.02494 0.17136 0.0
C64 C 0.95036 0.80079 0.86117 0.0
C65 C 0.53452 0.8112 0.86602 0.0
C66 C 0.54622 0.82067 0.96672 0.0
C67 C 0.19664 1.0128 0.0041 0.0
C68 C 1.00615 0.2397 0.0741 0.0
C69 C 0.92825 0.30523 0.04798 0.0
C70 C 0.84476 0.27453 0.0881 0.0
C71 C 0.92275 0.21049 0.11516 0.0
C72 C 1.00916 0.28761 0.04157 0.0
C73 C 0.84247 0.22779 0.12188 0.0
C74 C 0.0382 1.00831 0.82508 0.0
C75 C 0.08607 0.21686 0.0574 0.0
H76 H 0.21056 0.70391 0.89809 0.0
H77 H 0.15702 0.85481 0.8646 0.0
H78 H 0.27372 0.8092 0.88212 0.0
H79 H 0.90536 0.68869 0.88443 0.0
H80 H 0.7816 0.28714 0.0941 0.0
H81 H 0.91919 0.17384 0.14099 0.0
H82 H 0.07282 0.30959 0.00852 0.0
H83 H 0.77788 0.20455 0.15275 0.0
H84 H 1.00007 0.08641 0.34872 0.0
H85 H 0.16353 0.97005 0.21918 0.0
H86 H 0.19011 0.96307 0.37846 0.0
H87 H 0.15143 0.17573 0.61332 0.0
H88 H 0.03941 0.17031 0.66807 0.0
H89 H 0.04682 0.17588 0.54891 0.0
H90 H 0.87619 0.06755 0.46771 0.0
H91 H 0.86877 0.06098 0.58591 0.0
H92 H 0.865 0.9928 0.47443 0.0
H93 H 0.18051 0.95488 0.53933 0.0
H94 H 0.14207 0.95112 0.70105 0.0
H95 H 0.98473 0.07228 0.73235 0.0
C96 C 0.04454 0.06167 0.35558 0.0
C97 C 0.08193 0.03019 0.27248 0.0
C98 C 0.13611 0.99576 0.28253 0.0
C99 C 0.15148 0.99132 0.37269 0.0
C100 C 0.11165 0.0212 0.45238 0.0
C101 C 0.05989 0.05615 0.44557 0.0
C102 C 1.0172 0.07812 0.54027 0.0
C103 C 0.06669 0.15456 0.59596 0.0
C104 C 0.89984 0.04806 0.51557 0.0
C105 C 0.05073 0.04833 0.59935 0.0
C106 C 0.10561 1.0161 0.54707 0.0
C107 C 0.139 0.98078 0.58202 0.0
C108 C 0.11599 0.97839 0.67336 0.0
C109 C 0.06054 1.01135 0.72878 0.0
C110 C 1.02829 0.04728 0.69175 0.0
H111 H 0.32343 0.99408 0.87055 0.0
H112 H 0.30296 0.04965 0.18568 0.0
H113 H 0.47465 0.05875 0.22348 0.0
H114 H 0.4442 0.89315 0.85083 0.0
H115 H 0.5294 0.91866 0.77026 0.0
H116 H 0.40855 0.92143 0.7666 0.0
H117 H 0.49718 0.04655 0.80681 0.0
H118 H 0.61896 0.04467 0.80649 0.0
H119 H 0.5994 0.10387 0.91487 0.0
H120 H 0.64749 0.06146 0.22663 0.0
H121 H 0.81012 0.05611 0.19543 0.0
H122 H 0.71726 0.99335 0.87626 0.0
C123 C 0.35574 1.00822 0.94732 0.0
C124 C 0.29996 0.01975 0.02527 0.0
C125 C 0.34381 0.03862 0.12493 0.0
C126 C 0.44154 0.0446 0.14706 0.0
C127 C 0.49413 0.03141 0.06833 0.0
C128 C 0.45315 1.01388 0.97051 0.0
C129 C 0.52507 1.00109 0.89973 0.0
C130 C 0.47383 0.92928 0.81692 0.0
C131 C 0.56236 0.05208 0.85429 0.0
C132 C 0.61156 1.01225 0.97245 0.0
C133 C 0.59281 0.03101 0.06966 0.0
C134 C 0.66288 0.0466 0.15083 0.0
C135 C 0.75495 0.04349 0.13245 0.0
C136 C 0.77563 0.02398 0.03357 0.0
C137 C 0.70255 1.00759 0.95241 0.0
H138 H 0.15189 0.65372 0.00711 0.0
H139 H 0.86682 0.57584 0.80491 0.0
H140 H 0.80434 0.47067 0.82339 0.0
H141 H 0.17297 0.49977 0.91052 0.0
H142 H 0.22678 0.51311 0.03223 0.0
H143 H 0.24789 0.5834 0.00623 0.0
H144 H 0.17306 0.62974 0.16204 0.0
H145 H 0.15175 0.55964 0.18858 0.0
H146 H 0.04695 0.5778 0.17294 0.0
H147 H 0.77167 0.37373 0.86529 0.0
H148 H 0.77375 0.29172 0.92369 0.0
H149 H 0.08366 0.42973 0.08986 0.0
C150 C 0.07667 0.61451 0.96563 0.0
C151 C 1.01438 0.62387 0.90479 0.0
C152 C 0.91566 0.57104 0.85363 0.0
C153 C 0.87964 0.51067 0.86295 0.0
C154 C 0.94329 0.50328 0.92306 0.0
C155 C 0.03993 0.55364 0.97312 0.0
C156 C 0.09375 0.53265 0.03186 0.0
C157 C 0.19111 0.5322 0.99284 0.0
C158 C 0.11776 0.57763 0.14559 0.0
C159 C 1.01224 0.46256 0.00703 0.0
C160 C 0.92574 0.44676 0.94469 0.0
C161 C 0.83919 0.38551 0.91371 0.0
C162 C 0.84095 0.33932 0.94748 0.0
C163 C 0.92897 0.35423 0.01092 0.0
C164 C 1.01583 0.41662 0.04037 0.0
loop_
_geom_bond_atom_site_label_1
_geom_bond_atom_site_label_2
_geom_bond_distance
_geom_bond_site_symmetry_2
_ccdc_geom_bond_type
Tb0 N29 2.617 . S
Tb0 N35 2.572 . S
Tb0 O44 2.465 . S
Tb0 O45 2.387 . S
Tb0 O47 2.428 . S
Tb0 O48 2.308 1_556 S
Tb0 O52 2.349 1_655 S
Tb0 O55 2.393 . S
Tb0 C64 2.802 . S
C1 N2 1.379 . S
C1 C4 1.416 . S
C1 C8 1.424 . S
N2 C1 1.379 . S
N2 C5 1.334 . S
N2 Tb11 2.617 . S
C3 C5 1.390 . S
C3 C6 1.339 . S
C3 H23 0.930 . S
C4 C1 1.416 . S
C4 C6 1.416 . S
C4 C10 1.448 . S
C5 N2 1.334 . S
C5 C3 1.390 . S
C5 H16 0.930 . S
C6 C3 1.339 . S
C6 C4 1.416 . S
C6 H27 0.930 . S
C7 C8 1.413 . S
C7 C9 1.427 . S
C7 C13 1.416 . S
C8 C1 1.424 . S
C8 C7 1.413 . S
C8 N12 1.361 . S
C9 C7 1.427 . S
C9 C10 1.328 . S
C9 H24 0.929 . S
C10 C4 1.448 . S
C10 C9 1.328 . S
C10 H25 0.930 . S
Tb11 N2 2.617 . S
Tb11 N12 2.572 . S
Tb11 O46 2.349 1_455 S
Tb11 O49 2.393 . S
Tb11 O50 2.465 . S
Tb11 O51 2.387 . S
Tb11 O53 2.428 . S
Tb11 O54 2.308 1_554 S
Tb11 C75 2.802 . S
N12 C8 1.361 . S
N12 Tb11 2.572 . S
N12 C14 1.340 1_554 S
C13 C7 1.416 . S
C13 C15 1.332 1_554 S
C13 H21 0.931 1_554 S
C14 N12 1.340 1_556 S
C14 C15 1.407 . S
C14 H20 0.930 . S
C15 C13 1.332 1_556 S
C15 C14 1.407 . S
C15 H17 0.929 . S
H16 C5 0.930 . S
H17 C15 0.929 . S
H18 C33 0.930 . S
H19 C40 0.929 . S
H20 C14 0.930 . S
H21 C13 0.931 1_556 S
H22 C36 0.930 . S
H23 C3 0.930 . S
H24 C9 0.929 . S
H25 C10 0.930 . S
H26 C31 0.930 . S
H27 C6 0.930 . S
H28 C39 0.931 1_554 S
N29 Tb0 2.617 . S
N29 C30 1.379 . S
N29 C33 1.334 . S
C30 N29 1.379 . S
C30 C32 1.416 . S
C30 C38 1.424 . S
C31 H26 0.930 . S
C31 C33 1.390 . S
C31 C34 1.339 . S
C32 C30 1.416 . S
C32 C34 1.416 . S
C32 C65 1.448 . S
C33 H18 0.930 . S
C33 N29 1.334 . S
C33 C31 1.390 . S
C34 C31 1.339 . S
C34 C32 1.416 . S
C34 H41 0.930 . S
N35 Tb0 2.572 . S
N35 C36 1.340 1_556 S
N35 C38 1.361 . S
C36 H22 0.930 . S
C36 N35 1.340 1_554 S
C36 C40 1.407 . S
C37 C38 1.413 . S
C37 C39 1.416 . S
C37 C66 1.427 . S
C38 C30 1.424 . S
C38 N35 1.361 . S
C38 C37 1.413 . S
C39 H28 0.931 1_556 S
C39 C37 1.416 . S
C39 C40 1.332 1_556 S
C40 H19 0.929 . S
C40 C36 1.407 . S
C40 C39 1.332 1_554 S
H41 C34 0.930 . S
H42 C65 0.930 . S
H43 C66 0.929 . S
O44 Tb0 2.465 . S
O44 C64 1.264 . S
O45 Tb0 2.387 . S
O45 C56 1.257 1_565 S
O46 Tb11 2.349 1_655 S
O46 C56 1.247 1_554 S
O47 Tb0 2.428 . S
O47 C64 1.256 . S
O48 Tb0 2.308 1_554 S
O48 C63 1.266 1_565 S
O49 Tb11 2.393 . S
O49 C63 1.248 1_455 S
O50 Tb11 2.465 . S
O50 C75 1.264 . S
O51 Tb11 2.387 . S
O51 C67 1.261 1_545 S
O52 Tb0 2.349 1_455 S
O52 C67 1.245 1_556 S
O53 Tb11 2.428 . S
O53 C75 1.256 . S
O54 Tb11 2.308 1_556 S
O54 C74 1.266 1_545 S
O55 Tb0 2.393 . S
O55 C74 1.248 1_655 S
C56 O45 1.257 1_545 S
C56 O46 1.247 1_556 S
C57 C60 1.399 . S
C57 C62 1.383 . S
C57 C64 1.496 . S
C58 C59 1.399 . S
C58 C62 1.389 . S
C59 C58 1.399 . S
C59 C61 1.380 . S
C59 H76 0.929 . S
C60 C57 1.399 . S
C60 C61 1.392 . S
C60 H77 0.929 . S
C61 C59 1.380 . S
C61 C60 1.392 . S
C61 H78 0.929 . S
C62 C57 1.383 . S
C62 C58 1.389 . S
C62 H79 0.931 1_556 S
C63 O48 1.266 1_545 S
C63 O49 1.248 1_655 S
C64 Tb0 2.802 . S
C64 O44 1.264 . S
C64 O47 1.256 . S
C64 C57 1.496 . S
C65 C32 1.448 . S
C65 H42 0.930 . S
C65 C66 1.328 . S
C66 C37 1.427 . S
C66 H43 0.929 . S
C66 C65 1.328 . S
C67 O51 1.261 1_565 S
C67 O52 1.245 1_554 S
C68 C71 1.399 . S
C68 C72 1.383 . S
C68 C75 1.496 . S
C69 C70 1.399 . S
C69 C72 1.389 . S
C70 C69 1.399 . S
C70 C73 1.380 . S
C70 H80 0.929 . S
C71 C68 1.399 . S
C71 C73 1.392 . S
C71 H81 0.929 . S
C72 C68 1.383 . S
C72 C69 1.389 . S
C72 H82 0.931 1_554 S
C73 C70 1.380 . S
C73 C71 1.392 . S
C73 H83 0.929 . S
C74 O54 1.266 1_565 S
C74 O55 1.248 1_455 S
C75 Tb11 2.802 . S
C75 O50 1.264 . S
C75 O53 1.256 . S
C75 C68 1.496 . S
H76 C59 0.929 . S
H77 C60 0.929 . S
H78 C61 0.929 . S
H79 C62 0.931 1_554 S
H80 C70 0.929 . S
H81 C71 0.929 . S
H82 C72 0.931 1_556 S
H83 C73 0.929 . S
H84 C96 0.930 . S
H85 C98 0.930 . S
H86 C99 0.930 . S
H87 C103 0.959 . S
H88 C103 0.959 . S
H89 C103 0.961 . S
H90 C104 0.960 . S
H91 C104 0.961 . S
H92 C104 0.959 . S
H93 C107 0.929 . S
H94 C108 0.931 . S
H95 C110 0.930 . S
C96 H84 0.930 . S
C96 C97 1.399 1_445 S
C96 C101 1.399 . S
C97 C96 1.399 1_665 S
C97 C98 1.376 . S
C98 H85 0.930 . S
C98 C97 1.376 . S
C98 C99 1.388 . S
C99 H86 0.930 . S
C99 C98 1.388 . S
C99 C100 1.390 . S
C100 C99 1.390 . S
C100 C101 1.394 1_665 S
C100 C106 1.465 . S
C101 C96 1.399 . S
C101 C100 1.394 1_445 S
C101 C102 1.516 . S
C102 C101 1.516 . S
C102 C103 1.502 . S
C102 C104 1.561 1_455 S
C102 C105 1.526 . S
C103 H87 0.959 . S
C103 H88 0.959 . S
C103 H89 0.961 . S
C103 C102 1.502 . S
C104 H90 0.960 . S
C104 H91 0.961 . S
C104 H92 0.959 . S
C104 C102 1.561 1_655 S
C105 C102 1.526 . S
C105 C106 1.396 1_445 S
C105 C110 1.390 . S
C106 C100 1.465 . S
C106 C105 1.396 1_665 S
C106 C107 1.399 . S
C107 H93 0.929 . S
C107 C106 1.399 . S
C107 C108 1.385 . S
C108 H94 0.931 . S
C108 C107 1.385 . S
C108 C109 1.389 . S
C109 C108 1.389 . S
C109 C110 1.387 1_665 S
C110 H95 0.930 . S
C110 C105 1.390 . S
C110 C109 1.387 1_445 S
H111 C123 0.930 . S
H112 C125 0.930 . S
H113 C126 0.930 . S
H114 C130 0.959 . S
H115 C130 0.959 . S
H116 C130 0.961 . S
H117 C131 0.960 . S
H118 C131 0.961 . S
H119 C131 0.959 . S
H120 C134 0.929 . S
H121 C135 0.931 . S
H122 C137 0.930 . S
C123 H111 0.930 . S
C123 C124 1.399 1_566 S
C123 C128 1.399 . S
C124 C123 1.399 1_544 S
C124 C125 1.376 . S
C125 H112 0.930 . S
C125 C124 1.376 . S
C125 C126 1.388 . S
C126 H113 0.930 . S
C126 C125 1.388 . S
C126 C127 1.390 . S
C127 C126 1.390 . S
C127 C128 1.394 1_544 S
C127 C133 1.465 . S
C128 C123 1.399 . S
C128 C127 1.394 1_566 S
C128 C129 1.516 . S
C129 C128 1.516 . S
C129 C130 1.502 . S
C129 C131 1.561 . S
C129 C132 1.526 . S
C130 H114 0.959 . S
C130 H115 0.959 . S
C130 H116 0.961 . S
C130 C129 1.502 . S
C131 H117 0.960 . S
C131 H118 0.961 . S
C131 H119 0.959 . S
C131 C129 1.561 . S
C132 C129 1.526 . S
C132 C133 1.396 1_566 S
C132 C137 1.390 . S
C133 C127 1.465 . S
C133 C132 1.396 1_544 S
C133 C134 1.399 . S
C134 H120 0.929 . S
C134 C133 1.399 . S
C134 C135 1.385 . S
C135 H121 0.931 . S
C135 C134 1.385 . S
C135 C136 1.389 . S
C136 C135 1.389 . S
C136 C137 1.387 1_544 S
C137 H122 0.930 . S
C137 C132 1.390 . S
C137 C136 1.387 1_566 S
H138 C150 0.930 . S
H139 C152 0.930 . S
H140 C153 0.930 . S
H141 C157 0.959 . S
H142 C157 0.959 . S
H143 C157 0.961 . S
H144 C158 0.960 . S
H145 C158 0.961 . S
H146 C158 0.959 . S
H147 C161 0.929 . S
H148 C162 0.931 . S
H149 C164 0.930 . S
C150 H138 0.930 . S
C150 C151 1.399 1_454 S
C150 C155 1.399 . S
C151 C150 1.399 1_656 S
C151 C152 1.376 . S
C152 H139 0.930 . S
C152 C151 1.376 . S
C152 C153 1.388 . S
C153 H140 0.930 . S
C153 C152 1.388 . S
C153 C154 1.390 . S
C154 C153 1.390 . S
C154 C155 1.394 1_656 S
C154 C160 1.465 . S
C155 C150 1.399 . S
C155 C154 1.394 1_454 S
C155 C156 1.516 . S
C156 C155 1.516 . S
C156 C157 1.502 . S
C156 C158 1.561 1_455 S
C156 C159 1.526 . S
C157 H141 0.959 . S
C157 H142 0.959 . S
C157 H143 0.961 . S
C157 C156 1.502 . S
C158 H144 0.960 . S
C158 H145 0.961 . S
C158 H146 0.959 . S
C158 C156 1.561 1_655 S
C159 C156 1.526 . S
C159 C160 1.396 1_454 S
C159 C164 1.390 . S
C160 C154 1.465 . S
C160 C159 1.396 1_656 S
C160 C161 1.399 . S
C161 H147 0.929 . S
C161 C160 1.399 . S
C161 C162 1.385 . S
C162 H148 0.931 . S
C162 C161 1.385 . S
C162 C163 1.389 . S
C163 C162 1.389 . S
C163 C164 1.387 1_656 S
C164 H149 0.930 . S
C164 C159 1.390 . S
C164 C163 1.387 1_454 S
C97 C63 1.482 1_565 S
C109 C74 1.458 1_655 S
C124 C67 1.492 1_545 S
C136 C56 1.493 1_554 S
C151 C58 1.307 . S
C163 C69 1.407 1_656 S
