# Generated by pormake.
# Topology wjf, (4)-cn, num edge types: 1
# Building blocks:
#     Node 0, Type 0, BuildingBlock: QUQFOY_clean_sbu_1, # of connection points: 4
#     Node 1, Type 0, BuildingBlock: QUQFOY_clean_sbu_1, # of connection points: 4
#     Node 2, Type 0, BuildingBlock: QUQFOY_clean_sbu_1, # of connection points: 4
#     Node 3, Type 0, BuildingBlock: QUQFOY_clean_sbu_1, # of connection points: 4
#     Node 4, Type 0, BuildingBlock: QUQFOY_clean_sbu_1, # of connection points: 4
#     Node 5, Type 0, BuildingBlock: QUQFOY_clean_sbu_1, # of connection points: 4
#     Node 6, Type 0, BuildingBlock: QUQFOY_clean_sbu_1, # of connection points: 4
#     Node 7, Type 0, BuildingBlock: QUQFOY_clean_sbu_1, # of connection points: 4
#     Node 8, Type 0, BuildingBlock: QUQFOY_clean_sbu_1, # of connection points: 4
#     Node 9, Type 0, BuildingBlock: QUQFOY_clean_sbu_1, # of connection points: 4
#     Node 10, Type 0, BuildingBlock: QUQFOY_clean_sbu_1, # of connection points: 4
#     Node 11, Type 0, BuildingBlock: QUQFOY_clean_sbu_1, # of connection points: 4
#     Edge 12, Type (0, 0), None
#     Edge 13, Type (0, 0), None
#     Edge 14, Type (0, 0), None
#     Edge 15, Type (0, 0), None
#     Edge 16, Type (0, 0), None
#     Edge 17, Type (0, 0), None
#     Edge 18, Type (0, 0), None
#     Edge 19, Type (0, 0), None
#     Edge 20, Type (0, 0), None
#     Edge 21, Type (0, 0), None
#     Edge 22, Type (0, 0), None
#     Edge 23, Type (0, 0), None
#     Edge 24, Type (0, 0), None
#     Edge 25, Type (0, 0), None
#     Edge 26, Type (0, 0), None
#     Edge 27, Type (0, 0), None
#     Edge 28, Type (0, 0), None
#     Edge 29, Type (0, 0), None
#     Edge 30, Type (0, 0), None
#     Edge 31, Type (0, 0), None
#     Edge 32, Type (0, 0), None
#     Edge 33, Type (0, 0), None
#     Edge 34, Type (0, 0), None
#     Edge 35, Type (0, 0), None
# Relax obj value: 0.016
# Max RMSD: 0.066
# Mean RMSD: 0.066
data_MOF--net-wjf--node1-QUQFOY_clean_sbu_1--edge1-none
_symmetry_space_group_name_H-M    P1
_symmetry_Int_Tables_number       1
_symmetry_cell_setting            triclinic
loop_
_symmetry_equiv_pos_as_xyz
'x, y, z'
_cell_length_a     25.318458
_cell_length_b     25.318493
_cell_length_c     12.635835
_cell_angle_alpha  90.006826
_cell_angle_beta   89.986637
_cell_angle_gamma 119.99998
loop_
_atom_site_label
_atom_site_type_symbol
_atom_site_fract_x
_atom_site_fract_y
_atom_site_fract_z
_atom_type_partial_charge
O0 O 0.34334 0.39612 0.94293 0.0
Cd1 Cd 0.35917 0.45571 0.0635 0.0
Cd2 Cd 0.37962 0.3691 0.15257 0.0
O3 O 0.3396 0.31659 1.02048 0.0
O4 O 0.32659 0.50462 0.99331 0.0
O5 O 0.28675 0.44948 0.13828 0.0
C6 C 0.28358 0.48209 0.0626 0.0
C7 C 0.35305 0.34576 0.3288 0.0
C8 C 0.33419 0.34223 0.93799 0.0
C9 C 0.48801 0.49258 0.11941 0.0
O10 O 0.46894 0.43606 0.13049 0.0
O11 O 0.45065 0.51193 0.10481 0.0
O12 O 0.3803 0.3218 0.27836 0.0
O13 O 0.33596 0.37855 0.27639 0.0
O14 O 0.96125 0.33633 0.27621 0.0
Cd15 Cd 0.9175 0.35216 0.3968 0.0
Cd16 Cd 0.02456 0.37261 0.48584 0.0
O17 O 0.03704 0.33259 0.35373 0.0
O18 O 0.836 0.31957 0.32664 0.0
O19 O 0.85132 0.27974 0.47159 0.0
C20 C 0.81554 0.27657 0.39593 0.0
C21 C 0.02133 0.34604 0.66206 0.0
C22 C 1.00599 0.32718 0.27125 0.0
C23 C 1.00947 0.481 0.45273 0.0
O24 O 0.04692 0.46193 0.46379 0.0
O25 O 0.95276 0.44364 0.43814 0.0
O26 O 0.07254 0.37329 0.61162 0.0
O27 O 0.97144 0.32895 0.60965 0.0
O28 O 0.63899 0.95425 0.6095 0.0
Cd29 Cd 0.57941 0.91051 0.7301 0.0
Cd30 Cd 0.66602 0.01757 0.81914 0.0
O31 O 0.71852 0.03004 0.68702 0.0
O32 O 0.5305 0.829 0.65997 0.0
O33 O 0.58567 0.84435 0.80489 0.0
C34 C 0.55305 0.80854 0.72925 0.0
C35 C 0.68934 0.01433 0.99536 0.0
C36 C 0.69287 0.99898 0.60453 0.0
C37 C 0.54254 1.00248 0.78605 0.0
O38 O 0.59906 0.03993 0.79711 0.0
O39 O 0.52319 0.94576 0.77146 0.0
O40 O 0.71331 0.06554 0.94494 0.0
O41 O 0.65655 0.96445 0.94292 0.0
O42 O 0.69877 0.63197 0.94285 0.0
Cd43 Cd 0.68294 0.5724 0.06344 0.0
Cd44 Cd 0.66248 0.65901 0.15251 0.0
O45 O 0.70251 0.7115 1.02041 0.0
O46 O 0.71554 0.52349 0.9933 0.0
O47 O 0.75535 0.57867 0.13824 0.0
C48 C 0.75854 0.54605 0.06259 0.0
C49 C 0.68906 0.68233 0.32873 0.0
C50 C 0.70792 0.68586 0.93791 0.0
C51 C 0.55409 0.53553 0.1194 0.0
O52 O 0.57316 0.59205 0.13047 0.0
O53 O 0.59146 0.51618 0.10478 0.0
O54 O 0.66181 0.7063 0.27834 0.0
O55 O 0.70614 0.64954 0.27627 0.0
O56 O 0.08084 0.69177 0.27624 0.0
Cd57 Cd 0.12458 0.67593 0.3968 0.0
Cd58 Cd 1.01752 0.65547 0.48591 0.0
O59 O 1.00504 0.6955 0.35382 0.0
O60 O 0.20609 0.70852 0.32663 0.0
O61 O 0.19074 0.74834 0.4716 0.0
C62 C 0.22654 0.75152 0.39593 0.0
C63 C 1.02077 0.68205 0.66214 0.0
C64 C 0.0361 0.70091 0.27132 0.0
C65 C 0.03261 0.54709 0.45274 0.0
O66 O 0.99515 0.56616 0.46384 0.0
O67 O 0.08932 0.58445 0.43812 0.0
O68 O 0.96955 0.6548 0.61174 0.0
O69 O 0.07065 0.69914 0.60968 0.0
O70 O 0.40312 0.07383 0.60962 0.0
Cd71 Cd 0.46271 0.11758 0.73017 0.0
Cd72 Cd 0.37611 1.01052 0.81928 0.0
O73 O 0.3236 0.99803 0.6872 0.0
O74 O 0.51162 0.19908 0.65997 0.0
O75 O 0.45648 0.18376 0.80496 0.0
C76 C 0.48909 0.21955 0.72927 0.0
C77 C 0.35277 1.01376 0.99551 0.0
C78 C 0.34924 0.02909 0.6047 0.0
C79 C 0.49959 0.02562 0.78608 0.0
O80 O 0.44307 0.98816 0.79718 0.0
O81 O 0.51894 0.08233 0.77146 0.0
O82 O 0.32881 0.96255 0.94509 0.0
O83 O 0.38557 0.06364 0.94308 0.0
O84 O 0.63906 0.69187 0.83081 0.0
Cd85 Cd 0.57946 0.67596 0.71026 0.0
Cd86 Cd 0.66607 0.65541 0.62119 0.0
O87 O 0.71855 0.69542 0.75329 0.0
O88 O 0.53053 0.70854 0.78045 0.0
O89 O 0.58567 0.74835 0.63544 0.0
C90 C 0.55306 0.75153 0.71113 0.0
C91 C 0.6894 0.68198 0.44498 0.0
C92 C 0.69293 0.70096 0.83571 0.0
C93 C 0.54255 0.54708 0.6544 0.0
O94 O 0.59907 0.56611 0.64328 0.0
O95 O 0.52323 0.58447 0.66902 0.0
O96 O 0.71335 0.65471 0.49536 0.0
O97 O 0.65662 0.69909 0.49743 0.0
O98 O 0.96123 0.63206 0.1642 0.0
Cd99 Cd 0.91753 0.57246 1.04363 0.0
Cd100 Cd 0.0247 0.65906 0.95459 0.0
O101 O 0.03717 0.71155 0.0867 0.0
O102 O 0.83603 0.52353 0.11379 0.0
O103 O 0.85136 0.57867 0.9688 0.0
C104 C 0.81557 0.54606 1.04448 0.0
C105 C 0.02146 0.68239 0.77838 0.0
C106 C 1.006 0.68592 0.16912 0.0
C107 C 1.00951 0.53555 0.98774 0.0
O108 O 0.04699 0.59206 0.97664 0.0
O109 O 0.9528 0.51623 1.00236 0.0
O110 O 0.07268 0.70635 0.82877 0.0
O111 O 0.97158 0.64962 0.83083 0.0
O112 O 0.34323 0.95422 0.49756 0.0
Cd113 Cd 0.35913 0.91051 0.37697 0.0
Cd114 Cd 0.37968 0.01768 0.28796 0.0
O115 O 0.33966 0.03015 0.42009 0.0
O116 O 0.32655 0.82901 0.44712 0.0
O117 O 0.28673 0.84434 0.30214 0.0
C118 C 0.28356 0.80855 0.37782 0.0
C119 C 0.35312 0.01445 0.11176 0.0
C120 C 0.33413 0.99899 0.50249 0.0
C121 C 0.48801 1.00249 0.32109 0.0
O122 O 0.46898 0.03997 0.31001 0.0
O123 O 0.45062 0.94578 0.33569 0.0
O124 O 0.38039 0.06566 0.16217 0.0
O125 O 0.33601 0.96456 0.16418 0.0
O126 O 0.40305 0.33622 0.83084 0.0
Cd127 Cd 0.46266 0.35212 0.71026 0.0
Cd128 Cd 0.37605 0.37267 0.62126 0.0
O129 O 0.32356 0.33266 0.75338 0.0
O130 O 0.51159 0.31956 0.78045 0.0
O131 O 0.45648 0.27972 0.63545 0.0
C132 C 0.48908 0.27656 0.71114 0.0
C133 C 0.35271 0.34611 0.44505 0.0
C134 C 0.34919 0.32712 0.83577 0.0
C135 C 0.49957 0.481 0.65441 0.0
O136 O 0.44306 0.46196 0.64332 0.0
O137 O 0.51889 0.44361 0.66901 0.0
O138 O 0.32877 0.37338 0.49548 0.0
O139 O 0.38548 0.32899 0.49745 0.0
O140 O 0.08087 0.39604 0.16411 0.0
Cd141 Cd 0.12459 0.45566 1.04356 0.0
Cd142 Cd 1.01742 0.36905 0.95452 0.0
O143 O 1.00494 0.31655 0.08662 0.0
O144 O 0.20607 0.50459 0.11378 0.0
O145 O 0.1908 0.44948 0.96875 0.0
C146 C 0.22656 0.48208 1.04446 0.0
C147 C 1.02064 0.34571 0.77831 0.0
C148 C 0.03609 0.34218 0.16903 0.0
C149 C 0.03262 0.49257 0.98773 0.0
O150 O 0.99513 0.43605 0.97662 0.0
O151 O 0.08932 0.51189 1.00234 0.0
O152 O 0.96943 0.32176 0.82874 0.0
O153 O 0.07053 0.37848 0.83071 0.0
O154 O 0.69888 0.07385 0.49742 0.0
Cd155 Cd 0.68298 0.11757 0.3769 0.0
Cd156 Cd 0.66242 1.01041 0.28782 0.0
O157 O 0.70243 0.99792 0.41991 0.0
O158 O 0.71553 0.19906 0.44712 0.0
O159 O 0.75536 0.18378 0.30208 0.0
C160 C 0.75853 0.21954 0.3778 0.0
C161 C 0.68899 1.01363 0.1116 0.0
C162 C 0.70797 0.02908 0.50232 0.0
C163 C 0.55409 0.02559 0.32106 0.0
O164 O 0.57313 0.98811 0.30993 0.0
O165 O 0.59148 0.0823 0.33568 0.0
O166 O 0.66172 0.96242 0.16201 0.0
O167 O 0.70611 0.06352 0.16403 0.0
loop_
_geom_bond_atom_site_label_1
_geom_bond_atom_site_label_2
_geom_bond_distance
_geom_bond_site_symmetry_2
_ccdc_geom_bond_type
O0 Cd1 2.223 . S
O0 C8 1.315 . S
Cd1 O0 2.223 . S
Cd1 O4 2.297 . S
Cd1 O5 2.439 1_556 S
Cd1 O11 2.240 1_556 S
Cd2 O3 2.240 1_554 S
Cd2 O10 2.223 . S
Cd2 O12 2.297 . S
Cd2 O13 2.439 . S
O3 Cd2 2.240 1_556 S
O3 C8 1.279 . S
O4 Cd1 2.297 . S
O4 C6 1.247 . S
O5 Cd1 2.439 1_554 S
O5 C6 1.208 1_554 S
C6 O4 1.247 . S
C6 O5 1.208 1_556 S
C7 O12 1.247 . S
C7 O13 1.208 . S
C8 O0 1.315 . S
C8 O3 1.279 . S
C9 O10 1.315 . S
C9 O11 1.279 . S
O10 Cd2 2.223 . S
O10 C9 1.315 . S
O11 Cd1 2.240 1_554 S
O11 C9 1.279 . S
O12 Cd2 2.297 . S
O12 C7 1.247 . S
O13 Cd2 2.439 . S
O13 C7 1.208 . S
O14 Cd15 2.223 . S
O14 C22 1.315 . S
Cd15 O14 2.223 . S
Cd15 O18 2.297 . S
Cd15 O19 2.439 . S
Cd15 O25 2.240 . S
Cd16 O17 2.240 1_455 S
Cd16 O24 2.223 . S
Cd16 O26 2.297 . S
Cd16 O27 2.439 1_455 S
O17 Cd16 2.240 1_655 S
O17 C22 1.279 . S
O18 Cd15 2.297 . S
O18 C20 1.247 . S
O19 Cd15 2.439 . S
O19 C20 1.208 . S
C20 O18 1.247 . S
C20 O19 1.208 . S
C21 O26 1.247 . S
C21 O27 1.208 1_455 S
C22 O14 1.315 . S
C22 O17 1.279 . S
C23 O24 1.315 . S
C23 O25 1.279 1_455 S
O24 Cd16 2.223 . S
O24 C23 1.315 . S
O25 Cd15 2.240 . S
O25 C23 1.279 1_655 S
O26 Cd16 2.297 . S
O26 C21 1.247 . S
O27 Cd16 2.439 1_655 S
O27 C21 1.208 1_655 S
O28 Cd29 2.223 . S
O28 C36 1.315 . S
Cd29 O28 2.223 . S
Cd29 O32 2.297 . S
Cd29 O33 2.439 . S
Cd29 O39 2.240 . S
Cd30 O31 2.240 1_545 S
Cd30 O38 2.223 . S
Cd30 O40 2.297 . S
Cd30 O41 2.439 1_545 S
O31 Cd30 2.240 1_565 S
O31 C36 1.279 . S
O32 Cd29 2.297 . S
O32 C34 1.247 . S
O33 Cd29 2.439 . S
O33 C34 1.208 . S
C34 O32 1.247 . S
C34 O33 1.208 . S
C35 O40 1.247 . S
C35 O41 1.208 1_545 S
C36 O28 1.315 . S
C36 O31 1.279 . S
C37 O38 1.315 . S
C37 O39 1.279 1_545 S
O38 Cd30 2.223 . S
O38 C37 1.315 . S
O39 Cd29 2.240 . S
O39 C37 1.279 1_565 S
O40 Cd30 2.297 . S
O40 C35 1.247 . S
O41 Cd30 2.439 1_565 S
O41 C35 1.208 1_565 S
O42 Cd43 2.223 . S
O42 C50 1.315 . S
Cd43 O42 2.223 . S
Cd43 O46 2.297 . S
Cd43 O47 2.439 1_556 S
Cd43 O53 2.240 1_556 S
Cd44 O45 2.240 1_554 S
Cd44 O52 2.223 . S
Cd44 O54 2.297 . S
Cd44 O55 2.439 . S
O45 Cd44 2.240 1_556 S
O45 C50 1.279 . S
O46 Cd43 2.297 . S
O46 C48 1.247 . S
O47 Cd43 2.439 1_554 S
O47 C48 1.208 1_554 S
C48 O46 1.247 . S
C48 O47 1.208 1_556 S
C49 O54 1.247 . S
C49 O55 1.208 . S
C50 O42 1.315 . S
C50 O45 1.279 . S
C51 O52 1.315 . S
C51 O53 1.279 . S
O52 Cd44 2.223 . S
O52 C51 1.315 . S
O53 Cd43 2.240 1_554 S
O53 C51 1.279 . S
O54 Cd44 2.297 . S
O54 C49 1.247 . S
O55 Cd44 2.439 . S
O55 C49 1.208 . S
O56 Cd57 2.223 . S
O56 C64 1.315 . S
Cd57 O56 2.223 . S
Cd57 O60 2.297 . S
Cd57 O61 2.439 . S
Cd57 O67 2.240 . S
Cd58 O59 2.240 1_655 S
Cd58 O66 2.223 . S
Cd58 O68 2.297 . S
Cd58 O69 2.439 1_655 S
O59 Cd58 2.240 1_455 S
O59 C64 1.279 . S
O60 Cd57 2.297 . S
O60 C62 1.247 . S
O61 Cd57 2.439 . S
O61 C62 1.208 . S
C62 O60 1.247 . S
C62 O61 1.208 . S
C63 O68 1.247 . S
C63 O69 1.208 1_655 S
C64 O56 1.315 . S
C64 O59 1.279 . S
C65 O66 1.315 . S
C65 O67 1.279 1_655 S
O66 Cd58 2.223 . S
O66 C65 1.315 . S
O67 Cd57 2.240 . S
O67 C65 1.279 1_455 S
O68 Cd58 2.297 . S
O68 C63 1.247 . S
O69 Cd58 2.439 1_455 S
O69 C63 1.208 1_455 S
O70 Cd71 2.223 . S
O70 C78 1.315 . S
Cd71 O70 2.223 . S
Cd71 O74 2.297 . S
Cd71 O75 2.439 . S
Cd71 O81 2.240 . S
Cd72 O73 2.240 1_565 S
Cd72 O80 2.223 . S
Cd72 O82 2.297 . S
Cd72 O83 2.439 1_565 S
O73 Cd72 2.240 1_545 S
O73 C78 1.279 . S
O74 Cd71 2.297 . S
O74 C76 1.247 . S
O75 Cd71 2.439 . S
O75 C76 1.208 . S
C76 O74 1.247 . S
C76 O75 1.208 . S
C77 O82 1.247 . S
C77 O83 1.208 1_565 S
C78 O70 1.315 . S
C78 O73 1.279 . S
C79 O80 1.315 . S
C79 O81 1.279 1_565 S
O80 Cd72 2.223 . S
O80 C79 1.315 . S
O81 Cd71 2.240 . S
O81 C79 1.279 1_545 S
O82 Cd72 2.297 . S
O82 C77 1.247 . S
O83 Cd72 2.439 1_545 S
O83 C77 1.208 1_545 S
O84 Cd85 2.223 . S
O84 C92 1.315 . S
Cd85 O84 2.223 . S
Cd85 O88 2.297 . S
Cd85 O89 2.439 . S
Cd85 O95 2.240 . S
Cd86 O87 2.240 . S
Cd86 O94 2.223 . S
Cd86 O96 2.297 . S
Cd86 O97 2.439 . S
O87 Cd86 2.240 . S
O87 C92 1.279 . S
O88 Cd85 2.297 . S
O88 C90 1.247 . S
O89 Cd85 2.439 . S
O89 C90 1.208 . S
C90 O88 1.247 . S
C90 O89 1.208 . S
C91 O96 1.247 . S
C91 O97 1.208 . S
C92 O84 1.315 . S
C92 O87 1.279 . S
C93 O94 1.315 . S
C93 O95 1.279 . S
O94 Cd86 2.223 . S
O94 C93 1.315 . S
O95 Cd85 2.240 . S
O95 C93 1.279 . S
O96 Cd86 2.297 . S
O96 C91 1.247 . S
O97 Cd86 2.439 . S
O97 C91 1.208 . S
O98 Cd99 2.223 . S
O98 C106 1.315 . S
Cd99 O98 2.223 . S
Cd99 O102 2.297 . S
Cd99 O103 2.439 1_554 S
Cd99 O109 2.240 1_554 S
Cd100 O101 2.240 1_456 S
Cd100 O108 2.223 . S
Cd100 O110 2.297 . S
Cd100 O111 2.439 1_455 S
O101 Cd100 2.240 1_654 S
O101 C106 1.279 . S
O102 Cd99 2.297 . S
O102 C104 1.247 . S
O103 Cd99 2.439 1_556 S
O103 C104 1.208 1_556 S
C104 O102 1.247 . S
C104 O103 1.208 1_554 S
C105 O110 1.247 . S
C105 O111 1.208 1_455 S
C106 O98 1.315 . S
C106 O101 1.279 . S
C107 O108 1.315 . S
C107 O109 1.279 1_455 S
O108 Cd100 2.223 . S
O108 C107 1.315 . S
O109 Cd99 2.240 1_556 S
O109 C107 1.279 1_655 S
O110 Cd100 2.297 . S
O110 C105 1.247 . S
O111 Cd100 2.439 1_655 S
O111 C105 1.208 1_655 S
O112 Cd113 2.223 . S
O112 C120 1.315 . S
Cd113 O112 2.223 . S
Cd113 O116 2.297 . S
Cd113 O117 2.439 . S
Cd113 O123 2.240 . S
Cd114 O115 2.240 1_545 S
Cd114 O122 2.223 . S
Cd114 O124 2.297 . S
Cd114 O125 2.439 1_545 S
O115 Cd114 2.240 1_565 S
O115 C120 1.279 . S
O116 Cd113 2.297 . S
O116 C118 1.247 . S
O117 Cd113 2.439 . S
O117 C118 1.208 . S
C118 O116 1.247 . S
C118 O117 1.208 . S
C119 O124 1.247 . S
C119 O125 1.208 1_545 S
C120 O112 1.315 . S
C120 O115 1.279 . S
C121 O122 1.315 . S
C121 O123 1.279 1_545 S
O122 Cd114 2.223 . S
O122 C121 1.315 . S
O123 Cd113 2.240 . S
O123 C121 1.279 1_565 S
O124 Cd114 2.297 . S
O124 C119 1.247 . S
O125 Cd114 2.439 1_565 S
O125 C119 1.208 1_565 S
O126 Cd127 2.223 . S
O126 C134 1.315 . S
Cd127 O126 2.223 . S
Cd127 O130 2.297 . S
Cd127 O131 2.439 . S
Cd127 O137 2.240 . S
Cd128 O129 2.240 . S
Cd128 O136 2.223 . S
Cd128 O138 2.297 . S
Cd128 O139 2.439 . S
O129 Cd128 2.240 . S
O129 C134 1.279 . S
O130 Cd127 2.297 . S
O130 C132 1.247 . S
O131 Cd127 2.439 . S
O131 C132 1.208 . S
C132 O130 1.247 . S
C132 O131 1.208 . S
C133 O138 1.247 . S
C133 O139 1.208 . S
C134 O126 1.315 . S
C134 O129 1.279 . S
C135 O136 1.315 . S
C135 O137 1.279 . S
O136 Cd128 2.223 . S
O136 C135 1.315 . S
O137 Cd127 2.240 . S
O137 C135 1.279 . S
O138 Cd128 2.297 . S
O138 C133 1.247 . S
O139 Cd128 2.439 . S
O139 C133 1.208 . S
O140 Cd141 2.223 . S
O140 C148 1.315 . S
Cd141 O140 2.223 . S
Cd141 O144 2.297 . S
Cd141 O145 2.439 1_554 S
Cd141 O151 2.240 1_554 S
Cd142 O143 2.240 1_656 S
Cd142 O150 2.223 . S
Cd142 O152 2.297 . S
Cd142 O153 2.439 1_655 S
O143 Cd142 2.240 1_454 S
O143 C148 1.279 . S
O144 Cd141 2.297 . S
O144 C146 1.247 . S
O145 Cd141 2.439 1_556 S
O145 C146 1.208 1_556 S
C146 O144 1.247 . S
C146 O145 1.208 1_554 S
C147 O152 1.247 . S
C147 O153 1.208 1_655 S
C148 O140 1.315 . S
C148 O143 1.279 . S
C149 O150 1.315 . S
C149 O151 1.279 1_655 S
O150 Cd142 2.223 . S
O150 C149 1.315 . S
O151 Cd141 2.240 1_556 S
O151 C149 1.279 1_455 S
O152 Cd142 2.297 . S
O152 C147 1.247 . S
O153 Cd142 2.439 1_455 S
O153 C147 1.208 1_455 S
O154 Cd155 2.223 . S
O154 C162 1.315 . S
Cd155 O154 2.223 . S
Cd155 O158 2.297 . S
Cd155 O159 2.439 . S
Cd155 O165 2.240 . S
Cd156 O157 2.240 1_565 S
Cd156 O164 2.223 . S
Cd156 O166 2.297 . S
Cd156 O167 2.439 1_565 S
O157 Cd156 2.240 1_545 S
O157 C162 1.279 . S
O158 Cd155 2.297 . S
O158 C160 1.247 . S
O159 Cd155 2.439 . S
O159 C160 1.208 . S
C160 O158 1.247 . S
C160 O159 1.208 . S
C161 O166 1.247 . S
C161 O167 1.208 1_565 S
C162 O154 1.315 . S
C162 O157 1.279 . S
C163 O164 1.315 . S
C163 O165 1.279 1_565 S
O164 Cd156 2.223 . S
O164 C163 1.315 . S
O165 Cd155 2.240 . S
O165 C163 1.279 1_545 S
O166 Cd156 2.297 . S
O166 C161 1.247 . S
O167 Cd156 2.439 1_545 S
O167 C161 1.208 1_545 S
C7 C133 1.766 . S
C21 C147 1.766 1_455 S
C35 C161 1.766 1_546 S
C49 C91 1.766 . S
C105 C63 1.766 1_455 S
C119 C77 1.766 1_544 S
C146 C6 1.525 1_554 S
C20 C160 1.525 . S
C34 C90 1.524 . S
C48 C104 1.524 1_556 S
C62 C118 1.525 . S
C76 C132 1.524 . S
C134 C8 1.290 . S
C22 C148 1.290 1_655 S
C36 C162 1.290 1_565 S
C92 C50 1.290 . S
C64 C106 1.290 1_455 S
C120 C78 1.290 1_565 S
C9 C51 1.486 . S
C65 C23 1.486 1_655 S
C37 C79 1.486 1_545 S
C93 C135 1.486 . S
C107 C149 1.486 1_455 S
C163 C121 1.486 1_565 S
