# Generated by pormake.
# Topology mon, (4)-cn, num edge types: 1
# Building blocks:
#     Node 0, Type 0, BuildingBlock: CEKHIL_clean_sbu_0, # of connection points: 4
#     Node 1, Type 0, BuildingBlock: CEKHIL_clean_sbu_0, # of connection points: 4
#     Node 2, Type 0, BuildingBlock: CEKHIL_clean_sbu_0, # of connection points: 4
#     Node 3, Type 0, BuildingBlock: CEKHIL_clean_sbu_0, # of connection points: 4
#     Node 4, Type 0, BuildingBlock: CEKHIL_clean_sbu_0, # of connection points: 4
#     Node 5, Type 0, BuildingBlock: CEKHIL_clean_sbu_0, # of connection points: 4
#     Node 6, Type 0, BuildingBlock: CEKHIL_clean_sbu_0, # of connection points: 4
#     Node 7, Type 0, BuildingBlock: CEKHIL_clean_sbu_0, # of connection points: 4
#     Node 8, Type 0, BuildingBlock: CEKHIL_clean_sbu_0, # of connection points: 4
#     Node 9, Type 0, BuildingBlock: CEKHIL_clean_sbu_0, # of connection points: 4
#     Node 10, Type 0, BuildingBlock: CEKHIL_clean_sbu_0, # of connection points: 4
#     Node 11, Type 0, BuildingBlock: CEKHIL_clean_sbu_0, # of connection points: 4
#     Node 12, Type 0, BuildingBlock: CEKHIL_clean_sbu_0, # of connection points: 4
#     Node 13, Type 0, BuildingBlock: CEKHIL_clean_sbu_0, # of connection points: 4
#     Node 14, Type 0, BuildingBlock: CEKHIL_clean_sbu_0, # of connection points: 4
#     Node 15, Type 0, BuildingBlock: CEKHIL_clean_sbu_0, # of connection points: 4
#     Edge 16, Type (0, 0), None
#     Edge 17, Type (0, 0), None
#     Edge 18, Type (0, 0), None
#     Edge 19, Type (0, 0), None
#     Edge 20, Type (0, 0), None
#     Edge 21, Type (0, 0), None
#     Edge 22, Type (0, 0), None
#     Edge 23, Type (0, 0), None
#     Edge 24, Type (0, 0), None
#     Edge 25, Type (0, 0), None
#     Edge 26, Type (0, 0), None
#     Edge 27, Type (0, 0), None
#     Edge 28, Type (0, 0), None
#     Edge 29, Type (0, 0), None
#     Edge 30, Type (0, 0), None
#     Edge 31, Type (0, 0), None
#     Edge 32, Type (0, 0), None
#     Edge 33, Type (0, 0), None
#     Edge 34, Type (0, 0), None
#     Edge 35, Type (0, 0), None
#     Edge 36, Type (0, 0), None
#     Edge 37, Type (0, 0), None
#     Edge 38, Type (0, 0), None
#     Edge 39, Type (0, 0), None
#     Edge 40, Type (0, 0), None
#     Edge 41, Type (0, 0), None
#     Edge 42, Type (0, 0), None
#     Edge 43, Type (0, 0), None
#     Edge 44, Type (0, 0), None
#     Edge 45, Type (0, 0), None
#     Edge 46, Type (0, 0), None
#     Edge 47, Type (0, 0), None
# Relax obj value: 0.189
# Max RMSD: 0.181
# Mean RMSD: 0.181
data_MOF--net-mon--node1-CEKHIL_clean_sbu_0--edge1-none
_symmetry_space_group_name_H-M    P1
_symmetry_Int_Tables_number       1
_symmetry_cell_setting            triclinic
loop_
_symmetry_equiv_pos_as_xyz
'x, y, z'
_cell_length_a     14.577058
_cell_length_b     14.575797
_cell_length_c     37.80109
_cell_angle_alpha  90.004279
_cell_angle_beta   90.0
_cell_angle_gamma 89.997433
loop_
_atom_site_label
_atom_site_type_symbol
_atom_site_fract_x
_atom_site_fract_y
_atom_site_fract_z
_atom_type_partial_charge
Co0 Co 0.085 0.06955 0.57792 0.0
O1 O 0.13844 0.18703 0.56353 0.0
O2 O 1.00447 0.16985 0.58995 0.0
C3 C 0.21266 0.99837 0.60174 0.0
O4 O 1.00326 0.97745 0.60202 0.0
Co5 Co 0.12953 0.87542 0.55087 0.0
O6 O 0.02723 0.83699 0.58146 0.0
C7 C 0.04008 1.00338 0.50312 0.0
C8 C 0.06327 0.22442 0.57574 0.0
C9 C 0.98604 0.89214 0.60155 0.0
O10 O 0.0244 0.05801 0.52945 0.0
O11 O 0.08518 0.92892 0.50602 0.0
O12 O 0.16709 0.06021 0.61956 0.0
O13 O 0.18501 0.9873 0.56972 0.0
Co14 Co 0.25389 0.80553 0.82787 0.0
O15 O 0.13638 0.85903 0.81354 0.0
O16 O 0.15362 0.72497 0.83989 0.0
C17 C 0.32512 0.93313 0.85173 0.0
O18 O 0.34601 0.7237 0.8519 0.0
Co19 Co 0.44796 0.85009 0.8008 0.0
O20 O 0.48644 0.74771 0.83135 0.0
C21 C 0.31998 0.76069 0.75304 0.0
C22 C 0.09901 0.78383 0.82573 0.0
C23 C 0.4313 0.70645 0.85142 0.0
O24 O 0.26533 0.74505 0.77937 0.0
O25 O 0.39446 0.80573 0.75595 0.0
O26 O 0.26331 0.88752 0.86954 0.0
O27 O 0.33614 0.90557 0.8197 0.0
Co28 Co 0.51766 0.9744 0.07792 0.0
O29 O 0.46422 0.85691 0.06353 0.0
O30 O 0.59818 0.8741 0.08995 0.0
C31 C 0.39 0.0456 0.10173 0.0
O32 O 0.59938 0.0665 0.10203 0.0
Co33 Co 0.4732 0.16852 0.05087 0.0
O34 O 0.57564 0.20692 0.0814 0.0
C35 C 0.56261 0.04055 0.00312 0.0
C36 C 0.53938 0.81952 0.07574 0.0
C37 C 0.61674 0.15178 0.10153 0.0
O38 O 0.57829 0.98592 0.02945 0.0
O39 O 0.51753 0.11501 0.00602 0.0
O40 O 0.43555 0.98375 0.11955 0.0
O41 O 0.41766 0.05667 0.06971 0.0
Co42 Co 0.34881 0.23832 0.32788 0.0
O43 O 0.46632 0.18482 0.31354 0.0
O44 O 0.44909 0.31886 0.33991 0.0
C45 C 0.27755 0.11072 0.35173 0.0
O46 O 0.25669 0.32012 0.35193 0.0
Co47 Co 0.15474 0.19383 0.3008 0.0
O48 O 0.1163 0.29634 0.3313 0.0
C49 C 0.28272 0.28322 0.25306 0.0
C50 C 0.50369 0.26001 0.32574 0.0
C51 C 0.17143 0.3375 0.35141 0.0
O52 O 0.33737 0.29883 0.27939 0.0
O53 O 0.20824 0.23818 0.25595 0.0
O54 O 0.33939 0.15631 0.36954 0.0
O55 O 0.26654 0.13829 0.31969 0.0
Co56 Co 0.08389 0.97447 0.39249 0.0
O57 O 0.13745 0.85691 0.40665 0.0
O58 O 1.00297 0.87439 0.38063 0.0
C59 C 0.21151 0.0452 0.36841 0.0
O60 O 1.0016 0.06681 0.36879 0.0
Co61 Co 0.13036 0.16848 0.41954 0.0
O62 O 0.03177 0.20792 0.38742 0.0
C63 C 0.03989 0.04099 0.46735 0.0
C64 C 0.06201 0.81969 0.39462 0.0
C65 C 0.98778 0.15275 0.36825 0.0
O66 O 0.02425 0.98605 0.44111 0.0
O67 O 0.08506 0.1154 0.46438 0.0
O68 O 0.16531 0.98377 0.35063 0.0
O69 O 0.18437 0.05623 0.4005 0.0
Co70 Co 0.34894 0.80466 0.64244 0.0
O71 O 0.46647 0.85819 0.65666 0.0
O72 O 0.44906 0.72379 0.63056 0.0
C73 C 0.27822 0.93235 0.61841 0.0
O74 O 0.25666 0.72246 0.61866 0.0
Co75 Co 0.1549 0.851 0.66947 0.0
O76 O 0.11557 0.75226 0.63739 0.0
C77 C 0.28238 0.76051 0.71727 0.0
C78 C 0.50372 0.78279 0.6446 0.0
C79 C 0.17075 0.70849 0.61815 0.0
O80 O 0.3373 0.74485 0.69103 0.0
O81 O 0.20798 0.80571 0.7143 0.0
O82 O 0.3397 0.88623 0.60062 0.0
O83 O 0.26716 0.90511 0.65048 0.0
Co84 Co 0.51877 0.06941 0.8925 0.0
O85 O 0.46522 0.18699 0.90666 0.0
O86 O 0.59968 0.1695 0.88063 0.0
C87 C 0.39115 0.99866 0.86842 0.0
O88 O 0.60104 0.97708 0.86878 0.0
Co89 Co 0.47236 0.87541 0.91954 0.0
O90 O 0.57111 0.83599 0.88748 0.0
C91 C 0.5628 1.00292 0.96735 0.0
C92 C 0.54065 0.22421 0.89462 0.0
C93 C 0.61499 0.89116 0.86828 0.0
O94 O 0.57844 0.05785 0.94111 0.0
O95 O 0.51764 0.9285 0.96438 0.0
O96 O 0.43733 0.0601 0.85064 0.0
O97 O 0.4183 0.98764 0.9005 0.0
Co98 Co 0.25375 0.23933 0.14245 0.0
O99 O 0.13623 0.1858 0.15666 0.0
O100 O 0.15364 0.32022 0.13058 0.0
C101 C 0.32446 0.11164 0.11841 0.0
O102 O 0.34604 0.32156 0.11869 0.0
Co103 Co 0.44779 0.19292 0.16947 0.0
O104 O 0.48715 0.2915 0.13734 0.0
C105 C 0.32033 0.28342 0.21729 0.0
C106 C 0.09898 0.26121 0.14461 0.0
C107 C 0.43197 0.33539 0.11814 0.0
O108 O 0.2654 0.2991 0.19105 0.0
O109 O 0.39473 0.23823 0.21431 0.0
O110 O 0.263 0.15779 0.10062 0.0
O111 O 0.33552 0.13887 0.15048 0.0
Co112 Co 0.84539 0.30486 0.14258 0.0
O113 O 0.96368 0.35489 0.15705 0.0
O114 O 0.94359 0.22159 0.13025 0.0
C115 C 0.77721 0.43316 0.1187 0.0
O116 O 0.74747 0.22975 0.11905 0.0
Co117 Co 0.65517 0.34832 0.17032 0.0
O118 O 0.6322 0.21883 0.15627 0.0
C119 C 0.78126 0.25981 0.21751 0.0
C120 C 0.99937 0.27899 0.14481 0.0
C121 C 0.67356 0.19172 0.12891 0.0
O122 O 0.83367 0.24306 0.19071 0.0
O123 O 0.70797 0.30666 0.2153 0.0
O124 O 0.83853 0.3866 0.10103 0.0
O125 O 0.76562 0.4069 0.15093 0.0
Co126 Co 0.75732 0.73911 0.64258 0.0
O127 O 0.63901 0.68909 0.65704 0.0
O128 O 0.65912 0.82241 0.63026 0.0
C129 C 0.82548 0.61081 0.61869 0.0
O130 O 0.85526 0.81423 0.61907 0.0
Co131 Co 0.94752 0.69559 0.67033 0.0
O132 O 0.97055 0.82506 0.65628 0.0
C133 C 0.82143 0.7841 0.71753 0.0
C134 C 0.60333 0.765 0.64481 0.0
C135 C 0.92919 0.85221 0.62893 0.0
O136 O 0.76902 0.80089 0.69073 0.0
O137 O 0.89471 0.73725 0.7153 0.0
O138 O 0.76418 0.65739 0.60103 0.0
O139 O 0.83706 0.63706 0.65093 0.0
Co140 Co 0.75729 0.30432 0.3276 0.0
O141 O 0.63872 0.35402 0.31329 0.0
O142 O 0.65938 0.22056 0.33988 0.0
C143 C 0.8249 0.43284 0.35158 0.0
O144 O 0.85589 0.22934 0.35089 0.0
Co145 Co 0.94715 0.34972 0.29966 0.0
O146 O 0.97164 0.22064 0.31375 0.0
C147 C 0.8215 0.25989 0.25259 0.0
C148 C 0.60331 0.27792 0.32545 0.0
C149 C 0.93047 0.19258 0.341 0.0
O150 O 0.76904 0.24304 0.27937 0.0
O151 O 0.89453 0.30715 0.25477 0.0
O152 O 0.76402 0.38575 0.36926 0.0
O153 O 0.83637 0.40689 0.31931 0.0
Co154 Co 0.84541 0.73954 0.8276 0.0
O155 O 0.96397 0.68983 0.81328 0.0
O156 O 0.94333 0.82328 0.83989 0.0
C157 C 0.77779 0.61102 0.85157 0.0
O158 O 0.74684 0.81451 0.85091 0.0
Co159 Co 0.65554 0.6942 0.79967 0.0
O160 O 0.63111 0.82331 0.81376 0.0
C161 C 0.78119 0.78402 0.7526 0.0
C162 C 0.99939 0.76592 0.82545 0.0
C163 C 0.67229 0.85133 0.84102 0.0
O164 O 0.83366 0.80085 0.77938 0.0
O165 O 0.70815 0.73677 0.75478 0.0
O166 O 0.83869 0.65808 0.86925 0.0
O167 O 0.76631 0.63698 0.8193 0.0
Co168 Co 0.58361 0.56588 0.07755 0.0
O169 O 0.63341 0.68447 0.06331 0.0
O170 O 0.49985 0.66381 0.08982 0.0
C171 C 0.71196 0.49813 0.10158 0.0
O172 O 0.50851 0.46728 0.10077 0.0
Co173 Co 0.62899 0.37607 0.04955 0.0
O174 O 0.49994 0.35146 0.06364 0.0
C175 C 0.53942 0.50193 0.00248 0.0
C176 C 0.55728 0.71989 0.07544 0.0
C177 C 0.4718 0.39267 0.09088 0.0
O178 O 0.52247 0.55427 0.02929 0.0
O179 O 0.58663 0.42885 0.00466 0.0
O180 O 0.66487 0.55904 0.11925 0.0
O181 O 0.68617 0.48675 0.06929 0.0
Co182 Co 1.01906 0.47806 0.57754 0.0
O183 O 0.96926 0.35947 0.5633 0.0
O184 O 0.1028 0.38013 0.58982 0.0
C185 C 0.89072 0.54583 0.60157 0.0
O186 O 0.09416 0.57664 0.60077 0.0
Co187 Co 0.97375 0.66787 0.54956 0.0
O188 O 0.10282 0.69243 0.56365 0.0
C189 C 0.06329 0.54199 0.50248 0.0
C190 C 0.04538 0.32405 0.57544 0.0
C191 C 0.13092 0.65122 0.59088 0.0
O192 O 0.08022 0.48965 0.52929 0.0
O193 O 1.0161 0.61508 0.50467 0.0
O194 O 0.93779 0.48492 0.61924 0.0
O195 O 0.91651 0.55721 0.56928 0.0
Co196 Co 0.58437 0.4778 0.89252 0.0
O197 O 0.63431 0.35951 0.90705 0.0
O198 O 0.5011 0.37959 0.88019 0.0
C199 C 0.71272 0.54587 0.86867 0.0
O200 O 0.50936 0.57571 0.86893 0.0
Co201 Co 0.62775 0.6681 0.92021 0.0
O202 O 0.49822 0.69089 0.90617 0.0
C203 C 0.53913 0.54218 0.96741 0.0
C204 C 0.55844 0.32382 0.8948 0.0
C205 C 0.47122 0.64957 0.87879 0.0
O206 O 0.52244 0.48966 0.94063 0.0
O207 O 0.58601 0.61544 0.96519 0.0
O208 O 0.66622 0.48451 0.85101 0.0
O209 O 0.68638 0.55756 0.90089 0.0
Co210 Co 1.01831 0.5661 0.39252 0.0
O211 O 0.96836 0.68438 0.40706 0.0
O212 O 0.10155 0.66431 0.38019 0.0
C213 C 0.88996 0.498 0.36868 0.0
O214 O 0.09331 0.4682 0.36892 0.0
Co215 Co 0.97499 0.37579 0.4202 0.0
O216 O 0.10453 0.35305 0.40617 0.0
C217 C 0.06358 0.50174 0.46741 0.0
C218 C 0.04422 0.72008 0.3948 0.0
C219 C 0.13149 0.39437 0.37878 0.0
O220 O 0.08025 0.55426 0.44063 0.0
O221 O 1.01671 0.42846 0.46519 0.0
O222 O 0.93644 0.55937 0.35102 0.0
O223 O 0.91631 0.48631 0.4009 0.0
loop_
_geom_bond_atom_site_label_1
_geom_bond_atom_site_label_2
_geom_bond_distance
_geom_bond_site_symmetry_2
_ccdc_geom_bond_type
Co0 O1 2.216 . S
Co0 O2 2.091 1_455 S
Co0 O4 2.004 1_445 S
Co0 O10 2.021 1_455 S
Co0 O12 2.137 . S
Co0 O13 2.244 1_545 S
O1 Co0 2.216 . S
O1 C8 1.247 . S
O2 Co0 2.091 1_655 S
O2 C8 1.261 1_655 S
C3 O12 1.247 1_565 S
C3 O13 1.272 . S
O4 Co0 2.004 1_665 S
O4 C9 1.259 . S
Co5 O6 2.061 1_455 S
Co5 O11 2.052 . S
Co5 O13 2.135 . S
O6 Co5 2.061 1_655 S
O6 C9 1.235 . S
C7 O10 1.238 1_465 S
C7 O11 1.241 . S
C8 O1 1.247 . S
C8 O2 1.261 1_455 S
C9 O4 1.259 . S
C9 O6 1.235 . S
O10 Co0 2.021 1_655 S
O10 C7 1.238 1_645 S
O11 Co5 2.052 . S
O11 C7 1.241 . S
O12 Co0 2.137 . S
O12 C3 1.247 1_545 S
O13 Co0 2.244 1_565 S
O13 C3 1.272 . S
O13 Co5 2.135 . S
Co14 O15 2.216 . S
Co14 O16 2.091 . S
Co14 O18 2.004 . S
Co14 O24 2.021 . S
Co14 O26 2.137 . S
Co14 O27 2.244 . S
O15 Co14 2.216 . S
O15 C22 1.247 . S
O16 Co14 2.091 . S
O16 C22 1.261 . S
C17 O26 1.247 . S
C17 O27 1.272 . S
O18 Co14 2.004 . S
O18 C23 1.259 . S
Co19 O20 2.061 . S
Co19 O25 2.052 . S
Co19 O27 2.135 . S
O20 Co19 2.061 . S
O20 C23 1.235 . S
C21 O24 1.238 . S
C21 O25 1.241 . S
C22 O15 1.247 . S
C22 O16 1.261 . S
C23 O18 1.259 . S
C23 O20 1.235 . S
O24 Co14 2.021 . S
O24 C21 1.238 . S
O25 Co19 2.052 . S
O25 C21 1.241 . S
O26 Co14 2.137 . S
O26 C17 1.247 . S
O27 Co14 2.244 . S
O27 C17 1.272 . S
O27 Co19 2.135 . S
Co28 O29 2.216 . S
Co28 O30 2.091 . S
Co28 O32 2.004 1_565 S
Co28 O38 2.021 . S
Co28 O40 2.137 . S
Co28 O41 2.244 1_565 S
O29 Co28 2.216 . S
O29 C36 1.247 . S
O30 Co28 2.091 . S
O30 C36 1.261 . S
C31 O40 1.247 1_545 S
C31 O41 1.272 . S
O32 Co28 2.004 1_545 S
O32 C37 1.259 . S
Co33 O34 2.061 . S
Co33 O39 2.052 . S
Co33 O41 2.135 . S
O34 Co33 2.061 . S
O34 C37 1.235 . S
C35 O38 1.238 1_545 S
C35 O39 1.241 . S
C36 O29 1.247 . S
C36 O30 1.261 . S
C37 O32 1.259 . S
C37 O34 1.235 . S
O38 Co28 2.021 . S
O38 C35 1.238 1_565 S
O39 Co33 2.052 . S
O39 C35 1.241 . S
O40 Co28 2.137 . S
O40 C31 1.247 1_565 S
O41 Co28 2.244 1_545 S
O41 C31 1.272 . S
O41 Co33 2.135 . S
Co42 O43 2.216 . S
Co42 O44 2.091 . S
Co42 O46 2.004 . S
Co42 O52 2.021 . S
Co42 O54 2.137 . S
Co42 O55 2.244 . S
O43 Co42 2.216 . S
O43 C50 1.247 . S
O44 Co42 2.091 . S
O44 C50 1.261 . S
C45 O54 1.247 . S
C45 O55 1.272 . S
O46 Co42 2.004 . S
O46 C51 1.259 . S
Co47 O48 2.061 . S
Co47 O53 2.052 . S
Co47 O55 2.135 . S
O48 Co47 2.061 . S
O48 C51 1.235 . S
C49 O52 1.238 . S
C49 O53 1.241 . S
C50 O43 1.247 . S
C50 O44 1.261 . S
C51 O46 1.259 . S
C51 O48 1.235 . S
O52 Co42 2.021 . S
O52 C49 1.238 . S
O53 Co47 2.052 . S
O53 C49 1.241 . S
O54 Co42 2.137 . S
O54 C45 1.247 . S
O55 Co42 2.244 . S
O55 C45 1.272 . S
O55 Co47 2.135 . S
Co56 O57 2.216 . S
Co56 O58 2.091 1_455 S
Co56 O60 2.004 1_465 S
Co56 O66 2.021 1_455 S
Co56 O68 2.137 . S
Co56 O69 2.244 1_565 S
O57 Co56 2.216 . S
O57 C64 1.247 . S
O58 Co56 2.091 1_655 S
O58 C64 1.261 1_655 S
C59 O68 1.247 1_545 S
C59 O69 1.272 . S
O60 Co56 2.004 1_645 S
O60 C65 1.259 . S
Co61 O62 2.061 1_455 S
Co61 O67 2.052 . S
Co61 O69 2.135 . S
O62 Co61 2.061 1_655 S
O62 C65 1.235 . S
C63 O66 1.238 1_445 S
C63 O67 1.241 . S
C64 O57 1.247 . S
C64 O58 1.261 1_455 S
C65 O60 1.259 . S
C65 O62 1.235 . S
O66 Co56 2.021 1_655 S
O66 C63 1.238 1_665 S
O67 Co61 2.052 . S
O67 C63 1.241 . S
O68 Co56 2.137 . S
O68 C59 1.247 1_565 S
O69 Co56 2.244 1_545 S
O69 C59 1.272 . S
O69 Co61 2.135 . S
Co70 O71 2.216 . S
Co70 O72 2.091 . S
Co70 O74 2.004 . S
Co70 O80 2.021 . S
Co70 O82 2.137 . S
Co70 O83 2.244 . S
O71 Co70 2.216 . S
O71 C78 1.247 . S
O72 Co70 2.091 . S
O72 C78 1.261 . S
C73 O82 1.247 . S
C73 O83 1.272 . S
O74 Co70 2.004 . S
O74 C79 1.259 . S
Co75 O76 2.061 . S
Co75 O81 2.052 . S
Co75 O83 2.135 . S
O76 Co75 2.061 . S
O76 C79 1.235 . S
C77 O80 1.238 . S
C77 O81 1.241 . S
C78 O71 1.247 . S
C78 O72 1.261 . S
C79 O74 1.259 . S
C79 O76 1.235 . S
O80 Co70 2.021 . S
O80 C77 1.238 . S
O81 Co75 2.052 . S
O81 C77 1.241 . S
O82 Co70 2.137 . S
O82 C73 1.247 . S
O83 Co70 2.244 . S
O83 C73 1.272 . S
O83 Co75 2.135 . S
Co84 O85 2.216 . S
Co84 O86 2.091 . S
Co84 O88 2.004 1_545 S
Co84 O94 2.021 . S
Co84 O96 2.137 . S
Co84 O97 2.244 1_545 S
O85 Co84 2.216 . S
O85 C92 1.247 . S
O86 Co84 2.091 . S
O86 C92 1.261 . S
C87 O96 1.247 1_565 S
C87 O97 1.272 . S
O88 Co84 2.004 1_565 S
O88 C93 1.259 . S
Co89 O90 2.061 . S
Co89 O95 2.052 . S
Co89 O97 2.135 . S
O90 Co89 2.061 . S
O90 C93 1.235 . S
C91 O94 1.238 1_565 S
C91 O95 1.241 . S
C92 O85 1.247 . S
C92 O86 1.261 . S
C93 O88 1.259 . S
C93 O90 1.235 . S
O94 Co84 2.021 . S
O94 C91 1.238 1_545 S
O95 Co89 2.052 . S
O95 C91 1.241 . S
O96 Co84 2.137 . S
O96 C87 1.247 1_545 S
O97 Co84 2.244 1_565 S
O97 C87 1.272 . S
O97 Co89 2.135 . S
Co98 O99 2.216 . S
Co98 O100 2.091 . S
Co98 O102 2.004 . S
Co98 O108 2.021 . S
Co98 O110 2.137 . S
Co98 O111 2.244 . S
O99 Co98 2.216 . S
O99 C106 1.247 . S
O100 Co98 2.091 . S
O100 C106 1.261 . S
C101 O110 1.247 . S
C101 O111 1.272 . S
O102 Co98 2.004 . S
O102 C107 1.259 . S
Co103 O104 2.061 . S
Co103 O109 2.052 . S
Co103 O111 2.135 . S
O104 Co103 2.061 . S
O104 C107 1.235 . S
C105 O108 1.238 . S
C105 O109 1.241 . S
C106 O99 1.247 . S
C106 O100 1.261 . S
C107 O102 1.259 . S
C107 O104 1.235 . S
O108 Co98 2.021 . S
O108 C105 1.238 . S
O109 Co103 2.052 . S
O109 C105 1.241 . S
O110 Co98 2.137 . S
O110 C101 1.247 . S
O111 Co98 2.244 . S
O111 C101 1.272 . S
O111 Co103 2.135 . S
Co112 O113 2.216 . S
Co112 O114 2.091 . S
Co112 O116 2.004 . S
Co112 O122 2.021 . S
Co112 O124 2.137 . S
Co112 O125 2.244 . S
O113 Co112 2.216 . S
O113 C120 1.247 . S
O114 Co112 2.091 . S
O114 C120 1.261 . S
C115 O124 1.247 . S
C115 O125 1.272 . S
O116 Co112 2.004 . S
O116 C121 1.259 . S
Co117 O118 2.061 . S
Co117 O123 2.052 . S
Co117 O125 2.135 . S
O118 Co117 2.061 . S
O118 C121 1.235 . S
C119 O122 1.238 . S
C119 O123 1.241 . S
C120 O113 1.247 . S
C120 O114 1.261 . S
C121 O116 1.259 . S
C121 O118 1.235 . S
O122 Co112 2.021 . S
O122 C119 1.238 . S
O123 Co117 2.052 . S
O123 C119 1.241 . S
O124 Co112 2.137 . S
O124 C115 1.247 . S
O125 Co112 2.244 . S
O125 C115 1.272 . S
O125 Co117 2.135 . S
Co126 O127 2.216 . S
Co126 O128 2.091 . S
Co126 O130 2.004 . S
Co126 O136 2.021 . S
Co126 O138 2.137 . S
Co126 O139 2.244 . S
O127 Co126 2.216 . S
O127 C134 1.247 . S
O128 Co126 2.091 . S
O128 C134 1.261 . S
C129 O138 1.247 . S
C129 O139 1.272 . S
O130 Co126 2.004 . S
O130 C135 1.259 . S
Co131 O132 2.061 . S
Co131 O137 2.052 . S
Co131 O139 2.135 . S
O132 Co131 2.061 . S
O132 C135 1.235 . S
C133 O136 1.238 . S
C133 O137 1.241 . S
C134 O127 1.247 . S
C134 O128 1.261 . S
C135 O130 1.259 . S
C135 O132 1.235 . S
O136 Co126 2.021 . S
O136 C133 1.238 . S
O137 Co131 2.052 . S
O137 C133 1.241 . S
O138 Co126 2.137 . S
O138 C129 1.247 . S
O139 Co126 2.244 . S
O139 C129 1.272 . S
O139 Co131 2.135 . S
Co140 O141 2.216 . S
Co140 O142 2.091 . S
Co140 O144 2.004 . S
Co140 O150 2.021 . S
Co140 O152 2.137 . S
Co140 O153 2.244 . S
O141 Co140 2.216 . S
O141 C148 1.247 . S
O142 Co140 2.091 . S
O142 C148 1.261 . S
C143 O152 1.247 . S
C143 O153 1.272 . S
O144 Co140 2.004 . S
O144 C149 1.259 . S
Co145 O146 2.061 . S
Co145 O151 2.052 . S
Co145 O153 2.135 . S
O146 Co145 2.061 . S
O146 C149 1.235 . S
C147 O150 1.238 . S
C147 O151 1.241 . S
C148 O141 1.247 . S
C148 O142 1.261 . S
C149 O144 1.259 . S
C149 O146 1.235 . S
O150 Co140 2.021 . S
O150 C147 1.238 . S
O151 Co145 2.052 . S
O151 C147 1.241 . S
O152 Co140 2.137 . S
O152 C143 1.247 . S
O153 Co140 2.244 . S
O153 C143 1.272 . S
O153 Co145 2.135 . S
Co154 O155 2.216 . S
Co154 O156 2.091 . S
Co154 O158 2.004 . S
Co154 O164 2.021 . S
Co154 O166 2.137 . S
Co154 O167 2.244 . S
O155 Co154 2.216 . S
O155 C162 1.247 . S
O156 Co154 2.091 . S
O156 C162 1.261 . S
C157 O166 1.247 . S
C157 O167 1.272 . S
O158 Co154 2.004 . S
O158 C163 1.259 . S
Co159 O160 2.061 . S
Co159 O165 2.052 . S
Co159 O167 2.135 . S
O160 Co159 2.061 . S
O160 C163 1.235 . S
C161 O164 1.238 . S
C161 O165 1.241 . S
C162 O155 1.247 . S
C162 O156 1.261 . S
C163 O158 1.259 . S
C163 O160 1.235 . S
O164 Co154 2.021 . S
O164 C161 1.238 . S
O165 Co159 2.052 . S
O165 C161 1.241 . S
O166 Co154 2.137 . S
O166 C157 1.247 . S
O167 Co154 2.244 . S
O167 C157 1.272 . S
O167 Co159 2.135 . S
Co168 O169 2.216 . S
Co168 O170 2.091 . S
Co168 O172 2.004 . S
Co168 O178 2.021 . S
Co168 O180 2.137 . S
Co168 O181 2.244 . S
O169 Co168 2.216 . S
O169 C176 1.247 . S
O170 Co168 2.091 . S
O170 C176 1.261 . S
C171 O180 1.247 . S
C171 O181 1.272 . S
O172 Co168 2.004 . S
O172 C177 1.259 . S
Co173 O174 2.061 . S
Co173 O179 2.052 . S
Co173 O181 2.135 . S
O174 Co173 2.061 . S
O174 C177 1.235 . S
C175 O178 1.238 . S
C175 O179 1.241 . S
C176 O169 1.247 . S
C176 O170 1.261 . S
C177 O172 1.259 . S
C177 O174 1.235 . S
O178 Co168 2.021 . S
O178 C175 1.238 . S
O179 Co173 2.052 . S
O179 C175 1.241 . S
O180 Co168 2.137 . S
O180 C171 1.247 . S
O181 Co168 2.244 . S
O181 C171 1.272 . S
O181 Co173 2.135 . S
Co182 O183 2.216 1_455 S
Co182 O184 2.091 . S
Co182 O186 2.004 . S
Co182 O192 2.021 . S
Co182 O194 2.137 1_455 S
Co182 O195 2.244 1_455 S
O183 Co182 2.216 1_655 S
O183 C190 1.247 . S
O184 Co182 2.091 . S
O184 C190 1.261 1_455 S
C185 O194 1.247 . S
C185 O195 1.272 . S
O186 Co182 2.004 . S
O186 C191 1.259 . S
Co187 O188 2.061 1_655 S
Co187 O193 2.052 . S
Co187 O195 2.135 . S
O188 Co187 2.061 1_455 S
O188 C191 1.235 . S
C189 O192 1.238 . S
C189 O193 1.241 1_455 S
C190 O183 1.247 . S
C190 O184 1.261 1_655 S
C191 O186 1.259 . S
C191 O188 1.235 . S
O192 Co182 2.021 . S
O192 C189 1.238 . S
O193 Co187 2.052 . S
O193 C189 1.241 1_655 S
O194 Co182 2.137 1_655 S
O194 C185 1.247 . S
O195 Co182 2.244 1_655 S
O195 C185 1.272 . S
O195 Co187 2.135 . S
Co196 O197 2.216 . S
Co196 O198 2.091 . S
Co196 O200 2.004 . S
Co196 O206 2.021 . S
Co196 O208 2.137 . S
Co196 O209 2.244 . S
O197 Co196 2.216 . S
O197 C204 1.247 . S
O198 Co196 2.091 . S
O198 C204 1.261 . S
C199 O208 1.247 . S
C199 O209 1.272 . S
O200 Co196 2.004 . S
O200 C205 1.259 . S
Co201 O202 2.061 . S
Co201 O207 2.052 . S
Co201 O209 2.135 . S
O202 Co201 2.061 . S
O202 C205 1.235 . S
C203 O206 1.238 . S
C203 O207 1.241 . S
C204 O197 1.247 . S
C204 O198 1.261 . S
C205 O200 1.259 . S
C205 O202 1.235 . S
O206 Co196 2.021 . S
O206 C203 1.238 . S
O207 Co201 2.052 . S
O207 C203 1.241 . S
O208 Co196 2.137 . S
O208 C199 1.247 . S
O209 Co196 2.244 . S
O209 C199 1.272 . S
O209 Co201 2.135 . S
Co210 O211 2.216 1_455 S
Co210 O212 2.091 . S
Co210 O214 2.004 . S
Co210 O220 2.021 . S
Co210 O222 2.137 1_455 S
Co210 O223 2.244 1_455 S
O211 Co210 2.216 1_655 S
O211 C218 1.247 . S
O212 Co210 2.091 . S
O212 C218 1.261 1_455 S
C213 O222 1.247 . S
C213 O223 1.272 . S
O214 Co210 2.004 . S
O214 C219 1.259 . S
Co215 O216 2.061 1_655 S
Co215 O221 2.052 . S
Co215 O223 2.135 . S
O216 Co215 2.061 1_455 S
O216 C219 1.235 . S
C217 O220 1.238 . S
C217 O221 1.241 1_455 S
C218 O211 1.247 . S
C218 O212 1.261 1_655 S
C219 O214 1.259 . S
C219 O216 1.235 . S
O220 Co210 2.021 . S
O220 C217 1.238 . S
O221 Co215 2.052 . S
O221 C217 1.241 1_655 S
O222 Co210 2.137 1_655 S
O222 C213 1.247 . S
O223 Co210 2.244 1_655 S
O223 C213 1.272 . S
O223 Co215 2.135 . S
C8 C190 1.682 1_455 S
C162 C22 1.682 1_655 S
C176 C36 1.682 . S
C148 C50 1.682 . S
C64 C218 1.682 1_455 S
C78 C134 1.682 . S
C204 C92 1.682 . S
C106 C120 1.682 1_455 S
C63 C7 1.508 1_545 S
C21 C77 1.508 . S
C35 C91 1.508 1_544 S
C105 C49 1.508 . S
C119 C147 1.508 . S
C133 C161 1.508 . S
C203 C175 1.508 1_556 S
C189 C217 1.508 . S
C73 C3 1.853 . S
C17 C87 1.853 . S
C31 C101 1.853 . S
C59 C45 1.853 . S
C65 C149 1.400 . S
C37 C121 1.399 . S
C163 C93 1.399 . S
C135 C9 1.400 . S
C115 C171 1.853 . S
C143 C213 1.853 . S
C185 C129 1.853 . S
C157 C199 1.853 . S
C205 C23 1.400 . S
C191 C79 1.399 . S
C219 C51 1.399 . S
C177 C107 1.400 . S
