# Generated by pormake.
# Topology utp, (3)-cn, num edge types: 1
# Building blocks:
#     Node 0, Type 0, BuildingBlock: OLANEW_clean_sbu_2, # of connection points: 3
#     Node 1, Type 0, BuildingBlock: OLANEW_clean_sbu_2, # of connection points: 3
#     Node 2, Type 0, BuildingBlock: OLANEW_clean_sbu_2, # of connection points: 3
#     Node 3, Type 0, BuildingBlock: OLANEW_clean_sbu_2, # of connection points: 3
#     Node 4, Type 0, BuildingBlock: OLANEW_clean_sbu_2, # of connection points: 3
#     Node 5, Type 0, BuildingBlock: OLANEW_clean_sbu_2, # of connection points: 3
#     Node 6, Type 0, BuildingBlock: OLANEW_clean_sbu_2, # of connection points: 3
#     Node 7, Type 0, BuildingBlock: OLANEW_clean_sbu_2, # of connection points: 3
#     Edge 8, Type (0, 0), BuildingBlock: AJUNOK_clean_linker_0, # of connection points: 2
#     Edge 9, Type (0, 0), BuildingBlock: AJUNOK_clean_linker_0, # of connection points: 2
#     Edge 10, Type (0, 0), BuildingBlock: AJUNOK_clean_linker_0, # of connection points: 2
#     Edge 11, Type (0, 0), BuildingBlock: AJUNOK_clean_linker_0, # of connection points: 2
#     Edge 12, Type (0, 0), BuildingBlock: AJUNOK_clean_linker_0, # of connection points: 2
#     Edge 13, Type (0, 0), BuildingBlock: AJUNOK_clean_linker_0, # of connection points: 2
#     Edge 14, Type (0, 0), BuildingBlock: AJUNOK_clean_linker_0, # of connection points: 2
#     Edge 15, Type (0, 0), BuildingBlock: AJUNOK_clean_linker_0, # of connection points: 2
#     Edge 16, Type (0, 0), BuildingBlock: AJUNOK_clean_linker_0, # of connection points: 2
#     Edge 17, Type (0, 0), BuildingBlock: AJUNOK_clean_linker_0, # of connection points: 2
#     Edge 18, Type (0, 0), BuildingBlock: AJUNOK_clean_linker_0, # of connection points: 2
#     Edge 19, Type (0, 0), BuildingBlock: AJUNOK_clean_linker_0, # of connection points: 2
# Relax obj value: 0.000
# Max RMSD: 0.031
# Mean RMSD: 0.031
data_MOF--net-utp--node1-OLANEW_clean_sbu_2--edge1-AJUNOK_clean_linker_0
_symmetry_space_group_name_H-M    P1
_symmetry_Int_Tables_number       1
_symmetry_cell_setting            triclinic
loop_
_symmetry_equiv_pos_as_xyz
'x, y, z'
_cell_length_a     30.116611
_cell_length_b     35.121448
_cell_length_c     30.732298
_cell_angle_alpha  89.951167
_cell_angle_beta   90.001883
_cell_angle_gamma 90.106135
loop_
_atom_site_label
_atom_site_type_symbol
_atom_site_fract_x
_atom_site_fract_y
_atom_site_fract_z
_atom_type_partial_charge
O0 O 0.14696 0.05198 0.20377 0.0
Cd1 Cd 0.08399 0.09451 0.1893 0.0
O2 O 0.1907 0.08012 0.1562 0.0
Cd3 Cd 0.13432 0.10506 0.12225 0.0
O4 O 0.08642 0.09652 0.06975 0.0
C5 C 0.09207 0.06672 0.04692 0.0
O6 O 0.12552 0.04422 0.05642 0.0
C7 C 0.18511 0.05613 0.1867 0.0
C8 C 0.09487 0.16941 0.21928 0.0
O9 O 0.08059 0.14302 0.24451 0.0
O10 O 0.10487 0.16025 0.18016 0.0
O11 O 0.36351 0.94846 0.20294 0.0
Cd12 Cd 0.42506 0.90476 0.18713 0.0
O13 O 0.31821 0.92208 0.15551 0.0
Cd14 Cd 0.37321 0.89568 0.12099 0.0
O15 O 0.41956 0.90586 0.06756 0.0
C16 C 0.41168 0.93526 0.04465 0.0
O17 O 0.37696 0.95618 0.05448 0.0
C18 C 0.32511 0.94577 0.186 0.0
C19 C 0.4138 0.83014 0.21804 0.0
O20 O 0.42969 0.85639 0.24249 0.0
O21 O 0.40257 0.83931 0.1792 0.0
O22 O 0.15016 0.44109 0.30985 0.0
Cd23 Cd 0.08534 0.39916 0.31721 0.0
O24 O 0.12178 0.48194 0.35631 0.0
Cd25 Cd 0.06374 0.45079 0.37905 0.0
O26 O 0.02351 0.45396 0.43804 0.0
C27 C 0.04062 0.47379 0.46835 0.0
O28 O 0.07993 0.48908 0.4618 0.0
C29 C 0.15243 0.47268 0.32999 0.0
C30 C 0.0962 0.32563 0.28353 0.0
O31 O 0.08461 0.35347 0.25908 0.0
O32 O 0.10337 0.33265 0.32386 0.0
O33 O 0.34185 0.56137 0.29197 0.0
Cd34 Cd 0.41408 0.59348 0.29466 0.0
O35 O 0.32966 0.57182 0.36159 0.0
Cd36 Cd 0.39702 0.58784 0.37984 0.0
O37 O 0.44464 0.57379 0.43103 0.0
C38 C 0.42963 0.5519 0.46059 0.0
O39 O 0.38816 0.54042 0.45784 0.0
C40 C 0.31624 0.55996 0.3248 0.0
C41 C 0.40947 0.67078 0.27212 0.0
O42 O 0.41415 0.64494 0.24305 0.0
O43 O 0.40648 0.66003 0.31187 0.0
O44 O 0.8429 0.93858 0.79286 0.0
Cd45 Cd 0.91325 0.90497 0.80318 0.0
O46 O 0.86894 0.99579 0.80768 0.0
Cd47 Cd 0.93399 0.97911 0.83218 0.0
O48 O 0.98287 0.9931 0.88235 0.0
C49 C 0.97442 0.02292 0.90433 0.0
O50 O 0.93836 0.04223 0.89491 0.0
C51 C 0.8372 0.9744 0.79552 0.0
C52 C 0.9096 0.83095 0.7691 0.0
O53 O 0.9005 0.83744 0.80915 0.0
O54 O 0.92058 0.85942 0.74529 0.0
O55 O 0.65133 0.07307 0.78762 0.0
Cd56 Cd 0.579 0.10406 0.79505 0.0
O57 O 0.62865 0.01568 0.80628 0.0
Cd58 Cd 0.5621 0.03016 0.82863 0.0
O59 O 0.51418 0.01381 0.87876 0.0
C60 C 0.5252 0.98491 0.90128 0.0
O61 O 0.56294 0.96795 0.8923 0.0
C62 C 0.65926 0.03782 0.79308 0.0
C63 C 0.58131 0.17922 0.76414 0.0
O64 O 0.58844 0.17163 0.80433 0.0
O65 O 0.57313 0.15125 0.73859 0.0
O66 O 0.84237 0.56541 0.67445 0.0
Cd67 Cd 0.9138 0.59923 0.67472 0.0
O68 O 0.85875 0.52849 0.73011 0.0
Cd69 Cd 0.92842 0.54033 0.71719 0.0
O70 O 0.96928 0.52783 0.66027 0.0
C71 C 0.94959 0.50819 0.63129 0.0
O72 O 0.90841 0.49754 0.63853 0.0
C73 C 0.83077 0.54054 0.70242 0.0
C74 C 0.90855 0.67479 0.70365 0.0
O75 O 0.90499 0.66651 0.66319 0.0
O76 O 0.9139 0.64723 0.73051 0.0
O77 O 0.65095 0.44111 0.66336 0.0
Cd78 Cd 0.58013 0.4069 0.65712 0.0
O79 O 0.62701 0.47994 0.71436 0.0
Cd80 Cd 0.55919 0.46771 0.69422 0.0
O81 O 0.51592 0.48217 0.63963 0.0
C82 C 0.5347 0.50083 0.60923 0.0
O83 O 0.57714 0.50886 0.61312 0.0
C84 C 0.65858 0.46707 0.69127 0.0
C85 C 0.58303 0.33383 0.69383 0.0
O86 O 0.59103 0.33913 0.6533 0.0
O87 O 0.57382 0.3631 0.71698 0.0
C88 C 0.09606 0.21745 0.27955 0.0
C89 C 0.0983 0.20943 0.23472 0.0
C90 C 0.09677 0.25502 0.29502 0.0
C91 C 0.09909 0.2862 0.26629 0.0
H92 H 0.09335 0.19453 0.303 0.0
H93 H 0.09429 0.25962 0.32978 0.0
S94 S 0.10766 0.28084 0.14592 0.0
N95 N 0.10479 0.23599 0.16181 0.0
N96 N 0.10549 0.30649 0.19086 0.0
C97 C 0.10225 0.27863 0.22142 0.0
C98 C 0.10206 0.24032 0.20567 0.0
C99 C 0.40455 0.76052 0.20289 0.0
C100 C 0.41034 0.79005 0.23332 0.0
C101 C 0.40389 0.72222 0.21584 0.0
C102 C 0.40844 0.71176 0.25985 0.0
H103 H 0.40146 0.7669 0.16853 0.0
H104 H 0.40001 0.70063 0.19097 0.0
S105 S 0.42207 0.77826 0.35287 0.0
N106 N 0.41919 0.80625 0.30979 0.0
N107 N 0.41745 0.73438 0.33418 0.0
C108 C 0.41309 0.74105 0.29082 0.0
C109 C 0.4142 0.78011 0.27756 0.0
C110 C 0.90539 0.76024 0.77969 0.0
C111 C 0.90814 0.7916 0.75124 0.0
C112 C 0.90525 0.72275 0.76397 0.0
C113 C 0.90739 0.71494 0.71908 0.0
H114 H 0.90395 0.76458 0.81455 0.0
H115 H 0.90354 0.6997 0.78736 0.0
S116 S 0.91331 0.78693 0.63059 0.0
N117 N 0.91199 0.8123 0.67575 0.0
N118 N 0.91135 0.74198 0.64623 0.0
C119 C 0.90937 0.74605 0.69017 0.0
C120 C 0.90988 0.78428 0.70621 0.0
C121 C 0.58346 0.26287 0.68539 0.0
C122 C 0.58353 0.29489 0.71291 0.0
C123 C 0.58269 0.22575 0.70227 0.0
C124 C 0.58247 0.21899 0.74744 0.0
H125 H 0.58344 0.2664 0.65037 0.0
H126 H 0.58239 0.20217 0.67958 0.0
S127 S 0.5837 0.29297 0.83376 0.0
N128 N 0.58401 0.31732 0.7878 0.0
N129 N 0.58301 0.24768 0.8195 0.0
C130 C 0.58311 0.25075 0.77541 0.0
C131 C 0.58349 0.28861 0.75818 0.0
C132 C 0.2455 0.96266 0.19707 0.0
C133 C 0.29032 0.97388 0.19635 0.0
C134 C 0.21137 0.98976 0.19793 0.0
C135 C 0.22099 0.02896 0.19661 0.0
H136 H 0.23676 0.93277 0.19515 0.0
H137 H 0.17728 0.97993 0.19639 0.0
S138 S 0.33279 0.07308 0.19785 0.0
N139 N 0.3425 0.0268 0.19806 0.0
N140 N 0.27822 0.0777 0.19766 0.0
C141 C 0.26558 0.04053 0.19804 0.0
C142 C 0.30032 0.01297 0.19847 0.0
C143 C 0.26522 0.51054 0.29371 0.0
C144 C 0.2721 0.54158 0.32183 0.0
C145 C 0.2259 0.48898 0.29557 0.0
C146 C 0.19184 0.498 0.32524 0.0
H147 H 0.2912 0.50169 0.27157 0.0
H148 H 0.22278 0.46449 0.27438 0.0
S149 S 0.19177 0.57996 0.40196 0.0
N150 N 0.24038 0.58242 0.37739 0.0
N151 N 0.16646 0.54267 0.38069 0.0
C152 C 0.19749 0.53048 0.35174 0.0
C153 C 0.23761 0.55204 0.3501 0.0
C154 C 0.71186 0.98283 0.78967 0.0
C155 C 0.70485 0.02244 0.7874 0.0
C156 C 0.75472 0.96745 0.79002 0.0
C157 C 0.79248 0.99103 0.78845 0.0
H158 H 0.68402 0.96341 0.79252 0.0
H159 H 0.75817 0.93689 0.79343 0.0
S160 S 0.7926 0.09634 0.77691 0.0
N161 N 0.73953 0.08474 0.77951 0.0
N162 N 0.82008 0.05584 0.78034 0.0
C163 C 0.78603 0.03055 0.78375 0.0
C164 C 0.74228 0.04624 0.78313 0.0
C165 C 0.72024 0.49659 0.73436 0.0
C166 C 0.70299 0.48476 0.694 0.0
C167 C 0.76187 0.51454 0.73709 0.0
C168 C 0.78666 0.52249 0.6994 0.0
H169 H 0.70167 0.49154 0.764 0.0
H170 H 0.77445 0.52273 0.76877 0.0
S171 S 0.75594 0.49781 0.58601 0.0
N172 N 0.71405 0.48205 0.61569 0.0
N173 N 0.79135 0.51697 0.62072 0.0
C174 C 0.76955 0.51116 0.6589 0.0
C175 C 0.72793 0.49197 0.65623 0.0
C176 C 0.04125 0.01314 0.95162 0.0
C177 C 0.00409 0.03527 0.94038 0.0
C178 C 0.06938 0.02369 0.9859 0.0
C179 C 0.06167 0.05688 0.01047 0.0
H180 H 0.0487 0.98724 0.93398 0.0
H181 H 0.09738 0.00546 0.99318 0.0
S182 S 0.96927 0.12528 0.994 0.0
N183 N 0.96135 0.0924 0.95645 0.0
N184 N 0.01421 0.11213 0.02076 0.0
C185 C 0.02479 0.07948 0.99945 0.0
C186 C 0.99605 0.06872 0.9645 0.0
C187 C 0.43027 0.9787 0.98261 0.0
C188 C 0.44102 0.94652 0.00789 0.0
C189 C 0.45743 0.99066 0.94816 0.0
C190 C 0.49661 0.97103 0.93747 0.0
H191 H 0.40062 0.99503 0.98946 0.0
H192 H 0.44762 0.0157 0.92996 0.0
S193 S 0.53967 0.88458 0.99311 0.0
N194 N 0.49352 0.89494 0.01947 0.0
N195 N 0.54456 0.91732 0.95485 0.0
C196 C 0.50768 0.9386 0.96229 0.0
C197 C 0.47993 0.92638 0.9974 0.0
C198 C 0.01566 0.51092 0.58185 0.0
C199 C 0.97216 0.49808 0.58987 0.0
C200 C 0.03744 0.50256 0.54274 0.0
C201 C 0.01674 0.48093 0.50987 0.0
H202 H 0.0331 0.52787 0.60584 0.0
H203 H 0.07081 0.51343 0.53827 0.0
S204 S 0.90317 0.43978 0.51476 0.0
N205 N 0.90923 0.46203 0.56166 0.0
N206 N 0.95024 0.44634 0.48828 0.0
C207 C 0.97338 0.46752 0.51756 0.0
C208 C 0.95111 0.47609 0.55745 0.0
C209 C 0.43865 0.51722 0.5312 0.0
C210 C 0.45766 0.53932 0.49773 0.0
C211 C 0.46379 0.50486 0.56685 0.0
C212 C 0.50913 0.51395 0.57064 0.0
H213 H 0.40386 0.50941 0.53009 0.0
H214 H 0.44736 0.48806 0.59168 0.0
S215 S 0.57532 0.57064 0.49151 0.0
N216 N 0.52492 0.56948 0.47047 0.0
N217 N 0.57225 0.54624 0.53733 0.0
C218 C 0.52874 0.53587 0.53726 0.0
C219 C 0.50303 0.54855 0.50092 0.0
loop_
_geom_bond_atom_site_label_1
_geom_bond_atom_site_label_2
_geom_bond_distance
_geom_bond_site_symmetry_2
_ccdc_geom_bond_type
O0 Cd1 2.300 . S
O0 C7 1.275 . S
Cd1 O0 2.300 . S
Cd1 O9 2.381 . S
Cd1 O10 2.378 . S
O2 Cd3 2.385 . S
O2 C7 1.255 . S
Cd3 O2 2.385 . S
Cd3 O4 2.317 . S
O4 Cd3 2.317 . S
O4 C5 1.232 . S
C5 O4 1.232 . S
C5 O6 1.218 . S
O6 C5 1.218 . S
C7 O0 1.275 . S
C7 O2 1.255 . S
C8 O9 1.258 . S
C8 O10 1.256 . S
O9 Cd1 2.381 . S
O9 C8 1.258 . S
O10 Cd1 2.378 . S
O10 C8 1.256 . S
O11 Cd12 2.300 . S
O11 C18 1.275 . S
Cd12 O11 2.300 . S
Cd12 O20 2.381 . S
Cd12 O21 2.378 . S
O13 Cd14 2.385 . S
O13 C18 1.255 . S
Cd14 O13 2.385 . S
Cd14 O15 2.317 . S
O15 Cd14 2.317 . S
O15 C16 1.232 . S
C16 O15 1.232 . S
C16 O17 1.218 . S
O17 C16 1.218 . S
C18 O11 1.275 . S
C18 O13 1.255 . S
C19 O20 1.258 . S
C19 O21 1.256 . S
O20 Cd12 2.381 . S
O20 C19 1.258 . S
O21 Cd12 2.378 . S
O21 C19 1.256 . S
O22 Cd23 2.300 . S
O22 C29 1.275 . S
Cd23 O22 2.300 . S
Cd23 O31 2.381 . S
Cd23 O32 2.378 . S
O24 Cd25 2.385 . S
O24 C29 1.255 . S
Cd25 O24 2.385 . S
Cd25 O26 2.317 . S
O26 Cd25 2.317 . S
O26 C27 1.232 . S
C27 O26 1.232 . S
C27 O28 1.218 . S
O28 C27 1.218 . S
C29 O22 1.275 . S
C29 O24 1.255 . S
C30 O31 1.258 . S
C30 O32 1.256 . S
O31 Cd23 2.381 . S
O31 C30 1.258 . S
O32 Cd23 2.378 . S
O32 C30 1.256 . S
O33 Cd34 2.300 . S
O33 C40 1.275 . S
Cd34 O33 2.300 . S
Cd34 O42 2.381 . S
Cd34 O43 2.378 . S
O35 Cd36 2.385 . S
O35 C40 1.255 . S
Cd36 O35 2.385 . S
Cd36 O37 2.317 . S
O37 Cd36 2.317 . S
O37 C38 1.232 . S
C38 O37 1.232 . S
C38 O39 1.218 . S
O39 C38 1.218 . S
C40 O33 1.275 . S
C40 O35 1.255 . S
C41 O42 1.258 . S
C41 O43 1.256 . S
O42 Cd34 2.381 . S
O42 C41 1.258 . S
O43 Cd34 2.378 . S
O43 C41 1.256 . S
O44 Cd45 2.300 . S
O44 C51 1.275 . S
Cd45 O44 2.300 . S
Cd45 O53 2.381 . S
Cd45 O54 2.378 . S
O46 Cd47 2.385 . S
O46 C51 1.255 . S
Cd47 O46 2.385 . S
Cd47 O48 2.317 . S
O48 Cd47 2.317 . S
O48 C49 1.232 . S
C49 O48 1.232 . S
C49 O50 1.218 1_565 S
O50 C49 1.218 1_545 S
C51 O44 1.275 . S
C51 O46 1.255 . S
C52 O53 1.258 . S
C52 O54 1.256 . S
O53 Cd45 2.381 . S
O53 C52 1.258 . S
O54 Cd45 2.378 . S
O54 C52 1.256 . S
O55 Cd56 2.300 . S
O55 C62 1.275 . S
Cd56 O55 2.300 . S
Cd56 O64 2.381 . S
Cd56 O65 2.378 . S
O57 Cd58 2.385 . S
O57 C62 1.255 . S
Cd58 O57 2.385 . S
Cd58 O59 2.317 . S
O59 Cd58 2.317 . S
O59 C60 1.232 . S
C60 O59 1.232 . S
C60 O61 1.218 1_545 S
O61 C60 1.218 1_565 S
C62 O55 1.275 . S
C62 O57 1.255 . S
C63 O64 1.258 . S
C63 O65 1.256 . S
O64 Cd56 2.381 . S
O64 C63 1.258 . S
O65 Cd56 2.378 . S
O65 C63 1.256 . S
O66 Cd67 2.300 . S
O66 C73 1.275 . S
Cd67 O66 2.300 . S
Cd67 O75 2.381 . S
Cd67 O76 2.378 . S
O68 Cd69 2.385 . S
O68 C73 1.255 . S
Cd69 O68 2.385 . S
Cd69 O70 2.317 . S
O70 Cd69 2.317 . S
O70 C71 1.232 . S
C71 O70 1.232 . S
C71 O72 1.218 . S
O72 C71 1.218 . S
C73 O66 1.275 . S
C73 O68 1.255 . S
C74 O75 1.258 . S
C74 O76 1.256 . S
O75 Cd67 2.381 . S
O75 C74 1.258 . S
O76 Cd67 2.378 . S
O76 C74 1.256 . S
O77 Cd78 2.300 . S
O77 C84 1.275 . S
Cd78 O77 2.300 . S
Cd78 O86 2.381 . S
Cd78 O87 2.378 . S
O79 Cd80 2.385 . S
O79 C84 1.255 . S
Cd80 O79 2.385 . S
Cd80 O81 2.317 . S
O81 Cd80 2.317 . S
O81 C82 1.232 . S
C82 O81 1.232 . S
C82 O83 1.218 . S
O83 C82 1.218 . S
C84 O77 1.275 . S
C84 O79 1.255 . S
C85 O86 1.258 . S
C85 O87 1.256 . S
O86 Cd78 2.381 . S
O86 C85 1.258 . S
O87 Cd78 2.378 . S
O87 C85 1.256 . S
C88 C89 1.369 . S
C88 C90 1.419 . S
C88 H92 0.930 . S
C89 C88 1.369 . S
C89 C98 1.429 . S
C90 C88 1.419 . S
C90 C91 1.363 . S
C90 H93 0.929 . S
C91 C90 1.363 . S
C91 C97 1.428 . S
H92 C88 0.930 . S
H93 C90 0.929 . S
S94 N95 1.613 . S
S94 N96 1.610 . S
N95 S94 1.613 . S
N95 C98 1.350 . S
N96 S94 1.610 . S
N96 C97 1.351 . S
C97 C91 1.428 . S
C97 N96 1.351 . S
C97 C98 1.434 . S
C98 C89 1.429 . S
C98 N95 1.350 . S
C98 C97 1.434 . S
C99 C100 1.369 . S
C99 C101 1.419 . S
C99 H103 0.930 . S
C100 C99 1.369 . S
C100 C109 1.429 . S
C101 C99 1.419 . S
C101 C102 1.363 . S
C101 H104 0.929 . S
C102 C101 1.363 . S
C102 C108 1.428 . S
H103 C99 0.930 . S
H104 C101 0.929 . S
S105 N106 1.613 . S
S105 N107 1.610 . S
N106 S105 1.613 . S
N106 C109 1.350 . S
N107 S105 1.610 . S
N107 C108 1.351 . S
C108 C102 1.428 . S
C108 N107 1.351 . S
C108 C109 1.434 . S
C109 C100 1.429 . S
C109 N106 1.350 . S
C109 C108 1.434 . S
C110 C111 1.369 . S
C110 C112 1.419 . S
C110 H114 0.930 . S
C111 C110 1.369 . S
C111 C120 1.429 . S
C112 C110 1.419 . S
C112 C113 1.363 . S
C112 H115 0.929 . S
C113 C112 1.363 . S
C113 C119 1.428 . S
H114 C110 0.930 . S
H115 C112 0.929 . S
S116 N117 1.613 . S
S116 N118 1.610 . S
N117 S116 1.613 . S
N117 C120 1.350 . S
N118 S116 1.610 . S
N118 C119 1.351 . S
C119 C113 1.428 . S
C119 N118 1.351 . S
C119 C120 1.434 . S
C120 C111 1.429 . S
C120 N117 1.350 . S
C120 C119 1.434 . S
C121 C122 1.369 . S
C121 C123 1.419 . S
C121 H125 0.930 . S
C122 C121 1.369 . S
C122 C131 1.429 . S
C123 C121 1.419 . S
C123 C124 1.363 . S
C123 H126 0.929 . S
C124 C123 1.363 . S
C124 C130 1.428 . S
H125 C121 0.930 . S
H126 C123 0.929 . S
S127 N128 1.613 . S
S127 N129 1.610 . S
N128 S127 1.613 . S
N128 C131 1.350 . S
N129 S127 1.610 . S
N129 C130 1.351 . S
C130 C124 1.428 . S
C130 N129 1.351 . S
C130 C131 1.434 . S
C131 C122 1.429 . S
C131 N128 1.350 . S
C131 C130 1.434 . S
C132 C133 1.369 . S
C132 C134 1.419 . S
C132 H136 0.930 . S
C133 C132 1.369 . S
C133 C142 1.429 1_565 S
C134 C132 1.419 . S
C134 C135 1.363 1_565 S
C134 H137 0.929 . S
C135 C134 1.363 1_545 S
C135 C141 1.428 . S
H136 C132 0.930 . S
H137 C134 0.929 . S
S138 N139 1.613 . S
S138 N140 1.610 . S
N139 S138 1.613 . S
N139 C142 1.350 . S
N140 S138 1.610 . S
N140 C141 1.351 . S
C141 C135 1.428 . S
C141 N140 1.351 . S
C141 C142 1.434 . S
C142 C133 1.429 1_545 S
C142 N139 1.350 . S
C142 C141 1.434 . S
C143 C144 1.369 . S
C143 C145 1.419 . S
C143 H147 0.930 . S
C144 C143 1.369 . S
C144 C153 1.429 . S
C145 C143 1.419 . S
C145 C146 1.363 . S
C145 H148 0.929 . S
C146 C145 1.363 . S
C146 C152 1.428 . S
H147 C143 0.930 . S
H148 C145 0.929 . S
S149 N150 1.613 . S
S149 N151 1.610 . S
N150 S149 1.613 . S
N150 C153 1.350 . S
N151 S149 1.610 . S
N151 C152 1.351 . S
C152 C146 1.428 . S
C152 N151 1.351 . S
C152 C153 1.434 . S
C153 C144 1.429 . S
C153 N150 1.350 . S
C153 C152 1.434 . S
C154 C155 1.369 1_565 S
C154 C156 1.419 . S
C154 H158 0.930 . S
C155 C154 1.369 1_545 S
C155 C164 1.429 . S
C156 C154 1.419 . S
C156 C157 1.363 . S
C156 H159 0.929 . S
C157 C156 1.363 . S
C157 C163 1.428 1_565 S
H158 C154 0.930 . S
H159 C156 0.929 . S
S160 N161 1.613 . S
S160 N162 1.610 . S
N161 S160 1.613 . S
N161 C164 1.350 . S
N162 S160 1.610 . S
N162 C163 1.351 . S
C163 C157 1.428 1_545 S
C163 N162 1.351 . S
C163 C164 1.434 . S
C164 C155 1.429 . S
C164 N161 1.350 . S
C164 C163 1.434 . S
C165 C166 1.369 . S
C165 C167 1.419 . S
C165 H169 0.930 . S
C166 C165 1.369 . S
C166 C175 1.429 . S
C167 C165 1.419 . S
C167 C168 1.363 . S
C167 H170 0.929 . S
C168 C167 1.363 . S
C168 C174 1.428 . S
H169 C165 0.930 . S
H170 C167 0.929 . S
S171 N172 1.613 . S
S171 N173 1.610 . S
N172 S171 1.613 . S
N172 C175 1.350 . S
N173 S171 1.610 . S
N173 C174 1.351 . S
C174 C168 1.428 . S
C174 N173 1.351 . S
C174 C175 1.434 . S
C175 C166 1.429 . S
C175 N172 1.350 . S
C175 C174 1.434 . S
C176 C177 1.369 1_455 S
C176 C178 1.419 1_556 S
C176 H180 0.930 . S
C177 C176 1.369 1_655 S
C177 C186 1.429 1_565 S
C178 C176 1.419 1_554 S
C178 C179 1.363 1_565 S
C178 H181 0.929 . S
C179 C178 1.363 1_545 S
C179 C185 1.428 1_455 S
H180 C176 0.930 . S
H181 C178 0.929 . S
S182 N183 1.613 . S
S182 N184 1.610 . S
N183 S182 1.613 . S
N183 C186 1.350 . S
N184 S182 1.610 . S
N184 C185 1.351 1_556 S
C185 C179 1.428 1_655 S
C185 N184 1.351 1_554 S
C185 C186 1.434 1_554 S
C186 C177 1.429 1_545 S
C186 N183 1.350 . S
C186 C185 1.434 1_556 S
C187 C188 1.369 1_545 S
C187 C189 1.419 1_554 S
C187 H191 0.930 . S
C188 C187 1.369 1_565 S
C188 C197 1.429 . S
C189 C187 1.419 1_556 S
C189 C190 1.363 . S
C189 H192 0.929 . S
C190 C189 1.363 . S
C190 C196 1.428 1_545 S
H191 C187 0.930 . S
H192 C189 0.929 . S
S193 N194 1.613 . S
S193 N195 1.610 1_554 S
N194 S193 1.613 . S
N194 C197 1.350 . S
N195 S193 1.610 1_556 S
N195 C196 1.351 . S
C196 C190 1.428 1_565 S
C196 N195 1.351 . S
C196 C197 1.434 1_556 S
C197 C188 1.429 . S
C197 N194 1.350 . S
C197 C196 1.434 1_554 S
C198 C199 1.369 1_455 S
C198 C200 1.419 . S
C198 H202 0.930 . S
C199 C198 1.369 1_655 S
C199 C208 1.429 . S
C200 C198 1.419 . S
C200 C201 1.363 . S
C200 H203 0.929 . S
C201 C200 1.363 . S
C201 C207 1.428 1_455 S
H202 C198 0.930 . S
H203 C200 0.929 . S
S204 N205 1.613 . S
S204 N206 1.610 . S
N205 S204 1.613 . S
N205 C208 1.350 . S
N206 S204 1.610 . S
N206 C207 1.351 . S
C207 C201 1.428 1_655 S
C207 N206 1.351 . S
C207 C208 1.434 . S
C208 C199 1.429 . S
C208 N205 1.350 . S
C208 C207 1.434 . S
C209 C210 1.369 . S
C209 C211 1.419 . S
C209 H213 0.930 . S
C210 C209 1.369 . S
C210 C219 1.429 . S
C211 C209 1.419 . S
C211 C212 1.363 . S
C211 H214 0.929 . S
C212 C211 1.363 . S
C212 C218 1.428 . S
H213 C209 0.930 . S
H214 C211 0.929 . S
S215 N216 1.613 . S
S215 N217 1.610 . S
N216 S215 1.613 . S
N216 C219 1.350 . S
N217 S215 1.610 . S
N217 C218 1.351 . S
C218 C212 1.428 . S
C218 N217 1.351 . S
C218 C219 1.434 . S
C219 C210 1.429 . S
C219 N216 1.350 . S
C219 C218 1.434 . S
C89 C8 1.487 . S
C91 C30 1.490 . S
C100 C19 1.490 . S
C102 C41 1.488 . S
C111 C52 1.490 . S
C113 C74 1.494 . S
C122 C85 1.491 . S
C124 C63 1.493 . S
C133 C18 1.460 . S
C135 C7 1.453 . S
C144 C40 1.453 . S
C146 C29 1.458 . S
C155 C62 1.458 . S
C157 C51 1.459 . S
C166 C84 1.464 . S
C168 C73 1.463 . S
C177 C49 1.298 . S
C179 C5 1.287 . S
C188 C16 1.297 . S
C190 C60 1.307 . S
C199 C71 1.300 . S
C201 C27 1.290 . S
C210 C38 1.299 . S
C212 C82 1.310 . S
