# Generated by pormake.
# Topology sqp, (5)-cn, num edge types: 1
# Building blocks:
#     Node 0, Type 0, BuildingBlock: XOMCOT_clean_sbu_0, # of connection points: 5
#     Node 1, Type 0, BuildingBlock: XOMCOT_clean_sbu_0, # of connection points: 5
#     Node 2, Type 0, BuildingBlock: XOMCOT_clean_sbu_0, # of connection points: 5
#     Node 3, Type 0, BuildingBlock: XOMCOT_clean_sbu_0, # of connection points: 5
#     Edge 4, Type (0, 0), BuildingBlock: OJICUG_clean_linker_0, # of connection points: 2
#     Edge 5, Type (0, 0), BuildingBlock: OJICUG_clean_linker_0, # of connection points: 2
#     Edge 6, Type (0, 0), BuildingBlock: OJICUG_clean_linker_0, # of connection points: 2
#     Edge 7, Type (0, 0), BuildingBlock: OJICUG_clean_linker_0, # of connection points: 2
#     Edge 8, Type (0, 0), BuildingBlock: OJICUG_clean_linker_0, # of connection points: 2
#     Edge 9, Type (0, 0), BuildingBlock: OJICUG_clean_linker_0, # of connection points: 2
#     Edge 10, Type (0, 0), BuildingBlock: OJICUG_clean_linker_0, # of connection points: 2
#     Edge 11, Type (0, 0), BuildingBlock: OJICUG_clean_linker_0, # of connection points: 2
#     Edge 12, Type (0, 0), BuildingBlock: OJICUG_clean_linker_0, # of connection points: 2
#     Edge 13, Type (0, 0), BuildingBlock: OJICUG_clean_linker_0, # of connection points: 2
# Relax obj value: 0.121
# Max RMSD: 0.201
# Mean RMSD: 0.201
data_MOF--net-sqp--node1-XOMCOT_clean_sbu_0--edge1-OJICUG_clean_linker_0
_symmetry_space_group_name_H-M    P1
_symmetry_Int_Tables_number       1
_symmetry_cell_setting            triclinic
loop_
_symmetry_equiv_pos_as_xyz
'x, y, z'
_cell_length_a     18.325387
_cell_length_b     13.673777
_cell_length_c     38.14834
_cell_angle_alpha  89.89889
_cell_angle_beta   84.893665
_cell_angle_gamma 89.991232
loop_
_atom_site_label
_atom_site_type_symbol
_atom_site_fract_x
_atom_site_fract_y
_atom_site_fract_z
_atom_type_partial_charge
Co0 Co 1.00554 1.04649 0.29017 0.0
C1 C 0.87582 0.17214 0.27866 0.0
C2 C 0.96546 0.25492 0.29561 0.0
C3 C 0.90896 0.31819 0.29074 0.0
N4 N 0.94478 0.16291 0.28837 0.0
N5 N 0.85289 0.26608 0.27997 0.0
H6 H 0.84304 0.11241 0.27023 0.0
H7 H 0.01891 0.27612 0.30265 0.0
C8 C 0.16116 0.11833 0.2821 0.0
O9 O 0.17779 0.05675 0.30664 0.0
N10 N 0.06702 0.93094 0.29143 0.0
C11 C 0.0781 0.87167 0.31882 0.0
C12 C 0.13221 0.80544 0.30833 0.0
C13 C 0.11319 0.89792 0.26444 0.0
N14 N 0.15408 0.8223 0.27424 0.0
C15 C 0.96388 1.01872 0.36335 0.0
C16 C 0.05761 0.15152 0.39014 0.0
C17 C 1.01319 0.09308 0.41343 0.0
C18 C 0.96459 1.02799 0.39959 0.0
C19 C 0.05529 0.13976 0.35379 0.0
N20 N 1.01126 0.07042 0.34059 0.0
H21 H 0.92664 0.96612 0.35392 0.0
H22 H 0.08905 0.18735 0.33683 0.0
H23 H 0.05099 0.87662 0.34498 0.0
H24 H 0.11964 0.9321 0.23873 0.0
O25 O 0.92046 0.9628 0.29361 0.0
O26 O 0.98077 1.00846 0.24347 0.0
O27 O 0.09488 0.12751 0.27449 0.0
C28 C 0.92791 0.95747 0.25956 0.0
H29 H 0.91043 0.39706 0.29304 0.0
H30 H 0.15457 0.74999 0.32462 0.0
H31 H 0.09507 0.20417 0.39985 0.0
H32 H 0.92777 0.98332 0.41668 0.0
Co33 Co 0.04192 1.04562 0.687 0.0
C34 C 0.17141 0.17134 0.69866 0.0
C35 C 0.08194 0.25408 0.68142 0.0
C36 C 0.13835 0.31737 0.68634 0.0
N37 N 0.10257 0.16208 0.68882 0.0
N38 N 0.19431 0.26529 0.6973 0.0
H39 H 0.20413 0.11161 0.70723 0.0
H40 H 0.02858 0.27524 0.67422 0.0
C41 C 0.88621 0.11719 0.69503 0.0
O42 O 0.8696 0.05572 0.67054 0.0
N43 N 0.98055 0.93002 0.6857 0.0
C44 C 0.96972 0.87091 0.65831 0.0
C45 C 0.91573 0.80441 0.66876 0.0
C46 C 0.93436 0.89663 0.71266 0.0
N47 N 0.89368 0.82095 0.70284 0.0
C48 C 0.08393 1.01867 0.61385 0.0
C49 C 0.98978 0.15101 0.58695 0.0
C50 C 0.03443 0.09294 0.5637 0.0
C51 C 0.08325 1.0281 0.5776 0.0
C52 C 0.99208 0.1391 0.6233 0.0
N53 N 0.03632 0.06996 0.63656 0.0
H54 H 0.12135 0.96627 0.62331 0.0
H55 H 0.95815 0.18643 0.64022 0.0
H56 H 0.99696 0.87613 0.63218 0.0
H57 H 0.92774 0.9306 0.73836 0.0
O58 O 0.12704 0.96202 0.68363 0.0
O59 O 0.06655 1.00724 0.73373 0.0
O60 O 0.95249 0.12644 0.70261 0.0
C61 C 0.11947 0.95639 0.71767 0.0
H62 H 0.1369 0.39625 0.68393 0.0
H63 H 0.89356 0.74899 0.65247 0.0
H64 H 0.95214 0.20347 0.5772 0.0
H65 H 0.12026 0.98374 0.56054 0.0
Co66 Co 0.50503 0.54526 0.79014 0.0
C67 C 0.37533 0.67103 0.77874 0.0
C68 C 0.4653 0.75387 0.79532 0.0
C69 C 0.40882 0.81717 0.79047 0.0
N70 N 0.44441 0.6618 0.78829 0.0
N71 N 0.35253 0.76503 0.77993 0.0
H72 H 0.34236 0.61125 0.77049 0.0
H73 H 0.51888 0.77506 0.80218 0.0
C74 C 0.6607 0.61678 0.78204 0.0
O75 O 0.67723 0.55534 0.80665 0.0
N76 N 0.56638 0.42959 0.79143 0.0
C77 C 0.57732 0.37025 0.81883 0.0
C78 C 0.63134 0.30389 0.80835 0.0
C79 C 0.61254 0.39647 0.76446 0.0
N80 N 0.6533 0.32073 0.77426 0.0
C81 C 0.46358 0.51774 0.86335 0.0
C82 C 0.55721 0.65096 0.88999 0.0
C83 C 0.51291 0.59257 0.91335 0.0
C84 C 0.46436 0.52725 0.89958 0.0
C85 C 0.55482 0.63895 0.85366 0.0
N86 N 0.51085 0.56941 0.84054 0.0
H87 H 0.42638 0.465 0.85398 0.0
H88 H 0.58849 0.68652 0.83665 0.0
H89 H 0.55016 0.37521 0.84497 0.0
H90 H 0.61908 0.43067 0.73875 0.0
O91 O 0.41984 0.46177 0.79365 0.0
O92 O 0.48016 0.50713 0.74347 0.0
O93 O 0.59446 0.626 0.77439 0.0
C94 C 0.42725 0.45631 0.75961 0.0
H95 H 0.41042 0.89608 0.79262 0.0
H96 H 0.6536 0.24836 0.82464 0.0
H97 H 0.59463 0.70378 0.89963 0.0
H98 H 0.42763 0.4826 0.91673 0.0
Co99 Co 0.54254 0.54691 0.18688 0.0
C100 C 0.67212 0.67249 0.19855 0.0
C101 C 0.58285 0.75525 0.18112 0.0
C102 C 0.6393 0.81848 0.18604 0.0
N103 N 0.60333 0.66326 0.18864 0.0
N104 N 0.69514 0.76639 0.19712 0.0
H105 H 0.70472 0.61277 0.20722 0.0
H106 H 0.52956 0.77645 0.17385 0.0
C107 C 0.3869 0.61873 0.19496 0.0
O108 O 0.37019 0.55718 0.1705 0.0
N109 N 0.48104 0.43141 0.18565 0.0
C110 C 0.47005 0.37234 0.15826 0.0
C111 C 0.41597 0.30598 0.16875 0.0
C112 C 0.43486 0.39813 0.21263 0.0
N113 N 0.39404 0.32255 0.20284 0.0
C114 C 0.58447 0.51974 0.11373 0.0
C115 C 0.49016 0.65182 0.0868 0.0
C116 C 0.53474 0.59362 0.06357 0.0
C117 C 0.58366 0.52895 0.07748 0.0
C118 C 0.49259 0.64015 0.12316 0.0
N119 N 0.5369 0.57111 0.13643 0.0
H120 H 0.62194 0.46743 0.1232 0.0
H121 H 0.45871 0.68757 0.14007 0.0
H122 H 0.49721 0.37752 0.13212 0.0
H123 H 0.42836 0.4321 0.23834 0.0
O124 O 0.62757 0.46315 0.18352 0.0
O125 O 0.5672 0.50859 0.23362 0.0
O126 O 0.45321 0.62794 0.2025 0.0
C127 C 0.62004 0.45761 0.21757 0.0
H128 H 0.63795 0.89734 0.18355 0.0
H129 H 0.39368 0.25063 0.15247 0.0
H130 H 0.45246 0.70418 0.07704 0.0
H131 H 0.62063 0.48451 0.06043 0.0
C132 C 0.02171 1.00705 0.47049 0.0
C133 C 0.01917 0.09546 0.45187 0.0
H134 H 0.02749 0.93743 0.52026 0.0
C135 C 0.02161 0.18424 0.47027 0.0
H136 H 0.02074 0.9375 0.45698 0.0
C137 C 0.02569 0.1842 0.50679 0.0
C138 C 0.02846 0.09539 0.52525 0.0
H139 H 0.01935 0.2534 0.45653 0.0
H140 H 0.02768 0.25334 0.52048 0.0
C141 C 0.02626 1.00701 0.5067 0.0
C142 C 0.52568 0.68442 0.00659 0.0
C143 C 0.5286 0.59576 0.02514 0.0
H144 H 0.51908 0.75322 0.95629 0.0
C145 C 0.52636 0.50724 0.00667 0.0
H146 H 0.52768 0.75367 0.02021 0.0
C147 C 0.52165 0.50698 0.97048 0.0
C148 C 0.51898 0.59525 0.95178 0.0
H149 H 0.5277 0.43776 0.0203 0.0
H150 H 0.52068 0.43732 0.95704 0.0
C151 C 0.52143 0.68417 0.97009 0.0
C152 C 0.21177 0.20682 0.22802 0.0
C153 C 0.21973 0.17591 0.26261 0.0
H154 H 0.26214 0.27677 0.18168 0.0
C155 C 0.28534 0.19661 0.27763 0.0
H156 H 0.16198 0.19144 0.21572 0.0
C157 C 0.34203 0.24704 0.25831 0.0
C158 C 0.33476 0.27503 0.22338 0.0
H159 H 0.29285 0.17376 0.30427 0.0
H160 H 0.39232 0.26189 0.27023 0.0
C161 C 0.2691 0.25487 0.20847 0.0
C162 C 0.75224 0.38671 0.28377 0.0
C163 C 0.78772 0.30587 0.26708 0.0
H164 H 0.66944 0.49722 0.2815 0.0
C165 C 0.76288 0.27035 0.23578 0.0
H166 H 0.77049 0.41511 0.30799 0.0
C167 C 0.70646 0.3182 0.22036 0.0
C168 C 0.67263 0.4009 0.23642 0.0
H169 H 0.78974 0.20881 0.22226 0.0
H170 H 0.69041 0.29188 0.19539 0.0
C171 C 0.69442 0.43319 0.26877 0.0
C172 C 0.78477 0.77068 0.24149 0.0
C173 C 0.76021 0.80616 0.21007 0.0
H174 H 0.85702 0.79209 0.28195 0.0
C175 C 0.79591 0.88686 0.1933 0.0
H176 H 0.75774 0.70924 0.25508 0.0
C177 C 0.8537 0.93323 0.20831 0.0
C178 C 0.87525 0.90095 0.24075 0.0
H179 H 0.77788 0.91523 0.169 0.0
H180 H 0.87887 0.99713 0.1955 0.0
C181 C 0.84116 0.81841 0.25691 0.0
C182 C 0.27908 0.75483 0.26856 0.0
C183 C 0.21335 0.77499 0.25368 0.0
H184 H 0.38624 0.69154 0.26129 0.0
C185 C 0.20601 0.7472 0.21878 0.0
H186 H 0.28609 0.77657 0.29534 0.0
C187 C 0.26269 0.69693 0.19945 0.0
C188 C 0.32836 0.67621 0.21444 0.0
H189 H 0.15567 0.76205 0.20689 0.0
H190 H 0.25513 0.67422 0.17283 0.0
C191 C 0.3364 0.70695 0.249 0.0
C192 C 0.26218 0.76901 0.7359 0.0
C193 C 0.28728 0.80479 0.76712 0.0
H194 H 0.18946 0.79031 0.69561 0.0
C195 C 0.25201 0.88584 0.78375 0.0
H196 H 0.28889 0.70729 0.72243 0.0
C197 C 0.19412 0.93228 0.76879 0.0
C198 C 0.17207 0.89973 0.73652 0.0
H199 H 0.27047 0.91444 0.80789 0.0
H200 H 0.1693 0.99648 0.78147 0.0
C201 C 0.20571 0.81682 0.72052 0.0
C202 C 0.28407 0.26952 0.74161 0.0
C203 C 0.2594 0.30507 0.71022 0.0
H204 H 0.35646 0.29088 0.78201 0.0
C205 C 0.29502 0.38583 0.69345 0.0
H206 H 0.2571 0.20803 0.75519 0.0
C207 C 0.35285 0.43218 0.70843 0.0
C208 C 0.37452 0.39984 0.74084 0.0
H209 H 0.2769 0.41425 0.66918 0.0
H210 H 0.37797 0.49612 0.69562 0.0
C211 C 0.3405 0.31725 0.757 0.0
C212 C 0.83557 0.20517 0.7491 0.0
C213 C 0.82761 0.17457 0.71452 0.0
H214 H 0.78519 0.27471 0.79544 0.0
C215 C 0.762 0.19539 0.6995 0.0
H216 H 0.88537 0.18969 0.76141 0.0
C217 C 0.7053 0.24565 0.71882 0.0
C218 C 0.71257 0.27334 0.75373 0.0
H219 H 0.75449 0.17277 0.67286 0.0
H220 H 0.655 0.26061 0.70689 0.0
C221 C 0.77823 0.25305 0.76865 0.0
C222 C 0.78486 0.69509 0.77761 0.0
C223 C 0.71934 0.67421 0.76255 0.0
H224 H 0.8918 0.76054 0.77026 0.0
C225 C 0.71149 0.70488 0.72792 0.0
H226 H 0.79228 0.67243 0.80429 0.0
C227 C 0.76884 0.75293 0.70838 0.0
C228 C 0.83441 0.77331 0.72335 0.0
H229 H 0.66177 0.68936 0.71558 0.0
H230 H 0.76197 0.77467 0.68157 0.0
C231 C 0.84157 0.74552 0.7583 0.0
loop_
_geom_bond_atom_site_label_1
_geom_bond_atom_site_label_2
_geom_bond_distance
_geom_bond_site_symmetry_2
_ccdc_geom_bond_type
Co0 N4 2.139 1_465 S
Co0 N10 2.138 . S
Co0 N20 2.193 1_465 S
Co0 O25 2.340 1_455 S
Co0 O26 2.148 1_455 S
Co0 O27 2.104 1_565 S
C1 N4 1.301 . S
C1 N5 1.328 . S
C1 H6 0.930 . S
C2 C3 1.333 . S
C2 N4 1.317 . S
C2 H7 0.930 . S
C3 C2 1.333 . S
C3 N5 1.350 . S
C3 H29 0.931 . S
N4 Co0 2.139 1_645 S
N4 C1 1.301 . S
N4 C2 1.317 . S
N5 C1 1.328 . S
N5 C3 1.350 . S
H6 C1 0.930 . S
H7 C2 0.930 . S
C8 O9 1.224 . S
C8 O27 1.247 . S
O9 C8 1.224 . S
N10 Co0 2.138 . S
N10 C11 1.355 . S
N10 C13 1.311 . S
C11 N10 1.355 . S
C11 C12 1.363 . S
C11 H23 0.929 . S
C12 C11 1.363 . S
C12 N14 1.375 . S
C12 H30 0.931 . S
C13 N10 1.311 . S
C13 N14 1.347 . S
C13 H24 0.929 . S
N14 C12 1.375 . S
N14 C13 1.347 . S
C15 C18 1.365 . S
C15 N20 1.328 1_565 S
C15 H21 0.929 . S
C16 C17 1.362 . S
C16 C19 1.378 . S
C16 H31 0.929 . S
C17 C16 1.362 . S
C17 C18 1.366 1_445 S
C18 C15 1.365 . S
C18 C17 1.366 1_665 S
C18 H32 0.930 . S
C19 C16 1.378 . S
C19 N20 1.315 1_455 S
C19 H22 0.930 . S
N20 Co0 2.193 1_645 S
N20 C15 1.328 1_545 S
N20 C19 1.315 1_655 S
H21 C15 0.929 . S
H22 C19 0.930 . S
H23 C11 0.929 . S
H24 C13 0.929 . S
O25 Co0 2.340 1_655 S
O25 C28 1.244 . S
O26 Co0 2.148 1_655 S
O26 C28 1.240 . S
O27 Co0 2.104 1_545 S
O27 C8 1.247 . S
C28 O25 1.244 . S
C28 O26 1.240 . S
H29 C3 0.931 . S
H30 C12 0.931 . S
H31 C16 0.929 . S
H32 C18 0.930 . S
Co33 N37 2.148 1_565 S
Co33 N43 2.128 1_455 S
Co33 N53 2.194 1_565 S
Co33 O58 2.351 . S
Co33 O59 2.155 . S
Co33 O60 2.096 1_465 S
C34 N37 1.301 . S
C34 N38 1.328 . S
C34 H39 0.930 . S
C35 C36 1.333 . S
C35 N37 1.317 . S
C35 H40 0.930 . S
C36 C35 1.333 . S
C36 N38 1.350 . S
C36 H62 0.931 . S
N37 Co33 2.148 1_545 S
N37 C34 1.301 . S
N37 C35 1.317 . S
N38 C34 1.328 . S
N38 C36 1.350 . S
H39 C34 0.930 . S
H40 C35 0.930 . S
C41 O42 1.224 . S
C41 O60 1.247 . S
O42 C41 1.224 . S
N43 Co33 2.128 1_655 S
N43 C44 1.355 . S
N43 C46 1.311 . S
C44 N43 1.355 . S
C44 C45 1.363 . S
C44 H56 0.929 . S
C45 C44 1.363 . S
C45 N47 1.375 . S
C45 H63 0.931 . S
C46 N43 1.311 . S
C46 N47 1.347 . S
C46 H57 0.929 . S
N47 C45 1.375 . S
N47 C46 1.347 . S
C48 C51 1.365 . S
C48 N53 1.328 1_565 S
C48 H54 0.929 . S
C49 C50 1.362 1_655 S
C49 C52 1.378 . S
C49 H64 0.929 . S
C50 C49 1.362 1_455 S
C50 C51 1.366 1_545 S
C51 C48 1.365 . S
C51 C50 1.366 1_565 S
C51 H65 0.930 . S
C52 C49 1.378 . S
C52 N53 1.315 1_655 S
C52 H55 0.930 . S
N53 Co33 2.194 1_545 S
N53 C48 1.328 1_545 S
N53 C52 1.315 1_455 S
H54 C48 0.929 . S
H55 C52 0.930 . S
H56 C44 0.929 . S
H57 C46 0.929 . S
O58 Co33 2.351 . S
O58 C61 1.244 . S
O59 Co33 2.155 . S
O59 C61 1.240 . S
O60 Co33 2.096 1_645 S
O60 C41 1.247 . S
C61 O58 1.244 . S
C61 O59 1.240 . S
H62 C36 0.931 . S
H63 C45 0.931 . S
H64 C49 0.929 . S
H65 C51 0.930 . S
Co66 N70 2.148 . S
Co66 N76 2.128 . S
Co66 N86 2.194 . S
Co66 O91 2.351 . S
Co66 O92 2.155 . S
Co66 O93 2.096 . S
C67 N70 1.301 . S
C67 N71 1.328 . S
C67 H72 0.930 . S
C68 C69 1.333 . S
C68 N70 1.317 . S
C68 H73 0.930 . S
C69 C68 1.333 . S
C69 N71 1.350 . S
C69 H95 0.931 . S
N70 Co66 2.148 . S
N70 C67 1.301 . S
N70 C68 1.317 . S
N71 C67 1.328 . S
N71 C69 1.350 . S
H72 C67 0.930 . S
H73 C68 0.930 . S
C74 O75 1.224 . S
C74 O93 1.247 . S
O75 C74 1.224 . S
N76 Co66 2.128 . S
N76 C77 1.355 . S
N76 C79 1.311 . S
C77 N76 1.355 . S
C77 C78 1.363 . S
C77 H89 0.929 . S
C78 C77 1.363 . S
C78 N80 1.375 . S
C78 H96 0.931 . S
C79 N76 1.311 . S
C79 N80 1.347 . S
C79 H90 0.929 . S
N80 C78 1.375 . S
N80 C79 1.347 . S
C81 C84 1.365 . S
C81 N86 1.328 . S
C81 H87 0.929 . S
C82 C83 1.362 . S
C82 C85 1.378 . S
C82 H97 0.929 . S
C83 C82 1.362 . S
C83 C84 1.366 . S
C84 C81 1.365 . S
C84 C83 1.366 . S
C84 H98 0.930 . S
C85 C82 1.378 . S
C85 N86 1.315 . S
C85 H88 0.930 . S
N86 Co66 2.194 . S
N86 C81 1.328 . S
N86 C85 1.315 . S
H87 C81 0.929 . S
H88 C85 0.930 . S
H89 C77 0.929 . S
H90 C79 0.929 . S
O91 Co66 2.351 . S
O91 C94 1.244 . S
O92 Co66 2.155 . S
O92 C94 1.240 . S
O93 Co66 2.096 . S
O93 C74 1.247 . S
C94 O91 1.244 . S
C94 O92 1.240 . S
H95 C69 0.931 . S
H96 C78 0.931 . S
H97 C82 0.929 . S
H98 C84 0.930 . S
Co99 N103 2.148 . S
Co99 N109 2.128 . S
Co99 N119 2.194 . S
Co99 O124 2.351 . S
Co99 O125 2.155 . S
Co99 O126 2.096 . S
C100 N103 1.301 . S
C100 N104 1.328 . S
C100 H105 0.930 . S
C101 C102 1.333 . S
C101 N103 1.317 . S
C101 H106 0.930 . S
C102 C101 1.333 . S
C102 N104 1.350 . S
C102 H128 0.931 . S
N103 Co99 2.148 . S
N103 C100 1.301 . S
N103 C101 1.317 . S
N104 C100 1.328 . S
N104 C102 1.350 . S
H105 C100 0.930 . S
H106 C101 0.930 . S
C107 O108 1.224 . S
C107 O126 1.247 . S
O108 C107 1.224 . S
N109 Co99 2.128 . S
N109 C110 1.355 . S
N109 C112 1.311 . S
C110 N109 1.355 . S
C110 C111 1.363 . S
C110 H122 0.929 . S
C111 C110 1.363 . S
C111 N113 1.375 . S
C111 H129 0.931 . S
C112 N109 1.311 . S
C112 N113 1.347 . S
C112 H123 0.929 . S
N113 C111 1.375 . S
N113 C112 1.347 . S
C114 C117 1.365 . S
C114 N119 1.328 . S
C114 H120 0.929 . S
C115 C116 1.362 . S
C115 C118 1.378 . S
C115 H130 0.929 . S
C116 C115 1.362 . S
C116 C117 1.366 . S
C117 C114 1.365 . S
C117 C116 1.366 . S
C117 H131 0.930 . S
C118 C115 1.378 . S
C118 N119 1.315 . S
C118 H121 0.930 . S
N119 Co99 2.194 . S
N119 C114 1.328 . S
N119 C118 1.315 . S
H120 C114 0.929 . S
H121 C118 0.930 . S
H122 C110 0.929 . S
H123 C112 0.929 . S
O124 Co99 2.351 . S
O124 C127 1.244 . S
O125 Co99 2.155 . S
O125 C127 1.240 . S
O126 Co99 2.096 . S
O126 C107 1.247 . S
C127 O124 1.244 . S
C127 O125 1.240 . S
H128 C102 0.931 . S
H129 C111 0.931 . S
H130 C115 0.929 . S
H131 C117 0.930 . S
C132 C133 1.387 1_565 S
C132 H136 0.950 . S
C132 C141 1.390 . S
C133 C132 1.387 1_545 S
C133 C135 1.387 . S
H134 C141 0.950 . S
C135 C133 1.387 . S
C135 C137 1.390 . S
C135 H139 0.950 . S
H136 C132 0.950 . S
C137 C135 1.390 . S
C137 C138 1.387 . S
C137 H140 0.950 . S
C138 C137 1.387 . S
C138 C141 1.387 1_545 S
H139 C135 0.950 . S
H140 C137 0.950 . S
C141 C132 1.390 . S
C141 H134 0.950 . S
C141 C138 1.387 1_565 S
C142 C143 1.387 . S
C142 H146 0.950 . S
C142 C151 1.390 1_554 S
C143 C142 1.387 . S
C143 C145 1.387 . S
H144 C151 0.950 . S
C145 C143 1.387 . S
C145 C147 1.390 1_554 S
C145 H149 0.950 . S
H146 C142 0.950 . S
C147 C145 1.390 1_556 S
C147 C148 1.387 . S
C147 H150 0.950 . S
C148 C147 1.387 . S
C148 C151 1.387 . S
H149 C145 0.950 . S
H150 C147 0.950 . S
C151 C142 1.390 1_556 S
C151 H144 0.950 . S
C151 C148 1.387 . S
C152 C153 1.387 . S
C152 H156 0.950 . S
C152 C161 1.390 . S
C153 C152 1.387 . S
C153 C155 1.387 . S
H154 C161 0.950 . S
C155 C153 1.387 . S
C155 C157 1.390 . S
C155 H159 0.950 . S
H156 C152 0.950 . S
C157 C155 1.390 . S
C157 C158 1.387 . S
C157 H160 0.950 . S
C158 C157 1.387 . S
C158 C161 1.387 . S
H159 C155 0.950 . S
H160 C157 0.950 . S
C161 C152 1.390 . S
C161 H154 0.950 . S
C161 C158 1.387 . S
C162 C163 1.387 . S
C162 H166 0.950 . S
C162 C171 1.390 . S
C163 C162 1.387 . S
C163 C165 1.387 . S
H164 C171 0.950 . S
C165 C163 1.387 . S
C165 C167 1.390 . S
C165 H169 0.950 . S
H166 C162 0.950 . S
C167 C165 1.390 . S
C167 C168 1.387 . S
C167 H170 0.950 . S
C168 C167 1.387 . S
C168 C171 1.387 . S
H169 C165 0.950 . S
H170 C167 0.950 . S
C171 C162 1.390 . S
C171 H164 0.950 . S
C171 C168 1.387 . S
C172 C173 1.387 . S
C172 H176 0.950 . S
C172 C181 1.390 . S
C173 C172 1.387 . S
C173 C175 1.387 . S
H174 C181 0.950 . S
C175 C173 1.387 . S
C175 C177 1.390 . S
C175 H179 0.950 . S
H176 C172 0.950 . S
C177 C175 1.390 . S
C177 C178 1.387 . S
C177 H180 0.950 . S
C178 C177 1.387 . S
C178 C181 1.387 . S
H179 C175 0.950 . S
H180 C177 0.950 . S
C181 C172 1.390 . S
C181 H174 0.950 . S
C181 C178 1.387 . S
C182 C183 1.387 . S
C182 H186 0.950 . S
C182 C191 1.390 . S
C183 C182 1.387 . S
C183 C185 1.387 . S
H184 C191 0.950 . S
C185 C183 1.387 . S
C185 C187 1.390 . S
C185 H189 0.950 . S
H186 C182 0.950 . S
C187 C185 1.390 . S
C187 C188 1.387 . S
C187 H190 0.950 . S
C188 C187 1.387 . S
C188 C191 1.387 . S
H189 C185 0.950 . S
H190 C187 0.950 . S
C191 C182 1.390 . S
C191 H184 0.950 . S
C191 C188 1.387 . S
C192 C193 1.387 . S
C192 H196 0.950 . S
C192 C201 1.390 . S
C193 C192 1.387 . S
C193 C195 1.387 . S
H194 C201 0.950 . S
C195 C193 1.387 . S
C195 C197 1.390 . S
C195 H199 0.950 . S
H196 C192 0.950 . S
C197 C195 1.390 . S
C197 C198 1.387 . S
C197 H200 0.950 . S
C198 C197 1.387 . S
C198 C201 1.387 . S
H199 C195 0.950 . S
H200 C197 0.950 . S
C201 C192 1.390 . S
C201 H194 0.950 . S
C201 C198 1.387 . S
C202 C203 1.387 . S
C202 H206 0.950 . S
C202 C211 1.390 . S
C203 C202 1.387 . S
C203 C205 1.387 . S
H204 C211 0.950 . S
C205 C203 1.387 . S
C205 C207 1.390 . S
C205 H209 0.950 . S
H206 C202 0.950 . S
C207 C205 1.390 . S
C207 C208 1.387 . S
C207 H210 0.950 . S
C208 C207 1.387 . S
C208 C211 1.387 . S
H209 C205 0.950 . S
H210 C207 0.950 . S
C211 C202 1.390 . S
C211 H204 0.950 . S
C211 C208 1.387 . S
C212 C213 1.387 . S
C212 H216 0.950 . S
C212 C221 1.390 . S
C213 C212 1.387 . S
C213 C215 1.387 . S
H214 C221 0.950 . S
C215 C213 1.387 . S
C215 C217 1.390 . S
C215 H219 0.950 . S
H216 C212 0.950 . S
C217 C215 1.390 . S
C217 C218 1.387 . S
C217 H220 0.950 . S
C218 C217 1.387 . S
C218 C221 1.387 . S
H219 C215 0.950 . S
H220 C217 0.950 . S
C221 C212 1.390 . S
C221 H214 0.950 . S
C221 C218 1.387 . S
C222 C223 1.387 . S
C222 H226 0.950 . S
C222 C231 1.390 . S
C223 C222 1.387 . S
C223 C225 1.387 . S
H224 C231 0.950 . S
C225 C223 1.387 . S
C225 C227 1.390 . S
C225 H229 0.950 . S
H226 C222 0.950 . S
C227 C225 1.390 . S
C227 C228 1.387 . S
C227 H230 0.950 . S
C228 C227 1.387 . S
C228 C231 1.387 . S
H229 C225 0.950 . S
H230 C227 0.950 . S
C231 C222 1.390 . S
C231 H224 0.950 . S
C231 C228 1.387 . S
C133 C17 1.491 . S
C138 C50 1.491 . S
C143 C116 1.491 . S
C148 C83 1.491 . S
C153 C8 1.543 . S
C158 N113 1.517 . S
C163 N5 1.419 . S
C168 C127 1.499 . S
C173 N104 1.416 . S
C178 C28 1.501 . S
C183 N14 1.517 . S
C188 C107 1.543 . S
C193 N71 1.415 . S
C198 C61 1.501 . S
C203 N38 1.417 . S
C208 C94 1.499 . S
C213 C41 1.542 . S
C218 N80 1.517 . S
C223 C74 1.543 . S
C228 N47 1.516 . S
