# Generated by pormake.
# Topology uop, (4)-cn, num edge types: 1
# Building blocks:
#     Node 0, Type 0, BuildingBlock: QUQFOY_clean_sbu_1, # of connection points: 4
#     Node 1, Type 0, BuildingBlock: QUQFOY_clean_sbu_1, # of connection points: 4
#     Node 2, Type 0, BuildingBlock: QUQFOY_clean_sbu_1, # of connection points: 4
#     Node 3, Type 0, BuildingBlock: QUQFOY_clean_sbu_1, # of connection points: 4
#     Node 4, Type 0, BuildingBlock: QUQFOY_clean_sbu_1, # of connection points: 4
#     Node 5, Type 0, BuildingBlock: QUQFOY_clean_sbu_1, # of connection points: 4
#     Node 6, Type 0, BuildingBlock: QUQFOY_clean_sbu_1, # of connection points: 4
#     Node 7, Type 0, BuildingBlock: QUQFOY_clean_sbu_1, # of connection points: 4
#     Node 8, Type 0, BuildingBlock: QUQFOY_clean_sbu_1, # of connection points: 4
#     Node 9, Type 0, BuildingBlock: QUQFOY_clean_sbu_1, # of connection points: 4
#     Node 10, Type 0, BuildingBlock: QUQFOY_clean_sbu_1, # of connection points: 4
#     Node 11, Type 0, BuildingBlock: QUQFOY_clean_sbu_1, # of connection points: 4
#     Edge 12, Type (0, 0), None
#     Edge 13, Type (0, 0), None
#     Edge 14, Type (0, 0), None
#     Edge 15, Type (0, 0), None
#     Edge 16, Type (0, 0), None
#     Edge 17, Type (0, 0), None
#     Edge 18, Type (0, 0), None
#     Edge 19, Type (0, 0), None
#     Edge 20, Type (0, 0), None
#     Edge 21, Type (0, 0), None
#     Edge 22, Type (0, 0), None
#     Edge 23, Type (0, 0), None
#     Edge 24, Type (0, 0), None
#     Edge 25, Type (0, 0), None
#     Edge 26, Type (0, 0), None
#     Edge 27, Type (0, 0), None
#     Edge 28, Type (0, 0), None
#     Edge 29, Type (0, 0), None
#     Edge 30, Type (0, 0), None
#     Edge 31, Type (0, 0), None
#     Edge 32, Type (0, 0), None
#     Edge 33, Type (0, 0), None
#     Edge 34, Type (0, 0), None
#     Edge 35, Type (0, 0), None
# Relax obj value: 0.099
# Max RMSD: 0.113
# Mean RMSD: 0.113
data_MOF--net-uop--node1-QUQFOY_clean_sbu_1--edge1-none
_symmetry_space_group_name_H-M    P1
_symmetry_Int_Tables_number       1
_symmetry_cell_setting            triclinic
loop_
_symmetry_equiv_pos_as_xyz
'x, y, z'
_cell_length_a     14.796955
_cell_length_b     14.797204
_cell_length_c     22.368454
_cell_angle_alpha  89.999438
_cell_angle_beta   90.000275
_cell_angle_gamma 120.00184
loop_
_atom_site_label
_atom_site_type_symbol
_atom_site_fract_x
_atom_site_fract_y
_atom_site_fract_z
_atom_type_partial_charge
O0 O 0.23451 0.52107 0.26333 0.0
Cd1 Cd 0.24381 0.38824 0.27494 0.0
Cd2 Cd 0.32368 0.47804 0.36952 0.0
O3 O 0.2217 0.53462 0.36049 0.0
O4 O 0.11477 0.26509 0.24213 0.0
O5 O 0.14398 0.30027 0.33892 0.0
C6 C 0.08057 0.24641 0.29662 0.0
C7 C 0.35762 0.39261 0.44762 0.0
C8 C 0.21469 0.56238 0.30747 0.0
C9 C 0.46993 0.50358 0.28164 0.0
O10 O 0.4496 0.55961 0.31529 0.0
O11 O 0.39624 0.41201 0.26833 0.0
O12 O 0.3779 0.48777 0.4527 0.0
O13 O 0.31014 0.34194 0.40006 0.0
O14 O 0.7296 0.22644 0.59665 0.0
Cd15 Cd 0.87173 0.23575 0.60827 0.0
Cd16 Cd 0.86179 0.31561 0.70285 0.0
O17 O 0.70324 0.21363 0.69382 0.0
O18 O 0.86586 0.10672 0.57545 0.0
O19 O 0.85988 0.13592 0.67225 0.0
C20 C 0.85033 0.07251 0.62995 0.0
C21 C 0.98117 0.34955 0.78095 0.0
C22 C 0.66846 0.20661 0.64079 0.0
C23 C 0.98251 0.46186 0.61497 0.0
O24 O 0.90615 0.44153 0.64862 0.0
O25 O 1.0004 0.38819 0.60166 0.0
O26 O 0.90628 0.36982 0.78603 0.0
O27 O 0.98437 0.30208 0.73339 0.0
O28 O 0.51931 0.72153 0.92999 0.0
Cd29 Cd 0.65214 0.86366 0.94161 0.0
Cd30 Cd 0.56233 0.85372 1.03618 0.0
O31 O 0.50576 0.69517 1.02716 0.0
O32 O 0.7753 0.85779 0.90879 0.0
O33 O 0.74012 0.85181 1.00559 0.0
C34 C 0.79397 0.84226 0.96329 0.0
C35 C 0.64776 0.97309 1.11429 0.0
C36 C 0.47801 0.6604 0.97413 0.0
C37 C 0.53679 0.97443 0.94831 0.0
O38 O 0.48076 0.89807 0.98196 0.0
O39 O 0.62836 0.99233 0.935 0.0
O40 O 0.5526 0.89819 1.11937 0.0
O41 O 0.69844 0.9763 1.06672 0.0
O42 O 0.81393 0.51122 0.26333 0.0
Cd43 Cd 0.80461 0.64404 0.27493 0.0
Cd44 Cd 0.72476 0.55423 0.36953 0.0
O45 O 0.82675 0.49768 0.3605 0.0
O46 O 0.93364 0.76719 0.24212 0.0
O47 O 0.90443 0.73202 0.33891 0.0
C48 C 0.96785 0.78587 0.29661 0.0
C49 C 0.69083 0.63968 0.44764 0.0
C50 C 0.83376 0.46992 0.30747 0.0
C51 C 0.57852 0.52866 0.28164 0.0
O52 O 0.59881 0.47264 0.31533 0.0
O53 O 0.65217 0.62023 0.26831 0.0
O54 O 0.67058 0.54452 0.45273 0.0
O55 O 0.73828 0.69033 0.40006 0.0
O56 O 0.31888 0.80587 0.59667 0.0
Cd57 Cd 0.17674 0.79655 0.60827 0.0
Cd58 Cd 0.18669 0.71669 0.70287 0.0
O59 O 0.34524 0.81868 0.69384 0.0
O60 O 0.18262 0.92558 0.57545 0.0
O61 O 0.18857 0.89637 0.67225 0.0
C62 C 0.19814 0.95978 0.62995 0.0
C63 C 0.06731 0.68276 0.78097 0.0
C64 C 0.38001 0.82569 0.64081 0.0
C65 C 0.06602 0.57046 0.61498 0.0
O66 O 0.14233 0.59075 0.64866 0.0
O67 O 0.0481 0.64411 0.60165 0.0
O68 O 0.14222 0.66251 0.78607 0.0
O69 O 0.06411 0.73021 0.7334 0.0
O70 O 0.52916 0.31079 0.93 0.0
Cd71 Cd 0.39633 0.16866 0.94161 0.0
Cd72 Cd 0.48615 0.17861 1.03621 0.0
O73 O 0.54271 0.33716 1.02717 0.0
O74 O 0.27318 0.17454 0.90879 0.0
O75 O 0.30834 0.18049 1.00559 0.0
C76 C 0.25449 0.19006 0.96329 0.0
C77 C 0.4007 0.05923 1.11431 0.0
C78 C 0.57046 0.37193 0.97414 0.0
C79 C 0.5117 0.05794 0.94832 0.0
O80 O 0.56773 0.13426 0.98199 0.0
O81 O 0.42013 0.04001 0.93499 0.0
O82 O 0.49586 0.13413 1.1194 0.0
O83 O 0.35004 0.05603 1.06674 0.0
O84 O 0.51933 0.80587 0.67545 0.0
Cd85 Cd 0.65215 0.79656 0.66384 0.0
Cd86 Cd 0.56234 0.71668 0.56925 0.0
O87 O 0.50576 0.81866 0.57827 0.0
O88 O 0.7753 0.92558 0.69666 0.0
O89 O 0.74012 0.89637 0.59985 0.0
C90 C 0.79395 0.95977 0.64216 0.0
C91 C 0.64777 0.68272 0.49116 0.0
C92 C 0.47804 0.82569 0.6313 0.0
C93 C 0.53679 0.57043 0.65713 0.0
O94 O 0.48076 0.59076 0.62348 0.0
O95 O 0.62836 0.64411 0.67045 0.0
O96 O 0.55262 0.66246 0.48606 0.0
O97 O 0.69845 0.73021 0.53872 0.0
O98 O 0.72961 0.51125 1.00878 0.0
Cd99 Cd 0.87174 0.64407 0.99717 0.0
Cd100 Cd 0.8618 0.55426 0.90258 0.0
O101 O 0.70325 0.49768 0.9116 0.0
O102 O 0.86587 0.76722 1.02999 0.0
O103 O 0.85989 0.73204 0.93318 0.0
C104 C 0.85033 0.78588 0.97549 0.0
C105 C 0.98121 0.6397 0.8245 0.0
C106 C 0.66849 0.46996 0.96463 0.0
C107 C 0.98251 0.52872 0.99047 0.0
O108 O 0.90615 0.47269 0.95682 0.0
O109 O 1.0004 0.62028 1.00378 0.0
O110 O 0.90631 0.54454 0.8194 0.0
O111 O 0.98439 0.69037 0.87206 0.0
O112 O 0.23449 0.72151 0.34211 0.0
Cd113 Cd 0.2438 0.86364 0.3305 0.0
Cd114 Cd 0.32368 0.85372 0.23592 0.0
O115 O 0.22171 0.69516 0.24493 0.0
O116 O 0.11478 0.85776 0.36333 0.0
O117 O 0.14399 0.8518 0.26652 0.0
C118 C 0.08059 0.84223 0.30883 0.0
C119 C 0.35765 0.97313 0.15783 0.0
C120 C 0.21468 0.6604 0.29796 0.0
C121 C 0.46992 0.97442 0.3238 0.0
O122 O 0.4496 0.89807 0.29015 0.0
O123 O 0.39625 0.9923 0.33711 0.0
O124 O 0.37792 0.89824 0.15273 0.0
O125 O 0.31015 0.9763 0.20539 0.0
O126 O 0.52914 0.22642 0.67543 0.0
Cd127 Cd 0.39632 0.23574 0.66383 0.0
Cd128 Cd 0.48614 0.31562 0.56923 0.0
O129 O 0.54271 0.21364 0.57825 0.0
O130 O 0.27318 0.10672 0.69666 0.0
O131 O 0.30834 0.13593 0.59985 0.0
C132 C 0.25451 0.07253 0.64216 0.0
C133 C 0.40069 0.34957 0.49114 0.0
C134 C 0.57043 0.2066 0.63128 0.0
C135 C 0.5117 0.46184 0.65713 0.0
O136 O 0.56773 0.44155 0.62344 0.0
O137 O 0.42013 0.38819 0.67046 0.0
O138 O 0.49584 0.36982 0.48604 0.0
O139 O 0.35003 0.30209 0.53871 0.0
O140 O 0.31887 0.52107 1.00877 0.0
Cd141 Cd 0.17673 0.38825 0.99716 0.0
Cd142 Cd 0.18668 0.47807 0.90256 0.0
O143 O 0.34523 0.53464 0.91159 0.0
O144 O 0.18261 0.2651 1.02999 0.0
O145 O 0.18856 0.30026 0.93318 0.0
C146 C 0.19813 0.24644 0.97549 0.0
C147 C 0.06727 0.39262 0.82447 0.0
C148 C 0.37999 0.56236 0.96462 0.0
C149 C 0.06602 0.50363 0.99046 0.0
O150 O 0.14233 0.55965 0.95678 0.0
O151 O 0.04809 0.41206 1.00379 0.0
O152 O 0.14218 0.48777 0.81937 0.0
O153 O 0.06409 0.34196 0.87204 0.0
O154 O 0.81395 0.31079 0.34211 0.0
Cd155 Cd 0.80462 0.16865 0.33051 0.0
Cd156 Cd 0.72475 0.17859 0.2359 0.0
O157 O 0.82674 0.33714 0.24493 0.0
O158 O 0.93364 0.17452 0.36333 0.0
O159 O 0.90443 0.18048 0.26652 0.0
C160 C 0.96783 0.19004 0.30883 0.0
C161 C 0.6908 0.05919 0.15781 0.0
C162 C 0.83377 0.3719 0.29796 0.0
C163 C 0.57852 0.05793 0.3238 0.0
O164 O 0.59881 0.13424 0.29011 0.0
O165 O 0.65217 0.04001 0.33714 0.0
O166 O 0.67056 0.1341 0.15271 0.0
O167 O 0.73827 0.056 0.20538 0.0
loop_
_geom_bond_atom_site_label_1
_geom_bond_atom_site_label_2
_geom_bond_distance
_geom_bond_site_symmetry_2
_ccdc_geom_bond_type
O0 Cd1 2.223 . S
O0 C8 1.315 . S
Cd1 O0 2.223 . S
Cd1 O4 2.297 . S
Cd1 O5 2.439 . S
Cd1 O11 2.240 . S
Cd2 O3 2.240 . S
Cd2 O10 2.223 . S
Cd2 O12 2.297 . S
Cd2 O13 2.439 . S
O3 Cd2 2.240 . S
O3 C8 1.279 . S
O4 Cd1 2.297 . S
O4 C6 1.247 . S
O5 Cd1 2.439 . S
O5 C6 1.208 . S
C6 O4 1.247 . S
C6 O5 1.208 . S
C7 O12 1.247 . S
C7 O13 1.208 . S
C8 O0 1.315 . S
C8 O3 1.279 . S
C9 O10 1.315 . S
C9 O11 1.279 . S
O10 Cd2 2.223 . S
O10 C9 1.315 . S
O11 Cd1 2.240 . S
O11 C9 1.279 . S
O12 Cd2 2.297 . S
O12 C7 1.247 . S
O13 Cd2 2.439 . S
O13 C7 1.208 . S
O14 Cd15 2.223 . S
O14 C22 1.315 . S
Cd15 O14 2.223 . S
Cd15 O18 2.297 . S
Cd15 O19 2.439 . S
Cd15 O25 2.240 . S
Cd16 O17 2.240 . S
Cd16 O24 2.223 . S
Cd16 O26 2.297 . S
Cd16 O27 2.439 . S
O17 Cd16 2.240 . S
O17 C22 1.279 . S
O18 Cd15 2.297 . S
O18 C20 1.247 . S
O19 Cd15 2.439 . S
O19 C20 1.208 . S
C20 O18 1.247 . S
C20 O19 1.208 . S
C21 O26 1.247 . S
C21 O27 1.208 . S
C22 O14 1.315 . S
C22 O17 1.279 . S
C23 O24 1.315 . S
C23 O25 1.279 . S
O24 Cd16 2.223 . S
O24 C23 1.315 . S
O25 Cd15 2.240 . S
O25 C23 1.279 . S
O26 Cd16 2.297 . S
O26 C21 1.247 . S
O27 Cd16 2.439 . S
O27 C21 1.208 . S
O28 Cd29 2.223 . S
O28 C36 1.315 . S
Cd29 O28 2.223 . S
Cd29 O32 2.297 . S
Cd29 O33 2.439 . S
Cd29 O39 2.240 . S
Cd30 O31 2.240 . S
Cd30 O38 2.223 . S
Cd30 O40 2.297 . S
Cd30 O41 2.439 . S
O31 Cd30 2.240 . S
O31 C36 1.279 . S
O32 Cd29 2.297 . S
O32 C34 1.247 . S
O33 Cd29 2.439 . S
O33 C34 1.208 . S
C34 O32 1.247 . S
C34 O33 1.208 . S
C35 O40 1.247 . S
C35 O41 1.208 . S
C36 O28 1.315 . S
C36 O31 1.279 . S
C37 O38 1.315 . S
C37 O39 1.279 . S
O38 Cd30 2.223 . S
O38 C37 1.315 . S
O39 Cd29 2.240 . S
O39 C37 1.279 . S
O40 Cd30 2.297 . S
O40 C35 1.247 . S
O41 Cd30 2.439 . S
O41 C35 1.208 . S
O42 Cd43 2.223 . S
O42 C50 1.315 . S
Cd43 O42 2.223 . S
Cd43 O46 2.297 . S
Cd43 O47 2.439 . S
Cd43 O53 2.240 . S
Cd44 O45 2.240 . S
Cd44 O52 2.223 . S
Cd44 O54 2.297 . S
Cd44 O55 2.439 . S
O45 Cd44 2.240 . S
O45 C50 1.279 . S
O46 Cd43 2.297 . S
O46 C48 1.247 . S
O47 Cd43 2.439 . S
O47 C48 1.208 . S
C48 O46 1.247 . S
C48 O47 1.208 . S
C49 O54 1.247 . S
C49 O55 1.208 . S
C50 O42 1.315 . S
C50 O45 1.279 . S
C51 O52 1.315 . S
C51 O53 1.279 . S
O52 Cd44 2.223 . S
O52 C51 1.315 . S
O53 Cd43 2.240 . S
O53 C51 1.279 . S
O54 Cd44 2.297 . S
O54 C49 1.247 . S
O55 Cd44 2.439 . S
O55 C49 1.208 . S
O56 Cd57 2.223 . S
O56 C64 1.315 . S
Cd57 O56 2.223 . S
Cd57 O60 2.297 . S
Cd57 O61 2.439 . S
Cd57 O67 2.240 . S
Cd58 O59 2.240 . S
Cd58 O66 2.223 . S
Cd58 O68 2.297 . S
Cd58 O69 2.439 . S
O59 Cd58 2.240 . S
O59 C64 1.279 . S
O60 Cd57 2.297 . S
O60 C62 1.247 . S
O61 Cd57 2.439 . S
O61 C62 1.208 . S
C62 O60 1.247 . S
C62 O61 1.208 . S
C63 O68 1.247 . S
C63 O69 1.208 . S
C64 O56 1.315 . S
C64 O59 1.279 . S
C65 O66 1.315 . S
C65 O67 1.279 . S
O66 Cd58 2.223 . S
O66 C65 1.315 . S
O67 Cd57 2.240 . S
O67 C65 1.279 . S
O68 Cd58 2.297 . S
O68 C63 1.247 . S
O69 Cd58 2.439 . S
O69 C63 1.208 . S
O70 Cd71 2.223 . S
O70 C78 1.315 . S
Cd71 O70 2.223 . S
Cd71 O74 2.297 . S
Cd71 O75 2.439 . S
Cd71 O81 2.240 . S
Cd72 O73 2.240 . S
Cd72 O80 2.223 . S
Cd72 O82 2.297 . S
Cd72 O83 2.439 . S
O73 Cd72 2.240 . S
O73 C78 1.279 . S
O74 Cd71 2.297 . S
O74 C76 1.247 . S
O75 Cd71 2.439 . S
O75 C76 1.208 . S
C76 O74 1.247 . S
C76 O75 1.208 . S
C77 O82 1.247 . S
C77 O83 1.208 . S
C78 O70 1.315 . S
C78 O73 1.279 . S
C79 O80 1.315 . S
C79 O81 1.279 . S
O80 Cd72 2.223 . S
O80 C79 1.315 . S
O81 Cd71 2.240 . S
O81 C79 1.279 . S
O82 Cd72 2.297 . S
O82 C77 1.247 . S
O83 Cd72 2.439 . S
O83 C77 1.208 . S
O84 Cd85 2.223 . S
O84 C92 1.315 . S
Cd85 O84 2.223 . S
Cd85 O88 2.297 . S
Cd85 O89 2.439 . S
Cd85 O95 2.240 . S
Cd86 O87 2.240 . S
Cd86 O94 2.223 . S
Cd86 O96 2.297 . S
Cd86 O97 2.439 . S
O87 Cd86 2.240 . S
O87 C92 1.279 . S
O88 Cd85 2.297 . S
O88 C90 1.247 . S
O89 Cd85 2.439 . S
O89 C90 1.208 . S
C90 O88 1.247 . S
C90 O89 1.208 . S
C91 O96 1.247 . S
C91 O97 1.208 . S
C92 O84 1.315 . S
C92 O87 1.279 . S
C93 O94 1.315 . S
C93 O95 1.279 . S
O94 Cd86 2.223 . S
O94 C93 1.315 . S
O95 Cd85 2.240 . S
O95 C93 1.279 . S
O96 Cd86 2.297 . S
O96 C91 1.247 . S
O97 Cd86 2.439 . S
O97 C91 1.208 . S
O98 Cd99 2.223 . S
O98 C106 1.315 . S
Cd99 O98 2.223 . S
Cd99 O102 2.297 . S
Cd99 O103 2.439 . S
Cd99 O109 2.240 . S
Cd100 O101 2.240 . S
Cd100 O108 2.223 . S
Cd100 O110 2.297 . S
Cd100 O111 2.439 . S
O101 Cd100 2.240 . S
O101 C106 1.279 . S
O102 Cd99 2.297 . S
O102 C104 1.247 . S
O103 Cd99 2.439 . S
O103 C104 1.208 . S
C104 O102 1.247 . S
C104 O103 1.208 . S
C105 O110 1.247 . S
C105 O111 1.208 . S
C106 O98 1.315 . S
C106 O101 1.279 . S
C107 O108 1.315 . S
C107 O109 1.279 . S
O108 Cd100 2.223 . S
O108 C107 1.315 . S
O109 Cd99 2.240 . S
O109 C107 1.279 . S
O110 Cd100 2.297 . S
O110 C105 1.247 . S
O111 Cd100 2.439 . S
O111 C105 1.208 . S
O112 Cd113 2.223 . S
O112 C120 1.315 . S
Cd113 O112 2.223 . S
Cd113 O116 2.297 . S
Cd113 O117 2.439 . S
Cd113 O123 2.240 . S
Cd114 O115 2.240 . S
Cd114 O122 2.223 . S
Cd114 O124 2.297 . S
Cd114 O125 2.439 . S
O115 Cd114 2.240 . S
O115 C120 1.279 . S
O116 Cd113 2.297 . S
O116 C118 1.247 . S
O117 Cd113 2.439 . S
O117 C118 1.208 . S
C118 O116 1.247 . S
C118 O117 1.208 . S
C119 O124 1.247 . S
C119 O125 1.208 . S
C120 O112 1.315 . S
C120 O115 1.279 . S
C121 O122 1.315 . S
C121 O123 1.279 . S
O122 Cd114 2.223 . S
O122 C121 1.315 . S
O123 Cd113 2.240 . S
O123 C121 1.279 . S
O124 Cd114 2.297 . S
O124 C119 1.247 . S
O125 Cd114 2.439 . S
O125 C119 1.208 . S
O126 Cd127 2.223 . S
O126 C134 1.315 . S
Cd127 O126 2.223 . S
Cd127 O130 2.297 . S
Cd127 O131 2.439 . S
Cd127 O137 2.240 . S
Cd128 O129 2.240 . S
Cd128 O136 2.223 . S
Cd128 O138 2.297 . S
Cd128 O139 2.439 . S
O129 Cd128 2.240 . S
O129 C134 1.279 . S
O130 Cd127 2.297 . S
O130 C132 1.247 . S
O131 Cd127 2.439 . S
O131 C132 1.208 . S
C132 O130 1.247 . S
C132 O131 1.208 . S
C133 O138 1.247 . S
C133 O139 1.208 . S
C134 O126 1.315 . S
C134 O129 1.279 . S
C135 O136 1.315 . S
C135 O137 1.279 . S
O136 Cd128 2.223 . S
O136 C135 1.315 . S
O137 Cd127 2.240 . S
O137 C135 1.279 . S
O138 Cd128 2.297 . S
O138 C133 1.247 . S
O139 Cd128 2.439 . S
O139 C133 1.208 . S
O140 Cd141 2.223 . S
O140 C148 1.315 . S
Cd141 O140 2.223 . S
Cd141 O144 2.297 . S
Cd141 O145 2.439 . S
Cd141 O151 2.240 . S
Cd142 O143 2.240 . S
Cd142 O150 2.223 . S
Cd142 O152 2.297 . S
Cd142 O153 2.439 . S
O143 Cd142 2.240 . S
O143 C148 1.279 . S
O144 Cd141 2.297 . S
O144 C146 1.247 . S
O145 Cd141 2.439 . S
O145 C146 1.208 . S
C146 O144 1.247 . S
C146 O145 1.208 . S
C147 O152 1.247 . S
C147 O153 1.208 . S
C148 O140 1.315 . S
C148 O143 1.279 . S
C149 O150 1.315 . S
C149 O151 1.279 . S
O150 Cd142 2.223 . S
O150 C149 1.315 . S
O151 Cd141 2.240 . S
O151 C149 1.279 . S
O152 Cd142 2.297 . S
O152 C147 1.247 . S
O153 Cd142 2.439 . S
O153 C147 1.208 . S
O154 Cd155 2.223 . S
O154 C162 1.315 . S
Cd155 O154 2.223 . S
Cd155 O158 2.297 . S
Cd155 O159 2.439 . S
Cd155 O165 2.240 . S
Cd156 O157 2.240 . S
Cd156 O164 2.223 . S
Cd156 O166 2.297 . S
Cd156 O167 2.439 . S
O157 Cd156 2.240 . S
O157 C162 1.279 . S
O158 Cd155 2.297 . S
O158 C160 1.247 . S
O159 Cd155 2.439 . S
O159 C160 1.208 . S
C160 O158 1.247 . S
C160 O159 1.208 . S
C161 O166 1.247 . S
C161 O167 1.208 . S
C162 O154 1.315 . S
C162 O157 1.279 . S
C163 O164 1.315 . S
C163 O165 1.279 . S
O164 Cd156 2.223 . S
O164 C163 1.315 . S
O165 Cd155 2.240 . S
O165 C163 1.279 . S
O166 Cd156 2.297 . S
O166 C161 1.247 . S
O167 Cd156 2.439 . S
O167 C161 1.208 . S
C120 C8 2.529 . S
C22 C134 2.529 . S
C36 C148 2.529 . S
C50 C162 2.529 . S
C92 C64 2.529 . S
C78 C106 2.529 . S
C51 C9 0.510 . S
C65 C23 0.510 1_455 S
C79 C37 0.510 1_545 S
C93 C135 0.510 . S
C107 C149 0.510 1_655 S
C121 C163 0.510 1_565 S
C7 C133 1.406 . S
C21 C147 1.406 1_655 S
C35 C161 1.406 1_566 S
C91 C49 1.406 . S
C63 C105 1.406 1_455 S
C119 C77 1.406 1_564 S
C160 C6 1.952 1_655 S
C20 C90 1.952 1_545 S
C104 C34 1.952 . S
C48 C118 1.952 1_655 S
C62 C132 1.952 1_565 S
C146 C76 1.952 . S
