# Generated by pormake.
# Topology acs, (6)-cn, num edge types: 1
# Building blocks:
#     Node 0, Type 0, BuildingBlock: OJICUG_clean_sbu_0, # of connection points: 6
#     Node 1, Type 0, BuildingBlock: OJICUG_clean_sbu_0, # of connection points: 6
#     Edge 2, Type (0, 0), BuildingBlock: XIVTED_clean_linker_0, # of connection points: 2
#     Edge 3, Type (0, 0), BuildingBlock: XIVTED_clean_linker_0, # of connection points: 2
#     Edge 4, Type (0, 0), BuildingBlock: XIVTED_clean_linker_0, # of connection points: 2
#     Edge 5, Type (0, 0), BuildingBlock: XIVTED_clean_linker_0, # of connection points: 2
#     Edge 6, Type (0, 0), BuildingBlock: XIVTED_clean_linker_0, # of connection points: 2
#     Edge 7, Type (0, 0), BuildingBlock: XIVTED_clean_linker_0, # of connection points: 2
# Relax obj value: 0.000
# Max RMSD: 0.000
# Mean RMSD: 0.000
data_MOF--net-acs--node1-OJICUG_clean_sbu_0--edge1-XIVTED_clean_linker_0
_symmetry_space_group_name_H-M    P1
_symmetry_Int_Tables_number       1
_symmetry_cell_setting            triclinic
loop_
_symmetry_equiv_pos_as_xyz
'x, y, z'
_cell_length_a     21.593228
_cell_length_b     21.622753
_cell_length_c     22.633393
_cell_angle_alpha  89.915764
_cell_angle_beta   90.000814
_cell_angle_gamma 120.20163
loop_
_atom_site_label
_atom_site_type_symbol
_atom_site_fract_x
_atom_site_fract_y
_atom_site_fract_z
_atom_type_partial_charge
Sc0 Sc 0.71178 0.43651 0.23162 0.0
Sc1 Sc 0.54765 0.27313 0.23038 0.0
Sc2 Sc 0.71092 0.27288 0.23038 0.0
O3 O 0.65679 0.32751 0.23079 0.0
C4 C 0.80605 0.40268 0.14271 0.0
C5 C 0.58356 0.40298 0.14271 0.0
C6 C 0.58188 0.17922 0.14175 0.0
C7 C 0.58215 0.40106 0.31951 0.0
C8 C 0.80554 0.40088 0.31952 0.0
C9 C 0.58142 0.17821 0.31856 0.0
O10 O 0.78481 0.44349 0.16346 0.0
O11 O 0.54223 0.34016 0.16237 0.0
O12 O 0.64437 0.20058 0.16199 0.0
O13 O 0.64507 0.44216 0.29986 0.0
O14 O 0.78386 0.33868 0.29874 0.0
O15 O 0.54073 0.19997 0.29836 0.0
O16 O 0.78392 0.44195 0.29999 0.0
O17 O 0.54118 0.3388 0.29887 0.0
O18 O 0.64413 0.19993 0.29856 0.0
O19 O 0.64604 0.44366 0.16329 0.0
O20 O 0.78381 0.33973 0.16218 0.0
O21 O 0.54121 0.201 0.16185 0.0
Sc22 Sc 0.26971 0.55167 0.72997 0.0
Sc23 Sc 0.43384 0.71505 0.73121 0.0
Sc24 Sc 0.27058 0.7153 0.73121 0.0
O25 O 0.3247 0.66067 0.7308 0.0
C26 C 0.17595 0.5873 0.64207 0.0
C27 C 0.39935 0.58712 0.64208 0.0
C28 C 0.40007 0.80997 0.64303 0.0
C29 C 0.39793 0.58521 0.81888 0.0
C30 C 0.17545 0.58551 0.81888 0.0
C31 C 0.39961 0.80896 0.81984 0.0
O32 O 0.19757 0.54623 0.6616 0.0
O33 O 0.44032 0.64938 0.66272 0.0
O34 O 0.33736 0.78825 0.66303 0.0
O35 O 0.33546 0.54453 0.7983 0.0
O36 O 0.19768 0.64846 0.79941 0.0
O37 O 0.44028 0.78718 0.79973 0.0
O38 O 0.19668 0.54469 0.79813 0.0
O39 O 0.43927 0.64802 0.79922 0.0
O40 O 0.33712 0.78761 0.7996 0.0
O41 O 0.33643 0.54602 0.66173 0.0
O42 O 0.19763 0.6495 0.66285 0.0
O43 O 0.44077 0.78821 0.66323 0.0
H44 H 0.52995 0.86872 0.87586 0.0
H45 H 0.45155 0.11946 0.08573 0.0
H46 H 0.33158 0.87206 0.87408 0.0
H47 H 0.64992 0.11612 0.08751 0.0
H48 H 0.40695 0.0292 0.008 0.0
H49 H 0.57454 0.95898 0.95359 0.0
C50 C 0.49562 0.88825 0.89178 0.0
C51 C 0.42679 0.86259 0.86813 0.0
C52 C 0.46026 0.04825 0.02537 0.0
C53 C 0.47788 0.96639 0.95734 0.0
C54 C 0.48588 0.09994 0.0698 0.0
C55 C 0.55471 0.1256 0.09346 0.0
C56 C 0.50362 0.02179 0.00425 0.0
C57 C 0.59655 0.09808 0.07079 0.0
C58 C 0.52124 0.93994 0.93622 0.0
C59 C 0.38495 0.89011 0.8908 0.0
N60 N 0.57032 0.04769 0.02756 0.0
N61 N 0.41118 0.9405 0.93402 0.0
H62 H 0.53058 0.65775 0.58725 0.0
H63 H 0.45092 0.33044 0.37434 0.0
H64 H 0.3307 0.45652 0.58656 0.0
H65 H 0.65079 0.53166 0.37503 0.0
H66 H 0.40622 0.37562 0.45225 0.0
H67 H 0.57528 0.61257 0.50934 0.0
C68 C 0.49594 0.60409 0.57075 0.0
C69 C 0.42665 0.56092 0.59376 0.0
C70 C 0.45987 0.40988 0.43538 0.0
C71 C 0.47786 0.50876 0.50433 0.0
C72 C 0.48556 0.38409 0.39084 0.0
C73 C 0.55484 0.42726 0.36783 0.0
C74 C 0.50364 0.47942 0.45726 0.0
C75 C 0.59706 0.49635 0.39123 0.0
C76 C 0.52163 0.57831 0.52621 0.0
C77 C 0.38443 0.49183 0.57036 0.0
N78 N 0.57076 0.52024 0.43455 0.0
N79 N 0.41073 0.46794 0.52704 0.0
H80 H 0.86836 0.53436 0.08876 0.0
H81 H 0.11313 0.45383 0.87283 0.0
H82 H 0.86684 0.33381 0.08617 0.0
H83 H 0.11466 0.65437 0.87542 0.0
H84 H 0.02319 0.40916 0.9511 0.0
H85 H 0.95831 0.57902 0.01049 0.0
C86 C 0.88676 0.49957 0.07177 0.0
C87 C 0.85981 0.43009 0.09434 0.0
C88 C 0.04323 0.46295 0.93457 0.0
C89 C 0.96322 0.48124 0.00448 0.0
C90 C 0.09473 0.48861 0.88982 0.0
C91 C 0.12169 0.55809 0.86725 0.0
C92 C 0.01828 0.50694 0.95711 0.0
C93 C 0.09557 0.60049 0.89126 0.0
C94 C 0.93827 0.52523 0.02702 0.0
C95 C 0.88593 0.3877 0.07033 0.0
N96 N 0.04536 0.57422 0.93478 0.0
N97 N 0.93614 0.41396 0.02681 0.0
H98 H 0.5312 0.87122 0.58806 0.0
H99 H 0.45029 0.11696 0.37353 0.0
H100 H 0.33129 0.87156 0.58742 0.0
H101 H 0.65021 0.11662 0.37417 0.0
H102 H 0.40599 0.02733 0.452 0.0
H103 H 0.5755 0.96086 0.50959 0.0
C104 C 0.49648 0.88998 0.57147 0.0
C105 C 0.42729 0.86363 0.59463 0.0
C106 C 0.45956 0.04688 0.43499 0.0
C107 C 0.47801 0.96667 0.50454 0.0
C108 C 0.48501 0.0982 0.39012 0.0
C109 C 0.5542 0.12455 0.36696 0.0
C110 C 0.50348 0.02151 0.45705 0.0
C111 C 0.59653 0.098 0.39047 0.0
C112 C 0.52193 0.9413 0.5266 0.0
C113 C 0.38496 0.89018 0.57112 0.0
N114 N 0.57048 0.04798 0.43413 0.0
N115 N 0.41102 0.9402 0.52746 0.0
H116 H 0.32705 0.45417 0.87385 0.0
H117 H 0.65445 0.53401 0.08774 0.0
H118 H 0.52872 0.65361 0.87441 0.0
H119 H 0.45278 0.33457 0.08718 0.0
H120 H 0.60937 0.57853 0.00944 0.0
H121 H 0.37212 0.40965 0.95215 0.0
C122 C 0.38078 0.48874 0.89039 0.0
C123 C 0.4241 0.55786 0.86725 0.0
C124 C 0.575 0.52501 0.02643 0.0
C125 C 0.47612 0.50689 0.95712 0.0
C126 C 0.60072 0.49945 0.0712 0.0
C127 C 0.5574 0.43033 0.09434 0.0
C128 C 0.50538 0.48129 0.00447 0.0
C129 C 0.48821 0.38818 0.07089 0.0
C130 C 0.4065 0.46317 0.93516 0.0
C131 C 0.49328 0.6 0.8907 0.0
N132 N 0.4644 0.41435 0.02735 0.0
N133 N 0.51709 0.57383 0.93424 0.0
H134 H 0.11447 0.65721 0.58824 0.0
H135 H 0.86703 0.33098 0.37335 0.0
H136 H 0.11432 0.45735 0.58559 0.0
H137 H 0.86718 0.53084 0.376 0.0
H138 H 0.95729 0.37626 0.45126 0.0
H139 H 0.02421 0.61192 0.51033 0.0
C140 C 0.09565 0.60384 0.5713 0.0
C141 C 0.12221 0.56108 0.59377 0.0
C142 C 0.93754 0.41019 0.43482 0.0
C143 C 0.01841 0.5088 0.50434 0.0
C144 C 0.88584 0.38434 0.39029 0.0
C145 C 0.85928 0.4271 0.36782 0.0
C146 C 0.96308 0.47939 0.45725 0.0
C147 C 0.88594 0.49584 0.39175 0.0
C148 C 0.04396 0.57799 0.52677 0.0
C149 C 0.09555 0.49234 0.56984 0.0
N150 N 0.93634 0.5198 0.43506 0.0
N151 N 0.04516 0.46838 0.52653 0.0
loop_
_geom_bond_atom_site_label_1
_geom_bond_atom_site_label_2
_geom_bond_distance
_geom_bond_site_symmetry_2
_ccdc_geom_bond_type
Sc0 O3 2.025 . S
Sc0 O10 2.105 . S
Sc0 O13 2.105 . S
Sc0 O16 2.105 . S
Sc0 O19 2.105 . S
Sc1 O3 2.025 . S
Sc1 O11 2.105 . S
Sc1 O15 2.105 . S
Sc1 O17 2.105 . S
Sc1 O21 2.105 . S
Sc2 O3 2.025 . S
Sc2 O12 2.105 . S
Sc2 O14 2.105 . S
Sc2 O18 2.105 . S
Sc2 O20 2.105 . S
O3 Sc0 2.025 . S
O3 Sc1 2.025 . S
O3 Sc2 2.025 . S
C4 O10 1.268 . S
C4 O20 1.268 . S
C5 O11 1.268 . S
C5 O19 1.268 . S
C6 O12 1.268 . S
C6 O21 1.268 . S
C7 O13 1.268 . S
C7 O17 1.268 . S
C8 O14 1.268 . S
C8 O16 1.268 . S
C9 O15 1.268 . S
C9 O18 1.268 . S
O10 Sc0 2.105 . S
O10 C4 1.268 . S
O11 Sc1 2.105 . S
O11 C5 1.268 . S
O12 Sc2 2.105 . S
O12 C6 1.268 . S
O13 Sc0 2.105 . S
O13 C7 1.268 . S
O14 Sc2 2.105 . S
O14 C8 1.268 . S
O15 Sc1 2.105 . S
O15 C9 1.268 . S
O16 Sc0 2.105 . S
O16 C8 1.268 . S
O17 Sc1 2.105 . S
O17 C7 1.268 . S
O18 Sc2 2.105 . S
O18 C9 1.268 . S
O19 Sc0 2.105 . S
O19 C5 1.268 . S
O20 Sc2 2.105 . S
O20 C4 1.268 . S
O21 Sc1 2.105 . S
O21 C6 1.268 . S
Sc22 O25 2.025 . S
Sc22 O32 2.105 . S
Sc22 O35 2.105 . S
Sc22 O38 2.105 . S
Sc22 O41 2.105 . S
Sc23 O25 2.025 . S
Sc23 O33 2.105 . S
Sc23 O37 2.105 . S
Sc23 O39 2.105 . S
Sc23 O43 2.105 . S
Sc24 O25 2.025 . S
Sc24 O34 2.105 . S
Sc24 O36 2.105 . S
Sc24 O40 2.105 . S
Sc24 O42 2.105 . S
O25 Sc22 2.025 . S
O25 Sc23 2.025 . S
O25 Sc24 2.025 . S
C26 O32 1.268 . S
C26 O42 1.268 . S
C27 O33 1.268 . S
C27 O41 1.268 . S
C28 O34 1.268 . S
C28 O43 1.268 . S
C29 O35 1.268 . S
C29 O39 1.268 . S
C30 O36 1.268 . S
C30 O38 1.268 . S
C31 O37 1.268 . S
C31 O40 1.268 . S
O32 Sc22 2.105 . S
O32 C26 1.268 . S
O33 Sc23 2.105 . S
O33 C27 1.268 . S
O34 Sc24 2.105 . S
O34 C28 1.268 . S
O35 Sc22 2.105 . S
O35 C29 1.268 . S
O36 Sc24 2.105 . S
O36 C30 1.268 . S
O37 Sc23 2.105 . S
O37 C31 1.268 . S
O38 Sc22 2.105 . S
O38 C30 1.268 . S
O39 Sc23 2.105 . S
O39 C29 1.268 . S
O40 Sc24 2.105 . S
O40 C31 1.268 . S
O41 Sc22 2.105 . S
O41 C27 1.268 . S
O42 Sc24 2.105 . S
O42 C26 1.268 . S
O43 Sc23 2.105 . S
O43 C28 1.268 . S
H44 C50 0.930 . S
H45 C54 0.930 . S
H46 C59 0.929 . S
H47 C57 0.929 . S
H48 C52 0.929 1_556 S
H49 C58 0.929 1_554 S
C50 H44 0.930 . S
C50 C51 1.367 . S
C50 C58 1.378 . S
C51 C50 1.367 . S
C51 C59 1.433 . S
C52 H48 0.929 1_554 S
C52 C54 1.378 . S
C52 C56 1.350 . S
C53 C56 1.463 1_566 S
C53 C58 1.350 . S
C53 N61 1.427 . S
C54 H45 0.930 . S
C54 C52 1.378 . S
C54 C55 1.367 . S
C55 C54 1.367 . S
C55 C57 1.433 . S
C56 C52 1.350 . S
C56 C53 1.463 1_544 S
C56 N60 1.427 . S
C57 H47 0.929 . S
C57 C55 1.433 . S
C57 N60 1.384 . S
C58 H49 0.929 1_556 S
C58 C50 1.378 . S
C58 C53 1.350 . S
C59 H46 0.929 . S
C59 C51 1.433 . S
C59 N61 1.384 . S
N60 C56 1.427 . S
N60 C57 1.384 . S
N61 C53 1.427 . S
N61 C59 1.384 . S
H62 C68 0.930 . S
H63 C72 0.930 . S
H64 C77 0.929 . S
H65 C75 0.929 . S
H66 C70 0.929 . S
H67 C76 0.929 . S
C68 H62 0.930 . S
C68 C69 1.367 . S
C68 C76 1.378 . S
C69 C68 1.367 . S
C69 C77 1.433 . S
C70 H66 0.929 . S
C70 C72 1.378 . S
C70 C74 1.350 . S
C71 C74 1.463 . S
C71 C76 1.350 . S
C71 N79 1.427 . S
C72 H63 0.930 . S
C72 C70 1.378 . S
C72 C73 1.367 . S
C73 C72 1.367 . S
C73 C75 1.433 . S
C74 C70 1.350 . S
C74 C71 1.463 . S
C74 N78 1.427 . S
C75 H65 0.929 . S
C75 C73 1.433 . S
C75 N78 1.384 . S
C76 H67 0.929 . S
C76 C68 1.378 . S
C76 C71 1.350 . S
C77 H64 0.929 . S
C77 C69 1.433 . S
C77 N79 1.384 . S
N78 C74 1.427 . S
N78 C75 1.384 . S
N79 C71 1.427 . S
N79 C77 1.384 . S
H80 C86 0.930 . S
H81 C90 0.930 . S
H82 C95 0.929 . S
H83 C93 0.929 . S
H84 C88 0.929 1_655 S
H85 C94 0.929 1_455 S
C86 H80 0.930 . S
C86 C87 1.367 . S
C86 C94 1.378 . S
C87 C86 1.367 . S
C87 C95 1.433 . S
C88 H84 0.929 1_455 S
C88 C90 1.378 . S
C88 C92 1.350 . S
C89 C92 1.463 1_654 S
C89 C94 1.350 . S
C89 N97 1.427 . S
C90 H81 0.930 . S
C90 C88 1.378 . S
C90 C91 1.367 . S
C91 C90 1.367 . S
C91 C93 1.433 . S
C92 C88 1.350 . S
C92 C89 1.463 1_456 S
C92 N96 1.427 . S
C93 H83 0.929 . S
C93 C91 1.433 . S
C93 N96 1.384 . S
C94 H85 0.929 1_655 S
C94 C86 1.378 . S
C94 C89 1.350 . S
C95 H82 0.929 . S
C95 C87 1.433 . S
C95 N97 1.384 . S
N96 C92 1.427 . S
N96 C93 1.384 . S
N97 C89 1.427 . S
N97 C95 1.384 . S
H98 C104 0.930 . S
H99 C108 0.930 . S
H100 C113 0.929 . S
H101 C111 0.929 . S
H102 C106 0.929 1_565 S
H103 C112 0.929 1_545 S
C104 H98 0.930 . S
C104 C105 1.367 . S
C104 C112 1.378 . S
C105 C104 1.367 . S
C105 C113 1.433 . S
C106 H102 0.929 1_545 S
C106 C108 1.378 . S
C106 C110 1.350 . S
C107 C110 1.463 1_565 S
C107 C112 1.350 . S
C107 N115 1.427 . S
C108 H99 0.930 . S
C108 C106 1.378 . S
C108 C109 1.367 . S
C109 C108 1.367 . S
C109 C111 1.433 . S
C110 C106 1.350 . S
C110 C107 1.463 1_545 S
C110 N114 1.427 . S
C111 H101 0.929 . S
C111 C109 1.433 . S
C111 N114 1.384 . S
C112 H103 0.929 1_565 S
C112 C104 1.378 . S
C112 C107 1.350 . S
C113 H100 0.929 . S
C113 C105 1.433 . S
C113 N115 1.384 . S
N114 C110 1.427 . S
N114 C111 1.384 . S
N115 C107 1.427 . S
N115 C113 1.384 . S
H116 C122 0.930 . S
H117 C126 0.930 . S
H118 C131 0.929 . S
H119 C129 0.929 . S
H120 C124 0.929 1_556 S
H121 C130 0.929 1_554 S
C122 H116 0.930 . S
C122 C123 1.367 . S
C122 C130 1.378 . S
C123 C122 1.367 . S
C123 C131 1.433 . S
C124 H120 0.929 1_554 S
C124 C126 1.378 . S
C124 C128 1.350 . S
C125 C128 1.463 1_556 S
C125 C130 1.350 . S
C125 N133 1.427 . S
C126 H117 0.930 . S
C126 C124 1.378 . S
C126 C127 1.367 . S
C127 C126 1.367 . S
C127 C129 1.433 . S
C128 C124 1.350 . S
C128 C125 1.463 1_554 S
C128 N132 1.427 . S
C129 H119 0.929 . S
C129 C127 1.433 . S
C129 N132 1.384 . S
C130 H121 0.929 1_556 S
C130 C122 1.378 . S
C130 C125 1.350 . S
C131 H118 0.929 . S
C131 C123 1.433 . S
C131 N133 1.384 . S
N132 C128 1.427 . S
N132 C129 1.384 . S
N133 C125 1.427 . S
N133 C131 1.384 . S
H134 C140 0.930 . S
H135 C144 0.930 . S
H136 C149 0.929 . S
H137 C147 0.929 . S
H138 C142 0.929 1_455 S
H139 C148 0.929 1_655 S
C140 H134 0.930 . S
C140 C141 1.367 . S
C140 C148 1.378 . S
C141 C140 1.367 . S
C141 C149 1.433 . S
C142 H138 0.929 1_655 S
C142 C144 1.378 . S
C142 C146 1.350 . S
C143 C146 1.463 1_455 S
C143 C148 1.350 . S
C143 N151 1.427 . S
C144 H135 0.930 . S
C144 C142 1.378 . S
C144 C145 1.367 . S
C145 C144 1.367 . S
C145 C147 1.433 . S
C146 C142 1.350 . S
C146 C143 1.463 1_655 S
C146 N150 1.427 . S
C147 H137 0.929 . S
C147 C145 1.433 . S
C147 N150 1.384 . S
C148 H139 0.929 1_455 S
C148 C140 1.378 . S
C148 C143 1.350 . S
C149 H136 0.929 . S
C149 C141 1.433 . S
C149 N151 1.384 . S
N150 C146 1.427 . S
N150 C147 1.384 . S
N151 C143 1.427 . S
N151 C149 1.384 . S
C51 C31 1.483 . S
C55 C6 1.483 . S
C69 C27 1.477 . S
C73 C7 1.477 . S
C87 C4 1.477 . S
C91 C30 1.477 . S
C105 C28 1.476 . S
C109 C9 1.476 . S
C123 C29 1.483 . S
C127 C5 1.483 . S
C141 C26 1.475 . S
C145 C8 1.475 . S
