# Generated by pormake.
# Topology pcu, (6)-cn, num edge types: 1
# Building blocks:
#     Node 0, Type 0, BuildingBlock: INOVEN_clean_sbu_0, # of connection points: 6
#     Edge 1, Type (0, 0), BuildingBlock: UVAHIK_clean_linker_0, # of connection points: 2
#     Edge 2, Type (0, 0), BuildingBlock: UVAHIK_clean_linker_0, # of connection points: 2
#     Edge 3, Type (0, 0), BuildingBlock: UVAHIK_clean_linker_0, # of connection points: 2
# Relax obj value: 0.000
# Max RMSD: 0.000
# Mean RMSD: 0.000
data_MOF--net-pcu--node1-INOVEN_clean_sbu_0--edge1-UVAHIK_clean_linker_0
_symmetry_space_group_name_H-M    P1
_symmetry_Int_Tables_number       1
_symmetry_cell_setting            triclinic
loop_
_symmetry_equiv_pos_as_xyz
'x, y, z'
_cell_length_a     29.575905
_cell_length_b     20.067598
_cell_length_c     18.726347
_cell_angle_alpha  86.721154
_cell_angle_beta   101.49138
_cell_angle_gamma 125.2908
loop_
_atom_site_label
_atom_site_type_symbol
_atom_site_fract_x
_atom_site_fract_y
_atom_site_fract_z
_atom_type_partial_charge
Gd0 Gd 0.96656 0.93172 0.02633 0.0
Gd1 Gd 0.09001 0.03975 1.0119 0.0
C2 C 0.03027 0.12876 1.01344 0.0
C3 C 0.87096 0.86811 0.06553 0.0
C4 C 0.82889 0.88629 0.06025 0.0
C5 C 0.83241 0.94869 1.01818 0.0
C6 C 0.78425 0.84002 0.09727 0.0
C7 C 0.74585 0.91694 0.04902 0.0
C8 C 0.74312 0.85514 0.09179 0.0
C9 C 0.79125 0.96393 1.01262 0.0
C10 C 0.98328 0.94443 0.88826 0.0
C11 C 1.02628 0.84271 0.02454 0.0
C12 C 0.18579 0.10357 0.97313 0.0
C13 C 0.22779 0.08526 0.97826 0.0
C14 C 0.2242 0.02274 0.02021 0.0
C15 C 0.27243 0.13155 0.94125 0.0
C16 C 0.31075 0.05447 0.98931 0.0
C17 C 0.31351 0.11635 0.94664 0.0
C18 C 0.26532 0.00744 0.02568 0.0
C19 C 0.07295 0.02687 0.14989 0.0
O20 O 0.98922 0.06018 0.03595 0.0
O21 O 0.07103 0.13282 0.99002 0.0
O22 O 0.87528 0.84652 1.00402 0.0
O23 O 0.9201 0.91898 0.10834 0.0
O24 O 0.94275 0.87829 0.91103 0.0
O25 O 1.01033 0.00174 0.93772 0.0
O26 O 0.0673 0.91129 1.00201 0.0
O27 O 0.98556 0.83866 0.04808 0.0
O28 O 0.18131 0.12468 0.03476 0.0
O29 O 0.13673 0.05309 0.93001 0.0
O30 O 0.11342 0.09316 0.12721 0.0
O31 O 0.04628 0.96971 0.10037 0.0
H32 H 0.86667 0.98505 0.98917 0.0
H33 H 0.78108 0.7919 0.13032 0.0
H34 H 0.7094 0.81874 0.12157 0.0
H35 H 0.79443 0.01145 0.9787 0.0
H36 H 0.18994 -0.01364 0.0492 0.0
H37 H 0.27564 0.17974 0.9083 0.0
H38 H 0.34725 0.15278 0.91688 0.0
H39 H 0.2621 0.95984 0.05952 0.0
C40 C 0.09554 0.08595 0.27633 0.0
C41 C 0.06294 0.01802 0.22511 0.0
C42 C 0.08664 0.0779 0.34782 0.0
C43 C 1.02581 0.92421 0.48309 0.0
H44 H 0.03048 0.09386 0.58097 0.0
C45 C 0.96028 0.88507 0.76178 0.0
C46 C 0.99308 0.95305 0.81295 0.0
C47 C 0.96903 0.89296 0.69021 0.0
C48 C 0.0297 0.04638 0.55475 0.0
H49 H 0.9953 0.88848 0.20808 0.0
H50 H 0.9792 0.87439 0.33282 0.0
H51 H 0.04448 0.10733 0.45557 0.0
H52 H 0.06094 0.08252 0.8298 0.0
H53 H 0.07673 0.09632 0.70494 0.0
H54 H 1.01102 0.86327 0.58228 0.0
C55 C 1.01216 0.93374 0.31811 0.0
C56 C 0.03769 0.05407 0.4828 0.0
C57 C 1.0211 0.94186 0.24655 0.0
C58 C 0.03497 0.0291 0.79138 0.0
C59 C 0.04373 0.03706 0.71975 0.0
C60 C 1.01781 0.91652 0.55504 0.0
C61 C 0.0449 0.00167 0.36968 0.0
C62 C 0.03588 -0.00689 0.44607 0.0
C63 C 1.01079 0.96908 0.66823 0.0
C64 C 1.01966 0.97751 0.59178 0.0
H65 H 0.12816 0.14539 0.26126 0.0
H66 H 0.1131 0.13123 0.38631 0.0
H67 H 1.02505 0.87675 0.45689 0.0
H68 H 0.92763 0.82572 0.77695 0.0
H69 H 0.94243 0.8396 0.65177 0.0
C70 C 0.41261 0.10604 1.00294 0.0
C71 C 0.35542 0.03985 0.99625 0.0
C72 C 0.45462 0.09266 1.00883 0.0
C73 C 0.47615 0.93469 0.97149 0.0
H74 H 0.62009 0.07609 0.10497 0.0
C75 C 0.64397 0.86532 0.03538 0.0
C76 C 0.70116 0.93152 0.04204 0.0
C77 C 0.60195 0.87868 0.02947 0.0
C78 C 0.5804 0.03662 0.06677 0.0
H79 H 0.29777 0.90742 0.99028 0.0
H80 H 0.37118 0.88413 1.00197 0.0
H81 H 0.54652 0.0985 0.09613 0.0
H82 H 0.75879 0.06395 0.04792 0.0
H83 H 0.68535 0.08721 0.03621 0.0
H84 H 0.51003 0.87281 0.94214 0.0
C85 C 0.38345 0.94648 1.00182 0.0
C86 C 0.53815 0.04944 0.06173 0.0
C87 C 0.34139 0.95987 0.99598 0.0
C88 C 0.71516 0.01149 0.04225 0.0
C89 C 0.67309 0.02486 0.03639 0.0
C90 C 0.51839 0.92187 0.97654 0.0
C91 C 0.44062 0.01272 1.00824 0.0
C92 C 0.48547 -0.00134 1.014 0.0
C93 C 0.61594 0.95861 0.03001 0.0
C94 C 0.57108 0.97266 0.02426 0.0
H95 H 0.4251 0.16849 1.00428 0.0
H96 H 0.49808 0.14511 1.01292 0.0
H97 H 0.43646 0.89522 0.93329 0.0
H98 H 0.6315 0.80288 0.03409 0.0
H99 H 0.55849 0.82622 0.0254 0.0
C100 C 0.07106 0.77344 1.00222 0.0
C101 C 1.02708 0.76962 0.02483 0.0
C102 C 0.07149 0.70427 1.00132 0.0
C103 C 0.97772 0.47887 0.99545 0.0
H104 H 0.11828 0.4991 0.06178 0.0
C105 C 0.98546 0.19803 0.03562 0.0
C106 C 0.02945 0.20184 1.01305 0.0
C107 C 0.98502 0.2672 0.03645 0.0
C108 C 0.0788 0.49259 0.04227 0.0
H109 H 0.94924 0.69006 0.06476 0.0
H110 H 0.9503 0.56957 0.06373 0.0
H111 H 0.11798 0.6201 0.06545 0.0
H112 H 0.10729 0.28136 0.97314 0.0
H113 H 0.10621 0.40186 0.97405 0.0
H114 H 0.93854 0.35135 0.97226 0.0
C115 C 0.98409 0.62589 0.04586 0.0
C116 C 0.07862 0.56191 0.04443 0.0
C117 C 0.98369 0.69513 0.04687 0.0
C118 C 0.07284 0.27631 0.99099 0.0
C119 C 0.07242 0.34554 0.99193 0.0
C120 C 0.9779 0.40955 0.99329 0.0
C121 C 1.02793 0.62963 0.02292 0.0
C122 C 1.02807 0.55585 0.02104 0.0
C123 C 0.02858 0.34183 1.01484 0.0
C124 C 0.02844 0.41561 1.01668 0.0
H125 H 0.10513 0.82976 0.98473 0.0
H126 H 0.10551 0.70896 0.98254 0.0
H127 H 0.93824 0.47236 0.97594 0.0
H128 H 0.95138 0.14173 0.05313 0.0
H129 H 0.95099 0.26252 0.05521 0.0
loop_
_geom_bond_atom_site_label_1
_geom_bond_atom_site_label_2
_geom_bond_distance
_geom_bond_site_symmetry_2
_ccdc_geom_bond_type
Gd0 C3 2.818 . S
Gd0 O20 2.377 1_565 S
Gd0 O22 2.448 . S
Gd0 O23 2.506 1_556 S
Gd0 O24 2.435 . S
Gd0 O25 2.717 1_665 S
Gd0 O27 2.395 . S
Gd0 O31 2.327 1_556 S
Gd1 C12 2.818 . S
Gd1 O21 2.395 . S
Gd1 O25 2.327 1_554 S
Gd1 O26 2.377 1_545 S
Gd1 O28 2.448 . S
Gd1 O29 2.506 1_554 S
Gd1 O30 2.435 . S
Gd1 O31 2.717 1_445 S
C2 O20 1.240 1_455 S
C2 O21 1.240 1_556 S
C3 Gd0 2.818 . S
C3 C4 1.510 . S
C3 O22 1.249 . S
C3 O23 1.252 1_556 S
C4 C3 1.510 . S
C4 C5 1.404 . S
C4 C6 1.352 1_566 S
C5 C4 1.404 . S
C5 C9 1.389 . S
C5 H32 0.930 . S
C6 C4 1.352 1_544 S
C6 C8 1.374 . S
C6 H33 0.931 . S
C7 C8 1.359 1_565 S
C7 C9 1.364 1_554 S
C8 C6 1.374 . S
C8 C7 1.359 1_545 S
C8 H34 0.931 . S
C9 C5 1.389 . S
C9 C7 1.364 1_556 S
C9 H35 0.931 . S
C10 O24 1.256 . S
C10 O25 1.257 1_665 S
C11 O26 1.240 1_655 S
C11 O27 1.240 1_554 S
C12 Gd1 2.818 . S
C12 C13 1.510 . S
C12 O28 1.249 . S
C12 O29 1.252 1_554 S
C13 C12 1.510 . S
C13 C14 1.404 . S
C13 C15 1.352 1_544 S
C14 C13 1.404 . S
C14 C18 1.389 . S
C14 H36 0.930 . S
C15 C13 1.352 1_566 S
C15 C17 1.374 . S
C15 H37 0.931 . S
C16 C17 1.359 1_545 S
C16 C18 1.364 1_556 S
C17 C15 1.374 . S
C17 C16 1.359 1_565 S
C17 H38 0.931 . S
C18 C14 1.389 . S
C18 C16 1.364 1_554 S
C18 H39 0.931 . S
C19 O30 1.256 . S
C19 O31 1.257 1_445 S
O20 Gd0 2.377 1_545 S
O20 C2 1.240 1_655 S
O21 Gd1 2.395 . S
O21 C2 1.240 1_554 S
O22 Gd0 2.448 . S
O22 C3 1.249 . S
O23 Gd0 2.506 1_554 S
O23 C3 1.252 1_554 S
O24 Gd0 2.435 . S
O24 C10 1.256 . S
O25 Gd0 2.717 1_445 S
O25 Gd1 2.327 1_556 S
O25 C10 1.257 1_445 S
O26 Gd1 2.377 1_565 S
O26 C11 1.240 1_455 S
O27 Gd0 2.395 . S
O27 C11 1.240 1_556 S
O28 Gd1 2.448 . S
O28 C12 1.249 . S
O29 Gd1 2.506 1_556 S
O29 C12 1.252 1_556 S
O30 Gd1 2.435 . S
O30 C19 1.256 . S
O31 Gd0 2.327 1_554 S
O31 Gd1 2.717 1_665 S
O31 C19 1.257 1_665 S
H32 C5 0.930 . S
H33 C6 0.931 . S
H34 C8 0.931 . S
H35 C9 0.931 . S
H36 C14 0.930 . S
H37 C15 0.931 . S
H38 C17 0.931 . S
H39 C18 0.931 . S
C40 C41 1.349 1_655 S
C40 C42 1.327 . S
C40 H65 0.950 . S
C41 C40 1.349 1_455 S
C41 C57 1.349 1_545 S
C42 C40 1.327 . S
C42 C61 1.429 1_655 S
C42 H66 0.950 . S
C43 C60 1.574 . S
C43 C62 1.368 1_565 S
C43 H67 0.949 . S
H44 C48 0.949 . S
C45 C46 1.349 1_565 S
C45 C47 1.327 . S
C45 H68 0.950 . S
C46 C45 1.349 1_545 S
C46 C58 1.349 1_455 S
C47 C45 1.327 . S
C47 C63 1.429 1_565 S
C47 H69 0.950 . S
C48 H44 0.949 . S
C48 C56 1.574 . S
C48 C64 1.368 1_655 S
H49 C57 0.950 . S
H50 C55 0.950 . S
H51 C56 0.949 . S
H52 C58 0.950 . S
H53 C59 0.950 . S
H54 C60 0.949 . S
C55 H50 0.950 . S
C55 C57 1.327 . S
C55 C61 1.429 1_565 S
C56 C48 1.574 . S
C56 H51 0.949 . S
C56 C62 1.368 1_655 S
C57 C41 1.349 1_565 S
C57 H49 0.950 . S
C57 C55 1.327 . S
C58 C46 1.349 1_655 S
C58 H52 0.950 . S
C58 C59 1.327 . S
C59 H53 0.950 . S
C59 C58 1.327 . S
C59 C63 1.429 1_655 S
C60 C43 1.574 . S
C60 H54 0.949 . S
C60 C64 1.368 1_565 S
C61 C42 1.429 1_455 S
C61 C55 1.429 1_545 S
C61 C62 1.523 . S
C62 C43 1.368 1_545 S
C62 C56 1.368 1_455 S
C62 C61 1.523 . S
C63 C47 1.429 1_545 S
C63 C59 1.429 1_455 S
C63 C64 1.523 . S
C64 C48 1.368 1_455 S
C64 C60 1.368 1_545 S
C64 C63 1.523 . S
H65 C40 0.950 . S
H66 C42 0.950 . S
H67 C43 0.949 . S
H68 C45 0.950 . S
H69 C47 0.950 . S
C70 C71 1.349 1_556 S
C70 C72 1.327 . S
C70 H95 0.950 . S
C71 C70 1.349 1_554 S
C71 C87 1.349 1_545 S
C72 C70 1.327 . S
C72 C91 1.429 1_556 S
C72 H96 0.950 . S
C73 C90 1.574 . S
C73 C92 1.368 1_565 S
C73 H97 0.949 . S
H74 C78 0.949 . S
C75 C76 1.349 1_565 S
C75 C77 1.327 . S
C75 H98 0.950 . S
C76 C75 1.349 1_545 S
C76 C88 1.349 1_554 S
C77 C75 1.327 . S
C77 C93 1.429 1_565 S
C77 H99 0.950 . S
C78 H74 0.949 . S
C78 C86 1.574 . S
C78 C94 1.368 1_556 S
H79 C87 0.950 . S
H80 C85 0.950 . S
H81 C86 0.949 . S
H82 C88 0.950 . S
H83 C89 0.950 . S
H84 C90 0.949 . S
C85 H80 0.950 . S
C85 C87 1.327 . S
C85 C91 1.429 1_565 S
C86 C78 1.574 . S
C86 H81 0.949 . S
C86 C92 1.368 1_556 S
C87 C71 1.349 1_565 S
C87 H79 0.950 . S
C87 C85 1.327 . S
C88 C76 1.349 1_556 S
C88 H82 0.950 . S
C88 C89 1.327 . S
C89 H83 0.950 . S
C89 C88 1.327 . S
C89 C93 1.429 1_556 S
C90 C73 1.574 . S
C90 H84 0.949 . S
C90 C94 1.368 1_565 S
C91 C72 1.429 1_554 S
C91 C85 1.429 1_545 S
C91 C92 1.523 . S
C92 C73 1.368 1_545 S
C92 C86 1.368 1_554 S
C92 C91 1.523 . S
C93 C77 1.429 1_545 S
C93 C89 1.429 1_554 S
C93 C94 1.523 . S
C94 C78 1.368 1_554 S
C94 C90 1.368 1_545 S
C94 C93 1.523 . S
H95 C70 0.950 . S
H96 C72 0.950 . S
H97 C73 0.949 . S
H98 C75 0.950 . S
H99 C77 0.950 . S
C100 C101 1.349 1_556 S
C100 C102 1.327 . S
C100 H125 0.950 . S
C101 C100 1.349 1_554 S
C101 C117 1.349 1_455 S
C102 C100 1.327 . S
C102 C121 1.429 1_556 S
C102 H126 0.950 . S
C103 C120 1.574 . S
C103 C122 1.368 1_655 S
C103 H127 0.949 . S
H104 C108 0.949 . S
C105 C106 1.349 1_655 S
C105 C107 1.327 . S
C105 H128 0.950 . S
C106 C105 1.349 1_455 S
C106 C118 1.349 1_554 S
C107 C105 1.327 . S
C107 C123 1.429 1_655 S
C107 H129 0.950 . S
C108 H104 0.949 . S
C108 C116 1.574 . S
C108 C124 1.368 1_556 S
H109 C117 0.950 . S
H110 C115 0.950 . S
H111 C116 0.949 . S
H112 C118 0.950 . S
H113 C119 0.950 . S
H114 C120 0.949 . S
C115 H110 0.950 . S
C115 C117 1.327 . S
C115 C121 1.429 1_655 S
C116 C108 1.574 . S
C116 H111 0.949 . S
C116 C122 1.368 1_556 S
C117 C101 1.349 1_655 S
C117 H109 0.950 . S
C117 C115 1.327 . S
C118 C106 1.349 1_556 S
C118 H112 0.950 . S
C118 C119 1.327 . S
C119 H113 0.950 . S
C119 C118 1.327 . S
C119 C123 1.429 1_556 S
C120 C103 1.574 . S
C120 H114 0.949 . S
C120 C124 1.368 1_655 S
C121 C102 1.429 1_554 S
C121 C115 1.429 1_455 S
C121 C122 1.523 . S
C122 C103 1.368 1_455 S
C122 C116 1.368 1_554 S
C122 C121 1.523 . S
C123 C107 1.429 1_455 S
C123 C119 1.429 1_554 S
C123 C124 1.523 . S
C124 C108 1.368 1_554 S
C124 C120 1.368 1_455 S
C124 C123 1.523 . S
H125 C100 0.950 . S
H126 C102 0.950 . S
H127 C103 0.949 . S
H128 C105 0.950 . S
H129 C107 0.950 . S
C41 C19 1.459 . S
C46 C10 1.459 1_445 S
C71 C16 1.499 1_554 S
C76 C7 1.499 1_545 S
C101 C11 1.495 1_455 S
C106 C2 1.495 1_554 S
