# Generated by pormake.
# Topology npo, (4)-cn, num edge types: 1
# Building blocks:
#     Node 0, Type 0, BuildingBlock: AZAVOO_clean_sbu_0, # of connection points: 4
#     Node 1, Type 0, BuildingBlock: AZAVOO_clean_sbu_0, # of connection points: 4
#     Node 2, Type 0, BuildingBlock: AZAVOO_clean_sbu_0, # of connection points: 4
#     Node 3, Type 0, BuildingBlock: AZAVOO_clean_sbu_0, # of connection points: 4
#     Node 4, Type 0, BuildingBlock: AZAVOO_clean_sbu_0, # of connection points: 4
#     Node 5, Type 0, BuildingBlock: AZAVOO_clean_sbu_0, # of connection points: 4
#     Edge 6, Type (0, 0), BuildingBlock: EYOCIG_clean_linker_4, # of connection points: 2
#     Edge 7, Type (0, 0), BuildingBlock: EYOCIG_clean_linker_4, # of connection points: 2
#     Edge 8, Type (0, 0), BuildingBlock: EYOCIG_clean_linker_4, # of connection points: 2
#     Edge 9, Type (0, 0), BuildingBlock: EYOCIG_clean_linker_4, # of connection points: 2
#     Edge 10, Type (0, 0), BuildingBlock: EYOCIG_clean_linker_4, # of connection points: 2
#     Edge 11, Type (0, 0), BuildingBlock: EYOCIG_clean_linker_4, # of connection points: 2
#     Edge 12, Type (0, 0), BuildingBlock: EYOCIG_clean_linker_4, # of connection points: 2
#     Edge 13, Type (0, 0), BuildingBlock: EYOCIG_clean_linker_4, # of connection points: 2
#     Edge 14, Type (0, 0), BuildingBlock: EYOCIG_clean_linker_4, # of connection points: 2
#     Edge 15, Type (0, 0), BuildingBlock: EYOCIG_clean_linker_4, # of connection points: 2
#     Edge 16, Type (0, 0), BuildingBlock: EYOCIG_clean_linker_4, # of connection points: 2
#     Edge 17, Type (0, 0), BuildingBlock: EYOCIG_clean_linker_4, # of connection points: 2
# Relax obj value: 0.260
# Max RMSD: 0.255
# Mean RMSD: 0.232
data_MOF--net-npo--node1-AZAVOO_clean_sbu_0--edge1-EYOCIG_clean_linker_4
_symmetry_space_group_name_H-M    P1
_symmetry_Int_Tables_number       1
_symmetry_cell_setting            triclinic
loop_
_symmetry_equiv_pos_as_xyz
'x, y, z'
_cell_length_a     37.008239
_cell_length_b     33.353533
_cell_length_c     21.069426
_cell_angle_alpha  89.882201
_cell_angle_beta   90.083753
_cell_angle_gamma 132.17075
loop_
_atom_site_label
_atom_site_type_symbol
_atom_site_fract_x
_atom_site_fract_y
_atom_site_fract_z
_atom_type_partial_charge
Mg0 Mg 0.47437 0.08057 0.22894 0.0
O1 O 0.55681 0.14974 0.23204 0.0
O2 O 0.5917 0.11551 0.23913 0.0
Mg3 Mg 0.53035 0.02302 0.24403 0.0
C4 C 0.59434 0.15551 0.23527 0.0
C5 C 0.44878 0.15343 0.22487 0.0
O6 O 0.41316 0.11656 0.26311 0.0
O7 O 0.47729 0.06014 0.12642 0.0
O8 O 0.50701 0.02033 0.14212 0.0
O9 O 0.47152 0.07919 0.33545 0.0
O10 O 0.4776 0.02845 0.27817 0.0
C11 C 0.48959 0.03465 0.10618 0.0
C12 C 0.47594 0.04389 0.33287 0.0
O13 O 0.47507 0.14638 0.19922 0.0
Mg14 Mg 0.36916 0.4469 0.72915 0.0
O15 O 0.40044 0.53367 0.72821 0.0
O16 O 0.48153 0.58954 0.73381 0.0
Mg17 Mg 0.50246 0.5389 0.74068 0.0
C18 C 0.44251 0.58095 0.72967 0.0
C19 C 0.25807 0.38749 0.72981 0.0
O20 O 0.25469 0.35404 0.76809 0.0
O21 O 0.39338 0.45497 0.62553 0.0
O22 O 0.47402 0.50764 0.63981 0.0
O23 O 0.36938 0.44695 0.83618 0.0
O24 O 0.43011 0.4695 0.7776 0.0
C25 C 0.43623 0.47951 0.60451 0.0
C26 C 0.41281 0.46436 0.83272 0.0
O27 O 0.298 0.4247 0.70184 0.0
Mg28 Mg 0.91301 0.52089 0.22894 0.0
O29 O 0.84125 0.43335 0.2285 0.0
O30 O 0.85559 0.37829 0.22265 0.0
Mg31 Mg 0.93873 0.4322 0.21664 0.0
C32 C 0.82651 0.38632 0.22644 0.0
C33 C 0.87079 0.57733 0.23107 0.0
O34 O 0.90725 0.61103 0.19217 0.0
O35 O 0.92838 0.51344 0.33231 0.0
O36 O 0.94794 0.46332 0.31758 0.0
O37 O 0.9138 0.52182 0.1219 0.0
O38 O 0.94885 0.50107 0.18037 0.0
C39 C 0.94321 0.49051 0.35303 0.0
C40 C 0.93774 0.50629 0.12525 0.0
O41 O 0.86609 0.53979 0.25738 0.0
Mg42 Mg 0.47886 0.89255 0.72946 0.0
O43 O 0.39669 0.82292 0.73293 0.0
O44 O 0.36092 0.85615 0.73972 0.0
Mg45 Mg 0.4216 0.94869 0.74415 0.0
C46 C 0.35887 0.81656 0.73615 0.0
C47 C 0.50478 0.81977 0.72513 0.0
O48 O 0.54007 0.85608 0.76403 0.0
O49 O 0.47542 0.91264 0.62689 0.0
O50 O 0.44494 0.95163 0.64224 0.0
O51 O 0.48183 0.89407 0.83601 0.0
O52 O 0.47503 0.94421 0.77838 0.0
C53 C 0.46264 0.93766 0.60645 0.0
C54 C 0.47694 0.92898 0.83319 0.0
O55 O 0.4786 0.8271 0.69965 0.0
Mg56 Mg 0.58399 0.52615 0.22945 0.0
O57 O 0.55306 0.43956 0.22944 0.0
O58 O 0.47194 0.38335 0.23462 0.0
Mg59 Mg 0.45059 0.43361 0.24056 0.0
C60 C 0.51109 0.39219 0.23102 0.0
C61 C 0.69536 0.58614 0.23048 0.0
O62 O 0.69872 0.61982 0.26804 0.0
O63 O 0.55983 0.51789 0.12561 0.0
O64 O 0.47916 0.46509 0.13972 0.0
O65 O 0.58358 0.52633 0.33644 0.0
O66 O 0.52281 0.50336 0.27739 0.0
C67 C 0.51698 0.49334 0.10449 0.0
C68 C 0.5401 0.50876 0.33266 0.0
O69 O 0.65537 0.54858 0.20287 0.0
Mg70 Mg 0.04002 0.4517 0.72926 0.0
O71 O 0.11217 0.53867 0.72874 0.0
O72 O 0.09893 0.59467 0.72145 0.0
Mg73 Mg 0.01603 0.54187 0.71531 0.0
C74 C 0.12747 0.58593 0.72602 0.0
C75 C 0.08233 0.39565 0.73076 0.0
O76 O 0.04688 0.36332 0.6901 0.0
O77 O 0.02509 0.46004 0.83229 0.0
O78 O 0.00692 0.51144 0.81683 0.0
O79 O 0.03985 0.45096 0.62223 0.0
O80 O 0.0052 0.47248 0.67986 0.0
C81 C 0.01122 0.48398 0.85269 0.0
C82 C 0.01657 0.46729 0.62502 0.0
O83 O 0.08617 0.43201 0.75868 0.0
C84 C 0.48098 0.25187 0.22257 0.0
C85 C 0.46589 0.20675 0.22402 0.0
C86 C 0.49768 0.30424 0.22453 0.0
C87 C 0.5071 0.34646 0.22728 0.0
C88 C 0.18951 0.39201 0.73215 0.0
C89 C 0.22092 0.39012 0.73092 0.0
C90 C 0.15303 0.39464 0.73524 0.0
C91 C 0.12152 0.39637 0.73453 0.0
C92 C 0.68247 0.25287 0.23244 0.0
C93 C 0.64157 0.2092 0.23359 0.0
C94 C 0.73193 0.30134 0.23054 0.0
C95 C 0.77498 0.3406 0.22872 0.0
C96 C 0.47302 0.72155 0.72078 0.0
C97 C 0.48788 0.76656 0.72314 0.0
C98 C 0.45637 0.66918 0.72233 0.0
C99 C 0.44678 0.62687 0.72544 0.0
C100 C 0.76423 0.58205 0.2331 0.0
C101 C 0.73277 0.58387 0.23187 0.0
C102 C 0.80059 0.57918 0.23593 0.0
C103 C 0.83188 0.57708 0.23491 0.0
C104 C 0.27135 0.71874 0.73335 0.0
C105 C 0.312 0.76265 0.73449 0.0
C106 C 0.22206 0.67018 0.73108 0.0
C107 C 0.17902 0.63111 0.72885 0.0
C108 C 0.47342 0.97213 0.93519 0.0
C109 C 0.47509 0.95185 0.88934 0.0
C110 C 0.47584 -0.0023 -0.00952 0.0
C111 C 0.48038 0.01695 0.04147 0.0
C112 C 0.486 0.48429 0.43352 0.0
C113 C 0.51139 0.49571 0.38824 0.0
C114 C 0.45972 0.47607 0.48842 0.0
C115 C 0.44359 0.47405 0.5393 0.0
C116 C -0.01724 0.47952 0.96873 0.0
C117 C -0.00313 0.47827 0.91778 0.0
C118 C 0.9653 0.486 0.02384 0.0
C119 C 0.95231 0.49549 0.06938 0.0
C120 C 0.47901 0.00043 0.4352 0.0
C121 C 0.47755 0.02085 0.38919 0.0
C122 C 0.47642 0.97476 0.49064 0.0
C123 C 0.47187 0.9555 0.54173 0.0
C124 C 0.46695 0.48904 0.93374 0.0
C125 C 0.44146 0.4775 0.88848 0.0
C126 C 0.4934 0.49724 -0.01148 0.0
C127 C 0.50964 0.49911 0.0393 0.0
C128 C -0.00942 0.48948 0.52341 0.0
C129 C 0.00297 0.47906 0.56884 0.0
C130 C 0.97299 0.49629 0.46864 0.0
C131 C 0.95818 0.49705 0.41798 0.0
loop_
_geom_bond_atom_site_label_1
_geom_bond_atom_site_label_2
_geom_bond_distance
_geom_bond_site_symmetry_2
_ccdc_geom_bond_type
Mg0 O1 2.028 . S
Mg0 O7 1.986 . S
Mg0 O9 2.114 . S
Mg0 O10 2.251 . S
Mg0 O13 2.010 . S
O1 Mg0 2.028 . S
O1 C4 1.250 . S
O2 Mg3 2.028 . S
O2 C4 1.248 . S
Mg3 O2 2.028 . S
Mg3 O8 2.032 . S
Mg3 O10 2.079 . S
C4 O1 1.250 . S
C4 O2 1.248 . S
C5 O6 1.264 . S
C5 O13 1.249 . S
O6 C5 1.264 . S
O7 Mg0 1.986 . S
O7 C11 1.246 . S
O8 Mg3 2.032 . S
O8 C11 1.259 . S
O9 Mg0 2.114 . S
O9 C12 1.252 . S
O10 Mg0 2.251 . S
O10 Mg3 2.079 . S
O10 C12 1.273 . S
C11 O7 1.246 . S
C11 O8 1.259 . S
C12 O9 1.252 . S
C12 O10 1.273 . S
O13 Mg0 2.010 . S
O13 C5 1.249 . S
Mg14 O15 2.028 . S
Mg14 O21 1.986 . S
Mg14 O23 2.114 . S
Mg14 O24 2.251 . S
Mg14 O27 2.010 . S
O15 Mg14 2.028 . S
O15 C18 1.250 . S
O16 Mg17 2.028 . S
O16 C18 1.248 . S
Mg17 O16 2.028 . S
Mg17 O22 2.032 . S
Mg17 O24 2.079 . S
C18 O15 1.250 . S
C18 O16 1.248 . S
C19 O20 1.264 . S
C19 O27 1.249 . S
O20 C19 1.264 . S
O21 Mg14 1.986 . S
O21 C25 1.246 . S
O22 Mg17 2.032 . S
O22 C25 1.259 . S
O23 Mg14 2.114 . S
O23 C26 1.252 . S
O24 Mg14 2.251 . S
O24 Mg17 2.079 . S
O24 C26 1.273 . S
C25 O21 1.246 . S
C25 O22 1.259 . S
C26 O23 1.252 . S
C26 O24 1.273 . S
O27 Mg14 2.010 . S
O27 C19 1.249 . S
Mg28 O29 2.028 . S
Mg28 O35 1.986 . S
Mg28 O37 2.114 . S
Mg28 O38 2.251 . S
Mg28 O41 2.010 . S
O29 Mg28 2.028 . S
O29 C32 1.250 . S
O30 Mg31 2.028 . S
O30 C32 1.248 . S
Mg31 O30 2.028 . S
Mg31 O36 2.032 . S
Mg31 O38 2.079 . S
C32 O29 1.250 . S
C32 O30 1.248 . S
C33 O34 1.264 . S
C33 O41 1.249 . S
O34 C33 1.264 . S
O35 Mg28 1.986 . S
O35 C39 1.246 . S
O36 Mg31 2.032 . S
O36 C39 1.259 . S
O37 Mg28 2.114 . S
O37 C40 1.252 . S
O38 Mg28 2.251 . S
O38 Mg31 2.079 . S
O38 C40 1.273 . S
C39 O35 1.246 . S
C39 O36 1.259 . S
C40 O37 1.252 . S
C40 O38 1.273 . S
O41 Mg28 2.010 . S
O41 C33 1.249 . S
Mg42 O43 2.028 . S
Mg42 O49 1.986 . S
Mg42 O51 2.114 . S
Mg42 O52 2.251 . S
Mg42 O55 2.010 . S
O43 Mg42 2.028 . S
O43 C46 1.250 . S
O44 Mg45 2.028 . S
O44 C46 1.248 . S
Mg45 O44 2.028 . S
Mg45 O50 2.032 . S
Mg45 O52 2.079 . S
C46 O43 1.250 . S
C46 O44 1.248 . S
C47 O48 1.264 . S
C47 O55 1.249 . S
O48 C47 1.264 . S
O49 Mg42 1.986 . S
O49 C53 1.246 . S
O50 Mg45 2.032 . S
O50 C53 1.259 . S
O51 Mg42 2.114 . S
O51 C54 1.252 . S
O52 Mg42 2.251 . S
O52 Mg45 2.079 . S
O52 C54 1.273 . S
C53 O49 1.246 . S
C53 O50 1.259 . S
C54 O51 1.252 . S
C54 O52 1.273 . S
O55 Mg42 2.010 . S
O55 C47 1.249 . S
Mg56 O57 2.028 . S
Mg56 O63 1.986 . S
Mg56 O65 2.114 . S
Mg56 O66 2.251 . S
Mg56 O69 2.010 . S
O57 Mg56 2.028 . S
O57 C60 1.250 . S
O58 Mg59 2.028 . S
O58 C60 1.248 . S
Mg59 O58 2.028 . S
Mg59 O64 2.032 . S
Mg59 O66 2.079 . S
C60 O57 1.250 . S
C60 O58 1.248 . S
C61 O62 1.264 . S
C61 O69 1.249 . S
O62 C61 1.264 . S
O63 Mg56 1.986 . S
O63 C67 1.246 . S
O64 Mg59 2.032 . S
O64 C67 1.259 . S
O65 Mg56 2.114 . S
O65 C68 1.252 . S
O66 Mg56 2.251 . S
O66 Mg59 2.079 . S
O66 C68 1.273 . S
C67 O63 1.246 . S
C67 O64 1.259 . S
C68 O65 1.252 . S
C68 O66 1.273 . S
O69 Mg56 2.010 . S
O69 C61 1.249 . S
Mg70 O71 2.028 . S
Mg70 O77 1.986 . S
Mg70 O79 2.114 . S
Mg70 O80 2.251 . S
Mg70 O83 2.010 . S
O71 Mg70 2.028 . S
O71 C74 1.250 . S
O72 Mg73 2.028 . S
O72 C74 1.248 . S
Mg73 O72 2.028 . S
Mg73 O78 2.032 . S
Mg73 O80 2.079 . S
C74 O71 1.250 . S
C74 O72 1.248 . S
C75 O76 1.264 . S
C75 O83 1.249 . S
O76 C75 1.264 . S
O77 Mg70 1.986 . S
O77 C81 1.246 . S
O78 Mg73 2.032 . S
O78 C81 1.259 . S
O79 Mg70 2.114 . S
O79 C82 1.252 . S
O80 Mg70 2.251 . S
O80 Mg73 2.079 . S
O80 C82 1.273 . S
C81 O77 1.246 . S
C81 O78 1.259 . S
C82 O79 1.252 . S
C82 O80 1.273 . S
O83 Mg70 2.010 . S
O83 C75 1.249 . S
C84 C85 1.170 . S
C84 C86 1.380 . S
C85 C84 1.170 . S
C86 C84 1.380 . S
C86 C87 1.170 . S
C87 C86 1.170 . S
C88 C89 1.170 . S
C88 C90 1.380 . S
C89 C88 1.170 . S
C90 C88 1.380 . S
C90 C91 1.170 . S
C91 C90 1.170 . S
C92 C93 1.170 . S
C92 C94 1.380 . S
C93 C92 1.170 . S
C94 C92 1.380 . S
C94 C95 1.170 . S
C95 C94 1.170 . S
C96 C97 1.170 . S
C96 C98 1.380 . S
C97 C96 1.170 . S
C98 C96 1.380 . S
C98 C99 1.170 . S
C99 C98 1.170 . S
C100 C101 1.170 . S
C100 C102 1.380 . S
C101 C100 1.170 . S
C102 C100 1.380 . S
C102 C103 1.170 . S
C103 C102 1.170 . S
C104 C105 1.170 . S
C104 C106 1.380 . S
C105 C104 1.170 . S
C106 C104 1.380 . S
C106 C107 1.170 . S
C107 C106 1.170 . S
C108 C109 1.170 . S
C108 C110 1.380 1_566 S
C109 C108 1.170 . S
C110 C108 1.380 1_544 S
C110 C111 1.170 . S
C111 C110 1.170 . S
C112 C113 1.170 . S
C112 C114 1.380 . S
C113 C112 1.170 . S
C114 C112 1.380 . S
C114 C115 1.170 . S
C115 C114 1.170 . S
C116 C117 1.170 . S
C116 C118 1.380 1_456 S
C117 C116 1.170 . S
C118 C116 1.380 1_654 S
C118 C119 1.170 . S
C119 C118 1.170 . S
C120 C121 1.170 . S
C120 C122 1.380 1_545 S
C121 C120 1.170 . S
C122 C120 1.380 1_565 S
C122 C123 1.170 . S
C123 C122 1.170 . S
C124 C125 1.170 . S
C124 C126 1.380 1_556 S
C125 C124 1.170 . S
C126 C124 1.380 1_554 S
C126 C127 1.170 . S
C127 C126 1.170 . S
C128 C129 1.170 . S
C128 C130 1.380 1_455 S
C129 C128 1.170 . S
C130 C128 1.380 1_655 S
C130 C131 1.170 . S
C131 C130 1.170 . S
C85 C5 1.128 . S
C87 C60 1.162 . S
C89 C19 1.231 . S
C91 C75 1.205 . S
C93 C4 1.178 . S
C95 C32 1.185 . S
C97 C47 1.116 . S
C99 C18 1.160 . S
C101 C61 1.218 . S
C103 C33 1.185 . S
C105 C46 1.188 . S
C107 C74 1.194 . S
C109 C54 1.448 . S
C111 C11 1.394 . S
C113 C68 1.475 . S
C115 C25 1.422 . S
C117 C81 1.395 . S
C119 C40 1.470 . S
C121 C12 1.451 . S
C123 C53 1.385 . S
C125 C26 1.468 . S
C127 C67 1.437 . S
C129 C82 1.454 . S
C131 C39 1.430 . S
