# Generated by pormake.
# Topology hex, (8)-cn, num edge types: 1
# Building blocks:
#     Node 0, Type 0, BuildingBlock: HISSIN_clean_sbu_1, # of connection points: 8
#     Edge 1, Type (0, 0), BuildingBlock: AJUNOK_clean_linker_0, # of connection points: 2
#     Edge 2, Type (0, 0), BuildingBlock: AJUNOK_clean_linker_0, # of connection points: 2
#     Edge 3, Type (0, 0), BuildingBlock: AJUNOK_clean_linker_0, # of connection points: 2
#     Edge 4, Type (0, 0), BuildingBlock: AJUNOK_clean_linker_0, # of connection points: 2
# Relax obj value: 0.034
# Max RMSD: 0.092
# Mean RMSD: 0.092
data_MOF--net-hex--node1-HISSIN_clean_sbu_1--edge1-AJUNOK_clean_linker_0
_symmetry_space_group_name_H-M    P1
_symmetry_Int_Tables_number       1
_symmetry_cell_setting            triclinic
loop_
_symmetry_equiv_pos_as_xyz
'x, y, z'
_cell_length_a     17.492413
_cell_length_b     14.537713
_cell_length_c     10.88961
_cell_angle_alpha  111.77717
_cell_angle_beta   102.80328
_cell_angle_gamma 111.49571
loop_
_atom_site_label
_atom_site_type_symbol
_atom_site_fract_x
_atom_site_fract_y
_atom_site_fract_z
_atom_type_partial_charge
Eu0 Eu 0.11266 0.14481 0.06988 0.0
C1 C 1.03404 0.97457 0.73499 0.0
O2 O 0.11445 0.3048 0.08323 0.0
C3 C 0.74875 0.81162 0.90303 0.0
C4 C 0.60046 0.76262 0.97677 0.0
C5 C 0.71402 0.71762 0.92448 0.0
C6 C 0.63933 0.69263 0.96056 0.0
C7 C 0.70826 0.88053 0.91877 0.0
C8 C 0.6332 0.85529 0.95383 0.0
Eu9 Eu 0.97838 0.8442 0.89958 0.0
O10 O 0.05498 0.09658 0.21608 0.0
O11 O 0.9701 0.68205 0.88828 0.0
O12 O 1.03716 0.89185 0.75473 0.0
O13 O 0.06903 0.93786 0.13582 0.0
C14 C 1.04392 0.68065 0.94674 0.0
O15 O 0.12251 0.77166 -0.0011 0.0
O16 O 0.89995 0.92978 0.94569 0.0
C17 C 0.82289 0.83516 0.8547 0.0
C18 C 1.03794 0.30137 0.02621 0.0
O19 O 0.96194 0.20663 0.97314 0.0
O20 O 0.83262 0.74829 0.78106 0.0
O21 O 1.02654 0.0539 0.8312 0.0
C22 C 0.27037 0.15995 0.11911 0.0
O23 O 0.19431 0.06292 0.03271 0.0
C24 C 0.34457 0.1803 0.07049 0.0
C25 C 0.49276 0.22223 -0.00375 0.0
C26 C 0.38188 0.27358 0.04847 0.0
C27 C 0.45583 0.29418 0.01042 0.0
C28 C 0.38218 0.10819 0.05416 0.0
C29 C 0.45667 0.12927 0.0176 0.0
C30 C 0.05695 0.01167 0.23117 0.0
O31 O 0.25872 0.24686 0.18516 0.0
H32 H 0.54288 0.74333 0.00465 0.0
H33 H 0.74429 0.66352 0.91197 0.0
H34 H 0.7335 0.95174 0.89962 0.0
H35 H 0.55093 0.2395 0.96986 0.0
H36 H 0.354 0.33023 0.0614 0.0
H37 H 0.35505 0.03758 0.07383 0.0
C38 C 0.11838 0.48886 0.03642 0.0
C39 C 1.03748 0.3986 0.00957 0.0
C40 C 0.11938 0.57846 0.01429 0.0
C41 C 1.03951 0.58198 0.96413 0.0
H42 H 0.18171 0.48998 0.07333 0.0
H43 H 0.18364 0.64542 0.03643 0.0
S44 S 0.80986 0.3699 0.88499 0.0
N45 N 0.87529 0.32081 0.93496 0.0
N46 N 0.8773 0.48865 0.89333 0.0
C47 C 0.95813 0.49296 0.93836 0.0
C48 C 0.95708 0.40166 0.96118 0.0
C49 C 0.63687 0.04266 0.05684 0.0
C50 C 0.58717 0.92384 0.96529 0.0
C51 C 0.59371 0.10798 0.07578 0.0
C52 C 0.49936 0.05684 0.00356 0.0
H53 H 0.70938 0.08514 0.11606 0.0
H54 H 0.6345 0.19939 0.14782 0.0
S55 S 0.33958 0.74972 0.74387 0.0
N56 N 0.43916 0.75804 0.79628 0.0
N57 N 0.35826 0.88127 0.83229 0.0
C58 C 0.44904 0.9383 0.91076 0.0
C59 C 0.49292 0.87176 0.89124 0.0
C60 C 0.52933 0.50403 0.10486 0.0
C61 C 0.49913 0.39411 -0.00729 0.0
C62 C 0.57746 0.60051 0.09577 0.0
C63 C 0.59705 0.59034 0.97425 0.0
H64 H 0.51712 0.51561 0.20142 0.0
H65 H 0.59939 0.68387 0.18434 0.0
S66 S 0.52808 0.32096 0.64777 0.0
N67 N 0.48903 0.27996 0.75414 0.0
N68 N 0.57945 0.46167 0.73711 0.0
C69 C 0.56677 0.48088 0.86106 0.0
C70 C 0.51762 0.38266 0.87013 0.0
C71 C 0.05857 0.0831 0.60315 0.0
C72 C 1.03774 0.98003 0.60379 0.0
C73 C 0.06377 0.09256 0.48175 0.0
C74 C 0.04855 -0.00061 0.3567 0.0
H75 H 0.07213 0.15795 0.69789 0.0
H76 H 0.08114 0.17393 0.48698 0.0
S77 S 0.98436 0.70772 0.29831 0.0
N78 N 0.99725 0.78131 0.46607 0.0
N79 N 1.00628 0.79835 0.23707 0.0
C80 C 1.02581 0.89498 0.35463 0.0
C81 C 1.02072 0.88551 0.47848 0.0
loop_
_geom_bond_atom_site_label_1
_geom_bond_atom_site_label_2
_geom_bond_distance
_geom_bond_site_symmetry_2
_ccdc_geom_bond_type
Eu0 O2 2.323 . S
Eu0 O10 2.328 . S
Eu0 O21 2.316 1_554 S
Eu0 C22 2.837 . S
Eu0 O23 2.488 . S
Eu0 O31 2.461 . S
C1 O12 1.251 . S
C1 O21 1.237 1_665 S
O2 Eu0 2.323 . S
O2 C18 1.279 1_455 S
C3 C5 1.383 . S
C3 C7 1.388 . S
C3 C17 1.491 . S
C4 C6 1.403 . S
C4 C8 1.385 1_554 S
C4 H32 0.931 . S
C5 C3 1.383 . S
C5 C6 1.393 1_556 S
C5 H33 0.930 . S
C6 C4 1.403 . S
C6 C5 1.393 1_554 S
C7 C3 1.388 . S
C7 C8 1.394 . S
C7 H34 0.930 . S
C8 C4 1.385 1_556 S
C8 C7 1.394 . S
Eu9 O11 2.323 . S
Eu9 O12 2.328 . S
Eu9 O13 2.316 1_556 S
Eu9 O16 2.488 . S
Eu9 C17 2.837 . S
Eu9 O20 2.461 . S
O10 Eu0 2.328 . S
O10 C30 1.251 . S
O11 Eu9 2.323 . S
O11 C14 1.279 1_655 S
O12 C1 1.251 . S
O12 Eu9 2.328 . S
O13 Eu9 2.316 1_554 S
O13 C30 1.237 1_665 S
C14 O11 1.279 1_455 S
C14 O15 1.244 . S
O15 C14 1.244 . S
O16 Eu9 2.488 . S
O16 C17 1.271 . S
C17 C3 1.491 . S
C17 Eu9 2.837 . S
C17 O16 1.271 . S
C17 O20 1.261 . S
C18 O2 1.279 1_655 S
C18 O19 1.244 . S
O19 C18 1.244 . S
O20 Eu9 2.461 . S
O20 C17 1.261 . S
O21 Eu0 2.316 1_556 S
O21 C1 1.237 1_445 S
C22 Eu0 2.837 . S
C22 O23 1.271 . S
C22 C24 1.491 . S
C22 O31 1.261 . S
O23 Eu0 2.488 . S
O23 C22 1.271 . S
C24 C22 1.491 . S
C24 C26 1.383 . S
C24 C28 1.388 . S
C25 C27 1.403 . S
C25 C29 1.385 1_556 S
C25 H35 0.931 . S
C26 C24 1.383 . S
C26 C27 1.393 1_554 S
C26 H36 0.930 . S
C27 C25 1.403 . S
C27 C26 1.393 1_556 S
C28 C24 1.388 . S
C28 C29 1.394 . S
C28 H37 0.930 . S
C29 C25 1.385 1_554 S
C29 C28 1.394 . S
C30 O10 1.251 . S
C30 O13 1.237 1_445 S
O31 Eu0 2.461 . S
O31 C22 1.261 . S
H32 C4 0.931 . S
H33 C5 0.930 . S
H34 C7 0.930 . S
H35 C25 0.931 . S
H36 C26 0.930 . S
H37 C28 0.930 . S
C38 C39 1.369 1_455 S
C38 C40 1.419 . S
C38 H42 0.930 . S
C39 C38 1.369 1_655 S
C39 C48 1.429 1_554 S
C40 C38 1.419 . S
C40 C41 1.363 1_554 S
C40 H43 0.929 . S
C41 C40 1.363 1_556 S
C41 C47 1.428 1_455 S
H42 C38 0.930 . S
H43 C40 0.929 . S
S44 N45 1.613 . S
S44 N46 1.610 . S
N45 S44 1.613 . S
N45 C48 1.350 . S
N46 S44 1.610 . S
N46 C47 1.351 . S
C47 C41 1.428 1_655 S
C47 N46 1.351 . S
C47 C48 1.434 . S
C48 C39 1.429 1_556 S
C48 N45 1.350 . S
C48 C47 1.434 . S
C49 C50 1.369 1_544 S
C49 C51 1.419 . S
C49 H53 0.930 . S
C50 C49 1.369 1_566 S
C50 C59 1.429 . S
C51 C49 1.419 . S
C51 C52 1.363 . S
C51 H54 0.929 . S
C52 C51 1.363 . S
C52 C58 1.428 1_544 S
H53 C49 0.930 . S
H54 C51 0.929 . S
S55 N56 1.613 . S
S55 N57 1.610 . S
N56 S55 1.613 . S
N56 C59 1.350 . S
N57 S55 1.610 . S
N57 C58 1.351 . S
C58 C52 1.428 1_566 S
C58 N57 1.351 . S
C58 C59 1.434 . S
C59 C50 1.429 . S
C59 N56 1.350 . S
C59 C58 1.434 . S
C60 C61 1.369 1_554 S
C60 C62 1.419 . S
C60 H64 0.930 . S
C61 C60 1.369 1_556 S
C61 C70 1.429 . S
C62 C60 1.419 . S
C62 C63 1.363 . S
C62 H65 0.929 . S
C63 C62 1.363 . S
C63 C69 1.428 1_554 S
H64 C60 0.930 . S
H65 C62 0.929 . S
S66 N67 1.613 . S
S66 N68 1.610 . S
N67 S66 1.613 . S
N67 C70 1.350 . S
N68 S66 1.610 . S
N68 C69 1.351 . S
C69 C63 1.428 1_556 S
C69 N68 1.351 . S
C69 C70 1.434 . S
C70 C61 1.429 . S
C70 N67 1.350 . S
C70 C69 1.434 . S
C71 C72 1.370 1_445 S
C71 C73 1.419 . S
C71 H75 0.930 . S
C72 C71 1.370 1_665 S
C72 C81 1.429 . S
C73 C71 1.419 . S
C73 C74 1.359 1_445 S
C73 H76 0.929 . S
C74 C73 1.359 1_665 S
C74 C80 1.438 . S
H75 C71 0.930 . S
H76 C73 0.929 . S
S77 N78 1.613 . S
S77 N79 1.610 . S
N78 S77 1.613 . S
N78 C81 1.350 . S
N79 S77 1.610 . S
N79 C80 1.351 . S
C80 C74 1.438 . S
C80 N79 1.351 . S
C80 C81 1.434 . S
C81 C72 1.429 . S
C81 N78 1.350 . S
C81 C80 1.434 . S
C39 C18 0.631 . S
C41 C14 0.622 . S
C50 C8 2.035 . S
C52 C29 2.038 . S
C61 C27 1.852 . S
C63 C6 1.848 . S
C72 C1 1.488 . S
C74 C30 1.486 1_665 S
