# Generated by pormake.
# Topology uof, (4)-cn, num edge types: 1
# Building blocks:
#     Node 0, Type 0, BuildingBlock: QUQFOY_clean_sbu_1, # of connection points: 4
#     Node 1, Type 0, BuildingBlock: QUQFOY_clean_sbu_1, # of connection points: 4
#     Node 2, Type 0, BuildingBlock: QUQFOY_clean_sbu_1, # of connection points: 4
#     Node 3, Type 0, BuildingBlock: QUQFOY_clean_sbu_1, # of connection points: 4
#     Node 4, Type 0, BuildingBlock: QUQFOY_clean_sbu_1, # of connection points: 4
#     Node 5, Type 0, BuildingBlock: QUQFOY_clean_sbu_1, # of connection points: 4
#     Node 6, Type 0, BuildingBlock: QUQFOY_clean_sbu_1, # of connection points: 4
#     Node 7, Type 0, BuildingBlock: QUQFOY_clean_sbu_1, # of connection points: 4
#     Node 8, Type 0, BuildingBlock: QUQFOY_clean_sbu_1, # of connection points: 4
#     Node 9, Type 0, BuildingBlock: QUQFOY_clean_sbu_1, # of connection points: 4
#     Node 10, Type 0, BuildingBlock: QUQFOY_clean_sbu_1, # of connection points: 4
#     Node 11, Type 0, BuildingBlock: QUQFOY_clean_sbu_1, # of connection points: 4
#     Edge 12, Type (0, 0), None
#     Edge 13, Type (0, 0), None
#     Edge 14, Type (0, 0), None
#     Edge 15, Type (0, 0), None
#     Edge 16, Type (0, 0), None
#     Edge 17, Type (0, 0), None
#     Edge 18, Type (0, 0), None
#     Edge 19, Type (0, 0), None
#     Edge 20, Type (0, 0), None
#     Edge 21, Type (0, 0), None
#     Edge 22, Type (0, 0), None
#     Edge 23, Type (0, 0), None
#     Edge 24, Type (0, 0), None
#     Edge 25, Type (0, 0), None
#     Edge 26, Type (0, 0), None
#     Edge 27, Type (0, 0), None
#     Edge 28, Type (0, 0), None
#     Edge 29, Type (0, 0), None
#     Edge 30, Type (0, 0), None
#     Edge 31, Type (0, 0), None
#     Edge 32, Type (0, 0), None
#     Edge 33, Type (0, 0), None
#     Edge 34, Type (0, 0), None
#     Edge 35, Type (0, 0), None
# Relax obj value: 0.112
# Max RMSD: 0.133
# Mean RMSD: 0.133
data_MOF--net-uof--node1-QUQFOY_clean_sbu_1--edge1-none
_symmetry_space_group_name_H-M    P1
_symmetry_Int_Tables_number       1
_symmetry_cell_setting            triclinic
loop_
_symmetry_equiv_pos_as_xyz
'x, y, z'
_cell_length_a     14.703337
_cell_length_b     14.703575
_cell_length_c     34.940788
_cell_angle_alpha  89.999588
_cell_angle_beta   90.000205
_cell_angle_gamma 119.99907
loop_
_atom_site_label
_atom_site_type_symbol
_atom_site_fract_x
_atom_site_fract_y
_atom_site_fract_z
_atom_type_partial_charge
O0 O 0.43956 0.38477 0.23623 0.0
Cd1 Cd 0.29358 0.27668 0.2568 0.0
Cd2 Cd 0.23842 0.36337 0.19665 0.0
O3 O 0.39074 0.48853 0.20805 0.0
O4 O 0.32529 0.22791 0.3058 0.0
O5 O 0.23407 0.31039 0.3028 0.0
C6 C 0.27602 0.26764 0.32314 0.0
C7 C 0.07407 0.34618 0.18369 0.0
C8 C 0.46292 0.47077 0.21993 0.0
C9 C 0.21494 0.15174 0.18873 0.0
O10 O 0.23883 0.23773 0.17243 0.0
O11 O 0.21286 0.14455 0.22488 0.0
O12 O 0.14879 0.3868 0.15869 0.0
O13 O 0.0977 0.33053 0.21785 0.0
O14 O 0.06709 0.43345 0.56956 0.0
Cd15 Cd 0.02922 0.28747 0.59012 0.0
Cd16 Cd 0.88737 0.23232 0.52997 0.0
O17 O 0.91453 0.38464 0.54137 0.0
O18 O 0.10969 0.31916 0.63913 0.0
O19 O 0.93598 0.22794 0.63612 0.0
C20 C 0.02069 0.26989 0.65647 0.0
C21 C 0.74021 0.06797 0.51701 0.0
C22 C 1.00447 0.45682 0.55325 0.0
C23 C 0.07553 0.20884 0.52206 0.0
O24 O 1.01342 0.23272 0.50576 0.0
O25 O 0.08062 0.20675 0.55821 0.0
O26 O 0.77431 0.14269 0.49201 0.0
O27 O 0.77948 0.09159 0.55117 0.0
O28 O 0.64597 0.061 0.90291 0.0
Cd29 Cd 0.75408 0.02313 0.92347 0.0
Cd30 Cd 0.66737 0.88127 0.86333 0.0
O31 O 0.54221 0.90842 0.87473 0.0
O32 O 0.80286 0.10361 0.97247 0.0
O33 O 0.72038 0.9299 0.96947 0.0
C34 C 0.76313 0.01461 0.98981 0.0
C35 C 0.68456 0.73411 0.85036 0.0
C36 C 0.55997 0.99836 0.88661 0.0
C37 C 0.879 0.06942 0.8554 0.0
O38 O 0.793 1.00731 0.8391 0.0
O39 O 0.8862 0.07453 0.89155 0.0
O40 O 0.64394 0.76821 0.82536 0.0
O41 O 0.70022 0.77338 0.88451 0.0
O42 O 0.59728 0.63986 0.23623 0.0
Cd43 Cd 0.74326 0.74796 0.2568 0.0
Cd44 Cd 0.79842 0.66126 0.19665 0.0
O45 O 0.6461 0.5361 0.20805 0.0
O46 O 0.71155 0.79673 0.3058 0.0
O47 O 0.80277 0.71424 0.3028 0.0
C48 C 0.76082 0.75699 0.32314 0.0
C49 C 0.96277 0.67845 0.18369 0.0
C50 C 0.57392 0.55387 0.21992 0.0
C51 C 0.8219 0.87289 0.18873 0.0
O52 O 0.79801 0.7869 0.17243 0.0
O53 O 0.82399 0.88008 0.22488 0.0
O54 O 0.88805 0.63783 0.15869 0.0
O55 O 0.93914 0.69409 0.21785 0.0
O56 O 0.96975 0.59118 0.56956 0.0
Cd57 Cd 1.00763 0.73716 0.59013 0.0
Cd58 Cd 0.14947 0.79231 0.52997 0.0
O59 O 0.12231 0.63998 0.54137 0.0
O60 O 0.92715 0.70547 0.63913 0.0
O61 O 0.10086 0.79668 0.63613 0.0
C62 C 1.01615 0.75474 0.65647 0.0
C63 C 0.29664 0.95666 0.51701 0.0
C64 C 0.03237 0.56781 0.55325 0.0
C65 C 0.96132 0.81579 0.52206 0.0
O66 O 0.02343 0.79191 0.50576 0.0
O67 O 0.95622 0.81788 0.55821 0.0
O68 O 0.26253 0.88194 0.49201 0.0
O69 O 0.25737 0.93303 0.55117 0.0
O70 O 0.39087 0.96362 0.90291 0.0
Cd71 Cd 0.28276 1.00149 0.92347 0.0
Cd72 Cd 0.36947 0.14336 0.86333 0.0
O73 O 0.49464 0.1162 0.87473 0.0
O74 O 0.23398 0.92101 0.97248 0.0
O75 O 0.31646 0.09472 0.96947 0.0
C76 C 0.27371 1.01001 0.98982 0.0
C77 C 0.35228 0.29052 0.85036 0.0
C78 C 0.47687 0.02626 0.8866 0.0
C79 C 0.15785 0.9552 0.8554 0.0
O80 O 0.24384 0.01732 0.8391 0.0
O81 O 0.15064 0.9501 0.89155 0.0
O82 O 0.39291 0.25642 0.82536 0.0
O83 O 0.33663 0.25125 0.88451 0.0
O84 O 0.64596 0.59117 0.45196 0.0
Cd85 Cd 0.75407 0.73714 0.43139 0.0
Cd86 Cd 0.66737 0.79232 0.49155 0.0
O87 O 0.54221 0.63999 0.48015 0.0
O88 O 0.80284 0.70542 0.38239 0.0
O89 O 0.72036 0.79665 0.38539 0.0
C90 C 0.76311 0.75469 0.36505 0.0
C91 C 0.68456 0.95664 0.50451 0.0
C92 C 0.55997 0.56781 0.46827 0.0
C93 C 0.87901 0.81582 0.49946 0.0
O94 O 0.79302 0.79192 0.51576 0.0
O95 O 0.8862 0.81787 0.46331 0.0
O96 O 0.64393 0.88193 0.52951 0.0
O97 O 0.7002 0.93304 0.47035 0.0
O98 O 0.06711 0.63986 0.78529 0.0
Cd99 Cd 0.02927 0.74798 0.76472 0.0
Cd100 Cd 0.88737 0.66127 0.82488 0.0
O101 O 0.91454 0.53611 0.81347 0.0
O102 O 0.10975 0.79675 0.71571 0.0
O103 O 0.93604 0.71429 0.71872 0.0
C104 C 0.02075 0.75703 0.69838 0.0
C105 C 0.74024 0.67846 0.83785 0.0
C106 C 1.00447 0.55386 0.80159 0.0
C107 C 0.07552 0.87291 0.83279 0.0
O108 O 1.01342 0.78692 0.84909 0.0
O109 O 0.08068 0.8801 0.79664 0.0
O110 O 0.77433 0.63783 0.86285 0.0
O111 O 0.77948 0.69411 0.80369 0.0
O112 O 0.43956 0.06099 0.11863 0.0
Cd113 Cd 0.29358 0.02313 0.09806 0.0
Cd114 Cd 0.23842 0.88126 0.15822 0.0
O115 O 0.39075 0.90843 0.14682 0.0
O116 O 0.32529 0.10361 0.04906 0.0
O117 O 0.23405 0.9299 0.05207 0.0
C118 C 0.27601 0.01461 0.03172 0.0
C119 C 0.0741 0.73413 0.17118 0.0
C120 C 0.46292 0.99836 0.13494 0.0
C121 C 0.21492 0.0694 0.16613 0.0
O122 O 0.23881 1.00731 0.18244 0.0
O123 O 0.21287 0.07454 0.12998 0.0
O124 O 0.14881 0.76822 0.19619 0.0
O125 O 0.0977 0.77337 0.13703 0.0
O126 O 0.39087 0.43346 0.45196 0.0
Cd127 Cd 0.28277 0.28749 0.43139 0.0
Cd128 Cd 0.36948 0.23231 0.49155 0.0
O129 O 0.49463 0.38464 0.48015 0.0
O130 O 0.234 0.31921 0.38239 0.0
O131 O 0.31648 0.22798 0.38539 0.0
C132 C 0.27373 0.26994 0.36505 0.0
C133 C 0.35228 0.06799 0.50451 0.0
C134 C 0.47687 0.45682 0.46827 0.0
C135 C 0.15783 0.20881 0.49946 0.0
O136 O 0.24382 0.2327 0.51576 0.0
O137 O 0.15064 0.20676 0.46331 0.0
O138 O 0.39291 0.14269 0.52951 0.0
O139 O 0.33665 0.09159 0.47035 0.0
O140 O 0.96973 0.38477 0.78528 0.0
Cd141 Cd 1.00757 0.27664 0.76472 0.0
Cd142 Cd 0.14947 0.36336 0.82488 0.0
O143 O 0.1223 0.48851 0.81347 0.0
O144 O 0.92709 0.22787 0.71571 0.0
O145 O 0.1008 0.31034 0.71872 0.0
C146 C 1.01609 0.2676 0.69837 0.0
C147 C 0.2966 0.34617 0.83785 0.0
C148 C 0.03236 0.47076 0.80159 0.0
C149 C 0.96132 0.15172 0.83279 0.0
O150 O 0.02343 0.23771 0.84909 0.0
O151 O 0.95617 0.14453 0.79664 0.0
O152 O 0.26251 0.3868 0.86285 0.0
O153 O 0.25737 0.33052 0.80369 0.0
O154 O 0.59728 0.96363 0.11863 0.0
Cd155 Cd 0.74326 1.00149 0.09806 0.0
Cd156 Cd 0.79842 0.14337 0.15822 0.0
O157 O 0.64609 0.11619 0.14683 0.0
O158 O 0.71155 0.92101 0.04906 0.0
O159 O 0.80279 0.09472 0.05206 0.0
C160 C 0.76083 1.01002 0.03172 0.0
C161 C 0.96274 0.2905 0.17119 0.0
C162 C 0.57392 0.02626 0.13494 0.0
C163 C 0.82193 0.95523 0.16613 0.0
O164 O 0.79804 0.01732 0.18244 0.0
O165 O 0.82398 0.95009 0.12998 0.0
O166 O 0.88803 0.25641 0.19619 0.0
O167 O 0.93914 0.25126 0.13703 0.0
loop_
_geom_bond_atom_site_label_1
_geom_bond_atom_site_label_2
_geom_bond_distance
_geom_bond_site_symmetry_2
_ccdc_geom_bond_type
O0 Cd1 2.223 . S
O0 C8 1.315 . S
Cd1 O0 2.223 . S
Cd1 O4 2.297 . S
Cd1 O5 2.439 . S
Cd1 O11 2.240 . S
Cd2 O3 2.240 . S
Cd2 O10 2.223 . S
Cd2 O12 2.297 . S
Cd2 O13 2.439 . S
O3 Cd2 2.240 . S
O3 C8 1.279 . S
O4 Cd1 2.297 . S
O4 C6 1.247 . S
O5 Cd1 2.439 . S
O5 C6 1.208 . S
C6 O4 1.247 . S
C6 O5 1.208 . S
C7 O12 1.247 . S
C7 O13 1.208 . S
C8 O0 1.315 . S
C8 O3 1.279 . S
C9 O10 1.315 . S
C9 O11 1.279 . S
O10 Cd2 2.223 . S
O10 C9 1.315 . S
O11 Cd1 2.240 . S
O11 C9 1.279 . S
O12 Cd2 2.297 . S
O12 C7 1.247 . S
O13 Cd2 2.439 . S
O13 C7 1.208 . S
O14 Cd15 2.223 . S
O14 C22 1.315 . S
Cd15 O14 2.223 . S
Cd15 O18 2.297 . S
Cd15 O19 2.439 1_455 S
Cd15 O25 2.240 . S
Cd16 O17 2.240 . S
Cd16 O24 2.223 1_655 S
Cd16 O26 2.297 . S
Cd16 O27 2.439 . S
O17 Cd16 2.240 . S
O17 C22 1.279 1_655 S
O18 Cd15 2.297 . S
O18 C20 1.247 1_455 S
O19 Cd15 2.439 1_655 S
O19 C20 1.208 . S
C20 O18 1.247 1_655 S
C20 O19 1.208 . S
C21 O26 1.247 . S
C21 O27 1.208 . S
C22 O14 1.315 . S
C22 O17 1.279 1_455 S
C23 O24 1.315 . S
C23 O25 1.279 . S
O24 Cd16 2.223 1_455 S
O24 C23 1.315 . S
O25 Cd15 2.240 . S
O25 C23 1.279 . S
O26 Cd16 2.297 . S
O26 C21 1.247 . S
O27 Cd16 2.439 . S
O27 C21 1.208 . S
O28 Cd29 2.223 . S
O28 C36 1.315 . S
Cd29 O28 2.223 . S
Cd29 O32 2.297 . S
Cd29 O33 2.439 1_545 S
Cd29 O39 2.240 . S
Cd30 O31 2.240 . S
Cd30 O38 2.223 1_565 S
Cd30 O40 2.297 . S
Cd30 O41 2.439 . S
O31 Cd30 2.240 . S
O31 C36 1.279 1_565 S
O32 Cd29 2.297 . S
O32 C34 1.247 1_545 S
O33 Cd29 2.439 1_565 S
O33 C34 1.208 . S
C34 O32 1.247 1_565 S
C34 O33 1.208 . S
C35 O40 1.247 . S
C35 O41 1.208 . S
C36 O28 1.315 . S
C36 O31 1.279 1_545 S
C37 O38 1.315 . S
C37 O39 1.279 . S
O38 Cd30 2.223 1_545 S
O38 C37 1.315 . S
O39 Cd29 2.240 . S
O39 C37 1.279 . S
O40 Cd30 2.297 . S
O40 C35 1.247 . S
O41 Cd30 2.439 . S
O41 C35 1.208 . S
O42 Cd43 2.223 . S
O42 C50 1.315 . S
Cd43 O42 2.223 . S
Cd43 O46 2.297 . S
Cd43 O47 2.439 . S
Cd43 O53 2.240 . S
Cd44 O45 2.240 . S
Cd44 O52 2.223 . S
Cd44 O54 2.297 . S
Cd44 O55 2.439 . S
O45 Cd44 2.240 . S
O45 C50 1.279 . S
O46 Cd43 2.297 . S
O46 C48 1.247 . S
O47 Cd43 2.439 . S
O47 C48 1.208 . S
C48 O46 1.247 . S
C48 O47 1.208 . S
C49 O54 1.247 . S
C49 O55 1.208 . S
C50 O42 1.315 . S
C50 O45 1.279 . S
C51 O52 1.315 . S
C51 O53 1.279 . S
O52 Cd44 2.223 . S
O52 C51 1.315 . S
O53 Cd43 2.240 . S
O53 C51 1.279 . S
O54 Cd44 2.297 . S
O54 C49 1.247 . S
O55 Cd44 2.439 . S
O55 C49 1.208 . S
O56 Cd57 2.223 . S
O56 C64 1.315 . S
Cd57 O56 2.223 . S
Cd57 O60 2.297 . S
Cd57 O61 2.439 1_655 S
Cd57 O67 2.240 . S
Cd58 O59 2.240 . S
Cd58 O66 2.223 1_455 S
Cd58 O68 2.297 . S
Cd58 O69 2.439 . S
O59 Cd58 2.240 . S
O59 C64 1.279 1_455 S
O60 Cd57 2.297 . S
O60 C62 1.247 1_655 S
O61 Cd57 2.439 1_455 S
O61 C62 1.208 . S
C62 O60 1.247 1_455 S
C62 O61 1.208 . S
C63 O68 1.247 . S
C63 O69 1.208 . S
C64 O56 1.315 . S
C64 O59 1.279 1_655 S
C65 O66 1.315 . S
C65 O67 1.279 . S
O66 Cd58 2.223 1_655 S
O66 C65 1.315 . S
O67 Cd57 2.240 . S
O67 C65 1.279 . S
O68 Cd58 2.297 . S
O68 C63 1.247 . S
O69 Cd58 2.439 . S
O69 C63 1.208 . S
O70 Cd71 2.223 . S
O70 C78 1.315 . S
Cd71 O70 2.223 . S
Cd71 O74 2.297 . S
Cd71 O75 2.439 1_565 S
Cd71 O81 2.240 . S
Cd72 O73 2.240 . S
Cd72 O80 2.223 1_545 S
Cd72 O82 2.297 . S
Cd72 O83 2.439 . S
O73 Cd72 2.240 . S
O73 C78 1.279 1_545 S
O74 Cd71 2.297 . S
O74 C76 1.247 1_565 S
O75 Cd71 2.439 1_545 S
O75 C76 1.208 . S
C76 O74 1.247 1_545 S
C76 O75 1.208 . S
C77 O82 1.247 . S
C77 O83 1.208 . S
C78 O70 1.315 . S
C78 O73 1.279 1_565 S
C79 O80 1.315 . S
C79 O81 1.279 . S
O80 Cd72 2.223 1_565 S
O80 C79 1.315 . S
O81 Cd71 2.240 . S
O81 C79 1.279 . S
O82 Cd72 2.297 . S
O82 C77 1.247 . S
O83 Cd72 2.439 . S
O83 C77 1.208 . S
O84 Cd85 2.223 . S
O84 C92 1.315 . S
Cd85 O84 2.223 . S
Cd85 O88 2.297 . S
Cd85 O89 2.439 . S
Cd85 O95 2.240 . S
Cd86 O87 2.240 . S
Cd86 O94 2.223 . S
Cd86 O96 2.297 . S
Cd86 O97 2.439 . S
O87 Cd86 2.240 . S
O87 C92 1.279 . S
O88 Cd85 2.297 . S
O88 C90 1.247 . S
O89 Cd85 2.439 . S
O89 C90 1.208 . S
C90 O88 1.247 . S
C90 O89 1.208 . S
C91 O96 1.247 . S
C91 O97 1.208 . S
C92 O84 1.315 . S
C92 O87 1.279 . S
C93 O94 1.315 . S
C93 O95 1.279 . S
O94 Cd86 2.223 . S
O94 C93 1.315 . S
O95 Cd85 2.240 . S
O95 C93 1.279 . S
O96 Cd86 2.297 . S
O96 C91 1.247 . S
O97 Cd86 2.439 . S
O97 C91 1.208 . S
O98 Cd99 2.223 . S
O98 C106 1.315 . S
Cd99 O98 2.223 . S
Cd99 O102 2.297 . S
Cd99 O103 2.439 1_455 S
Cd99 O109 2.240 . S
Cd100 O101 2.240 . S
Cd100 O108 2.223 1_655 S
Cd100 O110 2.297 . S
Cd100 O111 2.439 . S
O101 Cd100 2.240 . S
O101 C106 1.279 1_655 S
O102 Cd99 2.297 . S
O102 C104 1.247 1_455 S
O103 Cd99 2.439 1_655 S
O103 C104 1.208 . S
C104 O102 1.247 1_655 S
C104 O103 1.208 . S
C105 O110 1.247 . S
C105 O111 1.208 . S
C106 O98 1.315 . S
C106 O101 1.279 1_455 S
C107 O108 1.315 . S
C107 O109 1.279 . S
O108 Cd100 2.223 1_455 S
O108 C107 1.315 . S
O109 Cd99 2.240 . S
O109 C107 1.279 . S
O110 Cd100 2.297 . S
O110 C105 1.247 . S
O111 Cd100 2.439 . S
O111 C105 1.208 . S
O112 Cd113 2.223 . S
O112 C120 1.315 . S
Cd113 O112 2.223 . S
Cd113 O116 2.297 . S
Cd113 O117 2.439 1_545 S
Cd113 O123 2.240 . S
Cd114 O115 2.240 . S
Cd114 O122 2.223 1_565 S
Cd114 O124 2.297 . S
Cd114 O125 2.439 . S
O115 Cd114 2.240 . S
O115 C120 1.279 1_565 S
O116 Cd113 2.297 . S
O116 C118 1.247 1_545 S
O117 Cd113 2.439 1_565 S
O117 C118 1.208 . S
C118 O116 1.247 1_565 S
C118 O117 1.208 . S
C119 O124 1.247 . S
C119 O125 1.208 . S
C120 O112 1.315 . S
C120 O115 1.279 1_545 S
C121 O122 1.315 . S
C121 O123 1.279 . S
O122 Cd114 2.223 1_545 S
O122 C121 1.315 . S
O123 Cd113 2.240 . S
O123 C121 1.279 . S
O124 Cd114 2.297 . S
O124 C119 1.247 . S
O125 Cd114 2.439 . S
O125 C119 1.208 . S
O126 Cd127 2.223 . S
O126 C134 1.315 . S
Cd127 O126 2.223 . S
Cd127 O130 2.297 . S
Cd127 O131 2.439 . S
Cd127 O137 2.240 . S
Cd128 O129 2.240 . S
Cd128 O136 2.223 . S
Cd128 O138 2.297 . S
Cd128 O139 2.439 . S
O129 Cd128 2.240 . S
O129 C134 1.279 . S
O130 Cd127 2.297 . S
O130 C132 1.247 . S
O131 Cd127 2.439 . S
O131 C132 1.208 . S
C132 O130 1.247 . S
C132 O131 1.208 . S
C133 O138 1.247 . S
C133 O139 1.208 . S
C134 O126 1.315 . S
C134 O129 1.279 . S
C135 O136 1.315 . S
C135 O137 1.279 . S
O136 Cd128 2.223 . S
O136 C135 1.315 . S
O137 Cd127 2.240 . S
O137 C135 1.279 . S
O138 Cd128 2.297 . S
O138 C133 1.247 . S
O139 Cd128 2.439 . S
O139 C133 1.208 . S
O140 Cd141 2.223 . S
O140 C148 1.315 . S
Cd141 O140 2.223 . S
Cd141 O144 2.297 . S
Cd141 O145 2.439 1_655 S
Cd141 O151 2.240 . S
Cd142 O143 2.240 . S
Cd142 O150 2.223 1_455 S
Cd142 O152 2.297 . S
Cd142 O153 2.439 . S
O143 Cd142 2.240 . S
O143 C148 1.279 1_455 S
O144 Cd141 2.297 . S
O144 C146 1.247 1_655 S
O145 Cd141 2.439 1_455 S
O145 C146 1.208 . S
C146 O144 1.247 1_455 S
C146 O145 1.208 . S
C147 O152 1.247 . S
C147 O153 1.208 . S
C148 O140 1.315 . S
C148 O143 1.279 1_655 S
C149 O150 1.315 . S
C149 O151 1.279 . S
O150 Cd142 2.223 1_655 S
O150 C149 1.315 . S
O151 Cd141 2.240 . S
O151 C149 1.279 . S
O152 Cd142 2.297 . S
O152 C147 1.247 . S
O153 Cd142 2.439 . S
O153 C147 1.208 . S
O154 Cd155 2.223 . S
O154 C162 1.315 . S
Cd155 O154 2.223 . S
Cd155 O158 2.297 . S
Cd155 O159 2.439 1_565 S
Cd155 O165 2.240 . S
Cd156 O157 2.240 . S
Cd156 O164 2.223 1_545 S
Cd156 O166 2.297 . S
Cd156 O167 2.439 . S
O157 Cd156 2.240 . S
O157 C162 1.279 1_545 S
O158 Cd155 2.297 . S
O158 C160 1.247 1_565 S
O159 Cd155 2.439 1_545 S
O159 C160 1.208 . S
C160 O158 1.247 1_545 S
C160 O159 1.208 . S
C161 O166 1.247 . S
C161 O167 1.208 . S
C162 O154 1.315 . S
C162 O157 1.279 1_565 S
C163 O164 1.315 . S
C163 O165 1.279 . S
O164 Cd156 2.223 1_565 S
O164 C163 1.315 . S
O165 Cd155 2.240 . S
O165 C163 1.279 . S
O166 Cd156 2.297 . S
O166 C161 1.247 . S
O167 Cd156 2.439 . S
O167 C161 1.208 . S
C161 C7 1.460 1_655 S
C21 C91 1.460 1_545 S
C35 C105 1.459 . S
C49 C119 1.460 1_655 S
C133 C63 1.460 1_545 S
C77 C147 1.459 . S
C50 C8 1.209 . S
C64 C22 1.208 1_655 S
C78 C36 1.209 1_565 S
C92 C134 1.209 . S
C106 C148 1.209 1_455 S
C120 C162 1.208 1_545 S
C121 C9 1.826 . S
C23 C135 1.826 . S
C149 C37 1.824 . S
C163 C51 1.826 . S
C93 C65 1.826 . S
C79 C107 1.824 . S
C132 C6 1.502 . S
C20 C146 1.502 1_655 S
C160 C34 1.502 1_544 S
C48 C90 1.502 . S
C62 C104 1.502 1_455 S
C118 C76 1.502 1_564 S
