# Generated by pormake.
# Topology hex, (8)-cn, num edge types: 1
# Building blocks:
#     Node 0, Type 0, BuildingBlock: TAGTUT_clean_sbu_1, # of connection points: 8
#     Edge 1, Type (0, 0), BuildingBlock: FUNLAD_clean_linker_0, # of connection points: 2
#     Edge 2, Type (0, 0), BuildingBlock: FUNLAD_clean_linker_0, # of connection points: 2
#     Edge 3, Type (0, 0), BuildingBlock: FUNLAD_clean_linker_0, # of connection points: 2
#     Edge 4, Type (0, 0), BuildingBlock: FUNLAD_clean_linker_0, # of connection points: 2
# Relax obj value: 0.053
# Max RMSD: 0.156
# Mean RMSD: 0.156
data_MOF--net-hex--node1-TAGTUT_clean_sbu_1--edge1-FUNLAD_clean_linker_0
_symmetry_space_group_name_H-M    P1
_symmetry_Int_Tables_number       1
_symmetry_cell_setting            triclinic
loop_
_symmetry_equiv_pos_as_xyz
'x, y, z'
_cell_length_a     20.521445
_cell_length_b     22.248578
_cell_length_c     18.213921
_cell_angle_alpha  88.876483
_cell_angle_beta   101.33471
_cell_angle_gamma 129.533
loop_
_atom_site_label
_atom_site_type_symbol
_atom_site_fract_x
_atom_site_fract_y
_atom_site_fract_z
_atom_type_partial_charge
C0 C 0.92911 0.1931 0.00943 0.0
C1 C 0.76941 0.96275 0.04018 0.0
C2 C 0.05738 0.00817 0.17947 0.0
Mg3 Mg 0.87427 0.04272 0.92425 0.0
O4 O 0.9767 0.07731 0.99035 0.0
Mg5 Mg -0.00961 0.09947 0.10096 0.0
Mg6 Mg -0.00066 0.00279 0.99591 0.0
O7 O 0.02056 0.92809 0.00067 0.0
Mg8 Mg 0.11028 0.94424 0.07125 0.0
Mg9 Mg 0.00153 0.89909 0.89092 0.0
C10 C 0.93954 0.99432 0.81285 0.0
C11 C 0.81694 0.82394 0.93188 0.0
O12 O 0.96887 0.18582 0.06787 0.0
O13 O 0.89007 0.14605 0.94718 0.0
O14 O 0.83992 0.01068 0.09159 0.0
O15 O 0.77074 0.9535 0.97184 0.0
O16 O 0.89148 0.01055 0.82205 0.0
O17 O -0.01054 0.99546 0.86901 0.0
C18 C 0.17797 0.18187 0.06025 0.0
O19 O 0.14284 0.1168 0.02017 0.0
O20 O 0.1351 0.18809 0.09768 0.0
O21 O 0.00506 0.80189 0.92554 0.0
O22 O 0.06221 0.8266 0.05111 0.0
O23 O 0.15258 0.9806 0.90161 0.0
C24 C 0.02463 0.78232 0.98731 0.0
O25 O 0.22012 0.02002 0.02485 0.0
O26 O 0.10031 0.98588 0.17191 0.0
C27 C 0.22215 0.01912 0.95535 0.0
O28 O 0.01066 0.00954 0.12228 0.0
O29 O 0.85535 0.88914 0.97331 0.0
O30 O 0.85696 0.81626 0.89223 0.0
C31 C 0.86154 0.25248 0.96381 0.0
C32 C 0.92358 0.25515 0.01644 0.0
C33 C 0.85472 0.3102 0.97206 0.0
C34 C 0.91094 0.37209 0.03246 0.0
C35 C 0.97058 0.37303 0.08643 0.0
C36 C 0.97709 0.31519 0.07847 0.0
C37 C 0.91409 0.43974 0.03835 0.0
C38 C 0.89669 0.46591 0.97689 0.0
C39 C 0.92419 0.54537 0.98005 0.0
C40 C 0.94309 0.58291 0.91537 0.0
C41 C 0.97745 0.66076 0.91798 0.0
C42 C -0.00628 0.70221 0.98555 0.0
H43 H 0.91999 0.55805 0.09696 0.0
C44 C 0.97287 0.6642 0.04979 0.0
C45 C 0.93722 0.58604 0.04686 0.0
H46 H 0.98212 0.69423 0.10184 0.0
H47 H 0.81773 0.20553 0.91664 0.0
H48 H 0.80581 0.30627 0.93095 0.0
H49 H 0.01423 0.42003 0.13363 0.0
H50 H 0.02483 0.31819 0.12047 0.0
H51 H 0.94471 0.47542 0.09336 0.0
H52 H 0.87366 0.43358 0.92112 0.0
H53 H 0.93316 0.55258 0.86318 0.0
H54 H -0.00806 0.68868 0.86737 0.0
C55 C 0.69358 -0.00223 0.0939 0.0
C56 C 0.68799 0.94221 0.05078 0.0
C57 C 0.62616 0.00065 0.07832 0.0
C58 C 0.55132 0.94712 0.02024 0.0
C59 C 0.54075 0.88505 0.98477 0.0
C60 C 0.60872 0.88286 -0.00054 0.0
C61 C 0.4854 0.95653 0.9931 0.0
C62 C 0.50616 0.0276 0.99217 0.0
C63 C 0.44004 0.03704 0.9667 0.0
C64 C 0.45107 0.09864 0.00389 0.0
C65 C 0.38273 0.10019 0.9919 0.0
C66 C 0.3028 0.0409 0.94137 0.0
H67 H 0.3552 0.93728 0.87739 0.0
C68 C 0.29639 0.9859 0.89643 0.0
C69 C 0.36419 0.98351 0.90943 0.0
H70 H 0.23553 0.93918 0.85733 0.0
H71 H 0.75358 0.04441 0.13389 0.0
H72 H 0.63465 0.0471 0.1093 0.0
H73 H 0.48267 0.84178 0.94123 0.0
H74 H 0.60234 0.8392 0.96544 0.0
H75 H 0.41865 0.90344 0.97028 0.0
H76 H 0.57294 0.08068 0.01494 0.0
H77 H 0.50977 0.14177 0.04698 0.0
H78 H 0.38938 0.14315 0.02745 0.0
C79 C 0.29853 0.32865 0.08718 0.0
C80 C 0.26496 0.25475 0.05357 0.0
C81 C 0.3719 0.39844 0.07016 0.0
C82 C 0.41373 0.39627 0.01882 0.0
C83 C 0.38351 0.32251 0.98904 0.0
C84 C 0.30989 0.25263 0.00585 0.0
C85 C 0.48876 0.46903 0.99505 0.0
C86 C 0.50606 0.53877 -0.00077 0.0
C87 C 0.58123 0.61129 0.97558 0.0
C88 C 0.61582 0.68532 0.00941 0.0
C89 C 0.6896 0.75473 0.99235 0.0
C90 C 0.72988 0.75204 0.9398 0.0
H91 H 0.59222 0.55293 0.8906 0.0
C92 C 0.69198 0.67796 0.90254 0.0
C93 C 0.61874 0.60852 0.92021 0.0
H94 H 0.72069 0.67322 0.86148 0.0
H95 H 0.26635 0.3329 0.12474 0.0
H96 H 0.39486 0.45368 0.09709 0.0
H97 H 0.41517 0.31875 0.95046 0.0
H98 H 0.28642 0.197 0.97908 0.0
H99 H 0.53006 0.46391 0.97171 0.0
H100 H 0.46527 0.54442 0.02274 0.0
H101 H 0.58767 0.6895 0.05146 0.0
H102 H 0.71701 0.8102 0.02286 0.0
C103 C 0.01405 0.99451 0.71933 0.0
C104 C 0.941 0.97978 0.73483 0.0
C105 C 0.02142 0.99398 0.64472 0.0
C106 C 0.95546 0.97815 0.58454 0.0
C107 C 0.8799 0.95786 0.59992 0.0
C108 C 0.87298 0.95933 0.67434 0.0
C109 C 0.96347 0.98299 0.50526 0.0
C110 C 0.04028 0.03382 0.48644 0.0
C111 C 0.04794 0.03712 0.40713 0.0
C112 C 0.12192 0.05402 0.39177 0.0
C113 C 0.12702 0.04872 0.31731 0.0
C114 C 0.05884 0.02792 0.25681 0.0
H115 H 0.92583 0.01114 0.35697 0.0
C116 C -0.0121 0.01726 0.27209 0.0
C117 C 0.98227 0.02152 0.34677 0.0
H118 H 0.93468 0.00157 0.22653 0.0
H119 H 0.06723 0.00998 0.76482 0.0
H120 H 0.07912 0.00685 0.63451 0.0
H121 H 0.82757 0.94403 0.5544 0.0
H122 H 0.81536 0.94674 0.68454 0.0
H123 H 0.90375 0.94528 0.46122 0.0
H124 H 0.1001 0.0715 0.53037 0.0
H125 H 0.17399 0.06754 0.4374 0.0
H126 H 0.18307 0.05826 0.30714 0.0
loop_
_geom_bond_atom_site_label_1
_geom_bond_atom_site_label_2
_geom_bond_distance
_geom_bond_site_symmetry_2
_ccdc_geom_bond_type
C0 O12 1.241 1_556 S
C0 O13 1.280 . S
C1 O14 1.277 . S
C1 O15 1.245 1_544 S
C2 O26 1.247 1_545 S
C2 O28 1.289 1_455 S
Mg3 O4 1.926 . S
Mg3 O13 1.984 . S
Mg3 O15 1.988 1_545 S
Mg3 O16 2.061 . S
O4 Mg3 1.926 . S
O4 Mg5 1.986 1_556 S
O4 Mg6 1.917 1_656 S
Mg5 O4 1.986 1_554 S
Mg5 O12 2.042 . S
Mg5 O14 2.041 . S
Mg5 O20 2.038 1_655 S
Mg5 O28 2.237 . S
Mg6 O4 1.917 1_454 S
Mg6 O7 1.917 1_545 S
Mg6 O17 2.105 1_544 S
Mg6 O19 2.079 . S
Mg6 O28 2.107 1_455 S
Mg6 O29 2.079 1_444 S
O7 Mg6 1.917 1_565 S
O7 Mg8 1.926 . S
O7 Mg9 1.986 1_554 S
Mg8 O7 1.926 . S
Mg8 O22 1.984 . S
Mg8 O25 1.988 1_565 S
Mg8 O26 2.061 . S
Mg9 O7 1.986 1_556 S
Mg9 O17 2.239 . S
Mg9 O21 2.042 . S
Mg9 O23 2.041 . S
Mg9 O30 2.038 1_455 S
C10 O16 1.247 1_565 S
C10 O17 1.287 1_655 S
C11 O29 1.245 . S
C11 O30 1.274 . S
O12 C0 1.241 1_554 S
O12 Mg5 2.042 . S
O13 C0 1.280 . S
O13 Mg3 1.984 . S
O14 C1 1.277 . S
O14 Mg5 2.041 . S
O15 C1 1.245 1_566 S
O15 Mg3 1.988 1_565 S
O16 Mg3 2.061 . S
O16 C10 1.247 1_545 S
O17 Mg6 2.105 1_566 S
O17 Mg9 2.239 . S
O17 C10 1.287 1_455 S
C18 O19 1.245 . S
C18 O20 1.274 . S
O19 Mg6 2.079 . S
O19 C18 1.245 . S
O20 Mg5 2.038 1_455 S
O20 C18 1.274 . S
O21 Mg9 2.042 . S
O21 C24 1.241 1_556 S
O22 Mg8 1.984 . S
O22 C24 1.280 . S
O23 Mg9 2.041 . S
O23 C27 1.277 . S
C24 O21 1.241 1_554 S
C24 O22 1.280 . S
O25 Mg8 1.988 1_545 S
O25 C27 1.245 1_544 S
O26 C2 1.247 1_565 S
O26 Mg8 2.061 . S
C27 O23 1.277 . S
C27 O25 1.245 1_566 S
O28 C2 1.289 1_655 S
O28 Mg5 2.237 . S
O28 Mg6 2.107 1_655 S
O29 Mg6 2.079 1_666 S
O29 C11 1.245 . S
O30 Mg9 2.038 1_655 S
O30 C11 1.274 . S
C31 C32 1.386 . S
C31 C33 1.383 . S
C31 H47 0.951 . S
C32 C31 1.386 . S
C32 C36 1.383 1_656 S
C33 C31 1.383 . S
C33 C34 1.402 1_556 S
C33 H48 0.951 . S
C34 C33 1.402 1_554 S
C34 C35 1.375 1_655 S
C34 C37 1.481 . S
C35 C34 1.375 1_455 S
C35 C36 1.367 . S
C35 H49 0.951 . S
C36 C32 1.383 1_454 S
C36 C35 1.367 . S
C36 H50 0.950 . S
C37 C34 1.481 . S
C37 C38 1.297 1_554 S
C37 H51 0.950 . S
C38 C37 1.297 1_556 S
C38 C39 1.479 1_556 S
C38 H52 0.950 . S
C39 C38 1.479 1_554 S
C39 C40 1.375 1_554 S
C39 C45 1.404 . S
C40 C39 1.375 1_556 S
C40 C41 1.369 . S
C40 H53 0.950 . S
C41 C40 1.369 . S
C41 C42 1.392 1_556 S
C41 H54 0.951 . S
C42 C41 1.392 1_554 S
C42 C44 1.384 . S
H43 C45 0.949 . S
C44 C42 1.384 . S
C44 C45 1.385 . S
C44 H46 0.950 . S
C45 C39 1.404 . S
C45 H43 0.949 . S
C45 C44 1.385 . S
H46 C44 0.950 . S
H47 C31 0.951 . S
H48 C33 0.951 . S
H49 C35 0.951 . S
H50 C36 0.950 . S
H51 C37 0.950 . S
H52 C38 0.950 . S
H53 C40 0.950 . S
H54 C41 0.951 . S
C55 C56 1.386 1_545 S
C55 C57 1.383 . S
C55 H71 0.951 . S
C56 C55 1.386 1_565 S
C56 C60 1.383 1_554 S
C57 C55 1.383 . S
C57 C58 1.402 1_544 S
C57 H72 0.951 . S
C58 C57 1.402 1_566 S
C58 C59 1.375 . S
C58 C61 1.481 . S
C59 C58 1.375 . S
C59 C60 1.367 . S
C59 H73 0.951 . S
C60 C56 1.383 1_556 S
C60 C59 1.367 . S
C60 H74 0.950 . S
C61 C58 1.481 . S
C61 C62 1.297 1_565 S
C61 H75 0.950 . S
C62 C61 1.297 1_545 S
C62 C63 1.479 . S
C62 H76 0.950 1_556 S
C63 C62 1.479 . S
C63 C64 1.375 1_556 S
C63 C69 1.404 1_545 S
C64 C63 1.375 1_554 S
C64 C65 1.369 1_554 S
C64 H77 0.950 . S
C65 C64 1.369 1_556 S
C65 C66 1.392 . S
C65 H78 0.951 1_556 S
C66 C65 1.392 . S
C66 C68 1.384 1_545 S
H67 C69 0.949 . S
C68 C66 1.384 1_565 S
C68 C69 1.385 . S
C68 H70 0.950 . S
C69 C63 1.404 1_565 S
C69 H67 0.949 . S
C69 C68 1.385 . S
H70 C68 0.950 . S
H71 C55 0.951 . S
H72 C57 0.951 . S
H73 C59 0.951 . S
H74 C60 0.950 . S
H75 C61 0.950 . S
H76 C62 0.950 1_554 S
H77 C64 0.950 . S
H78 C65 0.951 1_554 S
C79 C80 1.386 . S
C79 C81 1.383 . S
C79 H95 0.951 . S
C80 C79 1.386 . S
C80 C84 1.383 . S
C81 C79 1.383 . S
C81 C82 1.402 . S
C81 H96 0.951 . S
C82 C81 1.402 . S
C82 C83 1.375 . S
C82 C85 1.481 . S
C83 C82 1.375 . S
C83 C84 1.367 . S
C83 H97 0.951 . S
C84 C80 1.383 . S
C84 C83 1.367 . S
C84 H98 0.950 . S
C85 C82 1.481 . S
C85 C86 1.297 . S
C85 H99 0.950 . S
C86 C85 1.297 . S
C86 C87 1.479 . S
C86 H100 0.950 . S
C87 C86 1.479 . S
C87 C88 1.375 . S
C87 C93 1.404 . S
C88 C87 1.375 . S
C88 C89 1.369 1_554 S
C88 H101 0.950 . S
C89 C88 1.369 1_556 S
C89 C90 1.392 . S
C89 H102 0.951 . S
C90 C89 1.392 . S
C90 C92 1.384 . S
H91 C93 0.949 . S
C92 C90 1.384 . S
C92 C93 1.385 1_556 S
C92 H94 0.950 . S
C93 C87 1.404 . S
C93 H91 0.949 . S
C93 C92 1.385 1_554 S
H94 C92 0.950 . S
H95 C79 0.951 . S
H96 C81 0.951 . S
H97 C83 0.951 . S
H98 C84 0.950 . S
H99 C85 0.950 . S
H100 C86 0.950 . S
H101 C88 0.950 . S
H102 C89 0.951 . S
C103 C104 1.386 1_445 S
C103 C105 1.383 . S
C103 H119 0.951 . S
C104 C103 1.386 1_665 S
C104 C108 1.383 . S
C105 C103 1.383 . S
C105 C106 1.402 1_445 S
C105 H120 0.951 . S
C106 C105 1.402 1_665 S
C106 C107 1.375 . S
C106 C109 1.481 . S
C107 C106 1.375 . S
C107 C108 1.367 . S
C107 H121 0.951 . S
C108 C104 1.383 . S
C108 C107 1.367 . S
C108 H122 0.950 . S
C109 C106 1.481 . S
C109 C110 1.297 1_655 S
C109 H123 0.950 . S
C110 C109 1.297 1_455 S
C110 C111 1.479 . S
C110 H124 0.950 . S
C111 C110 1.479 . S
C111 C112 1.375 1_565 S
C111 C117 1.404 1_455 S
C112 C111 1.375 1_545 S
C112 C113 1.369 . S
C112 H125 0.950 . S
C113 C112 1.369 . S
C113 C114 1.392 1_545 S
C113 H126 0.951 . S
C114 C113 1.392 1_565 S
C114 C116 1.384 1_455 S
H115 C117 0.949 . S
C116 C114 1.384 1_655 S
C116 C117 1.385 . S
C116 H118 0.950 . S
C117 C111 1.404 1_655 S
C117 H115 0.949 . S
C117 C116 1.385 . S
H118 C116 0.950 . S
H119 C103 0.951 . S
H120 C105 0.951 . S
H121 C107 0.951 . S
H122 C108 0.950 . S
H123 C109 0.950 . S
H124 C110 0.950 . S
H125 C112 0.950 . S
H126 C113 0.951 . S
C32 C0 1.245 . S
C42 C24 1.340 1_655 S
C56 C1 1.216 1_565 S
C66 C27 1.316 1_545 S
C80 C18 1.839 . S
C90 C11 1.821 . S
C104 C10 1.441 . S
C114 C2 1.433 1_565 S
