# Generated by pormake.
# Topology mmt, (4)-cn, num edge types: 1
# Building blocks:
#     Node 0, Type 0, BuildingBlock: AZAVOO_clean_sbu_0, # of connection points: 4
#     Node 1, Type 0, BuildingBlock: AZAVOO_clean_sbu_0, # of connection points: 4
#     Node 2, Type 0, BuildingBlock: AZAVOO_clean_sbu_0, # of connection points: 4
#     Node 3, Type 0, BuildingBlock: AZAVOO_clean_sbu_0, # of connection points: 4
#     Node 4, Type 0, BuildingBlock: AZAVOO_clean_sbu_0, # of connection points: 4
#     Node 5, Type 0, BuildingBlock: AZAVOO_clean_sbu_0, # of connection points: 4
#     Node 6, Type 0, BuildingBlock: AZAVOO_clean_sbu_0, # of connection points: 4
#     Node 7, Type 0, BuildingBlock: AZAVOO_clean_sbu_0, # of connection points: 4
#     Edge 8, Type (0, 0), BuildingBlock: EYOCIG_clean_linker_4, # of connection points: 2
#     Edge 9, Type (0, 0), BuildingBlock: EYOCIG_clean_linker_4, # of connection points: 2
#     Edge 10, Type (0, 0), BuildingBlock: EYOCIG_clean_linker_4, # of connection points: 2
#     Edge 11, Type (0, 0), BuildingBlock: EYOCIG_clean_linker_4, # of connection points: 2
#     Edge 12, Type (0, 0), BuildingBlock: EYOCIG_clean_linker_4, # of connection points: 2
#     Edge 13, Type (0, 0), BuildingBlock: EYOCIG_clean_linker_4, # of connection points: 2
#     Edge 14, Type (0, 0), BuildingBlock: EYOCIG_clean_linker_4, # of connection points: 2
#     Edge 15, Type (0, 0), BuildingBlock: EYOCIG_clean_linker_4, # of connection points: 2
#     Edge 16, Type (0, 0), BuildingBlock: EYOCIG_clean_linker_4, # of connection points: 2
#     Edge 17, Type (0, 0), BuildingBlock: EYOCIG_clean_linker_4, # of connection points: 2
#     Edge 18, Type (0, 0), BuildingBlock: EYOCIG_clean_linker_4, # of connection points: 2
#     Edge 19, Type (0, 0), BuildingBlock: EYOCIG_clean_linker_4, # of connection points: 2
#     Edge 20, Type (0, 0), BuildingBlock: EYOCIG_clean_linker_4, # of connection points: 2
#     Edge 21, Type (0, 0), BuildingBlock: EYOCIG_clean_linker_4, # of connection points: 2
#     Edge 22, Type (0, 0), BuildingBlock: EYOCIG_clean_linker_4, # of connection points: 2
#     Edge 23, Type (0, 0), BuildingBlock: EYOCIG_clean_linker_4, # of connection points: 2
# Relax obj value: 0.094
# Max RMSD: 0.147
# Mean RMSD: 0.147
data_MOF--net-mmt--node1-AZAVOO_clean_sbu_0--edge1-EYOCIG_clean_linker_4
_symmetry_space_group_name_H-M    P1
_symmetry_Int_Tables_number       1
_symmetry_cell_setting            triclinic
loop_
_symmetry_equiv_pos_as_xyz
'x, y, z'
_cell_length_a     16.140396
_cell_length_b     34.154914
_cell_length_c     35.56351
_cell_angle_alpha  90.020549
_cell_angle_beta   89.985955
_cell_angle_gamma 89.934177
loop_
_atom_site_label
_atom_site_type_symbol
_atom_site_fract_x
_atom_site_fract_y
_atom_site_fract_z
_atom_type_partial_charge
Mg0 Mg 0.19289 0.53402 0.34559 0.0
O1 O 0.0788 0.52623 0.30805 0.0
O2 O 0.11391 0.54524 0.25006 0.0
Mg3 Mg 0.24963 0.56474 0.25 0.0
C4 C 0.06163 0.53169 0.27351 0.0
C5 C 0.13434 0.50441 0.42413 0.0
O6 O 0.21185 0.49287 0.42549 0.0
O7 O 0.17959 0.60088 0.34746 0.0
O8 O 0.22721 0.61635 0.29009 0.0
O9 O 0.23506 0.47384 0.32949 0.0
O10 O 0.27229 0.52771 0.2994 0.0
C11 C 0.20245 0.62595 0.32289 0.0
C12 C 0.27391 0.49024 0.30188 0.0
O13 O 0.10865 0.52407 0.39617 0.0
Mg14 Mg 0.30186 0.90529 0.34556 0.0
O15 O 0.41677 0.91313 0.30854 0.0
O16 O 0.38287 0.89432 0.25035 0.0
Mg17 Mg 0.24714 0.87477 0.24967 0.0
C18 C 0.43465 0.90783 0.27405 0.0
C19 C 0.3603 0.93591 0.42369 0.0
O20 O 0.28356 0.94862 0.42434 0.0
O21 O 0.31445 0.8384 0.3474 0.0
O22 O 0.26788 0.82308 0.28982 0.0
O23 O 0.26041 0.96551 0.32937 0.0
O24 O 0.22344 0.91169 0.29909 0.0
C25 C 0.29169 0.8134 0.32273 0.0
C26 C 0.22203 0.94915 0.30159 0.0
O27 O 0.38537 0.91509 0.39638 0.0
Mg28 Mg 0.69433 0.40558 0.12662 0.0
O29 O 0.57954 0.41361 0.16379 0.0
O30 O 0.61431 0.39533 0.22204 0.0
Mg31 Mg 0.75027 0.37602 0.22262 0.0
C32 C 0.5621 0.40855 0.19836 0.0
C33 C 0.63636 0.43564 0.04844 0.0
O34 O 0.7132 0.44813 0.04796 0.0
O35 O 0.68227 0.33865 0.12536 0.0
O36 O 0.72947 0.32389 0.18298 0.0
O37 O 0.73535 0.46601 0.14219 0.0
O38 O 0.77302 0.41254 0.17289 0.0
C39 C 0.70538 0.31389 0.15019 0.0
C40 C 0.77414 0.44998 0.17003 0.0
O41 O 0.61082 0.41498 0.07574 0.0
Mg42 Mg 0.80162 0.03411 0.12681 0.0
O43 O 0.91672 0.02568 0.16361 0.0
O44 O 0.88339 0.04447 0.2219 0.0
Mg45 Mg 0.74793 0.06445 0.22291 0.0
C46 C 0.93488 0.03088 0.19807 0.0
C47 C 0.8584 0.00406 0.04811 0.0
O48 O 0.78112 -0.00779 0.0473 0.0
O49 O 0.81552 0.10095 0.12528 0.0
O50 O 0.76968 0.11625 0.18302 0.0
O51 O 0.75935 -0.02601 0.14278 0.0
O52 O 0.72344 0.02778 0.17343 0.0
C53 C 0.7936 0.12596 0.15012 0.0
C54 C 0.72143 -0.00967 0.17072 0.0
O55 O 0.88444 0.02412 0.07573 0.0
Mg56 Mg 0.80296 0.40538 0.62739 0.0
O57 O 0.91819 0.41243 0.66441 0.0
O58 O 0.88385 0.39343 0.72249 0.0
Mg59 Mg 0.7477 0.37456 0.72311 0.0
C60 C 0.93596 0.4068 0.69886 0.0
C61 C 0.86028 0.43594 0.54917 0.0
O62 O 0.78331 0.44835 0.54872 0.0
O63 O 0.81429 0.33843 0.62514 0.0
O64 O 0.76766 0.323 0.68269 0.0
O65 O 0.7627 0.46569 0.64391 0.0
O66 O 0.72477 0.41188 0.67394 0.0
C67 C 0.79126 0.3134 0.64971 0.0
C68 C 0.72397 0.44936 0.6716 0.0
O69 O 0.88606 0.41527 0.57643 0.0
Mg70 Mg 0.69257 0.034 0.62695 0.0
O71 O 0.57794 0.02623 0.66422 0.0
O72 O 0.61245 0.04533 0.72225 0.0
Mg73 Mg 0.74821 0.06477 0.72263 0.0
C74 C 0.56039 0.03176 0.69871 0.0
C75 C 0.63528 0.00421 0.54835 0.0
O76 O 0.7128 -0.00737 0.54728 0.0
O77 O 0.6793 0.10086 0.62506 0.0
O78 O 0.72635 0.11639 0.68251 0.0
O79 O 0.73459 -0.02616 0.64304 0.0
O80 O 0.77146 0.02769 0.67328 0.0
C81 C 0.70193 0.12596 0.64965 0.0
C82 C 0.77323 -0.00978 0.67072 0.0
O83 O 0.60913 0.024 0.57615 0.0
Mg84 Mg 0.30179 0.53365 0.84566 0.0
O85 O 0.41689 0.52562 0.80882 0.0
O86 O 0.38287 0.54347 0.75037 0.0
Mg87 Mg 0.24682 0.56259 0.74937 0.0
C88 C 0.43482 0.53051 0.7743 0.0
C89 C 0.36069 0.50395 0.92398 0.0
O90 O 0.28424 0.49095 0.92459 0.0
O91 O 0.31373 0.60062 0.8465 0.0
O92 O 0.26755 0.61506 0.78864 0.0
O93 O 0.26132 0.47305 0.83025 0.0
O94 O 0.22355 0.5263 0.79923 0.0
C95 C 0.29129 0.62525 0.82143 0.0
C96 C 0.22272 0.48887 0.80224 0.0
O97 O 0.38542 0.52474 0.89662 0.0
Mg98 Mg 0.19385 0.90537 0.84558 0.0
O99 O 0.07958 0.91335 0.80816 0.0
O100 O 0.11508 0.89548 0.74987 0.0
Mg101 Mg 0.25113 0.87628 0.74956 0.0
C102 C 0.06254 0.90848 0.77353 0.0
C103 C 0.13379 0.93567 0.92341 0.0
O104 O 0.21007 0.94892 0.92386 0.0
O105 O 0.1821 0.83837 0.84647 0.0
O106 O 0.22964 0.82391 0.78881 0.0
O107 O 0.23458 0.96593 0.83028 0.0
O108 O 0.27305 0.91261 0.7995 0.0
C109 C 0.20525 0.81373 0.8215 0.0
C110 C 0.27372 0.95005 0.80244 0.0
O111 O 0.10938 0.91447 0.89627 0.0
C112 C 0.36254 0.45111 0.25215 0.0
C113 C 0.32122 0.46771 0.27546 0.0
C114 C 0.42331 0.43445 0.22849 0.0
C115 C 0.4848 0.42324 0.21252 0.0
C116 C 0.07378 0.00482 0.22783 0.0
C117 C 0.01224 0.01607 0.21197 0.0
C118 C 0.13441 -0.01176 0.25156 0.0
C119 C 0.1753 -0.02829 0.27503 0.0
C120 C 0.86223 0.48957 0.21948 0.0
C121 C 0.82107 0.47285 0.19624 0.0
C122 C 0.92301 0.50615 0.24311 0.0
C123 C 0.9845 0.51719 0.25911 0.0
C124 C 0.63366 0.95099 0.22052 0.0
C125 C 0.67451 0.96777 0.1972 0.0
C126 C 0.57318 0.93409 0.24411 0.0
C127 C 0.51175 0.92272 0.25997 0.0
C128 C 0.57464 0.50504 0.74491 0.0
C129 C 0.51264 0.51608 0.76055 0.0
C130 C 0.63585 0.48853 0.72143 0.0
C131 C 0.67701 0.47197 0.69805 0.0
C132 C 0.8625 0.95103 0.72011 0.0
C133 C 0.82091 0.9677 0.69697 0.0
C134 C 0.9236 0.93431 0.74352 0.0
C135 C 0.98523 0.92309 0.75935 0.0
C136 C 0.13562 0.44885 0.75269 0.0
C137 C 0.17634 0.46575 0.77599 0.0
C138 C 0.07505 0.43214 0.72901 0.0
C139 C 0.0134 0.4212 0.71305 0.0
C140 C 0.36105 -0.01017 0.75285 0.0
C141 C 0.32017 -0.02691 0.77619 0.0
C142 C 0.42162 0.00635 0.72907 0.0
C143 C 0.48311 0.01731 0.71301 0.0
C144 C 0.02638 0.47793 0.47381 0.0
C145 C 0.07594 0.48993 0.45121 0.0
C146 C 0.9677 0.46276 0.49941 0.0
C147 C 0.91836 0.45062 0.52204 0.0
C148 C 0.46882 0.96242 0.47309 0.0
C149 C 0.41901 0.95041 0.45062 0.0
C150 C 0.5278 -0.02247 0.49857 0.0
C151 C 0.57729 -0.01042 0.52117 0.0
C152 C 0.52856 0.46249 -0.00116 0.0
C153 C 0.57808 0.45033 0.02139 0.0
C154 C 0.46953 0.47767 0.97339 0.0
C155 C 0.41966 0.4896 0.95089 0.0
C156 C 0.0248 0.96207 0.97276 0.0
C157 C 0.0747 0.95007 0.95027 0.0
C158 C 0.96584 -0.02275 -0.00173 0.0
C159 C 0.91642 -0.01063 0.02091 0.0
C160 C 0.23279 0.70007 0.33754 0.0
C161 C 0.21583 0.66588 0.33397 0.0
C162 C 0.25963 0.73945 0.33746 0.0
C163 C 0.2772 0.77356 0.33379 0.0
C164 C 0.76351 0.20024 0.13589 0.0
C165 C 0.78019 0.16598 0.13932 0.0
C166 C 0.73704 0.23972 0.13596 0.0
C167 C 0.7197 0.2739 0.13947 0.0
C168 C 0.73228 0.20007 0.63492 0.0
C169 C 0.7154 0.16587 0.63856 0.0
C170 C 0.75902 0.23947 0.6349 0.0
C171 C 0.77669 0.27358 0.63857 0.0
C172 C 0.26119 0.69971 0.83514 0.0
C173 C 0.27769 0.66541 0.83179 0.0
C174 C 0.23544 0.7393 0.83519 0.0
C175 C 0.21879 0.77359 0.8319 0.0
loop_
_geom_bond_atom_site_label_1
_geom_bond_atom_site_label_2
_geom_bond_distance
_geom_bond_site_symmetry_2
_ccdc_geom_bond_type
Mg0 O1 2.028 . S
Mg0 O7 1.986 . S
Mg0 O9 2.114 . S
Mg0 O10 2.251 . S
Mg0 O13 2.010 . S
O1 Mg0 2.028 . S
O1 C4 1.250 . S
O2 Mg3 2.028 . S
O2 C4 1.248 . S
Mg3 O2 2.028 . S
Mg3 O8 2.032 . S
Mg3 O10 2.079 . S
C4 O1 1.250 . S
C4 O2 1.248 . S
C5 O6 1.264 . S
C5 O13 1.249 . S
O6 C5 1.264 . S
O7 Mg0 1.986 . S
O7 C11 1.246 . S
O8 Mg3 2.032 . S
O8 C11 1.259 . S
O9 Mg0 2.114 . S
O9 C12 1.252 . S
O10 Mg0 2.251 . S
O10 Mg3 2.079 . S
O10 C12 1.273 . S
C11 O7 1.246 . S
C11 O8 1.259 . S
C12 O9 1.252 . S
C12 O10 1.273 . S
O13 Mg0 2.010 . S
O13 C5 1.249 . S
Mg14 O15 2.028 . S
Mg14 O21 1.986 . S
Mg14 O23 2.114 . S
Mg14 O24 2.251 . S
Mg14 O27 2.010 . S
O15 Mg14 2.028 . S
O15 C18 1.250 . S
O16 Mg17 2.028 . S
O16 C18 1.248 . S
Mg17 O16 2.028 . S
Mg17 O22 2.032 . S
Mg17 O24 2.079 . S
C18 O15 1.250 . S
C18 O16 1.248 . S
C19 O20 1.264 . S
C19 O27 1.249 . S
O20 C19 1.264 . S
O21 Mg14 1.986 . S
O21 C25 1.246 . S
O22 Mg17 2.032 . S
O22 C25 1.259 . S
O23 Mg14 2.114 . S
O23 C26 1.252 . S
O24 Mg14 2.251 . S
O24 Mg17 2.079 . S
O24 C26 1.273 . S
C25 O21 1.246 . S
C25 O22 1.259 . S
C26 O23 1.252 . S
C26 O24 1.273 . S
O27 Mg14 2.010 . S
O27 C19 1.249 . S
Mg28 O29 2.028 . S
Mg28 O35 1.986 . S
Mg28 O37 2.114 . S
Mg28 O38 2.251 . S
Mg28 O41 2.010 . S
O29 Mg28 2.028 . S
O29 C32 1.250 . S
O30 Mg31 2.028 . S
O30 C32 1.248 . S
Mg31 O30 2.028 . S
Mg31 O36 2.032 . S
Mg31 O38 2.079 . S
C32 O29 1.250 . S
C32 O30 1.248 . S
C33 O34 1.264 . S
C33 O41 1.249 . S
O34 C33 1.264 . S
O35 Mg28 1.986 . S
O35 C39 1.246 . S
O36 Mg31 2.032 . S
O36 C39 1.259 . S
O37 Mg28 2.114 . S
O37 C40 1.252 . S
O38 Mg28 2.251 . S
O38 Mg31 2.079 . S
O38 C40 1.273 . S
C39 O35 1.246 . S
C39 O36 1.259 . S
C40 O37 1.252 . S
C40 O38 1.273 . S
O41 Mg28 2.010 . S
O41 C33 1.249 . S
Mg42 O43 2.028 . S
Mg42 O49 1.986 . S
Mg42 O51 2.114 . S
Mg42 O52 2.251 . S
Mg42 O55 2.010 . S
O43 Mg42 2.028 . S
O43 C46 1.250 . S
O44 Mg45 2.028 . S
O44 C46 1.248 . S
Mg45 O44 2.028 . S
Mg45 O50 2.032 . S
Mg45 O52 2.079 . S
C46 O43 1.250 . S
C46 O44 1.248 . S
C47 O48 1.264 . S
C47 O55 1.249 . S
O48 C47 1.264 . S
O49 Mg42 1.986 . S
O49 C53 1.246 . S
O50 Mg45 2.032 . S
O50 C53 1.259 . S
O51 Mg42 2.114 . S
O51 C54 1.252 . S
O52 Mg42 2.251 . S
O52 Mg45 2.079 . S
O52 C54 1.273 . S
C53 O49 1.246 . S
C53 O50 1.259 . S
C54 O51 1.252 . S
C54 O52 1.273 . S
O55 Mg42 2.010 . S
O55 C47 1.249 . S
Mg56 O57 2.028 . S
Mg56 O63 1.986 . S
Mg56 O65 2.114 . S
Mg56 O66 2.251 . S
Mg56 O69 2.010 . S
O57 Mg56 2.028 . S
O57 C60 1.250 . S
O58 Mg59 2.028 . S
O58 C60 1.248 . S
Mg59 O58 2.028 . S
Mg59 O64 2.032 . S
Mg59 O66 2.079 . S
C60 O57 1.250 . S
C60 O58 1.248 . S
C61 O62 1.264 . S
C61 O69 1.249 . S
O62 C61 1.264 . S
O63 Mg56 1.986 . S
O63 C67 1.246 . S
O64 Mg59 2.032 . S
O64 C67 1.259 . S
O65 Mg56 2.114 . S
O65 C68 1.252 . S
O66 Mg56 2.251 . S
O66 Mg59 2.079 . S
O66 C68 1.273 . S
C67 O63 1.246 . S
C67 O64 1.259 . S
C68 O65 1.252 . S
C68 O66 1.273 . S
O69 Mg56 2.010 . S
O69 C61 1.249 . S
Mg70 O71 2.028 . S
Mg70 O77 1.986 . S
Mg70 O79 2.114 . S
Mg70 O80 2.251 . S
Mg70 O83 2.010 . S
O71 Mg70 2.028 . S
O71 C74 1.250 . S
O72 Mg73 2.028 . S
O72 C74 1.248 . S
Mg73 O72 2.028 . S
Mg73 O78 2.032 . S
Mg73 O80 2.079 . S
C74 O71 1.250 . S
C74 O72 1.248 . S
C75 O76 1.264 . S
C75 O83 1.249 . S
O76 C75 1.264 . S
O77 Mg70 1.986 . S
O77 C81 1.246 . S
O78 Mg73 2.032 . S
O78 C81 1.259 . S
O79 Mg70 2.114 . S
O79 C82 1.252 . S
O80 Mg70 2.251 . S
O80 Mg73 2.079 . S
O80 C82 1.273 . S
C81 O77 1.246 . S
C81 O78 1.259 . S
C82 O79 1.252 . S
C82 O80 1.273 . S
O83 Mg70 2.010 . S
O83 C75 1.249 . S
Mg84 O85 2.028 . S
Mg84 O91 1.986 . S
Mg84 O93 2.114 . S
Mg84 O94 2.251 . S
Mg84 O97 2.010 . S
O85 Mg84 2.028 . S
O85 C88 1.250 . S
O86 Mg87 2.028 . S
O86 C88 1.248 . S
Mg87 O86 2.028 . S
Mg87 O92 2.032 . S
Mg87 O94 2.079 . S
C88 O85 1.250 . S
C88 O86 1.248 . S
C89 O90 1.264 . S
C89 O97 1.249 . S
O90 C89 1.264 . S
O91 Mg84 1.986 . S
O91 C95 1.246 . S
O92 Mg87 2.032 . S
O92 C95 1.259 . S
O93 Mg84 2.114 . S
O93 C96 1.252 . S
O94 Mg84 2.251 . S
O94 Mg87 2.079 . S
O94 C96 1.273 . S
C95 O91 1.246 . S
C95 O92 1.259 . S
C96 O93 1.252 . S
C96 O94 1.273 . S
O97 Mg84 2.010 . S
O97 C89 1.249 . S
Mg98 O99 2.028 . S
Mg98 O105 1.986 . S
Mg98 O107 2.114 . S
Mg98 O108 2.251 . S
Mg98 O111 2.010 . S
O99 Mg98 2.028 . S
O99 C102 1.250 . S
O100 Mg101 2.028 . S
O100 C102 1.248 . S
Mg101 O100 2.028 . S
Mg101 O106 2.032 . S
Mg101 O108 2.079 . S
C102 O99 1.250 . S
C102 O100 1.248 . S
C103 O104 1.264 . S
C103 O111 1.249 . S
O104 C103 1.264 . S
O105 Mg98 1.986 . S
O105 C109 1.246 . S
O106 Mg101 2.032 . S
O106 C109 1.259 . S
O107 Mg98 2.114 . S
O107 C110 1.252 . S
O108 Mg98 2.251 . S
O108 Mg101 2.079 . S
O108 C110 1.273 . S
C109 O105 1.246 . S
C109 O106 1.259 . S
C110 O107 1.252 . S
C110 O108 1.273 . S
O111 Mg98 2.010 . S
O111 C103 1.249 . S
C112 C113 1.170 . S
C112 C114 1.380 . S
C113 C112 1.170 . S
C114 C112 1.380 . S
C114 C115 1.170 . S
C115 C114 1.170 . S
C116 C117 1.170 . S
C116 C118 1.380 . S
C117 C116 1.170 . S
C118 C116 1.380 . S
C118 C119 1.170 1_545 S
C119 C118 1.170 1_565 S
C120 C121 1.170 . S
C120 C122 1.380 . S
C121 C120 1.170 . S
C122 C120 1.380 . S
C122 C123 1.170 . S
C123 C122 1.170 . S
C124 C125 1.170 1_565 S
C124 C126 1.380 . S
C125 C124 1.170 1_545 S
C126 C124 1.380 . S
C126 C127 1.170 . S
C127 C126 1.170 . S
C128 C129 1.170 . S
C128 C130 1.380 . S
C129 C128 1.170 . S
C130 C128 1.380 . S
C130 C131 1.170 . S
C131 C130 1.170 . S
C132 C133 1.170 1_565 S
C132 C134 1.380 . S
C133 C132 1.170 1_545 S
C134 C132 1.380 . S
C134 C135 1.170 . S
C135 C134 1.170 . S
C136 C137 1.170 . S
C136 C138 1.380 . S
C137 C136 1.170 . S
C138 C136 1.380 . S
C138 C139 1.170 . S
C139 C138 1.170 . S
C140 C141 1.170 1_545 S
C140 C142 1.380 . S
C141 C140 1.170 1_565 S
C142 C140 1.380 . S
C142 C143 1.170 . S
C143 C142 1.170 . S
C144 C145 1.170 . S
C144 C146 1.380 1_455 S
C145 C144 1.170 . S
C146 C144 1.380 1_655 S
C146 C147 1.170 . S
C147 C146 1.170 . S
C148 C149 1.170 . S
C148 C150 1.380 1_565 S
C149 C148 1.170 . S
C150 C148 1.380 1_545 S
C150 C151 1.170 . S
C151 C150 1.170 . S
C152 C153 1.170 . S
C152 C154 1.380 1_554 S
C153 C152 1.170 . S
C154 C152 1.380 1_556 S
C154 C155 1.170 . S
C155 C154 1.170 . S
C156 C157 1.170 . S
C156 C158 1.380 1_466 S
C157 C156 1.170 . S
C158 C156 1.380 1_644 S
C158 C159 1.170 . S
C159 C158 1.170 . S
C160 C161 1.170 . S
C160 C162 1.380 . S
C161 C160 1.170 . S
C162 C160 1.380 . S
C162 C163 1.170 . S
C163 C162 1.170 . S
C164 C165 1.170 . S
C164 C166 1.380 . S
C165 C164 1.170 . S
C166 C164 1.380 . S
C166 C167 1.170 . S
C167 C166 1.170 . S
C168 C169 1.170 . S
C168 C170 1.380 . S
C169 C168 1.170 . S
C170 C168 1.380 . S
C170 C171 1.170 . S
C171 C170 1.170 . S
C172 C173 1.170 . S
C172 C174 1.380 . S
C173 C172 1.170 . S
C174 C172 1.380 . S
C174 C175 1.170 . S
C175 C174 1.170 . S
C113 C12 1.241 . S
C115 C32 1.210 . S
C117 C46 1.225 1_455 S
C119 C26 1.233 . S
C121 C40 1.245 . S
C123 C4 1.186 1_655 S
C125 C54 1.235 . S
C127 C18 1.222 . S
C129 C88 1.219 . S
C131 C68 1.228 . S
C133 C82 1.240 . S
C135 C102 1.187 1_655 S
C137 C96 1.238 . S
C139 C60 1.224 1_455 S
C141 C110 1.243 . S
C143 C74 1.216 . S
C145 C5 1.404 . S
C147 C61 1.435 . S
C149 C19 1.438 . S
C151 C75 1.381 . S
C153 C33 1.389 . S
C155 C89 1.418 . S
C157 C103 1.442 . S
C159 C47 1.387 . S
C161 C11 1.520 . S
C163 C25 1.491 . S
C165 C53 1.518 . S
C167 C39 1.488 . S
C169 C81 1.517 . S
C171 C67 1.503 . S
C173 C95 1.494 . S
C175 C109 1.486 . S
