# Generated by pormake.
# Topology hex, (8)-cn, num edge types: 1
# Building blocks:
#     Node 0, Type 0, BuildingBlock: TAGTUT_clean_sbu_1, # of connection points: 8
#     Edge 1, Type (0, 0), BuildingBlock: EZIPEK_clean_linker_0, # of connection points: 2
#     Edge 2, Type (0, 0), BuildingBlock: EZIPEK_clean_linker_0, # of connection points: 2
#     Edge 3, Type (0, 0), BuildingBlock: EZIPEK_clean_linker_0, # of connection points: 2
#     Edge 4, Type (0, 0), BuildingBlock: EZIPEK_clean_linker_0, # of connection points: 2
# Relax obj value: 0.060
# Max RMSD: 0.160
# Mean RMSD: 0.160
data_MOF--net-hex--node1-TAGTUT_clean_sbu_1--edge1-EZIPEK_clean_linker_0
_symmetry_space_group_name_H-M    P1
_symmetry_Int_Tables_number       1
_symmetry_cell_setting            triclinic
loop_
_symmetry_equiv_pos_as_xyz
'x, y, z'
_cell_length_a     14.827232
_cell_length_b     16.248898
_cell_length_c     11.931397
_cell_angle_alpha  83.356742
_cell_angle_beta   102.8711
_cell_angle_gamma 135.26795
loop_
_atom_site_label
_atom_site_type_symbol
_atom_site_fract_x
_atom_site_fract_y
_atom_site_fract_z
_atom_type_partial_charge
C0 C 0.92657 0.30835 0.94972 0.0
C1 C 0.63673 0.96998 0.00376 0.0
C2 C 0.00707 0.98882 0.26692 0.0
Mg3 Mg 0.82361 0.08972 0.83524 0.0
O4 O 0.94067 0.10972 0.95628 0.0
Mg5 Mg -0.03927 0.14941 0.11621 0.0
Mg6 Mg -0.0309 0.00714 0.98389 0.0
O7 O -0.00375 0.90384 0.00991 0.0
Mg8 Mg 0.09025 0.89931 0.13516 0.0
Mg9 Mg -0.03078 0.85706 0.85124 0.0
C10 C 0.9185 0.0131 0.70076 0.0
C11 C 0.69447 0.73286 0.91431 0.0
O12 O 0.95214 0.27923 0.04636 0.0
O13 O 0.8876 0.25515 0.85295 0.0
O14 O 0.73389 0.01915 0.08967 0.0
O15 O 0.64889 0.97078 0.90062 0.0
O16 O 0.86218 0.04744 0.69686 0.0
O17 O -0.03729 0.99591 0.79566 0.0
C18 C 0.23937 0.2822 0.0533 0.0
O19 O 0.18561 0.18601 0.00439 0.0
O20 O 0.17889 0.28642 0.11034 0.0
O21 O -0.0364 0.71818 0.91885 0.0
O22 O 0.00449 0.72578 0.11274 0.0
O23 O 0.19571 0.97858 0.88322 0.0
C24 C -0.02711 0.67845 0.01461 0.0
O25 O 0.26741 0.00401 0.07556 0.0
O26 O 0.05311 0.94478 0.27157 0.0
C27 C 0.28568 0.01396 0.97274 0.0
O28 O -0.02335 0.01756 0.17235 0.0
O29 O 0.7522 0.82982 0.96446 0.0
O30 O 0.7514 0.72614 0.85511 0.0
C31 C 0.82296 0.38009 0.93791 0.0
C32 C 0.93832 0.40493 0.95434 0.0
C33 C 0.07438 0.60552 0.02535 0.0
C34 C 0.95927 0.58102 0.00832 0.0
N35 N 0.72512 0.44763 0.96231 0.0
N36 N 0.17286 0.54005 -0.00343 0.0
C37 C 0.83359 0.46903 0.96761 0.0
C38 C 0.06399 0.51737 -0.00611 0.0
N39 N 0.70416 0.27186 0.89353 0.0
N40 N 0.19289 0.71266 0.0726 0.0
H41 H 0.16776 0.47753 0.97037 0.0
H42 H 0.26845 0.62196 0.01674 0.0
H43 H 0.20528 0.78129 0.09273 0.0
H44 H 0.27865 0.73261 0.09883 0.0
H45 H 0.61761 0.25069 0.86878 0.0
H46 H 0.69171 0.20269 0.87569 0.0
H47 H 0.62921 0.36625 0.94117 0.0
H48 H 0.7308 0.51117 -0.01365 0.0
C49 C 0.54948 0.02814 0.09418 0.0
C50 C 0.52631 0.95494 0.01284 0.0
C51 C 0.37018 0.95248 0.88309 0.0
C52 C 0.39466 0.02698 0.9639 0.0
N53 N 0.54133 0.16732 0.12566 0.0
N54 N 0.37806 0.81282 0.85263 0.0
C55 C 0.49558 0.07489 0.06293 0.0
C56 C 0.42447 0.90601 0.91445 0.0
N57 N 0.61375 0.04521 0.20429 0.0
N58 N 0.30428 0.93363 0.77329 0.0
H59 H 0.41367 0.77506 0.87773 0.0
H60 H 0.29573 0.76566 0.78622 0.0
H61 H 0.28171 0.98099 0.74219 0.0
H62 H 0.2909 0.88591 0.70875 0.0
H63 H 0.62587 0.09161 0.26942 0.0
H64 H 0.63678 0.99796 0.23421 0.0
H65 H 0.62282 0.21348 0.1929 0.0
H66 H 0.50593 0.20527 0.10082 0.0
C67 C 0.47994 0.4693 0.09484 0.0
C68 C 0.35786 0.39566 0.0169 0.0
C69 C 0.45329 0.54734 0.87428 0.0
C70 C 0.57561 0.62074 0.95186 0.0
N71 N 0.71238 0.64714 0.12953 0.0
N72 N 0.22056 0.37071 0.84072 0.0
C73 C 0.59052 0.58089 0.06097 0.0
C74 C 0.34268 0.43608 0.90841 0.0
N75 N 0.48886 0.4335 0.20268 0.0
N76 N 0.44407 0.58305 0.76648 0.0
H77 H 0.13719 0.28817 0.86056 0.0
H78 H 0.19918 0.40054 0.76829 0.0
H79 H 0.52115 0.66634 0.74137 0.0
H80 H 0.36333 0.52889 0.69974 0.0
H81 H 0.56944 0.48744 0.26957 0.0
H82 H 0.41156 0.35028 0.2278 0.0
H83 H 0.73386 0.61799 0.20263 0.0
H84 H 0.79562 0.72999 0.11008 0.0
C85 C 0.07141 0.09015 0.57039 0.0
C86 C 0.94237 0.00348 0.59209 0.0
C87 C 0.85484 0.9206 0.39382 0.0
C88 C -0.01528 0.0018 0.37467 0.0
N89 N 0.21766 0.15746 0.44391 0.0
N90 N 0.71409 0.82694 0.5334 0.0
C91 C 0.09342 0.08465 0.46291 0.0
C92 C 0.83461 0.91635 0.50603 0.0
N93 N 0.17182 0.18065 0.65053 0.0
N94 N 0.75102 0.84761 0.3048 0.0
H95 H 0.69681 0.82083 0.61554 0.0
H96 H 0.63381 0.75369 0.47848 0.0
H97 H 0.76141 0.84433 0.22233 0.0
H98 H 0.65422 0.7958 0.30993 0.0
H99 H 0.26451 0.25417 0.63461 0.0
H100 H 0.16086 0.18671 0.73157 0.0
H101 H 0.30125 0.20924 0.50869 0.0
H102 H 0.23739 0.16217 0.36346 0.0
loop_
_geom_bond_atom_site_label_1
_geom_bond_atom_site_label_2
_geom_bond_distance
_geom_bond_site_symmetry_2
_ccdc_geom_bond_type
C0 O12 1.241 1_656 S
C0 O13 1.280 . S
C1 O14 1.277 . S
C1 O15 1.245 1_544 S
C2 O26 1.247 . S
C2 O28 1.289 . S
Mg3 O4 1.926 . S
Mg3 O13 1.984 . S
Mg3 O15 1.988 1_545 S
Mg3 O16 2.061 1_545 S
O4 Mg3 1.926 . S
O4 Mg5 1.989 1_656 S
O4 Mg6 1.917 1_656 S
Mg5 O4 1.989 1_454 S
Mg5 O12 2.038 . S
Mg5 O14 2.033 1_455 S
Mg5 O20 2.047 . S
Mg5 O28 2.243 . S
Mg6 O4 1.917 1_454 S
Mg6 O7 1.917 1_545 S
Mg6 O17 2.106 1_444 S
Mg6 O19 2.079 . S
Mg6 O28 2.106 . S
Mg6 O29 2.079 1_444 S
O7 Mg6 1.917 1_565 S
O7 Mg8 1.926 . S
O7 Mg9 1.988 1_454 S
Mg8 O7 1.926 . S
Mg8 O22 1.984 . S
Mg8 O25 1.988 1_565 S
Mg8 O26 2.061 1_565 S
Mg9 O7 1.988 1_656 S
Mg9 O17 2.242 . S
Mg9 O21 2.039 . S
Mg9 O23 2.035 1_655 S
Mg9 O30 2.045 . S
C10 O16 1.247 . S
C10 O17 1.289 . S
C11 O29 1.245 . S
C11 O30 1.274 . S
O12 C0 1.241 1_454 S
O12 Mg5 2.038 . S
O13 C0 1.280 . S
O13 Mg3 1.984 . S
O14 C1 1.277 . S
O14 Mg5 2.033 1_655 S
O15 C1 1.245 1_566 S
O15 Mg3 1.988 1_565 S
O16 Mg3 2.061 1_565 S
O16 C10 1.247 . S
O17 Mg6 2.106 1_666 S
O17 Mg9 2.242 . S
O17 C10 1.289 . S
C18 O19 1.245 . S
C18 O20 1.274 . S
O19 Mg6 2.079 . S
O19 C18 1.245 . S
O20 Mg5 2.047 . S
O20 C18 1.274 . S
O21 Mg9 2.039 . S
O21 C24 1.241 1_656 S
O22 Mg8 1.984 . S
O22 C24 1.280 . S
O23 Mg9 2.035 1_455 S
O23 C27 1.277 . S
C24 O21 1.241 1_454 S
C24 O22 1.280 . S
O25 Mg8 1.988 1_545 S
O25 C27 1.245 1_544 S
O26 C2 1.247 . S
O26 Mg8 2.061 1_545 S
C27 O23 1.277 . S
C27 O25 1.245 1_566 S
O28 C2 1.289 . S
O28 Mg5 2.243 . S
O28 Mg6 2.106 . S
O29 Mg6 2.079 1_666 S
O29 C11 1.245 . S
O30 Mg9 2.045 . S
O30 C11 1.274 . S
C31 C32 1.363 1_655 S
C31 C37 1.379 1_556 S
C31 N39 1.356 . S
C32 C31 1.363 1_455 S
C32 C38 1.363 . S
C33 C34 1.363 1_455 S
C33 C38 1.379 1_554 S
C33 N40 1.356 . S
C34 C33 1.363 1_655 S
C34 C37 1.363 . S
N35 C37 1.356 . S
N35 H47 0.984 . S
N35 H48 0.985 . S
N36 C38 1.356 . S
N36 H41 0.984 . S
N36 H42 0.985 . S
C37 C31 1.379 1_554 S
C37 C34 1.363 . S
C37 N35 1.356 . S
C38 C32 1.363 . S
C38 C33 1.379 1_556 S
C38 N36 1.356 . S
N39 C31 1.356 . S
N39 H45 0.984 1_556 S
N39 H46 0.984 . S
N40 C33 1.356 . S
N40 H43 0.984 . S
N40 H44 0.985 1_554 S
H41 N36 0.984 . S
H42 N36 0.985 . S
H43 N40 0.984 . S
H44 N40 0.985 1_556 S
H45 N39 0.984 1_554 S
H46 N39 0.984 . S
H47 N35 0.984 . S
H48 N35 0.985 . S
C49 C50 1.363 1_545 S
C49 C55 1.379 . S
C49 N57 1.356 . S
C50 C49 1.363 1_565 S
C50 C56 1.363 1_554 S
C51 C52 1.363 1_565 S
C51 C56 1.379 . S
C51 N58 1.356 . S
C52 C51 1.363 1_545 S
C52 C55 1.363 1_556 S
N53 C55 1.356 . S
N53 H65 0.984 . S
N53 H66 0.985 1_554 S
N54 C56 1.356 . S
N54 H59 0.984 1_556 S
N54 H60 0.985 . S
C55 C49 1.379 . S
C55 C52 1.363 1_554 S
C55 N53 1.356 . S
C56 C50 1.363 1_556 S
C56 C51 1.379 . S
C56 N54 1.356 . S
N57 C49 1.356 . S
N57 H63 0.984 . S
N57 H64 0.984 . S
N58 C51 1.356 . S
N58 H61 0.984 . S
N58 H62 0.985 . S
H59 N54 0.984 1_554 S
H60 N54 0.985 . S
H61 N58 0.984 . S
H62 N58 0.985 . S
H63 N57 0.984 . S
H64 N57 0.984 . S
H65 N53 0.984 . S
H66 N53 0.985 1_556 S
C67 C68 1.363 . S
C67 C73 1.379 . S
C67 N75 1.356 . S
C68 C67 1.363 . S
C68 C74 1.363 1_554 S
C69 C70 1.363 . S
C69 C74 1.379 . S
C69 N76 1.356 . S
C70 C69 1.363 . S
C70 C73 1.363 1_556 S
N71 C73 1.356 . S
N71 H83 0.984 . S
N71 H84 0.985 . S
N72 C74 1.356 . S
N72 H77 0.984 . S
N72 H78 0.985 . S
C73 C67 1.379 . S
C73 C70 1.363 1_554 S
C73 N71 1.356 . S
C74 C68 1.363 1_556 S
C74 C69 1.379 . S
C74 N72 1.356 . S
N75 C67 1.356 . S
N75 H81 0.984 . S
N75 H82 0.984 . S
N76 C69 1.356 . S
N76 H79 0.984 . S
N76 H80 0.985 . S
H77 N72 0.984 . S
H78 N72 0.985 . S
H79 N76 0.984 . S
H80 N76 0.985 . S
H81 N75 0.984 . S
H82 N75 0.984 . S
H83 N71 0.984 . S
H84 N71 0.985 . S
C85 C86 1.363 1_545 S
C85 C91 1.380 . S
C85 N93 1.356 . S
C86 C85 1.363 1_565 S
C86 C92 1.363 1_655 S
C87 C88 1.363 1_565 S
C87 C92 1.379 . S
C87 N94 1.356 . S
C88 C87 1.363 1_545 S
C88 C91 1.356 1_455 S
N89 C91 1.360 . S
N89 H101 0.985 . S
N89 H102 0.984 1_655 S
N90 C92 1.355 . S
N90 H95 0.984 1_455 S
N90 H96 0.986 . S
C91 C85 1.380 . S
C91 C88 1.356 1_655 S
C91 N89 1.360 . S
C92 C86 1.363 1_455 S
C92 C87 1.379 . S
C92 N90 1.355 . S
N93 C85 1.356 . S
N93 H99 0.984 . S
N93 H100 0.984 . S
N94 C87 1.356 . S
N94 H97 0.984 . S
N94 H98 0.985 . S
H95 N90 0.984 1_655 S
H96 N90 0.986 . S
H97 N94 0.984 . S
H98 N94 0.985 . S
H99 N93 0.984 . S
H100 N93 0.984 . S
H101 N89 0.985 . S
H102 N89 0.984 1_455 S
C32 C0 1.332 1_455 S
C34 C24 1.332 1_655 S
C50 C1 1.344 1_565 S
C52 C27 1.344 1_545 S
C68 C18 1.938 . S
C70 C11 1.938 . S
C86 C10 1.466 . S
C88 C2 1.466 . S
