# Generated by pormake.
# Topology qzd, (4)-cn, num edge types: 1
# Building blocks:
#     Node 0, Type 0, BuildingBlock: ESEHIV_clean_sbu_0, # of connection points: 4
#     Node 1, Type 0, BuildingBlock: ESEHIV_clean_sbu_0, # of connection points: 4
#     Node 2, Type 0, BuildingBlock: ESEHIV_clean_sbu_0, # of connection points: 4
#     Edge 3, Type (0, 0), BuildingBlock: FUNLAD_clean_linker_1, # of connection points: 2
#     Edge 4, Type (0, 0), BuildingBlock: FUNLAD_clean_linker_1, # of connection points: 2
#     Edge 5, Type (0, 0), BuildingBlock: FUNLAD_clean_linker_1, # of connection points: 2
#     Edge 6, Type (0, 0), BuildingBlock: FUNLAD_clean_linker_1, # of connection points: 2
#     Edge 7, Type (0, 0), BuildingBlock: FUNLAD_clean_linker_1, # of connection points: 2
#     Edge 8, Type (0, 0), BuildingBlock: FUNLAD_clean_linker_1, # of connection points: 2
# Relax obj value: 0.000
# Max RMSD: 0.158
# Mean RMSD: 0.076
data_MOF--net-qzd--node1-ESEHIV_clean_sbu_0--edge1-FUNLAD_clean_linker_1
_symmetry_space_group_name_H-M    P1
_symmetry_Int_Tables_number       1
_symmetry_cell_setting            triclinic
loop_
_symmetry_equiv_pos_as_xyz
'x, y, z'
_cell_length_a     15.308638
_cell_length_b     17.643432
_cell_length_c     48.042815
_cell_angle_alpha  99.157905
_cell_angle_beta   98.705562
_cell_angle_gamma 115.79331
loop_
_atom_site_label
_atom_site_type_symbol
_atom_site_fract_x
_atom_site_fract_y
_atom_site_fract_z
_atom_type_partial_charge
Cu0 Cu 0.12752 0.15836 0.02401 0.0
N1 N 0.11328 0.08993 0.05069 0.0
N2 N 0.10021 0.05302 0.09283 0.0
C3 C 0.114 0.11581 0.07867 0.0
C4 C 0.08998 0.98436 0.07296 0.0
C5 C 0.09789 1.00739 0.0469 0.0
O6 O 0.05309 0.22096 0.03261 0.0
C7 C 0.32263 0.19394 0.02597 0.0
O8 O 0.27965 0.1093 0.02269 0.0
H9 H 0.12345 0.17947 0.08842 0.0
H10 H 0.09188 0.96666 0.02658 0.0
N11 N 0.073 0.09024 0.98567 0.0
N12 N 0.05461 0.05211 0.93769 0.0
C13 C 0.11367 0.10959 0.96315 0.0
C14 C 0.9849 1.01766 0.97409 0.0
C15 C 0.97326 0.99376 0.94438 0.0
C16 C 1.01012 0.24615 0.0142 0.0
O17 O 1.02454 0.23986 0.98784 0.0
H18 H 0.18442 0.16615 0.96529 0.0
H19 H 0.93213 0.9855 0.98631 0.0
O20 O 0.26956 0.23269 0.02789 0.0
H21 H 0.07584 0.92163 0.07668 0.0
H22 H 0.90943 0.93866 0.92906 0.0
Cu23 Cu 0.99103 0.1069 0.35813 0.0
N24 N 0.04524 0.22742 0.36355 0.0
N25 N 0.15238 0.36403 0.3646 0.0
C26 C 0.13181 0.27987 0.35778 0.0
C27 C 0.07551 0.36469 0.37505 0.0
C28 C 1.00962 0.28024 0.37439 0.0
O29 O 1.03133 0.06289 0.32534 0.0
C30 C 1.00566 0.10224 0.41586 0.0
O31 O 0.94496 0.13653 0.41289 0.0
H32 H 0.17922 0.25678 0.34885 0.0
H33 H 0.9408 0.25892 0.38144 0.0
N34 N 0.85115 0.05218 0.34962 0.0
N35 N 0.69423 0.95278 0.34622 0.0
C36 C 0.79233 0.97446 0.35409 0.0
C37 C 0.78838 0.08062 0.3385 0.0
C38 C 0.69149 1.01936 0.33641 0.0
C39 C 1.0031 0.07575 0.30102 0.0
O40 O 0.94852 0.11613 0.29947 0.0
H41 H 0.82165 0.93553 0.36319 0.0
H42 H 0.81146 0.14167 0.33244 0.0
O43 O 1.03777 0.08364 0.39417 0.0
H44 H 0.06691 0.42157 0.38259 0.0
H45 H 0.62405 1.02343 0.3284 0.0
Cu46 Cu 0.2411 0.10328 0.68279 0.0
N47 N 0.30873 0.22491 0.69445 0.0
N48 N 0.3393 0.36278 0.69876 0.0
C49 C 0.27422 0.27832 0.68614 0.0
C50 C 0.41798 0.36267 0.7158 0.0
C51 C 0.39872 0.27743 0.71311 0.0
O52 O 0.17238 0.07043 0.64205 0.0
C53 C 0.19417 0.07489 0.7348 0.0
O54 O 0.29245 0.11453 0.74334 0.0
H55 H 0.2023 0.25572 0.67124 0.0
H56 H 0.44646 0.25528 0.72424 0.0
N57 N 0.3307 0.05755 0.68561 0.0
N58 N 0.39045 0.96293 0.68817 0.0
C59 C 0.31101 0.97759 0.68881 0.0
C60 C 0.42529 0.09446 0.68271 0.0
C61 C 0.46233 1.03627 0.68436 0.0
C62 C 0.08826 0.06711 0.63265 0.0
O63 O 1.03829 0.08024 0.65114 0.0
H64 H 0.23914 0.93093 0.69089 0.0
H65 H 0.46382 0.15847 0.67905 0.0
O66 O 0.15265 0.06131 0.70819 0.0
H67 H 0.48405 0.41949 0.72957 0.0
H68 H 0.53596 0.04639 0.68243 0.0
H69 H 0.90617 0.24991 0.04072 0.0
C70 C 0.92891 0.26412 0.02099 0.0
H71 H 0.8959 0.29858 0.98226 0.0
H72 H 0.42983 0.11688 0.97002 0.0
H73 H 0.44479 0.04342 0.92523 0.0
H74 H 0.61076 0.07478 0.91684 0.0
H75 H 0.76238 0.18005 0.95287 0.0
C76 C 0.87464 0.28596 1.00227 0.0
C77 C 0.7752 0.27662 1.00573 0.0
C78 C 0.68709 0.21474 0.98422 0.0
C79 C 0.59127 0.19499 0.98933 0.0
C80 C 0.50449 0.13298 0.96751 0.0
C81 C 0.51194 0.09058 0.94164 0.0
C82 C 0.60536 0.10837 0.9369 0.0
C83 C 0.69205 0.16937 0.95785 0.0
H84 H 0.45829 0.30742 0.02243 0.0
C85 C 0.42813 0.24076 0.02436 0.0
H86 H 0.4525 0.13208 0.02454 0.0
H87 H 0.92699 0.41302 0.04803 0.0
H88 H 0.91154 0.48725 0.09271 0.0
H89 H 0.74604 0.44555 0.10311 0.0
H90 H 0.59485 0.33073 0.0687 0.0
C91 C 0.48425 0.19954 0.02338 0.0
C92 C 0.58327 0.23579 0.01604 0.0
C93 C 0.67087 0.30193 0.03666 0.0
C94 C 0.76683 0.32358 0.03121 0.0
C95 C 0.85284 0.39185 0.05166 0.0
C96 C 0.8449 0.43532 0.07726 0.0
C97 C 0.75166 0.41199 0.08308 0.0
C98 C 0.6654 0.34602 0.06312 0.0
H99 H 0.53445 0.87214 0.34144 0.0
C100 C 0.60804 0.8765 0.34796 0.0
H101 H 0.68722 0.81411 0.36476 0.0
H102 H 0.35588 0.58627 0.4228 0.0
H103 H 0.48741 0.68805 0.46527 0.0
H104 H 0.63677 0.81259 0.46018 0.0
H105 H 0.65606 0.83582 0.41261 0.0
C106 C 0.61489 0.81083 0.35733 0.0
C107 C 0.52461 0.73469 0.36009 0.0
C108 C 0.5143 0.72213 0.38808 0.0
C109 C 0.42743 0.65092 0.39105 0.0
C110 C 0.41965 0.63975 0.41929 0.0
C111 C 0.49471 0.6976 0.44387 0.0
C112 C 0.57889 0.76764 0.441 0.0
C113 C 0.589 0.78013 0.41352 0.0
H114 H 0.29142 0.42163 0.35081 0.0
C115 C 0.2394 0.43577 0.36091 0.0
H116 H 0.21087 0.53582 0.38073 0.0
H117 H 0.52655 0.73255 0.30303 0.0
H118 H 0.39382 0.63252 0.26063 0.0
H119 H 0.23832 0.51506 0.26592 0.0
H120 H 0.21538 0.49599 0.31361 0.0
C121 C 0.25892 0.51919 0.36951 0.0
C122 C 0.35081 0.59222 0.36604 0.0
C123 C 0.36136 0.60448 0.33799 0.0
C124 C 0.44921 0.67468 0.33499 0.0
C125 C 0.45988 0.68258 0.30667 0.0
C126 C 0.38449 0.62523 0.2821 0.0
C127 C 0.2971 0.55892 0.28508 0.0
C128 C 0.28518 0.54842 0.31262 0.0
H129 H 0.46823 0.88465 0.687 0.0
C130 C 0.39946 0.88557 0.68979 0.0
H131 H 0.25924 0.81478 0.69888 0.0
H132 H 0.37781 0.50519 0.65067 0.0
H133 H 0.34398 0.53312 0.6035 0.0
H134 H 0.30597 0.65328 0.59849 0.0
H135 H 0.3029 0.74699 0.64074 0.0
C136 C 0.32709 0.81501 0.6948 0.0
C137 C 0.34124 0.73761 0.69725 0.0
C138 C 0.33978 0.6817 0.67223 0.0
C139 C 0.35787 0.61023 0.67498 0.0
C140 C 0.36078 0.55826 0.64978 0.0
C141 C 0.34218 0.57396 0.62255 0.0
C142 C 0.32108 0.64177 0.61974 0.0
C143 C 0.31997 0.69531 0.6442 0.0
H144 H 0.25066 0.42207 0.68193 0.0
C145 C 0.32305 0.43545 0.69477 0.0
H146 H 0.46606 0.5342 0.71942 0.0
H147 H 0.34605 0.83028 0.74937 0.0
H148 H 0.37305 0.7991 0.79637 0.0
H149 H 0.40006 0.67321 0.80105 0.0
H150 H 0.40034 0.57772 0.75879 0.0
C151 C 0.3939 0.51879 0.70604 0.0
C152 C 0.374 0.59296 0.70267 0.0
C153 C 0.3735 0.64799 0.72758 0.0
C154 C 0.35698 0.72019 0.72486 0.0
C155 C 0.35756 0.77425 0.75015 0.0
C156 C 0.37304 0.75716 0.77728 0.0
C157 C 0.38832 0.68631 0.77992 0.0
C158 C 0.38854 0.63213 0.75546 0.0
H159 H 0.08373 1.02002 0.27711 0.0
C160 C 1.03388 0.04881 0.27504 0.0
H161 H 0.95082 0.08786 0.24683 0.0
H162 H 0.26312 0.12612 0.16643 0.0
H163 H 0.38304 0.25127 0.20564 0.0
H164 H 0.3436 0.28061 0.25285 0.0
H165 H 0.18484 0.18423 0.26131 0.0
C166 C 1.00252 0.061 0.2492 0.0
C167 C 1.03328 1.0372 0.22259 0.0
C168 C 0.12597 0.09472 0.21793 0.0
C169 C 0.14732 0.07946 0.19036 0.0
C170 C 0.24164 0.13651 0.18657 0.0
C171 C 0.31141 0.20818 0.20897 0.0
C172 C 0.2893 0.22458 0.23557 0.0
C173 C 0.19783 0.16873 0.24013 0.0
H174 H 0.0906 0.11765 0.13394 0.0
C175 C 0.093 0.0603 0.12263 0.0
H176 H 0.08971 0.94122 0.12626 0.0
H177 H 0.85478 0.90907 0.22564 0.0
H178 H 0.73583 0.7824 0.18673 0.0
H179 H 0.77056 0.75773 0.13854 0.0
H180 H 0.92423 0.85919 0.12891 0.0
C181 C 0.08889 0.99972 0.137 0.0
C182 C 0.07458 1.00827 0.16722 0.0
C183 C 0.98487 0.94758 0.17255 0.0
C184 C 0.96428 0.96217 0.20026 0.0
C185 C 0.87348 0.90137 0.20489 0.0
C186 C 0.80477 0.82836 0.18279 0.0
C187 C 0.82439 0.81443 0.15566 0.0
C188 C 0.91304 0.87322 0.15044 0.0
H189 H 0.98116 0.05833 0.59421 0.0
C190 C 0.05242 0.05909 0.60143 0.0
H191 H 0.18293 0.06595 0.58979 0.0
H192 H 0.88795 0.94013 0.45772 0.0
H193 H 0.80725 0.79882 0.46811 0.0
H194 H 0.85237 0.78015 0.51714 0.0
H195 H 0.97823 0.90289 0.5562 0.0
C196 C 0.10944 0.06099 0.58254 0.0
C197 C 0.08223 0.0708 0.55272 0.0
C198 C 1.00975 0.99822 0.53007 0.0
C199 C 0.98483 1.00876 0.50165 0.0
C200 C 0.9106 0.93558 0.47959 0.0
C201 C 0.86359 0.85414 0.48526 0.0
C202 C 0.88896 0.84364 0.51289 0.0
C203 C 0.96116 0.9146 0.53512 0.0
H204 H 0.08512 0.05636 0.44597 0.0
C205 C 1.03522 0.08513 0.44399 0.0
H206 H 0.95377 0.13554 0.46548 0.0
H207 H 0.22492 0.22324 0.5912 0.0
H208 H 0.30586 0.36433 0.58079 0.0
H209 H 0.26365 0.38227 0.53146 0.0
H210 H 0.14008 0.2591 0.49222 0.0
C211 C 1.00184 0.10495 0.46703 0.0
C212 C 1.03322 0.09168 0.49593 0.0
C213 C 0.10627 0.16405 0.51854 0.0
C214 C 0.13102 0.15358 0.54693 0.0
C215 C 0.20367 0.22728 0.56917 0.0
C216 C 0.25065 0.30874 0.56351 0.0
C217 C 0.2268 0.31885 0.53575 0.0
C218 C 0.1556 0.24763 0.51344 0.0
H219 H 0.05242 1.02059 0.74895 0.0
C220 C 0.13339 0.04913 0.75612 0.0
H221 H 0.25774 0.08938 0.79144 0.0
H222 H 0.99464 0.13874 0.87843 0.0
H223 H 1.0241 0.26873 0.86181 0.0
H224 H 0.09821 0.29597 0.81995 0.0
H225 H 0.14212 0.19284 0.7942 0.0
C226 C 0.17697 0.06207 0.78417 0.0
C227 C 0.11916 0.04015 0.80657 0.0
C228 C 0.09459 0.10132 0.82148 0.0
C229 C 0.05438 0.08676 0.84612 0.0
C230 C 1.02836 0.14796 0.86019 0.0
C231 C 0.04422 0.22253 0.85074 0.0
C232 C 0.08577 0.23779 0.82714 0.0
C233 C 0.11075 0.17811 0.81258 0.0
H234 H 0.14803 0.10993 0.90912 0.0
C235 C 0.07673 0.05771 0.90972 0.0
H236 H 0.94243 0.94845 0.88413 0.0
H237 H 0.14847 0.90625 0.78103 0.0
H238 H 0.11638 0.77484 0.79708 0.0
H239 H 0.04898 0.75037 0.84021 0.0
H240 H 1.01343 0.85707 0.86762 0.0
C241 C 1.01311 1.00264 0.88442 0.0
C242 C 0.04118 1.01207 0.85625 0.0
C243 C 0.05984 0.94832 0.84021 0.0
C244 C 0.09915 0.96255 0.8154 0.0
C245 C 0.11914 0.89876 0.80012 0.0
C246 C 0.10086 0.82304 0.80906 0.0
C247 C 0.06286 0.80926 0.83334 0.0
C248 C 0.04272 0.87101 0.84887 0.0
loop_
_geom_bond_atom_site_label_1
_geom_bond_atom_site_label_2
_geom_bond_distance
_geom_bond_site_symmetry_2
_ccdc_geom_bond_type
Cu0 N1 1.999 . S
Cu0 O6 1.974 1_455 S
Cu0 N11 1.985 1_554 S
Cu0 O20 1.959 . S
N1 Cu0 1.999 . S
N1 C3 1.263 1_455 S
N1 C5 1.389 . S
N2 C3 1.358 1_455 S
N2 C4 1.400 . S
C3 N1 1.263 1_655 S
C3 N2 1.358 1_655 S
C3 H9 0.930 1_545 S
C4 N2 1.400 . S
C4 C5 1.351 . S
C4 H21 0.930 . S
C5 N1 1.389 . S
C5 C4 1.351 . S
C5 H10 0.930 . S
O6 Cu0 1.974 1_655 S
O6 C16 1.282 1_544 S
C7 O8 1.266 1_554 S
C7 O20 1.252 1_565 S
O8 C7 1.266 1_556 S
H9 C3 0.930 1_565 S
H10 C5 0.930 . S
N11 Cu0 1.985 1_556 S
N11 C13 1.335 . S
N11 C14 1.390 1_445 S
N12 C13 1.345 . S
N12 C15 1.336 1_445 S
C13 N11 1.335 . S
C13 N12 1.345 . S
C13 H18 0.930 . S
C14 N11 1.390 1_665 S
C14 C15 1.346 . S
C14 H19 0.930 . S
C15 N12 1.336 1_665 S
C15 C14 1.346 . S
C15 H22 0.929 . S
C16 O6 1.282 1_566 S
C16 O17 1.216 . S
O17 C16 1.216 . S
H18 C13 0.930 . S
H19 C14 0.930 . S
O20 Cu0 1.959 . S
O20 C7 1.252 1_545 S
H21 C4 0.930 . S
H22 C15 0.929 . S
Cu23 N24 1.999 . S
Cu23 O29 1.974 . S
Cu23 N34 1.985 1_445 S
Cu23 O43 1.959 . S
N24 Cu23 1.999 . S
N24 C26 1.263 . S
N24 C28 1.389 . S
N25 C26 1.358 . S
N25 C27 1.400 . S
C26 N24 1.263 . S
C26 N25 1.358 . S
C26 H32 0.930 . S
C27 N25 1.400 . S
C27 C28 1.351 . S
C27 H44 0.930 . S
C28 N24 1.389 . S
C28 C27 1.351 . S
C28 H33 0.930 . S
O29 Cu23 1.974 . S
O29 C39 1.282 1_455 S
C30 O31 1.261 1_455 S
C30 O43 1.251 . S
O31 C30 1.261 1_655 S
H32 C26 0.930 . S
H33 C28 0.930 . S
N34 Cu23 1.985 1_665 S
N34 C36 1.335 . S
N34 C37 1.390 . S
N35 C36 1.345 . S
N35 C38 1.336 . S
C36 N34 1.335 . S
C36 N35 1.345 . S
C36 H41 0.930 . S
C37 N34 1.390 . S
C37 C38 1.346 . S
C37 H42 0.930 . S
C38 N35 1.336 . S
C38 C37 1.346 . S
C38 H45 0.929 . S
C39 O29 1.282 1_655 S
C39 O40 1.216 . S
O40 C39 1.216 . S
H41 C36 0.930 . S
H42 C37 0.930 . S
O43 Cu23 1.959 . S
O43 C30 1.251 . S
H44 C27 0.930 . S
H45 C38 0.929 . S
Cu46 N47 1.999 . S
Cu46 O52 1.974 . S
Cu46 N57 1.985 . S
Cu46 O66 1.959 . S
N47 Cu46 1.999 . S
N47 C49 1.263 . S
N47 C51 1.389 . S
N48 C49 1.358 . S
N48 C50 1.400 . S
C49 N47 1.263 . S
C49 N48 1.358 . S
C49 H55 0.930 . S
C50 N48 1.400 . S
C50 C51 1.351 . S
C50 H67 0.930 . S
C51 N47 1.389 . S
C51 C50 1.351 . S
C51 H56 0.930 . S
O52 Cu46 1.974 . S
O52 C62 1.282 . S
C53 O54 1.261 . S
C53 O66 1.251 . S
O54 C53 1.261 . S
H55 C49 0.930 . S
H56 C51 0.930 . S
N57 Cu46 1.985 . S
N57 C59 1.335 1_545 S
N57 C60 1.390 1_545 S
N58 C59 1.345 . S
N58 C61 1.336 . S
C59 N57 1.335 1_565 S
C59 N58 1.345 . S
C59 H64 0.930 1_565 S
C60 N57 1.390 1_565 S
C60 C61 1.346 . S
C60 H65 0.930 . S
C61 N58 1.336 . S
C61 C60 1.346 . S
C61 H68 0.929 . S
C62 O52 1.282 . S
C62 O63 1.216 . S
O63 C62 1.216 . S
H64 C59 0.930 1_545 S
H65 C60 0.930 . S
O66 Cu46 1.959 . S
O66 C53 1.251 . S
H67 C50 0.930 . S
H68 C61 0.929 . S
H69 C70 0.951 . S
C70 H69 0.951 . S
C70 C76 1.265 1_554 S
H71 C76 0.950 . S
H72 C80 0.949 . S
H73 C81 0.950 . S
H74 C82 0.951 . S
H75 C83 0.951 . S
C76 C70 1.265 1_556 S
C76 H71 0.950 . S
C76 C77 1.478 . S
C77 C76 1.478 . S
C77 C78 1.397 . S
C77 C94 1.394 1_566 S
C78 C77 1.397 . S
C78 C79 1.438 . S
C78 C83 1.429 . S
C79 C78 1.438 . S
C79 C80 1.428 . S
C79 C92 1.394 1_556 S
C80 H72 0.949 . S
C80 C79 1.428 . S
C80 C81 1.345 . S
C81 H73 0.950 . S
C81 C80 1.345 . S
C81 C82 1.424 . S
C82 H74 0.951 . S
C82 C81 1.424 . S
C82 C83 1.347 . S
C83 H75 0.951 . S
C83 C78 1.429 . S
C83 C82 1.347 . S
H84 C85 0.951 . S
C85 H84 0.951 . S
C85 C91 1.265 1_556 S
H86 C91 0.950 . S
H87 C95 0.949 . S
H88 C96 0.950 . S
H89 C97 0.951 . S
H90 C98 0.951 . S
C91 C85 1.265 1_554 S
C91 H86 0.950 . S
C91 C92 1.478 . S
C92 C79 1.394 1_554 S
C92 C91 1.478 . S
C92 C93 1.397 1_565 S
C93 C92 1.397 1_545 S
C93 C94 1.438 . S
C93 C98 1.429 . S
C94 C77 1.394 1_544 S
C94 C93 1.438 . S
C94 C95 1.428 . S
C95 H87 0.949 . S
C95 C94 1.428 . S
C95 C96 1.345 . S
C96 H88 0.950 . S
C96 C95 1.345 . S
C96 C97 1.424 . S
C97 H89 0.951 . S
C97 C96 1.424 . S
C97 C98 1.347 . S
C98 H90 0.951 . S
C98 C93 1.429 . S
C98 C97 1.347 . S
H99 C100 0.951 . S
C100 H99 0.951 . S
C100 C106 1.265 . S
H101 C106 0.950 . S
H102 C110 0.949 . S
H103 C111 0.950 . S
H104 C112 0.951 . S
H105 C113 0.951 . S
C106 C100 1.265 . S
C106 H101 0.950 . S
C106 C107 1.478 . S
C107 C106 1.478 . S
C107 C108 1.397 . S
C107 C124 1.394 . S
C108 C107 1.397 . S
C108 C109 1.438 . S
C108 C113 1.429 . S
C109 C108 1.438 . S
C109 C110 1.428 . S
C109 C122 1.394 . S
C110 H102 0.949 . S
C110 C109 1.428 . S
C110 C111 1.345 . S
C111 H103 0.950 . S
C111 C110 1.345 . S
C111 C112 1.424 . S
C112 H104 0.951 . S
C112 C111 1.424 . S
C112 C113 1.347 . S
C113 H105 0.951 . S
C113 C108 1.429 . S
C113 C112 1.347 . S
H114 C115 0.951 . S
C115 H114 0.951 . S
C115 C121 1.265 . S
H116 C121 0.950 . S
H117 C125 0.949 . S
H118 C126 0.950 . S
H119 C127 0.951 . S
H120 C128 0.951 . S
C121 C115 1.265 . S
C121 H116 0.950 . S
C121 C122 1.478 . S
C122 C109 1.394 . S
C122 C121 1.478 . S
C122 C123 1.397 . S
C123 C122 1.397 . S
C123 C124 1.438 . S
C123 C128 1.429 . S
C124 C107 1.394 . S
C124 C123 1.438 . S
C124 C125 1.428 . S
C125 H117 0.949 . S
C125 C124 1.428 . S
C125 C126 1.345 . S
C126 H118 0.950 . S
C126 C125 1.345 . S
C126 C127 1.424 . S
C127 H119 0.951 . S
C127 C126 1.424 . S
C127 C128 1.347 . S
C128 H120 0.951 . S
C128 C123 1.429 . S
C128 C127 1.347 . S
H129 C130 0.951 . S
C130 H129 0.951 . S
C130 C136 1.265 . S
H131 C136 0.950 . S
H132 C140 0.949 . S
H133 C141 0.950 . S
H134 C142 0.951 . S
H135 C143 0.951 . S
C136 C130 1.265 . S
C136 H131 0.950 . S
C136 C137 1.478 . S
C137 C136 1.478 . S
C137 C138 1.397 . S
C137 C154 1.394 . S
C138 C137 1.397 . S
C138 C139 1.438 . S
C138 C143 1.429 . S
C139 C138 1.438 . S
C139 C140 1.428 . S
C139 C152 1.394 . S
C140 H132 0.949 . S
C140 C139 1.428 . S
C140 C141 1.345 . S
C141 H133 0.950 . S
C141 C140 1.345 . S
C141 C142 1.424 . S
C142 H134 0.951 . S
C142 C141 1.424 . S
C142 C143 1.347 . S
C143 H135 0.951 . S
C143 C138 1.429 . S
C143 C142 1.347 . S
H144 C145 0.951 . S
C145 H144 0.951 . S
C145 C151 1.265 . S
H146 C151 0.950 . S
H147 C155 0.949 . S
H148 C156 0.950 . S
H149 C157 0.951 . S
H150 C158 0.951 . S
C151 C145 1.265 . S
C151 H146 0.950 . S
C151 C152 1.478 . S
C152 C139 1.394 . S
C152 C151 1.478 . S
C152 C153 1.397 . S
C153 C152 1.397 . S
C153 C154 1.438 . S
C153 C158 1.429 . S
C154 C137 1.394 . S
C154 C153 1.438 . S
C154 C155 1.428 . S
C155 H147 0.949 . S
C155 C154 1.428 . S
C155 C156 1.345 . S
C156 H148 0.950 . S
C156 C155 1.345 . S
C156 C157 1.424 . S
C157 H149 0.951 . S
C157 C156 1.424 . S
C157 C158 1.347 . S
C158 H150 0.951 . S
C158 C153 1.429 . S
C158 C157 1.347 . S
H159 C160 0.951 1_455 S
C160 H159 0.951 1_655 S
C160 C166 1.265 . S
H161 C166 0.950 . S
H162 C170 0.949 . S
H163 C171 0.950 . S
H164 C172 0.951 . S
H165 C173 0.951 . S
C166 C160 1.265 . S
C166 H161 0.950 . S
C166 C167 1.478 . S
C167 C166 1.478 . S
C167 C168 1.397 . S
C167 C184 1.394 . S
C168 C167 1.397 . S
C168 C169 1.438 1_655 S
C168 C173 1.429 . S
C169 C168 1.438 1_455 S
C169 C170 1.428 . S
C169 C182 1.394 . S
C170 H162 0.949 . S
C170 C169 1.428 . S
C170 C171 1.345 . S
C171 H163 0.950 . S
C171 C170 1.345 . S
C171 C172 1.424 1_455 S
C172 H164 0.951 . S
C172 C171 1.424 1_655 S
C172 C173 1.347 . S
C173 H165 0.951 . S
C173 C168 1.429 . S
C173 C172 1.347 . S
H174 C175 0.951 . S
C175 H174 0.951 . S
C175 C181 1.265 1_655 S
H176 C181 0.950 . S
H177 C185 0.949 . S
H178 C186 0.950 . S
H179 C187 0.951 . S
H180 C188 0.951 1_455 S
C181 C175 1.265 1_455 S
C181 H176 0.950 . S
C181 C182 1.478 . S
C182 C169 1.394 . S
C182 C181 1.478 . S
C182 C183 1.397 1_445 S
C183 C182 1.397 1_665 S
C183 C184 1.438 1_565 S
C183 C188 1.429 . S
C184 C167 1.394 . S
C184 C183 1.438 1_545 S
C184 C185 1.428 1_545 S
C185 H177 0.949 . S
C185 C184 1.428 1_565 S
C185 C186 1.345 . S
C186 H178 0.950 . S
C186 C185 1.345 . S
C186 C187 1.424 . S
C187 H179 0.951 . S
C187 C186 1.424 . S
C187 C188 1.347 . S
C188 H180 0.951 1_655 S
C188 C183 1.429 . S
C188 C187 1.347 . S
H189 C190 0.951 . S
C190 H189 0.951 . S
C190 C196 1.265 . S
H191 C196 0.950 . S
H192 C200 0.949 . S
H193 C201 0.950 . S
H194 C202 0.951 . S
H195 C203 0.951 . S
C196 C190 1.265 . S
C196 H191 0.950 . S
C196 C197 1.478 . S
C197 C196 1.478 . S
C197 C198 1.397 . S
C197 C214 1.394 . S
C198 C197 1.397 . S
C198 C199 1.438 . S
C198 C203 1.429 . S
C199 C198 1.438 . S
C199 C200 1.428 . S
C199 C212 1.394 . S
C200 H192 0.949 . S
C200 C199 1.428 . S
C200 C201 1.345 1_545 S
C201 H193 0.950 . S
C201 C200 1.345 1_565 S
C201 C202 1.424 . S
C202 H194 0.951 . S
C202 C201 1.424 . S
C202 C203 1.347 1_565 S
C203 H195 0.951 . S
C203 C198 1.429 . S
C203 C202 1.347 1_545 S
H204 C205 0.951 . S
C205 H204 0.951 . S
C205 C211 1.265 1_455 S
H206 C211 0.950 . S
H207 C215 0.949 . S
H208 C216 0.950 . S
H209 C217 0.951 . S
H210 C218 0.951 . S
C211 C205 1.265 1_655 S
C211 H206 0.950 . S
C211 C212 1.478 1_655 S
C212 C199 1.394 . S
C212 C211 1.478 1_455 S
C212 C213 1.397 . S
C213 C212 1.397 . S
C213 C214 1.438 . S
C213 C218 1.429 . S
C214 C197 1.394 . S
C214 C213 1.438 . S
C214 C215 1.428 . S
C215 H207 0.949 . S
C215 C214 1.428 . S
C215 C216 1.345 . S
C216 H208 0.950 . S
C216 C215 1.345 . S
C216 C217 1.424 . S
C217 H209 0.951 . S
C217 C216 1.424 . S
C217 C218 1.347 . S
C218 H210 0.951 . S
C218 C213 1.429 . S
C218 C217 1.347 . S
H219 C220 0.951 . S
C220 H219 0.951 . S
C220 C226 1.265 . S
H221 C226 0.950 . S
H222 C230 0.949 . S
H223 C231 0.950 . S
H224 C232 0.951 . S
H225 C233 0.951 . S
C226 C220 1.265 . S
C226 H221 0.950 . S
C226 C227 1.478 . S
C227 C226 1.478 . S
C227 C228 1.397 . S
C227 C244 1.394 . S
C228 C227 1.397 . S
C228 C229 1.438 . S
C228 C233 1.429 . S
C229 C228 1.438 . S
C229 C230 1.428 . S
C229 C242 1.394 . S
C230 H222 0.949 . S
C230 C229 1.428 . S
C230 C231 1.345 . S
C231 H223 0.950 . S
C231 C230 1.345 . S
C231 C232 1.424 . S
C232 H224 0.951 . S
C232 C231 1.424 . S
C232 C233 1.347 . S
C233 H225 0.951 . S
C233 C228 1.429 . S
C233 C232 1.347 . S
H234 C235 0.951 . S
C235 H234 0.951 . S
C235 C241 1.265 . S
H236 C241 0.950 1_655 S
H237 C245 0.949 . S
H238 C246 0.950 . S
H239 C247 0.951 . S
H240 C248 0.951 . S
C241 C235 1.265 . S
C241 H236 0.950 1_455 S
C241 C242 1.478 . S
C242 C229 1.394 . S
C242 C241 1.478 . S
C242 C243 1.397 1_545 S
C243 C242 1.397 1_565 S
C243 C244 1.438 1_565 S
C243 C248 1.429 1_455 S
C244 C227 1.394 . S
C244 C243 1.438 1_545 S
C244 C245 1.428 1_545 S
C245 H237 0.949 . S
C245 C244 1.428 1_565 S
C245 C246 1.345 1_455 S
C246 H238 0.950 . S
C246 C245 1.345 1_655 S
C246 C247 1.424 . S
C247 H239 0.951 . S
C247 C246 1.424 . S
C247 C248 1.347 . S
C248 H240 0.951 . S
C248 C243 1.429 1_655 S
C248 C247 1.347 . S
C70 C16 1.481 1_554 S
C85 C7 1.479 1_556 S
C100 N35 1.429 . S
C115 N25 1.413 . S
C130 N58 1.464 . S
C145 N48 1.478 . S
C160 C39 1.575 . S
C175 N2 1.541 1_655 S
C190 C62 1.530 . S
C205 C30 1.556 . S
C220 C53 1.497 . S
C235 N12 1.523 . S
