# Generated by pormake.
# Topology sma, (6)-cn, num edge types: 1
# Building blocks:
#     Node 0, Type 0, BuildingBlock: INOVEN_clean_sbu_0, # of connection points: 6
#     Node 1, Type 0, BuildingBlock: INOVEN_clean_sbu_0, # of connection points: 6
#     Node 2, Type 0, BuildingBlock: INOVEN_clean_sbu_0, # of connection points: 6
#     Edge 3, Type (0, 0), BuildingBlock: EYOCIG_clean_linker_4, # of connection points: 2
#     Edge 4, Type (0, 0), BuildingBlock: EYOCIG_clean_linker_4, # of connection points: 2
#     Edge 5, Type (0, 0), BuildingBlock: EYOCIG_clean_linker_4, # of connection points: 2
#     Edge 6, Type (0, 0), BuildingBlock: EYOCIG_clean_linker_4, # of connection points: 2
#     Edge 7, Type (0, 0), BuildingBlock: EYOCIG_clean_linker_4, # of connection points: 2
#     Edge 8, Type (0, 0), BuildingBlock: EYOCIG_clean_linker_4, # of connection points: 2
#     Edge 9, Type (0, 0), BuildingBlock: EYOCIG_clean_linker_4, # of connection points: 2
#     Edge 10, Type (0, 0), BuildingBlock: EYOCIG_clean_linker_4, # of connection points: 2
#     Edge 11, Type (0, 0), BuildingBlock: EYOCIG_clean_linker_4, # of connection points: 2
# Relax obj value: 0.144
# Max RMSD: 0.277
# Mean RMSD: 0.207
data_MOF--net-sma--node1-INOVEN_clean_sbu_0--edge1-EYOCIG_clean_linker_4
_symmetry_space_group_name_H-M    P1
_symmetry_Int_Tables_number       1
_symmetry_cell_setting            triclinic
loop_
_symmetry_equiv_pos_as_xyz
'x, y, z'
_cell_length_a     34.726291
_cell_length_b     41.585111
_cell_length_c     11.002263
_cell_angle_alpha  94.973803
_cell_angle_beta   89.494559
_cell_angle_gamma 144.04852
loop_
_atom_site_label
_atom_site_type_symbol
_atom_site_fract_x
_atom_site_fract_y
_atom_site_fract_z
_atom_type_partial_charge
Gd0 Gd 0.16353 0.6685 0.15256 0.0
Gd1 Gd 1.07302 0.66605 0.15728 0.0
C2 C 0.2268 0.78434 0.18252 0.0
C3 C 0.24511 0.6795 0.09044 0.0
C4 C 0.29201 0.68559 0.05729 0.0
C5 C 0.31362 0.67799 0.14203 0.0
C6 C 0.3121 0.69527 0.9385 0.0
C7 C 0.3678 0.68326 -0.01409 0.0
C8 C 0.34983 0.69413 0.9031 0.0
C9 C 0.35122 0.67678 0.10645 0.0
C10 C 0.13552 0.67039 0.37416 0.0
C11 C 1.01213 0.55343 0.18042 0.0
C12 C 0.98491 0.65135 0.14317 0.0
C13 C 0.95051 0.65891 0.11843 0.0
C14 C 0.94534 0.66623 -0.00037 0.0
C15 C 0.91751 0.65396 0.20882 0.0
C16 C 0.88128 0.66921 0.06576 0.0
C17 C 0.88336 0.65932 0.18286 0.0
C18 C 0.9111 0.67125 -0.02616 0.0
C19 C 1.10323 0.66143 0.93888 0.0
O20 O 0.23441 0.7585 0.14773 0.0
O21 O 0.16935 0.75751 0.2085 0.0
O22 O 0.22526 0.6699 0.20001 0.0
O23 O 0.22041 0.68319 0.01368 0.0
O24 O 0.1497 0.65022 0.34417 0.0
O25 O 0.14501 0.69513 0.29257 0.0
O26 O 1.00625 0.58105 0.20539 0.0
O27 O 1.06558 0.57657 0.13862 0.0
O28 O 1.00771 0.65054 0.05032 0.0
O29 O 1.01218 0.66219 0.25054 0.0
O30 O 0.10922 0.69566 -0.024 0.0
O31 O 1.08658 0.63391 0.02124 0.0
H32 H 0.29952 0.67097 0.23459 0.0
H33 H 0.29679 0.70181 0.87168 0.0
H34 H 0.36287 0.6997 0.80985 0.0
H35 H 0.36528 0.66881 0.1718 0.0
H36 H 0.96815 0.6685 0.92603 0.0
H37 H 0.91867 0.64651 0.29974 0.0
H38 H 0.85977 0.65683 0.2548 0.0
H39 H 0.90921 0.67801 0.8824 0.0
Gd40 Gd 0.66608 0.16742 0.3218 0.0
Gd41 Gd 0.59643 0.18398 0.29871 0.0
C42 C 0.50519 1.06073 0.28248 0.0
C43 C 0.70674 0.14087 0.40048 0.0
C44 C 0.68159 0.0919 0.42499 0.0
C45 C 0.69272 1.07201 0.3457 0.0
C46 C 0.65374 1.06892 0.53447 0.0
C47 C 0.65677 1.01285 0.49197 0.0
C48 C 0.64145 1.02966 0.56757 0.0
C49 C 0.68033 1.03266 0.379 0.0
C50 C 0.64515 0.16916 0.09339 0.0
C51 C 0.75518 0.28832 0.2846 0.0
C52 C 0.55593 0.21448 0.27431 0.0
C53 C 0.57764 0.2608 0.33778 0.0
C54 C 0.56881 0.26277 0.46224 0.0
C55 C 0.60661 0.30329 0.27292 0.0
C56 C 0.61144 0.34552 0.45093 0.0
C57 C 0.62348 0.34545 0.32919 0.0
C58 C 0.58548 0.30483 0.51813 0.0
C59 C 0.62928 0.19102 0.52849 0.0
O60 O 0.55795 0.0817 0.33091 0.0
O61 O 0.50934 0.0923 0.24168 0.0
O62 O 0.70575 0.14641 0.2857 0.0
O63 O 0.69232 0.15622 0.47313 0.0
O64 O 0.69489 0.18565 0.13177 0.0
O65 O 0.60461 0.14664 0.17167 0.0
O66 O 0.69955 0.26622 0.25943 0.0
O67 O 0.75651 0.26023 0.32618 0.0
O68 O 0.52797 0.17572 0.33945 0.0
O69 O 0.59628 0.22732 0.20244 0.0
O70 O 0.57403 0.16639 0.49264 0.0
O71 O 0.66538 0.21152 0.4435 0.0
H72 H 0.71411 0.08887 0.26081 0.0
H73 H 0.64436 0.08312 0.59757 0.0
H74 H 0.62309 1.01454 0.65512 0.0
H75 H 0.69229 1.0199 0.31948 0.0
H76 H 0.54752 0.23118 0.51579 0.0
H77 H 0.61461 0.3031 0.17764 0.0
H78 H 0.64354 0.37673 0.2762 0.0
H79 H 0.57594 0.30445 0.61246 0.0
Gd80 Gd 0.68329 0.74051 0.85015 0.0
Gd81 Gd 0.5769 0.61778 0.8408 0.0
C82 C 0.52711 0.65498 0.84395 0.0
C83 C 0.74374 0.83152 0.79477 0.0
C84 C 0.72004 0.84778 0.76328 0.0
C85 C 0.72967 0.88121 0.85029 0.0
C86 C 0.68786 0.83038 0.6463 0.0
C87 C 0.68129 0.88351 0.7005 0.0
C88 C 0.66876 0.84822 0.61532 0.0
C89 C 0.71034 0.89893 0.81907 0.0
C90 C 0.65406 0.70874 0.07053 0.0
C91 C 0.73181 0.703 0.8987 0.0
C92 C 0.51601 0.52277 0.84148 0.0
C93 C 0.53783 0.5052 0.79293 0.0
C94 C 0.52451 0.48574 0.66735 0.0
C95 C 0.57658 0.5117 0.86949 0.0
C96 C 0.58545 0.47768 0.698 0.0
C97 C 0.6002 0.49805 0.8223 0.0
C98 C 0.54815 0.47211 0.62048 0.0
C99 C 0.60947 0.65546 0.62548 0.0
O100 O 0.58613 0.70109 0.8111 0.0
O101 O 0.5124 0.6166 0.87972 0.0
O102 O 0.74049 0.82275 0.90814 0.0
O103 O 0.72668 0.79543 0.71477 0.0
O104 O 0.71311 0.75572 0.04718 0.0
O105 O 0.61188 0.68118 -0.02125 0.0
O106 O 0.66915 0.65407 0.90427 0.0
O107 O 0.75197 0.74451 0.86514 0.0
O108 O 0.49956 0.53214 0.75998 0.0
O109 O 0.55082 0.55982 0.93957 0.0
O110 O 0.54969 0.60927 0.64519 0.0
O111 O 0.64947 0.67829 0.71679 0.0
H112 H 0.75346 0.89466 0.94159 0.0
H113 H 0.67864 0.80396 0.57752 0.0
H114 H 0.64608 0.83584 0.52343 0.0
H115 H 0.72009 0.92608 0.88609 0.0
H116 H 0.49585 0.48102 0.60497 0.0
H117 H 0.58874 0.52739 -0.03403 0.0
H118 H 0.62902 0.50254 0.8833 0.0
H119 H 0.53642 0.45642 0.52402 0.0
C120 C 0.42467 0.66711 0.91426 0.0
C121 C 0.39876 0.67463 0.94512 0.0
C122 C 0.45488 0.6578 0.88364 0.0
C123 C 0.48534 0.65383 0.86732 0.0
C124 C 0.86259 0.393 0.24625 0.0
C125 C 0.81579 0.34532 0.2659 0.0
C126 C 0.91496 0.44879 0.2222 0.0
C127 C 0.95922 0.4965 0.2032 0.0
C128 C 0.65389 0.95329 0.57592 0.0
C129 C 0.65536 0.98044 0.53687 0.0
C130 C 0.65941 0.92671 0.62435 0.0
C131 C 0.6699 0.9077 0.66175 0.0
C132 C 0.80446 0.70319 -0.03101 0.0
C133 C 0.77756 0.70912 0.93486 0.0
C134 C 0.82996 0.69084 0.00923 0.0
C135 C 0.85252 0.68069 0.03996 0.0
C136 C 0.39213 0.95196 0.24405 0.0
C137 C 0.44348 1.00164 0.26115 0.0
C138 C 0.33339 0.89361 0.22152 0.0
C139 C 0.28437 0.84373 0.20407 0.0
C140 C 0.61778 0.4415 0.60651 0.0
C141 C 0.60396 0.45842 0.65143 0.0
C142 C 0.62345 0.41369 0.55137 0.0
C143 C 0.61862 0.38331 0.50277 0.0
C144 C 1.08362 0.63888 0.70411 0.0
C145 C 1.09018 0.64312 0.81272 0.0
C146 C 1.09015 0.64826 0.583 0.0
C147 C 0.10919 0.66194 0.4848 0.0
C148 C 0.64913 0.19568 0.88401 0.0
C149 C 0.6423 0.1816 -0.01876 0.0
C150 C 0.65536 0.20486 0.76232 0.0
C151 C 0.64992 0.20194 0.65363 0.0
C152 C 0.62973 0.69285 0.42226 0.0
C153 C 0.62563 0.67956 0.51845 0.0
C154 C 0.63118 0.69811 0.29894 0.0
C155 C 0.63728 0.69986 0.19208 0.0
loop_
_geom_bond_atom_site_label_1
_geom_bond_atom_site_label_2
_geom_bond_distance
_geom_bond_site_symmetry_2
_ccdc_geom_bond_type
Gd0 C3 2.818 . S
Gd0 O20 2.377 . S
Gd0 O22 2.448 . S
Gd0 O23 2.506 . S
Gd0 O24 2.435 . S
Gd0 O25 2.717 . S
Gd0 O27 2.395 1_455 S
Gd0 O31 2.327 1_554 S
Gd1 C12 2.818 . S
Gd1 O21 2.395 1_655 S
Gd1 O25 2.327 1_655 S
Gd1 O26 2.377 . S
Gd1 O28 2.448 . S
Gd1 O29 2.506 . S
Gd1 O30 2.435 1_554 S
Gd1 O31 2.717 1_654 S
C2 O20 1.240 . S
C2 O21 1.240 . S
C3 Gd0 2.818 . S
C3 C4 1.510 . S
C3 O22 1.249 . S
C3 O23 1.252 . S
C4 C3 1.510 . S
C4 C5 1.404 . S
C4 C6 1.352 . S
C5 C4 1.404 . S
C5 C9 1.389 . S
C5 H32 0.930 . S
C6 C4 1.352 . S
C6 C8 1.374 1_554 S
C6 H33 0.931 1_554 S
C7 C8 1.359 1_554 S
C7 C9 1.364 . S
C8 C6 1.374 1_556 S
C8 C7 1.359 1_556 S
C8 H34 0.931 . S
C9 C5 1.389 . S
C9 C7 1.364 . S
C9 H35 0.931 . S
C10 O24 1.256 . S
C10 O25 1.257 . S
C11 O26 1.240 . S
C11 O27 1.240 . S
C12 Gd1 2.818 . S
C12 C13 1.510 . S
C12 O28 1.249 . S
C12 O29 1.252 . S
C13 C12 1.510 . S
C13 C14 1.404 . S
C13 C15 1.352 . S
C14 C13 1.404 . S
C14 C18 1.389 . S
C14 H36 0.930 1_554 S
C15 C13 1.352 . S
C15 C17 1.374 . S
C15 H37 0.931 . S
C16 C17 1.359 . S
C16 C18 1.364 . S
C17 C15 1.374 . S
C17 C16 1.359 . S
C17 H38 0.931 . S
C18 C14 1.389 . S
C18 C16 1.364 . S
C18 H39 0.931 . S
C19 O30 1.256 1_455 S
C19 O31 1.257 . S
O20 Gd0 2.377 . S
O20 C2 1.240 . S
O21 Gd1 2.395 1_455 S
O21 C2 1.240 . S
O22 Gd0 2.448 . S
O22 C3 1.249 . S
O23 Gd0 2.506 . S
O23 C3 1.252 . S
O24 Gd0 2.435 . S
O24 C10 1.256 . S
O25 Gd0 2.717 . S
O25 Gd1 2.327 1_455 S
O25 C10 1.257 . S
O26 Gd1 2.377 . S
O26 C11 1.240 . S
O27 Gd0 2.395 1_655 S
O27 C11 1.240 . S
O28 Gd1 2.448 . S
O28 C12 1.249 . S
O29 Gd1 2.506 . S
O29 C12 1.252 . S
O30 Gd1 2.435 1_556 S
O30 C19 1.256 1_655 S
O31 Gd0 2.327 1_556 S
O31 Gd1 2.717 1_456 S
O31 C19 1.257 . S
H32 C5 0.930 . S
H33 C6 0.931 1_556 S
H34 C8 0.931 . S
H35 C9 0.931 . S
H36 C14 0.930 1_556 S
H37 C15 0.931 . S
H38 C17 0.931 . S
H39 C18 0.931 . S
Gd40 C43 2.818 . S
Gd40 O60 2.377 . S
Gd40 O62 2.448 . S
Gd40 O63 2.506 . S
Gd40 O64 2.435 . S
Gd40 O65 2.717 . S
Gd40 O67 2.395 . S
Gd40 O71 2.327 . S
Gd41 C52 2.818 . S
Gd41 O61 2.395 . S
Gd41 O65 2.327 . S
Gd41 O66 2.377 . S
Gd41 O68 2.448 . S
Gd41 O69 2.506 . S
Gd41 O70 2.435 . S
Gd41 O71 2.717 . S
C42 O60 1.240 . S
C42 O61 1.240 . S
C43 Gd40 2.818 . S
C43 C44 1.510 1_545 S
C43 O62 1.249 . S
C43 O63 1.252 . S
C44 C43 1.510 1_565 S
C44 C45 1.404 . S
C44 C46 1.352 . S
C45 C44 1.404 . S
C45 C49 1.389 . S
C45 H72 0.930 . S
C46 C44 1.352 . S
C46 C48 1.374 . S
C46 H73 0.931 . S
C47 C48 1.359 . S
C47 C49 1.364 . S
C48 C46 1.374 . S
C48 C47 1.359 . S
C48 H74 0.931 . S
C49 C45 1.389 . S
C49 C47 1.364 . S
C49 H75 0.931 . S
C50 O64 1.256 . S
C50 O65 1.257 . S
C51 O66 1.240 . S
C51 O67 1.240 . S
C52 Gd41 2.818 . S
C52 C53 1.510 . S
C52 O68 1.249 . S
C52 O69 1.252 . S
C53 C52 1.510 . S
C53 C54 1.404 . S
C53 C55 1.352 . S
C54 C53 1.404 . S
C54 C58 1.389 . S
C54 H76 0.930 . S
C55 C53 1.352 . S
C55 C57 1.374 . S
C55 H77 0.931 . S
C56 C57 1.359 . S
C56 C58 1.364 . S
C57 C55 1.374 . S
C57 C56 1.359 . S
C57 H78 0.931 . S
C58 C54 1.389 . S
C58 C56 1.364 . S
C58 H79 0.931 . S
C59 O70 1.256 . S
C59 O71 1.257 . S
O60 Gd40 2.377 . S
O60 C42 1.240 . S
O61 Gd41 2.395 . S
O61 C42 1.240 . S
O62 Gd40 2.448 . S
O62 C43 1.249 . S
O63 Gd40 2.506 . S
O63 C43 1.252 . S
O64 Gd40 2.435 . S
O64 C50 1.256 . S
O65 Gd40 2.717 . S
O65 Gd41 2.327 . S
O65 C50 1.257 . S
O66 Gd41 2.377 . S
O66 C51 1.240 . S
O67 Gd40 2.395 . S
O67 C51 1.240 . S
O68 Gd41 2.448 . S
O68 C52 1.249 . S
O69 Gd41 2.506 . S
O69 C52 1.252 . S
O70 Gd41 2.435 . S
O70 C59 1.256 . S
O71 Gd40 2.327 . S
O71 Gd41 2.717 . S
O71 C59 1.257 . S
H72 C45 0.930 . S
H73 C46 0.931 . S
H74 C48 0.931 . S
H75 C49 0.931 . S
H76 C54 0.930 . S
H77 C55 0.931 . S
H78 C57 0.931 . S
H79 C58 0.931 . S
Gd80 C83 2.818 . S
Gd80 O100 2.377 . S
Gd80 O102 2.448 . S
Gd80 O103 2.506 . S
Gd80 O104 2.435 1_556 S
Gd80 O105 2.717 . S
Gd80 O107 2.395 . S
Gd80 O111 2.327 . S
Gd81 C92 2.818 . S
Gd81 O101 2.395 . S
Gd81 O105 2.327 . S
Gd81 O106 2.377 . S
Gd81 O108 2.448 . S
Gd81 O109 2.506 . S
Gd81 O110 2.435 . S
Gd81 O111 2.717 . S
C82 O100 1.240 . S
C82 O101 1.240 . S
C83 Gd80 2.818 . S
C83 C84 1.510 . S
C83 O102 1.249 . S
C83 O103 1.252 . S
C84 C83 1.510 . S
C84 C85 1.404 . S
C84 C86 1.352 . S
C85 C84 1.404 . S
C85 C89 1.389 . S
C85 H112 0.930 1_556 S
C86 C84 1.352 . S
C86 C88 1.374 . S
C86 H113 0.931 . S
C87 C88 1.359 . S
C87 C89 1.364 . S
C88 C86 1.374 . S
C88 C87 1.359 . S
C88 H114 0.931 . S
C89 C85 1.389 . S
C89 C87 1.364 . S
C89 H115 0.931 1_556 S
C90 O104 1.256 . S
C90 O105 1.257 1_554 S
C91 O106 1.240 . S
C91 O107 1.240 . S
C92 Gd81 2.818 . S
C92 C93 1.510 . S
C92 O108 1.249 . S
C92 O109 1.252 . S
C93 C92 1.510 . S
C93 C94 1.404 . S
C93 C95 1.352 . S
C94 C93 1.404 . S
C94 C98 1.389 . S
C94 H116 0.930 . S
C95 C93 1.352 . S
C95 C97 1.374 . S
C95 H117 0.931 1_556 S
C96 C97 1.359 . S
C96 C98 1.364 . S
C97 C95 1.374 . S
C97 C96 1.359 . S
C97 H118 0.931 1_556 S
C98 C94 1.389 . S
C98 C96 1.364 . S
C98 H119 0.931 . S
C99 O110 1.256 . S
C99 O111 1.257 . S
O100 Gd80 2.377 . S
O100 C82 1.240 . S
O101 Gd81 2.395 . S
O101 C82 1.240 . S
O102 Gd80 2.448 . S
O102 C83 1.249 . S
O103 Gd80 2.506 . S
O103 C83 1.252 . S
O104 Gd80 2.435 1_554 S
O104 C90 1.256 . S
O105 Gd80 2.717 . S
O105 Gd81 2.327 . S
O105 C90 1.257 1_556 S
O106 Gd81 2.377 . S
O106 C91 1.240 . S
O107 Gd80 2.395 . S
O107 C91 1.240 . S
O108 Gd81 2.448 . S
O108 C92 1.249 . S
O109 Gd81 2.506 . S
O109 C92 1.252 . S
O110 Gd81 2.435 . S
O110 C99 1.256 . S
O111 Gd80 2.327 . S
O111 Gd81 2.717 . S
O111 C99 1.257 . S
H112 C85 0.930 1_554 S
H113 C86 0.931 . S
H114 C88 0.931 . S
H115 C89 0.931 1_554 S
H116 C94 0.930 . S
H117 C95 0.931 1_554 S
H118 C97 0.931 1_554 S
H119 C98 0.931 . S
C120 C121 1.170 1_556 S
C120 C122 1.380 . S
C121 C120 1.170 1_554 S
C122 C120 1.380 . S
C122 C123 1.170 . S
C123 C122 1.170 . S
C124 C125 1.170 . S
C124 C126 1.380 . S
C125 C124 1.170 . S
C126 C124 1.380 . S
C126 C127 1.170 . S
C127 C126 1.170 . S
C128 C129 1.170 . S
C128 C130 1.380 . S
C129 C128 1.170 . S
C130 C128 1.380 . S
C130 C131 1.170 . S
C131 C130 1.170 . S
C132 C133 1.170 . S
C132 C134 1.380 1_556 S
C133 C132 1.170 . S
C134 C132 1.380 1_554 S
C134 C135 1.170 . S
C135 C134 1.170 . S
C136 C137 1.170 . S
C136 C138 1.380 . S
C137 C136 1.170 . S
C138 C136 1.380 . S
C138 C139 1.170 . S
C139 C138 1.170 . S
C140 C141 1.170 . S
C140 C142 1.380 . S
C141 C140 1.170 . S
C142 C140 1.380 . S
C142 C143 1.170 . S
C143 C142 1.170 . S
C144 C145 1.170 . S
C144 C146 1.380 . S
C145 C144 1.170 . S
C146 C144 1.380 . S
C146 C147 1.170 . S
C147 C146 1.170 . S
C148 C149 1.170 1_556 S
C148 C150 1.380 . S
C149 C148 1.170 1_554 S
C150 C148 1.380 . S
C150 C151 1.170 . S
C151 C150 1.170 . S
C152 C153 1.170 . S
C152 C154 1.380 . S
C153 C152 1.170 . S
C154 C152 1.380 . S
C154 C155 1.170 . S
C155 C154 1.170 . S
C121 C7 2.233 . S
C123 C82 2.273 . S
C125 C51 2.982 . S
C127 C11 2.910 . S
C129 C47 1.611 . S
C131 C87 1.604 . S
C133 C91 2.768 . S
C135 C16 2.606 . S
C137 C42 2.644 1_565 S
C139 C2 2.592 . S
C141 C96 1.693 . S
C143 C56 1.665 . S
C145 C19 0.687 . S
C147 C10 0.770 . S
C149 C50 0.753 . S
C151 C59 0.679 . S
C153 C99 0.754 . S
C155 C90 0.709 . S
