# Generated by pormake.
# Topology bcu, (8)-cn, num edge types: 1
# Building blocks:
#     Node 0, Type 0, BuildingBlock: TAGTUT_clean_sbu_3, # of connection points: 8
#     Node 1, Type 0, BuildingBlock: TAGTUT_clean_sbu_3, # of connection points: 8
#     Edge 2, Type (0, 0), BuildingBlock: CIFDUS_clean_linker_0, # of connection points: 2
#     Edge 3, Type (0, 0), BuildingBlock: CIFDUS_clean_linker_0, # of connection points: 2
#     Edge 4, Type (0, 0), BuildingBlock: CIFDUS_clean_linker_0, # of connection points: 2
#     Edge 5, Type (0, 0), BuildingBlock: CIFDUS_clean_linker_0, # of connection points: 2
#     Edge 6, Type (0, 0), BuildingBlock: CIFDUS_clean_linker_0, # of connection points: 2
#     Edge 7, Type (0, 0), BuildingBlock: CIFDUS_clean_linker_0, # of connection points: 2
#     Edge 8, Type (0, 0), BuildingBlock: CIFDUS_clean_linker_0, # of connection points: 2
#     Edge 9, Type (0, 0), BuildingBlock: CIFDUS_clean_linker_0, # of connection points: 2
# Relax obj value: 0.010
# Max RMSD: 0.058
# Mean RMSD: 0.058
data_MOF--net-bcu--node1-TAGTUT_clean_sbu_3--edge1-CIFDUS_clean_linker_0
_symmetry_space_group_name_H-M    P1
_symmetry_Int_Tables_number       1
_symmetry_cell_setting            triclinic
loop_
_symmetry_equiv_pos_as_xyz
'x, y, z'
_cell_length_a     18.020121
_cell_length_b     17.829257
_cell_length_c     19.277982
_cell_angle_alpha  90.555657
_cell_angle_beta   90.352538
_cell_angle_gamma 107.85887
loop_
_atom_site_label
_atom_site_type_symbol
_atom_site_fract_x
_atom_site_fract_y
_atom_site_fract_z
_atom_type_partial_charge
C0 C 0.11032 0.09295 0.06605 0.0
C1 C 0.17612 0.84039 0.0675 0.0
C2 C 0.09279 0.79866 0.85571 0.0
Mg3 Mg 0.97958 0.15039 -0.01442 0.0
Mg4 Mg 0.80783 0.02643 0.94532 0.0
O5 O 0.91593 0.04895 0.94074 0.0
Mg6 Mg 0.97457 0.97522 0.96825 0.0
O7 O 0.0429 0.91113 -0.00377 0.0
Mg8 Mg 0.14562 0.96862 0.95342 0.0
Mg9 Mg 0.01352 0.80174 -0.00581 0.0
C10 C 0.82124 0.86745 0.87858 0.0
O11 O 0.88464 0.90383 0.04858 0.0
O12 O 0.91573 0.21397 0.91109 0.0
O13 O 0.90049 0.78281 0.04081 0.0
O14 O 0.88764 0.14463 0.06979 0.0
O15 O 0.80652 0.11942 0.87647 0.0
O16 O 0.77349 0.05452 0.04685 0.0
O17 O 0.07222 0.03319 0.88902 0.0
O18 O 0.06828 0.1562 0.90178 0.0
C19 C 0.09607 0.1062 0.87263 0.0
C20 C 0.85434 0.18923 0.87255 0.0
O21 O 0.89579 0.88551 0.88843 0.0
O22 O 0.20355 0.90149 0.02964 0.0
O23 O 0.77925 0.90793 0.90317 0.0
O24 O 0.13465 0.86908 0.87114 0.0
O25 O 0.10553 0.79552 0.06228 0.0
O26 O 0.0347 0.76177 0.89257 0.0
O27 O 0.03841 0.07167 0.04786 0.0
O28 O 0.15801 0.06221 0.03755 0.0
C29 C 0.81695 0.10876 0.08579 0.0
C30 C 0.86443 0.82986 0.0638 0.0
C31 C 0.6255 0.60173 0.5557 0.0
C32 C 0.6929 0.33866 0.54272 0.0
C33 C 0.5851 0.30424 0.34506 0.0
Mg34 Mg 0.47945 0.64847 0.48975 0.0
Mg35 Mg 0.30894 0.51369 0.46316 0.0
O36 O 0.41665 0.54517 0.44813 0.0
Mg37 Mg 0.48167 0.4767 0.47268 0.0
O38 O 0.55418 0.41581 0.49684 0.0
Mg39 Mg 0.64948 0.47302 0.44317 0.0
Mg40 Mg 0.52207 0.30576 0.48884 0.0
C41 C 0.32862 0.36393 0.38363 0.0
O42 O 0.39948 0.40521 0.55788 0.0
O43 O 0.40161 0.70463 0.42276 0.0
O44 O 0.41551 0.28455 0.54756 0.0
O45 O 0.39386 0.63845 0.58076 0.0
O46 O 0.28853 0.60708 0.40578 0.0
O47 O 0.28445 0.53783 0.56916 0.0
O48 O 0.56916 0.53551 0.38715 0.0
O49 O 0.56111 0.6573 0.39893 0.0
C50 C 0.58887 0.60784 0.36864 0.0
C51 C 0.33244 0.67773 0.39671 0.0
O52 O 0.40251 0.38417 0.39684 0.0
O53 O 0.71524 0.40531 0.51163 0.0
O54 O 0.28338 0.39983 0.41032 0.0
O55 O 0.62947 0.37313 0.36143 0.0
O56 O 0.62267 0.29257 0.54016 0.0
O57 O 0.52841 0.26766 0.38337 0.0
O58 O 0.55118 0.57716 0.5472 0.0
O59 O 0.67013 0.5698 0.52384 0.0
C60 C 0.32717 0.59748 0.60321 0.0
C61 C 0.38127 0.33157 0.57386 0.0
H62 H 0.2511 0.12694 0.13007 0.0
H63 H 0.03264 0.17932 0.13821 0.0
H64 H 0.07903 0.26318 0.24069 0.0
H65 H 0.18261 0.32309 0.32619 0.0
H66 H 0.40085 0.27029 0.31611 0.0
H67 H 0.35243 0.18341 0.21661 0.0
C68 C 0.21347 0.15695 0.15377 0.0
C69 C 0.13858 0.14732 0.12589 0.0
C70 C 0.24012 0.20412 0.21285 0.0
C71 C 0.09065 0.18606 0.15816 0.0
C72 C 0.11706 0.23372 0.21696 0.0
C73 C 0.21945 0.29193 0.30293 0.0
C74 C 0.29553 0.30336 0.32905 0.0
C75 C 0.19173 0.24312 0.24472 0.0
C76 C 0.34218 0.26258 0.29761 0.0
C77 C 0.31468 0.21323 0.2403 0.0
H78 H 0.66226 0.08316 0.11559 0.0
H79 H 0.89542 0.20809 0.18793 0.0
H80 H 0.8432 0.28166 0.27095 0.0
H81 H 0.73358 0.31627 0.31873 0.0
H82 H 0.49879 0.18901 0.25451 0.0
H83 H 0.54946 0.11125 0.17159 0.0
C84 C 0.70151 0.12538 0.15042 0.0
C85 C 0.78288 0.14045 0.14486 0.0
C86 C 0.67102 0.16839 0.19819 0.0
C87 C 0.83274 0.19554 0.19049 0.0
C88 C 0.80299 0.23814 0.2378 0.0
C89 C 0.69333 0.27227 0.2859 0.0
C90 C 0.61269 0.25992 0.29108 0.0
C91 C 0.72262 0.22645 0.24082 0.0
C92 C 0.5612 0.20056 0.25029 0.0
C93 C 0.59021 0.15586 0.20339 0.0
H94 H 0.81725 0.68115 0.11454 0.0
H95 H 0.77378 0.90601 0.13132 0.0
H96 H 0.68421 0.85588 0.2268 0.0
H97 H 0.62415 0.75122 0.30856 0.0
H98 H 0.66968 0.52738 0.29341 0.0
H99 H 0.75402 0.57516 0.19392 0.0
C100 C 0.78786 0.71939 0.13843 0.0
C101 C 0.80275 0.79766 0.11572 0.0
C102 C 0.73783 0.69078 0.19405 0.0
C103 C 0.76364 0.84572 0.14756 0.0
C104 C 0.71274 0.81719 0.20243 0.0
C105 C 0.65257 0.71262 0.28382 0.0
C106 C 0.64107 0.63583 0.30896 0.0
C107 C 0.70058 0.74035 0.22677 0.0
C108 C 0.67781 0.58673 0.27551 0.0
C109 C 0.72583 0.61399 0.21852 0.0
H110 H 0.12283 0.79104 0.19294 0.0
H111 H 0.33418 0.86104 0.07397 0.0
H112 H 0.4064 0.82798 0.17185 0.0
H113 H 0.40434 0.76504 0.28709 0.0
H114 H 0.18972 0.69471 0.40181 0.0
H115 H 0.12389 0.74407 0.31034 0.0
C116 C 0.1848 0.79908 0.18833 0.0
C117 C 0.22293 0.82616 0.12598 0.0
C118 C 0.22523 0.78073 0.24437 0.0
C119 C 0.30359 0.839 0.12136 0.0
C120 C 0.34469 0.82026 0.17725 0.0
C121 C 0.34392 0.76308 0.29269 0.0
C122 C 0.30159 0.72652 0.35078 0.0
C123 C 0.30564 0.78943 0.23859 0.0
C124 C 0.22308 0.72281 0.3574 0.0
C125 C 0.18534 0.75034 0.30496 0.0
H126 H 0.24293 0.81571 0.82698 0.0
H127 H 0.00882 0.67734 0.77043 0.0
H128 H 0.06051 0.5965 0.6919 0.0
H129 H 0.17338 0.56798 0.63731 0.0
H130 H 0.40661 0.70446 0.70006 0.0
H131 H 0.35395 0.78155 0.77975 0.0
C132 C 0.20309 0.76858 0.7967 0.0
C133 C 0.12215 0.75384 0.80308 0.0
C134 C 0.23315 0.7209 0.75392 0.0
C135 C 0.07137 0.69073 0.76542 0.0
C136 C 0.10096 0.64416 0.72102 0.0
C137 C 0.21266 0.61334 0.66958 0.0
C138 C 0.29405 0.6304 0.66231 0.0
C139 C 0.18189 0.65861 0.71495 0.0
C140 C 0.34387 0.69 0.70428 0.0
C141 C 0.31382 0.7347 0.74952 0.0
H142 H 0.33452 0.18232 0.62482 0.0
H143 H 0.29602 0.4091 0.64621 0.0
H144 H 0.20581 0.35869 0.74079 0.0
H145 H 0.14056 0.25234 0.81823 0.0
H146 H 0.17773 0.02496 0.79838 0.0
H147 H 0.26712 0.0744 0.70214 0.0
C148 C 0.30619 0.22087 0.64976 0.0
C149 C 0.32224 0.29969 0.62809 0.0
C150 C 0.25494 0.19171 0.70465 0.0
C151 C 0.2848 0.34835 0.66138 0.0
C152 C 0.23342 0.31962 0.71573 0.0
C153 C 0.16827 0.21322 0.79333 0.0
C154 C 0.15265 0.13491 0.81596 0.0
C155 C 0.21868 0.24173 0.73805 0.0
C156 C 0.18886 0.08543 0.78232 0.0
C157 C 0.23977 0.11367 0.7272 0.0
H158 H 0.82312 0.13957 0.74209 0.0
H159 H 0.86334 0.34633 0.87202 0.0
H160 H 0.82992 0.41839 0.77433 0.0
H161 H 0.77152 0.41453 0.65633 0.0
H162 H 0.72921 0.20411 0.53058 0.0
H163 H 0.78363 0.14177 0.62149 0.0
C164 C 0.82511 0.20069 0.74879 0.0
C165 C 0.84343 0.23734 0.81408 0.0
C166 C 0.80623 0.24095 0.69293 0.0
C167 C 0.84821 0.31696 0.82212 0.0
C168 C 0.82915 0.3579 0.76638 0.0
C169 C 0.7772 0.35626 0.64821 0.0
C170 C 0.74712 0.31372 0.58711 0.0
C171 C 0.80588 0.31965 0.70202 0.0
C172 C 0.75278 0.2377 0.57718 0.0
C173 C 0.783 0.20185 0.62935 0.0
H174 H 0.58284 0.61689 0.68883 0.0
H175 H 0.75672 0.7218 0.5364 0.0
H176 H 0.83817 0.80745 0.62517 0.0
H177 H 0.86176 0.85041 0.74682 0.0
H178 H 0.68744 0.74916 0.89958 0.0
H179 H 0.60554 0.66222 0.81105 0.0
C180 C 0.63761 0.66001 0.67509 0.0
C181 C 0.66348 0.66409 0.60632 0.0
C182 C 0.68529 0.70758 0.72689 0.0
C183 C 0.73547 0.71857 0.58911 0.0
C184 C 0.78246 0.76677 0.6399 0.0
C185 C 0.80676 0.80775 0.76077 0.0
C186 C 0.78127 0.8043 0.82949 0.0
C187 C 0.75875 0.76069 0.70916 0.0
C188 C 0.70866 0.75117 0.84694 0.0
C189 C 0.66146 0.70242 0.79626 0.0
loop_
_geom_bond_atom_site_label_1
_geom_bond_atom_site_label_2
_geom_bond_distance
_geom_bond_site_symmetry_2
_ccdc_geom_bond_type
C0 O27 1.312 . S
C0 O28 1.208 . S
C1 O22 1.331 . S
C1 O25 1.244 . S
C2 O24 1.264 . S
C2 O26 1.273 . S
Mg3 O5 1.939 . S
Mg3 O12 2.092 . S
Mg3 O14 2.013 1_556 S
Mg3 O18 2.040 1_655 S
Mg3 O27 2.283 1_656 S
Mg4 O5 1.963 . S
Mg4 O15 1.942 . S
Mg4 O16 1.955 1_556 S
Mg4 O23 1.986 1_545 S
O5 Mg3 1.939 . S
O5 Mg4 1.963 . S
O5 Mg6 1.915 1_546 S
Mg6 O5 1.915 1_564 S
Mg6 O7 1.915 1_655 S
Mg6 O11 2.013 . S
Mg6 O17 2.114 1_664 S
Mg6 O21 2.013 1_554 S
Mg6 O27 2.114 1_665 S
O7 Mg6 1.915 1_455 S
O7 Mg8 1.936 . S
O7 Mg9 1.963 . S
Mg8 O7 1.936 . S
Mg8 O17 2.291 1_564 S
Mg8 O22 2.081 . S
Mg8 O24 2.023 1_554 S
Mg8 O28 2.031 1_565 S
Mg9 O7 1.963 . S
Mg9 O13 1.986 1_455 S
Mg9 O25 1.942 . S
Mg9 O26 1.955 1_554 S
C10 O21 1.191 . S
C10 O23 1.307 . S
O11 Mg6 2.013 . S
O11 C30 1.191 . S
O12 Mg3 2.092 . S
O12 C20 1.331 . S
O13 Mg9 1.986 1_655 S
O13 C30 1.307 . S
O14 Mg3 2.013 1_554 S
O14 C29 1.264 . S
O15 Mg4 1.942 . S
O15 C20 1.244 . S
O16 Mg4 1.955 1_554 S
O16 C29 1.273 . S
O17 Mg6 2.114 1_446 S
O17 Mg8 2.291 1_546 S
O17 C19 1.312 . S
O18 Mg3 2.040 1_455 S
O18 C19 1.208 . S
C19 O17 1.312 . S
C19 O18 1.208 . S
C20 O12 1.331 . S
C20 O15 1.244 . S
O21 Mg6 2.013 1_556 S
O21 C10 1.191 . S
O22 C1 1.331 . S
O22 Mg8 2.081 . S
O23 Mg4 1.986 1_565 S
O23 C10 1.307 . S
O24 C2 1.264 . S
O24 Mg8 2.023 1_556 S
O25 C1 1.244 . S
O25 Mg9 1.942 . S
O26 C2 1.273 . S
O26 Mg9 1.955 1_556 S
O27 C0 1.312 . S
O27 Mg3 2.283 1_454 S
O27 Mg6 2.114 1_445 S
O28 C0 1.208 . S
O28 Mg8 2.031 1_545 S
C29 O14 1.264 . S
C29 O16 1.273 . S
C30 O11 1.191 . S
C30 O13 1.307 . S
C31 O58 1.312 . S
C31 O59 1.208 . S
C32 O53 1.331 . S
C32 O56 1.244 . S
C33 O55 1.264 . S
C33 O57 1.273 . S
Mg34 O36 1.936 . S
Mg34 O43 2.081 . S
Mg34 O45 2.023 . S
Mg34 O49 2.031 . S
Mg34 O58 2.291 . S
Mg35 O36 1.963 . S
Mg35 O46 1.942 . S
Mg35 O47 1.955 . S
Mg35 O54 1.986 . S
O36 Mg34 1.936 . S
O36 Mg35 1.963 . S
O36 Mg37 1.915 . S
Mg37 O36 1.915 . S
Mg37 O38 1.915 . S
Mg37 O42 2.013 . S
Mg37 O48 2.114 . S
Mg37 O52 2.013 . S
Mg37 O58 2.114 . S
O38 Mg37 1.915 . S
O38 Mg39 1.936 . S
O38 Mg40 1.963 . S
Mg39 O38 1.936 . S
Mg39 O48 2.291 . S
Mg39 O53 2.081 . S
Mg39 O55 2.023 . S
Mg39 O59 2.031 . S
Mg40 O38 1.963 . S
Mg40 O44 1.986 . S
Mg40 O56 1.942 . S
Mg40 O57 1.955 . S
C41 O52 1.191 . S
C41 O54 1.307 . S
O42 Mg37 2.013 . S
O42 C61 1.191 . S
O43 Mg34 2.081 . S
O43 C51 1.331 . S
O44 Mg40 1.986 . S
O44 C61 1.307 . S
O45 Mg34 2.023 . S
O45 C60 1.264 . S
O46 Mg35 1.942 . S
O46 C51 1.244 . S
O47 Mg35 1.955 . S
O47 C60 1.273 . S
O48 Mg37 2.114 . S
O48 Mg39 2.291 . S
O48 C50 1.312 . S
O49 Mg34 2.031 . S
O49 C50 1.208 . S
C50 O48 1.312 . S
C50 O49 1.208 . S
C51 O43 1.331 . S
C51 O46 1.244 . S
O52 Mg37 2.013 . S
O52 C41 1.191 . S
O53 C32 1.331 . S
O53 Mg39 2.081 . S
O54 Mg35 1.986 . S
O54 C41 1.307 . S
O55 C33 1.264 . S
O55 Mg39 2.023 . S
O56 C32 1.244 . S
O56 Mg40 1.942 . S
O57 C33 1.273 . S
O57 Mg40 1.955 . S
O58 C31 1.312 . S
O58 Mg34 2.291 . S
O58 Mg37 2.114 . S
O59 C31 1.208 . S
O59 Mg39 2.031 . S
C60 O45 1.264 . S
C60 O47 1.273 . S
C61 O42 1.191 . S
C61 O44 1.307 . S
H62 C68 0.930 . S
H63 C71 0.930 . S
H64 C72 0.930 . S
H65 C73 0.930 . S
H66 C76 0.930 . S
H67 C77 0.930 . S
C68 H62 0.930 . S
C68 C69 1.355 . S
C68 C70 1.415 . S
C69 C68 1.355 . S
C69 C71 1.419 . S
C70 C68 1.415 . S
C70 C75 1.425 . S
C70 C77 1.409 . S
C71 H63 0.930 . S
C71 C69 1.419 . S
C71 C72 1.362 . S
C72 H64 0.930 . S
C72 C71 1.362 . S
C72 C75 1.409 . S
C73 H65 0.930 . S
C73 C74 1.355 . S
C73 C75 1.415 . S
C74 C73 1.355 . S
C74 C76 1.419 . S
C75 C70 1.425 . S
C75 C72 1.409 . S
C75 C73 1.415 . S
C76 H66 0.930 . S
C76 C74 1.419 . S
C76 C77 1.362 . S
C77 H67 0.930 . S
C77 C70 1.409 . S
C77 C76 1.362 . S
H78 C84 0.930 . S
H79 C87 0.930 . S
H80 C88 0.930 . S
H81 C89 0.930 . S
H82 C92 0.930 . S
H83 C93 0.930 . S
C84 H78 0.930 . S
C84 C85 1.355 . S
C84 C86 1.415 . S
C85 C84 1.355 . S
C85 C87 1.419 . S
C86 C84 1.415 . S
C86 C91 1.425 . S
C86 C93 1.409 . S
C87 H79 0.930 . S
C87 C85 1.419 . S
C87 C88 1.362 . S
C88 H80 0.930 . S
C88 C87 1.362 . S
C88 C91 1.409 . S
C89 H81 0.930 . S
C89 C90 1.355 . S
C89 C91 1.415 . S
C90 C89 1.355 . S
C90 C92 1.419 . S
C91 C86 1.425 . S
C91 C88 1.409 . S
C91 C89 1.415 . S
C92 H82 0.930 . S
C92 C90 1.419 . S
C92 C93 1.362 . S
C93 H83 0.930 . S
C93 C86 1.409 . S
C93 C92 1.362 . S
H94 C100 0.930 . S
H95 C103 0.930 . S
H96 C104 0.930 . S
H97 C105 0.930 . S
H98 C108 0.930 . S
H99 C109 0.930 . S
C100 H94 0.930 . S
C100 C101 1.355 . S
C100 C102 1.415 . S
C101 C100 1.355 . S
C101 C103 1.419 . S
C102 C100 1.415 . S
C102 C107 1.425 . S
C102 C109 1.409 . S
C103 H95 0.930 . S
C103 C101 1.419 . S
C103 C104 1.362 . S
C104 H96 0.930 . S
C104 C103 1.362 . S
C104 C107 1.409 . S
C105 H97 0.930 . S
C105 C106 1.355 . S
C105 C107 1.415 . S
C106 C105 1.355 . S
C106 C108 1.419 . S
C107 C102 1.425 . S
C107 C104 1.409 . S
C107 C105 1.415 . S
C108 H98 0.930 . S
C108 C106 1.419 . S
C108 C109 1.362 . S
C109 H99 0.930 . S
C109 C102 1.409 . S
C109 C108 1.362 . S
H110 C116 0.930 . S
H111 C119 0.930 . S
H112 C120 0.930 . S
H113 C121 0.930 . S
H114 C124 0.930 . S
H115 C125 0.930 . S
C116 H110 0.930 . S
C116 C117 1.355 . S
C116 C118 1.415 . S
C117 C116 1.355 . S
C117 C119 1.419 . S
C118 C116 1.415 . S
C118 C123 1.425 . S
C118 C125 1.409 . S
C119 H111 0.930 . S
C119 C117 1.419 . S
C119 C120 1.362 . S
C120 H112 0.930 . S
C120 C119 1.362 . S
C120 C123 1.409 . S
C121 H113 0.930 . S
C121 C122 1.355 . S
C121 C123 1.415 . S
C122 C121 1.355 . S
C122 C124 1.419 . S
C123 C118 1.425 . S
C123 C120 1.409 . S
C123 C121 1.415 . S
C124 H114 0.930 . S
C124 C122 1.419 . S
C124 C125 1.362 . S
C125 H115 0.930 . S
C125 C118 1.409 . S
C125 C124 1.362 . S
H126 C132 0.930 . S
H127 C135 0.930 . S
H128 C136 0.930 . S
H129 C137 0.930 . S
H130 C140 0.930 . S
H131 C141 0.930 . S
C132 H126 0.930 . S
C132 C133 1.355 . S
C132 C134 1.415 . S
C133 C132 1.355 . S
C133 C135 1.419 . S
C134 C132 1.415 . S
C134 C139 1.425 . S
C134 C141 1.409 . S
C135 H127 0.930 . S
C135 C133 1.419 . S
C135 C136 1.362 . S
C136 H128 0.930 . S
C136 C135 1.362 . S
C136 C139 1.409 . S
C137 H129 0.930 . S
C137 C138 1.355 . S
C137 C139 1.415 . S
C138 C137 1.355 . S
C138 C140 1.419 . S
C139 C134 1.425 . S
C139 C136 1.409 . S
C139 C137 1.415 . S
C140 H130 0.930 . S
C140 C138 1.419 . S
C140 C141 1.362 . S
C141 H131 0.930 . S
C141 C134 1.409 . S
C141 C140 1.362 . S
H142 C148 0.930 . S
H143 C151 0.930 . S
H144 C152 0.930 . S
H145 C153 0.930 . S
H146 C156 0.930 . S
H147 C157 0.930 . S
C148 H142 0.930 . S
C148 C149 1.355 . S
C148 C150 1.415 . S
C149 C148 1.355 . S
C149 C151 1.419 . S
C150 C148 1.415 . S
C150 C155 1.425 . S
C150 C157 1.409 . S
C151 H143 0.930 . S
C151 C149 1.419 . S
C151 C152 1.362 . S
C152 H144 0.930 . S
C152 C151 1.362 . S
C152 C155 1.409 . S
C153 H145 0.930 . S
C153 C154 1.355 . S
C153 C155 1.415 . S
C154 C153 1.355 . S
C154 C156 1.419 . S
C155 C150 1.425 . S
C155 C152 1.409 . S
C155 C153 1.415 . S
C156 H146 0.930 . S
C156 C154 1.419 . S
C156 C157 1.362 . S
C157 H147 0.930 . S
C157 C150 1.409 . S
C157 C156 1.362 . S
H158 C164 0.930 . S
H159 C167 0.930 . S
H160 C168 0.930 . S
H161 C169 0.930 . S
H162 C172 0.930 . S
H163 C173 0.930 . S
C164 H158 0.930 . S
C164 C165 1.355 . S
C164 C166 1.415 . S
C165 C164 1.355 . S
C165 C167 1.419 . S
C166 C164 1.415 . S
C166 C171 1.425 . S
C166 C173 1.409 . S
C167 H159 0.930 . S
C167 C165 1.419 . S
C167 C168 1.362 . S
C168 H160 0.930 . S
C168 C167 1.362 . S
C168 C171 1.409 . S
C169 H161 0.930 . S
C169 C170 1.355 . S
C169 C171 1.415 . S
C170 C169 1.355 . S
C170 C172 1.419 . S
C171 C166 1.425 . S
C171 C168 1.409 . S
C171 C169 1.415 . S
C172 H162 0.930 . S
C172 C170 1.419 . S
C172 C173 1.362 . S
C173 H163 0.930 . S
C173 C166 1.409 . S
C173 C172 1.362 . S
H174 C180 0.930 . S
H175 C183 0.930 . S
H176 C184 0.930 . S
H177 C185 0.930 . S
H178 C188 0.930 . S
H179 C189 0.930 . S
C180 H174 0.930 . S
C180 C181 1.355 . S
C180 C182 1.415 . S
C181 C180 1.355 . S
C181 C183 1.419 . S
C182 C180 1.415 . S
C182 C187 1.425 . S
C182 C189 1.409 . S
C183 H175 0.930 . S
C183 C181 1.419 . S
C183 C184 1.362 . S
C184 H176 0.930 . S
C184 C183 1.362 . S
C184 C187 1.409 . S
C185 H177 0.930 . S
C185 C186 1.355 . S
C185 C187 1.415 . S
C186 C185 1.355 . S
C186 C188 1.419 . S
C187 C182 1.425 . S
C187 C184 1.409 . S
C187 C185 1.415 . S
C188 H178 0.930 . S
C188 C186 1.419 . S
C188 C189 1.362 . S
C189 H179 0.930 . S
C189 C182 1.409 . S
C189 C188 1.362 . S
C69 C0 1.308 . S
C74 C41 1.313 . S
C85 C29 1.630 . S
C90 C33 1.633 . S
C101 C30 1.304 . S
C106 C50 1.277 . S
C117 C1 1.545 . S
C122 C51 1.533 . S
C133 C2 1.678 . S
C138 C60 1.675 . S
C149 C61 1.265 . S
C154 C19 1.242 . S
C165 C20 1.536 . S
C170 C32 1.519 . S
C181 C31 1.235 . S
C186 C10 1.267 . S
