# Generated by pormake.
# Topology upa, (4)-cn, num edge types: 1
# Building blocks:
#     Node 0, Type 0, BuildingBlock: AZAVOO_clean_sbu_0, # of connection points: 4
#     Node 1, Type 0, BuildingBlock: AZAVOO_clean_sbu_0, # of connection points: 4
#     Node 2, Type 0, BuildingBlock: AZAVOO_clean_sbu_0, # of connection points: 4
#     Node 3, Type 0, BuildingBlock: AZAVOO_clean_sbu_0, # of connection points: 4
#     Node 4, Type 0, BuildingBlock: AZAVOO_clean_sbu_0, # of connection points: 4
#     Node 5, Type 0, BuildingBlock: AZAVOO_clean_sbu_0, # of connection points: 4
#     Node 6, Type 0, BuildingBlock: AZAVOO_clean_sbu_0, # of connection points: 4
#     Node 7, Type 0, BuildingBlock: AZAVOO_clean_sbu_0, # of connection points: 4
#     Edge 8, Type (0, 0), BuildingBlock: EYOCIG_clean_linker_4, # of connection points: 2
#     Edge 9, Type (0, 0), BuildingBlock: EYOCIG_clean_linker_4, # of connection points: 2
#     Edge 10, Type (0, 0), BuildingBlock: EYOCIG_clean_linker_4, # of connection points: 2
#     Edge 11, Type (0, 0), BuildingBlock: EYOCIG_clean_linker_4, # of connection points: 2
#     Edge 12, Type (0, 0), BuildingBlock: EYOCIG_clean_linker_4, # of connection points: 2
#     Edge 13, Type (0, 0), BuildingBlock: EYOCIG_clean_linker_4, # of connection points: 2
#     Edge 14, Type (0, 0), BuildingBlock: EYOCIG_clean_linker_4, # of connection points: 2
#     Edge 15, Type (0, 0), BuildingBlock: EYOCIG_clean_linker_4, # of connection points: 2
#     Edge 16, Type (0, 0), BuildingBlock: EYOCIG_clean_linker_4, # of connection points: 2
#     Edge 17, Type (0, 0), BuildingBlock: EYOCIG_clean_linker_4, # of connection points: 2
#     Edge 18, Type (0, 0), BuildingBlock: EYOCIG_clean_linker_4, # of connection points: 2
#     Edge 19, Type (0, 0), BuildingBlock: EYOCIG_clean_linker_4, # of connection points: 2
#     Edge 20, Type (0, 0), BuildingBlock: EYOCIG_clean_linker_4, # of connection points: 2
#     Edge 21, Type (0, 0), BuildingBlock: EYOCIG_clean_linker_4, # of connection points: 2
#     Edge 22, Type (0, 0), BuildingBlock: EYOCIG_clean_linker_4, # of connection points: 2
#     Edge 23, Type (0, 0), BuildingBlock: EYOCIG_clean_linker_4, # of connection points: 2
# Relax obj value: 0.191
# Max RMSD: 0.197
# Mean RMSD: 0.197
data_MOF--net-upa--node1-AZAVOO_clean_sbu_0--edge1-EYOCIG_clean_linker_4
_symmetry_space_group_name_H-M    P1
_symmetry_Int_Tables_number       1
_symmetry_cell_setting            triclinic
loop_
_symmetry_equiv_pos_as_xyz
'x, y, z'
_cell_length_a     22.333164
_cell_length_b     22.380083
_cell_length_c     33.625818
_cell_angle_alpha  90.100296
_cell_angle_beta   90.04115
_cell_angle_gamma 89.948132
loop_
_atom_site_label
_atom_site_type_symbol
_atom_site_fract_x
_atom_site_fract_y
_atom_site_fract_z
_atom_type_partial_charge
Mg0 Mg 0.07397 0.22879 0.34323 0.0
O1 O 0.05661 0.13419 0.32664 0.0
O2 O 0.12791 0.0714 0.34718 0.0
Mg3 Mg 0.1961 0.12943 0.37987 0.0
C4 C 0.07948 0.0826 0.32868 0.0
C5 C 0.95011 0.28625 0.30492 0.0
O6 O 0.95925 0.33453 0.32623 0.0
O7 O 0.14536 0.2309 0.29228 0.0
O8 O 0.21536 0.17233 0.32053 0.0
O9 O 0.03431 0.21174 0.40447 0.0
O10 O 0.12993 0.20029 0.39042 0.0
C11 C 0.19697 0.20528 0.29223 0.0
C12 C 0.08719 0.19506 0.41544 0.0
O13 O -0.01065 0.24493 0.30401 0.0
Mg14 Mg 0.23679 0.57271 0.84327 0.0
O15 O 0.33038 0.55373 0.82555 0.0
O16 O 0.39599 0.62304 0.84479 0.0
Mg17 Mg 0.34029 0.6914 0.87935 0.0
C18 C 0.38265 0.57511 0.82645 0.0
C19 C 0.17911 0.44954 0.80475 0.0
O20 O 0.13142 0.45796 0.82679 0.0
O21 O 0.23419 0.64503 0.79318 0.0
O22 O 0.29486 0.71349 0.82116 0.0
O23 O 0.25432 0.53181 0.90401 0.0
O24 O 0.26756 0.62719 0.89058 0.0
C25 C 0.26031 0.69625 0.7933 0.0
C26 C 0.27197 0.5841 0.91533 0.0
O27 O 0.21992 0.48916 0.80343 0.0
Mg28 Mg 0.8925 0.73534 0.34348 0.0
O29 O 0.91134 0.82861 0.32567 0.0
O30 O 0.8423 0.89417 0.34557 0.0
Mg31 Mg 0.77349 0.83859 0.37952 0.0
C32 C 0.89012 0.88087 0.32701 0.0
C33 C 0.01558 0.67775 0.3045 0.0
O34 O 0.00798 0.63031 0.32676 0.0
O35 O 0.81998 0.73233 0.29339 0.0
O36 O 0.75169 0.79345 0.32113 0.0
O37 O 0.93426 0.7538 0.40392 0.0
O38 O 0.83838 0.7665 0.39093 0.0
C39 C 0.76884 0.7588 0.29332 0.0
C40 C 0.88201 0.77169 0.41536 0.0
O41 O 0.97558 0.71825 0.30334 0.0
Mg42 Mg 0.7283 0.39284 0.84342 0.0
O43 O 0.63383 0.40911 0.82572 0.0
O44 O 0.57094 0.33795 0.84594 0.0
Mg45 Mg 0.62891 0.27138 0.88012 0.0
C46 C 0.5823 0.38594 0.8272 0.0
C47 C 0.78441 0.51611 0.80428 0.0
O48 O 0.83228 0.50877 0.82636 0.0
O49 O 0.73253 0.32027 0.79333 0.0
O50 O 0.67385 0.25053 0.82153 0.0
O51 O 0.70966 0.43402 0.90407 0.0
O52 O 0.69922 0.33815 0.89093 0.0
C53 C 0.70755 0.26849 0.79348 0.0
C54 C 0.69329 0.38144 0.91549 0.0
O55 O 0.74402 0.47603 0.80329 0.0
Mg56 Mg 0.57365 0.23621 0.15554 0.0
O57 O 0.55659 0.33079 0.17238 0.0
O58 O 0.62771 0.39337 0.15148 0.0
Mg59 Mg 0.69551 0.33507 0.11865 0.0
C60 C 0.57952 0.38231 0.17021 0.0
C61 C 0.45069 0.17874 0.19432 0.0
O62 O 0.45924 0.13087 0.17248 0.0
O63 O 0.64533 0.23373 0.20627 0.0
O64 O 0.71516 0.29235 0.17813 0.0
O65 O 0.53268 0.25375 0.09475 0.0
O66 O 0.62863 0.26494 0.10801 0.0
C67 C 0.69682 0.25941 0.20643 0.0
C68 C 0.58527 0.27058 0.08341 0.0
O69 O 0.49004 0.21985 0.1953 0.0
Mg70 Mg 0.2298 0.07279 0.65602 0.0
O71 O 0.13486 0.05573 0.67212 0.0
O72 O 0.07218 0.12682 0.65122 0.0
Mg73 Mg 0.13078 0.19417 0.61837 0.0
C74 C 0.08322 0.07865 0.66987 0.0
C75 C 0.28572 0.94933 0.69507 0.0
O76 O 0.33333 0.95655 0.67278 0.0
O77 O 0.23148 0.14469 0.70662 0.0
O78 O 0.17318 0.21443 0.67792 0.0
O79 O 0.2135 0.0322 0.59486 0.0
O80 O 0.20183 0.12783 0.60834 0.0
C81 C 0.20593 0.19623 0.70644 0.0
C82 C 0.19698 0.08481 0.58347 0.0
O83 O 0.24532 -0.01053 0.69616 0.0
Mg84 Mg 0.39165 0.72982 0.15576 0.0
O85 O 0.41103 0.63644 0.17298 0.0
O86 O 0.34199 0.57085 0.15324 0.0
Mg87 Mg 0.27246 0.62661 0.11991 0.0
C88 C 0.39003 0.58414 0.17156 0.0
C89 C 0.51561 0.78639 0.19461 0.0
O90 O 0.50835 0.83404 0.17248 0.0
O91 O 0.31995 0.732 0.20631 0.0
O92 O 0.25152 0.67101 0.17863 0.0
O93 O 0.43216 0.71206 0.09486 0.0
O94 O 0.33662 0.69922 0.1086 0.0
C95 C 0.26895 0.70536 0.20652 0.0
C96 C 0.3797 0.69432 0.08378 0.0
O97 O 0.47536 0.74621 0.1956 0.0
Mg98 Mg 0.73649 0.8918 0.6554 0.0
O99 O 0.83001 0.90997 0.67331 0.0
O100 O 0.8954 0.84045 0.65401 0.0
Mg101 Mg 0.83917 0.77187 0.62007 0.0
C102 C 0.88226 0.88853 0.67227 0.0
C103 C 0.68087 0.01581 0.69467 0.0
O104 O 0.63299 0.00917 0.6725 0.0
O105 O 0.73249 0.81981 0.70557 0.0
O106 O 0.79327 0.75085 0.67827 0.0
O107 O 0.75556 0.93277 0.59494 0.0
O108 O 0.7674 0.83708 0.60809 0.0
C109 C 0.75846 0.76851 0.70585 0.0
C110 C 0.77309 0.88041 0.58362 0.0
O111 O 0.72076 0.9752 0.69556 0.0
C112 C 0.0106 0.00028 0.29879 0.0
C113 C 0.04507 0.03509 0.31293 0.0
C114 C 0.96297 0.96033 0.29812 0.0
C115 C 0.92695 0.92676 0.31174 0.0
C116 C 0.46139 0.50271 0.79589 0.0
C117 C 0.42847 0.53883 0.81024 0.0
C118 C 0.50065 0.45446 0.79617 0.0
C119 C 0.53486 0.41985 0.81079 0.0
C120 C 0.51083 0.46487 0.20003 0.0
C121 C 0.54523 0.42996 0.18592 0.0
C122 C 0.46316 0.50482 0.20052 0.0
C123 C 0.42701 0.53832 0.18687 0.0
C124 C 0.00094 0.01012 0.69995 0.0
C125 C 0.03552 0.04462 0.6857 0.0
C126 C 0.96154 0.96205 0.70084 0.0
C127 C 0.92833 0.92545 0.6874 0.0
C128 C 0.11639 0.14012 0.48223 0.0
C129 C 0.09846 0.16546 0.45276 0.0
C130 C 0.14313 0.11323 0.51608 0.0
C131 C 0.168 0.09552 0.54581 0.0
C132 C 0.32566 0.61189 0.98287 0.0
C133 C 0.30081 0.59446 0.95306 0.0
C134 C 0.35195 0.63875 0.01689 0.0
C135 C 0.36924 0.66442 0.04643 0.0
C136 C 0.82893 0.85341 0.51667 0.0
C137 C 0.8032 0.87028 0.54629 0.0
C138 C 0.85542 0.82708 0.48253 0.0
C139 C 0.87227 0.80151 0.45284 0.0
C140 C 0.63873 0.35324 0.98259 0.0
C141 C 0.66383 0.37087 0.95297 0.0
C142 C 0.61255 0.32623 0.01655 0.0
C143 C 0.59554 0.30059 0.04611 0.0
C144 C 0.34266 0.19932 0.22466 0.0
C145 C 0.39202 0.19028 0.21092 0.0
C146 C 0.28504 0.20932 0.24136 0.0
C147 C 0.23934 0.21333 0.26051 0.0
C148 C 0.25386 0.78529 0.74339 0.0
C149 C 0.25084 0.73946 0.76232 0.0
C150 C 0.26374 0.84259 0.72646 0.0
C151 C 0.27347 0.89135 0.71223 0.0
C152 C 0.67989 0.75319 0.24302 0.0
C153 C 0.72568 0.74973 0.26215 0.0
C154 C 0.62259 0.76362 0.22596 0.0
C155 C 0.57376 0.77381 0.21172 0.0
C156 C 0.71431 0.17975 0.74316 0.0
C157 C 0.71713 0.22559 0.76222 0.0
C158 C 0.70431 0.12241 0.72615 0.0
C159 C 0.69404 0.07367 0.71191 0.0
C160 C 0.84188 0.26551 0.27481 0.0
C161 C 0.89123 0.27487 0.28851 0.0
C162 C 0.7844 0.25548 0.25786 0.0
C163 C 0.73899 0.25153 0.23835 0.0
C164 C 0.21003 0.28418 0.75754 0.0
C165 C 0.21386 0.23864 0.73821 0.0
C166 C 0.20012 0.34166 0.77439 0.0
C167 C 0.19082 0.39092 0.78815 0.0
C168 C 0.1804 0.7102 0.257 0.0
C169 C 0.22612 0.71403 0.23789 0.0
C170 C 0.12298 0.69977 0.27378 0.0
C171 C 0.07395 0.68994 0.28773 0.0
C172 C 0.76168 0.62294 0.77321 0.0
C173 C 0.77182 0.57417 0.78731 0.0
C174 C 0.75154 0.68015 0.7562 0.0
C175 C 0.74863 0.72578 0.73704 0.0
loop_
_geom_bond_atom_site_label_1
_geom_bond_atom_site_label_2
_geom_bond_distance
_geom_bond_site_symmetry_2
_ccdc_geom_bond_type
Mg0 O1 2.028 . S
Mg0 O7 1.986 . S
Mg0 O9 2.114 . S
Mg0 O10 2.251 . S
Mg0 O13 2.010 . S
O1 Mg0 2.028 . S
O1 C4 1.250 . S
O2 Mg3 2.028 . S
O2 C4 1.248 . S
Mg3 O2 2.028 . S
Mg3 O8 2.032 . S
Mg3 O10 2.079 . S
C4 O1 1.250 . S
C4 O2 1.248 . S
C5 O6 1.264 . S
C5 O13 1.249 1_655 S
O6 C5 1.264 . S
O7 Mg0 1.986 . S
O7 C11 1.246 . S
O8 Mg3 2.032 . S
O8 C11 1.259 . S
O9 Mg0 2.114 . S
O9 C12 1.252 . S
O10 Mg0 2.251 . S
O10 Mg3 2.079 . S
O10 C12 1.273 . S
C11 O7 1.246 . S
C11 O8 1.259 . S
C12 O9 1.252 . S
C12 O10 1.273 . S
O13 Mg0 2.010 . S
O13 C5 1.249 1_455 S
Mg14 O15 2.028 . S
Mg14 O21 1.986 . S
Mg14 O23 2.114 . S
Mg14 O24 2.251 . S
Mg14 O27 2.010 . S
O15 Mg14 2.028 . S
O15 C18 1.250 . S
O16 Mg17 2.028 . S
O16 C18 1.248 . S
Mg17 O16 2.028 . S
Mg17 O22 2.032 . S
Mg17 O24 2.079 . S
C18 O15 1.250 . S
C18 O16 1.248 . S
C19 O20 1.264 . S
C19 O27 1.249 . S
O20 C19 1.264 . S
O21 Mg14 1.986 . S
O21 C25 1.246 . S
O22 Mg17 2.032 . S
O22 C25 1.259 . S
O23 Mg14 2.114 . S
O23 C26 1.252 . S
O24 Mg14 2.251 . S
O24 Mg17 2.079 . S
O24 C26 1.273 . S
C25 O21 1.246 . S
C25 O22 1.259 . S
C26 O23 1.252 . S
C26 O24 1.273 . S
O27 Mg14 2.010 . S
O27 C19 1.249 . S
Mg28 O29 2.028 . S
Mg28 O35 1.986 . S
Mg28 O37 2.114 . S
Mg28 O38 2.251 . S
Mg28 O41 2.010 . S
O29 Mg28 2.028 . S
O29 C32 1.250 . S
O30 Mg31 2.028 . S
O30 C32 1.248 . S
Mg31 O30 2.028 . S
Mg31 O36 2.032 . S
Mg31 O38 2.079 . S
C32 O29 1.250 . S
C32 O30 1.248 . S
C33 O34 1.264 . S
C33 O41 1.249 1_455 S
O34 C33 1.264 . S
O35 Mg28 1.986 . S
O35 C39 1.246 . S
O36 Mg31 2.032 . S
O36 C39 1.259 . S
O37 Mg28 2.114 . S
O37 C40 1.252 . S
O38 Mg28 2.251 . S
O38 Mg31 2.079 . S
O38 C40 1.273 . S
C39 O35 1.246 . S
C39 O36 1.259 . S
C40 O37 1.252 . S
C40 O38 1.273 . S
O41 Mg28 2.010 . S
O41 C33 1.249 1_655 S
Mg42 O43 2.028 . S
Mg42 O49 1.986 . S
Mg42 O51 2.114 . S
Mg42 O52 2.251 . S
Mg42 O55 2.010 . S
O43 Mg42 2.028 . S
O43 C46 1.250 . S
O44 Mg45 2.028 . S
O44 C46 1.248 . S
Mg45 O44 2.028 . S
Mg45 O50 2.032 . S
Mg45 O52 2.079 . S
C46 O43 1.250 . S
C46 O44 1.248 . S
C47 O48 1.264 . S
C47 O55 1.249 . S
O48 C47 1.264 . S
O49 Mg42 1.986 . S
O49 C53 1.246 . S
O50 Mg45 2.032 . S
O50 C53 1.259 . S
O51 Mg42 2.114 . S
O51 C54 1.252 . S
O52 Mg42 2.251 . S
O52 Mg45 2.079 . S
O52 C54 1.273 . S
C53 O49 1.246 . S
C53 O50 1.259 . S
C54 O51 1.252 . S
C54 O52 1.273 . S
O55 Mg42 2.010 . S
O55 C47 1.249 . S
Mg56 O57 2.028 . S
Mg56 O63 1.986 . S
Mg56 O65 2.114 . S
Mg56 O66 2.251 . S
Mg56 O69 2.010 . S
O57 Mg56 2.028 . S
O57 C60 1.250 . S
O58 Mg59 2.028 . S
O58 C60 1.248 . S
Mg59 O58 2.028 . S
Mg59 O64 2.032 . S
Mg59 O66 2.079 . S
C60 O57 1.250 . S
C60 O58 1.248 . S
C61 O62 1.264 . S
C61 O69 1.249 . S
O62 C61 1.264 . S
O63 Mg56 1.986 . S
O63 C67 1.246 . S
O64 Mg59 2.032 . S
O64 C67 1.259 . S
O65 Mg56 2.114 . S
O65 C68 1.252 . S
O66 Mg56 2.251 . S
O66 Mg59 2.079 . S
O66 C68 1.273 . S
C67 O63 1.246 . S
C67 O64 1.259 . S
C68 O65 1.252 . S
C68 O66 1.273 . S
O69 Mg56 2.010 . S
O69 C61 1.249 . S
Mg70 O71 2.028 . S
Mg70 O77 1.986 . S
Mg70 O79 2.114 . S
Mg70 O80 2.251 . S
Mg70 O83 2.010 . S
O71 Mg70 2.028 . S
O71 C74 1.250 . S
O72 Mg73 2.028 . S
O72 C74 1.248 . S
Mg73 O72 2.028 . S
Mg73 O78 2.032 . S
Mg73 O80 2.079 . S
C74 O71 1.250 . S
C74 O72 1.248 . S
C75 O76 1.264 . S
C75 O83 1.249 1_565 S
O76 C75 1.264 . S
O77 Mg70 1.986 . S
O77 C81 1.246 . S
O78 Mg73 2.032 . S
O78 C81 1.259 . S
O79 Mg70 2.114 . S
O79 C82 1.252 . S
O80 Mg70 2.251 . S
O80 Mg73 2.079 . S
O80 C82 1.273 . S
C81 O77 1.246 . S
C81 O78 1.259 . S
C82 O79 1.252 . S
C82 O80 1.273 . S
O83 Mg70 2.010 . S
O83 C75 1.249 1_545 S
Mg84 O85 2.028 . S
Mg84 O91 1.986 . S
Mg84 O93 2.114 . S
Mg84 O94 2.251 . S
Mg84 O97 2.010 . S
O85 Mg84 2.028 . S
O85 C88 1.250 . S
O86 Mg87 2.028 . S
O86 C88 1.248 . S
Mg87 O86 2.028 . S
Mg87 O92 2.032 . S
Mg87 O94 2.079 . S
C88 O85 1.250 . S
C88 O86 1.248 . S
C89 O90 1.264 . S
C89 O97 1.249 . S
O90 C89 1.264 . S
O91 Mg84 1.986 . S
O91 C95 1.246 . S
O92 Mg87 2.032 . S
O92 C95 1.259 . S
O93 Mg84 2.114 . S
O93 C96 1.252 . S
O94 Mg84 2.251 . S
O94 Mg87 2.079 . S
O94 C96 1.273 . S
C95 O91 1.246 . S
C95 O92 1.259 . S
C96 O93 1.252 . S
C96 O94 1.273 . S
O97 Mg84 2.010 . S
O97 C89 1.249 . S
Mg98 O99 2.028 . S
Mg98 O105 1.986 . S
Mg98 O107 2.114 . S
Mg98 O108 2.251 . S
Mg98 O111 2.010 . S
O99 Mg98 2.028 . S
O99 C102 1.250 . S
O100 Mg101 2.028 . S
O100 C102 1.248 . S
Mg101 O100 2.028 . S
Mg101 O106 2.032 . S
Mg101 O108 2.079 . S
C102 O99 1.250 . S
C102 O100 1.248 . S
C103 O104 1.264 . S
C103 O111 1.249 1_545 S
O104 C103 1.264 . S
O105 Mg98 1.986 . S
O105 C109 1.246 . S
O106 Mg101 2.032 . S
O106 C109 1.259 . S
O107 Mg98 2.114 . S
O107 C110 1.252 . S
O108 Mg98 2.251 . S
O108 Mg101 2.079 . S
O108 C110 1.273 . S
C109 O105 1.246 . S
C109 O106 1.259 . S
C110 O107 1.252 . S
C110 O108 1.273 . S
O111 Mg98 2.010 . S
O111 C103 1.249 1_565 S
C112 C113 1.170 . S
C112 C114 1.380 1_445 S
C113 C112 1.170 . S
C114 C112 1.380 1_665 S
C114 C115 1.170 . S
C115 C114 1.170 . S
C116 C117 1.170 . S
C116 C118 1.380 . S
C117 C116 1.170 . S
C118 C116 1.380 . S
C118 C119 1.170 . S
C119 C118 1.170 . S
C120 C121 1.170 . S
C120 C122 1.380 . S
C121 C120 1.170 . S
C122 C120 1.380 . S
C122 C123 1.170 . S
C123 C122 1.170 . S
C124 C125 1.170 . S
C124 C126 1.380 1_445 S
C125 C124 1.170 . S
C126 C124 1.380 1_665 S
C126 C127 1.170 . S
C127 C126 1.170 . S
C128 C129 1.170 . S
C128 C130 1.380 . S
C129 C128 1.170 . S
C130 C128 1.380 . S
C130 C131 1.170 . S
C131 C130 1.170 . S
C132 C133 1.170 . S
C132 C134 1.380 1_556 S
C133 C132 1.170 . S
C134 C132 1.380 1_554 S
C134 C135 1.170 . S
C135 C134 1.170 . S
C136 C137 1.170 . S
C136 C138 1.380 . S
C137 C136 1.170 . S
C138 C136 1.380 . S
C138 C139 1.170 . S
C139 C138 1.170 . S
C140 C141 1.170 . S
C140 C142 1.380 1_556 S
C141 C140 1.170 . S
C142 C140 1.380 1_554 S
C142 C143 1.170 . S
C143 C142 1.170 . S
C144 C145 1.170 . S
C144 C146 1.380 . S
C145 C144 1.170 . S
C146 C144 1.380 . S
C146 C147 1.170 . S
C147 C146 1.170 . S
C148 C149 1.170 . S
C148 C150 1.380 . S
C149 C148 1.170 . S
C150 C148 1.380 . S
C150 C151 1.170 . S
C151 C150 1.170 . S
C152 C153 1.170 . S
C152 C154 1.380 . S
C153 C152 1.170 . S
C154 C152 1.380 . S
C154 C155 1.170 . S
C155 C154 1.170 . S
C156 C157 1.170 . S
C156 C158 1.380 . S
C157 C156 1.170 . S
C158 C156 1.380 . S
C158 C159 1.170 . S
C159 C158 1.170 . S
C160 C161 1.170 . S
C160 C162 1.380 . S
C161 C160 1.170 . S
C162 C160 1.380 . S
C162 C163 1.170 . S
C163 C162 1.170 . S
C164 C165 1.170 . S
C164 C166 1.380 . S
C165 C164 1.170 . S
C166 C164 1.380 . S
C166 C167 1.170 . S
C167 C166 1.170 . S
C168 C169 1.170 . S
C168 C170 1.380 . S
C169 C168 1.170 . S
C170 C168 1.380 . S
C170 C171 1.170 . S
C171 C170 1.170 . S
C172 C173 1.170 . S
C172 C174 1.380 . S
C173 C172 1.170 . S
C174 C172 1.380 . S
C174 C175 1.170 . S
C175 C174 1.170 . S
C113 C4 0.561 . S
C115 C32 0.569 . S
C117 C18 0.595 . S
C119 C46 0.585 . S
C121 C60 0.562 . S
C123 C88 0.570 . S
C125 C74 0.564 . S
C127 C102 0.573 . S
C129 C12 1.583 . S
C131 C82 1.606 . S
C133 C26 1.605 . S
C135 C96 1.577 . S
C137 C110 1.575 . S
C139 C40 1.580 . S
C141 C54 1.573 . S
C143 C68 1.583 . S
C145 C61 1.464 . S
C147 C11 1.473 . S
C149 C25 1.476 . S
C151 C75 1.491 . S
C153 C39 1.471 . S
C155 C89 1.482 . S
C157 C53 1.486 . S
C159 C103 1.499 . S
C161 C5 1.460 . S
C163 C67 1.488 . S
C165 C81 1.481 . S
C167 C19 1.460 . S
C169 C95 1.471 . S
C171 C33 1.467 . S
C173 C47 1.503 . S
C175 C109 1.497 . S
