# Generated by pormake.
# Topology acs, (6)-cn, num edge types: 1
# Building blocks:
#     Node 0, Type 0, BuildingBlock: OJICUG_clean_sbu_0, # of connection points: 6
#     Node 1, Type 0, BuildingBlock: OJICUG_clean_sbu_0, # of connection points: 6
#     Edge 2, Type (0, 0), BuildingBlock: XUDNAN_clean_linker_2, # of connection points: 2
#     Edge 3, Type (0, 0), BuildingBlock: XUDNAN_clean_linker_2, # of connection points: 2
#     Edge 4, Type (0, 0), BuildingBlock: XUDNAN_clean_linker_2, # of connection points: 2
#     Edge 5, Type (0, 0), BuildingBlock: XUDNAN_clean_linker_2, # of connection points: 2
#     Edge 6, Type (0, 0), BuildingBlock: XUDNAN_clean_linker_2, # of connection points: 2
#     Edge 7, Type (0, 0), BuildingBlock: XUDNAN_clean_linker_2, # of connection points: 2
# Relax obj value: 0.000
# Max RMSD: 0.000
# Mean RMSD: 0.000
data_MOF--net-acs--node1-OJICUG_clean_sbu_0--edge1-XUDNAN_clean_linker_2
_symmetry_space_group_name_H-M    P1
_symmetry_Int_Tables_number       1
_symmetry_cell_setting            triclinic
loop_
_symmetry_equiv_pos_as_xyz
'x, y, z'
_cell_length_a     21.23542
_cell_length_b     21.208554
_cell_length_c     21.835384
_cell_angle_alpha  89.846085
_cell_angle_beta   89.833266
_cell_angle_gamma 119.65093
loop_
_atom_site_label
_atom_site_type_symbol
_atom_site_fract_x
_atom_site_fract_y
_atom_site_fract_z
_atom_type_partial_charge
Sc0 Sc 0.7289 0.44947 0.24028 0.0
Sc1 Sc 0.55842 0.28986 0.24222 0.0
Sc2 Sc 0.71736 0.28313 0.2783 0.0
O3 O 0.6681 0.34075 0.25367 0.0
C4 C 0.82964 0.39311 0.18046 0.0
C5 C 0.61425 0.40618 0.1326 0.0
C6 C 0.59871 0.17755 0.18187 0.0
C7 C 0.58905 0.43512 0.30978 0.0
C8 C 0.80607 0.42742 0.35686 0.0
C9 C 0.57365 0.20636 0.35904 0.0
O10 O 0.81066 0.44076 0.18826 0.0
O11 O 0.56501 0.34992 0.15953 0.0
O12 O 0.6554 0.19877 0.21401 0.0
O13 O 0.65395 0.47085 0.29017 0.0
O14 O 0.7858 0.36138 0.34534 0.0
O15 O 0.53734 0.2237 0.32337 0.0
O16 O 0.78797 0.46546 0.32408 0.0
O17 O 0.54783 0.36803 0.29857 0.0
O18 O 0.64002 0.22619 0.3499 0.0
O19 O 0.6768 0.44539 0.15523 0.0
O20 O 0.79988 0.33277 0.20883 0.0
O21 O 0.55849 0.20637 0.18511 0.0
Sc22 Sc 0.28625 0.56248 0.74079 0.0
Sc23 Sc 0.44597 0.73298 0.74208 0.0
Sc24 Sc 0.27923 0.72112 0.77819 0.0
O25 O 0.33709 0.67206 0.75377 0.0
C26 C 0.17617 0.60481 0.67915 0.0
C27 C 0.40485 0.62039 0.63293 0.0
C28 C 0.39157 0.83574 0.68296 0.0
C29 C 0.4297 0.59124 0.80996 0.0
C30 C 0.20015 0.57543 0.85656 0.0
C31 C 0.42137 0.80749 0.85943 0.0
O32 O 0.20439 0.56406 0.68268 0.0
O33 O 0.4436 0.68263 0.6564 0.0
O34 O 0.33074 0.80541 0.71043 0.0
O35 O 0.36283 0.55044 0.79798 0.0
O36 O 0.2203 0.64207 0.84817 0.0
O37 O 0.46008 0.79009 0.82683 0.0
O38 O 0.21827 0.53971 0.82091 0.0
O39 O 0.46599 0.65653 0.79121 0.0
O40 O 0.35576 0.78773 0.84697 0.0
O41 O 0.34811 0.57071 0.65892 0.0
O42 O 0.19675 0.66098 0.71199 0.0
O43 O 0.43884 0.81632 0.69088 0.0
H44 H 0.37426 0.88964 0.92071 0.0
H45 H 0.54581 0.83436 0.91815 0.0
H46 H 0.60625 0.91916 0.00323 0.0
H47 H 0.48795 0.07729 0.94719 0.0
H48 H 0.42503 0.08656 0.99678 0.0
H49 H 0.39183 0.01744 0.9388 0.0
H50 H 0.32196 0.91896 0.02141 0.0
H51 H 0.35468 0.98787 0.07968 0.0
H52 H 0.37014 0.91189 0.08654 0.0
H53 H 0.65058 0.01256 0.08487 0.0
H54 H 0.67772 0.11045 0.15795 0.0
H55 H 0.47881 0.10811 0.10689 0.0
C56 C 0.42397 0.89451 0.93864 0.0
C57 C 0.45515 0.85506 0.9129 0.0
C58 C 0.52091 0.86399 0.93704 0.0
C59 C 0.55556 0.91187 0.98547 0.0
C60 C 0.52392 0.9506 0.00913 0.0
C61 C 0.45966 0.94257 0.98665 0.0
C62 C 0.43913 0.99338 0.01846 0.0
C63 C 0.43582 0.04683 0.97256 0.0
C64 C 0.36721 0.95045 0.05361 0.0
C65 C 0.5024 0.03177 0.06186 0.0
C66 C 0.55025 0.00572 0.05594 0.0
C67 C 0.61338 0.03322 0.09019 0.0
C68 C 0.62826 0.08901 0.13163 0.0
C69 C 0.58041 0.11728 0.13843 0.0
C70 C 0.51648 0.08783 0.10299 0.0
H71 H 0.36854 0.48707 0.58358 0.0
H72 H 0.49951 0.71889 0.55056 0.0
H73 H 0.5523 0.6951 0.45907 0.0
H74 H 0.50213 0.44372 0.54573 0.0
H75 H 0.44277 0.35887 0.50873 0.0
H76 H 0.40787 0.39279 0.56745 0.0
H77 H 0.31029 0.38631 0.49276 0.0
H78 H 0.34467 0.35188 0.43381 0.0
H79 H 0.33765 0.43196 0.41969 0.0
H80 H 0.6006 0.64836 0.37869 0.0
H81 H 0.6396 0.5808 0.31168 0.0
H82 H 0.47747 0.37825 0.39445 0.0
C83 C 0.40698 0.53273 0.55623 0.0
C84 C 0.4297 0.60489 0.57426 0.0
C85 C 0.48128 0.66317 0.53786 0.0
C86 C 0.51145 0.65024 0.48561 0.0
C87 C 0.48939 0.57871 0.47003 0.0
C88 C 0.43801 0.52079 0.50386 0.0
C89 C 0.42781 0.44945 0.47926 0.0
C90 C 0.44627 0.40885 0.52821 0.0
C91 C 0.3505 0.40211 0.45492 0.0
C92 C 0.48294 0.47665 0.4275 0.0
C93 C 0.51732 0.55139 0.42283 0.0
C94 C 0.57341 0.58975 0.38124 0.0
C95 C 0.59542 0.55084 0.34359 0.0
C96 C 0.56142 0.47419 0.34759 0.0
C97 C 0.50373 0.43668 0.38964 0.0
H98 H 0.91355 0.51938 0.1166 0.0
H99 H 0.87832 0.30107 0.14275 0.0
H100 H 0.97353 0.32564 0.06613 0.0
H101 H 0.94075 0.52788 0.95623 0.0
H102 H 0.00987 0.62217 0.9555 0.0
H103 H 0.94138 0.58831 0.01445 0.0
H104 H 0.04121 0.63577 0.0976 0.0
H105 H 0.11007 0.66972 0.03883 0.0
H106 H 0.10873 0.6078 0.09621 0.0
H107 H 0.06887 0.37243 0.98279 0.0
H108 H 0.15702 0.43803 0.89993 0.0
H109 H 0.13003 0.62568 0.93031 0.0
C110 C 0.92598 0.47672 0.10665 0.0
C111 C 0.88829 0.40826 0.13587 0.0
C112 C 0.90645 0.35406 0.1212 0.0
C113 C 0.96052 0.36748 0.07774 0.0
C114 C 0.99623 0.43544 0.04963 0.0
C115 C 0.97985 0.48921 0.06368 0.0
C116 C 0.02482 0.557 0.02596 0.0
C117 C 0.9763 0.57484 0.98565 0.0
C118 C 0.07414 0.62136 0.06712 0.0
C119 C 0.0684 0.53264 0.98783 0.0
C120 C 0.05138 0.46249 0.00222 0.0
C121 C 0.08302 0.4276 0.97144 0.0
C122 C 0.13295 0.4653 0.92437 0.0
C123 C 0.15076 0.53716 0.9086 0.0
C124 C 0.11831 0.57113 0.94144 0.0
H125 H 0.51781 0.91912 0.61882 0.0
H126 H 0.30132 0.88722 0.64724 0.0
H127 H 0.32664 0.98356 0.57157 0.0
H128 H 0.60872 0.11542 0.59889 0.0
H129 H 0.66929 0.11574 0.54072 0.0
H130 H 0.63536 0.04682 0.59952 0.0
H131 H 0.58562 0.94682 0.51641 0.0
H132 H 0.61942 0.01534 0.45743 0.0
H133 H 0.52492 0.94709 0.45899 0.0
H134 H 0.37329 0.07883 0.48844 0.0
H135 H 0.43803 0.1659 0.40467 0.0
H136 H 0.62409 0.13595 0.43232 0.0
C137 C 0.47577 0.93263 0.60963 0.0
C138 C 0.40755 0.89543 0.63917 0.0
C139 C 0.35412 0.91491 0.62544 0.0
C140 C 0.36798 0.96967 0.58253 0.0
C141 C 0.43562 0.00478 0.55402 0.0
C142 C 0.48872 0.98722 0.56718 0.0
C143 C 0.55608 0.03151 0.52882 0.0
C144 C 0.6212 0.08027 0.56942 0.0
C145 C 0.57242 0.98224 0.48799 0.0
C146 C 0.53212 0.07588 0.49126 0.0
C147 C 0.46263 0.05998 0.50661 0.0
C148 C 0.42798 0.09219 0.47636 0.0
C149 C 0.46517 0.14148 0.42875 0.0
C150 C 0.53629 0.15807 0.41191 0.0
C151 C 0.57014 0.1252 0.44432 0.0
H152 H 0.37219 0.48164 0.89646 0.0
H153 H 0.57421 0.63742 0.80912 0.0
H154 H 0.64095 0.59681 0.87543 0.0
H155 H 0.4414 0.50902 0.04561 0.0
H156 H 0.38878 0.41569 0.06985 0.0
H157 H 0.35507 0.45017 0.01063 0.0
H158 H 0.34271 0.34857 0.93768 0.0
H159 H 0.37646 0.31372 0.99679 0.0
H160 H 0.42038 0.33771 0.9229 0.0
H161 H 0.68735 0.548 0.95547 0.0
H162 H 0.71157 0.49627 0.04745 0.0
H163 H 0.48061 0.37207 0.08558 0.0
C164 C 0.43026 0.50602 0.89051 0.0
C165 C 0.46796 0.56247 0.84738 0.0
C166 C 0.54418 0.59422 0.84188 0.0
C167 C 0.58258 0.57123 0.87909 0.0
C168 C 0.54412 0.51645 0.92178 0.0
C169 C 0.46973 0.48417 0.92788 0.0
C170 C 0.44269 0.43065 0.98095 0.0
C171 C 0.40477 0.45274 0.02963 0.0
C172 C 0.39259 0.35305 0.9582 0.0
C173 C 0.51375 0.43935 0.00446 0.0
C174 C 0.57133 0.48847 0.96902 0.0
C175 C 0.64271 0.50885 0.98325 0.0
C176 C 0.6559 0.47929 0.03577 0.0
C177 C 0.59803 0.42994 0.07372 0.0
C178 C 0.5259 0.40875 0.05702 0.0
H179 H 0.10315 0.4827 0.60705 0.0
H180 H 0.11616 0.68894 0.64969 0.0
H181 H 0.02006 0.66331 0.57522 0.0
H182 H 0.07424 0.48673 0.44647 0.0
H183 H 0.01109 0.39091 0.44084 0.0
H184 H 0.07977 0.42403 0.49912 0.0
H185 H 0.98067 0.36131 0.58262 0.0
H186 H 0.91163 0.32813 0.52456 0.0
H187 H 0.90752 0.38124 0.58715 0.0
H188 H 0.92636 0.61876 0.49391 0.0
H189 H 0.83961 0.55675 0.41051 0.0
H190 H 0.88465 0.37823 0.42112 0.0
C191 C 0.08566 0.52236 0.60091 0.0
C192 C 0.11742 0.5878 0.63451 0.0
C193 C 0.09275 0.63822 0.6249 0.0
C194 C 0.03806 0.62425 0.58262 0.0
C195 C 0.00804 0.55946 0.55037 0.0
C196 C 0.03064 0.50916 0.55899 0.0
C197 C 0.98977 0.44424 0.51752 0.0
C198 C 0.04183 0.43604 0.47337 0.0
C199 C 0.94472 0.37462 0.55523 0.0
C200 C 0.94154 0.46659 0.48381 0.0
C201 C 0.95292 0.53317 0.50364 0.0
C202 C 0.91653 0.56633 0.47818 0.0
C203 C 0.86745 0.5307 0.43074 0.0
C204 C 0.85503 0.46248 0.40931 0.0
C205 C 0.89226 0.42992 0.43682 0.0
loop_
_geom_bond_atom_site_label_1
_geom_bond_atom_site_label_2
_geom_bond_distance
_geom_bond_site_symmetry_2
_ccdc_geom_bond_type
Sc0 O3 2.025 . S
Sc0 O10 2.105 . S
Sc0 O13 2.105 . S
Sc0 O16 2.105 . S
Sc0 O19 2.105 . S
Sc1 O3 2.025 . S
Sc1 O11 2.105 . S
Sc1 O15 2.105 . S
Sc1 O17 2.105 . S
Sc1 O21 2.105 . S
Sc2 O3 2.025 . S
Sc2 O12 2.105 . S
Sc2 O14 2.105 . S
Sc2 O18 2.105 . S
Sc2 O20 2.105 . S
O3 Sc0 2.025 . S
O3 Sc1 2.025 . S
O3 Sc2 2.025 . S
C4 O10 1.268 . S
C4 O20 1.268 . S
C5 O11 1.268 . S
C5 O19 1.268 . S
C6 O12 1.268 . S
C6 O21 1.268 . S
C7 O13 1.268 . S
C7 O17 1.268 . S
C8 O14 1.268 . S
C8 O16 1.268 . S
C9 O15 1.268 . S
C9 O18 1.268 . S
O10 Sc0 2.105 . S
O10 C4 1.268 . S
O11 Sc1 2.105 . S
O11 C5 1.268 . S
O12 Sc2 2.105 . S
O12 C6 1.268 . S
O13 Sc0 2.105 . S
O13 C7 1.268 . S
O14 Sc2 2.105 . S
O14 C8 1.268 . S
O15 Sc1 2.105 . S
O15 C9 1.268 . S
O16 Sc0 2.105 . S
O16 C8 1.268 . S
O17 Sc1 2.105 . S
O17 C7 1.268 . S
O18 Sc2 2.105 . S
O18 C9 1.268 . S
O19 Sc0 2.105 . S
O19 C5 1.268 . S
O20 Sc2 2.105 . S
O20 C4 1.268 . S
O21 Sc1 2.105 . S
O21 C6 1.268 . S
Sc22 O25 2.025 . S
Sc22 O32 2.105 . S
Sc22 O35 2.105 . S
Sc22 O38 2.105 . S
Sc22 O41 2.105 . S
Sc23 O25 2.025 . S
Sc23 O33 2.105 . S
Sc23 O37 2.105 . S
Sc23 O39 2.105 . S
Sc23 O43 2.105 . S
Sc24 O25 2.025 . S
Sc24 O34 2.105 . S
Sc24 O36 2.105 . S
Sc24 O40 2.105 . S
Sc24 O42 2.105 . S
O25 Sc22 2.025 . S
O25 Sc23 2.025 . S
O25 Sc24 2.025 . S
C26 O32 1.268 . S
C26 O42 1.268 . S
C27 O33 1.268 . S
C27 O41 1.268 . S
C28 O34 1.268 . S
C28 O43 1.268 . S
C29 O35 1.268 . S
C29 O39 1.268 . S
C30 O36 1.268 . S
C30 O38 1.268 . S
C31 O37 1.268 . S
C31 O40 1.268 . S
O32 Sc22 2.105 . S
O32 C26 1.268 . S
O33 Sc23 2.105 . S
O33 C27 1.268 . S
O34 Sc24 2.105 . S
O34 C28 1.268 . S
O35 Sc22 2.105 . S
O35 C29 1.268 . S
O36 Sc24 2.105 . S
O36 C30 1.268 . S
O37 Sc23 2.105 . S
O37 C31 1.268 . S
O38 Sc22 2.105 . S
O38 C30 1.268 . S
O39 Sc23 2.105 . S
O39 C29 1.268 . S
O40 Sc24 2.105 . S
O40 C31 1.268 . S
O41 Sc22 2.105 . S
O41 C27 1.268 . S
O42 Sc24 2.105 . S
O42 C26 1.268 . S
O43 Sc23 2.105 . S
O43 C28 1.268 . S
H44 C56 0.930 . S
H45 C58 0.930 . S
H46 C59 0.930 . S
H47 C63 0.959 1_546 S
H48 C63 0.959 1_545 S
H49 C63 0.957 1_556 S
H50 C64 0.960 . S
H51 C64 0.961 . S
H52 C64 0.959 . S
H53 C67 0.929 . S
H54 C68 0.931 . S
H55 C70 0.930 . S
C56 H44 0.930 . S
C56 C57 1.399 . S
C56 C61 1.399 . S
C57 C56 1.399 . S
C57 C58 1.376 . S
C58 H45 0.930 . S
C58 C57 1.376 . S
C58 C59 1.388 . S
C59 H46 0.930 . S
C59 C58 1.388 . S
C59 C60 1.390 . S
C60 C59 1.390 . S
C60 C61 1.394 . S
C60 C66 1.465 1_566 S
C61 C56 1.399 . S
C61 C60 1.394 . S
C61 C62 1.516 1_556 S
C62 C61 1.516 1_554 S
C62 C63 1.502 . S
C62 C64 1.561 . S
C62 C65 1.526 1_565 S
C63 H47 0.959 1_564 S
C63 H48 0.959 1_565 S
C63 H49 0.957 1_554 S
C63 C62 1.502 . S
C64 H50 0.960 . S
C64 H51 0.961 . S
C64 H52 0.959 . S
C64 C62 1.561 . S
C65 C62 1.526 1_545 S
C65 C66 1.396 . S
C65 C70 1.390 . S
C66 C60 1.465 1_544 S
C66 C65 1.396 . S
C66 C67 1.399 . S
C67 H53 0.929 . S
C67 C66 1.399 . S
C67 C68 1.385 . S
C68 H54 0.931 . S
C68 C67 1.385 . S
C68 C69 1.389 . S
C69 C68 1.389 . S
C69 C70 1.387 . S
C70 H55 0.930 . S
C70 C65 1.390 . S
C70 C69 1.387 . S
H71 C83 0.930 . S
H72 C85 0.930 . S
H73 C86 0.930 . S
H74 C90 0.959 . S
H75 C90 0.959 . S
H76 C90 0.961 . S
H77 C91 0.960 . S
H78 C91 0.961 . S
H79 C91 0.959 . S
H80 C94 0.929 . S
H81 C95 0.931 . S
H82 C97 0.930 . S
C83 H71 0.930 . S
C83 C84 1.399 . S
C83 C88 1.399 . S
C84 C83 1.399 . S
C84 C85 1.376 . S
C85 H72 0.930 . S
C85 C84 1.376 . S
C85 C86 1.388 . S
C86 H73 0.930 . S
C86 C85 1.388 . S
C86 C87 1.390 . S
C87 C86 1.390 . S
C87 C88 1.394 . S
C87 C93 1.465 . S
C88 C83 1.399 . S
C88 C87 1.394 . S
C88 C89 1.516 . S
C89 C88 1.516 . S
C89 C90 1.502 . S
C89 C91 1.561 . S
C89 C92 1.526 . S
C90 H74 0.959 . S
C90 H75 0.959 . S
C90 H76 0.961 . S
C90 C89 1.502 . S
C91 H77 0.960 . S
C91 H78 0.961 . S
C91 H79 0.959 . S
C91 C89 1.561 . S
C92 C89 1.526 . S
C92 C93 1.396 . S
C92 C97 1.390 . S
C93 C87 1.465 . S
C93 C92 1.396 . S
C93 C94 1.399 . S
C94 H80 0.929 . S
C94 C93 1.399 . S
C94 C95 1.385 . S
C95 H81 0.931 . S
C95 C94 1.385 . S
C95 C96 1.389 . S
C96 C95 1.389 . S
C96 C97 1.387 . S
C97 H82 0.930 . S
C97 C92 1.390 . S
C97 C96 1.387 . S
H98 C110 0.930 . S
H99 C112 0.930 . S
H100 C113 0.930 1_556 S
H101 C117 0.959 . S
H102 C117 0.959 . S
H103 C117 0.961 . S
H104 C118 0.960 . S
H105 C118 0.961 . S
H106 C118 0.959 . S
H107 C121 0.929 1_655 S
H108 C122 0.931 . S
H109 C124 0.930 . S
C110 H98 0.930 . S
C110 C111 1.399 . S
C110 C115 1.399 . S
C111 C110 1.399 . S
C111 C112 1.376 . S
C112 H99 0.930 . S
C112 C111 1.376 . S
C112 C113 1.388 . S
C113 H100 0.930 1_554 S
C113 C112 1.388 . S
C113 C114 1.390 . S
C114 C113 1.390 . S
C114 C115 1.394 . S
C114 C120 1.465 1_654 S
C115 C110 1.399 . S
C115 C114 1.394 . S
C115 C116 1.516 1_655 S
C116 C115 1.516 1_455 S
C116 C117 1.502 . S
C116 C118 1.561 . S
C116 C119 1.526 1_554 S
C117 H101 0.959 . S
C117 H102 0.959 . S
C117 H103 0.961 . S
C117 C116 1.502 . S
C118 H104 0.960 . S
C118 H105 0.961 . S
C118 H106 0.959 . S
C118 C116 1.561 . S
C119 C116 1.526 1_556 S
C119 C120 1.396 . S
C119 C124 1.390 . S
C120 C114 1.465 1_456 S
C120 C119 1.396 . S
C120 C121 1.399 . S
C121 H107 0.929 1_455 S
C121 C120 1.399 . S
C121 C122 1.385 . S
C122 H108 0.931 . S
C122 C121 1.385 . S
C122 C123 1.389 . S
C123 C122 1.389 . S
C123 C124 1.387 . S
C124 H109 0.930 . S
C124 C119 1.390 . S
C124 C123 1.387 . S
H125 C137 0.930 . S
H126 C139 0.930 . S
H127 C140 0.930 . S
H128 C144 0.959 . S
H129 C144 0.959 . S
H130 C144 0.961 . S
H131 C145 0.960 . S
H132 C145 0.961 . S
H133 C145 0.959 . S
H134 C148 0.929 1_565 S
H135 C149 0.931 . S
H136 C151 0.930 . S
C137 H125 0.930 . S
C137 C138 1.399 . S
C137 C142 1.399 . S
C138 C137 1.399 . S
C138 C139 1.376 . S
C139 H126 0.930 . S
C139 C138 1.376 . S
C139 C140 1.388 . S
C140 H127 0.930 . S
C140 C139 1.388 . S
C140 C141 1.390 . S
C141 C140 1.390 . S
C141 C142 1.394 . S
C141 C147 1.465 1_565 S
C142 C137 1.399 . S
C142 C141 1.394 . S
C142 C143 1.516 1_565 S
C143 C142 1.516 1_545 S
C143 C144 1.502 . S
C143 C145 1.561 . S
C143 C146 1.526 . S
C144 H128 0.959 . S
C144 H129 0.959 . S
C144 H130 0.961 . S
C144 C143 1.502 . S
C145 H131 0.960 . S
C145 H132 0.961 . S
C145 H133 0.959 . S
C145 C143 1.561 . S
C146 C143 1.526 . S
C146 C147 1.396 . S
C146 C151 1.390 . S
C147 C141 1.465 1_545 S
C147 C146 1.396 . S
C147 C148 1.399 . S
C148 H134 0.929 1_545 S
C148 C147 1.399 . S
C148 C149 1.385 . S
C149 H135 0.931 . S
C149 C148 1.385 . S
C149 C150 1.389 . S
C150 C149 1.389 . S
C150 C151 1.387 . S
C151 H136 0.930 . S
C151 C146 1.390 . S
C151 C150 1.387 . S
H152 C164 0.930 . S
H153 C166 0.930 . S
H154 C167 0.930 . S
H155 C171 0.959 . S
H156 C171 0.959 . S
H157 C171 0.961 . S
H158 C172 0.960 . S
H159 C172 0.961 . S
H160 C172 0.959 . S
H161 C175 0.929 . S
H162 C176 0.931 . S
H163 C178 0.930 . S
C164 H152 0.930 . S
C164 C165 1.399 . S
C164 C169 1.399 . S
C165 C164 1.399 . S
C165 C166 1.376 . S
C166 H153 0.930 . S
C166 C165 1.376 . S
C166 C167 1.388 . S
C167 H154 0.930 . S
C167 C166 1.388 . S
C167 C168 1.390 . S
C168 C167 1.390 . S
C168 C169 1.394 . S
C168 C174 1.477 . S
C169 C164 1.399 . S
C169 C168 1.394 . S
C169 C170 1.516 1_556 S
C170 C169 1.516 1_554 S
C170 C171 1.502 . S
C170 C172 1.561 . S
C170 C173 1.526 . S
C171 H155 0.959 . S
C171 H156 0.959 . S
C171 H157 0.961 . S
C171 C170 1.502 . S
C172 H158 0.960 . S
C172 H159 0.961 . S
C172 H160 0.959 . S
C172 C170 1.561 . S
C173 C170 1.526 . S
C173 C174 1.382 1_554 S
C173 C178 1.390 . S
C174 C168 1.477 . S
C174 C173 1.382 1_556 S
C174 C175 1.400 . S
C175 H161 0.929 . S
C175 C174 1.400 . S
C175 C176 1.385 1_556 S
C176 H162 0.931 . S
C176 C175 1.385 1_554 S
C176 C177 1.389 . S
C177 C176 1.389 . S
C177 C178 1.387 . S
C178 H163 0.930 . S
C178 C173 1.390 . S
C178 C177 1.387 . S
H179 C191 0.930 . S
H180 C193 0.930 . S
H181 C194 0.930 . S
H182 C198 0.959 . S
H183 C198 0.959 . S
H184 C198 0.961 . S
H185 C199 0.960 . S
H186 C199 0.961 . S
H187 C199 0.959 . S
H188 C202 0.929 1_455 S
H189 C203 0.931 . S
H190 C205 0.930 . S
C191 H179 0.930 . S
C191 C192 1.399 . S
C191 C196 1.399 . S
C192 C191 1.399 . S
C192 C193 1.376 . S
C193 H180 0.930 . S
C193 C192 1.376 . S
C193 C194 1.388 . S
C194 H181 0.930 . S
C194 C193 1.388 . S
C194 C195 1.390 . S
C195 C194 1.390 . S
C195 C196 1.394 . S
C195 C201 1.465 1_455 S
C196 C191 1.399 . S
C196 C195 1.394 . S
C196 C197 1.516 1_455 S
C197 C196 1.516 1_655 S
C197 C198 1.502 . S
C197 C199 1.561 . S
C197 C200 1.526 . S
C198 H182 0.959 . S
C198 H183 0.959 . S
C198 H184 0.961 . S
C198 C197 1.502 . S
C199 H185 0.960 . S
C199 H186 0.961 . S
C199 H187 0.959 . S
C199 C197 1.561 . S
C200 C197 1.526 . S
C200 C201 1.396 . S
C200 C205 1.390 . S
C201 C195 1.465 1_655 S
C201 C200 1.396 . S
C201 C202 1.399 . S
C202 H188 0.929 1_655 S
C202 C201 1.399 . S
C202 C203 1.385 . S
C203 H189 0.931 . S
C203 C202 1.385 . S
C203 C204 1.389 . S
C204 C203 1.389 . S
C204 C205 1.387 . S
C205 H190 0.930 . S
C205 C200 1.390 . S
C205 C204 1.387 . S
C57 C31 1.472 . S
C69 C6 1.481 . S
C84 C27 1.460 . S
C96 C7 1.491 . S
C111 C4 1.483 . S
C123 C30 1.458 . S
C138 C28 1.496 . S
C150 C9 1.450 . S
C165 C29 1.449 . S
C177 C5 1.495 . S
C192 C26 1.491 . S
C204 C8 1.451 . S
