# Generated by pormake.
# Topology pcu, (6)-cn, num edge types: 1
# Building blocks:
#     Node 0, Type 0, BuildingBlock: BETFAJ_clean_sbu_0, # of connection points: 6
#     Edge 1, Type (0, 0), BuildingBlock: AJUNOK_clean_linker_0, # of connection points: 2
#     Edge 2, Type (0, 0), BuildingBlock: AJUNOK_clean_linker_0, # of connection points: 2
#     Edge 3, Type (0, 0), BuildingBlock: AJUNOK_clean_linker_0, # of connection points: 2
# Relax obj value: 0.000
# Max RMSD: 0.000
# Mean RMSD: 0.000
data_MOF--net-pcu--node1-BETFAJ_clean_sbu_0--edge1-AJUNOK_clean_linker_0
_symmetry_space_group_name_H-M    P1
_symmetry_Int_Tables_number       1
_symmetry_cell_setting            triclinic
loop_
_symmetry_equiv_pos_as_xyz
'x, y, z'
_cell_length_a     21.293298
_cell_length_b     11.560395
_cell_length_c     10.380124
_cell_angle_alpha  87.215181
_cell_angle_beta   98.758794
_cell_angle_gamma 121.01973
loop_
_atom_site_label
_atom_site_type_symbol
_atom_site_fract_x
_atom_site_fract_y
_atom_site_fract_z
_atom_type_partial_charge
Sm0 Sm 0.95343 0.89196 0.03234 0.0
Sm1 Sm 0.1201 0.05647 1.02454 0.0
C2 C 0.81701 0.79092 0.08503 0.0
C3 C 0.75963 0.82819 0.07402 0.0
C4 C 0.77317 0.94655 0.13497 0.0
C5 C 0.71744 -0.0218 0.12451 0.0
C6 C 0.64716 0.8925 0.05279 0.0
C7 C 0.6342 0.77526 0.99044 0.0
C8 C 0.68969 0.7431 1.00172 0.0
C9 C 0.99191 0.92675 0.78654 0.0
C10 C 0.03901 0.22517 1.02038 0.0
C11 C 0.25765 0.15793 0.97736 0.0
C12 C 0.31318 0.11633 0.98563 0.0
C13 C 0.29826 0.00057 0.91752 0.0
C14 C 0.35129 0.96226 0.92809 0.0
C15 C 0.42031 0.03894 1.00685 0.0
C16 C 0.43558 0.15582 0.07326 0.0
C17 C 0.3825 0.194 0.0628 0.0
C18 C 0.07975 0.01584 0.26999 0.0
C19 C 1.03347 0.72291 1.02519 0.0
O20 O 0.87645 0.85853 0.17115 0.0
O21 O 0.83138 0.76445 0.97574 0.0
O22 O 1.02179 0.01659 0.87663 0.0
O23 O 0.93681 0.81644 0.82206 0.0
O24 O 0.98286 0.11344 0.05786 0.0
O25 O 0.09564 0.22563 0.98327 0.0
O26 O 0.19927 0.09748 0.88776 0.0
O27 O 0.24193 0.1782 0.08798 0.0
O28 O 0.05164 0.92873 0.17799 0.0
O29 O 0.13353 0.12923 0.23606 0.0
O30 O 0.08964 0.83631 0.99058 0.0
O31 O 0.97753 0.72099 0.06729 0.0
H32 H 0.82664 0.0146 0.19102 0.0
H33 H 0.7291 0.06917 0.17377 0.0
H34 H 0.58137 0.70896 0.93167 0.0
H35 H 0.67802 0.65161 0.95341 0.0
H36 H 0.24578 0.93982 0.8557 0.0
H37 H 0.33863 0.87349 0.8734 0.0
H38 H 0.48833 0.21688 0.13456 0.0
H39 H 0.39553 0.2842 0.1155 0.0
C40 C 0.08953 0.09648 0.49554 0.0
C41 C 0.05692 -0.00971 0.40116 0.0
C42 C 0.06844 0.07514 0.62024 0.0
C43 C 1.01383 0.94686 0.65493 0.0
H44 H 0.13151 0.19713 0.4729 0.0
H45 H 0.09487 0.16 0.68962 0.0
S46 S 0.9132 0.63403 0.44479 0.0
N47 N 0.96859 0.75134 0.35224 0.0
N48 N 0.92876 0.7114 0.58575 0.0
C49 C 0.98122 0.8396 0.56182 0.0
C50 C 1.00279 0.86126 0.43512 0.0
C51 C 0.5503 0.0944 1.00215 0.0
C52 C 0.47686 -0.00143 1.01865 0.0
C53 C 0.60479 0.05918 1.01321 0.0
C54 C 0.58808 0.9268 0.04163 0.0
H55 H 0.56563 0.19722 0.97894 0.0
H56 H 0.66031 0.13602 0.99782 0.0
S57 S 0.4052 0.6406 0.10314 0.0
N58 N 0.39091 0.76714 0.07042 0.0
N59 N 0.49334 0.70107 0.09242 0.0
C60 C 0.51496 0.83031 0.05985 0.0
C61 C 0.45941 0.86613 0.04809 0.0
C62 C 0.98835 0.48419 0.08946 0.0
C63 C 1.03458 0.59617 1.01978 0.0
C64 C 0.98972 0.36432 0.08827 0.0
C65 C 1.0375 0.35191 1.01764 0.0
H66 H 0.95143 0.48944 0.14697 0.0
H67 H 0.95372 0.28152 0.14477 0.0
S68 S 0.16502 0.61149 0.8096 0.0
N69 N 0.12609 0.68371 0.87134 0.0
N70 N 0.12924 0.45953 0.87017 0.0
C71 C 0.08299 0.46221 0.94545 0.0
C72 C 0.08138 0.58397 0.94625 0.0
loop_
_geom_bond_atom_site_label_1
_geom_bond_atom_site_label_2
_geom_bond_distance
_geom_bond_site_symmetry_2
_ccdc_geom_bond_type
Sm0 C2 2.846 . S
Sm0 O20 2.543 1_556 S
Sm0 O21 2.450 . S
Sm0 O22 2.681 1_665 S
Sm0 O23 2.464 . S
Sm0 O24 2.396 1_565 S
Sm0 O28 2.386 1_566 S
Sm0 O31 2.408 . S
Sm1 C11 2.846 . S
Sm1 O22 2.386 1_554 S
Sm1 O25 2.408 . S
Sm1 O26 2.543 1_554 S
Sm1 O27 2.450 . S
Sm1 O28 2.681 1_455 S
Sm1 O29 2.464 . S
Sm1 O30 2.396 1_545 S
C2 Sm0 2.846 . S
C2 C3 1.506 . S
C2 O20 1.261 1_556 S
C2 O21 1.242 . S
C3 C2 1.506 . S
C3 C4 1.358 1_566 S
C3 C8 1.382 . S
C4 C3 1.358 1_544 S
C4 C5 1.385 . S
C4 H32 0.930 . S
C5 C4 1.385 . S
C5 C6 1.395 1_544 S
C5 H33 0.929 . S
C6 C5 1.395 1_566 S
C6 C7 1.335 . S
C7 C6 1.335 . S
C7 C8 1.398 . S
C7 H34 0.930 . S
C8 C3 1.382 . S
C8 C7 1.398 . S
C8 H35 0.929 . S
C9 O22 1.271 1_665 S
C9 O23 1.251 . S
C10 O24 1.252 1_455 S
C10 O25 1.272 1_556 S
C11 Sm1 2.846 . S
C11 C12 1.506 . S
C11 O26 1.261 1_554 S
C11 O27 1.242 . S
C12 C11 1.506 . S
C12 C13 1.358 1_544 S
C12 C17 1.382 . S
C13 C12 1.358 1_566 S
C13 C14 1.385 . S
C13 H36 0.930 . S
C14 C13 1.385 . S
C14 C15 1.395 1_566 S
C14 H37 0.929 . S
C15 C14 1.395 1_544 S
C15 C16 1.335 . S
C16 C15 1.335 . S
C16 C17 1.398 . S
C16 H38 0.930 . S
C17 C12 1.382 . S
C17 C16 1.398 . S
C17 H39 0.929 . S
C18 O28 1.271 1_455 S
C18 O29 1.251 . S
C19 O30 1.252 1_655 S
C19 O31 1.272 1_554 S
O20 Sm0 2.543 1_554 S
O20 C2 1.261 1_554 S
O21 Sm0 2.450 . S
O21 C2 1.242 . S
O22 Sm0 2.681 1_445 S
O22 Sm1 2.386 1_556 S
O22 C9 1.271 1_445 S
O23 Sm0 2.464 . S
O23 C9 1.251 . S
O24 Sm0 2.396 1_545 S
O24 C10 1.252 1_655 S
O25 Sm1 2.408 . S
O25 C10 1.272 1_554 S
O26 Sm1 2.543 1_556 S
O26 C11 1.261 1_556 S
O27 Sm1 2.450 . S
O27 C11 1.242 . S
O28 Sm0 2.386 1_544 S
O28 Sm1 2.681 1_655 S
O28 C18 1.271 1_655 S
O29 Sm1 2.464 . S
O29 C18 1.251 . S
O30 Sm1 2.396 1_565 S
O30 C19 1.252 1_455 S
O31 Sm0 2.408 . S
O31 C19 1.272 1_556 S
H32 C4 0.930 . S
H33 C5 0.929 . S
H34 C7 0.930 . S
H35 C8 0.929 . S
H36 C13 0.930 . S
H37 C14 0.929 . S
H38 C16 0.930 . S
H39 C17 0.929 . S
C40 C41 1.360 1_455 S
C40 C42 1.419 . S
C40 H44 0.930 . S
C41 C40 1.360 1_655 S
C41 C50 1.439 1_545 S
C42 C40 1.419 . S
C42 C43 1.356 1_455 S
C42 H45 0.929 . S
C43 C42 1.356 1_655 S
C43 C49 1.435 1_545 S
H44 C40 0.930 . S
H45 C42 0.929 . S
S46 N47 1.613 . S
S46 N48 1.610 . S
N47 S46 1.613 . S
N47 C50 1.350 . S
N48 S46 1.610 . S
N48 C49 1.351 . S
C49 C43 1.435 1_565 S
C49 N48 1.351 . S
C49 C50 1.434 . S
C50 C41 1.439 1_565 S
C50 N47 1.350 . S
C50 C49 1.434 . S
C51 C52 1.369 1_546 S
C51 C53 1.419 . S
C51 H55 0.930 . S
C52 C51 1.369 1_564 S
C52 C61 1.429 . S
C53 C51 1.419 . S
C53 C54 1.362 1_546 S
C53 H56 0.929 . S
C54 C53 1.362 1_564 S
C54 C60 1.430 . S
H55 C51 0.930 . S
H56 C53 0.929 . S
S57 N58 1.613 . S
S57 N59 1.610 . S
N58 S57 1.613 . S
N58 C61 1.350 . S
N59 S57 1.610 . S
N59 C60 1.351 . S
C60 C54 1.430 . S
C60 N59 1.351 . S
C60 C61 1.434 . S
C61 C52 1.429 . S
C61 N58 1.350 . S
C61 C60 1.434 . S
C62 C63 1.369 1_654 S
C62 C64 1.419 . S
C62 H66 0.930 . S
C63 C62 1.369 1_456 S
C63 C72 1.431 . S
C64 C62 1.419 . S
C64 C65 1.360 1_654 S
C64 H67 0.929 . S
C65 C64 1.360 1_456 S
C65 C71 1.429 . S
H66 C62 0.930 . S
H67 C64 0.929 . S
S68 N69 1.613 . S
S68 N70 1.610 . S
N69 S68 1.613 . S
N69 C72 1.350 . S
N70 S68 1.610 . S
N70 C71 1.351 . S
C71 C65 1.429 . S
C71 N70 1.351 . S
C71 C72 1.434 . S
C72 C63 1.431 . S
C72 N69 1.350 . S
C72 C71 1.434 . S
C41 C18 1.453 1_655 S
C43 C9 1.453 1_545 S
C52 C15 1.499 1_565 S
C54 C6 1.498 1_554 S
C63 C19 1.490 1_456 S
C65 C10 1.491 . S
