# Generated by pormake.
# Topology dmp, (4)-cn, num edge types: 1
# Building blocks:
#     Node 0, Type 0, BuildingBlock: AZAVOO_clean_sbu_0, # of connection points: 4
#     Node 1, Type 0, BuildingBlock: AZAVOO_clean_sbu_0, # of connection points: 4
#     Node 2, Type 0, BuildingBlock: AZAVOO_clean_sbu_0, # of connection points: 4
#     Node 3, Type 0, BuildingBlock: AZAVOO_clean_sbu_0, # of connection points: 4
#     Edge 4, Type (0, 0), BuildingBlock: AJUNOK_clean_linker_0, # of connection points: 2
#     Edge 5, Type (0, 0), BuildingBlock: AJUNOK_clean_linker_0, # of connection points: 2
#     Edge 6, Type (0, 0), BuildingBlock: AJUNOK_clean_linker_0, # of connection points: 2
#     Edge 7, Type (0, 0), BuildingBlock: AJUNOK_clean_linker_0, # of connection points: 2
#     Edge 8, Type (0, 0), BuildingBlock: AJUNOK_clean_linker_0, # of connection points: 2
#     Edge 9, Type (0, 0), BuildingBlock: AJUNOK_clean_linker_0, # of connection points: 2
#     Edge 10, Type (0, 0), BuildingBlock: AJUNOK_clean_linker_0, # of connection points: 2
#     Edge 11, Type (0, 0), BuildingBlock: AJUNOK_clean_linker_0, # of connection points: 2
# Relax obj value: 0.232
# Max RMSD: 0.261
# Mean RMSD: 0.261
data_MOF--net-dmp--node1-AZAVOO_clean_sbu_0--edge1-AJUNOK_clean_linker_0
_symmetry_space_group_name_H-M    P1
_symmetry_Int_Tables_number       1
_symmetry_cell_setting            triclinic
loop_
_symmetry_equiv_pos_as_xyz
'x, y, z'
_cell_length_a     27.526214
_cell_length_b     11.229591
_cell_length_c     16.241488
_cell_angle_alpha  90.009384
_cell_angle_beta   89.607578
_cell_angle_gamma 101.39805
loop_
_atom_site_label
_atom_site_type_symbol
_atom_site_fract_x
_atom_site_fract_y
_atom_site_fract_z
_atom_type_partial_charge
Mg0 Mg 0.07099 0.11033 0.35318 0.0
O1 O 0.1347 0.24806 0.29623 0.0
O2 O 0.18779 0.15207 0.23216 0.0
Mg3 Mg 0.15295 0.9491 0.23856 0.0
C4 C 0.17484 0.24955 0.25617 0.0
C5 C 0.02354 0.28687 0.45743 0.0
O6 O 0.02996 0.20623 0.51282 0.0
O7 O 0.0348 0.0783 0.22717 0.0
O8 O 0.08645 0.97977 0.16144 0.0
O9 O 0.11893 0.10516 0.46141 0.0
O10 O 0.11564 0.98039 0.35485 0.0
C11 C 0.04749 0.02571 0.16299 0.0
C12 C 0.13717 0.02415 0.42158 0.0
O13 O 0.03368 0.26903 0.38253 0.0
Mg14 Mg 0.40596 0.88348 0.33822 0.0
O15 O 0.34529 0.73398 0.28612 0.0
O16 O 0.288 0.81789 0.2246 0.0
Mg17 Mg 0.31653 0.02401 0.22725 0.0
C18 C 0.30432 0.72473 0.24813 0.0
C19 C 0.4579 0.72347 0.44496 0.0
O20 O 0.44509 0.80043 0.49783 0.0
O21 O 0.44075 0.9193 0.20991 0.0
O22 O 0.38444 1.00624 0.14806 0.0
O23 O 0.358 0.88348 0.44882 0.0
O24 O 0.35701 1.00388 0.34105 0.0
C25 C 0.42545 0.96923 0.14692 0.0
C26 C 0.33776 0.96144 0.41008 0.0
O27 O 0.44954 0.73691 0.36894 0.0
Mg28 Mg 0.91059 0.89314 0.67212 0.0
O29 O 0.84626 0.7521 0.72491 0.0
O30 O 0.79093 0.84749 0.78324 0.0
Mg31 Mg 0.82439 0.0511 0.77901 0.0
C32 C 0.80487 0.75028 0.76127 0.0
C33 C 0.96485 0.73081 0.5699 0.0
O34 O 0.95937 0.81629 0.51758 0.0
O35 O 0.9439 0.92663 0.80074 0.0
O36 O 0.88946 0.02347 0.86018 0.0
O37 O 0.8648 0.89687 0.56058 0.0
O38 O 0.86522 0.02144 0.66652 0.0
C39 C 0.92896 0.98002 0.86283 0.0
C40 C 0.84577 0.97851 0.59817 0.0
O41 O 0.95063 0.73874 0.64401 0.0
Mg42 Mg 0.57551 0.11937 0.6606 0.0
O43 O 0.63526 0.26659 0.71704 0.0
O44 O 0.6902 0.18204 0.78438 0.0
Mg45 Mg 0.6608 0.97611 0.77936 0.0
C46 C 0.67488 0.27554 0.75878 0.0
C47 C 0.52828 0.29277 0.55358 0.0
O48 O 0.54302 0.2234 0.49732 0.0
O49 O 0.53767 0.08348 0.78606 0.0
O50 O 0.59123 0.99526 0.85435 0.0
O51 O 0.62587 0.11957 0.55349 0.0
O52 O 0.624 0.99818 0.66163 0.0
C53 C 0.55063 0.03408 0.85108 0.0
C54 C 0.64529 0.04192 0.59424 0.0
O55 O 0.53353 0.26861 0.62908 0.0
C56 C 0.24838 0.87587 0.42793 0.0
C57 C 0.28764 0.97682 0.43158 0.0
C58 C 0.19908 0.89106 0.42965 0.0
C59 C 0.18778 1.00714 0.4378 0.0
H60 H 0.25579 0.78569 0.41796 0.0
H61 H 0.16969 0.81226 0.42116 0.0
S62 S 0.27779 0.29891 0.45552 0.0
N63 N 0.31254 0.19525 0.44636 0.0
N64 N 0.21978 0.22384 0.45396 0.0
C65 C 0.22683 0.10787 0.44664 0.0
C66 C 0.27693 0.09266 0.44226 0.0
C67 C 0.18934 0.47555 0.24267 0.0
C68 C 0.20865 0.36841 0.24305 0.0
C69 C 0.22058 0.59029 0.23995 0.0
C70 C 0.27245 0.6026 0.2391 0.0
H71 H 0.14969 0.47095 0.24628 0.0
H72 H 0.20389 0.66991 0.24237 0.0
S73 S 0.34188 0.35074 0.23506 0.0
N74 N 0.28303 0.28204 0.23787 0.0
N75 N 0.34179 0.49777 0.23472 0.0
C76 C 0.2923 0.49628 0.23688 0.0
C77 C 0.26041 0.37924 0.23816 0.0
C78 C 0.70731 0.91031 0.57783 0.0
C79 C 0.69607 0.02691 0.57662 0.0
C80 C 0.7566 0.89507 0.57692 0.0
C81 C 0.79592 0.99621 0.57771 0.0
H82 H 0.67786 0.83075 0.58275 0.0
H83 H 0.76392 0.80398 0.58179 0.0
S84 S 0.78596 0.32004 0.57279 0.0
N85 N 0.72796 0.24478 0.57174 0.0
N86 N 0.82074 0.21584 0.57479 0.0
C87 C 0.78518 0.11294 0.57401 0.0
C88 C 0.73508 0.12843 0.57218 0.0
C89 C 0.78941 0.52462 0.77916 0.0
C90 C 0.7705 0.63168 0.77144 0.0
C91 C 0.75792 0.41001 0.77963 0.0
C92 C 0.70636 0.39782 0.77044 0.0
H93 H 0.82901 0.52921 0.78321 0.0
H94 H 0.77446 0.33027 0.78326 0.0
S95 S 0.63797 0.65045 0.75181 0.0
N96 N 0.6967 0.7186 0.75832 0.0
N97 N 0.63758 0.50346 0.75752 0.0
C98 C 0.68681 0.50444 0.76522 0.0
C99 C 0.71884 0.62122 0.76619 0.0
C100 C 0.02683 0.94505 0.02069 0.0
C101 C 0.01639 0.01617 0.08764 0.0
C102 C -0.00152 0.93391 0.94871 0.0
C103 C 0.95832 0.99331 0.94023 0.0
H104 H 0.05715 0.89673 0.02367 0.0
H105 H 0.00818 0.87769 0.89946 0.0
S106 S 0.91603 0.19381 0.09643 0.0
N107 N 0.96333 0.14895 0.13997 0.0
N108 N 0.91011 0.12833 1.00513 0.0
C109 C 0.9475 0.0653 0.00661 0.0
C110 C 0.97644 0.07662 0.08002 0.0
C111 C 0.52912 0.95229 0.99341 0.0
C112 C 0.51778 0.01947 0.92528 0.0
C113 C 0.49914 0.93636 0.06426 0.0
C114 C 0.45634 0.98678 0.07042 0.0
H115 H 0.56147 0.91088 0.99228 0.0
H116 H 0.50971 0.88365 0.11453 0.0
S117 S 0.41044 0.1734 0.91016 0.0
N118 N 0.46083 0.13852 0.86922 0.0
N119 N 0.40453 0.10888 1.0019 0.0
C120 C 0.44453 0.05459 1.00278 0.0
C121 C 0.47515 0.07082 0.93052 0.0
C122 C 0.97327 0.51469 0.58938 0.0
C123 C 0.98197 0.62066 0.5408 0.0
C124 C 0.98631 0.40712 0.56138 0.0
C125 C 0.00847 0.40089 0.48358 0.0
H126 H 0.95554 0.51396 0.64918 0.0
H127 H 0.9786 0.32793 0.60101 0.0
S128 S 0.04265 0.65536 0.33477 0.0
N129 N 0.01648 0.71423 0.41249 0.0
N130 N 0.04081 0.51206 0.35985 0.0
C131 C 0.01803 0.50659 0.43468 0.0
C132 C 0.00489 0.6164 0.46333 0.0
C133 C 0.48287 0.52402 0.41868 0.0
C134 C 0.4772 0.61651 0.47428 0.0
C135 C 0.49874 0.41937 0.44523 0.0
C136 C 0.50951 0.40245 0.52854 0.0
H137 H 0.47457 0.53165 0.35402 0.0
H138 H 0.50246 0.35107 0.39978 0.0
S139 S 0.50184 0.6186 0.6991 0.0
N140 N 0.48456 0.68515 0.61676 0.0
N141 N 0.51409 0.48839 0.66654 0.0
C142 C 0.50414 0.4943 0.58493 0.0
C143 C 0.48814 0.60126 0.55783 0.0
loop_
_geom_bond_atom_site_label_1
_geom_bond_atom_site_label_2
_geom_bond_distance
_geom_bond_site_symmetry_2
_ccdc_geom_bond_type
Mg0 O1 2.028 . S
Mg0 O7 1.986 . S
Mg0 O9 2.114 . S
Mg0 O10 2.251 . S
Mg0 O13 2.010 . S
O1 Mg0 2.028 . S
O1 C4 1.250 . S
O2 Mg3 2.028 . S
O2 C4 1.248 . S
Mg3 O2 2.028 . S
Mg3 O8 2.032 . S
Mg3 O10 2.079 . S
C4 O1 1.250 . S
C4 O2 1.248 . S
C5 O6 1.264 1_455 S
C5 O13 1.249 . S
O6 C5 1.264 1_655 S
O7 Mg0 1.986 . S
O7 C11 1.246 . S
O8 Mg3 2.032 . S
O8 C11 1.259 . S
O9 Mg0 2.114 . S
O9 C12 1.252 . S
O10 Mg0 2.251 . S
O10 Mg3 2.079 . S
O10 C12 1.273 . S
C11 O7 1.246 . S
C11 O8 1.259 . S
C12 O9 1.252 . S
C12 O10 1.273 . S
O13 Mg0 2.010 . S
O13 C5 1.249 . S
Mg14 O15 2.028 . S
Mg14 O21 1.986 . S
Mg14 O23 2.114 . S
Mg14 O24 2.251 . S
Mg14 O27 2.010 . S
O15 Mg14 2.028 . S
O15 C18 1.250 . S
O16 Mg17 2.028 . S
O16 C18 1.248 . S
Mg17 O16 2.028 . S
Mg17 O22 2.032 . S
Mg17 O24 2.079 . S
C18 O15 1.250 . S
C18 O16 1.248 . S
C19 O20 1.264 . S
C19 O27 1.249 . S
O20 C19 1.264 . S
O21 Mg14 1.986 . S
O21 C25 1.246 . S
O22 Mg17 2.032 . S
O22 C25 1.259 . S
O23 Mg14 2.114 . S
O23 C26 1.252 . S
O24 Mg14 2.251 . S
O24 Mg17 2.079 . S
O24 C26 1.273 . S
C25 O21 1.246 . S
C25 O22 1.259 . S
C26 O23 1.252 . S
C26 O24 1.273 . S
O27 Mg14 2.010 . S
O27 C19 1.249 . S
Mg28 O29 2.028 . S
Mg28 O35 1.986 . S
Mg28 O37 2.114 . S
Mg28 O38 2.251 . S
Mg28 O41 2.010 . S
O29 Mg28 2.028 . S
O29 C32 1.250 . S
O30 Mg31 2.028 . S
O30 C32 1.248 . S
Mg31 O30 2.028 . S
Mg31 O36 2.032 . S
Mg31 O38 2.079 . S
C32 O29 1.250 . S
C32 O30 1.248 . S
C33 O34 1.264 1_655 S
C33 O41 1.249 . S
O34 C33 1.264 1_455 S
O35 Mg28 1.986 . S
O35 C39 1.246 . S
O36 Mg31 2.032 . S
O36 C39 1.259 . S
O37 Mg28 2.114 . S
O37 C40 1.252 . S
O38 Mg28 2.251 . S
O38 Mg31 2.079 . S
O38 C40 1.273 . S
C39 O35 1.246 . S
C39 O36 1.259 . S
C40 O37 1.252 . S
C40 O38 1.273 . S
O41 Mg28 2.010 . S
O41 C33 1.249 . S
Mg42 O43 2.028 . S
Mg42 O49 1.986 . S
Mg42 O51 2.114 . S
Mg42 O52 2.251 . S
Mg42 O55 2.010 . S
O43 Mg42 2.028 . S
O43 C46 1.250 . S
O44 Mg45 2.028 . S
O44 C46 1.248 . S
Mg45 O44 2.028 . S
Mg45 O50 2.032 . S
Mg45 O52 2.079 . S
C46 O43 1.250 . S
C46 O44 1.248 . S
C47 O48 1.264 . S
C47 O55 1.249 . S
O48 C47 1.264 . S
O49 Mg42 1.986 . S
O49 C53 1.246 . S
O50 Mg45 2.032 . S
O50 C53 1.259 . S
O51 Mg42 2.114 . S
O51 C54 1.252 . S
O52 Mg42 2.251 . S
O52 Mg45 2.079 . S
O52 C54 1.273 . S
C53 O49 1.246 . S
C53 O50 1.259 . S
C54 O51 1.252 . S
C54 O52 1.273 . S
O55 Mg42 2.010 . S
O55 C47 1.249 . S
C56 C57 1.369 . S
C56 C58 1.419 . S
C56 H60 0.930 . S
C57 C56 1.369 . S
C57 C66 1.429 1_565 S
C58 C56 1.419 . S
C58 C59 1.363 1_565 S
C58 H61 0.929 . S
C59 C58 1.363 1_545 S
C59 C65 1.428 . S
H60 C56 0.930 . S
H61 C58 0.929 . S
S62 N63 1.613 . S
S62 N64 1.610 . S
N63 S62 1.613 . S
N63 C66 1.350 . S
N64 S62 1.610 . S
N64 C65 1.351 . S
C65 C59 1.428 . S
C65 N64 1.351 . S
C65 C66 1.434 . S
C66 C57 1.429 1_545 S
C66 N63 1.350 . S
C66 C65 1.434 . S
C67 C68 1.369 . S
C67 C69 1.419 . S
C67 H71 0.930 . S
C68 C67 1.369 . S
C68 C77 1.429 . S
C69 C67 1.419 . S
C69 C70 1.363 . S
C69 H72 0.929 . S
C70 C69 1.363 . S
C70 C76 1.428 . S
H71 C67 0.930 . S
H72 C69 0.929 . S
S73 N74 1.613 . S
S73 N75 1.610 . S
N74 S73 1.613 . S
N74 C77 1.350 . S
N75 S73 1.610 . S
N75 C76 1.351 . S
C76 C70 1.428 . S
C76 N75 1.351 . S
C76 C77 1.434 . S
C77 C68 1.429 . S
C77 N74 1.350 . S
C77 C76 1.434 . S
C78 C79 1.369 1_565 S
C78 C80 1.419 . S
C78 H82 0.930 . S
C79 C78 1.369 1_545 S
C79 C88 1.429 . S
C80 C78 1.419 . S
C80 C81 1.363 . S
C80 H83 0.929 . S
C81 C80 1.363 . S
C81 C87 1.428 1_565 S
H82 C78 0.930 . S
H83 C80 0.929 . S
S84 N85 1.613 . S
S84 N86 1.610 . S
N85 S84 1.613 . S
N85 C88 1.350 . S
N86 S84 1.610 . S
N86 C87 1.351 . S
C87 C81 1.428 1_545 S
C87 N86 1.351 . S
C87 C88 1.434 . S
C88 C79 1.429 . S
C88 N85 1.350 . S
C88 C87 1.434 . S
C89 C90 1.369 . S
C89 C91 1.419 . S
C89 H93 0.930 . S
C90 C89 1.369 . S
C90 C99 1.429 . S
C91 C89 1.419 . S
C91 C92 1.363 . S
C91 H94 0.929 . S
C92 C91 1.363 . S
C92 C98 1.428 . S
H93 C89 0.930 . S
H94 C91 0.929 . S
S95 N96 1.613 . S
S95 N97 1.610 . S
N96 S95 1.613 . S
N96 C99 1.350 . S
N97 S95 1.610 . S
N97 C98 1.351 . S
C98 C92 1.428 . S
C98 N97 1.351 . S
C98 C99 1.434 . S
C99 C90 1.429 . S
C99 N96 1.350 . S
C99 C98 1.434 . S
C100 C101 1.369 1_565 S
C100 C102 1.419 1_455 S
C100 H104 0.930 . S
C101 C100 1.369 1_545 S
C101 C110 1.429 1_554 S
C102 C100 1.419 1_655 S
C102 C103 1.363 1_554 S
C102 H105 0.929 . S
C103 C102 1.363 1_556 S
C103 C109 1.428 1_565 S
H104 C100 0.930 . S
H105 C102 0.929 . S
S106 N107 1.625 . S
S106 N108 1.610 . S
N107 S106 1.625 . S
N107 C110 1.345 1_655 S
N108 S106 1.610 . S
N108 C109 1.351 . S
C109 C103 1.428 1_545 S
C109 N108 1.351 . S
C109 C110 1.434 1_655 S
C110 C101 1.429 1_556 S
C110 N107 1.345 1_455 S
C110 C109 1.434 1_455 S
C111 C112 1.369 1_565 S
C111 C113 1.419 1_556 S
C111 H115 0.930 . S
C112 C111 1.369 1_545 S
C112 C121 1.435 . S
C113 C111 1.419 1_554 S
C113 C114 1.363 . S
C113 H116 0.929 . S
C114 C113 1.363 . S
C114 C120 1.428 1_565 S
H115 C111 0.930 . S
H116 C113 0.929 . S
S117 N118 1.613 . S
S117 N119 1.610 . S
N118 S117 1.613 . S
N118 C121 1.349 1_554 S
N119 S117 1.610 . S
N119 C120 1.351 . S
C120 C114 1.428 1_545 S
C120 N119 1.351 . S
C120 C121 1.428 1_554 S
C121 C112 1.435 . S
C121 N118 1.349 1_556 S
C121 C120 1.428 1_556 S
C122 C123 1.366 1_455 S
C122 C124 1.422 . S
C122 H126 0.930 . S
C123 C122 1.366 1_655 S
C123 C132 1.429 . S
C124 C122 1.422 . S
C124 C125 1.363 . S
C124 H127 0.929 . S
C125 C124 1.363 . S
C125 C131 1.428 1_455 S
H126 C122 0.930 . S
H127 C124 0.929 . S
S128 N129 1.613 . S
S128 N130 1.610 . S
N129 S128 1.613 . S
N129 C132 1.350 . S
N130 S128 1.610 . S
N130 C131 1.351 . S
C131 C125 1.428 1_655 S
C131 N130 1.351 . S
C131 C132 1.434 . S
C132 C123 1.429 . S
C132 N129 1.350 . S
C132 C131 1.434 . S
C133 C134 1.369 . S
C133 C135 1.419 . S
C133 H137 0.930 . S
C134 C133 1.369 . S
C134 C143 1.429 . S
C135 C133 1.419 . S
C135 C136 1.363 . S
C135 H138 0.929 . S
C136 C135 1.363 . S
C136 C142 1.428 . S
H137 C133 0.930 . S
H138 C135 0.929 . S
S139 N140 1.613 . S
S139 N141 1.610 . S
N140 S139 1.613 . S
N140 C143 1.350 . S
N141 S139 1.610 . S
N141 C142 1.351 . S
C142 C136 1.428 . S
C142 N141 1.351 . S
C142 C143 1.434 . S
C143 C134 1.429 . S
C143 N140 1.350 . S
C143 C142 1.434 . S
C57 C26 1.161 . S
C59 C12 1.156 . S
C68 C4 0.952 . S
C70 C18 0.970 . S
C79 C54 1.148 . S
C81 C40 1.161 . S
C90 C32 0.971 . S
C92 C46 0.957 . S
C101 C11 1.531 . S
C103 C39 1.523 . S
C112 C53 1.530 . S
C114 C25 1.524 . S
C123 C33 1.628 . S
C125 C5 1.625 . S
C134 C19 1.624 . S
C136 C47 1.627 . S
