# Generated by pormake.
# Topology dmp, (4)-cn, num edge types: 1
# Building blocks:
#     Node 0, Type 0, BuildingBlock: CEKHIL_clean_sbu_0, # of connection points: 4
#     Node 1, Type 0, BuildingBlock: CEKHIL_clean_sbu_0, # of connection points: 4
#     Node 2, Type 0, BuildingBlock: CEKHIL_clean_sbu_0, # of connection points: 4
#     Node 3, Type 0, BuildingBlock: CEKHIL_clean_sbu_0, # of connection points: 4
#     Edge 4, Type (0, 0), BuildingBlock: AJUNOK_clean_linker_0, # of connection points: 2
#     Edge 5, Type (0, 0), BuildingBlock: AJUNOK_clean_linker_0, # of connection points: 2
#     Edge 6, Type (0, 0), BuildingBlock: AJUNOK_clean_linker_0, # of connection points: 2
#     Edge 7, Type (0, 0), BuildingBlock: AJUNOK_clean_linker_0, # of connection points: 2
#     Edge 8, Type (0, 0), BuildingBlock: AJUNOK_clean_linker_0, # of connection points: 2
#     Edge 9, Type (0, 0), BuildingBlock: AJUNOK_clean_linker_0, # of connection points: 2
#     Edge 10, Type (0, 0), BuildingBlock: AJUNOK_clean_linker_0, # of connection points: 2
#     Edge 11, Type (0, 0), BuildingBlock: AJUNOK_clean_linker_0, # of connection points: 2
# Relax obj value: 0.087
# Max RMSD: 0.195
# Mean RMSD: 0.195
data_MOF--net-dmp--node1-CEKHIL_clean_sbu_0--edge1-AJUNOK_clean_linker_0
_symmetry_space_group_name_H-M    P1
_symmetry_Int_Tables_number       1
_symmetry_cell_setting            triclinic
loop_
_symmetry_equiv_pos_as_xyz
'x, y, z'
_cell_length_a     28.063205
_cell_length_b     14.196749
_cell_length_c     10.662413
_cell_angle_alpha  90.001982
_cell_angle_beta   89.912826
_cell_angle_gamma 91.318553
loop_
_atom_site_label
_atom_site_type_symbol
_atom_site_fract_x
_atom_site_fract_y
_atom_site_fract_z
_atom_type_partial_charge
Co0 Co 0.1101 0.24503 0.24498 0.0
O1 O 0.06384 0.34291 0.24533 0.0
O2 O 0.10651 0.30179 0.40976 0.0
C3 C 0.06352 0.1378 0.14435 0.0
O4 O 0.16058 0.14729 0.27988 0.0
Co5 Co 0.14857 0.16639 0.99257 0.0
O6 O 0.17258 0.06529 0.10256 0.0
C7 C 0.19026 0.34251 0.09834 0.0
C8 C 0.07361 0.35465 0.36319 0.0
C9 C 0.17921 0.07885 0.21941 0.0
O10 O 0.16236 0.33621 0.194 0.0
O11 O 0.18816 0.2859 0.00481 0.0
O12 O 0.05945 0.14994 0.26457 0.0
O13 O 0.09249 0.19575 0.08809 0.0
Co14 Co 0.42201 0.72718 0.2477 0.0
O15 O 0.47096 0.63455 0.2496 0.0
O16 O 0.42598 0.6705 0.41233 0.0
C17 C 0.46623 0.83922 0.14857 0.0
O18 O 0.36854 0.81904 0.28132 0.0
Co19 Co 0.38263 0.80129 0.99467 0.0
O20 O 0.35415 0.89849 0.10335 0.0
C21 C 0.34554 0.62059 0.09874 0.0
C22 C 0.46045 0.62098 0.36678 0.0
C23 C 0.34791 0.88477 0.22032 0.0
O24 O 0.37283 0.63025 0.1949 0.0
O25 O 0.34636 0.67772 0.00567 0.0
O26 O 0.46983 0.82761 0.26899 0.0
O27 O 0.43917 0.77837 0.09138 0.0
Co28 Co 0.92141 0.72987 0.76068 0.0
O29 O 0.96907 0.63502 0.7707 0.0
O30 O 0.92942 0.67029 0.59873 0.0
C31 C 0.96476 0.83999 0.86622 0.0
O32 O 0.8701 0.82368 0.71511 0.0
Co33 Co 0.8768 0.81379 0.00277 0.0
O34 O 0.8556 0.91236 0.88491 0.0
C35 C 0.84196 0.62896 0.90468 0.0
C36 C 0.96189 0.62003 0.6523 0.0
C37 C 0.8506 0.89436 0.76861 0.0
O38 O 0.86969 0.63597 0.80858 0.0
O39 O 0.84184 0.689 0.9944 0.0
O40 O 0.97135 0.82802 0.74663 0.0
O41 O 0.93475 0.78202 0.91792 0.0
Co42 Co 0.61095 0.24359 0.7637 0.0
O43 O 0.56412 0.33998 0.77438 0.0
O44 O 0.60341 0.30361 0.60197 0.0
C45 C 0.56654 0.13507 0.86964 0.0
O46 O 0.66143 0.14839 0.71719 0.0
Co47 Co 0.65483 0.15752 0.00507 0.0
O48 O 0.67627 0.05958 0.88652 0.0
C49 C 0.6918 0.34069 0.90605 0.0
C50 C 0.57129 0.35469 0.65587 0.0
C51 C 0.68119 0.07792 0.77025 0.0
O52 O 0.66356 0.33549 0.81104 0.0
O53 O 0.69152 0.28041 0.9955 0.0
O54 O 0.56014 0.14717 0.75007 0.0
O55 O 0.59717 0.19177 0.9211 0.0
C56 C 0.26227 0.88083 0.26875 0.0
C57 C 0.30625 0.93011 0.27542 0.0
C58 C 0.21925 0.92915 0.26687 0.0
C59 C 0.21898 0.02784 0.27536 0.0
H60 H 0.26133 0.80572 0.25017 0.0
H61 H 0.18653 0.89002 0.24685 0.0
S62 S 0.3242 0.18725 0.31683 0.0
N63 N 0.34679 0.08108 0.30535 0.0
N64 N 0.26574 0.17183 0.30855 0.0
C65 C 0.26233 0.07651 0.29799 0.0
C66 C 0.30619 0.02757 0.29606 0.0
C67 C 0.24724 0.45227 0.98801 0.0
C68 C 0.22942 0.41387 0.10065 0.0
C69 C 0.28556 0.5173 0.98794 0.0
C70 C 0.30817 0.54502 0.10033 0.0
H71 H 0.23109 0.43279 0.89921 0.0
H72 H 0.29741 0.54633 0.89894 0.0
S73 S 0.27678 0.45979 0.42037 0.0
N74 N 0.23832 0.40491 0.32724 0.0
N75 N 0.31055 0.52619 0.3275 0.0
C76 C 0.29136 0.50511 0.21357 0.0
C77 C 0.25189 0.44001 0.21366 0.0
C78 C 0.72315 0.93425 0.70417 0.0
C79 C 0.72168 0.033 0.7084 0.0
C80 C 0.76688 0.88831 0.70145 0.0
C81 C 0.81024 0.93991 0.70751 0.0
H82 H 0.69067 0.89244 0.7161 0.0
H83 H 0.76661 0.8123 0.71147 0.0
S84 S 0.82524 0.19946 0.69907 0.0
N85 N 0.76692 0.18073 0.69786 0.0
N86 N 0.84911 0.09411 0.70049 0.0
C87 C 0.80914 0.03827 0.69779 0.0
C88 C 0.76468 0.08499 0.69618 0.0
C89 C 0.78645 0.51638 0.7948 0.0
C90 C 0.80547 0.55214 0.90769 0.0
C91 C 0.74871 0.45 0.7951 0.0
C92 C 0.72908 0.41591 0.9083 0.0
H93 H 0.80006 0.54135 0.70535 0.0
H94 H 0.73539 0.42405 0.70593 0.0
S95 S 0.76689 0.4852 0.22938 0.0
N96 N 0.80228 0.54752 0.13566 0.0
N97 N 0.73174 0.42213 0.13617 0.0
C98 C 0.74815 0.45022 0.02178 0.0
C99 C 0.78621 0.51848 0.02149 0.0
C100 C 0.04239 0.05431 0.94495 0.0
C101 C 0.03797 0.06121 0.07618 0.0
C102 C 0.01847 0.98286 0.8776 0.0
C103 C 0.98919 0.91565 0.93892 0.0
H104 H 0.06445 0.10458 0.89339 0.0
H105 H 0.02299 0.98048 0.77675 0.0
S106 S 0.9663 0.90144 0.28203 0.0
N107 N 1.00239 -0.00601 0.26518 0.0
N108 N 0.95762 0.85975 0.13923 0.0
C109 C 0.98453 0.9216 0.0703 0.0
C110 C 1.00887 -0.00566 0.13877 0.0
C111 C 0.51244 -0.00725 0.88131 0.0
C112 C 0.54113 0.06077 0.94272 0.0
C113 C 0.48807 0.9219 0.94888 0.0
C114 C 0.49138 0.91648 0.08046 0.0
H115 H 0.50892 -0.00623 0.78016 0.0
H116 H 0.4667 0.87066 0.89717 0.0
S117 S 0.56034 0.08009 0.28675 0.0
N118 N 0.57041 0.11987 0.14351 0.0
N119 N 0.5247 0.98688 0.26996 0.0
C120 C 0.51953 0.98471 0.14322 0.0
C121 C 0.54439 0.05676 0.07449 0.0
C122 C 0.98639 0.54483 0.45052 0.0
C123 C 0.99058 0.55113 0.5816 0.0
C124 C 1.01385 0.48199 0.38121 0.0
C125 C 0.04669 0.42273 0.43994 0.0
H126 H 0.96187 0.58909 0.40054 0.0
H127 H 1.00911 0.47996 0.28043 0.0
S128 S 0.07071 0.41017 0.78174 0.0
N129 N 0.02994 0.49151 0.76812 0.0
N130 N 0.0814 0.37369 0.63763 0.0
C131 C 0.05128 0.42816 0.57106 0.0
C132 C 0.02326 0.49216 0.64186 0.0
C133 C 0.52333 0.49984 0.3866 0.0
C134 C 0.48762 0.55349 0.44357 0.0
C135 C 0.55038 0.43648 0.45595 0.0
C136 C 0.54295 0.42414 0.58536 0.0
H137 H 0.5306 0.50658 0.28716 0.0
H138 H 0.57721 0.39669 0.4073 0.0
S139 S 0.45403 0.5482 0.78043 0.0
N140 N 0.44646 0.5903 0.63773 0.0
N141 N 0.49717 0.47159 0.76834 0.0
C142 C 0.5074 0.47754 0.64387 0.0
C143 C 0.47977 0.54201 0.57299 0.0
loop_
_geom_bond_atom_site_label_1
_geom_bond_atom_site_label_2
_geom_bond_distance
_geom_bond_site_symmetry_2
_ccdc_geom_bond_type
Co0 O1 2.216 . S
Co0 O2 2.091 . S
Co0 O4 2.004 . S
Co0 O10 2.021 . S
Co0 O12 2.137 . S
Co0 O13 2.244 . S
O1 Co0 2.216 . S
O1 C8 1.247 . S
O2 Co0 2.091 . S
O2 C8 1.261 . S
C3 O12 1.247 . S
C3 O13 1.272 . S
O4 Co0 2.004 . S
O4 C9 1.259 . S
Co5 O6 2.061 . S
Co5 O11 2.052 . S
Co5 O13 2.135 . S
O6 Co5 2.061 . S
O6 C9 1.235 . S
C7 O10 1.238 . S
C7 O11 1.241 . S
C8 O1 1.247 . S
C8 O2 1.261 . S
C9 O4 1.259 . S
C9 O6 1.235 . S
O10 Co0 2.021 . S
O10 C7 1.238 . S
O11 Co5 2.052 . S
O11 C7 1.241 . S
O12 Co0 2.137 . S
O12 C3 1.247 . S
O13 Co0 2.244 . S
O13 C3 1.272 . S
O13 Co5 2.135 . S
Co14 O15 2.216 . S
Co14 O16 2.091 . S
Co14 O18 2.004 . S
Co14 O24 2.021 . S
Co14 O26 2.137 . S
Co14 O27 2.244 . S
O15 Co14 2.216 . S
O15 C22 1.247 . S
O16 Co14 2.091 . S
O16 C22 1.261 . S
C17 O26 1.247 . S
C17 O27 1.272 . S
O18 Co14 2.004 . S
O18 C23 1.259 . S
Co19 O20 2.061 . S
Co19 O25 2.052 . S
Co19 O27 2.135 . S
O20 Co19 2.061 . S
O20 C23 1.235 . S
C21 O24 1.238 . S
C21 O25 1.241 . S
C22 O15 1.247 . S
C22 O16 1.261 . S
C23 O18 1.259 . S
C23 O20 1.235 . S
O24 Co14 2.021 . S
O24 C21 1.238 . S
O25 Co19 2.052 . S
O25 C21 1.241 . S
O26 Co14 2.137 . S
O26 C17 1.247 . S
O27 Co14 2.244 . S
O27 C17 1.272 . S
O27 Co19 2.135 . S
Co28 O29 2.216 . S
Co28 O30 2.091 . S
Co28 O32 2.004 . S
Co28 O38 2.021 . S
Co28 O40 2.137 . S
Co28 O41 2.244 . S
O29 Co28 2.216 . S
O29 C36 1.247 . S
O30 Co28 2.091 . S
O30 C36 1.261 . S
C31 O40 1.247 . S
C31 O41 1.272 . S
O32 Co28 2.004 . S
O32 C37 1.259 . S
Co33 O34 2.061 . S
Co33 O39 2.052 . S
Co33 O41 2.135 . S
O34 Co33 2.061 . S
O34 C37 1.235 . S
C35 O38 1.238 . S
C35 O39 1.241 . S
C36 O29 1.247 . S
C36 O30 1.261 . S
C37 O32 1.259 . S
C37 O34 1.235 . S
O38 Co28 2.021 . S
O38 C35 1.238 . S
O39 Co33 2.052 . S
O39 C35 1.241 . S
O40 Co28 2.137 . S
O40 C31 1.247 . S
O41 Co28 2.244 . S
O41 C31 1.272 . S
O41 Co33 2.135 . S
Co42 O43 2.216 . S
Co42 O44 2.091 . S
Co42 O46 2.004 . S
Co42 O52 2.021 . S
Co42 O54 2.137 . S
Co42 O55 2.244 . S
O43 Co42 2.216 . S
O43 C50 1.247 . S
O44 Co42 2.091 . S
O44 C50 1.261 . S
C45 O54 1.247 . S
C45 O55 1.272 . S
O46 Co42 2.004 . S
O46 C51 1.259 . S
Co47 O48 2.061 . S
Co47 O53 2.052 . S
Co47 O55 2.135 . S
O48 Co47 2.061 . S
O48 C51 1.235 . S
C49 O52 1.238 . S
C49 O53 1.241 . S
C50 O43 1.247 . S
C50 O44 1.261 . S
C51 O46 1.259 . S
C51 O48 1.235 . S
O52 Co42 2.021 . S
O52 C49 1.238 . S
O53 Co47 2.052 . S
O53 C49 1.241 . S
O54 Co42 2.137 . S
O54 C45 1.247 . S
O55 Co42 2.244 . S
O55 C45 1.272 . S
O55 Co47 2.135 . S
C56 C57 1.369 . S
C56 C58 1.419 . S
C56 H60 0.930 . S
C57 C56 1.369 . S
C57 C66 1.429 1_565 S
C58 C56 1.419 . S
C58 C59 1.363 1_565 S
C58 H61 0.929 . S
C59 C58 1.363 1_545 S
C59 C65 1.428 . S
H60 C56 0.930 . S
H61 C58 0.929 . S
S62 N63 1.613 . S
S62 N64 1.610 . S
N63 S62 1.613 . S
N63 C66 1.350 . S
N64 S62 1.610 . S
N64 C65 1.351 . S
C65 C59 1.428 . S
C65 N64 1.351 . S
C65 C66 1.434 . S
C66 C57 1.429 1_545 S
C66 N63 1.350 . S
C66 C65 1.434 . S
C67 C68 1.369 . S
C67 C69 1.419 . S
C67 H71 0.930 . S
C68 C67 1.369 . S
C68 C77 1.429 . S
C69 C67 1.419 . S
C69 C70 1.363 . S
C69 H72 0.929 . S
C70 C69 1.363 . S
C70 C76 1.428 . S
H71 C67 0.930 . S
H72 C69 0.929 . S
S73 N74 1.613 . S
S73 N75 1.610 . S
N74 S73 1.613 . S
N74 C77 1.350 . S
N75 S73 1.610 . S
N75 C76 1.351 . S
C76 C70 1.428 . S
C76 N75 1.351 . S
C76 C77 1.434 . S
C77 C68 1.429 . S
C77 N74 1.350 . S
C77 C76 1.434 . S
C78 C79 1.369 1_565 S
C78 C80 1.419 . S
C78 H82 0.930 . S
C79 C78 1.369 1_545 S
C79 C88 1.429 . S
C80 C78 1.419 . S
C80 C81 1.363 . S
C80 H83 0.929 . S
C81 C80 1.363 . S
C81 C87 1.428 1_565 S
H82 C78 0.930 . S
H83 C80 0.929 . S
S84 N85 1.613 . S
S84 N86 1.610 . S
N85 S84 1.613 . S
N85 C88 1.350 . S
N86 S84 1.610 . S
N86 C87 1.351 . S
C87 C81 1.428 1_545 S
C87 N86 1.351 . S
C87 C88 1.434 . S
C88 C79 1.429 . S
C88 N85 1.350 . S
C88 C87 1.434 . S
C89 C90 1.369 . S
C89 C91 1.419 . S
C89 H93 0.930 . S
C90 C89 1.369 . S
C90 C99 1.429 . S
C91 C89 1.419 . S
C91 C92 1.363 . S
C91 H94 0.929 . S
C92 C91 1.363 . S
C92 C98 1.428 . S
H93 C89 0.930 . S
H94 C91 0.929 . S
S95 N96 1.613 . S
S95 N97 1.610 . S
N96 S95 1.613 . S
N96 C99 1.350 1_554 S
N97 S95 1.610 . S
N97 C98 1.351 1_554 S
C98 C92 1.428 . S
C98 N97 1.351 1_556 S
C98 C99 1.434 . S
C99 C90 1.429 . S
C99 N96 1.350 1_556 S
C99 C98 1.434 . S
C100 C101 1.369 1_556 S
C100 C102 1.418 1_445 S
C100 H104 0.930 . S
C101 C100 1.369 1_554 S
C101 C110 1.427 1_455 S
C102 C100 1.418 1_665 S
C102 C103 1.364 . S
C102 H105 0.929 1_655 S
C103 C102 1.364 . S
C103 C109 1.428 1_556 S
H104 C100 0.930 . S
H105 C102 0.929 1_455 S
S106 N107 1.613 1_565 S
S106 N108 1.610 . S
N107 S106 1.613 1_545 S
N107 C110 1.350 . S
N108 S106 1.610 . S
N108 C109 1.351 . S
C109 C103 1.428 1_554 S
C109 N108 1.351 . S
C109 C110 1.435 1_565 S
C110 C101 1.427 1_655 S
C110 N107 1.350 . S
C110 C109 1.435 1_545 S
C111 C112 1.369 . S
C111 C113 1.419 1_545 S
C111 H115 0.930 . S
C112 C111 1.369 . S
C112 C121 1.429 1_556 S
C113 C111 1.419 1_565 S
C113 C114 1.363 1_556 S
C113 H116 0.929 . S
C114 C113 1.363 1_554 S
C114 C120 1.428 . S
H115 C111 0.930 . S
H116 C113 0.929 . S
S117 N118 1.613 . S
S117 N119 1.610 1_545 S
N118 S117 1.613 . S
N118 C121 1.350 . S
N119 S117 1.610 1_565 S
N119 C120 1.351 . S
C120 C114 1.428 . S
C120 N119 1.351 . S
C120 C121 1.434 1_565 S
C121 C112 1.429 1_554 S
C121 N118 1.350 . S
C121 C120 1.434 1_545 S
C122 C123 1.369 . S
C122 C124 1.419 1_655 S
C122 H126 0.930 . S
C123 C122 1.369 . S
C123 C132 1.429 . S
C124 C122 1.419 1_455 S
C124 C125 1.363 . S
C124 H127 0.929 . S
C125 C124 1.363 . S
C125 C131 1.428 . S
H126 C122 0.930 . S
H127 C124 0.929 . S
S128 N129 1.613 . S
S128 N130 1.610 1_655 S
N129 S128 1.613 . S
N129 C132 1.350 . S
N130 S128 1.610 1_455 S
N130 C131 1.351 . S
C131 C125 1.428 . S
C131 N130 1.351 . S
C131 C132 1.434 1_455 S
C132 C123 1.429 . S
C132 N129 1.350 . S
C132 C131 1.434 1_655 S
C133 C134 1.369 . S
C133 C135 1.419 . S
C133 H137 0.930 . S
C134 C133 1.369 . S
C134 C143 1.429 . S
C135 C133 1.419 . S
C135 C136 1.363 . S
C135 H138 0.929 . S
C136 C135 1.363 . S
C136 C142 1.428 . S
H137 C133 0.930 . S
H138 C135 0.929 . S
S139 N140 1.613 . S
S139 N141 1.610 . S
N140 S139 1.613 . S
N140 C143 1.350 . S
N141 S139 1.610 . S
N141 C142 1.351 . S
C142 C136 1.428 . S
C142 N141 1.351 . S
C142 C143 1.434 . S
C143 C134 1.429 . S
C143 N140 1.350 . S
C143 C142 1.434 . S
C57 C23 1.207 . S
C59 C9 1.203 . S
C68 C7 1.130 . S
C70 C21 1.136 . S
C79 C51 1.206 . S
C81 C37 1.205 . S
C90 C35 1.134 . S
C92 C49 1.131 . S
C101 C3 1.544 . S
C103 C31 1.552 . S
C112 C45 1.552 . S
C114 C17 1.546 . S
C123 C36 1.567 . S
C125 C8 1.572 . S
C134 C22 1.572 . S
C136 C50 1.568 . S
