# Generated by pormake.
# Topology pcu, (6)-cn, num edge types: 1
# Building blocks:
#     Node 0, Type 0, BuildingBlock: KUMJIN_clean_sbu_1, # of connection points: 6
#     Edge 1, Type (0, 0), BuildingBlock: KIFKEQ_clean_linker_1, # of connection points: 2
#     Edge 2, Type (0, 0), BuildingBlock: KIFKEQ_clean_linker_1, # of connection points: 2
#     Edge 3, Type (0, 0), BuildingBlock: KIFKEQ_clean_linker_1, # of connection points: 2
# Relax obj value: 0.000
# Max RMSD: 0.000
# Mean RMSD: 0.000
data_MOF--net-pcu--node1-KUMJIN_clean_sbu_1--edge1-KIFKEQ_clean_linker_1
_symmetry_space_group_name_H-M    P1
_symmetry_Int_Tables_number       1
_symmetry_cell_setting            triclinic
loop_
_symmetry_equiv_pos_as_xyz
'x, y, z'
_cell_length_a     15.076492
_cell_length_b     24.595712
_cell_length_c     15.23591
_cell_angle_alpha  112.8978
_cell_angle_beta   90.820204
_cell_angle_gamma 114.52098
loop_
_atom_site_label
_atom_site_type_symbol
_atom_site_fract_x
_atom_site_fract_y
_atom_site_fract_z
_atom_type_partial_charge
Eu0 Eu 0.96336 0.91379 0.93353 0.0
C1 C 0.3206 0.19084 0.13908 0.0
N2 N 0.23447 0.15947 0.16503 0.0
C3 C 0.32827 0.18547 0.31675 0.0
C4 C 0.4143 0.21763 0.19931 0.0
C5 C 0.23722 0.15957 0.25463 0.0
C6 C 0.41725 0.21369 0.28836 0.0
C7 C 0.40303 0.2269 0.02171 0.0
C8 C 0.31524 0.19617 0.05171 0.0
C9 C 0.49629 0.25257 0.08086 0.0
C10 C 0.5019 0.24801 0.16941 0.0
Eu11 Eu 0.08502 0.11566 0.05188 0.0
N12 N 0.22405 0.16909 -0.00565 0.0
C13 C 0.39441 0.2302 0.93248 0.0
C14 C 0.21498 0.17299 0.90812 0.0
C15 C 0.29996 0.2034 0.8757 0.0
H16 H 0.16998 0.14161 0.28029 0.0
H17 H 0.29257 0.2061 0.80693 0.0
H18 H 0.90329 0.88752 0.69857 0.0
H19 H 0.72261 0.81137 0.15027 0.0
H20 H 0.14209 0.15301 0.86465 0.0
H21 H 0.46012 0.25338 0.90687 0.0
H22 H 0.88258 0.87157 0.11127 0.0
H23 H 0.32972 0.18444 0.38712 0.0
H24 H 0.56457 0.27611 0.05882 0.0
H25 H 0.57444 0.26844 0.21452 0.0
H26 H 0.75363 0.84513 0.57793 0.0
H27 H 0.48769 0.23379 0.33676 0.0
H28 H 0.56397 0.7621 0.03413 0.0
N29 N 0.82445 0.87171 0.8083 0.0
C30 C 0.73355 0.83816 0.82503 0.0
C31 C 0.74676 0.84433 0.6481 0.0
C32 C 0.64524 0.80992 0.75563 0.0
C33 C 0.83209 0.87074 0.71854 0.0
C34 C 0.65279 0.81496 0.66744 0.0
N35 N 0.81454 0.85734 0.97614 0.0
C36 C 0.81354 0.85068 0.0609 0.0
C37 C 0.63567 0.79485 0.92937 0.0
C38 C 0.72858 0.82975 0.91034 0.0
C39 C 0.63387 0.78843 0.01681 0.0
C40 C 0.72324 0.81635 0.08273 0.0
H41 H 0.58679 0.79383 0.61224 0.0
H42 H 0.48406 0.75437 0.72269 0.0
H43 H 0.47567 0.74182 0.87519 0.0
O44 O 0.95963 0.82573 0.94364 0.0
O45 O 0.86443 0.96107 0.00285 0.0
O46 O 0.92547 0.05082 0.96957 0.0
O47 O 0.99395 0.8427 0.81497 0.0
O48 O 0.03707 0.96788 0.09349 0.0
O49 O 0.02322 0.06593 0.15225 0.0
O50 O 0.08476 0.20318 0.04403 0.0
O51 O 0.18123 0.06565 0.98646 0.0
O52 O 0.1231 0.97456 0.01859 0.0
O53 O 0.05361 0.18515 0.17259 0.0
O54 O 1.0029 0.05812 0.89451 0.0
O55 O 0.03405 0.96737 0.83971 0.0
C56 C 0.85654 1.01076 -0.00311 0.0
C57 C 0.9912 0.74259 0.81344 0.0
C58 C 0.99815 0.64688 0.82137 0.0
C59 C 1.00149 0.62227 0.7221 0.0
C60 C 0.99581 0.71719 0.71445 0.0
C61 C 1.00101 0.6575 0.66933 0.0
C62 C 0.99353 0.70744 0.86713 0.0
C63 C 0.02718 0.01623 0.16353 0.0
C64 C 0.98113 0.80447 0.8584 0.0
C65 C 0.55252 0.77592 0.77496 0.0
C66 C 0.54775 0.76843 0.86156 0.0
C67 C 0.19544 0.02201 0.00569 0.0
C68 C 0.04913 0.28367 0.1744 0.0
C69 C 0.02691 0.37409 0.16338 0.0
C70 C 1.00879 0.3927 0.25817 0.0
C71 C 0.03173 0.30381 0.26955 0.0
C72 C 0.04815 0.31982 0.12193 0.0
C73 C 1.0121 0.3581 0.31107 0.0
C74 C 0.02177 1.01392 0.82631 0.0
C75 C 0.06224 0.22293 0.12912 0.0
H76 H 1.00541 0.57596 0.68558 0.0
H77 H 0.99422 0.74305 0.67135 0.0
H78 H 1.00409 0.63825 0.59295 0.0
H79 H 0.99001 0.72634 0.94352 0.0
H80 H 0.99254 0.43435 0.29146 0.0
H81 H 0.03208 0.27713 0.31169 0.0
H82 H 0.06061 0.30466 0.04818 0.0
H83 H 0.99835 0.37298 0.38424 0.0
H84 H 0.05248 0.9302 0.22101 0.0
H85 H 0.99883 0.10201 0.32733 0.0
H86 H 0.04825 0.92858 0.37886 0.0
H87 H 1.0022 0.10355 0.48782 0.0
H88 H 0.91568 0.05253 0.73964 0.0
H89 H 0.91469 0.05187 0.57958 0.0
H90 H 0.13562 0.97975 0.53794 0.0
H91 H 0.13137 0.97683 0.69607 0.0
C92 C 0.04039 0.96802 0.27824 0.0
C93 C 0.02572 0.01616 0.26098 0.0
C94 C 0.03928 0.9676 0.36963 0.0
C95 C 0.02546 0.01614 0.44714 0.0
C96 C 1.01136 0.06458 0.42992 0.0
C97 C 1.01044 0.06416 0.33782 0.0
C98 C 0.96397 0.03656 0.696 0.0
C99 C 0.0235 0.01461 0.72989 0.0
C100 C 0.96402 0.03658 0.60434 0.0
C101 C 0.02528 0.01594 0.54507 0.0
C102 C 0.08581 0.99471 0.58011 0.0
C103 C 0.08407 0.99339 0.67106 0.0
H104 H 0.27631 0.98203 0.11423 0.0
H105 H 0.34078 0.07176 0.91437 0.0
H106 H 0.44005 0.98564 0.12333 0.0
H107 H 0.50234 0.07206 0.91839 0.0
H108 H 0.81672 0.10809 0.99114 0.0
H109 H 0.66241 0.11681 0.00397 0.0
H110 H 0.52943 0.93448 0.03733 0.0
H111 H 0.68674 0.92972 0.03379 0.0
C112 C 0.32549 1.00202 0.07156 0.0
C113 C 0.29584 0.02618 0.01309 0.0
C114 C 0.41926 1.00375 0.07618 0.0
C115 C 0.48483 0.02839 0.02073 0.0
C116 C 0.45514 0.05359 0.9634 0.0
C117 C 0.36209 0.05306 0.96041 0.0
C118 C 0.75464 0.07002 0.00175 0.0
C119 C 0.76328 0.01694 0.00849 0.0
C120 C 0.66554 0.07472 0.00829 0.0
C121 C 0.58206 0.02584 0.02012 0.0
C122 C 0.59178 0.97358 0.02909 0.0
C123 C 0.68175 0.96989 0.02499 0.0
H124 H 0.86731 0.51946 0.77877 0.0
H125 H 0.1316 0.68681 0.98387 0.0
H126 H 0.87373 0.45229 0.86023 0.0
H127 H 0.13949 0.61905 0.06439 0.0
H128 H 0.17289 0.4419 0.08791 0.0
H129 H 0.16561 0.51008 0.00789 0.0
H130 H 0.85967 0.45694 0.03508 0.0
H131 H 0.86786 0.3903 0.11684 0.0
C132 C 0.92645 0.54182 0.84165 0.0
C133 C 0.9987 0.60827 0.87551 0.0
C134 C 0.93012 0.50349 0.88816 0.0
C135 C 1.0074 0.53041 0.96819 0.0
C136 C 0.07958 0.597 0.00235 0.0
C137 C 0.07464 0.63584 0.95701 0.0
C138 C 0.10412 0.44461 0.076 0.0
C139 C 1.02088 0.41093 0.10815 0.0
C140 C 0.10016 0.48391 0.03112 0.0
C141 C 1.01219 0.48894 0.01577 0.0
C142 C 0.92829 0.45382 0.04585 0.0
C143 C 0.93295 0.4158 0.09252 0.0
loop_
_geom_bond_atom_site_label_1
_geom_bond_atom_site_label_2
_geom_bond_distance
_geom_bond_site_symmetry_2
_ccdc_geom_bond_type
Eu0 N29 2.600 . S
Eu0 N35 2.562 . S
Eu0 O44 2.462 . S
Eu0 O45 2.373 . S
Eu0 O47 2.432 . S
Eu0 O48 2.291 1_556 S
Eu0 O52 2.335 1_655 S
Eu0 O55 2.372 . S
Eu0 C64 2.787 . S
C1 N2 1.365 . S
C1 C4 1.405 . S
C1 C8 1.448 . S
N2 C1 1.365 . S
N2 C5 1.319 . S
N2 Eu11 2.600 . S
C3 C5 1.397 . S
C3 C6 1.367 . S
C3 H23 0.931 . S
C4 C1 1.405 . S
C4 C6 1.403 . S
C4 C10 1.439 . S
C5 N2 1.319 . S
C5 C3 1.397 . S
C5 H16 0.930 . S
C6 C3 1.367 . S
C6 C4 1.403 . S
C6 H27 0.929 . S
C7 C8 1.430 . S
C7 C9 1.387 . S
C7 C13 1.404 . S
C8 C1 1.448 . S
C8 C7 1.430 . S
C8 N12 1.351 . S
C9 C7 1.387 . S
C9 C10 1.374 . S
C9 H24 0.931 . S
C10 C4 1.439 . S
C10 C9 1.374 . S
C10 H25 0.931 . S
Eu11 N2 2.600 . S
Eu11 N12 2.562 . S
Eu11 O46 2.335 1_455 S
Eu11 O49 2.372 . S
Eu11 O50 2.462 . S
Eu11 O51 2.373 . S
Eu11 O53 2.432 . S
Eu11 O54 2.291 1_554 S
Eu11 C75 2.787 . S
N12 C8 1.351 . S
N12 Eu11 2.562 . S
N12 C14 1.325 1_554 S
C13 C7 1.404 . S
C13 C15 1.366 1_554 S
C13 H21 0.930 1_554 S
C14 N12 1.325 1_556 S
C14 C15 1.416 . S
C14 H20 0.929 . S
C15 C13 1.366 1_556 S
C15 C14 1.416 . S
C15 H17 0.930 . S
H16 C5 0.930 . S
H17 C15 0.930 . S
H18 C33 0.930 . S
H19 C40 0.930 . S
H20 C14 0.929 . S
H21 C13 0.930 1_556 S
H22 C36 0.929 . S
H23 C3 0.931 . S
H24 C9 0.931 . S
H25 C10 0.931 . S
H26 C31 0.931 . S
H27 C6 0.929 . S
H28 C39 0.930 1_554 S
N29 Eu0 2.600 . S
N29 C30 1.365 . S
N29 C33 1.319 . S
C30 N29 1.365 . S
C30 C32 1.405 . S
C30 C38 1.448 . S
C31 H26 0.931 . S
C31 C33 1.397 . S
C31 C34 1.367 . S
C32 C30 1.405 . S
C32 C34 1.403 . S
C32 C65 1.439 . S
C33 H18 0.930 . S
C33 N29 1.319 . S
C33 C31 1.397 . S
C34 C31 1.367 . S
C34 C32 1.403 . S
C34 H41 0.929 . S
N35 Eu0 2.562 . S
N35 C36 1.325 1_556 S
N35 C38 1.351 . S
C36 H22 0.929 . S
C36 N35 1.325 1_554 S
C36 C40 1.416 . S
C37 C38 1.430 . S
C37 C39 1.404 . S
C37 C66 1.387 . S
C38 C30 1.448 . S
C38 N35 1.351 . S
C38 C37 1.430 . S
C39 H28 0.930 1_556 S
C39 C37 1.404 . S
C39 C40 1.366 1_556 S
C40 H19 0.930 . S
C40 C36 1.416 . S
C40 C39 1.366 1_554 S
H41 C34 0.929 . S
H42 C65 0.931 . S
H43 C66 0.931 . S
O44 Eu0 2.462 . S
O44 C64 1.252 . S
O45 Eu0 2.373 . S
O45 C56 1.248 . S
O46 Eu11 2.335 1_655 S
O46 C56 1.264 1_544 S
O47 Eu0 2.432 . S
O47 C64 1.268 . S
O48 Eu0 2.291 1_554 S
O48 C63 1.255 1_565 S
O49 Eu11 2.372 . S
O49 C63 1.257 1_455 S
O50 Eu11 2.462 . S
O50 C75 1.252 . S
O51 Eu11 2.373 . S
O51 C67 1.252 . S
O52 Eu0 2.335 1_455 S
O52 C67 1.262 1_566 S
O53 Eu11 2.432 . S
O53 C75 1.268 . S
O54 Eu11 2.291 1_556 S
O54 C74 1.255 1_545 S
O55 Eu0 2.372 . S
O55 C74 1.257 1_655 S
C56 O45 1.248 . S
C56 O46 1.264 1_566 S
C57 C60 1.382 . S
C57 C62 1.390 . S
C57 C64 1.506 . S
C58 C59 1.398 . S
C58 C62 1.392 . S
C59 C58 1.398 . S
C59 C61 1.372 . S
C59 H76 0.931 . S
C60 C57 1.382 . S
C60 C61 1.390 . S
C60 H77 0.931 . S
C61 C59 1.372 . S
C61 C60 1.390 . S
C61 H78 0.929 . S
C62 C57 1.390 . S
C62 C58 1.392 . S
C62 H79 0.930 1_556 S
C63 O48 1.255 1_545 S
C63 O49 1.257 1_655 S
C64 Eu0 2.787 . S
C64 O44 1.252 . S
C64 O47 1.268 . S
C64 C57 1.506 . S
C65 C32 1.439 . S
C65 H42 0.931 . S
C65 C66 1.374 . S
C66 C37 1.387 . S
C66 H43 0.931 . S
C66 C65 1.374 . S
C67 O51 1.252 . S
C67 O52 1.262 1_544 S
C68 C71 1.382 . S
C68 C72 1.390 . S
C68 C75 1.506 . S
C69 C70 1.398 . S
C69 C72 1.392 . S
C70 C69 1.398 . S
C70 C73 1.372 . S
C70 H80 0.931 . S
C71 C68 1.382 . S
C71 C73 1.390 . S
C71 H81 0.931 . S
C72 C68 1.390 . S
C72 C69 1.392 . S
C72 H82 0.930 1_554 S
C73 C70 1.372 . S
C73 C71 1.390 . S
C73 H83 0.929 . S
C74 O54 1.255 1_565 S
C74 O55 1.257 1_455 S
C75 Eu11 2.787 . S
C75 O50 1.252 . S
C75 O53 1.268 . S
C75 C68 1.506 . S
H76 C59 0.931 . S
H77 C60 0.931 . S
H78 C61 0.929 . S
H79 C62 0.930 1_554 S
H80 C70 0.931 . S
H81 C71 0.931 . S
H82 C72 0.930 1_556 S
H83 C73 0.929 . S
H84 C92 0.950 . S
H85 C97 0.950 . S
H86 C94 0.950 . S
H87 C96 0.950 . S
H88 C98 0.950 . S
H89 C100 0.950 . S
H90 C102 0.950 . S
H91 C103 0.950 . S
C92 H84 0.950 . S
C92 C93 1.390 1_455 S
C92 C94 1.391 . S
C93 C92 1.390 1_655 S
C93 C97 1.381 1_545 S
C94 H86 0.950 . S
C94 C92 1.391 . S
C94 C95 1.407 1_455 S
C95 C94 1.407 1_655 S
C95 C96 1.396 1_545 S
C95 C101 1.484 1_645 S
C96 H87 0.950 . S
C96 C95 1.396 1_565 S
C96 C97 1.391 . S
C97 H85 0.950 . S
C97 C93 1.381 1_565 S
C97 C96 1.391 . S
C98 H88 0.950 . S
C98 C99 1.389 1_655 S
C98 C100 1.391 . S
C99 C98 1.389 1_455 S
C99 C103 1.385 1_565 S
C100 H89 0.950 . S
C100 C98 1.391 . S
C100 C101 1.403 1_655 S
C101 C95 1.484 1_465 S
C101 C100 1.403 1_455 S
C101 C102 1.397 1_565 S
C102 H90 0.950 . S
C102 C101 1.397 1_545 S
C102 C103 1.391 . S
C103 H91 0.950 . S
C103 C99 1.385 1_545 S
C103 C102 1.391 . S
H104 C112 0.950 . S
H105 C117 0.950 . S
H106 C114 0.950 . S
H107 C116 0.950 . S
H108 C118 0.950 . S
H109 C120 0.950 . S
H110 C122 0.950 . S
H111 C123 0.950 . S
C112 H104 0.950 . S
C112 C113 1.386 1_554 S
C112 C114 1.391 . S
C113 C112 1.386 1_556 S
C113 C117 1.393 1_565 S
C114 H106 0.950 . S
C114 C112 1.391 . S
C114 C115 1.409 1_554 S
C115 C114 1.409 1_556 S
C115 C116 1.382 1_565 S
C115 C121 1.508 1_566 S
C116 H107 0.950 . S
C116 C115 1.382 1_545 S
C116 C117 1.391 . S
C117 H105 0.950 . S
C117 C113 1.393 1_545 S
C117 C116 1.391 . S
C118 H108 0.950 . S
C118 C119 1.386 1_556 S
C118 C120 1.391 . S
C119 C118 1.386 1_554 S
C119 C123 1.393 1_545 S
C120 H109 0.950 . S
C120 C118 1.391 . S
C120 C121 1.411 1_556 S
C121 C115 1.508 1_544 S
C121 C120 1.411 1_554 S
C121 C122 1.378 1_545 S
C122 H110 0.950 . S
C122 C121 1.378 1_565 S
C122 C123 1.391 . S
C123 H111 0.950 . S
C123 C119 1.393 1_565 S
C123 C122 1.391 . S
H124 C132 0.950 . S
H125 C137 0.950 . S
H126 C134 0.950 . S
H127 C136 0.950 . S
H128 C138 0.950 . S
H129 C140 0.950 . S
H130 C142 0.950 . S
H131 C143 0.950 . S
C132 H124 0.950 . S
C132 C133 1.386 1_655 S
C132 C134 1.391 . S
C133 C132 1.386 1_455 S
C133 C137 1.393 1_556 S
C134 H126 0.950 . S
C134 C132 1.391 . S
C134 C135 1.391 1_655 S
C135 C134 1.391 1_455 S
C135 C136 1.403 1_556 S
C135 C141 1.498 1_456 S
C136 H127 0.950 . S
C136 C135 1.403 1_554 S
C136 C137 1.391 . S
C137 H125 0.950 . S
C137 C133 1.393 1_554 S
C137 C136 1.391 . S
C138 H128 0.950 . S
C138 C139 1.386 1_455 S
C138 C140 1.391 . S
C139 C138 1.386 1_655 S
C139 C143 1.393 1_554 S
C140 H129 0.950 . S
C140 C138 1.391 . S
C140 C141 1.394 1_455 S
C141 C135 1.498 1_654 S
C141 C140 1.394 1_655 S
C141 C142 1.402 1_554 S
C142 H130 0.950 . S
C142 C141 1.402 1_556 S
C142 C143 1.391 . S
C143 H131 0.950 . S
C143 C139 1.393 1_556 S
C143 C142 1.391 . S
C93 C63 1.482 . S
C99 C74 1.479 . S
C113 C67 1.495 1_566 S
C119 C56 1.498 1_544 S
C133 C58 1.341 1_455 S
C139 C69 1.341 1_655 S
