# Generated by pormake.
# Topology hex, (8)-cn, num edge types: 1
# Building blocks:
#     Node 0, Type 0, BuildingBlock: EYACOX_clean_sbu_0, # of connection points: 8
#     Edge 1, Type (0, 0), None
#     Edge 2, Type (0, 0), None
#     Edge 3, Type (0, 0), None
#     Edge 4, Type (0, 0), None
# Relax obj value: 0.017
# Max RMSD: 0.066
# Mean RMSD: 0.066
data_MOF--net-hex--node1-EYACOX_clean_sbu_0--edge1-none
_symmetry_space_group_name_H-M    P1
_symmetry_Int_Tables_number       1
_symmetry_cell_setting            triclinic
loop_
_symmetry_equiv_pos_as_xyz
'x, y, z'
_cell_length_a     15.929121
_cell_length_b     15.915788
_cell_length_c     7.0351329
_cell_angle_alpha  111.55174
_cell_angle_beta   69.033908
_cell_angle_gamma 153.72678
loop_
_atom_site_label
_atom_site_type_symbol
_atom_site_fract_x
_atom_site_fract_y
_atom_site_fract_z
_atom_type_partial_charge
Eu0 Eu 0.08038 0.89804 0.87575 0.0
Eu1 Eu 0.96759 0.02095 0.06998 0.0
O2 O 0.29411 -0.01966 0.76785 0.0
O3 O 0.99757 0.68234 0.76036 0.0
O4 O 0.98558 0.0015 0.72942 0.0
O5 O 0.05969 0.91442 0.59634 0.0
O6 O 0.75469 0.60976 0.90376 0.0
O7 O 0.67835 0.69384 0.03986 0.0
C8 C 0.20843 0.77031 0.82855 0.0
C9 C 0.27401 0.71161 0.02948 0.0
C10 C 0.0947 0.55238 0.95875 0.0
C11 C 0.06117 0.58664 0.86749 0.0
C12 C 0.43066 0.8883 0.95875 0.0
C13 C 0.39335 0.91861 0.86715 0.0
C14 C 0.17096 0.80623 0.73993 0.0
C15 C 1.02331 0.95871 0.57612 0.0
O16 O 0.75386 0.93864 0.17786 0.0
O17 O 0.05039 0.23664 0.18539 0.0
C18 C 0.6282 0.56357 0.97232 0.0
O19 O 0.98828 0.00456 0.34939 0.0
O20 O 0.06239 0.91749 0.21631 0.0
O21 O 0.29328 0.30923 0.04197 0.0
O22 O 0.36962 0.22515 0.90588 0.0
C23 C 0.83954 0.14867 0.11717 0.0
C24 C 0.61728 0.03068 -0.01296 0.0
C25 C 0.6546 0.0004 0.0787 0.0
C26 C 0.77393 0.20734 0.91623 0.0
C27 C 0.95327 0.36657 -0.01314 0.0
C28 C 0.98681 0.33231 0.0781 0.0
C29 C 0.877 0.11275 0.2058 0.0
C30 C 0.02466 -0.03973 0.36962 0.0
C31 C 0.41977 0.35541 -0.02659 0.0
H32 H 0.28995 0.69992 0.14788 0.0
H33 H 0.92123 0.47545 0.83233 0.0
H34 H 0.5035 0.05731 0.83152 0.0
H35 H 0.54445 0.86172 0.11446 0.0
H36 H 0.75795 0.21899 0.79782 0.0
H37 H 0.12678 0.4435 0.11313 0.0
loop_
_geom_bond_atom_site_label_1
_geom_bond_atom_site_label_2
_geom_bond_distance
_geom_bond_site_symmetry_2
_ccdc_geom_bond_type
Eu0 O2 2.472 1_665 S
Eu0 O3 2.507 . S
Eu0 O5 2.336 . S
Eu0 O6 2.389 . S
Eu0 C14 2.835 1_655 S
Eu0 O20 2.396 1_556 S
Eu0 O22 2.323 1_665 S
Eu1 O4 2.396 1_554 S
Eu1 O7 2.323 1_445 S
Eu1 O16 2.472 1_445 S
Eu1 O17 2.507 . S
Eu1 O19 2.336 . S
Eu1 O21 2.389 . S
Eu1 C29 2.835 1_455 S
O2 Eu0 2.472 1_445 S
O2 C14 1.258 1_545 S
O3 Eu0 2.507 . S
O3 C14 1.246 1_655 S
O4 Eu1 2.396 1_556 S
O4 C15 1.216 1_445 S
O5 Eu0 2.336 . S
O5 C15 1.279 . S
O6 Eu0 2.389 . S
O6 C18 1.239 . S
O7 Eu1 2.323 1_665 S
O7 C18 1.249 1_554 S
C8 C11 1.390 . S
C8 C13 1.370 . S
C8 C14 1.489 . S
C9 C10 1.344 . S
C9 C12 1.413 . S
C9 H32 0.931 . S
C10 C9 1.344 . S
C10 C11 1.423 1_554 S
C11 C8 1.390 . S
C11 C10 1.423 1_556 S
C11 H33 0.930 1_455 S
C12 C9 1.413 . S
C12 C13 1.397 1_554 S
C13 C8 1.370 . S
C13 C12 1.397 1_556 S
C13 H34 0.932 1_565 S
C14 Eu0 2.835 1_455 S
C14 O2 1.258 1_565 S
C14 O3 1.246 1_455 S
C14 C8 1.489 . S
C15 O4 1.216 1_665 S
C15 O5 1.279 . S
O16 Eu1 2.472 1_665 S
O16 C29 1.258 1_565 S
O17 Eu1 2.507 . S
O17 C29 1.246 1_455 S
C18 O6 1.239 . S
C18 O7 1.249 1_556 S
O19 Eu1 2.336 . S
O19 C30 1.279 . S
O20 Eu0 2.396 1_554 S
O20 C30 1.216 1_665 S
O21 Eu1 2.389 . S
O21 C31 1.239 . S
O22 Eu0 2.323 1_445 S
O22 C31 1.249 1_556 S
C23 C25 1.370 . S
C23 C28 1.390 . S
C23 C29 1.489 . S
C24 C25 1.397 1_556 S
C24 C26 1.413 . S
C25 C23 1.370 . S
C25 C24 1.397 1_554 S
C25 H35 0.932 1_545 S
C26 C24 1.413 . S
C26 C27 1.344 . S
C26 H36 0.931 . S
C27 C26 1.344 . S
C27 C28 1.423 1_556 S
C28 C23 1.390 . S
C28 C27 1.423 1_554 S
C28 H37 0.930 1_655 S
C29 Eu1 2.835 1_655 S
C29 O16 1.258 1_545 S
C29 O17 1.246 1_655 S
C29 C23 1.489 . S
C30 O19 1.279 . S
C30 O20 1.216 1_445 S
C31 O21 1.239 . S
C31 O22 1.249 1_554 S
H32 C9 0.931 . S
H33 C11 0.930 1_655 S
H34 C13 0.932 1_545 S
H35 C25 0.932 1_565 S
H36 C26 0.931 . S
H37 C28 0.930 1_455 S
C27 C10 1.627 1_656 S
C24 C12 1.428 1_546 S
C31 C18 1.571 1_554 S
C15 C30 1.508 1_665 S
