# Generated by pormake.
# Topology qtz-x, (6)-cn, num edge types: 1
# Building blocks:
#     Node 0, Type 0, BuildingBlock: MAKGUD_clean_sbu_1, # of connection points: 6
#     Node 1, Type 0, BuildingBlock: MAKGUD_clean_sbu_1, # of connection points: 6
#     Node 2, Type 0, BuildingBlock: MAKGUD_clean_sbu_1, # of connection points: 6
#     Edge 3, Type (0, 0), None
#     Edge 4, Type (0, 0), None
#     Edge 5, Type (0, 0), None
#     Edge 6, Type (0, 0), None
#     Edge 7, Type (0, 0), None
#     Edge 8, Type (0, 0), None
#     Edge 9, Type (0, 0), None
#     Edge 10, Type (0, 0), None
#     Edge 11, Type (0, 0), None
# Relax obj value: 0.085
# Max RMSD: 0.254
# Mean RMSD: 0.235
data_MOF--net-qtz-x--node1-MAKGUD_clean_sbu_1--edge1-none
_symmetry_space_group_name_H-M    P1
_symmetry_Int_Tables_number       1
_symmetry_cell_setting            triclinic
loop_
_symmetry_equiv_pos_as_xyz
'x, y, z'
_cell_length_a     6.6304826
_cell_length_b     6.5888329
_cell_length_c     25.075774
_cell_angle_alpha  97.71063
_cell_angle_beta   93.939904
_cell_angle_gamma 127.2986
loop_
_atom_site_label
_atom_site_type_symbol
_atom_site_fract_x
_atom_site_fract_y
_atom_site_fract_z
_atom_type_partial_charge
O0 O 1.02388 0.32447 0.11873 0.0
Tb1 Tb 0.13748 0.50689 0.20625 0.0
C2 C 0.07519 0.89319 0.27088 0.0
O3 O 0.93369 0.14902 0.29995 0.0
Tb4 Tb 1.06899 0.53915 0.33962 0.0
C5 C 0.56067 0.89379 0.38683 0.0
O6 O 0.24691 0.30841 0.2482 0.0
O7 O 0.97706 0.56504 0.42066 0.0
C8 C 0.10402 0.55529 0.46198 0.0
O9 O 0.20751 0.43895 0.4527 0.0
O10 O 0.2348 0.88045 0.24508 0.0
O11 O 0.92561 0.7127 0.29796 0.0
O12 O 0.72574 0.28871 0.2034 0.0
C13 C 0.08264 1.12348 0.27271 0.0
C14 C 0.22659 0.51335 1.10312 0.0
O15 O 0.43623 0.64376 0.37686 0.0
O16 O 0.43245 0.93206 0.35422 0.0
C17 C 0.5725 0.27723 0.16463 0.0
O18 O 0.32201 1.1048 0.16001 0.0
O19 O 0.38367 0.69724 0.14645 0.0
O20 O 0.57217 0.18048 0.46132 0.0
Tb21 Tb 0.70545 0.2536 0.54877 0.0
C22 C 1.02177 0.12747 0.61351 0.0
O23 O 0.26871 0.98828 0.64211 0.0
Tb24 Tb 0.63606 1.09408 0.67911 0.0
C25 C 0.60278 1.01316 0.78029 0.0
O26 O 0.41037 0.264 0.58163 0.0
O27 O 0.84788 0.50957 0.68455 0.0
C28 C 0.8809 0.6717 0.72779 0.0
O29 O 1.03316 0.92315 0.72945 0.0
O30 O 1.03443 0.31357 0.59606 0.0
O31 O 0.82714 0.96354 0.63614 0.0
O32 O 0.95966 0.64438 0.53869 0.0
C33 C 0.24546 0.1277 0.61312 0.0
C34 C 0.62364 1.02399 0.44447 0.0
O35 O 0.42139 0.85768 0.73737 0.0
O36 O 0.80876 0.20251 0.76566 0.0
C37 C 0.15637 0.69839 0.51757 0.0
O38 O 0.35628 0.76375 0.55151 0.0
O39 O 0.69405 0.97152 0.48685 0.0
O40 O 0.77873 0.65901 0.12307 0.0
Tb41 Tb 0.6995 0.61879 1.03416 0.0
C42 C 0.26369 0.14908 0.93572 0.0
O43 O 0.7995 0.75738 0.93747 0.0
Tb44 Tb 0.52973 0.54557 0.85988 0.0
C45 C 0.76193 0.58705 0.77543 0.0
O46 O 0.07287 0.94237 1.01367 0.0
O47 O 0.39643 0.76328 0.84603 0.0
C48 C 0.57337 0.99461 0.83712 0.0
O49 O 0.77989 0.16348 0.87542 0.0
O50 O 0.50892 0.29587 0.96101 0.0
O51 O 0.22307 0.18199 0.88609 0.0
O52 O 0.41397 0.67526 1.02323 0.0
C53 C 1.04224 0.94862 0.96172 0.0
C54 C 0.66569 0.41173 0.12007 0.0
O55 O 0.87655 0.72698 0.82495 0.0
O56 O 0.51599 0.40903 0.77396 0.0
C57 C 0.21581 0.56359 1.04803 0.0
O58 O 1.0002 0.5018 1.02302 0.0
O59 O 0.57641 0.28589 1.06931 0.0
loop_
_geom_bond_atom_site_label_1
_geom_bond_atom_site_label_2
_geom_bond_distance
_geom_bond_site_symmetry_2
_ccdc_geom_bond_type
O0 Tb1 2.506 1_556 S
O0 C14 1.265 . S
Tb1 O0 2.506 1_554 S
Tb1 O6 2.312 . S
Tb1 O10 2.271 . S
Tb1 O12 2.338 1_455 S
Tb1 O19 2.441 . S
C2 O10 1.252 . S
C2 O11 1.253 . S
O3 Tb4 2.271 . S
O3 C13 1.252 . S
Tb4 O3 2.271 . S
Tb4 O7 2.338 1_455 S
Tb4 O11 2.312 . S
Tb4 O15 2.441 . S
Tb4 O16 2.506 . S
C5 O15 1.244 . S
C5 O16 1.265 . S
O6 Tb1 2.312 . S
O6 C13 1.253 . S
O7 Tb4 2.338 1_655 S
O7 C8 1.258 1_545 S
C8 O7 1.258 1_565 S
C8 O9 1.251 . S
O9 C8 1.251 . S
O10 Tb1 2.271 . S
O10 C2 1.252 . S
O11 C2 1.253 . S
O11 Tb4 2.312 . S
O12 Tb1 2.338 1_655 S
O12 C17 1.258 . S
C13 O3 1.252 . S
C13 O6 1.253 . S
C14 O0 1.265 . S
C14 O19 1.244 1_556 S
O15 Tb4 2.441 . S
O15 C5 1.244 . S
O16 Tb4 2.506 . S
O16 C5 1.265 . S
C17 O12 1.258 . S
C17 O18 1.251 . S
O18 C17 1.251 . S
O19 Tb1 2.441 . S
O19 C14 1.244 1_554 S
O20 Tb21 2.506 . S
O20 C34 1.265 . S
Tb21 O20 2.506 . S
Tb21 O26 2.312 . S
Tb21 O30 2.271 . S
Tb21 O32 2.338 1_565 S
Tb21 O39 2.441 . S
C22 O30 1.252 1_455 S
C22 O31 1.253 . S
O23 Tb24 2.271 . S
O23 C33 1.252 1_545 S
Tb24 O23 2.271 . S
Tb24 O27 2.338 . S
Tb24 O31 2.312 1_645 S
Tb24 O35 2.441 1_545 S
Tb24 O36 2.506 1_545 S
C25 O35 1.244 . S
C25 O36 1.265 . S
O26 Tb21 2.312 . S
O26 C33 1.253 . S
O27 Tb24 2.338 . S
O27 C28 1.258 . S
C28 O27 1.258 . S
C28 O29 1.251 . S
O29 C28 1.251 . S
O30 Tb21 2.271 . S
O30 C22 1.252 1_655 S
O31 C22 1.253 . S
O31 Tb24 2.312 1_465 S
O32 Tb21 2.338 1_545 S
O32 C37 1.258 1_655 S
C33 O23 1.252 1_565 S
C33 O26 1.253 . S
C34 O20 1.265 . S
C34 O39 1.244 . S
O35 Tb24 2.441 1_565 S
O35 C25 1.244 . S
O36 Tb24 2.506 1_565 S
O36 C25 1.265 . S
C37 O32 1.258 1_455 S
C37 O38 1.251 . S
O38 C37 1.251 . S
O39 Tb21 2.441 . S
O39 C34 1.244 . S
O40 Tb41 2.506 1_554 S
O40 C54 1.265 . S
Tb41 O40 2.506 1_556 S
Tb41 O46 2.312 . S
Tb41 O50 2.271 . S
Tb41 O52 2.338 . S
Tb41 O59 2.441 . S
C42 O50 1.252 . S
C42 O51 1.253 . S
O43 Tb44 2.271 . S
O43 C53 1.252 . S
Tb44 O43 2.271 . S
Tb44 O47 2.338 . S
Tb44 O51 2.312 . S
Tb44 O55 2.441 . S
Tb44 O56 2.506 . S
C45 O55 1.244 . S
C45 O56 1.265 . S
O46 Tb41 2.312 . S
O46 C53 1.253 . S
O47 Tb44 2.338 . S
O47 C48 1.258 . S
C48 O47 1.258 . S
C48 O49 1.251 1_565 S
O49 C48 1.251 1_545 S
O50 Tb41 2.271 . S
O50 C42 1.252 . S
O51 C42 1.253 . S
O51 Tb44 2.312 . S
O52 Tb41 2.338 . S
O52 C57 1.258 . S
C53 O43 1.252 . S
C53 O46 1.253 . S
C54 O40 1.265 . S
C54 O59 1.244 1_554 S
O55 Tb44 2.441 . S
O55 C45 1.244 . S
O56 Tb44 2.506 . S
O56 C45 1.265 . S
C57 O52 1.258 . S
C57 O58 1.251 1_455 S
O58 C57 1.251 1_655 S
O59 Tb41 2.441 . S
O59 C54 1.244 1_556 S
C2 C13 2.098 1_565 S
C33 C22 2.098 . S
C53 C42 1.849 1_665 S
C57 C14 2.476 . S
C37 C8 4.047 1_445 S
C48 C25 2.476 . S
C54 C17 1.930 . S
C5 C34 1.019 . S
C45 C28 1.930 . S
