# Generated by pormake.
# Topology wje, (4)-cn, num edge types: 1
# Building blocks:
#     Node 0, Type 0, BuildingBlock: CEKHIL_clean_sbu_0, # of connection points: 4
#     Node 1, Type 0, BuildingBlock: CEKHIL_clean_sbu_0, # of connection points: 4
#     Node 2, Type 0, BuildingBlock: CEKHIL_clean_sbu_0, # of connection points: 4
#     Node 3, Type 0, BuildingBlock: CEKHIL_clean_sbu_0, # of connection points: 4
#     Node 4, Type 0, BuildingBlock: CEKHIL_clean_sbu_0, # of connection points: 4
#     Node 5, Type 0, BuildingBlock: CEKHIL_clean_sbu_0, # of connection points: 4
#     Node 6, Type 0, BuildingBlock: CEKHIL_clean_sbu_0, # of connection points: 4
#     Node 7, Type 0, BuildingBlock: CEKHIL_clean_sbu_0, # of connection points: 4
#     Node 8, Type 0, BuildingBlock: CEKHIL_clean_sbu_0, # of connection points: 4
#     Node 9, Type 0, BuildingBlock: CEKHIL_clean_sbu_0, # of connection points: 4
#     Node 10, Type 0, BuildingBlock: CEKHIL_clean_sbu_0, # of connection points: 4
#     Node 11, Type 0, BuildingBlock: CEKHIL_clean_sbu_0, # of connection points: 4
#     Edge 12, Type (0, 0), None
#     Edge 13, Type (0, 0), None
#     Edge 14, Type (0, 0), None
#     Edge 15, Type (0, 0), None
#     Edge 16, Type (0, 0), None
#     Edge 17, Type (0, 0), None
#     Edge 18, Type (0, 0), None
#     Edge 19, Type (0, 0), None
#     Edge 20, Type (0, 0), None
#     Edge 21, Type (0, 0), None
#     Edge 22, Type (0, 0), None
#     Edge 23, Type (0, 0), None
#     Edge 24, Type (0, 0), None
#     Edge 25, Type (0, 0), None
#     Edge 26, Type (0, 0), None
#     Edge 27, Type (0, 0), None
#     Edge 28, Type (0, 0), None
#     Edge 29, Type (0, 0), None
#     Edge 30, Type (0, 0), None
#     Edge 31, Type (0, 0), None
#     Edge 32, Type (0, 0), None
#     Edge 33, Type (0, 0), None
#     Edge 34, Type (0, 0), None
#     Edge 35, Type (0, 0), None
# Relax obj value: 0.144
# Max RMSD: 0.098
# Mean RMSD: 0.098
data_MOF--net-wje--node1-CEKHIL_clean_sbu_0--edge1-none
_symmetry_space_group_name_H-M    P1
_symmetry_Int_Tables_number       1
_symmetry_cell_setting            triclinic
loop_
_symmetry_equiv_pos_as_xyz
'x, y, z'
_cell_length_a     17.196543
_cell_length_b     17.230885
_cell_length_c     17.420351
_cell_angle_alpha  89.999992
_cell_angle_beta   90.000004
_cell_angle_gamma 120.20469
loop_
_atom_site_label
_atom_site_type_symbol
_atom_site_fract_x
_atom_site_fract_y
_atom_site_fract_z
_atom_type_partial_charge
Co0 Co 0.30771 0.03251 0.30055 0.0
O1 O 0.29392 0.04893 0.19218 0.0
O2 O 0.35204 0.15841 0.27788 0.0
C3 C 0.16989 0.91548 0.32434 0.0
O4 O 0.33037 0.04168 0.41594 0.0
Co5 Co 0.29284 0.85377 0.36087 0.0
O6 O 0.28774 0.90381 0.46273 0.0
C7 C 0.45805 0.98724 0.28322 0.0
C8 C 0.32748 0.13364 0.20734 0.0
C9 C 0.31371 0.98676 0.4721 0.0
O10 O 0.42999 0.04432 0.2826 0.0
O11 O 0.40879 0.90489 0.30274 0.0
O12 O 0.18092 0.99571 0.32089 0.0
O13 O 0.2375 0.90819 0.30285 0.0
Co14 Co 0.27925 0.30485 0.63434 0.0
O15 O 0.24931 0.29156 0.52589 0.0
O16 O 0.19744 0.34876 0.61176 0.0
C17 C 0.25865 0.16745 0.65784 0.0
O18 O 0.29249 0.32715 0.74975 0.0
Co19 Co 0.44394 0.29104 0.6947 0.0
O20 O 0.38867 0.28585 0.79659 0.0
C21 C 0.47538 0.45581 0.61748 0.0
C22 C 0.19815 0.325 0.54108 0.0
C23 C 0.33122 0.31117 0.80593 0.0
O24 O 0.38987 0.42723 0.61677 0.0
O25 O 0.50885 0.4071 0.63694 0.0
O26 O 0.18906 0.178 0.65432 0.0
O27 O 0.33382 0.2353 0.63656 0.0
Co28 Co 0.97855 0.27741 0.96771 0.0
O29 O 0.96244 0.24764 0.85928 0.0
O30 O 0.85239 0.19552 0.94466 0.0
C31 C 0.09524 0.25663 0.99164 0.0
O32 O 0.96934 0.29069 0.08313 0.0
Co33 Co 0.1579 0.442 0.02789 0.0
O34 O 0.10765 0.38671 0.12976 0.0
C35 C 0.02416 0.47327 0.95101 0.0
C36 C 0.87746 0.19619 0.87415 0.0
C37 C 0.02448 0.32937 0.13923 0.0
O38 O 0.96707 0.38783 0.94998 0.0
O39 O 0.10662 0.50689 0.97069 0.0
O40 O 0.01465 0.18727 0.98794 0.0
O41 O 0.10309 0.33173 0.97022 0.0
Co42 Co 0.70587 0.9765 0.30055 0.0
O43 O 0.71966 0.96008 0.19218 0.0
O44 O 0.66154 0.85059 0.27788 0.0
C45 C 0.84369 0.09353 0.32434 0.0
O46 O 0.68321 0.96733 0.41594 0.0
Co47 Co 0.72075 0.15524 0.36086 0.0
O48 O 0.72584 0.1052 0.46273 0.0
C49 C 0.55558 0.02181 0.28316 0.0
C50 C 0.6861 0.87536 0.20734 0.0
C51 C 0.69986 0.02225 0.4721 0.0
O52 O 0.5836 0.9647 0.28261 0.0
O53 O 0.60482 0.10415 0.3027 0.0
O54 O 0.83266 0.01329 0.32089 0.0
O55 O 0.77608 0.10081 0.30285 0.0
Co56 Co 0.73434 0.70416 0.63434 0.0
O57 O 0.76427 0.71746 0.52589 0.0
O58 O 0.81614 0.66025 0.61176 0.0
C59 C 0.75494 0.84157 0.65785 0.0
O60 O 0.7211 0.68186 0.74975 0.0
Co61 Co 0.56964 0.71798 0.6947 0.0
O62 O 0.6249 0.72316 0.79659 0.0
C63 C 0.53821 0.55324 0.61742 0.0
C64 C 0.81543 0.68401 0.54107 0.0
C65 C 0.68236 0.69784 0.80592 0.0
O66 O 0.62372 0.58178 0.61677 0.0
O67 O 0.50474 0.60194 0.6369 0.0
O68 O 0.82453 0.83102 0.65432 0.0
O69 O 0.67977 0.77372 0.63656 0.0
Co70 Co 0.03503 0.73161 0.96771 0.0
O71 O 0.05114 0.76138 0.85928 0.0
O72 O 0.16119 0.81349 0.94466 0.0
C73 C 0.91834 0.75239 0.99163 0.0
O74 O 0.04424 0.71833 0.08312 0.0
Co75 Co 0.85567 0.56702 0.02789 0.0
O76 O 0.90593 0.62229 0.12976 0.0
C77 C 0.98938 0.53575 0.95094 0.0
C78 C 0.13612 0.81282 0.87415 0.0
C79 C 0.9891 0.67964 0.13922 0.0
O80 O 0.0465 0.62118 0.94998 0.0
O81 O 0.90693 0.50212 0.97065 0.0
O82 O 0.99893 0.82174 0.98793 0.0
O83 O 0.91049 0.67729 0.97021 0.0
Co84 Co 0.9786 0.70325 0.38935 0.0
O85 O 0.96246 0.71713 0.49773 0.0
O86 O 0.85247 0.65882 0.41229 0.0
C87 C 0.09546 0.84095 0.36534 0.0
O88 O 0.96936 0.68058 0.27396 0.0
Co89 Co 0.15781 0.71839 0.32914 0.0
O90 O 0.10764 0.72342 0.22728 0.0
C91 C 0.02413 0.55318 0.40644 0.0
C92 C 0.87753 0.68355 0.48277 0.0
C93 C 0.0245 0.69734 0.21784 0.0
O94 O 0.96699 0.58126 0.40729 0.0
O95 O 0.1066 0.60234 0.3868 0.0
O96 O 0.01497 0.82965 0.36896 0.0
O97 O 0.10313 0.77368 0.38688 0.0
Co98 Co 0.2794 0.97642 0.72222 0.0
O99 O 0.24966 0.96007 0.83069 0.0
O100 O 0.19747 0.85046 0.74509 0.0
C101 C 0.25875 0.09305 0.69848 0.0
O102 O 0.29259 0.96729 0.6068 0.0
Co103 Co 0.44431 0.15542 0.66197 0.0
O104 O 0.38899 0.10521 0.56008 0.0
C105 C 0.47552 0.02185 0.73883 0.0
C106 C 0.1983 0.87525 0.8157 0.0
C107 C 0.33144 0.02223 0.55067 0.0
O108 O 0.38994 0.96487 0.73979 0.0
O109 O 0.50923 0.10417 0.71924 0.0
O110 O 0.18918 0.01264 0.70218 0.0
O111 O 0.33396 0.10076 0.71982 0.0
Co112 Co 0.30724 0.27711 0.05604 0.0
O113 O 0.29374 0.24694 0.16444 0.0
O114 O 0.35131 0.19549 0.07852 0.0
C115 C 0.16961 0.25645 0.03245 0.0
O116 O 0.32972 0.2905 0.94064 0.0
Co117 Co 0.29307 0.44131 0.99564 0.0
O118 O 0.28787 0.38612 0.89377 0.0
C119 C 0.45804 0.47299 0.07327 0.0
C120 C 0.32722 0.19587 0.14916 0.0
C121 C 0.31344 0.32893 0.88445 0.0
O122 O 0.42972 0.3877 0.0738 0.0
O123 O 0.40901 0.50617 0.05384 0.0
O124 O 0.18023 0.18702 0.0359 0.0
O125 O 0.23748 0.33146 0.05385 0.0
Co126 Co 0.03498 0.30575 0.38936 0.0
O127 O 0.05113 0.29188 0.49774 0.0
O128 O 0.16112 0.35019 0.41229 0.0
C129 C 0.91812 0.16805 0.36535 0.0
O130 O 0.04422 0.32843 0.27396 0.0
Co131 Co 0.85577 0.29061 0.32915 0.0
O132 O 0.90593 0.28559 0.22729 0.0
C133 C 0.98942 0.45578 0.4065 0.0
C134 C 0.13605 0.32545 0.48277 0.0
C135 C 0.98908 0.31166 0.21784 0.0
O136 O 0.04658 0.42774 0.40729 0.0
O137 O 0.90695 0.40664 0.38684 0.0
O138 O 0.99861 0.17935 0.36896 0.0
O139 O 0.91046 0.23532 0.38689 0.0
Co140 Co 0.73419 0.03259 0.72222 0.0
O141 O 0.76393 0.04894 0.83069 0.0
O142 O 0.81611 0.15855 0.74509 0.0
C143 C 0.75484 0.91597 0.69848 0.0
O144 O 0.72099 0.04172 0.6068 0.0
Co145 Co 0.56927 0.85359 0.66197 0.0
O146 O 0.62459 0.9038 0.56008 0.0
C147 C 0.53807 0.98712 0.73889 0.0
C148 C 0.81528 0.13377 0.8157 0.0
C149 C 0.68214 0.98678 0.55067 0.0
O150 O 0.62365 0.04414 0.73979 0.0
O151 O 0.50435 0.90481 0.71928 0.0
O152 O 0.82441 0.99637 0.70218 0.0
O153 O 0.67963 0.90825 0.71982 0.0
Co154 Co 0.70634 0.7319 0.05604 0.0
O155 O 0.71984 0.76207 0.16444 0.0
O156 O 0.66227 0.81352 0.07852 0.0
C157 C 0.84397 0.75256 0.03244 0.0
O158 O 0.68386 0.71851 0.94064 0.0
Co159 Co 0.72052 0.5677 0.99564 0.0
O160 O 0.7257 0.62288 0.89377 0.0
C161 C 0.55559 0.53602 0.07333 0.0
C162 C 0.68636 0.81314 0.14916 0.0
C163 C 0.70013 0.68008 0.88445 0.0
O164 O 0.58387 0.62131 0.0738 0.0
O165 O 0.6046 0.50284 0.05388 0.0
O166 O 0.83336 0.82199 0.0359 0.0
O167 O 0.7761 0.67755 0.05385 0.0
loop_
_geom_bond_atom_site_label_1
_geom_bond_atom_site_label_2
_geom_bond_distance
_geom_bond_site_symmetry_2
_ccdc_geom_bond_type
Co0 O1 2.216 . S
Co0 O2 2.091 . S
Co0 O4 2.004 . S
Co0 O10 2.021 . S
Co0 O12 2.137 1_545 S
Co0 O13 2.244 1_545 S
O1 Co0 2.216 . S
O1 C8 1.247 . S
O2 Co0 2.091 . S
O2 C8 1.261 . S
C3 O12 1.247 . S
C3 O13 1.272 . S
O4 Co0 2.004 . S
O4 C9 1.259 . S
Co5 O6 2.061 . S
Co5 O11 2.052 . S
Co5 O13 2.135 . S
O6 Co5 2.061 . S
O6 C9 1.235 1_565 S
C7 O10 1.238 . S
C7 O11 1.241 1_545 S
C8 O1 1.247 . S
C8 O2 1.261 . S
C9 O4 1.259 . S
C9 O6 1.235 1_545 S
O10 Co0 2.021 . S
O10 C7 1.238 . S
O11 Co5 2.052 . S
O11 C7 1.241 1_565 S
O12 Co0 2.137 1_565 S
O12 C3 1.247 . S
O13 Co0 2.244 1_565 S
O13 C3 1.272 . S
O13 Co5 2.135 . S
Co14 O15 2.216 . S
Co14 O16 2.091 . S
Co14 O18 2.004 . S
Co14 O24 2.021 . S
Co14 O26 2.137 . S
Co14 O27 2.244 . S
O15 Co14 2.216 . S
O15 C22 1.247 . S
O16 Co14 2.091 . S
O16 C22 1.261 . S
C17 O26 1.247 . S
C17 O27 1.272 . S
O18 Co14 2.004 . S
O18 C23 1.259 . S
Co19 O20 2.061 . S
Co19 O25 2.052 . S
Co19 O27 2.135 . S
O20 Co19 2.061 . S
O20 C23 1.235 . S
C21 O24 1.238 . S
C21 O25 1.241 . S
C22 O15 1.247 . S
C22 O16 1.261 . S
C23 O18 1.259 . S
C23 O20 1.235 . S
O24 Co14 2.021 . S
O24 C21 1.238 . S
O25 Co19 2.052 . S
O25 C21 1.241 . S
O26 Co14 2.137 . S
O26 C17 1.247 . S
O27 Co14 2.244 . S
O27 C17 1.272 . S
O27 Co19 2.135 . S
Co28 O29 2.216 . S
Co28 O30 2.091 . S
Co28 O32 2.004 1_556 S
Co28 O38 2.021 . S
Co28 O40 2.137 1_655 S
Co28 O41 2.244 1_655 S
O29 Co28 2.216 . S
O29 C36 1.247 . S
O30 Co28 2.091 . S
O30 C36 1.261 . S
C31 O40 1.247 . S
C31 O41 1.272 . S
O32 Co28 2.004 1_554 S
O32 C37 1.259 . S
Co33 O34 2.061 . S
Co33 O39 2.052 1_554 S
Co33 O41 2.135 1_554 S
O34 Co33 2.061 . S
O34 C37 1.235 1_455 S
C35 O38 1.238 . S
C35 O39 1.241 1_655 S
C36 O29 1.247 . S
C36 O30 1.261 . S
C37 O32 1.259 . S
C37 O34 1.235 1_655 S
O38 Co28 2.021 . S
O38 C35 1.238 . S
O39 Co33 2.052 1_556 S
O39 C35 1.241 1_455 S
O40 Co28 2.137 1_455 S
O40 C31 1.247 . S
O41 Co28 2.244 1_455 S
O41 C31 1.272 . S
O41 Co33 2.135 1_556 S
Co42 O43 2.216 . S
Co42 O44 2.091 . S
Co42 O46 2.004 . S
Co42 O52 2.021 . S
Co42 O54 2.137 1_565 S
Co42 O55 2.244 1_565 S
O43 Co42 2.216 . S
O43 C50 1.247 . S
O44 Co42 2.091 . S
O44 C50 1.261 . S
C45 O54 1.247 . S
C45 O55 1.272 . S
O46 Co42 2.004 . S
O46 C51 1.259 . S
Co47 O48 2.061 . S
Co47 O53 2.052 . S
Co47 O55 2.135 . S
O48 Co47 2.061 . S
O48 C51 1.235 1_545 S
C49 O52 1.238 . S
C49 O53 1.241 1_565 S
C50 O43 1.247 . S
C50 O44 1.261 . S
C51 O46 1.259 . S
C51 O48 1.235 1_565 S
O52 Co42 2.021 . S
O52 C49 1.238 . S
O53 Co47 2.052 . S
O53 C49 1.241 1_545 S
O54 Co42 2.137 1_545 S
O54 C45 1.247 . S
O55 Co42 2.244 1_545 S
O55 C45 1.272 . S
O55 Co47 2.135 . S
Co56 O57 2.216 . S
Co56 O58 2.091 . S
Co56 O60 2.004 . S
Co56 O66 2.021 . S
Co56 O68 2.137 . S
Co56 O69 2.244 . S
O57 Co56 2.216 . S
O57 C64 1.247 . S
O58 Co56 2.091 . S
O58 C64 1.261 . S
C59 O68 1.247 . S
C59 O69 1.272 . S
O60 Co56 2.004 . S
O60 C65 1.259 . S
Co61 O62 2.061 . S
Co61 O67 2.052 . S
Co61 O69 2.135 . S
O62 Co61 2.061 . S
O62 C65 1.235 . S
C63 O66 1.238 . S
C63 O67 1.241 . S
C64 O57 1.247 . S
C64 O58 1.261 . S
C65 O60 1.259 . S
C65 O62 1.235 . S
O66 Co56 2.021 . S
O66 C63 1.238 . S
O67 Co61 2.052 . S
O67 C63 1.241 . S
O68 Co56 2.137 . S
O68 C59 1.247 . S
O69 Co56 2.244 . S
O69 C59 1.272 . S
O69 Co61 2.135 . S
Co70 O71 2.216 . S
Co70 O72 2.091 . S
Co70 O74 2.004 1_556 S
Co70 O80 2.021 . S
Co70 O82 2.137 1_455 S
Co70 O83 2.244 1_455 S
O71 Co70 2.216 . S
O71 C78 1.247 . S
O72 Co70 2.091 . S
O72 C78 1.261 . S
C73 O82 1.247 . S
C73 O83 1.272 . S
O74 Co70 2.004 1_554 S
O74 C79 1.259 . S
Co75 O76 2.061 . S
Co75 O81 2.052 1_554 S
Co75 O83 2.135 1_554 S
O76 Co75 2.061 . S
O76 C79 1.235 1_655 S
C77 O80 1.238 . S
C77 O81 1.241 1_455 S
C78 O71 1.247 . S
C78 O72 1.261 . S
C79 O74 1.259 . S
C79 O76 1.235 1_455 S
O80 Co70 2.021 . S
O80 C77 1.238 . S
O81 Co75 2.052 1_556 S
O81 C77 1.241 1_655 S
O82 Co70 2.137 1_655 S
O82 C73 1.247 . S
O83 Co70 2.244 1_655 S
O83 C73 1.272 . S
O83 Co75 2.135 1_556 S
Co84 O85 2.216 . S
Co84 O86 2.091 . S
Co84 O88 2.004 . S
Co84 O94 2.021 . S
Co84 O96 2.137 1_655 S
Co84 O97 2.244 1_655 S
O85 Co84 2.216 . S
O85 C92 1.247 . S
O86 Co84 2.091 . S
O86 C92 1.261 . S
C87 O96 1.247 . S
C87 O97 1.272 . S
O88 Co84 2.004 . S
O88 C93 1.259 . S
Co89 O90 2.061 . S
Co89 O95 2.052 . S
Co89 O97 2.135 . S
O90 Co89 2.061 . S
O90 C93 1.235 1_455 S
C91 O94 1.238 . S
C91 O95 1.241 1_655 S
C92 O85 1.247 . S
C92 O86 1.261 . S
C93 O88 1.259 . S
C93 O90 1.235 1_655 S
O94 Co84 2.021 . S
O94 C91 1.238 . S
O95 Co89 2.052 . S
O95 C91 1.241 1_455 S
O96 Co84 2.137 1_455 S
O96 C87 1.247 . S
O97 Co84 2.244 1_455 S
O97 C87 1.272 . S
O97 Co89 2.135 . S
Co98 O99 2.216 . S
Co98 O100 2.091 . S
Co98 O102 2.004 . S
Co98 O108 2.021 . S
Co98 O110 2.137 1_565 S
Co98 O111 2.244 1_565 S
O99 Co98 2.216 . S
O99 C106 1.247 . S
O100 Co98 2.091 . S
O100 C106 1.261 . S
C101 O110 1.247 . S
C101 O111 1.272 . S
O102 Co98 2.004 . S
O102 C107 1.259 . S
Co103 O104 2.061 . S
Co103 O109 2.052 . S
Co103 O111 2.135 . S
O104 Co103 2.061 . S
O104 C107 1.235 1_545 S
C105 O108 1.238 . S
C105 O109 1.241 1_565 S
C106 O99 1.247 . S
C106 O100 1.261 . S
C107 O102 1.259 . S
C107 O104 1.235 1_565 S
O108 Co98 2.021 . S
O108 C105 1.238 . S
O109 Co103 2.052 . S
O109 C105 1.241 1_545 S
O110 Co98 2.137 1_545 S
O110 C101 1.247 . S
O111 Co98 2.244 1_545 S
O111 C101 1.272 . S
O111 Co103 2.135 . S
Co112 O113 2.216 . S
Co112 O114 2.091 . S
Co112 O116 2.004 1_554 S
Co112 O122 2.021 . S
Co112 O124 2.137 . S
Co112 O125 2.244 . S
O113 Co112 2.216 . S
O113 C120 1.247 . S
O114 Co112 2.091 . S
O114 C120 1.261 . S
C115 O124 1.247 . S
C115 O125 1.272 . S
O116 Co112 2.004 1_556 S
O116 C121 1.259 . S
Co117 O118 2.061 . S
Co117 O123 2.052 1_556 S
Co117 O125 2.135 1_556 S
O118 Co117 2.061 . S
O118 C121 1.235 . S
C119 O122 1.238 . S
C119 O123 1.241 . S
C120 O113 1.247 . S
C120 O114 1.261 . S
C121 O116 1.259 . S
C121 O118 1.235 . S
O122 Co112 2.021 . S
O122 C119 1.238 . S
O123 Co117 2.052 1_554 S
O123 C119 1.241 . S
O124 Co112 2.137 . S
O124 C115 1.247 . S
O125 Co112 2.244 . S
O125 C115 1.272 . S
O125 Co117 2.135 1_554 S
Co126 O127 2.216 . S
Co126 O128 2.091 . S
Co126 O130 2.004 . S
Co126 O136 2.021 . S
Co126 O138 2.137 1_455 S
Co126 O139 2.244 1_455 S
O127 Co126 2.216 . S
O127 C134 1.247 . S
O128 Co126 2.091 . S
O128 C134 1.261 . S
C129 O138 1.247 . S
C129 O139 1.272 . S
O130 Co126 2.004 . S
O130 C135 1.259 . S
Co131 O132 2.061 . S
Co131 O137 2.052 . S
Co131 O139 2.135 . S
O132 Co131 2.061 . S
O132 C135 1.235 1_655 S
C133 O136 1.238 . S
C133 O137 1.241 1_455 S
C134 O127 1.247 . S
C134 O128 1.261 . S
C135 O130 1.259 . S
C135 O132 1.235 1_455 S
O136 Co126 2.021 . S
O136 C133 1.238 . S
O137 Co131 2.052 . S
O137 C133 1.241 1_655 S
O138 Co126 2.137 1_655 S
O138 C129 1.247 . S
O139 Co126 2.244 1_655 S
O139 C129 1.272 . S
O139 Co131 2.135 . S
Co140 O141 2.216 . S
Co140 O142 2.091 . S
Co140 O144 2.004 . S
Co140 O150 2.021 . S
Co140 O152 2.137 1_545 S
Co140 O153 2.244 1_545 S
O141 Co140 2.216 . S
O141 C148 1.247 . S
O142 Co140 2.091 . S
O142 C148 1.261 . S
C143 O152 1.247 . S
C143 O153 1.272 . S
O144 Co140 2.004 . S
O144 C149 1.259 . S
Co145 O146 2.061 . S
Co145 O151 2.052 . S
Co145 O153 2.135 . S
O146 Co145 2.061 . S
O146 C149 1.235 1_565 S
C147 O150 1.238 . S
C147 O151 1.241 1_545 S
C148 O141 1.247 . S
C148 O142 1.261 . S
C149 O144 1.259 . S
C149 O146 1.235 1_545 S
O150 Co140 2.021 . S
O150 C147 1.238 . S
O151 Co145 2.052 . S
O151 C147 1.241 1_565 S
O152 Co140 2.137 1_565 S
O152 C143 1.247 . S
O153 Co140 2.244 1_565 S
O153 C143 1.272 . S
O153 Co145 2.135 . S
Co154 O155 2.216 . S
Co154 O156 2.091 . S
Co154 O158 2.004 1_554 S
Co154 O164 2.021 . S
Co154 O166 2.137 . S
Co154 O167 2.244 . S
O155 Co154 2.216 . S
O155 C162 1.247 . S
O156 Co154 2.091 . S
O156 C162 1.261 . S
C157 O166 1.247 . S
C157 O167 1.272 . S
O158 Co154 2.004 1_556 S
O158 C163 1.259 . S
Co159 O160 2.061 . S
Co159 O165 2.052 1_556 S
Co159 O167 2.135 1_556 S
O160 Co159 2.061 . S
O160 C163 1.235 . S
C161 O164 1.238 . S
C161 O165 1.241 . S
C162 O155 1.247 . S
C162 O156 1.261 . S
C163 O158 1.259 . S
C163 O160 1.235 . S
O164 Co154 2.021 . S
O164 C161 1.238 . S
O165 Co159 2.052 1_554 S
O165 C161 1.241 . S
O166 Co154 2.137 . S
O166 C157 1.247 . S
O167 Co154 2.244 . S
O167 C157 1.272 . S
O167 Co159 2.135 1_554 S
C8 C120 1.726 . S
C22 C134 1.726 . S
C148 C36 1.726 . S
C162 C50 1.726 . S
C92 C64 1.727 . S
C106 C78 1.726 . S
C7 C49 1.401 1_545 S
C63 C21 1.401 . S
C77 C35 1.400 1_455 S
C91 C133 1.401 1_655 S
C147 C105 1.401 1_545 S
C119 C161 1.401 . S
C87 C3 1.363 . S
C17 C101 1.362 . S
C115 C31 1.363 1_554 S
C129 C45 1.363 . S
C59 C143 1.362 . S
C157 C73 1.363 1_554 S
C9 C107 1.068 1_545 S
C121 C23 1.067 . S
C135 C37 1.067 1_455 S
C51 C149 1.067 1_565 S
C163 C65 1.067 . S
C93 C79 1.067 1_655 S
