# Generated by pormake.
# Topology acs, (6)-cn, num edge types: 1
# Building blocks:
#     Node 0, Type 0, BuildingBlock: IZENUY_clean_sbu_0, # of connection points: 6
#     Node 1, Type 0, BuildingBlock: IZENUY_clean_sbu_0, # of connection points: 6
#     Edge 2, Type (0, 0), None
#     Edge 3, Type (0, 0), None
#     Edge 4, Type (0, 0), None
#     Edge 5, Type (0, 0), None
#     Edge 6, Type (0, 0), None
#     Edge 7, Type (0, 0), None
# Relax obj value: 0.000
# Max RMSD: 0.012
# Mean RMSD: 0.012
data_MOF--net-acs--node1-IZENUY_clean_sbu_0--edge1-none
_symmetry_space_group_name_H-M    P1
_symmetry_Int_Tables_number       1
_symmetry_cell_setting            triclinic
loop_
_symmetry_equiv_pos_as_xyz
'x, y, z'
_cell_length_a     10.09156
_cell_length_b     10.092142
_cell_length_c     9.1897645
_cell_angle_alpha  89.999998
_cell_angle_beta   90.000004
_cell_angle_gamma 120.00573
loop_
_atom_site_label
_atom_site_type_symbol
_atom_site_fract_x
_atom_site_fract_y
_atom_site_fract_z
_atom_type_partial_charge
Fe0 Fe 0.51843 0.26865 0.26984 0.0
Fe1 Fe 0.82579 0.26867 0.26984 0.0
O2 O 0.72334 0.37111 0.26984 0.0
Fe3 Fe 0.8258 0.576 0.26984 0.0
O4 O 0.73497 0.58572 0.43575 0.0
O5 O 0.49904 0.40699 0.38414 0.0
O6 O 0.50872 0.1681 0.43574 0.0
C7 C 0.57664 0.0947 0.46135 0.0
C8 C 0.57665 0.50081 0.07833 0.0
O9 O 0.68742 0.1109 0.3841 0.0
C10 C 0.99974 0.5178 0.07833 0.0
O11 O 0.49904 0.11091 0.15554 0.0
O12 O 0.73497 0.16815 0.10393 0.0
O13 O 0.68744 0.5954 0.15556 0.0
O14 O 0.50872 0.35948 0.10394 0.0
C15 C 0.99973 0.50081 0.46137 0.0
O16 O 0.98356 0.40704 0.15558 0.0
O17 O 0.92633 0.58571 0.10394 0.0
C18 C 0.59364 0.09473 0.07831 0.0
O19 O 0.92631 0.35949 0.43575 0.0
O20 O 0.98355 0.5954 0.38412 0.0
C21 C 0.59364 0.51779 0.46137 0.0
Fe22 Fe 0.59491 0.8069 0.76984 0.0
Fe23 Fe 0.28756 0.80688 0.76984 0.0
O24 O 0.39001 0.70444 0.76984 0.0
Fe25 Fe 0.28755 0.49955 0.76984 0.0
O26 O 0.37837 0.48984 0.93575 0.0
O27 O 0.61431 0.66855 0.88414 0.0
O28 O 0.60462 0.90744 0.93574 0.0
C29 C 0.5367 0.98083 0.96136 0.0
C30 C 0.53669 0.57474 0.57832 0.0
O31 O 0.42594 0.96466 0.88409 0.0
C32 C 0.11362 0.55776 0.57832 0.0
O33 O 0.61431 0.96464 0.65555 0.0
O34 O 0.37837 0.90739 0.60393 0.0
O35 O 0.42591 0.48015 0.65557 0.0
O36 O 0.60463 0.71607 0.60394 0.0
C37 C 0.11364 0.57475 0.96138 0.0
O38 O 0.12978 0.6685 0.65559 0.0
O39 O 0.18703 0.48984 0.60393 0.0
C40 C 0.5197 0.98081 0.5783 0.0
O41 O 0.18705 0.71607 0.93576 0.0
O42 O 0.12979 0.48015 0.88412 0.0
C43 C 0.5197 0.55777 0.96138 0.0
loop_
_geom_bond_atom_site_label_1
_geom_bond_atom_site_label_2
_geom_bond_distance
_geom_bond_site_symmetry_2
_ccdc_geom_bond_type
Fe0 O2 1.918 . S
Fe0 O5 1.997 . S
Fe0 O6 2.002 . S
Fe0 O11 1.976 . S
Fe0 O14 1.996 . S
Fe1 O2 1.918 . S
Fe1 O9 1.997 . S
Fe1 O12 1.996 . S
Fe1 O16 1.976 . S
Fe1 O19 2.002 . S
O2 Fe0 1.918 . S
O2 Fe1 1.918 . S
O2 Fe3 1.918 . S
Fe3 O2 1.918 . S
Fe3 O4 2.002 . S
Fe3 O13 1.976 . S
Fe3 O17 1.996 . S
Fe3 O20 1.997 . S
O4 Fe3 2.002 . S
O4 C21 1.295 . S
O5 Fe0 1.997 . S
O5 C21 1.235 . S
O6 Fe0 2.002 . S
O6 C7 1.295 . S
C7 O6 1.295 . S
C7 O9 1.235 . S
C8 O13 1.287 . S
C8 O14 1.255 . S
O9 Fe1 1.997 . S
O9 C7 1.235 . S
C10 O16 1.287 . S
C10 O17 1.255 . S
O11 Fe0 1.976 . S
O11 C18 1.287 . S
O12 Fe1 1.996 . S
O12 C18 1.255 . S
O13 Fe3 1.976 . S
O13 C8 1.287 . S
O14 Fe0 1.996 . S
O14 C8 1.255 . S
C15 O19 1.295 . S
C15 O20 1.235 . S
O16 Fe1 1.976 . S
O16 C10 1.287 . S
O17 Fe3 1.996 . S
O17 C10 1.255 . S
C18 O11 1.287 . S
C18 O12 1.255 . S
O19 Fe1 2.002 . S
O19 C15 1.295 . S
O20 Fe3 1.997 . S
O20 C15 1.235 . S
C21 O4 1.295 . S
C21 O5 1.235 . S
Fe22 O24 1.918 . S
Fe22 O27 1.997 . S
Fe22 O28 2.002 . S
Fe22 O33 1.976 . S
Fe22 O36 1.996 . S
Fe23 O24 1.918 . S
Fe23 O31 1.997 . S
Fe23 O34 1.996 . S
Fe23 O38 1.976 . S
Fe23 O41 2.002 . S
O24 Fe22 1.918 . S
O24 Fe23 1.918 . S
O24 Fe25 1.918 . S
Fe25 O24 1.918 . S
Fe25 O26 2.002 . S
Fe25 O35 1.976 . S
Fe25 O39 1.996 . S
Fe25 O42 1.997 . S
O26 Fe25 2.002 . S
O26 C43 1.295 . S
O27 Fe22 1.997 . S
O27 C43 1.235 . S
O28 Fe22 2.002 . S
O28 C29 1.295 . S
C29 O28 1.295 . S
C29 O31 1.235 . S
C30 O35 1.287 . S
C30 O36 1.255 . S
O31 Fe23 1.997 . S
O31 C29 1.235 . S
C32 O38 1.287 . S
C32 O39 1.255 . S
O33 Fe22 1.976 . S
O33 C40 1.287 . S
O34 Fe23 1.996 . S
O34 C40 1.255 . S
O35 Fe25 1.976 . S
O35 C30 1.287 . S
O36 Fe22 1.996 . S
O36 C30 1.255 . S
C37 O41 1.295 . S
C37 O42 1.235 . S
O38 Fe23 1.976 . S
O38 C32 1.287 . S
O39 Fe25 1.996 . S
O39 C32 1.255 . S
C40 O33 1.287 . S
C40 O34 1.255 . S
O41 Fe23 2.002 . S
O41 C37 1.295 . S
O42 Fe25 1.997 . S
O42 C37 1.235 . S
C43 O26 1.295 . S
C43 O27 1.235 . S
C29 C18 1.495 1_566 S
C30 C21 1.495 . S
C10 C37 1.495 1_654 S
C40 C7 1.495 1_565 S
C43 C8 1.495 1_556 S
C32 C15 1.495 1_455 S
