# Generated by pormake.
# Topology pcu, (6)-cn, num edge types: 1
# Building blocks:
#     Node 0, Type 0, BuildingBlock: KUMBOL_clean_sbu_1, # of connection points: 6
#     Edge 1, Type (0, 0), BuildingBlock: MIFKUJ_clean_linker_0, # of connection points: 2
#     Edge 2, Type (0, 0), BuildingBlock: MIFKUJ_clean_linker_0, # of connection points: 2
#     Edge 3, Type (0, 0), BuildingBlock: MIFKUJ_clean_linker_0, # of connection points: 2
# Relax obj value: 0.000
# Max RMSD: 0.000
# Mean RMSD: 0.000
data_MOF--net-pcu--node1-KUMBOL_clean_sbu_1--edge1-MIFKUJ_clean_linker_0
_symmetry_space_group_name_H-M    P1
_symmetry_Int_Tables_number       1
_symmetry_cell_setting            triclinic
loop_
_symmetry_equiv_pos_as_xyz
'x, y, z'
_cell_length_a     19.304498
_cell_length_b     29.335263
_cell_length_c     19.329399
_cell_angle_alpha  113.77011
_cell_angle_beta   89.219448
_cell_angle_gamma 115.31187
loop_
_atom_site_label
_atom_site_type_symbol
_atom_site_fract_x
_atom_site_fract_y
_atom_site_fract_z
_atom_type_partial_charge
C0 C 0.23538 0.16426 0.13011 0.0
C1 C 0.31366 0.19407 0.04232 0.0
C2 C 0.2406 0.16562 0.05896 0.0
C3 C 0.38159 0.22141 0.09817 0.0
C4 C 0.30355 0.19295 0.18689 0.0
C5 C 0.37654 0.22087 0.17023 0.0
N6 N 0.16381 0.1365 0.14458 0.0
C7 C 0.15624 0.14175 0.21746 0.0
C8 C 0.29627 0.19386 0.25946 0.0
C9 C 0.22219 0.16896 0.27513 0.0
Gd10 Gd 0.97147 0.92133 0.95879 0.0
Gd11 Gd 0.05808 0.09247 0.04179 0.0
N12 N 0.17421 0.13744 0.00498 0.0
C13 C 0.31628 0.1937 0.96963 0.0
C14 C 0.17602 0.13754 0.93447 0.0
C15 C 0.24713 0.16547 0.9156 0.0
H16 H 0.12246 0.11599 0.89296 0.0
H17 H 0.2486 0.1652 0.85945 0.0
H18 H 0.90709 0.89781 0.10763 0.0
H19 H 0.09981 0.12702 0.23297 0.0
H20 H 0.78097 0.8486 0.14115 0.0
H21 H 0.37133 0.21507 0.95467 0.0
H22 H 0.43831 0.2433 0.08635 0.0
H23 H 0.92974 0.88678 0.76762 0.0
H24 H 0.34719 0.21542 0.30458 0.0
H25 H 0.2157 0.1717 0.33216 0.0
H26 H 0.59124 0.7705 0.91426 0.0
H27 H 0.42944 0.24278 0.21306 0.0
H28 H 0.68235 0.79838 0.69602 0.0
H29 H 0.81384 0.8421 0.66843 0.0
N30 N 0.86574 0.87729 0.85601 0.0
C31 C 0.79417 0.84953 0.87049 0.0
C32 C 0.87331 0.87205 0.78313 0.0
C33 C 0.73328 0.81993 0.74114 0.0
C34 C 0.80736 0.84484 0.72546 0.0
C35 C 0.726 0.82085 0.81371 0.0
H36 H 0.60011 0.77101 0.78754 0.0
N37 N 0.85535 0.87636 0.99561 0.0
C38 C 0.78895 0.84817 0.94163 0.0
C39 C 0.71327 0.8201 0.03097 0.0
C40 C 0.71589 0.81973 0.95828 0.0
C41 C 0.85354 0.87626 0.06612 0.0
C42 C 0.78243 0.84833 0.085 0.0
O43 O 0.14004 0.05528 0.99365 0.0
O44 O 0.09411 0.982 0.02535 0.0
O45 O 0.97914 0.85896 0.98747 0.0
O46 O 0.99968 0.85783 0.87704 0.0
O47 O 0.99722 0.03543 0.91845 0.0
O48 O 0.02466 0.96041 0.87798 0.0
O49 O 0.88951 0.95852 0.00694 0.0
O50 O 0.93544 0.0318 0.97524 0.0
O51 O 0.05041 0.15484 0.01311 0.0
O52 O 0.02987 0.15597 0.12354 0.0
O53 O 0.03232 0.97837 0.08214 0.0
O54 O 1.00489 0.05339 0.12261 0.0
C55 C 0.14909 0.01683 0.00501 0.0
C56 C 0.01602 0.99926 0.8665 0.0
C57 C 0.94462 0.77064 0.88431 0.0
C58 C 0.92174 0.67949 0.87565 0.0
C59 C 0.83452 0.68529 0.79326 0.0
C60 C 0.87845 0.74363 0.8265 0.0
C61 C 0.85593 0.65336 0.81737 0.0
C62 C 0.96578 0.73846 0.90899 0.0
C63 C 0.99157 0.83224 0.92052 0.0
C64 C 0.64796 0.79239 0.90243 0.0
C65 C 0.653 0.79292 0.83037 0.0
H66 H 0.65822 0.79874 0.04593 0.0
C67 C 0.88045 0.99697 0.99558 0.0
C68 C 1.01353 0.01454 0.13408 0.0
C69 C 0.08493 0.24316 0.11627 0.0
C70 C 0.10782 0.33431 0.12493 0.0
C71 C 0.19503 0.32851 0.20732 0.0
C72 C 0.1511 0.27017 0.17409 0.0
C73 C 0.17363 0.36044 0.18321 0.0
C74 C 0.06378 0.27534 0.0916 0.0
C75 C 0.03798 0.18156 0.08007 0.0
H76 H 0.78347 0.6647 0.74874 0.0
H77 H 0.86072 0.76755 0.80705 0.0
H78 H 0.8202 0.60824 0.79119 0.0
H79 H 0.01704 0.75938 0.95354 0.0
H80 H 0.24608 0.3491 0.25184 0.0
H81 H 0.16883 0.24625 0.19353 0.0
H82 H 0.20936 0.40556 0.20939 0.0
H83 H 1.01251 0.25442 0.04704 0.0
H84 H 0.93037 0.04773 0.24231 0.0
H85 H 0.92922 0.04469 0.36754 0.0
H86 H 0.10102 0.98398 0.32442 0.0
H87 H 0.10028 0.98513 0.19932 0.0
H88 H 0.99176 0.92496 0.37712 0.0
H89 H 0.14651 0.12324 0.45043 0.0
H90 H 0.17222 0.21464 0.45567 0.0
H91 H 0.97617 0.21002 0.56556 0.0
H92 H 0.94885 0.1184 0.56046 0.0
H93 H 0.09918 0.96607 0.75828 0.0
H94 H 0.10034 0.96911 0.63305 0.0
H95 H 0.92853 0.02983 0.67617 0.0
H96 H 0.92928 0.02868 0.80127 0.0
H97 H 0.0378 0.08884 0.62347 0.0
H98 H 0.88305 0.89056 0.55016 0.0
H99 H 0.85732 0.79917 0.54492 0.0
H100 H 0.05337 0.80378 0.43503 0.0
H101 H 0.0807 0.8954 0.44013 0.0
C102 C 0.96808 0.03415 0.26016 0.0
C103 C 0.01514 0.01652 0.21136 0.0
C104 C 0.96758 0.03249 0.33154 0.0
C105 C 0.01548 0.0144 0.35554 0.0
C106 C 0.06324 0.99769 0.30699 0.0
C107 C 0.06283 0.99849 0.23556 0.0
C108 C 0.01551 0.01173 0.43048 0.0
C109 C 1.00268 0.96101 0.43111 0.0
C110 C 0.02826 0.05837 0.50071 0.0
C111 C 0.04525 0.11374 0.50447 0.0
C112 C 0.10863 0.14157 0.47532 0.0
C113 C 0.12351 0.19341 0.47828 0.0
C114 C 0.0757 0.21799 0.51064 0.0
C115 C 1.01309 0.1909 0.54042 0.0
C116 C 0.99796 0.13907 0.53763 0.0
C117 C 0.06147 0.97965 0.74043 0.0
C118 C 1.01441 0.99728 0.78923 0.0
C119 C 0.06198 0.98131 0.66905 0.0
C120 C 1.01407 0.9994 0.64505 0.0
C121 C 0.96632 0.01611 0.6936 0.0
C122 C 0.96673 0.01532 0.76503 0.0
C123 C 1.01404 1.00208 0.57011 0.0
C124 C 0.02688 0.0528 0.56948 0.0
C125 C 1.0013 0.95543 0.49988 0.0
C126 C 0.9843 0.90006 0.49611 0.0
C127 C 0.92093 0.87223 0.52527 0.0
C128 C 0.90604 0.82039 0.5223 0.0
C129 C 0.95384 0.79581 0.48995 0.0
C130 C 0.01645 0.8229 0.46017 0.0
C131 C 0.03159 0.87473 0.46296 0.0
H132 H 0.94225 0.7557 0.48778 0.0
H133 H 0.08729 0.25809 0.51281 0.0
H134 H 0.27475 0.07339 0.95212 0.0
H135 H 0.40069 0.07196 0.95287 0.0
H136 H 0.32136 0.95807 0.05775 0.0
H137 H 0.19694 0.96058 0.05937 0.0
H138 H 0.46911 0.03763 0.12354 0.0
H139 H 0.32 0.90997 0.86642 0.0
H140 H 0.24211 0.88302 0.74371 0.0
H141 H 0.43639 0.00718 0.70373 0.0
H142 H 0.51511 0.03547 0.82687 0.0
H143 H 0.7548 0.94041 0.04847 0.0
H144 H 0.62885 0.94184 0.04772 0.0
H145 H 0.70819 0.05572 0.94283 0.0
H146 H 0.83261 0.05322 0.94121 0.0
H147 H 0.56044 0.97617 0.87704 0.0
H148 H 0.70954 0.10382 0.13415 0.0
H149 H 0.78744 0.13078 0.25687 0.0
H150 H 0.59316 1.00662 0.29686 0.0
H151 H 0.51444 0.97833 0.17371 0.0
C152 C 0.28461 0.04873 0.9763 0.0
C153 C 0.22594 0.01732 0.0059 0.0
C154 C 0.35631 0.04757 0.97615 0.0
C155 C 0.37006 0.01448 0.00478 0.0
C156 C 0.31204 0.98391 0.03547 0.0
C157 C 0.24069 0.98518 0.03586 0.0
C158 C 0.44392 0.01022 0.00114 0.0
C159 C 0.48869 0.02364 0.06955 0.0
C160 C 0.46997 0.99275 0.93085 0.0
C161 C 0.42318 0.97519 0.8562 0.0
C162 C 0.34595 0.93177 0.83169 0.0
C163 C 0.30166 0.91623 0.76205 0.0
C164 C 0.33421 0.94347 0.71605 0.0
C165 C 0.41122 0.98617 0.73948 0.0
C166 C 0.45572 1.00195 0.80917 0.0
C167 C 0.74494 0.96507 0.02428 0.0
C168 C 0.8036 0.99648 0.99469 0.0
C169 C 0.67323 0.96623 0.02444 0.0
C170 C 0.65949 0.99932 0.9958 0.0
C171 C 0.71751 0.02988 0.96511 0.0
C172 C 0.78886 0.02862 0.96472 0.0
C173 C 0.58562 1.00357 0.99944 0.0
C174 C 0.54085 0.99015 0.93103 0.0
C175 C 0.55957 0.02104 0.06974 0.0
C176 C 0.60636 0.0386 0.14438 0.0
C177 C 0.68359 0.08203 0.16888 0.0
C178 C 0.72788 0.09757 0.23853 0.0
C179 C 0.69534 0.07033 0.28454 0.0
C180 C 0.61833 0.02763 0.26111 0.0
C181 C 0.57383 0.01185 0.19142 0.0
H182 H 0.72974 0.08239 0.33841 0.0
H183 H 0.29981 0.93141 0.66217 0.0
H184 H 0.96812 0.70039 0.02348 0.0
H185 H 0.99979 0.64215 0.06568 0.0
H186 H 0.95666 0.52257 0.82889 0.0
H187 H 0.92416 0.58033 0.78649 0.0
H188 H 0.89134 0.46897 0.91183 0.0
H189 H 0.14514 0.61614 0.93861 0.0
H190 H 0.24706 0.71416 0.98415 0.0
H191 H 0.2396 0.74068 0.21883 0.0
H192 H 0.13689 0.64298 0.17468 0.0
H193 H 0.06143 0.31341 0.9771 0.0
H194 H 0.02976 0.37165 0.9349 0.0
H195 H 0.0729 0.49123 0.17169 0.0
H196 H 0.1054 0.43347 0.21409 0.0
H197 H 0.13821 0.54483 0.08875 0.0
H198 H 0.88441 0.39766 0.06197 0.0
H199 H 0.7825 0.29964 0.01644 0.0
H200 H 0.78994 0.27312 0.78175 0.0
H201 H 0.89266 0.37081 0.8259 0.0
C202 C 0.96621 0.662 0.98037 0.0
C203 C 0.94369 0.64511 0.90158 0.0
C204 C 0.98432 0.62866 0.00457 0.0
C205 C 0.98148 0.57808 0.9505 0.0
C206 C 0.95913 0.56124 0.87182 0.0
C207 C 0.94048 0.59433 0.84763 0.0
C208 C 1.00046 0.5422 0.97577 0.0
C209 C 0.94584 0.48544 0.94969 0.0
C210 C 0.07071 0.56375 0.02666 0.0
C211 C 0.13282 0.6224 0.05332 0.0
C212 C 0.16486 0.64299 0.99992 0.0
C213 C 0.22283 0.69847 0.02549 0.0
C214 C 0.24965 0.73366 0.10433 0.0
C215 C 0.21871 0.71339 0.15778 0.0
C216 C 0.16068 0.65795 0.13252 0.0
C217 C 0.06334 0.3518 0.02021 0.0
C218 C 0.08587 0.36869 0.09901 0.0
C219 C 0.04523 0.38514 0.99601 0.0
C220 C 0.04808 0.43572 0.05007 0.0
C221 C 0.07042 0.45256 0.12876 0.0
C222 C 0.08907 0.41947 0.15295 0.0
C223 C 0.02909 0.4716 0.02481 0.0
C224 C 0.08372 0.52836 0.05089 0.0
C225 C 0.95885 0.45004 0.97392 0.0
C226 C 0.89674 0.3914 0.94726 0.0
C227 C 0.86469 0.37081 0.00066 0.0
C228 C 0.80672 0.31533 0.9751 0.0
C229 C 0.7799 0.28014 0.89626 0.0
C230 C 0.81084 0.30041 0.8428 0.0
C231 C 0.86887 0.35584 0.86806 0.0
H232 H 0.73503 0.2372 0.87658 0.0
H233 H 0.29451 0.77661 0.12401 0.0
loop_
_geom_bond_atom_site_label_1
_geom_bond_atom_site_label_2
_geom_bond_distance
_geom_bond_site_symmetry_2
_ccdc_geom_bond_type
C0 C2 1.422 . S
C0 C4 1.415 . S
C0 N6 1.369 . S
C1 C2 1.421 . S
C1 C3 1.417 . S
C1 C13 1.422 . S
C2 C0 1.422 . S
C2 C1 1.421 . S
C2 N12 1.359 . S
C3 C1 1.417 . S
C3 C5 1.329 . S
C3 H22 0.930 . S
C4 C0 1.415 . S
C4 C5 1.437 . S
C4 C8 1.413 . S
C5 C3 1.329 . S
C5 C4 1.437 . S
C5 H27 0.929 . S
N6 C0 1.369 . S
N6 C7 1.338 . S
N6 Gd11 2.622 . S
C7 N6 1.338 . S
C7 C9 1.378 . S
C7 H19 0.929 . S
C8 C4 1.413 . S
C8 C9 1.348 . S
C8 H24 0.931 . S
C9 C7 1.378 . S
C9 C8 1.348 . S
C9 H25 0.930 . S
Gd10 N30 2.622 . S
Gd10 N37 2.570 . S
Gd10 O44 2.353 1_655 S
Gd10 O45 2.468 . S
Gd10 O46 2.427 . S
Gd10 O48 2.388 . S
Gd10 O49 2.386 . S
Gd10 O53 2.307 1_556 S
Gd10 C63 2.805 . S
Gd11 N6 2.622 . S
Gd11 N12 2.570 . S
Gd11 O43 2.386 . S
Gd11 O47 2.307 1_554 S
Gd11 O50 2.353 1_455 S
Gd11 O51 2.468 . S
Gd11 O52 2.427 . S
Gd11 O54 2.388 . S
Gd11 C75 2.805 . S
N12 C2 1.359 . S
N12 Gd11 2.570 . S
N12 C14 1.343 1_554 S
C13 C1 1.422 . S
C13 C15 1.321 1_554 S
C13 H21 0.931 1_554 S
C14 N12 1.343 1_556 S
C14 C15 1.390 . S
C14 H16 0.931 . S
C15 C13 1.321 1_556 S
C15 C14 1.390 . S
C15 H17 0.930 . S
H16 C14 0.931 . S
H17 C15 0.930 . S
H18 C41 0.931 . S
H19 C7 0.929 . S
H20 C42 0.930 . S
H21 C13 0.931 1_556 S
H22 C3 0.930 . S
H23 C32 0.929 . S
H24 C8 0.931 . S
H25 C9 0.930 . S
H26 C64 0.930 . S
H27 C5 0.929 . S
H28 C33 0.931 . S
H29 C34 0.930 . S
N30 Gd10 2.622 . S
N30 C31 1.369 . S
N30 C32 1.338 . S
C31 N30 1.369 . S
C31 C35 1.415 . S
C31 C38 1.422 . S
C32 H23 0.929 . S
C32 N30 1.338 . S
C32 C34 1.378 . S
C33 H28 0.931 . S
C33 C34 1.348 . S
C33 C35 1.413 . S
C34 H29 0.930 . S
C34 C32 1.378 . S
C34 C33 1.348 . S
C35 C31 1.415 . S
C35 C33 1.413 . S
C35 C65 1.437 . S
H36 C65 0.929 . S
N37 Gd10 2.570 . S
N37 C38 1.359 . S
N37 C41 1.343 1_556 S
C38 C31 1.422 . S
C38 N37 1.359 . S
C38 C40 1.421 . S
C39 C40 1.422 . S
C39 C42 1.321 1_556 S
C39 H66 0.931 1_556 S
C40 C38 1.421 . S
C40 C39 1.422 . S
C40 C64 1.417 . S
C41 H18 0.931 . S
C41 N37 1.343 1_554 S
C41 C42 1.390 . S
C42 H20 0.930 . S
C42 C39 1.321 1_554 S
C42 C41 1.390 . S
O43 Gd11 2.386 . S
O43 C55 1.264 1_545 S
O44 Gd10 2.353 1_455 S
O44 C55 1.243 1_556 S
O45 Gd10 2.468 . S
O45 C63 1.263 . S
O46 Gd10 2.427 . S
O46 C63 1.252 . S
O47 Gd11 2.307 1_556 S
O47 C56 1.261 1_545 S
O48 Gd10 2.388 . S
O48 C56 1.252 1_655 S
O49 Gd10 2.386 . S
O49 C67 1.259 1_565 S
O50 Gd11 2.353 1_655 S
O50 C67 1.245 1_554 S
O51 Gd11 2.468 . S
O51 C75 1.263 . S
O52 Gd11 2.427 . S
O52 C75 1.252 . S
O53 Gd10 2.307 1_554 S
O53 C68 1.261 1_565 S
O54 Gd11 2.388 . S
O54 C68 1.252 1_455 S
C55 O43 1.264 1_565 S
C55 O44 1.243 1_554 S
C56 O47 1.261 1_565 S
C56 O48 1.252 1_455 S
C57 C60 1.394 . S
C57 C62 1.370 . S
C57 C63 1.500 . S
C58 C61 1.383 . S
C58 C62 1.395 . S
C59 C60 1.396 . S
C59 C61 1.365 . S
C59 H76 0.929 . S
C60 C57 1.394 . S
C60 C59 1.396 . S
C60 H77 0.930 . S
C61 C58 1.383 . S
C61 C59 1.365 . S
C61 H78 0.931 . S
C62 C57 1.370 . S
C62 C58 1.395 . S
C62 H79 0.930 1_556 S
C63 Gd10 2.805 . S
C63 O45 1.263 . S
C63 O46 1.252 . S
C63 C57 1.500 . S
C64 H26 0.930 . S
C64 C40 1.417 . S
C64 C65 1.329 . S
C65 C35 1.437 . S
C65 H36 0.929 . S
C65 C64 1.329 . S
H66 C39 0.931 1_554 S
C67 O49 1.259 1_545 S
C67 O50 1.245 1_556 S
C68 O53 1.261 1_545 S
C68 O54 1.252 1_655 S
C69 C72 1.394 . S
C69 C74 1.370 . S
C69 C75 1.500 . S
C70 C73 1.383 . S
C70 C74 1.395 . S
C71 C72 1.396 . S
C71 C73 1.365 . S
C71 H80 0.929 . S
C72 C69 1.394 . S
C72 C71 1.396 . S
C72 H81 0.930 . S
C73 C70 1.383 . S
C73 C71 1.365 . S
C73 H82 0.931 . S
C74 C69 1.370 . S
C74 C70 1.395 . S
C74 H83 0.930 1_554 S
C75 Gd11 2.805 . S
C75 O51 1.263 . S
C75 O52 1.252 . S
C75 C69 1.500 . S
H76 C59 0.929 . S
H77 C60 0.930 . S
H78 C61 0.931 . S
H79 C62 0.930 1_554 S
H80 C71 0.929 . S
H81 C72 0.930 . S
H82 C73 0.931 . S
H83 C74 0.930 1_556 S
H84 C102 0.951 . S
H85 C104 0.951 . S
H86 C106 0.950 . S
H87 C107 0.950 . S
H88 C109 0.950 . S
H89 C112 0.950 . S
H90 C113 0.950 . S
H91 C115 0.950 1_565 S
H92 C116 0.950 . S
H93 C117 0.951 . S
H94 C119 0.951 . S
H95 C121 0.950 . S
H96 C122 0.950 . S
H97 C124 0.950 . S
H98 C127 0.950 . S
H99 C128 0.950 . S
H100 C130 0.950 1_545 S
H101 C131 0.950 . S
C102 H84 0.951 . S
C102 C103 1.366 1_665 S
C102 C104 1.388 . S
C103 C102 1.366 1_445 S
C103 C107 1.385 . S
C104 H85 0.951 . S
C104 C102 1.388 . S
C104 C105 1.370 1_565 S
C105 C104 1.370 1_545 S
C105 C106 1.409 1_655 S
C105 C108 1.498 1_655 S
C106 H86 0.950 . S
C106 C105 1.409 1_455 S
C106 C107 1.374 . S
C107 H87 0.950 . S
C107 C103 1.385 . S
C107 C106 1.374 . S
C108 C105 1.498 1_455 S
C108 C109 1.373 1_545 S
C108 C110 1.389 1_455 S
C109 H88 0.950 . S
C109 C108 1.373 1_565 S
C109 C125 1.377 . S
C110 C108 1.389 1_655 S
C110 C111 1.524 . S
C110 C124 1.377 . S
C111 C110 1.524 . S
C111 C112 1.397 . S
C111 C116 1.363 1_545 S
C112 H89 0.950 . S
C112 C111 1.397 . S
C112 C113 1.334 . S
C113 H90 0.950 . S
C113 C112 1.334 . S
C113 C114 1.287 . S
C114 C113 1.287 . S
C114 C115 1.524 . S
C114 H133 0.913 . S
C115 H91 0.950 1_545 S
C115 C114 1.524 . S
C115 C116 1.415 1_545 S
C116 H92 0.950 . S
C116 C111 1.363 1_565 S
C116 C115 1.415 1_565 S
C117 H93 0.951 . S
C117 C118 1.366 . S
C117 C119 1.388 . S
C118 C117 1.366 . S
C118 C122 1.385 1_445 S
C119 H94 0.951 . S
C119 C117 1.388 . S
C119 C120 1.373 1_545 S
C120 C119 1.373 1_565 S
C120 C121 1.407 1_455 S
C120 C123 1.498 1_455 S
C121 H95 0.950 . S
C121 C120 1.407 1_655 S
C121 C122 1.374 . S
C122 H96 0.950 . S
C122 C118 1.385 1_665 S
C122 C121 1.374 . S
C123 C120 1.498 1_655 S
C123 C124 1.373 1_565 S
C123 C125 1.389 1_655 S
C124 H97 0.950 . S
C124 C110 1.377 . S
C124 C123 1.373 1_545 S
C125 C109 1.377 . S
C125 C123 1.389 1_455 S
C125 C126 1.524 . S
C126 C125 1.524 . S
C126 C127 1.397 . S
C126 C131 1.363 1_565 S
C127 H98 0.950 . S
C127 C126 1.397 . S
C127 C128 1.334 . S
C128 H99 0.950 . S
C128 C127 1.334 . S
C128 C129 1.287 . S
C129 C128 1.287 . S
C129 C130 1.524 . S
C129 H132 0.999 . S
C130 H100 0.950 1_565 S
C130 C129 1.524 . S
C130 C131 1.415 1_565 S
C131 H101 0.950 . S
C131 C126 1.363 1_545 S
C131 C130 1.415 1_545 S
H132 C129 0.999 . S
H133 C114 0.913 . S
H134 C152 0.951 . S
H135 C154 0.951 . S
H136 C156 0.950 . S
H137 C157 0.950 . S
H138 C159 0.950 . S
H139 C162 0.950 . S
H140 C163 0.950 . S
H141 C165 0.950 . S
H142 C166 0.950 1_545 S
H143 C167 0.951 . S
H144 C169 0.951 . S
H145 C171 0.950 . S
H146 C172 0.950 . S
H147 C174 0.950 . S
H148 C177 0.950 . S
H149 C178 0.950 . S
H150 C180 0.950 . S
H151 C181 0.950 1_565 S
C152 H134 0.951 . S
C152 C153 1.365 1_556 S
C152 C154 1.388 . S
C153 C152 1.365 1_554 S
C153 C157 1.385 1_545 S
C154 H135 0.951 . S
C154 C152 1.388 . S
C154 C155 1.366 1_545 S
C155 C154 1.366 1_565 S
C155 C156 1.414 1_556 S
C155 C158 1.499 . S
C156 H136 0.950 . S
C156 C155 1.414 1_554 S
C156 C157 1.374 . S
C157 H137 0.950 . S
C157 C153 1.385 1_565 S
C157 C156 1.374 . S
C158 C155 1.499 . S
C158 C159 1.373 1_566 S
C158 C160 1.389 . S
C159 H138 0.950 . S
C159 C158 1.373 1_544 S
C159 C175 1.377 . S
C160 C158 1.389 . S
C160 C161 1.524 . S
C160 C174 1.377 . S
C161 C160 1.524 . S
C161 C162 1.397 . S
C161 C166 1.363 . S
C162 H139 0.950 . S
C162 C161 1.397 . S
C162 C163 1.334 . S
C163 H140 0.950 . S
C163 C162 1.334 . S
C163 C164 1.287 . S
C164 C163 1.287 . S
C164 C165 1.524 . S
C164 H183 0.913 . S
C165 H141 0.950 . S
C165 C164 1.524 . S
C165 C166 1.415 . S
C166 H142 0.950 1_565 S
C166 C161 1.363 . S
C166 C165 1.415 . S
C167 H143 0.951 . S
C167 C168 1.368 1_564 S
C167 C169 1.388 . S
C168 C167 1.368 1_546 S
C168 C172 1.382 . S
C169 H144 0.951 . S
C169 C167 1.388 . S
C169 C170 1.366 1_565 S
C170 C169 1.366 1_545 S
C170 C171 1.414 1_554 S
C170 C173 1.499 . S
C171 H145 0.950 . S
C171 C170 1.414 1_556 S
C171 C172 1.374 . S
C172 H146 0.950 . S
C172 C168 1.382 . S
C172 C171 1.374 . S
C173 C170 1.499 . S
C173 C174 1.373 1_544 S
C173 C175 1.389 . S
C174 H147 0.950 . S
C174 C160 1.377 . S
C174 C173 1.373 1_566 S
C175 C159 1.377 . S
C175 C173 1.389 . S
C175 C176 1.524 . S
C176 C175 1.524 . S
C176 C177 1.397 . S
C176 C181 1.363 . S
C177 H148 0.950 . S
C177 C176 1.397 . S
C177 C178 1.334 . S
C178 H149 0.950 . S
C178 C177 1.334 . S
C178 C179 1.287 . S
C179 C178 1.287 . S
C179 C180 1.524 . S
C179 H182 0.999 . S
C180 H150 0.950 . S
C180 C179 1.524 . S
C180 C181 1.415 . S
C181 H151 0.950 1_545 S
C181 C176 1.363 . S
C181 C180 1.415 . S
H182 C179 0.999 . S
H183 C164 0.913 . S
H184 C202 0.951 . S
H185 C204 0.951 . S
H186 C206 0.950 . S
H187 C207 0.950 . S
H188 C209 0.950 . S
H189 C212 0.950 . S
H190 C213 0.950 . S
H191 C215 0.950 . S
H192 C216 0.950 . S
H193 C217 0.951 . S
H194 C219 0.951 . S
H195 C221 0.950 . S
H196 C222 0.950 . S
H197 C224 0.950 . S
H198 C227 0.950 . S
H199 C228 0.950 . S
H200 C230 0.950 . S
H201 C231 0.950 . S
C202 H184 0.951 . S
C202 C203 1.364 . S
C202 C204 1.388 . S
C203 C202 1.364 . S
C203 C207 1.386 1_654 S
C204 H185 0.951 . S
C204 C202 1.388 . S
C204 C205 1.366 1_655 S
C205 C204 1.366 1_455 S
C205 C206 1.414 1_554 S
C205 C208 1.503 1_554 S
C206 H186 0.950 . S
C206 C205 1.414 1_556 S
C206 C207 1.374 . S
C207 H187 0.950 . S
C207 C203 1.386 1_456 S
C207 C206 1.374 . S
C208 C205 1.503 1_556 S
C208 C209 1.378 1_455 S
C208 C210 1.380 1_556 S
C209 H188 0.950 . S
C209 C208 1.378 1_655 S
C209 C225 1.377 . S
C210 C208 1.380 1_554 S
C210 C211 1.524 . S
C210 C224 1.377 . S
C211 C210 1.524 . S
C211 C212 1.397 . S
C211 C216 1.363 . S
C212 H189 0.950 . S
C212 C211 1.397 . S
C212 C213 1.334 . S
C213 H190 0.950 . S
C213 C212 1.334 . S
C213 C214 1.287 . S
C214 C213 1.287 . S
C214 C215 1.524 . S
C214 H233 0.913 . S
C215 H191 0.950 . S
C215 C214 1.524 . S
C215 C216 1.415 . S
C216 H192 0.950 . S
C216 C211 1.363 . S
C216 C215 1.415 . S
C217 H193 0.951 . S
C217 C218 1.364 1_556 S
C217 C219 1.388 . S
C218 C217 1.364 1_554 S
C218 C222 1.384 1_455 S
C219 H194 0.951 . S
C219 C217 1.388 . S
C219 C220 1.366 1_455 S
C220 C219 1.366 1_655 S
C220 C221 1.414 1_556 S
C220 C223 1.505 1_556 S
C221 H195 0.950 . S
C221 C220 1.414 1_554 S
C221 C222 1.374 . S
C222 H196 0.950 . S
C222 C218 1.384 1_655 S
C222 C221 1.374 . S
C223 C220 1.505 1_554 S
C223 C224 1.379 1_655 S
C223 C225 1.377 1_554 S
C224 H197 0.950 . S
C224 C210 1.377 . S
C224 C223 1.379 1_455 S
C225 C209 1.377 . S
C225 C223 1.377 1_556 S
C225 C226 1.524 . S
C226 C225 1.524 . S
C226 C227 1.397 . S
C226 C231 1.363 . S
C227 H198 0.950 . S
C227 C226 1.397 . S
C227 C228 1.334 . S
C228 H199 0.950 . S
C228 C227 1.334 . S
C228 C229 1.287 . S
C229 C228 1.287 . S
C229 C230 1.524 . S
C229 H232 0.999 . S
C230 H200 0.950 . S
C230 C229 1.524 . S
C230 C231 1.415 . S
C231 H201 0.950 . S
C231 C226 1.363 . S
C231 C230 1.415 . S
H232 C229 0.999 . S
H233 C214 0.913 . S
C103 C68 1.480 1_455 S
C118 C56 1.480 1_545 S
C153 C55 1.497 1_545 S
C168 C67 1.499 . S
C203 C58 1.356 1_554 S
C218 C70 1.357 . S
