# Generated by pormake.
# Topology pcu, (6)-cn, num edge types: 1
# Building blocks:
#     Node 0, Type 0, BuildingBlock: LEVNOQ01_clean_sbu_1, # of connection points: 6
#     Edge 1, Type (0, 0), BuildingBlock: UKIBUN_clean_linker_0, # of connection points: 2
#     Edge 2, Type (0, 0), BuildingBlock: UKIBUN_clean_linker_0, # of connection points: 2
#     Edge 3, Type (0, 0), BuildingBlock: UKIBUN_clean_linker_0, # of connection points: 2
# Relax obj value: 0.007
# Max RMSD: 0.050
# Mean RMSD: 0.050
data_MOF--net-pcu--node1-LEVNOQ01_clean_sbu_1--edge1-UKIBUN_clean_linker_0
_symmetry_space_group_name_H-M    P1
_symmetry_Int_Tables_number       1
_symmetry_cell_setting            triclinic
loop_
_symmetry_equiv_pos_as_xyz
'x, y, z'
_cell_length_a     25.686214
_cell_length_b     25.710272
_cell_length_c     25.349527
_cell_angle_alpha  78.196503
_cell_angle_beta   101.5995
_cell_angle_gamma 99.233749
loop_
_atom_site_label
_atom_site_type_symbol
_atom_site_fract_x
_atom_site_fract_y
_atom_site_fract_z
_atom_type_partial_charge
O0 O 0.89649 0.05283 0.94719 0.0
Mg1 Mg 0.9721 0.05373 0.9238 0.0
O2 O 0.90488 0.97303 0.99672 0.0
Mg3 Mg -0.00367 0.98116 -0.00117 0.0
O4 O 0.98598 0.98692 0.90035 0.0
O5 O 0.95864 0.06008 0.84257 0.0
O6 O 0.08909 -0.00616 0.99034 0.0
O7 O 0.98747 0.89001 0.99488 0.0
Mg8 Mg 0.06511 0.9455 0.07976 0.0
O9 O -0.00268 0.9663 0.09624 0.0
O10 O 0.13177 0.0029 0.07183 0.0
O11 O 0.06086 0.87208 0.05288 0.0
O12 O 0.06075 0.927 0.15927 0.0
C13 C 0.03008 0.11443 0.98806 0.0
C14 C 0.87627 0.01064 0.97532 0.0
C15 C 0.97278 0.01287 0.85064 0.0
C16 C 0.13255 0.00723 0.0217 0.0
C17 C 0.02083 0.85723 0.01882 0.0
C18 C 0.01633 0.94744 0.14714 0.0
O19 O 0.03608 0.11351 0.94034 0.0
O20 O 0.00749 0.07206 0.01439 0.0
C21 C 0.94324 0.97599 0.18466 0.0
C22 C 0.98796 0.94823 0.19236 0.0
C23 C 0.91887 0.97706 0.22933 0.0
C24 C 0.89097 0.97713 0.45578 0.0
C25 C 0.96185 0.9336 0.80317 0.0
C26 C 0.97191 -0.01079 0.80199 0.0
C27 C 0.95276 0.91333 0.7542 0.0
C28 C 0.93314 0.88766 0.52373 0.0
H29 H 0.92767 -0.00264 0.14456 0.0
H30 H 0.885 -0.00077 0.2231 0.0
H31 H 0.87572 0.01246 0.42999 0.0
H32 H 0.95849 0.90617 0.84128 0.0
H33 H 0.94298 0.87059 0.75526 0.0
H34 H 0.95041 0.85341 0.5496 0.0
C35 C 0.00697 0.92092 0.2451 0.0
C36 C 0.98275 0.92196 0.28915 0.0
C37 C 0.92726 0.89335 0.46684 0.0
C38 C 0.9758 0.02372 0.75179 0.0
C39 C 0.96709 0.00357 0.70341 0.0
C40 C 0.89676 0.97139 0.51268 0.0
C41 C 0.93899 0.95021 0.28173 0.0
C42 C 0.91725 0.95197 0.32936 0.0
C43 C 0.90765 0.94715 0.37489 0.0
C44 C 0.90683 0.93843 0.43272 0.0
H45 H 0.041 0.89875 0.25273 0.0
H46 H -0.00128 0.90099 0.32937 0.0
H47 H 0.94027 0.86342 0.44956 0.0
H48 H 0.98408 0.06671 0.74959 0.0
H49 H 0.96876 0.03126 0.6651 0.0
H50 H 0.88571 0.00237 0.53004 0.0
C51 C 0.95422 0.94858 0.70411 0.0
C52 C 0.93995 0.93027 0.65246 0.0
C53 C 0.92952 0.92456 0.60526 0.0
C54 C 0.91857 0.92704 0.54684 0.0
C55 C 0.2315 0.03371 0.03828 0.0
C56 C 0.18485 0.01702 0.003 0.0
C57 C 0.28203 0.03339 0.02604 0.0
C58 C 0.4659 0.96496 0.01381 0.0
C59 C 0.78838 0.04701 0.95603 0.0
C60 C 0.81908 0.00488 0.98052 0.0
C61 C 0.73378 0.04117 0.95784 0.0
C62 C 0.52173 0.02306 0.93204 0.0
H63 H 0.22908 0.04485 0.0766 0.0
H64 H 0.31738 0.04432 0.05494 0.0
H65 H 0.44476 0.94256 0.04592 0.0
H66 H 0.80632 0.0844 0.93476 0.0
H67 H 0.7109 0.07398 0.93814 0.0
H68 H 0.54308 0.04603 0.90033 0.0
C69 C 0.18986 0.00317 0.95349 0.0
C70 C 0.24066 0.00277 0.94133 0.0
C71 C 0.46754 0.02774 0.92839 0.0
C72 C 0.79396 0.95707 0.00778 0.0
C73 C 0.7391 0.95131 0.00952 0.0
C74 C 0.52008 0.96029 0.01746 0.0
C75 C 0.28682 0.01652 0.97835 0.0
C76 C 0.33904 0.00971 0.97014 0.0
C77 C 0.38443 0.00537 0.96735 0.0
C78 C 0.43955 -0.00107 0.96944 0.0
H79 H 0.15474 -0.01005 0.92558 0.0
H80 H 0.24384 -0.01031 0.90421 0.0
H81 H 0.44773 0.05424 0.89396 0.0
H82 H 0.81643 0.9239 0.02703 0.0
H83 H 0.72027 0.91402 0.03012 0.0
H84 H 0.54008 0.93437 0.0523 0.0
C85 C 0.70885 -0.00675 0.98414 0.0
C86 C 0.65209 0.98755 0.98394 0.0
C87 C 0.60459 0.98675 0.98149 0.0
C88 C 0.54823 -0.01043 0.97674 0.0
C89 C 0.97122 0.78279 0.96981 0.0
C90 C 0.01261 0.80106 0.00985 0.0
C91 C 0.96358 0.72892 0.9636 0.0
C92 C 0.011 0.51452 0.95975 0.0
C93 C 0.00964 0.17405 0.04638 0.0
C94 C 0.03695 0.16675 0.00606 0.0
C95 C 0.00654 0.22576 0.05436 0.0
C96 C 0.98997 0.4444 0.05541 0.0
H97 H 0.94478 0.80996 0.9435 0.0
H98 H 0.93149 0.71539 0.93269 0.0
H99 H 0.01974 0.54136 0.9228 0.0
H100 H 0.98797 0.14019 0.06932 0.0
H101 H 0.98301 0.23083 0.08354 0.0
H102 H 0.98179 0.41766 0.09261 0.0
C103 C 0.04617 0.76447 0.04314 0.0
C104 C 0.03838 0.711 0.03703 0.0
C105 C 0.98277 0.49842 0.048 0.0
C106 C 0.06435 0.21181 0.97691 0.0
C107 C 0.06132 0.26326 0.98502 0.0
C108 C 0.0182 0.46054 0.96715 0.0
C109 C -0.00291 0.69291 -0.00252 0.0
C110 C 0.98988 0.63717 0.99285 0.0
C111 C 0.98919 0.58988 0.99421 0.0
C112 C -0.00663 0.53365 0.0002 0.0
H113 H 0.07829 0.7769 0.07459 0.0
H114 H 0.06456 0.68363 0.06354 0.0
H115 H 0.96951 0.51277 0.0798 0.0
H116 H 0.08595 0.20755 0.94577 0.0
H117 H 0.08064 0.29748 0.96021 0.0
H118 H 0.03202 0.44634 0.93559 0.0
C119 C 0.031 0.27052 0.02243 0.0
C120 C 0.02141 0.32386 0.02399 0.0
C121 C 0.01562 0.36985 0.02234 0.0
C122 C 0.00798 0.42538 0.01511 0.0
loop_
_geom_bond_atom_site_label_1
_geom_bond_atom_site_label_2
_geom_bond_distance
_geom_bond_site_symmetry_2
_ccdc_geom_bond_type
O0 Mg1 1.990 . S
O0 C14 1.253 . S
Mg1 O0 1.990 . S
Mg1 O4 2.180 . S
Mg1 O5 2.117 . S
Mg1 O19 2.030 . S
O2 Mg3 2.072 1_665 S
O2 C14 1.260 1_564 S
Mg3 O2 2.072 1_445 S
Mg3 O4 2.099 1_454 S
Mg3 O6 2.079 1_554 S
Mg3 O7 2.072 1_444 S
Mg3 O9 2.099 1_545 S
Mg3 O20 2.079 . S
O4 Mg1 2.180 . S
O4 Mg3 2.099 1_656 S
O4 C15 1.279 . S
O5 Mg1 2.117 . S
O5 C15 1.250 . S
O6 Mg3 2.079 1_556 S
O6 C16 1.264 1_546 S
O7 Mg3 2.072 1_666 S
O7 C17 1.260 1_656 S
Mg8 O9 2.180 . S
Mg8 O10 2.030 . S
Mg8 O11 1.990 . S
Mg8 O12 2.117 . S
O9 Mg3 2.099 1_565 S
O9 Mg8 2.180 . S
O9 C18 1.279 . S
O10 Mg8 2.030 . S
O10 C16 1.248 . S
O11 Mg8 1.990 . S
O11 C17 1.253 . S
O12 Mg8 2.117 . S
O12 C18 1.250 . S
C13 O19 1.248 . S
C13 O20 1.264 1_656 S
C14 O0 1.253 . S
C14 O2 1.260 1_546 S
C15 O4 1.279 . S
C15 O5 1.250 . S
C16 O6 1.264 1_564 S
C16 O10 1.248 . S
C17 O7 1.260 1_454 S
C17 O11 1.253 . S
C18 O9 1.279 . S
C18 O12 1.250 . S
O19 Mg1 2.030 . S
O19 C13 1.248 . S
O20 Mg3 2.079 . S
O20 C13 1.264 1_454 S
C21 C22 1.420 1_545 S
C21 C23 1.385 . S
C21 H29 0.928 . S
C22 C21 1.420 1_565 S
C22 C35 1.420 1_655 S
C23 C21 1.385 . S
C23 H30 0.929 . S
C23 C41 1.407 1_545 S
C24 H31 0.928 . S
C24 C40 1.374 . S
C24 C44 1.387 1_545 S
C25 C26 1.420 1_455 S
C25 C27 1.385 . S
C25 H32 0.928 . S
C26 C25 1.420 1_655 S
C26 C38 1.420 1_565 S
C27 C25 1.385 . S
C27 H33 0.929 . S
C27 C51 1.407 1_455 S
C28 H34 0.928 . S
C28 C37 1.374 . S
C28 C54 1.388 . S
H29 C21 0.928 . S
H30 C23 0.929 . S
H31 C24 0.928 . S
H32 C25 0.928 . S
H33 C27 0.929 . S
H34 C28 0.928 . S
C35 C22 1.420 1_455 S
C35 C36 1.385 . S
C35 H45 0.928 . S
C36 C35 1.385 . S
C36 C41 1.407 1_455 S
C36 H46 0.929 . S
C37 C28 1.374 . S
C37 C44 1.388 . S
C37 H47 0.928 . S
C38 C26 1.420 1_545 S
C38 C39 1.385 . S
C38 H48 0.928 . S
C39 C38 1.385 . S
C39 H49 0.929 . S
C39 C51 1.407 1_545 S
C40 C24 1.374 . S
C40 H50 0.928 . S
C40 C54 1.387 1_545 S
C41 C23 1.407 1_565 S
C41 C36 1.407 1_655 S
C41 C42 1.428 . S
C42 C41 1.428 . S
C42 C43 1.230 . S
C43 C42 1.230 . S
C43 C44 1.405 . S
C44 C24 1.387 1_565 S
C44 C37 1.388 . S
C44 C43 1.405 . S
H45 C35 0.928 . S
H46 C36 0.929 . S
H47 C37 0.928 . S
H48 C38 0.928 . S
H49 C39 0.929 . S
H50 C40 0.928 . S
C51 C27 1.407 1_655 S
C51 C39 1.407 1_565 S
C51 C52 1.428 . S
C52 C51 1.428 . S
C52 C53 1.230 . S
C53 C52 1.230 . S
C53 C54 1.405 . S
C54 C28 1.388 . S
C54 C40 1.387 1_565 S
C54 C53 1.405 . S
C55 C56 1.406 1_565 S
C55 C57 1.385 . S
C55 H63 0.928 . S
C56 C55 1.406 1_545 S
C56 C69 1.426 1_554 S
C57 C55 1.385 . S
C57 H64 0.929 . S
C57 C75 1.407 1_554 S
C58 H65 0.928 . S
C58 C74 1.374 . S
C58 C78 1.388 1_554 S
C59 C60 1.428 1_556 S
C59 C61 1.385 . S
C59 H66 0.928 . S
C60 C59 1.428 1_554 S
C60 C72 1.412 1_545 S
C61 C59 1.385 . S
C61 H67 0.929 . S
C61 C85 1.407 1_545 S
C62 H68 0.928 1_565 S
C62 C71 1.374 . S
C62 C88 1.388 . S
H63 C55 0.928 . S
H64 C57 0.929 . S
H65 C58 0.928 . S
H66 C59 0.928 . S
H67 C61 0.929 . S
H68 C62 0.928 1_545 S
C69 C56 1.426 1_556 S
C69 C70 1.385 . S
C69 H79 0.928 . S
C70 C69 1.385 . S
C70 C75 1.407 1_545 S
C70 H80 0.929 . S
C71 C62 1.374 . S
C71 C78 1.388 . S
C71 H81 0.928 1_565 S
C72 C60 1.412 1_565 S
C72 C73 1.385 . S
C72 H82 0.928 . S
C73 C72 1.385 . S
C73 H83 0.929 . S
C73 C85 1.407 1_554 S
C74 C58 1.374 . S
C74 H84 0.928 . S
C74 C88 1.388 1_554 S
C75 C57 1.407 1_556 S
C75 C70 1.407 1_565 S
C75 C76 1.428 . S
C76 C75 1.428 . S
C76 C77 1.230 . S
C77 C76 1.230 . S
C77 C78 1.405 . S
C78 C58 1.388 1_556 S
C78 C71 1.388 . S
C78 C77 1.405 . S
H79 C69 0.928 . S
H80 C70 0.929 . S
H81 C71 0.928 1_545 S
H82 C72 0.928 . S
H83 C73 0.929 . S
H84 C74 0.928 . S
C85 C61 1.407 1_565 S
C85 C73 1.407 1_556 S
C85 C86 1.428 . S
C86 C85 1.428 . S
C86 C87 1.230 . S
C87 C86 1.230 . S
C87 C88 1.405 . S
C88 C62 1.388 . S
C88 C74 1.388 1_556 S
C88 C87 1.405 . S
C89 C90 1.420 . S
C89 C91 1.385 . S
C89 H97 0.928 . S
C90 C89 1.420 . S
C90 C103 1.420 1_456 S
C91 C89 1.385 . S
C91 H98 0.929 . S
C91 C109 1.407 1_556 S
C92 H99 0.928 . S
C92 C108 1.374 . S
C92 C112 1.388 1_556 S
C93 C94 1.420 1_654 S
C93 C95 1.385 1_655 S
C93 H100 0.928 . S
C94 C93 1.420 1_456 S
C94 C106 1.420 . S
C95 C93 1.385 1_455 S
C95 H101 0.924 1_455 S
C95 C119 1.407 . S
C96 H102 0.928 . S
C96 C105 1.374 . S
C96 C122 1.388 . S
H97 C89 0.928 . S
H98 C91 0.929 . S
H99 C92 0.928 . S
H100 C93 0.928 . S
H101 C95 0.924 1_655 S
H102 C96 0.928 . S
C103 C90 1.420 1_654 S
C103 C104 1.385 1_655 S
C103 H113 0.928 . S
C104 C103 1.385 1_455 S
C104 C109 1.407 . S
C104 H114 0.927 1_455 S
C105 C96 1.374 . S
C105 C112 1.388 . S
C105 H115 0.928 . S
C106 C94 1.420 . S
C106 C107 1.385 . S
C106 H116 0.928 . S
C107 C106 1.385 . S
C107 H117 0.929 . S
C107 C119 1.407 1_556 S
C108 C92 1.374 . S
C108 H118 0.928 . S
C108 C122 1.388 1_556 S
C109 C91 1.407 1_554 S
C109 C104 1.407 . S
C109 C110 1.428 . S
C110 C109 1.428 . S
C110 C111 1.230 . S
C111 C110 1.230 . S
C111 C112 1.405 . S
C112 C92 1.388 1_554 S
C112 C105 1.388 . S
C112 C111 1.405 . S
H113 C103 0.928 . S
H114 C104 0.927 1_655 S
H115 C105 0.928 . S
H116 C106 0.928 . S
H117 C107 0.929 . S
H118 C108 0.928 . S
C119 C95 1.407 . S
C119 C107 1.407 1_554 S
C119 C120 1.428 . S
C120 C119 1.428 . S
C120 C121 1.230 . S
C121 C120 1.230 . S
C121 C122 1.405 . S
C122 C96 1.388 . S
C122 C108 1.388 1_554 S
C122 C121 1.405 . S
C22 C18 1.297 1_655 S
C26 C15 1.287 1_565 S
C56 C16 1.451 1_545 S
C60 C14 1.437 1_554 S
C90 C17 1.437 1_556 S
C94 C13 1.460 1_455 S
