# Generated by pormake.
# Topology sxc, (6)-cn, num edge types: 1
# Building blocks:
#     Node 0, Type 0, BuildingBlock: CUKXOW_clean_sbu_0, # of connection points: 6
#     Node 1, Type 0, BuildingBlock: CUKXOW_clean_sbu_0, # of connection points: 6
#     Node 2, Type 0, BuildingBlock: CUKXOW_clean_sbu_0, # of connection points: 6
#     Edge 3, Type (0, 0), None
#     Edge 4, Type (0, 0), None
#     Edge 5, Type (0, 0), None
#     Edge 6, Type (0, 0), None
#     Edge 7, Type (0, 0), None
#     Edge 8, Type (0, 0), None
#     Edge 9, Type (0, 0), None
#     Edge 10, Type (0, 0), None
#     Edge 11, Type (0, 0), None
# Relax obj value: 0.147
# Max RMSD: 0.138
# Mean RMSD: 0.081
data_MOF--net-sxc--node1-CUKXOW_clean_sbu_0--edge1-none
_symmetry_space_group_name_H-M    P1
_symmetry_Int_Tables_number       1
_symmetry_cell_setting            triclinic
loop_
_symmetry_equiv_pos_as_xyz
'x, y, z'
_cell_length_a     6.5657999
_cell_length_b     8.2294131
_cell_length_c     21.195998
_cell_angle_alpha  94.502304
_cell_angle_beta   97.888645
_cell_angle_gamma 121.77094
loop_
_atom_site_label
_atom_site_type_symbol
_atom_site_fract_x
_atom_site_fract_y
_atom_site_fract_z
_atom_type_partial_charge
Tb0 Tb 1.072 0.16785 -0.00843 0.0
C1 C 0.14245 0.11822 0.12547 0.0
Tb2 Tb 0.17175 1.02865 -0.01176 0.0
O3 O 0.75662 0.85276 0.97193 0.0
O4 O 0.77173 0.85791 0.97482 0.0
O5 O 0.09672 0.22856 0.09459 0.0
C6 C 0.18308 0.70597 -0.00977 0.0
O7 O 0.17471 1.00042 0.09033 0.0
C8 C 0.51316 0.48777 0.97728 0.0
C9 C 0.08914 0.07625 0.85391 0.0
O10 O 0.24123 0.83433 0.04049 0.0
O11 O 0.17589 0.78293 0.93945 0.0
O12 O 0.48748 0.34334 0.00765 0.0
O13 O 0.47233 0.33813 0.00477 0.0
O14 O 0.13654 0.96606 0.88446 0.0
O15 O 1.06139 0.19577 0.8896 0.0
C16 C 1.06493 0.49245 -0.00991 0.0
O17 O 1.00405 0.36353 0.93969 0.0
O18 O 1.07264 0.41544 0.04085 0.0
C19 C 0.73103 0.70812 0.00219 0.0
Tb20 Tb 0.28962 0.31545 0.34013 0.0
C21 C 0.13558 0.11345 0.19378 0.0
Tb22 Tb 0.92835 0.88271 0.30593 0.0
O23 O 0.64452 0.33684 0.34734 0.0
O24 O 0.31039 0.0777 0.32013 0.0
O25 O 0.27034 0.27934 0.2359 0.0
C26 C 1.04936 0.64867 0.32257 0.0
O27 O 0.99189 0.94225 0.20993 0.0
C28 C 0.676 1.04714 0.31779 0.0
C29 C 0.08122 0.08489 0.45231 0.0
O30 O 0.87006 0.60816 0.27452 0.0
O31 O 0.12345 0.7975 0.36598 0.0
O32 O 0.5727 0.86081 0.29742 0.0
O33 O 0.90709 0.12031 0.32527 0.0
O34 O 0.93869 0.92069 0.40959 0.0
O35 O 0.23373 0.25471 0.43655 0.0
C36 C 0.16992 0.55123 0.32527 0.0
O37 O 0.34847 0.5899 0.37321 0.0
O38 O 0.0965 0.404 0.28126 0.0
C39 C 0.54119 0.15055 0.32718 0.0
Tb40 Tb 0.16771 0.25291 0.66519 0.0
C41 C 0.08984 0.08007 0.78531 0.0
Tb42 Tb 0.99293 0.90477 0.6403 0.0
O43 O 0.87648 0.25874 0.69947 0.0
O44 O 0.79242 1.0403 0.62276 0.0
O45 O 0.22028 0.24553 0.76675 0.0
C46 C 0.66856 0.56476 0.64033 0.0
O47 O 0.95743 0.92028 0.74191 0.0
C48 C 0.45516 1.05561 0.64529 0.0
C49 C 1.07166 0.07826 0.52067 0.0
O50 O 0.873 0.65026 0.68194 0.0
O51 O 0.70582 0.62745 0.58679 0.0
O52 O 0.2849 0.90219 0.60511 0.0
O53 O 0.36723 0.11693 0.68299 0.0
O54 O 0.9277 0.91485 0.53885 0.0
O55 O 0.21566 0.23453 0.56495 0.0
C56 C 0.49172 0.59225 0.66452 0.0
O57 O 0.28686 0.50636 0.62295 0.0
O58 O 0.45644 0.53016 0.71825 0.0
C59 C 0.70566 0.1039 0.66006 0.0
loop_
_geom_bond_atom_site_label_1
_geom_bond_atom_site_label_2
_geom_bond_distance
_geom_bond_site_symmetry_2
_ccdc_geom_bond_type
Tb0 O3 2.453 1_545 S
Tb0 O4 2.596 1_546 S
Tb0 O5 2.374 1_556 S
Tb0 O13 2.343 1_656 S
Tb0 O15 2.353 . S
Tb0 O17 2.427 . S
Tb0 O18 2.513 1_556 S
C1 O5 1.251 1_455 S
C1 O7 1.263 . S
Tb2 O4 2.343 1_455 S
Tb2 O7 2.353 1_565 S
Tb2 O10 2.427 . S
Tb2 O11 2.513 1_554 S
Tb2 O12 2.453 1_565 S
Tb2 O13 2.596 1_565 S
Tb2 O14 2.374 1_554 S
O3 Tb0 2.453 1_565 S
O3 C19 1.245 . S
O4 Tb0 2.596 1_564 S
O4 Tb2 2.343 1_655 S
O4 C19 1.259 1_554 S
O5 Tb0 2.374 1_554 S
O5 C1 1.251 1_655 S
C6 O10 1.275 . S
C6 O11 1.246 1_554 S
O7 C1 1.263 . S
O7 Tb2 2.353 1_545 S
C8 O12 1.245 . S
C8 O13 1.259 . S
C9 O14 1.250 1_545 S
C9 O15 1.263 1_455 S
O10 Tb2 2.427 . S
O10 C6 1.275 . S
O11 Tb2 2.513 1_556 S
O11 C6 1.246 1_556 S
O12 Tb2 2.453 1_545 S
O12 C8 1.245 . S
O13 Tb0 2.343 1_454 S
O13 Tb2 2.596 1_545 S
O13 C8 1.259 . S
O14 Tb2 2.374 1_556 S
O14 C9 1.250 1_565 S
O15 Tb0 2.353 . S
O15 C9 1.263 1_655 S
C16 O17 1.275 . S
C16 O18 1.246 1_556 S
O17 Tb0 2.427 . S
O17 C16 1.275 . S
O18 Tb0 2.513 1_554 S
O18 C16 1.246 1_554 S
C19 O3 1.245 . S
C19 O4 1.259 1_556 S
Tb20 O23 2.453 . S
Tb20 O24 2.596 1_545 S
Tb20 O25 2.374 . S
Tb20 O33 2.343 1_455 S
Tb20 O35 2.353 . S
Tb20 O37 2.427 . S
Tb20 O38 2.513 . S
C21 O25 1.251 1_665 S
C21 O27 1.263 . S
Tb22 O24 2.343 1_655 S
Tb22 O27 2.353 . S
Tb22 O30 2.427 . S
Tb22 O31 2.513 . S
Tb22 O32 2.453 . S
Tb22 O33 2.596 1_565 S
Tb22 O34 2.374 . S
O23 Tb20 2.453 . S
O23 C39 1.245 . S
O24 Tb20 2.596 1_565 S
O24 Tb22 2.343 1_455 S
O24 C39 1.259 1_565 S
O25 Tb20 2.374 . S
O25 C21 1.251 1_445 S
C26 O30 1.275 . S
C26 O31 1.246 . S
O27 C21 1.263 . S
O27 Tb22 2.353 . S
C28 O32 1.245 . S
C28 O33 1.259 1_565 S
C29 O34 1.250 1_445 S
C29 O35 1.263 . S
O30 Tb22 2.427 . S
O30 C26 1.275 . S
O31 Tb22 2.513 . S
O31 C26 1.246 . S
O32 Tb22 2.453 . S
O32 C28 1.245 . S
O33 Tb20 2.343 1_655 S
O33 Tb22 2.596 1_545 S
O33 C28 1.259 1_545 S
O34 Tb22 2.374 . S
O34 C29 1.250 1_665 S
O35 Tb20 2.353 . S
O35 C29 1.263 . S
C36 O37 1.275 . S
C36 O38 1.246 . S
O37 Tb20 2.427 . S
O37 C36 1.275 . S
O38 Tb20 2.513 . S
O38 C36 1.246 . S
C39 O23 1.245 . S
C39 O24 1.259 1_545 S
Tb40 O43 2.453 1_455 S
Tb40 O44 2.596 1_455 S
Tb40 O45 2.374 . S
Tb40 O53 2.343 . S
Tb40 O55 2.353 . S
Tb40 O57 2.427 . S
Tb40 O58 2.513 . S
C41 O45 1.251 . S
C41 O47 1.263 1_545 S
Tb42 O44 2.343 1_565 S
Tb42 O47 2.353 1_655 S
Tb42 O50 2.427 . S
Tb42 O51 2.513 . S
Tb42 O52 2.453 1_655 S
Tb42 O53 2.596 1_665 S
Tb42 O54 2.374 . S
O43 Tb40 2.453 1_655 S
O43 C59 1.245 . S
O44 Tb40 2.596 1_655 S
O44 Tb42 2.343 1_545 S
O44 C59 1.259 . S
O45 Tb40 2.374 . S
O45 C41 1.251 . S
C46 O50 1.275 . S
C46 O51 1.246 . S
O47 C41 1.263 1_565 S
O47 Tb42 2.353 1_455 S
C48 O52 1.245 1_545 S
C48 O53 1.259 . S
C49 O54 1.250 1_545 S
C49 O55 1.263 1_655 S
O50 Tb42 2.427 . S
O50 C46 1.275 . S
O51 Tb42 2.513 . S
O51 C46 1.246 . S
O52 Tb42 2.453 1_455 S
O52 C48 1.245 1_565 S
O53 Tb40 2.343 . S
O53 Tb42 2.596 1_445 S
O53 C48 1.259 . S
O54 Tb42 2.374 . S
O54 C49 1.250 1_565 S
O55 Tb40 2.353 . S
O55 C49 1.263 1_455 S
C56 O57 1.275 . S
C56 O58 1.246 . S
O57 Tb40 2.427 . S
O57 C56 1.275 . S
O58 Tb40 2.513 . S
O58 C56 1.246 . S
C59 O43 1.245 . S
C59 O44 1.259 . S
C16 C6 1.344 1_656 S
C39 C28 2.184 1_545 S
C46 C56 0.851 . S
C59 C48 2.070 . S
C19 C8 3.393 1_556 S
C36 C26 0.882 1_455 S
C21 C1 1.498 1_665 S
C29 C49 1.511 1_455 S
C41 C9 1.522 . S
