# Generated by pormake.
# Topology unh, (4)-cn, num edge types: 1
# Building blocks:
#     Node 0, Type 0, BuildingBlock: MUDLON_clean_sbu_0, # of connection points: 4
#     Node 1, Type 0, BuildingBlock: MUDLON_clean_sbu_0, # of connection points: 4
#     Node 2, Type 0, BuildingBlock: MUDLON_clean_sbu_0, # of connection points: 4
#     Node 3, Type 0, BuildingBlock: MUDLON_clean_sbu_0, # of connection points: 4
#     Node 4, Type 0, BuildingBlock: MUDLON_clean_sbu_0, # of connection points: 4
#     Node 5, Type 0, BuildingBlock: MUDLON_clean_sbu_0, # of connection points: 4
#     Edge 6, Type (0, 0), None
#     Edge 7, Type (0, 0), None
#     Edge 8, Type (0, 0), None
#     Edge 9, Type (0, 0), None
#     Edge 10, Type (0, 0), None
#     Edge 11, Type (0, 0), None
#     Edge 12, Type (0, 0), None
#     Edge 13, Type (0, 0), None
#     Edge 14, Type (0, 0), None
#     Edge 15, Type (0, 0), None
#     Edge 16, Type (0, 0), None
#     Edge 17, Type (0, 0), None
# Relax obj value: 0.034
# Max RMSD: 0.245
# Mean RMSD: 0.245
data_MOF--net-unh--node1-MUDLON_clean_sbu_0--edge1-none
_symmetry_space_group_name_H-M    P1
_symmetry_Int_Tables_number       1
_symmetry_cell_setting            triclinic
loop_
_symmetry_equiv_pos_as_xyz
'x, y, z'
_cell_length_a     20.91202
_cell_length_b     20.912194
_cell_length_c     10.635239
_cell_angle_alpha  89.99905
_cell_angle_beta   90.000259
_cell_angle_gamma 120.00129
loop_
_atom_site_label
_atom_site_type_symbol
_atom_site_fract_x
_atom_site_fract_y
_atom_site_fract_z
_atom_type_partial_charge
Mg0 Mg 0.14732 0.54882 0.11876 0.0
C1 C 0.21945 0.68601 0.96108 0.0
O2 O 0.19586 0.63557 0.87246 0.0
C3 C 0.03682 0.54197 0.32007 0.0
O4 O 0.03395 0.59371 0.25467 0.0
C5 C 0.25479 0.52053 0.26562 0.0
O6 O 0.20967 0.51243 0.35797 0.0
O7 O 0.23909 0.5301 0.15413 0.0
O8 O 0.20248 0.66607 0.07499 0.0
O9 O 0.0783 0.48694 0.96076 0.0
C10 C 0.03026 0.50425 0.92956 0.0
O11 O 0.02646 0.55628 0.99237 0.0
O12 O 0.07875 0.5175 0.28567 0.0
Mg13 Mg 0.60492 0.14411 0.28541 0.0
C14 C 0.53986 0.21623 0.12775 0.0
O15 O 0.56671 0.19264 0.03912 0.0
C16 C 0.50127 0.0336 0.48673 0.0
O17 O 0.44666 0.03073 0.42134 0.0
C18 C 0.74068 0.25157 0.43228 0.0
O19 O 0.70365 0.20645 0.52462 0.0
O20 O 0.71541 0.23588 0.32079 0.0
O21 O 0.54282 0.19926 0.24165 0.0
O22 O 0.59778 0.07509 0.12741 0.0
C23 C 0.53244 0.02704 0.09622 0.0
O24 O 0.4766 0.02323 0.15904 0.0
O25 O 0.56767 0.07553 0.45232 0.0
Mg26 Mg 0.46726 0.60171 0.45208 0.0
C27 C 0.33007 0.53665 0.2944 0.0
O28 O 0.3805 0.56347 0.20575 0.0
C29 C 0.4741 0.49806 0.65341 0.0
O30 O 0.42235 0.44345 0.58803 0.0
C31 C 0.49555 0.73747 0.59895 0.0
O32 O 0.50364 0.70044 0.69129 0.0
O33 O 0.48598 0.71221 0.48746 0.0
O34 O 0.35 0.53962 0.40832 0.0
O35 O 0.52913 0.59457 0.29408 0.0
C36 C 0.51184 0.52923 0.2629 0.0
O37 O 0.45981 0.47339 0.32573 0.0
O38 O 0.49857 0.56446 0.61899 0.0
Mg39 Mg 0.87197 0.46403 0.61876 0.0
C40 C 0.79984 0.32685 0.46107 0.0
O41 O 0.82344 0.37728 0.37242 0.0
C42 C 0.98247 0.47087 0.82007 0.0
O43 O 0.98534 0.41914 0.75466 0.0
C44 C 0.76451 0.49233 0.76561 0.0
O45 O 0.80963 0.50043 0.85796 0.0
O46 O 0.7802 0.48276 0.65413 0.0
O47 O 0.8168 0.34678 0.57498 0.0
O48 O 0.94099 0.52591 0.46076 0.0
C49 C 0.98902 0.5086 0.42956 0.0
O50 O 0.99282 0.45656 0.49236 0.0
O51 O 0.94053 0.49534 0.78567 0.0
Mg52 Mg 0.41437 0.86874 0.78542 0.0
C53 C 0.47943 0.79663 0.62773 0.0
O54 O 0.45261 0.82023 0.53908 0.0
C55 C 0.51803 0.97926 0.98673 0.0
O56 O 0.57264 0.98215 0.92131 0.0
C57 C 0.2786 0.76129 0.93229 0.0
O58 O 0.3156 0.80641 1.02465 0.0
O59 O 0.30387 0.77697 0.82081 0.0
O60 O 0.47646 0.81359 0.74165 0.0
O61 O 0.42151 0.93777 0.62743 0.0
C62 C 0.48685 0.9858 0.59622 0.0
O63 O 0.54269 0.9896 0.659 0.0
O64 O 0.45162 0.93731 0.95234 0.0
Mg65 Mg 0.55204 0.41115 0.9521 0.0
C66 C 0.68922 0.47621 0.7944 0.0
O67 O 0.6388 0.44939 0.70575 0.0
C68 C 0.5452 0.51481 0.1534 0.0
O69 O 0.59692 0.56942 0.08797 0.0
C70 C 0.52372 0.27538 0.09896 0.0
O71 O 0.51561 0.31238 0.19132 0.0
O72 O 0.53332 0.30066 0.98748 0.0
O73 O 0.66929 0.47324 0.90831 0.0
O74 O 0.49016 0.4183 0.79411 0.0
C75 C 0.50748 0.48364 0.76289 0.0
O76 O 0.55953 0.53948 0.82567 0.0
O77 O 0.52074 0.44841 0.11902 0.0
loop_
_geom_bond_atom_site_label_1
_geom_bond_atom_site_label_2
_geom_bond_distance
_geom_bond_site_symmetry_2
_ccdc_geom_bond_type
Mg0 O7 2.141 . S
Mg0 O8 2.048 1_554 S
Mg0 O9 2.048 1_554 S
Mg0 O12 2.141 . S
C1 O2 1.313 . S
C1 O8 1.195 . S
O2 C1 1.313 . S
C3 O4 1.245 . S
C3 O12 1.289 . S
O4 C3 1.245 . S
C5 O6 1.245 . S
C5 O7 1.289 . S
O6 C5 1.245 . S
O7 Mg0 2.141 . S
O7 C5 1.289 . S
O8 Mg0 2.048 1_556 S
O8 C1 1.195 . S
O9 Mg0 2.048 1_556 S
O9 C10 1.195 . S
C10 O9 1.195 . S
C10 O11 1.313 . S
O11 C10 1.313 . S
O12 Mg0 2.141 . S
O12 C3 1.289 . S
Mg13 O20 2.141 . S
Mg13 O21 2.048 . S
Mg13 O22 2.048 . S
Mg13 O25 2.141 . S
C14 O15 1.313 . S
C14 O21 1.195 . S
O15 C14 1.313 . S
C16 O17 1.245 . S
C16 O25 1.289 . S
O17 C16 1.245 . S
C18 O19 1.245 . S
C18 O20 1.289 . S
O19 C18 1.245 . S
O20 Mg13 2.141 . S
O20 C18 1.289 . S
O21 Mg13 2.048 . S
O21 C14 1.195 . S
O22 Mg13 2.048 . S
O22 C23 1.195 . S
C23 O22 1.195 . S
C23 O24 1.313 . S
O24 C23 1.313 . S
O25 Mg13 2.141 . S
O25 C16 1.289 . S
Mg26 O33 2.141 . S
Mg26 O34 2.048 . S
Mg26 O35 2.048 . S
Mg26 O38 2.141 . S
C27 O28 1.313 . S
C27 O34 1.195 . S
O28 C27 1.313 . S
C29 O30 1.245 . S
C29 O38 1.289 . S
O30 C29 1.245 . S
C31 O32 1.245 . S
C31 O33 1.289 . S
O32 C31 1.245 . S
O33 Mg26 2.141 . S
O33 C31 1.289 . S
O34 Mg26 2.048 . S
O34 C27 1.195 . S
O35 Mg26 2.048 . S
O35 C36 1.195 . S
C36 O35 1.195 . S
C36 O37 1.313 . S
O37 C36 1.313 . S
O38 Mg26 2.141 . S
O38 C29 1.289 . S
Mg39 O46 2.141 . S
Mg39 O47 2.048 . S
Mg39 O48 2.048 . S
Mg39 O51 2.141 . S
C40 O41 1.313 . S
C40 O47 1.195 . S
O41 C40 1.313 . S
C42 O43 1.245 . S
C42 O51 1.289 . S
O43 C42 1.245 . S
C44 O45 1.245 . S
C44 O46 1.289 . S
O45 C44 1.245 . S
O46 Mg39 2.141 . S
O46 C44 1.289 . S
O47 Mg39 2.048 . S
O47 C40 1.195 . S
O48 Mg39 2.048 . S
O48 C49 1.195 . S
C49 O48 1.195 . S
C49 O50 1.313 . S
O50 C49 1.313 . S
O51 Mg39 2.141 . S
O51 C42 1.289 . S
Mg52 O59 2.141 . S
Mg52 O60 2.048 . S
Mg52 O61 2.048 . S
Mg52 O64 2.141 . S
C53 O54 1.313 . S
C53 O60 1.195 . S
O54 C53 1.313 . S
C55 O56 1.245 . S
C55 O64 1.289 . S
O56 C55 1.245 . S
C57 O58 1.245 . S
C57 O59 1.289 . S
O58 C57 1.245 . S
O59 Mg52 2.141 . S
O59 C57 1.289 . S
O60 Mg52 2.048 . S
O60 C53 1.195 . S
O61 Mg52 2.048 . S
O61 C62 1.195 . S
C62 O61 1.195 . S
C62 O63 1.313 . S
O63 C62 1.313 . S
O64 Mg52 2.141 . S
O64 C55 1.289 . S
Mg65 O72 2.141 1_556 S
Mg65 O73 2.048 . S
Mg65 O74 2.048 . S
Mg65 O77 2.141 1_556 S
C66 O67 1.313 . S
C66 O73 1.195 . S
O67 C66 1.313 . S
C68 O69 1.245 . S
C68 O77 1.289 . S
O69 C68 1.245 . S
C70 O71 1.245 . S
C70 O72 1.289 . S
O71 C70 1.245 . S
O72 Mg65 2.141 1_554 S
O72 C70 1.289 . S
O73 Mg65 2.048 . S
O73 C66 1.195 . S
O74 Mg65 2.048 . S
O74 C75 1.195 . S
C75 O74 1.195 . S
C75 O76 1.313 . S
O76 C75 1.313 . S
O77 Mg65 2.141 1_554 S
O77 C68 1.289 . S
C10 C42 1.957 1_455 S
C55 C23 1.957 1_566 S
C36 C68 1.957 . S
C49 C3 1.957 1_655 S
C16 C62 1.957 1_545 S
C75 C29 1.957 . S
C5 C27 1.988 . S
C18 C40 1.988 . S
C53 C31 1.988 . S
C66 C44 1.988 . S
C57 C1 1.988 . S
C70 C14 1.988 . S
