# Generated by pormake.
# Topology ilc, (8)-cn, num edge types: 1
# Building blocks:
#     Node 0, Type 0, BuildingBlock: NUHRAL_clean_sbu_3, # of connection points: 8
#     Node 1, Type 0, BuildingBlock: NUHRAL_clean_sbu_3, # of connection points: 8
#     Node 2, Type 0, BuildingBlock: NUHRAL_clean_sbu_3, # of connection points: 8
#     Edge 3, Type (0, 0), BuildingBlock: OJICUG_clean_linker_0, # of connection points: 2
#     Edge 4, Type (0, 0), BuildingBlock: OJICUG_clean_linker_0, # of connection points: 2
#     Edge 5, Type (0, 0), BuildingBlock: OJICUG_clean_linker_0, # of connection points: 2
#     Edge 6, Type (0, 0), BuildingBlock: OJICUG_clean_linker_0, # of connection points: 2
#     Edge 7, Type (0, 0), BuildingBlock: OJICUG_clean_linker_0, # of connection points: 2
#     Edge 8, Type (0, 0), BuildingBlock: OJICUG_clean_linker_0, # of connection points: 2
#     Edge 9, Type (0, 0), BuildingBlock: OJICUG_clean_linker_0, # of connection points: 2
#     Edge 10, Type (0, 0), BuildingBlock: OJICUG_clean_linker_0, # of connection points: 2
#     Edge 11, Type (0, 0), BuildingBlock: OJICUG_clean_linker_0, # of connection points: 2
#     Edge 12, Type (0, 0), BuildingBlock: OJICUG_clean_linker_0, # of connection points: 2
#     Edge 13, Type (0, 0), BuildingBlock: OJICUG_clean_linker_0, # of connection points: 2
#     Edge 14, Type (0, 0), BuildingBlock: OJICUG_clean_linker_0, # of connection points: 2
# Relax obj value: 0.199
# Max RMSD: 0.208
# Mean RMSD: 0.208
data_MOF--net-ilc--node1-NUHRAL_clean_sbu_3--edge1-OJICUG_clean_linker_0
_symmetry_space_group_name_H-M    P1
_symmetry_Int_Tables_number       1
_symmetry_cell_setting            triclinic
loop_
_symmetry_equiv_pos_as_xyz
'x, y, z'
_cell_length_a     17.962849
_cell_length_b     24.183438
_cell_length_c     15.07068
_cell_angle_alpha  102.05049
_cell_angle_beta   73.554472
_cell_angle_gamma 143.88748
loop_
_atom_site_label
_atom_site_type_symbol
_atom_site_fract_x
_atom_site_fract_y
_atom_site_fract_z
_atom_type_partial_charge
C0 C 0.09074 0.95424 0.17993 0.0
C1 C 0.97744 0.91052 0.2384 0.0
C2 C 0.93218 0.86665 0.32139 0.0
C3 C 0.9784 0.84341 0.33394 0.0
C4 C 0.08905 0.88265 0.27464 0.0
C5 C 0.1486 0.94107 0.19829 0.0
O6 O 0.92994 1.02348 0.14752 0.0
Tb7 Tb 0.12409 0.10438 0.08463 0.0
O8 O 0.18889 0.21134 0.18603 0.0
O9 O 0.8179 0.87991 0.09804 0.0
Eu10 Eu 0.90074 0.93047 0.94879 0.0
O11 O 0.22391 0.1072 0.13747 0.0
C12 C 0.85357 0.99876 0.90888 0.0
O13 O 0.07352 0.98937 0.05978 0.0
O14 O 0.10502 1.02177 0.88535 0.0
O15 O 0.21537 0.16379 0.94359 0.0
C16 C 0.15229 1.02207 0.10926 0.0
C17 C 0.88256 0.79574 0.83295 0.0
O18 O 0.9543 0.82771 0.88965 0.0
C19 C 0.83133 0.9323 0.16239 0.0
C20 C 0.20111 0.11338 0.8747 0.0
O21 O 0.83747 0.82116 0.84412 0.0
C22 C 0.86006 1.0192 0.81985 0.0
C23 C 0.83913 0.07599 0.7262 0.0
C24 C 0.85008 0.07033 0.81217 0.0
C25 C 0.86796 0.98046 0.74102 0.0
C26 C 0.85325 0.98435 0.6577 0.0
C27 C 0.8358 0.0297 0.65155 0.0
C28 C 0.15021 0.24144 0.19406 0.0
O29 O 0.08436 0.21342 0.13419 0.0
O30 O 0.76593 0.90911 0.92477 0.0
O31 O 0.96398 0.05202 0.92859 0.0
H32 H 0.94159 0.9286 0.2299 0.0
H33 H 0.94329 0.80918 0.39866 0.0
H34 H 0.23956 0.97749 0.15612 0.0
H35 H 0.84924 0.10388 0.8718 0.0
H36 H 0.88135 0.94469 0.74523 0.0
H37 H 0.82794 0.0342 0.5854 0.0
C38 C 0.87703 0.37981 0.51506 0.0
C39 C 0.85039 0.40414 0.59838 0.0
C40 C 0.84658 0.38549 0.68188 0.0
C41 C 0.87413 0.34636 0.6833 0.0
C42 C 0.89306 0.31609 0.60265 0.0
C43 C 0.89327 0.33166 0.517 0.0
O44 O 0.61524 0.36123 0.49165 0.0
Tb45 Tb 0.80557 0.45086 0.40649 0.0
O46 O 0.86794 0.55807 0.50486 0.0
O47 O 0.50208 0.21625 0.44238 0.0
Eu48 Eu 0.55667 0.25712 0.29375 0.0
O49 O 0.95689 0.49113 0.4215 0.0
C50 C 0.49268 0.31732 0.268 0.0
O51 O 0.76859 0.3435 0.40871 0.0
O52 O 0.75606 0.35074 0.21241 0.0
O53 O 0.85735 0.4914 0.26337 0.0
C54 C 0.88151 0.40302 0.42927 0.0
C55 C 0.54722 0.12763 0.17396 0.0
O56 O 0.62628 0.16498 0.22654 0.0
C57 C 0.52602 0.27149 0.50918 0.0
C58 C 0.84193 0.43978 0.19608 0.0
O59 O 0.49417 0.14736 0.18958 0.0
C60 C 0.52139 0.35678 0.18287 0.0
C61 C 0.52206 0.43025 0.09258 0.0
C62 C 0.49203 0.3956 0.17868 0.0
C63 C 0.58526 0.35774 0.10313 0.0
C64 C 0.61829 0.39526 0.01989 0.0
C65 C 0.58439 0.42922 1.01435 0.0
C66 C 0.81748 0.57962 0.51839 0.0
O67 O 0.74036 0.54349 0.46453 0.0
O68 O 0.41537 0.22812 0.26474 0.0
O69 O 0.59481 0.36929 0.3013 0.0
H70 H 0.8279 0.43446 0.59847 0.0
H71 H 0.86851 0.33114 0.74957 0.0
H72 H 0.90585 0.30706 0.45371 0.0
H73 H 0.44757 0.39906 0.24055 0.0
H74 H 0.61091 0.33017 0.10611 0.0
H75 H 0.60821 0.45632 0.94831 0.0
C76 C 0.50097 0.69259 0.87189 0.0
C77 C 0.48339 0.72655 0.94983 0.0
C78 C 0.48534 0.7168 0.03615 0.0
C79 C 0.49921 0.67009 0.047 0.0
C80 C 0.512 0.63229 0.97177 0.0
C81 C 0.51334 0.64348 0.88251 0.0
O82 O 0.26766 0.69075 0.81926 0.0
Tb83 Tb 0.46264 0.77887 0.74641 0.0
O84 O 0.52572 0.88563 0.8463 0.0
O85 O 0.1545 0.54659 0.7654 0.0
Eu86 Eu 0.2425 0.60348 0.61845 0.0
O87 O 0.59803 0.80621 0.77123 0.0
C88 C 0.21121 0.68784 0.5959 0.0
O89 O 0.4072 0.66281 0.756 0.0
O90 O 0.4454 0.69297 0.55333 0.0
O91 O 0.54055 0.83093 0.60306 0.0
C92 C 0.51491 0.71677 0.78165 0.0
C93 C 0.22826 0.47135 0.4986 0.0
O94 O 0.3014 0.50443 0.55461 0.0
C95 C 0.17149 0.5992 0.83249 0.0
C96 C 0.53429 0.78252 0.53731 0.0
O97 O 0.18186 0.49604 0.51057 0.0
C98 C 0.27511 0.75647 0.52579 0.0
C99 C 0.29395 0.84528 0.44377 0.0
C100 C 0.23275 0.78491 0.51858 0.0
C101 C 0.37256 0.78504 0.45718 0.0
C102 C 0.42218 0.83585 0.37897 0.0
C103 C 0.39447 0.87511 0.3776 0.0
C104 C 0.48005 0.91074 0.8585 0.0
O105 O 0.40655 0.87788 0.80301 0.0
O106 O 0.14021 0.60319 0.56648 0.0
O107 O 0.28847 0.71984 0.64629 0.0
H108 H 0.47133 0.76273 0.94309 0.0
H109 H 0.49728 0.66147 0.11587 0.0
H110 H 0.52642 0.61651 0.82279 0.0
H111 H 0.14974 0.75681 0.567 0.0
H112 H 0.39127 0.75217 0.45591 0.0
H113 H 0.43078 0.9122 0.31495 0.0
C114 C 0.95317 1.01042 0.49535 0.0
C115 C 0.86748 0.9495 0.57305 0.0
H116 H 0.03709 0.03106 0.35515 0.0
C117 C 0.79334 0.85679 0.56687 0.0
H118 H 1.01299 0.08281 0.49926 0.0
C119 C 0.80524 0.82547 0.48233 0.0
C120 C 0.8919 0.88723 0.40444 0.0
H121 H 0.72695 0.80906 0.62666 0.0
H122 H 0.75049 0.75464 0.47838 0.0
C123 C 0.96472 0.97971 0.41211 0.0
C124 C 0.68532 0.30952 0.82613 0.0
C125 C 0.79238 0.39091 0.76899 0.0
H126 H 0.54674 0.24805 0.95219 0.0
C127 C 0.84595 0.47517 0.79581 0.0
H128 H 0.64226 0.24359 0.80522 0.0
C129 C 0.79174 0.47771 0.88001 0.0
C130 C 0.68375 0.39581 0.93662 0.0
H131 H 0.92912 0.53831 0.7521 0.0
H132 H 0.83278 0.54294 0.90054 0.0
C133 C 0.63148 0.31204 0.90985 0.0
C134 C 0.55872 0.84638 0.13215 0.0
C135 C 0.4659 0.75009 0.11821 0.0
H136 H 0.61995 0.95071 0.22959 0.0
C137 C 0.36085 0.68399 0.18852 0.0
H138 H 0.64048 0.89793 0.07782 0.0
C139 C 0.35072 0.71348 0.27381 0.0
C140 C 0.44592 0.8098 0.29031 0.0
H141 H 0.28824 0.60941 0.17795 0.0
H142 H 0.26676 0.66038 0.32664 0.0
C143 C 0.54839 0.8764 0.21852 0.0
C144 C 0.12157 0.77602 0.37774 0.0
C145 C 0.23309 0.85462 0.41431 0.0
H146 H 0.99203 0.72432 0.29996 0.0
C147 C 0.30377 0.94414 0.39695 0.0
H148 H 0.06986 0.70716 0.38582 0.0
C149 C 0.26195 0.95444 0.34505 0.0
C150 C 0.15065 0.87566 0.30814 0.0
H151 H 0.39284 1.00607 0.42164 0.0
H152 H 0.31393 1.02331 0.33632 0.0
C153 C 0.08038 0.78634 0.32547 0.0
C154 C 0.23254 0.37024 0.42215 0.0
C155 C 0.20406 0.41013 0.42182 0.0
H156 H 0.23707 0.28558 0.35234 0.0
C157 C 0.15842 0.39418 0.34567 0.0
H158 H 0.26739 0.38048 0.47971 0.0
C159 C 0.14297 0.34076 0.27177 0.0
C160 C 0.17212 0.30125 0.27182 0.0
H161 H 0.13648 0.4242 0.34238 0.0
H162 H 0.10825 0.33065 0.2142 0.0
C163 C 0.21607 0.31617 0.34862 0.0
C164 C 0.69619 0.91439 0.41672 0.0
C165 C 0.61165 0.82228 0.44173 0.0
H166 H 0.83129 1.0213 0.30907 0.0
C167 C 0.59483 0.76517 0.37261 0.0
H168 H 0.70856 0.95932 0.46727 0.0
C169 C 0.66241 0.79968 0.28142 0.0
C170 C 0.74958 0.89254 0.25688 0.0
H171 H 0.52934 0.69336 0.38882 0.0
H172 H 0.64866 0.75416 0.23074 0.0
C173 C 0.76517 0.94939 0.32556 0.0
C174 C 0.98113 0.29385 0.66607 0.0
C175 C 0.89203 0.2571 0.61729 0.0
H176 H 0.0309 0.26455 0.74314 0.0
C177 C 0.77941 0.15958 0.61295 0.0
H178 H 0.06526 0.36874 0.67483 0.0
C179 C 0.75604 0.10005 0.65689 0.0
C180 C 0.84568 0.13689 0.70507 0.0
H181 H 0.70638 0.1294 0.57984 0.0
H182 H 0.66938 1.02485 0.65108 0.0
C183 C 0.95857 0.23438 0.70906 0.0
C184 C 0.89339 0.65807 0.66886 0.0
C185 C 0.83754 0.63715 0.59768 0.0
H186 H 0.94993 0.72305 0.79871 0.0
C187 C 0.79425 0.66747 0.60551 0.0
H188 H 0.92587 0.63465 0.66613 0.0
C189 C 0.80659 0.71737 0.68229 0.0
C190 C 0.86289 0.73858 0.75332 0.0
H191 H 0.75046 0.65258 0.5522 0.0
H192 H 0.77301 0.74004 0.68547 0.0
C193 C 0.90613 0.70821 0.74545 0.0
C194 C 0.47576 0.29136 0.67689 0.0
C195 C 0.44645 0.23213 0.60383 0.0
H196 H 0.42209 0.30088 0.82027 0.0
C197 C 0.33991 0.13504 0.62203 0.0
H198 H 0.55831 0.36683 0.66541 0.0
C199 C 0.26265 0.09768 0.71037 0.0
C200 C 0.28979 0.15635 0.78315 0.0
H201 H 0.31484 0.08745 0.56777 0.0
H202 H 0.18007 1.0221 0.72092 0.0
C203 C 0.39806 0.25381 0.76574 0.0
C204 C 0.41208 0.43142 0.0256 0.0
C205 C 0.5025 0.47603 0.07861 0.0
H206 H 0.34647 0.44694 0.94686 0.0
C207 C 0.60217 0.57333 0.08805 0.0
H208 H 0.3385 0.3571 1.01322 0.0
C209 C 0.61147 0.62511 0.04548 0.0
C210 C 0.52019 0.58063 0.99352 0.0
H211 H 0.67682 0.60995 0.12431 0.0
H212 H 0.68857 0.70014 0.05496 0.0
C213 C 0.41994 0.48316 0.98424 0.0
C214 C 0.45411 0.99648 0.94804 0.0
C215 C 0.50071 0.96839 0.93818 0.0
H216 H 0.43209 0.06831 0.02892 0.0
C217 C 0.56116 0.99224 1.00739 0.0
H218 H 0.40698 0.97956 0.8963 0.0
C219 C 0.57412 0.04238 0.0843 0.0
C220 C 0.52723 0.07028 0.09421 0.0
H221 H 0.5975 0.97144 1.00272 0.0
H222 H 0.62112 0.05927 0.13614 0.0
C223 C 0.4674 0.04681 0.02475 0.0
C224 C 0.97619 0.46011 0.94177 0.0
C225 C 0.08281 0.55735 0.92397 0.0
H226 H 0.8159 0.34681 0.04111 0.0
C227 C 0.10724 0.61572 0.99588 0.0
H228 H 0.9546 0.41328 0.88822 0.0
C229 C 0.02836 0.57786 0.08399 0.0
C230 C 0.92335 0.4808 0.10223 0.0
H231 H 0.18877 0.69117 0.98477 0.0
H232 H 0.05098 0.62482 0.13803 0.0
C233 C 0.89711 0.42223 0.02978 0.0
loop_
_geom_bond_atom_site_label_1
_geom_bond_atom_site_label_2
_geom_bond_distance
_geom_bond_site_symmetry_2
_ccdc_geom_bond_type
C0 C1 1.387 . S
C0 C5 1.380 1_545 S
C0 C16 1.494 . S
C1 C0 1.387 . S
C1 C2 1.386 1_545 S
C1 H32 0.930 . S
C2 C1 1.386 1_565 S
C2 C3 1.397 . S
C3 C2 1.397 . S
C3 C4 1.393 . S
C3 H33 0.930 . S
C4 C3 1.393 . S
C4 C5 1.395 . S
C5 C0 1.380 1_565 S
C5 C4 1.395 . S
C5 H34 0.930 . S
O6 Tb7 2.293 1_665 S
O6 C19 1.245 . S
Tb7 O6 2.293 1_445 S
Tb7 O8 2.312 . S
Tb7 O11 2.438 . S
Tb7 O13 2.472 . S
Tb7 O15 2.308 1_554 S
Tb7 C16 2.821 . S
O8 Tb7 2.312 . S
O8 C28 1.264 . S
O9 Eu10 2.308 1_554 S
O9 C19 1.243 . S
Eu10 O9 2.308 1_556 S
Eu10 C12 2.821 . S
Eu10 O14 2.292 1_665 S
Eu10 O21 2.312 . S
Eu10 O30 2.438 . S
Eu10 O31 2.472 . S
O11 Tb7 2.438 . S
O11 C16 1.263 . S
C12 Eu10 2.821 . S
C12 C22 1.494 . S
C12 O30 1.263 . S
C12 O31 1.264 . S
O13 Tb7 2.472 . S
O13 C16 1.264 . S
O14 Eu10 2.292 1_445 S
O14 C20 1.246 . S
O15 Tb7 2.308 1_556 S
O15 C20 1.243 . S
C16 C0 1.494 . S
C16 Tb7 2.821 . S
C16 O11 1.263 . S
C16 O13 1.264 . S
C17 O18 1.260 . S
C17 O21 1.264 . S
O18 C17 1.260 . S
C19 O6 1.245 . S
C19 O9 1.243 . S
C20 O14 1.246 . S
C20 O15 1.243 . S
O21 Eu10 2.312 . S
O21 C17 1.264 . S
C22 C12 1.494 . S
C22 C24 1.380 1_565 S
C22 C25 1.387 . S
C23 C24 1.395 . S
C23 C27 1.393 . S
C24 C22 1.380 1_545 S
C24 C23 1.395 . S
C24 H35 0.930 . S
C25 C22 1.387 . S
C25 C26 1.386 1_565 S
C25 H36 0.930 . S
C26 C25 1.386 1_545 S
C26 C27 1.397 . S
C27 C23 1.393 . S
C27 C26 1.397 . S
C27 H37 0.930 . S
C28 O8 1.264 . S
C28 O29 1.260 . S
O29 C28 1.260 . S
O30 Eu10 2.438 . S
O30 C12 1.263 . S
O31 Eu10 2.472 . S
O31 C12 1.264 . S
H32 C1 0.930 . S
H33 C3 0.930 . S
H34 C5 0.930 . S
H35 C24 0.930 . S
H36 C25 0.930 . S
H37 C27 0.930 . S
C38 C39 1.387 . S
C38 C43 1.380 . S
C38 C54 1.494 . S
C39 C38 1.387 . S
C39 C40 1.386 . S
C39 H70 0.930 . S
C40 C39 1.386 . S
C40 C41 1.397 . S
C41 C40 1.397 . S
C41 C42 1.393 . S
C41 H71 0.930 . S
C42 C41 1.393 . S
C42 C43 1.395 . S
C43 C38 1.380 . S
C43 C42 1.395 . S
C43 H72 0.930 . S
O44 Tb45 2.295 . S
O44 C57 1.242 . S
Tb45 O44 2.295 . S
Tb45 O46 2.312 . S
Tb45 O49 2.438 . S
Tb45 O51 2.472 . S
Tb45 O53 2.308 . S
Tb45 C54 2.821 . S
O46 Tb45 2.312 . S
O46 C66 1.264 . S
O47 Eu48 2.308 . S
O47 C57 1.243 . S
Eu48 O47 2.308 . S
Eu48 C50 2.821 . S
Eu48 O52 2.295 . S
Eu48 O59 2.312 . S
Eu48 O68 2.438 . S
Eu48 O69 2.472 . S
O49 Tb45 2.438 . S
O49 C54 1.263 . S
C50 Eu48 2.821 . S
C50 C60 1.494 . S
C50 O68 1.263 . S
C50 O69 1.264 . S
O51 Tb45 2.472 . S
O51 C54 1.264 . S
O52 Eu48 2.295 . S
O52 C58 1.242 . S
O53 Tb45 2.308 . S
O53 C58 1.243 . S
C54 C38 1.494 . S
C54 Tb45 2.821 . S
C54 O49 1.263 . S
C54 O51 1.264 . S
C55 O56 1.260 . S
C55 O59 1.264 . S
O56 C55 1.260 . S
C57 O44 1.242 . S
C57 O47 1.243 . S
C58 O52 1.242 . S
C58 O53 1.243 . S
O59 Eu48 2.312 . S
O59 C55 1.264 . S
C60 C50 1.494 . S
C60 C62 1.380 . S
C60 C63 1.387 . S
C61 C62 1.395 . S
C61 C65 1.393 . S
C62 C60 1.380 . S
C62 C61 1.395 . S
C62 H73 0.930 . S
C63 C60 1.387 . S
C63 C64 1.386 1_554 S
C63 H74 0.930 . S
C64 C63 1.386 1_556 S
C64 C65 1.397 1_556 S
C65 C61 1.393 . S
C65 C64 1.397 1_554 S
C65 H75 0.930 1_554 S
C66 O46 1.264 . S
C66 O67 1.260 . S
O67 C66 1.260 . S
O68 Eu48 2.438 . S
O68 C50 1.263 . S
O69 Eu48 2.472 . S
O69 C50 1.264 . S
H70 C39 0.930 . S
H71 C41 0.930 . S
H72 C43 0.930 . S
H73 C62 0.930 . S
H74 C63 0.930 . S
H75 C65 0.930 1_556 S
C76 C77 1.387 . S
C76 C81 1.380 . S
C76 C92 1.494 . S
C77 C76 1.387 . S
C77 C78 1.386 1_556 S
C77 H108 0.930 . S
C78 C77 1.386 1_554 S
C78 C79 1.397 1_554 S
C79 C78 1.397 1_556 S
C79 C80 1.393 . S
C79 H109 0.930 1_556 S
C80 C79 1.393 . S
C80 C81 1.395 . S
C81 C76 1.380 . S
C81 C80 1.395 . S
C81 H110 0.930 . S
O82 Tb83 2.295 . S
O82 C95 1.242 . S
Tb83 O82 2.295 . S
Tb83 O84 2.312 . S
Tb83 O87 2.438 . S
Tb83 O89 2.472 . S
Tb83 O91 2.308 . S
Tb83 C92 2.821 . S
O84 Tb83 2.312 . S
O84 C104 1.264 . S
O85 Eu86 2.308 . S
O85 C95 1.243 . S
Eu86 O85 2.308 . S
Eu86 C88 2.821 . S
Eu86 O90 2.295 . S
Eu86 O97 2.312 . S
Eu86 O106 2.438 . S
Eu86 O107 2.472 . S
O87 Tb83 2.438 . S
O87 C92 1.263 . S
C88 Eu86 2.821 . S
C88 C98 1.494 . S
C88 O106 1.263 . S
C88 O107 1.264 . S
O89 Tb83 2.472 . S
O89 C92 1.264 . S
O90 Eu86 2.295 . S
O90 C96 1.242 . S
O91 Tb83 2.308 . S
O91 C96 1.243 . S
C92 C76 1.494 . S
C92 Tb83 2.821 . S
C92 O87 1.263 . S
C92 O89 1.264 . S
C93 O94 1.260 . S
C93 O97 1.264 . S
O94 C93 1.260 . S
C95 O82 1.242 . S
C95 O85 1.243 . S
C96 O90 1.242 . S
C96 O91 1.243 . S
O97 Eu86 2.312 . S
O97 C93 1.264 . S
C98 C88 1.494 . S
C98 C100 1.380 . S
C98 C101 1.387 . S
C99 C100 1.395 . S
C99 C103 1.393 . S
C100 C98 1.380 . S
C100 C99 1.395 . S
C100 H111 0.930 . S
C101 C98 1.387 . S
C101 C102 1.386 . S
C101 H112 0.930 . S
C102 C101 1.386 . S
C102 C103 1.397 . S
C103 C99 1.393 . S
C103 C102 1.397 . S
C103 H113 0.930 . S
C104 O84 1.264 . S
C104 O105 1.260 . S
O105 C104 1.260 . S
O106 Eu86 2.438 . S
O106 C88 1.263 . S
O107 Eu86 2.472 . S
O107 C88 1.264 . S
H108 C77 0.930 . S
H109 C79 0.930 1_554 S
H110 C81 0.930 . S
H111 C100 0.930 . S
H112 C101 0.930 . S
H113 C103 0.930 . S
C114 C115 1.387 1_445 S
C114 H118 0.950 . S
C114 C123 1.390 . S
C115 C114 1.387 1_665 S
C115 C117 1.388 . S
H116 C123 0.950 . S
C117 C115 1.388 . S
C117 C119 1.390 . S
C117 H121 0.950 . S
H118 C114 0.950 . S
C119 C117 1.390 . S
C119 C120 1.386 1_665 S
C119 H122 0.950 . S
C120 C119 1.386 1_445 S
C120 C123 1.393 . S
H121 C117 0.950 . S
H122 C119 0.950 . S
C123 C114 1.390 . S
C123 H116 0.950 . S
C123 C120 1.393 . S
C124 C125 1.387 . S
C124 H128 0.950 . S
C124 C133 1.390 . S
C125 C124 1.387 . S
C125 C127 1.387 . S
H126 C133 0.950 . S
C127 C125 1.387 . S
C127 C129 1.390 . S
C127 H131 0.950 . S
H128 C124 0.950 . S
C129 C127 1.390 . S
C129 C130 1.387 . S
C129 H132 0.950 . S
C130 C129 1.387 . S
C130 C133 1.387 . S
H131 C127 0.950 . S
H132 C129 0.950 . S
C133 C124 1.390 . S
C133 H126 0.950 . S
C133 C130 1.387 . S
C134 C135 1.387 . S
C134 H138 0.950 . S
C134 C143 1.390 . S
C135 C134 1.387 . S
C135 C137 1.387 . S
H136 C143 0.950 . S
C137 C135 1.387 . S
C137 C139 1.390 . S
C137 H141 0.950 . S
H138 C134 0.950 . S
C139 C137 1.390 . S
C139 C140 1.387 . S
C139 H142 0.950 . S
C140 C139 1.387 . S
C140 C143 1.387 . S
H141 C137 0.950 . S
H142 C139 0.950 . S
C143 C134 1.390 . S
C143 H136 0.950 . S
C143 C140 1.387 . S
C144 C145 1.387 . S
C144 H148 0.950 . S
C144 C153 1.390 . S
C145 C144 1.387 . S
C145 C147 1.387 . S
H146 C153 0.950 . S
C147 C145 1.387 . S
C147 C149 1.390 . S
C147 H151 0.950 . S
H148 C144 0.950 . S
C149 C147 1.390 . S
C149 C150 1.387 . S
C149 H152 0.950 . S
C150 C149 1.387 . S
C150 C153 1.387 . S
H151 C147 0.950 . S
H152 C149 0.950 . S
C153 C144 1.390 . S
C153 H146 0.950 . S
C153 C150 1.387 . S
C154 C155 1.387 . S
C154 H158 0.950 . S
C154 C163 1.390 . S
C155 C154 1.387 . S
C155 C157 1.387 . S
H156 C163 0.950 . S
C157 C155 1.387 . S
C157 C159 1.390 . S
C157 H161 0.950 . S
H158 C154 0.950 . S
C159 C157 1.390 . S
C159 C160 1.387 . S
C159 H162 0.950 1_455 S
C160 C159 1.387 . S
C160 C163 1.387 . S
H161 C157 0.950 . S
H162 C159 0.950 1_655 S
C163 C154 1.390 . S
C163 H156 0.950 . S
C163 C160 1.387 . S
C164 C165 1.387 . S
C164 H168 0.950 . S
C164 C173 1.390 . S
C165 C164 1.387 . S
C165 C167 1.387 . S
H166 C173 0.950 . S
C167 C165 1.387 . S
C167 C169 1.390 . S
C167 H171 0.950 . S
H168 C164 0.950 . S
C169 C167 1.390 . S
C169 C170 1.387 . S
C169 H172 0.950 . S
C170 C169 1.387 . S
C170 C173 1.387 . S
H171 C167 0.950 . S
H172 C169 0.950 . S
C173 C164 1.390 . S
C173 H166 0.950 . S
C173 C170 1.387 . S
C174 C175 1.387 . S
C174 H178 0.950 . S
C174 C183 1.390 . S
C175 C174 1.387 . S
C175 C177 1.387 . S
H176 C183 0.950 1_455 S
C177 C175 1.387 . S
C177 C179 1.390 . S
C177 H181 0.950 . S
H178 C174 0.950 . S
C179 C177 1.390 . S
C179 C180 1.387 . S
C179 H182 0.950 . S
C180 C179 1.387 . S
C180 C183 1.387 . S
H181 C177 0.950 . S
H182 C179 0.950 . S
C183 C174 1.390 . S
C183 H176 0.950 1_655 S
C183 C180 1.387 . S
C184 C185 1.387 . S
C184 H188 0.950 . S
C184 C193 1.390 . S
C185 C184 1.387 . S
C185 C187 1.387 . S
H186 C193 0.950 . S
C187 C185 1.387 . S
C187 C189 1.390 . S
C187 H191 0.950 . S
H188 C184 0.950 . S
C189 C187 1.390 . S
C189 C190 1.387 . S
C189 H192 0.950 1_655 S
C190 C189 1.387 . S
C190 C193 1.387 . S
H191 C187 0.950 . S
H192 C189 0.950 1_455 S
C193 C184 1.390 . S
C193 H186 0.950 . S
C193 C190 1.387 . S
C194 C195 1.387 . S
C194 H198 0.950 . S
C194 C203 1.390 . S
C195 C194 1.387 . S
C195 C197 1.387 . S
H196 C203 0.950 . S
C197 C195 1.387 . S
C197 C199 1.390 . S
C197 H201 0.950 . S
H198 C194 0.950 . S
C199 C197 1.390 . S
C199 C200 1.387 . S
C199 H202 0.950 . S
C200 C199 1.387 . S
C200 C203 1.387 . S
H201 C197 0.950 . S
H202 C199 0.950 . S
C203 C194 1.390 . S
C203 H196 0.950 . S
C203 C200 1.387 . S
C204 C205 1.387 1_556 S
C204 H208 0.950 . S
C204 C213 1.390 . S
C205 C204 1.387 1_554 S
C205 C207 1.387 . S
H206 C213 0.950 . S
C207 C205 1.387 . S
C207 C209 1.390 . S
C207 H211 0.950 . S
H208 C204 0.950 . S
C209 C207 1.390 . S
C209 C210 1.387 1_554 S
C209 H212 0.950 . S
C210 C209 1.387 1_556 S
C210 C213 1.387 . S
H211 C207 0.950 . S
H212 C209 0.950 . S
C213 C204 1.390 . S
C213 H206 0.950 . S
C213 C210 1.387 . S
C214 C215 1.387 1_554 S
C214 H218 0.950 . S
C214 C223 1.390 . S
C215 C214 1.387 1_556 S
C215 C217 1.387 1_565 S
H216 C223 0.950 . S
C217 C215 1.387 1_545 S
C217 C219 1.390 . S
C217 H221 0.950 . S
H218 C214 0.950 . S
C219 C217 1.390 . S
C219 C220 1.387 1_556 S
C219 H222 0.950 . S
C220 C219 1.387 1_554 S
C220 C223 1.387 1_545 S
H221 C217 0.950 . S
H222 C219 0.950 . S
C223 C214 1.390 . S
C223 H216 0.950 . S
C223 C220 1.387 1_565 S
C224 C225 1.387 . S
C224 H228 0.950 . S
C224 C233 1.390 1_556 S
C225 C224 1.387 . S
C225 C227 1.387 1_455 S
H226 C233 0.950 . S
C227 C225 1.387 1_655 S
C227 C229 1.390 1_556 S
C227 H231 0.950 . S
H228 C224 0.950 . S
C229 C227 1.390 1_554 S
C229 C230 1.387 . S
C229 H232 0.950 . S
C230 C229 1.387 . S
C230 C233 1.387 1_655 S
H231 C227 0.950 . S
H232 C229 0.950 . S
C233 C224 1.390 1_554 S
C233 H226 0.950 . S
C233 C230 1.387 1_455 S
C115 C26 1.494 1_565 S
C120 C2 1.491 1_545 S
C125 C40 1.492 . S
C130 C64 1.492 . S
C135 C78 1.494 . S
C140 C102 1.494 . S
C145 C99 2.222 . S
C150 C4 2.222 . S
C155 C93 1.505 . S
C160 C28 1.502 . S
C165 C96 1.779 . S
C170 C19 1.779 . S
C175 C42 2.223 . S
C180 C23 2.223 . S
C185 C66 1.504 . S
C190 C17 1.506 . S
C195 C57 1.779 . S
C200 C20 1.780 . S
C205 C61 2.222 . S
C210 C80 2.222 . S
C215 C104 1.503 . S
C220 C55 1.503 . S
C225 C95 1.779 . S
C230 C58 1.779 . S
