# Generated by pormake.
# Topology ukf, (4)-cn, num edge types: 1
# Building blocks:
#     Node 0, Type 0, BuildingBlock: GALJAG_clean_sbu_0, # of connection points: 4
#     Node 1, Type 0, BuildingBlock: GALJAG_clean_sbu_0, # of connection points: 4
#     Node 2, Type 0, BuildingBlock: GALJAG_clean_sbu_0, # of connection points: 4
#     Node 3, Type 0, BuildingBlock: GALJAG_clean_sbu_0, # of connection points: 4
#     Node 4, Type 0, BuildingBlock: GALJAG_clean_sbu_0, # of connection points: 4
#     Node 5, Type 0, BuildingBlock: GALJAG_clean_sbu_0, # of connection points: 4
#     Node 6, Type 0, BuildingBlock: GALJAG_clean_sbu_0, # of connection points: 4
#     Node 7, Type 0, BuildingBlock: GALJAG_clean_sbu_0, # of connection points: 4
#     Node 8, Type 0, BuildingBlock: GALJAG_clean_sbu_0, # of connection points: 4
#     Node 9, Type 0, BuildingBlock: GALJAG_clean_sbu_0, # of connection points: 4
#     Node 10, Type 0, BuildingBlock: GALJAG_clean_sbu_0, # of connection points: 4
#     Node 11, Type 0, BuildingBlock: GALJAG_clean_sbu_0, # of connection points: 4
#     Edge 12, Type (0, 0), None
#     Edge 13, Type (0, 0), None
#     Edge 14, Type (0, 0), None
#     Edge 15, Type (0, 0), None
#     Edge 16, Type (0, 0), None
#     Edge 17, Type (0, 0), None
#     Edge 18, Type (0, 0), None
#     Edge 19, Type (0, 0), None
#     Edge 20, Type (0, 0), None
#     Edge 21, Type (0, 0), None
#     Edge 22, Type (0, 0), None
#     Edge 23, Type (0, 0), None
#     Edge 24, Type (0, 0), None
#     Edge 25, Type (0, 0), None
#     Edge 26, Type (0, 0), None
#     Edge 27, Type (0, 0), None
#     Edge 28, Type (0, 0), None
#     Edge 29, Type (0, 0), None
#     Edge 30, Type (0, 0), None
#     Edge 31, Type (0, 0), None
#     Edge 32, Type (0, 0), None
#     Edge 33, Type (0, 0), None
#     Edge 34, Type (0, 0), None
#     Edge 35, Type (0, 0), None
# Relax obj value: 0.078
# Max RMSD: 0.072
# Mean RMSD: 0.072
data_MOF--net-ukf--node1-GALJAG_clean_sbu_0--edge1-none
_symmetry_space_group_name_H-M    P1
_symmetry_Int_Tables_number       1
_symmetry_cell_setting            triclinic
loop_
_symmetry_equiv_pos_as_xyz
'x, y, z'
_cell_length_a     14.161546
_cell_length_b     14.161734
_cell_length_c     30.408031
_cell_angle_alpha  89.999316
_cell_angle_beta   89.999369
_cell_angle_gamma 120.00257
loop_
_atom_site_label
_atom_site_type_symbol
_atom_site_fract_x
_atom_site_fract_y
_atom_site_fract_z
_atom_type_partial_charge
In0 In 0.41243 0.22856 0.06578 0.0
O1 O 0.48322 0.22573 0.13196 0.0
O2 O 0.31829 0.19141 0.13123 0.0
C3 C 0.56 0.19978 0.02271 0.0
C4 C 0.48559 0.44551 0.0587 0.0
C5 C 0.24561 0.05349 0.02521 0.0
O6 O 0.5516 0.19271 0.06407 0.0
O7 O 0.49373 0.22001 1.00323 0.0
O8 O 0.28923 0.14864 1.00931 0.0
O9 O 0.27897 0.049 0.06319 0.0
C10 C 0.3987 0.20316 0.15369 0.0
O11 O 0.38475 0.37564 0.05972 0.0
O12 O 0.54757 0.40619 0.06042 0.0
In13 In 0.1886 0.41004 0.39911 0.0
O14 O 0.01384 0.38237 0.39305 0.0
O15 O 0.14612 0.54519 0.39374 0.0
C16 C 0.19685 0.24323 0.35854 0.0
C17 C 0.20026 0.39633 0.48702 0.0
C18 C 0.36496 0.55762 0.35604 0.0
O19 O 0.14533 0.28684 0.34264 0.0
O20 O 0.2347 0.2766 0.39652 0.0
O21 O 0.36363 0.54923 0.3974 0.0
O22 O 0.27846 0.49135 0.33655 0.0
C23 C 0.04482 0.48322 0.39203 0.0
O24 O 0.26223 0.48084 0.46529 0.0
O25 O 0.1316 0.31592 0.46456 0.0
In26 In 0.78329 0.18624 0.73244 0.0
O27 O 0.63621 0.01148 0.72638 0.0
O28 O 0.60566 0.14375 0.72708 0.0
C29 C 0.95836 0.19449 0.69187 0.0
C30 C 0.80868 0.1979 0.82036 0.0
C31 C 0.81207 0.36259 0.68937 0.0
O32 O 0.86322 0.14296 0.67598 0.0
O33 O 0.96285 0.23235 0.72986 0.0
O34 O 0.81915 0.36127 0.73073 0.0
O35 O 0.79185 0.27609 0.66989 0.0
C36 C 0.56634 0.04245 0.72537 0.0
O37 O 0.78613 0.25986 0.79863 0.0
O38 O 0.82043 0.12924 0.79789 0.0
In39 In 0.60179 0.7809 0.06578 0.0
O40 O 0.62947 0.63383 0.05972 0.0
O41 O 0.46664 0.60327 0.06042 0.0
C42 C 0.76861 0.95598 0.02521 0.0
C43 C 0.61553 0.8063 0.15369 0.0
C44 C 0.45422 0.80968 0.02271 0.0
O45 O 0.72499 0.86083 1.00931 0.0
O46 O 0.73525 0.96046 0.06319 0.0
O47 O 0.46261 0.81675 0.06407 0.0
O48 O 0.52049 0.78946 1.00323 0.0
C49 C 0.52862 0.56395 0.05871 0.0
O50 O 0.53101 0.78374 0.13196 0.0
O51 O 0.69593 0.81805 0.13123 0.0
In52 In 0.82564 0.59943 0.39911 0.0
O53 O 1.00039 0.6271 0.39304 0.0
O54 O 0.86811 0.46428 0.39375 0.0
C55 C 0.81738 0.76624 0.35854 0.0
C56 C 0.81398 0.61315 0.48702 0.0
C57 C 0.64928 0.45185 0.35604 0.0
O58 O 0.86891 0.72263 0.34264 0.0
O59 O 0.77953 0.73287 0.39652 0.0
O60 O 0.6506 0.46024 0.3974 0.0
O61 O 0.73578 0.51812 0.33655 0.0
C62 C 0.96941 0.52625 0.39204 0.0
O63 O 0.752 0.52864 0.46529 0.0
O64 O 0.88265 0.69355 0.46455 0.0
In65 In 0.23094 0.82325 0.73245 0.0
O66 O 0.37802 0.99801 0.72638 0.0
O67 O 0.40857 0.86573 0.72709 0.0
C68 C 0.05587 0.815 0.69187 0.0
C69 C 0.20555 0.81158 0.82036 0.0
C70 C 0.20217 0.6469 0.68937 0.0
O71 O 0.15102 0.86653 0.67598 0.0
O72 O 0.05138 0.77713 0.72985 0.0
O73 O 0.19508 0.64821 0.73073 0.0
O74 O 0.2224 0.73341 0.66989 0.0
C75 C 0.44789 0.96703 0.72538 0.0
O76 O 0.2281 0.74962 0.79863 0.0
O77 O 0.1938 0.88024 0.79789 0.0
In78 In 0.78329 0.5994 0.62302 0.0
O79 O 0.78598 0.52859 0.55682 0.0
O80 O 0.8205 0.69358 0.55758 0.0
C81 C 0.81203 0.45181 0.66608 0.0
C82 C 0.56634 0.52626 0.6301 0.0
C83 C 0.95834 0.76613 0.66359 0.0
O84 O 0.81916 0.46024 0.62472 0.0
O85 O 0.79181 0.51808 0.68557 0.0
O86 O 0.86318 0.72266 0.67947 0.0
O87 O 0.96288 0.73275 0.62561 0.0
C88 C 0.80861 0.61314 0.5351 0.0
O89 O 0.63622 0.6271 0.62908 0.0
O90 O 0.60565 0.46427 0.62839 0.0
In91 In 0.18862 0.7809 0.95636 0.0
O92 O 0.26213 0.78361 0.89016 0.0
O93 O 0.13163 0.81809 0.89092 0.0
C94 C 0.36495 0.80964 0.99942 0.0
C95 C 0.04482 0.56396 0.96344 0.0
C96 C 0.19694 0.95595 0.99692 0.0
O97 O 0.36366 0.81678 0.95806 0.0
O98 O 0.27846 0.78942 0.01891 0.0
O99 O 0.14525 0.8608 0.01281 0.0
O100 O 0.23488 0.9605 0.95895 0.0
C101 C 0.2002 0.80622 0.86844 0.0
O102 O 0.01385 0.63383 0.96242 0.0
O103 O 0.14612 0.60328 0.96173 0.0
In104 In 0.41245 0.18623 0.28969 0.0
O105 O 0.48326 0.25975 0.22349 0.0
O106 O 0.31828 0.12924 0.22425 0.0
C107 C 0.56005 0.36258 0.33275 0.0
C108 C 0.48561 0.04245 0.29678 0.0
C109 C 0.24572 0.19456 0.33026 0.0
O110 O 0.55162 0.36127 0.29139 0.0
O111 O 0.49377 0.27608 0.35224 0.0
O112 O 0.28919 0.14288 0.34614 0.0
O113 O 0.27911 0.23247 0.29228 0.0
C114 C 0.39871 0.19781 0.20177 0.0
O115 O 0.38476 0.01147 0.29576 0.0
O116 O 0.54759 0.14375 0.29506 0.0
In117 In 0.23095 0.41009 0.62302 0.0
O118 O 0.22826 0.48089 0.55682 0.0
O119 O 0.19375 0.31591 0.55758 0.0
C120 C 0.20221 0.55768 0.66608 0.0
C121 C 0.4479 0.48324 0.6301 0.0
C122 C 0.0559 0.24336 0.66359 0.0
O123 O 0.19509 0.54926 0.62472 0.0
O124 O 0.22243 0.4914 0.68557 0.0
O125 O 0.15106 0.28683 0.67947 0.0
O126 O 0.05136 0.27674 0.62561 0.0
C127 C 0.20563 0.39634 0.5351 0.0
O128 O 0.37802 0.38239 0.62908 0.0
O129 O 0.40859 0.54522 0.62838 0.0
In130 In 0.82561 0.22857 0.95635 0.0
O131 O 1.00037 0.37564 0.96242 0.0
O132 O 0.8681 0.4062 0.96172 0.0
C133 C 0.81728 0.05352 0.99692 0.0
C134 C 0.81403 0.20326 0.86844 0.0
C135 C 0.64927 0.19982 0.99942 0.0
O136 O 0.86897 0.14867 0.0128 0.0
O137 O 0.77935 0.04898 0.95895 0.0
O138 O 0.65057 0.1927 0.95806 0.0
O139 O 0.73576 0.22004 0.01891 0.0
C140 C 0.9694 0.44551 0.96343 0.0
O141 O 0.7521 0.22587 0.89016 0.0
O142 O 0.88259 0.19139 0.89091 0.0
In143 In 0.60179 0.82325 0.28969 0.0
O144 O 0.53097 0.74973 0.22349 0.0
O145 O 0.69596 0.88023 0.22425 0.0
C146 C 0.45419 0.6469 0.33275 0.0
C147 C 0.52863 0.96703 0.29677 0.0
C148 C 0.76851 0.81492 0.33026 0.0
O149 O 0.46262 0.6482 0.29139 0.0
O150 O 0.52046 0.73339 0.35224 0.0
O151 O 0.72505 0.8666 0.34614 0.0
O152 O 0.73513 0.777 0.29228 0.0
C153 C 0.61552 0.81166 0.20177 0.0
O154 O 0.62948 0.99801 0.29576 0.0
O155 O 0.46665 0.86573 0.29506 0.0
loop_
_geom_bond_atom_site_label_1
_geom_bond_atom_site_label_2
_geom_bond_distance
_geom_bond_site_symmetry_2
_ccdc_geom_bond_type
In0 O1 2.294 . S
In0 O2 2.326 . S
In0 O6 2.266 . S
In0 O7 2.326 1_554 S
In0 O8 2.266 . S
In0 O9 2.326 . S
In0 O11 2.294 . S
In0 O12 2.326 . S
O1 In0 2.294 . S
O1 C10 1.240 . S
O2 In0 2.326 . S
O2 C10 1.252 . S
C3 O6 1.252 . S
C3 O7 1.260 1_554 S
C4 O11 1.240 . S
C4 O12 1.252 . S
C5 O8 1.252 . S
C5 O9 1.260 . S
O6 In0 2.266 . S
O6 C3 1.252 . S
O7 In0 2.326 1_556 S
O7 C3 1.260 1_556 S
O8 In0 2.266 . S
O8 C5 1.252 . S
O9 In0 2.326 . S
O9 C5 1.260 . S
C10 O1 1.240 . S
C10 O2 1.252 . S
O11 In0 2.294 . S
O11 C4 1.240 . S
O12 In0 2.326 . S
O12 C4 1.252 . S
In13 O14 2.294 . S
In13 O15 2.326 . S
In13 O19 2.266 . S
In13 O20 2.326 . S
In13 O21 2.266 . S
In13 O22 2.326 . S
In13 O24 2.294 . S
In13 O25 2.326 . S
O14 In13 2.294 . S
O14 C23 1.240 . S
O15 In13 2.326 . S
O15 C23 1.252 . S
C16 O19 1.252 . S
C16 O20 1.260 . S
C17 O24 1.240 . S
C17 O25 1.252 . S
C18 O21 1.252 . S
C18 O22 1.260 . S
O19 In13 2.266 . S
O19 C16 1.252 . S
O20 In13 2.326 . S
O20 C16 1.260 . S
O21 In13 2.266 . S
O21 C18 1.252 . S
O22 In13 2.326 . S
O22 C18 1.260 . S
C23 O14 1.240 . S
C23 O15 1.252 . S
O24 In13 2.294 . S
O24 C17 1.240 . S
O25 In13 2.326 . S
O25 C17 1.252 . S
In26 O27 2.294 . S
In26 O28 2.326 . S
In26 O32 2.266 . S
In26 O33 2.326 . S
In26 O34 2.266 . S
In26 O35 2.326 . S
In26 O37 2.294 . S
In26 O38 2.326 . S
O27 In26 2.294 . S
O27 C36 1.240 . S
O28 In26 2.326 . S
O28 C36 1.252 . S
C29 O32 1.252 . S
C29 O33 1.260 . S
C30 O37 1.240 . S
C30 O38 1.252 . S
C31 O34 1.252 . S
C31 O35 1.260 . S
O32 In26 2.266 . S
O32 C29 1.252 . S
O33 In26 2.326 . S
O33 C29 1.260 . S
O34 In26 2.266 . S
O34 C31 1.252 . S
O35 In26 2.326 . S
O35 C31 1.260 . S
C36 O27 1.240 . S
C36 O28 1.252 . S
O37 In26 2.294 . S
O37 C30 1.240 . S
O38 In26 2.326 . S
O38 C30 1.252 . S
In39 O40 2.294 . S
In39 O41 2.326 . S
In39 O45 2.266 . S
In39 O46 2.326 . S
In39 O47 2.266 . S
In39 O48 2.326 1_554 S
In39 O50 2.294 . S
In39 O51 2.326 . S
O40 In39 2.294 . S
O40 C49 1.240 . S
O41 In39 2.326 . S
O41 C49 1.252 . S
C42 O45 1.252 . S
C42 O46 1.260 . S
C43 O50 1.240 . S
C43 O51 1.252 . S
C44 O47 1.252 . S
C44 O48 1.260 1_554 S
O45 In39 2.266 . S
O45 C42 1.252 . S
O46 In39 2.326 . S
O46 C42 1.260 . S
O47 In39 2.266 . S
O47 C44 1.252 . S
O48 In39 2.326 1_556 S
O48 C44 1.260 1_556 S
C49 O40 1.240 . S
C49 O41 1.252 . S
O50 In39 2.294 . S
O50 C43 1.240 . S
O51 In39 2.326 . S
O51 C43 1.252 . S
In52 O53 2.294 . S
In52 O54 2.326 . S
In52 O58 2.266 . S
In52 O59 2.326 . S
In52 O60 2.266 . S
In52 O61 2.326 . S
In52 O63 2.294 . S
In52 O64 2.326 . S
O53 In52 2.294 . S
O53 C62 1.240 . S
O54 In52 2.326 . S
O54 C62 1.252 . S
C55 O58 1.252 . S
C55 O59 1.260 . S
C56 O63 1.240 . S
C56 O64 1.252 . S
C57 O60 1.252 . S
C57 O61 1.260 . S
O58 In52 2.266 . S
O58 C55 1.252 . S
O59 In52 2.326 . S
O59 C55 1.260 . S
O60 In52 2.266 . S
O60 C57 1.252 . S
O61 In52 2.326 . S
O61 C57 1.260 . S
C62 O53 1.240 . S
C62 O54 1.252 . S
O63 In52 2.294 . S
O63 C56 1.240 . S
O64 In52 2.326 . S
O64 C56 1.252 . S
In65 O66 2.294 . S
In65 O67 2.326 . S
In65 O71 2.266 . S
In65 O72 2.326 . S
In65 O73 2.266 . S
In65 O74 2.326 . S
In65 O76 2.294 . S
In65 O77 2.326 . S
O66 In65 2.294 . S
O66 C75 1.240 . S
O67 In65 2.326 . S
O67 C75 1.252 . S
C68 O71 1.252 . S
C68 O72 1.260 . S
C69 O76 1.240 . S
C69 O77 1.252 . S
C70 O73 1.252 . S
C70 O74 1.260 . S
O71 In65 2.266 . S
O71 C68 1.252 . S
O72 In65 2.326 . S
O72 C68 1.260 . S
O73 In65 2.266 . S
O73 C70 1.252 . S
O74 In65 2.326 . S
O74 C70 1.260 . S
C75 O66 1.240 . S
C75 O67 1.252 . S
O76 In65 2.294 . S
O76 C69 1.240 . S
O77 In65 2.326 . S
O77 C69 1.252 . S
In78 O79 2.294 . S
In78 O80 2.326 . S
In78 O84 2.266 . S
In78 O85 2.326 . S
In78 O86 2.266 . S
In78 O87 2.326 . S
In78 O89 2.294 . S
In78 O90 2.326 . S
O79 In78 2.294 . S
O79 C88 1.240 . S
O80 In78 2.326 . S
O80 C88 1.252 . S
C81 O84 1.252 . S
C81 O85 1.260 . S
C82 O89 1.240 . S
C82 O90 1.252 . S
C83 O86 1.252 . S
C83 O87 1.260 . S
O84 In78 2.266 . S
O84 C81 1.252 . S
O85 In78 2.326 . S
O85 C81 1.260 . S
O86 In78 2.266 . S
O86 C83 1.252 . S
O87 In78 2.326 . S
O87 C83 1.260 . S
C88 O79 1.240 . S
C88 O80 1.252 . S
O89 In78 2.294 . S
O89 C82 1.240 . S
O90 In78 2.326 . S
O90 C82 1.252 . S
In91 O92 2.294 . S
In91 O93 2.326 . S
In91 O97 2.266 . S
In91 O98 2.326 1_556 S
In91 O99 2.266 . S
In91 O100 2.326 . S
In91 O102 2.294 . S
In91 O103 2.326 . S
O92 In91 2.294 . S
O92 C101 1.240 . S
O93 In91 2.326 . S
O93 C101 1.252 . S
C94 O97 1.252 . S
C94 O98 1.260 1_556 S
C95 O102 1.240 . S
C95 O103 1.252 . S
C96 O99 1.252 . S
C96 O100 1.260 . S
O97 In91 2.266 . S
O97 C94 1.252 . S
O98 In91 2.326 1_554 S
O98 C94 1.260 1_554 S
O99 In91 2.266 . S
O99 C96 1.252 . S
O100 In91 2.326 . S
O100 C96 1.260 . S
C101 O92 1.240 . S
C101 O93 1.252 . S
O102 In91 2.294 . S
O102 C95 1.240 . S
O103 In91 2.326 . S
O103 C95 1.252 . S
In104 O105 2.294 . S
In104 O106 2.326 . S
In104 O110 2.266 . S
In104 O111 2.326 . S
In104 O112 2.266 . S
In104 O113 2.326 . S
In104 O115 2.294 . S
In104 O116 2.326 . S
O105 In104 2.294 . S
O105 C114 1.240 . S
O106 In104 2.326 . S
O106 C114 1.252 . S
C107 O110 1.252 . S
C107 O111 1.260 . S
C108 O115 1.240 . S
C108 O116 1.252 . S
C109 O112 1.252 . S
C109 O113 1.260 . S
O110 In104 2.266 . S
O110 C107 1.252 . S
O111 In104 2.326 . S
O111 C107 1.260 . S
O112 In104 2.266 . S
O112 C109 1.252 . S
O113 In104 2.326 . S
O113 C109 1.260 . S
C114 O105 1.240 . S
C114 O106 1.252 . S
O115 In104 2.294 . S
O115 C108 1.240 . S
O116 In104 2.326 . S
O116 C108 1.252 . S
In117 O118 2.294 . S
In117 O119 2.326 . S
In117 O123 2.266 . S
In117 O124 2.326 . S
In117 O125 2.266 . S
In117 O126 2.326 . S
In117 O128 2.294 . S
In117 O129 2.326 . S
O118 In117 2.294 . S
O118 C127 1.240 . S
O119 In117 2.326 . S
O119 C127 1.252 . S
C120 O123 1.252 . S
C120 O124 1.260 . S
C121 O128 1.240 . S
C121 O129 1.252 . S
C122 O125 1.252 . S
C122 O126 1.260 . S
O123 In117 2.266 . S
O123 C120 1.252 . S
O124 In117 2.326 . S
O124 C120 1.260 . S
O125 In117 2.266 . S
O125 C122 1.252 . S
O126 In117 2.326 . S
O126 C122 1.260 . S
C127 O118 1.240 . S
C127 O119 1.252 . S
O128 In117 2.294 . S
O128 C121 1.240 . S
O129 In117 2.326 . S
O129 C121 1.252 . S
In130 O131 2.294 . S
In130 O132 2.326 . S
In130 O136 2.266 . S
In130 O137 2.326 . S
In130 O138 2.266 . S
In130 O139 2.326 1_556 S
In130 O141 2.294 . S
In130 O142 2.326 . S
O131 In130 2.294 . S
O131 C140 1.240 . S
O132 In130 2.326 . S
O132 C140 1.252 . S
C133 O136 1.252 . S
C133 O137 1.260 . S
C134 O141 1.240 . S
C134 O142 1.252 . S
C135 O138 1.252 . S
C135 O139 1.260 1_556 S
O136 In130 2.266 . S
O136 C133 1.252 . S
O137 In130 2.326 . S
O137 C133 1.260 . S
O138 In130 2.266 . S
O138 C135 1.252 . S
O139 In130 2.326 1_554 S
O139 C135 1.260 1_554 S
C140 O131 1.240 . S
C140 O132 1.252 . S
O141 In130 2.294 . S
O141 C134 1.240 . S
O142 In130 2.326 . S
O142 C134 1.252 . S
In143 O144 2.294 . S
In143 O145 2.326 . S
In143 O149 2.266 . S
In143 O150 2.326 . S
In143 O151 2.266 . S
In143 O152 2.326 . S
In143 O154 2.294 . S
In143 O155 2.326 . S
O144 In143 2.294 . S
O144 C153 1.240 . S
O145 In143 2.326 . S
O145 C153 1.252 . S
C146 O149 1.252 . S
C146 O150 1.260 . S
C147 O154 1.240 . S
C147 O155 1.252 . S
C148 O151 1.252 . S
C148 O152 1.260 . S
O149 In143 2.266 . S
O149 C146 1.252 . S
O150 In143 2.326 . S
O150 C146 1.260 . S
O151 In143 2.266 . S
O151 C148 1.252 . S
O152 In143 2.326 . S
O152 C148 1.260 . S
C153 O144 1.240 . S
C153 O145 1.252 . S
O154 In143 2.294 . S
O154 C147 1.240 . S
O155 In143 2.326 . S
O155 C147 1.252 . S
C96 C5 1.578 1_566 S
C16 C109 1.578 . S
C29 C122 1.578 1_655 S
C42 C133 1.578 1_564 S
C148 C55 1.578 . S
C83 C68 1.578 1_655 S
C135 C3 1.353 1_556 S
C18 C146 1.353 . S
C31 C81 1.353 . S
C94 C44 1.353 1_556 S
C107 C57 1.353 . S
C120 C70 1.353 . S
C10 C114 1.786 . S
C17 C127 1.786 . S
C134 C30 1.786 . S
C43 C153 1.786 . S
C88 C56 1.786 . S
C101 C69 1.786 . S
C49 C4 1.892 . S
C62 C23 1.892 1_655 S
C36 C75 1.892 1_545 S
C82 C121 1.892 . S
C95 C140 1.892 1_455 S
C147 C108 1.892 1_565 S
