# Generated by pormake.
# Topology pcu, (6)-cn, num edge types: 1
# Building blocks:
#     Node 0, Type 0, BuildingBlock: MIFKUJ_clean_sbu_0, # of connection points: 6
#     Edge 1, Type (0, 0), BuildingBlock: AJUNOK_clean_linker_0, # of connection points: 2
#     Edge 2, Type (0, 0), BuildingBlock: AJUNOK_clean_linker_0, # of connection points: 2
#     Edge 3, Type (0, 0), BuildingBlock: AJUNOK_clean_linker_0, # of connection points: 2
# Relax obj value: 0.000
# Max RMSD: 0.000
# Mean RMSD: 0.000
data_MOF--net-pcu--node1-MIFKUJ_clean_sbu_0--edge1-AJUNOK_clean_linker_0
_symmetry_space_group_name_H-M    P1
_symmetry_Int_Tables_number       1
_symmetry_cell_setting            triclinic
loop_
_symmetry_equiv_pos_as_xyz
'x, y, z'
_cell_length_a     11.785747
_cell_length_b     14.315972
_cell_length_c     10.601212
_cell_angle_alpha  99.239619
_cell_angle_beta   98.996991
_cell_angle_gamma 99.738256
loop_
_atom_site_label
_atom_site_type_symbol
_atom_site_fract_x
_atom_site_fract_y
_atom_site_fract_z
_atom_type_partial_charge
Zn0 Zn 0.06814 0.86057 0.94751 0.0
Zn1 Zn 1.05056 0.07235 -0.00961 0.0
C2 C 0.30627 0.88098 0.91053 0.0
O3 O 0.25569 0.81452 0.80743 0.0
C4 C 0.80931 0.04052 0.02173 0.0
O5 O 0.85292 0.10868 0.12505 0.0
O6 O 1.04636 0.71582 0.9176 0.0
O7 O 1.00308 0.89851 0.10978 0.0
O8 O 0.12164 0.03985 0.15804 0.0
C9 C 0.07971 0.67709 0.01306 0.0
O10 O 0.12808 0.7332 0.12596 0.0
O11 O 0.24282 0.913 -0.01276 0.0
C12 C 1.02486 0.25817 0.93416 0.0
O13 O 0.97431 0.20586 0.81935 0.0
O14 O 1.06456 0.21624 0.0234 0.0
O15 O 0.11957 0.03849 0.8321 0.0
O16 O 1.00334 0.89581 0.77698 0.0
O17 O 0.87786 0.01278 0.9487 0.0
C18 C 1.06247 -0.02991 0.19474 0.0
C19 C 1.06129 -0.03156 0.74426 0.0
C20 C 1.01564 0.88778 0.37717 0.0
C21 C 1.06229 -0.02793 0.33513 0.0
C22 C 1.01541 0.88734 0.50929 0.0
C23 C 1.06189 -0.02881 0.60493 0.0
H24 H 0.97966 0.82108 0.30767 0.0
H25 H 0.97922 0.82037 0.5365 0.0
S26 S 0.18885 0.21255 0.54554 0.0
N27 N 0.15224 0.14284 0.39972 0.0
N28 N 0.15251 0.14197 0.64748 0.0
C29 C 0.10778 0.05634 0.56411 0.0
C30 C 0.10782 0.05683 0.42954 0.0
C31 C 0.48601 -0.00501 0.04271 0.0
C32 C 0.43489 0.91918 0.93653 0.0
C33 C 0.60673 0.03324 0.06936 0.0
C34 C 0.68186 -0.00256 -0.00895 0.0
H35 H 0.4324 0.02566 0.10598 0.0
H36 H 0.64108 0.09176 0.15207 0.0
S37 S 0.59313 0.79777 0.70239 0.0
N38 N 0.46976 0.80859 0.75328 0.0
N39 N 0.69627 0.88038 0.80337 0.0
C40 C 0.63221 0.92118 0.88484 0.0
C41 C 0.50903 0.88216 0.85763 0.0
C42 C 1.03078 0.5126 0.87118 0.0
C43 C 1.06509 0.57049 -0.00343 0.0
C44 C 1.01737 0.41189 0.85226 0.0
C45 C 1.03778 0.36478 0.9579 0.0
H46 H 1.01494 0.54521 0.78634 0.0
H47 H 0.99194 0.37088 0.75361 0.0
S48 S 0.12328 0.48235 0.30698 0.0
N49 N 0.11524 0.5726 0.22889 0.0
N50 N 0.09013 0.38358 0.19328 0.0
C51 C 0.07083 0.42157 0.0841 0.0
C52 C 0.08444 0.52424 0.10342 0.0
loop_
_geom_bond_atom_site_label_1
_geom_bond_atom_site_label_2
_geom_bond_distance
_geom_bond_site_symmetry_2
_ccdc_geom_bond_type
Zn0 O6 1.969 . S
Zn0 O7 1.965 1_456 S
Zn0 O11 2.024 1_556 S
Zn0 O16 1.969 . S
Zn1 O8 1.969 . S
Zn1 O14 1.969 . S
Zn1 O15 1.965 1_654 S
Zn1 O17 2.024 1_554 S
C2 O3 1.229 . S
C2 O11 1.058 1_556 S
O3 C2 1.229 . S
C4 O5 1.229 . S
C4 O17 1.058 1_554 S
O5 C4 1.229 . S
O6 Zn0 1.969 . S
O6 C9 1.267 1_556 S
O7 Zn0 1.965 1_654 S
O7 C18 1.267 . S
O8 Zn1 1.969 . S
O8 C18 1.248 1_545 S
C9 O6 1.267 1_554 S
C9 O10 1.228 . S
O10 C9 1.228 . S
O11 Zn0 2.024 1_554 S
O11 C2 1.058 1_554 S
C12 O13 1.228 . S
C12 O14 1.267 1_556 S
O13 C12 1.228 . S
O14 Zn1 1.969 . S
O14 C12 1.267 1_554 S
O15 Zn1 1.965 1_456 S
O15 C19 1.269 . S
O16 Zn0 1.969 . S
O16 C19 1.245 1_565 S
O17 Zn1 2.024 1_556 S
O17 C4 1.058 1_556 S
C18 O7 1.267 . S
C18 O8 1.248 1_565 S
C19 O15 1.269 . S
C19 O16 1.245 1_545 S
C20 C21 1.369 1_665 S
C20 C22 1.419 . S
C20 H24 0.930 . S
C21 C20 1.369 1_445 S
C21 C30 1.429 . S
C22 C20 1.419 . S
C22 C23 1.357 1_665 S
C22 H25 0.929 . S
C23 C22 1.357 1_445 S
C23 C29 1.437 . S
H24 C20 0.930 . S
H25 C22 0.929 . S
S26 N27 1.613 . S
S26 N28 1.610 . S
N27 S26 1.613 . S
N27 C30 1.350 . S
N28 S26 1.610 . S
N28 C29 1.351 . S
C29 C23 1.437 . S
C29 N28 1.351 . S
C29 C30 1.434 . S
C30 C21 1.429 . S
C30 N27 1.350 . S
C30 C29 1.434 . S
C31 C32 1.369 1_544 S
C31 C33 1.419 . S
C31 H35 0.930 . S
C32 C31 1.369 1_566 S
C32 C41 1.429 . S
C33 C31 1.419 . S
C33 C34 1.353 1_544 S
C33 H36 0.929 . S
C34 C33 1.353 1_566 S
C34 C40 1.435 . S
H35 C31 0.930 . S
H36 C33 0.929 . S
S37 N38 1.613 . S
S37 N39 1.610 . S
N38 S37 1.613 . S
N38 C41 1.350 . S
N39 S37 1.610 . S
N39 C40 1.351 . S
C40 C34 1.435 . S
C40 N39 1.351 . S
C40 C41 1.434 . S
C41 C32 1.429 . S
C41 N38 1.350 . S
C41 C40 1.434 . S
C42 C43 1.364 1_456 S
C42 C44 1.419 . S
C42 H46 0.930 . S
C43 C42 1.364 1_654 S
C43 C52 1.431 . S
C44 C42 1.419 . S
C44 C45 1.361 1_456 S
C44 H47 0.929 . S
C45 C44 1.361 1_654 S
C45 C51 1.433 . S
H46 C42 0.930 . S
H47 C44 0.929 . S
S48 N49 1.613 . S
S48 N50 1.610 . S
N49 S48 1.613 . S
N49 C52 1.350 . S
N50 S48 1.610 . S
N50 C51 1.351 . S
C51 C45 1.433 . S
C51 N50 1.351 . S
C51 C52 1.434 . S
C52 C43 1.431 . S
C52 N49 1.350 . S
C52 C51 1.434 . S
C21 C18 1.484 1_445 S
C23 C19 1.478 . S
C32 C2 1.409 . S
C34 C4 1.419 1_566 S
C43 C9 1.460 1_655 S
C45 C12 1.456 1_554 S
