# Generated by pormake.
# Topology qtz-x, (6)-cn, num edge types: 1
# Building blocks:
#     Node 0, Type 0, BuildingBlock: UKALOJ_clean_sbu_0, # of connection points: 6
#     Node 1, Type 0, BuildingBlock: UKALOJ_clean_sbu_0, # of connection points: 6
#     Node 2, Type 0, BuildingBlock: UKALOJ_clean_sbu_0, # of connection points: 6
#     Edge 3, Type (0, 0), BuildingBlock: AJUNOK_clean_linker_0, # of connection points: 2
#     Edge 4, Type (0, 0), BuildingBlock: AJUNOK_clean_linker_0, # of connection points: 2
#     Edge 5, Type (0, 0), BuildingBlock: AJUNOK_clean_linker_0, # of connection points: 2
#     Edge 6, Type (0, 0), BuildingBlock: AJUNOK_clean_linker_0, # of connection points: 2
#     Edge 7, Type (0, 0), BuildingBlock: AJUNOK_clean_linker_0, # of connection points: 2
#     Edge 8, Type (0, 0), BuildingBlock: AJUNOK_clean_linker_0, # of connection points: 2
#     Edge 9, Type (0, 0), BuildingBlock: AJUNOK_clean_linker_0, # of connection points: 2
#     Edge 10, Type (0, 0), BuildingBlock: AJUNOK_clean_linker_0, # of connection points: 2
#     Edge 11, Type (0, 0), BuildingBlock: AJUNOK_clean_linker_0, # of connection points: 2
# Relax obj value: 0.353
# Max RMSD: 0.266
# Mean RMSD: 0.264
data_MOF--net-qtz-x--node1-UKALOJ_clean_sbu_0--edge1-AJUNOK_clean_linker_0
_symmetry_space_group_name_H-M    P1
_symmetry_Int_Tables_number       1
_symmetry_cell_setting            triclinic
loop_
_symmetry_equiv_pos_as_xyz
'x, y, z'
_cell_length_a     15.856345
_cell_length_b     15.784815
_cell_length_c     22.351961
_cell_angle_alpha  93.718608
_cell_angle_beta   93.899625
_cell_angle_gamma 120.56553
loop_
_atom_site_label
_atom_site_type_symbol
_atom_site_fract_x
_atom_site_fract_y
_atom_site_fract_z
_atom_type_partial_charge
Zn0 Zn 0.02472 0.57455 0.23612 0.0
O1 O 0.12725 0.62726 0.16744 0.0
C2 C 0.84968 0.45391 0.14469 0.0
Zn3 Zn 1.0057 0.42956 0.21076 0.0
C4 C 0.13721 0.56593 0.13317 0.0
O5 O 0.08922 0.47493 0.13994 0.0
C6 C 0.89285 0.42689 0.31324 0.0
O7 O 0.14136 0.47681 0.27337 0.0
O8 O 0.1434 0.61453 0.29871 0.0
N9 N 0.9777 0.2916 0.19213 0.0
C10 C 0.03457 0.25131 0.19234 0.0
C11 C 0.88457 0.13313 0.17966 0.0
N12 N 0.88462 0.2183 0.18359 0.0
N13 N 0.97768 0.15153 0.18506 0.0
C14 C 0.05077 0.77693 0.22069 0.0
C15 C 0.03458 0.82337 0.30879 0.0
N16 N 0.04195 0.70842 0.25653 0.0
N17 N 0.03267 0.73748 0.31135 0.0
N18 N 0.04538 0.84905 0.25234 0.0
H19 H 0.14723 0.79066 0.1549 0.0
H20 H 0.06849 0.83566 0.13371 0.0
H21 H 0.01894 0.70343 0.13026 0.0
C22 C 0.0714 0.7765 0.15609 0.0
C23 C 0.14504 0.31003 0.19752 0.0
H24 H 0.17077 0.37882 0.17574 0.0
H25 H 0.17381 0.2658 0.17625 0.0
H26 H 0.17537 0.33158 0.24586 0.0
O27 O 0.92029 0.3783 0.2814 0.0
O28 O 0.92372 0.51666 0.3051 0.0
C29 C 0.18177 0.56186 0.30433 0.0
O30 O 0.90419 0.53882 0.17387 0.0
O31 O 0.87339 0.38866 0.14984 0.0
Zn32 Zn 0.61431 0.02347 0.57079 0.0
O33 O 0.56004 0.89156 0.50262 0.0
C34 C 0.64291 0.161 0.47649 0.0
Zn35 Zn 0.47904 0.02282 0.54167 0.0
C36 C 0.47889 0.86058 0.46918 0.0
O37 O 0.43397 0.90713 0.47468 0.0
C38 C 0.60224 0.1847 0.64184 0.0
O39 O 0.41016 0.90915 0.60556 0.0
O40 O 0.55416 0.92686 0.63332 0.0
N41 N 0.35135 0.01874 0.51893 0.0
C42 C 0.29242 0.03347 0.55317 0.0
C43 C 0.2275 1.00178 0.46161 0.0
N44 N 0.31115 0.99919 0.46206 0.0
N45 N 0.21508 0.0243 0.51817 0.0
C46 C 0.80267 0.01612 0.55905 0.0
C47 C 0.87381 0.0616 0.64951 0.0
N48 N 0.74319 0.03023 0.5931 0.0
N49 N 0.78722 0.05827 0.64929 0.0
N50 N 0.88484 0.03526 0.59342 0.0
H51 H 0.74997 0.90725 0.48218 0.0
H52 H 0.85258 0.02583 0.47096 0.0
H53 H 0.73074 1.00781 0.47092 0.0
C54 C 0.78287 0.98845 0.49191 0.0
C55 C 0.30785 0.05186 0.62086 0.0
H56 H 0.2364 0.02285 0.63963 0.0
H57 H 0.35321 0.1328 0.6349 0.0
H58 H 0.34737 0.01722 0.64026 0.0
O59 O 0.52129 0.14076 0.60781 0.0
O60 O 0.66051 0.15153 0.63887 0.0
C61 C 0.46279 0.88418 0.63708 0.0
O62 O 0.68014 0.12235 0.50848 0.0
O63 O 0.5522 0.13251 0.47854 0.0
Zn64 Zn 0.56338 0.60209 0.89891 0.0
O65 O 0.63224 0.5535 0.8316 0.0
C66 C 0.43617 0.61049 0.79821 0.0
Zn67 Zn 0.43086 0.45574 0.8721 0.0
C68 C 0.58368 0.46587 0.80368 0.0
O69 O 0.49498 0.4093 0.81213 0.0
C70 C 0.39883 0.5796 0.9652 0.0
O71 O 0.48461 0.40059 0.94421 0.0
O72 O 0.61461 0.54958 0.96527 0.0
N73 N 0.30285 0.32575 0.85021 0.0
C74 C 0.26614 0.23565 0.86907 0.0
C75 C 0.14956 0.23422 0.8148 0.0
N76 N 0.23063 0.32418 0.81573 0.0
N77 N 0.17024 0.17751 0.84788 0.0
C78 C 0.78083 0.76987 0.91477 0.0
C79 C 0.76935 0.8937 0.94572 0.0
N80 N 0.68539 0.73613 0.92043 0.0
N81 N 0.67842 0.81285 0.94049 0.0
N82 N 0.83483 0.86844 0.93007 0.0
H83 H 0.78167 0.63377 0.91336 0.0
H84 H 0.90154 0.74373 0.91305 0.0
H85 H 0.81462 0.69478 0.84594 0.0
C86 C 0.82207 0.7067 0.89593 0.0
C87 C 0.32337 0.20311 0.90733 0.0
H88 H 0.39602 0.22838 0.89087 0.0
H89 H 0.28295 0.12122 0.90584 0.0
H90 H 0.33493 0.23538 0.95485 0.0
O91 O 0.35999 0.49759 0.9322 0.0
O92 O 0.48984 0.6425 0.96404 0.0
C93 C 0.56733 0.46013 0.9753 0.0
O94 O 0.51529 0.66214 0.83339 0.0
O95 O 0.38471 0.51765 0.80109 0.0
C96 C 0.09219 0.02287 0.25977 0.0
C97 C 0.03449 0.92632 0.2306 0.0
C98 C 0.07667 0.09786 0.24279 0.0
C99 C 1.00371 0.07866 0.1955 0.0
H100 H 0.14756 0.03944 0.29709 0.0
H101 H 0.11836 0.16949 0.26928 0.0
S102 S 0.82867 0.83521 0.10788 0.0
N103 N 0.89733 0.81278 0.15549 0.0
N104 N 0.8716 0.95521 0.12105 0.0
C105 C 0.94593 0.98201 0.16583 0.0
C106 C 0.96043 0.90538 0.18396 0.0
C107 C 0.03707 0.94783 0.52079 0.0
C108 C 0.1329 0.02935 0.53626 0.0
C109 C 0.95597 0.94967 0.5402 0.0
C110 C 0.96864 0.03356 0.57498 0.0
H111 H 0.02536 0.88183 0.49455 0.0
H112 H 0.88307 0.88491 0.5286 0.0
S113 S 0.20424 0.26827 0.62349 0.0
N114 N 0.23608 0.1976 0.58544 0.0
N115 N 0.08314 0.20094 0.62235 0.0
C116 C 0.06404 0.11584 0.59015 0.0
C117 C 0.14646 0.11397 0.57039 0.0
C118 C 0.94845 0.92999 0.85327 0.0
C119 C 0.92964 0.93646 0.9135 0.0
C120 C 0.03122 1.00723 0.83262 0.0
C121 C 0.09751 0.09213 0.87179 0.0
H122 H 0.89535 0.8682 0.82102 0.0
H123 H 0.04125 1.00305 0.78529 0.0
S124 S 0.0818 0.14346 1.03354 0.0
N125 N 0.98436 0.03231 1.01205 0.0
N126 N 0.14054 0.17847 0.97329 0.0
C127 C 0.08169 0.09776 0.9326 0.0
C128 C 0.9973 0.01947 0.95344 0.0
C129 C 0.37265 0.65063 0.062 0.0
C130 C 0.33573 0.5978 1.00388 0.0
C131 C 0.30811 0.64947 0.10291 0.0
C132 C 0.20527 0.5963 0.0865 0.0
H133 H 0.45068 0.68683 0.0774 0.0
H134 H 0.3381 0.68361 0.14889 0.0
S135 S 0.0733 0.46033 0.937 0.0
N136 N 0.19063 0.50226 0.92992 0.0
N137 N 0.07092 0.49952 1.0068 0.0
C138 C 0.16878 0.55048 1.0272 0.0
C139 C 0.23365 0.55151 0.98583 0.0
C140 C 0.67092 0.27869 0.39716 0.0
C141 C 0.70818 0.23916 0.43912 0.0
C142 C 0.73264 0.34699 0.35911 0.0
C143 C 0.83349 0.37823 0.36217 0.0
H144 H 0.59317 0.25418 0.39216 0.0
H145 H 0.70028 0.37121 0.32504 0.0
S146 S 0.97022 0.30457 0.46645 0.0
N147 N 0.85604 0.24397 0.48352 0.0
N148 N 0.96848 0.36865 0.41149 0.0
C149 C 0.8721 0.34271 0.40531 0.0
C150 C 0.8105 0.27432 0.44397 0.0
C151 C 0.39947 0.7407 0.77179 0.0
C152 C 0.41033 0.66013 0.75277 0.0
C153 C 0.40374 0.80778 0.73168 0.0
C154 C 0.4212 0.79752 0.67161 0.0
H155 H 0.39408 0.75558 0.81894 0.0
H156 H 0.40226 0.8726 0.74914 0.0
S157 S 0.45567 0.5997 0.60024 0.0
N158 N 0.43481 0.57172 0.66972 0.0
N159 N 0.45016 0.70081 0.59566 0.0
C160 C 0.42834 0.71497 0.65179 0.0
C161 C 0.4209 0.64533 0.69202 0.0
C162 C 0.65594 0.37465 1.00878 0.0
C163 C 0.61221 0.43063 1.02339 0.0
C164 C 0.72842 0.37594 1.0499 0.0
C165 C 0.75987 0.43437 0.10633 0.0
H166 H 0.63988 0.33619 0.96379 0.0
H167 H 0.76491 0.33704 1.03571 0.0
S168 S 0.6569 0.58206 0.16861 0.0
N169 N 0.59746 0.53658 0.10004 0.0
N170 N 0.73202 0.53901 0.17711 0.0
C171 C 0.71057 0.48397 0.12282 0.0
C172 C 0.6372 0.48216 0.08136 0.0
C173 C 0.36324 0.67213 0.33082 0.0
C174 C 0.271 0.60359 0.34861 0.0
C175 C 0.43835 0.74992 0.37232 0.0
C176 C 0.42312 0.76192 0.43282 0.0
H177 H 0.37345 0.67227 0.28337 0.0
H178 H 0.50411 0.80643 0.35558 0.0
S179 S 0.19668 0.59973 0.5022 0.0
N180 N 0.17253 0.54915 0.43152 0.0
N181 N 0.30997 0.69622 0.50829 0.0
C182 C 0.33405 0.68945 0.4517 0.0
C183 C 0.25908 0.60987 0.40997 0.0
C184 C 0.58908 0.40782 0.69979 0.0
C185 C 0.62502 0.42499 0.76116 0.0
C186 C 0.58956 0.33479 0.66084 0.0
C187 C 0.6257 0.27532 0.68156 0.0
H188 H 0.55243 0.44515 0.68286 0.0
H189 H 0.55556 0.32066 0.61474 0.0
S190 S 0.73606 0.29695 0.83746 0.0
N191 N 0.70409 0.3817 0.84026 0.0
N192 N 0.70636 0.24493 0.76669 0.0
C193 C 0.66921 0.29707 0.74174 0.0
C194 C 0.66822 0.3716 0.78165 0.0
loop_
_geom_bond_atom_site_label_1
_geom_bond_atom_site_label_2
_geom_bond_distance
_geom_bond_site_symmetry_2
_ccdc_geom_bond_type
Zn0 O1 2.055 . S
Zn0 O8 2.046 . S
Zn0 N16 2.036 . S
Zn0 O28 2.053 1_455 S
Zn0 O30 2.066 1_455 S
O1 Zn0 2.055 . S
O1 C4 1.259 . S
C2 O30 1.256 . S
C2 O31 1.244 . S
Zn3 O5 2.046 . S
Zn3 O7 2.055 . S
Zn3 N9 2.036 . S
Zn3 O27 2.066 1_455 S
Zn3 O31 2.053 1_455 S
C4 O1 1.259 . S
C4 O5 1.254 . S
O5 Zn3 2.046 . S
O5 C4 1.254 . S
C6 O27 1.256 . S
C6 O28 1.244 . S
O7 Zn3 2.055 . S
O7 C29 1.259 . S
O8 Zn0 2.046 . S
O8 C29 1.254 . S
N9 Zn3 2.036 . S
N9 C10 1.298 . S
N9 N12 1.398 1_455 S
C10 N9 1.298 . S
C10 N13 1.367 1_455 S
C10 C23 1.481 . S
C11 N12 1.299 . S
C11 N13 1.379 . S
N12 N9 1.398 1_655 S
N12 C11 1.299 . S
N13 C10 1.367 1_655 S
N13 C11 1.379 . S
C14 N16 1.298 . S
C14 N18 1.367 1_455 S
C14 C22 1.481 . S
C15 N17 1.299 . S
C15 N18 1.379 . S
N16 Zn0 2.036 . S
N16 C14 1.298 . S
N16 N17 1.398 1_455 S
N17 C15 1.299 . S
N17 N16 1.398 1_655 S
N18 C14 1.367 1_655 S
N18 C15 1.379 . S
H19 C22 0.980 . S
H20 C22 0.981 . S
H21 C22 0.981 1_655 S
C22 C14 1.481 . S
C22 H19 0.980 . S
C22 H20 0.981 . S
C22 H21 0.981 1_455 S
C23 C10 1.481 . S
C23 H24 0.980 . S
C23 H25 0.981 . S
C23 H26 0.981 . S
H24 C23 0.980 . S
H25 C23 0.981 . S
H26 C23 0.981 . S
O27 Zn3 2.066 1_655 S
O27 C6 1.256 . S
O28 Zn0 2.053 1_655 S
O28 C6 1.244 . S
C29 O7 1.259 . S
C29 O8 1.254 . S
O30 Zn0 2.066 1_655 S
O30 C2 1.256 . S
O31 C2 1.244 . S
O31 Zn3 2.053 1_655 S
Zn32 O33 2.055 . S
Zn32 O40 2.046 . S
Zn32 N48 2.036 1_565 S
Zn32 O60 2.053 1_565 S
Zn32 O62 2.066 1_565 S
O33 Zn32 2.055 . S
O33 C36 1.259 . S
C34 O62 1.256 . S
C34 O63 1.244 . S
Zn35 O37 2.046 . S
Zn35 O39 2.055 . S
Zn35 N41 2.036 1_565 S
Zn35 O59 2.066 1_565 S
Zn35 O63 2.053 1_565 S
C36 O33 1.259 . S
C36 O37 1.254 . S
O37 Zn35 2.046 . S
O37 C36 1.254 . S
C38 O59 1.256 . S
C38 O60 1.244 . S
O39 Zn35 2.055 . S
O39 C61 1.259 . S
O40 Zn32 2.046 . S
O40 C61 1.254 . S
N41 Zn35 2.036 1_545 S
N41 C42 1.298 . S
N41 N44 1.398 . S
C42 N41 1.298 . S
C42 N45 1.367 . S
C42 C55 1.481 1_545 S
C43 N44 1.299 . S
C43 N45 1.379 . S
N44 N41 1.398 . S
N44 C43 1.299 . S
N45 C42 1.367 . S
N45 C43 1.379 . S
C46 N48 1.303 . S
C46 N50 1.366 . S
C46 C54 1.477 1_545 S
C47 N49 1.299 . S
C47 N50 1.379 . S
N48 Zn32 2.036 1_545 S
N48 C46 1.303 . S
N48 N49 1.398 . S
N49 C47 1.299 . S
N49 N48 1.398 . S
N50 C46 1.366 . S
N50 C47 1.379 . S
H51 C54 0.980 . S
H52 C54 0.981 . S
H53 C54 0.981 1_545 S
C54 C46 1.477 1_565 S
C54 H51 0.980 . S
C54 H52 0.981 . S
C54 H53 0.981 1_565 S
C55 C42 1.481 1_565 S
C55 H56 0.980 . S
C55 H57 0.981 . S
C55 H58 0.981 1_565 S
H56 C55 0.980 . S
H57 C55 0.981 . S
H58 C55 0.981 1_545 S
O59 Zn35 2.066 1_545 S
O59 C38 1.256 . S
O60 Zn32 2.053 1_545 S
O60 C38 1.244 . S
C61 O39 1.259 . S
C61 O40 1.254 . S
O62 Zn32 2.066 1_545 S
O62 C34 1.256 . S
O63 C34 1.244 . S
O63 Zn35 2.053 1_545 S
Zn64 O65 2.055 . S
Zn64 O72 2.046 . S
Zn64 N80 2.036 . S
Zn64 O92 2.053 . S
Zn64 O94 2.066 . S
O65 Zn64 2.055 . S
O65 C68 1.259 . S
C66 O94 1.256 . S
C66 O95 1.244 . S
Zn67 O69 2.046 . S
Zn67 O71 2.055 . S
Zn67 N73 2.036 . S
Zn67 O91 2.066 . S
Zn67 O95 2.053 . S
C68 O65 1.259 . S
C68 O69 1.254 . S
O69 Zn67 2.046 . S
O69 C68 1.254 . S
C70 O91 1.256 . S
C70 O92 1.244 . S
O71 Zn67 2.055 . S
O71 C93 1.259 . S
O72 Zn64 2.046 . S
O72 C93 1.254 . S
N73 Zn67 2.036 . S
N73 C74 1.298 . S
N73 N76 1.398 . S
C74 N73 1.298 . S
C74 N77 1.367 . S
C74 C87 1.481 . S
C75 N76 1.299 . S
C75 N77 1.379 . S
N76 N73 1.398 . S
N76 C75 1.299 . S
N77 C74 1.367 . S
N77 C75 1.379 . S
C78 N80 1.298 . S
C78 N82 1.367 . S
C78 C86 1.481 . S
C79 N81 1.299 . S
C79 N82 1.379 . S
N80 Zn64 2.036 . S
N80 C78 1.298 . S
N80 N81 1.398 . S
N81 C79 1.299 . S
N81 N80 1.398 . S
N82 C78 1.367 . S
N82 C79 1.379 . S
H83 C86 0.980 . S
H84 C86 0.981 . S
H85 C86 0.981 . S
C86 C78 1.481 . S
C86 H83 0.980 . S
C86 H84 0.981 . S
C86 H85 0.981 . S
C87 C74 1.481 . S
C87 H88 0.980 . S
C87 H89 0.981 . S
C87 H90 0.981 . S
H88 C87 0.980 . S
H89 C87 0.981 . S
H90 C87 0.981 . S
O91 Zn67 2.066 . S
O91 C70 1.256 . S
O92 Zn64 2.053 . S
O92 C70 1.244 . S
C93 O71 1.259 . S
C93 O72 1.254 . S
O94 Zn64 2.066 . S
O94 C66 1.256 . S
O95 C66 1.244 . S
O95 Zn67 2.053 . S
C96 C97 1.369 . S
C96 C98 1.419 1_565 S
C96 H100 0.930 1_655 S
C97 C96 1.369 . S
C97 C106 1.429 . S
C98 C96 1.419 1_545 S
C98 C99 1.363 . S
C98 H101 0.929 1_655 S
C99 C98 1.363 . S
C99 C105 1.428 . S
H100 C96 0.930 1_455 S
H101 C98 0.929 1_455 S
S102 N103 1.613 . S
S102 N104 1.610 1_565 S
N103 S102 1.613 . S
N103 C106 1.350 . S
N104 S102 1.610 1_545 S
N104 C105 1.351 . S
C105 C99 1.428 . S
C105 N104 1.351 . S
C105 C106 1.434 1_545 S
C106 C97 1.429 . S
C106 N103 1.350 . S
C106 C105 1.434 1_565 S
C107 C108 1.369 1_565 S
C107 C109 1.419 1_455 S
C107 H111 0.930 . S
C108 C107 1.369 1_545 S
C108 C117 1.429 . S
C109 C107 1.419 1_655 S
C109 C110 1.363 1_565 S
C109 H112 0.929 . S
C110 C109 1.363 1_545 S
C110 C116 1.428 1_655 S
H111 C107 0.930 . S
H112 C109 0.929 . S
S113 N114 1.613 . S
S113 N115 1.610 . S
N114 S113 1.613 . S
N114 C117 1.350 . S
N115 S113 1.610 . S
N115 C116 1.351 . S
C116 C110 1.428 1_455 S
C116 N115 1.351 . S
C116 C117 1.434 . S
C117 C108 1.429 . S
C117 N114 1.350 . S
C117 C116 1.434 . S
C118 C119 1.369 1_545 S
C118 C120 1.419 1_655 S
C118 H122 0.930 1_545 S
C119 C118 1.369 1_565 S
C119 C128 1.429 . S
C120 C118 1.419 1_455 S
C120 C121 1.363 . S
C120 H123 0.929 . S
C121 C120 1.363 . S
C121 C127 1.428 . S
H122 C118 0.930 1_565 S
H123 C120 0.929 . S
S124 N125 1.613 1_445 S
S124 N126 1.610 . S
N125 S124 1.613 1_665 S
N125 C128 1.350 . S
N126 S124 1.610 . S
N126 C127 1.351 . S
C127 C121 1.428 . S
C127 N126 1.351 . S
C127 C128 1.434 1_445 S
C128 C119 1.429 . S
C128 N125 1.350 . S
C128 C127 1.434 1_665 S
C129 C130 1.369 . S
C129 C131 1.419 1_556 S
C129 H133 0.930 . S
C130 C129 1.369 . S
C130 C139 1.429 . S
C131 C129 1.419 1_554 S
C131 C132 1.363 . S
C131 H134 0.929 . S
C132 C131 1.363 . S
C132 C138 1.428 1_554 S
H133 C129 0.930 . S
H134 C131 0.929 . S
S135 N136 1.613 . S
S135 N137 1.610 . S
N136 S135 1.613 . S
N136 C139 1.350 . S
N137 S135 1.610 . S
N137 C138 1.351 . S
C138 C132 1.428 1_556 S
C138 N137 1.351 . S
C138 C139 1.434 . S
C139 C130 1.429 . S
C139 N136 1.350 . S
C139 C138 1.434 . S
C140 C141 1.369 . S
C140 C142 1.419 . S
C140 H144 0.930 . S
C141 C140 1.369 . S
C141 C150 1.429 . S
C142 C140 1.419 . S
C142 C143 1.363 . S
C142 H145 0.929 . S
C143 C142 1.363 . S
C143 C149 1.428 . S
H144 C140 0.930 . S
H145 C142 0.929 . S
S146 N147 1.613 . S
S146 N148 1.610 . S
N147 S146 1.613 . S
N147 C150 1.350 . S
N148 S146 1.610 . S
N148 C149 1.351 . S
C149 C143 1.428 . S
C149 N148 1.351 . S
C149 C150 1.434 . S
C150 C141 1.429 . S
C150 N147 1.350 . S
C150 C149 1.434 . S
C151 C152 1.369 . S
C151 C153 1.419 . S
C151 H155 0.930 . S
C152 C151 1.369 . S
C152 C161 1.429 . S
C153 C151 1.419 . S
C153 C154 1.363 . S
C153 H156 0.929 . S
C154 C153 1.363 . S
C154 C160 1.428 . S
H155 C151 0.930 . S
H156 C153 0.929 . S
S157 N158 1.613 . S
S157 N159 1.610 . S
N158 S157 1.613 . S
N158 C161 1.350 . S
N159 S157 1.610 . S
N159 C160 1.351 . S
C160 C154 1.428 . S
C160 N159 1.351 . S
C160 C161 1.434 . S
C161 C152 1.429 . S
C161 N158 1.350 . S
C161 C160 1.434 . S
C162 C163 1.369 . S
C162 C164 1.419 . S
C162 H166 0.930 . S
C163 C162 1.369 . S
C163 C172 1.429 1_556 S
C164 C162 1.419 . S
C164 C165 1.363 1_556 S
C164 H167 0.929 . S
C165 C164 1.363 1_554 S
C165 C171 1.428 . S
H166 C162 0.930 . S
H167 C164 0.929 . S
S168 N169 1.613 . S
S168 N170 1.610 . S
N169 S168 1.613 . S
N169 C172 1.350 . S
N170 S168 1.610 . S
N170 C171 1.351 . S
C171 C165 1.428 . S
C171 N170 1.351 . S
C171 C172 1.434 . S
C172 C163 1.429 1_554 S
C172 N169 1.350 . S
C172 C171 1.434 . S
C173 C174 1.369 . S
C173 C175 1.419 . S
C173 H177 0.930 . S
C174 C173 1.369 . S
C174 C183 1.429 . S
C175 C173 1.419 . S
C175 C176 1.363 . S
C175 H178 0.929 . S
C176 C175 1.363 . S
C176 C182 1.428 . S
H177 C173 0.930 . S
H178 C175 0.929 . S
S179 N180 1.613 . S
S179 N181 1.610 . S
N180 S179 1.613 . S
N180 C183 1.350 . S
N181 S179 1.610 . S
N181 C182 1.351 . S
C182 C176 1.428 . S
C182 N181 1.351 . S
C182 C183 1.434 . S
C183 C174 1.429 . S
C183 N180 1.350 . S
C183 C182 1.434 . S
C184 C185 1.369 . S
C184 C186 1.419 . S
C184 H188 0.930 . S
C185 C184 1.369 . S
C185 C194 1.429 . S
C186 C184 1.419 . S
C186 C187 1.363 . S
C186 H189 0.929 . S
C187 C186 1.363 . S
C187 C193 1.428 . S
H188 C184 0.930 . S
H189 C186 0.929 . S
S190 N191 1.613 . S
S190 N192 1.610 . S
N191 S190 1.613 . S
N191 C194 1.350 . S
N192 S190 1.610 . S
N192 C193 1.351 . S
C193 C187 1.428 . S
C193 N192 1.351 . S
C193 C194 1.434 . S
C194 C185 1.429 . S
C194 N191 1.350 . S
C194 C193 1.434 . S
C97 N18 0.901 . S
C99 N13 0.886 . S
C108 N45 0.899 . S
C110 N50 0.891 . S
C119 N82 0.876 . S
C121 N77 0.888 . S
C130 C70 1.835 . S
C132 C4 1.831 . S
C141 C34 2.112 . S
C143 C6 2.114 . S
C152 C66 1.836 . S
C154 C61 1.829 . S
C163 C93 1.863 . S
C165 C2 1.872 . S
C174 C29 1.608 . S
C176 C36 1.602 . S
C185 C68 1.856 . S
C187 C38 1.875 . S
