# Generated by pormake.
# Topology umx, (4)-cn, num edge types: 1
# Building blocks:
#     Node 0, Type 0, BuildingBlock: CEKHIL_clean_sbu_0, # of connection points: 4
#     Node 1, Type 0, BuildingBlock: CEKHIL_clean_sbu_0, # of connection points: 4
#     Node 2, Type 0, BuildingBlock: CEKHIL_clean_sbu_0, # of connection points: 4
#     Node 3, Type 0, BuildingBlock: CEKHIL_clean_sbu_0, # of connection points: 4
#     Node 4, Type 0, BuildingBlock: CEKHIL_clean_sbu_0, # of connection points: 4
#     Node 5, Type 0, BuildingBlock: CEKHIL_clean_sbu_0, # of connection points: 4
#     Node 6, Type 0, BuildingBlock: CEKHIL_clean_sbu_0, # of connection points: 4
#     Node 7, Type 0, BuildingBlock: CEKHIL_clean_sbu_0, # of connection points: 4
#     Edge 8, Type (0, 0), BuildingBlock: EYOCIG_clean_linker_4, # of connection points: 2
#     Edge 9, Type (0, 0), BuildingBlock: EYOCIG_clean_linker_4, # of connection points: 2
#     Edge 10, Type (0, 0), BuildingBlock: EYOCIG_clean_linker_4, # of connection points: 2
#     Edge 11, Type (0, 0), BuildingBlock: EYOCIG_clean_linker_4, # of connection points: 2
#     Edge 12, Type (0, 0), BuildingBlock: EYOCIG_clean_linker_4, # of connection points: 2
#     Edge 13, Type (0, 0), BuildingBlock: EYOCIG_clean_linker_4, # of connection points: 2
#     Edge 14, Type (0, 0), BuildingBlock: EYOCIG_clean_linker_4, # of connection points: 2
#     Edge 15, Type (0, 0), BuildingBlock: EYOCIG_clean_linker_4, # of connection points: 2
#     Edge 16, Type (0, 0), BuildingBlock: EYOCIG_clean_linker_4, # of connection points: 2
#     Edge 17, Type (0, 0), BuildingBlock: EYOCIG_clean_linker_4, # of connection points: 2
#     Edge 18, Type (0, 0), BuildingBlock: EYOCIG_clean_linker_4, # of connection points: 2
#     Edge 19, Type (0, 0), BuildingBlock: EYOCIG_clean_linker_4, # of connection points: 2
#     Edge 20, Type (0, 0), BuildingBlock: EYOCIG_clean_linker_4, # of connection points: 2
#     Edge 21, Type (0, 0), BuildingBlock: EYOCIG_clean_linker_4, # of connection points: 2
#     Edge 22, Type (0, 0), BuildingBlock: EYOCIG_clean_linker_4, # of connection points: 2
#     Edge 23, Type (0, 0), BuildingBlock: EYOCIG_clean_linker_4, # of connection points: 2
# Relax obj value: 0.075
# Max RMSD: 0.186
# Mean RMSD: 0.186
data_MOF--net-umx--node1-CEKHIL_clean_sbu_0--edge1-EYOCIG_clean_linker_4
_symmetry_space_group_name_H-M    P1
_symmetry_Int_Tables_number       1
_symmetry_cell_setting            triclinic
loop_
_symmetry_equiv_pos_as_xyz
'x, y, z'
_cell_length_a     31.052089
_cell_length_b     31.037229
_cell_length_c     22.065388
_cell_angle_alpha  89.973571
_cell_angle_beta   89.995454
_cell_angle_gamma 90.008119
loop_
_atom_site_label
_atom_site_type_symbol
_atom_site_fract_x
_atom_site_fract_y
_atom_site_fract_z
_atom_type_partial_charge
Co0 Co 0.19455 0.44389 0.98969 0.0
O1 O 0.25027 0.4171 0.98535 0.0
O2 O 0.19083 0.38444 0.01667 0.0
C3 C 0.19741 0.47257 0.89659 0.0
O4 O 0.13111 0.46156 -0.00313 0.0
Co5 Co 0.1881 0.54274 0.98642 0.0
O6 O 0.12575 0.53243 0.97592 0.0
C7 C 0.21112 0.50052 0.10075 0.0
C8 C 0.23168 0.38226 0.00393 0.0
C9 C 0.10891 0.49595 0.98692 0.0
O10 O 0.2062 0.46371 0.0752 0.0
O11 O 0.20775 0.53639 0.07275 0.0
O12 O 0.18566 0.433 0.90443 0.0
O13 O 0.21106 0.49289 0.94416 0.0
Co14 Co 0.55806 0.19447 0.48952 0.0
O15 O 0.58419 0.25054 0.4856 0.0
O16 O 0.61748 0.19137 0.51665 0.0
C17 C 0.52955 0.19732 0.39638 0.0
O18 O 0.54111 0.13076 0.49627 0.0
Co19 Co 0.45934 0.18687 0.4859 0.0
O20 O 0.4704 0.12467 0.47492 0.0
C21 C 0.50106 0.21008 0.60046 0.0
C22 C 0.6192 0.23231 0.50415 0.0
C23 C 0.50701 0.10819 0.48598 0.0
O24 O 0.53795 0.20562 0.57501 0.0
O25 O 0.4653 0.20638 0.57234 0.0
O26 O 0.56921 0.18599 0.40426 0.0
O27 O 0.50899 0.21057 0.44397 0.0
Co28 Co 0.80817 0.55891 0.98988 0.0
O29 O 0.75232 0.58538 0.98532 0.0
O30 O 0.81151 0.6184 0.01674 0.0
C31 C 0.80561 0.53019 0.89685 0.0
O32 O 0.87169 0.54157 -0.00274 0.0
Co33 Co 0.81508 0.46012 0.98696 0.0
O34 O 0.87737 0.47073 0.9764 0.0
C35 C 0.79155 0.50231 0.10102 0.0
C36 C 0.77066 0.62034 0.0039 0.0
C37 C 0.89405 0.50728 0.98733 0.0
O38 O 0.79646 0.5391 0.07539 0.0
O39 O 0.7951 0.46642 0.07315 0.0
O40 O 0.81716 0.56982 0.90465 0.0
O41 O 0.79197 0.50982 0.94441 0.0
Co42 Co 0.44346 0.80768 0.48941 0.0
O43 O 0.41652 0.75201 0.48535 0.0
O44 O 0.38405 0.8116 0.51642 0.0
C45 C 0.47203 0.80455 0.39631 0.0
O46 O 0.46134 0.87111 0.49627 0.0
Co47 Co 0.54228 0.81382 0.48603 0.0
O48 O 0.53217 0.8762 0.47513 0.0
C49 C 0.50009 0.79104 0.60046 0.0
C50 C 0.38175 0.77071 0.50386 0.0
C51 C 0.49578 0.8932 0.4861 0.0
O52 O 0.46329 0.79611 0.57495 0.0
O53 O 0.53593 0.79422 0.57241 0.0
O54 O 0.43253 0.81645 0.40414 0.0
O55 O 0.49234 0.79093 0.44392 0.0
Co56 Co 0.19398 0.55897 0.51357 0.0
O57 O 0.2497 0.58576 0.51786 0.0
O58 O 0.19031 0.61839 0.48638 0.0
C59 C 0.19683 0.53048 0.60679 0.0
O60 O 0.13054 0.54128 0.50639 0.0
Co61 Co 0.18753 0.46015 0.51718 0.0
O62 O 0.12517 0.47045 0.52759 0.0
C63 C 0.21071 0.50215 0.40275 0.0
C64 C 0.23116 0.62058 0.49915 0.0
C65 C 0.10832 0.5069 0.51645 0.0
O66 O 0.2057 0.539 0.42814 0.0
O67 O 0.20734 0.46633 0.43089 0.0
O68 O 0.18504 0.57002 0.59878 0.0
O69 O 0.21048 0.51007 0.5593 0.0
Co70 Co 0.44308 0.19411 0.01368 0.0
O71 O 0.41647 0.24994 0.01765 0.0
O72 O 0.38364 0.19048 0.98676 0.0
C73 C 0.47174 0.19719 0.10671 0.0
O74 O 0.46061 0.13058 0.00691 0.0
Co75 Co 0.54188 0.18747 0.01693 0.0
O76 O 0.53143 0.12515 0.02788 0.0
C77 C 0.49971 0.21026 0.90249 0.0
C78 C 0.38159 0.2314 -0.00078 0.0
C79 C 0.49494 0.10833 0.01701 0.0
O80 O 0.46291 0.20546 0.9281 0.0
O81 O 0.53556 0.20691 0.93048 0.0
O82 O 0.43216 0.1855 0.09898 0.0
O83 O 0.49209 0.21066 0.05904 0.0
Co84 Co 0.80739 0.44427 0.5138 0.0
O85 O 0.75142 0.41799 0.51827 0.0
O86 O 0.81047 0.38484 0.4866 0.0
C87 C 0.80501 0.47273 0.60699 0.0
O88 O 0.87097 0.4614 0.50642 0.0
Co89 Co 0.81466 0.54305 0.5173 0.0
O90 O 0.87693 0.53218 0.52763 0.0
C91 C 0.79108 0.50127 0.40295 0.0
C92 C 0.76962 0.38302 0.4995 0.0
C93 C 0.89347 0.4956 0.51645 0.0
O94 O 0.79574 0.46439 0.42841 0.0
O95 O 0.7948 0.53707 0.431 0.0
O96 O 0.81637 0.43308 0.59896 0.0
O97 O 0.79142 0.49329 0.55956 0.0
Co98 Co 0.55834 0.80759 0.01344 0.0
O99 O 0.58501 0.75179 0.01752 0.0
O100 O 0.61774 0.81125 0.98635 0.0
C101 C 0.5298 0.80457 0.10657 0.0
O102 O 0.54079 0.87111 0.00654 0.0
Co103 Co 0.45956 0.81423 0.01692 0.0
O104 O 0.47002 0.87655 0.02781 0.0
C105 C 0.50156 0.79121 0.90248 0.0
C106 C 0.61985 0.77035 -0.00105 0.0
C107 C 0.50649 0.89337 0.01678 0.0
O108 O 0.5384 0.79612 0.92794 0.0
O109 O 0.46575 0.79458 0.93057 0.0
O110 O 0.56936 0.81629 0.09869 0.0
O111 O 0.5094 0.79106 0.05899 0.0
C112 C 0.22115 0.5013 0.21974 0.0
C113 C 0.21659 0.5015 0.16542 0.0
C114 C 0.22106 0.50119 0.28382 0.0
C115 C 0.21636 0.50108 0.33812 0.0
C116 C 0.50009 0.22009 0.71942 0.0
C117 C 0.49999 0.21553 0.66512 0.0
C118 C 0.50038 0.22014 0.78349 0.0
C119 C 0.50062 0.21565 0.83782 0.0
C120 C 0.78093 0.50216 0.284 0.0
C121 C 0.78555 0.50225 0.3383 0.0
C122 C 0.78105 0.50175 0.21993 0.0
C123 C 0.78582 0.50146 0.16565 0.0
C124 C 0.50068 0.78104 0.78353 0.0
C125 C 0.50054 0.78566 0.83783 0.0
C126 C 0.50087 0.78099 0.71945 0.0
C127 C 0.50106 0.78555 0.66513 0.0
C128 C 0.80253 0.49801 0.7204 0.0
C129 C 0.80247 0.48973 0.66713 0.0
C130 C 0.80265 0.50475 0.78354 0.0
C131 C 0.80279 0.5131 0.83679 0.0
C132 C 0.50437 0.80141 0.2199 0.0
C133 C 0.51275 0.80164 0.16665 0.0
C134 C 0.49751 0.80139 0.28302 0.0
C135 C 0.48912 0.8016 0.33626 0.0
C136 C 0.20022 0.49821 0.7833 0.0
C137 C 0.20015 0.48974 0.83654 0.0
C138 C 0.20007 0.50512 0.72018 0.0
C139 C 0.19979 0.51351 0.66693 0.0
C140 C 0.50413 0.20031 0.28306 0.0
C141 C 0.51249 0.20012 0.33631 0.0
C142 C 0.49729 0.20031 0.21995 0.0
C143 C 0.48889 0.2001 0.16672 0.0
C144 C 0.97895 0.50516 0.99085 0.0
C145 C 0.94027 0.50901 0.99008 0.0
C146 C 0.02401 0.49837 0.99073 0.0
C147 C 0.06269 0.49444 0.98982 0.0
C148 C 0.49844 0.97815 0.48939 0.0
C149 C 0.49443 0.93946 0.48871 0.0
C150 C 0.50523 0.02324 0.48938 0.0
C151 C 0.50897 0.06196 0.48869 0.0
C152 C 0.02343 0.50441 0.51266 0.0
C153 C 0.0621 0.50839 0.51355 0.0
C154 C 0.97837 0.49759 0.51264 0.0
C155 C 0.93968 0.49376 0.51351 0.0
C156 C 0.50416 0.97832 0.01351 0.0
C157 C 0.50807 0.93961 0.01416 0.0
C158 C 0.49732 0.02339 0.01358 0.0
C159 C 0.49338 0.06209 0.01432 0.0
C160 C 0.28002 0.31241 0.00365 0.0
C161 C 0.25548 0.34255 0.00532 0.0
C162 C 0.31204 0.28012 -0.00071 0.0
C163 C 0.34199 0.25535 -0.00231 0.0
C164 C 0.72066 0.31359 0.49974 0.0
C165 C 0.74544 0.34354 0.49809 0.0
C166 C 0.68853 0.28139 0.50408 0.0
C167 C 0.65863 0.25655 0.50563 0.0
C168 C 0.72182 0.68982 0.00351 0.0
C169 C 0.7466 0.65988 0.00525 0.0
C170 C 0.68958 0.72187 -0.0009 0.0
C171 C 0.6595 0.74649 -0.00252 0.0
C172 C 0.31189 0.72241 0.50369 0.0
C173 C 0.34201 0.74699 0.50534 0.0
C174 C 0.27969 0.6903 0.49929 0.0
C175 C 0.25501 0.66026 0.49763 0.0
loop_
_geom_bond_atom_site_label_1
_geom_bond_atom_site_label_2
_geom_bond_distance
_geom_bond_site_symmetry_2
_ccdc_geom_bond_type
Co0 O1 2.215 1_556 S
Co0 O2 2.089 1_556 S
Co0 O4 2.005 . S
Co0 O10 2.005 1_556 S
Co0 O12 2.154 . S
Co0 O13 2.251 . S
O1 Co0 2.215 1_554 S
O1 C8 1.247 . S
O2 Co0 2.089 1_554 S
O2 C8 1.261 . S
C3 O12 1.247 . S
C3 O13 1.272 . S
O4 Co0 2.005 . S
O4 C9 1.259 1_556 S
Co5 O6 2.061 . S
Co5 O11 2.052 . S
Co5 O13 2.135 1_554 S
O6 Co5 2.061 . S
O6 C9 1.235 . S
C7 O10 1.238 . S
C7 O11 1.241 . S
C8 O1 1.247 . S
C8 O2 1.261 . S
C9 O4 1.259 1_554 S
C9 O6 1.235 . S
O10 Co0 2.005 1_554 S
O10 C7 1.238 . S
O11 Co5 2.052 . S
O11 C7 1.241 . S
O12 Co0 2.154 . S
O12 C3 1.247 . S
O13 Co0 2.251 . S
O13 C3 1.272 . S
O13 Co5 2.135 1_556 S
Co14 O15 2.216 . S
Co14 O16 2.091 . S
Co14 O18 2.004 . S
Co14 O24 2.021 . S
Co14 O26 2.137 . S
Co14 O27 2.244 . S
O15 Co14 2.216 . S
O15 C22 1.247 . S
O16 Co14 2.091 . S
O16 C22 1.261 . S
C17 O26 1.247 . S
C17 O27 1.272 . S
O18 Co14 2.004 . S
O18 C23 1.259 . S
Co19 O20 2.061 . S
Co19 O25 2.052 . S
Co19 O27 2.135 . S
O20 Co19 2.061 . S
O20 C23 1.235 . S
C21 O24 1.238 . S
C21 O25 1.241 . S
C22 O15 1.247 . S
C22 O16 1.261 . S
C23 O18 1.259 . S
C23 O20 1.235 . S
O24 Co14 2.021 . S
O24 C21 1.238 . S
O25 Co19 2.052 . S
O25 C21 1.241 . S
O26 Co14 2.137 . S
O26 C17 1.247 . S
O27 Co14 2.244 . S
O27 C17 1.272 . S
O27 Co19 2.135 . S
Co28 O29 2.215 1_556 S
Co28 O30 2.089 1_556 S
Co28 O32 2.005 . S
Co28 O38 2.005 1_556 S
Co28 O40 2.154 . S
Co28 O41 2.251 . S
O29 Co28 2.215 1_554 S
O29 C36 1.247 . S
O30 Co28 2.089 1_554 S
O30 C36 1.261 . S
C31 O40 1.247 . S
C31 O41 1.272 . S
O32 Co28 2.005 . S
O32 C37 1.259 1_556 S
Co33 O34 2.061 . S
Co33 O39 2.052 . S
Co33 O41 2.135 1_554 S
O34 Co33 2.061 . S
O34 C37 1.235 . S
C35 O38 1.238 . S
C35 O39 1.241 . S
C36 O29 1.247 . S
C36 O30 1.261 . S
C37 O32 1.259 1_554 S
C37 O34 1.235 . S
O38 Co28 2.005 1_554 S
O38 C35 1.238 . S
O39 Co33 2.052 . S
O39 C35 1.241 . S
O40 Co28 2.154 . S
O40 C31 1.247 . S
O41 Co28 2.251 . S
O41 C31 1.272 . S
O41 Co33 2.135 1_556 S
Co42 O43 2.216 . S
Co42 O44 2.091 . S
Co42 O46 2.004 . S
Co42 O52 2.021 . S
Co42 O54 2.137 . S
Co42 O55 2.244 . S
O43 Co42 2.216 . S
O43 C50 1.247 . S
O44 Co42 2.091 . S
O44 C50 1.261 . S
C45 O54 1.247 . S
C45 O55 1.272 . S
O46 Co42 2.004 . S
O46 C51 1.259 . S
Co47 O48 2.061 . S
Co47 O53 2.052 . S
Co47 O55 2.135 . S
O48 Co47 2.061 . S
O48 C51 1.235 . S
C49 O52 1.238 . S
C49 O53 1.241 . S
C50 O43 1.247 . S
C50 O44 1.261 . S
C51 O46 1.259 . S
C51 O48 1.235 . S
O52 Co42 2.021 . S
O52 C49 1.238 . S
O53 Co47 2.052 . S
O53 C49 1.241 . S
O54 Co42 2.137 . S
O54 C45 1.247 . S
O55 Co42 2.244 . S
O55 C45 1.272 . S
O55 Co47 2.135 . S
Co56 O57 2.216 . S
Co56 O58 2.091 . S
Co56 O60 2.004 . S
Co56 O66 2.021 . S
Co56 O68 2.137 . S
Co56 O69 2.244 . S
O57 Co56 2.216 . S
O57 C64 1.247 . S
O58 Co56 2.091 . S
O58 C64 1.261 . S
C59 O68 1.247 . S
C59 O69 1.272 . S
O60 Co56 2.004 . S
O60 C65 1.259 . S
Co61 O62 2.061 . S
Co61 O67 2.052 . S
Co61 O69 2.135 . S
O62 Co61 2.061 . S
O62 C65 1.235 . S
C63 O66 1.238 . S
C63 O67 1.241 . S
C64 O57 1.247 . S
C64 O58 1.261 . S
C65 O60 1.259 . S
C65 O62 1.235 . S
O66 Co56 2.021 . S
O66 C63 1.238 . S
O67 Co61 2.052 . S
O67 C63 1.241 . S
O68 Co56 2.137 . S
O68 C59 1.247 . S
O69 Co56 2.244 . S
O69 C59 1.272 . S
O69 Co61 2.135 . S
Co70 O71 2.216 . S
Co70 O72 2.091 . S
Co70 O74 2.004 . S
Co70 O80 2.021 1_554 S
Co70 O82 2.137 . S
Co70 O83 2.244 . S
O71 Co70 2.216 . S
O71 C78 1.247 . S
O72 Co70 2.091 . S
O72 C78 1.261 . S
C73 O82 1.247 . S
C73 O83 1.272 . S
O74 Co70 2.004 . S
O74 C79 1.259 . S
Co75 O76 2.061 . S
Co75 O81 2.052 1_554 S
Co75 O83 2.135 . S
O76 Co75 2.061 . S
O76 C79 1.235 . S
C77 O80 1.238 . S
C77 O81 1.241 . S
C78 O71 1.247 . S
C78 O72 1.261 . S
C79 O74 1.259 . S
C79 O76 1.235 . S
O80 Co70 2.021 1_556 S
O80 C77 1.238 . S
O81 Co75 2.052 1_556 S
O81 C77 1.241 . S
O82 Co70 2.137 . S
O82 C73 1.247 . S
O83 Co70 2.244 . S
O83 C73 1.272 . S
O83 Co75 2.135 . S
Co84 O85 2.216 . S
Co84 O86 2.091 . S
Co84 O88 2.004 . S
Co84 O94 2.021 . S
Co84 O96 2.137 . S
Co84 O97 2.244 . S
O85 Co84 2.216 . S
O85 C92 1.247 . S
O86 Co84 2.091 . S
O86 C92 1.261 . S
C87 O96 1.247 . S
C87 O97 1.272 . S
O88 Co84 2.004 . S
O88 C93 1.259 . S
Co89 O90 2.061 . S
Co89 O95 2.052 . S
Co89 O97 2.135 . S
O90 Co89 2.061 . S
O90 C93 1.235 . S
C91 O94 1.238 . S
C91 O95 1.241 . S
C92 O85 1.247 . S
C92 O86 1.261 . S
C93 O88 1.259 . S
C93 O90 1.235 . S
O94 Co84 2.021 . S
O94 C91 1.238 . S
O95 Co89 2.052 . S
O95 C91 1.241 . S
O96 Co84 2.137 . S
O96 C87 1.247 . S
O97 Co84 2.244 . S
O97 C87 1.272 . S
O97 Co89 2.135 . S
Co98 O99 2.216 . S
Co98 O100 2.091 . S
Co98 O102 2.004 . S
Co98 O108 2.021 1_554 S
Co98 O110 2.137 . S
Co98 O111 2.244 . S
O99 Co98 2.216 . S
O99 C106 1.247 . S
O100 Co98 2.091 . S
O100 C106 1.261 . S
C101 O110 1.247 . S
C101 O111 1.272 . S
O102 Co98 2.004 . S
O102 C107 1.259 . S
Co103 O104 2.061 . S
Co103 O109 2.052 1_554 S
Co103 O111 2.135 . S
O104 Co103 2.061 . S
O104 C107 1.235 . S
C105 O108 1.238 . S
C105 O109 1.241 . S
C106 O99 1.247 . S
C106 O100 1.261 . S
C107 O102 1.259 . S
C107 O104 1.235 . S
O108 Co98 2.021 1_556 S
O108 C105 1.238 . S
O109 Co103 2.052 1_556 S
O109 C105 1.241 . S
O110 Co98 2.137 . S
O110 C101 1.247 . S
O111 Co98 2.244 . S
O111 C101 1.272 . S
O111 Co103 2.135 . S
C112 C113 1.170 . S
C112 C114 1.380 . S
C113 C112 1.170 . S
C114 C112 1.380 . S
C114 C115 1.170 . S
C115 C114 1.170 . S
C116 C117 1.170 . S
C116 C118 1.380 . S
C117 C116 1.170 . S
C118 C116 1.380 . S
C118 C119 1.170 . S
C119 C118 1.170 . S
C120 C121 1.170 . S
C120 C122 1.380 . S
C121 C120 1.170 . S
C122 C120 1.380 . S
C122 C123 1.170 . S
C123 C122 1.170 . S
C124 C125 1.170 . S
C124 C126 1.380 . S
C125 C124 1.170 . S
C126 C124 1.380 . S
C126 C127 1.170 . S
C127 C126 1.170 . S
C128 C129 1.170 . S
C128 C130 1.380 . S
C129 C128 1.170 . S
C130 C128 1.380 . S
C130 C131 1.170 . S
C131 C130 1.170 . S
C132 C133 1.170 . S
C132 C134 1.380 . S
C133 C132 1.170 . S
C134 C132 1.380 . S
C134 C135 1.170 . S
C135 C134 1.170 . S
C136 C137 1.170 . S
C136 C138 1.380 . S
C137 C136 1.170 . S
C138 C136 1.380 . S
C138 C139 1.170 . S
C139 C138 1.170 . S
C140 C141 1.170 . S
C140 C142 1.380 . S
C141 C140 1.170 . S
C142 C140 1.380 . S
C142 C143 1.170 . S
C143 C142 1.170 . S
C144 C145 1.170 . S
C144 C146 1.380 1_655 S
C145 C144 1.170 . S
C146 C144 1.380 1_455 S
C146 C147 1.170 . S
C147 C146 1.170 . S
C148 C149 1.170 . S
C148 C150 1.380 1_565 S
C149 C148 1.170 . S
C150 C148 1.380 1_545 S
C150 C151 1.170 . S
C151 C150 1.170 . S
C152 C153 1.170 . S
C152 C154 1.380 1_455 S
C153 C152 1.170 . S
C154 C152 1.380 1_655 S
C154 C155 1.170 . S
C155 C154 1.170 . S
C156 C157 1.170 . S
C156 C158 1.380 1_565 S
C157 C156 1.170 . S
C158 C156 1.380 1_545 S
C158 C159 1.170 . S
C159 C158 1.170 . S
C160 C161 1.170 . S
C160 C162 1.380 . S
C161 C160 1.170 . S
C162 C160 1.380 . S
C162 C163 1.170 . S
C163 C162 1.170 . S
C164 C165 1.170 . S
C164 C166 1.380 . S
C165 C164 1.170 . S
C166 C164 1.380 . S
C166 C167 1.170 . S
C167 C166 1.170 . S
C168 C169 1.170 . S
C168 C170 1.380 . S
C169 C168 1.170 . S
C170 C168 1.380 . S
C170 C171 1.170 . S
C171 C170 1.170 . S
C172 C173 1.170 . S
C172 C174 1.380 . S
C173 C172 1.170 . S
C174 C172 1.380 . S
C174 C175 1.170 . S
C175 C174 1.170 . S
C113 C7 1.422 . S
C115 C63 1.423 . S
C117 C21 1.401 . S
C119 C77 1.403 . S
C121 C91 1.417 . S
C123 C35 1.419 . S
C125 C105 1.426 . S
C127 C49 1.426 . S
C129 C87 1.318 . S
C131 C31 1.294 . S
C133 C101 1.320 . S
C135 C45 1.294 . S
C137 C3 1.325 . S
C139 C59 1.289 . S
C141 C17 1.306 . S
C143 C73 1.308 . S
C145 C37 1.394 . S
C147 C9 1.362 . S
C149 C51 1.361 . S
C151 C23 1.405 . S
C153 C65 1.389 . S
C155 C93 1.366 . S
C157 C107 1.388 . S
C159 C79 1.366 . S
C161 C8 1.388 . S
C163 C78 1.394 . S
C165 C92 1.390 . S
C167 C22 1.391 . S
C169 C36 1.388 . S
C171 C106 1.393 . S
C173 C50 1.389 . S
C175 C64 1.393 . S
