# Generated by pormake.
# Topology vmg, (6)-cn, num edge types: 1
# Building blocks:
#     Node 0, Type 0, BuildingBlock: IZENUY_clean_sbu_0, # of connection points: 6
#     Node 1, Type 0, BuildingBlock: IZENUY_clean_sbu_0, # of connection points: 6
#     Node 2, Type 0, BuildingBlock: IZENUY_clean_sbu_0, # of connection points: 6
#     Node 3, Type 0, BuildingBlock: IZENUY_clean_sbu_0, # of connection points: 6
#     Node 4, Type 0, BuildingBlock: IZENUY_clean_sbu_0, # of connection points: 6
#     Node 5, Type 0, BuildingBlock: IZENUY_clean_sbu_0, # of connection points: 6
#     Node 6, Type 0, BuildingBlock: IZENUY_clean_sbu_0, # of connection points: 6
#     Node 7, Type 0, BuildingBlock: IZENUY_clean_sbu_0, # of connection points: 6
#     Edge 8, Type (0, 0), None
#     Edge 9, Type (0, 0), None
#     Edge 10, Type (0, 0), None
#     Edge 11, Type (0, 0), None
#     Edge 12, Type (0, 0), None
#     Edge 13, Type (0, 0), None
#     Edge 14, Type (0, 0), None
#     Edge 15, Type (0, 0), None
#     Edge 16, Type (0, 0), None
#     Edge 17, Type (0, 0), None
#     Edge 18, Type (0, 0), None
#     Edge 19, Type (0, 0), None
#     Edge 20, Type (0, 0), None
#     Edge 21, Type (0, 0), None
#     Edge 22, Type (0, 0), None
#     Edge 23, Type (0, 0), None
#     Edge 24, Type (0, 0), None
#     Edge 25, Type (0, 0), None
#     Edge 26, Type (0, 0), None
#     Edge 27, Type (0, 0), None
#     Edge 28, Type (0, 0), None
#     Edge 29, Type (0, 0), None
#     Edge 30, Type (0, 0), None
#     Edge 31, Type (0, 0), None
# Relax obj value: 0.253
# Max RMSD: 0.238
# Mean RMSD: 0.238
data_MOF--net-vmg--node1-IZENUY_clean_sbu_0--edge1-none
_symmetry_space_group_name_H-M    P1
_symmetry_Int_Tables_number       1
_symmetry_cell_setting            triclinic
loop_
_symmetry_equiv_pos_as_xyz
'x, y, z'
_cell_length_a     12.556672
_cell_length_b     20.385668
_cell_length_c     12.685644
_cell_angle_alpha  89.999913
_cell_angle_beta   96.818376
_cell_angle_gamma 90.000149
loop_
_atom_site_label
_atom_site_type_symbol
_atom_site_fract_x
_atom_site_fract_y
_atom_site_fract_z
_atom_type_partial_charge
Fe0 Fe 0.31511 0.39917 0.24044 0.0
Fe1 Fe 0.15779 0.4261 0.04542 0.0
O2 O 0.26226 0.45256 0.1401 0.0
Fe3 Fe 0.30092 0.53713 0.14202 0.0
O4 O 0.24573 0.54948 0.26125 0.0
O5 O 0.32828 0.4659 0.34602 0.0
O6 O 0.18543 0.38282 0.28618 0.0
C7 C 0.09882 0.36749 0.2323 0.0
C8 C 0.4935 0.46904 0.22972 0.0
O9 O 0.0942 0.36723 0.1315 0.0
C10 C 0.28863 0.51825 0.93789 0.0
O11 O 0.30793 0.32661 0.14315 0.0
O12 O 0.23351 0.36523 0.98855 0.0
O13 O 0.43916 0.52179 0.21315 0.0
O14 O 0.4493 0.41416 0.20911 0.0
C15 C 0.08146 0.53868 0.06023 0.0
O16 O 0.20673 0.48115 0.94285 0.0
O17 O 0.35412 0.53008 0.0184 0.0
C18 C 0.28507 0.32163 0.04046 0.0
O19 O 0.07713 0.48448 0.10074 0.0
O20 O 0.17123 0.56782 0.07213 0.0
C21 C 0.28673 0.52379 0.34504 0.0
Fe22 Fe 0.79595 0.53713 0.37664 0.0
Fe23 Fe 0.78177 0.39917 0.27822 0.0
O24 O 0.83462 0.45256 0.37856 0.0
Fe25 Fe 0.93908 0.4261 0.47324 0.0
O26 O 1.01975 0.48448 0.41792 0.0
O27 O 0.92564 0.56782 0.44654 0.0
O28 O 0.85114 0.54948 0.25741 0.0
C29 C 0.81015 0.52379 0.17362 0.0
C30 C 0.80825 0.51825 0.58077 0.0
O31 O 0.7686 0.4659 0.17264 0.0
C32 C 0.8118 0.32163 0.4782 0.0
O33 O 0.65771 0.52179 0.30551 0.0
O34 O 0.64758 0.41416 0.30956 0.0
O35 O 0.89014 0.48115 0.57581 0.0
O36 O 0.74276 0.53008 0.50026 0.0
C37 C 0.99805 0.36749 0.28636 0.0
O38 O 0.78894 0.32661 0.37551 0.0
O39 O 0.86337 0.36523 0.53011 0.0
C40 C 0.60338 0.46904 0.28895 0.0
O41 O 0.91144 0.38282 0.23248 0.0
O42 O 1.00269 0.36724 0.38716 0.0
C43 C 1.01541 0.53868 0.45844 0.0
Fe44 Fe 0.79592 0.54711 0.87666 0.0
Fe45 Fe 0.78177 0.68507 0.77824 0.0
O46 O 0.83462 0.63168 0.87857 0.0
Fe47 Fe 0.9391 0.65815 0.97323 0.0
O48 O 1.0198 0.59978 0.91791 0.0
O49 O 0.92561 0.51641 0.94653 0.0
O50 O 0.85108 0.53474 0.75741 0.0
C51 C 0.8101 0.56045 0.67363 0.0
C52 C 0.80826 0.56602 0.08079 0.0
O53 O 0.76859 0.61834 0.67265 0.0
C54 C 0.81181 0.7626 0.97822 0.0
O55 O 0.65769 0.56246 0.80554 0.0
O56 O 0.64758 0.67009 0.80957 0.0
O57 O 0.89019 0.60308 0.07581 0.0
O58 O 0.74275 0.55418 1.00029 0.0
C59 C 0.99805 0.71676 0.78636 0.0
O60 O 0.78896 0.75763 0.87553 0.0
O61 O 0.86337 0.719 0.03013 0.0
C62 C 0.60337 0.61521 0.78895 0.0
O63 O 0.91145 0.70141 0.73248 0.0
O64 O 1.00267 0.71702 0.88716 0.0
C65 C 1.01538 0.54555 0.9583 0.0
Fe66 Fe 0.31511 0.68507 0.74043 0.0
Fe67 Fe 0.15778 0.65815 0.54543 0.0
O68 O 0.26225 0.63168 0.6401 0.0
Fe69 Fe 0.30095 0.54711 0.642 0.0
O70 O 0.2458 0.53475 0.76125 0.0
O71 O 0.32829 0.61834 0.84601 0.0
O72 O 0.18544 0.70141 0.78618 0.0
C73 C 0.09883 0.71675 0.7323 0.0
C74 C 0.49351 0.61522 0.7297 0.0
O75 O 0.0942 0.71702 0.6315 0.0
C76 C 0.28862 0.56602 0.43787 0.0
O77 O 0.30792 0.75763 0.64314 0.0
O78 O 0.23351 0.719 0.48853 0.0
O79 O 0.43919 0.56246 0.71312 0.0
O80 O 0.4493 0.67009 0.70909 0.0
C81 C 0.08149 0.54555 0.56036 0.0
O82 O 0.20668 0.60308 0.44285 0.0
O83 O 0.35412 0.55418 0.51837 0.0
C84 C 0.28507 0.7626 0.54044 0.0
O85 O 0.07708 0.59977 0.60076 0.0
O86 O 0.17126 0.51641 0.57213 0.0
C87 C 0.28678 0.56045 0.84503 0.0
Fe88 Fe 0.81511 0.89917 0.24044 0.0
Fe89 Fe 0.65779 0.9261 0.04542 0.0
O90 O 0.76226 0.95256 0.1401 0.0
Fe91 Fe 0.80092 1.03713 0.14202 0.0
O92 O 0.74573 0.04948 0.26125 0.0
O93 O 0.82828 0.9659 0.34602 0.0
O94 O 0.68543 0.88282 0.28618 0.0
C95 C 0.59882 0.86749 0.2323 0.0
C96 C 0.9935 0.96904 0.22972 0.0
O97 O 0.5942 0.86723 0.1315 0.0
C98 C 0.78863 1.01825 0.93789 0.0
O99 O 0.80794 0.82661 0.14315 0.0
O100 O 0.73351 0.86523 0.98855 0.0
O101 O 0.93916 1.02179 0.21315 0.0
O102 O 0.9493 0.91416 0.20911 0.0
C103 C 0.58146 1.03868 0.06023 0.0
O104 O 0.70673 0.98115 0.94285 0.0
O105 O 0.85412 1.03008 0.0184 0.0
C106 C 0.78508 0.82163 0.04046 0.0
O107 O 0.57713 0.98448 0.10074 0.0
O108 O 0.67123 0.06782 0.07213 0.0
C109 C 0.78673 1.02379 0.34504 0.0
Fe110 Fe 0.29595 1.03713 0.37664 0.0
Fe111 Fe 0.28177 0.89917 0.27822 0.0
O112 O 0.33462 0.95256 0.37856 0.0
Fe113 Fe 0.43908 0.9261 0.47324 0.0
O114 O 0.51975 0.98448 0.41792 0.0
O115 O 0.42564 0.06782 0.44654 0.0
O116 O 0.35114 0.04948 0.25741 0.0
C117 C 0.31015 1.02379 0.17362 0.0
C118 C 0.30825 1.01825 0.58077 0.0
O119 O 0.2686 0.9659 0.17264 0.0
C120 C 0.3118 0.82163 0.4782 0.0
O121 O 0.15771 1.02179 0.30551 0.0
O122 O 0.14758 0.91416 0.30956 0.0
O123 O 0.39014 0.98115 0.57581 0.0
O124 O 0.24276 1.03008 0.50026 0.0
C125 C 0.49805 0.86749 0.28636 0.0
O126 O 0.28894 0.82661 0.37551 0.0
O127 O 0.36337 0.86523 0.53011 0.0
C128 C 0.10338 0.96904 0.28895 0.0
O129 O 0.41144 0.88282 0.23248 0.0
O130 O 0.50269 0.86724 0.38716 0.0
C131 C 0.51541 1.03868 0.45844 0.0
Fe132 Fe 0.29592 0.04711 0.87666 0.0
Fe133 Fe 0.28177 0.18507 0.77824 0.0
O134 O 0.33462 0.13168 0.87857 0.0
Fe135 Fe 0.4391 0.15815 0.97323 0.0
O136 O 0.5198 0.09978 0.91791 0.0
O137 O 0.42561 1.01641 0.94653 0.0
O138 O 0.35108 1.03474 0.75741 0.0
C139 C 0.3101 0.06045 0.67363 0.0
C140 C 0.30826 0.06602 0.08079 0.0
O141 O 0.26859 0.11834 0.67265 0.0
C142 C 0.3118 0.2626 0.97822 0.0
O143 O 0.15769 0.06246 0.80554 0.0
O144 O 0.14758 0.17009 0.80957 0.0
O145 O 0.39019 0.10308 0.07581 0.0
O146 O 0.24275 0.05418 1.00029 0.0
C147 C 0.49805 0.21676 0.78636 0.0
O148 O 0.28896 0.25763 0.87553 0.0
O149 O 0.36337 0.219 0.03013 0.0
C150 C 0.10337 0.11521 0.78895 0.0
O151 O 0.41145 0.20141 0.73248 0.0
O152 O 0.50267 0.21702 0.88716 0.0
C153 C 0.51538 0.04555 0.9583 0.0
Fe154 Fe 0.81511 0.18507 0.74043 0.0
Fe155 Fe 0.65778 0.15815 0.54543 0.0
O156 O 0.76225 0.13168 0.6401 0.0
Fe157 Fe 0.80095 0.04711 0.642 0.0
O158 O 0.7458 1.03475 0.76125 0.0
O159 O 0.82829 0.11834 0.84601 0.0
O160 O 0.68544 0.20141 0.78618 0.0
C161 C 0.59883 0.21675 0.7323 0.0
C162 C 0.99351 0.11522 0.7297 0.0
O163 O 0.5942 0.21702 0.6315 0.0
C164 C 0.78862 0.06602 0.43787 0.0
O165 O 0.80792 0.25763 0.64313 0.0
O166 O 0.7335 0.219 0.48853 0.0
O167 O 0.93919 0.06246 0.71312 0.0
O168 O 0.9493 0.17009 0.70909 0.0
C169 C 0.58149 0.04555 0.56036 0.0
O170 O 0.70668 0.10308 0.44285 0.0
O171 O 0.85412 0.05418 0.51837 0.0
C172 C 0.78507 0.2626 0.54044 0.0
O173 O 0.57708 0.09977 0.60076 0.0
O174 O 0.67126 1.01641 0.57213 0.0
C175 C 0.78678 0.06045 0.84503 0.0
loop_
_geom_bond_atom_site_label_1
_geom_bond_atom_site_label_2
_geom_bond_distance
_geom_bond_site_symmetry_2
_ccdc_geom_bond_type
Fe0 O2 1.918 . S
Fe0 O5 1.997 . S
Fe0 O6 2.002 . S
Fe0 O11 1.976 . S
Fe0 O14 1.996 . S
Fe1 O2 1.918 . S
Fe1 O9 1.997 . S
Fe1 O12 1.996 1_554 S
Fe1 O16 1.976 1_554 S
Fe1 O19 2.002 1_554 S
O2 Fe0 1.918 . S
O2 Fe1 1.918 . S
O2 Fe3 1.918 . S
Fe3 O2 1.918 . S
Fe3 O4 2.002 . S
Fe3 O13 1.976 . S
Fe3 O17 1.996 1_554 S
Fe3 O20 1.997 . S
O4 Fe3 2.002 . S
O4 C21 1.295 . S
O5 Fe0 1.997 . S
O5 C21 1.235 . S
O6 Fe0 2.002 . S
O6 C7 1.295 . S
C7 O6 1.295 . S
C7 O9 1.235 . S
C8 O13 1.287 . S
C8 O14 1.255 . S
O9 Fe1 1.997 . S
O9 C7 1.235 . S
C10 O16 1.287 . S
C10 O17 1.255 . S
O11 Fe0 1.976 . S
O11 C18 1.287 . S
O12 Fe1 1.996 1_556 S
O12 C18 1.255 1_556 S
O13 Fe3 1.976 . S
O13 C8 1.287 . S
O14 Fe0 1.996 . S
O14 C8 1.255 . S
C15 O19 1.295 1_554 S
C15 O20 1.235 . S
O16 Fe1 1.976 1_556 S
O16 C10 1.287 . S
O17 Fe3 1.996 1_556 S
O17 C10 1.255 . S
C18 O11 1.287 . S
C18 O12 1.255 1_554 S
O19 Fe1 2.002 1_556 S
O19 C15 1.295 1_556 S
O20 Fe3 1.997 . S
O20 C15 1.235 . S
C21 O4 1.295 . S
C21 O5 1.235 . S
Fe22 O24 1.918 . S
Fe22 O27 1.997 . S
Fe22 O28 2.002 . S
Fe22 O33 1.976 . S
Fe22 O36 1.996 . S
Fe23 O24 1.918 . S
Fe23 O31 1.997 . S
Fe23 O34 1.996 . S
Fe23 O38 1.976 . S
Fe23 O41 2.002 . S
O24 Fe22 1.918 . S
O24 Fe23 1.918 . S
O24 Fe25 1.918 . S
Fe25 O24 1.918 . S
Fe25 O26 2.002 . S
Fe25 O35 1.976 . S
Fe25 O39 1.996 . S
Fe25 O42 1.997 . S
O26 Fe25 2.002 . S
O26 C43 1.295 . S
O27 Fe22 1.997 . S
O27 C43 1.235 . S
O28 Fe22 2.002 . S
O28 C29 1.295 . S
C29 O28 1.295 . S
C29 O31 1.235 . S
C30 O35 1.287 . S
C30 O36 1.255 . S
O31 Fe23 1.997 . S
O31 C29 1.235 . S
C32 O38 1.287 . S
C32 O39 1.255 . S
O33 Fe22 1.976 . S
O33 C40 1.287 . S
O34 Fe23 1.996 . S
O34 C40 1.255 . S
O35 Fe25 1.976 . S
O35 C30 1.287 . S
O36 Fe22 1.996 . S
O36 C30 1.255 . S
C37 O41 1.295 . S
C37 O42 1.235 . S
O38 Fe23 1.976 . S
O38 C32 1.287 . S
O39 Fe25 1.996 . S
O39 C32 1.255 . S
C40 O33 1.287 . S
C40 O34 1.255 . S
O41 Fe23 2.002 . S
O41 C37 1.295 . S
O42 Fe25 1.997 . S
O42 C37 1.235 . S
C43 O26 1.295 . S
C43 O27 1.235 . S
Fe44 O46 1.918 . S
Fe44 O49 1.997 . S
Fe44 O50 2.002 . S
Fe44 O55 1.976 . S
Fe44 O58 1.996 1_556 S
Fe45 O46 1.918 . S
Fe45 O53 1.997 . S
Fe45 O56 1.996 . S
Fe45 O60 1.976 . S
Fe45 O63 2.002 . S
O46 Fe44 1.918 . S
O46 Fe45 1.918 . S
O46 Fe47 1.918 . S
Fe47 O46 1.918 . S
Fe47 O48 2.002 1_556 S
Fe47 O57 1.976 1_556 S
Fe47 O61 1.996 1_556 S
Fe47 O64 1.997 . S
O48 Fe47 2.002 1_554 S
O48 C65 1.295 1_554 S
O49 Fe44 1.997 . S
O49 C65 1.235 . S
O50 Fe44 2.002 . S
O50 C51 1.295 . S
C51 O50 1.295 . S
C51 O53 1.235 . S
C52 O57 1.287 . S
C52 O58 1.255 . S
O53 Fe45 1.997 . S
O53 C51 1.235 . S
C54 O60 1.287 . S
C54 O61 1.255 1_556 S
O55 Fe44 1.976 . S
O55 C62 1.287 . S
O56 Fe45 1.996 . S
O56 C62 1.255 . S
O57 Fe47 1.976 1_554 S
O57 C52 1.287 . S
O58 Fe44 1.996 1_554 S
O58 C52 1.255 . S
C59 O63 1.295 . S
C59 O64 1.235 . S
O60 Fe45 1.976 . S
O60 C54 1.287 . S
O61 Fe47 1.996 1_554 S
O61 C54 1.255 1_554 S
C62 O55 1.287 . S
C62 O56 1.255 . S
O63 Fe45 2.002 . S
O63 C59 1.295 . S
O64 Fe47 1.997 . S
O64 C59 1.235 . S
C65 O48 1.295 1_556 S
C65 O49 1.235 . S
Fe66 O68 1.918 . S
Fe66 O71 1.997 . S
Fe66 O72 2.002 . S
Fe66 O77 1.976 . S
Fe66 O80 1.996 . S
Fe67 O68 1.918 . S
Fe67 O75 1.997 . S
Fe67 O78 1.996 . S
Fe67 O82 1.976 . S
Fe67 O85 2.002 . S
O68 Fe66 1.918 . S
O68 Fe67 1.918 . S
O68 Fe69 1.918 . S
Fe69 O68 1.918 . S
Fe69 O70 2.002 . S
Fe69 O79 1.976 . S
Fe69 O83 1.996 . S
Fe69 O86 1.997 . S
O70 Fe69 2.002 . S
O70 C87 1.295 . S
O71 Fe66 1.997 . S
O71 C87 1.235 . S
O72 Fe66 2.002 . S
O72 C73 1.295 . S
C73 O72 1.295 . S
C73 O75 1.235 . S
C74 O79 1.287 . S
C74 O80 1.255 . S
O75 Fe67 1.997 . S
O75 C73 1.235 . S
C76 O82 1.287 . S
C76 O83 1.255 . S
O77 Fe66 1.976 . S
O77 C84 1.287 . S
O78 Fe67 1.996 . S
O78 C84 1.255 . S
O79 Fe69 1.976 . S
O79 C74 1.287 . S
O80 Fe66 1.996 . S
O80 C74 1.255 . S
C81 O85 1.295 . S
C81 O86 1.235 . S
O82 Fe67 1.976 . S
O82 C76 1.287 . S
O83 Fe69 1.996 . S
O83 C76 1.255 . S
C84 O77 1.287 . S
C84 O78 1.255 . S
O85 Fe67 2.002 . S
O85 C81 1.295 . S
O86 Fe69 1.997 . S
O86 C81 1.235 . S
C87 O70 1.295 . S
C87 O71 1.235 . S
Fe88 O90 1.918 . S
Fe88 O93 1.997 . S
Fe88 O94 2.002 . S
Fe88 O99 1.976 . S
Fe88 O102 1.996 . S
Fe89 O90 1.918 . S
Fe89 O97 1.997 . S
Fe89 O100 1.996 1_554 S
Fe89 O104 1.976 1_554 S
Fe89 O107 2.002 1_554 S
O90 Fe88 1.918 . S
O90 Fe89 1.918 . S
O90 Fe91 1.918 . S
Fe91 O90 1.918 . S
Fe91 O92 2.002 1_565 S
Fe91 O101 1.976 . S
Fe91 O105 1.996 1_554 S
Fe91 O108 1.997 1_565 S
O92 Fe91 2.002 1_545 S
O92 C109 1.295 1_545 S
O93 Fe88 1.997 . S
O93 C109 1.235 . S
O94 Fe88 2.002 . S
O94 C95 1.295 . S
C95 O94 1.295 . S
C95 O97 1.235 . S
C96 O101 1.287 . S
C96 O102 1.255 . S
O97 Fe89 1.997 . S
O97 C95 1.235 . S
C98 O104 1.287 . S
C98 O105 1.255 . S
O99 Fe88 1.976 . S
O99 C106 1.287 . S
O100 Fe89 1.996 1_556 S
O100 C106 1.255 1_556 S
O101 Fe91 1.976 . S
O101 C96 1.287 . S
O102 Fe88 1.996 . S
O102 C96 1.255 . S
C103 O107 1.295 1_544 S
C103 O108 1.235 . S
O104 Fe89 1.976 1_556 S
O104 C98 1.287 . S
O105 Fe91 1.996 1_556 S
O105 C98 1.255 . S
C106 O99 1.287 . S
C106 O100 1.255 1_554 S
O107 Fe89 2.002 1_556 S
O107 C103 1.295 1_566 S
O108 Fe91 1.997 1_545 S
O108 C103 1.235 . S
C109 O92 1.295 1_565 S
C109 O93 1.235 . S
Fe110 O112 1.918 . S
Fe110 O115 1.997 1_565 S
Fe110 O116 2.002 1_565 S
Fe110 O121 1.976 . S
Fe110 O124 1.996 . S
Fe111 O112 1.918 . S
Fe111 O119 1.997 . S
Fe111 O122 1.996 . S
Fe111 O126 1.976 . S
Fe111 O129 2.002 . S
O112 Fe110 1.918 . S
O112 Fe111 1.918 . S
O112 Fe113 1.918 . S
Fe113 O112 1.918 . S
Fe113 O114 2.002 . S
Fe113 O123 1.976 . S
Fe113 O127 1.996 . S
Fe113 O130 1.997 . S
O114 Fe113 2.002 . S
O114 C131 1.295 1_565 S
O115 Fe110 1.997 1_545 S
O115 C131 1.235 . S
O116 Fe110 2.002 1_545 S
O116 C117 1.295 1_545 S
C117 O116 1.295 1_565 S
C117 O119 1.235 . S
C118 O123 1.287 . S
C118 O124 1.255 . S
O119 Fe111 1.997 . S
O119 C117 1.235 . S
C120 O126 1.287 . S
C120 O127 1.255 . S
O121 Fe110 1.976 . S
O121 C128 1.287 . S
O122 Fe111 1.996 . S
O122 C128 1.255 . S
O123 Fe113 1.976 . S
O123 C118 1.287 . S
O124 Fe110 1.996 . S
O124 C118 1.255 . S
C125 O129 1.295 . S
C125 O130 1.235 . S
O126 Fe111 1.976 . S
O126 C120 1.287 . S
O127 Fe113 1.996 . S
O127 C120 1.255 . S
C128 O121 1.287 . S
C128 O122 1.255 . S
O129 Fe111 2.002 . S
O129 C125 1.295 . S
O130 Fe113 1.997 . S
O130 C125 1.235 . S
C131 O114 1.295 1_545 S
C131 O115 1.235 . S
Fe132 O134 1.918 . S
Fe132 O137 1.997 1_545 S
Fe132 O138 2.002 1_545 S
Fe132 O143 1.976 . S
Fe132 O146 1.996 1_556 S
Fe133 O134 1.918 . S
Fe133 O141 1.997 . S
Fe133 O144 1.996 . S
Fe133 O148 1.976 . S
Fe133 O151 2.002 . S
O134 Fe132 1.918 . S
O134 Fe133 1.918 . S
O134 Fe135 1.918 . S
Fe135 O134 1.918 . S
Fe135 O136 2.002 1_556 S
Fe135 O145 1.976 1_556 S
Fe135 O149 1.996 1_556 S
Fe135 O152 1.997 . S
O136 Fe135 2.002 1_554 S
O136 C153 1.295 1_544 S
O137 Fe132 1.997 1_565 S
O137 C153 1.235 . S
O138 Fe132 2.002 1_565 S
O138 C139 1.295 1_565 S
C139 O138 1.295 1_545 S
C139 O141 1.235 . S
C140 O145 1.287 . S
C140 O146 1.255 . S
O141 Fe133 1.997 . S
O141 C139 1.235 . S
C142 O148 1.287 . S
C142 O149 1.255 1_556 S
O143 Fe132 1.976 . S
O143 C150 1.287 . S
O144 Fe133 1.996 . S
O144 C150 1.255 . S
O145 Fe135 1.976 1_554 S
O145 C140 1.287 . S
O146 Fe132 1.996 1_554 S
O146 C140 1.255 . S
C147 O151 1.295 . S
C147 O152 1.235 . S
O148 Fe133 1.976 . S
O148 C142 1.287 . S
O149 Fe135 1.996 1_554 S
O149 C142 1.255 1_554 S
C150 O143 1.287 . S
C150 O144 1.255 . S
O151 Fe133 2.002 . S
O151 C147 1.295 . S
O152 Fe135 1.997 . S
O152 C147 1.235 . S
C153 O136 1.295 1_566 S
C153 O137 1.235 . S
Fe154 O156 1.918 . S
Fe154 O159 1.997 . S
Fe154 O160 2.002 . S
Fe154 O165 1.976 . S
Fe154 O168 1.996 . S
Fe155 O156 1.918 . S
Fe155 O163 1.997 . S
Fe155 O166 1.996 . S
Fe155 O170 1.976 . S
Fe155 O173 2.002 . S
O156 Fe154 1.918 . S
O156 Fe155 1.918 . S
O156 Fe157 1.918 . S
Fe157 O156 1.918 . S
Fe157 O158 2.002 1_545 S
Fe157 O167 1.976 . S
Fe157 O171 1.996 . S
Fe157 O174 1.997 1_545 S
O158 Fe157 2.002 1_565 S
O158 C175 1.295 1_565 S
O159 Fe154 1.997 . S
O159 C175 1.235 . S
O160 Fe154 2.002 . S
O160 C161 1.295 . S
C161 O160 1.295 . S
C161 O163 1.235 . S
C162 O167 1.287 . S
C162 O168 1.255 . S
O163 Fe155 1.997 . S
O163 C161 1.235 . S
C164 O170 1.287 . S
C164 O171 1.255 . S
O165 Fe154 1.976 . S
O165 C172 1.287 . S
O166 Fe155 1.996 . S
O166 C172 1.255 . S
O167 Fe157 1.976 . S
O167 C162 1.287 . S
O168 Fe154 1.996 . S
O168 C162 1.255 . S
C169 O173 1.295 1_565 S
C169 O174 1.235 . S
O170 Fe155 1.976 . S
O170 C164 1.287 . S
O171 Fe157 1.996 . S
O171 C164 1.255 . S
C172 O165 1.287 . S
C172 O166 1.255 . S
O173 Fe155 2.002 . S
O173 C169 1.295 1_545 S
O174 Fe157 1.997 1_565 S
O174 C169 1.235 . S
C175 O158 1.295 1_545 S
C175 O159 1.235 . S
C40 C8 1.418 . S
C62 C74 1.418 . S
C128 C96 1.418 1_455 S
C150 C162 1.418 1_455 S
C18 C142 1.960 1_554 S
C32 C172 1.960 . S
C106 C54 1.960 1_554 S
C84 C120 1.960 . S
C65 C15 1.696 1_656 S
C81 C43 1.696 1_455 S
C103 C153 1.696 1_544 S
C131 C169 1.696 1_545 S
C7 C37 2.097 1_455 S
C73 C59 2.097 1_455 S
C125 C95 2.097 . S
C161 C147 2.097 . S
C10 C87 1.552 . S
C30 C51 1.552 . S
C29 C52 1.552 . S
C21 C76 1.552 . S
C98 C175 1.552 1_565 S
C139 C118 1.552 1_545 S
C117 C140 1.552 1_565 S
C164 C109 1.552 1_545 S
