# Generated by pormake.
# Topology upc, (4)-cn, num edge types: 1
# Building blocks:
#     Node 0, Type 0, BuildingBlock: GALJAG_clean_sbu_0, # of connection points: 4
#     Node 1, Type 0, BuildingBlock: GALJAG_clean_sbu_0, # of connection points: 4
#     Node 2, Type 0, BuildingBlock: GALJAG_clean_sbu_0, # of connection points: 4
#     Node 3, Type 0, BuildingBlock: GALJAG_clean_sbu_0, # of connection points: 4
#     Node 4, Type 0, BuildingBlock: GALJAG_clean_sbu_0, # of connection points: 4
#     Node 5, Type 0, BuildingBlock: GALJAG_clean_sbu_0, # of connection points: 4
#     Node 6, Type 0, BuildingBlock: GALJAG_clean_sbu_0, # of connection points: 4
#     Node 7, Type 0, BuildingBlock: GALJAG_clean_sbu_0, # of connection points: 4
#     Node 8, Type 0, BuildingBlock: GALJAG_clean_sbu_0, # of connection points: 4
#     Node 9, Type 0, BuildingBlock: GALJAG_clean_sbu_0, # of connection points: 4
#     Node 10, Type 0, BuildingBlock: GALJAG_clean_sbu_0, # of connection points: 4
#     Node 11, Type 0, BuildingBlock: GALJAG_clean_sbu_0, # of connection points: 4
#     Node 12, Type 0, BuildingBlock: GALJAG_clean_sbu_0, # of connection points: 4
#     Node 13, Type 0, BuildingBlock: GALJAG_clean_sbu_0, # of connection points: 4
#     Node 14, Type 0, BuildingBlock: GALJAG_clean_sbu_0, # of connection points: 4
#     Node 15, Type 0, BuildingBlock: GALJAG_clean_sbu_0, # of connection points: 4
#     Edge 16, Type (0, 0), None
#     Edge 17, Type (0, 0), None
#     Edge 18, Type (0, 0), None
#     Edge 19, Type (0, 0), None
#     Edge 20, Type (0, 0), None
#     Edge 21, Type (0, 0), None
#     Edge 22, Type (0, 0), None
#     Edge 23, Type (0, 0), None
#     Edge 24, Type (0, 0), None
#     Edge 25, Type (0, 0), None
#     Edge 26, Type (0, 0), None
#     Edge 27, Type (0, 0), None
#     Edge 28, Type (0, 0), None
#     Edge 29, Type (0, 0), None
#     Edge 30, Type (0, 0), None
#     Edge 31, Type (0, 0), None
#     Edge 32, Type (0, 0), None
#     Edge 33, Type (0, 0), None
#     Edge 34, Type (0, 0), None
#     Edge 35, Type (0, 0), None
#     Edge 36, Type (0, 0), None
#     Edge 37, Type (0, 0), None
#     Edge 38, Type (0, 0), None
#     Edge 39, Type (0, 0), None
#     Edge 40, Type (0, 0), None
#     Edge 41, Type (0, 0), None
#     Edge 42, Type (0, 0), None
#     Edge 43, Type (0, 0), None
#     Edge 44, Type (0, 0), None
#     Edge 45, Type (0, 0), None
#     Edge 46, Type (0, 0), None
#     Edge 47, Type (0, 0), None
# Relax obj value: 0.219
# Max RMSD: 0.228
# Mean RMSD: 0.228
data_MOF--net-upc--node1-GALJAG_clean_sbu_0--edge1-none
_symmetry_space_group_name_H-M    P1
_symmetry_Int_Tables_number       1
_symmetry_cell_setting            triclinic
loop_
_symmetry_equiv_pos_as_xyz
'x, y, z'
_cell_length_a     14.80954
_cell_length_b     14.809535
_cell_length_c     20.085925
_cell_angle_alpha  90.000819
_cell_angle_beta   89.999225
_cell_angle_gamma 89.999929
loop_
_atom_site_label
_atom_site_type_symbol
_atom_site_fract_x
_atom_site_fract_y
_atom_site_fract_z
_atom_type_partial_charge
In0 In 0.11493 0.64302 0.08657 0.0
O1 O 0.17803 0.56156 0.17102 0.0
O2 O 0.07196 0.50222 0.11535 0.0
C3 C 0.2534 0.7566 0.062 0.0
C4 C 0.05617 0.56552 -0.02598 0.0
C5 C 1.0217 0.75216 0.17154 0.0
O6 O 0.26602 0.67455 0.0771 0.0
O7 O 0.17209 0.77958 0.05607 0.0
O8 O 1.02374 0.76562 0.10936 0.0
O9 O 0.05755 0.67899 0.18891 0.0
C10 C 0.12272 0.49667 0.16548 0.0
O11 O 1.00357 0.60792 0.01262 0.0
O12 O 0.13874 0.56841 -0.01064 0.0
In13 In 0.93684 0.11492 0.08658 0.0
O14 O 0.97194 1.00356 0.01263 0.0
O15 O 1.01145 0.13874 -0.01063 0.0
C16 C 0.82771 1.0217 0.17155 0.0
C17 C 0.0832 0.12271 0.16548 0.0
C18 C 0.82326 0.25339 0.062 0.0
O19 O 0.81425 1.02372 0.10938 0.0
O20 O 0.90087 0.05757 0.18892 0.0
O21 O 0.9053 0.26602 0.0771 0.0
O22 O 0.80027 0.17208 0.05608 0.0
C23 C 1.01433 0.05617 -0.02598 0.0
O24 O 1.01831 0.17803 0.17102 0.0
O25 O 0.07764 0.07194 0.11535 0.0
In26 In 0.46495 0.93683 0.08658 0.0
O27 O 0.40184 1.01831 0.17102 0.0
O28 O 0.50794 0.07762 0.11535 0.0
C29 C 0.3265 0.82323 0.06203 0.0
C30 C 0.52368 1.01433 -0.02598 0.0
C31 C 0.55818 0.8277 0.17155 0.0
O32 O 0.31385 0.90528 0.07712 0.0
O33 O 0.40781 0.80025 0.05608 0.0
O34 O 0.55616 0.81425 0.10938 0.0
O35 O 0.5223 0.90086 0.18892 0.0
C36 C 0.45716 0.0832 0.16548 0.0
O37 O 0.5763 0.97193 0.01262 0.0
O38 O 0.44111 1.01144 -0.01063 0.0
In39 In 0.64303 0.46494 0.08658 0.0
O40 O 0.56157 0.40184 0.17102 0.0
O41 O 0.50223 0.50792 0.11535 0.0
C42 C 0.75662 0.32649 0.06203 0.0
C43 C 0.56552 0.52368 -0.02598 0.0
C44 C 0.75216 0.55818 0.17154 0.0
O45 O 0.67458 0.31385 0.07711 0.0
O46 O 0.7796 0.4078 0.05607 0.0
O47 O 0.76562 0.55614 0.10936 0.0
O48 O 0.679 0.52232 0.18891 0.0
C49 C 0.49667 0.45715 0.16548 0.0
O50 O 0.60791 0.57629 0.01262 0.0
O51 O 0.56842 0.44111 -0.01063 0.0
In52 In 0.11494 0.93684 0.30394 0.0
O53 O 1.00358 0.97189 0.37791 0.0
O54 O 0.13874 1.0115 0.40114 0.0
C55 C 1.02183 0.82775 0.21895 0.0
C56 C 0.12263 0.0832 0.22513 0.0
C57 C 0.25339 0.82326 0.32856 0.0
O58 O 1.02366 0.81431 0.28113 0.0
O59 O 0.0578 0.90085 0.20155 0.0
O60 O 0.26603 0.9053 0.31346 0.0
O61 O 0.17208 0.80027 0.33446 0.0
C62 C 0.05618 1.01434 0.4165 0.0
O63 O 0.17805 1.01841 0.21955 0.0
O64 O 0.07178 0.0776 0.27521 0.0
In65 In 0.64301 0.11494 0.30395 0.0
O66 O 0.60796 1.00358 0.37792 0.0
O67 O 0.56836 0.13874 0.40115 0.0
C68 C 0.75211 1.02183 0.21896 0.0
C69 C 0.49667 0.12263 0.22513 0.0
C70 C 0.75659 0.2534 0.32856 0.0
O71 O 0.76556 1.02367 0.28114 0.0
O72 O 0.67901 0.05778 0.20156 0.0
O73 O 0.67455 0.26603 0.31346 0.0
O74 O 0.77958 0.17209 0.33447 0.0
C75 C 0.56551 0.05617 0.41651 0.0
O76 O 0.56146 0.17805 0.21955 0.0
O77 O 0.50225 0.07178 0.27522 0.0
In78 In 0.46494 0.64302 0.30395 0.0
O79 O 0.40182 0.56146 0.21956 0.0
O80 O 0.5081 0.50226 0.27521 0.0
C81 C 0.32649 0.75662 0.32853 0.0
C82 C 0.52368 0.56551 0.4165 0.0
C83 C 0.55805 0.75211 0.21896 0.0
O84 O 0.31385 0.67457 0.31345 0.0
O85 O 0.40781 0.77959 0.33448 0.0
O86 O 0.55622 0.76556 0.28114 0.0
O87 O 0.52209 0.67901 0.20156 0.0
C88 C 0.45724 0.49667 0.22513 0.0
O89 O 0.57628 0.60795 0.37792 0.0
O90 O 0.44111 0.56836 0.40114 0.0
In91 In 0.93684 0.46494 0.30394 0.0
O92 O 1.01841 0.40182 0.21955 0.0
O93 O 0.07759 0.50811 0.27521 0.0
C94 C 0.82323 0.3265 0.32853 0.0
C95 C 1.01434 0.52368 0.4165 0.0
C96 C 0.82775 0.55804 0.21895 0.0
O97 O 0.90528 0.31385 0.31345 0.0
O98 O 0.80026 0.40781 0.33447 0.0
O99 O 0.81431 0.55623 0.28113 0.0
O100 O 0.90085 0.52207 0.20154 0.0
C101 C 0.0832 0.45725 0.22513 0.0
O102 O 0.9719 0.57628 0.37792 0.0
O103 O 1.01149 0.44111 0.40113 0.0
In104 In 0.96489 0.43684 0.80395 0.0
O105 O 0.07626 0.47197 0.87789 0.0
O106 O 0.94108 0.51147 0.90116 0.0
C107 C 0.05811 0.32768 0.71899 0.0
C108 C 0.9571 0.58318 0.72503 0.0
C109 C 0.82644 0.32325 0.82855 0.0
O110 O 0.05608 0.31423 0.78117 0.0
O111 O 1.02226 0.40084 0.70162 0.0
O112 O 0.8138 0.40529 0.81344 0.0
O113 O 0.90775 0.30028 0.83448 0.0
C114 C 1.02365 0.51437 0.91649 0.0
O115 O 0.90179 0.51828 0.7195 0.0
O116 O 1.00786 0.57763 0.77516 0.0
In117 In 0.14299 0.96489 0.80394 0.0
O118 O 0.10787 0.07626 0.87789 0.0
O119 O 0.06836 0.94108 0.90115 0.0
C120 C 0.25214 0.0581 0.71898 0.0
C121 C 0.99664 0.9571 0.72503 0.0
C122 C 0.25658 0.82645 0.82855 0.0
O123 O 0.26558 0.05609 0.78115 0.0
O124 O 0.17898 1.02223 0.70161 0.0
O125 O 0.17454 0.81381 0.81344 0.0
O126 O 0.27956 0.90776 0.83447 0.0
C127 C 0.06547 1.02365 0.91649 0.0
O128 O 0.06154 0.90178 0.7195 0.0
O129 O 1.0022 1.00787 0.77516 0.0
In130 In 0.61492 0.143 0.80394 0.0
O131 O 0.50357 0.10787 0.8779 0.0
O132 O 0.63876 0.06837 0.90115 0.0
C133 C 0.52171 0.25214 0.71898 0.0
C134 C 0.62271 0.99664 0.72504 0.0
C135 C 0.75335 0.25661 0.82852 0.0
O136 O 0.52372 0.26558 0.78115 0.0
O137 O 0.55759 0.17899 0.7016 0.0
O138 O 0.76601 0.17456 0.81342 0.0
O139 O 0.67204 0.27957 0.83448 0.0
C140 C 0.55619 0.06547 0.91649 0.0
O141 O 0.67803 0.06153 0.71951 0.0
O142 O 0.57193 1.00221 0.77516 0.0
In143 In 0.43683 0.61492 0.80395 0.0
O144 O 0.51828 0.67803 0.71951 0.0
O145 O 0.57763 0.57195 0.77516 0.0
C146 C 0.32323 0.75336 0.82852 0.0
C147 C 0.51437 0.55619 0.9165 0.0
C148 C 0.32768 0.5217 0.71899 0.0
O149 O 0.40527 0.76601 0.81342 0.0
O150 O 0.30027 0.67205 0.83448 0.0
O151 O 0.31424 0.52373 0.78117 0.0
O152 O 0.40084 0.55757 0.70162 0.0
C153 C 0.58318 0.62272 0.72503 0.0
O154 O 0.47197 0.50357 0.8779 0.0
O155 O 0.51146 0.63876 0.90115 0.0
In156 In 0.96489 0.14298 0.58658 0.0
O157 O 0.07624 0.10794 0.51261 0.0
O158 O 0.94108 0.06832 0.48939 0.0
C159 C 0.05796 0.25207 0.67159 0.0
C160 C 0.95723 0.99661 0.66538 0.0
C161 C 0.82645 0.25658 0.56195 0.0
O162 O 0.05619 0.2655 0.60941 0.0
O163 O 1.02195 0.179 0.68899 0.0
O164 O 0.8138 0.17454 0.57706 0.0
O165 O 0.90777 0.27955 0.55605 0.0
C166 C 1.02364 0.06548 0.47402 0.0
O167 O 0.90177 0.06138 0.67095 0.0
O168 O 1.00811 1.00224 0.61531 0.0
In169 In 0.43685 0.96489 0.58657 0.0
O170 O 0.4719 0.07624 0.5126 0.0
O171 O 0.51152 0.94107 0.48938 0.0
C172 C 0.32774 0.05797 0.67158 0.0
C173 C 0.58321 0.95722 0.66538 0.0
C174 C 0.32326 0.82644 0.56195 0.0
O175 O 0.31431 0.05617 0.60939 0.0
O176 O 0.40083 1.02197 0.68898 0.0
O177 O 0.4053 0.8138 0.57706 0.0
O178 O 0.30028 0.90776 0.55604 0.0
C179 C 0.51436 1.02364 0.47402 0.0
O180 O 0.51844 0.90177 0.67095 0.0
O181 O 0.57759 1.00809 0.61531 0.0
In182 In 0.61493 0.43684 0.58657 0.0
O183 O 0.50359 0.4719 0.5126 0.0
O184 O 0.63877 0.51151 0.48939 0.0
C185 C 0.52185 0.32775 0.67158 0.0
C186 C 0.62259 0.58321 0.66538 0.0
C187 C 0.75336 0.32323 0.56198 0.0
O188 O 0.52363 0.31432 0.6094 0.0
O189 O 0.55785 0.40083 0.68898 0.0
O190 O 0.76602 0.40527 0.57707 0.0
O191 O 0.67204 0.30027 0.55603 0.0
C192 C 0.5562 0.51436 0.47402 0.0
O193 O 0.67805 0.51844 0.67095 0.0
O194 O 0.57171 0.57758 0.61531 0.0
In195 In 0.14299 0.61493 0.58658 0.0
O196 O 0.06137 0.67805 0.67094 0.0
O197 O 1.00226 0.57169 0.61531 0.0
C198 C 0.25661 0.75335 0.56198 0.0
C199 C 0.06549 0.5562 0.47402 0.0
C200 C 0.25208 0.52185 0.67159 0.0
O201 O 0.17456 0.76601 0.57707 0.0
O202 O 0.27957 0.67203 0.55604 0.0
O203 O 0.2655 0.52362 0.60941 0.0
O204 O 0.179 0.55787 0.68899 0.0
C205 C 0.99661 0.62258 0.66537 0.0
O206 O 0.10794 0.50359 0.5126 0.0
O207 O 0.06833 0.63876 0.48939 0.0
loop_
_geom_bond_atom_site_label_1
_geom_bond_atom_site_label_2
_geom_bond_distance
_geom_bond_site_symmetry_2
_ccdc_geom_bond_type
In0 O1 2.294 . S
In0 O2 2.326 1_455 S
In0 O6 2.266 . S
In0 O7 2.326 . S
In0 O8 2.266 . S
In0 O9 2.326 . S
In0 O11 2.294 1_455 S
In0 O12 2.326 . S
O1 In0 2.294 . S
O1 C10 1.240 . S
O2 In0 2.326 1_655 S
O2 C10 1.252 1_655 S
C3 O6 1.252 . S
C3 O7 1.260 . S
C4 O11 1.240 1_455 S
C4 O12 1.252 . S
C5 O8 1.252 . S
C5 O9 1.260 . S
O6 In0 2.266 . S
O6 C3 1.252 . S
O7 In0 2.326 . S
O7 C3 1.260 . S
O8 In0 2.266 . S
O8 C5 1.252 . S
O9 In0 2.326 . S
O9 C5 1.260 . S
C10 O1 1.240 . S
C10 O2 1.252 1_455 S
O11 In0 2.294 1_655 S
O11 C4 1.240 1_655 S
O12 In0 2.326 . S
O12 C4 1.252 . S
In13 O14 2.294 1_545 S
In13 O15 2.326 . S
In13 O19 2.266 . S
In13 O20 2.326 . S
In13 O21 2.266 . S
In13 O22 2.326 . S
In13 O24 2.297 . S
In13 O25 2.326 1_545 S
O14 In13 2.294 1_565 S
O14 C23 1.240 1_565 S
O15 In13 2.326 . S
O15 C23 1.252 . S
C16 O19 1.252 . S
C16 O20 1.260 . S
C17 O24 1.240 1_455 S
C17 O25 1.252 1_445 S
C18 O21 1.252 . S
C18 O22 1.260 . S
O19 In13 2.266 . S
O19 C16 1.252 . S
O20 In13 2.326 . S
O20 C16 1.260 . S
O21 In13 2.266 . S
O21 C18 1.252 . S
O22 In13 2.326 . S
O22 C18 1.260 . S
C23 O14 1.240 1_545 S
C23 O15 1.252 . S
O24 In13 2.297 . S
O24 C17 1.240 1_655 S
O25 In13 2.326 1_565 S
O25 C17 1.252 1_665 S
In26 O27 2.297 . S
In26 O28 2.326 . S
In26 O32 2.266 . S
In26 O33 2.326 . S
In26 O34 2.266 . S
In26 O35 2.326 . S
In26 O37 2.294 . S
In26 O38 2.326 . S
O27 In26 2.297 . S
O27 C36 1.240 1_565 S
O28 In26 2.326 . S
O28 C36 1.252 1_565 S
C29 O32 1.252 . S
C29 O33 1.260 . S
C30 O37 1.240 . S
C30 O38 1.252 . S
C31 O34 1.252 . S
C31 O35 1.260 . S
O32 In26 2.266 . S
O32 C29 1.252 . S
O33 In26 2.326 . S
O33 C29 1.260 . S
O34 In26 2.266 . S
O34 C31 1.252 . S
O35 In26 2.326 . S
O35 C31 1.260 . S
C36 O27 1.240 1_545 S
C36 O28 1.252 1_545 S
O37 In26 2.294 . S
O37 C30 1.240 . S
O38 In26 2.326 . S
O38 C30 1.252 . S
In39 O40 2.294 . S
In39 O41 2.326 . S
In39 O45 2.266 . S
In39 O46 2.326 . S
In39 O47 2.266 . S
In39 O48 2.326 . S
In39 O50 2.294 . S
In39 O51 2.326 . S
O40 In39 2.294 . S
O40 C49 1.240 . S
O41 In39 2.326 . S
O41 C49 1.252 . S
C42 O45 1.252 . S
C42 O46 1.260 . S
C43 O50 1.240 . S
C43 O51 1.252 . S
C44 O47 1.252 . S
C44 O48 1.260 . S
O45 In39 2.266 . S
O45 C42 1.252 . S
O46 In39 2.326 . S
O46 C42 1.260 . S
O47 In39 2.266 . S
O47 C44 1.252 . S
O48 In39 2.326 . S
O48 C44 1.260 . S
C49 O40 1.240 . S
C49 O41 1.252 . S
O50 In39 2.294 . S
O50 C43 1.240 . S
O51 In39 2.326 . S
O51 C43 1.252 . S
In52 O53 2.294 1_455 S
In52 O54 2.326 . S
In52 O58 2.266 . S
In52 O59 2.326 . S
In52 O60 2.266 . S
In52 O61 2.326 . S
In52 O63 2.297 . S
In52 O64 2.326 1_455 S
O53 In52 2.294 1_655 S
O53 C62 1.240 1_655 S
O54 In52 2.326 . S
O54 C62 1.252 . S
C55 O58 1.252 . S
C55 O59 1.260 . S
C56 O63 1.240 1_545 S
C56 O64 1.252 1_445 S
C57 O60 1.252 . S
C57 O61 1.260 . S
O58 In52 2.266 . S
O58 C55 1.252 . S
O59 In52 2.326 . S
O59 C55 1.260 . S
O60 In52 2.266 . S
O60 C57 1.252 . S
O61 In52 2.326 . S
O61 C57 1.260 . S
C62 O53 1.240 1_455 S
C62 O54 1.252 . S
O63 In52 2.297 . S
O63 C56 1.240 1_565 S
O64 In52 2.326 1_655 S
O64 C56 1.252 1_665 S
In65 O66 2.294 1_545 S
In65 O67 2.326 . S
In65 O71 2.266 . S
In65 O72 2.326 . S
In65 O73 2.266 . S
In65 O74 2.326 . S
In65 O76 2.294 . S
In65 O77 2.326 1_545 S
O66 In65 2.294 1_565 S
O66 C75 1.240 1_565 S
O67 In65 2.326 . S
O67 C75 1.252 . S
C68 O71 1.252 . S
C68 O72 1.260 . S
C69 O76 1.240 . S
C69 O77 1.252 1_545 S
C70 O73 1.252 . S
C70 O74 1.260 . S
O71 In65 2.266 . S
O71 C68 1.252 . S
O72 In65 2.326 . S
O72 C68 1.260 . S
O73 In65 2.266 . S
O73 C70 1.252 . S
O74 In65 2.326 . S
O74 C70 1.260 . S
C75 O66 1.240 1_545 S
C75 O67 1.252 . S
O76 In65 2.294 . S
O76 C69 1.240 . S
O77 In65 2.326 1_565 S
O77 C69 1.252 1_565 S
In78 O79 2.294 . S
In78 O80 2.326 . S
In78 O84 2.266 . S
In78 O85 2.326 . S
In78 O86 2.266 . S
In78 O87 2.326 . S
In78 O89 2.294 . S
In78 O90 2.326 . S
O79 In78 2.294 . S
O79 C88 1.240 . S
O80 In78 2.326 . S
O80 C88 1.252 . S
C81 O84 1.252 . S
C81 O85 1.260 . S
C82 O89 1.240 . S
C82 O90 1.252 . S
C83 O86 1.252 . S
C83 O87 1.260 . S
O84 In78 2.266 . S
O84 C81 1.252 . S
O85 In78 2.326 . S
O85 C81 1.260 . S
O86 In78 2.266 . S
O86 C83 1.252 . S
O87 In78 2.326 . S
O87 C83 1.260 . S
C88 O79 1.240 . S
C88 O80 1.252 . S
O89 In78 2.294 . S
O89 C82 1.240 . S
O90 In78 2.326 . S
O90 C82 1.252 . S
In91 O92 2.297 . S
In91 O93 2.326 . S
In91 O97 2.266 . S
In91 O98 2.326 . S
In91 O99 2.266 . S
In91 O100 2.326 . S
In91 O102 2.294 . S
In91 O103 2.326 . S
O92 In91 2.297 . S
O92 C101 1.240 1_655 S
O93 In91 2.326 . S
O93 C101 1.252 1_655 S
C94 O97 1.252 . S
C94 O98 1.260 . S
C95 O102 1.240 . S
C95 O103 1.252 . S
C96 O99 1.252 . S
C96 O100 1.260 . S
O97 In91 2.266 . S
O97 C94 1.252 . S
O98 In91 2.326 . S
O98 C94 1.260 . S
O99 In91 2.266 . S
O99 C96 1.252 . S
O100 In91 2.326 . S
O100 C96 1.260 . S
C101 O92 1.240 1_455 S
C101 O93 1.252 1_455 S
O102 In91 2.294 . S
O102 C95 1.240 . S
O103 In91 2.326 . S
O103 C95 1.252 . S
In104 O105 2.294 1_655 S
In104 O106 2.326 . S
In104 O110 2.266 . S
In104 O111 2.326 . S
In104 O112 2.266 . S
In104 O113 2.326 . S
In104 O115 2.294 . S
In104 O116 2.326 1_655 S
O105 In104 2.294 1_455 S
O105 C114 1.240 1_455 S
O106 In104 2.326 . S
O106 C114 1.252 . S
C107 O110 1.252 . S
C107 O111 1.260 . S
C108 O115 1.240 . S
C108 O116 1.252 1_655 S
C109 O112 1.252 . S
C109 O113 1.260 . S
O110 In104 2.266 . S
O110 C107 1.252 . S
O111 In104 2.326 . S
O111 C107 1.260 . S
O112 In104 2.266 . S
O112 C109 1.252 . S
O113 In104 2.326 . S
O113 C109 1.260 . S
C114 O105 1.240 1_655 S
C114 O106 1.252 . S
O115 In104 2.294 . S
O115 C108 1.240 . S
O116 In104 2.326 1_455 S
O116 C108 1.252 1_455 S
In117 O118 2.294 1_565 S
In117 O119 2.326 . S
In117 O123 2.266 . S
In117 O124 2.326 . S
In117 O125 2.266 . S
In117 O126 2.326 . S
In117 O128 2.297 . S
In117 O129 2.326 1_565 S
O118 In117 2.294 1_545 S
O118 C127 1.240 1_545 S
O119 In117 2.326 . S
O119 C127 1.252 . S
C120 O123 1.252 . S
C120 O124 1.260 . S
C121 O128 1.240 1_655 S
C121 O129 1.252 1_665 S
C122 O125 1.252 . S
C122 O126 1.260 . S
O123 In117 2.266 . S
O123 C120 1.252 . S
O124 In117 2.326 . S
O124 C120 1.260 . S
O125 In117 2.266 . S
O125 C122 1.252 . S
O126 In117 2.326 . S
O126 C122 1.260 . S
C127 O118 1.240 1_565 S
C127 O119 1.252 . S
O128 In117 2.297 . S
O128 C121 1.240 1_455 S
O129 In117 2.326 1_545 S
O129 C121 1.252 1_445 S
In130 O131 2.294 . S
In130 O132 2.326 . S
In130 O136 2.266 . S
In130 O137 2.326 . S
In130 O138 2.266 . S
In130 O139 2.326 . S
In130 O141 2.297 . S
In130 O142 2.326 . S
O131 In130 2.294 . S
O131 C140 1.240 . S
O132 In130 2.326 . S
O132 C140 1.252 . S
C133 O136 1.252 . S
C133 O137 1.260 . S
C134 O141 1.240 1_565 S
C134 O142 1.252 1_565 S
C135 O138 1.252 . S
C135 O139 1.260 . S
O136 In130 2.266 . S
O136 C133 1.252 . S
O137 In130 2.326 . S
O137 C133 1.260 . S
O138 In130 2.266 . S
O138 C135 1.252 . S
O139 In130 2.326 . S
O139 C135 1.260 . S
C140 O131 1.240 . S
C140 O132 1.252 . S
O141 In130 2.297 . S
O141 C134 1.240 1_545 S
O142 In130 2.326 . S
O142 C134 1.252 1_545 S
In143 O144 2.294 . S
In143 O145 2.326 . S
In143 O149 2.266 . S
In143 O150 2.326 . S
In143 O151 2.266 . S
In143 O152 2.326 . S
In143 O154 2.294 . S
In143 O155 2.326 . S
O144 In143 2.294 . S
O144 C153 1.240 . S
O145 In143 2.326 . S
O145 C153 1.252 . S
C146 O149 1.252 . S
C146 O150 1.260 . S
C147 O154 1.240 . S
C147 O155 1.252 . S
C148 O151 1.252 . S
C148 O152 1.260 . S
O149 In143 2.266 . S
O149 C146 1.252 . S
O150 In143 2.326 . S
O150 C146 1.260 . S
O151 In143 2.266 . S
O151 C148 1.252 . S
O152 In143 2.326 . S
O152 C148 1.260 . S
C153 O144 1.240 . S
C153 O145 1.252 . S
O154 In143 2.294 . S
O154 C147 1.240 . S
O155 In143 2.326 . S
O155 C147 1.252 . S
In156 O157 2.294 1_655 S
In156 O158 2.326 . S
In156 O162 2.266 . S
In156 O163 2.326 . S
In156 O164 2.266 . S
In156 O165 2.326 . S
In156 O167 2.297 . S
In156 O168 2.326 1_655 S
O157 In156 2.294 1_455 S
O157 C166 1.240 1_455 S
O158 In156 2.326 . S
O158 C166 1.252 . S
C159 O162 1.252 . S
C159 O163 1.260 . S
C160 O167 1.240 1_565 S
C160 O168 1.252 1_665 S
C161 O164 1.252 . S
C161 O165 1.260 . S
O162 In156 2.266 . S
O162 C159 1.252 . S
O163 In156 2.326 . S
O163 C159 1.260 . S
O164 In156 2.266 . S
O164 C161 1.252 . S
O165 In156 2.326 . S
O165 C161 1.260 . S
C166 O157 1.240 1_655 S
C166 O158 1.252 . S
O167 In156 2.297 . S
O167 C160 1.240 1_545 S
O168 In156 2.326 1_455 S
O168 C160 1.252 1_445 S
In169 O170 2.294 1_565 S
In169 O171 2.326 . S
In169 O175 2.266 . S
In169 O176 2.326 . S
In169 O177 2.266 . S
In169 O178 2.326 . S
In169 O180 2.294 . S
In169 O181 2.326 1_565 S
O170 In169 2.294 1_545 S
O170 C179 1.240 1_545 S
O171 In169 2.326 . S
O171 C179 1.252 . S
C172 O175 1.252 . S
C172 O176 1.260 . S
C173 O180 1.240 . S
C173 O181 1.252 1_565 S
C174 O177 1.252 . S
C174 O178 1.260 . S
O175 In169 2.266 . S
O175 C172 1.252 . S
O176 In169 2.326 . S
O176 C172 1.260 . S
O177 In169 2.266 . S
O177 C174 1.252 . S
O178 In169 2.326 . S
O178 C174 1.260 . S
C179 O170 1.240 1_565 S
C179 O171 1.252 . S
O180 In169 2.294 . S
O180 C173 1.240 . S
O181 In169 2.326 1_545 S
O181 C173 1.252 1_545 S
In182 O183 2.294 . S
In182 O184 2.326 . S
In182 O188 2.266 . S
In182 O189 2.326 . S
In182 O190 2.266 . S
In182 O191 2.326 . S
In182 O193 2.294 . S
In182 O194 2.326 . S
O183 In182 2.294 . S
O183 C192 1.240 . S
O184 In182 2.326 . S
O184 C192 1.252 . S
C185 O188 1.252 . S
C185 O189 1.260 . S
C186 O193 1.240 . S
C186 O194 1.252 . S
C187 O190 1.252 . S
C187 O191 1.260 . S
O188 In182 2.266 . S
O188 C185 1.252 . S
O189 In182 2.326 . S
O189 C185 1.260 . S
O190 In182 2.266 . S
O190 C187 1.252 . S
O191 In182 2.326 . S
O191 C187 1.260 . S
C192 O183 1.240 . S
C192 O184 1.252 . S
O193 In182 2.294 . S
O193 C186 1.240 . S
O194 In182 2.326 . S
O194 C186 1.252 . S
In195 O196 2.297 . S
In195 O197 2.326 . S
In195 O201 2.266 . S
In195 O202 2.326 . S
In195 O203 2.266 . S
In195 O204 2.326 . S
In195 O206 2.294 . S
In195 O207 2.326 . S
O196 In195 2.297 . S
O196 C205 1.240 1_455 S
O197 In195 2.326 . S
O197 C205 1.252 1_455 S
C198 O201 1.252 . S
C198 O202 1.260 . S
C199 O206 1.240 . S
C199 O207 1.252 . S
C200 O203 1.252 . S
C200 O204 1.260 . S
O201 In195 2.266 . S
O201 C198 1.252 . S
O202 In195 2.326 . S
O202 C198 1.260 . S
O203 In195 2.266 . S
O203 C200 1.252 . S
O204 In195 2.326 . S
O204 C200 1.260 . S
C205 O196 1.240 1_655 S
C205 O197 1.252 1_655 S
O206 In195 2.294 . S
O206 C199 1.240 . S
O207 In195 2.326 . S
O207 C199 1.252 . S
C3 C29 2.270 . S
C18 C42 2.270 . S
C57 C81 2.270 . S
C94 C70 2.270 . S
C109 C135 2.270 . S
C146 C122 2.270 . S
C187 C161 2.270 . S
C198 C174 2.270 . S
C101 C10 1.490 . S
C17 C56 1.490 . S
C69 C36 1.490 . S
C49 C88 1.490 . S
C205 C108 1.490 . S
C121 C160 1.490 . S
C134 C173 1.490 . S
C186 C153 1.490 . S
C5 C55 1.467 . S
C16 C68 1.468 . S
C83 C31 1.468 . S
C44 C96 1.467 . S
C159 C107 1.467 . S
C172 C120 1.468 . S
C133 C185 1.468 . S
C148 C200 1.467 . S
C4 C114 1.850 1_454 S
C127 C23 1.850 1_466 S
C30 C140 1.850 1_564 S
C147 C43 1.850 1_556 S
C62 C166 1.850 1_465 S
C75 C179 1.850 1_545 S
C192 C82 1.850 . S
C95 C199 1.850 1_655 S
