# Generated by pormake.
# Topology cds, (4)-cn, num edge types: 1
# Building blocks:
#     Node 0, Type 0, BuildingBlock: KOZSID_clean_sbu_0, # of connection points: 4
#     Node 1, Type 0, BuildingBlock: KOZSID_clean_sbu_0, # of connection points: 4
#     Edge 2, Type (0, 0), BuildingBlock: OJICUG_clean_linker_0, # of connection points: 2
#     Edge 3, Type (0, 0), BuildingBlock: OJICUG_clean_linker_0, # of connection points: 2
#     Edge 4, Type (0, 0), BuildingBlock: OJICUG_clean_linker_0, # of connection points: 2
#     Edge 5, Type (0, 0), BuildingBlock: OJICUG_clean_linker_0, # of connection points: 2
# Relax obj value: 0.000
# Max RMSD: 0.000
# Mean RMSD: 0.000
data_MOF--net-cds--node1-KOZSID_clean_sbu_0--edge1-OJICUG_clean_linker_0
_symmetry_space_group_name_H-M    P1
_symmetry_Int_Tables_number       1
_symmetry_cell_setting            triclinic
loop_
_symmetry_equiv_pos_as_xyz
'x, y, z'
_cell_length_a     12.600009
_cell_length_b     15.512422
_cell_length_c     28.124982
_cell_angle_alpha  106.08359
_cell_angle_beta   106.88033
_cell_angle_gamma 86.940254
loop_
_atom_site_label
_atom_site_type_symbol
_atom_site_fract_x
_atom_site_fract_y
_atom_site_fract_z
_atom_type_partial_charge
C0 C 0.23385 0.09497 0.03652 0.0
C1 C 0.2929 0.17632 0.05741 0.0
C2 C 0.21748 0.24113 0.06534 0.0
C3 C 0.11735 0.19571 0.04903 0.0
N4 N 0.12443 0.10558 0.03202 0.0
Co5 Co 0.99938 0.01375 0.00297 0.0
N6 N 0.88708 0.10953 0.0098 0.0
C7 C 0.90662 0.19937 0.02738 0.0
C8 C 0.81304 0.24772 0.02951 0.0
C9 C 0.72886 0.18506 0.01313 0.0
C10 C 0.77628 0.1018 1.00181 0.0
N11 N 0.87432 0.92191 0.97392 0.0
C12 C 0.76489 0.93253 0.96939 0.0
C13 C 0.70584 0.85118 0.9485 0.0
C14 C 0.78126 0.78637 0.94059 0.0
C15 C 0.8814 0.83178 0.95691 0.0
N16 N 0.11166 0.91796 0.99612 0.0
C17 C 0.09213 0.82812 0.97853 0.0
C18 C 0.1857 0.77978 0.97638 0.0
C19 C 0.26988 0.84244 0.99276 0.0
C20 C 0.22246 0.9257 0.0041 0.0
N21 N 0.01067 1.00598 0.07365 0.0
C22 C 0.01601 0.99558 0.1731 0.0
C23 C 0.00417 0.91823 0.13181 0.0
C24 C 0.00283 0.92485 0.0831 0.0
C25 C 0.0269 0.0781 0.16364 0.0
C26 C 0.02312 0.08177 0.11412 0.0
N27 N 0.9881 0.02151 0.93228 0.0
C28 C 0.97196 0.94935 0.84231 0.0
C29 C 0.98311 0.03184 0.83287 0.0
C30 C 0.99494 0.10921 0.87414 0.0
C31 C 0.9961 0.10262 0.92284 0.0
C32 C 0.97557 0.94572 0.89181 0.0
H33 H 0.00502 0.16413 0.95238 0.0
H34 H 0.96888 0.88064 0.89637 0.0
H35 H 0.99393 0.86335 0.05356 0.0
H36 H 0.02964 0.14687 0.10955 0.0
C37 C 0.01455 0.23596 0.04558 0.0
C38 C 0.2843 1.01022 0.01874 0.0
C39 C 0.71443 0.01728 0.98716 0.0
C40 C 0.9842 0.79153 0.96034 0.0
H41 H 0.38094 0.18767 0.06475 0.0
H42 H 0.23321 0.31297 0.07961 0.0
H43 H 0.80734 0.31977 0.04321 0.0
H44 H 0.64293 0.19905 0.01129 0.0
H45 H 0.61779 0.83983 0.94114 0.0
H46 H 0.76552 0.71453 0.92631 0.0
H47 H 0.1914 0.70773 0.96267 0.0
H48 H 0.35581 0.82846 0.99459 0.0
H49 H 0.99382 0.85253 0.13651 0.0
H50 H 0.0387 0.14015 0.19427 0.0
H51 H 0.96012 0.8873 0.81168 0.0
H52 H 0.00545 0.17488 0.86945 0.0
C53 C 0.09539 0.05447 0.62038 0.0
C54 C 0.19542 0.06996 0.65929 0.0
C55 C 0.27722 0.06199 0.63565 0.0
C56 C 0.22275 0.04287 0.58395 0.0
N57 N 0.11092 0.03955 0.57308 0.0
Co58 Co -0.0001 0.01338 0.50298 0.0
N59 N 0.12067 0.99505 0.4679 0.0
C60 C 0.23144 1.00056 0.49096 0.0
C61 C 0.29394 0.98985 0.45733 0.0
C62 C 0.21885 0.97781 0.4099 0.0
C63 C 0.11418 0.98123 0.41731 0.0
N64 N 0.88889 0.98721 0.43287 0.0
C65 C 0.90441 0.97232 0.38557 0.0
C66 C 0.8044 0.95674 0.34666 0.0
C67 C 0.7226 0.96464 0.3703 0.0
C68 C 0.77706 0.9838 0.42199 0.0
N69 N 0.87914 0.03174 0.53805 0.0
C70 C 0.76836 0.02622 0.51498 0.0
C71 C 0.70586 0.03702 0.54862 0.0
C72 C 0.78094 0.04913 0.59605 0.0
C73 C 0.88561 0.04567 0.58865 0.0
N74 N 0.99932 0.14355 0.5058 0.0
C75 C 0.99902 0.32634 0.50547 0.0
C76 C 0.89987 0.27635 0.49085 0.0
C77 C 0.90188 0.18616 0.49136 0.0
C78 C 0.0982 0.28305 0.52086 0.0
C79 C 0.09647 0.1928 0.52078 0.0
N80 N 0.00049 0.88321 0.50015 0.0
C81 C 0.90161 0.74372 0.48513 0.0
C82 C 0.0008 0.70041 0.50047 0.0
C83 C 0.09995 0.75038 0.51505 0.0
C84 C 0.09793 0.84058 0.51454 0.0
C85 C 0.90334 0.83398 0.48522 0.0
H86 H 0.17638 0.87458 0.52626 0.0
H87 H 0.82473 0.86263 0.47355 0.0
H88 H 0.82344 0.15213 0.4796 0.0
H89 H 0.17507 0.16416 0.53249 0.0
C90 C 0.27428 0.02341 0.54465 0.0
C91 C 0.98848 0.05081 0.63028 0.0
C92 C 0.01131 0.97615 0.37569 0.0
C93 C 0.72553 1.0033 0.4613 0.0
H94 H 0.20802 0.08378 0.70046 0.0
H95 H 0.36589 0.06745 0.65388 0.0
H96 H 0.38345 0.99382 0.46644 0.0
H97 H 0.2395 0.97019 0.37427 0.0
H98 H 0.7918 0.94295 0.30549 0.0
H99 H 0.63392 0.95913 0.35206 0.0
H100 H 0.61634 0.03306 0.53951 0.0
H101 H 0.76029 0.05684 0.63169 0.0
H102 H 0.82048 0.3067 0.47938 0.0
H103 H 0.17755 0.31796 0.532 0.0
H104 H 0.82227 0.70882 0.47402 0.0
H105 H 0.17934 0.72001 0.52648 0.0
C106 C 0.96946 0.05916 0.25714 0.0
C107 C 0.0157 0.99047 0.22529 0.0
H108 H 0.93371 0.10859 0.32987 0.0
C109 C 0.06069 0.91669 0.24367 0.0
H110 H 0.93162 0.116 0.24412 0.0
C111 C 0.05878 0.91162 0.29229 0.0
C112 C 0.01423 0.98104 0.32403 0.0
H113 H 0.09845 0.86305 0.22081 0.0
H114 H 0.09269 0.85372 0.30531 0.0
C115 C 0.9695 0.05473 0.30608 0.0
C116 C 0.93892 0.11067 0.76227 0.0
C117 C 0.98368 0.03689 0.7807 0.0
H118 H 0.90722 0.17352 0.70059 0.0
C119 C 0.02992 0.96809 0.7489 0.0
H120 H 0.90118 0.1644 0.78509 0.0
C121 C 0.03005 0.97241 0.69996 0.0
C122 C 0.9855 0.04609 0.68196 0.0
H123 H 0.0676 0.91124 0.76196 0.0
H124 H 0.0658 0.91846 0.67621 0.0
C125 C 0.941 0.11563 0.71365 0.0
C126 C 0.59293 0.99047 0.03772 0.0
C127 C 0.60401 0.01639 0.99538 0.0
H128 H 0.48106 0.96846 0.07835 0.0
C129 C 0.51009 0.03941 0.96054 0.0
H130 H 0.66503 0.97227 0.06478 0.0
C131 C 0.4058 0.03704 0.96818 0.0
C132 C 0.39473 1.01112 0.01053 0.0
H133 H 0.51768 0.05905 0.92756 0.0
H134 H 0.3337 0.05524 0.94112 0.0
C135 C 0.48864 0.9881 0.04537 0.0
C136 C 0.9235 0.54091 0.46329 0.0
C137 C 0.00064 0.60443 0.50163 0.0
H138 H 0.86338 0.40424 0.43389 0.0
C139 C 0.07704 0.5755 0.54133 0.0
H140 H 0.86449 0.56007 0.43163 0.0
C141 C 0.07633 0.48584 0.54265 0.0
C142 C 0.9992 0.42233 0.50431 0.0
H143 H 0.13646 0.62252 0.57205 0.0
H144 H 0.13534 0.4667 0.57431 0.0
C145 C 0.92279 0.45126 0.46461 0.0
loop_
_geom_bond_atom_site_label_1
_geom_bond_atom_site_label_2
_geom_bond_distance
_geom_bond_site_symmetry_2
_ccdc_geom_bond_type
C0 C1 1.443 . S
C0 N4 1.376 . S
C0 C38 1.389 . S
C1 C0 1.443 . S
C1 C2 1.340 . S
C1 H41 0.951 . S
C2 C1 1.340 . S
C2 C3 1.439 . S
C2 H42 0.950 . S
C3 C2 1.439 . S
C3 N4 1.374 . S
C3 C37 1.391 1_455 S
N4 C0 1.376 . S
N4 C3 1.374 . S
N4 Co5 2.009 . S
Co5 N4 2.009 . S
Co5 N6 1.997 1_455 S
Co5 N11 2.007 1_444 S
Co5 N16 1.992 1_544 S
Co5 N21 2.293 . S
Co5 N27 2.272 1_444 S
N6 Co5 1.997 1_655 S
N6 C7 1.376 . S
N6 C10 1.383 . S
C7 N6 1.376 . S
C7 C8 1.446 . S
C7 C37 1.395 . S
C8 C7 1.446 . S
C8 C9 1.339 . S
C8 H43 0.949 . S
C9 C8 1.339 . S
C9 C10 1.439 . S
C9 H44 0.950 . S
C10 N6 1.383 . S
C10 C9 1.439 . S
C10 C39 1.382 1_544 S
N11 Co5 2.007 1_666 S
N11 C12 1.376 . S
N11 C15 1.374 . S
C12 N11 1.376 . S
C12 C13 1.443 . S
C12 C39 1.398 . S
C13 C12 1.443 . S
C13 C14 1.340 . S
C13 H45 0.951 . S
C14 C13 1.340 . S
C14 C15 1.439 . S
C14 H46 0.950 . S
C15 N11 1.374 . S
C15 C14 1.439 . S
C15 C40 1.387 1_655 S
N16 Co5 1.992 1_566 S
N16 C17 1.376 . S
N16 C20 1.383 . S
C17 N16 1.376 . S
C17 C18 1.446 . S
C17 C40 1.399 . S
C18 C17 1.446 . S
C18 C19 1.339 . S
C18 H47 0.949 . S
C19 C18 1.339 . S
C19 C20 1.439 . S
C19 H48 0.950 . S
C20 N16 1.383 . S
C20 C19 1.439 . S
C20 C38 1.392 1_566 S
N21 Co5 2.293 . S
N21 C24 1.332 1_545 S
N21 C26 1.332 1_455 S
C22 C23 1.386 1_545 S
C22 C25 1.388 1_455 S
C23 C22 1.386 1_565 S
C23 C24 1.382 . S
C23 H49 0.950 . S
C24 N21 1.332 1_565 S
C24 C23 1.382 . S
C24 H35 0.952 . S
C25 C22 1.388 1_655 S
C25 C26 1.382 . S
C25 H50 0.950 . S
C26 N21 1.332 1_655 S
C26 C25 1.382 . S
C26 H36 0.948 . S
N27 Co5 2.272 1_666 S
N27 C31 1.332 1_565 S
N27 C32 1.332 1_655 S
C28 C29 1.395 1_455 S
C28 C32 1.382 . S
C28 H51 0.950 . S
C29 C28 1.395 1_655 S
C29 C30 1.381 1_565 S
C30 C29 1.381 1_545 S
C30 C31 1.382 . S
C30 H52 0.950 . S
C31 N27 1.332 1_545 S
C31 C30 1.382 . S
C31 H33 0.952 . S
C32 N27 1.332 1_455 S
C32 C28 1.382 . S
C32 H34 0.948 . S
H33 C31 0.952 . S
H34 C32 0.948 . S
H35 C24 0.952 . S
H36 C26 0.948 . S
C37 C3 1.391 1_655 S
C37 C7 1.395 . S
C38 C0 1.389 . S
C38 C20 1.392 1_544 S
C39 C10 1.382 1_566 S
C39 C12 1.398 . S
C40 C15 1.387 1_455 S
C40 C17 1.399 . S
H41 C1 0.951 . S
H42 C2 0.950 . S
H43 C8 0.949 . S
H44 C9 0.950 . S
H45 C13 0.951 . S
H46 C14 0.950 . S
H47 C18 0.949 . S
H48 C19 0.950 . S
H49 C23 0.950 . S
H50 C25 0.950 . S
H51 C28 0.950 . S
H52 C30 0.950 . S
C53 C54 1.446 . S
C53 N57 1.373 1_565 S
C53 C91 1.389 1_565 S
C54 C53 1.446 . S
C54 C55 1.340 . S
C54 H94 0.951 . S
C55 C54 1.340 . S
C55 C56 1.439 . S
C55 H95 0.950 . S
C56 C55 1.439 . S
C56 N57 1.374 1_565 S
C56 C90 1.395 . S
N57 C53 1.373 1_545 S
N57 C56 1.374 1_545 S
N57 Co58 2.008 . S
Co58 N57 2.008 . S
Co58 N59 1.996 1_545 S
Co58 N64 2.008 1_445 S
Co58 N69 1.993 1_455 S
Co58 N74 2.286 . S
Co58 N80 2.279 1_445 S
N59 Co58 1.996 1_565 S
N59 C60 1.376 . S
N59 C63 1.383 . S
C60 N59 1.376 . S
C60 C61 1.446 . S
C60 C90 1.391 . S
C61 C60 1.446 . S
C61 C62 1.339 . S
C61 H96 0.949 . S
C62 C61 1.339 . S
C62 C63 1.439 . S
C62 H97 0.950 . S
C63 N59 1.383 . S
C63 C62 1.439 . S
C63 C92 1.392 1_455 S
N64 Co58 2.008 1_665 S
N64 C65 1.376 1_565 S
N64 C68 1.374 1_565 S
C65 N64 1.376 1_545 S
C65 C66 1.443 . S
C65 C92 1.389 1_545 S
C66 C65 1.443 . S
C66 C67 1.340 . S
C66 H98 0.951 . S
C67 C66 1.340 . S
C67 C68 1.439 . S
C67 H99 0.950 . S
C68 N64 1.374 1_545 S
C68 C67 1.439 . S
C68 C93 1.395 . S
N69 Co58 1.993 1_655 S
N69 C70 1.376 . S
N69 C73 1.383 . S
C70 N69 1.376 . S
C70 C71 1.446 . S
C70 C93 1.391 . S
C71 C70 1.446 . S
C71 C72 1.339 . S
C71 H100 0.949 . S
C72 C71 1.339 . S
C72 C73 1.439 . S
C72 H101 0.950 . S
C73 N69 1.383 . S
C73 C72 1.439 . S
C73 C91 1.392 1_655 S
N74 Co58 2.286 . S
N74 C77 1.332 1_455 S
N74 C79 1.332 . S
C75 C76 1.386 1_455 S
C75 C78 1.388 . S
C76 C75 1.386 1_655 S
C76 C77 1.382 . S
C76 H102 0.950 . S
C77 N74 1.332 1_655 S
C77 C76 1.382 . S
C77 H88 0.952 . S
C78 C75 1.388 . S
C78 C79 1.382 . S
C78 H103 0.950 . S
C79 N74 1.332 . S
C79 C78 1.382 . S
C79 H89 0.948 . S
N80 Co58 2.279 1_665 S
N80 C84 1.332 1_655 S
N80 C85 1.332 . S
C81 C82 1.396 . S
C81 C85 1.382 . S
C81 H104 0.950 . S
C82 C81 1.396 . S
C82 C83 1.377 1_655 S
C83 C82 1.377 1_455 S
C83 C84 1.382 . S
C83 H105 0.950 . S
C84 N80 1.332 1_455 S
C84 C83 1.382 . S
C84 H86 0.952 . S
C85 N80 1.332 . S
C85 C81 1.382 . S
C85 H87 0.948 . S
H86 C84 0.952 . S
H87 C85 0.948 . S
H88 C77 0.952 . S
H89 C79 0.948 . S
C90 C56 1.395 . S
C90 C60 1.391 . S
C91 C53 1.389 1_545 S
C91 C73 1.392 1_455 S
C92 C63 1.392 1_655 S
C92 C65 1.389 1_565 S
C93 C68 1.395 . S
C93 C70 1.391 . S
H94 C54 0.951 . S
H95 C55 0.950 . S
H96 C61 0.949 . S
H97 C62 0.950 . S
H98 C66 0.951 . S
H99 C67 0.950 . S
H100 C71 0.949 . S
H101 C72 0.950 . S
H102 C76 0.950 . S
H103 C78 0.950 . S
H104 C81 0.950 . S
H105 C83 0.950 . S
C106 C107 1.385 1_655 S
C106 H110 0.950 . S
C106 C115 1.390 . S
C107 C106 1.385 1_455 S
C107 C109 1.386 1_545 S
H108 C115 0.950 . S
C109 C107 1.386 1_565 S
C109 C111 1.390 . S
C109 H113 0.950 . S
H110 C106 0.950 . S
C111 C109 1.390 . S
C111 C112 1.388 . S
C111 H114 0.950 . S
C112 C111 1.388 . S
C112 C115 1.388 1_465 S
H113 C109 0.950 . S
H114 C111 0.950 . S
C115 C106 1.390 . S
C115 H108 0.950 . S
C115 C112 1.388 1_645 S
C116 C117 1.388 . S
C116 H120 0.950 . S
C116 C125 1.390 . S
C117 C116 1.388 . S
C117 C119 1.387 1_645 S
H118 C125 0.950 . S
C119 C117 1.387 1_465 S
C119 C121 1.390 . S
C119 H123 0.950 . S
H120 C116 0.950 . S
C121 C119 1.390 . S
C121 C122 1.384 1_565 S
C121 H124 0.950 . S
C122 C121 1.384 1_545 S
C122 C125 1.387 1_455 S
H123 C119 0.950 . S
H124 C121 0.950 . S
C125 C116 1.390 . S
C125 H118 0.950 . S
C125 C122 1.387 1_655 S
C126 C127 1.387 1_566 S
C126 H130 0.950 . S
C126 C135 1.390 . S
C127 C126 1.387 1_544 S
C127 C129 1.390 . S
H128 C135 0.950 . S
C129 C127 1.390 . S
C129 C131 1.390 . S
C129 H133 0.950 . S
H130 C126 0.950 . S
C131 C129 1.390 . S
C131 C132 1.387 . S
C131 H134 0.950 . S
C132 C131 1.387 . S
C132 C135 1.384 1_544 S
H133 C129 0.950 . S
H134 C131 0.950 . S
C135 C126 1.390 . S
C135 H128 0.950 . S
C135 C132 1.384 1_566 S
C136 C137 1.386 1_655 S
C136 H140 0.950 . S
C136 C145 1.390 . S
C137 C136 1.386 1_455 S
C137 C139 1.389 . S
H138 C145 0.950 . S
C139 C137 1.389 . S
C139 C141 1.390 . S
C139 H143 0.950 . S
H140 C136 0.950 . S
C141 C139 1.390 . S
C141 C142 1.389 . S
C141 H144 0.950 . S
C142 C141 1.389 . S
C142 C145 1.386 1_455 S
H143 C139 0.950 . S
H144 C141 0.950 . S
C145 C136 1.390 . S
C145 H138 0.950 . S
C145 C142 1.386 1_655 S
C107 C22 1.503 . S
C112 C92 1.499 1_455 S
C117 C29 1.498 1_545 S
C122 C91 1.503 . S
C127 C39 1.498 1_544 S
C132 C38 1.505 . S
C137 C82 1.500 1_455 S
C142 C75 1.500 . S
