# Generated by pormake.
# Topology pcu, (6)-cn, num edge types: 1
# Building blocks:
#     Node 0, Type 0, BuildingBlock: CUWYAW_clean_sbu_0, # of connection points: 6
#     Edge 1, Type (0, 0), BuildingBlock: TEMPAE_clean_linker_10, # of connection points: 2
#     Edge 2, Type (0, 0), BuildingBlock: TEMPAE_clean_linker_10, # of connection points: 2
#     Edge 3, Type (0, 0), BuildingBlock: TEMPAE_clean_linker_10, # of connection points: 2
# Relax obj value: 0.000
# Max RMSD: 0.000
# Mean RMSD: 0.000
data_MOF--net-pcu--node1-CUWYAW_clean_sbu_0--edge1-TEMPAE_clean_linker_10
_symmetry_space_group_name_H-M    P1
_symmetry_Int_Tables_number       1
_symmetry_cell_setting            triclinic
loop_
_symmetry_equiv_pos_as_xyz
'x, y, z'
_cell_length_a     25.782913
_cell_length_b     15.682709
_cell_length_c     14.677682
_cell_angle_alpha  92.300389
_cell_angle_beta   97.013091
_cell_angle_gamma 122.41876
loop_
_atom_site_label
_atom_site_type_symbol
_atom_site_fract_x
_atom_site_fract_y
_atom_site_fract_z
_atom_type_partial_charge
C0 C 0.20369 0.11374 0.96867 0.0
Eu1 Eu 0.09207 0.04615 1.00447 0.0
C2 C 0.25241 0.08978 0.98162 0.0
C3 C 0.31116 0.16126 0.03424 0.0
C4 C 0.35919 0.14349 0.04288 0.0
C5 C 0.34991 0.05394 0.99841 0.0
C6 C 0.29063 0.98161 0.94682 0.0
C7 C 0.24247 -0.00079 0.93858 0.0
C8 C 0.05902 0.03363 0.17401 0.0
C9 C 1.01593 0.79887 1.00717 0.0
C10 C 0.83676 0.85142 0.02206 0.0
Eu11 Eu 0.952 0.92385 1.00076 0.0
C12 C 0.79107 0.88154 0.01992 0.0
C13 C 0.73331 0.82166 0.9609 0.0
C14 C 0.6881 0.84543 0.95895 0.0
C15 C 0.69935 0.92958 0.01646 0.0
C16 C 0.7574 -0.01008 0.07553 0.0
C17 C 0.80288 0.96635 0.07711 0.0
C18 C 0.98857 0.94006 0.83303 0.0
C19 C 0.02813 0.16975 1.0058 0.0
O20 O 0.15236 0.05122 0.91 0.0
O21 O 0.19335 0.14781 0.04269 0.0
O22 O 0.109 0.11113 0.15297 0.0
O23 O 0.03203 0.9621 0.10794 0.0
O24 O 0.06654 0.88294 0.99144 0.0
O25 O 0.96614 0.79672 0.02396 0.0
O26 O 0.88378 0.89272 0.09069 0.0
O27 O 0.85273 0.84132 0.94322 0.0
O28 O 0.94225 0.85731 0.85485 0.0
O29 O 1.01215 0.0106 0.89909 0.0
O30 O 0.9808 0.08793 0.03112 0.0
O31 O 0.07377 0.16808 0.97562 0.0
H32 H 0.32023 0.23178 0.06803 0.0
H33 H 0.4037 0.2002 0.08454 0.0
H34 H 0.28175 0.91232 0.91065 0.0
H35 H 0.19782 0.94249 0.89722 0.0
H36 H 0.72283 0.75549 0.91665 0.0
H37 H 0.64372 0.79647 0.91358 0.0
H38 H 0.76785 0.05585 0.12007 0.0
H39 H 0.84704 0.0142 0.12328 0.0
C40 C 0.09669 0.0284 0.33657 0.0
C41 C 0.0493 0.01849 0.27024 0.0
C42 C 0.08846 0.01469 0.42892 0.0
C43 C 0.03211 -0.00656 0.45574 0.0
C44 C 0.98445 0.98482 0.38876 0.0
C45 C 0.99344 -0.00357 0.29643 0.0
C46 C 0.13981 0.02223 0.49759 0.0
C47 C 0.92432 0.96468 0.41486 0.0
C48 C 0.98279 0.87005 0.67395 0.0
C49 C 1.00259 0.9545 0.7382 0.0
C50 C 0.99335 0.88186 0.5823 0.0
C51 C 1.023 0.98029 0.55378 0.0
C52 C 0.04327 0.06592 0.61874 0.0
C53 C 0.03355 0.0521 0.71059 0.0
C54 C 0.97248 0.78897 0.51587 0.0
C55 C 0.07395 0.17186 0.59075 0.0
H56 H 0.13991 0.04548 0.31578 0.0
H57 H 0.9575 -0.00896 0.24525 0.0
H58 H 0.15671 0.08486 0.55409 0.0
H59 H 0.12156 0.95074 0.5297 0.0
H60 H 0.17999 0.03633 0.46503 0.0
H61 H 0.89249 0.96212 0.35491 0.0
H62 H 0.89982 0.89115 0.44362 0.0
H63 H 0.9345 0.02502 0.46962 0.0
H64 H 0.95916 0.79459 0.6955 0.0
H65 H 0.04859 0.11748 0.76016 0.0
H66 H 1.01235 0.79963 0.48465 0.0
H67 H 0.93645 0.77827 0.45852 0.0
H68 H 0.9529 0.71858 0.55007 0.0
H69 H 0.11689 0.19214 0.56336 0.0
H70 H 0.08642 0.23021 0.64936 0.0
H71 H 0.04213 0.1745 0.53442 0.0
C72 C 0.39121 0.94002 0.01103 0.0
C73 C 0.4022 0.03731 1.00411 0.0
C74 C 0.43982 0.92324 0.01447 0.0
C75 C 0.50124 0.00572 0.01146 0.0
C76 C 0.51283 0.1042 1.00536 0.0
C77 C 0.46331 0.1187 1.00143 0.0
C78 C 0.42534 0.81698 0.02084 0.0
C79 C 0.57754 0.19427 1.00197 0.0
C80 C 0.63716 0.97932 0.09818 0.0
C81 C 0.65012 0.95279 0.01532 0.0
C82 C 0.58909 -0.00292 0.09801 0.0
C83 C 0.55313 -0.01139 0.01292 0.0
C84 C 0.56655 0.96323 0.92902 0.0
C85 C 0.6147 0.94557 0.93125 0.0
C86 C 0.57629 0.02372 0.18902 0.0
C87 C 0.52977 0.95414 0.83674 0.0
H88 H 0.34453 0.87677 0.01453 0.0
H89 H 0.47241 0.19387 0.99452 0.0
H90 H 0.43775 0.79143 0.96029 0.0
H91 H 0.45388 0.81666 0.08369 0.0
H92 H 0.37533 0.76118 0.02333 0.0
H93 H 0.57921 0.26642 0.99981 0.0
H94 H 0.61053 0.20327 0.06343 0.0
H95 H 0.59416 0.18113 0.93991 0.0
H96 H 0.66373 0.98395 0.16352 0.0
H97 H 0.62488 0.92653 0.8668 0.0
H98 H 0.52796 0.9653 0.19754 0.0
H99 H 0.58005 0.09762 0.18978 0.0
H100 H 0.60901 0.02893 0.24907 0.0
H101 H 0.47976 0.89435 0.83385 0.0
H102 H 0.54641 0.93487 0.77773 0.0
H103 H 0.53311 0.0268 0.82822 0.0
C104 C 0.0718 0.71333 0.04727 0.0
C105 C 1.01685 0.70621 0.00957 0.0
C106 C 0.07412 0.62622 0.04928 0.0
C107 C 1.02083 0.53058 0.00947 0.0
C108 C 0.96538 0.52329 0.97024 0.0
C109 C 0.96372 0.6113 0.97233 0.0
C110 C 0.13339 0.63647 0.09448 0.0
C111 C 0.90833 0.42304 0.92453 0.0
C112 C 0.04925 0.3259 0.93794 0.0
C113 C 0.02794 0.26322 0.00776 0.0
C114 C 0.04612 0.41242 0.93666 0.0
C115 C 1.02324 0.43821 0.00879 0.0
C116 C 1.003 0.37611 0.0806 0.0
C117 C 1.00453 0.2881 0.07824 0.0
C118 C 0.06628 0.47514 0.85745 0.0
C119 C 0.98027 0.40305 0.16023 0.0
H120 H 0.11275 0.78702 0.07663 0.0
H121 H 0.9215 0.60645 0.94235 0.0
H122 H 0.12327 0.5854 0.14915 0.0
H123 H 0.15266 0.61276 0.04273 0.0
H124 H 0.16962 0.71571 0.12599 0.0
H125 H 0.86964 0.43106 0.89474 0.0
H126 H 0.92037 0.3906 0.8684 0.0
H127 H 0.89156 0.36752 0.97538 0.0
H128 H 0.06661 0.30556 0.88288 0.0
H129 H 0.98836 0.23949 0.13243 0.0
H130 H 0.106 0.55374 0.88383 0.0
H131 H 0.02756 0.48068 0.82309 0.0
H132 H 0.08054 0.44229 0.80496 0.0
H133 H 1.01652 0.48084 0.19486 0.0
H134 H 0.96864 0.34884 0.21242 0.0
H135 H 0.93817 0.4034 0.13421 0.0
loop_
_geom_bond_atom_site_label_1
_geom_bond_atom_site_label_2
_geom_bond_distance
_geom_bond_site_symmetry_2
_ccdc_geom_bond_type
C0 Eu1 2.835 . S
C0 C2 1.500 . S
C0 O20 1.257 1_554 S
C0 O21 1.260 . S
Eu1 C0 2.835 . S
Eu1 O20 2.473 1_554 S
Eu1 O21 2.480 . S
Eu1 O22 2.430 . S
Eu1 O23 2.670 1_455 S
Eu1 O24 2.394 1_545 S
Eu1 O29 2.355 1_544 S
Eu1 O31 2.374 . S
C2 C0 1.500 . S
C2 C3 1.377 . S
C2 C7 1.377 1_544 S
C3 C2 1.377 . S
C3 C4 1.395 . S
C3 H32 0.931 . S
C4 C3 1.395 . S
C4 C5 1.388 . S
C4 H33 0.931 . S
C5 C4 1.388 . S
C5 C6 1.396 1_544 S
C6 C5 1.396 1_566 S
C6 C7 1.378 . S
C6 H34 0.931 . S
C7 C2 1.377 1_566 S
C7 C6 1.378 . S
C7 H35 0.931 . S
C8 O22 1.259 . S
C8 O23 1.270 1_455 S
C9 O24 1.251 1_655 S
C9 O25 1.251 1_554 S
C10 Eu11 2.835 . S
C10 C12 1.500 . S
C10 O26 1.257 1_556 S
C10 O27 1.260 . S
Eu11 C10 2.835 . S
Eu11 O23 2.355 1_566 S
Eu11 O25 2.374 . S
Eu11 O26 2.473 1_556 S
Eu11 O27 2.480 . S
Eu11 O28 2.430 . S
Eu11 O29 2.670 1_655 S
Eu11 O30 2.394 1_565 S
C12 C10 1.500 . S
C12 C13 1.377 . S
C12 C17 1.377 1_566 S
C13 C12 1.377 . S
C13 C14 1.395 . S
C13 H36 0.931 . S
C14 C13 1.395 . S
C14 C15 1.387 . S
C14 H37 0.931 . S
C15 C14 1.387 . S
C15 C16 1.396 1_566 S
C16 C15 1.396 1_544 S
C16 C17 1.378 . S
C16 H38 0.931 . S
C17 C12 1.377 1_544 S
C17 C16 1.378 . S
C17 H39 0.931 . S
C18 O28 1.259 . S
C18 O29 1.270 1_655 S
C19 O30 1.251 1_455 S
C19 O31 1.251 1_556 S
O20 C0 1.257 1_556 S
O20 Eu1 2.473 1_556 S
O21 C0 1.260 . S
O21 Eu1 2.480 . S
O22 Eu1 2.430 . S
O22 C8 1.259 . S
O23 Eu1 2.670 1_655 S
O23 C8 1.270 1_655 S
O23 Eu11 2.355 1_544 S
O24 Eu1 2.394 1_565 S
O24 C9 1.251 1_455 S
O25 C9 1.251 1_556 S
O25 Eu11 2.374 . S
O26 C10 1.257 1_554 S
O26 Eu11 2.473 1_554 S
O27 C10 1.260 . S
O27 Eu11 2.480 . S
O28 Eu11 2.430 . S
O28 C18 1.259 . S
O29 Eu1 2.355 1_566 S
O29 Eu11 2.670 1_455 S
O29 C18 1.270 1_455 S
O30 Eu11 2.394 1_545 S
O30 C19 1.251 1_655 S
O31 Eu1 2.374 . S
O31 C19 1.251 1_554 S
H32 C3 0.931 . S
H33 C4 0.931 . S
H34 C6 0.931 . S
H35 C7 0.931 . S
H36 C13 0.931 . S
H37 C14 0.931 . S
H38 C16 0.931 . S
H39 C17 0.931 . S
C40 C41 1.391 . S
C40 C42 1.394 . S
C40 H56 0.931 . S
C41 C40 1.391 . S
C41 C45 1.376 1_455 S
C42 C40 1.394 . S
C42 C43 1.369 . S
C42 C46 1.531 . S
C43 C42 1.369 . S
C43 C44 1.410 1_455 S
C43 C51 1.503 . S
C44 C43 1.410 1_655 S
C44 C45 1.392 . S
C44 C47 1.511 . S
C45 C41 1.376 1_655 S
C45 C44 1.392 . S
C45 H57 0.929 . S
C46 C42 1.531 . S
C46 H58 0.960 . S
C46 H59 0.962 1_545 S
C46 H60 0.960 . S
C47 C44 1.511 . S
C47 H61 0.961 1_545 S
C47 H62 0.961 1_545 S
C47 H63 0.961 . S
C48 C49 1.374 1_665 S
C48 C50 1.363 . S
C48 H64 0.931 . S
C49 C48 1.374 1_445 S
C49 C53 1.409 . S
C50 C48 1.363 . S
C50 C51 1.370 1_665 S
C50 C54 1.524 . S
C51 C43 1.503 . S
C51 C50 1.370 1_445 S
C51 C52 1.403 . S
C52 C51 1.403 . S
C52 C53 1.404 . S
C52 C55 1.539 . S
C53 C49 1.409 . S
C53 C52 1.404 . S
C53 H65 0.930 . S
C54 C50 1.524 . S
C54 H66 0.956 . S
C54 H67 0.961 . S
C54 H68 0.961 . S
C55 C52 1.539 . S
C55 H69 0.958 . S
C55 H70 0.961 . S
C55 H71 0.960 . S
H56 C40 0.931 . S
H57 C45 0.929 . S
H58 C46 0.960 . S
H59 C46 0.962 1_565 S
H60 C46 0.960 . S
H61 C47 0.961 1_565 S
H62 C47 0.961 1_565 S
H63 C47 0.961 . S
H64 C48 0.931 . S
H65 C53 0.930 . S
H66 C54 0.956 . S
H67 C54 0.961 . S
H68 C54 0.961 . S
H69 C55 0.958 . S
H70 C55 0.961 . S
H71 C55 0.960 . S
C72 C73 1.391 . S
C72 C74 1.394 . S
C72 H88 0.931 . S
C73 C72 1.391 . S
C73 C77 1.376 1_565 S
C74 C72 1.394 . S
C74 C75 1.369 . S
C74 C78 1.531 . S
C75 C74 1.369 . S
C75 C76 1.410 1_565 S
C75 C83 1.503 . S
C76 C75 1.410 1_545 S
C76 C77 1.392 . S
C76 C79 1.511 . S
C77 C73 1.376 1_545 S
C77 C76 1.392 . S
C77 H89 0.929 . S
C78 C74 1.531 . S
C78 H90 0.960 . S
C78 H91 0.962 1_556 S
C78 H92 0.960 . S
C79 C76 1.511 . S
C79 H93 0.961 . S
C79 H94 0.961 . S
C79 H95 0.961 . S
C80 C81 1.370 1_554 S
C80 C82 1.363 . S
C80 H96 0.931 . S
C81 C80 1.370 1_556 S
C81 C85 1.409 1_545 S
C82 C80 1.363 . S
C82 C83 1.370 1_544 S
C82 C86 1.524 . S
C83 C75 1.503 . S
C83 C82 1.370 1_566 S
C83 C84 1.403 . S
C84 C83 1.403 . S
C84 C85 1.404 . S
C84 C87 1.539 . S
C85 C81 1.409 1_565 S
C85 C84 1.404 . S
C85 H97 0.930 . S
C86 C82 1.524 . S
C86 H98 0.956 1_545 S
C86 H99 0.961 . S
C86 H100 0.961 . S
C87 C84 1.539 . S
C87 H101 0.958 . S
C87 H102 0.961 1_565 S
C87 H103 0.960 1_565 S
H88 C72 0.931 . S
H89 C77 0.929 . S
H90 C78 0.960 . S
H91 C78 0.962 1_554 S
H92 C78 0.960 . S
H93 C79 0.961 . S
H94 C79 0.961 . S
H95 C79 0.961 . S
H96 C80 0.931 . S
H97 C85 0.930 . S
H98 C86 0.956 1_565 S
H99 C86 0.961 . S
H100 C86 0.961 . S
H101 C87 0.958 . S
H102 C87 0.961 1_545 S
H103 C87 0.960 1_545 S
C104 C105 1.391 1_455 S
C104 C106 1.394 . S
C104 H120 0.931 . S
C105 C104 1.391 1_655 S
C105 C109 1.376 1_554 S
C106 C104 1.394 . S
C106 C107 1.369 1_455 S
C106 C110 1.531 . S
C107 C106 1.369 1_655 S
C107 C108 1.410 1_554 S
C107 C115 1.503 . S
C108 C107 1.410 1_556 S
C108 C109 1.392 . S
C108 C111 1.511 . S
C109 C105 1.376 1_556 S
C109 C108 1.392 . S
C109 H121 0.929 . S
C110 C106 1.531 . S
C110 H122 0.960 . S
C110 H123 0.962 . S
C110 H124 0.960 . S
C111 C108 1.511 . S
C111 H125 0.961 . S
C111 H126 0.961 . S
C111 H127 0.961 . S
C112 C113 1.370 1_456 S
C112 C114 1.363 . S
C112 H128 0.931 . S
C113 C112 1.370 1_654 S
C113 C117 1.408 . S
C114 C112 1.363 . S
C114 C115 1.370 1_456 S
C114 C118 1.524 . S
C115 C107 1.503 . S
C115 C114 1.370 1_654 S
C115 C116 1.403 . S
C116 C115 1.403 . S
C116 C117 1.404 . S
C116 C119 1.539 . S
C117 C113 1.408 . S
C117 C116 1.404 . S
C117 H129 0.930 . S
C118 C114 1.524 . S
C118 H130 0.956 . S
C118 H131 0.961 . S
C118 H132 0.961 . S
C119 C116 1.539 . S
C119 H133 0.958 . S
C119 H134 0.961 . S
C119 H135 0.960 . S
H120 C104 0.931 . S
H121 C109 0.929 . S
H122 C110 0.960 . S
H123 C110 0.962 . S
H124 C110 0.960 . S
H125 C111 0.961 . S
H126 C111 0.961 . S
H127 C111 0.961 . S
H128 C112 0.931 . S
H129 C117 0.930 . S
H130 C118 0.956 . S
H131 C118 0.961 . S
H132 C118 0.961 . S
H133 C119 0.958 . S
H134 C119 0.961 . S
H135 C119 0.960 . S
C41 C8 1.429 . S
C49 C18 1.452 1_445 S
C73 C5 1.492 1_566 S
C81 C15 1.492 1_545 S
C105 C9 1.469 . S
C113 C19 1.493 1_654 S
