# Generated by pormake.
# Topology smt, (6)-cn, num edge types: 1
# Building blocks:
#     Node 0, Type 0, BuildingBlock: VOLQOD_clean_sbu_1, # of connection points: 6
#     Node 1, Type 0, BuildingBlock: VOLQOD_clean_sbu_1, # of connection points: 6
#     Node 2, Type 0, BuildingBlock: VOLQOD_clean_sbu_1, # of connection points: 6
#     Node 3, Type 0, BuildingBlock: VOLQOD_clean_sbu_1, # of connection points: 6
#     Node 4, Type 0, BuildingBlock: VOLQOD_clean_sbu_1, # of connection points: 6
#     Node 5, Type 0, BuildingBlock: VOLQOD_clean_sbu_1, # of connection points: 6
#     Edge 6, Type (0, 0), None
#     Edge 7, Type (0, 0), None
#     Edge 8, Type (0, 0), None
#     Edge 9, Type (0, 0), None
#     Edge 10, Type (0, 0), None
#     Edge 11, Type (0, 0), None
#     Edge 12, Type (0, 0), None
#     Edge 13, Type (0, 0), None
#     Edge 14, Type (0, 0), None
#     Edge 15, Type (0, 0), None
#     Edge 16, Type (0, 0), None
#     Edge 17, Type (0, 0), None
#     Edge 18, Type (0, 0), None
#     Edge 19, Type (0, 0), None
#     Edge 20, Type (0, 0), None
#     Edge 21, Type (0, 0), None
#     Edge 22, Type (0, 0), None
#     Edge 23, Type (0, 0), None
# Relax obj value: 0.336
# Max RMSD: 0.250
# Mean RMSD: 0.250
data_MOF--net-smt--node1-VOLQOD_clean_sbu_1--edge1-none
_symmetry_space_group_name_H-M    P1
_symmetry_Int_Tables_number       1
_symmetry_cell_setting            triclinic
loop_
_symmetry_equiv_pos_as_xyz
'x, y, z'
_cell_length_a     18.830231
_cell_length_b     18.830574
_cell_length_c     13.982273
_cell_angle_alpha  89.999559
_cell_angle_beta   90.000199
_cell_angle_gamma 120.00083
loop_
_atom_site_label
_atom_site_type_symbol
_atom_site_fract_x
_atom_site_fract_y
_atom_site_fract_z
_atom_type_partial_charge
O0 O 0.46675 0.97258 0.13066 0.0
Zn1 Zn 0.50505 0.04438 0.0111 0.0
O2 O 0.4325 0.0872 0.00015 0.0
Zn3 Zn 0.38573 0.07458 0.87761 0.0
Zn4 Zn 0.34724 0.04293 0.09299 0.0
Zn5 Zn 0.4911 0.19793 0.02214 0.0
O6 O 0.41476 0.18822 0.82191 0.0
O7 O 0.53405 0.25038 0.89899 0.0
O8 O 0.51414 -0.00235 0.88003 0.0
O9 O 0.44582 0.04147 0.79052 0.0
O10 O 0.2719 0.96997 0.88285 0.0
O11 O 0.26145 0.93739 0.03786 0.0
O12 O 0.3029 0.1207 0.11513 0.0
O13 O 0.61916 0.13226 0.05158 0.0
O14 O 0.41293 0.23531 0.06587 0.0
O15 O 0.58602 0.22273 0.10698 0.0
C16 C 0.43598 0.98212 0.20847 0.0
C17 C 0.48885 0.24775 0.8303 0.0
C18 C 0.2374 0.91892 0.95178 0.0
C19 C 0.49111 0.00968 0.79819 0.0
C20 C 0.33919 0.19717 0.09623 0.0
C21 C 0.63576 0.19534 0.10122 0.0
O22 O 0.39377 0.01814 0.21002 0.0
O23 O 0.47641 0.47564 0.29733 0.0
Zn24 Zn 0.4429 0.51393 0.17776 0.0
O25 O 0.32753 0.44137 0.16682 0.0
Zn26 Zn 0.29338 0.3946 0.04428 0.0
Zn27 Zn 0.28654 0.35613 0.25967 0.0
Zn28 Zn 0.27539 0.49997 0.18879 0.0
O29 O 0.20877 0.42362 -0.01143 0.0
O30 O 0.26591 0.54292 0.06563 0.0
O31 O 0.49873 0.52303 0.04669 0.0
O32 O 0.38659 0.45468 0.95719 0.0
O33 O 0.28414 0.28075 0.04953 0.0
O34 O 0.30626 0.2703 0.20456 0.0
O35 O 0.16443 0.3118 0.28182 0.0
O36 O 0.46913 0.62804 0.21824 0.0
O37 O 0.15984 0.42181 0.23251 0.0
O38 O 0.34552 0.5949 0.27363 0.0
C39 C 0.4361 0.44487 0.37514 0.0
C40 C 0.22333 0.49771 -0.00305 0.0
C41 C 0.30062 0.24623 0.11849 0.0
C42 C 0.46366 0.49998 0.96486 0.0
C43 C 0.12424 0.34808 0.26289 0.0
C44 C 0.42265 0.64464 0.26787 0.0
O45 O 0.35787 0.40266 0.37669 0.0
O46 O -0.01701 0.48528 0.464 0.0
Zn47 Zn 0.91119 0.45178 0.34444 0.0
O48 O 0.86838 0.33641 0.33349 0.0
Zn49 Zn 0.88101 0.30227 0.21095 0.0
Zn50 Zn 0.91264 0.29542 0.42634 0.0
Zn51 Zn 0.75765 0.28428 0.35547 0.0
O52 O 0.76736 0.21766 0.15526 0.0
O53 O 0.70521 0.2748 0.23232 0.0
O54 O 0.95793 0.50761 0.21337 0.0
O55 O 0.91412 0.39547 0.12386 0.0
O56 O -0.01439 0.29303 0.2162 0.0
O57 O 0.01818 0.31514 0.37123 0.0
O58 O 0.83486 0.17332 0.44848 0.0
O59 O 0.82332 0.47802 0.38491 0.0
O60 O 0.72025 0.16873 0.39919 0.0
O61 O 0.73285 0.35441 0.44032 0.0
C62 C -0.02655 0.44497 0.54181 0.0
C63 C 0.70784 0.23222 0.16363 0.0
C64 C 0.03662 0.30951 0.28515 0.0
C65 C 0.9459 0.47254 0.13153 0.0
C66 C 0.75839 0.13313 0.42956 0.0
C67 C 0.76024 0.43153 0.43455 0.0
O68 O 0.93743 0.36675 0.54336 0.0
O69 O 0.47993 -0.00812 0.63066 0.0
Zn70 Zn 0.44163 0.92008 0.5111 0.0
O71 O 0.51419 0.87727 0.50015 0.0
Zn72 Zn 0.56096 0.88989 0.37761 0.0
Zn73 Zn 0.59943 0.92152 0.593 0.0
Zn74 Zn 0.45559 0.76653 0.52212 0.0
O75 O 0.53193 0.77625 0.3219 0.0
O76 O 0.41263 0.71409 0.39896 0.0
O77 O 0.43253 0.96681 0.38003 0.0
O78 O 0.50088 0.92301 0.29052 0.0
O79 O 0.6748 -0.0055 0.38285 0.0
O80 O 0.68526 0.02706 0.53789 0.0
O81 O 0.64377 0.84374 0.61515 0.0
O82 O 0.32752 0.8322 0.55158 0.0
O83 O 0.53376 0.72914 0.56583 0.0
O84 O 0.36066 0.74172 0.60696 0.0
C85 C 0.51071 -0.01765 0.70847 0.0
C86 C 0.45783 0.71672 0.33027 0.0
C87 C 0.70933 0.0455 0.45181 0.0
C88 C 0.45557 0.95478 0.29819 0.0
C89 C 0.60749 0.76728 0.59622 0.0
C90 C 0.31092 0.76911 0.6012 0.0
O91 O 0.55291 0.94632 0.71003 0.0
O92 O 0.47028 0.48882 0.79733 0.0
Zn93 Zn 0.50379 0.45053 0.67777 0.0
O94 O 0.61916 0.52309 0.66682 0.0
Zn95 Zn 0.6533 0.56986 0.54428 0.0
Zn96 Zn 0.66015 0.60833 0.75967 0.0
Zn97 Zn 0.67129 0.46449 0.6888 0.0
O98 O 0.73791 0.54082 0.48858 0.0
O99 O 0.68077 0.42152 0.56565 0.0
O100 O 0.44796 0.44143 0.5467 0.0
O101 O 0.5601 0.50977 0.45718 0.0
O102 O 0.66254 0.68369 0.54952 0.0
O103 O 0.64043 0.69415 0.70455 0.0
O104 O 0.78226 0.65266 0.78182 0.0
O105 O 0.47756 0.33642 0.71825 0.0
O106 O 0.78685 0.54265 0.73252 0.0
O107 O 0.60117 0.36956 0.77365 0.0
C108 C 0.51059 0.5196 0.87514 0.0
C109 C 0.72335 0.46673 0.49696 0.0
C110 C 0.64606 0.71822 0.61847 0.0
C111 C 0.48303 0.46447 0.46486 0.0
C112 C 0.82244 0.61638 0.7629 0.0
C113 C 0.52404 0.31982 0.76787 0.0
O114 O 0.58882 0.5618 0.87669 0.0
O115 O 0.96368 0.47916 0.964 0.0
Zn116 Zn 0.03547 0.51265 0.84444 0.0
O117 O 0.07829 0.62802 0.83349 0.0
Zn118 Zn 0.06567 0.66217 0.71095 0.0
Zn119 Zn 0.03405 0.66902 0.92634 0.0
Zn120 Zn 0.18903 0.68014 0.85543 0.0
O121 O 0.17932 0.74678 0.65525 0.0
O122 O 0.24145 0.6896 0.73227 0.0
O123 O -0.01126 0.45683 0.71337 0.0
O124 O 0.03255 0.56897 0.62386 0.0
O125 O 0.96108 0.67142 0.7162 0.0
O126 O 0.92851 0.64932 0.87123 0.0
O127 O 0.11185 0.79113 0.94848 0.0
O128 O 0.12335 0.48641 0.88492 0.0
O129 O 0.22643 0.7957 0.89913 0.0
O130 O 0.21384 0.61003 0.94028 0.0
C131 C 0.97322 0.51946 0.04181 0.0
C132 C 0.23884 0.73221 0.6636 0.0
C133 C 0.91007 0.65495 0.78516 0.0
C134 C 0.00078 0.4919 0.63153 0.0
C135 C 0.18831 0.8313 0.92952 0.0
C136 C 0.18645 0.5329 0.93452 0.0
O137 O 0.00925 0.59769 0.04336 0.0
loop_
_geom_bond_atom_site_label_1
_geom_bond_atom_site_label_2
_geom_bond_distance
_geom_bond_site_symmetry_2
_ccdc_geom_bond_type
O0 Zn1 1.953 1_565 S
O0 C16 1.225 . S
Zn1 O0 1.953 1_545 S
Zn1 O2 1.949 . S
Zn1 O8 1.919 1_554 S
Zn1 O13 1.924 . S
O2 Zn1 1.949 . S
O2 Zn3 1.923 1_554 S
O2 Zn4 1.950 . S
O2 Zn5 1.945 . S
Zn3 O2 1.923 1_556 S
Zn3 O6 1.933 . S
Zn3 O9 1.941 . S
Zn3 O10 1.965 1_545 S
Zn4 O2 1.950 . S
Zn4 O11 1.938 1_545 S
Zn4 O12 1.906 . S
Zn4 O22 1.953 1_545 S
Zn5 O2 1.945 . S
Zn5 O7 1.932 1_554 S
Zn5 O14 1.977 . S
Zn5 O15 1.910 . S
O6 Zn3 1.933 . S
O6 C17 1.226 . S
O7 Zn5 1.932 1_556 S
O7 C17 1.307 . S
O8 Zn1 1.919 1_556 S
O8 C19 1.253 . S
O9 Zn3 1.941 . S
O9 C19 1.283 . S
O10 Zn3 1.965 1_565 S
O10 C18 1.303 . S
O11 Zn4 1.938 1_565 S
O11 C18 1.247 1_554 S
O12 Zn4 1.906 . S
O12 C20 1.304 . S
O13 Zn1 1.924 . S
O13 C21 1.311 . S
O14 Zn5 1.977 . S
O14 C20 1.272 . S
O15 Zn5 1.910 . S
O15 C21 1.231 . S
C16 O0 1.225 . S
C16 O22 1.298 . S
C17 O6 1.226 . S
C17 O7 1.307 . S
C18 O10 1.303 . S
C18 O11 1.247 1_556 S
C19 O8 1.253 . S
C19 O9 1.283 . S
C20 O12 1.304 . S
C20 O14 1.272 . S
C21 O13 1.311 . S
C21 O15 1.231 . S
O22 Zn4 1.953 1_565 S
O22 C16 1.298 . S
O23 Zn24 1.953 . S
O23 C39 1.225 . S
Zn24 O23 1.953 . S
Zn24 O25 1.949 . S
Zn24 O31 1.919 . S
Zn24 O36 1.924 . S
O25 Zn24 1.949 . S
O25 Zn26 1.923 . S
O25 Zn27 1.950 . S
O25 Zn28 1.945 . S
Zn26 O25 1.923 . S
Zn26 O29 1.933 1_554 S
Zn26 O32 1.941 1_554 S
Zn26 O33 1.965 . S
Zn27 O25 1.950 . S
Zn27 O34 1.938 . S
Zn27 O35 1.906 . S
Zn27 O45 1.953 . S
Zn28 O25 1.945 . S
Zn28 O30 1.932 . S
Zn28 O37 1.977 . S
Zn28 O38 1.910 . S
O29 Zn26 1.933 1_556 S
O29 C40 1.226 . S
O30 Zn28 1.932 . S
O30 C40 1.307 1_554 S
O31 Zn24 1.919 . S
O31 C42 1.253 . S
O32 Zn26 1.941 1_556 S
O32 C42 1.283 1_556 S
O33 Zn26 1.965 . S
O33 C41 1.303 . S
O34 Zn27 1.938 . S
O34 C41 1.247 . S
O35 Zn27 1.906 . S
O35 C43 1.304 . S
O36 Zn24 1.924 . S
O36 C44 1.311 . S
O37 Zn28 1.977 . S
O37 C43 1.272 . S
O38 Zn28 1.910 . S
O38 C44 1.231 . S
C39 O23 1.225 . S
C39 O45 1.298 . S
C40 O29 1.226 . S
C40 O30 1.307 1_556 S
C41 O33 1.303 . S
C41 O34 1.247 . S
C42 O31 1.253 . S
C42 O32 1.283 1_554 S
C43 O35 1.304 . S
C43 O37 1.272 . S
C44 O36 1.311 . S
C44 O38 1.231 . S
O45 Zn27 1.953 . S
O45 C39 1.298 . S
O46 Zn47 1.953 1_455 S
O46 C62 1.225 . S
Zn47 O46 1.953 1_655 S
Zn47 O48 1.949 . S
Zn47 O54 1.919 . S
Zn47 O59 1.924 . S
O48 Zn47 1.949 . S
O48 Zn49 1.923 . S
O48 Zn50 1.950 . S
O48 Zn51 1.945 . S
Zn49 O48 1.923 . S
Zn49 O52 1.933 . S
Zn49 O55 1.941 . S
Zn49 O56 1.965 1_655 S
Zn50 O48 1.950 . S
Zn50 O57 1.938 1_655 S
Zn50 O58 1.906 . S
Zn50 O68 1.953 1_655 S
Zn51 O48 1.945 . S
Zn51 O53 1.932 . S
Zn51 O60 1.977 . S
Zn51 O61 1.910 . S
O52 Zn49 1.933 . S
O52 C63 1.226 . S
O53 Zn51 1.932 . S
O53 C63 1.307 . S
O54 Zn47 1.919 . S
O54 C65 1.253 . S
O55 Zn49 1.941 . S
O55 C65 1.283 . S
O56 Zn49 1.965 1_455 S
O56 C64 1.303 . S
O57 Zn50 1.938 1_455 S
O57 C64 1.247 . S
O58 Zn50 1.906 . S
O58 C66 1.304 . S
O59 Zn47 1.924 . S
O59 C67 1.311 . S
O60 Zn51 1.977 . S
O60 C66 1.272 . S
O61 Zn51 1.910 . S
O61 C67 1.231 . S
C62 O46 1.225 . S
C62 O68 1.298 . S
C63 O52 1.226 . S
C63 O53 1.307 . S
C64 O56 1.303 . S
C64 O57 1.247 . S
C65 O54 1.253 . S
C65 O55 1.283 . S
C66 O58 1.304 . S
C66 O60 1.272 . S
C67 O59 1.311 . S
C67 O61 1.231 . S
O68 Zn50 1.953 1_455 S
O68 C62 1.298 . S
O69 Zn70 1.953 1_545 S
O69 C85 1.225 . S
Zn70 O69 1.953 1_565 S
Zn70 O71 1.949 . S
Zn70 O77 1.919 . S
Zn70 O82 1.924 . S
O71 Zn70 1.949 . S
O71 Zn72 1.923 . S
O71 Zn73 1.950 . S
O71 Zn74 1.945 . S
Zn72 O71 1.923 . S
Zn72 O75 1.933 . S
Zn72 O78 1.941 . S
Zn72 O79 1.965 1_565 S
Zn73 O71 1.950 . S
Zn73 O80 1.938 1_565 S
Zn73 O81 1.906 . S
Zn73 O91 1.953 1_565 S
Zn74 O71 1.945 . S
Zn74 O76 1.932 . S
Zn74 O83 1.977 . S
Zn74 O84 1.910 . S
O75 Zn72 1.933 . S
O75 C86 1.226 . S
O76 Zn74 1.932 . S
O76 C86 1.307 . S
O77 Zn70 1.919 . S
O77 C88 1.253 . S
O78 Zn72 1.941 . S
O78 C88 1.283 . S
O79 Zn72 1.965 1_545 S
O79 C87 1.303 . S
O80 Zn73 1.938 1_545 S
O80 C87 1.247 . S
O81 Zn73 1.906 . S
O81 C89 1.304 . S
O82 Zn70 1.924 . S
O82 C90 1.311 . S
O83 Zn74 1.977 . S
O83 C89 1.272 . S
O84 Zn74 1.910 . S
O84 C90 1.231 . S
C85 O69 1.225 . S
C85 O91 1.298 . S
C86 O75 1.226 . S
C86 O76 1.307 . S
C87 O79 1.303 . S
C87 O80 1.247 . S
C88 O77 1.253 . S
C88 O78 1.283 . S
C89 O81 1.304 . S
C89 O83 1.272 . S
C90 O82 1.311 . S
C90 O84 1.231 . S
O91 Zn73 1.953 1_545 S
O91 C85 1.298 . S
O92 Zn93 1.953 . S
O92 C108 1.225 . S
Zn93 O92 1.953 . S
Zn93 O94 1.949 . S
Zn93 O100 1.919 . S
Zn93 O105 1.924 . S
O94 Zn93 1.949 . S
O94 Zn95 1.923 . S
O94 Zn96 1.950 . S
O94 Zn97 1.945 . S
Zn95 O94 1.923 . S
Zn95 O98 1.933 . S
Zn95 O101 1.941 . S
Zn95 O102 1.965 . S
Zn96 O94 1.950 . S
Zn96 O103 1.938 . S
Zn96 O104 1.906 . S
Zn96 O114 1.953 . S
Zn97 O94 1.945 . S
Zn97 O99 1.932 . S
Zn97 O106 1.977 . S
Zn97 O107 1.910 . S
O98 Zn95 1.933 . S
O98 C109 1.226 . S
O99 Zn97 1.932 . S
O99 C109 1.307 . S
O100 Zn93 1.919 . S
O100 C111 1.253 . S
O101 Zn95 1.941 . S
O101 C111 1.283 . S
O102 Zn95 1.965 . S
O102 C110 1.303 . S
O103 Zn96 1.938 . S
O103 C110 1.247 . S
O104 Zn96 1.906 . S
O104 C112 1.304 . S
O105 Zn93 1.924 . S
O105 C113 1.311 . S
O106 Zn97 1.977 . S
O106 C112 1.272 . S
O107 Zn97 1.910 . S
O107 C113 1.231 . S
C108 O92 1.225 . S
C108 O114 1.298 . S
C109 O98 1.226 . S
C109 O99 1.307 . S
C110 O102 1.303 . S
C110 O103 1.247 . S
C111 O100 1.253 . S
C111 O101 1.283 . S
C112 O104 1.304 . S
C112 O106 1.272 . S
C113 O105 1.311 . S
C113 O107 1.231 . S
O114 Zn96 1.953 . S
O114 C108 1.298 . S
O115 Zn116 1.953 1_655 S
O115 C131 1.225 1_556 S
Zn116 O115 1.953 1_455 S
Zn116 O117 1.949 . S
Zn116 O123 1.919 . S
Zn116 O128 1.924 . S
O117 Zn116 1.949 . S
O117 Zn118 1.923 . S
O117 Zn119 1.950 . S
O117 Zn120 1.945 . S
Zn118 O117 1.923 . S
Zn118 O121 1.933 . S
Zn118 O124 1.941 . S
Zn118 O125 1.965 1_455 S
Zn119 O117 1.950 . S
Zn119 O126 1.938 1_455 S
Zn119 O127 1.906 . S
Zn119 O137 1.953 1_456 S
Zn120 O117 1.945 . S
Zn120 O122 1.932 . S
Zn120 O129 1.977 . S
Zn120 O130 1.910 . S
O121 Zn118 1.933 . S
O121 C132 1.226 . S
O122 Zn120 1.932 . S
O122 C132 1.307 . S
O123 Zn116 1.919 . S
O123 C134 1.253 . S
O124 Zn118 1.941 . S
O124 C134 1.283 . S
O125 Zn118 1.965 1_655 S
O125 C133 1.303 . S
O126 Zn119 1.938 1_655 S
O126 C133 1.247 . S
O127 Zn119 1.906 . S
O127 C135 1.304 . S
O128 Zn116 1.924 . S
O128 C136 1.311 . S
O129 Zn120 1.977 . S
O129 C135 1.272 . S
O130 Zn120 1.910 . S
O130 C136 1.231 . S
C131 O115 1.225 1_554 S
C131 O137 1.298 . S
C132 O121 1.226 . S
C132 O122 1.307 . S
C133 O125 1.303 . S
C133 O126 1.247 . S
C134 O123 1.253 . S
C134 O124 1.283 . S
C135 O127 1.304 . S
C135 O129 1.272 . S
C136 O128 1.311 . S
C136 O130 1.231 . S
O137 Zn119 1.953 1_654 S
O137 C131 1.298 . S
C18 C135 1.663 . S
C41 C20 1.663 . S
C64 C43 1.663 . S
C66 C87 1.663 . S
C89 C110 1.663 . S
C133 C112 1.663 . S
C16 C88 1.898 . S
C39 C111 1.898 . S
C134 C62 1.898 . S
C85 C19 1.898 . S
C42 C108 1.898 1_554 S
C131 C65 1.898 . S
C17 C113 1.726 . S
C136 C40 1.726 . S
C21 C63 1.726 . S
C86 C44 1.726 . S
C67 C109 1.726 . S
C90 C132 1.726 . S
