# Generated by pormake.
# Topology pcu, (6)-cn, num edge types: 1
# Building blocks:
#     Node 0, Type 0, BuildingBlock: KUMBOL_clean_sbu_0, # of connection points: 6
#     Edge 1, Type (0, 0), BuildingBlock: TEMPAE_clean_linker_10, # of connection points: 2
#     Edge 2, Type (0, 0), BuildingBlock: TEMPAE_clean_linker_10, # of connection points: 2
#     Edge 3, Type (0, 0), BuildingBlock: TEMPAE_clean_linker_10, # of connection points: 2
# Relax obj value: 0.000
# Max RMSD: 0.000
# Mean RMSD: 0.000
data_MOF--net-pcu--node1-KUMBOL_clean_sbu_0--edge1-TEMPAE_clean_linker_10
_symmetry_space_group_name_H-M    P1
_symmetry_Int_Tables_number       1
_symmetry_cell_setting            triclinic
loop_
_symmetry_equiv_pos_as_xyz
'x, y, z'
_cell_length_a     24.687605
_cell_length_b     14.121888
_cell_length_c     15.442691
_cell_angle_alpha  73.627733
_cell_angle_beta   115.81313
_cell_angle_gamma 116.5229
loop_
_atom_site_label
_atom_site_type_symbol
_atom_site_fract_x
_atom_site_fract_y
_atom_site_fract_z
_atom_type_partial_charge
Gd0 Gd 0.10662 0.07165 0.04356 0.0
Gd1 Gd 0.92726 0.93613 0.95182 0.0
C2 C 0.82065 0.57946 0.91919 0.0
C3 C 0.75566 0.5797 0.74736 0.0
C4 C 0.82811 0.74674 0.81736 0.0
C5 C 0.84722 0.6918 0.90726 0.0
C6 C 0.78128 0.69154 0.73653 0.0
C7 C 0.77525 0.52372 0.8386 0.0
C8 C 0.8399 0.52658 0.01189 0.0
C9 C 0.88285 0.58569 0.09019 0.0
N10 N 0.89016 0.74845 0.98367 0.0
C11 C 0.90668 0.69695 0.075 0.0
H12 H 0.93931 0.74076 0.13675 0.0
C13 C 0.82895 0.912 0.72563 0.0
N14 N 0.85241 0.85445 0.81021 0.0
C15 C 0.78358 0.86125 0.64282 0.0
C16 C 0.76006 0.75046 0.64803 0.0
H17 H 0.84625 0.99759 0.7218 0.0
H18 H 0.75454 0.43748 0.84625 0.0
H19 H 0.12723 0.26882 0.86584 0.0
H20 H 0.82115 0.4404 0.02397 0.0
H21 H 0.89739 0.54561 0.16247 0.0
H22 H 0.71985 0.53584 0.68606 0.0
H23 H 0.16374 1.00056 0.28216 0.0
H24 H 0.23002 0.56521 0.98772 0.0
H25 H 0.17935 0.46432 0.84667 0.0
H26 H 0.27495 0.45925 0.32717 0.0
H27 H 0.76639 0.90753 0.57535 0.0
H28 H 0.72431 0.71114 0.58412 0.0
H29 H 0.26359 0.56261 0.1669 0.0
H30 H 0.2226 0.08581 0.43414 0.0
N31 N 0.14934 0.25819 0.01682 0.0
C32 C 0.20776 0.47912 -0.00312 0.0
C33 C 0.17928 0.42248 0.91712 0.0
C34 C 0.20947 0.42373 0.08814 0.0
C35 C 0.18061 0.31162 0.09617 0.0
C36 C 0.14973 0.31149 0.9283 0.0
N37 N 0.16631 0.14605 0.19162 0.0
C38 C 0.18894 0.25369 0.18649 0.0
C39 C 0.2134 0.13391 0.36497 0.0
C40 C 0.23449 0.24426 0.36103 0.0
C41 C 0.1804 0.08597 0.27901 0.0
C42 C 0.22374 0.30587 0.27106 0.0
H43 H 0.2606 0.2813 0.42771 0.0
O44 O 0.18624 0.01602 0.10581 0.0
O45 O 0.0226 0.92142 -0.00088 0.0
O46 O 0.97421 0.92981 0.11617 0.0
O47 O 0.06555 0.08539 0.14184 0.0
O48 O 0.09846 0.9079 0.12348 0.0
O49 O 0.17142 0.1134 0.96712 0.0
O50 O 0.85342 1.00136 0.90989 0.0
O51 O 1.01183 0.08653 0.98612 0.0
O52 O 0.06567 0.07487 0.87912 0.0
O53 O 0.95861 0.94788 0.83115 0.0
O54 O 0.93356 0.10005 0.86988 0.0
O55 O 0.87041 0.89442 0.04134 0.0
C56 C 0.04384 0.85479 0.06216 0.0
C57 C 0.24854 0.4176 0.26309 0.0
C58 C 0.24195 0.47645 0.17181 0.0
C59 C 0.20845 0.06639 0.03595 0.0
C60 C 0.27882 0.12708 0.06512 0.0
C61 C 0.30805 0.21842 0.11263 0.0
C62 C 0.31726 0.09317 0.04503 0.0
C63 C 0.3848 0.15024 0.07204 0.0
C64 C 0.37485 0.27549 0.13953 0.0
C65 C 0.41309 0.24188 0.11945 0.0
C66 C 1.01879 1.0084 0.16922 0.0
C67 C 0.99182 0.15392 0.9227 0.0
C68 C 0.83441 0.94785 0.98196 0.0
C69 C 0.76386 0.89218 0.95753 0.0
C70 C 0.73107 0.7951 0.91762 0.0
C71 C 0.72863 0.93744 0.97257 0.0
C72 C 0.66077 0.88665 0.94659 0.0
C73 C 0.66391 0.74448 0.89163 0.0
C74 C 0.62881 0.78995 0.90561 0.0
C75 C 1.01254 0.01473 0.81484 0.0
H76 H 0.27941 0.24551 0.12904 0.0
H77 H 0.29441 0.02304 0.00745 0.0
H78 H 0.39712 0.34581 0.17643 0.0
H79 H 0.46495 0.28675 0.1423 0.0
H80 H 0.75725 0.75837 0.90663 0.0
H81 H 0.75386 0.01267 0.0032 0.0
H82 H 0.63898 0.66959 0.86075 0.0
H83 H 0.57677 0.74865 0.8858 0.0
C84 C 0.04471 0.10804 0.30081 0.0
C85 C 1.01711 1.01077 0.26282 0.0
C86 C 0.04426 0.11238 0.39003 0.0
C87 C 1.01667 0.01683 0.44337 0.0
C88 C 0.98903 0.91826 0.40552 0.0
C89 C 0.98889 0.91656 0.31496 0.0
C90 C 0.07302 0.21924 0.42687 0.0
C91 C 0.9603 0.81454 0.46119 0.0
C92 C 0.06896 0.0173 0.71391 0.0
C93 C 1.01465 0.01999 0.71978 0.0
C94 C 0.07025 0.01588 0.6243 0.0
C95 C 1.01653 0.01986 0.53871 0.0
C96 C 0.96231 0.02546 0.54433 0.0
C97 C 0.96183 0.02444 0.63508 0.0
C98 C 0.12835 1.00763 0.62142 0.0
C99 C 0.90484 0.03257 0.45455 0.0
H100 H 0.06606 0.18122 0.26011 0.0
H101 H 0.9679 0.84125 0.28592 0.0
H102 H 0.0362 0.23135 0.4408 0.0
H103 H 0.11425 0.22183 0.49654 0.0
H104 H 0.09065 0.28621 0.37497 0.0
H105 H 0.94206 0.74461 0.42259 0.0
H106 H 0.9974 0.8049 0.53314 0.0
H107 H 0.91957 0.81512 0.47392 0.0
H108 H 0.10964 0.01311 0.77978 0.0
H109 H 0.92057 0.02895 0.63959 0.0
H110 H 0.15011 0.07589 0.57429 0.0
H111 H 0.11282 0.93409 0.58977 0.0
H112 H 0.16628 1.00591 0.69445 0.0
H113 H 0.92114 0.10263 0.40406 0.0
H114 H 0.86736 0.0394 0.47131 0.0
H115 H 0.88216 0.96092 0.41625 0.0
C116 C 0.47504 0.188 0.01694 0.0
C117 C 0.42584 0.11414 0.05163 0.0
C118 C 0.51481 0.15531 -0.00122 0.0
C119 C 0.50529 0.04609 0.01593 0.0
C120 C 0.45563 0.97108 0.05072 0.0
C121 C 0.41647 1.00598 0.068 0.0
C122 C 0.56684 0.2376 0.96088 0.0
C123 C 0.44409 0.85395 0.07029 0.0
C124 C 0.56537 0.93944 0.88959 0.0
C125 C 0.623 0.9331 0.96284 0.0
C126 C 0.52728 0.97802 0.90529 0.0
C127 C 0.54691 1.00995 -0.00315 0.0
C128 C 0.60556 1.00511 0.07071 0.0
C129 C 0.64311 0.96731 0.0526 0.0
C130 C 0.4656 0.98339 0.82424 0.0
C131 C 0.62788 0.03761 0.16952 0.0
H132 H 0.48202 0.27153 0.00292 0.0
H133 H 0.37913 0.94864 0.09597 0.0
H134 H 0.61514 0.23643 0.01139 0.0
H135 H 0.55865 0.21839 0.89022 0.0
H136 H 0.56799 0.31936 0.95136 0.0
H137 H 0.4036 0.80593 0.09746 0.0
H138 H 0.43271 0.82345 0.00311 0.0
H139 H 0.48877 0.84179 0.12453 0.0
H140 H 0.55009 0.91418 0.81974 0.0
H141 H 0.68734 0.9616 0.10963 0.0
H142 H 0.4664 0.06547 0.80967 0.0
H143 H 0.42319 0.93029 0.8458 0.0
H144 H 0.45849 0.9595 0.75622 0.0
H145 H 0.6323 0.12082 0.16287 0.0
H146 H 0.67534 0.03139 0.21832 0.0
H147 H 0.59129 0.9863 0.20355 0.0
C148 C 0.07066 0.69216 0.10984 0.0
C149 C 0.03357 0.75016 0.04146 0.0
C150 C 0.06791 0.59935 0.08866 0.0
C151 C 0.023 0.55808 -0.0008 0.0
C152 C 0.98452 0.61588 0.93037 0.0
C153 C 0.99302 0.71361 0.95062 0.0
C154 C 0.11465 0.54851 0.16285 0.0
C155 C 0.93495 0.5773 0.83413 0.0
C156 C 0.02537 0.35183 0.88596 0.0
C157 C 1.0051 0.25866 0.94524 0.0
C158 C 0.03467 0.45074 0.90521 0.0
C159 C 1.01586 0.45458 0.97884 0.0
C160 C 0.99032 0.35812 0.03387 0.0
C161 C 0.98781 0.26255 0.01885 0.0
C162 C 0.06404 0.54925 0.84498 0.0
C163 C 0.96424 0.35316 0.10794 0.0
H164 H 0.10403 0.72151 0.17927 0.0
H165 H 0.9674 0.76103 0.89492 0.0
H166 H 0.09894 0.50935 0.22568 0.0
H167 H 0.11867 0.48919 0.13428 0.0
H168 H 0.16381 0.61065 0.19055 0.0
H169 H 0.95774 0.61258 0.77871 0.0
H170 H 0.91459 0.48926 0.83691 0.0
H171 H 0.89455 0.60513 0.80878 0.0
H172 H 0.03515 0.34788 0.82538 0.0
H173 H 0.96898 0.18935 0.06179 0.0
H174 H 0.08143 0.62422 0.87561 0.0
H175 H 0.0277 0.5517 0.77075 0.0
H176 H 0.10545 0.54571 0.83683 0.0
H177 H 1.00171 0.35147 0.18127 0.0
H178 H 0.92119 0.27851 0.10688 0.0
H179 H 0.95003 0.42137 0.09601 0.0
loop_
_geom_bond_atom_site_label_1
_geom_bond_atom_site_label_2
_geom_bond_distance
_geom_bond_site_symmetry_2
_ccdc_geom_bond_type
Gd0 N31 2.661 1_554 S
Gd0 N37 2.601 . S
Gd0 O44 2.545 . S
Gd0 O45 2.606 1_444 S
Gd0 O47 2.429 1_545 S
Gd0 O48 2.545 1_545 S
Gd0 O49 2.412 . S
Gd0 O51 2.362 . S
Gd0 O52 2.324 1_554 S
Gd0 C59 2.828 . S
Gd1 N10 2.661 1_556 S
Gd1 N14 2.601 . S
Gd1 O45 2.362 . S
Gd1 O46 2.324 1_556 S
Gd1 O50 2.545 . S
Gd1 O51 2.606 1_666 S
Gd1 O53 2.429 1_565 S
Gd1 O54 2.545 1_565 S
Gd1 O55 2.412 . S
Gd1 C68 2.828 . S
C2 C5 1.417 . S
C2 C7 1.431 . S
C2 C8 1.412 1_556 S
C3 C6 1.437 . S
C3 C7 1.317 . S
C3 H22 0.929 . S
C4 C5 1.426 . S
C4 C6 1.413 . S
C4 N14 1.359 . S
C5 C2 1.417 . S
C5 C4 1.426 . S
C5 N10 1.350 1_556 S
C6 C3 1.437 . S
C6 C4 1.413 . S
C6 C16 1.391 . S
C7 C2 1.431 . S
C7 C3 1.317 . S
C7 H18 0.930 . S
C8 C2 1.412 1_554 S
C8 C9 1.355 . S
C8 H20 0.930 . S
C9 C8 1.355 . S
C9 C11 1.402 . S
C9 H21 0.930 . S
N10 Gd1 2.661 1_554 S
N10 C5 1.350 1_554 S
N10 C11 1.307 . S
C11 C9 1.402 . S
C11 N10 1.307 . S
C11 H12 0.930 . S
H12 C11 0.930 . S
C13 N14 1.334 . S
C13 C15 1.394 . S
C13 H17 0.930 . S
N14 Gd1 2.601 . S
N14 C4 1.359 . S
N14 C13 1.334 . S
C15 C13 1.394 . S
C15 C16 1.359 . S
C15 H27 0.930 . S
C16 C6 1.391 . S
C16 C15 1.359 . S
C16 H28 0.929 . S
H17 C13 0.930 . S
H18 C7 0.930 . S
H19 C36 0.930 . S
H20 C8 0.930 . S
H21 C9 0.930 . S
H22 C3 0.929 . S
H23 C41 0.930 . S
H24 C32 0.930 . S
H25 C33 0.930 . S
H26 C57 0.929 . S
H27 C15 0.930 . S
H28 C16 0.929 . S
H29 C58 0.930 . S
H30 C39 0.930 . S
N31 Gd0 2.661 1_556 S
N31 C35 1.350 1_556 S
N31 C36 1.307 . S
C32 H24 0.930 . S
C32 C33 1.355 . S
C32 C34 1.412 1_556 S
C33 H25 0.930 . S
C33 C32 1.355 . S
C33 C36 1.402 . S
C34 C32 1.412 1_554 S
C34 C35 1.417 . S
C34 C58 1.431 . S
C35 N31 1.350 1_554 S
C35 C34 1.417 . S
C35 C38 1.426 . S
C36 H19 0.930 . S
C36 N31 1.307 . S
C36 C33 1.402 . S
N37 Gd0 2.601 . S
N37 C38 1.359 . S
N37 C41 1.334 . S
C38 C35 1.426 . S
C38 N37 1.359 . S
C38 C42 1.413 . S
C39 H30 0.930 . S
C39 C40 1.359 . S
C39 C41 1.394 . S
C40 C39 1.359 . S
C40 C42 1.391 . S
C40 H43 0.929 . S
C41 H23 0.930 . S
C41 N37 1.334 . S
C41 C39 1.394 . S
C42 C38 1.413 . S
C42 C40 1.391 . S
C42 C57 1.437 . S
H43 C40 0.929 . S
O44 Gd0 2.545 . S
O44 C59 1.258 . S
O45 Gd0 2.606 1_666 S
O45 Gd1 2.362 . S
O45 C56 1.284 1_656 S
O46 Gd1 2.324 1_554 S
O46 C66 1.254 1_655 S
O47 Gd0 2.429 1_565 S
O47 C66 1.268 . S
O48 Gd0 2.545 1_565 S
O48 C56 1.250 . S
O49 Gd0 2.412 . S
O49 C59 1.252 . S
O50 Gd1 2.545 . S
O50 C68 1.258 . S
O51 Gd0 2.362 . S
O51 Gd1 2.606 1_444 S
O51 C67 1.284 1_454 S
O52 Gd0 2.324 1_556 S
O52 C75 1.254 1_455 S
O53 Gd1 2.429 1_545 S
O53 C75 1.268 . S
O54 Gd1 2.545 1_545 S
O54 C67 1.250 . S
O55 Gd1 2.412 . S
O55 C68 1.252 . S
C56 O45 1.284 1_454 S
C56 O48 1.250 . S
C57 H26 0.929 . S
C57 C42 1.437 . S
C57 C58 1.317 . S
C58 H29 0.930 . S
C58 C34 1.431 . S
C58 C57 1.317 . S
C59 Gd0 2.828 . S
C59 O44 1.258 . S
C59 O49 1.252 . S
C59 C60 1.497 . S
C60 C59 1.497 . S
C60 C61 1.395 . S
C60 C62 1.380 . S
C61 C60 1.395 . S
C61 C64 1.398 . S
C61 H76 0.930 . S
C62 C60 1.380 . S
C62 C63 1.391 . S
C62 H77 0.930 1_554 S
C63 C62 1.391 . S
C63 C65 1.387 . S
C64 C61 1.398 . S
C64 C65 1.380 . S
C64 H78 0.930 . S
C65 C63 1.387 . S
C65 C64 1.380 . S
C65 H79 0.930 . S
C66 O46 1.254 1_455 S
C66 O47 1.268 . S
C67 O51 1.284 1_656 S
C67 O54 1.250 . S
C68 Gd1 2.828 . S
C68 O50 1.258 . S
C68 O55 1.252 . S
C68 C69 1.497 . S
C69 C68 1.497 . S
C69 C70 1.395 . S
C69 C71 1.380 . S
C70 C69 1.395 . S
C70 C73 1.398 . S
C70 H80 0.930 . S
C71 C69 1.380 . S
C71 C72 1.391 . S
C71 H81 0.930 1_556 S
C72 C71 1.391 . S
C72 C74 1.387 . S
C73 C70 1.398 . S
C73 C74 1.380 . S
C73 H82 0.930 . S
C74 C72 1.387 . S
C74 C73 1.380 . S
C74 H83 0.930 . S
C75 O52 1.254 1_655 S
C75 O53 1.268 . S
H76 C61 0.930 . S
H77 C62 0.930 1_556 S
H78 C64 0.930 . S
H79 C65 0.930 . S
H80 C70 0.930 . S
H81 C71 0.930 1_554 S
H82 C73 0.930 . S
H83 C74 0.930 . S
C84 C85 1.391 1_455 S
C84 C86 1.394 . S
C84 H100 0.931 . S
C85 C84 1.391 1_655 S
C85 C89 1.376 1_545 S
C86 C84 1.394 . S
C86 C87 1.369 1_455 S
C86 C90 1.531 . S
C87 C86 1.369 1_655 S
C87 C88 1.410 1_545 S
C87 C95 1.503 . S
C88 C87 1.410 1_565 S
C88 C89 1.392 . S
C88 C91 1.511 . S
C89 C85 1.376 1_565 S
C89 C88 1.392 . S
C89 H101 0.929 . S
C90 C86 1.531 . S
C90 H102 0.960 . S
C90 H103 0.962 . S
C90 H104 0.960 . S
C91 C88 1.511 . S
C91 H105 0.961 . S
C91 H106 0.961 . S
C91 H107 0.961 . S
C92 C93 1.370 1_465 S
C92 C94 1.363 . S
C92 H108 0.931 . S
C93 C92 1.370 1_645 S
C93 C97 1.408 . S
C94 C92 1.363 . S
C94 C95 1.370 1_465 S
C94 C98 1.524 . S
C95 C87 1.503 . S
C95 C94 1.370 1_645 S
C95 C96 1.403 . S
C96 C95 1.403 . S
C96 C97 1.404 . S
C96 C99 1.539 . S
C97 C93 1.408 . S
C97 C96 1.404 . S
C97 H109 0.930 . S
C98 C94 1.524 . S
C98 H110 0.956 . S
C98 H111 0.961 . S
C98 H112 0.961 . S
C99 C96 1.539 . S
C99 H113 0.958 . S
C99 H114 0.961 . S
C99 H115 0.960 . S
H100 C84 0.931 . S
H101 C89 0.929 . S
H102 C90 0.960 . S
H103 C90 0.962 . S
H104 C90 0.960 . S
H105 C91 0.961 . S
H106 C91 0.961 . S
H107 C91 0.961 . S
H108 C92 0.931 . S
H109 C97 0.930 . S
H110 C98 0.956 . S
H111 C98 0.961 . S
H112 C98 0.961 . S
H113 C99 0.958 . S
H114 C99 0.961 . S
H115 C99 0.960 . S
C116 C117 1.391 1_545 S
C116 C118 1.394 . S
C116 H132 0.931 . S
C117 C116 1.391 1_565 S
C117 C121 1.376 1_554 S
C118 C116 1.394 . S
C118 C119 1.369 1_545 S
C118 C122 1.531 . S
C119 C118 1.369 1_565 S
C119 C120 1.410 1_554 S
C119 C127 1.503 . S
C120 C119 1.410 1_556 S
C120 C121 1.392 . S
C120 C123 1.511 . S
C121 C117 1.376 1_556 S
C121 C120 1.392 . S
C121 H133 0.929 . S
C122 C118 1.531 . S
C122 H134 0.960 . S
C122 H135 0.962 . S
C122 H136 0.960 . S
C123 C120 1.511 . S
C123 H137 0.961 . S
C123 H138 0.961 . S
C123 H139 0.961 . S
C124 C125 1.370 1_546 S
C124 C126 1.363 . S
C124 H140 0.931 . S
C125 C124 1.370 1_564 S
C125 C129 1.408 . S
C126 C124 1.363 . S
C126 C127 1.370 1_546 S
C126 C130 1.524 . S
C127 C119 1.503 . S
C127 C126 1.370 1_564 S
C127 C128 1.403 . S
C128 C127 1.403 . S
C128 C129 1.404 . S
C128 C131 1.539 . S
C129 C125 1.408 . S
C129 C128 1.404 . S
C129 H141 0.930 . S
C130 C126 1.524 . S
C130 H142 0.956 . S
C130 H143 0.961 . S
C130 H144 0.961 . S
C131 C128 1.539 . S
C131 H145 0.958 . S
C131 H146 0.961 . S
C131 H147 0.960 . S
H132 C116 0.931 . S
H133 C121 0.929 . S
H134 C122 0.960 . S
H135 C122 0.962 . S
H136 C122 0.960 . S
H137 C123 0.961 . S
H138 C123 0.961 . S
H139 C123 0.961 . S
H140 C124 0.931 . S
H141 C129 0.930 . S
H142 C130 0.956 . S
H143 C130 0.961 . S
H144 C130 0.961 . S
H145 C131 0.958 . S
H146 C131 0.961 . S
H147 C131 0.960 . S
C148 C149 1.386 1_455 S
C148 C150 1.394 . S
C148 H164 0.931 . S
C149 C148 1.386 1_655 S
C149 C153 1.378 1_554 S
C150 C148 1.394 . S
C150 C151 1.369 . S
C150 C154 1.531 . S
C151 C150 1.369 . S
C151 C152 1.410 1_454 S
C151 C159 1.504 1_455 S
C152 C151 1.410 1_656 S
C152 C153 1.392 . S
C152 C155 1.511 . S
C153 C149 1.378 1_556 S
C153 C152 1.392 . S
C153 H165 0.929 . S
C154 C150 1.531 . S
C154 H166 0.960 . S
C154 H167 0.962 . S
C154 H168 0.960 . S
C155 C152 1.511 . S
C155 H169 0.961 . S
C155 H170 0.961 . S
C155 H171 0.961 1_556 S
C156 C157 1.370 1_456 S
C156 C158 1.363 . S
C156 H172 0.931 . S
C157 C156 1.370 1_654 S
C157 C161 1.413 . S
C158 C156 1.363 . S
C158 C159 1.370 1_456 S
C158 C162 1.524 . S
C159 C151 1.504 1_655 S
C159 C158 1.370 1_654 S
C159 C160 1.403 . S
C160 C159 1.403 . S
C160 C161 1.404 . S
C160 C163 1.539 . S
C161 C157 1.413 . S
C161 C160 1.404 . S
C161 H173 0.930 . S
C162 C158 1.524 . S
C162 H174 0.956 . S
C162 H175 0.961 1_455 S
C162 H176 0.961 . S
C163 C160 1.539 . S
C163 H177 0.958 1_655 S
C163 H178 0.961 . S
C163 H179 0.960 . S
H164 C148 0.931 . S
H165 C153 0.929 . S
H166 C154 0.960 . S
H167 C154 0.962 . S
H168 C154 0.960 . S
H169 C155 0.961 . S
H170 C155 0.961 . S
H171 C155 0.961 1_554 S
H172 C156 0.931 . S
H173 C161 0.930 . S
H174 C162 0.956 . S
H175 C162 0.961 1_655 S
H176 C162 0.961 . S
H177 C163 0.958 1_455 S
H178 C163 0.961 . S
H179 C163 0.960 . S
C85 C66 1.490 1_645 S
C93 C75 1.462 . S
C117 C63 1.322 1_565 S
C125 C72 1.319 1_554 S
C149 C56 1.428 1_655 S
C157 C67 1.431 1_554 S
