# Generated by pormake.
# Topology kag, (6)-cn, num edge types: 1
# Building blocks:
#     Node 0, Type 0, BuildingBlock: LEVNOQ01_clean_sbu_1, # of connection points: 6
#     Node 1, Type 0, BuildingBlock: LEVNOQ01_clean_sbu_1, # of connection points: 6
#     Node 2, Type 0, BuildingBlock: LEVNOQ01_clean_sbu_1, # of connection points: 6
#     Edge 3, Type (0, 0), BuildingBlock: EYOCIG_clean_linker_4, # of connection points: 2
#     Edge 4, Type (0, 0), BuildingBlock: EYOCIG_clean_linker_4, # of connection points: 2
#     Edge 5, Type (0, 0), BuildingBlock: EYOCIG_clean_linker_4, # of connection points: 2
#     Edge 6, Type (0, 0), BuildingBlock: EYOCIG_clean_linker_4, # of connection points: 2
#     Edge 7, Type (0, 0), BuildingBlock: EYOCIG_clean_linker_4, # of connection points: 2
#     Edge 8, Type (0, 0), BuildingBlock: EYOCIG_clean_linker_4, # of connection points: 2
#     Edge 9, Type (0, 0), BuildingBlock: EYOCIG_clean_linker_4, # of connection points: 2
#     Edge 10, Type (0, 0), BuildingBlock: EYOCIG_clean_linker_4, # of connection points: 2
#     Edge 11, Type (0, 0), BuildingBlock: EYOCIG_clean_linker_4, # of connection points: 2
# Relax obj value: 0.110
# Max RMSD: 0.157
# Mean RMSD: 0.150
data_MOF--net-kag--node1-LEVNOQ01_clean_sbu_1--edge1-EYOCIG_clean_linker_4
_symmetry_space_group_name_H-M    P1
_symmetry_Int_Tables_number       1
_symmetry_cell_setting            triclinic
loop_
_symmetry_equiv_pos_as_xyz
'x, y, z'
_cell_length_a     24.862566
_cell_length_b     24.056497
_cell_length_c     12.31006
_cell_angle_alpha  89.932601
_cell_angle_beta   103.8444
_cell_angle_gamma 118.93172
loop_
_atom_site_label
_atom_site_type_symbol
_atom_site_fract_x
_atom_site_fract_y
_atom_site_fract_z
_atom_type_partial_charge
O0 O 0.88446 0.35213 0.92363 0.0
Mg1 Mg 0.89781 0.43374 0.84605 0.0
O2 O 0.97602 0.40068 0.05988 0.0
Mg3 Mg 0.03995 0.50479 0.02319 0.0
O4 O 0.98875 0.47933 0.83291 0.0
O5 O 0.90419 0.43715 0.68214 0.0
O6 O 0.10398 0.60886 0.98647 0.0
O7 O 0.10388 0.46468 0.9864 0.0
Mg8 Mg 0.18209 0.57558 0.20029 0.0
O9 O 0.09116 0.53032 0.21347 0.0
O10 O 0.19573 0.65714 0.12231 0.0
O11 O 0.19541 0.50739 0.12269 0.0
O12 O 0.17573 0.57245 0.36422 0.0
C13 C 0.92235 0.5407 0.01193 0.0
C14 C 0.92259 0.35112 0.01157 0.0
C15 C 0.96526 0.46767 0.72425 0.0
C16 C 0.15759 0.65828 0.03452 0.0
C17 C 0.15728 0.46843 0.03467 0.0
C18 C 0.11467 0.54204 0.32212 0.0
O19 O 0.88422 0.5016 0.92406 0.0
O20 O 0.97593 0.54477 0.05999 0.0
O21 O 0.53734 0.84651 0.01425 0.0
Mg22 Mg 0.47677 0.86173 0.88283 0.0
O23 O 0.57071 0.93591 0.12645 0.0
Mg24 Mg 0.54055 0.00411 0.02251 0.0
O25 O 0.52307 0.953 0.84899 0.0
O26 O 0.48884 0.86889 0.72224 0.0
O27 O 0.51028 0.07225 0.91855 0.0
O28 O 0.64846 0.06661 0.02667 0.0
Mg29 Mg 0.60413 0.14646 0.16208 0.0
O30 O 0.55807 0.0552 0.19608 0.0
O31 O 0.54331 0.16149 0.03089 0.0
O32 O 0.6895 0.15995 0.13428 0.0
O33 O 0.59224 0.13932 0.32278 0.0
C34 C 0.38545 0.88717 0.96939 0.0
C35 C 0.5679 0.8821 0.10825 0.0
C36 C 0.51551 0.93001 0.74789 0.0
C37 C 0.51287 0.12594 0.93684 0.0
C38 C 0.69556 0.12121 0.07544 0.0
C39 C 0.56562 0.0782 0.29716 0.0
O40 O 0.39138 0.84841 0.91033 0.0
O41 O 0.43265 0.94166 0.01835 0.0
O42 O 0.39041 0.51055 0.91114 0.0
Mg43 Mg 0.47583 0.58243 0.88334 0.0
O44 O 0.43137 0.45814 0.01901 0.0
Mg45 Mg 0.53929 0.50346 0.02341 0.0
O46 O 0.52188 0.53716 0.84975 0.0
O47 O 0.48786 0.58718 0.72268 0.0
O48 O 0.6472 0.54884 0.02782 0.0
O49 O 0.50915 0.4052 0.91963 0.0
Mg50 Mg 0.60287 0.42465 0.16337 0.0
O51 O 0.55666 0.46972 0.1971 0.0
O52 O 0.68834 0.49666 0.13594 0.0
O53 O 0.5423 0.34896 0.03201 0.0
O54 O 0.59077 0.41964 0.32394 0.0
C55 C 0.56698 0.65292 0.10871 0.0
C56 C 0.3843 0.4657 0.97008 0.0
C57 C 0.51435 0.55256 0.74855 0.0
C58 C 0.69435 0.54144 0.07688 0.0
C59 C 0.51187 0.35413 0.93791 0.0
C60 C 0.56414 0.45415 0.2982 0.0
O61 O 0.53663 0.65813 0.01455 0.0
O62 O 0.56951 0.60177 0.12714 0.0
C63 C 0.02836 0.49924 0.57119 0.0
C64 C 0.00467 0.48739 0.64867 0.0
C65 C 0.05158 0.51078 0.47521 0.0
C66 C 0.07527 0.52251 0.39772 0.0
C67 C 0.5434 0.01548 0.47026 0.0
C68 C 0.55121 0.03888 0.38493 0.0
C69 C 0.53778 0.99274 0.57482 0.0
C70 C 0.52996 0.96934 0.66014 0.0
C71 C 0.53631 0.51174 0.57564 0.0
C72 C 0.52861 0.52747 0.66091 0.0
C73 C 0.54187 0.49454 0.47115 0.0
C74 C 0.5497 0.47899 0.38589 0.0
C75 C 0.21105 0.40809 0.97758 0.0
C76 C 0.17762 0.4294 0.98947 0.0
C77 C 0.26703 0.40628 0.98032 0.0
C78 C 0.32224 0.42578 0.98518 0.0
C79 C 0.81283 0.179 0.06531 0.0
C80 C 0.75762 0.14329 0.06037 0.0
C81 C 0.86882 0.23684 0.06827 0.0
C82 C 0.90225 0.29163 0.05657 0.0
C83 C 0.61183 0.81899 0.23353 0.0
C84 C 0.59779 0.85774 0.19445 0.0
C85 C 0.61155 0.7601 0.23364 0.0
C86 C 0.59713 0.70719 0.19472 0.0
C87 C 0.86796 0.60025 0.06936 0.0
C88 C 0.90173 0.5794 0.05734 0.0
C89 C 0.81168 0.60144 0.06673 0.0
C90 C 0.75642 0.58154 0.0619 0.0
C91 C 0.21195 0.77234 0.97724 0.0
C92 C 0.17821 0.71769 0.98922 0.0
C93 C 0.26818 0.82984 0.97982 0.0
C94 C 0.32342 0.86524 0.98454 0.0
C95 C 0.46799 0.2473 0.81243 0.0
C96 C 0.48205 0.30002 0.85167 0.0
C97 C 0.46822 0.18867 0.81205 0.0
C98 C 0.48263 0.1501 0.85084 0.0
loop_
_geom_bond_atom_site_label_1
_geom_bond_atom_site_label_2
_geom_bond_distance
_geom_bond_site_symmetry_2
_ccdc_geom_bond_type
O0 Mg1 1.990 . S
O0 C14 1.253 . S
Mg1 O0 1.990 . S
Mg1 O4 2.180 1_655 S
Mg1 O5 2.117 . S
Mg1 O19 2.030 . S
O2 Mg3 2.072 1_655 S
O2 C14 1.260 1_554 S
Mg3 O2 2.072 1_455 S
Mg3 O4 2.099 1_554 S
Mg3 O6 2.079 . S
Mg3 O7 2.072 1_554 S
Mg3 O9 2.099 . S
Mg3 O20 2.079 1_455 S
O4 Mg1 2.180 1_455 S
O4 Mg3 2.099 1_556 S
O4 C15 1.279 . S
O5 Mg1 2.117 . S
O5 C15 1.250 1_655 S
O6 Mg3 2.079 . S
O6 C16 1.264 . S
O7 Mg3 2.072 1_556 S
O7 C17 1.260 1_556 S
Mg8 O9 2.180 . S
Mg8 O10 2.030 . S
Mg8 O11 1.990 . S
Mg8 O12 2.117 . S
O9 Mg3 2.099 . S
O9 Mg8 2.180 . S
O9 C18 1.279 . S
O10 Mg8 2.030 . S
O10 C16 1.248 . S
O11 Mg8 1.990 . S
O11 C17 1.253 . S
O12 Mg8 2.117 . S
O12 C18 1.250 . S
C13 O19 1.248 . S
C13 O20 1.264 1_556 S
C14 O0 1.253 . S
C14 O2 1.260 1_556 S
C15 O4 1.279 . S
C15 O5 1.250 1_455 S
C16 O6 1.264 . S
C16 O10 1.248 . S
C17 O7 1.260 1_554 S
C17 O11 1.253 . S
C18 O9 1.279 . S
C18 O12 1.250 . S
O19 Mg1 2.030 . S
O19 C13 1.248 . S
O20 Mg3 2.079 1_655 S
O20 C13 1.264 1_554 S
O21 Mg22 1.990 . S
O21 C35 1.253 1_556 S
Mg22 O21 1.990 . S
Mg22 O25 2.180 . S
Mg22 O26 2.117 . S
Mg22 O40 2.030 . S
O23 Mg24 2.072 1_565 S
O23 C35 1.260 . S
Mg24 O23 2.072 1_545 S
Mg24 O25 2.099 1_544 S
Mg24 O27 2.079 1_554 S
Mg24 O28 2.072 1_554 S
Mg24 O30 2.099 . S
Mg24 O41 2.079 1_545 S
O25 Mg22 2.180 . S
O25 Mg24 2.099 1_566 S
O25 C36 1.279 . S
O26 Mg22 2.117 . S
O26 C36 1.250 . S
O27 Mg24 2.079 1_556 S
O27 C37 1.264 1_556 S
O28 Mg24 2.072 1_556 S
O28 C38 1.260 1_556 S
Mg29 O30 2.180 . S
Mg29 O31 2.030 . S
Mg29 O32 1.990 . S
Mg29 O33 2.117 . S
O30 Mg24 2.099 . S
O30 Mg29 2.180 . S
O30 C39 1.279 . S
O31 Mg29 2.030 . S
O31 C37 1.248 . S
O32 Mg29 1.990 . S
O32 C38 1.253 . S
O33 Mg29 2.117 . S
O33 C39 1.250 . S
C34 O40 1.248 . S
C34 O41 1.264 1_556 S
C35 O21 1.253 1_554 S
C35 O23 1.260 . S
C36 O25 1.279 . S
C36 O26 1.250 . S
C37 O27 1.264 1_554 S
C37 O31 1.248 . S
C38 O28 1.260 1_554 S
C38 O32 1.253 . S
C39 O30 1.279 . S
C39 O33 1.250 . S
O40 Mg22 2.030 . S
O40 C34 1.248 . S
O41 Mg24 2.079 1_565 S
O41 C34 1.264 1_554 S
O42 Mg43 1.990 . S
O42 C56 1.253 . S
Mg43 O42 1.990 . S
Mg43 O46 2.180 . S
Mg43 O47 2.117 . S
Mg43 O61 2.030 . S
O44 Mg45 2.072 . S
O44 C56 1.260 1_554 S
Mg45 O44 2.072 . S
Mg45 O46 2.099 1_554 S
Mg45 O48 2.079 . S
Mg45 O49 2.072 1_554 S
Mg45 O51 2.099 . S
Mg45 O62 2.079 . S
O46 Mg43 2.180 . S
O46 Mg45 2.099 1_556 S
O46 C57 1.279 . S
O47 Mg43 2.117 . S
O47 C57 1.250 . S
O48 Mg45 2.079 . S
O48 C58 1.264 . S
O49 Mg45 2.072 1_556 S
O49 C59 1.260 1_556 S
Mg50 O51 2.180 . S
Mg50 O52 2.030 . S
Mg50 O53 1.990 . S
Mg50 O54 2.117 . S
O51 Mg45 2.099 . S
O51 Mg50 2.180 . S
O51 C60 1.279 . S
O52 Mg50 2.030 . S
O52 C58 1.248 . S
O53 Mg50 1.990 . S
O53 C59 1.253 . S
O54 Mg50 2.117 . S
O54 C60 1.250 . S
C55 O61 1.248 1_554 S
C55 O62 1.264 . S
C56 O42 1.253 . S
C56 O44 1.260 1_556 S
C57 O46 1.279 . S
C57 O47 1.250 . S
C58 O48 1.264 . S
C58 O52 1.248 . S
C59 O49 1.260 1_554 S
C59 O53 1.253 . S
C60 O51 1.279 . S
C60 O54 1.250 . S
O61 Mg43 2.030 . S
O61 C55 1.248 1_556 S
O62 Mg45 2.079 . S
O62 C55 1.264 . S
C63 C64 1.170 . S
C63 C65 1.380 . S
C64 C63 1.170 . S
C65 C63 1.380 . S
C65 C66 1.170 . S
C66 C65 1.170 . S
C67 C68 1.170 . S
C67 C69 1.380 . S
C68 C67 1.170 . S
C69 C67 1.380 . S
C69 C70 1.170 . S
C70 C69 1.170 . S
C71 C72 1.170 . S
C71 C73 1.380 . S
C72 C71 1.170 . S
C73 C71 1.380 . S
C73 C74 1.170 . S
C74 C73 1.170 . S
C75 C76 1.170 . S
C75 C77 1.380 . S
C76 C75 1.170 . S
C77 C75 1.380 . S
C77 C78 1.170 . S
C78 C77 1.170 . S
C79 C80 1.170 . S
C79 C81 1.380 . S
C80 C79 1.170 . S
C81 C79 1.380 . S
C81 C82 1.170 . S
C82 C81 1.170 . S
C83 C84 1.170 . S
C83 C85 1.380 . S
C84 C83 1.170 . S
C85 C83 1.380 . S
C85 C86 1.170 . S
C86 C85 1.170 . S
C87 C88 1.170 . S
C87 C89 1.380 . S
C88 C87 1.170 . S
C89 C87 1.380 . S
C89 C90 1.170 . S
C90 C89 1.170 . S
C91 C92 1.170 . S
C91 C93 1.380 . S
C92 C91 1.170 . S
C93 C91 1.380 . S
C93 C94 1.170 . S
C94 C93 1.170 . S
C95 C96 1.170 . S
C95 C97 1.380 . S
C96 C95 1.170 . S
C97 C95 1.380 . S
C97 C98 1.170 . S
C98 C97 1.170 . S
C64 C15 1.261 . S
C66 C18 1.318 . S
C68 C39 1.268 . S
C70 C36 1.296 1_545 S
C72 C57 1.311 . S
C74 C60 1.241 . S
C76 C17 1.247 . S
C78 C56 1.270 1_554 S
C80 C38 1.265 . S
C82 C14 1.229 1_554 S
C84 C35 1.182 . S
C86 C55 1.198 . S
C88 C13 1.230 1_554 S
C90 C58 1.196 . S
C92 C16 1.185 . S
C94 C34 1.195 1_554 S
C96 C59 1.224 1_556 S
C98 C37 1.228 1_556 S
