# Generated by pormake.
# Topology upc, (4)-cn, num edge types: 1
# Building blocks:
#     Node 0, Type 0, BuildingBlock: MUDLON_clean_sbu_0, # of connection points: 4
#     Node 1, Type 0, BuildingBlock: MUDLON_clean_sbu_0, # of connection points: 4
#     Node 2, Type 0, BuildingBlock: MUDLON_clean_sbu_0, # of connection points: 4
#     Node 3, Type 0, BuildingBlock: MUDLON_clean_sbu_0, # of connection points: 4
#     Node 4, Type 0, BuildingBlock: MUDLON_clean_sbu_0, # of connection points: 4
#     Node 5, Type 0, BuildingBlock: MUDLON_clean_sbu_0, # of connection points: 4
#     Node 6, Type 0, BuildingBlock: MUDLON_clean_sbu_0, # of connection points: 4
#     Node 7, Type 0, BuildingBlock: MUDLON_clean_sbu_0, # of connection points: 4
#     Node 8, Type 0, BuildingBlock: MUDLON_clean_sbu_0, # of connection points: 4
#     Node 9, Type 0, BuildingBlock: MUDLON_clean_sbu_0, # of connection points: 4
#     Node 10, Type 0, BuildingBlock: MUDLON_clean_sbu_0, # of connection points: 4
#     Node 11, Type 0, BuildingBlock: MUDLON_clean_sbu_0, # of connection points: 4
#     Node 12, Type 0, BuildingBlock: MUDLON_clean_sbu_0, # of connection points: 4
#     Node 13, Type 0, BuildingBlock: MUDLON_clean_sbu_0, # of connection points: 4
#     Node 14, Type 0, BuildingBlock: MUDLON_clean_sbu_0, # of connection points: 4
#     Node 15, Type 0, BuildingBlock: MUDLON_clean_sbu_0, # of connection points: 4
#     Edge 16, Type (0, 0), None
#     Edge 17, Type (0, 0), None
#     Edge 18, Type (0, 0), None
#     Edge 19, Type (0, 0), None
#     Edge 20, Type (0, 0), None
#     Edge 21, Type (0, 0), None
#     Edge 22, Type (0, 0), None
#     Edge 23, Type (0, 0), None
#     Edge 24, Type (0, 0), None
#     Edge 25, Type (0, 0), None
#     Edge 26, Type (0, 0), None
#     Edge 27, Type (0, 0), None
#     Edge 28, Type (0, 0), None
#     Edge 29, Type (0, 0), None
#     Edge 30, Type (0, 0), None
#     Edge 31, Type (0, 0), None
#     Edge 32, Type (0, 0), None
#     Edge 33, Type (0, 0), None
#     Edge 34, Type (0, 0), None
#     Edge 35, Type (0, 0), None
#     Edge 36, Type (0, 0), None
#     Edge 37, Type (0, 0), None
#     Edge 38, Type (0, 0), None
#     Edge 39, Type (0, 0), None
#     Edge 40, Type (0, 0), None
#     Edge 41, Type (0, 0), None
#     Edge 42, Type (0, 0), None
#     Edge 43, Type (0, 0), None
#     Edge 44, Type (0, 0), None
#     Edge 45, Type (0, 0), None
#     Edge 46, Type (0, 0), None
#     Edge 47, Type (0, 0), None
# Relax obj value: 0.263
# Max RMSD: 0.207
# Mean RMSD: 0.207
data_MOF--net-upc--node1-MUDLON_clean_sbu_0--edge1-none
_symmetry_space_group_name_H-M    P1
_symmetry_Int_Tables_number       1
_symmetry_cell_setting            triclinic
loop_
_symmetry_equiv_pos_as_xyz
'x, y, z'
_cell_length_a     17.65461
_cell_length_b     17.655005
_cell_length_c     18.099371
_cell_angle_alpha  89.999831
_cell_angle_beta   89.999032
_cell_angle_gamma 89.999927
loop_
_atom_site_label
_atom_site_type_symbol
_atom_site_fract_x
_atom_site_fract_y
_atom_site_fract_z
_atom_type_partial_charge
Mg0 Mg 0.08479 0.59878 0.2216 0.0
C1 C 0.08202 0.4408 0.2947 0.0
O2 O 0.08227 0.41484 0.22677 0.0
C3 C 0.20124 0.71994 0.20218 0.0
O4 O 0.13958 0.76135 0.19951 0.0
C5 C -0.00437 0.5063 0.10818 0.0
O6 O 0.95314 0.48989 0.16556 0.0
O7 O 0.05052 0.55229 0.11528 0.0
O8 O 0.08694 0.51164 0.30608 0.0
O9 O 0.01777 0.6923 0.2661 0.0
C10 C 0.98413 0.68825 0.32821 0.0
O11 O 0.97053 0.62141 0.35689 0.0
O12 O 0.19616 0.64844 0.2095 0.0
Mg13 Mg 0.87783 0.08479 0.22159 0.0
C14 C 0.03582 0.08202 0.29469 0.0
O15 O 0.06177 0.08225 0.22676 0.0
C16 C 0.75667 0.20124 0.20219 0.0
O17 O 0.71525 0.13957 0.19953 0.0
C18 C 0.97032 -0.00437 0.10818 0.0
O19 O 0.98671 0.95313 0.16556 0.0
O20 O 0.92433 0.05052 0.11528 0.0
O21 O 0.96497 0.08695 0.30607 0.0
O22 O 0.78432 0.01776 0.2661 0.0
C23 C 0.78837 0.98413 0.3282 0.0
O24 O 0.85521 0.97053 0.35688 0.0
O25 O 0.82817 0.19616 0.20949 0.0
Mg26 Mg 0.39183 0.87782 0.2216 0.0
C27 C 0.3946 0.0358 0.29469 0.0
O28 O 0.39436 0.06176 0.22676 0.0
C29 C 0.27539 0.75665 0.20219 0.0
O30 O 0.33705 0.71524 0.19952 0.0
C31 C 0.48099 0.97031 0.10818 0.0
O32 O 0.52349 0.9867 0.16556 0.0
O33 O 0.4261 0.92432 0.11528 0.0
O34 O 0.38967 0.96496 0.30608 0.0
O35 O 0.45887 0.78431 0.2661 0.0
C36 C 0.4925 0.78836 0.3282 0.0
O37 O 0.5061 0.85521 0.35687 0.0
O38 O 0.28046 0.82816 0.2095 0.0
Mg39 Mg 0.59879 0.39183 0.2216 0.0
C40 C 0.4408 0.3946 0.2947 0.0
O41 O 0.41485 0.39436 0.22677 0.0
C42 C 0.71995 0.27538 0.20219 0.0
O43 O 0.76137 0.33705 0.1995 0.0
C44 C 0.50631 0.48098 0.10818 0.0
O45 O 0.4899 0.52347 0.16556 0.0
O46 O 0.5523 0.4261 0.11529 0.0
O47 O 0.51165 0.38968 0.30608 0.0
O48 O 0.69231 0.45885 0.2661 0.0
C49 C 0.68826 0.49249 0.32821 0.0
O50 O 0.62141 0.5061 0.35688 0.0
O51 O 0.64845 0.28046 0.20951 0.0
Mg52 Mg 0.09638 0.89044 0.41983 0.0
C53 C 0.08103 0.04811 0.35352 0.0
O54 O 0.06697 0.06818 0.4219 0.0
C55 C 0.20279 0.75962 0.44393 0.0
O56 O 0.13818 0.72316 0.44702 0.0
C57 C -0.00375 0.97076 0.53632 0.0
O58 O 0.94947 0.98088 0.4809 0.0
O59 O 0.05659 0.93261 0.52685 0.0
O60 O 0.10691 0.98233 0.34073 0.0
O61 O 0.0289 0.80973 0.35636 0.0
C62 C 0.9879 0.75469 0.3774 0.0
O63 O 0.97148 0.74727 0.4478 0.0
O64 O 0.20322 0.83122 0.4352 0.0
Mg65 Mg 0.58617 0.09637 0.41983 0.0
C66 C 0.42851 0.08102 0.35353 0.0
O67 O 0.40843 0.06696 0.4219 0.0
C68 C 0.717 0.20278 0.44393 0.0
O69 O 0.75346 0.13817 0.44702 0.0
C70 C 0.50586 -0.00376 0.53632 0.0
O71 O 0.49574 0.94946 0.4809 0.0
O72 O 0.544 0.05658 0.52686 0.0
O73 O 0.49428 0.1069 0.34073 0.0
O74 O 0.66688 0.0289 0.35636 0.0
C75 C 0.72193 0.98789 0.37739 0.0
O76 O 0.72936 0.97148 0.4478 0.0
O77 O 0.6454 0.20321 0.4352 0.0
Mg78 Mg 0.38026 0.58618 0.41984 0.0
C79 C 0.39558 0.42851 0.35353 0.0
O80 O 0.40963 0.40843 0.4219 0.0
C81 C 0.27385 0.71701 0.44393 0.0
O82 O 0.33846 0.75348 0.44701 0.0
C83 C 0.48038 0.50584 0.53632 0.0
O84 O 0.52715 0.49571 0.4809 0.0
O85 O 0.42004 0.54401 0.52686 0.0
O86 O 0.36972 0.4943 0.34074 0.0
O87 O 0.44773 0.66688 0.35636 0.0
C88 C 0.48874 0.72193 0.37739 0.0
O89 O 0.50516 0.72936 0.4478 0.0
O90 O 0.27342 0.64541 0.43521 0.0
Mg91 Mg 0.89044 0.38024 0.41984 0.0
C92 C 0.04811 0.39558 0.35353 0.0
O93 O 0.06819 0.40963 0.4219 0.0
C94 C 0.75961 0.27384 0.44393 0.0
O95 O 0.72314 0.33845 0.447 0.0
C96 C 0.97077 0.48037 0.53632 0.0
O97 O 0.98089 0.52714 0.4809 0.0
O98 O 0.93261 0.42003 0.52686 0.0
O99 O 0.98233 0.36971 0.34074 0.0
O100 O 0.80974 0.44772 0.35636 0.0
C101 C 0.75469 0.48873 0.3774 0.0
O102 O 0.74726 0.50514 0.4478 0.0
O103 O 0.83121 0.27341 0.43521 0.0
Mg104 Mg 0.89181 0.37786 0.92302 0.0
C105 C -0.00751 0.28839 0.81644 0.0
O106 O 0.00606 0.35523 0.78773 0.0
C107 C 0.98093 0.47038 1.03644 0.0
O108 O 0.02342 0.48678 0.97906 0.0
C109 C 0.77538 0.25667 0.94239 0.0
O110 O 0.83706 0.21527 0.94507 0.0
O111 O 0.78045 0.32818 0.93509 0.0
O112 O 0.95889 0.28436 0.87856 0.0
O113 O 0.88968 0.465 0.83853 0.0
C114 C 0.89455 0.53585 0.84991 0.0
O115 O 0.89428 0.56181 0.91784 0.0
O116 O 0.92605 0.42438 1.02934 0.0
Mg117 Mg 0.09875 0.89179 0.92303 0.0
C118 C 0.18822 -0.00753 0.81645 0.0
O119 O 0.12138 0.00604 0.78774 0.0
C120 C 0.00624 0.98092 1.03644 0.0
O121 O -0.01015 0.02341 0.97907 0.0
C122 C 0.21995 0.77537 0.94239 0.0
O123 O 0.26136 0.83704 0.94505 0.0
O124 O 0.14845 0.78043 0.9351 0.0
O125 O 0.19226 0.95887 0.87857 0.0
O126 O 0.01162 0.88965 0.83854 0.0
C127 C 0.94077 0.89453 0.84991 0.0
O128 O 0.91481 0.89428 0.91784 0.0
O129 O 0.05223 0.92603 1.02934 0.0
Mg130 Mg 0.58482 0.09875 0.92302 0.0
C131 C 0.48414 0.1882 0.81645 0.0
O132 O 0.47056 0.12137 0.78774 0.0
C133 C 0.4957 0.00623 1.03644 0.0
O134 O 0.4532 -0.01017 0.97907 0.0
C135 C 0.70124 0.21995 0.94239 0.0
O136 O 0.63957 0.26135 0.94506 0.0
O137 O 0.69618 0.14844 0.9351 0.0
O138 O 0.51774 0.19225 0.87857 0.0
O139 O 0.58696 0.01161 0.83854 0.0
C140 C 0.58209 0.94076 0.84991 0.0
O141 O 0.58234 0.91481 0.91784 0.0
O142 O 0.55058 0.05222 1.02934 0.0
Mg143 Mg 0.37788 0.5848 0.92302 0.0
C144 C 0.28841 0.48412 0.81644 0.0
O145 O 0.35525 0.47054 0.78774 0.0
C146 C 0.47039 0.49569 1.03644 0.0
O147 O 0.48679 0.45319 0.97907 0.0
C148 C 0.25668 0.70123 0.94239 0.0
O149 O 0.21527 0.63956 0.94507 0.0
O150 O 0.32819 0.69616 0.93509 0.0
O151 O 0.28437 0.51773 0.87856 0.0
O152 O 0.46502 0.58693 0.83853 0.0
C153 C 0.53587 0.58206 0.8499 0.0
O154 O 0.56182 0.58233 0.91783 0.0
O155 O 0.42439 0.55056 1.02934 0.0
Mg156 Mg 0.88028 0.08618 0.72481 0.0
C157 C -0.01128 0.22196 0.76725 0.0
O158 O 0.00512 0.22941 0.69685 0.0
C159 C 0.98039 0.00586 0.60831 0.0
O160 O 0.02716 -0.00428 0.66373 0.0
C161 C 0.77384 0.21699 0.70074 0.0
O162 O 0.83845 0.25347 0.69765 0.0
O163 O 0.77343 0.14539 0.70946 0.0
O164 O 0.94776 0.16688 0.78829 0.0
O165 O 0.86979 -0.00573 0.80389 0.0
C166 C 0.89558 0.92847 0.79107 0.0
O167 O 0.9096 0.90841 0.72268 0.0
O168 O 0.92006 0.04403 0.61777 0.0
Mg169 Mg 0.39044 0.88027 0.72481 0.0
C170 C 0.25465 -0.0113 0.76725 0.0
O171 O 0.2472 0.0051 0.69685 0.0
C172 C 0.47076 0.98038 0.60831 0.0
O173 O 0.48089 0.02714 0.66373 0.0
C174 C 0.25962 0.77383 0.70074 0.0
O175 O 0.22314 0.83843 0.69765 0.0
O176 O 0.33122 0.77342 0.70946 0.0
O177 O 0.30973 0.94774 0.78829 0.0
O178 O 0.48235 0.86978 0.80389 0.0
C179 C 0.54815 0.89557 0.79107 0.0
O180 O 0.56821 0.9096 0.72268 0.0
O181 O 0.43259 0.92004 0.61777 0.0
Mg182 Mg 0.59634 0.39041 0.7248 0.0
C183 C 0.4879 0.25463 0.76725 0.0
O184 O 0.4715 0.24718 0.69685 0.0
C185 C 0.49624 0.47075 0.60831 0.0
O186 O 0.44948 0.4809 0.66374 0.0
C187 C 0.70277 0.25959 0.70074 0.0
O188 O 0.63817 0.22311 0.69766 0.0
O189 O 0.70318 0.33119 0.70945 0.0
O190 O 0.52886 0.30971 0.78829 0.0
O191 O 0.60684 0.48232 0.80388 0.0
C192 C 0.58106 0.54813 0.79106 0.0
O193 O 0.56705 0.56819 0.72267 0.0
O194 O 0.55656 0.43257 0.61777 0.0
Mg195 Mg 0.0862 0.59633 0.7248 0.0
C196 C 0.22198 0.48789 0.76725 0.0
O197 O 0.22943 0.47149 0.69685 0.0
C198 C 0.00587 0.49623 0.60831 0.0
O199 O -0.00427 0.44947 0.66374 0.0
C200 C 0.21702 0.70276 0.70074 0.0
O201 O 0.25351 0.63816 0.69766 0.0
O202 O 0.14542 0.70317 0.70945 0.0
O203 O 0.1669 0.52885 0.78828 0.0
O204 O -0.00571 0.60683 0.80389 0.0
C205 C 0.92848 0.58104 0.79106 0.0
O206 O 0.90842 0.56702 0.72268 0.0
O207 O 0.04405 0.55656 0.61777 0.0
loop_
_geom_bond_atom_site_label_1
_geom_bond_atom_site_label_2
_geom_bond_distance
_geom_bond_site_symmetry_2
_ccdc_geom_bond_type
Mg0 O7 2.141 . S
Mg0 O8 2.048 1_455 S
Mg0 O9 2.048 . S
Mg0 O12 2.141 . S
C1 O2 1.313 . S
C1 O8 1.195 . S
O2 C1 1.313 . S
C3 O4 1.245 . S
C3 O12 1.289 . S
O4 C3 1.245 . S
C5 O6 1.245 1_454 S
C5 O7 1.289 . S
O6 C5 1.245 1_656 S
O7 Mg0 2.141 . S
O7 C5 1.289 . S
O8 Mg0 2.048 1_655 S
O8 C1 1.195 . S
O9 Mg0 2.048 . S
O9 C10 1.195 . S
C10 O9 1.195 . S
C10 O11 1.313 1_455 S
O11 C10 1.313 1_655 S
O12 Mg0 2.141 . S
O12 C3 1.289 . S
Mg13 O20 2.141 . S
Mg13 O21 2.048 1_545 S
Mg13 O22 2.048 . S
Mg13 O25 2.141 . S
C14 O15 1.313 . S
C14 O21 1.195 . S
O15 C14 1.313 . S
C16 O17 1.245 . S
C16 O25 1.289 . S
O17 C16 1.245 . S
C18 O19 1.245 1_544 S
C18 O20 1.289 . S
O19 C18 1.245 1_566 S
O20 Mg13 2.141 . S
O20 C18 1.289 . S
O21 Mg13 2.048 1_565 S
O21 C14 1.195 . S
O22 Mg13 2.048 . S
O22 C23 1.195 . S
C23 O22 1.195 . S
C23 O24 1.313 1_545 S
O24 C23 1.313 1_565 S
O25 Mg13 2.141 . S
O25 C16 1.289 . S
Mg26 O33 2.141 . S
Mg26 O34 2.048 . S
Mg26 O35 2.048 . S
Mg26 O38 2.141 . S
C27 O28 1.313 . S
C27 O34 1.195 . S
O28 C27 1.313 . S
C29 O30 1.245 . S
C29 O38 1.289 . S
O30 C29 1.245 . S
C31 O32 1.245 1_554 S
C31 O33 1.289 . S
O32 C31 1.245 1_556 S
O33 Mg26 2.141 . S
O33 C31 1.289 . S
O34 Mg26 2.048 . S
O34 C27 1.195 . S
O35 Mg26 2.048 . S
O35 C36 1.195 . S
C36 O35 1.195 . S
C36 O37 1.313 . S
O37 C36 1.313 . S
O38 Mg26 2.141 . S
O38 C29 1.289 . S
Mg39 O46 2.141 . S
Mg39 O47 2.048 . S
Mg39 O48 2.048 . S
Mg39 O51 2.141 . S
C40 O41 1.313 . S
C40 O47 1.195 . S
O41 C40 1.313 . S
C42 O43 1.245 . S
C42 O51 1.289 . S
O43 C42 1.245 . S
C44 O45 1.245 1_554 S
C44 O46 1.289 . S
O45 C44 1.245 1_556 S
O46 Mg39 2.141 . S
O46 C44 1.289 . S
O47 Mg39 2.048 . S
O47 C40 1.195 . S
O48 Mg39 2.048 . S
O48 C49 1.195 . S
C49 O48 1.195 . S
C49 O50 1.313 . S
O50 C49 1.313 . S
O51 Mg39 2.141 . S
O51 C42 1.289 . S
Mg52 O59 2.141 . S
Mg52 O60 2.048 1_455 S
Mg52 O61 2.048 . S
Mg52 O64 2.141 . S
C53 O54 1.313 . S
C53 O60 1.195 . S
O54 C53 1.313 . S
C55 O56 1.245 . S
C55 O64 1.289 . S
O56 C55 1.245 . S
C57 O58 1.245 1_455 S
C57 O59 1.289 . S
O58 C57 1.245 1_655 S
O59 Mg52 2.141 . S
O59 C57 1.289 . S
O60 Mg52 2.048 1_655 S
O60 C53 1.195 . S
O61 Mg52 2.048 . S
O61 C62 1.195 . S
C62 O61 1.195 . S
C62 O63 1.313 1_455 S
O63 C62 1.313 1_655 S
O64 Mg52 2.141 . S
O64 C55 1.289 . S
Mg65 O72 2.141 . S
Mg65 O73 2.048 1_545 S
Mg65 O74 2.048 . S
Mg65 O77 2.141 . S
C66 O67 1.313 . S
C66 O73 1.195 . S
O67 C66 1.313 . S
C68 O69 1.245 . S
C68 O77 1.289 . S
O69 C68 1.245 . S
C70 O71 1.245 1_545 S
C70 O72 1.289 . S
O71 C70 1.245 1_565 S
O72 Mg65 2.141 . S
O72 C70 1.289 . S
O73 Mg65 2.048 1_565 S
O73 C66 1.195 . S
O74 Mg65 2.048 . S
O74 C75 1.195 . S
C75 O74 1.195 . S
C75 O76 1.313 1_545 S
O76 C75 1.313 1_565 S
O77 Mg65 2.141 . S
O77 C68 1.289 . S
Mg78 O85 2.141 . S
Mg78 O86 2.048 . S
Mg78 O87 2.048 . S
Mg78 O90 2.141 . S
C79 O80 1.313 . S
C79 O86 1.195 . S
O80 C79 1.313 . S
C81 O82 1.245 . S
C81 O90 1.289 . S
O82 C81 1.245 . S
C83 O84 1.245 . S
C83 O85 1.289 . S
O84 C83 1.245 . S
O85 Mg78 2.141 . S
O85 C83 1.289 . S
O86 Mg78 2.048 . S
O86 C79 1.195 . S
O87 Mg78 2.048 . S
O87 C88 1.195 . S
C88 O87 1.195 . S
C88 O89 1.313 . S
O89 C88 1.313 . S
O90 Mg78 2.141 . S
O90 C81 1.289 . S
Mg91 O98 2.141 . S
Mg91 O99 2.048 . S
Mg91 O100 2.048 . S
Mg91 O103 2.141 . S
C92 O93 1.313 . S
C92 O99 1.195 . S
O93 C92 1.313 . S
C94 O95 1.245 . S
C94 O103 1.289 . S
O95 C94 1.245 . S
C96 O97 1.245 . S
C96 O98 1.289 . S
O97 C96 1.245 . S
O98 Mg91 2.141 . S
O98 C96 1.289 . S
O99 Mg91 2.048 . S
O99 C92 1.195 . S
O100 Mg91 2.048 . S
O100 C101 1.195 . S
C101 O100 1.195 . S
C101 O102 1.313 . S
O102 C101 1.313 . S
O103 Mg91 2.141 . S
O103 C94 1.289 . S
Mg104 O111 2.141 . S
Mg104 O112 2.048 . S
Mg104 O113 2.048 1_655 S
Mg104 O116 2.141 . S
C105 O106 1.313 1_655 S
C105 O112 1.195 . S
O106 C105 1.313 1_455 S
C107 O108 1.245 1_656 S
C107 O116 1.289 . S
O108 C107 1.245 1_454 S
C109 O110 1.245 . S
C109 O111 1.289 . S
O110 C109 1.245 . S
O111 Mg104 2.141 . S
O111 C109 1.289 . S
O112 Mg104 2.048 . S
O112 C105 1.195 . S
O113 Mg104 2.048 1_455 S
O113 C114 1.195 . S
C114 O113 1.195 . S
C114 O115 1.313 . S
O115 C114 1.313 . S
O116 Mg104 2.141 . S
O116 C107 1.289 . S
Mg117 O124 2.141 . S
Mg117 O125 2.048 . S
Mg117 O126 2.048 1_565 S
Mg117 O129 2.141 . S
C118 O119 1.313 1_565 S
C118 O125 1.195 . S
O119 C118 1.313 1_545 S
C120 O121 1.245 1_566 S
C120 O129 1.289 . S
O121 C120 1.245 1_544 S
C122 O123 1.245 . S
C122 O124 1.289 . S
O123 C122 1.245 . S
O124 Mg117 2.141 . S
O124 C122 1.289 . S
O125 Mg117 2.048 . S
O125 C118 1.195 . S
O126 Mg117 2.048 1_545 S
O126 C127 1.195 . S
C127 O126 1.195 . S
C127 O128 1.313 . S
O128 C127 1.313 . S
O129 Mg117 2.141 . S
O129 C120 1.289 . S
Mg130 O137 2.141 . S
Mg130 O138 2.048 . S
Mg130 O139 2.048 . S
Mg130 O142 2.141 . S
C131 O132 1.313 . S
C131 O138 1.195 . S
O132 C131 1.313 . S
C133 O134 1.245 1_556 S
C133 O142 1.289 . S
O134 C133 1.245 1_554 S
C135 O136 1.245 . S
C135 O137 1.289 . S
O136 C135 1.245 . S
O137 Mg130 2.141 . S
O137 C135 1.289 . S
O138 Mg130 2.048 . S
O138 C131 1.195 . S
O139 Mg130 2.048 . S
O139 C140 1.195 . S
C140 O139 1.195 . S
C140 O141 1.313 . S
O141 C140 1.313 . S
O142 Mg130 2.141 . S
O142 C133 1.289 . S
Mg143 O150 2.141 . S
Mg143 O151 2.048 . S
Mg143 O152 2.048 . S
Mg143 O155 2.141 . S
C144 O145 1.313 . S
C144 O151 1.195 . S
O145 C144 1.313 . S
C146 O147 1.245 1_556 S
C146 O155 1.289 . S
O147 C146 1.245 1_554 S
C148 O149 1.245 . S
C148 O150 1.289 . S
O149 C148 1.245 . S
O150 Mg143 2.141 . S
O150 C148 1.289 . S
O151 Mg143 2.048 . S
O151 C144 1.195 . S
O152 Mg143 2.048 . S
O152 C153 1.195 . S
C153 O152 1.195 . S
C153 O154 1.313 . S
O154 C153 1.313 . S
O155 Mg143 2.141 . S
O155 C146 1.289 . S
Mg156 O163 2.141 . S
Mg156 O164 2.048 . S
Mg156 O165 2.048 1_655 S
Mg156 O168 2.141 . S
C157 O158 1.313 1_655 S
C157 O164 1.195 . S
O158 C157 1.313 1_455 S
C159 O160 1.245 1_655 S
C159 O168 1.289 . S
O160 C159 1.245 1_455 S
C161 O162 1.245 . S
C161 O163 1.289 . S
O162 C161 1.245 . S
O163 Mg156 2.141 . S
O163 C161 1.289 . S
O164 Mg156 2.048 . S
O164 C157 1.195 . S
O165 Mg156 2.048 1_455 S
O165 C166 1.195 . S
C166 O165 1.195 . S
C166 O167 1.313 . S
O167 C166 1.313 . S
O168 Mg156 2.141 . S
O168 C159 1.289 . S
Mg169 O176 2.141 . S
Mg169 O177 2.048 . S
Mg169 O178 2.048 1_565 S
Mg169 O181 2.141 . S
C170 O171 1.313 1_565 S
C170 O177 1.195 . S
O171 C170 1.313 1_545 S
C172 O173 1.245 1_565 S
C172 O181 1.289 . S
O173 C172 1.245 1_545 S
C174 O175 1.245 . S
C174 O176 1.289 . S
O175 C174 1.245 . S
O176 Mg169 2.141 . S
O176 C174 1.289 . S
O177 Mg169 2.048 . S
O177 C170 1.195 . S
O178 Mg169 2.048 1_545 S
O178 C179 1.195 . S
C179 O178 1.195 . S
C179 O180 1.313 . S
O180 C179 1.313 . S
O181 Mg169 2.141 . S
O181 C172 1.289 . S
Mg182 O189 2.141 . S
Mg182 O190 2.048 . S
Mg182 O191 2.048 . S
Mg182 O194 2.141 . S
C183 O184 1.313 . S
C183 O190 1.195 . S
O184 C183 1.313 . S
C185 O186 1.245 . S
C185 O194 1.289 . S
O186 C185 1.245 . S
C187 O188 1.245 . S
C187 O189 1.289 . S
O188 C187 1.245 . S
O189 Mg182 2.141 . S
O189 C187 1.289 . S
O190 Mg182 2.048 . S
O190 C183 1.195 . S
O191 Mg182 2.048 . S
O191 C192 1.195 . S
C192 O191 1.195 . S
C192 O193 1.313 . S
O193 C192 1.313 . S
O194 Mg182 2.141 . S
O194 C185 1.289 . S
Mg195 O202 2.141 . S
Mg195 O203 2.048 . S
Mg195 O204 2.048 . S
Mg195 O207 2.141 . S
C196 O197 1.313 . S
C196 O203 1.195 . S
O197 C196 1.313 . S
C198 O199 1.245 . S
C198 O207 1.289 . S
O199 C198 1.245 . S
C200 O201 1.245 . S
C200 O202 1.289 . S
O201 C200 1.245 . S
O202 Mg195 2.141 . S
O202 C200 1.289 . S
O203 Mg195 2.048 . S
O203 C196 1.195 . S
O204 Mg195 2.048 . S
O204 C205 1.195 . S
C205 O204 1.195 . S
C205 O206 1.313 . S
O206 C205 1.313 . S
O207 Mg195 2.141 . S
O207 C198 1.289 . S
C3 C29 2.770 . S
C16 C42 2.770 . S
C55 C81 2.770 . S
C94 C68 2.770 . S
C109 C135 2.770 . S
C148 C122 2.770 . S
C187 C161 2.770 . S
C200 C174 2.770 . S
C92 C1 2.847 . S
C14 C53 2.847 . S
C66 C27 2.847 . S
C40 C79 2.847 . S
C205 C114 2.847 . S
C127 C166 2.847 . S
C140 C179 2.847 . S
C192 C153 2.847 . S
C10 C62 1.203 . S
C23 C75 1.203 . S
C88 C36 1.202 . S
C49 C101 1.202 . S
C157 C105 1.203 . S
C170 C118 1.203 . S
C131 C183 1.202 . S
C144 C196 1.202 . S
C5 C107 2.142 1_454 S
C120 C18 2.142 1_466 S
C31 C133 2.142 1_564 S
C146 C44 2.142 1_556 S
C57 C159 2.142 1_465 S
C70 C172 2.142 1_545 S
C185 C83 2.142 . S
C96 C198 2.142 1_655 S
