# Generated by pormake.
# Topology umo, (4)-cn, num edge types: 1
# Building blocks:
#     Node 0, Type 0, BuildingBlock: NAWXER_clean_sbu_0, # of connection points: 4
#     Node 1, Type 0, BuildingBlock: NAWXER_clean_sbu_0, # of connection points: 4
#     Node 2, Type 0, BuildingBlock: NAWXER_clean_sbu_0, # of connection points: 4
#     Node 3, Type 0, BuildingBlock: NAWXER_clean_sbu_0, # of connection points: 4
#     Node 4, Type 0, BuildingBlock: NAWXER_clean_sbu_0, # of connection points: 4
#     Node 5, Type 0, BuildingBlock: NAWXER_clean_sbu_0, # of connection points: 4
#     Node 6, Type 0, BuildingBlock: NAWXER_clean_sbu_0, # of connection points: 4
#     Node 7, Type 0, BuildingBlock: NAWXER_clean_sbu_0, # of connection points: 4
#     Node 8, Type 0, BuildingBlock: NAWXER_clean_sbu_0, # of connection points: 4
#     Node 9, Type 0, BuildingBlock: NAWXER_clean_sbu_0, # of connection points: 4
#     Node 10, Type 0, BuildingBlock: NAWXER_clean_sbu_0, # of connection points: 4
#     Node 11, Type 0, BuildingBlock: NAWXER_clean_sbu_0, # of connection points: 4
#     Edge 12, Type (0, 0), None
#     Edge 13, Type (0, 0), None
#     Edge 14, Type (0, 0), None
#     Edge 15, Type (0, 0), None
#     Edge 16, Type (0, 0), None
#     Edge 17, Type (0, 0), None
#     Edge 18, Type (0, 0), None
#     Edge 19, Type (0, 0), None
#     Edge 20, Type (0, 0), None
#     Edge 21, Type (0, 0), None
#     Edge 22, Type (0, 0), None
#     Edge 23, Type (0, 0), None
#     Edge 24, Type (0, 0), None
#     Edge 25, Type (0, 0), None
#     Edge 26, Type (0, 0), None
#     Edge 27, Type (0, 0), None
#     Edge 28, Type (0, 0), None
#     Edge 29, Type (0, 0), None
#     Edge 30, Type (0, 0), None
#     Edge 31, Type (0, 0), None
#     Edge 32, Type (0, 0), None
#     Edge 33, Type (0, 0), None
#     Edge 34, Type (0, 0), None
#     Edge 35, Type (0, 0), None
# Relax obj value: 0.169
# Max RMSD: 0.217
# Mean RMSD: 0.217
data_MOF--net-umo--node1-NAWXER_clean_sbu_0--edge1-none
_symmetry_space_group_name_H-M    P1
_symmetry_Int_Tables_number       1
_symmetry_cell_setting            triclinic
loop_
_symmetry_equiv_pos_as_xyz
'x, y, z'
_cell_length_a     22.814055
_cell_length_b     22.813818
_cell_length_c     15.922079
_cell_angle_alpha  89.99969
_cell_angle_beta   90.000507
_cell_angle_gamma 119.99948
loop_
_atom_site_label
_atom_site_type_symbol
_atom_site_fract_x
_atom_site_fract_y
_atom_site_fract_z
_atom_type_partial_charge
C0 C 0.21922 0.65273 0.43176 0.0
C1 C -0.00459 0.47466 0.36485 0.0
O2 O 0.21035 0.59469 0.4521 0.0
Zn3 Zn 0.1305 0.49182 0.44368 0.0
O4 O 0.17729 0.65856 0.3846 0.0
Zn5 Zn 0.11478 0.56369 0.37858 0.0
O6 O 0.09393 0.55909 0.50915 0.0
O7 O 0.11468 0.48266 0.56465 0.0
O8 O 0.02662 0.53384 0.33413 0.0
O9 O 0.02803 0.45091 0.40375 0.0
O10 O 0.17539 0.44995 0.37987 0.0
O11 O 0.17002 0.52764 0.30393 0.0
C12 C 0.09794 0.52813 0.57332 0.0
C13 C 0.1899 0.48431 0.31237 0.0
C14 C 0.49306 0.00924 0.53151 0.0
C15 C 0.5388 0.23306 0.5984 0.0
O16 O 0.54944 0.04186 0.57042 0.0
Zn17 Zn 0.61099 0.14434 0.61034 0.0
O18 O 0.4651 0.04046 0.50079 0.0
Zn19 Zn 0.52341 0.12862 0.54523 0.0
O20 O 0.61471 0.18386 0.47059 0.0
O21 O 0.69776 0.18923 0.54653 0.0
O22 O 0.49106 0.19114 0.55124 0.0
O23 O 0.58798 0.2242 0.61875 0.0
O24 O 0.60433 0.12853 0.73132 0.0
O25 O 0.50715 0.10778 0.67581 0.0
C26 C 0.67791 0.20373 0.47903 0.0
C27 C 0.54213 0.1118 0.73998 0.0
C28 C 0.44649 0.69174 0.6457 0.0
C29 C 0.40264 0.55596 0.90665 0.0
O30 O 0.40315 0.62854 0.63726 0.0
Zn31 Zn 0.3671 0.53724 0.71191 0.0
O32 O 0.48084 0.7116 0.7132 0.0
Zn33 Zn 0.43897 0.62483 0.77701 0.0
O34 O 0.47988 0.56327 0.73709 0.0
O35 O 0.39695 0.47892 0.66746 0.0
O36 O 0.44812 0.61817 0.89799 0.0
O37 O 0.37169 0.52099 0.84248 0.0
O38 O 0.27223 0.5049 0.71792 0.0
O39 O 0.3361 0.60182 0.78543 0.0
C40 C 0.45612 0.50689 0.69818 0.0
C41 C 0.27806 0.55264 0.76508 0.0
C42 C 0.69774 0.29189 0.93176 0.0
C43 C 0.92155 0.46996 0.86485 0.0
O44 O 0.7066 0.34994 0.95211 0.0
Zn45 Zn 0.78646 0.45281 0.94368 0.0
O46 O 0.73966 0.28607 0.88461 0.0
Zn47 Zn 0.80218 0.38093 0.87858 0.0
O48 O 0.82302 0.38554 1.00916 0.0
O49 O 0.80227 0.46197 0.06465 0.0
O50 O 0.89034 0.41078 0.83414 0.0
O51 O 0.88893 0.49372 0.90375 0.0
O52 O 0.74156 0.49468 0.87986 0.0
O53 O 0.74693 0.41698 0.80393 0.0
C54 C 0.81902 0.4165 0.07332 0.0
C55 C 0.72705 0.46031 0.81237 0.0
C56 C 0.42389 0.93539 0.03151 0.0
C57 C 0.37815 0.71157 0.09841 0.0
O58 O 0.36751 0.90277 0.07042 0.0
Zn59 Zn 0.30596 0.8003 0.11034 0.0
O60 O 0.45186 0.90417 1.00079 0.0
Zn61 Zn 0.39354 0.81601 0.04523 0.0
O62 O 0.30225 0.76077 0.97059 0.0
O63 O 0.21919 0.7554 0.04653 0.0
O64 O 0.42589 0.75349 0.05125 0.0
O65 O 0.32897 0.72044 0.11876 0.0
O66 O 0.31262 0.81611 0.23132 0.0
O67 O 0.4098 0.83685 0.17581 0.0
C68 C 0.23904 0.7409 0.97903 0.0
C69 C 0.37483 0.83284 0.23997 0.0
C70 C 0.47047 0.25289 0.1457 0.0
C71 C 0.51432 0.38869 0.40664 0.0
O72 O 0.5138 0.31609 0.13726 0.0
Zn73 Zn 0.54986 0.40739 0.2119 0.0
O74 O 0.43611 0.23304 0.21321 0.0
Zn75 Zn 0.47799 0.31981 0.27701 0.0
O76 O 0.43708 0.38136 0.23709 0.0
O77 O 0.52001 0.46571 0.16745 0.0
O78 O 0.46884 0.32647 0.39799 0.0
O79 O 0.54527 0.42365 0.34248 0.0
O80 O 0.64472 0.43974 0.21792 0.0
O81 O 0.58086 0.34282 0.28543 0.0
C82 C 0.46083 0.43774 0.19818 0.0
C83 C 0.6389 0.39199 0.26508 0.0
C84 C 0.44648 0.74089 0.58381 0.0
C85 C 0.40264 0.83284 0.3229 0.0
O86 O 0.40315 0.76076 0.59227 0.0
Zn87 Zn 0.3671 0.81601 0.51763 0.0
O88 O 0.48085 0.7554 0.51632 0.0
Zn89 Zn 0.43897 0.80029 0.45252 0.0
O90 O 0.47988 0.90276 0.49244 0.0
O91 O 0.39695 0.90417 0.56208 0.0
O92 O 0.44812 0.8161 0.33154 0.0
O93 O 0.37169 0.83686 0.38705 0.0
O94 O 0.27223 0.75349 0.51161 0.0
O95 O 0.3361 0.72044 0.4441 0.0
C96 C 0.45613 0.93538 0.53136 0.0
C97 C 0.27805 0.71157 0.46445 0.0
C98 C 0.54213 0.41651 0.48956 0.0
C99 C 0.6779 0.46031 0.75048 0.0
O100 O 0.50715 0.38554 0.55371 0.0
Zn101 Zn 0.5234 0.38093 0.68428 0.0
O102 O 0.60434 0.46198 0.49821 0.0
Zn103 Zn 0.61099 0.45281 0.61919 0.0
O104 O 0.58798 0.34994 0.61075 0.0
O105 O 0.49106 0.28607 0.67825 0.0
O106 O 0.69776 0.49469 0.683 0.0
O107 O 0.6147 0.41698 0.75893 0.0
O108 O 0.46509 0.41078 0.72874 0.0
O109 O 0.54944 0.49372 0.65912 0.0
C110 C 0.5388 0.2919 0.6311 0.0
C111 C 0.49306 0.46996 0.69803 0.0
C112 C 0.1899 0.69175 0.91714 0.0
C113 C 0.09794 0.55595 0.65623 0.0
O114 O 0.17003 0.62854 0.9256 0.0
Zn115 Zn 0.11478 0.53724 0.85096 0.0
O116 O 0.17539 0.7116 0.84965 0.0
Zn117 Zn 0.13049 0.62483 0.78585 0.0
O118 O 0.02803 0.56327 0.82578 0.0
O119 O 0.02662 0.47893 0.89542 0.0
O120 O 0.11468 0.61816 0.66487 0.0
O121 O 0.09393 0.52098 0.72039 0.0
O122 O 0.1773 0.5049 0.84494 0.0
O123 O 0.21035 0.60182 0.77743 0.0
C124 C -0.00459 0.50689 0.86469 0.0
C125 C 0.21922 0.55264 0.79778 0.0
C126 C 0.46083 0.00925 1.03136 0.0
C127 C 0.6389 0.23306 0.96446 0.0
O128 O 0.43707 0.04187 0.99244 0.0
Zn129 Zn 0.47799 0.14434 0.95252 0.0
O130 O 0.52 0.04046 0.06208 0.0
Zn131 Zn 0.54986 0.12862 1.01763 0.0
O132 O 0.5138 0.18387 0.09227 0.0
O133 O 0.43611 0.18924 1.01632 0.0
O134 O 0.64472 0.19114 1.01162 0.0
O135 O 0.58086 0.2242 0.9441 0.0
O136 O 0.46884 0.12853 0.83154 0.0
O137 O 0.54527 0.10778 0.88705 0.0
C138 C 0.47047 0.20374 0.08382 0.0
C139 C 0.51431 0.11179 0.82289 0.0
C140 C 0.4239 0.47467 0.19803 0.0
C141 C 0.37815 0.65274 0.13111 0.0
O142 O 0.36752 0.45091 0.15911 0.0
Zn143 Zn 0.30596 0.49182 0.11919 0.0
O144 O 0.45186 0.53385 0.22875 0.0
Zn145 Zn 0.39355 0.5637 0.18429 0.0
O146 O 0.30225 0.52764 0.25894 0.0
O147 O 0.21919 0.44994 0.18299 0.0
O148 O 0.42589 0.65856 0.17827 0.0
O149 O 0.32897 0.59469 0.11076 0.0
O150 O 0.31262 0.48267 0.99821 0.0
O151 O 0.40981 0.5591 0.05372 0.0
C152 C 0.23905 0.48431 0.25048 0.0
C153 C 0.37483 0.52814 0.98956 0.0
C154 C 0.72706 0.25288 0.41714 0.0
C155 C 0.81901 0.38868 0.15623 0.0
O156 O 0.74693 0.31609 0.4256 0.0
Zn157 Zn 0.80217 0.40739 0.35096 0.0
O158 O 0.74157 0.23303 0.34965 0.0
Zn159 Zn 0.78646 0.3198 0.28585 0.0
O160 O 0.88893 0.38136 0.32578 0.0
O161 O 0.89033 0.4657 0.39542 0.0
O162 O 0.80227 0.32647 0.16487 0.0
O163 O 0.82302 0.42365 0.22039 0.0
O164 O 0.73965 0.43973 0.34494 0.0
O165 O 0.7066 0.34282 0.27743 0.0
C166 C 0.92154 0.43773 0.3647 0.0
C167 C 0.69774 0.39199 0.29778 0.0
loop_
_geom_bond_atom_site_label_1
_geom_bond_atom_site_label_2
_geom_bond_distance
_geom_bond_site_symmetry_2
_ccdc_geom_bond_type
C0 O2 1.247 . S
C0 O4 1.258 . S
C1 O8 1.247 . S
C1 O9 1.258 . S
O2 C0 1.247 . S
O2 Zn3 2.028 . S
Zn3 O2 2.028 . S
Zn3 O7 2.035 . S
Zn3 O9 2.035 . S
Zn3 O10 2.028 . S
O4 C0 1.258 . S
O4 Zn5 2.035 . S
Zn5 O4 2.035 . S
Zn5 O6 2.028 . S
Zn5 O8 2.028 . S
Zn5 O11 2.035 . S
O6 Zn5 2.028 . S
O6 C12 1.247 . S
O7 Zn3 2.035 . S
O7 C12 1.258 . S
O8 C1 1.247 . S
O8 Zn5 2.028 . S
O9 C1 1.258 . S
O9 Zn3 2.035 . S
O10 Zn3 2.028 . S
O10 C13 1.247 . S
O11 Zn5 2.035 . S
O11 C13 1.258 . S
C12 O6 1.247 . S
C12 O7 1.258 . S
C13 O10 1.247 . S
C13 O11 1.258 . S
C14 O16 1.247 . S
C14 O18 1.258 . S
C15 O22 1.247 . S
C15 O23 1.258 . S
O16 C14 1.247 . S
O16 Zn17 2.028 . S
Zn17 O16 2.028 . S
Zn17 O21 2.035 . S
Zn17 O23 2.035 . S
Zn17 O24 2.028 . S
O18 C14 1.258 . S
O18 Zn19 2.035 . S
Zn19 O18 2.035 . S
Zn19 O20 2.028 . S
Zn19 O22 2.028 . S
Zn19 O25 2.035 . S
O20 Zn19 2.028 . S
O20 C26 1.247 . S
O21 Zn17 2.035 . S
O21 C26 1.258 . S
O22 C15 1.247 . S
O22 Zn19 2.028 . S
O23 C15 1.258 . S
O23 Zn17 2.035 . S
O24 Zn17 2.028 . S
O24 C27 1.247 . S
O25 Zn19 2.035 . S
O25 C27 1.258 . S
C26 O20 1.247 . S
C26 O21 1.258 . S
C27 O24 1.247 . S
C27 O25 1.258 . S
C28 O30 1.247 . S
C28 O32 1.258 . S
C29 O36 1.247 . S
C29 O37 1.258 . S
O30 C28 1.247 . S
O30 Zn31 2.028 . S
Zn31 O30 2.028 . S
Zn31 O35 2.035 . S
Zn31 O37 2.035 . S
Zn31 O38 2.028 . S
O32 C28 1.258 . S
O32 Zn33 2.035 . S
Zn33 O32 2.035 . S
Zn33 O34 2.028 . S
Zn33 O36 2.028 . S
Zn33 O39 2.035 . S
O34 Zn33 2.028 . S
O34 C40 1.247 . S
O35 Zn31 2.035 . S
O35 C40 1.258 . S
O36 C29 1.247 . S
O36 Zn33 2.028 . S
O37 C29 1.258 . S
O37 Zn31 2.035 . S
O38 Zn31 2.028 . S
O38 C41 1.247 . S
O39 Zn33 2.035 . S
O39 C41 1.258 . S
C40 O34 1.247 . S
C40 O35 1.258 . S
C41 O38 1.247 . S
C41 O39 1.258 . S
C42 O44 1.247 . S
C42 O46 1.258 . S
C43 O50 1.247 . S
C43 O51 1.258 . S
O44 C42 1.247 . S
O44 Zn45 2.028 . S
Zn45 O44 2.028 . S
Zn45 O49 2.035 1_556 S
Zn45 O51 2.035 . S
Zn45 O52 2.028 . S
O46 C42 1.258 . S
O46 Zn47 2.035 . S
Zn47 O46 2.035 . S
Zn47 O48 2.028 . S
Zn47 O50 2.028 . S
Zn47 O53 2.035 . S
O48 Zn47 2.028 . S
O48 C54 1.247 1_556 S
O49 Zn45 2.035 1_554 S
O49 C54 1.258 . S
O50 C43 1.247 . S
O50 Zn47 2.028 . S
O51 C43 1.258 . S
O51 Zn45 2.035 . S
O52 Zn45 2.028 . S
O52 C55 1.247 . S
O53 Zn47 2.035 . S
O53 C55 1.258 . S
C54 O48 1.247 1_554 S
C54 O49 1.258 . S
C55 O52 1.247 . S
C55 O53 1.258 . S
C56 O58 1.247 . S
C56 O60 1.258 . S
C57 O64 1.247 . S
C57 O65 1.258 . S
O58 C56 1.247 . S
O58 Zn59 2.028 . S
Zn59 O58 2.028 . S
Zn59 O63 2.035 1_554 S
Zn59 O65 2.035 . S
Zn59 O66 2.028 . S
O60 C56 1.258 . S
O60 Zn61 2.035 . S
Zn61 O60 2.035 . S
Zn61 O62 2.028 1_554 S
Zn61 O64 2.028 . S
Zn61 O67 2.035 . S
O62 Zn61 2.028 1_556 S
O62 C68 1.247 . S
O63 Zn59 2.035 1_556 S
O63 C68 1.258 . S
O64 C57 1.247 . S
O64 Zn61 2.028 . S
O65 C57 1.258 . S
O65 Zn59 2.035 . S
O66 Zn59 2.028 . S
O66 C69 1.247 . S
O67 Zn61 2.035 . S
O67 C69 1.258 . S
C68 O62 1.247 . S
C68 O63 1.258 . S
C69 O66 1.247 . S
C69 O67 1.258 . S
C70 O72 1.247 . S
C70 O74 1.258 . S
C71 O78 1.247 . S
C71 O79 1.258 . S
O72 C70 1.247 . S
O72 Zn73 2.028 . S
Zn73 O72 2.028 . S
Zn73 O77 2.035 . S
Zn73 O79 2.035 . S
Zn73 O80 2.028 . S
O74 C70 1.258 . S
O74 Zn75 2.035 . S
Zn75 O74 2.035 . S
Zn75 O76 2.028 . S
Zn75 O78 2.028 . S
Zn75 O81 2.035 . S
O76 Zn75 2.028 . S
O76 C82 1.247 . S
O77 Zn73 2.035 . S
O77 C82 1.258 . S
O78 C71 1.247 . S
O78 Zn75 2.028 . S
O79 C71 1.258 . S
O79 Zn73 2.035 . S
O80 Zn73 2.028 . S
O80 C83 1.247 . S
O81 Zn75 2.035 . S
O81 C83 1.258 . S
C82 O76 1.247 . S
C82 O77 1.258 . S
C83 O80 1.247 . S
C83 O81 1.258 . S
C84 O86 1.247 . S
C84 O88 1.258 . S
C85 O92 1.247 . S
C85 O93 1.258 . S
O86 C84 1.247 . S
O86 Zn87 2.028 . S
Zn87 O86 2.028 . S
Zn87 O91 2.035 . S
Zn87 O93 2.035 . S
Zn87 O94 2.028 . S
O88 C84 1.258 . S
O88 Zn89 2.035 . S
Zn89 O88 2.035 . S
Zn89 O90 2.028 . S
Zn89 O92 2.028 . S
Zn89 O95 2.035 . S
O90 Zn89 2.028 . S
O90 C96 1.247 . S
O91 Zn87 2.035 . S
O91 C96 1.258 . S
O92 C85 1.247 . S
O92 Zn89 2.028 . S
O93 C85 1.258 . S
O93 Zn87 2.035 . S
O94 Zn87 2.028 . S
O94 C97 1.247 . S
O95 Zn89 2.035 . S
O95 C97 1.258 . S
C96 O90 1.247 . S
C96 O91 1.258 . S
C97 O94 1.247 . S
C97 O95 1.258 . S
C98 O100 1.247 . S
C98 O102 1.258 . S
C99 O106 1.247 . S
C99 O107 1.258 . S
O100 C98 1.247 . S
O100 Zn101 2.028 . S
Zn101 O100 2.028 . S
Zn101 O105 2.035 . S
Zn101 O107 2.035 . S
Zn101 O108 2.028 . S
O102 C98 1.258 . S
O102 Zn103 2.035 . S
Zn103 O102 2.035 . S
Zn103 O104 2.028 . S
Zn103 O106 2.028 . S
Zn103 O109 2.035 . S
O104 Zn103 2.028 . S
O104 C110 1.247 . S
O105 Zn101 2.035 . S
O105 C110 1.258 . S
O106 C99 1.247 . S
O106 Zn103 2.028 . S
O107 C99 1.258 . S
O107 Zn101 2.035 . S
O108 Zn101 2.028 . S
O108 C111 1.247 . S
O109 Zn103 2.035 . S
O109 C111 1.258 . S
C110 O104 1.247 . S
C110 O105 1.258 . S
C111 O108 1.247 . S
C111 O109 1.258 . S
C112 O114 1.247 . S
C112 O116 1.258 . S
C113 O120 1.247 . S
C113 O121 1.258 . S
O114 C112 1.247 . S
O114 Zn115 2.028 . S
Zn115 O114 2.028 . S
Zn115 O119 2.035 . S
Zn115 O121 2.035 . S
Zn115 O122 2.028 . S
O116 C112 1.258 . S
O116 Zn117 2.035 . S
Zn117 O116 2.035 . S
Zn117 O118 2.028 . S
Zn117 O120 2.028 . S
Zn117 O123 2.035 . S
O118 Zn117 2.028 . S
O118 C124 1.247 . S
O119 Zn115 2.035 . S
O119 C124 1.258 . S
O120 C113 1.247 . S
O120 Zn117 2.028 . S
O121 C113 1.258 . S
O121 Zn115 2.035 . S
O122 Zn115 2.028 . S
O122 C125 1.247 . S
O123 Zn117 2.035 . S
O123 C125 1.258 . S
C124 O118 1.247 . S
C124 O119 1.258 . S
C125 O122 1.247 . S
C125 O123 1.258 . S
C126 O128 1.247 . S
C126 O130 1.258 . S
C127 O134 1.247 . S
C127 O135 1.258 . S
O128 C126 1.247 . S
O128 Zn129 2.028 . S
Zn129 O128 2.028 . S
Zn129 O133 2.035 1_556 S
Zn129 O135 2.035 . S
Zn129 O136 2.028 . S
O130 C126 1.258 . S
O130 Zn131 2.035 . S
Zn131 O130 2.035 . S
Zn131 O132 2.028 1_556 S
Zn131 O134 2.028 . S
Zn131 O137 2.035 . S
O132 Zn131 2.028 1_554 S
O132 C138 1.247 . S
O133 Zn129 2.035 1_554 S
O133 C138 1.258 . S
O134 C127 1.247 . S
O134 Zn131 2.028 . S
O135 C127 1.258 . S
O135 Zn129 2.035 . S
O136 Zn129 2.028 . S
O136 C139 1.247 . S
O137 Zn131 2.035 . S
O137 C139 1.258 . S
C138 O132 1.247 . S
C138 O133 1.258 . S
C139 O136 1.247 . S
C139 O137 1.258 . S
C140 O142 1.247 . S
C140 O144 1.258 . S
C141 O148 1.247 . S
C141 O149 1.258 . S
O142 C140 1.247 . S
O142 Zn143 2.028 . S
Zn143 O142 2.028 . S
Zn143 O147 2.035 . S
Zn143 O149 2.035 . S
Zn143 O150 2.028 1_554 S
O144 C140 1.258 . S
O144 Zn145 2.035 . S
Zn145 O144 2.035 . S
Zn145 O146 2.028 . S
Zn145 O148 2.028 . S
Zn145 O151 2.035 . S
O146 Zn145 2.028 . S
O146 C152 1.247 . S
O147 Zn143 2.035 . S
O147 C152 1.258 . S
O148 C141 1.247 . S
O148 Zn145 2.028 . S
O149 C141 1.258 . S
O149 Zn143 2.035 . S
O150 Zn143 2.028 1_556 S
O150 C153 1.247 . S
O151 Zn145 2.035 . S
O151 C153 1.258 1_554 S
C152 O146 1.247 . S
C152 O147 1.258 . S
C153 O150 1.247 . S
C153 O151 1.258 1_556 S
C154 O156 1.247 . S
C154 O158 1.258 . S
C155 O162 1.247 . S
C155 O163 1.258 . S
O156 C154 1.247 . S
O156 Zn157 2.028 . S
Zn157 O156 2.028 . S
Zn157 O161 2.035 . S
Zn157 O163 2.035 . S
Zn157 O164 2.028 . S
O158 C154 1.258 . S
O158 Zn159 2.035 . S
Zn159 O158 2.035 . S
Zn159 O160 2.028 . S
Zn159 O162 2.028 . S
Zn159 O165 2.035 . S
O160 Zn159 2.028 . S
O160 C166 1.247 . S
O161 Zn157 2.035 . S
O161 C166 1.258 . S
O162 C155 1.247 . S
O162 Zn159 2.028 . S
O163 C155 1.258 . S
O163 Zn157 2.035 . S
O164 Zn157 2.028 . S
O164 C167 1.247 . S
O165 Zn159 2.035 . S
O165 C167 1.258 . S
C166 O160 1.247 . S
C166 O161 1.258 . S
C167 O164 1.247 . S
C167 O165 1.258 . S
C0 C97 1.645 . S
C15 C110 1.645 . S
C125 C41 1.641 . S
C42 C127 1.645 . S
C57 C141 1.641 . S
C167 C83 1.641 . S
C113 C12 1.679 . S
C27 C139 1.678 . S
C153 C29 1.678 . S
C155 C54 1.679 . S
C69 C85 1.678 . S
C71 C98 1.678 . S
C166 C1 2.129 1_655 S
C96 C14 2.133 1_565 S
C40 C111 2.129 . S
C124 C43 2.129 1_455 S
C126 C56 2.133 1_546 S
C140 C82 2.133 . S
C13 C152 1.884 . S
C154 C26 1.888 . S
C28 C84 1.888 . S
C55 C99 1.880 . S
C68 C112 1.888 . S
C70 C138 1.888 . S
