# Generated by pormake.
# Topology pcu, (6)-cn, num edge types: 1
# Building blocks:
#     Node 0, Type 0, BuildingBlock: BETFAJ_clean_sbu_0, # of connection points: 6
#     Edge 1, Type (0, 0), BuildingBlock: UVAHIK_clean_linker_0, # of connection points: 2
#     Edge 2, Type (0, 0), BuildingBlock: UVAHIK_clean_linker_0, # of connection points: 2
#     Edge 3, Type (0, 0), BuildingBlock: UVAHIK_clean_linker_0, # of connection points: 2
# Relax obj value: 0.000
# Max RMSD: 0.000
# Mean RMSD: 0.000
data_MOF--net-pcu--node1-BETFAJ_clean_sbu_0--edge1-UVAHIK_clean_linker_0
_symmetry_space_group_name_H-M    P1
_symmetry_Int_Tables_number       1
_symmetry_cell_setting            triclinic
loop_
_symmetry_equiv_pos_as_xyz
'x, y, z'
_cell_length_a     30.042537
_cell_length_b     20.000741
_cell_length_c     18.992266
_cell_angle_alpha  86.492288
_cell_angle_beta   96.360308
_cell_angle_gamma 125.56453
loop_
_atom_site_label
_atom_site_type_symbol
_atom_site_fract_x
_atom_site_fract_y
_atom_site_fract_z
_atom_type_partial_charge
Sm0 Sm 0.95965 0.93563 0.01754 0.0
Sm1 Sm 0.08277 0.04226 0.99638 0.0
C2 C 0.8608 0.87572 0.05775 0.0
C3 C 0.81974 0.89486 0.05159 0.0
C4 C 0.77912 0.85917 0.09911 0.0
C5 C 0.73863 0.87397 0.09311 0.0
C6 C 0.73765 0.92485 0.03917 0.0
C7 C 0.77917 0.96169 0.9922 0.0
C8 C 0.81979 0.94689 0.99839 0.0
C9 C 0.98285 0.94771 0.87937 0.0
C10 C 0.02615 0.13635 0.99395 0.0
C11 C 0.1818 0.10239 0.95666 0.0
C12 C 0.2228 0.08314 0.96273 0.0
C13 C 0.2634 0.11883 0.91518 0.0
C14 C 0.30387 0.10399 0.92114 0.0
C15 C 0.30485 0.05306 0.97504 0.0
C16 C 0.26333 0.01621 0.02201 0.0
C17 C 0.22273 0.03105 0.01588 0.0
C18 C 0.0592 0.03001 0.13449 0.0
C19 C 1.01624 0.84152 0.01964 0.0
O20 O 0.9066 0.92482 0.0973 0.0
O21 O 0.86853 0.85306 0.9998 0.0
O22 O 1.00766 0.00624 0.92341 0.0
O23 O 0.94238 0.88124 0.90641 0.0
O24 O 0.98526 0.06838 0.02141 0.0
O25 O 0.06691 0.13997 0.96941 0.0
O26 O 0.13611 0.05369 0.91675 0.0
O27 O 0.17387 0.12455 0.01473 0.0
O28 O 0.0348 0.97158 0.09041 0.0
O29 O 0.09959 0.09665 0.10751 0.0
O30 O 0.05712 0.90952 0.99219 0.0
O31 O 0.97552 0.83791 0.04432 0.0
H32 H 0.7785 0.81926 0.14085 0.0
H33 H 0.70824 0.84577 0.13118 0.0
H34 H 0.77969 0.00065 0.94965 0.0
H35 H 0.85088 0.97538 0.9612 0.0
H36 H 0.26404 0.15878 0.87349 0.0
H37 H 0.33426 0.13219 0.88305 0.0
H38 H 0.2628 0.97722 0.06454 0.0
H39 H 0.19165 0.00256 0.05308 0.0
C40 C 0.08192 0.08919 0.25589 0.0
C41 C 0.04934 0.02119 0.2101 0.0
C42 C 0.07422 0.08112 0.32797 0.0
C43 C 1.01693 0.92654 0.47042 0.0
H44 H 0.02675 0.09883 0.57011 0.0
C45 C 0.95981 0.88832 0.75798 0.0
C46 C 0.99256 0.95635 0.80371 0.0
C47 C 0.96738 0.89625 0.68586 0.0
C48 C 0.02457 0.05062 0.54329 0.0
H49 H 0.98249 0.89166 0.20338 0.0
H50 H 0.96856 0.87749 0.32944 0.0
H51 H 0.03689 0.11195 0.44342 0.0
H52 H 0.05959 0.08578 0.81026 0.0
H53 H 0.07328 0.09974 0.68414 0.0
H54 H 1.0046 0.8652 0.57031 0.0
C55 C 1.00065 0.93689 0.30983 0.0
C56 C 0.03029 0.05807 0.47057 0.0
C57 C 1.00836 0.94504 0.23759 0.0
C58 C 0.03358 0.03239 0.77612 0.0
C59 C 0.04116 0.04041 0.70384 0.0
C60 C 1.0112 0.91909 0.54314 0.0
C61 C 0.0337 0.0048 0.35599 0.0
C62 C 0.02658 -0.00385 0.43319 0.0
C63 C 1.00795 0.97247 0.65775 0.0
C64 C 1.01494 0.98103 0.58052 0.0
H65 H 0.11387 0.14867 0.23618 0.0
H66 H 0.10085 0.13445 0.36201 0.0
H67 H 1.01477 0.87833 0.44361 0.0
H68 H 0.92782 0.8289 0.77778 0.0
H69 H 0.94064 0.84291 0.65187 0.0
C70 C 0.40365 0.10386 0.96962 0.0
C71 C 0.34933 0.03952 0.98243 0.0
C72 C 0.4453 0.09145 0.97587 0.0
C73 C 0.4682 0.92702 0.97914 0.0
H74 H 0.61476 0.09938 0.058 0.0
C75 C 0.63884 0.87404 0.04455 0.0
C76 C 0.69316 0.93838 0.03175 0.0
C77 C 0.59719 0.88644 0.03829 0.0
C78 C 0.57429 0.05087 0.035 0.0
H79 H 0.29683 0.91107 0.01178 0.0
H80 H 0.36953 0.88996 0.02414 0.0
H81 H 0.54212 0.12033 0.04851 0.0
H82 H 0.74566 0.06682 1.00237 0.0
H83 H 0.67295 0.08792 0.98998 0.0
H84 H 0.50037 0.85755 0.96564 0.0
C85 C 0.37981 0.94999 0.00833 0.0
C86 C 0.53245 0.0629 0.02957 0.0
C87 C 0.3381 0.96241 1.00208 0.0
C88 C 0.70439 0.01548 0.01207 0.0
C89 C 0.66267 0.02789 1.00581 0.0
C90 C 0.51004 0.91498 0.98457 0.0
C91 C 0.43408 0.01433 0.99525 0.0
C92 C 0.47872 0.00118 1.00153 0.0
C93 C 0.6084 0.96356 0.0189 0.0
C94 C 0.56376 0.9767 0.01262 0.0
H95 H 0.41431 0.16445 0.95535 0.0
H96 H 0.48629 0.14236 0.96457 0.0
H97 H 0.42773 0.8785 0.95614 0.0
H98 H 0.62819 0.81346 0.05885 0.0
H99 H 0.5562 0.83554 0.04959 0.0
C100 C 0.06422 0.77649 1.00388 0.0
C101 C 1.01733 0.76877 0.02216 0.0
C102 C 0.06514 0.70791 1.00238 0.0
C103 C 0.97425 0.4851 0.98102 0.0
H104 H 0.10443 0.49637 0.05344 0.0
C105 C 0.97814 0.20139 0.00946 0.0
C106 C 0.02504 0.20909 0.99128 0.0
C107 C 0.97721 0.26997 0.01086 0.0
C108 C 0.06812 0.49278 0.03215 0.0
H109 H 0.9351 0.68345 0.05475 0.0
H110 H 0.93689 0.56288 0.05247 0.0
H111 H 0.10225 0.61508 0.06577 0.0
H112 H 0.10729 0.29438 0.95871 0.0
H113 H 0.10548 0.41495 0.96081 0.0
H114 H 0.94012 0.3628 0.9474 0.0
C115 C 0.97263 0.62225 0.03862 0.0
C116 C 0.06675 0.56046 0.03948 0.0
C117 C 0.97172 0.69119 0.04035 0.0
C118 C 0.07065 0.28665 0.97305 0.0
C119 C 0.06974 0.35559 0.97467 0.0
C120 C 0.97561 0.41742 0.97368 0.0
C121 C 1.01925 0.63006 0.01909 0.0
C122 C 1.01982 0.55723 0.01393 0.0
C123 C 0.02311 0.3478 0.99413 0.0
C124 C 0.02254 0.42065 0.99924 0.0
H125 H 0.10022 0.83547 0.98983 0.0
H126 H 0.10138 0.71562 0.98637 0.0
H127 H 0.93793 0.48151 0.95974 0.0
H128 H 0.94213 0.14243 0.02354 0.0
H129 H 0.94096 0.26227 0.02682 0.0
loop_
_geom_bond_atom_site_label_1
_geom_bond_atom_site_label_2
_geom_bond_distance
_geom_bond_site_symmetry_2
_ccdc_geom_bond_type
Sm0 C2 2.846 . S
Sm0 O20 2.543 1_556 S
Sm0 O21 2.450 . S
Sm0 O22 2.681 1_665 S
Sm0 O23 2.464 . S
Sm0 O24 2.396 1_565 S
Sm0 O28 2.386 1_566 S
Sm0 O31 2.408 . S
Sm1 C11 2.846 . S
Sm1 O22 2.386 1_554 S
Sm1 O25 2.408 . S
Sm1 O26 2.543 1_554 S
Sm1 O27 2.450 . S
Sm1 O28 2.681 1_455 S
Sm1 O29 2.464 . S
Sm1 O30 2.396 1_545 S
C2 Sm0 2.846 . S
C2 C3 1.506 . S
C2 O20 1.261 1_556 S
C2 O21 1.242 . S
C3 C2 1.506 . S
C3 C4 1.358 1_566 S
C3 C8 1.382 . S
C4 C3 1.358 1_544 S
C4 C5 1.385 . S
C4 H32 0.930 . S
C5 C4 1.385 . S
C5 C6 1.395 1_544 S
C5 H33 0.929 . S
C6 C5 1.395 1_566 S
C6 C7 1.335 . S
C7 C6 1.335 . S
C7 C8 1.398 . S
C7 H34 0.930 . S
C8 C3 1.382 . S
C8 C7 1.398 . S
C8 H35 0.929 . S
C9 O22 1.271 1_665 S
C9 O23 1.251 . S
C10 O24 1.252 1_455 S
C10 O25 1.272 1_556 S
C11 Sm1 2.846 . S
C11 C12 1.506 . S
C11 O26 1.261 1_554 S
C11 O27 1.242 . S
C12 C11 1.506 . S
C12 C13 1.358 1_544 S
C12 C17 1.382 . S
C13 C12 1.358 1_566 S
C13 C14 1.385 . S
C13 H36 0.930 . S
C14 C13 1.385 . S
C14 C15 1.395 1_566 S
C14 H37 0.929 . S
C15 C14 1.395 1_544 S
C15 C16 1.335 . S
C16 C15 1.335 . S
C16 C17 1.398 . S
C16 H38 0.930 . S
C17 C12 1.382 . S
C17 C16 1.398 . S
C17 H39 0.929 . S
C18 O28 1.271 1_455 S
C18 O29 1.251 . S
C19 O30 1.252 1_655 S
C19 O31 1.272 1_554 S
O20 Sm0 2.543 1_554 S
O20 C2 1.261 1_554 S
O21 Sm0 2.450 . S
O21 C2 1.242 . S
O22 Sm0 2.681 1_445 S
O22 Sm1 2.386 1_556 S
O22 C9 1.271 1_445 S
O23 Sm0 2.464 . S
O23 C9 1.251 . S
O24 Sm0 2.396 1_545 S
O24 C10 1.252 1_655 S
O25 Sm1 2.408 . S
O25 C10 1.272 1_554 S
O26 Sm1 2.543 1_556 S
O26 C11 1.261 1_556 S
O27 Sm1 2.450 . S
O27 C11 1.242 . S
O28 Sm0 2.386 1_544 S
O28 Sm1 2.681 1_655 S
O28 C18 1.271 1_655 S
O29 Sm1 2.464 . S
O29 C18 1.251 . S
O30 Sm1 2.396 1_565 S
O30 C19 1.252 1_455 S
O31 Sm0 2.408 . S
O31 C19 1.272 1_556 S
H32 C4 0.930 . S
H33 C5 0.929 . S
H34 C7 0.930 . S
H35 C8 0.929 . S
H36 C13 0.930 . S
H37 C14 0.929 . S
H38 C16 0.930 . S
H39 C17 0.929 . S
C40 C41 1.349 1_655 S
C40 C42 1.327 . S
C40 H65 0.950 . S
C41 C40 1.349 1_455 S
C41 C57 1.349 1_545 S
C42 C40 1.327 . S
C42 C61 1.429 1_655 S
C42 H66 0.950 . S
C43 C60 1.574 . S
C43 C62 1.368 1_565 S
C43 H67 0.949 . S
H44 C48 0.949 . S
C45 C46 1.349 1_565 S
C45 C47 1.327 . S
C45 H68 0.950 . S
C46 C45 1.349 1_545 S
C46 C58 1.349 1_455 S
C47 C45 1.327 . S
C47 C63 1.429 1_565 S
C47 H69 0.950 . S
C48 H44 0.949 . S
C48 C56 1.574 . S
C48 C64 1.368 1_655 S
H49 C57 0.950 . S
H50 C55 0.950 . S
H51 C56 0.949 . S
H52 C58 0.950 . S
H53 C59 0.950 . S
H54 C60 0.949 . S
C55 H50 0.950 . S
C55 C57 1.327 . S
C55 C61 1.429 1_565 S
C56 C48 1.574 . S
C56 H51 0.949 . S
C56 C62 1.368 1_655 S
C57 C41 1.349 1_565 S
C57 H49 0.950 . S
C57 C55 1.327 . S
C58 C46 1.349 1_655 S
C58 H52 0.950 . S
C58 C59 1.327 . S
C59 H53 0.950 . S
C59 C58 1.327 . S
C59 C63 1.429 1_655 S
C60 C43 1.574 . S
C60 H54 0.949 . S
C60 C64 1.368 1_565 S
C61 C42 1.429 1_455 S
C61 C55 1.429 1_545 S
C61 C62 1.523 . S
C62 C43 1.368 1_545 S
C62 C56 1.368 1_455 S
C62 C61 1.523 . S
C63 C47 1.429 1_545 S
C63 C59 1.429 1_455 S
C63 C64 1.523 . S
C64 C48 1.368 1_455 S
C64 C60 1.368 1_545 S
C64 C63 1.523 . S
H65 C40 0.950 . S
H66 C42 0.950 . S
H67 C43 0.949 . S
H68 C45 0.950 . S
H69 C47 0.950 . S
C70 C71 1.349 1_556 S
C70 C72 1.327 . S
C70 H95 0.950 . S
C71 C70 1.349 1_554 S
C71 C87 1.349 1_545 S
C72 C70 1.327 . S
C72 C91 1.429 1_556 S
C72 H96 0.950 . S
C73 C90 1.574 . S
C73 C92 1.368 1_565 S
C73 H97 0.949 . S
H74 C78 0.949 . S
C75 C76 1.349 1_565 S
C75 C77 1.327 . S
C75 H98 0.950 . S
C76 C75 1.349 1_545 S
C76 C88 1.349 1_554 S
C77 C75 1.327 . S
C77 C93 1.429 1_565 S
C77 H99 0.950 . S
C78 H74 0.949 . S
C78 C86 1.574 . S
C78 C94 1.368 1_556 S
H79 C87 0.950 . S
H80 C85 0.950 . S
H81 C86 0.949 . S
H82 C88 0.950 . S
H83 C89 0.950 . S
H84 C90 0.949 . S
C85 H80 0.950 . S
C85 C87 1.327 . S
C85 C91 1.429 1_565 S
C86 C78 1.574 . S
C86 H81 0.949 . S
C86 C92 1.368 1_556 S
C87 C71 1.349 1_565 S
C87 H79 0.950 . S
C87 C85 1.327 . S
C88 C76 1.349 1_556 S
C88 H82 0.950 . S
C88 C89 1.327 . S
C89 H83 0.950 . S
C89 C88 1.327 . S
C89 C93 1.429 1_556 S
C90 C73 1.574 . S
C90 H84 0.949 . S
C90 C94 1.368 1_565 S
C91 C72 1.429 1_554 S
C91 C85 1.429 1_545 S
C91 C92 1.523 . S
C92 C73 1.368 1_545 S
C92 C86 1.368 1_554 S
C92 C91 1.523 . S
C93 C77 1.429 1_545 S
C93 C89 1.429 1_554 S
C93 C94 1.523 . S
C94 C78 1.368 1_554 S
C94 C90 1.368 1_545 S
C94 C93 1.523 . S
H95 C70 0.950 . S
H96 C72 0.950 . S
H97 C73 0.949 . S
H98 C75 0.950 . S
H99 C77 0.950 . S
C100 C101 1.349 1_556 S
C100 C102 1.327 . S
C100 H125 0.950 . S
C101 C100 1.349 1_554 S
C101 C117 1.349 1_455 S
C102 C100 1.327 . S
C102 C121 1.429 1_556 S
C102 H126 0.950 . S
C103 C120 1.574 . S
C103 C122 1.368 1_655 S
C103 H127 0.949 . S
H104 C108 0.949 . S
C105 C106 1.349 1_655 S
C105 C107 1.327 . S
C105 H128 0.950 . S
C106 C105 1.349 1_455 S
C106 C118 1.349 1_554 S
C107 C105 1.327 . S
C107 C123 1.429 1_655 S
C107 H129 0.950 . S
C108 H104 0.949 . S
C108 C116 1.574 . S
C108 C124 1.368 1_556 S
H109 C117 0.950 . S
H110 C115 0.950 . S
H111 C116 0.949 . S
H112 C118 0.950 . S
H113 C119 0.950 . S
H114 C120 0.949 . S
C115 H110 0.950 . S
C115 C117 1.327 . S
C115 C121 1.429 1_655 S
C116 C108 1.574 . S
C116 H111 0.949 . S
C116 C122 1.368 1_556 S
C117 C101 1.349 1_655 S
C117 H109 0.950 . S
C117 C115 1.327 . S
C118 C106 1.349 1_556 S
C118 H112 0.950 . S
C118 C119 1.327 . S
C119 H113 0.950 . S
C119 C118 1.327 . S
C119 C123 1.429 1_556 S
C120 C103 1.574 . S
C120 H114 0.949 . S
C120 C124 1.368 1_655 S
C121 C102 1.429 1_554 S
C121 C115 1.429 1_455 S
C121 C122 1.523 . S
C122 C103 1.368 1_455 S
C122 C116 1.368 1_554 S
C122 C121 1.523 . S
C123 C107 1.429 1_455 S
C123 C119 1.429 1_554 S
C123 C124 1.523 . S
C124 C108 1.368 1_554 S
C124 C120 1.368 1_455 S
C124 C123 1.523 . S
H125 C100 0.950 . S
H126 C102 0.950 . S
H127 C103 0.949 . S
H128 C105 0.950 . S
H129 C107 0.950 . S
C41 C18 1.453 . S
C46 C9 1.453 1_445 S
C71 C15 1.499 . S
C76 C6 1.499 1_544 S
C101 C19 1.490 1_455 S
C106 C10 1.490 1_554 S
