# Generated by pormake.
# Topology qtz-e, (6)-cn, num edge types: 1
# Building blocks:
#     Node 0, Type 0, BuildingBlock: BETDEL_clean_sbu_0, # of connection points: 6
#     Node 1, Type 0, BuildingBlock: BETDEL_clean_sbu_0, # of connection points: 6
#     Node 2, Type 0, BuildingBlock: BETDEL_clean_sbu_0, # of connection points: 6
#     Node 3, Type 0, BuildingBlock: BETDEL_clean_sbu_0, # of connection points: 6
#     Node 4, Type 0, BuildingBlock: BETDEL_clean_sbu_0, # of connection points: 6
#     Node 5, Type 0, BuildingBlock: BETDEL_clean_sbu_0, # of connection points: 6
#     Edge 6, Type (0, 0), None
#     Edge 7, Type (0, 0), None
#     Edge 8, Type (0, 0), None
#     Edge 9, Type (0, 0), None
#     Edge 10, Type (0, 0), None
#     Edge 11, Type (0, 0), None
#     Edge 12, Type (0, 0), None
#     Edge 13, Type (0, 0), None
#     Edge 14, Type (0, 0), None
#     Edge 15, Type (0, 0), None
#     Edge 16, Type (0, 0), None
#     Edge 17, Type (0, 0), None
#     Edge 18, Type (0, 0), None
#     Edge 19, Type (0, 0), None
#     Edge 20, Type (0, 0), None
#     Edge 21, Type (0, 0), None
#     Edge 22, Type (0, 0), None
#     Edge 23, Type (0, 0), None
# Relax obj value: 0.168
# Max RMSD: 0.210
# Mean RMSD: 0.210
data_MOF--net-qtz-e--node1-BETDEL_clean_sbu_0--edge1-none
_symmetry_space_group_name_H-M    P1
_symmetry_Int_Tables_number       1
_symmetry_cell_setting            triclinic
loop_
_symmetry_equiv_pos_as_xyz
'x, y, z'
_cell_length_a     11.962961
_cell_length_b     11.961945
_cell_length_c     19.043157
_cell_angle_alpha  90.002257
_cell_angle_beta   89.992922
_cell_angle_gamma 119.99289
loop_
_atom_site_label
_atom_site_type_symbol
_atom_site_fract_x
_atom_site_fract_y
_atom_site_fract_z
_atom_type_partial_charge
Dy0 Dy 0.19114 0.48634 0.11658 0.0
C1 C 0.09808 0.11455 0.91631 0.0
C2 C 0.26905 0.64645 0.22579 0.0
Dy3 Dy 0.06596 0.25611 1.02231 0.0
O4 O 0.28577 0.5481 0.22117 0.0
O5 O 0.21402 0.65856 0.1696 0.0
O6 O 0.38185 0.56691 0.06777 0.0
O7 O 0.25985 0.36341 0.07508 0.0
C8 C 0.36906 0.4559 1.05351 0.0
C9 C -0.06136 0.39462 1.03396 0.0
O10 O -0.02282 0.13853 0.121 0.0
O11 O 0.08371 0.31982 0.19268 0.0
O12 O 0.00612 0.14324 0.9187 0.0
O13 O 0.15799 0.14798 0.97629 0.0
O14 O -0.06311 0.3306 0.97817 0.0
O15 O -0.00392 0.36914 0.08148 0.0
O16 O 0.19189 0.58547 1.01716 0.0
O17 O 0.18516 0.41791 0.95451 0.0
C18 C 0.00512 0.19339 0.18441 0.0
C19 C 0.19559 0.53166 0.95745 0.0
Dy20 Dy 0.65639 0.21536 0.44998 0.0
C21 C -0.06497 0.12271 0.24968 0.0
C22 C 0.57415 0.29322 0.55921 0.0
Dy23 Dy 0.76141 0.0901 0.35567 0.0
O24 O 0.68919 0.30991 0.5546 0.0
O25 O 0.50706 0.23826 0.503 0.0
O26 O 0.76658 0.40609 0.40119 0.0
O27 O 0.84796 0.28399 0.40847 0.0
C28 C 0.86473 0.39322 0.38688 0.0
C29 C 0.49562 -0.03713 0.36731 0.0
O30 O 0.79024 0.00133 0.45436 0.0
O31 O 0.71544 0.10785 0.52605 0.0
O32 O 0.8146 0.03026 0.25209 0.0
O33 O -0.03849 0.18274 0.30962 0.0
O34 O 0.55789 -0.0389 0.31152 0.0
O35 O 0.57851 0.02031 0.41483 0.0
O36 O 0.55803 0.21619 0.35058 0.0
O37 O 0.71869 0.20923 0.28789 0.0
C38 C 0.76329 0.02926 0.51777 0.0
C39 C 0.61547 0.21982 0.29086 0.0
Dy40 Dy 0.39251 0.6805 0.78329 0.0
C41 C 0.76387 -0.04085 0.58303 0.0
C42 C 0.23248 0.59815 0.89243 0.0
Dy43 Dy 0.62281 0.78552 0.689 0.0
O44 O 0.33061 0.71333 0.88786 0.0
O45 O 0.22037 0.53098 0.83625 0.0
O46 O 0.31198 0.79068 0.73447 0.0
O47 O 0.51545 0.87208 0.74178 0.0
C48 C 0.42299 0.88884 0.72019 0.0
C49 C 0.48424 0.51971 0.70065 0.0
O50 O 0.74035 0.81434 0.78769 0.0
O51 O 0.55903 0.73957 0.85937 0.0
O52 O 0.73586 0.8387 0.58543 0.0
O53 O 0.73032 -0.01435 0.64297 0.0
O54 O 0.5483 0.58196 0.64486 0.0
O55 O 0.50971 0.60264 0.74816 0.0
O56 O 0.29339 0.58218 0.68386 0.0
O57 O 0.46103 0.74282 0.62117 0.0
C58 C 0.68546 0.7874 0.85111 0.0
C59 C 0.34723 0.63961 0.62414 0.0
Dy60 Dy 0.66353 0.41677 0.11669 0.0
C61 C 0.75613 0.78799 0.91637 0.0
C62 C 0.58593 0.25678 0.22585 0.0
Dy63 Dy 0.78879 0.647 1.02235 0.0
O64 O 0.56888 0.35493 0.22129 0.0
O65 O 0.64096 0.24465 0.16966 0.0
O66 O 0.47281 0.33608 0.06792 0.0
O67 O 0.5949 0.53973 0.07517 0.0
C68 C 0.48571 0.44713 1.05365 0.0
C69 C 0.91581 0.50825 1.03395 0.0
O70 O 0.8776 0.76461 0.12103 0.0
O71 O 0.77102 0.58335 0.19274 0.0
O72 O 0.84861 0.76003 0.91877 0.0
O73 O 0.6961 0.75444 0.97631 0.0
O74 O 0.91776 0.5724 0.97817 0.0
O75 O 0.85853 0.53385 0.0815 0.0
O76 O 0.66256 0.31752 1.01726 0.0
O77 O 0.66965 0.4852 0.95456 0.0
C78 C 0.84966 0.70976 0.18445 0.0
C79 C 0.65897 0.37135 0.95754 0.0
Dy80 Dy 0.19837 0.68765 0.44996 0.0
C81 C 0.91981 0.78046 0.24969 0.0
C82 C 0.28075 0.61006 0.55912 0.0
Dy83 Dy 0.09343 0.81297 0.35565 0.0
O84 O 0.16556 0.593 0.55456 0.0
O85 O 0.34791 0.66508 0.50293 0.0
O86 O 0.0883 0.49692 0.40118 0.0
O87 O 0.0068 0.61907 0.40846 0.0
C88 C -0.00984 0.50984 0.38695 0.0
C89 C 0.35917 0.94004 0.36728 0.0
O90 O 0.06462 0.90177 0.45433 0.0
O91 O 0.13927 0.79514 0.52603 0.0
O92 O 0.04028 0.87281 0.25206 0.0
O93 O 0.89331 0.72047 0.30965 0.0
O94 O 0.297 0.94202 0.31151 0.0
O95 O 0.27626 0.8827 0.41482 0.0
O96 O 0.29672 0.6868 0.35054 0.0
O97 O 0.13608 0.69377 0.28785 0.0
C98 C 0.0915 0.8738 0.51775 0.0
C99 C 0.23934 0.68325 0.29082 0.0
Dy100 Dy 0.46204 0.22244 0.78337 0.0
C101 C 0.09093 0.94393 0.583 0.0
C102 C 0.62196 0.30483 0.89253 0.0
Dy103 Dy 0.23193 0.11754 0.68898 0.0
O104 O 0.52383 0.18965 0.88798 0.0
O105 O 0.6341 0.37199 0.83634 0.0
O106 O 0.5428 0.11241 0.7346 0.0
O107 O 0.33916 0.03089 0.74181 0.0
C108 C 0.43178 0.01428 0.72031 0.0
C109 C 0.37058 0.38329 0.70063 0.0
O110 O 0.11424 0.08863 0.78764 0.0
O111 O 0.2954 0.16328 0.85941 0.0
O112 O 0.11898 0.06439 0.58539 0.0
O113 O 0.12443 0.91742 0.64294 0.0
O114 O 0.30648 0.32112 0.64484 0.0
O115 O 0.34496 0.30038 0.74817 0.0
O116 O 0.56135 0.3208 0.68397 0.0
O117 O 0.39382 0.16021 0.62122 0.0
C118 C 0.169 0.11545 0.85108 0.0
C119 C 0.50759 0.26345 0.62423 0.0
loop_
_geom_bond_atom_site_label_1
_geom_bond_atom_site_label_2
_geom_bond_distance
_geom_bond_site_symmetry_2
_ccdc_geom_bond_type
Dy0 O4 2.398 . S
Dy0 O5 2.491 . S
Dy0 O6 2.403 . S
Dy0 O7 2.664 . S
Dy0 O11 2.326 . S
Dy0 O15 2.310 . S
Dy0 O16 2.351 1_554 S
C1 O12 1.185 . S
C1 O13 1.355 . S
C2 O4 1.185 . S
C2 O5 1.355 . S
Dy3 O7 2.310 1_556 S
Dy3 O10 2.351 1_556 S
Dy3 O12 2.398 . S
Dy3 O13 2.491 . S
Dy3 O14 2.403 1_455 S
Dy3 O15 2.664 1_556 S
Dy3 O17 2.326 . S
O4 Dy0 2.398 . S
O4 C2 1.185 . S
O5 Dy0 2.491 . S
O5 C2 1.355 . S
O6 Dy0 2.403 . S
O6 C8 1.254 . S
O7 Dy0 2.664 . S
O7 Dy3 2.310 1_554 S
O7 C8 1.268 . S
C8 O6 1.254 . S
C8 O7 1.268 . S
C9 O14 1.254 . S
C9 O15 1.268 1_656 S
O10 Dy3 2.351 1_554 S
O10 C18 1.249 . S
O11 Dy0 2.326 . S
O11 C18 1.267 . S
O12 C1 1.185 . S
O12 Dy3 2.398 . S
O13 C1 1.355 . S
O13 Dy3 2.491 . S
O14 Dy3 2.403 1_655 S
O14 C9 1.254 . S
O15 Dy0 2.310 . S
O15 Dy3 2.664 1_554 S
O15 C9 1.268 1_454 S
O16 Dy0 2.351 1_556 S
O16 C19 1.249 . S
O17 Dy3 2.326 . S
O17 C19 1.267 . S
C18 O10 1.249 . S
C18 O11 1.267 . S
C19 O16 1.249 . S
C19 O17 1.267 . S
Dy20 O24 2.398 . S
Dy20 O25 2.491 . S
Dy20 O26 2.403 . S
Dy20 O27 2.664 . S
Dy20 O31 2.326 . S
Dy20 O35 2.310 . S
Dy20 O36 2.351 . S
C21 O32 1.185 1_455 S
C21 O33 1.355 . S
C22 O24 1.185 . S
C22 O25 1.355 . S
Dy23 O27 2.310 . S
Dy23 O30 2.351 . S
Dy23 O32 2.398 . S
Dy23 O33 2.491 1_655 S
Dy23 O34 2.403 1_545 S
Dy23 O35 2.664 . S
Dy23 O37 2.326 . S
O24 Dy20 2.398 . S
O24 C22 1.185 . S
O25 Dy20 2.491 . S
O25 C22 1.355 . S
O26 Dy20 2.403 . S
O26 C28 1.254 1_655 S
O27 Dy20 2.664 . S
O27 Dy23 2.310 . S
O27 C28 1.268 1_655 S
C28 O26 1.254 1_455 S
C28 O27 1.268 1_455 S
C29 O34 1.254 . S
C29 O35 1.268 1_565 S
O30 Dy23 2.351 . S
O30 C38 1.249 . S
O31 Dy20 2.326 . S
O31 C38 1.267 . S
O32 C21 1.185 1_655 S
O32 Dy23 2.398 . S
O33 C21 1.355 . S
O33 Dy23 2.491 1_455 S
O34 Dy23 2.403 1_565 S
O34 C29 1.254 . S
O35 Dy20 2.310 . S
O35 Dy23 2.664 . S
O35 C29 1.268 1_545 S
O36 Dy20 2.351 . S
O36 C39 1.249 . S
O37 Dy23 2.326 . S
O37 C39 1.267 . S
C38 O30 1.249 . S
C38 O31 1.267 . S
C39 O36 1.249 . S
C39 O37 1.267 . S
Dy40 O44 2.398 . S
Dy40 O45 2.491 . S
Dy40 O46 2.403 . S
Dy40 O47 2.664 . S
Dy40 O51 2.326 . S
Dy40 O55 2.310 . S
Dy40 O56 2.351 . S
C41 O52 1.185 1_545 S
C41 O53 1.355 . S
C42 O44 1.185 . S
C42 O45 1.355 . S
Dy43 O47 2.310 . S
Dy43 O50 2.351 . S
Dy43 O52 2.398 . S
Dy43 O53 2.491 1_565 S
Dy43 O54 2.403 . S
Dy43 O55 2.664 . S
Dy43 O57 2.326 . S
O44 Dy40 2.398 . S
O44 C42 1.185 . S
O45 Dy40 2.491 . S
O45 C42 1.355 . S
O46 Dy40 2.403 . S
O46 C48 1.254 1_565 S
O47 Dy40 2.664 . S
O47 Dy43 2.310 . S
O47 C48 1.268 1_565 S
C48 O46 1.254 1_545 S
C48 O47 1.268 1_545 S
C49 O54 1.254 . S
C49 O55 1.268 . S
O50 Dy43 2.351 . S
O50 C58 1.249 . S
O51 Dy40 2.326 . S
O51 C58 1.267 . S
O52 C41 1.185 1_565 S
O52 Dy43 2.398 . S
O53 C41 1.355 . S
O53 Dy43 2.491 1_545 S
O54 Dy43 2.403 . S
O54 C49 1.254 . S
O55 Dy40 2.310 . S
O55 Dy43 2.664 . S
O55 C49 1.268 . S
O56 Dy40 2.351 . S
O56 C59 1.249 . S
O57 Dy43 2.326 . S
O57 C59 1.267 . S
C58 O50 1.249 . S
C58 O51 1.267 . S
C59 O56 1.249 . S
C59 O57 1.267 . S
Dy60 O64 2.398 . S
Dy60 O65 2.491 . S
Dy60 O66 2.403 . S
Dy60 O67 2.664 . S
Dy60 O71 2.326 . S
Dy60 O75 2.310 . S
Dy60 O76 2.351 1_554 S
C61 O72 1.185 . S
C61 O73 1.355 . S
C62 O64 1.185 . S
C62 O65 1.355 . S
Dy63 O67 2.310 1_556 S
Dy63 O70 2.351 1_556 S
Dy63 O72 2.398 . S
Dy63 O73 2.491 . S
Dy63 O74 2.403 1_655 S
Dy63 O75 2.664 1_556 S
Dy63 O77 2.326 . S
O64 Dy60 2.398 . S
O64 C62 1.185 . S
O65 Dy60 2.491 . S
O65 C62 1.355 . S
O66 Dy60 2.403 . S
O66 C68 1.254 . S
O67 Dy60 2.664 . S
O67 Dy63 2.310 1_554 S
O67 C68 1.268 . S
C68 O66 1.254 . S
C68 O67 1.268 . S
C69 O74 1.254 . S
C69 O75 1.268 1_456 S
O70 Dy63 2.351 1_554 S
O70 C78 1.249 . S
O71 Dy60 2.326 . S
O71 C78 1.267 . S
O72 C61 1.185 . S
O72 Dy63 2.398 . S
O73 C61 1.355 . S
O73 Dy63 2.491 . S
O74 Dy63 2.403 1_455 S
O74 C69 1.254 . S
O75 Dy60 2.310 . S
O75 Dy63 2.664 1_554 S
O75 C69 1.268 1_654 S
O76 Dy60 2.351 1_556 S
O76 C79 1.249 . S
O77 Dy63 2.326 . S
O77 C79 1.267 . S
C78 O70 1.249 . S
C78 O71 1.267 . S
C79 O76 1.249 . S
C79 O77 1.267 . S
Dy80 O84 2.398 . S
Dy80 O85 2.491 . S
Dy80 O86 2.403 . S
Dy80 O87 2.664 . S
Dy80 O91 2.326 . S
Dy80 O95 2.310 . S
Dy80 O96 2.351 . S
C81 O92 1.185 1_655 S
C81 O93 1.355 . S
C82 O84 1.185 . S
C82 O85 1.355 . S
Dy83 O87 2.310 . S
Dy83 O90 2.351 . S
Dy83 O92 2.398 . S
Dy83 O93 2.491 1_455 S
Dy83 O94 2.403 1_565 S
Dy83 O95 2.664 . S
Dy83 O97 2.326 . S
O84 Dy80 2.398 . S
O84 C82 1.185 . S
O85 Dy80 2.491 . S
O85 C82 1.355 . S
O86 Dy80 2.403 . S
O86 C88 1.254 1_455 S
O87 Dy80 2.664 . S
O87 Dy83 2.310 . S
O87 C88 1.268 1_455 S
C88 O86 1.254 1_655 S
C88 O87 1.268 1_655 S
C89 O94 1.254 . S
C89 O95 1.268 1_545 S
O90 Dy83 2.351 . S
O90 C98 1.249 . S
O91 Dy80 2.326 . S
O91 C98 1.267 . S
O92 C81 1.185 1_455 S
O92 Dy83 2.398 . S
O93 C81 1.355 . S
O93 Dy83 2.491 1_655 S
O94 Dy83 2.403 1_545 S
O94 C89 1.254 . S
O95 Dy80 2.310 . S
O95 Dy83 2.664 . S
O95 C89 1.268 1_565 S
O96 Dy80 2.351 . S
O96 C99 1.249 . S
O97 Dy83 2.326 . S
O97 C99 1.267 . S
C98 O90 1.249 . S
C98 O91 1.267 . S
C99 O96 1.249 . S
C99 O97 1.267 . S
Dy100 O104 2.398 . S
Dy100 O105 2.491 . S
Dy100 O106 2.403 . S
Dy100 O107 2.664 . S
Dy100 O111 2.326 . S
Dy100 O115 2.310 . S
Dy100 O116 2.351 . S
C101 O112 1.185 1_565 S
C101 O113 1.355 . S
C102 O104 1.185 . S
C102 O105 1.355 . S
Dy103 O107 2.310 . S
Dy103 O110 2.351 . S
Dy103 O112 2.398 . S
Dy103 O113 2.491 1_545 S
Dy103 O114 2.403 . S
Dy103 O115 2.664 . S
Dy103 O117 2.326 . S
O104 Dy100 2.398 . S
O104 C102 1.185 . S
O105 Dy100 2.491 . S
O105 C102 1.355 . S
O106 Dy100 2.403 . S
O106 C108 1.254 1_545 S
O107 Dy100 2.664 . S
O107 Dy103 2.310 . S
O107 C108 1.268 1_545 S
C108 O106 1.254 1_565 S
C108 O107 1.268 1_565 S
C109 O114 1.254 . S
C109 O115 1.268 . S
O110 Dy103 2.351 . S
O110 C118 1.249 . S
O111 Dy100 2.326 . S
O111 C118 1.267 . S
O112 C101 1.185 1_545 S
O112 Dy103 2.398 . S
O113 C101 1.355 . S
O113 Dy103 2.491 1_565 S
O114 Dy103 2.403 . S
O114 C109 1.254 . S
O115 Dy100 2.310 . S
O115 Dy103 2.664 . S
O115 C109 1.268 . S
O116 Dy100 2.351 . S
O116 C119 1.249 . S
O117 Dy103 2.326 . S
O117 C119 1.267 . S
C118 O110 1.249 . S
C118 O111 1.267 . S
C119 O116 1.249 . S
C119 O117 1.267 . S
C99 C2 1.203 . S
C119 C22 1.203 . S
C19 C42 1.203 . S
C39 C62 1.203 . S
C59 C82 1.203 . S
C79 C102 1.203 . S
C8 C68 1.281 . S
C88 C28 1.281 1_655 S
C108 C48 1.280 1_565 S
C49 C109 2.426 . S
C9 C69 2.427 1_655 S
C89 C29 2.428 1_545 S
C118 C1 1.513 . S
C21 C18 1.513 . S
C41 C38 1.513 . S
C58 C61 1.513 . S
C81 C78 1.513 . S
C101 C98 1.513 . S
