# Generated by pormake.
# Topology pcu, (6)-cn, num edge types: 1
# Building blocks:
#     Node 0, Type 0, BuildingBlock: KUMBUR_clean_sbu_0, # of connection points: 6
#     Edge 1, Type (0, 0), BuildingBlock: CIFDUS_clean_linker_0, # of connection points: 2
#     Edge 2, Type (0, 0), BuildingBlock: CIFDUS_clean_linker_0, # of connection points: 2
#     Edge 3, Type (0, 0), BuildingBlock: CIFDUS_clean_linker_0, # of connection points: 2
# Relax obj value: 0.000
# Max RMSD: 0.000
# Mean RMSD: 0.000
data_MOF--net-pcu--node1-KUMBUR_clean_sbu_0--edge1-CIFDUS_clean_linker_0
_symmetry_space_group_name_H-M    P1
_symmetry_Int_Tables_number       1
_symmetry_cell_setting            triclinic
loop_
_symmetry_equiv_pos_as_xyz
'x, y, z'
_cell_length_a     11.738639
_cell_length_b     22.459705
_cell_length_c     13.255468
_cell_angle_alpha  115.40854
_cell_angle_beta   74.394295
_cell_angle_gamma 113.00676
loop_
_atom_site_label
_atom_site_type_symbol
_atom_site_fract_x
_atom_site_fract_y
_atom_site_fract_z
_atom_type_partial_charge
Tb0 Tb 0.124 0.08765 0.06023 0.0
C1 C 0.76793 0.81616 0.77009 0.0
C2 C 0.5634 0.80877 0.87589 0.0
C3 C 0.58437 0.75818 0.67153 0.0
C4 C 0.69426 0.83135 0.87165 0.0
C5 C 0.71422 0.77819 0.66861 0.0
C6 C 0.50898 0.77347 0.77515 0.0
C7 C 0.91997 0.77835 0.57049 0.0
N8 N 0.89255 0.83636 0.77136 0.0
C9 C 0.9686 0.81577 0.67358 0.0
C10 C 0.79237 0.7602 0.56778 0.0
Tb11 Tb 0.96513 0.90134 0.94338 0.0
N12 N 0.75085 0.86568 0.9666 0.0
C13 C 0.68036 0.87426 0.06945 0.0
C14 C 0.49135 0.82102 0.98113 0.0
C15 C 0.55012 0.85295 0.07827 0.0
H16 H 0.06755 0.83005 0.67423 0.0
H17 H 0.49526 0.86167 0.16016 0.0
H18 H 0.40872 0.75648 0.77656 0.0
H19 H 0.98102 0.76373 0.49319 0.0
H20 H 0.72359 0.8994 0.14572 0.0
H21 H 0.59382 0.12747 0.8433 0.0
H22 H 0.39055 0.80479 0.98819 0.0
H23 H 1.02167 0.15882 0.32947 0.0
H24 H 0.36549 0.08967 0.85782 0.0
H25 H 0.10829 0.22509 0.51047 0.0
H26 H 0.54123 0.72959 0.59446 0.0
H27 H 0.69862 0.18434 0.01522 0.0
H28 H 0.68055 0.23258 0.22683 0.0
H29 H 0.75492 0.73118 0.48788 0.0
H30 H 0.5481 0.25937 0.40898 0.0
N31 N 0.3383 0.12337 0.03694 0.0
C32 C 0.40875 0.11481 0.93407 0.0
C33 C 0.59781 0.16809 0.02232 0.0
C34 C 0.52581 0.18029 0.12757 0.0
C35 C 0.53899 0.13615 0.9252 0.0
C36 C 0.39493 0.15768 0.13186 0.0
H37 H 0.33443 0.25769 0.51566 0.0
N38 N 0.19666 0.15257 0.23223 0.0
C39 C 0.16931 0.21052 0.43313 0.0
C40 C 0.3213 0.17281 0.23345 0.0
C41 C 0.12064 0.17311 0.33007 0.0
C42 C 0.29694 0.22869 0.43578 0.0
C43 C 0.37506 0.21076 0.33491 0.0
O44 O 0.05056 0.16961 0.11404 0.0
O45 O 0.95383 0.00489 0.01072 0.0
O46 O 0.97107 0.94559 0.8232 0.0
O47 O 0.1419 0.04605 0.87426 0.0
O48 O 0.9374 0.0896 0.14934 0.0
O49 O 0.1862 0.1526 0.9669 0.0
O50 O 1.03847 0.81935 0.8897 0.0
O51 O 0.13518 0.9841 0.99268 0.0
O52 O 0.11823 0.04334 0.18028 0.0
O53 O 0.94726 0.94297 0.12934 0.0
O54 O 0.15183 0.89932 0.85446 0.0
O55 O 0.90284 0.83644 0.03683 0.0
C56 C 0.87484 0.03054 0.08384 0.0
C57 C 0.17567 0.26671 0.06473 0.0
C58 C 0.18045 0.37468 0.05809 0.0
C59 C 0.12929 0.30222 0.0287 0.0
C60 C 0.27919 0.41111 0.12466 0.0
C61 C 0.27428 0.30363 0.13062 0.0
C62 C 0.32573 0.37565 0.16036 0.0
C63 C 0.06114 -0.00128 0.80231 0.0
C64 C 0.11741 0.19137 0.03346 0.0
C65 C 0.50492 0.2308 0.33193 0.0
C66 C 0.58027 0.21557 0.22828 0.0
C67 C 0.21434 0.95846 0.91983 0.0
C68 C 0.91326 0.72231 0.93912 0.0
C69 C 0.95963 0.6868 0.97517 0.0
C70 C 0.90842 0.61435 0.94582 0.0
C71 C 0.80967 0.57792 0.87928 0.0
C72 C 0.81462 0.68539 0.87326 0.0
C73 C 0.76314 0.61337 0.84357 0.0
C74 C 1.02814 0.99023 0.20121 0.0
C75 C 0.97158 0.79764 0.97032 0.0
H76 H 0.05173 0.27333 0.9791 0.0
H77 H 0.32142 0.46683 0.14793 0.0
H78 H 0.31099 0.27695 0.15911 0.0
H79 H 0.402 0.40411 0.21119 0.0
H80 H 1.03721 0.71569 0.02475 0.0
H81 H 0.76741 0.5222 0.85604 0.0
H82 H 0.77793 0.71207 0.84476 0.0
H83 H 0.68685 0.58492 0.79276 0.0
H84 H 0.19093 0.0633 0.35805 0.0
H85 H 0.83824 0.90075 0.28942 0.0
H86 H 0.81803 0.88887 0.46834 0.0
H87 H 0.89841 0.92562 0.64543 0.0
H88 H 0.25106 0.08819 0.7141 0.0
H89 H 0.2713 0.10006 0.53515 0.0
C90 C 0.10889 0.02577 0.38251 0.0
C91 C 1.01576 0.98357 0.31048 0.0
C92 C 0.09744 0.01928 0.48583 0.0
C93 C 0.91138 0.9342 0.34301 0.0
C94 C 0.89953 0.92734 0.44554 0.0
C95 C 0.98045 0.96315 0.62097 0.0
C96 C 0.07356 0.00537 0.69302 0.0
C97 C 0.9919 0.96964 0.51765 0.0
C98 C 0.17794 0.05473 0.66049 0.0
C99 C 0.18981 0.06159 0.55795 0.0
H100 H 0.31405 0.0063 0.1146 0.0
H101 H 0.40145 0.93433 0.75386 0.0
H102 H 0.61374 0.94801 0.77093 0.0
H103 H 0.77514 0.98281 0.88914 0.0
H104 H 0.68779 0.05482 0.24989 0.0
H105 H 0.4755 0.04118 0.23283 0.0
C106 C 0.38023 -0.00499 0.04001 0.0
C107 C 0.34385 0.97169 0.93326 0.0
C108 C 0.50177 0.00293 0.05063 0.0
C109 C 0.42883 0.954 0.83697 0.0
C110 C 0.54988 0.96172 0.84669 0.0
C111 C 0.70898 0.99414 0.96373 0.0
C112 C 0.74536 0.01745 0.07048 0.0
C113 C 0.58746 0.98625 0.95313 0.0
C114 C 0.66041 0.03517 0.16678 0.0
C115 C 0.53936 0.02747 0.15707 0.0
H116 H 0.95813 0.49199 0.82453 0.0
H117 H 0.97226 0.65376 0.15421 0.0
H118 H 0.05988 0.59503 0.21718 0.0
H119 H 0.13073 0.49703 0.17938 0.0
H120 H 0.11663 0.33527 0.8497 0.0
H121 H 1.029 0.394 0.78674 0.0
C122 C 0.97926 0.51403 0.91046 0.0
C123 C 0.95875 0.57726 0.98437 0.0
C124 C 1.02949 0.4799 0.94628 0.0
C125 C 0.98846 0.60561 0.09506 0.0
C126 C 1.03811 0.5719 0.13135 0.0
C127 C 0.10961 0.47499 0.09345 0.0
C128 C 0.13012 0.41176 0.01954 0.0
C129 C 0.05938 0.50912 0.05763 0.0
C130 C 0.10042 0.38342 0.90885 0.0
C131 C 0.05076 0.41712 0.87256 0.0
loop_
_geom_bond_atom_site_label_1
_geom_bond_atom_site_label_2
_geom_bond_distance
_geom_bond_site_symmetry_2
_ccdc_geom_bond_type
Tb0 N31 2.660 1_554 S
Tb0 N38 2.600 . S
Tb0 O44 2.546 . S
Tb0 O45 2.610 1_444 S
Tb0 O47 2.320 1_554 S
Tb0 O48 2.552 1_455 S
Tb0 O49 2.413 . S
Tb0 O51 2.362 . S
Tb0 O52 2.422 1_455 S
Tb0 C64 2.833 . S
C1 C4 1.432 . S
C1 C5 1.414 . S
C1 N8 1.359 . S
C2 C4 1.417 . S
C2 C6 1.432 . S
C2 C14 1.410 1_556 S
C3 C5 1.444 . S
C3 C6 1.317 . S
C3 H26 0.929 . S
C4 C1 1.432 . S
C4 C2 1.417 . S
C4 N12 1.360 1_556 S
C5 C1 1.414 . S
C5 C3 1.444 . S
C5 C10 1.385 . S
C6 C2 1.432 . S
C6 C3 1.317 . S
C6 H18 0.930 . S
C7 C9 1.392 . S
C7 C10 1.370 . S
C7 H19 0.931 . S
N8 C1 1.359 . S
N8 C9 1.327 . S
N8 Tb11 2.600 . S
C9 C7 1.392 . S
C9 N8 1.327 . S
C9 H16 0.930 . S
C10 C5 1.385 . S
C10 C7 1.370 . S
C10 H29 0.930 . S
Tb11 N8 2.600 . S
Tb11 N12 2.660 1_556 S
Tb11 O45 2.362 . S
Tb11 O46 2.421 1_655 S
Tb11 O50 2.546 . S
Tb11 O51 2.610 1_666 S
Tb11 O53 2.320 1_556 S
Tb11 O54 2.552 1_655 S
Tb11 O55 2.413 . S
Tb11 C75 2.833 . S
N12 C4 1.360 1_554 S
N12 Tb11 2.660 1_554 S
N12 C13 1.305 . S
C13 N12 1.305 . S
C13 C15 1.407 . S
C13 H20 0.930 . S
C14 C2 1.410 1_554 S
C14 C15 1.345 . S
C14 H22 0.930 . S
C15 C13 1.407 . S
C15 C14 1.345 . S
C15 H17 0.930 . S
H16 C9 0.930 . S
H17 C15 0.930 . S
H18 C6 0.930 . S
H19 C7 0.931 . S
H20 C13 0.930 . S
H21 C35 0.930 . S
H22 C14 0.930 . S
H23 C41 0.930 . S
H24 C32 0.930 . S
H25 C39 0.931 . S
H26 C3 0.929 . S
H27 C33 0.930 . S
H28 C66 0.930 . S
H29 C10 0.930 . S
H30 C65 0.929 . S
N31 Tb0 2.660 1_556 S
N31 C32 1.305 . S
N31 C36 1.360 1_556 S
C32 H24 0.930 . S
C32 N31 1.305 . S
C32 C35 1.407 . S
C33 H27 0.930 . S
C33 C34 1.410 1_556 S
C33 C35 1.345 . S
C34 C33 1.410 1_554 S
C34 C36 1.417 . S
C34 C66 1.432 . S
C35 H21 0.930 . S
C35 C32 1.407 . S
C35 C33 1.345 . S
C36 N31 1.360 1_554 S
C36 C34 1.417 . S
C36 C40 1.432 . S
H37 C42 0.930 . S
N38 Tb0 2.600 . S
N38 C40 1.359 . S
N38 C41 1.327 . S
C39 H25 0.931 . S
C39 C41 1.392 . S
C39 C42 1.370 . S
C40 C36 1.432 . S
C40 N38 1.359 . S
C40 C43 1.414 . S
C41 H23 0.930 . S
C41 N38 1.327 . S
C41 C39 1.392 . S
C42 H37 0.930 . S
C42 C39 1.370 . S
C42 C43 1.385 . S
C43 C40 1.414 . S
C43 C42 1.385 . S
C43 C65 1.444 . S
O44 Tb0 2.546 . S
O44 C64 1.251 . S
O45 Tb0 2.610 1_666 S
O45 Tb11 2.362 . S
O45 C56 1.283 1_566 S
O46 Tb11 2.421 1_455 S
O46 C63 1.262 . S
O47 Tb0 2.320 1_556 S
O47 C63 1.260 1_545 S
O48 Tb0 2.552 1_655 S
O48 C56 1.243 . S
O49 Tb0 2.413 . S
O49 C64 1.256 . S
O50 Tb11 2.546 . S
O50 C75 1.251 . S
O51 Tb0 2.362 . S
O51 Tb11 2.610 1_444 S
O51 C67 1.283 1_544 S
O52 Tb0 2.422 1_655 S
O52 C74 1.258 . S
O53 Tb11 2.320 1_554 S
O53 C74 1.260 1_565 S
O54 Tb11 2.552 1_455 S
O54 C67 1.243 . S
O55 Tb11 2.413 . S
O55 C75 1.256 . S
C56 O45 1.283 1_544 S
C56 O48 1.243 . S
C57 C59 1.382 . S
C57 C61 1.393 . S
C57 C64 1.500 . S
C58 C59 1.400 . S
C58 C60 1.384 . S
C59 C57 1.382 . S
C59 C58 1.400 . S
C59 H76 0.930 1_554 S
C60 C58 1.384 . S
C60 C62 1.392 . S
C60 H77 0.931 . S
C61 C57 1.393 . S
C61 C62 1.401 . S
C61 H78 0.930 . S
C62 C60 1.392 . S
C62 C61 1.401 . S
C62 H79 0.930 . S
C63 O46 1.262 . S
C63 O47 1.260 1_565 S
C64 Tb0 2.833 . S
C64 O44 1.251 . S
C64 O49 1.256 . S
C64 C57 1.500 . S
C65 H30 0.929 . S
C65 C43 1.444 . S
C65 C66 1.317 . S
C66 H28 0.930 . S
C66 C34 1.432 . S
C66 C65 1.317 . S
C67 O51 1.283 1_566 S
C67 O54 1.243 . S
C68 C69 1.382 . S
C68 C72 1.393 . S
C68 C75 1.500 . S
C69 C68 1.382 . S
C69 C70 1.400 . S
C69 H80 0.930 1_556 S
C70 C69 1.400 . S
C70 C71 1.384 . S
C71 C70 1.384 . S
C71 C73 1.392 . S
C71 H81 0.931 . S
C72 C68 1.393 . S
C72 C73 1.401 . S
C72 H82 0.930 . S
C73 C71 1.392 . S
C73 C72 1.401 . S
C73 H83 0.930 . S
C74 O52 1.258 . S
C74 O53 1.260 1_545 S
C75 Tb11 2.833 . S
C75 O50 1.251 . S
C75 O55 1.256 . S
C75 C68 1.500 . S
H76 C59 0.930 1_556 S
H77 C60 0.931 . S
H78 C61 0.930 . S
H79 C62 0.930 . S
H80 C69 0.930 1_554 S
H81 C71 0.931 . S
H82 C72 0.930 . S
H83 C73 0.930 . S
H84 C90 0.930 . S
H85 C93 0.930 . S
H86 C94 0.930 . S
H87 C95 0.930 . S
H88 C98 0.930 . S
H89 C99 0.930 . S
C90 H84 0.930 . S
C90 C91 1.355 1_445 S
C90 C92 1.415 . S
C91 C90 1.355 1_665 S
C91 C93 1.419 . S
C92 C90 1.415 . S
C92 C97 1.425 1_445 S
C92 C99 1.409 . S
C93 H85 0.930 . S
C93 C91 1.419 . S
C93 C94 1.362 . S
C94 H86 0.930 . S
C94 C93 1.362 . S
C94 C97 1.409 . S
C95 H87 0.930 . S
C95 C96 1.355 1_665 S
C95 C97 1.415 . S
C96 C95 1.355 1_445 S
C96 C98 1.419 . S
C97 C92 1.425 1_665 S
C97 C94 1.409 . S
C97 C95 1.415 . S
C98 H88 0.930 . S
C98 C96 1.419 . S
C98 C99 1.362 . S
C99 H89 0.930 . S
C99 C92 1.409 . S
C99 C98 1.362 . S
H100 C106 0.930 . S
H101 C109 0.930 . S
H102 C110 0.930 . S
H103 C111 0.930 . S
H104 C114 0.930 . S
H105 C115 0.930 . S
C106 H100 0.930 . S
C106 C107 1.355 1_564 S
C106 C108 1.415 . S
C107 C106 1.355 1_546 S
C107 C109 1.419 . S
C108 C106 1.415 . S
C108 C113 1.425 1_564 S
C108 C115 1.409 . S
C109 H101 0.930 . S
C109 C107 1.419 . S
C109 C110 1.362 . S
C110 H102 0.930 . S
C110 C109 1.362 . S
C110 C113 1.409 . S
C111 H103 0.930 . S
C111 C112 1.355 1_546 S
C111 C113 1.415 . S
C112 C111 1.355 1_564 S
C112 C114 1.419 . S
C113 C108 1.425 1_546 S
C113 C110 1.409 . S
C113 C111 1.415 . S
C114 H104 0.930 . S
C114 C112 1.419 . S
C114 C115 1.362 . S
C115 H105 0.930 . S
C115 C108 1.409 . S
C115 C114 1.362 . S
H116 C122 0.930 . S
H117 C125 0.930 . S
H118 C126 0.930 . S
H119 C127 0.930 . S
H120 C130 0.930 . S
H121 C131 0.930 . S
C122 H116 0.930 . S
C122 C123 1.355 1_456 S
C122 C124 1.415 . S
C123 C122 1.355 1_654 S
C123 C125 1.419 . S
C124 C122 1.415 . S
C124 C129 1.425 1_456 S
C124 C131 1.409 . S
C125 H117 0.930 . S
C125 C123 1.419 . S
C125 C126 1.362 . S
C126 H118 0.930 . S
C126 C125 1.362 . S
C126 C129 1.409 . S
C127 H119 0.930 . S
C127 C128 1.355 1_654 S
C127 C129 1.415 . S
C128 C127 1.355 1_456 S
C128 C130 1.419 . S
C129 C124 1.425 1_654 S
C129 C126 1.409 . S
C129 C127 1.415 . S
C130 H120 0.930 . S
C130 C128 1.419 . S
C130 C131 1.362 . S
C131 H121 0.930 . S
C131 C124 1.409 . S
C131 C130 1.362 . S
C91 C74 1.451 1_565 S
C96 C63 1.451 1_545 S
C107 C67 1.447 1_545 S
C112 C56 1.447 1_565 S
C123 C70 1.323 1_554 S
C128 C58 1.323 1_556 S
