# Generated by pormake.
# Topology bto, (3)-cn, num edge types: 1
# Building blocks:
#     Node 0, Type 0, BuildingBlock: OLANEW_clean_sbu_2, # of connection points: 3
#     Node 1, Type 0, BuildingBlock: OLANEW_clean_sbu_2, # of connection points: 3
#     Node 2, Type 0, BuildingBlock: OLANEW_clean_sbu_2, # of connection points: 3
#     Node 3, Type 0, BuildingBlock: OLANEW_clean_sbu_2, # of connection points: 3
#     Node 4, Type 0, BuildingBlock: OLANEW_clean_sbu_2, # of connection points: 3
#     Node 5, Type 0, BuildingBlock: OLANEW_clean_sbu_2, # of connection points: 3
#     Edge 6, Type (0, 0), BuildingBlock: AJUNOK_clean_linker_0, # of connection points: 2
#     Edge 7, Type (0, 0), BuildingBlock: AJUNOK_clean_linker_0, # of connection points: 2
#     Edge 8, Type (0, 0), BuildingBlock: AJUNOK_clean_linker_0, # of connection points: 2
#     Edge 9, Type (0, 0), BuildingBlock: AJUNOK_clean_linker_0, # of connection points: 2
#     Edge 10, Type (0, 0), BuildingBlock: AJUNOK_clean_linker_0, # of connection points: 2
#     Edge 11, Type (0, 0), BuildingBlock: AJUNOK_clean_linker_0, # of connection points: 2
#     Edge 12, Type (0, 0), BuildingBlock: AJUNOK_clean_linker_0, # of connection points: 2
#     Edge 13, Type (0, 0), BuildingBlock: AJUNOK_clean_linker_0, # of connection points: 2
#     Edge 14, Type (0, 0), BuildingBlock: AJUNOK_clean_linker_0, # of connection points: 2
# Relax obj value: 0.000
# Max RMSD: 0.048
# Mean RMSD: 0.047
data_MOF--net-bto--node1-OLANEW_clean_sbu_2--edge1-AJUNOK_clean_linker_0
_symmetry_space_group_name_H-M    P1
_symmetry_Int_Tables_number       1
_symmetry_cell_setting            triclinic
loop_
_symmetry_equiv_pos_as_xyz
'x, y, z'
_cell_length_a     24.502207
_cell_length_b     24.566551
_cell_length_c     42.356643
_cell_angle_alpha  81.938728
_cell_angle_beta   89.765183
_cell_angle_gamma 120.33193
loop_
_atom_site_label
_atom_site_type_symbol
_atom_site_fract_x
_atom_site_fract_y
_atom_site_fract_z
_atom_type_partial_charge
O0 O 0.125 0.6215 0.08872 0.0
Cd1 Cd 0.1145 0.57556 0.04009 0.0
O2 O 0.08646 0.68196 0.06992 0.0
Cd3 Cd 0.05192 0.63631 0.02797 0.0
O4 O 0.96088 0.5845 0.00801 0.0
C5 C 0.92344 0.60495 0.01227 0.0
O6 O 0.94392 0.6558 0.02606 0.0
C7 C 0.11138 0.66399 0.09214 0.0
C8 C 0.22362 0.57271 0.02409 0.0
O9 O 0.21758 0.62045 0.01285 0.0
O10 O 0.17773 0.52609 0.0428 0.0
O11 O 0.51416 0.20011 0.43184 0.0
Cd12 Cd 0.5442 0.24968 0.37551 0.0
O13 O 0.41315 0.15463 0.42339 0.0
Cd14 Cd 0.42498 0.17505 0.37133 0.0
O15 O 0.37808 0.10358 0.34032 0.0
C16 C 0.31798 0.07663 0.34133 0.0
O17 O 0.28956 0.09804 0.35794 0.0
C18 C 0.45606 0.166 0.44254 0.0
C19 C 0.66852 0.35309 0.36233 0.0
O20 O 0.6226 0.36153 0.36921 0.0
O21 O 0.65558 0.29562 0.36231 0.0
O22 O 0.55556 0.55826 0.74655 0.0
Cd23 Cd 0.54576 0.58665 0.68981 0.0
O24 O 0.4547 0.48455 0.75819 0.0
Cd25 Cd 0.42736 0.52105 0.71532 0.0
O26 O 0.40218 0.58439 0.68655 0.0
C27 C 0.43396 0.64291 0.68966 0.0
O28 O 0.48045 0.66077 0.70848 0.0
C29 C 0.51124 0.51309 0.76619 0.0
C30 C 0.514 0.48372 0.65778 0.0
O31 O 0.57199 0.52312 0.66172 0.0
O32 O 0.47156 0.49388 0.66839 0.0
O33 O 0.33216 0.95521 0.57072 0.0
Cd34 Cd 0.28684 0.88602 0.62234 0.0
O35 O 0.39257 0.03477 0.59569 0.0
Cd36 Cd 0.45306 0.13619 0.598 0.0
O37 O 0.48701 0.23218 0.608 0.0
C38 C 0.44606 0.24923 0.60904 0.0
O39 O 0.38776 0.20927 0.60302 0.0
C40 C 0.37397 0.01375 0.56968 0.0
C41 C 0.34202 0.81241 0.63998 0.0
O42 O 0.29283 0.79138 0.62416 0.0
O43 O 0.36515 0.86847 0.64719 0.0
O44 O 0.51736 0.42038 0.91922 0.0
Cd45 Cd 0.52793 0.41118 0.97669 0.0
O46 O 0.55685 0.52418 0.91409 0.0
Cd47 Cd 0.53084 0.51961 0.96406 0.0
O48 O 0.45896 0.52408 0.99239 0.0
C49 C 0.44546 0.56569 0.98021 0.0
O50 O 0.47794 0.60391 0.95359 0.0
C51 C 0.53887 0.47441 0.90147 0.0
C52 C 0.65671 0.47155 0.98714 0.0
O53 O 0.62594 0.41265 0.9837 0.0
O54 O 0.62623 0.50138 0.98615 0.0
O55 O 0.11462 0.69022 0.24323 0.0
Cd56 Cd 0.09674 0.6952 0.29906 0.0
O57 O 0.051 0.72531 0.22739 0.0
Cd58 Cd 0.00445 0.70152 0.27546 0.0
O59 O 0.92343 0.62824 0.30822 0.0
C60 C 0.91545 0.57234 0.31217 0.0
O61 O 0.95808 0.56397 0.29826 0.0
C62 C 0.09177 0.71023 0.2207 0.0
C63 C 0.16749 0.82199 0.30885 0.0
O64 O 0.19141 0.78585 0.31135 0.0
O65 O 0.10976 0.79785 0.302 0.0
C66 C 0.13726 0.66012 0.14919 0.0
C67 C 0.11713 0.68647 0.12341 0.0
C68 C 0.13243 0.67126 0.18033 0.0
C69 C 0.10699 0.70893 0.18701 0.0
H70 H 0.15418 0.62815 0.14567 0.0
H71 H 0.1457 0.64728 0.19952 0.0
S72 S 0.05806 0.79834 0.12732 0.0
N73 N 0.07873 0.7591 0.10612 0.0
N74 N 0.06933 0.77953 0.1647 0.0
C75 C 0.09121 0.73954 0.16116 0.0
C76 C 0.09644 0.72849 0.12937 0.0
C77 C 0.35267 0.05112 0.51622 0.0
C78 C 0.39653 0.05706 0.53863 0.0
C79 C 0.37237 0.08883 0.48586 0.0
C80 C 0.43703 0.13341 0.4764 0.0
H81 H 0.30258 0.01663 0.52212 0.0
H82 H 0.33643 0.08136 0.46939 0.0
S83 S 0.57089 0.16678 0.5267 0.0
N84 N 0.50729 0.11056 0.54979 0.0
N85 N 0.54487 0.18195 0.49259 0.0
C86 C 0.4814 0.14066 0.49895 0.0
C87 C 0.46104 0.10233 0.53008 0.0
C88 C 0.57821 0.53834 0.8466 0.0
C89 C 0.53759 0.47945 0.86629 0.0
C90 C 0.5719 0.54752 0.81374 0.0
C91 C 0.52386 0.49855 0.79948 0.0
H92 H 0.61401 0.57834 0.85682 0.0
H93 H 0.60272 0.59444 0.7998 0.0
S94 S 0.40921 0.33349 0.83977 0.0
N95 N 0.45113 0.36968 0.86858 0.0
N96 N 0.43844 0.38748 0.80689 0.0
C97 C 0.48497 0.43847 0.81853 0.0
C98 C 0.49211 0.42874 0.85192 0.0
C99 C 0.3262 0.61856 0.9907 0.0
C100 C 0.2814 0.57121 0.01495 0.0
C101 C 0.37966 0.61702 0.98032 0.0
C102 C 0.39095 0.56826 -0.00618 0.0
H103 H 0.31949 0.6567 0.9791 0.0
H104 H 0.4119 0.6541 0.96115 0.0
S105 S 0.29036 0.43493 0.0596 0.0
N106 N 0.25343 0.47555 0.05332 0.0
N107 N 0.35406 0.4728 0.03387 0.0
C108 C 0.34757 0.52157 0.01879 0.0
C109 C 0.2928 0.52297 0.0293 0.0
C110 C 0.74458 0.47116 0.34861 0.0
C111 C 0.73376 0.40848 0.3529 0.0
C112 C 0.80412 0.52404 0.33667 0.0
C113 C 0.85539 0.51651 0.32848 0.0
H114 H 0.70628 0.47954 0.35359 0.0
H115 H 0.80922 0.57098 0.33288 0.0
S116 S 0.85423 0.3632 0.3387 0.0
N117 N 0.78107 0.34249 0.35053 0.0
N118 N 0.89277 0.44167 0.32818 0.0
C119 C 0.84612 0.45439 0.33413 0.0
C120 C 0.78543 0.40049 0.34629 0.0
C121 C 0.33755 0.70737 0.64655 0.0
C122 C 0.36952 0.77188 0.65068 0.0
C123 C 0.35976 0.66661 0.65841 0.0
C124 C 0.41493 0.68863 0.67487 0.0
H125 H 0.29407 0.68755 0.6347 0.0
H126 H 0.33245 0.61702 0.65522 0.0
S127 S 0.51952 0.85505 0.68953 0.0
N128 N 0.46166 0.85702 0.6706 0.0
N129 N 0.50347 0.78057 0.69281 0.0
C130 C 0.44875 0.75369 0.67812 0.0
C131 C 0.42604 0.79522 0.66607 0.0
C132 C 0.81908 0.59846 0.00619 0.0
C133 C 0.85666 0.57056 0.00398 0.0
C134 C 0.75492 0.56628 0.0004 0.0
C135 C 0.72528 0.50455 0.99233 0.0
H136 H 0.83912 0.64556 0.01271 0.0
H137 H 0.72823 0.58992 0.00269 0.0
S138 S 0.80286 0.41071 0.98231 0.0
N139 N 0.85982 0.47794 0.99225 0.0
N140 N 0.73905 0.41727 0.98149 0.0
C141 C 0.76243 0.47628 0.98954 0.0
C142 C 0.82809 0.50932 -0.00472 0.0
C143 C 0.30778 0.97887 0.32407 0.0
C144 C 0.28013 0.01544 0.32916 0.0
C145 C 0.27114 0.91693 0.31697 0.0
C146 C 0.20547 0.88923 0.3143 0.0
H147 H 0.35772 0.99713 0.3268 0.0
H148 H 0.29447 0.89022 0.31409 0.0
S149 S 0.11127 0.96754 0.32221 0.0
N150 N 0.18395 0.02126 0.32881 0.0
N151 N 0.11513 0.90512 0.31514 0.0
C152 C 0.17775 0.92643 0.31783 0.0
C153 C 0.21504 0.9894 0.32534 0.0
C154 C 0.52562 0.35312 0.62536 0.0
C155 C 0.46281 0.31102 0.61905 0.0
C156 C 0.54204 0.4097 0.63697 0.0
C157 C 0.49631 0.42644 0.64288 0.0
H158 H 0.56244 0.3419 0.62186 0.0
H159 H 0.59077 0.43969 0.64206 0.0
S160 S 0.32588 0.33507 0.62826 0.0
N161 N 0.35518 0.29191 0.61803 0.0
N162 N 0.38602 0.39796 0.63991 0.0
C163 C 0.43368 0.38582 0.63576 0.0
C164 C 0.41697 0.32826 0.62382 0.0
loop_
_geom_bond_atom_site_label_1
_geom_bond_atom_site_label_2
_geom_bond_distance
_geom_bond_site_symmetry_2
_ccdc_geom_bond_type
O0 Cd1 2.300 . S
O0 C7 1.275 . S
Cd1 O0 2.300 . S
Cd1 O9 2.381 . S
Cd1 O10 2.378 . S
O2 Cd3 2.385 1_455 S
O2 C7 1.255 . S
Cd3 O2 2.385 1_655 S
Cd3 O4 2.317 . S
O4 Cd3 2.317 . S
O4 C5 1.232 . S
C5 O4 1.232 . S
C5 O6 1.218 . S
O6 C5 1.218 . S
C7 O0 1.275 . S
C7 O2 1.255 . S
C8 O9 1.258 . S
C8 O10 1.256 . S
O9 Cd1 2.381 . S
O9 C8 1.258 . S
O10 Cd1 2.378 . S
O10 C8 1.256 . S
O11 Cd12 2.300 . S
O11 C18 1.275 . S
Cd12 O11 2.300 . S
Cd12 O20 2.381 . S
Cd12 O21 2.378 . S
O13 Cd14 2.385 . S
O13 C18 1.255 . S
Cd14 O13 2.385 . S
Cd14 O15 2.317 . S
O15 Cd14 2.317 . S
O15 C16 1.232 . S
C16 O15 1.232 . S
C16 O17 1.218 1_545 S
O17 C16 1.218 1_565 S
C18 O11 1.275 . S
C18 O13 1.255 . S
C19 O20 1.258 . S
C19 O21 1.256 . S
O20 Cd12 2.381 . S
O20 C19 1.258 . S
O21 Cd12 2.378 . S
O21 C19 1.256 . S
O22 Cd23 2.300 . S
O22 C29 1.275 . S
Cd23 O22 2.300 . S
Cd23 O31 2.381 . S
Cd23 O32 2.378 . S
O24 Cd25 2.385 . S
O24 C29 1.255 . S
Cd25 O24 2.385 . S
Cd25 O26 2.317 . S
O26 Cd25 2.317 . S
O26 C27 1.232 . S
C27 O26 1.232 . S
C27 O28 1.218 . S
O28 C27 1.218 . S
C29 O22 1.275 . S
C29 O24 1.255 . S
C30 O31 1.258 . S
C30 O32 1.256 . S
O31 Cd23 2.381 . S
O31 C30 1.258 . S
O32 Cd23 2.378 . S
O32 C30 1.256 . S
O33 Cd34 2.300 . S
O33 C40 1.275 1_565 S
Cd34 O33 2.300 . S
Cd34 O42 2.381 . S
Cd34 O43 2.378 . S
O35 Cd36 2.385 . S
O35 C40 1.255 . S
Cd36 O35 2.385 . S
Cd36 O37 2.317 . S
O37 Cd36 2.317 . S
O37 C38 1.232 . S
C38 O37 1.232 . S
C38 O39 1.218 . S
O39 C38 1.218 . S
C40 O33 1.275 1_545 S
C40 O35 1.255 . S
C41 O42 1.258 . S
C41 O43 1.256 . S
O42 Cd34 2.381 . S
O42 C41 1.258 . S
O43 Cd34 2.378 . S
O43 C41 1.256 . S
O44 Cd45 2.300 . S
O44 C51 1.275 . S
Cd45 O44 2.300 . S
Cd45 O53 2.381 . S
Cd45 O54 2.378 . S
O46 Cd47 2.385 . S
O46 C51 1.255 . S
Cd47 O46 2.385 . S
Cd47 O48 2.317 . S
O48 Cd47 2.317 . S
O48 C49 1.232 . S
C49 O48 1.232 . S
C49 O50 1.218 . S
O50 C49 1.218 . S
C51 O44 1.275 . S
C51 O46 1.255 . S
C52 O53 1.258 . S
C52 O54 1.256 . S
O53 Cd45 2.381 . S
O53 C52 1.258 . S
O54 Cd45 2.378 . S
O54 C52 1.256 . S
O55 Cd56 2.300 . S
O55 C62 1.275 . S
Cd56 O55 2.300 . S
Cd56 O64 2.381 . S
Cd56 O65 2.378 . S
O57 Cd58 2.385 1_455 S
O57 C62 1.255 . S
Cd58 O57 2.385 1_655 S
Cd58 O59 2.317 . S
O59 Cd58 2.317 . S
O59 C60 1.232 . S
C60 O59 1.232 . S
C60 O61 1.218 . S
O61 C60 1.218 . S
C62 O55 1.275 . S
C62 O57 1.255 . S
C63 O64 1.258 . S
C63 O65 1.256 . S
O64 Cd56 2.381 . S
O64 C63 1.258 . S
O65 Cd56 2.378 . S
O65 C63 1.256 . S
C66 C67 1.369 . S
C66 C68 1.419 . S
C66 H70 0.930 . S
C67 C66 1.369 . S
C67 C76 1.429 . S
C68 C66 1.419 . S
C68 C69 1.363 . S
C68 H71 0.929 . S
C69 C68 1.363 . S
C69 C75 1.428 . S
H70 C66 0.930 . S
H71 C68 0.929 . S
S72 N73 1.613 . S
S72 N74 1.610 . S
N73 S72 1.613 . S
N73 C76 1.350 1_655 S
N74 S72 1.610 . S
N74 C75 1.351 1_655 S
C75 C69 1.428 . S
C75 N74 1.351 1_455 S
C75 C76 1.434 . S
C76 C67 1.429 . S
C76 N73 1.350 1_455 S
C76 C75 1.434 . S
C77 C78 1.369 . S
C77 C79 1.419 . S
C77 H81 0.930 . S
C78 C77 1.369 . S
C78 C87 1.429 . S
C79 C77 1.419 . S
C79 C80 1.363 . S
C79 H82 0.929 . S
C80 C79 1.363 . S
C80 C86 1.428 . S
H81 C77 0.930 . S
H82 C79 0.929 . S
S83 N84 1.613 . S
S83 N85 1.610 . S
N84 S83 1.613 . S
N84 C87 1.350 . S
N85 S83 1.610 . S
N85 C86 1.351 . S
C86 C80 1.428 . S
C86 N85 1.351 . S
C86 C87 1.434 . S
C87 C78 1.429 . S
C87 N84 1.350 . S
C87 C86 1.434 . S
C88 C89 1.369 . S
C88 C90 1.419 . S
C88 H92 0.930 . S
C89 C88 1.369 . S
C89 C98 1.429 . S
C90 C88 1.419 . S
C90 C91 1.363 . S
C90 H93 0.929 . S
C91 C90 1.363 . S
C91 C97 1.428 . S
H92 C88 0.930 . S
H93 C90 0.929 . S
S94 N95 1.613 . S
S94 N96 1.610 . S
N95 S94 1.613 . S
N95 C98 1.350 . S
N96 S94 1.610 . S
N96 C97 1.351 . S
C97 C91 1.428 . S
C97 N96 1.351 . S
C97 C98 1.434 . S
C98 C89 1.429 . S
C98 N95 1.350 . S
C98 C97 1.434 . S
C99 C100 1.369 1_556 S
C99 C101 1.419 . S
C99 H103 0.930 . S
C100 C99 1.369 1_554 S
C100 C109 1.429 . S
C101 C99 1.419 . S
C101 C102 1.363 . S
C101 H104 0.929 . S
C102 C101 1.363 . S
C102 C108 1.428 1_556 S
H103 C99 0.930 . S
H104 C101 0.929 . S
S105 N106 1.613 . S
S105 N107 1.610 . S
N106 S105 1.613 . S
N106 C109 1.350 . S
N107 S105 1.610 . S
N107 C108 1.351 . S
C108 C102 1.428 1_554 S
C108 N107 1.351 . S
C108 C109 1.434 . S
C109 C100 1.429 . S
C109 N106 1.350 . S
C109 C108 1.434 . S
C110 C111 1.369 . S
C110 C112 1.419 . S
C110 H114 0.930 . S
C111 C110 1.369 . S
C111 C120 1.429 . S
C112 C110 1.419 . S
C112 C113 1.363 . S
C112 H115 0.929 . S
C113 C112 1.363 . S
C113 C119 1.428 . S
H114 C110 0.930 . S
H115 C112 0.929 . S
S116 N117 1.613 . S
S116 N118 1.610 . S
N117 S116 1.613 . S
N117 C120 1.350 . S
N118 S116 1.610 . S
N118 C119 1.351 . S
C119 C113 1.428 . S
C119 N118 1.351 . S
C119 C120 1.434 . S
C120 C111 1.429 . S
C120 N117 1.350 . S
C120 C119 1.434 . S
C121 C122 1.369 . S
C121 C123 1.419 . S
C121 H125 0.930 . S
C122 C121 1.369 . S
C122 C131 1.429 . S
C123 C121 1.419 . S
C123 C124 1.363 . S
C123 H126 0.929 . S
C124 C123 1.363 . S
C124 C130 1.428 . S
H125 C121 0.930 . S
H126 C123 0.929 . S
S127 N128 1.613 . S
S127 N129 1.610 . S
N128 S127 1.613 . S
N128 C131 1.350 . S
N129 S127 1.610 . S
N129 C130 1.351 . S
C130 C124 1.428 . S
C130 N129 1.351 . S
C130 C131 1.434 . S
C131 C122 1.429 . S
C131 N128 1.350 . S
C131 C130 1.434 . S
C132 C133 1.369 . S
C132 C134 1.419 . S
C132 H136 0.930 . S
C133 C132 1.369 . S
C133 C142 1.429 1_554 S
C134 C132 1.419 . S
C134 C135 1.363 1_554 S
C134 H137 0.929 . S
C135 C134 1.363 1_556 S
C135 C141 1.428 . S
H136 C132 0.930 . S
H137 C134 0.929 . S
S138 N139 1.613 . S
S138 N140 1.610 . S
N139 S138 1.613 . S
N139 C142 1.350 . S
N140 S138 1.610 . S
N140 C141 1.351 . S
C141 C135 1.428 . S
C141 N140 1.351 . S
C141 C142 1.434 . S
C142 C133 1.429 1_556 S
C142 N139 1.350 . S
C142 C141 1.434 . S
C143 C144 1.369 1_565 S
C143 C145 1.419 . S
C143 H147 0.930 1_565 S
C144 C143 1.369 1_545 S
C144 C153 1.429 . S
C145 C143 1.419 . S
C145 C146 1.363 . S
C145 H148 0.929 . S
C146 C145 1.363 . S
C146 C152 1.428 . S
H147 C143 0.930 1_545 S
H148 C145 0.929 . S
S149 N150 1.613 1_565 S
S149 N151 1.610 . S
N150 S149 1.613 1_545 S
N150 C153 1.350 . S
N151 S149 1.610 . S
N151 C152 1.351 . S
C152 C146 1.428 . S
C152 N151 1.351 . S
C152 C153 1.434 1_565 S
C153 C144 1.429 . S
C153 N150 1.350 . S
C153 C152 1.434 1_545 S
C154 C155 1.369 . S
C154 C156 1.419 . S
C154 H158 0.930 . S
C155 C154 1.369 . S
C155 C164 1.429 . S
C156 C154 1.419 . S
C156 C157 1.363 . S
C156 H159 0.929 . S
C157 C156 1.363 . S
C157 C163 1.428 . S
H158 C154 0.930 . S
H159 C156 0.929 . S
S160 N161 1.613 . S
S160 N162 1.610 . S
N161 S160 1.613 . S
N161 C164 1.350 . S
N162 S160 1.610 . S
N162 C163 1.351 . S
C163 C157 1.428 . S
C163 N162 1.351 . S
C163 C164 1.434 . S
C164 C155 1.429 . S
C164 N161 1.350 . S
C164 C163 1.434 . S
C67 C7 1.487 . S
C69 C62 1.488 . S
C78 C40 1.467 . S
C80 C18 1.466 . S
C89 C51 1.488 . S
C91 C29 1.486 . S
C100 C8 1.496 . S
C102 C49 1.324 . S
C111 C19 1.498 . S
C113 C60 1.328 . S
C122 C41 1.497 . S
C124 C27 1.331 . S
C133 C5 1.325 . S
C135 C52 1.496 . S
C144 C16 1.298 . S
C146 C63 1.510 . S
C155 C38 1.305 . S
C157 C30 1.509 . S
