# Generated by pormake.
# Topology unc, (4)-cn, num edge types: 1
# Building blocks:
#     Node 0, Type 0, BuildingBlock: GALJAG_clean_sbu_0, # of connection points: 4
#     Node 1, Type 0, BuildingBlock: GALJAG_clean_sbu_0, # of connection points: 4
#     Node 2, Type 0, BuildingBlock: GALJAG_clean_sbu_0, # of connection points: 4
#     Node 3, Type 0, BuildingBlock: GALJAG_clean_sbu_0, # of connection points: 4
#     Edge 4, Type (0, 0), BuildingBlock: KIFKEQ_clean_linker_1, # of connection points: 2
#     Edge 5, Type (0, 0), BuildingBlock: KIFKEQ_clean_linker_1, # of connection points: 2
#     Edge 6, Type (0, 0), BuildingBlock: KIFKEQ_clean_linker_1, # of connection points: 2
#     Edge 7, Type (0, 0), BuildingBlock: KIFKEQ_clean_linker_1, # of connection points: 2
#     Edge 8, Type (0, 0), BuildingBlock: KIFKEQ_clean_linker_1, # of connection points: 2
#     Edge 9, Type (0, 0), BuildingBlock: KIFKEQ_clean_linker_1, # of connection points: 2
#     Edge 10, Type (0, 0), BuildingBlock: KIFKEQ_clean_linker_1, # of connection points: 2
#     Edge 11, Type (0, 0), BuildingBlock: KIFKEQ_clean_linker_1, # of connection points: 2
# Relax obj value: 0.013
# Max RMSD: 0.034
# Mean RMSD: 0.034
data_MOF--net-unc--node1-GALJAG_clean_sbu_0--edge1-KIFKEQ_clean_linker_1
_symmetry_space_group_name_H-M    P1
_symmetry_Int_Tables_number       1
_symmetry_cell_setting            triclinic
loop_
_symmetry_equiv_pos_as_xyz
'x, y, z'
_cell_length_a     31.901086
_cell_length_b     31.826372
_cell_length_c     21.059897
_cell_angle_alpha  90.014771
_cell_angle_beta   89.826312
_cell_angle_gamma 90.022271
loop_
_atom_site_label
_atom_site_type_symbol
_atom_site_fract_x
_atom_site_fract_y
_atom_site_fract_z
_atom_type_partial_charge
In0 In 1.00365 0.68325 0.98676 0.0
O1 O 0.06615 0.71804 0.9764 0.0
O2 O 0.02936 0.72941 0.05904 0.0
C3 C 0.00587 0.62553 0.8935 0.0
C4 C 0.94476 0.73726 0.9448 0.0
C5 C 1.00164 0.62578 0.08036 0.0
O6 O 0.03706 0.64874 0.90558 0.0
O7 O 0.97381 0.63251 0.92706 0.0
O8 O 0.97022 0.6485 0.06771 0.0
O9 O 0.0338 0.63312 0.04717 0.0
C10 C 0.06253 0.73736 0.02858 0.0
O11 O 0.94132 0.71829 -0.00271 0.0
O12 O 0.97773 0.72896 0.91406 0.0
In13 In 0.32771 1.00362 0.24105 0.0
O14 O 0.28957 0.94306 0.25127 0.0
O15 O 0.28493 0.97692 0.16466 0.0
C16 C 0.38173 0.99668 0.33845 0.0
C17 C 0.27338 0.06274 0.28159 0.0
C18 C 0.38774 0.0104 0.15125 0.0
O19 O 0.36555 0.96489 0.31222 0.0
O20 O 0.36976 0.03157 0.31669 0.0
O21 O 0.36354 0.04068 0.16436 0.0
O22 O 0.38077 0.97725 0.1822 0.0
C23 C 0.27364 0.94533 0.19655 0.0
O24 O 0.29413 0.06677 0.23068 0.0
O25 O 0.27994 0.02897 0.31133 0.0
In26 In 0.00469 0.32828 0.48663 0.0
O27 O 0.06671 0.29284 0.49783 0.0
O28 O 0.0316 0.28327 0.41337 0.0
C29 C 0.00665 0.38594 0.57998 0.0
C30 C 0.94541 0.27437 0.52848 0.0
C31 C 1.00245 0.38616 0.39364 0.0
O32 O 0.03802 0.36307 0.56733 0.0
O33 O 0.97456 0.37866 0.5469 0.0
O34 O 0.97133 0.36279 0.40573 0.0
O35 O 0.03446 0.37925 0.42707 0.0
C36 C 0.06407 0.27453 0.44473 0.0
O37 O 0.94256 0.29292 0.47561 0.0
O38 O 0.97805 0.28292 0.55957 0.0
In39 In 0.6807 0.00588 0.73691 0.0
O40 O 0.71825 0.94507 0.72572 0.0
O41 O 0.72491 0.97952 0.81156 0.0
C42 C 0.62501 0.99895 0.64168 0.0
C43 C 0.73473 0.06482 0.69468 0.0
C44 C 0.62223 0.01175 0.82917 0.0
O45 O 0.64279 0.96726 0.66564 0.0
O46 O 0.63621 0.0338 0.66458 0.0
O47 O 0.64511 0.04268 0.81416 0.0
O48 O 0.62973 0.97846 0.79881 0.0
C49 C 0.73527 0.94761 0.77966 0.0
O50 O 0.71505 0.0687 0.74657 0.0
O51 O 0.72721 0.03131 0.66474 0.0
H52 H 0.06459 0.57167 0.10839 0.0
H53 H 0.93669 0.60207 0.1582 0.0
H54 H 0.06339 0.51316 0.18229 0.0
H55 H 0.93579 0.54373 0.23404 0.0
H56 H 0.93814 0.40822 0.31414 0.0
H57 H 0.93686 0.46671 0.23859 0.0
H58 H 0.06256 0.50099 0.29445 0.0
H59 H 0.0642 0.44234 0.36806 0.0
C60 C 0.03629 0.56608 0.13567 0.0
C61 C 1.00079 0.59158 0.12773 0.0
C62 C 0.03566 0.53259 0.17827 0.0
C63 C 0.99956 0.52385 0.21434 0.0
C64 C 0.96394 0.54938 0.20647 0.0
C65 C 0.96455 0.58297 0.16351 0.0
C66 C 0.96551 0.42818 0.30982 0.0
C67 C 1.00136 0.42054 0.34661 0.0
C68 C 0.96466 0.46185 0.26702 0.0
C69 C 0.99965 0.48846 0.26036 0.0
C70 C 0.03534 0.48073 0.29753 0.0
C71 C 0.03622 0.44715 0.33995 0.0
H72 H 0.43274 0.92996 0.36401 0.0
H73 H 0.40541 0.05721 0.42165 0.0
H74 H 0.49292 0.92873 0.4354 0.0
H75 H 0.46392 0.05549 0.49531 0.0
H76 H 0.59605 0.06098 0.56515 0.0
H77 H 0.53705 0.05813 0.49257 0.0
H78 H 0.51716 0.92758 0.54125 0.0
H79 H 0.57782 0.93015 0.61163 0.0
C80 C 0.43915 0.95733 0.393 0.0
C81 C 0.41469 0.99377 0.38713 0.0
C82 C 0.47358 0.95665 0.43402 0.0
C83 C 0.48379 0.99224 0.4706 0.0
C84 C 0.4579 0.02793 0.46657 0.0
C85 C 0.42404 0.02883 0.42486 0.0
C86 C 0.5793 0.03158 0.55979 0.0
C87 C 0.59141 0.99582 0.59402 0.0
C88 C 0.54514 0.03 0.51869 0.0
C89 C 0.5217 0.99281 0.51173 0.0
C90 C 0.53457 0.95668 0.54495 0.0
C91 C 0.56927 0.95812 0.5854 0.0
H92 H 0.94376 0.56999 0.86727 0.0
H93 H 0.07049 0.60297 0.81429 0.0
H94 H 0.94537 0.51139 0.79349 0.0
H95 H 0.07177 0.54454 0.7386 0.0
H96 H 0.07128 0.40914 0.65819 0.0
H97 H 0.07217 0.46751 0.734 0.0
H98 H 0.94524 0.49924 0.6813 0.0
H99 H 0.94402 0.4407 0.60742 0.0
C100 C 0.97188 0.56494 0.83933 0.0
C101 C 0.00694 0.59121 0.84631 0.0
C102 C 0.97275 0.53139 0.79681 0.0
C103 C 0.00862 0.52336 0.75988 0.0
C104 C 0.04381 0.54964 0.76684 0.0
C105 C 0.04297 0.58328 0.80972 0.0
C106 C 0.04356 0.42851 0.66327 0.0
C107 C 0.0075 0.4202 0.62725 0.0
C108 C 0.04417 0.46211 0.70622 0.0
C109 C 0.00873 0.48798 0.71383 0.0
C110 C 0.97282 0.47956 0.67749 0.0
C111 C 0.97218 0.44604 0.6349 0.0
H112 H 0.40793 0.07593 0.07177 0.0
H113 H 0.44628 0.95096 0.12656 0.0
H114 H 0.46527 0.07841 -0.00603 0.0
H115 H 0.50363 0.95381 0.05083 0.0
H116 H 0.56784 0.94977 0.86063 0.0
H117 H 0.51111 0.95193 0.93742 0.0
H118 H 0.54272 0.08037 0.98361 0.0
H119 H 0.59946 0.07849 0.90473 0.0
C120 C 0.42866 0.04914 0.06735 0.0
C121 C 0.42237 0.01309 0.1047 0.0
C122 C 0.46162 0.05066 0.02321 0.0
C123 C 0.48879 0.01615 0.01582 0.0
C124 C 0.4828 0.98058 0.0543 0.0
C125 C 0.44996 0.97902 0.09795 0.0
C126 C 0.56285 0.97851 0.88716 0.0
C127 C 0.58831 0.01388 0.87698 0.0
C128 C 0.53038 0.97969 0.93146 0.0
C129 C 0.52262 0.01618 0.96715 0.0
C130 C 0.54776 0.05186 0.95656 0.0
C131 C 0.58039 0.05071 0.91181 0.0
H132 H 0.23975 0.8782 0.25919 0.0
H133 H 0.24053 0.94119 0.07753 0.0
H134 H 0.18987 0.82672 0.21802 0.0
H135 H 0.19048 0.88996 0.03658 0.0
H136 H 0.13352 0.76492 0.96836 0.0
H137 H 0.18591 0.81418 0.00894 0.0
H138 H 0.11567 0.82584 0.18373 0.0
H139 H 0.06362 0.77654 0.14348 0.0
C140 C 0.22929 0.88101 0.21049 0.0
C141 C 0.24396 0.91375 0.17163 0.0
C142 C 0.2006 0.85167 0.18701 0.0
C143 C 0.18623 0.85432 0.12406 0.0
C144 C 0.20131 0.88682 0.08504 0.0
C145 C 0.22977 0.9163 0.10863 0.0
C146 C 0.12937 0.77799 0.01546 0.0
C147 C 0.09449 0.76692 0.05272 0.0
C148 C 0.15923 0.8063 0.03858 0.0
C149 C 0.15493 0.82383 0.09958 0.0
C150 C 0.12014 0.81248 0.13688 0.0
C151 C 0.0902 0.78445 0.11364 0.0
H152 H 0.24671 0.13377 0.22076 0.0
H153 H 0.23366 0.06459 0.39616 0.0
H154 H 0.19743 0.1866 0.26044 0.0
H155 H 0.1845 0.11723 0.43563 0.0
H156 H 0.13167 0.24285 0.50831 0.0
H157 H 0.18381 0.19289 0.46856 0.0
H158 H 0.12091 0.18973 0.28733 0.0
H159 H 0.06895 0.2396 0.32689 0.0
C160 C 0.23337 0.1299 0.26775 0.0
C161 C 0.24395 0.09503 0.30529 0.0
C162 C 0.20507 0.16002 0.29036 0.0
C163 C 0.18717 0.15605 0.35118 0.0
C164 C 0.19814 0.12138 0.38889 0.0
C165 C 0.22608 0.09111 0.36608 0.0
C166 C 0.1291 0.23155 0.45996 0.0
C167 C 0.0962 0.24503 0.42077 0.0
C168 C 0.15881 0.20285 0.4373 0.0
C169 C 0.15641 0.18741 0.37483 0.0
C170 C 0.12382 0.20139 0.33544 0.0
C171 C 0.09393 0.22974 0.35825 0.0
H172 H 0.7727 0.06676 0.57874 0.0
H173 H 0.76333 0.13517 0.75539 0.0
H174 H 0.82228 0.11875 0.5384 0.0
H175 H 0.81297 0.18736 0.71483 0.0
H176 H 0.94133 0.23867 0.64581 0.0
H177 H 0.88904 0.18935 0.68595 0.0
H178 H 0.82433 0.19438 0.50628 0.0
H179 H 0.87684 0.24378 0.46592 0.0
C180 C 0.78116 0.09298 0.60889 0.0
C181 C 0.76423 0.09685 0.6703 0.0
C182 C 0.80934 0.12289 0.5856 0.0
C183 C 0.82149 0.15714 0.62341 0.0
C184 C 0.80445 0.16109 0.68481 0.0
C185 C 0.77593 0.13134 0.70792 0.0
C186 C 0.9159 0.22933 0.6149 0.0
C187 C 0.91321 0.245 0.55266 0.0
C188 C 0.88581 0.20129 0.63805 0.0
C189 C 0.85258 0.18803 0.5993 0.0
C190 C 0.84981 0.20379 0.53706 0.0
C191 C 0.87974 0.23216 0.51405 0.0
H192 H 0.77027 0.94384 0.89742 0.0
H193 H 0.76716 0.87958 0.71681 0.0
H194 H 0.81986 0.89194 0.93753 0.0
H195 H 0.81661 0.82743 0.75714 0.0
H196 H 0.94292 0.77534 0.82911 0.0
H197 H 0.89131 0.82524 0.78936 0.0
H198 H 0.82289 0.81616 0.96613 0.0
H199 H 0.87482 0.76628 0.00617 0.0
C200 C 0.7801 0.91854 0.86636 0.0
C201 C 0.76493 0.91581 0.80392 0.0
C202 C 0.80829 0.88868 0.88948 0.0
C203 C 0.82212 0.85559 0.85052 0.0
C204 C 0.80683 0.85281 0.78809 0.0
C205 C 0.7784 0.88254 0.76509 0.0
C206 C 0.91683 0.78392 0.85947 0.0
C207 C 0.91293 0.76696 0.92081 0.0
C208 C 0.88714 0.81231 0.83653 0.0
C209 C 0.85302 0.8246 0.87457 0.0
C210 C 0.84907 0.80757 0.93593 0.0
C211 C 0.87865 0.77889 0.95874 0.0
loop_
_geom_bond_atom_site_label_1
_geom_bond_atom_site_label_2
_geom_bond_distance
_geom_bond_site_symmetry_2
_ccdc_geom_bond_type
In0 O1 2.294 1_554 S
In0 O2 2.326 . S
In0 O6 2.266 1_554 S
In0 O7 2.326 1_454 S
In0 O8 2.266 1_455 S
In0 O9 2.326 . S
In0 O11 2.294 1_455 S
In0 O12 2.326 1_454 S
O1 In0 2.294 1_556 S
O1 C10 1.240 1_556 S
O2 In0 2.326 . S
O2 C10 1.252 . S
C3 O6 1.253 . S
C3 O7 1.259 1_455 S
C4 O11 1.240 1_556 S
C4 O12 1.252 . S
C5 O8 1.253 1_455 S
C5 O9 1.259 . S
O6 In0 2.266 1_556 S
O6 C3 1.253 . S
O7 In0 2.326 1_656 S
O7 C3 1.259 1_655 S
O8 In0 2.266 1_655 S
O8 C5 1.253 1_655 S
O9 In0 2.326 . S
O9 C5 1.259 . S
C10 O1 1.240 1_554 S
C10 O2 1.252 . S
O11 In0 2.294 1_655 S
O11 C4 1.240 1_554 S
O12 In0 2.326 1_656 S
O12 C4 1.252 . S
In13 O14 2.294 1_545 S
In13 O15 2.326 1_545 S
In13 O19 2.266 1_545 S
In13 O20 2.326 . S
In13 O21 2.266 . S
In13 O22 2.326 1_545 S
In13 O24 2.294 . S
In13 O25 2.326 . S
O14 In13 2.294 1_565 S
O14 C23 1.240 . S
O15 In13 2.326 1_565 S
O15 C23 1.252 . S
C16 O19 1.253 1_545 S
C16 O20 1.259 . S
C17 O24 1.240 . S
C17 O25 1.252 . S
C18 O21 1.253 . S
C18 O22 1.259 1_545 S
O19 In13 2.266 1_565 S
O19 C16 1.253 1_565 S
O20 In13 2.326 . S
O20 C16 1.259 . S
O21 In13 2.266 . S
O21 C18 1.253 . S
O22 In13 2.326 1_565 S
O22 C18 1.259 1_565 S
C23 O14 1.240 . S
C23 O15 1.252 . S
O24 In13 2.294 . S
O24 C17 1.240 . S
O25 In13 2.326 . S
O25 C17 1.252 . S
In26 O27 2.294 . S
In26 O28 2.326 . S
In26 O32 2.266 . S
In26 O33 2.326 1_455 S
In26 O34 2.266 1_455 S
In26 O35 2.326 . S
In26 O37 2.294 1_455 S
In26 O38 2.326 1_455 S
O27 In26 2.294 . S
O27 C36 1.240 . S
O28 In26 2.326 . S
O28 C36 1.252 . S
C29 O32 1.253 . S
C29 O33 1.259 1_455 S
C30 O37 1.240 . S
C30 O38 1.252 . S
C31 O34 1.253 1_455 S
C31 O35 1.259 . S
O32 In26 2.266 . S
O32 C29 1.253 . S
O33 In26 2.326 1_655 S
O33 C29 1.259 1_655 S
O34 In26 2.266 1_655 S
O34 C31 1.253 1_655 S
O35 In26 2.326 . S
O35 C31 1.259 . S
C36 O27 1.240 . S
C36 O28 1.252 . S
O37 In26 2.294 1_655 S
O37 C30 1.240 . S
O38 In26 2.326 1_655 S
O38 C30 1.252 . S
In39 O40 2.294 1_545 S
In39 O41 2.326 1_545 S
In39 O45 2.266 1_545 S
In39 O46 2.326 . S
In39 O47 2.266 . S
In39 O48 2.326 1_545 S
In39 O50 2.294 . S
In39 O51 2.326 . S
O40 In39 2.294 1_565 S
O40 C49 1.240 . S
O41 In39 2.326 1_565 S
O41 C49 1.252 . S
C42 O45 1.253 1_545 S
C42 O46 1.259 . S
C43 O50 1.240 . S
C43 O51 1.252 . S
C44 O47 1.253 . S
C44 O48 1.259 1_545 S
O45 In39 2.266 1_565 S
O45 C42 1.253 1_565 S
O46 In39 2.326 . S
O46 C42 1.259 . S
O47 In39 2.266 . S
O47 C44 1.253 . S
O48 In39 2.326 1_565 S
O48 C44 1.259 1_565 S
C49 O40 1.240 . S
C49 O41 1.252 . S
O50 In39 2.294 . S
O50 C43 1.240 . S
O51 In39 2.326 . S
O51 C43 1.252 . S
H52 C60 0.950 . S
H53 C65 0.950 . S
H54 C62 0.950 . S
H55 C64 0.950 . S
H56 C66 0.950 . S
H57 C68 0.950 . S
H58 C70 0.950 . S
H59 C71 0.950 . S
C60 H52 0.950 . S
C60 C61 1.386 1_455 S
C60 C62 1.391 . S
C61 C60 1.386 1_655 S
C61 C65 1.393 . S
C62 H54 0.950 . S
C62 C60 1.391 . S
C62 C63 1.400 1_455 S
C63 C62 1.400 1_655 S
C63 C64 1.398 . S
C63 C69 1.491 . S
C64 H55 0.950 . S
C64 C63 1.398 . S
C64 C65 1.391 . S
C65 H53 0.950 . S
C65 C61 1.393 . S
C65 C64 1.391 . S
C66 H56 0.950 . S
C66 C67 1.388 . S
C66 C68 1.391 . S
C67 C66 1.388 . S
C67 C71 1.390 1_655 S
C68 H57 0.950 . S
C68 C66 1.391 . S
C68 C69 1.412 . S
C69 C63 1.491 . S
C69 C68 1.412 . S
C69 C70 1.387 1_655 S
C70 H58 0.950 . S
C70 C69 1.387 1_455 S
C70 C71 1.391 . S
C71 H59 0.950 . S
C71 C67 1.390 1_455 S
C71 C70 1.391 . S
H72 C80 0.950 . S
H73 C85 0.950 . S
H74 C82 0.950 . S
H75 C84 0.950 . S
H76 C86 0.950 . S
H77 C88 0.950 . S
H78 C90 0.950 . S
H79 C91 0.950 . S
C80 H72 0.950 . S
C80 C81 1.380 1_565 S
C80 C82 1.391 . S
C81 C80 1.380 1_545 S
C81 C85 1.398 . S
C82 H74 0.950 . S
C82 C80 1.391 . S
C82 C83 1.400 . S
C83 C82 1.400 . S
C83 C84 1.398 1_565 S
C83 C89 1.491 . S
C84 H75 0.950 . S
C84 C83 1.398 1_545 S
C84 C85 1.391 . S
C85 H73 0.950 . S
C85 C81 1.398 . S
C85 C84 1.391 . S
C86 H76 0.950 . S
C86 C87 1.386 1_545 S
C86 C88 1.391 . S
C87 C86 1.386 1_565 S
C87 C91 1.393 . S
C88 H77 0.950 . S
C88 C86 1.391 . S
C88 C89 1.400 1_545 S
C89 C83 1.491 . S
C89 C88 1.400 1_565 S
C89 C90 1.398 . S
C90 H78 0.950 . S
C90 C89 1.398 . S
C90 C91 1.391 . S
C91 H79 0.950 . S
C91 C87 1.393 . S
C91 C90 1.391 . S
H92 C100 0.950 . S
H93 C105 0.950 . S
H94 C102 0.950 . S
H95 C104 0.950 . S
H96 C106 0.950 . S
H97 C108 0.950 . S
H98 C110 0.950 . S
H99 C111 0.950 . S
C100 H92 0.950 . S
C100 C101 1.386 1_655 S
C100 C102 1.391 . S
C101 C100 1.386 1_455 S
C101 C105 1.393 . S
C102 H94 0.950 . S
C102 C100 1.391 . S
C102 C103 1.400 1_655 S
C103 C102 1.400 1_455 S
C103 C104 1.398 . S
C103 C109 1.491 . S
C104 H95 0.950 . S
C104 C103 1.398 . S
C104 C105 1.391 . S
C105 H93 0.950 . S
C105 C101 1.393 . S
C105 C104 1.391 . S
C106 H96 0.950 . S
C106 C107 1.407 . S
C106 C108 1.391 . S
C107 C106 1.407 . S
C107 C111 1.372 1_455 S
C108 H97 0.950 . S
C108 C106 1.391 . S
C108 C109 1.425 . S
C109 C103 1.491 . S
C109 C108 1.425 . S
C109 C110 1.374 1_455 S
C110 H98 0.950 . S
C110 C109 1.374 1_655 S
C110 C111 1.391 . S
C111 H99 0.950 . S
C111 C107 1.372 1_655 S
C111 C110 1.391 . S
H112 C120 0.950 . S
H113 C125 0.950 . S
H114 C122 0.950 . S
H115 C124 0.950 . S
H116 C126 0.950 . S
H117 C128 0.950 . S
H118 C130 0.950 . S
H119 C131 0.950 . S
C120 H112 0.950 . S
C120 C121 1.386 . S
C120 C122 1.391 . S
C121 C120 1.386 . S
C121 C125 1.393 1_545 S
C122 H114 0.950 . S
C122 C120 1.391 . S
C122 C123 1.400 . S
C123 C122 1.400 . S
C123 C124 1.398 1_545 S
C123 C129 1.491 1_554 S
C124 H115 0.950 . S
C124 C123 1.398 1_565 S
C124 C125 1.391 . S
C125 H113 0.950 . S
C125 C121 1.393 1_565 S
C125 C124 1.391 . S
C126 H116 0.950 . S
C126 C127 1.370 1_565 S
C126 C128 1.391 . S
C127 C126 1.370 1_545 S
C127 C131 1.408 . S
C128 H117 0.950 . S
C128 C126 1.391 . S
C128 C129 1.381 1_565 S
C129 C123 1.491 1_556 S
C129 C128 1.381 1_545 S
C129 C130 1.417 . S
C130 H118 0.950 . S
C130 C129 1.417 . S
C130 C131 1.391 . S
C131 H119 0.950 . S
C131 C127 1.408 . S
C131 C130 1.391 . S
H132 C140 0.950 . S
H133 C145 0.950 . S
H134 C142 0.950 . S
H135 C144 0.950 . S
H136 C146 0.950 1_556 S
H137 C148 0.950 . S
H138 C150 0.950 . S
H139 C151 0.950 . S
C140 H132 0.950 . S
C140 C141 1.386 . S
C140 C142 1.391 . S
C141 C140 1.386 . S
C141 C145 1.393 . S
C142 H134 0.950 . S
C142 C140 1.391 . S
C142 C143 1.400 . S
C143 C142 1.400 . S
C143 C144 1.398 . S
C143 C149 1.491 . S
C144 H135 0.950 . S
C144 C143 1.398 . S
C144 C145 1.391 . S
C145 H133 0.950 . S
C145 C141 1.393 . S
C145 C144 1.391 . S
C146 H136 0.950 1_554 S
C146 C147 1.386 . S
C146 C148 1.391 . S
C147 C146 1.386 . S
C147 C151 1.393 . S
C148 H137 0.950 . S
C148 C146 1.391 . S
C148 C149 1.400 . S
C149 C143 1.491 . S
C149 C148 1.400 . S
C149 C150 1.398 . S
C150 H138 0.950 . S
C150 C149 1.398 . S
C150 C151 1.391 . S
C151 H139 0.950 . S
C151 C147 1.393 . S
C151 C150 1.391 . S
H152 C160 0.950 . S
H153 C165 0.950 . S
H154 C162 0.950 . S
H155 C164 0.950 . S
H156 C166 0.950 . S
H157 C168 0.950 . S
H158 C170 0.950 . S
H159 C171 0.950 . S
C160 H152 0.950 . S
C160 C161 1.386 . S
C160 C162 1.391 . S
C161 C160 1.386 . S
C161 C165 1.393 . S
C162 H154 0.950 . S
C162 C160 1.391 . S
C162 C163 1.400 . S
C163 C162 1.400 . S
C163 C164 1.398 . S
C163 C169 1.491 . S
C164 H155 0.950 . S
C164 C163 1.398 . S
C164 C165 1.391 . S
C165 H153 0.950 . S
C165 C161 1.393 . S
C165 C164 1.391 . S
C166 H156 0.950 . S
C166 C167 1.386 . S
C166 C168 1.391 . S
C167 C166 1.386 . S
C167 C171 1.393 . S
C168 H157 0.950 . S
C168 C166 1.391 . S
C168 C169 1.400 . S
C169 C163 1.491 . S
C169 C168 1.400 . S
C169 C170 1.398 . S
C170 H158 0.950 . S
C170 C169 1.398 . S
C170 C171 1.391 . S
C171 H159 0.950 . S
C171 C167 1.393 . S
C171 C170 1.391 . S
H172 C180 0.950 . S
H173 C185 0.950 . S
H174 C182 0.950 . S
H175 C184 0.950 . S
H176 C186 0.950 . S
H177 C188 0.950 . S
H178 C190 0.950 . S
H179 C191 0.950 . S
C180 H172 0.950 . S
C180 C181 1.386 . S
C180 C182 1.391 . S
C181 C180 1.386 . S
C181 C185 1.393 . S
C182 H174 0.950 . S
C182 C180 1.391 . S
C182 C183 1.400 . S
C183 C182 1.400 . S
C183 C184 1.398 . S
C183 C189 1.491 . S
C184 H175 0.950 . S
C184 C183 1.398 . S
C184 C185 1.391 . S
C185 H173 0.950 . S
C185 C181 1.393 . S
C185 C184 1.391 . S
C186 H176 0.950 . S
C186 C187 1.386 . S
C186 C188 1.391 . S
C187 C186 1.386 . S
C187 C191 1.393 . S
C188 H177 0.950 . S
C188 C186 1.391 . S
C188 C189 1.400 . S
C189 C183 1.491 . S
C189 C188 1.400 . S
C189 C190 1.398 . S
C190 H178 0.950 . S
C190 C189 1.398 . S
C190 C191 1.391 . S
C191 H179 0.950 . S
C191 C187 1.393 . S
C191 C190 1.391 . S
H192 C200 0.950 . S
H193 C205 0.950 . S
H194 C202 0.950 . S
H195 C204 0.950 . S
H196 C206 0.950 . S
H197 C208 0.950 . S
H198 C210 0.950 . S
H199 C211 0.950 1_554 S
C200 H192 0.950 . S
C200 C201 1.386 . S
C200 C202 1.391 . S
C201 C200 1.386 . S
C201 C205 1.393 . S
C202 H194 0.950 . S
C202 C200 1.391 . S
C202 C203 1.400 . S
C203 C202 1.400 . S
C203 C204 1.398 . S
C203 C209 1.491 . S
C204 H195 0.950 . S
C204 C203 1.398 . S
C204 C205 1.391 . S
C205 H193 0.950 . S
C205 C201 1.393 . S
C205 C204 1.391 . S
C206 H196 0.950 . S
C206 C207 1.386 . S
C206 C208 1.391 . S
C207 C206 1.386 . S
C207 C211 1.393 . S
C208 H197 0.950 . S
C208 C206 1.391 . S
C208 C209 1.400 . S
C209 C203 1.491 . S
C209 C208 1.400 . S
C209 C210 1.398 . S
C210 H198 0.950 . S
C210 C209 1.398 . S
C210 C211 1.391 . S
C211 H199 0.950 1_556 S
C211 C207 1.393 . S
C211 C210 1.391 . S
C61 C5 1.465 1_655 S
C67 C31 1.463 1_655 S
C81 C16 1.461 . S
C87 C42 1.463 1_565 S
C101 C3 1.465 . S
C107 C29 1.466 . S
C121 C18 1.461 . S
C127 C44 1.460 . S
C141 C23 1.555 . S
C147 C10 1.554 . S
C161 C17 1.555 . S
C167 C36 1.550 . S
C181 C43 1.555 . S
C187 C30 1.555 . S
C201 C49 1.555 . S
C207 C4 1.560 . S
