# Generated by pormake.
# Topology cds, (4)-cn, num edge types: 1
# Building blocks:
#     Node 0, Type 0, BuildingBlock: NAWXER_clean_sbu_0, # of connection points: 4
#     Node 1, Type 0, BuildingBlock: NAWXER_clean_sbu_0, # of connection points: 4
#     Edge 2, Type (0, 0), BuildingBlock: OJICUG_clean_linker_0, # of connection points: 2
#     Edge 3, Type (0, 0), BuildingBlock: OJICUG_clean_linker_0, # of connection points: 2
#     Edge 4, Type (0, 0), BuildingBlock: OJICUG_clean_linker_0, # of connection points: 2
#     Edge 5, Type (0, 0), BuildingBlock: OJICUG_clean_linker_0, # of connection points: 2
# Relax obj value: 0.000
# Max RMSD: 0.000
# Mean RMSD: 0.000
data_MOF--net-cds--node1-NAWXER_clean_sbu_0--edge1-OJICUG_clean_linker_0
_symmetry_space_group_name_H-M    P1
_symmetry_Int_Tables_number       1
_symmetry_cell_setting            triclinic
loop_
_symmetry_equiv_pos_as_xyz
'x, y, z'
_cell_length_a     10.704508
_cell_length_b     10.704143
_cell_length_c     21.063589
_cell_angle_alpha  95.712121
_cell_angle_beta   95.215769
_cell_angle_gamma 89.39372
loop_
_atom_site_label
_atom_site_type_symbol
_atom_site_fract_x
_atom_site_fract_y
_atom_site_fract_z
_atom_type_partial_charge
C0 C 0.31643 0.18283 0.03255 0.0
C1 C 0.8572 0.18367 0.02957 0.0
O2 O 0.2654 0.07414 0.02462 0.0
Zn3 Zn 0.08644 0.98944 0.01566 0.0
O4 O 0.24743 0.28012 0.03841 0.0
Zn5 Zn 0.08642 0.19042 0.03098 0.0
O6 O 0.09924 0.09245 0.11658 0.0
O7 O 0.09224 0.88852 0.0862 0.0
O8 O 0.92655 0.28093 0.0377 0.0
O9 O 0.90763 0.07504 0.02073 0.0
O10 O 0.07845 0.90537 0.93068 0.0
O11 O 0.06823 0.11207 0.93181 0.0
C12 C 0.09898 0.97835 0.13055 0.0
C13 C 0.06793 1.00265 0.90068 0.0
C14 C 0.83972 0.16568 0.49728 0.0
C15 C 0.84059 0.70631 0.49384 0.0
O16 O 0.94827 0.11525 0.50545 0.0
Zn17 Zn 0.03383 0.93638 0.50978 0.0
O18 O 0.74253 0.09628 0.48961 0.0
Zn19 Zn 0.833 0.93639 0.49559 0.0
O20 O 0.9118 0.95558 0.59442 0.0
O21 O 0.11829 0.94535 0.59434 0.0
O22 O 0.74338 0.77531 0.48847 0.0
O23 O 0.9492 0.75738 0.5012 0.0
O24 O 0.13424 0.92966 0.4386 0.0
O25 O 0.9304 0.9227 0.40934 0.0
C26 C 0.02127 0.95616 0.62494 0.0
C27 C 0.04431 0.92274 0.39471 0.0
C28 C 0.16993 0.0247 0.24652 0.0
C29 C 0.09637 0.9531 0.19781 0.0
H30 H 0.2139 0.06741 0.3477 0.0
C31 C 0.01225 0.86443 0.21424 0.0
H32 H 0.23517 0.09381 0.23482 0.0
C33 C 0.99712 0.85233 0.27858 0.0
C34 C 0.06925 0.92539 0.3273 0.0
H35 H 0.95376 0.80904 0.17738 0.0
H36 H 0.92783 0.7873 0.29031 0.0
C37 C 0.15812 1.00927 0.31084 0.0
C38 C 0.97078 0.0663 0.79667 0.0
C39 C 0.05586 0.99039 0.83021 0.0
H40 H 0.89082 0.11208 0.70468 0.0
C41 C 0.12995 0.90352 0.79591 0.0
H42 H 0.91254 0.1337 0.82227 0.0
C43 C 0.12065 0.89427 0.72896 0.0
C44 C 0.03386 0.9685 0.69541 0.0
H45 H 0.1966 0.84451 0.82092 0.0
H46 H 0.17947 0.82747 0.70336 0.0
C47 C 0.95817 0.05375 0.7297 0.0
C48 C 0.65243 0.30433 0.03792 0.0
C49 C 0.71901 0.19025 0.03125 0.0
H50 H 0.47129 0.39273 0.04363 0.0
C51 C 0.65199 0.0771 0.02626 0.0
H52 H 0.70151 0.39311 0.04203 0.0
C53 C 0.52275 0.07688 0.02741 0.0
C54 C 0.45494 0.1898 0.03344 0.0
H55 H 0.69917 0.98707 0.0214 0.0
H56 H 0.47613 0.98671 0.02321 0.0
C57 C 0.52095 0.3041 0.03892 0.0
C58 C 0.94644 0.50013 0.49922 0.0
C59 C 0.83363 0.56783 0.49319 0.0
H60 H 0.03616 0.32385 0.50536 0.0
C61 C 0.71942 0.50177 0.48795 0.0
H62 H 0.03654 0.54679 0.50328 0.0
C63 C 0.71919 0.37035 0.48911 0.0
C64 C 0.83315 0.30386 0.4957 0.0
H65 H 0.63088 0.55136 0.48328 0.0
H66 H 0.63048 0.32122 0.48512 0.0
C67 C 0.94621 0.37095 0.50053 0.0
loop_
_geom_bond_atom_site_label_1
_geom_bond_atom_site_label_2
_geom_bond_distance
_geom_bond_site_symmetry_2
_ccdc_geom_bond_type
C0 O2 1.249 1_554 S
C0 O4 1.256 1_565 S
C1 O8 1.251 1_556 S
C1 O9 1.254 1_545 S
O2 C0 1.249 1_556 S
O2 Zn3 2.029 1_455 S
Zn3 O2 2.029 1_655 S
Zn3 O7 2.035 1_656 S
Zn3 O9 2.034 . S
Zn3 O10 2.028 . S
O4 C0 1.256 1_545 S
O4 Zn5 2.036 . S
Zn5 O4 2.036 . S
Zn5 O6 2.028 . S
Zn5 O8 2.027 1_455 S
Zn5 O11 2.035 1_454 S
O6 Zn5 2.028 . S
O6 C12 1.251 . S
O7 Zn3 2.035 1_454 S
O7 C12 1.254 1_565 S
O8 C1 1.251 1_554 S
O8 Zn5 2.027 1_655 S
O9 C1 1.254 1_565 S
O9 Zn3 2.034 . S
O10 Zn3 2.028 . S
O10 C13 1.249 . S
O11 Zn5 2.035 1_656 S
O11 C13 1.256 1_545 S
C12 O6 1.251 . S
C12 O7 1.254 1_545 S
C13 O10 1.249 . S
C13 O11 1.256 1_565 S
C14 O16 1.251 . S
C14 O18 1.254 1_455 S
C15 O22 1.249 . S
C15 O23 1.256 1_655 S
O16 C14 1.251 . S
O16 Zn17 2.028 . S
Zn17 O16 2.028 . S
Zn17 O21 2.035 . S
Zn17 O23 2.035 1_545 S
Zn17 O24 2.028 1_545 S
O18 C14 1.254 1_655 S
O18 Zn19 2.035 1_545 S
Zn19 O18 2.035 1_565 S
Zn19 O20 2.028 1_565 S
Zn19 O22 2.028 . S
Zn19 O25 2.035 . S
O20 Zn19 2.028 1_545 S
O20 C26 1.249 . S
O21 Zn17 2.035 . S
O21 C26 1.256 1_455 S
O22 C15 1.249 . S
O22 Zn19 2.028 . S
O23 C15 1.256 1_455 S
O23 Zn17 2.035 1_565 S
O24 Zn17 2.028 1_565 S
O24 C27 1.251 . S
O25 Zn19 2.035 . S
O25 C27 1.254 1_655 S
C26 O20 1.249 . S
C26 O21 1.256 1_655 S
C27 O24 1.251 . S
C27 O25 1.254 1_455 S
C28 C29 1.387 . S
C28 H32 0.950 . S
C28 C37 1.390 . S
C29 C28 1.387 . S
C29 C31 1.387 1_445 S
H30 C37 0.950 . S
C31 C29 1.387 1_665 S
C31 C33 1.390 . S
C31 H35 0.950 . S
H32 C28 0.950 . S
C33 C31 1.390 . S
C33 C34 1.387 1_565 S
C33 H36 0.950 . S
C34 C33 1.387 1_545 S
C34 C37 1.387 1_655 S
H35 C31 0.950 . S
H36 C33 0.950 . S
C37 C28 1.390 . S
C37 H30 0.950 . S
C37 C34 1.387 1_455 S
C38 C39 1.387 . S
C38 H42 0.950 . S
C38 C47 1.390 . S
C39 C38 1.387 . S
C39 C41 1.387 1_645 S
H40 C47 0.950 . S
C41 C39 1.387 1_465 S
C41 C43 1.390 . S
C41 H45 0.950 . S
H42 C38 0.950 . S
C43 C41 1.390 . S
C43 C44 1.387 1_565 S
C43 H46 0.950 . S
C44 C43 1.387 1_545 S
C44 C47 1.387 1_455 S
H45 C41 0.950 . S
H46 C43 0.950 . S
C47 C38 1.390 . S
C47 H40 0.950 . S
C47 C44 1.387 1_655 S
C48 C49 1.388 . S
C48 H52 0.950 . S
C48 C57 1.390 . S
C49 C48 1.388 . S
C49 C51 1.388 1_544 S
H50 C57 0.950 . S
C51 C49 1.388 1_566 S
C51 C53 1.390 . S
C51 H55 0.950 . S
H52 C48 0.950 . S
C53 C51 1.390 . S
C53 C54 1.388 1_565 S
C53 H56 0.950 . S
C54 C53 1.388 1_545 S
C54 C57 1.388 1_556 S
H55 C51 0.950 . S
H56 C53 0.950 . S
C57 C48 1.390 . S
C57 H50 0.950 . S
C57 C54 1.388 1_554 S
C58 C59 1.387 . S
C58 H62 0.950 . S
C58 C67 1.390 . S
C59 C58 1.387 . S
C59 C61 1.388 1_455 S
H60 C67 0.950 . S
C61 C59 1.388 1_655 S
C61 C63 1.390 . S
C61 H65 0.950 . S
H62 C58 0.950 . S
C63 C61 1.390 . S
C63 C64 1.387 1_655 S
C63 H66 0.950 . S
C64 C63 1.387 1_455 S
C64 C67 1.388 . S
H65 C61 0.950 . S
H66 C63 0.950 . S
C67 C58 1.390 . S
C67 H60 0.950 . S
C67 C64 1.388 . S
C29 C12 1.499 . S
C34 C27 1.497 1_645 S
C39 C13 1.499 1_545 S
C44 C26 1.502 1_455 S
C49 C1 1.498 1_554 S
C54 C0 1.498 1_546 S
C59 C15 1.498 1_455 S
C64 C14 1.498 . S
