# Generated by pormake.
# Topology dmp, (4)-cn, num edge types: 1
# Building blocks:
#     Node 0, Type 0, BuildingBlock: NAHDIM_clean_sbu_0, # of connection points: 4
#     Node 1, Type 0, BuildingBlock: NAHDIM_clean_sbu_0, # of connection points: 4
#     Node 2, Type 0, BuildingBlock: NAHDIM_clean_sbu_0, # of connection points: 4
#     Node 3, Type 0, BuildingBlock: NAHDIM_clean_sbu_0, # of connection points: 4
#     Edge 4, Type (0, 0), BuildingBlock: EZIPEK_clean_linker_0, # of connection points: 2
#     Edge 5, Type (0, 0), BuildingBlock: EZIPEK_clean_linker_0, # of connection points: 2
#     Edge 6, Type (0, 0), BuildingBlock: EZIPEK_clean_linker_0, # of connection points: 2
#     Edge 7, Type (0, 0), BuildingBlock: EZIPEK_clean_linker_0, # of connection points: 2
#     Edge 8, Type (0, 0), BuildingBlock: EZIPEK_clean_linker_0, # of connection points: 2
#     Edge 9, Type (0, 0), BuildingBlock: EZIPEK_clean_linker_0, # of connection points: 2
#     Edge 10, Type (0, 0), BuildingBlock: EZIPEK_clean_linker_0, # of connection points: 2
#     Edge 11, Type (0, 0), BuildingBlock: EZIPEK_clean_linker_0, # of connection points: 2
# Relax obj value: 0.243
# Max RMSD: 0.269
# Mean RMSD: 0.269
data_MOF--net-dmp--node1-NAHDIM_clean_sbu_0--edge1-EZIPEK_clean_linker_0
_symmetry_space_group_name_H-M    P1
_symmetry_Int_Tables_number       1
_symmetry_cell_setting            triclinic
loop_
_symmetry_equiv_pos_as_xyz
'x, y, z'
_cell_length_a     27.380898
_cell_length_b     12.613855
_cell_length_c     14.047146
_cell_angle_alpha  89.853129
_cell_angle_beta   89.856502
_cell_angle_gamma 96.284222
loop_
_atom_site_label
_atom_site_type_symbol
_atom_site_fract_x
_atom_site_fract_y
_atom_site_fract_z
_atom_type_partial_charge
C0 C 0.02078 0.31753 0.38829 0.0
O1 O 0.00582 0.32046 0.29966 0.0
O2 O 0.057 0.09069 0.23596 0.0
Zn3 Zn 0.09632 0.21267 0.30203 0.0
O4 O 0.11404 0.33045 0.20698 0.0
C5 C 0.17525 0.08156 0.34236 0.0
O6 O 0.14506 0.00226 0.30946 0.0
O7 O 0.05836 0.27122 0.40828 0.0
C8 C 0.14516 0.40321 0.23936 0.0
O9 O 0.15942 0.39778 0.32822 0.0
C10 C 0.07157 0.06118 0.15524 0.0
O11 O 0.11297 0.10702 0.11939 0.0
O12 O 0.16078 0.17305 0.35166 0.0
C13 C 0.45723 0.60549 0.33604 0.0
O14 O 0.48817 0.65001 0.27232 0.0
O15 O 0.43186 0.80753 0.15998 0.0
Zn16 Zn 0.38452 0.73433 0.25486 0.0
O17 O 0.32564 0.65845 0.19185 0.0
C18 C 0.35982 0.94024 0.31869 0.0
O19 O 0.38556 0.97447 0.24351 0.0
O20 O 0.41352 0.62971 0.33948 0.0
C21 C 0.29393 0.70728 0.14895 0.0
O22 O 0.30304 0.80978 0.13121 0.0
C23 C 0.44297 0.7679 0.08086 0.0
O24 O 0.42421 0.67124 0.05746 0.0
O25 O 0.35667 0.8414 0.33799 0.0
C26 C 0.92439 0.56528 0.66161 0.0
O27 O 0.8973 0.52331 0.73232 0.0
O28 O 0.93679 0.82934 0.83374 0.0
Zn29 Zn 0.89345 0.76094 0.73136 0.0
O30 O 0.83436 0.67593 0.78627 0.0
C31 C 0.87013 0.97032 0.67305 0.0
O32 O 0.89792 0.00127 0.74611 0.0
O33 O 0.92924 0.66566 0.64866 0.0
C34 C 0.80372 0.71578 0.83968 0.0
O35 O 0.81321 0.81392 0.87071 0.0
C36 C 0.95305 0.77999 0.9037 0.0
O37 O 0.94172 0.67654 0.91266 0.0
O38 O 0.86555 0.87195 0.65194 0.0
C39 C 0.52214 0.31785 0.61746 0.0
O40 O 0.49872 0.29289 0.69752 0.0
O41 O 0.55576 0.10096 0.77042 0.0
Zn42 Zn 0.60001 0.21869 0.70702 0.0
O43 O 0.62343 0.33311 0.8012 0.0
C44 C 0.69666 0.15361 0.70342 0.0
O45 O 0.69412 0.177 0.79411 0.0
O46 O 0.56467 0.28951 0.60402 0.0
C47 C 0.65175 0.40787 0.76328 0.0
O48 O 0.65962 0.40549 0.67105 0.0
C49 C 0.56743 0.06417 0.85051 0.0
O50 O 0.60871 0.10212 0.89133 0.0
O51 O 0.66009 0.16376 0.64996 0.0
C52 C 0.31421 0.10207 0.31594 0.0
C53 C 0.32265 0.00536 0.3602 0.0
C54 C 0.23902 0.98632 0.42436 0.0
C55 C 0.22733 0.06651 0.35966 0.0
N56 N 0.25435 0.20226 0.24229 0.0
N57 N 0.30305 0.89268 0.49575 0.0
C58 C 0.26525 0.12721 0.30695 0.0
C59 C 0.28801 0.9588 0.42726 0.0
N60 N 0.35312 0.17069 0.28541 0.0
N61 N 0.20299 0.93467 0.48032 0.0
H62 H 0.33999 0.88058 0.50307 0.0
H63 H 0.28079 0.85975 0.55076 0.0
H64 H 0.16767 0.95813 0.48445 0.0
H65 H 0.20747 0.86713 0.52065 0.0
H66 H 0.34959 0.24672 0.25897 0.0
H67 H 0.38931 0.15642 0.299 0.0
H68 H 0.28012 0.23941 0.19484 0.0
H69 H 0.21892 0.22147 0.2299 0.0
C70 C 0.20429 0.46932 0.11065 0.0
C71 C 0.16843 0.49051 0.17888 0.0
C72 C 0.20469 0.67529 0.19322 0.0
C73 C 0.24446 0.64985 0.13542 0.0
N74 N 0.27398 0.5405 0.01329 0.0
N75 N 0.12278 0.61849 0.25433 0.0
C76 C 0.24105 0.55272 0.08454 0.0
C77 C 0.16456 0.59597 0.20893 0.0
N78 N 0.20523 0.36832 0.07645 0.0
N79 N 0.20707 0.77092 0.23947 0.0
H80 H 0.09316 0.56013 0.26532 0.0
H81 H 0.11556 0.69535 0.27207 0.0
H82 H 0.23484 0.8328 0.22789 0.0
H83 H 0.18234 0.78795 0.29221 0.0
H84 H 0.23396 0.34431 0.03608 0.0
H85 H 0.17748 0.30706 0.09078 0.0
H86 H 0.27199 0.47461 0.96846 0.0
H87 H 0.30093 0.6019 0.99392 0.0
C88 C 0.74445 0.02571 0.61407 0.0
C89 C 0.74335 0.12299 0.66428 0.0
C90 C 0.83345 0.14513 0.67176 0.0
C91 C 0.83301 0.03957 0.63754 0.0
N92 N 0.79472 0.9157 0.52324 0.0
N93 N 0.7861 0.29071 0.71477 0.0
C94 C 0.79058 0.99169 0.5908 0.0
C95 C 0.78789 0.18835 0.68416 0.0
N96 N 0.70211 0.96167 0.5949 0.0
N97 N 0.87748 0.20286 0.6907 0.0
H98 H 0.75332 0.32564 0.71836 0.0
H99 H 0.81661 0.34309 0.7327 0.0
H100 H 0.91065 0.17586 0.67025 0.0
H101 H 0.88157 0.27788 0.72196 0.0
H102 H 0.70192 0.88458 0.56826 0.0
H103 H 0.66727 0.98136 0.61255 0.0
H104 H 0.76521 0.88298 0.48219 0.0
H105 H 0.82896 0.89695 0.49983 0.0
C106 C 0.71341 0.68273 0.80996 0.0
C107 C 0.75573 0.65291 0.85676 0.0
C108 C 0.7139 0.47406 0.88603 0.0
C109 C 0.6776 0.49618 0.81936 0.0
N110 N 0.63592 0.62315 0.73235 0.0
N111 N 0.79513 0.52737 0.95049 0.0
C112 C 0.67474 0.60208 0.78763 0.0
C113 C 0.75509 0.55117 0.90005 0.0
N114 N 0.71119 0.78657 0.7838 0.0
N115 N 0.70927 0.37956 0.93459 0.0
H116 H 0.82429 0.58489 0.96662 0.0
H117 H 0.80031 0.45097 0.97366 0.0
H118 H 0.6786 0.32358 0.92831 0.0
H119 H 0.73298 0.3611 0.9884 0.0
H120 H 0.68048 0.81505 0.75399 0.0
H121 H 0.73909 0.84728 0.79787 0.0
H122 H 0.63308 0.6951 0.6976 0.0
H123 H 0.60613 0.56596 0.72029 0.0
C124 C 0.05907 0.88996 0.06299 0.0
C125 C 0.04006 0.98288 0.09787 0.0
C126 C 0.9608 0.92557 0.02397 0.0
C127 C 0.98191 0.84189 0.97764 0.0
N128 N 0.05279 0.74974 0.94454 0.0
N129 N 0.97533 0.09903 0.09717 0.0
C130 C 0.03141 0.82468 0.99541 0.0
C131 C 0.99145 0.00316 0.07514 0.0
N132 N 0.10293 0.86273 0.09602 0.0
N133 N 0.91114 0.92949 0.02086 0.0
H134 H -0.00299 0.16047 0.13136 0.0
H135 H 0.94211 0.12187 0.07288 0.0
H136 H 0.8874 0.87179 0.98638 0.0
H137 H 0.89313 0.98278 0.06098 0.0
H138 H 0.11609 0.79015 0.08103 0.0
H139 H 0.12421 0.90848 0.14548 0.0
H140 H 0.09026 0.7421 0.94659 0.0
H141 H 0.03381 0.70028 0.89447 0.0
C142 C 0.54921 0.88229 0.92266 0.0
C143 C 0.53359 0.98319 0.90068 0.0
C144 C 0.45453 0.93032 0.97828 0.0
C145 C 0.47277 0.83615 0.01182 0.0
N146 N 0.53866 0.72456 0.02298 0.0
N147 N 0.474 0.10972 0.91786 0.0
C148 C 0.52031 0.81197 0.98523 0.0
C149 C 0.48676 0.00879 0.9305 0.0
N150 N 0.59105 0.85288 0.88182 0.0
N151 N 0.40598 0.94347 0.99008 0.0
H152 H 0.49669 0.1704 0.88428 0.0
H153 H 0.44274 0.13615 0.94804 0.0
H154 H 0.38107 0.88646 0.02313 0.0
H155 H 0.3894 0.00532 0.95877 0.0
H156 H 0.60185 0.77647 0.8873 0.0
H157 H 0.61282 0.90233 0.83516 0.0
H158 H 0.57507 0.70938 0.01504 0.0
H159 H 0.51833 0.67056 0.06806 0.0
C160 C 0.00091 0.51408 0.58573 0.0
C161 C 0.94922 0.4963 0.59669 0.0
C162 C 0.946 0.34879 0.48291 0.0
C163 C -0.00341 0.37614 0.46275 0.0
N164 N 0.07047 0.4976 0.48296 0.0
N165 N 0.87105 0.40778 0.5452 0.0
C166 C 0.02373 0.46196 0.5112 0.0
C167 C 0.92125 0.41618 0.54286 0.0
N168 N 0.02843 0.57844 0.64822 0.0
N169 N 0.92193 0.25703 0.44681 0.0
H170 H 0.8514 0.45715 0.58644 0.0
H171 H 0.84886 0.35796 0.50015 0.0
H172 H 0.93906 0.20534 0.40316 0.0
H173 H 0.88648 0.22716 0.46732 0.0
H174 H 0.06669 0.58547 0.64944 0.0
H175 H 0.0131 0.61648 0.70509 0.0
H176 H 0.08978 0.56736 0.5087 0.0
H177 H 0.08828 0.46356 0.42713 0.0
C178 C 0.47817 0.5649 0.50443 0.0
C179 C 0.47356 0.53158 0.4081 0.0
C180 C 0.49316 0.35298 0.4527 0.0
C181 C 0.50208 0.38914 0.54728 0.0
N182 N 0.50896 0.53231 0.66207 0.0
N183 N 0.47981 0.39813 0.28737 0.0
C184 C 0.4957 0.49557 0.57321 0.0
C185 C 0.48212 0.42682 0.38124 0.0
N186 N 0.4658 0.66308 0.53024 0.0
N187 N 0.49325 0.24699 0.43237 0.0
H188 H 0.46945 0.44823 0.23362 0.0
H189 H 0.49098 0.32734 0.26159 0.0
H190 H 0.50043 0.19062 0.4835 0.0
H191 H 0.48216 0.21294 0.36746 0.0
H192 H 0.46191 0.68646 0.60063 0.0
H193 H 0.45653 0.71984 0.48132 0.0
H194 H 0.51116 0.61225 0.68152 0.0
H195 H 0.52161 0.48453 0.71521 0.0
loop_
_geom_bond_atom_site_label_1
_geom_bond_atom_site_label_2
_geom_bond_distance
_geom_bond_site_symmetry_2
_ccdc_geom_bond_type
C0 O1 1.160 . S
C0 O7 1.185 . S
O1 C0 1.160 . S
O2 Zn3 1.899 . S
O2 C10 1.284 . S
Zn3 O2 1.899 . S
Zn3 O4 2.032 . S
Zn3 O7 2.086 . S
Zn3 O12 1.977 . S
O4 Zn3 2.032 . S
O4 C8 1.278 . S
C5 O6 1.203 . S
C5 O12 1.267 . S
O6 C5 1.203 . S
O7 C0 1.185 . S
O7 Zn3 2.086 . S
C8 O4 1.278 . S
C8 O9 1.211 . S
O9 C8 1.211 . S
C10 O2 1.284 . S
C10 O11 1.273 . S
O11 C10 1.273 . S
O12 Zn3 1.977 . S
O12 C5 1.267 . S
C13 O14 1.160 . S
C13 O20 1.185 . S
O14 C13 1.160 . S
O15 Zn16 1.899 . S
O15 C23 1.284 . S
Zn16 O15 1.899 . S
Zn16 O17 2.032 . S
Zn16 O20 2.086 . S
Zn16 O25 1.977 . S
O17 Zn16 2.032 . S
O17 C21 1.278 . S
C18 O19 1.203 . S
C18 O25 1.267 . S
O19 C18 1.203 . S
O20 C13 1.185 . S
O20 Zn16 2.086 . S
C21 O17 1.278 . S
C21 O22 1.211 . S
O22 C21 1.211 . S
C23 O15 1.284 . S
C23 O24 1.273 . S
O24 C23 1.273 . S
O25 Zn16 1.977 . S
O25 C18 1.267 . S
C26 O27 1.160 . S
C26 O33 1.185 . S
O27 C26 1.160 . S
O28 Zn29 1.899 . S
O28 C36 1.284 . S
Zn29 O28 1.899 . S
Zn29 O30 2.032 . S
Zn29 O33 2.086 . S
Zn29 O38 1.977 . S
O30 Zn29 2.032 . S
O30 C34 1.278 . S
C31 O32 1.203 . S
C31 O38 1.267 . S
O32 C31 1.203 . S
O33 C26 1.185 . S
O33 Zn29 2.086 . S
C34 O30 1.278 . S
C34 O35 1.211 . S
O35 C34 1.211 . S
C36 O28 1.284 . S
C36 O37 1.273 . S
O37 C36 1.273 . S
O38 Zn29 1.977 . S
O38 C31 1.267 . S
C39 O40 1.160 . S
C39 O46 1.185 . S
O40 C39 1.160 . S
O41 Zn42 1.899 . S
O41 C49 1.284 . S
Zn42 O41 1.899 . S
Zn42 O43 2.032 . S
Zn42 O46 2.086 . S
Zn42 O51 1.977 . S
O43 Zn42 2.032 . S
O43 C47 1.278 . S
C44 O45 1.203 . S
C44 O51 1.267 . S
O45 C44 1.203 . S
O46 C39 1.185 . S
O46 Zn42 2.086 . S
C47 O43 1.278 . S
C47 O48 1.211 . S
O48 C47 1.211 . S
C49 O41 1.284 . S
C49 O50 1.273 . S
O50 C49 1.273 . S
O51 Zn42 1.977 . S
O51 C44 1.267 . S
C52 C53 1.363 1_545 S
C52 C58 1.379 . S
C52 N60 1.356 . S
C53 C52 1.363 1_565 S
C53 C59 1.363 . S
C54 C55 1.363 1_565 S
C54 C59 1.379 . S
C54 N61 1.356 . S
C55 C54 1.363 1_545 S
C55 C58 1.363 . S
N56 C58 1.356 . S
N56 H68 0.984 . S
N56 H69 0.985 . S
N57 C59 1.356 . S
N57 H62 0.984 . S
N57 H63 0.985 . S
C58 C52 1.379 . S
C58 C55 1.363 . S
C58 N56 1.356 . S
C59 C53 1.363 . S
C59 C54 1.379 . S
C59 N57 1.356 . S
N60 C52 1.356 . S
N60 H66 0.984 . S
N60 H67 0.984 . S
N61 C54 1.356 . S
N61 H64 0.984 . S
N61 H65 0.985 . S
H62 N57 0.984 . S
H63 N57 0.985 . S
H64 N61 0.984 . S
H65 N61 0.985 . S
H66 N60 0.984 . S
H67 N60 0.984 . S
H68 N56 0.984 . S
H69 N56 0.985 . S
C70 C71 1.363 . S
C70 C76 1.379 . S
C70 N78 1.356 . S
C71 C70 1.363 . S
C71 C77 1.363 . S
C72 C73 1.363 . S
C72 C77 1.379 . S
C72 N79 1.356 . S
C73 C72 1.363 . S
C73 C76 1.363 . S
N74 C76 1.356 . S
N74 H86 0.984 . S
N74 H87 0.985 . S
N75 C77 1.356 . S
N75 H80 0.984 . S
N75 H81 0.985 . S
C76 C70 1.379 . S
C76 C73 1.363 . S
C76 N74 1.356 . S
C77 C71 1.363 . S
C77 C72 1.379 . S
C77 N75 1.356 . S
N78 C70 1.356 . S
N78 H84 0.984 . S
N78 H85 0.984 . S
N79 C72 1.356 . S
N79 H82 0.984 . S
N79 H83 0.985 . S
H80 N75 0.984 . S
H81 N75 0.985 . S
H82 N79 0.984 . S
H83 N79 0.985 . S
H84 N78 0.984 . S
H85 N78 0.984 . S
H86 N74 0.984 . S
H87 N74 0.985 . S
C88 C89 1.363 1_565 S
C88 C94 1.379 . S
C88 N96 1.356 . S
C89 C88 1.363 1_545 S
C89 C95 1.363 . S
C90 C91 1.363 1_545 S
C90 C95 1.379 . S
C90 N97 1.356 . S
C91 C90 1.363 1_565 S
C91 C94 1.363 . S
N92 C94 1.356 . S
N92 H104 0.984 . S
N92 H105 0.985 . S
N93 C95 1.356 . S
N93 H98 0.984 . S
N93 H99 0.985 . S
C94 C88 1.379 . S
C94 C91 1.363 . S
C94 N92 1.356 . S
C95 C89 1.363 . S
C95 C90 1.379 . S
C95 N93 1.356 . S
N96 C88 1.356 . S
N96 H102 0.984 . S
N96 H103 0.984 . S
N97 C90 1.356 . S
N97 H100 0.984 . S
N97 H101 0.985 . S
H98 N93 0.984 . S
H99 N93 0.985 . S
H100 N97 0.984 . S
H101 N97 0.985 . S
H102 N96 0.984 . S
H103 N96 0.984 . S
H104 N92 0.984 . S
H105 N92 0.985 . S
C106 C107 1.363 . S
C106 C112 1.379 . S
C106 N114 1.356 . S
C107 C106 1.363 . S
C107 C113 1.363 . S
C108 C109 1.363 . S
C108 C113 1.379 . S
C108 N115 1.356 . S
C109 C108 1.363 . S
C109 C112 1.363 . S
N110 C112 1.356 . S
N110 H122 0.984 . S
N110 H123 0.985 . S
N111 C113 1.356 . S
N111 H116 0.984 . S
N111 H117 0.985 . S
C112 C106 1.379 . S
C112 C109 1.363 . S
C112 N110 1.356 . S
C113 C107 1.363 . S
C113 C108 1.379 . S
C113 N111 1.356 . S
N114 C106 1.356 . S
N114 H120 0.984 . S
N114 H121 0.984 . S
N115 C108 1.356 . S
N115 H118 0.984 . S
N115 H119 0.985 . S
H116 N111 0.984 . S
H117 N111 0.985 . S
H118 N115 0.984 . S
H119 N115 0.985 . S
H120 N114 0.984 . S
H121 N114 0.984 . S
H122 N110 0.984 . S
H123 N110 0.985 . S
C124 C125 1.363 1_565 S
C124 C130 1.379 . S
C124 N132 1.356 1_565 S
C125 C124 1.363 1_545 S
C125 C131 1.363 1_454 S
C126 C127 1.363 1_545 S
C126 C131 1.379 . S
C126 N133 1.356 1_545 S
C127 C126 1.363 1_565 S
C127 C130 1.363 1_656 S
N128 C130 1.356 . S
N128 H140 0.984 . S
N128 H141 0.985 1_454 S
N129 C131 1.356 . S
N129 H134 0.984 1_656 S
N129 H135 0.985 . S
C130 C124 1.379 . S
C130 C127 1.363 1_454 S
C130 N128 1.356 . S
C131 C125 1.363 1_656 S
C131 C126 1.379 . S
C131 N129 1.356 . S
N132 C124 1.356 1_545 S
N132 H138 0.984 1_545 S
N132 H139 0.984 . S
N133 C126 1.356 1_565 S
N133 H136 0.984 . S
N133 H137 0.985 1_565 S
H134 N129 0.984 1_454 S
H135 N129 0.985 . S
H136 N133 0.984 . S
H137 N133 0.985 1_545 S
H138 N132 0.984 1_565 S
H139 N132 0.984 . S
H140 N128 0.984 . S
H141 N128 0.985 1_656 S
C142 C143 1.363 1_554 S
C142 C148 1.379 1_545 S
C142 N150 1.356 . S
C143 C142 1.363 1_556 S
C143 C149 1.363 . S
C144 C145 1.363 1_556 S
C144 C149 1.379 1_565 S
C144 N151 1.356 . S
C145 C144 1.363 1_554 S
C145 C148 1.363 . S
N146 C148 1.356 . S
N146 H158 0.984 . S
N146 H159 0.985 . S
N147 C149 1.356 . S
N147 H152 0.984 . S
N147 H153 0.985 . S
C148 C142 1.379 1_565 S
C148 C145 1.363 . S
C148 N146 1.356 . S
C149 C143 1.363 . S
C149 C144 1.379 1_545 S
C149 N147 1.356 . S
N150 C142 1.356 . S
N150 H156 0.984 . S
N150 H157 0.984 . S
N151 C144 1.356 . S
N151 H154 0.984 . S
N151 H155 0.985 . S
H152 N147 0.984 . S
H153 N147 0.985 . S
H154 N151 0.984 . S
H155 N151 0.985 . S
H156 N150 0.984 . S
H157 N150 0.984 . S
H158 N146 0.984 . S
H159 N146 0.985 . S
C160 C161 1.363 1_455 S
C160 C166 1.379 . S
C160 N168 1.356 . S
C161 C160 1.363 1_655 S
C161 C167 1.363 . S
C162 C163 1.363 1_655 S
C162 C167 1.379 . S
C162 N169 1.356 . S
C163 C162 1.363 1_455 S
C163 C166 1.363 . S
N164 C166 1.356 . S
N164 H176 0.984 . S
N164 H177 0.985 . S
N165 C167 1.356 . S
N165 H170 0.984 . S
N165 H171 0.985 . S
C166 C160 1.379 . S
C166 C163 1.363 . S
C166 N164 1.356 . S
C167 C161 1.363 . S
C167 C162 1.379 . S
C167 N165 1.356 . S
N168 C160 1.356 . S
N168 H174 0.984 . S
N168 H175 0.984 . S
N169 C162 1.356 . S
N169 H172 0.984 . S
N169 H173 0.985 . S
H170 N165 0.984 . S
H171 N165 0.985 . S
H172 N169 0.984 . S
H173 N169 0.985 . S
H174 N168 0.984 . S
H175 N168 0.984 . S
H176 N164 0.984 . S
H177 N164 0.985 . S
C178 C179 1.363 . S
C178 C184 1.379 . S
C178 N186 1.356 . S
C179 C178 1.363 . S
C179 C185 1.363 . S
C180 C181 1.363 . S
C180 C185 1.379 . S
C180 N187 1.356 . S
C181 C180 1.363 . S
C181 C184 1.363 . S
N182 C184 1.356 . S
N182 H194 0.984 . S
N182 H195 0.985 . S
N183 C185 1.356 . S
N183 H188 0.984 . S
N183 H189 0.985 . S
C184 C178 1.379 . S
C184 C181 1.363 . S
C184 N182 1.356 . S
C185 C179 1.363 . S
C185 C180 1.379 . S
C185 N183 1.356 . S
N186 C178 1.356 . S
N186 H192 0.984 . S
N186 H193 0.984 . S
N187 C180 1.356 . S
N187 H190 0.984 . S
N187 H191 0.985 . S
H188 N183 0.984 . S
H189 N183 0.985 . S
H190 N187 0.984 . S
H191 N187 0.985 . S
H192 N186 0.984 . S
H193 N186 0.984 . S
H194 N182 0.984 . S
H195 N182 0.985 . S
C53 C18 1.117 . S
C55 C5 1.117 . S
C71 C8 0.932 . S
C73 C21 0.932 . S
C89 C44 1.117 . S
C91 C31 1.117 . S
C107 C34 0.932 . S
C109 C47 0.932 . S
C125 C10 1.645 . S
C127 C36 1.645 . S
C143 C49 1.645 . S
C145 C23 1.645 . S
C161 C26 1.589 . S
C163 C0 1.589 . S
C179 C13 1.589 . S
C181 C39 1.589 . S
