# Generated by pormake.
# Topology lcy, (6)-cn, num edge types: 1
# Building blocks:
#     Node 0, Type 0, BuildingBlock: OJICUG_clean_sbu_0, # of connection points: 6
#     Node 1, Type 0, BuildingBlock: OJICUG_clean_sbu_0, # of connection points: 6
#     Node 2, Type 0, BuildingBlock: OJICUG_clean_sbu_0, # of connection points: 6
#     Node 3, Type 0, BuildingBlock: OJICUG_clean_sbu_0, # of connection points: 6
#     Edge 4, Type (0, 0), BuildingBlock: OJICUG_clean_linker_0, # of connection points: 2
#     Edge 5, Type (0, 0), BuildingBlock: OJICUG_clean_linker_0, # of connection points: 2
#     Edge 6, Type (0, 0), BuildingBlock: OJICUG_clean_linker_0, # of connection points: 2
#     Edge 7, Type (0, 0), BuildingBlock: OJICUG_clean_linker_0, # of connection points: 2
#     Edge 8, Type (0, 0), BuildingBlock: OJICUG_clean_linker_0, # of connection points: 2
#     Edge 9, Type (0, 0), BuildingBlock: OJICUG_clean_linker_0, # of connection points: 2
#     Edge 10, Type (0, 0), BuildingBlock: OJICUG_clean_linker_0, # of connection points: 2
#     Edge 11, Type (0, 0), BuildingBlock: OJICUG_clean_linker_0, # of connection points: 2
#     Edge 12, Type (0, 0), BuildingBlock: OJICUG_clean_linker_0, # of connection points: 2
#     Edge 13, Type (0, 0), BuildingBlock: OJICUG_clean_linker_0, # of connection points: 2
#     Edge 14, Type (0, 0), BuildingBlock: OJICUG_clean_linker_0, # of connection points: 2
#     Edge 15, Type (0, 0), BuildingBlock: OJICUG_clean_linker_0, # of connection points: 2
# Relax obj value: 0.357
# Max RMSD: 0.279
# Mean RMSD: 0.279
data_MOF--net-lcy--node1-OJICUG_clean_sbu_0--edge1-OJICUG_clean_linker_0
_symmetry_space_group_name_H-M    P1
_symmetry_Int_Tables_number       1
_symmetry_cell_setting            triclinic
loop_
_symmetry_equiv_pos_as_xyz
'x, y, z'
_cell_length_a     19.765191
_cell_length_b     19.23248
_cell_length_c     19.507725
_cell_angle_alpha  89.812362
_cell_angle_beta   90.12958
_cell_angle_gamma 89.214692
loop_
_atom_site_label
_atom_site_type_symbol
_atom_site_fract_x
_atom_site_fract_y
_atom_site_fract_z
_atom_type_partial_charge
Sc0 Sc 0.32547 0.45829 0.4007 0.0
Sc1 Sc 0.33207 0.28089 0.42169 0.0
Sc2 Sc 0.41492 0.35559 0.28607 0.0
O3 O 0.3587 0.36578 0.36901 0.0
C4 C 0.30021 0.4699 0.24354 0.0
C5 C 0.19981 0.35455 0.42149 0.0
C6 C 0.35119 0.2172 0.27239 0.0
C7 C 0.33769 0.39803 0.53729 0.0
C8 C 0.47232 0.49501 0.3394 0.0
C9 C 0.48318 0.25759 0.40515 0.0
O10 O 0.28078 0.48166 0.30444 0.0
O11 O 0.23069 0.30391 0.39311 0.0
O12 O 0.3502 0.27763 0.24768 0.0
O13 O 0.37088 0.43618 0.49706 0.0
O14 O 0.48266 0.43474 0.31547 0.0
O15 O 0.43393 0.2623 0.4467 0.0
O16 O 0.4168 0.5127 0.36847 0.0
O17 O 0.31531 0.33983 0.51655 0.0
O18 O 0.48189 0.28145 0.34323 0.0
O19 O 0.2294 0.41188 0.43526 0.0
O20 O 0.35033 0.4296 0.22851 0.0
O21 O 0.34791 0.20821 0.33687 0.0
Sc22 Sc 0.92317 0.14551 0.69466 0.0
Sc23 Sc 0.82059 0.04393 0.59338 0.0
Sc24 Sc 0.824 0.22023 0.56965 0.0
O25 O 0.85714 0.13593 0.61957 0.0
C26 C 0.85485 0.28341 0.71763 0.0
C27 C 0.81379 0.03488 0.75055 0.0
C28 C 0.69464 0.15114 0.57656 0.0
C29 C 0.97302 0.00433 0.64033 0.0
C30 C 0.976 0.24227 0.56914 0.0
C31 C 0.82148 0.10128 0.45507 0.0
O32 O 0.86242 0.22322 0.7422 0.0
O33 O 0.78452 0.02658 0.69331 0.0
O34 O 0.72699 0.1973 0.60871 0.0
O35 O -0.01227 0.06648 0.6545 0.0
O36 O 0.92229 0.23703 0.53381 0.0
O37 O 0.85777 0.0623 0.493 0.0
O38 O 0.98124 0.22127 0.63186 0.0
O39 O 0.91362 0.98704 0.6214 0.0
O40 O 0.80047 0.16023 0.47706 0.0
O41 O 0.86762 0.07068 0.75876 0.0
O42 O 0.84524 0.29237 0.65358 0.0
O43 O 0.72226 0.09188 0.56369 0.0
Sc44 Sc 0.14799 0.54238 0.89996 0.0
Sc45 Sc 0.13937 0.71956 0.91977 0.0
Sc46 Sc 0.05786 0.64437 0.78386 0.0
O47 O 0.11413 0.63459 0.86719 0.0
C48 C 0.17348 0.53096 0.74304 0.0
C49 C 0.27247 0.64769 0.92075 0.0
C50 C 0.1214 0.78361 0.76966 0.0
C51 C 0.13522 0.60234 0.03614 0.0
C52 C 0.00146 0.50452 0.83849 0.0
C53 C -0.01213 0.74031 0.90192 0.0
O54 O 0.19285 0.51928 0.80413 0.0
O55 O 0.24096 0.69798 0.89203 0.0
O56 O 0.12113 0.72343 0.74466 0.0
O57 O 0.10235 0.56397 -0.00403 0.0
O58 O -0.00897 0.5646 0.81375 0.0
O59 O 0.03708 0.73612 0.94382 0.0
O60 O 0.05707 0.48708 0.86788 0.0
O61 O 0.15681 0.66087 0.01519 0.0
O62 O -0.0101 0.71767 0.83979 0.0
O63 O 0.24362 0.5899 0.93463 0.0
O64 O 0.12323 0.571 0.72735 0.0
O65 O 0.12369 0.79209 0.83426 0.0
Sc66 Sc 0.64673 0.78265 0.06867 0.0
Sc67 Sc 0.658 0.95698 0.09795 0.0
Sc68 Sc 0.54945 0.85795 0.19394 0.0
O69 O 0.61672 0.86619 0.1201 0.0
C70 C 0.49445 0.76358 0.06845 0.0
C71 C 0.65193 0.90663 0.95757 0.0
C72 C 0.50663 0.00105 0.14352 0.0
C73 C 0.77875 0.84623 0.07481 0.0
C74 C 0.61535 0.7181 0.21688 0.0
C75 C 0.66444 0.95893 0.2539 0.0
O76 O 0.5478 0.76925 0.033 0.0
O77 O 0.61917 0.94679 -0.00276 0.0
O78 O 0.48871 0.93862 0.15085 0.0
O79 O 0.74524 0.80083 0.10683 0.0
O80 O 0.60728 0.77789 0.24216 0.0
O81 O 0.69671 0.9633 0.19807 0.0
O82 O 0.62508 0.70998 0.1527 0.0
O83 O 0.75325 0.90683 0.06395 0.0
O84 O 0.60558 0.93183 0.25917 0.0
O85 O 0.66962 0.8454 0.97715 0.0
O86 O 0.48997 0.78357 0.13131 0.0
O87 O 0.56781 0.01698 0.12992 0.0
C88 C 0.19463 0.60487 0.14943 0.0
C89 C 0.17354 0.5676 0.09181 0.0
H90 H 0.25169 0.60253 0.24294 0.0
C91 C 0.19691 0.4986 0.08299 0.0
H92 H 0.1785 0.6584 0.15666 0.0
C93 C 0.24079 0.46763 0.13068 0.0
C94 C 0.26073 0.50448 0.18887 0.0
H95 H 0.1829 0.46908 0.03806 0.0
H96 H 0.25772 0.41442 0.12296 0.0
C97 C 0.23701 0.57317 0.19812 0.0
C98 C 0.76026 0.9627 0.33421 0.0
C99 C 0.69781 0.99053 0.31272 0.0
H100 H 0.84929 0.97665 0.39457 0.0
C101 C 0.67783 0.05699 0.33458 0.0
H102 H 0.77768 0.91257 0.31549 0.0
C103 C 0.71994 0.09509 0.37779 0.0
C104 C 0.78228 0.06683 0.40043 0.0
H105 H 0.63113 0.08054 0.316 0.0
H106 H 0.70321 0.14626 0.39399 0.0
C107 C 0.80184 1.00013 0.37804 0.0
C108 C 0.23316 0.53323 0.63066 0.0
C109 C 0.21303 0.49639 0.68892 0.0
H110 H 0.291 0.53158 0.53831 0.0
C111 C 0.23648 0.42761 0.69873 0.0
H112 H 0.21641 0.58651 0.62255 0.0
C113 C 0.27872 0.39578 0.65045 0.0
C114 C 0.2999 0.43299 0.5927 0.0
H115 H 0.22163 0.39828 0.74364 0.0
H116 H 0.29458 0.34215 0.65802 0.0
C117 C 0.2769 0.50211 0.58337 0.0
C118 C 0.72672 0.89858 0.85442 0.0
C119 C 0.69233 0.93947 0.90295 0.0
H120 H 0.79383 0.89757 0.76821 0.0
C121 C 0.70401 0.01167 0.90459 0.0
H122 H 0.71979 0.84284 0.85265 0.0
C123 C 0.74843 0.04229 0.85827 0.0
C124 C 0.78112 0.00151 0.80895 0.0
H125 H 0.67955 0.04466 0.94227 0.0
H126 H 0.75494 0.09814 0.85906 0.0
C127 C 0.77002 0.92956 0.80718 0.0
C128 C 0.07692 0.32071 0.56492 0.0
C129 C 0.03347 0.27358 0.53305 0.0
H130 H 0.16241 0.38723 0.55258 0.0
C131 C 0.04102 0.26005 0.46265 0.0
H132 H 0.07119 0.33298 0.61877 0.0
C133 C 0.09232 0.29086 0.42518 0.0
C134 C 0.13673 0.33687 0.45685 0.0
H135 H 0.00788 0.22422 0.43662 0.0
H136 H 0.0988 0.27684 0.37179 0.0
C137 C 0.12791 0.3528 0.52674 0.0
C138 C 0.05411 0.82763 0.66959 0.0
C139 C 0.09715 0.84156 0.72556 0.0
H140 H 0.98022 0.86823 0.59878 0.0
C141 C 0.10688 0.91071 0.74501 0.0
H142 H 0.0452 0.77471 0.6534 0.0
C143 C 0.07083 0.96438 0.71237 0.0
C144 C 0.02275 0.94978 0.66095 0.0
H145 H 0.13963 0.92299 0.78778 0.0
H146 H 0.07697 0.01679 0.73134 0.0
C147 C 0.01655 0.88111 0.63825 0.0
C148 C 0.34436 0.65052 0.02626 0.0
C149 C 0.33525 0.66635 0.95625 0.0
H150 H 0.40081 0.67129 0.11838 0.0
C151 C 0.3786 0.71349 0.92457 0.0
H152 H 0.31063 0.61523 0.05209 0.0
C153 C 0.42909 0.74551 0.96214 0.0
C154 C 0.437 0.73195 0.03261 0.0
H155 H 0.37184 0.72745 0.87109 0.0
H156 H 0.46147 0.7821 0.93607 0.0
C157 C 0.39466 0.6837 0.0645 0.0
C158 C 0.42589 0.17715 0.17681 0.0
C159 C 0.37968 0.16089 0.22934 0.0
H160 H 0.50334 0.13942 0.1089 0.0
C161 C 0.36986 0.09107 0.24659 0.0
H162 H 0.43517 0.2307 0.1627 0.0
C163 C 0.40781 0.03883 0.21444 0.0
C164 C 0.45788 0.0555 0.16582 0.0
H165 H 0.33495 0.0771 0.28694 0.0
H166 H 0.40093 0.98565 0.2312 0.0
C167 C 0.46534 0.12504 0.14608 0.0
C168 C 0.59293 0.13125 0.50192 0.0
C169 C 0.64099 0.17642 0.52944 0.0
H170 H 0.50469 0.12217 0.43827 0.0
C171 C 0.64211 0.24593 0.50617 0.0
H172 H 0.59182 0.07725 0.51775 0.0
C173 C 0.59472 0.27043 0.45863 0.0
C174 C 0.54473 0.22633 0.43402 0.0
H175 H 0.67969 0.2818 0.52474 0.0
H176 H 0.5945 0.32499 0.44447 0.0
C177 C 0.54437 0.15642 0.45535 0.0
C178 C 0.95699 0.38307 0.84679 0.0
C179 C 0.95126 0.45085 0.82065 0.0
H180 H 0.92875 0.277 0.83617 0.0
C181 C 0.90297 0.46479 0.76874 0.0
H182 H -0.00697 0.37066 0.88706 0.0
C183 C 0.86706 0.41095 0.73837 0.0
C184 C 0.87737 0.34226 0.76036 0.0
H185 H 0.89648 0.51661 0.74758 0.0
H186 H 0.83442 0.42259 0.69503 0.0
C187 C 0.91979 0.32943 0.81748 0.0
C188 C 0.91857 0.84041 0.94161 0.0
C189 C 0.92535 0.76848 0.93092 0.0
H190 H 0.86688 0.92196 -0.00377 0.0
C191 C 0.88394 0.72288 0.96697 0.0
H192 H 0.95202 0.8762 0.91591 0.0
C193 C 0.83785 0.74837 0.01487 0.0
C194 C 0.83169 0.82033 0.02735 0.0
H195 H 0.8902 0.66711 0.96118 0.0
H196 H 0.80729 0.71123 0.04234 0.0
C197 C 0.87129 0.8663 0.98879 0.0
C198 C 0.55397 0.67007 0.31816 0.0
C199 C 0.59425 0.65834 0.25952 0.0
H200 H 0.48312 0.62765 0.38948 0.0
C201 C 0.60351 0.59005 0.23632 0.0
H202 H 0.54591 0.7221 0.3379 0.0
C203 C 0.56849 0.53569 0.26712 0.0
C204 C 0.52217 0.54874 0.32072 0.0
H205 H 0.6345 0.57918 0.19179 0.0
H206 H 0.57389 0.48431 0.24504 0.0
C207 C 0.51764 0.61597 0.34791 0.0
loop_
_geom_bond_atom_site_label_1
_geom_bond_atom_site_label_2
_geom_bond_distance
_geom_bond_site_symmetry_2
_ccdc_geom_bond_type
Sc0 O3 2.025 . S
Sc0 O10 2.105 . S
Sc0 O13 2.105 . S
Sc0 O16 2.105 . S
Sc0 O19 2.105 . S
Sc1 O3 2.025 . S
Sc1 O11 2.105 . S
Sc1 O15 2.105 . S
Sc1 O17 2.105 . S
Sc1 O21 2.105 . S
Sc2 O3 2.025 . S
Sc2 O12 2.105 . S
Sc2 O14 2.105 . S
Sc2 O18 2.105 . S
Sc2 O20 2.105 . S
O3 Sc0 2.025 . S
O3 Sc1 2.025 . S
O3 Sc2 2.025 . S
C4 O10 1.268 . S
C4 O20 1.268 . S
C5 O11 1.268 . S
C5 O19 1.268 . S
C6 O12 1.268 . S
C6 O21 1.268 . S
C7 O13 1.268 . S
C7 O17 1.268 . S
C8 O14 1.268 . S
C8 O16 1.268 . S
C9 O15 1.268 . S
C9 O18 1.268 . S
O10 Sc0 2.105 . S
O10 C4 1.268 . S
O11 Sc1 2.105 . S
O11 C5 1.268 . S
O12 Sc2 2.105 . S
O12 C6 1.268 . S
O13 Sc0 2.105 . S
O13 C7 1.268 . S
O14 Sc2 2.105 . S
O14 C8 1.268 . S
O15 Sc1 2.105 . S
O15 C9 1.268 . S
O16 Sc0 2.105 . S
O16 C8 1.268 . S
O17 Sc1 2.105 . S
O17 C7 1.268 . S
O18 Sc2 2.105 . S
O18 C9 1.268 . S
O19 Sc0 2.105 . S
O19 C5 1.268 . S
O20 Sc2 2.105 . S
O20 C4 1.268 . S
O21 Sc1 2.105 . S
O21 C6 1.268 . S
Sc22 O25 2.025 . S
Sc22 O32 2.105 . S
Sc22 O35 2.105 . S
Sc22 O38 2.105 1_655 S
Sc22 O41 2.105 . S
Sc23 O25 2.025 . S
Sc23 O33 2.105 . S
Sc23 O37 2.105 . S
Sc23 O39 2.105 1_545 S
Sc23 O43 2.105 . S
Sc24 O25 2.025 . S
Sc24 O34 2.105 . S
Sc24 O36 2.105 . S
Sc24 O40 2.105 . S
Sc24 O42 2.105 . S
O25 Sc22 2.025 . S
O25 Sc23 2.025 . S
O25 Sc24 2.025 . S
C26 O32 1.268 . S
C26 O42 1.268 . S
C27 O33 1.268 . S
C27 O41 1.268 . S
C28 O34 1.268 . S
C28 O43 1.268 . S
C29 O35 1.268 1_565 S
C29 O39 1.268 . S
C30 O36 1.268 1_455 S
C30 O38 1.268 . S
C31 O37 1.268 . S
C31 O40 1.268 . S
O32 Sc22 2.105 . S
O32 C26 1.268 . S
O33 Sc23 2.105 . S
O33 C27 1.268 . S
O34 Sc24 2.105 . S
O34 C28 1.268 . S
O35 Sc22 2.105 . S
O35 C29 1.268 1_545 S
O36 Sc24 2.105 . S
O36 C30 1.268 1_655 S
O37 Sc23 2.105 . S
O37 C31 1.268 . S
O38 Sc22 2.105 1_455 S
O38 C30 1.268 . S
O39 Sc23 2.105 1_565 S
O39 C29 1.268 . S
O40 Sc24 2.105 . S
O40 C31 1.268 . S
O41 Sc22 2.105 . S
O41 C27 1.268 . S
O42 Sc24 2.105 . S
O42 C26 1.268 . S
O43 Sc23 2.105 . S
O43 C28 1.268 . S
Sc44 O47 2.025 . S
Sc44 O54 2.105 . S
Sc44 O57 2.105 . S
Sc44 O60 2.105 . S
Sc44 O63 2.105 . S
Sc45 O47 2.025 . S
Sc45 O55 2.105 . S
Sc45 O59 2.105 . S
Sc45 O61 2.105 1_556 S
Sc45 O65 2.105 . S
Sc46 O47 2.025 . S
Sc46 O56 2.105 . S
Sc46 O58 2.105 . S
Sc46 O62 2.105 1_455 S
Sc46 O64 2.105 . S
O47 Sc44 2.025 . S
O47 Sc45 2.025 . S
O47 Sc46 2.025 . S
C48 O54 1.268 . S
C48 O64 1.268 . S
C49 O55 1.268 . S
C49 O63 1.268 . S
C50 O56 1.268 . S
C50 O65 1.268 . S
C51 O57 1.268 1_554 S
C51 O61 1.268 . S
C52 O58 1.268 . S
C52 O60 1.268 . S
C53 O59 1.268 1_655 S
C53 O62 1.268 . S
O54 Sc44 2.105 . S
O54 C48 1.268 . S
O55 Sc45 2.105 . S
O55 C49 1.268 . S
O56 Sc46 2.105 . S
O56 C50 1.268 . S
O57 Sc44 2.105 . S
O57 C51 1.268 1_556 S
O58 Sc46 2.105 . S
O58 C52 1.268 . S
O59 Sc45 2.105 . S
O59 C53 1.268 1_455 S
O60 Sc44 2.105 . S
O60 C52 1.268 . S
O61 Sc45 2.105 1_554 S
O61 C51 1.268 . S
O62 Sc46 2.105 1_655 S
O62 C53 1.268 . S
O63 Sc44 2.105 . S
O63 C49 1.268 . S
O64 Sc46 2.105 . S
O64 C48 1.268 . S
O65 Sc45 2.105 . S
O65 C50 1.268 . S
Sc66 O69 2.025 . S
Sc66 O76 2.105 . S
Sc66 O79 2.105 . S
Sc66 O82 2.105 . S
Sc66 O85 2.105 1_554 S
Sc67 O69 2.025 . S
Sc67 O77 2.105 . S
Sc67 O81 2.105 . S
Sc67 O83 2.105 . S
Sc67 O87 2.105 1_565 S
Sc68 O69 2.025 . S
Sc68 O78 2.105 . S
Sc68 O80 2.105 . S
Sc68 O84 2.105 . S
Sc68 O86 2.105 . S
O69 Sc66 2.025 . S
O69 Sc67 2.025 . S
O69 Sc68 2.025 . S
C70 O76 1.268 . S
C70 O86 1.268 . S
C71 O77 1.268 1_556 S
C71 O85 1.268 . S
C72 O78 1.268 1_545 S
C72 O87 1.268 . S
C73 O79 1.268 . S
C73 O83 1.268 . S
C74 O80 1.268 . S
C74 O82 1.268 . S
C75 O81 1.268 . S
C75 O84 1.268 . S
O76 Sc66 2.105 . S
O76 C70 1.268 . S
O77 Sc67 2.105 . S
O77 C71 1.268 1_554 S
O78 Sc68 2.105 . S
O78 C72 1.268 1_565 S
O79 Sc66 2.105 . S
O79 C73 1.268 . S
O80 Sc68 2.105 . S
O80 C74 1.268 . S
O81 Sc67 2.105 . S
O81 C75 1.268 . S
O82 Sc66 2.105 . S
O82 C74 1.268 . S
O83 Sc67 2.105 . S
O83 C73 1.268 . S
O84 Sc68 2.105 . S
O84 C75 1.268 . S
O85 Sc66 2.105 1_556 S
O85 C71 1.268 . S
O86 Sc68 2.105 . S
O86 C70 1.268 . S
O87 Sc67 2.105 1_545 S
O87 C72 1.268 . S
C88 C89 1.387 . S
C88 H92 0.950 . S
C88 C97 1.390 . S
C89 C88 1.387 . S
C89 C91 1.387 . S
H90 C97 0.950 . S
C91 C89 1.387 . S
C91 C93 1.390 . S
C91 H95 0.950 . S
H92 C88 0.950 . S
C93 C91 1.390 . S
C93 C94 1.387 . S
C93 H96 0.950 . S
C94 C93 1.387 . S
C94 C97 1.387 . S
H95 C91 0.950 . S
H96 C93 0.950 . S
C97 C88 1.390 . S
C97 H90 0.950 . S
C97 C94 1.387 . S
C98 C99 1.387 . S
C98 H102 0.950 . S
C98 C107 1.390 . S
C99 C98 1.387 . S
C99 C101 1.387 . S
H100 C107 0.950 . S
C101 C99 1.387 . S
C101 C103 1.390 1_565 S
C101 H105 0.950 . S
H102 C98 0.950 . S
C103 C101 1.390 1_545 S
C103 C104 1.387 . S
C103 H106 0.950 . S
C104 C103 1.387 . S
C104 C107 1.387 1_545 S
H105 C101 0.950 . S
H106 C103 0.950 . S
C107 C98 1.390 . S
C107 H100 0.950 . S
C107 C104 1.387 1_565 S
C108 C109 1.387 . S
C108 H112 0.950 . S
C108 C117 1.390 . S
C109 C108 1.387 . S
C109 C111 1.387 . S
H110 C117 0.950 . S
C111 C109 1.387 . S
C111 C113 1.390 . S
C111 H115 0.950 . S
H112 C108 0.950 . S
C113 C111 1.390 . S
C113 C114 1.387 . S
C113 H116 0.950 . S
C114 C113 1.387 . S
C114 C117 1.387 . S
H115 C111 0.950 . S
H116 C113 0.950 . S
C117 C108 1.390 . S
C117 H110 0.950 . S
C117 C114 1.387 . S
C118 C119 1.387 . S
C118 H122 0.950 . S
C118 C127 1.390 1_565 S
C119 C118 1.387 . S
C119 C121 1.387 1_565 S
H120 C127 0.950 . S
C121 C119 1.387 1_545 S
C121 C123 1.390 . S
C121 H125 0.950 . S
H122 C118 0.950 . S
C123 C121 1.390 . S
C123 C124 1.387 . S
C123 H126 0.950 . S
C124 C123 1.387 . S
C124 C127 1.387 . S
H125 C121 0.950 . S
H126 C123 0.950 . S
C127 C118 1.390 1_545 S
C127 H120 0.950 . S
C127 C124 1.387 . S
C128 C129 1.387 . S
C128 H132 0.950 . S
C128 C137 1.390 . S
C129 C128 1.387 . S
C129 C131 1.387 . S
H130 C137 0.950 . S
C131 C129 1.387 . S
C131 C133 1.390 . S
C131 H135 0.950 . S
H132 C128 0.950 . S
C133 C131 1.390 . S
C133 C134 1.387 . S
C133 H136 0.950 . S
C134 C133 1.387 . S
C134 C137 1.387 . S
H135 C131 0.950 . S
H136 C133 0.950 . S
C137 C128 1.390 . S
C137 H130 0.950 . S
C137 C134 1.387 . S
C138 C139 1.387 . S
C138 H142 0.950 . S
C138 C147 1.390 1_455 S
C139 C138 1.387 . S
C139 C141 1.387 . S
H140 C147 0.950 . S
C141 C139 1.387 . S
C141 C143 1.390 . S
C141 H145 0.950 . S
H142 C138 0.950 . S
C143 C141 1.390 . S
C143 C144 1.387 1_455 S
C143 H146 0.950 . S
C144 C143 1.387 1_655 S
C144 C147 1.387 . S
H145 C141 0.950 . S
H146 C143 0.950 . S
C147 C138 1.390 1_655 S
C147 H140 0.950 . S
C147 C144 1.387 . S
C148 C149 1.387 1_554 S
C148 H152 0.950 . S
C148 C157 1.390 . S
C149 C148 1.387 1_556 S
C149 C151 1.387 . S
H150 C157 0.950 . S
C151 C149 1.387 . S
C151 C153 1.390 . S
C151 H155 0.950 . S
H152 C148 0.950 . S
C153 C151 1.390 . S
C153 C154 1.387 1_556 S
C153 H156 0.950 . S
C154 C153 1.387 1_554 S
C154 C157 1.387 . S
H155 C151 0.950 . S
H156 C153 0.950 . S
C157 C148 1.390 . S
C157 H150 0.950 . S
C157 C154 1.387 . S
C158 C159 1.387 . S
C158 H162 0.950 . S
C158 C167 1.390 . S
C159 C158 1.387 . S
C159 C161 1.387 . S
H160 C167 0.950 . S
C161 C159 1.387 . S
C161 C163 1.390 . S
C161 H165 0.950 . S
H162 C158 0.950 . S
C163 C161 1.390 . S
C163 C164 1.387 . S
C163 H166 0.950 . S
C164 C163 1.387 . S
C164 C167 1.387 . S
H165 C161 0.950 . S
H166 C163 0.950 . S
C167 C158 1.390 . S
C167 H160 0.950 . S
C167 C164 1.387 . S
C168 C169 1.387 . S
C168 H172 0.950 . S
C168 C177 1.390 . S
C169 C168 1.387 . S
C169 C171 1.387 . S
H170 C177 0.950 . S
C171 C169 1.387 . S
C171 C173 1.390 . S
C171 H175 0.950 . S
H172 C168 0.950 . S
C173 C171 1.390 . S
C173 C174 1.387 . S
C173 H176 0.950 . S
C174 C173 1.387 . S
C174 C177 1.387 . S
H175 C171 0.950 . S
H176 C173 0.950 . S
C177 C168 1.390 . S
C177 H170 0.950 . S
C177 C174 1.387 . S
C178 C179 1.387 . S
C178 H182 0.950 . S
C178 C187 1.390 1_455 S
C179 C178 1.387 . S
C179 C181 1.387 1_455 S
H180 C187 0.950 . S
C181 C179 1.387 1_655 S
C181 C183 1.390 . S
C181 H185 0.950 . S
H182 C178 0.950 . S
C183 C181 1.390 . S
C183 C184 1.387 . S
C183 H186 0.950 . S
C184 C183 1.387 . S
C184 C187 1.387 . S
H185 C181 0.950 . S
H186 C183 0.950 . S
C187 C178 1.390 1_655 S
C187 H180 0.950 . S
C187 C184 1.387 . S
C188 C189 1.387 . S
C188 H192 0.950 . S
C188 C197 1.390 1_556 S
C189 C188 1.387 . S
C189 C191 1.387 1_556 S
H190 C197 0.950 . S
C191 C189 1.387 1_554 S
C191 C193 1.390 . S
C191 H195 0.950 . S
H192 C188 0.950 . S
C193 C191 1.390 . S
C193 C194 1.387 . S
C193 H196 0.950 . S
C194 C193 1.387 . S
C194 C197 1.387 . S
H195 C191 0.950 . S
H196 C193 0.950 . S
C197 C188 1.390 1_554 S
C197 H190 0.950 . S
C197 C194 1.387 . S
C198 C199 1.387 . S
C198 H202 0.950 . S
C198 C207 1.390 . S
C199 C198 1.387 . S
C199 C201 1.387 . S
H200 C207 0.950 . S
C201 C199 1.387 . S
C201 C203 1.390 . S
C201 H205 0.950 . S
H202 C198 0.950 . S
C203 C201 1.390 . S
C203 C204 1.387 . S
C203 H206 0.950 . S
C204 C203 1.387 . S
C204 C207 1.387 . S
H205 C201 0.950 . S
H206 C203 0.950 . S
C207 C198 1.390 . S
C207 H200 0.950 . S
C207 C204 1.387 . S
C89 C51 1.431 . S
C94 C4 1.434 . S
C99 C75 1.435 . S
C104 C31 1.434 . S
C109 C48 1.433 . S
C114 C7 1.435 . S
C119 C71 1.431 . S
C124 C27 1.434 . S
C129 C30 1.431 . S
C134 C5 1.431 . S
C139 C50 1.434 . S
C144 C29 1.431 . S
C149 C49 1.433 . S
C154 C70 1.431 . S
C159 C6 1.434 . S
C164 C72 1.431 . S
C169 C28 1.431 . S
C174 C9 1.432 . S
C179 C52 1.432 . S
C184 C26 1.434 . S
C189 C53 1.432 . S
C194 C73 1.431 . S
C199 C74 1.435 . S
C204 C8 1.433 . S
