# Generated by pormake.
# Topology kag, (6)-cn, num edge types: 1
# Building blocks:
#     Node 0, Type 0, BuildingBlock: MIDCAF_clean_sbu_0, # of connection points: 6
#     Node 1, Type 0, BuildingBlock: MIDCAF_clean_sbu_0, # of connection points: 6
#     Node 2, Type 0, BuildingBlock: MIDCAF_clean_sbu_0, # of connection points: 6
#     Edge 3, Type (0, 0), BuildingBlock: AJUNOK_clean_linker_0, # of connection points: 2
#     Edge 4, Type (0, 0), BuildingBlock: AJUNOK_clean_linker_0, # of connection points: 2
#     Edge 5, Type (0, 0), BuildingBlock: AJUNOK_clean_linker_0, # of connection points: 2
#     Edge 6, Type (0, 0), BuildingBlock: AJUNOK_clean_linker_0, # of connection points: 2
#     Edge 7, Type (0, 0), BuildingBlock: AJUNOK_clean_linker_0, # of connection points: 2
#     Edge 8, Type (0, 0), BuildingBlock: AJUNOK_clean_linker_0, # of connection points: 2
#     Edge 9, Type (0, 0), BuildingBlock: AJUNOK_clean_linker_0, # of connection points: 2
#     Edge 10, Type (0, 0), BuildingBlock: AJUNOK_clean_linker_0, # of connection points: 2
#     Edge 11, Type (0, 0), BuildingBlock: AJUNOK_clean_linker_0, # of connection points: 2
# Relax obj value: 0.345
# Max RMSD: 0.270
# Mean RMSD: 0.266
data_MOF--net-kag--node1-MIDCAF_clean_sbu_0--edge1-AJUNOK_clean_linker_0
_symmetry_space_group_name_H-M    P1
_symmetry_Int_Tables_number       1
_symmetry_cell_setting            triclinic
loop_
_symmetry_equiv_pos_as_xyz
'x, y, z'
_cell_length_a     22.296549
_cell_length_b     21.757615
_cell_length_c     11.469284
_cell_angle_alpha  89.005612
_cell_angle_beta   92.427798
_cell_angle_gamma 123.1451
loop_
_atom_site_label
_atom_site_type_symbol
_atom_site_fract_x
_atom_site_fract_y
_atom_site_fract_z
_atom_type_partial_charge
Zn0 Zn -0.01101 0.44782 0.78261 0.0
Zn1 Zn 0.07011 0.74962 0.98944 0.0
Zn2 Zn 0.01991 0.57092 0.86173 0.0
C3 C 0.09813 0.71622 0.78108 0.0
C4 C 0.09399 0.64236 0.12475 0.0
O5 O 0.90118 0.49519 0.8691 0.0
O6 O 0.88753 0.38934 0.82675 0.0
C7 C 0.05221 0.5464 0.60075 0.0
O8 O 0.0931 0.65806 0.74808 0.0
O9 O 0.04391 0.70626 0.82832 0.0
O10 O 0.09783 0.70281 0.11728 0.0
O11 O 0.07039 0.59603 0.03879 0.0
O12 O 0.01292 0.47815 0.61853 0.0
O13 O 0.0655 0.59168 0.68422 0.0
O14 O 0.08038 0.54436 0.97862 0.0
O15 O 0.06578 0.45011 0.88148 0.0
C16 C 0.09691 0.49737 0.96217 0.0
O17 O 0.92145 0.56995 0.88187 0.0
O18 O 0.96399 0.68491 0.94148 0.0
C19 C 0.86119 0.42466 0.85886 0.0
C20 C 0.91226 0.62184 0.90679 0.0
Zn21 Zn 0.33387 0.05677 0.90126 0.0
Zn22 Zn 0.56729 0.04491 0.1251 0.0
Zn23 Zn 0.45521 0.02696 0.02251 0.0
C24 C 0.50466 0.92771 0.95466 0.0
C25 C 0.46008 0.98629 0.2899 0.0
O26 O 0.47892 0.13933 0.01669 0.0
O27 O 0.40569 0.16341 0.91755 0.0
C28 C 0.38759 0.97648 0.76457 0.0
O29 O 0.46639 0.95252 0.92008 0.0
O30 O 0.55249 0.96045 0.03476 0.0
O31 O 0.52732 0.01938 0.28336 0.0
O32 O 0.42132 0.97869 0.19788 0.0
O33 O 0.35254 0.00619 0.77548 0.0
O34 O 0.42686 0.9758 0.84978 0.0
O35 O 0.36237 0.96132 0.12145 0.0
O36 O 0.30961 0.01459 0.06321 0.0
C37 C 0.30625 0.95512 0.07507 0.0
O38 O 0.54803 0.14363 0.01728 0.0
O39 O 0.64328 0.14763 0.08965 0.0
C40 C 0.46119 0.18426 0.98189 0.0
C41 C 0.61595 0.17976 0.04139 0.0
Zn42 Zn 0.37937 0.37991 0.99142 0.0
Zn43 Zn 0.62027 0.6784 0.17614 0.0
Zn44 Zn 0.51526 0.5514 0.10893 0.0
C45 C 0.66992 0.62069 0.02318 0.0
C46 C 0.57555 0.59141 0.37208 0.0
O47 O 0.40986 0.53787 0.07987 0.0
O48 O 0.32247 0.42543 0.01326 0.0
C49 C 0.50732 0.49128 0.84709 0.0
O50 O 0.60238 0.57832 1.00043 0.0
O51 O 0.69353 0.66698 0.10546 0.0
O52 O 0.60402 0.65855 0.34801 0.0
O53 O 0.54681 0.54355 0.28945 0.0
O54 O 0.44704 0.43069 0.85515 0.0
O55 O 0.53918 0.53441 0.93573 0.0
O56 O 0.51533 0.47737 0.23426 0.0
O57 O 0.41145 0.40915 0.15686 0.0
C58 C 0.46484 0.41293 0.20531 0.0
O59 O 0.4691 0.61632 0.08784 0.0
O60 O 0.5751 0.71988 0.07552 0.0
C61 C 0.3438 0.48949 0.04964 0.0
C62 C 0.50802 0.68358 0.05627 0.0
C63 C 0.04337 0.52086 0.38728 0.0
C64 C 0.07643 0.57171 0.48038 0.0
C65 C 0.05556 0.54344 0.27106 0.0
C66 C 0.10108 0.61795 0.24285 0.0
H67 H 0.00427 0.46335 0.40359 0.0
H68 H 0.02436 0.50272 0.20348 0.0
S69 S 0.21578 0.76993 0.4521 0.0
N70 N 0.16804 0.69768 0.53549 0.0
N71 N 0.18986 0.74059 0.31617 0.0
C72 C 0.14027 0.66831 0.33434 0.0
C73 C 0.12813 0.64514 0.45326 0.0
C74 C 0.46954 0.95686 0.49859 0.0
C75 C 0.42916 0.96334 0.40684 0.0
C76 C 0.45144 0.95289 0.61525 0.0
C77 C 0.39221 0.95526 0.64456 0.0
H78 H 0.51828 0.95955 0.48092 0.0
H79 H 0.48759 0.95417 0.68267 0.0
S80 S 0.26082 0.95713 0.436 0.0
N81 N 0.32164 0.96159 0.35286 0.0
N82 N 0.28606 0.95162 0.57099 0.0
C83 C 0.34678 0.95317 0.55282 0.0
C84 C 0.36567 0.95795 0.43417 0.0
C85 C 0.51124 0.46717 0.63644 0.0
C86 C 0.53707 0.51727 0.73 0.0
C87 C 0.52712 0.49137 0.52132 0.0
C88 C 0.56948 0.56677 0.49487 0.0
H89 H 0.47588 0.40879 0.65157 0.0
H90 H 0.50314 0.45026 0.45292 0.0
S91 S 0.65847 0.72047 0.7082 0.0
N92 N 0.61216 0.64631 0.78818 0.0
N93 N 0.64413 0.69084 0.57242 0.0
C94 C 0.60011 0.61717 0.58794 0.0
C95 C 0.58342 0.59272 0.70527 0.0
C96 C 0.16995 0.47238 0.10095 0.0
C97 C 0.16604 0.5122 0.0069 0.0
C98 C 0.23146 0.47051 0.12151 0.0
C99 C 0.29036 0.50878 0.04898 0.0
H100 H 0.12368 0.43866 0.15339 0.0
H101 H 0.23125 0.43531 0.18971 0.0
S102 S 0.30539 0.62022 0.79137 0.0
N103 N 0.22544 0.5902 0.84089 0.0
N104 N 0.34133 0.58799 0.88172 0.0
C105 C 0.28829 0.5517 0.95882 0.0
C106 C 0.22576 0.55295 0.93708 0.0
C107 C 0.6691 0.26863 0.87845 0.0
C108 C 0.66482 0.25547 0.99926 0.0
C109 C 0.73063 0.32993 0.83201 0.0
C110 C 0.78857 0.38111 0.9052 0.0
H111 H 0.62834 0.22746 0.81884 0.0
H112 H 0.73549 0.33392 0.73818 0.0
S113 S 0.79787 0.37778 0.22819 0.0
N114 N 0.71966 0.30277 0.19144 0.0
N115 N 0.83375 0.41926 0.10449 0.0
C116 C 0.78116 0.37268 0.0264 0.0
C117 C 0.71954 0.30948 0.07345 0.0
C118 C 0.44256 0.80735 0.04579 0.0
C119 C 0.47564 0.8491 0.94574 0.0
C120 C 0.44276 0.74458 0.07331 0.0
C121 C 0.47754 0.72283 0.0025 0.0
H122 H 0.42447 0.82854 0.11094 0.0
H123 H 0.4239 0.71893 0.15727 0.0
S124 S 0.55796 0.80364 0.71882 0.0
N125 N 0.53295 0.85721 0.76658 0.0
N126 N 0.53412 0.73901 0.81809 0.0
C127 C 0.50283 0.75859 0.89524 0.0
C128 C 0.50199 0.82221 0.86691 0.0
C129 C 0.78094 0.5483 0.94104 0.0
C130 C 0.84143 0.61181 0.89775 0.0
C131 C 0.72072 0.54873 0.97041 0.0
C132 C 0.72067 0.61314 0.95905 0.0
H133 H 0.78271 0.5009 0.96309 0.0
H134 H 0.67733 0.50104 0.01275 0.0
S135 S 0.85979 0.78856 0.82903 0.0
N136 N 0.89167 0.73577 0.82424 0.0
N137 N 0.78121 0.73817 0.88922 0.0
C138 C 0.77775 0.67433 0.90601 0.0
C139 C 0.83749 0.67311 0.87229 0.0
C140 C 0.17362 0.84845 0.82262 0.0
C141 C 0.1672 0.78057 0.8251 0.0
C142 C 0.21922 0.90443 0.90217 0.0
C143 C 0.26328 0.89664 0.98488 0.0
H144 H 0.13784 0.8558 0.76604 0.0
H145 H 0.21731 0.95306 0.90128 0.0
S146 S 0.26688 0.72927 0.02639 0.0
N147 N 0.20904 0.70851 0.91574 0.0
N148 N 0.297 0.81474 0.06325 0.0
C149 C 0.26026 0.83027 0.98393 0.0
C150 C 0.21252 0.77249 0.9036 0.0
C151 C 0.51896 0.37536 0.06099 0.0
C152 C 0.48396 0.36237 0.16636 0.0
C153 C 0.51835 0.31876 0.00346 0.0
C154 C 0.48601 0.24914 0.05382 0.0
H155 H 0.54224 0.42776 0.01895 0.0
H156 H 0.53903 0.32811 0.91667 0.0
S157 S 0.40014 0.1921 0.33969 0.0
N158 N 0.42409 0.2783 0.32531 0.0
N159 N 0.42738 0.17288 0.22212 0.0
C160 C 0.45888 0.23838 0.16604 0.0
C161 C 0.45683 0.29498 0.22165 0.0
loop_
_geom_bond_atom_site_label_1
_geom_bond_atom_site_label_2
_geom_bond_distance
_geom_bond_site_symmetry_2
_ccdc_geom_bond_type
Zn0 O6 1.920 1_455 S
Zn0 O12 1.898 . S
Zn0 O15 1.905 . S
Zn1 O9 1.905 . S
Zn1 O10 1.898 . S
Zn1 O18 1.920 1_455 S
Zn2 O5 2.080 1_455 S
Zn2 O8 2.114 . S
Zn2 O11 2.120 . S
Zn2 O13 2.120 1_554 S
Zn2 O14 2.114 . S
Zn2 O17 2.080 1_454 S
C3 O8 1.166 . S
C3 O9 1.182 . S
C4 O10 1.167 . S
C4 O11 1.299 . S
O5 Zn2 2.080 1_655 S
O5 C19 1.305 1_554 S
O6 Zn0 1.920 1_655 S
O6 C19 1.234 . S
C7 O12 1.167 . S
C7 O13 1.299 . S
O8 Zn2 2.114 . S
O8 C3 1.166 . S
O9 Zn1 1.905 . S
O9 C3 1.182 . S
O10 Zn1 1.898 . S
O10 C4 1.167 . S
O11 Zn2 2.120 . S
O11 C4 1.299 . S
O12 Zn0 1.898 . S
O12 C7 1.167 . S
O13 Zn2 2.120 1_556 S
O13 C7 1.299 . S
O14 Zn2 2.114 . S
O14 C16 1.167 . S
O15 Zn0 1.905 . S
O15 C16 1.182 1_556 S
C16 O14 1.167 . S
C16 O15 1.182 1_554 S
O17 Zn2 2.080 1_656 S
O17 C20 1.305 1_556 S
O18 Zn1 1.920 1_655 S
O18 C20 1.234 . S
C19 O5 1.305 1_556 S
C19 O6 1.234 . S
C20 O17 1.305 1_554 S
C20 O18 1.234 . S
Zn21 O27 1.920 . S
Zn21 O33 1.898 1_545 S
Zn21 O36 1.905 1_545 S
Zn22 O30 1.905 1_545 S
Zn22 O31 1.898 1_545 S
Zn22 O39 1.920 . S
Zn23 O26 2.080 . S
Zn23 O29 2.114 1_545 S
Zn23 O32 2.120 . S
Zn23 O34 2.120 1_554 S
Zn23 O35 2.114 1_544 S
Zn23 O38 2.080 1_554 S
C24 O29 1.166 . S
C24 O30 1.182 . S
C25 O31 1.167 1_545 S
C25 O32 1.299 . S
O26 Zn23 2.080 . S
O26 C40 1.305 1_554 S
O27 Zn21 1.920 . S
O27 C40 1.234 . S
C28 O33 1.167 1_545 S
C28 O34 1.299 . S
O29 Zn23 2.114 1_565 S
O29 C24 1.166 . S
O30 Zn22 1.905 1_565 S
O30 C24 1.182 . S
O31 Zn22 1.898 1_565 S
O31 C25 1.167 1_565 S
O32 Zn23 2.120 . S
O32 C25 1.299 . S
O33 Zn21 1.898 1_565 S
O33 C28 1.167 1_565 S
O34 Zn23 2.120 1_556 S
O34 C28 1.299 . S
O35 Zn23 2.114 1_566 S
O35 C37 1.166 . S
O36 Zn21 1.905 1_565 S
O36 C37 1.182 . S
C37 O35 1.166 . S
C37 O36 1.182 . S
O38 Zn23 2.080 1_556 S
O38 C41 1.305 1_556 S
O39 Zn22 1.920 . S
O39 C41 1.234 . S
C40 O26 1.305 1_556 S
C40 O27 1.234 . S
C41 O38 1.305 1_554 S
C41 O39 1.234 . S
Zn42 O48 1.920 . S
Zn42 O54 1.898 . S
Zn42 O57 1.905 . S
Zn43 O51 1.905 . S
Zn43 O52 1.898 . S
Zn43 O60 1.920 . S
Zn44 O47 2.080 . S
Zn44 O50 2.114 . S
Zn44 O53 2.120 . S
Zn44 O55 2.120 1_554 S
Zn44 O56 2.114 1_554 S
Zn44 O59 2.080 1_554 S
C45 O50 1.166 . S
C45 O51 1.182 . S
C46 O52 1.167 . S
C46 O53 1.299 . S
O47 Zn44 2.080 . S
O47 C61 1.305 1_554 S
O48 Zn42 1.920 . S
O48 C61 1.234 . S
C49 O54 1.167 . S
C49 O55 1.299 . S
O50 Zn44 2.114 . S
O50 C45 1.166 . S
O51 Zn43 1.905 . S
O51 C45 1.182 . S
O52 Zn43 1.898 . S
O52 C46 1.167 . S
O53 Zn44 2.120 . S
O53 C46 1.299 . S
O54 Zn42 1.898 . S
O54 C49 1.167 . S
O55 Zn44 2.120 1_556 S
O55 C49 1.299 . S
O56 Zn44 2.114 1_556 S
O56 C58 1.166 . S
O57 Zn42 1.905 . S
O57 C58 1.182 . S
C58 O56 1.166 . S
C58 O57 1.182 . S
O59 Zn44 2.080 1_556 S
O59 C62 1.305 1_556 S
O60 Zn43 1.920 . S
O60 C62 1.234 . S
C61 O47 1.305 1_556 S
C61 O48 1.234 . S
C62 O59 1.305 1_554 S
C62 O60 1.234 . S
C63 C64 1.369 . S
C63 C65 1.419 . S
C63 H67 0.930 1_455 S
C64 C63 1.369 . S
C64 C73 1.429 . S
C65 C63 1.419 . S
C65 C66 1.363 . S
C65 H68 0.929 1_455 S
C66 C65 1.363 . S
C66 C72 1.428 . S
H67 C63 0.930 1_655 S
H68 C65 0.929 1_655 S
S69 N70 1.613 . S
S69 N71 1.610 . S
N70 S69 1.613 . S
N70 C73 1.350 . S
N71 S69 1.610 . S
N71 C72 1.351 . S
C72 C66 1.428 . S
C72 N71 1.351 . S
C72 C73 1.434 . S
C73 C64 1.429 . S
C73 N70 1.350 . S
C73 C72 1.434 . S
C74 C75 1.369 . S
C74 C76 1.419 . S
C74 H78 0.930 . S
C75 C74 1.369 . S
C75 C84 1.429 1_565 S
C76 C74 1.419 . S
C76 C77 1.363 . S
C76 H79 0.929 . S
C77 C76 1.363 . S
C77 C83 1.428 1_565 S
H78 C74 0.930 . S
H79 C76 0.929 . S
S80 N81 1.613 . S
S80 N82 1.610 . S
N81 S80 1.613 . S
N81 C84 1.350 . S
N82 S80 1.610 . S
N82 C83 1.351 . S
C83 C77 1.428 1_545 S
C83 N82 1.351 . S
C83 C84 1.434 . S
C84 C75 1.429 1_545 S
C84 N81 1.350 . S
C84 C83 1.434 . S
C85 C86 1.369 . S
C85 C87 1.419 . S
C85 H89 0.930 . S
C86 C85 1.369 . S
C86 C95 1.429 . S
C87 C85 1.419 . S
C87 C88 1.363 . S
C87 H90 0.929 . S
C88 C87 1.363 . S
C88 C94 1.428 . S
H89 C85 0.930 . S
H90 C87 0.929 . S
S91 N92 1.613 . S
S91 N93 1.610 . S
N92 S91 1.613 . S
N92 C95 1.350 . S
N93 S91 1.610 . S
N93 C94 1.351 . S
C94 C88 1.428 . S
C94 N93 1.351 . S
C94 C95 1.434 . S
C95 C86 1.429 . S
C95 N92 1.350 . S
C95 C94 1.434 . S
C96 C97 1.369 . S
C96 C98 1.419 . S
C96 H100 0.930 . S
C97 C96 1.369 . S
C97 C106 1.429 1_554 S
C98 C96 1.419 . S
C98 C99 1.363 1_554 S
C98 H101 0.929 . S
C99 C98 1.363 1_556 S
C99 C105 1.428 . S
H100 C96 0.930 . S
H101 C98 0.929 . S
S102 N103 1.613 . S
S102 N104 1.610 . S
N103 S102 1.613 . S
N103 C106 1.350 . S
N104 S102 1.610 . S
N104 C105 1.351 . S
C105 C99 1.428 . S
C105 N104 1.351 . S
C105 C106 1.434 . S
C106 C97 1.429 1_556 S
C106 N103 1.350 . S
C106 C105 1.434 . S
C107 C108 1.369 1_556 S
C107 C109 1.419 . S
C107 H111 0.930 . S
C108 C107 1.369 1_554 S
C108 C117 1.429 . S
C109 C107 1.419 . S
C109 C110 1.363 . S
C109 H112 0.929 . S
C110 C109 1.363 . S
C110 C116 1.428 1_556 S
H111 C107 0.930 . S
H112 C109 0.929 . S
S113 N114 1.613 . S
S113 N115 1.610 . S
N114 S113 1.613 . S
N114 C117 1.350 . S
N115 S113 1.610 . S
N115 C116 1.351 . S
C116 C110 1.428 1_554 S
C116 N115 1.351 . S
C116 C117 1.434 . S
C117 C108 1.429 . S
C117 N114 1.350 . S
C117 C116 1.434 . S
C118 C119 1.369 1_554 S
C118 C120 1.419 . S
C118 H122 0.930 . S
C119 C118 1.369 1_556 S
C119 C128 1.429 . S
C120 C118 1.419 . S
C120 C121 1.363 . S
C120 H123 0.929 . S
C121 C120 1.363 . S
C121 C127 1.428 1_554 S
H122 C118 0.930 . S
H123 C120 0.929 . S
S124 N125 1.613 . S
S124 N126 1.610 . S
N125 S124 1.613 . S
N125 C128 1.350 . S
N126 S124 1.610 . S
N126 C127 1.351 . S
C127 C121 1.428 1_556 S
C127 N126 1.351 . S
C127 C128 1.434 . S
C128 C119 1.429 . S
C128 N125 1.350 . S
C128 C127 1.434 . S
C129 C130 1.369 . S
C129 C131 1.419 . S
C129 H133 0.930 . S
C130 C129 1.369 . S
C130 C139 1.429 1_554 S
C131 C129 1.419 . S
C131 C132 1.363 1_554 S
C131 H134 0.929 . S
C132 C131 1.363 1_556 S
C132 C138 1.428 . S
H133 C129 0.930 . S
H134 C131 0.929 . S
S135 N136 1.613 . S
S135 N137 1.610 . S
N136 S135 1.613 . S
N136 C139 1.350 . S
N137 S135 1.610 . S
N137 C138 1.351 . S
C138 C132 1.428 . S
C138 N137 1.351 . S
C138 C139 1.434 . S
C139 C130 1.429 1_556 S
C139 N136 1.350 . S
C139 C138 1.434 . S
C140 C141 1.369 1_554 S
C140 C142 1.419 . S
C140 H144 0.930 . S
C141 C140 1.369 1_556 S
C141 C150 1.429 . S
C142 C140 1.419 . S
C142 C143 1.363 . S
C142 H145 0.929 . S
C143 C142 1.363 . S
C143 C149 1.428 1_554 S
H144 C140 0.930 . S
H145 C142 0.929 . S
S146 N147 1.613 . S
S146 N148 1.610 . S
N147 S146 1.613 . S
N147 C150 1.350 . S
N148 S146 1.610 . S
N148 C149 1.351 . S
C149 C143 1.428 1_556 S
C149 N148 1.351 . S
C149 C150 1.434 . S
C150 C141 1.429 . S
C150 N147 1.350 . S
C150 C149 1.434 . S
C151 C152 1.369 . S
C151 C153 1.419 . S
C151 H155 0.930 . S
C152 C151 1.369 . S
C152 C161 1.429 1_554 S
C153 C151 1.419 . S
C153 C154 1.363 1_554 S
C153 H156 0.929 . S
C154 C153 1.363 1_556 S
C154 C160 1.428 . S
H155 C151 0.930 . S
H156 C153 0.929 . S
S157 N158 1.613 . S
S157 N159 1.610 . S
N158 S157 1.613 . S
N158 C161 1.350 . S
N159 S157 1.610 . S
N159 C160 1.351 . S
C160 C154 1.428 . S
C160 N159 1.351 . S
C160 C161 1.434 . S
C161 C152 1.429 1_556 S
C161 N158 1.350 . S
C161 C160 1.434 . S
C64 C7 1.341 . S
C66 C4 1.328 . S
C75 C25 1.336 1_565 S
C77 C28 1.324 1_565 S
C86 C49 1.329 . S
C88 C46 1.327 . S
C97 C16 1.202 . S
C99 C61 1.330 . S
C108 C41 1.534 . S
C110 C19 1.537 . S
C119 C24 1.212 1_556 S
C121 C62 1.337 . S
C130 C20 1.069 . S
C132 C45 0.994 1_556 S
C141 C3 0.840 1_556 S
C143 C37 0.840 1_554 S
C152 C58 0.975 1_554 S
C154 C40 1.066 . S
