# Generated by pormake.
# Topology qtz, (4)-cn, num edge types: 1
# Building blocks:
#     Node 0, Type 0, BuildingBlock: AZAVOO_clean_sbu_0, # of connection points: 4
#     Node 1, Type 0, BuildingBlock: AZAVOO_clean_sbu_0, # of connection points: 4
#     Node 2, Type 0, BuildingBlock: AZAVOO_clean_sbu_0, # of connection points: 4
#     Edge 3, Type (0, 0), BuildingBlock: FUNLAD_clean_linker_0, # of connection points: 2
#     Edge 4, Type (0, 0), BuildingBlock: FUNLAD_clean_linker_0, # of connection points: 2
#     Edge 5, Type (0, 0), BuildingBlock: FUNLAD_clean_linker_0, # of connection points: 2
#     Edge 6, Type (0, 0), BuildingBlock: FUNLAD_clean_linker_0, # of connection points: 2
#     Edge 7, Type (0, 0), BuildingBlock: FUNLAD_clean_linker_0, # of connection points: 2
#     Edge 8, Type (0, 0), BuildingBlock: FUNLAD_clean_linker_0, # of connection points: 2
# Relax obj value: 0.161
# Max RMSD: 0.224
# Mean RMSD: 0.200
data_MOF--net-qtz--node1-AZAVOO_clean_sbu_0--edge1-FUNLAD_clean_linker_0
_symmetry_space_group_name_H-M    P1
_symmetry_Int_Tables_number       1
_symmetry_cell_setting            triclinic
loop_
_symmetry_equiv_pos_as_xyz
'x, y, z'
_cell_length_a     26.730938
_cell_length_b     27.572471
_cell_length_c     32.899757
_cell_angle_alpha  91.531373
_cell_angle_beta   95.013889
_cell_angle_gamma 123.61424
loop_
_atom_site_label
_atom_site_type_symbol
_atom_site_fract_x
_atom_site_fract_y
_atom_site_fract_z
_atom_type_partial_charge
Mg0 Mg 0.97768 0.51073 0.13871 0.0
O1 O 0.04982 0.59624 0.17742 0.0
O2 O 0.00381 0.61936 0.21977 0.0
Mg3 Mg 0.90239 0.54816 0.20854 0.0
C4 C 0.05163 0.62992 0.20575 0.0
C5 C 0.09819 0.53889 0.11007 0.0
O6 O 0.11409 0.5489 0.14987 0.0
O7 O 0.94551 0.55779 0.09997 0.0
O8 O 0.89608 0.57479 0.14353 0.0
O9 O 0.98662 0.45918 0.18602 0.0
O10 O 0.9222 0.48576 0.18488 0.0
C11 C 0.91312 0.57679 0.10814 0.0
C12 C 0.94546 0.46058 0.203 0.0
O13 O 0.04543 0.52418 0.09578 0.0
Mg14 Mg 0.6022 0.05237 0.5011 0.0
O15 O 0.53024 0.01594 0.4449 0.0
O16 O 0.53143 0.08973 0.41749 0.0
Mg17 Mg 0.60407 0.17381 0.45668 0.0
C18 C 0.51008 0.03534 0.41782 0.0
C19 C 0.59215 0.93686 0.51391 0.0
O20 O 0.6438 0.96724 0.49861 0.0
O21 O 0.54118 0.06465 0.53861 0.0
O22 O 0.5462 0.13961 0.50957 0.0
O23 O 0.67281 0.06911 0.46105 0.0
O24 O 0.65161 0.13326 0.4781 0.0
C25 C 0.52685 0.10176 0.53586 0.0
C26 C 0.68228 0.12017 0.45798 0.0
O27 O 0.56259 0.95972 0.51887 0.0
Mg28 Mg 0.40977 0.46127 0.79122 0.0
O29 O 0.50016 0.49964 0.83236 0.0
O30 O 0.52646 0.58533 0.86292 0.0
Mg31 Mg 0.45398 0.60169 0.84206 0.0
C32 C 0.53664 0.54589 0.85633 0.0
C33 C 0.4318 0.36122 0.77891 0.0
O34 O 0.43937 0.36721 0.81916 0.0
O35 O 0.4587 0.52646 0.74462 0.0
O36 O 0.48286 0.61015 0.77761 0.0
O37 O 0.35782 0.4174 0.84299 0.0
O38 O 0.38772 0.50682 0.82875 0.0
C39 C 0.48272 0.5815 0.7464 0.0
C40 C 0.36162 0.46535 0.85239 0.0
O41 O 0.42057 0.39398 0.75937 0.0
C42 C 0.34378 0.52553 0.89957 0.0
C43 C 0.33557 0.47183 0.8883 0.0
C44 C 0.31459 0.53041 0.931 0.0
C45 C 0.27609 0.48145 0.95162 0.0
C46 C 0.26862 0.42803 0.94088 0.0
C47 C 0.29856 0.42335 0.90979 0.0
C48 C 0.23891 0.48362 -0.01851 0.0
C49 C 0.25655 0.5324 0.00503 0.0
C50 C 0.21587 0.53468 0.03154 0.0
C51 C 0.23961 0.56683 0.07 0.0
C52 C 0.20145 0.56864 0.09557 0.0
C53 C 0.13921 0.53964 0.08252 0.0
H54 H 0.13459 0.48277 -0.01182 0.0
C55 C 0.11594 0.50927 0.04337 0.0
C56 C 0.15382 0.50651 0.01822 0.0
H57 H 0.06819 0.48658 0.03245 0.0
H58 H 0.37126 0.56355 0.88339 0.0
H59 H 0.32011 0.57188 0.9377 0.0
H60 H 0.23874 0.38956 0.95611 0.0
H61 H 0.29099 0.38126 0.90168 0.0
H62 H 0.19544 0.44349 -0.0158 0.0
H63 H 0.30223 0.57108 0.00578 0.0
H64 H 0.28747 0.58951 0.0806 0.0
H65 H 0.22063 0.59272 0.12551 0.0
C66 C 0.94771 0.4026 0.25951 0.0
C67 C 0.92417 0.43241 0.24098 0.0
C68 C 0.92283 0.37059 0.29284 0.0
C69 C 0.87375 0.3677 0.30808 0.0
C70 C 0.85242 0.3999 0.29081 0.0
C71 C 0.87707 0.43164 0.25748 0.0
C72 C 0.8426 0.33096 0.34127 0.0
C73 C 0.84128 0.28262 0.34936 0.0
C74 C 0.80337 0.24227 0.37912 0.0
C75 C 0.78485 0.18355 0.37475 0.0
C76 C 0.746 0.14357 0.40065 0.0
C77 C 0.7249 0.16177 0.43126 0.0
H78 H 0.79965 0.30604 0.41691 0.0
C79 C 0.74507 0.22083 0.43656 0.0
C80 C 0.78437 0.26079 0.41113 0.0
H81 H 0.73075 0.23641 0.4606 0.0
H82 H 0.98442 0.40286 0.2477 0.0
H83 H 0.94194 0.34803 0.30629 0.0
H84 H 0.81509 0.39894 0.30225 0.0
H85 H 0.85785 0.45408 0.24396 0.0
H86 H 0.81499 0.34132 0.35674 0.0
H87 H 0.86431 0.26918 0.3312 0.0
H88 H 0.79939 0.16824 0.35067 0.0
H89 H 0.73156 0.09834 0.39618 0.0
C90 C 0.60952 0.85863 0.52936 0.0
C91 C 0.57139 0.87889 0.52812 0.0
C92 C 0.59279 0.80676 0.54668 0.0
C93 C 0.53746 0.77407 0.56297 0.0
C94 C 0.49768 0.79228 0.5593 0.0
C95 C 0.51464 0.84446 0.54233 0.0
C96 C 0.52198 0.72356 0.58667 0.0
C97 C 0.56423 0.72311 0.61179 0.0
C98 C 0.5477 0.68272 0.64435 0.0
C99 C 0.57972 0.70528 0.68364 0.0
C100 C 0.55982 0.67133 0.71666 0.0
C101 C 0.50868 0.61359 0.71068 0.0
H102 H 0.4735 0.6053 0.60765 0.0
C103 C 0.4793 0.58938 0.67085 0.0
C104 C 0.49829 0.62396 0.63788 0.0
H105 H 0.43971 0.5449 0.66557 0.0
H106 H 0.65322 0.88373 0.51816 0.0
H107 H 0.62372 0.79297 0.54804 0.0
H108 H 0.45458 0.76753 0.57135 0.0
H109 H 0.48393 0.85852 0.54132 0.0
H110 H 0.47434 0.69095 0.58849 0.0
H111 H 0.61143 0.75925 0.61337 0.0
H112 H 0.61813 0.75035 0.68925 0.0
H113 H 0.58343 0.69075 0.74709 0.0
C114 C 0.6383 0.60895 0.89785 0.0
C115 C 0.59239 0.55424 0.87765 0.0
C116 C 0.68966 0.61659 0.91978 0.0
C117 C 0.69593 0.56933 0.92261 0.0
C118 C 0.65129 0.51533 0.90098 0.0
C119 C 0.60005 0.50778 0.87873 0.0
C120 C 0.74694 0.57393 0.94882 0.0
C121 C 0.77829 0.61383 -0.01861 0.0
C122 C 0.8207 0.61132 0.01216 0.0
C123 C 0.85244 0.58631 0.00245 0.0
C124 C 0.88596 0.57843 0.03345 0.0
C125 C 0.88813 0.59517 0.07467 0.0
H126 H 0.80376 0.65247 0.06113 0.0
C127 C 0.85989 0.62387 0.08386 0.0
C128 C 0.82695 0.63221 0.05288 0.0
H129 H 0.86129 0.63798 0.11523 0.0
H130 H 0.63453 0.64607 0.89691 0.0
H131 H 0.72401 0.65959 0.93448 0.0
H132 H 0.65519 0.4783 0.90222 0.0
H133 H 0.56581 0.46518 0.86323 0.0
H134 H 0.75432 0.5394 0.94365 0.0
H135 H 0.76727 0.64516 -0.01111 0.0
H136 H 0.85044 0.57162 0.97115 0.0
H137 H 0.90763 0.55663 0.02529 0.0
C138 C 0.438 0.93384 0.38341 0.0
C139 C 0.45828 0.99314 0.38711 0.0
C140 C 0.38676 0.89338 0.35635 0.0
C141 C 0.35455 0.91133 0.33239 0.0
C142 C 0.37514 0.97058 0.3358 0.0
C143 C 0.42668 0.01115 0.36257 0.0
C144 C 0.29704 0.86886 0.306 0.0
C145 C 0.28399 0.81756 0.28893 0.0
C146 C 0.22445 0.77297 0.26545 0.0
C147 C 0.22111 0.73298 0.2362 0.0
C148 C 0.16525 0.68776 0.21574 0.0
C149 C 0.11126 0.6809 0.22464 0.0
H150 H 0.17108 0.79594 0.29685 0.0
C151 C 0.11471 0.72148 0.25355 0.0
C152 C 0.1706 0.76698 0.27373 0.0
H153 H 0.07408 0.71747 0.26128 0.0
H154 H 0.46108 0.91838 0.40194 0.0
H155 H 0.3714 0.84784 0.35543 0.0
H156 H 0.35089 0.98549 0.31798 0.0
H157 H 0.44076 0.05639 0.36475 0.0
H158 H 0.26492 0.88099 0.29993 0.0
H159 H 0.3184 0.80798 0.29157 0.0
H160 H 0.26182 0.73633 0.22945 0.0
H161 H 0.16441 0.65732 0.19376 0.0
C162 C 0.41736 0.30378 0.71384 0.0
C163 C 0.43512 0.31618 0.7563 0.0
C164 C 0.42104 0.26199 0.69206 0.0
C165 C 0.44256 0.23143 0.71224 0.0
C166 C 0.46054 0.24392 0.75465 0.0
C167 C 0.45633 0.2855 0.77659 0.0
C168 C 0.45221 0.19094 0.68898 0.0
C169 C 0.41887 0.16112 0.65312 0.0
C170 C 0.43845 0.13498 0.62372 0.0
C171 C 0.42528 0.13669 0.58179 0.0
C172 C 0.45148 0.12252 0.55297 0.0
C173 C 0.49016 0.10485 0.56543 0.0
H174 H 0.48338 0.10992 0.66814 0.0
C175 C 0.49913 0.09794 0.60702 0.0
C176 C 0.47378 0.11333 0.63609 0.0
H177 H 0.52871 0.08425 0.61733 0.0
H178 H 0.40104 0.32675 0.69722 0.0
H179 H 0.40896 0.25539 0.65918 0.0
H180 H 0.47823 0.22173 0.7708 0.0
H181 H 0.47062 0.29427 0.80928 0.0
H182 H 0.49064 0.1894 0.70036 0.0
H183 H 0.38017 0.16257 0.64234 0.0
H184 H 0.39771 0.15262 0.57142 0.0
H185 H 0.44341 0.12766 0.52101 0.0
loop_
_geom_bond_atom_site_label_1
_geom_bond_atom_site_label_2
_geom_bond_distance
_geom_bond_site_symmetry_2
_ccdc_geom_bond_type
Mg0 O1 2.028 1_655 S
Mg0 O7 1.986 . S
Mg0 O9 2.114 . S
Mg0 O10 2.251 . S
Mg0 O13 2.010 1_655 S
O1 Mg0 2.028 1_455 S
O1 C4 1.250 . S
O2 Mg3 2.028 1_455 S
O2 C4 1.248 . S
Mg3 O2 2.028 1_655 S
Mg3 O8 2.032 . S
Mg3 O10 2.079 . S
C4 O1 1.250 . S
C4 O2 1.248 . S
C5 O6 1.264 . S
C5 O13 1.249 . S
O6 C5 1.264 . S
O7 Mg0 1.986 . S
O7 C11 1.246 . S
O8 Mg3 2.032 . S
O8 C11 1.259 . S
O9 Mg0 2.114 . S
O9 C12 1.252 . S
O10 Mg0 2.251 . S
O10 Mg3 2.079 . S
O10 C12 1.273 . S
C11 O7 1.246 . S
C11 O8 1.259 . S
C12 O9 1.252 . S
C12 O10 1.273 . S
O13 Mg0 2.010 1_455 S
O13 C5 1.249 . S
Mg14 O15 2.028 1_545 S
Mg14 O21 1.986 . S
Mg14 O23 2.114 . S
Mg14 O24 2.251 . S
Mg14 O27 2.010 1_545 S
O15 Mg14 2.028 1_565 S
O15 C18 1.250 . S
O16 Mg17 2.028 . S
O16 C18 1.248 1_545 S
Mg17 O16 2.028 . S
Mg17 O22 2.032 . S
Mg17 O24 2.079 . S
C18 O15 1.250 . S
C18 O16 1.248 1_565 S
C19 O20 1.264 . S
C19 O27 1.249 . S
O20 C19 1.264 . S
O21 Mg14 1.986 . S
O21 C25 1.246 . S
O22 Mg17 2.032 . S
O22 C25 1.259 . S
O23 Mg14 2.114 . S
O23 C26 1.252 . S
O24 Mg14 2.251 . S
O24 Mg17 2.079 . S
O24 C26 1.273 . S
C25 O21 1.246 . S
C25 O22 1.259 . S
C26 O23 1.252 . S
C26 O24 1.273 . S
O27 Mg14 2.010 1_565 S
O27 C19 1.249 . S
Mg28 O29 2.028 . S
Mg28 O35 1.986 . S
Mg28 O37 2.114 . S
Mg28 O38 2.251 . S
Mg28 O41 2.010 . S
O29 Mg28 2.028 . S
O29 C32 1.250 . S
O30 Mg31 2.028 . S
O30 C32 1.248 . S
Mg31 O30 2.028 . S
Mg31 O36 2.032 . S
Mg31 O38 2.079 . S
C32 O29 1.250 . S
C32 O30 1.248 . S
C33 O34 1.264 . S
C33 O41 1.249 . S
O34 C33 1.264 . S
O35 Mg28 1.986 . S
O35 C39 1.246 . S
O36 Mg31 2.032 . S
O36 C39 1.259 . S
O37 Mg28 2.114 . S
O37 C40 1.252 . S
O38 Mg28 2.251 . S
O38 Mg31 2.079 . S
O38 C40 1.273 . S
C39 O35 1.246 . S
C39 O36 1.259 . S
C40 O37 1.252 . S
C40 O38 1.273 . S
O41 Mg28 2.010 . S
O41 C33 1.249 . S
C42 C43 1.386 . S
C42 C44 1.383 . S
C42 H58 0.951 . S
C43 C42 1.386 . S
C43 C47 1.383 . S
C44 C42 1.383 . S
C44 C45 1.402 . S
C44 H59 0.951 . S
C45 C44 1.402 . S
C45 C46 1.375 . S
C45 C48 1.481 . S
C46 C45 1.375 . S
C46 C47 1.367 . S
C46 H60 0.951 . S
C47 C43 1.383 . S
C47 C46 1.367 . S
C47 H61 0.950 . S
C48 C45 1.481 . S
C48 C49 1.297 1_556 S
C48 H62 0.950 . S
C49 C48 1.297 1_554 S
C49 C50 1.479 . S
C49 H63 0.950 . S
C50 C49 1.479 . S
C50 C51 1.375 . S
C50 C56 1.404 . S
C51 C50 1.375 . S
C51 C52 1.369 . S
C51 H64 0.950 . S
C52 C51 1.369 . S
C52 C53 1.392 . S
C52 H65 0.951 . S
C53 C52 1.392 . S
C53 C55 1.384 . S
H54 C56 0.949 1_556 S
C55 C53 1.384 . S
C55 C56 1.385 . S
C55 H57 0.950 . S
C56 C50 1.404 . S
C56 H54 0.949 1_554 S
C56 C55 1.385 . S
H57 C55 0.950 . S
H58 C42 0.951 . S
H59 C44 0.951 . S
H60 C46 0.951 . S
H61 C47 0.950 . S
H62 C48 0.950 . S
H63 C49 0.950 . S
H64 C51 0.950 . S
H65 C52 0.951 . S
C66 C67 1.386 . S
C66 C68 1.383 . S
C66 H82 0.951 . S
C67 C66 1.386 . S
C67 C71 1.383 . S
C68 C66 1.383 . S
C68 C69 1.402 . S
C68 H83 0.951 . S
C69 C68 1.402 . S
C69 C70 1.375 . S
C69 C72 1.481 . S
C70 C69 1.375 . S
C70 C71 1.367 . S
C70 H84 0.951 . S
C71 C67 1.383 . S
C71 C70 1.367 . S
C71 H85 0.950 . S
C72 C69 1.481 . S
C72 C73 1.297 . S
C72 H86 0.950 . S
C73 C72 1.297 . S
C73 C74 1.479 . S
C73 H87 0.950 . S
C74 C73 1.479 . S
C74 C75 1.375 . S
C74 C80 1.404 . S
C75 C74 1.375 . S
C75 C76 1.369 . S
C75 H88 0.950 . S
C76 C75 1.369 . S
C76 C77 1.392 . S
C76 H89 0.951 . S
C77 C76 1.392 . S
C77 C79 1.384 . S
H78 C80 0.949 . S
C79 C77 1.384 . S
C79 C80 1.385 . S
C79 H81 0.950 . S
C80 C74 1.404 . S
C80 H78 0.949 . S
C80 C79 1.385 . S
H81 C79 0.950 . S
H82 C66 0.951 . S
H83 C68 0.951 . S
H84 C70 0.951 . S
H85 C71 0.950 . S
H86 C72 0.950 . S
H87 C73 0.950 . S
H88 C75 0.950 . S
H89 C76 0.951 . S
C90 C91 1.386 . S
C90 C92 1.383 . S
C90 H106 0.951 . S
C91 C90 1.386 . S
C91 C95 1.383 . S
C92 C90 1.383 . S
C92 C93 1.402 . S
C92 H107 0.951 . S
C93 C92 1.402 . S
C93 C94 1.375 . S
C93 C96 1.481 . S
C94 C93 1.375 . S
C94 C95 1.367 . S
C94 H108 0.951 . S
C95 C91 1.383 . S
C95 C94 1.367 . S
C95 H109 0.950 . S
C96 C93 1.481 . S
C96 C97 1.297 . S
C96 H110 0.950 . S
C97 C96 1.297 . S
C97 C98 1.479 . S
C97 H111 0.950 . S
C98 C97 1.479 . S
C98 C99 1.375 . S
C98 C104 1.404 . S
C99 C98 1.375 . S
C99 C100 1.369 . S
C99 H112 0.950 . S
C100 C99 1.369 . S
C100 C101 1.392 . S
C100 H113 0.951 . S
C101 C100 1.392 . S
C101 C103 1.384 . S
H102 C104 0.949 . S
C103 C101 1.384 . S
C103 C104 1.385 . S
C103 H105 0.950 . S
C104 C98 1.404 . S
C104 H102 0.949 . S
C104 C103 1.385 . S
H105 C103 0.950 . S
H106 C90 0.951 . S
H107 C92 0.951 . S
H108 C94 0.951 . S
H109 C95 0.950 . S
H110 C96 0.950 . S
H111 C97 0.950 . S
H112 C99 0.950 . S
H113 C100 0.951 . S
C114 C115 1.386 . S
C114 C116 1.383 . S
C114 H130 0.951 . S
C115 C114 1.386 . S
C115 C119 1.383 . S
C116 C114 1.383 . S
C116 C117 1.402 . S
C116 H131 0.951 . S
C117 C116 1.402 . S
C117 C118 1.375 . S
C117 C120 1.481 1_556 S
C118 C117 1.375 . S
C118 C119 1.367 . S
C118 H132 0.951 . S
C119 C115 1.383 . S
C119 C118 1.367 . S
C119 H133 0.950 . S
C120 C117 1.481 1_554 S
C120 C121 1.297 . S
C120 H134 0.950 . S
C121 C120 1.297 . S
C121 C122 1.479 . S
C121 H135 0.958 . S
C122 C121 1.479 . S
C122 C123 1.375 . S
C122 C128 1.404 . S
C123 C122 1.375 . S
C123 C124 1.369 . S
C123 H136 0.950 . S
C124 C123 1.369 . S
C124 C125 1.392 . S
C124 H137 0.951 . S
C125 C124 1.392 . S
C125 C127 1.384 . S
H126 C128 0.949 . S
C127 C125 1.384 . S
C127 C128 1.385 . S
C127 H129 0.950 . S
C128 C122 1.404 . S
C128 H126 0.949 . S
C128 C127 1.385 . S
H129 C127 0.950 . S
H130 C114 0.951 . S
H131 C116 0.951 . S
H132 C118 0.951 . S
H133 C119 0.950 . S
H134 C120 0.950 . S
H135 C121 0.958 . S
H136 C123 0.950 . S
H137 C124 0.951 . S
C138 C139 1.386 . S
C138 C140 1.383 . S
C138 H154 0.951 . S
C139 C138 1.386 . S
C139 C143 1.383 . S
C140 C138 1.383 . S
C140 C141 1.402 . S
C140 H155 0.951 . S
C141 C140 1.402 . S
C141 C142 1.375 . S
C141 C144 1.481 . S
C142 C141 1.375 . S
C142 C143 1.367 . S
C142 H156 0.951 . S
C143 C139 1.383 . S
C143 C142 1.367 . S
C143 H157 0.950 . S
C144 C141 1.481 . S
C144 C145 1.297 . S
C144 H158 0.950 . S
C145 C144 1.297 . S
C145 C146 1.479 . S
C145 H159 0.950 . S
C146 C145 1.479 . S
C146 C147 1.375 . S
C146 C152 1.404 . S
C147 C146 1.375 . S
C147 C148 1.369 . S
C147 H160 0.950 . S
C148 C147 1.369 . S
C148 C149 1.392 . S
C148 H161 0.951 . S
C149 C148 1.392 . S
C149 C151 1.384 . S
H150 C152 0.949 . S
C151 C149 1.384 . S
C151 C152 1.385 . S
C151 H153 0.950 . S
C152 C146 1.404 . S
C152 H150 0.949 . S
C152 C151 1.385 . S
H153 C151 0.950 . S
H154 C138 0.951 . S
H155 C140 0.951 . S
H156 C142 0.951 . S
H157 C143 0.950 . S
H158 C144 0.950 . S
H159 C145 0.950 . S
H160 C147 0.950 . S
H161 C148 0.951 . S
C162 C163 1.386 . S
C162 C164 1.383 . S
C162 H178 0.951 . S
C163 C162 1.386 . S
C163 C167 1.383 . S
C164 C162 1.383 . S
C164 C165 1.402 . S
C164 H179 0.951 . S
C165 C164 1.402 . S
C165 C166 1.375 . S
C165 C168 1.481 . S
C166 C165 1.375 . S
C166 C167 1.367 . S
C166 H180 0.951 . S
C167 C163 1.383 . S
C167 C166 1.367 . S
C167 H181 0.950 . S
C168 C165 1.481 . S
C168 C169 1.297 . S
C168 H182 0.950 . S
C169 C168 1.297 . S
C169 C170 1.479 . S
C169 H183 0.950 . S
C170 C169 1.479 . S
C170 C171 1.375 . S
C170 C176 1.404 . S
C171 C170 1.375 . S
C171 C172 1.369 . S
C171 H184 0.950 . S
C172 C171 1.369 . S
C172 C173 1.392 . S
C172 H185 0.951 . S
C173 C172 1.392 . S
C173 C175 1.384 . S
H174 C176 0.949 . S
C175 C173 1.384 . S
C175 C176 1.385 . S
C175 H177 0.950 . S
C176 C170 1.404 . S
C176 H174 0.949 . S
C176 C175 1.385 . S
H177 C175 0.950 . S
H178 C162 0.951 . S
H179 C164 0.951 . S
H180 C166 0.951 . S
H181 C167 0.950 . S
H182 C168 0.950 . S
H183 C169 0.950 . S
H184 C171 0.950 . S
H185 C172 0.951 . S
C43 C40 1.277 . S
C53 C5 1.136 . S
C67 C12 1.312 . S
C77 C26 1.319 . S
C91 C19 1.049 . S
C101 C39 1.133 . S
C115 C32 1.163 . S
C125 C11 1.165 . S
C139 C18 1.261 . S
C149 C4 1.215 . S
C163 C33 1.106 . S
C173 C25 1.142 . S
