# Generated by pormake.
# Topology pcu, (6)-cn, num edge types: 1
# Building blocks:
#     Node 0, Type 0, BuildingBlock: BETDAH_clean_sbu_0, # of connection points: 6
#     Edge 1, Type (0, 0), BuildingBlock: AJUNOK_clean_linker_0, # of connection points: 2
#     Edge 2, Type (0, 0), BuildingBlock: AJUNOK_clean_linker_0, # of connection points: 2
#     Edge 3, Type (0, 0), BuildingBlock: AJUNOK_clean_linker_0, # of connection points: 2
# Relax obj value: 0.000
# Max RMSD: 0.000
# Mean RMSD: 0.000
data_MOF--net-pcu--node1-BETDAH_clean_sbu_0--edge1-AJUNOK_clean_linker_0
_symmetry_space_group_name_H-M    P1
_symmetry_Int_Tables_number       1
_symmetry_cell_setting            triclinic
loop_
_symmetry_equiv_pos_as_xyz
'x, y, z'
_cell_length_a     21.026573
_cell_length_b     11.487733
_cell_length_c     10.355666
_cell_angle_alpha  88.519213
_cell_angle_beta   96.285777
_cell_angle_gamma 123.3289
loop_
_atom_site_label
_atom_site_type_symbol
_atom_site_fract_x
_atom_site_fract_y
_atom_site_fract_z
_atom_type_partial_charge
Ho0 Ho 0.95269 0.86681 1.01572 0.0
Ho1 Ho 0.12496 0.04485 1.00271 0.0
C2 C 0.04236 0.20539 1.01071 0.0
C3 C 0.8153 0.76676 0.07253 0.0
C4 C 0.76106 0.81109 0.05597 0.0
C5 C 0.71521 0.78814 0.15465 0.0
C6 C 0.66345 0.82937 0.14114 0.0
C7 C 0.65653 0.89458 0.02854 0.0
C8 C 0.70276 0.91776 0.92981 0.0
C9 C 0.75486 0.87721 0.9437 0.0
C10 C 0.99608 0.90888 0.77301 0.0
C11 C 1.03474 0.70546 1.01682 0.0
C12 C 0.26162 0.14796 0.94008 0.0
C13 C 0.31835 0.10943 0.95306 0.0
C14 C 0.36374 0.13713 0.85238 0.0
C15 C 0.41866 0.10335 0.86313 0.0
C16 C 0.42966 0.04206 0.97543 0.0
C17 C 0.38316 0.01237 0.07538 0.0
C18 C 0.32793 0.04549 0.06426 0.0
C19 C 0.08267 0.00849 0.2454 0.0
O20 O 0.98325 0.08603 0.04442 0.0
O21 O 0.10209 0.21294 0.9707 0.0
O22 O 0.83009 0.73053 0.96671 0.0
O23 O 0.87667 0.84308 0.15448 0.0
O24 O 0.93717 0.79386 0.80726 0.0
O25 O 1.02578 -0.00242 0.86645 0.0
O26 O 0.09465 0.82331 0.98129 0.0
O27 O 0.97564 0.70111 0.0551 0.0
O28 O 0.24767 0.18324 0.04741 0.0
O29 O 0.19941 0.06833 0.86081 0.0
O30 O 0.1424 0.12101 0.20951 0.0
O31 O 0.05216 0.91708 0.15389 0.0
H32 H 0.71948 0.73826 0.24241 0.0
H33 H 0.62909 0.81101 0.2193 0.0
H34 H 0.69789 0.9654 0.8409 0.0
H35 H 0.78999 0.89693 0.86642 0.0
H36 H 0.35665 0.18495 0.76518 0.0
H37 H 0.45205 0.12407 0.78294 0.0
H38 H 0.39018 0.9651 0.163 0.0
H39 H 0.29306 0.02183 0.14284 0.0
C40 C 1.00198 0.85287 0.4148 0.0
C41 C 0.06073 -0.01454 0.37968 0.0
C42 C 0.98152 0.82907 0.54222 0.0
C43 C 1.01891 0.93695 0.63923 0.0
H44 H 0.97182 0.76654 0.3436 0.0
H45 H 0.93617 0.72513 0.56486 0.0
S46 S 0.17496 0.30433 0.59625 0.0
N47 N 0.155 0.22677 0.4519 0.0
N48 N 0.11636 0.18222 0.69009 0.0
C49 C 0.07724 0.07023 0.60494 0.0
C50 C 0.09815 0.09441 0.47552 0.0
C51 C 0.47004 0.87589 0.03032 0.0
C52 C 0.48873 0.00745 0.98798 0.0
C53 C 0.52451 0.84055 0.04295 0.0
C54 C 0.59995 0.93521 1.01366 0.0
H55 H 0.4125 0.79879 0.05247 0.0
H56 H 0.50707 0.73741 0.07447 0.0
S57 S 0.67984 0.29707 0.90845 0.0
N58 N 0.5893 0.2355 0.92327 0.0
N59 N 0.69134 0.16871 0.94599 0.0
C60 C 0.61962 0.06761 0.97231 0.0
C61 C 0.56419 0.10377 0.95977 0.0
C62 C 0.0988 0.58053 0.97922 0.0
C63 C 1.03538 0.57675 1.01733 0.0
C64 C 0.10072 0.46047 0.97755 0.0
C65 C 1.03935 0.33153 1.01404 0.0
H66 H 0.14762 0.677 0.95006 0.0
H67 H 0.15082 0.46922 0.94717 0.0
S68 S 0.85971 0.26497 0.12344 0.0
N69 N 0.90956 0.43234 0.09331 0.0
N70 N 0.91314 0.20774 0.09069 0.0
C71 C 0.97558 0.32627 0.05296 0.0
C72 C 0.97361 0.44844 0.05448 0.0
loop_
_geom_bond_atom_site_label_1
_geom_bond_atom_site_label_2
_geom_bond_distance
_geom_bond_site_symmetry_2
_ccdc_geom_bond_type
Ho0 C3 2.811 . S
Ho0 O20 2.322 1_565 S
Ho0 O22 2.378 . S
Ho0 O23 2.524 1_556 S
Ho0 O24 2.381 . S
Ho0 O25 2.669 1_665 S
Ho0 O27 2.346 . S
Ho0 O31 2.305 1_556 S
Ho1 C12 2.811 . S
Ho1 O21 2.346 . S
Ho1 O25 2.305 1_554 S
Ho1 O26 2.322 1_545 S
Ho1 O28 2.378 . S
Ho1 O29 2.524 1_554 S
Ho1 O30 2.381 . S
Ho1 O31 2.669 1_445 S
C2 O20 1.259 1_455 S
C2 O21 1.268 1_556 S
C3 Ho0 2.811 . S
C3 C4 1.488 . S
C3 O22 1.215 . S
C3 O23 1.289 1_556 S
C4 C3 1.488 . S
C4 C5 1.348 1_566 S
C4 C9 1.413 . S
C5 C4 1.348 1_544 S
C5 C6 1.442 . S
C5 H32 0.930 . S
C6 C5 1.442 . S
C6 C7 1.381 1_544 S
C6 H33 0.931 . S
C7 C6 1.381 1_566 S
C7 C8 1.321 . S
C8 C7 1.321 . S
C8 C9 1.403 . S
C8 H34 0.934 . S
C9 C4 1.413 . S
C9 C8 1.403 . S
C9 H35 0.930 . S
C10 O24 1.275 . S
C10 O25 1.256 1_665 S
C11 O26 1.259 1_655 S
C11 O27 1.268 1_554 S
C12 Ho1 2.811 . S
C12 C13 1.488 . S
C12 O28 1.215 . S
C12 O29 1.289 1_554 S
C13 C12 1.488 . S
C13 C14 1.348 1_544 S
C13 C18 1.413 . S
C14 C13 1.348 1_566 S
C14 C15 1.442 . S
C14 H36 0.930 . S
C15 C14 1.442 . S
C15 C16 1.381 1_566 S
C15 H37 0.931 . S
C16 C15 1.381 1_544 S
C16 C17 1.321 . S
C17 C16 1.321 . S
C17 C18 1.403 . S
C17 H38 0.934 . S
C18 C13 1.413 . S
C18 C17 1.403 . S
C18 H39 0.930 . S
C19 O30 1.275 . S
C19 O31 1.256 1_445 S
O20 Ho0 2.322 1_545 S
O20 C2 1.259 1_655 S
O21 Ho1 2.346 . S
O21 C2 1.268 1_554 S
O22 Ho0 2.378 . S
O22 C3 1.215 . S
O23 Ho0 2.524 1_554 S
O23 C3 1.289 1_554 S
O24 Ho0 2.381 . S
O24 C10 1.275 . S
O25 Ho0 2.669 1_445 S
O25 Ho1 2.305 1_556 S
O25 C10 1.256 1_445 S
O26 Ho1 2.322 1_565 S
O26 C11 1.259 1_455 S
O27 Ho0 2.346 . S
O27 C11 1.268 1_556 S
O28 Ho1 2.378 . S
O28 C12 1.215 . S
O29 Ho1 2.524 1_556 S
O29 C12 1.289 1_556 S
O30 Ho1 2.381 . S
O30 C19 1.275 . S
O31 Ho0 2.305 1_554 S
O31 Ho1 2.669 1_665 S
O31 C19 1.256 1_665 S
H32 C5 0.930 . S
H33 C6 0.931 . S
H34 C8 0.934 . S
H35 C9 0.930 . S
H36 C14 0.930 . S
H37 C15 0.931 . S
H38 C17 0.934 . S
H39 C18 0.930 . S
C40 C41 1.356 1_655 S
C40 C42 1.419 . S
C40 H44 0.930 . S
C41 C40 1.356 1_455 S
C41 C50 1.441 1_565 S
C42 C40 1.419 . S
C42 C43 1.354 1_655 S
C42 H45 0.929 . S
C43 C42 1.354 1_455 S
C43 C49 1.439 1_565 S
H44 C40 0.930 . S
H45 C42 0.929 . S
S46 N47 1.613 . S
S46 N48 1.610 . S
N47 S46 1.613 . S
N47 C50 1.350 . S
N48 S46 1.610 . S
N48 C49 1.351 . S
C49 C43 1.439 1_545 S
C49 N48 1.351 . S
C49 C50 1.434 . S
C50 C41 1.441 1_545 S
C50 N47 1.350 . S
C50 C49 1.434 . S
C51 C52 1.368 1_564 S
C51 C53 1.419 . S
C51 H55 0.930 . S
C52 C51 1.368 1_546 S
C52 C61 1.429 . S
C53 C51 1.419 . S
C53 C54 1.363 1_564 S
C53 H56 0.929 . S
C54 C53 1.363 1_546 S
C54 C60 1.430 . S
H55 C51 0.930 . S
H56 C53 0.929 . S
S57 N58 1.613 . S
S57 N59 1.610 . S
N58 S57 1.613 . S
N58 C61 1.350 . S
N59 S57 1.610 . S
N59 C60 1.351 . S
C60 C54 1.430 . S
C60 N59 1.351 . S
C60 C61 1.434 . S
C61 C52 1.429 . S
C61 N58 1.350 . S
C61 C60 1.434 . S
C62 C63 1.353 1_455 S
C62 C64 1.419 . S
C62 H66 0.930 . S
C63 C62 1.353 1_655 S
C63 C72 1.434 1_554 S
C64 C62 1.419 . S
C64 C65 1.360 1_454 S
C64 H67 0.929 . S
C65 C64 1.360 1_656 S
C65 C71 1.439 . S
H66 C62 0.930 . S
H67 C64 0.929 . S
S68 N69 1.613 . S
S68 N70 1.610 . S
N69 S68 1.613 . S
N69 C72 1.350 . S
N70 S68 1.610 . S
N70 C71 1.351 . S
C71 C65 1.439 . S
C71 N70 1.351 . S
C71 C72 1.434 . S
C72 C63 1.434 1_556 S
C72 N69 1.350 . S
C72 C71 1.434 . S
C41 C19 1.462 1_565 S
C43 C10 1.459 1_455 S
C52 C16 1.501 1_556 S
C54 C7 1.497 1_545 S
C63 C11 1.501 . S
C65 C2 1.484 1_655 S
