# Generated by pormake.
# Topology hex, (8)-cn, num edge types: 1
# Building blocks:
#     Node 0, Type 0, BuildingBlock: EYACOX_clean_sbu_0, # of connection points: 8
#     Edge 1, Type (0, 0), BuildingBlock: EZIPEK_clean_linker_0, # of connection points: 2
#     Edge 2, Type (0, 0), BuildingBlock: EZIPEK_clean_linker_0, # of connection points: 2
#     Edge 3, Type (0, 0), BuildingBlock: EZIPEK_clean_linker_0, # of connection points: 2
#     Edge 4, Type (0, 0), BuildingBlock: EZIPEK_clean_linker_0, # of connection points: 2
# Relax obj value: 0.020
# Max RMSD: 0.057
# Mean RMSD: 0.057
data_MOF--net-hex--node1-EYACOX_clean_sbu_0--edge1-EZIPEK_clean_linker_0
_symmetry_space_group_name_H-M    P1
_symmetry_Int_Tables_number       1
_symmetry_cell_setting            triclinic
loop_
_symmetry_equiv_pos_as_xyz
'x, y, z'
_cell_length_a     20.665877
_cell_length_b     19.898653
_cell_length_c     11.252553
_cell_angle_alpha  112.54205
_cell_angle_beta   72.380254
_cell_angle_gamma 148.47584
loop_
_atom_site_label
_atom_site_type_symbol
_atom_site_fract_x
_atom_site_fract_y
_atom_site_fract_z
_atom_type_partial_charge
Eu0 Eu 0.059 0.91314 0.93413 0.0
Eu1 Eu 0.9743 0.01891 0.04407 0.0
O2 O 0.21364 -0.0251 0.89293 0.0
O3 O 0.02596 0.76618 0.84515 0.0
O4 O 0.99994 0.0147 0.83654 0.0
O5 O 0.03229 0.91833 0.75941 0.0
O6 O 0.85788 0.73828 0.97805 0.0
O7 O 0.81003 0.80146 0.9496 0.0
C8 C 0.17354 0.82632 0.91072 0.0
C9 C 0.22975 0.7763 0.02432 0.0
C10 C 0.10992 0.67371 0.97889 0.0
C11 C 0.07926 0.69815 0.92631 0.0
C12 C 0.32578 0.89488 -0.00989 0.0
C13 C 0.29896 0.92335 0.93648 0.0
C14 C 0.1426 0.85398 0.85506 0.0
C15 C 1.01681 -0.03356 0.74375 0.0
O16 O 0.81923 0.95655 0.0851 0.0
O17 O 1.00679 0.16539 0.13261 0.0
C18 C 0.77749 0.71396 0.96688 0.0
O19 O 1.00099 0.01375 0.21883 0.0
O20 O 0.03391 0.91793 0.14178 0.0
O21 O 0.17552 0.19397 0.00046 0.0
O22 O 0.22361 0.13071 0.02795 0.0
C23 C 0.85888 0.10378 0.06453 0.0
C24 C 0.70614 0.03986 -0.00206 0.0
C25 C 0.73407 0.01401 0.0549 0.0
C26 C 0.79943 0.14802 0.94563 0.0
C27 C 0.92207 0.2473 0.97546 0.0
C28 C 0.95362 0.2243 0.0293 0.0
C29 C 0.8901 0.07735 0.12223 0.0
C30 C 1.01683 -0.034 0.23453 0.0
C31 C 0.25598 0.21823 0.01112 0.0
H32 H 0.25129 0.7546 0.06439 0.0
H33 H 0.98461 0.61669 0.89213 0.0
H34 H 0.37412 0.01647 0.90982 0.0
H35 H 0.66097 0.92867 0.0952 0.0
H36 H 0.77719 0.16824 0.90378 0.0
H37 H 0.05031 0.30283 0.05093 0.0
C38 C 0.99155 0.43437 0.09165 0.0
C39 C 1.00359 0.37988 0.98158 0.0
C40 C 0.05516 0.49641 0.85439 0.0
C41 C 0.0327 0.5414 0.96243 0.0
N42 N 0.95474 0.53159 0.17225 0.0
N43 N 0.04249 0.35312 0.7578 0.0
C44 C 0.99143 0.5017 0.07704 0.0
C45 C 0.03587 0.41087 0.86295 0.0
N46 N 0.97782 0.4189 0.20937 0.0
N47 N 0.10097 0.54143 0.74638 0.0
H48 H 0.03574 0.2965 0.76509 0.0
H49 H 0.05048 0.35743 0.66422 0.0
H50 H 0.10872 0.59741 0.73403 0.0
H51 H 0.13503 0.52738 0.67118 0.0
H52 H 0.97674 0.46367 0.2949 0.0
H53 H 0.97945 0.3714 0.22292 0.0
H54 H 0.91426 0.49695 0.25523 0.0
H55 H 0.95449 0.58115 0.16115 0.0
C56 C 0.58867 0.04709 0.11519 0.0
C57 C 0.59051 -0.02061 0.01169 0.0
C58 C 0.45605 0.90578 0.87902 0.0
C59 C 0.44547 0.96363 0.9853 0.0
N60 N 0.49456 0.08255 0.20671 0.0
N61 N 0.50954 0.8254 0.80556 0.0
C62 C 0.51106 0.03367 0.10381 0.0
C63 C 0.51777 0.90177 0.89716 0.0
N64 N 0.66597 0.12934 0.22182 0.0
N65 N 0.40483 0.85281 0.76118 0.0
H66 H 0.55411 0.82151 0.81895 0.0
H67 H 0.45051 0.75764 0.7234 0.0
H68 H 0.36025 0.85589 0.74543 0.0
H69 H 0.41607 0.81716 0.67727 0.0
H70 H 0.68226 0.19548 0.29268 0.0
H71 H 0.71803 0.13499 0.23679 0.0
H72 H 0.52644 0.12004 0.3005 0.0
H73 H 0.44414 0.08066 0.19776 0.0
C74 C 0.44733 0.34854 0.88942 0.0
C75 C 0.38837 0.34633 -0.0021 0.0
C76 C 0.5861 0.5837 0.08847 0.0
C77 C 0.64507 0.5859 0.98002 0.0
N78 N 0.63469 0.47911 0.7708 0.0
N79 N 0.3988 0.45314 0.20716 0.0
C80 C 0.5767 0.47031 0.87921 0.0
C81 C 0.45674 0.46193 0.09871 0.0
N82 N 0.37937 0.23327 0.79727 0.0
N83 N 0.65405 0.69899 0.18055 0.0
H84 H 0.30366 0.36597 0.21684 0.0
H85 H 0.44456 0.52918 0.29106 0.0
H86 H 0.75031 0.78817 0.18225 0.0
H87 H 0.61588 0.70897 0.25313 0.0
H88 H 0.41751 0.2233 0.72464 0.0
H89 H 0.28311 0.14411 0.79555 0.0
H90 H 0.58897 0.40308 0.6869 0.0
H91 H 0.72985 0.56627 0.76118 0.0
C92 C 0.91498 0.84374 0.52587 0.0
C93 C 0.01758 -0.03402 0.61288 0.0
C94 C 0.11868 0.08873 0.4524 0.0
C95 C 1.01608 -0.03352 0.36541 0.0
N96 N 0.81186 0.73008 0.31763 0.0
N97 N 0.22171 0.20243 0.66074 0.0
C98 C 0.91319 0.84426 0.40124 0.0
C99 C 0.12044 0.08822 0.57707 0.0
N100 N 0.82018 0.72757 0.56277 0.0
N101 N 0.2135 0.20487 0.41545 0.0
H102 H 0.22558 0.20578 0.7533 0.0
H103 H 0.30505 0.29328 0.63798 0.0
H104 H 0.21878 0.20816 0.32226 0.0
H105 H 0.28526 0.29907 0.47704 0.0
H106 H 0.74851 0.6334 0.5011 0.0
H107 H 0.81484 0.72424 0.65595 0.0
H108 H 0.72848 0.63928 0.34047 0.0
H109 H 0.80796 0.72672 0.22508 0.0
loop_
_geom_bond_atom_site_label_1
_geom_bond_atom_site_label_2
_geom_bond_distance
_geom_bond_site_symmetry_2
_ccdc_geom_bond_type
Eu0 O2 2.472 1_655 S
Eu0 O3 2.507 . S
Eu0 O5 2.336 . S
Eu0 O6 2.389 . S
Eu0 C14 2.835 1_655 S
Eu0 O20 2.396 1_556 S
Eu0 O22 2.323 1_665 S
Eu1 O4 2.396 1_554 S
Eu1 O7 2.323 1_445 S
Eu1 O16 2.472 1_455 S
Eu1 O17 2.507 . S
Eu1 O19 2.336 . S
Eu1 O21 2.389 . S
Eu1 C29 2.835 1_455 S
O2 Eu0 2.472 1_455 S
O2 C14 1.258 . S
O3 Eu0 2.507 . S
O3 C14 1.246 1_655 S
O4 Eu1 2.396 1_556 S
O4 C15 1.216 1_445 S
O5 Eu0 2.336 . S
O5 C15 1.279 . S
O6 Eu0 2.389 . S
O6 C18 1.239 . S
O7 Eu1 2.323 1_665 S
O7 C18 1.249 1_554 S
C8 C11 1.390 . S
C8 C13 1.370 . S
C8 C14 1.489 . S
C9 C10 1.344 . S
C9 C12 1.416 . S
C9 H32 0.931 . S
C10 C9 1.344 . S
C10 C11 1.423 1_554 S
C11 C8 1.390 . S
C11 C10 1.423 1_556 S
C11 H33 0.930 1_455 S
C12 C9 1.416 . S
C12 C13 1.392 1_554 S
C13 C8 1.370 . S
C13 C12 1.392 1_556 S
C13 H34 0.932 1_565 S
C14 Eu0 2.835 1_455 S
C14 O2 1.258 . S
C14 O3 1.246 1_455 S
C14 C8 1.489 . S
C15 O4 1.216 1_665 S
C15 O5 1.279 . S
O16 Eu1 2.472 1_655 S
O16 C29 1.258 . S
O17 Eu1 2.507 . S
O17 C29 1.246 1_455 S
C18 O6 1.239 . S
C18 O7 1.249 1_556 S
O19 Eu1 2.336 . S
O19 C30 1.279 . S
O20 Eu0 2.396 1_554 S
O20 C30 1.216 1_665 S
O21 Eu1 2.389 . S
O21 C31 1.239 . S
O22 Eu0 2.323 1_445 S
O22 C31 1.249 1_556 S
C23 C25 1.370 . S
C23 C28 1.390 . S
C23 C29 1.489 . S
C24 C25 1.393 1_556 S
C24 C26 1.415 . S
C25 C23 1.370 . S
C25 C24 1.393 1_554 S
C25 H35 0.932 1_545 S
C26 C24 1.415 . S
C26 C27 1.344 . S
C26 H36 0.931 . S
C27 C26 1.344 . S
C27 C28 1.423 1_556 S
C28 C23 1.390 . S
C28 C27 1.423 1_554 S
C28 H37 0.930 1_655 S
C29 Eu1 2.835 1_655 S
C29 O16 1.258 . S
C29 O17 1.246 1_655 S
C29 C23 1.489 . S
C30 O19 1.279 . S
C30 O20 1.216 1_445 S
C31 O21 1.239 . S
C31 O22 1.249 1_554 S
H32 C9 0.931 . S
H33 C11 0.930 1_655 S
H34 C13 0.932 1_545 S
H35 C25 0.932 1_565 S
H36 C26 0.931 . S
H37 C28 0.930 1_455 S
C38 C39 1.363 1_554 S
C38 C44 1.379 . S
C38 N46 1.356 . S
C39 C38 1.363 1_556 S
C39 C45 1.363 1_655 S
C40 C41 1.363 1_556 S
C40 C45 1.379 . S
C40 N47 1.356 . S
C41 C40 1.363 1_554 S
C41 C44 1.363 1_455 S
N42 C44 1.356 . S
N42 H54 0.984 . S
N42 H55 0.985 . S
N43 C45 1.356 . S
N43 H48 0.984 . S
N43 H49 0.985 . S
C44 C38 1.379 . S
C44 C41 1.363 1_655 S
C44 N42 1.356 . S
C45 C39 1.363 1_455 S
C45 C40 1.379 . S
C45 N43 1.356 . S
N46 C38 1.356 . S
N46 H52 0.984 . S
N46 H53 0.984 . S
N47 C40 1.356 . S
N47 H50 0.984 . S
N47 H51 0.985 . S
H48 N43 0.984 . S
H49 N43 0.985 . S
H50 N47 0.984 . S
H51 N47 0.985 . S
H52 N46 0.984 . S
H53 N46 0.984 . S
H54 N42 0.984 . S
H55 N42 0.985 . S
C56 C57 1.363 1_545 S
C56 C62 1.379 . S
C56 N64 1.356 . S
C57 C56 1.363 1_565 S
C57 C63 1.363 1_554 S
C58 C59 1.363 1_566 S
C58 C63 1.379 . S
C58 N65 1.356 . S
C59 C58 1.363 1_544 S
C59 C62 1.363 . S
N60 C62 1.356 . S
N60 H72 0.984 . S
N60 H73 0.985 . S
N61 C63 1.356 . S
N61 H66 0.984 . S
N61 H67 0.985 . S
C62 C56 1.379 . S
C62 C59 1.363 . S
C62 N60 1.356 . S
C63 C57 1.363 1_556 S
C63 C58 1.379 . S
C63 N61 1.356 . S
N64 C56 1.356 . S
N64 H70 0.984 . S
N64 H71 0.984 . S
N65 C58 1.356 . S
N65 H68 0.984 . S
N65 H69 0.985 . S
H66 N61 0.984 . S
H67 N61 0.985 . S
H68 N65 0.984 . S
H69 N65 0.985 . S
H70 N64 0.984 . S
H71 N64 0.984 . S
H72 N60 0.984 . S
H73 N60 0.985 . S
C74 C75 1.361 1_556 S
C74 C80 1.379 . S
C74 N82 1.356 . S
C75 C74 1.361 1_554 S
C75 C81 1.364 . S
C76 C77 1.362 1_554 S
C76 C81 1.379 . S
C76 N83 1.356 . S
C77 C76 1.362 1_556 S
C77 C80 1.364 . S
N78 C80 1.356 . S
N78 H90 0.984 . S
N78 H91 0.985 . S
N79 C81 1.356 . S
N79 H84 0.984 . S
N79 H85 0.985 . S
C80 C74 1.379 . S
C80 C77 1.364 . S
C80 N78 1.356 . S
C81 C75 1.364 . S
C81 C76 1.379 . S
C81 N79 1.356 . S
N82 C74 1.356 . S
N82 H88 0.984 . S
N82 H89 0.984 . S
N83 C76 1.356 . S
N83 H86 0.984 . S
N83 H87 0.985 . S
H84 N79 0.984 . S
H85 N79 0.985 . S
H86 N83 0.984 . S
H87 N83 0.985 . S
H88 N82 0.984 . S
H89 N82 0.984 . S
H90 N78 0.984 . S
H91 N78 0.985 . S
C92 C93 1.362 1_565 S
C92 C98 1.379 . S
C92 N100 1.356 . S
C93 C92 1.362 1_545 S
C93 C99 1.365 1_655 S
C94 C95 1.360 . S
C94 C99 1.379 . S
C94 N101 1.356 . S
C95 C94 1.360 . S
C95 C98 1.369 1_445 S
N96 C98 1.356 . S
N96 H108 0.984 . S
N96 H109 0.985 . S
N97 C99 1.356 . S
N97 H102 0.984 . S
N97 H103 0.985 . S
C98 C92 1.379 . S
C98 C95 1.369 1_665 S
C98 N96 1.356 . S
C99 C93 1.365 1_455 S
C99 C94 1.379 . S
C99 N97 1.356 . S
N100 C92 1.356 . S
N100 H106 0.984 . S
N100 H107 0.984 . S
N101 C94 1.356 . S
N101 H104 0.984 . S
N101 H105 0.985 . S
H102 N97 0.984 . S
H103 N97 0.985 . S
H104 N101 0.984 . S
H105 N101 0.985 . S
H106 N100 0.984 . S
H107 N100 0.984 . S
H108 N96 0.984 . S
H109 N96 0.985 . S
C39 C27 1.209 . S
C41 C10 1.209 . S
C57 C24 1.771 1_564 S
C59 C12 1.772 1_545 S
C75 C31 1.208 . S
C77 C18 1.208 . S
C93 C15 1.493 1_545 S
C95 C30 1.492 . S
