# Generated by pormake.
# Topology smu, (6)-cn, num edge types: 1
# Building blocks:
#     Node 0, Type 0, BuildingBlock: VOLQOD_clean_sbu_1, # of connection points: 6
#     Node 1, Type 0, BuildingBlock: VOLQOD_clean_sbu_1, # of connection points: 6
#     Node 2, Type 0, BuildingBlock: VOLQOD_clean_sbu_1, # of connection points: 6
#     Node 3, Type 0, BuildingBlock: VOLQOD_clean_sbu_1, # of connection points: 6
#     Node 4, Type 0, BuildingBlock: VOLQOD_clean_sbu_1, # of connection points: 6
#     Node 5, Type 0, BuildingBlock: VOLQOD_clean_sbu_1, # of connection points: 6
#     Edge 6, Type (0, 0), BuildingBlock: EYOCIG_clean_linker_4, # of connection points: 2
#     Edge 7, Type (0, 0), BuildingBlock: EYOCIG_clean_linker_4, # of connection points: 2
#     Edge 8, Type (0, 0), BuildingBlock: EYOCIG_clean_linker_4, # of connection points: 2
#     Edge 9, Type (0, 0), BuildingBlock: EYOCIG_clean_linker_4, # of connection points: 2
#     Edge 10, Type (0, 0), BuildingBlock: EYOCIG_clean_linker_4, # of connection points: 2
#     Edge 11, Type (0, 0), BuildingBlock: EYOCIG_clean_linker_4, # of connection points: 2
#     Edge 12, Type (0, 0), BuildingBlock: EYOCIG_clean_linker_4, # of connection points: 2
#     Edge 13, Type (0, 0), BuildingBlock: EYOCIG_clean_linker_4, # of connection points: 2
#     Edge 14, Type (0, 0), BuildingBlock: EYOCIG_clean_linker_4, # of connection points: 2
#     Edge 15, Type (0, 0), BuildingBlock: EYOCIG_clean_linker_4, # of connection points: 2
#     Edge 16, Type (0, 0), BuildingBlock: EYOCIG_clean_linker_4, # of connection points: 2
#     Edge 17, Type (0, 0), BuildingBlock: EYOCIG_clean_linker_4, # of connection points: 2
#     Edge 18, Type (0, 0), BuildingBlock: EYOCIG_clean_linker_4, # of connection points: 2
#     Edge 19, Type (0, 0), BuildingBlock: EYOCIG_clean_linker_4, # of connection points: 2
#     Edge 20, Type (0, 0), BuildingBlock: EYOCIG_clean_linker_4, # of connection points: 2
#     Edge 21, Type (0, 0), BuildingBlock: EYOCIG_clean_linker_4, # of connection points: 2
#     Edge 22, Type (0, 0), BuildingBlock: EYOCIG_clean_linker_4, # of connection points: 2
#     Edge 23, Type (0, 0), BuildingBlock: EYOCIG_clean_linker_4, # of connection points: 2
# Relax obj value: 0.301
# Max RMSD: 0.244
# Mean RMSD: 0.244
data_MOF--net-smu--node1-VOLQOD_clean_sbu_1--edge1-EYOCIG_clean_linker_4
_symmetry_space_group_name_H-M    P1
_symmetry_Int_Tables_number       1
_symmetry_cell_setting            triclinic
loop_
_symmetry_equiv_pos_as_xyz
'x, y, z'
_cell_length_a     25.894451
_cell_length_b     25.906009
_cell_length_c     26.477642
_cell_angle_alpha  90.051913
_cell_angle_beta   89.95944
_cell_angle_gamma 119.9738
loop_
_atom_site_label
_atom_site_type_symbol
_atom_site_fract_x
_atom_site_fract_y
_atom_site_fract_z
_atom_type_partial_charge
O0 O 0.38068 0.20193 0.21172 0.0
Zn1 Zn 0.30418 0.12416 0.20213 0.0
O2 O 0.2957 0.06894 0.25454 0.0
Zn3 Zn 0.29823 0.00119 0.22737 0.0
Zn4 Zn 0.35722 0.10999 0.30308 0.0
Zn5 Zn 0.22209 0.04171 0.28878 0.0
O6 O 0.22497 0.92412 0.25024 0.0
O7 O 0.16494 0.9621 0.26153 0.0
O8 O 0.29301 0.08631 0.13244 0.0
O9 O 0.28769 0.00015 0.15225 0.0
O10 O 0.38043 0.01055 0.2406 0.0
O11 O 0.42324 0.09505 0.28526 0.0
O12 O 0.32818 0.07673 0.37372 0.0
O13 O 0.24407 0.15025 0.21241 0.0
O14 O 0.23009 0.02691 0.36181 0.0
O15 O 0.19315 0.10045 0.2806 0.0
C16 C 0.4003 0.22764 0.2542 0.0
C17 C 0.17305 0.91804 0.25472 0.0
C18 C 0.42588 0.0535 0.26198 0.0
C19 C 0.28605 0.03561 0.11999 0.0
C20 C 0.27533 0.043 0.38992 0.0
C21 C 0.20598 0.14004 0.24685 0.0
O22 O 0.38865 0.19854 0.29554 0.0
O23 O 0.77791 0.56466 0.21092 0.0
Zn24 Zn 0.77584 0.64083 0.20175 0.0
O25 O 0.72901 0.64875 0.25451 0.0
Zn26 Zn 0.6584 0.64599 0.22785 0.0
Zn27 Zn 0.70912 0.58718 0.30285 0.0
Zn28 Zn 0.77513 0.72221 0.28893 0.0
O29 O 0.65439 0.71915 0.2509 0.0
O30 O 0.75236 0.77923 0.26207 0.0
O31 O 0.74841 0.65159 0.13233 0.0
O32 O 0.66728 0.65626 0.15268 0.0
O33 O 0.58588 0.56378 0.24138 0.0
O34 O 0.62827 0.52111 0.28525 0.0
O35 O 0.70493 0.61581 0.37371 0.0
O36 O 0.8619 0.70145 0.2117 0.0
O37 O 0.75241 0.71387 0.36199 0.0
O38 O 0.86283 0.75155 0.28047 0.0
C39 C 0.78392 0.54465 0.25321 0.0
C40 C 0.70016 0.77107 0.25541 0.0
C41 C 0.58381 0.51838 0.26242 0.0
C42 C 0.7043 0.65807 0.12017 0.0
C43 C 0.72366 0.66854 0.39004 0.0
C44 C 0.88969 0.73929 0.24632 0.0
O45 O 0.76637 0.55593 0.29471 0.0
O46 O 0.74257 0.16556 0.21142 0.0
Zn47 Zn 0.82095 0.1678 0.20211 0.0
O48 O 0.8758 0.21495 0.25466 0.0
Zn49 Zn 0.94343 0.28537 0.22761 0.0
Zn50 Zn 0.83414 0.23518 0.30288 0.0
Zn51 Zn 0.90347 0.16919 0.28924 0.0
O52 O 0.02078 0.28998 0.25081 0.0
O53 O -0.01654 0.19219 0.26241 0.0
O54 O 0.85895 0.19467 0.13251 0.0
O55 O 0.94481 0.27577 0.15255 0.0
O56 O 0.9334 0.35781 0.24049 0.0
O57 O 0.8486 0.31583 0.28478 0.0
O58 O 0.86717 0.23991 0.37371 0.0
O59 O 0.79573 0.08193 0.21245 0.0
O60 O 0.91768 0.19222 0.36227 0.0
O61 O 0.84527 0.0814 0.28105 0.0
C62 C 0.71667 0.15973 0.25378 0.0
C63 C 0.02729 0.24445 0.25556 0.0
C64 C 0.89013 0.36004 0.26156 0.0
C65 C 0.90959 0.23858 0.12019 0.0
C66 C 0.90112 0.22118 0.39017 0.0
C67 C 0.806 0.05436 0.24708 0.0
O68 O 0.74564 0.17767 0.29515 0.0
O69 O 0.19125 0.39077 0.79581 0.0
Zn70 Zn 0.1132 0.31449 0.80515 0.0
O71 O 0.05813 0.30652 0.75273 0.0
Zn72 Zn -0.00961 0.30911 0.77994 0.0
Zn73 Zn 0.09946 0.36825 0.70446 0.0
Zn74 Zn 0.03081 0.23317 0.71811 0.0
O75 O 0.91317 0.23583 0.7572 0.0
O76 O 0.9512 0.17595 0.7453 0.0
O77 O 0.07532 0.30327 0.87482 0.0
O78 O -0.01062 0.29852 0.85502 0.0
O79 O -5e-05 0.39141 0.76691 0.0
O80 O 0.08476 0.43429 0.72263 0.0
O81 O 0.06634 0.33978 0.63367 0.0
O82 O 0.1389 0.25415 0.79464 0.0
O83 O 0.01612 0.24167 0.64516 0.0
O84 O 0.08945 0.20407 0.72601 0.0
C85 C 0.21703 0.41061 0.75339 0.0
C86 C 0.90713 0.18396 0.75251 0.0
C87 C 0.04314 0.43691 0.74584 0.0
C88 C 0.02471 0.29658 0.88727 0.0
C89 C 0.03246 0.28708 0.61725 0.0
C90 C 0.1288 0.21642 0.75991 0.0
O91 O 0.18797 0.39934 0.71206 0.0
O92 O 0.15564 0.75377 0.79614 0.0
Zn93 Zn 0.1573 0.83185 0.80512 0.0
O94 O 0.20424 0.88657 0.75246 0.0
Zn95 Zn 0.27469 0.95431 0.77936 0.0
Zn96 Zn 0.22433 0.84486 0.70417 0.0
Zn97 Zn 0.15823 0.91402 0.71801 0.0
O98 O 0.27899 0.03145 0.75605 0.0
O99 O 0.18106 -0.00609 0.74484 0.0
O100 O 0.18413 0.87019 0.87463 0.0
O101 O 0.26531 0.9559 0.85447 0.0
O102 O 0.34723 0.94445 0.76626 0.0
O103 O 0.30524 0.85971 0.72192 0.0
O104 O 0.22844 0.87748 0.63325 0.0
O105 O 0.07124 0.80608 0.79468 0.0
O106 O 0.181 0.92819 0.64496 0.0
O107 O 0.07051 0.85564 0.7262 0.0
C108 C 0.14962 0.72766 0.75386 0.0
C109 C 0.23334 0.03782 0.75146 0.0
C110 C 0.34952 0.90128 0.74506 0.0
C111 C 0.22811 0.92081 0.88687 0.0
C112 C 0.20969 0.91146 0.6169 0.0
C113 C 0.04356 0.81624 0.76006 0.0
O114 O 0.16712 0.75638 0.71235 0.0
O115 O 0.55373 0.78878 0.79587 0.0
Zn116 Zn 0.62984 0.78657 0.80533 0.0
O117 O 0.638 0.73988 0.75256 0.0
Zn118 Zn 0.63538 0.66937 0.77921 0.0
Zn119 Zn 0.57633 0.71971 0.70422 0.0
Zn120 Zn 0.71153 0.78613 0.71819 0.0
O121 O 0.70842 0.66528 0.75597 0.0
O122 O 0.76858 0.76319 0.7448 0.0
O123 O 0.64034 0.759 0.87478 0.0
O124 O 0.64577 0.67832 0.85437 0.0
O125 O 0.55322 0.59678 0.76582 0.0
O126 O 0.51028 0.63888 0.72193 0.0
O127 O 0.60502 0.71545 0.63343 0.0
O128 O 0.6906 0.87262 0.79568 0.0
O129 O 0.70317 0.76364 0.64504 0.0
O130 O 0.74094 0.8738 0.72699 0.0
C131 C 0.53378 0.79469 0.75351 0.0
C132 C 0.76036 0.71096 0.75136 0.0
C133 C 0.50771 0.59453 0.7448 0.0
C134 C 0.6472 0.71512 0.88691 0.0
C135 C 0.65781 0.73456 0.61704 0.0
C136 C 0.72861 0.90053 0.76121 0.0
O137 O 0.54504 0.77695 0.71211 0.0
C138 C 0.24571 0.96399 0.97961 0.0
C139 C 0.23501 0.94147 0.93818 0.0
C140 C 0.26028 -0.00717 0.02715 0.0
C141 C 0.27222 0.01521 0.06862 0.0
C142 C 0.67878 0.7051 0.52684 0.0
C143 C 0.6669 0.71742 0.5676 0.0
C144 C 0.69426 0.68952 0.48027 0.0
C145 C 0.70654 0.67757 0.43951 0.0
C146 C 0.95271 0.25611 0.02747 0.0
C147 C 0.93014 0.24539 0.06887 0.0
C148 C -0.0183 0.27072 0.98001 0.0
C149 C 0.00421 0.28269 0.93859 0.0
C150 C 0.25414 -0.00763 0.47999 0.0
C151 C 0.26604 0.01661 0.43928 0.0
C152 C 0.23879 0.96143 0.52657 0.0
C153 C 0.22666 0.93737 0.56737 0.0
C154 C 0.67212 0.69729 0.97974 0.0
C155 C 0.66056 0.708 0.93825 0.0
C156 C 0.68643 0.68301 0.02736 0.0
C157 C 0.69716 0.67147 0.06885 0.0
C158 C 0.95125 0.25083 0.48044 0.0
C159 C 0.92715 0.23844 0.43965 0.0
C160 C -0.01785 0.26633 0.52705 0.0
C161 C 0.00632 0.27814 0.56781 0.0
C162 C 0.53618 0.07548 0.25563 0.0
C163 C 0.48386 0.05998 0.25598 0.0
C164 C 0.59896 0.10276 0.25543 0.0
C165 C 0.6527 0.12882 0.25505 0.0
C166 C 0.49593 0.40801 0.25624 0.0
C167 C 0.53246 0.46036 0.25654 0.0
C168 C 0.46078 0.34526 0.25607 0.0
C169 C 0.43321 0.29155 0.25565 0.0
C170 C 0.86774 0.44802 0.25479 0.0
C171 C 0.88336 0.41132 0.25537 0.0
C172 C 0.84053 0.48356 0.25452 0.0
C173 C 0.81464 0.51142 0.25424 0.0
C174 C 0.06545 0.54724 0.75249 0.0
C175 C 0.04975 0.49491 0.75201 0.0
C176 C 0.09282 0.61 0.75264 0.0
C177 C 0.1188 0.66372 0.75285 0.0
C178 C 0.43757 0.87896 0.75158 0.0
C179 C 0.40087 0.8946 0.75112 0.0
C180 C 0.473 0.85161 0.75187 0.0
C181 C 0.50071 0.82557 0.75227 0.0
C182 C 0.33469 0.47109 0.75153 0.0
C183 C 0.28096 0.44352 0.75201 0.0
C184 C 0.39745 0.50642 0.75121 0.0
C185 C 0.44976 0.54311 0.75079 0.0
C186 C 0.15658 0.2075 0.25013 0.0
C187 C 0.17905 0.17659 0.24876 0.0
C188 C 0.12347 0.23705 0.25134 0.0
C189 C 0.0848 0.24981 0.25234 0.0
C190 C 0.00659 0.78917 0.24921 0.0
C191 C 0.95319 0.76649 0.24803 0.0
C192 C 0.06923 0.82228 0.25034 0.0
C193 C 0.1207 0.86076 0.25142 0.0
C194 C 0.73853 0.93758 0.25034 0.0
C195 C 0.76955 -0.00908 0.24913 0.0
C196 C 0.70847 0.87495 0.25138 0.0
C197 C 0.69516 0.82339 0.2523 0.0
C198 C 0.19615 0.1669 0.75649 0.0
C199 C 0.16525 0.18938 0.75786 0.0
C200 C 0.22576 0.13386 0.75537 0.0
C201 C 0.23861 0.09527 0.75448 0.0
C202 C 0.92677 0.74867 0.75652 0.0
C203 C -0.01988 0.77967 0.75795 0.0
C204 C 0.86413 0.71885 0.75531 0.0
C205 C 0.81263 0.70583 0.75439 0.0
C206 C 0.81155 0.08005 0.75743 0.0
C207 C 0.84992 0.13155 0.75616 0.0
C208 C 0.77854 0.01742 0.75862 0.0
C209 C 0.75582 0.96403 0.75969 0.0
loop_
_geom_bond_atom_site_label_1
_geom_bond_atom_site_label_2
_geom_bond_distance
_geom_bond_site_symmetry_2
_ccdc_geom_bond_type
O0 Zn1 1.953 . S
O0 C16 1.225 . S
Zn1 O0 1.953 . S
Zn1 O2 1.949 . S
Zn1 O8 1.919 . S
Zn1 O13 1.924 . S
O2 Zn1 1.949 . S
O2 Zn3 1.923 . S
O2 Zn4 1.950 . S
O2 Zn5 1.945 . S
Zn3 O2 1.923 . S
Zn3 O6 1.933 1_545 S
Zn3 O9 1.941 . S
Zn3 O10 1.965 . S
Zn4 O2 1.950 . S
Zn4 O11 1.938 . S
Zn4 O12 1.906 . S
Zn4 O22 1.953 . S
Zn5 O2 1.945 . S
Zn5 O7 1.932 1_545 S
Zn5 O14 1.977 . S
Zn5 O15 1.910 . S
O6 Zn3 1.933 1_565 S
O6 C17 1.226 . S
O7 Zn5 1.932 1_565 S
O7 C17 1.307 . S
O8 Zn1 1.919 . S
O8 C19 1.253 . S
O9 Zn3 1.941 . S
O9 C19 1.283 . S
O10 Zn3 1.965 . S
O10 C18 1.303 . S
O11 Zn4 1.938 . S
O11 C18 1.247 . S
O12 Zn4 1.906 . S
O12 C20 1.304 . S
O13 Zn1 1.924 . S
O13 C21 1.311 . S
O14 Zn5 1.977 . S
O14 C20 1.272 . S
O15 Zn5 1.910 . S
O15 C21 1.231 . S
C16 O0 1.225 . S
C16 O22 1.298 . S
C17 O6 1.226 . S
C17 O7 1.307 . S
C18 O10 1.303 . S
C18 O11 1.247 . S
C19 O8 1.253 . S
C19 O9 1.283 . S
C20 O12 1.304 . S
C20 O14 1.272 . S
C21 O13 1.311 . S
C21 O15 1.231 . S
O22 Zn4 1.953 . S
O22 C16 1.298 . S
O23 Zn24 1.953 . S
O23 C39 1.225 . S
Zn24 O23 1.953 . S
Zn24 O25 1.949 . S
Zn24 O31 1.919 . S
Zn24 O36 1.924 . S
O25 Zn24 1.949 . S
O25 Zn26 1.923 . S
O25 Zn27 1.950 . S
O25 Zn28 1.945 . S
Zn26 O25 1.923 . S
Zn26 O29 1.933 . S
Zn26 O32 1.941 . S
Zn26 O33 1.965 . S
Zn27 O25 1.950 . S
Zn27 O34 1.938 . S
Zn27 O35 1.906 . S
Zn27 O45 1.953 . S
Zn28 O25 1.945 . S
Zn28 O30 1.932 . S
Zn28 O37 1.977 . S
Zn28 O38 1.910 . S
O29 Zn26 1.933 . S
O29 C40 1.226 . S
O30 Zn28 1.932 . S
O30 C40 1.307 . S
O31 Zn24 1.919 . S
O31 C42 1.253 . S
O32 Zn26 1.941 . S
O32 C42 1.283 . S
O33 Zn26 1.965 . S
O33 C41 1.303 . S
O34 Zn27 1.938 . S
O34 C41 1.247 . S
O35 Zn27 1.906 . S
O35 C43 1.304 . S
O36 Zn24 1.924 . S
O36 C44 1.311 . S
O37 Zn28 1.977 . S
O37 C43 1.272 . S
O38 Zn28 1.910 . S
O38 C44 1.231 . S
C39 O23 1.225 . S
C39 O45 1.298 . S
C40 O29 1.226 . S
C40 O30 1.307 . S
C41 O33 1.303 . S
C41 O34 1.247 . S
C42 O31 1.253 . S
C42 O32 1.283 . S
C43 O35 1.304 . S
C43 O37 1.272 . S
C44 O36 1.311 . S
C44 O38 1.231 . S
O45 Zn27 1.953 . S
O45 C39 1.298 . S
O46 Zn47 1.953 . S
O46 C62 1.225 . S
Zn47 O46 1.953 . S
Zn47 O48 1.949 . S
Zn47 O54 1.919 . S
Zn47 O59 1.924 . S
O48 Zn47 1.949 . S
O48 Zn49 1.923 . S
O48 Zn50 1.950 . S
O48 Zn51 1.945 . S
Zn49 O48 1.923 . S
Zn49 O52 1.933 1_655 S
Zn49 O55 1.941 . S
Zn49 O56 1.965 . S
Zn50 O48 1.950 . S
Zn50 O57 1.938 . S
Zn50 O58 1.906 . S
Zn50 O68 1.953 . S
Zn51 O48 1.945 . S
Zn51 O53 1.932 1_655 S
Zn51 O60 1.977 . S
Zn51 O61 1.910 . S
O52 Zn49 1.933 1_455 S
O52 C63 1.226 . S
O53 Zn51 1.932 1_455 S
O53 C63 1.307 . S
O54 Zn47 1.919 . S
O54 C65 1.253 . S
O55 Zn49 1.941 . S
O55 C65 1.283 . S
O56 Zn49 1.965 . S
O56 C64 1.303 . S
O57 Zn50 1.938 . S
O57 C64 1.247 . S
O58 Zn50 1.906 . S
O58 C66 1.304 . S
O59 Zn47 1.924 . S
O59 C67 1.311 . S
O60 Zn51 1.977 . S
O60 C66 1.272 . S
O61 Zn51 1.910 . S
O61 C67 1.231 . S
C62 O46 1.225 . S
C62 O68 1.298 . S
C63 O52 1.226 . S
C63 O53 1.307 . S
C64 O56 1.303 . S
C64 O57 1.247 . S
C65 O54 1.253 . S
C65 O55 1.283 . S
C66 O58 1.304 . S
C66 O60 1.272 . S
C67 O59 1.311 . S
C67 O61 1.231 . S
O68 Zn50 1.953 . S
O68 C62 1.298 . S
O69 Zn70 1.953 . S
O69 C85 1.225 . S
Zn70 O69 1.953 . S
Zn70 O71 1.949 . S
Zn70 O77 1.919 . S
Zn70 O82 1.924 . S
O71 Zn70 1.949 . S
O71 Zn72 1.923 . S
O71 Zn73 1.950 . S
O71 Zn74 1.945 . S
Zn72 O71 1.923 . S
Zn72 O75 1.933 1_455 S
Zn72 O78 1.941 . S
Zn72 O79 1.965 . S
Zn73 O71 1.950 . S
Zn73 O80 1.938 . S
Zn73 O81 1.906 . S
Zn73 O91 1.953 . S
Zn74 O71 1.945 . S
Zn74 O76 1.932 1_455 S
Zn74 O83 1.977 . S
Zn74 O84 1.910 . S
O75 Zn72 1.933 1_655 S
O75 C86 1.226 . S
O76 Zn74 1.932 1_655 S
O76 C86 1.307 . S
O77 Zn70 1.919 . S
O77 C88 1.253 . S
O78 Zn72 1.941 . S
O78 C88 1.283 . S
O79 Zn72 1.965 . S
O79 C87 1.303 . S
O80 Zn73 1.938 . S
O80 C87 1.247 . S
O81 Zn73 1.906 . S
O81 C89 1.304 . S
O82 Zn70 1.924 . S
O82 C90 1.311 . S
O83 Zn74 1.977 . S
O83 C89 1.272 . S
O84 Zn74 1.910 . S
O84 C90 1.231 . S
C85 O69 1.225 . S
C85 O91 1.298 . S
C86 O75 1.226 . S
C86 O76 1.307 . S
C87 O79 1.303 . S
C87 O80 1.247 . S
C88 O77 1.253 . S
C88 O78 1.283 . S
C89 O81 1.304 . S
C89 O83 1.272 . S
C90 O82 1.311 . S
C90 O84 1.231 . S
O91 Zn73 1.953 . S
O91 C85 1.298 . S
O92 Zn93 1.953 . S
O92 C108 1.225 . S
Zn93 O92 1.953 . S
Zn93 O94 1.949 . S
Zn93 O100 1.919 . S
Zn93 O105 1.924 . S
O94 Zn93 1.949 . S
O94 Zn95 1.923 . S
O94 Zn96 1.950 . S
O94 Zn97 1.945 . S
Zn95 O94 1.923 . S
Zn95 O98 1.933 1_565 S
Zn95 O101 1.941 . S
Zn95 O102 1.965 . S
Zn96 O94 1.950 . S
Zn96 O103 1.938 . S
Zn96 O104 1.906 . S
Zn96 O114 1.953 . S
Zn97 O94 1.945 . S
Zn97 O99 1.932 1_565 S
Zn97 O106 1.977 . S
Zn97 O107 1.910 . S
O98 Zn95 1.933 1_545 S
O98 C109 1.226 . S
O99 Zn97 1.932 1_545 S
O99 C109 1.307 . S
O100 Zn93 1.919 . S
O100 C111 1.253 . S
O101 Zn95 1.941 . S
O101 C111 1.283 . S
O102 Zn95 1.965 . S
O102 C110 1.303 . S
O103 Zn96 1.938 . S
O103 C110 1.247 . S
O104 Zn96 1.906 . S
O104 C112 1.304 . S
O105 Zn93 1.924 . S
O105 C113 1.311 . S
O106 Zn97 1.977 . S
O106 C112 1.272 . S
O107 Zn97 1.910 . S
O107 C113 1.231 . S
C108 O92 1.225 . S
C108 O114 1.298 . S
C109 O98 1.226 . S
C109 O99 1.307 . S
C110 O102 1.303 . S
C110 O103 1.247 . S
C111 O100 1.253 . S
C111 O101 1.283 . S
C112 O104 1.304 . S
C112 O106 1.272 . S
C113 O105 1.311 . S
C113 O107 1.231 . S
O114 Zn96 1.953 . S
O114 C108 1.298 . S
O115 Zn116 1.953 . S
O115 C131 1.225 . S
Zn116 O115 1.953 . S
Zn116 O117 1.949 . S
Zn116 O123 1.919 . S
Zn116 O128 1.924 . S
O117 Zn116 1.949 . S
O117 Zn118 1.923 . S
O117 Zn119 1.950 . S
O117 Zn120 1.945 . S
Zn118 O117 1.923 . S
Zn118 O121 1.933 . S
Zn118 O124 1.941 . S
Zn118 O125 1.965 . S
Zn119 O117 1.950 . S
Zn119 O126 1.938 . S
Zn119 O127 1.906 . S
Zn119 O137 1.953 . S
Zn120 O117 1.945 . S
Zn120 O122 1.932 . S
Zn120 O129 1.977 . S
Zn120 O130 1.910 . S
O121 Zn118 1.933 . S
O121 C132 1.226 . S
O122 Zn120 1.932 . S
O122 C132 1.307 . S
O123 Zn116 1.919 . S
O123 C134 1.253 . S
O124 Zn118 1.941 . S
O124 C134 1.283 . S
O125 Zn118 1.965 . S
O125 C133 1.303 . S
O126 Zn119 1.938 . S
O126 C133 1.247 . S
O127 Zn119 1.906 . S
O127 C135 1.304 . S
O128 Zn116 1.924 . S
O128 C136 1.311 . S
O129 Zn120 1.977 . S
O129 C135 1.272 . S
O130 Zn120 1.910 . S
O130 C136 1.231 . S
C131 O115 1.225 . S
C131 O137 1.298 . S
C132 O121 1.226 . S
C132 O122 1.307 . S
C133 O125 1.303 . S
C133 O126 1.247 . S
C134 O123 1.253 . S
C134 O124 1.283 . S
C135 O127 1.304 . S
C135 O129 1.272 . S
C136 O128 1.311 . S
C136 O130 1.231 . S
O137 Zn119 1.953 . S
O137 C131 1.298 . S
C138 C139 1.170 . S
C138 C140 1.380 1_566 S
C139 C138 1.170 . S
C140 C138 1.380 1_544 S
C140 C141 1.170 . S
C141 C140 1.170 . S
C142 C143 1.170 . S
C142 C144 1.380 . S
C143 C142 1.170 . S
C144 C142 1.380 . S
C144 C145 1.170 . S
C145 C144 1.170 . S
C146 C147 1.170 . S
C146 C148 1.380 1_654 S
C147 C146 1.170 . S
C148 C146 1.380 1_456 S
C148 C149 1.170 . S
C149 C148 1.170 . S
C150 C151 1.170 . S
C150 C152 1.380 1_545 S
C151 C150 1.170 . S
C152 C150 1.380 1_565 S
C152 C153 1.170 . S
C153 C152 1.170 . S
C154 C155 1.170 . S
C154 C156 1.380 1_556 S
C155 C154 1.170 . S
C156 C154 1.380 1_554 S
C156 C157 1.170 . S
C157 C156 1.170 . S
C158 C159 1.170 . S
C158 C160 1.380 1_655 S
C159 C158 1.170 . S
C160 C158 1.380 1_455 S
C160 C161 1.170 . S
C161 C160 1.170 . S
C162 C163 1.170 . S
C162 C164 1.380 . S
C163 C162 1.170 . S
C164 C162 1.380 . S
C164 C165 1.170 . S
C165 C164 1.170 . S
C166 C167 1.170 . S
C166 C168 1.380 . S
C167 C166 1.170 . S
C168 C166 1.380 . S
C168 C169 1.170 . S
C169 C168 1.170 . S
C170 C171 1.170 . S
C170 C172 1.380 . S
C171 C170 1.170 . S
C172 C170 1.380 . S
C172 C173 1.170 . S
C173 C172 1.170 . S
C174 C175 1.170 . S
C174 C176 1.380 . S
C175 C174 1.170 . S
C176 C174 1.380 . S
C176 C177 1.170 . S
C177 C176 1.170 . S
C178 C179 1.170 . S
C178 C180 1.380 . S
C179 C178 1.170 . S
C180 C178 1.380 . S
C180 C181 1.170 . S
C181 C180 1.170 . S
C182 C183 1.170 . S
C182 C184 1.380 . S
C183 C182 1.170 . S
C184 C182 1.380 . S
C184 C185 1.170 . S
C185 C184 1.170 . S
C186 C187 1.170 . S
C186 C188 1.380 . S
C187 C186 1.170 . S
C188 C186 1.380 . S
C188 C189 1.170 . S
C189 C188 1.170 . S
C190 C191 1.170 1_455 S
C190 C192 1.380 . S
C191 C190 1.170 1_655 S
C192 C190 1.380 . S
C192 C193 1.170 . S
C193 C192 1.170 . S
C194 C195 1.170 1_565 S
C194 C196 1.380 . S
C195 C194 1.170 1_545 S
C196 C194 1.380 . S
C196 C197 1.170 . S
C197 C196 1.170 . S
C198 C199 1.170 . S
C198 C200 1.380 . S
C199 C198 1.170 . S
C200 C198 1.380 . S
C200 C201 1.170 . S
C201 C200 1.170 . S
C202 C203 1.170 1_655 S
C202 C204 1.380 . S
C203 C202 1.170 1_455 S
C204 C202 1.380 . S
C204 C205 1.170 . S
C205 C204 1.170 . S
C206 C207 1.170 . S
C206 C208 1.380 . S
C207 C206 1.170 . S
C208 C206 1.380 . S
C208 C209 1.170 1_545 S
C209 C208 1.170 1_565 S
C139 C111 1.742 . S
C141 C19 1.742 . S
C143 C135 1.748 . S
C145 C43 1.749 . S
C147 C65 1.742 . S
C149 C88 1.742 . S
C151 C20 1.741 . S
C153 C112 1.743 . S
C155 C134 1.727 . S
C157 C42 1.726 . S
C159 C66 1.749 . S
C161 C89 1.748 . S
C163 C18 1.287 . S
C165 C62 1.318 . S
C167 C41 1.273 . S
C169 C16 1.323 . S
C171 C64 1.286 . S
C173 C39 1.318 . S
C175 C87 1.305 . S
C177 C108 1.310 . S
C179 C110 1.308 . S
C181 C131 1.309 . S
C183 C85 1.309 . S
C185 C133 1.308 . S
C187 C21 1.083 . S
C189 C63 1.048 . S
C191 C44 1.066 . S
C193 C17 0.995 . S
C195 C67 1.066 . S
C197 C40 0.995 . S
C199 C90 1.076 . S
C201 C109 1.061 . S
C203 C113 1.084 . S
C205 C132 1.043 . S
C207 C86 1.037 . S
C209 C136 1.056 . S
