# Generated by pormake.
# Topology unh, (4)-cn, num edge types: 1
# Building blocks:
#     Node 0, Type 0, BuildingBlock: ESEHIV_clean_sbu_0, # of connection points: 4
#     Node 1, Type 0, BuildingBlock: ESEHIV_clean_sbu_0, # of connection points: 4
#     Node 2, Type 0, BuildingBlock: ESEHIV_clean_sbu_0, # of connection points: 4
#     Node 3, Type 0, BuildingBlock: ESEHIV_clean_sbu_0, # of connection points: 4
#     Node 4, Type 0, BuildingBlock: ESEHIV_clean_sbu_0, # of connection points: 4
#     Node 5, Type 0, BuildingBlock: ESEHIV_clean_sbu_0, # of connection points: 4
#     Edge 6, Type (0, 0), None
#     Edge 7, Type (0, 0), None
#     Edge 8, Type (0, 0), None
#     Edge 9, Type (0, 0), None
#     Edge 10, Type (0, 0), None
#     Edge 11, Type (0, 0), None
#     Edge 12, Type (0, 0), None
#     Edge 13, Type (0, 0), None
#     Edge 14, Type (0, 0), None
#     Edge 15, Type (0, 0), None
#     Edge 16, Type (0, 0), None
#     Edge 17, Type (0, 0), None
# Relax obj value: 0.010
# Max RMSD: 0.159
# Mean RMSD: 0.159
data_MOF--net-unh--node1-ESEHIV_clean_sbu_0--edge1-none
_symmetry_space_group_name_H-M    P1
_symmetry_Int_Tables_number       1
_symmetry_cell_setting            triclinic
loop_
_symmetry_equiv_pos_as_xyz
'x, y, z'
_cell_length_a     23.184704
_cell_length_b     23.190559
_cell_length_c     11.015295
_cell_angle_alpha  89.99295
_cell_angle_beta   90.01378
_cell_angle_gamma 120.00255
loop_
_atom_site_label
_atom_site_type_symbol
_atom_site_fract_x
_atom_site_fract_y
_atom_site_fract_z
_atom_type_partial_charge
Cu0 Cu 0.23004 0.61249 0.07747 0.0
N1 N 0.16977 0.56002 0.95703 0.0
N2 N 0.08819 0.5329 0.82246 0.0
C3 C 0.13621 0.58187 0.8897 0.0
C4 C 0.09173 0.47781 0.84692 0.0
C5 C 0.1425 0.4948 0.9299 0.0
O6 O 0.17717 0.62825 0.19522 0.0
C7 C 0.28484 0.74351 0.98992 0.0
O8 O 0.22978 0.73785 0.03507 0.0
H9 H 0.14511 0.63231 0.89394 0.0
H10 H 0.15698 0.4613 0.96901 0.0
N11 N 0.27197 0.57115 0.15495 0.0
N12 N 0.34637 0.55787 0.26243 0.0
C13 C 0.33302 0.60176 0.20634 0.0
C14 C 0.24605 0.50598 0.18062 0.0
C15 C 0.29192 0.4976 0.24597 0.0
C16 C 0.12975 0.5777 0.24691 0.0
O17 O 0.12158 0.51844 0.22446 0.0
H18 H 0.36647 0.6551 0.20397 0.0
H19 H 0.19645 0.46714 0.15744 0.0
O20 O 0.29606 0.69539 0.00188 0.0
H21 H 1.05987 0.42896 0.8083 0.0
H22 H 0.2852 0.45092 0.28062 0.0
Cu23 Cu 0.67596 0.20082 0.24408 0.0
N24 N 0.6682 0.14058 0.12364 0.0
N25 N 0.61374 0.05901 0.98909 0.0
C26 C 0.61279 0.10703 0.05628 0.0
C27 C 0.67238 0.06254 0.01362 0.0
C28 C 0.70614 0.11329 0.0966 0.0
O29 O 0.60732 0.14794 0.36182 0.0
C30 C 0.59972 0.25563 0.15657 0.0
O31 O 0.5503 0.20057 0.20173 0.0
H32 H 0.57124 0.11594 0.06047 0.0
H33 H 0.75411 0.12775 0.13577 0.0
N34 N 0.75924 0.24275 0.32158 0.0
N35 N 0.8469 0.31715 0.42907 0.0
C36 C 0.78966 0.30379 0.37295 0.0
C37 C 0.79852 0.21686 0.34728 0.0
C38 C 0.85276 0.26273 0.41263 0.0
C39 C 0.61047 0.10054 0.41353 0.0
O40 O 0.66159 0.09239 0.39112 0.0
H41 H 0.76973 0.33721 0.37056 0.0
H42 H 0.78779 0.16728 0.32411 0.0
O43 O 0.65905 0.26682 0.16849 0.0
H44 H 0.68937 1.03068 0.97506 0.0
H45 H 0.89275 0.25604 0.4473 0.0
Cu46 Cu 0.53363 0.64686 0.41085 0.0
N47 N 0.58612 0.63906 0.29046 0.0
N48 N 0.61321 0.58458 0.15597 0.0
C49 C 0.56423 0.58366 0.22313 0.0
C50 C 0.66834 0.64318 0.18049 0.0
C51 C 0.65136 0.67696 0.26344 0.0
O52 O 0.51783 0.57825 0.52865 0.0
C53 C 0.40257 0.57063 0.3233 0.0
O54 O 0.40824 0.52124 0.36851 0.0
H55 H 0.51376 0.54214 0.2273 0.0
H56 H 0.68489 0.72491 0.30259 0.0
N57 N 0.57498 0.73012 0.4883 0.0
N58 N 0.58824 0.81776 0.59577 0.0
C59 C 0.54436 0.76054 0.53967 0.0
C60 C 0.64016 0.76939 0.514 0.0
C61 C 0.64853 0.82361 0.57934 0.0
C62 C 0.56839 0.58137 0.58038 0.0
O63 O 0.62767 0.63244 0.55794 0.0
H64 H 0.491 0.74062 0.53728 0.0
H65 H 0.67901 0.75865 0.49085 0.0
O66 O 0.45071 0.62996 0.33521 0.0
H67 H 0.7172 0.66015 0.14195 0.0
H68 H 0.69522 0.86359 0.614 0.0
Cu69 Cu 0.94512 0.50437 0.57738 0.0
N70 N 1.00539 0.55685 0.45695 0.0
N71 N 1.08699 0.58397 0.32247 0.0
C72 C 1.03898 0.535 0.38972 0.0
C73 C 1.08341 0.63905 0.34682 0.0
C74 C 1.03263 0.62205 0.42975 0.0
O75 O 0.99799 0.48862 0.69517 0.0
C76 C 0.89033 0.37335 0.48992 0.0
O77 O 0.94541 0.37904 0.53512 0.0
H78 H 1.03011 0.48457 0.39403 0.0
H79 H 1.01812 0.65554 0.46877 0.0
N80 N 0.90321 0.54572 0.65484 0.0
N81 N 0.82887 0.55901 0.76242 0.0
C82 C 0.84219 0.51512 0.70632 0.0
C83 C 0.92913 0.61089 0.68046 0.0
C84 C 0.8833 0.61928 0.74587 0.0
C85 C 1.04544 0.53917 0.74683 0.0
O86 O 1.05363 0.59844 0.72432 0.0
H87 H 0.80875 0.46177 0.70401 0.0
H88 H 0.97872 0.64973 0.65721 0.0
O89 O 0.87911 0.42146 0.5018 0.0
H90 H 0.11524 0.68789 0.30816 0.0
H91 H 0.89003 0.66596 0.7805 0.0
Cu92 Cu 0.49921 0.91596 0.74407 0.0
N93 N 0.50698 0.9762 0.62361 0.0
N94 N 0.56144 1.05778 0.48911 0.0
C95 C 0.56242 1.00979 0.55638 0.0
C96 C 0.50276 1.05419 0.51344 0.0
C97 C 0.46899 1.00342 0.59639 0.0
O98 O 0.56784 0.96883 0.86186 0.0
C99 C 0.57547 0.86118 0.65662 0.0
O100 O 0.62487 0.91624 0.70181 0.0
H101 H 0.604 1.00094 0.56072 0.0
H102 H 0.42098 0.9889 0.6354 0.0
N103 N 0.41593 0.87404 0.82151 0.0
N104 N 0.32827 0.79968 0.92902 0.0
C105 C 0.38551 0.81302 0.87295 0.0
C106 C 0.37667 0.89995 0.84713 0.0
C107 C 0.32243 0.85411 0.9125 0.0
C108 C 0.56472 1.01627 0.91346 0.0
O109 O 0.51364 1.02446 0.89089 0.0
H110 H 0.40543 0.77959 0.87063 0.0
H111 H 0.38741 0.94953 0.8239 0.0
O112 O 0.51612 0.84996 0.66852 0.0
H113 H 0.48573 0.086 0.47475 0.0
H114 H 0.28245 0.86082 0.94711 0.0
Cu115 Cu 0.64167 0.47005 0.91094 0.0
N116 N 0.58919 0.47786 0.79051 0.0
N117 N 0.56209 0.53234 0.65599 0.0
C118 C 0.61106 0.53328 0.72325 0.0
C119 C 0.50698 0.4737 0.68037 0.0
C120 C 0.52396 0.43992 0.76333 0.0
O121 O 0.65746 0.53865 0.02875 0.0
C122 C 0.7727 0.54625 0.82336 0.0
O123 O 0.76705 0.59565 0.86855 0.0
H124 H 0.66152 0.57483 0.72754 0.0
H125 H 0.49045 0.39193 0.80238 0.0
N126 N 0.60028 0.38677 0.98835 0.0
N127 N 0.58697 0.29908 0.09575 0.0
C128 C 0.63088 0.35631 0.0397 0.0
C129 C 0.5351 0.34753 0.01401 0.0
C130 C 0.5267 0.29328 0.0793 0.0
C131 C 0.60691 0.53556 0.08035 0.0
O132 O 0.54761 0.48452 0.05778 0.0
H133 H 0.68423 0.3762 0.03733 0.0
H134 H 0.49627 0.35831 0.99085 0.0
O135 O 0.72457 0.48692 0.83533 0.0
H136 H 0.45812 0.45671 0.6417 0.0
H137 H 0.48 0.25331 0.11392 0.0
loop_
_geom_bond_atom_site_label_1
_geom_bond_atom_site_label_2
_geom_bond_distance
_geom_bond_site_symmetry_2
_ccdc_geom_bond_type
Cu0 N1 1.999 1_554 S
Cu0 O6 1.974 . S
Cu0 N11 1.985 . S
Cu0 O20 1.959 1_554 S
N1 Cu0 1.999 1_556 S
N1 C3 1.263 . S
N1 C5 1.389 . S
N2 C3 1.358 . S
N2 C4 1.400 . S
C3 N1 1.263 . S
C3 N2 1.358 . S
C3 H9 0.930 1_556 S
C4 N2 1.400 . S
C4 C5 1.351 . S
C4 H21 0.930 . S
C5 N1 1.389 . S
C5 C4 1.351 . S
C5 H10 0.930 . S
O6 Cu0 1.974 . S
O6 C16 1.282 . S
C7 O8 1.261 1_556 S
C7 O20 1.251 . S
O8 C7 1.261 1_554 S
H9 C3 0.930 1_554 S
H10 C5 0.930 . S
N11 Cu0 1.985 . S
N11 C13 1.335 . S
N11 C14 1.390 . S
N12 C13 1.345 . S
N12 C15 1.336 . S
C13 N11 1.335 . S
C13 N12 1.345 . S
C13 H18 0.930 . S
C14 N11 1.390 . S
C14 C15 1.346 . S
C14 H19 0.930 . S
C15 N12 1.336 . S
C15 C14 1.346 . S
C15 H22 0.929 . S
C16 O6 1.282 . S
C16 O17 1.216 . S
O17 C16 1.216 . S
H18 C13 0.930 . S
H19 C14 0.930 . S
O20 Cu0 1.959 1_556 S
O20 C7 1.251 . S
H21 C4 0.930 . S
H22 C15 0.929 . S
Cu23 N24 1.999 . S
Cu23 O29 1.974 . S
Cu23 N34 1.985 . S
Cu23 O43 1.959 . S
N24 Cu23 1.999 . S
N24 C26 1.263 . S
N24 C28 1.389 1_554 S
N25 C26 1.353 1_556 S
N25 C27 1.405 . S
C26 N24 1.263 . S
C26 N25 1.353 1_554 S
C26 H32 0.930 . S
C27 N25 1.405 . S
C27 C28 1.351 . S
C27 H44 0.930 . S
C28 N24 1.389 1_556 S
C28 C27 1.351 . S
C28 H33 0.930 . S
O29 Cu23 1.974 . S
O29 C39 1.282 . S
C30 O31 1.261 . S
C30 O43 1.251 . S
O31 C30 1.261 . S
H32 C26 0.930 . S
H33 C28 0.930 . S
N34 Cu23 1.985 . S
N34 C36 1.335 . S
N34 C37 1.390 . S
N35 C36 1.345 . S
N35 C38 1.336 . S
C36 N34 1.335 . S
C36 N35 1.345 . S
C36 H41 0.930 . S
C37 N34 1.390 . S
C37 C38 1.346 . S
C37 H42 0.930 . S
C38 N35 1.336 . S
C38 C37 1.346 . S
C38 H45 0.929 . S
C39 O29 1.282 . S
C39 O40 1.216 . S
O40 C39 1.216 . S
H41 C36 0.930 . S
H42 C37 0.930 . S
O43 Cu23 1.959 . S
O43 C30 1.251 . S
H44 C27 0.930 . S
H45 C38 0.929 . S
Cu46 N47 1.999 . S
Cu46 O52 1.974 . S
Cu46 N57 1.985 . S
Cu46 O66 1.959 . S
N47 Cu46 1.999 . S
N47 C49 1.263 . S
N47 C51 1.389 . S
N48 C49 1.358 . S
N48 C50 1.400 . S
C49 N47 1.263 . S
C49 N48 1.358 . S
C49 H55 0.930 . S
C50 N48 1.400 . S
C50 C51 1.351 . S
C50 H67 0.930 1_554 S
C51 N47 1.389 . S
C51 C50 1.351 . S
C51 H56 0.930 . S
O52 Cu46 1.974 . S
O52 C62 1.282 . S
C53 O54 1.261 . S
C53 O66 1.251 . S
O54 C53 1.261 . S
H55 C49 0.930 . S
H56 C51 0.930 . S
N57 Cu46 1.985 . S
N57 C59 1.335 . S
N57 C60 1.390 . S
N58 C59 1.345 . S
N58 C61 1.336 . S
C59 N57 1.335 . S
C59 N58 1.345 . S
C59 H64 0.930 . S
C60 N57 1.390 . S
C60 C61 1.346 . S
C60 H65 0.930 . S
C61 N58 1.336 . S
C61 C60 1.346 . S
C61 H68 0.929 . S
C62 O52 1.282 . S
C62 O63 1.216 . S
O63 C62 1.216 . S
H64 C59 0.930 . S
H65 C60 0.930 . S
O66 Cu46 1.959 . S
O66 C53 1.251 . S
H67 C50 0.930 1_556 S
H68 C61 0.929 . S
Cu69 N70 1.999 . S
Cu69 O75 1.974 . S
Cu69 N80 1.985 . S
Cu69 O89 1.959 . S
N70 Cu69 1.999 . S
N70 C72 1.263 . S
N70 C74 1.389 . S
N71 C72 1.358 . S
N71 C73 1.400 . S
C72 N70 1.263 . S
C72 N71 1.358 . S
C72 H78 0.930 . S
C73 N71 1.400 . S
C73 C74 1.351 . S
C73 H90 0.930 . S
C74 N70 1.389 . S
C74 C73 1.351 . S
C74 H79 0.930 . S
O75 Cu69 1.974 . S
O75 C85 1.282 . S
C76 O77 1.261 . S
C76 O89 1.251 . S
O77 C76 1.261 . S
H78 C72 0.930 . S
H79 C74 0.930 . S
N80 Cu69 1.985 . S
N80 C82 1.335 . S
N80 C83 1.390 . S
N81 C82 1.345 . S
N81 C84 1.336 . S
C82 N80 1.335 . S
C82 N81 1.345 . S
C82 H87 0.930 . S
C83 N80 1.390 . S
C83 C84 1.346 . S
C83 H88 0.930 . S
C84 N81 1.336 . S
C84 C83 1.346 . S
C84 H91 0.929 . S
C85 O75 1.282 . S
C85 O86 1.216 . S
O86 C85 1.216 . S
H87 C82 0.930 . S
H88 C83 0.930 . S
O89 Cu69 1.959 . S
O89 C76 1.251 . S
H90 C73 0.930 . S
H91 C84 0.929 . S
Cu92 N93 1.999 . S
Cu92 O98 1.974 . S
Cu92 N103 1.985 . S
Cu92 O112 1.959 . S
N93 Cu92 1.999 . S
N93 C95 1.263 . S
N93 C97 1.389 . S
N94 C95 1.358 . S
N94 C96 1.400 . S
C95 N93 1.263 . S
C95 N94 1.358 . S
C95 H101 0.930 . S
C96 N94 1.400 . S
C96 C97 1.351 . S
C96 H113 0.930 . S
C97 N93 1.389 . S
C97 C96 1.351 . S
C97 H102 0.930 . S
O98 Cu92 1.974 . S
O98 C108 1.282 . S
C99 O100 1.261 . S
C99 O112 1.251 . S
O100 C99 1.261 . S
H101 C95 0.930 . S
H102 C97 0.930 . S
N103 Cu92 1.985 . S
N103 C105 1.335 . S
N103 C106 1.390 . S
N104 C105 1.345 . S
N104 C107 1.336 1_556 S
C105 N103 1.335 . S
C105 N104 1.345 . S
C105 H110 0.930 . S
C106 N103 1.390 . S
C106 C107 1.346 1_556 S
C106 H111 0.930 1_556 S
C107 N104 1.336 1_554 S
C107 C106 1.346 1_554 S
C107 H114 0.929 . S
C108 O98 1.282 . S
C108 O109 1.216 . S
O109 C108 1.216 . S
H110 C105 0.930 . S
H111 C106 0.930 1_554 S
O112 Cu92 1.959 . S
O112 C99 1.251 . S
H113 C96 0.930 . S
H114 C107 0.929 . S
Cu115 N116 1.999 . S
Cu115 O121 1.974 1_556 S
Cu115 N126 1.985 1_556 S
Cu115 O135 1.959 . S
N116 Cu115 1.999 . S
N116 C118 1.263 . S
N116 C120 1.389 . S
N117 C118 1.358 . S
N117 C119 1.400 . S
C118 N116 1.263 . S
C118 N117 1.358 . S
C118 H124 0.930 . S
C119 N117 1.400 . S
C119 C120 1.351 . S
C119 H136 0.930 . S
C120 N116 1.389 . S
C120 C119 1.351 . S
C120 H125 0.930 . S
O121 Cu115 1.974 1_554 S
O121 C131 1.282 . S
C122 O123 1.261 . S
C122 O135 1.251 . S
O123 C122 1.261 . S
H124 C118 0.930 . S
H125 C120 0.930 . S
N126 Cu115 1.985 1_554 S
N126 C128 1.335 . S
N126 C129 1.390 . S
N127 C128 1.345 . S
N127 C130 1.336 . S
C128 N126 1.335 . S
C128 N127 1.345 . S
C128 H133 0.930 1_554 S
C129 N126 1.390 . S
C129 C130 1.346 . S
C129 H134 0.930 . S
C130 N127 1.336 . S
C130 C129 1.346 . S
C130 H137 0.929 . S
C131 O121 1.282 . S
C131 O132 1.216 . S
O132 C131 1.216 . S
H133 C128 0.930 1_556 S
H134 C129 0.930 . S
O135 Cu115 1.959 . S
O135 C122 1.251 . S
H136 C119 0.930 . S
H137 C130 0.929 . S
N2 C85 1.576 1_455 S
C108 N25 1.580 1_565 S
N48 C131 1.575 . S
N71 C16 1.576 1_655 S
C39 N94 1.576 1_545 S
N117 C62 1.575 . S
N12 C53 1.861 . S
N35 C76 1.861 . S
C99 N58 1.861 . S
C122 N81 1.861 . S
N104 C7 1.861 . S
N127 C30 1.861 . S
