# Generated by pormake.
# Topology sma, (6)-cn, num edge types: 1
# Building blocks:
#     Node 0, Type 0, BuildingBlock: CUWYAW_clean_sbu_0, # of connection points: 6
#     Node 1, Type 0, BuildingBlock: CUWYAW_clean_sbu_0, # of connection points: 6
#     Node 2, Type 0, BuildingBlock: CUWYAW_clean_sbu_0, # of connection points: 6
#     Edge 3, Type (0, 0), None
#     Edge 4, Type (0, 0), None
#     Edge 5, Type (0, 0), None
#     Edge 6, Type (0, 0), None
#     Edge 7, Type (0, 0), None
#     Edge 8, Type (0, 0), None
#     Edge 9, Type (0, 0), None
#     Edge 10, Type (0, 0), None
#     Edge 11, Type (0, 0), None
# Relax obj value: 0.028
# Max RMSD: 0.133
# Mean RMSD: 0.133
data_MOF--net-sma--node1-CUWYAW_clean_sbu_0--edge1-none
_symmetry_space_group_name_H-M    P1
_symmetry_Int_Tables_number       1
_symmetry_cell_setting            triclinic
loop_
_symmetry_equiv_pos_as_xyz
'x, y, z'
_cell_length_a     24.233855
_cell_length_b     24.233906
_cell_length_c     5.9974329
_cell_angle_alpha  89.998881
_cell_angle_beta   90.002911
_cell_angle_gamma 120.00127
loop_
_atom_site_label
_atom_site_type_symbol
_atom_site_fract_x
_atom_site_fract_y
_atom_site_fract_z
_atom_type_partial_charge
C0 C 0.91974 0.33711 -0.00253 0.0
Eu1 Eu 1.00408 0.45698 0.05161 0.0
C2 C 0.85715 0.28929 0.08791 0.0
C3 C 0.84943 0.23157 0.16884 0.0
C4 C 0.7904 0.18425 0.24869 0.0
C5 C 0.73754 0.19348 0.24814 0.0
C6 C 0.74568 0.25203 0.17156 0.0
C7 C 0.80499 0.29958 0.09252 0.0
C8 C 1.03639 0.51519 0.45133 0.0
C9 C 0.94435 0.55048 -0.02199 0.0
C10 C 0.17095 0.72057 0.15943 0.0
Eu11 Eu 0.09368 0.60326 0.04104 0.0
C12 C 0.23653 0.77164 0.20431 0.0
C13 C 0.2517 0.83425 0.15868 0.0
C14 C 0.31168 0.8851 0.21096 0.0
C15 C 0.35833 0.87461 0.30957 0.0
C16 C 0.34325 0.81153 0.35477 0.0
C17 C 0.28255 0.76029 0.30309 0.0
C18 C 0.05728 0.54667 0.64029 0.0
C19 C 0.15517 0.51036 0.01944 0.0
O20 O 0.92225 0.38272 0.87268 0.0
O21 O 0.9681 0.35719 0.13394 0.0
O22 O 1.02687 0.45844 0.41907 0.0
O23 O 1.02374 0.53634 0.28057 0.0
O24 O 0.93659 0.49264 0.95574 0.0
O25 O 0.99907 0.59961 0.04307 0.0
O26 O 0.14459 0.67304 0.30074 0.0
O27 O 0.15428 0.70347 0.95184 0.0
O28 O 0.06901 0.60449 0.6753 0.0
O29 O 0.07072 0.52453 0.80687 0.0
O30 O 0.16435 0.56703 0.08046 0.0
O31 O 0.09768 0.4634 -0.0349 0.0
H32 H 0.88904 0.22268 0.1675 0.0
H33 H 0.78602 0.13984 0.30592 0.0
H34 H 0.70603 0.2608 0.16872 0.0
H35 H 0.80972 0.34392 0.03265 0.0
H36 H 0.21668 0.84398 0.08422 0.0
H37 H 0.32137 0.93279 0.17222 0.0
H38 H 0.37815 0.80179 0.42968 0.0
H39 H 0.27153 0.71213 0.34101 0.0
C40 C 0.48487 0.16521 0.33085 0.0
Eu41 Eu 0.52039 0.08087 0.38502 0.0
C42 C 0.49963 0.2278 0.42128 0.0
C43 C 0.44963 0.23552 0.5022 0.0
C44 C 0.46134 0.29455 0.58202 0.0
C45 C 0.52343 0.34741 0.58146 0.0
C46 C 0.57384 0.33927 0.5049 0.0
C47 C 0.56208 0.27996 0.42588 0.0
C48 C 0.5463 0.04856 0.78474 0.0
C49 C 0.67362 0.1406 0.31146 0.0
C50 C 0.61711 0.91401 0.49286 0.0
Eu51 Eu 0.57707 0.99127 0.37446 0.0
C52 C 0.6026 0.84842 0.5377 0.0
C53 C 0.65004 0.83325 0.49207 0.0
C54 C 0.64092 0.77328 0.54433 0.0
C55 C 0.58376 0.72662 0.64292 0.0
C56 C 0.53578 0.74171 0.68813 0.0
C57 C 0.54523 0.8024 0.63646 0.0
C58 C 0.55689 1.02768 -0.02629 0.0
C59 C 0.42269 0.92978 0.35284 0.0
O60 O 0.52796 0.1627 0.20608 0.0
O61 O 0.45659 0.11686 0.46733 0.0
O62 O 0.49906 0.05808 0.75247 0.0
O63 O 0.5801 0.06121 0.61399 0.0
O64 O 0.62355 0.14836 0.28916 0.0
O65 O 0.66804 0.08589 0.3765 0.0
O66 O 0.59594 0.94036 0.63416 0.0
O67 O 0.6167 0.93068 0.28527 0.0
O68 O 0.60298 1.01594 0.00872 0.0
O69 O 0.52131 1.01423 0.14027 0.0
O70 O 0.47019 0.92061 0.41384 0.0
O71 O 0.43321 0.98727 0.29849 0.0
H72 H 0.40114 0.19591 0.50086 0.0
H73 H 0.42131 0.29893 0.63924 0.0
H74 H 0.62227 0.37893 0.50205 0.0
H75 H 0.6017 0.27523 0.36602 0.0
H76 H 0.69479 0.86827 0.41762 0.0
H77 H 0.67891 0.76359 0.50559 0.0
H78 H 0.49112 0.7068 0.76302 0.0
H79 H 0.50809 0.81342 0.67439 0.0
C80 C 0.74783 0.60009 0.6642 0.0
Eu81 Eu 0.62797 0.56456 0.71835 0.0
C82 C 0.79566 0.58532 0.7546 0.0
C83 C 0.85338 0.63532 0.83554 0.0
C84 C 0.90071 0.62361 0.91534 0.0
C85 C 0.89147 0.56152 0.91472 0.0
C86 C 0.83292 0.51111 0.83814 0.0
C87 C 0.78536 0.52287 0.75916 0.0
C88 C 0.56975 0.53866 0.11805 0.0
C89 C 0.53447 0.41133 0.64477 0.0
C90 C 0.36438 0.46783 0.82612 0.0
Eu91 Eu 0.48168 0.50788 0.70775 0.0
C92 C 0.31331 0.48234 0.87099 0.0
C93 C 0.2507 0.4349 0.82539 0.0
C94 C 0.19984 0.44402 0.87766 0.0
C95 C 0.21034 0.50118 -0.0238 0.0
C96 C 0.27342 0.54917 0.02139 0.0
C97 C 0.32466 0.53972 -0.03028 0.0
C98 C 0.53827 0.52806 0.30701 0.0
C99 C 0.57458 0.66226 0.68617 0.0
O100 O 0.70223 0.55701 0.53939 0.0
O101 O 0.72776 0.62836 0.80071 0.0
O102 O 0.6265 0.58589 0.0858 0.0
O103 O 0.5486 0.50486 0.94729 0.0
O104 O 0.59231 0.46141 0.6225 0.0
O105 O 0.48534 0.41692 0.70977 0.0
O106 O 0.4119 0.48899 -0.03257 0.0
O107 O 0.38147 0.46825 0.61853 0.0
O108 O 0.48045 0.48197 0.34201 0.0
O109 O 0.56041 0.56364 0.47359 0.0
O110 O 0.51791 0.61476 0.74715 0.0
O111 O 0.62154 0.65174 0.63183 0.0
H112 H 0.86227 0.68382 0.83424 0.0
H113 H 0.94512 0.66363 -0.02743 0.0
H114 H 0.82415 0.46268 0.83527 0.0
H115 H 0.74102 0.48326 0.69928 0.0
H116 H 0.24096 0.39014 0.75097 0.0
H117 H 0.15216 0.40602 0.83894 0.0
H118 H 0.28317 0.59383 0.09626 0.0
H119 H 0.37282 0.57686 0.00763 0.0
loop_
_geom_bond_atom_site_label_1
_geom_bond_atom_site_label_2
_geom_bond_distance
_geom_bond_site_symmetry_2
_ccdc_geom_bond_type
C0 Eu1 2.835 . S
C0 C2 1.500 . S
C0 O20 1.257 1_554 S
C0 O21 1.260 . S
Eu1 C0 2.835 . S
Eu1 O20 2.473 1_554 S
Eu1 O21 2.480 . S
Eu1 O22 2.430 . S
Eu1 O23 2.670 1_655 S
Eu1 O24 2.394 . S
Eu1 O29 2.355 1_554 S
Eu1 O31 2.374 1_655 S
C2 C0 1.500 . S
C2 C3 1.377 . S
C2 C7 1.377 1_554 S
C3 C2 1.377 . S
C3 C4 1.395 . S
C3 H32 0.931 . S
C4 C3 1.395 . S
C4 C5 1.383 . S
C4 H33 0.931 . S
C5 C4 1.383 . S
C5 C6 1.394 1_554 S
C6 C5 1.394 1_556 S
C6 C7 1.378 . S
C6 H34 0.931 . S
C7 C2 1.377 1_556 S
C7 C6 1.378 . S
C7 H35 0.931 . S
C8 O22 1.259 1_455 S
C8 O23 1.272 . S
C9 O24 1.251 . S
C9 O25 1.251 . S
C10 Eu11 2.835 . S
C10 C12 1.500 . S
C10 O26 1.257 . S
C10 O27 1.260 1_554 S
Eu11 C10 2.835 . S
Eu11 O23 2.355 . S
Eu11 O25 2.374 1_455 S
Eu11 O26 2.473 . S
Eu11 O27 2.480 1_554 S
Eu11 O28 2.430 1_554 S
Eu11 O29 2.670 1_454 S
Eu11 O30 2.394 . S
C12 C10 1.500 . S
C12 C13 1.377 . S
C12 C17 1.377 . S
C13 C12 1.377 . S
C13 C14 1.395 . S
C13 H36 0.931 1_554 S
C14 C13 1.395 . S
C14 C15 1.383 . S
C14 H37 0.931 1_554 S
C15 C14 1.383 . S
C15 C16 1.394 . S
C16 C15 1.394 . S
C16 C17 1.378 . S
C16 H38 0.931 . S
C17 C12 1.377 . S
C17 C16 1.378 . S
C17 H39 0.931 . S
C18 O28 1.259 . S
C18 O29 1.270 1_455 S
C19 O30 1.251 . S
C19 O31 1.251 . S
O20 C0 1.257 1_556 S
O20 Eu1 2.473 1_556 S
O21 C0 1.260 . S
O21 Eu1 2.480 . S
O22 Eu1 2.430 . S
O22 C8 1.259 1_655 S
O23 Eu1 2.670 1_455 S
O23 C8 1.272 . S
O23 Eu11 2.355 . S
O24 Eu1 2.394 . S
O24 C9 1.251 . S
O25 C9 1.251 . S
O25 Eu11 2.374 1_655 S
O26 C10 1.257 . S
O26 Eu11 2.473 . S
O27 C10 1.260 1_556 S
O27 Eu11 2.480 1_556 S
O28 Eu11 2.430 1_556 S
O28 C18 1.259 . S
O29 Eu1 2.355 1_556 S
O29 Eu11 2.670 1_656 S
O29 C18 1.270 1_655 S
O30 Eu11 2.394 . S
O30 C19 1.251 . S
O31 Eu1 2.374 1_455 S
O31 C19 1.251 . S
H32 C3 0.931 . S
H33 C4 0.931 . S
H34 C6 0.931 . S
H35 C7 0.931 . S
H36 C13 0.931 1_556 S
H37 C14 0.931 1_556 S
H38 C16 0.931 . S
H39 C17 0.931 . S
C40 Eu41 2.835 . S
C40 C42 1.500 . S
C40 O60 1.257 . S
C40 O61 1.260 . S
Eu41 C40 2.835 . S
Eu41 O60 2.473 . S
Eu41 O61 2.480 . S
Eu41 O62 2.430 . S
Eu41 O63 2.670 1_545 S
Eu41 O64 2.394 . S
Eu41 O69 2.355 . S
Eu41 O71 2.374 1_545 S
C42 C40 1.500 . S
C42 C43 1.377 . S
C42 C47 1.377 . S
C43 C42 1.377 . S
C43 C44 1.395 . S
C43 H72 0.931 . S
C44 C43 1.395 . S
C44 C45 1.383 . S
C44 H73 0.931 . S
C45 C44 1.383 . S
C45 C46 1.394 . S
C46 C45 1.394 . S
C46 C47 1.378 . S
C46 H74 0.931 . S
C47 C42 1.377 . S
C47 C46 1.378 . S
C47 H75 0.931 . S
C48 O62 1.259 . S
C48 O63 1.270 1_545 S
C49 O64 1.251 . S
C49 O65 1.251 . S
C50 Eu51 2.835 . S
C50 C52 1.500 . S
C50 O66 1.257 . S
C50 O67 1.260 . S
Eu51 C50 2.835 . S
Eu51 O63 2.355 . S
Eu51 O65 2.374 1_565 S
Eu51 O66 2.473 . S
Eu51 O67 2.480 . S
Eu51 O68 2.430 . S
Eu51 O69 2.670 1_565 S
Eu51 O70 2.394 . S
C52 C50 1.500 . S
C52 C53 1.377 . S
C52 C57 1.377 . S
C53 C52 1.377 . S
C53 C54 1.395 . S
C53 H76 0.931 . S
C54 C53 1.395 . S
C54 C55 1.383 . S
C54 H77 0.931 . S
C55 C54 1.383 . S
C55 C56 1.394 . S
C56 C55 1.394 . S
C56 C57 1.378 . S
C56 H78 0.931 . S
C57 C52 1.377 . S
C57 C56 1.378 . S
C57 H79 0.931 . S
C58 O68 1.253 1_545 S
C58 O69 1.273 . S
C59 O70 1.251 . S
C59 O71 1.251 . S
O60 C40 1.257 . S
O60 Eu41 2.473 . S
O61 C40 1.260 . S
O61 Eu41 2.480 . S
O62 Eu41 2.430 . S
O62 C48 1.259 . S
O63 Eu41 2.670 1_565 S
O63 C48 1.270 1_565 S
O63 Eu51 2.355 . S
O64 Eu41 2.394 . S
O64 C49 1.251 . S
O65 C49 1.251 . S
O65 Eu51 2.374 1_545 S
O66 C50 1.257 . S
O66 Eu51 2.473 . S
O67 C50 1.260 . S
O67 Eu51 2.480 . S
O68 Eu51 2.430 . S
O68 C58 1.253 1_565 S
O69 Eu41 2.355 . S
O69 Eu51 2.670 1_545 S
O69 C58 1.273 . S
O70 Eu51 2.394 . S
O70 C59 1.251 . S
O71 Eu41 2.374 1_565 S
O71 C59 1.251 . S
H72 C43 0.931 . S
H73 C44 0.931 . S
H74 C46 0.931 . S
H75 C47 0.931 . S
H76 C53 0.931 . S
H77 C54 0.931 . S
H78 C56 0.931 . S
H79 C57 0.931 . S
C80 Eu81 2.835 . S
C80 C82 1.500 . S
C80 O100 1.257 . S
C80 O101 1.260 1_556 S
Eu81 C80 2.835 . S
Eu81 O100 2.473 . S
Eu81 O101 2.480 1_556 S
Eu81 O102 2.430 1_556 S
Eu81 O103 2.670 1_556 S
Eu81 O104 2.394 . S
Eu81 O109 2.355 . S
Eu81 O111 2.374 . S
C82 C80 1.500 . S
C82 C83 1.377 . S
C82 C87 1.377 . S
C83 C82 1.377 . S
C83 C84 1.395 . S
C83 H112 0.931 1_556 S
C84 C83 1.395 . S
C84 C85 1.383 . S
C84 H113 0.931 1_556 S
C85 C84 1.383 . S
C85 C86 1.394 . S
C86 C85 1.394 . S
C86 C87 1.378 . S
C86 H114 0.931 . S
C87 C82 1.377 . S
C87 C86 1.378 . S
C87 H115 0.931 . S
C88 O102 1.259 . S
C88 O103 1.270 . S
C89 O104 1.251 . S
C89 O105 1.251 . S
C90 Eu91 2.835 . S
C90 C92 1.500 . S
C90 O106 1.257 1_556 S
C90 O107 1.260 . S
Eu91 C90 2.835 . S
Eu91 O103 2.355 1_556 S
Eu91 O105 2.374 . S
Eu91 O106 2.473 1_556 S
Eu91 O107 2.480 . S
Eu91 O108 2.430 . S
Eu91 O109 2.670 . S
Eu91 O110 2.394 . S
C92 C90 1.500 . S
C92 C93 1.377 . S
C92 C97 1.377 1_556 S
C93 C92 1.377 . S
C93 C94 1.395 . S
C93 H116 0.931 . S
C94 C93 1.395 . S
C94 C95 1.383 . S
C94 H117 0.931 . S
C95 C94 1.383 . S
C95 C96 1.394 1_556 S
C96 C95 1.394 1_554 S
C96 C97 1.378 . S
C96 H118 0.931 . S
C97 C92 1.377 1_554 S
C97 C96 1.378 . S
C97 H119 0.931 . S
C98 O108 1.259 . S
C98 O109 1.270 . S
C99 O110 1.251 . S
C99 O111 1.251 . S
O100 C80 1.257 . S
O100 Eu81 2.473 . S
O101 C80 1.260 1_554 S
O101 Eu81 2.480 1_554 S
O102 Eu81 2.430 1_554 S
O102 C88 1.259 . S
O103 Eu81 2.670 1_554 S
O103 C88 1.270 . S
O103 Eu91 2.355 1_554 S
O104 Eu81 2.394 . S
O104 C89 1.251 . S
O105 C89 1.251 . S
O105 Eu91 2.374 . S
O106 C90 1.257 1_554 S
O106 Eu91 2.473 1_554 S
O107 C90 1.260 . S
O107 Eu91 2.480 . S
O108 Eu91 2.430 . S
O108 C98 1.259 . S
O109 Eu81 2.355 . S
O109 Eu91 2.670 . S
O109 C98 1.270 . S
O110 Eu91 2.394 . S
O110 C99 1.251 . S
O111 Eu81 2.374 . S
O111 C99 1.251 . S
H112 C83 0.931 1_554 S
H113 C84 0.931 1_554 S
H114 C86 0.931 . S
H115 C87 0.931 . S
H116 C93 0.931 . S
H117 C94 0.931 . S
H118 C96 0.931 . S
H119 C97 0.931 . S
C19 C95 1.863 1_554 S
C49 C5 3.150 . S
C55 C99 1.864 . S
C85 C9 3.150 1_556 S
C59 C15 1.863 . S
C89 C45 3.150 . S
C18 C8 0.580 . S
C58 C48 0.586 1_554 S
C98 C88 0.583 . S
