# Generated by pormake.
# Topology sma, (6)-cn, num edge types: 1
# Building blocks:
#     Node 0, Type 0, BuildingBlock: VOLQOD_clean_sbu_1, # of connection points: 6
#     Node 1, Type 0, BuildingBlock: VOLQOD_clean_sbu_1, # of connection points: 6
#     Node 2, Type 0, BuildingBlock: VOLQOD_clean_sbu_1, # of connection points: 6
#     Edge 3, Type (0, 0), None
#     Edge 4, Type (0, 0), None
#     Edge 5, Type (0, 0), None
#     Edge 6, Type (0, 0), None
#     Edge 7, Type (0, 0), None
#     Edge 8, Type (0, 0), None
#     Edge 9, Type (0, 0), None
#     Edge 10, Type (0, 0), None
#     Edge 11, Type (0, 0), None
# Relax obj value: 0.284
# Max RMSD: 0.236
# Mean RMSD: 0.236
data_MOF--net-sma--node1-VOLQOD_clean_sbu_1--edge1-none
_symmetry_space_group_name_H-M    P1
_symmetry_Int_Tables_number       1
_symmetry_cell_setting            triclinic
loop_
_symmetry_equiv_pos_as_xyz
'x, y, z'
_cell_length_a     15.807346
_cell_length_b     15.807199
_cell_length_c     8.3720812
_cell_angle_alpha  90.085971
_cell_angle_beta   89.96351
_cell_angle_gamma 119.99936
loop_
_atom_site_label
_atom_site_type_symbol
_atom_site_fract_x
_atom_site_fract_y
_atom_site_fract_z
_atom_type_partial_charge
O0 O 0.05386 0.57712 0.8072 0.0
Zn1 Zn 0.02559 0.61278 0.02208 0.0
O2 O -0.00654 0.49825 0.14187 0.0
Zn3 Zn 0.09278 0.51585 0.27706 0.0
Zn4 Zn 0.96143 0.38369 0.0217 0.0
Zn5 Zn 0.89404 0.48065 0.27702 0.0
O6 O 0.03467 0.45784 0.48822 0.0
O7 O 0.95198 0.53852 0.48854 0.0
O8 O 0.13197 0.73558 0.15023 0.0
O9 O 0.16736 0.65482 0.33071 0.0
O10 O 0.18079 0.47969 0.15561 0.0
O11 O 0.08478 0.37925 0.96603 0.0
O12 O 0.85536 0.26089 0.14992 0.0
O13 O 0.90235 0.61743 0.96674 0.0
O14 O 0.81954 0.34169 0.3302 0.0
O15 O 0.80614 0.51688 0.15572 0.0
C16 C -0.0067 0.49813 0.73461 0.0
C17 C -0.00675 0.49811 0.56244 0.0
C18 C 0.1687 0.42903 0.0295 0.0
C19 C 0.17654 0.73406 0.27789 0.0
C20 C 0.81067 0.26247 0.2775 0.0
C21 C 0.81837 0.56761 0.02991 0.0
O22 O 0.93289 0.41914 0.80705 0.0
O23 O 0.47553 0.05871 0.1406 0.0
Zn24 Zn 0.41148 0.03031 0.35522 0.0
O25 O 0.49388 -0.00175 0.47519 0.0
Zn26 Zn 0.57561 0.0977 0.61043 0.0
Zn27 Zn 0.57641 0.96615 0.3552 0.0
Zn28 Zn 0.41208 0.89897 0.6103 0.0
O29 O 0.57571 0.03974 0.82161 0.0
O30 O 0.41234 0.95705 0.8218 0.0
O31 O 0.39489 0.13661 0.48334 0.0
O32 O 0.5111 0.1722 0.66403 0.0
O33 O 0.69965 0.18568 0.4889 0.0
O34 O 0.70422 0.08944 0.29974 0.0
O35 O 0.59297 0.86 0.48346 0.0
O36 O 0.2836 0.90702 0.29967 0.0
O37 O 0.4764 0.82437 0.66353 0.0
O38 O 0.2878 0.81103 0.48912 0.0
C39 C 0.49413 -0.00172 0.06793 0.0
C40 C 0.49406 -0.00173 0.89576 0.0
C41 C 0.73823 0.17345 0.36297 0.0
C42 C 0.44096 0.18125 0.61109 0.0
C43 C 0.54668 0.81537 0.61095 0.0
C44 C 0.2493 0.82314 0.36315 0.0
O45 O 0.51254 0.93774 0.14029 0.0
O46 O 0.41461 0.47987 0.47391 0.0
Zn47 Zn 0.37915 0.41587 0.68847 0.0
O48 O 0.49365 0.49843 0.80852 0.0
Zn49 Zn 0.47599 0.58027 0.9437 0.0
Zn50 Zn 0.60824 0.5808 0.68861 0.0
Zn51 Zn 0.51118 0.41673 0.94369 0.0
O52 O 0.53384 0.58023 0.15516 0.0
O53 O 0.45315 0.41686 0.15491 0.0
O54 O 0.2563 0.39923 0.81662 0.0
O55 O 0.33698 0.51585 -0.00306 0.0
O56 O 0.51227 0.70435 0.82225 0.0
O57 O 0.61297 0.70869 0.63325 0.0
O58 O 0.73098 0.5973 0.81684 0.0
O59 O 0.37478 0.28807 0.63282 0.0
O60 O 0.6501 0.48114 -0.0027 0.0
O61 O 0.47506 0.29249 0.82244 0.0
C62 C 0.49363 0.49855 0.40126 0.0
C63 C 0.49353 0.49856 0.2291 0.0
C64 C 0.5631 0.74285 0.69643 0.0
C65 C 0.25779 0.44553 0.94418 0.0
C66 C 0.72936 0.55124 0.94453 0.0
C67 C 0.42448 0.25392 0.69635 0.0
O68 O 0.5726 0.51688 0.47364 0.0
loop_
_geom_bond_atom_site_label_1
_geom_bond_atom_site_label_2
_geom_bond_distance
_geom_bond_site_symmetry_2
_ccdc_geom_bond_type
O0 Zn1 1.953 1_556 S
O0 C16 1.225 . S
Zn1 O0 1.953 1_554 S
Zn1 O2 1.949 . S
Zn1 O8 1.919 . S
Zn1 O13 1.924 1_455 S
O2 Zn1 1.949 . S
O2 Zn3 1.923 . S
O2 Zn4 1.950 1_455 S
O2 Zn5 1.945 1_455 S
Zn3 O2 1.923 . S
Zn3 O6 1.933 . S
Zn3 O9 1.941 . S
Zn3 O10 1.965 . S
Zn4 O2 1.950 1_655 S
Zn4 O11 1.938 1_655 S
Zn4 O12 1.906 . S
Zn4 O22 1.953 1_554 S
Zn5 O2 1.945 1_655 S
Zn5 O7 1.932 . S
Zn5 O14 1.977 . S
Zn5 O15 1.910 . S
O6 Zn3 1.933 . S
O6 C17 1.226 . S
O7 Zn5 1.932 . S
O7 C17 1.307 1_655 S
O8 Zn1 1.919 . S
O8 C19 1.253 . S
O9 Zn3 1.941 . S
O9 C19 1.283 . S
O10 Zn3 1.965 . S
O10 C18 1.303 . S
O11 Zn4 1.938 1_455 S
O11 C18 1.247 . S
O12 Zn4 1.906 . S
O12 C20 1.304 . S
O13 Zn1 1.924 1_655 S
O13 C21 1.311 . S
O14 Zn5 1.977 . S
O14 C20 1.272 . S
O15 Zn5 1.910 . S
O15 C21 1.231 . S
C16 O0 1.225 . S
C16 O22 1.298 1_455 S
C17 O6 1.226 . S
C17 O7 1.307 1_455 S
C18 O10 1.303 . S
C18 O11 1.247 . S
C19 O8 1.253 . S
C19 O9 1.283 . S
C20 O12 1.304 . S
C20 O14 1.272 . S
C21 O13 1.311 . S
C21 O15 1.231 . S
O22 Zn4 1.953 1_556 S
O22 C16 1.298 1_655 S
O23 Zn24 1.953 . S
O23 C39 1.225 . S
Zn24 O23 1.953 . S
Zn24 O25 1.949 . S
Zn24 O31 1.919 . S
Zn24 O36 1.924 1_545 S
O25 Zn24 1.949 . S
O25 Zn26 1.923 . S
O25 Zn27 1.950 1_545 S
O25 Zn28 1.945 1_545 S
Zn26 O25 1.923 . S
Zn26 O29 1.933 . S
Zn26 O32 1.941 . S
Zn26 O33 1.965 . S
Zn27 O25 1.950 1_565 S
Zn27 O34 1.938 1_565 S
Zn27 O35 1.906 . S
Zn27 O45 1.953 . S
Zn28 O25 1.945 1_565 S
Zn28 O30 1.932 . S
Zn28 O37 1.977 . S
Zn28 O38 1.910 . S
O29 Zn26 1.933 . S
O29 C40 1.226 . S
O30 Zn28 1.932 . S
O30 C40 1.307 1_565 S
O31 Zn24 1.919 . S
O31 C42 1.253 . S
O32 Zn26 1.941 . S
O32 C42 1.283 . S
O33 Zn26 1.965 . S
O33 C41 1.303 . S
O34 Zn27 1.938 1_545 S
O34 C41 1.247 . S
O35 Zn27 1.906 . S
O35 C43 1.304 . S
O36 Zn24 1.924 1_565 S
O36 C44 1.311 . S
O37 Zn28 1.977 . S
O37 C43 1.272 . S
O38 Zn28 1.910 . S
O38 C44 1.231 . S
C39 O23 1.225 . S
C39 O45 1.298 1_545 S
C40 O29 1.226 . S
C40 O30 1.307 1_545 S
C41 O33 1.303 . S
C41 O34 1.247 . S
C42 O31 1.253 . S
C42 O32 1.283 . S
C43 O35 1.304 . S
C43 O37 1.272 . S
C44 O36 1.311 . S
C44 O38 1.231 . S
O45 Zn27 1.953 . S
O45 C39 1.298 1_565 S
O46 Zn47 1.953 . S
O46 C62 1.225 . S
Zn47 O46 1.953 . S
Zn47 O48 1.949 . S
Zn47 O54 1.919 . S
Zn47 O59 1.924 . S
O48 Zn47 1.949 . S
O48 Zn49 1.923 . S
O48 Zn50 1.950 . S
O48 Zn51 1.945 . S
Zn49 O48 1.923 . S
Zn49 O52 1.933 1_556 S
Zn49 O55 1.941 . S
Zn49 O56 1.965 . S
Zn50 O48 1.950 . S
Zn50 O57 1.938 . S
Zn50 O58 1.906 . S
Zn50 O68 1.953 . S
Zn51 O48 1.945 . S
Zn51 O53 1.932 1_556 S
Zn51 O60 1.977 . S
Zn51 O61 1.910 . S
O52 Zn49 1.933 1_554 S
O52 C63 1.226 . S
O53 Zn51 1.932 1_554 S
O53 C63 1.307 . S
O54 Zn47 1.919 . S
O54 C65 1.253 . S
O55 Zn49 1.941 . S
O55 C65 1.283 . S
O56 Zn49 1.965 . S
O56 C64 1.303 . S
O57 Zn50 1.938 . S
O57 C64 1.247 . S
O58 Zn50 1.906 . S
O58 C66 1.304 . S
O59 Zn47 1.924 . S
O59 C67 1.311 . S
O60 Zn51 1.977 . S
O60 C66 1.272 . S
O61 Zn51 1.910 . S
O61 C67 1.231 . S
C62 O46 1.225 . S
C62 O68 1.298 . S
C63 O52 1.226 . S
C63 O53 1.307 . S
C64 O56 1.303 . S
C64 O57 1.247 . S
C65 O54 1.253 . S
C65 O55 1.283 . S
C66 O58 1.304 . S
C66 O60 1.272 . S
C67 O59 1.311 . S
C67 O61 1.231 . S
O68 Zn50 1.953 . S
O68 C62 1.298 . S
C18 C65 2.073 1_554 S
C41 C20 2.021 . S
C43 C64 2.006 . S
C66 C21 2.024 1_556 S
C44 C19 2.074 . S
C67 C42 2.088 . S
C16 C17 0.945 . S
C39 C40 0.944 1_554 S
C62 C63 0.945 . S
