# Generated by pormake.
# Topology umw, (4)-cn, num edge types: 1
# Building blocks:
#     Node 0, Type 0, BuildingBlock: NAHDIM_clean_sbu_0, # of connection points: 4
#     Node 1, Type 0, BuildingBlock: NAHDIM_clean_sbu_0, # of connection points: 4
#     Node 2, Type 0, BuildingBlock: NAHDIM_clean_sbu_0, # of connection points: 4
#     Node 3, Type 0, BuildingBlock: NAHDIM_clean_sbu_0, # of connection points: 4
#     Node 4, Type 0, BuildingBlock: NAHDIM_clean_sbu_0, # of connection points: 4
#     Node 5, Type 0, BuildingBlock: NAHDIM_clean_sbu_0, # of connection points: 4
#     Node 6, Type 0, BuildingBlock: NAHDIM_clean_sbu_0, # of connection points: 4
#     Node 7, Type 0, BuildingBlock: NAHDIM_clean_sbu_0, # of connection points: 4
#     Edge 8, Type (0, 0), None
#     Edge 9, Type (0, 0), None
#     Edge 10, Type (0, 0), None
#     Edge 11, Type (0, 0), None
#     Edge 12, Type (0, 0), None
#     Edge 13, Type (0, 0), None
#     Edge 14, Type (0, 0), None
#     Edge 15, Type (0, 0), None
#     Edge 16, Type (0, 0), None
#     Edge 17, Type (0, 0), None
#     Edge 18, Type (0, 0), None
#     Edge 19, Type (0, 0), None
#     Edge 20, Type (0, 0), None
#     Edge 21, Type (0, 0), None
#     Edge 22, Type (0, 0), None
#     Edge 23, Type (0, 0), None
# Relax obj value: 0.135
# Max RMSD: 0.109
# Mean RMSD: 0.109
data_MOF--net-umw--node1-NAHDIM_clean_sbu_0--edge1-none
_symmetry_space_group_name_H-M    P1
_symmetry_Int_Tables_number       1
_symmetry_cell_setting            triclinic
loop_
_symmetry_equiv_pos_as_xyz
'x, y, z'
_cell_length_a     20.714309
_cell_length_b     20.713545
_cell_length_c     10.093839
_cell_angle_alpha  90.001574
_cell_angle_beta   89.994907
_cell_angle_gamma 90.001958
loop_
_atom_site_label
_atom_site_type_symbol
_atom_site_fract_x
_atom_site_fract_y
_atom_site_fract_z
_atom_type_partial_charge
C0 C 0.3244 0.27712 0.38921 0.0
O1 O 0.38614 0.29147 0.38798 0.0
O2 O 0.41172 0.15608 0.12327 0.0
Zn3 Zn 0.36955 0.15124 0.30806 0.0
O4 O 0.43849 0.15688 0.44484 0.0
C5 C 0.31917 0.01998 0.26342 0.0
O6 O 0.32944 0.0312 0.13709 0.0
O7 O 0.30577 0.22174 0.35067 0.0
C8 C 0.46338 0.10433 0.48429 0.0
O9 O 0.44715 0.0495 0.42847 0.0
C10 C 0.47285 0.15722 0.10544 0.0
O11 O 0.51169 0.15659 0.20811 0.0
O12 O 0.32717 0.0652 0.34632 0.0
C13 C 0.69607 0.32441 0.63918 0.0
O14 O 0.68172 0.38615 0.63797 0.0
O15 O 0.81713 0.41172 0.37323 0.0
Zn16 Zn 0.82194 0.36956 0.55802 0.0
O17 O 0.81631 0.43851 0.6948 0.0
C18 C 0.9532 0.31915 0.51342 0.0
O19 O 0.94198 0.32939 0.38708 0.0
O20 O 0.75144 0.30578 0.60062 0.0
C21 C 0.86885 0.46341 0.73419 0.0
O22 O 0.92367 0.4472 0.6783 0.0
C23 C 0.81595 0.47285 0.35542 0.0
O24 O 0.81651 0.5117 0.45809 0.0
O25 O 0.90798 0.32718 0.59631 0.0
C26 C 0.64879 0.69606 0.88918 0.0
O27 O 0.58706 0.68171 0.88797 0.0
O28 O 0.56148 0.81709 0.62322 0.0
Zn29 Zn 0.60364 0.82193 0.80801 0.0
O30 O 0.5347 0.81629 0.9448 0.0
C31 C 0.65402 0.9532 0.76335 0.0
O32 O 0.64375 0.94197 0.63702 0.0
O33 O 0.66743 0.75144 0.85061 0.0
C34 C 0.50981 0.86884 0.98426 0.0
O35 O 0.52604 0.92367 0.92844 0.0
C36 C 0.50035 0.81595 0.60542 0.0
O37 O 0.4615 0.81658 0.7081 0.0
O38 O 0.64602 0.90798 0.84625 0.0
C39 C 0.27712 0.64877 0.13919 0.0
O40 O 0.29146 0.58704 0.13795 0.0
O41 O 0.15608 0.56146 0.87327 0.0
Zn42 Zn 0.15124 0.60363 0.05807 0.0
O43 O 0.15688 0.53468 0.19484 0.0
C44 C 0.01999 0.65403 0.01344 0.0
O45 O 0.03123 0.64379 0.88711 0.0
O46 O 0.22174 0.66741 0.10067 0.0
C47 C 0.10433 0.50979 0.23429 0.0
O48 O 0.04951 0.52601 0.17846 0.0
C49 C 0.15722 0.50033 0.85545 0.0
O50 O 0.1566 0.46149 0.95812 0.0
O51 O 0.0652 0.646 0.09635 0.0
C52 C 0.32442 0.69606 0.18673 0.0
O53 O 0.38615 0.68171 0.18792 0.0
O54 O 0.41175 0.81709 0.45269 0.0
Zn55 Zn 0.36958 0.82193 0.26791 0.0
O56 O 0.43853 0.81629 0.13111 0.0
C57 C 0.31915 0.95318 0.31258 0.0
O58 O 0.32936 0.94197 0.43894 0.0
O59 O 0.30579 0.75144 0.22531 0.0
C60 C 0.46342 0.86884 0.09167 0.0
O61 O 0.44719 0.92367 0.14751 0.0
C62 C 0.47288 0.81595 0.4705 0.0
O63 O 0.51172 0.81657 0.36782 0.0
O64 O 0.32721 0.90797 0.22966 0.0
C65 C 0.27711 0.32441 0.43675 0.0
O66 O 0.29146 0.38615 0.43797 0.0
O67 O 0.15608 0.41173 0.70271 0.0
Zn68 Zn 0.15124 0.36956 0.51791 0.0
O69 O 0.15688 0.4385 0.38113 0.0
C70 C 0.01999 0.31914 0.56259 0.0
O71 O 0.03119 0.32938 0.68894 0.0
O72 O 0.22173 0.30578 0.47531 0.0
C73 C 0.10433 0.46339 0.34168 0.0
O74 O 0.0495 0.44715 0.39751 0.0
C75 C 0.15721 0.47286 0.72052 0.0
O76 O 0.15659 0.5117 0.61785 0.0
O77 O 0.0652 0.32717 0.47967 0.0
C78 C 0.64877 0.27712 0.68672 0.0
O79 O 0.58704 0.29147 0.68795 0.0
O80 O 0.56145 0.15608 0.95268 0.0
Zn81 Zn 0.60361 0.15124 0.76788 0.0
O82 O 0.53467 0.15688 0.63111 0.0
C83 C 0.65404 0.02 0.81252 0.0
O84 O 0.64383 0.0312 0.93888 0.0
O85 O 0.6674 0.22174 0.72527 0.0
C86 C 0.50977 0.10433 0.59168 0.0
O87 O 0.52599 0.04951 0.64752 0.0
C88 C 0.50032 0.15722 0.97051 0.0
O89 O 0.46148 0.1566 0.86785 0.0
O90 O 0.64598 0.0652 0.72961 0.0
C91 C 0.69609 0.64877 0.93672 0.0
O92 O 0.68173 0.58704 0.93796 0.0
O93 O 0.81708 0.56146 0.20268 0.0
Zn94 Zn 0.82195 0.60362 0.01789 0.0
O95 O 0.81632 0.53468 0.8811 0.0
C96 C 0.95319 0.65404 0.06261 0.0
O97 O 0.94198 0.6438 0.18895 0.0
O98 O 0.75146 0.66741 0.97528 0.0
C99 C 0.86887 0.50981 0.84158 0.0
O100 O 0.9237 0.52606 0.89736 0.0
C101 C 0.81598 0.50032 0.22049 0.0
O102 O 0.81667 0.46148 0.11782 0.0
O103 O 0.90799 0.64601 0.97968 0.0
loop_
_geom_bond_atom_site_label_1
_geom_bond_atom_site_label_2
_geom_bond_distance
_geom_bond_site_symmetry_2
_ccdc_geom_bond_type
C0 O1 1.160 . S
C0 O7 1.185 . S
O1 C0 1.160 . S
O2 Zn3 1.899 . S
O2 C10 1.284 . S
Zn3 O2 1.899 . S
Zn3 O4 2.032 . S
Zn3 O7 2.086 . S
Zn3 O12 1.977 . S
O4 Zn3 2.032 . S
O4 C8 1.278 . S
C5 O6 1.203 . S
C5 O12 1.267 . S
O6 C5 1.203 . S
O7 C0 1.185 . S
O7 Zn3 2.086 . S
C8 O4 1.278 . S
C8 O9 1.211 . S
O9 C8 1.211 . S
C10 O2 1.284 . S
C10 O11 1.273 . S
O11 C10 1.273 . S
O12 Zn3 1.977 . S
O12 C5 1.267 . S
C13 O14 1.160 . S
C13 O20 1.185 . S
O14 C13 1.160 . S
O15 Zn16 1.899 . S
O15 C23 1.284 . S
Zn16 O15 1.899 . S
Zn16 O17 2.032 . S
Zn16 O20 2.086 . S
Zn16 O25 1.977 . S
O17 Zn16 2.032 . S
O17 C21 1.278 . S
C18 O19 1.203 . S
C18 O25 1.267 . S
O19 C18 1.203 . S
O20 C13 1.185 . S
O20 Zn16 2.086 . S
C21 O17 1.278 . S
C21 O22 1.211 . S
O22 C21 1.211 . S
C23 O15 1.284 . S
C23 O24 1.273 . S
O24 C23 1.273 . S
O25 Zn16 1.977 . S
O25 C18 1.267 . S
C26 O27 1.160 . S
C26 O33 1.185 . S
O27 C26 1.160 . S
O28 Zn29 1.899 . S
O28 C36 1.284 . S
Zn29 O28 1.899 . S
Zn29 O30 2.032 . S
Zn29 O33 2.086 . S
Zn29 O38 1.977 . S
O30 Zn29 2.032 . S
O30 C34 1.278 . S
C31 O32 1.203 . S
C31 O38 1.267 . S
O32 C31 1.203 . S
O33 C26 1.185 . S
O33 Zn29 2.086 . S
C34 O30 1.278 . S
C34 O35 1.211 . S
O35 C34 1.211 . S
C36 O28 1.284 . S
C36 O37 1.273 . S
O37 C36 1.273 . S
O38 Zn29 1.977 . S
O38 C31 1.267 . S
C39 O40 1.160 . S
C39 O46 1.185 . S
O40 C39 1.160 . S
O41 Zn42 1.899 1_556 S
O41 C49 1.284 . S
Zn42 O41 1.899 1_554 S
Zn42 O43 2.032 . S
Zn42 O46 2.086 . S
Zn42 O51 1.977 . S
O43 Zn42 2.032 . S
O43 C47 1.278 . S
C44 O45 1.203 1_554 S
C44 O51 1.267 . S
O45 C44 1.203 1_556 S
O46 C39 1.185 . S
O46 Zn42 2.086 . S
C47 O43 1.278 . S
C47 O48 1.211 . S
O48 C47 1.211 . S
C49 O41 1.284 . S
C49 O50 1.273 . S
O50 C49 1.273 . S
O51 Zn42 1.977 . S
O51 C44 1.267 . S
C52 O53 1.160 . S
C52 O59 1.185 . S
O53 C52 1.160 . S
O54 Zn55 1.899 . S
O54 C62 1.284 . S
Zn55 O54 1.899 . S
Zn55 O56 2.032 . S
Zn55 O59 2.086 . S
Zn55 O64 1.977 . S
O56 Zn55 2.032 . S
O56 C60 1.278 . S
C57 O58 1.203 . S
C57 O64 1.267 . S
O58 C57 1.203 . S
O59 C52 1.185 . S
O59 Zn55 2.086 . S
C60 O56 1.278 . S
C60 O61 1.211 . S
O61 C60 1.211 . S
C62 O54 1.284 . S
C62 O63 1.273 . S
O63 C62 1.273 . S
O64 Zn55 1.977 . S
O64 C57 1.267 . S
C65 O66 1.160 . S
C65 O72 1.185 . S
O66 C65 1.160 . S
O67 Zn68 1.899 . S
O67 C75 1.284 . S
Zn68 O67 1.899 . S
Zn68 O69 2.032 . S
Zn68 O72 2.086 . S
Zn68 O77 1.977 . S
O69 Zn68 2.032 . S
O69 C73 1.278 . S
C70 O71 1.203 . S
C70 O77 1.267 . S
O71 C70 1.203 . S
O72 C65 1.185 . S
O72 Zn68 2.086 . S
C73 O69 1.278 . S
C73 O74 1.211 . S
O74 C73 1.211 . S
C75 O67 1.284 . S
C75 O76 1.273 . S
O76 C75 1.273 . S
O77 Zn68 1.977 . S
O77 C70 1.267 . S
C78 O79 1.160 . S
C78 O85 1.185 . S
O79 C78 1.160 . S
O80 Zn81 1.899 . S
O80 C88 1.284 . S
Zn81 O80 1.899 . S
Zn81 O82 2.032 . S
Zn81 O85 2.086 . S
Zn81 O90 1.977 . S
O82 Zn81 2.032 . S
O82 C86 1.278 . S
C83 O84 1.203 . S
C83 O90 1.267 . S
O84 C83 1.203 . S
O85 C78 1.185 . S
O85 Zn81 2.086 . S
C86 O82 1.278 . S
C86 O87 1.211 . S
O87 C86 1.211 . S
C88 O80 1.284 . S
C88 O89 1.273 . S
O89 C88 1.273 . S
O90 Zn81 1.977 . S
O90 C83 1.267 . S
C91 O92 1.160 1_556 S
C91 O98 1.185 . S
O92 C91 1.160 1_554 S
O93 Zn94 1.899 . S
O93 C101 1.284 . S
Zn94 O93 1.899 . S
Zn94 O95 2.032 1_554 S
Zn94 O98 2.086 1_554 S
Zn94 O103 1.977 1_554 S
O95 Zn94 2.032 1_556 S
O95 C99 1.278 . S
C96 O97 1.203 . S
C96 O103 1.264 1_554 S
O97 C96 1.203 . S
O98 C91 1.185 . S
O98 Zn94 2.086 1_556 S
C99 O95 1.278 . S
C99 O100 1.211 . S
O100 C99 1.211 . S
C101 O93 1.284 . S
C101 O102 1.273 . S
O102 C101 1.273 . S
O103 Zn94 1.977 1_556 S
O103 C96 1.264 1_556 S
C8 C86 0.974 . S
C21 C99 0.974 . S
C60 C34 0.974 1_554 S
C73 C47 0.974 . S
C0 C65 1.976 . S
C13 C78 1.976 . S
C91 C26 1.976 . S
C39 C52 1.977 . S
C57 C5 1.339 1_565 S
C18 C70 1.339 1_655 S
C31 C83 1.339 1_565 S
C96 C44 1.339 1_655 S
C88 C10 1.465 1_556 S
C101 C23 1.465 . S
C36 C62 1.465 . S
C49 C75 1.465 . S
