# Generated by pormake.
# Topology pcu, (6)-cn, num edge types: 1
# Building blocks:
#     Node 0, Type 0, BuildingBlock: CUWYAW_clean_sbu_0, # of connection points: 6
#     Edge 1, Type (0, 0), BuildingBlock: XUDNAN_clean_linker_2, # of connection points: 2
#     Edge 2, Type (0, 0), BuildingBlock: XUDNAN_clean_linker_2, # of connection points: 2
#     Edge 3, Type (0, 0), BuildingBlock: XUDNAN_clean_linker_2, # of connection points: 2
# Relax obj value: 0.000
# Max RMSD: 0.000
# Mean RMSD: 0.000
data_MOF--net-pcu--node1-CUWYAW_clean_sbu_0--edge1-XUDNAN_clean_linker_2
_symmetry_space_group_name_H-M    P1
_symmetry_Int_Tables_number       1
_symmetry_cell_setting            triclinic
loop_
_symmetry_equiv_pos_as_xyz
'x, y, z'
_cell_length_a     25.630652
_cell_length_b     15.318018
_cell_length_c     14.551489
_cell_angle_alpha  91.766134
_cell_angle_beta   97.419878
_cell_angle_gamma 122.16777
loop_
_atom_site_label
_atom_site_type_symbol
_atom_site_fract_x
_atom_site_fract_y
_atom_site_fract_z
_atom_type_partial_charge
C0 C 0.20431 0.11405 0.95791 0.0
Eu1 Eu 0.09097 0.04974 0.98641 0.0
C2 C 0.25352 0.0899 0.97951 0.0
C3 C 0.30031 0.14114 0.0591 0.0
C4 C 0.34871 0.12333 0.07721 0.0
C5 C 0.35212 0.05419 0.01599 0.0
C6 C 0.30544 0.00309 0.93611 0.0
C7 C 0.25684 0.02078 0.91805 0.0
C8 C 0.05447 0.02633 0.15744 0.0
C9 C 1.01106 0.79722 0.98962 0.0
C10 C 0.83491 0.86234 0.99329 0.0
Eu11 Eu 0.95127 0.93166 0.97875 0.0
C12 C 0.79133 0.89631 1.00493 0.0
C13 C 0.73497 0.85178 0.94137 0.0
C14 C 0.6906 0.87616 0.95344 0.0
C15 C 0.70125 0.94547 0.02991 0.0
C16 C 0.75846 -0.00812 0.09252 0.0
C17 C 0.80302 0.96772 0.08016 0.0
C18 C 0.98712 0.93689 0.81066 0.0
C19 C 0.03248 0.18212 1.00036 0.0
O20 O 0.15362 0.0479 0.89862 0.0
O21 O 0.19228 0.15335 0.02711 0.0
O22 O 0.10508 0.10795 0.1405 0.0
O23 O 0.02906 0.96046 0.08634 0.0
O24 O 0.06195 0.88015 0.96982 0.0
O25 O 0.96312 0.8006 0.00839 0.0
O26 O 0.87806 0.88151 0.06421 0.0
O27 O 0.85507 0.87377 0.91382 0.0
O28 O 0.94146 0.85618 0.83862 0.0
O29 O 1.01284 0.01471 0.87269 0.0
O30 O 0.98489 0.09707 0.02279 0.0
O31 O 0.07681 0.181 0.96451 0.0
H32 H 0.30009 0.19633 0.10715 0.0
H33 H 0.38427 0.1656 0.13855 0.0
H34 H 0.30612 0.94867 0.88775 0.0
H35 H 0.22211 0.9808 0.85544 0.0
H36 H 0.72459 0.79608 0.88305 0.0
H37 H 0.64699 0.83792 0.90441 0.0
H38 H 0.76875 0.04672 0.15148 0.0
H39 H 0.84614 0.00386 0.13016 0.0
H40 H 0.10294 0.15412 0.32711 0.0
H41 H 0.96945 0.83668 0.19992 0.0
H42 H 0.94337 0.78319 0.35319 0.0
H43 H 0.15694 0.09158 0.54367 0.0
H44 H 0.16162 0.19319 0.61725 0.0
H45 H 0.17237 0.20947 0.49755 0.0
H46 H 0.08372 0.24456 0.46781 0.0
H47 H 0.07297 0.22903 0.58754 0.0
H48 H 1.00774 0.15108 0.49433 0.0
H49 H 0.93269 0.75993 0.51567 0.0
H50 H 0.92912 0.76939 0.68254 0.0
H51 H 0.06462 0.10261 0.71433 0.0
C52 C 0.06828 0.07353 0.33199 0.0
C53 C 0.03859 -0.00067 0.25131 0.0
C54 C 0.99304 0.89485 0.26028 0.0
C55 C 0.97796 0.86347 0.3473 0.0
C56 C 1.00822 0.93755 0.42531 0.0
C57 C 0.0518 0.04066 0.41915 0.0
C58 C 0.07508 0.10377 0.51517 0.0
C59 C 0.14571 0.15238 0.54516 0.0
C60 C 0.0589 0.18705 0.51626 0.0
C61 C 0.03763 0.01957 0.57551 0.0
C62 C 1.0001 0.92445 0.52133 0.0
C63 C 0.96145 0.83396 0.55889 0.0
C64 C 0.95986 0.84042 0.65418 0.0
C65 C 0.99612 0.93683 0.71184 0.0
C66 C 0.03629 0.02786 0.67209 0.0
H67 H 0.41878 0.0316 0.89183 0.0
H68 H 0.40386 0.03529 0.18556 0.0
H69 H 0.49194 0.0115 0.22075 0.0
H70 H 0.45542 0.83364 0.88443 0.0
H71 H 0.50966 0.89368 0.80461 0.0
H72 H 0.44553 0.91159 0.8023 0.0
H73 H 0.52357 0.11112 0.82578 0.0
H74 H 0.58797 0.09383 0.82855 0.0
H75 H 0.58663 0.16973 0.92429 0.0
H76 H 0.58245 0.98834 0.22487 0.0
H77 H 0.6663 0.96203 0.19681 0.0
H78 H 0.62289 0.97197 0.90039 0.0
C79 C 0.43356 0.02639 0.96347 0.0
C80 C 0.40425 0.03606 0.03596 0.0
C81 C 0.42591 0.02997 0.12886 0.0
C82 C 0.47583 0.01588 0.14958 0.0
C83 C 0.50395 0.00773 0.07677 0.0
C84 C 0.4835 0.01235 0.9855 0.0
C85 C 0.52203 0.00146 0.92035 0.0
C86 C 0.48068 0.9043 0.8487 0.0
C87 C 0.55713 0.0999 0.8719 0.0
C88 C 0.56705 0.98944 0.98918 0.0
C89 C 0.55595 -0.00623 0.07909 0.0
C90 C 0.59162 0.98508 0.15472 0.0
C91 C 0.63958 0.97091 0.13811 0.0
C92 C 0.65173 0.96525 0.04645 0.0
C93 C 0.61472 0.97501 0.97123 0.0
H94 H 0.0712 0.7221 0.90424 0.0
H95 H 0.95333 0.66411 0.11343 0.0
H96 H 0.95759 0.51204 0.14924 0.0
H97 H 0.99779 0.45565 0.81703 0.0
H98 H 0.06861 0.4668 0.79507 0.0
H99 H 0.06158 0.57751 0.79122 0.0
H100 H 0.16289 0.68462 0.91417 0.0
H101 H 0.16991 0.57376 0.91894 0.0
H102 H 0.16814 0.63654 0.02426 0.0
H103 H 0.97094 0.36744 0.16062 0.0
H104 H 0.98197 0.21978 0.13508 0.0
H105 H 0.08767 0.36098 0.91322 0.0
C106 C 0.04672 0.67739 0.95786 0.0
C107 C 1.012 0.7043 1.0063 0.0
C108 C 0.97974 0.64394 0.07513 0.0
C109 C 0.98245 0.55826 0.09668 0.0
C110 C 1.01712 0.53371 0.0481 0.0
C111 C 0.04794 0.59001 0.97916 0.0
C112 C 0.07713 0.54044 0.93245 0.0
C113 C 0.04961 0.50817 0.82775 0.0
C114 C 0.14878 0.61319 0.94845 0.0
C115 C 0.05681 0.44661 0.98518 0.0
C116 C 1.02331 0.4462 0.05264 0.0
C117 C 0.99713 0.36662 0.1083 0.0
C118 C 1.0035 0.28295 0.09283 0.0
C119 C 0.03527 0.27892 0.02165 0.0
C120 C 0.06376 0.36298 0.96863 0.0
loop_
_geom_bond_atom_site_label_1
_geom_bond_atom_site_label_2
_geom_bond_distance
_geom_bond_site_symmetry_2
_ccdc_geom_bond_type
C0 Eu1 2.835 . S
C0 C2 1.500 . S
C0 O20 1.257 1_554 S
C0 O21 1.260 . S
Eu1 C0 2.835 . S
Eu1 O20 2.473 1_554 S
Eu1 O21 2.480 . S
Eu1 O22 2.430 . S
Eu1 O23 2.670 1_455 S
Eu1 O24 2.394 1_545 S
Eu1 O29 2.355 1_544 S
Eu1 O31 2.374 . S
C2 C0 1.500 . S
C2 C3 1.377 . S
C2 C7 1.377 1_544 S
C3 C2 1.377 . S
C3 C4 1.395 . S
C3 H32 0.931 . S
C4 C3 1.395 . S
C4 C5 1.388 . S
C4 H33 0.931 . S
C5 C4 1.388 . S
C5 C6 1.396 1_544 S
C6 C5 1.396 1_566 S
C6 C7 1.378 . S
C6 H34 0.931 . S
C7 C2 1.377 1_566 S
C7 C6 1.378 . S
C7 H35 0.931 . S
C8 O22 1.259 . S
C8 O23 1.270 1_455 S
C9 O24 1.251 1_655 S
C9 O25 1.251 1_554 S
C10 Eu11 2.835 . S
C10 C12 1.500 . S
C10 O26 1.257 1_556 S
C10 O27 1.260 . S
Eu11 C10 2.835 . S
Eu11 O23 2.355 1_566 S
Eu11 O25 2.374 . S
Eu11 O26 2.473 1_556 S
Eu11 O27 2.480 . S
Eu11 O28 2.430 . S
Eu11 O29 2.670 1_655 S
Eu11 O30 2.394 1_565 S
C12 C10 1.500 . S
C12 C13 1.377 . S
C12 C17 1.377 1_566 S
C13 C12 1.377 . S
C13 C14 1.395 . S
C13 H36 0.931 . S
C14 C13 1.395 . S
C14 C15 1.387 . S
C14 H37 0.931 . S
C15 C14 1.387 . S
C15 C16 1.396 1_566 S
C16 C15 1.396 1_544 S
C16 C17 1.378 . S
C16 H38 0.931 . S
C17 C12 1.377 1_544 S
C17 C16 1.378 . S
C17 H39 0.931 . S
C18 O28 1.259 . S
C18 O29 1.270 1_655 S
C19 O30 1.251 1_455 S
C19 O31 1.251 1_556 S
O20 C0 1.257 1_556 S
O20 Eu1 2.473 1_556 S
O21 C0 1.260 . S
O21 Eu1 2.480 . S
O22 Eu1 2.430 . S
O22 C8 1.259 . S
O23 Eu1 2.670 1_655 S
O23 C8 1.270 1_655 S
O23 Eu11 2.355 1_544 S
O24 Eu1 2.394 1_565 S
O24 C9 1.251 1_455 S
O25 C9 1.251 1_556 S
O25 Eu11 2.374 . S
O26 C10 1.257 1_554 S
O26 Eu11 2.473 1_554 S
O27 C10 1.260 . S
O27 Eu11 2.480 . S
O28 Eu11 2.430 . S
O28 C18 1.259 . S
O29 Eu1 2.355 1_566 S
O29 Eu11 2.670 1_455 S
O29 C18 1.270 1_455 S
O30 Eu11 2.394 1_545 S
O30 C19 1.251 1_655 S
O31 Eu1 2.374 . S
O31 C19 1.251 1_554 S
H32 C3 0.931 . S
H33 C4 0.931 . S
H34 C6 0.931 . S
H35 C7 0.931 . S
H36 C13 0.931 . S
H37 C14 0.931 . S
H38 C16 0.931 . S
H39 C17 0.931 . S
H40 C52 0.930 . S
H41 C54 0.930 . S
H42 C55 0.930 . S
H43 C59 0.959 . S
H44 C59 0.959 . S
H45 C59 0.961 . S
H46 C60 0.960 . S
H47 C60 0.961 . S
H48 C60 0.959 1_655 S
H49 C63 0.929 . S
H50 C64 0.931 . S
H51 C66 0.930 . S
C52 H40 0.930 . S
C52 C53 1.399 1_445 S
C52 C57 1.399 . S
C53 C52 1.399 1_665 S
C53 C54 1.376 . S
C54 H41 0.930 . S
C54 C53 1.376 . S
C54 C55 1.388 . S
C55 H42 0.930 . S
C55 C54 1.388 . S
C55 C56 1.390 . S
C56 C55 1.390 . S
C56 C57 1.394 1_665 S
C56 C62 1.465 . S
C57 C52 1.399 . S
C57 C56 1.394 1_445 S
C57 C58 1.516 . S
C58 C57 1.516 . S
C58 C59 1.502 . S
C58 C60 1.561 . S
C58 C61 1.526 . S
C59 H43 0.959 . S
C59 H44 0.959 . S
C59 H45 0.961 . S
C59 C58 1.502 . S
C60 H46 0.960 . S
C60 H47 0.961 . S
C60 H48 0.959 1_455 S
C60 C58 1.561 . S
C61 C58 1.526 . S
C61 C62 1.396 1_445 S
C61 C66 1.390 . S
C62 C56 1.465 . S
C62 C61 1.396 1_665 S
C62 C63 1.399 . S
C63 H49 0.929 . S
C63 C62 1.399 . S
C63 C64 1.385 . S
C64 H50 0.931 . S
C64 C63 1.385 . S
C64 C65 1.389 . S
C65 C64 1.389 . S
C65 C66 1.387 1_665 S
C66 H51 0.930 . S
C66 C61 1.390 . S
C66 C65 1.387 1_445 S
H67 C79 0.928 . S
H68 C81 0.930 . S
H69 C82 0.930 . S
H70 C86 0.959 . S
H71 C86 0.959 . S
H72 C86 0.961 . S
H73 C87 0.960 . S
H74 C87 0.961 . S
H75 C87 0.959 . S
H76 C90 0.929 . S
H77 C91 0.931 . S
H78 C93 0.930 . S
C79 H67 0.928 . S
C79 C80 1.395 1_566 S
C79 C84 1.406 1_565 S
C80 C79 1.395 1_544 S
C80 C81 1.376 . S
C81 H68 0.930 . S
C81 C80 1.376 . S
C81 C82 1.388 . S
C82 H69 0.930 . S
C82 C81 1.388 . S
C82 C83 1.390 . S
C83 C82 1.390 . S
C83 C84 1.394 1_554 S
C83 C89 1.465 . S
C84 C79 1.406 1_545 S
C84 C83 1.394 1_556 S
C84 C85 1.516 . S
C85 C84 1.516 . S
C85 C86 1.502 1_545 S
C85 C87 1.561 . S
C85 C88 1.526 . S
C86 H70 0.959 . S
C86 H71 0.959 . S
C86 H72 0.961 . S
C86 C85 1.502 1_565 S
C87 H73 0.960 . S
C87 H74 0.961 . S
C87 H75 0.959 . S
C87 C85 1.561 . S
C88 C85 1.526 . S
C88 C89 1.396 1_556 S
C88 C93 1.388 1_545 S
C89 C83 1.465 . S
C89 C88 1.396 1_554 S
C89 C90 1.399 . S
C90 H76 0.929 . S
C90 C89 1.399 . S
C90 C91 1.385 . S
C91 H77 0.931 . S
C91 C90 1.385 . S
C91 C92 1.389 . S
C92 C91 1.389 . S
C92 C93 1.388 1_544 S
C93 H78 0.930 . S
C93 C88 1.388 1_565 S
C93 C92 1.388 1_566 S
H94 C106 0.930 . S
H95 C108 0.930 . S
H96 C109 0.930 . S
H97 C113 0.959 . S
H98 C113 0.959 . S
H99 C113 0.961 . S
H100 C114 0.960 . S
H101 C114 0.961 . S
H102 C114 0.959 . S
H103 C117 0.929 . S
H104 C118 0.931 . S
H105 C120 0.930 . S
C106 H94 0.930 . S
C106 C107 1.399 1_656 S
C106 C111 1.399 . S
C107 C106 1.399 1_454 S
C107 C108 1.376 . S
C108 H95 0.930 . S
C108 C107 1.376 . S
C108 C109 1.388 . S
C109 H96 0.930 . S
C109 C108 1.388 . S
C109 C110 1.390 . S
C110 C109 1.390 . S
C110 C111 1.394 1_454 S
C110 C116 1.465 . S
C111 C106 1.399 . S
C111 C110 1.394 1_656 S
C111 C112 1.516 . S
C112 C111 1.516 . S
C112 C113 1.502 . S
C112 C114 1.561 1_655 S
C112 C115 1.526 . S
C113 H97 0.959 . S
C113 H98 0.959 . S
C113 H99 0.961 . S
C113 C112 1.502 . S
C114 H100 0.960 . S
C114 H101 0.961 . S
C114 H102 0.959 . S
C114 C112 1.561 1_455 S
C115 C112 1.526 . S
C115 C116 1.396 1_656 S
C115 C120 1.390 . S
C116 C110 1.465 . S
C116 C115 1.396 1_454 S
C116 C117 1.399 . S
C117 H103 0.929 . S
C117 C116 1.399 . S
C117 C118 1.385 . S
C118 H104 0.931 . S
C118 C117 1.385 . S
C118 C119 1.389 . S
C119 C118 1.389 . S
C119 C120 1.387 1_454 S
C120 H105 0.930 . S
C120 C115 1.390 . S
C120 C119 1.387 1_656 S
C53 C8 1.482 1_665 S
C65 C18 1.413 . S
C80 C5 1.483 . S
C92 C15 1.492 1_544 S
C107 C9 1.473 1_455 S
C119 C19 1.494 1_554 S
