# Generated by pormake.
# Topology sma, (6)-cn, num edge types: 1
# Building blocks:
#     Node 0, Type 0, BuildingBlock: PAMTOO_clean_sbu_0, # of connection points: 6
#     Node 1, Type 0, BuildingBlock: PAMTOO_clean_sbu_0, # of connection points: 6
#     Node 2, Type 0, BuildingBlock: PAMTOO_clean_sbu_0, # of connection points: 6
#     Edge 3, Type (0, 0), BuildingBlock: OJICUG_clean_linker_0, # of connection points: 2
#     Edge 4, Type (0, 0), BuildingBlock: OJICUG_clean_linker_0, # of connection points: 2
#     Edge 5, Type (0, 0), BuildingBlock: OJICUG_clean_linker_0, # of connection points: 2
#     Edge 6, Type (0, 0), BuildingBlock: OJICUG_clean_linker_0, # of connection points: 2
#     Edge 7, Type (0, 0), BuildingBlock: OJICUG_clean_linker_0, # of connection points: 2
#     Edge 8, Type (0, 0), BuildingBlock: OJICUG_clean_linker_0, # of connection points: 2
#     Edge 9, Type (0, 0), BuildingBlock: OJICUG_clean_linker_0, # of connection points: 2
#     Edge 10, Type (0, 0), BuildingBlock: OJICUG_clean_linker_0, # of connection points: 2
#     Edge 11, Type (0, 0), BuildingBlock: OJICUG_clean_linker_0, # of connection points: 2
# Relax obj value: 0.192
# Max RMSD: 0.250
# Mean RMSD: 0.215
data_MOF--net-sma--node1-PAMTOO_clean_sbu_0--edge1-OJICUG_clean_linker_0
_symmetry_space_group_name_H-M    P1
_symmetry_Int_Tables_number       1
_symmetry_cell_setting            triclinic
loop_
_symmetry_equiv_pos_as_xyz
'x, y, z'
_cell_length_a     22.49043
_cell_length_b     33.138863
_cell_length_c     10.482935
_cell_angle_alpha  90.790054
_cell_angle_beta   100.29521
_cell_angle_gamma 91.947859
loop_
_atom_site_label
_atom_site_type_symbol
_atom_site_fract_x
_atom_site_fract_y
_atom_site_fract_z
_atom_type_partial_charge
Dy0 Dy 0.09664 0.58112 -0.04774 0.0
Dy1 Dy 0.09357 0.47801 -0.02687 0.0
C2 C 0.09122 0.52385 0.71572 0.0
O3 O 1.00647 0.56113 -0.00488 0.0
O4 O 0.99756 0.49612 0.91233 0.0
O5 O 0.1146 0.63613 0.854 0.0
O6 O 1.07002 0.63802 0.02118 0.0
O7 O 0.08754 0.50926 0.15536 0.0
O8 O 0.14624 0.56631 0.14484 0.0
O9 O 0.19216 0.49642 -0.01991 0.0
O10 O 0.18934 0.5645 0.928 0.0
O11 O 0.12096 0.42591 0.08766 0.0
O12 O 1.06106 0.41815 0.90123 0.0
C13 C 0.97328 0.52906 -0.05159 0.0
O14 O 1.06048 0.55132 0.76353 0.0
O15 O 0.11449 0.49381 0.78433 0.0
C16 C 0.13113 0.69468 -0.01001 0.0
C17 C 0.19511 0.76482 0.10358 0.0
C18 C 0.14762 0.76755 -0.00308 0.0
C19 C 0.11595 0.73279 0.94087 0.0
C20 C 0.17932 0.69155 0.09432 0.0
C21 C 0.21104 0.72632 0.15067 0.0
C22 C 0.09372 0.65899 0.93712 0.0
C23 C 0.12744 0.53672 0.20964 0.0
C24 C 0.21835 0.53064 -0.05026 0.0
C25 C 1.05251 0.36858 0.06019 0.0
C26 C 0.9914 0.30471 0.16812 0.0
C27 C 0.99245 0.34455 0.21796 0.0
C28 C 1.02276 0.37616 0.16465 0.0
C29 C 1.05052 0.32917 0.00878 0.0
C30 C 1.02037 0.29766 0.06178 0.0
C31 C 0.08777 0.40054 0.00575 0.0
H32 H 0.13363 0.79665 -0.04092 0.0
H33 H 0.0786 0.73577 0.86088 0.0
H34 H 0.19165 0.66229 0.13354 0.0
H35 H 0.2479 0.72306 0.23139 0.0
H36 H 0.97112 0.35119 0.30023 0.0
H37 H 1.02364 0.40635 0.20609 0.0
H38 H 1.07294 0.32262 0.92796 0.0
H39 H 1.01969 0.2677 0.0189 0.0
Dy40 Dy 0.52817 0.03379 0.55367 0.0
Dy41 Dy 0.68023 0.04785 0.57695 0.0
C42 C 0.62247 0.02548 0.81651 0.0
O43 O 0.54663 0.10081 0.55346 0.0
O44 O 0.6459 0.10307 0.65897 0.0
O45 O 0.44911 1.01539 0.6313 0.0
O46 O 0.43934 0.03794 0.43538 0.0
O47 O 0.62327 0.06686 0.39785 0.0
O48 O 0.55757 1.01402 0.37596 0.0
O49 O 0.66489 0.97955 0.56443 0.0
O50 O 0.56353 0.97233 0.58332 0.0
O51 O 0.75434 0.04398 0.47194 0.0
O52 O 0.7676 0.0754 0.65848 0.0
C53 C 0.59414 0.12047 0.62111 0.0
O54 O 0.5713 0.04033 0.75906 0.0
O55 O 0.67024 0.02162 0.76281 0.0
C56 C 0.37712 0.98163 0.46839 0.0
C57 C 0.31468 0.91096 0.35337 0.0
C58 C 0.36315 0.90837 0.45782 0.0
C59 C 0.39411 0.94327 0.51443 0.0
C60 C 0.32799 0.98438 0.36592 0.0
C61 C 0.2971 0.94941 0.3088 0.0
C62 C 0.41331 1.01838 0.51923 0.0
C63 C 0.59344 0.03808 0.32635 0.0
C64 C 0.61638 0.9571 0.57804 0.0
C65 C 0.81877 0.10277 0.49904 0.0
C66 C 0.87459 0.1697 0.39429 0.0
C67 C 0.8112 0.16349 0.36903 0.0
C68 C 0.78363 0.13045 0.42098 0.0
C69 C 0.88177 0.1089 0.52535 0.0
C70 C 0.9094 0.14195 0.47375 0.0
C71 C 0.79015 0.06785 0.55448 0.0
H72 H 0.37838 0.87928 0.49349 0.0
H73 H 0.43222 0.94007 0.59243 0.0
H74 H 0.31425 1.01357 0.32834 0.0
H75 H 0.25952 0.95246 0.22948 0.0
H76 H 0.78282 0.1838 0.30733 0.0
H77 H 0.73483 0.12643 0.39984 0.0
H78 H 0.90972 0.08813 0.58619 0.0
H79 H 0.95812 0.14595 0.49747 0.0
Dy80 Dy 0.59251 0.58629 0.8641 0.0
Dy81 Dy 0.59441 0.48384 0.89519 0.0
C82 C 0.60052 0.5425 0.12827 0.0
O83 O 0.68754 0.56774 0.93563 0.0
O84 O 0.67795 0.5069 0.82889 0.0
O85 O 0.56715 0.64833 0.89671 0.0
O86 O 0.63223 0.63521 0.77031 0.0
O87 O 0.54887 0.48966 0.69303 0.0
O88 O 0.57607 0.55699 0.67024 0.0
O89 O 0.50181 0.5015 0.91954 0.0
O90 O 0.49425 0.56608 0.83571 0.0
O91 O 0.64158 0.42924 0.87759 0.0
O92 O 0.56674 0.42875 -0.01774 0.0
C93 C 0.71203 0.53712 0.88617 0.0
O94 O 0.57841 0.57341 0.06211 0.0
O95 O 0.63225 0.51621 0.07843 0.0
C96 C 0.6102 0.70617 0.79249 0.0
C97 C 0.61939 0.78816 0.72022 0.0
C98 C 0.57498 0.77491 0.7912 0.0
C99 C 0.57055 0.73447 0.82716 0.0
C100 C 0.65564 0.71956 0.72461 0.0
C101 C 0.66037 0.76009 0.68948 0.0
C102 C 0.60248 0.66258 0.82027 0.0
C103 C 0.55276 0.52183 0.62357 0.0
C104 C 0.47017 0.5333 0.88047 0.0
C105 C 0.5901 0.36647 0.88927 0.0
C106 C 0.57821 0.28585 0.79618 0.0
C107 C 0.56738 0.3179 0.70939 0.0
C108 C 0.57359 0.35803 0.75563 0.0
C109 C 0.59731 0.33452 -0.02398 0.0
C110 C 0.59148 0.2946 0.93007 0.0
C111 C 0.60738 0.40759 0.94034 0.0
H112 H 0.54319 0.79584 0.81823 0.0
H113 H 0.53517 0.7252 0.87954 0.0
H114 H 0.68702 0.69853 0.69643 0.0
H115 H 0.69485 0.76913 0.63445 0.0
H116 H 0.55731 0.31201 0.60574 0.0
H117 H 0.56802 0.38237 0.68706 0.0
H118 H 0.61012 0.34045 0.0794 0.0
H119 H 0.59924 0.27052 -0.00073 0.0
C120 C 0.31775 0.49668 -0.04394 0.0
C121 C 0.28292 0.53111 0.93272 0.0
H122 H 0.40332 0.47021 -0.04261 0.0
C123 C 0.31004 0.56609 0.88902 0.0
H124 H 0.29859 0.46916 -0.01087 0.0
C125 C 0.37019 0.56667 0.86982 0.0
C126 C 0.40515 0.53234 0.89408 0.0
H127 H 0.2848 0.59323 0.86911 0.0
H128 H 0.38938 0.59424 0.83715 0.0
C129 C 0.37799 0.49732 0.93729 0.0
C130 C 0.95946 0.19994 0.29335 0.0
C131 C 0.90441 0.20456 0.33718 0.0
H132 H 1.0301 0.22746 0.20838 0.0
C133 C 0.87831 0.24271 0.32556 0.0
H134 H 0.98077 0.17105 0.29896 0.0
C135 C 0.90644 0.27517 0.27173 0.0
C136 C 0.96137 0.27041 0.22742 0.0
H137 H 0.83634 0.24769 0.35933 0.0
H138 H 0.88461 0.30388 0.26324 0.0
C139 C 0.98748 0.23231 0.23954 0.0
C140 C 0.67498 0.8943 0.64461 0.0
C141 C 0.62004 0.91271 0.59832 0.0
H142 H 0.71808 0.84052 0.72083 0.0
C143 C 0.56606 0.88891 0.58447 0.0
H144 H 0.71733 0.9117 0.65718 0.0
C145 C 0.56639 0.84867 0.62197 0.0
C146 C 0.62074 0.83062 0.67386 0.0
H147 H 0.52283 0.90164 0.54719 0.0
H148 H 0.52369 0.8317 0.61107 0.0
C149 C 0.67533 0.85358 0.68166 0.0
C150 C 0.80547 0.50087 0.85874 0.0
C151 C 0.77884 0.53532 0.90075 0.0
H152 H 0.88727 0.47165 0.84145 0.0
C153 C 0.81678 0.56745 -0.04039 0.0
H154 H 0.77771 0.47544 0.81341 0.0
C155 C 0.87973 0.56523 -0.0242 0.0
C156 C 0.90641 0.53076 0.93391 0.0
H157 H 0.79792 0.59439 -0.00662 0.0
H158 H 0.90743 0.59067 0.0212 0.0
C159 C 0.86844 0.49859 0.87529 0.0
C160 C 0.26836 0.87041 0.15355 0.0
C161 C 0.2837 0.87363 0.28944 0.0
H162 H 0.22981 0.83344 -0.01161 0.0
C163 C 0.27025 0.84062 0.3636 0.0
H164 H 0.27905 0.89499 0.09346 0.0
C165 C 0.24199 0.80531 0.30339 0.0
C166 C 0.22657 0.80208 0.16745 0.0
H167 H 0.28078 0.84227 0.46852 0.0
H168 H 0.2312 0.78081 0.36366 0.0
C169 C 0.24022 0.83507 0.09331 0.0
C170 C 0.63068 0.22061 0.8006 0.0
C171 C 0.58127 0.24369 0.7484 0.0
H172 H 0.67358 0.16423 0.80113 0.0
C173 C 0.53612 0.22628 0.65112 0.0
H174 H 0.66667 0.23338 0.87418 0.0
C175 C 0.53986 0.18619 0.60906 0.0
C176 C 0.58937 0.16311 0.66208 0.0
H177 H 0.49754 0.24344 0.60923 0.0
H178 H 0.50416 0.17336 0.53503 0.0
C179 C 0.63481 0.18098 0.75776 0.0
C180 C 0.09932 0.56702 0.5287 0.0
C181 C 0.10853 0.52994 0.59087 0.0
H182 H 0.10197 0.59908 0.35418 0.0
C183 C 0.13739 0.49904 0.53587 0.0
H184 H 0.07881 0.59169 0.57167 0.0
C185 C 0.15169 0.50373 0.41432 0.0
C186 C 0.13734 0.53927 0.34785 0.0
H187 H 0.14628 0.4705 0.58352 0.0
H188 H 0.16903 0.47837 0.36765 0.0
C189 C 0.11407 0.57176 0.40683 0.0
C190 C 0.65921 0.04745 0.16413 0.0
C191 C 0.60849 0.02853 0.20177 0.0
H192 H 0.70503 0.05953 0.00636 0.0
C193 C 0.57124 1.00115 0.11815 0.0
H194 H 0.68929 0.06798 0.22888 0.0
C195 C 0.58064 0.99626 -0.00756 0.0
C196 C 0.62757 1.01838 -0.04826 0.0
H197 H 0.5326 0.9857 0.14677 0.0
H198 H 0.54845 0.97795 0.92425 0.0
C199 C 0.66903 0.04209 0.03862 0.0
C200 C 0.5207 0.55004 0.41094 0.0
C201 C 0.54477 0.51758 0.48446 0.0
H202 H 0.52153 0.58433 0.24125 0.0
C203 C 0.58018 0.48993 0.43294 0.0
H204 H 0.49344 0.57167 0.45061 0.0
C205 C 0.59787 0.49772 0.31511 0.0
C206 C 0.57956 0.53293 0.24833 0.0
H207 H 0.59964 0.46498 0.4898 0.0
H208 H 0.62815 0.47727 0.2799 0.0
C209 C 0.5382 0.55781 0.29335 0.0
loop_
_geom_bond_atom_site_label_1
_geom_bond_atom_site_label_2
_geom_bond_distance
_geom_bond_site_symmetry_2
_ccdc_geom_bond_type
Dy0 O3 2.307 1_455 S
Dy0 O5 2.395 . S
Dy0 O6 2.379 . S
Dy0 O8 2.339 . S
Dy0 O10 2.298 . S
Dy0 O14 2.275 1_554 S
Dy0 C22 2.738 . S
Dy1 O4 2.298 1_455 S
Dy1 O7 2.275 . S
Dy1 O9 2.307 . S
Dy1 O11 2.395 1_455 S
Dy1 O12 2.379 1_454 S
Dy1 O15 2.339 1_554 S
Dy1 C31 2.738 1_455 S
C2 O14 1.254 . S
C2 O15 1.257 . S
O3 Dy0 2.307 1_655 S
O3 C13 1.266 . S
O4 Dy1 2.298 1_655 S
O4 C13 1.236 . S
O5 Dy0 2.395 . S
O5 C22 1.255 . S
O6 Dy0 2.379 . S
O6 C22 1.249 . S
O7 Dy1 2.275 . S
O7 C23 1.254 . S
O8 Dy0 2.339 . S
O8 C23 1.257 . S
O9 Dy1 2.307 . S
O9 C24 1.266 . S
O10 Dy0 2.298 . S
O10 C24 1.236 . S
O11 Dy1 2.395 1_655 S
O11 C31 1.255 . S
O12 Dy1 2.379 1_656 S
O12 C31 1.249 1_556 S
C13 O3 1.266 . S
C13 O4 1.236 . S
O14 Dy0 2.275 1_556 S
O14 C2 1.254 . S
O15 Dy1 2.339 1_556 S
O15 C2 1.257 . S
C16 C19 1.344 1_554 S
C16 C20 1.328 . S
C16 C22 1.516 . S
C17 C18 1.304 1_554 S
C17 C21 1.323 . S
C18 C17 1.304 1_556 S
C18 C19 1.371 . S
C18 H32 0.930 . S
C19 C16 1.344 1_556 S
C19 C18 1.371 . S
C19 H33 0.931 . S
C20 C16 1.328 . S
C20 C21 1.433 . S
C20 H34 0.931 . S
C21 C17 1.323 . S
C21 C20 1.433 . S
C21 H35 0.933 . S
C22 Dy0 2.738 . S
C22 O5 1.255 . S
C22 O6 1.249 . S
C22 C16 1.516 . S
C23 O7 1.254 . S
C23 O8 1.257 . S
C24 O9 1.266 . S
C24 O10 1.236 . S
C25 C28 1.344 . S
C25 C29 1.328 . S
C25 C31 1.516 . S
C26 C27 1.304 . S
C26 C30 1.323 . S
C27 C26 1.304 . S
C27 C28 1.371 . S
C27 H36 0.930 . S
C28 C25 1.344 . S
C28 C27 1.371 . S
C28 H37 0.931 . S
C29 C25 1.328 . S
C29 C30 1.433 . S
C29 H38 0.931 1_554 S
C30 C26 1.323 . S
C30 C29 1.433 . S
C30 H39 0.933 1_554 S
C31 Dy1 2.738 1_655 S
C31 O11 1.255 . S
C31 O12 1.249 1_554 S
C31 C25 1.516 . S
H32 C18 0.930 . S
H33 C19 0.931 . S
H34 C20 0.931 . S
H35 C21 0.933 . S
H36 C27 0.930 . S
H37 C28 0.931 . S
H38 C29 0.931 1_556 S
H39 C30 0.933 1_556 S
Dy40 O43 2.317 . S
Dy40 O45 2.388 1_545 S
Dy40 O46 2.372 1_545 S
Dy40 O48 2.340 . S
Dy40 O50 2.289 1_545 S
Dy40 O54 2.276 . S
Dy40 C62 2.730 1_545 S
Dy41 O44 2.298 . S
Dy41 O47 2.275 . S
Dy41 O49 2.307 1_545 S
Dy41 O51 2.395 . S
Dy41 O52 2.379 . S
Dy41 O55 2.339 . S
Dy41 C71 2.738 . S
C42 O54 1.254 . S
C42 O55 1.257 . S
O43 Dy40 2.317 . S
O43 C53 1.266 . S
O44 Dy41 2.298 . S
O44 C53 1.236 . S
O45 Dy40 2.388 1_565 S
O45 C62 1.255 . S
O46 Dy40 2.372 1_565 S
O46 C62 1.249 . S
O47 Dy41 2.275 . S
O47 C63 1.254 . S
O48 Dy40 2.340 . S
O48 C63 1.257 . S
O49 Dy41 2.307 1_565 S
O49 C64 1.266 . S
O50 Dy40 2.289 1_565 S
O50 C64 1.236 . S
O51 Dy41 2.395 . S
O51 C71 1.255 . S
O52 Dy41 2.379 . S
O52 C71 1.249 . S
C53 O43 1.266 . S
C53 O44 1.236 . S
O54 Dy40 2.276 . S
O54 C42 1.254 . S
O55 Dy41 2.339 . S
O55 C42 1.257 . S
C56 C59 1.344 . S
C56 C60 1.328 . S
C56 C62 1.516 . S
C57 C58 1.304 . S
C57 C61 1.323 . S
C58 C57 1.304 . S
C58 C59 1.371 . S
C58 H72 0.930 . S
C59 C56 1.344 . S
C59 C58 1.371 . S
C59 H73 0.931 . S
C60 C56 1.328 . S
C60 C61 1.433 . S
C60 H74 0.931 . S
C61 C57 1.323 . S
C61 C60 1.433 . S
C61 H75 0.933 . S
C62 Dy40 2.730 1_565 S
C62 O45 1.255 . S
C62 O46 1.249 . S
C62 C56 1.516 . S
C63 O47 1.254 . S
C63 O48 1.257 . S
C64 O49 1.266 . S
C64 O50 1.236 . S
C65 C68 1.344 . S
C65 C69 1.328 . S
C65 C71 1.516 . S
C66 C67 1.304 . S
C66 C70 1.323 . S
C67 C66 1.304 . S
C67 C68 1.371 . S
C67 H76 0.930 . S
C68 C65 1.344 . S
C68 C67 1.371 . S
C68 H77 0.931 . S
C69 C65 1.328 . S
C69 C70 1.433 . S
C69 H78 0.931 . S
C70 C66 1.323 . S
C70 C69 1.433 . S
C70 H79 0.933 . S
C71 Dy41 2.738 . S
C71 O51 1.255 . S
C71 O52 1.249 . S
C71 C65 1.516 . S
H72 C58 0.930 . S
H73 C59 0.931 . S
H74 C60 0.931 . S
H75 C61 0.933 . S
H76 C67 0.930 . S
H77 C68 0.931 . S
H78 C69 0.931 . S
H79 C70 0.933 . S
Dy80 O83 2.307 . S
Dy80 O85 2.395 . S
Dy80 O86 2.379 . S
Dy80 O88 2.339 . S
Dy80 O90 2.298 . S
Dy80 O94 2.275 1_556 S
Dy80 C102 2.738 . S
Dy81 O84 2.298 . S
Dy81 O87 2.275 . S
Dy81 O89 2.307 . S
Dy81 O91 2.395 . S
Dy81 O92 2.379 . S
Dy81 O95 2.339 1_556 S
Dy81 C111 2.738 . S
C82 O94 1.254 . S
C82 O95 1.257 . S
O83 Dy80 2.307 . S
O83 C93 1.266 . S
O84 Dy81 2.298 . S
O84 C93 1.236 . S
O85 Dy80 2.395 . S
O85 C102 1.255 . S
O86 Dy80 2.379 . S
O86 C102 1.249 . S
O87 Dy81 2.275 . S
O87 C103 1.254 . S
O88 Dy80 2.339 . S
O88 C103 1.257 . S
O89 Dy81 2.307 . S
O89 C104 1.266 . S
O90 Dy80 2.298 . S
O90 C104 1.236 . S
O91 Dy81 2.395 . S
O91 C111 1.255 . S
O92 Dy81 2.379 . S
O92 C111 1.249 . S
C93 O83 1.266 . S
C93 O84 1.236 . S
O94 Dy80 2.275 1_554 S
O94 C82 1.254 . S
O95 Dy81 2.339 1_554 S
O95 C82 1.257 . S
C96 C99 1.344 1_556 S
C96 C100 1.328 . S
C96 C102 1.516 . S
C97 C98 1.304 1_556 S
C97 C101 1.323 . S
C98 C97 1.304 1_554 S
C98 C99 1.371 . S
C98 H112 0.930 . S
C99 C96 1.344 1_554 S
C99 C98 1.371 . S
C99 H113 0.931 . S
C100 C96 1.328 . S
C100 C101 1.433 . S
C100 H114 0.931 . S
C101 C97 1.323 . S
C101 C100 1.433 . S
C101 H115 0.933 . S
C102 Dy80 2.738 . S
C102 O85 1.255 . S
C102 O86 1.249 . S
C102 C96 1.516 . S
C103 O87 1.254 . S
C103 O88 1.257 . S
C104 O89 1.266 . S
C104 O90 1.236 . S
C105 C108 1.344 . S
C105 C109 1.328 . S
C105 C111 1.516 . S
C106 C107 1.304 . S
C106 C110 1.323 . S
C107 C106 1.304 . S
C107 C108 1.371 . S
C107 H116 0.930 . S
C108 C105 1.344 . S
C108 C107 1.371 . S
C108 H117 0.931 . S
C109 C105 1.328 . S
C109 C110 1.433 . S
C109 H118 0.931 1_556 S
C110 C106 1.323 . S
C110 C109 1.433 . S
C110 H119 0.933 . S
C111 Dy81 2.738 . S
C111 O91 1.255 . S
C111 O92 1.249 . S
C111 C105 1.516 . S
H112 C98 0.930 . S
H113 C99 0.931 . S
H114 C100 0.931 . S
H115 C101 0.933 . S
H116 C107 0.930 . S
H117 C108 0.931 . S
H118 C109 0.931 1_554 S
H119 C110 0.933 . S
C120 C121 1.387 1_556 S
C120 H124 0.950 . S
C120 C129 1.390 . S
C121 C120 1.387 1_554 S
C121 C123 1.387 . S
H122 C129 0.950 . S
C123 C121 1.387 . S
C123 C125 1.390 . S
C123 H127 0.950 . S
H124 C120 0.950 . S
C125 C123 1.390 . S
C125 C126 1.387 1_554 S
C125 H128 0.950 . S
C126 C125 1.387 1_556 S
C126 C129 1.387 . S
H127 C123 0.950 . S
H128 C125 0.950 . S
C129 C120 1.390 . S
C129 H122 0.950 . S
C129 C126 1.387 . S
C130 C131 1.387 . S
C130 H134 0.950 . S
C130 C139 1.390 . S
C131 C130 1.387 . S
C131 C133 1.387 . S
H132 C139 0.950 . S
C133 C131 1.387 . S
C133 C135 1.390 . S
C133 H137 0.950 . S
H134 C130 0.950 . S
C135 C133 1.390 . S
C135 C136 1.387 . S
C135 H138 0.950 . S
C136 C135 1.387 . S
C136 C139 1.387 . S
H137 C133 0.950 . S
H138 C135 0.950 . S
C139 C130 1.390 . S
C139 H132 0.950 . S
C139 C136 1.387 . S
C140 C141 1.387 . S
C140 H144 0.950 . S
C140 C149 1.390 . S
C141 C140 1.387 . S
C141 C143 1.387 . S
H142 C149 0.950 . S
C143 C141 1.387 . S
C143 C145 1.390 . S
C143 H147 0.950 . S
H144 C140 0.950 . S
C145 C143 1.390 . S
C145 C146 1.387 . S
C145 H148 0.950 . S
C146 C145 1.387 . S
C146 C149 1.387 . S
H147 C143 0.950 . S
H148 C145 0.950 . S
C149 C140 1.390 . S
C149 H142 0.950 . S
C149 C146 1.387 . S
C150 C151 1.387 1_554 S
C150 H154 0.950 . S
C150 C159 1.390 . S
C151 C150 1.387 1_556 S
C151 C153 1.387 . S
H152 C159 0.950 . S
C153 C151 1.387 . S
C153 C155 1.390 . S
C153 H157 0.950 . S
H154 C150 0.950 . S
C155 C153 1.390 . S
C155 C156 1.387 1_556 S
C155 H158 0.950 . S
C156 C155 1.387 1_554 S
C156 C159 1.387 . S
H157 C153 0.950 . S
H158 C155 0.950 . S
C159 C150 1.390 . S
C159 H152 0.950 . S
C159 C156 1.387 . S
C160 C161 1.387 . S
C160 H164 0.950 . S
C160 C169 1.390 . S
C161 C160 1.387 . S
C161 C163 1.387 . S
H162 C169 0.950 . S
C163 C161 1.387 . S
C163 C165 1.390 . S
C163 H167 0.950 . S
H164 C160 0.950 . S
C165 C163 1.390 . S
C165 C166 1.387 . S
C165 H168 0.950 . S
C166 C165 1.387 . S
C166 C169 1.387 . S
H167 C163 0.950 . S
H168 C165 0.950 . S
C169 C160 1.390 . S
C169 H162 0.950 . S
C169 C166 1.387 . S
C170 C171 1.387 . S
C170 H174 0.950 . S
C170 C179 1.390 . S
C171 C170 1.387 . S
C171 C173 1.387 . S
H172 C179 0.950 . S
C173 C171 1.387 . S
C173 C175 1.390 . S
C173 H177 0.950 . S
H174 C170 0.950 . S
C175 C173 1.390 . S
C175 C176 1.387 . S
C175 H178 0.950 . S
C176 C175 1.387 . S
C176 C179 1.387 . S
H177 C173 0.950 . S
H178 C175 0.950 . S
C179 C170 1.390 . S
C179 H172 0.950 . S
C179 C176 1.387 . S
C180 C181 1.387 . S
C180 H184 0.950 . S
C180 C189 1.390 . S
C181 C180 1.387 . S
C181 C183 1.387 . S
H182 C189 0.950 . S
C183 C181 1.387 . S
C183 C185 1.390 . S
C183 H187 0.950 1_455 S
H184 C180 0.950 . S
C185 C183 1.390 . S
C185 C186 1.387 . S
C185 H188 0.950 . S
C186 C185 1.387 . S
C186 C189 1.387 . S
H187 C183 0.950 1_655 S
H188 C185 0.950 . S
C189 C180 1.390 . S
C189 H182 0.950 . S
C189 C186 1.387 . S
C190 C191 1.387 . S
C190 H194 0.950 . S
C190 C199 1.390 1_554 S
C191 C190 1.387 . S
C191 C193 1.387 1_545 S
H192 C199 0.950 . S
C193 C191 1.387 1_565 S
C193 C195 1.390 1_554 S
C193 H197 0.950 . S
H194 C190 0.950 . S
C195 C193 1.390 1_556 S
C195 C196 1.387 1_565 S
C195 H198 0.950 . S
C196 C195 1.387 1_545 S
C196 C199 1.387 . S
H197 C193 0.950 . S
H198 C195 0.950 . S
C199 C190 1.390 1_556 S
C199 H192 0.950 . S
C199 C196 1.387 . S
C200 C201 1.387 . S
C200 H204 0.950 . S
C200 C209 1.390 . S
C201 C200 1.387 . S
C201 C203 1.387 . S
H202 C209 0.950 . S
C203 C201 1.387 . S
C203 C205 1.390 . S
C203 H207 0.950 . S
H204 C200 0.950 . S
C205 C203 1.390 . S
C205 C206 1.387 . S
C205 H208 0.950 . S
C206 C205 1.387 . S
C206 C209 1.387 . S
H207 C203 0.950 . S
H208 C205 0.950 . S
C209 C200 1.390 . S
C209 H202 0.950 . S
C209 C206 1.387 . S
C121 C24 2.926 . S
C126 C104 2.890 . S
C131 C66 1.593 . S
C136 C26 1.658 . S
C141 C64 2.664 . S
C146 C97 2.610 . S
C151 C93 2.518 . S
C156 C13 2.545 . S
C161 C57 1.676 . S
C166 C17 1.725 . S
C171 C106 2.081 . S
C176 C53 2.043 . S
C181 C2 0.782 . S
C186 C23 0.782 . S
C191 C63 0.796 . S
C196 C42 0.796 . S
C201 C103 0.802 . S
C206 C82 0.802 . S
