# Generated by pormake.
# Topology una, (4)-cn, num edge types: 1
# Building blocks:
#     Node 0, Type 0, BuildingBlock: AZAVOO_clean_sbu_0, # of connection points: 4
#     Node 1, Type 0, BuildingBlock: AZAVOO_clean_sbu_0, # of connection points: 4
#     Node 2, Type 0, BuildingBlock: AZAVOO_clean_sbu_0, # of connection points: 4
#     Node 3, Type 0, BuildingBlock: AZAVOO_clean_sbu_0, # of connection points: 4
#     Node 4, Type 0, BuildingBlock: AZAVOO_clean_sbu_0, # of connection points: 4
#     Node 5, Type 0, BuildingBlock: AZAVOO_clean_sbu_0, # of connection points: 4
#     Node 6, Type 0, BuildingBlock: AZAVOO_clean_sbu_0, # of connection points: 4
#     Node 7, Type 0, BuildingBlock: AZAVOO_clean_sbu_0, # of connection points: 4
#     Node 8, Type 0, BuildingBlock: AZAVOO_clean_sbu_0, # of connection points: 4
#     Node 9, Type 0, BuildingBlock: AZAVOO_clean_sbu_0, # of connection points: 4
#     Node 10, Type 0, BuildingBlock: AZAVOO_clean_sbu_0, # of connection points: 4
#     Node 11, Type 0, BuildingBlock: AZAVOO_clean_sbu_0, # of connection points: 4
#     Edge 12, Type (0, 0), None
#     Edge 13, Type (0, 0), None
#     Edge 14, Type (0, 0), None
#     Edge 15, Type (0, 0), None
#     Edge 16, Type (0, 0), None
#     Edge 17, Type (0, 0), None
#     Edge 18, Type (0, 0), None
#     Edge 19, Type (0, 0), None
#     Edge 20, Type (0, 0), None
#     Edge 21, Type (0, 0), None
#     Edge 22, Type (0, 0), None
#     Edge 23, Type (0, 0), None
#     Edge 24, Type (0, 0), None
#     Edge 25, Type (0, 0), None
#     Edge 26, Type (0, 0), None
#     Edge 27, Type (0, 0), None
#     Edge 28, Type (0, 0), None
#     Edge 29, Type (0, 0), None
#     Edge 30, Type (0, 0), None
#     Edge 31, Type (0, 0), None
#     Edge 32, Type (0, 0), None
#     Edge 33, Type (0, 0), None
#     Edge 34, Type (0, 0), None
#     Edge 35, Type (0, 0), None
# Relax obj value: 0.183
# Max RMSD: 0.212
# Mean RMSD: 0.205
data_MOF--net-una--node1-AZAVOO_clean_sbu_0--edge1-none
_symmetry_space_group_name_H-M    P1
_symmetry_Int_Tables_number       1
_symmetry_cell_setting            triclinic
loop_
_symmetry_equiv_pos_as_xyz
'x, y, z'
_cell_length_a     25.76916
_cell_length_b     25.036043
_cell_length_c     11.28376
_cell_angle_alpha  89.995679
_cell_angle_beta   90.008748
_cell_angle_gamma 120.82934
loop_
_atom_site_label
_atom_site_type_symbol
_atom_site_fract_x
_atom_site_fract_y
_atom_site_fract_z
_atom_type_partial_charge
Mg0 Mg 0.15279 0.42298 -0.01724 0.0
O1 O 0.16936 0.51822 0.04425 0.0
O2 O 0.27007 0.57651 0.05801 0.0
Mg3 Mg 0.31535 0.51815 0.05014 0.0
C4 C 0.21781 0.57061 0.05889 0.0
C5 C 0.05314 0.43159 0.82943 0.0
O6 O 0.09809 0.48834 0.80966 0.0
O7 O 0.19883 0.46682 0.81214 0.0
O8 O 0.2978 0.50846 0.85172 0.0
O9 O 0.14212 0.38703 0.16966 0.0
O10 O 0.22807 0.43339 0.07163 0.0
C11 C 0.25395 0.49316 0.78033 0.0
C12 C 0.19945 0.40679 0.16604 0.0
O13 O 0.06018 0.39675 0.90202 0.0
Mg14 Mg 0.71917 0.11558 0.14811 0.0
O15 O 0.75202 0.17852 -0.01918 0.0
O16 O 0.66993 0.1359 0.86465 0.0
Mg17 Mg 0.58932 0.05206 -0.05761 0.0
C18 C 0.72517 0.17642 0.88398 0.0
C19 C 0.84847 0.23491 0.28332 0.0
O20 O 0.88557 0.26095 0.19371 0.0
O21 O 0.65893 0.15245 0.21407 0.0
O22 O 0.58081 0.10895 0.08895 0.0
O23 O 0.74258 0.04737 0.05703 0.0
O24 O 0.655 0.04194 0.04836 0.0
C25 C 0.60738 0.14223 0.17946 0.0
C26 C 0.688 0.02022 0.01608 0.0
O27 O 0.79565 0.18802 0.26764 0.0
Mg28 Mg 0.58815 0.70054 0.32066 0.0
O29 O 0.48666 0.62419 0.34522 0.0
O30 O 0.44355 0.67521 0.41994 0.0
Mg31 Mg 0.51274 0.77616 0.46027 0.0
C32 C 0.44016 0.62584 0.38008 0.0
C33 C 0.66629 0.66397 0.19231 0.0
O34 O 0.701 0.71272 0.25831 0.0
O35 O 0.56389 0.74168 0.16183 0.0
O36 O 0.52556 0.79076 0.26214 0.0
O37 O 0.61286 0.68824 0.51058 0.0
O38 O 0.583 0.75269 0.45871 0.0
C39 C 0.54161 0.77703 0.16534 0.0
C40 C 0.60047 0.73033 0.5408 0.0
O41 O 0.60936 0.64082 0.1969 0.0
Mg42 Mg 0.87293 0.56801 0.48282 0.0
O43 O 0.85633 0.47276 0.54432 0.0
O44 O 0.75562 0.41449 0.55804 0.0
Mg45 Mg 0.71036 0.47287 0.55012 0.0
C46 C 0.80787 0.42037 0.55894 0.0
C47 C 0.97256 0.55937 0.32956 0.0
O48 O 0.92761 0.5026 0.30985 0.0
O49 O 0.82689 0.52418 0.31219 0.0
O50 O 0.72792 0.48255 0.35171 0.0
O51 O 0.8836 0.60396 0.66973 0.0
O52 O 0.79766 0.55762 0.57165 0.0
C53 C 0.77177 0.49784 0.28035 0.0
C54 C 0.82627 0.58421 0.66608 0.0
O55 O 0.96553 0.59423 0.4021 0.0
Mg56 Mg 0.3065 0.87534 0.6481 0.0
O57 O 0.27363 0.81241 0.48079 0.0
O58 O 0.35572 0.85503 0.36466 0.0
Mg59 Mg 0.43634 0.93886 0.44242 0.0
C60 C 0.30048 0.81452 0.38396 0.0
C61 C 0.17717 0.75604 0.78326 0.0
O62 O 0.14004 0.73003 0.69364 0.0
O63 O 0.36672 0.83845 0.71406 0.0
O64 O 0.44484 0.88194 0.58896 0.0
O65 O 0.2831 0.94357 0.55703 0.0
O66 O 0.37068 0.94898 0.54838 0.0
C67 C 0.41827 0.84866 0.67946 0.0
C68 C 0.33768 0.97071 0.5161 0.0
O69 O 0.23 0.80291 0.76759 0.0
Mg70 Mg 0.43758 0.29041 0.8206 0.0
O71 O 0.53906 0.36676 0.84518 0.0
O72 O 0.5822 0.31576 0.91992 0.0
Mg73 Mg 0.51303 0.21481 -0.03974 0.0
C74 C 0.58557 0.36513 0.88006 0.0
C75 C 0.35943 0.32698 0.6923 0.0
O76 O 0.32473 0.27825 0.75832 0.0
O77 O 0.46184 0.24926 0.66179 0.0
O78 O 0.50019 0.20019 0.76213 0.0
O79 O 0.41288 0.3027 0.01049 0.0
O80 O 0.44275 0.23826 -0.04133 0.0
C81 C 0.48413 0.21391 0.66531 0.0
C82 C 0.42527 0.26062 0.04074 0.0
O83 O 0.41636 0.35012 0.69684 0.0
Mg84 Mg 0.5975 0.87396 0.79761 0.0
O85 O 0.56781 0.81075 -0.03556 0.0
O86 O 0.52879 0.8538 0.08104 0.0
Mg87 Mg 0.5322 0.93814 0.00461 0.0
C88 C 0.54324 0.81298 0.06139 0.0
C89 C 0.60576 0.75372 0.66271 0.0
O90 O 0.61596 0.72733 0.75306 0.0
O91 O 0.50049 0.83772 0.73286 0.0
O92 O 0.46641 0.88176 0.85836 0.0
O93 O 0.68928 0.94156 0.88788 0.0
O94 O 0.60754 0.94774 0.89797 0.0
C95 C 0.45944 0.84835 0.76785 0.0
C96 C 0.66221 0.96903 0.92959 0.0
O97 O 0.60067 0.8013 0.67729 0.0
Mg98 Mg 0.73085 0.56912 -0.04625 0.0
O99 O 0.65068 0.47481 0.89345 0.0
O100 O 0.69154 0.41479 0.88127 0.0
Mg101 Mg 0.79509 0.47102 0.88567 0.0
C102 C 0.64578 0.42177 0.88068 0.0
C103 C 0.69487 0.63737 0.11915 0.0
O104 O 0.75213 0.65645 0.1374 0.0
O105 O 0.73173 0.52394 0.12365 0.0
O106 O 0.78909 0.48211 0.08429 0.0
O107 O 0.75637 0.60546 0.76702 0.0
O108 O 0.79409 0.55671 0.86371 0.0
C109 C 0.76062 0.49762 0.1556 0.0
C110 C 0.79288 0.58426 0.7699 0.0
O111 O 0.66698 0.59781 0.03728 0.0
Mg112 Mg 0.14267 0.70336 0.12602 0.0
O113 O 0.16748 0.62674 0.09866 0.0
O114 O 0.26106 0.67704 0.02228 0.0
Mg115 Mg 0.29296 0.77836 -0.01578 0.0
C116 C 0.21509 0.62782 0.06208 0.0
C117 C 0.02671 0.58574 0.25344 0.0
O118 O 0.03239 0.55076 0.17394 0.0
O119 O 0.20872 0.74402 0.28346 0.0
O120 O 0.29579 0.79276 0.18277 0.0
O121 O 0.10506 0.6914 -0.06344 0.0
O122 O 0.19938 0.75539 -0.01285 0.0
C123 C 0.26622 0.77894 0.27977 0.0
C124 C 0.15938 0.73312 0.90556 0.0
O125 O 0.06356 0.64412 0.25362 0.0
Mg126 Mg 0.42818 0.11696 0.29761 0.0
O127 O 0.4579 0.18019 0.46442 0.0
O128 O 0.49693 0.13713 0.58105 0.0
Mg129 Mg 0.49349 0.05277 0.50464 0.0
C130 C 0.48248 0.17796 0.56137 0.0
C131 C 0.41997 0.23722 0.16265 0.0
O132 O 0.40979 0.26363 0.25299 0.0
O133 O 0.52517 0.15317 0.23285 0.0
O134 O 0.55926 0.10913 0.35837 0.0
O135 O 0.33641 0.04938 0.38787 0.0
O136 O 0.41814 0.04318 0.39799 0.0
C137 C 0.56622 0.14254 0.26784 0.0
C138 C 0.36348 0.0219 0.42961 0.0
O139 O 0.42503 0.18963 0.17725 0.0
Mg140 Mg 0.29486 0.42187 0.45377 0.0
O141 O 0.37504 0.51616 0.39349 0.0
O142 O 0.3342 0.57621 0.38125 0.0
Mg143 Mg 0.23065 0.51999 0.38561 0.0
C144 C 0.37995 0.56921 0.3807 0.0
C145 C 0.33084 0.35359 0.61915 0.0
O146 O 0.27358 0.33451 0.63738 0.0
O147 O 0.29399 0.46704 0.62367 0.0
O148 O 0.23664 0.5089 0.58424 0.0
O149 O 0.26934 0.38553 0.26704 0.0
O150 O 0.23163 0.43428 0.36369 0.0
C151 C 0.2651 0.49338 0.65559 0.0
C152 C 0.23284 0.40674 0.26989 0.0
O153 O 0.35873 0.39316 0.53731 0.0
Mg154 Mg 0.88296 0.28759 0.62609 0.0
O155 O 0.85817 0.36422 0.59872 0.0
O156 O 0.76459 0.31394 0.52232 0.0
Mg157 Mg 0.73268 0.21261 0.48424 0.0
C158 C 0.81057 0.36315 0.56213 0.0
C159 C 0.99897 0.4052 0.75334 0.0
O160 O 0.99331 0.44014 0.67371 0.0
O161 O 0.81693 0.24693 0.78351 0.0
O162 O 0.72984 0.1982 0.68279 0.0
O163 O 0.92057 0.29955 0.43665 0.0
O164 O 0.82625 0.23556 0.4872 0.0
C165 C 0.75942 0.21201 0.7798 0.0
C166 C 0.86625 0.25783 0.40563 0.0
O167 O 0.96209 0.34683 0.75367 0.0
loop_
_geom_bond_atom_site_label_1
_geom_bond_atom_site_label_2
_geom_bond_distance
_geom_bond_site_symmetry_2
_ccdc_geom_bond_type
Mg0 O1 2.028 . S
Mg0 O7 1.986 1_554 S
Mg0 O9 2.114 . S
Mg0 O10 2.251 . S
Mg0 O13 2.010 1_554 S
O1 Mg0 2.028 . S
O1 C4 1.250 . S
O2 Mg3 2.028 . S
O2 C4 1.248 . S
Mg3 O2 2.028 . S
Mg3 O8 2.032 1_554 S
Mg3 O10 2.079 . S
C4 O1 1.250 . S
C4 O2 1.248 . S
C5 O6 1.264 1_455 S
C5 O13 1.249 . S
O6 C5 1.264 1_655 S
O7 Mg0 1.986 1_556 S
O7 C11 1.246 . S
O8 Mg3 2.032 1_556 S
O8 C11 1.259 . S
O9 Mg0 2.114 . S
O9 C12 1.252 . S
O10 Mg0 2.251 . S
O10 Mg3 2.079 . S
O10 C12 1.273 . S
C11 O7 1.246 . S
C11 O8 1.259 . S
C12 O9 1.252 . S
C12 O10 1.273 . S
O13 Mg0 2.010 1_556 S
O13 C5 1.249 . S
Mg14 O15 2.028 . S
Mg14 O21 1.986 . S
Mg14 O23 2.114 . S
Mg14 O24 2.251 . S
Mg14 O27 2.010 . S
O15 Mg14 2.028 . S
O15 C18 1.250 . S
O16 Mg17 2.028 . S
O16 C18 1.248 1_556 S
Mg17 O16 2.028 . S
Mg17 O22 2.032 1_556 S
Mg17 O24 2.079 1_556 S
C18 O15 1.250 . S
C18 O16 1.248 1_554 S
C19 O20 1.264 . S
C19 O27 1.249 . S
O20 C19 1.264 . S
O21 Mg14 1.986 . S
O21 C25 1.246 . S
O22 Mg17 2.032 1_554 S
O22 C25 1.259 . S
O23 Mg14 2.114 . S
O23 C26 1.252 . S
O24 Mg14 2.251 . S
O24 Mg17 2.079 1_554 S
O24 C26 1.273 . S
C25 O21 1.246 . S
C25 O22 1.259 . S
C26 O23 1.252 . S
C26 O24 1.273 . S
O27 Mg14 2.010 . S
O27 C19 1.249 . S
Mg28 O29 2.028 . S
Mg28 O35 1.986 . S
Mg28 O37 2.114 . S
Mg28 O38 2.251 . S
Mg28 O41 2.010 . S
O29 Mg28 2.028 . S
O29 C32 1.250 . S
O30 Mg31 2.028 . S
O30 C32 1.248 . S
Mg31 O30 2.028 . S
Mg31 O36 2.032 . S
Mg31 O38 2.079 . S
C32 O29 1.250 . S
C32 O30 1.248 . S
C33 O34 1.264 . S
C33 O41 1.249 . S
O34 C33 1.264 . S
O35 Mg28 1.986 . S
O35 C39 1.246 . S
O36 Mg31 2.032 . S
O36 C39 1.259 . S
O37 Mg28 2.114 . S
O37 C40 1.252 . S
O38 Mg28 2.251 . S
O38 Mg31 2.079 . S
O38 C40 1.273 . S
C39 O35 1.246 . S
C39 O36 1.259 . S
C40 O37 1.252 . S
C40 O38 1.273 . S
O41 Mg28 2.010 . S
O41 C33 1.249 . S
Mg42 O43 2.028 . S
Mg42 O49 1.986 . S
Mg42 O51 2.114 . S
Mg42 O52 2.251 . S
Mg42 O55 2.010 . S
O43 Mg42 2.028 . S
O43 C46 1.250 . S
O44 Mg45 2.028 . S
O44 C46 1.248 . S
Mg45 O44 2.028 . S
Mg45 O50 2.032 . S
Mg45 O52 2.079 . S
C46 O43 1.250 . S
C46 O44 1.248 . S
C47 O48 1.264 1_655 S
C47 O55 1.249 . S
O48 C47 1.264 1_455 S
O49 Mg42 1.986 . S
O49 C53 1.246 . S
O50 Mg45 2.032 . S
O50 C53 1.259 . S
O51 Mg42 2.114 . S
O51 C54 1.252 . S
O52 Mg42 2.251 . S
O52 Mg45 2.079 . S
O52 C54 1.273 . S
C53 O49 1.246 . S
C53 O50 1.259 . S
C54 O51 1.252 . S
C54 O52 1.273 . S
O55 Mg42 2.010 . S
O55 C47 1.249 . S
Mg56 O57 2.028 . S
Mg56 O63 1.986 . S
Mg56 O65 2.114 . S
Mg56 O66 2.251 . S
Mg56 O69 2.010 . S
O57 Mg56 2.028 . S
O57 C60 1.250 . S
O58 Mg59 2.028 . S
O58 C60 1.248 . S
Mg59 O58 2.028 . S
Mg59 O64 2.032 . S
Mg59 O66 2.079 . S
C60 O57 1.250 . S
C60 O58 1.248 . S
C61 O62 1.264 . S
C61 O69 1.249 1_554 S
O62 C61 1.264 . S
O63 Mg56 1.986 . S
O63 C67 1.246 . S
O64 Mg59 2.032 . S
O64 C67 1.259 . S
O65 Mg56 2.114 . S
O65 C68 1.252 . S
O66 Mg56 2.251 . S
O66 Mg59 2.079 . S
O66 C68 1.273 . S
C67 O63 1.246 . S
C67 O64 1.259 . S
C68 O65 1.252 . S
C68 O66 1.273 . S
O69 Mg56 2.010 . S
O69 C61 1.249 1_556 S
Mg70 O71 2.028 . S
Mg70 O77 1.986 . S
Mg70 O79 2.114 1_556 S
Mg70 O80 2.251 . S
Mg70 O83 2.010 . S
O71 Mg70 2.028 . S
O71 C74 1.250 . S
O72 Mg73 2.028 . S
O72 C74 1.248 . S
Mg73 O72 2.028 . S
Mg73 O78 2.032 . S
Mg73 O80 2.079 . S
C74 O71 1.250 . S
C74 O72 1.248 . S
C75 O76 1.264 . S
C75 O83 1.249 . S
O76 C75 1.264 . S
O77 Mg70 1.986 . S
O77 C81 1.246 . S
O78 Mg73 2.032 . S
O78 C81 1.259 . S
O79 Mg70 2.114 1_554 S
O79 C82 1.252 . S
O80 Mg70 2.251 . S
O80 Mg73 2.079 . S
O80 C82 1.273 1_556 S
C81 O77 1.246 . S
C81 O78 1.259 . S
C82 O79 1.252 . S
C82 O80 1.273 1_554 S
O83 Mg70 2.010 . S
O83 C75 1.249 . S
Mg84 O85 2.028 . S
Mg84 O91 1.986 . S
Mg84 O93 2.114 . S
Mg84 O94 2.251 . S
Mg84 O97 2.010 . S
O85 Mg84 2.028 . S
O85 C88 1.250 1_556 S
O86 Mg87 2.028 . S
O86 C88 1.248 . S
Mg87 O86 2.028 . S
Mg87 O92 2.032 1_554 S
Mg87 O94 2.079 1_554 S
C88 O85 1.250 1_554 S
C88 O86 1.248 . S
C89 O90 1.264 . S
C89 O97 1.249 . S
O90 C89 1.264 . S
O91 Mg84 1.986 . S
O91 C95 1.246 . S
O92 Mg87 2.032 1_556 S
O92 C95 1.259 . S
O93 Mg84 2.114 . S
O93 C96 1.252 . S
O94 Mg84 2.251 . S
O94 Mg87 2.079 1_556 S
O94 C96 1.273 . S
C95 O91 1.246 . S
C95 O92 1.259 . S
C96 O93 1.252 . S
C96 O94 1.273 . S
O97 Mg84 2.010 . S
O97 C89 1.249 . S
Mg98 O99 2.028 . S
Mg98 O105 1.986 . S
Mg98 O107 2.114 1_554 S
Mg98 O108 2.251 1_554 S
Mg98 O111 2.010 . S
O99 Mg98 2.028 . S
O99 C102 1.250 1_554 S
O100 Mg101 2.028 . S
O100 C102 1.248 . S
Mg101 O100 2.028 . S
Mg101 O106 2.032 1_556 S
Mg101 O108 2.079 . S
C102 O99 1.250 1_556 S
C102 O100 1.248 . S
C103 O104 1.264 . S
C103 O111 1.249 . S
O104 C103 1.264 . S
O105 Mg98 1.986 . S
O105 C109 1.246 . S
O106 Mg101 2.032 1_554 S
O106 C109 1.259 . S
O107 Mg98 2.114 1_556 S
O107 C110 1.252 . S
O108 Mg98 2.251 1_556 S
O108 Mg101 2.079 . S
O108 C110 1.273 . S
C109 O105 1.246 . S
C109 O106 1.259 . S
C110 O107 1.252 . S
C110 O108 1.273 . S
O111 Mg98 2.010 . S
O111 C103 1.249 . S
Mg112 O113 2.028 . S
Mg112 O119 1.986 . S
Mg112 O121 2.114 . S
Mg112 O122 2.251 . S
Mg112 O125 2.010 . S
O113 Mg112 2.028 . S
O113 C116 1.250 . S
O114 Mg115 2.028 . S
O114 C116 1.248 . S
Mg115 O114 2.028 . S
Mg115 O120 2.032 . S
Mg115 O122 2.079 . S
C116 O113 1.250 . S
C116 O114 1.248 . S
C117 O118 1.264 . S
C117 O125 1.249 1_655 S
O118 C117 1.264 . S
O119 Mg112 1.986 . S
O119 C123 1.246 . S
O120 Mg115 2.032 . S
O120 C123 1.259 . S
O121 Mg112 2.114 . S
O121 C124 1.252 . S
O122 Mg112 2.251 . S
O122 Mg115 2.079 . S
O122 C124 1.273 . S
C123 O119 1.246 . S
C123 O120 1.259 . S
C124 O121 1.252 . S
C124 O122 1.273 . S
O125 Mg112 2.010 . S
O125 C117 1.249 1_455 S
Mg126 O127 2.028 . S
Mg126 O133 1.986 . S
Mg126 O135 2.114 . S
Mg126 O136 2.251 . S
Mg126 O139 2.010 . S
O127 Mg126 2.028 . S
O127 C130 1.250 . S
O128 Mg129 2.028 . S
O128 C130 1.248 . S
Mg129 O128 2.028 . S
Mg129 O134 2.032 . S
Mg129 O136 2.079 . S
C130 O127 1.250 . S
C130 O128 1.248 . S
C131 O132 1.264 1_554 S
C131 O139 1.249 . S
O132 C131 1.264 1_556 S
O133 Mg126 1.986 . S
O133 C137 1.246 . S
O134 Mg129 2.032 . S
O134 C137 1.259 . S
O135 Mg126 2.114 . S
O135 C138 1.252 . S
O136 Mg126 2.251 . S
O136 Mg129 2.079 . S
O136 C138 1.273 . S
C137 O133 1.246 . S
C137 O134 1.259 . S
C138 O135 1.252 . S
C138 O136 1.273 . S
O139 Mg126 2.010 . S
O139 C131 1.249 . S
Mg140 O141 2.028 . S
Mg140 O147 1.986 . S
Mg140 O149 2.114 . S
Mg140 O150 2.251 . S
Mg140 O153 2.010 . S
O141 Mg140 2.028 . S
O141 C144 1.250 . S
O142 Mg143 2.028 . S
O142 C144 1.248 . S
Mg143 O142 2.028 . S
Mg143 O148 2.032 . S
Mg143 O150 2.079 . S
C144 O141 1.250 . S
C144 O142 1.248 . S
C145 O146 1.264 . S
C145 O153 1.249 . S
O146 C145 1.264 . S
O147 Mg140 1.986 . S
O147 C151 1.246 . S
O148 Mg143 2.032 . S
O148 C151 1.259 . S
O149 Mg140 2.114 . S
O149 C152 1.252 . S
O150 Mg140 2.251 . S
O150 Mg143 2.079 . S
O150 C152 1.273 . S
C151 O147 1.246 . S
C151 O148 1.259 . S
C152 O149 1.252 . S
C152 O150 1.273 . S
O153 Mg140 2.010 . S
O153 C145 1.249 . S
Mg154 O155 2.028 . S
Mg154 O161 1.986 . S
Mg154 O163 2.114 . S
Mg154 O164 2.251 . S
Mg154 O167 2.010 . S
O155 Mg154 2.028 . S
O155 C158 1.250 . S
O156 Mg157 2.028 . S
O156 C158 1.248 . S
Mg157 O156 2.028 . S
Mg157 O162 2.032 . S
Mg157 O164 2.079 . S
C158 O155 1.250 . S
C158 O156 1.248 . S
C159 O160 1.264 . S
C159 O167 1.249 1_455 S
O160 C159 1.264 . S
O161 Mg154 1.986 . S
O161 C165 1.246 . S
O162 Mg157 2.032 . S
O162 C165 1.259 . S
O163 Mg154 2.114 . S
O163 C166 1.252 . S
O164 Mg154 2.251 . S
O164 Mg157 2.079 . S
O164 C166 1.273 . S
C165 O161 1.246 . S
C165 O162 1.259 . S
C166 O163 1.252 . S
C166 O164 1.273 . S
O167 Mg154 2.010 . S
O167 C159 1.249 1_655 S
C12 C152 1.472 . S
C166 C19 1.637 . S
C40 C89 1.637 . S
C54 C110 1.472 . S
C61 C124 1.637 . S
C131 C82 1.637 . S
C4 C116 1.616 . S
C25 C137 1.796 . S
C144 C32 1.616 . S
C46 C158 1.616 . S
C67 C95 1.796 . S
C74 C102 1.616 . S
C151 C11 0.994 . S
C18 C165 1.031 1_554 S
C39 C88 1.031 . S
C53 C109 0.994 . S
C123 C60 1.031 . S
C81 C130 1.031 . S
C5 C159 1.299 . S
C96 C26 1.922 1_566 S
C103 C33 1.299 . S
C117 C47 1.299 . S
C138 C68 1.922 1_545 S
C145 C75 1.299 . S
