# Generated by pormake.
# Topology npo, (4)-cn, num edge types: 1
# Building blocks:
#     Node 0, Type 0, BuildingBlock: NAHDIM_clean_sbu_0, # of connection points: 4
#     Node 1, Type 0, BuildingBlock: NAHDIM_clean_sbu_0, # of connection points: 4
#     Node 2, Type 0, BuildingBlock: NAHDIM_clean_sbu_0, # of connection points: 4
#     Node 3, Type 0, BuildingBlock: NAHDIM_clean_sbu_0, # of connection points: 4
#     Node 4, Type 0, BuildingBlock: NAHDIM_clean_sbu_0, # of connection points: 4
#     Node 5, Type 0, BuildingBlock: NAHDIM_clean_sbu_0, # of connection points: 4
#     Edge 6, Type (0, 0), None
#     Edge 7, Type (0, 0), None
#     Edge 8, Type (0, 0), None
#     Edge 9, Type (0, 0), None
#     Edge 10, Type (0, 0), None
#     Edge 11, Type (0, 0), None
#     Edge 12, Type (0, 0), None
#     Edge 13, Type (0, 0), None
#     Edge 14, Type (0, 0), None
#     Edge 15, Type (0, 0), None
#     Edge 16, Type (0, 0), None
#     Edge 17, Type (0, 0), None
# Relax obj value: 0.245
# Max RMSD: 0.233
# Mean RMSD: 0.224
data_MOF--net-npo--node1-NAHDIM_clean_sbu_0--edge1-none
_symmetry_space_group_name_H-M    P1
_symmetry_Int_Tables_number       1
_symmetry_cell_setting            triclinic
loop_
_symmetry_equiv_pos_as_xyz
'x, y, z'
_cell_length_a     19.174365
_cell_length_b     20.194259
_cell_length_c     11.198681
_cell_angle_alpha  93.703626
_cell_angle_beta   91.380745
_cell_angle_gamma 121.63505
loop_
_atom_site_label
_atom_site_type_symbol
_atom_site_fract_x
_atom_site_fract_y
_atom_site_fract_z
_atom_type_partial_charge
C0 C 0.4168 0.97165 0.38399 0.0
O1 O 0.37993 0.94011 0.27726 0.0
O2 O 0.62471 0.18311 0.27355 0.0
Zn3 Zn 0.50082 0.11664 0.26817 0.0
O4 O 0.45148 0.05493 0.10779 0.0
C5 C 0.46166 0.22666 0.19916 0.0
O6 O 0.46375 0.19673 0.09269 0.0
O7 O 0.46737 0.04488 0.40119 0.0
C8 C 0.48535 0.02605 0.046 0.0
O9 O 0.55505 0.03545 0.0868 0.0
C10 C 0.66773 0.19689 0.37077 0.0
O11 O 0.63226 0.15915 0.46384 0.0
O12 O 0.46869 0.19685 0.2919 0.0
C13 C 0.43178 0.53133 0.38193 0.0
O14 O 0.37086 0.54343 0.37884 0.0
O15 O 0.31332 0.51656 0.63584 0.0
Zn16 Zn 0.43592 0.56694 0.63617 0.0
O17 O 0.47542 0.5348 0.77607 0.0
C18 C 0.48995 0.71639 0.7586 0.0
O19 O 0.48457 0.67883 0.85271 0.0
O20 O 0.46877 0.538 0.48174 0.0
C21 C 0.55085 0.56505 0.80748 0.0
O22 O 0.60716 0.61879 0.74581 0.0
C23 C 0.27795 0.50031 0.73365 0.0
O24 O 0.31995 0.50686 0.83273 0.0
O25 O 0.47808 0.68209 0.6543 0.0
C26 C 0.90241 0.47167 0.59165 0.0
O27 O 0.83211 0.46826 0.58675 0.0
O28 O 0.80105 0.48311 0.33736 0.0
Zn29 Zn 0.86396 0.42893 0.33689 0.0
O30 O 0.93808 0.45934 0.19996 0.0
C31 C 0.75017 0.26741 0.38817 0.0
O32 O 0.78878 0.28966 0.49511 0.0
O33 O 0.92789 0.45558 0.49688 0.0
C34 C 0.01564 0.50366 0.21422 0.0
O35 O 0.05119 0.53194 0.3225 0.0
C36 C 0.77319 0.49045 0.23847 0.0
O37 O 0.79469 0.47153 0.13756 0.0
O38 O 0.77531 0.3149 0.30773 0.0
C39 C 0.40228 0.92212 0.48196 0.0
O40 O 0.34662 0.84713 0.46657 0.0
O41 O 0.47086 0.81349 0.68456 0.0
Zn42 Zn 0.42556 0.88298 0.71528 0.0
O43 O 0.47765 0.9492 0.87152 0.0
C44 C 0.2731 0.77088 0.81197 0.0
O45 O 0.31944 0.79122 0.91205 0.0
O46 O 0.44519 0.95106 0.58092 0.0
C47 C 0.44566 0.98103 0.93078 0.0
O48 O 0.37618 0.972 0.88969 0.0
C49 C 0.48876 0.78837 0.77431 0.0
O50 O 0.48735 0.81594 0.88302 0.0
O51 O 0.30376 0.80673 0.71993 0.0
C52 C 0.57423 0.54181 0.91513 0.0
O53 O 0.65201 0.57289 0.94907 0.0
O54 O 0.66333 0.4891 0.13735 0.0
Zn55 Zn 0.54491 0.45761 0.12725 0.0
O56 O 0.51591 0.49833 0.2744 0.0
C57 C 0.4737 0.30477 0.21097 0.0
O58 O 0.49347 0.3441 0.31696 0.0
O59 O 0.51888 0.49247 0.9771 0.0
C60 C 0.45515 0.50735 0.27138 0.0
O61 O 0.41163 0.49225 0.16988 0.0
C62 C 0.70217 0.4994 0.23695 0.0
O63 O 0.66804 0.49917 0.33731 0.0
O64 O 0.48402 0.34036 0.11721 0.0
C65 C 0.06479 0.52564 0.10934 0.0
O66 O 0.14444 0.57538 0.12282 0.0
O67 O 0.17231 0.49642 0.84343 0.0
Zn68 Zn 0.09573 0.53585 0.85983 0.0
O69 O 0.02189 0.50246 0.70858 0.0
C70 C 0.1949 0.69558 0.79756 0.0
O71 O 0.15905 0.6654 0.68985 0.0
O72 O 0.02998 0.499 0.00462 0.0
C73 C 0.95207 0.49539 0.70555 0.0
O74 O 0.92546 0.51089 0.80399 0.0
C75 C 0.1993 0.49551 0.74115 0.0
O76 O 0.16804 0.50957 0.64758 0.0
O77 O 0.17277 0.6526 0.88394 0.0
loop_
_geom_bond_atom_site_label_1
_geom_bond_atom_site_label_2
_geom_bond_distance
_geom_bond_site_symmetry_2
_ccdc_geom_bond_type
C0 O1 1.160 . S
C0 O7 1.185 . S
O1 C0 1.160 . S
O2 Zn3 1.899 . S
O2 C10 1.284 . S
Zn3 O2 1.899 . S
Zn3 O4 2.032 . S
Zn3 O7 2.086 . S
Zn3 O12 1.977 . S
O4 Zn3 2.032 . S
O4 C8 1.278 . S
C5 O6 1.203 . S
C5 O12 1.267 . S
O6 C5 1.203 . S
O7 C0 1.185 . S
O7 Zn3 2.086 . S
C8 O4 1.278 . S
C8 O9 1.211 1_554 S
O9 C8 1.211 1_556 S
C10 O2 1.284 . S
C10 O11 1.273 . S
O11 C10 1.273 . S
O12 Zn3 1.977 . S
O12 C5 1.267 . S
C13 O14 1.160 . S
C13 O20 1.185 . S
O14 C13 1.160 . S
O15 Zn16 1.899 . S
O15 C23 1.284 . S
Zn16 O15 1.899 . S
Zn16 O17 2.032 . S
Zn16 O20 2.086 . S
Zn16 O25 1.977 . S
O17 Zn16 2.032 . S
O17 C21 1.278 . S
C18 O19 1.203 . S
C18 O25 1.267 . S
O19 C18 1.203 . S
O20 C13 1.185 . S
O20 Zn16 2.086 . S
C21 O17 1.278 . S
C21 O22 1.211 . S
O22 C21 1.211 . S
C23 O15 1.284 . S
C23 O24 1.273 . S
O24 C23 1.273 . S
O25 Zn16 1.977 . S
O25 C18 1.267 . S
C26 O27 1.160 . S
C26 O33 1.185 . S
O27 C26 1.160 . S
O28 Zn29 1.899 . S
O28 C36 1.284 . S
Zn29 O28 1.899 . S
Zn29 O30 2.032 . S
Zn29 O33 2.086 . S
Zn29 O38 1.977 . S
O30 Zn29 2.032 . S
O30 C34 1.278 . S
C31 O32 1.203 . S
C31 O38 1.267 . S
O32 C31 1.203 . S
O33 C26 1.185 . S
O33 Zn29 2.086 . S
C34 O30 1.278 . S
C34 O35 1.211 . S
O35 C34 1.211 . S
C36 O28 1.284 . S
C36 O37 1.273 . S
O37 C36 1.273 . S
O38 Zn29 1.977 . S
O38 C31 1.267 . S
C39 O40 1.160 . S
C39 O46 1.185 . S
O40 C39 1.160 . S
O41 Zn42 1.899 . S
O41 C49 1.284 . S
Zn42 O41 1.899 . S
Zn42 O43 2.032 . S
Zn42 O46 2.086 . S
Zn42 O51 1.977 . S
O43 Zn42 2.032 . S
O43 C47 1.278 . S
C44 O45 1.203 . S
C44 O51 1.267 . S
O45 C44 1.203 . S
O46 C39 1.185 . S
O46 Zn42 2.086 . S
C47 O43 1.278 . S
C47 O48 1.211 1_556 S
O48 C47 1.211 1_554 S
C49 O41 1.284 . S
C49 O50 1.273 . S
O50 C49 1.273 . S
O51 Zn42 1.977 . S
O51 C44 1.267 . S
C52 O53 1.160 . S
C52 O59 1.185 . S
O53 C52 1.160 . S
O54 Zn55 1.899 . S
O54 C62 1.284 . S
Zn55 O54 1.899 . S
Zn55 O56 2.032 . S
Zn55 O59 2.086 . S
Zn55 O64 1.977 . S
O56 Zn55 2.032 . S
O56 C60 1.278 . S
C57 O58 1.203 . S
C57 O64 1.267 . S
O58 C57 1.203 . S
O59 C52 1.185 . S
O59 Zn55 2.086 . S
C60 O56 1.278 . S
C60 O61 1.211 . S
O61 C60 1.211 . S
C62 O54 1.284 . S
C62 O63 1.273 . S
O63 C62 1.273 . S
O64 Zn55 1.977 . S
O64 C57 1.267 . S
C65 O66 1.160 . S
C65 O72 1.185 . S
O66 C65 1.160 . S
O67 Zn68 1.899 . S
O67 C75 1.284 . S
Zn68 O67 1.899 . S
Zn68 O69 2.032 . S
Zn68 O72 2.086 . S
Zn68 O77 1.977 . S
O69 Zn68 2.032 . S
O69 C73 1.278 . S
C70 O71 1.203 . S
C70 O77 1.267 . S
O71 C70 1.203 . S
O72 C65 1.185 . S
O72 Zn68 2.086 . S
C73 O69 1.278 . S
C73 O74 1.211 . S
O74 C73 1.211 . S
C75 O67 1.284 . S
C75 O76 1.273 . S
O76 C75 1.273 . S
O77 Zn68 1.977 . S
O77 C70 1.267 . S
C5 C57 1.025 . S
C23 C75 1.223 . S
C10 C31 1.143 . S
C49 C18 1.143 . S
C62 C36 1.223 . S
C44 C70 1.024 . S
C47 C8 1.228 1_566 S
C60 C13 1.272 . S
C65 C34 1.297 1_456 S
C0 C39 1.281 1_545 S
C21 C52 1.297 1_556 S
C73 C26 1.272 1_455 S
