# Generated by pormake.
# Topology qdl, (4)-cn, num edge types: 1
# Building blocks:
#     Node 0, Type 0, BuildingBlock: NAWXER_clean_sbu_0, # of connection points: 4
#     Node 1, Type 0, BuildingBlock: NAWXER_clean_sbu_0, # of connection points: 4
#     Node 2, Type 0, BuildingBlock: NAWXER_clean_sbu_0, # of connection points: 4
#     Node 3, Type 0, BuildingBlock: NAWXER_clean_sbu_0, # of connection points: 4
#     Node 4, Type 0, BuildingBlock: NAWXER_clean_sbu_0, # of connection points: 4
#     Node 5, Type 0, BuildingBlock: NAWXER_clean_sbu_0, # of connection points: 4
#     Edge 6, Type (0, 0), BuildingBlock: AJUNOK_clean_linker_0, # of connection points: 2
#     Edge 7, Type (0, 0), BuildingBlock: AJUNOK_clean_linker_0, # of connection points: 2
#     Edge 8, Type (0, 0), BuildingBlock: AJUNOK_clean_linker_0, # of connection points: 2
#     Edge 9, Type (0, 0), BuildingBlock: AJUNOK_clean_linker_0, # of connection points: 2
#     Edge 10, Type (0, 0), BuildingBlock: AJUNOK_clean_linker_0, # of connection points: 2
#     Edge 11, Type (0, 0), BuildingBlock: AJUNOK_clean_linker_0, # of connection points: 2
#     Edge 12, Type (0, 0), BuildingBlock: AJUNOK_clean_linker_0, # of connection points: 2
#     Edge 13, Type (0, 0), BuildingBlock: AJUNOK_clean_linker_0, # of connection points: 2
#     Edge 14, Type (0, 0), BuildingBlock: AJUNOK_clean_linker_0, # of connection points: 2
#     Edge 15, Type (0, 0), BuildingBlock: AJUNOK_clean_linker_0, # of connection points: 2
#     Edge 16, Type (0, 0), BuildingBlock: AJUNOK_clean_linker_0, # of connection points: 2
#     Edge 17, Type (0, 0), BuildingBlock: AJUNOK_clean_linker_0, # of connection points: 2
# Relax obj value: 0.000
# Max RMSD: 0.024
# Mean RMSD: 0.019
data_MOF--net-qdl--node1-NAWXER_clean_sbu_0--edge1-AJUNOK_clean_linker_0
_symmetry_space_group_name_H-M    P1
_symmetry_Int_Tables_number       1
_symmetry_cell_setting            triclinic
loop_
_symmetry_equiv_pos_as_xyz
'x, y, z'
_cell_length_a     10.717174
_cell_length_b     10.713168
_cell_length_c     63.611301
_cell_angle_alpha  94.299976
_cell_angle_beta   94.336851
_cell_angle_gamma 119.90493
loop_
_atom_site_label
_atom_site_type_symbol
_atom_site_fract_x
_atom_site_fract_y
_atom_site_fract_z
_atom_type_partial_charge
C0 C 0.87468 0.76355 0.09537 0.0
C1 C 0.87247 0.2214 0.09845 0.0
O2 O 1.0015 0.87656 0.09739 0.0
Zn3 Zn 0.0986 0.10555 0.09879 0.0
O4 O 0.76366 0.77778 0.09325 0.0
Zn5 Zn 0.86745 0.99023 0.09615 0.0
O6 O 0.95467 0.04201 0.0667 0.0
O7 O 0.19303 0.15015 0.07336 0.0
O8 O 0.76141 0.09435 0.09649 0.0
O9 O 0.99964 0.23717 0.09965 0.0
O10 O 0.21592 0.17011 0.12609 0.0
O11 O 0.98079 0.0522 0.12822 0.0
C12 C 0.0795 0.10393 0.06018 0.0
C13 C 0.11258 0.1195 0.13739 0.0
C14 C 0.43928 0.39594 0.44319 0.0
C15 C 0.98028 0.39545 0.44098 0.0
O16 O 0.32613 0.26908 0.43868 0.0
Zn17 Zn 0.09409 0.17161 0.43366 0.0
O18 O 0.4247 0.50647 0.44629 0.0
Zn19 Zn 0.21296 0.40072 0.44158 0.0
O20 O 0.15601 0.27606 0.46838 0.0
O21 O 1.03618 0.04467 0.45508 0.0
O22 O 0.1076 0.50597 0.44384 0.0
O23 O 0.96364 0.26859 0.43714 0.0
O24 O 0.04296 0.08531 0.40426 0.0
O25 O 0.17561 0.32429 0.40815 0.0
C26 C 0.08829 0.14136 0.47117 0.0
C27 C 0.10956 0.20219 0.39608 0.0
C28 C 0.14394 0.09014 0.80379 0.0
C29 C 0.11617 1.02024 0.72672 0.0
O30 O 0.08865 0.13424 0.78993 0.0
Zn31 Zn 0.13314 0.05748 0.76541 0.0
O32 O 0.20652 1.02026 0.79774 0.0
Zn33 Zn 0.24755 0.9434 0.76773 0.0
O34 O 0.46087 0.05261 0.76983 0.0
O35 O 0.36291 0.19067 0.76847 0.0
O36 O 0.18166 0.96137 0.73567 0.0
O37 O 0.06984 0.08662 0.73813 0.0
O38 O 1.00166 0.82954 0.76675 0.0
O39 O 0.14118 0.7326 0.7684 0.0
C40 C 0.4759 0.17825 0.77007 0.0
C41 C 1.01591 0.71851 0.76821 0.0
C42 C 0.04043 0.97317 0.63432 0.0
C43 C 1.02433 0.99698 0.55799 0.0
O44 O 0.08878 0.08444 0.62465 0.0
Zn45 Zn 1.03001 0.98519 0.59609 0.0
O46 O 0.97542 0.84626 0.62354 0.0
Zn47 Zn 0.91416 0.75478 0.59046 0.0
O48 O 1.01796 0.64892 0.58803 0.0
O49 O 0.16083 0.88722 0.5933 0.0
O50 O 0.96026 0.8653 0.56221 0.0
O51 O 0.07929 0.10037 0.5732 0.0
O52 O 0.80017 0.88692 0.59266 0.0
O53 O 0.7019 0.64906 0.58772 0.0
C54 C 0.14485 0.76013 0.59023 0.0
C55 C 0.68709 0.75982 0.58964 0.0
C56 C 0.11323 0.20636 0.97161 0.0
C57 C 0.09651 0.16685 0.8942 0.0
O58 O 0.04732 0.26546 0.9629 0.0
Zn59 Zn 0.99406 0.30309 0.93154 0.0
O60 O 0.17257 0.15426 0.96013 0.0
Zn61 Zn 0.11108 0.1897 0.93298 0.0
O62 O 0.2414 0.41746 0.9335 0.0
O63 O 0.10266 0.51493 0.93265 0.0
O64 O 0.1534 0.11955 0.90728 0.0
O65 O 1.03439 0.2345 0.90126 0.0
O66 O 0.78195 0.19497 0.92905 0.0
O67 O 0.88104 0.05768 0.93051 0.0
C68 C 0.22823 0.52967 0.93309 0.0
C69 C 0.76775 0.06982 0.92933 0.0
C70 C 0.18963 0.19429 0.30664 0.0
C71 C 0.20694 0.17339 0.23013 0.0
O72 O 0.08432 0.13224 0.29173 0.0
Zn73 Zn 0.19778 0.18063 0.26854 0.0
O74 O 0.32054 0.25959 0.30212 0.0
Zn75 Zn 0.42847 0.29913 0.27368 0.0
O76 O 0.53464 0.51068 0.27629 0.0
O77 O 0.29638 0.41178 0.27171 0.0
O78 O 0.33437 0.24135 0.24073 0.0
O79 O 0.09703 0.11966 0.24008 0.0
O80 O 0.2961 0.05139 0.27131 0.0
O81 O 0.53394 0.19435 0.27601 0.0
C82 C 0.42356 0.52509 0.27455 0.0
C83 C 0.42315 0.06749 0.27414 0.0
C84 C 0.97929 0.61662 0.10785 0.0
C85 C 0.86255 0.62045 0.09685 0.0
C86 C 0.97801 0.48618 0.10885 0.0
C87 C 0.85997 0.35326 0.09889 0.0
H88 H 0.07377 0.71578 0.11569 0.0
H89 H 0.07184 0.49013 0.1173 0.0
S90 S 0.52867 0.30347 0.06761 0.0
N91 N 0.62535 0.47975 0.07571 0.0
N92 N 0.62323 0.23308 0.07749 0.0
C93 C 0.74083 0.35436 0.08817 0.0
C94 C 0.74206 0.48823 0.08717 0.0
C95 C 0.5977 0.29185 0.45019 0.0
C96 C 0.58414 0.40908 0.44442 0.0
C97 C 0.72746 0.29132 0.44948 0.0
C98 C 0.84979 0.40796 0.44296 0.0
H99 H 0.50623 0.19809 0.45503 0.0
H100 H 0.73118 0.19734 0.45389 0.0
S101 S 0.87016 0.73932 0.42548 0.0
N102 N 0.7037 0.64475 0.4317 0.0
N103 N 0.94911 0.64391 0.43043 0.0
C104 C 0.8394 0.52775 0.43757 0.0
C105 C 0.70624 0.52825 0.43828 0.0
C106 C 0.86917 0.44372 0.76282 0.0
C107 C 0.88581 0.57833 0.77074 0.0
C108 C 0.73844 0.31247 0.76343 0.0
C109 C 0.62082 0.31212 0.77202 0.0
H110 H 0.95515 0.44019 0.75537 0.0
H111 H 0.72735 0.21171 0.75635 0.0
S112 S 0.62031 0.63311 0.79839 0.0
N113 N 0.78057 0.7005 0.78995 0.0
N114 N 0.53744 0.45628 0.79108 0.0
C115 C 0.64045 0.44531 0.7812 0.0
C116 C 0.77222 0.57772 0.78056 0.0
C117 C 0.40128 0.86755 0.58344 0.0
C118 C 0.27595 0.748 0.58876 0.0
C119 C 0.53123 0.86724 0.58322 0.0
C120 C 0.54244 0.7474 0.58831 0.0
H121 H 0.39987 0.96368 0.57957 0.0
H122 H 0.62449 0.96325 0.57922 0.0
S123 S 0.24655 0.40672 0.60346 0.0
N124 N 0.17028 0.50525 0.5991 0.0
N125 N 0.4163 0.5047 0.59871 0.0
C126 C 0.41727 0.62512 0.59316 0.0
C127 C 0.28371 0.62542 0.59338 0.0
C128 C 0.4899 0.67297 0.92889 0.0
C129 C 0.3605 0.67161 0.9319 0.0
C130 C 0.6181 0.80161 0.92757 0.0
C131 C 0.62448 0.93642 0.92927 0.0
H132 H 0.49333 0.57335 0.9275 0.0
H133 H 0.71368 0.79441 0.92537 0.0
S134 S 0.3163 0.9941 0.93683 0.0
N135 N 0.24555 0.81692 0.93612 0.0
N136 N 0.48894 0.06102 0.9338 0.0
C137 C 0.49581 0.93758 0.93197 0.0
C138 C 0.3636 0.80496 0.93326 0.0
C139 C 0.3157 0.68054 0.2809 0.0
C140 C 0.43587 0.6697 0.27593 0.0
C141 C 0.31552 0.8106 0.28076 0.0
C142 C 0.43552 0.93646 0.27564 0.0
H143 H 0.21931 0.58692 0.28474 0.0
H144 H 0.21902 0.81159 0.28451 0.0
S145 S 0.77848 0.96728 0.26157 0.0
N146 N 0.67984 0.79694 0.26605 0.0
N147 N 0.67949 0.0432 0.26577 0.0
C148 C 0.55858 0.92913 0.2712 0.0
C149 C 0.55877 0.79544 0.27135 0.0
C150 C 0.04688 0.0899 0.1952 0.0
C151 C 0.18763 0.16017 0.20649 0.0
C152 C 1.02446 0.07785 0.17298 0.0
C153 C 0.14171 0.13543 0.16098 0.0
H154 H 0.95242 0.04392 0.20355 0.0
H155 H 0.91359 1.02271 0.16519 0.0
S156 S 0.53275 0.32859 0.18272 0.0
N157 N 0.44691 0.28744 0.20388 0.0
N158 N 0.40463 0.26465 0.16214 0.0
C159 C 0.28335 0.20555 0.17202 0.0
C160 C 0.30629 0.21789 0.19472 0.0
C161 C 0.11044 0.17442 0.53147 0.0
C162 C 0.03697 0.02914 0.53563 0.0
C163 C 0.12651 0.20906 0.51066 0.0
C164 C 0.06988 0.10009 0.49304 0.0
H165 H 0.15665 0.26297 0.54439 0.0
H166 H 0.18405 0.32274 0.50844 0.0
S167 S 0.86721 0.70184 0.49512 0.0
N168 N 0.90623 0.7748 0.52023 0.0
N169 N 0.93644 0.83982 0.48119 0.0
C170 C 0.99576 0.95405 0.49692 0.0
C171 C 0.97932 0.91867 0.51816 0.0
C172 C 0.19038 0.06063 0.84182 0.0
C173 C 0.13198 0.11379 0.82673 0.0
C174 C 0.17756 0.07746 0.86349 0.0
C175 C 0.10567 0.14817 0.87105 0.0
H176 H 0.24637 1.00482 0.83691 0.0
H177 H 0.22485 0.03461 0.87437 0.0
S178 S 0.93323 0.30796 0.83814 0.0
N179 N 0.99933 0.24076 0.82097 0.0
N180 N 0.97513 0.27231 0.86157 0.0
C181 C 0.04672 0.20215 0.85614 0.0
C182 C 0.05993 0.18509 0.83405 0.0
C183 C 0.195 0.12553 0.02669 0.0
C184 C 0.08993 0.13283 0.03782 0.0
C185 C 0.20345 0.15131 1.00534 0.0
C186 C 0.1089 0.18808 0.99453 0.0
H187 H 0.2688 0.0963 0.03434 0.0
H188 H 0.28424 0.1417 0.99725 0.0
S189 S 0.81876 0.22774 0.01719 0.0
N190 N 0.89234 0.18322 0.03681 0.0
N191 N 0.90858 0.23321 0.99699 0.0
C192 C 1.00531 0.19858 1.00575 0.0
C193 C 0.99558 0.17033 0.0273 0.0
C194 C 0.26784 0.3061 0.34459 0.0
C195 C 0.16294 0.19417 0.32916 0.0
C196 C 0.24726 0.30914 0.36605 0.0
C197 C 0.12233 0.19875 0.37305 0.0
H198 H 0.36668 0.39287 0.34005 0.0
H199 H 0.33187 0.39725 0.37733 0.0
S200 S 0.81356 0.88194 0.33904 0.0
N201 N 0.9275 0.97147 0.32229 0.0
N202 N 0.89078 0.97522 0.36281 0.0
C203 C 1.01614 0.08613 0.35782 0.0
C204 C 1.03581 0.0845 0.33584 0.0
C205 C 0.06667 0.88047 0.6683 0.0
C206 C 0.0597 0.98853 0.65786 0.0
C207 C 0.08611 0.89232 0.69056 0.0
C208 C 0.09583 1.01096 0.70324 0.0
H209 H 0.05905 0.78672 0.65921 0.0
H210 H 0.09184 0.80688 0.69787 0.0
S211 S 0.08189 0.32242 0.68375 0.0
N212 N 0.06423 0.21836 0.66191 0.0
N213 N 0.09707 0.23886 0.70373 0.0
C214 C 0.08755 0.11916 0.69302 0.0
C215 C 0.07067 0.10851 0.67034 0.0
loop_
_geom_bond_atom_site_label_1
_geom_bond_atom_site_label_2
_geom_bond_distance
_geom_bond_site_symmetry_2
_ccdc_geom_bond_type
C0 O2 1.247 1_565 S
C0 O4 1.258 . S
C1 O8 1.247 . S
C1 O9 1.258 . S
O2 C0 1.247 1_545 S
O2 Zn3 2.028 . S
Zn3 O2 2.028 . S
Zn3 O7 2.035 . S
Zn3 O9 2.035 . S
Zn3 O10 2.028 . S
O4 C0 1.258 . S
O4 Zn5 2.035 1_465 S
Zn5 O4 2.035 1_645 S
Zn5 O6 2.028 1_655 S
Zn5 O8 2.028 1_655 S
Zn5 O11 2.035 1_655 S
O6 Zn5 2.028 1_455 S
O6 C12 1.247 . S
O7 Zn3 2.035 . S
O7 C12 1.258 . S
O8 C1 1.247 . S
O8 Zn5 2.028 1_455 S
O9 C1 1.258 . S
O9 Zn3 2.035 . S
O10 Zn3 2.028 . S
O10 C13 1.247 . S
O11 Zn5 2.035 1_455 S
O11 C13 1.258 . S
C12 O6 1.247 . S
C12 O7 1.258 . S
C13 O10 1.247 . S
C13 O11 1.258 . S
C14 O16 1.247 1_545 S
C14 O18 1.258 . S
C15 O22 1.247 . S
C15 O23 1.258 1_545 S
O16 C14 1.247 1_565 S
O16 Zn17 2.028 1_455 S
Zn17 O16 2.028 1_655 S
Zn17 O21 2.035 . S
Zn17 O23 2.035 . S
Zn17 O24 2.028 1_655 S
O18 C14 1.258 . S
O18 Zn19 2.035 . S
Zn19 O18 2.035 . S
Zn19 O20 2.028 . S
Zn19 O22 2.028 1_455 S
Zn19 O25 2.035 . S
O20 Zn19 2.028 . S
O20 C26 1.247 . S
O21 Zn17 2.035 . S
O21 C26 1.258 1_665 S
O22 C15 1.247 . S
O22 Zn19 2.028 1_655 S
O23 C15 1.258 1_565 S
O23 Zn17 2.035 . S
O24 Zn17 2.028 1_455 S
O24 C27 1.247 1_565 S
O25 Zn19 2.035 . S
O25 C27 1.258 . S
C26 O20 1.247 . S
C26 O21 1.258 1_445 S
C27 O24 1.247 1_545 S
C27 O25 1.258 . S
C28 O30 1.247 1_455 S
C28 O32 1.258 . S
C29 O36 1.247 . S
C29 O37 1.258 1_455 S
O30 C28 1.247 1_655 S
O30 Zn31 2.028 . S
Zn31 O30 2.028 . S
Zn31 O35 2.035 1_655 S
Zn31 O37 2.035 . S
Zn31 O38 2.028 1_545 S
O32 C28 1.258 . S
O32 Zn33 2.035 . S
Zn33 O32 2.035 . S
Zn33 O34 2.028 . S
Zn33 O36 2.028 . S
Zn33 O39 2.035 1_445 S
O34 Zn33 2.028 . S
O34 C40 1.247 . S
O35 Zn31 2.035 1_455 S
O35 C40 1.258 . S
O36 C29 1.247 . S
O36 Zn33 2.028 . S
O37 C29 1.258 1_655 S
O37 Zn31 2.035 . S
O38 Zn31 2.028 1_565 S
O38 C41 1.247 . S
O39 Zn33 2.035 1_665 S
O39 C41 1.258 . S
C40 O34 1.247 . S
C40 O35 1.258 . S
C41 O38 1.247 . S
C41 O39 1.258 . S
C42 O44 1.247 . S
C42 O46 1.258 1_445 S
C43 O50 1.247 1_455 S
C43 O51 1.258 1_565 S
O44 C42 1.247 . S
O44 Zn45 2.028 . S
Zn45 O44 2.028 . S
Zn45 O49 2.035 . S
Zn45 O51 2.035 . S
Zn45 O52 2.028 1_455 S
O46 C42 1.258 1_665 S
O46 Zn47 2.035 . S
Zn47 O46 2.035 . S
Zn47 O48 2.028 1_655 S
Zn47 O50 2.028 . S
Zn47 O53 2.035 . S
O48 Zn47 2.028 1_455 S
O48 C54 1.247 . S
O49 Zn45 2.035 . S
O49 C54 1.258 1_545 S
O50 C43 1.247 1_655 S
O50 Zn47 2.028 . S
O51 C43 1.258 1_545 S
O51 Zn45 2.035 . S
O52 Zn45 2.028 1_655 S
O52 C55 1.249 . S
O53 Zn47 2.035 . S
O53 C55 1.254 1_565 S
C54 O48 1.247 . S
C54 O49 1.258 1_565 S
C55 O52 1.249 . S
C55 O53 1.254 1_545 S
C56 O58 1.247 . S
C56 O60 1.258 . S
C57 O64 1.247 . S
C57 O65 1.258 1_455 S
O58 C56 1.247 . S
O58 Zn59 2.028 1_455 S
Zn59 O58 2.028 1_655 S
Zn59 O63 2.035 1_655 S
Zn59 O65 2.035 . S
Zn59 O66 2.028 . S
O60 C56 1.258 . S
O60 Zn61 2.035 . S
Zn61 O60 2.035 . S
Zn61 O62 2.028 . S
Zn61 O64 2.028 . S
Zn61 O67 2.035 1_445 S
O62 Zn61 2.028 . S
O62 C68 1.247 . S
O63 Zn59 2.035 1_455 S
O63 C68 1.258 . S
O64 C57 1.247 . S
O64 Zn61 2.028 . S
O65 C57 1.258 1_655 S
O65 Zn59 2.035 . S
O66 Zn59 2.028 . S
O66 C69 1.247 1_545 S
O67 Zn61 2.035 1_665 S
O67 C69 1.258 . S
C68 O62 1.247 . S
C68 O63 1.258 . S
C69 O66 1.247 1_565 S
C69 O67 1.258 . S
C70 O72 1.247 . S
C70 O74 1.258 . S
C71 O78 1.247 . S
C71 O79 1.258 . S
O72 C70 1.247 . S
O72 Zn73 2.028 1_455 S
Zn73 O72 2.028 1_655 S
Zn73 O77 2.035 1_655 S
Zn73 O79 2.035 1_655 S
Zn73 O80 2.028 1_645 S
O74 C70 1.258 . S
O74 Zn75 2.035 . S
Zn75 O74 2.035 . S
Zn75 O76 2.028 . S
Zn75 O78 2.028 . S
Zn75 O81 2.035 1_545 S
O76 Zn75 2.028 . S
O76 C82 1.247 . S
O77 Zn73 2.035 1_455 S
O77 C82 1.258 . S
O78 C71 1.247 . S
O78 Zn75 2.028 . S
O79 C71 1.258 . S
O79 Zn73 2.035 1_455 S
O80 Zn73 2.028 1_465 S
O80 C83 1.247 . S
O81 Zn75 2.035 1_565 S
O81 C83 1.258 . S
C82 O76 1.247 . S
C82 O77 1.258 . S
C83 O80 1.247 . S
C83 O81 1.258 . S
C84 C85 1.369 . S
C84 C86 1.419 . S
C84 H88 0.930 . S
C85 C84 1.369 . S
C85 C94 1.429 . S
C86 C84 1.419 . S
C86 C87 1.363 . S
C86 H89 0.929 . S
C87 C86 1.363 . S
C87 C93 1.428 . S
H88 C84 0.930 . S
H89 C86 0.929 . S
S90 N91 1.613 1_655 S
S90 N92 1.610 1_655 S
N91 S90 1.613 1_455 S
N91 C94 1.350 . S
N92 S90 1.610 1_455 S
N92 C93 1.351 . S
C93 C87 1.428 . S
C93 N92 1.351 . S
C93 C94 1.434 . S
C94 C85 1.429 . S
C94 N91 1.350 . S
C94 C93 1.434 . S
C95 C96 1.369 1_565 S
C95 C97 1.419 . S
C95 H99 0.930 . S
C96 C95 1.369 1_545 S
C96 C105 1.429 . S
C97 C95 1.419 . S
C97 C98 1.363 1_565 S
C97 H100 0.929 . S
C98 C97 1.363 1_545 S
C98 C104 1.428 . S
H99 C95 0.930 . S
H100 C97 0.929 . S
S101 N102 1.613 . S
S101 N103 1.610 . S
N102 S101 1.613 . S
N102 C105 1.350 . S
N103 S101 1.610 . S
N103 C104 1.351 . S
C104 C98 1.428 . S
C104 N103 1.351 . S
C104 C105 1.434 . S
C105 C96 1.429 . S
C105 N102 1.350 . S
C105 C104 1.434 . S
C106 C107 1.369 . S
C106 C108 1.419 . S
C106 H110 0.930 . S
C107 C106 1.369 . S
C107 C116 1.429 . S
C108 C106 1.419 . S
C108 C109 1.363 . S
C108 H111 0.929 . S
C109 C108 1.363 . S
C109 C115 1.428 . S
H110 C106 0.930 . S
H111 C108 0.929 . S
S112 N113 1.613 . S
S112 N114 1.610 . S
N113 S112 1.613 . S
N113 C116 1.350 . S
N114 S112 1.610 . S
N114 C115 1.351 . S
C115 C109 1.428 . S
C115 N114 1.351 . S
C115 C116 1.434 . S
C116 C107 1.429 . S
C116 N113 1.350 . S
C116 C115 1.434 . S
C117 C118 1.369 1_545 S
C117 C119 1.419 . S
C117 H121 0.930 . S
C118 C117 1.369 1_565 S
C118 C127 1.430 . S
C119 C117 1.419 . S
C119 C120 1.362 1_545 S
C119 H122 0.929 . S
C120 C119 1.362 1_565 S
C120 C126 1.429 . S
H121 C117 0.930 . S
H122 C119 0.929 . S
S123 N124 1.613 . S
S123 N125 1.610 . S
N124 S123 1.613 . S
N124 C127 1.350 . S
N125 S123 1.610 . S
N125 C126 1.351 . S
C126 C120 1.429 . S
C126 N125 1.351 . S
C126 C127 1.434 . S
C127 C118 1.430 . S
C127 N124 1.350 . S
C127 C126 1.434 . S
C128 C129 1.369 . S
C128 C130 1.419 . S
C128 H132 0.930 . S
C129 C128 1.369 . S
C129 C138 1.429 . S
C130 C128 1.419 . S
C130 C131 1.363 . S
C130 H133 0.929 . S
C131 C130 1.363 . S
C131 C137 1.428 . S
H132 C128 0.930 . S
H133 C130 0.929 . S
S134 N135 1.613 . S
S134 N136 1.610 . S
N135 S134 1.613 . S
N135 C138 1.350 . S
N136 S134 1.610 . S
N136 C137 1.351 . S
C137 C131 1.428 . S
C137 N136 1.351 . S
C137 C138 1.434 . S
C138 C129 1.429 . S
C138 N135 1.350 . S
C138 C137 1.434 . S
C139 C140 1.369 . S
C139 C141 1.419 . S
C139 H143 0.930 1_455 S
C140 C139 1.369 . S
C140 C149 1.429 . S
C141 C139 1.419 . S
C141 C142 1.363 . S
C141 H144 0.929 1_455 S
C142 C141 1.363 . S
C142 C148 1.428 . S
H143 C139 0.930 1_655 S
H144 C141 0.929 1_655 S
S145 N146 1.613 . S
S145 N147 1.610 . S
N146 S145 1.613 . S
N146 C149 1.350 . S
N147 S145 1.610 . S
N147 C148 1.351 . S
C148 C142 1.428 . S
C148 N147 1.351 . S
C148 C149 1.434 . S
C149 C140 1.429 . S
C149 N146 1.350 . S
C149 C148 1.434 . S
C150 C151 1.369 . S
C150 C152 1.419 . S
C150 H154 0.930 1_445 S
C151 C150 1.369 . S
C151 C160 1.429 . S
C152 C150 1.419 . S
C152 C153 1.363 . S
C152 H155 0.929 1_445 S
C153 C152 1.363 . S
C153 C159 1.428 . S
H154 C150 0.930 1_665 S
H155 C152 0.929 1_665 S
S156 N157 1.613 . S
S156 N158 1.610 . S
N157 S156 1.613 . S
N157 C160 1.350 . S
N158 S156 1.610 . S
N158 C159 1.351 . S
C159 C153 1.428 . S
C159 N158 1.351 . S
C159 C160 1.434 . S
C160 C151 1.429 . S
C160 N157 1.350 . S
C160 C159 1.434 . S
C161 C162 1.369 1_545 S
C161 C163 1.419 . S
C161 H165 0.930 . S
C162 C161 1.369 1_565 S
C162 C171 1.429 1_455 S
C163 C161 1.419 . S
C163 C164 1.364 1_545 S
C163 H166 0.929 . S
C164 C163 1.364 1_565 S
C164 C170 1.428 1_455 S
H165 C161 0.930 . S
H166 C163 0.929 . S
S167 N168 1.613 . S
S167 N169 1.610 . S
N168 S167 1.613 . S
N168 C171 1.350 . S
N169 S167 1.610 . S
N169 C170 1.351 . S
C170 C164 1.428 1_655 S
C170 N169 1.351 . S
C170 C171 1.434 . S
C171 C162 1.429 1_655 S
C171 N168 1.350 . S
C171 C170 1.434 . S
C172 C173 1.369 . S
C172 C174 1.419 . S
C172 H176 0.930 1_545 S
C173 C172 1.369 . S
C173 C182 1.429 . S
C174 C172 1.419 . S
C174 C175 1.363 . S
C174 H177 0.929 1_545 S
C175 C174 1.363 . S
C175 C181 1.428 . S
H176 C172 0.930 1_565 S
H177 C174 0.929 1_565 S
S178 N179 1.609 1_655 S
S178 N180 1.610 1_655 S
N179 S178 1.609 1_455 S
N179 C182 1.354 . S
N180 S178 1.610 1_455 S
N180 C181 1.351 . S
C181 C175 1.428 . S
C181 N180 1.351 . S
C181 C182 1.434 . S
C182 C173 1.429 . S
C182 N179 1.354 . S
C182 C181 1.434 . S
C183 C184 1.369 . S
C183 C185 1.419 1_554 S
C183 H187 0.930 . S
C184 C183 1.369 . S
C184 C193 1.429 1_455 S
C185 C183 1.419 1_556 S
C185 C186 1.363 . S
C185 H188 0.929 . S
C186 C185 1.363 . S
C186 C192 1.428 1_455 S
H187 C183 0.930 . S
H188 C185 0.929 . S
S189 N190 1.613 1_556 S
S189 N191 1.610 . S
N190 S189 1.613 1_554 S
N190 C193 1.350 1_565 S
N191 S189 1.610 . S
N191 C192 1.351 1_565 S
C192 C186 1.428 1_655 S
C192 N191 1.351 1_545 S
C192 C193 1.434 1_556 S
C193 C184 1.429 1_655 S
C193 N190 1.350 1_545 S
C193 C192 1.434 1_554 S
C194 C195 1.369 . S
C194 C196 1.419 . S
C194 H198 0.930 . S
C195 C194 1.369 . S
C195 C204 1.429 1_545 S
C196 C194 1.419 . S
C196 C197 1.363 . S
C196 H199 0.929 . S
C197 C196 1.363 . S
C197 C203 1.428 1_545 S
H198 C194 0.930 . S
H199 C196 0.929 . S
S200 N201 1.613 . S
S200 N202 1.610 . S
N201 S200 1.613 . S
N201 C204 1.350 . S
N202 S200 1.610 . S
N202 C203 1.351 . S
C203 C197 1.428 1_565 S
C203 N202 1.351 . S
C203 C204 1.434 . S
C204 C195 1.429 1_565 S
C204 N201 1.350 . S
C204 C203 1.434 . S
C205 C206 1.369 1_565 S
C205 C207 1.419 . S
C205 H209 0.930 . S
C206 C205 1.369 1_545 S
C206 C215 1.429 1_455 S
C207 C205 1.419 . S
C207 C208 1.363 1_565 S
C207 H210 0.929 . S
C208 C207 1.363 1_545 S
C208 C214 1.428 1_455 S
H209 C205 0.930 . S
H210 C207 0.929 . S
S211 N212 1.613 . S
S211 N213 1.610 . S
N212 S211 1.613 . S
N212 C215 1.350 . S
N213 S211 1.610 . S
N213 C214 1.351 . S
C214 C208 1.428 1_655 S
C214 N213 1.351 . S
C214 C215 1.434 . S
C215 C206 1.429 1_655 S
C215 N212 1.350 . S
C215 C214 1.434 . S
C85 C0 1.498 . S
C87 C1 1.499 . S
C96 C14 1.499 . S
C98 C15 1.498 . S
C107 C41 1.499 . S
C109 C40 1.498 . S
C118 C54 1.497 . S
C120 C55 1.502 1_565 S
C129 C68 1.498 . S
C131 C69 1.499 . S
C140 C82 1.499 . S
C142 C83 1.499 . S
C151 C71 1.504 . S
C153 C13 1.503 . S
C162 C43 1.504 . S
C164 C26 1.504 1_565 S
C173 C28 1.503 . S
C175 C57 1.504 . S
C184 C12 1.506 . S
C186 C56 1.506 . S
C195 C70 1.505 . S
C197 C27 1.505 . S
C206 C42 1.505 . S
C208 C29 1.506 . S
