# Generated by pormake.
# Topology qzd, (4)-cn, num edge types: 1
# Building blocks:
#     Node 0, Type 0, BuildingBlock: NAWXER_clean_sbu_0, # of connection points: 4
#     Node 1, Type 0, BuildingBlock: NAWXER_clean_sbu_0, # of connection points: 4
#     Node 2, Type 0, BuildingBlock: NAWXER_clean_sbu_0, # of connection points: 4
#     Edge 3, Type (0, 0), BuildingBlock: AJUNOK_clean_linker_0, # of connection points: 2
#     Edge 4, Type (0, 0), BuildingBlock: AJUNOK_clean_linker_0, # of connection points: 2
#     Edge 5, Type (0, 0), BuildingBlock: AJUNOK_clean_linker_0, # of connection points: 2
#     Edge 6, Type (0, 0), BuildingBlock: AJUNOK_clean_linker_0, # of connection points: 2
#     Edge 7, Type (0, 0), BuildingBlock: AJUNOK_clean_linker_0, # of connection points: 2
#     Edge 8, Type (0, 0), BuildingBlock: AJUNOK_clean_linker_0, # of connection points: 2
# Relax obj value: 0.000
# Max RMSD: 0.038
# Mean RMSD: 0.038
data_MOF--net-qzd--node1-NAWXER_clean_sbu_0--edge1-AJUNOK_clean_linker_0
_symmetry_space_group_name_H-M    P1
_symmetry_Int_Tables_number       1
_symmetry_cell_setting            triclinic
loop_
_symmetry_equiv_pos_as_xyz
'x, y, z'
_cell_length_a     10.691855
_cell_length_b     10.67782
_cell_length_c     31.694065
_cell_angle_alpha  94.083313
_cell_angle_beta   93.819575
_cell_angle_gamma 120.08362
loop_
_atom_site_label
_atom_site_type_symbol
_atom_site_fract_x
_atom_site_fract_y
_atom_site_fract_z
_atom_type_partial_charge
C0 C 0.12905 0.79263 0.03504 0.0
C1 C 0.67045 0.79278 0.03068 0.0
O2 O 1.00182 0.68058 0.02869 0.0
Zn3 Zn 0.89735 0.78677 0.02986 0.0
O4 O 0.14468 0.92025 0.03888 0.0
Zn5 Zn 1.01291 1.01906 0.03864 0.0
O6 O 0.07104 0.12759 0.09401 0.0
O7 O 0.95398 0.88904 0.09556 0.0
O8 O 0.78418 0.91986 0.03566 0.0
O9 O 0.68341 0.6812 0.02396 0.0
O10 O 0.95233 0.88855 0.97231 0.0
O11 O 0.05974 0.12662 0.99028 0.0
C12 C 1.01843 1.0192 0.11519 0.0
C13 C 1.01298 1.0184 0.9619 0.0
C14 C 0.07175 0.12155 0.45349 0.0
C15 C 1.0195 0.0846 0.29891 0.0
O16 O 1.00752 0.1873 0.43969 0.0
Zn17 Zn 0.93147 0.21804 0.37904 0.0
O18 O 0.10882 0.0537 0.42747 0.0
Zn19 Zn 0.04125 0.09752 0.37586 0.0
O20 O 0.1752 0.32902 0.37649 0.0
O21 O 0.03834 0.42941 0.38115 0.0
O22 O 0.07419 0.02855 0.32252 0.0
O23 O 0.963 0.15483 0.31573 0.0
O24 O 0.71943 0.1119 0.37845 0.0
O25 O 0.81216 0.9687 0.37292 0.0
C26 C 0.16206 0.44222 0.3778 0.0
C27 C 0.70142 0.98443 0.37401 0.0
C28 C 0.12638 0.11807 0.78799 0.0
C29 C 0.15216 0.12483 0.63575 0.0
O30 O 1.02214 0.07118 0.75835 0.0
Zn31 Zn 0.13797 0.12287 0.71161 0.0
O32 O 0.25828 0.18223 0.77928 0.0
Zn33 Zn 0.3702 0.24265 0.72365 0.0
O34 O 0.47353 0.45595 0.73145 0.0
O35 O 0.23582 0.35313 0.71592 0.0
O36 O 0.27906 0.19449 0.6572 0.0
O37 O 0.03912 0.06239 0.65475 0.0
O38 O 0.23921 0.99497 0.71315 0.0
O39 O 0.47778 0.13921 0.72576 0.0
C40 C 0.36227 0.46788 0.72295 0.0
C41 C 0.36667 1.01151 0.71829 0.0
C42 C 0.39787 0.6679 1.01222 0.0
C43 C 0.52802 0.78094 0.03529 0.0
C44 C 0.26615 0.66763 1.01351 0.0
C45 C 0.26118 0.78029 0.03793 0.0
H46 H 0.3989 0.58271 0.99181 0.0
H47 H 0.1694 0.58242 0.99393 0.0
S48 S 0.56644 0.08605 0.10991 0.0
N49 N 0.63904 0.99736 0.08745 0.0
N50 N 0.39368 0.99689 0.08967 0.0
C51 C 0.3888 0.88832 0.06309 0.0
C52 C 0.52166 0.8886 0.06182 0.0
C53 C 0.4444 0.84812 0.39268 0.0
C54 C 0.55549 0.85195 0.37031 0.0
C55 C 0.31369 0.71586 0.39396 0.0
C56 C 0.29106 0.58412 0.37298 0.0
H57 H 0.46109 0.9463 0.41082 0.0
H58 H 0.23291 0.71578 0.41284 0.0
S59 S 0.53689 0.54154 0.30356 0.0
N60 N 0.62565 0.71623 0.32219 0.0
N61 N 0.382 0.46961 0.32459 0.0
C62 C 0.3975 0.58899 0.34829 0.0
C63 C 0.52927 0.72245 0.34694 0.0
C64 C 0.48857 0.87303 0.74087 0.0
C65 C 0.37922 0.87946 0.71544 0.0
C66 C 0.48658 0.74042 0.74234 0.0
C67 C 0.37477 0.61079 0.71859 0.0
H68 H 0.57228 0.96924 0.76104 0.0
H69 H 0.5694 0.73829 0.76338 0.0
S70 S 0.07839 0.57636 0.64157 0.0
N71 N 0.16787 0.74928 0.662 0.0
N72 N 0.16277 0.50179 0.66512 0.0
C73 C 0.27034 0.61859 0.69123 0.0
C74 C 0.27294 0.75252 0.68956 0.0
C75 C 1.02042 0.95021 0.23106 0.0
C76 C 1.02324 0.07197 0.2523 0.0
C77 C 1.01977 0.93445 0.18671 0.0
C78 C 1.02529 0.04145 0.16212 0.0
H79 H 1.01571 0.865 0.2487 0.0
H80 H 1.01522 0.83773 0.1716 0.0
S81 S 0.04044 0.38415 0.20276 0.0
N82 N 0.03533 0.30323 0.24563 0.0
N83 N 0.03646 0.2748 0.16248 0.0
C84 C 1.0314 0.16532 0.18312 0.0
C85 C 1.02959 0.18014 0.22815 0.0
C86 C 0.05472 0.99301 0.56228 0.0
C87 C 0.13777 0.12477 0.58929 0.0
C88 C 0.03807 0.99227 0.51792 0.0
C89 C 0.09975 0.12347 0.4996 0.0
H90 H 1.00328 0.89026 0.57551 0.0
H91 H 0.97317 0.8889 0.49794 0.0
S92 S 0.32458 0.4966 0.55666 0.0
N93 N 0.28442 0.38882 0.59465 0.0
N94 N 0.24579 0.38767 0.5115 0.0
C95 C 0.18201 0.25558 0.52629 0.0
C96 C 0.20302 0.25609 0.57117 0.0
C97 C 1.00272 0.12845 0.85127 0.0
C98 C 0.09664 0.09143 0.83213 0.0
C99 C 0.97692 0.1064 0.89376 0.0
C100 C 0.04031 0.04202 0.91757 0.0
H101 H 0.95132 0.17716 0.83358 0.0
H102 H 0.90587 0.13809 0.90789 0.0
S103 S 0.28916 0.92074 0.88144 0.0
N104 N 0.25202 0.98704 0.83998 0.0
N105 N 0.19801 0.93946 0.91909 0.0
C106 C 0.13179 1.00204 0.8985 0.0
C107 C 0.16145 0.02836 0.85587 0.0
loop_
_geom_bond_atom_site_label_1
_geom_bond_atom_site_label_2
_geom_bond_distance
_geom_bond_site_symmetry_2
_ccdc_geom_bond_type
C0 O2 1.249 . S
C0 O4 1.255 1_565 S
C1 O8 1.250 . S
C1 O9 1.253 1_545 S
O2 C0 1.249 . S
O2 Zn3 2.028 1_455 S
Zn3 O2 2.028 1_655 S
Zn3 O7 2.035 . S
Zn3 O9 2.035 . S
Zn3 O10 2.028 1_554 S
O4 C0 1.255 1_545 S
O4 Zn5 2.035 . S
Zn5 O4 2.035 . S
Zn5 O6 2.028 . S
Zn5 O8 2.028 1_455 S
Zn5 O11 2.035 1_554 S
O6 Zn5 2.028 . S
O6 C12 1.250 . S
O7 Zn3 2.035 . S
O7 C12 1.255 1_665 S
O8 C1 1.250 . S
O8 Zn5 2.028 1_655 S
O9 C1 1.253 1_565 S
O9 Zn3 2.035 . S
O10 Zn3 2.028 1_556 S
O10 C13 1.248 1_655 S
O11 Zn5 2.035 1_556 S
O11 C13 1.257 1_545 S
C12 O6 1.250 . S
C12 O7 1.255 1_445 S
C13 O10 1.248 1_455 S
C13 O11 1.257 1_565 S
C14 O16 1.247 1_455 S
C14 O18 1.258 . S
C15 O22 1.247 1_655 S
C15 O23 1.258 . S
O16 C14 1.247 1_655 S
O16 Zn17 2.028 . S
Zn17 O16 2.028 . S
Zn17 O21 2.035 1_655 S
Zn17 O23 2.035 . S
Zn17 O24 2.028 1_545 S
O18 C14 1.258 . S
O18 Zn19 2.035 . S
Zn19 O18 2.035 . S
Zn19 O20 2.028 . S
Zn19 O22 2.028 . S
Zn19 O25 2.035 1_445 S
O20 Zn19 2.028 . S
O20 C26 1.247 . S
O21 Zn17 2.035 1_455 S
O21 C26 1.258 . S
O22 C15 1.247 1_455 S
O22 Zn19 2.028 . S
O23 C15 1.258 . S
O23 Zn17 2.035 . S
O24 Zn17 2.028 1_565 S
O24 C27 1.247 . S
O25 Zn19 2.035 1_665 S
O25 C27 1.258 . S
C26 O20 1.247 . S
C26 O21 1.258 . S
C27 O24 1.247 . S
C27 O25 1.258 . S
C28 O30 1.247 1_455 S
C28 O32 1.258 . S
C29 O36 1.247 . S
C29 O37 1.258 1_455 S
O30 C28 1.247 1_655 S
O30 Zn31 2.028 . S
Zn31 O30 2.028 . S
Zn31 O35 2.035 . S
Zn31 O37 2.035 . S
Zn31 O38 2.028 1_545 S
O32 C28 1.258 . S
O32 Zn33 2.035 . S
Zn33 O32 2.035 . S
Zn33 O34 2.028 . S
Zn33 O36 2.028 . S
Zn33 O39 2.035 1_545 S
O34 Zn33 2.028 . S
O34 C40 1.247 . S
O35 Zn31 2.035 . S
O35 C40 1.258 1_655 S
O36 C29 1.247 . S
O36 Zn33 2.028 . S
O37 C29 1.258 1_655 S
O37 Zn31 2.035 . S
O38 Zn31 2.028 1_565 S
O38 C41 1.247 1_655 S
O39 Zn33 2.035 1_565 S
O39 C41 1.258 . S
C40 O34 1.247 . S
C40 O35 1.258 1_455 S
C41 O38 1.247 1_455 S
C41 O39 1.258 . S
C42 C43 1.369 1_565 S
C42 C44 1.419 . S
C42 H46 0.930 1_554 S
C43 C42 1.369 1_545 S
C43 C52 1.429 . S
C44 C42 1.419 . S
C44 C45 1.363 1_565 S
C44 H47 0.929 1_554 S
C45 C44 1.363 1_545 S
C45 C51 1.428 . S
H46 C42 0.930 1_556 S
H47 C44 0.929 1_556 S
S48 N49 1.613 . S
S48 N50 1.610 . S
N49 S48 1.613 . S
N49 C52 1.350 . S
N50 S48 1.610 . S
N50 C51 1.351 . S
C51 C45 1.428 . S
C51 N50 1.351 . S
C51 C52 1.434 . S
C52 C43 1.429 . S
C52 N49 1.350 . S
C52 C51 1.434 . S
C53 C54 1.369 . S
C53 C55 1.419 . S
C53 H57 0.930 . S
C54 C53 1.369 . S
C54 C63 1.429 . S
C55 C53 1.419 . S
C55 C56 1.363 . S
C55 H58 0.929 . S
C56 C55 1.363 . S
C56 C62 1.428 . S
H57 C53 0.930 . S
H58 C55 0.929 . S
S59 N60 1.613 . S
S59 N61 1.610 . S
N60 S59 1.613 . S
N60 C63 1.350 . S
N61 S59 1.610 . S
N61 C62 1.351 . S
C62 C56 1.428 . S
C62 N61 1.351 . S
C62 C63 1.434 . S
C63 C54 1.429 . S
C63 N60 1.350 . S
C63 C62 1.434 . S
C64 C65 1.369 . S
C64 C66 1.419 . S
C64 H68 0.930 . S
C65 C64 1.369 . S
C65 C74 1.429 . S
C66 C64 1.419 . S
C66 C67 1.363 . S
C66 H69 0.929 . S
C67 C66 1.363 . S
C67 C73 1.428 . S
H68 C64 0.930 . S
H69 C66 0.929 . S
S70 N71 1.613 1_655 S
S70 N72 1.610 1_655 S
N71 S70 1.613 1_455 S
N71 C74 1.350 . S
N72 S70 1.610 1_455 S
N72 C73 1.351 . S
C73 C67 1.428 . S
C73 N72 1.351 . S
C73 C74 1.434 . S
C74 C65 1.429 . S
C74 N71 1.350 . S
C74 C73 1.434 . S
C75 C76 1.369 1_455 S
C75 C77 1.419 . S
C75 H79 0.930 . S
C76 C75 1.369 1_655 S
C76 C85 1.429 . S
C77 C75 1.419 . S
C77 C78 1.363 1_455 S
C77 H80 0.929 . S
C78 C77 1.363 1_655 S
C78 C84 1.428 . S
H79 C75 0.930 . S
H80 C77 0.929 . S
S81 N82 1.613 . S
S81 N83 1.610 . S
N82 S81 1.613 . S
N82 C85 1.350 . S
N83 S81 1.610 . S
N83 C84 1.351 . S
C84 C78 1.428 . S
C84 N83 1.351 . S
C84 C85 1.434 . S
C85 C76 1.429 . S
C85 N82 1.350 . S
C85 C84 1.434 . S
C86 C87 1.369 1_565 S
C86 C88 1.419 1_455 S
C86 H90 0.930 1_455 S
C87 C86 1.369 1_545 S
C87 C96 1.429 . S
C88 C86 1.419 1_655 S
C88 C89 1.363 1_665 S
C88 H91 0.929 . S
C89 C88 1.363 1_445 S
C89 C95 1.428 . S
H90 C86 0.930 1_655 S
H91 C88 0.929 . S
S92 N93 1.613 . S
S92 N94 1.610 . S
N93 S92 1.613 . S
N93 C96 1.350 . S
N94 S92 1.610 . S
N94 C95 1.351 . S
C95 C89 1.428 . S
C95 N94 1.351 . S
C95 C96 1.434 . S
C96 C87 1.429 . S
C96 N93 1.350 . S
C96 C95 1.434 . S
C97 C98 1.369 . S
C97 C99 1.419 1_455 S
C97 H101 0.930 1_455 S
C98 C97 1.369 . S
C98 C107 1.429 1_545 S
C99 C97 1.419 1_655 S
C99 C100 1.363 1_655 S
C99 H102 0.929 . S
C100 C99 1.363 1_455 S
C100 C106 1.428 1_545 S
H101 C97 0.930 1_655 S
H102 C99 0.929 . S
S103 N104 1.613 . S
S103 N105 1.610 . S
N104 S103 1.613 . S
N104 C107 1.350 . S
N105 S103 1.610 . S
N105 C106 1.351 . S
C106 C100 1.428 1_565 S
C106 N105 1.351 . S
C106 C107 1.434 . S
C107 C98 1.429 1_565 S
C107 N104 1.350 . S
C107 C106 1.434 . S
C43 C1 1.502 . S
C45 C0 1.500 1_545 S
C54 C27 1.498 . S
C56 C26 1.499 . S
C65 C41 1.498 . S
C67 C40 1.499 . S
C76 C15 1.521 . S
C78 C12 1.525 1_655 S
C87 C29 1.526 . S
C89 C14 1.522 . S
C98 C28 1.526 . S
C100 C13 1.527 1_545 S
