# Generated by pormake.
# Topology pcu, (6)-cn, num edge types: 1
# Building blocks:
#     Node 0, Type 0, BuildingBlock: CUKXOW_clean_sbu_0, # of connection points: 6
#     Edge 1, Type (0, 0), BuildingBlock: ZUJKAS_clean_linker_0, # of connection points: 2
#     Edge 2, Type (0, 0), BuildingBlock: ZUJKAS_clean_linker_0, # of connection points: 2
#     Edge 3, Type (0, 0), BuildingBlock: ZUJKAS_clean_linker_0, # of connection points: 2
# Relax obj value: 0.000
# Max RMSD: 0.000
# Mean RMSD: 0.000
data_MOF--net-pcu--node1-CUKXOW_clean_sbu_0--edge1-ZUJKAS_clean_linker_0
_symmetry_space_group_name_H-M    P1
_symmetry_Int_Tables_number       1
_symmetry_cell_setting            triclinic
loop_
_symmetry_equiv_pos_as_xyz
'x, y, z'
_cell_length_a     18.217559
_cell_length_b     22.673951
_cell_length_c     19.897196
_cell_angle_alpha  84.157691
_cell_angle_beta   105.18216
_cell_angle_gamma 124.41883
loop_
_atom_site_label
_atom_site_type_symbol
_atom_site_fract_x
_atom_site_fract_y
_atom_site_fract_z
_atom_type_partial_charge
Tb0 Tb 0.04256 0.07204 0.99125 0.0
C1 C 1.01455 -0.00435 0.85614 0.0
Tb2 Tb 1.00086 0.91998 0.00154 0.0
O3 O 0.17519 0.1132 0.96991 0.0
O4 O 0.11689 0.02543 0.03124 0.0
O5 O 1.01085 0.04581 0.88111 0.0
C6 C 1.00549 0.80456 0.00031 0.0
O7 O 1.01994 0.94648 0.89553 0.0
C8 C 0.86143 0.92914 0.99049 0.0
C9 C 0.02898 -0.0036 0.13666 0.0
O10 O 0.93401 0.80663 0.97328 0.0
O11 O 0.07403 0.86727 0.02826 0.0
O12 O 0.86822 0.87906 0.02294 0.0
O13 O 0.92671 0.96659 0.96158 0.0
O14 O 0.03266 0.94624 0.11169 0.0
O15 O 0.02353 0.04555 0.09727 0.0
C16 C 0.03773 0.18737 0.99249 0.0
O17 O 0.10923 0.18534 0.0196 0.0
O18 O 0.96928 0.12466 0.96445 0.0
C19 C 0.18213 0.06316 0.0023 0.0
H20 H 1.01581 0.08668 0.2067 0.0
H21 H 1.01526 0.08686 0.32935 0.0
H22 H 0.04147 0.90793 0.35793 0.0
H23 H 0.04318 0.90764 0.2356 0.0
H24 H 0.89095 0.97485 0.39884 0.0
H25 H 0.24845 0.05306 0.51659 0.0
H26 H 0.20894 0.06355 0.42584 0.0
H27 H 0.18095 0.97712 0.45497 0.0
C28 C 0.02211 0.04759 0.23905 0.0
C29 C 0.03004 -0.00265 0.21126 0.0
C30 C 1.0216 0.04775 0.30913 0.0
C31 C 0.02959 -0.00193 0.35286 0.0
C32 C 0.03703 0.94763 0.32535 0.0
H33 H 0.02775 0.90538 0.78613 0.0
H34 H 0.02833 0.9052 0.66348 0.0
C35 C 0.0375 0.94735 0.25525 0.0
C36 C 0.0274 -0.00228 0.42677 0.0
H37 H 0.15266 0.0172 0.59399 0.0
C38 C 0.94826 0.98444 0.44158 0.0
C39 C 0.10227 0.01008 0.48227 0.0
C40 C 0.19035 0.02739 0.4694 0.0
C41 C 0.94133 0.98198 0.51055 0.0
C42 C 1.01621 0.99434 0.56605 0.0
C43 C 0.09534 0.00762 0.55125 0.0
C44 C 1.01402 0.994 0.63997 0.0
C45 C 0.85325 0.96466 0.52342 0.0
C46 C 1.00657 0.04444 0.66747 0.0
C47 C 1.00608 0.04471 0.73755 0.0
C48 C 1.01352 -0.0053 0.78156 0.0
C49 C 1.02146 0.94447 0.75377 0.0
C50 C 0.02199 0.94431 0.6837 0.0
H51 H 0.79516 0.93899 0.47624 0.0
H52 H 0.83466 0.92851 0.56699 0.0
H53 H 0.86265 0.01493 0.53785 0.0
H54 H 1.00215 0.08414 0.63488 0.0
H55 H 1.00039 0.08443 0.7572 0.0
H56 H 0.29239 0.11267 0.91268 0.0
H57 H 0.40685 0.08838 0.91011 0.0
H58 H 0.34667 0.96179 0.08971 0.0
H59 H 0.23205 0.98581 0.09219 0.0
H60 H 0.56264 0.11971 0.00996 0.0
H61 H 0.32158 0.82594 0.95344 0.0
H62 H 0.28256 0.8844 0.94639 0.0
H63 H 0.31627 0.85698 0.03031 0.0
C64 C 0.30371 0.07965 0.95153 0.0
C65 C 0.25264 0.05014 0.00199 0.0
C66 C 0.36888 0.06573 0.94996 0.0
C67 C 0.38402 0.02212 -0.00114 0.0
C68 C 0.3344 0.99398 0.05033 0.0
H69 H 0.75138 0.88016 0.08017 0.0
H70 H 0.63697 0.90459 0.08248 0.0
C71 C 0.26908 0.00775 0.05176 0.0
C72 C 0.45331 0.00758 -0.00304 0.0
H73 H 0.4811 0.87299 0.98224 0.0
C74 C 0.54482 0.0658 0.00356 0.0
C75 C 0.42983 0.93717 0.98873 0.0
C76 C 0.33209 0.87257 0.97864 0.0
C77 C 0.61391 0.05552 0.00342 0.0
C78 C 0.59043 0.98511 -0.00476 0.0
C79 C 0.49892 0.92689 0.98862 0.0
C80 C 0.65975 0.97055 0.99351 0.0
C81 C 0.71163 0.12012 0.01345 0.0
C82 C 0.70933 -0.00151 0.94203 0.0
C83 C 0.77461 0.98462 0.94073 0.0
C84 C 0.79106 0.94237 0.99068 0.0
C85 C 0.74005 0.91308 0.04119 0.0
C86 C 0.67492 0.92709 0.0426 0.0
H87 H 0.72214 0.16681 0.03851 0.0
H88 H 0.76117 0.10834 0.04579 0.0
H89 H 0.72744 0.13558 0.96177 0.0
H90 H 0.69706 0.03058 0.90252 0.0
H91 H 0.81158 0.00636 0.90025 0.0
H92 H 0.1528 0.7962 0.05336 0.0
H93 H 0.15849 0.69098 0.05053 0.0
H94 H 0.8715 0.56548 0.94208 0.0
H95 H 0.86574 0.67069 0.94408 0.0
H96 H 0.05092 0.55646 0.10672 0.0
H97 H 0.99603 0.53 0.82035 0.0
H98 H 0.02984 0.61077 0.86415 0.0
H99 H 0.91232 0.53501 0.84637 0.0
C100 C 0.0911 0.74616 0.02874 0.0
C101 C 1.00887 0.74136 -0.00122 0.0
C102 C 0.09441 0.68623 0.02721 0.0
C103 C 1.0157 0.62078 -0.00464 0.0
C104 C 0.93337 0.61585 0.9658 0.0
H105 H 0.89039 0.19564 0.93922 0.0
H106 H 0.8845 0.30077 0.94208 0.0
C107 C 0.93003 0.67577 0.96731 0.0
C108 C 1.01904 0.55713 -0.00535 0.0
H109 H 0.99188 0.43527 0.88608 0.0
C110 C 0.03848 0.5301 0.05856 0.0
C111 C 1.00248 0.52288 0.93166 0.0
C112 C 0.98475 0.55135 0.86168 0.0
C113 C 0.04031 0.46884 0.06114 0.0
C114 C 0.02377 0.4346 -0.00185 0.0
C115 C 1.00431 0.46163 0.93424 0.0
C116 C 0.02721 0.37099 -0.00255 0.0
C117 C 0.058 0.44036 0.13113 0.0
C118 C 0.10955 0.37596 0.02711 0.0
C119 C 0.11298 0.3161 0.02561 0.0
C120 C 0.03425 0.25052 0.99401 0.0
C121 C 0.95201 0.24567 0.96394 0.0
C122 C 0.94859 0.30556 0.96549 0.0
H123 H 0.04656 0.46162 0.17242 0.0
H124 H 1.01302 0.38094 0.12864 0.0
H125 H 0.13048 0.4568 0.14652 0.0
H126 H 0.17135 0.42633 0.05091 0.0
H127 H 0.17728 0.32121 0.04891 0.0
loop_
_geom_bond_atom_site_label_1
_geom_bond_atom_site_label_2
_geom_bond_distance
_geom_bond_site_symmetry_2
_ccdc_geom_bond_type
Tb0 O3 2.453 . S
Tb0 O4 2.596 1_545 S
Tb0 O5 2.374 1_554 S
Tb0 O13 2.343 1_454 S
Tb0 O15 2.353 . S
Tb0 O17 2.427 . S
Tb0 O18 2.513 1_554 S
C1 O5 1.251 1_655 S
C1 O7 1.263 1_545 S
Tb2 O4 2.343 1_656 S
Tb2 O7 2.353 . S
Tb2 O10 2.427 . S
Tb2 O11 2.513 1_556 S
Tb2 O12 2.453 . S
Tb2 O13 2.596 1_565 S
Tb2 O14 2.374 1_556 S
O3 Tb0 2.453 . S
O3 C19 1.245 . S
O4 Tb0 2.596 1_565 S
O4 Tb2 2.343 1_454 S
O4 C19 1.259 1_565 S
O5 Tb0 2.374 1_556 S
O5 C1 1.251 1_455 S
C6 O10 1.273 1_554 S
C6 O11 1.247 . S
O7 C1 1.263 1_565 S
O7 Tb2 2.353 . S
C8 O12 1.245 . S
C8 O13 1.259 1_565 S
C9 O14 1.250 1_455 S
C9 O15 1.263 1_565 S
O10 Tb2 2.427 . S
O10 C6 1.273 1_556 S
O11 Tb2 2.513 1_554 S
O11 C6 1.247 . S
O12 Tb2 2.453 . S
O12 C8 1.245 . S
O13 Tb0 2.343 1_656 S
O13 Tb2 2.596 1_545 S
O13 C8 1.259 1_545 S
O14 Tb2 2.374 1_554 S
O14 C9 1.250 1_655 S
O15 Tb0 2.353 . S
O15 C9 1.263 1_545 S
C16 O17 1.273 . S
C16 O18 1.247 1_554 S
O17 Tb0 2.427 . S
O17 C16 1.273 . S
O18 Tb0 2.513 1_556 S
O18 C16 1.247 1_556 S
C19 O3 1.245 . S
C19 O4 1.259 1_545 S
H20 C28 0.929 . S
H21 C30 0.930 . S
H22 C32 0.930 . S
H23 C35 0.929 . S
H24 C38 0.930 . S
H25 C40 0.960 . S
H26 C40 0.960 . S
H27 C40 0.960 . S
C28 H20 0.929 . S
C28 C29 1.366 1_655 S
C28 C30 1.384 . S
C29 C28 1.366 1_455 S
C29 C35 1.397 1_545 S
C30 H21 0.930 . S
C30 C28 1.384 . S
C30 C31 1.378 . S
C31 C30 1.378 . S
C31 C32 1.390 1_645 S
C31 C36 1.494 . S
C32 H22 0.930 . S
C32 C31 1.390 1_465 S
C32 C35 1.386 . S
H33 C49 0.930 . S
H34 C50 0.931 . S
C35 H23 0.929 . S
C35 C29 1.397 1_565 S
C35 C32 1.386 . S
C36 C31 1.494 . S
C36 C38 1.395 1_545 S
C36 C39 1.403 1_655 S
H37 C43 0.930 . S
C38 H24 0.930 . S
C38 C36 1.395 1_565 S
C38 C41 1.403 . S
C39 C36 1.403 1_455 S
C39 C40 1.524 . S
C39 C43 1.400 . S
C40 H25 0.960 . S
C40 H26 0.960 . S
C40 H27 0.960 . S
C40 C39 1.524 . S
C41 C38 1.403 . S
C41 C42 1.392 . S
C41 C45 1.495 . S
C42 C41 1.392 . S
C42 C43 1.385 1_665 S
C42 C44 1.478 . S
C43 H37 0.930 . S
C43 C39 1.400 . S
C43 C42 1.385 1_445 S
C44 C42 1.478 . S
C44 C46 1.381 1_565 S
C44 C50 1.383 1_655 S
C45 C41 1.495 . S
C45 H51 0.959 . S
C45 H52 0.961 . S
C45 H53 0.960 . S
C46 C44 1.381 1_545 S
C46 C47 1.394 . S
C46 H54 0.930 . S
C47 C46 1.394 . S
C47 C48 1.383 1_545 S
C47 H55 0.929 . S
C48 C47 1.383 1_565 S
C48 C49 1.377 1_655 S
C49 H33 0.930 . S
C49 C48 1.377 1_455 S
C49 C50 1.379 . S
C50 H34 0.931 . S
C50 C44 1.383 1_455 S
C50 C49 1.379 . S
H51 C45 0.959 . S
H52 C45 0.961 . S
H53 C45 0.960 . S
H54 C46 0.930 . S
H55 C47 0.929 . S
H56 C64 0.929 . S
H57 C66 0.930 . S
H58 C68 0.930 . S
H59 C71 0.929 . S
H60 C74 0.930 . S
H61 C76 0.960 . S
H62 C76 0.960 . S
H63 C76 0.960 . S
C64 H56 0.929 . S
C64 C65 1.378 1_545 S
C64 C66 1.384 . S
C65 C64 1.378 1_565 S
C65 C71 1.388 1_556 S
C66 H57 0.930 . S
C66 C64 1.384 . S
C66 C67 1.372 . S
C67 C66 1.372 . S
C67 C68 1.400 1_546 S
C67 C72 1.490 . S
C68 H58 0.930 . S
C68 C67 1.400 1_564 S
C68 C71 1.386 . S
H69 C85 0.930 . S
H70 C86 0.931 . S
C71 H59 0.929 . S
C71 C65 1.388 1_554 S
C71 C68 1.386 . S
C72 C67 1.490 . S
C72 C74 1.395 1_556 S
C72 C75 1.403 1_545 S
H73 C79 0.930 . S
C74 H60 0.930 . S
C74 C72 1.395 1_554 S
C74 C77 1.403 . S
C75 C72 1.403 1_565 S
C75 C76 1.524 . S
C75 C79 1.400 . S
C76 H61 0.960 . S
C76 H62 0.960 . S
C76 H63 0.960 . S
C76 C75 1.524 . S
C77 C74 1.403 . S
C77 C78 1.392 . S
C77 C81 1.495 . S
C78 C77 1.392 . S
C78 C79 1.385 1_544 S
C78 C80 1.478 . S
C79 H73 0.930 . S
C79 C75 1.400 . S
C79 C78 1.385 1_566 S
C80 C78 1.478 . S
C80 C82 1.381 1_554 S
C80 C86 1.383 1_545 S
C81 C77 1.495 . S
C81 H87 0.959 . S
C81 H88 0.961 . S
C81 H89 0.960 . S
C82 C80 1.381 1_556 S
C82 C83 1.394 . S
C82 H90 0.930 . S
C83 C82 1.394 . S
C83 C84 1.383 1_556 S
C83 H91 0.929 . S
C84 C83 1.383 1_554 S
C84 C85 1.377 1_545 S
C85 H69 0.930 . S
C85 C84 1.377 1_565 S
C85 C86 1.379 . S
C86 H70 0.931 . S
C86 C80 1.383 1_565 S
C86 C85 1.379 . S
H87 C81 0.959 . S
H88 C81 0.961 . S
H89 C81 0.960 . S
H90 C82 0.930 . S
H91 C83 0.929 . S
H92 C100 0.929 . S
H93 C102 0.930 . S
H94 C104 0.930 . S
H95 C107 0.929 . S
H96 C110 0.930 . S
H97 C112 0.960 . S
H98 C112 0.960 . S
H99 C112 0.960 . S
C100 H92 0.929 . S
C100 C101 1.379 . S
C100 C102 1.384 . S
C101 C100 1.379 . S
C101 C107 1.388 1_454 S
C102 H93 0.930 . S
C102 C100 1.384 . S
C102 C103 1.372 . S
C103 C102 1.372 . S
C103 C104 1.400 1_454 S
C103 C108 1.490 . S
C104 H94 0.930 . S
C104 C103 1.400 1_656 S
C104 C107 1.386 . S
H105 C121 0.930 . S
H106 C122 0.931 . S
C107 H95 0.929 . S
C107 C101 1.388 1_656 S
C107 C104 1.386 . S
C108 C103 1.490 . S
C108 C110 1.395 1_455 S
C108 C111 1.403 1_554 S
H109 C115 0.930 . S
C110 H96 0.930 . S
C110 C108 1.395 1_655 S
C110 C113 1.403 . S
C111 C108 1.403 1_556 S
C111 C112 1.524 . S
C111 C115 1.400 . S
C112 H97 0.960 . S
C112 H98 0.960 . S
C112 H99 0.960 . S
C112 C111 1.524 . S
C113 C110 1.403 . S
C113 C114 1.392 . S
C113 C117 1.495 . S
C114 C113 1.392 . S
C114 C115 1.385 1_654 S
C114 C116 1.478 . S
C115 H109 0.930 . S
C115 C111 1.400 . S
C115 C114 1.385 1_456 S
C116 C114 1.478 . S
C116 C118 1.381 1_655 S
C116 C122 1.383 1_554 S
C117 C113 1.495 . S
C117 H123 0.959 . S
C117 H124 0.961 . S
C117 H125 0.960 1_655 S
C118 C116 1.381 1_455 S
C118 C119 1.394 . S
C118 H126 0.930 . S
C119 C118 1.394 . S
C119 C120 1.383 1_455 S
C119 H127 0.929 . S
C120 C119 1.383 1_655 S
C120 C121 1.377 1_554 S
C121 H105 0.930 . S
C121 C120 1.377 1_556 S
C121 C122 1.379 . S
C122 H106 0.931 . S
C122 C116 1.383 1_556 S
C122 C121 1.379 . S
H123 C117 0.959 . S
H124 C117 0.961 . S
H125 C117 0.960 1_455 S
H126 C118 0.930 . S
H127 C119 0.929 . S
C29 C9 1.494 1_545 S
C48 C1 1.475 1_565 S
C65 C19 1.449 1_566 S
C84 C8 1.469 1_544 S
C101 C6 1.481 1_455 S
C120 C16 1.483 1_655 S
