# Generated by pormake.
# Topology sml, (6)-cn, num edge types: 1
# Building blocks:
#     Node 0, Type 0, BuildingBlock: CUKXOW_clean_sbu_0, # of connection points: 6
#     Node 1, Type 0, BuildingBlock: CUKXOW_clean_sbu_0, # of connection points: 6
#     Node 2, Type 0, BuildingBlock: CUKXOW_clean_sbu_0, # of connection points: 6
#     Node 3, Type 0, BuildingBlock: CUKXOW_clean_sbu_0, # of connection points: 6
#     Node 4, Type 0, BuildingBlock: CUKXOW_clean_sbu_0, # of connection points: 6
#     Node 5, Type 0, BuildingBlock: CUKXOW_clean_sbu_0, # of connection points: 6
#     Edge 6, Type (0, 0), BuildingBlock: EYOCIG_clean_linker_4, # of connection points: 2
#     Edge 7, Type (0, 0), BuildingBlock: EYOCIG_clean_linker_4, # of connection points: 2
#     Edge 8, Type (0, 0), BuildingBlock: EYOCIG_clean_linker_4, # of connection points: 2
#     Edge 9, Type (0, 0), BuildingBlock: EYOCIG_clean_linker_4, # of connection points: 2
#     Edge 10, Type (0, 0), BuildingBlock: EYOCIG_clean_linker_4, # of connection points: 2
#     Edge 11, Type (0, 0), BuildingBlock: EYOCIG_clean_linker_4, # of connection points: 2
#     Edge 12, Type (0, 0), BuildingBlock: EYOCIG_clean_linker_4, # of connection points: 2
#     Edge 13, Type (0, 0), BuildingBlock: EYOCIG_clean_linker_4, # of connection points: 2
#     Edge 14, Type (0, 0), BuildingBlock: EYOCIG_clean_linker_4, # of connection points: 2
#     Edge 15, Type (0, 0), BuildingBlock: EYOCIG_clean_linker_4, # of connection points: 2
#     Edge 16, Type (0, 0), BuildingBlock: EYOCIG_clean_linker_4, # of connection points: 2
#     Edge 17, Type (0, 0), BuildingBlock: EYOCIG_clean_linker_4, # of connection points: 2
#     Edge 18, Type (0, 0), BuildingBlock: EYOCIG_clean_linker_4, # of connection points: 2
#     Edge 19, Type (0, 0), BuildingBlock: EYOCIG_clean_linker_4, # of connection points: 2
#     Edge 20, Type (0, 0), BuildingBlock: EYOCIG_clean_linker_4, # of connection points: 2
#     Edge 21, Type (0, 0), BuildingBlock: EYOCIG_clean_linker_4, # of connection points: 2
#     Edge 22, Type (0, 0), BuildingBlock: EYOCIG_clean_linker_4, # of connection points: 2
#     Edge 23, Type (0, 0), BuildingBlock: EYOCIG_clean_linker_4, # of connection points: 2
# Relax obj value: 0.154
# Max RMSD: 0.196
# Mean RMSD: 0.196
data_MOF--net-sml--node1-CUKXOW_clean_sbu_0--edge1-EYOCIG_clean_linker_4
_symmetry_space_group_name_H-M    P1
_symmetry_Int_Tables_number       1
_symmetry_cell_setting            triclinic
loop_
_symmetry_equiv_pos_as_xyz
'x, y, z'
_cell_length_a     34.999545
_cell_length_b     35.02697
_cell_length_c     10.993541
_cell_angle_alpha  89.995107
_cell_angle_beta   90.013158
_cell_angle_gamma 119.97959
loop_
_atom_site_label
_atom_site_type_symbol
_atom_site_fract_x
_atom_site_fract_y
_atom_site_fract_z
_atom_type_partial_charge
Tb0 Tb 0.21008 0.37706 1.04448 0.0
C1 C 0.11339 0.35069 0.11239 0.0
Tb2 Tb 0.18914 0.45111 0.0912 0.0
O3 O 0.19691 0.3561 0.23432 0.0
O4 O 0.22071 0.4222 0.18684 0.0
O5 O 0.13859 0.33732 1.05839 0.0
C6 C 0.16939 0.50949 0.18253 0.0
O7 O 0.12753 0.39226 0.14392 0.0
C8 C 0.19353 0.43344 0.8627 0.0
C9 C 0.28531 0.47773 1.02018 0.0
O10 O 0.15433 0.48845 0.08097 0.0
O11 O 0.1951 0.49748 0.2336 0.0
O12 O 0.20219 0.47195 0.90087 0.0
O13 O 0.17875 0.40613 0.94873 0.0
O14 O 0.26026 0.49063 0.07638 0.0
O15 O 0.27124 0.43624 0.98832 0.0
C16 C 0.23576 0.32289 0.95497 0.0
O17 O 0.24944 0.34456 1.05602 0.0
O18 O 0.20748 0.33142 0.90351 0.0
C19 C 0.20585 0.3947 0.27259 0.0
Tb20 Tb 0.82469 0.21306 0.37757 0.0
C21 C 0.75454 0.11642 0.44539 0.0
Tb22 Tb 0.72962 0.19203 0.42426 0.0
O23 O 0.83251 0.1999 0.56742 0.0
O24 O 0.7901 0.22362 0.51991 0.0
O25 O 0.7931 0.14164 0.3914 0.0
C26 C 0.65142 0.17217 0.51566 0.0
O27 O 0.72704 0.1305 0.47692 0.0
C28 C 0.7517 0.19646 0.19577 0.0
C29 C 0.79902 0.28815 0.35327 0.0
O30 O 0.65746 0.15717 0.41407 0.0
O31 O 0.68914 0.1979 0.56671 0.0
O32 O 0.72178 0.20506 0.23393 0.0
O33 O 0.76429 0.18171 0.2818 0.0
O34 O 0.76108 0.26309 0.40946 0.0
O35 O 0.8265 0.27412 0.32139 0.0
C36 C 0.90463 0.23893 0.28815 0.0
O37 O 0.89655 0.25253 0.38922 0.0
O38 O 0.86787 0.21062 0.23663 0.0
C39 C 0.80279 0.20879 0.60566 0.0
Tb40 Tb 0.60338 0.82811 0.71096 0.0
C41 C 0.62964 0.75775 0.77876 0.0
Tb42 Tb 0.52917 0.73324 0.75765 0.0
O43 O 0.62436 0.83585 0.9008 0.0
O44 O 0.55819 0.79367 0.85331 0.0
O45 O 0.64307 0.79631 0.7248 0.0
C46 C 0.47072 0.65514 0.84887 0.0
O47 O 0.58803 0.73039 0.81029 0.0
C48 C 0.54684 0.7553 0.52917 0.0
C49 C 0.50267 0.80286 0.68675 0.0
O50 O 0.49174 0.66115 0.74725 0.0
O51 O 0.48279 0.69283 0.90006 0.0
O52 O 0.50829 0.72552 0.56734 0.0
O53 O 0.57419 0.76777 0.61518 0.0
O54 O 0.4897 0.76491 0.74291 0.0
O55 O 0.5442 0.8302 0.65486 0.0
C56 C 0.6576 0.9079 0.62143 0.0
O57 O 0.63597 0.89993 0.72255 0.0
O58 O 0.64901 0.87112 0.56991 0.0
C59 C 0.58571 0.80625 0.93905 0.0
Tb60 Tb 0.76687 0.60622 1.04295 0.0
C61 C 0.86349 0.6323 0.11041 0.0
Tb62 Tb 0.78749 0.53196 0.08968 0.0
O63 O 0.78032 0.62723 0.23271 0.0
O64 O 0.75612 0.56106 0.18535 0.0
O65 O 0.83838 0.64575 1.05626 0.0
C66 C 0.80711 0.47352 0.18124 0.0
O67 O 0.84922 0.59073 0.14221 0.0
C68 C 0.78308 0.54963 0.86121 0.0
C69 C 0.69131 0.50562 1.01926 0.0
O70 O 0.82215 0.49449 0.07958 0.0
O71 O 0.78147 0.48563 0.23225 0.0
O72 O 0.77429 0.51108 0.89941 0.0
O73 O 0.798 0.57697 0.94718 0.0
O74 O 0.71635 0.49259 0.075 0.0
O75 O 0.70545 0.54714 0.98764 0.0
C76 C 0.74132 0.66054 0.95366 0.0
O77 O 0.72832 0.63955 1.05587 0.0
O78 O 0.76885 0.65125 0.9009 0.0
C79 C 0.77116 0.58857 0.27102 0.0
Tb80 Tb 0.15205 0.7702 0.37718 0.0
C81 C 0.22217 0.86685 0.44503 0.0
Tb82 Tb 0.24711 0.79124 0.42398 0.0
O83 O 0.14421 0.78338 0.56697 0.0
O84 O 0.18664 0.75966 0.5196 0.0
O85 O 0.18361 0.84162 0.39101 0.0
C86 C 0.32533 0.81116 0.51538 0.0
O87 O 0.24968 0.85277 0.4766 0.0
C88 C 0.22501 0.78678 0.19547 0.0
C89 C 0.17771 0.69509 0.3532 0.0
O90 O 0.31926 0.82614 0.41376 0.0
O91 O 0.28763 0.78543 0.56646 0.0
O92 O 0.25492 0.77817 0.23368 0.0
O93 O 0.21244 0.80155 0.28146 0.0
O94 O 0.21567 0.72018 0.40932 0.0
O95 O 0.15022 0.70911 0.32125 0.0
C96 C 0.07215 0.74427 0.28737 0.0
O97 O 0.08019 0.73076 0.38865 0.0
O98 O 0.10892 0.77255 0.23588 0.0
C99 C 0.17394 0.7745 0.6053 0.0
Tb100 Tb 0.37332 0.15512 0.711 0.0
C101 C 0.34701 0.22543 0.77895 0.0
Tb102 Tb 0.44749 0.25002 0.75774 0.0
O103 O 0.35234 0.14735 0.90082 0.0
O104 O 0.41851 0.18959 0.8534 0.0
O105 O 0.3336 0.18688 0.72489 0.0
C106 C 0.50585 0.32819 0.84881 0.0
O107 O 0.38862 0.2528 0.81051 0.0
C108 C 0.4298 0.22795 0.52925 0.0
C109 C 0.47406 0.18045 0.68693 0.0
O110 O 0.48474 0.32211 0.7473 0.0
O111 O 0.49394 0.29053 0.89997 0.0
O112 O 0.46835 0.25775 0.56743 0.0
O113 O 0.40246 0.21547 0.61526 0.0
O114 O 0.48701 0.2184 0.74307 0.0
O115 O 0.43253 0.15309 0.65502 0.0
C116 C 0.31911 0.07534 0.62135 0.0
O117 O 0.34074 0.0833 0.7225 0.0
O118 O 0.3277 0.11213 0.56986 0.0
C119 C 0.39098 0.17698 0.93911 0.0
C120 C 0.29192 0.25368 0.83254 0.0
C121 C 0.31526 0.23879 0.80551 0.0
C122 C 0.26866 0.27504 0.86903 0.0
C123 C 0.2525 0.29644 0.90404 0.0
C124 C 0.03007 0.29551 0.16587 0.0
C125 C 0.06829 0.31892 0.13893 0.0
C126 C 0.98543 0.27211 0.20226 0.0
C127 C 0.94785 0.25582 0.23721 0.0
C128 C 0.72656 0.03319 0.49888 0.0
C129 C 0.74133 0.07138 0.47191 0.0
C130 C 0.70532 0.98859 0.53535 0.0
C131 C 0.68399 0.95106 0.57036 0.0
C132 C 0.6848 0.72953 0.83195 0.0
C133 C 0.66139 0.74437 0.80516 0.0
C134 C 0.7082 0.70825 0.86808 0.0
C135 C 0.72442 0.68688 0.90282 0.0
C136 C -0.00859 0.71089 0.20081 0.0
C137 C 0.02896 0.72727 0.23608 0.0
C138 C 0.9468 0.68742 0.16413 0.0
C139 C 0.90859 0.664 0.1371 0.0
C140 C 0.27138 -0.00533 0.53514 0.0
C141 C 0.29272 0.03219 0.57022 0.0
C142 C 0.25014 0.95007 0.49861 0.0
C143 C 0.23538 0.91189 0.47159 0.0
C144 C 0.1981 0.41696 0.63064 0.0
C145 C 0.19549 0.42298 0.73753 0.0
C146 C 0.2013 0.41108 0.50476 0.0
C147 C 0.2039 0.40508 0.39785 0.0
C148 C 0.77276 0.20105 0.96371 0.0
C149 C 0.76412 0.19843 0.07059 0.0
C150 C 0.78185 0.20424 0.83782 0.0
C151 C 0.79045 0.20684 0.73092 0.0
C152 C 0.56335 0.77633 0.29711 0.0
C153 C 0.55732 0.7677 0.404 0.0
C154 C 0.56927 0.7854 0.17123 0.0
C155 C 0.5753 0.79397 0.06432 0.0
C156 C 0.7787 0.56618 0.6291 0.0
C157 C 0.78123 0.56012 0.736 0.0
C158 C 0.77559 0.57213 0.50321 0.0
C159 C 0.77304 0.57817 0.3963 0.0
C160 C 0.19486 0.77904 0.8375 0.0
C161 C 0.18626 0.77645 0.73058 0.0
C162 C 0.20395 0.78221 0.96339 0.0
C163 C 0.21259 0.78482 0.07028 0.0
C164 C 0.41328 0.20692 0.29719 0.0
C165 C 0.41931 0.21555 0.40408 0.0
C166 C 0.40738 0.19785 0.1713 0.0
C167 C 0.40137 0.18928 0.06439 0.0
C168 C 0.16067 0.57631 0.25747 0.0
C169 C 0.16434 0.54573 0.22213 0.0
C170 C 0.16186 0.6156 0.29299 0.0
C171 C 0.16752 0.65153 0.31845 0.0
C172 C 0.5758 0.16333 0.59078 0.0
C173 C 0.61008 0.16705 0.55533 0.0
C174 C 0.53767 0.1645 0.62645 0.0
C175 C 0.50739 0.17018 0.652 0.0
C176 C 0.36477 0.5414 0.95958 0.0
C177 C 0.32887 0.51107 0.98516 0.0
C178 C 0.404 0.57957 0.92397 0.0
C179 C 0.43453 0.61384 0.88861 0.0
C180 C 0.81477 0.36756 0.2926 0.0
C181 C 0.80917 0.33167 0.31826 0.0
C182 C 0.81589 0.4068 0.25677 0.0
C183 C 0.81218 0.43732 0.22118 0.0
C184 C 0.40097 0.82004 0.59051 0.0
C185 C 0.36668 0.8163 0.55505 0.0
C186 C 0.4391 0.81887 0.6262 0.0
C187 C 0.46937 0.81317 0.65178 0.0
C188 C 0.61174 0.44206 0.95913 0.0
C189 C 0.64768 0.47237 0.98447 0.0
C190 C 0.57249 0.40386 0.9237 0.0
C191 C 0.542 0.36954 0.88841 0.0
loop_
_geom_bond_atom_site_label_1
_geom_bond_atom_site_label_2
_geom_bond_distance
_geom_bond_site_symmetry_2
_ccdc_geom_bond_type
Tb0 O3 2.453 . S
Tb0 O4 2.596 . S
Tb0 O5 2.374 . S
Tb0 O13 2.343 1_554 S
Tb0 O15 2.353 . S
Tb0 O17 2.427 1_554 S
Tb0 O18 2.513 1_554 S
C1 O5 1.251 . S
C1 O7 1.263 . S
Tb2 O4 2.343 1_556 S
Tb2 O7 2.353 1_556 S
Tb2 O10 2.427 1_556 S
Tb2 O11 2.513 1_556 S
Tb2 O12 2.453 . S
Tb2 O13 2.596 . S
Tb2 O14 2.374 . S
O3 Tb0 2.453 . S
O3 C19 1.245 . S
O4 Tb0 2.596 . S
O4 Tb2 2.343 1_554 S
O4 C19 1.259 . S
O5 Tb0 2.374 . S
O5 C1 1.251 . S
C6 O10 1.275 . S
C6 O11 1.246 . S
O7 C1 1.263 . S
O7 Tb2 2.353 1_554 S
C8 O12 1.245 . S
C8 O13 1.259 . S
C9 O14 1.250 . S
C9 O15 1.263 1_556 S
O10 Tb2 2.427 1_554 S
O10 C6 1.275 . S
O11 Tb2 2.513 1_554 S
O11 C6 1.246 . S
O12 Tb2 2.453 . S
O12 C8 1.245 . S
O13 Tb0 2.343 1_556 S
O13 Tb2 2.596 . S
O13 C8 1.259 . S
O14 Tb2 2.374 . S
O14 C9 1.250 . S
O15 Tb0 2.353 . S
O15 C9 1.263 1_554 S
C16 O17 1.275 . S
C16 O18 1.246 . S
O17 Tb0 2.427 1_556 S
O17 C16 1.275 . S
O18 Tb0 2.513 1_556 S
O18 C16 1.246 . S
C19 O3 1.245 . S
C19 O4 1.259 . S
Tb20 O23 2.453 . S
Tb20 O24 2.596 . S
Tb20 O25 2.374 . S
Tb20 O33 2.343 . S
Tb20 O35 2.353 . S
Tb20 O37 2.427 . S
Tb20 O38 2.513 . S
C21 O25 1.251 . S
C21 O27 1.263 . S
Tb22 O24 2.343 . S
Tb22 O27 2.353 . S
Tb22 O30 2.427 . S
Tb22 O31 2.513 . S
Tb22 O32 2.453 . S
Tb22 O33 2.596 . S
Tb22 O34 2.374 . S
O23 Tb20 2.453 . S
O23 C39 1.245 . S
O24 Tb20 2.596 . S
O24 Tb22 2.343 . S
O24 C39 1.259 . S
O25 Tb20 2.374 . S
O25 C21 1.251 . S
C26 O30 1.275 . S
C26 O31 1.246 . S
O27 C21 1.263 . S
O27 Tb22 2.353 . S
C28 O32 1.245 . S
C28 O33 1.259 . S
C29 O34 1.250 . S
C29 O35 1.263 . S
O30 Tb22 2.427 . S
O30 C26 1.275 . S
O31 Tb22 2.513 . S
O31 C26 1.246 . S
O32 Tb22 2.453 . S
O32 C28 1.245 . S
O33 Tb20 2.343 . S
O33 Tb22 2.596 . S
O33 C28 1.259 . S
O34 Tb22 2.374 . S
O34 C29 1.250 . S
O35 Tb20 2.353 . S
O35 C29 1.263 . S
C36 O37 1.275 . S
C36 O38 1.246 . S
O37 Tb20 2.427 . S
O37 C36 1.275 . S
O38 Tb20 2.513 . S
O38 C36 1.246 . S
C39 O23 1.245 . S
C39 O24 1.259 . S
Tb40 O43 2.453 . S
Tb40 O44 2.596 . S
Tb40 O45 2.374 . S
Tb40 O53 2.343 . S
Tb40 O55 2.353 . S
Tb40 O57 2.427 . S
Tb40 O58 2.513 . S
C41 O45 1.251 . S
C41 O47 1.263 . S
Tb42 O44 2.343 . S
Tb42 O47 2.353 . S
Tb42 O50 2.427 . S
Tb42 O51 2.513 . S
Tb42 O52 2.453 . S
Tb42 O53 2.596 . S
Tb42 O54 2.374 . S
O43 Tb40 2.453 . S
O43 C59 1.245 . S
O44 Tb40 2.596 . S
O44 Tb42 2.343 . S
O44 C59 1.259 . S
O45 Tb40 2.374 . S
O45 C41 1.251 . S
C46 O50 1.275 . S
C46 O51 1.246 . S
O47 C41 1.263 . S
O47 Tb42 2.353 . S
C48 O52 1.245 . S
C48 O53 1.259 . S
C49 O54 1.250 . S
C49 O55 1.263 . S
O50 Tb42 2.427 . S
O50 C46 1.275 . S
O51 Tb42 2.513 . S
O51 C46 1.246 . S
O52 Tb42 2.453 . S
O52 C48 1.245 . S
O53 Tb40 2.343 . S
O53 Tb42 2.596 . S
O53 C48 1.259 . S
O54 Tb42 2.374 . S
O54 C49 1.250 . S
O55 Tb40 2.353 . S
O55 C49 1.263 . S
C56 O57 1.275 . S
C56 O58 1.246 . S
O57 Tb40 2.427 . S
O57 C56 1.275 . S
O58 Tb40 2.513 . S
O58 C56 1.246 . S
C59 O43 1.245 . S
C59 O44 1.259 . S
Tb60 O63 2.453 . S
Tb60 O64 2.596 . S
Tb60 O65 2.374 . S
Tb60 O73 2.343 1_554 S
Tb60 O75 2.353 . S
Tb60 O77 2.427 1_554 S
Tb60 O78 2.513 1_554 S
C61 O65 1.251 . S
C61 O67 1.263 . S
Tb62 O64 2.343 1_556 S
Tb62 O67 2.353 1_556 S
Tb62 O70 2.427 1_556 S
Tb62 O71 2.513 1_556 S
Tb62 O72 2.453 . S
Tb62 O73 2.596 . S
Tb62 O74 2.374 . S
O63 Tb60 2.453 . S
O63 C79 1.245 . S
O64 Tb60 2.596 . S
O64 Tb62 2.343 1_554 S
O64 C79 1.259 . S
O65 Tb60 2.374 . S
O65 C61 1.251 . S
C66 O70 1.275 . S
C66 O71 1.246 . S
O67 C61 1.263 . S
O67 Tb62 2.353 1_554 S
C68 O72 1.245 . S
C68 O73 1.259 . S
C69 O74 1.250 . S
C69 O75 1.263 1_556 S
O70 Tb62 2.427 1_554 S
O70 C66 1.275 . S
O71 Tb62 2.513 1_554 S
O71 C66 1.246 . S
O72 Tb62 2.453 . S
O72 C68 1.245 . S
O73 Tb60 2.343 1_556 S
O73 Tb62 2.596 . S
O73 C68 1.259 . S
O74 Tb62 2.374 . S
O74 C69 1.250 . S
O75 Tb60 2.353 . S
O75 C69 1.263 1_554 S
C76 O77 1.275 . S
C76 O78 1.246 . S
O77 Tb60 2.427 1_556 S
O77 C76 1.275 . S
O78 Tb60 2.513 1_556 S
O78 C76 1.246 . S
C79 O63 1.245 . S
C79 O64 1.259 . S
Tb80 O83 2.453 . S
Tb80 O84 2.596 . S
Tb80 O85 2.374 . S
Tb80 O93 2.343 . S
Tb80 O95 2.353 . S
Tb80 O97 2.427 . S
Tb80 O98 2.513 . S
C81 O85 1.251 . S
C81 O87 1.263 . S
Tb82 O84 2.343 . S
Tb82 O87 2.353 . S
Tb82 O90 2.427 . S
Tb82 O91 2.513 . S
Tb82 O92 2.453 . S
Tb82 O93 2.596 . S
Tb82 O94 2.374 . S
O83 Tb80 2.453 . S
O83 C99 1.245 . S
O84 Tb80 2.596 . S
O84 Tb82 2.343 . S
O84 C99 1.259 . S
O85 Tb80 2.374 . S
O85 C81 1.251 . S
C86 O90 1.275 . S
C86 O91 1.246 . S
O87 C81 1.263 . S
O87 Tb82 2.353 . S
C88 O92 1.245 . S
C88 O93 1.259 . S
C89 O94 1.250 . S
C89 O95 1.263 . S
O90 Tb82 2.427 . S
O90 C86 1.275 . S
O91 Tb82 2.513 . S
O91 C86 1.246 . S
O92 Tb82 2.453 . S
O92 C88 1.245 . S
O93 Tb80 2.343 . S
O93 Tb82 2.596 . S
O93 C88 1.259 . S
O94 Tb82 2.374 . S
O94 C89 1.250 . S
O95 Tb80 2.353 . S
O95 C89 1.263 . S
C96 O97 1.275 . S
C96 O98 1.246 . S
O97 Tb80 2.427 . S
O97 C96 1.275 . S
O98 Tb80 2.513 . S
O98 C96 1.246 . S
C99 O83 1.245 . S
C99 O84 1.259 . S
Tb100 O103 2.453 . S
Tb100 O104 2.596 . S
Tb100 O105 2.374 . S
Tb100 O113 2.343 . S
Tb100 O115 2.353 . S
Tb100 O117 2.427 . S
Tb100 O118 2.513 . S
C101 O105 1.251 . S
C101 O107 1.263 . S
Tb102 O104 2.343 . S
Tb102 O107 2.353 . S
Tb102 O110 2.427 . S
Tb102 O111 2.513 . S
Tb102 O112 2.453 . S
Tb102 O113 2.596 . S
Tb102 O114 2.374 . S
O103 Tb100 2.453 . S
O103 C119 1.245 . S
O104 Tb100 2.596 . S
O104 Tb102 2.343 . S
O104 C119 1.259 . S
O105 Tb100 2.374 . S
O105 C101 1.251 . S
C106 O110 1.275 . S
C106 O111 1.246 . S
O107 C101 1.263 . S
O107 Tb102 2.353 . S
C108 O112 1.245 . S
C108 O113 1.259 . S
C109 O114 1.250 . S
C109 O115 1.263 . S
O110 Tb102 2.427 . S
O110 C106 1.275 . S
O111 Tb102 2.513 . S
O111 C106 1.246 . S
O112 Tb102 2.453 . S
O112 C108 1.245 . S
O113 Tb100 2.343 . S
O113 Tb102 2.596 . S
O113 C108 1.259 . S
O114 Tb102 2.374 . S
O114 C109 1.250 . S
O115 Tb100 2.353 . S
O115 C109 1.263 . S
C116 O117 1.275 . S
C116 O118 1.246 . S
O117 Tb100 2.427 . S
O117 C116 1.275 . S
O118 Tb100 2.513 . S
O118 C116 1.246 . S
C119 O103 1.245 . S
C119 O104 1.259 . S
C120 C121 1.170 . S
C120 C122 1.380 . S
C121 C120 1.170 . S
C122 C120 1.380 . S
C122 C123 1.170 . S
C123 C122 1.170 . S
C124 C125 1.170 . S
C124 C126 1.380 1_455 S
C125 C124 1.170 . S
C126 C124 1.380 1_655 S
C126 C127 1.170 . S
C127 C126 1.170 . S
C128 C129 1.170 . S
C128 C130 1.380 1_545 S
C129 C128 1.170 . S
C130 C128 1.380 1_565 S
C130 C131 1.170 . S
C131 C130 1.170 . S
C132 C133 1.170 . S
C132 C134 1.380 . S
C133 C132 1.170 . S
C134 C132 1.380 . S
C134 C135 1.170 . S
C135 C134 1.170 . S
C136 C137 1.170 . S
C136 C138 1.380 1_455 S
C137 C136 1.170 . S
C138 C136 1.380 1_655 S
C138 C139 1.170 . S
C139 C138 1.170 . S
C140 C141 1.170 . S
C140 C142 1.380 1_545 S
C141 C140 1.170 . S
C142 C140 1.380 1_565 S
C142 C143 1.170 . S
C143 C142 1.170 . S
C144 C145 1.170 . S
C144 C146 1.380 . S
C145 C144 1.170 . S
C146 C144 1.380 . S
C146 C147 1.170 . S
C147 C146 1.170 . S
C148 C149 1.170 . S
C148 C150 1.380 . S
C149 C148 1.170 . S
C150 C148 1.380 . S
C150 C151 1.170 . S
C151 C150 1.170 . S
C152 C153 1.170 . S
C152 C154 1.380 . S
C153 C152 1.170 . S
C154 C152 1.380 . S
C154 C155 1.170 . S
C155 C154 1.170 . S
C156 C157 1.170 . S
C156 C158 1.380 . S
C157 C156 1.170 . S
C158 C156 1.380 . S
C158 C159 1.170 . S
C159 C158 1.170 . S
C160 C161 1.170 . S
C160 C162 1.380 . S
C161 C160 1.170 . S
C162 C160 1.380 . S
C162 C163 1.170 . S
C163 C162 1.170 . S
C164 C165 1.170 . S
C164 C166 1.380 . S
C165 C164 1.170 . S
C166 C164 1.380 . S
C166 C167 1.170 . S
C167 C166 1.170 . S
C168 C169 1.170 . S
C168 C170 1.380 . S
C169 C168 1.170 . S
C170 C168 1.380 . S
C170 C171 1.170 . S
C171 C170 1.170 . S
C172 C173 1.170 . S
C172 C174 1.380 . S
C173 C172 1.170 . S
C174 C172 1.380 . S
C174 C175 1.170 . S
C175 C174 1.170 . S
C176 C177 1.170 . S
C176 C178 1.380 . S
C177 C176 1.170 . S
C178 C176 1.380 . S
C178 C179 1.170 . S
C179 C178 1.170 . S
C180 C181 1.170 . S
C180 C182 1.380 . S
C181 C180 1.170 . S
C182 C180 1.380 . S
C182 C183 1.170 . S
C183 C182 1.170 . S
C184 C185 1.170 . S
C184 C186 1.380 . S
C185 C184 1.170 . S
C186 C184 1.380 . S
C186 C187 1.170 . S
C187 C186 1.170 . S
C188 C189 1.170 . S
C188 C190 1.380 . S
C189 C188 1.170 . S
C190 C188 1.380 . S
C190 C191 1.170 . S
C191 C190 1.170 . S
C121 C101 1.549 . S
C123 C16 1.448 . S
C125 C1 1.550 . S
C127 C36 1.484 . S
C129 C21 1.551 . S
C131 C56 1.482 . S
C133 C41 1.553 . S
C135 C76 1.477 . S
C137 C96 1.468 . S
C139 C61 1.528 . S
C141 C116 1.495 . S
C143 C81 1.541 . S
C145 C8 1.766 . S
C147 C19 1.805 . S
C149 C28 1.762 1_556 S
C151 C39 1.794 . S
C153 C48 1.770 . S
C155 C59 1.783 1_554 S
C157 C68 1.771 . S
C159 C79 1.803 . S
C161 C99 1.762 . S
C163 C88 1.805 1_556 S
C165 C108 1.805 . S
C167 C119 1.765 1_554 S
C169 C6 1.423 . S
C171 C89 1.463 . S
C173 C26 1.446 . S
C175 C109 1.465 . S
C177 C9 1.467 . S
C179 C46 1.449 . S
C181 C29 1.465 . S
C183 C66 1.418 . S
C185 C86 1.436 . S
C187 C49 1.495 . S
C189 C69 1.467 . S
C191 C106 1.449 . S
