# Generated by pormake.
# Topology cds, (4)-cn, num edge types: 1
# Building blocks:
#     Node 0, Type 0, BuildingBlock: ESEHIV_clean_sbu_0, # of connection points: 4
#     Node 1, Type 0, BuildingBlock: ESEHIV_clean_sbu_0, # of connection points: 4
#     Edge 2, Type (0, 0), BuildingBlock: ZUJKAS_clean_linker_0, # of connection points: 2
#     Edge 3, Type (0, 0), BuildingBlock: ZUJKAS_clean_linker_0, # of connection points: 2
#     Edge 4, Type (0, 0), BuildingBlock: ZUJKAS_clean_linker_0, # of connection points: 2
#     Edge 5, Type (0, 0), BuildingBlock: ZUJKAS_clean_linker_0, # of connection points: 2
# Relax obj value: 0.000
# Max RMSD: 0.099
# Mean RMSD: 0.094
data_MOF--net-cds--node1-ESEHIV_clean_sbu_0--edge1-ZUJKAS_clean_linker_0
_symmetry_space_group_name_H-M    P1
_symmetry_Int_Tables_number       1
_symmetry_cell_setting            triclinic
loop_
_symmetry_equiv_pos_as_xyz
'x, y, z'
_cell_length_a     19.110553
_cell_length_b     21.546871
_cell_length_c     40.522455
_cell_angle_alpha  103.56079
_cell_angle_beta   103.78171
_cell_angle_gamma 87.545891
loop_
_atom_site_label
_atom_site_type_symbol
_atom_site_fract_x
_atom_site_fract_y
_atom_site_fract_z
_atom_type_partial_charge
Cu0 Cu 0.10786 0.06434 0.03884 0.0
N1 N 0.09007 1.01533 0.99287 0.0
N2 N 0.08421 0.98847 0.93541 0.0
C3 C 0.10421 0.03356 0.96548 0.0
C4 C 0.05635 0.94001 0.94442 0.0
C5 C 0.05991 0.95676 0.9798 0.0
O6 O 0.19603 0.11382 0.04687 0.0
C7 C 0.96816 0.08047 0.04455 0.0
O8 O 0.97525 1.01828 0.03964 0.0
H9 H 0.12914 0.07899 0.96775 0.0
H10 H 0.04106 0.92847 0.99482 0.0
N11 N 0.12391 1.01286 0.07136 0.0
N12 N 0.12894 0.98347 0.12136 0.0
C13 C 0.11575 0.03131 0.10436 0.0
C14 C 0.14318 0.95124 0.06725 0.0
C15 C 0.14641 0.93301 0.09801 0.0
C16 C 0.25099 0.07935 0.04362 0.0
O17 O 0.24242 1.01699 0.03522 0.0
H18 H 0.10023 0.07906 0.11552 0.0
H19 H 0.15349 0.92144 0.04347 0.0
O20 O 0.02172 0.11393 0.04465 0.0
H21 H 0.03343 0.89611 0.92666 0.0
H22 H 0.1589 0.88575 0.10245 0.0
Cu23 Cu 0.95167 1.00163 0.51584 0.0
N24 N 0.89139 0.92978 0.50297 0.0
N25 N 0.8549 0.82973 0.49708 0.0
C26 C 0.91009 0.87238 0.50988 0.0
C27 C 0.79929 0.86176 0.48155 0.0
C28 C 0.8219 0.92354 0.48535 0.0
O29 O 1.01503 0.99743 0.56072 0.0
C30 C 0.95989 1.00209 0.44896 0.0
O31 O 0.89006 1.00657 0.44624 0.0
H32 H 0.96352 0.86202 0.52367 0.0
H33 H 0.78991 0.9613 0.47604 0.0
N34 N 0.89701 0.07573 0.52141 0.0
N35 N 0.86265 0.17671 0.52314 0.0
C36 C 0.90902 0.13092 0.51333 0.0
C37 C 0.84106 0.08674 0.53669 0.0
C38 C 0.81975 0.14901 0.53783 0.0
C39 C 0.03281 0.04586 0.58609 0.0
O40 O 0.01735 0.10321 0.58075 0.0
H41 H 0.95263 0.13792 0.50169 0.0
H42 H 0.81839 0.05222 0.54691 0.0
O43 O 1.00065 0.99967 0.47852 0.0
H44 H 0.74578 0.84229 0.46884 0.0
H45 H 0.77626 0.17211 0.54876 0.0
H46 H 0.19484 0.90624 0.16352 0.0
H47 H 0.18051 0.90683 0.222 0.0
H48 H 0.03567 0.06521 0.21788 0.0
H49 H 0.04874 0.06453 0.15933 0.0
H50 H 0.14229 0.07791 0.28257 0.0
H51 H 0.99524 0.84473 0.24136 0.0
H52 H 0.08071 0.84501 0.23012 0.0
H53 H 1.00722 0.88923 0.21046 0.0
C54 C 0.15954 0.94096 0.17488 0.0
C55 C 0.12268 0.98512 0.15644 0.0
C56 C 0.1516 0.94133 0.2084 0.0
C57 C 0.10652 0.98568 0.22416 0.0
C58 C 0.07088 0.03064 0.20623 0.0
H59 H 0.88266 0.99835 0.38286 0.0
H60 H 0.927 0.99313 0.33077 0.0
C61 C 0.07866 0.03029 0.17272 0.0
C62 C 0.09471 0.98451 0.25894 0.0
H63 H 1.01666 0.89651 0.30088 0.0
C64 C 0.11546 0.03804 0.28674 0.0
C65 C 0.05927 0.93256 0.26418 0.0
C66 C 0.03371 0.87471 0.23497 0.0
C67 C 0.10062 0.04142 0.31949 0.0
C68 C 0.06446 0.98977 0.32457 0.0
C69 C 0.04496 0.93578 0.29697 0.0
C70 C 0.03964 0.99333 0.35701 0.0
C71 C 0.12102 0.10116 0.348 0.0
C72 C 0.08841 0.99496 0.38923 0.0
C73 C 0.06311 0.99783 0.41937 0.0
C74 C 0.98864 0.9992 0.41768 0.0
C75 C 0.94035 0.9975 0.38527 0.0
C76 C 0.96555 0.99438 0.35534 0.0
H77 H 0.13946 0.14028 0.33833 0.0
H78 H 0.07451 0.11811 0.35957 0.0
H79 H 0.1653 0.09039 0.36908 0.0
H80 H 0.14588 0.9935 0.39099 0.0
H81 H 0.10168 0.99895 0.44389 0.0
H82 H 0.08849 0.88945 0.88021 0.0
H83 H 0.09345 0.89569 0.82135 0.0
H84 H 0.09678 0.10122 0.85285 0.0
H85 H 0.09122 0.09554 0.91162 0.0
H86 H 0.99455 0.95237 0.77567 0.0
H87 H 0.26417 0.06572 0.80463 0.0
H88 H 0.23525 0.02953 0.83518 0.0
H89 H 0.20588 0.10822 0.8308 0.0
C90 C 0.09019 0.93604 0.87471 0.0
C91 C 0.08954 0.99199 0.90087 0.0
C92 C 0.09347 0.93949 0.84104 0.0
C93 C 0.09668 0.99889 0.8328 0.0
C94 C 0.0962 0.05482 0.8588 0.0
H95 H 0.06155 0.13829 0.64695 0.0
H96 H 0.08308 0.12338 0.70649 0.0
C97 C 0.09292 0.05145 0.89247 0.0
C98 C 0.09635 1.00239 0.79655 0.0
H99 H 0.18901 0.06185 0.74797 0.0
C100 C 0.03742 0.97569 0.76954 0.0
C101 C 0.15223 0.03305 0.78861 0.0
C102 C 0.21832 0.06028 0.81626 0.0
C103 C 0.03169 0.9805 0.73502 0.0
C104 C 0.08721 1.01174 0.7271 0.0
C105 C 0.14661 0.03779 0.75404 0.0
C106 C 0.08264 1.02021 0.69128 0.0
C107 C 0.9649 0.9541 0.70757 0.0
C108 C 0.07813 0.9672 0.66301 0.0
C109 C 0.06564 0.97551 0.62884 0.0
C110 C 0.05788 0.03711 0.62232 0.0
C111 C 0.0669 0.09018 0.65093 0.0
C112 C 0.0792 0.08177 0.68505 0.0
H113 H 0.9204 0.94546 0.71935 0.0
H114 H 0.94569 0.98718 0.69012 0.0
H115 H 0.97766 0.90789 0.69136 0.0
H116 H 0.08227 0.91927 0.66727 0.0
H117 H 0.05947 0.93356 0.60749 0.0
H118 H 0.91019 0.19668 0.03494 0.0
H119 H 0.78968 0.23628 0.04114 0.0
H120 H 0.75107 0.06698 0.07395 0.0
H121 H 0.8693 0.02755 0.06774 0.0
H122 H 0.65441 0.16763 1.00453 0.0
H123 H 0.69161 0.21355 0.14758 0.0
H124 H 0.76627 0.21094 0.12701 0.0
H125 H 0.72816 0.13819 0.13024 0.0
C126 C 0.87618 0.1686 0.04396 0.0
C127 C 0.89912 0.10894 0.05075 0.0
C128 C 0.80748 0.19114 0.04742 0.0
C129 C 0.76187 0.15497 0.05852 0.0
C130 C 0.78574 0.09629 0.066 0.0
H131 H 0.37729 1.01679 0.05302 0.0
H132 H 0.49757 0.05662 0.05856 0.0
C133 C 0.85332 0.07356 0.06215 0.0
C134 C 0.68689 0.17429 0.05991 0.0
H135 H 0.57051 0.18093 0.11276 0.0
C136 C 0.63604 0.17314 0.02839 0.0
C137 C 0.66298 0.18164 0.09105 0.0
C138 C 0.7153 0.18683 0.12595 0.0
C139 C 0.56166 0.17242 0.02672 0.0
C140 C 0.53802 0.17307 0.0573 0.0
C141 C 0.58878 0.18032 0.08931 0.0
C142 C 0.46386 0.15245 0.05531 0.0
C143 C 0.50877 0.165 0.99184 0.0
C144 C 0.4048 0.19359 0.05202 0.0
C145 C 0.33508 0.17088 0.04901 0.0
C146 C 0.32386 0.10666 0.04891 0.0
C147 C 0.38367 0.06637 0.05274 0.0
C148 C 0.45269 0.08905 0.05601 0.0
H149 H 0.53528 0.16922 0.97084 0.0
H150 H 0.48158 0.11755 0.98454 0.0
H151 H 0.46656 0.20186 0.99361 0.0
H152 H 0.41257 0.24281 0.05149 0.0
H153 H 0.29004 0.20298 0.04603 0.0
H154 H 0.77468 0.73144 0.4514 0.0
H155 H 0.77572 0.62004 0.4557 0.0
H156 H 0.93677 0.66727 0.55276 0.0
H157 H 0.93647 0.77859 0.54841 0.0
H158 H 0.96954 0.55915 0.51001 0.0
H159 H 0.68587 0.54579 0.51896 0.0
H160 H 0.69465 0.57053 0.48082 0.0
H161 H 0.73049 0.62045 0.52344 0.0
C162 C 0.80977 0.71824 0.47383 0.0
C163 C 0.85526 0.76402 0.49963 0.0
C164 C 0.81023 0.65453 0.4763 0.0
C165 C 0.8554 0.63542 0.50487 0.0
C166 C 0.90132 0.68089 0.53051 0.0
H167 H 0.81937 0.27985 0.56595 0.0
H168 H 0.81937 0.391 0.56144 0.0
C169 C 0.90128 0.7445 0.52793 0.0
C170 C 0.85592 0.56786 0.50775 0.0
H171 H 0.74838 0.44762 0.51073 0.0
C172 C 0.92122 0.53481 0.51028 0.0
C173 C 0.79309 0.53635 0.50861 0.0
C174 C 0.72221 0.57023 0.50817 0.0
C175 C 0.92528 0.47096 0.51319 0.0
C176 C 0.8619 0.43875 0.51274 0.0
C177 C 0.79679 0.47206 0.51067 0.0
C178 C 0.86212 0.37095 0.5152 0.0
C179 C 0.99777 0.4392 0.51752 0.0
C180 C 0.88525 0.32244 0.49046 0.0
C181 C 0.88553 0.25879 0.49307 0.0
C182 C 0.86169 0.24223 0.52019 0.0
C183 C 0.83738 0.29081 0.54456 0.0
C184 C 0.83763 0.35445 0.54209 0.0
H185 H 0.04267 0.47484 0.52727 0.0
H186 H 1.0035 0.40735 0.53591 0.0
H187 H 1.00322 0.40995 0.49181 0.0
H188 H 0.90255 0.33369 0.46894 0.0
H189 H 0.90341 0.22242 0.47356 0.0
loop_
_geom_bond_atom_site_label_1
_geom_bond_atom_site_label_2
_geom_bond_distance
_geom_bond_site_symmetry_2
_ccdc_geom_bond_type
Cu0 N1 1.999 1_454 S
Cu0 O6 1.974 . S
Cu0 N11 1.985 . S
Cu0 O20 1.959 1_455 S
N1 Cu0 1.999 1_656 S
N1 C3 1.263 1_655 S
N1 C5 1.389 . S
N2 C3 1.358 1_655 S
N2 C4 1.400 . S
C3 N1 1.263 1_455 S
C3 N2 1.358 1_455 S
C3 H9 0.930 1_545 S
C4 N2 1.400 . S
C4 C5 1.351 . S
C4 H21 0.930 . S
C5 N1 1.389 . S
C5 C4 1.351 . S
C5 H10 0.930 . S
O6 Cu0 1.974 . S
O6 C16 1.282 1_545 S
C7 O8 1.258 1_554 S
C7 O20 1.251 1_565 S
O8 C7 1.258 1_556 S
H9 C3 0.930 1_565 S
H10 C5 0.930 . S
N11 Cu0 1.985 . S
N11 C13 1.335 1_455 S
N11 C14 1.390 1_545 S
N12 C13 1.345 1_455 S
N12 C15 1.336 1_545 S
C13 N11 1.335 1_655 S
C13 N12 1.345 1_655 S
C13 H18 0.930 . S
C14 N11 1.390 1_565 S
C14 C15 1.346 . S
C14 H19 0.930 . S
C15 N12 1.336 1_565 S
C15 C14 1.346 . S
C15 H22 0.929 . S
C16 O6 1.282 1_565 S
C16 O17 1.216 . S
O17 C16 1.216 . S
H18 C13 0.930 . S
H19 C14 0.930 . S
O20 Cu0 1.959 1_655 S
O20 C7 1.251 1_545 S
H21 C4 0.930 . S
H22 C15 0.929 . S
Cu23 N24 1.999 1_545 S
Cu23 O29 1.974 . S
Cu23 N34 1.985 . S
Cu23 O43 1.959 . S
N24 Cu23 1.999 1_565 S
N24 C26 1.263 . S
N24 C28 1.389 . S
N25 C26 1.358 . S
N25 C27 1.400 . S
C26 N24 1.263 . S
C26 N25 1.358 . S
C26 H32 0.930 1_455 S
C27 N25 1.400 . S
C27 C28 1.351 . S
C27 H44 0.930 . S
C28 N24 1.389 . S
C28 C27 1.351 . S
C28 H33 0.930 . S
O29 Cu23 1.974 . S
O29 C39 1.282 1_455 S
C30 O31 1.261 1_545 S
C30 O43 1.251 1_655 S
O31 C30 1.261 1_565 S
H32 C26 0.930 1_655 S
H33 C28 0.930 . S
N34 Cu23 1.985 . S
N34 C36 1.335 . S
N34 C37 1.390 1_455 S
N35 C36 1.345 . S
N35 C38 1.336 1_455 S
C36 N34 1.335 . S
C36 N35 1.345 . S
C36 H41 0.930 . S
C37 N34 1.390 1_655 S
C37 C38 1.346 . S
C37 H42 0.930 . S
C38 N35 1.336 1_655 S
C38 C37 1.346 . S
C38 H45 0.929 . S
C39 O29 1.282 1_655 S
C39 O40 1.216 . S
O40 C39 1.216 . S
H41 C36 0.930 . S
H42 C37 0.930 . S
O43 Cu23 1.959 . S
O43 C30 1.251 1_455 S
H44 C27 0.930 . S
H45 C38 0.929 . S
H46 C54 0.929 . S
H47 C56 0.930 . S
H48 C58 0.930 . S
H49 C61 0.929 . S
H50 C64 0.930 . S
H51 C66 0.960 . S
H52 C66 0.960 . S
H53 C66 0.960 . S
C54 H46 0.929 . S
C54 C55 1.377 . S
C54 C56 1.384 . S
C55 C54 1.377 . S
C55 C61 1.390 1_455 S
C56 H47 0.930 . S
C56 C54 1.384 . S
C56 C57 1.372 . S
C57 C56 1.372 . S
C57 C58 1.400 1_455 S
C57 C62 1.490 . S
C58 H48 0.930 . S
C58 C57 1.400 1_655 S
C58 C61 1.386 . S
H59 C75 0.930 . S
H60 C76 0.931 . S
C61 H49 0.929 . S
C61 C55 1.390 1_655 S
C61 C58 1.386 . S
C62 C57 1.490 . S
C62 C64 1.395 . S
C62 C65 1.403 1_445 S
H63 C69 0.930 . S
C64 H50 0.930 . S
C64 C62 1.395 . S
C64 C67 1.403 . S
C65 C62 1.403 1_665 S
C65 C66 1.524 . S
C65 C69 1.400 . S
C66 H51 0.960 . S
C66 H52 0.960 . S
C66 H53 0.960 . S
C66 C65 1.524 . S
C67 C64 1.403 . S
C67 C68 1.392 . S
C67 C71 1.495 . S
C68 C67 1.392 . S
C68 C69 1.385 1_445 S
C68 C70 1.478 1_455 S
C69 H63 0.930 . S
C69 C65 1.400 . S
C69 C68 1.385 1_665 S
C70 C68 1.478 1_655 S
C70 C72 1.381 1_655 S
C70 C76 1.383 . S
C71 C67 1.495 . S
C71 H77 0.959 . S
C71 H78 0.961 . S
C71 H79 0.960 . S
C72 C70 1.381 1_455 S
C72 C73 1.394 . S
C72 H80 0.930 . S
C73 C72 1.394 . S
C73 C74 1.383 1_455 S
C73 H81 0.929 . S
C74 C73 1.383 1_655 S
C74 C75 1.377 . S
C75 H59 0.930 . S
C75 C74 1.377 . S
C75 C76 1.379 . S
C76 H60 0.931 . S
C76 C70 1.383 . S
C76 C75 1.379 . S
H77 C71 0.959 . S
H78 C71 0.961 . S
H79 C71 0.960 . S
H80 C72 0.930 . S
H81 C73 0.929 . S
H82 C90 0.929 . S
H83 C92 0.930 . S
H84 C94 0.930 . S
H85 C97 0.929 . S
H86 C100 0.930 . S
H87 C102 0.960 . S
H88 C102 0.960 . S
H89 C102 0.960 . S
C90 H82 0.929 . S
C90 C91 1.377 1_665 S
C90 C92 1.384 . S
C91 C90 1.377 1_445 S
C91 C97 1.390 . S
C92 H83 0.930 . S
C92 C90 1.384 . S
C92 C93 1.372 1_665 S
C93 C92 1.372 1_445 S
C93 C94 1.400 . S
C93 C98 1.490 1_455 S
C94 H84 0.930 . S
C94 C93 1.400 . S
C94 C97 1.386 . S
H95 C111 0.930 . S
H96 C112 0.931 . S
C97 H85 0.929 . S
C97 C91 1.390 . S
C97 C94 1.386 . S
C98 C93 1.490 1_655 S
C98 C100 1.395 1_545 S
C98 C101 1.403 1_655 S
H99 C105 0.930 . S
C100 H86 0.930 . S
C100 C98 1.395 1_565 S
C100 C103 1.403 . S
C101 C98 1.403 1_455 S
C101 C102 1.524 . S
C101 C105 1.400 . S
C102 H87 0.960 . S
C102 H88 0.960 . S
C102 H89 0.960 . S
C102 C101 1.524 . S
C103 C100 1.403 . S
C103 C104 1.392 1_565 S
C103 C107 1.495 . S
C104 C103 1.392 1_545 S
C104 C105 1.385 1_655 S
C104 C106 1.478 . S
C105 H99 0.930 . S
C105 C101 1.400 . S
C105 C104 1.385 1_455 S
C106 C104 1.478 . S
C106 C108 1.381 1_545 S
C106 C112 1.383 . S
C107 C103 1.495 . S
C107 H113 0.959 . S
C107 H114 0.961 . S
C107 H115 0.960 . S
C108 C106 1.381 1_565 S
C108 C109 1.394 . S
C108 H116 0.930 . S
C109 C108 1.394 . S
C109 C110 1.383 1_565 S
C109 H117 0.929 . S
C110 C109 1.383 1_545 S
C110 C111 1.377 . S
C111 H95 0.930 . S
C111 C110 1.377 . S
C111 C112 1.379 . S
C112 H96 0.931 . S
C112 C106 1.383 . S
C112 C111 1.379 . S
H113 C107 0.959 . S
H114 C107 0.961 . S
H115 C107 0.960 . S
H116 C108 0.930 . S
H117 C109 0.929 . S
H118 C126 0.929 . S
H119 C128 0.930 . S
H120 C130 0.930 . S
H121 C133 0.929 . S
H122 C136 0.930 . S
H123 C138 0.960 . S
H124 C138 0.960 . S
H125 C138 0.960 . S
C126 H118 0.929 . S
C126 C127 1.377 1_546 S
C126 C128 1.384 . S
C127 C126 1.377 1_564 S
C127 C133 1.390 . S
C128 H119 0.930 . S
C128 C126 1.384 . S
C128 C129 1.372 1_546 S
C129 C128 1.372 1_564 S
C129 C130 1.400 . S
C129 C134 1.490 . S
C130 H120 0.930 . S
C130 C129 1.400 . S
C130 C133 1.386 . S
H131 C147 0.930 . S
H132 C148 0.931 . S
C133 H121 0.929 . S
C133 C127 1.390 . S
C133 C130 1.386 . S
C134 C129 1.490 . S
C134 C136 1.395 1_554 S
C134 C137 1.403 1_565 S
H135 C141 0.930 . S
C136 H122 0.930 . S
C136 C134 1.395 1_556 S
C136 C139 1.403 . S
C137 C134 1.403 1_545 S
C137 C138 1.524 . S
C137 C141 1.400 . S
C138 H123 0.960 . S
C138 H124 0.960 . S
C138 H125 0.960 . S
C138 C137 1.524 . S
C139 C136 1.403 . S
C139 C140 1.392 1_556 S
C139 C143 1.495 . S
C140 C139 1.392 1_554 S
C140 C141 1.385 1_565 S
C140 C142 1.478 . S
C141 H135 0.930 . S
C141 C137 1.400 . S
C141 C140 1.385 1_545 S
C142 C140 1.478 . S
C142 C144 1.381 1_564 S
C142 C148 1.383 . S
C143 C139 1.495 . S
C143 H149 0.959 . S
C143 H150 0.961 . S
C143 H151 0.960 . S
C144 C142 1.381 1_546 S
C144 C145 1.394 . S
C144 H152 0.930 . S
C145 C144 1.394 . S
C145 C146 1.383 1_546 S
C145 H153 0.929 . S
C146 C145 1.383 1_564 S
C146 C147 1.377 . S
C147 H131 0.930 . S
C147 C146 1.377 . S
C147 C148 1.379 . S
C148 H132 0.931 . S
C148 C142 1.383 . S
C148 C147 1.379 . S
H149 C143 0.959 . S
H150 C143 0.961 . S
H151 C143 0.960 . S
H152 C144 0.930 . S
H153 C145 0.929 . S
H154 C162 0.929 . S
H155 C164 0.930 . S
H156 C166 0.930 . S
H157 C169 0.929 . S
H158 C172 0.930 . S
H159 C174 0.960 . S
H160 C174 0.960 . S
H161 C174 0.960 . S
C162 H154 0.929 . S
C162 C163 1.377 1_655 S
C162 C164 1.384 . S
C163 C162 1.377 1_455 S
C163 C169 1.390 . S
C164 H155 0.930 . S
C164 C162 1.384 . S
C164 C165 1.372 1_655 S
C165 C164 1.372 1_455 S
C165 C166 1.400 . S
C165 C170 1.490 . S
C166 H156 0.930 . S
C166 C165 1.400 . S
C166 C169 1.386 . S
H167 C183 0.930 . S
H168 C184 0.931 . S
C169 H157 0.929 . S
C169 C163 1.390 . S
C169 C166 1.386 . S
C170 C165 1.490 . S
C170 C172 1.395 . S
C170 C173 1.403 1_455 S
H171 C177 0.930 . S
C172 H158 0.930 . S
C172 C170 1.395 . S
C172 C175 1.403 . S
C173 C170 1.403 1_655 S
C173 C174 1.524 . S
C173 C177 1.400 . S
C174 H159 0.960 . S
C174 H160 0.960 . S
C174 H161 0.960 . S
C174 C173 1.524 . S
C175 C172 1.403 . S
C175 C176 1.392 . S
C175 C179 1.495 . S
C176 C175 1.392 . S
C176 C177 1.385 1_455 S
C176 C178 1.478 . S
C177 H171 0.930 . S
C177 C173 1.400 . S
C177 C176 1.385 1_655 S
C178 C176 1.478 . S
C178 C180 1.381 1_455 S
C178 C184 1.383 . S
C179 C175 1.495 . S
C179 H185 0.959 . S
C179 H186 0.961 . S
C179 H187 0.960 . S
C180 C178 1.381 1_655 S
C180 C181 1.394 . S
C180 H188 0.930 . S
C181 C180 1.394 . S
C181 C182 1.383 1_655 S
C181 H189 0.929 . S
C182 C181 1.383 1_455 S
C182 C183 1.377 . S
C183 H167 0.930 . S
C183 C182 1.377 . S
C183 C184 1.379 . S
C184 H168 0.931 . S
C184 C178 1.383 . S
C184 C183 1.379 . S
H185 C179 0.959 . S
H186 C179 0.961 . S
H187 C179 0.960 . S
H188 C180 0.930 . S
H189 C181 0.929 . S
C55 N12 1.458 . S
C74 C30 1.489 . S
C91 N2 1.457 1_455 S
C110 C39 1.477 . S
C127 C7 1.480 . S
C146 C16 1.468 . S
C163 N25 1.458 . S
C182 N35 1.475 . S
