# Generated by pormake.
# Topology cds, (4)-cn, num edge types: 1
# Building blocks:
#     Node 0, Type 0, BuildingBlock: ESEHIV_clean_sbu_0, # of connection points: 4
#     Node 1, Type 0, BuildingBlock: ESEHIV_clean_sbu_0, # of connection points: 4
#     Edge 2, Type (0, 0), BuildingBlock: XUDNAN_clean_linker_2, # of connection points: 2
#     Edge 3, Type (0, 0), BuildingBlock: XUDNAN_clean_linker_2, # of connection points: 2
#     Edge 4, Type (0, 0), BuildingBlock: XUDNAN_clean_linker_2, # of connection points: 2
#     Edge 5, Type (0, 0), BuildingBlock: XUDNAN_clean_linker_2, # of connection points: 2
# Relax obj value: 0.000
# Max RMSD: 0.099
# Mean RMSD: 0.094
data_MOF--net-cds--node1-ESEHIV_clean_sbu_0--edge1-XUDNAN_clean_linker_2
_symmetry_space_group_name_H-M    P1
_symmetry_Int_Tables_number       1
_symmetry_cell_setting            triclinic
loop_
_symmetry_equiv_pos_as_xyz
'x, y, z'
_cell_length_a     14.990375
_cell_length_b     17.128771
_cell_length_c     31.583916
_cell_angle_alpha  102.95596
_cell_angle_beta   103.82209
_cell_angle_gamma 87.875538
loop_
_atom_site_label
_atom_site_type_symbol
_atom_site_fract_x
_atom_site_fract_y
_atom_site_fract_z
_atom_type_partial_charge
Cu0 Cu 0.14738 0.09563 0.07329 0.0
N1 N 0.1196 0.03736 1.01361 0.0
N2 N 0.10073 1.0092 0.93936 0.0
C3 C 0.12864 0.06445 0.9779 0.0
C4 C 0.0731 0.94484 0.9512 0.0
C5 C 0.08547 0.96214 0.99705 0.0
O6 O 0.26085 0.1564 0.08255 0.0
C7 C 0.96738 0.11519 0.07361 0.0
O8 O 0.97468 0.03704 0.06248 0.0
H9 H 0.15384 0.124 0.98011 0.0
H10 H 0.06999 0.92282 1.01686 0.0
N11 N 0.16862 1.0271 0.11317 0.0
N12 N 0.17636 0.98201 0.17534 0.0
C13 C 0.15032 0.04238 0.15396 0.0
C14 C 0.20744 0.95466 0.10831 0.0
C15 C 0.21242 0.92678 0.14646 0.0
C16 C 0.32372 0.11395 0.06829 0.0
O17 O 0.30686 0.03729 0.05087 0.0
H18 H 0.11798 0.09677 0.16732 0.0
H19 H 0.23115 0.92439 0.07921 0.0
O20 O 0.0394 0.15866 0.08214 0.0
H21 H 0.04662 0.8891 0.92836 0.0
H22 H 0.24184 0.87052 0.15242 0.0
Cu23 Cu 0.94525 1.00612 0.53155 0.0
N24 N 0.87805 0.90968 0.51611 0.0
N25 N 0.84035 0.78409 0.51583 0.0
C26 C 0.89482 0.84899 0.53754 0.0
C27 C 0.78775 0.80507 0.47908 0.0
C28 C 0.81177 0.88195 0.47915 0.0
O29 O 0.01118 1.0209 0.59402 0.0
C30 C 0.03561 0.04657 0.46831 0.0
O31 O 0.99944 0.11747 0.47751 0.0
H32 H 0.94894 0.85147 0.56742 0.0
H33 H 0.7854 0.91379 0.45299 0.0
N34 N 0.86793 0.09374 0.52604 0.0
N35 N 0.82567 0.22122 0.52968 0.0
C36 C 0.8913 0.17126 0.54477 0.0
C37 C 0.78372 0.09484 0.49903 0.0
C38 C 0.75768 0.17332 0.50106 0.0
C39 C 0.96222 1.01848 0.62162 0.0
O40 O 0.8728 1.00874 0.60653 0.0
H41 H 0.95777 0.19066 0.5666 0.0
H42 H 0.74501 0.04278 0.47796 0.0
O43 O 0.02536 0.99433 0.48996 0.0
H44 H 0.73664 0.76736 0.45333 0.0
H45 H 0.69471 0.19363 0.48202 0.0
H46 H 0.13736 0.10385 0.2409 0.0
H47 H 0.19393 0.84915 0.21107 0.0
H48 H 0.17784 0.84095 0.28552 0.0
H49 H 0.25205 0.14567 0.35882 0.0
H50 H 0.16607 0.21493 0.37472 0.0
H51 H 0.18891 0.20253 0.32013 0.0
H52 H 0.01698 0.16825 0.28314 0.0
H53 H 0.99357 0.18108 0.33755 0.0
H54 H 0.96242 0.08829 0.29685 0.0
H55 H 0.1485 0.85861 0.36242 0.0
H56 H 0.10024 0.89983 0.43359 0.0
H57 H 0.0589 0.14166 0.41228 0.0
C58 C 0.14652 0.04611 0.24963 0.0
C59 C 0.1677 0.97733 0.21948 0.0
C60 C 0.17928 0.90335 0.23323 0.0
C61 C 0.17002 0.89787 0.27566 0.0
C62 C 0.14898 0.96674 0.30426 0.0
C63 C 0.13699 0.03939 0.29174 0.0
C64 C 0.11002 0.1036 0.32783 0.0
C65 C 0.18367 0.17064 0.34647 0.0
C66 C 0.01512 0.13724 0.31029 0.0
C67 C 0.10714 0.05532 0.36226 0.0
C68 C 0.13087 0.9767 0.34827 0.0
C69 C 0.13032 0.92016 0.37384 0.0
C70 C 0.10297 0.94422 0.4143 0.0
C71 C 0.07589 1.02404 0.42871 0.0
C72 C 0.07972 0.08034 0.4025 0.0
H73 H 0.96975 0.95202 0.86416 0.0
H74 H 0.22695 0.08619 0.91394 0.0
H75 H 0.22373 0.10025 0.83712 0.0
H76 H 1.01022 0.84556 0.75816 0.0
H77 H 0.89295 0.85286 0.72806 0.0
H78 H 0.91832 0.85083 0.78649 0.0
H79 H 0.83291 0.98447 0.80317 0.0
H80 H 0.80716 0.98684 0.74481 0.0
H81 H 0.86638 0.07051 0.78616 0.0
H82 H 0.19225 0.09658 0.75343 0.0
H83 H 0.12882 0.08555 0.67212 0.0
H84 H 0.88862 0.96031 0.6794 0.0
C85 C 0.02577 0.98363 0.85874 0.0
C86 C 0.09897 1.01755 0.89479 0.0
C87 C 0.17014 0.06006 0.88668 0.0
C88 C 0.16907 0.06791 0.84318 0.0
C89 C 0.0957 0.03369 0.80829 0.0
C90 C 0.0249 0.9931 0.81577 0.0
C91 C 0.95176 0.96508 0.77314 0.0
C92 C 0.94284 0.87313 0.76074 0.0
C93 C 0.85909 1.00408 0.77707 0.0
C94 C 0.99228 0.99612 0.74043 0.0
C95 C 0.07587 0.03466 0.76105 0.0
C96 C 0.12659 0.06689 0.73704 0.0
C97 C 0.09029 0.06019 0.69092 0.0
C98 C 1.00358 1.02275 0.6696 0.0
C99 C 0.95463 0.99014 0.69485 0.0
H100 H 0.80983 0.05515 1.01684 0.0
H101 H 0.91696 0.24689 0.13138 0.0
H102 H 0.75715 0.28262 0.13734 0.0
H103 H 0.59592 0.1566 0.96994 0.0
H104 H 0.53205 0.06317 0.95285 0.0
H105 H 0.65271 0.06391 0.95377 0.0
H106 H 0.68164 0.96275 1.00544 0.0
H107 H 0.56173 0.96209 1.00496 0.0
H108 H 0.64603 0.98715 0.05744 0.0
H109 H 0.58313 0.28155 0.13637 0.0
H110 H 0.41974 0.24477 0.1281 0.0
H111 H 0.43458 0.05461 1.01369 0.0
C112 C 0.79965 0.10617 0.04247 0.0
C113 C 0.87514 0.14849 0.07359 0.0
C114 C 0.85955 0.21447 0.10687 0.0
C115 C 0.7691 0.23488 0.11049 0.0
C116 C 0.69578 0.18957 0.08 0.0
C117 C 0.71079 0.12732 0.04618 0.0
C118 C 0.62304 0.08255 0.0199 0.0
C119 C 0.59955 0.09218 0.97124 0.0
C120 C 0.6285 0.99345 0.02212 0.0
C121 C 0.55619 0.12661 0.04526 0.0
C122 C 0.59815 0.18906 0.07943 0.0
C123 C 0.5496 0.2337 0.10917 0.0
C124 C 0.45689 0.21263 0.10424 0.0
C125 C 0.41484 0.14684 0.07031 0.0
C126 C 0.46485 0.10526 0.03997 0.0
H127 H 0.77121 0.64111 0.46129 0.0
H128 H 0.9151 0.75016 0.59737 0.0
H129 H 0.92522 0.61768 0.61628 0.0
H130 H 0.63619 0.49935 0.49071 0.0
H131 H 0.64276 0.42178 0.44248 0.0
H132 H 0.64655 0.52555 0.43987 0.0
H133 H 0.8007 0.50279 0.41567 0.0
H134 H 0.79751 0.39906 0.41829 0.0
H135 H 0.89585 0.46134 0.45009 0.0
H136 H 0.92565 0.47082 0.61933 0.0
H137 H 0.90959 0.32332 0.60669 0.0
H138 H 0.75934 0.31341 0.47006 0.0
C139 C 0.8038 0.63803 0.49529 0.0
C140 C 0.84282 0.70695 0.52763 0.0
C141 C 0.88591 0.69868 0.57158 0.0
C142 C 0.89154 0.62352 0.58281 0.0
C143 C 0.85302 0.55703 0.54993 0.0
C144 C 0.80935 0.56378 0.50717 0.0
C145 C 0.77391 0.4832 0.47782 0.0
C146 C 0.6686 0.48245 0.46179 0.0
C147 C 0.81976 0.46027 0.43813 0.0
C148 C 0.80491 0.42987 0.51066 0.0
C149 C 0.85084 0.47338 0.55205 0.0
C150 C 0.88903 0.43631 0.58716 0.0
C151 C 0.87994 0.35266 0.57969 0.0
C152 C 0.83238 0.3072 0.53762 0.0
C153 C 0.79425 0.34674 0.50286 0.0
loop_
_geom_bond_atom_site_label_1
_geom_bond_atom_site_label_2
_geom_bond_distance
_geom_bond_site_symmetry_2
_ccdc_geom_bond_type
Cu0 N1 1.999 1_454 S
Cu0 O6 1.974 . S
Cu0 N11 1.985 . S
Cu0 O20 1.959 1_455 S
N1 Cu0 1.999 1_656 S
N1 C3 1.263 1_655 S
N1 C5 1.389 . S
N2 C3 1.358 1_655 S
N2 C4 1.400 . S
C3 N1 1.263 1_455 S
C3 N2 1.358 1_455 S
C3 H9 0.930 1_545 S
C4 N2 1.400 . S
C4 C5 1.351 . S
C4 H21 0.930 . S
C5 N1 1.389 . S
C5 C4 1.351 . S
C5 H10 0.930 . S
O6 Cu0 1.974 . S
O6 C16 1.282 1_545 S
C7 O8 1.261 . S
C7 O20 1.251 1_565 S
O8 C7 1.261 . S
H9 C3 0.930 1_565 S
H10 C5 0.930 . S
N11 Cu0 1.985 . S
N11 C13 1.335 1_455 S
N11 C14 1.390 1_545 S
N12 C13 1.345 1_455 S
N12 C15 1.336 1_545 S
C13 N11 1.335 1_655 S
C13 N12 1.345 1_655 S
C13 H18 0.930 . S
C14 N11 1.390 1_565 S
C14 C15 1.346 . S
C14 H19 0.930 . S
C15 N12 1.336 1_565 S
C15 C14 1.346 . S
C15 H22 0.929 . S
C16 O6 1.282 1_565 S
C16 O17 1.216 . S
O17 C16 1.216 . S
H18 C13 0.930 . S
H19 C14 0.930 . S
O20 Cu0 1.959 1_655 S
O20 C7 1.251 1_545 S
H21 C4 0.930 . S
H22 C15 0.929 . S
Cu23 N24 1.999 1_545 S
Cu23 O29 1.974 . S
Cu23 N34 1.985 . S
Cu23 O43 1.959 . S
N24 Cu23 1.999 1_565 S
N24 C26 1.263 . S
N24 C28 1.389 . S
N25 C26 1.358 . S
N25 C27 1.400 . S
C26 N24 1.263 . S
C26 N25 1.358 . S
C26 H32 0.930 1_455 S
C27 N25 1.400 . S
C27 C28 1.351 . S
C27 H44 0.930 . S
C28 N24 1.389 . S
C28 C27 1.351 . S
C28 H33 0.930 . S
O29 Cu23 1.974 . S
O29 C39 1.282 1_455 S
C30 O31 1.261 1_545 S
C30 O43 1.251 1_655 S
O31 C30 1.261 1_565 S
H32 C26 0.930 1_655 S
H33 C28 0.930 . S
N34 Cu23 1.985 . S
N34 C36 1.335 . S
N34 C37 1.390 1_455 S
N35 C36 1.345 . S
N35 C38 1.336 1_455 S
C36 N34 1.335 . S
C36 N35 1.345 . S
C36 H41 0.930 . S
C37 N34 1.390 1_655 S
C37 C38 1.346 . S
C37 H42 0.930 . S
C38 N35 1.336 1_655 S
C38 C37 1.346 . S
C38 H45 0.929 . S
C39 O29 1.282 1_655 S
C39 O40 1.216 . S
O40 C39 1.216 . S
H41 C36 0.930 . S
H42 C37 0.930 . S
O43 Cu23 1.959 . S
O43 C30 1.251 1_455 S
H44 C27 0.930 . S
H45 C38 0.929 . S
H46 C58 0.930 . S
H47 C60 0.930 . S
H48 C61 0.930 . S
H49 C65 0.959 . S
H50 C65 0.959 . S
H51 C65 0.961 . S
H52 C66 0.960 . S
H53 C66 0.961 . S
H54 C66 0.959 . S
H55 C69 0.929 . S
H56 C70 0.931 . S
H57 C72 0.930 . S
C58 H46 0.930 . S
C58 C59 1.399 1_455 S
C58 C63 1.399 . S
C59 C58 1.399 1_655 S
C59 C60 1.376 1_545 S
C60 H47 0.930 . S
C60 C59 1.376 1_565 S
C60 C61 1.388 . S
C61 H48 0.930 . S
C61 C60 1.388 . S
C61 C62 1.390 . S
C62 C61 1.390 . S
C62 C63 1.394 1_665 S
C62 C68 1.465 . S
C63 C58 1.399 . S
C63 C62 1.394 1_445 S
C63 C64 1.516 . S
C64 C63 1.516 . S
C64 C65 1.502 . S
C64 C66 1.561 1_455 S
C64 C67 1.526 . S
C65 H49 0.959 . S
C65 H50 0.959 . S
C65 H51 0.961 . S
C65 C64 1.502 . S
C66 H52 0.960 . S
C66 H53 0.961 . S
C66 H54 0.959 . S
C66 C64 1.561 1_655 S
C67 C64 1.526 . S
C67 C68 1.396 1_445 S
C67 C72 1.390 . S
C68 C62 1.465 . S
C68 C67 1.396 1_665 S
C68 C69 1.399 . S
C69 H55 0.929 . S
C69 C68 1.399 . S
C69 C70 1.385 . S
C70 H56 0.931 . S
C70 C69 1.385 . S
C70 C71 1.389 1_565 S
C71 C70 1.389 1_545 S
C71 C72 1.387 1_655 S
C72 H57 0.930 . S
C72 C67 1.390 . S
C72 C71 1.387 1_455 S
H73 C85 0.930 1_455 S
H74 C87 0.930 . S
H75 C88 0.930 . S
H76 C92 0.959 . S
H77 C92 0.959 . S
H78 C92 0.961 . S
H79 C93 0.960 . S
H80 C93 0.961 . S
H81 C93 0.959 . S
H82 C96 0.929 . S
H83 C97 0.931 . S
H84 C99 0.930 . S
C85 H73 0.930 1_655 S
C85 C86 1.399 1_665 S
C85 C90 1.399 . S
C86 C85 1.399 1_445 S
C86 C87 1.376 1_455 S
C87 H74 0.930 . S
C87 C86 1.376 1_655 S
C87 C88 1.388 . S
C88 H75 0.930 . S
C88 C87 1.388 . S
C88 C89 1.390 . S
C89 C88 1.390 . S
C89 C90 1.394 1_545 S
C89 C95 1.465 . S
C90 C85 1.399 . S
C90 C89 1.394 1_565 S
C90 C91 1.516 . S
C91 C90 1.516 . S
C91 C92 1.502 1_655 S
C91 C93 1.561 . S
C91 C94 1.526 . S
C92 H76 0.959 . S
C92 H77 0.959 . S
C92 H78 0.961 . S
C92 C91 1.502 1_455 S
C93 H79 0.960 . S
C93 H80 0.961 . S
C93 H81 0.959 . S
C93 C91 1.561 . S
C94 C91 1.526 . S
C94 C95 1.396 1_565 S
C94 C99 1.390 . S
C95 C89 1.465 . S
C95 C94 1.396 1_545 S
C95 C96 1.399 . S
C96 H82 0.929 . S
C96 C95 1.399 . S
C96 C97 1.385 . S
C97 H83 0.931 . S
C97 C96 1.385 . S
C97 C98 1.389 . S
C98 C97 1.389 . S
C98 C99 1.387 1_545 S
C99 H84 0.930 . S
C99 C94 1.390 . S
C99 C98 1.387 1_565 S
H100 C112 0.930 1_556 S
H101 C114 0.930 . S
H102 C115 0.930 . S
H103 C119 0.959 . S
H104 C119 0.959 . S
H105 C119 0.961 . S
H106 C120 0.960 . S
H107 C120 0.961 1_556 S
H108 C120 0.959 . S
H109 C123 0.929 . S
H110 C124 0.931 . S
H111 C126 0.930 1_556 S
C112 H100 0.930 1_554 S
C112 C113 1.399 . S
C112 C117 1.399 . S
C113 C112 1.399 . S
C113 C114 1.376 1_565 S
C114 H101 0.930 . S
C114 C113 1.376 1_545 S
C114 C115 1.388 . S
C115 H102 0.930 . S
C115 C114 1.388 . S
C115 C116 1.390 . S
C116 C115 1.390 . S
C116 C117 1.394 1_545 S
C116 C122 1.465 . S
C117 C112 1.399 . S
C117 C116 1.394 1_565 S
C117 C118 1.516 1_554 S
C118 C117 1.516 1_556 S
C118 C119 1.502 . S
C118 C120 1.561 1_556 S
C118 C121 1.526 1_556 S
C119 H103 0.959 . S
C119 H104 0.959 . S
C119 H105 0.961 . S
C119 C118 1.502 . S
C120 H106 0.960 . S
C120 H107 0.961 1_554 S
C120 H108 0.959 . S
C120 C118 1.561 1_554 S
C121 C118 1.526 1_554 S
C121 C122 1.396 1_565 S
C121 C126 1.390 . S
C122 C116 1.465 . S
C122 C121 1.396 1_545 S
C122 C123 1.399 . S
C123 H109 0.929 . S
C123 C122 1.399 . S
C123 C124 1.385 . S
C124 H110 0.931 . S
C124 C123 1.385 . S
C124 C125 1.389 1_545 S
C125 C124 1.389 1_565 S
C125 C126 1.387 . S
C126 H111 0.930 1_554 S
C126 C121 1.390 . S
C126 C125 1.387 . S
H127 C139 0.930 1_655 S
H128 C141 0.930 . S
H129 C142 0.930 . S
H130 C146 0.959 . S
H131 C146 0.959 . S
H132 C146 0.961 . S
H133 C147 0.960 . S
H134 C147 0.961 . S
H135 C147 0.959 . S
H136 C150 0.929 . S
H137 C151 0.931 . S
H138 C153 0.930 1_655 S
C139 H127 0.930 1_455 S
C139 C140 1.399 . S
C139 C144 1.399 . S
C140 C139 1.399 . S
C140 C141 1.376 . S
C141 H128 0.930 . S
C141 C140 1.376 . S
C141 C142 1.388 . S
C142 H129 0.930 . S
C142 C141 1.388 . S
C142 C143 1.390 . S
C143 C142 1.390 . S
C143 C144 1.394 . S
C143 C149 1.465 . S
C144 C139 1.399 . S
C144 C143 1.394 . S
C144 C145 1.516 . S
C145 C144 1.516 . S
C145 C146 1.502 1_455 S
C145 C147 1.561 . S
C145 C148 1.526 . S
C146 H130 0.959 . S
C146 H131 0.959 . S
C146 H132 0.961 . S
C146 C145 1.502 1_655 S
C147 H133 0.960 . S
C147 H134 0.961 . S
C147 H135 0.959 . S
C147 C145 1.561 . S
C148 C145 1.526 . S
C148 C149 1.396 . S
C148 C153 1.390 . S
C149 C143 1.465 . S
C149 C148 1.396 . S
C149 C150 1.399 . S
C150 H136 0.929 . S
C150 C149 1.399 . S
C150 C151 1.385 . S
C151 H137 0.931 . S
C151 C150 1.385 . S
C151 C152 1.389 . S
C152 C151 1.389 . S
C152 C153 1.387 . S
C153 H138 0.930 1_455 S
C153 C148 1.390 . S
C153 C152 1.387 . S
C59 N12 1.478 1_655 S
C71 C30 1.493 . S
C86 N2 1.423 1_455 S
C98 C39 1.478 . S
C113 C7 1.486 . S
C125 C16 1.481 . S
C140 N25 1.453 . S
C152 N35 1.432 . S
