# Generated by pormake.
# Topology dmp, (4)-cn, num edge types: 1
# Building blocks:
#     Node 0, Type 0, BuildingBlock: NAHDIM_clean_sbu_0, # of connection points: 4
#     Node 1, Type 0, BuildingBlock: NAHDIM_clean_sbu_0, # of connection points: 4
#     Node 2, Type 0, BuildingBlock: NAHDIM_clean_sbu_0, # of connection points: 4
#     Node 3, Type 0, BuildingBlock: NAHDIM_clean_sbu_0, # of connection points: 4
#     Edge 4, Type (0, 0), BuildingBlock: KIFKEQ_clean_linker_1, # of connection points: 2
#     Edge 5, Type (0, 0), BuildingBlock: KIFKEQ_clean_linker_1, # of connection points: 2
#     Edge 6, Type (0, 0), BuildingBlock: KIFKEQ_clean_linker_1, # of connection points: 2
#     Edge 7, Type (0, 0), BuildingBlock: KIFKEQ_clean_linker_1, # of connection points: 2
#     Edge 8, Type (0, 0), BuildingBlock: KIFKEQ_clean_linker_1, # of connection points: 2
#     Edge 9, Type (0, 0), BuildingBlock: KIFKEQ_clean_linker_1, # of connection points: 2
#     Edge 10, Type (0, 0), BuildingBlock: KIFKEQ_clean_linker_1, # of connection points: 2
#     Edge 11, Type (0, 0), BuildingBlock: KIFKEQ_clean_linker_1, # of connection points: 2
# Relax obj value: 0.248
# Max RMSD: 0.271
# Mean RMSD: 0.271
data_MOF--net-dmp--node1-NAHDIM_clean_sbu_0--edge1-KIFKEQ_clean_linker_1
_symmetry_space_group_name_H-M    P1
_symmetry_Int_Tables_number       1
_symmetry_cell_setting            triclinic
loop_
_symmetry_equiv_pos_as_xyz
'x, y, z'
_cell_length_a     38.723265
_cell_length_b     17.773871
_cell_length_c     19.320407
_cell_angle_alpha  90.068401
_cell_angle_beta   90.294838
_cell_angle_gamma 95.392289
loop_
_atom_site_label
_atom_site_type_symbol
_atom_site_fract_x
_atom_site_fract_y
_atom_site_fract_z
_atom_type_partial_charge
C0 C 0.037 0.30797 0.35378 0.0
O1 O 0.02746 0.30879 0.28848 0.0
O2 O 0.06426 0.16049 0.23568 0.0
Zn3 Zn 0.09272 0.23462 0.29633 0.0
O4 O 0.11493 0.31988 0.2396 0.0
C5 C 0.13151 0.11374 0.3465 0.0
O6 O 0.10331 0.07033 0.33005 0.0
O7 O 0.0641 0.27698 0.3703 0.0
C8 C 0.13531 0.3056 0.19099 0.0
O9 O 0.13939 0.23479 0.17625 0.0
C10 C 0.05075 0.18023 0.1793 0.0
O11 O 0.05459 0.25155 0.16062 0.0
O12 O 0.13197 0.18474 0.33878 0.0
C13 C 0.42158 0.62956 0.3017 0.0
O14 O 0.41478 0.60651 0.23801 0.0
O15 O 0.41527 0.81566 0.19424 0.0
Zn16 Zn 0.38397 0.75103 0.25711 0.0
O17 O 0.35164 0.67847 0.20275 0.0
C18 C 0.35323 0.88507 0.30312 0.0
O19 O 0.3756 0.92025 0.26051 0.0
O20 O 0.41151 0.69197 0.32166 0.0
C21 C 0.32634 0.70116 0.16909 0.0
O22 O 0.32271 0.77387 0.16663 0.0
C23 C 0.41936 0.79902 0.13105 0.0
O24 O 0.40353 0.73619 0.10595 0.0
O25 O 0.35349 0.81431 0.31171 0.0
C26 C 0.92166 0.62736 0.69783 0.0
O27 O 0.91613 0.60592 0.7622 0.0
O28 O 0.91541 0.81303 0.8045 0.0
Zn29 Zn 0.88366 0.74801 0.74195 0.0
O30 O 0.85188 0.67558 0.79673 0.0
C31 C 0.85245 0.88173 0.69631 0.0
O32 O 0.87522 0.91715 0.73851 0.0
O33 O 0.91068 0.68865 0.67715 0.0
C34 C 0.82698 0.69838 0.83109 0.0
O35 O 0.82346 0.77113 0.83394 0.0
C36 C 0.92026 0.79616 0.86743 0.0
O37 O 0.90501 0.73286 0.89232 0.0
O38 O 0.85263 0.81092 0.68776 0.0
C39 C 0.53809 0.31212 0.64745 0.0
O40 O 0.53029 0.31709 0.71327 0.0
O41 O 0.56364 0.15994 0.76432 0.0
Zn42 Zn 0.59231 0.2334 0.70414 0.0
O43 O 0.61505 0.31827 0.76126 0.0
C44 C 0.63059 0.11147 0.65483 0.0
O45 O 0.6025 0.06842 0.67198 0.0
O46 O 0.56365 0.27651 0.63018 0.0
C47 C 0.63562 0.30376 0.80987 0.0
O48 O 0.63962 0.23288 0.8244 0.0
C49 C 0.55042 0.1801 0.82063 0.0
O50 O 0.55478 0.25137 0.83959 0.0
O51 O 0.63116 0.1826 0.66182 0.0
H52 H 0.30156 0.82765 0.38944 0.0
H53 H 0.33911 0.03053 0.2796 0.0
H54 H 0.24888 0.88501 0.41954 0.0
H55 H 0.28622 0.08698 0.30822 0.0
H56 H 0.19357 0.18764 0.38588 0.0
H57 H 0.24934 0.13524 0.39484 0.0
H58 H 0.19913 0.91262 0.35116 0.0
H59 H 0.14334 0.96461 0.34393 0.0
C60 C 0.29882 0.88489 0.37256 0.0
C61 C 0.32431 0.92418 0.33127 0.0
C62 C 0.26855 0.91757 0.38955 0.0
C63 C 0.26313 -0.00986 0.36557 0.0
C64 C 0.28964 0.03121 0.3281 0.0
C65 C 0.31994 -0.00137 0.31127 0.0
C66 C 0.19435 0.12727 0.37949 0.0
C67 C 0.1641 0.08038 0.36319 0.0
C68 C 0.22634 0.09734 0.38434 0.0
C69 C 0.22878 0.01997 0.37281 0.0
C70 C 0.19818 0.9724 0.36093 0.0
C71 C 0.16616 0.00228 0.35635 0.0
H72 H 0.13493 0.45708 0.21367 0.0
H73 H 0.18819 0.29404 0.09935 0.0
H74 H 0.18013 0.55543 0.18363 0.0
H75 H 0.23323 0.39325 0.06803 0.0
H76 H 0.26233 0.72794 0.11923 0.0
H77 H 0.21298 0.63439 0.09901 0.0
H78 H 0.27806 0.45542 0.14273 0.0
H79 H 0.32726 0.54828 0.16159 0.0
C80 C 0.15583 0.4426 0.18059 0.0
C81 C 0.15841 0.36744 0.16024 0.0
C82 C 0.18164 0.49924 0.1628 0.0
C83 C 0.21053 0.48191 0.1242 0.0
C84 C 0.21155 0.408 0.09882 0.0
C85 C 0.18569 0.35126 0.11662 0.0
C86 C 0.26627 0.66853 0.12277 0.0
C87 C 0.29851 0.64547 0.14333 0.0
C88 C 0.23798 0.61502 0.11143 0.0
C89 C 0.24149 0.53758 0.12013 0.0
C90 C 0.27446 0.51453 0.13505 0.0
C91 C 0.30266 0.5679 0.14652 0.0
H92 H 0.69243 0.18454 0.61449 0.0
H93 H 0.64224 0.96226 0.65829 0.0
H94 H 0.74803 0.13163 0.60525 0.0
H95 H 0.69789 0.90979 0.65076 0.0
H96 H 0.83868 0.02747 0.7196 0.0
H97 H 0.78559 0.08395 0.69165 0.0
H98 H 0.74696 0.88113 0.58175 0.0
H99 H 0.79985 0.82374 0.61119 0.0
C100 C 0.69317 0.12422 0.62123 0.0
C101 C 0.663 0.07771 0.63811 0.0
C102 C 0.72507 0.09401 0.61622 0.0
C103 C 0.72749 0.01672 0.62815 0.0
C104 C 0.69694 0.96948 0.64066 0.0
C105 C 0.66501 -0.00035 0.64541 0.0
C106 C 0.81917 -0.00463 0.68839 0.0
C107 C 0.82327 0.92071 0.66859 0.0
C108 C 0.78876 0.02797 0.67194 0.0
C109 C 0.76185 0.9867 0.63506 0.0
C110 C 0.76695 0.91385 0.6113 0.0
C111 C 0.79734 0.88116 0.6279 0.0
H112 H 0.76351 0.72541 0.88231 0.0
H113 H 0.82788 0.54549 0.83809 0.0
H114 H 0.71429 0.63204 0.90298 0.0
H115 H 0.77879 0.4528 0.8574 0.0
H116 H 0.63517 0.45533 0.78821 0.0
H117 H 0.68066 0.55343 0.81837 0.0
H118 H 0.73452 0.39066 0.93236 0.0
H119 H 0.68917 0.29169 0.90092 0.0
C120 C 0.76737 0.66599 0.87847 0.0
C121 C 0.79938 0.6428 0.85723 0.0
C122 C 0.73915 0.61257 0.89008 0.0
C123 C 0.74251 0.53511 0.88096 0.0
C124 C 0.77531 0.51193 0.86541 0.0
C125 C 0.80344 0.5652 0.85367 0.0
C126 C 0.6563 0.44066 0.82098 0.0
C127 C 0.65898 0.36541 0.84081 0.0
C128 C 0.68228 0.49716 0.83884 0.0
C129 C 0.71146 0.47959 0.877 0.0
C130 C 0.71262 0.40559 0.90192 0.0
C131 C 0.68658 0.34899 0.88406 0.0
H132 H 0.04638 0.02671 0.19276 0.0
H133 H 0.01241 0.20455 0.06395 0.0
H134 H 0.0164 0.93235 0.11671 0.0
H135 H 0.98152 0.11028 0.98914 0.0
H136 H 0.95992 0.92454 0.82996 0.0
H137 H -0.00768 0.01579 0.90541 0.0
H138 H 0.95907 0.88164 0.08363 0.0
H139 H 0.92755 0.7891 0.00791 0.0
C140 C 0.03227 0.04567 0.14851 0.0
C141 C 0.03177 0.12308 0.13429 0.0
C142 C 0.01496 -0.00844 0.10509 0.0
C143 C -0.0034 0.01372 0.04677 0.0
C144 C -0.00408 0.09124 0.03294 0.0
C145 C 0.01342 0.14532 0.07609 0.0
C146 C 0.95969 0.91429 0.88522 0.0
C147 C 0.94113 0.84967 0.91301 0.0
C148 C 0.97806 0.96689 0.92852 0.0
C149 C 0.97809 0.95633 0.00061 0.0
C150 C 0.95992 0.89107 0.02827 0.0
C151 C 0.94173 0.83818 0.9849 0.0
H152 H 0.54473 0.02654 0.80628 0.0
H153 H 0.51288 0.20556 0.93606 0.0
H154 H 0.51443 0.93296 0.88183 0.0
H155 H 0.48169 0.1121 0.0104 0.0
H156 H 0.46001 0.92633 0.16883 0.0
H157 H 0.4924 0.01689 0.09361 0.0
H158 H 0.45695 0.88419 0.91493 0.0
H159 H 0.42542 0.79231 0.99042 0.0
C160 C 0.53102 0.04594 0.85063 0.0
C161 C 0.53122 0.12344 0.86529 0.0
C162 C 0.51352 -0.00772 0.89376 0.0
C163 C 0.49568 0.015 0.95223 0.0
C164 C 0.49568 0.09262 0.96647 0.0
C165 C 0.51336 0.14624 0.92359 0.0
C166 C 0.45928 0.91625 0.11351 0.0
C167 C 0.44012 0.85221 0.08554 0.0
C168 C 0.47765 0.96847 0.07035 0.0
C169 C 0.47708 0.95809 0.9982 0.0
C170 C 0.45827 0.89345 0.97033 0.0
C171 C 0.44007 0.84094 0.01357 0.0
H172 H 0.93631 0.65501 0.56167 0.0
H173 H 0.94549 0.49003 0.72338 0.0
H174 H 0.96307 0.5739 0.48023 0.0
H175 H 0.9717 0.40816 0.64131 0.0
H176 H 0.0533 0.32787 0.49084 0.0
H177 H 0.02505 0.40342 0.57507 0.0
H178 H 0.94967 0.45384 0.42031 0.0
H179 H 0.9783 0.37964 0.33563 0.0
C180 C 0.94399 0.60138 0.57984 0.0
C181 C 0.93878 0.57896 0.649 0.0
C182 C 0.95907 0.55463 0.533 0.0
C183 C 0.96927 0.4844 0.55424 0.0
C184 C 0.96436 0.46222 0.62355 0.0
C185 C 0.94925 0.50904 0.67048 0.0
C186 C 0.03055 0.35462 0.4749 0.0
C187 C 0.01818 0.34824 0.40641 0.0
C188 C 0.01429 0.39765 0.52328 0.0
C189 C -0.01469 0.43507 0.50417 0.0
C190 C 0.97235 0.4268 0.43623 0.0
C191 C -0.01138 0.38387 0.38785 0.0
H192 H 0.43976 0.66153 0.43594 0.0
H193 H 0.44268 0.48922 0.27849 0.0
H194 H 0.46697 0.58135 0.51793 0.0
H195 H 0.46929 0.4083 0.36118 0.0
H196 H 0.55184 0.32548 0.50912 0.0
H197 H 0.5235 0.40093 0.42449 0.0
H198 H 0.45298 0.46492 0.58199 0.0
H199 H 0.48175 0.39091 0.66698 0.0
C200 C 0.44616 0.60649 0.41883 0.0
C201 C 0.43906 0.58172 0.35071 0.0
C202 C 0.46151 0.5603 0.466 0.0
C203 C 0.47004 0.48827 0.44617 0.0
C204 C 0.46327 0.46377 0.37783 0.0
C205 C 0.44793 0.51005 0.33056 0.0
C206 C 0.53013 0.35524 0.52559 0.0
C207 C 0.51919 0.35267 0.59487 0.0
C208 C 0.51382 0.39821 0.47701 0.0
C209 C 0.48619 0.43935 0.4967 0.0
C210 C 0.47463 0.43498 0.56554 0.0
C211 C 0.49097 0.39216 0.61413 0.0
loop_
_geom_bond_atom_site_label_1
_geom_bond_atom_site_label_2
_geom_bond_distance
_geom_bond_site_symmetry_2
_ccdc_geom_bond_type
C0 O1 1.160 . S
C0 O7 1.185 . S
O1 C0 1.160 . S
O2 Zn3 1.899 . S
O2 C10 1.284 . S
Zn3 O2 1.899 . S
Zn3 O4 2.032 . S
Zn3 O7 2.086 . S
Zn3 O12 1.977 . S
O4 Zn3 2.032 . S
O4 C8 1.278 . S
C5 O6 1.203 . S
C5 O12 1.267 . S
O6 C5 1.203 . S
O7 C0 1.185 . S
O7 Zn3 2.086 . S
C8 O4 1.278 . S
C8 O9 1.211 . S
O9 C8 1.211 . S
C10 O2 1.284 . S
C10 O11 1.273 . S
O11 C10 1.273 . S
O12 Zn3 1.977 . S
O12 C5 1.267 . S
C13 O14 1.160 . S
C13 O20 1.185 . S
O14 C13 1.160 . S
O15 Zn16 1.899 . S
O15 C23 1.284 . S
Zn16 O15 1.899 . S
Zn16 O17 2.032 . S
Zn16 O20 2.086 . S
Zn16 O25 1.977 . S
O17 Zn16 2.032 . S
O17 C21 1.278 . S
C18 O19 1.203 . S
C18 O25 1.267 . S
O19 C18 1.203 . S
O20 C13 1.185 . S
O20 Zn16 2.086 . S
C21 O17 1.278 . S
C21 O22 1.211 . S
O22 C21 1.211 . S
C23 O15 1.284 . S
C23 O24 1.273 . S
O24 C23 1.273 . S
O25 Zn16 1.977 . S
O25 C18 1.267 . S
C26 O27 1.160 . S
C26 O33 1.185 . S
O27 C26 1.160 . S
O28 Zn29 1.899 . S
O28 C36 1.284 . S
Zn29 O28 1.899 . S
Zn29 O30 2.032 . S
Zn29 O33 2.086 . S
Zn29 O38 1.977 . S
O30 Zn29 2.032 . S
O30 C34 1.278 . S
C31 O32 1.203 . S
C31 O38 1.267 . S
O32 C31 1.203 . S
O33 C26 1.185 . S
O33 Zn29 2.086 . S
C34 O30 1.278 . S
C34 O35 1.211 . S
O35 C34 1.211 . S
C36 O28 1.284 . S
C36 O37 1.273 . S
O37 C36 1.273 . S
O38 Zn29 1.977 . S
O38 C31 1.267 . S
C39 O40 1.160 . S
C39 O46 1.185 . S
O40 C39 1.160 . S
O41 Zn42 1.899 . S
O41 C49 1.284 . S
Zn42 O41 1.899 . S
Zn42 O43 2.032 . S
Zn42 O46 2.086 . S
Zn42 O51 1.977 . S
O43 Zn42 2.032 . S
O43 C47 1.278 . S
C44 O45 1.203 . S
C44 O51 1.267 . S
O45 C44 1.203 . S
O46 C39 1.185 . S
O46 Zn42 2.086 . S
C47 O43 1.278 . S
C47 O48 1.211 . S
O48 C47 1.211 . S
C49 O41 1.284 . S
C49 O50 1.273 . S
O50 C49 1.273 . S
O51 Zn42 1.977 . S
O51 C44 1.267 . S
H52 C60 0.950 . S
H53 C65 0.950 1_545 S
H54 C62 0.950 . S
H55 C64 0.950 . S
H56 C66 0.950 . S
H57 C68 0.950 . S
H58 C70 0.950 . S
H59 C71 0.950 1_565 S
C60 H52 0.950 . S
C60 C61 1.386 . S
C60 C62 1.391 . S
C61 C60 1.386 . S
C61 C65 1.393 . S
C62 H54 0.950 . S
C62 C60 1.391 . S
C62 C63 1.400 . S
C63 C62 1.400 . S
C63 C64 1.398 1_565 S
C63 C69 1.491 1_565 S
C64 H55 0.950 . S
C64 C63 1.398 1_545 S
C64 C65 1.391 1_545 S
C65 H53 0.950 1_565 S
C65 C61 1.393 . S
C65 C64 1.391 1_565 S
C66 H56 0.950 . S
C66 C67 1.386 . S
C66 C68 1.391 . S
C67 C66 1.386 . S
C67 C71 1.393 . S
C68 H57 0.950 . S
C68 C66 1.391 . S
C68 C69 1.400 . S
C69 C63 1.491 1_545 S
C69 C68 1.400 . S
C69 C70 1.398 1_545 S
C70 H58 0.950 . S
C70 C69 1.398 1_565 S
C70 C71 1.391 1_565 S
C71 H59 0.950 1_545 S
C71 C67 1.393 . S
C71 C70 1.391 1_545 S
H72 C80 0.950 . S
H73 C85 0.950 . S
H74 C82 0.950 . S
H75 C84 0.950 . S
H76 C86 0.950 . S
H77 C88 0.950 . S
H78 C90 0.950 . S
H79 C91 0.950 . S
C80 H72 0.950 . S
C80 C81 1.386 . S
C80 C82 1.391 . S
C81 C80 1.386 . S
C81 C85 1.393 . S
C82 H74 0.950 . S
C82 C80 1.391 . S
C82 C83 1.400 . S
C83 C82 1.400 . S
C83 C84 1.398 . S
C83 C89 1.491 . S
C84 H75 0.950 . S
C84 C83 1.398 . S
C84 C85 1.391 . S
C85 H73 0.950 . S
C85 C81 1.393 . S
C85 C84 1.391 . S
C86 H76 0.950 . S
C86 C87 1.386 . S
C86 C88 1.391 . S
C87 C86 1.386 . S
C87 C91 1.393 . S
C88 H77 0.950 . S
C88 C86 1.391 . S
C88 C89 1.400 . S
C89 C83 1.491 . S
C89 C88 1.400 . S
C89 C90 1.398 . S
C90 H78 0.950 . S
C90 C89 1.398 . S
C90 C91 1.391 . S
C91 H79 0.950 . S
C91 C87 1.393 . S
C91 C90 1.391 . S
H92 C100 0.950 . S
H93 C105 0.950 . S
H94 C102 0.957 . S
H95 C104 0.950 . S
H96 C106 0.950 . S
H97 C108 0.957 . S
H98 C110 0.950 . S
H99 C111 0.950 . S
C100 H92 0.950 . S
C100 C101 1.386 . S
C100 C102 1.386 1_545 S
C101 C100 1.386 . S
C101 C105 1.393 . S
C102 H94 0.957 . S
C102 C100 1.386 1_565 S
C102 C103 1.398 1_565 S
C103 C102 1.398 1_545 S
C103 C104 1.398 . S
C103 C109 1.491 1_545 S
C104 H95 0.950 . S
C104 C103 1.398 . S
C104 C105 1.391 . S
C105 H93 0.950 . S
C105 C101 1.393 . S
C105 C104 1.391 . S
C106 H96 0.950 . S
C106 C107 1.386 . S
C106 C108 1.386 1_565 S
C107 C106 1.386 . S
C107 C111 1.393 . S
C108 H97 0.957 . S
C108 C106 1.386 1_545 S
C108 C109 1.398 1_545 S
C109 C103 1.491 1_565 S
C109 C108 1.398 1_565 S
C109 C110 1.398 . S
C110 H98 0.950 . S
C110 C109 1.398 . S
C110 C111 1.391 . S
C111 H99 0.950 . S
C111 C107 1.393 . S
C111 C110 1.391 . S
H112 C120 0.950 . S
H113 C125 0.950 . S
H114 C122 0.950 . S
H115 C124 0.950 . S
H116 C126 0.950 . S
H117 C128 0.950 . S
H118 C130 0.950 . S
H119 C131 0.950 . S
C120 H112 0.950 . S
C120 C121 1.386 . S
C120 C122 1.391 . S
C121 C120 1.386 . S
C121 C125 1.393 . S
C122 H114 0.950 . S
C122 C120 1.391 . S
C122 C123 1.400 . S
C123 C122 1.400 . S
C123 C124 1.398 . S
C123 C129 1.491 . S
C124 H115 0.950 . S
C124 C123 1.398 . S
C124 C125 1.391 . S
C125 H113 0.950 . S
C125 C121 1.393 . S
C125 C124 1.391 . S
C126 H116 0.950 . S
C126 C127 1.386 . S
C126 C128 1.391 . S
C127 C126 1.386 . S
C127 C131 1.393 . S
C128 H117 0.950 . S
C128 C126 1.391 . S
C128 C129 1.400 . S
C129 C123 1.491 . S
C129 C128 1.400 . S
C129 C130 1.398 . S
C130 H118 0.950 . S
C130 C129 1.398 . S
C130 C131 1.391 . S
C131 H119 0.950 . S
C131 C127 1.393 . S
C131 C130 1.391 . S
H132 C140 0.950 . S
H133 C145 0.950 . S
H134 C142 0.950 1_565 S
H135 C144 0.950 . S
H136 C146 0.950 . S
H137 C148 0.950 1_545 S
H138 C150 0.950 . S
H139 C151 0.950 . S
C140 H132 0.950 . S
C140 C141 1.386 . S
C140 C142 1.391 . S
C141 C140 1.386 . S
C141 C145 1.393 . S
C142 H134 0.950 1_545 S
C142 C140 1.391 . S
C142 C143 1.400 . S
C143 C142 1.400 . S
C143 C144 1.398 1_455 S
C143 C149 1.491 1_444 S
C144 H135 0.950 . S
C144 C143 1.398 1_655 S
C144 C145 1.391 1_655 S
C145 H133 0.950 . S
C145 C141 1.393 . S
C145 C144 1.391 1_455 S
C146 H136 0.950 . S
C146 C147 1.386 . S
C146 C148 1.391 . S
C147 C146 1.386 . S
C147 C151 1.393 . S
C148 H137 0.950 1_565 S
C148 C146 1.391 . S
C148 C149 1.400 . S
C149 C143 1.491 1_666 S
C149 C148 1.400 . S
C149 C150 1.398 1_655 S
C150 H138 0.950 . S
C150 C149 1.398 1_455 S
C150 C151 1.391 1_455 S
C151 H139 0.950 . S
C151 C147 1.393 . S
C151 C150 1.391 1_655 S
H152 C160 0.950 . S
H153 C165 0.950 . S
H154 C162 0.950 1_565 S
H155 C164 0.950 . S
H156 C166 0.950 . S
H157 C168 0.950 1_545 S
H158 C170 0.950 . S
H159 C171 0.950 . S
C160 H152 0.950 . S
C160 C161 1.386 . S
C160 C162 1.391 . S
C161 C160 1.386 . S
C161 C165 1.393 . S
C162 H154 0.950 1_545 S
C162 C160 1.391 . S
C162 C163 1.400 . S
C163 C162 1.400 . S
C163 C164 1.398 1_556 S
C163 C169 1.491 1_546 S
C164 H155 0.950 . S
C164 C163 1.398 1_554 S
C164 C165 1.391 1_554 S
C165 H153 0.950 . S
C165 C161 1.393 . S
C165 C164 1.391 1_556 S
C166 H156 0.950 . S
C166 C167 1.386 . S
C166 C168 1.391 . S
C167 C166 1.386 . S
C167 C171 1.393 . S
C168 H157 0.950 1_565 S
C168 C166 1.391 . S
C168 C169 1.400 . S
C169 C163 1.491 1_564 S
C169 C168 1.400 . S
C169 C170 1.398 1_554 S
C170 H158 0.950 . S
C170 C169 1.398 1_556 S
C170 C171 1.391 1_556 S
C171 H159 0.950 . S
C171 C167 1.393 . S
C171 C170 1.391 1_554 S
H172 C180 0.950 . S
H173 C185 0.950 1_455 S
H174 C182 0.950 . S
H175 C184 0.950 . S
H176 C186 0.950 . S
H177 C188 0.950 . S
H178 C190 0.950 . S
H179 C191 0.950 1_655 S
C180 H172 0.950 . S
C180 C181 1.386 . S
C180 C182 1.391 . S
C181 C180 1.386 . S
C181 C185 1.393 . S
C182 H174 0.950 . S
C182 C180 1.391 . S
C182 C183 1.400 . S
C183 C182 1.400 . S
C183 C184 1.398 1_655 S
C183 C189 1.491 1_655 S
C184 H175 0.950 . S
C184 C183 1.398 1_455 S
C184 C185 1.391 1_455 S
C185 H173 0.950 1_655 S
C185 C181 1.393 . S
C185 C184 1.391 1_655 S
C186 H176 0.950 . S
C186 C187 1.386 . S
C186 C188 1.391 . S
C187 C186 1.386 . S
C187 C191 1.393 . S
C188 H177 0.950 . S
C188 C186 1.391 . S
C188 C189 1.400 . S
C189 C183 1.491 1_455 S
C189 C188 1.400 . S
C189 C190 1.398 1_455 S
C190 H178 0.950 . S
C190 C189 1.398 1_655 S
C190 C191 1.391 1_655 S
C191 H179 0.950 1_455 S
C191 C187 1.393 . S
C191 C190 1.391 1_455 S
H192 C200 0.950 . S
H193 C205 0.950 . S
H194 C202 0.950 . S
H195 C204 0.950 . S
H196 C206 0.950 . S
H197 C208 0.950 . S
H198 C210 0.950 . S
H199 C211 0.950 . S
C200 H192 0.950 . S
C200 C201 1.386 . S
C200 C202 1.391 . S
C201 C200 1.386 . S
C201 C205 1.393 . S
C202 H194 0.950 . S
C202 C200 1.391 . S
C202 C203 1.400 . S
C203 C202 1.400 . S
C203 C204 1.398 . S
C203 C209 1.491 . S
C204 H195 0.950 . S
C204 C203 1.398 . S
C204 C205 1.391 . S
C205 H193 0.950 . S
C205 C201 1.393 . S
C205 C204 1.391 . S
C206 H196 0.950 . S
C206 C207 1.386 . S
C206 C208 1.391 . S
C207 C206 1.386 . S
C207 C211 1.393 . S
C208 H197 0.950 . S
C208 C206 1.391 . S
C208 C209 1.400 . S
C209 C203 1.491 . S
C209 C208 1.400 . S
C209 C210 1.398 . S
C210 H198 0.950 . S
C210 C209 1.398 . S
C210 C211 1.391 . S
C211 H199 0.950 . S
C211 C207 1.393 . S
C211 C210 1.391 . S
C61 C18 0.890 . S
C67 C5 0.846 . S
C81 C8 0.648 . S
C87 C21 0.661 . S
C101 C44 0.866 . S
C107 C31 0.840 . S
C121 C34 0.653 . S
C127 C47 0.649 . S
C141 C10 1.575 . S
C147 C36 1.575 . S
C161 C49 1.572 . S
C167 C23 1.572 . S
C181 C26 1.553 . S
C187 C0 1.553 . S
C201 C13 1.546 . S
C207 C39 1.546 . S
