# Generated by pormake.
# Topology pcu, (6)-cn, num edge types: 1
# Building blocks:
#     Node 0, Type 0, BuildingBlock: KUMJIN_clean_sbu_1, # of connection points: 6
#     Edge 1, Type (0, 0), BuildingBlock: AJUNOK_clean_linker_0, # of connection points: 2
#     Edge 2, Type (0, 0), BuildingBlock: AJUNOK_clean_linker_0, # of connection points: 2
#     Edge 3, Type (0, 0), BuildingBlock: AJUNOK_clean_linker_0, # of connection points: 2
# Relax obj value: 0.000
# Max RMSD: 0.000
# Mean RMSD: 0.000
data_MOF--net-pcu--node1-KUMJIN_clean_sbu_1--edge1-AJUNOK_clean_linker_0
_symmetry_space_group_name_H-M    P1
_symmetry_Int_Tables_number       1
_symmetry_cell_setting            triclinic
loop_
_symmetry_equiv_pos_as_xyz
'x, y, z'
_cell_length_a     10.902161
_cell_length_b     20.2428
_cell_length_c     10.915563
_cell_angle_alpha  114.01397
_cell_angle_beta   88.639506
_cell_angle_gamma 116.26681
loop_
_atom_site_label
_atom_site_type_symbol
_atom_site_fract_x
_atom_site_fract_y
_atom_site_fract_z
_atom_type_partial_charge
Eu0 Eu 0.94141 0.90537 0.89813 0.0
C1 C 0.45534 0.25253 0.25038 0.0
N2 N 0.32601 0.22027 0.27958 0.0
C3 C 0.4249 0.2714 0.51342 0.0
C4 C 0.57543 0.29506 0.35271 0.0
C5 C 0.30896 0.22926 0.40859 0.0
C6 C 0.55877 0.30451 0.48547 0.0
C7 C 0.601 0.27313 0.08379 0.0
C8 C 0.46768 0.24122 0.1168 0.0
C9 C 0.72052 0.31494 0.18534 0.0
C10 C 0.70787 0.32584 0.31923 0.0
Eu11 Eu 0.13691 0.15407 0.09843 0.0
N12 N 0.34993 0.19957 0.01967 0.0
C13 C 0.61051 0.26305 0.94994 0.0
C14 C 0.35921 0.19436 0.89144 0.0
C15 C 0.48908 0.22435 0.85386 0.0
H16 H 0.20577 0.20547 0.43124 0.0
H17 H 0.49546 0.2189 0.75135 0.0
H18 H 0.87459 0.85572 0.56575 0.0
H19 H 0.57942 0.83451 0.23943 0.0
H20 H 0.26792 0.1699 0.81847 0.0
H21 H 0.711 0.28678 0.92071 0.0
H22 H 0.80794 0.88528 0.17459 0.0
H23 H 0.41091 0.2787 0.6158 0.0
H24 H 0.82331 0.33951 0.16143 0.0
H25 H 0.80128 0.358 0.39603 0.0
H26 H 0.6708 0.78643 0.38176 0.0
H27 H 0.64846 0.33694 0.56686 0.0
H28 H 0.36491 0.76805 0.06963 0.0
N29 N 0.75319 0.8408 0.71657 0.0
C30 C 0.62337 0.80833 0.74468 0.0
C31 C 0.65592 0.79281 0.48356 0.0
C32 C 0.50391 0.76769 0.64244 0.0
C33 C 0.7712 0.83286 0.5882 0.0
C34 C 0.52162 0.76031 0.51081 0.0
N35 N 0.72725 0.85776 0.97432 0.0
C36 C 0.71699 0.86129 0.10148 0.0
C37 C 0.47631 0.7846 0.90878 0.0
C38 C 0.61002 0.81732 0.87705 0.0
C39 C 0.46577 0.79254 0.04146 0.0
C40 C 0.58664 0.83036 0.13775 0.0
H41 H 0.43244 0.72924 0.42944 0.0
H42 H 0.27804 0.70472 0.59766 0.0
H43 H 0.2544 0.71907 0.83016 0.0
O44 O 0.95959 0.81347 0.94501 0.0
O45 O 0.8184 0.97174 0.89734 0.0
O46 O 0.90843 0.08605 0.10464 0.0
O47 O 0.92786 0.79388 0.73345 0.0
O48 O 1.03093 0.96588 0.12641 0.0
O49 O 1.01539 0.08629 0.2173 0.0
O50 O 0.12115 0.24602 0.05014 0.0
O51 O 0.25821 0.08759 0.10239 0.0
O52 O 0.16995 0.97479 0.89382 0.0
O53 O 0.14904 0.2656 0.26211 0.0
O54 O 0.04393 0.09283 0.87231 0.0
O55 O 0.06229 0.97352 0.77881 0.0
C56 C 0.8052 1.02916 0.00108 0.0
C57 C 0.94274 0.68556 0.7658 0.0
C58 C 0.97619 0.58427 0.8078 0.0
C59 C 0.94332 0.53401 0.66632 0.0
C60 C 0.91171 0.63453 0.62459 0.0
C61 C 0.91117 0.55908 0.57555 0.0
C62 C 0.97353 0.6596 0.85721 0.0
C63 C 1.02701 1.02754 0.23075 0.0
C64 C 0.94291 0.76539 0.8161 0.0
C65 C 0.37103 0.73595 0.6746 0.0
C66 C 0.35742 0.7443 0.80721 0.0
C67 C 0.26991 1.02834 0.0013 0.0
C68 C 0.13573 0.37372 0.2273 0.0
C69 C 0.10787 0.47555 0.18168 0.0
C70 C 0.13542 0.52522 0.323 0.0
C71 C 0.16317 0.42463 0.36824 0.0
C72 C 0.10868 0.39977 0.13431 0.0
C73 C 0.16363 0.49999 0.41538 0.0
C74 C 0.04663 1.03149 0.76666 0.0
C75 C 0.13568 0.294 0.17863 0.0
H76 H 0.94198 0.47512 0.62606 0.0
H77 H 0.88714 0.65267 0.55176 0.0
H78 H 0.88602 0.51997 0.46669 0.0
H79 H 0.99895 0.69871 0.96626 0.0
H80 H 0.13617 0.58393 0.36191 0.0
H81 H 0.18482 0.40642 0.4423 0.0
H82 H 0.08529 0.36049 0.02546 0.0
H83 H 0.18596 0.53904 0.524 0.0
C84 C 0.08331 0.98425 0.39724 0.0
C85 C 1.02937 1.02878 0.36757 0.0
C86 C 0.08857 0.98538 0.52634 0.0
C87 C 1.03908 1.03058 0.63048 0.0
H88 H 0.12361 0.94901 0.32079 0.0
H89 H 0.13276 0.95097 0.54477 0.0
S90 S 0.88267 0.15523 0.60395 0.0
N91 N 0.92275 0.11816 0.4529 0.0
N92 N 0.93097 0.11932 0.69408 0.0
C93 C 0.98373 0.0748 0.60185 0.0
C94 C 0.97906 0.07402 0.47081 0.0
C95 C 0.44353 0.9892 0.88106 0.0
C96 C 0.4043 1.02648 0.00381 0.0
C97 C 0.5728 0.98979 0.88107 0.0
C98 C 0.66793 1.02782 0.00376 0.0
H99 H 0.37504 0.96055 0.78384 0.0
H100 H 0.59923 0.96146 0.7839 0.0
S101 S 0.60772 0.12481 0.35357 0.0
N102 N 0.46537 0.0953 0.25179 0.0
N103 N 0.70902 0.09835 0.25176 0.0
C104 C 0.6283 0.06342 0.12727 0.0
C105 C 0.49637 0.06217 0.12731 0.0
C106 C 0.94423 0.55671 0.01348 0.0
C107 C 1.01335 0.55782 0.90334 0.0
C108 C 0.97497 0.52961 0.10246 0.0
C109 C 0.07613 0.50277 0.08467 0.0
H110 H 0.86427 0.57573 0.0297 0.0
H111 H 0.91806 0.5288 0.18504 0.0
S112 S 0.29475 0.50037 0.81888 0.0
N113 N 0.19283 0.53422 0.78595 0.0
N114 N 0.25047 0.48321 0.953 0.0
C115 C 0.14739 0.50474 0.97613 0.0
C116 C 0.11617 0.53237 0.88567 0.0
loop_
_geom_bond_atom_site_label_1
_geom_bond_atom_site_label_2
_geom_bond_distance
_geom_bond_site_symmetry_2
_ccdc_geom_bond_type
Eu0 N29 2.600 . S
Eu0 N35 2.562 . S
Eu0 O44 2.462 . S
Eu0 O45 2.373 . S
Eu0 O47 2.432 . S
Eu0 O48 2.291 1_556 S
Eu0 O52 2.335 1_655 S
Eu0 O55 2.372 . S
Eu0 C64 2.787 . S
C1 N2 1.365 . S
C1 C4 1.405 . S
C1 C8 1.448 . S
N2 C1 1.365 . S
N2 C5 1.319 . S
N2 Eu11 2.600 . S
C3 C5 1.397 . S
C3 C6 1.367 . S
C3 H23 0.931 . S
C4 C1 1.405 . S
C4 C6 1.403 . S
C4 C10 1.439 . S
C5 N2 1.319 . S
C5 C3 1.397 . S
C5 H16 0.930 . S
C6 C3 1.367 . S
C6 C4 1.403 . S
C6 H27 0.929 . S
C7 C8 1.430 . S
C7 C9 1.387 . S
C7 C13 1.404 . S
C8 C1 1.448 . S
C8 C7 1.430 . S
C8 N12 1.351 . S
C9 C7 1.387 . S
C9 C10 1.374 . S
C9 H24 0.931 . S
C10 C4 1.439 . S
C10 C9 1.374 . S
C10 H25 0.931 . S
Eu11 N2 2.600 . S
Eu11 N12 2.562 . S
Eu11 O46 2.335 1_455 S
Eu11 O49 2.372 . S
Eu11 O50 2.462 . S
Eu11 O51 2.373 . S
Eu11 O53 2.432 . S
Eu11 O54 2.291 1_554 S
Eu11 C75 2.787 . S
N12 C8 1.351 . S
N12 Eu11 2.562 . S
N12 C14 1.325 1_554 S
C13 C7 1.404 . S
C13 C15 1.366 1_554 S
C13 H21 0.930 1_554 S
C14 N12 1.325 1_556 S
C14 C15 1.416 . S
C14 H20 0.929 . S
C15 C13 1.366 1_556 S
C15 C14 1.416 . S
C15 H17 0.930 . S
H16 C5 0.930 . S
H17 C15 0.930 . S
H18 C33 0.930 . S
H19 C40 0.930 . S
H20 C14 0.929 . S
H21 C13 0.930 1_556 S
H22 C36 0.929 . S
H23 C3 0.931 . S
H24 C9 0.931 . S
H25 C10 0.931 . S
H26 C31 0.931 . S
H27 C6 0.929 . S
H28 C39 0.930 1_554 S
N29 Eu0 2.600 . S
N29 C30 1.365 . S
N29 C33 1.319 . S
C30 N29 1.365 . S
C30 C32 1.405 . S
C30 C38 1.448 . S
C31 H26 0.931 . S
C31 C33 1.397 . S
C31 C34 1.367 . S
C32 C30 1.405 . S
C32 C34 1.403 . S
C32 C65 1.439 . S
C33 H18 0.930 . S
C33 N29 1.319 . S
C33 C31 1.397 . S
C34 C31 1.367 . S
C34 C32 1.403 . S
C34 H41 0.929 . S
N35 Eu0 2.562 . S
N35 C36 1.325 1_556 S
N35 C38 1.351 . S
C36 H22 0.929 . S
C36 N35 1.325 1_554 S
C36 C40 1.416 . S
C37 C38 1.430 . S
C37 C39 1.404 . S
C37 C66 1.387 . S
C38 C30 1.448 . S
C38 N35 1.351 . S
C38 C37 1.430 . S
C39 H28 0.930 1_556 S
C39 C37 1.404 . S
C39 C40 1.366 1_556 S
C40 H19 0.930 . S
C40 C36 1.416 . S
C40 C39 1.366 1_554 S
H41 C34 0.929 . S
H42 C65 0.931 . S
H43 C66 0.931 . S
O44 Eu0 2.462 . S
O44 C64 1.252 . S
O45 Eu0 2.373 . S
O45 C56 1.249 . S
O46 Eu11 2.335 1_655 S
O46 C56 1.264 1_544 S
O47 Eu0 2.432 . S
O47 C64 1.268 . S
O48 Eu0 2.291 1_554 S
O48 C63 1.255 1_565 S
O49 Eu11 2.372 . S
O49 C63 1.257 1_455 S
O50 Eu11 2.462 . S
O50 C75 1.252 . S
O51 Eu11 2.373 . S
O51 C67 1.252 . S
O52 Eu0 2.335 1_455 S
O52 C67 1.262 1_566 S
O53 Eu11 2.432 . S
O53 C75 1.268 . S
O54 Eu11 2.291 1_556 S
O54 C74 1.255 1_545 S
O55 Eu0 2.372 . S
O55 C74 1.257 1_655 S
C56 O45 1.249 . S
C56 O46 1.264 1_566 S
C57 C60 1.382 . S
C57 C62 1.390 . S
C57 C64 1.506 . S
C58 C59 1.398 . S
C58 C62 1.392 . S
C59 C58 1.398 . S
C59 C61 1.372 . S
C59 H76 0.931 . S
C60 C57 1.382 . S
C60 C61 1.390 . S
C60 H77 0.931 . S
C61 C59 1.372 . S
C61 C60 1.390 . S
C61 H78 0.929 . S
C62 C57 1.390 . S
C62 C58 1.392 . S
C62 H79 0.930 1_556 S
C63 O48 1.255 1_545 S
C63 O49 1.257 1_655 S
C64 Eu0 2.787 . S
C64 O44 1.252 . S
C64 O47 1.268 . S
C64 C57 1.506 . S
C65 C32 1.439 . S
C65 H42 0.931 . S
C65 C66 1.374 . S
C66 C37 1.387 . S
C66 H43 0.931 . S
C66 C65 1.374 . S
C67 O51 1.252 . S
C67 O52 1.262 1_544 S
C68 C71 1.382 . S
C68 C72 1.390 . S
C68 C75 1.506 . S
C69 C70 1.398 . S
C69 C72 1.392 . S
C70 C69 1.398 . S
C70 C73 1.372 . S
C70 H80 0.931 . S
C71 C68 1.382 . S
C71 C73 1.390 . S
C71 H81 0.931 . S
C72 C68 1.390 . S
C72 C69 1.392 . S
C72 H82 0.930 1_554 S
C73 C70 1.372 . S
C73 C71 1.390 . S
C73 H83 0.929 . S
C74 O54 1.255 1_565 S
C74 O55 1.257 1_455 S
C75 Eu11 2.787 . S
C75 O50 1.252 . S
C75 O53 1.268 . S
C75 C68 1.506 . S
H76 C59 0.931 . S
H77 C60 0.931 . S
H78 C61 0.929 . S
H79 C62 0.930 1_554 S
H80 C70 0.931 . S
H81 C71 0.931 . S
H82 C72 0.930 1_556 S
H83 C73 0.929 . S
C84 C85 1.367 1_455 S
C84 C86 1.419 . S
C84 H88 0.930 . S
C85 C84 1.367 1_655 S
C85 C94 1.429 1_545 S
C86 C84 1.419 . S
C86 C87 1.355 1_455 S
C86 H89 0.929 . S
C87 C86 1.355 1_655 S
C87 C93 1.438 1_545 S
H88 C84 0.930 . S
H89 C86 0.929 . S
S90 N91 1.613 . S
S90 N92 1.610 . S
N91 S90 1.613 . S
N91 C94 1.350 . S
N92 S90 1.610 . S
N92 C93 1.351 . S
C93 C87 1.438 1_565 S
C93 N92 1.351 . S
C93 C94 1.434 . S
C94 C85 1.429 1_565 S
C94 N91 1.350 . S
C94 C93 1.434 . S
C95 C96 1.361 1_546 S
C95 C97 1.419 . S
C95 H99 0.930 . S
C96 C95 1.361 1_564 S
C96 C105 1.441 . S
C97 C95 1.419 . S
C97 C98 1.354 1_546 S
C97 H100 0.929 . S
C98 C97 1.354 1_564 S
C98 C104 1.435 . S
H99 C95 0.930 . S
H100 C97 0.929 . S
S101 N102 1.613 . S
S101 N103 1.610 . S
N102 S101 1.613 . S
N102 C105 1.350 . S
N103 S101 1.610 . S
N103 C104 1.351 . S
C104 C98 1.435 . S
C104 N103 1.351 . S
C104 C105 1.434 . S
C105 C96 1.441 . S
C105 N102 1.350 . S
C105 C104 1.434 . S
C106 C107 1.368 1_655 S
C106 C108 1.419 . S
C106 H110 0.930 . S
C107 C106 1.368 1_455 S
C107 C116 1.428 1_556 S
C108 C106 1.419 . S
C108 C109 1.363 1_655 S
C108 H111 0.929 . S
C109 C108 1.363 1_455 S
C109 C115 1.428 1_556 S
H110 C106 0.930 . S
H111 C108 0.929 . S
S112 N113 1.613 . S
S112 N114 1.610 . S
N113 S112 1.613 . S
N113 C116 1.350 . S
N114 S112 1.610 . S
N114 C115 1.351 . S
C115 C109 1.428 1_554 S
C115 N114 1.351 . S
C115 C116 1.434 . S
C116 C107 1.428 1_554 S
C116 N113 1.350 . S
C116 C115 1.434 . S
C85 C63 1.481 . S
C87 C74 1.480 1_645 S
C96 C67 1.489 1_565 S
C98 C56 1.498 1_554 S
C107 C58 1.359 1_455 S
C109 C69 1.360 1_556 S
