# Generated by pormake.
# Topology ukf, (4)-cn, num edge types: 1
# Building blocks:
#     Node 0, Type 0, BuildingBlock: NAHDIM_clean_sbu_0, # of connection points: 4
#     Node 1, Type 0, BuildingBlock: NAHDIM_clean_sbu_0, # of connection points: 4
#     Node 2, Type 0, BuildingBlock: NAHDIM_clean_sbu_0, # of connection points: 4
#     Node 3, Type 0, BuildingBlock: NAHDIM_clean_sbu_0, # of connection points: 4
#     Node 4, Type 0, BuildingBlock: NAHDIM_clean_sbu_0, # of connection points: 4
#     Node 5, Type 0, BuildingBlock: NAHDIM_clean_sbu_0, # of connection points: 4
#     Node 6, Type 0, BuildingBlock: NAHDIM_clean_sbu_0, # of connection points: 4
#     Node 7, Type 0, BuildingBlock: NAHDIM_clean_sbu_0, # of connection points: 4
#     Node 8, Type 0, BuildingBlock: NAHDIM_clean_sbu_0, # of connection points: 4
#     Node 9, Type 0, BuildingBlock: NAHDIM_clean_sbu_0, # of connection points: 4
#     Node 10, Type 0, BuildingBlock: NAHDIM_clean_sbu_0, # of connection points: 4
#     Node 11, Type 0, BuildingBlock: NAHDIM_clean_sbu_0, # of connection points: 4
#     Edge 12, Type (0, 0), None
#     Edge 13, Type (0, 0), None
#     Edge 14, Type (0, 0), None
#     Edge 15, Type (0, 0), None
#     Edge 16, Type (0, 0), None
#     Edge 17, Type (0, 0), None
#     Edge 18, Type (0, 0), None
#     Edge 19, Type (0, 0), None
#     Edge 20, Type (0, 0), None
#     Edge 21, Type (0, 0), None
#     Edge 22, Type (0, 0), None
#     Edge 23, Type (0, 0), None
#     Edge 24, Type (0, 0), None
#     Edge 25, Type (0, 0), None
#     Edge 26, Type (0, 0), None
#     Edge 27, Type (0, 0), None
#     Edge 28, Type (0, 0), None
#     Edge 29, Type (0, 0), None
#     Edge 30, Type (0, 0), None
#     Edge 31, Type (0, 0), None
#     Edge 32, Type (0, 0), None
#     Edge 33, Type (0, 0), None
#     Edge 34, Type (0, 0), None
#     Edge 35, Type (0, 0), None
# Relax obj value: 0.168
# Max RMSD: 0.182
# Mean RMSD: 0.169
data_MOF--net-ukf--node1-NAHDIM_clean_sbu_0--edge1-none
_symmetry_space_group_name_H-M    P1
_symmetry_Int_Tables_number       1
_symmetry_cell_setting            triclinic
loop_
_symmetry_equiv_pos_as_xyz
'x, y, z'
_cell_length_a     15.233848
_cell_length_b     15.332928
_cell_length_c     28.269144
_cell_angle_alpha  88.499141
_cell_angle_beta   90.00042
_cell_angle_gamma 119.78863
loop_
_atom_site_label
_atom_site_type_symbol
_atom_site_fract_x
_atom_site_fract_y
_atom_site_fract_z
_atom_type_partial_charge
C0 C 0.53476 0.43511 0.00632 0.0
O1 O 0.61376 0.42274 0.00321 0.0
O2 O 0.54023 0.22625 0.96899 0.0
Zn3 Zn 0.42784 0.21954 0.00791 0.0
O4 O 0.44087 0.17934 0.07491 0.0
C5 C 0.2467 0.02764 -0.00621 0.0
O6 O 0.25518 0.01184 0.03899 0.0
O7 O 0.44589 0.35892 0.00783 0.0
C8 C 0.3884 0.18191 0.10915 0.0
O9 O 0.31813 0.20606 0.10108 0.0
C10 C 0.61848 0.23193 -0.01245 0.0
O11 O 0.62817 0.23491 0.03372 0.0
O12 O 0.30279 0.1148 0.9754 0.0
C13 C 0.03486 0.49868 0.32603 0.0
O14 O 0.12213 0.57994 0.33275 0.0
O15 O 0.27332 0.53096 0.34898 0.0
Zn16 Zn 0.14559 0.39648 0.3523 0.0
O17 O 0.1127 0.35413 0.42105 0.0
C18 C 0.20415 0.24495 0.32607 0.0
O19 O 0.21054 0.22963 0.3715 0.0
O20 O 0.02863 0.41277 0.32903 0.0
C21 C 0.17671 0.35787 0.4508 0.0
O22 O 0.26866 0.38353 0.43651 0.0
C23 C 0.31839 0.56486 0.30933 0.0
O24 O 0.28114 0.51191 0.27131 0.0
O25 O 0.17207 0.3036 0.31211 0.0
C26 C 0.91489 0.1721 0.65982 0.0
O27 O 0.93664 0.1953 0.70428 0.0
O28 O 0.75961 0.10605 0.76103 0.0
Zn29 Zn 0.72315 0.13218 0.69512 0.0
O30 O 0.73893 0.27053 0.69046 0.0
C31 C 0.51186 0.05306 0.70422 0.0
O32 O 0.54708 0.13486 0.72886 0.0
O33 O 0.82347 0.13474 0.64669 0.0
C34 C 0.73007 0.30516 0.65058 0.0
O35 O 0.71127 0.25067 0.61289 0.0
C36 C 0.79675 0.17609 0.79059 0.0
O37 O 0.81066 0.26534 0.77846 0.0
O38 O 0.57403 0.03226 0.68424 0.0
C39 C 0.54927 0.53606 0.01105 0.0
O40 O 0.47139 0.54655 0.02205 0.0
O41 O 0.52209 0.73317 -0.0198 0.0
Zn42 Zn 0.63757 0.74259 0.01819 0.0
O43 O 0.6065 0.74286 0.08774 0.0
C44 C 0.73382 0.94084 -0.0056 0.0
O45 O 0.65031 0.92078 0.01698 0.0
O46 O 0.63691 0.61356 0.00678 0.0
C47 C 0.64887 0.81118 0.11785 0.0
O48 O 0.72852 0.89757 0.10577 0.0
C49 C 0.44771 0.73551 -0.00114 0.0
O50 O 0.44235 0.74126 0.04492 0.0
O51 O 0.75782 0.8725 -0.00744 0.0
C52 C 0.94208 0.50534 0.32656 0.0
O53 O 0.85433 0.42266 0.33175 0.0
O54 O 0.70138 0.46877 0.35065 0.0
Zn55 Zn 0.82898 0.60205 0.35589 0.0
O56 O 0.85487 0.62929 0.42526 0.0
C57 C 0.77224 0.75872 0.33148 0.0
O58 O 0.75765 0.76361 0.37684 0.0
O59 O 0.94795 0.59028 0.33189 0.0
C60 C 0.78703 0.61793 0.45478 0.0
O61 O 0.69693 0.59586 0.43979 0.0
C62 C 0.66306 0.43969 0.31025 0.0
O63 O 0.70726 0.49676 0.27248 0.0
O64 O 0.80699 0.70339 0.31738 0.0
C65 C 0.02543 0.75507 0.66467 0.0
O66 O 0.00211 0.72366 0.70895 0.0
O67 O 0.17516 0.7972 0.76402 0.0
Zn68 Zn 0.21809 0.79222 0.69706 0.0
O69 O 0.2091 0.65796 0.69122 0.0
C70 C 0.40203 0.98315 0.70431 0.0
O71 O 0.34203 0.00379 0.72906 0.0
O72 O 0.11721 0.79469 0.65073 0.0
C73 C 0.2144 0.62733 0.65061 0.0
O74 O 0.22661 0.6842 0.61285 0.0
C75 C 0.23002 0.80075 0.79853 0.0
O76 O 0.31773 0.80675 0.79031 0.0
O77 O 0.36531 0.89875 0.68473 0.0
C78 C 0.52075 0.47044 0.63025 0.0
O79 O 0.52674 0.38918 0.62353 0.0
O80 O 0.7269 0.43813 0.6073 0.0
Zn81 Zn 0.73369 0.57261 0.60398 0.0
O82 O 0.74314 0.61495 0.53523 0.0
C83 C 0.94377 0.7242 0.63021 0.0
O84 O 0.96551 0.7396 0.58478 0.0
O85 O 0.60045 0.55635 0.62725 0.0
C86 C 0.80346 0.61129 0.50548 0.0
O87 O 0.8698 0.58569 0.51976 0.0
C88 C 0.73811 0.40425 0.64695 0.0
O89 O 0.75385 0.45721 0.68497 0.0
O90 O 0.85305 0.66549 0.64417 0.0
C91 C 0.08422 0.53403 0.94996 0.0
O92 O 0.17558 0.5464 0.95308 0.0
O93 O 0.29854 0.74288 -0.0127 0.0
Zn94 Zn 0.19287 0.74959 0.94838 0.0
O95 O 0.2461 0.78981 0.88138 0.0
C96 C 0.20356 0.94147 0.96249 0.0
O97 O 0.2278 0.95731 0.91728 0.0
O98 O 0.07153 0.61021 0.94846 0.0
C99 C 0.19106 0.78723 0.84715 0.0
O100 O 0.09663 0.76307 0.85521 0.0
C101 C 0.37112 0.7372 0.96873 0.0
O102 O 0.37782 0.73422 0.92257 0.0
O103 O 0.17257 0.85433 -0.01911 0.0
C104 C 0.25491 0.21405 0.29161 0.0
O105 O 0.26292 0.24538 0.24732 0.0
O106 O 0.36253 0.17194 0.19227 0.0
Zn107 Zn 0.41045 0.17693 0.25923 0.0
O108 O 0.53573 0.31118 0.26507 0.0
C109 C 0.40344 -0.01401 0.25199 0.0
O110 O 0.32281 0.96536 0.22723 0.0
O111 O 0.3071 0.17448 0.30555 0.0
C112 C 0.57165 0.34184 0.30567 0.0
O113 O 0.52696 0.285 0.34343 0.0
C114 C 0.41384 0.16839 0.15776 0.0
O115 O 0.49556 0.16241 0.16598 0.0
O116 O 0.45113 0.0704 0.27156 0.0
C117 C 0.42133 0.46381 0.62972 0.0
O118 O 0.41626 0.54649 0.62454 0.0
O119 O 0.21722 0.50041 0.60563 0.0
Zn120 Zn 0.21151 0.36712 0.60038 0.0
O121 O 0.21016 0.3399 0.53102 0.0
C122 C -0.0019 0.2104 0.6248 0.0
O123 O 0.97859 0.20542 0.57943 0.0
O124 O 0.34224 0.37887 0.62439 0.0
C125 C 0.15363 0.3512 0.5015 0.0
O126 O 0.08555 0.3732 0.51649 0.0
C127 C 0.20796 0.52948 0.64603 0.0
O128 O 0.19504 0.47239 0.68379 0.0
O129 O 0.08817 0.2658 0.63889 0.0
C130 C -0.00222 0.43308 0.94524 0.0
O131 O 0.9094 0.42258 0.93424 0.0
O132 O 0.77348 0.23595 0.97608 0.0
Zn133 Zn 0.87954 0.22654 0.9381 0.0
O134 O 0.8482 0.22627 0.86855 0.0
C135 C 0.77755 0.02831 0.96189 0.0
O136 O 0.71407 0.04833 0.93931 0.0
O137 O 0.00792 0.35558 0.9495 0.0
C138 C 0.82226 0.15795 0.83844 0.0
O139 O 0.81554 0.07157 0.85052 0.0
C140 C 0.69676 0.23362 0.95743 0.0
O141 O 0.68564 0.22787 0.91137 0.0
O142 O 0.86989 0.09664 0.96373 0.0
C143 C 0.72737 0.79706 0.29646 0.0
O144 O 0.72602 0.77395 0.25199 0.0
O145 O 0.63809 0.86308 0.19526 0.0
Zn146 Zn 0.5755 0.83694 0.26116 0.0
O147 O 0.45292 0.69859 0.26582 0.0
C148 C 0.44336 0.91608 0.25207 0.0
O149 O 0.39676 0.83429 0.22742 0.0
O150 O 0.67325 0.83435 0.3096 0.0
C151 C 0.40945 0.66394 0.3057 0.0
O152 O 0.44516 0.71841 0.3434 0.0
C153 C 0.60522 0.79303 0.1657 0.0
O154 O 0.52991 0.70377 0.17784 0.0
O155 O 0.52632 0.93687 0.27205 0.0
loop_
_geom_bond_atom_site_label_1
_geom_bond_atom_site_label_2
_geom_bond_distance
_geom_bond_site_symmetry_2
_ccdc_geom_bond_type
C0 O1 1.160 . S
C0 O7 1.185 . S
O1 C0 1.160 . S
O2 Zn3 1.899 1_556 S
O2 C10 1.284 1_556 S
Zn3 O2 1.899 1_554 S
Zn3 O4 2.032 . S
Zn3 O7 2.086 . S
Zn3 O12 1.977 . S
O4 Zn3 2.032 . S
O4 C8 1.278 . S
C5 O6 1.204 . S
C5 O12 1.271 . S
O6 C5 1.204 . S
O7 C0 1.185 . S
O7 Zn3 2.086 . S
C8 O4 1.278 . S
C8 O9 1.211 . S
O9 C8 1.211 . S
C10 O2 1.284 1_554 S
C10 O11 1.273 . S
O11 C10 1.273 . S
O12 Zn3 1.977 . S
O12 C5 1.271 . S
C13 O14 1.160 . S
C13 O20 1.185 . S
O14 C13 1.160 . S
O15 Zn16 1.899 . S
O15 C23 1.284 . S
Zn16 O15 1.899 . S
Zn16 O17 2.032 . S
Zn16 O20 2.086 . S
Zn16 O25 1.977 . S
O17 Zn16 2.032 . S
O17 C21 1.278 . S
C18 O19 1.203 . S
C18 O25 1.267 . S
O19 C18 1.203 . S
O20 C13 1.185 . S
O20 Zn16 2.086 . S
C21 O17 1.278 . S
C21 O22 1.211 . S
O22 C21 1.211 . S
C23 O15 1.284 . S
C23 O24 1.273 . S
O24 C23 1.273 . S
O25 Zn16 1.977 . S
O25 C18 1.267 . S
C26 O27 1.160 . S
C26 O33 1.185 . S
O27 C26 1.160 . S
O28 Zn29 1.899 . S
O28 C36 1.284 . S
Zn29 O28 1.899 . S
Zn29 O30 2.032 . S
Zn29 O33 2.086 . S
Zn29 O38 1.977 . S
O30 Zn29 2.032 . S
O30 C34 1.278 . S
C31 O32 1.203 1_565 S
C31 O38 1.267 1_565 S
O32 C31 1.203 1_545 S
O33 C26 1.185 . S
O33 Zn29 2.086 . S
C34 O30 1.278 . S
C34 O35 1.211 . S
O35 C34 1.211 . S
C36 O28 1.284 . S
C36 O37 1.273 . S
O37 C36 1.273 . S
O38 Zn29 1.977 . S
O38 C31 1.267 1_545 S
C39 O40 1.160 . S
C39 O46 1.185 . S
O40 C39 1.160 . S
O41 Zn42 1.899 1_556 S
O41 C49 1.284 1_556 S
Zn42 O41 1.899 1_554 S
Zn42 O43 2.032 . S
Zn42 O46 2.086 . S
Zn42 O51 1.977 . S
O43 Zn42 2.032 . S
O43 C47 1.278 . S
C44 O45 1.204 . S
C44 O51 1.271 . S
O45 C44 1.204 . S
O46 C39 1.185 . S
O46 Zn42 2.086 . S
C47 O43 1.278 . S
C47 O48 1.211 . S
O48 C47 1.211 . S
C49 O41 1.284 1_554 S
C49 O50 1.273 . S
O50 C49 1.273 . S
O51 Zn42 1.977 . S
O51 C44 1.271 . S
C52 O53 1.160 . S
C52 O59 1.185 . S
O53 C52 1.160 . S
O54 Zn55 1.899 . S
O54 C62 1.284 . S
Zn55 O54 1.899 . S
Zn55 O56 2.032 . S
Zn55 O59 2.086 . S
Zn55 O64 1.977 . S
O56 Zn55 2.032 . S
O56 C60 1.278 . S
C57 O58 1.203 . S
C57 O64 1.267 . S
O58 C57 1.203 . S
O59 C52 1.185 . S
O59 Zn55 2.086 . S
C60 O56 1.278 . S
C60 O61 1.211 . S
O61 C60 1.211 . S
C62 O54 1.284 . S
C62 O63 1.273 . S
O63 C62 1.273 . S
O64 Zn55 1.977 . S
O64 C57 1.267 . S
C65 O66 1.160 . S
C65 O72 1.185 . S
O66 C65 1.160 . S
O67 Zn68 1.899 . S
O67 C75 1.284 . S
Zn68 O67 1.899 . S
Zn68 O69 2.032 . S
Zn68 O72 2.086 . S
Zn68 O77 1.977 . S
O69 Zn68 2.032 . S
O69 C73 1.278 . S
C70 O71 1.203 1_545 S
C70 O77 1.267 1_545 S
O71 C70 1.203 1_565 S
O72 C65 1.185 . S
O72 Zn68 2.086 . S
C73 O69 1.278 . S
C73 O74 1.211 . S
O74 C73 1.211 . S
C75 O67 1.284 . S
C75 O76 1.273 . S
O76 C75 1.273 . S
O77 Zn68 1.977 . S
O77 C70 1.267 1_565 S
C78 O79 1.160 . S
C78 O85 1.185 . S
O79 C78 1.160 . S
O80 Zn81 1.899 . S
O80 C88 1.284 . S
Zn81 O80 1.899 . S
Zn81 O82 2.032 . S
Zn81 O85 2.086 . S
Zn81 O90 1.977 . S
O82 Zn81 2.032 . S
O82 C86 1.278 . S
C83 O84 1.203 . S
C83 O90 1.267 . S
O84 C83 1.203 . S
O85 C78 1.185 . S
O85 Zn81 2.086 . S
C86 O82 1.278 . S
C86 O87 1.211 . S
O87 C86 1.211 . S
C88 O80 1.284 . S
C88 O89 1.273 . S
O89 C88 1.273 . S
O90 Zn81 1.977 . S
O90 C83 1.267 . S
C91 O92 1.160 . S
C91 O98 1.185 . S
O92 C91 1.160 . S
O93 Zn94 1.899 1_554 S
O93 C101 1.284 1_554 S
Zn94 O93 1.899 1_556 S
Zn94 O95 2.032 . S
Zn94 O98 2.086 . S
Zn94 O103 1.977 . S
O95 Zn94 2.032 . S
O95 C99 1.278 . S
C96 O97 1.204 . S
C96 O103 1.271 . S
O97 C96 1.204 . S
O98 C91 1.185 . S
O98 Zn94 2.086 . S
C99 O95 1.278 . S
C99 O100 1.211 . S
O100 C99 1.211 . S
C101 O93 1.284 1_556 S
C101 O102 1.273 . S
O102 C101 1.273 . S
O103 Zn94 1.977 . S
O103 C96 1.271 . S
C104 O105 1.160 . S
C104 O111 1.185 . S
O105 C104 1.160 . S
O106 Zn107 1.899 . S
O106 C114 1.284 . S
Zn107 O106 1.899 . S
Zn107 O108 2.032 . S
Zn107 O111 2.086 . S
Zn107 O116 1.977 . S
O108 Zn107 2.032 . S
O108 C112 1.278 . S
C109 O110 1.203 1_565 S
C109 O116 1.267 1_565 S
O110 C109 1.203 1_545 S
O111 C104 1.185 . S
O111 Zn107 2.086 . S
C112 O108 1.278 . S
C112 O113 1.211 . S
O113 C112 1.211 . S
C114 O106 1.284 . S
C114 O115 1.273 . S
O115 C114 1.273 . S
O116 Zn107 1.977 . S
O116 C109 1.267 1_545 S
C117 O118 1.160 . S
C117 O124 1.185 . S
O118 C117 1.160 . S
O119 Zn120 1.899 . S
O119 C127 1.284 . S
Zn120 O119 1.899 . S
Zn120 O121 2.032 . S
Zn120 O124 2.086 . S
Zn120 O129 1.977 . S
O121 Zn120 2.032 . S
O121 C125 1.278 . S
C122 O123 1.203 . S
C122 O129 1.267 . S
O123 C122 1.203 . S
O124 C117 1.185 . S
O124 Zn120 2.086 . S
C125 O121 1.278 . S
C125 O126 1.211 . S
O126 C125 1.211 . S
C127 O119 1.284 . S
C127 O128 1.273 . S
O128 C127 1.273 . S
O129 Zn120 1.977 . S
O129 C122 1.267 . S
C130 O131 1.160 . S
C130 O137 1.185 . S
O131 C130 1.160 . S
O132 Zn133 1.899 1_554 S
O132 C140 1.284 1_554 S
Zn133 O132 1.899 1_556 S
Zn133 O134 2.032 . S
Zn133 O137 2.086 . S
Zn133 O142 1.977 . S
O134 Zn133 2.032 . S
O134 C138 1.278 . S
C135 O136 1.204 . S
C135 O142 1.271 . S
O136 C135 1.204 . S
O137 C130 1.185 . S
O137 Zn133 2.086 . S
C138 O134 1.278 . S
C138 O139 1.211 . S
O139 C138 1.211 . S
C140 O132 1.284 1_556 S
C140 O141 1.273 . S
O141 C140 1.273 . S
O142 Zn133 1.977 . S
O142 C135 1.271 . S
C143 O144 1.160 . S
C143 O150 1.185 . S
O144 C143 1.160 . S
O145 Zn146 1.899 . S
O145 C153 1.284 . S
Zn146 O145 1.899 . S
Zn146 O147 2.032 . S
Zn146 O150 2.086 . S
Zn146 O155 1.977 . S
O147 Zn146 2.032 . S
O147 C151 1.278 . S
C148 O149 1.203 1_545 S
C148 O155 1.267 1_545 S
O149 C148 1.203 1_565 S
O150 C143 1.185 . S
O150 Zn146 2.086 . S
C151 O147 1.278 . S
C151 O152 1.211 . S
O152 C151 1.211 . S
C153 O145 1.284 . S
C153 O154 1.273 . S
O154 C153 1.273 . S
O155 Zn146 1.977 . S
O155 C148 1.267 1_565 S
C96 C5 1.100 1_566 S
C18 C104 1.464 . S
C26 C122 1.464 1_655 S
C44 C135 1.100 1_564 S
C143 C57 1.464 . S
C83 C65 1.464 1_655 S
C140 C10 1.273 1_556 S
C23 C151 1.282 . S
C34 C88 1.282 . S
C101 C49 1.273 1_556 S
C112 C62 1.282 . S
C127 C73 1.282 . S
C8 C114 1.564 . S
C21 C125 1.535 . S
C138 C36 1.564 . S
C47 C153 1.564 . S
C86 C60 1.535 . S
C99 C75 1.564 . S
C39 C0 1.540 . S
C52 C13 1.466 1_655 S
C31 C70 1.921 1_565 S
C78 C117 1.467 . S
C91 C130 1.540 1_455 S
C148 C109 1.920 1_545 S
