# Generated by pormake.
# Topology dmp, (4)-cn, num edge types: 1
# Building blocks:
#     Node 0, Type 0, BuildingBlock: ICAMEG_clean_sbu_1, # of connection points: 4
#     Node 1, Type 0, BuildingBlock: ICAMEG_clean_sbu_1, # of connection points: 4
#     Node 2, Type 0, BuildingBlock: ICAMEG_clean_sbu_1, # of connection points: 4
#     Node 3, Type 0, BuildingBlock: ICAMEG_clean_sbu_1, # of connection points: 4
#     Edge 4, Type (0, 0), None
#     Edge 5, Type (0, 0), None
#     Edge 6, Type (0, 0), None
#     Edge 7, Type (0, 0), None
#     Edge 8, Type (0, 0), None
#     Edge 9, Type (0, 0), None
#     Edge 10, Type (0, 0), None
#     Edge 11, Type (0, 0), None
# Relax obj value: 0.004
# Max RMSD: 0.047
# Mean RMSD: 0.047
data_MOF--net-dmp--node1-ICAMEG_clean_sbu_1--edge1-none
_symmetry_space_group_name_H-M    P1
_symmetry_Int_Tables_number       1
_symmetry_cell_setting            triclinic
loop_
_symmetry_equiv_pos_as_xyz
'x, y, z'
_cell_length_a     19.408169
_cell_length_b     10.31384
_cell_length_c     12.087953
_cell_angle_alpha  90.00008
_cell_angle_beta   92.635445
_cell_angle_gamma 90.003381
loop_
_atom_site_label
_atom_site_type_symbol
_atom_site_fract_x
_atom_site_fract_y
_atom_site_fract_z
_atom_type_partial_charge
Co0 Co 0.17124 0.1842 0.00495 0.0
Co1 Co 0.17905 0.23144 0.29013 0.0
O2 O 0.12043 0.21441 0.14653 0.0
C3 C 0.0601 -0.04175 -0.05827 0.0
O4 O 0.07983 0.88346 0.02491 0.0
C5 C 0.04845 0.38372 0.36145 0.0
O6 O 1.00903 0.30689 0.30073 0.0
O7 O 0.22953 0.37992 0.22763 0.0
O8 O 0.25043 0.3139 0.05838 0.0
H9 H 0.4141 0.29724 0.45228 0.0
H10 H 0.10102 0.24696 0.77892 0.0
O11 O 0.08909 0.07139 -0.06774 0.0
H12 H 0.10495 0.65354 -0.01596 0.0
H13 H 0.22924 0.04335 0.61652 0.0
H14 H 0.31882 0.16075 -0.01256 0.0
H15 H 0.13597 0.45209 0.07895 0.0
H16 H 0.15056 0.07261 0.76535 0.0
O17 O 0.11446 0.37117 0.35721 0.0
H18 H 0.32726 0.24168 0.31011 0.0
H19 H 0.17216 0.31858 0.53649 0.0
H20 H 0.39765 0.11054 0.84835 0.0
H21 H 0.07636 0.44402 0.67964 0.0
H22 H 0.3555 0.05553 0.65838 0.0
H23 H 0.07411 0.65079 0.78048 0.0
O24 O 0.21584 0.0247 0.07036 0.0
H25 H 0.07688 -0.00025 0.61082 0.0
H26 H 0.13446 -0.0372 0.22213 0.0
H27 H 0.11718 0.76534 0.32879 0.0
H28 H 0.09036 0.78382 0.52806 0.0
H29 H 0.0939 0.19219 0.49927 0.0
H30 H 0.25895 0.33968 0.68556 0.0
H31 H 0.38219 0.32344 0.64405 0.0
O32 O 0.24872 0.08887 0.2396 0.0
C33 C 0.26054 0.39476 0.13899 0.0
C34 C 0.36151 0.28435 0.47361 0.0
C35 C 0.27383 0.31206 0.60349 0.0
N36 N 0.2425 0.25354 0.41704 0.0
C37 C 0.31094 0.25455 0.39345 0.0
C38 C 0.22392 0.29276 0.51917 0.0
C39 C 0.34318 0.30379 0.58067 0.0
C40 C 0.10959 0.33497 0.82314 0.0
N41 N 0.12983 0.33664 -0.06691 0.0
C42 C 0.09252 0.44816 0.76618 0.0
C43 C 0.09133 0.56404 0.82349 0.0
C44 C 0.10821 0.56536 -0.06315 0.0
C45 C 0.12667 0.45019 -0.00944 0.0
C46 C 0.24868 0.07403 0.69764 0.0
C47 C 0.29754 0.14573 -0.09539 0.0
C48 C 0.2036 0.09893 0.78094 0.0
N49 N 0.22784 0.14682 0.8805 0.0
C50 C 0.34383 0.11341 0.82595 0.0
C51 C 0.31962 0.08076 0.72086 0.0
C52 C 0.25216 0.00742 0.15925 0.0
C53 C 0.09395 -0.00949 0.52732 0.0
C54 C 0.12802 -0.02872 0.30935 0.0
C55 C 0.11681 0.8587 0.3695 0.0
C56 C 0.10108 0.86888 0.48016 0.0
N57 N 0.12964 0.08977 0.35967 0.0
C58 C 0.10593 0.10037 0.46409 0.0
Co59 Co 0.39311 0.68422 0.29342 0.0
Co60 Co 0.38529 0.73145 0.00823 0.0
O61 O 0.44391 0.71443 0.15183 0.0
C62 C 0.50424 0.45826 0.3566 0.0
O63 O 0.4845 0.38349 0.27341 0.0
C64 C 0.51588 0.88372 -0.06313 0.0
O65 O 0.5553 0.80684 -0.00246 0.0
O66 O 0.3348 0.87992 0.07073 0.0
O67 O 0.31392 0.81391 0.23999 0.0
H68 H 0.15024 0.79723 0.84609 0.0
H69 H 0.46335 0.74695 0.51943 0.0
O70 O 0.47525 0.57139 0.36609 0.0
H71 H 0.45937 0.15357 0.31437 0.0
H72 H 0.33511 0.54336 0.68184 0.0
H73 H 0.24552 0.66074 0.31093 0.0
H74 H 0.42836 -0.04787 0.21943 0.0
H75 H 0.41379 0.57263 0.53301 0.0
O76 O 0.44988 0.8712 -0.05884 0.0
H77 H 0.23708 0.74166 -0.01175 0.0
H78 H 0.39218 0.81861 0.76187 0.0
H79 H 0.16669 0.61053 0.45003 0.0
H80 H 0.48801 -0.05599 0.61873 0.0
H81 H 0.20885 0.55551 0.63999 0.0
H82 H 0.49023 0.15081 0.51793 0.0
O83 O 0.34849 0.52472 0.22801 0.0
H84 H 0.48744 0.49975 0.68755 0.0
H85 H 0.42988 0.46284 0.07625 0.0
H86 H 0.44715 0.26537 -0.03041 0.0
H87 H 0.47396 0.28384 0.77032 0.0
H88 H 0.47043 0.69221 0.79907 0.0
H89 H 0.30539 0.83969 0.6128 0.0
H90 H 0.18215 0.82343 0.65432 0.0
O91 O 0.31562 0.58887 0.05876 0.0
C92 C 0.30379 0.89476 0.15938 0.0
C93 C 0.20283 0.78434 0.82475 0.0
C94 C 0.2905 0.81206 0.69487 0.0
N95 N 0.32184 0.75355 0.88132 0.0
C96 C 0.2534 0.75454 -0.09509 0.0
C97 C 0.34041 0.79278 0.77919 0.0
C98 C 0.22116 0.80378 0.71769 0.0
C99 C 0.45477 0.83497 0.47522 0.0
N100 N 0.43452 0.83665 0.36528 0.0
C101 C 0.47184 -0.05184 0.5322 0.0
C102 C 0.47302 0.06405 0.4749 0.0
C103 C 0.45613 0.06538 0.36154 0.0
C104 C 0.43766 -0.04979 0.30783 0.0
C105 C 0.31566 0.57404 0.60073 0.0
C106 C 0.2668 0.64573 0.39376 0.0
C107 C 0.36074 0.59894 0.51743 0.0
N108 N 0.3365 0.64683 0.41786 0.0
C109 C 0.22052 0.61341 0.47242 0.0
C110 C 0.24472 0.58075 0.57751 0.0
C111 C 0.31217 0.50742 0.13911 0.0
C112 C 0.47038 0.49053 0.77104 0.0
C113 C 0.43632 0.47132 -0.01098 0.0
C114 C 0.44753 0.35873 -0.07112 0.0
C115 C 0.46325 0.36889 0.81821 0.0
N116 N 0.43469 0.58979 -0.06131 0.0
C117 C 0.4584 0.60038 0.83427 0.0
Co118 Co 0.8931 0.68269 0.79338 0.0
Co119 Co 0.88529 0.63545 0.50819 0.0
O120 O 0.94391 0.65249 0.65179 0.0
C121 C 1.00424 0.90864 0.85659 0.0
O122 O 0.9845 -0.01657 0.77341 0.0
C123 C 1.01588 0.48318 0.43687 0.0
O124 O 0.05531 0.56001 0.49759 0.0
O125 O 0.83481 0.48697 0.57069 0.0
O126 O 0.81391 0.55299 0.73994 0.0
H127 H 0.65024 0.56965 0.34604 0.0
H128 H 0.96331 0.61993 0.0194 0.0
O129 O 0.97525 0.7955 0.86606 0.0
H130 H 0.95938 0.21335 0.81428 0.0
H131 H 0.8351 0.82354 0.1818 0.0
H132 H 0.74552 0.70615 0.81088 0.0
H133 H 0.92836 0.4148 0.71937 0.0
H134 H 0.91378 0.79428 0.03297 0.0
O135 O 0.94988 0.49573 0.44111 0.0
H136 H 0.73708 0.62522 0.48821 0.0
H137 H 0.89218 0.54831 0.26183 0.0
H138 H 0.66669 0.75635 -0.05003 0.0
H139 H 0.98798 0.42287 0.11868 0.0
H140 H 0.70884 0.81136 0.13994 0.0
H141 H 0.99023 0.2161 0.01784 0.0
O142 O 0.84849 0.84219 0.72797 0.0
H143 H 0.98745 0.86715 0.18751 0.0
H144 H 0.92988 0.90409 0.57619 0.0
H145 H 0.94716 0.10155 0.46953 0.0
H146 H 0.97398 0.08307 0.27026 0.0
H147 H 0.97044 0.6747 0.29905 0.0
H148 H 0.80539 0.52721 0.11276 0.0
H149 H 0.68215 0.54345 0.15427 0.0
O150 O 0.81561 0.77802 0.55872 0.0
C151 C 0.80379 0.47213 0.65933 0.0
C152 C 0.70283 0.58255 0.32471 0.0
C153 C 0.7905 0.55483 0.19483 0.0
N154 N 0.82184 0.61335 0.38128 0.0
C155 C 0.7534 0.61235 0.40487 0.0
C156 C 0.84041 0.57413 0.27915 0.0
C157 C 0.72116 0.56311 0.21765 0.0
C158 C 0.95475 0.53192 -0.02482 0.0
N159 N 0.9345 0.53026 0.86523 0.0
C160 C 0.97182 0.41873 0.03214 0.0
C161 C 0.97301 0.30285 -0.02517 0.0
C162 C 0.95613 0.30153 0.86147 0.0
C163 C 0.93766 0.4167 0.80777 0.0
C164 C 0.81565 0.79286 0.10068 0.0
C165 C 0.7668 0.72116 0.89371 0.0
C166 C 0.86074 0.76796 0.01738 0.0
N167 N 0.8365 0.72007 -0.08218 0.0
C168 C 0.72051 0.75348 -0.02763 0.0
C169 C 0.74471 0.78613 0.07746 0.0
C170 C 0.81217 0.85948 0.63907 0.0
C171 C 0.97039 0.87638 0.271 0.0
C172 C 0.93632 0.89561 0.48897 0.0
C173 C 0.94753 0.00819 0.42882 0.0
C174 C 0.96326 -0.00198 0.31816 0.0
N175 N 0.93469 0.77713 0.43865 0.0
C176 C 0.95841 0.76653 0.33423 0.0
Co177 Co 0.67123 0.18268 0.5049 0.0
Co178 Co 0.67905 0.13544 0.79009 0.0
O179 O 0.62043 0.15246 0.64649 0.0
C180 C 0.5601 0.40863 0.44172 0.0
O181 O 0.57984 0.4834 0.52491 0.0
C182 C 0.54845 -0.01682 0.86145 0.0
O183 O 0.50903 0.06006 0.80078 0.0
O184 O 0.72953 -0.01303 0.72759 0.0
O185 O 0.75042 0.05298 0.55833 0.0
H186 H 0.9141 0.06966 -0.04777 0.0
H187 H 0.60099 0.11994 0.27889 0.0
O188 O 0.58908 0.2955 0.43223 0.0
H189 H 0.60496 0.71332 0.48395 0.0
H190 H 0.72923 0.32354 0.11648 0.0
H191 H 0.81882 0.20615 0.48739 0.0
H192 H 0.63598 0.91477 0.57889 0.0
H193 H 0.65055 0.29427 0.26531 0.0
O194 O 0.61446 -0.0043 0.85717 0.0
H195 H 0.82726 0.12523 0.81007 0.0
H196 H 0.67216 0.04829 0.03645 0.0
H197 H 0.89765 0.25636 0.34829 0.0
H198 H 0.57633 0.92288 0.17959 0.0
H199 H 0.85549 0.31138 0.15833 0.0
H200 H 0.57411 0.71609 0.2804 0.0
O201 O 0.71584 0.34218 0.57031 0.0
H202 H 0.5769 0.36714 0.11078 0.0
H203 H 0.63446 0.40405 0.72207 0.0
H204 H 0.61718 0.60152 0.82873 0.0
H205 H 0.59037 0.58306 0.028 0.0
H206 H 0.59391 0.17469 -0.00075 0.0
H207 H 0.75895 0.02721 0.18552 0.0
H208 H 0.88218 0.04346 0.144 0.0
O209 O 0.74872 0.27802 0.73956 0.0
C210 C 0.76054 -0.02787 0.63895 0.0
C211 C 0.8615 0.08256 -0.02643 0.0
C212 C 0.77383 0.05483 0.10345 0.0
N213 N 0.7425 0.11334 -0.083 0.0
C214 C 0.81094 0.11235 0.89341 0.0
C215 C 0.72392 0.07412 0.01913 0.0
C216 C 0.84318 0.06311 0.08063 0.0
C217 C 0.60956 0.03192 0.3231 0.0
N218 N 0.62982 0.03024 0.43304 0.0
C219 C 0.5925 0.91874 0.26612 0.0
C220 C 0.59132 0.80284 0.32342 0.0
C221 C 0.60821 0.80151 0.43678 0.0
C222 C 0.62667 0.91668 0.49049 0.0
C223 C 0.74867 0.29286 0.19759 0.0
C224 C 0.79754 0.22117 0.40456 0.0
C225 C 0.70359 0.26795 0.2809 0.0
N226 N 0.72783 0.22006 0.38046 0.0
C227 C 0.84382 0.25349 0.3259 0.0
C228 C 0.81961 0.28614 0.22081 0.0
C229 C 0.75216 0.35947 0.65921 0.0
C230 C 0.59396 0.37637 0.02728 0.0
C231 C 0.62801 0.39558 0.8093 0.0
C232 C 0.61681 0.50816 0.86944 0.0
C233 C 0.60109 0.498 -0.01989 0.0
N234 N 0.62964 0.2771 0.85963 0.0
C235 C 0.60594 0.26651 -0.03595 0.0
loop_
_geom_bond_atom_site_label_1
_geom_bond_atom_site_label_2
_geom_bond_distance
_geom_bond_site_symmetry_2
_ccdc_geom_bond_type
Co0 O2 2.143 . S
Co0 O8 2.074 . S
Co0 O11 2.093 1_554 S
Co0 O24 2.097 . S
Co0 N41 2.151 1_554 S
Co0 N49 2.214 1_554 S
Co1 O2 2.160 . S
Co1 O7 2.058 . S
Co1 O17 2.057 . S
Co1 O32 2.037 . S
Co1 N36 2.145 . S
Co1 N57 2.257 . S
O2 Co0 2.143 . S
O2 Co1 2.160 . S
C3 O4 1.278 . S
C3 O11 1.224 1_554 S
O4 C3 1.278 . S
C5 O6 1.245 . S
C5 O17 1.232 . S
O6 C5 1.245 . S
O7 Co1 2.058 . S
O7 C33 1.269 . S
O8 Co0 2.074 . S
O8 C33 1.257 . S
H9 C34 0.930 . S
H10 C40 0.930 . S
O11 Co0 2.093 1_556 S
O11 C3 1.224 1_556 S
H12 C44 0.929 . S
H13 C46 0.930 . S
H14 C47 0.930 . S
H15 C45 0.929 . S
H16 C48 0.928 . S
O17 Co1 2.057 . S
O17 C5 1.232 . S
H18 C37 0.929 . S
H19 C38 0.929 . S
H20 C50 0.931 . S
H21 C42 0.929 1_655 S
H22 C51 0.930 . S
H23 C43 0.931 . S
O24 Co0 2.097 . S
O24 C52 1.214 . S
H25 C53 0.929 . S
H26 C54 0.929 . S
H27 C55 0.930 . S
H28 C56 0.929 . S
H29 C58 0.929 1_655 S
H30 C35 0.930 . S
H31 C39 0.930 . S
O32 Co1 2.037 . S
O32 C52 1.234 . S
C33 O7 1.269 . S
C33 O8 1.257 . S
C34 H9 0.930 . S
C34 C37 1.388 . S
C34 C39 1.418 . S
C35 H30 0.930 . S
C35 C38 1.404 . S
C35 C39 1.353 . S
N36 Co1 2.145 . S
N36 C37 1.397 . S
N36 C38 1.334 . S
C37 H18 0.929 . S
C37 C34 1.388 . S
C37 N36 1.397 . S
C38 H19 0.929 . S
C38 C35 1.404 . S
C38 N36 1.334 . S
C39 H31 0.930 . S
C39 C34 1.418 . S
C39 C35 1.353 . S
C40 H10 0.930 . S
C40 N41 1.330 . S
C40 C42 1.446 . S
N41 Co0 2.151 1_556 S
N41 C40 1.330 . S
N41 C45 1.418 . S
C42 H21 0.929 1_455 S
C42 C40 1.446 . S
C42 C43 1.332 . S
C43 H23 0.931 . S
C43 C42 1.332 . S
C43 C44 1.267 . S
C44 H12 0.929 . S
C44 C43 1.267 . S
C44 C45 1.251 . S
C45 H15 0.929 . S
C45 N41 1.418 . S
C45 C44 1.251 . S
C46 H13 0.930 . S
C46 C48 1.406 . S
C46 C51 1.261 . S
C47 H14 0.930 . S
C47 N49 1.325 . S
C47 C50 1.357 . S
C48 H16 0.928 . S
C48 C46 1.406 . S
C48 N49 1.261 . S
N49 Co0 2.214 1_556 S
N49 C47 1.325 . S
N49 C48 1.261 . S
C50 H20 0.931 . S
C50 C47 1.357 . S
C50 C51 1.312 . S
C51 H22 0.930 . S
C51 C46 1.261 . S
C51 C50 1.312 . S
C52 O24 1.214 . S
C52 O32 1.234 . S
C53 H25 0.929 . S
C53 C56 1.391 1_655 S
C53 C58 1.391 1_665 S
C54 H26 0.929 . S
C54 C55 1.390 . S
C54 N57 1.391 1_565 S
C55 H27 0.930 . S
C55 C54 1.390 . S
C55 C56 1.392 . S
C56 H28 0.929 . S
C56 C53 1.391 1_455 S
C56 C55 1.392 . S
N57 Co1 2.257 . S
N57 C54 1.391 1_545 S
N57 C58 1.388 . S
C58 H29 0.929 1_455 S
C58 C53 1.391 1_445 S
C58 N57 1.388 . S
Co59 O61 2.143 . S
Co59 O67 2.074 . S
Co59 O70 2.093 . S
Co59 O83 2.097 . S
Co59 N100 2.151 . S
Co59 N108 2.214 . S
Co60 O61 2.160 . S
Co60 O66 2.058 . S
Co60 O76 2.057 1_554 S
Co60 O91 2.037 . S
Co60 N95 2.145 1_554 S
Co60 N116 2.257 1_554 S
O61 Co59 2.143 . S
O61 Co60 2.160 . S
C62 O63 1.278 . S
C62 O70 1.224 . S
O63 C62 1.278 . S
C64 O65 1.245 . S
C64 O76 1.232 1_554 S
O65 C64 1.245 . S
O66 Co60 2.058 . S
O66 C92 1.269 . S
O67 Co59 2.074 . S
O67 C92 1.257 . S
H68 C93 0.930 . S
H69 C99 0.930 . S
O70 Co59 2.093 . S
O70 C62 1.224 . S
H71 C103 0.929 . S
H72 C105 0.930 . S
H73 C106 0.930 . S
H74 C104 0.929 . S
H75 C107 0.928 . S
O76 Co60 2.057 1_556 S
O76 C64 1.232 1_556 S
H77 C96 0.929 . S
H78 C97 0.929 . S
H79 C109 0.931 . S
H80 C101 0.929 . S
H81 C110 0.930 . S
H82 C102 0.931 . S
O83 Co59 2.097 . S
O83 C111 1.214 . S
H84 C112 0.929 . S
H85 C113 0.929 . S
H86 C114 0.930 . S
H87 C115 0.929 . S
H88 C117 0.930 . S
H89 C94 0.930 . S
H90 C98 0.930 . S
O91 Co60 2.037 . S
O91 C111 1.234 . S
C92 O66 1.269 . S
C92 O67 1.257 . S
C93 H68 0.930 . S
C93 C96 1.388 . S
C93 C98 1.418 . S
C94 H89 0.930 . S
C94 C97 1.404 . S
C94 C98 1.353 . S
N95 Co60 2.145 1_556 S
N95 C96 1.397 . S
N95 C97 1.334 . S
C96 H77 0.929 . S
C96 C93 1.388 . S
C96 N95 1.397 . S
C97 H78 0.929 . S
C97 C94 1.404 . S
C97 N95 1.334 . S
C98 H90 0.930 . S
C98 C93 1.418 . S
C98 C94 1.353 . S
C99 H69 0.930 . S
C99 N100 1.330 . S
C99 C101 1.446 1_565 S
N100 Co59 2.151 . S
N100 C99 1.330 . S
N100 C104 1.418 1_565 S
C101 H80 0.929 . S
C101 C99 1.446 1_545 S
C101 C102 1.332 . S
C102 H82 0.931 . S
C102 C101 1.332 . S
C102 C103 1.267 . S
C103 H71 0.929 . S
C103 C102 1.267 . S
C103 C104 1.251 . S
C104 H74 0.929 . S
C104 N100 1.418 1_545 S
C104 C103 1.251 . S
C105 H72 0.930 . S
C105 C107 1.406 . S
C105 C110 1.261 . S
C106 H73 0.930 . S
C106 N108 1.325 . S
C106 C109 1.357 . S
C107 H75 0.928 . S
C107 C105 1.406 . S
C107 N108 1.261 . S
N108 Co59 2.214 . S
N108 C106 1.325 . S
N108 C107 1.261 . S
C109 H79 0.931 . S
C109 C106 1.357 . S
C109 C110 1.312 . S
C110 H81 0.930 . S
C110 C105 1.261 . S
C110 C109 1.312 . S
C111 O83 1.214 . S
C111 O91 1.234 . S
C112 H84 0.929 . S
C112 C115 1.391 . S
C112 C117 1.391 1_556 S
C113 H85 0.929 . S
C113 C114 1.390 . S
C113 N116 1.391 . S
C114 H86 0.930 . S
C114 C113 1.390 . S
C114 C115 1.392 . S
C115 H87 0.929 . S
C115 C112 1.391 . S
C115 C114 1.392 . S
N116 Co60 2.257 1_556 S
N116 C113 1.391 . S
N116 C117 1.388 1_556 S
C117 H88 0.930 . S
C117 C112 1.391 1_554 S
C117 N116 1.388 1_554 S
Co118 O120 2.143 . S
Co118 O126 2.074 . S
Co118 O129 2.093 1_556 S
Co118 O142 2.097 . S
Co118 N159 2.151 1_556 S
Co118 N167 2.214 1_556 S
Co119 O120 2.160 . S
Co119 O125 2.058 . S
Co119 O135 2.057 . S
Co119 O150 2.037 . S
Co119 N154 2.145 . S
Co119 N175 2.257 . S
O120 Co118 2.143 . S
O120 Co119 2.160 . S
C121 O122 1.278 . S
C121 O129 1.224 1_556 S
O122 C121 1.278 . S
C123 O124 1.245 . S
C123 O135 1.232 . S
O124 C123 1.245 . S
O125 Co119 2.058 . S
O125 C151 1.269 . S
O126 Co118 2.074 . S
O126 C151 1.257 . S
H127 C152 0.930 . S
H128 C158 0.930 . S
O129 Co118 2.093 1_554 S
O129 C121 1.224 1_554 S
H130 C162 0.929 . S
H131 C164 0.930 . S
H132 C165 0.930 . S
H133 C163 0.929 . S
H134 C166 0.928 . S
O135 Co119 2.057 . S
O135 C123 1.232 . S
H136 C155 0.929 . S
H137 C156 0.929 . S
H138 C168 0.931 . S
H139 C160 0.929 1_455 S
H140 C169 0.930 . S
H141 C161 0.931 . S
O142 Co118 2.097 . S
O142 C170 1.214 . S
H143 C171 0.929 . S
H144 C172 0.929 . S
H145 C173 0.930 . S
H146 C174 0.929 . S
H147 C176 0.929 1_455 S
H148 C153 0.930 . S
H149 C157 0.930 . S
O150 Co119 2.037 . S
O150 C170 1.234 . S
C151 O125 1.269 . S
C151 O126 1.257 . S
C152 H127 0.930 . S
C152 C155 1.388 . S
C152 C157 1.418 . S
C153 H148 0.930 . S
C153 C156 1.404 . S
C153 C157 1.353 . S
N154 Co119 2.145 . S
N154 C155 1.397 . S
N154 C156 1.334 . S
C155 H136 0.929 . S
C155 C152 1.388 . S
C155 N154 1.397 . S
C156 H137 0.929 . S
C156 C153 1.404 . S
C156 N154 1.334 . S
C157 H149 0.930 . S
C157 C152 1.418 . S
C157 C153 1.353 . S
C158 H128 0.930 . S
C158 N159 1.330 . S
C158 C160 1.446 . S
N159 Co118 2.151 1_554 S
N159 C158 1.330 . S
N159 C163 1.418 . S
C160 H139 0.929 1_655 S
C160 C158 1.446 . S
C160 C161 1.332 . S
C161 H141 0.931 . S
C161 C160 1.332 . S
C161 C162 1.267 . S
C162 H130 0.929 . S
C162 C161 1.267 . S
C162 C163 1.251 . S
C163 H133 0.929 . S
C163 N159 1.418 . S
C163 C162 1.251 . S
C164 H131 0.930 . S
C164 C166 1.406 . S
C164 C169 1.261 . S
C165 H132 0.930 . S
C165 N167 1.325 . S
C165 C168 1.357 . S
C166 H134 0.928 . S
C166 C164 1.406 . S
C166 N167 1.261 . S
N167 Co118 2.214 1_554 S
N167 C165 1.325 . S
N167 C166 1.261 . S
C168 H138 0.931 . S
C168 C165 1.357 . S
C168 C169 1.312 . S
C169 H140 0.930 . S
C169 C164 1.261 . S
C169 C168 1.312 . S
C170 O142 1.214 . S
C170 O150 1.234 . S
C171 H143 0.929 . S
C171 C174 1.391 1_455 S
C171 C176 1.391 1_445 S
C172 H144 0.929 . S
C172 C173 1.390 . S
C172 N175 1.391 1_545 S
C173 H145 0.930 . S
C173 C172 1.390 . S
C173 C174 1.392 . S
C174 H146 0.929 . S
C174 C171 1.391 1_655 S
C174 C173 1.392 . S
N175 Co119 2.257 . S
N175 C172 1.391 1_565 S
N175 C176 1.388 . S
C176 H147 0.929 1_655 S
C176 C171 1.391 1_665 S
C176 N175 1.388 . S
Co177 O179 2.143 . S
Co177 O185 2.074 . S
Co177 O188 2.093 . S
Co177 O201 2.097 . S
Co177 N218 2.151 . S
Co177 N226 2.214 . S
Co178 O179 2.160 . S
Co178 O184 2.058 . S
Co178 O194 2.057 1_556 S
Co178 O209 2.037 . S
Co178 N213 2.145 1_556 S
Co178 N234 2.257 1_556 S
O179 Co177 2.143 . S
O179 Co178 2.160 . S
C180 O181 1.278 . S
C180 O188 1.224 . S
O181 C180 1.278 . S
C182 O183 1.245 . S
C182 O194 1.232 1_556 S
O183 C182 1.245 . S
O184 Co178 2.058 . S
O184 C210 1.269 . S
O185 Co177 2.074 . S
O185 C210 1.257 . S
H186 C211 0.930 . S
H187 C217 0.930 . S
O188 Co177 2.093 . S
O188 C180 1.224 . S
H189 C221 0.929 . S
H190 C223 0.930 . S
H191 C224 0.930 . S
H192 C222 0.929 . S
H193 C225 0.928 . S
O194 Co178 2.057 1_554 S
O194 C182 1.232 1_554 S
H195 C214 0.929 . S
H196 C215 0.929 . S
H197 C227 0.931 . S
H198 C219 0.929 . S
H199 C228 0.930 . S
H200 C220 0.931 . S
O201 Co177 2.097 . S
O201 C229 1.214 . S
H202 C230 0.929 . S
H203 C231 0.929 . S
H204 C232 0.930 . S
H205 C233 0.929 . S
H206 C235 0.930 . S
H207 C212 0.930 . S
H208 C216 0.930 . S
O209 Co178 2.037 . S
O209 C229 1.234 . S
C210 O184 1.269 . S
C210 O185 1.257 . S
C211 H186 0.930 . S
C211 C214 1.388 . S
C211 C216 1.418 . S
C212 H207 0.930 . S
C212 C215 1.404 . S
C212 C216 1.353 . S
N213 Co178 2.145 1_554 S
N213 C214 1.397 . S
N213 C215 1.334 . S
C214 H195 0.929 . S
C214 C211 1.388 . S
C214 N213 1.397 . S
C215 H196 0.929 . S
C215 C212 1.404 . S
C215 N213 1.334 . S
C216 H208 0.930 . S
C216 C211 1.418 . S
C216 C212 1.353 . S
C217 H187 0.930 . S
C217 N218 1.330 . S
C217 C219 1.446 1_545 S
N218 Co177 2.151 . S
N218 C217 1.330 . S
N218 C222 1.418 1_545 S
C219 H198 0.929 . S
C219 C217 1.446 1_565 S
C219 C220 1.332 . S
C220 H200 0.931 . S
C220 C219 1.332 . S
C220 C221 1.267 . S
C221 H189 0.929 . S
C221 C220 1.267 . S
C221 C222 1.251 . S
C222 H192 0.929 . S
C222 N218 1.418 1_565 S
C222 C221 1.251 . S
C223 H190 0.930 . S
C223 C225 1.406 . S
C223 C228 1.261 . S
C224 H191 0.930 . S
C224 N226 1.325 . S
C224 C227 1.357 . S
C225 H193 0.928 . S
C225 C223 1.406 . S
C225 N226 1.261 . S
N226 Co177 2.214 . S
N226 C224 1.325 . S
N226 C225 1.261 . S
C227 H197 0.931 . S
C227 C224 1.357 . S
C227 C228 1.312 . S
C228 H199 0.930 . S
C228 C223 1.261 . S
C228 C227 1.312 . S
C229 O201 1.214 . S
C229 O209 1.234 . S
C230 H202 0.929 . S
C230 C233 1.391 . S
C230 C235 1.391 1_554 S
C231 H203 0.929 . S
C231 C232 1.390 . S
C231 N234 1.391 . S
C232 H204 0.930 . S
C232 C231 1.390 . S
C232 C233 1.392 . S
C233 H205 0.929 . S
C233 C230 1.391 . S
C233 C232 1.392 . S
N234 Co178 2.257 1_554 S
N234 C231 1.391 . S
N234 C235 1.388 1_554 S
C235 H206 0.930 . S
C235 C230 1.391 1_556 S
C235 N234 1.388 1_556 S
C92 C52 1.386 1_565 S
C33 C111 1.387 . S
C210 C170 1.386 1_545 S
C151 C229 1.387 . S
C3 C121 1.488 1_444 S
C182 C64 1.500 1_546 S
C123 C5 1.500 1_655 S
C62 C180 1.487 . S
