# Generated by pormake.
# Topology uni, (4)-cn, num edge types: 1
# Building blocks:
#     Node 0, Type 0, BuildingBlock: AZAVOO_clean_sbu_0, # of connection points: 4
#     Node 1, Type 0, BuildingBlock: AZAVOO_clean_sbu_0, # of connection points: 4
#     Node 2, Type 0, BuildingBlock: AZAVOO_clean_sbu_0, # of connection points: 4
#     Node 3, Type 0, BuildingBlock: AZAVOO_clean_sbu_0, # of connection points: 4
#     Node 4, Type 0, BuildingBlock: AZAVOO_clean_sbu_0, # of connection points: 4
#     Node 5, Type 0, BuildingBlock: AZAVOO_clean_sbu_0, # of connection points: 4
#     Edge 6, Type (0, 0), None
#     Edge 7, Type (0, 0), None
#     Edge 8, Type (0, 0), None
#     Edge 9, Type (0, 0), None
#     Edge 10, Type (0, 0), None
#     Edge 11, Type (0, 0), None
#     Edge 12, Type (0, 0), None
#     Edge 13, Type (0, 0), None
#     Edge 14, Type (0, 0), None
#     Edge 15, Type (0, 0), None
#     Edge 16, Type (0, 0), None
#     Edge 17, Type (0, 0), None
# Relax obj value: 0.046
# Max RMSD: 0.090
# Mean RMSD: 0.090
data_MOF--net-uni--node1-AZAVOO_clean_sbu_0--edge1-none
_symmetry_space_group_name_H-M    P1
_symmetry_Int_Tables_number       1
_symmetry_cell_setting            triclinic
loop_
_symmetry_equiv_pos_as_xyz
'x, y, z'
_cell_length_a     19.608498
_cell_length_b     19.609519
_cell_length_c     8.8621845
_cell_angle_alpha  90.004615
_cell_angle_beta   89.989897
_cell_angle_gamma 120.00059
loop_
_atom_site_label
_atom_site_type_symbol
_atom_site_fract_x
_atom_site_fract_y
_atom_site_fract_z
_atom_type_partial_charge
Mg0 Mg 0.60064 0.9447 0.04792 0.0
O1 O 0.53363 -0.01925 0.21166 0.0
O2 O 0.53816 0.08983 0.12259 0.0
Mg3 Mg 0.59683 0.11686 0.89128 0.0
C4 C 0.51805 0.03641 0.22248 0.0
C5 C 0.64715 0.83482 0.24366 0.0
O6 O 0.7206 0.88099 0.2024 0.0
O7 O 0.72256 0.048 0.1136 0.0
O8 O 0.71385 0.14474 0.99717 0.0
O9 O 0.48928 0.86856 0.92046 0.0
O10 O 0.5697 -0.00553 0.87125 0.0
C11 C 0.75278 0.11981 0.0716 0.0
C12 C 0.50484 0.93073 0.84381 0.0
O13 O 0.59738 0.85738 0.22253 0.0
Mg14 Mg 0.63815 0.59719 0.21468 0.0
O15 O 0.53509 0.53019 0.37845 0.0
O16 O 0.43051 0.53466 0.28939 0.0
Mg17 Mg 0.46212 0.59331 0.05808 0.0
C18 C 0.46385 0.51459 0.38929 0.0
C19 C 0.79456 0.64373 0.4104 0.0
O20 O 0.82184 0.71717 0.36912 0.0
O21 O 0.65676 0.71912 0.28031 0.0
O22 O 0.55125 0.71034 0.16394 0.0
O23 O 0.60293 0.48582 0.08723 0.0
O24 O 0.55742 0.56621 0.03803 0.0
C25 C 0.61512 0.74929 0.23835 0.0
C26 C 0.55632 0.50137 1.01058 0.0
O27 O 0.72222 0.59396 0.38929 0.0
Mg28 Mg 0.02318 0.63469 0.38145 0.0
O29 O -0.01289 0.53165 0.54521 0.0
O30 O 0.87805 0.42707 0.45614 0.0
Mg31 Mg 0.85102 0.45868 0.22484 0.0
C32 C 0.93147 0.46041 0.55604 0.0
C33 C 0.13306 0.79112 0.57709 0.0
O34 O 0.08689 0.81838 0.53579 0.0
O35 O 0.91986 0.65332 0.44708 0.0
O36 O 0.82313 0.54782 0.33069 0.0
O37 O 0.09933 0.59946 0.254 0.0
O38 O -0.02658 0.55396 0.2048 0.0
C39 C 0.84805 0.61169 0.40511 0.0
C40 C 0.03716 0.55285 0.17735 0.0
O41 O 0.11048 0.71878 0.55605 0.0
Mg42 Mg 0.37071 0.01973 0.548 0.0
O43 O 0.43772 -0.01631 0.71171 0.0
O44 O 0.43322 0.87462 0.6226 0.0
Mg45 Mg 0.37456 0.84759 0.39131 0.0
C46 C 0.4533 0.92803 0.72251 0.0
C47 C 0.32417 0.12961 0.74372 0.0
O48 O 0.25073 0.08344 0.70245 0.0
O49 O 0.24878 0.91642 0.61368 0.0
O50 O 0.25753 0.81969 0.49725 0.0
O51 O 0.48207 0.09588 0.42049 0.0
O52 O 0.40166 -0.03003 0.37131 0.0
C53 C 0.21859 0.84461 0.57172 0.0
C54 C 0.46651 0.03372 0.34382 0.0
O55 O 0.37395 0.10704 0.72264 0.0
Mg56 Mg 0.33318 0.36724 0.71476 0.0
O57 O 0.43623 0.43424 0.87848 0.0
O58 O 0.54082 0.42975 0.78935 0.0
Mg59 Mg 0.5092 0.37111 0.55804 0.0
C60 C 0.50748 0.44982 0.88929 0.0
C61 C 0.17675 0.32069 0.91041 0.0
O62 O 0.14949 0.24726 0.86904 0.0
O63 O 0.31457 0.24531 0.78037 0.0
O64 O 0.42008 0.25408 0.66394 0.0
O65 O 0.3684 0.4786 0.5873 0.0
O66 O 0.41391 0.39821 0.53807 0.0
C67 C 0.3562 0.21514 0.73839 0.0
C68 C 0.415 0.46305 0.51062 0.0
O69 O 0.2491 0.37046 0.88941 0.0
Mg70 Mg 0.94813 0.32973 0.88144 0.0
O71 O -0.0158 0.43277 0.04521 0.0
O72 O 0.09328 0.53734 0.9561 0.0
Mg73 Mg 0.1203 0.50573 0.72477 0.0
C74 C 0.03987 0.50401 0.05604 0.0
C75 C 0.83831 0.17331 0.07713 0.0
O76 O 0.88444 0.146 0.03574 0.0
O77 O 0.05144 0.3111 0.94702 0.0
O78 O 0.1482 0.4166 0.83063 0.0
O79 O 0.87199 0.36496 0.75403 0.0
O80 O -0.0021 0.41046 0.70478 0.0
C81 C 0.12326 0.35273 0.90506 0.0
C82 C 0.93416 0.41157 0.67736 0.0
O83 O 0.86083 0.24564 0.05607 0.0
loop_
_geom_bond_atom_site_label_1
_geom_bond_atom_site_label_2
_geom_bond_distance
_geom_bond_site_symmetry_2
_ccdc_geom_bond_type
Mg0 O1 2.028 . S
Mg0 O7 1.985 1_565 S
Mg0 O9 2.114 1_554 S
Mg0 O10 2.249 1_564 S
Mg0 O13 2.013 . S
O1 Mg0 2.028 . S
O1 C4 1.250 1_565 S
O2 Mg3 2.028 . S
O2 C4 1.248 . S
Mg3 O2 2.028 . S
Mg3 O8 2.032 . S
Mg3 O10 2.079 1_554 S
C4 O1 1.250 1_545 S
C4 O2 1.248 . S
C5 O6 1.264 1_554 S
C5 O13 1.249 . S
O6 C5 1.264 1_556 S
O7 Mg0 1.985 1_545 S
O7 C11 1.246 . S
O8 Mg3 2.032 . S
O8 C11 1.259 . S
O9 Mg0 2.114 1_556 S
O9 C12 1.260 . S
O10 Mg0 2.249 1_546 S
O10 Mg3 2.079 1_556 S
O10 C12 1.268 1_545 S
C11 O7 1.246 . S
C11 O8 1.259 . S
C12 O9 1.260 . S
C12 O10 1.268 1_565 S
O13 Mg0 2.013 . S
O13 C5 1.249 . S
Mg14 O15 2.028 . S
Mg14 O21 1.986 . S
Mg14 O23 2.114 . S
Mg14 O24 2.251 . S
Mg14 O27 2.010 . S
O15 Mg14 2.028 . S
O15 C18 1.250 . S
O16 Mg17 2.028 . S
O16 C18 1.248 . S
Mg17 O16 2.028 . S
Mg17 O22 2.032 . S
Mg17 O24 2.079 . S
C18 O15 1.250 . S
C18 O16 1.248 . S
C19 O20 1.264 . S
C19 O27 1.249 . S
O20 C19 1.264 . S
O21 Mg14 1.986 . S
O21 C25 1.246 . S
O22 Mg17 2.032 . S
O22 C25 1.259 . S
O23 Mg14 2.114 . S
O23 C26 1.252 . S
O24 Mg14 2.251 . S
O24 Mg17 2.079 . S
O24 C26 1.273 . S
C25 O21 1.246 . S
C25 O22 1.259 . S
C26 O23 1.252 . S
C26 O24 1.273 . S
O27 Mg14 2.010 . S
O27 C19 1.249 . S
Mg28 O29 2.028 . S
Mg28 O35 1.986 1_455 S
Mg28 O37 2.114 . S
Mg28 O38 2.251 1_455 S
Mg28 O41 2.010 . S
O29 Mg28 2.028 . S
O29 C32 1.250 . S
O30 Mg31 2.028 . S
O30 C32 1.248 1_655 S
Mg31 O30 2.028 . S
Mg31 O36 2.032 . S
Mg31 O38 2.079 . S
C32 O29 1.250 . S
C32 O30 1.248 1_455 S
C33 O34 1.264 . S
C33 O41 1.249 . S
O34 C33 1.264 . S
O35 Mg28 1.986 1_655 S
O35 C39 1.246 . S
O36 Mg31 2.032 . S
O36 C39 1.259 . S
O37 Mg28 2.114 . S
O37 C40 1.252 . S
O38 Mg28 2.251 1_655 S
O38 Mg31 2.079 . S
O38 C40 1.273 1_655 S
C39 O35 1.246 . S
C39 O36 1.259 . S
C40 O37 1.252 . S
C40 O38 1.273 1_455 S
O41 Mg28 2.010 . S
O41 C33 1.249 . S
Mg42 O43 2.028 . S
Mg42 O49 1.986 1_545 S
Mg42 O51 2.114 . S
Mg42 O52 2.251 1_545 S
Mg42 O55 2.010 . S
O43 Mg42 2.028 . S
O43 C46 1.250 1_545 S
O44 Mg45 2.028 . S
O44 C46 1.248 . S
Mg45 O44 2.028 . S
Mg45 O50 2.032 . S
Mg45 O52 2.079 . S
C46 O43 1.250 1_565 S
C46 O44 1.248 . S
C47 O48 1.264 . S
C47 O55 1.249 . S
O48 C47 1.264 . S
O49 Mg42 1.986 1_565 S
O49 C53 1.246 . S
O50 Mg45 2.032 . S
O50 C53 1.259 . S
O51 Mg42 2.114 . S
O51 C54 1.252 . S
O52 Mg42 2.251 1_565 S
O52 Mg45 2.079 . S
O52 C54 1.273 1_565 S
C53 O49 1.246 . S
C53 O50 1.259 . S
C54 O51 1.252 . S
C54 O52 1.273 1_545 S
O55 Mg42 2.010 . S
O55 C47 1.249 . S
Mg56 O57 2.028 . S
Mg56 O63 1.986 . S
Mg56 O65 2.114 . S
Mg56 O66 2.251 . S
Mg56 O69 2.010 . S
O57 Mg56 2.028 . S
O57 C60 1.250 . S
O58 Mg59 2.028 . S
O58 C60 1.248 . S
Mg59 O58 2.028 . S
Mg59 O64 2.032 . S
Mg59 O66 2.079 . S
C60 O57 1.250 . S
C60 O58 1.248 . S
C61 O62 1.264 . S
C61 O69 1.249 . S
O62 C61 1.264 . S
O63 Mg56 1.986 . S
O63 C67 1.246 . S
O64 Mg59 2.032 . S
O64 C67 1.259 . S
O65 Mg56 2.114 . S
O65 C68 1.252 . S
O66 Mg56 2.251 . S
O66 Mg59 2.079 . S
O66 C68 1.273 . S
C67 O63 1.246 . S
C67 O64 1.259 . S
C68 O65 1.252 . S
C68 O66 1.273 . S
O69 Mg56 2.010 . S
O69 C61 1.249 . S
Mg70 O71 2.028 1_556 S
Mg70 O77 1.986 . S
Mg70 O79 2.114 1_455 S
Mg70 O80 2.251 . S
Mg70 O83 2.010 1_455 S
O71 Mg70 2.028 1_554 S
O71 C74 1.250 . S
O72 Mg73 2.028 1_554 S
O72 C74 1.248 . S
Mg73 O72 2.028 1_556 S
Mg73 O78 2.032 . S
Mg73 O80 2.079 . S
C74 O71 1.250 . S
C74 O72 1.248 . S
C75 O76 1.264 . S
C75 O83 1.249 . S
O76 C75 1.264 . S
O77 Mg70 1.986 . S
O77 C81 1.246 . S
O78 Mg73 2.032 . S
O78 C81 1.259 . S
O79 Mg70 2.114 1_655 S
O79 C82 1.252 1_655 S
O80 Mg70 2.251 . S
O80 Mg73 2.079 . S
O80 C82 1.273 . S
C81 O77 1.246 . S
C81 O78 1.259 . S
C82 O79 1.252 1_455 S
C82 O80 1.273 . S
O83 Mg70 2.010 1_655 S
O83 C75 1.249 . S
C4 C54 1.346 . S
C18 C68 1.346 . S
C82 C32 1.346 . S
C12 C46 1.344 . S
C26 C60 1.346 1_554 S
C74 C40 1.346 . S
C25 C5 1.608 . S
C39 C19 1.608 . S
C33 C53 1.608 . S
C67 C47 1.608 . S
C81 C61 1.608 . S
C75 C11 1.608 1_556 S
