# Generated by pormake.
# Topology pcu, (6)-cn, num edge types: 1
# Building blocks:
#     Node 0, Type 0, BuildingBlock: JUFBIX_clean_sbu_0, # of connection points: 6
#     Edge 1, Type (0, 0), BuildingBlock: TEMPAE_clean_linker_10, # of connection points: 2
#     Edge 2, Type (0, 0), BuildingBlock: TEMPAE_clean_linker_10, # of connection points: 2
#     Edge 3, Type (0, 0), BuildingBlock: TEMPAE_clean_linker_10, # of connection points: 2
# Relax obj value: 0.000
# Max RMSD: 0.000
# Mean RMSD: 0.000
data_MOF--net-pcu--node1-JUFBIX_clean_sbu_0--edge1-TEMPAE_clean_linker_10
_symmetry_space_group_name_H-M    P1
_symmetry_Int_Tables_number       1
_symmetry_cell_setting            triclinic
loop_
_symmetry_equiv_pos_as_xyz
'x, y, z'
_cell_length_a     15.118886
_cell_length_b     19.918805
_cell_length_c     15.116525
_cell_angle_alpha  84.19542
_cell_angle_beta   92.616071
_cell_angle_gamma 100.37108
loop_
_atom_site_label
_atom_site_type_symbol
_atom_site_fract_x
_atom_site_fract_y
_atom_site_fract_z
_atom_type_partial_charge
Co0 Co 0.98773 0.97596 0.01588 0.0
C1 C 1.00663 0.041 0.17391 0.0
Co2 Co 0.01683 0.0896 0.9988 0.0
C3 C 0.98797 0.82956 0.00966 0.0
C4 C 0.89297 0.85111 0.09895 0.0
N5 N 0.95507 0.88166 0.03941 0.0
N6 N 0.94936 0.76806 0.04945 0.0
C7 C 0.88955 0.78154 0.10545 0.0
H8 H 0.0412 0.83671 0.96224 0.0
H9 H 0.85384 0.87795 0.13685 0.0
C10 C 0.99679 1.02468 0.84076 0.0
N11 N 0.05008 0.18393 0.97603 0.0
C12 C 0.01555 0.2358 1.00432 0.0
C13 C 0.11928 0.21503 0.92475 0.0
N14 N 0.0615 0.29775 0.97339 0.0
C15 C 0.12676 0.28477 0.92346 0.0
C16 C 0.1682 1.02476 0.0139 0.0
O17 O 0.98368 0.96892 0.89124 0.0
O18 O 0.0121 0.08163 0.8746 0.0
O19 O 0.14031 0.08154 0.00527 0.0
O20 O 0.11168 0.96906 0.01975 0.0
O21 O 0.02088 0.09674 0.12356 0.0
H22 H 0.16174 0.18859 0.89021 0.0
H23 H 0.95883 0.22834 0.04765 0.0
O24 O 0.99207 0.98416 0.13997 0.0
O25 O 0.86436 0.98378 0.01194 0.0
O26 O 0.89271 0.09637 0.99312 0.0
C27 C 0.83648 0.04057 1.00203 0.0
H28 H 0.84671 0.7437 0.14837 0.0
H29 H 0.17555 0.32309 0.88749 0.0
C30 C 0.06795 0.08483 0.31737 0.0
C31 C 1.00364 0.04094 0.27101 0.0
C32 C 0.06823 0.08129 0.41072 0.0
C33 C 1.00047 0.03461 0.45787 0.0
C34 C 0.93385 0.99168 0.41065 0.0
C35 C 0.93732 0.99446 0.31785 0.0
C36 C 0.14189 0.12645 0.45896 0.0
C37 C 0.85855 0.94314 0.45802 0.0
C38 C 0.03571 0.97843 0.70307 0.0
C39 C 0.99453 1.02457 0.74338 0.0
C40 C 0.03971 0.98193 0.60999 0.0
C41 C 0.99853 1.03103 0.55653 0.0
C42 C 0.95451 0.07632 0.59735 0.0
C43 C 0.95461 0.0734 0.6904 0.0
C44 C 0.08953 0.93414 0.56892 0.0
C45 C 0.90687 0.12759 0.54281 0.0
H46 H 0.11965 0.12024 0.28082 0.0
H47 H 0.8872 0.96089 0.28152 0.0
H48 H 0.1125 0.16112 0.49751 0.0
H49 H 0.17798 0.09437 0.50716 0.0
H50 H 0.19136 0.15809 0.41272 0.0
H51 H 0.80973 0.91566 0.41102 0.0
H52 H 0.88646 0.90465 0.50392 0.0
H53 H 0.82193 0.97185 0.49889 0.0
H54 H 0.06746 0.94126 0.7444 0.0
H55 H 0.92239 0.10884 0.72197 0.0
H56 H 0.14322 0.96432 0.52615 0.0
H57 H 0.04299 0.90122 0.52574 0.0
H58 H 0.12057 0.90063 0.61985 0.0
H59 H 0.95578 0.16445 0.50152 0.0
H60 H 0.87222 0.15681 0.58494 0.0
H61 H 0.8564 0.10083 0.49672 0.0
C62 C 0.32479 0.0768 0.05481 0.0
C63 C 0.26569 1.02476 0.0158 0.0
C64 C 0.41811 0.07975 0.05441 0.0
C65 C 0.45314 1.03086 0.01109 0.0
C66 C 0.39359 0.9784 0.97097 0.0
C67 C 0.30027 0.97526 0.97519 0.0
C68 C 0.47914 0.13495 0.10071 0.0
C69 C 0.42848 0.9265 0.92209 0.0
C70 C 0.69665 0.08049 0.94132 0.0
C71 C 0.73947 0.04053 0.00509 0.0
C72 C 0.60293 0.07682 0.94128 0.0
C73 C 0.5521 0.03428 0.00878 0.0
C74 C 0.59598 0.99542 0.0748 0.0
C75 C 0.68899 0.99799 0.07104 0.0
C76 C 0.55812 0.11736 0.86823 0.0
C77 C 0.5449 0.95157 0.1498 0.0
H78 H 0.29781 0.11489 0.08662 0.0
H79 H 0.25439 0.93551 0.94414 0.0
H80 H 0.5233 0.11138 0.15067 0.0
H81 H 0.52344 0.16877 0.05187 0.0
H82 H 0.4409 0.16704 0.13475 0.0
H83 H 0.37334 0.8904 0.89202 0.0
H84 H 0.47336 0.95326 0.86856 0.0
H85 H 0.46908 0.89646 0.9682 0.0
H86 H 0.73605 0.11281 0.88992 0.0
H87 H 0.72275 0.96748 0.12066 0.0
H88 H 0.52397 0.15459 0.89701 0.0
H89 H 0.50572 0.08238 0.83314 0.0
H90 H 0.60677 0.14583 0.81884 0.0
H91 H 0.50794 0.98323 0.1859 0.0
H92 H 0.58987 0.92709 0.19806 0.0
H93 H 0.49425 0.91074 0.12276 0.0
C94 C 0.97071 0.65333 0.11289 0.0
C95 C 0.96953 0.70155 0.03878 0.0
C96 C 0.98643 0.58716 0.1039 0.0
C97 C 0.99968 0.56834 0.01835 0.0
C98 C 0.99893 0.61696 0.94315 0.0
C99 C 0.9848 0.68338 0.95445 0.0
C100 C 0.98895 0.53745 0.18597 0.0
C101 C 0.01162 0.59845 0.85073 0.0
C102 C 0.11792 0.4179 0.99977 0.0
C103 C 0.04527 0.36452 0.98866 0.0
C104 C 0.10403 0.48431 0.01029 0.0
C105 C 0.01522 0.49793 0.00796 0.0
C106 C 0.94144 0.4441 0.99704 0.0
C107 C 0.95739 0.37773 0.98846 0.0
C108 C 0.18436 0.53984 0.02403 0.0
C109 C 0.84584 0.45688 0.99302 0.0
H110 H 0.96007 0.66778 0.17826 0.0
H111 H 0.98308 0.72059 0.8972 0.0
H112 H 0.93541 0.49187 0.18073 0.0
H113 H 0.05428 0.51915 0.19157 0.0
H114 H 0.97959 0.56077 0.24785 0.0
H115 H 1.0081 0.64187 0.79919 0.0
H116 H 0.07774 0.58226 0.84726 0.0
H117 H 0.95911 0.5544 0.8349 0.0
H118 H 0.18584 0.40737 1.00085 0.0
H119 H 0.90138 0.33654 0.97887 0.0
H120 H 0.17847 0.56245 0.08718 0.0
H121 H 0.18646 0.58172 0.9695 0.0
H122 H 0.24889 0.52036 0.0262 0.0
H123 H 0.83061 0.47671 0.05554 0.0
H124 H 0.79612 0.40975 0.98286 0.0
H125 H 0.83734 0.4966 0.93785 0.0
loop_
_geom_bond_atom_site_label_1
_geom_bond_atom_site_label_2
_geom_bond_distance
_geom_bond_site_symmetry_2
_ccdc_geom_bond_type
Co0 N5 2.057 1_556 S
Co0 O17 2.021 . S
Co0 O20 2.062 1_655 S
Co0 O24 2.117 1_556 S
Co0 O25 2.020 . S
C1 O21 1.259 . S
C1 O24 1.258 1_445 S
Co2 N11 2.057 1_554 S
Co2 O18 2.117 1_554 S
Co2 O19 2.020 . S
Co2 O21 2.021 . S
Co2 O26 2.062 1_455 S
C3 N5 1.316 1_556 S
C3 N6 1.347 1_556 S
C3 H8 0.931 . S
C4 N5 1.375 . S
C4 C7 1.350 . S
C4 H9 0.930 . S
N5 Co0 2.057 1_554 S
N5 C3 1.316 1_554 S
N5 C4 1.375 . S
N6 C3 1.347 1_554 S
N6 C7 1.373 . S
C7 C4 1.350 . S
C7 N6 1.373 . S
C7 H28 0.931 . S
H8 C3 0.931 . S
H9 C4 0.930 . S
C10 O17 1.259 . S
C10 O18 1.258 1_665 S
N11 Co2 2.057 1_556 S
N11 C12 1.316 1_556 S
N11 C13 1.375 . S
C12 N11 1.316 1_554 S
C12 N14 1.347 1_554 S
C12 H23 0.931 . S
C13 N11 1.375 . S
C13 C15 1.350 . S
C13 H22 0.930 . S
N14 C12 1.347 1_556 S
N14 C15 1.373 . S
C15 C13 1.350 . S
C15 N14 1.373 . S
C15 H29 0.931 . S
C16 O19 1.264 1_556 S
C16 O20 1.248 1_545 S
O17 Co0 2.021 . S
O17 C10 1.259 . S
O18 Co2 2.117 1_556 S
O18 C10 1.258 1_445 S
O19 Co2 2.020 . S
O19 C16 1.264 1_554 S
O20 Co0 2.062 1_455 S
O20 C16 1.248 1_565 S
O21 C1 1.259 . S
O21 Co2 2.021 . S
H22 C13 0.930 . S
H23 C12 0.931 . S
O24 Co0 2.117 1_554 S
O24 C1 1.258 1_665 S
O25 Co0 2.020 . S
O25 C27 1.260 1_556 S
O26 Co2 2.062 1_655 S
O26 C27 1.251 1_545 S
C27 O25 1.260 1_554 S
C27 O26 1.251 1_565 S
H28 C7 0.931 . S
H29 C15 0.931 . S
C30 C31 1.391 1_455 S
C30 C32 1.394 . S
C30 H46 0.931 . S
C31 C30 1.391 1_655 S
C31 C35 1.376 1_545 S
C32 C30 1.394 . S
C32 C33 1.369 1_455 S
C32 C36 1.531 . S
C33 C32 1.369 1_655 S
C33 C34 1.410 1_545 S
C33 C41 1.503 . S
C34 C33 1.410 1_565 S
C34 C35 1.392 . S
C34 C37 1.511 . S
C35 C31 1.376 1_565 S
C35 C34 1.392 . S
C35 H47 0.929 . S
C36 C32 1.531 . S
C36 H48 0.960 . S
C36 H49 0.962 . S
C36 H50 0.960 . S
C37 C34 1.511 . S
C37 H51 0.961 . S
C37 H52 0.961 . S
C37 H53 0.961 . S
C38 C39 1.370 1_465 S
C38 C40 1.363 . S
C38 H54 0.931 . S
C39 C38 1.370 1_645 S
C39 C43 1.408 . S
C40 C38 1.363 . S
C40 C41 1.370 1_465 S
C40 C44 1.524 . S
C41 C33 1.503 . S
C41 C40 1.370 1_645 S
C41 C42 1.403 . S
C42 C41 1.403 . S
C42 C43 1.404 . S
C42 C45 1.539 . S
C43 C39 1.408 . S
C43 C42 1.404 . S
C43 H55 0.930 . S
C44 C40 1.524 . S
C44 H56 0.956 . S
C44 H57 0.961 . S
C44 H58 0.961 . S
C45 C42 1.539 . S
C45 H59 0.958 . S
C45 H60 0.961 . S
C45 H61 0.960 . S
H46 C30 0.931 . S
H47 C35 0.929 . S
H48 C36 0.960 . S
H49 C36 0.962 . S
H50 C36 0.960 . S
H51 C37 0.961 . S
H52 C37 0.961 . S
H53 C37 0.961 . S
H54 C38 0.931 . S
H55 C43 0.930 . S
H56 C44 0.956 . S
H57 C44 0.961 . S
H58 C44 0.961 . S
H59 C45 0.958 . S
H60 C45 0.961 . S
H61 C45 0.960 . S
C62 C63 1.391 1_545 S
C62 C64 1.394 . S
C62 H78 0.931 . S
C63 C62 1.391 1_565 S
C63 C67 1.376 . S
C64 C62 1.394 . S
C64 C65 1.379 . S
C64 C68 1.531 . S
C65 C64 1.379 . S
C65 C66 1.401 1_545 S
C65 C73 1.502 . S
C66 C65 1.401 1_565 S
C66 C67 1.392 . S
C66 C69 1.511 . S
C67 C63 1.376 . S
C67 C66 1.392 . S
C67 H79 0.929 . S
C68 C64 1.531 . S
C68 H80 0.960 . S
C68 H81 0.962 1_554 S
C68 H82 0.960 . S
C69 C66 1.511 . S
C69 H83 0.961 1_554 S
C69 H84 0.961 1_554 S
C69 H85 0.961 . S
C70 C71 1.370 1_546 S
C70 C72 1.363 . S
C70 H86 0.931 . S
C71 C70 1.370 1_564 S
C71 C75 1.408 . S
C72 C70 1.363 . S
C72 C73 1.370 1_556 S
C72 C76 1.524 . S
C73 C65 1.502 . S
C73 C72 1.370 1_554 S
C73 C74 1.402 1_545 S
C74 C73 1.402 1_565 S
C74 C75 1.406 . S
C74 C77 1.539 . S
C75 C71 1.408 . S
C75 C74 1.406 . S
C75 H87 0.930 . S
C76 C72 1.524 . S
C76 H88 0.956 . S
C76 H89 0.961 1_545 S
C76 H90 0.961 1_545 S
C77 C74 1.539 . S
C77 H91 0.958 1_565 S
C77 H92 0.961 . S
C77 H93 0.960 . S
H78 C62 0.931 . S
H79 C67 0.929 . S
H80 C68 0.960 . S
H81 C68 0.962 1_556 S
H82 C68 0.960 . S
H83 C69 0.961 1_556 S
H84 C69 0.961 1_556 S
H85 C69 0.961 . S
H86 C70 0.931 . S
H87 C75 0.930 . S
H88 C76 0.956 . S
H89 C76 0.961 1_565 S
H90 C76 0.961 1_565 S
H91 C77 0.958 1_545 S
H92 C77 0.961 . S
H93 C77 0.960 . S
C94 C95 1.391 1_455 S
C94 C96 1.394 . S
C94 H110 0.931 . S
C95 C94 1.391 1_655 S
C95 C99 1.376 1_554 S
C96 C94 1.394 . S
C96 C97 1.369 1_455 S
C96 C100 1.531 . S
C97 C96 1.369 1_655 S
C97 C98 1.410 1_554 S
C97 C105 1.503 . S
C98 C97 1.410 1_556 S
C98 C99 1.392 . S
C98 C101 1.511 . S
C99 C95 1.376 1_556 S
C99 C98 1.392 . S
C99 H111 0.929 . S
C100 C96 1.531 . S
C100 H112 0.960 . S
C100 H113 0.962 . S
C100 H114 0.960 . S
C101 C98 1.511 . S
C101 H115 0.961 . S
C101 H116 0.961 . S
C101 H117 0.961 . S
C102 C103 1.367 1_456 S
C102 C104 1.363 . S
C102 H118 0.931 . S
C103 C102 1.367 1_654 S
C103 C107 1.413 . S
C104 C102 1.363 . S
C104 C105 1.370 1_456 S
C104 C108 1.524 . S
C105 C97 1.503 . S
C105 C104 1.370 1_654 S
C105 C106 1.403 . S
C106 C105 1.403 . S
C106 C107 1.404 . S
C106 C109 1.539 . S
C107 C103 1.413 . S
C107 C106 1.404 . S
C107 H119 0.930 . S
C108 C104 1.524 . S
C108 H120 0.956 . S
C108 H121 0.961 . S
C108 H122 0.961 . S
C109 C106 1.539 . S
C109 H123 0.958 . S
C109 H124 0.961 . S
C109 H125 0.960 . S
H110 C94 0.931 . S
H111 C99 0.929 . S
H112 C100 0.960 . S
H113 C100 0.962 . S
H114 C100 0.960 . S
H115 C101 0.961 . S
H116 C101 0.961 . S
H117 C101 0.961 . S
H118 C102 0.931 . S
H119 C107 0.930 . S
H120 C108 0.956 . S
H121 C108 0.961 . S
H122 C108 0.961 . S
H123 C109 0.958 . S
H124 C109 0.961 . S
H125 C109 0.960 . S
C31 C1 1.488 1_655 S
C39 C10 1.496 1_545 S
C63 C16 1.495 1_564 S
C71 C27 1.499 . S
C95 N6 1.440 . S
C103 N14 1.469 1_654 S
