# Generated by pormake.
# Topology una, (4)-cn, num edge types: 1
# Building blocks:
#     Node 0, Type 0, BuildingBlock: GALJAG_clean_sbu_0, # of connection points: 4
#     Node 1, Type 0, BuildingBlock: GALJAG_clean_sbu_0, # of connection points: 4
#     Node 2, Type 0, BuildingBlock: GALJAG_clean_sbu_0, # of connection points: 4
#     Node 3, Type 0, BuildingBlock: GALJAG_clean_sbu_0, # of connection points: 4
#     Node 4, Type 0, BuildingBlock: GALJAG_clean_sbu_0, # of connection points: 4
#     Node 5, Type 0, BuildingBlock: GALJAG_clean_sbu_0, # of connection points: 4
#     Node 6, Type 0, BuildingBlock: GALJAG_clean_sbu_0, # of connection points: 4
#     Node 7, Type 0, BuildingBlock: GALJAG_clean_sbu_0, # of connection points: 4
#     Node 8, Type 0, BuildingBlock: GALJAG_clean_sbu_0, # of connection points: 4
#     Node 9, Type 0, BuildingBlock: GALJAG_clean_sbu_0, # of connection points: 4
#     Node 10, Type 0, BuildingBlock: GALJAG_clean_sbu_0, # of connection points: 4
#     Node 11, Type 0, BuildingBlock: GALJAG_clean_sbu_0, # of connection points: 4
#     Edge 12, Type (0, 0), None
#     Edge 13, Type (0, 0), None
#     Edge 14, Type (0, 0), None
#     Edge 15, Type (0, 0), None
#     Edge 16, Type (0, 0), None
#     Edge 17, Type (0, 0), None
#     Edge 18, Type (0, 0), None
#     Edge 19, Type (0, 0), None
#     Edge 20, Type (0, 0), None
#     Edge 21, Type (0, 0), None
#     Edge 22, Type (0, 0), None
#     Edge 23, Type (0, 0), None
#     Edge 24, Type (0, 0), None
#     Edge 25, Type (0, 0), None
#     Edge 26, Type (0, 0), None
#     Edge 27, Type (0, 0), None
#     Edge 28, Type (0, 0), None
#     Edge 29, Type (0, 0), None
#     Edge 30, Type (0, 0), None
#     Edge 31, Type (0, 0), None
#     Edge 32, Type (0, 0), None
#     Edge 33, Type (0, 0), None
#     Edge 34, Type (0, 0), None
#     Edge 35, Type (0, 0), None
# Relax obj value: 0.044
# Max RMSD: 0.039
# Mean RMSD: 0.039
data_MOF--net-una--node1-GALJAG_clean_sbu_0--edge1-none
_symmetry_space_group_name_H-M    P1
_symmetry_Int_Tables_number       1
_symmetry_cell_setting            triclinic
loop_
_symmetry_equiv_pos_as_xyz
'x, y, z'
_cell_length_a     26.795118
_cell_length_b     26.795486
_cell_length_c     9.5365342
_cell_angle_alpha  89.996619
_cell_angle_beta   90.005073
_cell_angle_gamma 120.00104
loop_
_atom_site_label
_atom_site_type_symbol
_atom_site_fract_x
_atom_site_fract_y
_atom_site_fract_z
_atom_type_partial_charge
In0 In 0.14761 0.45373 0.02067 0.0
O1 O 0.05094 0.38525 0.02806 0.0
O2 O 0.08949 0.41844 0.82927 0.0
C3 C 0.21262 0.44374 0.22483 0.0
C4 C 0.13586 0.5444 0.09053 0.0
C5 C 0.21987 0.45712 0.83009 0.0
O6 O 0.16604 0.39999 0.18504 0.0
O7 O 0.22304 0.49049 0.16875 0.0
O8 O 0.22049 0.50261 0.86843 0.0
O9 O 0.18255 0.41063 0.88614 0.0
C10 C 0.04445 0.38544 0.89613 0.0
O11 O 0.15231 0.53893 0.97042 0.0
O12 O 0.12448 0.50388 0.1754 0.0
In13 In 0.70466 0.14223 0.18734 0.0
O14 O 0.67646 0.04556 0.19473 0.0
O15 O 0.68183 0.08411 -0.00406 0.0
C16 C 0.77966 0.20725 0.39148 0.0
C17 C 0.60223 0.13048 0.2572 0.0
C18 C 0.77352 0.21449 -0.00325 0.0
O19 O 0.77683 0.16066 0.35171 0.0
O20 O 0.74332 0.21766 0.3354 0.0
O21 O 0.72865 0.2151 0.03508 0.0
O22 O 0.78269 0.17717 0.05281 0.0
C23 C 0.66978 0.03907 0.0628 0.0
O24 O 0.62414 0.14692 0.13708 0.0
O25 O 0.63137 0.1191 0.34207 0.0
In26 In 0.5732 0.69928 0.35404 0.0
O27 O 0.64167 0.67107 0.36142 0.0
O28 O 0.60848 0.67645 0.16263 0.0
C29 C 0.58319 0.77428 0.55818 0.0
C30 C 0.48252 0.59685 0.4239 0.0
C31 C 0.5698 0.76814 0.16344 0.0
O32 O 0.62694 0.77145 0.5184 0.0
O33 O 0.53643 0.73794 0.50211 0.0
O34 O 0.52431 0.72327 0.20178 0.0
O35 O 0.61629 0.77731 0.21951 0.0
C36 C 0.64147 0.6644 0.22948 0.0
O37 O 0.48798 0.61877 0.30378 0.0
O38 O 0.52304 0.62599 0.50877 0.0
In39 In 0.88468 0.56782 0.52071 0.0
O40 O 0.87998 0.48261 0.47044 0.0
O41 O 0.90782 0.51766 0.67543 0.0
C42 C 0.81242 0.56442 0.3301 0.0
C43 C 0.98785 0.6361 0.39615 0.0
C44 C 0.81967 0.57781 0.72485 0.0
O45 O 0.8118 0.51894 0.36846 0.0
O46 O 0.84975 0.61091 0.38615 0.0
O47 O 0.86625 0.62156 0.68506 0.0
O48 O 0.80926 0.53105 0.66878 0.0
C49 C 0.89643 0.47714 0.59055 0.0
O50 O 0.98137 0.63629 0.52808 0.0
O51 O 0.9428 0.60311 0.3293 0.0
In52 In 0.32764 0.87931 0.68736 0.0
O53 O 0.40815 0.87461 0.6371 0.0
O54 O 0.40093 0.90244 0.84208 0.0
C55 C 0.25877 0.80704 0.49677 0.0
C56 C 0.36252 0.98247 0.5628 0.0
C57 C 0.25264 0.81429 0.89151 0.0
O58 O 0.30364 0.80643 0.53513 0.0
O59 O 0.24961 0.84437 0.55281 0.0
O60 O 0.25547 0.86087 0.85171 0.0
O61 O 0.28898 0.80388 0.83545 0.0
C62 C 0.43007 0.89106 0.75721 0.0
O63 O 0.35585 0.97598 0.69474 0.0
O64 O 0.35046 0.93742 0.49595 0.0
In65 In 0.4591 0.32225 0.85399 0.0
O66 O 0.39062 0.35045 0.86138 0.0
O67 O 0.42381 0.34508 0.66259 0.0
C68 C 0.44911 0.24725 0.05813 0.0
C69 C 0.54977 0.42468 0.92385 0.0
C70 C 0.4625 0.25339 0.66339 0.0
O71 O 0.40536 0.25008 0.01834 0.0
O72 O 0.49587 0.28359 0.00207 0.0
O73 O 0.50798 0.29826 0.70175 0.0
O74 O 0.41601 0.24423 0.71943 0.0
C75 C 0.39081 0.35713 0.72945 0.0
O76 O 0.54431 0.40277 0.80374 0.0
O77 O 0.50926 0.39554 0.00872 0.0
In78 In 0.5732 0.8793 0.86877 0.0
O79 O 0.48799 0.8746 0.919 0.0
O80 O 0.52305 0.90244 0.71402 0.0
C81 C 0.5698 0.80704 0.05939 0.0
C82 C 0.64146 0.98246 -0.0067 0.0
C83 C 0.58319 0.81429 0.66463 0.0
O84 O 0.52431 0.80642 0.02101 0.0
O85 O 0.61629 0.84437 0.00335 0.0
O86 O 0.62694 0.86087 0.70443 0.0
O87 O 0.53643 0.80388 0.72069 0.0
C88 C 0.48252 0.89104 0.79887 0.0
O89 O 0.64168 0.97597 0.86137 0.0
O90 O 0.60847 0.93742 0.06017 0.0
In91 In 0.70466 0.56782 0.03542 0.0
O92 O 0.62415 0.4826 0.08564 0.0
O93 O 0.63137 0.51767 0.88068 0.0
C94 C 0.77352 0.56442 0.22604 0.0
C95 C 0.66975 0.63607 0.15997 0.0
C96 C 0.77966 0.57781 0.83129 0.0
O97 O 0.72865 0.51894 0.18768 0.0
O98 O 0.78268 0.61091 0.16999 0.0
O99 O 0.77683 0.62156 0.87108 0.0
O100 O 0.74332 0.53105 0.88736 0.0
C101 C 0.60224 0.47714 0.96552 0.0
O102 O 0.67646 0.6363 0.02804 0.0
O103 O 0.6818 0.60308 0.22683 0.0
In104 In 0.14761 0.69928 0.2021 0.0
O105 O 0.05094 0.67109 0.19471 0.0
O106 O 0.08949 0.67642 0.39351 0.0
C107 C 0.21263 0.77428 -0.00204 0.0
C108 C 0.13588 0.59687 0.1322 0.0
C109 C 0.21987 0.76814 0.39271 0.0
O110 O 0.16605 0.77145 0.03774 0.0
O111 O 0.22304 0.73794 0.05404 0.0
O112 O 0.22049 0.72327 0.35436 0.0
O113 O 0.18255 0.7773 0.33665 0.0
C114 C 0.04445 0.66437 0.32664 0.0
O115 O 0.15232 0.61877 0.25233 0.0
O116 O 0.12447 0.626 0.04735 0.0
In117 In 0.4591 0.14223 0.36875 0.0
O118 O 0.54432 0.14694 0.41898 0.0
O119 O 0.50924 0.11909 0.21401 0.0
C120 C 0.4625 0.21449 0.55935 0.0
C121 C 0.39085 0.03907 0.49329 0.0
C122 C 0.44911 0.20724 0.16459 0.0
O123 O 0.50799 0.21511 0.521 0.0
O124 O 0.41601 0.17717 0.50329 0.0
O125 O 0.40536 0.16067 0.2044 0.0
O126 O 0.49587 0.21766 0.22067 0.0
C127 C 0.54978 0.1305 0.29886 0.0
O128 O 0.39062 0.04556 0.36137 0.0
O129 O 0.42384 0.08411 0.56016 0.0
In130 In 0.32763 0.45372 0.53545 0.0
O131 O 0.40815 0.53893 0.58568 0.0
O132 O 0.40091 0.50387 0.3807 0.0
C133 C 0.25877 0.45712 0.72605 0.0
C134 C 0.36253 0.38546 0.65996 0.0
C135 C 0.25263 0.44373 0.33129 0.0
O136 O 0.30364 0.50261 0.68769 0.0
O137 O 0.24961 0.41063 0.67 0.0
O138 O 0.25545 0.39998 0.3711 0.0
O139 O 0.28897 0.49049 0.38736 0.0
C140 C 0.43005 0.5444 0.46555 0.0
O141 O 0.35582 0.38524 0.52803 0.0
O142 O 0.35048 0.41844 0.72684 0.0
In143 In 0.88468 0.32225 0.70209 0.0
O144 O 0.87998 0.40277 0.75233 0.0
O145 O 0.90781 0.39554 0.54735 0.0
C146 C 0.81242 0.25339 0.8927 0.0
C147 C 0.98784 0.35716 0.82662 0.0
C148 C 0.81967 0.24726 0.49794 0.0
O149 O 0.8118 0.29826 0.85432 0.0
O150 O 0.84975 0.24423 0.83666 0.0
O151 O 0.86625 0.25008 0.53776 0.0
O152 O 0.80925 0.28359 0.554 0.0
C153 C 0.89641 0.42467 0.63221 0.0
O154 O 0.98135 0.35045 0.6947 0.0
O155 O 0.9428 0.3451 0.8935 0.0
loop_
_geom_bond_atom_site_label_1
_geom_bond_atom_site_label_2
_geom_bond_distance
_geom_bond_site_symmetry_2
_ccdc_geom_bond_type
In0 O1 2.294 . S
In0 O2 2.326 1_554 S
In0 O6 2.266 . S
In0 O7 2.326 . S
In0 O8 2.266 1_554 S
In0 O9 2.326 1_554 S
In0 O11 2.294 . S
In0 O12 2.326 . S
O1 In0 2.294 . S
O1 C10 1.240 1_554 S
O2 In0 2.326 1_556 S
O2 C10 1.252 . S
C3 O6 1.252 . S
C3 O7 1.260 . S
C4 O11 1.240 . S
C4 O12 1.252 . S
C5 O8 1.252 . S
C5 O9 1.260 . S
O6 In0 2.266 . S
O6 C3 1.252 . S
O7 In0 2.326 . S
O7 C3 1.260 . S
O8 In0 2.266 1_556 S
O8 C5 1.252 . S
O9 In0 2.326 1_556 S
O9 C5 1.260 . S
C10 O1 1.240 1_556 S
C10 O2 1.252 . S
O11 In0 2.294 . S
O11 C4 1.240 . S
O12 In0 2.326 . S
O12 C4 1.252 . S
In13 O14 2.294 . S
In13 O15 2.326 . S
In13 O19 2.266 . S
In13 O20 2.326 . S
In13 O21 2.266 . S
In13 O22 2.326 . S
In13 O24 2.294 . S
In13 O25 2.326 . S
O14 In13 2.294 . S
O14 C23 1.240 . S
O15 In13 2.326 . S
O15 C23 1.252 . S
C16 O19 1.252 . S
C16 O20 1.260 . S
C17 O24 1.240 . S
C17 O25 1.252 . S
C18 O21 1.252 . S
C18 O22 1.260 . S
O19 In13 2.266 . S
O19 C16 1.252 . S
O20 In13 2.326 . S
O20 C16 1.260 . S
O21 In13 2.266 . S
O21 C18 1.252 . S
O22 In13 2.326 . S
O22 C18 1.260 . S
C23 O14 1.240 . S
C23 O15 1.252 . S
O24 In13 2.294 . S
O24 C17 1.240 . S
O25 In13 2.326 . S
O25 C17 1.252 . S
In26 O27 2.294 . S
In26 O28 2.326 . S
In26 O32 2.266 . S
In26 O33 2.326 . S
In26 O34 2.266 . S
In26 O35 2.326 . S
In26 O37 2.294 . S
In26 O38 2.326 . S
O27 In26 2.294 . S
O27 C36 1.240 . S
O28 In26 2.326 . S
O28 C36 1.252 . S
C29 O32 1.252 . S
C29 O33 1.260 . S
C30 O37 1.240 . S
C30 O38 1.252 . S
C31 O34 1.252 . S
C31 O35 1.260 . S
O32 In26 2.266 . S
O32 C29 1.252 . S
O33 In26 2.326 . S
O33 C29 1.260 . S
O34 In26 2.266 . S
O34 C31 1.252 . S
O35 In26 2.326 . S
O35 C31 1.260 . S
C36 O27 1.240 . S
C36 O28 1.252 . S
O37 In26 2.294 . S
O37 C30 1.240 . S
O38 In26 2.326 . S
O38 C30 1.252 . S
In39 O40 2.294 . S
In39 O41 2.326 . S
In39 O45 2.266 . S
In39 O46 2.326 . S
In39 O47 2.266 . S
In39 O48 2.326 . S
In39 O50 2.294 . S
In39 O51 2.326 . S
O40 In39 2.294 . S
O40 C49 1.240 . S
O41 In39 2.326 . S
O41 C49 1.252 . S
C42 O45 1.252 . S
C42 O46 1.260 . S
C43 O50 1.240 . S
C43 O51 1.252 . S
C44 O47 1.252 . S
C44 O48 1.260 . S
O45 In39 2.266 . S
O45 C42 1.252 . S
O46 In39 2.326 . S
O46 C42 1.260 . S
O47 In39 2.266 . S
O47 C44 1.252 . S
O48 In39 2.326 . S
O48 C44 1.260 . S
C49 O40 1.240 . S
C49 O41 1.252 . S
O50 In39 2.294 . S
O50 C43 1.240 . S
O51 In39 2.326 . S
O51 C43 1.252 . S
In52 O53 2.294 . S
In52 O54 2.326 . S
In52 O58 2.266 . S
In52 O59 2.326 . S
In52 O60 2.266 . S
In52 O61 2.326 . S
In52 O63 2.294 . S
In52 O64 2.326 . S
O53 In52 2.294 . S
O53 C62 1.240 . S
O54 In52 2.326 . S
O54 C62 1.252 . S
C55 O58 1.252 . S
C55 O59 1.260 . S
C56 O63 1.240 . S
C56 O64 1.252 . S
C57 O60 1.252 . S
C57 O61 1.260 . S
O58 In52 2.266 . S
O58 C55 1.252 . S
O59 In52 2.326 . S
O59 C55 1.260 . S
O60 In52 2.266 . S
O60 C57 1.252 . S
O61 In52 2.326 . S
O61 C57 1.260 . S
C62 O53 1.240 . S
C62 O54 1.252 . S
O63 In52 2.294 . S
O63 C56 1.240 . S
O64 In52 2.326 . S
O64 C56 1.252 . S
In65 O66 2.294 . S
In65 O67 2.326 . S
In65 O71 2.266 1_556 S
In65 O72 2.326 1_556 S
In65 O73 2.266 . S
In65 O74 2.326 . S
In65 O76 2.294 . S
In65 O77 2.326 1_556 S
O66 In65 2.294 . S
O66 C75 1.240 . S
O67 In65 2.326 . S
O67 C75 1.252 . S
C68 O71 1.252 . S
C68 O72 1.260 . S
C69 O76 1.240 . S
C69 O77 1.252 1_556 S
C70 O73 1.252 . S
C70 O74 1.260 . S
O71 In65 2.266 1_554 S
O71 C68 1.252 . S
O72 In65 2.326 1_554 S
O72 C68 1.260 . S
O73 In65 2.266 . S
O73 C70 1.252 . S
O74 In65 2.326 . S
O74 C70 1.260 . S
C75 O66 1.240 . S
C75 O67 1.252 . S
O76 In65 2.294 . S
O76 C69 1.240 . S
O77 In65 2.326 1_554 S
O77 C69 1.252 1_554 S
In78 O79 2.294 . S
In78 O80 2.326 . S
In78 O84 2.266 1_556 S
In78 O85 2.326 1_556 S
In78 O86 2.266 . S
In78 O87 2.326 . S
In78 O89 2.294 . S
In78 O90 2.326 1_556 S
O79 In78 2.294 . S
O79 C88 1.240 . S
O80 In78 2.326 . S
O80 C88 1.252 . S
C81 O84 1.252 . S
C81 O85 1.260 . S
C82 O89 1.240 . S
C82 O90 1.252 1_556 S
C83 O86 1.252 . S
C83 O87 1.260 . S
O84 In78 2.266 1_554 S
O84 C81 1.252 . S
O85 In78 2.326 1_554 S
O85 C81 1.260 . S
O86 In78 2.266 . S
O86 C83 1.252 . S
O87 In78 2.326 . S
O87 C83 1.260 . S
C88 O79 1.240 . S
C88 O80 1.252 . S
O89 In78 2.294 . S
O89 C82 1.240 . S
O90 In78 2.326 1_554 S
O90 C82 1.252 1_554 S
In91 O92 2.294 . S
In91 O93 2.326 1_554 S
In91 O97 2.266 . S
In91 O98 2.326 . S
In91 O99 2.266 1_554 S
In91 O100 2.326 1_554 S
In91 O102 2.294 . S
In91 O103 2.326 . S
O92 In91 2.294 . S
O92 C101 1.240 1_554 S
O93 In91 2.326 1_556 S
O93 C101 1.252 . S
C94 O97 1.252 . S
C94 O98 1.260 . S
C95 O102 1.240 . S
C95 O103 1.252 . S
C96 O99 1.252 . S
C96 O100 1.260 . S
O97 In91 2.266 . S
O97 C94 1.252 . S
O98 In91 2.326 . S
O98 C94 1.260 . S
O99 In91 2.266 1_556 S
O99 C96 1.252 . S
O100 In91 2.326 1_556 S
O100 C96 1.260 . S
C101 O92 1.240 1_556 S
C101 O93 1.252 . S
O102 In91 2.294 . S
O102 C95 1.240 . S
O103 In91 2.326 . S
O103 C95 1.252 . S
In104 O105 2.294 . S
In104 O106 2.326 . S
In104 O110 2.266 . S
In104 O111 2.326 . S
In104 O112 2.266 . S
In104 O113 2.326 . S
In104 O115 2.294 . S
In104 O116 2.326 . S
O105 In104 2.294 . S
O105 C114 1.240 . S
O106 In104 2.326 . S
O106 C114 1.252 . S
C107 O110 1.252 . S
C107 O111 1.260 . S
C108 O115 1.240 . S
C108 O116 1.252 . S
C109 O112 1.252 . S
C109 O113 1.260 . S
O110 In104 2.266 . S
O110 C107 1.252 . S
O111 In104 2.326 . S
O111 C107 1.260 . S
O112 In104 2.266 . S
O112 C109 1.252 . S
O113 In104 2.326 . S
O113 C109 1.260 . S
C114 O105 1.240 . S
C114 O106 1.252 . S
O115 In104 2.294 . S
O115 C108 1.240 . S
O116 In104 2.326 . S
O116 C108 1.252 . S
In117 O118 2.294 . S
In117 O119 2.326 . S
In117 O123 2.266 . S
In117 O124 2.326 . S
In117 O125 2.266 . S
In117 O126 2.326 . S
In117 O128 2.294 . S
In117 O129 2.326 . S
O118 In117 2.294 . S
O118 C127 1.240 . S
O119 In117 2.326 . S
O119 C127 1.252 . S
C120 O123 1.252 . S
C120 O124 1.260 . S
C121 O128 1.240 . S
C121 O129 1.252 . S
C122 O125 1.252 . S
C122 O126 1.260 . S
O123 In117 2.266 . S
O123 C120 1.252 . S
O124 In117 2.326 . S
O124 C120 1.260 . S
O125 In117 2.266 . S
O125 C122 1.252 . S
O126 In117 2.326 . S
O126 C122 1.260 . S
C127 O118 1.240 . S
C127 O119 1.252 . S
O128 In117 2.294 . S
O128 C121 1.240 . S
O129 In117 2.326 . S
O129 C121 1.252 . S
In130 O131 2.294 . S
In130 O132 2.326 . S
In130 O136 2.266 . S
In130 O137 2.326 . S
In130 O138 2.266 . S
In130 O139 2.326 . S
In130 O141 2.294 . S
In130 O142 2.326 . S
O131 In130 2.294 . S
O131 C140 1.240 . S
O132 In130 2.326 . S
O132 C140 1.252 . S
C133 O136 1.252 . S
C133 O137 1.260 . S
C134 O141 1.240 . S
C134 O142 1.252 . S
C135 O138 1.252 . S
C135 O139 1.260 . S
O136 In130 2.266 . S
O136 C133 1.252 . S
O137 In130 2.326 . S
O137 C133 1.260 . S
O138 In130 2.266 . S
O138 C135 1.252 . S
O139 In130 2.326 . S
O139 C135 1.260 . S
C140 O131 1.240 . S
C140 O132 1.252 . S
O141 In130 2.294 . S
O141 C134 1.240 . S
O142 In130 2.326 . S
O142 C134 1.252 . S
In143 O144 2.294 . S
In143 O145 2.326 . S
In143 O149 2.266 . S
In143 O150 2.326 . S
In143 O151 2.266 . S
In143 O152 2.326 . S
In143 O154 2.294 . S
In143 O155 2.326 . S
O144 In143 2.294 . S
O144 C153 1.240 . S
O145 In143 2.326 . S
O145 C153 1.252 . S
C146 O149 1.252 . S
C146 O150 1.260 . S
C147 O154 1.240 . S
C147 O155 1.252 . S
C148 O151 1.252 . S
C148 O152 1.260 . S
O149 In143 2.266 . S
O149 C146 1.252 . S
O150 In143 2.326 . S
O150 C146 1.260 . S
O151 In143 2.266 . S
O151 C148 1.252 . S
O152 In143 2.326 . S
O152 C148 1.260 . S
C153 O144 1.240 . S
C153 O145 1.252 . S
O154 In143 2.294 . S
O154 C147 1.240 . S
O155 In143 2.326 . S
O155 C147 1.252 . S
C3 C135 1.578 . S
C148 C16 1.578 . S
C29 C83 1.578 . S
C44 C96 1.578 . S
C57 C107 1.578 1_556 S
C122 C68 1.578 . S
C4 C108 1.782 . S
C17 C127 1.782 . S
C140 C30 1.782 . S
C49 C153 1.782 . S
C62 C88 1.782 . S
C69 C101 1.782 . S
C133 C5 1.505 . S
C18 C146 1.505 1_554 S
C31 C81 1.505 . S
C42 C94 1.505 . S
C109 C55 1.505 . S
C70 C120 1.505 . S
C10 C147 1.574 1_455 S
C82 C23 1.574 1_566 S
C95 C36 1.574 . S
C114 C43 1.574 1_455 S
C121 C56 1.574 1_545 S
C134 C75 1.574 . S
