# Generated by pormake.
# Topology dmp, (4)-cn, num edge types: 1
# Building blocks:
#     Node 0, Type 0, BuildingBlock: AZAVOO_clean_sbu_0, # of connection points: 4
#     Node 1, Type 0, BuildingBlock: AZAVOO_clean_sbu_0, # of connection points: 4
#     Node 2, Type 0, BuildingBlock: AZAVOO_clean_sbu_0, # of connection points: 4
#     Node 3, Type 0, BuildingBlock: AZAVOO_clean_sbu_0, # of connection points: 4
#     Edge 4, Type (0, 0), None
#     Edge 5, Type (0, 0), None
#     Edge 6, Type (0, 0), None
#     Edge 7, Type (0, 0), None
#     Edge 8, Type (0, 0), None
#     Edge 9, Type (0, 0), None
#     Edge 10, Type (0, 0), None
#     Edge 11, Type (0, 0), None
# Relax obj value: 0.205
# Max RMSD: 0.255
# Mean RMSD: 0.255
data_MOF--net-dmp--node1-AZAVOO_clean_sbu_0--edge1-none
_symmetry_space_group_name_H-M    P1
_symmetry_Int_Tables_number       1
_symmetry_cell_setting            triclinic
loop_
_symmetry_equiv_pos_as_xyz
'x, y, z'
_cell_length_a     19.740412
_cell_length_b     7.1014466
_cell_length_c     7.3268737
_cell_angle_alpha  89.998225
_cell_angle_beta   90.021323
_cell_angle_gamma 102.56208
loop_
_atom_site_label
_atom_site_type_symbol
_atom_site_fract_x
_atom_site_fract_y
_atom_site_fract_z
_atom_type_partial_charge
Mg0 Mg 0.01782 0.11004 0.6764 0.0
O1 O 0.094 0.3628 0.54341 0.0
O2 O 0.14495 0.25199 0.30466 0.0
Mg3 Mg 0.10564 0.92351 0.29979 0.0
C4 C 0.13769 0.38695 0.41192 0.0
C5 C -0.07996 0.43869 0.80665 0.0
O6 O 0.89162 0.50342 0.9486 0.0
O7 O -0.05756 0.06383 0.43321 0.0
O8 O -0.00225 0.9359 0.21571 0.0
O9 O 0.10669 0.08542 0.86348 0.0
O10 O 0.08786 0.94251 0.59521 0.0
C11 C -0.05535 -0.01065 0.27493 0.0
C12 C 0.12858 -0.00874 0.73296 0.0
O13 O -0.04438 0.30971 0.83218 0.0
Mg14 Mg 0.31096 0.84146 0.67644 0.0
O15 O 0.23475 0.58871 0.54344 0.0
O16 O 0.18373 0.69947 0.30468 0.0
Mg17 Mg 0.22305 0.02795 0.2998 0.0
C18 C 0.19105 0.56451 0.41189 0.0
C19 C 0.40869 0.51265 0.80665 0.0
O20 O 0.43719 0.44794 0.94855 0.0
O21 O 0.38628 0.88753 0.43324 0.0
O22 O 0.33091 0.01543 0.21572 0.0
O23 O 0.22215 0.86614 0.86351 0.0
O24 O 0.24091 0.009 0.59522 0.0
C25 C 0.38402 0.96195 0.27494 0.0
C26 C 0.20023 0.96025 0.73296 0.0
O27 O 0.37319 0.64179 0.83224 0.0
Mg28 Mg 0.81082 0.8412 0.75422 0.0
O29 O 0.73465 0.58844 0.88722 0.0
O30 O 0.6837 0.69925 1.12596 0.0
Mg31 Mg 0.72301 0.02773 1.13083 0.0
C32 C 0.69096 0.56428 1.0187 0.0
C33 C 0.90861 0.51256 0.62397 0.0
O34 O -0.06297 0.44781 0.48202 0.0
O35 O 0.88621 0.88741 0.99742 0.0
O36 O 0.8309 0.01533 1.21492 0.0
O37 O 0.72196 0.86582 0.56714 0.0
O38 O 0.74079 0.00873 0.83541 0.0
C39 C 0.884 0.96189 1.1557 0.0
C40 C 0.70007 0.95998 0.69766 0.0
O41 O 0.87303 0.64153 0.59844 0.0
Mg42 Mg 0.51769 0.10977 0.75418 0.0
O43 O 0.59389 0.36253 0.88719 0.0
O44 O 0.64492 0.25177 1.12595 0.0
Mg45 Mg 0.6056 0.92329 1.13083 0.0
C46 C 0.6376 0.38673 1.01873 0.0
C47 C 0.41995 0.43858 0.62397 0.0
O48 O 0.39146 0.50331 0.48208 0.0
O49 O 0.44237 0.06371 0.99738 0.0
O50 O 0.49774 0.93581 1.21491 0.0
O51 O 0.60649 0.0851 0.56711 0.0
O52 O 0.58774 0.94224 0.8354 0.0
C53 C 0.44463 -0.01071 1.15569 0.0
C54 C 0.62842 -0.00901 0.69766 0.0
O55 O 0.45546 0.30945 0.59839 0.0
loop_
_geom_bond_atom_site_label_1
_geom_bond_atom_site_label_2
_geom_bond_distance
_geom_bond_site_symmetry_2
_ccdc_geom_bond_type
Mg0 O1 2.028 . S
Mg0 O7 1.986 . S
Mg0 O9 2.114 . S
Mg0 O10 2.251 1_545 S
Mg0 O13 2.010 . S
O1 Mg0 2.028 . S
O1 C4 1.250 . S
O2 Mg3 2.028 . S
O2 C4 1.248 . S
Mg3 O2 2.028 . S
Mg3 O8 2.032 1_554 S
Mg3 O10 2.079 1_545 S
C4 O1 1.250 . S
C4 O2 1.248 . S
C5 O6 1.264 . S
C5 O13 1.249 1_655 S
O6 C5 1.264 . S
O7 Mg0 1.986 . S
O7 C11 1.246 . S
O8 Mg3 2.032 1_556 S
O8 C11 1.259 1_556 S
O9 Mg0 2.114 . S
O9 C12 1.252 1_545 S
O10 Mg0 2.251 1_565 S
O10 Mg3 2.079 1_565 S
O10 C12 1.273 . S
C11 O7 1.246 . S
C11 O8 1.259 1_554 S
C12 O9 1.252 1_565 S
C12 O10 1.273 . S
O13 Mg0 2.010 . S
O13 C5 1.249 1_455 S
Mg14 O15 2.028 . S
Mg14 O21 1.986 . S
Mg14 O23 2.114 . S
Mg14 O24 2.251 1_565 S
Mg14 O27 2.010 . S
O15 Mg14 2.028 . S
O15 C18 1.250 . S
O16 Mg17 2.028 . S
O16 C18 1.248 . S
Mg17 O16 2.028 . S
Mg17 O22 2.032 1_554 S
Mg17 O24 2.079 1_565 S
C18 O15 1.250 . S
C18 O16 1.248 . S
C19 O20 1.264 . S
C19 O27 1.249 . S
O20 C19 1.264 . S
O21 Mg14 1.986 . S
O21 C25 1.246 . S
O22 Mg17 2.032 1_556 S
O22 C25 1.259 1_556 S
O23 Mg14 2.114 . S
O23 C26 1.252 1_565 S
O24 Mg14 2.251 1_545 S
O24 Mg17 2.079 1_545 S
O24 C26 1.273 . S
C25 O21 1.246 . S
C25 O22 1.259 1_554 S
C26 O23 1.252 1_545 S
C26 O24 1.273 . S
O27 Mg14 2.010 . S
O27 C19 1.249 . S
Mg28 O29 2.028 . S
Mg28 O35 1.986 . S
Mg28 O37 2.114 . S
Mg28 O38 2.251 1_565 S
Mg28 O41 2.010 . S
O29 Mg28 2.028 . S
O29 C32 1.250 . S
O30 Mg31 2.028 . S
O30 C32 1.248 . S
Mg31 O30 2.028 . S
Mg31 O36 2.032 1_556 S
Mg31 O38 2.079 1_565 S
C32 O29 1.250 . S
C32 O30 1.248 . S
C33 O34 1.264 . S
C33 O41 1.249 1_455 S
O34 C33 1.264 . S
O35 Mg28 1.986 . S
O35 C39 1.246 . S
O36 Mg31 2.032 1_554 S
O36 C39 1.259 1_554 S
O37 Mg28 2.114 . S
O37 C40 1.252 1_565 S
O38 Mg28 2.251 1_545 S
O38 Mg31 2.079 1_545 S
O38 C40 1.273 . S
C39 O35 1.246 . S
C39 O36 1.259 1_556 S
C40 O37 1.252 1_545 S
C40 O38 1.273 . S
O41 Mg28 2.010 . S
O41 C33 1.249 1_655 S
Mg42 O43 2.028 . S
Mg42 O49 1.986 . S
Mg42 O51 2.114 . S
Mg42 O52 2.251 1_545 S
Mg42 O55 2.010 . S
O43 Mg42 2.028 . S
O43 C46 1.250 . S
O44 Mg45 2.028 . S
O44 C46 1.248 . S
Mg45 O44 2.028 . S
Mg45 O50 2.032 1_556 S
Mg45 O52 2.079 1_545 S
C46 O43 1.250 . S
C46 O44 1.248 . S
C47 O48 1.264 . S
C47 O55 1.249 . S
O48 C47 1.264 . S
O49 Mg42 1.986 . S
O49 C53 1.246 . S
O50 Mg45 2.032 1_554 S
O50 C53 1.259 1_554 S
O51 Mg42 2.114 . S
O51 C54 1.252 1_545 S
O52 Mg42 2.251 1_565 S
O52 Mg45 2.079 1_565 S
O52 C54 1.273 . S
C53 O49 1.246 . S
C53 O50 1.259 1_556 S
C54 O51 1.252 1_565 S
C54 O52 1.273 . S
O55 Mg42 2.010 . S
O55 C47 1.249 . S
C26 C12 1.731 1_545 S
C4 C18 0.860 . S
C54 C40 1.731 1_565 S
C32 C46 0.860 . S
C11 C39 1.731 1_444 S
C53 C25 1.731 1_546 S
C33 C5 2.873 1_455 S
C19 C47 2.873 . S
