# Generated by pormake.
# Topology bcu, (8)-cn, num edge types: 1
# Building blocks:
#     Node 0, Type 0, BuildingBlock: TAGTUT_clean_sbu_1, # of connection points: 8
#     Node 1, Type 0, BuildingBlock: TAGTUT_clean_sbu_1, # of connection points: 8
#     Edge 2, Type (0, 0), None
#     Edge 3, Type (0, 0), None
#     Edge 4, Type (0, 0), None
#     Edge 5, Type (0, 0), None
#     Edge 6, Type (0, 0), None
#     Edge 7, Type (0, 0), None
#     Edge 8, Type (0, 0), None
#     Edge 9, Type (0, 0), None
# Relax obj value: 0.012
# Max RMSD: 0.067
# Mean RMSD: 0.067
data_MOF--net-bcu--node1-TAGTUT_clean_sbu_1--edge1-none
_symmetry_space_group_name_H-M    P1
_symmetry_Int_Tables_number       1
_symmetry_cell_setting            triclinic
loop_
_symmetry_equiv_pos_as_xyz
'x, y, z'
_cell_length_a     10.53467
_cell_length_b     11.961881
_cell_length_c     10.441825
_cell_angle_alpha  88.310605
_cell_angle_beta   102.80815
_cell_angle_gamma 127.09376
loop_
_atom_site_label
_atom_site_type_symbol
_atom_site_fract_x
_atom_site_fract_y
_atom_site_fract_z
_atom_type_partial_charge
C0 C 0.75494 0.1743 0.22077 0.0
C1 C 0.7601 0.17586 0.82196 0.0
C2 C 0.69629 0.69275 0.82397 0.0
Mg3 Mg 0.01759 0.24489 0.07916 0.0
O4 O 0.90473 0.04773 0.08864 0.0
Mg5 Mg 0.66227 0.91242 1.00796 0.0
Mg6 Mg -0.02073 -0.05241 0.01575 0.0
O7 O 0.05166 0.84655 0.94226 0.0
Mg8 Mg 0.93703 0.64897 0.95111 0.0
Mg9 Mg 0.29368 -0.01952 0.02243 0.0
C10 C 0.25665 0.19987 0.2058 0.0
C11 C 0.2104 0.15097 0.81818 0.0
O12 O 0.65319 0.04907 0.15463 0.0
O13 O 0.90402 0.26388 0.21311 0.0
O14 O 0.66501 0.05206 0.8524 0.0
O15 O 0.90933 0.26546 0.88842 0.0
O16 O 0.25015 0.27578 0.11994 0.0
O17 O 0.23803 0.08917 0.1661 0.0
C18 C 0.74755 0.74346 0.21292 0.0
O19 O 0.8758 0.79271 0.17142 0.0
O20 O 0.65016 0.77277 0.16529 0.0
O21 O 0.30053 0.84284 0.87524 0.0
O22 O 0.04945 0.6283 0.817 0.0
O23 O 0.28941 0.84 0.17743 0.0
C24 C 0.1985 0.7176 0.80917 0.0
O25 O 0.04451 0.62711 0.14165 0.0
O26 O 0.70284 0.61617 0.90902 0.0
C27 C 0.19394 0.71631 0.20792 0.0
O28 O 0.72209 0.80627 0.86599 0.0
O29 O 0.08246 0.1022 0.85996 0.0
O30 O 0.30725 0.12101 0.86548 0.0
C31 C 0.25495 0.67432 0.72075 0.0
C32 C 0.26013 0.67587 0.32195 0.0
C33 C 0.19611 0.19265 0.32403 0.0
Mg34 Mg 0.5176 0.74488 0.57916 0.0
O35 O 0.40475 0.54773 0.58865 0.0
Mg36 Mg 0.16229 0.41243 0.50796 0.0
Mg37 Mg 0.47926 0.44758 0.51574 0.0
O38 O 0.55164 0.34654 0.44224 0.0
Mg39 Mg 0.43702 0.14897 0.45111 0.0
Mg40 Mg 0.79366 0.48046 0.52243 0.0
C41 C 0.75682 0.69997 0.70574 0.0
C42 C 0.7104 0.65097 0.31819 0.0
O43 O 0.15321 0.54909 0.65462 0.0
O44 O 0.40403 0.7639 0.71309 0.0
O45 O 0.16503 0.55207 0.35239 0.0
O46 O 0.40936 0.76546 0.38841 0.0
O47 O 0.75023 0.77588 0.61993 0.0
O48 O 0.73801 0.58915 0.66608 0.0
C49 C 0.24755 0.24346 0.71292 0.0
O50 O 0.37579 0.2927 0.67141 0.0
O51 O 0.15016 0.27278 0.6653 0.0
O52 O 0.80051 0.34282 0.37525 0.0
O53 O 0.54944 0.12828 0.31702 0.0
O54 O 0.78939 0.33999 0.67743 0.0
C55 C 0.69849 0.21758 0.30919 0.0
O56 O 0.54448 0.1271 0.64166 0.0
O57 O 0.20275 0.11604 0.409 0.0
C58 C 0.69391 0.2163 0.70793 0.0
O59 O 0.22211 0.30627 0.36601 0.0
O60 O 0.58247 0.60221 0.35997 0.0
O61 O 0.80725 0.62101 0.36547 0.0
loop_
_geom_bond_atom_site_label_1
_geom_bond_atom_site_label_2
_geom_bond_distance
_geom_bond_site_symmetry_2
_ccdc_geom_bond_type
C0 O12 1.241 . S
C0 O13 1.280 . S
C1 O14 1.277 . S
C1 O15 1.245 . S
C2 O26 1.247 . S
C2 O28 1.289 . S
Mg3 O4 1.926 1_455 S
Mg3 O13 1.984 1_455 S
Mg3 O15 1.988 1_454 S
Mg3 O16 2.061 . S
O4 Mg3 1.926 1_655 S
O4 Mg5 1.986 1_544 S
O4 Mg6 1.917 1_655 S
Mg5 O4 1.986 1_566 S
Mg5 O12 2.042 1_566 S
Mg5 O14 2.041 1_565 S
Mg5 O20 2.038 1_556 S
Mg5 O28 2.238 . S
Mg6 O4 1.917 1_455 S
Mg6 O7 1.917 1_544 S
Mg6 O17 2.106 . S
Mg6 O19 2.079 1_445 S
Mg6 O28 2.106 1_444 S
Mg6 O29 2.079 1_554 S
O7 Mg6 1.917 1_566 S
O7 Mg8 1.926 1_455 S
O7 Mg9 1.986 1_566 S
Mg8 O7 1.926 1_655 S
Mg8 O22 1.984 1_655 S
Mg8 O25 1.988 1_656 S
Mg8 O26 2.061 . S
Mg9 O7 1.986 1_544 S
Mg9 O17 2.238 . S
Mg9 O21 2.042 1_544 S
Mg9 O23 2.041 1_545 S
Mg9 O30 2.038 1_554 S
C10 O16 1.247 . S
C10 O17 1.289 . S
C11 O29 1.245 . S
C11 O30 1.274 . S
O12 C0 1.241 . S
O12 Mg5 2.042 1_544 S
O13 C0 1.280 . S
O13 Mg3 1.984 1_655 S
O14 C1 1.277 . S
O14 Mg5 2.041 1_545 S
O15 C1 1.245 . S
O15 Mg3 1.988 1_656 S
O16 Mg3 2.061 . S
O16 C10 1.247 . S
O17 Mg6 2.106 . S
O17 Mg9 2.238 . S
O17 C10 1.289 . S
C18 O19 1.245 . S
C18 O20 1.274 . S
O19 Mg6 2.079 1_665 S
O19 C18 1.245 . S
O20 Mg5 2.038 1_554 S
O20 C18 1.274 . S
O21 Mg9 2.042 1_566 S
O21 C24 1.241 . S
O22 Mg8 1.984 1_455 S
O22 C24 1.280 . S
O23 Mg9 2.041 1_565 S
O23 C27 1.277 . S
C24 O21 1.241 . S
C24 O22 1.280 . S
O25 Mg8 1.988 1_454 S
O25 C27 1.245 . S
O26 C2 1.247 . S
O26 Mg8 2.061 . S
C27 O23 1.277 . S
C27 O25 1.245 . S
O28 C2 1.289 . S
O28 Mg5 2.238 . S
O28 Mg6 2.106 1_666 S
O29 Mg6 2.079 1_556 S
O29 C11 1.245 . S
O30 Mg9 2.038 1_556 S
O30 C11 1.274 . S
C31 O43 1.241 . S
C31 O44 1.280 . S
C32 O45 1.277 . S
C32 O46 1.245 . S
C33 O57 1.247 . S
C33 O59 1.289 . S
Mg34 O35 1.926 . S
Mg34 O44 1.984 . S
Mg34 O46 1.988 . S
Mg34 O47 2.061 . S
O35 Mg34 1.926 . S
O35 Mg36 1.986 . S
O35 Mg37 1.917 . S
Mg36 O35 1.986 . S
Mg36 O43 2.042 . S
Mg36 O45 2.041 . S
Mg36 O51 2.038 . S
Mg36 O59 2.238 . S
Mg37 O35 1.917 . S
Mg37 O38 1.917 . S
Mg37 O48 2.106 . S
Mg37 O50 2.079 . S
Mg37 O59 2.106 . S
Mg37 O60 2.079 . S
O38 Mg37 1.917 . S
O38 Mg39 1.926 . S
O38 Mg40 1.986 . S
Mg39 O38 1.926 . S
Mg39 O53 1.984 . S
Mg39 O56 1.988 . S
Mg39 O57 2.061 . S
Mg40 O38 1.986 . S
Mg40 O48 2.238 . S
Mg40 O52 2.042 . S
Mg40 O54 2.041 . S
Mg40 O61 2.038 . S
C41 O47 1.247 . S
C41 O48 1.289 . S
C42 O60 1.245 . S
C42 O61 1.274 . S
O43 C31 1.241 . S
O43 Mg36 2.042 . S
O44 C31 1.280 . S
O44 Mg34 1.984 . S
O45 C32 1.277 . S
O45 Mg36 2.041 . S
O46 C32 1.245 . S
O46 Mg34 1.988 . S
O47 Mg34 2.061 . S
O47 C41 1.247 . S
O48 Mg37 2.106 . S
O48 Mg40 2.238 . S
O48 C41 1.289 . S
C49 O50 1.245 . S
C49 O51 1.274 . S
O50 Mg37 2.079 . S
O50 C49 1.245 . S
O51 Mg36 2.038 . S
O51 C49 1.274 . S
O52 Mg40 2.042 . S
O52 C55 1.241 . S
O53 Mg39 1.984 . S
O53 C55 1.280 . S
O54 Mg40 2.041 . S
O54 C58 1.277 . S
C55 O52 1.241 . S
C55 O53 1.280 . S
O56 Mg39 1.988 . S
O56 C58 1.245 . S
O57 C33 1.247 . S
O57 Mg39 2.061 . S
C58 O54 1.277 . S
C58 O56 1.245 . S
O59 C33 1.289 . S
O59 Mg36 2.238 . S
O59 Mg37 2.106 . S
O60 Mg37 2.079 . S
O60 C42 1.245 . S
O61 Mg40 2.038 . S
O61 C42 1.274 . S
C10 C33 1.284 . S
C0 C55 1.588 . S
C18 C42 1.741 . S
C27 C32 1.678 . S
C24 C31 1.590 . S
C49 C11 1.742 . S
C1 C58 1.680 . S
C41 C2 1.286 . S
