# Generated by pormake.
# Topology mmt, (4)-cn, num edge types: 1
# Building blocks:
#     Node 0, Type 0, BuildingBlock: AZAVOO_clean_sbu_0, # of connection points: 4
#     Node 1, Type 0, BuildingBlock: AZAVOO_clean_sbu_0, # of connection points: 4
#     Node 2, Type 0, BuildingBlock: AZAVOO_clean_sbu_0, # of connection points: 4
#     Node 3, Type 0, BuildingBlock: AZAVOO_clean_sbu_0, # of connection points: 4
#     Node 4, Type 0, BuildingBlock: AZAVOO_clean_sbu_0, # of connection points: 4
#     Node 5, Type 0, BuildingBlock: AZAVOO_clean_sbu_0, # of connection points: 4
#     Node 6, Type 0, BuildingBlock: AZAVOO_clean_sbu_0, # of connection points: 4
#     Node 7, Type 0, BuildingBlock: AZAVOO_clean_sbu_0, # of connection points: 4
#     Edge 8, Type (0, 0), None
#     Edge 9, Type (0, 0), None
#     Edge 10, Type (0, 0), None
#     Edge 11, Type (0, 0), None
#     Edge 12, Type (0, 0), None
#     Edge 13, Type (0, 0), None
#     Edge 14, Type (0, 0), None
#     Edge 15, Type (0, 0), None
#     Edge 16, Type (0, 0), None
#     Edge 17, Type (0, 0), None
#     Edge 18, Type (0, 0), None
#     Edge 19, Type (0, 0), None
#     Edge 20, Type (0, 0), None
#     Edge 21, Type (0, 0), None
#     Edge 22, Type (0, 0), None
#     Edge 23, Type (0, 0), None
# Relax obj value: 0.082
# Max RMSD: 0.143
# Mean RMSD: 0.143
data_MOF--net-mmt--node1-AZAVOO_clean_sbu_0--edge1-none
_symmetry_space_group_name_H-M    P1
_symmetry_Int_Tables_number       1
_symmetry_cell_setting            triclinic
loop_
_symmetry_equiv_pos_as_xyz
'x, y, z'
_cell_length_a     7.6564789
_cell_length_b     19.345426
_cell_length_c     17.994491
_cell_angle_alpha  90.004397
_cell_angle_beta   90.285995
_cell_angle_gamma 89.998972
loop_
_atom_site_label
_atom_site_type_symbol
_atom_site_fract_x
_atom_site_fract_y
_atom_site_fract_z
_atom_type_partial_charge
Mg0 Mg 0.41069 0.57695 0.47238 0.0
O1 O 0.26236 0.54318 0.36671 0.0
O2 O 0.41726 0.5755 0.26693 0.0
Mg3 Mg 0.67372 0.62384 0.30766 0.0
C4 C 0.28307 0.54793 0.29643 0.0
C5 C 1.06252 0.51582 0.56601 0.0
O6 O 0.92865 0.52992 0.60851 0.0
O7 O 0.34233 0.69076 0.44578 0.0
O8 O 0.51539 0.7154 0.34903 0.0
O9 O 0.56049 0.47485 0.4717 0.0
O10 O 0.64213 0.56965 0.41379 0.0
C11 C 0.40343 0.73298 0.39762 0.0
C12 C 0.66473 0.50507 0.42575 0.0
O13 O 0.1592 0.56557 0.544 0.0
Mg14 Mg 0.28488 0.96546 0.41966 0.0
O15 O 0.40307 -0.01816 0.30651 0.0
O16 O 0.26062 0.92972 0.21385 0.0
Mg17 Mg 1.02554 0.87934 0.27312 0.0
C18 C 0.38586 0.96689 0.23811 0.0
C19 C 0.62045 0.00095 0.52741 0.0
O20 O 0.77168 0.03106 0.53939 0.0
O21 O 0.37918 0.8529 0.42292 0.0
O22 O 0.2056 0.80489 0.33639 0.0
O23 O 0.12204 0.05945 0.39974 0.0
O24 O 1.04221 0.95382 0.36645 0.0
C25 C 0.32137 0.80037 0.38743 0.0
C26 C 1.01395 0.01933 0.36498 0.0
O27 O 0.54473 0.00897 0.46506 0.0
Mg28 Mg 0.8774 0.46545 0.19298 0.0
O29 O 0.7592 0.48184 0.30613 0.0
O30 O 0.90169 0.42972 0.39878 0.0
Mg31 Mg 0.13673 0.37932 0.33949 0.0
C32 C 0.77642 0.46688 0.37452 0.0
C33 C 0.54185 0.50095 0.08522 0.0
O34 O 0.39063 0.53108 0.07324 0.0
O35 O 0.78306 0.3529 0.1897 0.0
O36 O 0.9566 0.30488 0.27623 0.0
O37 O 1.04025 0.55944 0.2129 0.0
O38 O 0.12007 0.4538 0.24618 0.0
C39 C 0.8408 0.30037 0.2252 0.0
C40 C 0.14831 0.51931 0.24767 0.0
O41 O 0.61757 0.50898 0.14758 0.0
Mg42 Mg 0.75159 0.07694 0.14026 0.0
O43 O 0.89992 0.04319 0.24594 0.0
O44 O 0.74502 0.07553 0.34571 0.0
Mg45 Mg 0.48854 0.12385 0.30498 0.0
C46 C 0.87922 0.04796 0.31621 0.0
C47 C 0.09977 0.01582 1.04663 0.0
O48 O 0.23363 0.02992 1.00413 0.0
O49 O 0.8199 0.19076 0.16686 0.0
O50 O 0.64679 0.21542 0.2636 0.0
O51 O 0.60181 0.97483 0.14093 0.0
O52 O 0.52015 0.06965 0.19886 0.0
C53 C 0.75871 0.23299 0.215 0.0
C54 C 0.49761 0.00507 0.1869 0.0
O55 O 1.00307 0.06557 0.06864 0.0
Mg56 Mg 0.75162 0.38251 0.64026 0.0
O57 O 0.89994 0.41628 0.74593 0.0
O58 O 0.74504 0.38395 0.8457 0.0
Mg59 Mg 0.48858 0.33562 0.80497 0.0
C60 C 0.87923 0.41153 0.8162 0.0
C61 C 0.09978 0.44364 0.54662 0.0
O62 O 0.23365 0.42954 0.50413 0.0
O63 O 0.81997 0.2687 0.66685 0.0
O64 O 0.64691 0.24406 0.7636 0.0
O65 O 0.60181 0.48461 0.64093 0.0
O66 O 0.52017 0.38981 0.69885 0.0
C67 C 0.75887 0.22648 0.71502 0.0
C68 C 0.49757 0.45439 0.68688 0.0
O69 O 1.0031 0.39389 0.56863 0.0
Mg70 Mg 0.87742 -0.006 0.69298 0.0
O71 O 0.75923 0.97762 0.80612 0.0
O72 O 0.90168 0.02974 0.89879 0.0
Mg73 Mg 0.13676 0.08012 0.83951 0.0
C74 C 0.77644 -0.00743 0.87452 0.0
C75 C 0.54185 0.95851 0.58522 0.0
O76 O 0.39062 0.9284 0.57325 0.0
O77 O 0.78312 0.10656 0.68971 0.0
O78 O 0.9567 0.15457 0.77624 0.0
O79 O 1.04026 0.90001 0.71289 0.0
O80 O 0.1201 0.00564 0.74618 0.0
C81 C 0.84093 0.15909 0.7252 0.0
C82 C 0.14835 0.94013 0.74766 0.0
O83 O 0.61757 0.95049 0.64758 0.0
Mg84 Mg 0.2849 0.49401 0.91965 0.0
O85 O 0.4031 0.47762 0.8065 0.0
O86 O 0.26061 0.52974 0.71385 0.0
Mg87 Mg 1.02557 0.58014 0.77314 0.0
C88 C 0.38588 0.49258 0.73811 0.0
C89 C 0.62045 0.45851 1.02741 0.0
O90 O 0.77167 0.42838 1.03939 0.0
O91 O 0.37924 0.60655 0.92293 0.0
O92 O 0.2057 0.65458 0.8364 0.0
O93 O 0.12205 0.40002 0.89973 0.0
O94 O 1.04223 0.50566 0.86645 0.0
C95 C 0.3215 0.65909 0.88743 0.0
C96 C 1.01399 0.44015 0.86496 0.0
O97 O 0.54473 0.45048 0.96505 0.0
Mg98 Mg 0.41071 0.88252 0.97237 0.0
O99 O 0.26238 0.91627 0.8667 0.0
O100 O 0.41728 0.88393 0.76692 0.0
Mg101 Mg 0.67376 0.83561 0.80765 0.0
C102 C 0.28308 0.9115 0.79642 0.0
C103 C 1.06253 0.94364 0.06601 0.0
O104 O 0.92867 0.92954 0.1085 0.0
O105 O 0.3424 0.7687 0.94577 0.0
O106 O 0.51551 0.74404 0.84903 0.0
O107 O 0.56049 -0.01537 0.9717 0.0
O108 O 0.64215 0.88981 0.91378 0.0
C109 C 0.40359 0.72647 0.89763 0.0
C110 C 0.66469 0.95439 0.92573 0.0
O111 O 0.15923 0.89389 1.044 0.0
loop_
_geom_bond_atom_site_label_1
_geom_bond_atom_site_label_2
_geom_bond_distance
_geom_bond_site_symmetry_2
_ccdc_geom_bond_type
Mg0 O1 2.028 . S
Mg0 O7 1.986 . S
Mg0 O9 2.114 . S
Mg0 O10 2.251 . S
Mg0 O13 2.010 . S
O1 Mg0 2.028 . S
O1 C4 1.250 1_455 S
O2 Mg3 2.028 . S
O2 C4 1.248 1_455 S
Mg3 O2 2.028 . S
Mg3 O8 2.032 . S
Mg3 O10 2.079 . S
C4 O1 1.250 1_655 S
C4 O2 1.248 1_655 S
C5 O6 1.264 . S
C5 O13 1.249 . S
O6 C5 1.264 . S
O7 Mg0 1.986 . S
O7 C11 1.246 . S
O8 Mg3 2.032 . S
O8 C11 1.259 . S
O9 Mg0 2.114 . S
O9 C12 1.252 . S
O10 Mg0 2.251 . S
O10 Mg3 2.079 . S
O10 C12 1.273 . S
C11 O7 1.246 . S
C11 O8 1.259 . S
C12 O9 1.252 . S
C12 O10 1.273 . S
O13 Mg0 2.010 . S
O13 C5 1.249 . S
Mg14 O15 2.028 . S
Mg14 O21 1.986 . S
Mg14 O23 2.114 1_565 S
Mg14 O24 2.251 . S
Mg14 O27 2.010 . S
O15 Mg14 2.028 . S
O15 C18 1.250 . S
O16 Mg17 2.028 . S
O16 C18 1.248 . S
Mg17 O16 2.028 . S
Mg17 O22 2.032 . S
Mg17 O24 2.079 . S
C18 O15 1.250 . S
C18 O16 1.248 . S
C19 O20 1.264 . S
C19 O27 1.249 . S
O20 C19 1.264 . S
O21 Mg14 1.986 . S
O21 C25 1.246 . S
O22 Mg17 2.032 . S
O22 C25 1.259 . S
O23 Mg14 2.114 1_545 S
O23 C26 1.252 . S
O24 Mg14 2.251 . S
O24 Mg17 2.079 . S
O24 C26 1.273 1_565 S
C25 O21 1.246 . S
C25 O22 1.259 . S
C26 O23 1.252 . S
C26 O24 1.273 1_545 S
O27 Mg14 2.010 . S
O27 C19 1.249 . S
Mg28 O29 2.028 . S
Mg28 O35 1.986 . S
Mg28 O37 2.114 . S
Mg28 O38 2.251 . S
Mg28 O41 2.010 . S
O29 Mg28 2.028 . S
O29 C32 1.250 . S
O30 Mg31 2.028 . S
O30 C32 1.248 . S
Mg31 O30 2.028 . S
Mg31 O36 2.032 . S
Mg31 O38 2.079 . S
C32 O29 1.250 . S
C32 O30 1.248 . S
C33 O34 1.264 . S
C33 O41 1.249 1_556 S
O34 C33 1.264 . S
O35 Mg28 1.986 . S
O35 C39 1.246 . S
O36 Mg31 2.032 . S
O36 C39 1.259 . S
O37 Mg28 2.114 . S
O37 C40 1.252 . S
O38 Mg28 2.251 . S
O38 Mg31 2.079 . S
O38 C40 1.273 . S
C39 O35 1.246 . S
C39 O36 1.259 . S
C40 O37 1.252 . S
C40 O38 1.273 . S
O41 Mg28 2.010 . S
O41 C33 1.249 1_554 S
Mg42 O43 2.028 . S
Mg42 O49 1.986 . S
Mg42 O51 2.114 1_545 S
Mg42 O52 2.251 . S
Mg42 O55 2.010 . S
O43 Mg42 2.028 . S
O43 C46 1.250 1_655 S
O44 Mg45 2.028 . S
O44 C46 1.248 1_655 S
Mg45 O44 2.028 . S
Mg45 O50 2.032 . S
Mg45 O52 2.079 . S
C46 O43 1.250 1_455 S
C46 O44 1.248 1_455 S
C47 O48 1.264 . S
C47 O55 1.249 1_556 S
O48 C47 1.264 . S
O49 Mg42 1.986 . S
O49 C53 1.246 . S
O50 Mg45 2.032 . S
O50 C53 1.259 . S
O51 Mg42 2.114 1_565 S
O51 C54 1.252 . S
O52 Mg42 2.251 . S
O52 Mg45 2.079 . S
O52 C54 1.273 1_545 S
C53 O49 1.246 . S
C53 O50 1.259 . S
C54 O51 1.252 . S
C54 O52 1.273 1_565 S
O55 Mg42 2.010 . S
O55 C47 1.249 1_554 S
Mg56 O57 2.028 . S
Mg56 O63 1.986 . S
Mg56 O65 2.114 . S
Mg56 O66 2.251 . S
Mg56 O69 2.010 . S
O57 Mg56 2.028 . S
O57 C60 1.250 1_655 S
O58 Mg59 2.028 . S
O58 C60 1.248 1_655 S
Mg59 O58 2.028 . S
Mg59 O64 2.032 . S
Mg59 O66 2.079 . S
C60 O57 1.250 1_455 S
C60 O58 1.248 1_455 S
C61 O62 1.264 . S
C61 O69 1.249 . S
O62 C61 1.264 . S
O63 Mg56 1.986 . S
O63 C67 1.246 . S
O64 Mg59 2.032 . S
O64 C67 1.259 . S
O65 Mg56 2.114 . S
O65 C68 1.252 . S
O66 Mg56 2.251 . S
O66 Mg59 2.079 . S
O66 C68 1.273 . S
C67 O63 1.246 . S
C67 O64 1.259 . S
C68 O65 1.252 . S
C68 O66 1.273 . S
O69 Mg56 2.010 . S
O69 C61 1.249 . S
Mg70 O71 2.028 . S
Mg70 O77 1.986 . S
Mg70 O79 2.114 1_545 S
Mg70 O80 2.251 . S
Mg70 O83 2.010 . S
O71 Mg70 2.028 . S
O71 C74 1.250 . S
O72 Mg73 2.028 . S
O72 C74 1.248 . S
Mg73 O72 2.028 . S
Mg73 O78 2.032 . S
Mg73 O80 2.079 . S
C74 O71 1.250 . S
C74 O72 1.248 . S
C75 O76 1.264 . S
C75 O83 1.249 . S
O76 C75 1.264 . S
O77 Mg70 1.986 . S
O77 C81 1.246 . S
O78 Mg73 2.032 . S
O78 C81 1.259 . S
O79 Mg70 2.114 1_565 S
O79 C82 1.252 . S
O80 Mg70 2.251 . S
O80 Mg73 2.079 . S
O80 C82 1.273 1_545 S
C81 O77 1.246 . S
C81 O78 1.259 . S
C82 O79 1.252 . S
C82 O80 1.273 1_565 S
O83 Mg70 2.010 . S
O83 C75 1.249 . S
Mg84 O85 2.028 . S
Mg84 O91 1.986 . S
Mg84 O93 2.114 . S
Mg84 O94 2.251 . S
Mg84 O97 2.010 . S
O85 Mg84 2.028 . S
O85 C88 1.250 . S
O86 Mg87 2.028 . S
O86 C88 1.248 . S
Mg87 O86 2.028 . S
Mg87 O92 2.032 . S
Mg87 O94 2.079 . S
C88 O85 1.250 . S
C88 O86 1.248 . S
C89 O90 1.264 . S
C89 O97 1.249 1_554 S
O90 C89 1.264 . S
O91 Mg84 1.986 . S
O91 C95 1.246 . S
O92 Mg87 2.032 . S
O92 C95 1.259 . S
O93 Mg84 2.114 . S
O93 C96 1.252 . S
O94 Mg84 2.251 . S
O94 Mg87 2.079 . S
O94 C96 1.273 . S
C95 O91 1.246 . S
C95 O92 1.259 . S
C96 O93 1.252 . S
C96 O94 1.273 . S
O97 Mg84 2.010 . S
O97 C89 1.249 1_556 S
Mg98 O99 2.028 . S
Mg98 O105 1.986 . S
Mg98 O107 2.114 1_565 S
Mg98 O108 2.251 . S
Mg98 O111 2.010 . S
O99 Mg98 2.028 . S
O99 C102 1.250 1_455 S
O100 Mg101 2.028 . S
O100 C102 1.248 1_455 S
Mg101 O100 2.028 . S
Mg101 O106 2.032 . S
Mg101 O108 2.079 . S
C102 O99 1.250 1_655 S
C102 O100 1.248 1_655 S
C103 O104 1.264 . S
C103 O111 1.249 1_554 S
O104 C103 1.264 . S
O105 Mg98 1.986 . S
O105 C109 1.246 . S
O106 Mg101 2.032 . S
O106 C109 1.259 . S
O107 Mg98 2.114 1_545 S
O107 C110 1.252 . S
O108 Mg98 2.251 . S
O108 Mg101 2.079 . S
O108 C110 1.273 1_565 S
C109 O105 1.246 . S
C109 O106 1.259 . S
C110 O107 1.252 . S
C110 O108 1.273 1_545 S
O111 Mg98 2.010 . S
O111 C103 1.249 1_556 S
C12 C32 1.209 . S
C46 C26 1.209 . S
C40 C4 1.209 . S
C54 C18 1.209 . S
C88 C68 1.209 . S
C82 C102 1.209 . S
C96 C60 1.209 . S
C110 C74 1.209 . S
C5 C61 2.207 1_455 S
C19 C75 2.207 1_565 S
C33 C89 2.207 1_556 S
C103 C47 2.207 1_464 S
C11 C25 1.558 . S
C53 C39 1.558 . S
C81 C67 1.558 . S
C95 C109 1.558 . S
