# Generated by pormake.
# Topology unc, (4)-cn, num edge types: 1
# Building blocks:
#     Node 0, Type 0, BuildingBlock: QUQFOY_clean_sbu_1, # of connection points: 4
#     Node 1, Type 0, BuildingBlock: QUQFOY_clean_sbu_1, # of connection points: 4
#     Node 2, Type 0, BuildingBlock: QUQFOY_clean_sbu_1, # of connection points: 4
#     Node 3, Type 0, BuildingBlock: QUQFOY_clean_sbu_1, # of connection points: 4
#     Edge 4, Type (0, 0), None
#     Edge 5, Type (0, 0), None
#     Edge 6, Type (0, 0), None
#     Edge 7, Type (0, 0), None
#     Edge 8, Type (0, 0), None
#     Edge 9, Type (0, 0), None
#     Edge 10, Type (0, 0), None
#     Edge 11, Type (0, 0), None
# Relax obj value: 0.099
# Max RMSD: 0.097
# Mean RMSD: 0.097
data_MOF--net-unc--node1-QUQFOY_clean_sbu_1--edge1-none
_symmetry_space_group_name_H-M    P1
_symmetry_Int_Tables_number       1
_symmetry_cell_setting            triclinic
loop_
_symmetry_equiv_pos_as_xyz
'x, y, z'
_cell_length_a     14.226842
_cell_length_b     14.226838
_cell_length_c     11.286757
_cell_angle_alpha  90.000013
_cell_angle_beta   90.000087
_cell_angle_gamma 89.999648
loop_
_atom_site_label
_atom_site_type_symbol
_atom_site_fract_x
_atom_site_fract_y
_atom_site_fract_z
_atom_type_partial_charge
O0 O 0.99432 0.58147 0.80182 0.0
Cd1 Cd 0.94725 0.66832 0.932 0.0
Cd2 Cd 0.13947 0.66832 -0.03718 0.0
O3 O 0.147 0.60918 0.79455 0.0
O4 O 0.81677 0.69422 0.87655 0.0
O5 O 0.92728 0.80368 0.88318 0.0
C6 C 0.84338 0.77868 0.85271 0.0
C7 C 0.24334 0.77868 0.04211 0.0
C8 C 0.07367 0.57042 0.75255 0.0
C9 C 1.01304 0.57042 0.14227 0.0
O10 O 0.0924 0.58147 0.093 0.0
O11 O 0.93972 0.60919 0.10028 0.0
O12 O 0.26995 0.69422 0.01827 0.0
O13 O 0.15944 0.80368 0.01164 0.0
O14 O 0.50526 0.0924 0.343 0.0
Cd15 Cd 0.41841 0.13948 0.21282 0.0
Cd16 Cd 0.41841 0.94726 0.18199 0.0
O17 O 0.47754 0.93973 0.35027 0.0
O18 O 0.39251 0.26996 0.26827 0.0
O19 O 0.28304 0.15945 0.26164 0.0
C20 C 0.30805 0.24335 0.2921 0.0
C21 C 0.30805 0.84339 0.10271 0.0
C22 C 0.51631 1.01306 0.39227 0.0
C23 C 0.51631 0.07368 0.00254 0.0
O24 O 0.50525 0.99433 0.05181 0.0
O25 O 0.47754 0.14701 0.04454 0.0
O26 O 0.39251 0.81678 0.12654 0.0
O27 O 0.28304 0.92729 0.13317 0.0
O28 O 0.0924 0.50527 0.30182 0.0
Cd29 Cd 0.13947 0.41842 0.432 0.0
Cd30 Cd 0.94725 0.41842 0.46282 0.0
O31 O 0.93972 0.47755 0.29455 0.0
O32 O 0.26995 0.39252 0.37655 0.0
O33 O 0.15944 0.28305 0.38317 0.0
C34 C 0.24334 0.30806 0.35271 0.0
C35 C 0.84338 0.30806 0.54211 0.0
C36 C 1.01304 0.51632 0.25255 0.0
C37 C 0.07368 0.51632 0.64227 0.0
O38 O 0.99432 0.50526 0.593 0.0
O39 O 0.147 0.47755 0.60028 0.0
O40 O 0.81677 0.39252 0.51827 0.0
O41 O 0.92728 0.28305 0.51164 0.0
O42 O 0.58146 0.99433 0.84299 0.0
Cd43 Cd 0.66831 0.94726 0.71282 0.0
Cd44 Cd 0.66831 0.13948 0.68199 0.0
O45 O 0.60918 0.14701 0.85027 0.0
O46 O 0.69421 0.81677 0.76827 0.0
O47 O 0.80367 0.92729 0.76164 0.0
C48 C 0.77867 0.84339 0.79211 0.0
C49 C 0.77867 0.24335 0.60271 0.0
C50 C 0.57041 0.07369 0.89226 0.0
C51 C 0.57041 1.01305 0.50255 0.0
O52 O 0.58146 0.09241 0.55182 0.0
O53 O 0.60918 0.93973 0.54454 0.0
O54 O 0.69421 0.26996 0.62654 0.0
O55 O 0.80368 0.15945 0.63317 0.0
loop_
_geom_bond_atom_site_label_1
_geom_bond_atom_site_label_2
_geom_bond_distance
_geom_bond_site_symmetry_2
_ccdc_geom_bond_type
O0 Cd1 2.223 1_556 S
O0 C8 1.315 . S
Cd1 O0 2.223 1_554 S
Cd1 O4 2.297 1_554 S
Cd1 O5 2.439 1_554 S
Cd1 O11 2.240 . S
Cd2 O3 2.240 . S
Cd2 O10 2.223 1_556 S
Cd2 O12 2.297 1_556 S
Cd2 O13 2.439 1_556 S
O3 Cd2 2.240 . S
O3 C8 1.279 1_455 S
O4 Cd1 2.297 1_556 S
O4 C6 1.247 . S
O5 Cd1 2.439 1_556 S
O5 C6 1.208 . S
C6 O4 1.247 . S
C6 O5 1.208 . S
C7 O12 1.247 . S
C7 O13 1.208 . S
C8 O0 1.315 . S
C8 O3 1.279 1_655 S
C9 O10 1.315 . S
C9 O11 1.279 1_455 S
O10 Cd2 2.223 1_554 S
O10 C9 1.315 . S
O11 Cd1 2.240 . S
O11 C9 1.279 1_655 S
O12 Cd2 2.297 1_554 S
O12 C7 1.247 . S
O13 Cd2 2.439 1_554 S
O13 C7 1.208 . S
O14 Cd15 2.223 . S
O14 C22 1.315 . S
Cd15 O14 2.223 . S
Cd15 O18 2.297 . S
Cd15 O19 2.439 . S
Cd15 O25 2.240 . S
Cd16 O17 2.240 . S
Cd16 O24 2.223 . S
Cd16 O26 2.297 . S
Cd16 O27 2.439 . S
O17 Cd16 2.240 . S
O17 C22 1.279 1_565 S
O18 Cd15 2.297 . S
O18 C20 1.247 . S
O19 Cd15 2.439 . S
O19 C20 1.208 . S
C20 O18 1.247 . S
C20 O19 1.208 . S
C21 O26 1.247 . S
C21 O27 1.208 . S
C22 O14 1.315 . S
C22 O17 1.279 1_545 S
C23 O24 1.315 . S
C23 O25 1.279 1_565 S
O24 Cd16 2.223 . S
O24 C23 1.315 . S
O25 Cd15 2.240 . S
O25 C23 1.279 1_545 S
O26 Cd16 2.297 . S
O26 C21 1.247 . S
O27 Cd16 2.439 . S
O27 C21 1.208 . S
O28 Cd29 2.223 . S
O28 C36 1.315 . S
Cd29 O28 2.223 . S
Cd29 O32 2.297 . S
Cd29 O33 2.439 . S
Cd29 O39 2.240 . S
Cd30 O31 2.240 . S
Cd30 O38 2.223 . S
Cd30 O40 2.297 . S
Cd30 O41 2.439 . S
O31 Cd30 2.240 . S
O31 C36 1.279 1_655 S
O32 Cd29 2.297 . S
O32 C34 1.247 . S
O33 Cd29 2.439 . S
O33 C34 1.208 . S
C34 O32 1.247 . S
C34 O33 1.208 . S
C35 O40 1.247 . S
C35 O41 1.208 . S
C36 O28 1.315 . S
C36 O31 1.279 1_455 S
C37 O38 1.315 . S
C37 O39 1.279 1_655 S
O38 Cd30 2.223 . S
O38 C37 1.315 . S
O39 Cd29 2.240 . S
O39 C37 1.279 1_455 S
O40 Cd30 2.297 . S
O40 C35 1.247 . S
O41 Cd30 2.439 . S
O41 C35 1.208 . S
O42 Cd43 2.223 . S
O42 C50 1.315 . S
Cd43 O42 2.223 . S
Cd43 O46 2.297 . S
Cd43 O47 2.439 . S
Cd43 O53 2.240 . S
Cd44 O45 2.240 . S
Cd44 O52 2.223 . S
Cd44 O54 2.297 . S
Cd44 O55 2.439 . S
O45 Cd44 2.240 . S
O45 C50 1.279 1_545 S
O46 Cd43 2.297 . S
O46 C48 1.247 . S
O47 Cd43 2.439 . S
O47 C48 1.208 . S
C48 O46 1.247 . S
C48 O47 1.208 . S
C49 O54 1.247 . S
C49 O55 1.208 . S
C50 O42 1.315 . S
C50 O45 1.279 1_565 S
C51 O52 1.315 . S
C51 O53 1.279 1_545 S
O52 Cd44 2.223 . S
O52 C51 1.315 . S
O53 Cd43 2.240 . S
O53 C51 1.279 1_565 S
O54 Cd44 2.297 . S
O54 C49 1.247 . S
O55 Cd44 2.439 . S
O55 C49 1.208 . S
C9 C36 1.789 . S
C22 C51 1.790 . S
C8 C37 1.791 . S
C23 C50 1.790 1_554 S
C21 C7 1.592 . S
C20 C34 1.590 . S
C49 C35 1.592 . S
C48 C6 1.594 . S
