# Generated by pormake.
# Topology eci, (8)-cn, num edge types: 1
# Building blocks:
#     Node 0, Type 0, BuildingBlock: TAGTUT_clean_sbu_1, # of connection points: 8
#     Node 1, Type 0, BuildingBlock: TAGTUT_clean_sbu_1, # of connection points: 8
#     Node 2, Type 0, BuildingBlock: TAGTUT_clean_sbu_1, # of connection points: 8
#     Node 3, Type 0, BuildingBlock: TAGTUT_clean_sbu_1, # of connection points: 8
#     Edge 4, Type (0, 0), None
#     Edge 5, Type (0, 0), None
#     Edge 6, Type (0, 0), None
#     Edge 7, Type (0, 0), None
#     Edge 8, Type (0, 0), None
#     Edge 9, Type (0, 0), None
#     Edge 10, Type (0, 0), None
#     Edge 11, Type (0, 0), None
#     Edge 12, Type (0, 0), None
#     Edge 13, Type (0, 0), None
#     Edge 14, Type (0, 0), None
#     Edge 15, Type (0, 0), None
#     Edge 16, Type (0, 0), None
#     Edge 17, Type (0, 0), None
#     Edge 18, Type (0, 0), None
#     Edge 19, Type (0, 0), None
# Relax obj value: 0.232
# Max RMSD: 0.281
# Mean RMSD: 0.265
data_MOF--net-eci--node1-TAGTUT_clean_sbu_1--edge1-none
_symmetry_space_group_name_H-M    P1
_symmetry_Int_Tables_number       1
_symmetry_cell_setting            triclinic
loop_
_symmetry_equiv_pos_as_xyz
'x, y, z'
_cell_length_a     14.566303
_cell_length_b     15.300396
_cell_length_c     10.636952
_cell_angle_alpha  98.407532
_cell_angle_beta   96.069678
_cell_angle_gamma 88.179351
loop_
_atom_site_label
_atom_site_type_symbol
_atom_site_fract_x
_atom_site_fract_y
_atom_site_fract_z
_atom_type_partial_charge
C0 C 0.82412 0.5473 0.19005 0.0
C1 C 0.86267 0.80044 0.39685 0.0
C2 C 0.6778 0.94526 -0.0125 0.0
Mg3 Mg 0.9458 0.70284 0.15717 0.0
O4 O 0.83366 0.72263 0.04852 0.0
Mg5 Mg 0.71702 0.74707 0.13185 0.0
Mg6 Mg 0.8311 0.82931 0.96461 0.0
O7 O 0.83332 0.93207 0.86638 0.0
Mg8 Mg 0.73194 0.93646 0.73862 0.0
Mg9 Mg 0.95971 0.9228 0.81552 0.0
C10 C 0.04971 0.74861 0.92271 0.0
C11 C 0.97302 0.96822 0.13153 0.0
O12 O 0.7511 0.59796 0.17675 0.0
O13 O 0.90606 0.5736 0.18454 0.0
O14 O 0.78726 0.79171 0.32609 0.0
O15 O 0.93977 0.77915 0.35149 0.0
O16 O 0.05736 0.71478 0.02769 0.0
O17 O 0.97221 0.78343 0.88185 0.0
C18 C 0.62727 0.73635 0.8445 0.0
O19 O 0.70384 0.76364 0.81082 0.0
O20 O 0.62711 0.709 0.95137 0.0
O21 O 0.90761 0.05014 0.73955 0.0
O22 O 0.75232 0.06527 0.70726 0.0
O23 O 0.9281 0.85691 0.60701 0.0
C24 C 0.8337 0.09255 0.70553 0.0
O25 O 0.77437 0.85317 0.56855 0.0
O26 O 0.6425 0.91004 0.87853 0.0
C27 C 0.85533 0.83744 0.53208 0.0
O28 O 0.71336 0.89706 0.07173 0.0
O29 O 0.92394 0.90075 0.12898 0.0
O30 O -0.00641 0.99267 0.02761 0.0
C31 C 0.68797 0.04229 -0.00217 0.0
C32 C 0.65629 0.30582 0.82087 0.0
C33 C 0.81669 0.46637 0.24787 0.0
Mg34 Mg 0.58613 0.20853 0.01302 0.0
O35 O 0.68046 0.22824 0.14863 0.0
Mg36 Mg 0.79456 0.2495 0.0835 0.0
Mg37 Mg 0.65682 0.33312 0.27101 0.0
O38 O 0.62206 0.43649 0.39764 0.0
Mg39 Mg 0.7342 0.46634 0.51834 0.0
Mg40 Mg 0.49356 0.38838 0.44951 0.0
C41 C 0.46931 0.23321 0.23882 0.0
C42 C 0.46821 0.40725 0.15234 0.0
O43 O 0.76415 0.08669 0.03025 0.0
O44 O 0.6131 0.07927 0.96114 0.0
O45 O 0.73392 0.29239 0.88413 0.0
O46 O 0.58202 0.2845 0.85985 0.0
O47 O 0.47735 0.21353 0.12035 0.0
O48 O 0.5352 0.2637 0.32394 0.0
C49 C 0.86133 0.27405 0.36964 0.0
O50 O 0.78457 0.30242 0.41086 0.0
O51 O 0.86017 0.21774 0.2696 0.0
O52 O 0.58595 0.50481 0.46245 0.0
O53 O 0.67535 0.58964 0.60118 0.0
O54 O 0.57125 0.34816 0.63614 0.0
C55 C 0.59358 0.56582 0.5592 0.0
O56 O 0.72233 0.38164 0.66852 0.0
O57 O 0.82662 0.48153 0.37095 0.0
C58 C 0.65048 0.34726 0.70167 0.0
O59 O 0.76548 0.4041 0.18564 0.0
O60 O 0.54906 0.37659 0.13929 0.0
O61 O 0.43402 0.4242 0.25953 0.0
C62 C 0.37522 0.23042 0.26367 0.0
C63 C 0.12158 0.18631 -0.01191 0.0
C64 C 0.94417 0.33133 0.39619 0.0
Mg65 Mg 0.21298 0.11626 0.22641 0.0
O66 O 0.1914 0.22212 0.33977 0.0
Mg67 Mg 0.15949 0.33023 0.26198 0.0
Mg68 Mg 0.0875 0.20582 0.4265 0.0
O69 O -0.0166 0.17922 0.52764 0.0
Mg70 Mg 0.95466 0.2873 0.65378 0.0
Mg71 Mg 0.02603 0.0482 0.57368 0.0
C72 C 0.19404 0.01395 0.44976 0.0
C73 C 0.00019 0.02102 0.25773 0.0
O74 O 0.32066 0.29854 0.25344 0.0
O75 O 0.34665 0.15175 0.24546 0.0
O76 O 0.12309 0.25957 0.06111 0.0
O77 O 0.15022 0.11549 0.03051 0.0
O78 O 0.2107 0.0091 0.3337 0.0
O79 O 0.16109 0.08527 0.51089 0.0
C80 C 0.16541 0.41373 0.55255 0.0
O81 O 0.13877 0.33854 0.58048 0.0
O82 O 0.18556 0.41957 0.44179 0.0
O83 O 0.91103 0.15314 0.56068 0.0
O84 O 0.82191 0.24025 0.67693 0.0
O85 O 0.07484 0.11109 0.78163 0.0
C86 C 0.8449 0.16239 0.63354 0.0
O87 O 0.04857 0.25842 0.81976 0.0
O88 O 0.96617 0.37094 0.5092 0.0
C89 C 0.08079 0.18533 0.85488 0.0
O90 O 0.00739 0.31197 0.32063 0.0
O91 O 0.03496 0.09704 0.26203 0.0
O92 O -0.01414 0.99067 0.36018 0.0
C93 C 0.22141 0.93538 0.51194 0.0
C94 C 0.314 0.70517 0.29626 0.0
C95 C 0.17728 0.49728 0.64643 0.0
Mg96 Mg 0.38703 0.81023 0.55897 0.0
O97 O 0.29601 0.75746 0.64005 0.0
Mg98 Mg 0.17814 0.71431 0.54056 0.0
Mg99 Mg 0.32975 0.65846 0.73499 0.0
O100 O 0.36452 0.56305 0.83367 0.0
Mg101 Mg 0.26669 0.53945 0.92652 0.0
Mg102 Mg 0.47423 0.622 0.93558 0.0
C103 C 0.53108 0.75846 0.78253 0.0
C104 C 0.52237 0.57553 0.64581 0.0
O105 O 0.16734 0.86746 0.49614 0.0
O106 O 0.30818 0.92982 0.54722 0.0
O107 O 0.24438 0.68326 0.34825 0.0
O108 O 0.38019 0.74953 0.36102 0.0
O109 O 0.52141 0.79169 0.67754 0.0
O110 O 0.45844 0.74153 0.83648 0.0
C111 C 0.12623 0.73773 0.83589 0.0
O112 O 0.20852 0.70984 0.8704 0.0
O113 O 0.10319 0.74766 0.71982 0.0
O114 O 0.4827 0.50143 0.01716 0.0
O115 O 0.34078 0.4477 0.02527 0.0
O116 O 0.39824 0.67694 0.11457 0.0
C117 C 0.42818 0.44791 0.05053 0.0
O118 O 0.25108 0.63488 0.09264 0.0
O119 O 0.17293 0.48759 0.76348 0.0
C120 C 0.32028 0.6736 0.15919 0.0
O121 O 0.21709 0.56573 0.61345 0.0
O122 O 0.44248 0.60531 0.60786 0.0
O123 O 0.54686 0.56688 0.76252 0.0
loop_
_geom_bond_atom_site_label_1
_geom_bond_atom_site_label_2
_geom_bond_distance
_geom_bond_site_symmetry_2
_ccdc_geom_bond_type
C0 O12 1.241 . S
C0 O13 1.280 . S
C1 O14 1.277 . S
C1 O15 1.245 . S
C2 O26 1.247 1_564 S
C2 O28 1.289 . S
Mg3 O4 1.926 . S
Mg3 O13 1.984 . S
Mg3 O15 1.988 . S
Mg3 O16 2.061 . S
O4 Mg3 1.926 . S
O4 Mg5 1.986 . S
O4 Mg6 1.917 . S
Mg5 O4 1.986 . S
Mg5 O12 2.042 . S
Mg5 O14 2.041 . S
Mg5 O20 2.038 . S
Mg5 O28 2.238 . S
Mg6 O4 1.917 . S
Mg6 O7 1.917 1_554 S
Mg6 O17 2.106 1_554 S
Mg6 O19 2.079 1_554 S
Mg6 O28 2.106 . S
Mg6 O29 2.079 . S
O7 Mg6 1.917 1_556 S
O7 Mg8 1.926 . S
O7 Mg9 1.986 . S
Mg8 O7 1.926 . S
Mg8 O22 1.984 1_565 S
Mg8 O25 1.988 . S
Mg8 O26 2.061 1_565 S
Mg9 O7 1.986 . S
Mg9 O17 2.238 . S
Mg9 O21 2.042 1_665 S
Mg9 O23 2.041 . S
Mg9 O30 2.038 1_656 S
C10 O16 1.247 1_556 S
C10 O17 1.289 . S
C11 O29 1.245 1_455 S
C11 O30 1.274 . S
O12 C0 1.241 . S
O12 Mg5 2.042 . S
O13 C0 1.280 . S
O13 Mg3 1.984 . S
O14 C1 1.277 . S
O14 Mg5 2.041 . S
O15 C1 1.245 . S
O15 Mg3 1.988 . S
O16 Mg3 2.061 . S
O16 C10 1.247 1_554 S
O17 Mg6 2.106 1_556 S
O17 Mg9 2.238 . S
O17 C10 1.289 . S
C18 O19 1.245 . S
C18 O20 1.274 1_556 S
O19 Mg6 2.079 1_556 S
O19 C18 1.245 . S
O20 Mg5 2.038 . S
O20 C18 1.274 1_554 S
O21 Mg9 2.042 1_445 S
O21 C24 1.241 1_455 S
O22 Mg8 1.984 1_545 S
O22 C24 1.280 . S
O23 Mg9 2.041 . S
O23 C27 1.277 . S
C24 O21 1.241 1_655 S
C24 O22 1.280 . S
O25 Mg8 1.988 . S
O25 C27 1.245 . S
O26 C2 1.247 1_546 S
O26 Mg8 2.061 1_545 S
C27 O23 1.277 . S
C27 O25 1.245 . S
O28 C2 1.289 . S
O28 Mg5 2.238 . S
O28 Mg6 2.106 . S
O29 Mg6 2.079 . S
O29 C11 1.245 1_655 S
O30 Mg9 2.038 1_454 S
O30 C11 1.274 . S
C31 O43 1.241 1_556 S
C31 O44 1.280 . S
C32 O45 1.277 . S
C32 O46 1.245 . S
C33 O57 1.247 . S
C33 O59 1.289 . S
Mg34 O35 1.926 . S
Mg34 O44 1.984 1_554 S
Mg34 O46 1.988 1_554 S
Mg34 O47 2.061 . S
O35 Mg34 1.926 . S
O35 Mg36 1.986 . S
O35 Mg37 1.917 . S
Mg36 O35 1.986 . S
Mg36 O43 2.042 . S
Mg36 O45 2.041 1_554 S
Mg36 O51 2.038 . S
Mg36 O59 2.238 . S
Mg37 O35 1.917 . S
Mg37 O38 1.917 . S
Mg37 O48 2.106 . S
Mg37 O50 2.079 . S
Mg37 O59 2.106 . S
Mg37 O60 2.079 . S
O38 Mg37 1.917 . S
O38 Mg39 1.926 . S
O38 Mg40 1.986 . S
Mg39 O38 1.926 . S
Mg39 O53 1.984 . S
Mg39 O56 1.988 . S
Mg39 O57 2.061 . S
Mg40 O38 1.986 . S
Mg40 O48 2.238 . S
Mg40 O52 2.042 . S
Mg40 O54 2.041 . S
Mg40 O61 2.038 . S
C41 O47 1.247 . S
C41 O48 1.289 . S
C42 O60 1.245 . S
C42 O61 1.274 . S
O43 C31 1.241 1_554 S
O43 Mg36 2.042 . S
O44 C31 1.280 . S
O44 Mg34 1.984 1_556 S
O45 C32 1.277 . S
O45 Mg36 2.041 1_556 S
O46 C32 1.245 . S
O46 Mg34 1.988 1_556 S
O47 Mg34 2.061 . S
O47 C41 1.247 . S
O48 Mg37 2.106 . S
O48 Mg40 2.238 . S
O48 C41 1.289 . S
C49 O50 1.245 . S
C49 O51 1.274 . S
O50 Mg37 2.079 . S
O50 C49 1.245 . S
O51 Mg36 2.038 . S
O51 C49 1.274 . S
O52 Mg40 2.042 . S
O52 C55 1.241 . S
O53 Mg39 1.984 . S
O53 C55 1.280 . S
O54 Mg40 2.041 . S
O54 C58 1.277 . S
C55 O52 1.241 . S
C55 O53 1.280 . S
O56 Mg39 1.988 . S
O56 C58 1.245 . S
O57 C33 1.247 . S
O57 Mg39 2.061 . S
C58 O54 1.277 . S
C58 O56 1.245 . S
O59 C33 1.289 . S
O59 Mg36 2.238 . S
O59 Mg37 2.106 . S
O60 Mg37 2.079 . S
O60 C42 1.245 . S
O61 Mg40 2.038 . S
O61 C42 1.274 . S
C62 O74 1.241 . S
C62 O75 1.280 . S
C63 O76 1.277 . S
C63 O77 1.245 . S
C64 O88 1.247 . S
C64 O90 1.289 1_655 S
Mg65 O66 1.926 . S
Mg65 O75 1.984 . S
Mg65 O77 1.988 . S
Mg65 O78 2.061 . S
O66 Mg65 1.926 . S
O66 Mg67 1.986 . S
O66 Mg68 1.917 . S
Mg67 O66 1.986 . S
Mg67 O74 2.042 . S
Mg67 O76 2.041 . S
Mg67 O82 2.038 . S
Mg67 O90 2.238 . S
Mg68 O66 1.917 . S
Mg68 O69 1.917 . S
Mg68 O79 2.106 . S
Mg68 O81 2.079 . S
Mg68 O90 2.106 . S
Mg68 O91 2.079 . S
O69 Mg68 1.917 . S
O69 Mg70 1.926 1_455 S
O69 Mg71 1.986 . S
Mg70 O69 1.926 1_655 S
Mg70 O84 1.984 . S
Mg70 O87 1.988 1_655 S
Mg70 O88 2.061 . S
Mg71 O69 1.986 . S
Mg71 O79 2.238 . S
Mg71 O83 2.042 1_445 S
Mg71 O85 2.041 . S
Mg71 O92 2.038 1_545 S
C72 O78 1.247 . S
C72 O79 1.289 . S
C73 O91 1.245 . S
C73 O92 1.274 1_545 S
O74 C62 1.241 . S
O74 Mg67 2.042 . S
O75 C62 1.280 . S
O75 Mg65 1.984 . S
O76 C63 1.277 . S
O76 Mg67 2.041 . S
O77 C63 1.245 . S
O77 Mg65 1.988 . S
O78 Mg65 2.061 . S
O78 C72 1.247 . S
O79 Mg68 2.106 . S
O79 Mg71 2.238 . S
O79 C72 1.289 . S
C80 O81 1.245 . S
C80 O82 1.274 . S
O81 Mg68 2.079 . S
O81 C80 1.245 . S
O82 Mg67 2.038 . S
O82 C80 1.274 . S
O83 Mg71 2.042 1_665 S
O83 C86 1.241 1_565 S
O84 Mg70 1.984 . S
O84 C86 1.280 . S
O85 Mg71 2.041 . S
O85 C89 1.277 . S
C86 O83 1.241 1_545 S
C86 O84 1.280 . S
O87 Mg70 1.988 1_455 S
O87 C89 1.245 . S
O88 C64 1.247 . S
O88 Mg70 2.061 . S
C89 O85 1.277 . S
C89 O87 1.245 . S
O90 C64 1.289 1_455 S
O90 Mg67 2.238 . S
O90 Mg68 2.106 . S
O91 Mg68 2.079 . S
O91 C73 1.245 . S
O92 Mg71 2.038 1_565 S
O92 C73 1.274 1_565 S
C93 O105 1.241 . S
C93 O106 1.280 . S
C94 O107 1.277 . S
C94 O108 1.245 . S
C95 O119 1.247 . S
C95 O121 1.289 . S
Mg96 O97 1.926 . S
Mg96 O106 1.984 . S
Mg96 O108 1.988 . S
Mg96 O109 2.061 . S
O97 Mg96 1.926 . S
O97 Mg98 1.986 . S
O97 Mg99 1.917 . S
Mg98 O97 1.986 . S
Mg98 O105 2.042 . S
Mg98 O107 2.041 . S
Mg98 O113 2.038 . S
Mg98 O121 2.238 . S
Mg99 O97 1.917 . S
Mg99 O100 1.917 . S
Mg99 O110 2.106 . S
Mg99 O112 2.079 . S
Mg99 O121 2.106 . S
Mg99 O122 2.079 . S
O100 Mg99 1.917 . S
O100 Mg101 1.926 . S
O100 Mg102 1.986 . S
Mg101 O100 1.926 . S
Mg101 O115 1.984 1_556 S
Mg101 O118 1.988 1_556 S
Mg101 O119 2.061 . S
Mg102 O100 1.986 . S
Mg102 O110 2.238 . S
Mg102 O114 2.042 1_556 S
Mg102 O116 2.041 1_556 S
Mg102 O123 2.038 . S
C103 O109 1.247 . S
C103 O110 1.289 . S
C104 O122 1.245 . S
C104 O123 1.274 . S
O105 C93 1.241 . S
O105 Mg98 2.042 . S
O106 C93 1.280 . S
O106 Mg96 1.984 . S
O107 C94 1.277 . S
O107 Mg98 2.041 . S
O108 C94 1.245 . S
O108 Mg96 1.988 . S
O109 Mg96 2.061 . S
O109 C103 1.247 . S
O110 Mg99 2.106 . S
O110 Mg102 2.238 . S
O110 C103 1.289 . S
C111 O112 1.245 . S
C111 O113 1.274 . S
O112 Mg99 2.079 . S
O112 C111 1.245 . S
O113 Mg98 2.038 . S
O113 C111 1.274 . S
O114 Mg102 2.042 1_554 S
O114 C117 1.241 . S
O115 Mg101 1.984 1_554 S
O115 C117 1.280 . S
O116 Mg102 2.041 1_554 S
O116 C120 1.277 . S
C117 O114 1.241 . S
C117 O115 1.280 . S
O118 Mg101 1.988 1_554 S
O118 C120 1.245 . S
O119 C95 1.247 . S
O119 Mg101 2.061 . S
C120 O116 1.277 . S
C120 O118 1.245 . S
O121 C95 1.289 . S
O121 Mg98 2.238 . S
O121 Mg99 2.106 . S
O122 Mg99 2.079 . S
O122 C104 1.245 . S
O123 Mg102 2.038 . S
O123 C104 1.274 . S
C1 C27 1.270 . S
C58 C32 1.699 . S
C89 C63 1.362 1_556 S
C120 C94 1.660 . S
C103 C18 2.501 . S
C31 C2 2.300 1_546 S
C62 C41 2.138 . S
C93 C72 2.639 1_565 S
C10 C111 3.025 1_655 S
C33 C0 2.223 . S
C49 C64 1.944 . S
C80 C95 2.951 . S
C73 C11 2.186 1_545 S
C55 C104 1.479 . S
C86 C24 1.329 . S
C42 C117 1.370 . S
