# Generated by pormake.
# Topology sma, (6)-cn, num edge types: 1
# Building blocks:
#     Node 0, Type 0, BuildingBlock: PAMTUU_clean_sbu_0, # of connection points: 6
#     Node 1, Type 0, BuildingBlock: PAMTUU_clean_sbu_0, # of connection points: 6
#     Node 2, Type 0, BuildingBlock: PAMTUU_clean_sbu_0, # of connection points: 6
#     Edge 3, Type (0, 0), BuildingBlock: OJICUG_clean_linker_0, # of connection points: 2
#     Edge 4, Type (0, 0), BuildingBlock: OJICUG_clean_linker_0, # of connection points: 2
#     Edge 5, Type (0, 0), BuildingBlock: OJICUG_clean_linker_0, # of connection points: 2
#     Edge 6, Type (0, 0), BuildingBlock: OJICUG_clean_linker_0, # of connection points: 2
#     Edge 7, Type (0, 0), BuildingBlock: OJICUG_clean_linker_0, # of connection points: 2
#     Edge 8, Type (0, 0), BuildingBlock: OJICUG_clean_linker_0, # of connection points: 2
#     Edge 9, Type (0, 0), BuildingBlock: OJICUG_clean_linker_0, # of connection points: 2
#     Edge 10, Type (0, 0), BuildingBlock: OJICUG_clean_linker_0, # of connection points: 2
#     Edge 11, Type (0, 0), BuildingBlock: OJICUG_clean_linker_0, # of connection points: 2
# Relax obj value: 0.048
# Max RMSD: 0.161
# Mean RMSD: 0.155
data_MOF--net-sma--node1-PAMTUU_clean_sbu_0--edge1-OJICUG_clean_linker_0
_symmetry_space_group_name_H-M    P1
_symmetry_Int_Tables_number       1
_symmetry_cell_setting            triclinic
loop_
_symmetry_equiv_pos_as_xyz
'x, y, z'
_cell_length_a     32.055064
_cell_length_b     31.907772
_cell_length_c     10.475856
_cell_angle_alpha  97.28143
_cell_angle_beta   90.014782
_cell_angle_gamma 119.54551
loop_
_atom_site_label
_atom_site_type_symbol
_atom_site_fract_x
_atom_site_fract_y
_atom_site_fract_z
_atom_type_partial_charge
Tb0 Tb 1.03661 0.56205 0.18069 0.0
Tb1 Tb 0.10929 0.51221 0.14304 0.0
C2 C 0.04853 0.51342 0.92337 0.0
C3 C 0.93543 0.58827 0.12472 0.0
C4 C 0.84842 0.57717 0.01954 0.0
C5 C 0.893 0.61111 -0.02041 0.0
C6 C 0.93595 0.61669 0.03185 0.0
C7 C 0.89087 0.5539 0.16359 0.0
C8 C 0.84795 0.54838 0.1115 0.0
C9 C 0.98132 0.59762 0.18773 0.0
O10 O 0.99018 0.48344 0.17122 0.0
O11 O 1.04359 0.45636 0.21113 0.0
O12 O 0.0983 0.5185 0.34342 0.0
O13 O 0.06719 0.57085 0.36885 0.0
O14 O 0.12958 0.46658 0.03034 0.0
O15 O 0.16936 0.50931 0.21005 0.0
O16 O 0.15017 0.58856 0.11432 0.0
O17 O 0.10929 0.62073 0.23217 0.0
O18 O 0.05229 0.55321 -0.01419 0.0
O19 O 0.05942 0.48541 -0.02199 0.0
C20 C 0.99974 0.45027 0.20409 0.0
O21 O 0.97927 0.56709 0.26302 0.0
O22 O 1.01821 0.61117 0.11741 0.0
C23 C 0.08271 0.54418 0.41338 0.0
C24 C 0.21238 0.49086 0.05069 0.0
C25 C 0.30206 0.51165 -0.04535 0.0
C26 C 0.27064 0.46561 -0.01054 0.0
C27 C 0.22637 0.4554 0.03682 0.0
C28 C 0.24298 0.53667 0.01431 0.0
C29 C 0.28751 0.54701 -0.03319 0.0
C30 C 0.16682 0.47955 0.10889 0.0
C31 C 0.14845 0.62558 0.18038 0.0
H32 H 0.89475 0.63355 0.90811 0.0
H33 H 0.9697 0.64389 0.00095 0.0
H34 H 0.88905 0.53189 0.23633 0.0
H35 H 0.81441 0.52246 0.14635 0.0
H36 H 0.28083 0.43776 -0.01617 0.0
H37 H 0.20335 0.41994 0.06514 0.0
H38 H 0.23273 0.56453 0.02421 0.0
H39 H 0.31055 0.58267 0.93987 0.0
Tb40 Tb 0.52797 1.0059 0.50062 0.0
Tb41 Tb 0.64776 0.08148 0.48808 0.0
C42 C 0.57941 0.03046 0.25529 0.0
C43 C 0.39907 0.90098 0.44828 0.0
C44 C 0.31934 0.81139 0.33988 0.0
C45 C 0.36209 0.83208 0.2758 0.0
C46 C 0.40172 0.87673 0.32957 0.0
C47 C 0.35703 0.87986 0.51335 0.0
C48 C 0.31764 0.83558 0.46005 0.0
C49 C 0.43862 0.94879 0.50621 0.0
O50 O 0.56153 0.96072 0.46847 0.0
O51 O 0.63875 1.01568 0.5552 0.0
O52 O 0.63693 0.09618 0.68727 0.0
O53 O 0.55887 0.03214 0.69564 0.0
O54 O 0.69885 0.10972 0.35301 0.0
O55 O 0.72103 0.12505 0.55594 0.0
O56 O 0.6129 0.12504 0.47091 0.0
O57 O 0.54079 0.07908 0.56024 0.0
O58 O 0.54227 1.02722 0.31285 0.0
O59 O 0.61284 1.02858 0.31989 0.0
C60 C 0.60296 0.97061 0.52404 0.0
O61 O 0.47136 0.94896 0.58024 0.0
O62 O 0.45724 0.98261 0.43229 0.0
C63 C 0.59955 0.06932 0.74912 0.0
C64 C 0.77035 0.18408 0.42264 0.0
C65 C 0.84405 0.27379 0.35931 0.0
C66 C 0.85388 0.24899 0.44627 0.0
C67 C 0.81748 0.20458 0.47704 0.0
C68 C 0.75982 0.20971 0.34027 0.0
C69 C 0.79628 0.25403 0.30886 0.0
C70 C 0.73466 0.1337 0.4403 0.0
C71 C 0.57345 0.1201 0.52325 0.0
H72 H 0.36449 0.81435 0.18312 0.0
H73 H 0.43407 0.89254 0.27813 0.0
H74 H 0.35447 0.89792 0.60544 0.0
H75 H 0.28576 0.82019 0.51345 0.0
H76 H 0.88993 0.26351 0.48933 0.0
H77 H 0.82652 0.18545 0.5404 0.0
H78 H 0.72379 0.19471 0.29636 0.0
H79 H 0.78729 0.27178 0.24097 0.0
Tb80 Tb 0.55246 0.49164 0.81541 0.0
Tb81 Tb 0.60543 0.61531 0.84477 0.0
C82 C 0.58853 0.54995 0.59666 0.0
C83 C 0.52559 0.36191 0.74913 0.0
C84 C 0.54432 0.28524 0.6663 0.0
C85 C 0.56339 0.32685 0.60386 0.0
C86 C 0.55412 0.36489 0.64495 0.0
C87 C 0.5076 0.32112 0.81328 0.0
C88 C 0.51692 0.28331 0.77276 0.0
C89 C 0.51324 0.4001 0.79191 0.0
O90 O 0.62773 0.51767 0.86688 0.0
O91 O 0.66476 0.59944 0.84038 0.0
O92 O 0.61722 0.59736 0.0244 0.0
O93 O 0.54809 0.52277 0.00449 0.0
O94 O 0.65076 0.67718 0.76104 0.0
O95 O 0.61638 0.68314 0.93522 0.0
O96 O 0.53022 0.58844 0.88293 0.0
O97 O 0.49605 0.50913 0.77925 0.0
O98 O 0.59041 0.51615 0.6493 0.0
O99 O 0.57416 0.57816 0.65732 0.0
C100 C 0.66639 0.56022 0.86188 0.0
O101 O 0.53601 0.42908 0.89837 0.0
O102 O 0.50891 0.42354 0.70375 0.0
C103 C 0.58548 0.55924 0.07218 0.0
C104 C 0.63348 0.7418 0.7952 0.0
C105 C 0.62231 0.81453 0.69648 0.0
C106 C 0.64748 0.82458 0.81669 0.0
C107 C 0.65302 0.78864 0.86522 0.0
C108 C 0.60735 0.73103 0.67643 0.0
C109 C 0.60178 0.76709 0.62756 0.0
C110 C 0.64312 0.70602 0.84558 0.0
C111 C 0.49238 0.54659 0.83477 0.0
H112 H 0.58448 0.32951 0.5214 0.0
H113 H 0.56871 0.39626 0.5944 0.0
H114 H 0.4859 0.31829 0.89455 0.0
H115 H 0.50258 0.25246 0.82518 0.0
H116 H 0.66291 0.86031 0.87376 0.0
H117 H 0.6732 0.79766 -0.04285 0.0
H118 H 0.59196 0.69507 0.62058 0.0
H119 H 0.5824 0.75811 0.53447 0.0
C120 C 0.35641 0.48727 0.83288 0.0
C121 C 0.35045 0.52285 0.91154 0.0
H122 H 0.40537 0.46684 0.74599 0.0
C123 C 0.39152 0.56798 -0.04466 0.0
H124 H 0.32557 0.45245 0.79524 0.0
C125 C 0.43746 0.57645 0.92613 0.0
C126 C 0.44352 0.53998 0.85248 0.0
H127 H 0.38843 0.59612 0.01687 0.0
H128 H 0.46831 0.61104 -0.03477 0.0
C129 C 0.40228 0.49568 0.80391 0.0
C130 C 0.87657 0.35768 0.2963 0.0
C131 C 0.88372 0.31896 0.3179 0.0
H132 H 0.90714 0.42911 0.24315 0.0
C133 C 0.92909 0.32343 0.29791 0.0
H134 H 0.84237 0.35587 0.31197 0.0
C135 C 0.96643 0.36564 0.25936 0.0
C136 C 0.95937 0.40445 0.23866 0.0
H137 H 0.93577 0.29405 0.31076 0.0
H138 H 1.00088 0.36775 0.24583 0.0
C139 C 0.91385 0.39982 0.25694 0.0
C140 C 0.65261 0.93915 0.61691 0.0
C141 C 0.60891 0.92985 0.55771 0.0
H142 H 0.69131 0.91027 0.70463 0.0
C143 C 0.57021 0.88168 0.53873 0.0
H144 H 0.68329 0.97566 0.63276 0.0
C145 C 0.57473 0.84408 0.58122 0.0
C146 C 0.61803 0.85372 0.6439 0.0
H147 H 0.53593 0.8731 0.49393 0.0
H148 H 0.54379 0.80773 0.56851 0.0
C149 C 0.65711 0.90162 0.65921 0.0
C150 C 0.75608 0.61026 0.91211 0.0
C151 C 0.7139 0.56454 0.8906 0.0
H152 H 0.83128 0.65024 -0.02879 0.0
C153 C 0.71703 0.52287 0.90476 0.0
H154 H 0.75507 0.64317 0.90269 0.0
C155 C 0.76077 0.5269 0.94329 0.0
C156 C 0.80265 0.57271 -0.0309 0.0
H157 H 0.68547 0.48695 0.88807 0.0
H158 H 0.76167 0.49401 -0.04628 0.0
C159 C 0.7999 0.6143 -0.04896 0.0
C160 C 0.27986 0.72466 0.22663 0.0
C161 C 0.27614 0.76498 0.28329 0.0
H162 H 0.24231 0.64869 0.14891 0.0
C163 C 0.23021 0.75998 0.29292 0.0
H164 H 0.31473 0.72732 0.218 0.0
C165 C 0.18897 0.71518 0.25426 0.0
C166 C 0.19246 0.67414 0.20401 0.0
H167 H 0.22606 0.7906 0.33307 0.0
H168 H 0.15425 0.71253 0.26686 0.0
C169 C 0.23837 0.67961 0.18722 0.0
C170 C 0.59629 0.25034 0.57924 0.0
C171 C 0.5517 0.2433 0.62018 0.0
H172 H 0.63835 0.21707 0.51605 0.0
C173 C 0.51394 0.19541 0.62002 0.0
H174 H 0.62622 0.28673 0.57853 0.0
C175 C 0.52092 0.15576 0.58519 0.0
C176 C 0.56584 0.16266 0.54853 0.0
H177 H 0.47876 0.18842 0.64759 0.0
H178 H 0.49099 0.11956 0.58857 0.0
C179 C 0.60328 0.21041 0.54364 0.0
C180 C 0.07936 0.49716 0.72198 0.0
C181 C 0.04834 0.51029 0.78615 0.0
H182 H 0.11705 0.50053 0.55329 0.0
C183 C 1.02692 0.53226 0.72589 0.0
H184 H 0.09657 0.4806 0.7686 0.0
C185 C 1.03959 0.5449 0.60537 0.0
C186 C 0.07318 0.53484 0.54391 0.0
H187 H 1.00278 0.54239 0.77537 0.0
H188 H 1.02306 0.56255 0.56105 0.0
C189 C 0.092 0.50971 0.60091 0.0
C190 C 0.55715 0.05953 0.07375 0.0
C191 C 0.58908 0.04814 0.13132 0.0
H192 H 0.53743 0.07822 0.90428 0.0
C193 C 0.63075 0.05516 0.07123 0.0
H194 H 0.5254 0.05566 0.11964 0.0
C195 C 0.63817 0.0694 -0.05046 0.0
C196 C 0.60368 0.07609 0.88784 0.0
H197 H 0.65634 0.04743 0.1151 0.0
H198 H 0.6681 0.07042 0.89903 0.0
C199 C 0.56448 0.07349 -0.04767 0.0
C200 C 0.57821 0.5096 0.37649 0.0
C201 C 0.5963 0.55255 0.46364 0.0
H202 H 0.55975 0.47845 0.17862 0.0
C203 C 0.61596 0.59805 0.42208 0.0
H204 H 0.56307 0.47436 0.40901 0.0
C205 C 0.61422 0.60043 0.29215 0.0
C206 C 0.59215 0.55721 0.2053 0.0
H207 H 0.63046 0.63137 0.49018 0.0
H208 H 0.62762 0.63563 0.26043 0.0
C209 C 0.57571 0.51192 0.2464 0.0
loop_
_geom_bond_atom_site_label_1
_geom_bond_atom_site_label_2
_geom_bond_distance
_geom_bond_site_symmetry_2
_ccdc_geom_bond_type
Tb0 C9 2.764 . S
Tb0 O10 2.325 . S
Tb0 O13 2.303 1_655 S
Tb0 O17 2.322 1_655 S
Tb0 O18 2.349 1_654 S
Tb0 O21 2.415 . S
Tb0 O22 2.399 . S
Tb1 O11 2.322 1_455 S
Tb1 O12 2.349 . S
Tb1 O14 2.415 . S
Tb1 O15 2.399 . S
Tb1 O16 2.325 . S
Tb1 O19 2.303 1_554 S
Tb1 C30 2.764 . S
C2 O18 1.261 . S
C2 O19 1.257 . S
C3 C6 1.358 . S
C3 C7 1.332 . S
C3 C9 1.504 . S
C4 C5 1.373 . S
C4 C8 1.308 . S
C5 C4 1.373 . S
C5 C6 1.429 . S
C5 H32 0.932 . S
C6 C3 1.358 . S
C6 C5 1.429 . S
C6 H33 0.930 . S
C7 C3 1.332 . S
C7 C8 1.394 . S
C7 H34 0.932 . S
C8 C4 1.308 . S
C8 C7 1.394 . S
C8 H35 0.929 . S
C9 Tb0 2.764 . S
C9 C3 1.504 . S
C9 O21 1.239 . S
C9 O22 1.263 . S
O10 Tb0 2.325 . S
O10 C20 1.236 . S
O11 Tb1 2.322 1_655 S
O11 C20 1.257 . S
O12 Tb1 2.349 . S
O12 C23 1.261 . S
O13 Tb0 2.303 1_455 S
O13 C23 1.257 . S
O14 Tb1 2.415 . S
O14 C30 1.239 . S
O15 Tb1 2.399 . S
O15 C30 1.263 . S
O16 Tb1 2.325 . S
O16 C31 1.236 . S
O17 Tb0 2.322 1_455 S
O17 C31 1.257 . S
O18 Tb0 2.349 1_456 S
O18 C2 1.261 . S
O19 Tb1 2.303 1_556 S
O19 C2 1.257 . S
C20 O10 1.236 . S
C20 O11 1.257 . S
O21 Tb0 2.415 . S
O21 C9 1.239 . S
O22 Tb0 2.399 . S
O22 C9 1.263 . S
C23 O12 1.261 . S
C23 O13 1.257 . S
C24 C27 1.358 . S
C24 C28 1.332 . S
C24 C30 1.504 . S
C25 C26 1.373 . S
C25 C29 1.308 1_554 S
C26 C25 1.373 . S
C26 C27 1.429 . S
C26 H36 0.932 . S
C27 C24 1.358 . S
C27 C26 1.429 . S
C27 H37 0.930 . S
C28 C24 1.332 . S
C28 C29 1.394 1_554 S
C28 H38 0.932 1_554 S
C29 C25 1.308 1_556 S
C29 C28 1.394 1_556 S
C29 H39 0.929 . S
C30 Tb1 2.764 . S
C30 O14 1.239 . S
C30 O15 1.263 . S
C30 C24 1.504 . S
C31 O16 1.236 . S
C31 O17 1.257 . S
H32 C5 0.932 . S
H33 C6 0.930 . S
H34 C7 0.932 . S
H35 C8 0.929 . S
H36 C26 0.932 . S
H37 C27 0.930 . S
H38 C28 0.932 1_556 S
H39 C29 0.929 . S
Tb40 C49 2.764 . S
Tb40 O50 2.325 . S
Tb40 O53 2.303 1_565 S
Tb40 O57 2.322 1_565 S
Tb40 O58 2.349 . S
Tb40 O61 2.415 . S
Tb40 O62 2.399 . S
Tb41 O51 2.322 1_545 S
Tb41 O52 2.349 . S
Tb41 O54 2.415 . S
Tb41 O55 2.399 . S
Tb41 O56 2.325 . S
Tb41 O59 2.303 . S
Tb41 C70 2.764 . S
C42 O58 1.261 1_545 S
C42 O59 1.257 . S
C43 C46 1.358 . S
C43 C47 1.332 . S
C43 C49 1.504 . S
C44 C45 1.373 . S
C44 C48 1.308 . S
C45 C44 1.373 . S
C45 C46 1.429 . S
C45 H72 0.932 . S
C46 C43 1.358 . S
C46 C45 1.429 . S
C46 H73 0.930 . S
C47 C43 1.332 . S
C47 C48 1.394 . S
C47 H74 0.932 . S
C48 C44 1.308 . S
C48 C47 1.394 . S
C48 H75 0.929 . S
C49 Tb40 2.764 . S
C49 C43 1.504 . S
C49 O61 1.239 . S
C49 O62 1.263 . S
O50 Tb40 2.325 . S
O50 C60 1.236 . S
O51 Tb41 2.322 1_565 S
O51 C60 1.257 . S
O52 Tb41 2.349 . S
O52 C63 1.261 . S
O53 Tb40 2.303 1_545 S
O53 C63 1.257 . S
O54 Tb41 2.415 . S
O54 C70 1.239 . S
O55 Tb41 2.399 . S
O55 C70 1.263 . S
O56 Tb41 2.325 . S
O56 C71 1.236 . S
O57 Tb40 2.322 1_545 S
O57 C71 1.257 . S
O58 Tb40 2.349 . S
O58 C42 1.261 1_565 S
O59 Tb41 2.303 . S
O59 C42 1.257 . S
C60 O50 1.236 . S
C60 O51 1.257 . S
O61 Tb40 2.415 . S
O61 C49 1.239 . S
O62 Tb40 2.399 . S
O62 C49 1.263 . S
C63 O52 1.261 . S
C63 O53 1.257 . S
C64 C67 1.358 . S
C64 C68 1.332 . S
C64 C70 1.504 . S
C65 C66 1.373 . S
C65 C69 1.308 . S
C66 C65 1.373 . S
C66 C67 1.429 . S
C66 H76 0.932 . S
C67 C64 1.358 . S
C67 C66 1.429 . S
C67 H77 0.930 . S
C68 C64 1.332 . S
C68 C69 1.394 . S
C68 H78 0.932 . S
C69 C65 1.308 . S
C69 C68 1.394 . S
C69 H79 0.929 . S
C70 Tb41 2.764 . S
C70 O54 1.239 . S
C70 O55 1.263 . S
C70 C64 1.504 . S
C71 O56 1.236 . S
C71 O57 1.257 . S
H72 C45 0.932 . S
H73 C46 0.930 . S
H74 C47 0.932 . S
H75 C48 0.929 . S
H76 C66 0.932 . S
H77 C67 0.930 . S
H78 C68 0.932 . S
H79 C69 0.929 . S
Tb80 C89 2.764 . S
Tb80 O90 2.325 . S
Tb80 O93 2.303 . S
Tb80 O97 2.322 . S
Tb80 O98 2.349 . S
Tb80 O101 2.415 . S
Tb80 O102 2.399 . S
Tb81 O91 2.322 . S
Tb81 O92 2.349 1_556 S
Tb81 O94 2.415 . S
Tb81 O95 2.399 . S
Tb81 O96 2.325 . S
Tb81 O99 2.303 . S
Tb81 C110 2.764 . S
C82 O98 1.261 . S
C82 O99 1.257 . S
C83 C86 1.358 . S
C83 C87 1.332 . S
C83 C89 1.504 . S
C84 C85 1.373 . S
C84 C88 1.308 . S
C85 C84 1.373 . S
C85 C86 1.429 . S
C85 H112 0.932 . S
C86 C83 1.358 . S
C86 C85 1.429 . S
C86 H113 0.930 . S
C87 C83 1.332 . S
C87 C88 1.394 . S
C87 H114 0.932 1_556 S
C88 C84 1.308 . S
C88 C87 1.394 . S
C88 H115 0.929 1_556 S
C89 Tb80 2.764 . S
C89 C83 1.504 . S
C89 O101 1.239 . S
C89 O102 1.263 . S
O90 Tb80 2.325 . S
O90 C100 1.236 . S
O91 Tb81 2.322 . S
O91 C100 1.257 . S
O92 Tb81 2.349 1_554 S
O92 C103 1.261 . S
O93 Tb80 2.303 . S
O93 C103 1.257 1_556 S
O94 Tb81 2.415 . S
O94 C110 1.239 . S
O95 Tb81 2.399 . S
O95 C110 1.263 . S
O96 Tb81 2.325 . S
O96 C111 1.236 . S
O97 Tb80 2.322 . S
O97 C111 1.257 . S
O98 Tb80 2.349 . S
O98 C82 1.261 . S
O99 Tb81 2.303 . S
O99 C82 1.257 . S
C100 O90 1.236 . S
C100 O91 1.257 . S
O101 Tb80 2.415 . S
O101 C89 1.239 . S
O102 Tb80 2.399 . S
O102 C89 1.263 . S
C103 O92 1.261 . S
C103 O93 1.257 1_554 S
C104 C107 1.358 . S
C104 C108 1.332 . S
C104 C110 1.504 . S
C105 C106 1.373 . S
C105 C109 1.308 . S
C106 C105 1.373 . S
C106 C107 1.429 . S
C106 H116 0.932 1_556 S
C107 C104 1.358 . S
C107 C106 1.429 . S
C107 H117 0.930 1_556 S
C108 C104 1.332 . S
C108 C109 1.394 . S
C108 H118 0.932 . S
C109 C105 1.308 . S
C109 C108 1.394 . S
C109 H119 0.929 . S
C110 Tb81 2.764 . S
C110 O94 1.239 . S
C110 O95 1.263 . S
C110 C104 1.504 . S
C111 O96 1.236 . S
C111 O97 1.257 . S
H112 C85 0.932 . S
H113 C86 0.930 . S
H114 C87 0.932 1_554 S
H115 C88 0.929 1_554 S
H116 C106 0.932 1_554 S
H117 C107 0.930 1_554 S
H118 C108 0.932 . S
H119 C109 0.929 . S
C120 C121 1.387 . S
C120 H124 0.950 . S
C120 C129 1.390 1_554 S
C121 C120 1.387 . S
C121 C123 1.387 1_554 S
H122 C129 0.950 1_554 S
C123 C121 1.387 1_556 S
C123 C125 1.390 . S
C123 H127 0.950 . S
H124 C120 0.950 . S
C125 C123 1.390 . S
C125 C126 1.387 . S
C125 H128 0.950 . S
C126 C125 1.387 . S
C126 C129 1.387 . S
H127 C123 0.950 . S
H128 C125 0.950 . S
C129 C120 1.390 1_556 S
C129 H122 0.950 1_556 S
C129 C126 1.387 . S
C130 C131 1.387 . S
C130 H134 0.950 . S
C130 C139 1.390 . S
C131 C130 1.387 . S
C131 C133 1.387 . S
H132 C139 0.950 . S
C133 C131 1.387 . S
C133 C135 1.390 . S
C133 H137 0.950 . S
H134 C130 0.950 . S
C135 C133 1.390 . S
C135 C136 1.387 . S
C135 H138 0.950 . S
C136 C135 1.387 . S
C136 C139 1.387 . S
H137 C133 0.950 . S
H138 C135 0.950 . S
C139 C130 1.390 . S
C139 H132 0.950 . S
C139 C136 1.387 . S
C140 C141 1.387 . S
C140 H144 0.950 . S
C140 C149 1.390 . S
C141 C140 1.387 . S
C141 C143 1.387 . S
H142 C149 0.950 . S
C143 C141 1.387 . S
C143 C145 1.390 . S
C143 H147 0.950 . S
H144 C140 0.950 . S
C145 C143 1.390 . S
C145 C146 1.387 . S
C145 H148 0.950 . S
C146 C145 1.387 . S
C146 C149 1.387 . S
H147 C143 0.950 . S
H148 C145 0.950 . S
C149 C140 1.390 . S
C149 H142 0.950 . S
C149 C146 1.387 . S
C150 C151 1.387 1_554 S
C150 H154 0.950 . S
C150 C159 1.390 . S
C151 C150 1.387 1_556 S
C151 C153 1.387 . S
H152 C159 0.950 . S
C153 C151 1.387 . S
C153 C155 1.390 1_556 S
C153 H157 0.950 . S
H154 C150 0.950 . S
C155 C153 1.390 1_554 S
C155 C156 1.387 . S
C155 H158 0.950 . S
C156 C155 1.387 . S
C156 C159 1.387 . S
H157 C153 0.950 . S
H158 C155 0.950 . S
C159 C150 1.390 . S
C159 H152 0.950 . S
C159 C156 1.387 . S
C160 C161 1.387 . S
C160 H164 0.950 . S
C160 C169 1.390 . S
C161 C160 1.387 . S
C161 C163 1.387 . S
H162 C169 0.950 . S
C163 C161 1.387 . S
C163 C165 1.390 . S
C163 H167 0.950 . S
H164 C160 0.950 . S
C165 C163 1.390 . S
C165 C166 1.387 . S
C165 H168 0.950 . S
C166 C165 1.387 . S
C166 C169 1.387 . S
H167 C163 0.950 . S
H168 C165 0.950 . S
C169 C160 1.390 . S
C169 H162 0.950 . S
C169 C166 1.387 . S
C170 C171 1.387 . S
C170 H174 0.950 . S
C170 C179 1.390 . S
C171 C170 1.387 . S
C171 C173 1.387 . S
H172 C179 0.950 . S
C173 C171 1.387 . S
C173 C175 1.390 . S
C173 H177 0.950 . S
H174 C170 0.950 . S
C175 C173 1.390 . S
C175 C176 1.387 . S
C175 H178 0.950 . S
C176 C175 1.387 . S
C176 C179 1.387 . S
H177 C173 0.950 . S
H178 C175 0.950 . S
C179 C170 1.390 . S
C179 H172 0.950 . S
C179 C176 1.387 . S
C180 C181 1.387 . S
C180 H184 0.950 . S
C180 C189 1.390 . S
C181 C180 1.387 . S
C181 C183 1.387 . S
H182 C189 0.950 . S
C183 C181 1.387 . S
C183 C185 1.390 . S
C183 H187 0.950 . S
H184 C180 0.950 . S
C185 C183 1.390 . S
C185 C186 1.387 . S
C185 H188 0.950 . S
C186 C185 1.387 . S
C186 C189 1.387 . S
H187 C183 0.950 . S
H188 C185 0.950 . S
C189 C180 1.390 . S
C189 H182 0.950 . S
C189 C186 1.387 . S
C190 C191 1.387 . S
C190 H194 0.950 . S
C190 C199 1.390 1_554 S
C191 C190 1.387 . S
C191 C193 1.387 . S
H192 C199 0.950 . S
C193 C191 1.387 . S
C193 C195 1.390 1_554 S
C193 H197 0.950 . S
H194 C190 0.950 . S
C195 C193 1.390 1_556 S
C195 C196 1.387 . S
C195 H198 0.950 . S
C196 C195 1.387 . S
C196 C199 1.387 . S
H197 C193 0.950 . S
H198 C195 0.950 . S
C199 C190 1.390 1_556 S
C199 H192 0.950 . S
C199 C196 1.387 . S
C200 C201 1.387 . S
C200 H204 0.950 . S
C200 C209 1.390 . S
C201 C200 1.387 . S
C201 C203 1.387 . S
H202 C209 0.950 . S
C203 C201 1.387 . S
C203 C205 1.390 . S
C203 H207 0.950 . S
H204 C200 0.950 . S
C205 C203 1.390 . S
C205 C206 1.387 . S
C205 H208 0.950 . S
C206 C205 1.387 . S
C206 C209 1.387 . S
H207 C203 0.950 . S
H208 C205 0.950 . S
C209 C200 1.390 . S
C209 H202 0.950 . S
C209 C206 1.387 . S
C121 C25 1.787 . S
C126 C111 1.727 . S
C131 C65 1.957 . S
C136 C20 1.989 . S
C141 C60 1.999 . S
C146 C105 1.959 . S
C151 C100 2.077 . S
C156 C4 2.007 . S
C161 C44 1.787 . S
C166 C31 1.752 . S
C171 C84 1.785 . S
C176 C71 1.742 . S
C181 C2 0.794 . S
C186 C23 0.794 . S
C191 C42 0.771 . S
C196 C63 0.771 . S
C201 C82 0.792 . S
C206 C103 0.792 . S
