# Generated by pormake.
# Topology umj, (4)-cn, num edge types: 1
# Building blocks:
#     Node 0, Type 0, BuildingBlock: NAWXER_clean_sbu_0, # of connection points: 4
#     Node 1, Type 0, BuildingBlock: NAWXER_clean_sbu_0, # of connection points: 4
#     Node 2, Type 0, BuildingBlock: NAWXER_clean_sbu_0, # of connection points: 4
#     Node 3, Type 0, BuildingBlock: NAWXER_clean_sbu_0, # of connection points: 4
#     Node 4, Type 0, BuildingBlock: NAWXER_clean_sbu_0, # of connection points: 4
#     Node 5, Type 0, BuildingBlock: NAWXER_clean_sbu_0, # of connection points: 4
#     Node 6, Type 0, BuildingBlock: NAWXER_clean_sbu_0, # of connection points: 4
#     Node 7, Type 0, BuildingBlock: NAWXER_clean_sbu_0, # of connection points: 4
#     Node 8, Type 0, BuildingBlock: NAWXER_clean_sbu_0, # of connection points: 4
#     Node 9, Type 0, BuildingBlock: NAWXER_clean_sbu_0, # of connection points: 4
#     Node 10, Type 0, BuildingBlock: NAWXER_clean_sbu_0, # of connection points: 4
#     Node 11, Type 0, BuildingBlock: NAWXER_clean_sbu_0, # of connection points: 4
#     Edge 12, Type (0, 0), None
#     Edge 13, Type (0, 0), None
#     Edge 14, Type (0, 0), None
#     Edge 15, Type (0, 0), None
#     Edge 16, Type (0, 0), None
#     Edge 17, Type (0, 0), None
#     Edge 18, Type (0, 0), None
#     Edge 19, Type (0, 0), None
#     Edge 20, Type (0, 0), None
#     Edge 21, Type (0, 0), None
#     Edge 22, Type (0, 0), None
#     Edge 23, Type (0, 0), None
#     Edge 24, Type (0, 0), None
#     Edge 25, Type (0, 0), None
#     Edge 26, Type (0, 0), None
#     Edge 27, Type (0, 0), None
#     Edge 28, Type (0, 0), None
#     Edge 29, Type (0, 0), None
#     Edge 30, Type (0, 0), None
#     Edge 31, Type (0, 0), None
#     Edge 32, Type (0, 0), None
#     Edge 33, Type (0, 0), None
#     Edge 34, Type (0, 0), None
#     Edge 35, Type (0, 0), None
# Relax obj value: 0.019
# Max RMSD: 0.123
# Mean RMSD: 0.123
data_MOF--net-umj--node1-NAWXER_clean_sbu_0--edge1-none
_symmetry_space_group_name_H-M    P1
_symmetry_Int_Tables_number       1
_symmetry_cell_setting            triclinic
loop_
_symmetry_equiv_pos_as_xyz
'x, y, z'
_cell_length_a     13.197321
_cell_length_b     13.197416
_cell_length_c     37.032808
_cell_angle_alpha  89.998154
_cell_angle_beta   90.001604
_cell_angle_gamma 120.00145
loop_
_atom_site_label
_atom_site_type_symbol
_atom_site_fract_x
_atom_site_fract_y
_atom_site_fract_z
_atom_type_partial_charge
C0 C 0.01848 0.24991 0.16585 0.0
C1 C 0.16461 0.36038 0.03697 0.0
O2 O 0.12786 0.3046 0.15813 0.0
Zn3 Zn 0.13478 0.31537 0.10395 0.0
O4 O 0.94402 0.21669 0.14062 0.0
Zn5 Zn 0.944 0.22422 0.0858 0.0
O6 O 0.90062 0.05666 0.07482 0.0
O7 O 0.08558 0.145 0.09093 0.0
O8 O 0.05711 0.29845 0.04431 0.0
O9 O 0.24108 0.38503 0.06192 0.0
O10 O 0.08137 0.43508 0.09886 0.0
O11 O 0.89622 0.34556 0.08206 0.0
C12 C 0.9951 0.05339 0.08 0.0
C13 C 0.99177 0.43998 0.08968 0.0
C14 C 0.80224 0.16573 0.37031 0.0
C15 C 0.76651 0.01955 0.49918 0.0
O16 O 0.85402 0.2422 0.39527 0.0
Zn17 Zn 0.81735 0.13588 0.43728 0.0
O18 O 0.75662 0.05822 0.37765 0.0
Zn19 Zn 0.71772 0.9451 0.41913 0.0
O20 O 0.54861 0.89733 0.41539 0.0
O21 O 0.64425 0.08248 0.4322 0.0
O22 O 0.72526 0.9451 0.47395 0.0
O23 O 0.82121 0.12893 0.49147 0.0
O24 O 0.93852 0.08667 0.42426 0.0
O25 O 0.8419 0.90172 0.40815 0.0
C26 C 0.54974 0.99288 0.42301 0.0
C27 C 0.93965 0.9962 0.41333 0.0
C28 C 0.74462 0.76746 0.83252 0.0
C29 C 0.6342 0.80313 0.70363 0.0
O30 O 0.68994 0.82216 0.8248 0.0
Zn31 Zn 0.67918 0.81829 0.77061 0.0
O32 O 0.77784 0.72622 0.8073 0.0
Zn33 Zn 0.77033 0.71866 0.75247 0.0
O34 O 0.93789 0.84283 0.74149 0.0
O35 O 0.84956 0.93945 0.7576 0.0
O36 O 0.69612 0.75754 0.71098 0.0
O37 O 0.60955 0.85495 0.72858 0.0
O38 O 0.55947 0.64518 0.76553 0.0
O39 O 0.64899 0.54955 0.74874 0.0
C40 C 0.94117 0.94058 0.74668 0.0
C41 C 0.55457 0.55067 0.75635 0.0
C42 C 0.00161 0.5557 0.08968 0.0
C43 C -0.00166 0.94231 0.08 0.0
O44 O 0.09716 0.65012 0.08206 0.0
Zn45 Zn 0.04942 0.77148 0.08581 0.0
O46 O 0.91201 0.5606 0.09887 0.0
Zn47 Zn 0.85864 0.68033 0.10396 0.0
O48 O 0.7523 0.6107 0.06194 0.0
O49 O 0.93628 0.69727 0.04433 0.0
O50 O 0.90786 0.85071 0.09094 0.0
O51 O 0.09282 0.93904 0.07482 0.0
O52 O 0.04942 0.77902 0.14063 0.0
O53 O 0.86559 0.69112 0.15814 0.0
C54 C 0.82877 0.6354 0.03699 0.0
C55 C 0.97498 0.74581 0.16586 0.0
C56 C 0.05397 -0.00056 0.41334 0.0
C57 C 0.44386 0.00272 0.42301 0.0
O58 O 0.15172 0.09392 0.40815 0.0
Zn59 Zn 0.27588 0.05052 0.41914 0.0
O60 O 0.05509 0.90896 0.42427 0.0
Zn61 Zn 0.17624 0.85973 0.43729 0.0
O62 O 0.17239 0.86666 0.49147 0.0
O63 O 0.26835 0.0505 0.47396 0.0
O64 O 0.34935 0.91311 0.4322 0.0
O65 O 0.44499 0.09827 0.4154 0.0
O66 O 0.23697 0.9374 0.37765 0.0
O67 O 0.13955 0.75342 0.39526 0.0
C68 C 0.2271 0.97604 0.49919 0.0
C69 C 0.19137 0.8299 0.37031 0.0
C70 C 0.35917 0.19226 0.70366 0.0
C71 C 0.24872 0.22805 0.83252 0.0
O72 O 0.38387 0.14049 0.72861 0.0
Zn73 Zn 0.31422 0.17718 0.77063 0.0
O74 O 0.2973 0.2379 0.71099 0.0
Zn75 Zn 0.22308 0.27682 0.75247 0.0
O76 O 0.34443 0.44592 0.74873 0.0
O77 O 0.43394 0.35029 0.76554 0.0
O78 O 0.21553 0.26929 0.80729 0.0
O79 O 0.30341 0.17335 0.82482 0.0
O80 O 0.14385 0.05603 0.75761 0.0
O81 O 0.05552 0.15265 0.74148 0.0
C82 C 0.43885 0.44479 0.75635 0.0
C83 C 0.05225 0.0549 0.74667 0.0
C84 C 0.55468 0.0027 0.61295 0.0
C85 C 0.94125 -0.00065 0.62264 0.0
O86 O 0.6491 0.09824 0.62057 0.0
Zn87 Zn 0.77044 0.05047 0.61683 0.0
O88 O 0.55958 0.91309 0.60377 0.0
Zn89 Zn 0.67927 0.85968 0.59868 0.0
O90 O 0.6096 0.75335 0.6407 0.0
O91 O 0.6962 0.93737 0.65832 0.0
O92 O 0.84965 0.90888 0.61171 0.0
O93 O 0.93799 0.09383 0.62782 0.0
O94 O 0.77796 0.05046 0.56201 0.0
O95 O 0.69006 0.86662 0.5445 0.0
C96 C 0.63429 0.82985 0.66565 0.0
C97 C 0.74475 0.97601 0.53679 0.0
C98 C 0.80206 0.63536 0.999 0.0
C99 C 0.76638 0.74571 0.87013 0.0
O100 O 0.85388 0.61066 0.97406 0.0
Zn101 Zn 0.81719 0.68027 0.93203 0.0
O102 O 0.75641 0.69722 0.99166 0.0
Zn103 Zn 0.71753 0.77141 0.95016 0.0
O104 O 0.54843 0.65005 0.9539 0.0
O105 O 0.64409 0.56054 0.93712 0.0
O106 O 0.72511 0.77892 0.89534 0.0
O107 O 0.82108 0.69104 0.87785 0.0
O108 O 0.93832 0.85066 0.94505 0.0
O109 O 0.84168 0.93898 0.96114 0.0
C110 C 0.54957 0.55563 0.94629 0.0
C111 C 0.93944 0.94226 0.95598 0.0
C112 C 0.16465 0.80326 0.33232 0.0
C113 C 0.01851 0.76758 0.20346 0.0
O114 O 0.24115 0.85508 0.30738 0.0
Zn115 Zn 0.13483 0.81842 0.26536 0.0
O116 O 0.05713 0.75764 0.32499 0.0
Zn117 Zn 0.94403 0.71877 0.28351 0.0
O118 O 0.89626 0.54966 0.28724 0.0
O119 O 0.08142 0.64531 0.27044 0.0
O120 O 0.94406 0.72633 0.22869 0.0
O121 O 0.1279 0.82228 0.21117 0.0
O122 O 0.08561 0.93958 0.27838 0.0
O123 O 0.90066 0.84295 0.29449 0.0
C124 C 0.99181 0.55079 0.27962 0.0
C125 C 0.99514 0.94071 0.28931 0.0
C126 C 0.35922 0.16559 0.66567 0.0
C127 C 0.24886 0.01956 0.53679 0.0
O128 O 0.38392 0.24212 0.64073 0.0
Zn129 Zn 0.31432 0.13584 0.5987 0.0
O130 O 0.29736 0.05809 0.65833 0.0
Zn131 Zn 0.22317 0.94502 0.61683 0.0
O132 O 0.34454 0.89729 0.62056 0.0
O133 O 0.43405 0.08246 0.60378 0.0
O134 O 0.21565 0.94509 0.56201 0.0
O135 O 0.30354 0.12894 0.54451 0.0
O136 O 0.14394 0.08659 0.61171 0.0
O137 O 0.0556 0.90162 0.62781 0.0
C138 C 0.43896 0.99285 0.61295 0.0
C139 C 0.05233 0.9961 0.62264 0.0
C140 C 0.22694 0.24983 0.87013 0.0
C141 C 0.19128 0.36037 0.99898 0.0
O142 O 0.17224 0.30451 0.87783 0.0
Zn143 Zn 0.17607 0.31532 0.93202 0.0
O144 O 0.26817 0.21662 0.89536 0.0
Zn145 Zn 0.2757 0.22416 0.95018 0.0
O146 O 0.15151 0.05661 0.96116 0.0
O147 O 0.05489 0.14495 0.94504 0.0
O148 O 0.23684 0.29843 0.99166 0.0
O149 O 0.13942 0.385 0.97403 0.0
O150 O 0.34918 0.43501 0.9371 0.0
O151 O 0.44481 0.3455 0.95391 0.0
C152 C 0.05376 0.05334 0.95597 0.0
C153 C 0.44369 0.43991 0.94629 0.0
C154 C 0.97496 0.22815 0.20345 0.0
C155 C 0.82886 0.19247 0.33232 0.0
O156 O 0.86557 0.17344 0.21117 0.0
Zn157 Zn 0.85865 0.17729 0.26536 0.0
O158 O 0.04942 0.26939 0.22868 0.0
Zn159 Zn 0.04946 0.27695 0.2835 0.0
O160 O 0.09285 0.15278 0.29448 0.0
O161 O 0.90789 0.05615 0.27837 0.0
O162 O 0.93637 0.23807 0.32499 0.0
O163 O 0.75235 0.14061 0.30738 0.0
O164 O 0.91205 0.3504 0.27044 0.0
O165 O 0.09721 0.44606 0.28723 0.0
C166 C -0.00162 0.05503 0.2893 0.0
C167 C 0.00165 0.44492 0.27962 0.0
loop_
_geom_bond_atom_site_label_1
_geom_bond_atom_site_label_2
_geom_bond_distance
_geom_bond_site_symmetry_2
_ccdc_geom_bond_type
C0 O2 1.247 1_655 S
C0 O4 1.258 . S
C1 O8 1.247 1_455 S
C1 O9 1.258 . S
O2 C0 1.247 1_455 S
O2 Zn3 2.028 . S
Zn3 O2 2.028 . S
Zn3 O7 2.035 . S
Zn3 O9 2.035 . S
Zn3 O10 2.028 . S
O4 C0 1.258 . S
O4 Zn5 2.035 . S
Zn5 O4 2.035 . S
Zn5 O6 2.028 . S
Zn5 O8 2.028 . S
Zn5 O11 2.035 . S
O6 Zn5 2.028 . S
O6 C12 1.247 1_655 S
O7 Zn3 2.035 . S
O7 C12 1.258 . S
O8 C1 1.247 1_655 S
O8 Zn5 2.028 . S
O9 C1 1.258 . S
O9 Zn3 2.035 . S
O10 Zn3 2.028 . S
O10 C13 1.247 . S
O11 Zn5 2.035 . S
O11 C13 1.258 1_655 S
C12 O6 1.247 1_455 S
C12 O7 1.258 . S
C13 O10 1.247 . S
C13 O11 1.258 1_455 S
C14 O16 1.247 . S
C14 O18 1.258 1_545 S
C15 O22 1.247 . S
C15 O23 1.258 1_565 S
O16 C14 1.247 . S
O16 Zn17 2.028 . S
Zn17 O16 2.028 . S
Zn17 O21 2.035 . S
Zn17 O23 2.035 . S
Zn17 O24 2.028 . S
O18 C14 1.258 1_565 S
O18 Zn19 2.035 . S
Zn19 O18 2.035 . S
Zn19 O20 2.028 . S
Zn19 O22 2.028 . S
Zn19 O25 2.035 . S
O20 Zn19 2.028 . S
O20 C26 1.247 1_565 S
O21 Zn17 2.035 . S
O21 C26 1.258 . S
O22 C15 1.247 . S
O22 Zn19 2.028 . S
O23 C15 1.258 1_545 S
O23 Zn17 2.035 . S
O24 Zn17 2.028 . S
O24 C27 1.247 . S
O25 Zn19 2.035 . S
O25 C27 1.258 1_565 S
C26 O20 1.247 1_545 S
C26 O21 1.258 . S
C27 O24 1.247 . S
C27 O25 1.258 1_545 S
C28 O30 1.247 . S
C28 O32 1.258 . S
C29 O36 1.247 . S
C29 O37 1.258 . S
O30 C28 1.247 . S
O30 Zn31 2.028 . S
Zn31 O30 2.028 . S
Zn31 O35 2.035 . S
Zn31 O37 2.035 . S
Zn31 O38 2.028 . S
O32 C28 1.258 . S
O32 Zn33 2.035 . S
Zn33 O32 2.035 . S
Zn33 O34 2.028 . S
Zn33 O36 2.028 . S
Zn33 O39 2.035 . S
O34 Zn33 2.028 . S
O34 C40 1.247 . S
O35 Zn31 2.035 . S
O35 C40 1.258 . S
O36 C29 1.247 . S
O36 Zn33 2.028 . S
O37 C29 1.258 . S
O37 Zn31 2.035 . S
O38 Zn31 2.028 . S
O38 C41 1.247 . S
O39 Zn33 2.035 . S
O39 C41 1.258 . S
C40 O34 1.247 . S
C40 O35 1.258 . S
C41 O38 1.247 . S
C41 O39 1.258 . S
C42 O44 1.247 1_655 S
C42 O46 1.258 . S
C43 O50 1.247 . S
C43 O51 1.258 1_655 S
O44 C42 1.247 1_455 S
O44 Zn45 2.028 . S
Zn45 O44 2.028 . S
Zn45 O49 2.035 . S
Zn45 O51 2.035 . S
Zn45 O52 2.028 . S
O46 C42 1.258 . S
O46 Zn47 2.035 . S
Zn47 O46 2.035 . S
Zn47 O48 2.028 . S
Zn47 O50 2.028 . S
Zn47 O53 2.035 . S
O48 Zn47 2.028 . S
O48 C54 1.247 . S
O49 Zn45 2.035 . S
O49 C54 1.258 1_455 S
O50 C43 1.247 . S
O50 Zn47 2.028 . S
O51 C43 1.258 1_455 S
O51 Zn45 2.035 . S
O52 Zn45 2.028 . S
O52 C55 1.247 . S
O53 Zn47 2.035 . S
O53 C55 1.258 1_655 S
C54 O48 1.247 . S
C54 O49 1.258 1_655 S
C55 O52 1.247 . S
C55 O53 1.258 1_455 S
C56 O58 1.247 1_565 S
C56 O60 1.258 . S
C57 O64 1.247 . S
C57 O65 1.258 1_565 S
O58 C56 1.247 1_545 S
O58 Zn59 2.028 . S
Zn59 O58 2.028 . S
Zn59 O63 2.035 . S
Zn59 O65 2.035 . S
Zn59 O66 2.028 . S
O60 C56 1.258 . S
O60 Zn61 2.035 . S
Zn61 O60 2.035 . S
Zn61 O62 2.028 . S
Zn61 O64 2.028 . S
Zn61 O67 2.035 . S
O62 Zn61 2.028 . S
O62 C68 1.247 1_565 S
O63 Zn59 2.035 . S
O63 C68 1.258 . S
O64 C57 1.247 . S
O64 Zn61 2.028 . S
O65 C57 1.258 1_545 S
O65 Zn59 2.035 . S
O66 Zn59 2.028 . S
O66 C69 1.247 1_545 S
O67 Zn61 2.035 . S
O67 C69 1.258 . S
C68 O62 1.247 1_545 S
C68 O63 1.258 . S
C69 O66 1.247 1_565 S
C69 O67 1.258 . S
C70 O72 1.247 . S
C70 O74 1.258 . S
C71 O78 1.247 . S
C71 O79 1.258 . S
O72 C70 1.247 . S
O72 Zn73 2.028 . S
Zn73 O72 2.028 . S
Zn73 O77 2.035 . S
Zn73 O79 2.035 . S
Zn73 O80 2.028 . S
O74 C70 1.258 . S
O74 Zn75 2.035 . S
Zn75 O74 2.035 . S
Zn75 O76 2.028 . S
Zn75 O78 2.028 . S
Zn75 O81 2.035 . S
O76 Zn75 2.028 . S
O76 C82 1.247 . S
O77 Zn73 2.035 . S
O77 C82 1.258 . S
O78 C71 1.247 . S
O78 Zn75 2.028 . S
O79 C71 1.258 . S
O79 Zn73 2.035 . S
O80 Zn73 2.028 . S
O80 C83 1.247 . S
O81 Zn75 2.035 . S
O81 C83 1.258 . S
C82 O76 1.247 . S
C82 O77 1.258 . S
C83 O80 1.247 . S
C83 O81 1.258 . S
C84 O86 1.247 1_565 S
C84 O88 1.258 . S
C85 O92 1.247 . S
C85 O93 1.258 1_565 S
O86 C84 1.247 1_545 S
O86 Zn87 2.028 . S
Zn87 O86 2.028 . S
Zn87 O91 2.035 . S
Zn87 O93 2.035 . S
Zn87 O94 2.028 . S
O88 C84 1.258 . S
O88 Zn89 2.035 . S
Zn89 O88 2.035 . S
Zn89 O90 2.028 . S
Zn89 O92 2.028 . S
Zn89 O95 2.035 . S
O90 Zn89 2.028 . S
O90 C96 1.247 . S
O91 Zn87 2.035 . S
O91 C96 1.258 1_545 S
O92 C85 1.247 . S
O92 Zn89 2.028 . S
O93 C85 1.258 1_545 S
O93 Zn87 2.035 . S
O94 Zn87 2.028 . S
O94 C97 1.247 . S
O95 Zn89 2.035 . S
O95 C97 1.258 1_565 S
C96 O90 1.247 . S
C96 O91 1.258 1_565 S
C97 O94 1.247 . S
C97 O95 1.258 1_545 S
C98 O100 1.247 . S
C98 O102 1.258 . S
C99 O106 1.247 . S
C99 O107 1.258 . S
O100 C98 1.247 . S
O100 Zn101 2.028 . S
Zn101 O100 2.028 . S
Zn101 O105 2.035 . S
Zn101 O107 2.035 . S
Zn101 O108 2.028 . S
O102 C98 1.258 . S
O102 Zn103 2.035 . S
Zn103 O102 2.035 . S
Zn103 O104 2.028 . S
Zn103 O106 2.028 . S
Zn103 O109 2.035 . S
O104 Zn103 2.028 . S
O104 C110 1.247 . S
O105 Zn101 2.035 . S
O105 C110 1.258 . S
O106 C99 1.247 . S
O106 Zn103 2.028 . S
O107 C99 1.258 . S
O107 Zn101 2.035 . S
O108 Zn101 2.028 . S
O108 C111 1.247 . S
O109 Zn103 2.035 . S
O109 C111 1.258 . S
C110 O104 1.247 . S
C110 O105 1.258 . S
C111 O108 1.247 . S
C111 O109 1.258 . S
C112 O114 1.247 . S
C112 O116 1.258 1_455 S
C113 O120 1.247 . S
C113 O121 1.258 1_655 S
O114 C112 1.247 . S
O114 Zn115 2.028 . S
Zn115 O114 2.028 . S
Zn115 O119 2.035 . S
Zn115 O121 2.035 . S
Zn115 O122 2.028 . S
O116 C112 1.258 1_655 S
O116 Zn117 2.035 . S
Zn117 O116 2.035 . S
Zn117 O118 2.028 . S
Zn117 O120 2.028 . S
Zn117 O123 2.035 . S
O118 Zn117 2.028 . S
O118 C124 1.247 1_655 S
O119 Zn115 2.035 . S
O119 C124 1.258 . S
O120 C113 1.247 . S
O120 Zn117 2.028 . S
O121 C113 1.258 1_455 S
O121 Zn115 2.035 . S
O122 Zn115 2.028 . S
O122 C125 1.247 . S
O123 Zn117 2.035 . S
O123 C125 1.258 1_655 S
C124 O118 1.247 1_455 S
C124 O119 1.258 . S
C125 O122 1.247 . S
C125 O123 1.258 1_455 S
C126 O128 1.247 . S
C126 O130 1.258 1_545 S
C127 O134 1.247 . S
C127 O135 1.258 1_565 S
O128 C126 1.247 . S
O128 Zn129 2.028 . S
Zn129 O128 2.028 . S
Zn129 O133 2.035 . S
Zn129 O135 2.035 . S
Zn129 O136 2.028 . S
O130 C126 1.258 1_565 S
O130 Zn131 2.035 . S
Zn131 O130 2.035 . S
Zn131 O132 2.028 . S
Zn131 O134 2.028 . S
Zn131 O137 2.035 . S
O132 Zn131 2.028 . S
O132 C138 1.247 1_565 S
O133 Zn129 2.035 . S
O133 C138 1.258 . S
O134 C127 1.247 . S
O134 Zn131 2.028 . S
O135 C127 1.258 1_545 S
O135 Zn129 2.035 . S
O136 Zn129 2.028 . S
O136 C139 1.247 . S
O137 Zn131 2.035 . S
O137 C139 1.258 1_565 S
C138 O132 1.247 1_545 S
C138 O133 1.258 . S
C139 O136 1.247 . S
C139 O137 1.258 1_545 S
C140 O142 1.247 . S
C140 O144 1.258 . S
C141 O148 1.247 . S
C141 O149 1.258 . S
O142 C140 1.247 . S
O142 Zn143 2.028 . S
Zn143 O142 2.028 . S
Zn143 O147 2.035 . S
Zn143 O149 2.035 . S
Zn143 O150 2.028 . S
O144 C140 1.258 . S
O144 Zn145 2.035 . S
Zn145 O144 2.035 . S
Zn145 O146 2.028 . S
Zn145 O148 2.028 . S
Zn145 O151 2.035 . S
O146 Zn145 2.028 . S
O146 C152 1.247 . S
O147 Zn143 2.035 . S
O147 C152 1.258 . S
O148 C141 1.247 . S
O148 Zn145 2.028 . S
O149 C141 1.258 . S
O149 Zn143 2.035 . S
O150 Zn143 2.028 . S
O150 C153 1.247 . S
O151 Zn145 2.035 . S
O151 C153 1.258 . S
C152 O146 1.247 . S
C152 O147 1.258 . S
C153 O150 1.247 . S
C153 O151 1.258 . S
C154 O156 1.247 1_455 S
C154 O158 1.258 . S
C155 O162 1.247 1_655 S
C155 O163 1.258 . S
O156 C154 1.247 1_655 S
O156 Zn157 2.028 . S
Zn157 O156 2.028 . S
Zn157 O161 2.035 . S
Zn157 O163 2.035 . S
Zn157 O164 2.028 . S
O158 C154 1.258 . S
O158 Zn159 2.035 . S
Zn159 O158 2.035 . S
Zn159 O160 2.028 . S
Zn159 O162 2.028 . S
Zn159 O165 2.035 . S
O160 Zn159 2.028 . S
O160 C166 1.247 1_455 S
O161 Zn157 2.035 . S
O161 C166 1.258 . S
O162 C155 1.247 1_455 S
O162 Zn159 2.028 . S
O163 C155 1.258 . S
O163 Zn157 2.035 . S
O164 Zn157 2.028 . S
O164 C167 1.247 . S
O165 Zn159 2.035 . S
O165 C167 1.258 1_455 S
C166 O160 1.247 1_655 S
C166 O161 1.258 . S
C167 O164 1.247 . S
C167 O165 1.258 1_655 S
C154 C0 1.617 1_455 S
C15 C97 1.623 1_565 S
C28 C99 1.620 . S
C55 C113 1.623 1_455 S
C127 C68 1.620 1_565 S
C71 C140 1.619 . S
C1 C141 1.700 1_554 S
C14 C155 1.696 . S
C29 C96 1.696 . S
C54 C98 1.692 1_554 S
C112 C69 1.696 . S
C126 C70 1.692 . S
C42 C13 1.783 1_655 S
C26 C57 1.782 1_545 S
C82 C41 1.783 . S
C138 C84 1.778 1_545 S
C153 C110 1.783 . S
C124 C167 1.782 1_455 S
C12 C43 1.724 1_445 S
C27 C56 1.723 1_645 S
C83 C40 1.724 1_445 S
C85 C139 1.729 1_665 S
C111 C152 1.724 1_665 S
C125 C166 1.723 1_465 S
