# Generated by pormake.
# Topology unc, (4)-cn, num edge types: 1
# Building blocks:
#     Node 0, Type 0, BuildingBlock: CEKHIL_clean_sbu_0, # of connection points: 4
#     Node 1, Type 0, BuildingBlock: CEKHIL_clean_sbu_0, # of connection points: 4
#     Node 2, Type 0, BuildingBlock: CEKHIL_clean_sbu_0, # of connection points: 4
#     Node 3, Type 0, BuildingBlock: CEKHIL_clean_sbu_0, # of connection points: 4
#     Edge 4, Type (0, 0), None
#     Edge 5, Type (0, 0), None
#     Edge 6, Type (0, 0), None
#     Edge 7, Type (0, 0), None
#     Edge 8, Type (0, 0), None
#     Edge 9, Type (0, 0), None
#     Edge 10, Type (0, 0), None
#     Edge 11, Type (0, 0), None
# Relax obj value: 0.004
# Max RMSD: 0.039
# Mean RMSD: 0.039
data_MOF--net-unc--node1-CEKHIL_clean_sbu_0--edge1-none
_symmetry_space_group_name_H-M    P1
_symmetry_Int_Tables_number       1
_symmetry_cell_setting            triclinic
loop_
_symmetry_equiv_pos_as_xyz
'x, y, z'
_cell_length_a     13.140922
_cell_length_b     13.141777
_cell_length_c     9.1514199
_cell_angle_alpha  89.996325
_cell_angle_beta   89.996328
_cell_angle_gamma 92.912454
loop_
_atom_site_label
_atom_site_type_symbol
_atom_site_fract_x
_atom_site_fract_y
_atom_site_fract_z
_atom_type_partial_charge
Co0 Co 0.0398 0.73043 0.97579 0.0
O1 O 0.0157 0.84374 0.84634 0.0
O2 O 0.94002 0.81795 0.05943 0.0
C3 C 0.0235 0.61232 0.79412 0.0
O4 O 0.03963 0.61852 0.13411 0.0
Co5 Co 0.22469 0.60123 0.92984 0.0
O6 O 0.16354 0.51206 0.08181 0.0
C7 C 0.24576 0.78566 0.11649 0.0
C8 C 0.94816 0.8708 0.93928 0.0
C9 C 0.08914 0.53799 0.15972 0.0
O10 O 0.15454 0.80919 0.08343 0.0
O11 O 0.28744 0.70788 0.06343 0.0
O12 O 0.94537 0.646 0.86116 0.0
O13 O 0.11054 0.65622 0.82938 0.0
Co14 Co 0.36265 0.05329 0.36367 0.0
O15 O 0.24934 0.07739 0.49312 0.0
O16 O 0.27513 0.15306 0.28002 0.0
C17 C 0.48076 0.06959 0.54534 0.0
O18 O 0.47457 0.05345 0.20536 0.0
Co19 Co 0.49187 0.86841 0.40965 0.0
O20 O 0.58104 0.92955 0.25766 0.0
C21 C 0.30742 0.84733 0.22299 0.0
C22 C 0.22227 0.14493 0.40017 0.0
C23 C 0.5551 1.00395 0.17974 0.0
O24 O 0.28389 0.93855 0.25604 0.0
O25 O 0.38521 0.80566 0.27606 0.0
O26 O 0.44708 0.14772 0.4783 0.0
O27 O 0.43686 0.98256 0.51009 0.0
Co28 Co 0.05563 0.36032 0.47579 0.0
O29 O 0.07973 0.24702 0.34633 0.0
O30 O 0.15539 0.27278 0.55944 0.0
C31 C 0.07198 0.47838 0.2941 0.0
O32 O 0.0558 0.4722 0.63412 0.0
Co33 Co 0.8708 0.4896 0.42989 0.0
O34 O 0.932 0.57878 0.58176 0.0
C35 C 0.84966 0.30512 0.61651 0.0
C36 C 0.14728 0.21996 0.43926 0.0
C37 C 1.00638 0.55279 0.65968 0.0
O38 O 0.94087 0.28156 0.58341 0.0
O39 O 0.80801 0.38294 0.56348 0.0
O40 O 0.1501 0.44473 0.36118 0.0
O41 O 0.9849 0.43454 0.32937 0.0
Co42 Co 0.73278 0.03746 0.86367 0.0
O43 O 0.84608 0.01336 0.99312 0.0
O44 O 0.82032 0.9377 0.78001 0.0
C45 C 0.61471 0.02111 0.04536 0.0
O46 O 0.62088 0.03729 0.70535 0.0
Co47 Co 0.60348 0.22228 0.9096 0.0
O48 O 0.5143 0.16108 0.75771 0.0
C49 C 0.78797 0.24343 0.72298 0.0
C50 C 0.87314 0.94581 0.90019 0.0
C51 C 0.54029 0.08671 0.67979 0.0
O52 O 0.81153 0.15222 0.75606 0.0
O53 O 0.71015 0.28507 0.77602 0.0
O54 O 0.64836 0.94299 0.97828 0.0
O55 O 0.65855 0.10817 1.01009 0.0
loop_
_geom_bond_atom_site_label_1
_geom_bond_atom_site_label_2
_geom_bond_distance
_geom_bond_site_symmetry_2
_ccdc_geom_bond_type
Co0 O1 2.216 1_454 S
Co0 O2 2.090 1_455 S
Co0 O4 2.004 1_455 S
Co0 O10 2.021 . S
Co0 O12 2.137 1_454 S
Co0 O13 2.245 1_554 S
O1 Co0 2.216 1_656 S
O1 C8 1.247 . S
O2 Co0 2.090 1_655 S
O2 C8 1.261 1_554 S
C3 O12 1.247 1_455 S
C3 O13 1.272 . S
O4 Co0 2.004 1_655 S
O4 C9 1.259 1_655 S
Co5 O6 2.061 . S
Co5 O11 2.052 . S
Co5 O13 2.135 1_554 S
O6 Co5 2.061 . S
O6 C9 1.235 . S
C7 O10 1.238 . S
C7 O11 1.241 . S
C8 O1 1.247 . S
C8 O2 1.261 1_556 S
C9 O4 1.259 1_455 S
C9 O6 1.235 . S
O10 Co0 2.021 . S
O10 C7 1.238 . S
O11 Co5 2.052 . S
O11 C7 1.241 . S
O12 Co0 2.137 1_656 S
O12 C3 1.247 1_655 S
O13 Co0 2.245 1_556 S
O13 C3 1.272 . S
O13 Co5 2.135 1_556 S
Co14 O15 2.216 . S
Co14 O16 2.091 . S
Co14 O18 2.004 . S
Co14 O24 2.021 1_545 S
Co14 O26 2.137 . S
Co14 O27 2.244 1_545 S
O15 Co14 2.216 . S
O15 C22 1.247 . S
O16 Co14 2.091 . S
O16 C22 1.261 . S
C17 O26 1.247 . S
C17 O27 1.272 1_545 S
O18 Co14 2.004 . S
O18 C23 1.259 . S
Co19 O20 2.061 . S
Co19 O25 2.052 . S
Co19 O27 2.135 . S
O20 Co19 2.061 . S
O20 C23 1.235 1_565 S
C21 O24 1.238 . S
C21 O25 1.241 . S
C22 O15 1.247 . S
C22 O16 1.261 . S
C23 O18 1.259 . S
C23 O20 1.235 1_545 S
O24 Co14 2.021 1_565 S
O24 C21 1.238 . S
O25 Co19 2.052 . S
O25 C21 1.241 . S
O26 Co14 2.137 . S
O26 C17 1.247 . S
O27 Co14 2.244 1_565 S
O27 C17 1.272 1_565 S
O27 Co19 2.135 . S
Co28 O29 2.216 . S
Co28 O30 2.091 . S
Co28 O32 2.004 . S
Co28 O38 2.021 1_455 S
Co28 O40 2.137 . S
Co28 O41 2.244 1_455 S
O29 Co28 2.216 . S
O29 C36 1.247 . S
O30 Co28 2.091 . S
O30 C36 1.261 . S
C31 O40 1.247 . S
C31 O41 1.272 1_455 S
O32 Co28 2.004 . S
O32 C37 1.259 . S
Co33 O34 2.061 . S
Co33 O39 2.052 . S
Co33 O41 2.135 . S
O34 Co33 2.061 . S
O34 C37 1.235 1_655 S
C35 O38 1.238 . S
C35 O39 1.241 . S
C36 O29 1.247 . S
C36 O30 1.261 . S
C37 O32 1.259 . S
C37 O34 1.235 1_455 S
O38 Co28 2.021 1_655 S
O38 C35 1.238 . S
O39 Co33 2.052 . S
O39 C35 1.241 . S
O40 Co28 2.137 . S
O40 C31 1.247 . S
O41 Co28 2.244 1_655 S
O41 C31 1.272 1_655 S
O41 Co33 2.135 . S
Co42 O43 2.216 1_545 S
Co42 O44 2.090 1_545 S
Co42 O46 2.004 1_545 S
Co42 O52 2.021 . S
Co42 O54 2.137 1_545 S
Co42 O55 2.245 . S
O43 Co42 2.216 1_565 S
O43 C50 1.247 . S
O44 Co42 2.090 1_565 S
O44 C50 1.261 . S
C45 O54 1.247 1_545 S
C45 O55 1.272 . S
O46 Co42 2.004 1_565 S
O46 C51 1.259 1_565 S
Co47 O48 2.061 . S
Co47 O53 2.052 . S
Co47 O55 2.135 . S
O48 Co47 2.061 . S
O48 C51 1.235 . S
C49 O52 1.238 . S
C49 O53 1.241 . S
C50 O43 1.247 . S
C50 O44 1.261 . S
C51 O46 1.259 1_545 S
C51 O48 1.235 . S
O52 Co42 2.021 . S
O52 C49 1.238 . S
O53 Co47 2.052 . S
O53 C49 1.241 . S
O54 Co42 2.137 1_565 S
O54 C45 1.247 1_565 S
O55 Co42 2.245 . S
O55 C45 1.272 . S
O55 Co47 2.135 . S
C9 C31 1.391 . S
C17 C51 1.391 . S
C3 C37 1.391 . S
C23 C45 1.391 1_554 S
C21 C7 1.400 . S
C22 C36 1.497 . S
C49 C35 1.400 . S
C50 C8 1.497 . S
