# Generated by pormake.
# Topology crb, (4)-cn, num edge types: 1
# Building blocks:
#     Node 0, Type 0, BuildingBlock: QUQFOY_clean_sbu_3, # of connection points: 4
#     Node 1, Type 0, BuildingBlock: QUQFOY_clean_sbu_3, # of connection points: 4
#     Node 2, Type 0, BuildingBlock: QUQFOY_clean_sbu_3, # of connection points: 4
#     Node 3, Type 0, BuildingBlock: QUQFOY_clean_sbu_3, # of connection points: 4
#     Node 4, Type 0, BuildingBlock: QUQFOY_clean_sbu_3, # of connection points: 4
#     Node 5, Type 0, BuildingBlock: QUQFOY_clean_sbu_3, # of connection points: 4
#     Node 6, Type 0, BuildingBlock: QUQFOY_clean_sbu_3, # of connection points: 4
#     Node 7, Type 0, BuildingBlock: QUQFOY_clean_sbu_3, # of connection points: 4
#     Edge 8, Type (0, 0), None
#     Edge 9, Type (0, 0), None
#     Edge 10, Type (0, 0), None
#     Edge 11, Type (0, 0), None
#     Edge 12, Type (0, 0), None
#     Edge 13, Type (0, 0), None
#     Edge 14, Type (0, 0), None
#     Edge 15, Type (0, 0), None
#     Edge 16, Type (0, 0), None
#     Edge 17, Type (0, 0), None
#     Edge 18, Type (0, 0), None
#     Edge 19, Type (0, 0), None
#     Edge 20, Type (0, 0), None
#     Edge 21, Type (0, 0), None
#     Edge 22, Type (0, 0), None
#     Edge 23, Type (0, 0), None
# Relax obj value: 0.113
# Max RMSD: 0.155
# Mean RMSD: 0.155
data_MOF--net-crb--node1-QUQFOY_clean_sbu_3--edge1-none
_symmetry_space_group_name_H-M    P1
_symmetry_Int_Tables_number       1
_symmetry_cell_setting            triclinic
loop_
_symmetry_equiv_pos_as_xyz
'x, y, z'
_cell_length_a     22.949388
_cell_length_b     21.235165
_cell_length_c     11.521753
_cell_angle_alpha  90.000336
_cell_angle_beta   90.001057
_cell_angle_gamma 90.000108
loop_
_atom_site_label
_atom_site_type_symbol
_atom_site_fract_x
_atom_site_fract_y
_atom_site_fract_z
_atom_type_partial_charge
C0 C 0.40578 0.28679 0.0242 0.0
O1 O 0.39508 0.2957 0.13089 0.0
Cd2 Cd 0.29856 0.31356 0.19661 0.0
O3 O 0.36469 0.28339 0.94974 0.0
Cd4 Cd 0.25589 0.28591 0.94982 0.0
C5 C 0.26448 0.4377 0.01751 0.0
O6 O 0.2452 0.2248 0.12411 0.0
O7 O 0.16999 0.28084 0.0827 0.0
O8 O 0.25313 0.20804 0.79069 0.0
C9 C 0.19217 0.23683 0.14233 0.0
O10 O 0.27303 0.41895 0.12116 0.0
C11 C 0.20942 0.23379 0.74244 0.0
O12 O 0.26039 0.39873 0.93465 0.0
O13 O 0.18916 0.28321 0.7889 0.0
C14 C 0.46638 0.28687 -0.01486 0.0
O15 O 0.47706 0.29581 0.87844 0.0
Cd16 Cd 0.57353 0.31391 0.81272 0.0
O17 O 0.50748 0.28358 0.0596 0.0
Cd18 Cd 0.61628 0.28636 0.05955 0.0
C19 C 0.60737 0.43813 -0.00814 0.0
O20 O 0.62702 0.22526 0.88529 0.0
O21 O 0.70219 0.28137 0.92665 0.0
O22 O 0.61908 0.20853 0.2187 0.0
C23 C 0.68004 0.23733 0.86704 0.0
O24 O 0.59883 0.41936 0.88822 0.0
C25 C 0.66279 0.23428 0.26693 0.0
O26 O 0.61158 0.39917 0.07471 0.0
O27 O 0.68304 0.2837 0.22046 0.0
C28 C 0.46599 0.65658 0.0242 0.0
O29 O 0.47669 0.64767 0.13089 0.0
Cd30 Cd 0.57321 0.62981 0.19662 0.0
O31 O 0.50709 0.65998 0.94974 0.0
Cd32 Cd 0.61588 0.65746 0.94983 0.0
C33 C 0.6073 0.50568 0.01752 0.0
O34 O 0.62657 0.71857 0.12412 0.0
O35 O 0.70178 0.66253 0.08271 0.0
O36 O 0.61864 0.73533 0.7907 0.0
C37 C 0.6796 0.70655 0.14234 0.0
O38 O 0.59874 0.52442 0.12117 0.0
C39 C 0.66235 0.70959 0.74245 0.0
O40 O 0.61139 0.54465 0.93466 0.0
O41 O 0.68261 0.66016 0.78891 0.0
C42 C 0.40539 0.65651 -0.01487 0.0
O43 O 0.39471 0.64756 0.87844 0.0
Cd44 Cd 0.29824 0.62946 0.81272 0.0
O45 O 0.36429 0.65979 0.0596 0.0
Cd46 Cd 0.25549 0.65701 0.05954 0.0
C47 C 0.2644 0.50524 -0.00814 0.0
O48 O 0.24475 0.71812 0.88528 0.0
O49 O 0.16958 0.66201 0.92664 0.0
O50 O 0.2527 0.73485 0.2187 0.0
C51 C 0.19174 0.70605 0.86703 0.0
O52 O 0.27294 0.52401 0.88822 0.0
C53 C 0.20898 0.70909 0.26692 0.0
O54 O 0.26019 0.5442 0.07471 0.0
O55 O 0.18873 0.65968 0.22044 0.0
C56 C 0.90539 0.78687 0.52424 0.0
O57 O 0.89472 0.79581 0.63093 0.0
Cd58 Cd 0.79826 0.81393 0.69668 0.0
O59 O 0.86428 0.78358 0.44978 0.0
Cd60 Cd 0.75549 0.78636 0.44984 0.0
C61 C 0.76441 0.93813 0.51752 0.0
O62 O 0.74476 0.72527 0.62413 0.0
O63 O 0.66957 0.78135 0.58271 0.0
O64 O 0.75268 0.70852 0.29069 0.0
C65 C 0.69174 0.73735 0.64238 0.0
O66 O 0.77296 0.91937 0.62116 0.0
C67 C 0.70898 0.73428 0.24246 0.0
O68 O 0.76019 0.89917 0.43468 0.0
O69 O 0.68873 0.78371 0.28892 0.0
C70 C -0.03401 0.78678 0.48516 0.0
O71 O -0.02331 0.7957 0.37847 0.0
Cd72 Cd 0.07319 0.81357 0.31273 0.0
O73 O 0.00709 0.78339 0.55963 0.0
Cd74 Cd 0.11588 0.78591 0.55954 0.0
C75 C 0.10729 0.9377 0.49185 0.0
O76 O 0.12657 0.72481 0.38522 0.0
O77 O 0.20179 0.78083 0.4267 0.0
O78 O 0.11865 0.70804 0.71867 0.0
C79 C 0.1796 0.73685 0.367 0.0
O80 O 0.09873 0.91895 0.3882 0.0
C81 C 0.16236 0.73379 0.76692 0.0
O82 O 0.11138 0.89872 0.5747 0.0
O83 O 0.18261 0.78322 0.72048 0.0
C84 C -0.03362 0.15651 0.52424 0.0
O85 O -0.02294 0.14756 0.63093 0.0
Cd86 Cd 0.07352 0.12945 0.69667 0.0
O87 O 0.00749 0.1598 0.44978 0.0
Cd88 Cd 0.11628 0.15702 0.44983 0.0
C89 C 0.10737 0.00524 0.51751 0.0
O90 O 0.12701 0.2181 0.62411 0.0
O91 O 0.2022 0.16202 0.5827 0.0
O92 O 0.11908 0.23485 0.29067 0.0
C93 C 0.18003 0.20602 0.64237 0.0
O94 O 0.09882 0.02401 0.62115 0.0
C95 C 0.16279 0.20909 0.24244 0.0
O96 O 0.11158 0.04421 0.43467 0.0
O97 O 0.18303 0.15966 0.28891 0.0
C98 C 0.90578 0.1566 0.48517 0.0
O99 O 0.89508 0.14767 0.37848 0.0
Cd100 Cd 0.79857 0.1298 0.31273 0.0
O101 O 0.86469 0.15999 0.55963 0.0
Cd102 Cd 0.75589 0.15747 0.55955 0.0
C103 C 0.76448 0.00568 0.49186 0.0
O104 O 0.7452 0.21856 0.38524 0.0
O105 O 0.66998 0.16254 0.42671 0.0
O106 O 0.75312 0.23534 0.71868 0.0
C107 C 0.69217 0.20653 0.36702 0.0
O108 O 0.77304 0.02442 0.38821 0.0
C109 C 0.70941 0.20959 0.76693 0.0
O110 O 0.76039 0.04465 0.57471 0.0
O111 O 0.68917 0.16015 0.72049 0.0
loop_
_geom_bond_atom_site_label_1
_geom_bond_atom_site_label_2
_geom_bond_distance
_geom_bond_site_symmetry_2
_ccdc_geom_bond_type
C0 O1 1.306 . S
C0 O3 1.160 1_554 S
O1 C0 1.306 . S
O1 Cd2 2.228 . S
Cd2 O1 2.228 . S
Cd2 O6 2.273 . S
Cd2 O10 2.277 . S
O3 C0 1.160 1_556 S
O3 Cd4 2.203 . S
Cd4 O3 2.203 . S
Cd4 O6 2.411 1_556 S
Cd4 O7 2.333 1_556 S
Cd4 O8 2.352 . S
Cd4 O12 2.277 . S
Cd4 O13 2.356 . S
C5 O10 1.209 . S
C5 O12 1.226 1_554 S
O6 Cd2 2.273 . S
O6 Cd4 2.411 1_554 S
O6 C9 1.320 . S
O7 Cd4 2.333 1_554 S
O7 C9 1.214 . S
O8 Cd4 2.352 . S
O8 C11 1.258 . S
C9 O6 1.320 . S
C9 O7 1.214 . S
O10 Cd2 2.277 . S
O10 C5 1.209 . S
C11 O8 1.258 . S
C11 O13 1.282 . S
O12 Cd4 2.277 . S
O12 C5 1.226 1_556 S
O13 Cd4 2.356 . S
O13 C11 1.282 . S
C14 O15 1.306 1_554 S
C14 O17 1.160 . S
O15 C14 1.306 1_556 S
O15 Cd16 2.228 . S
Cd16 O15 2.228 . S
Cd16 O20 2.273 . S
Cd16 O24 2.277 . S
O17 C14 1.160 . S
O17 Cd18 2.203 . S
Cd18 O17 2.203 . S
Cd18 O20 2.411 1_554 S
Cd18 O21 2.333 1_554 S
Cd18 O22 2.352 . S
Cd18 O26 2.277 . S
Cd18 O27 2.356 . S
C19 O24 1.209 . S
C19 O26 1.226 1_556 S
O20 Cd16 2.273 . S
O20 Cd18 2.411 1_556 S
O20 C23 1.320 . S
O21 Cd18 2.333 1_556 S
O21 C23 1.214 . S
O22 Cd18 2.352 . S
O22 C25 1.258 . S
C23 O20 1.320 . S
C23 O21 1.214 . S
O24 Cd16 2.277 . S
O24 C19 1.209 . S
C25 O22 1.258 . S
C25 O27 1.282 . S
O26 Cd18 2.277 . S
O26 C19 1.226 1_554 S
O27 Cd18 2.356 . S
O27 C25 1.282 . S
C28 O29 1.306 . S
C28 O31 1.160 1_554 S
O29 C28 1.306 . S
O29 Cd30 2.228 . S
Cd30 O29 2.228 . S
Cd30 O34 2.273 . S
Cd30 O38 2.277 . S
O31 C28 1.160 1_556 S
O31 Cd32 2.203 . S
Cd32 O31 2.203 . S
Cd32 O34 2.411 1_556 S
Cd32 O35 2.333 1_556 S
Cd32 O36 2.352 . S
Cd32 O40 2.277 . S
Cd32 O41 2.356 . S
C33 O38 1.209 . S
C33 O40 1.226 1_554 S
O34 Cd30 2.273 . S
O34 Cd32 2.411 1_554 S
O34 C37 1.320 . S
O35 Cd32 2.333 1_554 S
O35 C37 1.214 . S
O36 Cd32 2.352 . S
O36 C39 1.258 . S
C37 O34 1.320 . S
C37 O35 1.214 . S
O38 Cd30 2.277 . S
O38 C33 1.209 . S
C39 O36 1.258 . S
C39 O41 1.282 . S
O40 Cd32 2.277 . S
O40 C33 1.226 1_556 S
O41 Cd32 2.356 . S
O41 C39 1.282 . S
C42 O43 1.306 1_554 S
C42 O45 1.160 . S
O43 C42 1.306 1_556 S
O43 Cd44 2.228 . S
Cd44 O43 2.228 . S
Cd44 O48 2.273 . S
Cd44 O52 2.277 . S
O45 C42 1.160 . S
O45 Cd46 2.203 . S
Cd46 O45 2.203 . S
Cd46 O48 2.411 1_554 S
Cd46 O49 2.333 1_554 S
Cd46 O50 2.352 . S
Cd46 O54 2.277 . S
Cd46 O55 2.356 . S
C47 O52 1.209 . S
C47 O54 1.226 1_556 S
O48 Cd44 2.273 . S
O48 Cd46 2.411 1_556 S
O48 C51 1.320 . S
O49 Cd46 2.333 1_556 S
O49 C51 1.214 . S
O50 Cd46 2.352 . S
O50 C53 1.258 . S
C51 O48 1.320 . S
C51 O49 1.214 . S
O52 Cd44 2.277 . S
O52 C47 1.209 . S
C53 O50 1.258 . S
C53 O55 1.282 . S
O54 Cd46 2.277 . S
O54 C47 1.226 1_554 S
O55 Cd46 2.356 . S
O55 C53 1.282 . S
C56 O57 1.306 . S
C56 O59 1.160 . S
O57 C56 1.306 . S
O57 Cd58 2.228 . S
Cd58 O57 2.228 . S
Cd58 O62 2.273 . S
Cd58 O66 2.277 . S
O59 C56 1.160 . S
O59 Cd60 2.203 . S
Cd60 O59 2.203 . S
Cd60 O62 2.411 . S
Cd60 O63 2.333 . S
Cd60 O64 2.352 . S
Cd60 O68 2.277 . S
Cd60 O69 2.356 . S
C61 O66 1.209 . S
C61 O68 1.226 . S
O62 Cd58 2.273 . S
O62 Cd60 2.411 . S
O62 C65 1.320 . S
O63 Cd60 2.333 . S
O63 C65 1.214 . S
O64 Cd60 2.352 . S
O64 C67 1.258 . S
C65 O62 1.320 . S
C65 O63 1.214 . S
O66 Cd58 2.277 . S
O66 C61 1.209 . S
C67 O64 1.258 . S
C67 O69 1.282 . S
O68 Cd60 2.277 . S
O68 C61 1.226 . S
O69 Cd60 2.356 . S
O69 C67 1.282 . S
C70 O71 1.306 . S
C70 O73 1.160 . S
O71 C70 1.306 . S
O71 Cd72 2.228 . S
Cd72 O71 2.228 . S
Cd72 O76 2.273 . S
Cd72 O80 2.277 . S
O73 C70 1.160 . S
O73 Cd74 2.203 . S
Cd74 O73 2.203 . S
Cd74 O76 2.411 . S
Cd74 O77 2.333 . S
Cd74 O78 2.352 . S
Cd74 O82 2.277 . S
Cd74 O83 2.356 . S
C75 O80 1.209 . S
C75 O82 1.226 . S
O76 Cd72 2.273 . S
O76 Cd74 2.411 . S
O76 C79 1.320 . S
O77 Cd74 2.333 . S
O77 C79 1.214 . S
O78 Cd74 2.352 . S
O78 C81 1.258 . S
C79 O76 1.320 . S
C79 O77 1.214 . S
O80 Cd72 2.277 . S
O80 C75 1.209 . S
C81 O78 1.258 . S
C81 O83 1.282 . S
O82 Cd74 2.277 . S
O82 C75 1.226 . S
O83 Cd74 2.356 . S
O83 C81 1.282 . S
C84 O85 1.306 . S
C84 O87 1.160 . S
O85 C84 1.306 . S
O85 Cd86 2.228 . S
Cd86 O85 2.228 . S
Cd86 O90 2.273 . S
Cd86 O94 2.277 . S
O87 C84 1.160 . S
O87 Cd88 2.203 . S
Cd88 O87 2.203 . S
Cd88 O90 2.411 . S
Cd88 O91 2.333 . S
Cd88 O92 2.352 . S
Cd88 O96 2.277 . S
Cd88 O97 2.356 . S
C89 O94 1.209 . S
C89 O96 1.226 . S
O90 Cd86 2.273 . S
O90 Cd88 2.411 . S
O90 C93 1.320 . S
O91 Cd88 2.333 . S
O91 C93 1.214 . S
O92 Cd88 2.352 . S
O92 C95 1.258 . S
C93 O90 1.320 . S
C93 O91 1.214 . S
O94 Cd86 2.277 . S
O94 C89 1.209 . S
C95 O92 1.258 . S
C95 O97 1.282 . S
O96 Cd88 2.277 . S
O96 C89 1.226 . S
O97 Cd88 2.356 . S
O97 C95 1.282 . S
C98 O99 1.306 . S
C98 O101 1.160 . S
O99 C98 1.306 . S
O99 Cd100 2.228 . S
Cd100 O99 2.228 . S
Cd100 O104 2.273 . S
Cd100 O108 2.277 . S
O101 C98 1.160 . S
O101 Cd102 2.203 . S
Cd102 O101 2.203 . S
Cd102 O104 2.411 . S
Cd102 O105 2.333 . S
Cd102 O106 2.352 . S
Cd102 O110 2.277 . S
Cd102 O111 2.356 . S
C103 O108 1.209 . S
C103 O110 1.226 . S
O104 Cd100 2.273 . S
O104 Cd102 2.411 . S
O104 C107 1.320 . S
O105 Cd102 2.333 . S
O105 C107 1.214 . S
O106 Cd102 2.352 . S
O106 C109 1.258 . S
C107 O104 1.320 . S
C107 O105 1.214 . S
O108 Cd100 2.277 . S
O108 C103 1.209 . S
C109 O106 1.258 . S
C109 O111 1.282 . S
O110 Cd102 2.277 . S
O110 C103 1.226 . S
O111 Cd102 2.356 . S
O111 C109 1.282 . S
C5 C47 1.804 1_554 S
C0 C14 1.582 . S
C19 C33 1.804 1_556 S
C42 C28 1.582 . S
C61 C103 1.804 1_565 S
C70 C56 1.582 1_455 S
C89 C75 1.804 1_545 S
C98 C84 1.582 1_655 S
C95 C9 1.525 . S
C25 C107 1.525 . S
C67 C37 1.525 . S
C79 C53 1.525 . S
C81 C51 1.525 . S
C11 C93 1.525 . S
C23 C109 1.525 . S
C39 C65 1.525 . S
