# Generated by pormake.
# Topology hex, (8)-cn, num edge types: 1
# Building blocks:
#     Node 0, Type 0, BuildingBlock: NUHRAL_clean_sbu_3, # of connection points: 8
#     Edge 1, Type (0, 0), BuildingBlock: MIFKUJ_clean_linker_0, # of connection points: 2
#     Edge 2, Type (0, 0), BuildingBlock: MIFKUJ_clean_linker_0, # of connection points: 2
#     Edge 3, Type (0, 0), BuildingBlock: MIFKUJ_clean_linker_0, # of connection points: 2
#     Edge 4, Type (0, 0), BuildingBlock: MIFKUJ_clean_linker_0, # of connection points: 2
# Relax obj value: 0.037
# Max RMSD: 0.102
# Mean RMSD: 0.102
data_MOF--net-hex--node1-NUHRAL_clean_sbu_3--edge1-MIFKUJ_clean_linker_0
_symmetry_space_group_name_H-M    P1
_symmetry_Int_Tables_number       1
_symmetry_cell_setting            triclinic
loop_
_symmetry_equiv_pos_as_xyz
'x, y, z'
_cell_length_a     27.687523
_cell_length_b     21.095212
_cell_length_c     19.041852
_cell_angle_alpha  113.67354
_cell_angle_beta   100.37894
_cell_angle_gamma 109.17702
loop_
_atom_site_label
_atom_site_type_symbol
_atom_site_fract_x
_atom_site_fract_y
_atom_site_fract_z
_atom_type_partial_charge
C0 C 0.78991 0.88876 0.96159 0.0
C1 C 0.78225 0.82719 0.9779 0.0
C2 C 0.74073 0.80311 0.00713 0.0
C3 C 0.70746 0.84075 0.02102 0.0
C4 C 0.7126 0.89949 0.00196 0.0
C5 C 0.75411 0.92364 0.97231 0.0
O6 O 0.97411 0.05263 0.08528 0.0
Tb7 Tb 0.93263 0.96096 0.95783 0.0
O8 O 0.96077 0.88397 0.98228 0.0
O9 O 0.06099 0.06363 0.11039 0.0
Eu10 Eu 0.07605 0.10008 0.01716 0.0
O11 O 0.85464 0.8672 0.89892 0.0
C12 C 0.18063 0.17811 0.05388 0.0
O13 O 0.86576 0.98634 0.96438 0.0
O14 O 0.04093 0.99172 0.89503 0.0
O15 O 0.95382 0.97992 0.86073 0.0
C16 C 0.83123 0.91249 0.92596 0.0
C17 C 0.05647 0.24863 0.07573 0.0
O18 O 0.10017 0.27418 0.13883 0.0
C19 C 0.01803 0.05803 0.13222 0.0
C20 C 0.99592 0.97527 0.83997 0.0
O21 O 0.03387 0.17565 0.01767 0.0
C22 C 0.23039 0.17162 0.04196 0.0
C23 C 0.29 0.10794 0.03187 0.0
C24 C 0.23997 0.10824 0.03619 0.0
C25 C 0.27061 0.23308 0.04131 0.0
C26 C 0.32077 0.23286 0.03766 0.0
C27 C 0.32967 0.17006 0.03284 0.0
C28 C 0.95195 0.81685 0.92276 0.0
O29 O 0.92828 0.79765 0.84619 0.0
O30 O 0.14272 0.16485 0.99044 0.0
O31 O 0.16049 0.15159 0.09912 0.0
H32 H 0.80689 0.79627 0.96527 0.0
H33 H 0.67376 0.8189 0.03969 0.0
H34 H 0.75775 0.96815 0.95586 0.0
H35 H 0.20947 0.06067 0.03671 0.0
H36 H 0.26359 0.28211 0.04636 0.0
H37 H 0.36812 0.16913 0.02972 0.0
H38 H 0.08185 0.39577 0.19145 0.0
H39 H 0.06125 0.49218 0.16926 0.0
H40 H 0.97197 0.3251 0.91198 0.0
H41 H 0.99165 0.228 0.93384 0.0
H42 H 0.05241 0.46764 0.94324 0.0
H43 H 0.90333 0.37519 0.02862 0.0
H44 H 0.86057 0.34407 0.12079 0.0
H45 H 0.95025 0.58159 0.31183 0.0
H46 H 0.99436 0.61391 0.22127 0.0
H47 H 0.9348 0.67155 0.81441 0.0
H48 H 0.95214 0.57769 0.84526 0.0
H49 H 0.0163 0.74136 0.1048 0.0
H50 H 0.99807 0.83541 0.07435 0.0
H51 H 0.95111 0.60361 0.07744 0.0
H52 H 0.10142 0.69942 0.0009 0.0
H53 H 0.14919 0.73633 0.91596 0.0
H54 H 0.06502 0.50121 0.71859 0.0
H55 H 0.01611 0.46303 0.80197 0.0
C56 C 0.05709 0.37913 0.13036 0.0
C57 C 0.03839 0.30407 0.06444 0.0
C58 C 0.04532 0.43435 0.11781 0.0
C59 C 0.01511 0.41596 0.03893 0.0
C60 C 0.99538 0.34061 0.97336 0.0
C61 C 1.00641 0.28502 0.98608 0.0
C62 C 1.00663 0.4763 0.02395 0.0
C63 C 0.02954 0.49658 0.9716 0.0
C64 C 0.97874 0.51632 0.0636 0.0
C65 C 0.95269 0.49678 0.11843 0.0
C66 C 0.91447 0.42063 0.0906 0.0
C67 C 0.88988 0.4028 0.14251 0.0
C68 C 0.90284 0.46075 0.22222 0.0
C69 C 0.94036 0.5367 0.25015 0.0
C70 C 0.96517 0.5548 0.19855 0.0
C71 C 0.95291 0.68795 0.87812 0.0
C72 C 0.96518 0.76129 0.94184 0.0
C73 C 0.96302 0.63414 0.89571 0.0
C74 C 0.98615 0.65245 0.97742 0.0
C75 C 0.99849 0.7257 0.04126 0.0
C76 C 0.98826 0.77961 0.0237 0.0
C77 C 0.99636 0.59448 0.99582 0.0
C78 C 0.974 0.57479 0.04902 0.0
C79 C 0.0256 0.55583 0.95806 0.0
C80 C 0.05466 0.57852 0.90742 0.0
C81 C 0.0927 0.65569 0.93911 0.0
C82 C 0.12007 0.67683 0.8913 0.0
C83 C 0.11003 0.62119 0.81184 0.0
C84 C 0.07268 0.54426 0.7801 0.0
C85 C 0.04516 0.52283 0.82764 0.0
H86 H 0.13129 0.63765 0.77494 0.0
H87 H 0.88368 0.44685 0.26225 0.0
H88 H 0.67584 0.94939 0.12729 0.0
H89 H 0.58915 0.95825 0.11747 0.0
H90 H 0.56342 0.91674 0.86969 0.0
H91 H 0.64942 0.905 0.87833 0.0
H92 H 0.538 0.03238 0.96155 0.0
H93 H 0.49246 0.77257 0.8899 0.0
H94 H 0.49118 0.65695 0.89457 0.0
H95 H 0.46005 0.73201 0.11984 0.0
H96 H 0.4618 0.84868 0.11718 0.0
H97 H 0.26002 0.97013 0.89706 0.0
H98 H 0.31847 0.90346 0.8778 0.0
H99 H 0.41744 0.04725 0.13576 0.0
H100 H 0.35823 0.11193 0.15551 0.0
H101 H 0.39513 0.85921 0.01263 0.0
H102 H 0.51759 0.15728 0.07612 0.0
H103 H 0.50459 0.26092 0.05833 0.0
H104 H 0.373 0.09162 0.82734 0.0
H105 H 0.38688 0.9873 0.84232 0.0
C106 C 0.65197 0.94316 0.07111 0.0
C107 C 0.66909 0.92591 0.00337 0.0
C108 C 0.60229 0.94753 0.06531 0.0
C109 C 0.56916 0.93604 0.99209 0.0
C110 C 0.5881 0.92474 0.9264 0.0
C111 C 0.63758 0.9192 0.93178 0.0
C112 C 0.51516 0.93696 0.98513 0.0
C113 C 0.50656 0.99351 0.97136 0.0
C114 C 0.47375 0.88608 0.99755 0.0
C115 C 0.47752 0.81969 0.0035 0.0
C116 C 0.48618 0.76512 0.94114 0.0
C117 C 0.48489 0.69903 0.94305 0.0
C118 C 0.47478 0.68667 0.00686 0.0
C119 C 0.46723 0.74126 0.06995 0.0
C120 C 0.46843 0.80742 0.06831 0.0
C121 C 0.29189 0.98356 0.95045 0.0
C122 C 0.30451 0.0456 0.02786 0.0
C123 C 0.32568 0.94619 0.93928 0.0
C124 C 0.37275 0.97163 0.00516 0.0
C125 C 0.38125 0.02681 0.08426 0.0
C126 C 0.34712 0.06327 0.09564 0.0
C127 C 0.41885 0.9547 0.98995 0.0
C128 C 0.42638 0.89651 0.00108 0.0
C129 C 0.45876 1.00243 0.97298 0.0
C130 C 0.45256 0.06476 0.96109 0.0
C131 C 0.48619 0.14239 0.02133 0.0
C132 C 0.47872 0.20116 0.01166 0.0
C133 C 0.43746 0.1827 0.94226 0.0
C134 C 0.40457 0.10566 0.88136 0.0
C135 C 0.4124 0.04679 0.89024 0.0
H136 H 0.43091 0.22799 0.93552 0.0
H137 H 0.47337 0.63515 0.00786 0.0
H138 H 0.31388 0.30249 0.94389 0.0
H139 H 0.39089 0.39544 0.93497 0.0
H140 H 0.50457 0.39812 0.12454 0.0
H141 H 0.42826 0.30794 0.1358 0.0
H142 H 0.50424 0.55377 0.1176 0.0
H143 H 0.57287 0.32773 0.94894 0.0
H144 H 0.53714 0.19299 0.83805 0.0
H145 H 0.39274 0.20294 0.72562 0.0
H146 H 0.42844 0.33826 0.83435 0.0
H147 H 0.75867 0.78223 0.14007 0.0
H148 H 0.69486 0.67399 0.14667 0.0
H149 H 0.61064 0.55688 0.88395 0.0
H150 H 0.67665 0.66192 0.87719 0.0
H151 H 0.59367 0.45467 0.92385 0.0
H152 H 0.58682 0.69912 0.03666 0.0
H153 H 0.61494 0.83652 0.1304 0.0
H154 H 0.62828 0.79667 0.33545 0.0
H155 H 0.59894 0.6583 0.24255 0.0
C156 C 0.35525 0.32409 0.98454 0.0
C157 C 0.3652 0.29739 0.03984 0.0
C158 C 0.39915 0.37603 0.97849 0.0
C159 C 0.45337 0.4009 0.02683 0.0
C160 C 0.46305 0.37789 0.08527 0.0
C161 C 0.41943 0.32674 0.09185 0.0
C162 C 0.50057 0.45313 0.01947 0.0
C163 C 0.52393 0.53241 0.07528 0.0
C164 C 0.52582 0.42491 0.96385 0.0
C165 C 0.50252 0.34229 0.90121 0.0
C166 C 0.53334 0.30091 0.90081 0.0
C167 C 0.51336 0.2247 0.8379 0.0
C168 C 0.46262 0.18934 0.77496 0.0
C169 C 0.43185 0.23019 0.77471 0.0
C170 C 0.45185 0.30658 0.83717 0.0
C171 C 0.72864 0.73095 0.08343 0.0
C172 C 0.72251 0.72975 0.00806 0.0
C173 C 0.69143 0.66987 0.08727 0.0
C174 C 0.64639 0.6088 0.01629 0.0
C175 C 0.64453 0.60352 0.93982 0.0
C176 C 0.68264 0.66331 0.93573 0.0
C177 C 0.59772 0.5563 0.02176 0.0
C178 C 0.57436 0.47665 0.96649 0.0
C179 C 0.57155 0.58467 0.07633 0.0
C180 C 0.59098 0.66835 0.13262 0.0
C181 C 0.59607 0.71967 0.10179 0.0
C182 C 0.61216 0.79777 0.15477 0.0
C183 C 0.62391 0.82557 0.23892 0.0
C184 C 0.61926 0.77513 0.27024 0.0
C185 C 0.6026 0.69675 0.21737 0.0
H186 H 0.63639 0.88612 0.27979 0.0
H187 H 0.44712 0.13027 0.72647 0.0
H188 H 0.91295 0.95077 0.71504 0.0
H189 H 0.91763 0.95603 0.5908 0.0
H190 H 0.08506 0.98946 0.65762 0.0
H191 H 0.08111 0.98578 0.7833 0.0
H192 H 0.07676 0.09373 0.61926 0.0
H193 H 0.97958 0.81889 0.49289 0.0
H194 H 0.907 0.69344 0.45742 0.0
H195 H 0.78516 0.7435 0.34757 0.0
H196 H 0.85694 0.8697 0.3833 0.0
H197 H 0.10057 0.06411 0.24215 0.0
H198 H 0.09741 0.0444 0.35947 0.0
H199 H 0.9311 0.01592 0.30788 0.0
H200 H 0.93358 0.03448 0.18961 0.0
H201 H 0.94116 0.90534 0.3366 0.0
H202 H 0.03773 0.1821 0.46854 0.0
H203 H 0.11022 0.30715 0.50281 0.0
H204 H 0.23304 0.25264 0.6018 0.0
H205 H 0.16128 0.12675 0.56712 0.0
C206 C 0.95062 0.95821 0.70296 0.0
C207 C 0.99678 0.96834 0.75957 0.0
C208 C 0.9531 0.96077 0.63146 0.0
C209 C 1.0016 0.9727 0.61446 0.0
C210 C 0.0472 0.98023 0.66945 0.0
C211 C 0.04479 0.97783 0.74117 0.0
C212 C 1.00589 0.98323 0.54278 0.0
C213 C 0.04769 0.05177 0.55719 0.0
C214 C 0.96704 0.92962 0.4621 0.0
C215 C 0.92365 0.85416 0.44156 0.0
C216 C 0.93727 0.80352 0.46192 0.0
C217 C 0.89627 0.73217 0.44159 0.0
C218 C 0.84149 0.71062 0.40052 0.0
C219 C 0.8276 0.76032 0.37953 0.0
C220 C 0.86844 0.83173 0.39974 0.0
C221 C 0.06342 0.05427 0.25603 0.0
C222 C 0.0174 0.05123 0.20659 0.0
C223 C 0.06174 0.04317 0.32333 0.0
C224 C 0.01417 0.02929 0.34291 0.0
C225 C 0.96826 0.02658 0.29393 0.0
C226 C 0.96987 0.03764 0.22658 0.0
C227 C 0.01182 0.01586 0.41333 0.0
C228 C 0.97038 0.94694 0.39866 0.0
C229 C 0.05094 0.06908 0.49379 0.0
C230 C 0.09416 0.14463 0.51438 0.0
C231 C 0.08022 0.19647 0.49693 0.0
C232 C 0.12118 0.26757 0.51657 0.0
C233 C 0.17621 0.28773 0.55422 0.0
C234 C 0.1904 0.23689 0.5725 0.0
C235 C 0.1496 0.16568 0.55291 0.0
H236 H 0.20785 0.34282 0.56943 0.0
H237 H 0.80982 0.65534 0.38478 0.0
loop_
_geom_bond_atom_site_label_1
_geom_bond_atom_site_label_2
_geom_bond_distance
_geom_bond_site_symmetry_2
_ccdc_geom_bond_type
C0 C1 1.387 . S
C0 C5 1.380 . S
C0 C16 1.494 . S
C1 C0 1.387 . S
C1 C2 1.386 1_556 S
C1 H32 0.930 . S
C2 C1 1.386 1_554 S
C2 C3 1.397 . S
C3 C2 1.397 . S
C3 C4 1.393 1_554 S
C3 H33 0.930 . S
C4 C3 1.393 1_556 S
C4 C5 1.395 . S
C5 C0 1.380 . S
C5 C4 1.395 . S
C5 H34 0.930 . S
O6 Tb7 2.295 1_554 S
O6 C19 1.242 1_665 S
Tb7 O6 2.295 1_556 S
Tb7 O8 2.312 . S
Tb7 O11 2.438 . S
Tb7 O13 2.472 . S
Tb7 O15 2.308 . S
Tb7 C16 2.821 . S
O8 Tb7 2.312 . S
O8 C28 1.264 1_655 S
O9 Eu10 2.308 . S
O9 C19 1.243 . S
Eu10 O9 2.308 . S
Eu10 C12 2.821 . S
Eu10 O14 2.295 1_554 S
Eu10 O21 2.312 . S
Eu10 O30 2.438 . S
Eu10 O31 2.472 . S
O11 Tb7 2.438 . S
O11 C16 1.263 . S
C12 Eu10 2.821 . S
C12 C22 1.494 . S
C12 O30 1.263 . S
C12 O31 1.264 . S
O13 Tb7 2.472 . S
O13 C16 1.264 . S
O14 Eu10 2.295 1_556 S
O14 C20 1.242 1_445 S
O15 Tb7 2.308 . S
O15 C20 1.243 . S
C16 C0 1.494 . S
C16 Tb7 2.821 . S
C16 O11 1.263 . S
C16 O13 1.264 . S
C17 O18 1.260 . S
C17 O21 1.264 1_655 S
O18 C17 1.260 . S
C19 O6 1.242 1_445 S
C19 O9 1.243 . S
C20 O14 1.242 1_665 S
C20 O15 1.243 . S
O21 Eu10 2.312 . S
O21 C17 1.264 1_455 S
C22 C12 1.494 . S
C22 C24 1.380 . S
C22 C25 1.387 . S
C23 C24 1.395 . S
C23 C27 1.393 1_554 S
C24 C22 1.380 . S
C24 C23 1.395 . S
C24 H35 0.930 . S
C25 C22 1.387 . S
C25 C26 1.386 1_554 S
C25 H36 0.930 . S
C26 C25 1.386 1_556 S
C26 C27 1.397 . S
C27 C23 1.393 1_556 S
C27 C26 1.397 . S
C27 H37 0.930 . S
C28 O8 1.264 1_455 S
C28 O29 1.260 . S
O29 C28 1.260 . S
O30 Eu10 2.438 . S
O30 C12 1.263 . S
O31 Eu10 2.472 . S
O31 C12 1.264 . S
H32 C1 0.930 . S
H33 C3 0.930 . S
H34 C5 0.930 . S
H35 C24 0.930 . S
H36 C25 0.930 . S
H37 C27 0.930 . S
H38 C56 0.951 . S
H39 C58 0.951 . S
H40 C60 0.950 . S
H41 C61 0.950 . S
H42 C63 0.950 . S
H43 C66 0.950 1_556 S
H44 C67 0.950 . S
H45 C69 0.950 . S
H46 C70 0.950 . S
H47 C71 0.951 . S
H48 C73 0.951 . S
H49 C75 0.950 . S
H50 C76 0.950 . S
H51 C78 0.950 . S
H52 C81 0.950 1_554 S
H53 C82 0.950 . S
H54 C84 0.950 . S
H55 C85 0.950 . S
C56 H38 0.951 . S
C56 C57 1.366 1_455 S
C56 C58 1.388 . S
C57 C56 1.366 1_655 S
C57 C61 1.385 1_554 S
C58 H39 0.951 . S
C58 C56 1.388 . S
C58 C59 1.366 1_455 S
C59 C58 1.366 1_655 S
C59 C60 1.414 1_554 S
C59 C62 1.495 1_554 S
C60 H40 0.950 . S
C60 C59 1.414 1_556 S
C60 C61 1.374 . S
C61 H41 0.950 . S
C61 C57 1.385 1_556 S
C61 C60 1.374 . S
C62 C59 1.495 1_556 S
C62 C63 1.381 1_655 S
C62 C64 1.386 1_556 S
C63 H42 0.950 . S
C63 C62 1.381 1_455 S
C63 C79 1.377 . S
C64 C62 1.386 1_554 S
C64 C65 1.524 . S
C64 C78 1.377 . S
C65 C64 1.524 . S
C65 C66 1.397 . S
C65 C70 1.363 . S
C66 H43 0.950 1_554 S
C66 C65 1.397 . S
C66 C67 1.334 . S
C67 H44 0.950 . S
C67 C66 1.334 . S
C67 C68 1.287 . S
C68 C67 1.287 . S
C68 C69 1.524 . S
C68 H87 0.913 . S
C69 H45 0.950 . S
C69 C68 1.524 . S
C69 C70 1.415 . S
C70 H46 0.950 . S
C70 C65 1.363 . S
C70 C69 1.415 . S
C71 H47 0.951 . S
C71 C72 1.366 1_655 S
C71 C73 1.388 . S
C72 C71 1.366 1_455 S
C72 C76 1.385 1_556 S
C73 H48 0.951 . S
C73 C71 1.388 . S
C73 C74 1.366 1_655 S
C74 C73 1.366 1_455 S
C74 C75 1.414 1_556 S
C74 C77 1.493 1_556 S
C75 H49 0.950 . S
C75 C74 1.414 1_554 S
C75 C76 1.374 . S
C76 H50 0.950 . S
C76 C72 1.385 1_554 S
C76 C75 1.374 . S
C77 C74 1.493 1_554 S
C77 C78 1.384 1_455 S
C77 C79 1.385 1_554 S
C78 H51 0.950 . S
C78 C64 1.377 . S
C78 C77 1.384 1_655 S
C79 C63 1.377 . S
C79 C77 1.385 1_556 S
C79 C80 1.524 . S
C80 C79 1.524 . S
C80 C81 1.397 . S
C80 C85 1.363 . S
C81 H52 0.950 1_556 S
C81 C80 1.397 . S
C81 C82 1.334 . S
C82 H53 0.950 . S
C82 C81 1.334 . S
C82 C83 1.287 . S
C83 C82 1.287 . S
C83 C84 1.524 . S
C83 H86 0.999 . S
C84 H54 0.950 . S
C84 C83 1.524 . S
C84 C85 1.415 . S
C85 H55 0.950 . S
C85 C80 1.363 . S
C85 C84 1.415 . S
H86 C83 0.999 . S
H87 C68 0.913 . S
H88 C106 0.951 1_545 S
H89 C108 0.951 1_545 S
H90 C110 0.950 . S
H91 C111 0.950 . S
H92 C113 0.950 . S
H93 C116 0.950 1_556 S
H94 C117 0.950 1_556 S
H95 C119 0.950 . S
H96 C120 0.950 . S
H97 C121 0.951 1_565 S
H98 C123 0.951 1_565 S
H99 C125 0.950 . S
H100 C126 0.950 . S
H101 C128 0.950 . S
H102 C131 0.950 1_554 S
H103 C132 0.950 1_554 S
H104 C134 0.950 . S
H105 C135 0.950 . S
C106 H88 0.951 1_565 S
C106 C107 1.366 1_554 S
C106 C108 1.388 . S
C107 C106 1.366 1_556 S
C107 C111 1.385 . S
C108 H89 0.951 1_565 S
C108 C106 1.388 . S
C108 C109 1.366 1_554 S
C109 C108 1.366 1_556 S
C109 C110 1.414 . S
C109 C112 1.499 . S
C110 H90 0.950 . S
C110 C109 1.414 . S
C110 C111 1.374 . S
C111 H91 0.950 . S
C111 C107 1.385 . S
C111 C110 1.374 . S
C112 C109 1.499 . S
C112 C113 1.373 1_565 S
C112 C114 1.389 1_556 S
C113 H92 0.950 . S
C113 C112 1.373 1_545 S
C113 C129 1.377 . S
C114 C112 1.389 1_554 S
C114 C115 1.524 . S
C114 C128 1.377 . S
C115 C114 1.524 . S
C115 C116 1.397 . S
C115 C120 1.363 . S
C116 H93 0.950 1_554 S
C116 C115 1.397 . S
C116 C117 1.334 . S
C117 H94 0.950 1_554 S
C117 C116 1.334 . S
C117 C118 1.287 . S
C118 C117 1.287 . S
C118 C119 1.524 . S
C118 H137 0.913 . S
C119 H95 0.950 . S
C119 C118 1.524 . S
C119 C120 1.415 . S
C120 H96 0.950 . S
C120 C115 1.363 . S
C120 C119 1.415 . S
C121 H97 0.951 1_545 S
C121 C122 1.366 1_556 S
C121 C123 1.388 . S
C122 C121 1.366 1_554 S
C122 C126 1.385 . S
C123 H98 0.951 1_545 S
C123 C121 1.388 . S
C123 C124 1.366 1_556 S
C124 C123 1.366 1_554 S
C124 C125 1.414 . S
C124 C127 1.499 . S
C125 H99 0.950 . S
C125 C124 1.414 . S
C125 C126 1.374 . S
C126 H100 0.950 . S
C126 C122 1.385 . S
C126 C125 1.374 . S
C127 C124 1.499 . S
C127 C128 1.373 1_545 S
C127 C129 1.389 1_554 S
C128 H101 0.950 . S
C128 C114 1.377 . S
C128 C127 1.373 1_565 S
C129 C113 1.377 . S
C129 C127 1.389 1_556 S
C129 C130 1.524 . S
C130 C129 1.524 . S
C130 C131 1.397 . S
C130 C135 1.363 . S
C131 H102 0.950 1_556 S
C131 C130 1.397 . S
C131 C132 1.334 . S
C132 H103 0.950 1_556 S
C132 C131 1.334 . S
C132 C133 1.287 . S
C133 C132 1.287 . S
C133 C134 1.524 . S
C133 H136 0.999 . S
C134 H104 0.950 . S
C134 C133 1.524 . S
C134 C135 1.415 . S
C135 H105 0.950 . S
C135 C130 1.363 . S
C135 C134 1.415 . S
H136 C133 0.999 . S
H137 C118 0.913 . S
H138 C156 0.951 . S
H139 C158 0.951 . S
H140 C160 0.950 . S
H141 C161 0.950 . S
H142 C163 0.950 . S
H143 C166 0.950 . S
H144 C167 0.950 . S
H145 C169 0.950 . S
H146 C170 0.950 . S
H147 C171 0.951 . S
H148 C173 0.951 . S
H149 C175 0.950 . S
H150 C176 0.950 . S
H151 C178 0.950 . S
H152 C181 0.950 . S
H153 C182 0.950 . S
H154 C184 0.950 . S
H155 C185 0.950 . S
C156 H138 0.951 . S
C156 C157 1.366 . S
C156 C158 1.388 . S
C157 C156 1.366 . S
C157 C161 1.385 1_556 S
C158 H139 0.951 . S
C158 C156 1.388 . S
C158 C159 1.366 . S
C159 C158 1.366 . S
C159 C160 1.414 1_556 S
C159 C162 1.499 . S
C160 H140 0.950 . S
C160 C159 1.414 1_554 S
C160 C161 1.374 . S
C161 H141 0.950 . S
C161 C157 1.385 1_554 S
C161 C160 1.374 . S
C162 C159 1.499 . S
C162 C163 1.373 1_556 S
C162 C164 1.389 . S
C163 H142 0.950 . S
C163 C162 1.373 1_554 S
C163 C179 1.377 . S
C164 C162 1.389 . S
C164 C165 1.524 . S
C164 C178 1.377 . S
C165 C164 1.524 . S
C165 C166 1.397 . S
C165 C170 1.363 . S
C166 H143 0.950 . S
C166 C165 1.397 . S
C166 C167 1.334 . S
C167 H144 0.950 . S
C167 C166 1.334 . S
C167 C168 1.287 . S
C168 C167 1.287 . S
C168 C169 1.524 . S
C168 H187 0.913 . S
C169 H145 0.950 . S
C169 C168 1.524 . S
C169 C170 1.415 . S
C170 H146 0.950 . S
C170 C165 1.363 . S
C170 C169 1.415 . S
C171 H147 0.951 . S
C171 C172 1.366 . S
C171 C173 1.388 . S
C172 C171 1.366 . S
C172 C176 1.385 1_554 S
C173 H148 0.951 . S
C173 C171 1.388 . S
C173 C174 1.366 . S
C174 C173 1.366 . S
C174 C175 1.414 1_554 S
C174 C177 1.499 . S
C175 H149 0.950 . S
C175 C174 1.414 1_556 S
C175 C176 1.374 . S
C176 H150 0.950 . S
C176 C172 1.385 1_556 S
C176 C175 1.374 . S
C177 C174 1.499 . S
C177 C178 1.373 1_554 S
C177 C179 1.389 . S
C178 H151 0.950 . S
C178 C164 1.377 . S
C178 C177 1.373 1_556 S
C179 C163 1.377 . S
C179 C177 1.389 . S
C179 C180 1.524 . S
C180 C179 1.524 . S
C180 C181 1.397 . S
C180 C185 1.363 . S
C181 H152 0.950 . S
C181 C180 1.397 . S
C181 C182 1.334 . S
C182 H153 0.950 . S
C182 C181 1.334 . S
C182 C183 1.287 . S
C183 C182 1.287 . S
C183 C184 1.524 . S
C183 H186 0.999 . S
C184 H154 0.950 . S
C184 C183 1.524 . S
C184 C185 1.415 . S
C185 H155 0.950 . S
C185 C180 1.363 . S
C185 C184 1.415 . S
H186 C183 0.999 . S
H187 C168 0.913 . S
H188 C206 0.951 . S
H189 C208 0.951 . S
H190 C210 0.950 . S
H191 C211 0.950 . S
H192 C213 0.950 . S
H193 C216 0.950 . S
H194 C217 0.950 . S
H195 C219 0.950 . S
H196 C220 0.950 . S
H197 C221 0.951 . S
H198 C223 0.951 . S
H199 C225 0.950 . S
H200 C226 0.950 . S
H201 C228 0.950 . S
H202 C231 0.950 . S
H203 C232 0.950 . S
H204 C234 0.950 . S
H205 C235 0.950 . S
C206 H188 0.951 . S
C206 C207 1.368 1_665 S
C206 C208 1.388 . S
C207 C206 1.368 1_445 S
C207 C211 1.384 . S
C208 H189 0.951 . S
C208 C206 1.388 . S
C208 C209 1.389 . S
C209 C208 1.389 . S
C209 C210 1.395 1_665 S
C209 C212 1.492 1_655 S
C210 H190 0.950 . S
C210 C209 1.395 1_445 S
C210 C211 1.374 . S
C211 H191 0.950 . S
C211 C207 1.384 . S
C211 C210 1.374 . S
C212 C209 1.492 1_455 S
C212 C213 1.379 1_565 S
C212 C214 1.385 1_455 S
C213 H192 0.950 . S
C213 C212 1.379 1_545 S
C213 C229 1.377 . S
C214 C212 1.385 1_655 S
C214 C215 1.524 . S
C214 C228 1.377 . S
C215 C214 1.524 . S
C215 C216 1.397 . S
C215 C220 1.363 . S
C216 H193 0.950 . S
C216 C215 1.397 . S
C216 C217 1.334 . S
C217 H194 0.950 . S
C217 C216 1.334 . S
C217 C218 1.287 . S
C218 C217 1.287 . S
C218 C219 1.524 . S
C218 H237 0.913 . S
C219 H195 0.950 . S
C219 C218 1.524 . S
C219 C220 1.415 . S
C220 H196 0.950 . S
C220 C215 1.363 . S
C220 C219 1.415 . S
C221 H197 0.951 . S
C221 C222 1.366 1_545 S
C221 C223 1.388 . S
C222 C221 1.366 1_565 S
C222 C226 1.385 1_455 S
C223 H198 0.951 . S
C223 C221 1.388 . S
C223 C224 1.366 . S
C224 C223 1.366 . S
C224 C225 1.414 1_445 S
C224 C227 1.498 1_455 S
C225 H199 0.950 . S
C225 C224 1.414 1_665 S
C225 C226 1.374 . S
C226 H200 0.950 . S
C226 C222 1.385 1_655 S
C226 C225 1.374 . S
C227 C224 1.498 1_655 S
C227 C228 1.376 1_545 S
C227 C229 1.388 1_655 S
C228 H201 0.950 . S
C228 C214 1.377 . S
C228 C227 1.376 1_565 S
C229 C213 1.377 . S
C229 C227 1.388 1_455 S
C229 C230 1.524 . S
C230 C229 1.524 . S
C230 C231 1.397 . S
C230 C235 1.363 . S
C231 H202 0.950 . S
C231 C230 1.397 . S
C231 C232 1.334 . S
C232 H203 0.950 . S
C232 C231 1.334 . S
C232 C233 1.287 . S
C233 C232 1.287 . S
C233 C234 1.524 . S
C233 H236 0.999 . S
C234 H204 0.950 . S
C234 C233 1.524 . S
C234 C235 1.415 . S
C235 H205 0.950 . S
C235 C230 1.363 . S
C235 C234 1.415 . S
H236 C233 0.999 . S
H237 C218 0.913 . S
C57 C17 0.422 . S
C72 C28 0.422 . S
C107 C4 2.161 . S
C122 C23 2.161 . S
C157 C26 1.913 . S
C172 C2 1.913 . S
C207 C20 1.489 1_445 S
C222 C19 1.491 1_565 S
