# Generated by pormake.
# Topology hex, (8)-cn, num edge types: 1
# Building blocks:
#     Node 0, Type 0, BuildingBlock: TAGTUT_clean_sbu_1, # of connection points: 8
#     Edge 1, Type (0, 0), BuildingBlock: AJUNOK_clean_linker_0, # of connection points: 2
#     Edge 2, Type (0, 0), BuildingBlock: AJUNOK_clean_linker_0, # of connection points: 2
#     Edge 3, Type (0, 0), BuildingBlock: AJUNOK_clean_linker_0, # of connection points: 2
#     Edge 4, Type (0, 0), BuildingBlock: AJUNOK_clean_linker_0, # of connection points: 2
# Relax obj value: 0.060
# Max RMSD: 0.160
# Mean RMSD: 0.160
data_MOF--net-hex--node1-TAGTUT_clean_sbu_1--edge1-AJUNOK_clean_linker_0
_symmetry_space_group_name_H-M    P1
_symmetry_Int_Tables_number       1
_symmetry_cell_setting            triclinic
loop_
_symmetry_equiv_pos_as_xyz
'x, y, z'
_cell_length_a     14.557604
_cell_length_b     16.242835
_cell_length_c     11.97993
_cell_angle_alpha  88.126795
_cell_angle_beta   99.069925
_cell_angle_gamma 135.33854
loop_
_atom_site_label
_atom_site_type_symbol
_atom_site_fract_x
_atom_site_fract_y
_atom_site_fract_z
_atom_type_partial_charge
C0 C 0.93882 0.30034 0.97835 0.0
C1 C 0.63838 0.95835 0.01652 0.0
C2 C 0.03422 0.99833 0.25664 0.0
Mg3 Mg 0.8221 0.07103 0.85193 0.0
O4 O 0.94824 0.10009 0.96301 0.0
Mg5 Mg 0.96719 0.14008 0.12617 0.0
Mg6 Mg -0.02298 0.99786 0.97906 0.0
O7 O 0.00802 0.89672 -0.00172 0.0
Mg8 Mg 0.15159 0.94733 0.10412 0.0
Mg9 Mg -0.01095 0.85687 0.83511 0.0
C10 C 0.9227 1.00131 0.69945 0.0
C11 C 0.70472 0.7205 0.9054 0.0
O12 O 0.96876 0.27503 0.06968 0.0
O13 O 0.88488 0.23607 0.8829 0.0
O14 O 0.73566 0.0124 0.1022 0.0
O15 O 0.64759 0.93821 0.91899 0.0
O16 O 0.86507 0.0339 0.70678 0.0
O17 O 0.96863 0.98483 0.78831 0.0
C18 C 0.25118 0.27495 0.05947 0.0
O19 O 0.19656 0.17912 0.00305 0.0
O20 O 0.18862 0.27543 0.12298 0.0
O21 O 0.00262 0.73161 0.89604 0.0
O22 O 0.11039 0.79279 0.07802 0.0
O23 O 0.22018 0.99199 0.849 0.0
C24 C 0.04961 0.72021 -0.01226 0.0
O25 O 0.30855 0.08578 0.02329 0.0
O26 O 0.10377 0.97792 0.2497 0.0
C27 C 0.3185 0.05447 0.93385 0.0
O28 O -0.01919 0.00785 0.16813 0.0
O29 O 0.75881 0.81871 0.95509 0.0
O30 O 0.76736 0.71625 0.84579 0.0
C31 C 0.94799 0.4439 0.88342 0.0
C32 C 0.9704 0.40892 -0.01622 0.0
C33 C -0.02345 0.54594 0.88574 0.0
C34 C 0.02825 0.61697 -0.01142 0.0
H35 H 0.90785 0.39224 0.80199 0.0
H36 H 0.95693 0.56857 0.80581 0.0
S37 S 0.10693 0.5654 0.27575 0.0
N38 N 0.04972 0.45458 0.18953 0.0
N39 N 0.10227 0.64621 0.19352 0.0
C40 C 0.05281 0.58407 0.0897 0.0
C41 C 0.02398 0.48003 0.08742 0.0
C42 C 0.43236 0.90438 0.92519 0.0
C43 C 0.54636 0.97137 0.0123 0.0
C44 C 0.36343 0.93518 0.8962 0.0
C45 C 0.40495 0.03452 0.95323 0.0
H46 H 0.39865 0.82948 0.87601 0.0
H47 H 0.27559 0.87919 0.82941 0.0
S48 S 0.69631 0.23981 0.18864 0.0
N49 N 0.6964 0.14184 0.15656 0.0
N50 N 0.56696 0.19923 0.10188 0.0
C51 C 0.51738 0.10125 0.04177 0.0
C52 C 0.58729 0.06953 0.07184 0.0
C53 C 0.43352 0.39403 0.94479 0.0
C54 C 0.37415 0.39088 0.02935 0.0
C55 C 0.5348 0.49952 0.90093 0.0
C56 C 0.58183 0.60737 0.9391 0.0
H57 H 0.40017 0.31387 0.91038 0.0
H58 H 0.57792 0.4963 0.83754 0.0
S59 S 0.45969 0.64864 0.15891 0.0
N60 N 0.37106 0.50696 0.14967 0.0
N61 N 0.55933 0.70349 0.06673 0.0
C62 C 0.52297 0.60559 0.02332 0.0
C63 C 0.42055 0.49834 0.06877 0.0
C64 C 0.96149 0.06835 0.50674 0.0
C65 C 0.94558 0.99426 0.58571 0.0
C66 C -0.01028 0.06951 0.39989 0.0
C67 C 0.00459 0.99763 0.36882 0.0
H68 H 0.95452 0.12781 0.52829 0.0
H69 H 0.0025 0.12861 0.34246 0.0
S70 S 0.95442 0.77599 0.53694 0.0
N71 N 0.93223 0.83815 0.61906 0.0
N72 N -0.01006 0.84279 0.42047 0.0
C73 C -0.01457 0.92086 0.44537 0.0
C74 C 0.9549 0.91863 0.55336 0.0
loop_
_geom_bond_atom_site_label_1
_geom_bond_atom_site_label_2
_geom_bond_distance
_geom_bond_site_symmetry_2
_ccdc_geom_bond_type
C0 O12 1.241 1_656 S
C0 O13 1.280 . S
C1 O14 1.277 . S
C1 O15 1.245 1_544 S
C2 O26 1.247 . S
C2 O28 1.289 . S
Mg3 O4 1.926 . S
Mg3 O13 1.984 . S
Mg3 O15 1.988 1_545 S
Mg3 O16 2.061 1_545 S
O4 Mg3 1.926 . S
O4 Mg5 1.988 1_656 S
O4 Mg6 1.917 1_656 S
Mg5 O4 1.988 1_454 S
Mg5 O12 2.039 . S
Mg5 O14 2.034 1_455 S
Mg5 O20 2.045 . S
Mg5 O28 2.242 . S
Mg6 O4 1.917 1_454 S
Mg6 O7 1.917 1_545 S
Mg6 O17 2.106 1_444 S
Mg6 O19 2.079 . S
Mg6 O28 2.106 . S
Mg6 O29 2.079 1_444 S
O7 Mg6 1.917 1_565 S
O7 Mg8 1.926 . S
O7 Mg9 1.988 1_454 S
Mg8 O7 1.926 . S
Mg8 O22 1.984 . S
Mg8 O25 1.988 1_565 S
Mg8 O26 2.061 1_565 S
Mg9 O7 1.988 1_656 S
Mg9 O17 2.241 . S
Mg9 O21 2.040 . S
Mg9 O23 2.036 1_655 S
Mg9 O30 2.043 . S
C10 O16 1.247 . S
C10 O17 1.289 . S
C11 O29 1.245 . S
C11 O30 1.274 . S
O12 C0 1.241 1_454 S
O12 Mg5 2.039 . S
O13 C0 1.280 . S
O13 Mg3 1.984 . S
O14 C1 1.277 . S
O14 Mg5 2.034 1_655 S
O15 C1 1.245 1_566 S
O15 Mg3 1.988 1_565 S
O16 Mg3 2.061 1_565 S
O16 C10 1.247 . S
O17 Mg6 2.106 1_666 S
O17 Mg9 2.241 . S
O17 C10 1.289 . S
C18 O19 1.245 . S
C18 O20 1.274 . S
O19 Mg6 2.079 . S
O19 C18 1.245 . S
O20 Mg5 2.045 . S
O20 C18 1.274 . S
O21 Mg9 2.040 . S
O21 C24 1.241 1_656 S
O22 Mg8 1.984 . S
O22 C24 1.280 . S
O23 Mg9 2.036 1_455 S
O23 C27 1.277 . S
C24 O21 1.241 1_454 S
C24 O22 1.280 . S
O25 Mg8 1.988 1_545 S
O25 C27 1.245 1_544 S
O26 C2 1.247 . S
O26 Mg8 2.061 1_545 S
C27 O23 1.277 . S
C27 O25 1.245 1_566 S
O28 C2 1.289 . S
O28 Mg5 2.242 . S
O28 Mg6 2.106 . S
O29 Mg6 2.079 1_666 S
O29 C11 1.245 . S
O30 Mg9 2.043 . S
O30 C11 1.274 . S
C31 C32 1.369 1_655 S
C31 C33 1.419 . S
C31 H35 0.930 . S
C32 C31 1.369 1_455 S
C32 C41 1.429 1_556 S
C33 C31 1.419 . S
C33 C34 1.363 1_556 S
C33 H36 0.929 . S
C34 C33 1.363 1_554 S
C34 C40 1.428 1_655 S
H35 C31 0.930 . S
H36 C33 0.929 . S
S37 N38 1.613 . S
S37 N39 1.610 . S
N38 S37 1.613 . S
N38 C41 1.350 . S
N39 S37 1.610 . S
N39 C40 1.351 . S
C40 C34 1.428 1_455 S
C40 N39 1.351 . S
C40 C41 1.434 . S
C41 C32 1.429 1_554 S
C41 N38 1.350 . S
C41 C40 1.434 . S
C42 C43 1.369 . S
C42 C44 1.419 . S
C42 H46 0.930 . S
C43 C42 1.369 . S
C43 C52 1.429 1_564 S
C44 C42 1.419 . S
C44 C45 1.363 1_564 S
C44 H47 0.929 . S
C45 C44 1.363 1_546 S
C45 C51 1.428 . S
H46 C42 0.930 . S
H47 C44 0.929 . S
S48 N49 1.613 . S
S48 N50 1.610 . S
N49 S48 1.613 . S
N49 C52 1.350 . S
N50 S48 1.610 . S
N50 C51 1.351 . S
C51 C45 1.428 . S
C51 N50 1.351 . S
C51 C52 1.434 . S
C52 C43 1.429 1_546 S
C52 N49 1.350 . S
C52 C51 1.434 . S
C53 C54 1.369 1_556 S
C53 C55 1.419 . S
C53 H57 0.930 . S
C54 C53 1.369 1_554 S
C54 C63 1.429 . S
C55 C53 1.419 . S
C55 C56 1.363 . S
C55 H58 0.929 . S
C56 C55 1.363 . S
C56 C62 1.428 1_556 S
H57 C53 0.930 . S
H58 C55 0.929 . S
S59 N60 1.613 . S
S59 N61 1.610 . S
N60 S59 1.613 . S
N60 C63 1.350 . S
N61 S59 1.610 . S
N61 C62 1.351 . S
C62 C56 1.428 1_554 S
C62 N61 1.351 . S
C62 C63 1.434 . S
C63 C54 1.429 . S
C63 N60 1.350 . S
C63 C62 1.434 . S
C64 C65 1.369 1_545 S
C64 C66 1.419 . S
C64 H68 0.930 . S
C65 C64 1.369 1_565 S
C65 C74 1.429 1_655 S
C66 C64 1.419 . S
C66 C67 1.363 1_655 S
C66 H69 0.929 . S
C67 C66 1.363 1_455 S
C67 C73 1.428 1_545 S
H68 C64 0.930 . S
H69 C66 0.929 . S
S70 N71 1.613 . S
S70 N72 1.610 . S
N71 S70 1.613 . S
N71 C74 1.350 . S
N72 S70 1.610 . S
N72 C73 1.351 . S
C73 C67 1.428 1_565 S
C73 N72 1.351 . S
C73 C74 1.434 . S
C74 C65 1.429 1_455 S
C74 N71 1.350 . S
C74 C73 1.434 . S
C32 C0 1.324 1_455 S
C34 C24 1.336 1_655 S
C43 C1 1.337 1_565 S
C45 C27 1.347 1_545 S
C54 C18 1.937 . S
C56 C11 1.936 . S
C65 C10 1.469 . S
C67 C2 1.463 . S
