# Generated by pormake.
# Topology lcy, (6)-cn, num edge types: 1
# Building blocks:
#     Node 0, Type 0, BuildingBlock: VOLQOD_clean_sbu_1, # of connection points: 6
#     Node 1, Type 0, BuildingBlock: VOLQOD_clean_sbu_1, # of connection points: 6
#     Node 2, Type 0, BuildingBlock: VOLQOD_clean_sbu_1, # of connection points: 6
#     Node 3, Type 0, BuildingBlock: VOLQOD_clean_sbu_1, # of connection points: 6
#     Edge 4, Type (0, 0), None
#     Edge 5, Type (0, 0), None
#     Edge 6, Type (0, 0), None
#     Edge 7, Type (0, 0), None
#     Edge 8, Type (0, 0), None
#     Edge 9, Type (0, 0), None
#     Edge 10, Type (0, 0), None
#     Edge 11, Type (0, 0), None
#     Edge 12, Type (0, 0), None
#     Edge 13, Type (0, 0), None
#     Edge 14, Type (0, 0), None
#     Edge 15, Type (0, 0), None
# Relax obj value: 0.276
# Max RMSD: 0.254
# Mean RMSD: 0.248
data_MOF--net-lcy--node1-VOLQOD_clean_sbu_1--edge1-none
_symmetry_space_group_name_H-M    P1
_symmetry_Int_Tables_number       1
_symmetry_cell_setting            triclinic
loop_
_symmetry_equiv_pos_as_xyz
'x, y, z'
_cell_length_a     13.922673
_cell_length_b     13.922619
_cell_length_c     13.92196
_cell_angle_alpha  89.583127
_cell_angle_beta   89.562023
_cell_angle_gamma 90.446768
loop_
_atom_site_label
_atom_site_type_symbol
_atom_site_fract_x
_atom_site_fract_y
_atom_site_fract_z
_atom_type_partial_charge
O0 O 0.46654 0.22146 0.50667 0.0
Zn1 Zn 0.35125 0.23049 0.41455 0.0
O2 O 0.35259 0.35292 0.35528 0.0
Zn3 Zn 0.23532 0.4208 0.36168 0.0
Zn4 Zn 0.4359 0.4275 0.42891 0.0
Zn5 Zn 0.40495 0.35223 0.22954 0.0
O6 O 0.2113 0.48026 0.22853 0.0
O7 O 0.30221 0.38594 0.13655 0.0
O8 O 0.21331 0.20308 0.45878 0.0
O9 O 0.13212 0.32394 0.3911 0.0
O10 O 0.23509 0.50951 0.48034 0.0
O11 O 0.36998 0.46246 0.55036 0.0
O12 O 0.46931 0.54337 0.35175 0.0
O13 O 0.38341 0.13114 0.31728 0.0
O14 O 0.4968 0.46723 0.2141 0.0
O15 O 0.45208 0.21704 0.19904 0.0
C16 C 0.54584 0.26894 0.49997 0.0
C17 C 0.23778 0.44961 0.1458 0.0
C18 C 0.28919 0.50374 0.55422 0.0
C19 C 0.13425 0.24339 0.43506 0.0
C20 C 0.49875 0.54349 0.2651 0.0
C21 C 0.42964 0.13628 0.23831 0.0
O22 O 0.55012 0.35063 0.45895 0.0
O23 O 0.00871 -0.01594 0.72851 0.0
Zn24 Zn 0.92002 0.1027 0.72827 0.0
O25 O 0.8521 0.10907 0.61101 0.0
Zn26 Zn 0.85145 0.23476 0.55859 0.0
Zn27 Zn 0.92667 0.03542 0.52774 0.0
Zn28 Zn 0.72962 0.04986 0.61235 0.0
O29 O 0.71627 0.26529 0.51144 0.0
O30 O 0.6303 0.14714 0.5802 0.0
O31 O 0.97948 0.23587 0.75227 0.0
O32 O 0.88518 0.32778 0.66132 0.0
O33 O 0.96644 0.25017 0.46674 0.0
O34 O 0.04257 0.11258 0.49433 0.0
O35 O 0.84981 0.00538 0.41352 0.0
O36 O 0.82319 0.07328 0.83149 0.0
O37 O 0.72057 0.95773 0.49703 0.0
O38 O 0.70226 0.00563 0.75028 0.0
C39 C 0.00289 0.91015 0.67442 0.0
C40 C 0.63548 0.22607 0.53394 0.0
C41 C 0.04269 0.19919 0.46482 0.0
C42 C 0.94883 0.31857 0.72576 0.0
C43 C 0.76808 0.9644 0.41776 0.0
C44 C 0.74261 0.02933 0.82935 0.0
O45 O 0.96157 0.91398 0.59364 0.0
O46 O -0.01236 0.74182 0.70233 0.0
Zn47 Zn -0.00695 0.62204 0.79105 0.0
O48 O 0.11549 0.61633 0.8481 0.0
Zn49 Zn 0.17255 0.49389 0.84234 0.0
Zn50 Zn 0.19336 0.69423 0.7702 0.0
Zn51 Zn 0.12122 0.67332 0.9706 0.0
O52 O 0.22583 0.46234 0.97558 0.0
O53 O 0.15026 0.57014 0.0667 0.0
O54 O 0.96152 0.48878 0.73775 0.0
O55 O 0.06939 0.39775 0.81326 0.0
O56 O 0.26128 0.48851 0.72255 0.0
O57 O 0.21903 0.62421 0.64905 0.0
O58 O 0.3145 0.7199 0.84019 0.0
O59 O 0.89692 0.65109 0.89421 0.0
O60 O 0.24104 0.76202 0.976 0.0
O61 O -0.01203 0.72662 0.00212 0.0
C62 C 0.04029 0.81763 0.70767 0.0
C63 C 0.20065 0.49472 0.05803 0.0
C64 C 0.25594 0.54115 0.64676 0.0
C65 C -0.00606 0.40637 0.7629 0.0
C66 C 0.31682 0.75672 0.92331 0.0
C67 C 0.90555 0.70147 0.96966 0.0
O68 O 0.12336 0.81537 0.74456 0.0
O69 O 0.45688 0.96735 0.24292 0.0
Zn70 Zn 0.54898 0.85205 0.23388 0.0
O71 O 0.60829 0.85337 0.11145 0.0
Zn72 Zn 0.60189 0.73611 0.04353 0.0
Zn73 Zn 0.53468 0.93664 0.03691 0.0
Zn74 Zn 0.73399 0.9058 0.11213 0.0
O75 O 0.73505 0.7121 -0.01593 0.0
O76 O 0.82698 0.80308 0.07841 0.0
O77 O 0.50476 0.71411 0.26126 0.0
O78 O 0.57246 0.63291 0.14035 0.0
O79 O 0.48323 0.73586 0.95485 0.0
O80 O 0.41323 0.87074 0.00202 0.0
O81 O 0.61182 0.97004 0.92101 0.0
O82 O 0.64624 0.88423 0.33323 0.0
O83 O 0.74943 -0.00236 -0.00285 0.0
O84 O 0.76448 0.95294 0.24733 0.0
C85 C 0.4636 0.04663 0.19544 0.0
C86 C 0.81776 0.73861 0.01477 0.0
C87 C 0.40936 0.78996 0.96069 0.0
C88 C 0.5285 0.63504 0.22093 0.0
C89 C 0.69844 -0.00044 0.9209 0.0
C90 C 0.72521 0.93046 0.32809 0.0
O91 O 0.50467 0.05088 0.11376 0.0
loop_
_geom_bond_atom_site_label_1
_geom_bond_atom_site_label_2
_geom_bond_distance
_geom_bond_site_symmetry_2
_ccdc_geom_bond_type
O0 Zn1 1.953 . S
O0 C16 1.225 . S
Zn1 O0 1.953 . S
Zn1 O2 1.949 . S
Zn1 O8 1.919 . S
Zn1 O13 1.924 . S
O2 Zn1 1.949 . S
O2 Zn3 1.923 . S
O2 Zn4 1.950 . S
O2 Zn5 1.945 . S
Zn3 O2 1.923 . S
Zn3 O6 1.933 . S
Zn3 O9 1.941 . S
Zn3 O10 1.965 . S
Zn4 O2 1.950 . S
Zn4 O11 1.938 . S
Zn4 O12 1.906 . S
Zn4 O22 1.953 . S
Zn5 O2 1.945 . S
Zn5 O7 1.932 . S
Zn5 O14 1.977 . S
Zn5 O15 1.910 . S
O6 Zn3 1.933 . S
O6 C17 1.226 . S
O7 Zn5 1.932 . S
O7 C17 1.307 . S
O8 Zn1 1.919 . S
O8 C19 1.253 . S
O9 Zn3 1.941 . S
O9 C19 1.283 . S
O10 Zn3 1.965 . S
O10 C18 1.303 . S
O11 Zn4 1.938 . S
O11 C18 1.247 . S
O12 Zn4 1.906 . S
O12 C20 1.304 . S
O13 Zn1 1.924 . S
O13 C21 1.311 . S
O14 Zn5 1.977 . S
O14 C20 1.272 . S
O15 Zn5 1.910 . S
O15 C21 1.231 . S
C16 O0 1.225 . S
C16 O22 1.298 . S
C17 O6 1.226 . S
C17 O7 1.307 . S
C18 O10 1.303 . S
C18 O11 1.247 . S
C19 O8 1.253 . S
C19 O9 1.283 . S
C20 O12 1.304 . S
C20 O14 1.272 . S
C21 O13 1.311 . S
C21 O15 1.231 . S
O22 Zn4 1.953 . S
O22 C16 1.298 . S
O23 Zn24 1.953 1_455 S
O23 C39 1.225 1_545 S
Zn24 O23 1.953 1_655 S
Zn24 O25 1.949 . S
Zn24 O31 1.919 . S
Zn24 O36 1.924 . S
O25 Zn24 1.949 . S
O25 Zn26 1.923 . S
O25 Zn27 1.950 . S
O25 Zn28 1.945 . S
Zn26 O25 1.923 . S
Zn26 O29 1.933 . S
Zn26 O32 1.941 . S
Zn26 O33 1.965 1_655 S
Zn27 O25 1.950 . S
Zn27 O34 1.938 1_655 S
Zn27 O35 1.906 1_545 S
Zn27 O45 1.953 1_645 S
Zn28 O25 1.945 . S
Zn28 O30 1.932 . S
Zn28 O37 1.977 1_545 S
Zn28 O38 1.910 . S
O29 Zn26 1.933 . S
O29 C40 1.226 . S
O30 Zn28 1.932 . S
O30 C40 1.307 . S
O31 Zn24 1.919 . S
O31 C42 1.253 . S
O32 Zn26 1.941 . S
O32 C42 1.283 . S
O33 Zn26 1.965 1_455 S
O33 C41 1.303 . S
O34 Zn27 1.938 1_455 S
O34 C41 1.247 . S
O35 Zn27 1.906 1_565 S
O35 C43 1.304 . S
O36 Zn24 1.924 . S
O36 C44 1.311 . S
O37 Zn28 1.977 1_565 S
O37 C43 1.272 . S
O38 Zn28 1.910 . S
O38 C44 1.231 . S
C39 O23 1.225 1_565 S
C39 O45 1.298 . S
C40 O29 1.226 . S
C40 O30 1.307 . S
C41 O33 1.303 . S
C41 O34 1.247 . S
C42 O31 1.253 . S
C42 O32 1.283 . S
C43 O35 1.304 . S
C43 O37 1.272 . S
C44 O36 1.311 . S
C44 O38 1.231 . S
O45 Zn27 1.953 1_465 S
O45 C39 1.298 . S
O46 Zn47 1.953 . S
O46 C62 1.225 1_655 S
Zn47 O46 1.953 . S
Zn47 O48 1.949 1_655 S
Zn47 O54 1.919 . S
Zn47 O59 1.924 . S
O48 Zn47 1.949 1_455 S
O48 Zn49 1.923 . S
O48 Zn50 1.950 . S
O48 Zn51 1.945 1_556 S
Zn49 O48 1.923 . S
Zn49 O52 1.933 . S
Zn49 O55 1.941 . S
Zn49 O56 1.965 . S
Zn50 O48 1.950 . S
Zn50 O57 1.938 . S
Zn50 O58 1.906 . S
Zn50 O68 1.953 . S
Zn51 O48 1.945 1_554 S
Zn51 O53 1.932 . S
Zn51 O60 1.977 . S
Zn51 O61 1.910 . S
O52 Zn49 1.933 . S
O52 C63 1.226 1_556 S
O53 Zn51 1.932 . S
O53 C63 1.307 . S
O54 Zn47 1.919 . S
O54 C65 1.253 . S
O55 Zn49 1.941 . S
O55 C65 1.283 1_455 S
O56 Zn49 1.965 . S
O56 C64 1.303 . S
O57 Zn50 1.938 . S
O57 C64 1.247 . S
O58 Zn50 1.906 . S
O58 C66 1.304 . S
O59 Zn47 1.924 . S
O59 C67 1.311 1_556 S
O60 Zn51 1.977 . S
O60 C66 1.272 1_554 S
O61 Zn51 1.910 . S
O61 C67 1.231 1_455 S
C62 O46 1.225 1_455 S
C62 O68 1.298 . S
C63 O52 1.226 1_554 S
C63 O53 1.307 . S
C64 O56 1.303 . S
C64 O57 1.247 . S
C65 O54 1.253 . S
C65 O55 1.283 1_655 S
C66 O58 1.304 . S
C66 O60 1.272 1_556 S
C67 O59 1.311 1_554 S
C67 O61 1.231 1_655 S
O68 Zn50 1.953 . S
O68 C62 1.298 . S
O69 Zn70 1.953 . S
O69 C85 1.225 1_565 S
Zn70 O69 1.953 . S
Zn70 O71 1.949 . S
Zn70 O77 1.919 . S
Zn70 O82 1.924 . S
O71 Zn70 1.949 . S
O71 Zn72 1.923 . S
O71 Zn73 1.950 . S
O71 Zn74 1.945 . S
Zn72 O71 1.923 . S
Zn72 O75 1.933 . S
Zn72 O78 1.941 . S
Zn72 O79 1.965 1_554 S
Zn73 O71 1.950 . S
Zn73 O80 1.938 1_554 S
Zn73 O81 1.906 1_564 S
Zn73 O91 1.953 1_565 S
Zn74 O71 1.945 . S
Zn74 O76 1.932 . S
Zn74 O83 1.977 1_565 S
Zn74 O84 1.910 . S
O75 Zn72 1.933 . S
O75 C86 1.226 . S
O76 Zn74 1.932 . S
O76 C86 1.307 . S
O77 Zn70 1.919 . S
O77 C88 1.253 . S
O78 Zn72 1.941 . S
O78 C88 1.283 . S
O79 Zn72 1.965 1_556 S
O79 C87 1.303 . S
O80 Zn73 1.938 1_556 S
O80 C87 1.247 . S
O81 Zn73 1.906 1_546 S
O81 C89 1.304 . S
O82 Zn70 1.924 . S
O82 C90 1.311 . S
O83 Zn74 1.977 1_545 S
O83 C89 1.272 1_554 S
O84 Zn74 1.910 . S
O84 C90 1.231 . S
C85 O69 1.225 1_545 S
C85 O91 1.298 . S
C86 O75 1.226 . S
C86 O76 1.307 . S
C87 O79 1.303 . S
C87 O80 1.247 . S
C88 O77 1.253 . S
C88 O78 1.283 . S
C89 O81 1.304 . S
C89 O83 1.272 1_556 S
C90 O82 1.311 . S
C90 O84 1.231 . S
O91 Zn73 1.953 1_545 S
O91 C85 1.298 . S
C63 C17 2.047 . S
C90 C43 1.851 . S
C64 C18 1.534 . S
C89 C44 1.859 . S
C41 C19 1.373 . S
C62 C39 2.234 . S
C66 C87 1.695 . S
C21 C85 1.927 . S
C40 C16 2.205 . S
C65 C42 1.276 . S
C67 C86 1.902 . S
C88 C20 1.590 . S
