# Generated by pormake.
# Topology cds, (4)-cn, num edge types: 1
# Building blocks:
#     Node 0, Type 0, BuildingBlock: ESEHIV_clean_sbu_0, # of connection points: 4
#     Node 1, Type 0, BuildingBlock: ESEHIV_clean_sbu_0, # of connection points: 4
#     Edge 2, Type (0, 0), None
#     Edge 3, Type (0, 0), None
#     Edge 4, Type (0, 0), None
#     Edge 5, Type (0, 0), None
# Relax obj value: 0.000
# Max RMSD: 0.099
# Mean RMSD: 0.094
data_MOF--net-cds--node1-ESEHIV_clean_sbu_0--edge1-none
_symmetry_space_group_name_H-M    P1
_symmetry_Int_Tables_number       1
_symmetry_cell_setting            triclinic
loop_
_symmetry_equiv_pos_as_xyz
'x, y, z'
_cell_length_a     6.4546705
_cell_length_b     8.607841
_cell_length_c     14.376959
_cell_angle_alpha  101.33992
_cell_angle_beta   89.834379
_cell_angle_gamma 87.604201
loop_
_atom_site_label
_atom_site_type_symbol
_atom_site_fract_x
_atom_site_fract_y
_atom_site_fract_z
_atom_type_partial_charge
Cu0 Cu 0.26757 0.30624 0.13616 0.0
N1 N 0.24898 0.17281 1.01712 0.0
N2 N 0.20098 0.09453 0.86147 0.0
C3 C 0.23715 0.21776 0.9326 0.0
C4 C 0.19572 0.96621 0.90221 0.0
C5 C 0.22488 1.01515 0.99845 0.0
O6 O 0.49994 0.44349 0.13493 0.0
C7 C 0.86736 0.44726 0.10943 0.0
O8 O 0.93761 0.47804 1.02964 0.0
H9 H 0.24629 0.33948 0.92405 0.0
H10 H 0.22105 0.94204 0.05156 0.0
N11 N 0.31454 0.18511 0.22923 0.0
N12 N 0.23274 1.06349 0.3473 0.0
C13 C 0.1676 0.10922 0.2672 0.0
C14 C 0.47927 0.1856 0.28658 0.0
C15 C 0.42931 0.11021 0.35939 0.0
C16 C 0.66979 0.3691 0.1059 0.0
O17 O 0.67283 0.21402 0.07972 0.0
H18 H 1.01042 0.10019 0.24106 0.0
H19 H 0.61983 0.24702 0.28033 0.0
O20 O 0.9964 0.41105 0.16919 0.0
H21 H 0.16357 0.8472 0.86587 0.0
H22 H 0.52432 0.10169 0.41996 0.0
Cu23 Cu 0.97836 0.98242 0.58995 0.0
N24 N 0.82554 0.80026 0.55807 0.0
N25 N 0.71501 0.56051 0.56226 0.0
C26 C 0.87157 0.65982 0.58264 0.0
C27 C 0.56509 0.63872 0.52294 0.0
C28 C 0.63515 0.78689 0.51969 0.0
O29 O 0.10273 0.97811 0.71251 0.0
C30 C 0.11201 1.00839 0.41037 0.0
O31 O 0.91472 0.98656 0.39255 0.0
H32 H 1.01192 0.63381 0.61877 0.0
H33 H 0.55099 0.87986 0.49369 0.0
N34 N 0.80652 0.16465 0.5994 0.0
N35 N 0.70692 0.4075 0.58241 0.0
C36 C 0.86693 0.3015 0.57825 0.0
C37 C 0.60158 0.18652 0.61867 0.0
C38 C 0.53866 0.33717 0.60728 0.0
C39 C 0.1531 0.10218 0.77039 0.0
O40 O 0.14083 0.23988 0.74391 0.0
H41 H 0.0232 0.32098 0.55708 0.0
H42 H 0.50413 0.09786 0.63712 0.0
O43 O 0.18033 0.99643 0.49186 0.0
H44 H 0.41665 0.59263 0.49924 0.0
H45 H 0.38338 0.39059 0.61633 0.0
loop_
_geom_bond_atom_site_label_1
_geom_bond_atom_site_label_2
_geom_bond_distance
_geom_bond_site_symmetry_2
_ccdc_geom_bond_type
Cu0 N1 1.999 1_454 S
Cu0 O6 1.974 . S
Cu0 N11 1.985 . S
Cu0 O20 1.959 1_455 S
N1 Cu0 1.999 1_656 S
N1 C3 1.263 1_655 S
N1 C5 1.389 . S
N2 C3 1.358 1_655 S
N2 C4 1.400 . S
C3 N1 1.263 1_455 S
C3 N2 1.358 1_455 S
C3 H9 0.930 1_545 S
C4 N2 1.400 . S
C4 C5 1.351 . S
C4 H21 0.930 . S
C5 N1 1.389 . S
C5 C4 1.351 . S
C5 H10 0.930 . S
O6 Cu0 1.974 . S
O6 C16 1.282 1_545 S
C7 O8 1.261 . S
C7 O20 1.251 1_565 S
O8 C7 1.261 . S
H9 C3 0.930 1_565 S
H10 C5 0.930 . S
N11 Cu0 1.985 . S
N11 C13 1.335 1_455 S
N11 C14 1.390 1_545 S
N12 C13 1.345 1_455 S
N12 C15 1.336 1_545 S
C13 N11 1.335 1_655 S
C13 N12 1.345 1_655 S
C13 H18 0.930 . S
C14 N11 1.390 1_565 S
C14 C15 1.346 . S
C14 H19 0.930 . S
C15 N12 1.336 1_565 S
C15 C14 1.346 . S
C15 H22 0.929 . S
C16 O6 1.282 1_565 S
C16 O17 1.216 . S
O17 C16 1.216 . S
H18 C13 0.930 . S
H19 C14 0.930 . S
O20 Cu0 1.959 1_655 S
O20 C7 1.251 1_545 S
H21 C4 0.930 . S
H22 C15 0.929 . S
Cu23 N24 1.999 1_545 S
Cu23 O29 1.974 . S
Cu23 N34 1.985 . S
Cu23 O43 1.959 . S
N24 Cu23 1.999 1_565 S
N24 C26 1.263 . S
N24 C28 1.389 . S
N25 C26 1.358 . S
N25 C27 1.400 . S
C26 N24 1.263 . S
C26 N25 1.358 . S
C26 H32 0.930 1_455 S
C27 N25 1.400 . S
C27 C28 1.351 . S
C27 H44 0.930 . S
C28 N24 1.389 . S
C28 C27 1.351 . S
C28 H33 0.930 . S
O29 Cu23 1.974 . S
O29 C39 1.282 1_455 S
C30 O31 1.261 1_545 S
C30 O43 1.251 1_655 S
O31 C30 1.261 1_565 S
H32 C26 0.930 1_655 S
H33 C28 0.930 . S
N34 Cu23 1.985 . S
N34 C36 1.335 . S
N34 C37 1.390 1_455 S
N35 C36 1.345 . S
N35 C38 1.336 1_455 S
C36 N34 1.335 . S
C36 N35 1.345 . S
C36 H41 0.930 . S
C37 N34 1.390 1_655 S
C37 C38 1.346 . S
C37 H42 0.930 . S
C38 N35 1.336 1_655 S
C38 C37 1.346 . S
C38 H45 0.929 . S
C39 O29 1.282 1_655 S
C39 O40 1.216 . S
O40 C39 1.216 . S
H41 C36 0.930 . S
H42 C37 0.930 . S
O43 Cu23 1.959 . S
O43 C30 1.251 1_455 S
H44 C27 0.930 . S
H45 C38 0.929 . S
N12 C30 1.620 1_455 S
N2 C39 1.534 . S
C7 C16 1.508 . S
N25 N35 1.499 . S
