# Generated by pormake.
# Topology eta-c, (3)-cn, num edge types: 1
# Building blocks:
#     Node 0, Type 0, BuildingBlock: WUSLED_clean_sbu_0, # of connection points: 3
#     Node 1, Type 0, BuildingBlock: WUSLED_clean_sbu_0, # of connection points: 3
#     Node 2, Type 0, BuildingBlock: WUSLED_clean_sbu_0, # of connection points: 3
#     Node 3, Type 0, BuildingBlock: WUSLED_clean_sbu_0, # of connection points: 3
#     Node 4, Type 0, BuildingBlock: WUSLED_clean_sbu_0, # of connection points: 3
#     Node 5, Type 0, BuildingBlock: WUSLED_clean_sbu_0, # of connection points: 3
#     Edge 6, Type (0, 0), None
#     Edge 7, Type (0, 0), None
#     Edge 8, Type (0, 0), None
#     Edge 9, Type (0, 0), None
#     Edge 10, Type (0, 0), None
#     Edge 11, Type (0, 0), None
#     Edge 12, Type (0, 0), None
#     Edge 13, Type (0, 0), None
#     Edge 14, Type (0, 0), None
# Relax obj value: 0.000
# Max RMSD: 0.003
# Mean RMSD: 0.002
data_MOF--net-eta-c--node1-WUSLED_clean_sbu_0--edge1-none
_symmetry_space_group_name_H-M    P1
_symmetry_Int_Tables_number       1
_symmetry_cell_setting            triclinic
loop_
_symmetry_equiv_pos_as_xyz
'x, y, z'
_cell_length_a     41.613967
_cell_length_b     41.750068
_cell_length_c     17.369855
_cell_angle_alpha  91.306083
_cell_angle_beta   89.159873
_cell_angle_gamma 118.87382
loop_
_atom_site_label
_atom_site_type_symbol
_atom_site_fract_x
_atom_site_fract_y
_atom_site_fract_z
_atom_type_partial_charge
C0 C 0.41301 0.82411 0.25185 0.0
C1 C 0.39195 0.78698 0.23138 0.0
C2 C 0.36446 0.77381 0.35971 0.0
C3 C 0.36784 0.76203 0.28485 0.0
C4 C 0.38624 0.81098 0.38009 0.0
C5 C 0.41024 0.83587 0.32659 0.0
U6 U 0.45545 0.84878 0.05088 0.0
O7 O 0.46339 0.89436 0.97745 0.0
O8 O 0.51102 0.88971 1.01494 0.0
C9 C 0.49936 0.90977 0.98006 0.0
C10 C 0.43691 0.85107 0.19529 0.0
C11 C 0.51868 0.94911 1.00013 0.0
C12 C 0.53462 0.9993 0.09211 0.0
C13 C 0.51575 0.96179 0.07401 0.0
C14 C 0.55935 1.01184 0.96253 0.0
C15 C 0.55675 1.02485 0.03661 0.0
C16 C 0.54051 0.97437 0.94458 0.0
C17 C 0.43141 0.77122 0.8999 0.0
C18 C 0.42395 0.76956 0.76089 0.0
C19 C 0.44064 0.72769 0.81974 0.0
C20 C 0.43996 0.74263 0.89234 0.0
C21 C 0.43215 0.74063 0.75315 0.0
C22 C 0.42369 0.78476 0.83336 0.0
C23 C 0.42934 0.78538 0.97766 0.0
O24 O 0.46652 0.84927 0.17465 0.0
O25 O 0.41982 0.85552 0.1369 0.0
O26 O 0.41162 0.80424 0.98381 0.0
O27 O 0.45962 0.79949 1.01852 0.0
H28 H 0.39384 0.77742 0.17383 0.0
H29 H 0.35183 0.73354 0.26757 0.0
H30 H 0.38402 0.82109 0.43679 0.0
H31 H 0.42622 0.86446 0.34323 0.0
H32 H 0.5316 1.00831 0.14941 0.0
H33 H 0.4989 0.94267 0.11762 0.0
H34 H 0.57649 1.03056 0.91868 0.0
H35 H 0.54317 0.96508 0.88728 0.0
H36 H 0.41795 0.78069 0.71077 0.0
H37 H 0.44675 0.70526 0.8161 0.0
H38 H 0.44569 0.73149 0.94286 0.0
H39 H 0.41718 0.80693 0.83719 0.0
C40 C 0.6374 0.39736 0.58464 0.0
C41 C 0.65296 0.37515 0.56381 0.0
C42 C 0.63961 0.34859 0.69169 0.0
C43 C 0.65404 0.35094 0.61687 0.0
C44 C 0.62478 0.37156 0.71252 0.0
C45 C 0.62366 0.39567 0.65939 0.0
U46 U 0.65492 0.43991 0.38539 0.0
O47 O 0.61743 0.44823 0.31068 0.0
O48 O 0.668 0.49549 0.35201 0.0
C49 C 0.63678 0.48408 0.31555 0.0
C50 C 0.63402 0.42136 0.52841 0.0
C51 C 0.61597 0.5033 0.33604 0.0
C52 C 0.57906 0.51719 0.42656 0.0
C53 C 0.59872 0.49866 0.40807 0.0
C54 C 0.59367 0.54515 0.30119 0.0
C55 C 0.57628 0.54072 0.37334 0.0
C56 C 0.61329 0.52661 0.28282 0.0
C57 C 0.70935 0.41605 0.23508 0.0
C58 C 0.70554 0.4159 0.09544 0.0
C59 C 0.75911 0.4188 0.15513 0.0
C60 C 0.74389 0.41807 0.22791 0.0
C61 C 0.73993 0.41729 0.08789 0.0
C62 C 0.69045 0.41538 0.16822 0.0
C63 C 0.69326 0.4137 0.31247 0.0
O64 O 0.66467 0.45071 0.50996 0.0
O65 O 0.61329 0.40448 0.46859 0.0
O66 O 0.65721 0.39619 0.31678 0.0
O67 O 0.70835 0.4438 0.35497 0.0
H68 H 0.66383 0.37621 0.50627 0.0
H69 H 0.66609 0.334 0.59929 0.0
H70 H 0.61306 0.37018 0.76922 0.0
H71 H 0.61146 0.41257 0.67632 0.0
H72 H 0.56568 0.51275 0.48225 0.0
H73 H 0.60042 0.48066 0.44986 0.0
H74 H 0.59261 0.5634 0.25922 0.0
H75 H 0.62653 0.5306 0.227 0.0
H76 H 0.69032 0.41544 0.04501 0.0
H77 H 0.78551 0.41965 0.1516 0.0
H78 H 0.75896 0.41866 0.27875 0.0
H79 H 0.66391 0.41422 0.17213 0.0
C80 C 0.28482 0.7012 0.52276 0.0
C81 C 0.32028 0.72668 0.54709 0.0
C82 C 0.33745 0.74785 0.41559 0.0
C83 C 0.34635 0.74981 0.49406 0.0
C84 C 0.30202 0.72178 0.3914 0.0
C85 C 0.27597 0.69869 0.44456 0.0
U86 U 0.25986 0.65241 0.71406 0.0
O87 O 0.21777 0.6456 0.80037 0.0
O88 O 0.21642 0.59732 0.74412 0.0
C89 C 0.19957 0.60989 0.79034 0.0
C90 C 0.25693 0.67721 0.57834 0.0
C91 C 0.15929 0.59349 0.78214 0.0
C92 C 0.1024 0.55799 0.71085 0.0
C93 C 0.14083 0.57487 0.7146 0.0
C94 C 0.10048 0.57865 0.84132 0.0
C95 C 0.08172 0.55956 0.77435 0.0
C96 C 0.13874 0.59533 0.8451 0.0
C97 C 0.34003 0.66384 0.84266 0.0
C98 C 0.34979 0.66773 0.98136 0.0
C99 C 0.37923 0.6422 0.89828 0.0
C100 C 0.36308 0.64818 0.83411 0.0
C101 C 0.37275 0.6518 0.97284 0.0
C102 C 0.33358 0.67369 0.91697 0.0
C103 C 0.32446 0.6708 0.77293 0.0
O104 O 0.25508 0.64523 0.58789 0.0
O105 O 0.25535 0.69307 0.64349 0.0
O106 O 0.30806 0.69083 0.78154 0.0
O107 O 0.30708 0.6427 0.72565 0.0
H108 H 0.32768 0.72888 0.60725 0.0
H109 H 0.3735 0.76917 0.51452 0.0
H110 H 0.29409 0.71981 0.33165 0.0
H111 H 0.24875 0.67913 0.4247 0.0
H112 H 0.08891 0.54384 0.65815 0.0
H113 H 0.15599 0.57308 0.66499 0.0
H114 H 0.08555 0.57998 0.89179 0.0
H115 H 0.15232 0.60931 0.89795 0.0
H116 H 0.34395 0.67519 0.03789 0.0
H117 H 0.39741 0.6307 0.88916 0.0
H118 H 0.36907 0.64099 0.77738 0.0
H119 H 0.31605 0.68597 0.92552 0.0
C120 C 0.63386 0.26872 0.85242 0.0
C121 C 0.64402 0.3045 0.87778 0.0
C122 C 0.63873 0.32141 0.74694 0.0
C123 C 0.64628 0.33057 0.82557 0.0
C124 C 0.62915 0.28563 0.72182 0.0
C125 C 0.6267 0.25955 0.77414 0.0
U126 U 0.65722 0.24152 0.04326 0.0
O127 O 0.62248 0.19759 0.12267 0.0
O128 O 0.67042 0.19775 0.06823 0.0
C129 C 0.64089 0.17971 0.11075 0.0
C130 C 0.63061 0.24072 0.90668 0.0
C131 C 0.61866 0.14043 0.09172 0.0
C132 C 0.58089 0.09108 1.00245 0.0
C133 C 0.60124 0.12855 1.02015 0.0
C134 C 0.59486 0.077 0.12799 0.0
C135 C 0.57755 0.06478 0.05606 0.0
C136 C 0.61521 0.11444 0.14553 0.0
C137 C 0.72365 0.31951 0.18054 0.0
C138 C 0.72951 0.33335 0.31845 0.0
C139 C 0.78397 0.35418 0.23905 0.0
C140 C 0.76207 0.33821 0.17423 0.0
C141 C 0.76805 0.35201 0.31208 0.0
C142 C 0.70754 0.31732 0.25339 0.0
C143 C 0.70134 0.30478 0.10974 0.0
O144 O 0.66069 0.2385 0.91688 0.0
O145 O 0.61299 0.23896 0.97128 0.0
O146 O 0.6654 0.28842 0.11724 0.0
O147 O 0.71258 0.28808 0.05994 0.0
H148 H 0.64997 0.31218 0.93799 0.0
H149 H 0.65415 0.35797 0.84668 0.0
H150 H 0.62268 0.27749 0.66196 0.0
H151 H 0.61889 0.23208 0.75353 0.0
H152 H 0.56756 0.08272 0.94694 0.0
H153 H 0.6035 0.14825 0.97792 0.0
H154 H 0.59334 0.05765 0.17028 0.0
H155 H 0.62856 0.12311 0.20103 0.0
H156 H 0.71628 0.33097 0.37377 0.0
H157 H 0.81346 0.36906 0.23142 0.0
H158 H 0.77526 0.34111 0.11864 0.0
H159 H 0.67799 0.30348 0.26024 0.0
C160 C 0.42517 0.6332 0.16666 0.0
C161 C 0.42131 0.6648 0.1648 0.0
C162 C 0.39 0.64513 0.04098 0.0
C163 C 0.40393 0.67075 0.10242 0.0
C164 C 0.39329 0.61318 0.04434 0.0
C165 C 0.41075 0.60737 0.10637 0.0
U166 U 0.45775 0.6424 0.37674 0.0
O167 O 0.46209 0.60165 0.44767 0.0
O168 O 0.5115 0.65291 0.42008 0.0
C169 C 0.49809 0.62041 0.45065 0.0
C170 C 0.44498 0.6269 0.22916 0.0
C171 C 0.51756 0.59981 0.43036 0.0
C172 C 0.53394 0.56548 0.33773 0.0
C173 C 0.51506 0.5848 0.35618 0.0
C174 C 0.55794 0.57595 0.46746 0.0
C175 C 0.5557 0.56084 0.39313 0.0
C176 C 0.53906 0.59523 0.48579 0.0
C177 C 0.43051 0.69387 0.52793 0.0
C178 C 0.45792 0.71349 0.65484 0.0
C179 C 0.404 0.71825 0.62243 0.0
C180 C 0.40364 0.70351 0.54916 0.0
C181 C 0.43135 0.72383 0.67599 0.0
C182 C 0.45748 0.69862 0.58144 0.0
C183 C 0.43017 0.6796 0.44941 0.0
O184 O 0.47424 0.65585 0.2559 0.0
O185 O 0.42452 0.60471 0.28346 0.0
O186 O 0.41234 0.64382 0.44086 0.0
O187 O 0.46163 0.69506 0.41207 0.0
H188 H 0.43216 0.68509 0.21092 0.0
H189 H 0.4022 0.6958 0.1015 0.0
H190 H 0.38231 0.59252 0.99896 0.0
H191 H 0.41329 0.58273 0.10692 0.0
H192 H 0.53117 0.55385 0.28026 0.0
H193 H 0.4985 0.58801 0.31263 0.0
H194 H 0.5748 0.57341 0.51125 0.0
H195 H 0.54139 0.60675 0.5433 0.0
H196 H 0.4795 0.71758 0.69439 0.0
H197 H 0.38272 0.72513 0.63734 0.0
H198 H 0.38244 0.69979 0.50883 0.0
H199 H 0.47841 0.69122 0.56615 0.0
C200 C 0.83903 0.40684 0.50566 0.0
C201 C 0.80537 0.40677 0.49882 0.0
C202 C 0.79176 0.36984 0.38058 0.0
C203 C 0.782 0.38852 0.43676 0.0
C204 C 0.82507 0.36926 0.38906 0.0
C205 C 0.84844 0.38763 0.45076 0.0
U206 U 0.86234 0.4418 0.71502 0.0
O207 O 0.90693 0.44665 0.78909 0.0
O208 O 0.90366 0.49588 0.75973 0.0
C209 C 0.92284 0.48258 0.79266 0.0
C210 C 0.86525 0.42747 0.56785 0.0
C211 C 0.96307 0.5028 0.78038 0.0
C212 C 1.02055 0.50551 0.73893 0.0
C213 C 0.9821 0.48672 0.74296 0.0
C214 C 1.02144 0.55711 0.80719 0.0
C215 C 1.04076 0.54072 0.77226 0.0
C216 C 0.9831 0.53834 0.81131 0.0
C217 C 0.78407 0.41561 0.86221 0.0
C218 C 0.79312 0.4385 0.99452 0.0
C219 C 0.7324 0.39406 0.95085 0.0
C220 C 0.74661 0.39359 0.87765 0.0
C221 C 0.7554 0.41665 1.0102 0.0
C222 C 0.80733 0.438 0.92111 0.0
C223 C 0.79816 0.41484 0.78437 0.0
O224 O 0.865 0.45717 0.59398 0.0
O225 O 0.86812 0.40779 0.62261 0.0
O226 O 0.81684 0.39702 0.77687 0.0
O227 O 0.81325 0.44604 0.74793 0.0
H228 H 0.79738 0.42127 0.54069 0.0
H229 H 0.75677 0.38987 0.43178 0.0
H230 H 0.8332 0.35462 0.34786 0.0
H231 H 0.87414 0.38714 0.45517 0.0
H232 H 1.03447 0.49191 0.7121 0.0
H233 H 0.96737 0.45933 0.71845 0.0
H234 H 1.03599 0.58441 0.83222 0.0
H235 H 0.96907 0.55135 0.84026 0.0
H236 H 0.81158 0.45645 0.03858 0.0
H237 H 0.70342 0.37644 0.96119 0.0
H238 H 0.72833 0.37598 0.83293 0.0
H239 H 0.83638 0.45518 0.91016 0.0
loop_
_geom_bond_atom_site_label_1
_geom_bond_atom_site_label_2
_geom_bond_distance
_geom_bond_site_symmetry_2
_ccdc_geom_bond_type
C0 C1 1.264 . S
C0 C5 1.479 . S
C0 C10 1.465 . S
C1 C0 1.264 . S
C1 C3 1.339 . S
C1 H28 0.931 . S
C2 C3 1.395 . S
C2 C4 1.320 . S
C3 C1 1.339 . S
C3 C2 1.395 . S
C3 H29 0.929 . S
C4 C2 1.320 . S
C4 C5 1.405 . S
C4 H30 0.930 . S
C5 C0 1.479 . S
C5 C4 1.405 . S
C5 H31 0.931 . S
U6 O7 2.454 . S
U6 O8 2.458 1_554 S
U6 C9 2.984 . S
U6 C10 2.847 . S
U6 C23 2.882 1_554 S
U6 O24 2.441 . S
U6 O25 2.420 . S
U6 O26 2.455 1_554 S
U6 O27 2.449 1_554 S
O7 U6 2.454 . S
O7 C9 1.353 . S
O8 U6 2.458 1_556 S
O8 C9 1.286 1_556 S
C9 U6 2.984 . S
C9 O7 1.353 . S
C9 O8 1.286 1_554 S
C9 C11 1.363 . S
C10 C0 1.465 . S
C10 U6 2.847 . S
C10 O24 1.249 . S
C10 O25 1.202 . S
C11 C9 1.363 . S
C11 C13 1.408 . S
C11 C16 1.342 1_554 S
C12 C13 1.310 . S
C12 C15 1.461 . S
C12 H32 0.932 . S
C13 C11 1.408 . S
C13 C12 1.310 . S
C13 H33 0.930 . S
C14 C15 1.474 1_556 S
C14 C16 1.285 . S
C14 H34 0.929 . S
C15 C12 1.461 . S
C15 C14 1.474 1_554 S
C16 C11 1.342 1_556 S
C16 C14 1.285 . S
C16 H35 0.930 . S
C17 C20 1.424 . S
C17 C22 1.245 . S
C17 C23 1.428 . S
C18 C21 1.260 . S
C18 C22 1.477 . S
C18 H36 0.932 . S
C19 C20 1.384 . S
C19 C21 1.479 . S
C19 H37 0.929 . S
C20 C17 1.424 . S
C20 C19 1.384 . S
C20 H38 0.928 . S
C21 C18 1.260 . S
C21 C19 1.479 . S
C22 C17 1.245 . S
C22 C18 1.477 . S
C22 H39 0.932 . S
C23 U6 2.882 1_556 S
C23 C17 1.428 . S
C23 O26 1.301 . S
C23 O27 1.282 . S
O24 U6 2.441 . S
O24 C10 1.249 . S
O25 U6 2.420 . S
O25 C10 1.202 . S
O26 U6 2.455 1_556 S
O26 C23 1.301 . S
O27 U6 2.449 1_556 S
O27 C23 1.282 . S
H28 C1 0.931 . S
H29 C3 0.929 . S
H30 C4 0.930 . S
H31 C5 0.931 . S
H32 C12 0.932 . S
H33 C13 0.930 . S
H34 C14 0.929 . S
H35 C16 0.930 . S
H36 C18 0.932 . S
H37 C19 0.929 . S
H38 C20 0.928 . S
H39 C22 0.932 . S
C40 C41 1.264 . S
C40 C45 1.479 . S
C40 C50 1.465 . S
C41 C40 1.264 . S
C41 C43 1.339 . S
C41 H68 0.931 . S
C42 C43 1.395 . S
C42 C44 1.320 . S
C43 C41 1.339 . S
C43 C42 1.395 . S
C43 H69 0.929 . S
C44 C42 1.320 . S
C44 C45 1.405 . S
C44 H70 0.930 . S
C45 C40 1.479 . S
C45 C44 1.405 . S
C45 H71 0.931 . S
U46 O47 2.454 . S
U46 O48 2.458 . S
U46 C49 2.984 . S
U46 C50 2.847 . S
U46 C63 2.882 . S
U46 O64 2.441 . S
U46 O65 2.420 . S
U46 O66 2.455 . S
U46 O67 2.449 . S
O47 U46 2.454 . S
O47 C49 1.353 . S
O48 U46 2.458 . S
O48 C49 1.286 . S
C49 U46 2.984 . S
C49 O47 1.353 . S
C49 O48 1.286 . S
C49 C51 1.363 . S
C50 C40 1.465 . S
C50 U46 2.847 . S
C50 O64 1.249 . S
C50 O65 1.202 . S
C51 C49 1.363 . S
C51 C53 1.408 . S
C51 C56 1.342 . S
C52 C53 1.310 . S
C52 C55 1.461 . S
C52 H72 0.932 . S
C53 C51 1.408 . S
C53 C52 1.310 . S
C53 H73 0.930 . S
C54 C55 1.474 . S
C54 C56 1.285 . S
C54 H74 0.929 . S
C55 C52 1.461 . S
C55 C54 1.474 . S
C56 C51 1.342 . S
C56 C54 1.285 . S
C56 H75 0.930 . S
C57 C60 1.424 . S
C57 C62 1.245 . S
C57 C63 1.428 . S
C58 C61 1.260 . S
C58 C62 1.477 . S
C58 H76 0.932 1_554 S
C59 C60 1.384 . S
C59 C61 1.479 . S
C59 H77 0.929 . S
C60 C57 1.424 . S
C60 C59 1.384 . S
C60 H78 0.928 . S
C61 C58 1.260 . S
C61 C59 1.479 . S
C62 C57 1.245 . S
C62 C58 1.477 . S
C62 H79 0.932 . S
C63 U46 2.882 . S
C63 C57 1.428 . S
C63 O66 1.301 . S
C63 O67 1.282 . S
O64 U46 2.441 . S
O64 C50 1.249 . S
O65 U46 2.420 . S
O65 C50 1.202 . S
O66 U46 2.455 . S
O66 C63 1.301 . S
O67 U46 2.449 . S
O67 C63 1.282 . S
H68 C41 0.931 . S
H69 C43 0.929 . S
H70 C44 0.930 . S
H71 C45 0.931 . S
H72 C52 0.932 . S
H73 C53 0.930 . S
H74 C54 0.929 . S
H75 C56 0.930 . S
H76 C58 0.932 1_556 S
H77 C59 0.929 . S
H78 C60 0.928 . S
H79 C62 0.932 . S
C80 C81 1.264 . S
C80 C85 1.479 . S
C80 C90 1.465 . S
C81 C80 1.264 . S
C81 C83 1.339 . S
C81 H108 0.931 . S
C82 C83 1.395 . S
C82 C84 1.320 . S
C83 C81 1.339 . S
C83 C82 1.395 . S
C83 H109 0.929 . S
C84 C82 1.320 . S
C84 C85 1.405 . S
C84 H110 0.930 . S
C85 C80 1.479 . S
C85 C84 1.405 . S
C85 H111 0.931 . S
U86 O87 2.454 . S
U86 O88 2.458 . S
U86 C89 2.984 . S
U86 C90 2.847 . S
U86 C103 2.882 . S
U86 O104 2.441 . S
U86 O105 2.420 . S
U86 O106 2.455 . S
U86 O107 2.449 . S
O87 U86 2.454 . S
O87 C89 1.353 . S
O88 U86 2.458 . S
O88 C89 1.286 . S
C89 U86 2.984 . S
C89 O87 1.353 . S
C89 O88 1.286 . S
C89 C91 1.363 . S
C90 C80 1.465 . S
C90 U86 2.847 . S
C90 O104 1.249 . S
C90 O105 1.202 . S
C91 C89 1.363 . S
C91 C93 1.408 . S
C91 C96 1.342 . S
C92 C93 1.310 . S
C92 C95 1.461 . S
C92 H112 0.932 . S
C93 C91 1.408 . S
C93 C92 1.310 . S
C93 H113 0.930 . S
C94 C95 1.474 . S
C94 C96 1.285 . S
C94 H114 0.929 . S
C95 C92 1.461 . S
C95 C94 1.474 . S
C96 C91 1.342 . S
C96 C94 1.285 . S
C96 H115 0.930 . S
C97 C100 1.424 . S
C97 C102 1.245 . S
C97 C103 1.428 . S
C98 C101 1.260 . S
C98 C102 1.477 . S
C98 H116 0.932 1_556 S
C99 C100 1.384 . S
C99 C101 1.479 . S
C99 H117 0.929 . S
C100 C97 1.424 . S
C100 C99 1.384 . S
C100 H118 0.928 . S
C101 C98 1.260 . S
C101 C99 1.479 . S
C102 C97 1.245 . S
C102 C98 1.477 . S
C102 H119 0.932 . S
C103 U86 2.882 . S
C103 C97 1.428 . S
C103 O106 1.301 . S
C103 O107 1.282 . S
O104 U86 2.441 . S
O104 C90 1.249 . S
O105 U86 2.420 . S
O105 C90 1.202 . S
O106 U86 2.455 . S
O106 C103 1.301 . S
O107 U86 2.449 . S
O107 C103 1.282 . S
H108 C81 0.931 . S
H109 C83 0.929 . S
H110 C84 0.930 . S
H111 C85 0.931 . S
H112 C92 0.932 . S
H113 C93 0.930 . S
H114 C94 0.929 . S
H115 C96 0.930 . S
H116 C98 0.932 1_554 S
H117 C99 0.929 . S
H118 C100 0.928 . S
H119 C102 0.932 . S
C120 C121 1.264 . S
C120 C125 1.479 . S
C120 C130 1.465 . S
C121 C120 1.264 . S
C121 C123 1.339 . S
C121 H148 0.931 . S
C122 C123 1.395 . S
C122 C124 1.320 . S
C123 C121 1.339 . S
C123 C122 1.395 . S
C123 H149 0.929 . S
C124 C122 1.320 . S
C124 C125 1.405 . S
C124 H150 0.930 . S
C125 C120 1.479 . S
C125 C124 1.405 . S
C125 H151 0.931 . S
U126 O127 2.454 1_554 S
U126 O128 2.458 . S
U126 C129 2.984 . S
U126 C130 2.847 1_554 S
U126 C143 2.882 . S
U126 O144 2.441 1_554 S
U126 O145 2.420 1_554 S
U126 O146 2.455 . S
U126 O147 2.449 . S
O127 U126 2.454 1_556 S
O127 C129 1.353 1_556 S
O128 U126 2.458 . S
O128 C129 1.286 . S
C129 U126 2.984 . S
C129 O127 1.353 1_554 S
C129 O128 1.286 . S
C129 C131 1.363 . S
C130 C120 1.465 . S
C130 U126 2.847 1_556 S
C130 O144 1.249 . S
C130 O145 1.202 . S
C131 C129 1.363 . S
C131 C133 1.408 1_554 S
C131 C136 1.342 . S
C132 C133 1.310 . S
C132 C135 1.461 1_556 S
C132 H152 0.932 . S
C133 C131 1.408 1_556 S
C133 C132 1.310 . S
C133 H153 0.930 . S
C134 C135 1.474 . S
C134 C136 1.285 . S
C134 H154 0.929 . S
C135 C132 1.461 1_554 S
C135 C134 1.474 . S
C136 C131 1.342 . S
C136 C134 1.285 . S
C136 H155 0.930 . S
C137 C140 1.424 . S
C137 C142 1.245 . S
C137 C143 1.428 . S
C138 C141 1.260 . S
C138 C142 1.477 . S
C138 H156 0.932 . S
C139 C140 1.384 . S
C139 C141 1.479 . S
C139 H157 0.929 . S
C140 C137 1.424 . S
C140 C139 1.384 . S
C140 H158 0.928 . S
C141 C138 1.260 . S
C141 C139 1.479 . S
C142 C137 1.245 . S
C142 C138 1.477 . S
C142 H159 0.932 . S
C143 U126 2.882 . S
C143 C137 1.428 . S
C143 O146 1.301 . S
C143 O147 1.282 . S
O144 U126 2.441 1_556 S
O144 C130 1.249 . S
O145 U126 2.420 1_556 S
O145 C130 1.202 . S
O146 U126 2.455 . S
O146 C143 1.301 . S
O147 U126 2.449 . S
O147 C143 1.282 . S
H148 C121 0.931 . S
H149 C123 0.929 . S
H150 C124 0.930 . S
H151 C125 0.931 . S
H152 C132 0.932 . S
H153 C133 0.930 . S
H154 C134 0.929 . S
H155 C136 0.930 . S
H156 C138 0.932 . S
H157 C139 0.929 . S
H158 C140 0.928 . S
H159 C142 0.932 . S
C160 C161 1.264 . S
C160 C165 1.479 . S
C160 C170 1.465 . S
C161 C160 1.264 . S
C161 C163 1.339 . S
C161 H188 0.931 . S
C162 C163 1.395 . S
C162 C164 1.320 . S
C163 C161 1.339 . S
C163 C162 1.395 . S
C163 H189 0.929 . S
C164 C162 1.320 . S
C164 C165 1.405 . S
C164 H190 0.930 1_554 S
C165 C160 1.479 . S
C165 C164 1.405 . S
C165 H191 0.931 . S
U166 O167 2.454 . S
U166 O168 2.458 . S
U166 C169 2.984 . S
U166 C170 2.847 . S
U166 C183 2.882 . S
U166 O184 2.441 . S
U166 O185 2.420 . S
U166 O186 2.455 . S
U166 O187 2.449 . S
O167 U166 2.454 . S
O167 C169 1.353 . S
O168 U166 2.458 . S
O168 C169 1.286 . S
C169 U166 2.984 . S
C169 O167 1.353 . S
C169 O168 1.286 . S
C169 C171 1.363 . S
C170 C160 1.465 . S
C170 U166 2.847 . S
C170 O184 1.249 . S
C170 O185 1.202 . S
C171 C169 1.363 . S
C171 C173 1.408 . S
C171 C176 1.342 . S
C172 C173 1.310 . S
C172 C175 1.461 . S
C172 H192 0.932 . S
C173 C171 1.408 . S
C173 C172 1.310 . S
C173 H193 0.930 . S
C174 C175 1.474 . S
C174 C176 1.285 . S
C174 H194 0.929 . S
C175 C172 1.461 . S
C175 C174 1.474 . S
C176 C171 1.342 . S
C176 C174 1.285 . S
C176 H195 0.930 . S
C177 C180 1.424 . S
C177 C182 1.245 . S
C177 C183 1.428 . S
C178 C181 1.260 . S
C178 C182 1.477 . S
C178 H196 0.932 . S
C179 C180 1.384 . S
C179 C181 1.479 . S
C179 H197 0.929 . S
C180 C177 1.424 . S
C180 C179 1.384 . S
C180 H198 0.928 . S
C181 C178 1.260 . S
C181 C179 1.479 . S
C182 C177 1.245 . S
C182 C178 1.477 . S
C182 H199 0.932 . S
C183 U166 2.882 . S
C183 C177 1.428 . S
C183 O186 1.301 . S
C183 O187 1.282 . S
O184 U166 2.441 . S
O184 C170 1.249 . S
O185 U166 2.420 . S
O185 C170 1.202 . S
O186 U166 2.455 . S
O186 C183 1.301 . S
O187 U166 2.449 . S
O187 C183 1.282 . S
H188 C161 0.931 . S
H189 C163 0.929 . S
H190 C164 0.930 1_556 S
H191 C165 0.931 . S
H192 C172 0.932 . S
H193 C173 0.930 . S
H194 C174 0.929 . S
H195 C176 0.930 . S
H196 C178 0.932 . S
H197 C179 0.929 . S
H198 C180 0.928 . S
H199 C182 0.932 . S
C200 C201 1.264 . S
C200 C205 1.479 . S
C200 C210 1.465 . S
C201 C200 1.264 . S
C201 C203 1.339 . S
C201 H228 0.931 . S
C202 C203 1.395 . S
C202 C204 1.320 . S
C203 C201 1.339 . S
C203 C202 1.395 . S
C203 H229 0.929 . S
C204 C202 1.320 . S
C204 C205 1.405 . S
C204 H230 0.930 . S
C205 C200 1.479 . S
C205 C204 1.405 . S
C205 H231 0.931 . S
U206 O207 2.454 . S
U206 O208 2.458 . S
U206 C209 2.984 . S
U206 C210 2.847 . S
U206 C223 2.882 . S
U206 O224 2.441 . S
U206 O225 2.420 . S
U206 O226 2.455 . S
U206 O227 2.449 . S
O207 U206 2.454 . S
O207 C209 1.353 . S
O208 U206 2.458 . S
O208 C209 1.286 . S
C209 U206 2.984 . S
C209 O207 1.353 . S
C209 O208 1.286 . S
C209 C211 1.363 . S
C210 C200 1.465 . S
C210 U206 2.847 . S
C210 O224 1.249 . S
C210 O225 1.202 . S
C211 C209 1.363 . S
C211 C213 1.408 . S
C211 C216 1.342 . S
C212 C213 1.310 . S
C212 C215 1.461 . S
C212 H232 0.932 . S
C213 C211 1.408 . S
C213 C212 1.310 . S
C213 H233 0.930 . S
C214 C215 1.474 . S
C214 C216 1.285 . S
C214 H234 0.929 . S
C215 C212 1.461 . S
C215 C214 1.474 . S
C216 C211 1.342 . S
C216 C214 1.285 . S
C216 H235 0.930 . S
C217 C220 1.424 . S
C217 C222 1.245 . S
C217 C223 1.428 . S
C218 C221 1.260 . S
C218 C222 1.477 . S
C218 H236 0.932 1_556 S
C219 C220 1.384 . S
C219 C221 1.479 . S
C219 H237 0.929 . S
C220 C217 1.424 . S
C220 C219 1.384 . S
C220 H238 0.928 . S
C221 C218 1.260 . S
C221 C219 1.479 . S
C222 C217 1.245 . S
C222 C218 1.477 . S
C222 H239 0.932 . S
C223 U206 2.882 . S
C223 C217 1.428 . S
C223 O226 1.301 . S
C223 O227 1.282 . S
O224 U206 2.441 . S
O224 C210 1.249 . S
O225 U206 2.420 . S
O225 C210 1.202 . S
O226 U206 2.455 . S
O226 C223 1.301 . S
O227 U206 2.449 . S
O227 C223 1.282 . S
H228 C201 0.931 . S
H229 C203 0.929 . S
H230 C204 0.930 . S
H231 C205 0.931 . S
H232 C212 0.932 . S
H233 C213 0.930 . S
H234 C214 0.929 . S
H235 C216 0.930 . S
H236 C218 0.932 1_554 S
H237 C219 0.929 . S
H238 C220 0.928 . S
H239 C222 0.932 . S
C15 C135 1.500 1_565 S
C175 C55 1.499 . S
C95 C215 1.533 1_455 S
C2 C82 1.469 . S
C42 C122 1.449 . S
C162 C101 1.548 1_554 S
C202 C141 1.509 . S
C181 C21 1.461 . S
C221 C61 1.482 1_556 S
