# Generated by pormake.
# Topology hex, (8)-cn, num edge types: 1
# Building blocks:
#     Node 0, Type 0, BuildingBlock: NUHRAL_clean_sbu_3, # of connection points: 8
#     Edge 1, Type (0, 0), BuildingBlock: EZIPEK_clean_linker_0, # of connection points: 2
#     Edge 2, Type (0, 0), BuildingBlock: EZIPEK_clean_linker_0, # of connection points: 2
#     Edge 3, Type (0, 0), BuildingBlock: EZIPEK_clean_linker_0, # of connection points: 2
#     Edge 4, Type (0, 0), BuildingBlock: EZIPEK_clean_linker_0, # of connection points: 2
# Relax obj value: 0.033
# Max RMSD: 0.092
# Mean RMSD: 0.092
data_MOF--net-hex--node1-NUHRAL_clean_sbu_3--edge1-EZIPEK_clean_linker_0
_symmetry_space_group_name_H-M    P1
_symmetry_Int_Tables_number       1
_symmetry_cell_setting            triclinic
loop_
_symmetry_equiv_pos_as_xyz
'x, y, z'
_cell_length_a     17.392907
_cell_length_b     14.235249
_cell_length_c     10.95611
_cell_angle_alpha  112.54726
_cell_angle_beta   99.42448
_cell_angle_gamma 111.95926
loop_
_atom_site_label
_atom_site_type_symbol
_atom_site_fract_x
_atom_site_fract_y
_atom_site_fract_z
_atom_type_partial_charge
C0 C 0.75664 0.81762 0.89143 0.0
C1 C 0.71867 0.72017 0.91038 0.0
C2 C 0.64093 0.69415 0.94259 0.0
C3 C 0.60211 0.76583 0.95842 0.0
C4 C 0.63977 0.86339 0.94185 0.0
C5 C 0.71707 0.8896 0.90849 0.0
O6 O 0.04886 0.92191 0.11888 0.0
Tb7 Tb 0.98298 0.85324 0.89424 0.0
O8 O 0.97714 0.68865 0.8676 0.0
O9 O 1.04075 0.09034 0.20287 0.0
Eu10 Eu 0.10622 0.14244 0.06201 0.0
O11 O 0.84681 0.75333 0.77759 0.0
C12 C 0.26205 0.15579 0.11239 0.0
O13 O 0.90673 0.93882 0.93032 0.0
O14 O 1.03744 0.06683 0.82913 0.0
O15 O 0.04744 0.90005 0.75698 0.0
C16 C 0.83296 0.84127 0.84347 0.0
C17 C 1.04069 0.30495 0.00817 0.0
O18 O 0.11139 0.31546 0.08827 0.0
C19 C 1.04195 0.00355 0.2178 0.0
C20 C 0.04461 0.98323 0.73439 0.0
O21 O 0.11056 0.31129 0.08697 0.0
C22 C 0.33739 0.17716 0.06209 0.0
C23 C 0.44991 0.12514 0.00197 0.0
C24 C 0.37569 0.10372 0.04354 0.0
C25 C 0.3747 0.27278 0.03965 0.0
C26 C 0.44929 0.294 -0.0009 0.0
C27 C 0.48563 0.21933 -0.02152 0.0
C28 C 0.0474 0.69299 0.94268 0.0
O29 O 0.97604 0.68338 0.86592 0.0
O30 O 0.24857 0.24422 0.17737 0.0
O31 O 0.18833 0.05763 0.02842 0.0
H32 H 0.74777 0.66322 0.89691 0.0
H33 H 0.54175 0.74497 -0.01745 0.0
H34 H 0.74504 0.96424 0.89283 0.0
H35 H 0.34888 0.03125 0.06349 0.0
H36 H 0.34732 0.33175 0.05611 0.0
H37 H 0.54397 0.23698 0.94886 0.0
C38 C 0.97846 0.43916 0.01946 0.0
C39 C 1.04331 0.40481 -0.0081 0.0
C40 C 0.10939 0.5585 0.93095 0.0
C41 C 0.04461 0.59298 0.95877 0.0
N42 N 0.93322 0.58731 0.06578 0.0
N43 N 0.15557 0.41127 0.88682 0.0
C44 C 0.98262 0.53838 0.01154 0.0
C45 C 0.10551 0.45961 0.93958 0.0
N46 N 0.91166 0.37537 0.05079 0.0
N47 N 0.17591 0.62199 0.89889 0.0
H48 H 0.15125 0.33524 0.88346 0.0
H49 H 0.19494 0.43912 0.83297 0.0
H50 H 0.17938 0.69247 0.88664 0.0
H51 H 0.23137 0.61069 0.89467 0.0
H52 H 0.85619 0.38674 0.05471 0.0
H53 H 0.90795 0.30458 0.06246 0.0
H54 H 0.89409 0.55936 0.11987 0.0
H55 H 0.93816 0.664 0.07064 0.0
C56 C 0.61695 0.02746 0.09118 0.0
C57 C 0.5948 0.93505 0.95607 0.0
C58 C 0.46934 0.9566 0.85701 0.0
C59 C 0.49505 0.05381 -0.01033 0.0
N60 N 0.59735 0.19091 0.22952 0.0
N61 N 0.50789 0.81843 0.7065 0.0
C62 C 0.56999 0.09175 0.106 0.0
C63 C 0.52313 0.90149 0.8377 0.0
N64 N 0.68125 0.0514 0.20588 0.0
N65 N 0.39268 0.91621 0.75055 0.0
H66 H 0.5454 0.77535 0.68903 0.0
H67 H 0.46268 0.79776 0.61323 0.0
H68 H 0.35263 0.9559 0.76071 0.0
H69 H 0.36496 0.83895 0.65593 0.0
H70 H 0.69347 0.10805 0.30996 0.0
H71 H 0.7195 0.00922 0.19802 0.0
H72 H 0.65742 0.23137 0.31213 0.0
H73 H 0.56209 0.23709 0.24696 0.0
C74 C 0.47312 0.39287 0.85274 0.0
C75 C 0.49497 0.39897 -0.01308 0.0
C76 C 0.61456 0.59831 0.0921 0.0
C77 C 0.59645 0.5895 0.95605 0.0
N78 N 0.51702 0.47679 0.70382 0.0
N79 N 0.59114 0.49985 0.23145 0.0
C80 C 0.52814 0.48607 0.83525 0.0
C81 C 0.56699 0.49973 0.10604 0.0
N82 N 0.39869 0.29883 0.74322 0.0
N83 N 0.6756 0.70199 0.20828 0.0
H84 H 0.55536 0.43131 0.24784 0.0
H85 H 0.64936 0.56473 0.31705 0.0
H86 H 0.71459 0.77458 0.20127 0.0
H87 H 0.68415 0.7185 0.31203 0.0
H88 H 0.3736 0.29357 0.64648 0.0
H89 H 0.35756 0.22872 0.75266 0.0
H90 H 0.47468 0.40008 0.60987 0.0
H91 H 0.55525 0.54423 0.68754 0.0
C92 C 0.11948 0.00013 0.56104 0.0
C93 C 1.04239 0.98017 0.59736 0.0
C94 C 0.96633 0.98104 0.38828 0.0
C95 C 1.04339 0.00116 0.3519 0.0
N96 N 0.19672 0.04466 0.4083 0.0
N97 N 0.88852 0.93399 0.53894 0.0
C98 C 0.12072 0.01352 0.43884 0.0
C99 C 0.96487 0.96667 0.50962 0.0
N100 N 0.19122 0.00611 0.64363 0.0
N101 N 0.89499 0.97685 0.30728 0.0
H102 H 0.88429 0.91879 0.62409 0.0
H103 H 0.82734 0.91348 0.4745 0.0
H104 H 0.89132 0.97964 0.21289 0.0
H105 H 0.84112 0.97723 0.33646 0.0
H106 H 0.24636 0.00855 0.61704 0.0
H107 H 0.19442 0.00295 0.73773 0.0
H108 H 0.25781 0.06394 0.47157 0.0
H109 H 0.2008 0.05902 0.32256 0.0
loop_
_geom_bond_atom_site_label_1
_geom_bond_atom_site_label_2
_geom_bond_distance
_geom_bond_site_symmetry_2
_ccdc_geom_bond_type
C0 C1 1.387 . S
C0 C5 1.380 . S
C0 C16 1.494 . S
C1 C0 1.387 . S
C1 C2 1.386 1_556 S
C1 H32 0.930 . S
C2 C1 1.386 1_554 S
C2 C3 1.397 . S
C3 C2 1.397 . S
C3 C4 1.393 1_554 S
C3 H33 0.930 . S
C4 C3 1.393 1_556 S
C4 C5 1.395 . S
C5 C0 1.380 . S
C5 C4 1.395 . S
C5 H34 0.930 . S
O6 Tb7 2.295 1_554 S
O6 C19 1.242 1_665 S
Tb7 O6 2.295 1_556 S
Tb7 O8 2.312 . S
Tb7 O11 2.438 . S
Tb7 O13 2.472 . S
Tb7 O15 2.308 . S
Tb7 C16 2.821 . S
O8 Tb7 2.312 . S
O8 C28 1.264 1_655 S
O9 Eu10 2.308 . S
O9 C19 1.243 . S
Eu10 O9 2.308 . S
Eu10 C12 2.821 . S
Eu10 O14 2.295 1_554 S
Eu10 O21 2.312 . S
Eu10 O30 2.438 . S
Eu10 O31 2.472 . S
O11 Tb7 2.438 . S
O11 C16 1.263 . S
C12 Eu10 2.821 . S
C12 C22 1.494 . S
C12 O30 1.263 . S
C12 O31 1.264 . S
O13 Tb7 2.472 . S
O13 C16 1.264 . S
O14 Eu10 2.295 1_556 S
O14 C20 1.242 1_445 S
O15 Tb7 2.308 . S
O15 C20 1.243 . S
C16 C0 1.494 . S
C16 Tb7 2.821 . S
C16 O11 1.263 . S
C16 O13 1.264 . S
C17 O18 1.260 . S
C17 O21 1.264 1_655 S
O18 C17 1.260 . S
C19 O6 1.242 1_445 S
C19 O9 1.243 . S
C20 O14 1.242 1_665 S
C20 O15 1.243 . S
O21 Eu10 2.312 . S
O21 C17 1.264 1_455 S
C22 C12 1.494 . S
C22 C24 1.380 . S
C22 C25 1.387 . S
C23 C24 1.395 . S
C23 C27 1.393 1_554 S
C24 C22 1.380 . S
C24 C23 1.395 . S
C24 H35 0.930 . S
C25 C22 1.387 . S
C25 C26 1.386 1_554 S
C25 H36 0.930 . S
C26 C25 1.386 1_556 S
C26 C27 1.397 . S
C27 C23 1.393 1_556 S
C27 C26 1.397 . S
C27 H37 0.930 . S
C28 O8 1.264 1_455 S
C28 O29 1.260 . S
O29 C28 1.260 . S
O30 Eu10 2.438 . S
O30 C12 1.263 . S
O31 Eu10 2.472 . S
O31 C12 1.264 . S
H32 C1 0.930 . S
H33 C3 0.930 . S
H34 C5 0.930 . S
H35 C24 0.930 . S
H36 C25 0.930 . S
H37 C27 0.930 . S
C38 C39 1.363 . S
C38 C44 1.379 . S
C38 N46 1.356 . S
C39 C38 1.363 . S
C39 C45 1.363 1_654 S
C40 C41 1.363 . S
C40 C45 1.379 . S
C40 N47 1.356 . S
C41 C40 1.363 . S
C41 C44 1.363 1_456 S
N42 C44 1.356 . S
N42 H54 0.984 . S
N42 H55 0.985 . S
N43 C45 1.356 . S
N43 H48 0.984 . S
N43 H49 0.985 . S
C44 C38 1.379 . S
C44 C41 1.363 1_654 S
C44 N42 1.356 . S
C45 C39 1.363 1_456 S
C45 C40 1.379 . S
C45 N43 1.356 . S
N46 C38 1.356 . S
N46 H52 0.984 . S
N46 H53 0.984 . S
N47 C40 1.356 . S
N47 H50 0.984 . S
N47 H51 0.985 . S
H48 N43 0.984 . S
H49 N43 0.985 . S
H50 N47 0.984 . S
H51 N47 0.985 . S
H52 N46 0.984 . S
H53 N46 0.984 . S
H54 N42 0.984 . S
H55 N42 0.985 . S
C56 C57 1.363 1_544 S
C56 C62 1.379 . S
C56 N64 1.356 . S
C57 C56 1.363 1_566 S
C57 C63 1.363 . S
C58 C59 1.363 1_566 S
C58 C63 1.379 . S
C58 N65 1.356 . S
C59 C58 1.363 1_544 S
C59 C62 1.363 . S
N60 C62 1.356 . S
N60 H72 0.984 . S
N60 H73 0.985 . S
N61 C63 1.356 . S
N61 H66 0.984 . S
N61 H67 0.985 . S
C62 C56 1.379 . S
C62 C59 1.363 . S
C62 N60 1.356 . S
C63 C57 1.363 . S
C63 C58 1.379 . S
C63 N61 1.356 . S
N64 C56 1.356 . S
N64 H70 0.984 . S
N64 H71 0.984 . S
N65 C58 1.356 . S
N65 H68 0.984 . S
N65 H69 0.985 . S
H66 N61 0.984 . S
H67 N61 0.985 . S
H68 N65 0.984 . S
H69 N65 0.985 . S
H70 N64 0.984 . S
H71 N64 0.984 . S
H72 N60 0.984 . S
H73 N60 0.985 . S
C74 C75 1.363 . S
C74 C80 1.379 . S
C74 N82 1.356 . S
C75 C74 1.363 . S
C75 C81 1.363 1_556 S
C76 C77 1.363 . S
C76 C81 1.379 . S
C76 N83 1.356 . S
C77 C76 1.363 . S
C77 C80 1.363 1_554 S
N78 C80 1.356 . S
N78 H90 0.984 . S
N78 H91 0.985 . S
N79 C81 1.356 . S
N79 H84 0.984 . S
N79 H85 0.985 . S
C80 C74 1.379 . S
C80 C77 1.363 1_556 S
C80 N78 1.356 . S
C81 C75 1.363 1_554 S
C81 C76 1.379 . S
C81 N79 1.356 . S
N82 C74 1.356 . S
N82 H88 0.984 . S
N82 H89 0.984 . S
N83 C76 1.356 . S
N83 H86 0.984 . S
N83 H87 0.985 . S
H84 N79 0.984 . S
H85 N79 0.985 . S
H86 N83 0.984 . S
H87 N83 0.985 . S
H88 N82 0.984 . S
H89 N82 0.984 . S
H90 N78 0.984 . S
H91 N78 0.985 . S
C92 C93 1.364 . S
C92 C98 1.379 . S
C92 N100 1.356 . S
C93 C92 1.364 . S
C93 C99 1.363 1_465 S
C94 C95 1.365 1_655 S
C94 C99 1.379 . S
C94 N101 1.356 . S
C95 C94 1.365 1_455 S
C95 C98 1.360 1_545 S
N96 C98 1.356 . S
N96 H108 0.984 . S
N96 H109 0.985 . S
N97 C99 1.356 . S
N97 H102 0.984 . S
N97 H103 0.985 . S
C98 C92 1.379 . S
C98 C95 1.360 1_565 S
C98 N96 1.356 . S
C99 C93 1.363 1_645 S
C99 C94 1.379 . S
C99 N97 1.356 . S
N100 C92 1.356 . S
N100 H106 0.984 . S
N100 H107 0.984 . S
N101 C94 1.356 . S
N101 H104 0.984 . S
N101 H105 0.985 . S
H102 N97 0.984 . S
H103 N97 0.985 . S
H104 N101 0.984 . S
H105 N101 0.985 . S
H106 N100 0.984 . S
H107 N100 0.984 . S
H108 N96 0.984 . S
H109 N96 0.985 . S
C39 C17 0.635 . S
C41 C28 0.635 . S
C57 C4 2.031 . S
C59 C23 2.031 . S
C75 C26 1.848 . S
C77 C2 1.848 . S
C93 C20 1.490 1_455 S
C95 C19 1.492 . S
