# Generated by pormake.
# Topology uog, (4)-cn, num edge types: 1
# Building blocks:
#     Node 0, Type 0, BuildingBlock: NAWXER_clean_sbu_0, # of connection points: 4
#     Node 1, Type 0, BuildingBlock: NAWXER_clean_sbu_0, # of connection points: 4
#     Node 2, Type 0, BuildingBlock: NAWXER_clean_sbu_0, # of connection points: 4
#     Node 3, Type 0, BuildingBlock: NAWXER_clean_sbu_0, # of connection points: 4
#     Node 4, Type 0, BuildingBlock: NAWXER_clean_sbu_0, # of connection points: 4
#     Node 5, Type 0, BuildingBlock: NAWXER_clean_sbu_0, # of connection points: 4
#     Edge 6, Type (0, 0), BuildingBlock: OJICUG_clean_linker_0, # of connection points: 2
#     Edge 7, Type (0, 0), BuildingBlock: OJICUG_clean_linker_0, # of connection points: 2
#     Edge 8, Type (0, 0), BuildingBlock: OJICUG_clean_linker_0, # of connection points: 2
#     Edge 9, Type (0, 0), BuildingBlock: OJICUG_clean_linker_0, # of connection points: 2
#     Edge 10, Type (0, 0), BuildingBlock: OJICUG_clean_linker_0, # of connection points: 2
#     Edge 11, Type (0, 0), BuildingBlock: OJICUG_clean_linker_0, # of connection points: 2
#     Edge 12, Type (0, 0), BuildingBlock: OJICUG_clean_linker_0, # of connection points: 2
#     Edge 13, Type (0, 0), BuildingBlock: OJICUG_clean_linker_0, # of connection points: 2
#     Edge 14, Type (0, 0), BuildingBlock: OJICUG_clean_linker_0, # of connection points: 2
#     Edge 15, Type (0, 0), BuildingBlock: OJICUG_clean_linker_0, # of connection points: 2
#     Edge 16, Type (0, 0), BuildingBlock: OJICUG_clean_linker_0, # of connection points: 2
#     Edge 17, Type (0, 0), BuildingBlock: OJICUG_clean_linker_0, # of connection points: 2
# Relax obj value: 0.013
# Max RMSD: 0.240
# Mean RMSD: 0.240
data_MOF--net-uog--node1-NAWXER_clean_sbu_0--edge1-OJICUG_clean_linker_0
_symmetry_space_group_name_H-M    P1
_symmetry_Int_Tables_number       1
_symmetry_cell_setting            triclinic
loop_
_symmetry_equiv_pos_as_xyz
'x, y, z'
_cell_length_a     21.204105
_cell_length_b     21.191405
_cell_length_c     31.694288
_cell_angle_alpha  89.973014
_cell_angle_beta   90.028566
_cell_angle_gamma 120.02103
loop_
_atom_site_label
_atom_site_type_symbol
_atom_site_fract_x
_atom_site_fract_y
_atom_site_fract_z
_atom_type_partial_charge
C0 C 0.5322 0.38295 0.16986 0.0
C1 C 0.53222 0.15331 0.17323 0.0
O2 O 0.47837 0.31842 0.17084 0.0
Zn3 Zn 0.53295 0.2685 0.17153 0.0
O4 O 0.59717 0.39304 0.16979 0.0
Zn5 Zn 0.64727 0.32574 0.17148 0.0
O6 O 0.70183 0.34976 0.11989 0.0
O7 O 0.58289 0.29246 0.10977 0.0
O8 O 0.59718 0.20827 0.17323 0.0
O9 O 0.47838 0.16394 0.17227 0.0
O10 O 0.58312 0.2946 0.23324 0.0
O11 O 0.70202 0.35648 0.22303 0.0
C12 C 0.64786 0.32332 0.09486 0.0
C13 C 0.64813 0.32884 0.2481 0.0
C14 C 0.32614 0.645 0.58161 0.0
C15 C 0.33154 0.64515 0.42838 0.0
O16 O 0.35254 0.699 0.55658 0.0
Zn17 Zn 0.32854 0.64437 0.50499 0.0
O18 O 0.29532 0.57999 0.56671 0.0
Zn19 Zn 0.27133 0.52996 0.50498 0.0
O20 O 0.32139 0.47544 0.50567 0.0
O21 O 0.39587 0.59431 0.50668 0.0
O22 O 0.29736 0.58011 0.44326 0.0
O23 O 0.35919 0.69911 0.45343 0.0
O24 O 0.21115 0.59428 0.50327 0.0
O25 O 0.16676 0.47541 0.50426 0.0
C26 C 0.38587 0.52934 0.50663 0.0
C27 C 0.15618 0.5293 0.50329 0.0
C28 C 0.68688 0.32306 0.91477 0.0
C29 C 0.69255 0.32849 0.76154 0.0
O30 O 0.6593 0.34938 0.88969 0.0
Zn31 Zn 0.69003 0.32537 0.83816 0.0
O32 O 0.72107 0.29224 0.89994 0.0
Zn33 Zn 0.74714 0.26816 0.83826 0.0
O34 O 0.85163 0.31808 0.83902 0.0
O35 O 0.80745 0.3927 0.83994 0.0
O36 O 0.72329 0.29427 0.77648 0.0
O37 O 0.66617 0.35609 0.78654 0.0
O38 O 0.62267 0.20791 0.83645 0.0
O39 O 0.69714 0.1636 0.83758 0.0
C40 C 0.86233 0.38261 0.83996 0.0
C41 C 0.63268 0.15296 0.83654 0.0
C42 C 0.37046 0.6844 0.24828 0.0
C43 C 0.3703 0.6898 0.09504 0.0
O44 O 0.31649 0.65677 0.22324 0.0
Zn45 Zn 0.37109 0.68748 0.17166 0.0
O46 O 0.43543 0.71862 0.23338 0.0
Zn47 Zn 0.48542 0.74471 0.17164 0.0
O48 O 0.53998 0.84927 0.17232 0.0
O49 O 0.42119 0.80494 0.17335 0.0
O50 O 0.4353 0.72065 0.10992 0.0
O51 O 0.31638 0.66345 0.12009 0.0
O52 O 0.42118 0.62016 0.16994 0.0
O53 O 0.53998 0.69478 0.17094 0.0
C54 C 0.48616 0.8599 0.17329 0.0
C55 C 0.48615 0.63025 0.16997 0.0
C56 C 0.63336 0.48367 0.50648 0.0
C57 C 0.86302 0.48364 0.50318 0.0
O58 O 0.69784 0.53756 0.50551 0.0
Zn59 Zn 0.74786 0.48301 0.50482 0.0
O60 O 0.62335 0.41869 0.50652 0.0
Zn61 Zn 0.69066 0.3686 0.50481 0.0
O62 O 0.66664 0.31388 0.55638 0.0
O63 O 0.7238 0.43287 0.56654 0.0
O64 O 0.80804 0.41866 0.50313 0.0
O65 O 0.85244 0.53754 0.50414 0.0
O66 O 0.72177 0.43296 0.44308 0.0
O67 O 0.65997 0.31395 0.45323 0.0
C68 C 0.69297 0.36784 0.58143 0.0
C69 C 0.68756 0.36794 0.42819 0.0
C70 C 0.38534 0.85954 0.83655 0.0
C71 C 0.15569 0.62989 0.83992 0.0
O72 O 0.32088 0.8489 0.83748 0.0
Zn73 Zn 0.27089 0.74434 0.83823 0.0
O74 O 0.39535 0.80458 0.83655 0.0
Zn75 Zn 0.32798 0.68711 0.83831 0.0
O76 O 0.35196 0.65636 0.78678 0.0
O77 O 0.29492 0.71823 0.77653 0.0
O78 O 0.21057 0.6198 0.84001 0.0
O79 O 0.1664 0.69442 0.8389 0.0
O80 O 0.2969 0.72037 0.9 0.0
O81 O 0.35861 0.66314 0.88992 0.0
C82 C 0.32569 0.684 0.7617 0.0
C83 C 0.33105 0.68955 0.91493 0.0
C84 C 0.57995 0.06635 0.17401 0.0
C85 C 0.52038 0.07823 0.17391 0.0
H86 H 0.616 0.98836 0.17391 0.0
C87 C 0.44949 0.01768 0.17407 0.0
H88 H 0.6353 0.11175 0.1739 0.0
C89 C 0.43843 0.94687 0.17411 0.0
C90 C 0.498 0.93498 0.17394 0.0
H91 H 0.40238 0.02485 0.17403 0.0
H92 H 0.38308 0.90146 0.17407 0.0
C93 C 0.56889 0.99554 0.17401 0.0
C94 C 0.43885 0.44671 0.50734 0.0
C95 C 0.44914 0.51759 0.50725 0.0
H96 H 0.48871 0.3804 0.50723 0.0
C97 C 0.5206 0.57726 0.50736 0.0
H98 H 0.38457 0.39952 0.50728 0.0
C99 C 0.58038 0.5663 0.5073 0.0
C100 C 0.57009 0.49542 0.50716 0.0
H101 H 0.53053 0.63261 0.5073 0.0
H102 H 0.63466 0.61349 0.50722 0.0
C103 C 0.49863 0.43575 0.50731 0.0
C104 C 0.99786 0.43541 0.8408 0.0
C105 C 0.93739 0.44583 0.84063 0.0
H106 H 0.11399 0.48512 0.84078 0.0
C107 C 0.94936 0.51736 0.8407 0.0
H108 H 0.99062 0.38106 0.84078 0.0
C109 C 0.02016 0.57709 0.84067 0.0
C110 C 0.08063 0.56667 0.8406 0.0
H111 H 0.90403 0.52737 0.84058 0.0
H112 H 0.0274 0.63144 0.84055 0.0
C113 C 0.06866 0.49514 0.84081 0.0
C114 C 0.02056 0.44667 0.50248 0.0
C115 C 0.08116 0.51755 0.50262 0.0
H116 H 0.90439 0.38036 0.5025 0.0
C117 C 0.06937 0.57722 0.50247 0.0
H118 H 0.02765 0.39948 0.50256 0.0
C119 C 0.99864 0.56627 0.50246 0.0
C120 C 0.93803 0.49539 0.50256 0.0
H121 H 0.1148 0.63258 0.50256 0.0
H122 H 0.99155 0.61346 0.50253 0.0
C123 C 0.94982 0.43572 0.50244 0.0
C124 C 0.43824 0.99517 0.83569 0.0
C125 C 0.44858 0.93462 0.83587 0.0
H126 H 0.48804 0.11138 0.83569 0.0
C127 C 0.52004 0.94651 0.8358 0.0
H128 H 0.38395 0.98798 0.83571 0.0
C129 C 0.57978 0.01732 0.83582 0.0
C130 C 0.56945 0.07788 0.83587 0.0
H131 H 0.52999 0.90111 0.83593 0.0
H132 H 0.63408 0.02451 0.83594 0.0
C133 C 0.49799 0.06598 0.83567 0.0
C134 C 0.43841 0.49549 0.16916 0.0
C135 C 0.49798 0.56702 0.16929 0.0
H136 H 0.40236 0.38141 0.16922 0.0
C137 C 0.56887 0.57744 0.16913 0.0
H138 H 0.38306 0.48549 0.16925 0.0
C139 C 0.57993 0.5177 0.16909 0.0
C140 C 0.52036 0.44617 0.16922 0.0
H141 H 0.61598 0.63179 0.1692 0.0
H142 H 0.63527 0.52771 0.16914 0.0
C143 C 0.44947 0.43576 0.16914 0.0
C144 C 0.61733 0.32678 0.97746 0.0
C145 C 0.67841 0.32624 0.96079 0.0
H146 H 0.55917 0.32497 0.03317 0.0
C147 C 0.7304 0.32677 0.98851 0.0
H148 H 0.57628 0.32605 0.95677 0.0
C149 C 0.72146 0.32783 0.03215 0.0
C150 C 0.65938 0.32637 0.04883 0.0
H151 H 0.77813 0.32664 0.97644 0.0
H152 H 0.76221 0.32794 0.05283 0.0
C153 C 0.60741 0.32585 0.02111 0.0
C154 C 0.41069 0.72768 0.32199 0.0
C155 C 0.35893 0.67591 0.29431 0.0
H156 H 0.44168 0.75925 0.3863 0.0
C157 C 0.29708 0.61499 0.31102 0.0
H158 H 0.45873 0.77527 0.3099 0.0
C159 C 0.28818 0.60501 0.35466 0.0
C160 C 0.33996 0.65677 0.38235 0.0
H161 H 0.25651 0.57411 0.29035 0.0
H162 H 0.24064 0.55691 0.36676 0.0
C163 C 0.40079 0.71869 0.36564 0.0
C164 C 0.68863 0.39794 0.69878 0.0
C165 C 0.68956 0.33702 0.7155 0.0
H166 H 0.69028 0.45604 0.64303 0.0
C167 C 0.68961 0.28529 0.68783 0.0
H168 H 0.6889 0.43879 0.71944 0.0
C169 C 0.68873 0.2943 0.64418 0.0
C170 C 0.68979 0.35622 0.62746 0.0
H171 H 0.69007 0.23769 0.69993 0.0
H172 H 0.68907 0.25376 0.62352 0.0
C173 C 0.68973 0.40795 0.65513 0.0
C174 C 0.40042 0.68556 0.97768 0.0
C175 C 0.33954 0.68649 0.96096 0.0
H176 H 0.45848 0.68718 0.03343 0.0
C177 C 0.2878 0.68647 0.98864 0.0
H178 H 0.44127 0.68588 0.95703 0.0
C179 C 0.29679 0.68554 0.03229 0.0
C180 C 0.35868 0.68663 0.04901 0.0
H181 H 0.24023 0.68692 0.97653 0.0
H182 H 0.25625 0.68584 0.05295 0.0
C183 C 0.4104 0.68662 0.02133 0.0
C184 C 0.73069 0.40819 0.35445 0.0
C185 C 0.67903 0.35637 0.38216 0.0
H186 H 0.76214 0.43916 0.29013 0.0
C187 C 0.61817 0.29444 0.36548 0.0
H188 H 0.77824 0.4563 0.36652 0.0
C189 C 0.60814 0.28549 0.32183 0.0
C190 C 0.65979 0.33731 0.29413 0.0
H191 H 0.57737 0.25383 0.38616 0.0
H192 H 0.56009 0.23788 0.30976 0.0
C193 C 0.72166 0.39824 0.31081 0.0
C194 C 0.32905 0.72737 0.68795 0.0
C195 C 0.3289 0.67555 0.71567 0.0
H196 H 0.32996 0.75905 0.62363 0.0
C197 C 0.32989 0.61465 0.69901 0.0
H198 H 0.32856 0.77495 0.70002 0.0
C199 C 0.32902 0.60474 0.65536 0.0
C200 C 0.32915 0.65655 0.62764 0.0
H201 H 0.32947 0.57374 0.7197 0.0
H202 H 0.3285 0.55665 0.6433 0.0
C203 C 0.33017 0.71845 0.64431 0.0
loop_
_geom_bond_atom_site_label_1
_geom_bond_atom_site_label_2
_geom_bond_distance
_geom_bond_site_symmetry_2
_ccdc_geom_bond_type
C0 O2 1.247 . S
C0 O4 1.258 . S
C1 O8 1.247 . S
C1 O9 1.258 . S
O2 C0 1.247 . S
O2 Zn3 2.028 . S
Zn3 O2 2.028 . S
Zn3 O7 2.035 . S
Zn3 O9 2.035 . S
Zn3 O10 2.028 . S
O4 C0 1.258 . S
O4 Zn5 2.035 . S
Zn5 O4 2.035 . S
Zn5 O6 2.028 . S
Zn5 O8 2.028 . S
Zn5 O11 2.035 . S
O6 Zn5 2.028 . S
O6 C12 1.247 . S
O7 Zn3 2.035 . S
O7 C12 1.258 . S
O8 C1 1.247 . S
O8 Zn5 2.028 . S
O9 C1 1.258 . S
O9 Zn3 2.035 . S
O10 Zn3 2.028 . S
O10 C13 1.247 . S
O11 Zn5 2.035 . S
O11 C13 1.258 . S
C12 O6 1.247 . S
C12 O7 1.258 . S
C13 O10 1.247 . S
C13 O11 1.258 . S
C14 O16 1.247 . S
C14 O18 1.258 . S
C15 O22 1.247 . S
C15 O23 1.258 . S
O16 C14 1.247 . S
O16 Zn17 2.028 . S
Zn17 O16 2.028 . S
Zn17 O21 2.035 . S
Zn17 O23 2.035 . S
Zn17 O24 2.028 . S
O18 C14 1.258 . S
O18 Zn19 2.035 . S
Zn19 O18 2.035 . S
Zn19 O20 2.028 . S
Zn19 O22 2.028 . S
Zn19 O25 2.035 . S
O20 Zn19 2.028 . S
O20 C26 1.247 . S
O21 Zn17 2.035 . S
O21 C26 1.258 . S
O22 C15 1.247 . S
O22 Zn19 2.028 . S
O23 C15 1.258 . S
O23 Zn17 2.035 . S
O24 Zn17 2.028 . S
O24 C27 1.247 . S
O25 Zn19 2.035 . S
O25 C27 1.258 . S
C26 O20 1.247 . S
C26 O21 1.258 . S
C27 O24 1.247 . S
C27 O25 1.258 . S
C28 O30 1.247 . S
C28 O32 1.258 . S
C29 O36 1.247 . S
C29 O37 1.258 . S
O30 C28 1.247 . S
O30 Zn31 2.028 . S
Zn31 O30 2.028 . S
Zn31 O35 2.035 . S
Zn31 O37 2.035 . S
Zn31 O38 2.028 . S
O32 C28 1.258 . S
O32 Zn33 2.035 . S
Zn33 O32 2.035 . S
Zn33 O34 2.028 . S
Zn33 O36 2.028 . S
Zn33 O39 2.035 . S
O34 Zn33 2.028 . S
O34 C40 1.247 . S
O35 Zn31 2.035 . S
O35 C40 1.258 . S
O36 C29 1.247 . S
O36 Zn33 2.028 . S
O37 C29 1.258 . S
O37 Zn31 2.035 . S
O38 Zn31 2.028 . S
O38 C41 1.247 . S
O39 Zn33 2.035 . S
O39 C41 1.258 . S
C40 O34 1.247 . S
C40 O35 1.258 . S
C41 O38 1.247 . S
C41 O39 1.258 . S
C42 O44 1.247 . S
C42 O46 1.258 . S
C43 O50 1.247 . S
C43 O51 1.258 . S
O44 C42 1.247 . S
O44 Zn45 2.028 . S
Zn45 O44 2.028 . S
Zn45 O49 2.035 . S
Zn45 O51 2.035 . S
Zn45 O52 2.028 . S
O46 C42 1.258 . S
O46 Zn47 2.035 . S
Zn47 O46 2.035 . S
Zn47 O48 2.028 . S
Zn47 O50 2.028 . S
Zn47 O53 2.035 . S
O48 Zn47 2.028 . S
O48 C54 1.247 . S
O49 Zn45 2.035 . S
O49 C54 1.258 . S
O50 C43 1.247 . S
O50 Zn47 2.028 . S
O51 C43 1.258 . S
O51 Zn45 2.035 . S
O52 Zn45 2.028 . S
O52 C55 1.247 . S
O53 Zn47 2.035 . S
O53 C55 1.258 . S
C54 O48 1.247 . S
C54 O49 1.258 . S
C55 O52 1.247 . S
C55 O53 1.258 . S
C56 O58 1.247 . S
C56 O60 1.258 . S
C57 O64 1.247 . S
C57 O65 1.258 . S
O58 C56 1.247 . S
O58 Zn59 2.028 . S
Zn59 O58 2.028 . S
Zn59 O63 2.035 . S
Zn59 O65 2.035 . S
Zn59 O66 2.028 . S
O60 C56 1.258 . S
O60 Zn61 2.035 . S
Zn61 O60 2.035 . S
Zn61 O62 2.028 . S
Zn61 O64 2.028 . S
Zn61 O67 2.035 . S
O62 Zn61 2.028 . S
O62 C68 1.247 . S
O63 Zn59 2.035 . S
O63 C68 1.258 . S
O64 C57 1.247 . S
O64 Zn61 2.028 . S
O65 C57 1.258 . S
O65 Zn59 2.035 . S
O66 Zn59 2.028 . S
O66 C69 1.247 . S
O67 Zn61 2.035 . S
O67 C69 1.258 . S
C68 O62 1.247 . S
C68 O63 1.258 . S
C69 O66 1.247 . S
C69 O67 1.258 . S
C70 O72 1.247 . S
C70 O74 1.258 . S
C71 O78 1.247 . S
C71 O79 1.258 . S
O72 C70 1.247 . S
O72 Zn73 2.028 . S
Zn73 O72 2.028 . S
Zn73 O77 2.035 . S
Zn73 O79 2.035 . S
Zn73 O80 2.028 . S
O74 C70 1.258 . S
O74 Zn75 2.035 . S
Zn75 O74 2.035 . S
Zn75 O76 2.028 . S
Zn75 O78 2.028 . S
Zn75 O81 2.035 . S
O76 Zn75 2.028 . S
O76 C82 1.247 . S
O77 Zn73 2.035 . S
O77 C82 1.258 . S
O78 C71 1.247 . S
O78 Zn75 2.028 . S
O79 C71 1.258 . S
O79 Zn73 2.035 . S
O80 Zn73 2.028 . S
O80 C83 1.247 . S
O81 Zn75 2.035 . S
O81 C83 1.258 . S
C82 O76 1.247 . S
C82 O77 1.258 . S
C83 O80 1.247 . S
C83 O81 1.258 . S
C84 C85 1.387 . S
C84 H88 0.950 . S
C84 C93 1.390 1_545 S
C85 C84 1.387 . S
C85 C87 1.387 . S
H86 C93 0.950 . S
C87 C85 1.387 . S
C87 C89 1.390 1_545 S
C87 H91 0.950 . S
H88 C84 0.950 . S
C89 C87 1.390 1_565 S
C89 C90 1.387 . S
C89 H92 0.950 . S
C90 C89 1.387 . S
C90 C93 1.387 . S
H91 C87 0.950 . S
H92 C89 0.950 . S
C93 C84 1.390 1_565 S
C93 H86 0.950 . S
C93 C90 1.387 . S
C94 C95 1.387 . S
C94 H98 0.950 . S
C94 C103 1.390 . S
C95 C94 1.387 . S
C95 C97 1.387 . S
H96 C103 0.950 . S
C97 C95 1.387 . S
C97 C99 1.390 . S
C97 H101 0.950 . S
H98 C94 0.950 . S
C99 C97 1.390 . S
C99 C100 1.387 . S
C99 H102 0.950 . S
C100 C99 1.387 . S
C100 C103 1.387 . S
H101 C97 0.950 . S
H102 C99 0.950 . S
C103 C94 1.390 . S
C103 H96 0.950 . S
C103 C100 1.387 . S
C104 C105 1.387 . S
C104 H108 0.950 . S
C104 C113 1.390 1_655 S
C105 C104 1.387 . S
C105 C107 1.387 . S
H106 C113 0.950 . S
C107 C105 1.387 . S
C107 C109 1.390 1_655 S
C107 H111 0.950 . S
H108 C104 0.950 . S
C109 C107 1.390 1_455 S
C109 C110 1.387 . S
C109 H112 0.950 . S
C110 C109 1.387 . S
C110 C113 1.387 . S
H111 C107 0.950 . S
H112 C109 0.950 . S
C113 C104 1.390 1_455 S
C113 H106 0.950 . S
C113 C110 1.387 . S
C114 C115 1.387 . S
C114 H118 0.950 . S
C114 C123 1.390 1_455 S
C115 C114 1.387 . S
C115 C117 1.387 . S
H116 C123 0.950 . S
C117 C115 1.387 . S
C117 C119 1.390 1_455 S
C117 H121 0.950 . S
H118 C114 0.950 . S
C119 C117 1.390 1_655 S
C119 C120 1.387 . S
C119 H122 0.950 . S
C120 C119 1.387 . S
C120 C123 1.387 . S
H121 C117 0.950 . S
H122 C119 0.950 . S
C123 C114 1.390 1_655 S
C123 H116 0.950 . S
C123 C120 1.387 . S
C124 C125 1.387 . S
C124 H128 0.950 . S
C124 C133 1.390 1_565 S
C125 C124 1.387 . S
C125 C127 1.387 . S
H126 C133 0.950 . S
C127 C125 1.387 . S
C127 C129 1.390 1_565 S
C127 H131 0.950 . S
H128 C124 0.950 . S
C129 C127 1.390 1_545 S
C129 C130 1.387 . S
C129 H132 0.950 . S
C130 C129 1.387 . S
C130 C133 1.387 . S
H131 C127 0.950 . S
H132 C129 0.950 . S
C133 C124 1.390 1_545 S
C133 H126 0.950 . S
C133 C130 1.387 . S
C134 C135 1.387 . S
C134 H138 0.950 . S
C134 C143 1.390 . S
C135 C134 1.387 . S
C135 C137 1.387 . S
H136 C143 0.950 . S
C137 C135 1.387 . S
C137 C139 1.390 . S
C137 H141 0.950 . S
H138 C134 0.950 . S
C139 C137 1.390 . S
C139 C140 1.387 . S
C139 H142 0.950 . S
C140 C139 1.387 . S
C140 C143 1.387 . S
H141 C137 0.950 . S
H142 C139 0.950 . S
C143 C134 1.390 . S
C143 H136 0.950 . S
C143 C140 1.387 . S
C144 C145 1.387 . S
C144 H148 0.950 . S
C144 C153 1.390 1_556 S
C145 C144 1.387 . S
C145 C147 1.387 . S
H146 C153 0.950 . S
C147 C145 1.387 . S
C147 C149 1.390 1_556 S
C147 H151 0.950 . S
H148 C144 0.950 . S
C149 C147 1.390 1_554 S
C149 C150 1.387 . S
C149 H152 0.950 . S
C150 C149 1.387 . S
C150 C153 1.387 . S
H151 C147 0.950 . S
H152 C149 0.950 . S
C153 C144 1.390 1_554 S
C153 H146 0.950 . S
C153 C150 1.387 . S
C154 C155 1.387 . S
C154 H158 0.950 . S
C154 C163 1.390 . S
C155 C154 1.387 . S
C155 C157 1.387 . S
H156 C163 0.950 . S
C157 C155 1.387 . S
C157 C159 1.390 . S
C157 H161 0.950 . S
H158 C154 0.950 . S
C159 C157 1.390 . S
C159 C160 1.387 . S
C159 H162 0.950 . S
C160 C159 1.387 . S
C160 C163 1.387 . S
H161 C157 0.950 . S
H162 C159 0.950 . S
C163 C154 1.390 . S
C163 H156 0.950 . S
C163 C160 1.387 . S
C164 C165 1.387 . S
C164 H168 0.950 . S
C164 C173 1.390 . S
C165 C164 1.387 . S
C165 C167 1.387 . S
H166 C173 0.950 . S
C167 C165 1.387 . S
C167 C169 1.390 . S
C167 H171 0.950 . S
H168 C164 0.950 . S
C169 C167 1.390 . S
C169 C170 1.387 . S
C169 H172 0.950 . S
C170 C169 1.387 . S
C170 C173 1.387 . S
H171 C167 0.950 . S
H172 C169 0.950 . S
C173 C164 1.390 . S
C173 H166 0.950 . S
C173 C170 1.387 . S
C174 C175 1.387 . S
C174 H178 0.950 . S
C174 C183 1.390 1_556 S
C175 C174 1.387 . S
C175 C177 1.387 . S
H176 C183 0.950 . S
C177 C175 1.387 . S
C177 C179 1.390 1_556 S
C177 H181 0.950 . S
H178 C174 0.950 . S
C179 C177 1.390 1_554 S
C179 C180 1.387 . S
C179 H182 0.950 . S
C180 C179 1.387 . S
C180 C183 1.387 . S
H181 C177 0.950 . S
H182 C179 0.950 . S
C183 C174 1.390 1_554 S
C183 H176 0.950 . S
C183 C180 1.387 . S
C184 C185 1.387 . S
C184 H188 0.950 . S
C184 C193 1.390 . S
C185 C184 1.387 . S
C185 C187 1.387 . S
H186 C193 0.950 . S
C187 C185 1.387 . S
C187 C189 1.390 . S
C187 H191 0.950 . S
H188 C184 0.950 . S
C189 C187 1.390 . S
C189 C190 1.387 . S
C189 H192 0.950 . S
C190 C189 1.387 . S
C190 C193 1.387 . S
H191 C187 0.950 . S
H192 C189 0.950 . S
C193 C184 1.390 . S
C193 H186 0.950 . S
C193 C190 1.387 . S
C194 C195 1.387 . S
C194 H198 0.950 . S
C194 C203 1.390 . S
C195 C194 1.387 . S
C195 C197 1.387 . S
H196 C203 0.950 . S
C197 C195 1.387 . S
C197 C199 1.390 . S
C197 H201 0.950 . S
H198 C194 0.950 . S
C199 C197 1.390 . S
C199 C200 1.387 . S
C199 H202 0.950 . S
C200 C199 1.387 . S
C200 C203 1.387 . S
H201 C197 0.950 . S
H202 C199 0.950 . S
C203 C194 1.390 . S
C203 H196 0.950 . S
C203 C200 1.387 . S
C85 C1 1.710 . S
C90 C54 1.707 . S
C95 C26 1.707 . S
C100 C56 1.707 . S
C105 C40 1.710 . S
C110 C71 1.713 . S
C115 C27 1.710 . S
C120 C57 1.710 . S
C125 C70 1.710 . S
C130 C41 1.713 . S
C135 C55 1.713 . S
C140 C0 1.710 . S
C145 C28 1.762 . S
C150 C12 1.762 . S
C155 C42 1.765 . S
C160 C15 1.767 . S
C165 C29 1.765 . S
C170 C68 1.762 . S
C175 C83 1.765 . S
C180 C43 1.765 . S
C185 C69 1.765 . S
C190 C13 1.765 . S
C195 C82 1.764 . S
C200 C14 1.763 . S
