# Generated by pormake.
# Topology yfx, (5)-cn, num edge types: 1
# Building blocks:
#     Node 0, Type 0, BuildingBlock: XOMCOT_clean_sbu_1, # of connection points: 5
#     Node 1, Type 0, BuildingBlock: XOMCOT_clean_sbu_1, # of connection points: 5
#     Node 2, Type 0, BuildingBlock: XOMCOT_clean_sbu_1, # of connection points: 5
#     Node 3, Type 0, BuildingBlock: XOMCOT_clean_sbu_1, # of connection points: 5
#     Node 4, Type 0, BuildingBlock: XOMCOT_clean_sbu_1, # of connection points: 5
#     Node 5, Type 0, BuildingBlock: XOMCOT_clean_sbu_1, # of connection points: 5
#     Node 6, Type 0, BuildingBlock: XOMCOT_clean_sbu_1, # of connection points: 5
#     Node 7, Type 0, BuildingBlock: XOMCOT_clean_sbu_1, # of connection points: 5
#     Edge 8, Type (0, 0), None
#     Edge 9, Type (0, 0), None
#     Edge 10, Type (0, 0), None
#     Edge 11, Type (0, 0), None
#     Edge 12, Type (0, 0), None
#     Edge 13, Type (0, 0), None
#     Edge 14, Type (0, 0), None
#     Edge 15, Type (0, 0), None
#     Edge 16, Type (0, 0), None
#     Edge 17, Type (0, 0), None
#     Edge 18, Type (0, 0), None
#     Edge 19, Type (0, 0), None
#     Edge 20, Type (0, 0), None
#     Edge 21, Type (0, 0), None
#     Edge 22, Type (0, 0), None
#     Edge 23, Type (0, 0), None
#     Edge 24, Type (0, 0), None
#     Edge 25, Type (0, 0), None
#     Edge 26, Type (0, 0), None
#     Edge 27, Type (0, 0), None
# Relax obj value: 0.092
# Max RMSD: 0.115
# Mean RMSD: 0.115
data_MOF--net-yfx--node1-XOMCOT_clean_sbu_1--edge1-none
_symmetry_space_group_name_H-M    P1
_symmetry_Int_Tables_number       1
_symmetry_cell_setting            triclinic
loop_
_symmetry_equiv_pos_as_xyz
'x, y, z'
_cell_length_a     18.083455
_cell_length_b     18.082016
_cell_length_c     13.031658
_cell_angle_alpha  90.003621
_cell_angle_beta   89.995778
_cell_angle_gamma 89.995604
loop_
_atom_site_label
_atom_site_type_symbol
_atom_site_fract_x
_atom_site_fract_y
_atom_site_fract_z
_atom_type_partial_charge
C0 C 0.36005 0.37315 0.92147 0.0
C1 C 0.42668 0.33891 0.90709 0.0
N2 N 0.45861 0.32958 0.99947 0.0
N3 N 0.34917 0.3844 1.0227 0.0
C4 C 0.4114 0.35894 0.06847 0.0
H5 H 0.32005 0.38502 0.86209 0.0
Co6 Co 0.25693 0.41083 0.0759 0.0
C7 C 0.29086 0.40161 0.30039 0.0
O8 O 0.26635 0.46888 0.31751 0.0
N9 N 0.16206 0.43801 0.12724 0.0
C10 C 0.0446 0.43201 0.18091 0.0
C11 C 0.1092 0.39261 0.16534 0.0
C12 C 0.12853 0.50522 0.12252 0.0
N13 N 0.0575 0.50262 0.15444 0.0
O14 O 0.29447 0.50761 0.10324 0.0
H15 H 0.11625 0.33392 0.17784 0.0
H16 H 0.1542 0.55457 0.09222 0.0
O17 O 0.28706 0.37407 0.21027 0.0
C18 C 0.29445 0.53961 1.01587 0.0
O19 O 0.26202 0.50615 0.93838 0.0
N20 N 0.22244 0.31741 1.03507 0.0
C21 C 0.24494 0.20899 0.88639 0.0
C22 C 0.26955 0.19793 0.98756 0.0
C23 C 0.25768 0.25322 1.06151 0.0
C24 C 0.18796 0.32341 0.94255 0.0
C25 C 0.19963 0.27037 0.86628 0.0
H26 H 0.28603 0.24872 0.13422 0.0
H27 H 0.16178 0.3751 0.9218 0.0
H28 H 0.42027 0.35808 0.15044 0.0
H29 H 0.4492 0.32079 0.83429 0.0
H30 H 0.9924 0.41056 0.20863 0.0
H31 H 0.30398 0.15091 1.00679 0.0
H32 H 0.17856 0.28087 0.78998 0.0
C33 C 0.69036 0.36036 0.92145 0.0
C34 C 0.72462 0.42698 0.90707 0.0
N35 N 0.73396 0.45892 0.99946 0.0
N36 N 0.67912 0.34948 1.02268 0.0
C37 C 0.70461 0.41171 0.06845 0.0
H38 H 0.67849 0.32036 0.86207 0.0
Co39 Co 0.6527 0.25724 0.07588 0.0
C40 C 0.66194 0.29119 0.30037 0.0
O41 O 0.59467 0.2667 0.3175 0.0
N42 N 0.62553 0.16237 0.12721 0.0
C43 C 0.63153 0.0449 0.18084 0.0
C44 C 0.67092 0.1095 0.16527 0.0
C45 C 0.55832 0.12885 0.1225 0.0
N46 N 0.56092 0.05781 0.1544 0.0
O47 O 0.55593 0.2948 0.10323 0.0
H48 H 0.72962 0.11653 0.17775 0.0
H49 H 0.50897 0.15454 0.09222 0.0
O50 O 0.68946 0.28738 0.21025 0.0
C51 C 0.52393 0.29479 1.01586 0.0
O52 O 0.55738 0.26234 0.93837 0.0
N53 N 0.74612 0.22274 1.03503 0.0
C54 C 0.85452 0.24525 0.88636 0.0
C55 C 0.86559 0.26984 0.98754 0.0
C56 C 0.8103 0.25797 1.06148 0.0
C57 C 0.74012 0.18827 0.94249 0.0
C58 C 0.79315 0.19995 0.86623 0.0
H59 H 0.8148 0.28631 0.13421 0.0
H60 H 0.68844 0.1621 0.92173 0.0
H61 H 0.70547 0.42059 0.15043 0.0
H62 H 0.74274 0.4495 0.83427 0.0
H63 H 0.65297 0.99268 0.20854 0.0
H64 H 0.91261 0.30427 1.00679 0.0
H65 H 0.78265 0.1789 0.78991 0.0
C66 C 0.70317 0.69066 0.92145 0.0
C67 C 0.63655 0.72491 0.90707 0.0
N68 N 0.60461 0.73425 0.99946 0.0
N69 N 0.71405 0.67943 1.02268 0.0
C70 C 0.65181 0.70491 0.06845 0.0
H71 H 0.74318 0.67879 0.86207 0.0
Co72 Co 0.80628 0.65302 0.07588 0.0
C73 C 0.77234 0.66224 0.30037 0.0
O74 O 0.79685 0.59498 0.31747 0.0
N75 N 0.90115 0.62586 0.12722 0.0
C76 C 1.01859 0.63189 0.18095 0.0
C77 C 0.95398 0.67126 0.16538 0.0
C78 C 0.93471 0.55866 0.12245 0.0
N79 N 1.00573 0.56128 0.15437 0.0
O80 O 0.76875 0.55623 0.10323 0.0
H81 H 0.94689 0.72994 0.17794 0.0
H82 H 0.90906 0.5093 0.09213 0.0
O83 O 0.77614 0.68978 0.21026 0.0
C84 C 0.76877 0.52423 1.01585 0.0
O85 O 0.80121 0.55768 0.93836 0.0
N86 N 0.84077 0.74644 1.03505 0.0
C87 C 0.81826 0.85486 0.8864 0.0
C88 C 0.79365 0.86592 0.98757 0.0
C89 C 0.80552 0.81063 1.06151 0.0
C90 C 0.87525 0.74044 0.94252 0.0
C91 C 0.86357 0.79348 0.86627 0.0
H92 H 0.77717 0.81513 0.13422 0.0
H93 H 0.90143 0.68876 0.92176 0.0
H94 H 0.64294 0.70578 0.15042 0.0
H95 H 0.61403 0.74302 0.83427 0.0
H96 H 0.07076 0.65333 0.20875 0.0
H97 H 0.75922 0.91294 1.00682 0.0
H98 H 0.88464 0.78298 0.78995 0.0
C99 C 0.37285 0.70347 0.92144 0.0
C100 C 0.33859 0.63685 0.90708 0.0
N101 N 0.32924 0.60493 0.99947 0.0
N102 N 0.3841 0.71436 1.02267 0.0
C103 C 0.35861 0.65213 0.06845 0.0
H104 H 0.38473 0.74347 0.86206 0.0
Co105 Co 0.41051 0.8066 0.07587 0.0
C106 C 0.40127 0.77266 0.30035 0.0
O107 O 0.46854 0.79714 0.31747 0.0
N108 N 0.43768 0.90147 0.12719 0.0
C109 C 0.43166 1.01893 0.18092 0.0
C110 C 0.39228 0.95432 0.16535 0.0
C111 C 0.50487 0.93502 0.12242 0.0
N112 N 0.50225 1.00606 0.15433 0.0
O113 O 0.50729 0.76905 0.10321 0.0
H114 H 0.3336 0.94725 0.17792 0.0
H115 H 0.55422 0.90936 0.0921 0.0
O116 O 0.37375 0.77647 0.21024 0.0
C117 C 0.53929 0.76905 1.01584 0.0
O118 O 0.50584 0.80148 0.93834 0.0
N119 N 0.3171 0.8411 1.03503 0.0
C120 C 0.20869 0.81859 0.88638 0.0
C121 C 0.19762 0.794 0.98756 0.0
C122 C 0.25291 0.80587 1.06149 0.0
C123 C 0.3231 0.87557 0.9425 0.0
C124 C 0.27006 0.86389 0.86624 0.0
H125 H 0.24841 0.77753 0.13421 0.0
H126 H 0.37478 0.90174 0.92174 0.0
H127 H 0.35775 0.64326 0.15043 0.0
H128 H 0.32046 0.61433 0.83428 0.0
H129 H 0.41022 0.07112 0.20872 0.0
H130 H 0.1506 0.75958 1.00681 0.0
H131 H 0.28057 0.88495 0.78993 0.0
C132 C 0.86005 0.87315 0.42147 0.0
C133 C 0.92668 0.83891 0.40709 0.0
N134 N 0.95861 0.82958 0.49947 0.0
N135 N 0.84917 0.8844 0.5227 0.0
C136 C 0.9114 0.85894 0.56847 0.0
H137 H 0.82005 0.88502 0.36209 0.0
Co138 Co 0.75693 0.91083 0.5759 0.0
C139 C 0.79086 0.90161 0.80039 0.0
O140 O 0.76636 0.96888 0.81751 0.0
N141 N 0.66206 0.93801 0.62724 0.0
C142 C 0.5446 0.93201 0.68092 0.0
C143 C 0.6092 0.89261 0.66534 0.0
C144 C 0.62853 1.00522 0.62252 0.0
N145 N 0.5575 1.00262 0.65444 0.0
O146 O 0.79447 1.00761 0.60324 0.0
H147 H 0.61625 0.83392 0.67784 0.0
H148 H 0.6542 0.05457 0.59222 0.0
O149 O 0.78706 0.87407 0.71027 0.0
C150 C 0.79446 0.03961 0.51586 0.0
O151 O 0.76202 1.00615 0.43838 0.0
N152 N 0.72244 0.81741 0.53507 0.0
C153 C 0.74495 0.709 0.38639 0.0
C154 C 0.76955 0.69793 0.48756 0.0
C155 C 0.75768 0.75322 0.56151 0.0
C156 C 0.68796 0.82341 0.44255 0.0
C157 C 0.69963 0.77037 0.36628 0.0
H158 H 0.78603 0.74872 0.63422 0.0
H159 H 0.66177 0.8751 0.42181 0.0
H160 H 0.92027 0.85808 0.65044 0.0
H161 H 0.9492 0.82078 0.33429 0.0
H162 H 0.4924 0.91056 0.70864 0.0
H163 H 0.80398 0.65091 0.50679 0.0
H164 H 0.67856 0.78087 0.28998 0.0
C165 C 0.19037 0.86036 0.42145 0.0
C166 C 0.22462 0.92698 0.40708 0.0
N167 N 0.23396 0.95891 0.49946 0.0
N168 N 0.17912 0.84948 0.52268 0.0
C169 C 0.20461 0.91171 0.56846 0.0
H170 H 0.17849 0.82036 0.36207 0.0
Co171 Co 0.1527 0.75724 0.57588 0.0
C172 C 0.16193 0.79119 0.80037 0.0
O173 O 0.09467 0.7667 0.8175 0.0
N174 N 0.12553 0.66237 0.62721 0.0
C175 C 0.13153 0.5449 0.68085 0.0
C176 C 0.17092 0.6095 0.66528 0.0
C177 C 0.05832 0.62885 0.6225 0.0
N178 N 0.06092 0.55782 0.6544 0.0
O179 O 0.05593 0.79481 0.60323 0.0
H180 H 0.22962 0.61653 0.67776 0.0
H181 H 1.00897 0.65453 0.59222 0.0
O182 O 0.18946 0.78738 0.71025 0.0
C183 C 1.02393 0.79479 0.51586 0.0
O184 O 0.05739 0.76234 0.43837 0.0
N185 N 0.24612 0.72274 0.53503 0.0
C186 C 0.35452 0.74526 0.38636 0.0
C187 C 0.36559 0.76985 0.48755 0.0
C188 C 0.3103 0.75797 0.56149 0.0
C189 C 0.24012 0.68827 0.4425 0.0
C190 C 0.29315 0.69995 0.36623 0.0
H191 H 0.31481 0.78631 0.63422 0.0
H192 H 0.18844 0.66209 0.42174 0.0
H193 H 0.20548 0.92059 0.65043 0.0
H194 H 0.24274 0.9495 0.33427 0.0
H195 H 0.15297 0.49269 0.70855 0.0
H196 H 0.41261 0.80427 0.50679 0.0
H197 H 0.28265 0.6789 0.28992 0.0
C198 C 0.20318 0.19066 0.42145 0.0
C199 C 0.13655 0.22491 0.40707 0.0
N200 N 0.10461 0.23425 0.49945 0.0
N201 N 0.21405 0.17943 0.52268 0.0
C202 C 0.15181 0.20491 0.56845 0.0
H203 H 0.24319 0.17879 0.36207 0.0
Co204 Co 0.30629 0.15302 0.57589 0.0
C205 C 0.27234 0.16224 0.80037 0.0
O206 O 0.29685 0.09497 0.81747 0.0
N207 N 0.40115 0.12586 0.62722 0.0
C208 C 0.51859 0.13189 0.68095 0.0
C209 C 0.45398 0.17126 0.66538 0.0
C210 C 0.43471 0.05866 0.62245 0.0
N211 N 0.50574 0.06128 0.65437 0.0
O212 O 0.26875 0.05623 0.60323 0.0
H213 H 0.4469 0.22995 0.67794 0.0
H214 H 0.40906 1.0093 0.59213 0.0
O215 O 0.27614 0.18978 0.71026 0.0
C216 C 0.26877 1.02423 0.51585 0.0
O217 O 0.30121 0.05768 0.43836 0.0
N218 N 0.34077 0.24644 0.53505 0.0
C219 C 0.31825 0.35485 0.3864 0.0
C220 C 0.29365 0.36592 0.48757 0.0
C221 C 0.30552 0.31063 0.56151 0.0
C222 C 0.37525 0.24044 0.44252 0.0
C223 C 0.36357 0.29348 0.36627 0.0
H224 H 0.27717 0.31513 0.63423 0.0
H225 H 0.40144 0.18876 0.42177 0.0
H226 H 0.14294 0.20578 0.65042 0.0
H227 H 0.11404 0.24302 0.33426 0.0
H228 H 0.57076 0.15334 0.70876 0.0
H229 H 0.25921 0.41294 0.50682 0.0
H230 H 0.38464 0.28298 0.28996 0.0
C231 C 0.87285 0.20347 0.42144 0.0
C232 C 0.83859 0.13685 0.40707 0.0
N233 N 0.82924 0.10493 0.49947 0.0
N234 N 0.8841 0.21436 0.52267 0.0
C235 C 0.85861 0.15213 0.56845 0.0
H236 H 0.88473 0.24347 0.36205 0.0
Co237 Co 0.91051 0.3066 0.57586 0.0
C238 C 0.90128 0.27266 0.80035 0.0
O239 O 0.96855 0.29714 0.81747 0.0
N240 N 0.93768 0.40147 0.62719 0.0
C241 C 0.93166 0.51893 0.68091 0.0
C242 C 0.89228 0.45432 0.66535 0.0
C243 C 1.00487 0.43502 0.62242 0.0
N244 N 1.00225 0.50606 0.65433 0.0
O245 O 1.00729 0.26905 0.60321 0.0
H246 H 0.8336 0.44725 0.67792 0.0
H247 H 0.05422 0.40936 0.5921 0.0
O248 O 0.87375 0.27647 0.71024 0.0
C249 C 0.03929 0.26905 0.51583 0.0
O250 O 1.00584 0.30148 0.43834 0.0
N251 N 0.8171 0.3411 0.53503 0.0
C252 C 0.7087 0.31858 0.38637 0.0
C253 C 0.69763 0.294 0.48755 0.0
C254 C 0.75291 0.30587 0.56149 0.0
C255 C 0.8231 0.37557 0.44249 0.0
C256 C 0.77007 0.36389 0.36624 0.0
H257 H 0.74841 0.27753 0.63421 0.0
H258 H 0.87478 0.40174 0.42173 0.0
H259 H 0.85776 0.14326 0.65042 0.0
H260 H 0.82046 0.11433 0.33428 0.0
H261 H 0.91021 0.57112 0.70872 0.0
H262 H 0.65061 0.25958 0.50681 0.0
H263 H 0.78057 0.38494 0.28992 0.0
loop_
_geom_bond_atom_site_label_1
_geom_bond_atom_site_label_2
_geom_bond_distance
_geom_bond_site_symmetry_2
_ccdc_geom_bond_type
C0 C1 1.351 . S
C0 N3 1.368 1_556 S
C0 H5 0.931 . S
C1 C0 1.351 . S
C1 N2 1.373 1_556 S
C1 H29 0.930 . S
N2 C1 1.373 1_554 S
N2 C4 1.340 . S
N3 C0 1.368 1_554 S
N3 C4 1.321 . S
N3 Co6 2.135 . S
C4 N2 1.340 . S
C4 N3 1.321 . S
C4 H28 0.930 . S
H5 C0 0.931 . S
Co6 N3 2.135 . S
Co6 N9 2.121 . S
Co6 O14 2.055 . S
Co6 O17 2.039 . S
Co6 N20 2.140 1_554 S
C7 O8 1.227 . S
C7 O17 1.265 . S
O8 C7 1.227 . S
N9 Co6 2.121 . S
N9 C11 1.375 . S
N9 C12 1.313 . S
C10 C11 1.338 . S
C10 N13 1.377 . S
C10 H30 0.930 1_455 S
C11 N9 1.375 . S
C11 C10 1.338 . S
C11 H15 0.931 . S
C12 N9 1.313 . S
C12 N13 1.344 . S
C12 H16 0.930 . S
N13 C10 1.377 . S
N13 C12 1.344 . S
O14 Co6 2.055 . S
O14 C18 1.241 1_554 S
H15 C11 0.931 . S
H16 C12 0.930 . S
O17 Co6 2.039 . S
O17 C7 1.265 . S
C18 O14 1.241 1_556 S
C18 O19 1.238 . S
O19 C18 1.238 . S
N20 Co6 2.140 1_556 S
N20 C23 1.346 . S
N20 C24 1.345 . S
C21 C22 1.387 . S
C21 C25 1.391 . S
C22 C21 1.387 . S
C22 C23 1.369 . S
C22 H31 0.929 . S
C23 N20 1.346 . S
C23 C22 1.369 . S
C23 H26 0.928 . S
C24 N20 1.345 . S
C24 C25 1.371 . S
C24 H27 0.931 . S
C25 C21 1.391 . S
C25 C24 1.371 . S
C25 H32 0.930 . S
H26 C23 0.928 . S
H27 C24 0.931 . S
H28 C4 0.930 . S
H29 C1 0.930 . S
H30 C10 0.930 1_655 S
H31 C22 0.929 . S
H32 C25 0.930 . S
C33 C34 1.351 . S
C33 N36 1.368 1_556 S
C33 H38 0.931 . S
C34 C33 1.351 . S
C34 N35 1.373 1_556 S
C34 H62 0.930 . S
N35 C34 1.373 1_554 S
N35 C37 1.340 . S
N36 C33 1.368 1_554 S
N36 C37 1.321 . S
N36 Co39 2.135 . S
C37 N35 1.340 . S
C37 N36 1.321 . S
C37 H61 0.930 . S
H38 C33 0.931 . S
Co39 N36 2.135 . S
Co39 N42 2.121 . S
Co39 O47 2.055 . S
Co39 O50 2.039 . S
Co39 N53 2.140 1_554 S
C40 O41 1.227 . S
C40 O50 1.265 . S
O41 C40 1.227 . S
N42 Co39 2.121 . S
N42 C44 1.375 . S
N42 C45 1.313 . S
C43 C44 1.338 . S
C43 N46 1.377 . S
C43 H63 0.930 1_545 S
C44 N42 1.375 . S
C44 C43 1.338 . S
C44 H48 0.931 . S
C45 N42 1.313 . S
C45 N46 1.344 . S
C45 H49 0.930 . S
N46 C43 1.377 . S
N46 C45 1.344 . S
O47 Co39 2.055 . S
O47 C51 1.241 1_554 S
H48 C44 0.931 . S
H49 C45 0.930 . S
O50 Co39 2.039 . S
O50 C40 1.265 . S
C51 O47 1.241 1_556 S
C51 O52 1.238 . S
O52 C51 1.238 . S
N53 Co39 2.140 1_556 S
N53 C56 1.346 . S
N53 C57 1.345 . S
C54 C55 1.387 . S
C54 C58 1.391 . S
C55 C54 1.387 . S
C55 C56 1.369 . S
C55 H64 0.929 . S
C56 N53 1.346 . S
C56 C55 1.369 . S
C56 H59 0.928 . S
C57 N53 1.345 . S
C57 C58 1.371 . S
C57 H60 0.931 . S
C58 C54 1.391 . S
C58 C57 1.371 . S
C58 H65 0.930 . S
H59 C56 0.928 . S
H60 C57 0.931 . S
H61 C37 0.930 . S
H62 C34 0.930 . S
H63 C43 0.930 1_565 S
H64 C55 0.929 . S
H65 C58 0.930 . S
C66 C67 1.351 . S
C66 N69 1.368 1_556 S
C66 H71 0.931 . S
C67 C66 1.351 . S
C67 N68 1.373 1_556 S
C67 H95 0.930 . S
N68 C67 1.373 1_554 S
N68 C70 1.340 . S
N69 C66 1.368 1_554 S
N69 C70 1.321 . S
N69 Co72 2.135 . S
C70 N68 1.340 . S
C70 N69 1.321 . S
C70 H94 0.930 . S
H71 C66 0.931 . S
Co72 N69 2.135 . S
Co72 N75 2.121 . S
Co72 O80 2.055 . S
Co72 O83 2.039 . S
Co72 N86 2.140 1_554 S
C73 O74 1.227 . S
C73 O83 1.265 . S
O74 C73 1.227 . S
N75 Co72 2.121 . S
N75 C77 1.375 . S
N75 C78 1.313 . S
C76 C77 1.338 . S
C76 N79 1.377 . S
C76 H96 0.930 1_655 S
C77 N75 1.375 . S
C77 C76 1.338 . S
C77 H81 0.931 . S
C78 N75 1.313 . S
C78 N79 1.344 . S
C78 H82 0.930 . S
N79 C76 1.377 . S
N79 C78 1.344 . S
O80 Co72 2.055 . S
O80 C84 1.241 1_554 S
H81 C77 0.931 . S
H82 C78 0.930 . S
O83 Co72 2.039 . S
O83 C73 1.265 . S
C84 O80 1.241 1_556 S
C84 O85 1.238 . S
O85 C84 1.238 . S
N86 Co72 2.140 1_556 S
N86 C89 1.346 . S
N86 C90 1.345 . S
C87 C88 1.387 . S
C87 C91 1.391 . S
C88 C87 1.387 . S
C88 C89 1.369 . S
C88 H97 0.929 . S
C89 N86 1.346 . S
C89 C88 1.369 . S
C89 H92 0.928 . S
C90 N86 1.345 . S
C90 C91 1.371 . S
C90 H93 0.931 . S
C91 C87 1.391 . S
C91 C90 1.371 . S
C91 H98 0.930 . S
H92 C89 0.928 . S
H93 C90 0.931 . S
H94 C70 0.930 . S
H95 C67 0.930 . S
H96 C76 0.930 1_455 S
H97 C88 0.929 . S
H98 C91 0.930 . S
C99 C100 1.351 . S
C99 N102 1.368 1_556 S
C99 H104 0.931 . S
C100 C99 1.351 . S
C100 N101 1.373 1_556 S
C100 H128 0.930 . S
N101 C100 1.373 1_554 S
N101 C103 1.340 . S
N102 C99 1.368 1_554 S
N102 C103 1.321 . S
N102 Co105 2.135 . S
C103 N101 1.340 . S
C103 N102 1.321 . S
C103 H127 0.930 . S
H104 C99 0.931 . S
Co105 N102 2.135 . S
Co105 N108 2.121 . S
Co105 O113 2.055 . S
Co105 O116 2.039 . S
Co105 N119 2.140 1_554 S
C106 O107 1.227 . S
C106 O116 1.265 . S
O107 C106 1.227 . S
N108 Co105 2.121 . S
N108 C110 1.375 . S
N108 C111 1.313 . S
C109 C110 1.338 . S
C109 N112 1.377 . S
C109 H129 0.930 1_565 S
C110 N108 1.375 . S
C110 C109 1.338 . S
C110 H114 0.931 . S
C111 N108 1.313 . S
C111 N112 1.344 . S
C111 H115 0.930 . S
N112 C109 1.377 . S
N112 C111 1.344 . S
O113 Co105 2.055 . S
O113 C117 1.241 1_554 S
H114 C110 0.931 . S
H115 C111 0.930 . S
O116 Co105 2.039 . S
O116 C106 1.265 . S
C117 O113 1.241 1_556 S
C117 O118 1.238 . S
O118 C117 1.238 . S
N119 Co105 2.140 1_556 S
N119 C122 1.346 . S
N119 C123 1.345 . S
C120 C121 1.387 . S
C120 C124 1.391 . S
C121 C120 1.387 . S
C121 C122 1.369 . S
C121 H130 0.929 . S
C122 N119 1.346 . S
C122 C121 1.369 . S
C122 H125 0.928 . S
C123 N119 1.345 . S
C123 C124 1.371 . S
C123 H126 0.931 . S
C124 C120 1.391 . S
C124 C123 1.371 . S
C124 H131 0.930 . S
H125 C122 0.928 . S
H126 C123 0.931 . S
H127 C103 0.930 . S
H128 C100 0.930 . S
H129 C109 0.930 1_545 S
H130 C121 0.929 . S
H131 C124 0.930 . S
C132 C133 1.351 . S
C132 N135 1.368 . S
C132 H137 0.931 . S
C133 C132 1.351 . S
C133 N134 1.373 . S
C133 H161 0.930 . S
N134 C133 1.373 . S
N134 C136 1.340 . S
N135 C132 1.368 . S
N135 C136 1.321 . S
N135 Co138 2.135 . S
C136 N134 1.340 . S
C136 N135 1.321 . S
C136 H160 0.930 . S
H137 C132 0.931 . S
Co138 N135 2.135 . S
Co138 N141 2.121 . S
Co138 O146 2.055 . S
Co138 O149 2.039 . S
Co138 N152 2.140 . S
C139 O140 1.227 . S
C139 O149 1.265 . S
O140 C139 1.227 . S
N141 Co138 2.121 . S
N141 C143 1.375 . S
N141 C144 1.313 . S
C142 C143 1.338 . S
C142 N145 1.377 . S
C142 H162 0.930 . S
C143 N141 1.375 . S
C143 C142 1.338 . S
C143 H147 0.931 . S
C144 N141 1.313 . S
C144 N145 1.344 . S
C144 H148 0.930 1_565 S
N145 C142 1.377 . S
N145 C144 1.344 . S
O146 Co138 2.055 . S
O146 C150 1.253 1_565 S
H147 C143 0.931 . S
H148 C144 0.930 1_545 S
O149 Co138 2.039 . S
O149 C139 1.265 . S
C150 O146 1.253 1_545 S
C150 O151 1.227 1_545 S
O151 C150 1.227 1_565 S
N152 Co138 2.140 . S
N152 C155 1.346 . S
N152 C156 1.345 . S
C153 C154 1.387 . S
C153 C157 1.391 . S
C154 C153 1.387 . S
C154 C155 1.369 . S
C154 H163 0.929 . S
C155 N152 1.346 . S
C155 C154 1.369 . S
C155 H158 0.928 . S
C156 N152 1.345 . S
C156 C157 1.371 . S
C156 H159 0.931 . S
C157 C153 1.391 . S
C157 C156 1.371 . S
C157 H164 0.930 . S
H158 C155 0.928 . S
H159 C156 0.931 . S
H160 C136 0.930 . S
H161 C133 0.930 . S
H162 C142 0.930 . S
H163 C154 0.929 . S
H164 C157 0.930 . S
C165 C166 1.351 . S
C165 N168 1.368 . S
C165 H170 0.931 . S
C166 C165 1.351 . S
C166 N167 1.373 . S
C166 H194 0.930 . S
N167 C166 1.373 . S
N167 C169 1.340 . S
N168 C165 1.368 . S
N168 C169 1.321 . S
N168 Co171 2.135 . S
C169 N167 1.340 . S
C169 N168 1.321 . S
C169 H193 0.930 . S
H170 C165 0.931 . S
Co171 N168 2.135 . S
Co171 N174 2.121 . S
Co171 O179 2.055 . S
Co171 O182 2.039 . S
Co171 N185 2.140 . S
C172 O173 1.227 . S
C172 O182 1.265 . S
O173 C172 1.227 . S
N174 Co171 2.121 . S
N174 C176 1.375 . S
N174 C177 1.313 . S
C175 C176 1.338 . S
C175 N178 1.377 . S
C175 H195 0.930 . S
C176 N174 1.375 . S
C176 C175 1.338 . S
C176 H180 0.931 . S
C177 N174 1.313 . S
C177 N178 1.344 . S
C177 H181 0.930 1_455 S
N178 C175 1.377 . S
N178 C177 1.344 . S
O179 Co171 2.055 . S
O179 C183 1.253 1_455 S
H180 C176 0.931 . S
H181 C177 0.930 1_655 S
O182 Co171 2.039 . S
O182 C172 1.265 . S
C183 O179 1.253 1_655 S
C183 O184 1.227 1_655 S
O184 C183 1.227 1_455 S
N185 Co171 2.140 . S
N185 C188 1.346 . S
N185 C189 1.345 . S
C186 C187 1.387 . S
C186 C190 1.391 . S
C187 C186 1.387 . S
C187 C188 1.369 . S
C187 H196 0.929 . S
C188 N185 1.346 . S
C188 C187 1.369 . S
C188 H191 0.928 . S
C189 N185 1.345 . S
C189 C190 1.371 . S
C189 H192 0.931 . S
C190 C186 1.391 . S
C190 C189 1.371 . S
C190 H197 0.930 . S
H191 C188 0.928 . S
H192 C189 0.931 . S
H193 C169 0.930 . S
H194 C166 0.930 . S
H195 C175 0.930 . S
H196 C187 0.929 . S
H197 C190 0.930 . S
C198 C199 1.351 . S
C198 N201 1.368 . S
C198 H203 0.931 . S
C199 C198 1.351 . S
C199 N200 1.373 . S
C199 H227 0.930 . S
N200 C199 1.373 . S
N200 C202 1.340 . S
N201 C198 1.368 . S
N201 C202 1.321 . S
N201 Co204 2.135 . S
C202 N200 1.340 . S
C202 N201 1.321 . S
C202 H226 0.930 . S
H203 C198 0.931 . S
Co204 N201 2.135 . S
Co204 N207 2.121 . S
Co204 O212 2.055 . S
Co204 O215 2.039 . S
Co204 N218 2.140 . S
C205 O206 1.227 . S
C205 O215 1.265 . S
O206 C205 1.227 . S
N207 Co204 2.121 . S
N207 C209 1.375 . S
N207 C210 1.313 . S
C208 C209 1.338 . S
C208 N211 1.377 . S
C208 H228 0.930 . S
C209 N207 1.375 . S
C209 C208 1.338 . S
C209 H213 0.931 . S
C210 N207 1.313 . S
C210 N211 1.344 . S
C210 H214 0.930 1_545 S
N211 C208 1.377 . S
N211 C210 1.344 . S
O212 Co204 2.055 . S
O212 C216 1.253 1_545 S
H213 C209 0.931 . S
H214 C210 0.930 1_565 S
O215 Co204 2.039 . S
O215 C205 1.265 . S
C216 O212 1.253 1_565 S
C216 O217 1.227 1_565 S
O217 C216 1.227 1_545 S
N218 Co204 2.140 . S
N218 C221 1.346 . S
N218 C222 1.345 . S
C219 C220 1.387 . S
C219 C223 1.391 . S
C220 C219 1.387 . S
C220 C221 1.369 . S
C220 H229 0.929 . S
C221 N218 1.346 . S
C221 C220 1.369 . S
C221 H224 0.928 . S
C222 N218 1.345 . S
C222 C223 1.371 . S
C222 H225 0.931 . S
C223 C219 1.391 . S
C223 C222 1.371 . S
C223 H230 0.930 . S
H224 C221 0.928 . S
H225 C222 0.931 . S
H226 C202 0.930 . S
H227 C199 0.930 . S
H228 C208 0.930 . S
H229 C220 0.929 . S
H230 C223 0.930 . S
C231 C232 1.351 . S
C231 N234 1.368 . S
C231 H236 0.931 . S
C232 C231 1.351 . S
C232 N233 1.373 . S
C232 H260 0.930 . S
N233 C232 1.373 . S
N233 C235 1.340 . S
N234 C231 1.368 . S
N234 C235 1.321 . S
N234 Co237 2.135 . S
C235 N233 1.340 . S
C235 N234 1.321 . S
C235 H259 0.930 . S
H236 C231 0.931 . S
Co237 N234 2.135 . S
Co237 N240 2.121 . S
Co237 O245 2.055 . S
Co237 O248 2.039 . S
Co237 N251 2.140 . S
C238 O239 1.227 . S
C238 O248 1.265 . S
O239 C238 1.227 . S
N240 Co237 2.121 . S
N240 C242 1.375 . S
N240 C243 1.313 . S
C241 C242 1.338 . S
C241 N244 1.377 . S
C241 H261 0.930 . S
C242 N240 1.375 . S
C242 C241 1.338 . S
C242 H246 0.931 . S
C243 N240 1.313 . S
C243 N244 1.344 . S
C243 H247 0.930 1_655 S
N244 C241 1.377 . S
N244 C243 1.344 . S
O245 Co237 2.055 . S
O245 C249 1.253 1_655 S
H246 C242 0.931 . S
H247 C243 0.930 1_455 S
O248 Co237 2.039 . S
O248 C238 1.265 . S
C249 O245 1.253 1_455 S
C249 O250 1.227 1_455 S
O250 C249 1.227 1_655 S
N251 Co237 2.140 . S
N251 C254 1.346 . S
N251 C255 1.345 . S
C252 C253 1.387 . S
C252 C256 1.391 . S
C253 C252 1.387 . S
C253 C254 1.369 . S
C253 H262 0.929 . S
C254 N251 1.346 . S
C254 C253 1.369 . S
C254 H257 0.928 . S
C255 N251 1.345 . S
C255 C256 1.371 . S
C255 H258 0.931 . S
C256 C252 1.391 . S
C256 C255 1.371 . S
C256 H263 0.930 . S
H257 C254 0.928 . S
H258 C255 0.931 . S
H259 C235 0.930 . S
H260 C232 0.930 . S
H261 C241 0.930 . S
H262 C253 0.929 . S
H263 C256 0.930 . S
C51 N2 1.083 1_556 S
N35 C84 1.083 1_554 S
N68 C117 1.083 1_554 S
C18 N101 1.083 1_556 S
C183 N134 1.090 . S
C216 N167 1.090 . S
N200 C249 1.090 . S
N233 C150 1.090 . S
C219 C7 1.879 . S
C40 C252 1.879 . S
C73 C153 1.879 . S
C106 C186 1.879 . S
C139 C87 1.881 . S
C172 C120 1.881 . S
C205 C21 1.881 . S
C54 C238 1.881 . S
N79 N13 2.330 1_655 S
N46 N112 2.330 1_545 S
N211 N145 2.330 1_545 S
N178 N244 2.330 1_455 S
