# Generated by pormake.
# Topology uom, (4)-cn, num edge types: 1
# Building blocks:
#     Node 0, Type 0, BuildingBlock: NAWXER_clean_sbu_0, # of connection points: 4
#     Node 1, Type 0, BuildingBlock: NAWXER_clean_sbu_0, # of connection points: 4
#     Node 2, Type 0, BuildingBlock: NAWXER_clean_sbu_0, # of connection points: 4
#     Node 3, Type 0, BuildingBlock: NAWXER_clean_sbu_0, # of connection points: 4
#     Node 4, Type 0, BuildingBlock: NAWXER_clean_sbu_0, # of connection points: 4
#     Node 5, Type 0, BuildingBlock: NAWXER_clean_sbu_0, # of connection points: 4
#     Edge 6, Type (0, 0), BuildingBlock: OJICUG_clean_linker_0, # of connection points: 2
#     Edge 7, Type (0, 0), BuildingBlock: OJICUG_clean_linker_0, # of connection points: 2
#     Edge 8, Type (0, 0), BuildingBlock: OJICUG_clean_linker_0, # of connection points: 2
#     Edge 9, Type (0, 0), BuildingBlock: OJICUG_clean_linker_0, # of connection points: 2
#     Edge 10, Type (0, 0), BuildingBlock: OJICUG_clean_linker_0, # of connection points: 2
#     Edge 11, Type (0, 0), BuildingBlock: OJICUG_clean_linker_0, # of connection points: 2
#     Edge 12, Type (0, 0), BuildingBlock: OJICUG_clean_linker_0, # of connection points: 2
#     Edge 13, Type (0, 0), BuildingBlock: OJICUG_clean_linker_0, # of connection points: 2
#     Edge 14, Type (0, 0), BuildingBlock: OJICUG_clean_linker_0, # of connection points: 2
#     Edge 15, Type (0, 0), BuildingBlock: OJICUG_clean_linker_0, # of connection points: 2
#     Edge 16, Type (0, 0), BuildingBlock: OJICUG_clean_linker_0, # of connection points: 2
#     Edge 17, Type (0, 0), BuildingBlock: OJICUG_clean_linker_0, # of connection points: 2
# Relax obj value: 0.104
# Max RMSD: 0.115
# Mean RMSD: 0.115
data_MOF--net-uom--node1-NAWXER_clean_sbu_0--edge1-OJICUG_clean_linker_0
_symmetry_space_group_name_H-M    P1
_symmetry_Int_Tables_number       1
_symmetry_cell_setting            triclinic
loop_
_symmetry_equiv_pos_as_xyz
'x, y, z'
_cell_length_a     21.165506
_cell_length_b     21.165193
_cell_length_c     26.332225
_cell_angle_alpha  89.78007
_cell_angle_beta   90.11611
_cell_angle_gamma 119.99433
loop_
_atom_site_label
_atom_site_type_symbol
_atom_site_fract_x
_atom_site_fract_y
_atom_site_fract_z
_atom_type_partial_charge
C0 C 0.32639 0.06992 0.98259 0.0
C1 C 0.36208 0.21845 0.13536 0.0
O2 O 0.35721 0.13923 0.98387 0.0
Zn3 Zn 0.34994 0.1492 1.05791 0.0
O4 O 0.30274 0.03378 1.02397 0.0
Zn5 Zn 0.29693 0.05085 0.10249 0.0
O6 O 0.19239 0.00272 0.11359 0.0
O7 O 0.2354 0.10466 0.06903 0.0
O8 O 0.33257 0.14978 0.14366 0.0
O9 O 0.38234 0.24363 0.09063 0.0
O10 O 0.4212 0.11312 0.08878 0.0
O11 O 0.35315 0.01064 0.13113 0.0
C12 C 0.18205 0.05008 0.09103 0.0
C13 C 0.41544 0.05935 0.11523 0.0
C14 C 0.39859 0.41558 0.44808 0.0
C15 C 0.17427 0.18253 0.42416 0.0
O16 O 0.38482 0.35321 0.46404 0.0
Zn17 Zn 0.28853 0.29725 0.43539 0.0
O18 O 0.35082 0.42153 0.42153 0.0
Zn19 Zn 0.24362 0.35049 0.39062 0.0
O20 O 0.1817 0.38321 0.42313 0.0
O21 O 0.22534 0.33323 0.47637 0.0
O22 O 0.17327 0.23596 0.40199 0.0
O23 O 0.23184 0.19275 0.44675 0.0
O24 O 0.31175 0.303 0.35688 0.0
O25 O 0.26124 0.35779 0.31658 0.0
C26 C 0.18641 0.36296 0.46794 0.0
C27 C 0.29955 0.32677 0.31543 0.0
C28 C 0.01626 0.30169 0.64848 0.0
C29 C 0.86742 0.18846 0.8015 0.0
O30 O 0.94696 0.26341 0.64993 0.0
Zn31 Zn 0.93692 0.24581 0.724 0.0
O32 O 0.0524 0.31392 0.68979 0.0
Zn33 Zn 0.03515 0.29067 0.76838 0.0
O34 O 0.08302 0.23402 0.77963 0.0
O35 O 0.98113 0.17543 0.73526 0.0
O36 O 0.93609 0.2274 0.80971 0.0
O37 O 0.84236 0.18383 0.75678 0.0
O38 O 0.97309 0.35296 0.75481 0.0
O39 O 0.07554 0.38688 0.79692 0.0
C40 C 0.03562 0.17645 0.75726 0.0
C41 C 0.02688 0.40067 0.78118 0.0
C42 C 0.67001 0.02761 0.11482 0.0
C43 C 0.90308 0.03643 0.09078 0.0
O44 O 0.73238 0.07619 0.13058 0.0
Zn45 Zn 0.78834 0.03591 0.10204 0.0
O46 O 0.66407 0.97394 0.08847 0.0
Zn47 Zn 0.73513 0.93786 1.05766 0.0
O48 O 0.70244 0.84317 0.09047 0.0
O49 O 0.75241 0.93667 0.14338 0.0
O50 O 0.84967 0.98204 0.06882 0.0
O51 O 0.89283 0.08373 0.11319 0.0
O52 O 0.78255 0.05347 1.02347 0.0
O53 O 0.72779 0.94822 0.98361 0.0
C54 C 0.72271 0.86804 0.13517 0.0
C55 C 0.75877 0.01753 0.98217 0.0
C56 C 0.90896 0.90357 0.42437 0.0
C57 C 0.68488 0.67015 0.4486 0.0
O58 O 0.85127 0.89322 0.44672 0.0
Zn59 Zn 0.79487 0.78867 0.43582 0.0
O60 O 0.91017 0.85023 0.40258 0.0
Zn61 Zn 0.84016 0.73567 0.39165 0.0
O62 O 0.8229 0.72839 0.31759 0.0
O63 O 0.77192 0.78286 0.35723 0.0
O64 O 0.73286 0.6644 0.42237 0.0
O65 O 0.69847 0.73244 0.4643 0.0
O66 O 0.85823 0.75303 0.47737 0.0
O67 O 0.90222 0.70325 0.42469 0.0
C68 C 0.7844 0.7592 0.31602 0.0
C69 C 0.89739 0.72352 0.46932 0.0
C70 C 0.05862 0.68698 0.78225 0.0
C71 C 0.04927 0.91112 0.75797 0.0
O72 O 0.01001 0.70057 0.79819 0.0
Zn73 Zn 0.0501 0.79702 0.76955 0.0
O74 O 0.11227 0.73498 0.75582 0.0
Zn75 Zn 0.14824 0.84228 0.72496 0.0
O76 O 0.24282 0.9043 0.75767 0.0
O77 O 0.14923 0.86032 0.8107 0.0
O78 O 0.10374 0.91229 0.73599 0.0
O79 O 0.00203 0.85347 0.78057 0.0
O80 O 0.03268 0.77404 0.69105 0.0
O81 O 0.13792 0.82493 0.65093 0.0
C82 C 0.21786 0.89945 0.80239 0.0
C83 C 0.06861 0.78644 0.64967 0.0
C84 C 0.32545 0.30287 0.17481 0.0
C85 C 0.36352 0.2643 0.17788 0.0
H86 H 0.2743 0.35283 0.2162 0.0
C87 C 0.38763 0.25496 0.22538 0.0
H88 H 0.30484 0.30925 0.1386 0.0
C89 C 0.37046 0.27964 0.26937 0.0
C90 C 0.32732 0.3131 0.26722 0.0
H91 H 0.41627 0.22465 0.22877 0.0
H92 H 0.38791 0.26874 0.30543 0.0
C93 C 0.30726 0.327 0.21925 0.0
C94 C 0.0655 0.32661 0.50768 0.0
C95 C 0.14214 0.36483 0.51045 0.0
H96 H 0.96457 0.27563 0.54949 0.0
C97 C 0.17575 0.38946 0.55775 0.0
H98 H 0.0384 0.3056 0.47164 0.0
C99 C 0.13407 0.37263 0.60189 0.0
C100 C 0.05749 0.32929 0.60008 0.0
H101 H 0.23471 0.41823 0.5609 0.0
H102 H 0.16253 0.39044 0.63782 0.0
C103 C 0.02335 0.30875 0.55227 0.0
C104 C 0.80576 0.13557 0.93562 0.0
C105 C 0.77243 0.05899 0.9338 0.0
H106 H 0.86077 0.23639 0.8946 0.0
C107 C 0.75871 0.02506 0.88598 0.0
H108 H 0.8165 0.16388 0.97156 0.0
C109 C 0.78292 0.0674 0.84137 0.0
C110 C 0.8214 0.14404 0.84413 0.0
H111 H 0.73297 0.96629 0.88319 0.0
H112 H 0.77672 0.04046 0.8053 0.0
C113 C 0.83053 0.17745 0.89145 0.0
C114 C 0.75951 0.78375 0.17516 0.0
C115 C 0.72094 0.82182 0.1778 0.0
H116 H 0.81087 0.73411 0.21712 0.0
C117 C 0.69609 0.83048 0.22506 0.0
H118 H 0.78069 0.77794 0.13913 0.0
C119 C 0.71305 0.80566 0.26928 0.0
C120 C 0.75673 0.77278 0.26758 0.0
H121 H 0.66707 0.86042 0.22811 0.0
H122 H 0.69506 0.81605 0.30517 0.0
C123 C 0.77749 0.75949 0.21982 0.0
C124 C 0.06098 0.77875 0.55351 0.0
C125 C 0.02711 0.7586 0.60144 0.0
H126 H 0.04546 0.78112 0.47281 0.0
C127 C 0.95054 0.71526 0.6035 0.0
H128 H 0.11974 0.81186 0.55054 0.0
C129 C 0.9086 0.69797 0.55943 0.0
C130 C 0.94194 0.72216 0.51196 0.0
H131 H 0.92228 0.69773 0.63953 0.0
H132 H 0.84966 0.66919 0.56274 0.0
C133 C 0.01857 0.76044 0.509 0.0
C134 C 0.27981 0.95211 0.93637 0.0
C135 C 0.31281 0.02867 0.93433 0.0
H136 H 0.22509 0.8514 0.89565 0.0
C137 C 0.32624 0.06274 0.88641 0.0
H138 H 0.2693 0.9237 0.97239 0.0
C139 C 0.30207 0.02051 0.84192 0.0
C140 C 0.26392 0.94387 0.8449 0.0
H141 H 0.35171 0.1215 0.88345 0.0
H142 H 0.30803 0.04754 0.80577 0.0
C143 C 0.25508 0.91035 0.89233 0.0
C144 C 0.04558 0.97851 0.09279 0.0
C145 C 0.11044 0.04594 0.09213 0.0
H146 H 0.92882 0.92301 0.09189 0.0
C147 C 0.10686 0.11061 0.09217 0.0
H148 H 0.04694 0.92802 0.09283 0.0
C149 C 0.03952 0.10791 0.09281 0.0
C150 C 0.97466 0.04049 0.09198 0.0
H151 H 0.15627 0.16342 0.0922 0.0
H152 H 0.03817 0.15841 0.09288 0.0
C153 C 0.97823 0.97582 0.09199 0.0
C154 C 0.97386 0.04004 0.42586 0.0
C155 C 0.97643 0.97518 0.42548 0.0
H156 H 0.03512 0.15681 0.42477 0.0
C157 C 0.04466 0.97874 0.4258 0.0
H158 H 0.92202 0.0387 0.42569 0.0
C159 C 0.1093 0.04608 0.42646 0.0
C160 C 0.10675 0.11095 0.42536 0.0
H161 H 0.04806 0.92932 0.42605 0.0
H162 H 0.16114 0.04741 0.42676 0.0
C163 C 0.03851 0.10739 0.42509 0.0
C164 C 0.1071 0.11147 0.75947 0.0
C165 C 0.03968 0.10892 0.75856 0.0
H166 H 0.16261 0.05021 0.75904 0.0
C167 C 0.97501 0.04069 0.75862 0.0
H168 H 0.1576 0.1633 0.75952 0.0
C169 C 0.97771 0.97603 0.75954 0.0
C170 C 0.04513 0.97859 0.75897 0.0
H171 H 0.9222 0.03731 0.75846 0.0
H172 H 0.92721 0.92419 0.75962 0.0
C173 C 0.1098 0.04682 0.75896 0.0
C174 C 0.53501 0.97389 0.12353 0.0
C175 C 0.60521 0.03564 0.12253 0.0
H176 H 0.41967 0.9331 0.12357 0.0
C177 C 0.61242 0.1053 0.12408 0.0
H178 H 0.52794 0.91955 0.12245 0.0
C179 C 0.55052 0.11305 0.12346 0.0
C180 C 0.48031 0.0513 0.12278 0.0
H181 H 0.66585 0.15384 0.12302 0.0
H182 H 0.55758 0.16739 0.12231 0.0
C183 C 0.47311 0.98164 0.12439 0.0
C184 C 0.54951 0.61249 0.4574 0.0
C185 C 0.61197 0.60529 0.45611 0.0
H186 H 0.43261 0.55768 0.45518 0.0
C187 C 0.60352 0.53507 0.45708 0.0
H188 H 0.55441 0.66594 0.45635 0.0
C189 C 0.53387 0.47318 0.45767 0.0
C190 C 0.47143 0.48039 0.45581 0.0
H191 H 0.65079 0.52801 0.45618 0.0
H192 H 0.52898 0.41974 0.45684 0.0
C193 C 0.47987 0.5506 0.45652 0.0
C194 C 0.1123 0.60554 0.79042 0.0
C195 C 0.05055 0.61402 0.78969 0.0
H196 H 0.15309 0.531 0.78984 0.0
C197 C 0.98089 0.55156 0.79103 0.0
H198 H 0.16663 0.65282 0.78946 0.0
C199 C 0.97313 0.48192 0.78997 0.0
C200 C 0.03489 0.47347 0.78903 0.0
H201 H 0.93235 0.55648 0.79015 0.0
H202 H 0.9188 0.43467 0.78869 0.0
C203 C 0.10454 0.53589 0.79083 0.0
loop_
_geom_bond_atom_site_label_1
_geom_bond_atom_site_label_2
_geom_bond_distance
_geom_bond_site_symmetry_2
_ccdc_geom_bond_type
C0 O2 1.247 . S
C0 O4 1.258 1_545 S
C1 O8 1.247 . S
C1 O9 1.258 . S
O2 C0 1.247 . S
O2 Zn3 2.032 . S
Zn3 O2 2.032 . S
Zn3 O7 2.035 1_556 S
Zn3 O9 2.031 1_556 S
Zn3 O10 2.027 1_556 S
O4 C0 1.258 1_565 S
O4 Zn5 2.035 1_566 S
Zn5 O4 2.035 1_544 S
Zn5 O6 2.028 . S
Zn5 O8 2.028 . S
Zn5 O11 2.035 . S
O6 Zn5 2.028 . S
O6 C12 1.247 . S
O7 Zn3 2.035 1_554 S
O7 C12 1.258 . S
O8 C1 1.247 . S
O8 Zn5 2.028 . S
O9 C1 1.258 . S
O9 Zn3 2.031 1_554 S
O10 Zn3 2.027 1_554 S
O10 C13 1.247 . S
O11 Zn5 2.035 . S
O11 C13 1.258 . S
C12 O6 1.247 . S
C12 O7 1.258 . S
C13 O10 1.247 . S
C13 O11 1.258 . S
C14 O16 1.247 . S
C14 O18 1.258 . S
C15 O22 1.247 . S
C15 O23 1.258 . S
O16 C14 1.247 . S
O16 Zn17 2.028 . S
Zn17 O16 2.028 . S
Zn17 O21 2.035 . S
Zn17 O23 2.035 . S
Zn17 O24 2.028 . S
O18 C14 1.258 . S
O18 Zn19 2.035 . S
Zn19 O18 2.035 . S
Zn19 O20 2.028 . S
Zn19 O22 2.028 . S
Zn19 O25 2.035 . S
O20 Zn19 2.028 . S
O20 C26 1.247 . S
O21 Zn17 2.035 . S
O21 C26 1.258 . S
O22 C15 1.247 . S
O22 Zn19 2.028 . S
O23 C15 1.258 . S
O23 Zn17 2.035 . S
O24 Zn17 2.028 . S
O24 C27 1.247 . S
O25 Zn19 2.035 . S
O25 C27 1.258 . S
C26 O20 1.247 . S
C26 O21 1.258 . S
C27 O24 1.247 . S
C27 O25 1.258 . S
C28 O30 1.247 1_455 S
C28 O32 1.258 . S
C29 O36 1.247 1_655 S
C29 O37 1.258 . S
O30 C28 1.247 1_655 S
O30 Zn31 2.028 . S
Zn31 O30 2.028 . S
Zn31 O35 2.035 . S
Zn31 O37 2.035 . S
Zn31 O38 2.028 . S
O32 C28 1.258 . S
O32 Zn33 2.035 . S
Zn33 O32 2.035 . S
Zn33 O34 2.028 . S
Zn33 O36 2.028 . S
Zn33 O39 2.035 . S
O34 Zn33 2.028 . S
O34 C40 1.247 . S
O35 Zn31 2.035 . S
O35 C40 1.258 1_655 S
O36 C29 1.247 1_455 S
O36 Zn33 2.028 . S
O37 C29 1.258 . S
O37 Zn31 2.035 . S
O38 Zn31 2.028 . S
O38 C41 1.247 1_655 S
O39 Zn33 2.035 . S
O39 C41 1.258 . S
C40 O34 1.247 . S
C40 O35 1.258 1_455 S
C41 O38 1.247 1_455 S
C41 O39 1.258 . S
C42 O44 1.247 . S
C42 O46 1.258 1_545 S
C43 O50 1.247 1_545 S
C43 O51 1.258 . S
O44 C42 1.247 . S
O44 Zn45 2.028 . S
Zn45 O44 2.028 . S
Zn45 O49 2.035 . S
Zn45 O51 2.035 . S
Zn45 O52 2.028 1_554 S
O46 C42 1.258 1_565 S
O46 Zn47 2.035 . S
Zn47 O46 2.035 . S
Zn47 O48 2.030 . S
Zn47 O50 2.028 . S
Zn47 O53 2.033 1_554 S
O48 Zn47 2.030 . S
O48 C54 1.247 . S
O49 Zn45 2.035 . S
O49 C54 1.258 1_545 S
O50 C43 1.247 1_565 S
O50 Zn47 2.028 . S
O51 C43 1.258 . S
O51 Zn45 2.035 . S
O52 Zn45 2.028 1_556 S
O52 C55 1.247 . S
O53 Zn47 2.033 1_556 S
O53 C55 1.258 1_565 S
C54 O48 1.247 . S
C54 O49 1.258 1_565 S
C55 O52 1.247 . S
C55 O53 1.258 1_545 S
C56 O58 1.247 . S
C56 O60 1.258 . S
C57 O64 1.247 . S
C57 O65 1.258 . S
O58 C56 1.247 . S
O58 Zn59 2.028 . S
Zn59 O58 2.028 . S
Zn59 O63 2.035 . S
Zn59 O65 2.035 . S
Zn59 O66 2.028 . S
O60 C56 1.258 . S
O60 Zn61 2.035 . S
Zn61 O60 2.035 . S
Zn61 O62 2.028 . S
Zn61 O64 2.028 . S
Zn61 O67 2.035 . S
O62 Zn61 2.028 . S
O62 C68 1.247 . S
O63 Zn59 2.035 . S
O63 C68 1.258 . S
O64 C57 1.247 . S
O64 Zn61 2.028 . S
O65 C57 1.258 . S
O65 Zn59 2.035 . S
O66 Zn59 2.028 . S
O66 C69 1.247 . S
O67 Zn61 2.035 . S
O67 C69 1.258 . S
C68 O62 1.247 . S
C68 O63 1.258 . S
C69 O66 1.247 . S
C69 O67 1.258 . S
C70 O72 1.247 . S
C70 O74 1.258 . S
C71 O78 1.247 . S
C71 O79 1.258 . S
O72 C70 1.247 . S
O72 Zn73 2.028 . S
Zn73 O72 2.028 . S
Zn73 O77 2.035 . S
Zn73 O79 2.035 . S
Zn73 O80 2.030 . S
O74 C70 1.258 . S
O74 Zn75 2.035 . S
Zn75 O74 2.035 . S
Zn75 O76 2.028 . S
Zn75 O78 2.028 . S
Zn75 O81 2.035 . S
O76 Zn75 2.028 . S
O76 C82 1.247 . S
O77 Zn73 2.035 . S
O77 C82 1.258 . S
O78 C71 1.247 . S
O78 Zn75 2.028 . S
O79 C71 1.258 . S
O79 Zn73 2.035 . S
O80 Zn73 2.030 . S
O80 C83 1.254 . S
O81 Zn75 2.035 . S
O81 C83 1.258 . S
C82 O76 1.247 . S
C82 O77 1.258 . S
C83 O80 1.254 . S
C83 O81 1.258 . S
C84 C85 1.387 . S
C84 H88 0.950 . S
C84 C93 1.390 . S
C85 C84 1.387 . S
C85 C87 1.387 . S
H86 C93 0.950 . S
C87 C85 1.387 . S
C87 C89 1.390 . S
C87 H91 0.950 . S
H88 C84 0.950 . S
C89 C87 1.390 . S
C89 C90 1.387 . S
C89 H92 0.950 . S
C90 C89 1.387 . S
C90 C93 1.387 . S
H91 C87 0.950 . S
H92 C89 0.950 . S
C93 C84 1.390 . S
C93 H86 0.950 . S
C93 C90 1.387 . S
C94 C95 1.387 . S
C94 H98 0.950 . S
C94 C103 1.390 . S
C95 C94 1.387 . S
C95 C97 1.387 . S
H96 C103 0.950 . S
C97 C95 1.387 . S
C97 C99 1.390 . S
C97 H101 0.950 . S
H98 C94 0.950 . S
C99 C97 1.390 . S
C99 C100 1.387 . S
C99 H102 0.950 . S
C100 C99 1.387 . S
C100 C103 1.387 . S
H101 C97 0.950 . S
H102 C99 0.950 . S
C103 C94 1.390 . S
C103 H96 0.950 . S
C103 C100 1.387 . S
C104 C105 1.387 . S
C104 H108 0.950 . S
C104 C113 1.390 . S
C105 C104 1.387 . S
C105 C107 1.387 . S
H106 C113 0.950 . S
C107 C105 1.387 . S
C107 C109 1.390 . S
C107 H111 0.950 . S
H108 C104 0.950 . S
C109 C107 1.390 . S
C109 C110 1.387 . S
C109 H112 0.950 . S
C110 C109 1.387 . S
C110 C113 1.387 . S
H111 C107 0.950 . S
H112 C109 0.950 . S
C113 C104 1.390 . S
C113 H106 0.950 . S
C113 C110 1.387 . S
C114 C115 1.387 . S
C114 H118 0.950 . S
C114 C123 1.390 . S
C115 C114 1.387 . S
C115 C117 1.387 . S
H116 C123 0.950 . S
C117 C115 1.387 . S
C117 C119 1.390 . S
C117 H121 0.950 . S
H118 C114 0.950 . S
C119 C117 1.390 . S
C119 C120 1.387 . S
C119 H122 0.950 . S
C120 C119 1.387 . S
C120 C123 1.387 . S
H121 C117 0.950 . S
H122 C119 0.950 . S
C123 C114 1.390 . S
C123 H116 0.950 . S
C123 C120 1.387 . S
C124 C125 1.390 1_455 S
C124 H128 0.950 . S
C124 C133 1.390 1_455 S
C125 C124 1.390 1_655 S
C125 C127 1.390 . S
H126 C133 0.950 . S
C127 C125 1.390 . S
C127 C129 1.390 . S
C127 H131 0.950 . S
H128 C124 0.950 . S
C129 C127 1.390 . S
C129 C130 1.387 . S
C129 H132 0.950 . S
C130 C129 1.387 . S
C130 C133 1.387 . S
H131 C127 0.950 . S
H132 C129 0.950 . S
C133 C124 1.390 1_655 S
C133 H126 0.950 . S
C133 C130 1.387 . S
C134 C135 1.387 . S
C134 H138 0.950 . S
C134 C143 1.390 . S
C135 C134 1.387 . S
C135 C137 1.387 1_565 S
H136 C143 0.950 . S
C137 C135 1.387 1_545 S
C137 C139 1.390 1_545 S
C137 H141 0.950 . S
H138 C134 0.950 . S
C139 C137 1.390 1_565 S
C139 C140 1.387 . S
C139 H142 0.950 1_565 S
C140 C139 1.387 . S
C140 C143 1.387 . S
H141 C137 0.950 . S
H142 C139 0.950 1_545 S
C143 C134 1.390 . S
C143 H136 0.950 . S
C143 C140 1.387 . S
C144 C145 1.387 1_556 S
C144 H148 0.950 . S
C144 C153 1.390 . S
C145 C144 1.387 1_554 S
C145 C147 1.387 . S
H146 C153 0.950 1_655 S
C147 C145 1.387 . S
C147 C149 1.390 . S
C147 H151 0.950 . S
H148 C144 0.950 . S
C149 C147 1.390 . S
C149 C150 1.387 1_455 S
C149 H152 0.950 1_455 S
C150 C149 1.387 1_655 S
C150 C153 1.387 1_654 S
H151 C147 0.950 . S
H152 C149 0.950 1_655 S
C153 C144 1.390 . S
C153 H146 0.950 1_455 S
C153 C150 1.387 1_456 S
C154 C155 1.387 1_545 S
C154 H158 0.950 1_545 S
C154 C163 1.390 . S
C155 C154 1.387 1_565 S
C155 C157 1.387 1_565 S
H156 C163 0.950 . S
C157 C155 1.387 1_545 S
C157 C159 1.390 . S
C157 H161 0.950 1_545 S
H158 C154 0.950 1_565 S
C159 C157 1.390 . S
C159 C160 1.387 . S
C159 H162 0.950 . S
C160 C159 1.387 . S
C160 C163 1.387 . S
H161 C157 0.950 1_565 S
H162 C159 0.950 . S
C163 C154 1.390 . S
C163 H156 0.950 . S
C163 C160 1.387 . S
C164 C165 1.387 . S
C164 H168 0.950 . S
C164 C173 1.390 . S
C165 C164 1.387 . S
C165 C167 1.387 . S
H166 C173 0.950 . S
C167 C165 1.387 . S
C167 C169 1.390 . S
C167 H171 0.950 . S
H168 C164 0.950 . S
C169 C167 1.390 . S
C169 C170 1.387 . S
C169 H172 0.950 . S
C170 C169 1.387 . S
C170 C173 1.387 . S
H171 C167 0.950 . S
H172 C169 0.950 . S
C173 C164 1.390 . S
C173 H166 0.950 . S
C173 C170 1.387 . S
C174 C175 1.387 . S
C174 H178 0.950 . S
C174 C183 1.390 . S
C175 C174 1.387 . S
C175 C177 1.387 1_554 S
H176 C183 0.950 . S
C177 C175 1.387 1_556 S
C177 C179 1.390 . S
C177 H181 0.950 . S
H178 C174 0.950 . S
C179 C177 1.390 . S
C179 C180 1.387 1_556 S
C179 H182 0.950 . S
C180 C179 1.387 1_554 S
C180 C183 1.387 . S
H181 C177 0.950 . S
H182 C179 0.950 . S
C183 C174 1.390 . S
C183 H176 0.950 . S
C183 C180 1.387 . S
C184 C185 1.387 . S
C184 H188 0.950 . S
C184 C193 1.390 . S
C185 C184 1.387 . S
C185 C187 1.387 . S
H186 C193 0.950 . S
C187 C185 1.387 . S
C187 C189 1.390 . S
C187 H191 0.950 . S
H188 C184 0.950 . S
C189 C187 1.390 . S
C189 C190 1.387 . S
C189 H192 0.950 . S
C190 C189 1.387 . S
C190 C193 1.387 . S
H191 C187 0.950 . S
H192 C189 0.950 . S
C193 C184 1.390 . S
C193 H186 0.950 . S
C193 C190 1.387 . S
C194 C195 1.387 . S
C194 H198 0.950 . S
C194 C203 1.390 . S
C195 C194 1.387 . S
C195 C197 1.387 . S
H196 C203 0.950 . S
C197 C195 1.387 . S
C197 C199 1.390 . S
C197 H201 0.950 . S
H198 C194 0.950 . S
C199 C197 1.390 . S
C199 C200 1.387 . S
C199 H202 0.950 . S
C200 C199 1.387 . S
C200 C203 1.387 . S
H201 C197 0.950 . S
H202 C199 0.950 . S
C203 C194 1.390 . S
C203 H196 0.950 . S
C203 C200 1.387 . S
C85 C1 1.709 . S
C90 C27 1.671 . S
C95 C26 1.708 . S
C100 C28 1.671 . S
C105 C55 1.671 . S
C110 C29 1.708 . S
C115 C54 1.708 . S
C120 C68 1.671 . S
C125 C83 1.666 1_655 S
C130 C69 1.708 . S
C135 C0 1.673 1_565 S
C140 C82 1.708 . S
C145 C12 1.266 . S
C150 C43 1.267 . S
C155 C56 1.266 1_455 S
C160 C15 1.267 . S
C165 C40 1.262 . S
C170 C71 1.264 1_545 S
C175 C42 1.576 . S
C180 C13 1.578 . S
C185 C57 1.578 . S
C190 C14 1.576 . S
C195 C70 1.574 . S
C200 C41 1.576 . S
