# Generated by pormake.
# Topology sra, (4)-cn, num edge types: 1
# Building blocks:
#     Node 0, Type 0, BuildingBlock: NAHDIM_clean_sbu_0, # of connection points: 4
#     Node 1, Type 0, BuildingBlock: NAHDIM_clean_sbu_0, # of connection points: 4
#     Node 2, Type 0, BuildingBlock: NAHDIM_clean_sbu_0, # of connection points: 4
#     Node 3, Type 0, BuildingBlock: NAHDIM_clean_sbu_0, # of connection points: 4
#     Node 4, Type 0, BuildingBlock: NAHDIM_clean_sbu_0, # of connection points: 4
#     Node 5, Type 0, BuildingBlock: NAHDIM_clean_sbu_0, # of connection points: 4
#     Node 6, Type 0, BuildingBlock: NAHDIM_clean_sbu_0, # of connection points: 4
#     Node 7, Type 0, BuildingBlock: NAHDIM_clean_sbu_0, # of connection points: 4
#     Edge 8, Type (0, 0), BuildingBlock: OJICUG_clean_linker_0, # of connection points: 2
#     Edge 9, Type (0, 0), BuildingBlock: OJICUG_clean_linker_0, # of connection points: 2
#     Edge 10, Type (0, 0), BuildingBlock: OJICUG_clean_linker_0, # of connection points: 2
#     Edge 11, Type (0, 0), BuildingBlock: OJICUG_clean_linker_0, # of connection points: 2
#     Edge 12, Type (0, 0), BuildingBlock: OJICUG_clean_linker_0, # of connection points: 2
#     Edge 13, Type (0, 0), BuildingBlock: OJICUG_clean_linker_0, # of connection points: 2
#     Edge 14, Type (0, 0), BuildingBlock: OJICUG_clean_linker_0, # of connection points: 2
#     Edge 15, Type (0, 0), BuildingBlock: OJICUG_clean_linker_0, # of connection points: 2
#     Edge 16, Type (0, 0), BuildingBlock: OJICUG_clean_linker_0, # of connection points: 2
#     Edge 17, Type (0, 0), BuildingBlock: OJICUG_clean_linker_0, # of connection points: 2
#     Edge 18, Type (0, 0), BuildingBlock: OJICUG_clean_linker_0, # of connection points: 2
#     Edge 19, Type (0, 0), BuildingBlock: OJICUG_clean_linker_0, # of connection points: 2
#     Edge 20, Type (0, 0), BuildingBlock: OJICUG_clean_linker_0, # of connection points: 2
#     Edge 21, Type (0, 0), BuildingBlock: OJICUG_clean_linker_0, # of connection points: 2
#     Edge 22, Type (0, 0), BuildingBlock: OJICUG_clean_linker_0, # of connection points: 2
#     Edge 23, Type (0, 0), BuildingBlock: OJICUG_clean_linker_0, # of connection points: 2
# Relax obj value: 0.090
# Max RMSD: 0.091
# Mean RMSD: 0.091
data_MOF--net-sra--node1-NAHDIM_clean_sbu_0--edge1-OJICUG_clean_linker_0
_symmetry_space_group_name_H-M    P1
_symmetry_Int_Tables_number       1
_symmetry_cell_setting            triclinic
loop_
_symmetry_equiv_pos_as_xyz
'x, y, z'
_cell_length_a     18.240223
_cell_length_b     35.381698
_cell_length_c     30.657101
_cell_angle_alpha  90.00118
_cell_angle_beta   90.001725
_cell_angle_gamma 90.001042
loop_
_atom_site_label
_atom_site_type_symbol
_atom_site_fract_x
_atom_site_fract_y
_atom_site_fract_z
_atom_type_partial_charge
C0 C 0.94793 0.0498 0.06162 0.0
O1 O 0.88618 0.06375 0.07672 0.0
O2 O 0.92097 0.08211 0.17138 0.0
Zn3 Zn 0.00974 0.09157 0.13372 0.0
O4 O 0.10251 0.08162 0.16846 0.0
C5 C 0.97572 0.17069 0.13907 0.0
O6 O 0.93452 0.15812 0.17105 0.0
O7 O 0.00775 0.05811 0.08061 0.0
C8 C 0.1218 0.10681 0.19572 0.0
O9 O 0.07922 0.13621 0.20187 0.0
C10 C 0.89462 0.05055 0.18345 0.0
O11 O 0.92659 0.01905 0.17109 0.0
O12 O 0.01133 0.14712 0.11596 0.0
C13 C 0.07979 0.44987 0.06157 0.0
O14 O 0.14161 0.43612 0.07681 0.0
O15 O 0.10681 0.4173 0.17115 0.0
Zn16 Zn 0.01795 0.40792 0.13354 0.0
O17 O 0.92524 0.41795 0.16831 0.0
C18 C 0.05155 0.32875 0.13894 0.0
O19 O 0.09271 0.34126 0.17098 0.0
O20 O 0.01995 0.44137 0.08042 0.0
C21 C 0.90612 0.39286 0.19573 0.0
O22 O 0.94884 0.36353 0.20203 0.0
C23 C 0.13277 0.44885 0.18354 0.0
O24 O 0.10031 0.48034 0.17159 0.0
O25 O 0.01612 0.35236 0.1158 0.0
C26 C 0.94782 0.94984 0.9122 0.0
O27 O 0.88602 0.93605 0.89699 0.0
O28 O 0.92079 0.91737 0.80257 0.0
Zn29 Zn 0.00963 0.90795 0.84019 0.0
O30 O 0.10235 0.91795 0.80542 0.0
C31 C 0.97584 0.82881 0.83479 0.0
O32 O 0.93463 0.84135 0.8028 0.0
O33 O 0.00766 0.94139 0.89332 0.0
C34 C 0.12144 0.89284 0.77801 0.0
O35 O 0.0787 0.86353 0.77173 0.0
C36 C 0.89472 0.94892 0.79026 0.0
O37 O 0.92706 0.98041 0.80232 0.0
O38 O 0.01138 0.85239 0.85791 0.0
C39 C 0.07964 0.54985 0.91218 0.0
O40 O 0.14137 0.56382 0.89709 0.0
O41 O 0.10655 0.58217 0.80241 0.0
Zn42 Zn 0.01778 0.5916 0.84008 0.0
O43 O 0.92501 0.58162 0.80535 0.0
C44 C 0.05163 0.67074 0.8347 0.0
O45 O 0.09276 0.65819 0.80267 0.0
O46 O 0.01982 0.55815 0.89319 0.0
C47 C 0.90573 0.60678 0.77804 0.0
O48 O 0.94832 0.63617 0.77185 0.0
C49 C 0.13289 0.55061 0.79034 0.0
O50 O 0.10091 0.51911 0.8027 0.0
O51 O 0.01612 0.64715 0.85783 0.0
C52 C 0.44778 0.54966 0.56158 0.0
O53 O 0.38597 0.56343 0.5768 0.0
O54 O 0.42074 0.58216 0.67118 0.0
Zn55 Zn 0.50958 0.59158 0.63358 0.0
O56 O 0.60229 0.58158 0.66835 0.0
C57 C 0.4758 0.67072 0.63897 0.0
O58 O 0.43458 0.65818 0.67096 0.0
O59 O 0.50761 0.55814 0.58045 0.0
C60 C 0.62141 0.60669 0.69576 0.0
O61 O 0.57868 0.63602 0.70202 0.0
C62 C 0.39473 0.55061 0.68354 0.0
O63 O 0.42713 0.51912 0.67155 0.0
O64 O 0.51133 0.64714 0.61585 0.0
C65 C 0.57965 0.94971 0.56161 0.0
O66 O 0.6414 0.93578 0.57672 0.0
O67 O 0.60659 0.91735 0.67134 0.0
Zn68 Zn 0.51781 0.90793 0.63369 0.0
O69 O 0.42504 0.91791 0.66842 0.0
C70 C 0.55163 0.82879 0.63906 0.0
O71 O 0.59276 0.84133 0.67109 0.0
O72 O 0.51982 0.94138 0.58058 0.0
C73 C 0.40576 0.89275 0.69572 0.0
O74 O 0.44834 0.86336 0.70191 0.0
C75 C 0.63287 0.94891 0.68347 0.0
O76 O 0.60081 0.98041 0.67118 0.0
O77 O 0.51612 0.85238 0.61593 0.0
C78 C 0.44793 0.4497 0.41216 0.0
O79 O 0.38619 0.43574 0.39706 0.0
O80 O 0.421 0.41734 0.3024 0.0
Zn81 Zn 0.50979 0.40795 0.34006 0.0
O82 O 0.60255 0.41795 0.30533 0.0
C83 C 0.47605 0.3288 0.33469 0.0
O84 O 0.4349 0.34132 0.30266 0.0
O85 O 0.50775 0.4414 0.39317 0.0
C86 C 0.62177 0.39282 0.27797 0.0
O87 O 0.57913 0.36345 0.27175 0.0
C88 C 0.39463 0.4489 0.29033 0.0
O89 O 0.42659 0.4804 0.30269 0.0
O90 O 0.51154 0.3524 0.35782 0.0
C91 C 0.57975 0.04969 0.41221 0.0
O92 O 0.64156 0.06347 0.39699 0.0
O93 O 0.60678 0.08215 0.30259 0.0
Zn94 Zn 0.51796 0.0916 0.3402 0.0
O95 O 0.42522 0.08162 0.30544 0.0
C96 C 0.55185 0.17073 0.33481 0.0
O97 O 0.59305 0.15817 0.30282 0.0
O98 O 0.51992 0.05816 0.39333 0.0
C99 C 0.40608 0.10675 0.27807 0.0
O100 O 0.44878 0.13609 0.27184 0.0
C101 C 0.63278 0.05059 0.29025 0.0
O102 O 0.60038 0.01911 0.30226 0.0
O103 O 0.51628 0.14716 0.35793 0.0
C104 C 0.02275 0.26884 0.17684 0.0
C105 C 0.03296 0.28826 0.13742 0.0
H106 H 0.9948 0.21679 0.20788 0.0
C107 C 0.02324 0.26893 0.0978 0.0
H108 H 0.02915 0.2832 0.20783 0.0
C109 C 0.00526 0.23032 0.09783 0.0
C110 C 0.99395 0.21123 0.13747 0.0
H111 H 0.03068 0.28347 0.06702 0.0
H112 H -0.00083 0.21558 0.06708 0.0
C113 C 0.00243 0.23093 0.17686 0.0
C114 C 0.00474 0.76906 0.87595 0.0
C115 C 0.99428 0.78829 0.83632 0.0
H116 H 0.02942 0.71578 0.90668 0.0
C117 C 0.00367 0.76875 0.79691 0.0
H118 H -0.00207 0.78368 0.90672 0.0
C119 C 0.02399 0.73084 0.79689 0.0
C120 C 0.03327 0.71126 0.83628 0.0
H121 H 0.9967 0.78302 0.7659 0.0
H122 H 0.03104 0.71661 0.76586 0.0
C123 C 0.0227 0.73045 0.87593 0.0
C124 C 0.50359 0.73078 0.67685 0.0
C125 C 0.49423 0.71124 0.63744 0.0
H126 H 0.53094 0.78292 0.70789 0.0
C127 C 0.50473 0.73047 0.59781 0.0
H128 H 0.49659 0.71652 0.70785 0.0
C129 C 0.52271 0.76908 0.59783 0.0
C130 C 0.53324 0.78827 0.63748 0.0
H131 H 0.49795 0.71584 0.56704 0.0
H132 H 0.52946 0.78373 0.56707 0.0
C133 C 0.52392 0.76869 0.67687 0.0
C134 C 0.50492 0.26908 0.37593 0.0
C135 C 0.49447 0.28828 0.33628 0.0
H136 H 0.52959 0.21584 0.40673 0.0
C137 C 0.50388 0.26871 0.29689 0.0
H138 H 0.4981 0.28374 0.40668 0.0
C139 C 0.5242 0.2308 0.29692 0.0
C140 C 0.53346 0.21125 0.33634 0.0
H141 H 0.49692 0.28295 0.26586 0.0
H142 H 0.53125 0.21654 0.26591 0.0
C143 C 0.52289 0.23048 0.37596 0.0
C144 C 0.29859 0.13982 0.24645 0.0
C145 C 0.33352 0.10566 0.25688 0.0
H146 H 0.20389 0.16673 0.2198 0.0
C147 C 0.29825 0.07134 0.24721 0.0
H148 H 0.32425 0.1667 0.2538 0.0
C149 C 0.22949 0.07136 0.22668 0.0
C150 C 0.19436 0.10569 0.2169 0.0
H151 H 0.32423 0.04464 0.25493 0.0
H152 H 0.20339 0.04466 0.21905 0.0
C153 C 0.22944 0.13984 0.22722 0.0
C154 C 0.72951 0.42827 0.24708 0.0
C155 C 0.69435 0.39393 0.25682 0.0
H156 H 0.8243 0.45498 0.21888 0.0
C157 C 0.7294 0.35979 0.24649 0.0
H158 H 0.70343 0.45496 0.25472 0.0
C159 C 0.79857 0.3598 0.22729 0.0
C160 C 0.83354 0.39396 0.2169 0.0
H161 H 0.70383 0.3329 0.25389 0.0
H162 H 0.82422 0.33291 0.21994 0.0
C163 C 0.79829 0.42828 0.22657 0.0
C164 C 0.2293 0.92824 0.74718 0.0
C165 C 0.19401 0.89393 0.75683 0.0
H166 H 0.3242 0.95491 0.71904 0.0
C167 C 0.22892 0.85976 0.74639 0.0
H168 H 0.20334 0.95495 0.7549 0.0
C169 C 0.29808 0.85974 0.72718 0.0
C170 C 0.33319 0.89388 0.71688 0.0
H171 H 0.20324 0.83289 0.75372 0.0
H172 H 0.32361 0.83285 0.71975 0.0
C173 C 0.29808 0.92822 0.72666 0.0
C174 C 0.72925 0.57129 0.7266 0.0
C175 C 0.69397 0.60561 0.71694 0.0
H176 H 0.82413 0.54462 0.75474 0.0
C177 C 0.7289 0.63977 0.72736 0.0
H178 H 0.70327 0.54458 0.71889 0.0
C179 C 0.79806 0.63979 0.74657 0.0
C180 C 0.83315 0.60565 0.75689 0.0
H181 H 0.70323 0.66665 0.72002 0.0
H182 H 0.82361 0.66669 0.75399 0.0
C183 C 0.79803 0.57131 0.74712 0.0
C184 C 0.73216 0.98385 0.72388 0.0
C185 C 0.69975 0.94958 0.71088 0.0
H186 H 0.81945 0.01065 0.75918 0.0
C187 C 0.7321 0.91542 0.72418 0.0
H188 H 0.70861 0.01065 0.71415 0.0
C189 C 0.79518 0.91542 0.74982 0.0
C190 C 0.82781 0.94958 0.76288 0.0
H191 H 0.70872 0.88847 0.71482 0.0
H192 H 0.81834 0.88848 0.75938 0.0
C193 C 0.79567 0.98385 0.74964 0.0
C194 C 0.29576 0.51568 0.72423 0.0
C195 C 0.32781 0.54995 0.71092 0.0
H196 H 0.20877 0.48888 0.75978 0.0
C197 C 0.2951 0.5841 0.7239 0.0
H198 H 0.31959 0.48888 0.71474 0.0
C199 C 0.23201 0.5841 0.74955 0.0
C200 C 0.19976 0.54994 0.76292 0.0
H201 H 0.31819 0.61105 0.71429 0.0
H202 H 0.20858 0.61105 0.75885 0.0
C203 C 0.23225 0.51568 0.74998 0.0
C204 C 0.73174 0.01565 0.24957 0.0
C205 C 0.6997 0.04992 0.26287 0.0
H206 H 0.81872 0.98883 0.21402 0.0
C207 C 0.73242 0.08407 0.24988 0.0
H208 H 0.70789 0.98885 0.25906 0.0
C209 C 0.79551 0.08406 0.22424 0.0
C210 C 0.82776 0.04989 0.21087 0.0
H211 H 0.70934 0.11102 0.25948 0.0
H212 H 0.81896 0.111 0.21493 0.0
C213 C 0.79525 0.01563 0.22381 0.0
C214 C 0.23246 0.41537 0.22387 0.0
C215 C 0.19969 0.44952 0.21092 0.0
H216 H 0.31902 0.38844 0.25881 0.0
C217 C 0.23171 0.4838 0.22425 0.0
H218 H 0.2094 0.38842 0.21425 0.0
C219 C 0.29522 0.48381 0.25 0.0
C220 C 0.32776 0.44955 0.26291 0.0
H221 H 0.20783 0.51059 0.21478 0.0
H222 H 0.31867 0.51061 0.25981 0.0
C223 C 0.29555 0.41538 0.24952 0.0
C224 C 0.88146 0.01206 0.00483 0.0
C225 C 0.94784 0.02432 0.02332 0.0
H226 H 0.82933 0.97882 0.95542 0.0
C227 C 0.0142 0.01181 0.00501 0.0
H228 H 0.82937 0.02111 0.0182 0.0
C229 C 0.01417 0.98766 0.96894 0.0
C230 C 0.94779 0.97532 0.95051 0.0
H231 H 0.06633 0.02073 0.01844 0.0
H232 H 0.06628 0.97861 0.95559 0.0
C233 C 0.88143 0.98774 0.96888 0.0
C234 C 0.14613 0.51214 0.96899 0.0
C235 C 0.07974 0.52437 0.95048 0.0
H236 H 0.19827 0.47892 0.0184 0.0
C237 C 0.01339 0.51182 0.96876 0.0
H238 H 0.19821 0.52122 0.95564 0.0
C239 C 0.01343 0.48766 0.00482 0.0
C240 C 0.07981 0.47535 0.02327 0.0
H241 H 0.96126 0.52071 0.95531 0.0
H242 H 0.96132 0.47858 0.01814 0.0
C243 C 0.14617 0.48781 0.00493 0.0
C244 C 0.38144 0.48742 0.46895 0.0
C245 C 0.44783 0.47518 0.45046 0.0
H246 H 0.3293 0.52065 0.51837 0.0
C247 C 0.51418 0.48771 0.46877 0.0
H248 H 0.32936 0.47836 0.45559 0.0
C249 C 0.51415 0.51186 0.50484 0.0
C250 C 0.44776 0.52419 0.52327 0.0
H251 H 0.56631 0.4788 0.45533 0.0
H252 H 0.56625 0.52092 0.51817 0.0
C253 C 0.3814 0.51175 0.5049 0.0
C254 C 0.64612 0.98746 0.50483 0.0
C255 C 0.57973 0.9752 0.52331 0.0
H256 H 0.69825 0.02071 0.45543 0.0
C257 C 0.51338 0.98771 0.50499 0.0
H258 H 0.6982 0.97841 0.5182 0.0
C259 C 0.5134 0.01186 0.46893 0.0
C260 C 0.57978 0.02421 0.45051 0.0
H261 H 0.46125 0.97878 0.51842 0.0
H262 H 0.46129 0.02091 0.45559 0.0
C263 C 0.64614 0.01179 0.46889 0.0
loop_
_geom_bond_atom_site_label_1
_geom_bond_atom_site_label_2
_geom_bond_distance
_geom_bond_site_symmetry_2
_ccdc_geom_bond_type
C0 O1 1.160 1_455 S
C0 O7 1.185 . S
O1 C0 1.160 1_655 S
O2 Zn3 1.899 1_655 S
O2 C10 1.284 . S
Zn3 O2 1.899 1_455 S
Zn3 O4 2.032 . S
Zn3 O7 2.086 . S
Zn3 O12 1.977 . S
O4 Zn3 2.032 . S
O4 C8 1.278 . S
C5 O6 1.203 1_455 S
C5 O12 1.267 . S
O6 C5 1.203 1_655 S
O7 C0 1.185 . S
O7 Zn3 2.086 . S
C8 O4 1.278 . S
C8 O9 1.211 . S
O9 C8 1.211 . S
C10 O2 1.284 . S
C10 O11 1.273 . S
O11 C10 1.273 . S
O12 Zn3 1.977 . S
O12 C5 1.267 . S
C13 O14 1.160 . S
C13 O20 1.185 . S
O14 C13 1.160 . S
O15 Zn16 1.899 . S
O15 C23 1.284 . S
Zn16 O15 1.899 . S
Zn16 O17 2.032 1_455 S
Zn16 O20 2.086 . S
Zn16 O25 1.977 . S
O17 Zn16 2.032 1_655 S
O17 C21 1.278 . S
C18 O19 1.203 . S
C18 O25 1.267 . S
O19 C18 1.203 . S
O20 C13 1.185 . S
O20 Zn16 2.086 . S
C21 O17 1.278 . S
C21 O22 1.211 . S
O22 C21 1.211 . S
C23 O15 1.284 . S
C23 O24 1.273 . S
O24 C23 1.273 . S
O25 Zn16 1.977 . S
O25 C18 1.267 . S
C26 O27 1.160 1_455 S
C26 O33 1.185 . S
O27 C26 1.160 1_655 S
O28 Zn29 1.899 1_655 S
O28 C36 1.284 . S
Zn29 O28 1.899 1_455 S
Zn29 O30 2.032 . S
Zn29 O33 2.086 . S
Zn29 O38 1.977 . S
O30 Zn29 2.032 . S
O30 C34 1.278 . S
C31 O32 1.203 1_455 S
C31 O38 1.267 . S
O32 C31 1.203 1_655 S
O33 C26 1.185 . S
O33 Zn29 2.086 . S
C34 O30 1.278 . S
C34 O35 1.211 . S
O35 C34 1.211 . S
C36 O28 1.284 . S
C36 O37 1.273 . S
O37 C36 1.273 . S
O38 Zn29 1.977 . S
O38 C31 1.267 . S
C39 O40 1.160 . S
C39 O46 1.185 . S
O40 C39 1.160 . S
O41 Zn42 1.899 . S
O41 C49 1.284 . S
Zn42 O41 1.899 . S
Zn42 O43 2.032 1_455 S
Zn42 O46 2.086 . S
Zn42 O51 1.977 . S
O43 Zn42 2.032 1_655 S
O43 C47 1.278 . S
C44 O45 1.203 . S
C44 O51 1.267 . S
O45 C44 1.203 . S
O46 C39 1.185 . S
O46 Zn42 2.086 . S
C47 O43 1.278 . S
C47 O48 1.211 . S
O48 C47 1.211 . S
C49 O41 1.284 . S
C49 O50 1.273 . S
O50 C49 1.273 . S
O51 Zn42 1.977 . S
O51 C44 1.267 . S
C52 O53 1.160 . S
C52 O59 1.185 . S
O53 C52 1.160 . S
O54 Zn55 1.899 . S
O54 C62 1.284 . S
Zn55 O54 1.899 . S
Zn55 O56 2.032 . S
Zn55 O59 2.086 . S
Zn55 O64 1.977 . S
O56 Zn55 2.032 . S
O56 C60 1.278 . S
C57 O58 1.203 . S
C57 O64 1.267 . S
O58 C57 1.203 . S
O59 C52 1.185 . S
O59 Zn55 2.086 . S
C60 O56 1.278 . S
C60 O61 1.211 . S
O61 C60 1.211 . S
C62 O54 1.284 . S
C62 O63 1.273 . S
O63 C62 1.273 . S
O64 Zn55 1.977 . S
O64 C57 1.267 . S
C65 O66 1.160 . S
C65 O72 1.185 . S
O66 C65 1.160 . S
O67 Zn68 1.899 . S
O67 C75 1.284 . S
Zn68 O67 1.899 . S
Zn68 O69 2.032 . S
Zn68 O72 2.086 . S
Zn68 O77 1.977 . S
O69 Zn68 2.032 . S
O69 C73 1.278 . S
C70 O71 1.203 . S
C70 O77 1.267 . S
O71 C70 1.203 . S
O72 C65 1.185 . S
O72 Zn68 2.086 . S
C73 O69 1.278 . S
C73 O74 1.211 . S
O74 C73 1.211 . S
C75 O67 1.284 . S
C75 O76 1.273 . S
O76 C75 1.273 . S
O77 Zn68 1.977 . S
O77 C70 1.267 . S
C78 O79 1.160 . S
C78 O85 1.185 . S
O79 C78 1.160 . S
O80 Zn81 1.899 . S
O80 C88 1.284 . S
Zn81 O80 1.899 . S
Zn81 O82 2.032 . S
Zn81 O85 2.086 . S
Zn81 O90 1.977 . S
O82 Zn81 2.032 . S
O82 C86 1.278 . S
C83 O84 1.203 . S
C83 O90 1.267 . S
O84 C83 1.203 . S
O85 C78 1.185 . S
O85 Zn81 2.086 . S
C86 O82 1.278 . S
C86 O87 1.211 . S
O87 C86 1.211 . S
C88 O80 1.284 . S
C88 O89 1.273 . S
O89 C88 1.273 . S
O90 Zn81 1.977 . S
O90 C83 1.267 . S
C91 O92 1.160 . S
C91 O98 1.185 . S
O92 C91 1.160 . S
O93 Zn94 1.899 . S
O93 C101 1.284 . S
Zn94 O93 1.899 . S
Zn94 O95 2.032 . S
Zn94 O98 2.086 . S
Zn94 O103 1.977 . S
O95 Zn94 2.032 . S
O95 C99 1.278 . S
C96 O97 1.203 . S
C96 O103 1.267 . S
O97 C96 1.203 . S
O98 C91 1.185 . S
O98 Zn94 2.086 . S
C99 O95 1.278 . S
C99 O100 1.211 . S
O100 C99 1.211 . S
C101 O93 1.284 . S
C101 O102 1.273 . S
O102 C101 1.273 . S
O103 Zn94 1.977 . S
O103 C96 1.267 . S
C104 C105 1.387 . S
C104 H108 0.950 . S
C104 C113 1.390 . S
C105 C104 1.387 . S
C105 C107 1.387 . S
H106 C113 0.950 . S
C107 C105 1.387 . S
C107 C109 1.390 . S
C107 H111 0.950 . S
H108 C104 0.950 . S
C109 C107 1.390 . S
C109 C110 1.387 . S
C109 H112 0.950 . S
C110 C109 1.387 . S
C110 C113 1.387 . S
H111 C107 0.950 . S
H112 C109 0.950 . S
C113 C104 1.390 . S
C113 H106 0.950 . S
C113 C110 1.387 . S
C114 C115 1.387 . S
C114 H118 0.950 . S
C114 C123 1.390 . S
C115 C114 1.387 . S
C115 C117 1.387 . S
H116 C123 0.950 . S
C117 C115 1.387 . S
C117 C119 1.390 . S
C117 H121 0.950 . S
H118 C114 0.950 . S
C119 C117 1.390 . S
C119 C120 1.387 . S
C119 H122 0.950 . S
C120 C119 1.387 . S
C120 C123 1.387 . S
H121 C117 0.950 . S
H122 C119 0.950 . S
C123 C114 1.390 . S
C123 H116 0.950 . S
C123 C120 1.387 . S
C124 C125 1.387 . S
C124 H128 0.950 . S
C124 C133 1.390 . S
C125 C124 1.387 . S
C125 C127 1.387 . S
H126 C133 0.950 . S
C127 C125 1.387 . S
C127 C129 1.390 . S
C127 H131 0.950 . S
H128 C124 0.950 . S
C129 C127 1.390 . S
C129 C130 1.387 . S
C129 H132 0.950 . S
C130 C129 1.387 . S
C130 C133 1.387 . S
H131 C127 0.950 . S
H132 C129 0.950 . S
C133 C124 1.390 . S
C133 H126 0.950 . S
C133 C130 1.387 . S
C134 C135 1.387 . S
C134 H138 0.950 . S
C134 C143 1.390 . S
C135 C134 1.387 . S
C135 C137 1.387 . S
H136 C143 0.950 . S
C137 C135 1.387 . S
C137 C139 1.390 . S
C137 H141 0.950 . S
H138 C134 0.950 . S
C139 C137 1.390 . S
C139 C140 1.387 . S
C139 H142 0.950 . S
C140 C139 1.387 . S
C140 C143 1.387 . S
H141 C137 0.950 . S
H142 C139 0.950 . S
C143 C134 1.390 . S
C143 H136 0.950 . S
C143 C140 1.387 . S
C144 C145 1.387 . S
C144 H148 0.950 . S
C144 C153 1.390 . S
C145 C144 1.387 . S
C145 C147 1.387 . S
H146 C153 0.950 . S
C147 C145 1.387 . S
C147 C149 1.390 . S
C147 H151 0.950 . S
H148 C144 0.950 . S
C149 C147 1.390 . S
C149 C150 1.387 . S
C149 H152 0.950 . S
C150 C149 1.387 . S
C150 C153 1.387 . S
H151 C147 0.950 . S
H152 C149 0.950 . S
C153 C144 1.390 . S
C153 H146 0.950 . S
C153 C150 1.387 . S
C154 C155 1.387 . S
C154 H158 0.950 . S
C154 C163 1.390 . S
C155 C154 1.387 . S
C155 C157 1.387 . S
H156 C163 0.950 . S
C157 C155 1.387 . S
C157 C159 1.390 . S
C157 H161 0.950 . S
H158 C154 0.950 . S
C159 C157 1.390 . S
C159 C160 1.387 . S
C159 H162 0.950 . S
C160 C159 1.387 . S
C160 C163 1.387 . S
H161 C157 0.950 . S
H162 C159 0.950 . S
C163 C154 1.390 . S
C163 H156 0.950 . S
C163 C160 1.387 . S
C164 C165 1.387 . S
C164 H168 0.950 . S
C164 C173 1.390 . S
C165 C164 1.387 . S
C165 C167 1.387 . S
H166 C173 0.950 . S
C167 C165 1.387 . S
C167 C169 1.390 . S
C167 H171 0.950 . S
H168 C164 0.950 . S
C169 C167 1.390 . S
C169 C170 1.387 . S
C169 H172 0.950 . S
C170 C169 1.387 . S
C170 C173 1.387 . S
H171 C167 0.950 . S
H172 C169 0.950 . S
C173 C164 1.390 . S
C173 H166 0.950 . S
C173 C170 1.387 . S
C174 C175 1.387 . S
C174 H178 0.950 . S
C174 C183 1.390 . S
C175 C174 1.387 . S
C175 C177 1.387 . S
H176 C183 0.950 . S
C177 C175 1.387 . S
C177 C179 1.390 . S
C177 H181 0.950 . S
H178 C174 0.950 . S
C179 C177 1.390 . S
C179 C180 1.387 . S
C179 H182 0.950 . S
C180 C179 1.387 . S
C180 C183 1.387 . S
H181 C177 0.950 . S
H182 C179 0.950 . S
C183 C174 1.390 . S
C183 H176 0.950 . S
C183 C180 1.387 . S
C184 C185 1.387 . S
C184 H188 0.950 . S
C184 C193 1.390 . S
C185 C184 1.387 . S
C185 C187 1.387 . S
H186 C193 0.950 . S
C187 C185 1.387 . S
C187 C189 1.390 . S
C187 H191 0.950 . S
H188 C184 0.950 . S
C189 C187 1.390 . S
C189 C190 1.387 . S
C189 H192 0.950 . S
C190 C189 1.387 . S
C190 C193 1.387 . S
H191 C187 0.950 . S
H192 C189 0.950 . S
C193 C184 1.390 . S
C193 H186 0.950 . S
C193 C190 1.387 . S
C194 C195 1.387 . S
C194 H198 0.950 . S
C194 C203 1.390 . S
C195 C194 1.387 . S
C195 C197 1.387 . S
H196 C203 0.950 . S
C197 C195 1.387 . S
C197 C199 1.390 . S
C197 H201 0.950 . S
H198 C194 0.950 . S
C199 C197 1.390 . S
C199 C200 1.387 . S
C199 H202 0.950 . S
C200 C199 1.387 . S
C200 C203 1.387 . S
H201 C197 0.950 . S
H202 C199 0.950 . S
C203 C194 1.390 . S
C203 H196 0.950 . S
C203 C200 1.387 . S
C204 C205 1.387 . S
C204 H208 0.950 . S
C204 C213 1.390 . S
C205 C204 1.387 . S
C205 C207 1.387 . S
H206 C213 0.950 . S
C207 C205 1.387 . S
C207 C209 1.390 . S
C207 H211 0.950 . S
H208 C204 0.950 . S
C209 C207 1.390 . S
C209 C210 1.387 . S
C209 H212 0.950 . S
C210 C209 1.387 . S
C210 C213 1.387 . S
H211 C207 0.950 . S
H212 C209 0.950 . S
C213 C204 1.390 . S
C213 H206 0.950 . S
C213 C210 1.387 . S
C214 C215 1.387 . S
C214 H218 0.950 . S
C214 C223 1.390 . S
C215 C214 1.387 . S
C215 C217 1.387 . S
H216 C223 0.950 . S
C217 C215 1.387 . S
C217 C219 1.390 . S
C217 H221 0.950 . S
H218 C214 0.950 . S
C219 C217 1.390 . S
C219 C220 1.387 . S
C219 H222 0.950 . S
C220 C219 1.387 . S
C220 C223 1.387 . S
H221 C217 0.950 . S
H222 C219 0.950 . S
C223 C214 1.390 . S
C223 H216 0.950 . S
C223 C220 1.387 . S
C224 C225 1.387 1_655 S
C224 H228 0.950 . S
C224 C233 1.390 1_544 S
C225 C224 1.387 1_455 S
C225 C227 1.387 . S
H226 C233 0.950 . S
C227 C225 1.387 . S
C227 C229 1.390 1_544 S
C227 H231 0.950 . S
H228 C224 0.950 . S
C229 C227 1.390 1_566 S
C229 C230 1.387 . S
C229 H232 0.950 . S
C230 C229 1.387 . S
C230 C233 1.387 1_455 S
H231 C227 0.950 . S
H232 C229 0.950 . S
C233 C224 1.390 1_566 S
C233 H226 0.950 . S
C233 C230 1.387 1_655 S
C234 C235 1.387 . S
C234 H238 0.950 . S
C234 C243 1.390 1_556 S
C235 C234 1.387 . S
C235 C237 1.387 1_455 S
H236 C243 0.950 . S
C237 C235 1.387 1_655 S
C237 C239 1.390 1_556 S
C237 H241 0.950 . S
H238 C234 0.950 . S
C239 C237 1.390 1_554 S
C239 C240 1.387 1_655 S
C239 H242 0.950 . S
C240 C239 1.387 1_455 S
C240 C243 1.387 . S
H241 C237 0.950 . S
H242 C239 0.950 . S
C243 C234 1.390 1_554 S
C243 H236 0.950 . S
C243 C240 1.387 . S
C244 C245 1.387 . S
C244 H248 0.950 . S
C244 C253 1.390 . S
C245 C244 1.387 . S
C245 C247 1.387 . S
H246 C253 0.950 . S
C247 C245 1.387 . S
C247 C249 1.390 . S
C247 H251 0.950 . S
H248 C244 0.950 . S
C249 C247 1.390 . S
C249 C250 1.387 . S
C249 H252 0.950 . S
C250 C249 1.387 . S
C250 C253 1.387 . S
H251 C247 0.950 . S
H252 C249 0.950 . S
C253 C244 1.390 . S
C253 H246 0.950 . S
C253 C250 1.387 . S
C254 C255 1.387 . S
C254 H258 0.950 . S
C254 C263 1.390 1_565 S
C255 C254 1.387 . S
C255 C257 1.387 . S
H256 C263 0.950 . S
C257 C255 1.387 . S
C257 C259 1.390 1_565 S
C257 H261 0.950 . S
H258 C254 0.950 . S
C259 C257 1.390 1_545 S
C259 C260 1.387 . S
C259 H262 0.950 . S
C260 C259 1.387 . S
C260 C263 1.387 . S
H261 C257 0.950 . S
H262 C259 0.950 . S
C263 C254 1.390 1_545 S
C263 H256 0.950 . S
C263 C260 1.387 . S
C105 C18 1.437 . S
C110 C5 1.438 . S
C115 C31 1.439 . S
C120 C44 1.439 . S
C125 C57 1.438 . S
C130 C70 1.438 . S
C135 C83 1.439 . S
C140 C96 1.439 . S
C145 C99 1.359 . S
C150 C8 1.359 . S
C155 C86 1.359 . S
C160 C21 1.359 . S
C165 C34 1.359 . S
C170 C73 1.359 . S
C175 C60 1.359 . S
C180 C47 1.359 . S
C185 C75 1.465 . S
C190 C36 1.465 . S
C195 C62 1.465 . S
C200 C49 1.465 . S
C205 C101 1.465 . S
C210 C10 1.465 . S
C215 C23 1.464 . S
C220 C88 1.464 . S
C225 C0 1.336 . S
C230 C26 1.336 . S
C235 C39 1.336 . S
C240 C13 1.336 . S
C245 C78 1.336 . S
C250 C52 1.336 . S
C255 C65 1.336 . S
C260 C91 1.336 . S
