# Generated by pormake.
# Topology pcu, (6)-cn, num edge types: 1
# Building blocks:
#     Node 0, Type 0, BuildingBlock: HISSIN_clean_sbu_0, # of connection points: 6
#     Edge 1, Type (0, 0), BuildingBlock: KIFKEQ_clean_linker_1, # of connection points: 2
#     Edge 2, Type (0, 0), BuildingBlock: KIFKEQ_clean_linker_1, # of connection points: 2
#     Edge 3, Type (0, 0), BuildingBlock: KIFKEQ_clean_linker_1, # of connection points: 2
# Relax obj value: 0.000
# Max RMSD: 0.000
# Mean RMSD: 0.000
data_MOF--net-pcu--node1-HISSIN_clean_sbu_0--edge1-KIFKEQ_clean_linker_1
_symmetry_space_group_name_H-M    P1
_symmetry_Int_Tables_number       1
_symmetry_cell_setting            triclinic
loop_
_symmetry_equiv_pos_as_xyz
'x, y, z'
_cell_length_a     15.499158
_cell_length_b     25.564341
_cell_length_c     15.633523
_cell_angle_alpha  121.82475
_cell_angle_beta   90.811685
_cell_angle_gamma 97.218456
loop_
_atom_site_label
_atom_site_type_symbol
_atom_site_fract_x
_atom_site_fract_y
_atom_site_fract_z
_atom_type_partial_charge
Eu0 Eu 0.99166 0.95145 0.91515 0.0
Eu1 Eu 0.02346 0.10664 0.04647 0.0
C2 C 0.18181 0.03097 -0.01657 0.0
C3 C 0.96112 0.78204 0.84608 0.0
C4 C 0.97033 0.79921 0.94745 0.0
C5 C 0.94426 0.67305 0.79331 0.0
C6 C 0.9676 0.75353 0.9716 0.0
C7 C 0.94709 0.71876 0.76934 0.0
C8 C 0.95569 0.68984 0.89469 0.0
C9 C 0.97143 0.82951 0.81922 0.0
O10 O 0.03944 0.07667 0.88484 0.0
O11 O 0.96638 0.97581 0.79892 0.0
C12 C 0.00172 1.02614 0.80119 0.0
O13 O 0.865 0.98316 0.97737 0.0
O14 O 0.10671 0.19424 0.09109 0.0
O15 O 0.9804 0.19573 0.14915 0.0
O16 O 0.88368 0.07383 0.97919 0.0
C17 C 0.83264 0.02844 0.97808 0.0
O18 O 0.02698 0.9808 0.076 0.0
O19 O 0.99298 0.08022 0.16065 0.0
O20 O 0.15003 0.07604 0.06062 0.0
O21 O 0.90697 0.86068 0.83381 0.0
O22 O 0.04702 0.86542 0.84858 0.0
O23 O 0.12983 0.98599 0.90542 0.0
C24 C 0.03081 0.27521 0.11857 0.0
C25 C 0.96748 0.26028 0.0408 0.0
C26 C 0.06679 0.37942 0.14949 0.0
C27 C 0.95374 0.30477 0.01771 0.0
C28 C 0.0802 0.335 0.17271 0.0
C29 C 0.00349 0.36492 0.07153 0.0
C30 C 0.04827 0.22843 0.14168 0.0
C31 C 0.00963 0.03049 0.15895 0.0
H32 H 0.98155 0.84794 0.0077 0.0
H33 H 0.93353 0.62451 0.73229 0.0
H34 H 0.9775 0.76821 0.05035 0.0
H35 H 0.93979 0.70468 0.69066 0.0
H36 H 0.92897 0.21416 -0.00232 0.0
H37 H 0.1074 0.42475 0.19135 0.0
H38 H 0.9038 0.29211 0.95803 0.0
H39 H 0.12995 0.34714 0.23234 0.0
H40 H 0.04443 0.93783 0.18682 0.0
H41 H 0.97017 0.12162 0.34455 0.0
H42 H 0.04035 0.93648 0.34121 0.0
H43 H 0.96474 0.11965 0.49847 0.0
H44 H 0.06297 0.12269 0.77854 0.0
H45 H 0.06405 0.12316 0.62359 0.0
H46 H 0.93719 0.93132 0.4543 0.0
H47 H 0.93758 0.93025 0.60949 0.0
C48 C 0.02691 0.97789 0.25421 0.0
C49 C 0.00781 0.02992 0.25318 0.0
C50 C 0.02404 0.97688 0.34261 0.0
C51 C 0.00213 1.0279 0.43211 0.0
C52 C 0.98292 0.0799 0.43109 0.0
C53 C 0.98573 0.08091 0.34267 0.0
C54 C 0.03525 0.08047 0.70843 0.0
C55 C 0.0004 1.02631 0.70656 0.0
C56 C 0.03537 0.08096 0.61958 0.0
C57 C 0.00064 1.02733 0.5266 0.0
C58 C 0.96538 0.97319 0.52461 0.0
C59 C 0.96516 0.9727 0.61366 0.0
H60 H 0.26814 0.93774 0.84995 0.0
H61 H 0.31163 0.12386 0.117 0.0
H62 H 0.42535 0.93742 0.84918 0.0
H63 H 0.46907 0.12322 0.11624 0.0
H64 H 0.7447 0.12194 0.00662 0.0
H65 H 0.58748 0.12265 0.00868 0.0
H66 H 0.54735 0.93694 0.95452 0.0
H67 H 0.70451 0.93588 0.95188 0.0
C68 C 0.31117 0.9786 0.90854 0.0
C69 C 0.27731 0.03087 -0.01648 0.0
C70 C 0.40122 0.97821 0.90837 0.0
C71 C 0.45948 0.03026 -0.01734 0.0
C72 C 0.42574 0.08264 0.05748 0.0
C73 C 0.33556 0.08284 0.05819 0.0
C74 C 0.70242 0.08118 -0.005 0.0
C75 C 0.7372 0.0288 0.97896 0.0
C76 C 0.61241 0.0818 -0.00315 0.0
C77 C 0.55515 0.02988 -0.01818 0.0
C78 C 0.58984 0.97742 0.9654 0.0
C79 C 0.67991 0.97697 0.9644 0.0
H80 H 0.03427 0.58562 0.79681 0.0
H81 H 0.88371 0.68411 0.04973 0.0
H82 H 0.04161 0.50714 0.83892 0.0
H83 H 0.89076 0.60528 0.0918 0.0
H84 H 0.00659 0.49082 0.20055 0.0
H85 H 0.99325 0.56832 0.15738 0.0
H86 H 0.9544 0.42299 0.84035 0.0
H87 H 0.97197 0.34589 0.88318 0.0
C88 C 0.00167 0.59012 0.86067 0.0
C89 C 0.95818 0.6412 0.91967 0.0
C90 C 0.00588 0.54502 0.88486 0.0
C91 C 0.96665 0.54967 0.96871 0.0
C92 C 0.92278 0.60062 0.02754 0.0
C93 C 0.91867 0.64584 0.00338 0.0
C94 C -0.00409 0.47538 0.12154 0.0
C95 C 0.99084 0.41198 0.04542 0.0
C96 C 0.98711 0.51982 0.09683 0.0
C97 C 0.97285 0.50205 -0.00469 0.0
C98 C 0.96646 0.43854 0.91927 0.0
C99 C 0.97542 0.39412 0.94396 0.0
loop_
_geom_bond_atom_site_label_1
_geom_bond_atom_site_label_2
_geom_bond_distance
_geom_bond_site_symmetry_2
_ccdc_geom_bond_type
Eu0 C9 2.828 . S
Eu0 O11 2.392 . S
Eu0 O13 2.418 . S
Eu0 O18 2.373 1_556 S
Eu0 O21 2.488 . S
Eu0 O22 2.471 1_655 S
Eu0 O23 2.349 1_655 S
Eu1 O10 2.373 1_554 S
Eu1 O14 2.488 . S
Eu1 O15 2.471 1_455 S
Eu1 O16 2.349 1_455 S
Eu1 O19 2.392 . S
Eu1 O20 2.418 . S
Eu1 C30 2.828 . S
C2 O20 1.244 . S
C2 O23 1.265 1_544 S
C3 C4 1.379 1_656 S
C3 C7 1.373 . S
C3 C9 1.505 . S
C4 C3 1.379 1_454 S
C4 C6 1.369 . S
C4 H32 0.930 . S
C5 C7 1.383 . S
C5 C8 1.382 . S
C5 H33 0.930 . S
C6 C4 1.369 . S
C6 C8 1.392 1_454 S
C6 H34 0.930 . S
C7 C3 1.373 . S
C7 C5 1.383 . S
C7 H35 0.931 . S
C8 C5 1.382 . S
C8 C6 1.392 1_656 S
C9 Eu0 2.828 . S
C9 C3 1.505 . S
C9 O21 1.249 . S
C9 O22 1.244 1_655 S
O10 Eu1 2.373 1_556 S
O10 C12 1.258 1_545 S
O11 Eu0 2.392 . S
O11 C12 1.242 1_655 S
C12 O10 1.258 1_565 S
C12 O11 1.242 1_455 S
O13 Eu0 2.418 . S
O13 C17 1.244 . S
O14 Eu1 2.488 . S
O14 C30 1.249 . S
O15 Eu1 2.471 1_655 S
O15 C30 1.244 1_655 S
O16 Eu1 2.349 1_655 S
O16 C17 1.265 1_544 S
C17 O13 1.244 . S
C17 O16 1.265 1_566 S
O18 Eu0 2.373 1_554 S
O18 C31 1.258 1_665 S
O19 Eu1 2.392 . S
O19 C31 1.242 . S
O20 Eu1 2.418 . S
O20 C2 1.244 . S
O21 Eu0 2.488 . S
O21 C9 1.249 . S
O22 Eu0 2.471 1_455 S
O22 C9 1.244 1_455 S
O23 Eu0 2.349 1_455 S
O23 C2 1.265 1_566 S
C24 C25 1.379 1_454 S
C24 C28 1.373 . S
C24 C30 1.505 . S
C25 C24 1.379 1_656 S
C25 C27 1.369 . S
C25 H36 0.930 . S
C26 C28 1.383 . S
C26 C29 1.382 . S
C26 H37 0.930 . S
C27 C25 1.369 . S
C27 C29 1.392 1_656 S
C27 H38 0.930 . S
C28 C24 1.373 . S
C28 C26 1.383 . S
C28 H39 0.931 . S
C29 C26 1.382 . S
C29 C27 1.392 1_454 S
C30 Eu1 2.828 . S
C30 O14 1.249 . S
C30 O15 1.244 1_455 S
C30 C24 1.505 . S
C31 O18 1.258 1_445 S
C31 O19 1.242 . S
H32 C4 0.930 . S
H33 C5 0.930 . S
H34 C6 0.930 . S
H35 C7 0.931 . S
H36 C25 0.930 . S
H37 C26 0.930 . S
H38 C27 0.930 . S
H39 C28 0.931 . S
H40 C48 0.950 . S
H41 C53 0.950 . S
H42 C50 0.950 . S
H43 C52 0.950 . S
H44 C54 0.950 . S
H45 C56 0.950 . S
H46 C58 0.950 . S
H47 C59 0.950 . S
C48 H40 0.950 . S
C48 C49 1.386 1_565 S
C48 C50 1.391 . S
C49 C48 1.386 1_545 S
C49 C53 1.393 1_455 S
C50 H42 0.950 . S
C50 C48 1.391 . S
C50 C51 1.408 1_565 S
C51 C50 1.408 1_545 S
C51 C52 1.391 1_455 S
C51 C57 1.490 1_445 S
C52 H43 0.950 . S
C52 C51 1.391 1_655 S
C52 C53 1.391 . S
C53 H41 0.950 . S
C53 C49 1.393 1_655 S
C53 C52 1.391 . S
C54 H44 0.950 . S
C54 C55 1.386 1_545 S
C54 C56 1.391 . S
C55 C54 1.386 1_565 S
C55 C59 1.393 1_655 S
C56 H45 0.950 . S
C56 C54 1.391 . S
C56 C57 1.406 1_545 S
C57 C51 1.490 1_665 S
C57 C56 1.406 1_565 S
C57 C58 1.393 1_655 S
C58 H46 0.950 . S
C58 C57 1.393 1_455 S
C58 C59 1.391 . S
C59 H47 0.950 . S
C59 C55 1.393 1_455 S
C59 C58 1.391 . S
H60 C68 0.950 . S
H61 C73 0.950 . S
H62 C70 0.950 . S
H63 C72 0.950 . S
H64 C74 0.950 . S
H65 C76 0.950 . S
H66 C78 0.950 . S
H67 C79 0.950 . S
C68 H60 0.950 . S
C68 C69 1.407 . S
C68 C70 1.391 . S
C69 C68 1.407 . S
C69 C73 1.375 1_565 S
C70 H62 0.950 . S
C70 C68 1.391 . S
C70 C71 1.408 . S
C71 C70 1.408 . S
C71 C72 1.389 1_565 S
C71 C77 1.494 1_566 S
C72 H63 0.950 . S
C72 C71 1.389 1_545 S
C72 C73 1.391 . S
C73 H61 0.950 . S
C73 C69 1.375 1_545 S
C73 C72 1.391 . S
C74 H64 0.950 . S
C74 C75 1.386 . S
C74 C76 1.391 . S
C75 C74 1.386 . S
C75 C79 1.393 1_545 S
C76 H65 0.950 . S
C76 C74 1.391 . S
C76 C77 1.412 . S
C77 C71 1.494 1_544 S
C77 C76 1.412 . S
C77 C78 1.384 1_545 S
C78 H66 0.950 . S
C78 C77 1.384 1_565 S
C78 C79 1.391 . S
C79 H67 0.950 . S
C79 C75 1.393 1_565 S
C79 C78 1.391 . S
H80 C88 0.950 . S
H81 C93 0.950 . S
H82 C90 0.950 . S
H83 C92 0.950 . S
H84 C94 0.950 . S
H85 C96 0.950 . S
H86 C98 0.950 . S
H87 C99 0.950 . S
C88 H80 0.950 . S
C88 C89 1.386 1_655 S
C88 C90 1.391 . S
C89 C88 1.386 1_455 S
C89 C93 1.393 1_556 S
C90 H82 0.950 . S
C90 C88 1.391 . S
C90 C91 1.410 1_655 S
C91 C90 1.410 1_455 S
C91 C92 1.396 1_556 S
C91 C97 1.483 1_456 S
C92 H83 0.950 . S
C92 C91 1.396 1_554 S
C92 C93 1.391 . S
C93 H81 0.950 . S
C93 C89 1.393 1_554 S
C93 C92 1.391 . S
C94 H84 0.950 . S
C94 C95 1.386 1_455 S
C94 C96 1.391 . S
C95 C94 1.386 1_655 S
C95 C99 1.393 1_554 S
C96 H85 0.950 . S
C96 C94 1.391 . S
C96 C97 1.400 1_455 S
C97 C91 1.483 1_654 S
C97 C96 1.400 1_655 S
C97 C98 1.398 1_554 S
C98 H86 0.950 . S
C98 C97 1.398 1_556 S
C98 C99 1.391 . S
C99 H87 0.950 . S
C99 C95 1.393 1_556 S
C99 C98 1.391 . S
C49 C31 1.498 . S
C55 C12 1.498 1_655 S
C69 C2 1.462 1_566 S
C75 C17 1.469 1_544 S
C89 C8 1.491 1_455 S
C95 C29 1.491 1_655 S
