# Generated by pormake.
# Topology pcu, (6)-cn, num edge types: 1
# Building blocks:
#     Node 0, Type 0, BuildingBlock: BETDIP_clean_sbu_0, # of connection points: 6
#     Edge 1, Type (0, 0), BuildingBlock: TEMPAE_clean_linker_10, # of connection points: 2
#     Edge 2, Type (0, 0), BuildingBlock: TEMPAE_clean_linker_10, # of connection points: 2
#     Edge 3, Type (0, 0), BuildingBlock: TEMPAE_clean_linker_10, # of connection points: 2
# Relax obj value: 0.000
# Max RMSD: 0.000
# Mean RMSD: 0.000
data_MOF--net-pcu--node1-BETDIP_clean_sbu_0--edge1-TEMPAE_clean_linker_10
_symmetry_space_group_name_H-M    P1
_symmetry_Int_Tables_number       1
_symmetry_cell_setting            triclinic
loop_
_symmetry_equiv_pos_as_xyz
'x, y, z'
_cell_length_a     25.400258
_cell_length_b     15.55411
_cell_length_c     14.535399
_cell_angle_alpha  90.723513
_cell_angle_beta   96.321208
_cell_angle_gamma 124.39815
loop_
_atom_site_label
_atom_site_type_symbol
_atom_site_fract_x
_atom_site_fract_y
_atom_site_fract_z
_atom_type_partial_charge
Tb0 Tb 0.9566 0.91382 1.01183 0.0
Tb1 Tb 0.09883 0.04424 1.00633 0.0
C2 C 0.84402 0.84211 0.04549 0.0
C3 C 0.79879 0.87429 0.03983 0.0
C4 C 0.78201 0.89573 0.12177 0.0
C5 C 0.73627 0.91952 0.11797 0.0
C6 C 0.70577 0.92178 0.03199 0.0
C7 C 0.72332 0.90175 0.94996 0.0
C8 C 0.76919 0.87825 0.95378 0.0
C9 C 0.99168 0.93124 0.84511 0.0
C10 C 0.03391 0.16159 1.00864 0.0
C11 C 0.20827 0.11317 0.96165 0.0
C12 C 0.256 0.08618 0.97295 0.0
C13 C 0.27042 0.05439 0.89414 0.0
C14 C 0.31741 0.03324 0.90245 0.0
C15 C 0.35157 0.0442 0.98983 0.0
C16 C 0.33668 0.07509 0.06886 0.0
C17 C 0.28942 0.09572 0.06061 0.0
C18 C 0.06697 0.02816 0.17528 0.0
C19 C 1.02183 0.79575 0.01637 0.0
O20 O 0.89535 0.89455 0.108 0.0
O21 O 0.85694 0.82057 0.96728 0.0
O22 O 1.01697 0.00278 0.91014 0.0
O23 O 0.94194 0.84777 0.86976 0.0
O24 O 0.98393 0.07465 0.03369 0.0
O25 O 0.08178 0.16386 0.97833 0.0
O26 O 0.15409 0.04777 0.90702 0.0
O27 O 0.19931 0.14875 0.03625 0.0
O28 O 0.03875 0.95678 0.10922 0.0
O29 O 0.11823 0.10882 0.14982 0.0
O30 O 0.07429 0.88426 0.99825 0.0
O31 O 0.97069 0.7906 0.03649 0.0
H32 H 0.80375 0.89283 0.18907 0.0
H33 H 0.72475 0.93601 0.18258 0.0
H34 H 0.70033 0.90141 0.8825 0.0
H35 H 0.78054 0.86146 0.88913 0.0
H36 H 0.24584 0.04716 0.82566 0.0
H37 H 0.32811 0.01075 0.84003 0.0
H38 H 0.3615 0.08308 0.13732 0.0
H39 H 0.27957 0.11997 0.12291 0.0
C40 C 0.99667 0.92993 0.29628 0.0
C41 C 0.05591 0.01253 0.27346 0.0
C42 C 0.98538 0.91747 0.38935 0.0
C43 C 0.03586 -0.01442 0.46162 0.0
C44 C 0.09664 0.06665 0.43891 0.0
C45 C 0.10542 0.0806 0.34514 0.0
C46 C 0.91916 0.83236 0.41018 0.0
C47 C 0.15266 0.13796 0.51365 0.0
C48 C 0.99938 0.02037 0.70126 0.0
C49 C 1.00485 0.9474 0.74855 0.0
C50 C 1.00799 0.03202 0.60722 0.0
C51 C 1.02519 0.97237 0.56092 0.0
C52 C 0.03257 0.90067 0.60982 0.0
C53 C 1.02082 0.88734 0.70262 0.0
C54 C 0.99736 0.10648 0.55694 0.0
C55 C 0.05354 0.83891 0.56453 0.0
H56 H 0.95882 0.87573 0.24145 0.0
H57 H 0.15172 0.14376 0.32801 0.0
H58 H 0.92165 0.77396 0.44969 0.0
H59 H 0.90096 0.86616 0.45428 0.0
H60 H 0.88396 0.79131 0.34596 0.0
H61 H 0.19783 0.19275 0.48447 0.0
H62 H 0.14148 0.18446 0.55531 0.0
H63 H 0.16106 0.09078 0.56186 0.0
H64 H 0.98642 0.06599 0.73716 0.0
H65 H 1.02521 0.83124 0.73993 0.0
H66 H 0.96048 0.0641 0.49466 0.0
H67 H 0.04251 0.16916 0.53236 0.0
H68 H 0.98132 0.14344 0.60176 0.0
H69 H 1.01682 0.78577 0.50527 0.0
H70 H 0.06086 0.79135 0.61382 0.0
H71 H 0.09923 0.89276 0.5363 0.0
C72 C 0.39471 0.94003 0.94741 0.0
C73 C 0.40341 0.02561 0.99811 0.0
C74 C 0.44366 0.92281 0.95328 0.0
C75 C 0.50301 -0.00699 1.01102 0.0
C76 C 0.51204 0.07933 0.06263 0.0
C77 C 0.46218 0.09446 0.05568 0.0
C78 C 0.43187 0.82946 0.89755 0.0
C79 C 0.5746 0.15624 0.12471 0.0
C80 C 0.6088 0.89832 0.08949 0.0
C81 C 0.65466 0.9421 0.02779 0.0
C82 C 0.55957 0.91477 0.0852 0.0
C83 C 0.55568 0.9762 0.0173 0.0
C84 C 0.6019 0.02104 0.95508 0.0
C85 C 0.65078 0.00363 0.96115 0.0
C86 C 0.51133 0.86556 0.15288 0.0
C87 C 0.59959 0.08721 0.88179 0.0
H88 H 0.34922 0.88574 0.90365 0.0
H89 H 0.4697 0.16155 0.09414 0.0
H90 H 0.46812 0.85595 0.84928 0.0
H91 H 0.43753 0.77878 0.94465 0.0
H92 H 0.38297 0.78188 0.85644 0.0
H93 H 0.57378 0.21869 0.16099 0.0
H94 H 0.58476 0.11477 0.1776 0.0
H95 H 0.615 0.1934 0.08298 0.0
H96 H 0.61061 0.84935 0.1403 0.0
H97 H 0.68638 0.03904 0.91398 0.0
H98 H 0.46208 0.81128 0.11443 0.0
H99 H 0.51142 0.92686 0.19291 0.0
H100 H 0.52164 0.82147 0.20258 0.0
H101 H 0.55287 0.04078 0.83518 0.0
H102 H 0.63921 0.11688 0.83894 0.0
H103 H 0.60288 0.15498 0.91509 0.0
C104 C 0.07847 0.71105 0.05854 0.0
C105 C 1.02267 0.70228 0.01891 0.0
C106 C 0.08095 0.62335 0.05957 0.0
C107 C 1.02718 0.52583 0.01661 0.0
C108 C 0.9709 0.51702 0.97553 0.0
C109 C 0.96889 0.6053 0.97878 0.0
C110 C 0.14089 0.63495 0.10703 0.0
C111 C 0.91343 0.41503 0.92653 0.0
C112 C 0.05936 0.32634 0.94338 0.0
C113 C 0.03403 0.25615 1.01143 0.0
C114 C 0.05656 0.41389 0.94335 0.0
C115 C 0.02981 0.43296 0.01491 0.0
C116 C 1.00562 0.36339 0.08505 0.0
C117 C 1.00703 0.27469 0.0815 0.0
C118 C 0.08112 0.48483 0.86595 0.0
C119 C 0.97868 0.38297 0.16413 0.0
H120 H 0.11988 0.78639 0.08999 0.0
H121 H 0.92611 0.5994 0.94726 0.0
H122 H 0.12806 0.57832 0.16038 0.0
H123 H 0.16336 0.61691 0.05576 0.0
H124 H 0.17715 0.71513 0.14106 0.0
H125 H 0.87426 0.42228 0.89557 0.0
H126 H 0.92843 0.38771 0.87048 0.0
H127 H 0.89388 0.35384 0.97592 0.0
H128 H 0.07962 0.31108 0.88871 0.0
H129 H 0.98786 0.22047 0.13448 0.0
H130 H 0.12126 0.56511 0.89488 0.0
H131 H 0.04221 0.48992 0.83001 0.0
H132 H 0.09847 0.457 0.81391 0.0
H133 H 1.01495 0.46171 0.20067 0.0
H134 H 0.96463 0.32377 0.21536 0.0
H135 H 0.93572 0.38169 0.13673 0.0
loop_
_geom_bond_atom_site_label_1
_geom_bond_atom_site_label_2
_geom_bond_distance
_geom_bond_site_symmetry_2
_ccdc_geom_bond_type
Tb0 C2 2.809 . S
Tb0 O20 2.484 1_556 S
Tb0 O21 2.440 . S
Tb0 O22 2.658 1_655 S
Tb0 O23 2.409 . S
Tb0 O24 2.378 1_565 S
Tb0 O28 2.325 1_566 S
Tb0 O31 2.341 . S
Tb1 C11 2.809 . S
Tb1 O22 2.325 1_544 S
Tb1 O25 2.341 . S
Tb1 O26 2.484 1_554 S
Tb1 O27 2.440 . S
Tb1 O28 2.658 1_455 S
Tb1 O29 2.409 . S
Tb1 O30 2.378 1_545 S
C2 Tb0 2.809 . S
C2 C3 1.514 . S
C2 O20 1.248 1_556 S
C2 O21 1.266 . S
C3 C2 1.514 . S
C3 C4 1.355 1_566 S
C3 C8 1.348 . S
C4 C3 1.355 1_544 S
C4 C5 1.386 . S
C4 H32 0.927 . S
C5 C4 1.386 . S
C5 C6 1.339 1_544 S
C5 H33 0.931 . S
C6 C5 1.339 1_566 S
C6 C7 1.378 . S
C7 C6 1.378 . S
C7 C8 1.408 . S
C7 H34 0.930 . S
C8 C3 1.348 . S
C8 C7 1.408 . S
C8 H35 0.930 . S
C9 O22 1.281 1_655 S
C9 O23 1.254 . S
C10 O24 1.236 1_455 S
C10 O25 1.266 1_556 S
C11 Tb1 2.809 . S
C11 C12 1.514 . S
C11 O26 1.248 1_554 S
C11 O27 1.266 . S
C12 C11 1.514 . S
C12 C13 1.356 1_544 S
C12 C17 1.348 . S
C13 C12 1.356 1_566 S
C13 C14 1.384 . S
C13 H36 0.927 . S
C14 C13 1.384 . S
C14 C15 1.337 1_566 S
C14 H37 0.931 . S
C15 C14 1.337 1_544 S
C15 C16 1.380 . S
C16 C15 1.380 . S
C16 C17 1.408 . S
C16 H38 0.930 . S
C17 C12 1.348 . S
C17 C16 1.408 . S
C17 H39 0.930 . S
C18 O28 1.281 1_455 S
C18 O29 1.254 . S
C19 O30 1.236 1_655 S
C19 O31 1.266 1_554 S
O20 Tb0 2.484 1_554 S
O20 C2 1.248 1_554 S
O21 Tb0 2.440 . S
O21 C2 1.266 . S
O22 Tb0 2.658 1_455 S
O22 Tb1 2.325 1_566 S
O22 C9 1.281 1_455 S
O23 Tb0 2.409 . S
O23 C9 1.254 . S
O24 Tb0 2.378 1_545 S
O24 C10 1.236 1_655 S
O25 Tb1 2.341 . S
O25 C10 1.266 1_554 S
O26 Tb1 2.484 1_556 S
O26 C11 1.248 1_556 S
O27 Tb1 2.440 . S
O27 C11 1.266 . S
O28 Tb0 2.325 1_544 S
O28 Tb1 2.658 1_655 S
O28 C18 1.281 1_655 S
O29 Tb1 2.409 . S
O29 C18 1.254 . S
O30 Tb1 2.378 1_565 S
O30 C19 1.236 1_455 S
O31 Tb0 2.341 . S
O31 C19 1.266 1_556 S
H32 C4 0.927 . S
H33 C5 0.931 . S
H34 C7 0.930 . S
H35 C8 0.930 . S
H36 C13 0.927 . S
H37 C14 0.931 . S
H38 C16 0.930 . S
H39 C17 0.930 . S
C40 C41 1.391 1_655 S
C40 C42 1.394 . S
C40 H56 0.931 . S
C41 C40 1.391 1_455 S
C41 C45 1.376 1_565 S
C42 C40 1.394 . S
C42 C43 1.369 1_655 S
C42 C46 1.531 . S
C43 C42 1.369 1_455 S
C43 C44 1.410 1_565 S
C43 C51 1.503 . S
C44 C43 1.410 1_545 S
C44 C45 1.392 . S
C44 C47 1.511 . S
C45 C41 1.376 1_545 S
C45 C44 1.392 . S
C45 H57 0.929 . S
C46 C42 1.531 . S
C46 H58 0.960 . S
C46 H59 0.962 . S
C46 H60 0.960 . S
C47 C44 1.511 . S
C47 H61 0.961 . S
C47 H62 0.961 . S
C47 H63 0.961 . S
C48 C49 1.357 1_645 S
C48 C50 1.363 . S
C48 H64 0.931 . S
C49 C48 1.357 1_465 S
C49 C53 1.426 . S
C50 C48 1.363 . S
C50 C51 1.370 1_645 S
C50 C54 1.524 . S
C51 C43 1.503 . S
C51 C50 1.370 1_465 S
C51 C52 1.403 . S
C52 C51 1.403 . S
C52 C53 1.404 . S
C52 C55 1.539 . S
C53 C49 1.426 . S
C53 C52 1.404 . S
C53 H65 0.930 . S
C54 C50 1.524 . S
C54 H66 0.956 . S
C54 H67 0.961 1_655 S
C54 H68 0.961 . S
C55 C52 1.539 . S
C55 H69 0.958 1_455 S
C55 H70 0.961 . S
C55 H71 0.960 . S
H56 C40 0.931 . S
H57 C45 0.929 . S
H58 C46 0.960 . S
H59 C46 0.962 . S
H60 C46 0.960 . S
H61 C47 0.961 . S
H62 C47 0.961 . S
H63 C47 0.961 . S
H64 C48 0.931 . S
H65 C53 0.930 . S
H66 C54 0.956 . S
H67 C54 0.961 1_455 S
H68 C54 0.961 . S
H69 C55 0.958 1_655 S
H70 C55 0.961 . S
H71 C55 0.960 . S
C72 C73 1.391 1_565 S
C72 C74 1.394 . S
C72 H88 0.931 . S
C73 C72 1.391 1_545 S
C73 C77 1.376 1_556 S
C74 C72 1.394 . S
C74 C75 1.369 1_565 S
C74 C78 1.531 . S
C75 C74 1.369 1_545 S
C75 C76 1.410 1_556 S
C75 C83 1.503 . S
C76 C75 1.410 1_554 S
C76 C77 1.392 . S
C76 C79 1.511 . S
C77 C73 1.376 1_554 S
C77 C76 1.392 . S
C77 H89 0.929 . S
C78 C74 1.531 . S
C78 H90 0.960 . S
C78 H91 0.962 . S
C78 H92 0.960 . S
C79 C76 1.511 . S
C79 H93 0.961 . S
C79 H94 0.961 . S
C79 H95 0.961 . S
C80 C81 1.370 1_564 S
C80 C82 1.363 . S
C80 H96 0.931 . S
C81 C80 1.370 1_546 S
C81 C85 1.408 . S
C82 C80 1.363 . S
C82 C83 1.370 1_564 S
C82 C86 1.524 . S
C83 C75 1.503 . S
C83 C82 1.370 1_546 S
C83 C84 1.403 . S
C84 C83 1.403 . S
C84 C85 1.404 . S
C84 C87 1.539 . S
C85 C81 1.408 . S
C85 C84 1.404 . S
C85 H97 0.930 . S
C86 C82 1.524 . S
C86 H98 0.956 . S
C86 H99 0.961 . S
C86 H100 0.961 . S
C87 C84 1.539 . S
C87 H101 0.958 . S
C87 H102 0.961 . S
C87 H103 0.960 . S
H88 C72 0.931 . S
H89 C77 0.929 . S
H90 C78 0.960 . S
H91 C78 0.962 . S
H92 C78 0.960 . S
H93 C79 0.961 . S
H94 C79 0.961 . S
H95 C79 0.961 . S
H96 C80 0.931 . S
H97 C85 0.930 . S
H98 C86 0.956 . S
H99 C86 0.961 . S
H100 C86 0.961 . S
H101 C87 0.958 . S
H102 C87 0.961 . S
H103 C87 0.960 . S
C104 C105 1.391 1_455 S
C104 C106 1.394 . S
C104 H120 0.931 . S
C105 C104 1.391 1_655 S
C105 C109 1.376 1_554 S
C106 C104 1.394 . S
C106 C107 1.369 1_455 S
C106 C110 1.531 . S
C107 C106 1.369 1_655 S
C107 C108 1.410 1_554 S
C107 C115 1.503 . S
C108 C107 1.410 1_556 S
C108 C109 1.392 . S
C108 C111 1.511 . S
C109 C105 1.376 1_556 S
C109 C108 1.392 . S
C109 H121 0.929 . S
C110 C106 1.531 . S
C110 H122 0.960 . S
C110 H123 0.962 . S
C110 H124 0.960 . S
C111 C108 1.511 . S
C111 H125 0.961 . S
C111 H126 0.961 . S
C111 H127 0.961 . S
C112 C113 1.370 1_456 S
C112 C114 1.363 . S
C112 H128 0.931 . S
C113 C112 1.370 1_654 S
C113 C117 1.408 . S
C114 C112 1.363 . S
C114 C115 1.370 1_456 S
C114 C118 1.524 . S
C115 C107 1.503 . S
C115 C114 1.370 1_654 S
C115 C116 1.403 . S
C116 C115 1.403 . S
C116 C117 1.404 . S
C116 C119 1.539 . S
C117 C113 1.408 . S
C117 C116 1.404 . S
C117 H129 0.930 . S
C118 C114 1.524 . S
C118 H130 0.956 . S
C118 H131 0.961 . S
C118 H132 0.961 . S
C119 C116 1.539 . S
C119 H133 0.958 . S
C119 H134 0.961 . S
C119 H135 0.960 . S
H120 C104 0.931 . S
H121 C109 0.929 . S
H122 C110 0.960 . S
H123 C110 0.962 . S
H124 C110 0.960 . S
H125 C111 0.961 . S
H126 C111 0.961 . S
H127 C111 0.961 . S
H128 C112 0.931 . S
H129 C117 0.930 . S
H130 C118 0.956 . S
H131 C118 0.961 . S
H132 C118 0.961 . S
H133 C119 0.958 . S
H134 C119 0.961 . S
H135 C119 0.960 . S
C41 C18 1.444 1_565 S
C49 C9 1.447 1_455 S
C73 C15 1.491 1_556 S
C81 C6 1.498 1_545 S
C105 C19 1.472 . S
C113 C10 1.494 1_654 S
