# Generated by pormake.
# Topology unc, (4)-cn, num edge types: 1
# Building blocks:
#     Node 0, Type 0, BuildingBlock: NAHDIM_clean_sbu_0, # of connection points: 4
#     Node 1, Type 0, BuildingBlock: NAHDIM_clean_sbu_0, # of connection points: 4
#     Node 2, Type 0, BuildingBlock: NAHDIM_clean_sbu_0, # of connection points: 4
#     Node 3, Type 0, BuildingBlock: NAHDIM_clean_sbu_0, # of connection points: 4
#     Edge 4, Type (0, 0), BuildingBlock: CIFDUS_clean_linker_0, # of connection points: 2
#     Edge 5, Type (0, 0), BuildingBlock: CIFDUS_clean_linker_0, # of connection points: 2
#     Edge 6, Type (0, 0), BuildingBlock: CIFDUS_clean_linker_0, # of connection points: 2
#     Edge 7, Type (0, 0), BuildingBlock: CIFDUS_clean_linker_0, # of connection points: 2
#     Edge 8, Type (0, 0), BuildingBlock: CIFDUS_clean_linker_0, # of connection points: 2
#     Edge 9, Type (0, 0), BuildingBlock: CIFDUS_clean_linker_0, # of connection points: 2
#     Edge 10, Type (0, 0), BuildingBlock: CIFDUS_clean_linker_0, # of connection points: 2
#     Edge 11, Type (0, 0), BuildingBlock: CIFDUS_clean_linker_0, # of connection points: 2
# Relax obj value: 0.112
# Max RMSD: 0.174
# Mean RMSD: 0.174
data_MOF--net-unc--node1-NAHDIM_clean_sbu_0--edge1-CIFDUS_clean_linker_0
_symmetry_space_group_name_H-M    P1
_symmetry_Int_Tables_number       1
_symmetry_cell_setting            triclinic
loop_
_symmetry_equiv_pos_as_xyz
'x, y, z'
_cell_length_a     26.177029
_cell_length_b     26.61641
_cell_length_c     18.973877
_cell_angle_alpha  89.811166
_cell_angle_beta   90.436935
_cell_angle_gamma 96.916784
loop_
_atom_site_label
_atom_site_type_symbol
_atom_site_fract_x
_atom_site_fract_y
_atom_site_fract_z
_atom_type_partial_charge
C0 C 0.93466 0.72918 0.92614 0.0
O1 O 0.97577 0.7302 0.88661 0.0
O2 O 0.02679 0.64152 0.94177 0.0
Zn3 Zn 0.99852 0.68022 0.02053 0.0
O4 O 0.0518 0.73749 0.0491 0.0
C5 C 0.96358 0.58762 0.09432 0.0
O6 O 0.95241 0.571 0.03025 0.0
O7 O 0.93492 0.70888 0.98686 0.0
C8 C 0.08537 0.7324 0.09653 0.0
O9 O 0.08533 0.68848 0.12835 0.0
C10 C 0.0565 0.60797 0.95359 0.0
O11 O 0.07022 0.59883 0.01868 0.0
O12 O 0.98194 0.6336 0.10319 0.0
C13 C 0.31539 0.13581 0.29008 0.0
O14 O 0.35321 0.13177 0.33484 0.0
O15 O 0.40037 0.04219 0.30289 0.0
Zn16 Zn 0.35299 0.05007 0.22031 0.0
O17 O 0.30504 0.98657 0.20183 0.0
C18 C 0.43198 0.03731 0.12442 0.0
O19 O 0.43813 0.00149 0.17042 0.0
O20 O 0.30937 0.10607 0.23761 0.0
C21 C 0.27368 0.98894 0.1508 0.0
O22 O 0.27515 0.03136 0.11484 0.0
C23 C 0.40596 0.00043 0.33297 0.0
O24 O 0.37797 0.95884 0.31186 0.0
O25 O 0.39644 0.06506 0.13414 0.0
C26 C 0.11761 0.31548 0.4354 0.0
O27 O 0.07647 0.31344 0.39491 0.0
O28 O 0.02727 0.40643 0.44247 0.0
Zn29 Zn 0.05397 0.36757 0.52331 0.0
O30 O 0.00022 0.3103 0.54927 0.0
C31 C 0.0888 0.45972 0.5975 0.0
O32 O 0.10094 0.47613 0.5337 0.0
O33 O 0.11771 0.33813 0.49424 0.0
C34 C 0.96635 0.3143 0.59588 0.0
O35 O 0.96603 0.35752 0.62903 0.0
C36 C 0.99734 0.43988 0.45281 0.0
O37 O 0.98278 0.4487 0.51724 0.0
O38 O 0.06958 0.41397 0.60622 0.0
C39 C 0.73405 0.90167 0.76546 0.0
O40 O 0.69474 0.90359 0.80758 0.0
O41 O 0.66436 0.00117 0.80072 0.0
Zn42 Zn 0.70099 -0.00619 0.70961 0.0
O43 O 0.74975 0.05644 0.69056 0.0
C44 C 0.61475 0.94743 0.62464 0.0
O45 O 0.61518 0.90896 0.6681 0.0
O46 O 0.74255 0.93486 0.71725 0.0
C47 C 0.78071 0.05518 0.63952 0.0
O48 O 0.77909 0.01356 0.60206 0.0
C49 C 0.62756 0.02795 0.80585 0.0
O50 O 0.61417 0.05332 0.75055 0.0
O51 O 0.64844 0.98567 0.6316 0.0
H52 H 0.9573 0.60893 0.23345 0.0
H53 H 0.96856 0.48617 0.08865 0.0
H54 H 0.9782 0.42878 0.18729 0.0
H55 H 0.98963 0.41509 0.31443 0.0
H56 H 0.97436 0.53673 0.45951 0.0
H57 H 0.95979 0.59293 0.36112 0.0
C58 C 0.96131 0.56947 0.22364 0.0
C59 C 0.96265 0.55187 0.15401 0.0
C60 C 0.96642 0.53661 0.28057 0.0
C61 C 0.96728 0.50058 0.14186 0.0
C62 C 0.9731 0.4678 0.19819 0.0
C63 C 0.98271 0.45381 0.32437 0.0
C64 C 0.98356 0.47198 0.39385 0.0
C65 C 0.97371 0.48566 0.26768 0.0
C66 C 0.97383 0.52193 0.40635 0.0
C67 C 0.96571 0.55412 0.35016 0.0
H68 H 0.42814 0.91852 0.40921 0.0
H69 H 0.47501 0.07835 0.37933 0.0
H70 H 0.54408 0.07548 0.4654 0.0
H71 H 0.59163 0.028 0.54835 0.0
H72 H 0.54457 0.86869 0.58138 0.0
H73 H 0.47525 0.871 0.4946 0.0
C74 C 0.45336 0.95275 0.42167 0.0
C75 C 0.44635 -0.00146 0.38765 0.0
C76 C 0.49314 0.95094 0.4715 0.0
C77 C 0.47939 0.04256 0.40463 0.0
C78 C 0.51905 0.04099 0.45378 0.0
C79 C 0.56642 -0.00635 0.5364 0.0
C80 C 0.57348 0.94817 0.57102 0.0
C81 C 0.5264 -0.00461 0.48726 0.0
C82 C 0.54004 0.90419 0.5554 0.0
C83 C 0.50036 0.9055 0.50583 0.0
H84 H 0.06528 0.63286 0.81535 0.0
H85 H 0.07865 0.51083 0.96193 0.0
H86 H 0.09257 0.45436 0.86439 0.0
H87 H 0.0947 0.43826 0.7369 0.0
H88 H 0.08526 0.56136 0.59072 0.0
H89 H 0.07658 0.61903 0.68864 0.0
C90 C 0.0717 0.59401 0.82582 0.0
C91 C 0.07045 0.5758 0.89543 0.0
C92 C 0.08025 0.56199 0.76964 0.0
C93 C 0.07951 0.52566 0.90865 0.0
C94 C 0.08723 0.49332 0.85294 0.0
C95 C 0.09128 0.47785 0.72666 0.0
C96 C 0.09015 0.49549 0.65685 0.0
C97 C 0.08676 0.51085 0.78318 0.0
C98 C 0.08633 0.54693 0.6441 0.0
C99 C 0.08108 0.57986 0.70001 0.0
H100 H 0.51706 -0.00801 0.09848 0.0
H101 H 0.42159 0.09779 0.0094 0.0
H102 H 0.47485 0.10567 0.90369 0.0
H103 H 0.54681 0.0801 0.83504 0.0
H104 H 0.64193 0.97436 0.92556 0.0
H105 H 0.59053 0.96915 0.03237 0.0
C106 C 0.50788 0.01688 0.05605 0.0
C107 C 0.46523 0.04399 0.06164 0.0
C108 C 0.53859 0.02124 -0.00437 0.0
C109 C 0.45419 0.07641 0.00639 0.0
C110 C 0.48458 0.08089 0.94588 0.0
C111 C 0.55646 0.05613 0.87826 0.0
C112 C 0.59803 0.02751 0.87205 0.0
C113 C 0.52663 0.05314 0.9397 0.0
C114 C 0.61011 -0.00324 0.92874 0.0
C115 C 0.58068 -0.00635 0.9899 0.0
H116 H 0.26151 0.89533 0.2118 0.0
H117 H 0.20024 0.98428 0.04779 0.0
H118 H 0.13682 0.91299 0.01686 0.0
H119 H 0.09846 0.8257 0.03621 0.0
H120 H 0.15947 0.736 0.19946 0.0
H121 H 0.2232 0.80731 0.23072 0.0
C122 C 0.23429 0.89911 0.16929 0.0
C123 C 0.23566 0.94515 0.13227 0.0
C124 C 0.19782 0.85786 0.15158 0.0
C125 C 0.20014 0.94934 0.07723 0.0
C126 C 0.16377 0.90857 0.05945 0.0
C127 C 0.12564 0.82166 0.07869 0.0
C128 C 0.12409 0.77555 0.11545 0.0
C129 C 0.16223 0.86271 0.09629 0.0
C130 C 0.15976 0.77105 0.17023 0.0
C131 C 0.19625 0.81183 0.18818 0.0
H132 H 0.31226 0.19921 0.40193 0.0
H133 H 0.23273 0.15246 0.20842 0.0
H134 H 0.16609 0.20604 0.23469 0.0
H135 H 0.12782 0.26234 0.31542 0.0
H136 H 0.20635 0.30828 0.50987 0.0
H137 H 0.27603 0.25904 0.48005 0.0
C138 C 0.28059 0.20102 0.36519 0.0
C139 C 0.27741 0.17155 0.30354 0.0
C140 C 0.24204 0.2316 0.38088 0.0
C141 C 0.23611 0.17453 0.25645 0.0
C142 C 0.19788 0.20513 0.27144 0.0
C143 C 0.16031 0.2619 0.35114 0.0
C144 C 0.16161 0.28869 0.41501 0.0
C145 C 0.20005 0.23321 0.33398 0.0
C146 C 0.2042 0.28784 0.46046 0.0
C147 C 0.24408 0.25963 0.44351 0.0
H148 H 0.79166 0.14765 0.70284 0.0
H149 H 0.85447 0.06236 0.53809 0.0
H150 H 0.91716 0.13489 0.51026 0.0
H151 H 0.95444 0.22218 0.53269 0.0
H152 H 0.89173 0.30809 0.69675 0.0
H153 H 0.82871 0.23558 0.72471 0.0
C154 C 0.81905 0.14491 0.66084 0.0
C155 C 0.81834 0.09956 0.6227 0.0
C156 C 0.85504 0.18684 0.64493 0.0
C157 C 0.85407 0.09675 0.56833 0.0
C158 C 0.89001 0.13822 0.55234 0.0
C159 C 0.92703 0.22513 0.57461 0.0
C160 C 0.9279 0.27053 0.61261 0.0
C161 C 0.89088 0.1834 0.59033 0.0
C162 C 0.89195 0.27363 0.66662 0.0
C163 C 0.85589 0.23216 0.68269 0.0
H164 H 0.73603 0.83762 0.87707 0.0
H165 H 0.8179 0.88586 0.6872 0.0
H166 H 0.88574 0.83419 0.71831 0.0
H167 H 0.92471 0.78022 0.80334 0.0
H168 H 0.84398 0.73407 -0.00511 0.0
H169 H 0.77276 0.77996 0.95894 0.0
C170 C 0.76838 0.83641 0.842 0.0
C171 C 0.77197 0.86585 0.7801 0.0
C172 C 0.80771 0.80733 0.86079 0.0
C173 C 0.81423 0.86377 0.73535 0.0
C174 C 0.85314 0.83432 0.75317 0.0
C175 C 0.8914 0.77986 0.83706 0.0
C176 C 0.88995 0.75404 0.902 0.0
C177 C 0.85078 0.80676 0.81644 0.0
C178 C 0.84632 0.75385 0.94482 0.0
C179 C 0.80553 0.7801 0.92432 0.0
loop_
_geom_bond_atom_site_label_1
_geom_bond_atom_site_label_2
_geom_bond_distance
_geom_bond_site_symmetry_2
_ccdc_geom_bond_type
C0 O1 1.160 . S
C0 O7 1.185 1_556 S
O1 C0 1.160 . S
O2 Zn3 1.899 1_656 S
O2 C10 1.284 1_655 S
Zn3 O2 1.899 1_454 S
Zn3 O4 2.032 . S
Zn3 O7 2.086 1_455 S
Zn3 O12 1.977 1_455 S
O4 Zn3 2.032 . S
O4 C8 1.278 . S
C5 O6 1.203 . S
C5 O12 1.267 1_455 S
O6 C5 1.203 . S
O7 C0 1.185 1_554 S
O7 Zn3 2.086 1_655 S
C8 O4 1.278 . S
C8 O9 1.211 . S
O9 C8 1.211 . S
C10 O2 1.284 1_455 S
C10 O11 1.273 . S
O11 C10 1.273 . S
O12 Zn3 1.977 1_655 S
O12 C5 1.267 1_655 S
C13 O14 1.160 . S
C13 O20 1.185 . S
O14 C13 1.160 . S
O15 Zn16 1.899 . S
O15 C23 1.284 . S
Zn16 O15 1.899 . S
Zn16 O17 2.032 1_545 S
Zn16 O20 2.086 . S
Zn16 O25 1.977 . S
O17 Zn16 2.032 1_565 S
O17 C21 1.278 . S
C18 O19 1.203 . S
C18 O25 1.267 . S
O19 C18 1.203 . S
O20 C13 1.185 . S
O20 Zn16 2.086 . S
C21 O17 1.278 . S
C21 O22 1.211 . S
O22 C21 1.211 . S
C23 O15 1.284 . S
C23 O24 1.273 1_545 S
O24 C23 1.273 1_565 S
O25 Zn16 1.977 . S
O25 C18 1.267 . S
C26 O27 1.160 . S
C26 O33 1.185 . S
O27 C26 1.160 . S
O28 Zn29 1.899 . S
O28 C36 1.284 . S
Zn29 O28 1.899 . S
Zn29 O30 2.032 1_455 S
Zn29 O33 2.086 . S
Zn29 O38 1.977 . S
O30 Zn29 2.032 1_655 S
O30 C34 1.278 . S
C31 O32 1.203 . S
C31 O38 1.267 . S
O32 C31 1.203 . S
O33 C26 1.185 . S
O33 Zn29 2.086 . S
C34 O30 1.278 . S
C34 O35 1.211 . S
O35 C34 1.211 . S
C36 O28 1.284 . S
C36 O37 1.273 1_455 S
O37 C36 1.273 1_655 S
O38 Zn29 1.977 . S
O38 C31 1.267 . S
C39 O40 1.160 . S
C39 O46 1.185 . S
O40 C39 1.160 . S
O41 Zn42 1.899 1_565 S
O41 C49 1.284 1_565 S
Zn42 O41 1.899 1_545 S
Zn42 O43 2.032 . S
Zn42 O46 2.086 1_545 S
Zn42 O51 1.977 1_545 S
O43 Zn42 2.032 . S
O43 C47 1.278 . S
C44 O45 1.203 . S
C44 O51 1.267 1_545 S
O45 C44 1.203 . S
O46 C39 1.185 . S
O46 Zn42 2.086 1_565 S
C47 O43 1.278 . S
C47 O48 1.211 . S
O48 C47 1.211 . S
C49 O41 1.284 1_545 S
C49 O50 1.273 . S
O50 C49 1.273 . S
O51 Zn42 1.977 1_565 S
O51 C44 1.267 1_565 S
H52 C58 0.930 . S
H53 C61 0.930 . S
H54 C62 0.930 . S
H55 C63 0.930 . S
H56 C66 0.930 . S
H57 C67 0.930 . S
C58 H52 0.930 . S
C58 C59 1.355 1_655 S
C58 C60 1.415 . S
C59 C58 1.355 1_455 S
C59 C61 1.419 . S
C60 C58 1.415 . S
C60 C65 1.425 1_655 S
C60 C67 1.409 . S
C61 H53 0.930 . S
C61 C59 1.419 . S
C61 C62 1.362 . S
C62 H54 0.930 . S
C62 C61 1.362 . S
C62 C65 1.409 . S
C63 H55 0.930 . S
C63 C64 1.355 . S
C63 C65 1.415 . S
C64 C63 1.355 . S
C64 C66 1.419 1_455 S
C65 C60 1.425 1_455 S
C65 C62 1.409 . S
C65 C63 1.415 . S
C66 H56 0.930 . S
C66 C64 1.419 1_655 S
C66 C67 1.362 . S
C67 H57 0.930 . S
C67 C60 1.409 . S
C67 C66 1.362 . S
H68 C74 0.930 1_565 S
H69 C77 0.930 . S
H70 C78 0.930 . S
H71 C79 0.930 . S
H72 C82 0.930 . S
H73 C83 0.930 . S
C74 H68 0.930 1_545 S
C74 C75 1.355 . S
C74 C76 1.415 1_545 S
C75 C74 1.355 . S
C75 C77 1.419 . S
C76 C74 1.415 1_565 S
C76 C81 1.425 1_565 S
C76 C83 1.409 . S
C77 H69 0.930 . S
C77 C75 1.419 . S
C77 C78 1.362 . S
C78 H70 0.930 . S
C78 C77 1.362 . S
C78 C81 1.409 . S
C79 H71 0.930 . S
C79 C80 1.355 1_545 S
C79 C81 1.415 . S
C80 C79 1.355 1_565 S
C80 C82 1.419 . S
C81 C76 1.425 1_545 S
C81 C78 1.409 . S
C81 C79 1.415 . S
C82 H72 0.930 . S
C82 C80 1.419 . S
C82 C83 1.362 . S
C83 H73 0.930 . S
C83 C76 1.409 . S
C83 C82 1.362 . S
H84 C90 0.930 1_655 S
H85 C93 0.930 . S
H86 C94 0.930 . S
H87 C95 0.930 . S
H88 C98 0.930 . S
H89 C99 0.930 1_655 S
C90 H84 0.930 1_455 S
C90 C91 1.355 . S
C90 C92 1.415 . S
C91 C90 1.355 . S
C91 C93 1.419 . S
C92 C90 1.415 . S
C92 C97 1.425 . S
C92 C99 1.409 . S
C93 H85 0.930 . S
C93 C91 1.419 . S
C93 C94 1.362 . S
C94 H86 0.930 . S
C94 C93 1.362 . S
C94 C97 1.409 . S
C95 H87 0.930 . S
C95 C96 1.355 . S
C95 C97 1.415 . S
C96 C95 1.355 . S
C96 C98 1.419 . S
C97 C92 1.425 . S
C97 C94 1.409 . S
C97 C95 1.415 . S
C98 H88 0.930 . S
C98 C96 1.419 . S
C98 C99 1.362 . S
C99 H89 0.930 1_455 S
C99 C92 1.409 . S
C99 C98 1.362 . S
H100 C106 0.930 . S
H101 C109 0.930 . S
H102 C110 0.930 . S
H103 C111 0.930 . S
H104 C114 0.930 . S
H105 C115 0.930 . S
C106 H100 0.930 . S
C106 C107 1.355 . S
C106 C108 1.415 . S
C107 C106 1.355 . S
C107 C109 1.419 . S
C108 C106 1.415 . S
C108 C113 1.425 1_554 S
C108 C115 1.409 . S
C109 H101 0.930 . S
C109 C107 1.419 . S
C109 C110 1.362 1_554 S
C110 H102 0.930 . S
C110 C109 1.362 1_556 S
C110 C113 1.409 . S
C111 H103 0.930 . S
C111 C112 1.355 . S
C111 C113 1.415 . S
C112 C111 1.355 . S
C112 C114 1.419 . S
C113 C108 1.425 1_556 S
C113 C110 1.409 . S
C113 C111 1.415 . S
C114 H104 0.930 . S
C114 C112 1.419 . S
C114 C115 1.362 1_556 S
C115 H105 0.930 . S
C115 C108 1.409 . S
C115 C114 1.362 1_554 S
H116 C122 0.930 . S
H117 C125 0.930 . S
H118 C126 0.930 . S
H119 C127 0.930 1_556 S
H120 C130 0.930 . S
H121 C131 0.930 . S
C122 H116 0.930 . S
C122 C123 1.355 . S
C122 C124 1.415 . S
C123 C122 1.355 . S
C123 C125 1.419 . S
C124 C122 1.415 . S
C124 C129 1.425 . S
C124 C131 1.409 . S
C125 H117 0.930 . S
C125 C123 1.419 . S
C125 C126 1.362 . S
C126 H118 0.930 . S
C126 C125 1.362 . S
C126 C129 1.409 . S
C127 H119 0.930 1_554 S
C127 C128 1.355 . S
C127 C129 1.415 . S
C128 C127 1.355 . S
C128 C130 1.419 . S
C129 C124 1.425 . S
C129 C126 1.409 . S
C129 C127 1.415 . S
C130 H120 0.930 . S
C130 C128 1.419 . S
C130 C131 1.362 . S
C131 H121 0.930 . S
C131 C124 1.409 . S
C131 C130 1.362 . S
H132 C138 0.930 . S
H133 C141 0.930 . S
H134 C142 0.930 . S
H135 C143 0.930 . S
H136 C146 0.930 . S
H137 C147 0.930 . S
C138 H132 0.930 . S
C138 C139 1.355 . S
C138 C140 1.415 . S
C139 C138 1.355 . S
C139 C141 1.419 . S
C140 C138 1.415 . S
C140 C145 1.425 . S
C140 C147 1.409 . S
C141 H133 0.930 . S
C141 C139 1.419 . S
C141 C142 1.362 . S
C142 H134 0.930 . S
C142 C141 1.362 . S
C142 C145 1.409 . S
C143 H135 0.930 . S
C143 C144 1.355 . S
C143 C145 1.415 . S
C144 C143 1.355 . S
C144 C146 1.419 . S
C145 C140 1.425 . S
C145 C142 1.409 . S
C145 C143 1.415 . S
C146 H136 0.930 . S
C146 C144 1.419 . S
C146 C147 1.362 . S
C147 H137 0.930 . S
C147 C140 1.409 . S
C147 C146 1.362 . S
H148 C154 0.930 . S
H149 C157 0.930 . S
H150 C158 0.930 . S
H151 C159 0.930 . S
H152 C162 0.930 . S
H153 C163 0.930 . S
C154 H148 0.930 . S
C154 C155 1.355 . S
C154 C156 1.415 . S
C155 C154 1.355 . S
C155 C157 1.419 . S
C156 C154 1.415 . S
C156 C161 1.425 . S
C156 C163 1.409 . S
C157 H149 0.930 . S
C157 C155 1.419 . S
C157 C158 1.362 . S
C158 H150 0.930 . S
C158 C157 1.362 . S
C158 C161 1.409 . S
C159 H151 0.930 . S
C159 C160 1.355 . S
C159 C161 1.415 . S
C160 C159 1.355 . S
C160 C162 1.419 . S
C161 C156 1.425 . S
C161 C158 1.409 . S
C161 C159 1.415 . S
C162 H152 0.930 . S
C162 C160 1.419 . S
C162 C163 1.362 . S
C163 H153 0.930 . S
C163 C156 1.409 . S
C163 C162 1.362 . S
H164 C170 0.930 . S
H165 C173 0.930 . S
H166 C174 0.930 . S
H167 C175 0.930 . S
H168 C178 0.930 1_554 S
H169 C179 0.930 . S
C170 H164 0.930 . S
C170 C171 1.355 . S
C170 C172 1.415 . S
C171 C170 1.355 . S
C171 C173 1.419 . S
C172 C170 1.415 . S
C172 C177 1.425 . S
C172 C179 1.409 . S
C173 H165 0.930 . S
C173 C171 1.419 . S
C173 C174 1.362 . S
C174 H166 0.930 . S
C174 C173 1.362 . S
C174 C177 1.409 . S
C175 H167 0.930 . S
C175 C176 1.355 . S
C175 C177 1.415 . S
C176 C175 1.355 . S
C176 C178 1.419 . S
C177 C172 1.425 . S
C177 C174 1.409 . S
C177 C175 1.415 . S
C178 H168 0.930 1_556 S
C178 C176 1.419 . S
C178 C179 1.362 . S
C179 H169 0.930 . S
C179 C172 1.409 . S
C179 C178 1.362 . S
C59 C5 1.091 . S
C64 C36 1.169 . S
C75 C23 1.183 . S
C80 C44 1.125 1_565 S
C91 C10 1.173 . S
C96 C31 1.089 . S
C107 C18 1.181 . S
C112 C49 1.188 . S
C123 C21 1.412 . S
C128 C8 1.417 . S
C139 C13 1.449 . S
C144 C26 1.446 . S
C155 C47 1.414 . S
C160 C34 1.412 . S
C171 C39 1.470 . S
C176 C0 1.468 . S
