# Generated by pormake.
# Topology oof, (8)-cn, num edge types: 1
# Building blocks:
#     Node 0, Type 0, BuildingBlock: TAGTUT_clean_sbu_3, # of connection points: 8
#     Node 1, Type 0, BuildingBlock: TAGTUT_clean_sbu_3, # of connection points: 8
#     Node 2, Type 0, BuildingBlock: TAGTUT_clean_sbu_3, # of connection points: 8
#     Node 3, Type 0, BuildingBlock: TAGTUT_clean_sbu_3, # of connection points: 8
#     Edge 4, Type (0, 0), BuildingBlock: EYOCIG_clean_linker_4, # of connection points: 2
#     Edge 5, Type (0, 0), BuildingBlock: EYOCIG_clean_linker_4, # of connection points: 2
#     Edge 6, Type (0, 0), BuildingBlock: EYOCIG_clean_linker_4, # of connection points: 2
#     Edge 7, Type (0, 0), BuildingBlock: EYOCIG_clean_linker_4, # of connection points: 2
#     Edge 8, Type (0, 0), BuildingBlock: EYOCIG_clean_linker_4, # of connection points: 2
#     Edge 9, Type (0, 0), BuildingBlock: EYOCIG_clean_linker_4, # of connection points: 2
#     Edge 10, Type (0, 0), BuildingBlock: EYOCIG_clean_linker_4, # of connection points: 2
#     Edge 11, Type (0, 0), BuildingBlock: EYOCIG_clean_linker_4, # of connection points: 2
#     Edge 12, Type (0, 0), BuildingBlock: EYOCIG_clean_linker_4, # of connection points: 2
#     Edge 13, Type (0, 0), BuildingBlock: EYOCIG_clean_linker_4, # of connection points: 2
#     Edge 14, Type (0, 0), BuildingBlock: EYOCIG_clean_linker_4, # of connection points: 2
#     Edge 15, Type (0, 0), BuildingBlock: EYOCIG_clean_linker_4, # of connection points: 2
#     Edge 16, Type (0, 0), BuildingBlock: EYOCIG_clean_linker_4, # of connection points: 2
#     Edge 17, Type (0, 0), BuildingBlock: EYOCIG_clean_linker_4, # of connection points: 2
#     Edge 18, Type (0, 0), BuildingBlock: EYOCIG_clean_linker_4, # of connection points: 2
#     Edge 19, Type (0, 0), BuildingBlock: EYOCIG_clean_linker_4, # of connection points: 2
# Relax obj value: 0.059
# Max RMSD: 0.151
# Mean RMSD: 0.151
data_MOF--net-oof--node1-TAGTUT_clean_sbu_3--edge1-EYOCIG_clean_linker_4
_symmetry_space_group_name_H-M    P1
_symmetry_Int_Tables_number       1
_symmetry_cell_setting            triclinic
loop_
_symmetry_equiv_pos_as_xyz
'x, y, z'
_cell_length_a     13.027566
_cell_length_b     55.886522
_cell_length_c     12.676212
_cell_angle_alpha  89.993058
_cell_angle_beta   88.775673
_cell_angle_gamma 89.999966
loop_
_atom_site_label
_atom_site_type_symbol
_atom_site_fract_x
_atom_site_fract_y
_atom_site_fract_z
_atom_type_partial_charge
C0 C 0.20794 0.12959 0.20994 0.0
C1 C 0.05028 0.2123 0.29842 0.0
C2 C 0.79722 0.18771 0.10995 0.0
Mg3 Mg 0.10141 0.07854 0.17326 0.0
Mg4 Mg 0.86741 0.06405 0.25568 0.0
O5 O 0.95101 0.08621 0.18677 0.0
Mg6 Mg 0.96088 0.1209 0.22926 0.0
O7 O -0.0178 0.15549 0.26066 0.0
Mg8 Mg 0.04028 0.16696 0.12205 0.0
Mg9 Mg 0.8787 0.17385 0.32582 0.0
C10 C 0.70949 0.10679 0.23674 0.0
O11 O 0.94069 0.11626 0.40969 0.0
O12 O 0.05997 0.04116 0.11035 0.0
O13 O 0.8616 0.15044 0.46315 0.0
O14 O 0.10133 0.05936 0.33785 0.0
O15 O 0.8988 0.03201 0.16417 0.0
O16 O 0.93907 0.05747 0.40018 0.0
O17 O -0.01264 0.12943 0.05484 0.0
O18 O 0.08105 0.097 0.01088 0.0
C19 C 0.03288 0.11618 -0.0143 0.0
C20 C -0.01612 0.0267 0.11732 0.0
O21 O 0.781 0.12248 0.22145 0.0
O22 O 0.08415 0.20221 0.21315 0.0
O23 O 0.72671 0.08458 0.25467 0.0
O24 O 0.88805 0.1838 0.07496 0.0
O25 O -0.02654 0.20443 0.35226 0.0
O26 O 0.76943 0.18305 0.20508 0.0
O27 O 0.13404 0.1159 0.23924 0.0
O28 O 0.19154 0.14992 0.16808 0.0
C29 C 0.03432 0.05297 0.40809 0.0
C30 C 0.90135 0.12985 0.48184 0.0
C31 C 0.03377 0.85729 0.48478 0.0
C32 C -0.0157 0.94685 0.61848 0.0
C33 C 0.03555 0.9203 0.9079 0.0
Mg34 Mg 0.04124 0.80654 0.62082 0.0
Mg35 Mg 0.87983 0.79956 0.82467 0.0
O36 O -0.01672 0.81796 0.75958 0.0
Mg37 Mg 0.9618 0.85256 0.72843 0.0
O38 O 0.95159 0.88725 0.68604 0.0
Mg39 Mg 0.10198 0.89497 0.67231 0.0
Mg40 Mg 0.86848 0.90926 0.75662 0.0
C41 C 0.90226 0.84351 -0.01906 0.0
O42 O 0.78196 0.85093 0.72065 0.0
O43 O 0.08531 0.77127 0.71175 0.0
O44 O 0.7277 0.88877 0.75506 0.0
O45 O 0.88907 0.78966 0.5737 0.0
O46 O -0.0252 0.76901 0.85101 0.0
O47 O 0.77058 0.79031 0.70395 0.0
O48 O 0.13513 0.85763 0.73844 0.0
O49 O 0.1923 0.8236 0.66693 0.0
C50 C 0.20884 0.8439 0.70892 0.0
C51 C 0.0516 0.76116 0.79707 0.0
O52 O 0.94159 0.85713 0.90887 0.0
O53 O 0.06014 0.93235 0.60978 0.0
O54 O 0.86257 0.82293 0.96213 0.0
O55 O 0.10212 0.91419 0.83676 0.0
O56 O 0.89985 0.94151 0.6665 0.0
O57 O 0.94062 0.91534 0.9013 0.0
O58 O -0.01174 0.84412 0.55419 0.0
O59 O 0.0818 0.8765 0.50975 0.0
C60 C 0.79832 0.78568 0.60876 0.0
C61 C 0.71045 0.86659 0.73643 0.0
C62 C 0.53452 0.6157 -0.01479 0.0
C63 C 0.4861 0.52614 0.12225 0.0
C64 C 0.53736 0.55338 0.41025 0.0
Mg65 Mg 0.54165 0.66654 0.1207 0.0
Mg66 Mg 0.38025 0.67352 0.32468 0.0
O67 O 0.48382 0.65516 0.25959 0.0
Mg68 Mg 0.46257 0.62055 0.22879 0.0
O69 O 0.45249 0.58583 0.18682 0.0
Mg70 Mg 0.60307 0.57821 0.17345 0.0
Mg71 Mg 0.37002 0.56397 0.25917 0.0
C72 C 0.40313 0.62964 0.48131 0.0
O73 O 0.28269 0.62211 0.22106 0.0
O74 O 0.58548 0.70186 0.21139 0.0
O75 O 0.22879 0.5843 0.25675 0.0
O76 O 0.38929 0.68336 0.07363 0.0
O77 O 0.47506 0.70409 0.35074 0.0
O78 O 0.2709 0.68274 0.20398 0.0
O79 O 0.63596 0.61559 0.23873 0.0
O80 O 0.693 0.64958 0.16677 0.0
C81 C 0.70964 0.6293 0.20898 0.0
C82 C 0.55176 0.71196 0.29669 0.0
O83 O 0.44252 0.61603 0.40927 0.0
O84 O 0.56156 0.54071 0.11209 0.0
O85 O 0.36325 0.6502 0.46242 0.0
O86 O 0.60358 0.55923 0.33835 0.0
O87 O 0.40197 0.53148 0.17088 0.0
O88 O 0.44256 0.55852 0.40413 0.0
O89 O 0.48894 0.6289 0.05444 0.0
O90 O 0.58262 0.59651 0.01045 0.0
C91 C 0.29855 0.68735 0.10874 0.0
C92 C 0.21131 0.60644 0.23732 0.0
C93 C 0.53356 0.35759 0.48663 0.0
C94 C 0.48461 0.447 0.61926 0.0
C95 C 0.53525 0.42045 0.90998 0.0
Mg96 Mg 0.54044 0.30678 0.62209 0.0
Mg97 Mg 0.37908 0.29979 0.82608 0.0
O98 O 0.48269 0.31815 0.76104 0.0
Mg99 Mg 0.46153 0.35276 0.73026 0.0
O100 O 0.45174 0.38747 0.68826 0.0
Mg101 Mg 0.60211 0.39511 0.67464 0.0
Mg102 Mg 0.36804 0.40961 0.75717 0.0
C103 C 0.40211 0.34366 -0.01722 0.0
O104 O 0.28166 0.35121 0.72243 0.0
O105 O 0.58418 0.27145 0.71256 0.0
O106 O 0.22729 0.38908 0.75598 0.0
O107 O 0.38802 0.29001 0.57499 0.0
O108 O 0.47379 0.26919 0.85193 0.0
O109 O 0.26966 0.29065 0.70536 0.0
O110 O 0.63492 0.35772 0.74024 0.0
O111 O 0.6918 0.32372 0.66825 0.0
C112 C 0.70853 0.34399 0.71051 0.0
C113 C 0.55044 0.26133 0.79781 0.0
O114 O 0.44146 0.35728 0.91075 0.0
O115 O 0.5607 0.43254 0.61234 0.0
O116 O 0.36225 0.32309 0.96387 0.0
O117 O 0.60222 0.41406 0.8397 0.0
O118 O 0.39941 0.44167 0.66581 0.0
O119 O 0.43983 0.41621 0.90159 0.0
O120 O 0.48789 0.34443 0.55592 0.0
O121 O 0.58179 0.37677 0.51176 0.0
C122 C 0.29727 0.28606 0.61011 0.0
C123 C 0.21011 0.36688 0.73783 0.0
C124 C -0.02255 0.12031 0.787 0.0
C125 C 0.00244 0.11854 0.87783 0.0
C126 C 0.94519 0.12183 0.68133 0.0
C127 C 0.92643 0.12488 0.58949 0.0
C128 C -0.02174 0.85305 0.28615 0.0
C129 C 0.00326 0.85486 0.37696 0.0
C130 C 0.94601 0.85151 0.18048 0.0
C131 C 0.92727 0.84846 0.08863 0.0
C132 C 0.47924 0.61996 0.78648 0.0
C133 C 0.50421 0.6181 0.8773 0.0
C134 C 0.44695 0.62158 0.68083 0.0
C135 C 0.42812 0.62469 0.58903 0.0
C136 C 0.44597 0.35169 0.18229 0.0
C137 C 0.42712 0.34859 0.09049 0.0
C138 C 0.47828 0.35331 0.28792 0.0
C139 C 0.50326 0.35518 0.37873 0.0
C140 C 0.51212 0.11696 0.23058 0.0
C141 C 0.60374 0.11389 0.2321 0.0
C142 C 0.40417 0.11929 0.22763 0.0
C143 C 0.3128 0.12245 0.22266 0.0
C144 C 0.51309 0.85645 0.72974 0.0
C145 C 0.60471 0.85951 0.73145 0.0
C146 C 0.40515 0.85413 0.72664 0.0
C147 C 0.31377 0.85099 0.72165 0.0
C148 C 0.90596 0.619 0.22667 0.0
C149 C 0.81461 0.62221 0.22164 0.0
C150 C 0.01388 0.61657 0.22997 0.0
C151 C 0.10549 0.61346 0.23197 0.0
C152 C 0.90488 0.35422 0.72824 0.0
C153 C 0.81351 0.35104 0.7232 0.0
C154 C 0.01279 0.35663 0.73135 0.0
C155 C 0.10438 0.35977 0.73302 0.0
C156 C 0.18465 0.26279 0.47376 0.0
C157 C 0.22964 0.27347 0.54142 0.0
C158 C 0.14193 0.24734 0.39801 0.0
C159 C 0.10655 0.2316 0.34469 0.0
C160 C 0.64209 0.22629 0.89729 0.0
C161 C 0.60678 0.24202 0.84388 0.0
C162 C 0.68469 0.21088 0.97328 0.0
C163 C 0.72958 0.20024 0.04111 0.0
C164 C 0.64341 0.74698 0.3963 0.0
C165 C 0.6081 0.73126 0.34285 0.0
C166 C 0.68596 0.76241 0.47224 0.0
C167 C 0.7308 0.77309 0.53999 0.0
C168 C 0.1861 0.71068 0.97242 0.0
C169 C 0.23103 0.69997 0.04005 0.0
C170 C 0.14341 0.72614 0.89665 0.0
C171 C 0.10798 0.74187 0.84329 0.0
C172 C 0.02294 0.98234 0.05772 0.0
C173 C 0.0018 0.00237 0.0859 0.0
C174 C 0.04779 0.95927 0.01979 0.0
C175 C 0.05677 0.94114 0.96915 0.0
C176 C 0.04775 0.01436 0.52186 0.0
C177 C 0.05665 0.03242 0.47072 0.0
C178 C 0.023 -0.00871 0.55984 0.0
C179 C 0.00202 0.97122 0.58765 0.0
C180 C 0.52497 0.48166 0.06455 0.0
C181 C 0.50392 0.50175 0.09198 0.0
C182 C 0.54967 0.45863 0.02613 0.0
C183 C 0.55837 0.4407 0.97406 0.0
C184 C 0.524 0.49138 0.56021 0.0
C185 C 0.50265 0.47134 0.58815 0.0
C186 C 0.54909 0.51444 0.52235 0.0
C187 C 0.55821 0.53253 0.47152 0.0
loop_
_geom_bond_atom_site_label_1
_geom_bond_atom_site_label_2
_geom_bond_distance
_geom_bond_site_symmetry_2
_ccdc_geom_bond_type
C0 O27 1.312 . S
C0 O28 1.208 . S
C1 O22 1.331 . S
C1 O25 1.244 . S
C2 O24 1.264 . S
C2 O26 1.273 . S
Mg3 O5 1.936 1_455 S
Mg3 O12 2.081 . S
Mg3 O14 2.023 . S
Mg3 O18 2.031 . S
Mg3 O27 2.291 . S
Mg4 O5 1.963 . S
Mg4 O15 1.942 . S
Mg4 O16 1.955 . S
Mg4 O23 1.986 . S
O5 Mg3 1.936 1_655 S
O5 Mg4 1.963 . S
O5 Mg6 1.915 . S
Mg6 O5 1.915 . S
Mg6 O7 1.915 1_655 S
Mg6 O11 2.013 . S
Mg6 O17 2.114 1_655 S
Mg6 O21 2.013 . S
Mg6 O27 2.114 1_655 S
O7 Mg6 1.915 1_455 S
O7 Mg8 1.936 . S
O7 Mg9 1.963 1_455 S
Mg8 O7 1.936 . S
Mg8 O17 2.291 . S
Mg8 O22 2.081 . S
Mg8 O24 2.023 1_455 S
Mg8 O28 2.031 . S
Mg9 O7 1.963 1_655 S
Mg9 O13 1.986 . S
Mg9 O25 1.942 1_655 S
Mg9 O26 1.955 . S
C10 O21 1.191 . S
C10 O23 1.307 . S
O11 Mg6 2.013 . S
O11 C30 1.191 . S
O12 Mg3 2.081 . S
O12 C20 1.331 1_455 S
O13 Mg9 1.986 . S
O13 C30 1.307 . S
O14 Mg3 2.023 . S
O14 C29 1.264 . S
O15 Mg4 1.942 . S
O15 C20 1.244 . S
O16 Mg4 1.955 . S
O16 C29 1.273 1_655 S
O17 Mg6 2.114 1_455 S
O17 Mg8 2.291 . S
O17 C19 1.312 . S
O18 Mg3 2.031 . S
O18 C19 1.208 . S
C19 O17 1.312 . S
C19 O18 1.208 . S
C20 O12 1.331 1_655 S
C20 O15 1.244 . S
O21 Mg6 2.013 . S
O21 C10 1.191 . S
O22 C1 1.331 . S
O22 Mg8 2.081 . S
O23 Mg4 1.986 . S
O23 C10 1.307 . S
O24 C2 1.264 . S
O24 Mg8 2.023 1_655 S
O25 C1 1.244 . S
O25 Mg9 1.942 1_455 S
O26 C2 1.273 . S
O26 Mg9 1.955 . S
O27 C0 1.312 . S
O27 Mg3 2.291 . S
O27 Mg6 2.114 1_455 S
O28 C0 1.208 . S
O28 Mg8 2.031 . S
C29 O14 1.264 . S
C29 O16 1.273 1_455 S
C30 O11 1.191 . S
C30 O13 1.307 . S
C31 O58 1.312 . S
C31 O59 1.208 . S
C32 O53 1.331 1_655 S
C32 O56 1.244 . S
C33 O55 1.264 . S
C33 O57 1.273 1_455 S
Mg34 O36 1.936 . S
Mg34 O43 2.081 . S
Mg34 O45 2.023 1_455 S
Mg34 O49 2.031 . S
Mg34 O58 2.291 . S
Mg35 O36 1.963 1_655 S
Mg35 O46 1.942 1_655 S
Mg35 O47 1.955 . S
Mg35 O54 1.986 . S
O36 Mg34 1.936 . S
O36 Mg35 1.963 1_455 S
O36 Mg37 1.915 1_455 S
Mg37 O36 1.915 1_655 S
Mg37 O38 1.915 . S
Mg37 O42 2.013 . S
Mg37 O48 2.114 1_655 S
Mg37 O52 2.013 . S
Mg37 O58 2.114 1_655 S
O38 Mg37 1.915 . S
O38 Mg39 1.936 1_655 S
O38 Mg40 1.963 . S
Mg39 O38 1.936 1_455 S
Mg39 O48 2.291 . S
Mg39 O53 2.081 . S
Mg39 O55 2.023 . S
Mg39 O59 2.031 . S
Mg40 O38 1.963 . S
Mg40 O44 1.986 . S
Mg40 O56 1.942 . S
Mg40 O57 1.955 . S
C41 O52 1.191 . S
C41 O54 1.307 . S
O42 Mg37 2.013 . S
O42 C61 1.191 . S
O43 Mg34 2.081 . S
O43 C51 1.331 . S
O44 Mg40 1.986 . S
O44 C61 1.307 . S
O45 Mg34 2.023 1_655 S
O45 C60 1.264 . S
O46 Mg35 1.942 1_455 S
O46 C51 1.244 . S
O47 Mg35 1.955 . S
O47 C60 1.273 . S
O48 Mg37 2.114 1_455 S
O48 Mg39 2.291 . S
O48 C50 1.312 . S
O49 Mg34 2.031 . S
O49 C50 1.208 . S
C50 O48 1.312 . S
C50 O49 1.208 . S
C51 O43 1.331 . S
C51 O46 1.244 . S
O52 Mg37 2.013 . S
O52 C41 1.191 . S
O53 C32 1.331 1_455 S
O53 Mg39 2.081 . S
O54 Mg35 1.986 . S
O54 C41 1.307 . S
O55 C33 1.264 . S
O55 Mg39 2.023 . S
O56 C32 1.244 . S
O56 Mg40 1.942 . S
O57 C33 1.273 1_655 S
O57 Mg40 1.955 . S
O58 C31 1.312 . S
O58 Mg34 2.291 . S
O58 Mg37 2.114 1_455 S
O59 C31 1.208 . S
O59 Mg39 2.031 . S
C60 O45 1.264 . S
C60 O47 1.273 . S
C61 O42 1.191 . S
C61 O44 1.307 . S
C62 O89 1.312 . S
C62 O90 1.208 . S
C63 O84 1.331 . S
C63 O87 1.244 . S
C64 O86 1.264 . S
C64 O88 1.273 . S
Mg65 O67 1.936 . S
Mg65 O74 2.081 . S
Mg65 O76 2.023 . S
Mg65 O80 2.031 . S
Mg65 O89 2.291 . S
Mg66 O67 1.963 . S
Mg66 O77 1.942 . S
Mg66 O78 1.955 . S
Mg66 O85 1.986 . S
O67 Mg65 1.936 . S
O67 Mg66 1.963 . S
O67 Mg68 1.915 . S
Mg68 O67 1.915 . S
Mg68 O69 1.915 . S
Mg68 O73 2.013 . S
Mg68 O79 2.114 . S
Mg68 O83 2.013 . S
Mg68 O89 2.114 . S
O69 Mg68 1.915 . S
O69 Mg70 1.936 . S
O69 Mg71 1.963 . S
Mg70 O69 1.936 . S
Mg70 O79 2.291 . S
Mg70 O84 2.081 . S
Mg70 O86 2.023 . S
Mg70 O90 2.031 . S
Mg71 O69 1.963 . S
Mg71 O75 1.986 . S
Mg71 O87 1.942 . S
Mg71 O88 1.955 . S
C72 O83 1.191 . S
C72 O85 1.307 . S
O73 Mg68 2.013 . S
O73 C92 1.191 . S
O74 Mg65 2.081 . S
O74 C82 1.331 . S
O75 Mg71 1.986 . S
O75 C92 1.307 . S
O76 Mg65 2.023 . S
O76 C91 1.264 . S
O77 Mg66 1.942 . S
O77 C82 1.244 . S
O78 Mg66 1.955 . S
O78 C91 1.273 . S
O79 Mg68 2.114 . S
O79 Mg70 2.291 . S
O79 C81 1.312 . S
O80 Mg65 2.031 . S
O80 C81 1.208 . S
C81 O79 1.312 . S
C81 O80 1.208 . S
C82 O74 1.331 . S
C82 O77 1.244 . S
O83 Mg68 2.013 . S
O83 C72 1.191 . S
O84 C63 1.331 . S
O84 Mg70 2.081 . S
O85 Mg66 1.986 . S
O85 C72 1.307 . S
O86 C64 1.264 . S
O86 Mg70 2.023 . S
O87 C63 1.244 . S
O87 Mg71 1.942 . S
O88 C64 1.273 . S
O88 Mg71 1.955 . S
O89 C62 1.312 . S
O89 Mg65 2.291 . S
O89 Mg68 2.114 . S
O90 C62 1.208 . S
O90 Mg70 2.031 . S
C91 O76 1.264 . S
C91 O78 1.273 . S
C92 O73 1.191 . S
C92 O75 1.307 . S
C93 O120 1.312 . S
C93 O121 1.208 . S
C94 O115 1.331 . S
C94 O118 1.244 . S
C95 O117 1.264 . S
C95 O119 1.273 . S
Mg96 O98 1.936 . S
Mg96 O105 2.081 . S
Mg96 O107 2.023 . S
Mg96 O111 2.031 . S
Mg96 O120 2.291 . S
Mg97 O98 1.963 . S
Mg97 O108 1.942 . S
Mg97 O109 1.955 . S
Mg97 O116 1.986 . S
O98 Mg96 1.936 . S
O98 Mg97 1.963 . S
O98 Mg99 1.915 . S
Mg99 O98 1.915 . S
Mg99 O100 1.915 . S
Mg99 O104 2.013 . S
Mg99 O110 2.114 . S
Mg99 O114 2.013 . S
Mg99 O120 2.114 . S
O100 Mg99 1.915 . S
O100 Mg101 1.936 . S
O100 Mg102 1.963 . S
Mg101 O100 1.936 . S
Mg101 O110 2.291 . S
Mg101 O115 2.081 . S
Mg101 O117 2.023 . S
Mg101 O121 2.031 . S
Mg102 O100 1.963 . S
Mg102 O106 1.986 . S
Mg102 O118 1.942 . S
Mg102 O119 1.955 . S
C103 O114 1.191 . S
C103 O116 1.307 . S
O104 Mg99 2.013 . S
O104 C123 1.191 . S
O105 Mg96 2.081 . S
O105 C113 1.331 . S
O106 Mg102 1.986 . S
O106 C123 1.307 . S
O107 Mg96 2.023 . S
O107 C122 1.264 . S
O108 Mg97 1.942 . S
O108 C113 1.244 . S
O109 Mg97 1.955 . S
O109 C122 1.273 . S
O110 Mg99 2.114 . S
O110 Mg101 2.291 . S
O110 C112 1.312 . S
O111 Mg96 2.031 . S
O111 C112 1.208 . S
C112 O110 1.312 . S
C112 O111 1.208 . S
C113 O105 1.331 . S
C113 O108 1.244 . S
O114 Mg99 2.013 . S
O114 C103 1.191 . S
O115 C94 1.331 . S
O115 Mg101 2.081 . S
O116 Mg97 1.986 . S
O116 C103 1.307 . S
O117 C95 1.264 . S
O117 Mg101 2.023 . S
O118 C94 1.244 . S
O118 Mg102 1.942 . S
O119 C95 1.273 . S
O119 Mg102 1.955 . S
O120 C93 1.312 . S
O120 Mg96 2.291 . S
O120 Mg99 2.114 . S
O121 C93 1.208 . S
O121 Mg101 2.031 . S
C122 O107 1.264 . S
C122 O109 1.273 . S
C123 O104 1.191 . S
C123 O106 1.307 . S
C124 C125 1.170 . S
C124 C126 1.380 1_455 S
C125 C124 1.170 . S
C126 C124 1.380 1_655 S
C126 C127 1.170 . S
C127 C126 1.170 . S
C128 C129 1.170 . S
C128 C130 1.380 1_455 S
C129 C128 1.170 . S
C130 C128 1.380 1_655 S
C130 C131 1.170 . S
C131 C130 1.170 . S
C132 C133 1.170 . S
C132 C134 1.380 . S
C133 C132 1.170 . S
C134 C132 1.380 . S
C134 C135 1.170 . S
C135 C134 1.170 . S
C136 C137 1.170 . S
C136 C138 1.380 . S
C137 C136 1.170 . S
C138 C136 1.380 . S
C138 C139 1.170 . S
C139 C138 1.170 . S
C140 C141 1.170 . S
C140 C142 1.380 . S
C141 C140 1.170 . S
C142 C140 1.380 . S
C142 C143 1.170 . S
C143 C142 1.170 . S
C144 C145 1.170 . S
C144 C146 1.380 . S
C145 C144 1.170 . S
C146 C144 1.380 . S
C146 C147 1.170 . S
C147 C146 1.170 . S
C148 C149 1.170 . S
C148 C150 1.380 1_655 S
C149 C148 1.170 . S
C150 C148 1.380 1_455 S
C150 C151 1.170 . S
C151 C150 1.170 . S
C152 C153 1.170 . S
C152 C154 1.380 1_655 S
C153 C152 1.170 . S
C154 C152 1.380 1_455 S
C154 C155 1.170 . S
C155 C154 1.170 . S
C156 C157 1.170 . S
C156 C158 1.380 . S
C157 C156 1.170 . S
C158 C156 1.380 . S
C158 C159 1.170 . S
C159 C158 1.170 . S
C160 C161 1.170 . S
C160 C162 1.380 1_556 S
C161 C160 1.170 . S
C162 C160 1.380 1_554 S
C162 C163 1.170 . S
C163 C162 1.170 . S
C164 C165 1.170 . S
C164 C166 1.380 . S
C165 C164 1.170 . S
C166 C164 1.380 . S
C166 C167 1.170 . S
C167 C166 1.170 . S
C168 C169 1.170 . S
C168 C170 1.380 1_554 S
C169 C168 1.170 . S
C170 C168 1.380 1_556 S
C170 C171 1.170 . S
C171 C170 1.170 . S
C172 C173 1.170 1_556 S
C172 C174 1.381 1_645 S
C173 C172 1.170 1_554 S
C174 C172 1.381 1_465 S
C174 C175 1.170 . S
C175 C174 1.170 . S
C176 C177 1.170 . S
C176 C178 1.380 1_445 S
C177 C176 1.170 . S
C178 C176 1.380 1_665 S
C178 C179 1.170 . S
C179 C178 1.170 . S
C180 C181 1.170 . S
C180 C182 1.380 1_554 S
C181 C180 1.170 . S
C182 C180 1.380 1_556 S
C182 C183 1.170 . S
C183 C182 1.170 . S
C184 C185 1.170 . S
C184 C186 1.380 . S
C185 C184 1.170 . S
C186 C184 1.380 . S
C186 C187 1.170 . S
C187 C186 1.170 . S
C125 C19 1.422 1_556 S
C127 C30 1.447 . S
C129 C31 1.445 . S
C131 C41 1.428 1_554 S
C133 C62 1.422 1_556 S
C135 C72 1.438 . S
C137 C103 1.449 1_554 S
C139 C93 1.423 . S
C141 C10 1.329 . S
C143 C0 1.340 . S
C145 C61 1.331 . S
C147 C50 1.334 . S
C149 C81 1.302 . S
C151 C92 1.338 . S
C153 C112 1.308 . S
C155 C123 1.339 . S
C157 C122 1.716 . S
C159 C1 1.696 . S
C161 C113 1.696 . S
C163 C2 1.718 . S
C165 C82 1.701 . S
C167 C60 1.718 . S
C169 C91 1.712 . S
C171 C51 1.711 . S
C173 C20 1.552 . S
C175 C33 1.462 . S
C177 C29 1.468 . S
C179 C32 1.557 . S
C181 C63 1.503 . S
C183 C95 1.529 . S
C185 C94 1.513 . S
C187 C64 1.486 . S
