# Generated by pormake.
# Topology pcu, (6)-cn, num edge types: 1
# Building blocks:
#     Node 0, Type 0, BuildingBlock: KUMBOL_clean_sbu_0, # of connection points: 6
#     Edge 1, Type (0, 0), BuildingBlock: ZUJKAS_clean_linker_0, # of connection points: 2
#     Edge 2, Type (0, 0), BuildingBlock: ZUJKAS_clean_linker_0, # of connection points: 2
#     Edge 3, Type (0, 0), BuildingBlock: ZUJKAS_clean_linker_0, # of connection points: 2
# Relax obj value: 0.000
# Max RMSD: 0.000
# Mean RMSD: 0.000
data_MOF--net-pcu--node1-KUMBOL_clean_sbu_0--edge1-ZUJKAS_clean_linker_0
_symmetry_space_group_name_H-M    P1
_symmetry_Int_Tables_number       1
_symmetry_cell_setting            triclinic
loop_
_symmetry_equiv_pos_as_xyz
'x, y, z'
_cell_length_a     28.848041
_cell_length_b     18.47722
_cell_length_c     19.763348
_cell_angle_alpha  74.329224
_cell_angle_beta   115.3888
_cell_angle_gamma 117.08846
loop_
_atom_site_label
_atom_site_type_symbol
_atom_site_fract_x
_atom_site_fract_y
_atom_site_fract_z
_atom_type_partial_charge
Gd0 Gd 0.09649 0.0677 0.02487 0.0
Gd1 Gd 0.94354 0.95071 0.96369 0.0
C2 C 0.86246 0.68082 0.92468 0.0
C3 C 0.81317 0.68457 0.78936 0.0
C4 C 0.86646 0.81019 0.85109 0.0
C5 C 0.88224 0.76662 0.91966 0.0
C6 C 0.83087 0.76961 0.7853 0.0
C7 C 0.8289 0.64023 0.85896 0.0
C8 C 0.87556 0.63824 -0.00419 0.0
C9 C 0.90646 0.68107 0.05973 0.0
N10 N 0.91417 0.80772 0.98209 0.0
C11 C 0.92491 0.76618 0.05187 0.0
H12 H 0.94872 0.79845 0.10175 0.0
C13 C 0.86398 0.93649 0.78466 0.0
N14 N 0.88363 0.892 0.84945 0.0
C15 C 0.82904 0.89916 0.71777 0.0
C16 C 0.81289 0.81547 0.71788 0.0
H17 H 0.87652 1.00126 0.78421 0.0
H18 H 0.81378 0.57441 0.86162 0.0
H19 H 0.0914 0.21996 0.88679 0.0
H20 H 0.8609 0.57228 0.00202 0.0
H21 H 0.91609 0.64859 0.1151 0.0
H22 H 0.78617 0.65232 0.73934 0.0
H23 H 0.16342 0.01715 0.20441 0.0
H24 H 0.17931 0.44616 0.98648 0.0
H25 H 0.1241 0.36984 0.87341 0.0
H26 H 0.25389 0.36614 0.24919 0.0
H27 H 0.81458 0.93492 0.66623 0.0
H28 H 0.78557 0.7866 0.66608 0.0
H29 H 0.22637 0.44405 0.12688 0.0
H30 H 0.22533 0.08349 0.32238 0.0
N31 N 0.12591 0.21071 0.00645 0.0
C32 C 0.16461 0.3802 0.99271 0.0
C33 C 0.1337 0.33736 0.92879 0.0
C34 C 0.17766 0.33762 0.06384 0.0
C35 C 0.15784 0.25182 0.06887 0.0
C36 C 0.11521 0.25224 0.93667 0.0
N37 N 0.15637 0.12642 0.13913 0.0
C38 C 0.17357 0.20825 0.13746 0.0
C39 C 0.21091 0.11926 0.27083 0.0
C40 C 0.22709 0.20297 0.27069 0.0
C41 C 0.17597 0.08193 0.20394 0.0
C42 C 0.20916 0.24882 0.20325 0.0
H43 H 0.2544 0.23184 0.32249 0.0
O44 O 0.16447 0.02953 0.05505 0.0
O45 O 0.02655 0.94793 -0.00327 0.0
O46 O 0.98563 0.94758 0.09152 0.0
O47 O 0.06838 0.06389 0.11616 0.0
O48 O 0.09668 0.94498 0.08649 0.0
O49 O 0.14651 0.11114 0.95464 0.0
O50 O 0.87553 0.98881 0.93355 0.0
O51 O 1.01347 0.07039 0.99171 0.0
O52 O 0.05441 0.07086 0.89703 0.0
O53 O 0.97161 0.95462 0.87233 0.0
O54 O 0.94333 0.07352 0.90219 0.0
O55 O 0.89356 0.90724 0.03398 0.0
C56 C 0.04772 0.90047 0.04496 0.0
C57 C 0.2269 0.33388 0.19918 0.0
C58 C 0.21122 0.37823 0.12955 0.0
C59 C 0.18014 0.07508 -0.00051 0.0
C60 C 0.24025 0.12494 0.0187 0.0
C61 C 0.2639 0.20084 0.04676 0.0
C62 C 0.27447 0.09616 0.00937 0.0
C63 C 0.33218 0.14309 0.02782 0.0
C64 C 0.32092 0.24739 0.06558 0.0
C65 C 0.35491 0.21889 0.05632 0.0
C66 C 0.02716 1.00452 0.13608 0.0
C67 C 0.99235 0.11798 0.94363 0.0
C68 C 0.85989 0.94325 0.98913 0.0
C69 C 0.79979 0.89334 0.96995 0.0
C70 C 0.77617 0.81741 0.94196 0.0
C71 C 0.76554 0.92211 0.97922 0.0
C72 C 0.70784 0.87514 0.96078 0.0
C73 C 0.71916 0.77082 0.92316 0.0
C74 C 0.68514 0.7993 0.93235 0.0
C75 C 1.01284 0.01398 0.85244 0.0
H76 H 0.23841 0.22421 0.05408 0.0
H77 H 0.25597 0.03785 0.98687 0.0
H78 H 0.33889 0.30574 0.0876 0.0
H79 H 0.39917 0.25587 0.07241 0.0
H80 H 0.80168 0.79404 0.93469 0.0
H81 H 0.78401 0.98044 0.00166 0.0
H82 H 0.70122 0.71244 0.90119 0.0
H83 H 0.64089 0.76229 0.91627 0.0
H84 H 0.09569 0.12074 0.23583 0.0
H85 H 0.09392 0.12009 0.35823 0.0
H86 H 0.9546 0.8873 0.32781 0.0
H87 H 0.95699 0.88608 0.20595 0.0
H88 H 1.00708 0.1154 0.38819 0.0
H89 H 0.06187 0.84812 0.53734 0.0
H90 H 0.07174 0.89816 0.44962 0.0
H91 H 1.00365 0.8279 0.45015 0.0
C92 C 0.06527 0.06855 0.25554 0.0
C93 C 0.02697 1.00287 0.21132 0.0
C94 C 0.0641 0.06864 0.32541 0.0
C95 C 0.02467 1.00315 0.35261 0.0
C96 C 0.98616 0.93765 0.3086 0.0
H97 H 0.94427 0.89783 0.75262 0.0
H98 H 0.94605 0.89853 0.63021 0.0
C99 C 0.98739 0.93734 0.2387 0.0
C100 C 0.02262 1.00508 0.42575 0.0
H101 H 0.03293 0.90319 0.6003 0.0
C102 C 1.01297 0.06924 0.43474 0.0
C103 C 0.03024 0.94468 0.48624 0.0
C104 C 0.04296 0.87618 0.48088 0.0
C105 C 1.00978 0.07391 0.50225 0.0
C106 C 1.01738 0.01351 0.56274 0.0
C107 C 0.02704 0.94935 0.55375 0.0
C108 C 1.01533 0.01544 0.63588 0.0
C109 C 0.99706 0.14242 0.50762 0.0
C110 C 0.05385 0.08091 0.67991 0.0
C111 C 0.05262 0.0812 0.74982 0.0
C112 C 1.01303 0.01567 0.77718 0.0
C113 C 0.97471 0.95002 0.73293 0.0
C114 C 0.97588 0.94995 0.66305 0.0
H115 H 0.97817 0.1705 0.45116 0.0
H116 H 0.96826 0.12043 0.53886 0.0
H117 H 0.03636 0.19068 0.53838 0.0
H118 H 0.08542 0.13125 0.66072 0.0
H119 H 0.08304 0.13243 0.7826 0.0
H120 H 0.32993 0.98754 0.05857 0.0
H121 H 0.39289 0.94113 0.04638 0.0
H122 H 0.4815 0.18537 0.96494 0.0
H123 H 0.41769 0.23167 0.9744 0.0
H124 H 0.46021 0.06701 0.88208 0.0
H125 H 0.55403 0.98683 0.18785 0.0
H126 H 0.47941 0.93782 0.14945 0.0
H127 H 0.51208 0.04688 0.15141 0.0
C128 C 0.36243 0.03123 0.03731 0.0
C129 C 0.36898 0.11354 0.01806 0.0
C130 C 0.39883 1.00479 0.03125 0.0
C131 C 0.44262 0.06015 0.00621 0.0
C132 C 0.44837 0.14177 0.98512 0.0
H133 H 0.71002 0.03066 0.92992 0.0
H134 H 0.64704 0.07705 0.94205 0.0
C135 C 0.41205 0.16823 0.99108 0.0
C136 C 0.48235 0.03323 0.00137 0.0
H137 H 0.57973 0.95118 0.1064 0.0
C138 C 0.4865 0.04194 0.93113 0.0
C139 C 0.51667 1.00063 0.06549 0.0
C140 C 0.51587 0.99305 0.14298 0.0
C141 C 0.52327 0.01756 0.92298 0.0
C142 C 0.55759 0.98496 0.9871 0.0
C143 C 0.55344 0.97625 0.05734 0.0
C144 C 0.59733 0.95805 0.98227 0.0
C145 C 0.52407 0.02513 0.84549 0.0
C146 C 0.59161 0.87644 0.0034 0.0
C147 C 0.62794 0.84999 -0.00253 0.0
C148 C 0.67101 0.90468 0.97049 0.0
C149 C 0.67752 0.98697 0.95119 0.0
C150 C 0.64111 0.0134 0.95721 0.0
H151 H 0.4859 0.03133 0.80062 0.0
H152 H 0.56052 0.08037 0.839 0.0
H153 H 0.52787 0.97131 0.83706 0.0
H154 H 0.55848 0.83284 0.0236 0.0
H155 H 0.62232 0.78656 0.01419 0.0
H156 H 0.99638 0.82766 0.91328 0.0
H157 H 0.98438 0.69277 0.89719 0.0
H158 H 0.06563 0.65227 0.13657 0.0
H159 H 0.07528 0.78575 0.15301 0.0
H160 H 0.06382 0.6404 0.9271 0.0
H161 H 0.93412 0.43928 0.0978 0.0
H162 H 0.94779 0.54661 0.07575 0.0
H163 H 0.99825 0.51262 0.15227 0.0
C164 C 1.01005 0.78899 0.96267 0.0
C165 C 0.03518 0.81618 0.03472 0.0
C166 C 1.00374 0.71212 0.95337 0.0
C167 C 0.0232 0.66136 0.01578 0.0
C168 C 0.04874 0.68893 0.08772 0.0
H169 H 0.0437 0.19067 0.07541 0.0
H170 H 0.0558 0.32558 0.0916 0.0
C171 C 0.05457 0.76544 0.09706 0.0
C172 C 0.02032 0.58236 0.00506 0.0
H173 H 0.97648 0.3781 0.06174 0.0
C174 C 0.04436 0.58296 0.95619 0.0
C175 C 0.99536 0.50728 0.04338 0.0
C176 C 0.96697 0.50117 0.09465 0.0
C177 C 0.04495 0.51122 0.94547 0.0
C178 C 0.01999 0.43614 0.98378 0.0
C179 C 0.99596 0.43554 0.03266 0.0
C180 C 1.01707 0.35713 0.97302 0.0
C181 C 0.07335 0.51734 0.8942 0.0
C182 C 0.99155 0.32963 0.90105 0.0
C183 C 0.98567 0.25311 0.89166 0.0
C184 C 1.005 0.20229 0.95397 0.0
C185 C 0.0301 0.2294 0.02604 0.0
C186 C 0.03646 0.30628 0.0354 0.0
H187 H 0.10624 0.5792 0.89113 0.0
H188 H 0.09247 0.47183 0.91302 0.0
H189 H 0.04207 0.50601 0.83655 0.0
H190 H 0.97471 0.36635 0.85221 0.0
H191 H 0.96497 0.23286 0.83569 0.0
loop_
_geom_bond_atom_site_label_1
_geom_bond_atom_site_label_2
_geom_bond_distance
_geom_bond_site_symmetry_2
_ccdc_geom_bond_type
Gd0 N31 2.661 1_554 S
Gd0 N37 2.601 . S
Gd0 O44 2.545 . S
Gd0 O45 2.606 1_444 S
Gd0 O47 2.430 1_545 S
Gd0 O48 2.545 1_545 S
Gd0 O49 2.412 . S
Gd0 O51 2.362 . S
Gd0 O52 2.324 1_554 S
Gd0 C59 2.828 . S
Gd1 N10 2.661 1_556 S
Gd1 N14 2.601 . S
Gd1 O45 2.362 . S
Gd1 O46 2.324 1_556 S
Gd1 O50 2.545 . S
Gd1 O51 2.606 1_666 S
Gd1 O53 2.430 1_565 S
Gd1 O54 2.545 1_565 S
Gd1 O55 2.412 . S
Gd1 C68 2.828 . S
C2 C5 1.417 . S
C2 C7 1.431 . S
C2 C8 1.412 1_556 S
C3 C6 1.437 . S
C3 C7 1.317 . S
C3 H22 0.929 . S
C4 C5 1.426 . S
C4 C6 1.413 . S
C4 N14 1.359 . S
C5 C2 1.417 . S
C5 C4 1.426 . S
C5 N10 1.350 1_556 S
C6 C3 1.437 . S
C6 C4 1.413 . S
C6 C16 1.391 . S
C7 C2 1.431 . S
C7 C3 1.317 . S
C7 H18 0.930 . S
C8 C2 1.412 1_554 S
C8 C9 1.355 . S
C8 H20 0.930 . S
C9 C8 1.355 . S
C9 C11 1.402 . S
C9 H21 0.930 . S
N10 Gd1 2.661 1_554 S
N10 C5 1.350 1_554 S
N10 C11 1.307 . S
C11 C9 1.402 . S
C11 N10 1.307 . S
C11 H12 0.930 . S
H12 C11 0.930 . S
C13 N14 1.334 . S
C13 C15 1.394 . S
C13 H17 0.930 . S
N14 Gd1 2.601 . S
N14 C4 1.359 . S
N14 C13 1.334 . S
C15 C13 1.394 . S
C15 C16 1.359 . S
C15 H27 0.930 . S
C16 C6 1.391 . S
C16 C15 1.359 . S
C16 H28 0.929 . S
H17 C13 0.930 . S
H18 C7 0.930 . S
H19 C36 0.930 . S
H20 C8 0.930 . S
H21 C9 0.930 . S
H22 C3 0.929 . S
H23 C41 0.930 . S
H24 C32 0.930 . S
H25 C33 0.930 . S
H26 C57 0.929 . S
H27 C15 0.930 . S
H28 C16 0.929 . S
H29 C58 0.930 . S
H30 C39 0.930 . S
N31 Gd0 2.661 1_556 S
N31 C35 1.350 1_556 S
N31 C36 1.307 . S
C32 H24 0.930 . S
C32 C33 1.355 . S
C32 C34 1.412 1_556 S
C33 H25 0.930 . S
C33 C32 1.355 . S
C33 C36 1.402 . S
C34 C32 1.412 1_554 S
C34 C35 1.417 . S
C34 C58 1.431 . S
C35 N31 1.350 1_554 S
C35 C34 1.417 . S
C35 C38 1.426 . S
C36 H19 0.930 . S
C36 N31 1.307 . S
C36 C33 1.402 . S
N37 Gd0 2.601 . S
N37 C38 1.359 . S
N37 C41 1.334 . S
C38 C35 1.426 . S
C38 N37 1.359 . S
C38 C42 1.413 . S
C39 H30 0.930 . S
C39 C40 1.359 . S
C39 C41 1.394 . S
C40 C39 1.359 . S
C40 C42 1.391 . S
C40 H43 0.929 . S
C41 H23 0.930 . S
C41 N37 1.334 . S
C41 C39 1.394 . S
C42 C38 1.413 . S
C42 C40 1.391 . S
C42 C57 1.437 . S
H43 C40 0.929 . S
O44 Gd0 2.545 . S
O44 C59 1.258 . S
O45 Gd0 2.606 1_666 S
O45 Gd1 2.362 . S
O45 C56 1.284 1_656 S
O46 Gd1 2.324 1_554 S
O46 C66 1.254 1_655 S
O47 Gd0 2.430 1_565 S
O47 C66 1.264 . S
O48 Gd0 2.545 1_565 S
O48 C56 1.250 . S
O49 Gd0 2.412 . S
O49 C59 1.252 . S
O50 Gd1 2.545 . S
O50 C68 1.258 . S
O51 Gd0 2.362 . S
O51 Gd1 2.606 1_444 S
O51 C67 1.284 1_454 S
O52 Gd0 2.324 1_556 S
O52 C75 1.254 1_455 S
O53 Gd1 2.430 1_545 S
O53 C75 1.263 . S
O54 Gd1 2.545 1_545 S
O54 C67 1.250 . S
O55 Gd1 2.412 . S
O55 C68 1.252 . S
C56 O45 1.284 1_454 S
C56 O48 1.250 . S
C57 H26 0.929 . S
C57 C42 1.437 . S
C57 C58 1.317 . S
C58 H29 0.930 . S
C58 C34 1.431 . S
C58 C57 1.317 . S
C59 Gd0 2.828 . S
C59 O44 1.258 . S
C59 O49 1.252 . S
C59 C60 1.497 . S
C60 C59 1.497 . S
C60 C61 1.395 . S
C60 C62 1.380 . S
C61 C60 1.395 . S
C61 C64 1.398 . S
C61 H76 0.930 . S
C62 C60 1.380 . S
C62 C63 1.391 . S
C62 H77 0.930 1_554 S
C63 C62 1.391 . S
C63 C65 1.387 . S
C64 C61 1.398 . S
C64 C65 1.380 . S
C64 H78 0.930 . S
C65 C63 1.387 . S
C65 C64 1.380 . S
C65 H79 0.930 . S
C66 O46 1.254 1_455 S
C66 O47 1.264 . S
C67 O51 1.284 1_656 S
C67 O54 1.250 . S
C68 Gd1 2.828 . S
C68 O50 1.258 . S
C68 O55 1.252 . S
C68 C69 1.497 . S
C69 C68 1.497 . S
C69 C70 1.395 . S
C69 C71 1.380 . S
C70 C69 1.395 . S
C70 C73 1.398 . S
C70 H80 0.930 . S
C71 C69 1.380 . S
C71 C72 1.391 . S
C71 H81 0.930 1_556 S
C72 C71 1.391 . S
C72 C74 1.387 . S
C73 C70 1.398 . S
C73 C74 1.380 . S
C73 H82 0.930 . S
C74 C72 1.387 . S
C74 C73 1.380 . S
C74 H83 0.930 . S
C75 O52 1.254 1_655 S
C75 O53 1.263 . S
H76 C61 0.930 . S
H77 C62 0.930 1_556 S
H78 C64 0.930 . S
H79 C65 0.930 . S
H80 C70 0.930 . S
H81 C71 0.930 1_554 S
H82 C73 0.930 . S
H83 C74 0.930 . S
H84 C92 0.929 . S
H85 C94 0.930 . S
H86 C96 0.930 . S
H87 C99 0.929 . S
H88 C102 0.930 . S
H89 C104 0.960 . S
H90 C104 0.960 . S
H91 C104 0.960 . S
C92 H84 0.929 . S
C92 C93 1.384 . S
C92 C94 1.384 . S
C93 C92 1.384 . S
C93 C99 1.377 1_465 S
C94 H85 0.930 . S
C94 C92 1.384 . S
C94 C95 1.372 . S
C95 C94 1.372 . S
C95 C96 1.400 1_465 S
C95 C100 1.490 1_565 S
C96 H86 0.930 . S
C96 C95 1.400 1_645 S
C96 C99 1.386 . S
H97 C113 0.930 . S
H98 C114 0.931 . S
C99 H87 0.929 . S
C99 C93 1.377 1_645 S
C99 C96 1.386 . S
C100 C95 1.490 1_545 S
C100 C102 1.395 . S
C100 C103 1.403 1_445 S
H101 C107 0.930 . S
C102 H88 0.930 . S
C102 C100 1.395 . S
C102 C105 1.403 . S
C103 C100 1.403 1_665 S
C103 C104 1.524 . S
C103 C107 1.400 . S
C104 H89 0.960 . S
C104 H90 0.960 . S
C104 H91 0.960 . S
C104 C103 1.524 . S
C105 C102 1.403 . S
C105 C106 1.392 . S
C105 C109 1.495 . S
C106 C105 1.392 . S
C106 C107 1.385 1_445 S
C106 C108 1.478 . S
C107 H101 0.930 . S
C107 C103 1.400 . S
C107 C106 1.385 1_665 S
C108 C106 1.478 . S
C108 C110 1.381 1_545 S
C108 C114 1.383 1_455 S
C109 C105 1.495 . S
C109 H115 0.959 . S
C109 H116 0.961 . S
C109 H117 0.960 . S
C110 C108 1.381 1_565 S
C110 C111 1.394 . S
C110 H118 0.930 . S
C111 C110 1.394 . S
C111 C112 1.383 1_565 S
C111 H119 0.929 . S
C112 C111 1.383 1_545 S
C112 C113 1.377 1_455 S
C113 H97 0.930 . S
C113 C112 1.377 1_655 S
C113 C114 1.379 . S
C114 H98 0.931 . S
C114 C108 1.383 1_655 S
C114 C113 1.379 . S
H115 C109 0.959 . S
H116 C109 0.961 . S
H117 C109 0.960 . S
H118 C110 0.930 . S
H119 C111 0.929 . S
H120 C128 0.929 . S
H121 C130 0.930 . S
H122 C132 0.930 . S
H123 C135 0.929 . S
H124 C138 0.930 1_545 S
H125 C140 0.960 . S
H126 C140 0.960 . S
H127 C140 0.960 1_545 S
C128 H120 0.929 . S
C128 C129 1.371 1_556 S
C128 C130 1.384 . S
C129 C128 1.371 1_554 S
C129 C135 1.392 1_565 S
C130 H121 0.930 . S
C130 C128 1.384 . S
C130 C131 1.372 . S
C131 C130 1.372 . S
C131 C132 1.400 1_566 S
C131 C136 1.490 . S
C132 H122 0.930 . S
C132 C131 1.400 1_544 S
C132 C135 1.386 . S
H133 C149 0.930 . S
H134 C150 0.931 . S
C135 H123 0.929 . S
C135 C129 1.392 1_545 S
C135 C132 1.386 . S
C136 C131 1.490 . S
C136 C138 1.395 . S
C136 C139 1.403 1_556 S
H137 C143 0.930 . S
C138 H124 0.930 1_565 S
C138 C136 1.395 . S
C138 C141 1.406 1_565 S
C139 C136 1.403 1_554 S
C139 C140 1.524 . S
C139 C143 1.400 . S
C140 H125 0.960 . S
C140 H126 0.960 . S
C140 H127 0.960 1_565 S
C140 C139 1.524 . S
C141 C138 1.406 1_545 S
C141 C142 1.391 1_545 S
C141 C145 1.494 . S
C142 C141 1.391 1_565 S
C142 C143 1.385 1_556 S
C142 C144 1.482 1_565 S
C143 H137 0.930 . S
C143 C139 1.400 . S
C143 C142 1.385 1_554 S
C144 C142 1.482 1_545 S
C144 C146 1.372 1_545 S
C144 C150 1.387 1_556 S
C145 C141 1.494 . S
C145 H151 0.959 . S
C145 H152 0.961 . S
C145 H153 0.960 1_545 S
C146 C144 1.372 1_565 S
C146 C147 1.394 . S
C146 H154 0.930 . S
C147 C146 1.394 . S
C147 C148 1.376 1_565 S
C147 H155 0.929 . S
C148 C147 1.376 1_545 S
C148 C149 1.392 1_556 S
C149 H133 0.930 . S
C149 C148 1.392 1_554 S
C149 C150 1.379 . S
C150 H134 0.931 . S
C150 C144 1.387 1_554 S
C150 C149 1.379 . S
H151 C145 0.959 . S
H152 C145 0.961 . S
H153 C145 0.960 1_565 S
H154 C146 0.930 . S
H155 C147 0.929 . S
H156 C164 0.929 . S
H157 C166 0.930 . S
H158 C168 0.930 . S
H159 C171 0.929 . S
H160 C174 0.930 . S
H161 C176 0.959 1_554 S
H162 C176 0.968 . S
H163 C176 0.947 1_554 S
C164 H156 0.929 . S
C164 C165 1.387 1_455 S
C164 C166 1.384 . S
C165 C164 1.387 1_655 S
C165 C171 1.379 1_556 S
C166 H157 0.930 . S
C166 C164 1.384 . S
C166 C167 1.372 1_455 S
C167 C166 1.372 1_655 S
C167 C168 1.401 1_556 S
C167 C172 1.489 1_655 S
C168 H158 0.930 . S
C168 C167 1.401 1_554 S
C168 C171 1.386 . S
H169 C185 0.930 . S
H170 C186 0.931 . S
C171 H159 0.929 . S
C171 C165 1.379 1_554 S
C171 C168 1.386 . S
C172 C167 1.489 1_455 S
C172 C174 1.395 . S
C172 C175 1.406 1_455 S
H173 C179 0.931 . S
C174 H160 0.930 . S
C174 C172 1.395 . S
C174 C177 1.403 . S
C175 C172 1.406 1_655 S
C175 C176 1.523 . S
C175 C179 1.407 1_556 S
C176 H161 0.959 1_556 S
C176 H162 0.968 . S
C176 H163 0.947 1_556 S
C176 C175 1.523 . S
C177 C174 1.403 . S
C177 C178 1.392 . S
C177 C181 1.495 . S
C178 C177 1.392 . S
C178 C179 1.383 1_456 S
C178 C180 1.473 . S
C179 H173 0.931 . S
C179 C175 1.407 1_554 S
C179 C178 1.383 1_654 S
C180 C178 1.473 . S
C180 C182 1.397 . S
C180 C186 1.371 1_556 S
C181 C177 1.495 . S
C181 H187 0.959 . S
C181 H188 0.961 1_556 S
C181 H189 0.960 . S
C182 C180 1.397 . S
C182 C183 1.394 . S
C182 H190 0.930 . S
C183 C182 1.394 . S
C183 C184 1.380 1_556 S
C183 H191 0.929 . S
C184 C183 1.380 1_554 S
C184 C185 1.381 . S
C185 H169 0.930 . S
C185 C184 1.381 . S
C185 C186 1.379 . S
C186 H170 0.931 . S
C186 C180 1.371 1_554 S
C186 C185 1.379 . S
H187 C181 0.959 . S
H188 C181 0.961 1_554 S
H189 C181 0.960 . S
H190 C182 0.930 . S
H191 C183 0.929 . S
C93 C66 1.477 . S
C112 C75 1.461 1_455 S
C129 C63 1.332 1_565 S
C148 C72 1.270 1_545 S
C165 C56 1.438 1_656 S
C184 C67 1.456 1_454 S
