# Generated by pormake.
# Topology ukg, (4)-cn, num edge types: 1
# Building blocks:
#     Node 0, Type 0, BuildingBlock: CEKHIL_clean_sbu_0, # of connection points: 4
#     Node 1, Type 0, BuildingBlock: CEKHIL_clean_sbu_0, # of connection points: 4
#     Node 2, Type 0, BuildingBlock: CEKHIL_clean_sbu_0, # of connection points: 4
#     Node 3, Type 0, BuildingBlock: CEKHIL_clean_sbu_0, # of connection points: 4
#     Node 4, Type 0, BuildingBlock: CEKHIL_clean_sbu_0, # of connection points: 4
#     Node 5, Type 0, BuildingBlock: CEKHIL_clean_sbu_0, # of connection points: 4
#     Node 6, Type 0, BuildingBlock: CEKHIL_clean_sbu_0, # of connection points: 4
#     Node 7, Type 0, BuildingBlock: CEKHIL_clean_sbu_0, # of connection points: 4
#     Edge 8, Type (0, 0), BuildingBlock: EYOCIG_clean_linker_4, # of connection points: 2
#     Edge 9, Type (0, 0), BuildingBlock: EYOCIG_clean_linker_4, # of connection points: 2
#     Edge 10, Type (0, 0), BuildingBlock: EYOCIG_clean_linker_4, # of connection points: 2
#     Edge 11, Type (0, 0), BuildingBlock: EYOCIG_clean_linker_4, # of connection points: 2
#     Edge 12, Type (0, 0), BuildingBlock: EYOCIG_clean_linker_4, # of connection points: 2
#     Edge 13, Type (0, 0), BuildingBlock: EYOCIG_clean_linker_4, # of connection points: 2
#     Edge 14, Type (0, 0), BuildingBlock: EYOCIG_clean_linker_4, # of connection points: 2
#     Edge 15, Type (0, 0), BuildingBlock: EYOCIG_clean_linker_4, # of connection points: 2
#     Edge 16, Type (0, 0), BuildingBlock: EYOCIG_clean_linker_4, # of connection points: 2
#     Edge 17, Type (0, 0), BuildingBlock: EYOCIG_clean_linker_4, # of connection points: 2
#     Edge 18, Type (0, 0), BuildingBlock: EYOCIG_clean_linker_4, # of connection points: 2
#     Edge 19, Type (0, 0), BuildingBlock: EYOCIG_clean_linker_4, # of connection points: 2
#     Edge 20, Type (0, 0), BuildingBlock: EYOCIG_clean_linker_4, # of connection points: 2
#     Edge 21, Type (0, 0), BuildingBlock: EYOCIG_clean_linker_4, # of connection points: 2
#     Edge 22, Type (0, 0), BuildingBlock: EYOCIG_clean_linker_4, # of connection points: 2
#     Edge 23, Type (0, 0), BuildingBlock: EYOCIG_clean_linker_4, # of connection points: 2
# Relax obj value: 0.122
# Max RMSD: 0.207
# Mean RMSD: 0.201
data_MOF--net-ukg--node1-CEKHIL_clean_sbu_0--edge1-EYOCIG_clean_linker_4
_symmetry_space_group_name_H-M    P1
_symmetry_Int_Tables_number       1
_symmetry_cell_setting            triclinic
loop_
_symmetry_equiv_pos_as_xyz
'x, y, z'
_cell_length_a     24.045992
_cell_length_b     23.64174
_cell_length_c     29.968466
_cell_angle_alpha  89.996617
_cell_angle_beta   90.022327
_cell_angle_gamma 89.513969
loop_
_atom_site_label
_atom_site_type_symbol
_atom_site_fract_x
_atom_site_fract_y
_atom_site_fract_z
_atom_type_partial_charge
Co0 Co 0.01445 0.63276 0.13781 0.0
O1 O 0.03559 0.56056 0.11302 0.0
O2 O 0.00135 0.63247 0.0739 0.0
C3 C 0.96524 0.59862 0.19551 0.0
O4 O 0.98556 0.71203 0.15259 0.0
Co5 Co 0.05529 0.66569 0.23334 0.0
O6 O -8e-05 0.72738 0.22604 0.0
C7 C 0.12981 0.68106 0.15606 0.0
C8 C 0.0186 0.5802 0.075 0.0
C9 C 0.97961 0.74153 0.1884 0.0
O10 O 0.09208 0.6635 0.12902 0.0
O11 O 0.12444 0.68202 0.19849 0.0
O12 O 0.94316 0.60208 0.15616 0.0
O13 O 0.0177 0.60946 0.19799 0.0
Co14 Co 0.35365 0.50431 0.63848 0.0
O15 O 0.42477 0.52512 0.61411 0.0
O16 O 0.35731 0.48407 0.5758 0.0
C17 C 0.38665 0.46235 0.70028 0.0
O18 O 0.27629 0.47415 0.65353 0.0
Co19 Co 0.31519 0.55555 0.72974 0.0
O20 O 0.25868 0.49543 0.72565 0.0
C21 C 0.30432 0.62307 0.64738 0.0
C22 C 0.40775 0.50347 0.57691 0.0
C23 C 0.2469 0.47027 0.68936 0.0
O24 O 0.3213 0.58124 0.62341 0.0
O25 O 0.3024 0.62248 0.69001 0.0
O26 O 0.38601 0.43511 0.66276 0.0
O27 O 0.37357 0.51535 0.69851 0.0
Co28 Co 0.4819 0.85606 0.13789 0.0
O29 O 0.46079 0.92827 0.11309 0.0
O30 O 0.49499 0.85637 0.07398 0.0
C31 C 0.53113 0.89016 0.19561 0.0
O32 O 0.51076 0.77677 0.15266 0.0
Co33 Co 0.44109 0.8231 0.23339 0.0
O34 O 0.49645 0.76141 0.22611 0.0
C35 C 0.36653 0.80779 0.15608 0.0
C36 C 0.47777 0.90865 0.07508 0.0
C37 C 0.51672 0.74727 0.18847 0.0
O38 O 0.40425 0.82535 0.12906 0.0
O39 O 0.37193 0.8068 0.19851 0.0
O40 O 0.5532 0.88671 0.15627 0.0
O41 O 0.47867 0.87934 0.19806 0.0
Co42 Co 0.14299 0.98445 0.63857 0.0
O43 O 0.07186 0.96367 0.61417 0.0
O44 O 0.13932 0.00471 0.57589 0.0
C45 C 0.11002 0.0264 0.70037 0.0
O46 O 0.22036 0.01459 0.65365 0.0
Co47 Co 0.18148 0.93316 0.72983 0.0
O48 O 0.238 0.99328 0.72577 0.0
C49 C 0.19231 0.86568 0.64747 0.0
C50 C 0.08887 0.98532 0.57697 0.0
C51 C 0.24976 0.01846 0.68949 0.0
O52 O 0.17531 0.90752 0.62349 0.0
O53 O 0.19425 0.86625 0.69009 0.0
O54 O 0.11066 0.05365 0.66284 0.0
O55 O 0.12309 0.9734 0.69859 0.0
Co56 Co 0.9732 0.29287 0.85498 0.0
O57 O 0.91673 0.25844 0.8912 0.0
O58 O 0.90052 0.32052 0.83711 0.0
C59 C 0.01853 0.21209 0.83927 0.0
O60 O 0.02071 0.33405 0.80879 0.0
Co61 Co 0.09716 0.28751 0.88392 0.0
O62 O 0.11051 0.31107 0.82146 0.0
C63 C 0.02252 0.37252 0.92481 0.0
C64 C 0.8811 0.28565 0.86671 0.0
C65 C 0.07241 0.33324 0.79756 0.0
O66 O 0.98235 0.35693 0.8993 0.0
O67 O 0.07026 0.34829 0.9257 0.0
O68 O 0.97459 0.2266 0.81697 0.0
O69 O 0.03098 0.24345 0.87315 0.0
Co70 Co 0.64236 0.48486 0.34592 0.0
O71 O 0.57141 0.46572 0.37136 0.0
O72 O 0.64232 0.50059 0.4095 0.0
C73 C 0.6085 0.53296 0.28715 0.0
O74 O 0.72054 0.51182 0.33007 0.0
Co75 Co 0.67395 0.43869 0.25139 0.0
O76 O 0.7355 0.4932 0.25712 0.0
C77 C 0.6882 0.36573 0.33062 0.0
C78 C 0.59095 0.48377 0.40895 0.0
C79 C 0.74968 0.51522 0.29411 0.0
O80 O 0.67205 0.40579 0.35671 0.0
O81 O 0.68874 0.36929 0.28805 0.0
O82 O 0.61236 0.55714 0.32581 0.0
O83 O 0.61907 0.47936 0.28604 0.0
Co84 Co 0.52355 0.19597 0.85509 0.0
O85 O 0.58008 0.23039 0.89129 0.0
O86 O 0.5962 0.16826 0.83725 0.0
C87 C 0.47826 0.27677 0.83933 0.0
O88 O 0.47599 0.1548 0.80892 0.0
Co89 Co 0.39961 0.20146 0.88399 0.0
O90 O 0.38621 0.17784 0.82155 0.0
C91 C 0.4742 0.1164 0.92493 0.0
C92 C 0.61566 0.20315 0.86683 0.0
C93 C 0.42428 0.15563 0.79768 0.0
O94 O 0.51438 0.13195 0.89945 0.0
O95 O 0.42647 0.14066 0.92579 0.0
O96 O 0.52219 0.26222 0.81704 0.0
O97 O 0.46582 0.24545 0.87322 0.0
Co98 Co 0.85418 0.00391 0.34589 0.0
O99 O 0.92517 0.02305 0.37132 0.0
O100 O 0.85429 0.98818 0.40947 0.0
C101 C 0.88797 0.95582 0.28712 0.0
O102 O 0.77599 0.97696 0.33006 0.0
Co103 Co 0.82247 0.05008 0.25137 0.0
O104 O 0.76092 -0.00441 0.25712 0.0
C105 C 0.80833 0.12305 0.33059 0.0
C106 C 0.90566 0.00501 0.40891 0.0
C107 C 0.74679 0.97357 0.29412 0.0
O108 O 0.82451 0.08298 0.35668 0.0
O109 O 0.80773 0.11949 0.28802 0.0
O110 O 0.88415 0.93163 0.32578 0.0
O111 O 0.8774 0.00941 0.286 0.0
C112 C 0.01275 0.4618 0.97757 0.0
C113 C 0.0148 0.42142 0.95287 0.0
C114 C 0.01354 0.5075 0.00815 0.0
C115 C 0.01466 0.54321 0.03699 0.0
C116 C 0.47969 0.49494 0.51039 0.0
C117 C 0.4453 0.49786 0.53973 0.0
C118 C 0.52127 0.49121 0.47701 0.0
C119 C 0.55503 0.48879 0.44719 0.0
C120 C 0.48298 0.98138 0.00826 0.0
C121 C 0.48179 0.94566 0.03708 0.0
C122 C 0.48386 0.0271 0.97769 0.0
C123 C 0.48187 0.06749 0.95299 0.0
C124 C 0.97538 -0.00242 0.47699 0.0
C125 C 0.94161 0.0 0.44716 0.0
C126 C 0.01695 -0.00615 0.51041 0.0
C127 C 0.05132 0.99093 0.53977 0.0
C128 C 0.22278 0.72956 0.13097 0.0
C129 C 0.17921 0.70635 0.13828 0.0
C130 C 0.27354 0.75931 0.13097 0.0
C131 C 0.31711 0.78252 0.13828 0.0
C132 C 0.26153 0.71765 0.61665 0.0
C133 C 0.28228 0.67259 0.62589 0.0
C134 C 0.23507 0.77112 0.61668 0.0
C135 C 0.21433 0.81617 0.62596 0.0
C136 C 0.72097 0.23383 0.87025 0.0
C137 C 0.6733 0.21861 0.86769 0.0
C138 C 0.77581 0.25496 0.87022 0.0
C139 C 0.82347 0.27019 0.86761 0.0
C140 C 0.73414 0.27065 0.35773 0.0
C141 C 0.71215 0.31546 0.34963 0.0
C142 C 0.76244 0.21813 0.35772 0.0
C143 C 0.78442 0.17331 0.34961 0.0
C144 C 0.84716 0.56139 0.28404 0.0
C145 C 0.80261 0.54271 0.29469 0.0
C146 C 0.89566 0.5773 0.26085 0.0
C147 C 0.93145 0.58742 0.23392 0.0
C148 C 0.40683 0.40305 0.77278 0.0
C149 C 0.39709 0.43346 0.74148 0.0
C150 C 0.4234 0.36147 0.80384 0.0
C151 C 0.44397 0.32249 0.82392 0.0
C152 C 0.60075 0.91149 0.26095 0.0
C153 C 0.56493 0.90136 0.23403 0.0
C154 C 0.64929 0.9274 0.28411 0.0
C155 C 0.69386 0.94608 0.29473 0.0
C156 C 0.07338 0.12735 0.80387 0.0
C157 C 0.05283 0.16635 0.82391 0.0
C158 C 0.08991 0.08573 0.77285 0.0
C159 C 0.09963 0.0553 0.74156 0.0
C160 C 0.11646 0.38341 0.72819 0.0
C161 C 0.09021 0.36221 0.75803 0.0
C162 C 0.15767 0.41017 0.7023 0.0
C163 C 0.19844 0.43527 0.69023 0.0
C164 C 0.58411 0.6007 0.22051 0.0
C165 C 0.59564 0.56543 0.24806 0.0
C166 C 0.56601 0.64921 0.19715 0.0
C167 C 0.54556 0.69406 0.187 0.0
C168 C 0.38019 0.10537 0.72834 0.0
C169 C 0.40645 0.12661 0.75817 0.0
C170 C 0.33898 0.07859 0.70245 0.0
C171 C 0.29821 0.05346 0.69038 0.0
C172 C 0.93033 0.83958 0.1971 0.0
C173 C 0.95077 0.79473 0.18694 0.0
C174 C 0.91227 0.88808 0.22047 0.0
C175 C 0.90077 0.92334 0.24803 0.0
loop_
_geom_bond_atom_site_label_1
_geom_bond_atom_site_label_2
_geom_bond_distance
_geom_bond_site_symmetry_2
_ccdc_geom_bond_type
Co0 O1 2.216 . S
Co0 O2 2.088 1_455 S
Co0 O4 2.004 1_455 S
Co0 O10 2.021 . S
Co0 O12 2.137 1_455 S
Co0 O13 2.244 . S
O1 Co0 2.216 . S
O1 C8 1.247 . S
O2 Co0 2.088 1_655 S
O2 C8 1.253 1_655 S
C3 O12 1.247 . S
C3 O13 1.272 1_655 S
O4 Co0 2.004 1_655 S
O4 C9 1.259 . S
Co5 O6 2.061 . S
Co5 O11 2.052 . S
Co5 O13 2.135 . S
O6 Co5 2.061 . S
O6 C9 1.235 1_455 S
C7 O10 1.238 . S
C7 O11 1.241 . S
C8 O1 1.247 . S
C8 O2 1.253 1_455 S
C9 O4 1.259 . S
C9 O6 1.235 1_655 S
O10 Co0 2.021 . S
O10 C7 1.238 . S
O11 Co5 2.052 . S
O11 C7 1.241 . S
O12 Co0 2.137 1_655 S
O12 C3 1.247 . S
O13 Co0 2.244 . S
O13 C3 1.272 1_455 S
O13 Co5 2.135 . S
Co14 O15 2.216 . S
Co14 O16 2.091 . S
Co14 O18 2.004 . S
Co14 O24 2.021 . S
Co14 O26 2.137 . S
Co14 O27 2.244 . S
O15 Co14 2.216 . S
O15 C22 1.247 . S
O16 Co14 2.091 . S
O16 C22 1.261 . S
C17 O26 1.247 . S
C17 O27 1.272 . S
O18 Co14 2.004 . S
O18 C23 1.259 . S
Co19 O20 2.061 . S
Co19 O25 2.052 . S
Co19 O27 2.135 . S
O20 Co19 2.061 . S
O20 C23 1.235 . S
C21 O24 1.238 . S
C21 O25 1.241 . S
C22 O15 1.247 . S
C22 O16 1.261 . S
C23 O18 1.259 . S
C23 O20 1.235 . S
O24 Co14 2.021 . S
O24 C21 1.238 . S
O25 Co19 2.052 . S
O25 C21 1.241 . S
O26 Co14 2.137 . S
O26 C17 1.247 . S
O27 Co14 2.244 . S
O27 C17 1.272 . S
O27 Co19 2.135 . S
Co28 O29 2.216 . S
Co28 O30 2.091 . S
Co28 O32 2.004 . S
Co28 O38 2.021 . S
Co28 O40 2.137 . S
Co28 O41 2.244 . S
O29 Co28 2.216 . S
O29 C36 1.247 . S
O30 Co28 2.091 . S
O30 C36 1.261 . S
C31 O40 1.247 . S
C31 O41 1.272 . S
O32 Co28 2.004 . S
O32 C37 1.259 . S
Co33 O34 2.061 . S
Co33 O39 2.052 . S
Co33 O41 2.135 . S
O34 Co33 2.061 . S
O34 C37 1.235 . S
C35 O38 1.238 . S
C35 O39 1.241 . S
C36 O29 1.247 . S
C36 O30 1.261 . S
C37 O32 1.259 . S
C37 O34 1.235 . S
O38 Co28 2.021 . S
O38 C35 1.238 . S
O39 Co33 2.052 . S
O39 C35 1.241 . S
O40 Co28 2.137 . S
O40 C31 1.247 . S
O41 Co28 2.244 . S
O41 C31 1.272 . S
O41 Co33 2.135 . S
Co42 O43 2.216 . S
Co42 O44 2.091 1_565 S
Co42 O46 2.004 1_565 S
Co42 O52 2.021 . S
Co42 O54 2.137 1_565 S
Co42 O55 2.244 . S
O43 Co42 2.216 . S
O43 C50 1.247 . S
O44 Co42 2.091 1_545 S
O44 C50 1.261 1_545 S
C45 O54 1.247 . S
C45 O55 1.272 1_545 S
O46 Co42 2.004 1_545 S
O46 C51 1.259 . S
Co47 O48 2.061 . S
Co47 O53 2.052 . S
Co47 O55 2.135 . S
O48 Co47 2.061 . S
O48 C51 1.235 1_565 S
C49 O52 1.238 . S
C49 O53 1.241 . S
C50 O43 1.247 . S
C50 O44 1.261 1_565 S
C51 O46 1.259 . S
C51 O48 1.235 1_545 S
O52 Co42 2.021 . S
O52 C49 1.238 . S
O53 Co47 2.052 . S
O53 C49 1.241 . S
O54 Co42 2.137 1_545 S
O54 C45 1.247 . S
O55 Co42 2.244 . S
O55 C45 1.272 1_565 S
O55 Co47 2.135 . S
Co56 O57 2.216 . S
Co56 O58 2.091 . S
Co56 O60 2.004 1_655 S
Co56 O66 2.021 . S
Co56 O68 2.137 . S
Co56 O69 2.244 1_655 S
O57 Co56 2.216 . S
O57 C64 1.247 . S
O58 Co56 2.091 . S
O58 C64 1.261 . S
C59 O68 1.247 1_455 S
C59 O69 1.272 . S
O60 Co56 2.004 1_455 S
O60 C65 1.259 . S
Co61 O62 2.061 . S
Co61 O67 2.052 . S
Co61 O69 2.135 . S
O62 Co61 2.061 . S
O62 C65 1.235 . S
C63 O66 1.238 1_455 S
C63 O67 1.241 . S
C64 O57 1.247 . S
C64 O58 1.261 . S
C65 O60 1.259 . S
C65 O62 1.235 . S
O66 Co56 2.021 . S
O66 C63 1.238 1_655 S
O67 Co61 2.052 . S
O67 C63 1.241 . S
O68 Co56 2.137 . S
O68 C59 1.247 1_655 S
O69 Co56 2.244 1_455 S
O69 C59 1.272 . S
O69 Co61 2.135 . S
Co70 O71 2.216 . S
Co70 O72 2.091 . S
Co70 O74 2.004 . S
Co70 O80 2.021 . S
Co70 O82 2.137 . S
Co70 O83 2.244 . S
O71 Co70 2.216 . S
O71 C78 1.247 . S
O72 Co70 2.091 . S
O72 C78 1.261 . S
C73 O82 1.247 . S
C73 O83 1.272 . S
O74 Co70 2.004 . S
O74 C79 1.259 . S
Co75 O76 2.061 . S
Co75 O81 2.052 . S
Co75 O83 2.135 . S
O76 Co75 2.061 . S
O76 C79 1.235 . S
C77 O80 1.238 . S
C77 O81 1.241 . S
C78 O71 1.247 . S
C78 O72 1.261 . S
C79 O74 1.259 . S
C79 O76 1.235 . S
O80 Co70 2.021 . S
O80 C77 1.238 . S
O81 Co75 2.052 . S
O81 C77 1.241 . S
O82 Co70 2.137 . S
O82 C73 1.247 . S
O83 Co70 2.244 . S
O83 C73 1.272 . S
O83 Co75 2.135 . S
Co84 O85 2.216 . S
Co84 O86 2.091 . S
Co84 O88 2.004 . S
Co84 O94 2.021 . S
Co84 O96 2.137 . S
Co84 O97 2.244 . S
O85 Co84 2.216 . S
O85 C92 1.247 . S
O86 Co84 2.091 . S
O86 C92 1.261 . S
C87 O96 1.247 . S
C87 O97 1.272 . S
O88 Co84 2.004 . S
O88 C93 1.259 . S
Co89 O90 2.061 . S
Co89 O95 2.052 . S
Co89 O97 2.135 . S
O90 Co89 2.061 . S
O90 C93 1.235 . S
C91 O94 1.238 . S
C91 O95 1.241 . S
C92 O85 1.247 . S
C92 O86 1.261 . S
C93 O88 1.259 . S
C93 O90 1.235 . S
O94 Co84 2.021 . S
O94 C91 1.238 . S
O95 Co89 2.052 . S
O95 C91 1.241 . S
O96 Co84 2.137 . S
O96 C87 1.247 . S
O97 Co84 2.244 . S
O97 C87 1.272 . S
O97 Co89 2.135 . S
Co98 O99 2.216 . S
Co98 O100 2.091 1_545 S
Co98 O102 2.004 1_545 S
Co98 O108 2.021 . S
Co98 O110 2.137 1_545 S
Co98 O111 2.244 . S
O99 Co98 2.216 . S
O99 C106 1.247 . S
O100 Co98 2.091 1_565 S
O100 C106 1.261 1_565 S
C101 O110 1.247 . S
C101 O111 1.272 1_565 S
O102 Co98 2.004 1_565 S
O102 C107 1.259 . S
Co103 O104 2.061 . S
Co103 O109 2.052 . S
Co103 O111 2.135 . S
O104 Co103 2.061 . S
O104 C107 1.235 1_545 S
C105 O108 1.238 . S
C105 O109 1.241 . S
C106 O99 1.247 . S
C106 O100 1.261 1_545 S
C107 O102 1.259 . S
C107 O104 1.235 1_565 S
O108 Co98 2.021 . S
O108 C105 1.238 . S
O109 Co103 2.052 . S
O109 C105 1.241 . S
O110 Co98 2.137 1_565 S
O110 C101 1.247 . S
O111 Co98 2.244 . S
O111 C101 1.272 1_545 S
O111 Co103 2.135 . S
C112 C113 1.170 1_455 S
C112 C114 1.380 1_556 S
C113 C112 1.170 1_655 S
C114 C112 1.380 1_554 S
C114 C115 1.170 . S
C115 C114 1.170 . S
C116 C117 1.170 . S
C116 C118 1.380 . S
C117 C116 1.170 . S
C118 C116 1.380 . S
C118 C119 1.170 . S
C119 C118 1.170 . S
C120 C121 1.170 . S
C120 C122 1.380 1_564 S
C121 C120 1.170 . S
C122 C120 1.380 1_546 S
C122 C123 1.170 . S
C123 C122 1.170 . S
C124 C125 1.170 . S
C124 C126 1.380 1_645 S
C125 C124 1.170 . S
C126 C124 1.380 1_465 S
C126 C127 1.170 . S
C127 C126 1.170 . S
C128 C129 1.170 . S
C128 C130 1.380 . S
C129 C128 1.170 . S
C130 C128 1.380 . S
C130 C131 1.170 . S
C131 C130 1.170 . S
C132 C133 1.170 . S
C132 C134 1.380 . S
C133 C132 1.170 . S
C134 C132 1.380 . S
C134 C135 1.170 . S
C135 C134 1.170 . S
C136 C137 1.170 . S
C136 C138 1.380 . S
C137 C136 1.170 . S
C138 C136 1.380 . S
C138 C139 1.170 . S
C139 C138 1.170 . S
C140 C141 1.170 . S
C140 C142 1.380 . S
C141 C140 1.170 . S
C142 C140 1.380 . S
C142 C143 1.170 . S
C143 C142 1.170 . S
C144 C145 1.170 . S
C144 C146 1.380 . S
C145 C144 1.170 . S
C146 C144 1.380 . S
C146 C147 1.170 . S
C147 C146 1.170 . S
C148 C149 1.170 . S
C148 C150 1.380 . S
C149 C148 1.170 . S
C150 C148 1.380 . S
C150 C151 1.170 . S
C151 C150 1.170 . S
C152 C153 1.170 . S
C152 C154 1.380 . S
C153 C152 1.170 . S
C154 C152 1.380 . S
C154 C155 1.170 . S
C155 C154 1.170 . S
C156 C157 1.170 . S
C156 C158 1.380 . S
C157 C156 1.170 . S
C158 C156 1.380 . S
C158 C159 1.170 . S
C159 C158 1.170 . S
C160 C161 1.170 . S
C160 C162 1.380 . S
C161 C160 1.170 . S
C162 C160 1.380 . S
C162 C163 1.170 . S
C163 C162 1.170 . S
C164 C165 1.170 . S
C164 C166 1.380 . S
C165 C164 1.170 . S
C166 C164 1.380 . S
C166 C167 1.170 . S
C167 C166 1.170 . S
C168 C169 1.170 . S
C168 C170 1.380 . S
C169 C168 1.170 . S
C170 C168 1.380 . S
C170 C171 1.170 . S
C171 C170 1.170 . S
C172 C173 1.170 . S
C172 C174 1.380 . S
C173 C172 1.170 . S
C174 C172 1.380 . S
C174 C175 1.170 . S
C175 C174 1.170 . S
C113 C63 1.565 1_655 S
C115 C8 1.628 . S
C117 C22 1.621 . S
C119 C78 1.596 . S
C121 C36 1.613 . S
C123 C91 1.567 . S
C125 C106 1.613 . S
C127 C50 1.614 . S
C129 C7 1.545 . S
C131 C35 1.520 . S
C133 C21 1.497 . S
C135 C49 1.457 . S
C137 C92 1.430 . S
C139 C64 1.437 . S
C141 C77 1.431 . S
C143 C105 1.442 . S
C145 C79 1.165 . S
C147 C3 1.208 . S
C149 C17 1.135 . S
C151 C87 1.103 . S
C153 C31 1.194 . S
C155 C107 1.151 . S
C157 C59 1.132 . S
C159 C45 1.101 . S
C161 C65 1.066 . S
C163 C23 1.083 . S
C165 C73 1.140 . S
C167 C37 1.102 . S
C169 C93 1.051 . S
C171 C51 1.051 . S
C173 C9 1.141 . S
C175 C101 1.161 . S
