# Generated by pormake.
# Topology pcu, (6)-cn, num edge types: 1
# Building blocks:
#     Node 0, Type 0, BuildingBlock: JUFBIX_clean_sbu_0, # of connection points: 6
#     Edge 1, Type (0, 0), BuildingBlock: EZIPEK_clean_linker_0, # of connection points: 2
#     Edge 2, Type (0, 0), BuildingBlock: EZIPEK_clean_linker_0, # of connection points: 2
#     Edge 3, Type (0, 0), BuildingBlock: EZIPEK_clean_linker_0, # of connection points: 2
# Relax obj value: 0.000
# Max RMSD: 0.000
# Mean RMSD: 0.000
data_MOF--net-pcu--node1-JUFBIX_clean_sbu_0--edge1-EZIPEK_clean_linker_0
_symmetry_space_group_name_H-M    P1
_symmetry_Int_Tables_number       1
_symmetry_cell_setting            triclinic
loop_
_symmetry_equiv_pos_as_xyz
'x, y, z'
_cell_length_a     10.855465
_cell_length_b     15.628577
_cell_length_c     10.903241
_cell_angle_alpha  83.818113
_cell_angle_beta   91.826875
_cell_angle_gamma 101.70674
loop_
_atom_site_label
_atom_site_type_symbol
_atom_site_fract_x
_atom_site_fract_y
_atom_site_fract_z
_atom_type_partial_charge
Co0 Co 0.99634 0.97202 0.01861 0.0
C1 C 0.02399 0.05208 0.23893 0.0
Co2 Co 0.04217 0.11732 0.99487 0.0
C3 C 1.01263 0.78998 1.00212 0.0
C4 C 0.87152 0.80386 0.12736 0.0
N5 N 0.95968 0.85062 0.04828 0.0
N6 N 0.96045 0.70779 0.04964 0.0
C7 C 0.87178 0.71591 0.12827 0.0
H8 H 0.08839 0.80559 0.93617 0.0
H9 H 0.81153 0.8321 0.18189 0.0
C10 C 1.01452 1.03727 0.77454 0.0
N11 N 0.07883 0.23872 0.9652 0.0
C12 C 0.02587 0.29936 0.01135 0.0
C13 C 0.16699 0.28548 0.88613 0.0
N14 N 0.07806 0.38155 0.96384 0.0
C15 C 0.16674 0.37343 0.88522 0.0
C16 C 0.25352 0.04502 0.01046 0.0
O17 O 0.99028 0.96581 0.8452 0.0
O18 O 0.03855 0.10972 0.82193 0.0
O19 O 0.21574 0.11698 0.99808 0.0
O20 O 0.17382 0.97267 0.0211 0.0
O21 O 0.04822 0.12353 0.16828 0.0
H22 H 0.227 0.25725 0.83161 0.0
H23 H 0.9501 0.28375 0.07729 0.0
O24 O 0.99996 0.97962 0.19155 0.0
O25 O 0.82276 0.97236 0.0154 0.0
O26 O 0.86468 0.11667 0.99238 0.0
C27 C 0.78498 1.04432 1.00302 0.0
H28 H 0.81261 0.66207 0.18285 0.0
H29 H 0.22592 0.42727 0.83065 0.0
C30 C 0.09233 0.99468 0.44905 0.0
C31 C 0.02474 0.0512 0.3759 0.0
C32 C 0.94618 0.09466 0.56443 0.0
C33 C 1.01377 1.03814 0.63758 0.0
N34 N 0.13626 0.92394 0.64933 0.0
N35 N 0.90224 0.1654 0.36414 0.0
C36 C 0.08209 0.98499 0.5799 0.0
C37 C 0.95641 0.10435 0.43357 0.0
N38 N 0.17506 0.95553 0.39403 0.0
N39 N 0.86345 0.13382 0.61945 0.0
H40 H 0.89375 0.16979 0.26861 0.0
H41 H 0.87086 0.21586 0.40082 0.0
H42 H 0.84974 0.12786 0.71425 0.0
H43 H 0.79827 0.16541 0.57125 0.0
H44 H 0.24024 0.92395 0.44224 0.0
H45 H 0.18878 0.96148 0.29923 0.0
H46 H 0.16763 0.87348 0.61265 0.0
H47 H 0.14475 0.91955 0.74487 0.0
C48 C 0.46374 0.06009 0.1167 0.0
C49 C 0.38997 0.04629 0.00826 0.0
C50 C 0.57477 1.02925 0.89678 0.0
C51 C 0.64853 1.04305 1.00521 0.0
N52 N 0.65918 0.04889 0.22511 0.0
N53 N 0.37932 1.04044 0.78837 0.0
C54 C 0.59208 0.05267 0.11712 0.0
C55 C 0.44642 1.03666 0.89635 0.0
N56 N 0.41254 0.08434 0.21731 0.0
N57 N 0.62597 1.00501 0.79616 0.0
H58 H 0.28726 0.05056 0.78441 0.0
H59 H 0.41792 1.04268 0.70164 0.0
H60 H 0.7187 0.99658 0.79463 0.0
H61 H 0.57414 0.98524 0.71856 0.0
H62 H 0.46438 0.10411 0.2949 0.0
H63 H 0.3198 0.09277 0.21885 0.0
H64 H 0.62057 0.04664 0.31183 0.0
H65 H 0.75124 1.03877 0.22907 0.0
C66 C 0.08312 0.59246 0.10205 0.0
C67 C 0.99349 0.62692 0.02505 0.0
C68 C 0.9554 0.49689 0.91142 0.0
C69 C 0.04502 0.46242 0.98843 0.0
N70 N 0.19853 0.47452 0.15192 0.0
N71 N 0.83992 0.61479 0.86161 0.0
C72 C 0.10994 0.50947 0.08285 0.0
C73 C 0.92856 0.57986 0.93064 0.0
N74 N 0.14026 0.6393 0.19439 0.0
N75 N 0.89831 0.45007 0.81904 0.0
H76 H 0.82117 0.6763 0.87324 0.0
H77 H 0.78291 0.58335 0.79483 0.0
H78 H 0.91511 0.38834 0.80567 0.0
H79 H 0.83653 0.47187 0.75397 0.0
H80 H 0.20212 0.61754 0.2594 0.0
H81 H 0.12346 0.70104 0.20774 0.0
H82 H 0.25547 0.50592 0.21879 0.0
H83 H 0.21726 0.41301 0.1403 0.0
loop_
_geom_bond_atom_site_label_1
_geom_bond_atom_site_label_2
_geom_bond_distance
_geom_bond_site_symmetry_2
_ccdc_geom_bond_type
Co0 N5 2.057 1_556 S
Co0 O17 2.021 . S
Co0 O20 2.062 1_655 S
Co0 O24 2.117 1_556 S
Co0 O25 2.020 . S
C1 O21 1.259 . S
C1 O24 1.258 1_445 S
Co2 N11 2.057 1_554 S
Co2 O18 2.117 1_554 S
Co2 O19 2.020 . S
Co2 O21 2.021 . S
Co2 O26 2.062 1_455 S
C3 N5 1.316 1_556 S
C3 N6 1.347 1_556 S
C3 H8 0.931 . S
C4 N5 1.375 . S
C4 C7 1.350 . S
C4 H9 0.930 . S
N5 Co0 2.057 1_554 S
N5 C3 1.316 1_554 S
N5 C4 1.375 . S
N6 C3 1.347 1_554 S
N6 C7 1.373 . S
C7 C4 1.350 . S
C7 N6 1.373 . S
C7 H28 0.931 . S
H8 C3 0.931 . S
H9 C4 0.930 . S
C10 O17 1.259 . S
C10 O18 1.258 1_665 S
N11 Co2 2.057 1_556 S
N11 C12 1.316 1_556 S
N11 C13 1.375 . S
C12 N11 1.316 1_554 S
C12 N14 1.347 1_554 S
C12 H23 0.931 . S
C13 N11 1.375 . S
C13 C15 1.350 . S
C13 H22 0.930 . S
N14 C12 1.347 1_556 S
N14 C15 1.373 . S
C15 C13 1.350 . S
C15 N14 1.373 . S
C15 H29 0.931 . S
C16 O19 1.264 1_556 S
C16 O20 1.248 1_545 S
O17 Co0 2.021 . S
O17 C10 1.259 . S
O18 Co2 2.117 1_556 S
O18 C10 1.258 1_445 S
O19 Co2 2.020 . S
O19 C16 1.264 1_554 S
O20 Co0 2.062 1_455 S
O20 C16 1.248 1_565 S
O21 C1 1.259 . S
O21 Co2 2.021 . S
H22 C13 0.930 . S
H23 C12 0.931 . S
O24 Co0 2.117 1_554 S
O24 C1 1.258 1_665 S
O25 Co0 2.020 . S
O25 C27 1.261 1_556 S
O26 Co2 2.062 1_655 S
O26 C27 1.251 1_545 S
C27 O25 1.261 1_554 S
C27 O26 1.251 1_565 S
H28 C7 0.931 . S
H29 C15 0.931 . S
C30 C31 1.363 1_565 S
C30 C36 1.379 . S
C30 N38 1.356 . S
C31 C30 1.363 1_545 S
C31 C37 1.363 1_455 S
C32 C33 1.363 1_655 S
C32 C37 1.379 . S
C32 N39 1.356 . S
C33 C32 1.363 1_455 S
C33 C36 1.363 1_545 S
N34 C36 1.356 . S
N34 H46 0.984 . S
N34 H47 0.985 . S
N35 C37 1.356 . S
N35 H40 0.984 . S
N35 H41 0.985 . S
C36 C30 1.379 . S
C36 C33 1.363 1_565 S
C36 N34 1.356 . S
C37 C31 1.363 1_655 S
C37 C32 1.379 . S
C37 N35 1.356 . S
N38 C30 1.356 . S
N38 H44 0.984 . S
N38 H45 0.984 . S
N39 C32 1.356 . S
N39 H42 0.984 . S
N39 H43 0.985 . S
H40 N35 0.984 . S
H41 N35 0.985 . S
H42 N39 0.984 . S
H43 N39 0.985 . S
H44 N38 0.984 . S
H45 N38 0.984 . S
H46 N34 0.984 . S
H47 N34 0.985 . S
C48 C49 1.363 1_565 S
C48 C54 1.379 . S
C48 N56 1.356 . S
C49 C48 1.363 1_545 S
C49 C55 1.363 1_554 S
C50 C51 1.363 1_556 S
C50 C55 1.379 . S
C50 N57 1.356 . S
C51 C50 1.363 1_554 S
C51 C54 1.363 1_545 S
N52 C54 1.356 . S
N52 H64 0.984 . S
N52 H65 0.985 . S
N53 C55 1.356 . S
N53 H58 0.984 . S
N53 H59 0.985 . S
C54 C48 1.379 . S
C54 C51 1.363 1_565 S
C54 N52 1.356 . S
C55 C49 1.363 1_556 S
C55 C50 1.379 . S
C55 N53 1.356 . S
N56 C48 1.356 . S
N56 H62 0.984 . S
N56 H63 0.984 . S
N57 C50 1.356 . S
N57 H60 0.984 . S
N57 H61 0.985 . S
H58 N53 0.984 . S
H59 N53 0.985 . S
H60 N57 0.984 . S
H61 N57 0.985 . S
H62 N56 0.984 . S
H63 N56 0.984 . S
H64 N52 0.984 . S
H65 N52 0.985 . S
C66 C67 1.363 . S
C66 C72 1.379 . S
C66 N74 1.356 . S
C67 C66 1.363 . S
C67 C73 1.363 1_454 S
C68 C69 1.363 1_656 S
C68 C73 1.379 . S
C68 N75 1.356 . S
C69 C68 1.363 1_454 S
C69 C72 1.363 . S
N70 C72 1.356 . S
N70 H82 0.984 . S
N70 H83 0.985 . S
N71 C73 1.356 . S
N71 H76 0.984 . S
N71 H77 0.985 . S
C72 C66 1.379 . S
C72 C69 1.363 . S
C72 N70 1.356 . S
C73 C67 1.363 1_656 S
C73 C68 1.379 . S
C73 N71 1.356 . S
N74 C66 1.356 . S
N74 H80 0.984 . S
N74 H81 0.984 . S
N75 C68 1.356 . S
N75 H78 0.984 . S
N75 H79 0.985 . S
H76 N71 0.984 . S
H77 N71 0.985 . S
H78 N75 0.984 . S
H79 N75 0.985 . S
H80 N74 0.984 . S
H81 N74 0.984 . S
H82 N70 0.984 . S
H83 N70 0.985 . S
C31 C1 1.496 . S
C33 C10 1.496 1_445 S
C49 C16 1.499 1_554 S
C51 C27 1.499 1_545 S
C67 N6 1.465 1_455 S
C69 N14 1.465 1_554 S
