# Generated by pormake.
# Topology bnn, (5)-cn, num edge types: 1
# Building blocks:
#     Node 0, Type 0, BuildingBlock: BEQFEK_clean_sbu_0, # of connection points: 5
#     Node 1, Type 0, BuildingBlock: BEQFEK_clean_sbu_0, # of connection points: 5
#     Edge 2, Type (0, 0), BuildingBlock: TEMPAE_clean_linker_10, # of connection points: 2
#     Edge 3, Type (0, 0), BuildingBlock: TEMPAE_clean_linker_10, # of connection points: 2
#     Edge 4, Type (0, 0), BuildingBlock: TEMPAE_clean_linker_10, # of connection points: 2
#     Edge 5, Type (0, 0), BuildingBlock: TEMPAE_clean_linker_10, # of connection points: 2
#     Edge 6, Type (0, 0), BuildingBlock: TEMPAE_clean_linker_10, # of connection points: 2
# Relax obj value: 0.103
# Max RMSD: 0.191
# Mean RMSD: 0.179
data_MOF--net-bnn--node1-BEQFEK_clean_sbu_0--edge1-TEMPAE_clean_linker_10
_symmetry_space_group_name_H-M    P1
_symmetry_Int_Tables_number       1
_symmetry_cell_setting            triclinic
loop_
_symmetry_equiv_pos_as_xyz
'x, y, z'
_cell_length_a     25.73561
_cell_length_b     27.093909
_cell_length_c     19.704168
_cell_angle_alpha  91.355293
_cell_angle_beta   85.824997
_cell_angle_gamma 110.94639
loop_
_atom_site_label
_atom_site_type_symbol
_atom_site_fract_x
_atom_site_fract_y
_atom_site_fract_z
_atom_type_partial_charge
Co0 Co 0.34301 0.68729 0.09841 0.0
Co1 Co 0.3507 0.6823 0.93847 0.0
C2 C 0.40158 0.78425 0.01206 0.0
O3 O 0.38466 0.76116 0.06932 0.0
O4 O 0.3919 0.75865 0.9564 0.0
C5 C 0.32905 0.72708 0.23338 0.0
O6 O 0.34324 0.77295 0.20261 0.0
C7 C 0.3362 0.69763 0.79292 0.0
C8 C 0.35622 0.63077 0.74698 0.0
C9 C 0.34229 0.67375 0.73122 0.0
N10 N 0.34616 0.66982 0.8429 0.0
N11 N 0.35764 0.62974 0.81493 0.0
C12 C 0.32475 0.74771 0.8037 0.0
H13 H 0.33054 0.76135 0.85705 0.0
H14 H 0.28111 0.7408 0.79243 0.0
H15 H 0.35261 0.7787 0.76821 0.0
C16 C 0.22321 0.63387 0.07631 0.0
N17 N 0.27643 0.65866 0.05249 0.0
N18 N 0.27913 0.65785 0.98547 0.0
C19 C 0.22753 0.63263 0.96458 0.0
C20 C 0.19046 0.6167 0.02147 0.0
C21 C 0.20472 0.62535 0.15026 0.0
H22 H 0.21668 0.66414 0.17639 0.0
H23 H 0.15896 0.60469 0.15827 0.0
H24 H 0.22653 0.6019 0.17335 0.0
O25 O 0.3905 0.64392 0.08045 0.0
O26 O 0.39276 0.63916 0.96768 0.0
H27 H 0.24159 0.59736 0.87009 0.0
H28 H 0.17061 0.59439 0.88718 0.0
C29 C 0.21506 0.61904 0.89203 0.0
H30 H 0.22528 0.65599 0.86245 0.0
H31 H 0.36753 0.6021 0.84217 0.0
O32 O 0.32556 0.68609 0.19841 0.0
C33 C 0.40576 0.62723 0.0244 0.0
Co34 Co 0.6772 0.3253 0.09643 0.0
Co35 Co 0.68916 0.32655 0.93687 0.0
C36 C 0.62312 0.38305 0.01483 0.0
O37 O 0.63165 0.36659 0.07151 0.0
O38 O 0.64374 0.37162 0.95845 0.0
C39 C 0.62511 0.30834 0.23447 0.0
O40 O 0.57847 0.30353 0.20717 0.0
C41 C 0.66262 0.31751 0.79241 0.0
C42 C 0.72986 0.29222 0.74598 0.0
C43 C 0.68332 0.30313 0.73109 0.0
N44 N 0.69539 0.31489 0.84132 0.0
N45 N 0.73573 0.30021 0.81304 0.0
C46 C 0.61065 0.32996 0.80548 0.0
H47 H 0.58987 0.31384 0.85568 0.0
H48 H 0.58141 0.31345 0.76502 0.0
H49 H 0.62194 0.3735 0.8068 0.0
C50 C 0.63116 0.2093 0.07187 0.0
N51 N 0.65489 0.25972 0.05002 0.0
N52 N 0.65739 0.26043 0.98303 0.0
C53 C 0.63414 0.21052 0.96031 0.0
C54 C 0.61711 0.17661 0.01574 0.0
C55 C 0.61865 0.1932 0.14508 0.0
H56 H 0.65528 0.21461 0.17435 0.0
H57 H 0.58304 0.20409 0.16601 0.0
H58 H 0.60758 0.14996 0.15128 0.0
O59 O 0.75703 0.36702 0.07491 0.0
O60 O 0.76632 0.36501 0.96232 0.0
H61 H 0.66903 0.20444 0.86021 0.0
H62 H 0.60296 0.15288 0.88081 0.0
C63 C 0.62733 0.19554 0.88701 0.0
H64 H 0.6061 0.21914 0.86321 0.0
H65 H 0.76679 0.29479 0.83987 0.0
O66 O 0.66928 0.31588 0.19634 0.0
C67 C 0.78709 0.37927 0.01936 0.0
C68 C 0.482 0.6014 0.06533 0.0
C69 C 0.43704 0.59118 0.02455 0.0
C70 C 0.51315 0.56803 0.06331 0.0
C71 C 0.49731 0.5224 0.02161 0.0
C72 C 0.45088 0.51131 0.98177 0.0
C73 C 0.42198 0.54647 0.9827 0.0
C74 C 0.56353 0.58205 0.10475 0.0
C75 C 0.4314 0.4621 0.93863 0.0
C76 C 0.60186 0.45728 0.96592 0.0
C77 C 0.58984 0.41752 0.0151 0.0
C78 C 0.5727 0.49234 0.96814 0.0
C79 C 0.52931 0.48624 0.01942 0.0
C80 C 0.5161 0.44525 0.06815 0.0
C81 C 0.54719 0.41191 0.06607 0.0
C82 C 0.58897 0.53643 0.91639 0.0
C83 C 0.46889 0.43635 0.12215 0.0
H84 H 0.49373 0.63629 0.09725 0.0
H85 H 0.38678 0.53848 0.95163 0.0
H86 H 0.55786 0.55026 0.1421 0.0
H87 H 0.60107 0.58544 0.07091 0.0
H88 H 0.57134 0.61985 0.13268 0.0
H89 H 0.39291 0.45805 0.91329 0.0
H90 H 0.4645 0.4628 0.89895 0.0
H91 H 0.42311 0.42657 0.97062 0.0
H92 H 0.6352 0.46194 0.92685 0.0
H93 H 0.53763 0.38091 0.10388 0.0
H94 H 0.59992 0.57512 0.94274 0.0
H95 H 0.55324 0.53235 0.88565 0.0
H96 H 0.62498 0.53686 0.88139 0.0
H97 H 0.47731 0.47162 0.15527 0.0
H98 H 0.46263 0.40142 0.15457 0.0
H99 H 0.42953 0.43056 0.09794 0.0
C100 C 0.88412 0.4146 0.96457 0.0
C101 C 0.84684 0.4124 0.021 0.0
C102 C 0.94055 0.44705 0.96487 0.0
C103 C 0.95986 0.4788 0.02246 0.0
C104 C 0.92245 0.47675 0.07957 0.0
C105 C 0.8665 0.44319 0.07841 0.0
C106 C 0.97948 0.44746 0.90354 0.0
C107 C 0.94133 0.51067 0.14145 0.0
C108 C 0.11469 0.5309 0.04976 0.0
C109 C 0.13139 0.58201 0.02301 0.0
C110 C 0.05896 0.49666 0.04949 0.0
C111 C 0.01914 0.51451 0.02278 0.0
C112 C 0.03597 0.5665 0.99634 0.0
C113 C 0.09221 0.59954 0.99618 0.0
C114 C 0.04282 0.44127 0.07705 0.0
C115 C 0.99459 0.58721 0.96841 0.0
H116 H 0.86924 0.39067 0.9202 0.0
H117 H 0.83783 0.44201 0.12199 0.0
H118 H -0.00293 0.48766 0.88095 0.0
H119 H 0.015 0.43727 0.91909 0.0
H120 H 0.95826 0.41917 0.86377 0.0
H121 H 0.90696 0.50456 0.18156 0.0
H122 H 0.97552 0.50176 0.16331 0.0
H123 H 0.95813 0.55301 0.12661 0.0
H124 H 0.14552 0.51753 0.06988 0.0
H125 H 0.10564 0.63921 0.97549 0.0
H126 H 0.02422 0.4121 0.03699 0.0
H127 H 0.01069 0.43472 0.11996 0.0
H128 H 0.079 0.43337 0.09513 0.0
H129 H 0.97516 0.56271 0.92472 0.0
H130 H 0.01424 0.62898 0.95129 0.0
H131 H 0.9606 0.58438 0.00787 0.0
C132 C 0.43401 0.87201 0.07019 0.0
C133 C 0.43314 0.84202 0.0109 0.0
C134 C 0.46388 0.92658 0.07069 0.0
C135 C 0.49428 0.95185 0.01066 0.0
C136 C 0.49379 0.92193 0.95062 0.0
C137 C 0.46288 0.86739 0.9513 0.0
C138 C 0.46271 0.95723 0.13549 0.0
C139 C 0.52625 0.94749 0.88584 0.0
C140 C 0.53101 0.10012 0.99534 0.0
C141 C 0.58579 0.11927 0.01505 0.0
C142 C 0.50071 0.04562 0.99349 0.0
C143 C 0.52632 0.0097 0.01091 0.0
C144 C 0.58202 0.02914 0.03034 0.0
C145 C 0.61103 0.08391 0.03267 0.0
C146 C 0.44118 0.02651 0.97358 0.0
C147 C 0.61092 0.9921 0.04856 0.0
H148 H 0.41094 0.85292 0.1164 0.0
H149 H 0.46261 0.84453 0.90535 0.0
H150 H 0.50562 0.97642 0.15205 0.0
H151 H 0.44641 0.98909 0.1263 0.0
H152 H 0.4364 0.93174 0.17758 0.0
H153 H 0.52203 0.91862 0.84371 0.0
H154 H 0.51164 0.97892 0.86947 0.0
H155 H 0.5711 0.96661 0.89498 0.0
H156 H 0.51184 0.12792 0.98181 0.0
H157 H 0.65363 0.0992 0.04753 0.0
H158 H 0.41289 0.0029 0.01568 0.0
H159 H 0.4365 0.00026 0.9286 0.0
H160 H 0.42752 0.05962 0.96138 0.0
H161 H 0.58829 0.96779 0.09335 0.0
H162 H 0.65487 0.01355 0.06044 0.0
H163 H 0.61041 0.96454 0.00582 0.0
C164 C 0.29285 0.70203 0.64349 0.0
C165 C 0.33891 0.69048 0.6615 0.0
C166 C 0.28692 0.7119 0.57526 0.0
C167 C 0.32835 0.7106 0.52452 0.0
C168 C 0.37596 0.70095 0.5432 0.0
C169 C 0.38032 0.69045 0.61136 0.0
C170 C 0.23525 0.72131 0.55712 0.0
C171 C 0.42154 0.70004 0.49089 0.0
C172 C 0.29831 0.67445 0.34092 0.0
C173 C 0.32233 0.72374 0.30854 0.0
C174 C 0.297 0.67004 0.41185 0.0
C175 C 0.32095 0.71595 0.45124 0.0
C176 C 0.34292 0.76609 0.41919 0.0
C177 C 0.34304 0.76942 0.34816 0.0
C178 C 0.27239 0.6159 0.44424 0.0
C179 C 0.36914 0.81588 0.45939 0.0
H180 H 0.26022 0.70088 0.68207 0.0
H181 H 0.41599 0.68157 0.62549 0.0
H182 H 0.24665 0.7572 0.525 0.0
H183 H 0.20942 0.68748 0.52697 0.0
H184 H 0.20957 0.7259 0.60296 0.0
H185 H 0.45763 0.69578 0.51449 0.0
H186 H 0.40483 0.66656 0.45541 0.0
H187 H 0.43655 0.73691 0.46022 0.0
H188 H 0.28159 0.63906 0.31065 0.0
H189 H 0.3616 0.80768 0.32348 0.0
H190 H 0.24292 0.61608 0.48815 0.0
H191 H 0.30614 0.60494 0.46387 0.0
H192 H 0.25007 0.58506 0.40773 0.0
H193 H 0.34116 0.81771 0.50416 0.0
H194 H 0.37881 0.85209 0.42817 0.0
H195 H 0.40847 0.81567 0.4788 0.0
C196 C 0.5784 0.28547 0.35174 0.0
C197 C 0.62728 0.30646 0.30916 0.0
C198 C 0.58076 0.28312 0.42262 0.0
C199 C 0.63315 0.30302 0.45137 0.0
C200 C 0.68245 0.32509 0.40861 0.0
C201 C 0.67894 0.32613 0.3381 0.0
C202 C 0.52745 0.25858 0.46662 0.0
C203 C 0.73911 0.34737 0.43728 0.0
C204 C 0.64908 0.34144 0.63734 0.0
C205 C 0.66256 0.3 0.66268 0.0
C206 C 0.63671 0.34185 0.56913 0.0
C207 C 0.63732 0.2995 0.52585 0.0
C208 C 0.64801 0.25625 0.55244 0.0
C209 C 0.6612 0.25737 0.62037 0.0
C210 C 0.62641 0.38906 0.54242 0.0
C211 C 0.64817 0.20996 0.50833 0.0
H212 H 0.53837 0.27009 0.3296 0.0
H213 H 0.71687 0.34285 0.30558 0.0
H214 H 0.52877 0.22361 0.49363 0.0
H215 H 0.52314 0.28706 0.506 0.0
H216 H 0.48999 0.24599 0.43659 0.0
H217 H 0.7731 0.36533 0.39735 0.0
H218 H 0.73962 0.37791 0.47601 0.0
H219 H 0.74805 0.3156 0.46303 0.0
H220 H 0.65109 0.37485 0.66979 0.0
H221 H 0.6715 0.22525 0.64018 0.0
H222 H 0.58846 0.37617 0.51344 0.0
H223 H 0.66202 0.4117 0.50687 0.0
H224 H 0.62154 0.41589 0.58391 0.0
H225 H 0.61003 0.19521 0.4797 0.0
H226 H 0.65058 0.17684 0.53856 0.0
H227 H 0.68452 0.22278 0.47046 0.0
loop_
_geom_bond_atom_site_label_1
_geom_bond_atom_site_label_2
_geom_bond_distance
_geom_bond_site_symmetry_2
_ccdc_geom_bond_type
Co0 O3 1.970 . S
Co0 N17 1.989 . S
Co0 O25 1.967 . S
Co0 O32 1.920 . S
Co1 O4 1.966 . S
Co1 N10 2.022 . S
Co1 N18 1.993 . S
Co1 O26 1.941 . S
C2 O3 1.258 . S
C2 O4 1.263 1_554 S
O3 Co0 1.970 . S
O3 C2 1.258 . S
O4 Co1 1.966 . S
O4 C2 1.263 1_556 S
C5 O6 1.235 . S
C5 O32 1.289 . S
O6 C5 1.235 . S
C7 C9 1.400 . S
C7 N10 1.351 . S
C7 C12 1.501 . S
C8 C9 1.387 . S
C8 N11 1.341 . S
C9 C7 1.400 . S
C9 C8 1.387 . S
N10 Co1 2.022 . S
N10 C7 1.351 . S
N10 N11 1.365 . S
N11 C8 1.341 . S
N11 N10 1.365 . S
N11 H31 0.862 . S
C12 C7 1.501 . S
C12 H13 0.961 . S
C12 H14 0.961 . S
C12 H15 0.960 . S
H13 C12 0.961 . S
H14 C12 0.961 . S
H15 C12 0.960 . S
C16 N17 1.342 . S
C16 C20 1.401 . S
C16 C21 1.499 . S
N17 Co0 1.989 . S
N17 C16 1.342 . S
N17 N18 1.388 1_554 S
N18 Co1 1.993 . S
N18 N17 1.388 1_556 S
N18 C19 1.346 . S
C19 N18 1.346 . S
C19 C20 1.396 1_556 S
C19 C29 1.510 . S
C20 C16 1.401 . S
C20 C19 1.396 1_554 S
C21 C16 1.499 . S
C21 H22 0.959 . S
C21 H23 0.960 . S
C21 H24 0.961 . S
H22 C21 0.959 . S
H23 C21 0.960 . S
H24 C21 0.961 . S
O25 Co0 1.967 . S
O25 C33 1.258 . S
O26 Co1 1.941 . S
O26 C33 1.266 1_556 S
H27 C29 0.959 . S
H28 C29 0.961 . S
C29 C19 1.510 . S
C29 H27 0.959 . S
C29 H28 0.961 . S
C29 H30 0.960 . S
H30 C29 0.960 . S
H31 N11 0.862 . S
O32 Co0 1.920 . S
O32 C5 1.289 . S
C33 O25 1.258 . S
C33 O26 1.266 1_554 S
Co34 O37 1.970 . S
Co34 N51 1.989 . S
Co34 O59 1.967 . S
Co34 O66 1.920 . S
Co35 O38 1.966 . S
Co35 N44 2.022 . S
Co35 N52 1.993 . S
Co35 O60 1.941 . S
C36 O37 1.258 . S
C36 O38 1.263 1_554 S
O37 Co34 1.970 . S
O37 C36 1.258 . S
O38 Co35 1.966 . S
O38 C36 1.263 1_556 S
C39 O40 1.235 . S
C39 O66 1.289 . S
O40 C39 1.235 . S
C41 C43 1.400 . S
C41 N44 1.351 . S
C41 C46 1.501 . S
C42 C43 1.387 . S
C42 N45 1.341 . S
C43 C41 1.400 . S
C43 C42 1.387 . S
N44 Co35 2.022 . S
N44 C41 1.351 . S
N44 N45 1.365 . S
N45 C42 1.341 . S
N45 N44 1.365 . S
N45 H65 0.862 . S
C46 C41 1.501 . S
C46 H47 0.961 . S
C46 H48 0.961 . S
C46 H49 0.960 . S
H47 C46 0.961 . S
H48 C46 0.961 . S
H49 C46 0.960 . S
C50 N51 1.342 . S
C50 C54 1.401 . S
C50 C55 1.499 . S
N51 Co34 1.989 . S
N51 C50 1.342 . S
N51 N52 1.388 1_554 S
N52 Co35 1.993 . S
N52 N51 1.388 1_556 S
N52 C53 1.346 . S
C53 N52 1.346 . S
C53 C54 1.396 1_556 S
C53 C63 1.510 . S
C54 C50 1.401 . S
C54 C53 1.396 1_554 S
C55 C50 1.499 . S
C55 H56 0.959 . S
C55 H57 0.960 . S
C55 H58 0.961 . S
H56 C55 0.959 . S
H57 C55 0.960 . S
H58 C55 0.961 . S
O59 Co34 1.967 . S
O59 C67 1.258 . S
O60 Co35 1.941 . S
O60 C67 1.266 1_556 S
H61 C63 0.959 . S
H62 C63 0.961 . S
C63 C53 1.510 . S
C63 H61 0.959 . S
C63 H62 0.961 . S
C63 H64 0.960 . S
H64 C63 0.960 . S
H65 N45 0.862 . S
O66 Co34 1.920 . S
O66 C39 1.289 . S
C67 O59 1.258 . S
C67 O60 1.266 1_554 S
C68 C69 1.391 . S
C68 C70 1.394 . S
C68 H84 0.931 . S
C69 C68 1.391 . S
C69 C73 1.376 . S
C70 C68 1.394 . S
C70 C71 1.369 . S
C70 C74 1.531 . S
C71 C70 1.369 . S
C71 C72 1.410 . S
C71 C79 1.503 . S
C72 C71 1.410 . S
C72 C73 1.392 . S
C72 C75 1.511 . S
C73 C69 1.376 . S
C73 C72 1.392 . S
C73 H85 0.929 . S
C74 C70 1.531 . S
C74 H86 0.960 . S
C74 H87 0.962 . S
C74 H88 0.960 . S
C75 C72 1.511 . S
C75 H89 0.957 1_554 S
C75 H90 0.961 . S
C75 H91 0.961 . S
C76 C77 1.370 1_556 S
C76 C78 1.363 . S
C76 H92 0.931 . S
C77 C76 1.370 1_554 S
C77 C81 1.408 . S
C78 C76 1.363 . S
C78 C79 1.370 1_556 S
C78 C82 1.524 . S
C79 C71 1.503 . S
C79 C78 1.370 1_554 S
C79 C80 1.403 . S
C80 C79 1.403 . S
C80 C81 1.404 . S
C80 C83 1.539 . S
C81 C77 1.408 . S
C81 C80 1.404 . S
C81 H93 0.930 . S
C82 C78 1.524 . S
C82 H94 0.956 . S
C82 H95 0.961 . S
C82 H96 0.961 . S
C83 C80 1.539 . S
C83 H97 0.958 . S
C83 H98 0.961 . S
C83 H99 0.960 . S
H84 C68 0.931 . S
H85 C73 0.929 . S
H86 C74 0.960 . S
H87 C74 0.962 . S
H88 C74 0.960 . S
H89 C75 0.957 1_556 S
H90 C75 0.961 . S
H91 C75 0.961 . S
H92 C76 0.931 . S
H93 C81 0.930 . S
H94 C82 0.956 . S
H95 C82 0.961 . S
H96 C82 0.961 . S
H97 C83 0.958 . S
H98 C83 0.961 . S
H99 C83 0.960 . S
C100 C101 1.391 1_556 S
C100 C102 1.394 . S
C100 H116 0.931 . S
C101 C100 1.391 1_554 S
C101 C105 1.376 . S
C102 C100 1.394 . S
C102 C103 1.369 1_556 S
C102 C106 1.531 . S
C103 C102 1.369 1_554 S
C103 C104 1.410 . S
C103 C111 1.503 1_655 S
C104 C103 1.410 . S
C104 C105 1.392 . S
C104 C107 1.511 . S
C105 C101 1.376 . S
C105 C104 1.392 . S
C105 H117 0.929 . S
C106 C102 1.531 . S
C106 H118 0.960 1_655 S
C106 H119 0.962 . S
C106 H120 0.960 . S
C107 C104 1.511 . S
C107 H121 0.961 . S
C107 H122 0.961 . S
C107 H123 0.961 . S
C108 C109 1.370 . S
C108 C110 1.363 . S
C108 H124 0.931 . S
C109 C108 1.370 . S
C109 C113 1.408 1_554 S
C110 C108 1.363 . S
C110 C111 1.370 . S
C110 C114 1.524 . S
C111 C103 1.503 1_455 S
C111 C110 1.370 . S
C111 C112 1.403 1_554 S
C112 C111 1.403 1_556 S
C112 C113 1.404 . S
C112 C115 1.539 . S
C113 C109 1.408 1_556 S
C113 C112 1.404 . S
C113 H125 0.930 . S
C114 C110 1.524 . S
C114 H126 0.956 . S
C114 H127 0.961 1_455 S
C114 H128 0.961 . S
C115 C112 1.539 . S
C115 H129 0.958 . S
C115 H130 0.961 . S
C115 H131 0.960 1_455 S
H116 C100 0.931 . S
H117 C105 0.929 . S
H118 C106 0.960 1_455 S
H119 C106 0.962 . S
H120 C106 0.960 . S
H121 C107 0.961 . S
H122 C107 0.961 . S
H123 C107 0.961 . S
H124 C108 0.931 . S
H125 C113 0.930 . S
H126 C114 0.956 . S
H127 C114 0.961 1_655 S
H128 C114 0.961 . S
H129 C115 0.958 . S
H130 C115 0.961 . S
H131 C115 0.960 1_655 S
C132 C133 1.391 . S
C132 C134 1.394 . S
C132 H148 0.931 . S
C133 C132 1.391 . S
C133 C137 1.376 1_554 S
C134 C132 1.394 . S
C134 C135 1.369 . S
C134 C138 1.531 . S
C135 C134 1.369 . S
C135 C136 1.410 1_554 S
C135 C143 1.503 1_565 S
C136 C135 1.410 1_556 S
C136 C137 1.392 . S
C136 C139 1.511 . S
C137 C133 1.376 1_556 S
C137 C136 1.392 . S
C137 H149 0.929 . S
C138 C134 1.531 . S
C138 H150 0.960 . S
C138 H151 0.962 . S
C138 H152 0.960 . S
C139 C136 1.511 . S
C139 H153 0.961 . S
C139 H154 0.961 . S
C139 H155 0.961 . S
C140 C141 1.370 . S
C140 C142 1.363 . S
C140 H156 0.931 1_554 S
C141 C140 1.370 . S
C141 C145 1.408 . S
C142 C140 1.363 . S
C142 C143 1.370 . S
C142 C146 1.524 1_554 S
C143 C135 1.503 1_545 S
C143 C142 1.370 . S
C143 C144 1.403 . S
C144 C143 1.403 . S
C144 C145 1.404 . S
C144 C147 1.539 1_545 S
C145 C141 1.408 . S
C145 C144 1.404 . S
C145 H157 0.930 . S
C146 C142 1.524 1_556 S
C146 H158 0.953 1_546 S
C146 H159 0.961 1_545 S
C146 H160 0.961 . S
C147 C144 1.539 1_565 S
C147 H161 0.958 . S
C147 H162 0.961 1_565 S
C147 H163 0.960 . S
H148 C132 0.931 . S
H149 C137 0.929 . S
H150 C138 0.960 . S
H151 C138 0.962 . S
H152 C138 0.960 . S
H153 C139 0.961 . S
H154 C139 0.961 . S
H155 C139 0.961 . S
H156 C140 0.931 1_556 S
H157 C145 0.930 . S
H158 C146 0.953 1_564 S
H159 C146 0.961 1_565 S
H160 C146 0.961 . S
H161 C147 0.958 . S
H162 C147 0.961 1_545 S
H163 C147 0.960 . S
C164 C165 1.391 . S
C164 C166 1.394 . S
C164 H180 0.931 . S
C165 C164 1.391 . S
C165 C169 1.376 . S
C166 C164 1.394 . S
C166 C167 1.369 . S
C166 C170 1.531 . S
C167 C166 1.369 . S
C167 C168 1.410 . S
C167 C175 1.503 . S
C168 C167 1.410 . S
C168 C169 1.392 . S
C168 C171 1.511 . S
C169 C165 1.376 . S
C169 C168 1.392 . S
C169 H181 0.929 . S
C170 C166 1.531 . S
C170 H182 0.960 . S
C170 H183 0.962 . S
C170 H184 0.960 . S
C171 C168 1.511 . S
C171 H185 0.961 . S
C171 H186 0.961 . S
C171 H187 0.961 . S
C172 C173 1.370 . S
C172 C174 1.363 . S
C172 H188 0.931 . S
C173 C172 1.370 . S
C173 C177 1.408 . S
C174 C172 1.363 . S
C174 C175 1.370 . S
C174 C178 1.524 . S
C175 C167 1.503 . S
C175 C174 1.370 . S
C175 C176 1.403 . S
C176 C175 1.403 . S
C176 C177 1.404 . S
C176 C179 1.539 . S
C177 C173 1.408 . S
C177 C176 1.404 . S
C177 H189 0.930 . S
C178 C174 1.524 . S
C178 H190 0.956 . S
C178 H191 0.961 . S
C178 H192 0.961 . S
C179 C176 1.539 . S
C179 H193 0.958 . S
C179 H194 0.961 . S
C179 H195 0.960 . S
H180 C164 0.931 . S
H181 C169 0.929 . S
H182 C170 0.960 . S
H183 C170 0.962 . S
H184 C170 0.960 . S
H185 C171 0.961 . S
H186 C171 0.961 . S
H187 C171 0.961 . S
H188 C172 0.931 . S
H189 C177 0.930 . S
H190 C178 0.956 . S
H191 C178 0.961 . S
H192 C178 0.961 . S
H193 C179 0.958 . S
H194 C179 0.961 . S
H195 C179 0.960 . S
C196 C197 1.391 . S
C196 C198 1.394 . S
C196 H212 0.931 . S
C197 C196 1.391 . S
C197 C201 1.376 . S
C198 C196 1.394 . S
C198 C199 1.369 . S
C198 C202 1.531 . S
C199 C198 1.369 . S
C199 C200 1.410 . S
C199 C207 1.503 . S
C200 C199 1.410 . S
C200 C201 1.392 . S
C200 C203 1.511 . S
C201 C197 1.376 . S
C201 C200 1.392 . S
C201 H213 0.929 . S
C202 C198 1.531 . S
C202 H214 0.960 . S
C202 H215 0.962 . S
C202 H216 0.960 . S
C203 C200 1.511 . S
C203 H217 0.961 . S
C203 H218 0.961 . S
C203 H219 0.961 . S
C204 C205 1.370 . S
C204 C206 1.363 . S
C204 H220 0.931 . S
C205 C204 1.370 . S
C205 C209 1.408 . S
C206 C204 1.363 . S
C206 C207 1.370 . S
C206 C210 1.524 . S
C207 C199 1.503 . S
C207 C206 1.370 . S
C207 C208 1.403 . S
C208 C207 1.403 . S
C208 C209 1.404 . S
C208 C211 1.539 . S
C209 C205 1.408 . S
C209 C208 1.404 . S
C209 H221 0.930 . S
C210 C206 1.524 . S
C210 H222 0.956 . S
C210 H223 0.961 . S
C210 H224 0.961 . S
C211 C208 1.539 . S
C211 H225 0.958 . S
C211 H226 0.961 . S
C211 H227 0.960 . S
H212 C196 0.931 . S
H213 C201 0.929 . S
H214 C202 0.960 . S
H215 C202 0.962 . S
H216 C202 0.960 . S
H217 C203 0.961 . S
H218 C203 0.961 . S
H219 C203 0.961 . S
H220 C204 0.931 . S
H221 C209 0.930 . S
H222 C210 0.956 . S
H223 C210 0.961 . S
H224 C210 0.961 . S
H225 C211 0.958 . S
H226 C211 0.961 . S
H227 C211 0.960 . S
C69 C33 1.560 . S
C77 C36 1.556 . S
C101 C67 1.441 . S
C109 C20 1.453 . S
C133 C2 1.552 . S
C141 C54 1.538 . S
C165 C9 1.430 . S
C173 C5 1.485 . S
C197 C39 1.485 . S
C205 C43 1.405 . S
