# Generated by pormake.
# Topology unj, (4)-cn, num edge types: 1
# Building blocks:
#     Node 0, Type 0, BuildingBlock: TATPOV_clean_sbu_0, # of connection points: 4
#     Node 1, Type 0, BuildingBlock: TATPOV_clean_sbu_0, # of connection points: 4
#     Node 2, Type 0, BuildingBlock: TATPOV_clean_sbu_0, # of connection points: 4
#     Node 3, Type 0, BuildingBlock: TATPOV_clean_sbu_0, # of connection points: 4
#     Node 4, Type 0, BuildingBlock: TATPOV_clean_sbu_0, # of connection points: 4
#     Node 5, Type 0, BuildingBlock: TATPOV_clean_sbu_0, # of connection points: 4
#     Edge 6, Type (0, 0), None
#     Edge 7, Type (0, 0), None
#     Edge 8, Type (0, 0), None
#     Edge 9, Type (0, 0), None
#     Edge 10, Type (0, 0), None
#     Edge 11, Type (0, 0), None
#     Edge 12, Type (0, 0), None
#     Edge 13, Type (0, 0), None
#     Edge 14, Type (0, 0), None
#     Edge 15, Type (0, 0), None
#     Edge 16, Type (0, 0), None
#     Edge 17, Type (0, 0), None
# Relax obj value: 0.020
# Max RMSD: 0.060
# Mean RMSD: 0.060
data_MOF--net-unj--node1-TATPOV_clean_sbu_0--edge1-none
_symmetry_space_group_name_H-M    P1
_symmetry_Int_Tables_number       1
_symmetry_cell_setting            triclinic
loop_
_symmetry_equiv_pos_as_xyz
'x, y, z'
_cell_length_a     15.726712
_cell_length_b     15.727241
_cell_length_c     14.650856
_cell_angle_alpha  90.001565
_cell_angle_beta   89.998646
_cell_angle_gamma 120.00051
loop_
_atom_site_label
_atom_site_type_symbol
_atom_site_fract_x
_atom_site_fract_y
_atom_site_fract_z
_atom_type_partial_charge
Zn0 Zn 0.39448 0.06437 0.75363 0.0
Zn1 Zn 0.44715 0.15099 0.60175 0.0
O2 O 0.38564 0.22697 0.66296 0.0
O3 O 0.36382 0.1646 0.80096 0.0
O4 O 0.49898 0.22672 0.48348 0.0
O5 O 0.2887 0.94214 0.70193 0.0
O6 O 0.34627 0.00449 0.56604 0.0
C7 C 0.3612 0.22522 0.74602 0.0
C8 C 0.59314 0.1399 0.73817 0.0
O9 O 0.57661 0.18002 0.66986 0.0
O10 O 0.52251 0.07499 0.7839 0.0
C11 C 0.45176 0.26235 0.44399 0.0
O12 O 0.36241 0.23495 0.47203 0.0
C13 C 0.28661 0.93277 0.61632 0.0
Zn14 Zn 0.31158 0.40371 0.92036 0.0
Zn15 Zn 0.27763 0.4564 0.76844 0.0
O16 O 0.14014 0.39487 0.82965 0.0
O17 O 0.18065 0.37298 0.96765 0.0
O18 O 0.25372 0.50822 0.65018 0.0
O19 O 0.32811 0.29799 0.86862 0.0
O20 O 0.32327 0.35553 0.73273 0.0
C21 C 0.11742 0.37039 0.9127 0.0
C22 C 0.43468 0.60239 0.90488 0.0
O23 O 0.37806 0.58585 0.83655 0.0
O24 O 0.42894 0.53177 0.95065 0.0
C25 C 0.17086 0.46103 0.6107 0.0
O26 O 0.1089 0.37169 0.63875 0.0
C27 C 0.33537 0.2959 0.78301 0.0
Zn28 Zn 0.88929 0.32082 0.08697 0.0
Zn29 Zn 0.80268 0.28686 0.93508 0.0
O30 O 0.72669 0.14937 0.99628 0.0
O31 O 0.78906 0.18993 0.13429 0.0
O32 O 0.72696 0.26296 0.8168 0.0
O33 O 0.01153 0.33727 1.03528 0.0
O34 O 0.94919 0.33249 0.89939 0.0
C35 C 0.72843 0.12668 0.07935 0.0
C36 C 0.81375 0.44394 0.07149 0.0
O37 O 0.77363 0.38728 1.00319 0.0
O38 O 0.87867 0.43823 0.11724 0.0
C39 C 0.69137 0.18012 0.77728 0.0
O40 O 0.71868 0.1181 0.80528 0.0
C41 C 0.0209 0.34456 0.94967 0.0
Zn42 Zn 0.54995 0.89857 0.25367 0.0
Zn43 Zn 0.49726 0.81194 0.10176 0.0
O44 O 0.55879 0.73596 0.16295 0.0
O45 O 0.58069 0.79838 0.30095 0.0
O46 O 0.44544 0.73621 0.9835 0.0
O47 O 0.65567 0.02082 0.20194 0.0
O48 O 0.59813 0.95844 0.06605 0.0
C49 C 0.58328 0.73774 0.246 0.0
C50 C 0.35127 0.82298 0.23821 0.0
O51 O 0.3678 0.7829 0.16988 0.0
O52 O 0.4219 0.88787 0.28398 0.0
C53 C 0.49268 0.70062 0.94397 0.0
O54 O 0.58203 0.72794 0.97197 0.0
C55 C 0.65776 0.03017 0.11633 0.0
Zn56 Zn 0.63282 0.55918 0.42026 0.0
Zn57 Zn 0.66679 0.50652 0.2684 0.0
O58 O 0.8043 0.56806 0.32959 0.0
O59 O 0.7637 0.58983 0.46761 0.0
O60 O 0.69069 0.45469 0.15014 0.0
O61 O 0.6164 0.66499 0.36858 0.0
O62 O 0.62115 0.60738 0.2327 0.0
C63 C 0.82697 0.59248 0.41267 0.0
C64 C 0.50971 0.36055 0.40482 0.0
O65 O 0.56639 0.37707 0.33655 0.0
O66 O 0.51538 0.43118 0.45053 0.0
C67 C 0.77352 0.50194 0.11061 0.0
O68 O 0.83555 0.59128 0.1386 0.0
C69 C 0.6091 0.66706 0.28298 0.0
Zn70 Zn 0.05506 0.64211 0.587 0.0
Zn71 Zn 0.14172 0.67604 0.43511 0.0
O72 O 0.21769 0.81355 0.49629 0.0
O73 O 0.15529 0.77303 0.63429 0.0
O74 O 0.21745 0.69993 0.31685 0.0
O75 O 0.93283 0.62561 0.53527 0.0
O76 O -0.00479 0.6304 0.39939 0.0
C77 C 0.21593 0.83626 0.57935 0.0
C78 C 0.13062 0.519 0.57156 0.0
O79 O 0.17076 0.57564 0.50325 0.0
O80 O 0.06571 0.52472 0.6173 0.0
C81 C 0.25304 0.78276 0.27731 0.0
O82 O 0.22571 0.84478 0.3053 0.0
C83 C 0.92348 0.61832 0.44966 0.0
loop_
_geom_bond_atom_site_label_1
_geom_bond_atom_site_label_2
_geom_bond_distance
_geom_bond_site_symmetry_2
_ccdc_geom_bond_type
Zn0 O3 2.031 . S
Zn0 O5 2.049 1_545 S
Zn0 O10 2.067 . S
Zn1 O2 1.962 . S
Zn1 O4 1.986 . S
Zn1 O6 1.996 . S
Zn1 O9 1.943 . S
O2 Zn1 1.962 . S
O2 C7 1.254 . S
O3 Zn0 2.031 . S
O3 C7 1.269 . S
O4 Zn1 1.986 . S
O4 C11 1.262 . S
O5 Zn0 2.049 1_565 S
O5 C13 1.260 1_565 S
O6 Zn1 1.996 . S
O6 C13 1.257 . S
C7 O2 1.254 . S
C7 O3 1.269 . S
C8 O9 1.249 . S
C8 O10 1.270 . S
O9 Zn1 1.943 . S
O9 C8 1.249 . S
O10 Zn0 2.067 . S
O10 C8 1.270 . S
C11 O4 1.262 . S
C11 O12 1.232 . S
O12 C11 1.232 . S
C13 O5 1.260 1_545 S
C13 O6 1.257 . S
Zn14 O17 2.031 . S
Zn14 O19 2.049 . S
Zn14 O24 2.067 . S
Zn15 O16 1.962 . S
Zn15 O18 1.986 . S
Zn15 O20 1.996 . S
Zn15 O23 1.943 . S
O16 Zn15 1.962 . S
O16 C21 1.254 . S
O17 Zn14 2.031 . S
O17 C21 1.269 . S
O18 Zn15 1.986 . S
O18 C25 1.262 . S
O19 Zn14 2.049 . S
O19 C27 1.260 . S
O20 Zn15 1.996 . S
O20 C27 1.257 . S
C21 O16 1.254 . S
C21 O17 1.269 . S
C22 O23 1.249 . S
C22 O24 1.270 . S
O23 Zn15 1.943 . S
O23 C22 1.249 . S
O24 Zn14 2.067 . S
O24 C22 1.270 . S
C25 O18 1.262 . S
C25 O26 1.232 . S
O26 C25 1.232 . S
C27 O19 1.260 . S
C27 O20 1.257 . S
Zn28 O31 2.031 . S
Zn28 O33 2.049 1_654 S
Zn28 O38 2.067 . S
Zn29 O30 1.962 . S
Zn29 O32 1.986 . S
Zn29 O34 1.996 . S
Zn29 O37 1.943 . S
O30 Zn29 1.962 . S
O30 C35 1.256 . S
O31 Zn28 2.031 . S
O31 C35 1.268 1_554 S
O32 Zn29 1.986 . S
O32 C39 1.262 . S
O33 Zn28 2.049 1_456 S
O33 C41 1.260 1_455 S
O34 Zn29 1.996 . S
O34 C41 1.257 . S
C35 O30 1.256 . S
C35 O31 1.268 1_556 S
C36 O37 1.249 1_554 S
C36 O38 1.270 . S
O37 Zn29 1.943 . S
O37 C36 1.249 1_556 S
O38 Zn28 2.067 . S
O38 C36 1.270 . S
C39 O32 1.262 . S
C39 O40 1.232 . S
O40 C39 1.232 . S
C41 O33 1.260 1_655 S
C41 O34 1.257 . S
Zn42 O45 2.031 . S
Zn42 O47 2.049 1_565 S
Zn42 O52 2.067 . S
Zn43 O44 1.962 . S
Zn43 O46 1.986 1_554 S
Zn43 O48 1.996 . S
Zn43 O51 1.943 . S
O44 Zn43 1.962 . S
O44 C49 1.254 . S
O45 Zn42 2.031 . S
O45 C49 1.269 . S
O46 Zn43 1.986 1_556 S
O46 C53 1.262 . S
O47 Zn42 2.049 1_545 S
O47 C55 1.260 1_545 S
O48 Zn43 1.996 . S
O48 C55 1.257 . S
C49 O44 1.254 . S
C49 O45 1.269 . S
C50 O51 1.249 . S
C50 O52 1.270 . S
O51 Zn43 1.943 . S
O51 C50 1.249 . S
O52 Zn42 2.067 . S
O52 C50 1.270 . S
C53 O46 1.262 . S
C53 O54 1.232 1_556 S
O54 C53 1.232 1_554 S
C55 O47 1.260 1_565 S
C55 O48 1.257 . S
Zn56 O59 2.031 . S
Zn56 O61 2.049 . S
Zn56 O66 2.067 . S
Zn57 O58 1.962 . S
Zn57 O60 1.986 . S
Zn57 O62 1.996 . S
Zn57 O65 1.943 . S
O58 Zn57 1.962 . S
O58 C63 1.254 . S
O59 Zn56 2.031 . S
O59 C63 1.269 . S
O60 Zn57 1.986 . S
O60 C67 1.262 . S
O61 Zn56 2.049 . S
O61 C69 1.260 . S
O62 Zn57 1.996 . S
O62 C69 1.257 . S
C63 O58 1.254 . S
C63 O59 1.269 . S
C64 O65 1.249 . S
C64 O66 1.270 . S
O65 Zn57 1.943 . S
O65 C64 1.249 . S
O66 Zn56 2.067 . S
O66 C64 1.270 . S
C67 O60 1.262 . S
C67 O68 1.232 . S
O68 C67 1.232 . S
C69 O61 1.260 . S
C69 O62 1.257 . S
Zn70 O73 2.031 . S
Zn70 O75 2.049 1_455 S
Zn70 O80 2.067 . S
Zn71 O72 1.962 . S
Zn71 O74 1.986 . S
Zn71 O76 1.996 . S
Zn71 O79 1.943 . S
O72 Zn71 1.962 . S
O72 C77 1.254 . S
O73 Zn70 2.031 . S
O73 C77 1.269 . S
O74 Zn71 1.986 . S
O74 C81 1.262 . S
O75 Zn70 2.049 1_655 S
O75 C83 1.260 1_655 S
O76 Zn71 1.996 . S
O76 C83 1.257 . S
C77 O72 1.254 . S
C77 O73 1.269 . S
C78 O79 1.249 . S
C78 O80 1.270 . S
O79 Zn71 1.943 . S
O79 C78 1.249 . S
O80 Zn70 2.067 . S
O80 C78 1.270 . S
C81 O74 1.262 . S
C81 O82 1.232 . S
O82 C81 1.232 . S
C83 O75 1.260 1_455 S
C83 O76 1.257 . S
C13 C77 1.385 1_545 S
C7 C27 1.385 . S
C41 C21 1.385 1_655 S
C55 C35 1.384 1_564 S
C69 C49 1.385 . S
C83 C63 1.385 1_455 S
C11 C64 1.477 . S
C78 C25 1.477 . S
C39 C8 1.477 . S
C22 C53 1.477 . S
C36 C67 1.477 . S
C81 C50 1.477 . S
