# Generated by pormake.
# Topology lcy, (6)-cn, num edge types: 1
# Building blocks:
#     Node 0, Type 0, BuildingBlock: LEVNOQ01_clean_sbu_1, # of connection points: 6
#     Node 1, Type 0, BuildingBlock: LEVNOQ01_clean_sbu_1, # of connection points: 6
#     Node 2, Type 0, BuildingBlock: LEVNOQ01_clean_sbu_1, # of connection points: 6
#     Node 3, Type 0, BuildingBlock: LEVNOQ01_clean_sbu_1, # of connection points: 6
#     Edge 4, Type (0, 0), BuildingBlock: EYOCIG_clean_linker_4, # of connection points: 2
#     Edge 5, Type (0, 0), BuildingBlock: EYOCIG_clean_linker_4, # of connection points: 2
#     Edge 6, Type (0, 0), BuildingBlock: EYOCIG_clean_linker_4, # of connection points: 2
#     Edge 7, Type (0, 0), BuildingBlock: EYOCIG_clean_linker_4, # of connection points: 2
#     Edge 8, Type (0, 0), BuildingBlock: EYOCIG_clean_linker_4, # of connection points: 2
#     Edge 9, Type (0, 0), BuildingBlock: EYOCIG_clean_linker_4, # of connection points: 2
#     Edge 10, Type (0, 0), BuildingBlock: EYOCIG_clean_linker_4, # of connection points: 2
#     Edge 11, Type (0, 0), BuildingBlock: EYOCIG_clean_linker_4, # of connection points: 2
#     Edge 12, Type (0, 0), BuildingBlock: EYOCIG_clean_linker_4, # of connection points: 2
#     Edge 13, Type (0, 0), BuildingBlock: EYOCIG_clean_linker_4, # of connection points: 2
#     Edge 14, Type (0, 0), BuildingBlock: EYOCIG_clean_linker_4, # of connection points: 2
#     Edge 15, Type (0, 0), BuildingBlock: EYOCIG_clean_linker_4, # of connection points: 2
# Relax obj value: 0.338
# Max RMSD: 0.280
# Mean RMSD: 0.277
data_MOF--net-lcy--node1-LEVNOQ01_clean_sbu_1--edge1-EYOCIG_clean_linker_4
_symmetry_space_group_name_H-M    P1
_symmetry_Int_Tables_number       1
_symmetry_cell_setting            triclinic
loop_
_symmetry_equiv_pos_as_xyz
'x, y, z'
_cell_length_a     21.210005
_cell_length_b     19.410091
_cell_length_c     21.524057
_cell_angle_alpha  90.040673
_cell_angle_beta   89.945818
_cell_angle_gamma 85.891823
loop_
_atom_site_label
_atom_site_type_symbol
_atom_site_fract_x
_atom_site_fract_y
_atom_site_fract_z
_atom_type_partial_charge
O0 O 0.48593 0.35389 0.44397 0.0
Mg1 Mg 0.42495 0.44684 0.44166 0.0
O2 O 0.42285 0.2755 0.40721 0.0
Mg3 Mg 0.34383 0.34521 0.35805 0.0
O4 O 0.33877 0.41088 0.44712 0.0
O5 O 0.37174 0.48136 0.51867 0.0
O6 O 0.27436 0.42256 0.2986 0.0
O7 O 0.2592 0.29274 0.40302 0.0
Mg8 Mg 0.2637 0.26614 0.24652 0.0
O9 O 0.34992 0.26305 0.28442 0.0
O10 O 0.25882 0.36542 0.20998 0.0
O11 O 0.20266 0.25429 0.32387 0.0
O12 O 0.32899 0.1879 0.21252 0.0
C13 C 0.42649 0.4725 0.30868 0.0
C14 C 0.47497 0.29175 0.43134 0.0
C15 C 0.32941 0.44188 0.4999 0.0
C16 C 0.25925 0.4211 0.24065 0.0
C17 C 0.20982 0.26697 0.38129 0.0
C18 C 0.36861 0.21012 0.2516 0.0
O19 O 0.42182 0.50384 0.36005 0.0
O20 O 0.41879 0.40775 0.30429 0.0
O21 O 0.87132 -0.02281 0.46882 0.0
Mg22 Mg 0.95387 -0.00635 0.52124 0.0
O23 O 0.79739 0.03627 0.52565 0.0
Mg24 Mg 0.8516 0.09839 0.59864 0.0
O25 O 0.92367 0.00688 0.60955 0.0
O26 O -0.00537 0.92263 0.58489 0.0
O27 O 0.91134 0.16843 0.66307 0.0
O28 O 0.80232 0.05057 0.68319 0.0
Mg29 Mg 0.76582 0.22301 0.67406 0.0
O30 O 0.76817 0.17715 0.5903 0.0
O31 O 0.85224 0.2675 0.67591 0.0
O32 O 0.75673 0.13935 0.73733 0.0
O33 O 0.69345 0.25777 0.6126 0.0
C34 C 0.96593 0.14374 0.50149 0.0
C35 C 0.81409 -0.0023 0.47941 0.0
C36 C 0.95954 0.95379 0.62652 0.0
C37 C 0.90523 0.23313 0.67607 0.0
C38 C 0.77309 0.07536 0.73115 0.0
C39 C 0.71699 0.21219 0.57408 0.0
O40 O -0.00415 0.08506 0.50348 0.0
O41 O 0.90883 0.15413 0.52096 0.0
O42 O 0.26444 0.69016 0.82152 0.0
Mg43 Mg 0.20339 0.67717 0.74443 0.0
O44 O 0.20795 0.65239 0.90105 0.0
Mg45 Mg 0.12322 0.59924 0.85702 0.0
O46 O 0.11716 0.68003 0.78243 0.0
O47 O 0.13771 0.75501 0.71039 0.0
O48 O 0.04811 0.53623 0.80392 0.0
O49 O 0.04428 0.66988 0.90575 0.0
Mg50 Mg 0.04284 0.49941 0.94044 0.0
O51 O 0.12908 0.53529 0.94748 0.0
O52 O 0.04631 0.44047 0.85994 0.0
O53 O 0.98108 0.59168 0.94247 0.0
O54 O 0.09405 0.4644 0.01792 0.0
C55 C 0.20789 0.52195 0.74 0.0
C56 C 0.25727 0.67809 0.87905 0.0
C57 C 0.09829 0.73295 0.74981 0.0
C58 C 0.04096 0.47141 0.80851 0.0
C59 C -0.00796 0.65376 0.92979 0.0
C60 C 0.13723 0.50323 -9e-05 0.0
O61 O 0.20847 0.57732 0.70896 0.0
O62 O 0.19261 0.52106 0.79798 0.0
O63 O 0.71156 0.80215 0.23675 0.0
Mg64 Mg 0.70177 0.71865 0.17329 0.0
O65 O 0.66607 0.89134 0.18326 0.0
Mg66 Mg 0.61613 0.84449 0.09861 0.0
O67 O 0.69859 0.7648 0.08978 0.0
O68 O 0.7738 0.6845 0.11077 0.0
O69 O 0.5582 0.78968 0.02078 0.0
O70 O 0.671 0.90611 0.02584 0.0
Mg71 Mg 0.51508 0.95018 0.02194 0.0
O72 O 0.54492 0.93692 0.11036 0.0
O73 O 0.47183 0.85973 0.00359 0.0
O74 O 0.59764 0.96606 0.96927 0.0
O75 O 0.4744 0.0215 0.08529 0.0
C76 C 0.5619 0.70999 0.17579 0.0
C77 C 0.69544 0.86623 0.23093 0.0
C78 C 0.74997 0.73051 0.07292 0.0
C79 C 0.50122 0.80078 0.00125 0.0
C80 C 0.6547 0.9449 -0.02027 0.0
C81 C 0.50895 -0.00988 0.1271 0.0
O82 O 0.61476 0.6753 0.17545 0.0
O83 O 0.55604 0.77472 0.16291 0.0
C84 C 0.20936 0.52507 0.09512 0.0
C85 C 0.18231 0.52217 0.04581 0.0
C86 C 0.2302 0.51261 0.15701 0.0
C87 C 0.24425 0.4825 0.20476 0.0
C88 C 0.72016 0.93841 0.33035 0.0
C89 C 0.7069 0.91005 0.28277 0.0
C90 C 0.74159 0.96408 0.38733 0.0
C91 C 0.76892 -0.01729 0.43271 0.0
C92 C 0.23675 0.42989 0.65667 0.0
C93 C 0.22276 0.46019 0.70442 0.0
C94 C 0.25749 0.41762 0.59465 0.0
C95 C 0.28443 0.42131 0.54529 0.0
C96 C 0.72754 -0.02245 0.88755 0.0
C97 C 0.70005 0.95929 0.93299 0.0
C98 C 0.74895 0.00295 0.83048 0.0
C99 C 0.76201 0.03129 0.78286 0.0
C100 C 0.04668 0.22923 0.46467 0.0
C101 C 0.00186 0.19946 0.4818 0.0
C102 C 0.10614 0.24852 0.44408 0.0
C103 C 0.15627 0.25886 0.42067 0.0
C104 C -7e-05 0.82004 0.75334 0.0
C105 C 0.03985 0.77327 0.76035 0.0
C106 C 0.96853 0.87894 0.72578 0.0
C107 C 0.95607 0.92202 0.68648 0.0
C108 C 0.36073 0.69722 0.94194 0.0
C109 C 0.31079 0.68668 0.91831 0.0
C110 C 0.42004 0.71634 0.9631 0.0
C111 C 0.4649 0.74567 -0.01919 0.0
C112 C 0.46729 0.12339 0.25434 0.0
C113 C 0.42722 0.16998 0.26161 0.0
C114 C 0.49895 0.06467 0.22662 0.0
C115 C 0.51177 0.02172 0.18723 0.0
C116 C 0.63443 0.1946 0.48737 0.0
C117 C 0.67899 0.19419 0.52219 0.0
C118 C 0.575 0.21117 0.45938 0.0
C119 C 0.52523 0.23997 0.4437 0.0
C120 C 0.01159 0.38133 0.72595 0.0
C121 C 0.02488 0.43034 0.7564 0.0
C122 C -0.01071 0.31925 0.70345 0.0
C123 C 0.95861 0.27148 0.69012 0.0
C124 C 0.89189 0.7341 0.95814 0.0
C125 C 0.94176 0.70558 0.94226 0.0
C126 C 0.83238 0.75005 -0.01362 0.0
C127 C 0.78782 0.74966 0.02124 0.0
C128 C 0.47758 0.6242 0.20312 0.0
C129 C 0.50835 0.6719 0.18984 0.0
C130 C 0.45532 0.56213 0.22563 0.0
C131 C 0.44217 0.51321 0.25623 0.0
loop_
_geom_bond_atom_site_label_1
_geom_bond_atom_site_label_2
_geom_bond_distance
_geom_bond_site_symmetry_2
_ccdc_geom_bond_type
O0 Mg1 1.990 . S
O0 C14 1.253 . S
Mg1 O0 1.990 . S
Mg1 O4 2.180 . S
Mg1 O5 2.117 . S
Mg1 O19 2.030 . S
O2 Mg3 2.072 . S
O2 C14 1.260 . S
Mg3 O2 2.072 . S
Mg3 O4 2.099 . S
Mg3 O6 2.079 . S
Mg3 O7 2.072 . S
Mg3 O9 2.099 . S
Mg3 O20 2.079 . S
O4 Mg1 2.180 . S
O4 Mg3 2.099 . S
O4 C15 1.279 . S
O5 Mg1 2.117 . S
O5 C15 1.250 . S
O6 Mg3 2.079 . S
O6 C16 1.264 . S
O7 Mg3 2.072 . S
O7 C17 1.260 . S
Mg8 O9 2.180 . S
Mg8 O10 2.030 . S
Mg8 O11 1.990 . S
Mg8 O12 2.117 . S
O9 Mg3 2.099 . S
O9 Mg8 2.180 . S
O9 C18 1.279 . S
O10 Mg8 2.030 . S
O10 C16 1.248 . S
O11 Mg8 1.990 . S
O11 C17 1.253 . S
O12 Mg8 2.117 . S
O12 C18 1.250 . S
C13 O19 1.248 . S
C13 O20 1.264 . S
C14 O0 1.253 . S
C14 O2 1.260 . S
C15 O4 1.279 . S
C15 O5 1.250 . S
C16 O6 1.264 . S
C16 O10 1.248 . S
C17 O7 1.260 . S
C17 O11 1.253 . S
C18 O9 1.279 . S
C18 O12 1.250 . S
O19 Mg1 2.030 . S
O19 C13 1.248 . S
O20 Mg3 2.079 . S
O20 C13 1.264 . S
O21 Mg22 1.990 1_565 S
O21 C35 1.253 1_565 S
Mg22 O21 1.990 1_545 S
Mg22 O25 2.180 . S
Mg22 O26 2.117 1_545 S
Mg22 O40 2.030 . S
O23 Mg24 2.072 . S
O23 C35 1.260 . S
Mg24 O23 2.072 . S
Mg24 O25 2.099 . S
Mg24 O27 2.079 . S
Mg24 O28 2.072 . S
Mg24 O30 2.099 . S
Mg24 O41 2.079 . S
O25 Mg22 2.180 . S
O25 Mg24 2.099 . S
O25 C36 1.279 1_545 S
O26 Mg22 2.117 1_565 S
O26 C36 1.250 . S
O27 Mg24 2.079 . S
O27 C37 1.264 . S
O28 Mg24 2.072 . S
O28 C38 1.260 . S
Mg29 O30 2.180 . S
Mg29 O31 2.030 . S
Mg29 O32 1.990 . S
Mg29 O33 2.117 . S
O30 Mg24 2.099 . S
O30 Mg29 2.180 . S
O30 C39 1.279 . S
O31 Mg29 2.030 . S
O31 C37 1.248 . S
O32 Mg29 1.990 . S
O32 C38 1.253 . S
O33 Mg29 2.117 . S
O33 C39 1.250 . S
C34 O40 1.248 . S
C34 O41 1.264 . S
C35 O21 1.253 1_545 S
C35 O23 1.260 . S
C36 O25 1.279 1_565 S
C36 O26 1.250 . S
C37 O27 1.264 . S
C37 O31 1.248 . S
C38 O28 1.260 . S
C38 O32 1.253 . S
C39 O30 1.279 . S
C39 O33 1.250 . S
O40 Mg22 2.030 . S
O40 C34 1.248 . S
O41 Mg24 2.079 . S
O41 C34 1.264 . S
O42 Mg43 1.990 . S
O42 C56 1.253 . S
Mg43 O42 1.990 . S
Mg43 O46 2.180 . S
Mg43 O47 2.117 . S
Mg43 O61 2.030 . S
O44 Mg45 2.072 . S
O44 C56 1.260 . S
Mg45 O44 2.072 . S
Mg45 O46 2.099 . S
Mg45 O48 2.079 . S
Mg45 O49 2.072 . S
Mg45 O51 2.099 . S
Mg45 O62 2.079 . S
O46 Mg43 2.180 . S
O46 Mg45 2.099 . S
O46 C57 1.279 . S
O47 Mg43 2.117 . S
O47 C57 1.250 . S
O48 Mg45 2.079 . S
O48 C58 1.264 1_455 S
O49 Mg45 2.072 . S
O49 C59 1.260 . S
Mg50 O51 2.180 . S
Mg50 O52 2.030 1_455 S
Mg50 O53 1.990 1_556 S
Mg50 O54 2.117 1_556 S
O51 Mg45 2.099 . S
O51 Mg50 2.180 . S
O51 C60 1.279 . S
O52 Mg50 2.030 1_655 S
O52 C58 1.248 . S
O53 Mg50 1.990 1_554 S
O53 C59 1.253 1_554 S
O54 Mg50 2.117 1_554 S
O54 C60 1.250 1_554 S
C55 O61 1.248 . S
C55 O62 1.264 . S
C56 O42 1.253 . S
C56 O44 1.260 . S
C57 O46 1.279 . S
C57 O47 1.250 . S
C58 O48 1.264 1_655 S
C58 O52 1.248 . S
C59 O49 1.260 . S
C59 O53 1.253 1_556 S
C60 O51 1.279 . S
C60 O54 1.250 1_556 S
O61 Mg43 2.030 . S
O61 C55 1.248 . S
O62 Mg45 2.079 . S
O62 C55 1.264 . S
O63 Mg64 1.990 . S
O63 C77 1.253 . S
Mg64 O63 1.990 . S
Mg64 O67 2.180 . S
Mg64 O68 2.117 . S
Mg64 O82 2.030 . S
O65 Mg66 2.072 . S
O65 C77 1.260 . S
Mg66 O65 2.072 . S
Mg66 O67 2.099 . S
Mg66 O69 2.079 . S
Mg66 O70 2.072 . S
Mg66 O72 2.099 . S
Mg66 O83 2.079 . S
O67 Mg64 2.180 . S
O67 Mg66 2.099 . S
O67 C78 1.279 . S
O68 Mg64 2.117 . S
O68 C78 1.250 . S
O69 Mg66 2.079 . S
O69 C79 1.274 . S
O70 Mg66 2.072 . S
O70 C80 1.260 . S
Mg71 O72 2.180 . S
Mg71 O73 2.030 1_554 S
Mg71 O74 1.990 1_565 S
Mg71 O75 2.117 1_565 S
O72 Mg66 2.099 . S
O72 Mg71 2.180 . S
O72 C81 1.279 1_565 S
O73 Mg71 2.030 1_556 S
O73 C79 1.244 1_556 S
O74 Mg71 1.990 1_545 S
O74 C80 1.253 1_545 S
O75 Mg71 2.117 1_545 S
O75 C81 1.250 . S
C76 O82 1.248 . S
C76 O83 1.264 . S
C77 O63 1.253 . S
C77 O65 1.260 . S
C78 O67 1.279 . S
C78 O68 1.250 . S
C79 O69 1.274 . S
C79 O73 1.244 1_554 S
C80 O70 1.260 . S
C80 O74 1.253 1_565 S
C81 O72 1.279 1_545 S
C81 O75 1.250 . S
O82 Mg64 2.030 . S
O82 C76 1.248 . S
O83 Mg66 2.079 . S
O83 C76 1.264 . S
C84 C85 1.170 . S
C84 C86 1.380 . S
C85 C84 1.170 . S
C86 C84 1.380 . S
C86 C87 1.170 . S
C87 C86 1.170 . S
C88 C89 1.170 . S
C88 C90 1.380 . S
C89 C88 1.170 . S
C90 C88 1.380 . S
C90 C91 1.170 1_565 S
C91 C90 1.170 1_545 S
C92 C93 1.170 . S
C92 C94 1.380 . S
C93 C92 1.170 . S
C94 C92 1.380 . S
C94 C95 1.170 . S
C95 C94 1.170 . S
C96 C97 1.170 1_545 S
C96 C98 1.380 . S
C97 C96 1.170 1_565 S
C98 C96 1.380 . S
C98 C99 1.170 . S
C99 C98 1.170 . S
C100 C101 1.170 . S
C100 C102 1.380 . S
C101 C100 1.170 . S
C102 C100 1.380 . S
C102 C103 1.170 . S
C103 C102 1.170 . S
C104 C105 1.170 . S
C104 C106 1.380 1_455 S
C105 C104 1.170 . S
C106 C104 1.380 1_655 S
C106 C107 1.170 . S
C107 C106 1.170 . S
C108 C109 1.170 . S
C108 C110 1.380 . S
C109 C108 1.170 . S
C110 C108 1.380 . S
C110 C111 1.170 . S
C111 C110 1.170 . S
C112 C113 1.170 . S
C112 C114 1.380 . S
C113 C112 1.170 . S
C114 C112 1.380 . S
C114 C115 1.170 . S
C115 C114 1.170 . S
C116 C117 1.170 . S
C116 C118 1.380 . S
C117 C116 1.170 . S
C118 C116 1.380 . S
C118 C119 1.170 . S
C119 C118 1.170 . S
C120 C121 1.170 . S
C120 C122 1.380 . S
C121 C120 1.170 . S
C122 C120 1.380 . S
C122 C123 1.170 . S
C123 C122 1.170 . S
C124 C125 1.170 1_554 S
C124 C126 1.380 . S
C125 C124 1.170 1_556 S
C126 C124 1.380 . S
C126 C127 1.170 . S
C127 C126 1.170 . S
C128 C129 1.170 . S
C128 C130 1.380 . S
C129 C128 1.170 . S
C130 C128 1.380 . S
C130 C131 1.170 . S
C131 C130 1.170 . S
C85 C60 1.448 1_554 S
C87 C16 1.599 . S
C89 C77 1.361 . S
C91 C35 1.374 . S
C93 C55 1.574 . S
C95 C15 1.473 . S
C97 C80 1.337 1_556 S
C99 C38 1.366 . S
C101 C34 1.670 1_455 S
C103 C17 1.762 . S
C105 C57 1.225 . S
C107 C36 1.273 . S
C109 C56 1.787 . S
C111 C79 1.636 1_556 S
C113 C18 1.280 . S
C115 C81 1.212 . S
C117 C39 1.100 . S
C119 C14 1.301 . S
C121 C58 1.118 . S
C123 C37 1.106 . S
C125 C59 1.322 1_655 S
C127 C78 1.059 . S
C129 C76 1.070 . S
C131 C13 1.132 . S
