# Generated by pormake.
# Topology lon, (4)-cn, num edge types: 1
# Building blocks:
#     Node 0, Type 0, BuildingBlock: NAHDIM_clean_sbu_0, # of connection points: 4
#     Node 1, Type 0, BuildingBlock: NAHDIM_clean_sbu_0, # of connection points: 4
#     Node 2, Type 0, BuildingBlock: NAHDIM_clean_sbu_0, # of connection points: 4
#     Node 3, Type 0, BuildingBlock: NAHDIM_clean_sbu_0, # of connection points: 4
#     Edge 4, Type (0, 0), BuildingBlock: EZIPEK_clean_linker_0, # of connection points: 2
#     Edge 5, Type (0, 0), BuildingBlock: EZIPEK_clean_linker_0, # of connection points: 2
#     Edge 6, Type (0, 0), BuildingBlock: EZIPEK_clean_linker_0, # of connection points: 2
#     Edge 7, Type (0, 0), BuildingBlock: EZIPEK_clean_linker_0, # of connection points: 2
#     Edge 8, Type (0, 0), BuildingBlock: EZIPEK_clean_linker_0, # of connection points: 2
#     Edge 9, Type (0, 0), BuildingBlock: EZIPEK_clean_linker_0, # of connection points: 2
#     Edge 10, Type (0, 0), BuildingBlock: EZIPEK_clean_linker_0, # of connection points: 2
#     Edge 11, Type (0, 0), BuildingBlock: EZIPEK_clean_linker_0, # of connection points: 2
# Relax obj value: 0.020
# Max RMSD: 0.060
# Mean RMSD: 0.060
data_MOF--net-lon--node1-NAHDIM_clean_sbu_0--edge1-EZIPEK_clean_linker_0
_symmetry_space_group_name_H-M    P1
_symmetry_Int_Tables_number       1
_symmetry_cell_setting            triclinic
loop_
_symmetry_equiv_pos_as_xyz
'x, y, z'
_cell_length_a     18.352673
_cell_length_b     18.12205
_cell_length_c     30.358701
_cell_angle_alpha  88.331496
_cell_angle_beta   90.011032
_cell_angle_gamma 120.33163
loop_
_atom_site_label
_atom_site_type_symbol
_atom_site_fract_x
_atom_site_fract_y
_atom_site_fract_z
_atom_type_partial_charge
C0 C 0.45946 0.63144 0.01519 0.0
O1 O 0.50129 0.71455 0.00748 0.0
O2 O 0.40768 0.78721 0.04205 0.0
Zn3 Zn 0.34057 0.66298 0.06329 0.0
O4 O 0.2201 0.60636 0.04184 0.0
C5 C 0.33688 0.70526 0.15476 0.0
O6 O 0.33065 0.76896 0.13732 0.0
O7 O 0.39156 0.59715 0.03807 0.0
C8 C 0.15807 0.601 0.06337 0.0
O9 O 0.17029 0.63627 0.10184 0.0
C10 C 0.37224 0.83053 0.03322 0.0
O11 O 0.29007 0.79461 0.03784 0.0
O12 O 0.34248 0.65317 0.1298 0.0
C13 C 0.84283 0.4221 0.51 0.0
O14 O 0.78754 0.38626 0.47868 0.0
O15 O 0.63197 0.39174 0.54309 0.0
Zn16 Zn 0.69478 0.33299 0.56424 0.0
O17 O 0.65493 0.22333 0.53236 0.0
C18 C 0.65243 0.34446 0.65501 0.0
O19 O 0.62844 0.39614 0.6381 0.0
O20 O 0.81794 0.4095 0.54998 0.0
C21 C 0.5976 0.15131 0.54799 0.0
O22 O 0.562 0.14675 0.58629 0.0
C23 C 0.55298 0.35062 0.5365 0.0
O24 O 0.50969 0.26754 0.54412 0.0
O25 O 0.68132 0.30985 0.63001 0.0
C26 C 0.38092 0.52433 0.47141 0.0
O27 O 0.29807 0.48199 0.4707 0.0
O28 O 0.23861 0.59522 0.45198 0.0
Zn29 Zn 0.36263 0.66395 0.43553 0.0
O30 O 0.41317 0.77806 0.46391 0.0
C31 C 0.31628 0.6685 0.34492 0.0
O32 O 0.24256 0.64582 0.36288 0.0
O33 O 0.42178 0.6022 0.45804 0.0
C34 C 0.48667 0.83972 0.4544 0.0
O35 O 0.53357 0.83058 0.42488 0.0
C36 C 0.19848 0.63023 0.46607 0.0
O37 O 0.2378 0.71349 0.4702 0.0
O38 O 0.37733 0.68015 0.36927 0.0
C39 C 0.81971 0.41204 0.9957 0.0
O40 O 0.75528 0.38414 0.02324 0.0
O41 O 0.62516 0.22204 0.95621 0.0
Zn42 Zn 0.68696 0.34588 0.93442 0.0
O43 O 0.6373 0.41283 0.95991 0.0
C44 C 0.6408 0.29141 0.84428 0.0
O45 O 0.59174 0.21561 0.8629 0.0
O46 O 0.80686 0.40188 0.95465 0.0
C47 C 0.57525 0.41532 0.94299 0.0
O48 O 0.53891 0.37047 0.90815 0.0
C49 C 0.54921 0.18362 0.97038 0.0
O50 O 0.50688 0.22415 0.97093 0.0
O51 O 0.68643 0.35481 0.86799 0.0
C52 C 0.39499 0.76183 0.22897 0.0
C53 C 0.3356 0.69354 0.20337 0.0
C54 C 0.27493 0.60462 0.27072 0.0
C55 C 0.3265 0.67648 0.29634 0.0
N56 N 0.42825 0.82714 0.30021 0.0
N57 N 0.21051 0.55345 0.20024 0.0
C58 C 0.38495 0.7561 0.27561 0.0
C59 C 0.27349 0.61559 0.22428 0.0
N60 N 0.46274 0.83088 0.20885 0.0
N61 N 0.22926 0.52521 0.29063 0.0
H62 H 0.2062 0.55846 0.16621 0.0
H63 H 0.15817 0.49998 0.21451 0.0
H64 H 0.2298 0.51432 0.32454 0.0
H65 H 0.19764 0.46915 0.27319 0.0
H66 H 0.51261 0.87849 0.2261 0.0
H67 H 0.47353 0.83636 0.17486 0.0
H68 H 0.46446 0.8887 0.28646 0.0
H69 H 0.42238 0.82576 0.33442 0.0
C70 C 0.72499 0.35549 0.72655 0.0
C71 C 0.6491 0.32937 0.70333 0.0
C72 C 0.56843 0.28415 0.77297 0.0
C73 C 0.64324 0.30318 0.79572 0.0
N74 N 0.78962 0.34111 0.79331 0.0
N75 N 0.49692 0.25485 0.70301 0.0
C76 C 0.72076 0.3345 0.77228 0.0
C77 C 0.57024 0.28975 0.72614 0.0
N78 N 0.80134 0.40343 0.70536 0.0
N79 N 0.49651 0.26426 0.7961 0.0
H80 H 0.49571 0.25701 0.66866 0.0
H81 H 0.43745 0.21706 0.71763 0.0
H82 H 0.49274 0.26057 0.83044 0.0
H83 H 0.44283 0.25896 0.78144 0.0
H84 H 0.85865 0.43232 0.72168 0.0
H85 H 0.80736 0.42113 0.67197 0.0
H86 H 0.84508 0.35476 0.77688 0.0
H87 H 0.78879 0.32494 0.82663 0.0
C88 C 0.50643 0.52392 0.02544 0.0
C89 C 0.49047 0.57727 0.99682 0.0
C90 C 0.53997 0.53196 0.93381 0.0
C91 C 0.54612 0.47101 0.96163 0.0
N92 N 0.5205 0.39849 0.03294 0.0
N93 N 0.47631 0.61968 0.92262 0.0
C94 C 0.52544 0.46412 0.00724 0.0
C95 C 0.50291 0.57797 0.95065 0.0
N96 N 0.50666 0.53255 0.07005 0.0
N97 N 0.57303 0.54904 0.89192 0.0
H98 H 0.44715 0.65271 0.93345 0.0
H99 H 0.4756 0.61445 0.88851 0.0
H100 H 0.60371 0.51931 0.8787 0.0
H101 H 0.57797 0.59911 0.87191 0.0
H102 H 0.5268 0.50183 0.09221 0.0
H103 H 0.4948 0.57685 0.08472 0.0
H104 H 0.49672 0.3851 0.06515 0.0
H105 H 0.53238 0.35225 0.02095 0.0
C106 C 0.04846 0.59474 0.4564 0.0
C107 C 0.10749 0.57729 0.47746 0.0
C108 C 0.99177 0.45272 0.51635 0.0
C109 C 0.93383 0.47552 0.49884 0.0
N110 N 0.90872 0.57731 0.45873 0.0
N111 N 0.13717 0.49989 0.53393 0.0
C112 C 0.96258 0.54906 0.47062 0.0
C113 C 0.07971 0.50902 0.50924 0.0
N114 N 0.07355 0.65235 0.42159 0.0
N115 N 0.9628 0.37569 0.53825 0.0
H116 H 0.20221 0.54096 0.53054 0.0
H117 H 0.12025 0.45682 0.56071 0.0
H118 H 0.89878 0.33169 0.54342 0.0
H119 H 0.00183 0.35183 0.54754 0.0
H120 H 0.03145 0.66059 0.40197 0.0
H121 H 0.13554 0.68624 0.40956 0.0
H122 H 0.92852 0.6357 0.44217 0.0
H123 H 0.84559 0.54647 0.469 0.0
C124 C 0.44115 0.02951 0.96032 0.0
C125 C 0.50764 0.09266 0.98533 0.0
C126 C 0.48635 0.98378 0.04198 0.0
C127 C 0.42239 0.92009 0.01596 0.0
N128 N 0.35168 0.87869 0.94642 0.0
N129 N 0.60254 0.12973 0.04653 0.0
C130 C 0.40321 0.94197 0.97403 0.0
C131 C 0.53342 0.06956 0.02496 0.0
N132 N 0.41384 0.05316 0.92353 0.0
N133 N 0.49896 0.96331 0.08391 0.0
H134 H 0.6355 0.1943 0.03685 0.0
H135 H 0.63075 0.11499 0.0724 0.0
H136 H 0.46616 0.90141 0.09761 0.0
H137 H 0.53722 0.00841 0.10648 0.0
H138 H 0.35893 0.01172 0.90715 0.0
H139 H 0.4431 0.11579 0.91071 0.0
H140 H 0.34224 0.88992 0.91367 0.0
H141 H 0.32444 0.81376 0.95484 0.0
C142 C 0.45174 0.40321 0.54788 0.0
C143 C 0.50994 0.39619 0.52002 0.0
C144 C 0.48033 0.46957 0.45949 0.0
C145 C 0.42641 0.48149 0.48823 0.0
N146 N 0.37106 0.47308 0.56139 0.0
N147 N 0.5876 0.43013 0.45109 0.0
C148 C 0.41455 0.45161 0.53286 0.0
C149 C 0.527 0.43212 0.47642 0.0
N150 N 0.43195 0.36358 0.58874 0.0
N151 N 0.48347 0.48991 0.4155 0.0
H152 H 0.61895 0.398 0.4609 0.0
H153 H 0.61063 0.46456 0.42136 0.0
H154 H 0.44964 0.51668 0.40173 0.0
H155 H 0.51393 0.47404 0.39191 0.0
H156 H 0.38245 0.3571 0.6084 0.0
H157 H 0.46175 0.3323 0.6022 0.0
H158 H 0.36785 0.46148 0.59531 0.0
H159 H 0.34383 0.50936 0.55178 0.0
C160 C 0.03638 0.46513 0.03604 0.0
C161 C 0.07164 0.55289 0.04561 0.0
C162 C 0.93918 0.54625 0.02506 0.0
C163 C 0.90673 0.46072 0.01219 0.0
N164 N 0.92697 0.34156 0.99943 0.0
N165 N 0.06242 0.68118 0.04266 0.0
C166 C 0.95633 0.42116 0.01567 0.0
C167 C 0.02449 0.59459 0.03854 0.0
N168 N 0.07717 0.4225 0.0487 0.0
N169 N 0.88828 0.58122 0.0246 0.0
H170 H 0.12485 0.71909 0.05219 0.0
H171 H 0.03463 0.71682 0.03308 0.0
H172 H 0.82699 0.54981 0.01256 0.0
H173 H 0.90465 0.63915 0.03873 0.0
H174 H 0.05054 0.35655 0.04696 0.0
H175 H 0.13472 0.45157 0.06488 0.0
H176 H 0.96406 0.31348 0.99628 0.0
H177 H 0.86708 0.30577 0.98608 0.0
C178 C 0.54133 0.06587 0.4798 0.0
C179 C 0.57192 0.07262 0.52337 0.0
C180 C 0.54476 0.92555 0.52192 0.0
C181 C 0.51946 0.92096 0.47745 0.0
N182 N 0.50555 0.98985 0.41147 0.0
N183 N 0.61941 0.01627 0.58258 0.0
C184 C 0.5219 0.99235 0.45552 0.0
C185 C 0.578 0.00436 0.54362 0.0
N186 N 0.52642 0.12745 0.46246 0.0
N187 N 0.53654 0.85438 0.54353 0.0
H188 H 0.64678 0.07381 0.59894 0.0
H189 H 0.63379 0.97217 0.59665 0.0
H190 H 0.51705 0.79677 0.52811 0.0
H191 H 0.54386 0.85069 0.57739 0.0
H192 H 0.49536 0.12152 0.43293 0.0
H193 H 0.53827 0.18159 0.47932 0.0
H194 H 0.51583 0.04314 0.39249 0.0
H195 H 0.48763 0.93586 0.39299 0.0
loop_
_geom_bond_atom_site_label_1
_geom_bond_atom_site_label_2
_geom_bond_distance
_geom_bond_site_symmetry_2
_ccdc_geom_bond_type
C0 O1 1.160 1_554 S
C0 O7 1.185 . S
O1 C0 1.160 1_556 S
O2 Zn3 1.899 . S
O2 C10 1.284 . S
Zn3 O2 1.899 . S
Zn3 O4 2.032 . S
Zn3 O7 2.086 . S
Zn3 O12 1.977 . S
O4 Zn3 2.032 . S
O4 C8 1.278 . S
C5 O6 1.203 . S
C5 O12 1.267 . S
O6 C5 1.203 . S
O7 C0 1.185 . S
O7 Zn3 2.086 . S
C8 O4 1.278 . S
C8 O9 1.211 . S
O9 C8 1.211 . S
C10 O2 1.284 . S
C10 O11 1.273 . S
O11 C10 1.273 . S
O12 Zn3 1.977 . S
O12 C5 1.267 . S
C13 O14 1.160 . S
C13 O20 1.185 . S
O14 C13 1.160 . S
O15 Zn16 1.899 . S
O15 C23 1.284 . S
Zn16 O15 1.899 . S
Zn16 O17 2.032 . S
Zn16 O20 2.086 . S
Zn16 O25 1.977 . S
O17 Zn16 2.032 . S
O17 C21 1.278 . S
C18 O19 1.203 . S
C18 O25 1.267 . S
O19 C18 1.203 . S
O20 C13 1.185 . S
O20 Zn16 2.086 . S
C21 O17 1.278 . S
C21 O22 1.211 . S
O22 C21 1.211 . S
C23 O15 1.284 . S
C23 O24 1.273 . S
O24 C23 1.273 . S
O25 Zn16 1.977 . S
O25 C18 1.267 . S
C26 O27 1.160 . S
C26 O33 1.185 . S
O27 C26 1.160 . S
O28 Zn29 1.899 . S
O28 C36 1.284 . S
Zn29 O28 1.899 . S
Zn29 O30 2.032 . S
Zn29 O33 2.086 . S
Zn29 O38 1.977 . S
O30 Zn29 2.032 . S
O30 C34 1.278 . S
C31 O32 1.203 . S
C31 O38 1.267 . S
O32 C31 1.203 . S
O33 C26 1.185 . S
O33 Zn29 2.086 . S
C34 O30 1.278 . S
C34 O35 1.211 . S
O35 C34 1.211 . S
C36 O28 1.284 . S
C36 O37 1.273 . S
O37 C36 1.273 . S
O38 Zn29 1.977 . S
O38 C31 1.267 . S
C39 O40 1.160 1_556 S
C39 O46 1.185 . S
O40 C39 1.160 1_554 S
O41 Zn42 1.899 . S
O41 C49 1.284 . S
Zn42 O41 1.899 . S
Zn42 O43 2.032 . S
Zn42 O46 2.086 . S
Zn42 O51 1.977 . S
O43 Zn42 2.032 . S
O43 C47 1.278 . S
C44 O45 1.203 . S
C44 O51 1.267 . S
O45 C44 1.203 . S
O46 C39 1.185 . S
O46 Zn42 2.086 . S
C47 O43 1.278 . S
C47 O48 1.211 . S
O48 C47 1.211 . S
C49 O41 1.284 . S
C49 O50 1.273 . S
O50 C49 1.273 . S
O51 Zn42 1.977 . S
O51 C44 1.267 . S
C52 C53 1.363 . S
C52 C58 1.379 . S
C52 N60 1.356 . S
C53 C52 1.363 . S
C53 C59 1.363 . S
C54 C55 1.363 . S
C54 C59 1.379 . S
C54 N61 1.356 . S
C55 C54 1.363 . S
C55 C58 1.363 . S
N56 C58 1.356 . S
N56 H68 0.984 . S
N56 H69 0.985 . S
N57 C59 1.356 . S
N57 H62 0.984 . S
N57 H63 0.985 . S
C58 C52 1.379 . S
C58 C55 1.363 . S
C58 N56 1.356 . S
C59 C53 1.363 . S
C59 C54 1.379 . S
C59 N57 1.356 . S
N60 C52 1.356 . S
N60 H66 0.984 . S
N60 H67 0.984 . S
N61 C54 1.356 . S
N61 H64 0.984 . S
N61 H65 0.985 . S
H62 N57 0.984 . S
H63 N57 0.985 . S
H64 N61 0.984 . S
H65 N61 0.985 . S
H66 N60 0.984 . S
H67 N60 0.984 . S
H68 N56 0.984 . S
H69 N56 0.985 . S
C70 C71 1.363 . S
C70 C76 1.379 . S
C70 N78 1.356 . S
C71 C70 1.363 . S
C71 C77 1.363 . S
C72 C73 1.363 . S
C72 C77 1.379 . S
C72 N79 1.356 . S
C73 C72 1.363 . S
C73 C76 1.363 . S
N74 C76 1.356 . S
N74 H86 0.984 . S
N74 H87 0.985 . S
N75 C77 1.356 . S
N75 H80 0.984 . S
N75 H81 0.985 . S
C76 C70 1.379 . S
C76 C73 1.363 . S
C76 N74 1.356 . S
C77 C71 1.363 . S
C77 C72 1.379 . S
C77 N75 1.356 . S
N78 C70 1.356 . S
N78 H84 0.984 . S
N78 H85 0.984 . S
N79 C72 1.356 . S
N79 H82 0.984 . S
N79 H83 0.985 . S
H80 N75 0.984 . S
H81 N75 0.985 . S
H82 N79 0.984 . S
H83 N79 0.985 . S
H84 N78 0.984 . S
H85 N78 0.984 . S
H86 N74 0.984 . S
H87 N74 0.985 . S
C88 C89 1.363 . S
C88 C94 1.379 . S
C88 N96 1.356 . S
C89 C88 1.363 . S
C89 C95 1.363 1_554 S
C90 C91 1.363 . S
C90 C95 1.379 . S
C90 N97 1.356 . S
C91 C90 1.363 . S
C91 C94 1.363 1_556 S
N92 C94 1.356 . S
N92 H104 0.984 . S
N92 H105 0.985 . S
N93 C95 1.356 . S
N93 H98 0.984 . S
N93 H99 0.985 . S
C94 C88 1.379 . S
C94 C91 1.363 1_554 S
C94 N92 1.356 . S
C95 C89 1.363 1_556 S
C95 C90 1.379 . S
C95 N93 1.356 . S
N96 C88 1.356 . S
N96 H102 0.984 . S
N96 H103 0.984 . S
N97 C90 1.356 . S
N97 H100 0.984 . S
N97 H101 0.985 . S
H98 N93 0.984 . S
H99 N93 0.985 . S
H100 N97 0.984 . S
H101 N97 0.985 . S
H102 N96 0.984 . S
H103 N96 0.984 . S
H104 N92 0.984 . S
H105 N92 0.985 . S
C106 C107 1.363 . S
C106 C112 1.379 1_455 S
C106 N114 1.356 . S
C107 C106 1.363 . S
C107 C113 1.363 . S
C108 C109 1.363 . S
C108 C113 1.379 1_655 S
C108 N115 1.356 . S
C109 C108 1.363 . S
C109 C112 1.363 . S
N110 C112 1.356 . S
N110 H122 0.984 . S
N110 H123 0.985 . S
N111 C113 1.356 . S
N111 H116 0.984 . S
N111 H117 0.985 . S
C112 C106 1.379 1_655 S
C112 C109 1.363 . S
C112 N110 1.356 . S
C113 C107 1.363 . S
C113 C108 1.379 1_455 S
C113 N111 1.356 . S
N114 C106 1.356 . S
N114 H120 0.984 . S
N114 H121 0.984 . S
N115 C108 1.356 . S
N115 H118 0.984 . S
N115 H119 0.985 . S
H116 N111 0.984 . S
H117 N111 0.985 . S
H118 N115 0.984 . S
H119 N115 0.985 . S
H120 N114 0.984 . S
H121 N114 0.984 . S
H122 N110 0.984 . S
H123 N110 0.985 . S
C124 C125 1.363 . S
C124 C130 1.379 1_545 S
C124 N132 1.356 . S
C125 C124 1.363 . S
C125 C131 1.363 1_556 S
C126 C127 1.363 . S
C126 C131 1.379 1_565 S
C126 N133 1.356 . S
C127 C126 1.363 . S
C127 C130 1.363 1_554 S
N128 C130 1.356 . S
N128 H140 0.984 . S
N128 H141 0.985 . S
N129 C131 1.356 . S
N129 H134 0.984 . S
N129 H135 0.985 . S
C130 C124 1.379 1_565 S
C130 C127 1.363 1_556 S
C130 N128 1.356 . S
C131 C125 1.363 1_554 S
C131 C126 1.379 1_545 S
C131 N129 1.356 . S
N132 C124 1.356 . S
N132 H138 0.984 . S
N132 H139 0.984 . S
N133 C126 1.356 . S
N133 H136 0.984 . S
N133 H137 0.985 . S
H134 N129 0.984 . S
H135 N129 0.985 . S
H136 N133 0.984 . S
H137 N133 0.985 . S
H138 N132 0.984 . S
H139 N132 0.984 . S
H140 N128 0.984 . S
H141 N128 0.985 . S
C142 C143 1.363 . S
C142 C148 1.379 . S
C142 N150 1.356 . S
C143 C142 1.363 . S
C143 C149 1.363 . S
C144 C145 1.363 . S
C144 C149 1.379 . S
C144 N151 1.356 . S
C145 C144 1.363 . S
C145 C148 1.363 . S
N146 C148 1.356 . S
N146 H158 0.984 . S
N146 H159 0.985 . S
N147 C149 1.356 . S
N147 H152 0.984 . S
N147 H153 0.985 . S
C148 C142 1.379 . S
C148 C145 1.363 . S
C148 N146 1.356 . S
C149 C143 1.363 . S
C149 C144 1.379 . S
C149 N147 1.356 . S
N150 C142 1.356 . S
N150 H156 0.984 . S
N150 H157 0.984 . S
N151 C144 1.356 . S
N151 H154 0.984 . S
N151 H155 0.985 . S
H152 N147 0.984 . S
H153 N147 0.985 . S
H154 N151 0.984 . S
H155 N151 0.985 . S
H156 N150 0.984 . S
H157 N150 0.984 . S
H158 N146 0.984 . S
H159 N146 0.985 . S
C160 C161 1.363 . S
C160 C166 1.379 1_454 S
C160 N168 1.356 . S
C161 C160 1.363 . S
C161 C167 1.363 . S
C162 C163 1.363 1_554 S
C162 C167 1.379 1_655 S
C162 N169 1.356 1_554 S
C163 C162 1.363 1_556 S
C163 C166 1.363 . S
N164 C166 1.356 . S
N164 H176 0.984 . S
N164 H177 0.985 . S
N165 C167 1.356 . S
N165 H170 0.984 . S
N165 H171 0.985 . S
C166 C160 1.379 1_656 S
C166 C163 1.363 . S
C166 N164 1.356 . S
C167 C161 1.363 . S
C167 C162 1.379 1_455 S
C167 N165 1.356 . S
N168 C160 1.356 . S
N168 H174 0.984 . S
N168 H175 0.984 . S
N169 C162 1.356 1_556 S
N169 H172 0.984 . S
N169 H173 0.985 . S
H170 N165 0.984 . S
H171 N165 0.985 . S
H172 N169 0.984 . S
H173 N169 0.985 . S
H174 N168 0.984 . S
H175 N168 0.984 . S
H176 N164 0.984 . S
H177 N164 0.985 . S
C178 C179 1.363 . S
C178 C184 1.379 1_545 S
C178 N186 1.356 . S
C179 C178 1.363 . S
C179 C185 1.363 . S
C180 C181 1.363 . S
C180 C185 1.379 1_565 S
C180 N187 1.356 . S
C181 C180 1.363 . S
C181 C184 1.363 . S
N182 C184 1.356 . S
N182 H194 0.984 . S
N182 H195 0.985 . S
N183 C185 1.356 . S
N183 H188 0.984 . S
N183 H189 0.985 . S
C184 C178 1.379 1_565 S
C184 C181 1.363 . S
C184 N182 1.356 . S
C185 C179 1.363 . S
C185 C180 1.379 1_545 S
C185 N183 1.356 . S
N186 C178 1.356 . S
N186 H192 0.984 . S
N186 H193 0.984 . S
N187 C180 1.356 . S
N187 H190 0.984 . S
N187 H191 0.985 . S
H188 N183 0.984 . S
H189 N183 0.985 . S
H190 N187 0.984 . S
H191 N187 0.985 . S
H192 N186 0.984 . S
H193 N186 0.984 . S
H194 N182 0.984 . S
H195 N182 0.985 . S
C53 C5 1.500 . S
C55 C31 1.498 . S
C71 C18 1.498 . S
C73 C44 1.500 . S
C89 C0 1.510 . S
C91 C47 1.508 . S
C107 C36 1.471 . S
C109 C13 1.441 . S
C125 C49 1.423 . S
C127 C10 1.423 . S
C143 C23 1.470 . S
C145 C26 1.441 . S
C161 C8 1.508 . S
C163 C39 1.510 . S
C179 C21 1.548 . S
C181 C34 1.548 . S
