# Generated by pormake.
# Topology cds, (4)-cn, num edge types: 1
# Building blocks:
#     Node 0, Type 0, BuildingBlock: ESEHIV_clean_sbu_0, # of connection points: 4
#     Node 1, Type 0, BuildingBlock: ESEHIV_clean_sbu_0, # of connection points: 4
#     Edge 2, Type (0, 0), BuildingBlock: OJICUG_clean_linker_0, # of connection points: 2
#     Edge 3, Type (0, 0), BuildingBlock: OJICUG_clean_linker_0, # of connection points: 2
#     Edge 4, Type (0, 0), BuildingBlock: OJICUG_clean_linker_0, # of connection points: 2
#     Edge 5, Type (0, 0), BuildingBlock: OJICUG_clean_linker_0, # of connection points: 2
# Relax obj value: 0.000
# Max RMSD: 0.099
# Mean RMSD: 0.094
data_MOF--net-cds--node1-ESEHIV_clean_sbu_0--edge1-OJICUG_clean_linker_0
_symmetry_space_group_name_H-M    P1
_symmetry_Int_Tables_number       1
_symmetry_cell_setting            triclinic
loop_
_symmetry_equiv_pos_as_xyz
'x, y, z'
_cell_length_a     10.597006
_cell_length_b     13.011262
_cell_length_c     23.351765
_cell_angle_alpha  103.60407
_cell_angle_beta   102.19655
_cell_angle_gamma 87.697912
loop_
_atom_site_label
_atom_site_type_symbol
_atom_site_fract_x
_atom_site_fract_y
_atom_site_fract_z
_atom_type_partial_charge
Cu0 Cu 0.23092 0.15544 0.09579 0.0
N1 N 0.19631 0.06788 1.01784 0.0
N2 N 0.16348 1.02058 0.91713 0.0
C3 C 0.18333 0.10138 0.9665 0.0
C4 C 0.16659 0.93229 0.93828 0.0
C5 C 0.1871 0.96173 1.00049 0.0
O6 O 0.38391 0.23642 0.09841 0.0
C7 C 0.97592 0.24602 0.07421 0.0
O8 O 0.97287 0.20768 1.01672 0.0
H9 H 0.18757 0.18389 0.96543 0.0
H10 H 0.19439 0.90953 0.03087 0.0
N11 N 0.26195 0.07551 0.1545 0.0
N12 N 0.2337 1.02033 0.23498 0.0
C13 C 0.186 0.07808 0.19431 0.0
C14 C 0.36163 1.01322 0.17019 0.0
C15 C 0.34474 0.97943 0.22012 0.0
C16 C 0.48315 0.25498 0.14111 0.0
O17 O 0.4788 0.23452 0.19312 0.0
H18 H 0.09892 0.12434 0.1945 0.0
H19 H 0.44219 0.99568 0.14783 0.0
O20 O 0.08006 0.24066 0.11241 0.0
H21 H 0.1512 0.85257 0.91072 0.0
H22 H 0.40885 0.92871 0.24349 0.0
Cu23 Cu 0.95019 0.99258 0.54342 0.0
N24 N 0.8486 0.86955 0.51985 0.0
N25 N 0.78584 0.70332 0.51112 0.0
C26 C 0.87794 0.77859 0.53757 0.0
C27 C 0.69524 0.74935 0.47543 0.0
C28 C 0.73417 0.85152 0.4809 0.0
O29 O 0.04648 0.99999 0.62608 0.0
C30 C 0.99538 0.99139 0.43123 0.0
O31 O 0.86886 0.99611 0.42178 0.0
H32 H 0.96504 0.76845 0.56949 0.0
H33 H 0.68301 0.90826 0.45754 0.0
N34 N 0.84492 0.11174 0.542 0.0
N35 N 0.78129 0.2758 0.53612 0.0
C36 C 0.88041 0.20692 0.5369 0.0
C37 C 0.71914 0.12034 0.54446 0.0
C38 C 0.67975 0.22125 0.54099 0.0
C39 C 0.98968 1.03811 0.66944 0.0
O40 O 0.8719 0.07391 0.6573 0.0
H41 H 0.97656 0.22417 0.53264 0.0
H42 H 0.66042 0.05787 0.54905 0.0
O43 O 0.05748 0.9878 0.48389 0.0
H44 H 0.60812 0.71154 0.44633 0.0
H45 H 0.58392 0.25206 0.54271 0.0
C46 C 0.0419 1.01317 0.27811 0.0
C47 C 0.17642 1.00771 0.28393 0.0
H48 H 0.88074 1.0118 0.31909 0.0
C49 C 0.2527 0.99332 0.33869 0.0
H50 H 0.98002 1.02242 0.23641 0.0
C51 C 0.19524 0.98726 0.38694 0.0
C52 C 0.06041 0.99449 0.38103 0.0
H53 H 0.35675 0.98942 0.34471 0.0
H54 H 0.25623 0.97785 0.42884 0.0
C55 C 0.98487 1.00647 0.32574 0.0
C56 C 0.05422 0.11242 0.83945 0.0
C57 C 0.13062 1.02855 0.85508 0.0
H58 H 0.95036 0.18064 0.76867 0.0
C59 C 0.16931 0.95114 0.809 0.0
H60 H 1.02179 0.17262 0.87372 0.0
C61 C 0.13011 0.95676 0.74841 0.0
C62 C 0.04908 1.03854 0.73294 0.0
H63 H 0.22882 0.88596 0.81987 0.0
H64 H 0.15836 0.89486 0.71364 0.0
C65 C 1.01298 0.11676 0.77919 0.0
C66 C 0.84475 0.27858 0.15485 0.0
C67 C 0.85243 0.27274 0.09472 0.0
H68 H 0.72199 0.27831 0.21694 0.0
C69 C 0.73752 0.27784 0.05247 0.0
H70 H 0.9312 0.2753 0.1887 0.0
C71 C 0.61752 0.2801 0.06873 0.0
C72 C 0.60929 0.27669 0.12762 0.0
H73 H 0.73971 0.2745 1.0059 0.0
H74 H 0.53107 0.27834 0.03411 0.0
C75 C 0.72447 0.28021 0.17107 0.0
C76 C 0.66847 0.5384 0.50415 0.0
C77 C 0.78494 0.59594 0.5183 0.0
H78 H 0.57588 0.39225 0.49773 0.0
C79 C 0.90033 0.5462 0.53892 0.0
H80 H 0.57742 0.57402 0.48886 0.0
C81 C 0.89922 0.44173 0.54493 0.0
C82 C 0.78272 0.38404 0.5304 0.0
H83 H 0.99211 0.58725 0.54974 0.0
H84 H 0.98985 0.40671 0.56143 0.0
C85 C 0.6674 0.43399 0.50999 0.0
loop_
_geom_bond_atom_site_label_1
_geom_bond_atom_site_label_2
_geom_bond_distance
_geom_bond_site_symmetry_2
_ccdc_geom_bond_type
Cu0 N1 1.999 1_454 S
Cu0 O6 1.974 . S
Cu0 N11 1.985 . S
Cu0 O20 1.959 1_455 S
N1 Cu0 1.999 1_656 S
N1 C3 1.263 1_655 S
N1 C5 1.389 . S
N2 C3 1.358 1_655 S
N2 C4 1.400 . S
C3 N1 1.263 1_455 S
C3 N2 1.358 1_455 S
C3 H9 0.930 1_545 S
C4 N2 1.400 . S
C4 C5 1.351 . S
C4 H21 0.930 . S
C5 N1 1.389 . S
C5 C4 1.351 . S
C5 H10 0.930 . S
O6 Cu0 1.974 . S
O6 C16 1.282 1_545 S
C7 O8 1.261 . S
C7 O20 1.251 1_565 S
O8 C7 1.261 . S
H9 C3 0.930 1_565 S
H10 C5 0.930 . S
N11 Cu0 1.985 . S
N11 C13 1.335 1_455 S
N11 C14 1.390 1_545 S
N12 C13 1.345 1_455 S
N12 C15 1.336 1_545 S
C13 N11 1.335 1_655 S
C13 N12 1.345 1_655 S
C13 H18 0.930 . S
C14 N11 1.390 1_565 S
C14 C15 1.346 . S
C14 H19 0.930 . S
C15 N12 1.336 1_565 S
C15 C14 1.346 . S
C15 H22 0.929 . S
C16 O6 1.282 1_565 S
C16 O17 1.216 . S
O17 C16 1.216 . S
H18 C13 0.930 . S
H19 C14 0.930 . S
O20 Cu0 1.959 1_655 S
O20 C7 1.251 1_545 S
H21 C4 0.930 . S
H22 C15 0.929 . S
Cu23 N24 1.999 1_545 S
Cu23 O29 1.974 . S
Cu23 N34 1.985 . S
Cu23 O43 1.959 . S
N24 Cu23 1.999 1_565 S
N24 C26 1.263 . S
N24 C28 1.389 . S
N25 C26 1.358 . S
N25 C27 1.400 . S
C26 N24 1.263 . S
C26 N25 1.358 . S
C26 H32 0.930 1_455 S
C27 N25 1.400 . S
C27 C28 1.351 . S
C27 H44 0.930 . S
C28 N24 1.389 . S
C28 C27 1.351 . S
C28 H33 0.930 . S
O29 Cu23 1.974 . S
O29 C39 1.282 1_455 S
C30 O31 1.261 1_545 S
C30 O43 1.251 1_655 S
O31 C30 1.261 1_565 S
H32 C26 0.930 1_655 S
H33 C28 0.930 . S
N34 Cu23 1.985 . S
N34 C36 1.335 . S
N34 C37 1.390 1_455 S
N35 C36 1.345 . S
N35 C38 1.336 1_455 S
C36 N34 1.335 . S
C36 N35 1.345 . S
C36 H41 0.930 . S
C37 N34 1.390 1_655 S
C37 C38 1.346 . S
C37 H42 0.930 . S
C38 N35 1.336 1_655 S
C38 C37 1.346 . S
C38 H45 0.929 . S
C39 O29 1.282 1_655 S
C39 O40 1.216 . S
O40 C39 1.216 . S
H41 C36 0.930 . S
H42 C37 0.930 . S
O43 Cu23 1.959 . S
O43 C30 1.251 1_455 S
H44 C27 0.930 . S
H45 C38 0.929 . S
C46 C47 1.387 1_655 S
C46 H50 0.950 . S
C46 C55 1.390 . S
C47 C46 1.387 1_455 S
C47 C49 1.387 1_545 S
H48 C55 0.950 . S
C49 C47 1.387 1_565 S
C49 C51 1.392 . S
C49 H53 0.950 . S
H50 C46 0.950 . S
C51 C49 1.392 . S
C51 C52 1.386 1_465 S
C51 H54 0.950 . S
C52 C51 1.386 1_645 S
C52 C55 1.387 . S
H53 C49 0.950 . S
H54 C51 0.950 . S
C55 C46 1.390 . S
C55 H48 0.950 . S
C55 C52 1.387 . S
C56 C57 1.387 . S
C56 H60 0.949 . S
C56 C65 1.391 1_455 S
C57 C56 1.387 . S
C57 C59 1.388 1_445 S
H58 C65 0.950 . S
C59 C57 1.388 1_665 S
C59 C61 1.390 . S
C59 H63 0.950 . S
H60 C56 0.949 . S
C61 C59 1.390 . S
C61 C62 1.387 1_565 S
C61 H64 0.950 . S
C62 C61 1.387 1_545 S
C62 C65 1.387 . S
H63 C59 0.950 . S
H64 C61 0.950 . S
C65 C56 1.391 1_655 S
C65 H58 0.950 . S
C65 C62 1.387 . S
C66 C67 1.387 . S
C66 H70 0.950 . S
C66 C75 1.390 . S
C67 C66 1.387 . S
C67 C69 1.387 1_565 S
H68 C75 0.950 . S
C69 C67 1.387 1_545 S
C69 C71 1.390 . S
C69 H73 0.950 . S
H70 C66 0.950 . S
C71 C69 1.390 . S
C71 C72 1.387 1_545 S
C71 H74 0.950 . S
C72 C71 1.387 1_565 S
C72 C75 1.387 . S
H73 C69 0.950 . S
H74 C71 0.950 . S
C75 C66 1.390 . S
C75 H68 0.950 . S
C75 C72 1.387 . S
C76 C77 1.387 1_655 S
C76 H80 0.950 . S
C76 C85 1.390 . S
C77 C76 1.387 1_455 S
C77 C79 1.387 . S
H78 C85 0.950 . S
C79 C77 1.387 . S
C79 C81 1.390 . S
C79 H83 0.950 . S
H80 C76 0.950 . S
C81 C79 1.390 . S
C81 C82 1.387 . S
C81 H84 0.950 . S
C82 C81 1.387 . S
C82 C85 1.387 1_455 S
H83 C79 0.950 . S
H84 C81 0.950 . S
C85 C76 1.390 . S
C85 H78 0.950 . S
C85 C82 1.387 1_655 S
C47 N12 1.488 . S
C52 C30 1.513 . S
C57 N2 1.468 1_455 S
C62 C39 1.509 . S
C67 C7 1.497 . S
C72 C16 1.490 . S
C77 N25 1.464 . S
C82 N35 1.466 . S
