# Generated by pormake.
# Topology pcu, (6)-cn, num edge types: 1
# Building blocks:
#     Node 0, Type 0, BuildingBlock: MIFKUJ_clean_sbu_0, # of connection points: 6
#     Edge 1, Type (0, 0), BuildingBlock: XUDNAN_clean_linker_2, # of connection points: 2
#     Edge 2, Type (0, 0), BuildingBlock: XUDNAN_clean_linker_2, # of connection points: 2
#     Edge 3, Type (0, 0), BuildingBlock: XUDNAN_clean_linker_2, # of connection points: 2
# Relax obj value: 0.000
# Max RMSD: 0.000
# Mean RMSD: 0.000
data_MOF--net-pcu--node1-MIFKUJ_clean_sbu_0--edge1-XUDNAN_clean_linker_2
_symmetry_space_group_name_H-M    P1
_symmetry_Int_Tables_number       1
_symmetry_cell_setting            triclinic
loop_
_symmetry_equiv_pos_as_xyz
'x, y, z'
_cell_length_a     16.508282
_cell_length_b     18.551467
_cell_length_c     14.430554
_cell_angle_alpha  102.07848
_cell_angle_beta   91.122376
_cell_angle_gamma 107.63433
loop_
_atom_site_label
_atom_site_type_symbol
_atom_site_fract_x
_atom_site_fract_y
_atom_site_fract_z
_atom_type_partial_charge
Zn0 Zn 0.03511 0.87634 0.95626 0.0
Zn1 Zn 0.99022 0.05203 0.97925 0.0
C2 C 0.21199 0.92946 0.94838 0.0
O3 O 0.18688 0.8743 0.87044 0.0
C4 C 0.8355 0.07015 0.05238 0.0
O5 O 0.88992 0.11738 0.12299 0.0
O6 O 0.0346 0.76733 0.95605 0.0
O7 O 0.95047 0.89962 0.04364 0.0
O8 O 0.0262 0.02109 0.0976 0.0
C9 C 0.07782 0.75692 0.02314 0.0
O10 O 0.11978 0.817 0.09082 0.0
O11 O 0.15579 0.94573 0.00044 0.0
C12 C 1.01252 0.20317 0.94779 0.0
O13 O 0.95222 0.16246 0.8795 0.0
O14 O 0.04226 0.16784 -0.00035 0.0
O15 O 1.00753 0.00331 0.8424 0.0
O16 O 1.00891 0.88182 0.82488 0.0
O17 O 0.86348 0.0339 0.982 0.0
C18 C 0.98543 0.95543 0.11337 0.0
C19 C 1.00758 0.93879 0.78987 0.0
H20 H 1.02211 0.06064 0.28681 0.0
H21 H 0.9536 0.81431 0.1569 0.0
H22 H 0.95624 0.78536 0.31519 0.0
H23 H 0.16255 0.06186 0.48473 0.0
H24 H 0.12726 0.12983 0.56936 0.0
H25 H 0.12431 0.1327 0.44533 0.0
H26 H 0.96317 0.1183 0.44355 0.0
H27 H 0.96563 0.1153 0.56751 0.0
H28 H 0.89118 0.03748 0.48154 0.0
H29 H 0.96557 0.78154 0.48441 0.0
H30 H 0.97472 0.80226 0.65852 0.0
H31 H 0.03071 0.05051 0.68373 0.0
C32 C 1.0084 0.00077 0.29194 0.0
C33 C 0.98844 0.93982 0.20944 0.0
C34 C 0.96939 0.86205 0.21893 0.0
C35 C 0.97082 0.84491 0.30858 0.0
C36 C 0.99031 0.90603 0.38835 0.0
C37 C 1.00817 -0.01765 0.38142 0.0
C38 C 0.02362 0.03635 0.47937 0.0
C39 C 0.11487 0.09356 0.49563 0.0
C40 C 0.95691 0.07938 0.49382 0.0
C41 C 1.01159 -0.0218 0.54195 0.0
C42 C 0.99312 0.90354 0.48751 0.0
C43 C 0.97986 0.83967 0.52805 0.0
C44 C 0.98535 0.8522 0.6272 0.0
C45 C 1.00328 0.92803 0.68509 0.0
C46 C 1.01654 -0.00815 0.64154 0.0
H47 H 0.34519 0.90222 0.85347 0.0
H48 H 0.28747 0.03784 0.11232 0.0
H49 H 0.44149 0.09097 0.16626 0.0
H50 H 0.50827 0.85072 0.95914 0.0
H51 H 0.5735 0.85732 0.86061 0.0
H52 H 0.45956 0.83355 0.84031 0.0
H53 H 0.47959 0.94927 0.7593 0.0
H54 H 0.59368 0.97313 0.77879 0.0
H55 H 0.54275 0.04537 0.82231 0.0
H56 H 0.60201 0.12489 0.19422 0.0
H57 H 0.75569 0.13929 0.19257 0.0
H58 H 0.70643 -0.01968 0.91526 0.0
C59 C 0.36475 0.94372 0.92112 0.0
C60 C 0.30421 0.96604 0.9786 0.0
C61 C 0.33271 0.02015 0.06688 0.0
C62 C 0.42002 0.05052 0.09816 0.0
C63 C 0.47785 0.02631 0.04019 0.0
C64 C 0.45131 0.97442 0.95332 0.0
C65 C 0.52574 0.95615 0.90531 0.0
C66 C 0.51617 0.86929 0.89052 0.0
C67 C 0.53603 -0.01742 0.81084 0.0
C68 C 0.59845 0.0053 0.97912 0.0
C69 C 0.56968 0.04553 0.05631 0.0
C70 C 0.62523 0.09393 0.13393 0.0
C71 C 0.71242 0.10161 0.13237 0.0
C72 C 0.74324 0.06097 0.05379 0.0
C73 C 0.68509 0.01223 0.97639 0.0
H74 H 0.99122 0.61813 0.90071 0.0
H75 H 0.17424 0.71873 0.14957 0.0
H76 H 0.18224 0.58869 0.15308 0.0
H77 H 0.87788 0.44599 0.97521 0.0
H78 H 0.86 0.38419 0.85746 0.0
H79 H 0.87107 0.48562 0.87247 0.0
H80 H 0.99417 0.50111 0.76198 0.0
H81 H 0.98366 0.39971 0.74691 0.0
H82 H 0.08523 0.47238 0.78937 0.0
H83 H 0.1685 0.44754 0.13155 0.0
H84 H 0.1302 0.3046 0.08949 0.0
H85 H 0.95562 0.29605 0.85535 0.0
C86 C 0.03328 0.61291 0.95572 0.0
C87 C 0.08225 0.67871 0.02475 0.0
C88 C 0.1361 0.66924 0.09587 0.0
C89 C 0.14129 0.59562 0.09837 0.0
C90 C 0.09222 0.53202 0.02929 0.0
C91 C 0.03906 0.53983 0.95945 0.0
C92 C 0.99126 0.46182 0.89524 0.0
C93 C 0.89432 0.44333 0.90047 0.0
C94 C 1.01503 0.45859 0.79228 0.0
C95 C 0.02539 0.40891 0.94038 0.0
C96 C 0.08391 0.45058 0.01724 0.0
C97 C 0.12296 0.41426 0.07129 0.0
C98 C 0.10084 0.33304 0.04676 0.0
C99 C 0.04001 0.28904 0.96906 0.0
C100 C 1.00261 0.3279 0.91489 0.0
loop_
_geom_bond_atom_site_label_1
_geom_bond_atom_site_label_2
_geom_bond_distance
_geom_bond_site_symmetry_2
_ccdc_geom_bond_type
Zn0 O6 1.969 . S
Zn0 O7 1.965 1_456 S
Zn0 O11 2.024 1_556 S
Zn0 O16 1.969 . S
Zn1 O8 1.969 . S
Zn1 O14 1.969 . S
Zn1 O15 1.965 1_654 S
Zn1 O17 2.024 1_554 S
C2 O3 1.229 . S
C2 O11 1.058 1_556 S
O3 C2 1.229 . S
C4 O5 1.229 . S
C4 O17 1.058 1_554 S
O5 C4 1.229 . S
O6 Zn0 1.969 . S
O6 C9 1.267 1_556 S
O7 Zn0 1.965 1_654 S
O7 C18 1.266 . S
O8 Zn1 1.969 . S
O8 C18 1.249 1_545 S
C9 O6 1.267 1_554 S
C9 O10 1.228 . S
O10 C9 1.228 . S
O11 Zn0 2.024 1_554 S
O11 C2 1.058 1_554 S
C12 O13 1.228 . S
C12 O14 1.267 1_556 S
O13 C12 1.228 . S
O14 Zn1 1.969 . S
O14 C12 1.267 1_554 S
O15 Zn1 1.965 1_456 S
O15 C19 1.269 . S
O16 Zn0 1.969 . S
O16 C19 1.245 1_565 S
O17 Zn1 2.024 1_556 S
O17 C4 1.058 1_556 S
C18 O7 1.266 . S
C18 O8 1.249 1_565 S
C19 O15 1.269 . S
C19 O16 1.245 1_545 S
H20 C32 0.930 . S
H21 C34 0.930 . S
H22 C35 0.930 . S
H23 C39 0.959 . S
H24 C39 0.959 . S
H25 C39 0.961 . S
H26 C40 0.960 1_455 S
H27 C40 0.961 1_455 S
H28 C40 0.959 . S
H29 C43 0.929 . S
H30 C44 0.931 . S
H31 C46 0.930 . S
C32 H20 0.930 . S
C32 C33 1.399 1_445 S
C32 C37 1.399 . S
C33 C32 1.399 1_665 S
C33 C34 1.376 . S
C34 H21 0.930 . S
C34 C33 1.376 . S
C34 C35 1.388 . S
C35 H22 0.930 . S
C35 C34 1.388 . S
C35 C36 1.390 . S
C36 C35 1.390 . S
C36 C37 1.394 1_665 S
C36 C42 1.465 . S
C37 C32 1.399 . S
C37 C36 1.394 1_445 S
C37 C38 1.516 . S
C38 C37 1.516 . S
C38 C39 1.502 . S
C38 C40 1.561 1_455 S
C38 C41 1.526 . S
C39 H23 0.959 . S
C39 H24 0.959 . S
C39 H25 0.961 . S
C39 C38 1.502 . S
C40 H26 0.960 1_655 S
C40 H27 0.961 1_655 S
C40 H28 0.959 . S
C40 C38 1.561 1_655 S
C41 C38 1.526 . S
C41 C42 1.396 1_445 S
C41 C46 1.390 . S
C42 C36 1.465 . S
C42 C41 1.396 1_665 S
C42 C43 1.399 . S
C43 H29 0.929 . S
C43 C42 1.399 . S
C43 C44 1.385 . S
C44 H30 0.931 . S
C44 C43 1.385 . S
C44 C45 1.389 . S
C45 C44 1.389 . S
C45 C46 1.387 1_665 S
C46 H31 0.930 . S
C46 C41 1.390 . S
C46 C45 1.387 1_445 S
H47 C59 0.930 . S
H48 C61 0.930 . S
H49 C62 0.930 . S
H50 C66 0.959 . S
H51 C66 0.959 . S
H52 C66 0.961 . S
H53 C67 0.960 1_565 S
H54 C67 0.961 1_565 S
H55 C67 0.959 . S
H56 C70 0.929 . S
H57 C71 0.931 . S
H58 C73 0.930 . S
C59 H47 0.930 . S
C59 C60 1.399 1_566 S
C59 C64 1.399 . S
C60 C59 1.399 1_544 S
C60 C61 1.376 . S
C61 H48 0.930 . S
C61 C60 1.376 . S
C61 C62 1.388 . S
C62 H49 0.930 . S
C62 C61 1.388 . S
C62 C63 1.390 . S
C63 C62 1.390 . S
C63 C64 1.394 1_544 S
C63 C69 1.465 . S
C64 C59 1.399 . S
C64 C63 1.394 1_566 S
C64 C65 1.516 . S
C65 C64 1.516 . S
C65 C66 1.502 . S
C65 C67 1.561 1_565 S
C65 C68 1.526 . S
C66 H50 0.959 . S
C66 H51 0.959 . S
C66 H52 0.961 . S
C66 C65 1.502 . S
C67 H53 0.960 1_545 S
C67 H54 0.961 1_545 S
C67 H55 0.959 . S
C67 C65 1.561 1_545 S
C68 C65 1.526 . S
C68 C69 1.396 1_566 S
C68 C73 1.390 . S
C69 C63 1.465 . S
C69 C68 1.396 1_544 S
C69 C70 1.399 . S
C70 H56 0.929 . S
C70 C69 1.399 . S
C70 C71 1.385 . S
C71 H57 0.931 . S
C71 C70 1.385 . S
C71 C72 1.389 . S
C72 C71 1.389 . S
C72 C73 1.387 1_544 S
C73 H58 0.930 . S
C73 C68 1.390 . S
C73 C72 1.387 1_566 S
H74 C86 0.930 . S
H75 C88 0.930 . S
H76 C89 0.930 . S
H77 C93 0.959 . S
H78 C93 0.959 . S
H79 C93 0.961 . S
H80 C94 0.960 . S
H81 C94 0.961 1_655 S
H82 C94 0.959 . S
H83 C97 0.929 . S
H84 C98 0.931 . S
H85 C100 0.930 . S
C86 H74 0.930 . S
C86 C87 1.399 1_656 S
C86 C91 1.399 . S
C87 C86 1.399 1_454 S
C87 C88 1.376 . S
C88 H75 0.930 . S
C88 C87 1.376 . S
C88 C89 1.388 . S
C89 H76 0.930 . S
C89 C88 1.388 . S
C89 C90 1.390 . S
C90 C89 1.390 . S
C90 C91 1.394 1_454 S
C90 C96 1.465 . S
C91 C86 1.399 . S
C91 C90 1.394 1_656 S
C91 C92 1.516 . S
C92 C91 1.516 . S
C92 C93 1.502 . S
C92 C94 1.561 1_655 S
C92 C95 1.526 . S
C93 H77 0.959 . S
C93 H78 0.959 . S
C93 H79 0.961 . S
C93 C92 1.502 . S
C94 H80 0.960 . S
C94 H81 0.961 1_455 S
C94 H82 0.959 . S
C94 C92 1.561 1_455 S
C95 C92 1.526 . S
C95 C96 1.396 1_656 S
C95 C100 1.390 . S
C96 C90 1.465 . S
C96 C95 1.396 1_454 S
C96 C97 1.399 . S
C97 H83 0.929 . S
C97 C96 1.399 . S
C97 C98 1.385 . S
C98 H84 0.931 . S
C98 C97 1.385 . S
C98 C99 1.389 . S
C99 C98 1.389 . S
C99 C100 1.387 1_454 S
C100 H85 0.930 . S
C100 C95 1.390 . S
C100 C99 1.387 1_656 S
C33 C18 1.461 . S
C45 C19 1.482 1_665 S
C60 C2 1.451 1_544 S
C72 C4 1.374 . S
C87 C9 1.418 . S
C99 C12 1.480 1_454 S
