# Generated by pormake.
# Topology uon, (4)-cn, num edge types: 1
# Building blocks:
#     Node 0, Type 0, BuildingBlock: ESEHIV_clean_sbu_0, # of connection points: 4
#     Node 1, Type 0, BuildingBlock: ESEHIV_clean_sbu_0, # of connection points: 4
#     Node 2, Type 0, BuildingBlock: ESEHIV_clean_sbu_0, # of connection points: 4
#     Node 3, Type 0, BuildingBlock: ESEHIV_clean_sbu_0, # of connection points: 4
#     Node 4, Type 0, BuildingBlock: ESEHIV_clean_sbu_0, # of connection points: 4
#     Node 5, Type 0, BuildingBlock: ESEHIV_clean_sbu_0, # of connection points: 4
#     Edge 6, Type (0, 0), None
#     Edge 7, Type (0, 0), None
#     Edge 8, Type (0, 0), None
#     Edge 9, Type (0, 0), None
#     Edge 10, Type (0, 0), None
#     Edge 11, Type (0, 0), None
#     Edge 12, Type (0, 0), None
#     Edge 13, Type (0, 0), None
#     Edge 14, Type (0, 0), None
#     Edge 15, Type (0, 0), None
#     Edge 16, Type (0, 0), None
#     Edge 17, Type (0, 0), None
# Relax obj value: 0.073
# Max RMSD: 0.075
# Mean RMSD: 0.075
data_MOF--net-uon--node1-ESEHIV_clean_sbu_0--edge1-none
_symmetry_space_group_name_H-M    P1
_symmetry_Int_Tables_number       1
_symmetry_cell_setting            triclinic
loop_
_symmetry_equiv_pos_as_xyz
'x, y, z'
_cell_length_a     16.102871
_cell_length_b     15.863566
_cell_length_c     13.275174
_cell_angle_alpha  91.247435
_cell_angle_beta   88.803349
_cell_angle_gamma 119.21065
loop_
_atom_site_label
_atom_site_type_symbol
_atom_site_fract_x
_atom_site_fract_y
_atom_site_fract_z
_atom_type_partial_charge
Cu0 Cu 0.3066 0.51305 0.0535 0.0
N1 N 0.33236 0.63424 1.01055 0.0
N2 N 0.40677 0.76621 0.91702 0.0
C3 C 0.4153 0.69868 0.96896 0.0
C4 C 0.31556 0.74581 0.93002 0.0
C5 C 0.26951 0.66348 0.98737 0.0
O6 O 0.31012 0.44256 0.93219 0.0
C7 C 0.47042 0.58655 0.19515 0.0
O8 O 0.53859 0.57176 0.22822 0.0
H9 H 0.47751 0.68921 0.96675 0.0
H10 H 0.19384 0.62227 1.00194 0.0
N11 N 0.1849 0.44851 0.11084 0.0
N12 N 1.06427 0.39586 0.22161 0.0
C13 C 0.15966 0.43803 0.20905 0.0
C14 C 0.10284 0.41014 0.05976 0.0
C15 C 1.02818 0.37736 0.12784 0.0
C16 C 0.3902 0.45527 0.89885 0.0
O17 O 0.46762 0.51393 0.94818 0.0
H18 H 0.21027 0.46311 0.26957 0.0
H19 H 0.09802 0.40939 0.97856 0.0
O20 O 0.40472 0.51937 0.14288 0.0
H21 H 0.28222 0.78119 0.89217 0.0
H22 H 0.95355 0.34628 0.10976 0.0
Cu23 Cu 0.84848 0.35297 0.42063 0.0
N24 N 0.74721 0.35684 0.35994 0.0
N25 N 0.69088 0.41015 0.23923 0.0
C26 C 0.76312 0.43196 0.30262 0.0
C27 C 0.62433 0.31884 0.26134 0.0
C28 C 0.65975 0.28581 0.33572 0.0
O29 O 0.92512 0.34979 0.30754 0.0
C30 C 0.90055 0.53178 0.53803 0.0
O31 O 0.96831 0.6185 0.56357 0.0
H32 H 0.83202 0.49646 0.29795 0.0
H33 H 0.62826 0.21261 0.36189 0.0
N34 N 0.81546 0.24667 0.50333 0.0
N35 N 0.74519 0.0998 0.57133 0.0
C36 C 0.7441 0.15464 0.49529 0.0
C37 C 0.86401 0.2491 0.58565 0.0
C38 C 0.82089 0.15876 0.62788 0.0
C39 C 1.01489 0.38427 0.30934 0.0
O40 O 1.05994 0.41599 0.39504 0.0
H41 H 0.69253 0.12831 0.43552 0.0
H42 H 0.92625 0.3127 0.61338 0.0
O43 O 0.92449 0.4747 0.49293 0.0
H44 H 0.56001 0.27548 0.21908 0.0
H45 H 0.84295 0.13832 0.6954 0.0
Cu46 Cu 0.61265 0.83045 0.70581 0.0
N47 N 0.52419 0.75056 0.60962 0.0
N48 N 0.39178 0.67849 0.51795 0.0
C49 C 0.44855 0.75585 0.57569 0.0
C50 C 0.43278 0.62186 0.5159 0.0
C51 C 0.51431 0.66647 0.57264 0.0
O52 O 0.6908 0.96518 0.66755 0.0
C53 C 0.46918 0.82242 0.84499 0.0
O54 O 0.44414 0.86639 0.7793 0.0
H55 H 0.4342 0.81385 0.59498 0.0
H56 H 0.56177 0.63834 0.58815 0.0
N57 N 0.69172 0.78023 0.73757 0.0
N58 N 0.74657 0.70199 0.82914 0.0
C59 C 0.67014 0.71097 0.80615 0.0
C60 C 0.78464 0.81558 0.71541 0.0
C61 C 0.81877 0.76707 0.77174 0.0
C62 C 0.68261 1.0052 0.58899 0.0
O63 O 0.61371 0.9549 0.52555 0.0
H64 H 0.601 0.67172 0.84227 0.0
H65 H 0.82562 0.87555 0.66583 0.0
O66 O 0.54415 0.81623 0.8301 0.0
H67 H 0.4061 0.55347 0.47591 0.0
H68 H 0.89151 0.7806 0.77264 0.0
Cu69 Cu 0.8473 0.56194 1.00717 0.0
N70 N 0.81473 0.44679 0.93779 0.0
N71 N 0.72922 0.32051 0.83661 0.0
C72 C 0.73073 0.39305 0.89263 0.0
C73 C 0.81601 0.32852 0.8469 0.0
C74 C 0.86869 0.40658 0.91018 0.0
O75 O 0.82991 0.64685 0.91726 0.0
C76 C 0.69919 0.4579 0.15263 0.0
O77 O 0.63811 0.41449 0.07994 0.0
H78 H 0.67475 0.41217 0.89348 0.0
H79 H 0.94243 0.43495 0.9303 0.0
N80 N 0.97462 0.62516 0.04407 0.0
N81 N 0.09969 0.68404 0.14598 0.0
C82 C 1.01168 0.61006 0.12756 0.0
C83 C 1.04168 0.71065 1.0082 0.0
C84 C 0.11895 0.74724 0.0709 0.0
C85 C 0.75099 0.64303 0.89917 0.0
O86 O 0.67418 0.58201 0.9487 0.0
H87 H 0.97271 0.54931 0.17696 0.0
H88 H 1.03253 0.74667 0.94458 0.0
O89 O 0.77775 0.53364 0.13392 0.0
H90 H 0.84102 0.2843 0.80817 0.0
H91 H 0.18325 0.81618 0.06337 0.0
Cu92 Cu 0.33342 0.80319 0.33288 0.0
N93 N 0.42058 0.77234 0.2723 0.0
N94 N 0.472 0.67139 0.21811 0.0
C95 C 0.39725 0.68753 0.2253 0.0
C96 C 0.54531 0.7499 0.26069 0.0
C97 C 0.51347 0.81222 0.29355 0.0
O98 O 0.23493 0.77374 0.23495 0.0
C99 C 0.31278 0.66302 0.46736 0.0
O100 O 0.27098 0.58759 0.40712 0.0
H101 H 0.32465 0.6338 0.20941 0.0
H102 H 0.55269 0.87728 0.3382 0.0
N103 N 0.38865 0.93403 0.36853 0.0
N104 N 0.44115 0.06673 0.46574 0.0
C105 C 0.41677 0.97239 0.46143 0.0
C106 C 0.39506 1.00658 0.31225 0.0
C107 C 0.42738 0.08866 0.3721 0.0
C108 C 0.15657 0.69564 0.22533 0.0
O109 O 0.13192 0.62663 0.29125 0.0
H110 H 0.41576 0.93123 0.52548 0.0
H111 H 0.3742 0.99929 0.23423 0.0
O112 O 0.29431 0.73182 0.45775 0.0
H113 H 0.61534 0.75869 0.27345 0.0
H114 H 0.4379 0.1583 0.34913 0.0
Cu115 Cu 0.54468 0.31076 0.64928 0.0
N116 N 0.65455 0.41792 0.60174 0.0
N117 N 0.80814 0.50635 0.55896 0.0
C118 C 0.73309 0.41669 0.56669 0.0
C119 C 0.77554 0.56639 0.59086 0.0
C120 C 0.68071 0.5117 0.61673 0.0
O121 O 0.49204 0.21446 0.54111 0.0
C122 C 0.66068 0.26558 0.76926 0.0
O123 O 0.68056 0.22431 0.6931 0.0
H124 H 0.73693 0.35122 0.55599 0.0
H125 H 0.63591 0.53817 0.65017 0.0
N126 N 0.45801 0.34802 0.69978 0.0
N127 N 0.39644 0.40753 0.81505 0.0
C128 C 0.47584 0.40815 0.77944 0.0
C129 C 0.36389 0.3083 0.6837 0.0
C130 C 0.32559 0.34536 0.75472 0.0
C131 C 0.47182 0.12654 0.54794 0.0
O132 O 0.48219 0.09438 0.63454 0.0
H133 H 0.54489 0.44691 0.81443 0.0
H134 H 0.32504 0.2524 0.6282 0.0
O135 O 0.58564 0.27299 0.7674 0.0
H136 H 0.81808 0.64411 0.59834 0.0
H137 H 0.25125 0.32536 0.76362 0.0
loop_
_geom_bond_atom_site_label_1
_geom_bond_atom_site_label_2
_geom_bond_distance
_geom_bond_site_symmetry_2
_ccdc_geom_bond_type
Cu0 N1 1.999 . S
Cu0 O6 1.974 . S
Cu0 N11 1.985 1_556 S
Cu0 O20 1.959 1_556 S
N1 Cu0 1.999 . S
N1 C3 1.263 . S
N1 C5 1.389 . S
N2 C3 1.358 . S
N2 C4 1.400 . S
C3 N1 1.263 . S
C3 N2 1.358 . S
C3 H9 0.930 . S
C4 N2 1.400 . S
C4 C5 1.351 . S
C4 H21 0.930 . S
C5 N1 1.389 . S
C5 C4 1.351 . S
C5 H10 0.930 . S
O6 Cu0 1.974 . S
O6 C16 1.282 . S
C7 O8 1.261 . S
C7 O20 1.251 . S
O8 C7 1.261 . S
H9 C3 0.930 . S
H10 C5 0.930 . S
N11 Cu0 1.985 1_554 S
N11 C13 1.335 . S
N11 C14 1.390 . S
N12 C13 1.345 1_655 S
N12 C15 1.336 1_655 S
C13 N11 1.335 . S
C13 N12 1.345 1_455 S
C13 H18 0.930 . S
C14 N11 1.390 . S
C14 C15 1.346 . S
C14 H19 0.930 . S
C15 N12 1.336 1_455 S
C15 C14 1.346 . S
C15 H22 0.929 . S
C16 O6 1.282 . S
C16 O17 1.216 . S
O17 C16 1.216 . S
H18 C13 0.930 . S
H19 C14 0.930 . S
O20 Cu0 1.959 1_554 S
O20 C7 1.251 . S
H21 C4 0.930 . S
H22 C15 0.929 . S
Cu23 N24 1.999 . S
Cu23 O29 1.974 . S
Cu23 N34 1.985 . S
Cu23 O43 1.959 . S
N24 Cu23 1.999 . S
N24 C26 1.263 . S
N24 C28 1.389 . S
N25 C26 1.358 . S
N25 C27 1.400 . S
C26 N24 1.263 . S
C26 N25 1.358 . S
C26 H32 0.930 . S
C27 N25 1.400 . S
C27 C28 1.351 . S
C27 H44 0.930 . S
C28 N24 1.389 . S
C28 C27 1.351 . S
C28 H33 0.930 . S
O29 Cu23 1.974 . S
O29 C39 1.282 . S
C30 O31 1.261 . S
C30 O43 1.251 . S
O31 C30 1.261 . S
H32 C26 0.930 . S
H33 C28 0.930 . S
N34 Cu23 1.985 . S
N34 C36 1.335 . S
N34 C37 1.390 . S
N35 C36 1.345 1_565 S
N35 C38 1.336 1_565 S
C36 N34 1.335 . S
C36 N35 1.345 1_545 S
C36 H41 0.930 . S
C37 N34 1.390 . S
C37 C38 1.346 . S
C37 H42 0.930 . S
C38 N35 1.336 1_545 S
C38 C37 1.346 . S
C38 H45 0.929 . S
C39 O29 1.282 . S
C39 O40 1.216 . S
O40 C39 1.216 . S
H41 C36 0.930 . S
H42 C37 0.930 . S
O43 Cu23 1.959 . S
O43 C30 1.251 . S
H44 C27 0.930 . S
H45 C38 0.929 . S
Cu46 N47 1.999 . S
Cu46 O52 1.974 . S
Cu46 N57 1.985 . S
Cu46 O66 1.959 . S
N47 Cu46 1.999 . S
N47 C49 1.263 . S
N47 C51 1.389 . S
N48 C49 1.358 . S
N48 C50 1.400 . S
C49 N47 1.263 . S
C49 N48 1.358 . S
C49 H55 0.930 . S
C50 N48 1.400 . S
C50 C51 1.351 . S
C50 H67 0.930 . S
C51 N47 1.389 . S
C51 C50 1.351 . S
C51 H56 0.930 . S
O52 Cu46 1.974 . S
O52 C62 1.282 . S
C53 O54 1.261 . S
C53 O66 1.251 . S
O54 C53 1.261 . S
H55 C49 0.930 . S
H56 C51 0.930 . S
N57 Cu46 1.985 . S
N57 C59 1.335 . S
N57 C60 1.390 . S
N58 C59 1.345 . S
N58 C61 1.336 . S
C59 N57 1.335 . S
C59 N58 1.345 . S
C59 H64 0.930 . S
C60 N57 1.390 . S
C60 C61 1.346 . S
C60 H65 0.930 . S
C61 N58 1.336 . S
C61 C60 1.346 . S
C61 H68 0.929 . S
C62 O52 1.282 . S
C62 O63 1.216 . S
O63 C62 1.216 . S
H64 C59 0.930 . S
H65 C60 0.930 . S
O66 Cu46 1.959 . S
O66 C53 1.251 . S
H67 C50 0.930 . S
H68 C61 0.929 . S
Cu69 N70 1.999 . S
Cu69 O75 1.974 . S
Cu69 N80 1.985 1_556 S
Cu69 O89 1.959 1_556 S
N70 Cu69 1.999 . S
N70 C72 1.263 . S
N70 C74 1.389 . S
N71 C72 1.358 . S
N71 C73 1.400 . S
C72 N70 1.263 . S
C72 N71 1.358 . S
C72 H78 0.930 . S
C73 N71 1.400 . S
C73 C74 1.351 . S
C73 H90 0.930 . S
C74 N70 1.389 . S
C74 C73 1.351 . S
C74 H79 0.930 . S
O75 Cu69 1.974 . S
O75 C85 1.282 . S
C76 O77 1.261 . S
C76 O89 1.251 . S
O77 C76 1.261 . S
H78 C72 0.930 . S
H79 C74 0.930 . S
N80 Cu69 1.985 1_554 S
N80 C82 1.335 . S
N80 C83 1.390 . S
N81 C82 1.345 1_455 S
N81 C84 1.336 1_455 S
C82 N80 1.335 . S
C82 N81 1.345 1_655 S
C82 H87 0.930 . S
C83 N80 1.390 . S
C83 C84 1.346 . S
C83 H88 0.930 . S
C84 N81 1.336 1_655 S
C84 C83 1.346 . S
C84 H91 0.929 . S
C85 O75 1.282 . S
C85 O86 1.216 . S
O86 C85 1.216 . S
H87 C82 0.930 . S
H88 C83 0.930 . S
O89 Cu69 1.959 1_554 S
O89 C76 1.251 . S
H90 C73 0.930 . S
H91 C84 0.929 . S
Cu92 N93 1.999 . S
Cu92 O98 1.974 . S
Cu92 N103 1.985 . S
Cu92 O112 1.959 . S
N93 Cu92 1.999 . S
N93 C95 1.263 . S
N93 C97 1.389 . S
N94 C95 1.358 . S
N94 C96 1.400 . S
C95 N93 1.263 . S
C95 N94 1.358 . S
C95 H101 0.930 . S
C96 N94 1.400 . S
C96 C97 1.351 . S
C96 H113 0.930 . S
C97 N93 1.389 . S
C97 C96 1.351 . S
C97 H102 0.930 . S
O98 Cu92 1.974 . S
O98 C108 1.282 . S
C99 O100 1.261 . S
C99 O112 1.251 . S
O100 C99 1.261 . S
H101 C95 0.930 . S
H102 C97 0.930 . S
N103 Cu92 1.985 . S
N103 C105 1.335 . S
N103 C106 1.390 . S
N104 C105 1.345 1_545 S
N104 C107 1.336 1_545 S
C105 N103 1.335 . S
C105 N104 1.345 1_565 S
C105 H110 0.930 . S
C106 N103 1.390 . S
C106 C107 1.346 . S
C106 H111 0.930 . S
C107 N104 1.336 1_565 S
C107 C106 1.346 . S
C107 H114 0.929 . S
C108 O98 1.282 . S
C108 O109 1.216 . S
O109 C108 1.216 . S
H110 C105 0.930 . S
H111 C106 0.930 . S
O112 Cu92 1.959 . S
O112 C99 1.251 . S
H113 C96 0.930 . S
H114 C107 0.929 . S
Cu115 N116 1.999 . S
Cu115 O121 1.974 . S
Cu115 N126 1.985 . S
Cu115 O135 1.959 . S
N116 Cu115 1.999 . S
N116 C118 1.263 . S
N116 C120 1.389 . S
N117 C118 1.358 . S
N117 C119 1.400 . S
C118 N116 1.263 . S
C118 N117 1.358 . S
C118 H124 0.930 . S
C119 N117 1.400 . S
C119 C120 1.351 . S
C119 H136 0.930 . S
C120 N116 1.389 . S
C120 C119 1.351 . S
C120 H125 0.930 . S
O121 Cu115 1.974 . S
O121 C131 1.282 . S
C122 O123 1.261 . S
C122 O135 1.251 . S
O123 C122 1.261 . S
H124 C118 0.930 . S
H125 C120 0.930 . S
N126 Cu115 1.985 . S
N126 C128 1.335 . S
N126 C129 1.390 . S
N127 C128 1.345 . S
N127 C130 1.336 . S
C128 N126 1.335 . S
C128 N127 1.345 . S
C128 H133 0.930 . S
C129 N126 1.390 . S
C129 C130 1.346 . S
C129 H134 0.930 . S
C130 N127 1.336 . S
C130 C129 1.346 . S
C130 H137 0.929 . S
C131 O121 1.282 . S
C131 O132 1.216 . S
O132 C131 1.216 . S
H133 C128 0.930 . S
H134 C129 0.930 . S
O135 Cu115 1.959 . S
O135 C122 1.251 . S
H136 C119 0.930 . S
H137 C130 0.929 . S
C16 N127 1.729 . S
C39 N12 1.729 . S
N35 C62 1.729 . S
C85 N58 1.729 . S
N81 C108 1.729 . S
C131 N104 1.729 . S
N94 C7 1.456 . S
N117 C30 1.456 . S
C53 N2 1.456 . S
C76 N25 1.457 . S
C99 N48 1.456 . S
C122 N71 1.456 . S
