# Generated by pormake.
# Topology mmt, (4)-cn, num edge types: 1
# Building blocks:
#     Node 0, Type 0, BuildingBlock: CEKHIL_clean_sbu_0, # of connection points: 4
#     Node 1, Type 0, BuildingBlock: CEKHIL_clean_sbu_0, # of connection points: 4
#     Node 2, Type 0, BuildingBlock: CEKHIL_clean_sbu_0, # of connection points: 4
#     Node 3, Type 0, BuildingBlock: CEKHIL_clean_sbu_0, # of connection points: 4
#     Node 4, Type 0, BuildingBlock: CEKHIL_clean_sbu_0, # of connection points: 4
#     Node 5, Type 0, BuildingBlock: CEKHIL_clean_sbu_0, # of connection points: 4
#     Node 6, Type 0, BuildingBlock: CEKHIL_clean_sbu_0, # of connection points: 4
#     Node 7, Type 0, BuildingBlock: CEKHIL_clean_sbu_0, # of connection points: 4
#     Edge 8, Type (0, 0), BuildingBlock: EYOCIG_clean_linker_4, # of connection points: 2
#     Edge 9, Type (0, 0), BuildingBlock: EYOCIG_clean_linker_4, # of connection points: 2
#     Edge 10, Type (0, 0), BuildingBlock: EYOCIG_clean_linker_4, # of connection points: 2
#     Edge 11, Type (0, 0), BuildingBlock: EYOCIG_clean_linker_4, # of connection points: 2
#     Edge 12, Type (0, 0), BuildingBlock: EYOCIG_clean_linker_4, # of connection points: 2
#     Edge 13, Type (0, 0), BuildingBlock: EYOCIG_clean_linker_4, # of connection points: 2
#     Edge 14, Type (0, 0), BuildingBlock: EYOCIG_clean_linker_4, # of connection points: 2
#     Edge 15, Type (0, 0), BuildingBlock: EYOCIG_clean_linker_4, # of connection points: 2
#     Edge 16, Type (0, 0), BuildingBlock: EYOCIG_clean_linker_4, # of connection points: 2
#     Edge 17, Type (0, 0), BuildingBlock: EYOCIG_clean_linker_4, # of connection points: 2
#     Edge 18, Type (0, 0), BuildingBlock: EYOCIG_clean_linker_4, # of connection points: 2
#     Edge 19, Type (0, 0), BuildingBlock: EYOCIG_clean_linker_4, # of connection points: 2
#     Edge 20, Type (0, 0), BuildingBlock: EYOCIG_clean_linker_4, # of connection points: 2
#     Edge 21, Type (0, 0), BuildingBlock: EYOCIG_clean_linker_4, # of connection points: 2
#     Edge 22, Type (0, 0), BuildingBlock: EYOCIG_clean_linker_4, # of connection points: 2
#     Edge 23, Type (0, 0), BuildingBlock: EYOCIG_clean_linker_4, # of connection points: 2
# Relax obj value: 0.031
# Max RMSD: 0.050
# Mean RMSD: 0.050
data_MOF--net-mmt--node1-CEKHIL_clean_sbu_0--edge1-EYOCIG_clean_linker_4
_symmetry_space_group_name_H-M    P1
_symmetry_Int_Tables_number       1
_symmetry_cell_setting            triclinic
loop_
_symmetry_equiv_pos_as_xyz
'x, y, z'
_cell_length_a     18.479667
_cell_length_b     28.094891
_cell_length_c     33.958223
_cell_angle_alpha  90.027402
_cell_angle_beta   90.015157
_cell_angle_gamma 90.013519
loop_
_atom_site_label
_atom_site_type_symbol
_atom_site_fract_x
_atom_site_fract_y
_atom_site_fract_z
_atom_type_partial_charge
Co0 Co 0.1175 0.58047 0.38584 0.0
O1 O 0.04413 0.59494 0.42442 0.0
O2 O 0.11565 0.53138 0.42545 0.0
C3 C 0.16476 0.65487 0.38378 0.0
O4 O 0.2011 0.55366 0.35264 0.0
Co5 Co 0.11835 0.63043 0.30466 0.0
O6 O 0.20216 0.58953 0.29334 0.0
C7 C 0.00758 0.55904 0.32235 0.0
C8 C 0.06382 0.55578 0.44154 0.0
C9 C 0.22717 0.55968 0.31779 0.0
O10 O 0.04246 0.54521 0.35317 0.0
O11 O 0.02512 0.59525 0.30192 0.0
O12 O 0.18468 0.6254 0.41117 0.0
O13 O 0.11427 0.6401 0.36077 0.0
Co14 Co 0.34214 0.95218 0.38553 0.0
O15 O 0.41562 0.93719 0.42401 0.0
O16 O 0.34576 1.0015 0.425 0.0
C17 C 0.29246 0.87845 0.38411 0.0
O18 O 0.25868 0.97964 0.3526 0.0
Co19 Co 0.33882 0.90169 0.30459 0.0
O20 O 0.25578 0.94332 0.29348 0.0
C21 C 0.45177 0.97183 0.32153 0.0
C22 C 0.39699 0.97661 0.44111 0.0
C23 C 0.2318 0.97354 0.31794 0.0
O24 O 0.41767 0.98633 0.3524 0.0
O25 O 0.433 0.93566 0.30136 0.0
O26 O 0.27404 0.90854 0.41135 0.0
O27 O 0.34321 0.89214 0.36078 0.0
Co28 Co 0.61712 0.45211 0.15919 0.0
O29 O 0.543 0.43788 0.12085 0.0
O30 O 0.61413 0.50158 0.11979 0.0
C31 C 0.66538 0.37795 0.16099 0.0
O32 O 0.70131 0.4786 0.19221 0.0
Co33 Co 0.61832 0.40147 0.24029 0.0
O34 O 0.70262 0.44209 0.25128 0.0
C35 C 0.50681 0.47221 0.22263 0.0
C36 C 0.56176 0.47739 0.10397 0.0
C37 C 0.72783 0.47196 0.2269 0.0
O38 O 0.54228 0.4869 0.19229 0.0
O39 O 0.52434 0.43572 0.24268 0.0
O40 O 0.68429 0.40753 0.13346 0.0
O41 O 0.61478 0.39233 0.18408 0.0
Co42 Co 0.84243 0.08048 0.15908 0.0
O43 O 0.91639 0.09446 0.12062 0.0
O44 O 0.84447 0.0311 0.11967 0.0
C45 C 0.7955 0.15503 0.16103 0.0
O46 O 0.75816 0.05376 0.19179 0.0
Co47 Co 0.83955 0.13038 0.24036 0.0
O48 O 0.75578 0.08926 0.25122 0.0
C49 C 0.95214 0.0603 0.22261 0.0
C50 C 0.89681 0.05508 0.10371 0.0
C51 C 0.73128 0.05958 0.22646 0.0
O52 O 0.91712 0.04551 0.19212 0.0
O53 O 0.93398 0.09666 0.24271 0.0
O54 O 0.77581 0.12555 0.13354 0.0
O55 O 0.84549 0.14015 0.18428 0.0
Co56 Co 0.84262 0.45217 0.65897 0.0
O57 O 0.917 0.43752 0.62092 0.0
O58 O 0.84563 0.50111 0.61924 0.0
C59 C 0.79469 0.37791 0.66136 0.0
O60 O 0.75814 0.4793 0.69136 0.0
Co61 Co 0.83994 0.40323 0.74057 0.0
O62 O 0.75527 0.4438 0.75078 0.0
C63 C 0.95265 0.47292 0.72226 0.0
C64 C 0.89818 0.47685 0.60374 0.0
C65 C 0.7308 0.47334 0.72592 0.0
O66 O 0.91727 0.48744 0.69184 0.0
O67 O 0.9346 0.43679 0.74263 0.0
O68 O 0.77579 0.40712 0.63355 0.0
O69 O 0.84492 0.39274 0.68453 0.0
Co70 Co 0.617 0.08048 0.65917 0.0
O71 O 0.54291 0.09479 0.62083 0.0
O72 O 0.614 0.03107 0.61976 0.0
C73 C 0.66527 0.15472 0.66098 0.0
O74 O 0.70106 0.05345 0.69189 0.0
Co75 Co 0.62006 0.13059 0.74037 0.0
O76 O 0.70359 0.08927 0.75121 0.0
C77 C 0.50731 0.0605 0.72283 0.0
C78 C 0.56176 0.05527 0.60392 0.0
C79 C 0.7279 0.05938 0.72657 0.0
O80 O 0.54216 0.04575 0.6923 0.0
O81 O 0.52557 0.09688 0.74289 0.0
O82 O 0.68417 0.12505 0.63349 0.0
O83 O 0.61496 0.1403 0.68424 0.0
Co84 Co 0.34214 0.58052 0.88557 0.0
O85 O 0.4155 0.59499 0.92424 0.0
O86 O 0.34505 0.53095 0.92484 0.0
C87 C 0.29334 0.65452 0.88447 0.0
O88 O 0.25868 0.55358 0.85228 0.0
Co89 Co 0.33968 0.63175 0.80491 0.0
O90 O 0.25687 0.5901 0.79326 0.0
C91 C 0.4516 0.56075 0.82146 0.0
C92 C 0.3964 0.55559 0.94116 0.0
C93 C 0.23241 0.55982 0.8175 0.0
O94 O 0.41746 0.54627 0.85233 0.0
O95 O 0.43329 0.59715 0.8015 0.0
O96 O 0.27433 0.62434 0.91149 0.0
O97 O 0.344 0.64071 0.86114 0.0
Co98 Co 0.11689 0.95205 0.88565 0.0
O99 O 0.04304 0.93703 0.92385 0.0
O100 O 0.1133 1.00117 0.92528 0.0
C101 C 0.16573 0.8781 0.88415 0.0
O102 O 0.20083 0.97949 0.85295 0.0
Co103 Co 0.12048 0.90216 0.80458 0.0
O104 O 0.20396 0.94347 0.79372 0.0
C105 C 0.00731 0.972 0.82182 0.0
C106 C 0.06166 0.97634 0.9411 0.0
C107 C 0.22798 0.9735 0.81833 0.0
O108 O 0.04168 0.98653 0.85259 0.0
O109 O 0.0261 0.93593 0.80155 0.0
O110 O 0.18444 0.90804 0.91146 0.0
O111 O 0.11538 0.89214 0.8607 0.0
C112 C 0.33846 0.51958 0.28434 0.0
C113 C 0.28925 0.53354 0.3046 0.0
C114 C 0.39452 0.50928 0.25734 0.0
C115 C 0.44531 0.49767 0.23723 0.0
C116 C 0.06446 0.02382 0.25769 0.0
C117 C 0.01377 0.03515 0.23739 0.0
C118 C 0.12047 1.01379 0.28479 0.0
C119 C 0.1698 0.99993 0.305 0.0
C120 C 0.84053 0.51043 0.26029 0.0
C121 C 0.79078 0.49726 0.24003 0.0
C122 C 0.89649 0.52067 0.2874 0.0
C123 C 0.94673 0.53291 0.30769 0.0
C124 C 0.6193 0.01933 0.25902 0.0
C125 C 0.66888 0.03336 0.23906 0.0
C126 C 0.56336 1.00887 0.28604 0.0
C127 C 0.51307 0.99714 0.30647 0.0
C128 C 0.56228 0.52327 0.78544 0.0
C129 C 0.51236 0.53512 0.80611 0.0
C130 C 0.6181 0.51294 0.75828 0.0
C131 C 0.66795 0.49925 0.73834 0.0
C132 C 0.83921 0.01896 0.7596 0.0
C133 C 0.78994 0.03298 0.73941 0.0
C134 C 0.89506 1.00866 0.78673 0.0
C135 C 0.94564 0.99712 0.80702 0.0
C136 C 0.12153 0.51971 0.78372 0.0
C137 C 0.17059 0.53353 0.80416 0.0
C138 C 0.06554 0.50964 0.75662 0.0
C139 C 0.01456 0.49818 0.73658 0.0
C140 C 0.33955 1.01367 0.78535 0.0
C141 C 0.29016 0.99986 0.80556 0.0
C142 C 0.39541 0.02376 0.75815 0.0
C143 C 0.44589 0.03522 0.73775 0.0
C144 C -0.00018 0.52547 0.5062 0.0
C145 C 0.02872 0.5396 0.47667 0.0
C146 C 0.96544 0.50817 0.54037 0.0
C147 C 0.93514 0.49351 0.56931 0.0
C148 C 0.46125 1.00631 0.506 0.0
C149 C 0.43229 0.9924 0.47637 0.0
C150 C 0.49538 0.02358 0.5403 0.0
C151 C 0.52528 0.03841 0.56935 0.0
C152 C 0.49466 0.50872 0.04044 0.0
C153 C 0.52502 0.49417 0.06945 0.0
C154 C 0.46021 0.5257 1.00613 0.0
C155 C 0.43133 0.53958 0.97647 0.0
C156 C -0.00373 1.00607 1.00558 0.0
C157 C 0.02575 0.99215 0.97613 0.0
C158 C 0.96204 0.02331 0.03983 0.0
C159 C 0.93261 0.03812 0.069 0.0
C160 C 0.21505 0.74307 0.38005 0.0
C161 C 0.19169 0.70291 0.38145 0.0
C162 C 0.2404 0.79069 0.38034 0.0
C163 C 0.26379 0.83081 0.38232 0.0
C164 C 0.74481 0.2431 0.1659 0.0
C165 C 0.768 0.20294 0.16373 0.0
C166 C 0.71854 0.29053 0.16598 0.0
C167 C 0.69422 0.3304 0.16376 0.0
C168 C 0.71684 0.24259 0.66633 0.0
C169 C 0.69369 0.20244 0.66362 0.0
C170 C 0.74268 0.29015 0.66664 0.0
C171 C 0.76648 0.33017 0.66429 0.0
C172 C 0.24175 0.74238 0.88052 0.0
C173 C 0.26488 0.70221 0.88261 0.0
C174 C 0.21644 0.79001 0.88042 0.0
C175 C 0.19364 0.83027 0.88236 0.0
loop_
_geom_bond_atom_site_label_1
_geom_bond_atom_site_label_2
_geom_bond_distance
_geom_bond_site_symmetry_2
_ccdc_geom_bond_type
Co0 O1 2.216 . S
Co0 O2 2.091 . S
Co0 O4 2.004 . S
Co0 O10 2.021 . S
Co0 O12 2.137 . S
Co0 O13 2.244 . S
O1 Co0 2.216 . S
O1 C8 1.247 . S
O2 Co0 2.091 . S
O2 C8 1.261 . S
C3 O12 1.247 . S
C3 O13 1.272 . S
O4 Co0 2.004 . S
O4 C9 1.259 . S
Co5 O6 2.061 . S
Co5 O11 2.052 . S
Co5 O13 2.135 . S
O6 Co5 2.061 . S
O6 C9 1.235 . S
C7 O10 1.238 . S
C7 O11 1.241 . S
C8 O1 1.247 . S
C8 O2 1.261 . S
C9 O4 1.259 . S
C9 O6 1.235 . S
O10 Co0 2.021 . S
O10 C7 1.238 . S
O11 Co5 2.052 . S
O11 C7 1.241 . S
O12 Co0 2.137 . S
O12 C3 1.247 . S
O13 Co0 2.244 . S
O13 C3 1.272 . S
O13 Co5 2.135 . S
Co14 O15 2.216 . S
Co14 O16 2.091 . S
Co14 O18 2.004 . S
Co14 O24 2.021 . S
Co14 O26 2.137 . S
Co14 O27 2.244 . S
O15 Co14 2.216 . S
O15 C22 1.247 . S
O16 Co14 2.091 . S
O16 C22 1.261 . S
C17 O26 1.247 . S
C17 O27 1.272 . S
O18 Co14 2.004 . S
O18 C23 1.259 . S
Co19 O20 2.061 . S
Co19 O25 2.052 . S
Co19 O27 2.135 . S
O20 Co19 2.061 . S
O20 C23 1.235 . S
C21 O24 1.238 . S
C21 O25 1.241 . S
C22 O15 1.247 . S
C22 O16 1.261 . S
C23 O18 1.259 . S
C23 O20 1.235 . S
O24 Co14 2.021 . S
O24 C21 1.238 . S
O25 Co19 2.052 . S
O25 C21 1.241 . S
O26 Co14 2.137 . S
O26 C17 1.247 . S
O27 Co14 2.244 . S
O27 C17 1.272 . S
O27 Co19 2.135 . S
Co28 O29 2.216 . S
Co28 O30 2.091 . S
Co28 O32 2.004 . S
Co28 O38 2.021 . S
Co28 O40 2.137 . S
Co28 O41 2.244 . S
O29 Co28 2.216 . S
O29 C36 1.247 . S
O30 Co28 2.091 . S
O30 C36 1.261 . S
C31 O40 1.247 . S
C31 O41 1.272 . S
O32 Co28 2.004 . S
O32 C37 1.259 . S
Co33 O34 2.061 . S
Co33 O39 2.052 . S
Co33 O41 2.135 . S
O34 Co33 2.061 . S
O34 C37 1.235 . S
C35 O38 1.238 . S
C35 O39 1.241 . S
C36 O29 1.247 . S
C36 O30 1.261 . S
C37 O32 1.259 . S
C37 O34 1.235 . S
O38 Co28 2.021 . S
O38 C35 1.238 . S
O39 Co33 2.052 . S
O39 C35 1.241 . S
O40 Co28 2.137 . S
O40 C31 1.247 . S
O41 Co28 2.244 . S
O41 C31 1.272 . S
O41 Co33 2.135 . S
Co42 O43 2.216 . S
Co42 O44 2.091 . S
Co42 O46 2.004 . S
Co42 O52 2.021 . S
Co42 O54 2.137 . S
Co42 O55 2.244 . S
O43 Co42 2.216 . S
O43 C50 1.247 . S
O44 Co42 2.091 . S
O44 C50 1.261 . S
C45 O54 1.247 . S
C45 O55 1.272 . S
O46 Co42 2.004 . S
O46 C51 1.259 . S
Co47 O48 2.061 . S
Co47 O53 2.052 . S
Co47 O55 2.135 . S
O48 Co47 2.061 . S
O48 C51 1.235 . S
C49 O52 1.238 . S
C49 O53 1.241 . S
C50 O43 1.247 . S
C50 O44 1.261 . S
C51 O46 1.259 . S
C51 O48 1.235 . S
O52 Co42 2.021 . S
O52 C49 1.238 . S
O53 Co47 2.052 . S
O53 C49 1.241 . S
O54 Co42 2.137 . S
O54 C45 1.247 . S
O55 Co42 2.244 . S
O55 C45 1.272 . S
O55 Co47 2.135 . S
Co56 O57 2.216 . S
Co56 O58 2.091 . S
Co56 O60 2.004 . S
Co56 O66 2.021 . S
Co56 O68 2.137 . S
Co56 O69 2.244 . S
O57 Co56 2.216 . S
O57 C64 1.247 . S
O58 Co56 2.091 . S
O58 C64 1.261 . S
C59 O68 1.247 . S
C59 O69 1.272 . S
O60 Co56 2.004 . S
O60 C65 1.259 . S
Co61 O62 2.061 . S
Co61 O67 2.052 . S
Co61 O69 2.135 . S
O62 Co61 2.061 . S
O62 C65 1.235 . S
C63 O66 1.238 . S
C63 O67 1.241 . S
C64 O57 1.247 . S
C64 O58 1.261 . S
C65 O60 1.259 . S
C65 O62 1.235 . S
O66 Co56 2.021 . S
O66 C63 1.238 . S
O67 Co61 2.052 . S
O67 C63 1.241 . S
O68 Co56 2.137 . S
O68 C59 1.247 . S
O69 Co56 2.244 . S
O69 C59 1.272 . S
O69 Co61 2.135 . S
Co70 O71 2.216 . S
Co70 O72 2.091 . S
Co70 O74 2.004 . S
Co70 O80 2.021 . S
Co70 O82 2.137 . S
Co70 O83 2.244 . S
O71 Co70 2.216 . S
O71 C78 1.247 . S
O72 Co70 2.091 . S
O72 C78 1.261 . S
C73 O82 1.247 . S
C73 O83 1.272 . S
O74 Co70 2.004 . S
O74 C79 1.259 . S
Co75 O76 2.061 . S
Co75 O81 2.052 . S
Co75 O83 2.135 . S
O76 Co75 2.061 . S
O76 C79 1.235 . S
C77 O80 1.238 . S
C77 O81 1.241 . S
C78 O71 1.247 . S
C78 O72 1.261 . S
C79 O74 1.259 . S
C79 O76 1.235 . S
O80 Co70 2.021 . S
O80 C77 1.238 . S
O81 Co75 2.052 . S
O81 C77 1.241 . S
O82 Co70 2.137 . S
O82 C73 1.247 . S
O83 Co70 2.244 . S
O83 C73 1.272 . S
O83 Co75 2.135 . S
Co84 O85 2.216 . S
Co84 O86 2.091 . S
Co84 O88 2.004 . S
Co84 O94 2.021 . S
Co84 O96 2.137 . S
Co84 O97 2.244 . S
O85 Co84 2.216 . S
O85 C92 1.247 . S
O86 Co84 2.091 . S
O86 C92 1.261 . S
C87 O96 1.247 . S
C87 O97 1.272 . S
O88 Co84 2.004 . S
O88 C93 1.259 . S
Co89 O90 2.061 . S
Co89 O95 2.052 . S
Co89 O97 2.135 . S
O90 Co89 2.061 . S
O90 C93 1.235 . S
C91 O94 1.238 . S
C91 O95 1.241 . S
C92 O85 1.247 . S
C92 O86 1.261 . S
C93 O88 1.259 . S
C93 O90 1.235 . S
O94 Co84 2.021 . S
O94 C91 1.238 . S
O95 Co89 2.052 . S
O95 C91 1.241 . S
O96 Co84 2.137 . S
O96 C87 1.247 . S
O97 Co84 2.244 . S
O97 C87 1.272 . S
O97 Co89 2.135 . S
Co98 O99 2.216 . S
Co98 O100 2.091 . S
Co98 O102 2.004 . S
Co98 O108 2.021 . S
Co98 O110 2.137 . S
Co98 O111 2.244 . S
O99 Co98 2.216 . S
O99 C106 1.247 . S
O100 Co98 2.091 . S
O100 C106 1.261 . S
C101 O110 1.247 . S
C101 O111 1.272 . S
O102 Co98 2.004 . S
O102 C107 1.259 . S
Co103 O104 2.061 . S
Co103 O109 2.052 . S
Co103 O111 2.135 . S
O104 Co103 2.061 . S
O104 C107 1.235 . S
C105 O108 1.238 . S
C105 O109 1.241 . S
C106 O99 1.247 . S
C106 O100 1.261 . S
C107 O102 1.259 . S
C107 O104 1.235 . S
O108 Co98 2.021 . S
O108 C105 1.238 . S
O109 Co103 2.052 . S
O109 C105 1.241 . S
O110 Co98 2.137 . S
O110 C101 1.247 . S
O111 Co98 2.244 . S
O111 C101 1.272 . S
O111 Co103 2.135 . S
C112 C113 1.170 . S
C112 C114 1.380 . S
C113 C112 1.170 . S
C114 C112 1.380 . S
C114 C115 1.170 . S
C115 C114 1.170 . S
C116 C117 1.170 . S
C116 C118 1.381 1_545 S
C117 C116 1.170 . S
C118 C116 1.381 1_565 S
C118 C119 1.170 . S
C119 C118 1.170 . S
C120 C121 1.170 . S
C120 C122 1.380 . S
C121 C120 1.170 . S
C122 C120 1.380 . S
C122 C123 1.170 . S
C123 C122 1.170 . S
C124 C125 1.170 . S
C124 C126 1.380 1_545 S
C125 C124 1.170 . S
C126 C124 1.380 1_565 S
C126 C127 1.170 . S
C127 C126 1.170 . S
C128 C129 1.170 . S
C128 C130 1.380 . S
C129 C128 1.170 . S
C130 C128 1.380 . S
C130 C131 1.170 . S
C131 C130 1.170 . S
C132 C133 1.171 . S
C132 C134 1.380 1_545 S
C133 C132 1.171 . S
C134 C132 1.380 1_565 S
C134 C135 1.170 . S
C135 C134 1.170 . S
C136 C137 1.170 . S
C136 C138 1.380 . S
C137 C136 1.170 . S
C138 C136 1.380 . S
C138 C139 1.170 . S
C139 C138 1.170 . S
C140 C141 1.169 . S
C140 C142 1.381 1_565 S
C141 C140 1.169 . S
C142 C140 1.381 1_545 S
C142 C143 1.170 . S
C143 C142 1.170 . S
C144 C145 1.170 . S
C144 C146 1.380 1_455 S
C145 C144 1.170 . S
C146 C144 1.380 1_655 S
C146 C147 1.170 . S
C147 C146 1.170 . S
C148 C149 1.170 . S
C148 C150 1.380 1_565 S
C149 C148 1.170 . S
C150 C148 1.380 1_545 S
C150 C151 1.170 . S
C151 C150 1.170 . S
C152 C153 1.170 . S
C152 C154 1.380 1_554 S
C153 C152 1.170 . S
C154 C152 1.380 1_556 S
C154 C155 1.170 . S
C155 C154 1.170 . S
C156 C157 1.170 . S
C156 C158 1.380 1_466 S
C157 C156 1.170 . S
C158 C156 1.380 1_644 S
C158 C159 1.170 . S
C159 C158 1.170 . S
C160 C161 1.170 . S
C160 C162 1.380 . S
C161 C160 1.170 . S
C162 C160 1.380 . S
C162 C163 1.170 . S
C163 C162 1.170 . S
C164 C165 1.170 . S
C164 C166 1.380 . S
C165 C164 1.170 . S
C166 C164 1.380 . S
C166 C167 1.170 . S
C167 C166 1.170 . S
C168 C169 1.170 . S
C168 C170 1.380 . S
C169 C168 1.170 . S
C170 C168 1.380 . S
C170 C171 1.170 . S
C171 C170 1.170 . S
C172 C173 1.170 . S
C172 C174 1.380 . S
C173 C172 1.170 . S
C174 C172 1.380 . S
C174 C175 1.170 . S
C175 C174 1.170 . S
C113 C9 1.414 . S
C115 C35 1.390 . S
C117 C49 1.385 1_455 S
C119 C23 1.419 . S
C121 C37 1.397 . S
C123 C7 1.417 1_655 S
C125 C51 1.423 . S
C127 C21 1.381 . S
C129 C91 1.383 . S
C131 C65 1.427 . S
C133 C79 1.424 . S
C135 C105 1.398 1_655 S
C137 C93 1.414 . S
C139 C63 1.411 1_455 S
C141 C107 1.427 . S
C143 C77 1.391 . S
C145 C8 1.525 . S
C147 C64 1.520 . S
C149 C22 1.526 . S
C151 C78 1.517 . S
C153 C36 1.517 . S
C155 C92 1.523 . S
C157 C106 1.527 . S
C159 C50 1.517 . S
C161 C3 1.528 . S
C163 C17 1.522 . S
C165 C45 1.528 . S
C167 C31 1.522 . S
C169 C73 1.522 . S
C171 C59 1.522 . S
C173 C87 1.527 . S
C175 C101 1.528 . S
