# Generated by pormake.
# Topology atn, (4)-cn, num edge types: 1
# Building blocks:
#     Node 0, Type 0, BuildingBlock: AZAVOO_clean_sbu_0, # of connection points: 4
#     Node 1, Type 0, BuildingBlock: AZAVOO_clean_sbu_0, # of connection points: 4
#     Node 2, Type 0, BuildingBlock: AZAVOO_clean_sbu_0, # of connection points: 4
#     Node 3, Type 0, BuildingBlock: AZAVOO_clean_sbu_0, # of connection points: 4
#     Node 4, Type 0, BuildingBlock: AZAVOO_clean_sbu_0, # of connection points: 4
#     Node 5, Type 0, BuildingBlock: AZAVOO_clean_sbu_0, # of connection points: 4
#     Node 6, Type 0, BuildingBlock: AZAVOO_clean_sbu_0, # of connection points: 4
#     Node 7, Type 0, BuildingBlock: AZAVOO_clean_sbu_0, # of connection points: 4
#     Node 8, Type 0, BuildingBlock: AZAVOO_clean_sbu_0, # of connection points: 4
#     Node 9, Type 0, BuildingBlock: AZAVOO_clean_sbu_0, # of connection points: 4
#     Node 10, Type 0, BuildingBlock: AZAVOO_clean_sbu_0, # of connection points: 4
#     Node 11, Type 0, BuildingBlock: AZAVOO_clean_sbu_0, # of connection points: 4
#     Node 12, Type 0, BuildingBlock: AZAVOO_clean_sbu_0, # of connection points: 4
#     Node 13, Type 0, BuildingBlock: AZAVOO_clean_sbu_0, # of connection points: 4
#     Node 14, Type 0, BuildingBlock: AZAVOO_clean_sbu_0, # of connection points: 4
#     Node 15, Type 0, BuildingBlock: AZAVOO_clean_sbu_0, # of connection points: 4
#     Edge 16, Type (0, 0), None
#     Edge 17, Type (0, 0), None
#     Edge 18, Type (0, 0), None
#     Edge 19, Type (0, 0), None
#     Edge 20, Type (0, 0), None
#     Edge 21, Type (0, 0), None
#     Edge 22, Type (0, 0), None
#     Edge 23, Type (0, 0), None
#     Edge 24, Type (0, 0), None
#     Edge 25, Type (0, 0), None
#     Edge 26, Type (0, 0), None
#     Edge 27, Type (0, 0), None
#     Edge 28, Type (0, 0), None
#     Edge 29, Type (0, 0), None
#     Edge 30, Type (0, 0), None
#     Edge 31, Type (0, 0), None
#     Edge 32, Type (0, 0), None
#     Edge 33, Type (0, 0), None
#     Edge 34, Type (0, 0), None
#     Edge 35, Type (0, 0), None
#     Edge 36, Type (0, 0), None
#     Edge 37, Type (0, 0), None
#     Edge 38, Type (0, 0), None
#     Edge 39, Type (0, 0), None
#     Edge 40, Type (0, 0), None
#     Edge 41, Type (0, 0), None
#     Edge 42, Type (0, 0), None
#     Edge 43, Type (0, 0), None
#     Edge 44, Type (0, 0), None
#     Edge 45, Type (0, 0), None
#     Edge 46, Type (0, 0), None
#     Edge 47, Type (0, 0), None
# Relax obj value: 0.116
# Max RMSD: 0.132
# Mean RMSD: 0.132
data_MOF--net-atn--node1-AZAVOO_clean_sbu_0--edge1-none
_symmetry_space_group_name_H-M    P1
_symmetry_Int_Tables_number       1
_symmetry_cell_setting            triclinic
loop_
_symmetry_equiv_pos_as_xyz
'x, y, z'
_cell_length_a     27.733216
_cell_length_b     27.733218
_cell_length_c     12.721005
_cell_angle_alpha  89.992454
_cell_angle_beta   90.001854
_cell_angle_gamma 89.999822
loop_
_atom_site_label
_atom_site_type_symbol
_atom_site_fract_x
_atom_site_fract_y
_atom_site_fract_z
_atom_type_partial_charge
Mg0 Mg 0.17027 0.3791 0.97569 0.0
O1 O 0.23591 0.33616 0.03074 0.0
O2 O 0.29525 0.34976 0.91593 0.0
Mg3 Mg 0.2648 0.39736 0.78285 0.0
C4 C 0.27933 0.33088 0.00066 0.0
C5 C 0.14215 0.33612 0.18868 0.0
O6 O 0.16307 0.29875 0.14475 0.0
O7 O 0.20742 0.4473 0.02437 0.0
O8 O 0.25822 0.46429 0.89326 0.0
O9 O 0.14187 0.31618 0.88725 0.0
O10 O 0.19089 0.37082 0.81914 0.0
C11 C 0.23794 0.47487 -0.0195 0.0
C12 C 0.16673 0.33132 0.8077 0.0
O13 O 0.13737 0.37488 0.1374 0.0
Mg14 Mg 0.59379 0.16987 0.9756 0.0
O15 O 0.63674 0.23552 0.03063 0.0
O16 O 0.62314 0.29486 0.9158 0.0
Mg17 Mg 0.57554 0.26441 0.78274 0.0
C18 C 0.64201 0.27893 0.00054 0.0
C19 C 0.63679 0.14176 0.18859 0.0
O20 O 0.67416 0.16268 0.14463 0.0
O21 O 0.5256 0.20702 0.02428 0.0
O22 O 0.50861 0.25783 0.89317 0.0
O23 O 0.65672 0.14148 0.88716 0.0
O24 O 0.60208 0.1905 0.81905 0.0
C25 C 0.49803 0.23755 -0.01959 0.0
C26 C 0.64158 0.16634 0.8076 0.0
O27 O 0.59802 0.13697 0.13733 0.0
Mg28 Mg 0.80299 0.59342 0.97564 0.0
O29 O 0.73736 0.63638 0.03068 0.0
O30 O 0.67802 0.62282 0.91584 0.0
Mg31 Mg 0.70845 0.57522 0.78277 0.0
C32 C 0.69395 0.64168 0.00058 0.0
C33 C 0.83111 0.63639 0.18864 0.0
O34 O 0.81023 0.67378 0.14465 0.0
O35 O 0.76581 0.52523 0.0243 0.0
O36 O 0.71501 0.50828 0.89316 0.0
O37 O 0.83141 0.65634 0.88719 0.0
O38 O 0.78237 0.60172 0.81908 0.0
C39 C 0.73528 0.49767 -0.01959 0.0
C40 C 0.80654 0.64122 0.80763 0.0
O41 O 0.83587 0.59762 0.13739 0.0
Mg42 Mg 0.37947 0.80261 0.97573 0.0
O43 O 0.33651 0.73698 0.03078 0.0
O44 O 0.35009 0.67764 0.91596 0.0
Mg45 Mg 0.39768 0.70809 0.78287 0.0
C46 C 0.33122 0.69357 0.00069 0.0
C47 C 0.3365 0.83074 0.18873 0.0
O48 O 0.29912 0.80984 0.14477 0.0
O49 O 0.44766 0.76544 0.02439 0.0
O50 O 0.46463 0.71465 0.89325 0.0
O51 O 0.31655 0.83103 0.88728 0.0
O52 O 0.37118 0.782 0.81918 0.0
C53 C 0.47522 0.73492 -0.0195 0.0
C54 C 0.33168 0.80617 0.80773 0.0
O55 O 0.37527 0.8355 0.13746 0.0
Mg56 Mg 0.18267 0.625 0.02384 0.0
O57 O 0.25229 0.66578 0.01057 0.0
O58 O 0.30362 0.6386 0.13157 0.0
Mg59 Mg 0.25775 0.59049 0.24276 0.0
C60 C 0.2939 0.66459 0.05159 0.0
C61 C 0.1389 0.62776 0.79876 0.0
O62 O 0.10689 0.59822 0.83924 0.0
O63 O 0.21998 0.55662 0.97031 0.0
O64 O 0.25269 0.52913 0.11932 0.0
O65 O 0.14758 0.68212 0.12217 0.0
O66 O 0.18741 0.61962 0.18617 0.0
C67 C 0.24112 0.52373 0.02273 0.0
C68 C 0.1624 0.65801 0.20317 0.0
O69 O 0.17173 0.64546 0.85583 0.0
Mg70 Mg 0.34788 0.18232 0.02383 0.0
O71 O 0.30711 0.25194 0.01055 0.0
O72 O 0.33431 0.30328 0.13151 0.0
Mg73 Mg 0.38242 0.25739 0.2427 0.0
C74 C 0.30831 0.29355 0.05155 0.0
C75 C 0.34513 0.13856 0.79877 0.0
O76 O 0.37468 0.10657 0.83924 0.0
O77 O 0.41627 0.21961 0.97026 0.0
O78 O 0.44378 0.25232 0.11924 0.0
O79 O 0.29077 0.14724 0.1222 0.0
O80 O 0.35327 0.18706 0.18615 0.0
C81 C 0.44917 0.24074 0.02265 0.0
C82 C 0.31487 0.16206 0.20318 0.0
O83 O 0.32741 0.17138 0.85583 0.0
Mg84 Mg 0.79055 0.34754 0.02372 0.0
O85 O 0.72095 0.30674 0.01044 0.0
O86 O 0.6696 0.3339 0.1314 0.0
Mg87 Mg 0.71546 0.38201 0.24262 0.0
C88 C 0.67933 0.30792 0.05144 0.0
C89 C 0.83431 0.3448 0.79864 0.0
O90 O 0.86632 0.37434 0.83911 0.0
O91 O 0.75321 0.41592 0.97018 0.0
O92 O 0.72052 0.44339 0.11921 0.0
O93 O 0.82566 0.29044 0.12207 0.0
O94 O 0.78581 0.35291 0.18604 0.0
C95 C 0.73209 0.4488 0.02261 0.0
C96 C 0.81083 0.31453 0.20306 0.0
O97 O 0.80149 0.3271 0.8557 0.0
Mg98 Mg 0.62535 0.79021 0.02373 0.0
O99 O 0.66615 0.72061 0.01047 0.0
O100 O 0.639 0.66927 0.13147 0.0
Mg101 Mg 0.59089 0.71513 0.24269 0.0
C102 C 0.66497 0.679 0.05148 0.0
C103 C 0.6281 0.83399 0.79863 0.0
O104 O 0.59858 0.86601 0.83911 0.0
O105 O 0.55698 0.75287 0.97025 0.0
O106 O 0.52951 0.72018 0.11929 0.0
O107 O 0.68246 0.82533 0.12205 0.0
O108 O 0.61999 0.78548 0.18606 0.0
C109 C 0.5241 0.73174 0.02269 0.0
C110 C 0.65837 0.8105 0.20306 0.0
O111 O 0.64578 0.80116 0.8557 0.0
Mg112 Mg 0.67026 0.87911 0.47562 0.0
O113 O 0.7359 0.83615 0.53066 0.0
O114 O 0.79523 0.84973 0.41582 0.0
Mg115 Mg 0.76479 0.89734 0.28275 0.0
C116 C 0.77931 0.83086 0.50056 0.0
C117 C 0.64214 0.83612 0.68863 0.0
O118 O 0.66304 0.79875 0.64468 0.0
O119 O 0.70743 0.9473 0.52428 0.0
O120 O 0.75823 0.96427 0.39315 0.0
O121 O 0.64185 0.81618 0.3872 0.0
O122 O 0.69088 0.87083 0.31907 0.0
C123 C 0.73796 0.97486 0.4804 0.0
C124 C 0.66671 0.83133 0.30764 0.0
O125 O 0.63737 0.87489 0.63735 0.0
Mg126 Mg 0.0938 0.66992 0.47574 0.0
O127 O 0.13675 0.73555 0.53077 0.0
O128 O 0.12318 0.79489 0.41591 0.0
Mg129 Mg 0.07559 0.76445 0.28284 0.0
C130 C 0.14204 0.77896 0.50066 0.0
C131 C 0.13677 0.6418 0.68875 0.0
O132 O 0.17415 0.6627 0.64479 0.0
O133 O 0.02561 0.70709 0.52438 0.0
O134 O 0.00864 0.75788 0.39322 0.0
O135 O 0.15672 0.64149 0.38733 0.0
O136 O 0.10209 0.69054 0.31919 0.0
C137 C -0.00195 0.73761 0.48048 0.0
C138 C 0.14158 0.66636 0.30776 0.0
O139 O 0.098 0.63703 0.63749 0.0
Mg140 Mg 0.30298 0.09345 0.47577 0.0
O141 O 0.23734 0.1364 0.53079 0.0
O142 O 0.178 0.12282 0.41596 0.0
Mg143 Mg 0.20845 0.07523 0.28289 0.0
C144 C 0.19392 0.14168 0.50069 0.0
C145 C 0.33108 0.13643 0.68876 0.0
O146 O 0.31017 0.1738 0.6448 0.0
O147 O 0.26581 0.02525 0.52444 0.0
O148 O 0.21503 0.00829 0.39329 0.0
O149 O 0.33139 0.15638 0.38734 0.0
O150 O 0.28236 0.10174 0.31922 0.0
C151 C 0.2353 -0.00231 0.48054 0.0
C152 C 0.30653 0.14124 0.30778 0.0
O153 O 0.33587 0.09766 0.63751 0.0
Mg154 Mg 0.87944 0.30265 0.47565 0.0
O155 O 0.8365 0.237 0.53068 0.0
O156 O 0.85009 0.17767 0.41586 0.0
Mg157 Mg 0.8977 0.20813 0.2828 0.0
C158 C 0.83122 0.19359 0.50059 0.0
C159 C 0.83645 0.33076 0.68863 0.0
O160 O 0.79908 0.30984 0.64468 0.0
O161 O 0.94765 0.2655 0.52434 0.0
O162 O 0.96463 0.21471 0.39322 0.0
O163 O 0.81651 0.33105 0.38721 0.0
O164 O 0.87116 0.28203 0.3191 0.0
C165 C 0.97522 0.23498 0.48046 0.0
C166 C 0.83166 0.3062 0.30766 0.0
O167 O 0.87522 0.33554 0.63737 0.0
Mg168 Mg 0.68268 0.12499 0.52369 0.0
O169 O 0.75229 0.16579 0.51044 0.0
O170 O 0.80362 0.13861 0.63145 0.0
Mg171 Mg 0.75775 0.09049 0.74264 0.0
C172 C 0.7939 0.16461 0.55147 0.0
C173 C 0.63893 0.12772 0.2986 0.0
O174 O 0.60694 0.09816 0.33908 0.0
O175 O 0.72001 0.05662 0.47018 0.0
O176 O 0.75271 0.02913 0.61921 0.0
O177 O 0.64757 0.1821 0.62201 0.0
O178 O 0.68741 0.11961 0.68602 0.0
C179 C 0.74114 0.02373 0.52261 0.0
C180 C 0.66239 0.15799 0.703 0.0
O181 O 0.67174 0.14544 0.35567 0.0
Mg182 Mg 0.84792 0.68232 0.52372 0.0
O183 O 0.80712 0.75193 0.51043 0.0
O184 O 0.83427 0.80326 0.63145 0.0
Mg185 Mg 0.88238 0.75739 0.74266 0.0
C186 C 0.80829 0.79353 0.55146 0.0
C187 C 0.84515 0.63853 0.29865 0.0
O188 O 0.87465 0.60649 0.33917 0.0
O189 O 0.91629 0.71966 0.47022 0.0
O190 O 0.94376 0.75235 0.61926 0.0
O191 O 0.79081 0.6472 0.62203 0.0
O192 O 0.85328 0.68705 0.68604 0.0
C193 C 0.94917 0.74079 0.52266 0.0
C194 C 0.8149 0.66202 0.70303 0.0
O195 O 0.82749 0.67138 0.35568 0.0
Mg196 Mg 0.29059 0.84756 0.52381 0.0
O197 O 0.22098 0.80677 0.51054 0.0
O198 O 0.16964 0.83391 0.63155 0.0
Mg199 Mg 0.21551 0.88202 0.74275 0.0
C200 C 0.17937 0.80794 0.55156 0.0
C201 C 0.33437 0.84479 0.29873 0.0
O202 O 0.36641 0.87428 0.33922 0.0
O203 O 0.25326 0.91594 0.47031 0.0
O204 O 0.22055 0.9434 0.61934 0.0
O205 O 0.32569 0.79043 0.62213 0.0
O206 O 0.28585 0.85292 0.68614 0.0
C207 C 0.23212 0.94882 0.52274 0.0
C208 C 0.31087 0.81453 0.70312 0.0
O209 O 0.30152 0.82712 0.35579 0.0
Mg210 Mg 0.12536 0.29024 0.52379 0.0
O211 O 0.16613 0.22062 0.51055 0.0
O212 O 0.13896 0.16929 0.63155 0.0
Mg213 Mg 0.09085 0.21517 0.74273 0.0
C214 C 0.16495 0.17901 0.55157 0.0
C215 C 0.1281 0.33398 0.29869 0.0
O216 O 0.09854 0.36598 0.33913 0.0
O217 O 0.05697 0.25293 0.47027 0.0
O218 O 0.02948 0.22023 0.61929 0.0
O219 O 0.18248 0.32533 0.62211 0.0
O220 O 0.11998 0.2855 0.68611 0.0
C221 C 0.02408 0.2318 0.52269 0.0
C222 C 0.15837 0.31052 0.7031 0.0
O223 O 0.14582 0.30117 0.35578 0.0
loop_
_geom_bond_atom_site_label_1
_geom_bond_atom_site_label_2
_geom_bond_distance
_geom_bond_site_symmetry_2
_ccdc_geom_bond_type
Mg0 O1 2.028 . S
Mg0 O7 1.986 . S
Mg0 O9 2.114 1_554 S
Mg0 O10 2.251 1_554 S
Mg0 O13 2.010 . S
O1 Mg0 2.028 . S
O1 C4 1.250 1_554 S
O2 Mg3 2.028 . S
O2 C4 1.248 . S
Mg3 O2 2.028 . S
Mg3 O8 2.032 . S
Mg3 O10 2.079 . S
C4 O1 1.250 1_556 S
C4 O2 1.248 . S
C5 O6 1.264 . S
C5 O13 1.249 . S
O6 C5 1.264 . S
O7 Mg0 1.986 . S
O7 C11 1.246 1_554 S
O8 Mg3 2.032 . S
O8 C11 1.259 . S
O9 Mg0 2.114 1_556 S
O9 C12 1.252 . S
O10 Mg0 2.251 1_556 S
O10 Mg3 2.079 . S
O10 C12 1.273 . S
C11 O7 1.246 1_556 S
C11 O8 1.259 . S
C12 O9 1.252 . S
C12 O10 1.273 . S
O13 Mg0 2.010 . S
O13 C5 1.249 . S
Mg14 O15 2.028 . S
Mg14 O21 1.986 . S
Mg14 O23 2.114 1_554 S
Mg14 O24 2.251 1_554 S
Mg14 O27 2.010 . S
O15 Mg14 2.028 . S
O15 C18 1.250 1_554 S
O16 Mg17 2.028 . S
O16 C18 1.248 . S
Mg17 O16 2.028 . S
Mg17 O22 2.032 . S
Mg17 O24 2.079 . S
C18 O15 1.250 1_556 S
C18 O16 1.248 . S
C19 O20 1.264 . S
C19 O27 1.249 . S
O20 C19 1.264 . S
O21 Mg14 1.986 . S
O21 C25 1.246 1_554 S
O22 Mg17 2.032 . S
O22 C25 1.259 . S
O23 Mg14 2.114 1_556 S
O23 C26 1.252 . S
O24 Mg14 2.251 1_556 S
O24 Mg17 2.079 . S
O24 C26 1.273 . S
C25 O21 1.246 1_556 S
C25 O22 1.259 . S
C26 O23 1.252 . S
C26 O24 1.273 . S
O27 Mg14 2.010 . S
O27 C19 1.249 . S
Mg28 O29 2.028 . S
Mg28 O35 1.986 . S
Mg28 O37 2.114 1_554 S
Mg28 O38 2.251 1_554 S
Mg28 O41 2.010 . S
O29 Mg28 2.028 . S
O29 C32 1.250 1_554 S
O30 Mg31 2.028 . S
O30 C32 1.248 . S
Mg31 O30 2.028 . S
Mg31 O36 2.032 . S
Mg31 O38 2.079 . S
C32 O29 1.250 1_556 S
C32 O30 1.248 . S
C33 O34 1.264 . S
C33 O41 1.249 . S
O34 C33 1.264 . S
O35 Mg28 1.986 . S
O35 C39 1.246 1_554 S
O36 Mg31 2.032 . S
O36 C39 1.259 . S
O37 Mg28 2.114 1_556 S
O37 C40 1.252 . S
O38 Mg28 2.251 1_556 S
O38 Mg31 2.079 . S
O38 C40 1.273 . S
C39 O35 1.246 1_556 S
C39 O36 1.259 . S
C40 O37 1.252 . S
C40 O38 1.273 . S
O41 Mg28 2.010 . S
O41 C33 1.249 . S
Mg42 O43 2.028 . S
Mg42 O49 1.986 . S
Mg42 O51 2.114 1_554 S
Mg42 O52 2.251 1_554 S
Mg42 O55 2.010 . S
O43 Mg42 2.028 . S
O43 C46 1.250 1_554 S
O44 Mg45 2.028 . S
O44 C46 1.248 . S
Mg45 O44 2.028 . S
Mg45 O50 2.032 . S
Mg45 O52 2.079 . S
C46 O43 1.250 1_556 S
C46 O44 1.248 . S
C47 O48 1.264 . S
C47 O55 1.249 . S
O48 C47 1.264 . S
O49 Mg42 1.986 . S
O49 C53 1.246 1_554 S
O50 Mg45 2.032 . S
O50 C53 1.259 . S
O51 Mg42 2.114 1_556 S
O51 C54 1.252 . S
O52 Mg42 2.251 1_556 S
O52 Mg45 2.079 . S
O52 C54 1.273 . S
C53 O49 1.246 1_556 S
C53 O50 1.259 . S
C54 O51 1.252 . S
C54 O52 1.273 . S
O55 Mg42 2.010 . S
O55 C47 1.249 . S
Mg56 O57 2.028 . S
Mg56 O63 1.986 . S
Mg56 O65 2.114 . S
Mg56 O66 2.251 . S
Mg56 O69 2.010 1_554 S
O57 Mg56 2.028 . S
O57 C60 1.250 . S
O58 Mg59 2.028 . S
O58 C60 1.248 . S
Mg59 O58 2.028 . S
Mg59 O64 2.032 . S
Mg59 O66 2.079 . S
C60 O57 1.250 . S
C60 O58 1.248 . S
C61 O62 1.264 . S
C61 O69 1.249 . S
O62 C61 1.264 . S
O63 Mg56 1.986 . S
O63 C67 1.246 . S
O64 Mg59 2.032 . S
O64 C67 1.259 . S
O65 Mg56 2.114 . S
O65 C68 1.252 . S
O66 Mg56 2.251 . S
O66 Mg59 2.079 . S
O66 C68 1.273 . S
C67 O63 1.246 . S
C67 O64 1.259 . S
C68 O65 1.252 . S
C68 O66 1.273 . S
O69 Mg56 2.010 1_556 S
O69 C61 1.249 . S
Mg70 O71 2.028 . S
Mg70 O77 1.986 . S
Mg70 O79 2.114 . S
Mg70 O80 2.251 . S
Mg70 O83 2.010 1_554 S
O71 Mg70 2.028 . S
O71 C74 1.250 . S
O72 Mg73 2.028 . S
O72 C74 1.248 . S
Mg73 O72 2.028 . S
Mg73 O78 2.032 . S
Mg73 O80 2.079 . S
C74 O71 1.250 . S
C74 O72 1.248 . S
C75 O76 1.264 . S
C75 O83 1.249 . S
O76 C75 1.264 . S
O77 Mg70 1.986 . S
O77 C81 1.246 . S
O78 Mg73 2.032 . S
O78 C81 1.259 . S
O79 Mg70 2.114 . S
O79 C82 1.252 . S
O80 Mg70 2.251 . S
O80 Mg73 2.079 . S
O80 C82 1.273 . S
C81 O77 1.246 . S
C81 O78 1.259 . S
C82 O79 1.252 . S
C82 O80 1.273 . S
O83 Mg70 2.010 1_556 S
O83 C75 1.249 . S
Mg84 O85 2.028 . S
Mg84 O91 1.986 . S
Mg84 O93 2.114 . S
Mg84 O94 2.251 . S
Mg84 O97 2.010 1_554 S
O85 Mg84 2.028 . S
O85 C88 1.250 . S
O86 Mg87 2.028 . S
O86 C88 1.248 . S
Mg87 O86 2.028 . S
Mg87 O92 2.032 . S
Mg87 O94 2.079 . S
C88 O85 1.250 . S
C88 O86 1.248 . S
C89 O90 1.264 . S
C89 O97 1.249 . S
O90 C89 1.264 . S
O91 Mg84 1.986 . S
O91 C95 1.246 . S
O92 Mg87 2.032 . S
O92 C95 1.259 . S
O93 Mg84 2.114 . S
O93 C96 1.252 . S
O94 Mg84 2.251 . S
O94 Mg87 2.079 . S
O94 C96 1.273 . S
C95 O91 1.246 . S
C95 O92 1.259 . S
C96 O93 1.252 . S
C96 O94 1.273 . S
O97 Mg84 2.010 1_556 S
O97 C89 1.249 . S
Mg98 O99 2.028 . S
Mg98 O105 1.986 . S
Mg98 O107 2.114 . S
Mg98 O108 2.251 . S
Mg98 O111 2.010 1_554 S
O99 Mg98 2.028 . S
O99 C102 1.250 . S
O100 Mg101 2.028 . S
O100 C102 1.248 . S
Mg101 O100 2.028 . S
Mg101 O106 2.032 . S
Mg101 O108 2.079 . S
C102 O99 1.250 . S
C102 O100 1.248 . S
C103 O104 1.264 . S
C103 O111 1.249 . S
O104 C103 1.264 . S
O105 Mg98 1.986 . S
O105 C109 1.246 . S
O106 Mg101 2.032 . S
O106 C109 1.259 . S
O107 Mg98 2.114 . S
O107 C110 1.252 . S
O108 Mg98 2.251 . S
O108 Mg101 2.079 . S
O108 C110 1.273 . S
C109 O105 1.246 . S
C109 O106 1.259 . S
C110 O107 1.252 . S
C110 O108 1.273 . S
O111 Mg98 2.010 1_556 S
O111 C103 1.249 . S
Mg112 O113 2.028 . S
Mg112 O119 1.986 . S
Mg112 O121 2.114 . S
Mg112 O122 2.251 . S
Mg112 O125 2.010 . S
O113 Mg112 2.028 . S
O113 C116 1.250 . S
O114 Mg115 2.028 . S
O114 C116 1.248 . S
Mg115 O114 2.028 . S
Mg115 O120 2.032 . S
Mg115 O122 2.079 . S
C116 O113 1.250 . S
C116 O114 1.248 . S
C117 O118 1.264 . S
C117 O125 1.249 . S
O118 C117 1.264 . S
O119 Mg112 1.986 . S
O119 C123 1.246 . S
O120 Mg115 2.032 . S
O120 C123 1.259 . S
O121 Mg112 2.114 . S
O121 C124 1.252 . S
O122 Mg112 2.251 . S
O122 Mg115 2.079 . S
O122 C124 1.273 . S
C123 O119 1.246 . S
C123 O120 1.259 . S
C124 O121 1.252 . S
C124 O122 1.273 . S
O125 Mg112 2.010 . S
O125 C117 1.249 . S
Mg126 O127 2.028 . S
Mg126 O133 1.986 . S
Mg126 O135 2.114 . S
Mg126 O136 2.251 . S
Mg126 O139 2.010 . S
O127 Mg126 2.028 . S
O127 C130 1.250 . S
O128 Mg129 2.028 . S
O128 C130 1.248 . S
Mg129 O128 2.028 . S
Mg129 O134 2.032 . S
Mg129 O136 2.079 . S
C130 O127 1.250 . S
C130 O128 1.248 . S
C131 O132 1.264 . S
C131 O139 1.249 . S
O132 C131 1.264 . S
O133 Mg126 1.986 . S
O133 C137 1.246 . S
O134 Mg129 2.032 . S
O134 C137 1.259 . S
O135 Mg126 2.114 . S
O135 C138 1.252 . S
O136 Mg126 2.251 . S
O136 Mg129 2.079 . S
O136 C138 1.273 . S
C137 O133 1.246 . S
C137 O134 1.259 . S
C138 O135 1.252 . S
C138 O136 1.273 . S
O139 Mg126 2.010 . S
O139 C131 1.249 . S
Mg140 O141 2.028 . S
Mg140 O147 1.986 . S
Mg140 O149 2.114 . S
Mg140 O150 2.251 . S
Mg140 O153 2.010 . S
O141 Mg140 2.028 . S
O141 C144 1.250 . S
O142 Mg143 2.028 . S
O142 C144 1.248 . S
Mg143 O142 2.028 . S
Mg143 O148 2.032 . S
Mg143 O150 2.079 . S
C144 O141 1.250 . S
C144 O142 1.248 . S
C145 O146 1.264 . S
C145 O153 1.249 . S
O146 C145 1.264 . S
O147 Mg140 1.986 . S
O147 C151 1.246 . S
O148 Mg143 2.032 . S
O148 C151 1.259 . S
O149 Mg140 2.114 . S
O149 C152 1.252 . S
O150 Mg140 2.251 . S
O150 Mg143 2.079 . S
O150 C152 1.273 . S
C151 O147 1.246 . S
C151 O148 1.259 . S
C152 O149 1.252 . S
C152 O150 1.273 . S
O153 Mg140 2.010 . S
O153 C145 1.249 . S
Mg154 O155 2.028 . S
Mg154 O161 1.986 . S
Mg154 O163 2.114 . S
Mg154 O164 2.251 . S
Mg154 O167 2.010 . S
O155 Mg154 2.028 . S
O155 C158 1.250 . S
O156 Mg157 2.028 . S
O156 C158 1.248 . S
Mg157 O156 2.028 . S
Mg157 O162 2.032 . S
Mg157 O164 2.079 . S
C158 O155 1.250 . S
C158 O156 1.248 . S
C159 O160 1.264 . S
C159 O167 1.249 . S
O160 C159 1.264 . S
O161 Mg154 1.986 . S
O161 C165 1.246 . S
O162 Mg157 2.032 . S
O162 C165 1.259 . S
O163 Mg154 2.114 . S
O163 C166 1.252 . S
O164 Mg154 2.251 . S
O164 Mg157 2.079 . S
O164 C166 1.273 . S
C165 O161 1.246 . S
C165 O162 1.259 . S
C166 O163 1.252 . S
C166 O164 1.273 . S
O167 Mg154 2.010 . S
O167 C159 1.249 . S
Mg168 O169 2.028 . S
Mg168 O175 1.986 . S
Mg168 O177 2.114 . S
Mg168 O178 2.251 . S
Mg168 O181 2.010 . S
O169 Mg168 2.028 . S
O169 C172 1.250 . S
O170 Mg171 2.028 . S
O170 C172 1.248 . S
Mg171 O170 2.028 . S
Mg171 O176 2.032 . S
Mg171 O178 2.079 . S
C172 O169 1.250 . S
C172 O170 1.248 . S
C173 O174 1.264 . S
C173 O181 1.249 . S
O174 C173 1.264 . S
O175 Mg168 1.986 . S
O175 C179 1.246 . S
O176 Mg171 2.032 . S
O176 C179 1.259 . S
O177 Mg168 2.114 . S
O177 C180 1.252 . S
O178 Mg168 2.251 . S
O178 Mg171 2.079 . S
O178 C180 1.273 . S
C179 O175 1.246 . S
C179 O176 1.259 . S
C180 O177 1.252 . S
C180 O178 1.273 . S
O181 Mg168 2.010 . S
O181 C173 1.249 . S
Mg182 O183 2.028 . S
Mg182 O189 1.986 . S
Mg182 O191 2.114 . S
Mg182 O192 2.251 . S
Mg182 O195 2.010 . S
O183 Mg182 2.028 . S
O183 C186 1.250 . S
O184 Mg185 2.028 . S
O184 C186 1.248 . S
Mg185 O184 2.028 . S
Mg185 O190 2.032 . S
Mg185 O192 2.079 . S
C186 O183 1.250 . S
C186 O184 1.248 . S
C187 O188 1.264 . S
C187 O195 1.249 . S
O188 C187 1.264 . S
O189 Mg182 1.986 . S
O189 C193 1.246 . S
O190 Mg185 2.032 . S
O190 C193 1.259 . S
O191 Mg182 2.114 . S
O191 C194 1.252 . S
O192 Mg182 2.251 . S
O192 Mg185 2.079 . S
O192 C194 1.273 . S
C193 O189 1.246 . S
C193 O190 1.259 . S
C194 O191 1.252 . S
C194 O192 1.273 . S
O195 Mg182 2.010 . S
O195 C187 1.249 . S
Mg196 O197 2.028 . S
Mg196 O203 1.986 . S
Mg196 O205 2.114 . S
Mg196 O206 2.251 . S
Mg196 O209 2.010 . S
O197 Mg196 2.028 . S
O197 C200 1.250 . S
O198 Mg199 2.028 . S
O198 C200 1.248 . S
Mg199 O198 2.028 . S
Mg199 O204 2.032 . S
Mg199 O206 2.079 . S
C200 O197 1.250 . S
C200 O198 1.248 . S
C201 O202 1.264 . S
C201 O209 1.249 . S
O202 C201 1.264 . S
O203 Mg196 1.986 . S
O203 C207 1.246 . S
O204 Mg199 2.032 . S
O204 C207 1.259 . S
O205 Mg196 2.114 . S
O205 C208 1.252 . S
O206 Mg196 2.251 . S
O206 Mg199 2.079 . S
O206 C208 1.273 . S
C207 O203 1.246 . S
C207 O204 1.259 . S
C208 O205 1.252 . S
C208 O206 1.273 . S
O209 Mg196 2.010 . S
O209 C201 1.249 . S
Mg210 O211 2.028 . S
Mg210 O217 1.986 . S
Mg210 O219 2.114 . S
Mg210 O220 2.251 . S
Mg210 O223 2.010 . S
O211 Mg210 2.028 . S
O211 C214 1.250 . S
O212 Mg213 2.028 . S
O212 C214 1.248 . S
Mg213 O212 2.028 . S
Mg213 O218 2.032 . S
Mg213 O220 2.079 . S
C214 O211 1.250 . S
C214 O212 1.248 . S
C215 O216 1.264 . S
C215 O223 1.249 . S
O216 C215 1.264 . S
O217 Mg210 1.986 . S
O217 C221 1.246 . S
O218 Mg213 2.032 . S
O218 C221 1.259 . S
O219 Mg210 2.114 . S
O219 C222 1.252 . S
O220 Mg210 2.251 . S
O220 Mg213 2.079 . S
O220 C222 1.273 . S
C221 O217 1.246 . S
C221 O218 1.259 . S
C222 O219 1.252 . S
C222 O220 1.273 . S
O223 Mg210 2.010 . S
O223 C215 1.249 . S
C67 C11 1.538 1_554 S
C81 C25 1.538 1_554 S
C95 C39 1.538 1_554 S
C109 C53 1.538 1_554 S
C179 C123 1.538 1_545 S
C193 C137 1.538 1_655 S
C151 C207 1.537 1_545 S
C221 C165 1.538 1_455 S
C4 C74 1.371 1_556 S
C88 C18 1.371 1_554 S
C32 C102 1.371 1_556 S
C60 C46 1.371 1_554 S
C186 C116 1.372 . S
C200 C130 1.372 . S
C144 C214 1.372 . S
C158 C172 1.371 . S
C215 C5 0.800 . S
C173 C19 0.800 . S
C187 C33 0.800 . S
C201 C47 0.800 . S
C131 C61 0.800 . S
C145 C75 0.800 . S
C89 C159 0.800 . S
C103 C117 0.800 . S
C194 C40 1.759 . S
C208 C54 1.759 . S
C222 C12 1.759 . S
C26 C180 1.759 . S
C166 C96 1.759 . S
C110 C124 1.759 . S
C138 C68 1.759 . S
C152 C82 1.759 . S
