# Generated by pormake.
# Topology pcu, (6)-cn, num edge types: 1
# Building blocks:
#     Node 0, Type 0, BuildingBlock: FUNLAD_clean_sbu_0, # of connection points: 6
#     Edge 1, Type (0, 0), BuildingBlock: XIVTED_clean_linker_0, # of connection points: 2
#     Edge 2, Type (0, 0), BuildingBlock: XIVTED_clean_linker_0, # of connection points: 2
#     Edge 3, Type (0, 0), BuildingBlock: XIVTED_clean_linker_0, # of connection points: 2
# Relax obj value: 0.000
# Max RMSD: 0.000
# Mean RMSD: 0.000
data_MOF--net-pcu--node1-FUNLAD_clean_sbu_0--edge1-XIVTED_clean_linker_0
_symmetry_space_group_name_H-M    P1
_symmetry_Int_Tables_number       1
_symmetry_cell_setting            triclinic
loop_
_symmetry_equiv_pos_as_xyz
'x, y, z'
_cell_length_a     15.56161
_cell_length_b     15.563228
_cell_length_c     21.936114
_cell_angle_alpha  90.742499
_cell_angle_beta   92.587007
_cell_angle_gamma 92.498257
loop_
_atom_site_label
_atom_site_type_symbol
_atom_site_fract_x
_atom_site_fract_y
_atom_site_fract_z
_atom_type_partial_charge
C0 C 0.16094 -0.01633 0.01234 0.0
N1 N 0.97882 -0.01922 0.86557 0.0
C2 C 0.0341 0.03612 0.83773 0.0
C3 C 0.03601 0.0373 0.77421 0.0
C4 C 0.9805 -0.01901 0.7388 0.0
C5 C 0.92366 0.92493 0.76877 0.0
C6 C 0.92394 0.92586 0.83249 0.0
Zn7 Zn 0.98049 0.9801 0.95881 0.0
C8 C 0.98008 0.803 1.0078 0.0
N9 N -0.01238 0.98041 0.15367 0.0
C10 C 0.0425 0.03534 0.18676 0.0
C11 C 0.93234 0.92508 0.18152 0.0
C12 C 0.93043 0.9239 0.24503 0.0
C13 C -0.01407 0.98021 0.28044 0.0
C14 C 0.04278 0.03626 0.25047 0.0
Zn15 Zn -0.01405 -0.01891 0.06043 0.0
O16 O 0.11691 -0.01744 0.96208 0.0
C17 C -0.01364 0.1582 0.01145 0.0
O18 O 0.12237 -0.01635 0.06221 0.0
H19 H 0.88939 0.88177 0.15439 0.0
H20 H 0.07705 0.07942 0.86486 0.0
H21 H 0.08574 0.07896 0.16369 0.0
O22 O -0.01697 0.1164 0.96117 0.0
O23 O -0.01148 0.11742 0.06129 0.0
H24 H 0.88069 0.88224 0.85556 0.0
O25 O 0.84953 0.97864 0.05716 0.0
O26 O 0.84406 0.97754 0.95703 0.0
O27 O -0.01659 0.84479 0.05808 0.0
O28 O 0.97791 0.84377 0.95795 0.0
C29 C 0.8055 0.97752 1.00691 0.0
H30 H 0.07999 0.08247 0.75308 0.0
H31 H 0.88042 0.87977 0.74334 0.0
H32 H 0.88644 0.87872 0.26616 0.0
H33 H 0.08601 0.08143 0.2759 0.0
H34 H 0.84507 0.96624 0.35104 0.0
H35 H 0.12136 -0.00505 0.6682 0.0
H36 H 0.12247 -0.00475 0.36426 0.0
H37 H 0.84397 0.96595 0.65499 0.0
H38 H 0.123 -0.00415 0.55698 0.0
H39 H 0.84344 0.96535 0.46226 0.0
C40 C 0.90573 0.97195 0.3773 0.0
C41 C -0.01592 -0.01938 0.34813 0.0
C42 C 0.06174 -0.01073 0.57837 0.0
C43 C 0.98257 -0.01942 0.47577 0.0
C44 C 0.0607 -0.01075 0.64194 0.0
C45 C 0.98236 -0.01942 0.67111 0.0
C46 C -0.01614 -0.01938 0.54348 0.0
C47 C 0.90593 0.97182 0.63456 0.0
C48 C 0.90469 0.97192 0.44087 0.0
C49 C 0.0605 -0.01062 0.38468 0.0
N50 N 0.90861 0.9722 0.57272 0.0
N51 N 0.05782 -0.011 0.44653 0.0
H52 H 0.27555 -0.01547 0.11104 0.0
H53 H 0.69089 0.97666 0.9082 0.0
H54 H 0.26313 -0.01713 0.91397 0.0
H55 H 0.70331 0.97832 0.10527 0.0
H56 H 0.53404 0.97862 0.90938 0.0
H57 H 0.4324 -0.01743 0.10986 0.0
C58 C 0.30576 -0.01615 0.06752 0.0
C59 C 0.25603 -0.0162 0.01252 0.0
C60 C 0.57107 0.97852 0.95237 0.0
C61 C 0.43568 -0.01857 0.01084 0.0
C62 C 0.66068 0.97734 0.95173 0.0
C63 C 0.71041 0.97739 1.00672 0.0
C64 C 0.53076 0.97976 1.0084 0.0
C65 C 0.66764 0.97829 0.06174 0.0
C66 C 0.39537 -0.01732 0.06687 0.0
C67 C 0.2988 -0.01709 0.9575 0.0
N68 N 0.58036 0.97949 0.06116 0.0
N69 N 0.38608 -0.0183 0.95808 0.0
H70 H 0.97419 0.69318 0.90886 0.0
H71 H -0.00775 0.26801 0.11039 0.0
H72 H -0.01417 0.69603 0.10593 0.0
H73 H 0.98061 0.26516 0.91331 0.0
H74 H -0.00973 0.42487 0.10968 0.0
H75 H 0.97617 0.53632 0.90957 0.0
C76 C 0.97708 0.66087 0.9523 0.0
C77 C 0.97992 0.70792 1.00743 0.0
C78 C -0.01182 0.38995 0.06658 0.0
C79 C 0.98233 0.52819 1.00856 0.0
C80 C -0.01064 0.30033 0.06695 0.0
C81 C -0.01348 0.25328 0.01182 0.0
C82 C -0.01589 0.433 0.01069 0.0
C83 C 0.98286 0.29872 0.95693 0.0
C84 C 0.97826 0.57124 0.95266 0.0
C85 C -0.01642 0.66247 0.06231 0.0
N86 N 0.98171 0.38598 0.95778 0.0
N87 N -0.01526 0.57521 0.06147 0.0
loop_
_geom_bond_atom_site_label_1
_geom_bond_atom_site_label_2
_geom_bond_distance
_geom_bond_site_symmetry_2
_ccdc_geom_bond_type
C0 O16 1.243 1_544 S
C0 O18 1.263 . S
N1 C2 1.333 1_665 S
N1 C6 1.307 . S
N1 Zn7 2.020 . S
C2 N1 1.333 1_445 S
C2 C3 1.379 . S
C2 H20 0.952 . S
C3 C2 1.379 . S
C3 C4 1.391 1_455 S
C3 H30 0.949 . S
C4 C3 1.391 1_655 S
C4 C5 1.355 1_545 S
C5 C4 1.355 1_565 S
C5 C6 1.370 . S
C5 H31 0.950 . S
C6 N1 1.307 . S
C6 C5 1.370 . S
C6 H24 0.948 . S
Zn7 N1 2.020 . S
Zn7 O16 2.039 1_655 S
Zn7 O22 2.034 1_665 S
Zn7 O26 2.025 . S
Zn7 O28 2.024 . S
C8 O27 1.246 1_556 S
C8 O28 1.249 . S
N9 C10 1.307 . S
N9 C11 1.333 1_445 S
N9 Zn15 2.020 . S
C10 N9 1.307 . S
C10 C14 1.370 . S
C10 H21 0.948 . S
C11 N9 1.333 1_665 S
C11 C12 1.379 . S
C11 H19 0.952 . S
C12 C11 1.379 . S
C12 C13 1.390 1_655 S
C12 H32 0.949 . S
C13 C12 1.390 1_455 S
C13 C14 1.356 1_565 S
C14 C10 1.370 . S
C14 C13 1.356 1_545 S
C14 H33 0.950 . S
Zn15 N9 2.020 . S
Zn15 O18 2.025 . S
Zn15 O23 2.024 . S
Zn15 O25 2.039 1_455 S
Zn15 O27 2.034 1_445 S
O16 C0 1.243 1_566 S
O16 Zn7 2.039 1_455 S
C17 O22 1.246 1_554 S
C17 O23 1.249 . S
O18 C0 1.263 . S
O18 Zn15 2.025 . S
H19 C11 0.952 . S
H20 C2 0.952 . S
H21 C10 0.948 . S
O22 Zn7 2.034 1_445 S
O22 C17 1.246 1_556 S
O23 Zn15 2.024 . S
O23 C17 1.249 . S
H24 C6 0.948 . S
O25 Zn15 2.039 1_655 S
O25 C29 1.246 1_544 S
O26 Zn7 2.025 . S
O26 C29 1.259 . S
O27 C8 1.246 1_554 S
O27 Zn15 2.034 1_665 S
O28 Zn7 2.024 . S
O28 C8 1.249 . S
C29 O25 1.246 1_566 S
C29 O26 1.259 . S
H30 C3 0.949 . S
H31 C5 0.950 . S
H32 C12 0.949 . S
H33 C14 0.950 . S
H34 C40 0.930 . S
H35 C44 0.930 . S
H36 C49 0.929 . S
H37 C47 0.929 . S
H38 C42 0.929 . S
H39 C48 0.929 . S
C40 H34 0.930 . S
C40 C41 1.373 . S
C40 C48 1.378 . S
C41 C40 1.373 . S
C41 C49 1.428 1_645 S
C42 H38 0.929 . S
C42 C44 1.378 . S
C42 C46 1.350 . S
C43 C46 1.463 1_645 S
C43 C48 1.350 . S
C43 N51 1.427 1_645 S
C44 H35 0.930 . S
C44 C42 1.378 . S
C44 C45 1.367 . S
C45 C44 1.367 . S
C45 C47 1.433 1_465 S
C46 C42 1.350 . S
C46 C43 1.463 1_465 S
C46 N50 1.427 1_465 S
C47 H37 0.929 . S
C47 C45 1.433 1_645 S
C47 N50 1.384 . S
C48 H39 0.929 . S
C48 C40 1.378 . S
C48 C43 1.350 . S
C49 H36 0.929 . S
C49 C41 1.428 1_465 S
C49 N51 1.384 . S
N50 C46 1.427 1_645 S
N50 C47 1.384 . S
N51 C43 1.427 1_465 S
N51 C49 1.384 . S
H52 C58 0.930 . S
H53 C62 0.930 . S
H54 C67 0.929 . S
H55 C65 0.929 . S
H56 C60 0.929 . S
H57 C66 0.929 . S
C58 H52 0.930 . S
C58 C59 1.374 . S
C58 C66 1.378 . S
C59 C58 1.374 . S
C59 C67 1.425 1_564 S
C60 H56 0.929 . S
C60 C62 1.378 . S
C60 C64 1.360 . S
C61 C64 1.461 1_564 S
C61 C66 1.350 . S
C61 N69 1.427 1_564 S
C62 H53 0.930 . S
C62 C60 1.378 . S
C62 C63 1.372 . S
C63 C62 1.372 . S
C63 C65 1.427 1_546 S
C64 C60 1.360 . S
C64 C61 1.461 1_546 S
C64 N68 1.419 1_546 S
C65 H55 0.929 . S
C65 C63 1.427 1_564 S
C65 N68 1.384 . S
C66 H57 0.929 . S
C66 C58 1.378 . S
C66 C61 1.350 . S
C67 H54 0.929 . S
C67 C59 1.425 1_546 S
C67 N69 1.384 . S
N68 C64 1.419 1_564 S
N68 C65 1.384 . S
N69 C61 1.427 1_546 S
N69 C67 1.384 . S
H70 C76 0.930 . S
H71 C80 0.930 . S
H72 C85 0.929 . S
H73 C83 0.929 . S
H74 C78 0.929 . S
H75 C84 0.929 . S
C76 H70 0.930 . S
C76 C77 1.379 . S
C76 C84 1.378 . S
C77 C76 1.379 . S
C77 C85 1.421 1_456 S
C78 H74 0.929 . S
C78 C80 1.378 . S
C78 C82 1.350 . S
C79 C82 1.463 1_456 S
C79 C84 1.350 . S
C79 N87 1.427 1_456 S
C80 H71 0.930 . S
C80 C78 1.378 . S
C80 C81 1.367 . S
C81 C80 1.367 . S
C81 C83 1.433 1_654 S
C82 C78 1.350 . S
C82 C79 1.463 1_654 S
C82 N86 1.427 1_654 S
C83 H73 0.929 . S
C83 C81 1.433 1_456 S
C83 N86 1.384 . S
C84 H75 0.929 . S
C84 C76 1.378 . S
C84 C79 1.350 . S
C85 H72 0.929 . S
C85 C77 1.421 1_654 S
C85 N87 1.384 . S
N86 C82 1.427 1_456 S
N86 C83 1.384 . S
N87 C79 1.427 1_654 S
N87 C85 1.384 . S
C41 C13 1.497 1_645 S
C45 C4 1.499 1_465 S
C59 C0 1.500 1_565 S
C63 C29 1.500 1_545 S
C77 C8 1.498 1_455 S
C81 C17 1.498 1_655 S
