# Generated by pormake.
# Topology hex, (8)-cn, num edge types: 1
# Building blocks:
#     Node 0, Type 0, BuildingBlock: TAGTUT_clean_sbu_1, # of connection points: 8
#     Edge 1, Type (0, 0), None
#     Edge 2, Type (0, 0), None
#     Edge 3, Type (0, 0), None
#     Edge 4, Type (0, 0), None
# Relax obj value: 0.078
# Max RMSD: 0.169
# Mean RMSD: 0.169
data_MOF--net-hex--node1-TAGTUT_clean_sbu_1--edge1-none
_symmetry_space_group_name_H-M    P1
_symmetry_Int_Tables_number       1
_symmetry_cell_setting            triclinic
loop_
_symmetry_equiv_pos_as_xyz
'x, y, z'
_cell_length_a     10.874841
_cell_length_b     12.378491
_cell_length_c     7.7696886
_cell_angle_alpha  89.119754
_cell_angle_beta   91.463524
_cell_angle_gamma 140.71742
loop_
_atom_site_label
_atom_site_type_symbol
_atom_site_fract_x
_atom_site_fract_y
_atom_site_fract_z
_atom_type_partial_charge
C0 C -0.05829 0.43944 0.94583 0.0
C1 C 0.51545 0.01485 0.94652 0.0
C2 C -0.06563 0.96638 0.37793 0.0
Mg3 Mg 0.85951 0.18596 0.73556 0.0
O4 O 0.85403 0.09112 0.92683 0.0
Mg5 Mg 0.92259 0.19861 0.15636 0.0
Mg6 Mg -0.07165 -0.01175 -0.04751 0.0
O7 O 0.00292 0.88553 -0.02195 0.0
Mg8 Mg -0.004 0.78963 0.16931 0.0
Mg9 Mg -0.06618 0.77773 0.74843 0.0
C10 C 0.92177 0.00972 0.52701 0.0
C11 C 0.52 0.56309 0.92706 0.0
O12 O 0.9172 0.36719 0.08114 0.0
O13 O -0.01693 0.42486 0.80146 0.0
O14 O 0.59794 0.03055 0.08631 0.0
O15 O 0.5826 0.05144 0.79503 0.0
O16 O 0.90424 0.10165 0.52456 0.0
O17 O 0.92601 0.95756 0.66867 0.0
C18 C 0.33667 0.41338 -0.02174 0.0
O19 O 0.25039 0.27007 0.92066 0.0
O20 O 0.25019 0.41592 0.08377 0.0
O21 O -0.06105 0.60898 0.82334 0.0
O22 O 0.87207 0.55062 0.10282 0.0
O23 O 0.25794 0.94475 0.81976 0.0
C24 C 0.91381 0.53629 -0.04146 0.0
O25 O 0.27288 0.92359 0.11102 0.0
O26 O -0.04844 0.87421 0.38034 0.0
C27 C 0.3402 0.96022 -0.04039 0.0
O28 O -0.06955 0.0188 0.2363 0.0
O29 O 0.60626 0.70643 -0.01551 0.0
O30 O 0.60647 0.5605 0.82162 0.0
loop_
_geom_bond_atom_site_label_1
_geom_bond_atom_site_label_2
_geom_bond_distance
_geom_bond_site_symmetry_2
_ccdc_geom_bond_type
C0 O12 1.241 1_656 S
C0 O13 1.280 . S
C1 O14 1.277 . S
C1 O15 1.244 1_544 S
C2 O26 1.247 . S
C2 O28 1.289 . S
Mg3 O4 1.926 . S
Mg3 O13 1.984 . S
Mg3 O15 1.988 1_545 S
Mg3 O16 2.061 1_545 S
O4 Mg3 1.926 . S
O4 Mg5 1.986 1_656 S
O4 Mg6 1.917 1_656 S
Mg5 O4 1.986 1_454 S
Mg5 O12 2.042 . S
Mg5 O14 2.041 1_455 S
Mg5 O20 2.038 . S
Mg5 O28 2.238 . S
Mg6 O4 1.917 1_454 S
Mg6 O7 1.917 1_545 S
Mg6 O17 2.106 1_444 S
Mg6 O19 2.079 . S
Mg6 O28 2.106 . S
Mg6 O29 2.079 1_444 S
O7 Mg6 1.917 1_565 S
O7 Mg8 1.926 . S
O7 Mg9 1.986 1_454 S
Mg8 O7 1.926 . S
Mg8 O22 1.984 . S
Mg8 O25 1.988 1_565 S
Mg8 O26 2.061 1_565 S
Mg9 O7 1.986 1_656 S
Mg9 O17 2.238 . S
Mg9 O21 2.042 . S
Mg9 O23 2.041 1_655 S
Mg9 O30 2.038 . S
C10 O16 1.247 . S
C10 O17 1.289 . S
C11 O29 1.245 . S
C11 O30 1.274 . S
O12 C0 1.241 1_454 S
O12 Mg5 2.042 . S
O13 C0 1.280 . S
O13 Mg3 1.984 . S
O14 C1 1.277 . S
O14 Mg5 2.041 1_655 S
O15 C1 1.244 1_566 S
O15 Mg3 1.988 1_565 S
O16 Mg3 2.061 1_565 S
O16 C10 1.247 . S
O17 Mg6 2.106 1_666 S
O17 Mg9 2.238 . S
O17 C10 1.289 . S
C18 O19 1.245 . S
C18 O20 1.274 . S
O19 Mg6 2.079 . S
O19 C18 1.245 . S
O20 Mg5 2.038 . S
O20 C18 1.274 . S
O21 Mg9 2.042 . S
O21 C24 1.241 1_656 S
O22 Mg8 1.984 . S
O22 C24 1.280 . S
O23 Mg9 2.041 1_455 S
O23 C27 1.277 . S
C24 O21 1.241 1_454 S
C24 O22 1.280 . S
O25 Mg8 1.988 1_545 S
O25 C27 1.245 1_544 S
O26 C2 1.247 . S
O26 Mg8 2.061 1_545 S
C27 O23 1.277 . S
C27 O25 1.245 1_566 S
O28 C2 1.289 . S
O28 Mg5 2.238 . S
O28 Mg6 2.106 . S
O29 Mg6 2.079 1_666 S
O29 C11 1.245 . S
O30 Mg9 2.038 . S
O30 C11 1.274 . S
C0 C24 1.691 1_656 S
C1 C27 1.528 1_544 S
C18 C11 2.742 1_554 S
C10 C2 1.595 1_665 S
