# Generated by pormake.
# Topology uof, (4)-cn, num edge types: 1
# Building blocks:
#     Node 0, Type 0, BuildingBlock: QUQFOY_clean_sbu_3, # of connection points: 4
#     Node 1, Type 0, BuildingBlock: QUQFOY_clean_sbu_3, # of connection points: 4
#     Node 2, Type 0, BuildingBlock: QUQFOY_clean_sbu_3, # of connection points: 4
#     Node 3, Type 0, BuildingBlock: QUQFOY_clean_sbu_3, # of connection points: 4
#     Node 4, Type 0, BuildingBlock: QUQFOY_clean_sbu_3, # of connection points: 4
#     Node 5, Type 0, BuildingBlock: QUQFOY_clean_sbu_3, # of connection points: 4
#     Node 6, Type 0, BuildingBlock: QUQFOY_clean_sbu_3, # of connection points: 4
#     Node 7, Type 0, BuildingBlock: QUQFOY_clean_sbu_3, # of connection points: 4
#     Node 8, Type 0, BuildingBlock: QUQFOY_clean_sbu_3, # of connection points: 4
#     Node 9, Type 0, BuildingBlock: QUQFOY_clean_sbu_3, # of connection points: 4
#     Node 10, Type 0, BuildingBlock: QUQFOY_clean_sbu_3, # of connection points: 4
#     Node 11, Type 0, BuildingBlock: QUQFOY_clean_sbu_3, # of connection points: 4
#     Edge 12, Type (0, 0), None
#     Edge 13, Type (0, 0), None
#     Edge 14, Type (0, 0), None
#     Edge 15, Type (0, 0), None
#     Edge 16, Type (0, 0), None
#     Edge 17, Type (0, 0), None
#     Edge 18, Type (0, 0), None
#     Edge 19, Type (0, 0), None
#     Edge 20, Type (0, 0), None
#     Edge 21, Type (0, 0), None
#     Edge 22, Type (0, 0), None
#     Edge 23, Type (0, 0), None
#     Edge 24, Type (0, 0), None
#     Edge 25, Type (0, 0), None
#     Edge 26, Type (0, 0), None
#     Edge 27, Type (0, 0), None
#     Edge 28, Type (0, 0), None
#     Edge 29, Type (0, 0), None
#     Edge 30, Type (0, 0), None
#     Edge 31, Type (0, 0), None
#     Edge 32, Type (0, 0), None
#     Edge 33, Type (0, 0), None
#     Edge 34, Type (0, 0), None
#     Edge 35, Type (0, 0), None
# Relax obj value: 0.178
# Max RMSD: 0.138
# Mean RMSD: 0.138
data_MOF--net-uof--node1-QUQFOY_clean_sbu_3--edge1-none
_symmetry_space_group_name_H-M    P1
_symmetry_Int_Tables_number       1
_symmetry_cell_setting            triclinic
loop_
_symmetry_equiv_pos_as_xyz
'x, y, z'
_cell_length_a     16.194279
_cell_length_b     16.193725
_cell_length_c     32.837528
_cell_angle_alpha  89.999827
_cell_angle_beta   89.999646
_cell_angle_gamma 119.99668
loop_
_atom_site_label
_atom_site_type_symbol
_atom_site_fract_x
_atom_site_fract_y
_atom_site_fract_z
_atom_type_partial_charge
C0 C 0.23361 0.24015 0.24786 0.0
O1 O 0.28562 0.2064 0.23633 0.0
Cd2 Cd 0.31422 0.18483 0.16836 0.0
O3 O 0.19066 0.26646 0.22249 0.0
Cd4 Cd 0.16835 0.27351 0.14627 0.0
C5 C 0.4088 0.42059 0.13846 0.0
O6 O 0.15466 0.12194 0.14868 0.0
O7 O 0.17113 0.18012 0.08855 0.0
O8 O 0.00196 0.24176 0.15089 0.0
C9 C 0.15222 0.10936 0.11099 0.0
O10 O 0.41854 0.34868 0.14573 0.0
C11 C -0.00221 0.26397 0.11403 0.0
O12 O 0.32693 0.41418 0.13845 0.0
O13 O 0.07583 0.30354 0.09455 0.0
C14 C -0.03871 0.24966 0.58119 0.0
O15 O 0.04703 0.30166 0.56967 0.0
Cd16 Cd 0.09721 0.33028 0.50169 0.0
O17 O 0.89202 0.20671 0.55582 0.0
Cd18 Cd 0.86266 0.18442 0.47961 0.0
C19 C -0.04398 0.42487 0.4718 0.0
O20 O 0.00053 0.17072 0.48201 0.0
O21 O -0.04117 0.18721 0.42188 0.0
O22 O 0.72803 0.01802 0.48422 0.0
C23 C 0.01068 0.1683 0.44432 0.0
O24 O 0.03767 0.4346 0.47907 0.0
C25 C 0.70165 0.01386 0.44736 0.0
O26 O 0.88057 0.343 0.47179 0.0
O27 O 0.74012 0.09191 0.42788 0.0
C28 C 0.67944 -0.02261 0.91454 0.0
O29 O 0.71318 0.06314 0.90302 0.0
Cd30 Cd 0.73473 0.11331 0.83504 0.0
O31 O 0.65313 0.90812 0.88917 0.0
Cd32 Cd 0.64608 0.87876 0.81295 0.0
C33 C 0.49898 -0.02789 0.80515 0.0
O34 O 0.79764 0.01664 0.81536 0.0
O35 O 0.73944 -0.02507 0.75523 0.0
O36 O 0.67785 0.74413 0.81756 0.0
C37 C 0.8102 0.02678 0.77767 0.0
O38 O 0.57088 0.05376 0.81242 0.0
C39 C 0.65562 0.71774 0.78071 0.0
O40 O 0.5054 0.89666 0.80514 0.0
O41 O 0.61604 0.75622 0.76123 0.0
C42 C 0.66986 0.6955 0.24786 0.0
O43 O 0.61786 0.72925 0.23633 0.0
Cd44 Cd 0.58926 0.75084 0.16836 0.0
O45 O 0.71282 0.66919 0.22249 0.0
Cd46 Cd 0.73513 0.66214 0.14627 0.0
C47 C 0.49469 0.51508 0.13845 0.0
O48 O 0.74882 0.81371 0.14868 0.0
O49 O 0.73237 0.75554 0.08855 0.0
O50 O 0.90153 0.6939 0.15089 0.0
C51 C 0.75127 0.8263 0.111 0.0
O52 O 0.48495 0.58699 0.14573 0.0
C53 C 0.9057 0.67168 0.11403 0.0
O54 O 0.57655 0.52148 0.13845 0.0
O55 O 0.82765 0.63211 0.09455 0.0
C56 C 0.94218 0.68597 0.58119 0.0
O57 O 0.85643 0.63397 0.56967 0.0
Cd58 Cd 0.80624 0.60536 0.50169 0.0
O59 O 0.01144 0.72892 0.55582 0.0
Cd60 Cd 0.0408 0.75122 0.4796 0.0
C61 C 0.94742 0.51077 0.47179 0.0
O62 O 0.90293 0.76491 0.48201 0.0
O63 O 0.94464 0.74844 0.42188 0.0
O64 O 0.17543 0.91762 0.48422 0.0
C65 C 0.89278 0.76734 0.44432 0.0
O66 O 0.86578 0.50103 0.47907 0.0
C67 C 0.20182 0.92177 0.44736 0.0
O68 O 0.02289 0.59263 0.47179 0.0
O69 O 0.16335 0.84372 0.42788 0.0
C70 C 0.22404 0.95825 0.91454 0.0
O71 O 0.19029 0.8725 0.90301 0.0
Cd72 Cd 0.16873 0.82232 0.83504 0.0
O73 O 0.25034 0.02751 0.88917 0.0
Cd74 Cd 0.2574 0.05687 0.81295 0.0
C75 C 0.40448 0.9635 0.80514 0.0
O76 O 0.10584 0.919 0.81535 0.0
O77 O 0.16404 0.96071 0.75522 0.0
O78 O 0.22562 0.19151 0.81756 0.0
C79 C 0.09327 0.90885 0.77766 0.0
O80 O 0.33258 0.88185 0.81242 0.0
C81 C 0.24786 0.21789 0.7807 0.0
O82 O 0.39807 0.03897 0.80513 0.0
O83 O 0.28744 0.17942 0.76122 0.0
C84 C 0.67941 0.68594 0.2915 0.0
O85 O 0.71315 0.63392 0.30302 0.0
Cd86 Cd 0.73472 0.6053 0.37099 0.0
O87 O 0.65311 0.7289 0.31686 0.0
Cd88 Cd 0.64607 0.75121 0.39308 0.0
C89 C 0.49897 0.51076 0.40089 0.0
O90 O 0.79762 0.76487 0.39067 0.0
O91 O 0.73946 0.74844 0.45081 0.0
O92 O 0.67786 0.91762 0.38847 0.0
C93 C 0.81018 0.76729 0.42836 0.0
O94 O 0.57087 0.501 0.39362 0.0
C95 C 0.65563 0.92175 0.42533 0.0
O96 O 0.50539 0.59264 0.4009 0.0
O97 O 0.61601 0.8437 0.44481 0.0
C98 C -0.0387 0.69553 0.62483 0.0
O99 O 0.04705 0.72926 0.63635 0.0
Cd100 Cd 0.09724 0.75082 0.70432 0.0
O101 O 0.89204 0.66923 0.6502 0.0
Cd102 Cd 0.86269 0.66217 0.72642 0.0
C103 C -0.04396 0.51506 0.73422 0.0
O104 O 0.00058 0.81372 0.72401 0.0
O105 O -0.04116 0.75553 0.78415 0.0
O106 O 0.72808 0.69397 0.72181 0.0
C107 C 0.01072 0.82627 0.7617 0.0
O108 O 0.03769 0.58696 0.72694 0.0
C109 C 0.70172 0.67173 0.75867 0.0
O110 O 0.88059 0.52148 0.73423 0.0
O111 O 0.74015 0.6321 0.77815 0.0
C112 C 0.2336 -0.02263 -0.04183 0.0
O113 O 0.28561 0.06312 -0.03031 0.0
Cd114 Cd 0.31423 0.11332 0.03767 0.0
O115 O 0.19065 0.90811 -0.01646 0.0
Cd116 Cd 0.16835 0.87876 0.05976 0.0
C117 C 0.4088 -0.02787 0.06757 0.0
O118 O 0.15468 0.01665 0.05735 0.0
O119 O 0.1711 -0.02509 0.11749 0.0
O120 O 0.00194 0.74414 0.05514 0.0
C121 C 0.15226 0.0268 0.09504 0.0
O122 O 0.41854 0.05378 0.06029 0.0
C123 C -0.00219 0.71778 0.092 0.0
O124 O 0.32693 0.89667 0.06758 0.0
O125 O 0.07585 0.75621 0.11149 0.0
C126 C 0.22406 0.24971 0.2915 0.0
O127 O 0.19032 0.30172 0.30302 0.0
Cd128 Cd 0.16873 0.33034 0.37099 0.0
O129 O 0.25036 0.20674 0.31686 0.0
Cd130 Cd 0.25739 0.18443 0.39308 0.0
C131 C 0.40447 0.42488 0.4009 0.0
O132 O 0.10585 0.17078 0.39067 0.0
O133 O 0.164 0.18719 0.45081 0.0
O134 O 0.2256 0.01802 0.38846 0.0
C135 C 0.09328 0.16835 0.42836 0.0
O136 O 0.33258 0.43464 0.39362 0.0
C137 C 0.24784 0.01389 0.42532 0.0
O138 O 0.39806 0.343 0.4009 0.0
O139 O 0.28746 0.09193 0.44481 0.0
C140 C 0.94217 0.2401 0.62483 0.0
O141 O 0.85642 0.20637 0.63635 0.0
Cd142 Cd 0.80622 0.1848 0.70432 0.0
O143 O 0.01143 0.26641 0.6502 0.0
Cd144 Cd 0.04078 0.27346 0.72642 0.0
C145 C 0.94742 0.42055 0.73423 0.0
O146 O 0.90289 0.12191 0.72401 0.0
O147 O 0.94464 0.18009 0.78415 0.0
O148 O 0.1754 0.24166 0.7218 0.0
C149 C 0.89275 0.10936 0.7617 0.0
O150 O 0.86577 0.34866 0.72695 0.0
C151 C 0.20176 0.2639 0.75866 0.0
O152 O 0.02288 0.41414 0.73423 0.0
O153 O 0.16333 0.30353 0.77814 0.0
C154 C 0.66988 0.95827 -0.04182 0.0
O155 O 0.61788 0.87252 -0.0303 0.0
Cd156 Cd 0.58926 0.82232 0.03767 0.0
O157 O 0.71284 0.02754 -0.01646 0.0
Cd158 Cd 0.73514 0.0569 0.05976 0.0
C159 C 0.49469 0.96351 0.06758 0.0
O160 O 0.74881 0.919 0.05735 0.0
O161 O 0.7324 0.96075 0.11749 0.0
O162 O 0.90154 0.19151 0.05514 0.0
C163 C 0.75123 0.90886 0.09504 0.0
O164 O 0.48494 0.88186 0.0603 0.0
C165 C 0.90567 0.21787 0.092 0.0
O166 O 0.57655 0.03898 0.06758 0.0
O167 O 0.82763 0.17945 0.11149 0.0
loop_
_geom_bond_atom_site_label_1
_geom_bond_atom_site_label_2
_geom_bond_distance
_geom_bond_site_symmetry_2
_ccdc_geom_bond_type
C0 O1 1.306 . S
C0 O3 1.160 . S
O1 C0 1.306 . S
O1 Cd2 2.228 . S
Cd2 O1 2.228 . S
Cd2 O6 2.273 . S
Cd2 O10 2.277 . S
O3 C0 1.160 . S
O3 Cd4 2.203 . S
Cd4 O3 2.203 . S
Cd4 O6 2.411 . S
Cd4 O7 2.333 . S
Cd4 O8 2.352 . S
Cd4 O12 2.277 . S
Cd4 O13 2.356 . S
C5 O10 1.209 . S
C5 O12 1.226 . S
O6 Cd2 2.273 . S
O6 Cd4 2.411 . S
O6 C9 1.320 . S
O7 Cd4 2.333 . S
O7 C9 1.214 . S
O8 Cd4 2.352 . S
O8 C11 1.258 . S
C9 O6 1.320 . S
C9 O7 1.214 . S
O10 Cd2 2.277 . S
O10 C5 1.209 . S
C11 O8 1.258 . S
C11 O13 1.282 . S
O12 Cd4 2.277 . S
O12 C5 1.226 . S
O13 Cd4 2.356 . S
O13 C11 1.282 . S
C14 O15 1.306 1_655 S
C14 O17 1.160 . S
O15 C14 1.306 1_455 S
O15 Cd16 2.228 . S
Cd16 O15 2.228 . S
Cd16 O20 2.273 . S
Cd16 O24 2.277 . S
O17 C14 1.160 . S
O17 Cd18 2.203 . S
Cd18 O17 2.203 . S
Cd18 O20 2.411 1_655 S
Cd18 O21 2.333 1_655 S
Cd18 O22 2.352 . S
Cd18 O26 2.277 . S
Cd18 O27 2.356 . S
C19 O24 1.209 1_655 S
C19 O26 1.226 . S
O20 Cd16 2.273 . S
O20 Cd18 2.411 1_455 S
O20 C23 1.320 . S
O21 Cd18 2.333 1_455 S
O21 C23 1.214 . S
O22 Cd18 2.352 . S
O22 C25 1.258 . S
C23 O20 1.320 . S
C23 O21 1.214 . S
O24 Cd16 2.277 . S
O24 C19 1.209 1_455 S
C25 O22 1.258 . S
C25 O27 1.282 . S
O26 Cd18 2.277 . S
O26 C19 1.226 . S
O27 Cd18 2.356 . S
O27 C25 1.282 . S
C28 O29 1.306 1_565 S
C28 O31 1.160 . S
O29 C28 1.306 1_545 S
O29 Cd30 2.228 . S
Cd30 O29 2.228 . S
Cd30 O34 2.273 . S
Cd30 O38 2.277 . S
O31 C28 1.160 . S
O31 Cd32 2.203 . S
Cd32 O31 2.203 . S
Cd32 O34 2.411 1_565 S
Cd32 O35 2.333 1_565 S
Cd32 O36 2.352 . S
Cd32 O40 2.277 . S
Cd32 O41 2.356 . S
C33 O38 1.209 1_565 S
C33 O40 1.226 . S
O34 Cd30 2.273 . S
O34 Cd32 2.411 1_545 S
O34 C37 1.320 . S
O35 Cd32 2.333 1_545 S
O35 C37 1.214 . S
O36 Cd32 2.352 . S
O36 C39 1.258 . S
C37 O34 1.320 . S
C37 O35 1.214 . S
O38 Cd30 2.277 . S
O38 C33 1.209 1_545 S
C39 O36 1.258 . S
C39 O41 1.282 . S
O40 Cd32 2.277 . S
O40 C33 1.226 . S
O41 Cd32 2.356 . S
O41 C39 1.282 . S
C42 O43 1.306 . S
C42 O45 1.160 . S
O43 C42 1.306 . S
O43 Cd44 2.228 . S
Cd44 O43 2.228 . S
Cd44 O48 2.273 . S
Cd44 O52 2.277 . S
O45 C42 1.160 . S
O45 Cd46 2.203 . S
Cd46 O45 2.203 . S
Cd46 O48 2.411 . S
Cd46 O49 2.333 . S
Cd46 O50 2.352 . S
Cd46 O54 2.277 . S
Cd46 O55 2.356 . S
C47 O52 1.209 . S
C47 O54 1.226 . S
O48 Cd44 2.273 . S
O48 Cd46 2.411 . S
O48 C51 1.320 . S
O49 Cd46 2.333 . S
O49 C51 1.214 . S
O50 Cd46 2.352 . S
O50 C53 1.258 . S
C51 O48 1.320 . S
C51 O49 1.214 . S
O52 Cd44 2.277 . S
O52 C47 1.209 . S
C53 O50 1.258 . S
C53 O55 1.282 . S
O54 Cd46 2.277 . S
O54 C47 1.226 . S
O55 Cd46 2.356 . S
O55 C53 1.282 . S
C56 O57 1.306 1_455 S
C56 O59 1.160 . S
O57 C56 1.306 1_655 S
O57 Cd58 2.228 . S
Cd58 O57 2.228 . S
Cd58 O62 2.273 . S
Cd58 O66 2.277 . S
O59 C56 1.160 . S
O59 Cd60 2.203 . S
Cd60 O59 2.203 . S
Cd60 O62 2.411 1_455 S
Cd60 O63 2.333 1_455 S
Cd60 O64 2.352 . S
Cd60 O68 2.277 . S
Cd60 O69 2.356 . S
C61 O66 1.209 1_455 S
C61 O68 1.226 . S
O62 Cd58 2.273 . S
O62 Cd60 2.411 1_655 S
O62 C65 1.320 . S
O63 Cd60 2.333 1_655 S
O63 C65 1.214 . S
O64 Cd60 2.352 . S
O64 C67 1.258 . S
C65 O62 1.320 . S
C65 O63 1.214 . S
O66 Cd58 2.277 . S
O66 C61 1.209 1_655 S
C67 O64 1.258 . S
C67 O69 1.282 . S
O68 Cd60 2.277 . S
O68 C61 1.226 . S
O69 Cd60 2.356 . S
O69 C67 1.282 . S
C70 O71 1.306 1_545 S
C70 O73 1.160 . S
O71 C70 1.306 1_565 S
O71 Cd72 2.228 . S
Cd72 O71 2.228 . S
Cd72 O76 2.273 . S
Cd72 O80 2.277 . S
O73 C70 1.160 . S
O73 Cd74 2.203 . S
Cd74 O73 2.203 . S
Cd74 O76 2.411 1_545 S
Cd74 O77 2.333 1_545 S
Cd74 O78 2.352 . S
Cd74 O82 2.277 . S
Cd74 O83 2.356 . S
C75 O80 1.209 1_545 S
C75 O82 1.226 . S
O76 Cd72 2.273 . S
O76 Cd74 2.411 1_565 S
O76 C79 1.320 . S
O77 Cd74 2.333 1_565 S
O77 C79 1.214 . S
O78 Cd74 2.352 . S
O78 C81 1.258 . S
C79 O76 1.320 . S
C79 O77 1.214 . S
O80 Cd72 2.277 . S
O80 C75 1.209 1_565 S
C81 O78 1.258 . S
C81 O83 1.282 . S
O82 Cd74 2.277 . S
O82 C75 1.226 . S
O83 Cd74 2.356 . S
O83 C81 1.282 . S
C84 O85 1.306 . S
C84 O87 1.160 . S
O85 C84 1.306 . S
O85 Cd86 2.228 . S
Cd86 O85 2.228 . S
Cd86 O90 2.273 . S
Cd86 O94 2.277 . S
O87 C84 1.160 . S
O87 Cd88 2.203 . S
Cd88 O87 2.203 . S
Cd88 O90 2.411 . S
Cd88 O91 2.333 . S
Cd88 O92 2.352 . S
Cd88 O96 2.277 . S
Cd88 O97 2.356 . S
C89 O94 1.209 . S
C89 O96 1.226 . S
O90 Cd86 2.273 . S
O90 Cd88 2.411 . S
O90 C93 1.320 . S
O91 Cd88 2.333 . S
O91 C93 1.214 . S
O92 Cd88 2.352 . S
O92 C95 1.258 . S
C93 O90 1.320 . S
C93 O91 1.214 . S
O94 Cd86 2.277 . S
O94 C89 1.209 . S
C95 O92 1.258 . S
C95 O97 1.282 . S
O96 Cd88 2.277 . S
O96 C89 1.226 . S
O97 Cd88 2.356 . S
O97 C95 1.282 . S
C98 O99 1.306 1_655 S
C98 O101 1.160 . S
O99 C98 1.306 1_455 S
O99 Cd100 2.228 . S
Cd100 O99 2.228 . S
Cd100 O104 2.273 . S
Cd100 O108 2.277 . S
O101 C98 1.160 . S
O101 Cd102 2.203 . S
Cd102 O101 2.203 . S
Cd102 O104 2.411 1_655 S
Cd102 O105 2.333 1_655 S
Cd102 O106 2.352 . S
Cd102 O110 2.277 . S
Cd102 O111 2.356 . S
C103 O108 1.209 1_655 S
C103 O110 1.226 . S
O104 Cd100 2.273 . S
O104 Cd102 2.411 1_455 S
O104 C107 1.320 . S
O105 Cd102 2.333 1_455 S
O105 C107 1.214 . S
O106 Cd102 2.352 . S
O106 C109 1.258 . S
C107 O104 1.320 . S
C107 O105 1.214 . S
O108 Cd100 2.277 . S
O108 C103 1.209 1_455 S
C109 O106 1.258 . S
C109 O111 1.282 . S
O110 Cd102 2.277 . S
O110 C103 1.226 . S
O111 Cd102 2.356 . S
O111 C109 1.282 . S
C112 O113 1.306 1_565 S
C112 O115 1.160 . S
O113 C112 1.306 1_545 S
O113 Cd114 2.228 . S
Cd114 O113 2.228 . S
Cd114 O118 2.273 . S
Cd114 O122 2.277 . S
O115 C112 1.160 . S
O115 Cd116 2.203 . S
Cd116 O115 2.203 . S
Cd116 O118 2.411 1_565 S
Cd116 O119 2.333 1_565 S
Cd116 O120 2.352 . S
Cd116 O124 2.277 . S
Cd116 O125 2.356 . S
C117 O122 1.209 1_565 S
C117 O124 1.226 . S
O118 Cd114 2.273 . S
O118 Cd116 2.411 1_545 S
O118 C121 1.320 . S
O119 Cd116 2.333 1_545 S
O119 C121 1.214 . S
O120 Cd116 2.352 . S
O120 C123 1.258 . S
C121 O118 1.320 . S
C121 O119 1.214 . S
O122 Cd114 2.277 . S
O122 C117 1.209 1_545 S
C123 O120 1.258 . S
C123 O125 1.282 . S
O124 Cd116 2.277 . S
O124 C117 1.226 . S
O125 Cd116 2.356 . S
O125 C123 1.282 . S
C126 O127 1.306 . S
C126 O129 1.160 . S
O127 C126 1.306 . S
O127 Cd128 2.228 . S
Cd128 O127 2.228 . S
Cd128 O132 2.273 . S
Cd128 O136 2.277 . S
O129 C126 1.160 . S
O129 Cd130 2.203 . S
Cd130 O129 2.203 . S
Cd130 O132 2.411 . S
Cd130 O133 2.333 . S
Cd130 O134 2.352 . S
Cd130 O138 2.277 . S
Cd130 O139 2.356 . S
C131 O136 1.209 . S
C131 O138 1.226 . S
O132 Cd128 2.273 . S
O132 Cd130 2.411 . S
O132 C135 1.320 . S
O133 Cd130 2.333 . S
O133 C135 1.214 . S
O134 Cd130 2.352 . S
O134 C137 1.258 . S
C135 O132 1.320 . S
C135 O133 1.214 . S
O136 Cd128 2.277 . S
O136 C131 1.209 . S
C137 O134 1.258 . S
C137 O139 1.282 . S
O138 Cd130 2.277 . S
O138 C131 1.226 . S
O139 Cd130 2.356 . S
O139 C137 1.282 . S
C140 O141 1.306 1_455 S
C140 O143 1.160 . S
O141 C140 1.306 1_655 S
O141 Cd142 2.228 . S
Cd142 O141 2.228 . S
Cd142 O146 2.273 . S
Cd142 O150 2.277 . S
O143 C140 1.160 . S
O143 Cd144 2.203 . S
Cd144 O143 2.203 . S
Cd144 O146 2.411 1_455 S
Cd144 O147 2.333 1_455 S
Cd144 O148 2.352 . S
Cd144 O152 2.277 . S
Cd144 O153 2.356 . S
C145 O150 1.209 1_455 S
C145 O152 1.226 . S
O146 Cd142 2.273 . S
O146 Cd144 2.411 1_655 S
O146 C149 1.320 . S
O147 Cd144 2.333 1_655 S
O147 C149 1.214 . S
O148 Cd144 2.352 . S
O148 C151 1.258 . S
C149 O146 1.320 . S
C149 O147 1.214 . S
O150 Cd142 2.277 . S
O150 C145 1.209 1_655 S
C151 O148 1.258 . S
C151 O153 1.282 . S
O152 Cd144 2.277 . S
O152 C145 1.226 . S
O153 Cd144 2.356 . S
O153 C151 1.282 . S
C154 O155 1.306 1_545 S
C154 O157 1.160 . S
O155 C154 1.306 1_565 S
O155 Cd156 2.228 . S
Cd156 O155 2.228 . S
Cd156 O160 2.273 . S
Cd156 O164 2.277 . S
O157 C154 1.160 . S
O157 Cd158 2.203 . S
Cd158 O157 2.203 . S
Cd158 O160 2.411 1_545 S
Cd158 O161 2.333 1_545 S
Cd158 O162 2.352 . S
Cd158 O166 2.277 . S
Cd158 O167 2.356 . S
C159 O164 1.209 1_545 S
C159 O166 1.226 . S
O160 Cd156 2.273 . S
O160 Cd158 2.411 1_565 S
O160 C163 1.320 . S
O161 Cd158 2.333 1_565 S
O161 C163 1.214 . S
O162 Cd158 2.352 . S
O162 C165 1.258 . S
C163 O160 1.320 . S
C163 O161 1.214 . S
O164 Cd156 2.277 . S
O164 C159 1.209 1_565 S
C165 O162 1.258 . S
C165 O167 1.282 . S
O166 Cd158 2.277 . S
O166 C159 1.226 . S
O167 Cd158 2.356 . S
O167 C165 1.282 . S
C165 C11 1.729 1_655 S
C25 C95 1.729 1_545 S
C39 C109 1.729 . S
C53 C123 1.729 1_655 S
C137 C67 1.729 1_545 S
C81 C151 1.729 . S
C47 C5 1.312 . S
C61 C19 1.312 1_455 S
C75 C33 1.312 1_545 S
C89 C131 1.312 . S
C103 C145 1.312 1_655 S
C117 C159 1.312 1_565 S
C121 C9 1.143 . S
C23 C135 1.143 . S
C149 C37 1.144 . S
C163 C51 1.143 . S
C93 C65 1.143 . S
C79 C107 1.144 . S
C126 C0 1.765 . S
C14 C140 1.765 1_655 S
C154 C28 1.765 1_544 S
C42 C84 1.765 . S
C56 C98 1.765 1_455 S
C112 C70 1.765 1_564 S
