# Generated by pormake.
# Topology wlj, (5)-cn, num edge types: 1
# Building blocks:
#     Node 0, Type 0, BuildingBlock: XOMCOT_clean_sbu_1, # of connection points: 5
#     Node 1, Type 0, BuildingBlock: XOMCOT_clean_sbu_1, # of connection points: 5
#     Node 2, Type 0, BuildingBlock: XOMCOT_clean_sbu_1, # of connection points: 5
#     Node 3, Type 0, BuildingBlock: XOMCOT_clean_sbu_1, # of connection points: 5
#     Node 4, Type 0, BuildingBlock: XOMCOT_clean_sbu_1, # of connection points: 5
#     Node 5, Type 0, BuildingBlock: XOMCOT_clean_sbu_1, # of connection points: 5
#     Edge 6, Type (0, 0), BuildingBlock: EYOCIG_clean_linker_4, # of connection points: 2
#     Edge 7, Type (0, 0), BuildingBlock: EYOCIG_clean_linker_4, # of connection points: 2
#     Edge 8, Type (0, 0), BuildingBlock: EYOCIG_clean_linker_4, # of connection points: 2
#     Edge 9, Type (0, 0), BuildingBlock: EYOCIG_clean_linker_4, # of connection points: 2
#     Edge 10, Type (0, 0), BuildingBlock: EYOCIG_clean_linker_4, # of connection points: 2
#     Edge 11, Type (0, 0), BuildingBlock: EYOCIG_clean_linker_4, # of connection points: 2
#     Edge 12, Type (0, 0), BuildingBlock: EYOCIG_clean_linker_4, # of connection points: 2
#     Edge 13, Type (0, 0), BuildingBlock: EYOCIG_clean_linker_4, # of connection points: 2
#     Edge 14, Type (0, 0), BuildingBlock: EYOCIG_clean_linker_4, # of connection points: 2
#     Edge 15, Type (0, 0), BuildingBlock: EYOCIG_clean_linker_4, # of connection points: 2
#     Edge 16, Type (0, 0), BuildingBlock: EYOCIG_clean_linker_4, # of connection points: 2
#     Edge 17, Type (0, 0), BuildingBlock: EYOCIG_clean_linker_4, # of connection points: 2
#     Edge 18, Type (0, 0), BuildingBlock: EYOCIG_clean_linker_4, # of connection points: 2
#     Edge 19, Type (0, 0), BuildingBlock: EYOCIG_clean_linker_4, # of connection points: 2
#     Edge 20, Type (0, 0), BuildingBlock: EYOCIG_clean_linker_4, # of connection points: 2
# Relax obj value: 0.137
# Max RMSD: 0.179
# Mean RMSD: 0.179
data_MOF--net-wlj--node1-XOMCOT_clean_sbu_1--edge1-EYOCIG_clean_linker_4
_symmetry_space_group_name_H-M    P1
_symmetry_Int_Tables_number       1
_symmetry_cell_setting            triclinic
loop_
_symmetry_equiv_pos_as_xyz
'x, y, z'
_cell_length_a     21.533204
_cell_length_b     21.536105
_cell_length_c     37.233649
_cell_angle_alpha  90.018194
_cell_angle_beta   89.993599
_cell_angle_gamma 120.00208
loop_
_atom_site_label
_atom_site_type_symbol
_atom_site_fract_x
_atom_site_fract_y
_atom_site_fract_z
_atom_type_partial_charge
C0 C 0.6102 0.27293 0.42998 0.0
C1 C 0.62376 0.22469 0.44763 0.0
N2 N 0.57485 0.15853 0.43681 0.0
N3 N 0.55277 0.23705 0.4083 0.0
C4 C 0.53213 0.16699 0.41326 0.0
H5 H 0.64186 0.3307 0.4318 0.0
Co6 Co 0.52121 0.28115 0.37537 0.0
C7 C 0.44788 0.16507 0.32081 0.0
O8 O 0.48302 0.21049 0.29486 0.0
N9 N 0.48862 0.3268 0.34313 0.0
C10 C 0.41353 0.34899 0.31164 0.0
C11 C 0.42495 0.29657 0.32555 0.0
C12 C 0.51282 0.39816 0.34084 0.0
N13 N 0.46869 0.41237 0.32152 0.0
O14 O 0.44919 0.27382 0.40815 0.0
H15 H 0.38513 0.24037 0.32569 0.0
H16 H 0.55767 0.43874 0.35591 0.0
O17 O 0.4562 0.18629 0.35352 0.0
C18 C 0.47786 0.33306 0.42542 0.0
O19 O 0.54706 0.37703 0.42214 0.0
N20 N 0.59788 0.2974 0.34525 0.0
C21 C 0.72897 0.34149 0.31207 0.0
C22 C 0.67942 0.26838 0.3156 0.0
C23 C 0.61414 0.24721 0.33304 0.0
C24 C 0.64748 0.36843 0.34298 0.0
C25 C 0.71261 0.39174 0.32579 0.0
H26 H 0.57842 0.19085 0.33801 0.0
H27 H 0.63894 0.40741 0.35669 0.0
H28 H 0.48836 0.12299 0.39911 0.0
H29 H 0.66713 0.23722 0.46622 0.0
H30 H 0.36575 0.34116 0.29796 0.0
H31 H 0.69208 0.22833 0.30628 0.0
H32 H 0.7512 0.44865 0.32469 0.0
C33 C 0.71076 0.33405 1.09681 0.0
C34 C 0.75903 0.39596 1.1144 0.0
N35 N 0.82516 0.41336 1.10345 0.0
N36 N 0.74659 0.31258 1.07504 0.0
C37 C 0.81666 0.36217 1.07989 0.0
H38 H 0.65299 0.30779 1.09875 0.0
Co39 Co 0.70241 0.23679 1.04219 0.0
C40 C 0.81819 0.2791 0.98751 0.0
O41 O 0.77255 0.26839 0.9616 0.0
N42 N 0.65668 0.15842 1.01001 0.0
C43 C 0.63447 0.06085 0.97876 0.0
C44 C 0.6869 0.1247 0.99269 0.0
C45 C 0.58529 0.11142 1.00757 0.0
N46 N 0.57108 0.05291 0.98839 0.0
O47 O 0.70993 0.17229 1.07499 0.0
H48 H 0.74308 0.14095 0.99301 0.0
H49 H 0.54464 0.11591 1.02245 0.0
O50 O 0.7972 0.26661 1.02026 0.0
C51 C 0.65068 0.14165 1.09225 0.0
O52 O 0.60659 0.16672 1.08892 0.0
N53 N 0.68599 0.29702 1.01206 0.0
C54 C 0.64167 0.38373 0.9788 0.0
C55 C 0.7148 0.40722 0.98212 0.0
C56 C 0.73611 0.36328 0.99961 0.0
C57 C 0.61495 0.27571 1.01003 0.0
C58 C 0.59151 0.31736 0.9928 0.0
H59 H 0.79252 0.38392 1.00443 0.0
H60 H 0.57613 0.22842 1.02395 0.0
H61 H 0.86062 0.36249 1.06565 0.0
H62 H 0.74654 0.42676 0.13304 0.0
H63 H 0.64228 0.02073 0.96525 0.0
H64 H 0.7548 0.45976 0.9726 0.0
H65 H 0.5346 0.29913 0.99188 0.0
C66 C 0.64958 0.37368 0.76341 0.0
C67 C 0.58775 0.36013 0.78106 0.0
N68 N 0.57033 0.40882 0.77011 0.0
N69 N 0.67097 0.43088 0.7416 0.0
C70 C 0.62142 0.4514 0.74648 0.0
H71 H 0.6758 0.34214 0.76532 0.0
Co72 Co 0.74652 0.46223 0.70862 0.0
C73 C 0.7038 0.53553 0.65405 0.0
O74 O 0.714 0.5003 0.62811 0.0
N75 N 0.82466 0.4946 0.67631 0.0
C76 C 0.92193 0.56949 0.64475 0.0
C77 C 0.85817 0.55823 0.65872 0.0
C78 C 0.8717 0.47025 0.67397 0.0
N79 N 0.93003 0.51426 0.65461 0.0
O80 O 0.81137 0.53432 0.74134 0.0
H81 H 0.8419 0.59814 0.65889 0.0
H82 H 0.86737 0.42538 0.68902 0.0
O83 O 0.71673 0.52726 0.68676 0.0
C84 C 0.84198 0.50567 0.75858 0.0
O85 O 0.81674 0.43647 0.7553 0.0
N86 N 0.68596 0.3855 0.67858 0.0
C87 C 0.59875 0.25431 0.64553 0.0
C88 C 0.57532 0.30397 0.64897 0.0
C89 C 0.61953 0.36931 0.66635 0.0
C90 C 0.70724 0.33578 0.6764 0.0
C91 C 0.66533 0.2706 0.65927 0.0
H92 H 0.59897 0.40512 0.67126 0.0
H93 H 0.75474 0.34431 0.69013 0.0
H94 H 0.62103 0.49496 0.73222 0.0
H95 H 0.55701 0.31691 0.79973 0.0
H96 H 0.96192 0.61721 0.63106 0.0
H97 H 0.52264 0.29138 0.63964 0.0
H98 H 0.68356 0.23193 0.65824 0.0
C99 C 0.26968 0.61399 0.82672 0.0
C100 C 0.22152 0.62767 0.80904 0.0
N101 N 0.15529 0.57856 0.81966 0.0
N102 N 0.23368 0.55631 0.84821 0.0
C103 C 0.16362 0.53562 0.84311 0.0
H104 H 0.32747 0.64575 0.82505 0.0
Co105 Co 0.27758 0.52453 0.88114 0.0
C106 C 0.16121 0.45119 0.93553 0.0
O107 O 0.20651 0.48635 0.96152 0.0
N108 N 0.32304 0.49172 0.91338 0.0
C109 C 0.34504 0.4166 0.94495 0.0
C110 C 0.2927 0.42815 0.93104 0.0
C111 C 0.39437 0.51569 0.91561 0.0
N112 N 0.40847 0.47155 0.93498 0.0
O113 O 0.27034 0.45268 0.84827 0.0
H114 H 0.23645 0.38846 0.93097 0.0
H115 H 0.43498 0.5604 0.90049 0.0
O116 O 0.18258 0.45947 0.90285 0.0
C117 C 0.3296 0.48144 0.83102 0.0
O118 O 0.37355 0.55063 0.83438 0.0
N119 N 0.29374 0.60106 0.91136 0.0
C120 C 0.33768 0.73206 0.94463 0.0
C121 C 0.26458 0.68266 0.94085 0.0
C122 C 0.2435 0.61742 0.92338 0.0
C123 C 0.3648 0.65049 0.91392 0.0
C124 C 0.38801 0.71556 0.93115 0.0
H125 H 0.18717 0.58183 0.91822 0.0
H126 H 0.40391 0.6419 0.9004 0.0
H127 H 0.11954 0.49166 0.85711 0.0
H128 H 0.23415 0.67125 0.79059 0.0
H129 H 0.33711 0.36886 0.9587 0.0
H130 H 0.22449 0.69542 0.94998 0.0
H131 H 0.44495 0.75403 0.93246 0.0
C132 C 0.36986 0.65284 0.4931 0.0
C133 C 0.35624 0.59101 0.47542 0.0
N134 N 0.40506 0.57366 0.48627 0.0
N135 N 0.42722 0.67428 0.51482 0.0
C136 C 0.44777 0.62478 0.50985 0.0
H137 H 0.33825 0.679 0.49128 0.0
Co138 Co 0.45873 0.74981 0.54783 0.0
C139 C 0.53218 0.70698 0.60225 0.0
O140 O 0.49697 0.71708 0.62824 0.0
N141 N 0.49125 0.82793 0.58017 0.0
C142 C 0.56621 0.92512 0.61177 0.0
C143 C 0.55488 0.86135 0.59778 0.0
C144 C 0.46698 0.87504 0.58253 0.0
N145 N 0.51103 0.93331 0.60191 0.0
O146 O 0.53068 0.81467 0.51507 0.0
H147 H 0.59475 0.84503 0.59761 0.0
H148 H 0.42214 0.87078 0.56746 0.0
O149 O 0.52386 0.72001 0.56957 0.0
C150 C 0.50195 0.84524 0.49786 0.0
O151 O 0.43275 0.82 0.50121 0.0
N152 N 0.38211 0.68924 0.57793 0.0
C153 C 0.251 0.60195 0.61103 0.0
C154 C 0.30061 0.57849 0.60743 0.0
C155 C 0.36591 0.62274 0.59003 0.0
C156 C 0.33245 0.71058 0.58028 0.0
C157 C 0.26731 0.66862 0.59743 0.0
H158 H 0.40168 0.60218 0.585 0.0
H159 H 0.34095 0.75815 0.56666 0.0
H160 H 0.49145 0.62444 0.52403 0.0
H161 H 0.31289 0.56022 0.45682 0.0
H162 H 0.61396 0.96505 0.62549 0.0
H163 H 0.288 0.52575 0.61665 0.0
H164 H 0.22868 0.68688 0.59859 0.0
C165 C 0.33096 0.71398 0.15985 0.0
C166 C 0.39288 0.76218 0.14224 0.0
N167 N 0.41025 0.82834 0.1531 0.0
N168 N 0.30947 0.74991 0.18153 0.0
C169 C 0.35905 0.81995 0.17663 0.0
H170 H 0.30473 0.65621 0.15799 0.0
Co171 Co 0.23372 0.7059 0.21441 0.0
C172 C 0.27618 0.82199 0.26893 0.0
O173 O 0.26563 0.77653 0.29491 0.0
N174 N 0.15539 0.66033 0.24662 0.0
C175 C 0.0579 0.63826 0.2779 0.0
C176 C 0.12175 0.69062 0.26395 0.0
C177 C 0.10833 0.58896 0.24907 0.0
N178 N 0.04987 0.57484 0.26827 0.0
O179 O 0.16915 0.7132 0.18155 0.0
H180 H 0.13804 0.7468 0.26362 0.0
H181 H 0.11276 0.54828 0.23419 0.0
O182 O 0.26355 0.80079 0.23621 0.0
C183 C 0.13853 0.65389 0.16435 0.0
O184 O 0.16363 0.60984 0.16776 0.0
N185 N 0.29403 0.68967 0.2446 0.0
C186 C 0.38095 0.64558 0.27785 0.0
C187 C 0.40443 0.71868 0.27442 0.0
C188 C 0.36038 0.73986 0.25694 0.0
C189 C 0.2727 0.61865 0.24677 0.0
C190 C 0.31446 0.59533 0.26399 0.0
H191 H 0.381 0.79624 0.25204 0.0
H192 H 0.22531 0.57972 0.23295 0.0
H193 H 0.35935 0.86396 0.19079 0.0
H194 H 0.42371 0.74961 1.12366 0.0
H195 H 0.01782 0.64613 0.29142 0.0
H196 H 0.45705 0.75874 0.28384 0.0
H197 H 0.29621 0.53844 0.26501 0.0
C198 C 0.36879 0.02911 0.30156 0.0
C199 C 0.40391 0.09026 0.31202 0.0
C200 C 0.33319 0.95797 0.28816 0.0
C201 C 0.30712 0.89681 0.27772 0.0
C202 C 0.02522 0.37192 0.95469 0.0
C203 C 0.08637 0.4071 0.94425 0.0
C204 C 0.95411 0.33625 0.96813 0.0
C205 C 0.89298 0.31013 0.97863 0.0
C206 C 0.61135 0.65015 0.6214 0.0
C207 C 0.5762 0.67616 0.61097 0.0
C208 C 0.64693 0.6146 0.6348 0.0
C209 C 0.67295 0.57949 0.64526 0.0
C210 C 0.45115 0.58498 0.30336 0.0
C211 C 0.42556 0.62008 0.29278 0.0
C212 C 0.46809 0.53164 0.31225 0.0
C213 C 0.4719 0.47853 0.31753 0.0
C214 C 0.39827 0.86293 0.97007 0.0
C215 C 0.36315 0.80223 0.95948 0.0
C216 C 0.45166 0.93319 0.979 0.0
C217 C 0.50484 0.99006 0.98432 0.0
C218 C 0.0498 0.51462 0.64528 0.0
C219 C -0.00709 0.51092 0.65058 0.0
C220 C 0.12008 0.53152 0.6364 0.0
C221 C 0.18082 0.55717 0.62586 0.0
C222 C 0.58095 0.45376 0.95322 0.0
C223 C 0.61607 0.42821 0.96382 0.0
C224 C 0.52764 0.47072 0.94429 0.0
C225 C 0.47457 0.47462 0.939 0.0
C226 C 0.52841 0.12339 0.62015 0.0
C227 C 0.55404 0.18414 0.63068 0.0
C228 C 0.51151 0.05312 0.61127 0.0
C229 C 0.50777 -0.00378 0.60596 0.0
C230 C 0.93009 0.4555 0.27768 0.0
C231 C 0.98699 0.50864 0.27236 0.0
C232 C 0.85983 0.40213 0.28661 0.0
C233 C 0.79912 0.367 0.29718 0.0
C234 C 0.561 0.97312 0.46884 0.0
C235 C 0.54342 0.91556 0.48234 0.0
C236 C 0.56914 0.03891 0.4561 0.0
C237 C 0.57141 0.09398 0.44704 0.0
C238 C 0.94482 0.52744 1.1226 0.0
C239 C 0.88972 0.47456 1.11361 0.0
C240 C 0.01064 0.58513 0.1353 0.0
C241 C 0.06822 0.62511 0.1488 0.0
C242 C 0.39853 0.42245 0.802 0.0
C243 C 0.35849 0.43999 0.81549 0.0
C244 C 0.45625 0.41438 0.78929 0.0
C245 C 0.50913 0.41218 0.78028 0.0
C246 C 0.03572 0.57294 0.80031 0.0
C247 C 0.09078 0.57518 0.80939 0.0
C248 C 0.96993 0.56481 0.78756 0.0
C249 C 0.91234 0.54721 0.77408 0.0
C250 C 0.4187 0.4019 0.45434 0.0
C251 C 0.43631 0.3619 0.44088 0.0
C252 C 0.41058 0.4596 0.46703 0.0
C253 C 0.40838 0.51247 0.47606 0.0
C254 C 0.58203 0.01374 1.12123 0.0
C255 C 0.62198 0.07133 1.10775 0.0
C256 C 0.52435 0.94792 0.13392 0.0
C257 C 0.47146 0.89286 0.14292 0.0
loop_
_geom_bond_atom_site_label_1
_geom_bond_atom_site_label_2
_geom_bond_distance
_geom_bond_site_symmetry_2
_ccdc_geom_bond_type
C0 C1 1.351 . S
C0 N3 1.368 . S
C0 H5 0.931 . S
C1 C0 1.351 . S
C1 N2 1.373 . S
C1 H29 0.930 . S
N2 C1 1.373 . S
N2 C4 1.340 . S
N3 C0 1.368 . S
N3 C4 1.321 . S
N3 Co6 2.135 . S
C4 N2 1.340 . S
C4 N3 1.321 . S
C4 H28 0.930 . S
H5 C0 0.931 . S
Co6 N3 2.135 . S
Co6 N9 2.121 . S
Co6 O14 2.055 . S
Co6 O17 2.039 . S
Co6 N20 2.140 . S
C7 O8 1.227 . S
C7 O17 1.265 . S
O8 C7 1.227 . S
N9 Co6 2.121 . S
N9 C11 1.375 . S
N9 C12 1.313 . S
C10 C11 1.338 . S
C10 N13 1.377 . S
C10 H30 0.930 . S
C11 N9 1.375 . S
C11 C10 1.338 . S
C11 H15 0.931 . S
C12 N9 1.313 . S
C12 N13 1.344 . S
C12 H16 0.930 . S
N13 C10 1.377 . S
N13 C12 1.344 . S
O14 Co6 2.055 . S
O14 C18 1.253 . S
H15 C11 0.931 . S
H16 C12 0.930 . S
O17 Co6 2.039 . S
O17 C7 1.265 . S
C18 O14 1.253 . S
C18 O19 1.227 . S
O19 C18 1.227 . S
N20 Co6 2.140 . S
N20 C23 1.346 . S
N20 C24 1.345 . S
C21 C22 1.387 . S
C21 C25 1.391 . S
C22 C21 1.387 . S
C22 C23 1.369 . S
C22 H31 0.929 . S
C23 N20 1.346 . S
C23 C22 1.369 . S
C23 H26 0.928 . S
C24 N20 1.345 . S
C24 C25 1.371 . S
C24 H27 0.931 . S
C25 C21 1.391 . S
C25 C24 1.371 . S
C25 H32 0.930 . S
H26 C23 0.928 . S
H27 C24 0.931 . S
H28 C4 0.930 . S
H29 C1 0.930 . S
H30 C10 0.930 . S
H31 C22 0.929 . S
H32 C25 0.930 . S
C33 C34 1.351 . S
C33 N36 1.368 . S
C33 H38 0.931 . S
C34 C33 1.351 . S
C34 N35 1.373 . S
C34 H62 0.930 . S
N35 C34 1.373 . S
N35 C37 1.340 . S
N36 C33 1.368 . S
N36 C37 1.321 . S
N36 Co39 2.135 . S
C37 N35 1.340 . S
C37 N36 1.321 . S
C37 H61 0.930 . S
H38 C33 0.931 . S
Co39 N36 2.135 . S
Co39 N42 2.121 . S
Co39 O47 2.055 . S
Co39 O50 2.039 . S
Co39 N53 2.140 . S
C40 O41 1.227 . S
C40 O50 1.265 . S
O41 C40 1.227 . S
N42 Co39 2.121 . S
N42 C44 1.375 . S
N42 C45 1.313 . S
C43 C44 1.338 . S
C43 N46 1.377 . S
C43 H63 0.930 . S
C44 N42 1.375 . S
C44 C43 1.338 . S
C44 H48 0.931 . S
C45 N42 1.313 . S
C45 N46 1.344 . S
C45 H49 0.930 . S
N46 C43 1.377 . S
N46 C45 1.344 . S
O47 Co39 2.055 . S
O47 C51 1.253 . S
H48 C44 0.931 . S
H49 C45 0.930 . S
O50 Co39 2.039 . S
O50 C40 1.265 . S
C51 O47 1.253 . S
C51 O52 1.227 . S
O52 C51 1.227 . S
N53 Co39 2.140 . S
N53 C56 1.346 . S
N53 C57 1.345 . S
C54 C55 1.387 . S
C54 C58 1.391 . S
C55 C54 1.387 . S
C55 C56 1.369 . S
C55 H64 0.929 . S
C56 N53 1.346 . S
C56 C55 1.369 . S
C56 H59 0.928 . S
C57 N53 1.345 . S
C57 C58 1.371 . S
C57 H60 0.931 . S
C58 C54 1.391 . S
C58 C57 1.371 . S
C58 H65 0.930 . S
H59 C56 0.928 . S
H60 C57 0.931 . S
H61 C37 0.930 . S
H62 C34 0.930 . S
H63 C43 0.930 . S
H64 C55 0.929 . S
H65 C58 0.930 . S
C66 C67 1.351 . S
C66 N69 1.368 . S
C66 H71 0.931 . S
C67 C66 1.351 . S
C67 N68 1.373 . S
C67 H95 0.930 . S
N68 C67 1.373 . S
N68 C70 1.340 . S
N69 C66 1.368 . S
N69 C70 1.321 . S
N69 Co72 2.135 . S
C70 N68 1.340 . S
C70 N69 1.321 . S
C70 H94 0.930 . S
H71 C66 0.931 . S
Co72 N69 2.135 . S
Co72 N75 2.121 . S
Co72 O80 2.055 . S
Co72 O83 2.039 . S
Co72 N86 2.140 . S
C73 O74 1.227 . S
C73 O83 1.265 . S
O74 C73 1.227 . S
N75 Co72 2.121 . S
N75 C77 1.375 . S
N75 C78 1.313 . S
C76 C77 1.338 . S
C76 N79 1.377 . S
C76 H96 0.930 . S
C77 N75 1.375 . S
C77 C76 1.338 . S
C77 H81 0.931 . S
C78 N75 1.313 . S
C78 N79 1.344 . S
C78 H82 0.930 . S
N79 C76 1.377 . S
N79 C78 1.344 . S
O80 Co72 2.055 . S
O80 C84 1.253 . S
H81 C77 0.931 . S
H82 C78 0.930 . S
O83 Co72 2.039 . S
O83 C73 1.265 . S
C84 O80 1.253 . S
C84 O85 1.227 . S
O85 C84 1.227 . S
N86 Co72 2.140 . S
N86 C89 1.346 . S
N86 C90 1.345 . S
C87 C88 1.387 . S
C87 C91 1.391 . S
C88 C87 1.387 . S
C88 C89 1.369 . S
C88 H97 0.929 . S
C89 N86 1.346 . S
C89 C88 1.369 . S
C89 H92 0.928 . S
C90 N86 1.345 . S
C90 C91 1.371 . S
C90 H93 0.931 . S
C91 C87 1.391 . S
C91 C90 1.371 . S
C91 H98 0.930 . S
H92 C89 0.928 . S
H93 C90 0.931 . S
H94 C70 0.930 . S
H95 C67 0.930 . S
H96 C76 0.930 . S
H97 C88 0.929 . S
H98 C91 0.930 . S
C99 C100 1.351 . S
C99 N102 1.368 . S
C99 H104 0.931 . S
C100 C99 1.351 . S
C100 N101 1.373 . S
C100 H128 0.930 . S
N101 C100 1.373 . S
N101 C103 1.340 . S
N102 C99 1.368 . S
N102 C103 1.321 . S
N102 Co105 2.135 . S
C103 N101 1.340 . S
C103 N102 1.321 . S
C103 H127 0.930 . S
H104 C99 0.931 . S
Co105 N102 2.135 . S
Co105 N108 2.121 . S
Co105 O113 2.055 . S
Co105 O116 2.039 . S
Co105 N119 2.140 . S
C106 O107 1.227 . S
C106 O116 1.265 . S
O107 C106 1.227 . S
N108 Co105 2.121 . S
N108 C110 1.375 . S
N108 C111 1.313 . S
C109 C110 1.338 . S
C109 N112 1.377 . S
C109 H129 0.930 . S
C110 N108 1.375 . S
C110 C109 1.338 . S
C110 H114 0.931 . S
C111 N108 1.313 . S
C111 N112 1.344 . S
C111 H115 0.930 . S
N112 C109 1.377 . S
N112 C111 1.344 . S
O113 Co105 2.055 . S
O113 C117 1.253 . S
H114 C110 0.931 . S
H115 C111 0.930 . S
O116 Co105 2.039 . S
O116 C106 1.265 . S
C117 O113 1.253 . S
C117 O118 1.227 . S
O118 C117 1.227 . S
N119 Co105 2.140 . S
N119 C122 1.346 . S
N119 C123 1.345 . S
C120 C121 1.387 . S
C120 C124 1.391 . S
C121 C120 1.387 . S
C121 C122 1.369 . S
C121 H130 0.929 . S
C122 N119 1.346 . S
C122 C121 1.369 . S
C122 H125 0.928 . S
C123 N119 1.345 . S
C123 C124 1.371 . S
C123 H126 0.931 . S
C124 C120 1.391 . S
C124 C123 1.371 . S
C124 H131 0.930 . S
H125 C122 0.928 . S
H126 C123 0.931 . S
H127 C103 0.930 . S
H128 C100 0.930 . S
H129 C109 0.930 . S
H130 C121 0.929 . S
H131 C124 0.930 . S
C132 C133 1.351 . S
C132 N135 1.368 . S
C132 H137 0.931 . S
C133 C132 1.351 . S
C133 N134 1.373 . S
C133 H161 0.930 . S
N134 C133 1.373 . S
N134 C136 1.340 . S
N135 C132 1.368 . S
N135 C136 1.321 . S
N135 Co138 2.135 . S
C136 N134 1.340 . S
C136 N135 1.321 . S
C136 H160 0.930 . S
H137 C132 0.931 . S
Co138 N135 2.135 . S
Co138 N141 2.121 . S
Co138 O146 2.055 . S
Co138 O149 2.039 . S
Co138 N152 2.140 . S
C139 O140 1.227 . S
C139 O149 1.265 . S
O140 C139 1.227 . S
N141 Co138 2.121 . S
N141 C143 1.375 . S
N141 C144 1.313 . S
C142 C143 1.338 . S
C142 N145 1.377 . S
C142 H162 0.930 . S
C143 N141 1.375 . S
C143 C142 1.338 . S
C143 H147 0.931 . S
C144 N141 1.313 . S
C144 N145 1.344 . S
C144 H148 0.930 . S
N145 C142 1.377 . S
N145 C144 1.344 . S
O146 Co138 2.055 . S
O146 C150 1.253 . S
H147 C143 0.931 . S
H148 C144 0.930 . S
O149 Co138 2.039 . S
O149 C139 1.265 . S
C150 O146 1.253 . S
C150 O151 1.227 . S
O151 C150 1.227 . S
N152 Co138 2.140 . S
N152 C155 1.346 . S
N152 C156 1.345 . S
C153 C154 1.387 . S
C153 C157 1.391 . S
C154 C153 1.387 . S
C154 C155 1.369 . S
C154 H163 0.929 . S
C155 N152 1.346 . S
C155 C154 1.369 . S
C155 H158 0.928 . S
C156 N152 1.345 . S
C156 C157 1.371 . S
C156 H159 0.931 . S
C157 C153 1.391 . S
C157 C156 1.371 . S
C157 H164 0.930 . S
H158 C155 0.928 . S
H159 C156 0.931 . S
H160 C136 0.930 . S
H161 C133 0.930 . S
H162 C142 0.930 . S
H163 C154 0.929 . S
H164 C157 0.930 . S
C165 C166 1.351 . S
C165 N168 1.368 . S
C165 H170 0.931 . S
C166 C165 1.351 . S
C166 N167 1.373 . S
C166 H194 0.930 . S
N167 C166 1.373 . S
N167 C169 1.340 . S
N168 C165 1.368 . S
N168 C169 1.321 . S
N168 Co171 2.135 . S
C169 N167 1.340 . S
C169 N168 1.321 . S
C169 H193 0.930 . S
H170 C165 0.931 . S
Co171 N168 2.135 . S
Co171 N174 2.121 . S
Co171 O179 2.055 . S
Co171 O182 2.039 . S
Co171 N185 2.140 . S
C172 O173 1.227 . S
C172 O182 1.265 . S
O173 C172 1.227 . S
N174 Co171 2.121 . S
N174 C176 1.375 . S
N174 C177 1.313 . S
C175 C176 1.338 . S
C175 N178 1.377 . S
C175 H195 0.930 . S
C176 N174 1.375 . S
C176 C175 1.338 . S
C176 H180 0.931 . S
C177 N174 1.313 . S
C177 N178 1.344 . S
C177 H181 0.930 . S
N178 C175 1.377 . S
N178 C177 1.344 . S
O179 Co171 2.055 . S
O179 C183 1.253 . S
H180 C176 0.931 . S
H181 C177 0.930 . S
O182 Co171 2.039 . S
O182 C172 1.265 . S
C183 O179 1.253 . S
C183 O184 1.227 . S
O184 C183 1.227 . S
N185 Co171 2.140 . S
N185 C188 1.346 . S
N185 C189 1.345 . S
C186 C187 1.387 . S
C186 C190 1.391 . S
C187 C186 1.387 . S
C187 C188 1.369 . S
C187 H196 0.929 . S
C188 N185 1.346 . S
C188 C187 1.369 . S
C188 H191 0.928 . S
C189 N185 1.345 . S
C189 C190 1.371 . S
C189 H192 0.931 . S
C190 C186 1.391 . S
C190 C189 1.371 . S
C190 H197 0.930 . S
H191 C188 0.928 . S
H192 C189 0.931 . S
H193 C169 0.930 . S
H194 C166 0.930 . S
H195 C175 0.930 . S
H196 C187 0.929 . S
H197 C190 0.930 . S
C198 C199 1.170 . S
C198 C200 1.380 1_545 S
C199 C198 1.170 . S
C200 C198 1.380 1_565 S
C200 C201 1.170 . S
C201 C200 1.170 . S
C202 C203 1.170 . S
C202 C204 1.380 1_455 S
C203 C202 1.170 . S
C204 C202 1.380 1_655 S
C204 C205 1.170 . S
C205 C204 1.170 . S
C206 C207 1.170 . S
C206 C208 1.380 . S
C207 C206 1.170 . S
C208 C206 1.380 . S
C208 C209 1.170 . S
C209 C208 1.170 . S
C210 C211 1.170 . S
C210 C212 1.380 . S
C211 C210 1.170 . S
C212 C210 1.380 . S
C212 C213 1.170 . S
C213 C212 1.170 . S
C214 C215 1.170 . S
C214 C216 1.380 . S
C215 C214 1.170 . S
C216 C214 1.380 . S
C216 C217 1.170 . S
C217 C216 1.170 . S
C218 C219 1.170 . S
C218 C220 1.380 . S
C219 C218 1.170 . S
C220 C218 1.380 . S
C220 C221 1.170 . S
C221 C220 1.170 . S
C222 C223 1.170 . S
C222 C224 1.380 . S
C223 C222 1.170 . S
C224 C222 1.380 . S
C224 C225 1.170 . S
C225 C224 1.170 . S
C226 C227 1.170 . S
C226 C228 1.380 . S
C227 C226 1.170 . S
C228 C226 1.380 . S
C228 C229 1.170 . S
C229 C228 1.170 . S
C230 C231 1.170 . S
C230 C232 1.380 . S
C231 C230 1.170 . S
C232 C230 1.380 . S
C232 C233 1.170 . S
C233 C232 1.170 . S
C234 C235 1.170 1_545 S
C234 C236 1.380 . S
C235 C234 1.170 1_565 S
C236 C234 1.380 . S
C236 C237 1.170 . S
C237 C236 1.170 . S
C238 C239 1.170 . S
C238 C240 1.380 1_556 S
C239 C238 1.170 . S
C240 C238 1.380 1_554 S
C240 C241 1.170 1_655 S
C241 C240 1.170 1_455 S
C242 C243 1.170 . S
C242 C244 1.380 . S
C243 C242 1.170 . S
C244 C242 1.380 . S
C244 C245 1.170 . S
C245 C244 1.170 . S
C246 C247 1.170 . S
C246 C248 1.380 1_455 S
C247 C246 1.170 . S
C248 C246 1.380 1_655 S
C248 C249 1.170 . S
C249 C248 1.170 . S
C250 C251 1.170 . S
C250 C252 1.380 . S
C251 C250 1.170 . S
C252 C250 1.380 . S
C252 C253 1.170 . S
C253 C252 1.170 . S
C254 C255 1.170 1_565 S
C254 C256 1.380 1_556 S
C255 C254 1.170 1_545 S
C256 C254 1.380 1_554 S
C256 C257 1.170 . S
C257 C256 1.170 . S
C199 C7 1.596 . S
C201 C172 1.607 . S
C203 C106 1.606 . S
C205 C40 1.599 . S
C207 C139 1.606 . S
C209 C73 1.592 . S
C211 C186 1.185 . S
C213 N13 1.190 . S
C215 C120 1.186 . S
C217 N46 1.190 1_565 S
C219 N79 1.179 1_455 S
C221 C153 1.193 . S
C223 C54 1.173 . S
C225 N112 1.177 . S
C227 C87 1.193 . S
C229 N145 1.172 1_545 S
C231 N178 1.192 1_655 S
C233 C21 1.183 . S
C235 C150 1.629 . S
C237 N2 1.580 . S
C239 N35 1.604 . S
C241 C183 1.647 . S
C243 C117 1.630 . S
C245 N68 1.600 . S
C247 N101 1.593 . S
C249 C84 1.628 . S
C251 C18 1.634 . S
C253 N134 1.579 . S
C255 C51 1.645 . S
C257 N167 1.596 . S
