# Generated by pormake.
# Topology umb, (4)-cn, num edge types: 1
# Building blocks:
#     Node 0, Type 0, BuildingBlock: NAWXER_clean_sbu_0, # of connection points: 4
#     Node 1, Type 0, BuildingBlock: NAWXER_clean_sbu_0, # of connection points: 4
#     Node 2, Type 0, BuildingBlock: NAWXER_clean_sbu_0, # of connection points: 4
#     Node 3, Type 0, BuildingBlock: NAWXER_clean_sbu_0, # of connection points: 4
#     Node 4, Type 0, BuildingBlock: NAWXER_clean_sbu_0, # of connection points: 4
#     Node 5, Type 0, BuildingBlock: NAWXER_clean_sbu_0, # of connection points: 4
#     Node 6, Type 0, BuildingBlock: NAWXER_clean_sbu_0, # of connection points: 4
#     Node 7, Type 0, BuildingBlock: NAWXER_clean_sbu_0, # of connection points: 4
#     Node 8, Type 0, BuildingBlock: NAWXER_clean_sbu_0, # of connection points: 4
#     Node 9, Type 0, BuildingBlock: NAWXER_clean_sbu_0, # of connection points: 4
#     Node 10, Type 0, BuildingBlock: NAWXER_clean_sbu_0, # of connection points: 4
#     Node 11, Type 0, BuildingBlock: NAWXER_clean_sbu_0, # of connection points: 4
#     Edge 12, Type (0, 0), None
#     Edge 13, Type (0, 0), None
#     Edge 14, Type (0, 0), None
#     Edge 15, Type (0, 0), None
#     Edge 16, Type (0, 0), None
#     Edge 17, Type (0, 0), None
#     Edge 18, Type (0, 0), None
#     Edge 19, Type (0, 0), None
#     Edge 20, Type (0, 0), None
#     Edge 21, Type (0, 0), None
#     Edge 22, Type (0, 0), None
#     Edge 23, Type (0, 0), None
#     Edge 24, Type (0, 0), None
#     Edge 25, Type (0, 0), None
#     Edge 26, Type (0, 0), None
#     Edge 27, Type (0, 0), None
#     Edge 28, Type (0, 0), None
#     Edge 29, Type (0, 0), None
#     Edge 30, Type (0, 0), None
#     Edge 31, Type (0, 0), None
#     Edge 32, Type (0, 0), None
#     Edge 33, Type (0, 0), None
#     Edge 34, Type (0, 0), None
#     Edge 35, Type (0, 0), None
# Relax obj value: 0.192
# Max RMSD: 0.212
# Mean RMSD: 0.211
data_MOF--net-umb--node1-NAWXER_clean_sbu_0--edge1-none
_symmetry_space_group_name_H-M    P1
_symmetry_Int_Tables_number       1
_symmetry_cell_setting            triclinic
loop_
_symmetry_equiv_pos_as_xyz
'x, y, z'
_cell_length_a     22.605327
_cell_length_b     22.608963
_cell_length_c     14.943298
_cell_angle_alpha  89.997881
_cell_angle_beta   90.000849
_cell_angle_gamma 119.99369
loop_
_atom_site_label
_atom_site_type_symbol
_atom_site_fract_x
_atom_site_fract_y
_atom_site_fract_z
_atom_type_partial_charge
C0 C 0.60569 0.20812 0.419 0.0
C1 C 0.43907 -0.01381 0.31262 0.0
O2 O 0.61459 0.16965 0.36529 0.0
Zn3 Zn 0.52092 0.10387 0.35491 0.0
O4 O 0.54564 0.19403 0.44315 0.0
Zn5 Zn 0.44268 0.10917 0.42287 0.0
O6 O 0.42294 0.08169 0.54687 0.0
O7 O 0.50914 0.07266 0.49364 0.0
O8 O 0.411 0.01254 0.36033 0.0
O9 O 0.50085 0.02248 0.28934 0.0
O10 O 0.48342 0.16336 0.28624 0.0
O11 O 0.39687 0.1535 0.36591 0.0
C12 C 0.47099 0.06861 0.55935 0.0
C13 C 0.43626 0.17837 0.29896 0.0
C14 C 0.34661 0.63155 0.75236 0.0
C15 C 0.40201 0.46496 0.64599 0.0
O16 O 0.39399 0.64045 0.69866 0.0
Zn17 Zn 0.36615 0.5468 0.68829 0.0
O18 O 0.30068 0.57151 0.77651 0.0
Zn19 Zn 0.28262 0.46857 0.75625 0.0
O20 O 0.29037 0.44883 0.88024 0.0
O21 O 0.38558 0.53502 0.82703 0.0
O22 O 0.34759 0.4369 0.69369 0.0
O23 O 0.4275 0.52675 0.62274 0.0
O24 O 0.26918 0.50929 0.61959 0.0
O25 O 0.19249 0.42277 0.69928 0.0
C26 C 0.35149 0.49688 0.89273 0.0
C27 C 0.20702 0.46214 0.63231 0.0
C28 C 0.80368 0.3772 0.22598 0.0
C29 C 0.69392 0.23275 0.9656 0.0
O30 O 0.79062 0.31608 0.21349 0.0
Zn31 Zn 0.76312 0.30834 1.0895 0.0
O32 O 0.79962 0.41128 0.16029 0.0
Zn33 Zn 0.76839 0.39186 1.02156 0.0
O34 O 0.70257 0.41971 1.03197 0.0
O35 O 0.67824 0.32642 0.10982 0.0
O36 O 0.70891 0.2949 0.95288 0.0
O37 O 0.7188 0.21823 1.03253 0.0
O38 O 0.85976 0.37333 1.02695 0.0
O39 O 0.84977 0.4532 0.95598 0.0
C40 C 0.66412 0.37234 1.08569 0.0
C41 C 0.88609 0.42774 0.97925 0.0
C42 C 0.37544 0.82948 0.55936 0.0
C43 C 0.4102 0.71976 0.29898 0.0
O44 O 0.42351 0.81642 0.54688 0.0
Zn45 Zn 0.40377 0.78893 0.42289 0.0
O46 O 0.3373 0.82543 0.49367 0.0
Zn47 Zn 0.32551 0.79422 0.35494 0.0
O48 O 0.23185 0.72841 0.36533 0.0
O49 O 0.30081 0.70406 0.44318 0.0
O50 O 0.36303 0.73476 0.28625 0.0
O51 O 0.44958 0.74462 0.36594 0.0
O52 O 0.43543 0.88555 0.36032 0.0
O53 O 0.34555 0.8756 0.28936 0.0
C54 C 0.24076 0.68995 0.41903 0.0
C55 C 0.40734 0.91188 0.31261 0.0
C56 C 0.63952 0.43594 0.63229 0.0
C57 C 0.49508 0.40129 0.89272 0.0
O58 O 0.65407 0.47532 0.69926 0.0
Zn59 Zn 0.56395 0.42956 0.75623 0.0
O60 O 0.57735 0.38882 0.61958 0.0
Zn61 Zn 0.48039 0.35135 0.68829 0.0
O62 O 0.41905 0.37143 0.62274 0.0
O63 O 0.49901 0.46128 0.69367 0.0
O64 O 0.46098 0.36315 0.82703 0.0
O65 O 0.55622 0.44932 0.88022 0.0
O66 O 0.54583 0.3266 0.77651 0.0
O67 O 0.4525 0.25769 0.69867 0.0
C68 C 0.44459 0.43322 0.64599 0.0
C69 C 0.49988 0.26657 0.75237 0.0
C70 C 0.04281 0.52084 0.22601 0.0
C71 C 0.15254 0.66532 0.96562 0.0
O72 O 0.05585 0.58195 0.21351 0.0
Zn73 Zn 0.08335 0.58971 1.08953 0.0
O74 O 0.04688 0.48676 0.1603 0.0
Zn75 Zn 0.0781 0.5062 1.02157 0.0
O76 O 0.14393 0.47837 1.03197 0.0
O77 O 0.16825 0.57166 0.10983 0.0
O78 O 0.13756 0.60317 0.95289 0.0
O79 O 0.12766 0.67983 1.03256 0.0
O80 O -0.01328 0.52474 1.02695 0.0
O81 O -0.00328 0.44485 0.95599 0.0
C82 C 0.18238 0.52574 1.08569 0.0
C83 C -0.03959 0.47033 0.97924 0.0
C84 C 0.66412 0.26654 0.45764 0.0
C85 C 0.88609 0.43312 0.56404 0.0
O86 O 0.7026 0.25763 0.51134 0.0
Zn87 Zn 0.7684 0.35128 0.52173 0.0
O88 O 0.67823 0.32657 0.4335 0.0
Zn89 Zn 0.76309 0.42951 0.45378 0.0
O90 O 0.7906 0.44927 0.32979 0.0
O91 O 0.79962 0.36307 0.383 0.0
O92 O 0.85973 0.46118 0.51635 0.0
O93 O 0.84981 0.37133 0.58729 0.0
O94 O 0.70893 0.38878 0.59043 0.0
O95 O 0.71876 0.47531 0.51074 0.0
C96 C 0.80367 0.40122 0.31732 0.0
C97 C 0.69392 0.43593 0.5777 0.0
C98 C 0.3466 0.68997 0.79101 0.0
C99 C 0.40194 0.9119 0.89741 0.0
O100 O 0.39397 0.72843 0.84471 0.0
Zn101 Zn 0.36609 0.79422 0.85511 0.0
O102 O 0.30066 0.70407 0.76686 0.0
Zn103 Zn 0.28255 0.78893 0.78716 0.0
O104 O 0.29028 0.81642 0.66317 0.0
O105 O 0.38552 0.82544 0.71638 0.0
O106 O 0.34752 0.88556 0.84971 0.0
O107 O 0.42742 0.8756 0.92069 0.0
O108 O 0.26912 0.73473 0.92379 0.0
O109 O 0.19242 0.7446 0.84413 0.0
C110 C 0.35142 0.82949 0.6507 0.0
C111 C 0.20695 0.71973 0.91106 0.0
C112 C 0.47103 0.37726 0.98404 0.0
C113 C 0.43627 0.23279 0.24441 0.0
O114 O 0.42295 0.31615 0.99651 0.0
Zn115 Zn 0.4427 0.3084 0.1205 0.0
O116 O 0.50918 0.41134 1.04973 0.0
Zn117 Zn 0.52096 0.3919 0.18846 0.0
O118 O 0.61461 0.41972 0.17807 0.0
O119 O 0.54565 0.32644 1.10021 0.0
O120 O 0.48344 0.29493 0.25714 0.0
O121 O 0.39687 0.21828 0.17747 0.0
O122 O 0.41106 0.37339 0.18306 0.0
O123 O 0.50092 0.45325 0.25404 0.0
C124 C 0.6057 0.37235 0.12436 0.0
C125 C 0.43914 0.4278 0.23077 0.0
C126 C 0.04282 0.49681 0.31733 0.0
C127 C 0.15261 0.46213 0.57772 0.0
O128 O 0.05592 0.44878 0.3298 0.0
Zn129 Zn 0.08342 0.46853 0.45379 0.0
O130 O 0.04685 0.53495 0.38302 0.0
Zn131 Zn 0.07807 0.54674 0.52175 0.0
O132 O 0.14385 0.6404 0.51137 0.0
O133 O 0.16826 0.57149 0.43352 0.0
O134 O 0.13757 0.50927 0.59045 0.0
O135 O 0.12778 0.42276 0.51075 0.0
O136 O -0.01323 0.43682 0.51636 0.0
O137 O -0.00333 0.52666 0.58732 0.0
C138 C 0.18234 0.63152 0.45767 0.0
C139 C -0.03959 0.46487 0.56407 0.0
C140 C 0.6395 0.17834 0.91104 0.0
C141 C 0.49504 0.0686 0.65067 0.0
O142 O 0.65404 0.15348 0.8441 0.0
Zn143 Zn 0.56391 0.10916 0.78714 0.0
O144 O 0.57733 0.16334 0.92377 0.0
Zn145 Zn 0.48036 0.10387 0.85509 0.0
O146 O 0.41901 0.02248 0.92065 0.0
O147 O 0.49895 0.01254 0.8497 0.0
O148 O 0.46093 0.07266 0.71635 0.0
O149 O 0.55617 0.08167 0.66315 0.0
O150 O 0.54581 0.19403 0.76685 0.0
O151 O 0.45249 0.16967 0.84469 0.0
C152 C 0.44453 -0.01379 0.8974 0.0
C153 C 0.49987 0.20814 0.791 0.0
C154 C 0.37553 0.52091 0.98405 0.0
C155 C 0.41021 0.66535 0.24442 0.0
O156 O 0.42358 0.58203 0.99653 0.0
Zn157 Zn 0.40382 0.58976 0.12052 0.0
O158 O 0.33738 0.48681 1.04974 0.0
Zn159 Zn 0.32558 0.50624 0.18847 0.0
O160 O 0.23191 0.47838 0.17806 0.0
O161 O 0.30086 0.57168 1.10021 0.0
O162 O 0.36306 0.6032 0.25715 0.0
O163 O 0.44961 0.67988 0.17748 0.0
O164 O 0.4355 0.5248 0.18308 0.0
O165 O 0.34563 0.4449 0.25406 0.0
C166 C 0.24082 0.52575 0.12435 0.0
C167 C 0.40742 0.47039 0.23079 0.0
loop_
_geom_bond_atom_site_label_1
_geom_bond_atom_site_label_2
_geom_bond_distance
_geom_bond_site_symmetry_2
_ccdc_geom_bond_type
C0 O2 1.247 . S
C0 O4 1.258 . S
C1 O8 1.247 . S
C1 O9 1.258 . S
O2 C0 1.247 . S
O2 Zn3 2.028 . S
Zn3 O2 2.028 . S
Zn3 O7 2.035 . S
Zn3 O9 2.035 . S
Zn3 O10 2.028 . S
O4 C0 1.258 . S
O4 Zn5 2.035 . S
Zn5 O4 2.035 . S
Zn5 O6 2.028 . S
Zn5 O8 2.028 . S
Zn5 O11 2.035 . S
O6 Zn5 2.028 . S
O6 C12 1.247 . S
O7 Zn3 2.035 . S
O7 C12 1.258 . S
O8 C1 1.247 . S
O8 Zn5 2.028 . S
O9 C1 1.258 . S
O9 Zn3 2.035 . S
O10 Zn3 2.028 . S
O10 C13 1.247 . S
O11 Zn5 2.035 . S
O11 C13 1.258 . S
C12 O6 1.247 . S
C12 O7 1.258 . S
C13 O10 1.247 . S
C13 O11 1.258 . S
C14 O16 1.247 . S
C14 O18 1.258 . S
C15 O22 1.247 . S
C15 O23 1.258 . S
O16 C14 1.247 . S
O16 Zn17 2.028 . S
Zn17 O16 2.028 . S
Zn17 O21 2.035 . S
Zn17 O23 2.035 . S
Zn17 O24 2.028 . S
O18 C14 1.258 . S
O18 Zn19 2.035 . S
Zn19 O18 2.035 . S
Zn19 O20 2.028 . S
Zn19 O22 2.028 . S
Zn19 O25 2.035 . S
O20 Zn19 2.028 . S
O20 C26 1.247 . S
O21 Zn17 2.035 . S
O21 C26 1.258 . S
O22 C15 1.247 . S
O22 Zn19 2.028 . S
O23 C15 1.258 . S
O23 Zn17 2.035 . S
O24 Zn17 2.028 . S
O24 C27 1.247 . S
O25 Zn19 2.035 . S
O25 C27 1.258 . S
C26 O20 1.247 . S
C26 O21 1.258 . S
C27 O24 1.247 . S
C27 O25 1.258 . S
C28 O30 1.247 . S
C28 O32 1.258 . S
C29 O36 1.247 . S
C29 O37 1.258 . S
O30 C28 1.247 . S
O30 Zn31 2.028 . S
Zn31 O30 2.028 . S
Zn31 O35 2.035 . S
Zn31 O37 2.035 1_554 S
Zn31 O38 2.028 . S
O32 C28 1.258 . S
O32 Zn33 2.035 1_554 S
Zn33 O32 2.035 1_556 S
Zn33 O34 2.028 . S
Zn33 O36 2.028 . S
Zn33 O39 2.035 . S
O34 Zn33 2.028 . S
O34 C40 1.247 1_556 S
O35 Zn31 2.035 . S
O35 C40 1.258 . S
O36 C29 1.247 . S
O36 Zn33 2.028 . S
O37 C29 1.258 . S
O37 Zn31 2.035 1_556 S
O38 Zn31 2.028 . S
O38 C41 1.247 1_554 S
O39 Zn33 2.035 . S
O39 C41 1.258 . S
C40 O34 1.247 1_554 S
C40 O35 1.258 . S
C41 O38 1.247 1_556 S
C41 O39 1.258 . S
C42 O44 1.247 . S
C42 O46 1.258 . S
C43 O50 1.247 . S
C43 O51 1.258 . S
O44 C42 1.247 . S
O44 Zn45 2.028 . S
Zn45 O44 2.028 . S
Zn45 O49 2.035 . S
Zn45 O51 2.035 . S
Zn45 O52 2.028 . S
O46 C42 1.258 . S
O46 Zn47 2.035 . S
Zn47 O46 2.035 . S
Zn47 O48 2.028 . S
Zn47 O50 2.028 . S
Zn47 O53 2.035 . S
O48 Zn47 2.028 . S
O48 C54 1.247 . S
O49 Zn45 2.035 . S
O49 C54 1.258 . S
O50 C43 1.247 . S
O50 Zn47 2.028 . S
O51 C43 1.258 . S
O51 Zn45 2.035 . S
O52 Zn45 2.028 . S
O52 C55 1.247 . S
O53 Zn47 2.035 . S
O53 C55 1.258 . S
C54 O48 1.247 . S
C54 O49 1.258 . S
C55 O52 1.247 . S
C55 O53 1.258 . S
C56 O58 1.247 . S
C56 O60 1.258 . S
C57 O64 1.247 . S
C57 O65 1.258 . S
O58 C56 1.247 . S
O58 Zn59 2.028 . S
Zn59 O58 2.028 . S
Zn59 O63 2.035 . S
Zn59 O65 2.035 . S
Zn59 O66 2.028 . S
O60 C56 1.258 . S
O60 Zn61 2.035 . S
Zn61 O60 2.035 . S
Zn61 O62 2.028 . S
Zn61 O64 2.028 . S
Zn61 O67 2.035 . S
O62 Zn61 2.028 . S
O62 C68 1.247 . S
O63 Zn59 2.035 . S
O63 C68 1.258 . S
O64 C57 1.247 . S
O64 Zn61 2.028 . S
O65 C57 1.258 . S
O65 Zn59 2.035 . S
O66 Zn59 2.028 . S
O66 C69 1.247 . S
O67 Zn61 2.035 . S
O67 C69 1.258 . S
C68 O62 1.247 . S
C68 O63 1.258 . S
C69 O66 1.247 . S
C69 O67 1.258 . S
C70 O72 1.247 . S
C70 O74 1.258 . S
C71 O78 1.247 . S
C71 O79 1.258 . S
O72 C70 1.247 . S
O72 Zn73 2.028 . S
Zn73 O72 2.028 . S
Zn73 O77 2.035 . S
Zn73 O79 2.035 1_554 S
Zn73 O80 2.028 . S
O74 C70 1.258 . S
O74 Zn75 2.035 1_554 S
Zn75 O74 2.035 1_556 S
Zn75 O76 2.028 . S
Zn75 O78 2.028 . S
Zn75 O81 2.035 . S
O76 Zn75 2.028 . S
O76 C82 1.247 1_556 S
O77 Zn73 2.035 . S
O77 C82 1.258 . S
O78 C71 1.247 . S
O78 Zn75 2.028 . S
O79 C71 1.258 . S
O79 Zn73 2.035 1_556 S
O80 Zn73 2.028 . S
O80 C83 1.247 1_554 S
O81 Zn75 2.035 . S
O81 C83 1.258 . S
C82 O76 1.247 1_554 S
C82 O77 1.258 . S
C83 O80 1.247 1_556 S
C83 O81 1.258 . S
C84 O86 1.247 . S
C84 O88 1.258 . S
C85 O92 1.247 . S
C85 O93 1.258 . S
O86 C84 1.247 . S
O86 Zn87 2.028 . S
Zn87 O86 2.028 . S
Zn87 O91 2.035 . S
Zn87 O93 2.035 . S
Zn87 O94 2.028 . S
O88 C84 1.258 . S
O88 Zn89 2.035 . S
Zn89 O88 2.035 . S
Zn89 O90 2.028 . S
Zn89 O92 2.028 . S
Zn89 O95 2.035 . S
O90 Zn89 2.028 . S
O90 C96 1.247 . S
O91 Zn87 2.035 . S
O91 C96 1.258 . S
O92 C85 1.247 . S
O92 Zn89 2.028 . S
O93 C85 1.258 . S
O93 Zn87 2.035 . S
O94 Zn87 2.028 . S
O94 C97 1.247 . S
O95 Zn89 2.035 . S
O95 C97 1.258 . S
C96 O90 1.247 . S
C96 O91 1.258 . S
C97 O94 1.247 . S
C97 O95 1.258 . S
C98 O100 1.247 . S
C98 O102 1.258 . S
C99 O106 1.247 . S
C99 O107 1.258 . S
O100 C98 1.247 . S
O100 Zn101 2.028 . S
Zn101 O100 2.028 . S
Zn101 O105 2.035 . S
Zn101 O107 2.035 . S
Zn101 O108 2.028 . S
O102 C98 1.258 . S
O102 Zn103 2.035 . S
Zn103 O102 2.035 . S
Zn103 O104 2.028 . S
Zn103 O106 2.028 . S
Zn103 O109 2.035 . S
O104 Zn103 2.028 . S
O104 C110 1.247 . S
O105 Zn101 2.035 . S
O105 C110 1.258 . S
O106 C99 1.247 . S
O106 Zn103 2.028 . S
O107 C99 1.258 . S
O107 Zn101 2.035 . S
O108 Zn101 2.028 . S
O108 C111 1.247 . S
O109 Zn103 2.035 . S
O109 C111 1.258 . S
C110 O104 1.247 . S
C110 O105 1.258 . S
C111 O108 1.247 . S
C111 O109 1.258 . S
C112 O114 1.247 . S
C112 O116 1.258 . S
C113 O120 1.247 . S
C113 O121 1.258 . S
O114 C112 1.247 . S
O114 Zn115 2.028 . S
Zn115 O114 2.028 . S
Zn115 O119 2.035 . S
Zn115 O121 2.035 1_556 S
Zn115 O122 2.028 . S
O116 C112 1.258 . S
O116 Zn117 2.035 1_556 S
Zn117 O116 2.035 1_554 S
Zn117 O118 2.028 . S
Zn117 O120 2.028 . S
Zn117 O123 2.035 . S
O118 Zn117 2.028 . S
O118 C124 1.247 1_554 S
O119 Zn115 2.035 . S
O119 C124 1.258 . S
O120 C113 1.247 . S
O120 Zn117 2.028 . S
O121 C113 1.258 . S
O121 Zn115 2.035 1_554 S
O122 Zn115 2.028 . S
O122 C125 1.247 1_556 S
O123 Zn117 2.035 . S
O123 C125 1.258 . S
C124 O118 1.247 1_556 S
C124 O119 1.258 . S
C125 O122 1.247 1_554 S
C125 O123 1.258 . S
C126 O128 1.247 . S
C126 O130 1.258 . S
C127 O134 1.247 . S
C127 O135 1.258 . S
O128 C126 1.247 . S
O128 Zn129 2.028 . S
Zn129 O128 2.028 . S
Zn129 O133 2.035 . S
Zn129 O135 2.035 . S
Zn129 O136 2.028 . S
O130 C126 1.258 . S
O130 Zn131 2.035 . S
Zn131 O130 2.035 . S
Zn131 O132 2.028 . S
Zn131 O134 2.028 . S
Zn131 O137 2.035 . S
O132 Zn131 2.028 . S
O132 C138 1.247 . S
O133 Zn129 2.035 . S
O133 C138 1.258 . S
O134 C127 1.247 . S
O134 Zn131 2.028 . S
O135 C127 1.258 . S
O135 Zn129 2.035 . S
O136 Zn129 2.028 . S
O136 C139 1.247 . S
O137 Zn131 2.035 . S
O137 C139 1.258 . S
C138 O132 1.247 . S
C138 O133 1.258 . S
C139 O136 1.247 . S
C139 O137 1.258 . S
C140 O142 1.247 . S
C140 O144 1.258 . S
C141 O148 1.247 . S
C141 O149 1.258 . S
O142 C140 1.247 . S
O142 Zn143 2.028 . S
Zn143 O142 2.028 . S
Zn143 O147 2.035 . S
Zn143 O149 2.035 . S
Zn143 O150 2.028 . S
O144 C140 1.258 . S
O144 Zn145 2.035 . S
Zn145 O144 2.035 . S
Zn145 O146 2.028 . S
Zn145 O148 2.028 . S
Zn145 O151 2.035 . S
O146 Zn145 2.028 . S
O146 C152 1.247 . S
O147 Zn143 2.035 . S
O147 C152 1.258 . S
O148 C141 1.247 . S
O148 Zn145 2.028 . S
O149 C141 1.258 . S
O149 Zn143 2.035 . S
O150 Zn143 2.028 . S
O150 C153 1.247 . S
O151 Zn145 2.035 . S
O151 C153 1.258 . S
C152 O146 1.247 . S
C152 O147 1.258 . S
C153 O150 1.247 . S
C153 O151 1.258 . S
C154 O156 1.247 . S
C154 O158 1.258 . S
C155 O162 1.247 . S
C155 O163 1.258 . S
O156 C154 1.247 . S
O156 Zn157 2.028 . S
Zn157 O156 2.028 . S
Zn157 O161 2.035 . S
Zn157 O163 2.035 1_556 S
Zn157 O164 2.028 . S
O158 C154 1.258 . S
O158 Zn159 2.035 1_556 S
Zn159 O158 2.035 1_554 S
Zn159 O160 2.028 . S
Zn159 O162 2.028 . S
Zn159 O165 2.035 . S
O160 Zn159 2.028 . S
O160 C166 1.247 1_554 S
O161 Zn157 2.035 . S
O161 C166 1.258 . S
O162 C155 1.247 . S
O162 Zn159 2.028 . S
O163 C155 1.258 . S
O163 Zn157 2.035 1_554 S
O164 Zn157 2.028 . S
O164 C167 1.247 1_556 S
O165 Zn159 2.035 . S
O165 C167 1.258 . S
C166 O160 1.247 1_556 S
C166 O161 1.258 . S
C167 O164 1.247 1_554 S
C167 O165 1.258 . S
C12 C141 1.578 . S
C26 C154 1.606 . S
C96 C28 1.606 . S
C42 C110 1.581 . S
C112 C57 1.602 . S
C126 C70 1.606 . S
C84 C0 1.407 . S
C98 C14 1.407 . S
C124 C40 1.398 1_556 S
C54 C138 1.407 . S
C69 C153 1.416 . S
C82 C166 1.398 1_554 S
C1 C55 3.367 1_545 S
C15 C68 3.355 . S
C41 C83 3.361 1_655 S
C139 C85 3.365 1_455 S
C152 C99 3.358 1_545 S
C167 C125 3.362 . S
C13 C113 2.182 . S
C127 C27 2.201 . S
C29 C140 2.179 . S
C155 C43 2.182 . S
C56 C97 2.199 . S
C71 C111 2.182 . S
