# Generated by pormake.
# Topology mdf, (4)-cn, num edge types: 1
# Building blocks:
#     Node 0, Type 0, BuildingBlock: NAHDIM_clean_sbu_0, # of connection points: 4
#     Node 1, Type 0, BuildingBlock: NAHDIM_clean_sbu_0, # of connection points: 4
#     Node 2, Type 0, BuildingBlock: NAHDIM_clean_sbu_0, # of connection points: 4
#     Node 3, Type 0, BuildingBlock: NAHDIM_clean_sbu_0, # of connection points: 4
#     Node 4, Type 0, BuildingBlock: NAHDIM_clean_sbu_0, # of connection points: 4
#     Node 5, Type 0, BuildingBlock: NAHDIM_clean_sbu_0, # of connection points: 4
#     Node 6, Type 0, BuildingBlock: NAHDIM_clean_sbu_0, # of connection points: 4
#     Node 7, Type 0, BuildingBlock: NAHDIM_clean_sbu_0, # of connection points: 4
#     Edge 8, Type (0, 0), None
#     Edge 9, Type (0, 0), None
#     Edge 10, Type (0, 0), None
#     Edge 11, Type (0, 0), None
#     Edge 12, Type (0, 0), None
#     Edge 13, Type (0, 0), None
#     Edge 14, Type (0, 0), None
#     Edge 15, Type (0, 0), None
#     Edge 16, Type (0, 0), None
#     Edge 17, Type (0, 0), None
#     Edge 18, Type (0, 0), None
#     Edge 19, Type (0, 0), None
#     Edge 20, Type (0, 0), None
#     Edge 21, Type (0, 0), None
#     Edge 22, Type (0, 0), None
#     Edge 23, Type (0, 0), None
# Relax obj value: 0.048
# Max RMSD: 0.057
# Mean RMSD: 0.057
data_MOF--net-mdf--node1-NAHDIM_clean_sbu_0--edge1-none
_symmetry_space_group_name_H-M    P1
_symmetry_Int_Tables_number       1
_symmetry_cell_setting            triclinic
loop_
_symmetry_equiv_pos_as_xyz
'x, y, z'
_cell_length_a     16.62763
_cell_length_b     15.831377
_cell_length_c     6.9294603
_cell_angle_alpha  89.998203
_cell_angle_beta   90.000075
_cell_angle_gamma 100.03248
loop_
_atom_site_label
_atom_site_type_symbol
_atom_site_fract_x
_atom_site_fract_y
_atom_site_fract_z
_atom_type_partial_charge
C0 C 0.13966 0.63524 0.62086 0.0
O1 O 0.08153 0.59587 0.50805 0.0
O2 O 0.3248 0.62919 0.19609 0.0
Zn3 Zn 0.25284 0.55228 0.38593 0.0
O4 O 0.15509 0.47501 0.26803 0.0
C5 C 0.37872 0.44662 0.42023 0.0
O6 O 0.3949 0.46962 0.24041 0.0
O7 O 0.21325 0.62661 0.59152 0.0
C8 C 0.16388 0.41563 0.15076 0.0
O9 O 0.23729 0.40686 0.09453 0.0
C10 C 0.31949 0.62723 0.01322 0.0
O11 O 0.26288 0.57114 0.93007 0.0
O12 O 0.32263 0.47518 0.51136 0.0
C13 C 0.34337 0.82498 0.286 0.0
O14 O 0.28598 0.78858 0.40409 0.0
O15 O 0.37102 0.68997 0.71457 0.0
Zn16 Zn 0.45977 0.75476 0.53983 0.0
O17 O 0.53763 0.84568 0.68255 0.0
C18 C 0.53832 0.60392 0.5237 0.0
O19 O 0.50854 0.58816 0.69798 0.0
O20 O 0.41706 0.81735 0.3165 0.0
C21 C 0.59625 0.82808 0.78344 0.0
O22 O 0.60552 0.74806 0.80552 0.0
C23 C 0.38002 0.68408 0.89625 0.0
O24 O 0.44666 0.72482 0.97828 0.0
O25 O 0.52425 0.66917 0.43101 0.0
C26 C 0.32307 0.87587 0.12086 0.0
O27 O 0.3812 0.91527 0.00808 0.0
O28 O 0.13792 0.88193 0.69609 0.0
Zn29 Zn 0.20988 0.95882 0.88593 0.0
O30 O 0.30763 0.0361 0.76802 0.0
C31 C 0.08401 0.06449 0.92024 0.0
O32 O 0.06783 0.0415 0.74042 0.0
O33 O 0.24947 0.88449 0.0915 0.0
C34 C 0.29885 0.09547 0.65073 0.0
O35 O 0.22543 0.10424 0.59447 0.0
C36 C 0.14324 0.88388 0.51322 0.0
O37 O 0.19987 0.93995 0.43008 0.0
O38 O 0.1401 0.03593 0.01137 0.0
C39 C 0.11936 0.68613 0.78601 0.0
O40 O 0.17675 0.72251 0.90412 0.0
O41 O 0.09172 0.82113 0.21458 0.0
Zn42 Zn 0.00296 0.75635 0.03984 0.0
O43 O 0.9251 0.66543 0.18255 0.0
C44 C 0.92441 0.90719 0.02372 0.0
O45 O 0.95419 0.92295 0.198 0.0
O46 O 0.04568 0.69378 0.81649 0.0
C47 C 0.86648 0.68302 0.28342 0.0
O48 O 0.85721 0.76304 0.30549 0.0
C49 C 0.08271 0.82704 0.39625 0.0
O50 O 0.01606 0.78631 0.47828 0.0
O51 O 0.93849 0.84195 0.93102 0.0
C52 C 0.64077 0.07957 0.26608 0.0
O53 O 0.63223 0.99561 0.26518 0.0
O54 O 0.79717 0.15424 0.74235 0.0
Zn55 Zn 0.74592 0.06564 0.9378 0.0
O56 O 0.66257 0.97304 0.81384 0.0
C57 C 0.86841 0.95946 0.94256 0.0
O58 O 0.84364 0.94654 0.76357 0.0
O59 O 0.68778 0.12327 0.14386 0.0
C60 C 0.65345 0.89636 0.87638 0.0
O61 O 0.6979 0.87742 0.02127 0.0
C62 C 0.81018 0.13489 0.56865 0.0
O63 O 0.7867 0.05574 0.50936 0.0
O64 O 0.83621 0.00971 0.04977 0.0
C65 C 0.86821 0.38907 0.90514 0.0
O66 O 0.91335 0.43476 0.03627 0.0
O67 O 0.86814 0.17724 0.26495 0.0
Zn68 Zn 0.93784 0.24841 0.06603 0.0
O69 O 0.02876 0.33649 0.17906 0.0
C70 C 0.03915 0.1249 0.01442 0.0
O71 O 0.0512 0.14272 0.19838 0.0
O72 O 0.86812 0.30897 0.89324 0.0
C73 C 0.09298 0.3566 0.07731 0.0
O74 O 0.09776 0.31988 0.90889 0.0
C75 C 0.856 0.19864 0.43732 0.0
O76 O 0.88931 0.27498 0.49953 0.0
O77 O -0.00917 0.16289 0.91826 0.0
C78 C 0.82195 0.43153 0.76607 0.0
O79 O 0.83049 0.51549 0.76518 0.0
O80 O 0.66556 0.35687 0.24234 0.0
Zn81 Zn 0.71681 0.44546 0.43778 0.0
O82 O 0.80016 0.53807 0.31381 0.0
C83 C 0.59432 0.55165 0.44254 0.0
O84 O 0.61909 0.56458 0.26355 0.0
O85 O 0.77494 0.38784 0.64384 0.0
C86 C 0.80928 0.61474 0.37635 0.0
O87 O 0.76483 0.63368 0.52124 0.0
C88 C 0.65253 0.37622 0.06864 0.0
O89 O 0.67601 0.45537 0.00934 0.0
O90 O 0.62651 0.5014 0.54974 0.0
C91 C 0.59451 0.12203 0.40514 0.0
O92 O 0.54936 0.07634 0.53626 0.0
O93 O 0.59458 0.33387 0.76494 0.0
Zn94 Zn 0.52489 0.2627 0.56602 0.0
O95 O 0.43396 0.17462 0.67905 0.0
C96 C 0.42358 0.38621 0.5144 0.0
O97 O 0.41153 0.36838 0.69836 0.0
O98 O 0.59461 0.20214 0.39324 0.0
C99 C 0.36975 0.15451 0.57728 0.0
O100 O 0.36497 0.19123 0.40886 0.0
C101 C 0.60672 0.31247 0.93731 0.0
O102 O 0.57341 0.23612 -0.00047 0.0
O103 O 0.4719 0.34822 0.41824 0.0
loop_
_geom_bond_atom_site_label_1
_geom_bond_atom_site_label_2
_geom_bond_distance
_geom_bond_site_symmetry_2
_ccdc_geom_bond_type
C0 O1 1.160 . S
C0 O7 1.185 . S
O1 C0 1.160 . S
O2 Zn3 1.899 . S
O2 C10 1.284 . S
Zn3 O2 1.899 . S
Zn3 O4 2.032 . S
Zn3 O7 2.086 . S
Zn3 O12 1.977 . S
O4 Zn3 2.032 . S
O4 C8 1.278 . S
C5 O6 1.203 . S
C5 O12 1.267 . S
O6 C5 1.203 . S
O7 C0 1.185 . S
O7 Zn3 2.086 . S
C8 O4 1.278 . S
C8 O9 1.211 . S
O9 C8 1.211 . S
C10 O2 1.284 . S
C10 O11 1.273 1_554 S
O11 C10 1.273 1_556 S
O12 Zn3 1.977 . S
O12 C5 1.267 . S
C13 O14 1.160 . S
C13 O20 1.185 . S
O14 C13 1.160 . S
O15 Zn16 1.899 . S
O15 C23 1.284 . S
Zn16 O15 1.899 . S
Zn16 O17 2.032 . S
Zn16 O20 2.086 . S
Zn16 O25 1.977 . S
O17 Zn16 2.032 . S
O17 C21 1.278 . S
C18 O19 1.203 . S
C18 O25 1.267 . S
O19 C18 1.203 . S
O20 C13 1.185 . S
O20 Zn16 2.086 . S
C21 O17 1.278 . S
C21 O22 1.211 . S
O22 C21 1.211 . S
C23 O15 1.284 . S
C23 O24 1.273 1_556 S
O24 C23 1.273 1_554 S
O25 Zn16 1.977 . S
O25 C18 1.267 . S
C26 O27 1.160 . S
C26 O33 1.185 . S
O27 C26 1.160 . S
O28 Zn29 1.899 . S
O28 C36 1.284 . S
Zn29 O28 1.899 . S
Zn29 O30 2.032 1_565 S
Zn29 O33 2.086 1_556 S
Zn29 O38 1.977 1_566 S
O30 Zn29 2.032 1_545 S
O30 C34 1.278 . S
C31 O32 1.203 . S
C31 O38 1.267 1_556 S
O32 C31 1.203 . S
O33 C26 1.185 . S
O33 Zn29 2.086 1_554 S
C34 O30 1.278 . S
C34 O35 1.211 . S
O35 C34 1.211 . S
C36 O28 1.284 . S
C36 O37 1.273 . S
O37 C36 1.273 . S
O38 Zn29 1.977 1_544 S
O38 C31 1.267 1_554 S
C39 O40 1.160 . S
C39 O46 1.185 . S
O40 C39 1.160 . S
O41 Zn42 1.899 . S
O41 C49 1.284 . S
Zn42 O41 1.899 . S
Zn42 O43 2.032 1_455 S
Zn42 O46 2.086 1_554 S
Zn42 O51 1.977 1_454 S
O43 Zn42 2.032 1_655 S
O43 C47 1.278 . S
C44 O45 1.203 . S
C44 O51 1.267 1_554 S
O45 C44 1.203 . S
O46 C39 1.185 . S
O46 Zn42 2.086 1_556 S
C47 O43 1.278 . S
C47 O48 1.211 . S
O48 C47 1.211 . S
C49 O41 1.284 . S
C49 O50 1.273 . S
O50 C49 1.273 . S
O51 Zn42 1.977 1_656 S
O51 C44 1.267 1_556 S
C52 O53 1.160 . S
C52 O59 1.185 . S
O53 C52 1.160 . S
O54 Zn55 1.899 . S
O54 C62 1.284 . S
Zn55 O54 1.899 . S
Zn55 O56 2.032 1_545 S
Zn55 O59 2.086 1_556 S
Zn55 O64 1.977 1_546 S
O56 Zn55 2.032 1_565 S
O56 C60 1.278 . S
C57 O58 1.203 . S
C57 O64 1.267 1_556 S
O58 C57 1.203 . S
O59 C52 1.185 . S
O59 Zn55 2.086 1_554 S
C60 O56 1.278 . S
C60 O61 1.211 . S
O61 C60 1.211 . S
C62 O54 1.284 . S
C62 O63 1.273 . S
O63 C62 1.273 . S
O64 Zn55 1.977 1_564 S
O64 C57 1.267 1_554 S
C65 O66 1.160 . S
C65 O72 1.185 . S
O66 C65 1.160 . S
O67 Zn68 1.899 . S
O67 C75 1.284 . S
Zn68 O67 1.899 . S
Zn68 O69 2.032 1_655 S
Zn68 O72 2.086 1_554 S
Zn68 O77 1.977 1_654 S
O69 Zn68 2.032 1_455 S
O69 C73 1.278 . S
C70 O71 1.203 . S
C70 O77 1.267 1_554 S
O71 C70 1.203 . S
O72 C65 1.185 . S
O72 Zn68 2.086 1_556 S
C73 O69 1.278 . S
C73 O74 1.211 . S
O74 C73 1.211 . S
C75 O67 1.284 . S
C75 O76 1.273 . S
O76 C75 1.273 . S
O77 Zn68 1.977 1_456 S
O77 C70 1.267 1_556 S
C78 O79 1.160 . S
C78 O85 1.185 . S
O79 C78 1.160 . S
O80 Zn81 1.899 . S
O80 C88 1.284 . S
Zn81 O80 1.899 . S
Zn81 O82 2.032 . S
Zn81 O85 2.086 . S
Zn81 O90 1.977 . S
O82 Zn81 2.032 . S
O82 C86 1.278 . S
C83 O84 1.203 . S
C83 O90 1.267 . S
O84 C83 1.203 . S
O85 C78 1.185 . S
O85 Zn81 2.086 . S
C86 O82 1.278 . S
C86 O87 1.211 . S
O87 C86 1.211 . S
C88 O80 1.284 . S
C88 O89 1.273 1_554 S
O89 C88 1.273 1_556 S
O90 Zn81 1.977 . S
O90 C83 1.267 . S
C91 O92 1.160 . S
C91 O98 1.185 . S
O92 C91 1.160 . S
O93 Zn94 1.899 . S
O93 C101 1.284 . S
Zn94 O93 1.899 . S
Zn94 O95 2.032 . S
Zn94 O98 2.086 . S
Zn94 O103 1.977 . S
O95 Zn94 2.032 . S
O95 C99 1.278 . S
C96 O97 1.203 . S
C96 O103 1.267 . S
O97 C96 1.203 . S
O98 C91 1.185 . S
O98 Zn94 2.086 . S
C99 O95 1.278 . S
C99 O100 1.211 . S
O100 C99 1.211 . S
C101 O93 1.284 . S
C101 O102 1.273 1_556 S
O102 C101 1.273 1_554 S
O103 Zn94 1.977 . S
O103 C96 1.267 . S
C23 C10 1.371 1_556 S
C13 C26 1.460 . S
C49 C36 1.371 . S
C39 C0 1.460 . S
C62 C75 1.371 . S
C65 C78 1.460 . S
C88 C101 1.371 1_554 S
C52 C91 1.460 . S
C5 C96 1.382 . S
C60 C21 1.376 . S
C70 C31 1.382 1_554 S
C47 C86 1.376 . S
C34 C99 1.376 . S
C57 C44 1.382 1_556 S
C73 C8 1.376 . S
C18 C83 1.382 . S
