# Generated by pormake.
# Topology sra, (4)-cn, num edge types: 1
# Building blocks:
#     Node 0, Type 0, BuildingBlock: AZAVOO_clean_sbu_0, # of connection points: 4
#     Node 1, Type 0, BuildingBlock: AZAVOO_clean_sbu_0, # of connection points: 4
#     Node 2, Type 0, BuildingBlock: AZAVOO_clean_sbu_0, # of connection points: 4
#     Node 3, Type 0, BuildingBlock: AZAVOO_clean_sbu_0, # of connection points: 4
#     Node 4, Type 0, BuildingBlock: AZAVOO_clean_sbu_0, # of connection points: 4
#     Node 5, Type 0, BuildingBlock: AZAVOO_clean_sbu_0, # of connection points: 4
#     Node 6, Type 0, BuildingBlock: AZAVOO_clean_sbu_0, # of connection points: 4
#     Node 7, Type 0, BuildingBlock: AZAVOO_clean_sbu_0, # of connection points: 4
#     Edge 8, Type (0, 0), BuildingBlock: EYOCIG_clean_linker_4, # of connection points: 2
#     Edge 9, Type (0, 0), BuildingBlock: EYOCIG_clean_linker_4, # of connection points: 2
#     Edge 10, Type (0, 0), BuildingBlock: EYOCIG_clean_linker_4, # of connection points: 2
#     Edge 11, Type (0, 0), BuildingBlock: EYOCIG_clean_linker_4, # of connection points: 2
#     Edge 12, Type (0, 0), BuildingBlock: EYOCIG_clean_linker_4, # of connection points: 2
#     Edge 13, Type (0, 0), BuildingBlock: EYOCIG_clean_linker_4, # of connection points: 2
#     Edge 14, Type (0, 0), BuildingBlock: EYOCIG_clean_linker_4, # of connection points: 2
#     Edge 15, Type (0, 0), BuildingBlock: EYOCIG_clean_linker_4, # of connection points: 2
#     Edge 16, Type (0, 0), BuildingBlock: EYOCIG_clean_linker_4, # of connection points: 2
#     Edge 17, Type (0, 0), BuildingBlock: EYOCIG_clean_linker_4, # of connection points: 2
#     Edge 18, Type (0, 0), BuildingBlock: EYOCIG_clean_linker_4, # of connection points: 2
#     Edge 19, Type (0, 0), BuildingBlock: EYOCIG_clean_linker_4, # of connection points: 2
#     Edge 20, Type (0, 0), BuildingBlock: EYOCIG_clean_linker_4, # of connection points: 2
#     Edge 21, Type (0, 0), BuildingBlock: EYOCIG_clean_linker_4, # of connection points: 2
#     Edge 22, Type (0, 0), BuildingBlock: EYOCIG_clean_linker_4, # of connection points: 2
#     Edge 23, Type (0, 0), BuildingBlock: EYOCIG_clean_linker_4, # of connection points: 2
# Relax obj value: 0.076
# Max RMSD: 0.075
# Mean RMSD: 0.075
data_MOF--net-sra--node1-AZAVOO_clean_sbu_0--edge1-EYOCIG_clean_linker_4
_symmetry_space_group_name_H-M    P1
_symmetry_Int_Tables_number       1
_symmetry_cell_setting            triclinic
loop_
_symmetry_equiv_pos_as_xyz
'x, y, z'
_cell_length_a     21.880165
_cell_length_b     30.868485
_cell_length_c     36.1098
_cell_angle_alpha  90.019297
_cell_angle_beta   90.036518
_cell_angle_gamma 89.978899
loop_
_atom_site_label
_atom_site_type_symbol
_atom_site_fract_x
_atom_site_fract_y
_atom_site_fract_z
_atom_type_partial_charge
Mg0 Mg 0.00828 0.03824 0.15728 0.0
O1 O 0.00441 0.11167 0.15064 0.0
O2 O 0.08816 0.13258 0.12025 0.0
Mg3 Mg 0.14686 0.07256 0.10932 0.0
C4 C 0.03748 0.14086 0.13601 0.0
C5 C 0.88141 0.01951 0.19532 0.0
O6 O 0.90969 0.98579 0.20929 0.0
O7 O -0.01467 0.02826 0.09618 0.0
O8 O 0.07397 0.04594 0.06906 0.0
O9 O 0.05893 0.04565 0.2108 0.0
O10 O 0.10471 0.03803 0.15661 0.0
C11 C 0.01901 0.03214 0.06757 0.0
C12 C 0.10896 0.04426 0.19179 0.0
O13 O 0.90816 0.04397 0.17238 0.0
Mg14 Mg -0.01564 0.45276 0.1575 0.0
O15 O -0.00958 0.37943 0.15091 0.0
O16 O 0.90797 0.35727 0.11988 0.0
Mg17 Mg 0.84719 0.41633 0.10894 0.0
C18 C 0.95864 0.34976 0.13595 0.0
C19 C 0.11014 0.47268 0.19661 0.0
O20 O 0.08166 0.50704 0.20922 0.0
O21 O 0.00755 0.46327 0.09644 0.0
O22 O 0.91916 0.44479 0.06924 0.0
O23 O 0.93254 0.44504 0.2106 0.0
O24 O 0.88795 0.45209 0.15599 0.0
C25 C 0.97367 0.45944 0.06784 0.0
C26 C 0.88294 0.44621 0.19113 0.0
O27 O 0.08418 0.44764 0.17376 0.0
Mg28 Mg 0.00812 0.95244 0.80913 0.0
O29 O 0.00356 0.8791 0.81666 0.0
O30 O 0.08677 0.85845 0.84777 0.0
Mg31 Mg 0.14615 0.91835 0.85787 0.0
C32 C 0.03615 0.85007 0.83196 0.0
C33 C 0.883 0.97224 0.77018 0.0
O34 O 0.91202 0.00648 0.75784 0.0
O35 O -0.01524 0.96344 0.87007 0.0
O36 O 0.0734 0.94621 0.89754 0.0
O37 O 0.05917 0.9444 0.75588 0.0
O38 O 0.10454 0.95251 0.81017 0.0
C39 C 0.01849 0.96019 0.89876 0.0
C40 C 0.10907 0.94614 0.77502 0.0
O41 O 0.90842 0.94694 0.79304 0.0
Mg42 Mg -0.01503 0.53852 0.80905 0.0
O43 O -0.00968 0.61176 0.81673 0.0
O44 O 0.90621 0.63314 0.84655 0.0
Mg45 Mg 0.84583 0.57371 0.85621 0.0
C46 C 0.95756 0.64107 0.83149 0.0
C47 C 0.11093 0.51906 0.77069 0.0
O48 O 0.08184 0.48547 0.75711 0.0
O49 O 0.0063 0.52765 0.8703 0.0
O50 O 0.9173 0.54604 0.89676 0.0
O51 O 0.93507 0.54714 0.7553 0.0
O52 O 0.88866 0.5392 0.80923 0.0
C53 C 0.97195 0.53167 0.89864 0.0
C54 C 0.88484 0.54583 0.77412 0.0
O55 O 0.08526 0.54359 0.79406 0.0
Mg56 Mg 0.50882 0.53858 0.65769 0.0
O57 O 0.50433 0.61188 0.6501 0.0
O58 O 0.58774 0.63256 0.61927 0.0
Mg59 Mg 0.64701 0.57259 0.60907 0.0
C60 C 0.5371 0.64094 0.63504 0.0
C61 C 0.38151 0.51957 0.69545 0.0
O62 O 0.4095 0.48562 0.70923 0.0
O63 O 0.48595 0.52709 0.59673 0.0
O64 O 0.57452 0.54445 0.56935 0.0
O65 O 0.55994 0.54725 0.71101 0.0
O66 O 0.60519 0.53873 0.65678 0.0
C67 C 0.51974 0.53028 0.56809 0.0
C68 C 0.60978 0.54564 0.69182 0.0
O69 O 0.40862 0.54424 0.67282 0.0
Mg70 Mg 0.48438 0.95284 0.65704 0.0
O71 O 0.4901 0.87946 0.65054 0.0
O72 O 0.40776 0.85755 0.61924 0.0
Mg73 Mg 0.34756 0.91678 0.60803 0.0
C74 C 0.45827 0.84989 0.63545 0.0
C75 C 0.61156 0.97259 0.69533 0.0
O76 O 0.58355 0.00649 0.70918 0.0
O77 O 0.50827 0.96281 0.59611 0.0
O78 O 0.42047 0.94425 0.56832 0.0
O79 O 0.43233 0.94537 0.71011 0.0
O80 O 0.38788 0.95231 0.65545 0.0
C81 C 0.47517 0.9586 0.56725 0.0
C82 C 0.38275 0.94649 0.69062 0.0
O83 O 0.58442 0.94782 0.67277 0.0
Mg84 Mg 0.50831 0.45296 0.30944 0.0
O85 O 0.50328 0.37951 0.31542 0.0
O86 O 0.58673 0.35746 0.34556 0.0
Mg87 Mg 0.64665 0.41682 0.3568 0.0
C88 C 0.53583 0.34984 0.32979 0.0
C89 C 0.38127 0.47225 0.27152 0.0
O90 O 0.40985 0.50554 0.25709 0.0
O91 O 0.48606 0.4624 0.37068 0.0
O92 O 0.57464 0.44369 0.39747 0.0
O93 O 0.55873 0.44591 0.25578 0.0
O94 O 0.60475 0.45254 0.31002 0.0
C95 C 0.51992 0.45795 0.39919 0.0
C96 C 0.60884 0.44685 0.27478 0.0
O97 O 0.40796 0.44793 0.29463 0.0
Mg98 Mg 0.48448 0.03823 0.3092 0.0
O99 O 0.48914 0.11162 0.31568 0.0
O100 O 0.40674 0.13303 0.34713 0.0
Mg101 Mg 0.3477 0.0733 0.35872 0.0
C102 C 0.45689 0.14102 0.33068 0.0
C103 C 0.61056 0.01902 0.27007 0.0
O104 O 0.58274 0.98438 0.25748 0.0
O105 O 0.50915 0.02786 0.37007 0.0
O106 O 0.42117 0.0456 0.39801 0.0
O107 O 0.43201 0.04578 0.25637 0.0
O108 O 0.38803 0.03826 0.3111 0.0
C109 C 0.476 0.03144 0.39896 0.0
C110 C 0.38263 0.04444 0.27599 0.0
O111 O 0.58402 0.04403 0.29268 0.0
C112 C -0.00726 0.26792 0.13908 0.0
C113 C 0.97922 0.30574 0.1384 0.0
C114 C 0.0056 0.22315 0.13907 0.0
C115 C 0.01827 0.18518 0.13834 0.0
C116 C 0.00374 0.76785 0.82998 0.0
C117 C 0.01664 0.80578 0.8302 0.0
C118 C -0.00898 0.72306 0.82989 0.0
C119 C 0.97776 0.6852 0.82993 0.0
C120 C 0.50509 0.72323 0.63784 0.0
C121 C 0.51789 0.68528 0.63721 0.0
C122 C 0.49224 0.76801 0.63806 0.0
C123 C 0.4788 0.80585 0.63763 0.0
C124 C 0.50231 0.26791 0.32653 0.0
C125 C 0.51559 0.30577 0.32731 0.0
C126 C 0.48932 0.22316 0.32676 0.0
C127 C 0.47636 0.18525 0.32786 0.0
C128 C 0.27406 0.05116 0.24362 0.0
C129 C 0.32328 0.04805 0.25875 0.0
C130 C 0.21663 0.05112 0.22524 0.0
C131 C 0.16772 0.04796 0.20975 0.0
C132 C 0.71663 0.4403 0.24149 0.0
C133 C 0.66757 0.44331 0.25679 0.0
C134 C 0.77433 0.44014 0.22345 0.0
C135 C 0.82371 0.44293 0.20852 0.0
C136 C 0.21693 0.94028 0.74169 0.0
C137 C 0.16798 0.94299 0.75717 0.0
C138 C 0.27433 0.94035 0.72327 0.0
C139 C 0.3235 0.94319 0.70804 0.0
C140 C 0.71842 0.55326 0.72397 0.0
C141 C 0.66882 0.54979 0.70937 0.0
C142 C 0.77671 0.55332 0.74133 0.0
C143 C 0.82616 0.54993 0.75613 0.0
C144 C 0.71995 0.95402 0.72216 0.0
C145 C 0.6706 0.96068 0.7088 0.0
C146 C 0.77702 0.954 0.73986 0.0
C147 C 0.82523 0.96065 0.75467 0.0
C148 C 0.2738 0.53842 0.72303 0.0
C149 C 0.32282 0.53174 0.70926 0.0
C150 C 0.217 0.53823 0.741 0.0
C151 C 0.16877 0.53125 0.75565 0.0
C152 C 0.71679 0.03836 0.24068 0.0
C153 C 0.66842 0.03132 0.25513 0.0
C154 C 0.77376 0.03846 0.22292 0.0
C155 C 0.82275 0.03166 0.20917 0.0
C156 C 0.21616 0.45368 0.22658 0.0
C157 C 0.16792 0.46061 0.21188 0.0
C158 C 0.27314 0.45358 0.24439 0.0
C159 C 0.32233 0.46027 0.25796 0.0
C160 C -0.01339 0.00456 0.00138 0.0
C161 C -0.00288 0.01642 0.03256 0.0
C162 C -0.01355 0.98912 0.96456 0.0
C163 C -0.00331 0.97666 0.93352 0.0
C164 C 0.00307 0.50409 0.96505 0.0
C165 C -0.00713 0.51594 0.93384 0.0
C166 C 0.00382 0.48873 0.00188 0.0
C167 C -0.00546 0.47619 0.03299 0.0
C168 C 0.48828 0.48532 0.46557 0.0
C169 C 0.49859 0.47357 0.43434 0.0
C170 C 0.4881 0.50081 0.50237 0.0
C171 C 0.49817 0.51351 0.53336 0.0
C172 C 0.5081 0.98662 0.50135 0.0
C173 C 0.49733 0.97459 0.53243 0.0
C174 C 0.50843 0.00224 0.4646 0.0
C175 C 0.49813 0.01479 0.43359 0.0
loop_
_geom_bond_atom_site_label_1
_geom_bond_atom_site_label_2
_geom_bond_distance
_geom_bond_site_symmetry_2
_ccdc_geom_bond_type
Mg0 O1 2.028 . S
Mg0 O7 1.986 . S
Mg0 O9 2.114 . S
Mg0 O10 2.251 . S
Mg0 O13 2.010 1_455 S
O1 Mg0 2.028 . S
O1 C4 1.250 . S
O2 Mg3 2.028 . S
O2 C4 1.248 . S
Mg3 O2 2.028 . S
Mg3 O8 2.032 . S
Mg3 O10 2.079 . S
C4 O1 1.250 . S
C4 O2 1.248 . S
C5 O6 1.264 1_545 S
C5 O13 1.249 . S
O6 C5 1.264 1_565 S
O7 Mg0 1.986 . S
O7 C11 1.246 . S
O8 Mg3 2.032 . S
O8 C11 1.259 . S
O9 Mg0 2.114 . S
O9 C12 1.252 . S
O10 Mg0 2.251 . S
O10 Mg3 2.079 . S
O10 C12 1.273 . S
C11 O7 1.246 . S
C11 O8 1.259 . S
C12 O9 1.252 . S
C12 O10 1.273 . S
O13 Mg0 2.010 1_655 S
O13 C5 1.249 . S
Mg14 O15 2.028 . S
Mg14 O21 1.986 . S
Mg14 O23 2.114 1_455 S
Mg14 O24 2.251 1_455 S
Mg14 O27 2.010 . S
O15 Mg14 2.028 . S
O15 C18 1.250 1_455 S
O16 Mg17 2.028 . S
O16 C18 1.248 . S
Mg17 O16 2.028 . S
Mg17 O22 2.032 . S
Mg17 O24 2.079 . S
C18 O15 1.250 1_655 S
C18 O16 1.248 . S
C19 O20 1.264 . S
C19 O27 1.249 . S
O20 C19 1.264 . S
O21 Mg14 1.986 . S
O21 C25 1.246 1_455 S
O22 Mg17 2.032 . S
O22 C25 1.259 . S
O23 Mg14 2.114 1_655 S
O23 C26 1.252 . S
O24 Mg14 2.251 1_655 S
O24 Mg17 2.079 . S
O24 C26 1.273 . S
C25 O21 1.246 1_655 S
C25 O22 1.259 . S
C26 O23 1.252 . S
C26 O24 1.273 . S
O27 Mg14 2.010 . S
O27 C19 1.249 . S
Mg28 O29 2.028 . S
Mg28 O35 1.986 . S
Mg28 O37 2.114 . S
Mg28 O38 2.251 . S
Mg28 O41 2.010 1_455 S
O29 Mg28 2.028 . S
O29 C32 1.250 . S
O30 Mg31 2.028 . S
O30 C32 1.248 . S
Mg31 O30 2.028 . S
Mg31 O36 2.032 . S
Mg31 O38 2.079 . S
C32 O29 1.250 . S
C32 O30 1.248 . S
C33 O34 1.264 1_565 S
C33 O41 1.249 . S
O34 C33 1.264 1_545 S
O35 Mg28 1.986 . S
O35 C39 1.246 . S
O36 Mg31 2.032 . S
O36 C39 1.259 . S
O37 Mg28 2.114 . S
O37 C40 1.252 . S
O38 Mg28 2.251 . S
O38 Mg31 2.079 . S
O38 C40 1.273 . S
C39 O35 1.246 . S
C39 O36 1.259 . S
C40 O37 1.252 . S
C40 O38 1.273 . S
O41 Mg28 2.010 1_655 S
O41 C33 1.249 . S
Mg42 O43 2.028 . S
Mg42 O49 1.986 . S
Mg42 O51 2.114 1_455 S
Mg42 O52 2.251 1_455 S
Mg42 O55 2.010 . S
O43 Mg42 2.028 . S
O43 C46 1.250 1_455 S
O44 Mg45 2.028 . S
O44 C46 1.248 . S
Mg45 O44 2.028 . S
Mg45 O50 2.032 . S
Mg45 O52 2.079 . S
C46 O43 1.250 1_655 S
C46 O44 1.248 . S
C47 O48 1.264 . S
C47 O55 1.249 . S
O48 C47 1.264 . S
O49 Mg42 1.986 . S
O49 C53 1.246 1_455 S
O50 Mg45 2.032 . S
O50 C53 1.259 . S
O51 Mg42 2.114 1_655 S
O51 C54 1.252 . S
O52 Mg42 2.251 1_655 S
O52 Mg45 2.079 . S
O52 C54 1.273 . S
C53 O49 1.246 1_655 S
C53 O50 1.259 . S
C54 O51 1.252 . S
C54 O52 1.273 . S
O55 Mg42 2.010 . S
O55 C47 1.249 . S
Mg56 O57 2.028 . S
Mg56 O63 1.986 . S
Mg56 O65 2.114 . S
Mg56 O66 2.251 . S
Mg56 O69 2.010 . S
O57 Mg56 2.028 . S
O57 C60 1.250 . S
O58 Mg59 2.028 . S
O58 C60 1.248 . S
Mg59 O58 2.028 . S
Mg59 O64 2.032 . S
Mg59 O66 2.079 . S
C60 O57 1.250 . S
C60 O58 1.248 . S
C61 O62 1.264 . S
C61 O69 1.249 . S
O62 C61 1.264 . S
O63 Mg56 1.986 . S
O63 C67 1.246 . S
O64 Mg59 2.032 . S
O64 C67 1.259 . S
O65 Mg56 2.114 . S
O65 C68 1.252 . S
O66 Mg56 2.251 . S
O66 Mg59 2.079 . S
O66 C68 1.273 . S
C67 O63 1.246 . S
C67 O64 1.259 . S
C68 O65 1.252 . S
C68 O66 1.273 . S
O69 Mg56 2.010 . S
O69 C61 1.249 . S
Mg70 O71 2.028 . S
Mg70 O77 1.986 . S
Mg70 O79 2.114 . S
Mg70 O80 2.251 . S
Mg70 O83 2.010 . S
O71 Mg70 2.028 . S
O71 C74 1.250 . S
O72 Mg73 2.028 . S
O72 C74 1.248 . S
Mg73 O72 2.028 . S
Mg73 O78 2.032 . S
Mg73 O80 2.079 . S
C74 O71 1.250 . S
C74 O72 1.248 . S
C75 O76 1.264 1_565 S
C75 O83 1.249 . S
O76 C75 1.264 1_545 S
O77 Mg70 1.986 . S
O77 C81 1.246 . S
O78 Mg73 2.032 . S
O78 C81 1.259 . S
O79 Mg70 2.114 . S
O79 C82 1.252 . S
O80 Mg70 2.251 . S
O80 Mg73 2.079 . S
O80 C82 1.273 . S
C81 O77 1.246 . S
C81 O78 1.259 . S
C82 O79 1.252 . S
C82 O80 1.273 . S
O83 Mg70 2.010 . S
O83 C75 1.249 . S
Mg84 O85 2.028 . S
Mg84 O91 1.986 . S
Mg84 O93 2.114 . S
Mg84 O94 2.251 . S
Mg84 O97 2.010 . S
O85 Mg84 2.028 . S
O85 C88 1.250 . S
O86 Mg87 2.028 . S
O86 C88 1.248 . S
Mg87 O86 2.028 . S
Mg87 O92 2.032 . S
Mg87 O94 2.079 . S
C88 O85 1.250 . S
C88 O86 1.248 . S
C89 O90 1.264 . S
C89 O97 1.249 . S
O90 C89 1.264 . S
O91 Mg84 1.986 . S
O91 C95 1.246 . S
O92 Mg87 2.032 . S
O92 C95 1.259 . S
O93 Mg84 2.114 . S
O93 C96 1.252 . S
O94 Mg84 2.251 . S
O94 Mg87 2.079 . S
O94 C96 1.273 . S
C95 O91 1.246 . S
C95 O92 1.259 . S
C96 O93 1.252 . S
C96 O94 1.273 . S
O97 Mg84 2.010 . S
O97 C89 1.249 . S
Mg98 O99 2.028 . S
Mg98 O105 1.986 . S
Mg98 O107 2.114 . S
Mg98 O108 2.251 . S
Mg98 O111 2.010 . S
O99 Mg98 2.028 . S
O99 C102 1.250 . S
O100 Mg101 2.028 . S
O100 C102 1.248 . S
Mg101 O100 2.028 . S
Mg101 O106 2.032 . S
Mg101 O108 2.079 . S
C102 O99 1.250 . S
C102 O100 1.248 . S
C103 O104 1.264 1_545 S
C103 O111 1.249 . S
O104 C103 1.264 1_565 S
O105 Mg98 1.986 . S
O105 C109 1.246 . S
O106 Mg101 2.032 . S
O106 C109 1.259 . S
O107 Mg98 2.114 . S
O107 C110 1.252 . S
O108 Mg98 2.251 . S
O108 Mg101 2.079 . S
O108 C110 1.273 . S
C109 O105 1.246 . S
C109 O106 1.259 . S
C110 O107 1.252 . S
C110 O108 1.273 . S
O111 Mg98 2.010 . S
O111 C103 1.249 . S
C112 C113 1.170 . S
C112 C114 1.380 . S
C113 C112 1.170 . S
C114 C112 1.380 . S
C114 C115 1.170 . S
C115 C114 1.170 . S
C116 C117 1.170 . S
C116 C118 1.380 . S
C117 C116 1.170 . S
C118 C116 1.380 . S
C118 C119 1.170 . S
C119 C118 1.170 . S
C120 C121 1.170 . S
C120 C122 1.380 . S
C121 C120 1.170 . S
C122 C120 1.380 . S
C122 C123 1.170 . S
C123 C122 1.170 . S
C124 C125 1.170 . S
C124 C126 1.380 . S
C125 C124 1.170 . S
C126 C124 1.380 . S
C126 C127 1.170 . S
C127 C126 1.170 . S
C128 C129 1.170 . S
C128 C130 1.380 . S
C129 C128 1.170 . S
C130 C128 1.380 . S
C130 C131 1.170 . S
C131 C130 1.170 . S
C132 C133 1.170 . S
C132 C134 1.380 . S
C133 C132 1.170 . S
C134 C132 1.380 . S
C134 C135 1.170 . S
C135 C134 1.170 . S
C136 C137 1.170 . S
C136 C138 1.380 . S
C137 C136 1.170 . S
C138 C136 1.380 . S
C138 C139 1.170 . S
C139 C138 1.170 . S
C140 C141 1.170 . S
C140 C142 1.380 . S
C141 C140 1.170 . S
C142 C140 1.380 . S
C142 C143 1.170 . S
C143 C142 1.170 . S
C144 C145 1.170 . S
C144 C146 1.380 . S
C145 C144 1.170 . S
C146 C144 1.380 . S
C146 C147 1.170 . S
C147 C146 1.170 . S
C148 C149 1.170 . S
C148 C150 1.380 . S
C149 C148 1.170 . S
C150 C148 1.380 . S
C150 C151 1.170 . S
C151 C150 1.170 . S
C152 C153 1.170 . S
C152 C154 1.380 . S
C153 C152 1.170 . S
C154 C152 1.380 . S
C154 C155 1.170 . S
C155 C154 1.170 . S
C156 C157 1.170 . S
C156 C158 1.380 . S
C157 C156 1.170 . S
C158 C156 1.380 . S
C158 C159 1.170 . S
C159 C158 1.170 . S
C160 C161 1.170 . S
C160 C162 1.380 1_544 S
C161 C160 1.170 . S
C162 C160 1.380 1_566 S
C162 C163 1.170 . S
C163 C162 1.170 . S
C164 C165 1.170 . S
C164 C166 1.380 1_556 S
C165 C164 1.170 . S
C166 C164 1.380 1_554 S
C166 C167 1.170 . S
C167 C166 1.170 . S
C168 C169 1.170 . S
C168 C170 1.380 . S
C169 C168 1.170 . S
C170 C168 1.380 . S
C170 C171 1.170 . S
C171 C170 1.170 . S
C172 C173 1.170 . S
C172 C174 1.380 1_565 S
C173 C172 1.170 . S
C174 C172 1.380 1_545 S
C174 C175 1.170 . S
C175 C174 1.170 . S
C113 C18 1.490 1_455 S
C115 C4 1.466 . S
C117 C32 1.477 . S
C119 C46 1.480 1_455 S
C121 C60 1.465 . S
C123 C74 1.491 . S
C125 C88 1.483 . S
C127 C102 1.473 . S
C129 C110 1.506 . S
C131 C12 1.508 . S
C133 C96 1.511 . S
C135 C26 1.509 . S
C137 C40 1.512 . S
C139 C82 1.510 . S
C141 C68 1.501 . S
C143 C54 1.502 . S
C145 C75 1.263 . S
C147 C33 1.277 . S
C149 C61 1.289 . S
C151 C47 1.298 . S
C153 C103 1.298 . S
C155 C5 1.289 . S
C157 C19 1.284 . S
C159 C89 1.271 . S
C161 C11 1.361 . S
C163 C39 1.381 . S
C165 C53 1.352 . S
C167 C25 1.369 . S
C169 C95 1.350 . S
C171 C67 1.383 . S
C173 C81 1.363 . S
C175 C109 1.380 . S
