# Generated by pormake.
# Topology qtz-x, (6)-cn, num edge types: 1
# Building blocks:
#     Node 0, Type 0, BuildingBlock: GEDQOX_clean_sbu_0, # of connection points: 6
#     Node 1, Type 0, BuildingBlock: GEDQOX_clean_sbu_0, # of connection points: 6
#     Node 2, Type 0, BuildingBlock: GEDQOX_clean_sbu_0, # of connection points: 6
#     Edge 3, Type (0, 0), BuildingBlock: OJICUG_clean_linker_0, # of connection points: 2
#     Edge 4, Type (0, 0), BuildingBlock: OJICUG_clean_linker_0, # of connection points: 2
#     Edge 5, Type (0, 0), BuildingBlock: OJICUG_clean_linker_0, # of connection points: 2
#     Edge 6, Type (0, 0), BuildingBlock: OJICUG_clean_linker_0, # of connection points: 2
#     Edge 7, Type (0, 0), BuildingBlock: OJICUG_clean_linker_0, # of connection points: 2
#     Edge 8, Type (0, 0), BuildingBlock: OJICUG_clean_linker_0, # of connection points: 2
#     Edge 9, Type (0, 0), BuildingBlock: OJICUG_clean_linker_0, # of connection points: 2
#     Edge 10, Type (0, 0), BuildingBlock: OJICUG_clean_linker_0, # of connection points: 2
#     Edge 11, Type (0, 0), BuildingBlock: OJICUG_clean_linker_0, # of connection points: 2
# Relax obj value: 0.327
# Max RMSD: 0.311
# Mean RMSD: 0.268
data_MOF--net-qtz-x--node1-GEDQOX_clean_sbu_0--edge1-OJICUG_clean_linker_0
_symmetry_space_group_name_H-M    P1
_symmetry_Int_Tables_number       1
_symmetry_cell_setting            triclinic
loop_
_symmetry_equiv_pos_as_xyz
'x, y, z'
_cell_length_a     11.342988
_cell_length_b     11.416644
_cell_length_c     42.589937
_cell_angle_alpha  64.393846
_cell_angle_beta   120.63146
_cell_angle_gamma 122.06181
loop_
_atom_site_label
_atom_site_type_symbol
_atom_site_fract_x
_atom_site_fract_y
_atom_site_fract_z
_atom_type_partial_charge
Nd0 Nd 0.29074 0.78466 0.1805 0.0
Nd1 Nd 1.01634 0.64587 0.18387 0.0
C2 C 0.52413 -0.02558 0.16119 0.0
C3 C 0.56015 0.01212 0.12841 0.0
C4 C 0.5326 0.12441 0.09815 0.0
C5 C 0.55191 0.15112 0.06545 0.0
C6 C 0.59856 0.06561 0.06266 0.0
C7 C 0.63067 0.95682 0.09316 0.0
C8 C 0.6126 0.93075 0.12584 0.0
C9 C 0.19609 0.48952 0.1879 0.0
C10 C 1.02667 0.74113 0.09977 0.0
C11 C 0.81085 0.4691 0.2156 0.0
C12 C 0.81429 0.42955 0.25503 0.0
C13 C 0.84187 0.30947 0.28104 0.0
C14 C 0.84479 0.26993 0.31769 0.0
C15 C 0.81998 0.34833 0.3302 0.0
C16 C 0.79392 0.46964 0.30434 0.0
C17 C 0.79038 0.50903 0.26745 0.0
C18 C 0.10598 0.93877 0.17462 0.0
C19 C 0.30917 0.68792 0.26252 0.0
O20 O 0.41435 0.00198 0.1544 0.0
O21 O 0.51962 0.85176 0.18425 0.0
O22 O 0.32893 0.57506 0.20502 0.0
O23 O 0.11542 0.56141 0.16705 0.0
O24 O 0.15941 0.8281 0.11704 0.0
O25 O 0.94177 0.643 0.12012 0.0
O26 O 0.88894 0.42923 0.21116 0.0
O27 O 0.81773 0.59509 0.19478 0.0
O28 O 0.97524 0.85399 0.15628 0.0
O29 O 0.18705 0.86718 0.19669 0.0
O30 O 0.17382 0.60079 0.246 0.0
O31 O 0.38275 0.79267 0.24153 0.0
H32 H 0.49245 0.18923 0.0994 0.0
H33 H 0.52634 0.23531 0.04206 0.0
H34 H 0.66818 0.89072 0.09148 0.0
H35 H 0.63608 0.84446 0.14866 0.0
H36 H 0.86145 0.24499 0.27307 0.0
H37 H 0.86806 0.17757 0.33644 0.0
H38 H 0.77305 0.53309 0.3123 0.0
H39 H 0.76824 0.60187 0.2486 0.0
Nd40 Nd 0.79127 0.88974 0.56177 0.0
Nd41 Nd 0.99007 0.18828 0.571 0.0
C42 C 0.67536 0.65711 0.53825 0.0
C43 C 0.63225 0.64022 0.50038 0.0
C44 C 0.7365 0.70537 0.48299 0.0
C45 C 0.68965 0.70431 0.44544 0.0
C46 C 0.53682 0.63976 0.4239 0.0
C47 C 0.43352 0.5721 0.44181 0.0
C48 C 0.48061 0.5716 0.4794 0.0
C49 C 0.60344 -0.0188 0.55961 0.0
C50 C 0.83852 0.15718 0.48587 0.0
C51 C 0.13782 0.43465 0.58953 0.0
C52 C 0.16965 0.47771 0.62175 0.0
C53 C 1.0544 0.44217 0.63239 0.0
C54 C 0.08827 0.46507 0.66616 0.0
C55 C 0.23791 0.52138 0.69023 0.0
C56 C 0.35309 0.55532 0.67964 0.0
C57 C 0.31914 0.53475 0.64554 0.0
C58 C 0.17401 0.08892 0.57302 0.0
C59 C 0.90966 0.94552 0.64521 0.0
O60 O 0.81756 0.71509 0.55829 0.0
O61 O 0.59561 0.70352 0.5397 0.0
O62 O 0.56553 0.85839 0.55576 0.0
O63 O 0.74221 0.05841 0.56383 0.0
O64 O 0.78737 0.01922 0.50091 0.0
O65 O 0.9095 0.24986 0.50675 0.0
O66 O 1.00079 0.39765 0.56463 0.0
O67 O 0.19881 0.34887 0.59891 0.0
O68 O 0.21346 0.21168 0.57672 0.0
O69 O 1.03585 0.01683 0.56895 0.0
O70 O 0.95683 0.08017 0.62785 0.0
O71 O 0.85903 0.84489 0.62776 0.0
H72 H 0.85412 0.76059 0.49803 0.0
H73 H 0.77391 0.75574 0.43331 0.0
H74 H 0.31478 0.52341 0.42653 0.0
H75 H 0.39701 0.52175 0.49172 0.0
H76 H 0.93822 0.39428 0.61504 0.0
H77 H 0.99675 0.43952 0.67318 0.0
H78 H 0.46925 0.59592 0.69786 0.0
H79 H 0.40969 0.55874 0.63831 0.0
Nd80 Nd 0.10162 0.79558 0.89149 0.0
Nd81 Nd 0.91871 -0.01728 0.85655 0.0
C82 C 0.32856 0.75617 0.90405 0.0
C83 C 0.34725 0.73082 0.87617 0.0
C84 C 0.36315 0.83519 0.84335 0.0
C85 C 0.35645 0.80226 0.81435 0.0
C86 C 0.32971 0.66391 0.81731 0.0
C87 C 0.31146 0.56116 0.84961 0.0
C88 C 0.32416 0.59419 0.87921 0.0
C89 C 0.80401 0.61378 0.87544 0.0
C90 C 0.95015 0.89498 0.79652 0.0
C91 C 0.72982 0.0721 0.84606 0.0
C92 C 0.71161 0.07852 0.87714 0.0
C93 C 0.68785 0.95874 0.90646 0.0
C94 C 0.67901 0.96541 0.93702 0.0
C95 C 0.69425 0.0922 0.9392 0.0
C96 C 0.73297 0.21471 0.91188 0.0
C97 C 0.73929 0.20806 0.88075 0.0
C98 C 0.22207 0.15969 0.87337 0.0
C99 C 1.02457 0.8343 0.95059 0.0
O100 O 0.33565 0.88272 0.89714 0.0
O101 O 0.21947 0.65431 0.91557 0.0
O102 O 0.91206 0.57312 0.88958 0.0
O103 O 0.85683 0.74853 0.86945 0.0
O104 O 1.03221 0.82851 0.8267 0.0
O105 O 0.88998 0.96038 0.80018 0.0
O106 O 0.68703 0.94537 0.84257 0.0
O107 O 0.85858 0.16035 0.84245 0.0
O108 O 0.11639 0.20408 0.85679 0.0
O109 O 0.16048 0.02582 0.87884 0.0
O110 O 0.95303 0.9102 0.92058 0.0
O111 O 0.10094 0.78454 0.94772 0.0
H112 H 0.37744 0.94143 0.83961 0.0
H113 H 0.36727 0.88347 0.78925 0.0
H114 H 0.28374 0.45408 0.85149 0.0
H115 H 0.30753 0.51081 0.90359 0.0
H116 H 0.67457 0.85857 0.90578 0.0
H117 H 0.65826 0.87022 0.95872 0.0
H118 H 0.75602 0.31489 0.91438 0.0
H119 H 0.76742 0.3041 0.85979 0.0
C120 C 0.21472 0.2138 0.16065 0.0
C121 C 0.13162 0.07993 0.1787 0.0
H122 H 0.29848 0.44291 0.14876 0.0
C123 C 1.06391 0.08377 0.19836 0.0
H124 H 0.26615 0.21809 0.14441 0.0
C125 C 0.08139 0.21416 0.20058 0.0
C126 C 0.16622 0.34814 0.18292 0.0
H127 H 0.99721 -0.01507 0.21236 0.0
H128 H 1.02953 0.20984 0.21672 0.0
C129 C 0.23228 0.34413 0.16289 0.0
C130 C 0.5302 0.14122 0.56792 0.0
C131 C 0.49492 0.01085 0.56305 0.0
H132 H 0.45867 0.26615 0.57471 0.0
C133 C 0.35088 0.90282 0.56207 0.0
H134 H 0.63856 0.22681 0.56906 0.0
C135 C 0.24602 0.92467 0.56543 0.0
C136 C 0.28117 0.05575 0.57002 0.0
H137 H 0.31844 0.79967 0.55874 0.0
H138 H 0.13781 0.83899 0.56441 0.0
C139 C 0.42562 0.16303 0.57128 0.0
C140 C 0.42577 0.30757 0.84665 0.0
C141 C 0.3811 0.25896 0.87702 0.0
H142 H 0.59128 0.46008 0.82165 0.0
C143 C 0.47248 0.33737 0.90522 0.0
H144 H 0.35607 0.2535 0.82376 0.0
C145 C 0.60327 0.46044 0.90299 0.0
C146 C 0.64755 0.50891 0.87257 0.0
H147 H 0.43906 0.307 0.92827 0.0
H148 H 0.67225 0.51568 0.92565 0.0
C149 C 0.55783 0.42932 0.84472 0.0
C150 C 0.74343 0.21147 0.9853 0.0
C151 C 0.6627 0.09373 0.96887 0.0
H152 H 0.78357 0.29569 1.0279 0.0
C153 C 0.54909 -0.02489 0.98095 0.0
H154 H 0.83132 0.30499 0.97671 0.0
C155 C 0.52319 -0.02994 1.01015 0.0
C156 C 0.60937 0.08387 1.0278 0.0
H157 H 0.48136 0.88414 0.96844 0.0
H158 H 0.43864 0.87516 1.01978 0.0
C159 C 0.71622 0.20671 1.01449 0.0
C160 C 0.88145 0.35344 0.42817 0.0
C161 C 0.8251 0.2078 0.44521 0.0
H162 H 0.92507 0.51199 0.37962 0.0
C163 C 0.76338 0.11042 0.42343 0.0
H164 H 0.93063 0.43272 0.44368 0.0
C165 C 0.76064 0.15623 0.38657 0.0
C166 C 0.8192 0.30142 0.36962 0.0
H167 H 0.71825 -0.00236 0.435 0.0
H168 H 0.71101 0.07697 0.37111 0.0
C169 C 0.87798 0.39931 0.39109 0.0
C170 C 0.96488 0.80826 0.75167 0.0
C171 C 0.92922 0.89804 0.75738 0.0
H172 H 0.98392 0.74719 0.71319 0.0
C173 C 0.8784 -0.00549 0.72509 0.0
H174 H 1.00459 0.73192 0.77532 0.0
C175 C 0.86878 0.00443 0.68948 0.0
C176 C 0.9059 0.91647 0.68367 0.0
H177 H 0.84965 0.06623 0.72741 0.0
H178 H 0.83304 0.08374 0.66612 0.0
C179 C 0.952 0.81612 0.71563 0.0
C180 C 1.00883 0.90507 0.99767 0.0
C181 C 1.01477 0.80412 0.98828 0.0
H182 H 1.00659 0.9648 1.03899 0.0
C183 C 1.00528 0.67353 1.01485 0.0
H184 H 1.01548 0.00688 0.97849 0.0
C185 C 0.99349 0.6468 0.0494 0.0
C186 C 0.99257 0.75005 0.05922 0.0
H187 H 1.00731 0.59138 1.00901 0.0
H188 H 0.99288 0.54741 0.06932 0.0
C189 C 1.00118 0.87985 1.03247 0.0
C190 C 0.50614 0.77675 0.32133 0.0
C191 C 0.37333 0.67085 0.30404 0.0
H192 H 0.66126 0.85077 0.3718 0.0
C193 C 0.29872 0.55126 0.32673 0.0
H194 H 0.56661 0.87073 0.30483 0.0
C195 C 0.35349 0.53935 0.36543 0.0
C196 C 0.48419 0.64731 0.38279 0.0
H197 H 0.19674 0.46683 0.31454 0.0
H198 H 0.29251 0.44484 0.38167 0.0
C199 C 0.56069 0.76508 0.36003 0.0
C200 C 0.19772 0.49633 0.77579 0.0
C201 C 0.31357 0.62346 0.78636 0.0
H202 H 0.08772 0.36068 0.73842 0.0
C203 C 0.41317 0.71048 0.76731 0.0
H204 H 0.11913 0.42697 0.78998 0.0
C205 C 0.39269 0.67432 0.73699 0.0
C206 C 0.27251 0.55017 0.72535 0.0
H207 H 0.50559 0.80728 0.77554 0.0
H208 H 0.4675 0.74667 0.72183 0.0
C209 C 0.17857 0.45918 0.74593 0.0
loop_
_geom_bond_atom_site_label_1
_geom_bond_atom_site_label_2
_geom_bond_distance
_geom_bond_site_symmetry_2
_ccdc_geom_bond_type
Nd0 C2 2.836 . S
Nd0 O20 2.500 1_565 S
Nd0 O21 2.492 . S
Nd0 O22 2.487 . S
Nd0 O23 2.682 1_455 S
Nd0 O24 2.410 1_455 S
Nd0 O29 2.414 . S
Nd0 O31 2.424 . S
Nd1 C11 2.836 . S
Nd1 O23 2.414 . S
Nd1 O25 2.424 . S
Nd1 O26 2.500 . S
Nd1 O27 2.492 . S
Nd1 O28 2.487 . S
Nd1 O29 2.682 1_655 S
Nd1 O30 2.410 1_655 S
C2 Nd0 2.836 . S
C2 C3 1.498 1_565 S
C2 O20 1.258 1_565 S
C2 O21 1.239 . S
C3 C2 1.498 1_545 S
C3 C4 1.366 . S
C3 C8 1.407 1_545 S
C4 C3 1.366 . S
C4 C5 1.392 1_554 S
C4 H32 0.930 . S
C5 C4 1.392 1_556 S
C5 C6 1.398 . S
C5 H33 0.929 . S
C6 C5 1.398 . S
C6 C7 1.352 1_556 S
C7 C6 1.352 1_554 S
C7 C8 1.384 1_545 S
C7 H34 0.930 1_545 S
C8 C3 1.407 1_565 S
C8 C7 1.384 1_565 S
C8 H35 0.929 . S
C9 O22 1.241 . S
C9 O23 1.273 1_455 S
C10 O24 1.251 . S
C10 O25 1.268 . S
C11 Nd1 2.836 . S
C11 C12 1.498 . S
C11 O26 1.258 . S
C11 O27 1.239 . S
C12 C11 1.498 . S
C12 C13 1.366 . S
C12 C17 1.407 . S
C13 C12 1.366 . S
C13 C14 1.392 . S
C13 H36 0.930 . S
C14 C13 1.392 . S
C14 C15 1.398 . S
C14 H37 0.929 . S
C15 C14 1.398 . S
C15 C16 1.352 . S
C16 C15 1.352 . S
C16 C17 1.384 . S
C16 H38 0.930 . S
C17 C12 1.407 . S
C17 C16 1.384 . S
C17 H39 0.929 . S
C18 O28 1.241 . S
C18 O29 1.273 1_655 S
C19 O30 1.251 . S
C19 O31 1.268 . S
O20 Nd0 2.500 1_545 S
O20 C2 1.258 1_545 S
O21 Nd0 2.492 . S
O21 C2 1.239 . S
O22 Nd0 2.487 . S
O22 C9 1.241 . S
O23 Nd0 2.682 1_655 S
O23 Nd1 2.414 . S
O23 C9 1.273 1_655 S
O24 Nd0 2.410 1_655 S
O24 C10 1.251 . S
O25 Nd1 2.424 . S
O25 C10 1.268 . S
O26 Nd1 2.500 . S
O26 C11 1.258 . S
O27 Nd1 2.492 . S
O27 C11 1.239 . S
O28 Nd1 2.487 . S
O28 C18 1.241 . S
O29 Nd0 2.414 . S
O29 Nd1 2.682 1_455 S
O29 C18 1.273 1_455 S
O30 Nd1 2.410 1_455 S
O30 C19 1.251 . S
O31 Nd0 2.424 . S
O31 C19 1.268 . S
H32 C4 0.930 . S
H33 C5 0.929 . S
H34 C7 0.930 1_565 S
H35 C8 0.929 . S
H36 C13 0.930 . S
H37 C14 0.929 . S
H38 C16 0.930 . S
H39 C17 0.929 . S
Nd40 C42 2.836 . S
Nd40 O60 2.500 . S
Nd40 O61 2.492 . S
Nd40 O62 2.487 . S
Nd40 O63 2.682 1_565 S
Nd40 O64 2.410 1_565 S
Nd40 O69 2.414 . S
Nd40 O71 2.424 . S
Nd41 C51 2.836 1_655 S
Nd41 O63 2.414 . S
Nd41 O65 2.424 . S
Nd41 O66 2.500 . S
Nd41 O67 2.492 1_655 S
Nd41 O68 2.487 1_655 S
Nd41 O69 2.682 1_545 S
Nd41 O70 2.410 1_545 S
C42 Nd40 2.836 . S
C42 C43 1.498 . S
C42 O60 1.258 . S
C42 O61 1.239 . S
C43 C42 1.498 . S
C43 C44 1.366 . S
C43 C48 1.407 . S
C44 C43 1.366 . S
C44 C45 1.392 . S
C44 H72 0.930 . S
C45 C44 1.392 . S
C45 C46 1.398 . S
C45 H73 0.929 . S
C46 C45 1.398 . S
C46 C47 1.352 . S
C47 C46 1.352 . S
C47 C48 1.384 . S
C47 H74 0.930 . S
C48 C43 1.407 . S
C48 C47 1.384 . S
C48 H75 0.929 . S
C49 O62 1.241 . S
C49 O63 1.273 1_565 S
C50 O64 1.251 . S
C50 O65 1.268 . S
C51 Nd41 2.836 1_455 S
C51 C52 1.498 . S
C51 O66 1.258 1_455 S
C51 O67 1.239 . S
C52 C51 1.498 . S
C52 C53 1.366 . S
C52 C57 1.407 . S
C53 C52 1.366 . S
C53 C54 1.392 . S
C53 H76 0.930 1_455 S
C54 C53 1.392 . S
C54 C55 1.398 . S
C54 H77 0.929 . S
C55 C54 1.398 . S
C55 C56 1.352 . S
C56 C55 1.352 . S
C56 C57 1.384 . S
C56 H78 0.930 . S
C57 C52 1.407 . S
C57 C56 1.384 . S
C57 H79 0.929 . S
C58 O68 1.241 . S
C58 O69 1.273 1_445 S
C59 O70 1.251 . S
C59 O71 1.268 . S
O60 Nd40 2.500 . S
O60 C42 1.258 . S
O61 Nd40 2.492 . S
O61 C42 1.239 . S
O62 Nd40 2.487 . S
O62 C49 1.241 . S
O63 Nd40 2.682 1_545 S
O63 Nd41 2.414 . S
O63 C49 1.273 1_545 S
O64 Nd40 2.410 1_545 S
O64 C50 1.251 . S
O65 Nd41 2.424 . S
O65 C50 1.268 . S
O66 Nd41 2.500 . S
O66 C51 1.258 1_655 S
O67 Nd41 2.492 1_455 S
O67 C51 1.239 . S
O68 Nd41 2.487 1_455 S
O68 C58 1.241 . S
O69 Nd40 2.414 . S
O69 Nd41 2.682 1_565 S
O69 C58 1.273 1_665 S
O70 Nd41 2.410 1_565 S
O70 C59 1.251 . S
O71 Nd40 2.424 . S
O71 C59 1.268 . S
H72 C44 0.930 . S
H73 C45 0.929 . S
H74 C47 0.930 . S
H75 C48 0.929 . S
H76 C53 0.930 1_655 S
H77 C54 0.929 . S
H78 C56 0.930 . S
H79 C57 0.929 . S
Nd80 C82 2.836 . S
Nd80 O100 2.500 . S
Nd80 O101 2.492 . S
Nd80 O102 2.487 1_455 S
Nd80 O103 2.682 1_455 S
Nd80 O104 2.410 1_455 S
Nd80 O109 2.414 1_565 S
Nd80 O111 2.424 . S
Nd81 C91 2.836 . S
Nd81 O103 2.414 1_545 S
Nd81 O105 2.424 . S
Nd81 O106 2.500 . S
Nd81 O107 2.492 . S
Nd81 O108 2.487 1_655 S
Nd81 O109 2.682 1_655 S
Nd81 O110 2.410 1_655 S
C82 Nd80 2.836 . S
C82 C83 1.498 . S
C82 O100 1.258 . S
C82 O101 1.239 . S
C83 C82 1.498 . S
C83 C84 1.366 . S
C83 C88 1.407 . S
C84 C83 1.366 . S
C84 C85 1.392 . S
C84 H112 0.921 1_565 S
C85 C84 1.392 . S
C85 C86 1.398 . S
C85 H113 0.929 . S
C86 C85 1.398 . S
C86 C87 1.352 . S
C87 C86 1.352 . S
C87 C88 1.384 . S
C87 H114 0.930 . S
C88 C83 1.407 . S
C88 C87 1.384 . S
C88 H115 0.929 . S
C89 O102 1.241 . S
C89 O103 1.273 . S
C90 O104 1.251 1_545 S
C90 O105 1.268 . S
C91 Nd81 2.836 . S
C91 C92 1.498 . S
C91 O106 1.258 . S
C91 O107 1.239 . S
C92 C91 1.498 . S
C92 C93 1.366 . S
C92 C97 1.407 . S
C93 C92 1.366 . S
C93 C94 1.392 . S
C93 H116 0.930 1_545 S
C94 C93 1.392 . S
C94 C95 1.398 . S
C94 H117 0.929 . S
C95 C94 1.398 . S
C95 C96 1.352 . S
C96 C95 1.352 . S
C96 C97 1.384 . S
C96 H118 0.930 . S
C97 C92 1.407 . S
C97 C96 1.384 . S
C97 H119 0.929 . S
C98 O108 1.241 . S
C98 O109 1.273 . S
C99 O110 1.251 1_565 S
C99 O111 1.268 . S
O100 Nd80 2.500 . S
O100 C82 1.258 . S
O101 Nd80 2.492 . S
O101 C82 1.239 . S
O102 Nd80 2.487 1_655 S
O102 C89 1.241 . S
O103 Nd80 2.682 1_655 S
O103 Nd81 2.414 1_565 S
O103 C89 1.273 . S
O104 Nd80 2.410 1_655 S
O104 C90 1.251 1_565 S
O105 Nd81 2.424 . S
O105 C90 1.268 . S
O106 Nd81 2.500 . S
O106 C91 1.258 . S
O107 Nd81 2.492 . S
O107 C91 1.239 . S
O108 Nd81 2.487 1_455 S
O108 C98 1.241 . S
O109 Nd80 2.414 1_545 S
O109 Nd81 2.682 1_455 S
O109 C98 1.273 . S
O110 Nd81 2.410 1_455 S
O110 C99 1.251 1_545 S
O111 Nd80 2.424 . S
O111 C99 1.268 . S
H112 C84 0.921 1_545 S
H113 C85 0.929 . S
H114 C87 0.930 . S
H115 C88 0.929 . S
H116 C93 0.930 1_565 S
H117 C94 0.929 . S
H118 C96 0.930 . S
H119 C97 0.929 . S
C120 C121 1.388 . S
C120 H124 0.950 . S
C120 C129 1.390 . S
C121 C120 1.388 . S
C121 C123 1.383 1_455 S
H122 C129 0.950 . S
C123 C121 1.383 1_655 S
C123 C125 1.390 . S
C123 H127 0.950 . S
H124 C120 0.950 . S
C125 C123 1.390 . S
C125 C126 1.388 . S
C125 H128 0.950 . S
C126 C125 1.388 . S
C126 C129 1.385 1_655 S
H127 C123 0.950 . S
H128 C125 0.950 . S
C129 C120 1.390 . S
C129 H122 0.950 . S
C129 C126 1.385 1_455 S
C130 C131 1.387 1_545 S
C130 H134 0.950 . S
C130 C139 1.390 . S
C131 C130 1.387 1_565 S
C131 C133 1.387 . S
H132 C139 0.950 . S
C133 C131 1.387 . S
C133 C135 1.390 . S
C133 H137 0.950 . S
H134 C130 0.950 . S
C135 C133 1.390 . S
C135 C136 1.387 1_565 S
C135 H138 0.950 . S
C136 C135 1.387 1_545 S
C136 C139 1.387 . S
H137 C133 0.950 . S
H138 C135 0.950 . S
C139 C130 1.390 . S
C139 H132 0.950 . S
C139 C136 1.387 . S
C140 C141 1.387 . S
C140 H144 0.950 . S
C140 C149 1.390 . S
C141 C140 1.387 . S
C141 C143 1.387 . S
H142 C149 0.950 . S
C143 C141 1.387 . S
C143 C145 1.390 . S
C143 H147 0.950 . S
H144 C140 0.950 . S
C145 C143 1.390 . S
C145 C146 1.387 . S
C145 H148 0.950 . S
C146 C145 1.387 . S
C146 C149 1.387 . S
H147 C143 0.950 . S
H148 C145 0.950 . S
C149 C140 1.390 . S
C149 H142 0.950 . S
C149 C146 1.387 . S
C150 C151 1.387 . S
C150 H154 0.950 . S
C150 C159 1.390 . S
C151 C150 1.387 . S
C151 C153 1.387 . S
H152 C159 0.950 . S
C153 C151 1.387 . S
C153 C155 1.390 . S
C153 H157 0.950 . S
H154 C150 0.950 . S
C155 C153 1.390 . S
C155 C156 1.387 . S
C155 H158 0.950 1_545 S
C156 C155 1.387 . S
C156 C159 1.387 . S
H157 C153 0.950 . S
H158 C155 0.950 1_565 S
C159 C150 1.390 . S
C159 H152 0.950 . S
C159 C156 1.387 . S
C160 C161 1.387 . S
C160 H164 0.950 . S
C160 C169 1.390 . S
C161 C160 1.387 . S
C161 C163 1.387 . S
H162 C169 0.950 . S
C163 C161 1.387 . S
C163 C165 1.390 . S
C163 H167 0.950 1_545 S
H164 C160 0.950 . S
C165 C163 1.390 . S
C165 C166 1.387 . S
C165 H168 0.950 . S
C166 C165 1.387 . S
C166 C169 1.387 . S
H167 C163 0.950 1_565 S
H168 C165 0.950 . S
C169 C160 1.390 . S
C169 H162 0.950 . S
C169 C166 1.387 . S
C170 C171 1.387 1_565 S
C170 H174 0.950 . S
C170 C179 1.390 . S
C171 C170 1.387 1_545 S
C171 C173 1.387 . S
H172 C179 0.950 . S
C173 C171 1.387 . S
C173 C175 1.390 . S
C173 H177 0.950 . S
H174 C170 0.950 . S
C175 C173 1.390 . S
C175 C176 1.387 1_545 S
C175 H178 0.950 . S
C176 C175 1.387 1_565 S
C176 C179 1.387 . S
H177 C173 0.950 . S
H178 C175 0.950 . S
C179 C170 1.390 . S
C179 H172 0.950 . S
C179 C176 1.387 . S
C180 C181 1.387 1_455 S
C180 H184 0.950 1_565 S
C180 C189 1.390 1_455 S
C181 C180 1.387 1_655 S
C181 C183 1.387 . S
H182 C189 0.950 1_544 S
C183 C181 1.387 . S
C183 C185 1.390 . S
C183 H187 0.950 . S
H184 C180 0.950 1_545 S
C185 C183 1.390 . S
C185 C186 1.387 1_556 S
C185 H188 0.950 1_556 S
C186 C185 1.387 1_554 S
C186 C189 1.387 1_554 S
H187 C183 0.950 . S
H188 C185 0.950 1_554 S
C189 C180 1.390 1_655 S
C189 H182 0.950 1_566 S
C189 C186 1.387 1_556 S
C190 C191 1.387 . S
C190 H194 0.950 . S
C190 C199 1.390 . S
C191 C190 1.387 . S
C191 C193 1.387 . S
H192 C199 0.950 . S
C193 C191 1.387 . S
C193 C195 1.390 . S
C193 H197 0.950 . S
H194 C190 0.950 . S
C195 C193 1.390 . S
C195 C196 1.387 . S
C195 H198 0.950 . S
C196 C195 1.387 . S
C196 C199 1.387 . S
H197 C193 0.950 . S
H198 C195 0.950 . S
C199 C190 1.390 . S
C199 H192 0.950 . S
C199 C196 1.387 . S
C200 C201 1.387 . S
C200 H204 0.950 . S
C200 C209 1.390 . S
C201 C200 1.387 . S
C201 C203 1.387 . S
H202 C209 0.950 . S
C203 C201 1.387 . S
C203 C205 1.390 . S
C203 H207 0.950 . S
H204 C200 0.950 . S
C205 C203 1.390 . S
C205 C206 1.387 . S
C205 H208 0.950 . S
C206 C205 1.387 . S
C206 C209 1.387 . S
H207 C203 0.950 . S
H208 C205 0.950 . S
C209 C200 1.390 . S
C209 H202 0.950 . S
C209 C206 1.387 . S
C121 C18 1.937 1_445 S
C126 C9 1.936 1_655 S
C131 C49 1.992 . S
C136 C58 1.992 . S
C141 C98 1.599 . S
C146 C89 1.599 . S
C151 C95 1.030 . S
C156 C6 1.051 . S
C161 C50 2.278 . S
C166 C15 2.174 . S
C171 C90 2.792 . S
C176 C59 2.796 . S
C181 C99 2.720 1_655 S
C186 C10 2.598 . S
C191 C19 2.055 . S
C196 C46 1.853 . S
C201 C86 0.981 . S
C206 C55 0.999 . S
