# Generated by pormake.
# Topology uoo, (4)-cn, num edge types: 1
# Building blocks:
#     Node 0, Type 0, BuildingBlock: GALJAG_clean_sbu_0, # of connection points: 4
#     Node 1, Type 0, BuildingBlock: GALJAG_clean_sbu_0, # of connection points: 4
#     Node 2, Type 0, BuildingBlock: GALJAG_clean_sbu_0, # of connection points: 4
#     Node 3, Type 0, BuildingBlock: GALJAG_clean_sbu_0, # of connection points: 4
#     Node 4, Type 0, BuildingBlock: GALJAG_clean_sbu_0, # of connection points: 4
#     Node 5, Type 0, BuildingBlock: GALJAG_clean_sbu_0, # of connection points: 4
#     Edge 6, Type (0, 0), None
#     Edge 7, Type (0, 0), None
#     Edge 8, Type (0, 0), None
#     Edge 9, Type (0, 0), None
#     Edge 10, Type (0, 0), None
#     Edge 11, Type (0, 0), None
#     Edge 12, Type (0, 0), None
#     Edge 13, Type (0, 0), None
#     Edge 14, Type (0, 0), None
#     Edge 15, Type (0, 0), None
#     Edge 16, Type (0, 0), None
#     Edge 17, Type (0, 0), None
# Relax obj value: 0.098
# Max RMSD: 0.113
# Mean RMSD: 0.113
data_MOF--net-uoo--node1-GALJAG_clean_sbu_0--edge1-none
_symmetry_space_group_name_H-M    P1
_symmetry_Int_Tables_number       1
_symmetry_cell_setting            triclinic
loop_
_symmetry_equiv_pos_as_xyz
'x, y, z'
_cell_length_a     11.280276
_cell_length_b     11.281336
_cell_length_c     17.805975
_cell_angle_alpha  89.999566
_cell_angle_beta   89.99957
_cell_angle_gamma 120.00874
loop_
_atom_site_label
_atom_site_type_symbol
_atom_site_fract_x
_atom_site_fract_y
_atom_site_fract_z
_atom_type_partial_charge
In0 In 0.15915 0.30821 0.00641 0.0
O1 O 0.98048 0.14505 0.07546 0.0
O2 O 0.16633 0.27368 0.13235 0.0
C3 C 0.14655 0.17987 0.87575 0.0
C4 C 0.04019 0.46298 -0.00681 0.0
C5 C 0.43293 0.46299 0.01964 0.0
O6 O 0.17467 0.14506 0.93739 0.0
O7 O 0.11743 0.27362 0.88048 0.0
O8 O 0.35626 0.51434 0.01481 0.0
O9 O 0.37198 0.33386 0.01938 0.0
C10 C 0.04346 0.1799 0.13709 0.0
O11 O 0.16824 0.51433 -0.00202 0.0
O12 O 0.97197 0.33385 -0.00652 0.0
In13 In 0.85609 0.15665 0.33977 0.0
O14 O 0.84051 0.97796 0.4088 0.0
O15 O 0.89782 0.16379 0.46571 0.0
C16 C 0.97182 0.14415 0.20911 0.0
C17 C 0.58232 0.03766 0.32655 0.0
C18 C 0.97505 0.43039 0.353 0.0
O19 O 0.03478 0.17218 0.27074 0.0
O20 O 0.84893 0.11498 0.21383 0.0
O21 O 0.84701 0.35368 0.34818 0.0
O22 O 0.04327 0.36949 0.35274 0.0
C23 C 0.86867 0.04092 0.47044 0.0
O24 O 0.65901 0.16569 0.33139 0.0
O25 O 0.64324 0.96947 0.32679 0.0
In26 In 0.70448 0.85353 0.67311 0.0
O27 O 0.49834 0.65642 0.66471 0.0
O28 O 0.67885 0.64073 0.66013 0.0
C29 C 0.54972 0.97251 0.68635 0.0
C30 C 0.83283 0.86613 0.80377 0.0
C31 C 0.83273 0.96926 0.54245 0.0
O32 O 0.49835 0.84447 0.68156 0.0
O33 O 0.67886 0.04071 0.68605 0.0
O34 O 0.86771 0.0322 0.60409 0.0
O35 O 0.73895 0.8464 0.54716 0.0
C36 C 0.54971 0.57977 0.65988 0.0
O37 O 0.86765 0.83802 0.74213 0.0
O38 O 0.73906 0.89522 0.79905 0.0
In39 In 0.85608 0.70195 0.00642 0.0
O40 O 0.03479 0.86508 0.07546 0.0
O41 O 0.84893 0.7365 0.13235 0.0
C42 C 0.86858 0.83021 0.87577 0.0
C43 C 0.97503 0.54717 -0.00679 0.0
C44 C 0.5823 0.54718 0.01962 0.0
O45 O 0.8406 0.86514 0.93742 0.0
O46 O 0.89771 0.73647 0.88047 0.0
O47 O 0.65897 0.49582 0.01478 0.0
O48 O 0.64326 0.6763 0.01941 0.0
C49 C 0.97181 0.83025 0.1371 0.0
O50 O 0.847 0.49582 -0.0019 0.0
O51 O 0.04325 0.6763 -0.00662 0.0
In52 In 0.15918 0.85349 0.33977 0.0
O53 O 0.35626 0.84445 0.33141 0.0
O54 O 0.37202 0.04067 0.32678 0.0
C55 C 0.04021 0.57975 0.35299 0.0
C56 C 0.1466 0.96922 0.47044 0.0
C57 C 0.04345 0.86599 0.20911 0.0
O58 O 0.16825 0.65645 0.34816 0.0
O59 O 0.972 0.64065 0.35276 0.0
O60 O 0.98049 0.83797 0.27074 0.0
O61 O 0.16634 0.89515 0.21383 0.0
C62 C 0.43295 0.97249 0.32657 0.0
O63 O 0.17475 0.03217 0.4088 0.0
O64 O 0.11745 0.84635 0.46571 0.0
In65 In 0.31077 0.15664 0.6731 0.0
O66 O 0.5169 0.35376 0.66475 0.0
O67 O 0.33639 0.36943 0.66009 0.0
C68 C 0.46554 0.03767 0.68633 0.0
C69 C 0.18249 0.14414 0.80375 0.0
C70 C 0.18252 0.04087 0.54244 0.0
O71 O 0.51691 0.1657 0.68144 0.0
O72 O 0.33639 0.96948 0.68615 0.0
O73 O 0.14757 0.97794 0.60409 0.0
O74 O 0.27628 0.16375 0.54715 0.0
C75 C 0.46553 0.43041 0.65989 0.0
O76 O 0.14755 0.17211 0.7421 0.0
O77 O 0.27625 0.11504 0.79905 0.0
loop_
_geom_bond_atom_site_label_1
_geom_bond_atom_site_label_2
_geom_bond_distance
_geom_bond_site_symmetry_2
_ccdc_geom_bond_type
In0 O1 2.294 . S
In0 O2 2.326 . S
In0 O6 2.266 1_554 S
In0 O7 2.326 1_554 S
In0 O8 2.266 . S
In0 O9 2.326 . S
In0 O11 2.294 . S
In0 O12 2.325 1_454 S
O1 In0 2.294 . S
O1 C10 1.240 . S
O2 In0 2.326 . S
O2 C10 1.252 . S
C3 O6 1.252 . S
C3 O7 1.260 . S
C4 O11 1.240 1_655 S
C4 O12 1.252 1_554 S
C5 O8 1.252 . S
C5 O9 1.260 . S
O6 In0 2.266 1_556 S
O6 C3 1.252 . S
O7 In0 2.326 1_556 S
O7 C3 1.260 . S
O8 In0 2.266 . S
O8 C5 1.252 . S
O9 In0 2.326 . S
O9 C5 1.260 . S
C10 O1 1.240 . S
C10 O2 1.252 . S
O11 In0 2.294 . S
O11 C4 1.240 1_455 S
O12 In0 2.325 1_656 S
O12 C4 1.252 1_556 S
In13 O14 2.294 . S
In13 O15 2.326 . S
In13 O19 2.266 . S
In13 O20 2.326 . S
In13 O21 2.266 . S
In13 O22 2.326 1_655 S
In13 O24 2.294 . S
In13 O25 2.326 1_545 S
O14 In13 2.294 . S
O14 C23 1.240 . S
O15 In13 2.326 . S
O15 C23 1.252 . S
C16 O19 1.252 . S
C16 O20 1.260 . S
C17 O24 1.240 1_565 S
C17 O25 1.252 . S
C18 O21 1.252 1_455 S
C18 O22 1.260 . S
O19 In13 2.266 . S
O19 C16 1.252 . S
O20 In13 2.326 . S
O20 C16 1.260 . S
O21 In13 2.266 . S
O21 C18 1.252 1_655 S
O22 In13 2.326 1_455 S
O22 C18 1.260 . S
C23 O14 1.240 . S
C23 O15 1.252 . S
O24 In13 2.294 . S
O24 C17 1.240 1_545 S
O25 In13 2.326 1_565 S
O25 C17 1.252 . S
In26 O27 2.294 . S
In26 O28 2.326 . S
In26 O32 2.266 . S
In26 O33 2.326 1_565 S
In26 O34 2.266 . S
In26 O35 2.326 . S
In26 O37 2.294 . S
In26 O38 2.326 . S
O27 In26 2.294 . S
O27 C36 1.240 . S
O28 In26 2.326 . S
O28 C36 1.252 . S
C29 O32 1.252 1_545 S
C29 O33 1.260 . S
C30 O37 1.240 . S
C30 O38 1.252 . S
C31 O34 1.252 . S
C31 O35 1.260 . S
O32 In26 2.266 . S
O32 C29 1.252 1_565 S
O33 In26 2.326 1_545 S
O33 C29 1.260 . S
O34 In26 2.266 . S
O34 C31 1.252 . S
O35 In26 2.326 . S
O35 C31 1.260 . S
C36 O27 1.240 . S
C36 O28 1.252 . S
O37 In26 2.294 . S
O37 C30 1.240 . S
O38 In26 2.326 . S
O38 C30 1.252 . S
In39 O40 2.294 . S
In39 O41 2.326 . S
In39 O45 2.266 1_554 S
In39 O46 2.326 1_554 S
In39 O47 2.266 . S
In39 O48 2.326 . S
In39 O50 2.294 . S
In39 O51 2.325 1_654 S
O40 In39 2.294 . S
O40 C49 1.240 . S
O41 In39 2.326 . S
O41 C49 1.252 . S
C42 O45 1.252 . S
C42 O46 1.260 . S
C43 O50 1.240 1_455 S
C43 O51 1.252 1_554 S
C44 O47 1.252 . S
C44 O48 1.260 . S
O45 In39 2.266 1_556 S
O45 C42 1.252 . S
O46 In39 2.326 1_556 S
O46 C42 1.260 . S
O47 In39 2.266 . S
O47 C44 1.252 . S
O48 In39 2.326 . S
O48 C44 1.260 . S
C49 O40 1.240 . S
C49 O41 1.252 . S
O50 In39 2.294 . S
O50 C43 1.240 1_655 S
O51 In39 2.325 1_456 S
O51 C43 1.252 1_556 S
In52 O53 2.294 . S
In52 O54 2.326 1_565 S
In52 O58 2.266 . S
In52 O59 2.326 1_455 S
In52 O60 2.266 . S
In52 O61 2.326 . S
In52 O63 2.294 . S
In52 O64 2.326 . S
O53 In52 2.294 . S
O53 C62 1.240 1_565 S
O54 In52 2.326 1_545 S
O54 C62 1.252 . S
C55 O58 1.252 1_655 S
C55 O59 1.260 . S
C56 O63 1.240 . S
C56 O64 1.252 . S
C57 O60 1.252 . S
C57 O61 1.260 . S
O58 In52 2.266 . S
O58 C55 1.252 1_455 S
O59 In52 2.326 1_655 S
O59 C55 1.260 . S
O60 In52 2.266 . S
O60 C57 1.252 . S
O61 In52 2.326 . S
O61 C57 1.260 . S
C62 O53 1.240 1_545 S
C62 O54 1.252 . S
O63 In52 2.294 . S
O63 C56 1.240 . S
O64 In52 2.326 . S
O64 C56 1.252 . S
In65 O66 2.294 . S
In65 O67 2.326 . S
In65 O71 2.266 . S
In65 O72 2.326 1_545 S
In65 O73 2.266 . S
In65 O74 2.326 . S
In65 O76 2.294 . S
In65 O77 2.326 . S
O66 In65 2.294 . S
O66 C75 1.240 . S
O67 In65 2.326 . S
O67 C75 1.252 . S
C68 O71 1.252 1_565 S
C68 O72 1.260 . S
C69 O76 1.240 . S
C69 O77 1.252 . S
C70 O73 1.252 . S
C70 O74 1.260 . S
O71 In65 2.266 . S
O71 C68 1.252 1_545 S
O72 In65 2.326 1_565 S
O72 C68 1.260 . S
O73 In65 2.266 . S
O73 C70 1.252 . S
O74 In65 2.326 . S
O74 C70 1.260 . S
C75 O66 1.240 . S
C75 O67 1.252 . S
O76 In65 2.294 . S
O76 C69 1.240 . S
O77 In65 2.326 . S
O77 C69 1.252 . S
C69 C3 1.383 . S
C16 C10 1.383 1_655 S
C23 C31 1.383 1_545 S
C42 C30 1.383 . S
C57 C49 1.383 1_455 S
C70 C56 1.383 1_545 S
C5 C44 1.764 . S
C18 C55 1.765 1_455 S
C68 C29 1.764 1_565 S
C75 C36 1.712 . S
C43 C4 1.713 1_455 S
C17 C62 1.713 1_565 S
