# Generated by pormake.
# Topology pcu, (6)-cn, num edge types: 1
# Building blocks:
#     Node 0, Type 0, BuildingBlock: BETDAH_clean_sbu_0, # of connection points: 6
#     Edge 1, Type (0, 0), BuildingBlock: KIFKEQ_clean_linker_1, # of connection points: 2
#     Edge 2, Type (0, 0), BuildingBlock: KIFKEQ_clean_linker_1, # of connection points: 2
#     Edge 3, Type (0, 0), BuildingBlock: KIFKEQ_clean_linker_1, # of connection points: 2
# Relax obj value: 0.000
# Max RMSD: 0.000
# Mean RMSD: 0.000
data_MOF--net-pcu--node1-BETDAH_clean_sbu_0--edge1-KIFKEQ_clean_linker_1
_symmetry_space_group_name_H-M    P1
_symmetry_Int_Tables_number       1
_symmetry_cell_setting            triclinic
loop_
_symmetry_equiv_pos_as_xyz
'x, y, z'
_cell_length_a     25.363224
_cell_length_b     15.745905
_cell_length_c     14.542505
_cell_angle_alpha  88.743669
_cell_angle_beta   97.346858
_cell_angle_gamma 123.36224
loop_
_atom_site_label
_atom_site_type_symbol
_atom_site_fract_x
_atom_site_fract_y
_atom_site_fract_z
_atom_type_partial_charge
Ho0 Ho 0.95995 0.90987 0.02784 0.0
Ho1 Ho 0.10144 0.03892 1.00983 0.0
C2 C 0.0333 0.15582 1.01542 0.0
C3 C 0.84691 0.83255 0.07211 0.0
C4 C 0.79868 0.85811 0.0646 0.0
C5 C 0.81582 0.95869 0.07864 0.0
C6 C 0.7689 -0.0195 0.07129 0.0
C7 C 0.70395 0.90221 0.0494 0.0
C8 C 0.68726 0.80177 0.03471 0.0
C9 C 0.73414 0.78007 0.04239 0.0
C10 C 0.98834 0.92891 0.85274 0.0
C11 C 1.02832 0.79261 0.02477 0.0
C12 C 0.21276 0.11275 0.96074 0.0
C13 C 0.26183 0.08807 0.97157 0.0
C14 C 0.2598 0.02059 0.9072 0.0
C15 C 0.30724 -6e-05 0.91626 0.0
C16 C 0.35807 0.04667 0.98957 0.0
C17 C 0.36007 0.1142 0.05381 0.0
C18 C 0.3127 0.1349 0.04474 0.0
C19 C 0.07441 0.02014 0.1858 0.0
O20 O 0.9861 0.07164 0.04603 0.0
O21 O 0.07984 0.15755 0.98181 0.0
O22 O 0.85743 0.80887 0.99402 0.0
O23 O 0.89939 0.89047 0.12939 0.0
O24 O 0.94182 0.84621 0.88149 0.0
O25 O 1.01518 -0.00146 0.91624 0.0
O26 O 0.07671 0.87753 0.99705 0.0
O27 O 0.98026 0.78969 0.05443 0.0
O28 O 0.20375 0.14477 0.03579 0.0
O29 O 0.15925 0.05019 0.90698 0.0
O30 O 0.12248 0.10109 0.15736 0.0
O31 O 0.04628 0.95082 0.1218 0.0
H32 H 0.86536 0.02032 0.09561 0.0
H33 H 0.78351 0.05852 0.08404 0.0
H34 H 0.63793 0.73983 1.01612 0.0
H35 H 0.71995 0.70207 0.03068 0.0
H36 H 0.22185 -0.01576 0.8492 0.0
H37 H 0.3047 0.94876 0.8647 0.0
H38 H 0.39808 0.15065 0.11171 0.0
H39 H 0.3161 0.18798 0.09508 0.0
H40 H 0.14884 0.14884 0.33622 0.0
H41 H 0.97293 0.8591 0.2555 0.0
H42 H 0.13066 0.12559 0.49761 0.0
H43 H 0.95162 0.83864 0.41582 0.0
H44 H 0.95496 0.78127 0.72156 0.0
H45 H 0.97773 0.8023 0.56191 0.0
H46 H 0.07346 0.12871 0.60605 0.0
H47 H 0.05419 0.10693 0.76729 0.0
C48 C 0.10572 0.08067 0.35304 0.0
C49 C 0.06208 0.00606 0.28331 0.0
C50 C 0.09488 0.06757 0.4457 0.0
C51 C 0.03934 -0.01961 0.47081 0.0
C52 C 0.9955 0.90602 0.40024 0.0
C53 C 1.00717 0.91819 0.30782 0.0
C54 C 0.98118 0.85741 0.69684 0.0
C55 C 1.00283 0.94244 0.75643 0.0
C56 C 0.99382 0.86967 0.60494 0.0
C57 C 1.02723 0.96732 0.56981 0.0
C58 C 0.04873 0.05237 0.63026 0.0
C59 C 0.03731 0.04008 0.72274 0.0
H60 H 0.34503 0.86392 0.96217 0.0
H61 H 0.48678 0.18235 0.03714 0.0
H62 H 0.42872 0.83034 0.97538 0.0
H63 H 0.57017 0.14804 0.05369 0.0
H64 H 0.70715 0.0658 0.97307 0.0
H65 H 0.62419 0.10106 0.95907 0.0
H66 H 0.50375 0.82479 0.09406 0.0
H67 H 0.58673 0.78983 0.10875 0.0
C68 C 0.39403 0.92682 0.98133 0.0
C69 C 0.40909 0.02586 0.99856 0.0
C70 C 0.44197 0.90735 0.98994 0.0
C71 C 0.5062 -0.01355 1.0158 0.0
C72 C 0.52129 0.08552 0.03279 0.0
C73 C 0.47334 0.10496 0.02436 0.0
C74 C 0.66327 0.01308 1.00069 0.0
C75 C 0.6537 0.92479 0.04185 0.0
C76 C 0.61564 0.03328 0.99255 0.0
C77 C 0.55719 0.9656 0.02518 0.0
C78 C 0.54775 0.87764 0.06674 0.0
C79 C 0.59539 0.85758 0.0751 0.0
H80 H 0.92913 0.59651 0.03842 0.0
H81 H 0.12951 0.77827 1.01029 0.0
H82 H 0.92993 0.4428 0.03397 0.0
H83 H 0.13112 0.62524 1.00988 0.0
H84 H 0.09928 0.32485 0.91726 0.0
H85 H 0.09716 0.4776 0.91837 0.0
H86 H 0.96576 0.35164 0.12096 0.0
H87 H 0.96614 0.19767 0.11691 0.0
C88 C 0.97353 0.60372 0.03231 0.0
C89 C 1.02921 0.69952 0.02467 0.0
C90 C 0.97412 0.51557 0.03024 0.0
C91 C 1.03062 0.52126 0.02165 0.0
C92 C 0.08645 0.61749 1.01484 0.0
C93 C 0.08565 0.70547 1.01573 0.0
C94 C 0.06994 0.3299 0.96196 0.0
C95 C 0.03266 0.24906 1.01668 0.0
C96 C 0.06897 0.41777 0.96306 0.0
C97 C 0.03132 0.42735 0.01984 0.0
C98 C 0.99439 0.34642 0.07502 0.0
C99 C 0.99479 0.25814 0.07304 0.0
loop_
_geom_bond_atom_site_label_1
_geom_bond_atom_site_label_2
_geom_bond_distance
_geom_bond_site_symmetry_2
_ccdc_geom_bond_type
Ho0 C3 2.811 . S
Ho0 O20 2.322 1_565 S
Ho0 O22 2.378 . S
Ho0 O23 2.524 1_556 S
Ho0 O24 2.381 . S
Ho0 O25 2.669 1_665 S
Ho0 O27 2.346 . S
Ho0 O31 2.305 1_556 S
Ho1 C12 2.811 . S
Ho1 O21 2.346 . S
Ho1 O25 2.305 1_554 S
Ho1 O26 2.322 1_545 S
Ho1 O28 2.378 . S
Ho1 O29 2.524 1_554 S
Ho1 O30 2.381 . S
Ho1 O31 2.669 1_445 S
C2 O20 1.259 1_455 S
C2 O21 1.268 1_556 S
C3 Ho0 2.811 . S
C3 C4 1.490 . S
C3 O22 1.215 . S
C3 O23 1.289 1_556 S
C4 C3 1.490 . S
C4 C5 1.338 1_566 S
C4 C9 1.422 . S
C5 C4 1.338 1_544 S
C5 C6 1.442 . S
C5 H32 0.930 . S
C6 C5 1.442 . S
C6 C7 1.381 1_544 S
C6 H33 0.931 . S
C7 C6 1.381 1_566 S
C7 C8 1.321 . S
C8 C7 1.321 . S
C8 C9 1.403 . S
C8 H34 0.934 . S
C9 C4 1.422 . S
C9 C8 1.403 . S
C9 H35 0.930 . S
C10 O24 1.275 . S
C10 O25 1.256 1_665 S
C11 O26 1.259 1_655 S
C11 O27 1.268 1_554 S
C12 Ho1 2.811 . S
C12 C13 1.488 . S
C12 O28 1.215 . S
C12 O29 1.289 1_554 S
C13 C12 1.488 . S
C13 C14 1.348 1_544 S
C13 C18 1.413 . S
C14 C13 1.348 1_566 S
C14 C15 1.442 . S
C14 H36 0.930 . S
C15 C14 1.442 . S
C15 C16 1.381 1_566 S
C15 H37 0.931 . S
C16 C15 1.381 1_544 S
C16 C17 1.321 . S
C17 C16 1.321 . S
C17 C18 1.403 . S
C17 H38 0.934 . S
C18 C13 1.413 . S
C18 C17 1.403 . S
C18 H39 0.930 . S
C19 O30 1.275 . S
C19 O31 1.256 1_445 S
O20 Ho0 2.322 1_545 S
O20 C2 1.259 1_655 S
O21 Ho1 2.346 . S
O21 C2 1.268 1_554 S
O22 Ho0 2.378 . S
O22 C3 1.215 . S
O23 Ho0 2.524 1_554 S
O23 C3 1.289 1_554 S
O24 Ho0 2.381 . S
O24 C10 1.275 . S
O25 Ho0 2.669 1_445 S
O25 Ho1 2.305 1_556 S
O25 C10 1.256 1_445 S
O26 Ho1 2.322 1_565 S
O26 C11 1.259 1_455 S
O27 Ho0 2.346 . S
O27 C11 1.268 1_556 S
O28 Ho1 2.378 . S
O28 C12 1.215 . S
O29 Ho1 2.524 1_556 S
O29 C12 1.289 1_556 S
O30 Ho1 2.381 . S
O30 C19 1.275 . S
O31 Ho0 2.305 1_554 S
O31 Ho1 2.669 1_665 S
O31 C19 1.256 1_665 S
H32 C5 0.930 . S
H33 C6 0.931 . S
H34 C8 0.934 . S
H35 C9 0.930 . S
H36 C14 0.930 . S
H37 C15 0.931 . S
H38 C17 0.934 . S
H39 C18 0.930 . S
H40 C48 0.950 . S
H41 C53 0.950 . S
H42 C50 0.950 . S
H43 C52 0.950 . S
H44 C54 0.950 . S
H45 C56 0.950 . S
H46 C58 0.950 . S
H47 C59 0.950 . S
C48 H40 0.950 . S
C48 C49 1.400 . S
C48 C50 1.391 . S
C49 C48 1.400 . S
C49 C53 1.376 1_445 S
C50 H42 0.950 . S
C50 C48 1.391 . S
C50 C51 1.409 . S
C51 C50 1.409 . S
C51 C52 1.390 1_445 S
C51 C57 1.489 1_445 S
C52 H43 0.950 . S
C52 C51 1.390 1_665 S
C52 C53 1.391 . S
C53 H41 0.950 . S
C53 C49 1.376 1_665 S
C53 C52 1.391 . S
C54 H44 0.950 . S
C54 C55 1.396 . S
C54 C56 1.391 . S
C55 C54 1.396 . S
C55 C59 1.381 1_665 S
C56 H45 0.950 . S
C56 C54 1.391 . S
C56 C57 1.405 . S
C57 C51 1.489 1_665 S
C57 C56 1.405 . S
C57 C58 1.394 1_665 S
C58 H46 0.950 . S
C58 C57 1.394 1_445 S
C58 C59 1.391 . S
C59 H47 0.950 . S
C59 C55 1.381 1_445 S
C59 C58 1.391 . S
H60 C68 0.950 . S
H61 C73 0.950 . S
H62 C70 0.950 . S
H63 C72 0.950 . S
H64 C74 0.950 . S
H65 C76 0.950 . S
H66 C78 0.950 . S
H67 C79 0.950 . S
C68 H60 0.950 . S
C68 C69 1.385 1_564 S
C68 C70 1.391 . S
C69 C68 1.385 1_546 S
C69 C73 1.393 . S
C70 H62 0.950 . S
C70 C68 1.391 . S
C70 C71 1.400 1_564 S
C71 C70 1.400 1_546 S
C71 C72 1.398 . S
C71 C77 1.491 1_556 S
C72 H63 0.950 . S
C72 C71 1.398 . S
C72 C73 1.391 . S
C73 H61 0.950 . S
C73 C69 1.393 . S
C73 C72 1.391 . S
C74 H64 0.950 . S
C74 C75 1.385 1_556 S
C74 C76 1.391 . S
C75 C74 1.385 1_554 S
C75 C79 1.393 1_545 S
C76 H65 0.950 . S
C76 C74 1.391 . S
C76 C77 1.400 1_556 S
C77 C71 1.491 1_554 S
C77 C76 1.400 1_554 S
C77 C78 1.398 1_545 S
C78 H66 0.950 . S
C78 C77 1.398 1_565 S
C78 C79 1.391 . S
C79 H67 0.950 . S
C79 C75 1.393 1_565 S
C79 C78 1.391 . S
H80 C88 0.950 . S
H81 C93 0.950 . S
H82 C90 0.950 . S
H83 C92 0.950 . S
H84 C94 0.950 . S
H85 C96 0.950 . S
H86 C98 0.950 . S
H87 C99 0.950 . S
C88 H80 0.950 . S
C88 C89 1.386 1_454 S
C88 C90 1.391 . S
C89 C88 1.386 1_656 S
C89 C93 1.392 . S
C90 H82 0.950 . S
C90 C88 1.391 . S
C90 C91 1.400 1_455 S
C91 C90 1.400 1_655 S
C91 C92 1.399 1_554 S
C91 C97 1.491 1_655 S
C92 H83 0.950 . S
C92 C91 1.399 1_556 S
C92 C93 1.391 . S
C93 H81 0.950 . S
C93 C89 1.392 . S
C93 C92 1.391 . S
C94 H84 0.950 . S
C94 C95 1.384 1_656 S
C94 C96 1.391 . S
C95 C94 1.384 1_454 S
C95 C99 1.395 . S
C96 H85 0.950 . S
C96 C94 1.391 . S
C96 C97 1.400 1_656 S
C97 C91 1.491 1_455 S
C97 C96 1.400 1_454 S
C97 C98 1.399 . S
C98 H86 0.950 . S
C98 C97 1.399 . S
C98 C99 1.391 . S
C99 H87 0.950 . S
C99 C95 1.395 . S
C99 C98 1.391 . S
C49 C19 1.463 . S
C55 C10 1.461 . S
C69 C16 1.500 1_556 S
C75 C7 1.500 1_544 S
C89 C11 1.488 1_556 S
C95 C2 1.488 1_554 S
