# Generated by pormake.
# Topology umx, (4)-cn, num edge types: 1
# Building blocks:
#     Node 0, Type 0, BuildingBlock: GALJAG_clean_sbu_0, # of connection points: 4
#     Node 1, Type 0, BuildingBlock: GALJAG_clean_sbu_0, # of connection points: 4
#     Node 2, Type 0, BuildingBlock: GALJAG_clean_sbu_0, # of connection points: 4
#     Node 3, Type 0, BuildingBlock: GALJAG_clean_sbu_0, # of connection points: 4
#     Node 4, Type 0, BuildingBlock: GALJAG_clean_sbu_0, # of connection points: 4
#     Node 5, Type 0, BuildingBlock: GALJAG_clean_sbu_0, # of connection points: 4
#     Node 6, Type 0, BuildingBlock: GALJAG_clean_sbu_0, # of connection points: 4
#     Node 7, Type 0, BuildingBlock: GALJAG_clean_sbu_0, # of connection points: 4
#     Edge 8, Type (0, 0), BuildingBlock: EYOCIG_clean_linker_4, # of connection points: 2
#     Edge 9, Type (0, 0), BuildingBlock: EYOCIG_clean_linker_4, # of connection points: 2
#     Edge 10, Type (0, 0), BuildingBlock: EYOCIG_clean_linker_4, # of connection points: 2
#     Edge 11, Type (0, 0), BuildingBlock: EYOCIG_clean_linker_4, # of connection points: 2
#     Edge 12, Type (0, 0), BuildingBlock: EYOCIG_clean_linker_4, # of connection points: 2
#     Edge 13, Type (0, 0), BuildingBlock: EYOCIG_clean_linker_4, # of connection points: 2
#     Edge 14, Type (0, 0), BuildingBlock: EYOCIG_clean_linker_4, # of connection points: 2
#     Edge 15, Type (0, 0), BuildingBlock: EYOCIG_clean_linker_4, # of connection points: 2
#     Edge 16, Type (0, 0), BuildingBlock: EYOCIG_clean_linker_4, # of connection points: 2
#     Edge 17, Type (0, 0), BuildingBlock: EYOCIG_clean_linker_4, # of connection points: 2
#     Edge 18, Type (0, 0), BuildingBlock: EYOCIG_clean_linker_4, # of connection points: 2
#     Edge 19, Type (0, 0), BuildingBlock: EYOCIG_clean_linker_4, # of connection points: 2
#     Edge 20, Type (0, 0), BuildingBlock: EYOCIG_clean_linker_4, # of connection points: 2
#     Edge 21, Type (0, 0), BuildingBlock: EYOCIG_clean_linker_4, # of connection points: 2
#     Edge 22, Type (0, 0), BuildingBlock: EYOCIG_clean_linker_4, # of connection points: 2
#     Edge 23, Type (0, 0), BuildingBlock: EYOCIG_clean_linker_4, # of connection points: 2
# Relax obj value: 0.096
# Max RMSD: 0.176
# Mean RMSD: 0.176
data_MOF--net-umx--node1-GALJAG_clean_sbu_0--edge1-EYOCIG_clean_linker_4
_symmetry_space_group_name_H-M    P1
_symmetry_Int_Tables_number       1
_symmetry_cell_setting            triclinic
loop_
_symmetry_equiv_pos_as_xyz
'x, y, z'
_cell_length_a     31.0319
_cell_length_b     31.066464
_cell_length_c     23.10635
_cell_angle_alpha  90.033321
_cell_angle_beta   90.089079
_cell_angle_gamma 89.986664
loop_
_atom_site_label
_atom_site_type_symbol
_atom_site_fract_x
_atom_site_fract_y
_atom_site_fract_z
_atom_type_partial_charge
In0 In 0.18033 0.45065 0.02356 0.0
O1 O 0.21028 0.4962 0.09091 0.0
O2 O 0.17552 0.44071 0.11976 0.0
C3 C 0.19952 0.47514 0.91563 0.0
C4 C 0.2295 0.38008 0.02356 0.0
C5 C 0.09532 0.46627 0.02171 0.0
O6 O 0.21177 0.49717 0.95882 0.0
O7 O 0.17772 0.44205 0.92702 0.0
O8 O 0.1103 0.42842 0.0216 0.0
O9 O 0.12291 0.4961 0.02276 0.0
C10 C 0.19708 0.47362 0.13297 0.0
O11 O 0.1888 0.37781 0.02273 0.0
O12 O 0.24522 0.41751 0.02441 0.0
In13 In 0.52922 0.17914 0.52333 0.0
O14 O 0.6021 0.18789 0.52379 0.0
O15 O 0.56209 0.24409 0.52455 0.0
C16 C 0.51379 0.0942 0.52142 0.0
C17 C 0.5052 0.1959 0.63222 0.0
C18 C 0.50575 0.1982 0.41488 0.0
O19 O 0.55165 0.10922 0.52215 0.0
O20 O 0.48386 0.12171 0.52166 0.0
O21 O 0.48324 0.21041 0.45758 0.0
O22 O 0.5388 0.17645 0.42699 0.0
C23 C 0.59964 0.22853 0.52438 0.0
O24 O 0.48288 0.20894 0.58972 0.0
O25 O 0.53837 0.17451 0.6197 0.0
In26 In 0.79955 0.52843 0.0242 0.0
O27 O 0.76907 0.4829 0.09096 0.0
O28 O 0.80453 0.53781 0.12053 0.0
C29 C 0.78012 0.50461 0.91597 0.0
C30 C 0.75104 0.59946 0.02476 0.0
C31 C 0.88442 0.51208 0.02231 0.0
O32 O 0.76777 0.48244 0.95889 0.0
O33 O 0.80212 0.53752 0.92777 0.0
O34 O 0.86977 0.55005 0.02258 0.0
O35 O 0.85658 0.48248 0.02307 0.0
C36 C 0.78254 0.50511 0.1333 0.0
O37 O 0.79176 0.60137 0.02421 0.0
O38 O 0.73498 0.56217 0.02506 0.0
In39 In 0.45129 0.79884 0.52329 0.0
O40 O 0.49721 0.76846 0.58989 0.0
O41 O 0.44216 0.80362 0.61963 0.0
C42 C 0.47452 0.77955 0.41488 0.0
C43 C 0.38025 0.75034 0.52383 0.0
C44 C 0.46781 0.88358 0.52151 0.0
O45 O 0.49686 0.76701 0.45764 0.0
O46 O 0.44176 0.80172 0.42692 0.0
O47 O 0.42977 0.86904 0.5221 0.0
O48 O 0.4974 0.85569 0.52185 0.0
C49 C 0.47505 0.7818 0.6323 0.0
O50 O 0.37828 0.79101 0.52337 0.0
O51 O 0.4176 0.73432 0.52415 0.0
In52 In 0.18009 0.52869 0.52487 0.0
O53 O 0.21034 0.48247 0.45866 0.0
O54 O 0.17531 0.53746 0.42846 0.0
C55 C 0.19935 0.5057 0.63344 0.0
C56 C 0.22888 0.5995 0.52379 0.0
C57 C 0.09519 0.51254 0.52665 0.0
O58 O 0.2118 0.48322 0.59082 0.0
O59 O 0.1773 0.53849 0.62119 0.0
O60 O 0.10991 0.55049 0.52584 0.0
O61 O 0.12298 0.48288 0.52653 0.0
C62 C 0.19704 0.5045 0.41606 0.0
O63 O 0.18817 0.60158 0.52425 0.0
O64 O 0.2448 0.56214 0.52375 0.0
In65 In 0.45108 0.17941 0.02441 0.0
O66 O 0.37817 0.18804 0.02457 0.0
O67 O 0.41807 0.2443 0.02344 0.0
C68 C 0.46674 0.09451 0.0263 0.0
C69 C 0.47436 0.19602 0.91522 0.0
C70 C 0.47521 0.19854 0.1326 0.0
O71 O 0.42884 0.10945 0.0261 0.0
O72 O 0.4966 0.12208 0.02553 0.0
O73 O 0.49745 0.21073 0.08967 0.0
O74 O 0.44207 0.17682 0.12083 0.0
C75 C 0.38055 0.22869 0.02389 0.0
O76 O 0.49686 0.20927 0.95746 0.0
O77 O 0.44139 0.17448 0.92815 0.0
In78 In 0.79936 0.45082 0.5253 0.0
O79 O 0.7692 0.49686 0.45875 0.0
O80 O 0.80388 0.44154 0.42896 0.0
C81 C 0.78028 0.47431 0.6337 0.0
C82 C 0.75036 0.38016 0.52462 0.0
C83 C 0.88432 0.46666 0.527 0.0
O84 O 0.76785 0.49664 0.59092 0.0
O85 O 0.80226 0.44143 0.62169 0.0
O86 O 0.86947 0.42877 0.52644 0.0
O87 O 0.85664 0.49642 0.52671 0.0
C88 C 0.7823 0.47456 0.41632 0.0
O89 O 0.79107 0.37796 0.52519 0.0
O90 O 0.73455 0.41757 0.52427 0.0
In91 In 0.52881 0.79903 0.02473 0.0
O92 O 0.60183 0.7912 0.02542 0.0
O93 O 0.56255 0.73451 0.02404 0.0
C94 C 0.51257 0.88384 0.02649 0.0
C95 C 0.50566 0.78198 0.91544 0.0
C96 C 0.50467 0.77965 0.13273 0.0
O97 O 0.55056 0.86915 0.02644 0.0
O98 O 0.48289 0.85607 0.02563 0.0
O99 O 0.48264 0.76724 0.08961 0.0
O100 O 0.53758 0.80173 0.12124 0.0
C101 C 0.5999 0.75053 0.02477 0.0
O102 O 0.48326 0.76869 0.95763 0.0
O103 O 0.53848 0.80377 0.92846 0.0
C104 C 0.20931 0.48741 0.24416 0.0
C105 C 0.20548 0.48382 0.19246 0.0
C106 C 0.20936 0.48981 0.30517 0.0
C107 C 0.20558 0.49371 0.35682 0.0
C108 C 0.49067 0.20816 0.74315 0.0
C109 C 0.4945 0.20436 0.6915 0.0
C110 C 0.48831 0.20817 0.80415 0.0
C111 C 0.48468 0.2044 0.85582 0.0
C112 C 0.76994 0.48889 0.30533 0.0
C113 C 0.77376 0.48515 0.357 0.0
C114 C 0.77 0.4912 0.24431 0.0
C115 C 0.7739 0.49482 0.19265 0.0
C116 C 0.49175 0.76951 0.80433 0.0
C117 C 0.49538 0.77341 0.85601 0.0
C118 C 0.4894 0.76945 0.7433 0.0
C119 C 0.48563 0.77325 0.69163 0.0
C120 C 0.76631 0.48824 0.74434 0.0
C121 C 0.77078 0.48479 0.69275 0.0
C122 C 0.76623 0.49029 0.80536 0.0
C123 C 0.77062 0.49386 0.85697 0.0
C124 C 0.49026 0.76558 0.24319 0.0
C125 C 0.49386 0.77003 0.19162 0.0
C126 C 0.48825 0.76558 0.3042 0.0
C127 C 0.48489 0.77002 0.35581 0.0
C128 C 0.21338 0.48992 0.80521 0.0
C129 C 0.209 0.48618 0.85678 0.0
C130 C 0.21331 0.49204 0.7442 0.0
C131 C 0.20883 0.4954 0.69258 0.0
C132 C 0.4918 0.21214 0.30421 0.0
C133 C 0.49525 0.20765 0.3558 0.0
C134 C 0.48972 0.21225 0.24319 0.0
C135 C 0.48609 0.20792 0.19159 0.0
C136 C 0.96767 0.49421 0.02079 0.0
C137 C 0.92979 0.50293 0.02148 0.0
C138 C 0.01196 0.48362 0.02064 0.0
C139 C 0.04988 0.47506 0.02112 0.0
C140 C 0.48587 0.96669 0.52024 0.0
C141 C 0.47707 0.92887 0.52082 0.0
C142 C 0.49652 0.01092 0.52021 0.0
C143 C 0.50508 0.0488 0.52077 0.0
C144 C 0.01193 0.49479 0.52791 0.0
C145 C 0.04981 0.50348 0.52733 0.0
C146 C 0.96764 0.48418 0.528 0.0
C147 C 0.92974 0.47556 0.52754 0.0
C148 C 0.49476 0.96701 0.02768 0.0
C149 C 0.50347 0.92917 0.02715 0.0
C150 C 0.48416 0.01126 0.02764 0.0
C151 C 0.47557 0.04913 0.02704 0.0
C152 C 0.28185 0.31334 0.0235 0.0
C153 C 0.25657 0.34273 0.02349 0.0
C154 C 0.31391 0.28119 0.0236 0.0
C155 C 0.34324 0.25583 0.02376 0.0
C156 C 0.69815 0.31334 0.52461 0.0
C157 C 0.72338 0.34277 0.52464 0.0
C158 C 0.66616 0.28115 0.52462 0.0
C159 C 0.63689 0.25573 0.52449 0.0
C160 C 0.69911 0.66652 0.025 0.0
C161 C 0.72429 0.63704 0.02487 0.0
C162 C 0.667 0.69861 0.02501 0.0
C163 C 0.6375 0.72379 0.02494 0.0
C164 C 0.31317 0.69841 0.52366 0.0
C165 C 0.34267 0.72358 0.52372 0.0
C166 C 0.28103 0.66637 0.52358 0.0
C167 C 0.25577 0.63696 0.52368 0.0
loop_
_geom_bond_atom_site_label_1
_geom_bond_atom_site_label_2
_geom_bond_distance
_geom_bond_site_symmetry_2
_ccdc_geom_bond_type
In0 O1 2.294 . S
In0 O2 2.326 . S
In0 O6 2.266 1_554 S
In0 O7 2.326 1_554 S
In0 O8 2.266 . S
In0 O9 2.326 . S
In0 O11 2.294 . S
In0 O12 2.326 . S
O1 In0 2.294 . S
O1 C10 1.240 . S
O2 In0 2.326 . S
O2 C10 1.252 . S
C3 O6 1.252 . S
C3 O7 1.260 . S
C4 O11 1.240 . S
C4 O12 1.252 . S
C5 O8 1.252 . S
C5 O9 1.260 . S
O6 In0 2.266 1_556 S
O6 C3 1.252 . S
O7 In0 2.326 1_556 S
O7 C3 1.260 . S
O8 In0 2.266 . S
O8 C5 1.252 . S
O9 In0 2.326 . S
O9 C5 1.260 . S
C10 O1 1.240 . S
C10 O2 1.252 . S
O11 In0 2.294 . S
O11 C4 1.240 . S
O12 In0 2.326 . S
O12 C4 1.252 . S
In13 O14 2.294 . S
In13 O15 2.326 . S
In13 O19 2.266 . S
In13 O20 2.326 . S
In13 O21 2.266 . S
In13 O22 2.326 . S
In13 O24 2.294 . S
In13 O25 2.326 . S
O14 In13 2.294 . S
O14 C23 1.240 . S
O15 In13 2.326 . S
O15 C23 1.252 . S
C16 O19 1.252 . S
C16 O20 1.260 . S
C17 O24 1.240 . S
C17 O25 1.252 . S
C18 O21 1.252 . S
C18 O22 1.260 . S
O19 In13 2.266 . S
O19 C16 1.252 . S
O20 In13 2.326 . S
O20 C16 1.260 . S
O21 In13 2.266 . S
O21 C18 1.252 . S
O22 In13 2.326 . S
O22 C18 1.260 . S
C23 O14 1.240 . S
C23 O15 1.252 . S
O24 In13 2.294 . S
O24 C17 1.240 . S
O25 In13 2.326 . S
O25 C17 1.252 . S
In26 O27 2.294 . S
In26 O28 2.326 . S
In26 O32 2.266 1_554 S
In26 O33 2.326 1_554 S
In26 O34 2.266 . S
In26 O35 2.326 . S
In26 O37 2.294 . S
In26 O38 2.326 . S
O27 In26 2.294 . S
O27 C36 1.240 . S
O28 In26 2.326 . S
O28 C36 1.252 . S
C29 O32 1.252 . S
C29 O33 1.260 . S
C30 O37 1.240 . S
C30 O38 1.252 . S
C31 O34 1.252 . S
C31 O35 1.260 . S
O32 In26 2.266 1_556 S
O32 C29 1.252 . S
O33 In26 2.326 1_556 S
O33 C29 1.260 . S
O34 In26 2.266 . S
O34 C31 1.252 . S
O35 In26 2.326 . S
O35 C31 1.260 . S
C36 O27 1.240 . S
C36 O28 1.252 . S
O37 In26 2.294 . S
O37 C30 1.240 . S
O38 In26 2.326 . S
O38 C30 1.252 . S
In39 O40 2.294 . S
In39 O41 2.326 . S
In39 O45 2.266 . S
In39 O46 2.326 . S
In39 O47 2.266 . S
In39 O48 2.326 . S
In39 O50 2.294 . S
In39 O51 2.326 . S
O40 In39 2.294 . S
O40 C49 1.240 . S
O41 In39 2.326 . S
O41 C49 1.252 . S
C42 O45 1.252 . S
C42 O46 1.260 . S
C43 O50 1.240 . S
C43 O51 1.252 . S
C44 O47 1.252 . S
C44 O48 1.260 . S
O45 In39 2.266 . S
O45 C42 1.252 . S
O46 In39 2.326 . S
O46 C42 1.260 . S
O47 In39 2.266 . S
O47 C44 1.252 . S
O48 In39 2.326 . S
O48 C44 1.260 . S
C49 O40 1.240 . S
C49 O41 1.252 . S
O50 In39 2.294 . S
O50 C43 1.240 . S
O51 In39 2.326 . S
O51 C43 1.252 . S
In52 O53 2.294 . S
In52 O54 2.326 . S
In52 O58 2.266 . S
In52 O59 2.326 . S
In52 O60 2.266 . S
In52 O61 2.326 . S
In52 O63 2.294 . S
In52 O64 2.326 . S
O53 In52 2.294 . S
O53 C62 1.240 . S
O54 In52 2.326 . S
O54 C62 1.252 . S
C55 O58 1.252 . S
C55 O59 1.260 . S
C56 O63 1.240 . S
C56 O64 1.252 . S
C57 O60 1.252 . S
C57 O61 1.260 . S
O58 In52 2.266 . S
O58 C55 1.252 . S
O59 In52 2.326 . S
O59 C55 1.260 . S
O60 In52 2.266 . S
O60 C57 1.252 . S
O61 In52 2.326 . S
O61 C57 1.260 . S
C62 O53 1.240 . S
C62 O54 1.252 . S
O63 In52 2.294 . S
O63 C56 1.240 . S
O64 In52 2.326 . S
O64 C56 1.252 . S
In65 O66 2.294 . S
In65 O67 2.326 . S
In65 O71 2.266 . S
In65 O72 2.326 . S
In65 O73 2.266 . S
In65 O74 2.326 . S
In65 O76 2.294 1_554 S
In65 O77 2.326 1_554 S
O66 In65 2.294 . S
O66 C75 1.240 . S
O67 In65 2.326 . S
O67 C75 1.252 . S
C68 O71 1.252 . S
C68 O72 1.260 . S
C69 O76 1.240 . S
C69 O77 1.252 . S
C70 O73 1.252 . S
C70 O74 1.260 . S
O71 In65 2.266 . S
O71 C68 1.252 . S
O72 In65 2.326 . S
O72 C68 1.260 . S
O73 In65 2.266 . S
O73 C70 1.252 . S
O74 In65 2.326 . S
O74 C70 1.260 . S
C75 O66 1.240 . S
C75 O67 1.252 . S
O76 In65 2.294 1_556 S
O76 C69 1.240 . S
O77 In65 2.326 1_556 S
O77 C69 1.252 . S
In78 O79 2.294 . S
In78 O80 2.326 . S
In78 O84 2.266 . S
In78 O85 2.326 . S
In78 O86 2.266 . S
In78 O87 2.326 . S
In78 O89 2.294 . S
In78 O90 2.326 . S
O79 In78 2.294 . S
O79 C88 1.240 . S
O80 In78 2.326 . S
O80 C88 1.252 . S
C81 O84 1.252 . S
C81 O85 1.260 . S
C82 O89 1.240 . S
C82 O90 1.252 . S
C83 O86 1.252 . S
C83 O87 1.260 . S
O84 In78 2.266 . S
O84 C81 1.252 . S
O85 In78 2.326 . S
O85 C81 1.260 . S
O86 In78 2.266 . S
O86 C83 1.252 . S
O87 In78 2.326 . S
O87 C83 1.260 . S
C88 O79 1.240 . S
C88 O80 1.252 . S
O89 In78 2.294 . S
O89 C82 1.240 . S
O90 In78 2.326 . S
O90 C82 1.252 . S
In91 O92 2.294 . S
In91 O93 2.326 . S
In91 O97 2.266 . S
In91 O98 2.326 . S
In91 O99 2.266 . S
In91 O100 2.326 . S
In91 O102 2.294 1_554 S
In91 O103 2.326 1_554 S
O92 In91 2.294 . S
O92 C101 1.240 . S
O93 In91 2.326 . S
O93 C101 1.252 . S
C94 O97 1.252 . S
C94 O98 1.260 . S
C95 O102 1.240 . S
C95 O103 1.252 . S
C96 O99 1.252 . S
C96 O100 1.260 . S
O97 In91 2.266 . S
O97 C94 1.252 . S
O98 In91 2.326 . S
O98 C94 1.260 . S
O99 In91 2.266 . S
O99 C96 1.252 . S
O100 In91 2.326 . S
O100 C96 1.260 . S
C101 O92 1.240 . S
C101 O93 1.252 . S
O102 In91 2.294 1_556 S
O102 C95 1.240 . S
O103 In91 2.326 1_556 S
O103 C95 1.252 . S
C104 C105 1.170 . S
C104 C106 1.380 . S
C105 C104 1.170 . S
C106 C104 1.380 . S
C106 C107 1.170 . S
C107 C106 1.170 . S
C108 C109 1.170 . S
C108 C110 1.380 . S
C109 C108 1.170 . S
C110 C108 1.380 . S
C110 C111 1.170 . S
C111 C110 1.170 . S
C112 C113 1.170 . S
C112 C114 1.380 . S
C113 C112 1.170 . S
C114 C112 1.380 . S
C114 C115 1.170 . S
C115 C114 1.170 . S
C116 C117 1.170 . S
C116 C118 1.380 . S
C117 C116 1.170 . S
C118 C116 1.380 . S
C118 C119 1.170 . S
C119 C118 1.170 . S
C120 C121 1.170 . S
C120 C122 1.380 . S
C121 C120 1.170 . S
C122 C120 1.380 . S
C122 C123 1.170 . S
C123 C122 1.170 . S
C124 C125 1.170 . S
C124 C126 1.380 . S
C125 C124 1.170 . S
C126 C124 1.380 . S
C126 C127 1.170 . S
C127 C126 1.170 . S
C128 C129 1.170 . S
C128 C130 1.380 . S
C129 C128 1.170 . S
C130 C128 1.380 . S
C130 C131 1.170 . S
C131 C130 1.170 . S
C132 C133 1.170 . S
C132 C134 1.380 . S
C133 C132 1.170 . S
C134 C132 1.380 . S
C134 C135 1.170 . S
C135 C134 1.170 . S
C136 C137 1.170 . S
C136 C138 1.380 1_655 S
C137 C136 1.170 . S
C138 C136 1.380 1_455 S
C138 C139 1.170 . S
C139 C138 1.170 . S
C140 C141 1.170 . S
C140 C142 1.380 1_565 S
C141 C140 1.170 . S
C142 C140 1.380 1_545 S
C142 C143 1.170 . S
C143 C142 1.170 . S
C144 C145 1.170 . S
C144 C146 1.380 1_455 S
C145 C144 1.170 . S
C146 C144 1.380 1_655 S
C146 C147 1.170 . S
C147 C146 1.170 . S
C148 C149 1.170 . S
C148 C150 1.380 1_565 S
C149 C148 1.170 . S
C150 C148 1.380 1_545 S
C150 C151 1.170 . S
C151 C150 1.170 . S
C152 C153 1.170 . S
C152 C154 1.380 . S
C153 C152 1.170 . S
C154 C152 1.380 . S
C154 C155 1.170 . S
C155 C154 1.170 . S
C156 C157 1.170 . S
C156 C158 1.380 . S
C157 C156 1.170 . S
C158 C156 1.380 . S
C158 C159 1.170 . S
C159 C158 1.170 . S
C160 C161 1.170 . S
C160 C162 1.380 . S
C161 C160 1.170 . S
C162 C160 1.380 . S
C162 C163 1.170 . S
C163 C162 1.170 . S
C164 C165 1.170 . S
C164 C166 1.380 . S
C165 C164 1.170 . S
C166 C164 1.380 . S
C166 C167 1.170 . S
C167 C166 1.170 . S
C105 C10 1.618 . S
C107 C62 1.631 . S
C109 C17 1.633 . S
C111 C69 1.618 . S
C113 C88 1.646 . S
C115 C36 1.632 . S
C117 C95 1.636 . S
C119 C49 1.645 . S
C121 C81 1.177 . S
C123 C29 1.212 . S
C125 C96 1.218 . S
C127 C42 1.172 . S
C129 C3 1.221 . S
C131 C55 1.170 . S
C133 C18 1.175 . S
C135 C70 1.219 . S
C137 C31 1.456 . S
C139 C5 1.458 . S
C141 C44 1.462 . S
C143 C16 1.474 . S
C145 C57 1.455 . S
C147 C83 1.459 . S
C149 C94 1.458 . S
C151 C68 1.457 . S
C153 C4 1.437 . S
C155 C75 1.443 . S
C157 C82 1.439 . S
C159 C23 1.440 . S
C161 C30 1.445 . S
C163 C101 1.437 . S
C165 C43 1.437 . S
C167 C56 1.444 . S
