# Generated by pormake.
# Topology sxc, (6)-cn, num edge types: 1
# Building blocks:
#     Node 0, Type 0, BuildingBlock: MIFKUJ_clean_sbu_0, # of connection points: 6
#     Node 1, Type 0, BuildingBlock: MIFKUJ_clean_sbu_0, # of connection points: 6
#     Node 2, Type 0, BuildingBlock: MIFKUJ_clean_sbu_0, # of connection points: 6
#     Edge 3, Type (0, 0), BuildingBlock: AJUNOK_clean_linker_0, # of connection points: 2
#     Edge 4, Type (0, 0), BuildingBlock: AJUNOK_clean_linker_0, # of connection points: 2
#     Edge 5, Type (0, 0), BuildingBlock: AJUNOK_clean_linker_0, # of connection points: 2
#     Edge 6, Type (0, 0), BuildingBlock: AJUNOK_clean_linker_0, # of connection points: 2
#     Edge 7, Type (0, 0), BuildingBlock: AJUNOK_clean_linker_0, # of connection points: 2
#     Edge 8, Type (0, 0), BuildingBlock: AJUNOK_clean_linker_0, # of connection points: 2
#     Edge 9, Type (0, 0), BuildingBlock: AJUNOK_clean_linker_0, # of connection points: 2
#     Edge 10, Type (0, 0), BuildingBlock: AJUNOK_clean_linker_0, # of connection points: 2
#     Edge 11, Type (0, 0), BuildingBlock: AJUNOK_clean_linker_0, # of connection points: 2
# Relax obj value: 0.018
# Max RMSD: 0.066
# Mean RMSD: 0.047
data_MOF--net-sxc--node1-MIFKUJ_clean_sbu_0--edge1-AJUNOK_clean_linker_0
_symmetry_space_group_name_H-M    P1
_symmetry_Int_Tables_number       1
_symmetry_cell_setting            triclinic
loop_
_symmetry_equiv_pos_as_xyz
'x, y, z'
_cell_length_a     14.525932
_cell_length_b     13.606801
_cell_length_c     30.403611
_cell_angle_alpha  91.262972
_cell_angle_beta   99.392001
_cell_angle_gamma 116.07424
loop_
_atom_site_label
_atom_site_type_symbol
_atom_site_fract_x
_atom_site_fract_y
_atom_site_fract_z
_atom_type_partial_charge
Zn0 Zn 0.90949 0.83741 0.98054 0.0
Zn1 Zn 0.12344 0.13765 0.9906 0.0
C2 C 0.96104 0.66505 0.95745 0.0
O3 O 0.87756 0.63673 0.92604 0.0
C4 C 0.10119 0.33126 0.00018 0.0
O5 O 0.17283 0.34562 0.03557 0.0
O6 O 0.76227 0.71893 0.97312 0.0
O7 O 0.94778 0.92074 0.04155 0.0
O8 O 0.08343 0.08679 0.04911 0.0
C9 C 0.73184 0.65447 0.00296 0.0
O10 O 0.79555 0.67128 0.04143 0.0
O11 O -0.00473 0.75464 0.98248 0.0
C12 C 0.31779 0.28281 0.96897 0.0
O13 O 0.2565 0.2625 0.92962 0.0
O14 O 0.27922 0.23284 0.00128 0.0
O15 O 0.08216 0.02424 0.9383 0.0
O16 O 0.91292 0.91731 0.92558 0.0
O17 O 0.0626 0.24215 0.97441 0.0
C18 C 0.01495 0.00893 0.06539 0.0
C19 C -0.00705 0.98833 0.91303 0.0
Zn20 Zn 0.09034 0.96946 0.34375 0.0
Zn21 Zn 0.88607 0.07259 0.32363 0.0
C22 C 0.03193 0.75113 0.37193 0.0
O23 O 0.10252 0.80469 0.40799 0.0
C24 C 0.92355 0.29265 0.32154 0.0
O25 O 0.87205 0.24957 0.28066 0.0
O26 O 0.23765 -0.00563 0.35376 0.0
O27 O 0.05794 0.00658 0.28126 0.0
O28 O 0.93393 0.06201 0.26618 0.0
C29 C 0.26438 0.94883 0.32479 0.0
O30 O 0.19578 0.8917 0.28869 0.0
O31 O 0.00816 0.80527 0.34243 0.0
C32 C 0.69627 0.03105 0.34493 0.0
O33 O 0.76113 0.07203 0.38355 0.0
O34 O 0.73237 0.02109 0.31068 0.0
O35 O 0.91001 0.98159 0.37067 0.0
O36 O 0.07741 0.05257 0.39586 0.0
O37 O 0.94623 0.23221 0.34807 0.0
C38 C 0.00218 0.03806 0.25436 0.0
C39 C -0.01241 0.03513 0.40184 0.0
Zn40 Zn 0.1624 0.13471 0.66648 0.0
Zn41 Zn 0.83155 0.94058 0.659 0.0
C42 C 0.33208 0.08839 0.68936 0.0
O43 O 0.35951 0.17587 0.71732 0.0
C44 C 0.63586 0.93838 0.66061 0.0
O45 O 0.60531 0.85 0.63273 0.0
O46 O 0.26357 0.29286 0.66285 0.0
O47 O 0.02788 0.07467 0.61728 0.0
O48 O 0.8556 0.97991 0.59734 0.0
C49 C 0.33478 0.31475 0.63985 0.0
O50 O 0.33012 0.23556 0.6127 0.0
O51 O 0.24432 0.04914 0.66246 0.0
C52 C 0.71032 0.73241 0.68758 0.0
O53 O 0.71886 0.7964 0.72259 0.0
O54 O 0.76384 0.77541 0.65789 0.0
O55 O 0.9731 0.02098 0.69498 0.0
O56 O 0.13163 0.12193 0.72929 0.0
O57 O 0.73283 -0.00452 0.67643 0.0
C58 C 0.94461 0.03741 0.58715 0.0
C59 C 0.0375 0.06058 0.73144 0.0
C60 C -0.001 0.40668 0.94965 0.0
C61 C 0.06897 0.41899 0.98969 0.0
C62 C 0.96734 0.48822 0.9389 0.0
C63 C 0.00422 0.58558 0.96774 0.0
H64 H 0.96757 0.33308 0.9264 0.0
H65 H 0.91228 0.47383 0.90793 0.0
S66 S 0.18851 0.65825 0.07706 0.0
N67 N 0.1743 0.53663 0.05846 0.0
N68 N 0.1151 0.68963 0.03828 0.0
C69 C 0.07522 0.59963 0.00772 0.0
C70 C 0.1073 0.5164 0.01872 0.0
C71 C 0.41585 0.95914 0.29335 0.0
C72 C 0.37234 0.96318 0.33094 0.0
C73 C 0.52028 0.97926 0.29824 0.0
C74 C 0.5846 0.00326 0.34093 0.0
H75 H 0.36983 0.94333 0.25982 0.0
H76 H 0.55113 0.97809 0.26822 0.0
S77 S 0.50319 0.00934 0.45023 0.0
N78 N 0.39798 0.98354 0.41229 0.0
N79 N 0.59413 0.02047 0.42169 0.0
C80 C 0.54051 0.00297 0.3789 0.0
C81 C 0.43437 0.98317 0.37385 0.0
C82 C 0.5343 0.59524 0.69823 0.0
C83 C 0.61957 0.62189 0.67658 0.0
C84 C 0.44194 0.49759 0.68517 0.0
C85 C 0.43086 0.42148 0.65014 0.0
H86 H 0.53749 0.65149 0.72487 0.0
H87 H 0.37895 0.48163 0.70306 0.0
S88 S 0.63261 0.45034 0.58341 0.0
N89 N 0.68806 0.56324 0.61885 0.0
N90 N 0.51473 0.37903 0.5944 0.0
C91 C 0.51603 0.44644 0.62842 0.0
C92 C 0.61022 0.54651 0.64165 0.0
C93 C 0.58858 0.08528 0.68307 0.0
C94 C 0.55851 0.97333 0.67148 0.0
C95 C 0.5148 0.12136 0.68983 0.0
C96 C 0.40852 0.04674 0.68516 0.0
H97 H 0.66906 0.14595 0.68558 0.0
H98 H 0.5407 0.20876 0.69735 0.0
S99 S 0.29245 0.74358 0.6626 0.0
N100 N 0.41719 0.78678 0.66081 0.0
N101 N 0.27846 0.85542 0.67301 0.0
C102 C 0.37808 0.93431 0.67555 0.0
C103 C 0.4532 0.89735 0.66891 0.0
C104 C 0.57826 0.51025 0.029 0.0
C105 C 0.62767 0.55811 -0.00648 0.0
C106 C 0.47917 0.41945 0.02082 0.0
C107 C 0.42602 0.37265 0.97683 0.0
H108 H 0.61551 0.54438 0.06338 0.0
H109 H 0.44316 0.38737 0.04923 0.0
S110 S 0.52675 0.46043 0.87239 0.0
N111 N 0.61942 0.5475 0.91287 0.0
N112 N 0.43377 0.37671 0.89747 0.0
C113 C 0.47608 0.41783 0.94109 0.0
C114 C 0.57668 0.51059 0.94943 0.0
C115 C 0.94626 0.47896 0.30357 0.0
C116 C 0.95038 0.40839 0.33614 0.0
C117 C 0.96918 0.58823 0.31568 0.0
C118 C -0.0024 0.632 0.36092 0.0
H119 H 0.92636 0.45017 0.2682 0.0
H120 H 0.96733 0.63954 0.28913 0.0
S121 S 0.01121 0.4794 0.45949 0.0
N122 N -0.02117 0.38828 0.41588 0.0
N123 N 0.02282 0.59451 0.43864 0.0
C124 C -2e-05 0.56196 0.39399 0.0
C125 C -0.02373 0.45009 0.38162 0.0
C126 C 0.96999 0.9316 0.18176 0.0
C127 C 0.00875 0.03411 0.20684 0.0
C128 C 0.97182 0.92441 0.13595 0.0
C129 C 0.01448 0.01972 0.1139 0.0
H130 H 0.93667 0.8564 0.19758 0.0
H131 H 0.94039 0.84349 0.11783 0.0
S132 S 0.13034 0.30818 0.16609 0.0
N133 N 0.09258 0.23262 0.20751 0.0
N134 N 0.09901 0.22028 0.12143 0.0
C135 C 0.05565 0.12306 0.13915 0.0
C136 C 0.05191 0.12999 0.18566 0.0
C137 C 0.88173 0.96974 0.46129 0.0
C138 C 0.9716 0.04788 0.44786 0.0
C139 C 0.8717 0.97039 0.50624 0.0
C140 C 0.9511 0.04931 0.53939 0.0
H141 H 0.82089 0.90426 0.43734 0.0
H142 H 0.8033 0.90524 0.51527 0.0
S143 S 0.18973 0.28695 0.51945 0.0
N144 N 0.13308 0.21657 0.46958 0.0
N145 N 0.11402 0.21838 0.55438 0.0
C146 C 0.03726 0.13324 0.52576 0.0
C147 C 0.04754 0.13237 0.4799 0.0
C148 C 0.96446 0.93388 0.78794 0.0
C149 C 0.00612 0.04103 0.77504 0.0
C150 C 0.95509 0.91629 0.83266 0.0
C151 C -0.013 0.00555 0.86533 0.0
H152 H 0.94507 0.8642 0.76404 0.0
H153 H 0.92804 0.83331 0.84217 0.0
S154 S 0.08155 0.29896 0.84603 0.0
N155 N 0.06681 0.23535 0.79659 0.0
N156 N 0.04691 0.20207 0.88035 0.0
C157 C 0.02118 0.11178 0.8519 0.0
C158 C 0.03135 0.12966 0.80668 0.0
loop_
_geom_bond_atom_site_label_1
_geom_bond_atom_site_label_2
_geom_bond_distance
_geom_bond_site_symmetry_2
_ccdc_geom_bond_type
Zn0 O6 1.969 . S
Zn0 O7 1.965 1_556 S
Zn0 O11 2.024 1_656 S
Zn0 O16 1.969 . S
Zn1 O8 1.969 . S
Zn1 O14 1.969 . S
Zn1 O15 1.965 1_554 S
Zn1 O17 2.024 1_554 S
C2 O3 1.229 1_455 S
C2 O11 1.058 1_556 S
O3 C2 1.229 1_655 S
C4 O5 1.229 . S
C4 O17 1.058 1_554 S
O5 C4 1.229 . S
O6 Zn0 1.969 . S
O6 C9 1.267 1_556 S
O7 Zn0 1.965 1_554 S
O7 C18 1.260 1_665 S
O8 Zn1 1.969 . S
O8 C18 1.258 . S
C9 O6 1.267 1_554 S
C9 O10 1.228 . S
O10 C9 1.228 . S
O11 Zn0 2.024 1_454 S
O11 C2 1.058 1_554 S
C12 O13 1.228 . S
C12 O14 1.267 1_556 S
O13 C12 1.228 . S
O14 Zn1 1.969 . S
O14 C12 1.267 1_554 S
O15 Zn1 1.965 1_556 S
O15 C19 1.260 1_545 S
O16 Zn0 1.969 . S
O16 C19 1.258 1_655 S
O17 Zn1 2.024 1_556 S
O17 C4 1.058 1_556 S
C18 O7 1.260 1_445 S
C18 O8 1.258 . S
C19 O15 1.260 1_565 S
C19 O16 1.258 1_455 S
Zn20 O26 1.969 1_565 S
Zn20 O27 1.965 1_565 S
Zn20 O31 2.024 . S
Zn20 O36 1.969 . S
Zn21 O28 1.969 . S
Zn21 O34 1.969 . S
Zn21 O35 1.965 . S
Zn21 O37 2.024 1_655 S
C22 O23 1.229 . S
C22 O31 1.058 . S
O23 C22 1.229 . S
C24 O25 1.229 . S
C24 O37 1.058 1_655 S
O25 C24 1.229 . S
O26 Zn20 1.969 1_545 S
O26 C29 1.267 . S
O27 Zn20 1.965 1_545 S
O27 C38 1.260 . S
O28 Zn21 1.969 . S
O28 C38 1.258 1_655 S
C29 O26 1.267 . S
C29 O30 1.228 1_545 S
O30 C29 1.228 1_565 S
O31 Zn20 2.024 . S
O31 C22 1.058 . S
C32 O33 1.228 . S
C32 O34 1.267 . S
O33 C32 1.228 . S
O34 Zn21 1.969 . S
O34 C32 1.267 . S
O35 Zn21 1.965 . S
O35 C39 1.260 1_655 S
O36 Zn20 1.969 . S
O36 C39 1.258 1_565 S
O37 Zn21 2.024 1_455 S
O37 C24 1.058 1_455 S
C38 O27 1.260 . S
C38 O28 1.258 1_455 S
C39 O35 1.260 1_455 S
C39 O36 1.258 1_545 S
Zn40 O46 1.969 . S
Zn40 O47 1.965 . S
Zn40 O51 2.024 . S
Zn40 O56 1.969 . S
Zn41 O48 1.969 . S
Zn41 O54 1.969 . S
Zn41 O55 1.965 . S
Zn41 O57 2.024 1_565 S
C42 O43 1.229 . S
C42 O51 1.058 . S
O43 C42 1.229 . S
C44 O45 1.229 1_545 S
C44 O57 1.058 . S
O45 C44 1.229 1_565 S
O46 Zn40 1.969 . S
O46 C49 1.267 . S
O47 Zn40 1.965 . S
O47 C58 1.260 1_455 S
O48 Zn41 1.969 . S
O48 C58 1.258 1_565 S
C49 O46 1.267 . S
C49 O50 1.228 . S
O50 C49 1.228 . S
O51 Zn40 2.024 . S
O51 C42 1.058 . S
C52 O53 1.228 . S
C52 O54 1.267 . S
O53 C52 1.228 . S
O54 Zn41 1.969 . S
O54 C52 1.267 . S
O55 Zn41 1.965 . S
O55 C59 1.260 1_665 S
O56 Zn40 1.969 . S
O56 C59 1.258 . S
O57 Zn41 2.024 1_545 S
O57 C44 1.058 . S
C58 O47 1.260 1_655 S
C58 O48 1.258 1_545 S
C59 O55 1.260 1_445 S
C59 O56 1.258 . S
C60 C61 1.369 1_656 S
C60 C62 1.419 . S
C60 H64 0.930 . S
C61 C60 1.369 1_454 S
C61 C70 1.429 . S
C62 C60 1.419 . S
C62 C63 1.363 1_656 S
C62 H65 0.929 . S
C63 C62 1.363 1_454 S
C63 C69 1.428 . S
H64 C60 0.930 . S
H65 C62 0.929 . S
S66 N67 1.613 . S
S66 N68 1.610 . S
N67 S66 1.613 . S
N67 C70 1.350 . S
N68 S66 1.610 . S
N68 C69 1.351 . S
C69 C63 1.428 . S
C69 N68 1.351 . S
C69 C70 1.434 . S
C70 C61 1.429 . S
C70 N67 1.350 . S
C70 C69 1.434 . S
C71 C72 1.369 . S
C71 C73 1.419 . S
C71 H75 0.930 . S
C72 C71 1.369 . S
C72 C81 1.429 . S
C73 C71 1.419 . S
C73 C74 1.363 . S
C73 H76 0.929 . S
C74 C73 1.363 . S
C74 C80 1.428 . S
H75 C71 0.930 . S
H76 C73 0.929 . S
S77 N78 1.613 . S
S77 N79 1.610 . S
N78 S77 1.613 . S
N78 C81 1.350 . S
N79 S77 1.610 . S
N79 C80 1.351 . S
C80 C74 1.428 . S
C80 N79 1.351 . S
C80 C81 1.434 . S
C81 C72 1.429 . S
C81 N78 1.350 . S
C81 C80 1.434 . S
C82 C83 1.369 . S
C82 C84 1.419 . S
C82 H86 0.930 . S
C83 C82 1.369 . S
C83 C92 1.429 . S
C84 C82 1.419 . S
C84 C85 1.363 . S
C84 H87 0.929 . S
C85 C84 1.363 . S
C85 C91 1.428 . S
H86 C82 0.930 . S
H87 C84 0.929 . S
S88 N89 1.613 . S
S88 N90 1.610 . S
N89 S88 1.613 . S
N89 C92 1.350 . S
N90 S88 1.610 . S
N90 C91 1.351 . S
C91 C85 1.428 . S
C91 N90 1.351 . S
C91 C92 1.434 . S
C92 C83 1.429 . S
C92 N89 1.350 . S
C92 C91 1.434 . S
C93 C94 1.369 . S
C93 C95 1.419 . S
C93 H97 0.930 . S
C94 C93 1.369 . S
C94 C103 1.429 1_545 S
C95 C93 1.419 . S
C95 C96 1.363 . S
C95 H98 0.929 . S
C96 C95 1.363 . S
C96 C102 1.428 1_545 S
H97 C93 0.930 . S
H98 C95 0.929 . S
S99 N100 1.613 . S
S99 N101 1.610 . S
N100 S99 1.613 . S
N100 C103 1.350 . S
N101 S99 1.610 . S
N101 C102 1.351 . S
C102 C96 1.428 1_565 S
C102 N101 1.351 . S
C102 C103 1.434 . S
C103 C94 1.429 1_565 S
C103 N100 1.350 . S
C103 C102 1.434 . S
C104 C105 1.369 . S
C104 C106 1.419 . S
C104 H108 0.930 . S
C105 C104 1.369 . S
C105 C114 1.429 1_554 S
C106 C104 1.419 . S
C106 C107 1.363 . S
C106 H109 0.929 . S
C107 C106 1.363 . S
C107 C113 1.428 1_554 S
H108 C104 0.930 . S
H109 C106 0.929 . S
S110 N111 1.613 . S
S110 N112 1.610 . S
N111 S110 1.613 . S
N111 C114 1.350 . S
N112 S110 1.610 . S
N112 C113 1.351 . S
C113 C107 1.428 1_556 S
C113 N112 1.351 . S
C113 C114 1.434 . S
C114 C105 1.429 1_556 S
C114 N111 1.350 . S
C114 C113 1.434 . S
C115 C116 1.369 . S
C115 C117 1.419 . S
C115 H119 0.930 . S
C116 C115 1.369 . S
C116 C125 1.429 1_455 S
C117 C115 1.419 . S
C117 C118 1.363 . S
C117 H120 0.929 . S
C118 C117 1.363 . S
C118 C124 1.428 1_455 S
H119 C115 0.930 . S
H120 C117 0.929 . S
S121 N122 1.613 . S
S121 N123 1.610 . S
N122 S121 1.613 . S
N122 C125 1.350 . S
N123 S121 1.610 . S
N123 C124 1.351 . S
C124 C118 1.428 1_655 S
C124 N123 1.351 . S
C124 C125 1.434 . S
C125 C116 1.429 1_655 S
C125 N122 1.350 . S
C125 C124 1.434 . S
C126 C127 1.369 1_665 S
C126 C128 1.419 . S
C126 H130 0.930 . S
C127 C126 1.369 1_445 S
C127 C136 1.429 . S
C128 C126 1.419 . S
C128 C129 1.363 1_665 S
C128 H131 0.929 . S
C129 C128 1.363 1_445 S
C129 C135 1.428 . S
H130 C126 0.930 . S
H131 C128 0.929 . S
S132 N133 1.613 . S
S132 N134 1.610 . S
N133 S132 1.613 . S
N133 C136 1.350 . S
N134 S132 1.610 . S
N134 C135 1.351 . S
C135 C129 1.428 . S
C135 N134 1.351 . S
C135 C136 1.434 . S
C136 C127 1.429 . S
C136 N133 1.350 . S
C136 C135 1.434 . S
C137 C138 1.369 1_665 S
C137 C139 1.419 . S
C137 H141 0.930 . S
C138 C137 1.369 1_445 S
C138 C147 1.429 . S
C139 C137 1.419 . S
C139 C140 1.363 1_665 S
C139 H142 0.929 . S
C140 C139 1.363 1_445 S
C140 C146 1.428 . S
H141 C137 0.930 . S
H142 C139 0.929 . S
S143 N144 1.613 . S
S143 N145 1.610 . S
N144 S143 1.613 . S
N144 C147 1.350 . S
N145 S143 1.610 . S
N145 C146 1.351 . S
C146 C140 1.428 . S
C146 N145 1.351 . S
C146 C147 1.434 . S
C147 C138 1.429 . S
C147 N144 1.350 . S
C147 C146 1.434 . S
C148 C149 1.369 1_565 S
C148 C150 1.419 . S
C148 H152 0.930 . S
C149 C148 1.369 1_545 S
C149 C158 1.429 . S
C150 C148 1.419 . S
C150 C151 1.363 1_565 S
C150 H153 0.929 . S
C151 C150 1.363 1_545 S
C151 C157 1.428 . S
H152 C148 0.930 . S
H153 C150 0.929 . S
S154 N155 1.613 . S
S154 N156 1.610 . S
N155 S154 1.613 . S
N155 C158 1.350 . S
N156 S154 1.610 . S
N156 C157 1.351 . S
C157 C151 1.428 . S
C157 N156 1.351 . S
C157 C158 1.434 . S
C158 C149 1.429 . S
C158 N155 1.350 . S
C158 C157 1.434 . S
C61 C4 1.420 . S
C63 C2 1.425 1_554 S
C72 C29 1.129 . S
C74 C32 1.124 . S
C83 C52 1.290 . S
C85 C49 1.283 . S
C94 C44 1.580 . S
C96 C42 1.591 . S
C105 C9 1.276 . S
C107 C12 1.276 1_554 S
C116 C24 1.421 1_455 S
C118 C22 1.428 . S
C127 C38 1.486 . S
C129 C18 1.477 . S
C138 C39 1.485 . S
C140 C58 1.492 1_455 S
C149 C59 1.487 . S
C151 C19 1.497 1_545 S
