# Generated by pormake.
# Topology uob, (4)-cn, num edge types: 1
# Building blocks:
#     Node 0, Type 0, BuildingBlock: CEKHIL_clean_sbu_0, # of connection points: 4
#     Node 1, Type 0, BuildingBlock: CEKHIL_clean_sbu_0, # of connection points: 4
#     Node 2, Type 0, BuildingBlock: CEKHIL_clean_sbu_0, # of connection points: 4
#     Node 3, Type 0, BuildingBlock: CEKHIL_clean_sbu_0, # of connection points: 4
#     Node 4, Type 0, BuildingBlock: CEKHIL_clean_sbu_0, # of connection points: 4
#     Node 5, Type 0, BuildingBlock: CEKHIL_clean_sbu_0, # of connection points: 4
#     Node 6, Type 0, BuildingBlock: CEKHIL_clean_sbu_0, # of connection points: 4
#     Node 7, Type 0, BuildingBlock: CEKHIL_clean_sbu_0, # of connection points: 4
#     Node 8, Type 0, BuildingBlock: CEKHIL_clean_sbu_0, # of connection points: 4
#     Node 9, Type 0, BuildingBlock: CEKHIL_clean_sbu_0, # of connection points: 4
#     Node 10, Type 0, BuildingBlock: CEKHIL_clean_sbu_0, # of connection points: 4
#     Node 11, Type 0, BuildingBlock: CEKHIL_clean_sbu_0, # of connection points: 4
#     Node 12, Type 0, BuildingBlock: CEKHIL_clean_sbu_0, # of connection points: 4
#     Node 13, Type 0, BuildingBlock: CEKHIL_clean_sbu_0, # of connection points: 4
#     Node 14, Type 0, BuildingBlock: CEKHIL_clean_sbu_0, # of connection points: 4
#     Node 15, Type 0, BuildingBlock: CEKHIL_clean_sbu_0, # of connection points: 4
#     Edge 16, Type (0, 0), None
#     Edge 17, Type (0, 0), None
#     Edge 18, Type (0, 0), None
#     Edge 19, Type (0, 0), None
#     Edge 20, Type (0, 0), None
#     Edge 21, Type (0, 0), None
#     Edge 22, Type (0, 0), None
#     Edge 23, Type (0, 0), None
#     Edge 24, Type (0, 0), None
#     Edge 25, Type (0, 0), None
#     Edge 26, Type (0, 0), None
#     Edge 27, Type (0, 0), None
#     Edge 28, Type (0, 0), None
#     Edge 29, Type (0, 0), None
#     Edge 30, Type (0, 0), None
#     Edge 31, Type (0, 0), None
#     Edge 32, Type (0, 0), None
#     Edge 33, Type (0, 0), None
#     Edge 34, Type (0, 0), None
#     Edge 35, Type (0, 0), None
#     Edge 36, Type (0, 0), None
#     Edge 37, Type (0, 0), None
#     Edge 38, Type (0, 0), None
#     Edge 39, Type (0, 0), None
#     Edge 40, Type (0, 0), None
#     Edge 41, Type (0, 0), None
#     Edge 42, Type (0, 0), None
#     Edge 43, Type (0, 0), None
#     Edge 44, Type (0, 0), None
#     Edge 45, Type (0, 0), None
#     Edge 46, Type (0, 0), None
#     Edge 47, Type (0, 0), None
# Relax obj value: 0.157
# Max RMSD: 0.195
# Mean RMSD: 0.195
data_MOF--net-uob--node1-CEKHIL_clean_sbu_0--edge1-none
_symmetry_space_group_name_H-M    P1
_symmetry_Int_Tables_number       1
_symmetry_cell_setting            triclinic
loop_
_symmetry_equiv_pos_as_xyz
'x, y, z'
_cell_length_a     23.859958
_cell_length_b     23.863995
_cell_length_c     11.418813
_cell_angle_alpha  89.99331
_cell_angle_beta   89.983954
_cell_angle_gamma 90.004004
loop_
_atom_site_label
_atom_site_type_symbol
_atom_site_fract_x
_atom_site_fract_y
_atom_site_fract_z
_atom_type_partial_charge
Co0 Co 0.16252 0.07448 0.2692 0.0
O1 O 0.2309 0.1088 0.3272 0.0
O2 O 0.21565 0.01846 0.3377 0.0
C3 C 0.14934 0.12519 0.10052 0.0
O4 O 0.09127 0.02921 0.2254 0.0
Co5 Co 0.05983 0.15757 0.26818 0.0
O6 O 0.01756 0.0898 0.21956 0.0
C7 C 0.11414 0.11825 0.48356 0.0
C8 C 0.24582 0.06123 0.37198 0.0
C9 C 0.03799 0.0405 0.21233 0.0
O10 O 0.13354 0.0774 0.4274 0.0
O11 O 0.08675 0.15851 0.4361 0.0
O12 O 0.18359 0.08257 0.10151 0.0
O13 O 0.13224 0.13975 0.20259 0.0
Co14 Co 0.96011 0.66244 0.51917 0.0
O15 O 0.92581 0.73084 0.57711 0.0
O16 O 1.01616 0.71556 0.58761 0.0
C17 C 0.9094 0.64924 0.35052 0.0
O18 O 1.00535 0.59117 0.47544 0.0
Co19 Co 0.87696 0.55978 0.51823 0.0
O20 O 0.94473 0.51748 0.46967 0.0
C21 C 0.91631 0.61407 0.73361 0.0
C22 C 0.97339 0.74575 0.62187 0.0
C23 C 0.99405 0.53789 0.46242 0.0
O24 O 0.95715 0.63352 0.67741 0.0
O25 O 0.87605 0.58667 0.68617 0.0
O26 O 0.95205 0.68346 0.35148 0.0
O27 O 0.89481 0.63217 0.4526 0.0
Co28 Co 0.37216 0.46002 0.76912 0.0
O29 O 0.30375 0.42572 0.8271 0.0
O30 O 0.31904 0.51606 0.83762 0.0
C31 C 0.38537 0.40933 0.60044 0.0
O32 O 0.44343 0.50528 0.72536 0.0
Co33 Co 0.47484 0.37691 0.76805 0.0
O34 O 0.51714 0.44468 0.7195 0.0
C35 C 0.42056 0.41625 0.98351 0.0
C36 C 0.28884 0.4733 0.87189 0.0
C37 C 0.49672 0.49399 0.7123 0.0
O38 O 0.40108 0.45707 0.92734 0.0
O39 O 0.44797 0.37601 0.93604 0.0
O40 O 0.35114 0.45196 0.60144 0.0
O41 O 0.40244 0.39474 0.7025 0.0
Co42 Co 0.57452 0.87211 0.01928 0.0
O43 O 0.60885 0.80373 0.07725 0.0
O44 O 0.51849 0.81897 0.08782 0.0
C45 C 0.62523 0.88531 0.85057 0.0
O46 O 0.52926 0.94336 0.97552 0.0
Co47 Co 0.65765 0.97478 0.01818 0.0
O48 O 0.58988 1.01706 0.96961 0.0
C49 C 0.61831 0.92048 0.23362 0.0
C50 C 0.56127 0.7888 0.12206 0.0
C51 C 0.54056 0.99664 0.96243 0.0
O52 O 0.57746 0.90105 0.17749 0.0
O53 O 0.65857 0.94788 0.18613 0.0
O54 O 0.5826 0.85107 0.8516 0.0
O55 O 0.63981 0.90239 0.95262 0.0
Co56 Co 0.16248 0.46005 0.07272 0.0
O57 O 0.23086 0.42573 0.01468 0.0
O58 O 0.21561 0.51607 0.00416 0.0
C59 C 0.14928 0.40935 0.24142 0.0
O60 O 0.09123 0.50531 0.11654 0.0
Co61 Co 0.05979 0.37694 0.07384 0.0
O62 O 0.01751 0.44471 0.12242 0.0
C63 C 0.11409 0.41627 0.85839 0.0
C64 C 0.24577 0.4733 0.96985 0.0
C65 C 0.03794 0.49401 0.12962 0.0
O66 O 0.13352 0.45711 0.91453 0.0
O67 O 0.08669 0.37601 0.90589 0.0
O68 O 0.18353 0.45197 0.24038 0.0
O69 O 0.13219 0.39477 0.13937 0.0
Co70 Co 0.57457 0.66244 0.32276 0.0
O71 O 0.60887 0.73084 0.26478 0.0
O72 O 0.51851 0.71554 0.2543 0.0
C73 C 0.62527 0.64924 0.49142 0.0
O74 O 0.52932 0.59116 0.36651 0.0
Co75 Co 0.65771 0.55979 0.32376 0.0
O76 O 0.58994 0.51748 0.37231 0.0
C77 C 0.61836 0.61406 0.10834 0.0
C78 C 0.56128 0.74573 0.21999 0.0
C79 C 0.54063 0.53789 0.37954 0.0
O80 O 0.57753 0.63352 0.16453 0.0
O81 O 0.65861 0.58666 0.15578 0.0
O82 O 0.58263 0.68346 0.49044 0.0
O83 O 0.63987 0.63218 0.38934 0.0
Co84 Co 0.37216 0.07449 0.57274 0.0
O85 O 0.30378 0.10881 0.51471 0.0
O86 O 0.31903 0.01846 0.50425 0.0
C87 C 0.38534 0.1252 0.7414 0.0
O88 O 0.44341 0.02923 0.61656 0.0
Co89 Co 0.47485 0.1576 0.57372 0.0
O90 O 0.51712 0.08983 0.62234 0.0
C91 C 0.42054 0.11828 0.35837 0.0
C92 C 0.28888 0.06123 0.46992 0.0
C93 C 0.49669 0.04053 0.6296 0.0
O94 O 0.40115 0.07741 0.41454 0.0
O95 O 0.44792 0.15854 0.40581 0.0
O96 O 0.35109 0.08258 0.74042 0.0
O97 O 0.40244 0.13977 0.63932 0.0
Co98 Co 0.96015 0.87209 0.82263 0.0
O99 O 0.92582 0.80372 0.76462 0.0
O100 O 1.01618 0.81897 0.75409 0.0
C101 C 0.90943 0.88528 0.99132 0.0
O102 O 1.00541 0.94334 0.86642 0.0
Co103 Co 0.87703 0.97476 0.8237 0.0
O104 O 0.9448 1.01703 0.87231 0.0
C105 C 0.91637 0.92047 0.60829 0.0
C106 C 0.9734 0.78882 0.71979 0.0
C107 C 0.99411 0.99661 0.87951 0.0
O108 O 0.95723 0.90107 0.66443 0.0
O109 O 0.8761 0.94785 0.65577 0.0
O110 O 0.95205 0.85103 0.99031 0.0
O111 O 0.89486 0.90237 0.88926 0.0
Co112 Co 0.66251 0.57443 0.7692 0.0
O113 O 0.73089 0.60876 0.82723 0.0
O114 O 0.71565 0.51842 0.83771 0.0
C115 C 0.64932 0.62514 0.60054 0.0
O116 O 0.59127 0.52916 0.72539 0.0
Co117 Co 0.55982 0.65752 0.76822 0.0
O118 O 0.51755 0.58976 0.71958 0.0
C119 C 0.61417 0.61822 0.98356 0.0
C120 C 0.74581 0.56119 0.872 0.0
C121 C 0.53799 0.54046 0.71229 0.0
O122 O 0.63352 0.57734 0.9274 0.0
O123 O 0.58678 0.65848 0.93611 0.0
O124 O 0.68359 0.58254 0.60153 0.0
O125 O 0.63222 0.63971 0.70261 0.0
Co126 Co 0.46015 0.16245 0.01916 0.0
O127 O 0.42585 0.23085 0.07711 0.0
O128 O 0.5162 0.21557 0.0876 0.0
C129 C 0.40946 0.14923 0.85052 0.0
O130 O 0.5054 0.09118 0.97542 0.0
Co131 Co 0.37701 0.05979 0.01825 0.0
O132 O 0.44478 0.01749 0.96968 0.0
C133 C 0.41634 0.11412 0.23359 0.0
C134 C 0.47344 0.24576 0.12186 0.0
C135 C 0.49409 0.03791 0.96237 0.0
O136 O 0.4572 0.13352 0.17739 0.0
O137 O 0.37609 0.08671 0.18618 0.0
O138 O 0.45209 0.18347 0.85147 0.0
O139 O 0.39485 0.13217 0.9526 0.0
Co140 Co 0.87217 0.96007 0.26913 0.0
O141 O 0.80377 0.92576 0.32713 0.0
O142 O 0.81905 1.0161 0.33762 0.0
C143 C 0.88539 0.90938 0.10046 0.0
O144 O 0.94344 1.00532 0.22534 0.0
Co145 Co 0.97485 0.87696 0.26809 0.0
O146 O 1.01715 0.94473 0.21952 0.0
C147 C 0.92052 0.91628 0.4835 0.0
C148 C 0.78886 0.97334 0.37191 0.0
C149 C 0.99672 0.99402 0.21225 0.0
O150 O 0.90111 0.95713 0.42734 0.0
O151 O 0.94794 0.87604 0.43605 0.0
O152 O 0.85114 0.952 0.10146 0.0
O153 O 0.90245 0.89478 0.20253 0.0
Co154 Co 0.07448 0.3721 0.51926 0.0
O155 O 0.1088 0.30372 0.57724 0.0
O156 O 0.01845 0.31896 0.58781 0.0
C157 C 0.12518 0.38531 0.35057 0.0
O158 O 0.02921 0.44335 0.4755 0.0
Co159 Co 0.1576 0.47477 0.5182 0.0
O160 O 0.08983 0.51705 0.46962 0.0
C161 C 0.11827 0.42044 0.73361 0.0
C162 C 0.06122 0.28879 0.62205 0.0
C163 C 0.04052 0.49662 0.46238 0.0
O164 O 0.07741 0.40105 0.67747 0.0
O165 O 0.15853 0.44785 0.68613 0.0
O166 O 0.08256 0.35106 0.35159 0.0
O167 O 0.13977 0.40239 0.45262 0.0
Co168 Co 0.66249 0.96009 0.57273 0.0
O169 O 0.73087 0.92577 0.51469 0.0
O170 O 0.71563 1.01612 0.50418 0.0
C171 C 0.64928 0.9094 0.74142 0.0
O172 O 0.59124 1.00535 0.61656 0.0
Co173 Co 0.5598 0.87699 0.57382 0.0
O174 O 0.51752 0.94476 0.62241 0.0
C175 C 0.61414 0.9163 0.35841 0.0
C176 C 0.74578 0.97334 0.46986 0.0
C177 C 0.53796 0.99405 0.62967 0.0
O178 O 0.63352 0.95717 0.41455 0.0
O179 O 0.58673 0.87605 0.40588 0.0
O180 O 0.68354 0.95201 0.74039 0.0
O181 O 0.6322 0.89482 0.63937 0.0
Co182 Co 0.07452 0.16243 0.82275 0.0
O183 O 0.10883 0.23083 0.76475 0.0
O184 O 0.01847 0.21554 0.75429 0.0
C185 C 0.12522 0.14922 0.99139 0.0
O186 O 0.02928 0.09116 0.86653 0.0
Co187 Co 0.15767 0.05978 0.82372 0.0
O188 O 0.0899 0.01747 0.87229 0.0
C189 C 0.11833 0.1141 0.60834 0.0
C190 C 0.06124 0.24572 0.71997 0.0
C191 C 0.04059 0.03788 0.87958 0.0
O192 O 0.07747 0.1335 0.66453 0.0
O193 O 0.15859 0.08669 0.65577 0.0
O194 O 0.08259 0.18346 0.99043 0.0
O195 O 0.13983 0.13216 0.88932 0.0
Co196 Co 0.87215 0.57444 0.07276 0.0
O197 O 0.80378 0.60876 0.01472 0.0
O198 O 0.81902 0.51842 0.00427 0.0
C199 C 0.88535 0.62514 0.2414 0.0
O200 O 0.94339 0.52918 0.11658 0.0
Co201 Co 0.97485 0.65755 0.0737 0.0
O202 O 1.01712 0.58978 0.12233 0.0
C203 C 0.92049 0.61824 0.85838 0.0
C204 C 0.78887 0.56119 0.96993 0.0
C205 C 0.99668 0.54049 0.12965 0.0
O206 O 0.90115 0.57736 0.91456 0.0
O207 O 0.94789 0.6585 0.90581 0.0
O208 O 0.85108 0.58254 0.24043 0.0
O209 O 0.90244 0.63972 0.13933 0.0
Co210 Co 0.46019 0.3721 0.32262 0.0
O211 O 0.42586 0.30374 0.26459 0.0
O212 O 0.51622 0.31898 0.25408 0.0
C213 C 0.40948 0.38529 0.4913 0.0
O214 O 0.50546 0.44334 0.36644 0.0
Co215 Co 0.37707 0.47477 0.32366 0.0
O216 O 0.44484 0.51704 0.37229 0.0
C217 C 0.41639 0.42043 0.10829 0.0
C218 C 0.47344 0.28883 0.21978 0.0
C219 C 0.49415 0.49662 0.37956 0.0
O220 O 0.45728 0.40109 0.16443 0.0
O221 O 0.37612 0.44782 0.15576 0.0
O222 O 0.45209 0.35103 0.49029 0.0
O223 O 0.3949 0.40238 0.38924 0.0
loop_
_geom_bond_atom_site_label_1
_geom_bond_atom_site_label_2
_geom_bond_distance
_geom_bond_site_symmetry_2
_ccdc_geom_bond_type
Co0 O1 2.216 . S
Co0 O2 2.091 . S
Co0 O4 2.004 . S
Co0 O10 2.021 . S
Co0 O12 2.137 . S
Co0 O13 2.244 . S
O1 Co0 2.216 . S
O1 C8 1.247 . S
O2 Co0 2.091 . S
O2 C8 1.261 . S
C3 O12 1.247 . S
C3 O13 1.272 . S
O4 Co0 2.004 . S
O4 C9 1.259 . S
Co5 O6 2.061 . S
Co5 O11 2.052 . S
Co5 O13 2.135 . S
O6 Co5 2.061 . S
O6 C9 1.235 . S
C7 O10 1.238 . S
C7 O11 1.241 . S
C8 O1 1.247 . S
C8 O2 1.261 . S
C9 O4 1.259 . S
C9 O6 1.235 . S
O10 Co0 2.021 . S
O10 C7 1.238 . S
O11 Co5 2.052 . S
O11 C7 1.241 . S
O12 Co0 2.137 . S
O12 C3 1.247 . S
O13 Co0 2.244 . S
O13 C3 1.272 . S
O13 Co5 2.135 . S
Co14 O15 2.216 . S
Co14 O16 2.091 . S
Co14 O18 2.004 . S
Co14 O24 2.021 . S
Co14 O26 2.137 . S
Co14 O27 2.244 . S
O15 Co14 2.216 . S
O15 C22 1.247 . S
O16 Co14 2.091 . S
O16 C22 1.261 . S
C17 O26 1.247 . S
C17 O27 1.272 . S
O18 Co14 2.004 . S
O18 C23 1.259 . S
Co19 O20 2.061 . S
Co19 O25 2.052 . S
Co19 O27 2.135 . S
O20 Co19 2.061 . S
O20 C23 1.235 . S
C21 O24 1.238 . S
C21 O25 1.241 . S
C22 O15 1.247 . S
C22 O16 1.261 . S
C23 O18 1.259 . S
C23 O20 1.235 . S
O24 Co14 2.021 . S
O24 C21 1.238 . S
O25 Co19 2.052 . S
O25 C21 1.241 . S
O26 Co14 2.137 . S
O26 C17 1.247 . S
O27 Co14 2.244 . S
O27 C17 1.272 . S
O27 Co19 2.135 . S
Co28 O29 2.216 . S
Co28 O30 2.091 . S
Co28 O32 2.004 . S
Co28 O38 2.021 . S
Co28 O40 2.137 . S
Co28 O41 2.244 . S
O29 Co28 2.216 . S
O29 C36 1.247 . S
O30 Co28 2.091 . S
O30 C36 1.261 . S
C31 O40 1.247 . S
C31 O41 1.272 . S
O32 Co28 2.004 . S
O32 C37 1.259 . S
Co33 O34 2.061 . S
Co33 O39 2.052 . S
Co33 O41 2.135 . S
O34 Co33 2.061 . S
O34 C37 1.235 . S
C35 O38 1.238 1_554 S
C35 O39 1.241 1_554 S
C36 O29 1.247 . S
C36 O30 1.261 . S
C37 O32 1.259 . S
C37 O34 1.235 . S
O38 Co28 2.021 . S
O38 C35 1.238 1_556 S
O39 Co33 2.052 . S
O39 C35 1.241 1_556 S
O40 Co28 2.137 . S
O40 C31 1.247 . S
O41 Co28 2.244 . S
O41 C31 1.272 . S
O41 Co33 2.135 . S
Co42 O43 2.216 . S
Co42 O44 2.091 . S
Co42 O46 2.004 . S
Co42 O52 2.021 . S
Co42 O54 2.137 1_554 S
Co42 O55 2.244 1_554 S
O43 Co42 2.216 . S
O43 C50 1.247 . S
O44 Co42 2.091 . S
O44 C50 1.261 . S
C45 O54 1.247 . S
C45 O55 1.272 . S
O46 Co42 2.004 . S
O46 C51 1.259 . S
Co47 O48 2.061 . S
Co47 O53 2.052 . S
Co47 O55 2.135 1_554 S
O48 Co47 2.061 . S
O48 C51 1.235 . S
C49 O52 1.238 . S
C49 O53 1.241 . S
C50 O43 1.247 . S
C50 O44 1.261 . S
C51 O46 1.259 . S
C51 O48 1.235 . S
O52 Co42 2.021 . S
O52 C49 1.238 . S
O53 Co47 2.052 . S
O53 C49 1.241 . S
O54 Co42 2.137 1_556 S
O54 C45 1.247 . S
O55 Co42 2.244 1_556 S
O55 C45 1.272 . S
O55 Co47 2.135 1_556 S
Co56 O57 2.216 . S
Co56 O58 2.091 1_554 S
Co56 O60 2.004 . S
Co56 O66 2.021 1_554 S
Co56 O68 2.137 . S
Co56 O69 2.244 . S
O57 Co56 2.216 . S
O57 C64 1.247 1_554 S
O58 Co56 2.091 1_556 S
O58 C64 1.261 . S
C59 O68 1.247 . S
C59 O69 1.272 . S
O60 Co56 2.004 . S
O60 C65 1.259 . S
Co61 O62 2.061 . S
Co61 O67 2.052 1_554 S
Co61 O69 2.135 . S
O62 Co61 2.061 . S
O62 C65 1.235 . S
C63 O66 1.238 . S
C63 O67 1.241 . S
C64 O57 1.247 1_556 S
C64 O58 1.261 . S
C65 O60 1.259 . S
C65 O62 1.235 . S
O66 Co56 2.021 1_556 S
O66 C63 1.238 . S
O67 Co61 2.052 1_556 S
O67 C63 1.241 . S
O68 Co56 2.137 . S
O68 C59 1.247 . S
O69 Co56 2.244 . S
O69 C59 1.272 . S
O69 Co61 2.135 . S
Co70 O71 2.216 . S
Co70 O72 2.091 . S
Co70 O74 2.004 . S
Co70 O80 2.021 . S
Co70 O82 2.137 . S
Co70 O83 2.244 . S
O71 Co70 2.216 . S
O71 C78 1.247 . S
O72 Co70 2.091 . S
O72 C78 1.261 . S
C73 O82 1.247 . S
C73 O83 1.272 . S
O74 Co70 2.004 . S
O74 C79 1.259 . S
Co75 O76 2.061 . S
Co75 O81 2.052 . S
Co75 O83 2.135 . S
O76 Co75 2.061 . S
O76 C79 1.235 . S
C77 O80 1.238 . S
C77 O81 1.241 . S
C78 O71 1.247 . S
C78 O72 1.261 . S
C79 O74 1.259 . S
C79 O76 1.235 . S
O80 Co70 2.021 . S
O80 C77 1.238 . S
O81 Co75 2.052 . S
O81 C77 1.241 . S
O82 Co70 2.137 . S
O82 C73 1.247 . S
O83 Co70 2.244 . S
O83 C73 1.272 . S
O83 Co75 2.135 . S
Co84 O85 2.216 . S
Co84 O86 2.091 . S
Co84 O88 2.004 . S
Co84 O94 2.021 . S
Co84 O96 2.137 . S
Co84 O97 2.244 . S
O85 Co84 2.216 . S
O85 C92 1.247 . S
O86 Co84 2.091 . S
O86 C92 1.261 . S
C87 O96 1.247 . S
C87 O97 1.272 . S
O88 Co84 2.004 . S
O88 C93 1.259 . S
Co89 O90 2.061 . S
Co89 O95 2.052 . S
Co89 O97 2.135 . S
O90 Co89 2.061 . S
O90 C93 1.235 . S
C91 O94 1.238 . S
C91 O95 1.241 . S
C92 O85 1.247 . S
C92 O86 1.261 . S
C93 O88 1.259 . S
C93 O90 1.235 . S
O94 Co84 2.021 . S
O94 C91 1.238 . S
O95 Co89 2.052 . S
O95 C91 1.241 . S
O96 Co84 2.137 . S
O96 C87 1.247 . S
O97 Co84 2.244 . S
O97 C87 1.272 . S
O97 Co89 2.135 . S
Co98 O99 2.216 . S
Co98 O100 2.091 . S
Co98 O102 2.004 . S
Co98 O108 2.021 . S
Co98 O110 2.137 . S
Co98 O111 2.244 . S
O99 Co98 2.216 . S
O99 C106 1.247 . S
O100 Co98 2.091 . S
O100 C106 1.261 . S
C101 O110 1.247 . S
C101 O111 1.272 . S
O102 Co98 2.004 . S
O102 C107 1.259 . S
Co103 O104 2.061 . S
Co103 O109 2.052 . S
Co103 O111 2.135 . S
O104 Co103 2.061 . S
O104 C107 1.235 . S
C105 O108 1.238 . S
C105 O109 1.241 . S
C106 O99 1.247 . S
C106 O100 1.261 . S
C107 O102 1.259 . S
C107 O104 1.235 . S
O108 Co98 2.021 . S
O108 C105 1.238 . S
O109 Co103 2.052 . S
O109 C105 1.241 . S
O110 Co98 2.137 . S
O110 C101 1.247 . S
O111 Co98 2.244 . S
O111 C101 1.272 . S
O111 Co103 2.135 . S
Co112 O113 2.216 . S
Co112 O114 2.091 . S
Co112 O116 2.004 . S
Co112 O122 2.021 . S
Co112 O124 2.137 . S
Co112 O125 2.244 . S
O113 Co112 2.216 . S
O113 C120 1.247 . S
O114 Co112 2.091 . S
O114 C120 1.261 . S
C115 O124 1.247 . S
C115 O125 1.272 . S
O116 Co112 2.004 . S
O116 C121 1.259 . S
Co117 O118 2.061 . S
Co117 O123 2.052 . S
Co117 O125 2.135 . S
O118 Co117 2.061 . S
O118 C121 1.235 . S
C119 O122 1.238 1_554 S
C119 O123 1.241 1_554 S
C120 O113 1.247 . S
C120 O114 1.261 . S
C121 O116 1.259 . S
C121 O118 1.235 . S
O122 Co112 2.021 . S
O122 C119 1.238 1_556 S
O123 Co117 2.052 . S
O123 C119 1.241 1_556 S
O124 Co112 2.137 . S
O124 C115 1.247 . S
O125 Co112 2.244 . S
O125 C115 1.272 . S
O125 Co117 2.135 . S
Co126 O127 2.216 . S
Co126 O128 2.091 . S
Co126 O130 2.004 . S
Co126 O136 2.021 . S
Co126 O138 2.137 1_554 S
Co126 O139 2.244 1_554 S
O127 Co126 2.216 . S
O127 C134 1.247 . S
O128 Co126 2.091 . S
O128 C134 1.261 . S
C129 O138 1.247 . S
C129 O139 1.272 . S
O130 Co126 2.004 . S
O130 C135 1.259 . S
Co131 O132 2.061 . S
Co131 O137 2.052 . S
Co131 O139 2.135 1_554 S
O132 Co131 2.061 . S
O132 C135 1.235 . S
C133 O136 1.238 . S
C133 O137 1.241 . S
C134 O127 1.247 . S
C134 O128 1.261 . S
C135 O130 1.259 . S
C135 O132 1.235 . S
O136 Co126 2.021 . S
O136 C133 1.238 . S
O137 Co131 2.052 . S
O137 C133 1.241 . S
O138 Co126 2.137 1_556 S
O138 C129 1.247 . S
O139 Co126 2.244 1_556 S
O139 C129 1.272 . S
O139 Co131 2.135 1_556 S
Co140 O141 2.216 . S
Co140 O142 2.091 . S
Co140 O144 2.004 . S
Co140 O150 2.021 . S
Co140 O152 2.137 . S
Co140 O153 2.244 . S
O141 Co140 2.216 . S
O141 C148 1.247 . S
O142 Co140 2.091 . S
O142 C148 1.261 . S
C143 O152 1.247 . S
C143 O153 1.272 . S
O144 Co140 2.004 . S
O144 C149 1.259 . S
Co145 O146 2.061 . S
Co145 O151 2.052 . S
Co145 O153 2.135 . S
O146 Co145 2.061 . S
O146 C149 1.235 . S
C147 O150 1.238 . S
C147 O151 1.241 . S
C148 O141 1.247 . S
C148 O142 1.261 . S
C149 O144 1.259 . S
C149 O146 1.235 . S
O150 Co140 2.021 . S
O150 C147 1.238 . S
O151 Co145 2.052 . S
O151 C147 1.241 . S
O152 Co140 2.137 . S
O152 C143 1.247 . S
O153 Co140 2.244 . S
O153 C143 1.272 . S
O153 Co145 2.135 . S
Co154 O155 2.216 . S
Co154 O156 2.091 . S
Co154 O158 2.004 . S
Co154 O164 2.021 . S
Co154 O166 2.137 . S
Co154 O167 2.244 . S
O155 Co154 2.216 . S
O155 C162 1.247 . S
O156 Co154 2.091 . S
O156 C162 1.261 . S
C157 O166 1.247 . S
C157 O167 1.272 . S
O158 Co154 2.004 . S
O158 C163 1.259 . S
Co159 O160 2.061 . S
Co159 O165 2.052 . S
Co159 O167 2.135 . S
O160 Co159 2.061 . S
O160 C163 1.235 . S
C161 O164 1.238 . S
C161 O165 1.241 . S
C162 O155 1.247 . S
C162 O156 1.261 . S
C163 O158 1.259 . S
C163 O160 1.235 . S
O164 Co154 2.021 . S
O164 C161 1.238 . S
O165 Co159 2.052 . S
O165 C161 1.241 . S
O166 Co154 2.137 . S
O166 C157 1.247 . S
O167 Co154 2.244 . S
O167 C157 1.272 . S
O167 Co159 2.135 . S
Co168 O169 2.216 . S
Co168 O170 2.091 . S
Co168 O172 2.004 . S
Co168 O178 2.021 . S
Co168 O180 2.137 . S
Co168 O181 2.244 . S
O169 Co168 2.216 . S
O169 C176 1.247 . S
O170 Co168 2.091 . S
O170 C176 1.261 . S
C171 O180 1.247 . S
C171 O181 1.272 . S
O172 Co168 2.004 . S
O172 C177 1.259 . S
Co173 O174 2.061 . S
Co173 O179 2.052 . S
Co173 O181 2.135 . S
O174 Co173 2.061 . S
O174 C177 1.235 . S
C175 O178 1.238 . S
C175 O179 1.241 . S
C176 O169 1.247 . S
C176 O170 1.261 . S
C177 O172 1.259 . S
C177 O174 1.235 . S
O178 Co168 2.021 . S
O178 C175 1.238 . S
O179 Co173 2.052 . S
O179 C175 1.241 . S
O180 Co168 2.137 . S
O180 C171 1.247 . S
O181 Co168 2.244 . S
O181 C171 1.272 . S
O181 Co173 2.135 . S
Co182 O183 2.216 . S
Co182 O184 2.091 . S
Co182 O186 2.004 . S
Co182 O192 2.021 . S
Co182 O194 2.137 . S
Co182 O195 2.244 . S
O183 Co182 2.216 . S
O183 C190 1.247 . S
O184 Co182 2.091 . S
O184 C190 1.261 . S
C185 O194 1.247 . S
C185 O195 1.272 . S
O186 Co182 2.004 . S
O186 C191 1.259 . S
Co187 O188 2.061 . S
Co187 O193 2.052 . S
Co187 O195 2.135 . S
O188 Co187 2.061 . S
O188 C191 1.235 . S
C189 O192 1.238 . S
C189 O193 1.241 . S
C190 O183 1.247 . S
C190 O184 1.261 . S
C191 O186 1.259 . S
C191 O188 1.235 . S
O192 Co182 2.021 . S
O192 C189 1.238 . S
O193 Co187 2.052 . S
O193 C189 1.241 . S
O194 Co182 2.137 . S
O194 C185 1.247 . S
O195 Co182 2.244 . S
O195 C185 1.272 . S
O195 Co187 2.135 . S
Co196 O197 2.216 . S
Co196 O198 2.091 1_554 S
Co196 O200 2.004 . S
Co196 O206 2.021 1_554 S
Co196 O208 2.137 . S
Co196 O209 2.244 . S
O197 Co196 2.216 . S
O197 C204 1.247 1_554 S
O198 Co196 2.091 1_556 S
O198 C204 1.261 . S
C199 O208 1.247 . S
C199 O209 1.272 . S
O200 Co196 2.004 . S
O200 C205 1.259 . S
Co201 O202 2.061 . S
Co201 O207 2.052 1_554 S
Co201 O209 2.135 . S
O202 Co201 2.061 . S
O202 C205 1.235 . S
C203 O206 1.238 . S
C203 O207 1.241 . S
C204 O197 1.247 1_556 S
C204 O198 1.261 . S
C205 O200 1.259 . S
C205 O202 1.235 . S
O206 Co196 2.021 1_556 S
O206 C203 1.238 . S
O207 Co201 2.052 1_556 S
O207 C203 1.241 . S
O208 Co196 2.137 . S
O208 C199 1.247 . S
O209 Co196 2.244 . S
O209 C199 1.272 . S
O209 Co201 2.135 . S
Co210 O211 2.216 . S
Co210 O212 2.091 . S
Co210 O214 2.004 . S
Co210 O220 2.021 . S
Co210 O222 2.137 . S
Co210 O223 2.244 . S
O211 Co210 2.216 . S
O211 C218 1.247 . S
O212 Co210 2.091 . S
O212 C218 1.261 . S
C213 O222 1.247 . S
C213 O223 1.272 . S
O214 Co210 2.004 . S
O214 C219 1.259 . S
Co215 O216 2.061 . S
Co215 O221 2.052 . S
Co215 O223 2.135 . S
O216 Co215 2.061 . S
O216 C219 1.235 . S
C217 O220 1.238 . S
C217 O221 1.241 . S
C218 O211 1.247 . S
C218 O212 1.261 . S
C219 O214 1.259 . S
C219 O216 1.235 . S
O220 Co210 2.021 . S
O220 C217 1.238 . S
O221 Co215 2.052 . S
O221 C217 1.241 . S
O222 Co210 2.137 . S
O222 C213 1.247 . S
O223 Co210 2.244 . S
O223 C213 1.272 . S
O223 Co215 2.135 . S
C92 C8 1.951 . S
C106 C22 1.950 . S
C36 C64 1.951 . S
C50 C78 1.951 . S
C120 C204 1.951 . S
C218 C134 1.951 . S
C148 C176 1.951 . S
C162 C190 1.950 . S
C9 C149 1.389 1_445 S
C23 C163 1.389 1_655 S
C37 C121 1.389 . S
C51 C135 1.389 1_565 S
C65 C205 1.389 1_455 S
C219 C79 1.389 . S
C93 C177 1.389 1_545 S
C191 C107 1.389 1_445 S
C189 C7 1.838 . S
C21 C203 1.837 . S
C217 C35 1.837 . S
C175 C49 1.837 . S
C161 C63 1.837 . S
C77 C119 1.837 . S
C91 C133 1.837 . S
C105 C147 1.838 . S
C185 C3 1.567 1_556 S
C17 C199 1.567 . S
C31 C213 1.567 . S
C171 C45 1.567 . S
C157 C59 1.567 . S
C115 C73 1.567 . S
C87 C129 1.567 . S
C143 C101 1.567 1_554 S
