# Generated by pormake.
# Topology qzd, (4)-cn, num edge types: 1
# Building blocks:
#     Node 0, Type 0, BuildingBlock: ESEHIV_clean_sbu_0, # of connection points: 4
#     Node 1, Type 0, BuildingBlock: ESEHIV_clean_sbu_0, # of connection points: 4
#     Node 2, Type 0, BuildingBlock: ESEHIV_clean_sbu_0, # of connection points: 4
#     Edge 3, Type (0, 0), BuildingBlock: CIFDUS_clean_linker_0, # of connection points: 2
#     Edge 4, Type (0, 0), BuildingBlock: CIFDUS_clean_linker_0, # of connection points: 2
#     Edge 5, Type (0, 0), BuildingBlock: CIFDUS_clean_linker_0, # of connection points: 2
#     Edge 6, Type (0, 0), BuildingBlock: CIFDUS_clean_linker_0, # of connection points: 2
#     Edge 7, Type (0, 0), BuildingBlock: CIFDUS_clean_linker_0, # of connection points: 2
#     Edge 8, Type (0, 0), BuildingBlock: CIFDUS_clean_linker_0, # of connection points: 2
# Relax obj value: 0.000
# Max RMSD: 0.158
# Mean RMSD: 0.077
data_MOF--net-qzd--node1-ESEHIV_clean_sbu_0--edge1-CIFDUS_clean_linker_0
_symmetry_space_group_name_H-M    P1
_symmetry_Int_Tables_number       1
_symmetry_cell_setting            triclinic
loop_
_symmetry_equiv_pos_as_xyz
'x, y, z'
_cell_length_a     12.960047
_cell_length_b     15.108694
_cell_length_c     40.227134
_cell_angle_alpha  100.62321
_cell_angle_beta   98.676029
_cell_angle_gamma 115.24292
loop_
_atom_site_label
_atom_site_type_symbol
_atom_site_fract_x
_atom_site_fract_y
_atom_site_fract_z
_atom_type_partial_charge
Cu0 Cu 0.34538 0.21044 0.04397 0.0
N1 N 0.31437 0.15226 0.08114 0.0
N2 N 0.27135 0.13123 0.13201 0.0
C3 C 0.2724 0.18169 0.10744 0.0
C4 C 0.3156 0.06824 0.12082 0.0
C5 C 0.34255 0.08179 0.08962 0.0
O6 O 0.26294 0.29173 0.04118 0.0
C7 C 0.57861 0.30168 0.0325 0.0
O8 O 0.52645 0.28216 0.99947 0.0
H9 H 0.24729 0.24178 0.10915 0.0
H10 H 0.38299 1.04485 0.07465 0.0
N11 N 0.28623 0.10986 1.00104 0.0
N12 N 0.21493 1.03423 0.94342 0.0
C13 C 0.26674 0.12333 0.96886 0.0
C14 C 0.24503 1.00882 0.99569 0.0
C15 C 0.20082 0.96202 0.96022 0.0
C16 C 0.15243 0.24255 0.03806 0.0
O17 O 0.10554 0.14562 0.03694 0.0
H18 H 0.2858 0.19648 0.96429 0.0
H19 H 0.2439 0.97126 1.01613 0.0
O20 O 0.51674 0.2851 0.05459 0.0
H21 H 0.32824 1.0164 0.13425 0.0
H22 H 0.1599 0.88095 0.94776 0.0
Cu23 Cu 0.12713 0.21434 0.38886 0.0
N24 N 0.16354 0.35155 0.39628 0.0
N25 N 0.25741 0.51591 0.39744 0.0
C26 C 0.25481 0.42401 0.38874 0.0
C27 C 0.16373 0.50008 0.41097 0.0
C28 C 0.10618 0.39879 0.41023 0.0
O29 O 0.17904 0.17644 0.34784 0.0
C30 C 0.25069 0.26049 0.46026 0.0
O31 O 0.27899 0.35536 0.46098 0.0
H32 H 0.31714 0.40895 0.37676 0.0
H33 H 1.02863 0.36226 0.4195 0.0
N34 N 0.96393 0.13287 0.37941 0.0
N35 N 0.79125 1.00204 0.37701 0.0
C36 C 0.91025 1.04272 0.38647 0.0
C37 C 0.87624 0.1503 0.36501 0.0
C38 C 0.7697 0.06982 0.36349 0.0
C39 C 0.13722 0.19108 0.31976 0.0
O40 O 0.0622 0.22815 0.32031 0.0
H41 H 0.95814 1.00868 0.39884 0.0
H42 H 0.88884 0.21682 0.35624 0.0
O43 O 0.19539 0.19113 0.43127 0.0
H44 H 0.13943 0.55776 0.42127 0.0
H45 H 0.68325 0.06152 0.3528 0.0
Cu46 Cu 1.03474 1.0295 0.67409 0.0
N47 N 0.94778 0.10114 0.67435 0.0
N48 N 0.90317 0.22798 0.67223 0.0
C49 C 0.98618 0.19651 0.67129 0.0
C50 C 0.80876 0.14883 0.67601 0.0
C51 C 0.83665 0.07079 0.67736 0.0
O52 O 0.13567 0.07456 0.64261 0.0
C53 C 0.05616 1.01967 0.74271 0.0
O54 O 0.94127 0.9655 0.72991 0.0
H55 H 0.07302 0.24121 0.66796 0.0
H56 H 0.78005 0.99723 0.68039 0.0
N57 N 0.93248 0.88954 0.65653 0.0
N58 N 0.85944 0.72111 0.64763 0.0
C59 C 0.94826 0.81423 0.66595 0.0
C60 C 0.83048 0.84287 0.63136 0.0
C61 C 0.78504 0.73903 0.62586 0.0
C62 C 0.14481 1.01335 0.61822 0.0
O63 O 0.09962 0.91644 0.61704 0.0
H64 H 1.0234 0.82793 0.68599 0.0
H65 H 0.79266 0.88172 0.61769 0.0
O66 O 0.11912 0.05753 0.72249 0.0
H67 H 0.72606 0.14775 0.67819 0.0
H68 H 0.70479 0.68135 0.60675 0.0
H69 H 1.03891 0.27137 0.086 0.0
H70 H 0.08765 0.31375 0.98554 0.0
H71 H 0.91869 0.34885 0.9762 0.0
H72 H 0.74035 0.34174 0.99333 0.0
H73 H 0.69586 0.30092 0.09467 0.0
H74 H 0.88094 0.29324 0.10727 0.0
C75 C 1.01453 0.29165 0.0626 0.0
C76 C 0.07506 0.29072 0.03653 0.0
C77 C 0.91717 0.31069 0.05742 0.0
C78 C 1.04278 0.31567 1.0061 0.0
C79 C 0.94556 0.3346 1.00066 0.0
C80 C 0.77236 0.33335 1.01847 0.0
C81 C 0.70266 0.31994 0.04268 0.0
C82 C 0.87939 0.32852 0.02561 0.0
C83 C 0.74657 0.31047 0.07532 0.0
C84 C 0.85248 0.30561 0.08257 0.0
H85 H 0.567 0.95019 0.38095 0.0
H86 H 0.8218 0.83713 0.38124 0.0
H87 H 0.6791 0.67676 0.38798 0.0
H88 H 0.48209 0.56828 0.39394 0.0
H89 H 0.22511 0.6791 0.39178 0.0
H90 H 0.36845 0.84022 0.38561 0.0
C91 C 0.59122 0.89031 0.38212 0.0
C92 C 0.70569 0.90655 0.38063 0.0
C93 C 0.50822 0.79758 0.38576 0.0
C94 C 0.73539 0.828 0.3828 0.0
C95 C 0.65338 0.7357 0.38645 0.0
C96 C 0.45671 0.62702 0.39175 0.0
C97 C 0.34241 0.61092 0.39338 0.0
C98 C 0.53954 0.7196 0.38797 0.0
C99 C 0.31252 0.6893 0.39109 0.0
C100 C 0.39441 0.78152 0.38735 0.0
H101 H 1.03501 0.67769 0.6702 0.0
H102 H 0.65693 0.54276 0.63081 0.0
H103 H 0.63686 0.37716 0.6347 0.0
H104 H 0.72681 0.27037 0.64929 0.0
H105 H 0.10451 0.40716 0.69012 0.0
H106 H 0.12428 0.57207 0.68574 0.0
C107 C 0.94801 0.61255 0.66284 0.0
C108 C 0.84773 0.6233 0.65028 0.0
C109 C 0.93697 0.51749 0.66531 0.0
C110 C 0.73593 0.53696 0.6402 0.0
C111 C 0.72424 0.44212 0.6426 0.0
C112 C 0.81333 0.33633 0.65756 0.0
C113 C 0.91395 0.32577 0.66995 0.0
C114 C 0.82417 0.43147 0.65514 0.0
C115 C 1.0256 0.41223 0.68 0.0
C116 C 1.03701 0.50696 0.67771 0.0
H117 H 0.0616 0.21781 0.25763 0.0
H118 H 0.2949 0.11887 0.30813 0.0
H119 H 0.35605 0.08995 0.2541 0.0
H120 H 0.34579 0.09646 0.19274 0.0
H121 H 0.11062 0.19519 0.14315 0.0
H122 H 0.04872 0.2214 0.19678 0.0
C123 C 0.12574 0.18968 0.25695 0.0
C124 C 0.17358 0.17064 0.28703 0.0
C125 C 0.16068 0.17371 0.22594 0.0
C126 C 0.25654 0.13418 0.28544 0.0
C127 C 0.29161 0.11772 0.25453 0.0
C128 C 0.2802 0.12276 0.19353 0.0
C129 C 0.23354 0.14424 0.1638 0.0
C130 C 0.24451 0.13756 0.22462 0.0
C131 C 0.1496 0.17956 0.16562 0.0
C132 C 0.11351 0.19402 0.19628 0.0
H133 H 0.25182 0.20745 0.61203 0.0
H134 H 0.12448 0.89339 0.55534 0.0
H135 H 0.15618 0.94283 0.50194 0.0
H136 H 0.19902 0.07265 0.4697 0.0
H137 H 0.32952 0.38709 0.52661 0.0
H138 H 0.31913 0.34009 0.58124 0.0
C139 C 0.23277 0.14997 0.58814 0.0
C140 C 0.1842 1.04666 0.58774 0.0
C141 C 0.25088 0.17882 0.5573 0.0
C142 C 0.16131 0.97347 0.55654 0.0
C143 C 0.17892 1.00158 0.52582 0.0
C144 C 0.227 0.13117 0.49411 0.0
C145 C 0.26328 0.23307 0.49379 0.0
C146 C 0.22042 0.10365 0.52563 0.0
C147 C 0.30028 0.30787 0.52584 0.0
C148 C 0.29399 0.28107 0.55721 0.0
H149 H 0.95811 0.90416 0.78427 0.0
H150 H 0.27106 0.17008 0.7852 0.0
H151 H 0.34807 0.19966 0.84804 0.0
H152 H 0.3231 0.15096 0.90326 0.0
H153 H 1.01251 0.88037 0.90034 0.0
H154 H 0.93769 0.8515 0.8378 0.0
C155 C 1.04336 0.96864 0.79816 0.0
C156 C 0.10833 1.0353 0.78012 0.0
C157 C 0.08722 0.98435 0.83401 0.0
C158 C 0.21935 0.11756 0.79845 0.0
C159 C 0.2631 0.13468 0.83441 0.0
C160 C 0.23904 0.08599 0.88881 0.0
C161 C 0.17315 1.01797 0.90639 0.0
C162 C 0.1973 0.06897 0.85256 0.0
C163 C 0.06511 0.93321 0.88735 0.0
C164 C 1.02214 0.91691 0.85163 0.0
loop_
_geom_bond_atom_site_label_1
_geom_bond_atom_site_label_2
_geom_bond_distance
_geom_bond_site_symmetry_2
_ccdc_geom_bond_type
Cu0 N1 1.999 . S
Cu0 O6 1.974 1_455 S
Cu0 N11 1.985 1_554 S
Cu0 O20 1.959 . S
N1 Cu0 1.999 . S
N1 C3 1.263 1_455 S
N1 C5 1.389 . S
N2 C3 1.358 1_455 S
N2 C4 1.400 . S
C3 N1 1.263 1_655 S
C3 N2 1.358 1_655 S
C3 H9 0.930 1_545 S
C4 N2 1.400 . S
C4 C5 1.351 . S
C4 H21 0.930 . S
C5 N1 1.389 . S
C5 C4 1.351 . S
C5 H10 0.930 . S
O6 Cu0 1.974 1_655 S
O6 C16 1.282 1_544 S
C7 O8 1.260 . S
C7 O20 1.251 1_566 S
O8 C7 1.260 . S
H9 C3 0.930 1_565 S
H10 C5 0.930 . S
N11 Cu0 1.985 1_556 S
N11 C13 1.335 . S
N11 C14 1.390 1_445 S
N12 C13 1.345 . S
N12 C15 1.336 1_445 S
C13 N11 1.335 . S
C13 N12 1.345 . S
C13 H18 0.930 . S
C14 N11 1.390 1_665 S
C14 C15 1.346 . S
C14 H19 0.930 . S
C15 N12 1.336 1_665 S
C15 C14 1.346 . S
C15 H22 0.929 . S
C16 O6 1.282 1_566 S
C16 O17 1.216 . S
O17 C16 1.216 . S
H18 C13 0.930 . S
H19 C14 0.930 . S
O20 Cu0 1.959 . S
O20 C7 1.251 1_544 S
H21 C4 0.930 . S
H22 C15 0.929 . S
Cu23 N24 1.999 . S
Cu23 O29 1.974 . S
Cu23 N34 1.985 1_445 S
Cu23 O43 1.959 . S
N24 Cu23 1.999 . S
N24 C26 1.263 . S
N24 C28 1.389 . S
N25 C26 1.358 . S
N25 C27 1.400 . S
C26 N24 1.263 . S
C26 N25 1.358 . S
C26 H32 0.930 . S
C27 N25 1.400 . S
C27 C28 1.351 . S
C27 H44 0.930 . S
C28 N24 1.389 . S
C28 C27 1.351 . S
C28 H33 0.930 . S
O29 Cu23 1.974 . S
O29 C39 1.282 1_455 S
C30 O31 1.261 1_455 S
C30 O43 1.251 . S
O31 C30 1.261 1_655 S
H32 C26 0.930 . S
H33 C28 0.930 . S
N34 Cu23 1.985 1_665 S
N34 C36 1.335 . S
N34 C37 1.390 . S
N35 C36 1.345 . S
N35 C38 1.336 . S
C36 N34 1.335 . S
C36 N35 1.345 . S
C36 H41 0.930 . S
C37 N34 1.390 . S
C37 C38 1.346 . S
C37 H42 0.930 . S
C38 N35 1.336 . S
C38 C37 1.346 . S
C38 H45 0.929 . S
C39 O29 1.282 1_655 S
C39 O40 1.216 . S
O40 C39 1.216 . S
H41 C36 0.930 . S
H42 C37 0.930 . S
O43 Cu23 1.959 . S
O43 C30 1.251 . S
H44 C27 0.930 . S
H45 C38 0.929 . S
Cu46 N47 1.999 . S
Cu46 O52 1.974 . S
Cu46 N57 1.985 . S
Cu46 O66 1.959 . S
N47 Cu46 1.999 . S
N47 C49 1.263 . S
N47 C51 1.389 . S
N48 C49 1.358 . S
N48 C50 1.400 . S
C49 N47 1.263 . S
C49 N48 1.358 . S
C49 H55 0.930 . S
C50 N48 1.400 . S
C50 C51 1.351 . S
C50 H67 0.930 . S
C51 N47 1.389 . S
C51 C50 1.351 . S
C51 H56 0.930 . S
O52 Cu46 1.974 . S
O52 C62 1.282 . S
C53 O54 1.261 . S
C53 O66 1.251 . S
O54 C53 1.261 . S
H55 C49 0.930 . S
H56 C51 0.930 . S
N57 Cu46 1.985 . S
N57 C59 1.335 1_545 S
N57 C60 1.390 1_545 S
N58 C59 1.345 . S
N58 C61 1.336 . S
C59 N57 1.335 1_565 S
C59 N58 1.345 . S
C59 H64 0.930 . S
C60 N57 1.390 1_565 S
C60 C61 1.346 . S
C60 H65 0.930 . S
C61 N58 1.336 . S
C61 C60 1.346 . S
C61 H68 0.929 . S
C62 O52 1.282 . S
C62 O63 1.216 . S
O63 C62 1.216 . S
H64 C59 0.930 . S
H65 C60 0.930 . S
O66 Cu46 1.959 . S
O66 C53 1.251 . S
H67 C50 0.930 . S
H68 C61 0.929 . S
H69 C75 0.930 . S
H70 C78 0.930 . S
H71 C79 0.930 . S
H72 C80 0.930 . S
H73 C83 0.930 . S
H74 C84 0.930 . S
C75 H69 0.930 . S
C75 C76 1.355 1_554 S
C75 C77 1.415 . S
C76 C75 1.355 1_556 S
C76 C78 1.419 1_565 S
C77 C75 1.415 . S
C77 C82 1.425 1_564 S
C77 C84 1.409 . S
C78 H70 0.930 . S
C78 C76 1.419 1_545 S
C78 C79 1.362 . S
C79 H71 0.930 . S
C79 C78 1.362 . S
C79 C82 1.409 . S
C80 H72 0.930 . S
C80 C81 1.355 1_546 S
C80 C82 1.415 . S
C81 C80 1.355 1_564 S
C81 C83 1.419 . S
C82 C77 1.425 1_546 S
C82 C79 1.409 . S
C82 C80 1.415 . S
C83 H73 0.930 . S
C83 C81 1.419 . S
C83 C84 1.362 . S
C84 H74 0.930 . S
C84 C77 1.409 . S
C84 C83 1.362 . S
H85 C91 0.930 . S
H86 C94 0.930 . S
H87 C95 0.930 . S
H88 C96 0.930 . S
H89 C99 0.930 . S
H90 C100 0.930 . S
C91 H85 0.930 . S
C91 C92 1.355 . S
C91 C93 1.415 . S
C92 C91 1.355 . S
C92 C94 1.419 . S
C93 C91 1.415 . S
C93 C98 1.425 . S
C93 C100 1.409 . S
C94 H86 0.930 . S
C94 C92 1.419 . S
C94 C95 1.362 . S
C95 H87 0.930 . S
C95 C94 1.362 . S
C95 C98 1.409 . S
C96 H88 0.930 . S
C96 C97 1.355 . S
C96 C98 1.415 . S
C97 C96 1.355 . S
C97 C99 1.419 . S
C98 C93 1.425 . S
C98 C95 1.409 . S
C98 C96 1.415 . S
C99 H89 0.930 . S
C99 C97 1.419 . S
C99 C100 1.362 . S
C100 H90 0.930 . S
C100 C93 1.409 . S
C100 C99 1.362 . S
H101 C107 0.930 . S
H102 C110 0.930 . S
H103 C111 0.937 . S
H104 C112 0.930 . S
H105 C115 0.930 . S
H106 C116 0.930 . S
C107 H101 0.930 . S
C107 C108 1.355 . S
C107 C109 1.415 . S
C108 C107 1.355 . S
C108 C110 1.419 . S
C109 C107 1.415 . S
C109 C114 1.425 . S
C109 C116 1.409 . S
C110 H102 0.930 . S
C110 C108 1.419 . S
C110 C111 1.362 . S
C111 H103 0.937 . S
C111 C110 1.362 . S
C111 C114 1.409 . S
C112 H104 0.930 . S
C112 C113 1.355 . S
C112 C114 1.415 . S
C113 C112 1.355 . S
C113 C115 1.419 . S
C114 C109 1.425 . S
C114 C111 1.409 . S
C114 C112 1.415 . S
C115 H105 0.930 . S
C115 C113 1.419 . S
C115 C116 1.362 . S
C116 H106 0.930 . S
C116 C109 1.409 . S
C116 C115 1.362 . S
H117 C123 0.930 1_565 S
H118 C126 0.930 . S
H119 C127 0.930 . S
H120 C128 0.930 . S
H121 C131 0.930 . S
H122 C132 0.930 . S
C123 H117 0.930 1_545 S
C123 C124 1.355 . S
C123 C125 1.415 . S
C124 C123 1.355 . S
C124 C126 1.419 1_655 S
C125 C123 1.415 . S
C125 C130 1.425 1_655 S
C125 C132 1.409 1_545 S
C126 H118 0.930 . S
C126 C124 1.419 1_455 S
C126 C127 1.362 . S
C127 H119 0.930 . S
C127 C126 1.362 . S
C127 C130 1.409 . S
C128 H120 0.930 . S
C128 C129 1.355 1_455 S
C128 C130 1.415 . S
C129 C128 1.355 1_655 S
C129 C131 1.419 1_545 S
C130 C125 1.425 1_455 S
C130 C127 1.409 . S
C130 C128 1.415 . S
C131 H121 0.930 . S
C131 C129 1.419 1_565 S
C131 C132 1.362 . S
C132 H122 0.930 . S
C132 C125 1.409 1_565 S
C132 C131 1.362 . S
H133 C139 0.930 . S
H134 C142 0.930 1_565 S
H135 C143 0.930 1_565 S
H136 C144 0.930 1_655 S
H137 C147 0.930 . S
H138 C148 0.930 . S
C139 H133 0.930 . S
C139 C140 1.355 . S
C139 C141 1.415 . S
C140 C139 1.355 . S
C140 C142 1.419 . S
C141 C139 1.415 . S
C141 C146 1.425 . S
C141 C148 1.409 . S
C142 H134 0.930 1_545 S
C142 C140 1.419 . S
C142 C143 1.362 . S
C143 H135 0.930 1_545 S
C143 C142 1.362 . S
C143 C146 1.409 . S
C144 H136 0.930 1_455 S
C144 C145 1.355 . S
C144 C146 1.415 . S
C145 C144 1.355 . S
C145 C147 1.419 . S
C146 C141 1.425 . S
C146 C143 1.409 . S
C146 C144 1.415 . S
C147 H137 0.930 . S
C147 C145 1.419 . S
C147 C148 1.362 . S
C148 H138 0.930 . S
C148 C141 1.409 . S
C148 C147 1.362 . S
H149 C155 0.930 . S
H150 C158 0.930 . S
H151 C159 0.930 1_565 S
H152 C160 0.930 1_565 S
H153 C163 0.930 1_655 S
H154 C164 0.930 1_655 S
C155 H149 0.930 . S
C155 C156 1.355 . S
C155 C157 1.415 . S
C156 C155 1.355 . S
C156 C158 1.419 . S
C157 C155 1.415 . S
C157 C162 1.425 . S
C157 C164 1.409 . S
C158 H150 0.930 . S
C158 C156 1.419 . S
C158 C159 1.362 . S
C159 H151 0.930 1_545 S
C159 C158 1.362 . S
C159 C162 1.409 . S
C160 H152 0.930 1_545 S
C160 C161 1.355 . S
C160 C162 1.415 . S
C161 C160 1.355 . S
C161 C163 1.419 . S
C162 C157 1.425 . S
C162 C159 1.409 . S
C162 C160 1.415 . S
C163 H153 0.930 1_455 S
C163 C161 1.419 . S
C163 C164 1.362 . S
C164 H154 0.930 1_455 S
C164 C157 1.409 . S
C164 C163 1.362 . S
C76 C16 1.476 . S
C81 C7 1.483 1_554 S
C92 N35 1.483 . S
C97 N25 1.471 . S
C108 N58 1.443 . S
C113 N48 1.429 . S
C124 C39 1.583 . S
C129 N2 1.555 1_655 S
C140 C62 1.548 . S
C145 C30 1.581 . S
C156 C53 1.523 . S
C161 N12 1.463 . S
