# Generated by pormake.
# Topology wjg, (4)-cn, num edge types: 1
# Building blocks:
#     Node 0, Type 0, BuildingBlock: NAHDIM_clean_sbu_0, # of connection points: 4
#     Node 1, Type 0, BuildingBlock: NAHDIM_clean_sbu_0, # of connection points: 4
#     Node 2, Type 0, BuildingBlock: NAHDIM_clean_sbu_0, # of connection points: 4
#     Node 3, Type 0, BuildingBlock: NAHDIM_clean_sbu_0, # of connection points: 4
#     Node 4, Type 0, BuildingBlock: NAHDIM_clean_sbu_0, # of connection points: 4
#     Node 5, Type 0, BuildingBlock: NAHDIM_clean_sbu_0, # of connection points: 4
#     Node 6, Type 0, BuildingBlock: NAHDIM_clean_sbu_0, # of connection points: 4
#     Node 7, Type 0, BuildingBlock: NAHDIM_clean_sbu_0, # of connection points: 4
#     Node 8, Type 0, BuildingBlock: NAHDIM_clean_sbu_0, # of connection points: 4
#     Node 9, Type 0, BuildingBlock: NAHDIM_clean_sbu_0, # of connection points: 4
#     Node 10, Type 0, BuildingBlock: NAHDIM_clean_sbu_0, # of connection points: 4
#     Node 11, Type 0, BuildingBlock: NAHDIM_clean_sbu_0, # of connection points: 4
#     Edge 12, Type (0, 0), None
#     Edge 13, Type (0, 0), None
#     Edge 14, Type (0, 0), None
#     Edge 15, Type (0, 0), None
#     Edge 16, Type (0, 0), None
#     Edge 17, Type (0, 0), None
#     Edge 18, Type (0, 0), None
#     Edge 19, Type (0, 0), None
#     Edge 20, Type (0, 0), None
#     Edge 21, Type (0, 0), None
#     Edge 22, Type (0, 0), None
#     Edge 23, Type (0, 0), None
#     Edge 24, Type (0, 0), None
#     Edge 25, Type (0, 0), None
#     Edge 26, Type (0, 0), None
#     Edge 27, Type (0, 0), None
#     Edge 28, Type (0, 0), None
#     Edge 29, Type (0, 0), None
#     Edge 30, Type (0, 0), None
#     Edge 31, Type (0, 0), None
#     Edge 32, Type (0, 0), None
#     Edge 33, Type (0, 0), None
#     Edge 34, Type (0, 0), None
#     Edge 35, Type (0, 0), None
# Relax obj value: 0.261
# Max RMSD: 0.132
# Mean RMSD: 0.130
data_MOF--net-wjg--node1-NAHDIM_clean_sbu_0--edge1-none
_symmetry_space_group_name_H-M    P1
_symmetry_Int_Tables_number       1
_symmetry_cell_setting            triclinic
loop_
_symmetry_equiv_pos_as_xyz
'x, y, z'
_cell_length_a     15.852134
_cell_length_b     15.844544
_cell_length_c     17.697722
_cell_angle_alpha  90.000011
_cell_angle_beta   90.000008
_cell_angle_gamma 120.01535
loop_
_atom_site_label
_atom_site_type_symbol
_atom_site_fract_x
_atom_site_fract_y
_atom_site_fract_z
_atom_type_partial_charge
C0 C 0.02193 0.37752 0.1901 0.0
O1 O 0.10343 0.40835 0.15227 0.0
O2 O 0.27214 0.51813 0.2988 0.0
Zn3 Zn 0.14539 0.39364 0.31947 0.0
O4 O 0.16651 0.28245 0.29312 0.0
C5 C 0.19816 0.47458 0.46685 0.0
O6 O 0.22342 0.55783 0.43337 0.0
O7 O 0.02331 0.37238 0.26209 0.0
C8 C 0.1634 0.22348 0.34329 0.0
O9 O 0.13784 0.2293 0.41271 0.0
C10 C 0.3452 0.52112 0.33189 0.0
O11 O 0.33596 0.44257 0.36443 0.0
O12 O 0.14202 0.3947 0.4334 0.0
C13 C 0.62741 0.02995 0.52345 0.0
O14 O 0.67814 0.1115 0.48564 0.0
O15 O 0.73694 0.28019 0.63211 0.0
Zn16 Zn 0.7347 0.15345 0.6528 0.0
O17 O 0.86698 0.17465 0.62644 0.0
C18 C 0.70657 0.20622 0.80017 0.0
O19 O 0.64855 0.23138 0.76669 0.0
O20 O 0.63387 0.03129 0.59544 0.0
C21 C 0.92279 0.17144 0.67657 0.0
O22 O 0.8914 0.14576 0.74598 0.0
C23 C 0.80701 0.35333 0.66521 0.0
O24 O 0.87633 0.34417 0.69773 0.0
O25 O 0.73032 0.1501 0.76673 0.0
C26 C 0.58028 0.63531 0.85677 0.0
O27 O 0.54951 0.68604 0.81894 0.0
O28 O 0.4395 0.7447 0.96549 0.0
Zn29 Zn 0.56399 0.74255 0.98614 0.0
O30 O 0.67509 0.87495 0.95979 0.0
C31 C 0.4832 0.71446 0.13355 0.0
O32 O 0.39996 0.65642 0.10011 0.0
O33 O 0.58533 0.64174 0.92876 0.0
C34 C 0.73406 0.93084 0.00994 0.0
O35 O 0.72829 0.89947 0.07936 0.0
C36 C 0.43649 0.81483 0.99855 0.0
O37 O 0.51502 0.88424 0.03102 0.0
O38 O 0.56301 0.73816 0.10008 0.0
C39 C 0.92779 0.5883 0.1901 0.0
O40 O 0.84629 0.55748 0.15227 0.0
O41 O 0.67759 0.44769 0.2988 0.0
Zn42 Zn 0.80433 0.57218 0.31947 0.0
O43 O 0.78321 0.68337 0.29312 0.0
C44 C 0.75156 0.49125 0.46685 0.0
O45 O 0.7263 0.408 0.43337 0.0
O46 O 0.92641 0.59344 0.26209 0.0
C47 C 0.78632 0.74234 0.34329 0.0
O48 O 0.81188 0.73653 0.41271 0.0
C49 C 0.60452 0.4447 0.33189 0.0
O50 O 0.61376 0.52325 0.36443 0.0
O51 O 0.8077 0.57112 0.4334 0.0
C52 C 0.32232 0.93588 0.52345 0.0
O53 O 0.27159 0.85432 0.48564 0.0
O54 O 0.21278 0.68564 0.63211 0.0
Zn55 Zn 0.21502 0.81237 0.6528 0.0
O56 O 0.08274 0.79118 0.62644 0.0
C57 C 0.24316 0.75961 0.80017 0.0
O58 O 0.30117 0.73444 0.76669 0.0
O59 O 0.31585 0.93453 0.59544 0.0
C60 C 0.02693 0.79439 0.67657 0.0
O61 O 0.05833 0.82006 0.74598 0.0
C62 C 0.14271 0.61249 0.66521 0.0
O63 O 0.07339 0.62165 0.69773 0.0
O64 O 0.21941 0.81572 0.76673 0.0
C65 C 0.36944 0.33052 0.85677 0.0
O66 O 0.40021 0.27979 0.81894 0.0
O67 O 0.51022 0.22112 0.96549 0.0
Zn68 Zn 0.38573 0.22327 0.98614 0.0
O69 O 0.27464 0.09088 0.95979 0.0
C70 C 0.46652 0.25137 0.13355 0.0
O71 O 0.54976 0.3094 0.10011 0.0
O72 O 0.36439 0.32408 0.92876 0.0
C73 C 0.21566 0.03498 0.00994 0.0
O74 O 0.22143 0.06636 0.07936 0.0
C75 C 0.51323 0.151 0.99855 0.0
O76 O 0.43471 0.08158 0.03102 0.0
O77 O 0.38671 0.22767 0.10008 0.0
C78 C 0.58043 0.93599 0.4823 0.0
O79 O 0.54959 0.85443 0.52012 0.0
O80 O 0.43981 0.68577 0.37356 0.0
Zn81 Zn 0.56428 0.81255 0.3529 0.0
O82 O 0.6754 0.79137 0.37917 0.0
C83 C 0.48329 0.7599 0.20555 0.0
O84 O 0.40013 0.73472 0.23909 0.0
O85 O 0.58558 0.93466 0.41031 0.0
C86 C 0.73429 0.79444 0.32898 0.0
O87 O 0.72841 0.8199 0.25953 0.0
C88 C 0.43675 0.61266 0.3404 0.0
O89 O 0.51521 0.62187 0.30782 0.0
O90 O 0.56318 0.81599 0.23897 0.0
C91 C 0.62728 0.58836 0.81565 0.0
O92 O 0.67793 0.55752 0.85349 0.0
O93 O 0.73694 0.44784 0.70688 0.0
Zn94 Zn 0.73461 0.5723 0.68623 0.0
O95 O 0.86693 0.68353 0.71249 0.0
C96 C 0.70624 0.49128 0.53888 0.0
O97 O 0.64829 0.40806 0.57241 0.0
O98 O 0.63381 0.59354 0.74366 0.0
C99 C 0.92281 0.74238 0.66226 0.0
O100 O 0.89149 0.73641 0.5928 0.0
C101 C 0.80698 0.44486 0.67372 0.0
O102 O 0.87623 0.5234 0.64112 0.0
O103 O 0.73003 0.57118 0.5723 0.0
C104 C 0.02173 0.63526 0.14898 0.0
O105 O 0.10323 0.68597 0.18682 0.0
O106 O 0.27189 0.74472 0.04018 0.0
Zn107 Zn 0.14519 0.74249 0.01955 0.0
O108 O 0.16648 0.87491 0.04582 0.0
C109 C 0.19778 0.7142 0.87217 0.0
O110 O 0.223 0.6562 0.90566 0.0
O111 O 0.0231 0.64171 0.07699 0.0
C112 C 0.16354 0.93082 0.99561 0.0
O113 O 0.13815 0.8995 0.92615 0.0
C114 C 0.34498 0.81481 0.00705 0.0
O115 O 0.33582 0.88417 0.97453 0.0
O116 O 0.14169 0.73794 0.90562 0.0
C117 C 0.36929 0.02984 0.4823 0.0
O118 O 0.40013 0.11139 0.52012 0.0
O119 O 0.50991 0.28005 0.37356 0.0
Zn120 Zn 0.38544 0.15328 0.3529 0.0
O121 O 0.27432 0.17446 0.37917 0.0
C122 C 0.46643 0.20593 0.20555 0.0
O123 O 0.54959 0.2311 0.23909 0.0
O124 O 0.36414 0.03116 0.41031 0.0
C125 C 0.21543 0.17139 0.32898 0.0
O126 O 0.22131 0.14593 0.25953 0.0
C127 C 0.51298 0.35316 0.3404 0.0
O128 O 0.43451 0.34396 0.30782 0.0
O129 O 0.38654 0.14984 0.23897 0.0
C130 C 0.32244 0.37746 0.81565 0.0
O131 O 0.27179 0.4083 0.85349 0.0
O132 O 0.21278 0.51798 0.70688 0.0
Zn133 Zn 0.21511 0.39352 0.68623 0.0
O134 O 0.08279 0.28229 0.71249 0.0
C135 C 0.24348 0.47455 0.53888 0.0
O136 O 0.30143 0.55777 0.57241 0.0
O137 O 0.31591 0.37229 0.74366 0.0
C138 C 0.02691 0.22345 0.66226 0.0
O139 O 0.05823 0.22941 0.5928 0.0
C140 C 0.14274 0.52097 0.67372 0.0
O141 O 0.07349 0.44243 0.64112 0.0
O142 O 0.21969 0.39464 0.5723 0.0
C143 C 0.92799 0.33056 0.14898 0.0
O144 O 0.84649 0.27985 0.18682 0.0
O145 O 0.67783 0.2211 0.04018 0.0
Zn146 Zn 0.80453 0.22333 0.01955 0.0
O147 O 0.78324 0.09091 0.04582 0.0
C148 C 0.75194 0.25163 0.87217 0.0
O149 O 0.72672 0.30962 0.90566 0.0
O150 O 0.92662 0.32412 0.07699 0.0
C151 C 0.78618 0.03501 0.99561 0.0
O152 O 0.81157 0.06632 0.92615 0.0
C153 C 0.60474 0.15101 0.00705 0.0
O154 O 0.6139 0.08166 0.97453 0.0
O155 O 0.80803 0.22788 0.90562 0.0
loop_
_geom_bond_atom_site_label_1
_geom_bond_atom_site_label_2
_geom_bond_distance
_geom_bond_site_symmetry_2
_ccdc_geom_bond_type
C0 O1 1.160 . S
C0 O7 1.185 . S
O1 C0 1.160 . S
O2 Zn3 1.899 . S
O2 C10 1.284 . S
Zn3 O2 1.899 . S
Zn3 O4 2.032 . S
Zn3 O7 2.086 . S
Zn3 O12 1.977 . S
O4 Zn3 2.032 . S
O4 C8 1.278 . S
C5 O6 1.203 . S
C5 O12 1.267 . S
O6 C5 1.203 . S
O7 C0 1.185 . S
O7 Zn3 2.086 . S
C8 O4 1.278 . S
C8 O9 1.211 . S
O9 C8 1.211 . S
C10 O2 1.284 . S
C10 O11 1.273 . S
O11 C10 1.273 . S
O12 Zn3 1.977 . S
O12 C5 1.267 . S
C13 O14 1.160 . S
C13 O20 1.185 . S
O14 C13 1.160 . S
O15 Zn16 1.899 . S
O15 C23 1.284 . S
Zn16 O15 1.899 . S
Zn16 O17 2.032 . S
Zn16 O20 2.086 . S
Zn16 O25 1.977 . S
O17 Zn16 2.032 . S
O17 C21 1.278 . S
C18 O19 1.203 . S
C18 O25 1.267 . S
O19 C18 1.203 . S
O20 C13 1.185 . S
O20 Zn16 2.086 . S
C21 O17 1.278 . S
C21 O22 1.211 . S
O22 C21 1.211 . S
C23 O15 1.284 . S
C23 O24 1.273 . S
O24 C23 1.273 . S
O25 Zn16 1.977 . S
O25 C18 1.267 . S
C26 O27 1.160 . S
C26 O33 1.185 . S
O27 C26 1.160 . S
O28 Zn29 1.899 . S
O28 C36 1.284 . S
Zn29 O28 1.899 . S
Zn29 O30 2.032 . S
Zn29 O33 2.086 . S
Zn29 O38 1.977 1_556 S
O30 Zn29 2.032 . S
O30 C34 1.278 . S
C31 O32 1.203 . S
C31 O38 1.267 . S
O32 C31 1.203 . S
O33 C26 1.185 . S
O33 Zn29 2.086 . S
C34 O30 1.278 . S
C34 O35 1.211 1_556 S
O35 C34 1.211 1_554 S
C36 O28 1.284 . S
C36 O37 1.273 . S
O37 C36 1.273 . S
O38 Zn29 1.977 1_554 S
O38 C31 1.267 . S
C39 O40 1.160 . S
C39 O46 1.185 . S
O40 C39 1.160 . S
O41 Zn42 1.899 . S
O41 C49 1.284 . S
Zn42 O41 1.899 . S
Zn42 O43 2.032 . S
Zn42 O46 2.086 . S
Zn42 O51 1.977 . S
O43 Zn42 2.032 . S
O43 C47 1.278 . S
C44 O45 1.203 . S
C44 O51 1.267 . S
O45 C44 1.203 . S
O46 C39 1.185 . S
O46 Zn42 2.086 . S
C47 O43 1.278 . S
C47 O48 1.211 . S
O48 C47 1.211 . S
C49 O41 1.284 . S
C49 O50 1.273 . S
O50 C49 1.273 . S
O51 Zn42 1.977 . S
O51 C44 1.267 . S
C52 O53 1.160 . S
C52 O59 1.185 . S
O53 C52 1.160 . S
O54 Zn55 1.899 . S
O54 C62 1.284 . S
Zn55 O54 1.899 . S
Zn55 O56 2.032 . S
Zn55 O59 2.086 . S
Zn55 O64 1.977 . S
O56 Zn55 2.032 . S
O56 C60 1.278 . S
C57 O58 1.203 . S
C57 O64 1.267 . S
O58 C57 1.203 . S
O59 C52 1.185 . S
O59 Zn55 2.086 . S
C60 O56 1.278 . S
C60 O61 1.211 . S
O61 C60 1.211 . S
C62 O54 1.284 . S
C62 O63 1.273 . S
O63 C62 1.273 . S
O64 Zn55 1.977 . S
O64 C57 1.267 . S
C65 O66 1.160 . S
C65 O72 1.185 . S
O66 C65 1.160 . S
O67 Zn68 1.899 . S
O67 C75 1.284 . S
Zn68 O67 1.899 . S
Zn68 O69 2.032 . S
Zn68 O72 2.086 . S
Zn68 O77 1.977 1_556 S
O69 Zn68 2.032 . S
O69 C73 1.278 . S
C70 O71 1.203 . S
C70 O77 1.267 . S
O71 C70 1.203 . S
O72 C65 1.185 . S
O72 Zn68 2.086 . S
C73 O69 1.278 . S
C73 O74 1.211 1_556 S
O74 C73 1.211 1_554 S
C75 O67 1.284 . S
C75 O76 1.273 . S
O76 C75 1.273 . S
O77 Zn68 1.977 1_554 S
O77 C70 1.267 . S
C78 O79 1.160 . S
C78 O85 1.185 . S
O79 C78 1.160 . S
O80 Zn81 1.899 . S
O80 C88 1.284 . S
Zn81 O80 1.899 . S
Zn81 O82 2.032 . S
Zn81 O85 2.086 . S
Zn81 O90 1.977 . S
O82 Zn81 2.032 . S
O82 C86 1.278 . S
C83 O84 1.203 . S
C83 O90 1.267 . S
O84 C83 1.203 . S
O85 C78 1.185 . S
O85 Zn81 2.086 . S
C86 O82 1.278 . S
C86 O87 1.211 . S
O87 C86 1.211 . S
C88 O80 1.284 . S
C88 O89 1.273 . S
O89 C88 1.273 . S
O90 Zn81 1.977 . S
O90 C83 1.267 . S
C91 O92 1.160 . S
C91 O98 1.185 . S
O92 C91 1.160 . S
O93 Zn94 1.899 . S
O93 C101 1.284 . S
Zn94 O93 1.899 . S
Zn94 O95 2.032 . S
Zn94 O98 2.086 . S
Zn94 O103 1.977 . S
O95 Zn94 2.032 . S
O95 C99 1.278 . S
C96 O97 1.203 . S
C96 O103 1.267 . S
O97 C96 1.203 . S
O98 C91 1.185 . S
O98 Zn94 2.086 . S
C99 O95 1.278 . S
C99 O100 1.211 . S
O100 C99 1.211 . S
C101 O93 1.284 . S
C101 O102 1.273 . S
O102 C101 1.273 . S
O103 Zn94 1.977 . S
O103 C96 1.267 . S
C104 O105 1.160 . S
C104 O111 1.185 . S
O105 C104 1.160 . S
O106 Zn107 1.899 . S
O106 C114 1.284 . S
Zn107 O106 1.899 . S
Zn107 O108 2.032 . S
Zn107 O111 2.086 . S
Zn107 O116 1.977 1_554 S
O108 Zn107 2.032 . S
O108 C112 1.278 . S
C109 O110 1.203 . S
C109 O116 1.267 . S
O110 C109 1.203 . S
O111 C104 1.185 . S
O111 Zn107 2.086 . S
C112 O108 1.278 . S
C112 O113 1.211 1_554 S
O113 C112 1.211 1_556 S
C114 O106 1.284 . S
C114 O115 1.273 . S
O115 C114 1.273 . S
O116 Zn107 1.977 1_556 S
O116 C109 1.267 . S
C117 O118 1.160 . S
C117 O124 1.185 . S
O118 C117 1.160 . S
O119 Zn120 1.899 . S
O119 C127 1.284 . S
Zn120 O119 1.899 . S
Zn120 O121 2.032 . S
Zn120 O124 2.086 . S
Zn120 O129 1.977 . S
O121 Zn120 2.032 . S
O121 C125 1.278 . S
C122 O123 1.203 . S
C122 O129 1.267 . S
O123 C122 1.203 . S
O124 C117 1.185 . S
O124 Zn120 2.086 . S
C125 O121 1.278 . S
C125 O126 1.211 . S
O126 C125 1.211 . S
C127 O119 1.284 . S
C127 O128 1.273 . S
O128 C127 1.273 . S
O129 Zn120 1.977 . S
O129 C122 1.267 . S
C130 O131 1.160 . S
C130 O137 1.185 . S
O131 C130 1.160 . S
O132 Zn133 1.899 . S
O132 C140 1.284 . S
Zn133 O132 1.899 . S
Zn133 O134 2.032 . S
Zn133 O137 2.086 . S
Zn133 O142 1.977 . S
O134 Zn133 2.032 . S
O134 C138 1.278 . S
C135 O136 1.203 . S
C135 O142 1.267 . S
O136 C135 1.203 . S
O137 C130 1.185 . S
O137 Zn133 2.086 . S
C138 O134 1.278 . S
C138 O139 1.211 . S
O139 C138 1.211 . S
C140 O132 1.284 . S
C140 O141 1.273 . S
O141 C140 1.273 . S
O142 Zn133 1.977 . S
O142 C135 1.267 . S
C143 O144 1.160 . S
C143 O150 1.185 . S
O144 C143 1.160 . S
O145 Zn146 1.899 . S
O145 C153 1.284 . S
Zn146 O145 1.899 . S
Zn146 O147 2.032 . S
Zn146 O150 2.086 . S
Zn146 O155 1.977 1_554 S
O147 Zn146 2.032 . S
O147 C151 1.278 . S
C148 O149 1.203 . S
C148 O155 1.267 . S
O149 C148 1.203 . S
O150 C143 1.185 . S
O150 Zn146 2.086 . S
C151 O147 1.278 . S
C151 O152 1.211 1_554 S
O152 C151 1.211 1_556 S
C153 O145 1.284 . S
C153 O154 1.273 . S
O154 C153 1.273 . S
O155 Zn146 1.977 1_556 S
O155 C148 1.267 . S
C10 C88 1.439 . S
C23 C101 1.439 . S
C36 C114 1.450 1_556 S
C127 C49 1.439 . S
C62 C140 1.439 . S
C153 C75 1.450 1_554 S
C8 C125 0.736 . S
C21 C138 0.735 1_655 S
C151 C34 0.723 1_544 S
C86 C47 0.736 . S
C60 C99 0.735 1_455 S
C73 C112 0.723 1_546 S
C143 C0 1.713 1_655 S
C13 C78 1.743 1_545 S
C26 C91 1.713 . S
C104 C39 1.713 1_455 S
C117 C52 1.743 1_545 S
C65 C130 1.713 . S
C5 C135 1.731 . S
C148 C18 1.737 . S
C83 C31 1.736 . S
C44 C96 1.731 . S
C109 C57 1.737 . S
C122 C70 1.736 . S
