# Generated by pormake.
# Topology pcu, (6)-cn, num edge types: 1
# Building blocks:
#     Node 0, Type 0, BuildingBlock: NUHQIS_clean_sbu_0, # of connection points: 6
#     Edge 1, Type (0, 0), BuildingBlock: FUNLAD_clean_linker_1, # of connection points: 2
#     Edge 2, Type (0, 0), BuildingBlock: FUNLAD_clean_linker_1, # of connection points: 2
#     Edge 3, Type (0, 0), BuildingBlock: FUNLAD_clean_linker_1, # of connection points: 2
# Relax obj value: 0.000
# Max RMSD: 0.000
# Mean RMSD: 0.000
data_MOF--net-pcu--node1-NUHQIS_clean_sbu_0--edge1-FUNLAD_clean_linker_1
_symmetry_space_group_name_H-M    P1
_symmetry_Int_Tables_number       1
_symmetry_cell_setting            triclinic
loop_
_symmetry_equiv_pos_as_xyz
'x, y, z'
_cell_length_a     26.259698
_cell_length_b     15.747583
_cell_length_c     15.630922
_cell_angle_alpha  91.565865
_cell_angle_beta   97.110349
_cell_angle_gamma 123.24452
loop_
_atom_site_label
_atom_site_type_symbol
_atom_site_fract_x
_atom_site_fract_y
_atom_site_fract_z
_atom_type_partial_charge
Tb0 Tb 0.95189 0.93153 0.97663 0.0
Eu1 Eu 0.10584 0.0451 0.02782 0.0
C2 C 0.03647 0.98978 0.83376 0.0
C3 C 1.00925 0.79954 0.98774 0.0
C4 C 0.79018 0.87722 0.93679 0.0
C5 C 0.68424 0.82433 0.88789 0.0
C6 C 0.73128 0.80723 0.8892 0.0
C7 C 0.80192 0.96667 0.98106 0.0
C8 C 0.75474 0.98396 0.97989 0.0
C9 C 0.69475 0.91185 0.93421 0.0
C10 C 0.83603 0.84975 0.94608 0.0
O11 O 0.97506 0.90904 0.1088 0.0
O12 O 0.07 0.05783 0.14753 0.0
O13 O 0.09023 0.16906 -0.00138 0.0
O14 O 0.98865 0.0903 0.01798 0.0
C15 C 1.0186 0.98154 0.16803 0.0
O16 O 0.18543 0.06862 0.11453 0.0
O17 O 0.19946 0.14968 0.0007 0.0
O18 O 0.07726 0.98489 0.88686 0.0
O19 O 0.99227 0.99361 0.86119 0.0
O20 O 0.9651 0.80891 0.95028 0.0
O21 O 0.06184 0.87663 0.03145 0.0
C22 C 0.04223 0.17187 0.00871 0.0
O23 O 0.86985 0.86986 0.88565 0.0
O24 O 0.86826 0.87048 0.02297 0.0
C25 C 0.27413 0.11398 0.05216 0.0
C26 C 0.37123 0.0893 0.03146 0.0
C27 C 0.38326 0.18655 0.05339 0.0
C28 C 0.33535 0.19874 0.0634 0.0
C29 C 0.26132 0.01635 0.02964 0.0
C30 C 0.30941 0.00395 0.0195 0.0
C31 C 0.22527 0.1299 0.06692 0.0
H32 H 0.63889 0.76741 0.85192 0.0
H33 H 0.72104 0.73745 0.85496 0.0
H34 H 0.84706 0.02173 0.01858 0.0
H35 H 0.7655 0.05242 0.01678 0.0
H36 H 0.43013 0.25372 0.06338 0.0
H37 H 0.3463 0.27471 0.08095 0.0
H38 H 0.21431 0.94971 0.02096 0.0
H39 H 0.29782 0.92738 0.00411 0.0
H40 H 0.96505 0.9096 0.27228 0.0
C41 C 1.00912 0.97308 0.25911 0.0
H42 H 0.09606 0.10452 0.31357 0.0
H43 H 1.01505 0.16672 0.66098 0.0
H44 H 0.03433 0.31561 0.59227 0.0
H45 H 0.05533 0.33376 0.44205 0.0
H46 H 0.05795 0.20373 0.35992 0.0
C47 C 0.05241 0.03894 0.32554 0.0
C48 C 0.04016 0.02763 0.41649 0.0
C49 C 0.03797 0.10375 0.46322 0.0
C50 C 1.02469 0.09232 0.54931 0.0
C51 C 1.02408 0.17065 0.59504 0.0
C52 C 0.03512 0.25666 0.55641 0.0
C53 C 0.04702 0.26694 0.47187 0.0
C54 C 0.04848 0.1917 0.4255 0.0
H55 H 0.08241 -0.0025 0.72303 0.0
C56 C 0.04301 0.99484 0.74149 0.0
H57 H 0.96404 -0.00394 0.69756 0.0
H58 H 0.04916 0.87384 0.35028 0.0
H59 H 1.02405 0.72037 0.41548 0.0
H60 H 0.98998 0.69186 0.55821 0.0
H61 H 0.98244 0.81802 0.63736 0.0
C62 C 1.00277 0.99582 0.68017 0.0
C63 C 1.01294 0.00424 0.58819 0.0
C64 C 1.01339 0.92668 0.54048 0.0
C65 C 0.02917 0.94007 0.45583 0.0
C66 C 0.03419 0.86524 0.4127 0.0
C67 C 1.02042 0.77704 0.44973 0.0
C68 C 1.00153 0.76123 0.53023 0.0
C69 C 0.99793 0.8348 0.57533 0.0
H70 H 0.47083 0.14883 0.04941 0.0
C71 C 0.42495 0.08141 0.02527 0.0
H72 H 0.37693 0.93069 0.96145 0.0
H73 H 0.61019 0.00621 0.81012 0.0
H74 H 0.54665 -0.00088 0.68015 0.0
H75 H 0.45092 0.99098 0.68851 0.0
H76 H 0.4184 0.99076 0.82714 0.0
C77 C 0.42104 -0.00197 0.99117 0.0
C78 C 0.47782 -0.00165 0.9865 0.0
C79 C 0.49559 0.99582 0.90484 0.0
C80 C 0.55032 -0.00153 0.89986 0.0
C81 C 0.56818 0.00084 0.81763 0.0
C82 C 0.53235 -0.00235 0.74244 0.0
C83 C 0.4785 0.99322 0.74716 0.0
C84 C 0.46027 0.99285 0.8272 0.0
H85 H 0.59579 0.85613 0.90496 0.0
C86 C 0.64098 0.92106 0.93547 0.0
H87 H 0.6872 0.06848 0.00539 0.0
H88 H 0.45471 0.99504 0.1529 0.0
H89 H 0.51784 0.00111 0.2829 0.0
H90 H 0.61294 0.00721 0.27456 0.0
H91 H 0.64536 0.00675 0.13608 0.0
C92 C 0.64381 0.00231 0.97245 0.0
C93 C 0.58664 0.00105 0.97651 0.0
C94 C 0.56871 0.00322 0.05817 0.0
C95 C 0.51414 0.00104 0.06314 0.0
C96 C 0.49644 -0.00058 0.1454 0.0
C97 C 0.53205 0.00214 0.22061 0.0
C98 C 0.58556 0.00546 0.2159 0.0
C99 C 0.60374 0.00551 0.13588 0.0
H100 H 0.9536 0.63249 0.95033 0.0
C101 C 0.99858 0.69721 0.98148 0.0
H102 H 0.08724 0.74603 0.04721 0.0
H103 H 1.01528 0.3281 0.18024 0.0
H104 H 0.03298 0.42877 0.31436 0.0
H105 H 0.04901 0.59842 0.31247 0.0
H106 H 0.0477 0.66861 0.17667 0.0
C107 C 0.0426 0.68233 0.01399 0.0
C108 C 0.03055 0.57843 0.01373 0.0
C109 C 0.03099 0.53833 0.0938 0.0
C110 C 1.02116 0.44022 0.09494 0.0
C111 C 1.02223 0.40213 0.17574 0.0
C112 C 0.03233 0.45907 0.25319 0.0
C113 C 0.04141 0.55461 0.25213 0.0
C114 C 0.0407 0.59411 0.17363 0.0
H115 H 0.09348 0.33775 -0.00027 0.0
C116 C 0.04921 0.27127 0.00884 0.0
H117 H 0.95826 0.21686 0.02874 0.0
H118 H 0.03195 0.63595 0.84929 0.0
H119 H 1.01173 0.53315 0.71547 0.0
H120 H 0.98948 0.35934 0.71734 0.0
H121 H 0.98821 0.28798 0.8533 0.0
C122 C 1.00261 0.28157 0.01791 0.0
C123 C 1.011 0.38261 0.01613 0.0
C124 C 1.00971 0.42188 0.93595 0.0
C125 C 1.02045 0.52068 0.93475 0.0
C126 C 1.02191 0.56002 0.85399 0.0
C127 C 1.01079 0.50204 0.77662 0.0
C128 C 0.99843 0.4043 0.77766 0.0
C129 C 0.99798 0.36437 0.85619 0.0
loop_
_geom_bond_atom_site_label_1
_geom_bond_atom_site_label_2
_geom_bond_distance
_geom_bond_site_symmetry_2
_ccdc_geom_bond_type
Tb0 C10 2.825 . S
Tb0 O11 2.347 1_556 S
Tb0 O14 2.366 1_565 S
Tb0 O19 2.418 . S
Tb0 O20 2.384 . S
Tb0 O23 2.479 . S
Tb0 O24 2.471 1_556 S
Eu1 O12 2.418 . S
Eu1 O13 2.384 . S
Eu1 O16 2.479 . S
Eu1 O17 2.471 1_554 S
Eu1 O18 2.347 1_554 S
Eu1 O21 2.366 1_545 S
Eu1 C31 2.825 . S
C2 O18 1.259 1_665 S
C2 O19 1.265 . S
C3 O20 1.255 1_554 S
C3 O21 1.265 1_655 S
C4 C6 1.380 . S
C4 C7 1.374 1_566 S
C4 C10 1.507 . S
C5 C6 1.384 . S
C5 C9 1.387 . S
C5 H32 0.930 . S
C6 C4 1.380 . S
C6 C5 1.384 . S
C6 H33 0.931 . S
C7 C4 1.374 1_544 S
C7 C8 1.390 . S
C7 H34 0.930 . S
C8 C7 1.390 . S
C8 C9 1.391 1_544 S
C8 H35 0.930 . S
C9 C5 1.387 . S
C9 C8 1.391 1_566 S
C10 Tb0 2.825 . S
C10 C4 1.507 . S
C10 O23 1.238 . S
C10 O24 1.247 1_556 S
O11 Tb0 2.347 1_554 S
O11 C15 1.259 1_665 S
O12 Eu1 2.418 . S
O12 C15 1.265 . S
O13 Eu1 2.384 . S
O13 C22 1.255 . S
O14 Tb0 2.366 1_545 S
O14 C22 1.265 1_656 S
C15 O11 1.259 1_445 S
C15 O12 1.265 . S
O16 Eu1 2.479 . S
O16 C31 1.238 . S
O17 Eu1 2.471 1_556 S
O17 C31 1.247 1_556 S
O18 Eu1 2.347 1_556 S
O18 C2 1.259 1_445 S
O19 Tb0 2.418 . S
O19 C2 1.265 . S
O20 Tb0 2.384 . S
O20 C3 1.255 1_556 S
O21 Eu1 2.366 1_565 S
O21 C3 1.265 1_455 S
C22 O13 1.255 . S
C22 O14 1.265 1_454 S
O23 Tb0 2.479 . S
O23 C10 1.238 . S
O24 Tb0 2.471 1_554 S
O24 C10 1.247 1_554 S
C25 C28 1.380 . S
C25 C29 1.374 1_544 S
C25 C31 1.507 . S
C26 C27 1.387 . S
C26 C30 1.391 1_544 S
C27 C26 1.387 . S
C27 C28 1.384 . S
C27 H36 0.930 . S
C28 C25 1.380 . S
C28 C27 1.384 . S
C28 H37 0.931 . S
C29 C25 1.374 1_566 S
C29 C30 1.390 . S
C29 H38 0.930 . S
C30 C26 1.391 1_566 S
C30 C29 1.390 . S
C30 H39 0.930 . S
C31 Eu1 2.825 . S
C31 O16 1.238 . S
C31 O17 1.247 1_554 S
C31 C25 1.507 . S
H32 C5 0.930 . S
H33 C6 0.931 . S
H34 C7 0.930 . S
H35 C8 0.930 . S
H36 C27 0.930 . S
H37 C28 0.931 . S
H38 C29 0.930 . S
H39 C30 0.930 . S
H40 C41 0.951 . S
C41 H40 0.951 . S
C41 C47 1.265 1_665 S
H42 C47 0.950 . S
H43 C51 0.949 . S
H44 C52 0.950 . S
H45 C53 0.951 . S
H46 C54 0.951 . S
C47 C41 1.265 1_445 S
C47 H42 0.950 . S
C47 C48 1.478 . S
C48 C47 1.478 . S
C48 C49 1.397 . S
C48 C65 1.394 1_445 S
C49 C48 1.397 . S
C49 C50 1.438 . S
C49 C54 1.429 . S
C50 C49 1.438 . S
C50 C51 1.428 . S
C50 C63 1.394 1_445 S
C51 H43 0.949 . S
C51 C50 1.428 . S
C51 C52 1.345 . S
C52 H44 0.950 . S
C52 C51 1.345 . S
C52 C53 1.424 . S
C53 H45 0.951 . S
C53 C52 1.424 . S
C53 C54 1.347 . S
C54 H46 0.951 . S
C54 C49 1.429 . S
C54 C53 1.347 . S
H55 C56 0.951 . S
C56 H55 0.951 . S
C56 C62 1.265 1_445 S
H57 C62 0.950 . S
H58 C66 0.949 . S
H59 C67 0.950 . S
H60 C68 0.951 . S
H61 C69 0.951 . S
C62 C56 1.265 1_665 S
C62 H57 0.950 . S
C62 C63 1.478 . S
C63 C50 1.394 1_665 S
C63 C62 1.478 . S
C63 C64 1.397 . S
C64 C63 1.397 . S
C64 C65 1.438 . S
C64 C69 1.429 . S
C65 C48 1.394 1_665 S
C65 C64 1.438 . S
C65 C66 1.428 . S
C66 H58 0.949 . S
C66 C65 1.428 . S
C66 C67 1.345 . S
C67 H59 0.950 . S
C67 C66 1.345 . S
C67 C68 1.424 . S
C68 H60 0.951 . S
C68 C67 1.424 . S
C68 C69 1.347 . S
C69 H61 0.951 . S
C69 C64 1.429 . S
C69 C68 1.347 . S
H70 C71 0.951 . S
C71 H70 0.951 . S
C71 C77 1.265 1_544 S
H72 C77 0.950 . S
H73 C81 0.949 . S
H74 C82 0.950 . S
H75 C83 0.951 . S
H76 C84 0.951 . S
C77 C71 1.265 1_566 S
C77 H72 0.950 . S
C77 C78 1.478 . S
C78 C77 1.478 . S
C78 C79 1.397 . S
C78 C95 1.394 1_566 S
C79 C78 1.397 . S
C79 C80 1.438 . S
C79 C84 1.429 . S
C80 C79 1.438 . S
C80 C81 1.428 . S
C80 C93 1.394 1_566 S
C81 H73 0.949 . S
C81 C80 1.428 . S
C81 C82 1.345 . S
C82 H74 0.950 . S
C82 C81 1.345 . S
C82 C83 1.424 . S
C83 H75 0.951 . S
C83 C82 1.424 . S
C83 C84 1.347 . S
C84 H76 0.951 . S
C84 C79 1.429 . S
C84 C83 1.347 . S
H85 C86 0.951 . S
C86 H85 0.951 . S
C86 C92 1.265 1_566 S
H87 C92 0.950 . S
H88 C96 0.949 . S
H89 C97 0.950 . S
H90 C98 0.951 . S
H91 C99 0.951 . S
C92 C86 1.265 1_544 S
C92 H87 0.950 . S
C92 C93 1.478 . S
C93 C80 1.394 1_544 S
C93 C92 1.478 . S
C93 C94 1.397 . S
C94 C93 1.397 . S
C94 C95 1.438 . S
C94 C99 1.429 . S
C95 C78 1.394 1_544 S
C95 C94 1.438 . S
C95 C96 1.428 . S
C96 H88 0.949 . S
C96 C95 1.428 . S
C96 C97 1.345 . S
C97 H89 0.950 . S
C97 C96 1.345 . S
C97 C98 1.424 . S
C98 H90 0.951 . S
C98 C97 1.424 . S
C98 C99 1.347 . S
C99 H91 0.951 . S
C99 C94 1.429 . S
C99 C98 1.347 . S
H100 C101 0.951 . S
C101 H100 0.951 . S
C101 C107 1.265 1_656 S
H102 C107 0.950 . S
H103 C111 0.949 . S
H104 C112 0.950 . S
H105 C113 0.951 . S
H106 C114 0.951 . S
C107 C101 1.265 1_454 S
C107 H102 0.950 . S
C107 C108 1.478 . S
C108 C107 1.478 . S
C108 C109 1.397 . S
C108 C125 1.394 1_454 S
C109 C108 1.397 . S
C109 C110 1.438 . S
C109 C114 1.429 . S
C110 C109 1.438 . S
C110 C111 1.428 . S
C110 C123 1.394 1_454 S
C111 H103 0.949 . S
C111 C110 1.428 . S
C111 C112 1.345 . S
C112 H104 0.950 . S
C112 C111 1.345 . S
C112 C113 1.424 . S
C113 H105 0.951 . S
C113 C112 1.424 . S
C113 C114 1.347 . S
C114 H106 0.951 . S
C114 C109 1.429 . S
C114 C113 1.347 . S
H115 C116 0.951 . S
C116 H115 0.951 . S
C116 C122 1.265 1_454 S
H117 C122 0.950 . S
H118 C126 0.949 . S
H119 C127 0.950 . S
H120 C128 0.951 . S
H121 C129 0.951 . S
C122 C116 1.265 1_656 S
C122 H117 0.950 . S
C122 C123 1.478 . S
C123 C110 1.394 1_656 S
C123 C122 1.478 . S
C123 C124 1.397 . S
C124 C123 1.397 . S
C124 C125 1.438 . S
C124 C129 1.429 . S
C125 C108 1.394 1_656 S
C125 C124 1.438 . S
C125 C126 1.428 . S
C126 H118 0.949 . S
C126 C125 1.428 . S
C126 C127 1.345 . S
C127 H119 0.950 . S
C127 C126 1.345 . S
C127 C128 1.424 . S
C128 H120 0.951 . S
C128 C127 1.424 . S
C128 C129 1.347 . S
C129 H121 0.951 . S
C129 C124 1.429 . S
C129 C128 1.347 . S
C41 C15 1.494 1_665 S
C56 C2 1.494 1_445 S
C71 C26 1.468 . S
C86 C9 1.468 . S
C101 C3 1.486 1_556 S
C116 C22 1.486 . S
