# Generated by pormake.
# Topology mdf, (4)-cn, num edge types: 1
# Building blocks:
#     Node 0, Type 0, BuildingBlock: AZAVOO_clean_sbu_0, # of connection points: 4
#     Node 1, Type 0, BuildingBlock: AZAVOO_clean_sbu_0, # of connection points: 4
#     Node 2, Type 0, BuildingBlock: AZAVOO_clean_sbu_0, # of connection points: 4
#     Node 3, Type 0, BuildingBlock: AZAVOO_clean_sbu_0, # of connection points: 4
#     Node 4, Type 0, BuildingBlock: AZAVOO_clean_sbu_0, # of connection points: 4
#     Node 5, Type 0, BuildingBlock: AZAVOO_clean_sbu_0, # of connection points: 4
#     Node 6, Type 0, BuildingBlock: AZAVOO_clean_sbu_0, # of connection points: 4
#     Node 7, Type 0, BuildingBlock: AZAVOO_clean_sbu_0, # of connection points: 4
#     Edge 8, Type (0, 0), None
#     Edge 9, Type (0, 0), None
#     Edge 10, Type (0, 0), None
#     Edge 11, Type (0, 0), None
#     Edge 12, Type (0, 0), None
#     Edge 13, Type (0, 0), None
#     Edge 14, Type (0, 0), None
#     Edge 15, Type (0, 0), None
#     Edge 16, Type (0, 0), None
#     Edge 17, Type (0, 0), None
#     Edge 18, Type (0, 0), None
#     Edge 19, Type (0, 0), None
#     Edge 20, Type (0, 0), None
#     Edge 21, Type (0, 0), None
#     Edge 22, Type (0, 0), None
#     Edge 23, Type (0, 0), None
# Relax obj value: 0.031
# Max RMSD: 0.048
# Mean RMSD: 0.048
data_MOF--net-mdf--node1-AZAVOO_clean_sbu_0--edge1-none
_symmetry_space_group_name_H-M    P1
_symmetry_Int_Tables_number       1
_symmetry_cell_setting            triclinic
loop_
_symmetry_equiv_pos_as_xyz
'x, y, z'
_cell_length_a     16.247356
_cell_length_b     15.754384
_cell_length_c     7.6144897
_cell_angle_alpha  90.001584
_cell_angle_beta   89.997501
_cell_angle_gamma 95.484074
loop_
_atom_site_label
_atom_site_type_symbol
_atom_site_fract_x
_atom_site_fract_y
_atom_site_fract_z
_atom_type_partial_charge
Mg0 Mg 0.27385 0.53555 0.42118 0.0
O1 O 0.15158 0.46574 0.32781 0.0
O2 O 0.17373 0.39117 0.08678 0.0
Mg3 Mg 0.3129 0.40062 0.04303 0.0
C4 C 0.12534 0.4174 0.202 0.0
C5 C 0.14251 0.58192 0.68302 0.0
O6 O 0.12708 0.49888 0.67019 0.0
O7 O 0.28362 0.6305 0.19014 0.0
O8 O 0.32092 0.54249 -0.01818 0.0
O9 O 0.29755 0.42628 0.59514 0.0
O10 O 0.33908 0.43801 0.31947 0.0
C11 C 0.30987 0.61732 0.03522 0.0
C12 C 0.33581 0.39564 0.46398 0.0
O13 O 0.20142 0.62008 0.59509 0.0
Mg14 Mg 0.42441 0.71601 0.55157 0.0
O15 O 0.5107 0.84007 0.57599 0.0
O16 O 0.52446 0.83598 0.85907 0.0
Mg17 Mg 0.57276 0.70712 0.90019 0.0
C18 C 0.54222 0.87301 0.71512 0.0
C19 C 0.35875 0.84181 0.28385 0.0
O20 O 0.43863 0.8621 0.26924 0.0
O21 O 0.35 0.71863 0.8126 0.0
O22 O 0.44324 0.67032 -0.00544 0.0
O23 O 0.51459 0.67177 0.35954 0.0
O24 O 0.52237 0.65112 0.64563 0.0
C25 C 0.36871 0.68212 0.9559 0.0
C26 C 0.55253 0.64138 0.49156 0.0
O27 O 0.33143 0.78376 0.39045 0.0
Mg28 Mg 0.17111 0.93595 0.92118 0.0
O29 O 0.29338 0.00576 0.8278 0.0
O30 O 0.27123 0.08032 0.58678 0.0
Mg31 Mg 0.13207 0.07088 0.54304 0.0
C32 C 0.31963 0.0541 0.702 0.0
C33 C 0.30246 0.88959 0.18301 0.0
O34 O 0.31789 0.97263 0.17019 0.0
O35 O 0.16134 0.84099 0.69014 0.0
O36 O 0.12404 0.92901 0.48183 0.0
O37 O 0.1474 0.04522 0.09515 0.0
O38 O 0.10588 0.03348 0.81948 0.0
C39 C 0.13509 0.85418 0.53522 0.0
C40 C 0.10915 0.07586 0.96396 0.0
O41 O 0.24354 0.85143 0.09509 0.0
Mg42 Mg 0.02055 0.7555 0.05158 0.0
O43 O 0.93426 0.63145 0.07599 0.0
O44 O 0.92049 0.63553 0.35907 0.0
Mg45 Mg 0.8722 0.7644 0.4002 0.0
C46 C 0.90274 0.5985 0.21512 0.0
C47 C 0.08621 0.6297 0.78386 0.0
O48 O 0.00633 0.60941 0.76924 0.0
O49 O 0.09496 0.75287 0.3126 0.0
O50 O 0.00172 0.80119 0.49457 0.0
O51 O 0.93038 0.79973 0.85955 0.0
O52 O 0.92259 0.82039 0.14564 0.0
C53 C 0.07624 0.78939 0.4559 0.0
C54 C 0.89243 0.83013 -0.00845 0.0
O55 O 0.11353 0.68774 0.89045 0.0
Mg56 Mg 0.77381 0.03557 0.92109 0.0
O57 O 0.65156 0.96573 0.82768 0.0
O58 O 0.67375 0.89121 0.58659 0.0
Mg59 Mg 0.81292 0.90068 0.5429 0.0
C60 C 0.62534 0.91743 0.7018 0.0
C61 C 0.64244 0.08187 0.18295 0.0
O62 O 0.62703 -0.00118 0.17008 0.0
O63 O 0.78356 0.13054 0.69008 0.0
O64 O 0.8209 0.04255 0.48174 0.0
O65 O 0.79753 0.9263 0.09504 0.0
O66 O 0.83908 0.93807 0.81935 0.0
C67 C 0.80982 0.11737 0.53516 0.0
C68 C 0.83582 0.89571 0.96386 0.0
O69 O 0.70135 0.12005 0.09504 0.0
Mg70 Mg 0.92445 0.21607 0.0516 0.0
O71 O 0.01072 0.34013 0.07612 0.0
O72 O 0.02448 0.33605 0.35931 0.0
Mg73 Mg 0.07274 0.20716 0.40036 0.0
C74 C 0.04218 0.37306 0.21531 0.0
C75 C 0.85881 0.34189 0.78386 0.0
O76 O 0.93869 0.36222 0.76936 0.0
O77 O 0.84998 0.21869 0.31257 0.0
O78 O 0.94319 0.17039 0.49462 0.0
O79 O 0.01464 0.17186 0.85961 0.0
O80 O 0.02238 0.15118 0.14575 0.0
C81 C 0.86867 0.18218 0.45589 0.0
C82 C 0.05254 0.14145 -0.00833 0.0
O83 O 0.83149 0.28382 0.89039 0.0
Mg84 Mg 0.67115 0.43593 0.4211 0.0
O85 O 0.7934 0.50577 0.32768 0.0
O86 O 0.77122 0.58029 0.0866 0.0
Mg87 Mg 0.63205 0.57081 0.04291 0.0
C88 C 0.81962 0.55407 0.20179 0.0
C89 C 0.80252 0.38964 0.68295 0.0
O90 O 0.81794 0.47268 0.67008 0.0
O91 O 0.6614 0.34096 0.19008 0.0
O92 O 0.62407 0.42895 -0.01825 0.0
O93 O 0.64743 0.5452 0.59505 0.0
O94 O 0.60588 0.53343 0.31936 0.0
C95 C 0.63514 0.35413 0.03516 0.0
C96 C 0.60914 0.57579 0.46385 0.0
O97 O 0.74361 0.35145 0.59504 0.0
Mg98 Mg 0.52051 0.25544 0.55161 0.0
O99 O 0.43424 0.13139 0.57613 0.0
O100 O 0.42047 0.13546 0.85931 0.0
Mg101 Mg 0.37222 0.26436 0.90037 0.0
C102 C 0.40278 0.09845 0.71531 0.0
C103 C 0.58615 0.12962 0.28387 0.0
O104 O 0.50627 0.10929 0.26937 0.0
O105 O 0.59497 0.25281 0.81257 0.0
O106 O 0.50177 0.30112 -0.00537 0.0
O107 O 0.43032 0.29965 0.35962 0.0
O108 O 0.42258 0.32034 0.64576 0.0
C109 C 0.57628 0.28932 0.9559 0.0
C110 C 0.39243 0.33006 0.49166 0.0
O111 O 0.61347 0.18769 0.3904 0.0
loop_
_geom_bond_atom_site_label_1
_geom_bond_atom_site_label_2
_geom_bond_distance
_geom_bond_site_symmetry_2
_ccdc_geom_bond_type
Mg0 O1 2.028 . S
Mg0 O7 1.986 . S
Mg0 O9 2.114 . S
Mg0 O10 2.251 . S
Mg0 O13 2.010 . S
O1 Mg0 2.028 . S
O1 C4 1.250 . S
O2 Mg3 2.028 . S
O2 C4 1.248 . S
Mg3 O2 2.028 . S
Mg3 O8 2.032 1_554 S
Mg3 O10 2.079 . S
C4 O1 1.250 . S
C4 O2 1.248 . S
C5 O6 1.264 . S
C5 O13 1.249 . S
O6 C5 1.264 . S
O7 Mg0 1.986 . S
O7 C11 1.246 . S
O8 Mg3 2.032 1_556 S
O8 C11 1.259 1_556 S
O9 Mg0 2.114 . S
O9 C12 1.252 . S
O10 Mg0 2.251 . S
O10 Mg3 2.079 . S
O10 C12 1.273 . S
C11 O7 1.246 . S
C11 O8 1.259 1_554 S
C12 O9 1.252 . S
C12 O10 1.273 . S
O13 Mg0 2.010 . S
O13 C5 1.249 . S
Mg14 O15 2.028 . S
Mg14 O21 1.986 . S
Mg14 O23 2.114 . S
Mg14 O24 2.251 . S
Mg14 O27 2.010 . S
O15 Mg14 2.028 . S
O15 C18 1.250 . S
O16 Mg17 2.028 . S
O16 C18 1.248 . S
Mg17 O16 2.028 . S
Mg17 O22 2.032 1_556 S
Mg17 O24 2.079 . S
C18 O15 1.250 . S
C18 O16 1.248 . S
C19 O20 1.264 . S
C19 O27 1.249 . S
O20 C19 1.264 . S
O21 Mg14 1.986 . S
O21 C25 1.246 . S
O22 Mg17 2.032 1_554 S
O22 C25 1.259 1_554 S
O23 Mg14 2.114 . S
O23 C26 1.252 . S
O24 Mg14 2.251 . S
O24 Mg17 2.079 . S
O24 C26 1.273 . S
C25 O21 1.246 . S
C25 O22 1.259 1_556 S
C26 O23 1.252 . S
C26 O24 1.273 . S
O27 Mg14 2.010 . S
O27 C19 1.249 . S
Mg28 O29 2.028 1_565 S
Mg28 O35 1.986 . S
Mg28 O37 2.114 1_566 S
Mg28 O38 2.251 1_565 S
Mg28 O41 2.010 1_556 S
O29 Mg28 2.028 1_545 S
O29 C32 1.250 . S
O30 Mg31 2.028 . S
O30 C32 1.248 . S
Mg31 O30 2.028 . S
Mg31 O36 2.032 1_545 S
Mg31 O38 2.079 . S
C32 O29 1.250 . S
C32 O30 1.248 . S
C33 O34 1.264 . S
C33 O41 1.249 . S
O34 C33 1.264 . S
O35 Mg28 1.986 . S
O35 C39 1.246 . S
O36 Mg31 2.032 1_565 S
O36 C39 1.259 . S
O37 Mg28 2.114 1_544 S
O37 C40 1.252 1_554 S
O38 Mg28 2.251 1_545 S
O38 Mg31 2.079 . S
O38 C40 1.273 . S
C39 O35 1.246 . S
C39 O36 1.259 . S
C40 O37 1.252 1_556 S
C40 O38 1.273 . S
O41 Mg28 2.010 1_554 S
O41 C33 1.249 . S
Mg42 O43 2.028 1_455 S
Mg42 O49 1.986 . S
Mg42 O51 2.114 1_454 S
Mg42 O52 2.251 1_455 S
Mg42 O55 2.010 1_554 S
O43 Mg42 2.028 1_655 S
O43 C46 1.250 . S
O44 Mg45 2.028 . S
O44 C46 1.248 . S
Mg45 O44 2.028 . S
Mg45 O50 2.032 1_655 S
Mg45 O52 2.079 . S
C46 O43 1.250 . S
C46 O44 1.248 . S
C47 O48 1.264 . S
C47 O55 1.249 . S
O48 C47 1.264 . S
O49 Mg42 1.986 . S
O49 C53 1.246 . S
O50 Mg45 2.032 1_455 S
O50 C53 1.259 . S
O51 Mg42 2.114 1_656 S
O51 C54 1.252 1_556 S
O52 Mg42 2.251 1_655 S
O52 Mg45 2.079 . S
O52 C54 1.273 . S
C53 O49 1.246 . S
C53 O50 1.259 . S
C54 O51 1.252 1_554 S
C54 O52 1.273 . S
O55 Mg42 2.010 1_556 S
O55 C47 1.249 . S
Mg56 O57 2.028 1_545 S
Mg56 O63 1.986 . S
Mg56 O65 2.114 1_546 S
Mg56 O66 2.251 1_545 S
Mg56 O69 2.010 1_556 S
O57 Mg56 2.028 1_565 S
O57 C60 1.250 . S
O58 Mg59 2.028 . S
O58 C60 1.248 . S
Mg59 O58 2.028 . S
Mg59 O64 2.032 1_565 S
Mg59 O66 2.079 . S
C60 O57 1.250 . S
C60 O58 1.248 . S
C61 O62 1.264 . S
C61 O69 1.249 . S
O62 C61 1.264 . S
O63 Mg56 1.986 . S
O63 C67 1.246 . S
O64 Mg59 2.032 1_545 S
O64 C67 1.259 . S
O65 Mg56 2.114 1_564 S
O65 C68 1.252 1_554 S
O66 Mg56 2.251 1_565 S
O66 Mg59 2.079 . S
O66 C68 1.273 . S
C67 O63 1.246 . S
C67 O64 1.259 . S
C68 O65 1.252 1_556 S
C68 O66 1.273 . S
O69 Mg56 2.010 1_554 S
O69 C61 1.249 . S
Mg70 O71 2.028 1_655 S
Mg70 O77 1.986 . S
Mg70 O79 2.114 1_654 S
Mg70 O80 2.251 1_655 S
Mg70 O83 2.010 1_554 S
O71 Mg70 2.028 1_455 S
O71 C74 1.250 . S
O72 Mg73 2.028 . S
O72 C74 1.248 . S
Mg73 O72 2.028 . S
Mg73 O78 2.032 1_455 S
Mg73 O80 2.079 . S
C74 O71 1.250 . S
C74 O72 1.248 . S
C75 O76 1.264 . S
C75 O83 1.249 . S
O76 C75 1.264 . S
O77 Mg70 1.986 . S
O77 C81 1.246 . S
O78 Mg73 2.032 1_655 S
O78 C81 1.259 . S
O79 Mg70 2.114 1_456 S
O79 C82 1.252 1_556 S
O80 Mg70 2.251 1_455 S
O80 Mg73 2.079 . S
O80 C82 1.273 . S
C81 O77 1.246 . S
C81 O78 1.259 . S
C82 O79 1.252 1_554 S
C82 O80 1.273 . S
O83 Mg70 2.010 1_556 S
O83 C75 1.249 . S
Mg84 O85 2.028 . S
Mg84 O91 1.986 . S
Mg84 O93 2.114 . S
Mg84 O94 2.251 . S
Mg84 O97 2.010 . S
O85 Mg84 2.028 . S
O85 C88 1.250 . S
O86 Mg87 2.028 . S
O86 C88 1.248 . S
Mg87 O86 2.028 . S
Mg87 O92 2.032 1_554 S
Mg87 O94 2.079 . S
C88 O85 1.250 . S
C88 O86 1.248 . S
C89 O90 1.264 . S
C89 O97 1.249 . S
O90 C89 1.264 . S
O91 Mg84 1.986 . S
O91 C95 1.246 . S
O92 Mg87 2.032 1_556 S
O92 C95 1.259 1_556 S
O93 Mg84 2.114 . S
O93 C96 1.252 . S
O94 Mg84 2.251 . S
O94 Mg87 2.079 . S
O94 C96 1.273 . S
C95 O91 1.246 . S
C95 O92 1.259 1_554 S
C96 O93 1.252 . S
C96 O94 1.273 . S
O97 Mg84 2.010 . S
O97 C89 1.249 . S
Mg98 O99 2.028 . S
Mg98 O105 1.986 . S
Mg98 O107 2.114 . S
Mg98 O108 2.251 . S
Mg98 O111 2.010 . S
O99 Mg98 2.028 . S
O99 C102 1.250 . S
O100 Mg101 2.028 . S
O100 C102 1.248 . S
Mg101 O100 2.028 . S
Mg101 O106 2.032 1_556 S
Mg101 O108 2.079 . S
C102 O99 1.250 . S
C102 O100 1.248 . S
C103 O104 1.264 . S
C103 O111 1.249 . S
O104 C103 1.264 . S
O105 Mg98 1.986 . S
O105 C109 1.246 . S
O106 Mg101 2.032 1_554 S
O106 C109 1.259 1_554 S
O107 Mg98 2.114 . S
O107 C110 1.252 . S
O108 Mg98 2.251 . S
O108 Mg101 2.079 . S
O108 C110 1.273 . S
C109 O105 1.246 . S
C109 O106 1.259 1_556 S
C110 O107 1.252 . S
C110 O108 1.273 . S
O111 Mg98 2.010 . S
O111 C103 1.249 . S
C25 C11 1.321 1_556 S
C19 C33 0.732 . S
C53 C39 1.321 . S
C47 C5 0.732 . S
C67 C81 1.321 . S
C75 C89 0.732 . S
C95 C109 1.321 1_554 S
C61 C103 0.732 . S
C12 C110 1.524 . S
C60 C18 1.451 . S
C82 C40 1.524 1_554 S
C46 C88 1.451 . S
C32 C102 1.451 . S
C68 C54 1.524 1_556 S
C74 C4 1.451 . S
C26 C96 1.524 . S
