# Generated by pormake.
# Topology uog, (4)-cn, num edge types: 1
# Building blocks:
#     Node 0, Type 0, BuildingBlock: QUQFOY_clean_sbu_3, # of connection points: 4
#     Node 1, Type 0, BuildingBlock: QUQFOY_clean_sbu_3, # of connection points: 4
#     Node 2, Type 0, BuildingBlock: QUQFOY_clean_sbu_3, # of connection points: 4
#     Node 3, Type 0, BuildingBlock: QUQFOY_clean_sbu_3, # of connection points: 4
#     Node 4, Type 0, BuildingBlock: QUQFOY_clean_sbu_3, # of connection points: 4
#     Node 5, Type 0, BuildingBlock: QUQFOY_clean_sbu_3, # of connection points: 4
#     Edge 6, Type (0, 0), BuildingBlock: AJUNOK_clean_linker_0, # of connection points: 2
#     Edge 7, Type (0, 0), BuildingBlock: AJUNOK_clean_linker_0, # of connection points: 2
#     Edge 8, Type (0, 0), BuildingBlock: AJUNOK_clean_linker_0, # of connection points: 2
#     Edge 9, Type (0, 0), BuildingBlock: AJUNOK_clean_linker_0, # of connection points: 2
#     Edge 10, Type (0, 0), BuildingBlock: AJUNOK_clean_linker_0, # of connection points: 2
#     Edge 11, Type (0, 0), BuildingBlock: AJUNOK_clean_linker_0, # of connection points: 2
#     Edge 12, Type (0, 0), BuildingBlock: AJUNOK_clean_linker_0, # of connection points: 2
#     Edge 13, Type (0, 0), BuildingBlock: AJUNOK_clean_linker_0, # of connection points: 2
#     Edge 14, Type (0, 0), BuildingBlock: AJUNOK_clean_linker_0, # of connection points: 2
#     Edge 15, Type (0, 0), BuildingBlock: AJUNOK_clean_linker_0, # of connection points: 2
#     Edge 16, Type (0, 0), BuildingBlock: AJUNOK_clean_linker_0, # of connection points: 2
#     Edge 17, Type (0, 0), BuildingBlock: AJUNOK_clean_linker_0, # of connection points: 2
# Relax obj value: 0.081
# Max RMSD: 0.175
# Mean RMSD: 0.175
data_MOF--net-uog--node1-QUQFOY_clean_sbu_3--edge1-AJUNOK_clean_linker_0
_symmetry_space_group_name_H-M    P1
_symmetry_Int_Tables_number       1
_symmetry_cell_setting            triclinic
loop_
_symmetry_equiv_pos_as_xyz
'x, y, z'
_cell_length_a     22.022525
_cell_length_b     22.023146
_cell_length_c     33.146576
_cell_angle_alpha  89.493453
_cell_angle_beta   90.501722
_cell_angle_gamma 120.0345
loop_
_atom_site_label
_atom_site_type_symbol
_atom_site_fract_x
_atom_site_fract_y
_atom_site_fract_z
_atom_type_partial_charge
C0 C 0.70304 0.34892 0.21052 0.0
O1 O 0.75083 0.3973 0.18947 0.0
Cd2 Cd 0.71278 0.4247 0.12648 0.0
O3 O 0.64362 0.30913 0.19472 0.0
Cd4 Cd 0.58634 0.28309 0.12946 0.0
C5 C 0.55783 0.41121 0.15696 0.0
O6 O 0.6657 0.3412 0.07214 0.0
O7 O 0.55704 0.31645 0.0674 0.0
O8 O 0.60094 0.18212 0.1266 0.0
C9 C 0.61612 0.33898 0.05063 0.0
O10 O 0.62147 0.44935 0.14617 0.0
C11 C 0.53621 0.13638 0.1271 0.0
O12 O 0.52881 0.34445 0.15652 0.0
O13 O 0.49307 0.15904 0.1283 0.0
C14 C 0.34326 0.70665 0.54257 0.0
O15 O 0.34338 0.7552 0.52167 0.0
Cd16 Cd 0.27734 0.71972 0.45891 0.0
O17 O 0.32182 0.6471 0.52683 0.0
Cd18 Cd 0.28688 0.59059 0.46165 0.0
C19 C 0.13218 0.56787 0.4896 0.0
O20 O 0.31127 0.67144 0.40418 0.0
O21 O 0.2243 0.56431 0.3997 0.0
O22 O 0.39936 0.59766 0.45724 0.0
C23 C 0.26321 0.62302 0.38267 0.0
O24 O 0.15949 0.63177 0.47863 0.0
C25 C 0.37638 0.53208 0.45831 0.0
O26 O 0.16825 0.53709 0.48915 0.0
O27 O 0.31005 0.49229 0.46067 0.0
C28 C 0.62251 0.34775 0.87672 0.0
O29 O 0.57459 0.34754 0.85515 0.0
Cd30 Cd 0.54745 0.28314 0.7925 0.0
O31 O 0.66259 0.32832 0.86156 0.0
Cd32 Cd 0.68967 0.29781 0.79673 0.0
C33 C 0.56045 0.14104 0.82432 0.0
O34 O 0.63208 0.31988 0.73896 0.0
O35 O 0.65589 0.23538 0.73505 0.0
O36 O 0.79112 0.41331 0.79322 0.0
C37 C 0.63354 0.27221 0.71794 0.0
O38 O 0.52279 0.16704 0.81304 0.0
C39 C 0.83665 0.39408 0.79409 0.0
O40 O 0.62731 0.17819 0.82392 0.0
O41 O 0.81368 0.3282 0.79592 0.0
C42 C 0.25913 0.62632 0.20888 0.0
O43 O 0.21138 0.57682 0.1884 0.0
Cd44 Cd 0.24758 0.54835 0.12569 0.0
O45 O 0.3187 0.66514 0.19328 0.0
Cd46 Cd 0.37792 0.68795 0.12923 0.0
C47 C 0.39859 0.55403 0.15778 0.0
O48 O 0.29817 0.633 0.0714 0.0
O49 O 0.40564 0.65408 0.06759 0.0
O50 O 0.37148 0.79367 0.12415 0.0
C51 C 0.34707 0.63413 0.05027 0.0
O52 O 0.33502 0.51796 0.14622 0.0
C53 C 0.43699 0.83614 0.12642 0.0
O54 O 0.42981 0.62097 0.1574 0.0
O55 O 0.47654 0.80939 0.12958 0.0
C56 C 0.62293 0.26724 0.54418 0.0
O57 O 0.6217 0.21855 0.52345 0.0
Cd58 Cd 0.68702 0.25556 0.4609 0.0
O59 O 0.64364 0.32673 0.52808 0.0
Cd60 Cd 0.67409 0.38291 0.46253 0.0
C61 C 0.83005 0.40974 0.49159 0.0
O62 O 0.65224 0.3034 0.40545 0.0
O63 O 0.737 0.41181 0.4012 0.0
O64 O 0.55857 0.36841 0.45821 0.0
C65 C 0.70011 0.35281 0.38432 0.0
O66 O 0.8036 0.34586 0.48123 0.0
C67 C 0.57758 0.43312 0.4587 0.0
O68 O 0.79342 0.43994 0.4901 0.0
O69 O 0.64343 0.47626 0.46057 0.0
C70 C 0.34645 0.62757 0.87645 0.0
O71 O 0.39659 0.62982 0.85668 0.0
Cd72 Cd 0.42556 0.69406 0.79321 0.0
O73 O 0.30747 0.64762 0.85987 0.0
Cd74 Cd 0.28552 0.68342 0.79485 0.0
C75 C 0.41802 0.83885 0.82263 0.0
O76 O 0.3417 0.65858 0.73831 0.0
O77 O 0.32154 0.7455 0.73279 0.0
O78 O 0.17951 0.57121 0.79022 0.0
C79 C 0.34169 0.70675 0.71646 0.0
O80 O 0.45491 0.81203 0.81199 0.0
C81 C 0.1372 0.59445 0.79168 0.0
O82 O 0.35117 0.8022 0.82214 0.0
O83 O 0.16418 0.66081 0.79398 0.0
C84 C 0.44091 0.01063 0.12352 0.0
C85 C 0.51269 0.06031 0.12656 0.0
C86 C 0.41736 0.93858 0.1232 0.0
C87 C 0.46455 0.91302 0.12602 0.0
H88 H 0.40237 0.02738 0.12136 0.0
H89 H 0.36142 0.90266 0.12089 0.0
S90 S 0.65821 0.02115 0.13484 0.0
N91 N 0.63116 0.07875 0.13256 0.0
N92 N 0.58665 0.9434 0.13203 0.0
C93 C 0.53655 0.96206 0.12902 0.0
C94 C 0.56064 0.03558 0.12927 0.0
C95 C 0.49863 0.55205 0.45651 0.0
C96 C 0.42578 0.50466 0.45751 0.0
C97 C 0.54716 0.52854 0.45667 0.0
C98 C 0.52499 0.4566 0.45772 0.0
H99 H 0.5187 0.6081 0.45586 0.0
H100 H 0.60253 0.56725 0.4561 0.0
S101 S 0.33996 0.3105 0.46002 0.0
N102 N 0.33386 0.38219 0.45917 0.0
N103 N 0.42472 0.33775 0.45938 0.0
C104 C 0.45219 0.40846 0.45837 0.0
C105 C 0.40274 0.43251 0.45829 0.0
C106 C 0.96222 0.42411 0.79009 0.0
C107 C 0.91282 0.44645 0.79311 0.0
C108 C 0.03434 0.47247 0.78927 0.0
C109 C 0.06025 0.54528 0.79154 0.0
H110 H 0.9452 0.36876 0.78831 0.0
H111 H 0.07004 0.45227 0.78701 0.0
S112 S 0.95296 0.63141 0.80015 0.0
N113 N 0.89504 0.54679 0.79854 0.0
N114 N 0.03049 0.63731 0.79707 0.0
C115 C 0.01148 0.56847 0.79451 0.0
C116 C 0.9379 0.51921 0.79528 0.0
C117 C 0.01597 0.56174 0.49391 0.0
C118 C 0.05597 0.52824 0.49857 0.0
C119 C 0.94261 0.52372 0.49472 0.0
C120 C 0.90628 0.45064 0.5002 0.0
H121 H 0.04115 0.61741 0.48746 0.0
H122 H 0.91439 0.55136 0.48851 0.0
S123 S -0.01409 0.3398 0.52237 0.0
N124 N 0.05356 0.41914 0.51505 0.0
N125 N 0.91559 0.34764 0.51675 0.0
C126 C 0.94552 0.41737 0.5086 0.0
C127 C 0.02035 0.45615 0.50777 0.0
C128 C 0.52769 0.95556 0.82753 0.0
C129 C 0.45414 0.91512 0.83137 0.0
C130 C 0.56263 0.02892 0.82828 0.0
C131 C 0.52543 0.0648 0.83286 0.0
H132 H 0.55854 0.93071 0.82183 0.0
H133 H 0.61859 0.05749 0.82276 0.0
S134 S 0.33448 0.98397 0.8524 0.0
N135 N 0.3468 0.9167 0.84593 0.0
N136 N 0.41251 0.05462 0.8475 0.0
C137 C 0.45281 0.02514 0.84035 0.0
C138 C 0.41716 0.95032 0.83959 0.0
C139 C 0.51192 0.55488 0.16519 0.0
C140 C 0.43832 0.51742 0.1666 0.0
C141 C 0.55026 0.51994 0.16477 0.0
C142 C 0.51662 0.44607 0.16577 0.0
H143 H 0.54018 0.61145 0.16197 0.0
H144 H 0.60666 0.55135 0.16159 0.0
S145 S 0.32556 0.32429 0.17804 0.0
N146 N 0.33368 0.40289 0.17537 0.0
N147 N 0.40588 0.33722 0.17431 0.0
C148 C 0.44347 0.40826 0.17094 0.0
C149 C 0.40432 0.44393 0.17138 0.0
C150 C 0.68131 0.36029 0.94338 0.0
C151 C 0.62694 0.36079 0.92078 0.0
C152 C 0.67969 0.35736 -0.01441 0.0
C153 C 0.62358 0.35469 0.00685 0.0
H154 H 0.72398 0.35866 0.92839 0.0
H155 H 0.72082 0.35343 0.00145 0.0
S156 S 0.47489 0.36791 0.96262 0.0
N157 N 0.52031 0.36793 0.92327 0.0
N158 N 0.51738 0.36287 0.0026 0.0
C159 C 0.57196 0.36118 -0.01512 0.0
C160 C 0.57367 0.36426 0.94185 0.0
C161 C 0.20173 0.57392 0.27461 0.0
C162 C 0.25079 0.63269 0.25265 0.0
C163 C 0.20423 0.57291 0.3168 0.0
C164 C 0.25579 0.63067 0.33871 0.0
H165 H 0.16392 0.52662 0.25918 0.0
H166 H 0.16726 0.52501 0.33216 0.0
S167 S 0.38738 0.80244 0.29556 0.0
N168 N 0.34581 0.75401 0.25595 0.0
N169 N 0.35052 0.75185 0.33535 0.0
C170 C 0.30122 0.69197 0.31726 0.0
C171 C 0.29867 0.69303 0.27421 0.0
C172 C 0.61749 0.31853 0.65214 0.0
C173 C 0.61693 0.26371 0.67431 0.0
C174 C 0.61417 0.31662 0.60996 0.0
C175 C 0.61007 0.25977 0.58829 0.0
H176 H 0.62443 0.36502 0.66725 0.0
H177 H 0.61849 0.36195 0.59424 0.0
S178 S 0.59247 0.09659 0.63287 0.0
N179 N 0.60113 0.14611 0.67206 0.0
N180 N 0.59531 0.14279 0.59271 0.0
C181 C 0.60309 0.2018 0.61031 0.0
C182 C 0.60656 0.20379 0.65333 0.0
C183 C 0.39765 0.62226 0.9429 0.0
C184 C 0.33938 0.61301 0.92038 0.0
C185 C 0.398 0.62554 -0.01495 0.0
C186 C 0.34007 0.61958 0.00637 0.0
H187 H 0.44505 0.63142 0.92791 0.0
H188 H 0.44552 0.63599 0.00083 0.0
S189 S 0.16948 0.58104 0.96176 0.0
N190 N 0.21835 0.58768 0.92263 0.0
N191 N 0.21932 0.59417 0.00195 0.0
C192 C 0.27929 0.60434 -0.01558 0.0
C193 C 0.27888 0.60095 0.94141 0.0
C194 C 0.65417 0.29047 0.31888 0.0
C195 C 0.70839 0.34547 0.34068 0.0
C196 C 0.6556 0.28949 0.27669 0.0
C197 C 0.71134 0.34347 0.25465 0.0
H198 H 0.60845 0.24985 0.33428 0.0
H199 H 0.6107 0.24777 0.26126 0.0
S200 S 0.87274 0.49198 0.29814 0.0
N201 N 0.82442 0.4497 0.33764 0.0
N202 N 0.82674 0.44803 0.25831 0.0
C203 C 0.7688 0.3954 0.27629 0.0
C204 C 0.76734 0.39642 0.31932 0.0
C205 C 0.3509 0.65616 0.65121 0.0
C206 C 0.35644 0.71333 0.67269 0.0
C207 C 0.35177 0.65672 0.60898 0.0
C208 C 0.3583 0.71451 0.58657 0.0
H209 H 0.34182 0.60904 0.66696 0.0
H210 H 0.34357 0.60976 0.59388 0.0
S211 S 0.3892 0.88307 0.62904 0.0
N212 N 0.37963 0.83359 0.66888 0.0
N213 N 0.38093 0.83445 0.58947 0.0
C214 C 0.37026 0.77448 0.60784 0.0
C215 C 0.3693 0.77387 0.6509 0.0
loop_
_geom_bond_atom_site_label_1
_geom_bond_atom_site_label_2
_geom_bond_distance
_geom_bond_site_symmetry_2
_ccdc_geom_bond_type
C0 O1 1.306 . S
C0 O3 1.160 . S
O1 C0 1.306 . S
O1 Cd2 2.228 . S
Cd2 O1 2.228 . S
Cd2 O6 2.273 . S
Cd2 O10 2.277 . S
O3 C0 1.160 . S
O3 Cd4 2.203 . S
Cd4 O3 2.203 . S
Cd4 O6 2.411 . S
Cd4 O7 2.333 . S
Cd4 O8 2.352 . S
Cd4 O12 2.277 . S
Cd4 O13 2.356 . S
C5 O10 1.209 . S
C5 O12 1.226 . S
O6 Cd2 2.273 . S
O6 Cd4 2.411 . S
O6 C9 1.320 . S
O7 Cd4 2.333 . S
O7 C9 1.214 . S
O8 Cd4 2.352 . S
O8 C11 1.258 . S
C9 O6 1.320 . S
C9 O7 1.214 . S
O10 Cd2 2.277 . S
O10 C5 1.209 . S
C11 O8 1.258 . S
C11 O13 1.282 . S
O12 Cd4 2.277 . S
O12 C5 1.226 . S
O13 Cd4 2.356 . S
O13 C11 1.282 . S
C14 O15 1.306 . S
C14 O17 1.160 . S
O15 C14 1.306 . S
O15 Cd16 2.228 . S
Cd16 O15 2.228 . S
Cd16 O20 2.273 . S
Cd16 O24 2.277 . S
O17 C14 1.160 . S
O17 Cd18 2.203 . S
Cd18 O17 2.203 . S
Cd18 O20 2.411 . S
Cd18 O21 2.333 . S
Cd18 O22 2.352 . S
Cd18 O26 2.277 . S
Cd18 O27 2.356 . S
C19 O24 1.209 . S
C19 O26 1.226 . S
O20 Cd16 2.273 . S
O20 Cd18 2.411 . S
O20 C23 1.320 . S
O21 Cd18 2.333 . S
O21 C23 1.214 . S
O22 Cd18 2.352 . S
O22 C25 1.258 . S
C23 O20 1.320 . S
C23 O21 1.214 . S
O24 Cd16 2.277 . S
O24 C19 1.209 . S
C25 O22 1.258 . S
C25 O27 1.282 . S
O26 Cd18 2.277 . S
O26 C19 1.226 . S
O27 Cd18 2.356 . S
O27 C25 1.282 . S
C28 O29 1.306 . S
C28 O31 1.160 . S
O29 C28 1.306 . S
O29 Cd30 2.228 . S
Cd30 O29 2.228 . S
Cd30 O34 2.273 . S
Cd30 O38 2.277 . S
O31 C28 1.160 . S
O31 Cd32 2.203 . S
Cd32 O31 2.203 . S
Cd32 O34 2.411 . S
Cd32 O35 2.333 . S
Cd32 O36 2.352 . S
Cd32 O40 2.277 . S
Cd32 O41 2.356 . S
C33 O38 1.209 . S
C33 O40 1.226 . S
O34 Cd30 2.273 . S
O34 Cd32 2.411 . S
O34 C37 1.320 . S
O35 Cd32 2.333 . S
O35 C37 1.214 . S
O36 Cd32 2.352 . S
O36 C39 1.258 . S
C37 O34 1.320 . S
C37 O35 1.214 . S
O38 Cd30 2.277 . S
O38 C33 1.209 . S
C39 O36 1.258 . S
C39 O41 1.282 . S
O40 Cd32 2.277 . S
O40 C33 1.226 . S
O41 Cd32 2.356 . S
O41 C39 1.282 . S
C42 O43 1.306 . S
C42 O45 1.160 . S
O43 C42 1.306 . S
O43 Cd44 2.228 . S
Cd44 O43 2.228 . S
Cd44 O48 2.273 . S
Cd44 O52 2.277 . S
O45 C42 1.160 . S
O45 Cd46 2.203 . S
Cd46 O45 2.203 . S
Cd46 O48 2.411 . S
Cd46 O49 2.333 . S
Cd46 O50 2.352 . S
Cd46 O54 2.277 . S
Cd46 O55 2.356 . S
C47 O52 1.209 . S
C47 O54 1.226 . S
O48 Cd44 2.273 . S
O48 Cd46 2.411 . S
O48 C51 1.320 . S
O49 Cd46 2.333 . S
O49 C51 1.214 . S
O50 Cd46 2.352 . S
O50 C53 1.258 . S
C51 O48 1.320 . S
C51 O49 1.214 . S
O52 Cd44 2.277 . S
O52 C47 1.209 . S
C53 O50 1.258 . S
C53 O55 1.282 . S
O54 Cd46 2.277 . S
O54 C47 1.226 . S
O55 Cd46 2.356 . S
O55 C53 1.282 . S
C56 O57 1.306 . S
C56 O59 1.160 . S
O57 C56 1.306 . S
O57 Cd58 2.228 . S
Cd58 O57 2.228 . S
Cd58 O62 2.273 . S
Cd58 O66 2.277 . S
O59 C56 1.160 . S
O59 Cd60 2.203 . S
Cd60 O59 2.203 . S
Cd60 O62 2.411 . S
Cd60 O63 2.333 . S
Cd60 O64 2.352 . S
Cd60 O68 2.277 . S
Cd60 O69 2.356 . S
C61 O66 1.209 . S
C61 O68 1.226 . S
O62 Cd58 2.273 . S
O62 Cd60 2.411 . S
O62 C65 1.320 . S
O63 Cd60 2.333 . S
O63 C65 1.214 . S
O64 Cd60 2.352 . S
O64 C67 1.258 . S
C65 O62 1.320 . S
C65 O63 1.214 . S
O66 Cd58 2.277 . S
O66 C61 1.209 . S
C67 O64 1.258 . S
C67 O69 1.282 . S
O68 Cd60 2.277 . S
O68 C61 1.226 . S
O69 Cd60 2.356 . S
O69 C67 1.282 . S
C70 O71 1.306 . S
C70 O73 1.160 . S
O71 C70 1.306 . S
O71 Cd72 2.228 . S
Cd72 O71 2.228 . S
Cd72 O76 2.273 . S
Cd72 O80 2.277 . S
O73 C70 1.160 . S
O73 Cd74 2.203 . S
Cd74 O73 2.203 . S
Cd74 O76 2.411 . S
Cd74 O77 2.333 . S
Cd74 O78 2.352 . S
Cd74 O82 2.277 . S
Cd74 O83 2.356 . S
C75 O80 1.209 . S
C75 O82 1.226 . S
O76 Cd72 2.273 . S
O76 Cd74 2.411 . S
O76 C79 1.320 . S
O77 Cd74 2.333 . S
O77 C79 1.214 . S
O78 Cd74 2.352 . S
O78 C81 1.258 . S
C79 O76 1.320 . S
C79 O77 1.214 . S
O80 Cd72 2.277 . S
O80 C75 1.209 . S
C81 O78 1.258 . S
C81 O83 1.282 . S
O82 Cd74 2.277 . S
O82 C75 1.226 . S
O83 Cd74 2.356 . S
O83 C81 1.282 . S
C84 C85 1.369 . S
C84 C86 1.419 1_545 S
C84 H88 0.930 . S
C85 C84 1.369 . S
C85 C94 1.429 . S
C86 C84 1.419 1_565 S
C86 C87 1.363 . S
C86 H89 0.929 . S
C87 C86 1.363 . S
C87 C93 1.428 . S
H88 C84 0.930 . S
H89 C86 0.929 . S
S90 N91 1.613 . S
S90 N92 1.610 1_545 S
N91 S90 1.613 . S
N91 C94 1.350 . S
N92 S90 1.610 1_565 S
N92 C93 1.351 . S
C93 C87 1.428 . S
C93 N92 1.351 . S
C93 C94 1.434 1_565 S
C94 C85 1.429 . S
C94 N91 1.350 . S
C94 C93 1.434 1_545 S
C95 C96 1.369 . S
C95 C97 1.419 . S
C95 H99 0.930 . S
C96 C95 1.369 . S
C96 C105 1.429 . S
C97 C95 1.419 . S
C97 C98 1.363 . S
C97 H100 0.929 . S
C98 C97 1.363 . S
C98 C104 1.428 . S
H99 C95 0.930 . S
H100 C97 0.929 . S
S101 N102 1.613 . S
S101 N103 1.610 . S
N102 S101 1.613 . S
N102 C105 1.350 . S
N103 S101 1.610 . S
N103 C104 1.351 . S
C104 C98 1.428 . S
C104 N103 1.351 . S
C104 C105 1.434 . S
C105 C96 1.429 . S
C105 N102 1.350 . S
C105 C104 1.434 . S
C106 C107 1.369 . S
C106 C108 1.419 1_655 S
C106 H110 0.930 . S
C107 C106 1.369 . S
C107 C116 1.429 . S
C108 C106 1.419 1_455 S
C108 C109 1.363 . S
C108 H111 0.929 . S
C109 C108 1.363 . S
C109 C115 1.428 . S
H110 C106 0.930 . S
H111 C108 0.929 . S
S112 N113 1.613 . S
S112 N114 1.610 1_655 S
N113 S112 1.613 . S
N113 C116 1.350 . S
N114 S112 1.610 1_455 S
N114 C115 1.351 . S
C115 C109 1.428 . S
C115 N114 1.351 . S
C115 C116 1.434 1_455 S
C116 C107 1.429 . S
C116 N113 1.350 . S
C116 C115 1.434 1_655 S
C117 C118 1.369 . S
C117 C119 1.419 1_455 S
C117 H121 0.930 . S
C118 C117 1.369 . S
C118 C127 1.429 . S
C119 C117 1.419 1_655 S
C119 C120 1.363 . S
C119 H122 0.929 . S
C120 C119 1.363 . S
C120 C126 1.428 . S
H121 C117 0.930 . S
H122 C119 0.929 . S
S123 N124 1.613 1_655 S
S123 N125 1.610 . S
N124 S123 1.613 1_455 S
N124 C127 1.350 . S
N125 S123 1.610 . S
N125 C126 1.351 . S
C126 C120 1.428 . S
C126 N125 1.351 . S
C126 C127 1.434 1_655 S
C127 C118 1.429 . S
C127 N124 1.350 . S
C127 C126 1.434 1_455 S
C128 C129 1.369 . S
C128 C130 1.419 1_565 S
C128 H132 0.930 . S
C129 C128 1.369 . S
C129 C138 1.429 . S
C130 C128 1.419 1_545 S
C130 C131 1.363 . S
C130 H133 0.929 . S
C131 C130 1.363 . S
C131 C137 1.428 . S
H132 C128 0.930 . S
H133 C130 0.929 . S
S134 N135 1.613 1_545 S
S134 N136 1.610 . S
N135 S134 1.613 1_565 S
N135 C138 1.350 . S
N136 S134 1.610 . S
N136 C137 1.351 . S
C137 C131 1.428 . S
C137 N136 1.351 . S
C137 C138 1.434 1_545 S
C138 C129 1.429 . S
C138 N135 1.350 . S
C138 C137 1.434 1_565 S
C139 C140 1.369 . S
C139 C141 1.419 . S
C139 H143 0.930 . S
C140 C139 1.369 . S
C140 C149 1.429 . S
C141 C139 1.419 . S
C141 C142 1.363 . S
C141 H144 0.929 . S
C142 C141 1.363 . S
C142 C148 1.428 . S
H143 C139 0.930 . S
H144 C141 0.929 . S
S145 N146 1.613 . S
S145 N147 1.610 . S
N146 S145 1.613 . S
N146 C149 1.350 . S
N147 S145 1.610 . S
N147 C148 1.351 . S
C148 C142 1.428 . S
C148 N147 1.351 . S
C148 C149 1.434 . S
C149 C140 1.429 . S
C149 N146 1.350 . S
C149 C148 1.434 . S
C150 C151 1.369 . S
C150 C152 1.419 1_556 S
C150 H154 0.930 . S
C151 C150 1.369 . S
C151 C160 1.429 . S
C152 C150 1.419 1_554 S
C152 C153 1.363 . S
C152 H155 0.929 . S
C153 C152 1.363 . S
C153 C159 1.428 . S
H154 C150 0.930 . S
H155 C152 0.929 . S
S156 N157 1.613 1_554 S
S156 N158 1.610 . S
N157 S156 1.613 1_556 S
N157 C160 1.350 . S
N158 S156 1.610 . S
N158 C159 1.351 . S
C159 C153 1.428 . S
C159 N158 1.351 . S
C159 C160 1.434 1_554 S
C160 C151 1.429 . S
C160 N157 1.350 . S
C160 C159 1.434 1_556 S
C161 C162 1.369 . S
C161 C163 1.419 . S
C161 H165 0.930 . S
C162 C161 1.369 . S
C162 C171 1.429 . S
C163 C161 1.419 . S
C163 C164 1.363 . S
C163 H166 0.929 . S
C164 C163 1.363 . S
C164 C170 1.428 . S
H165 C161 0.930 . S
H166 C163 0.929 . S
S167 N168 1.613 . S
S167 N169 1.610 . S
N168 S167 1.613 . S
N168 C171 1.350 . S
N169 S167 1.610 . S
N169 C170 1.351 . S
C170 C164 1.428 . S
C170 N169 1.351 . S
C170 C171 1.434 . S
C171 C162 1.429 . S
C171 N168 1.350 . S
C171 C170 1.434 . S
C172 C173 1.369 . S
C172 C174 1.419 . S
C172 H176 0.930 . S
C173 C172 1.369 . S
C173 C182 1.429 . S
C174 C172 1.419 . S
C174 C175 1.363 . S
C174 H177 0.929 . S
C175 C174 1.363 . S
C175 C181 1.428 . S
H176 C172 0.930 . S
H177 C174 0.929 . S
S178 N179 1.613 . S
S178 N180 1.610 . S
N179 S178 1.613 . S
N179 C182 1.350 . S
N180 S178 1.610 . S
N180 C181 1.351 . S
C181 C175 1.428 . S
C181 N180 1.351 . S
C181 C182 1.434 . S
C182 C173 1.429 . S
C182 N179 1.350 . S
C182 C181 1.434 . S
C183 C184 1.369 . S
C183 C185 1.419 1_556 S
C183 H187 0.930 . S
C184 C183 1.369 . S
C184 C193 1.429 . S
C185 C183 1.419 1_554 S
C185 C186 1.363 . S
C185 H188 0.929 . S
C186 C185 1.363 . S
C186 C192 1.428 . S
H187 C183 0.930 . S
H188 C185 0.929 . S
S189 N190 1.613 . S
S189 N191 1.610 1_556 S
N190 S189 1.613 . S
N190 C193 1.350 . S
N191 S189 1.610 1_554 S
N191 C192 1.351 . S
C192 C186 1.428 . S
C192 N191 1.351 . S
C192 C193 1.434 1_554 S
C193 C184 1.429 . S
C193 N190 1.350 . S
C193 C192 1.434 1_556 S
C194 C195 1.369 . S
C194 C196 1.419 . S
C194 H198 0.930 . S
C195 C194 1.369 . S
C195 C204 1.429 . S
C196 C194 1.419 . S
C196 C197 1.363 . S
C196 H199 0.929 . S
C197 C196 1.363 . S
C197 C203 1.428 . S
H198 C194 0.930 . S
H199 C196 0.929 . S
S200 N201 1.613 . S
S200 N202 1.610 . S
N201 S200 1.613 . S
N201 C204 1.350 . S
N202 S200 1.610 . S
N202 C203 1.351 . S
C203 C197 1.428 . S
C203 N202 1.351 . S
C203 C204 1.434 . S
C204 C195 1.429 . S
C204 N201 1.350 . S
C204 C203 1.434 . S
C205 C206 1.369 . S
C205 C207 1.419 . S
C205 H209 0.930 . S
C206 C205 1.369 . S
C206 C215 1.429 . S
C207 C205 1.419 . S
C207 C208 1.363 . S
C207 H210 0.929 . S
C208 C207 1.363 . S
C208 C214 1.428 . S
H209 C205 0.930 . S
H210 C207 0.929 . S
S211 N212 1.613 . S
S211 N213 1.610 . S
N212 S211 1.613 . S
N212 C215 1.350 . S
N213 S211 1.610 . S
N213 C214 1.351 . S
C214 C208 1.428 . S
C214 N213 1.351 . S
C214 C215 1.434 . S
C215 C206 1.429 . S
C215 N212 1.350 . S
C215 C214 1.434 . S
C85 C11 1.394 . S
C87 C53 1.395 . S
C96 C25 1.396 . S
C98 C67 1.395 . S
C107 C39 1.395 . S
C109 C81 1.395 . S
C118 C19 1.547 . S
C120 C61 1.545 . S
C129 C75 1.547 . S
C131 C33 1.545 . S
C140 C47 1.545 . S
C142 C5 1.547 . S
C151 C28 1.442 . S
C153 C9 1.375 . S
C162 C42 1.441 . S
C164 C23 1.383 . S
C173 C37 1.375 . S
C175 C56 1.445 . S
C184 C70 1.437 . S
C186 C51 1.381 . S
C195 C65 1.375 . S
C197 C0 1.445 . S
C206 C79 1.377 . S
C208 C14 1.444 . S
