# Generated by pormake.
# Topology pcu, (6)-cn, num edge types: 1
# Building blocks:
#     Node 0, Type 0, BuildingBlock: NUHQIS_clean_sbu_0, # of connection points: 6
#     Edge 1, Type (0, 0), BuildingBlock: MIFKUJ_clean_linker_0, # of connection points: 2
#     Edge 2, Type (0, 0), BuildingBlock: MIFKUJ_clean_linker_0, # of connection points: 2
#     Edge 3, Type (0, 0), BuildingBlock: MIFKUJ_clean_linker_0, # of connection points: 2
# Relax obj value: 0.000
# Max RMSD: 0.000
# Mean RMSD: 0.000
data_MOF--net-pcu--node1-NUHQIS_clean_sbu_0--edge1-MIFKUJ_clean_linker_0
_symmetry_space_group_name_H-M    P1
_symmetry_Int_Tables_number       1
_symmetry_cell_setting            triclinic
loop_
_symmetry_equiv_pos_as_xyz
'x, y, z'
_cell_length_a     30.056809
_cell_length_b     19.652194
_cell_length_c     19.683999
_cell_angle_alpha  91.477812
_cell_angle_beta   97.517809
_cell_angle_gamma 124.13863
loop_
_atom_site_label
_atom_site_type_symbol
_atom_site_fract_x
_atom_site_fract_y
_atom_site_fract_z
_atom_type_partial_charge
Tb0 Tb 0.95809 0.95008 0.96567 0.0
Eu1 Eu 0.09348 0.05263 -0.00476 0.0
C2 C 1.0234 0.00085 0.84518 0.0
C3 C 1.01548 0.85595 0.97114 0.0
C4 C 0.81531 0.89492 0.95377 0.0
C5 C 0.72667 0.87051 0.91613 0.0
C6 C 0.76548 0.85425 0.9079 0.0
C7 C 0.82593 0.95243 0.00829 0.0
C8 C 0.78685 0.96833 0.01689 0.0
C9 C 0.7368 0.92785 0.97064 0.0
C10 C 0.85541 0.87666 0.94289 0.0
O11 O 0.98699 0.00367 0.07323 0.0
O12 O 0.06049 0.99591 0.09001 0.0
O13 O 0.07645 0.14717 0.02057 0.0
O14 O 0.99003 0.07881 0.95528 0.0
C15 C 1.02295 -0.00113 0.11437 0.0
O16 O 0.17074 0.10554 0.0666 0.0
O17 O 0.17049 0.11274 0.95713 0.0
O18 O 0.06557 0.06339 0.88695 0.0
O19 O 0.98286 0.9384 0.86949 0.0
O20 O 0.97526 0.85808 0.98787 0.0
O21 O 0.05996 0.92177 0.95674 0.0
C22 C 0.03454 0.14615 0.98972 0.0
O23 O 0.8868 0.91752 0.89861 0.0
O24 O 0.88255 0.87164 -0.00241 0.0
C25 C 0.23687 0.09801 0.01974 0.0
C26 C 0.31257 0.05552 0.02047 0.0
C27 C 0.32472 0.123 0.06521 0.0
C28 C 0.2873 0.14416 0.06462 0.0
C29 C 0.2238 0.02893 0.97648 0.0
C30 C 0.26143 0.0082 0.97656 0.0
C31 C 0.1993 0.12423 0.01723 0.0
H32 H 0.68832 0.83717 0.88021 0.0
H33 H 0.75651 0.80966 0.86553 0.0
H34 H 0.86437 0.98505 0.04405 0.0
H35 H 0.79612 0.01313 0.05916 0.0
H36 H 0.36388 0.16101 0.09926 0.0
H37 H 0.29814 0.19754 0.09848 0.0
H38 H 0.18482 0.99168 0.94193 0.0
H39 H 0.25054 0.95513 0.94227 0.0
H40 H 0.96004 0.02327 0.18636 0.0
H41 H 0.95898 0.02216 0.31043 0.0
H42 H 0.08106 0.96942 0.33534 0.0
H43 H 0.08237 0.97018 0.21154 0.0
H44 H 0.99895 0.87333 0.40721 0.0
H45 H 0.11864 0.16036 0.3784 0.0
H46 H 0.14471 0.28885 0.32814 0.0
H47 H 1.01543 0.28433 0.40355 0.0
H48 H 0.98806 0.15501 0.4534 0.0
H49 H 0.10472 0.11018 0.77756 0.0
H50 H 0.10328 0.10798 0.65324 0.0
H51 H 0.93775 0.88984 0.6176 0.0
H52 H 0.93919 0.89054 0.74208 0.0
H53 H 0.04341 0.12195 0.55093 0.0
H54 H 0.91834 0.76801 0.47522 0.0
H55 H 0.89952 0.64312 0.52667 0.0
H56 H 0.05411 0.78898 0.66352 0.0
H57 H 0.07415 0.91447 0.61224 0.0
C58 C 0.98659 0.01126 0.21819 0.0
C59 C 1.0215 -0.00279 0.18913 0.0
C60 C 0.986 0.01083 0.28906 0.0
C61 C 1.02019 0.99621 0.33202 0.0
C62 C 0.05434 0.98076 0.30301 0.0
C63 C 0.05521 0.98165 0.23229 0.0
C64 C 1.0211 -0.00171 0.40747 0.0
C65 C 1.00848 0.92753 0.43867 0.0
C66 C 0.03438 0.06952 0.4485 0.0
C67 C 0.05095 0.14754 0.41899 0.0
C68 C 0.09549 0.18639 0.38378 0.0
C69 C 0.11055 0.25943 0.35544 0.0
C70 C 0.08165 0.2946 0.36247 0.0
C71 C 0.03772 0.25693 0.39804 0.0
C72 C 1.02244 0.18379 0.42639 0.0
C73 C 0.06796 0.06165 0.74336 0.0
C74 C 1.02216 0.00021 0.76978 0.0
C75 C 0.06717 0.06068 0.67225 0.0
C76 C 1.02062 -0.00165 0.62614 0.0
C77 C 0.97445 0.93777 0.65228 0.0
C78 C 0.97531 0.93838 0.72346 0.0
C79 C 1.02075 0.99663 0.55079 0.0
C80 C 0.03352 0.06748 0.51952 0.0
C81 C 1.0086 0.92598 0.50991 0.0
C82 C 0.99745 0.85071 0.54033 0.0
C83 C 0.9484 0.77333 0.51608 0.0
C84 C 0.93751 0.70246 0.54525 0.0
C85 C 0.97552 0.70816 0.59848 0.0
C86 C 1.02462 0.7847 0.62245 0.0
C87 C 0.03573 0.85572 0.59341 0.0
H88 H 0.96698 0.65325 0.62105 0.0
H89 H 0.09337 0.35115 0.3405 0.0
H90 H 0.37677 0.04893 0.12893 0.0
H91 H 0.44784 0.02463 0.12426 0.0
H92 H 0.41376 -0.00284 0.90167 0.0
H93 H 0.3419 0.01952 0.9062 0.0
H94 H 0.43024 0.88662 0.94054 0.0
H95 H 0.52594 0.18016 0.00242 0.0
H96 H 0.55085 0.30655 0.07216 0.0
H97 H 0.60723 0.2363 0.25064 0.0
H98 H 0.58199 0.10889 0.18213 0.0
H99 H 0.67341 0.94556 0.86946 0.0
H100 H 0.60151 0.96545 0.88184 0.0
H101 H 0.63387 0.96962 0.10243 0.0
H102 H 0.70582 0.94911 0.09041 0.0
H103 H 0.61805 0.0889 0.06897 0.0
H104 H 0.52489 0.79694 0.00354 0.0
H105 H 0.5012 0.67277 0.93147 0.0
H106 H 0.44116 0.74309 0.75657 0.0
H107 H 0.46521 0.86835 0.82738 0.0
C108 C 0.38452 0.03776 0.07903 0.0
C109 C 0.35395 0.03669 0.01794 0.0
C110 C 0.42526 0.02407 0.07637 0.0
C111 C 0.43709 0.01063 0.01259 0.0
C112 C 0.40562 0.00751 0.95155 0.0
C113 C 0.36445 0.02019 0.95418 0.0
C114 C 0.48241 0.00048 0.00914 0.0
C115 C 0.47141 0.93147 0.96803 0.0
C116 C 0.53607 0.05782 0.04616 0.0
C117 C 0.55157 0.13461 0.08732 0.0
C118 C 0.54331 0.1914 0.05665 0.0
C119 C 0.55753 0.26326 0.09594 0.0
C120 C 0.58047 0.27934 0.16583 0.0
C121 C 0.58939 0.22371 0.19652 0.0
C122 C 0.57517 0.1517 0.15748 0.0
C123 C 0.66504 0.95008 0.92063 0.0
C124 C 0.69501 0.94461 0.97886 0.0
C125 C 0.62395 0.96166 0.92764 0.0
C126 C 0.61156 0.96759 0.99296 0.0
C127 C 0.64254 0.96491 0.05147 0.0
C128 C 0.68378 0.95341 0.04451 0.0
C129 C 0.56586 0.97559 -0.0001 0.0
C130 C 0.5768 0.04404 0.04169 0.0
C131 C 0.51222 0.91807 0.96317 0.0
C132 C 0.49729 0.84239 0.92064 0.0
C133 C 0.50698 0.78622 0.9496 0.0
C134 C 0.49344 0.7156 0.90899 0.0
C135 C 0.4698 0.70014 0.83945 0.0
C136 C 0.45952 0.75518 0.81043 0.0
C137 C 0.47305 0.82595 0.85079 0.0
H138 H 0.45936 0.64545 0.80809 0.0
H139 H 0.59145 0.335 0.19616 0.0
H140 H 0.95598 0.72848 0.04522 0.0
H141 H 0.96084 0.60941 0.05977 0.0
H142 H 0.07348 0.69085 0.91635 0.0
H143 H 0.07054 0.81149 0.90396 0.0
H144 H 0.93592 0.48307 0.98198 0.0
H145 H 0.16554 0.64848 0.95783 0.0
H146 H 0.2513 0.78821 0.98592 0.0
H147 H 0.18647 0.84728 0.14139 0.0
H148 H 0.1007 0.70771 0.11501 0.0
H149 H 0.98198 0.18662 0.89485 0.0
H150 H 0.9804 0.3091 0.90138 0.0
H151 H 0.08831 0.39986 0.09873 0.0
H152 H 0.09187 0.2782 0.09088 0.0
H153 H 0.11593 0.52288 0.02843 0.0
H154 H 0.94865 0.30701 0.08664 0.0
H155 H 0.86228 0.16887 0.07596 0.0
H156 H 0.80191 0.21283 0.88411 0.0
H157 H 0.88826 0.35105 0.89322 0.0
C158 C 0.98141 0.72048 0.01644 0.0
C159 C 1.01317 0.77933 0.97386 0.0
C160 C 0.98427 0.65264 0.02491 0.0
C161 C 1.01849 0.64227 0.99038 0.0
C162 C 0.04809 0.69893 0.94516 0.0
C163 C 0.04603 0.76744 0.93766 0.0
C164 C 1.0232 0.57212 0.00117 0.0
C165 C 0.97526 0.4918 0.99244 0.0
C166 C 0.07458 0.5838 0.01721 0.0
C167 C 0.12648 0.66765 0.03405 0.0
C168 C 0.16968 0.69109 -0.00173 0.0
C169 C 0.21828 0.77032 0.01385 0.0
C170 C 0.22428 0.82651 0.06538 0.0
C171 C 0.18172 0.8037 0.10142 0.0
C172 C 0.13309 0.72458 0.08612 0.0
C173 C 1.00555 0.23282 0.93954 0.0
C174 C 0.03671 0.22282 0.99267 0.0
C175 C 1.00438 0.30256 0.94341 0.0
C176 C 0.03306 0.36256 0.0014 0.0
C177 C 0.06557 0.354 0.05372 0.0
C178 C 0.06762 0.28469 0.04921 0.0
C179 C 0.02863 0.43378 0.00679 0.0
C180 C 0.07661 0.51427 0.01864 0.0
C181 C 0.97724 0.42248 -0.00368 0.0
C182 C 0.92513 0.33929 0.99046 0.0
C183 C 0.91712 0.28704 0.04193 0.0
C184 C 0.86812 0.2087 0.03617 0.0
C185 C 0.82664 0.182 0.97931 0.0
C186 C 0.83408 0.23362 0.92812 0.0
C187 C 0.88302 0.31204 0.93362 0.0
H188 H 0.78869 0.12148 0.975 0.0
H189 H 0.26196 0.88763 0.07756 0.0
loop_
_geom_bond_atom_site_label_1
_geom_bond_atom_site_label_2
_geom_bond_distance
_geom_bond_site_symmetry_2
_ccdc_geom_bond_type
Tb0 C10 2.825 . S
Tb0 O11 2.347 1_556 S
Tb0 O14 2.366 1_565 S
Tb0 O19 2.418 . S
Tb0 O20 2.384 . S
Tb0 O23 2.479 . S
Tb0 O24 2.471 1_556 S
Eu1 O12 2.418 . S
Eu1 O13 2.384 . S
Eu1 O16 2.479 . S
Eu1 O17 2.471 1_554 S
Eu1 O18 2.347 1_554 S
Eu1 O21 2.366 1_545 S
Eu1 C31 2.825 . S
C2 O18 1.259 1_665 S
C2 O19 1.265 . S
C3 O20 1.255 1_554 S
C3 O21 1.265 1_655 S
C4 C6 1.380 . S
C4 C7 1.374 1_566 S
C4 C10 1.507 . S
C5 C6 1.384 . S
C5 C9 1.387 . S
C5 H32 0.930 . S
C6 C4 1.380 . S
C6 C5 1.384 . S
C6 H33 0.931 . S
C7 C4 1.374 1_544 S
C7 C8 1.390 . S
C7 H34 0.930 . S
C8 C7 1.390 . S
C8 C9 1.391 1_544 S
C8 H35 0.930 . S
C9 C5 1.387 . S
C9 C8 1.391 1_566 S
C10 Tb0 2.825 . S
C10 C4 1.507 . S
C10 O23 1.238 . S
C10 O24 1.247 1_556 S
O11 Tb0 2.347 1_554 S
O11 C15 1.259 1_665 S
O12 Eu1 2.418 . S
O12 C15 1.265 . S
O13 Eu1 2.384 . S
O13 C22 1.255 . S
O14 Tb0 2.366 1_545 S
O14 C22 1.265 1_656 S
C15 O11 1.259 1_445 S
C15 O12 1.265 . S
O16 Eu1 2.479 . S
O16 C31 1.238 . S
O17 Eu1 2.471 1_556 S
O17 C31 1.247 1_556 S
O18 Eu1 2.347 1_556 S
O18 C2 1.259 1_445 S
O19 Tb0 2.418 . S
O19 C2 1.265 . S
O20 Tb0 2.384 . S
O20 C3 1.255 1_556 S
O21 Eu1 2.366 1_565 S
O21 C3 1.265 1_455 S
C22 O13 1.255 . S
C22 O14 1.265 1_454 S
O23 Tb0 2.479 . S
O23 C10 1.238 . S
O24 Tb0 2.471 1_554 S
O24 C10 1.247 1_554 S
C25 C28 1.380 . S
C25 C29 1.374 1_544 S
C25 C31 1.507 . S
C26 C27 1.387 . S
C26 C30 1.391 1_544 S
C27 C26 1.387 . S
C27 C28 1.384 . S
C27 H36 0.930 . S
C28 C25 1.380 . S
C28 C27 1.384 . S
C28 H37 0.931 . S
C29 C25 1.374 1_566 S
C29 C30 1.390 . S
C29 H38 0.930 . S
C30 C26 1.391 1_566 S
C30 C29 1.390 . S
C30 H39 0.930 . S
C31 Eu1 2.825 . S
C31 O16 1.238 . S
C31 O17 1.247 1_554 S
C31 C25 1.507 . S
H32 C5 0.930 . S
H33 C6 0.931 . S
H34 C7 0.930 . S
H35 C8 0.930 . S
H36 C27 0.930 . S
H37 C28 0.931 . S
H38 C29 0.930 . S
H39 C30 0.930 . S
H40 C58 0.951 . S
H41 C60 0.951 . S
H42 C62 0.950 . S
H43 C63 0.950 . S
H44 C65 0.950 . S
H45 C68 0.950 . S
H46 C69 0.950 . S
H47 C71 0.950 . S
H48 C72 0.950 . S
H49 C73 0.951 . S
H50 C75 0.951 . S
H51 C77 0.950 . S
H52 C78 0.950 . S
H53 C80 0.950 . S
H54 C83 0.950 . S
H55 C84 0.950 . S
H56 C86 0.950 . S
H57 C87 0.950 . S
C58 H40 0.951 . S
C58 C59 1.369 1_645 S
C58 C60 1.388 . S
C59 C58 1.369 1_465 S
C59 C63 1.382 . S
C60 H41 0.951 . S
C60 C58 1.388 . S
C60 C61 1.366 1_655 S
C61 C60 1.366 1_455 S
C61 C62 1.414 1_545 S
C61 C64 1.499 . S
C62 H42 0.950 . S
C62 C61 1.414 1_565 S
C62 C63 1.374 . S
C63 H43 0.950 . S
C63 C59 1.382 . S
C63 C62 1.374 . S
C64 C61 1.499 . S
C64 C65 1.373 1_445 S
C64 C66 1.389 . S
C65 H44 0.950 . S
C65 C64 1.373 1_665 S
C65 C81 1.377 . S
C66 C64 1.389 . S
C66 C67 1.524 . S
C66 C80 1.377 . S
C67 C66 1.524 . S
C67 C68 1.397 . S
C67 C72 1.363 . S
C68 H45 0.950 . S
C68 C67 1.397 . S
C68 C69 1.334 . S
C69 H46 0.950 . S
C69 C68 1.334 . S
C69 C70 1.287 . S
C70 C69 1.287 . S
C70 C71 1.524 . S
C70 H89 0.913 . S
C71 H47 0.950 . S
C71 C70 1.524 . S
C71 C72 1.415 . S
C72 H48 0.950 . S
C72 C67 1.363 . S
C72 C71 1.415 . S
C73 H49 0.951 . S
C73 C74 1.365 1_565 S
C73 C75 1.388 . S
C74 C73 1.365 1_545 S
C74 C78 1.385 1_455 S
C75 H50 0.951 . S
C75 C73 1.388 . S
C75 C76 1.366 1_455 S
C76 C75 1.366 1_655 S
C76 C77 1.414 1_565 S
C76 C79 1.499 . S
C77 H51 0.950 . S
C77 C76 1.414 1_545 S
C77 C78 1.374 . S
C78 H52 0.950 . S
C78 C74 1.385 1_655 S
C78 C77 1.374 . S
C79 C76 1.499 . S
C79 C80 1.373 1_665 S
C79 C81 1.389 . S
C80 H53 0.950 . S
C80 C66 1.377 . S
C80 C79 1.373 1_445 S
C81 C65 1.377 . S
C81 C79 1.389 . S
C81 C82 1.524 . S
C82 C81 1.524 . S
C82 C83 1.397 . S
C82 C87 1.363 . S
C83 H54 0.950 . S
C83 C82 1.397 . S
C83 C84 1.334 . S
C84 H55 0.950 . S
C84 C83 1.334 . S
C84 C85 1.287 . S
C85 C84 1.287 . S
C85 C86 1.524 . S
C85 H88 0.999 . S
C86 H56 0.950 . S
C86 C85 1.524 . S
C86 C87 1.415 . S
C87 H57 0.950 . S
C87 C82 1.363 . S
C87 C86 1.415 . S
H88 C85 0.999 . S
H89 C70 0.913 . S
H90 C108 0.951 . S
H91 C110 0.951 . S
H92 C112 0.950 . S
H93 C113 0.950 . S
H94 C115 0.950 . S
H95 C118 0.950 1_556 S
H96 C119 0.950 . S
H97 C121 0.950 . S
H98 C122 0.950 . S
H99 C123 0.951 . S
H100 C125 0.951 . S
H101 C127 0.950 . S
H102 C128 0.950 . S
H103 C130 0.950 . S
H104 C133 0.950 1_554 S
H105 C134 0.950 . S
H106 C136 0.950 . S
H107 C137 0.950 . S
C108 H90 0.951 . S
C108 C109 1.365 1_545 S
C108 C110 1.388 . S
C109 C108 1.365 1_565 S
C109 C113 1.385 1_554 S
C110 H91 0.951 . S
C110 C108 1.388 . S
C110 C111 1.362 1_554 S
C111 C110 1.362 1_556 S
C111 C112 1.417 1_545 S
C111 C114 1.499 . S
C112 H92 0.950 . S
C112 C111 1.417 1_565 S
C112 C113 1.374 . S
C113 H93 0.950 . S
C113 C109 1.385 1_556 S
C113 C112 1.374 . S
C114 C111 1.499 . S
C114 C115 1.373 1_545 S
C114 C116 1.389 1_556 S
C115 H94 0.950 . S
C115 C114 1.373 1_565 S
C115 C131 1.377 . S
C116 C114 1.389 1_554 S
C116 C117 1.524 . S
C116 C130 1.377 . S
C117 C116 1.524 . S
C117 C118 1.397 . S
C117 C122 1.363 . S
C118 H95 0.950 1_554 S
C118 C117 1.397 . S
C118 C119 1.334 . S
C119 H96 0.950 . S
C119 C118 1.334 . S
C119 C120 1.287 . S
C120 C119 1.287 . S
C120 C121 1.524 . S
C120 H139 0.913 . S
C121 H97 0.950 . S
C121 C120 1.524 . S
C121 C122 1.415 . S
C122 H98 0.950 . S
C122 C117 1.363 . S
C122 C121 1.415 . S
C123 H99 0.951 . S
C123 C124 1.366 1_566 S
C123 C125 1.388 . S
C124 C123 1.366 1_544 S
C124 C128 1.386 . S
C125 H100 0.951 . S
C125 C123 1.388 . S
C125 C126 1.358 1_556 S
C126 C125 1.358 1_554 S
C126 C127 1.420 1_565 S
C126 C129 1.500 . S
C127 H101 0.950 . S
C127 C126 1.420 1_545 S
C127 C128 1.374 . S
C128 H102 0.950 . S
C128 C124 1.386 . S
C128 C127 1.374 . S
C129 C126 1.500 . S
C129 C130 1.373 1_565 S
C129 C131 1.389 1_554 S
C130 H103 0.950 . S
C130 C116 1.377 . S
C130 C129 1.373 1_545 S
C131 C115 1.377 . S
C131 C129 1.389 1_556 S
C131 C132 1.524 . S
C132 C131 1.524 . S
C132 C133 1.397 . S
C132 C137 1.363 . S
C133 H104 0.950 1_556 S
C133 C132 1.397 . S
C133 C134 1.334 . S
C134 H105 0.950 . S
C134 C133 1.334 . S
C134 C135 1.287 . S
C135 C134 1.287 . S
C135 C136 1.524 . S
C135 H138 0.999 . S
C136 H106 0.950 . S
C136 C135 1.524 . S
C136 C137 1.415 . S
C137 H107 0.950 . S
C137 C132 1.363 . S
C137 C136 1.415 . S
H138 C135 0.999 . S
H139 C120 0.913 . S
H140 C158 0.951 . S
H141 C160 0.951 . S
H142 C162 0.950 . S
H143 C163 0.950 . S
H144 C165 0.950 . S
H145 C168 0.950 . S
H146 C169 0.950 . S
H147 C171 0.950 . S
H148 C172 0.950 . S
H149 C173 0.951 . S
H150 C175 0.951 . S
H151 C177 0.950 . S
H152 C178 0.950 . S
H153 C180 0.950 . S
H154 C183 0.950 . S
H155 C184 0.950 . S
H156 C186 0.950 . S
H157 C187 0.950 . S
C158 H140 0.951 . S
C158 C159 1.364 . S
C158 C160 1.388 . S
C159 C158 1.364 . S
C159 C163 1.384 1_454 S
C160 H141 0.951 . S
C160 C158 1.388 . S
C160 C161 1.366 . S
C161 C160 1.366 . S
C161 C162 1.413 1_454 S
C161 C164 1.499 1_554 S
C162 H142 0.950 . S
C162 C161 1.413 1_656 S
C162 C163 1.374 . S
C163 H143 0.950 . S
C163 C159 1.384 1_656 S
C163 C162 1.374 . S
C164 C161 1.499 1_556 S
C164 C165 1.373 1_455 S
C164 C166 1.389 1_556 S
C165 H144 0.950 . S
C165 C164 1.373 1_655 S
C165 C181 1.377 . S
C166 C164 1.389 1_554 S
C166 C167 1.524 . S
C166 C180 1.377 . S
C167 C166 1.524 . S
C167 C168 1.397 . S
C167 C172 1.363 . S
C168 H145 0.950 . S
C168 C167 1.397 . S
C168 C169 1.334 . S
C169 H146 0.950 . S
C169 C168 1.334 . S
C169 C170 1.287 . S
C170 C169 1.287 . S
C170 C171 1.524 . S
C170 H189 0.913 . S
C171 H147 0.950 . S
C171 C170 1.524 . S
C171 C172 1.415 . S
C172 H148 0.950 . S
C172 C167 1.363 . S
C172 C171 1.415 . S
C173 H149 0.951 . S
C173 C174 1.364 1_656 S
C173 C175 1.388 . S
C174 C173 1.364 1_454 S
C174 C178 1.384 . S
C175 H150 0.951 . S
C175 C173 1.388 . S
C175 C176 1.366 1_556 S
C176 C175 1.366 1_554 S
C176 C177 1.413 1_655 S
C176 C179 1.499 . S
C177 H151 0.950 . S
C177 C176 1.413 1_455 S
C177 C178 1.374 . S
C178 H152 0.950 . S
C178 C174 1.384 . S
C178 C177 1.374 . S
C179 C176 1.499 . S
C179 C180 1.373 1_655 S
C179 C181 1.389 1_554 S
C180 H153 0.950 . S
C180 C166 1.377 . S
C180 C179 1.373 1_455 S
C181 C165 1.377 . S
C181 C179 1.389 1_556 S
C181 C182 1.524 . S
C182 C181 1.524 . S
C182 C183 1.397 . S
C182 C187 1.363 . S
C183 H154 0.950 . S
C183 C182 1.397 . S
C183 C184 1.334 . S
C184 H155 0.950 . S
C184 C183 1.334 . S
C184 C185 1.287 . S
C185 C184 1.287 . S
C185 C186 1.524 . S
C185 H188 0.999 . S
C186 H156 0.950 . S
C186 C185 1.524 . S
C186 C187 1.415 . S
C187 H157 0.950 . S
C187 C182 1.363 . S
C187 C186 1.415 . S
H188 C185 0.999 . S
H189 C170 0.913 . S
C59 C15 1.469 1_565 S
C74 C2 1.469 1_445 S
C109 C26 1.495 1_565 S
C124 C9 1.492 1_544 S
C159 C3 1.501 1_455 S
C174 C22 1.501 . S
