# Generated by pormake.
# Topology pcu, (6)-cn, num edge types: 1
# Building blocks:
#     Node 0, Type 0, BuildingBlock: BETDIP_clean_sbu_0, # of connection points: 6
#     Edge 1, Type (0, 0), BuildingBlock: MIFKUJ_clean_linker_0, # of connection points: 2
#     Edge 2, Type (0, 0), BuildingBlock: MIFKUJ_clean_linker_0, # of connection points: 2
#     Edge 3, Type (0, 0), BuildingBlock: MIFKUJ_clean_linker_0, # of connection points: 2
# Relax obj value: 0.000
# Max RMSD: 0.000
# Mean RMSD: 0.000
data_MOF--net-pcu--node1-BETDIP_clean_sbu_0--edge1-MIFKUJ_clean_linker_0
_symmetry_space_group_name_H-M    P1
_symmetry_Int_Tables_number       1
_symmetry_cell_setting            triclinic
loop_
_symmetry_equiv_pos_as_xyz
'x, y, z'
_cell_length_a     29.667515
_cell_length_b     19.873317
_cell_length_c     18.775825
_cell_angle_alpha  91.499151
_cell_angle_beta   95.723569
_cell_angle_gamma 124.23095
loop_
_atom_site_label
_atom_site_type_symbol
_atom_site_fract_x
_atom_site_fract_y
_atom_site_fract_z
_atom_type_partial_charge
Tb0 Tb 0.96555 0.93375 0.0198 0.0
Tb1 Tb 0.0857 0.03381 1.00496 0.0
C2 C 0.87317 0.88063 0.05895 0.0
C3 C 0.83213 0.9012 0.05233 0.0
C4 C 0.81294 0.9113 0.11434 0.0
C5 C 0.77209 0.92651 0.10934 0.0
C6 C 0.74909 0.93146 0.042 0.0
C7 C 0.76912 0.92267 0.97996 0.0
C8 C 0.81023 0.90791 0.98506 0.0
C9 C 0.98782 0.94155 0.88624 0.0
C10 C 0.03043 0.12678 1.00928 0.0
C11 C 0.17823 0.0871 0.96623 0.0
C12 C 0.21922 0.06643 0.97281 0.0
C13 C 0.23835 0.05626 0.91077 0.0
C14 C 0.27918 0.04098 0.91573 0.0
C15 C 0.3022 0.03603 0.98306 0.0
C16 C 0.28222 0.0449 0.04512 0.0
C17 C 0.24114 0.05973 0.04007 0.0
C18 C 0.0631 0.02583 0.13847 0.0
C19 C 1.0208 0.84077 0.01525 0.0
O20 O 0.92008 0.9327 0.09948 0.0
O21 O 0.87969 0.85201 1.00018 0.0
O22 O 1.01295 -0.00123 0.93621 0.0
O23 O 0.94566 0.87886 0.90867 0.0
O24 O 0.98845 0.06001 0.03128 0.0
O25 O 0.07054 0.12682 0.98422 0.0
O26 O 0.13141 0.03533 0.92541 0.0
O27 O 0.17156 0.11538 0.02508 0.0
O28 O 0.03833 0.96877 0.0884 0.0
O29 O 0.10525 0.08868 0.11615 0.0
O30 O 0.06277 0.90755 0.99325 0.0
O31 O 0.98073 0.84073 0.04042 0.0
H32 H 0.82925 0.90664 0.16684 0.0
H33 H 0.75858 0.93446 0.15844 0.0
H34 H 0.75213 0.92514 0.92711 0.0
H35 H 0.8242 0.90055 0.93615 0.0
H36 H 0.22203 0.06091 0.85828 0.0
H37 H 0.29265 0.03297 0.86662 0.0
H38 H 0.29924 0.04244 0.09797 0.0
H39 H 0.22723 0.06715 0.08899 0.0
H40 H 0.11633 0.14449 0.25099 0.0
H41 H 0.1031 0.13008 0.37766 0.0
H42 H 0.97517 0.87339 0.32448 0.0
H43 H 0.98758 0.88809 0.19727 0.0
H44 H 0.94583 0.93907 0.41912 0.0
H45 H 0.1069 0.94112 0.4011 0.0
H46 H 0.19945 -0.00454 0.36945 0.0
H47 H 0.26657 0.21401 0.51026 0.0
H48 H 0.17425 0.16144 0.54201 0.0
H49 H 0.93427 0.82267 0.77387 0.0
H50 H 0.94737 0.83673 0.64714 0.0
H51 H 0.07564 0.09335 0.69989 0.0
H52 H 0.06339 0.07898 0.82715 0.0
H53 H 0.10476 0.02748 0.60541 0.0
H54 H 0.94372 0.02558 0.62333 0.0
H55 H 0.85118 0.97134 0.65495 0.0
H56 H 0.78401 0.75263 0.51435 0.0
H57 H 0.87632 0.80511 0.48262 0.0
C58 C 0.08528 0.08504 0.26633 0.0
C59 C 0.05326 0.01728 0.21443 0.0
C60 C 0.07792 0.07675 0.33881 0.0
C61 C 0.03881 0.00028 0.36103 0.0
C62 C 1.00578 0.93292 0.30883 0.0
C63 C 1.01295 0.94131 0.23619 0.0
C64 C 0.0326 -0.00942 0.43866 0.0
C65 C 0.98046 0.95737 0.45969 0.0
C66 C 0.07796 0.01614 0.49207 0.0
C67 C 0.13357 0.04765 0.47341 0.0
C68 C 0.14133 0.00101 0.42492 0.0
C69 C 0.19376 0.03146 0.40703 0.0
C70 C 0.23884 0.10822 0.43769 0.0
C71 C 0.23161 0.1546 0.48648 0.0
C72 C 0.17925 0.12448 0.5045 0.0
C73 C 0.96536 0.88202 0.75842 0.0
C74 C 0.99754 0.94986 0.81022 0.0
C75 C 0.97265 0.89011 0.6859 0.0
C76 C 1.01182 0.96646 0.66354 0.0
C77 C 0.04498 0.0339 0.71565 0.0
C78 C 0.0379 0.0257 0.78832 0.0
C79 C 1.01799 0.976 0.58589 0.0
C80 C 0.07013 0.00917 0.56484 0.0
C81 C 0.97263 0.95041 0.53247 0.0
C82 C 0.91703 0.91896 0.55112 0.0
C83 C 0.90928 0.96567 0.59954 0.0
C84 C 0.85686 0.93529 0.61743 0.0
C85 C 0.81177 0.85851 0.58682 0.0
C86 C 0.81898 0.81205 0.53809 0.0
C87 C 0.87134 0.84211 0.52008 0.0
H88 H 0.77121 0.83508 0.60074 0.0
H89 H 0.2794 0.13169 0.42375 0.0
H90 H 0.38851 0.09986 0.90432 0.0
H91 H 0.46295 0.08019 0.91376 0.0
H92 H 0.39504 0.92676 0.08498 0.0
H93 H 0.31956 0.94454 0.07492 0.0
H94 H 0.50631 0.03796 0.11707 0.0
H95 H 0.38055 0.84228 0.91989 0.0
H96 H 0.32067 0.79411 0.80314 0.0
H97 H 0.45999 0.95762 0.69751 0.0
H98 H 0.52063 0.00767 0.81388 0.0
H99 H 0.66273 0.86753 0.12067 0.0
H100 H 0.58827 0.88715 0.11119 0.0
H101 H 0.65621 0.04067 0.94004 0.0
H102 H 0.73171 0.02294 0.95013 0.0
H103 H 0.54492 0.92942 0.90791 0.0
H104 H 0.67068 0.1251 0.1051 0.0
H105 H 0.73056 0.17327 0.22185 0.0
H106 H 0.59125 0.00974 0.32747 0.0
H107 H 0.5306 0.95969 0.2111 0.0
C108 C 0.38876 0.06087 0.94333 0.0
C109 C 0.3476 0.0235 0.9886 0.0
C110 C 0.43162 0.05 0.94886 0.0
C111 C 0.43445 0.00147 0.99971 0.0
C112 C 0.39382 0.96463 0.04543 0.0
C113 C 0.35075 0.97516 0.03974 0.0
C114 C 0.48008 -0.01011 1.00555 0.0
C115 C 0.51426 0.01312 0.0716 0.0
C116 C 0.49136 0.95934 0.94581 0.0
C117 C 0.45504 0.92933 0.87573 0.0
C118 C 0.39835 0.86849 0.87186 0.0
C119 C 0.36428 0.84075 0.80574 0.0
C120 C 0.38648 0.87295 0.74297 0.0
C121 C 0.44284 0.93283 0.74619 0.0
C122 C 0.47709 0.96086 0.81222 0.0
C123 C 0.66249 0.90653 0.08166 0.0
C124 C 0.70367 0.94395 0.03643 0.0
C125 C 0.61961 0.91737 0.07612 0.0
C126 C 0.61679 0.96591 0.02527 0.0
C127 C 0.65743 0.00279 0.97958 0.0
C128 C 0.70051 -0.00771 0.98529 0.0
C129 C 0.57116 0.97749 0.01943 0.0
C130 C 0.53698 0.95425 0.95338 0.0
C131 C 0.55987 0.00804 0.07917 0.0
C132 C 0.59619 0.03804 0.14926 0.0
C133 C 0.65288 0.09888 0.15312 0.0
C134 C 0.68695 0.12663 0.21925 0.0
C135 C 0.66475 0.09442 0.28201 0.0
C136 C 0.6084 0.03454 0.27879 0.0
C137 C 0.57415 0.0065 0.21277 0.0
H138 H 0.69119 0.11601 0.33317 0.0
H139 H 0.36004 0.85136 0.69182 0.0
H140 H 0.08516 0.8102 0.94669 0.0
H141 H 0.08548 0.6876 0.94557 0.0
H142 H 0.95742 0.58084 0.08153 0.0
H143 H 0.95653 0.70343 0.08275 0.0
H144 H 0.04528 0.56721 0.12634 0.0
H145 H 0.92255 0.51326 0.91315 0.0
H146 H 0.89331 0.54288 0.79754 0.0
H147 H 0.02615 0.55916 0.70725 0.0
H148 H 0.05674 0.53089 0.82278 0.0
H149 H 0.96603 0.15736 0.07771 0.0
H150 H 0.96572 0.27997 0.07875 0.0
H151 H 0.09384 0.38667 0.94288 0.0
H152 H 0.09472 0.26408 0.94174 0.0
H153 H 1.00598 0.40036 0.898 0.0
H154 H 0.1287 0.45429 0.11119 0.0
H155 H 0.15795 0.42467 0.22679 0.0
H156 H 1.02512 0.40842 0.3171 0.0
H157 H 0.99452 0.43669 0.20157 0.0
C158 C 0.05702 0.76072 0.97641 0.0
C159 C 1.02071 0.76639 0.01473 0.0
C160 C 0.05717 0.69065 0.97548 0.0
C161 C 1.02124 0.62518 0.01308 0.0
C162 C 0.98538 0.63086 0.05211 0.0
C163 C 0.98478 0.7007 0.05248 0.0
C164 C 1.02149 0.55099 1.01174 0.0
C165 C 0.03592 0.52996 0.07662 0.0
C166 C 1.01058 0.50389 0.9465 0.0
C167 C 0.9923 0.52084 0.87689 0.0
C168 C 0.94586 0.52394 0.86887 0.0
C169 C 0.92897 0.54033 0.80331 0.0
C170 C 0.95795 0.55314 0.74515 0.0
C171 C 1.0038 0.54937 0.7524 0.0
C172 C 1.02091 0.53311 0.8179 0.0
C173 C 0.99418 0.20683 0.04798 0.0
C174 C 0.03051 0.20114 1.00972 0.0
C175 C 0.99404 0.2769 0.04887 0.0
C176 C 0.02999 0.34236 1.01128 0.0
C177 C 0.06586 0.33666 0.97229 0.0
C178 C 0.06645 0.26682 0.97196 0.0
C179 C 0.02977 0.41657 0.01261 0.0
C180 C 1.01534 0.4376 0.94772 0.0
C181 C 0.04068 0.46367 0.07784 0.0
C182 C 0.05896 0.44673 0.14745 0.0
C183 C 0.1054 0.44362 0.15547 0.0
C184 C 0.12228 0.42723 0.22103 0.0
C185 C 0.09331 0.41442 0.27919 0.0
C186 C 0.04746 0.4182 0.27195 0.0
C187 C 0.03035 0.43446 0.20645 0.0
H188 H 0.10647 0.40179 0.32992 0.0
H189 H 0.94479 0.56578 0.69442 0.0
loop_
_geom_bond_atom_site_label_1
_geom_bond_atom_site_label_2
_geom_bond_distance
_geom_bond_site_symmetry_2
_ccdc_geom_bond_type
Tb0 C2 2.809 . S
Tb0 O20 2.484 1_556 S
Tb0 O21 2.440 . S
Tb0 O22 2.658 1_655 S
Tb0 O23 2.409 . S
Tb0 O24 2.378 1_565 S
Tb0 O28 2.325 1_566 S
Tb0 O31 2.341 . S
Tb1 C11 2.809 . S
Tb1 O22 2.325 1_544 S
Tb1 O25 2.341 . S
Tb1 O26 2.484 1_554 S
Tb1 O27 2.440 . S
Tb1 O28 2.658 1_455 S
Tb1 O29 2.409 . S
Tb1 O30 2.378 1_545 S
C2 Tb0 2.809 . S
C2 C3 1.514 . S
C2 O20 1.248 1_556 S
C2 O21 1.266 . S
C3 C2 1.514 . S
C3 C4 1.355 1_566 S
C3 C8 1.348 . S
C4 C3 1.355 1_544 S
C4 C5 1.386 . S
C4 H32 0.927 . S
C5 C4 1.386 . S
C5 C6 1.340 1_544 S
C5 H33 0.931 . S
C6 C5 1.340 1_566 S
C6 C7 1.377 . S
C7 C6 1.377 . S
C7 C8 1.408 . S
C7 H34 0.930 . S
C8 C3 1.348 . S
C8 C7 1.408 . S
C8 H35 0.930 . S
C9 O22 1.281 1_655 S
C9 O23 1.254 . S
C10 O24 1.236 1_455 S
C10 O25 1.266 1_556 S
C11 Tb1 2.809 . S
C11 C12 1.514 . S
C11 O26 1.248 1_554 S
C11 O27 1.266 . S
C12 C11 1.514 . S
C12 C13 1.356 1_544 S
C12 C17 1.348 . S
C13 C12 1.356 1_566 S
C13 C14 1.384 . S
C13 H36 0.927 . S
C14 C13 1.384 . S
C14 C15 1.337 1_566 S
C14 H37 0.931 . S
C15 C14 1.337 1_544 S
C15 C16 1.381 . S
C16 C15 1.381 . S
C16 C17 1.408 . S
C16 H38 0.930 . S
C17 C12 1.348 . S
C17 C16 1.408 . S
C17 H39 0.930 . S
C18 O28 1.281 1_455 S
C18 O29 1.254 . S
C19 O30 1.236 1_655 S
C19 O31 1.266 1_554 S
O20 Tb0 2.484 1_554 S
O20 C2 1.248 1_554 S
O21 Tb0 2.440 . S
O21 C2 1.266 . S
O22 Tb0 2.658 1_455 S
O22 Tb1 2.325 1_566 S
O22 C9 1.281 1_455 S
O23 Tb0 2.409 . S
O23 C9 1.254 . S
O24 Tb0 2.378 1_545 S
O24 C10 1.236 1_655 S
O25 Tb1 2.341 . S
O25 C10 1.266 1_554 S
O26 Tb1 2.484 1_556 S
O26 C11 1.248 1_556 S
O27 Tb1 2.440 . S
O27 C11 1.266 . S
O28 Tb0 2.325 1_544 S
O28 Tb1 2.658 1_655 S
O28 C18 1.281 1_655 S
O29 Tb1 2.409 . S
O29 C18 1.254 . S
O30 Tb1 2.378 1_565 S
O30 C19 1.236 1_455 S
O31 Tb0 2.341 . S
O31 C19 1.266 1_556 S
H32 C4 0.927 . S
H33 C5 0.931 . S
H34 C7 0.930 . S
H35 C8 0.930 . S
H36 C13 0.927 . S
H37 C14 0.931 . S
H38 C16 0.930 . S
H39 C17 0.930 . S
H40 C58 0.951 . S
H41 C60 0.951 . S
H42 C62 0.950 . S
H43 C63 0.950 . S
H44 C65 0.950 . S
H45 C68 0.950 . S
H46 C69 0.950 . S
H47 C71 0.950 . S
H48 C72 0.950 . S
H49 C73 0.951 . S
H50 C75 0.951 . S
H51 C77 0.950 . S
H52 C78 0.950 . S
H53 C80 0.950 . S
H54 C83 0.950 . S
H55 C84 0.950 . S
H56 C86 0.950 . S
H57 C87 0.950 . S
C58 H40 0.951 . S
C58 C59 1.369 1_545 S
C58 C60 1.388 . S
C59 C58 1.369 1_565 S
C59 C63 1.382 1_455 S
C60 H41 0.951 . S
C60 C58 1.388 . S
C60 C61 1.366 . S
C61 C60 1.366 . S
C61 C62 1.414 1_445 S
C61 C64 1.499 . S
C62 H42 0.950 . S
C62 C61 1.414 1_665 S
C62 C63 1.374 . S
C63 H43 0.950 . S
C63 C59 1.382 1_655 S
C63 C62 1.374 . S
C64 C61 1.499 . S
C64 C65 1.370 1_445 S
C64 C66 1.393 . S
C65 H44 0.950 . S
C65 C64 1.370 1_665 S
C65 C81 1.377 . S
C66 C64 1.393 . S
C66 C67 1.524 . S
C66 C80 1.377 . S
C67 C66 1.524 . S
C67 C68 1.397 . S
C67 C72 1.363 . S
C68 H45 0.950 . S
C68 C67 1.397 . S
C68 C69 1.334 . S
C69 H46 0.950 . S
C69 C68 1.334 . S
C69 C70 1.287 . S
C70 C69 1.287 . S
C70 C71 1.524 . S
C70 H89 0.913 . S
C71 H47 0.950 . S
C71 C70 1.524 . S
C71 C72 1.415 . S
C72 H48 0.950 . S
C72 C67 1.363 . S
C72 C71 1.415 . S
C73 H49 0.951 . S
C73 C74 1.365 1_665 S
C73 C75 1.388 . S
C74 C73 1.365 1_445 S
C74 C78 1.385 . S
C75 H50 0.951 . S
C75 C73 1.388 . S
C75 C76 1.366 . S
C76 C75 1.366 . S
C76 C77 1.414 1_665 S
C76 C79 1.499 . S
C77 H51 0.950 . S
C77 C76 1.414 1_445 S
C77 C78 1.374 . S
C78 H52 0.950 . S
C78 C74 1.385 . S
C78 C77 1.374 . S
C79 C76 1.499 . S
C79 C80 1.372 1_665 S
C79 C81 1.391 . S
C80 H53 0.950 . S
C80 C66 1.377 . S
C80 C79 1.372 1_445 S
C81 C65 1.377 . S
C81 C79 1.391 . S
C81 C82 1.524 . S
C82 C81 1.524 . S
C82 C83 1.397 . S
C82 C87 1.363 . S
C83 H54 0.950 . S
C83 C82 1.397 . S
C83 C84 1.334 . S
C84 H55 0.950 . S
C84 C83 1.334 . S
C84 C85 1.287 . S
C85 C84 1.287 . S
C85 C86 1.524 . S
C85 H88 0.999 . S
C86 H56 0.950 . S
C86 C85 1.524 . S
C86 C87 1.415 . S
C87 H57 0.950 . S
C87 C82 1.363 . S
C87 C86 1.415 . S
H88 C85 0.999 . S
H89 C70 0.913 . S
H90 C108 0.951 . S
H91 C110 0.951 . S
H92 C112 0.950 . S
H93 C113 0.950 . S
H94 C115 0.950 . S
H95 C118 0.950 . S
H96 C119 0.950 . S
H97 C121 0.950 . S
H98 C122 0.950 1_545 S
H99 C123 0.951 . S
H100 C125 0.951 . S
H101 C127 0.950 . S
H102 C128 0.950 . S
H103 C130 0.950 . S
H104 C133 0.950 . S
H105 C134 0.950 . S
H106 C136 0.950 . S
H107 C137 0.950 1_565 S
C108 H90 0.951 . S
C108 C109 1.364 1_556 S
C108 C110 1.388 . S
C109 C108 1.364 1_554 S
C109 C113 1.385 1_545 S
C110 H91 0.951 . S
C110 C108 1.388 . S
C110 C111 1.366 1_545 S
C111 C110 1.366 1_565 S
C111 C112 1.414 1_556 S
C111 C114 1.498 . S
C112 H92 0.950 . S
C112 C111 1.414 1_554 S
C112 C113 1.374 . S
C113 H93 0.950 . S
C113 C109 1.385 1_565 S
C113 C112 1.374 . S
C114 C111 1.498 . S
C114 C115 1.366 1_566 S
C114 C116 1.398 . S
C115 H94 0.950 . S
C115 C114 1.366 1_544 S
C115 C131 1.377 . S
C116 C114 1.398 . S
C116 C117 1.524 . S
C116 C130 1.377 . S
C117 C116 1.524 . S
C117 C118 1.397 . S
C117 C122 1.363 . S
C118 H95 0.950 . S
C118 C117 1.397 . S
C118 C119 1.334 . S
C119 H96 0.950 . S
C119 C118 1.334 . S
C119 C120 1.287 . S
C120 C119 1.287 . S
C120 C121 1.524 . S
C120 H139 0.913 . S
C121 H97 0.950 . S
C121 C120 1.524 . S
C121 C122 1.415 . S
C122 H98 0.950 1_565 S
C122 C117 1.363 . S
C122 C121 1.415 . S
C123 H99 0.951 . S
C123 C124 1.367 1_564 S
C123 C125 1.388 . S
C124 C123 1.367 1_546 S
C124 C128 1.382 . S
C125 H100 0.951 . S
C125 C123 1.388 . S
C125 C126 1.366 1_565 S
C126 C125 1.366 1_545 S
C126 C127 1.414 1_554 S
C126 C129 1.497 . S
C127 H101 0.950 . S
C127 C126 1.414 1_556 S
C127 C128 1.374 . S
C128 H102 0.950 . S
C128 C124 1.382 . S
C128 C127 1.374 . S
C129 C126 1.497 . S
C129 C130 1.363 1_544 S
C129 C131 1.401 . S
C130 H103 0.950 . S
C130 C116 1.377 . S
C130 C129 1.363 1_566 S
C131 C115 1.377 . S
C131 C129 1.401 . S
C131 C132 1.524 . S
C132 C131 1.524 . S
C132 C133 1.397 . S
C132 C137 1.363 . S
C133 H104 0.950 . S
C133 C132 1.397 . S
C133 C134 1.334 . S
C134 H105 0.950 . S
C134 C133 1.334 . S
C134 C135 1.287 . S
C135 C134 1.287 . S
C135 C136 1.524 . S
C135 H138 0.999 . S
C136 H106 0.950 . S
C136 C135 1.524 . S
C136 C137 1.415 . S
C137 H107 0.950 1_545 S
C137 C132 1.363 . S
C137 C136 1.415 . S
H138 C135 0.999 . S
H139 C120 0.913 . S
H140 C158 0.951 . S
H141 C160 0.958 . S
H142 C162 0.950 . S
H143 C163 0.950 . S
H144 C165 0.950 . S
H145 C168 0.950 . S
H146 C169 0.950 . S
H147 C171 0.950 . S
H148 C172 0.950 . S
H149 C173 0.951 . S
H150 C175 0.955 . S
H151 C177 0.950 . S
H152 C178 0.950 . S
H153 C180 0.950 . S
H154 C183 0.950 . S
H155 C184 0.950 . S
H156 C186 0.950 . S
H157 C187 0.950 . S
C158 H140 0.951 . S
C158 C159 1.366 1_556 S
C158 C160 1.379 . S
C159 C158 1.366 1_554 S
C159 C163 1.386 1_455 S
C160 H141 0.958 . S
C160 C158 1.379 . S
C160 C161 1.373 1_455 S
C161 C160 1.373 1_655 S
C161 C162 1.409 1_556 S
C161 C164 1.498 1_556 S
C162 H142 0.950 . S
C162 C161 1.409 1_554 S
C162 C163 1.374 . S
C163 H143 0.950 . S
C163 C159 1.386 1_655 S
C163 C162 1.374 . S
C164 C161 1.498 1_554 S
C164 C165 1.373 1_655 S
C164 C166 1.389 1_554 S
C165 H144 0.950 . S
C165 C164 1.373 1_455 S
C165 C181 1.377 . S
C166 C164 1.389 1_556 S
C166 C167 1.524 . S
C166 C180 1.377 . S
C167 C166 1.524 . S
C167 C168 1.397 . S
C167 C172 1.363 . S
C168 H145 0.950 . S
C168 C167 1.397 . S
C168 C169 1.334 . S
C169 H146 0.950 . S
C169 C168 1.334 . S
C169 C170 1.287 . S
C170 C169 1.287 . S
C170 C171 1.524 . S
C170 H189 0.913 . S
C171 H147 0.950 . S
C171 C170 1.524 . S
C171 C172 1.415 . S
C172 H148 0.950 . S
C172 C167 1.363 . S
C172 C171 1.415 . S
C173 H149 0.951 . S
C173 C174 1.366 1_655 S
C173 C175 1.382 . S
C174 C173 1.366 1_455 S
C174 C178 1.386 1_554 S
C175 H150 0.955 . S
C175 C173 1.382 . S
C175 C176 1.375 1_655 S
C176 C175 1.375 1_455 S
C176 C177 1.406 1_554 S
C176 C179 1.498 1_554 S
C177 H151 0.950 . S
C177 C176 1.406 1_556 S
C177 C178 1.374 . S
C178 H152 0.950 . S
C178 C174 1.386 1_556 S
C178 C177 1.374 . S
C179 C176 1.498 1_556 S
C179 C180 1.373 1_455 S
C179 C181 1.389 1_556 S
C180 H153 0.950 . S
C180 C166 1.377 . S
C180 C179 1.373 1_655 S
C181 C165 1.377 . S
C181 C179 1.389 1_554 S
C181 C182 1.524 . S
C182 C181 1.524 . S
C182 C183 1.397 . S
C182 C187 1.363 . S
C183 H154 0.950 . S
C183 C182 1.397 . S
C183 C184 1.334 . S
C184 H155 0.950 . S
C184 C183 1.334 . S
C184 C185 1.287 . S
C185 C184 1.287 . S
C185 C186 1.524 . S
C185 H188 0.999 . S
C186 H156 0.950 . S
C186 C185 1.524 . S
C186 C187 1.415 . S
C187 H157 0.950 . S
C187 C182 1.363 . S
C187 C186 1.415 . S
H188 C185 0.999 . S
H189 C170 0.913 . S
C59 C18 1.451 1_565 S
C74 C9 1.451 1_445 S
C109 C15 1.499 . S
C124 C6 1.499 1_545 S
C159 C19 1.488 1_455 S
C174 C10 1.488 1_554 S
