# Generated by pormake.
# Topology hex, (8)-cn, num edge types: 1
# Building blocks:
#     Node 0, Type 0, BuildingBlock: TAGTUT_clean_sbu_1, # of connection points: 8
#     Edge 1, Type (0, 0), BuildingBlock: TEMPAE_clean_linker_10, # of connection points: 2
#     Edge 2, Type (0, 0), BuildingBlock: TEMPAE_clean_linker_10, # of connection points: 2
#     Edge 3, Type (0, 0), BuildingBlock: TEMPAE_clean_linker_10, # of connection points: 2
#     Edge 4, Type (0, 0), BuildingBlock: TEMPAE_clean_linker_10, # of connection points: 2
# Relax obj value: 0.054
# Max RMSD: 0.157
# Mean RMSD: 0.157
data_MOF--net-hex--node1-TAGTUT_clean_sbu_1--edge1-TEMPAE_clean_linker_10
_symmetry_space_group_name_H-M    P1
_symmetry_Int_Tables_number       1
_symmetry_cell_setting            triclinic
loop_
_symmetry_equiv_pos_as_xyz
'x, y, z'
_cell_length_a     18.373033
_cell_length_b     20.037072
_cell_length_c     16.047915
_cell_angle_alpha  89.818927
_cell_angle_beta   99.852377
_cell_angle_gamma 131.15715
loop_
_atom_site_label
_atom_site_type_symbol
_atom_site_fract_x
_atom_site_fract_y
_atom_site_fract_z
_atom_type_partial_charge
C0 C 0.9217 0.22388 -0.00261 0.0
C1 C 0.71964 0.95861 0.03886 0.0
C2 C 0.04402 0.01249 0.19415 0.0
Mg3 Mg 0.83735 0.04238 0.90481 0.0
O4 O 0.94903 0.07705 0.98012 0.0
Mg5 Mg 0.97168 0.11113 0.1051 0.0
Mg6 Mg 0.97818 0.99789 0.98666 0.0
O7 O 0.01185 0.92139 -0.00416 0.0
Mg8 Mg 0.13156 0.97251 0.07113 0.0
Mg9 Mg -0.0008 0.89487 0.87017 0.0
C10 C 0.92003 0.99455 0.78097 0.0
C11 C 0.78354 0.78971 0.91878 0.0
O12 O 0.96046 0.21374 0.06474 0.0
O13 O 0.87066 0.16656 0.92897 0.0
O14 O 0.80144 0.01265 0.09528 0.0
O15 O 0.71822 0.94225 0.96161 0.0
O16 O 0.86648 0.01275 0.7909 0.0
O17 O 0.9681 0.9891 0.84449 0.0
C18 C 0.18091 0.20595 0.05487 0.0
O19 O 0.13712 0.1321 0.00799 0.0
O20 O 0.13691 0.21289 0.10312 0.0
O21 O 0.02864 0.80347 0.91269 0.0
O22 O 0.11523 0.85722 0.05006 0.0
O23 O 0.17056 0.0012 0.87657 0.0
C24 C 0.07229 0.80026 0.98212 0.0
O25 O 0.23282 0.07755 0.00558 0.0
O26 O 0.10492 0.00264 0.18634 0.0
C27 C 0.24461 0.05329 0.9401 0.0
O28 O -0.0116 0.00762 0.12931 0.0
O29 O 0.81729 0.86237 0.96166 0.0
O30 O 0.8361 0.78777 0.87728 0.0
C31 C 0.0441 0.38867 0.02987 0.0
C32 C 0.94632 0.30945 -0.00389 0.0
C33 C 0.07156 0.47202 0.02599 0.0
C34 C -0.00156 0.47532 0.98986 0.0
C35 C 0.89915 0.39526 0.95643 0.0
C36 C 0.87448 0.31276 0.95875 0.0
C37 C 0.17855 0.5563 0.06025 0.0
C38 C 0.81904 0.39678 0.91929 0.0
C39 C 0.0418 0.68042 0.05955 0.0
C40 C 0.06384 0.72273 0.98664 0.0
C41 C 0.02078 0.59969 0.06157 0.0
C42 C 0.02508 0.56256 0.98985 0.0
C43 C 0.05238 0.60757 0.9177 0.0
C44 C 0.06992 0.68688 0.91638 0.0
C45 C -0.00968 0.5525 0.13897 0.0
C46 C 0.0611 0.57111 0.84155 0.0
H47 H 0.09969 0.38539 0.05749 0.0
H48 H 0.79894 0.25089 0.93289 0.0
H49 H 0.20706 0.60068 0.01041 0.0
H50 H 0.18413 0.59403 0.11517 0.0
H51 H 0.22714 0.5418 0.08156 0.0
H52 H 0.74528 0.32833 0.89732 0.0
H53 H 0.8135 0.43167 0.9679 0.0
H54 H 0.83827 0.43477 0.86434 0.0
H55 H 0.03632 0.70828 0.11344 0.0
H56 H 0.08792 0.72067 0.86046 0.0
H57 H 0.04034 0.541 0.16624 0.0
H58 H 0.91416 0.48585 0.11984 0.0
H59 H -0.00826 0.59118 0.1897 0.0
H60 H 0.11132 0.55843 0.86254 0.0
H61 H 0.08986 0.61767 0.79334 0.0
H62 H -0.01263 0.50611 0.81051 0.0
C63 C 0.54029 0.88247 0.01064 0.0
C64 C 0.63971 0.9561 0.04885 0.0
C65 C 0.46933 0.89126 -0.00441 0.0
C66 C 0.50042 0.97681 0.01458 0.0
C67 C 0.60009 0.05041 0.05542 0.0
C68 C 0.66754 0.03837 0.07438 0.0
C69 C 0.36222 0.81013 0.9567 0.0
C70 C 0.63745 0.14355 0.07382 0.0
C71 C 0.35444 0.03387 0.89376 0.0
C72 C 0.31416 0.03809 0.95793 0.0
C73 C 0.41462 0.01285 0.91073 0.0
C74 C 0.43002 0.99095 -0.00778 0.0
C75 C 0.38636 0.99189 0.0559 0.0
C76 C 0.33219 0.01843 0.03903 0.0
C77 C 0.46379 0.01635 0.84243 0.0
C78 C 0.39735 0.96545 0.14232 0.0
H79 H 0.51913 0.81937 0.98949 0.0
H80 H 0.74484 0.09632 0.10162 0.0
H81 H 0.31341 0.80262 -0.0043 0.0
H82 H 0.33992 0.8188 0.8918 0.0
H83 H 0.34906 0.74749 0.9518 0.0
H84 H 0.71815 0.19412 0.10335 0.0
H85 H 0.62349 0.1645 0.01353 0.0
H86 H 0.597 0.14399 0.11742 0.0
H87 H 0.3402 0.04842 0.83103 0.0
H88 H 0.30102 0.0207 0.08927 0.0
H89 H 0.44269 0.95081 0.82807 0.0
H90 H 0.54562 0.06716 0.86588 0.0
H91 H 0.44349 0.03356 0.78227 0.0
H92 H 0.38087 0.90138 0.1346 0.0
H93 H 0.3474 0.95763 0.1801 0.0
H94 H 0.47491 0.01726 0.17946 0.0
C95 C 0.28848 0.29765 0.95453 0.0
C96 C 0.27512 0.28881 0.03865 0.0
C97 C 0.36827 0.37991 0.93336 0.0
C98 C 0.4391 0.4545 -0.00152 0.0
C99 C 0.42813 0.4451 0.08422 0.0
C100 C 0.34488 0.36283 0.10299 0.0
C101 C 0.37507 0.38761 0.84079 0.0
C102 C 0.50421 0.52186 0.15604 0.0
C103 C 0.69114 0.63376 0.9475 0.0
C104 C 0.69149 0.70303 0.93274 0.0
C105 C 0.61075 0.5539 0.97115 0.0
C106 C 0.52637 0.54107 0.97682 0.0
C107 C 0.52505 0.60994 0.95989 0.0
C108 C 0.60889 0.69123 0.94013 0.0
C109 C 0.61726 0.48411 -0.00801 0.0
C110 C 0.43516 0.5977 0.96239 0.0
H111 H 0.23347 0.24121 0.90413 0.0
H112 H 0.33421 0.35635 0.16788 0.0
H113 H 0.37851 0.44261 0.82104 0.0
H114 H 0.44408 0.40466 0.8325 0.0
H115 H 0.31095 0.32463 0.79732 0.0
H116 H 0.48838 0.50188 0.2197 0.0
H117 H 0.57923 0.54779 0.15542 0.0
H118 H 0.50594 0.57774 0.14704 0.0
H119 H 0.75602 0.64355 0.94413 0.0
H120 H 0.60955 0.74509 0.92967 0.0
H121 H 0.55886 0.42133 0.94641 0.0
H122 H 0.60425 0.46776 0.05697 0.0
H123 H 0.69051 0.50674 0.98934 0.0
H124 H 0.36756 0.534 0.92218 0.0
H125 H 0.44224 0.65377 0.93961 0.0
H126 H 0.4243 0.59337 0.0287 0.0
C127 C 0.95087 0.05859 0.64669 0.0
C128 C 0.93802 0.99473 0.6954 0.0
C129 C 0.97193 0.06449 0.5661 0.0
C130 C 0.97713 0.00306 0.53236 0.0
C131 C 0.96358 0.93781 0.58098 0.0
C132 C 0.94588 0.93547 0.66317 0.0
C133 C -0.01073 0.13688 0.5174 0.0
C134 C 0.96623 0.86988 0.54566 0.0
C135 C 0.93278 0.96966 0.29133 0.0
C136 C 0.02911 0.0179 0.27988 0.0
C137 C 0.9145 0.96221 0.3735 0.0
C138 C -0.00489 0.00681 0.44539 0.0
C139 C 0.09305 0.05834 0.434 0.0
C140 C 0.10871 0.06192 0.35107 0.0
C141 C 0.80887 0.90515 0.38339 0.0
C142 C 0.18105 0.10969 0.50924 0.0
H143 H 0.94676 0.10568 0.67265 0.0
H144 H 0.93607 0.88637 0.70128 0.0
H145 H 0.06216 0.17759 0.49964 0.0
H146 H 0.93164 0.10617 0.45718 0.0
H147 H -0.01227 0.18226 0.55497 0.0
H148 H 0.9527 0.82276 0.59112 0.0
H149 H 0.90916 0.8307 0.48513 0.0
H150 H 0.0393 0.90443 0.53041 0.0
H151 H 0.87108 0.93427 0.23605 0.0
H152 H 0.18313 0.09898 0.34176 0.0
H153 H 0.7997 0.9471 0.41609 0.0
H154 H 0.79126 0.85332 0.42392 0.0
H155 H 0.75435 0.87132 0.32093 0.0
H156 H 0.18271 0.15674 0.5478 0.0
H157 H 0.25256 0.14852 0.48909 0.0
H158 H 0.17439 0.06285 0.55152 0.0
loop_
_geom_bond_atom_site_label_1
_geom_bond_atom_site_label_2
_geom_bond_distance
_geom_bond_site_symmetry_2
_ccdc_geom_bond_type
C0 O12 1.241 1_556 S
C0 O13 1.280 . S
C1 O14 1.277 . S
C1 O15 1.245 1_544 S
C2 O26 1.249 1_545 S
C2 O28 1.292 . S
Mg3 O4 1.926 . S
Mg3 O13 1.984 . S
Mg3 O15 1.988 1_545 S
Mg3 O16 2.063 . S
O4 Mg3 1.926 . S
O4 Mg5 1.986 1_556 S
O4 Mg6 1.917 1_656 S
Mg5 O4 1.986 1_554 S
Mg5 O12 2.042 . S
Mg5 O14 2.041 . S
Mg5 O20 2.038 1_655 S
Mg5 O28 2.234 1_655 S
Mg6 O4 1.917 1_454 S
Mg6 O7 1.917 1_545 S
Mg6 O17 2.107 1_444 S
Mg6 O19 2.079 . S
Mg6 O28 2.109 . S
Mg6 O29 2.079 1_444 S
O7 Mg6 1.917 1_565 S
O7 Mg8 1.926 . S
O7 Mg9 1.986 1_554 S
Mg8 O7 1.926 . S
Mg8 O22 1.984 . S
Mg8 O25 1.988 1_565 S
Mg8 O26 2.060 . S
Mg9 O7 1.986 1_556 S
Mg9 O17 2.236 1_455 S
Mg9 O21 2.042 . S
Mg9 O23 2.041 . S
Mg9 O30 2.038 1_455 S
C10 O16 1.246 1_565 S
C10 O17 1.290 . S
C11 O29 1.245 . S
C11 O30 1.274 . S
O12 C0 1.241 1_554 S
O12 Mg5 2.042 . S
O13 C0 1.280 . S
O13 Mg3 1.984 . S
O14 C1 1.277 . S
O14 Mg5 2.041 . S
O15 C1 1.245 1_566 S
O15 Mg3 1.988 1_565 S
O16 Mg3 2.063 . S
O16 C10 1.246 1_545 S
O17 Mg6 2.107 1_666 S
O17 Mg9 2.236 1_655 S
O17 C10 1.290 . S
C18 O19 1.245 . S
C18 O20 1.274 . S
O19 Mg6 2.079 . S
O19 C18 1.245 . S
O20 Mg5 2.038 1_455 S
O20 C18 1.274 . S
O21 Mg9 2.042 . S
O21 C24 1.241 1_556 S
O22 Mg8 1.984 . S
O22 C24 1.280 . S
O23 Mg9 2.041 . S
O23 C27 1.277 . S
C24 O21 1.241 1_554 S
C24 O22 1.280 . S
O25 Mg8 1.988 1_545 S
O25 C27 1.245 1_544 S
O26 C2 1.249 1_565 S
O26 Mg8 2.060 . S
C27 O23 1.277 . S
C27 O25 1.245 1_566 S
O28 C2 1.292 . S
O28 Mg5 2.234 1_455 S
O28 Mg6 2.109 . S
O29 Mg6 2.079 1_666 S
O29 C11 1.245 . S
O30 Mg9 2.038 1_655 S
O30 C11 1.274 . S
C31 C32 1.391 1_554 S
C31 C33 1.394 . S
C31 H47 0.931 . S
C32 C31 1.391 1_556 S
C32 C36 1.376 1_455 S
C33 C31 1.394 . S
C33 C34 1.369 1_554 S
C33 C37 1.531 . S
C34 C33 1.369 1_556 S
C34 C35 1.410 1_455 S
C34 C42 1.503 1_556 S
C35 C34 1.410 1_655 S
C35 C36 1.392 . S
C35 C38 1.511 . S
C36 C32 1.376 1_655 S
C36 C35 1.392 . S
C36 H48 0.929 . S
C37 C33 1.531 . S
C37 H49 0.960 . S
C37 H50 0.962 . S
C37 H51 0.960 . S
C38 C35 1.511 . S
C38 H52 0.961 . S
C38 H53 0.961 . S
C38 H54 0.961 . S
C39 C40 1.370 1_655 S
C39 C41 1.363 . S
C39 H55 0.931 . S
C40 C39 1.370 1_455 S
C40 C44 1.408 . S
C41 C39 1.363 . S
C41 C42 1.370 1_655 S
C41 C45 1.524 . S
C42 C34 1.503 1_554 S
C42 C41 1.370 1_455 S
C42 C43 1.403 . S
C43 C42 1.403 . S
C43 C44 1.404 . S
C43 C46 1.539 1_554 S
C44 C40 1.408 . S
C44 C43 1.404 . S
C44 H56 0.930 . S
C45 C41 1.524 . S
C45 H57 0.956 . S
C45 H58 0.961 1_554 S
C45 H59 0.961 . S
C46 C43 1.539 1_556 S
C46 H60 0.958 1_556 S
C46 H61 0.961 . S
C46 H62 0.960 . S
H47 C31 0.931 . S
H48 C36 0.929 . S
H49 C37 0.960 . S
H50 C37 0.962 . S
H51 C37 0.960 . S
H52 C38 0.961 . S
H53 C38 0.961 . S
H54 C38 0.961 . S
H55 C39 0.931 . S
H56 C44 0.930 . S
H57 C45 0.956 . S
H58 C45 0.961 1_556 S
H59 C45 0.961 . S
H60 C46 0.958 1_554 S
H61 C46 0.961 . S
H62 C46 0.960 . S
C63 C64 1.391 1_556 S
C63 C65 1.394 . S
C63 H79 0.931 . S
C64 C63 1.391 1_554 S
C64 C68 1.376 1_565 S
C65 C63 1.394 . S
C65 C66 1.369 1_556 S
C65 C69 1.531 . S
C66 C65 1.369 1_554 S
C66 C67 1.410 1_565 S
C66 C74 1.503 1_554 S
C67 C66 1.410 1_545 S
C67 C68 1.392 . S
C67 C70 1.511 . S
C68 C64 1.376 1_545 S
C68 C67 1.392 . S
C68 H80 0.929 . S
C69 C65 1.531 . S
C69 H81 0.960 . S
C69 H82 0.962 . S
C69 H83 0.960 . S
C70 C67 1.511 . S
C70 H84 0.961 . S
C70 H85 0.961 . S
C70 H86 0.961 . S
C71 C72 1.370 . S
C71 C73 1.363 . S
C71 H87 0.931 . S
C72 C71 1.370 . S
C72 C76 1.408 1_545 S
C73 C71 1.363 . S
C73 C74 1.370 1_545 S
C73 C77 1.524 . S
C74 C66 1.503 1_556 S
C74 C73 1.370 1_565 S
C74 C75 1.403 1_556 S
C75 C74 1.403 1_554 S
C75 C76 1.404 1_554 S
C75 C78 1.539 . S
C76 C72 1.408 1_565 S
C76 C75 1.404 1_556 S
C76 H88 0.930 1_556 S
C77 C73 1.524 . S
C77 H89 0.956 . S
C77 H90 0.961 . S
C77 H91 0.961 . S
C78 C75 1.539 . S
C78 H92 0.958 . S
C78 H93 0.961 . S
C78 H94 0.960 . S
H79 C63 0.931 . S
H80 C68 0.929 . S
H81 C69 0.960 . S
H82 C69 0.962 . S
H83 C69 0.960 . S
H84 C70 0.961 . S
H85 C70 0.961 . S
H86 C70 0.961 . S
H87 C71 0.931 . S
H88 C76 0.930 1_554 S
H89 C77 0.956 . S
H90 C77 0.961 . S
H91 C77 0.961 . S
H92 C78 0.958 . S
H93 C78 0.961 . S
H94 C78 0.960 . S
C95 C96 1.391 1_556 S
C95 C97 1.394 . S
C95 H111 0.931 . S
C96 C95 1.391 1_554 S
C96 C100 1.376 . S
C97 C95 1.394 . S
C97 C98 1.369 1_556 S
C97 C101 1.531 . S
C98 C97 1.369 1_554 S
C98 C99 1.410 . S
C98 C106 1.503 1_554 S
C99 C98 1.410 . S
C99 C100 1.392 . S
C99 C102 1.511 . S
C100 C96 1.376 . S
C100 C99 1.392 . S
C100 H112 0.929 . S
C101 C97 1.531 . S
C101 H113 0.960 . S
C101 H114 0.962 . S
C101 H115 0.960 . S
C102 C99 1.511 . S
C102 H116 0.961 . S
C102 H117 0.961 . S
C102 H118 0.961 . S
C103 C104 1.370 . S
C103 C105 1.363 1_556 S
C103 H119 0.931 . S
C104 C103 1.370 . S
C104 C108 1.408 . S
C105 C103 1.363 1_554 S
C105 C106 1.370 1_554 S
C105 C109 1.524 . S
C106 C98 1.503 1_556 S
C106 C105 1.370 1_556 S
C106 C107 1.403 . S
C107 C106 1.403 . S
C107 C108 1.404 . S
C107 C110 1.539 . S
C108 C104 1.408 . S
C108 C107 1.404 . S
C108 H120 0.930 . S
C109 C105 1.524 . S
C109 H121 0.956 1_554 S
C109 H122 0.961 . S
C109 H123 0.961 . S
C110 C107 1.539 . S
C110 H124 0.958 . S
C110 H125 0.961 . S
C110 H126 0.960 . S
H111 C95 0.931 . S
H112 C100 0.929 . S
H113 C101 0.960 . S
H114 C101 0.962 . S
H115 C101 0.960 . S
H116 C102 0.961 . S
H117 C102 0.961 . S
H118 C102 0.961 . S
H119 C103 0.931 . S
H120 C108 0.930 . S
H121 C109 0.956 1_556 S
H122 C109 0.961 . S
H123 C109 0.961 . S
H124 C110 0.958 . S
H125 C110 0.961 . S
H126 C110 0.960 . S
C127 C128 1.391 1_655 S
C127 C129 1.394 . S
C127 H143 0.931 . S
C128 C127 1.391 1_455 S
C128 C132 1.376 1_545 S
C129 C127 1.394 . S
C129 C130 1.369 1_655 S
C129 C133 1.531 . S
C130 C129 1.369 1_455 S
C130 C131 1.410 1_545 S
C130 C138 1.503 . S
C131 C130 1.410 1_565 S
C131 C132 1.392 . S
C131 C134 1.511 . S
C132 C128 1.376 1_565 S
C132 C131 1.392 . S
C132 H144 0.929 . S
C133 C129 1.531 . S
C133 H145 0.960 . S
C133 H146 0.962 . S
C133 H147 0.960 . S
C134 C131 1.511 . S
C134 H148 0.961 . S
C134 H149 0.961 . S
C134 H150 0.961 1_565 S
C135 C136 1.370 1_665 S
C135 C137 1.363 . S
C135 H151 0.931 . S
C136 C135 1.370 1_445 S
C136 C140 1.408 . S
C137 C135 1.363 . S
C137 C138 1.370 1_665 S
C137 C141 1.524 . S
C138 C130 1.503 . S
C138 C137 1.370 1_445 S
C138 C139 1.403 . S
C139 C138 1.403 . S
C139 C140 1.404 . S
C139 C142 1.539 . S
C140 C136 1.408 . S
C140 C139 1.404 . S
C140 H152 0.930 . S
C141 C137 1.524 . S
C141 H153 0.956 . S
C141 H154 0.961 . S
C141 H155 0.961 . S
C142 C139 1.539 . S
C142 H156 0.958 . S
C142 H157 0.961 . S
C142 H158 0.960 . S
H143 C127 0.931 . S
H144 C132 0.929 . S
H145 C133 0.960 . S
H146 C133 0.962 . S
H147 C133 0.960 . S
H148 C134 0.961 . S
H149 C134 0.961 . S
H150 C134 0.961 1_545 S
H151 C135 0.931 . S
H152 C140 0.930 . S
H153 C141 0.956 . S
H154 C141 0.961 . S
H155 C141 0.961 . S
H156 C142 0.958 . S
H157 C142 0.961 . S
H158 C142 0.960 . S
C32 C0 1.343 1_455 S
C40 C24 1.278 . S
C64 C1 1.322 1_565 S
C72 C27 1.254 1_545 S
C96 C18 1.843 . S
C104 C11 1.870 . S
C128 C10 1.471 1_445 S
C136 C2 1.453 . S
