# Generated by pormake.
# Topology hex, (8)-cn, num edge types: 1
# Building blocks:
#     Node 0, Type 0, BuildingBlock: XADDAJ01_clean_sbu_3, # of connection points: 8
#     Edge 1, Type (0, 0), BuildingBlock: CIFDUS_clean_linker_0, # of connection points: 2
#     Edge 2, Type (0, 0), BuildingBlock: CIFDUS_clean_linker_0, # of connection points: 2
#     Edge 3, Type (0, 0), BuildingBlock: CIFDUS_clean_linker_0, # of connection points: 2
#     Edge 4, Type (0, 0), BuildingBlock: CIFDUS_clean_linker_0, # of connection points: 2
# Relax obj value: 0.034
# Max RMSD: 0.095
# Mean RMSD: 0.095
data_MOF--net-hex--node1-XADDAJ01_clean_sbu_3--edge1-CIFDUS_clean_linker_0
_symmetry_space_group_name_H-M    P1
_symmetry_Int_Tables_number       1
_symmetry_cell_setting            triclinic
loop_
_symmetry_equiv_pos_as_xyz
'x, y, z'
_cell_length_a     19.635792
_cell_length_b     16.653
_cell_length_c     13.055106
_cell_angle_alpha  110.01303
_cell_angle_beta   102.52583
_cell_angle_gamma 113.43728
loop_
_atom_site_label
_atom_site_type_symbol
_atom_site_fract_x
_atom_site_fract_y
_atom_site_fract_z
_atom_type_partial_charge
C0 C 0.77496 0.82519 0.90366 0.0
C1 C 0.74324 0.74415 0.92652 0.0
C2 C 0.67576 0.72163 0.95604 0.0
C3 C 0.64244 0.78268 0.96732 0.0
C4 C 0.6732 0.86391 0.94594 0.0
C5 C 0.73948 0.88466 0.91322 0.0
O6 O 0.03956 0.93102 0.11392 0.0
Tb7 Tb 0.97841 0.86097 0.92101 0.0
Tb8 Tb 0.0944 0.11182 0.04623 0.0
O9 O 0.9667 0.72039 0.90328 0.0
O10 O 1.03467 0.07333 0.15826 0.0
O11 O 0.85347 0.77098 0.81584 0.0
C12 C 0.23113 0.12749 0.10426 0.0
O13 O 0.90994 0.93125 0.93342 0.0
O14 O 1.03325 0.04178 0.85332 0.0
O15 O 0.03813 0.89947 0.80898 0.0
C16 C 0.84168 0.8453 0.86299 0.0
C17 C 0.04344 0.25596 0.00885 0.0
O18 O 0.9718 0.17362 0.94668 0.0
C19 C 1.03604 0.00525 0.18675 0.0
C20 C 0.03676 0.96754 0.78049 0.0
O21 O 0.10611 0.25241 0.06396 0.0
C22 C 0.29785 0.14762 0.06358 0.0
C23 C 0.39962 0.1089 0.02133 0.0
C24 C 0.33334 0.08814 0.05404 0.0
C25 C 0.32957 0.22865 0.04073 0.0
C26 C 0.39705 0.25117 0.01121 0.0
C27 C 0.43037 0.19012 -6e-05 0.0
C28 C 1.02937 0.71684 0.95839 0.0
O29 O 0.10101 0.79918 0.02056 0.0
O30 O 0.21934 0.20181 0.1514 0.0
O31 O 0.16286 0.04155 0.03382 0.0
H32 H 0.76903 0.69672 0.91746 0.0
H33 H 0.59029 0.7649 -0.00996 0.0
H34 H 0.7631 0.94643 0.89447 0.0
H35 H 0.30971 0.02637 0.07279 0.0
H36 H 0.30377 0.27608 0.04979 0.0
H37 H 0.48253 0.20791 0.97722 0.0
H38 H 0.9272 0.28725 0.90307 0.0
H39 H 0.18379 0.43805 0.12193 0.0
H40 H 0.20212 0.59269 0.12429 0.0
H41 H 0.14561 0.68555 0.06418 0.0
H42 H 0.88902 0.53475 0.84531 0.0
H43 H 0.87069 0.38011 0.84296 0.0
C44 C 0.98717 0.35391 0.95159 0.0
C45 C 0.05396 0.35065 0.01248 0.0
C46 C 0.99741 0.44282 0.95234 0.0
C47 C 0.13117 0.43807 0.07457 0.0
C48 C 0.14179 0.5267 0.0758 0.0
C49 C 0.08563 0.61888 0.01565 0.0
C50 C 1.01885 0.62214 0.95476 0.0
C51 C 0.07539 0.52998 0.0149 0.0
C52 C 0.94163 0.53473 0.89268 0.0
C53 C 0.93102 0.44609 0.89144 0.0
H54 H 0.6172 0.92572 0.11204 0.0
H55 H 0.63087 0.92574 0.78648 0.0
H56 H 0.54179 -0.00556 0.7764 0.0
H57 H 0.45562 0.04709 0.85522 0.0
H58 H 0.44194 0.04706 0.18079 0.0
H59 H 0.53102 0.97836 0.19086 0.0
C60 C 0.60065 0.9407 0.03873 0.0
C61 C 0.63039 0.92025 0.9498 0.0
C62 C 0.54741 0.97685 0.03141 0.0
C63 C 0.60975 0.94197 0.85683 0.0
C64 C 0.55781 0.97974 0.85005 0.0
C65 C 0.47216 0.0321 0.92853 0.0
C66 C 0.44242 0.05255 0.01746 0.0
C67 C 0.5254 -0.00405 0.93585 0.0
C68 C 0.46306 0.03084 0.11043 0.0
C69 C 0.515 -0.00693 0.11721 0.0
H70 H 0.55808 0.38452 0.1036 0.0
H71 H 0.32352 0.31579 0.88265 0.0
H72 H 0.39015 0.4533 0.84168 0.0
H73 H 0.51473 0.58829 0.86365 0.0
H74 H 0.74929 0.65701 0.0846 0.0
H75 H 0.68266 0.5195 0.12557 0.0
C76 C 0.52152 0.39934 0.04592 0.0
C77 C 0.43605 0.33983 -0.00467 0.0
C78 C 0.56014 0.47657 0.02092 0.0
C79 C 0.38932 0.36113 0.92317 0.0
C80 C 0.42739 0.43886 0.89881 0.0
C81 C 0.55129 0.57346 0.92133 0.0
C82 C 0.63676 0.63297 0.97192 0.0
C83 C 0.51267 0.49623 0.94633 0.0
C84 C 0.68349 0.61167 0.04408 0.0
C85 C 0.64542 0.53394 0.06844 0.0
H86 H 0.03864 0.09772 0.69873 0.0
H87 H 1.03502 0.82015 0.60064 0.0
H88 H 1.03411 0.80759 0.40834 0.0
H89 H 1.03417 0.87508 0.26852 0.0
H90 H 0.03779 0.15265 0.3666 0.0
H91 H 0.0387 0.16521 0.55891 0.0
C92 C 0.0376 0.03432 0.63543 0.0
C93 C 0.03681 0.95989 0.66419 0.0
C94 C 0.03705 0.02752 0.52512 0.0
C95 C 1.0357 0.87853 0.581 0.0
C96 C 1.03511 0.87124 0.47093 0.0
C97 C 1.0352 0.93848 0.33181 0.0
C98 C 1.036 0.01291 0.30306 0.0
C99 C 1.03576 0.94527 0.44212 0.0
C100 C 0.03711 0.09427 0.38625 0.0
C101 C 0.03769 0.10156 0.49631 0.0
loop_
_geom_bond_atom_site_label_1
_geom_bond_atom_site_label_2
_geom_bond_distance
_geom_bond_site_symmetry_2
_ccdc_geom_bond_type
C0 C1 1.386 . S
C0 C5 1.384 . S
C0 C16 1.497 . S
C1 C0 1.386 . S
C1 C2 1.393 1_556 S
C1 H32 0.932 . S
C2 C1 1.393 1_554 S
C2 C3 1.387 . S
C3 C2 1.387 . S
C3 C4 1.392 1_554 S
C3 H33 0.930 . S
C4 C3 1.392 1_556 S
C4 C5 1.402 . S
C5 C0 1.384 . S
C5 C4 1.402 . S
C5 H34 0.930 . S
O6 Tb7 2.288 1_554 S
O6 C19 1.257 1_665 S
Tb7 O6 2.288 1_556 S
Tb7 O9 2.303 . S
Tb7 O11 2.430 . S
Tb7 O13 2.459 . S
Tb7 O15 2.301 . S
Tb7 C16 2.808 . S
Tb8 O10 2.301 . S
Tb8 C12 2.808 . S
Tb8 O14 2.288 1_554 S
Tb8 O21 2.303 . S
Tb8 O30 2.430 . S
Tb8 O31 2.459 . S
O9 Tb7 2.303 . S
O9 C28 1.255 1_655 S
O10 Tb8 2.301 . S
O10 C19 1.237 . S
O11 Tb7 2.430 . S
O11 C16 1.248 . S
C12 Tb8 2.808 . S
C12 C22 1.497 . S
C12 O30 1.248 . S
C12 O31 1.260 . S
O13 Tb7 2.459 . S
O13 C16 1.260 . S
O14 Tb8 2.288 1_556 S
O14 C20 1.257 1_445 S
O15 Tb7 2.301 . S
O15 C20 1.237 . S
C16 C0 1.497 . S
C16 Tb7 2.808 . S
C16 O11 1.248 . S
C16 O13 1.260 . S
C17 O18 1.255 . S
C17 O21 1.255 1_655 S
O18 C17 1.255 . S
C19 O6 1.257 1_445 S
C19 O10 1.237 . S
C20 O14 1.257 1_665 S
C20 O15 1.237 . S
O21 Tb8 2.303 . S
O21 C17 1.255 1_455 S
C22 C12 1.497 . S
C22 C24 1.384 . S
C22 C25 1.386 . S
C23 C24 1.402 . S
C23 C27 1.392 1_554 S
C24 C22 1.384 . S
C24 C23 1.402 . S
C24 H35 0.930 . S
C25 C22 1.386 . S
C25 C26 1.393 1_554 S
C25 H36 0.932 . S
C26 C25 1.393 1_556 S
C26 C27 1.387 . S
C27 C23 1.392 1_556 S
C27 C26 1.387 . S
C27 H37 0.930 . S
C28 O9 1.255 1_455 S
C28 O29 1.255 . S
O29 C28 1.255 . S
O30 Tb8 2.430 . S
O30 C12 1.248 . S
O31 Tb8 2.459 . S
O31 C12 1.260 . S
H32 C1 0.932 . S
H33 C3 0.930 . S
H34 C5 0.930 . S
H35 C24 0.930 . S
H36 C25 0.932 . S
H37 C27 0.930 . S
H38 C44 0.930 . S
H39 C47 0.930 . S
H40 C48 0.930 . S
H41 C49 0.930 . S
H42 C52 0.930 . S
H43 C53 0.930 . S
C44 H38 0.930 . S
C44 C45 1.355 . S
C44 C46 1.415 . S
C45 C44 1.355 . S
C45 C47 1.419 1_654 S
C46 C44 1.415 . S
C46 C51 1.425 1_654 S
C46 C53 1.409 . S
C47 H39 0.930 . S
C47 C45 1.419 1_456 S
C47 C48 1.362 . S
C48 H40 0.930 . S
C48 C47 1.362 . S
C48 C51 1.409 . S
C49 H41 0.930 . S
C49 C50 1.355 . S
C49 C51 1.415 . S
C50 C49 1.355 . S
C50 C52 1.419 1_456 S
C51 C46 1.425 1_456 S
C51 C48 1.409 . S
C51 C49 1.415 . S
C52 H42 0.930 . S
C52 C50 1.419 1_654 S
C52 C53 1.362 . S
C53 H43 0.930 . S
C53 C46 1.409 . S
C53 C52 1.362 . S
H54 C60 0.930 . S
H55 C63 0.930 . S
H56 C64 0.930 . S
H57 C65 0.930 . S
H58 C68 0.930 . S
H59 C69 0.930 . S
C60 H54 0.930 . S
C60 C61 1.355 1_544 S
C60 C62 1.415 . S
C61 C60 1.355 1_566 S
C61 C63 1.419 . S
C62 C60 1.415 . S
C62 C67 1.425 1_544 S
C62 C69 1.409 . S
C63 H55 0.930 . S
C63 C61 1.419 . S
C63 C64 1.362 . S
C64 H56 0.930 . S
C64 C63 1.362 . S
C64 C67 1.409 . S
C65 H57 0.930 . S
C65 C66 1.355 1_566 S
C65 C67 1.415 . S
C66 C65 1.355 1_544 S
C66 C68 1.419 . S
C67 C62 1.425 1_566 S
C67 C64 1.409 . S
C67 C65 1.415 . S
C68 H58 0.930 . S
C68 C66 1.419 . S
C68 C69 1.362 . S
C69 H59 0.930 . S
C69 C62 1.409 . S
C69 C68 1.362 . S
H70 C76 0.930 . S
H71 C79 0.930 . S
H72 C80 0.930 . S
H73 C81 0.930 . S
H74 C84 0.930 . S
H75 C85 0.930 . S
C76 H70 0.930 . S
C76 C77 1.355 . S
C76 C78 1.415 . S
C77 C76 1.355 . S
C77 C79 1.419 1_556 S
C78 C76 1.415 . S
C78 C83 1.425 1_556 S
C78 C85 1.409 . S
C79 H71 0.930 . S
C79 C77 1.419 1_554 S
C79 C80 1.362 . S
C80 H72 0.930 . S
C80 C79 1.362 . S
C80 C83 1.409 . S
C81 H73 0.930 . S
C81 C82 1.355 . S
C81 C83 1.415 . S
C82 C81 1.355 . S
C82 C84 1.419 1_554 S
C83 C78 1.425 1_554 S
C83 C80 1.409 . S
C83 C81 1.415 . S
C84 H74 0.930 . S
C84 C82 1.419 1_556 S
C84 C85 1.362 . S
C85 H75 0.930 . S
C85 C78 1.409 . S
C85 C84 1.362 . S
H86 C92 0.930 . S
H87 C95 0.930 . S
H88 C96 0.930 . S
H89 C97 0.930 . S
H90 C100 0.930 . S
H91 C101 0.930 . S
C92 H86 0.930 . S
C92 C93 1.356 1_455 S
C92 C94 1.415 . S
C93 C92 1.356 1_655 S
C93 C95 1.422 1_545 S
C94 C92 1.415 . S
C94 C99 1.425 1_445 S
C94 C101 1.409 . S
C95 H87 0.930 . S
C95 C93 1.422 1_565 S
C95 C96 1.362 . S
C96 H88 0.930 . S
C96 C95 1.362 . S
C96 C99 1.409 . S
C97 H89 0.930 . S
C97 C98 1.356 1_655 S
C97 C99 1.415 . S
C98 C97 1.356 1_455 S
C98 C100 1.421 1_565 S
C99 C94 1.425 1_665 S
C99 C96 1.409 . S
C99 C97 1.415 . S
C100 H90 0.930 . S
C100 C98 1.421 1_545 S
C100 C101 1.362 . S
C101 H91 0.930 . S
C101 C94 1.409 . S
C101 C100 1.362 . S
C45 C17 0.599 . S
C50 C28 0.599 . S
C61 C4 2.012 . S
C66 C23 2.012 . S
C77 C26 1.817 . S
C82 C2 1.817 . S
C93 C20 1.473 1_545 S
C98 C19 1.474 1_565 S
