# Generated by pormake.
# Topology npo, (4)-cn, num edge types: 1
# Building blocks:
#     Node 0, Type 0, BuildingBlock: TATPOV_clean_sbu_0, # of connection points: 4
#     Node 1, Type 0, BuildingBlock: TATPOV_clean_sbu_0, # of connection points: 4
#     Node 2, Type 0, BuildingBlock: TATPOV_clean_sbu_0, # of connection points: 4
#     Node 3, Type 0, BuildingBlock: TATPOV_clean_sbu_0, # of connection points: 4
#     Node 4, Type 0, BuildingBlock: TATPOV_clean_sbu_0, # of connection points: 4
#     Node 5, Type 0, BuildingBlock: TATPOV_clean_sbu_0, # of connection points: 4
#     Edge 6, Type (0, 0), None
#     Edge 7, Type (0, 0), None
#     Edge 8, Type (0, 0), None
#     Edge 9, Type (0, 0), None
#     Edge 10, Type (0, 0), None
#     Edge 11, Type (0, 0), None
#     Edge 12, Type (0, 0), None
#     Edge 13, Type (0, 0), None
#     Edge 14, Type (0, 0), None
#     Edge 15, Type (0, 0), None
#     Edge 16, Type (0, 0), None
#     Edge 17, Type (0, 0), None
# Relax obj value: 0.160
# Max RMSD: 0.223
# Mean RMSD: 0.202
data_MOF--net-npo--node1-TATPOV_clean_sbu_0--edge1-none
_symmetry_space_group_name_H-M    P1
_symmetry_Int_Tables_number       1
_symmetry_cell_setting            triclinic
loop_
_symmetry_equiv_pos_as_xyz
'x, y, z'
_cell_length_a     18.839517
_cell_length_b     19.216032
_cell_length_c     12.682601
_cell_angle_alpha  90.990326
_cell_angle_beta   89.998911
_cell_angle_gamma 119.35876
loop_
_atom_site_label
_atom_site_type_symbol
_atom_site_fract_x
_atom_site_fract_y
_atom_site_fract_z
_atom_type_partial_charge
Zn0 Zn 0.66947 0.10928 0.11095 0.0
Zn1 Zn 0.54872 0.04788 0.21571 0.0
O2 O 0.49938 0.11462 0.16671 0.0
O3 O 0.61075 0.17112 0.07086 0.0
O4 O 0.48099 -0.03424 0.3276 0.0
O5 O 0.66707 0.03294 0.00482 0.0
O6 O 0.54604 -0.01946 0.07861 0.0
C7 C 0.54421 0.16685 0.10042 0.0
C8 C 0.72744 0.17563 0.2922 0.0
O9 O 0.64999 0.13694 0.29877 0.0
O10 O 0.76099 0.1626 0.21393 0.0
C11 C 0.48363 -0.01821 0.42609 0.0
O12 O 0.52609 0.0562 0.45972 0.0
C13 C 0.59306 -0.01984 0.00573 0.0
Zn14 Zn 0.33635 0.50514 0.47748 0.0
Zn15 Zn 0.41223 0.47006 0.63387 0.0
O16 O 0.29829 0.42926 0.69337 0.0
O17 O 0.23304 0.45258 0.56699 0.0
O18 O 0.47448 0.45 0.74398 0.0
O19 O 0.36984 0.44127 0.37753 0.0
O20 O 0.42652 0.41251 0.50915 0.0
C21 C 0.23431 0.42829 0.65905 0.0
C22 C 0.46657 0.6442 0.58392 0.0
O23 O 0.47373 0.59048 0.63198 0.0
O24 O 0.41265 0.62474 0.51241 0.0
C25 C 0.46058 0.45074 0.84157 0.0
O26 O 0.40092 0.46232 0.87393 0.0
C27 C 0.40769 0.40696 0.41235 0.0
Zn28 Zn 0.78036 0.39322 0.4517 0.0
Zn29 Zn 0.89137 0.42833 0.29531 0.0
O30 O 0.81822 0.4691 0.23581 0.0
O31 O 0.72964 0.44579 0.36219 0.0
O32 O 0.97369 0.44841 0.18521 0.0
O33 O 0.87775 0.45709 0.55165 0.0
O34 O 0.9632 0.48589 0.42004 0.0
C35 C 0.7552 0.47007 0.27012 0.0
C36 C 0.77158 0.2542 0.34526 0.0
O37 O 0.83246 0.30791 0.29721 0.0
O38 O 0.73707 0.27363 0.41674 0.0
C39 C 0.95904 0.44764 0.08762 0.0
O40 O 0.88778 0.43602 0.05526 0.0
C41 C 0.94991 0.49142 0.51684 0.0
Zn42 Zn 0.50942 0.78911 0.81815 0.0
Zn43 Zn 0.45004 0.8505 0.71337 0.0
O44 O 0.33396 0.78374 0.76239 0.0
O45 O 0.38885 0.72726 0.85824 0.0
O46 O 0.46442 0.93261 0.60149 0.0
O47 O 0.58335 0.86548 0.92426 0.0
O48 O 0.51471 0.91785 0.85047 0.0
C49 C 0.32657 0.73152 0.82868 0.0
C50 C 0.50106 0.7228 0.63692 0.0
O51 O 0.46227 0.76145 0.63032 0.0
O52 O 0.54763 0.7358 0.71519 0.0
C53 C 0.45103 0.91657 0.503 0.0
O54 O 0.41907 0.84216 0.46936 0.0
C55 C 0.56211 0.91825 0.92336 0.0
Zn56 Zn 0.62239 0.40311 0.00136 0.0
Zn57 Zn 0.51076 0.36921 0.13984 0.0
O58 O 0.62182 0.43156 0.21583 0.0
O59 O 0.71707 0.47663 0.09566 0.0
O60 O 0.43408 0.37722 0.24111 0.0
O61 O 0.57511 0.4392 0.88858 0.0
O62 O 0.4801 0.4089 0.00766 0.0
C63 C 0.69695 0.46875 0.19178 0.0
C64 C 0.53392 0.23542 0.07472 0.0
O65 O 0.48963 0.25428 0.1309 0.0
O66 O 0.58741 0.28622 0.01465 0.0
C67 C 0.44092 0.37088 0.33919 0.0
O68 O 0.49213 0.34839 0.37376 0.0
C69 C 0.5082 0.43355 0.91653 0.0
Zn70 Zn 0.16848 0.49527 0.9278 0.0
Zn71 Zn 0.09073 0.52914 0.78934 0.0
O72 O 0.13944 0.4668 0.71334 0.0
O73 O 0.18962 0.42173 0.83351 0.0
O74 O 0.00603 0.52112 0.68808 0.0
O75 O 0.08511 0.45919 0.04061 0.0
O76 O 0.02039 0.48946 0.92152 0.0
C77 C 0.17737 0.42961 0.73739 0.0
C78 C 0.2477 0.66294 0.8544 0.0
O79 O 0.18455 0.64408 0.79825 0.0
O80 O 0.25041 0.61215 0.91448 0.0
C81 C 0.01922 0.5275 0.59 0.0
O82 O 0.09294 0.55002 0.55543 0.0
C83 C 0.02385 0.46483 0.01265 0.0
loop_
_geom_bond_atom_site_label_1
_geom_bond_atom_site_label_2
_geom_bond_distance
_geom_bond_site_symmetry_2
_ccdc_geom_bond_type
Zn0 O3 2.031 . S
Zn0 O5 2.049 1_554 S
Zn0 O10 2.067 . S
Zn1 O2 1.962 . S
Zn1 O4 1.986 1_545 S
Zn1 O6 1.996 . S
Zn1 O9 1.943 . S
O2 Zn1 1.962 . S
O2 C7 1.254 . S
O3 Zn0 2.031 . S
O3 C7 1.269 . S
O4 Zn1 1.986 1_565 S
O4 C11 1.262 1_565 S
O5 Zn0 2.049 1_556 S
O5 C13 1.260 1_556 S
O6 Zn1 1.996 . S
O6 C13 1.257 . S
C7 O2 1.254 . S
C7 O3 1.269 . S
C8 O9 1.249 . S
C8 O10 1.270 . S
O9 Zn1 1.943 . S
O9 C8 1.249 . S
O10 Zn0 2.067 . S
O10 C8 1.270 . S
C11 O4 1.262 1_545 S
C11 O12 1.232 . S
O12 C11 1.232 . S
C13 O5 1.260 1_554 S
C13 O6 1.257 . S
Zn14 O17 2.031 . S
Zn14 O19 2.049 . S
Zn14 O24 2.067 . S
Zn15 O16 1.962 . S
Zn15 O18 1.986 . S
Zn15 O20 1.996 . S
Zn15 O23 1.943 . S
O16 Zn15 1.962 . S
O16 C21 1.254 . S
O17 Zn14 2.031 . S
O17 C21 1.269 . S
O18 Zn15 1.986 . S
O18 C25 1.262 . S
O19 Zn14 2.049 . S
O19 C27 1.260 . S
O20 Zn15 1.996 . S
O20 C27 1.257 . S
C21 O16 1.254 . S
C21 O17 1.269 . S
C22 O23 1.249 . S
C22 O24 1.270 . S
O23 Zn15 1.943 . S
O23 C22 1.249 . S
O24 Zn14 2.067 . S
O24 C22 1.270 . S
C25 O18 1.262 . S
C25 O26 1.232 . S
O26 C25 1.232 . S
C27 O19 1.260 . S
C27 O20 1.257 . S
Zn28 O31 2.031 . S
Zn28 O33 2.049 . S
Zn28 O38 2.067 . S
Zn29 O30 1.962 . S
Zn29 O32 1.986 1_655 S
Zn29 O34 1.996 . S
Zn29 O37 1.943 . S
O30 Zn29 1.962 . S
O30 C35 1.254 . S
O31 Zn28 2.031 . S
O31 C35 1.269 . S
O32 Zn29 1.986 1_455 S
O32 C39 1.262 1_455 S
O33 Zn28 2.049 . S
O33 C41 1.260 . S
O34 Zn29 1.996 . S
O34 C41 1.257 . S
C35 O30 1.254 . S
C35 O31 1.269 . S
C36 O37 1.249 . S
C36 O38 1.270 . S
O37 Zn29 1.943 . S
O37 C36 1.249 . S
O38 Zn28 2.067 . S
O38 C36 1.270 . S
C39 O32 1.262 1_655 S
C39 O40 1.232 . S
O40 C39 1.232 . S
C41 O33 1.260 . S
C41 O34 1.257 . S
Zn42 O45 2.031 . S
Zn42 O47 2.049 1_556 S
Zn42 O52 2.067 . S
Zn43 O44 1.962 . S
Zn43 O46 1.986 1_565 S
Zn43 O48 1.996 . S
Zn43 O51 1.943 . S
O44 Zn43 1.962 . S
O44 C49 1.254 . S
O45 Zn42 2.031 . S
O45 C49 1.269 . S
O46 Zn43 1.986 1_545 S
O46 C53 1.262 1_545 S
O47 Zn42 2.049 1_554 S
O47 C55 1.260 1_554 S
O48 Zn43 1.996 . S
O48 C55 1.257 . S
C49 O44 1.254 . S
C49 O45 1.269 . S
C50 O51 1.249 . S
C50 O52 1.270 . S
O51 Zn43 1.943 . S
O51 C50 1.249 . S
O52 Zn42 2.067 . S
O52 C50 1.270 . S
C53 O46 1.262 1_565 S
C53 O54 1.232 . S
O54 C53 1.232 . S
C55 O47 1.260 1_556 S
C55 O48 1.257 . S
Zn56 O59 2.031 . S
Zn56 O61 2.049 1_554 S
Zn56 O66 2.067 . S
Zn57 O58 1.962 . S
Zn57 O60 1.986 . S
Zn57 O62 1.996 . S
Zn57 O65 1.943 . S
O58 Zn57 1.962 . S
O58 C63 1.254 . S
O59 Zn56 2.031 . S
O59 C63 1.269 . S
O60 Zn57 1.986 . S
O60 C67 1.262 . S
O61 Zn56 2.049 1_556 S
O61 C69 1.260 1_556 S
O62 Zn57 1.996 . S
O62 C69 1.257 . S
C63 O58 1.254 . S
C63 O59 1.269 . S
C64 O65 1.249 . S
C64 O66 1.270 . S
O65 Zn57 1.943 . S
O65 C64 1.249 . S
O66 Zn56 2.067 . S
O66 C64 1.270 . S
C67 O60 1.262 . S
C67 O68 1.232 . S
O68 C67 1.232 . S
C69 O61 1.260 1_554 S
C69 O62 1.257 . S
Zn70 O73 2.031 . S
Zn70 O75 2.049 1_556 S
Zn70 O80 2.067 . S
Zn71 O72 1.962 . S
Zn71 O74 1.986 1_455 S
Zn71 O76 1.996 . S
Zn71 O79 1.943 . S
O72 Zn71 1.962 . S
O72 C77 1.254 . S
O73 Zn70 2.031 . S
O73 C77 1.269 . S
O74 Zn71 1.986 1_655 S
O74 C81 1.262 1_655 S
O75 Zn70 2.049 1_554 S
O75 C83 1.260 1_554 S
O76 Zn71 1.996 . S
O76 C83 1.257 . S
C77 O72 1.254 . S
C77 O73 1.269 . S
C78 O79 1.249 . S
C78 O80 1.270 . S
O79 Zn71 1.943 . S
O79 C78 1.249 . S
O80 Zn70 2.067 . S
O80 C78 1.270 . S
C81 O74 1.262 1_455 S
C81 O82 1.232 . S
O82 C81 1.232 . S
C83 O75 1.260 1_556 S
C83 O76 1.257 . S
C7 C64 1.174 . S
C21 C77 1.190 . S
C8 C36 1.420 . S
C50 C22 1.420 . S
C63 C35 1.190 . S
C49 C78 1.174 . S
C55 C13 1.317 1_566 S
C67 C27 1.364 . S
C83 C39 1.319 1_456 S
C11 C53 1.399 1_545 S
C25 C69 1.319 1_556 S
C81 C41 1.364 1_455 S
