# Generated by pormake.
# Topology mmt, (4)-cn, num edge types: 1
# Building blocks:
#     Node 0, Type 0, BuildingBlock: QUQFOY_clean_sbu_3, # of connection points: 4
#     Node 1, Type 0, BuildingBlock: QUQFOY_clean_sbu_3, # of connection points: 4
#     Node 2, Type 0, BuildingBlock: QUQFOY_clean_sbu_3, # of connection points: 4
#     Node 3, Type 0, BuildingBlock: QUQFOY_clean_sbu_3, # of connection points: 4
#     Node 4, Type 0, BuildingBlock: QUQFOY_clean_sbu_3, # of connection points: 4
#     Node 5, Type 0, BuildingBlock: QUQFOY_clean_sbu_3, # of connection points: 4
#     Node 6, Type 0, BuildingBlock: QUQFOY_clean_sbu_3, # of connection points: 4
#     Node 7, Type 0, BuildingBlock: QUQFOY_clean_sbu_3, # of connection points: 4
#     Edge 8, Type (0, 0), BuildingBlock: EYOCIG_clean_linker_4, # of connection points: 2
#     Edge 9, Type (0, 0), BuildingBlock: EYOCIG_clean_linker_4, # of connection points: 2
#     Edge 10, Type (0, 0), BuildingBlock: EYOCIG_clean_linker_4, # of connection points: 2
#     Edge 11, Type (0, 0), BuildingBlock: EYOCIG_clean_linker_4, # of connection points: 2
#     Edge 12, Type (0, 0), BuildingBlock: EYOCIG_clean_linker_4, # of connection points: 2
#     Edge 13, Type (0, 0), BuildingBlock: EYOCIG_clean_linker_4, # of connection points: 2
#     Edge 14, Type (0, 0), BuildingBlock: EYOCIG_clean_linker_4, # of connection points: 2
#     Edge 15, Type (0, 0), BuildingBlock: EYOCIG_clean_linker_4, # of connection points: 2
#     Edge 16, Type (0, 0), BuildingBlock: EYOCIG_clean_linker_4, # of connection points: 2
#     Edge 17, Type (0, 0), BuildingBlock: EYOCIG_clean_linker_4, # of connection points: 2
#     Edge 18, Type (0, 0), BuildingBlock: EYOCIG_clean_linker_4, # of connection points: 2
#     Edge 19, Type (0, 0), BuildingBlock: EYOCIG_clean_linker_4, # of connection points: 2
#     Edge 20, Type (0, 0), BuildingBlock: EYOCIG_clean_linker_4, # of connection points: 2
#     Edge 21, Type (0, 0), BuildingBlock: EYOCIG_clean_linker_4, # of connection points: 2
#     Edge 22, Type (0, 0), BuildingBlock: EYOCIG_clean_linker_4, # of connection points: 2
#     Edge 23, Type (0, 0), BuildingBlock: EYOCIG_clean_linker_4, # of connection points: 2
# Relax obj value: 0.025
# Max RMSD: 0.041
# Mean RMSD: 0.041
data_MOF--net-mmt--node1-QUQFOY_clean_sbu_3--edge1-EYOCIG_clean_linker_4
_symmetry_space_group_name_H-M    P1
_symmetry_Int_Tables_number       1
_symmetry_cell_setting            triclinic
loop_
_symmetry_equiv_pos_as_xyz
'x, y, z'
_cell_length_a     18.711991
_cell_length_b     31.643214
_cell_length_c     38.128795
_cell_angle_alpha  89.995137
_cell_angle_beta   89.999753
_cell_angle_gamma 90.013411
loop_
_atom_site_label
_atom_site_type_symbol
_atom_site_fract_x
_atom_site_fract_y
_atom_site_fract_z
_atom_type_partial_charge
C0 C 0.15598 0.6297 0.32304 0.0
O1 O 0.1295 0.63159 0.29246 0.0
Cd2 Cd 0.08573 0.57417 0.25821 0.0
O3 O 0.15376 0.59587 0.34118 0.0
Cd4 Cd 0.09646 0.52466 0.33502 0.0
C5 C 0.22546 0.50331 0.27764 0.0
O6 O 0.00063 0.54131 0.29425 0.0
O7 O 0.02199 0.47478 0.30112 0.0
O8 O 0.02667 0.53805 0.38755 0.0
C9 C -0.01513 0.5035 0.28683 0.0
O10 O 0.18944 0.52782 0.25798 0.0
C11 C 0.04663 0.50475 0.40321 0.0
O12 O 0.20684 0.4956 0.30919 0.0
O13 O 0.09296 0.48164 0.38821 0.0
C14 C 0.2952 0.81643 0.32321 0.0
O15 O 0.32037 0.81528 0.29234 0.0
Cd16 Cd 0.36276 0.87312 0.2582 0.0
O17 O 0.29701 0.85006 0.34163 0.0
Cd18 Cd 0.35216 0.92187 0.33507 0.0
C19 C 0.22334 0.94394 0.27767 0.0
O20 O 0.44818 0.90522 0.29455 0.0
O21 O 0.42716 0.9718 0.30123 0.0
O22 O 0.42191 0.90927 0.38777 0.0
C23 C 0.46451 0.94297 0.28726 0.0
O24 O 0.25923 0.91962 0.2578 0.0
C25 C 0.40129 0.94257 0.4032 0.0
O26 O 0.24188 0.95108 0.30931 0.0
O27 O 0.35465 0.96526 0.388 0.0
C28 C 0.65451 0.31682 0.13464 0.0
O29 O 0.6285 0.31551 0.16533 0.0
Cd30 Cd 0.58526 0.37321 0.19949 0.0
O31 O 0.6527 0.35044 0.11623 0.0
Cd32 Cd 0.59645 0.42193 0.12241 0.0
C33 C 0.72417 0.44456 0.18016 0.0
O34 O 0.50069 0.40648 0.16351 0.0
O35 O 0.52339 0.47278 0.15607 0.0
O36 O 0.52617 0.40884 0.06997 0.0
C37 C 0.48605 0.44449 0.1708 0.0
O38 O 0.68814 0.42024 0.19999 0.0
C39 C 0.54674 0.442 0.05429 0.0
O40 O 0.70634 0.45133 0.14836 0.0
O41 O 0.59361 0.4648 0.06922 0.0
C42 C 0.79416 0.12999 0.13463 0.0
O43 O 0.82041 0.1315 0.16527 0.0
Cd44 Cd 0.86457 0.07416 0.19951 0.0
O45 O 0.79597 0.09628 0.11632 0.0
Cd46 Cd 0.85215 0.02473 0.12241 0.0
C47 C 0.72587 0.0023 0.18079 0.0
O48 O 0.94809 0.04077 0.1631 0.0
O49 O 0.92635 -0.02571 0.15626 0.0
O50 O 0.92067 0.03742 0.06923 0.0
C51 C 0.96331 0.00295 0.17074 0.0
O52 O 0.7622 0.02684 0.20028 0.0
C53 C 0.89881 0.00442 0.05373 0.0
O54 O 0.7429 -0.00465 0.14891 0.0
O55 O 0.85274 -0.01831 0.06931 0.0
C56 C 0.79378 0.31691 0.63469 0.0
O57 O 0.82108 0.3151 0.6651 0.0
Cd58 Cd 0.86603 0.37246 0.69901 0.0
O59 O 0.79519 0.35076 0.61656 0.0
Cd60 Cd 0.85181 0.42224 0.62244 0.0
C61 C 0.72505 0.44293 0.68078 0.0
O62 O 0.94911 0.40589 0.66218 0.0
O63 O 0.92701 0.47245 0.65596 0.0
O64 O 0.91968 0.40877 0.56932 0.0
C65 C 0.96503 0.44367 0.66961 0.0
O66 O 0.7622 0.41845 0.69993 0.0
C67 C 0.89832 0.44175 0.55363 0.0
O68 O 0.74208 0.45087 0.64906 0.0
O69 O 0.85276 0.46493 0.56912 0.0
C70 C 0.65436 0.13004 0.63473 0.0
O71 O 0.62749 0.13151 0.66523 0.0
Cd72 Cd 0.58324 0.07402 0.69934 0.0
O73 O 0.65317 0.0963 0.61647 0.0
Cd74 Cd 0.59698 0.02479 0.62237 0.0
C75 C 0.72286 0.00274 0.68087 0.0
O76 O 0.5 0.03973 0.66317 0.0
O77 O 0.5241 -0.02639 0.65553 0.0
O78 O 0.52823 0.03862 0.56957 0.0
C79 C 0.48608 0.00155 0.67029 0.0
O80 O 0.68591 0.02721 0.70011 0.0
C81 C 0.54955 0.00587 0.55355 0.0
O82 O 0.70642 -0.00447 0.64895 0.0
O83 O 0.59542 -0.01741 0.56872 0.0
C84 C 0.29228 0.62979 0.82359 0.0
O85 O 0.31968 0.63195 0.79322 0.0
Cd86 Cd 0.36512 0.57461 0.75913 0.0
O87 O 0.29412 0.59579 0.8415 0.0
Cd88 Cd 0.35179 0.52477 0.83518 0.0
C89 C 0.2261 0.50273 0.77667 0.0
O90 O 0.44949 0.53995 0.79473 0.0
O91 O 0.42454 0.47381 0.80193 0.0
O92 O 0.42031 0.53815 0.88812 0.0
C93 C 0.46328 0.50174 0.78759 0.0
O94 O 0.26275 0.52753 0.75757 0.0
C95 C 0.39871 0.50531 0.90394 0.0
O96 O 0.24269 0.49532 0.80854 0.0
O97 O 0.35285 0.4822 0.88858 0.0
C98 C 0.15307 0.81632 0.82336 0.0
O99 O 0.12708 0.81488 0.79266 0.0
Cd100 Cd 0.08437 0.87266 0.75846 0.0
O101 O 0.15191 0.85014 0.84153 0.0
Cd102 Cd 0.09684 0.92192 0.83511 0.0
C103 C 0.22527 0.94286 0.77737 0.0
O104 O -7e-05 0.9059 0.79476 0.0
O105 O 0.02233 0.97232 0.80181 0.0
O106 O 0.02722 0.90789 0.88748 0.0
C107 C -0.01572 0.94385 0.78775 0.0
O108 O 0.18856 0.91851 0.75789 0.0
C109 C 0.04707 0.94099 0.90343 0.0
O110 O 0.20737 0.95063 0.809 0.0
O111 O 0.09328 0.9644 0.88862 0.0
C112 C 0.33822 0.47421 0.24458 0.0
C113 C 0.28886 0.48513 0.26281 0.0
C114 C 0.39134 0.46366 0.21971 0.0
C115 C 0.43456 0.45487 0.19739 0.0
C116 C 0.05786 -0.01573 0.21987 0.0
C117 C 0.01483 -0.0068 0.19749 0.0
C118 C 0.11084 -0.02632 0.24481 0.0
C119 C 0.16006 0.96248 0.26301 0.0
C120 C 0.83481 0.47594 0.21354 0.0
C121 C 0.78639 0.46394 0.19517 0.0
C122 C 0.88799 0.48638 0.23841 0.0
C123 C 0.9323 0.49391 0.26055 0.0
C124 C 0.61618 0.97118 0.21499 0.0
C125 C 0.66411 -0.01697 0.19627 0.0
C126 C 0.56303 0.96058 0.23981 0.0
C127 C 0.51809 0.95242 0.26146 0.0
C128 C 0.56068 0.48218 0.74009 0.0
C129 C 0.51609 0.49077 0.76181 0.0
C130 C 0.61389 0.47181 0.71522 0.0
C131 C 0.66244 0.46094 0.69647 0.0
C132 C 0.83193 0.97215 0.71585 0.0
C133 C 0.78438 -0.01625 0.6968 0.0
C134 C 0.88494 0.96178 0.74081 0.0
C135 C 0.93038 0.95387 0.76227 0.0
C136 C 0.11695 0.47241 0.74162 0.0
C137 C 0.16454 0.48381 0.76073 0.0
C138 C 0.06399 0.46194 0.71666 0.0
C139 C 0.01894 0.45323 0.69522 0.0
C140 C 0.33754 0.97175 0.74374 0.0
C141 C 0.28845 0.96089 0.76217 0.0
C142 C 0.39068 -0.01788 0.71882 0.0
C143 C 0.43436 -0.00937 0.69662 0.0
C144 C -0.01383 0.48012 0.46219 0.0
C145 C 0.01331 0.49177 0.43525 0.0
C146 C 0.95444 0.46544 0.49339 0.0
C147 C 0.92922 0.45428 0.5209 0.0
C148 C 0.46114 0.96796 0.46209 0.0
C149 C 0.4342 0.95603 0.4352 0.0
C150 C 0.49288 -0.01732 0.49328 0.0
C151 C 0.51829 -0.00634 0.52081 0.0
C152 C 0.48642 0.46703 -0.00458 0.0
C153 C 0.51352 0.45522 0.0223 0.0
C154 C 0.45474 0.48175 0.96423 0.0
C155 C 0.42957 0.49286 0.93669 0.0
C156 C -0.01323 0.96477 0.96267 0.0
C157 C 0.01375 0.95343 0.93561 0.0
C158 C 0.95509 -0.0204 -0.00617 0.0
C159 C 0.92979 -0.00873 0.02118 0.0
C160 C 0.21422 0.70163 0.34232 0.0
C161 C 0.18945 0.66709 0.33666 0.0
C162 C 0.2409 0.74342 0.34242 0.0
C163 C 0.26398 0.77838 0.33684 0.0
C164 C 0.73749 0.20245 0.11564 0.0
C165 C 0.76155 0.16771 0.12115 0.0
C166 C 0.71077 0.24422 0.11567 0.0
C167 C 0.68684 0.27899 0.12121 0.0
C168 C 0.71016 0.20274 0.61569 0.0
C169 C 0.68656 0.1679 0.62125 0.0
C170 C 0.73657 0.2446 0.61567 0.0
C171 C 0.76075 0.27931 0.62121 0.0
C172 C 0.23349 0.70152 0.84302 0.0
C173 C 0.25841 0.66704 0.83728 0.0
C174 C 0.20693 0.74334 0.84301 0.0
C175 C 0.18412 0.77831 0.83719 0.0
loop_
_geom_bond_atom_site_label_1
_geom_bond_atom_site_label_2
_geom_bond_distance
_geom_bond_site_symmetry_2
_ccdc_geom_bond_type
C0 O1 1.306 . S
C0 O3 1.160 . S
O1 C0 1.306 . S
O1 Cd2 2.228 . S
Cd2 O1 2.228 . S
Cd2 O6 2.273 . S
Cd2 O10 2.277 . S
O3 C0 1.160 . S
O3 Cd4 2.203 . S
Cd4 O3 2.203 . S
Cd4 O6 2.411 . S
Cd4 O7 2.333 . S
Cd4 O8 2.352 . S
Cd4 O12 2.277 . S
Cd4 O13 2.356 . S
C5 O10 1.209 . S
C5 O12 1.226 . S
O6 Cd2 2.273 . S
O6 Cd4 2.411 . S
O6 C9 1.320 . S
O7 Cd4 2.333 . S
O7 C9 1.214 . S
O8 Cd4 2.352 . S
O8 C11 1.258 . S
C9 O6 1.320 . S
C9 O7 1.214 . S
O10 Cd2 2.277 . S
O10 C5 1.209 . S
C11 O8 1.258 . S
C11 O13 1.282 . S
O12 Cd4 2.277 . S
O12 C5 1.226 . S
O13 Cd4 2.356 . S
O13 C11 1.282 . S
C14 O15 1.306 . S
C14 O17 1.160 . S
O15 C14 1.306 . S
O15 Cd16 2.228 . S
Cd16 O15 2.228 . S
Cd16 O20 2.273 . S
Cd16 O24 2.277 . S
O17 C14 1.160 . S
O17 Cd18 2.203 . S
Cd18 O17 2.203 . S
Cd18 O20 2.411 . S
Cd18 O21 2.333 . S
Cd18 O22 2.352 . S
Cd18 O26 2.277 . S
Cd18 O27 2.356 . S
C19 O24 1.209 . S
C19 O26 1.226 . S
O20 Cd16 2.273 . S
O20 Cd18 2.411 . S
O20 C23 1.320 . S
O21 Cd18 2.333 . S
O21 C23 1.214 . S
O22 Cd18 2.352 . S
O22 C25 1.258 . S
C23 O20 1.320 . S
C23 O21 1.214 . S
O24 Cd16 2.277 . S
O24 C19 1.209 . S
C25 O22 1.258 . S
C25 O27 1.282 . S
O26 Cd18 2.277 . S
O26 C19 1.226 . S
O27 Cd18 2.356 . S
O27 C25 1.282 . S
C28 O29 1.306 . S
C28 O31 1.160 . S
O29 C28 1.306 . S
O29 Cd30 2.228 . S
Cd30 O29 2.228 . S
Cd30 O34 2.273 . S
Cd30 O38 2.277 . S
O31 C28 1.160 . S
O31 Cd32 2.203 . S
Cd32 O31 2.203 . S
Cd32 O34 2.411 . S
Cd32 O35 2.333 . S
Cd32 O36 2.352 . S
Cd32 O40 2.277 . S
Cd32 O41 2.356 . S
C33 O38 1.209 . S
C33 O40 1.226 . S
O34 Cd30 2.273 . S
O34 Cd32 2.411 . S
O34 C37 1.320 . S
O35 Cd32 2.333 . S
O35 C37 1.214 . S
O36 Cd32 2.352 . S
O36 C39 1.258 . S
C37 O34 1.320 . S
C37 O35 1.214 . S
O38 Cd30 2.277 . S
O38 C33 1.209 . S
C39 O36 1.258 . S
C39 O41 1.282 . S
O40 Cd32 2.277 . S
O40 C33 1.226 . S
O41 Cd32 2.356 . S
O41 C39 1.282 . S
C42 O43 1.306 . S
C42 O45 1.160 . S
O43 C42 1.306 . S
O43 Cd44 2.228 . S
Cd44 O43 2.228 . S
Cd44 O48 2.273 . S
Cd44 O52 2.277 . S
O45 C42 1.160 . S
O45 Cd46 2.203 . S
Cd46 O45 2.203 . S
Cd46 O48 2.411 . S
Cd46 O49 2.333 . S
Cd46 O50 2.352 . S
Cd46 O54 2.277 . S
Cd46 O55 2.356 . S
C47 O52 1.209 . S
C47 O54 1.226 . S
O48 Cd44 2.273 . S
O48 Cd46 2.411 . S
O48 C51 1.320 . S
O49 Cd46 2.333 . S
O49 C51 1.214 . S
O50 Cd46 2.352 . S
O50 C53 1.258 . S
C51 O48 1.320 . S
C51 O49 1.214 . S
O52 Cd44 2.277 . S
O52 C47 1.209 . S
C53 O50 1.258 . S
C53 O55 1.282 . S
O54 Cd46 2.277 . S
O54 C47 1.226 . S
O55 Cd46 2.356 . S
O55 C53 1.282 . S
C56 O57 1.306 . S
C56 O59 1.160 . S
O57 C56 1.306 . S
O57 Cd58 2.228 . S
Cd58 O57 2.228 . S
Cd58 O62 2.273 . S
Cd58 O66 2.277 . S
O59 C56 1.160 . S
O59 Cd60 2.203 . S
Cd60 O59 2.203 . S
Cd60 O62 2.411 . S
Cd60 O63 2.333 . S
Cd60 O64 2.352 . S
Cd60 O68 2.277 . S
Cd60 O69 2.356 . S
C61 O66 1.209 . S
C61 O68 1.226 . S
O62 Cd58 2.273 . S
O62 Cd60 2.411 . S
O62 C65 1.320 . S
O63 Cd60 2.333 . S
O63 C65 1.214 . S
O64 Cd60 2.352 . S
O64 C67 1.258 . S
C65 O62 1.320 . S
C65 O63 1.214 . S
O66 Cd58 2.277 . S
O66 C61 1.209 . S
C67 O64 1.258 . S
C67 O69 1.282 . S
O68 Cd60 2.277 . S
O68 C61 1.226 . S
O69 Cd60 2.356 . S
O69 C67 1.282 . S
C70 O71 1.306 . S
C70 O73 1.160 . S
O71 C70 1.306 . S
O71 Cd72 2.228 . S
Cd72 O71 2.228 . S
Cd72 O76 2.273 . S
Cd72 O80 2.277 . S
O73 C70 1.160 . S
O73 Cd74 2.203 . S
Cd74 O73 2.203 . S
Cd74 O76 2.411 . S
Cd74 O77 2.333 . S
Cd74 O78 2.352 . S
Cd74 O82 2.277 . S
Cd74 O83 2.356 . S
C75 O80 1.209 . S
C75 O82 1.226 . S
O76 Cd72 2.273 . S
O76 Cd74 2.411 . S
O76 C79 1.320 . S
O77 Cd74 2.333 . S
O77 C79 1.214 . S
O78 Cd74 2.352 . S
O78 C81 1.258 . S
C79 O76 1.320 . S
C79 O77 1.214 . S
O80 Cd72 2.277 . S
O80 C75 1.209 . S
C81 O78 1.258 . S
C81 O83 1.282 . S
O82 Cd74 2.277 . S
O82 C75 1.226 . S
O83 Cd74 2.356 . S
O83 C81 1.282 . S
C84 O85 1.306 . S
C84 O87 1.160 . S
O85 C84 1.306 . S
O85 Cd86 2.228 . S
Cd86 O85 2.228 . S
Cd86 O90 2.273 . S
Cd86 O94 2.277 . S
O87 C84 1.160 . S
O87 Cd88 2.203 . S
Cd88 O87 2.203 . S
Cd88 O90 2.411 . S
Cd88 O91 2.333 . S
Cd88 O92 2.352 . S
Cd88 O96 2.277 . S
Cd88 O97 2.356 . S
C89 O94 1.209 . S
C89 O96 1.226 . S
O90 Cd86 2.273 . S
O90 Cd88 2.411 . S
O90 C93 1.320 . S
O91 Cd88 2.333 . S
O91 C93 1.214 . S
O92 Cd88 2.352 . S
O92 C95 1.258 . S
C93 O90 1.320 . S
C93 O91 1.214 . S
O94 Cd86 2.277 . S
O94 C89 1.209 . S
C95 O92 1.258 . S
C95 O97 1.282 . S
O96 Cd88 2.277 . S
O96 C89 1.226 . S
O97 Cd88 2.356 . S
O97 C95 1.282 . S
C98 O99 1.306 . S
C98 O101 1.160 . S
O99 C98 1.306 . S
O99 Cd100 2.228 . S
Cd100 O99 2.228 . S
Cd100 O104 2.273 . S
Cd100 O108 2.277 . S
O101 C98 1.160 . S
O101 Cd102 2.203 . S
Cd102 O101 2.203 . S
Cd102 O104 2.411 . S
Cd102 O105 2.333 . S
Cd102 O106 2.352 . S
Cd102 O110 2.277 . S
Cd102 O111 2.356 . S
C103 O108 1.209 . S
C103 O110 1.226 . S
O104 Cd100 2.273 . S
O104 Cd102 2.411 . S
O104 C107 1.320 . S
O105 Cd102 2.333 . S
O105 C107 1.214 . S
O106 Cd102 2.352 . S
O106 C109 1.258 . S
C107 O104 1.320 . S
C107 O105 1.214 . S
O108 Cd100 2.277 . S
O108 C103 1.209 . S
C109 O106 1.258 . S
C109 O111 1.282 . S
O110 Cd102 2.277 . S
O110 C103 1.226 . S
O111 Cd102 2.356 . S
O111 C109 1.282 . S
C112 C113 1.170 . S
C112 C114 1.380 . S
C113 C112 1.170 . S
C114 C112 1.380 . S
C114 C115 1.170 . S
C115 C114 1.170 . S
C116 C117 1.170 . S
C116 C118 1.380 1_545 S
C117 C116 1.170 . S
C118 C116 1.380 1_565 S
C118 C119 1.170 . S
C119 C118 1.170 . S
C120 C121 1.170 . S
C120 C122 1.380 . S
C121 C120 1.170 . S
C122 C120 1.380 . S
C122 C123 1.170 . S
C123 C122 1.170 . S
C124 C125 1.170 . S
C124 C126 1.380 1_545 S
C125 C124 1.170 . S
C126 C124 1.380 1_565 S
C126 C127 1.170 . S
C127 C126 1.170 . S
C128 C129 1.170 . S
C128 C130 1.380 . S
C129 C128 1.170 . S
C130 C128 1.380 . S
C130 C131 1.170 . S
C131 C130 1.170 . S
C132 C133 1.170 . S
C132 C134 1.380 1_545 S
C133 C132 1.170 . S
C134 C132 1.380 1_565 S
C134 C135 1.170 . S
C135 C134 1.170 . S
C136 C137 1.170 . S
C136 C138 1.380 . S
C137 C136 1.170 . S
C138 C136 1.380 . S
C138 C139 1.170 . S
C139 C138 1.170 . S
C140 C141 1.170 . S
C140 C142 1.380 1_565 S
C141 C140 1.170 . S
C142 C140 1.380 1_545 S
C142 C143 1.170 . S
C143 C142 1.170 . S
C144 C145 1.170 . S
C144 C146 1.380 1_455 S
C145 C144 1.170 . S
C146 C144 1.380 1_655 S
C146 C147 1.170 . S
C147 C146 1.170 . S
C148 C149 1.170 . S
C148 C150 1.380 1_565 S
C149 C148 1.170 . S
C150 C148 1.380 1_545 S
C150 C151 1.170 . S
C151 C150 1.170 . S
C152 C153 1.170 . S
C152 C154 1.380 1_554 S
C153 C152 1.170 . S
C154 C152 1.380 1_556 S
C154 C155 1.170 . S
C155 C154 1.170 . S
C156 C157 1.170 . S
C156 C158 1.380 1_466 S
C157 C156 1.170 . S
C158 C156 1.380 1_644 S
C158 C159 1.170 . S
C159 C158 1.170 . S
C160 C161 1.170 . S
C160 C162 1.380 . S
C161 C160 1.170 . S
C162 C160 1.380 . S
C162 C163 1.170 . S
C163 C162 1.170 . S
C164 C165 1.170 . S
C164 C166 1.380 . S
C165 C164 1.170 . S
C166 C164 1.380 . S
C166 C167 1.170 . S
C167 C166 1.170 . S
C168 C169 1.170 . S
C168 C170 1.380 . S
C169 C168 1.170 . S
C170 C168 1.380 . S
C170 C171 1.170 . S
C171 C170 1.170 . S
C172 C173 1.170 . S
C172 C174 1.380 . S
C173 C172 1.170 . S
C174 C172 1.380 . S
C174 C175 1.170 . S
C175 C174 1.170 . S
C113 C5 1.439 . S
C115 C37 1.437 . S
C117 C51 1.439 1_455 S
C119 C19 1.441 . S
C121 C33 1.439 . S
C123 C9 1.441 1_655 S
C125 C47 1.434 . S
C127 C23 1.441 . S
C129 C93 1.436 . S
C131 C61 1.429 . S
C133 C75 1.433 . S
C135 C107 1.438 1_655 S
C137 C89 1.433 . S
C139 C65 1.438 1_455 S
C141 C103 1.432 . S
C143 C79 1.437 . S
C145 C11 1.501 . S
C147 C67 1.510 . S
C149 C25 1.499 . S
C151 C81 1.515 . S
C153 C39 1.500 . S
C155 C95 1.511 . S
C157 C109 1.513 . S
C159 C53 1.508 . S
C161 C0 1.494 . S
C163 C14 1.503 . S
C165 C42 1.495 . S
C167 C28 1.496 . S
C169 C70 1.494 . S
C171 C56 1.494 . S
C173 C84 1.504 . S
C175 C98 1.502 . S
