# Generated by pormake.
# Topology reo, (8)-cn, num edge types: 1
# Building blocks:
#     Node 0, Type 0, BuildingBlock: TAGTUT_clean_sbu_3, # of connection points: 8
#     Node 1, Type 0, BuildingBlock: TAGTUT_clean_sbu_3, # of connection points: 8
#     Node 2, Type 0, BuildingBlock: TAGTUT_clean_sbu_3, # of connection points: 8
#     Edge 3, Type (0, 0), BuildingBlock: AJUNOK_clean_linker_0, # of connection points: 2
#     Edge 4, Type (0, 0), BuildingBlock: AJUNOK_clean_linker_0, # of connection points: 2
#     Edge 5, Type (0, 0), BuildingBlock: AJUNOK_clean_linker_0, # of connection points: 2
#     Edge 6, Type (0, 0), BuildingBlock: AJUNOK_clean_linker_0, # of connection points: 2
#     Edge 7, Type (0, 0), BuildingBlock: AJUNOK_clean_linker_0, # of connection points: 2
#     Edge 8, Type (0, 0), BuildingBlock: AJUNOK_clean_linker_0, # of connection points: 2
#     Edge 9, Type (0, 0), BuildingBlock: AJUNOK_clean_linker_0, # of connection points: 2
#     Edge 10, Type (0, 0), BuildingBlock: AJUNOK_clean_linker_0, # of connection points: 2
#     Edge 11, Type (0, 0), BuildingBlock: AJUNOK_clean_linker_0, # of connection points: 2
#     Edge 12, Type (0, 0), BuildingBlock: AJUNOK_clean_linker_0, # of connection points: 2
#     Edge 13, Type (0, 0), BuildingBlock: AJUNOK_clean_linker_0, # of connection points: 2
#     Edge 14, Type (0, 0), BuildingBlock: AJUNOK_clean_linker_0, # of connection points: 2
# Relax obj value: 0.169
# Max RMSD: 0.190
# Mean RMSD: 0.190
data_MOF--net-reo--node1-TAGTUT_clean_sbu_3--edge1-AJUNOK_clean_linker_0
_symmetry_space_group_name_H-M    P1
_symmetry_Int_Tables_number       1
_symmetry_cell_setting            triclinic
loop_
_symmetry_equiv_pos_as_xyz
'x, y, z'
_cell_length_a     18.501695
_cell_length_b     18.398998
_cell_length_c     18.328493
_cell_angle_alpha  90.75308
_cell_angle_beta   91.190566
_cell_angle_gamma 91.15351
loop_
_atom_site_label
_atom_site_type_symbol
_atom_site_fract_x
_atom_site_fract_y
_atom_site_fract_z
_atom_type_partial_charge
C0 C 0.95536 0.83026 0.55336 0.0
C1 C 0.72151 -0.00614 0.58055 0.0
C2 C 0.7888 0.07112 0.36984 0.0
Mg3 Mg 0.11303 0.88919 0.48597 0.0
Mg4 Mg 0.14553 0.06155 0.5096 0.0
O5 O 0.08772 -0.00895 0.46034 0.0
Mg6 Mg -0.01279 -0.00546 0.49457 0.0
O7 O 0.88679 -0.00391 0.52854 0.0
Mg8 Mg 0.84021 0.92293 0.4601 0.0
Mg9 Mg 0.84743 0.09042 0.52581 0.0
C10 C 0.02241 0.16045 0.44338 0.0
O11 O 0.02084 0.06321 0.59564 0.0
O12 O 0.21883 0.9186 0.42171 0.0
O13 O 0.93234 0.14572 0.59317 0.0
O14 O 0.17014 0.91414 0.59461 0.0
O15 O 0.23841 0.03714 0.45021 0.0
O16 O 0.16219 0.03164 0.62175 0.0
O17 O 0.94879 0.92704 0.39492 0.0
O18 O 0.05032 0.86382 0.38289 0.0
C19 C 0.98705 0.88079 0.36046 0.0
C20 C 0.25485 0.97905 0.41586 0.0
O21 O 0.97721 0.10654 0.43945 0.0
O22 O 0.74208 0.93958 0.54069 0.0
O23 O 0.08576 0.15506 0.47231 0.0
O24 O 0.79392 0.00399 0.38302 0.0
O25 O 0.75387 0.05594 0.58083 0.0
O26 O 0.8106 0.1195 0.41594 0.0
O27 O 0.00289 0.88177 0.54683 0.0
O28 O 0.89026 0.83849 0.53106 0.0
C29 C 0.17758 0.96697 0.63962 0.0
C30 C -0.00667 0.12271 0.61785 0.0
C31 C 0.35979 0.98218 0.88038 0.0
C32 C 0.40307 0.25633 0.96241 0.0
C33 C 0.62764 0.18331 0.97265 0.0
Mg34 Mg 0.4562 0.8391 0.93302 0.0
Mg35 Mg 0.51508 0.84583 0.10424 0.0
O36 O 0.52052 0.88685 0.00965 0.0
Mg37 Mg 0.48803 0.98839 0.00172 0.0
O38 O 0.45374 0.08941 0.99095 0.0
Mg39 Mg 0.4822 0.10994 0.88832 0.0
Mg40 Mg 0.4932 0.15493 0.06081 0.0
C41 C 0.59914 -0.00311 0.14092 0.0
O42 O 0.42792 0.98379 0.11027 0.0
O43 O 0.53417 0.74227 0.95555 0.0
O44 O 0.45474 0.09618 0.1552 0.0
O45 O 0.37558 0.79535 0.01029 0.0
O46 O 0.57589 0.75411 0.07188 0.0
O47 O 0.40495 0.80706 0.12762 0.0
O48 O 0.54532 0.00047 0.89049 0.0
O49 O 0.531 0.88609 0.85063 0.0
C50 C 0.55396 0.951 0.84119 0.0
C51 C 0.57581 0.7227 0.00906 0.0
O52 O 0.58471 0.02267 0.07744 0.0
O53 O 0.41471 0.21541 0.90631 0.0
O54 O 0.57236 0.93605 0.16309 0.0
O55 O 0.58727 0.17085 0.91677 0.0
O56 O 0.43138 0.24502 0.02542 0.0
O57 O 0.60559 0.17224 0.03713 0.0
O58 O 0.39263 0.94751 0.93084 0.0
O59 O 0.38186 0.04471 0.85986 0.0
C60 C 0.36017 0.78842 0.07676 0.0
C61 C 0.42761 0.03175 0.16184 0.0
C62 C 0.83579 0.55883 0.95806 0.0
C63 C 0.00127 0.57089 0.72314 0.0
C64 C 0.06218 0.35701 0.80149 0.0
Mg65 Mg 0.88846 0.48643 0.11907 0.0
Mg66 Mg 0.06367 0.50126 0.14966 0.0
O67 O -0.01179 0.45632 0.09372 0.0
Mg68 Mg -0.0068 0.48999 -0.00754 0.0
O69 O -0.00104 0.52341 0.89085 0.0
Mg70 Mg 0.92222 0.45891 0.84537 0.0
Mg71 Mg 0.09347 0.51223 0.85193 0.0
C72 C 0.15371 0.42683 0.02472 0.0
O73 O 0.06857 0.5863 0.02438 0.0
O74 O 0.9157 0.42025 0.22629 0.0
O75 O 0.15325 0.57486 0.93832 0.0
O76 O 0.91995 0.59224 0.17543 0.0
O77 O 0.03549 0.44224 0.2433 0.0
O78 O 0.03813 0.61455 0.16815 0.0
O79 O 0.9199 0.39548 0.95502 0.0
O80 O 0.85593 0.38515 0.0567 0.0
C81 C 0.87155 0.36317 -0.00738 0.0
C82 C 0.97613 0.41115 0.26147 0.0
O83 O 0.09722 0.42621 0.98306 0.0
O84 O 0.94526 0.53474 0.74529 0.0
O85 O 0.15557 0.45962 0.08723 0.0
O86 O -0.00236 0.37767 0.80526 0.0
O87 O 0.06336 0.56778 0.75507 0.0
O88 O 0.11507 0.39836 0.82229 0.0
O89 O 0.88511 0.54912 0.00749 0.0
O90 O 0.84354 0.53484 0.89318 0.0
C91 C 0.9745 0.63472 0.18359 0.0
C92 C 0.13044 0.60274 -0.00176 0.0
C93 C 0.05131 0.31607 0.31665 0.0
C94 C 0.98427 0.35127 0.31408 0.0
C95 C 0.0625 0.2558 0.36002 0.0
C96 C 0.00742 0.22758 0.40323 0.0
H97 H 0.09559 0.33349 0.28282 0.0
H98 H 0.11447 0.22973 0.35787 0.0
S99 S 0.82572 0.30531 0.42582 0.0
N100 N 0.86357 0.35676 0.36331 0.0
N101 N 0.88634 0.24434 0.44865 0.0
C102 C 0.94105 0.26362 0.40434 0.0
C103 C 0.92902 0.32515 0.35875 0.0
C104 C 0.76817 0.07158 0.2363 0.0
C105 C 0.74292 0.08819 0.30643 0.0
C106 C 0.72012 0.04858 0.1797 0.0
C107 C 0.64591 0.03945 0.19259 0.0
H108 H 0.82577 0.06915 0.2273 0.0
H109 H 0.7419 0.03133 0.12801 0.0
S110 S 0.55252 0.08346 0.3642 0.0
N111 N 0.6386 0.10258 0.38261 0.0
N112 N 0.54905 0.05539 0.27828 0.0
C113 C 0.61973 0.0616 0.26055 0.0
C114 C 0.66814 0.08749 0.31692 0.0
C115 C 0.00913 0.83014 0.23974 0.0
C116 C 0.96012 0.83919 0.29681 0.0
C117 C 0.01127 0.76485 0.20019 0.0
C118 C 0.96292 0.70758 0.21507 0.0
H119 H 0.05202 0.87015 0.23198 0.0
H120 H 0.05375 0.75765 0.16106 0.0
S121 S 0.81303 0.71187 0.34696 0.0
N122 N 0.8549 0.79149 0.35784 0.0
N123 N 0.85591 0.66923 0.2814 0.0
C124 C 0.90698 0.72016 0.26472 0.0
C125 C 0.90586 0.78641 0.30579 0.0
C126 C 0.34561 0.06999 0.2585 0.0
C127 C 0.38893 0.01578 0.2294 0.0
C128 C 0.30471 0.05728 0.31999 0.0
C129 C 0.30515 0.98962 0.35528 0.0
H130 H 0.34158 0.1223 0.23233 0.0
H131 H 0.27039 0.10061 0.33838 0.0
S132 S 0.41909 0.83375 0.3078 0.0
N133 N 0.43786 0.89531 0.24569 0.0
N134 N 0.35755 0.8699 0.36051 0.0
C135 C 0.35011 0.93549 0.32842 0.0
C136 C 0.39295 0.94899 0.26573 0.0
C137 C 0.91189 0.71853 0.61532 0.0
C138 C 0.9708 0.76086 0.59052 0.0
C139 C 0.92207 0.65407 0.65316 0.0
C140 C -0.0083 0.62874 0.66825 0.0
H141 H 0.85682 0.73633 0.60771 0.0
H142 H 0.87483 0.62615 0.67395 0.0
S143 S 0.16384 0.7123 0.60511 0.0
N144 N 0.10082 0.76804 0.57641 0.0
N145 N 0.12072 0.64648 0.64777 0.0
C146 C 0.05114 0.66789 0.63982 0.0
C147 C 0.04056 0.73408 0.60124 0.0
C148 C 0.23721 -0.00067 0.83467 0.0
C149 C 0.29623 0.95269 0.84119 0.0
C150 C 0.19511 0.00034 0.77062 0.0
C151 C 0.20983 0.95337 0.71213 0.0
H152 H 0.2295 0.04165 0.87533 0.0
H153 H 0.15443 0.0416 0.76494 0.0
S154 S 0.3476 0.8093 0.7104 0.0
N155 N 0.35955 0.8505 0.79045 0.0
N156 N 0.27894 0.84989 0.67018 0.0
C157 C 0.26191 0.8993 0.72251 0.0
C158 C 0.30532 0.89917 0.7876 0.0
C159 C 0.01462 0.23197 0.79005 0.0
C160 C 0.06971 0.28258 0.77258 0.0
C161 C -0.00567 0.17545 0.74196 0.0
C162 C 0.0304 0.16568 0.67636 0.0
H163 H 0.98117 0.24134 0.83702 0.0
H164 H 0.94655 0.14287 0.75346 0.0
S165 S 0.19294 0.26858 0.61717 0.0
N166 N 0.16936 0.31038 0.69313 0.0
N167 N 0.13479 0.19995 0.60492 0.0
C168 C 0.09311 0.20818 0.66426 0.0
C169 C 0.11242 0.26758 0.71237 0.0
C170 C 0.62049 0.90497 0.7335 0.0
C171 C 0.59202 0.96471 0.77195 0.0
C172 C 0.65733 0.91388 0.66819 0.0
C173 C 0.66741 0.98299 0.63829 0.0
H174 H 0.61626 0.85053 0.75505 0.0
H175 H 0.68133 0.86667 0.64327 0.0
S176 S 0.59484 0.15598 0.7112 0.0
N177 N 0.57046 0.0943 0.77098 0.0
N178 N 0.63923 0.11167 0.64793 0.0
C179 C 0.6357 0.04279 0.67381 0.0
C180 C 0.59849 0.03361 0.74077 0.0
C181 C 0.28817 0.41325 0.01825 0.0
C182 C 0.218 0.38731 -8e-05 0.0
C183 C 0.34931 0.37377 -0.00062 0.0
C184 C 0.34254 0.30719 0.96102 0.0
H185 H 0.29607 0.46324 0.04923 0.0
H186 H 0.40211 0.39362 0.01814 0.0
S187 S 0.17138 0.21196 0.90621 0.0
N188 N 0.14556 0.28862 0.94465 0.0
N189 N 0.26054 0.21557 0.90799 0.0
C190 C 0.27297 0.28155 0.94064 0.0
C191 C 0.21067 0.32123 0.96054 0.0
C192 C 0.23849 0.62796 0.07864 0.0
C193 C 0.17852 0.65394 0.03941 0.0
C194 C 0.29405 0.67542 0.10408 0.0
C195 C 0.29145 0.75016 0.09004 0.0
H196 H 0.24498 0.57031 0.08546 0.0
H197 H 0.34289 0.65243 0.12689 0.0
S198 S 0.14025 0.84623 0.00043 0.0
N199 N 0.11462 0.75966 -0.00295 0.0
N200 N 0.21977 0.84901 0.04326 0.0
C201 C 0.22801 0.77741 0.05794 0.0
C202 C 0.17136 0.72915 0.03256 0.0
C203 C 0.75557 0.20145 0.01298 0.0
C204 C 0.70006 0.21547 0.96224 0.0
C205 C 0.81963 0.24277 0.01375 0.0
C206 C 0.82922 0.30049 0.96506 0.0
H207 H 0.74763 0.16166 0.05529 0.0
H208 H 0.85818 0.23521 0.05824 0.0
S209 S 0.70631 0.34983 0.81297 0.0
N210 N 0.66382 0.28243 0.85397 0.0
N211 N 0.78393 0.36219 0.858 0.0
C212 C 0.77829 0.3092 0.90862 0.0
C213 C 0.71326 0.26629 0.90688 0.0
C214 C 0.74138 0.60728 0.04217 0.0
C215 C 0.76859 0.59912 0.9717 0.0
C216 C 0.6762 0.64339 0.0535 0.0
C217 C 0.6358 0.67245 -0.00522 0.0
H218 H 0.7705 0.5858 0.08874 0.0
H219 H 0.65823 0.65009 0.10902 0.0
S220 S 0.68516 0.66763 0.79948 0.0
N221 N 0.75071 0.62497 0.84218 0.0
N222 N 0.6287 0.69078 0.8637 0.0
C223 C 0.662 0.66342 0.92398 0.0
C224 C 0.72835 0.62761 0.91247 0.0
loop_
_geom_bond_atom_site_label_1
_geom_bond_atom_site_label_2
_geom_bond_distance
_geom_bond_site_symmetry_2
_ccdc_geom_bond_type
C0 O27 1.312 1_655 S
C0 O28 1.208 . S
C1 O22 1.331 . S
C1 O25 1.244 1_565 S
C2 O24 1.264 1_545 S
C2 O26 1.273 . S
Mg3 O5 1.936 1_565 S
Mg3 O12 2.081 . S
Mg3 O14 2.023 . S
Mg3 O18 2.031 . S
Mg3 O27 2.291 . S
Mg4 O5 1.963 . S
Mg4 O15 1.942 . S
Mg4 O16 1.955 . S
Mg4 O23 1.986 . S
O5 Mg3 1.936 1_545 S
O5 Mg4 1.963 . S
O5 Mg6 1.915 . S
Mg6 O5 1.915 . S
Mg6 O7 1.915 1_455 S
Mg6 O11 2.013 . S
Mg6 O17 2.114 1_445 S
Mg6 O21 2.013 1_455 S
Mg6 O27 2.114 1_545 S
O7 Mg6 1.915 1_655 S
O7 Mg8 1.936 1_545 S
O7 Mg9 1.963 . S
Mg8 O7 1.936 1_565 S
Mg8 O17 2.291 . S
Mg8 O22 2.081 . S
Mg8 O24 2.023 . S
Mg8 O28 2.031 . S
Mg9 O7 1.963 . S
Mg9 O13 1.986 . S
Mg9 O25 1.942 . S
Mg9 O26 1.955 . S
C10 O21 1.191 1_455 S
C10 O23 1.307 . S
O11 Mg6 2.013 . S
O11 C30 1.191 1_455 S
O12 Mg3 2.081 . S
O12 C20 1.331 . S
O13 Mg9 1.986 . S
O13 C30 1.307 . S
O14 Mg3 2.023 . S
O14 C29 1.264 1_565 S
O15 Mg4 1.942 . S
O15 C20 1.244 1_545 S
O16 Mg4 1.955 . S
O16 C29 1.273 . S
O17 Mg6 2.114 1_665 S
O17 Mg8 2.291 . S
O17 C19 1.312 1_655 S
O18 Mg3 2.031 . S
O18 C19 1.208 . S
C19 O17 1.312 1_455 S
C19 O18 1.208 . S
C20 O12 1.331 . S
C20 O15 1.244 1_565 S
O21 Mg6 2.013 1_655 S
O21 C10 1.191 1_655 S
O22 C1 1.331 . S
O22 Mg8 2.081 . S
O23 Mg4 1.986 . S
O23 C10 1.307 . S
O24 C2 1.264 1_565 S
O24 Mg8 2.023 . S
O25 C1 1.244 1_545 S
O25 Mg9 1.942 . S
O26 C2 1.273 . S
O26 Mg9 1.955 . S
O27 C0 1.312 1_455 S
O27 Mg3 2.291 . S
O27 Mg6 2.114 1_565 S
O28 C0 1.208 . S
O28 Mg8 2.031 . S
C29 O14 1.264 1_545 S
C29 O16 1.273 . S
C30 O11 1.191 1_655 S
C30 O13 1.307 . S
C31 O58 1.312 1_545 S
C31 O59 1.208 . S
C32 O53 1.331 . S
C32 O56 1.244 1_556 S
C33 O55 1.264 1_554 S
C33 O57 1.273 . S
Mg34 O36 1.936 1_556 S
Mg34 O43 2.081 . S
Mg34 O45 2.023 . S
Mg34 O49 2.031 . S
Mg34 O58 2.291 . S
Mg35 O36 1.963 . S
Mg35 O46 1.942 . S
Mg35 O47 1.955 . S
Mg35 O54 1.986 . S
O36 Mg34 1.936 1_554 S
O36 Mg35 1.963 . S
O36 Mg37 1.915 1_565 S
Mg37 O36 1.915 1_545 S
Mg37 O38 1.915 . S
Mg37 O42 2.013 1_545 S
Mg37 O48 2.114 1_554 S
Mg37 O52 2.013 . S
Mg37 O58 2.114 1_544 S
O38 Mg37 1.915 . S
O38 Mg39 1.936 1_554 S
O38 Mg40 1.963 . S
Mg39 O38 1.936 1_556 S
Mg39 O48 2.291 . S
Mg39 O53 2.081 . S
Mg39 O55 2.023 . S
Mg39 O59 2.031 . S
Mg40 O38 1.963 . S
Mg40 O44 1.986 . S
Mg40 O56 1.942 . S
Mg40 O57 1.955 . S
C41 O52 1.191 1_565 S
C41 O54 1.307 . S
O42 Mg37 2.013 1_565 S
O42 C61 1.191 1_565 S
O43 Mg34 2.081 . S
O43 C51 1.331 . S
O44 Mg40 1.986 . S
O44 C61 1.307 . S
O45 Mg34 2.023 . S
O45 C60 1.264 1_556 S
O46 Mg35 1.942 . S
O46 C51 1.244 1_554 S
O47 Mg35 1.955 . S
O47 C60 1.273 . S
O48 Mg37 2.114 1_556 S
O48 Mg39 2.291 . S
O48 C50 1.312 1_545 S
O49 Mg34 2.031 . S
O49 C50 1.208 . S
C50 O48 1.312 1_565 S
C50 O49 1.208 . S
C51 O43 1.331 . S
C51 O46 1.244 1_556 S
O52 Mg37 2.013 . S
O52 C41 1.191 1_545 S
O53 C32 1.331 . S
O53 Mg39 2.081 . S
O54 Mg35 1.986 . S
O54 C41 1.307 . S
O55 C33 1.264 1_556 S
O55 Mg39 2.023 . S
O56 C32 1.244 1_554 S
O56 Mg40 1.942 . S
O57 C33 1.273 . S
O57 Mg40 1.955 . S
O58 C31 1.312 1_565 S
O58 Mg34 2.291 . S
O58 Mg37 2.114 1_566 S
O59 C31 1.208 . S
O59 Mg39 2.031 . S
C60 O45 1.264 1_554 S
C60 O47 1.273 . S
C61 O42 1.191 1_545 S
C61 O44 1.307 . S
C62 O89 1.312 1_556 S
C62 O90 1.208 . S
C63 O84 1.331 . S
C63 O87 1.244 1_655 S
C64 O86 1.264 1_455 S
C64 O88 1.273 . S
Mg65 O67 1.936 1_655 S
Mg65 O74 2.081 . S
Mg65 O76 2.023 . S
Mg65 O80 2.031 . S
Mg65 O89 2.291 . S
Mg66 O67 1.963 . S
Mg66 O77 1.942 . S
Mg66 O78 1.955 . S
Mg66 O85 1.986 . S
O67 Mg65 1.936 1_455 S
O67 Mg66 1.963 . S
O67 Mg68 1.915 . S
Mg68 O67 1.915 . S
Mg68 O69 1.915 1_554 S
Mg68 O73 2.013 . S
Mg68 O79 2.114 1_454 S
Mg68 O83 2.013 1_554 S
Mg68 O89 2.114 1_455 S
O69 Mg68 1.915 1_556 S
O69 Mg70 1.936 1_455 S
O69 Mg71 1.963 . S
Mg70 O69 1.936 1_655 S
Mg70 O79 2.291 . S
Mg70 O84 2.081 . S
Mg70 O86 2.023 . S
Mg70 O90 2.031 . S
Mg71 O69 1.963 . S
Mg71 O75 1.986 . S
Mg71 O87 1.942 . S
Mg71 O88 1.955 . S
C72 O83 1.191 1_554 S
C72 O85 1.307 . S
O73 Mg68 2.013 . S
O73 C92 1.191 1_554 S
O74 Mg65 2.081 . S
O74 C82 1.331 . S
O75 Mg71 1.986 . S
O75 C92 1.307 . S
O76 Mg65 2.023 . S
O76 C91 1.264 1_655 S
O77 Mg66 1.942 . S
O77 C82 1.244 1_455 S
O78 Mg66 1.955 . S
O78 C91 1.273 . S
O79 Mg68 2.114 1_656 S
O79 Mg70 2.291 . S
O79 C81 1.312 1_556 S
O80 Mg65 2.031 . S
O80 C81 1.208 . S
C81 O79 1.312 1_554 S
C81 O80 1.208 . S
C82 O74 1.331 . S
C82 O77 1.244 1_655 S
O83 Mg68 2.013 1_556 S
O83 C72 1.191 1_556 S
O84 C63 1.331 . S
O84 Mg70 2.081 . S
O85 Mg66 1.986 . S
O85 C72 1.307 . S
O86 C64 1.264 1_655 S
O86 Mg70 2.023 . S
O87 C63 1.244 1_455 S
O87 Mg71 1.942 . S
O88 C64 1.273 . S
O88 Mg71 1.955 . S
O89 C62 1.312 1_554 S
O89 Mg65 2.291 . S
O89 Mg68 2.114 1_655 S
O90 C62 1.208 . S
O90 Mg70 2.031 . S
C91 O76 1.264 1_455 S
C91 O78 1.273 . S
C92 O73 1.191 1_556 S
C92 O75 1.307 . S
C93 C94 1.369 1_455 S
C93 C95 1.419 . S
C93 H97 0.930 . S
C94 C93 1.369 1_655 S
C94 C103 1.429 . S
C95 C93 1.419 . S
C95 C96 1.363 . S
C95 H98 0.929 . S
C96 C95 1.363 . S
C96 C102 1.428 1_455 S
H97 C93 0.930 . S
H98 C95 0.929 . S
S99 N100 1.613 . S
S99 N101 1.610 . S
N100 S99 1.613 . S
N100 C103 1.350 . S
N101 S99 1.610 . S
N101 C102 1.351 . S
C102 C96 1.428 1_655 S
C102 N101 1.351 . S
C102 C103 1.434 . S
C103 C94 1.429 . S
C103 N100 1.350 . S
C103 C102 1.434 . S
C104 C105 1.369 . S
C104 C106 1.419 . S
C104 H108 0.930 . S
C105 C104 1.369 . S
C105 C114 1.429 1_545 S
C106 C104 1.419 . S
C106 C107 1.363 . S
C106 H109 0.929 . S
C107 C106 1.363 . S
C107 C113 1.428 1_545 S
H108 C104 0.930 . S
H109 C106 0.929 . S
S110 N111 1.613 . S
S110 N112 1.610 . S
N111 S110 1.613 . S
N111 C114 1.350 . S
N112 S110 1.610 . S
N112 C113 1.351 . S
C113 C107 1.428 1_565 S
C113 N112 1.351 . S
C113 C114 1.434 . S
C114 C105 1.429 1_565 S
C114 N111 1.350 . S
C114 C113 1.434 . S
C115 C116 1.371 . S
C115 C117 1.419 . S
C115 H119 0.930 . S
C116 C115 1.371 . S
C116 C125 1.428 1_455 S
C117 C115 1.419 . S
C117 C118 1.363 . S
C117 H120 0.929 . S
C118 C117 1.363 . S
C118 C124 1.428 1_455 S
H119 C115 0.930 . S
H120 C117 0.929 . S
S121 N122 1.613 . S
S121 N123 1.610 . S
N122 S121 1.613 . S
N122 C125 1.350 . S
N123 S121 1.610 . S
N123 C124 1.351 . S
C124 C118 1.428 1_655 S
C124 N123 1.351 . S
C124 C125 1.434 . S
C125 C116 1.428 1_655 S
C125 N122 1.350 . S
C125 C124 1.434 . S
C126 C127 1.369 . S
C126 C128 1.419 . S
C126 H130 0.930 . S
C127 C126 1.369 . S
C127 C136 1.429 1_545 S
C128 C126 1.419 . S
C128 C129 1.363 1_545 S
C128 H131 0.929 . S
C129 C128 1.363 1_565 S
C129 C135 1.428 . S
H130 C126 0.930 . S
H131 C128 0.929 . S
S132 N133 1.613 . S
S132 N134 1.610 . S
N133 S132 1.613 . S
N133 C136 1.350 . S
N134 S132 1.610 . S
N134 C135 1.351 . S
C135 C129 1.428 . S
C135 N134 1.351 . S
C135 C136 1.434 . S
C136 C127 1.429 1_565 S
C136 N133 1.350 . S
C136 C135 1.434 . S
C137 C138 1.369 1_655 S
C137 C139 1.419 . S
C137 H141 0.930 . S
C138 C137 1.369 1_455 S
C138 C147 1.429 . S
C139 C137 1.419 . S
C139 C140 1.363 . S
C139 H142 0.929 . S
C140 C139 1.363 . S
C140 C146 1.428 1_655 S
H141 C137 0.930 . S
H142 C139 0.929 . S
S143 N144 1.613 . S
S143 N145 1.610 . S
N144 S143 1.613 . S
N144 C147 1.350 . S
N145 S143 1.610 . S
N145 C146 1.351 . S
C146 C140 1.428 1_455 S
C146 N145 1.351 . S
C146 C147 1.434 . S
C147 C138 1.429 . S
C147 N144 1.350 . S
C147 C146 1.434 . S
C148 C149 1.362 1_545 S
C148 C150 1.419 . S
C148 H152 0.930 . S
C149 C148 1.362 1_565 S
C149 C158 1.434 . S
C150 C148 1.419 . S
C150 C151 1.363 . S
C150 H153 0.929 . S
C151 C150 1.363 . S
C151 C157 1.428 1_545 S
H152 C148 0.930 . S
H153 C150 0.929 . S
S154 N155 1.613 . S
S154 N156 1.610 . S
N155 S154 1.613 . S
N155 C158 1.350 . S
N156 S154 1.610 . S
N156 C157 1.351 . S
C157 C151 1.428 1_565 S
C157 N156 1.351 . S
C157 C158 1.434 . S
C158 C149 1.434 . S
C158 N155 1.350 . S
C158 C157 1.434 . S
C159 C160 1.369 1_655 S
C159 C161 1.419 . S
C159 H163 0.930 . S
C160 C159 1.369 1_455 S
C160 C169 1.429 . S
C161 C159 1.419 . S
C161 C162 1.363 1_655 S
C161 H164 0.929 . S
C162 C161 1.363 1_455 S
C162 C168 1.428 . S
H163 C159 0.930 . S
H164 C161 0.929 . S
S165 N166 1.613 . S
S165 N167 1.610 . S
N166 S165 1.613 . S
N166 C169 1.350 . S
N167 S165 1.610 . S
N167 C168 1.351 . S
C168 C162 1.428 . S
C168 N167 1.351 . S
C168 C169 1.434 . S
C169 C160 1.429 . S
C169 N166 1.350 . S
C169 C168 1.434 . S
C170 C171 1.369 1_565 S
C170 C172 1.419 . S
C170 H174 0.930 . S
C171 C170 1.369 1_545 S
C171 C180 1.429 . S
C172 C170 1.419 . S
C172 C173 1.363 . S
C172 H175 0.929 . S
C173 C172 1.363 . S
C173 C179 1.428 1_565 S
H174 C170 0.930 . S
H175 C172 0.929 . S
S176 N177 1.613 . S
S176 N178 1.610 . S
N177 S176 1.613 . S
N177 C180 1.350 . S
N178 S176 1.610 . S
N178 C179 1.351 . S
C179 C173 1.428 1_545 S
C179 N178 1.351 . S
C179 C180 1.434 . S
C180 C171 1.429 . S
C180 N177 1.350 . S
C180 C179 1.434 . S
C181 C182 1.369 . S
C181 C183 1.419 . S
C181 H185 0.930 . S
C182 C181 1.369 . S
C182 C191 1.429 1_554 S
C183 C181 1.419 . S
C183 C184 1.363 1_554 S
C183 H186 0.929 . S
C184 C183 1.363 1_556 S
C184 C190 1.428 . S
H185 C181 0.930 . S
H186 C183 0.929 . S
S187 N188 1.613 . S
S187 N189 1.610 . S
N188 S187 1.613 . S
N188 C191 1.350 . S
N189 S187 1.610 . S
N189 C190 1.351 . S
C190 C184 1.428 . S
C190 N189 1.351 . S
C190 C191 1.434 . S
C191 C182 1.429 1_556 S
C191 N188 1.350 . S
C191 C190 1.434 . S
C192 C193 1.369 . S
C192 C194 1.419 . S
C192 H196 0.930 . S
C193 C192 1.369 . S
C193 C202 1.429 1_554 S
C194 C192 1.419 . S
C194 C195 1.363 . S
C194 H197 0.929 . S
C195 C194 1.363 . S
C195 C201 1.428 1_554 S
H196 C192 0.930 . S
H197 C194 0.929 . S
S198 N199 1.613 . S
S198 N200 1.610 . S
N199 S198 1.613 . S
N199 C202 1.350 . S
N200 S198 1.610 . S
N200 C201 1.351 . S
C201 C195 1.428 1_556 S
C201 N200 1.351 . S
C201 C202 1.434 . S
C202 C193 1.429 1_556 S
C202 N199 1.350 . S
C202 C201 1.434 . S
C203 C204 1.369 1_556 S
C203 C205 1.419 . S
C203 H207 0.930 . S
C204 C203 1.369 1_554 S
C204 C213 1.429 . S
C205 C203 1.419 . S
C205 C206 1.360 1_556 S
C205 H208 0.929 . S
C206 C205 1.360 1_554 S
C206 C212 1.433 . S
H207 C203 0.930 . S
H208 C205 0.929 . S
S209 N210 1.613 . S
S209 N211 1.610 . S
N210 S209 1.613 . S
N210 C213 1.350 . S
N211 S209 1.610 . S
N211 C212 1.351 . S
C212 C206 1.433 . S
C212 N211 1.351 . S
C212 C213 1.434 . S
C213 C204 1.429 . S
C213 N210 1.350 . S
C213 C212 1.434 . S
C214 C215 1.369 . S
C214 C216 1.419 . S
C214 H218 0.930 . S
C215 C214 1.369 . S
C215 C224 1.429 1_554 S
C216 C214 1.419 . S
C216 C217 1.363 1_554 S
C216 H219 0.929 . S
C217 C216 1.363 1_556 S
C217 C223 1.428 . S
H218 C214 0.930 . S
H219 C216 0.929 . S
S220 N221 1.613 . S
S220 N222 1.610 . S
N221 S220 1.613 . S
N221 C224 1.350 . S
N222 S220 1.610 . S
N222 C223 1.351 . S
C223 C217 1.428 . S
C223 N222 1.351 . S
C223 C224 1.434 . S
C224 C215 1.429 1_556 S
C224 N221 1.350 . S
C224 C223 1.434 . S
C94 C82 1.414 . S
C96 C10 1.360 . S
C105 C2 1.451 . S
C107 C41 1.383 1_545 S
C116 C19 1.394 . S
C118 C91 1.514 . S
C127 C61 1.366 . S
C129 C20 1.414 . S
C138 C0 1.326 1_455 S
C140 C63 1.437 . S
C149 C31 1.400 1_565 S
C151 C29 1.513 . S
C160 C64 1.452 . S
C162 C30 1.389 1_455 S
C171 C50 1.327 1_545 S
C173 C1 1.437 . S
C182 C72 1.367 . S
C184 C32 1.412 . S
C193 C92 1.386 1_554 S
C195 C60 1.451 . S
C204 C33 1.514 . S
C206 C81 1.395 . S
C215 C62 1.334 1_554 S
C217 C51 1.437 . S
