# Generated by pormake.
# Topology pcu, (6)-cn, num edge types: 1
# Building blocks:
#     Node 0, Type 0, BuildingBlock: LEVNOQ01_clean_sbu_1, # of connection points: 6
#     Edge 1, Type (0, 0), BuildingBlock: AJUNOK_clean_linker_0, # of connection points: 2
#     Edge 2, Type (0, 0), BuildingBlock: AJUNOK_clean_linker_0, # of connection points: 2
#     Edge 3, Type (0, 0), BuildingBlock: AJUNOK_clean_linker_0, # of connection points: 2
# Relax obj value: 0.007
# Max RMSD: 0.050
# Mean RMSD: 0.050
data_MOF--net-pcu--node1-LEVNOQ01_clean_sbu_1--edge1-AJUNOK_clean_linker_0
_symmetry_space_group_name_H-M    P1
_symmetry_Int_Tables_number       1
_symmetry_cell_setting            triclinic
loop_
_symmetry_equiv_pos_as_xyz
'x, y, z'
_cell_length_a     12.172769
_cell_length_b     12.180365
_cell_length_c     11.749418
_cell_angle_alpha  67.672479
_cell_angle_beta   106.48209
_cell_angle_gamma 87.363663
loop_
_atom_site_label
_atom_site_type_symbol
_atom_site_fract_x
_atom_site_fract_y
_atom_site_fract_z
_atom_type_partial_charge
O0 O 0.70038 0.09132 0.85915 0.0
Mg1 Mg 0.83714 0.1612 0.79411 0.0
O2 O 0.81706 0.95833 0.05066 0.0
Mg3 Mg 0.01073 0.95845 0.0526 0.0
O4 O 0.96208 0.02533 0.82726 0.0
O5 O 0.85346 0.15715 0.6276 0.0
O6 O 0.20382 0.95668 0.05464 0.0
O7 O 0.0103 0.76623 0.05023 0.0
Mg8 Mg 0.17989 0.75271 0.30208 0.0
O9 O 0.06346 0.89225 0.27986 0.0
O10 O 0.32106 0.81361 0.23867 0.0
O11 O 0.10055 0.6233 0.24665 0.0
O12 O 0.1753 0.75175 0.47396 0.0
C13 C 0.969 0.26354 0.96969 0.0
C14 C 0.71486 0.00987 0.97115 0.0
C15 C 0.93372 0.064 0.70133 0.0
C16 C 0.30593 0.89933 0.12913 0.0
C17 C 0.03963 0.65518 0.12898 0.0
C18 C 0.09822 0.84847 0.40675 0.0
O19 O 0.90731 0.29217 0.85284 0.0
O20 O 0.00581 0.15324 0.05025 0.0
C21 C 0.00687 0.83887 0.57359 0.0
C22 C 0.05399 0.90675 0.47778 0.0
C23 C 0.97404 0.88751 0.65231 0.0
C24 C 0.98885 0.00497 0.63832 0.0
H25 H 0.99454 0.74777 0.58696 0.0
H26 H 0.93358 0.83455 0.72132 0.0
S27 S 0.12976 0.20971 0.42083 0.0
N28 N 0.12777 0.09064 0.38551 0.0
N29 N 0.06521 0.18279 0.53267 0.0
C30 C 0.04039 0.07163 0.54691 0.0
C31 C 0.0734 0.02233 0.4667 0.0
C32 C 0.52055 0.89861 0.1796 0.0
C33 C 0.4086 0.9293 0.08664 0.0
C34 C 0.61961 0.9227 0.14198 0.0
C35 C 0.61057 -0.02187 1.00985 0.0
H36 H 0.53182 0.85652 0.28258 0.0
H37 H 0.70348 0.89942 0.21711 0.0
S38 S 0.33961 0.064 0.72852 0.0
N39 N 0.29584 0.01081 0.85675 0.0
N40 N 0.48152 0.05474 0.78589 0.0
C41 C 0.49947 0.00645 0.91601 0.0
C42 C 0.39869 -0.01736 0.95434 0.0
C43 C 0.05378 0.55345 0.98482 0.0
C44 C 0.01196 0.56071 0.082 0.0
C45 C 0.04184 0.45501 0.95074 0.0
C46 C 0.98846 0.36101 1.0135 0.0
H47 H 0.09858 0.62257 0.93744 0.0
H48 H 0.07522 0.45187 0.87558 0.0
S49 S 0.84278 0.35163 0.25351 0.0
N50 N 0.90225 0.47443 0.2282 0.0
N51 N 0.87819 0.29021 0.16237 0.0
C52 C 0.94108 0.3705 0.10581 0.0
C53 C 0.95345 0.47033 0.14074 0.0
loop_
_geom_bond_atom_site_label_1
_geom_bond_atom_site_label_2
_geom_bond_distance
_geom_bond_site_symmetry_2
_ccdc_geom_bond_type
O0 Mg1 1.990 . S
O0 C14 1.253 . S
Mg1 O0 1.990 . S
Mg1 O4 2.180 . S
Mg1 O5 2.117 . S
Mg1 O19 2.030 . S
O2 Mg3 2.072 1_665 S
O2 C14 1.260 1_564 S
Mg3 O2 2.072 1_445 S
Mg3 O4 2.099 1_454 S
Mg3 O6 2.079 1_554 S
Mg3 O7 2.072 1_444 S
Mg3 O9 2.099 1_545 S
Mg3 O20 2.079 . S
O4 Mg1 2.180 . S
O4 Mg3 2.099 1_656 S
O4 C15 1.279 . S
O5 Mg1 2.117 . S
O5 C15 1.250 . S
O6 Mg3 2.079 1_556 S
O6 C16 1.264 1_546 S
O7 Mg3 2.072 1_666 S
O7 C17 1.260 1_656 S
Mg8 O9 2.180 . S
Mg8 O10 2.030 . S
Mg8 O11 1.990 . S
Mg8 O12 2.117 . S
O9 Mg3 2.099 1_565 S
O9 Mg8 2.180 . S
O9 C18 1.279 . S
O10 Mg8 2.030 . S
O10 C16 1.248 . S
O11 Mg8 1.990 . S
O11 C17 1.253 . S
O12 Mg8 2.117 . S
O12 C18 1.250 . S
C13 O19 1.248 . S
C13 O20 1.264 1_656 S
C14 O0 1.253 . S
C14 O2 1.260 1_546 S
C15 O4 1.279 . S
C15 O5 1.250 . S
C16 O6 1.264 1_564 S
C16 O10 1.248 . S
C17 O7 1.260 1_454 S
C17 O11 1.253 . S
C18 O9 1.279 . S
C18 O12 1.250 . S
O19 Mg1 2.030 . S
O19 C13 1.248 . S
O20 Mg3 2.079 . S
O20 C13 1.264 1_454 S
C21 C22 1.369 . S
C21 C23 1.419 . S
C21 H25 0.930 . S
C22 C21 1.369 . S
C22 C31 1.429 1_665 S
C23 C21 1.419 . S
C23 C24 1.363 . S
C23 H26 0.929 . S
C24 C23 1.363 . S
C24 C30 1.428 1_665 S
H25 C21 0.930 . S
H26 C23 0.929 . S
S27 N28 1.613 . S
S27 N29 1.610 . S
N28 S27 1.613 . S
N28 C31 1.350 . S
N29 S27 1.610 . S
N29 C30 1.351 . S
C30 C24 1.428 1_445 S
C30 N29 1.351 . S
C30 C31 1.434 . S
C31 C22 1.429 1_445 S
C31 N28 1.350 . S
C31 C30 1.434 . S
C32 C33 1.369 . S
C32 C34 1.419 . S
C32 H36 0.930 . S
C33 C32 1.369 . S
C33 C42 1.429 1_544 S
C34 C32 1.419 . S
C34 C35 1.363 . S
C34 H37 0.929 . S
C35 C34 1.363 . S
C35 C41 1.428 1_544 S
H36 C32 0.930 . S
H37 C34 0.929 . S
S38 N39 1.613 . S
S38 N40 1.610 . S
N39 S38 1.613 . S
N39 C42 1.350 . S
N40 S38 1.610 . S
N40 C41 1.351 . S
C41 C35 1.428 1_566 S
C41 N40 1.351 . S
C41 C42 1.434 . S
C42 C33 1.429 1_566 S
C42 N39 1.350 . S
C42 C41 1.434 . S
C43 C44 1.369 . S
C43 C45 1.419 . S
C43 H47 0.930 . S
C44 C43 1.369 . S
C44 C53 1.429 1_456 S
C45 C43 1.419 . S
C45 C46 1.363 . S
C45 H48 0.929 . S
C46 C45 1.363 . S
C46 C52 1.428 1_456 S
H47 C43 0.930 . S
H48 C45 0.929 . S
S49 N50 1.613 . S
S49 N51 1.610 . S
N50 S49 1.613 . S
N50 C53 1.350 . S
N51 S49 1.610 . S
N51 C52 1.351 . S
C52 C46 1.428 1_654 S
C52 N51 1.351 . S
C52 C53 1.434 . S
C53 C44 1.429 1_654 S
C53 N50 1.350 . S
C53 C52 1.434 . S
C22 C18 1.305 1_655 S
C24 C15 1.305 1_565 S
C33 C16 1.453 1_545 S
C35 C14 1.443 1_554 S
C44 C17 1.442 1_556 S
C46 C13 1.454 1_455 S
