# Generated by pormake.
# Topology ilc, (8)-cn, num edge types: 1
# Building blocks:
#     Node 0, Type 0, BuildingBlock: TAGTUT_clean_sbu_3, # of connection points: 8
#     Node 1, Type 0, BuildingBlock: TAGTUT_clean_sbu_3, # of connection points: 8
#     Node 2, Type 0, BuildingBlock: TAGTUT_clean_sbu_3, # of connection points: 8
#     Edge 3, Type (0, 0), None
#     Edge 4, Type (0, 0), None
#     Edge 5, Type (0, 0), None
#     Edge 6, Type (0, 0), None
#     Edge 7, Type (0, 0), None
#     Edge 8, Type (0, 0), None
#     Edge 9, Type (0, 0), None
#     Edge 10, Type (0, 0), None
#     Edge 11, Type (0, 0), None
#     Edge 12, Type (0, 0), None
#     Edge 13, Type (0, 0), None
#     Edge 14, Type (0, 0), None
# Relax obj value: 0.324
# Max RMSD: 0.191
# Mean RMSD: 0.191
data_MOF--net-ilc--node1-TAGTUT_clean_sbu_3--edge1-none
_symmetry_space_group_name_H-M    P1
_symmetry_Int_Tables_number       1
_symmetry_cell_setting            triclinic
loop_
_symmetry_equiv_pos_as_xyz
'x, y, z'
_cell_length_a     15.068807
_cell_length_b     15.074307
_cell_length_c     8.1515929
_cell_angle_alpha  107.74197
_cell_angle_beta   72.276223
_cell_angle_gamma 134.58524
loop_
_atom_site_label
_atom_site_type_symbol
_atom_site_fract_x
_atom_site_fract_y
_atom_site_fract_z
_atom_type_partial_charge
C0 C 0.03726 0.18329 0.23259 0.0
C1 C 5e-05 -0.01848 0.52435 0.0
C2 C 0.01403 0.74472 0.2972 0.0
Mg3 Mg -0.01799 0.13224 0.84191 0.0
Mg4 Mg 0.72742 0.84006 0.6696 0.0
O5 O 0.84086 -0.06045 0.83521 0.0
Mg6 Mg 0.86904 0.89229 0.00428 0.0
O7 O -0.08366 0.86418 0.17337 0.0
Mg8 Mg 0.10906 0.00537 0.16707 0.0
Mg9 Mg 0.81688 0.75077 0.33879 0.0
C10 C 0.71898 0.62672 0.67472 0.0
O11 O 0.67 0.80873 0.20425 0.0
O12 O 0.00359 0.13205 0.55886 0.0
O13 O 0.63326 0.69379 0.38192 0.0
O14 O 0.8224 0.11882 0.78777 0.0
O15 O 0.84474 -0.05364 0.46089 0.0
O16 O 0.65189 0.9187 0.70109 0.0
O17 O 0.07788 -0.02681 0.87306 0.0
O18 O 0.14879 0.13584 0.77146 0.0
C19 C 0.1599 0.0603 0.77589 0.0
C20 C -0.0419 0.02337 0.48432 0.0
O21 O 0.78554 0.69335 0.80424 0.0
O22 O 0.10881 0.02715 0.45005 0.0
O23 O 0.67064 0.65653 0.62624 0.0
O24 O 0.09561 0.84583 0.22143 0.0
O25 O -0.07686 0.8682 0.54761 0.0
O26 O 0.89541 0.67516 0.30733 0.0
O27 O -0.05009 0.10086 0.13576 0.0
O28 O 0.11281 0.17225 0.23739 0.0
C29 C 0.7214 0.0373 0.71161 0.0
C30 C 0.60339 0.74213 0.33363 0.0
C31 C 0.70393 0.51662 0.56592 0.0
C32 C 0.66671 0.31485 0.85768 0.0
C33 C 0.68069 0.07805 0.63054 0.0
Mg34 Mg 0.64868 0.46557 0.17525 0.0
Mg35 Mg 0.39409 0.1734 1.00293 0.0
O36 O 0.50752 0.27288 0.16855 0.0
Mg37 Mg 0.53571 0.22562 0.33762 0.0
O38 O 0.58301 0.19751 0.5067 0.0
Mg39 Mg 0.77573 0.3387 0.50041 0.0
Mg40 Mg 0.48354 0.0841 0.67212 0.0
C41 C 0.38564 -0.03995 0.00806 0.0
O42 O 0.33666 0.14207 0.53759 0.0
O43 O 0.67025 0.46538 0.89219 0.0
O44 O 0.29992 0.02712 0.71526 0.0
O45 O 0.48907 0.45216 0.1211 0.0
O46 O 0.51141 0.27969 0.79422 0.0
O47 O 0.31856 0.25204 0.03442 0.0
O48 O 0.74455 0.30652 0.2064 0.0
O49 O 0.81546 0.46917 0.10479 0.0
C50 C 0.82657 0.39363 0.10922 0.0
C51 C 0.62476 0.3567 0.81765 0.0
O52 O 0.4522 0.02668 0.13757 0.0
O53 O 0.77548 0.36048 0.78339 0.0
O54 O 0.3373 -0.01014 0.95958 0.0
O55 O 0.76227 0.17916 0.55477 0.0
O56 O 0.5898 0.20153 0.88094 0.0
O57 O 0.56208 0.00849 0.64067 0.0
O58 O 0.61657 0.4342 0.4691 0.0
O59 O 0.77948 0.50558 0.57072 0.0
C60 C 0.38807 0.37064 0.04494 0.0
C61 C 0.27005 0.07546 0.66695 0.0
C62 C 0.37059 0.84996 0.89925 0.0
C63 C 0.33338 0.64818 0.19102 0.0
C64 C 0.34736 0.41139 0.96387 0.0
Mg65 Mg 0.31534 0.79891 0.50858 0.0
Mg66 Mg 0.06075 0.50673 0.33626 0.0
O67 O 0.17419 0.60621 0.50188 0.0
Mg68 Mg 0.20237 0.55895 0.67095 0.0
O69 O 0.24967 0.53085 0.84003 0.0
Mg70 Mg 0.44239 0.67204 0.83374 0.0
Mg71 Mg 0.15021 0.41743 0.00545 0.0
C72 C 0.0523 0.29338 0.3414 0.0
O73 O 0.00333 0.4754 0.87092 0.0
O74 O 0.33692 0.79871 0.22553 0.0
O75 O -0.03341 0.36045 0.04859 0.0
O76 O 0.15573 0.78549 0.45444 0.0
O77 O 0.17807 0.61302 0.12756 0.0
O78 O -0.01478 0.58537 0.36775 0.0
O79 O 0.41122 0.63986 0.53973 0.0
O80 O 0.48212 0.8025 0.43812 0.0
C81 C 0.49324 0.72696 0.44256 0.0
C82 C 0.29143 0.69004 0.15099 0.0
O83 O 0.11887 0.36001 0.47091 0.0
O84 O 0.44214 0.69381 0.11672 0.0
O85 O 0.00396 0.3232 0.29291 0.0
O86 O 0.42894 0.5125 0.8881 0.0
O87 O 0.25647 0.53486 0.21428 0.0
O88 O 0.22875 0.34183 0.974 0.0
O89 O 0.28324 0.76753 0.80243 0.0
O90 O 0.44614 0.83891 0.90406 0.0
C91 C 0.05473 0.70397 0.37827 0.0
C92 C -0.06328 0.40878 1.00028 0.0
loop_
_geom_bond_atom_site_label_1
_geom_bond_atom_site_label_2
_geom_bond_distance
_geom_bond_site_symmetry_2
_ccdc_geom_bond_type
C0 O27 1.312 . S
C0 O28 1.208 . S
C1 O22 1.331 . S
C1 O25 1.244 1_445 S
C2 O24 1.264 . S
C2 O26 1.273 1_455 S
Mg3 O5 1.936 1_455 S
Mg3 O12 2.081 . S
Mg3 O14 2.023 1_455 S
Mg3 O18 2.031 . S
Mg3 O27 2.291 1_556 S
Mg4 O5 1.963 1_565 S
Mg4 O15 1.942 . S
Mg4 O16 1.955 . S
Mg4 O23 1.986 . S
O5 Mg3 1.936 1_655 S
O5 Mg4 1.963 1_545 S
O5 Mg6 1.915 1_546 S
Mg6 O5 1.915 1_564 S
Mg6 O7 1.915 1_655 S
Mg6 O11 2.013 . S
Mg6 O17 2.114 1_664 S
Mg6 O21 2.013 1_554 S
Mg6 O27 2.114 1_665 S
O7 Mg6 1.915 1_455 S
O7 Mg8 1.936 1_565 S
O7 Mg9 1.963 1_455 S
Mg8 O7 1.936 1_545 S
Mg8 O17 2.291 1_554 S
Mg8 O22 2.081 . S
Mg8 O24 2.023 1_545 S
Mg8 O28 2.031 . S
Mg9 O7 1.963 1_655 S
Mg9 O13 1.986 . S
Mg9 O25 1.942 . S
Mg9 O26 1.955 . S
C10 O21 1.191 . S
C10 O23 1.307 . S
O11 Mg6 2.013 . S
O11 C30 1.191 . S
O12 Mg3 2.081 . S
O12 C20 1.331 . S
O13 Mg9 1.986 . S
O13 C30 1.307 . S
O14 Mg3 2.023 1_655 S
O14 C29 1.264 . S
O15 Mg4 1.942 . S
O15 C20 1.244 1_665 S
O16 Mg4 1.955 . S
O16 C29 1.273 1_565 S
O17 Mg6 2.114 1_446 S
O17 Mg8 2.291 1_556 S
O17 C19 1.312 . S
O18 Mg3 2.031 . S
O18 C19 1.208 . S
C19 O17 1.312 . S
C19 O18 1.208 . S
C20 O12 1.331 . S
C20 O15 1.244 1_445 S
O21 Mg6 2.013 1_556 S
O21 C10 1.191 . S
O22 C1 1.331 . S
O22 Mg8 2.081 . S
O23 Mg4 1.986 . S
O23 C10 1.307 . S
O24 C2 1.264 . S
O24 Mg8 2.023 1_565 S
O25 C1 1.244 1_665 S
O25 Mg9 1.942 . S
O26 C2 1.273 1_655 S
O26 Mg9 1.955 . S
O27 C0 1.312 . S
O27 Mg3 2.291 1_554 S
O27 Mg6 2.114 1_445 S
O28 C0 1.208 . S
O28 Mg8 2.031 . S
C29 O14 1.264 . S
C29 O16 1.273 1_545 S
C30 O11 1.191 . S
C30 O13 1.307 . S
C31 O58 1.312 . S
C31 O59 1.208 . S
C32 O53 1.331 . S
C32 O56 1.244 . S
C33 O55 1.264 . S
C33 O57 1.273 . S
Mg34 O36 1.936 . S
Mg34 O43 2.081 1_554 S
Mg34 O45 2.023 . S
Mg34 O49 2.031 . S
Mg34 O58 2.291 . S
Mg35 O36 1.963 . S
Mg35 O46 1.942 1_554 S
Mg35 O47 1.955 . S
Mg35 O54 1.986 . S
O36 Mg34 1.936 . S
O36 Mg35 1.963 . S
O36 Mg37 1.915 . S
Mg37 O36 1.915 . S
Mg37 O38 1.915 . S
Mg37 O42 2.013 . S
Mg37 O48 2.114 . S
Mg37 O52 2.013 . S
Mg37 O58 2.114 . S
O38 Mg37 1.915 . S
O38 Mg39 1.936 . S
O38 Mg40 1.963 . S
Mg39 O38 1.936 . S
Mg39 O48 2.291 . S
Mg39 O53 2.081 . S
Mg39 O55 2.023 . S
Mg39 O59 2.031 . S
Mg40 O38 1.963 . S
Mg40 O44 1.986 . S
Mg40 O56 1.942 . S
Mg40 O57 1.955 . S
C41 O52 1.191 . S
C41 O54 1.307 . S
O42 Mg37 2.013 . S
O42 C61 1.191 . S
O43 Mg34 2.081 1_556 S
O43 C51 1.331 . S
O44 Mg40 1.986 . S
O44 C61 1.307 . S
O45 Mg34 2.023 . S
O45 C60 1.264 . S
O46 Mg35 1.942 1_556 S
O46 C51 1.244 . S
O47 Mg35 1.955 . S
O47 C60 1.273 . S
O48 Mg37 2.114 . S
O48 Mg39 2.291 . S
O48 C50 1.312 . S
O49 Mg34 2.031 . S
O49 C50 1.208 . S
C50 O48 1.312 . S
C50 O49 1.208 . S
C51 O43 1.331 . S
C51 O46 1.244 . S
O52 Mg37 2.013 . S
O52 C41 1.191 . S
O53 C32 1.331 . S
O53 Mg39 2.081 . S
O54 Mg35 1.986 . S
O54 C41 1.307 . S
O55 C33 1.264 . S
O55 Mg39 2.023 . S
O56 C32 1.244 . S
O56 Mg40 1.942 . S
O57 C33 1.273 . S
O57 Mg40 1.955 . S
O58 C31 1.312 . S
O58 Mg34 2.291 . S
O58 Mg37 2.114 . S
O59 C31 1.208 . S
O59 Mg39 2.031 . S
C60 O45 1.264 . S
C60 O47 1.273 . S
C61 O42 1.191 . S
C61 O44 1.307 . S
C62 O89 1.312 . S
C62 O90 1.208 . S
C63 O84 1.331 . S
C63 O87 1.244 . S
C64 O86 1.264 . S
C64 O88 1.273 . S
Mg65 O67 1.936 . S
Mg65 O74 2.081 . S
Mg65 O76 2.023 . S
Mg65 O80 2.031 . S
Mg65 O89 2.291 . S
Mg66 O67 1.963 . S
Mg66 O77 1.942 . S
Mg66 O78 1.955 . S
Mg66 O85 1.986 . S
O67 Mg65 1.936 . S
O67 Mg66 1.963 . S
O67 Mg68 1.915 . S
Mg68 O67 1.915 . S
Mg68 O69 1.915 . S
Mg68 O73 2.013 . S
Mg68 O79 2.114 . S
Mg68 O83 2.013 . S
Mg68 O89 2.114 . S
O69 Mg68 1.915 . S
O69 Mg70 1.936 . S
O69 Mg71 1.963 . S
Mg70 O69 1.936 . S
Mg70 O79 2.291 . S
Mg70 O84 2.081 1_556 S
Mg70 O86 2.023 . S
Mg70 O90 2.031 . S
Mg71 O69 1.963 . S
Mg71 O75 1.986 . S
Mg71 O87 1.942 1_556 S
Mg71 O88 1.955 . S
C72 O83 1.191 . S
C72 O85 1.307 . S
O73 Mg68 2.013 . S
O73 C92 1.191 . S
O74 Mg65 2.081 . S
O74 C82 1.331 . S
O75 Mg71 1.986 . S
O75 C92 1.307 . S
O76 Mg65 2.023 . S
O76 C91 1.264 . S
O77 Mg66 1.942 . S
O77 C82 1.244 . S
O78 Mg66 1.955 . S
O78 C91 1.273 . S
O79 Mg68 2.114 . S
O79 Mg70 2.291 . S
O79 C81 1.312 . S
O80 Mg65 2.031 . S
O80 C81 1.208 . S
C81 O79 1.312 . S
C81 O80 1.208 . S
C82 O74 1.331 . S
C82 O77 1.244 . S
O83 Mg68 2.013 . S
O83 C72 1.191 . S
O84 C63 1.331 . S
O84 Mg70 2.081 1_554 S
O85 Mg66 1.986 . S
O85 C72 1.307 . S
O86 C64 1.264 . S
O86 Mg70 2.023 . S
O87 C63 1.244 . S
O87 Mg71 1.942 1_554 S
O88 C64 1.273 . S
O88 Mg71 1.955 . S
O89 C62 1.312 . S
O89 Mg65 2.291 . S
O89 Mg68 2.114 . S
O90 C62 1.208 . S
O90 Mg70 2.031 . S
C91 O76 1.264 . S
C91 O78 1.273 . S
C92 O73 1.191 . S
C92 O75 1.307 . S
C20 C1 2.211 . S
C32 C51 2.211 . S
C63 C82 2.211 . S
C91 C2 2.382 . S
C72 C0 2.421 . S
C81 C30 2.422 . S
C33 C29 2.384 . S
C31 C10 2.423 . S
C61 C19 2.423 . S
C60 C64 2.383 1_554 S
C62 C41 2.422 1_566 S
C92 C50 2.422 1_456 S
