# Generated by pormake.
# Topology pcu, (6)-cn, num edge types: 1
# Building blocks:
#     Node 0, Type 0, BuildingBlock: FUNLAD_clean_sbu_0, # of connection points: 6
#     Edge 1, Type (0, 0), BuildingBlock: OJICUG_clean_linker_0, # of connection points: 2
#     Edge 2, Type (0, 0), BuildingBlock: OJICUG_clean_linker_0, # of connection points: 2
#     Edge 3, Type (0, 0), BuildingBlock: OJICUG_clean_linker_0, # of connection points: 2
# Relax obj value: 0.000
# Max RMSD: 0.000
# Mean RMSD: 0.000
data_MOF--net-pcu--node1-FUNLAD_clean_sbu_0--edge1-OJICUG_clean_linker_0
_symmetry_space_group_name_H-M    P1
_symmetry_Int_Tables_number       1
_symmetry_cell_setting            triclinic
loop_
_symmetry_equiv_pos_as_xyz
'x, y, z'
_cell_length_a     11.307349
_cell_length_b     11.307028
_cell_length_c     17.675888
_cell_angle_alpha  90.566125
_cell_angle_beta   91.768018
_cell_angle_gamma 91.757296
loop_
_atom_site_label
_atom_site_type_symbol
_atom_site_fract_x
_atom_site_fract_y
_atom_site_fract_z
_atom_type_partial_charge
C0 C 0.22779 -0.01752 0.01733 0.0
N1 N 0.97802 0.97913 0.83729 0.0
C2 C 0.05335 0.05486 0.80179 0.0
C3 C 0.05546 0.05676 0.72292 0.0
C4 C 0.97935 -0.02005 0.67995 0.0
C5 C 0.90228 0.90285 0.71812 0.0
C6 C 0.90304 0.90395 0.79718 0.0
Zn7 Zn 0.98013 0.9788 0.95296 0.0
C8 C 0.98101 0.73577 1.01509 0.0
N9 N -0.01108 -0.01905 0.19464 0.0
C10 C 0.0639 0.05613 0.23475 0.0
C11 C 0.91359 0.90522 0.23015 0.0
C12 C 0.91148 0.90332 0.30902 0.0
C13 C -0.01241 -0.01987 0.35199 0.0
C14 C 0.06466 0.05723 0.31382 0.0
Zn15 Zn -0.01319 -0.01872 0.07898 0.0
O16 O 0.1676 -0.01912 0.9554 0.0
C17 C -0.01407 0.22431 0.01685 0.0
O18 O 0.17438 -0.01651 0.07957 0.0
H19 H 0.8544 0.84645 0.19722 0.0
H20 H 0.11254 0.11363 0.83472 0.0
H21 H 0.12323 0.11542 0.20538 0.0
O22 O 0.98227 0.16621 0.95486 0.0
O23 O -0.01099 0.16879 0.07904 0.0
H24 H 0.84371 0.84466 0.82656 0.0
O25 O 0.79934 0.97919 0.07654 0.0
O26 O 0.79256 0.97659 0.95236 0.0
O27 O -0.01533 0.79386 0.07707 0.0
O28 O 0.97793 0.79129 0.9529 0.0
C29 C 0.73915 0.9776 1.01461 0.0
H30 H 0.11742 0.11654 0.69595 0.0
H31 H 0.84112 0.84314 0.68724 0.0
H32 H 0.84952 0.84354 0.33599 0.0
H33 H 0.12583 0.11694 0.34469 0.0
C34 C -0.00575 0.08698 0.47741 0.0
C35 C -0.01403 -0.01992 0.43604 0.0
H36 H -0.00348 0.17095 0.58649 0.0
C37 C 0.97519 0.87313 0.47554 0.0
H38 H 0.0007 0.17099 0.44869 0.0
C39 C 0.97269 0.8731 0.55453 0.0
C40 C 0.98098 -0.02 0.5959 0.0
H41 H 0.97042 0.78913 0.44545 0.0
H42 H 0.96624 0.78908 0.58325 0.0
C43 C -0.00825 0.08695 0.5564 0.0
C44 C 0.4175 0.97985 0.9478 0.0
C45 C 0.35862 -0.01823 0.01671 0.0
H46 H 0.58355 0.97676 0.89301 0.0
C47 C 0.42596 -0.01804 0.08487 0.0
H48 H 0.36826 0.97959 0.89424 0.0
C49 C 0.54944 -0.01978 0.08414 0.0
C50 C 0.60832 0.97831 1.01523 0.0
H51 H 0.38339 -0.01668 0.13893 0.0
H52 H 0.59868 -0.01951 0.1377 0.0
C53 C 0.54098 0.97812 0.94707 0.0
C54 C -0.01378 0.54355 0.08427 0.0
C55 C 0.98174 0.60492 1.01549 0.0
H56 H -0.00866 0.3755 0.13872 0.0
C57 C 0.97898 0.54004 0.94719 0.0
H58 H -0.0115 0.59085 0.13792 0.0
C59 C 0.98072 0.41653 0.94767 0.0
C60 C -0.0148 0.35516 0.01645 0.0
H61 H 0.9756 0.58458 0.89322 0.0
H62 H 0.97844 0.36923 0.89402 0.0
C63 C -0.01204 0.42004 0.08475 0.0
loop_
_geom_bond_atom_site_label_1
_geom_bond_atom_site_label_2
_geom_bond_distance
_geom_bond_site_symmetry_2
_ccdc_geom_bond_type
C0 O16 1.243 1_544 S
C0 O18 1.263 . S
N1 C2 1.333 1_665 S
N1 C6 1.307 . S
N1 Zn7 2.020 . S
C2 N1 1.333 1_445 S
C2 C3 1.379 . S
C2 H20 0.952 . S
C3 C2 1.379 . S
C3 C4 1.391 1_455 S
C3 H30 0.949 . S
C4 C3 1.391 1_655 S
C4 C5 1.355 1_545 S
C5 C4 1.355 1_565 S
C5 C6 1.370 . S
C5 H31 0.950 . S
C6 N1 1.307 . S
C6 C5 1.370 . S
C6 H24 0.948 . S
Zn7 N1 2.020 . S
Zn7 O16 2.039 1_655 S
Zn7 O22 2.034 1_665 S
Zn7 O26 2.025 . S
Zn7 O28 2.024 . S
C8 O27 1.246 1_556 S
C8 O28 1.249 . S
N9 C10 1.307 . S
N9 C11 1.333 1_445 S
N9 Zn15 2.020 . S
C10 N9 1.307 . S
C10 C14 1.370 . S
C10 H21 0.948 . S
C11 N9 1.333 1_665 S
C11 C12 1.379 . S
C11 H19 0.952 . S
C12 C11 1.379 . S
C12 C13 1.391 1_655 S
C12 H32 0.949 . S
C13 C12 1.391 1_455 S
C13 C14 1.356 1_565 S
C14 C10 1.370 . S
C14 C13 1.356 1_545 S
C14 H33 0.950 . S
Zn15 N9 2.020 . S
Zn15 O18 2.025 . S
Zn15 O23 2.024 . S
Zn15 O25 2.039 1_455 S
Zn15 O27 2.034 1_445 S
O16 C0 1.243 1_566 S
O16 Zn7 2.039 1_455 S
C17 O22 1.246 1_554 S
C17 O23 1.249 . S
O18 C0 1.263 . S
O18 Zn15 2.025 . S
H19 C11 0.952 . S
H20 C2 0.952 . S
H21 C10 0.948 . S
O22 Zn7 2.034 1_445 S
O22 C17 1.246 1_556 S
O23 Zn15 2.024 . S
O23 C17 1.249 . S
H24 C6 0.948 . S
O25 Zn15 2.039 1_655 S
O25 C29 1.246 1_544 S
O26 Zn7 2.025 . S
O26 C29 1.259 . S
O27 C8 1.246 1_554 S
O27 Zn15 2.034 1_665 S
O28 Zn7 2.024 . S
O28 C8 1.249 . S
C29 O25 1.246 1_566 S
C29 O26 1.259 . S
H30 C3 0.949 . S
H31 C5 0.950 . S
H32 C12 0.949 . S
H33 C14 0.950 . S
C34 C35 1.387 1_655 S
C34 H38 0.950 . S
C34 C43 1.390 . S
C35 C34 1.387 1_455 S
C35 C37 1.387 1_545 S
H36 C43 0.950 . S
C37 C35 1.387 1_565 S
C37 C39 1.390 . S
C37 H41 0.950 . S
H38 C34 0.950 . S
C39 C37 1.390 . S
C39 C40 1.388 1_465 S
C39 H42 0.950 . S
C40 C39 1.388 1_645 S
C40 C43 1.387 . S
H41 C37 0.950 . S
H42 C39 0.950 . S
C43 C34 1.390 . S
C43 H36 0.950 . S
C43 C40 1.387 . S
C44 C45 1.386 1_545 S
C44 H48 0.950 . S
C44 C53 1.390 . S
C45 C44 1.386 1_565 S
C45 C47 1.389 1_556 S
H46 C53 0.950 . S
C47 C45 1.389 1_554 S
C47 C49 1.390 . S
C47 H51 0.950 . S
H48 C44 0.950 . S
C49 C47 1.390 . S
C49 C50 1.388 1_565 S
C49 H52 0.950 . S
C50 C49 1.388 1_545 S
C50 C53 1.388 1_554 S
H51 C47 0.950 . S
H52 C49 0.950 . S
C53 C44 1.390 . S
C53 H46 0.950 . S
C53 C50 1.388 1_556 S
C54 C55 1.388 . S
C54 H58 0.950 . S
C54 C63 1.390 . S
C55 C54 1.388 . S
C55 C57 1.388 1_454 S
H56 C63 0.950 . S
C57 C55 1.388 1_656 S
C57 C59 1.390 . S
C57 H61 0.950 . S
H58 C54 0.950 . S
C59 C57 1.390 . S
C59 C60 1.387 1_556 S
C59 H62 0.950 . S
C60 C59 1.387 1_554 S
C60 C63 1.388 1_655 S
H61 C57 0.950 . S
H62 C59 0.950 . S
C63 C54 1.390 . S
C63 H56 0.950 . S
C63 C60 1.388 1_455 S
C35 C13 1.498 1_545 S
C40 C4 1.498 . S
C45 C0 1.499 1_566 S
C50 C29 1.499 1_544 S
C55 C8 1.497 1_454 S
C60 C17 1.497 1_655 S
