# Generated by pormake.
# Topology hcp, (12)-cn, num edge types: 1
# Building blocks:
#     Node 0, Type 0, BuildingBlock: EZIPEK_clean_sbu_0, # of connection points: 12
#     Node 1, Type 0, BuildingBlock: EZIPEK_clean_sbu_0, # of connection points: 12
#     Edge 2, Type (0, 0), BuildingBlock: AJUNOK_clean_linker_0, # of connection points: 2
#     Edge 3, Type (0, 0), BuildingBlock: AJUNOK_clean_linker_0, # of connection points: 2
#     Edge 4, Type (0, 0), BuildingBlock: AJUNOK_clean_linker_0, # of connection points: 2
#     Edge 5, Type (0, 0), BuildingBlock: AJUNOK_clean_linker_0, # of connection points: 2
#     Edge 6, Type (0, 0), BuildingBlock: AJUNOK_clean_linker_0, # of connection points: 2
#     Edge 7, Type (0, 0), BuildingBlock: AJUNOK_clean_linker_0, # of connection points: 2
#     Edge 8, Type (0, 0), BuildingBlock: AJUNOK_clean_linker_0, # of connection points: 2
#     Edge 9, Type (0, 0), BuildingBlock: AJUNOK_clean_linker_0, # of connection points: 2
#     Edge 10, Type (0, 0), BuildingBlock: AJUNOK_clean_linker_0, # of connection points: 2
#     Edge 11, Type (0, 0), BuildingBlock: AJUNOK_clean_linker_0, # of connection points: 2
#     Edge 12, Type (0, 0), BuildingBlock: AJUNOK_clean_linker_0, # of connection points: 2
#     Edge 13, Type (0, 0), BuildingBlock: AJUNOK_clean_linker_0, # of connection points: 2
# Relax obj value: 0.186
# Max RMSD: 0.270
# Mean RMSD: 0.270
data_MOF--net-hcp--node1-EZIPEK_clean_sbu_0--edge1-AJUNOK_clean_linker_0
_symmetry_space_group_name_H-M    P1
_symmetry_Int_Tables_number       1
_symmetry_cell_setting            triclinic
loop_
_symmetry_equiv_pos_as_xyz
'x, y, z'
_cell_length_a     14.778843
_cell_length_b     14.816565
_cell_length_c     22.712792
_cell_angle_alpha  89.999155
_cell_angle_beta   89.883402
_cell_angle_gamma 119.93946
loop_
_atom_site_label
_atom_site_type_symbol
_atom_site_fract_x
_atom_site_fract_y
_atom_site_fract_z
_atom_type_partial_charge
C0 C 0.66988 0.02106 0.30694 0.0
C1 C 0.88595 0.39982 0.14085 0.0
C2 C 0.47663 0.20496 0.46437 0.0
C3 C 0.67044 0.63177 0.29838 0.0
C4 C 0.35411 0.32577 0.30555 0.0
C5 C 0.51763 0.10616 0.14427 0.0
C6 C 0.73007 0.51874 0.46371 0.0
C7 C 0.96512 0.32753 0.2982 0.0
C8 C 0.97462 0.63833 0.30298 0.0
C9 C 0.58377 0.47949 0.14774 0.0
C10 C 0.79077 0.26641 0.46449 0.0
C11 C 0.36576 0.02804 0.29722 0.0
Eu12 Eu 0.73023 0.23608 0.23518 0.0
O13 O 0.66498 0.32753 0.20126 0.0
O14 O 0.7371 0.2555 0.32907 0.0
Eu15 Eu 0.50805 0.26327 0.2348 0.0
Eu16 Eu 0.82431 0.41099 0.3668 0.0
O17 O 0.58389 0.1843 0.2735 0.0
O18 O 0.80949 0.39183 0.2721 0.0
Eu19 Eu 0.58825 0.17036 0.36805 0.0
Eu20 Eu 0.75687 0.48503 0.23281 0.0
O21 O 0.52041 0.25745 0.32893 0.0
O22 O 0.6023 0.40985 0.27228 0.0
O23 O 0.7385 0.47333 0.32718 0.0
O24 O 0.66554 0.3295 0.39657 0.0
Eu25 Eu 0.58403 0.4065 0.36704 0.0
O26 O 0.7072 0.07957 0.25896 0.0
O27 O 0.82541 0.30159 0.15572 0.0
O28 O 0.53195 0.31027 0.45952 0.0
O29 O 0.60787 0.56223 0.33828 0.0
O30 O 0.37336 0.28221 0.25992 0.0
O31 O 0.48317 0.17148 0.15409 0.0
O32 O 0.78127 0.46444 0.45898 0.0
O33 O 0.95806 0.39025 0.33777 0.0
O34 O 0.9136 0.61661 0.25625 0.0
O35 O 0.68355 0.51047 0.15488 0.0
O36 O 0.68509 0.21506 0.4601 0.0
O37 O 0.43524 0.0358 0.33733 0.0
O38 O 0.70397 0.54353 0.41475 0.0
O39 O 0.41751 0.37061 0.35136 0.0
O40 O 0.89206 0.26532 0.25949 0.0
O41 O 0.60302 0.113 0.17075 0.0
O42 O 0.8773 0.47947 0.16475 0.0
O43 O 0.72974 0.61948 0.25779 0.0
O44 O 0.62826 0.04236 0.35352 0.0
O45 O 0.45074 0.15443 0.41537 0.0
O46 O 0.37648 0.10116 0.25855 0.0
O47 O 0.5064 0.3921 0.17337 0.0
O48 O 0.84149 0.2915 0.41531 0.0
O49 O 0.954 0.57728 0.35027 0.0
C50 C 0.32128 0.3489 0.80551 0.0
C51 C 0.08969 0.52323 0.65138 0.0
C52 C 0.51144 0.71689 0.97314 0.0
C53 C 0.33216 0.96418 0.8031 0.0
C54 C 0.27806 0.79227 0.97364 0.0
C55 C 0.02975 0.36728 0.80256 0.0
C56 C 0.64726 0.96778 0.80705 0.0
C57 C 0.47531 0.56309 0.65152 0.0
C58 C 0.43708 0.90746 0.6515 0.0
C59 C 0.02805 0.67365 0.80436 0.0
C60 C 0.63255 0.65944 0.80171 0.0
C61 C 0.19384 0.46154 0.96378 0.0
Eu62 Eu 0.25882 0.50569 0.73517 0.0
O63 O 0.19011 0.59148 0.77317 0.0
O64 O 0.40755 0.59414 0.77291 0.0
Eu65 Eu 0.17569 0.596 0.86737 0.0
Eu66 Eu 0.49361 0.74933 0.73587 0.0
O67 O 0.25342 0.51701 0.82983 0.0
O68 O 0.33437 0.66496 0.70152 0.0
Eu69 Eu 0.40256 0.57494 0.86698 0.0
Eu70 Eu 0.24856 0.73867 0.73485 0.0
O71 O 0.33256 0.66259 0.89665 0.0
O72 O 0.26336 0.74541 0.82999 0.0
O73 O 0.4025 0.80698 0.77345 0.0
O74 O 0.48346 0.73268 0.83098 0.0
Eu75 Eu 0.41966 0.81975 0.86764 0.0
O76 O 0.28164 0.37049 0.75853 0.0
O77 O 0.13738 0.47072 0.66609 0.0
O78 O 0.47295 0.78048 0.95919 0.0
O79 O 0.39379 0.95409 0.84267 0.0
O80 O 0.20968 0.69104 0.95894 0.0
O81 O 0.03931 0.4419 0.83937 0.0
O82 O 0.62719 0.90893 0.75911 0.0
O83 O 0.52849 0.6629 0.66663 0.0
O84 O 0.33645 0.85959 0.66567 0.0
O85 O 0.08977 0.71604 0.75773 0.0
O86 O 0.559 0.59489 0.83948 0.0
O87 O 0.29788 0.50329 0.95347 0.0
O88 O 0.58505 0.94406 0.85356 0.0
O89 O 0.34653 0.85968 0.9369 0.0
O90 O 0.37513 0.49644 0.66764 0.0
O91 O 0.10185 0.37408 0.76437 0.0
O92 O 0.12263 0.62297 0.66764 0.0
O93 O 0.27379 0.8945 0.76254 0.0
O94 O 0.36498 0.41094 0.85144 0.0
O95 O 0.51853 0.6542 0.93538 0.0
O96 O 0.12985 0.46457 0.92564 0.0
O97 O 0.04748 0.63163 0.85082 0.0
O98 O 0.62602 0.72512 0.76405 0.0
O99 O 0.50415 0.8749 0.66827 0.0
C100 C 0.30382 0.94184 1.03253 0.0
C101 C 0.29645 0.84291 1.03338 0.0
C102 C 0.37787 0.02612 0.06633 0.0
C103 C 0.44658 0.01613 0.10551 0.0
H104 H 0.25999 0.95787 1.00004 0.0
H105 H 0.38238 0.10083 0.06057 0.0
S106 S 0.43548 0.76885 0.14368 0.0
N107 N 0.35372 0.73846 0.08793 0.0
N108 N 0.48333 0.89419 0.15494 0.0
C109 C 0.43188 0.91607 0.1129 0.0
C110 C 0.35902 0.83047 0.07667 0.0
C111 C 0.62582 0.53319 0.62034 0.0
C112 C 0.5303 0.5307 0.60768 0.0
C113 C 0.68819 0.52287 0.57538 0.0
C114 C 0.65993 0.51409 0.51537 0.0
H115 H 0.65405 0.54609 0.66526 0.0
H116 H 0.7611 0.5272 0.58744 0.0
S117 S 0.41797 0.51031 0.46051 0.0
N118 N 0.41203 0.51978 0.53231 0.0
N119 N 0.52484 0.50451 0.44849 0.0
C120 C 0.56297 0.51126 0.5036 0.0
C121 C 0.49964 0.51847 0.54923 0.0
C122 C 0.06553 0.50994 0.09282 0.0
C123 C 0.97162 0.41491 0.09814 0.0
C124 C 0.14701 0.51983 1.05555 0.0
C125 C 0.14195 0.43656 1.02278 0.0
H126 H 0.07528 0.57802 0.11612 0.0
H127 H 0.20982 0.59599 1.04687 0.0
S128 S 0.91481 0.16892 1.02079 0.0
N129 N 0.87922 0.23261 0.06616 0.0
N130 N 0.03384 0.2545 0.99894 0.0
C131 C 0.05012 0.34028 1.02945 0.0
C132 C 0.96548 0.32915 0.06603 0.0
C133 C 0.472 0.08938 0.62074 0.0
C134 C 0.46955 0.99427 0.60743 0.0
C135 C 0.48043 0.16132 0.57592 0.0
C136 C 0.4821 0.13908 0.51552 0.0
H137 H 0.46418 0.10687 0.66614 0.0
H138 H 0.48032 0.23172 0.58858 0.0
S139 S 0.46985 0.89425 0.45911 0.0
N140 N 0.46755 0.88172 0.53105 0.0
N141 N 0.47947 0.00841 0.44772 0.0
C142 C 0.47993 0.04278 0.50313 0.0
C143 C 0.47458 0.9729 0.54849 0.0
C144 C 0.46172 0.53095 0.09689 0.0
C145 C 0.56324 0.55307 0.11096 0.0
C146 C 0.44434 0.59715 0.05949 0.0
C147 C 0.52664 0.68911 1.03412 0.0
H148 H 0.39504 0.46017 0.11297 0.0
H149 H 0.36494 0.57311 1.04823 0.0
S150 S 0.80738 0.7945 0.06438 0.0
N151 N 0.74874 0.68502 0.10239 0.0
N152 N 0.71304 0.80408 1.03162 0.0
C153 C 0.62772 0.7166 1.05186 0.0
C154 C 0.64657 0.65017 0.08997 0.0
C155 C 0.83584 0.31133 0.57612 0.0
C156 C 0.85662 0.3371 0.51578 0.0
C157 C 0.90826 0.37436 0.62084 0.0
C158 C 0.00237 0.46828 0.60759 0.0
H159 H 0.76633 0.23981 0.58873 0.0
H160 H 0.89186 0.34782 0.66609 0.0
S161 S 0.09813 0.57377 0.45942 0.0
N162 N 0.98473 0.46814 0.44802 0.0
N163 N 0.11219 0.58217 0.53128 0.0
C164 C 0.02216 0.49645 0.54876 0.0
C165 C 0.95189 0.4324 0.50342 0.0
C166 C 0.67253 0.87699 0.25204 0.0
C167 C 0.67325 0.92336 0.30645 0.0
C168 C 0.67404 0.78353 0.24951 0.0
C169 C 0.67555 0.73303 0.30126 0.0
H170 H 0.66919 0.91219 0.21091 0.0
H171 H 0.67123 0.74935 0.20693 0.0
S172 S 0.69181 0.82787 0.4543 0.0
N173 N 0.68647 0.91666 0.41285 0.0
N174 N 0.68629 0.73914 0.40822 0.0
C175 C 0.67929 0.77965 0.35586 0.0
C176 C 0.67882 0.87534 0.35844 0.0
C177 C 0.92174 0.75903 0.79363 0.0
C178 C 0.92711 0.66857 0.80353 0.0
C179 C 0.82547 0.75526 0.79305 0.0
C180 C 0.73213 0.66069 0.8022 0.0
H181 H 0.99231 0.83314 0.78738 0.0
H182 H 0.82429 0.82707 0.78622 0.0
S183 S 0.70528 0.40032 0.82255 0.0
N184 N 0.83247 0.48107 0.81814 0.0
N185 N 0.6505 0.47351 0.81663 0.0
C186 C 0.73661 0.56926 0.81075 0.0
C187 C 0.83464 0.57331 0.8115 0.0
C188 C 0.22762 0.8741 0.35027 0.0
C189 C 0.2662 0.92956 0.29727 0.0
C190 C 0.13267 0.78061 0.35198 0.0
C191 C 0.07391 0.73823 0.30062 0.0
H192 H 0.27 0.90407 0.39109 0.0
H193 H 0.10463 0.7425 0.39402 0.0
S194 S 0.14153 0.85456 0.15053 0.0
N195 N 0.23845 0.93741 0.19252 0.0
N196 N 0.06178 0.75986 0.19476 0.0
C197 C 0.11199 0.79343 0.24717 0.0
C198 C 0.20775 0.8895 0.24575 0.0
C199 C 0.39546 0.23914 0.83818 0.0
C200 C 0.31972 0.24912 0.806 0.0
C201 C 0.39888 0.14668 0.83717 0.0
C202 C 0.32631 0.06075 0.80412 0.0
H203 H 0.45396 0.30383 0.86356 0.0
H204 H 0.45974 0.14339 0.86194 0.0
S205 S 0.10643 0.04539 0.7161 0.0
N206 N 0.1667 0.16442 0.74319 0.0
N207 N 0.17254 0.99051 0.74054 0.0
C208 C 0.2485 0.06932 0.77265 0.0
C209 C 0.24531 0.16353 0.7738 0.0
C210 C 0.20861 0.33602 0.35484 0.0
C211 C 0.25469 0.32573 0.30314 0.0
C212 C 0.11461 0.3368 0.35274 0.0
C213 C 0.06302 0.32561 0.29894 0.0
H214 H 0.24424 0.34179 0.39724 0.0
H215 H 0.08131 0.34455 0.39368 0.0
S216 S 0.15146 0.29783 0.15101 0.0
N217 N 0.24261 0.30681 0.19617 0.0
N218 N 0.06404 0.30478 0.19304 0.0
C219 C 0.10739 0.31432 0.24704 0.0
C220 C 0.20378 0.31523 0.24893 0.0
C221 C 0.9119 0.18975 0.76268 0.0
C222 C 0.9313 0.26663 0.80507 0.0
C223 C 0.82066 0.09306 0.76421 0.0
C224 C 0.74485 0.06924 0.80807 0.0
H225 H 0.96731 0.20389 0.72766 0.0
H226 H 0.80981 0.03683 0.73049 0.0
S227 S 0.75732 0.24342 0.92977 0.0
N228 N 0.86731 0.31175 0.89301 0.0
N229 N 0.69458 0.13109 0.895 0.0
C230 C 0.76301 0.14535 0.85093 0.0
C231 C 0.85639 0.24376 0.84959 0.0
loop_
_geom_bond_atom_site_label_1
_geom_bond_atom_site_label_2
_geom_bond_distance
_geom_bond_site_symmetry_2
_ccdc_geom_bond_type
C0 O26 1.283 . S
C0 O44 1.283 . S
C1 O27 1.283 . S
C1 O42 1.283 . S
C2 O28 1.283 . S
C2 O45 1.283 . S
C3 O29 1.283 . S
C3 O43 1.283 . S
C4 O30 1.283 . S
C4 O39 1.283 . S
C5 O31 1.283 . S
C5 O41 1.283 . S
C6 O32 1.283 . S
C6 O38 1.283 . S
C7 O33 1.283 1_455 S
C7 O40 1.283 1_455 S
C8 O34 1.283 . S
C8 O49 1.283 . S
C9 O35 1.283 . S
C9 O47 1.283 . S
C10 O36 1.283 . S
C10 O48 1.283 . S
C11 O37 1.283 1_565 S
C11 O46 1.283 1_565 S
Eu12 O13 2.370 . S
Eu12 O14 2.370 . S
Eu12 O17 2.370 . S
Eu12 O18 2.370 . S
Eu12 O26 2.363 . S
Eu12 O27 2.363 . S
Eu12 O40 2.363 . S
Eu12 O41 2.363 . S
O13 Eu12 2.370 . S
O13 Eu15 2.370 . S
O13 Eu20 2.370 . S
O14 Eu12 2.370 . S
O14 Eu16 2.370 . S
O14 Eu19 2.370 . S
Eu15 O13 2.370 . S
Eu15 O17 2.370 . S
Eu15 O21 2.370 . S
Eu15 O22 2.370 . S
Eu15 O30 2.363 . S
Eu15 O31 2.363 . S
Eu15 O46 2.363 . S
Eu15 O47 2.363 . S
Eu16 O14 2.370 . S
Eu16 O18 2.370 . S
Eu16 O23 2.370 . S
Eu16 O24 2.370 . S
Eu16 O32 2.363 . S
Eu16 O33 2.363 . S
Eu16 O48 2.363 . S
Eu16 O49 2.363 . S
O17 Eu12 2.370 . S
O17 Eu15 2.370 . S
O17 Eu19 2.370 . S
O18 Eu12 2.370 . S
O18 Eu16 2.370 . S
O18 Eu20 2.370 . S
Eu19 O14 2.370 . S
Eu19 O17 2.370 . S
Eu19 O21 2.370 . S
Eu19 O24 2.370 . S
Eu19 O36 2.363 . S
Eu19 O37 2.363 . S
Eu19 O44 2.363 . S
Eu19 O45 2.363 . S
Eu20 O13 2.370 . S
Eu20 O18 2.370 . S
Eu20 O22 2.370 . S
Eu20 O23 2.370 . S
Eu20 O34 2.363 . S
Eu20 O35 2.363 . S
Eu20 O42 2.363 . S
Eu20 O43 2.363 . S
O21 Eu15 2.370 . S
O21 Eu19 2.370 . S
O21 Eu25 2.370 . S
O22 Eu15 2.370 . S
O22 Eu20 2.370 . S
O22 Eu25 2.370 . S
O23 Eu16 2.370 . S
O23 Eu20 2.370 . S
O23 Eu25 2.370 . S
O24 Eu16 2.370 . S
O24 Eu19 2.370 . S
O24 Eu25 2.370 . S
Eu25 O21 2.370 . S
Eu25 O22 2.370 . S
Eu25 O23 2.370 . S
Eu25 O24 2.370 . S
Eu25 O28 2.363 . S
Eu25 O29 2.363 . S
Eu25 O38 2.363 . S
Eu25 O39 2.363 . S
O26 C0 1.283 . S
O26 Eu12 2.363 . S
O27 C1 1.283 . S
O27 Eu12 2.363 . S
O28 C2 1.283 . S
O28 Eu25 2.363 . S
O29 C3 1.283 . S
O29 Eu25 2.363 . S
O30 C4 1.283 . S
O30 Eu15 2.363 . S
O31 C5 1.283 . S
O31 Eu15 2.363 . S
O32 C6 1.283 . S
O32 Eu16 2.363 . S
O33 C7 1.283 1_655 S
O33 Eu16 2.363 . S
O34 C8 1.283 . S
O34 Eu20 2.363 . S
O35 C9 1.283 . S
O35 Eu20 2.363 . S
O36 C10 1.283 . S
O36 Eu19 2.363 . S
O37 C11 1.283 1_545 S
O37 Eu19 2.363 . S
O38 C6 1.283 . S
O38 Eu25 2.363 . S
O39 C4 1.283 . S
O39 Eu25 2.363 . S
O40 C7 1.283 1_655 S
O40 Eu12 2.363 . S
O41 C5 1.283 . S
O41 Eu12 2.363 . S
O42 C1 1.283 . S
O42 Eu20 2.363 . S
O43 C3 1.283 . S
O43 Eu20 2.363 . S
O44 C0 1.283 . S
O44 Eu19 2.363 . S
O45 C2 1.283 . S
O45 Eu19 2.363 . S
O46 C11 1.283 1_545 S
O46 Eu15 2.363 . S
O47 C9 1.283 . S
O47 Eu15 2.363 . S
O48 C10 1.283 . S
O48 Eu16 2.363 . S
O49 C8 1.283 . S
O49 Eu16 2.363 . S
C50 O76 1.283 . S
C50 O94 1.283 . S
C51 O77 1.283 . S
C51 O92 1.283 . S
C52 O78 1.283 . S
C52 O95 1.283 . S
C53 O79 1.283 1_545 S
C53 O93 1.283 1_545 S
C54 O80 1.283 . S
C54 O89 1.283 . S
C55 O81 1.283 1_655 S
C55 O91 1.283 1_655 S
C56 O82 1.283 . S
C56 O88 1.283 . S
C57 O83 1.283 . S
C57 O90 1.283 . S
C58 O84 1.283 . S
C58 O99 1.283 . S
C59 O85 1.283 . S
C59 O97 1.283 . S
C60 O86 1.283 . S
C60 O98 1.283 . S
C61 O87 1.283 . S
C61 O96 1.283 . S
Eu62 O63 2.370 . S
Eu62 O64 2.370 . S
Eu62 O67 2.370 . S
Eu62 O68 2.370 . S
Eu62 O76 2.363 . S
Eu62 O77 2.363 . S
Eu62 O90 2.363 . S
Eu62 O91 2.363 . S
O63 Eu62 2.370 . S
O63 Eu65 2.370 . S
O63 Eu70 2.370 . S
O64 Eu62 2.370 . S
O64 Eu66 2.370 . S
O64 Eu69 2.370 . S
Eu65 O63 2.370 . S
Eu65 O67 2.370 . S
Eu65 O71 2.370 . S
Eu65 O72 2.370 . S
Eu65 O80 2.363 . S
Eu65 O81 2.363 . S
Eu65 O96 2.363 . S
Eu65 O97 2.363 . S
Eu66 O64 2.370 . S
Eu66 O68 2.370 . S
Eu66 O73 2.370 . S
Eu66 O74 2.370 . S
Eu66 O82 2.363 . S
Eu66 O83 2.363 . S
Eu66 O98 2.363 . S
Eu66 O99 2.363 . S
O67 Eu62 2.370 . S
O67 Eu65 2.370 . S
O67 Eu69 2.370 . S
O68 Eu62 2.370 . S
O68 Eu66 2.370 . S
O68 Eu70 2.370 . S
Eu69 O64 2.370 . S
Eu69 O67 2.370 . S
Eu69 O71 2.370 . S
Eu69 O74 2.370 . S
Eu69 O86 2.363 . S
Eu69 O87 2.363 . S
Eu69 O94 2.363 . S
Eu69 O95 2.363 . S
Eu70 O63 2.370 . S
Eu70 O68 2.370 . S
Eu70 O72 2.370 . S
Eu70 O73 2.370 . S
Eu70 O84 2.363 . S
Eu70 O85 2.363 . S
Eu70 O92 2.363 . S
Eu70 O93 2.363 . S
O71 Eu65 2.370 . S
O71 Eu69 2.370 . S
O71 Eu75 2.370 . S
O72 Eu65 2.370 . S
O72 Eu70 2.370 . S
O72 Eu75 2.370 . S
O73 Eu66 2.370 . S
O73 Eu70 2.370 . S
O73 Eu75 2.370 . S
O74 Eu66 2.370 . S
O74 Eu69 2.370 . S
O74 Eu75 2.370 . S
Eu75 O71 2.370 . S
Eu75 O72 2.370 . S
Eu75 O73 2.370 . S
Eu75 O74 2.370 . S
Eu75 O78 2.363 . S
Eu75 O79 2.363 . S
Eu75 O88 2.363 . S
Eu75 O89 2.363 . S
O76 C50 1.283 . S
O76 Eu62 2.363 . S
O77 C51 1.283 . S
O77 Eu62 2.363 . S
O78 C52 1.283 . S
O78 Eu75 2.363 . S
O79 C53 1.283 1_565 S
O79 Eu75 2.363 . S
O80 C54 1.283 . S
O80 Eu65 2.363 . S
O81 C55 1.283 1_455 S
O81 Eu65 2.363 . S
O82 C56 1.283 . S
O82 Eu66 2.363 . S
O83 C57 1.283 . S
O83 Eu66 2.363 . S
O84 C58 1.283 . S
O84 Eu70 2.363 . S
O85 C59 1.283 . S
O85 Eu70 2.363 . S
O86 C60 1.283 . S
O86 Eu69 2.363 . S
O87 C61 1.283 . S
O87 Eu69 2.363 . S
O88 C56 1.283 . S
O88 Eu75 2.363 . S
O89 C54 1.283 . S
O89 Eu75 2.363 . S
O90 C57 1.283 . S
O90 Eu62 2.363 . S
O91 C55 1.283 1_455 S
O91 Eu62 2.363 . S
O92 C51 1.283 . S
O92 Eu70 2.363 . S
O93 C53 1.283 1_565 S
O93 Eu70 2.363 . S
O94 C50 1.283 . S
O94 Eu69 2.363 . S
O95 C52 1.283 . S
O95 Eu69 2.363 . S
O96 C61 1.283 . S
O96 Eu65 2.363 . S
O97 C59 1.283 . S
O97 Eu65 2.363 . S
O98 C60 1.283 . S
O98 Eu66 2.363 . S
O99 C58 1.283 . S
O99 Eu66 2.363 . S
C100 C101 1.369 . S
C100 C102 1.427 1_565 S
C100 H104 0.930 1_565 S
C101 C100 1.369 . S
C101 C110 1.429 1_556 S
C102 C100 1.427 1_545 S
C102 C103 1.354 1_556 S
C102 H105 0.930 . S
C103 C102 1.354 1_554 S
C103 C109 1.428 1_545 S
H104 C100 0.930 1_545 S
H105 C102 0.930 . S
S106 N107 1.613 . S
S106 N108 1.610 . S
N107 S106 1.613 . S
N107 C110 1.350 . S
N108 S106 1.610 . S
N108 C109 1.351 . S
C109 C103 1.428 1_565 S
C109 N108 1.351 . S
C109 C110 1.434 . S
C110 C101 1.429 1_554 S
C110 N107 1.350 . S
C110 C109 1.434 . S
C111 C112 1.369 . S
C111 C113 1.419 . S
C111 H115 0.930 . S
C112 C111 1.369 . S
C112 C121 1.429 . S
C113 C111 1.419 . S
C113 C114 1.363 . S
C113 H116 0.929 . S
C114 C113 1.363 . S
C114 C120 1.428 . S
H115 C111 0.930 . S
H116 C113 0.929 . S
S117 N118 1.613 . S
S117 N119 1.610 . S
N118 S117 1.613 . S
N118 C121 1.350 . S
N119 S117 1.610 . S
N119 C120 1.351 . S
C120 C114 1.428 . S
C120 N119 1.351 . S
C120 C121 1.434 . S
C121 C112 1.429 . S
C121 N118 1.350 . S
C121 C120 1.434 . S
C122 C123 1.369 1_455 S
C122 C124 1.419 1_554 S
C122 H126 0.930 . S
C123 C122 1.369 1_655 S
C123 C132 1.429 . S
C124 C122 1.419 1_556 S
C124 C125 1.363 . S
C124 H127 0.929 . S
C125 C124 1.363 . S
C125 C131 1.428 . S
H126 C122 0.930 . S
H127 C124 0.929 . S
S128 N129 1.613 . S
S128 N130 1.610 1_554 S
N129 S128 1.613 . S
N129 C132 1.350 . S
N130 S128 1.610 1_556 S
N130 C131 1.351 1_655 S
C131 C125 1.428 . S
C131 N130 1.351 1_455 S
C131 C132 1.434 1_456 S
C132 C123 1.429 . S
C132 N129 1.350 . S
C132 C131 1.434 1_654 S
C133 C134 1.369 . S
C133 C135 1.419 1_565 S
C133 H137 0.930 . S
C134 C133 1.369 . S
C134 C143 1.429 1_565 S
C135 C133 1.419 1_545 S
C135 C136 1.363 . S
C135 H138 0.929 . S
C136 C135 1.363 . S
C136 C142 1.428 . S
H137 C133 0.930 . S
H138 C135 0.929 . S
S139 N140 1.613 . S
S139 N141 1.610 . S
N140 S139 1.613 . S
N140 C143 1.350 . S
N141 S139 1.610 . S
N141 C142 1.351 . S
C142 C136 1.428 . S
C142 N141 1.351 . S
C142 C143 1.434 . S
C143 C134 1.429 1_545 S
C143 N140 1.350 . S
C143 C142 1.434 . S
C144 C145 1.369 1_556 S
C144 C146 1.419 . S
C144 H148 0.930 . S
C145 C144 1.369 1_554 S
C145 C154 1.429 . S
C146 C144 1.419 . S
C146 C147 1.363 . S
C146 H149 0.929 . S
C147 C146 1.363 . S
C147 C153 1.428 1_556 S
H148 C144 0.930 . S
H149 C146 0.929 . S
S150 N151 1.613 . S
S150 N152 1.610 . S
N151 S150 1.613 . S
N151 C154 1.350 . S
N152 S150 1.610 . S
N152 C153 1.351 . S
C153 C147 1.428 1_554 S
C153 N152 1.351 . S
C153 C154 1.434 . S
C154 C145 1.429 . S
C154 N151 1.350 . S
C154 C153 1.434 . S
C155 C156 1.369 . S
C155 C157 1.419 . S
C155 H159 0.930 . S
C156 C155 1.369 . S
C156 C165 1.429 . S
C157 C155 1.419 . S
C157 C158 1.363 1_655 S
C157 H160 0.929 . S
C158 C157 1.363 1_455 S
C158 C164 1.428 1_455 S
H159 C155 0.930 . S
H160 C157 0.929 . S
S161 N162 1.613 . S
S161 N163 1.610 1_655 S
N162 S161 1.613 . S
N162 C165 1.350 . S
N163 S161 1.610 1_455 S
N163 C164 1.351 1_455 S
C164 C158 1.428 1_655 S
C164 N163 1.351 1_655 S
C164 C165 1.434 . S
C165 C156 1.429 . S
C165 N162 1.350 . S
C165 C164 1.434 . S
C166 C167 1.369 . S
C166 C168 1.419 . S
C166 H170 0.930 . S
C167 C166 1.369 . S
C167 C176 1.429 . S
C168 C166 1.419 . S
C168 C169 1.363 . S
C168 H171 0.929 . S
C169 C168 1.363 . S
C169 C175 1.428 . S
H170 C166 0.930 . S
H171 C168 0.929 . S
S172 N173 1.613 . S
S172 N174 1.610 . S
N173 S172 1.613 . S
N173 C176 1.350 . S
N174 S172 1.610 . S
N174 C175 1.351 . S
C175 C169 1.428 . S
C175 N174 1.351 . S
C175 C176 1.434 . S
C176 C167 1.429 . S
C176 N173 1.350 . S
C176 C175 1.434 . S
C177 C178 1.369 . S
C177 C179 1.419 . S
C177 H181 0.930 . S
C178 C177 1.369 . S
C178 C187 1.429 . S
C179 C177 1.419 . S
C179 C180 1.363 . S
C179 H182 0.929 . S
C180 C179 1.363 . S
C180 C186 1.428 . S
H181 C177 0.930 . S
H182 C179 0.929 . S
S183 N184 1.613 . S
S183 N185 1.610 . S
N184 S183 1.613 . S
N184 C187 1.350 . S
N185 S183 1.610 . S
N185 C186 1.351 . S
C186 C180 1.428 . S
C186 N185 1.351 . S
C186 C187 1.434 . S
C187 C178 1.429 . S
C187 N184 1.350 . S
C187 C186 1.434 . S
C188 C189 1.369 . S
C188 C190 1.419 . S
C188 H192 0.930 . S
C189 C188 1.369 . S
C189 C198 1.429 . S
C190 C188 1.419 . S
C190 C191 1.363 . S
C190 H193 0.929 . S
C191 C190 1.363 . S
C191 C197 1.428 . S
H192 C188 0.930 . S
H193 C190 0.929 . S
S194 N195 1.613 . S
S194 N196 1.610 . S
N195 S194 1.613 . S
N195 C198 1.350 . S
N196 S194 1.610 . S
N196 C197 1.351 . S
C197 C191 1.428 . S
C197 N196 1.351 . S
C197 C198 1.434 . S
C198 C189 1.429 . S
C198 N195 1.350 . S
C198 C197 1.434 . S
C199 C200 1.369 . S
C199 C201 1.419 . S
C199 H203 0.930 . S
C200 C199 1.369 . S
C200 C209 1.429 . S
C201 C199 1.419 . S
C201 C202 1.363 . S
C201 H204 0.929 . S
C202 C201 1.363 . S
C202 C208 1.428 . S
H203 C199 0.930 . S
H204 C201 0.929 . S
S205 N206 1.613 1_565 S
S205 N207 1.610 . S
N206 S205 1.613 1_545 S
N206 C209 1.350 . S
N207 S205 1.610 . S
N207 C208 1.351 1_565 S
C208 C202 1.428 . S
C208 N207 1.351 1_545 S
C208 C209 1.434 . S
C209 C200 1.429 . S
C209 N206 1.350 . S
C209 C208 1.434 . S
C210 C211 1.369 . S
C210 C212 1.419 . S
C210 H214 0.930 . S
C211 C210 1.369 . S
C211 C220 1.429 . S
C212 C210 1.419 . S
C212 C213 1.363 . S
C212 H215 0.929 . S
C213 C212 1.363 . S
C213 C219 1.428 . S
H214 C210 0.930 . S
H215 C212 0.929 . S
S216 N217 1.613 . S
S216 N218 1.610 . S
N217 S216 1.613 . S
N217 C220 1.350 . S
N218 S216 1.610 . S
N218 C219 1.351 . S
C219 C213 1.428 . S
C219 N218 1.351 . S
C219 C220 1.434 . S
C220 C211 1.429 . S
C220 N217 1.350 . S
C220 C219 1.434 . S
C221 C222 1.369 . S
C221 C223 1.419 . S
C221 H225 0.930 . S
C222 C221 1.369 . S
C222 C231 1.429 . S
C223 C221 1.419 . S
C223 C224 1.363 . S
C223 H226 0.929 . S
C224 C223 1.363 . S
C224 C230 1.428 . S
H225 C221 0.930 . S
H226 C223 0.929 . S
S227 N228 1.613 . S
S227 N229 1.610 . S
N228 S227 1.613 . S
N228 C231 1.350 . S
N229 S227 1.610 . S
N229 C230 1.351 . S
C230 C224 1.428 . S
C230 N229 1.351 . S
C230 C231 1.434 . S
C231 C222 1.429 . S
C231 N228 1.350 . S
C231 C230 1.434 . S
C101 C54 1.924 . S
C103 C5 2.105 . S
C112 C57 2.108 . S
C114 C6 1.919 . S
C123 C1 2.101 . S
C125 C61 1.927 . S
C134 C58 2.108 . S
C136 C2 1.919 . S
C145 C9 2.103 . S
C147 C52 1.926 . S
C156 C10 1.918 . S
C158 C51 2.107 . S
C167 C0 1.250 1_565 S
C169 C3 1.243 . S
C178 C59 1.243 1_655 S
C180 C60 1.249 . S
C189 C11 1.248 . S
C191 C8 1.244 1_455 S
C200 C50 1.249 . S
C202 C53 1.243 . S
C211 C4 1.243 . S
C213 C7 1.248 . S
C222 C55 1.249 . S
C224 C56 1.244 1_545 S
