# Generated by pormake.
# Topology qtz, (4)-cn, num edge types: 1
# Building blocks:
#     Node 0, Type 0, BuildingBlock: CEKHIL_clean_sbu_0, # of connection points: 4
#     Node 1, Type 0, BuildingBlock: CEKHIL_clean_sbu_0, # of connection points: 4
#     Node 2, Type 0, BuildingBlock: CEKHIL_clean_sbu_0, # of connection points: 4
#     Edge 3, Type (0, 0), BuildingBlock: XUDNAN_clean_linker_2, # of connection points: 2
#     Edge 4, Type (0, 0), BuildingBlock: XUDNAN_clean_linker_2, # of connection points: 2
#     Edge 5, Type (0, 0), BuildingBlock: XUDNAN_clean_linker_2, # of connection points: 2
#     Edge 6, Type (0, 0), BuildingBlock: XUDNAN_clean_linker_2, # of connection points: 2
#     Edge 7, Type (0, 0), BuildingBlock: XUDNAN_clean_linker_2, # of connection points: 2
#     Edge 8, Type (0, 0), BuildingBlock: XUDNAN_clean_linker_2, # of connection points: 2
# Relax obj value: 0.004
# Max RMSD: 0.040
# Mean RMSD: 0.037
data_MOF--net-qtz--node1-CEKHIL_clean_sbu_0--edge1-XUDNAN_clean_linker_2
_symmetry_space_group_name_H-M    P1
_symmetry_Int_Tables_number       1
_symmetry_cell_setting            triclinic
loop_
_symmetry_equiv_pos_as_xyz
'x, y, z'
_cell_length_a     23.032693
_cell_length_b     23.223813
_cell_length_c     28.355745
_cell_angle_alpha  92.099149
_cell_angle_beta   89.815705
_cell_angle_gamma 120.45529
loop_
_atom_site_label
_atom_site_type_symbol
_atom_site_fract_x
_atom_site_fract_y
_atom_site_fract_z
_atom_type_partial_charge
Co0 Co 0.0107 0.51701 0.16056 0.0
O1 O 0.07791 0.56638 0.11502 0.0
O2 O 0.06537 0.47592 0.14768 0.0
C3 C 0.92566 0.51499 0.11925 0.0
O4 O 0.94454 0.45241 0.20826 0.0
Co5 Co 0.93677 0.58262 0.21016 0.0
O6 O 0.87721 0.49142 0.2324 0.0
C7 C 0.07601 0.62387 0.23975 0.0
C8 C 0.09731 0.52317 0.118 0.0
C9 C 0.8934 0.44642 0.23134 0.0
O10 O 0.07422 0.57654 0.21336 0.0
O11 O 0.02852 0.63732 0.24023 0.0
O12 O 0.94311 0.47072 0.10998 0.0
O13 O 0.96268 0.56094 0.15047 0.0
Co14 Co 0.53696 0.01634 0.53443 0.0
O15 O 0.50036 0.95029 0.58188 0.0
O16 O 0.58262 0.96556 0.53385 0.0
C17 C 0.54916 0.10198 0.58213 0.0
O18 O 0.5895 0.08069 0.48237 0.0
Co19 Co 0.46083 0.08617 0.50277 0.0
O20 O 0.54472 0.14498 0.46894 0.0
C21 C 0.41464 0.94797 0.468 0.0
C22 C 0.5443 0.93399 0.56886 0.0
C23 C 0.59006 0.1297 0.462 0.0
O24 O 0.46691 0.95124 0.4871 0.0
O25 O 0.4005 0.99449 0.4734 0.0
O26 O 0.59455 0.08463 0.58142 0.0
O27 O 0.49528 0.064 0.55706 0.0
Co28 Co 0.51563 0.52069 0.82606 0.0
O29 O 0.48145 0.54904 0.77523 0.0
O30 O 0.56156 0.61707 0.82653 0.0
C31 C 0.53076 0.44649 0.78243 0.0
O32 O 0.56669 0.51201 0.88123 0.0
Co33 Co 0.44153 0.37776 0.86088 0.0
O34 O 0.52792 0.4038 0.89372 0.0
C35 C 0.39647 0.47076 0.89313 0.0
C36 C 0.52572 0.60973 0.78906 0.0
C37 C 0.5709 0.46548 0.90136 0.0
O38 O 0.44462 0.5169 0.8698 0.0
O39 O 0.38437 0.41047 0.8925 0.0
O40 O 0.57503 0.5098 0.78326 0.0
O41 O 0.47529 0.42974 0.80455 0.0
H42 H 0.29728 0.39261 0.95592 0.0
H43 H 0.40403 0.59218 0.90101 0.0
H44 H 0.34273 0.62679 0.95517 0.0
H45 H 0.13703 0.38439 0.97013 0.0
H46 H 0.1175 0.33978 0.02401 0.0
H47 H 0.16979 0.33004 0.98087 0.0
H48 H 0.26319 0.36509 0.04469 0.0
H49 H 0.21143 0.37558 0.08793 0.0
H50 H 0.29499 0.44383 0.07715 0.0
H51 H 0.27151 0.64099 0.01445 0.0
H52 H 0.18901 0.63257 0.07308 0.0
H53 H 0.1266 0.42437 0.09153 0.0
C54 C 0.30753 0.4435 0.95504 0.0
C55 C 0.35578 0.4896 0.92397 0.0
C56 C 0.36758 0.55577 0.92428 0.0
C57 C 0.33309 0.57608 0.95508 0.0
C58 C 0.2868 0.52983 0.98554 0.0
C59 C 0.27347 0.4648 0.9857 0.0
C60 C 0.22041 0.42517 0.02187 0.0
C61 C 0.15745 0.36637 0.99777 0.0
C62 C 0.24925 0.401 0.06018 0.0
C63 C 0.20591 0.47815 0.04178 0.0
C64 C 0.24521 0.53813 0.02028 0.0
C65 C 0.2405 0.59436 0.03158 0.0
C66 C 0.19341 0.589 0.06501 0.0
C67 C 0.1514 0.52788 0.08703 0.0
C68 C 0.15855 0.47194 0.07574 0.0
H69 H 0.77855 0.41571 0.2788 0.0
H70 H 0.91804 0.34487 0.25221 0.0
H71 H 0.85544 0.25421 0.30792 0.0
H72 H 0.76408 0.39051 0.40092 0.0
H73 H 0.67613 0.36537 0.40225 0.0
H74 H 0.72948 0.42124 0.35831 0.0
H75 H 0.64933 0.34048 0.29191 0.0
H76 H 0.59533 0.28463 0.33567 0.0
H77 H 0.62833 0.25434 0.28958 0.0
H78 H 0.77808 0.17355 0.37076 0.0
H79 H 0.69279 0.10989 0.43063 0.0
H80 H 0.60803 0.23792 0.41453 0.0
C81 C 0.796 0.38098 0.2841 0.0
C82 C 0.85348 0.38769 0.26093 0.0
C83 C 0.87404 0.34075 0.26928 0.0
C84 C 0.83889 0.28922 0.30102 0.0
C85 C 0.78326 0.28525 0.32399 0.0
C86 C 0.76192 0.32986 0.31549 0.0
C87 C 0.70204 0.31673 0.34509 0.0
C88 C 0.71898 0.37704 0.37862 0.0
C89 C 0.6401 0.2979 0.31368 0.0
C90 C 0.69279 0.25778 0.37196 0.0
C91 C 0.73985 0.24 0.35952 0.0
C92 C 0.74094 0.18708 0.38051 0.0
C93 C 0.69239 0.15131 0.41463 0.0
C94 C 0.64342 0.16864 0.42747 0.0
C95 C 0.64439 0.22293 0.40572 0.0
H96 H 0.44806 0.82112 0.60995 0.0
H97 H 0.66361 0.94325 0.59132 0.0
H98 H 0.68235 0.87554 0.64816 0.0
H99 H 0.449 0.79471 0.73146 0.0
H100 H 0.38232 0.70846 0.72815 0.0
H101 H 0.38535 0.7654 0.68545 0.0
H102 H 0.38507 0.68797 0.61719 0.0
H103 H 0.38075 0.63014 0.65964 0.0
H104 H 0.44734 0.66277 0.61723 0.0
H105 H 0.67744 0.80258 0.71365 0.0
H106 H 0.64929 0.71464 0.77092 0.0
H107 H 0.43669 0.63175 0.74014 0.0
C108 C 0.49907 0.83275 0.61734 0.0
C109 C 0.55453 0.88722 0.59645 0.0
C110 C 0.62058 0.90121 0.60671 0.0
C111 C 0.63165 0.86346 0.63922 0.0
C112 C 0.57596 0.81102 0.66017 0.0
C113 C 0.51087 0.79433 0.64859 0.0
C114 C 0.45977 0.73404 0.67481 0.0
C115 C 0.41658 0.75175 0.70686 0.0
C116 C 0.41564 0.67524 0.64015 0.0
C117 C 0.50629 0.72011 0.70359 0.0
C118 C 0.57311 0.76598 0.69534 0.0
C119 C 0.62535 0.76572 0.7198 0.0
C120 C 0.6089 0.71608 0.75254 0.0
C121 C 0.54096 0.6666 0.75966 0.0
C122 C 0.48906 0.6689 0.73505 0.0
H123 H 0.62383 0.38979 0.93083 0.0
H124 H 0.6418 0.58442 0.9513 0.0
H125 H 0.73076 0.61576 0.01179 0.0
H126 H 0.65206 0.36713 0.05213 0.0
H127 H 0.70143 0.32884 0.03758 0.0
H128 H 0.63742 0.32045 0.9969 0.0
H129 H 0.72585 0.36967 0.93103 0.0
H130 H 0.79001 0.37782 0.97141 0.0
H131 H 0.80123 0.44977 0.94139 0.0
H132 H 0.81567 0.6253 0.07103 0.0
H133 H 0.89928 0.61682 0.11984 0.0
H134 H 0.83085 0.4183 0.05833 0.0
C135 C 0.64631 0.43889 0.94819 0.0
C136 C 0.6256 0.48455 0.93656 0.0
C137 C 0.65694 0.54869 0.95956 0.0
C138 C 0.70725 0.56683 0.99415 0.0
C139 C 0.72621 0.52057 1.00497 0.0
C140 C 0.69739 0.45824 0.98232 0.0
C141 C 0.72918 0.41909 0.99915 0.0
C142 C 0.67689 0.35509 0.02285 0.0
C143 C 0.76362 0.40318 0.95831 0.0
C144 C 0.78035 0.4692 0.0348 0.0
C145 C 0.77712 0.52703 0.03799 0.0
C146 C 0.81888 0.58038 0.06873 0.0
C147 C 0.86605 0.57498 0.09642 0.0
C148 C 0.87165 0.517 0.09275 0.0
C149 C 0.82777 0.46326 0.06179 0.0
H150 H 0.2912 0.91464 0.4313 0.0
H151 H 0.43773 0.84953 0.43211 0.0
H152 H 0.36694 0.7579 0.37423 0.0
H153 H 0.14254 0.74889 0.42109 0.0
H154 H 0.09857 0.77575 0.38347 0.0
H155 H 0.15973 0.83374 0.42634 0.0
H156 H 0.22423 0.91525 0.35995 0.0
H157 H 0.16364 0.85732 0.31686 0.0
H158 H 0.25191 0.8863 0.30966 0.0
H159 H 0.28107 0.67611 0.31232 0.0
H160 H 0.1862 0.60937 0.25596 0.0
H161 H 0.09819 0.73004 0.2978 0.0
C162 C 0.30844 0.88096 0.41971 0.0
C163 C 0.37024 0.88956 0.43628 0.0
C164 C 0.39048 0.84395 0.42012 0.0
C165 C 0.35069 0.79183 0.38711 0.0
C166 C 0.2906 0.78568 0.37091 0.0
C167 C 0.26941 0.82876 0.38712 0.0
C168 C 0.20342 0.81239 0.36409 0.0
C169 C 0.14779 0.79143 0.40094 0.0
C170 C 0.21132 0.87132 0.33597 0.0
C171 C 0.1911 0.75395 0.33177 0.0
C172 C 0.24165 0.73895 0.33608 0.0
C173 C 0.24103 0.68726 0.30892 0.0
C174 C 0.18703 0.64974 0.27689 0.0
C175 C 0.13444 0.66416 0.27233 0.0
C176 C 0.13719 0.71724 0.30026 0.0
H177 H 0.43985 0.32328 0.74114 0.0
H178 H 0.65332 0.46219 0.76532 0.0
H179 H 0.68029 0.38868 0.71716 0.0
H180 H 0.44817 0.16944 0.74111 0.0
H181 H 0.38613 0.12866 0.6943 0.0
H182 H 0.38297 0.18975 0.73359 0.0
H183 H 0.38597 0.25693 0.66175 0.0
H184 H 0.38984 0.19645 0.6223 0.0
H185 H 0.45384 0.28352 0.62057 0.0
H186 H 0.68526 0.30279 0.66591 0.0
H187 H 0.66774 0.20805 0.61343 0.0
H188 H 0.45154 0.126 0.61763 0.0
C189 C 0.49211 0.33739 0.73687 0.0
C190 C 0.54457 0.39814 0.75714 0.0
C191 C 0.61242 0.41581 0.7501 0.0
C192 C 0.62828 0.37441 0.72283 0.0
C193 C 0.57571 0.31566 0.70243 0.0
C194 C 0.50898 0.2969 0.70898 0.0
C195 C 0.46261 0.23228 0.68122 0.0
C196 C 0.41729 0.17674 0.71455 0.0
C197 C 0.4206 0.24297 0.64427 0.0
C198 C 0.51384 0.21818 0.65795 0.0
C199 C 0.5787 0.26676 0.67113 0.0
C200 C 0.63475 0.26441 0.65523 0.0
C201 C 0.6243 0.21048 0.62543 0.0
C202 C 0.55842 0.16007 0.61133 0.0
C203 C 0.5025 0.16436 0.62745 0.0
loop_
_geom_bond_atom_site_label_1
_geom_bond_atom_site_label_2
_geom_bond_distance
_geom_bond_site_symmetry_2
_ccdc_geom_bond_type
Co0 O1 2.216 . S
Co0 O2 2.091 . S
Co0 O4 2.004 1_455 S
Co0 O10 2.021 . S
Co0 O12 2.137 1_455 S
Co0 O13 2.244 1_455 S
O1 Co0 2.216 . S
O1 C8 1.247 . S
O2 Co0 2.091 . S
O2 C8 1.261 . S
C3 O12 1.247 . S
C3 O13 1.272 . S
O4 Co0 2.004 1_655 S
O4 C9 1.259 . S
Co5 O6 2.061 . S
Co5 O11 2.052 1_655 S
Co5 O13 2.135 . S
O6 Co5 2.061 . S
O6 C9 1.235 . S
C7 O10 1.238 . S
C7 O11 1.241 . S
C8 O1 1.247 . S
C8 O2 1.261 . S
C9 O4 1.259 . S
C9 O6 1.235 . S
O10 Co0 2.021 . S
O10 C7 1.238 . S
O11 Co5 2.052 1_455 S
O11 C7 1.241 . S
O12 Co0 2.137 1_655 S
O12 C3 1.247 . S
O13 Co0 2.244 1_655 S
O13 C3 1.272 . S
O13 Co5 2.135 . S
Co14 O15 2.216 1_545 S
Co14 O16 2.091 1_545 S
Co14 O18 2.004 . S
Co14 O24 2.021 1_545 S
Co14 O26 2.137 . S
Co14 O27 2.244 . S
O15 Co14 2.216 1_565 S
O15 C22 1.247 . S
O16 Co14 2.091 1_565 S
O16 C22 1.261 . S
C17 O26 1.247 . S
C17 O27 1.272 . S
O18 Co14 2.004 . S
O18 C23 1.259 . S
Co19 O20 2.061 . S
Co19 O25 2.052 1_545 S
Co19 O27 2.135 . S
O20 Co19 2.061 . S
O20 C23 1.235 . S
C21 O24 1.238 . S
C21 O25 1.241 . S
C22 O15 1.247 . S
C22 O16 1.261 . S
C23 O18 1.259 . S
C23 O20 1.235 . S
O24 Co14 2.021 1_565 S
O24 C21 1.238 . S
O25 Co19 2.052 1_565 S
O25 C21 1.241 . S
O26 Co14 2.137 . S
O26 C17 1.247 . S
O27 Co14 2.244 . S
O27 C17 1.272 . S
O27 Co19 2.135 . S
Co28 O29 2.216 . S
Co28 O30 2.091 . S
Co28 O32 2.004 . S
Co28 O38 2.021 . S
Co28 O40 2.137 . S
Co28 O41 2.244 . S
O29 Co28 2.216 . S
O29 C36 1.247 . S
O30 Co28 2.091 . S
O30 C36 1.261 . S
C31 O40 1.247 . S
C31 O41 1.272 . S
O32 Co28 2.004 . S
O32 C37 1.259 . S
Co33 O34 2.061 . S
Co33 O39 2.052 . S
Co33 O41 2.135 . S
O34 Co33 2.061 . S
O34 C37 1.235 . S
C35 O38 1.238 . S
C35 O39 1.241 . S
C36 O29 1.247 . S
C36 O30 1.261 . S
C37 O32 1.259 . S
C37 O34 1.235 . S
O38 Co28 2.021 . S
O38 C35 1.238 . S
O39 Co33 2.052 . S
O39 C35 1.241 . S
O40 Co28 2.137 . S
O40 C31 1.247 . S
O41 Co28 2.244 . S
O41 C31 1.272 . S
O41 Co33 2.135 . S
H42 C54 0.930 . S
H43 C56 0.930 . S
H44 C57 0.930 . S
H45 C61 0.959 . S
H46 C61 0.959 . S
H47 C61 0.961 . S
H48 C62 0.960 . S
H49 C62 0.961 . S
H50 C62 0.959 . S
H51 C65 0.929 . S
H52 C66 0.931 . S
H53 C68 0.930 . S
C54 H42 0.930 . S
C54 C55 1.399 . S
C54 C59 1.399 . S
C55 C54 1.399 . S
C55 C56 1.376 . S
C56 H43 0.930 . S
C56 C55 1.376 . S
C56 C57 1.388 . S
C57 H44 0.930 . S
C57 C56 1.388 . S
C57 C58 1.390 . S
C58 C57 1.390 . S
C58 C59 1.394 . S
C58 C64 1.465 1_556 S
C59 C54 1.399 . S
C59 C58 1.394 . S
C59 C60 1.516 . S
C60 C59 1.516 . S
C60 C61 1.502 . S
C60 C62 1.561 1_556 S
C60 C63 1.526 1_556 S
C61 H45 0.959 . S
C61 H46 0.959 . S
C61 H47 0.961 . S
C61 C60 1.502 . S
C62 H48 0.960 . S
C62 H49 0.961 . S
C62 H50 0.959 . S
C62 C60 1.561 1_554 S
C63 C60 1.526 1_554 S
C63 C64 1.396 . S
C63 C68 1.390 . S
C64 C58 1.465 1_554 S
C64 C63 1.396 . S
C64 C65 1.399 . S
C65 H51 0.929 . S
C65 C64 1.399 . S
C65 C66 1.385 . S
C66 H52 0.931 . S
C66 C65 1.385 . S
C66 C67 1.389 . S
C67 C66 1.389 . S
C67 C68 1.387 . S
C68 H53 0.930 . S
C68 C63 1.390 . S
C68 C67 1.387 . S
H69 C81 0.930 . S
H70 C83 0.930 . S
H71 C84 0.930 . S
H72 C88 0.959 . S
H73 C88 0.959 . S
H74 C88 0.961 . S
H75 C89 0.960 . S
H76 C89 0.961 . S
H77 C89 0.959 . S
H78 C92 0.929 . S
H79 C93 0.931 . S
H80 C95 0.930 . S
C81 H69 0.930 . S
C81 C82 1.399 . S
C81 C86 1.399 . S
C82 C81 1.399 . S
C82 C83 1.376 . S
C83 H70 0.930 . S
C83 C82 1.376 . S
C83 C84 1.388 . S
C84 H71 0.930 . S
C84 C83 1.388 . S
C84 C85 1.390 . S
C85 C84 1.390 . S
C85 C86 1.394 . S
C85 C91 1.465 . S
C86 C81 1.399 . S
C86 C85 1.394 . S
C86 C87 1.516 . S
C87 C86 1.516 . S
C87 C88 1.502 . S
C87 C89 1.561 . S
C87 C90 1.526 . S
C88 H72 0.959 . S
C88 H73 0.959 . S
C88 H74 0.961 . S
C88 C87 1.502 . S
C89 H75 0.960 . S
C89 H76 0.961 . S
C89 H77 0.959 . S
C89 C87 1.561 . S
C90 C87 1.526 . S
C90 C91 1.396 . S
C90 C95 1.390 . S
C91 C85 1.465 . S
C91 C90 1.396 . S
C91 C92 1.399 . S
C92 H78 0.929 . S
C92 C91 1.399 . S
C92 C93 1.385 . S
C93 H79 0.931 . S
C93 C92 1.385 . S
C93 C94 1.389 . S
C94 C93 1.389 . S
C94 C95 1.387 . S
C95 H80 0.930 . S
C95 C90 1.390 . S
C95 C94 1.387 . S
H96 C108 0.930 . S
H97 C110 0.930 . S
H98 C111 0.930 . S
H99 C115 0.959 . S
H100 C115 0.959 . S
H101 C115 0.961 . S
H102 C116 0.960 . S
H103 C116 0.961 . S
H104 C116 0.959 . S
H105 C119 0.929 . S
H106 C120 0.931 . S
H107 C122 0.930 . S
C108 H96 0.930 . S
C108 C109 1.399 . S
C108 C113 1.399 . S
C109 C108 1.399 . S
C109 C110 1.376 . S
C110 H97 0.930 . S
C110 C109 1.376 . S
C110 C111 1.388 . S
C111 H98 0.930 . S
C111 C110 1.388 . S
C111 C112 1.390 . S
C112 C111 1.390 . S
C112 C113 1.394 . S
C112 C118 1.465 . S
C113 C108 1.399 . S
C113 C112 1.394 . S
C113 C114 1.516 . S
C114 C113 1.516 . S
C114 C115 1.502 . S
C114 C116 1.561 . S
C114 C117 1.526 . S
C115 H99 0.959 . S
C115 H100 0.959 . S
C115 H101 0.961 . S
C115 C114 1.502 . S
C116 H102 0.960 . S
C116 H103 0.961 . S
C116 H104 0.959 . S
C116 C114 1.561 . S
C117 C114 1.526 . S
C117 C118 1.396 . S
C117 C122 1.390 . S
C118 C112 1.465 . S
C118 C117 1.396 . S
C118 C119 1.399 . S
C119 H105 0.929 . S
C119 C118 1.399 . S
C119 C120 1.385 . S
C120 H106 0.931 . S
C120 C119 1.385 . S
C120 C121 1.389 . S
C121 C120 1.389 . S
C121 C122 1.387 . S
C122 H107 0.930 . S
C122 C117 1.390 . S
C122 C121 1.387 . S
H123 C135 0.930 . S
H124 C137 0.930 . S
H125 C138 0.930 . S
H126 C142 0.959 . S
H127 C142 0.959 . S
H128 C142 0.961 . S
H129 C143 0.960 1_556 S
H130 C143 0.961 . S
H131 C143 0.959 1_556 S
H132 C146 0.929 1_556 S
H133 C147 0.931 . S
H134 C149 0.930 . S
C135 H123 0.930 . S
C135 C136 1.399 . S
C135 C140 1.399 . S
C136 C135 1.399 . S
C136 C137 1.376 . S
C137 H124 0.930 . S
C137 C136 1.376 . S
C137 C138 1.388 . S
C138 H125 0.930 . S
C138 C137 1.388 . S
C138 C139 1.390 . S
C139 C138 1.390 . S
C139 C140 1.394 . S
C139 C145 1.465 1_556 S
C140 C135 1.399 . S
C140 C139 1.394 . S
C140 C141 1.516 1_556 S
C141 C140 1.516 1_554 S
C141 C142 1.502 . S
C141 C143 1.561 . S
C141 C144 1.526 . S
C142 H126 0.959 . S
C142 H127 0.959 . S
C142 H128 0.961 . S
C142 C141 1.502 . S
C143 H129 0.960 1_554 S
C143 H130 0.961 . S
C143 H131 0.959 1_554 S
C143 C141 1.561 . S
C144 C141 1.526 . S
C144 C145 1.396 . S
C144 C149 1.390 . S
C145 C139 1.465 1_554 S
C145 C144 1.396 . S
C145 C146 1.399 . S
C146 H132 0.929 1_554 S
C146 C145 1.399 . S
C146 C147 1.385 . S
C147 H133 0.931 . S
C147 C146 1.385 . S
C147 C148 1.389 . S
C148 C147 1.389 . S
C148 C149 1.387 . S
C149 H134 0.930 . S
C149 C144 1.390 . S
C149 C148 1.387 . S
H150 C162 0.930 . S
H151 C164 0.930 . S
H152 C165 0.930 . S
H153 C169 0.959 . S
H154 C169 0.959 . S
H155 C169 0.961 . S
H156 C170 0.960 . S
H157 C170 0.961 . S
H158 C170 0.959 . S
H159 C173 0.929 . S
H160 C174 0.931 . S
H161 C176 0.930 . S
C162 H150 0.930 . S
C162 C163 1.399 . S
C162 C167 1.399 . S
C163 C162 1.399 . S
C163 C164 1.376 . S
C164 H151 0.930 . S
C164 C163 1.376 . S
C164 C165 1.388 . S
C165 H152 0.930 . S
C165 C164 1.388 . S
C165 C166 1.390 . S
C166 C165 1.390 . S
C166 C167 1.394 . S
C166 C172 1.465 . S
C167 C162 1.399 . S
C167 C166 1.394 . S
C167 C168 1.516 . S
C168 C167 1.516 . S
C168 C169 1.502 . S
C168 C170 1.561 . S
C168 C171 1.526 . S
C169 H153 0.959 . S
C169 H154 0.959 . S
C169 H155 0.961 . S
C169 C168 1.502 . S
C170 H156 0.960 . S
C170 H157 0.961 . S
C170 H158 0.959 . S
C170 C168 1.561 . S
C171 C168 1.526 . S
C171 C172 1.396 . S
C171 C176 1.390 . S
C172 C166 1.465 . S
C172 C171 1.396 . S
C172 C173 1.399 . S
C173 H159 0.929 . S
C173 C172 1.399 . S
C173 C174 1.385 . S
C174 H160 0.931 . S
C174 C173 1.385 . S
C174 C175 1.389 . S
C175 C174 1.389 . S
C175 C176 1.387 . S
C176 H161 0.930 . S
C176 C171 1.390 . S
C176 C175 1.387 . S
H177 C189 0.930 . S
H178 C191 0.930 . S
H179 C192 0.930 . S
H180 C196 0.959 . S
H181 C196 0.959 . S
H182 C196 0.961 . S
H183 C197 0.960 . S
H184 C197 0.961 . S
H185 C197 0.959 . S
H186 C200 0.929 . S
H187 C201 0.931 . S
H188 C203 0.930 . S
C189 H177 0.930 . S
C189 C190 1.399 . S
C189 C194 1.399 . S
C190 C189 1.399 . S
C190 C191 1.376 . S
C191 H178 0.930 . S
C191 C190 1.376 . S
C191 C192 1.388 . S
C192 H179 0.930 . S
C192 C191 1.388 . S
C192 C193 1.390 . S
C193 C192 1.390 . S
C193 C194 1.394 . S
C193 C199 1.465 . S
C194 C189 1.399 . S
C194 C193 1.394 . S
C194 C195 1.516 . S
C195 C194 1.516 . S
C195 C196 1.502 . S
C195 C197 1.561 . S
C195 C198 1.526 . S
C196 H180 0.959 . S
C196 H181 0.959 . S
C196 H182 0.961 . S
C196 C195 1.502 . S
C197 H183 0.960 . S
C197 H184 0.961 . S
C197 H185 0.959 . S
C197 C195 1.561 . S
C198 C195 1.526 . S
C198 C199 1.396 . S
C198 C203 1.390 . S
C199 C193 1.465 . S
C199 C198 1.396 . S
C199 C200 1.399 . S
C200 H186 0.929 . S
C200 C199 1.399 . S
C200 C201 1.385 . S
C201 H187 0.931 . S
C201 C200 1.385 . S
C201 C202 1.389 . S
C202 C201 1.389 . S
C202 C203 1.387 . S
C203 H188 0.930 . S
C203 C198 1.390 . S
C203 C202 1.387 . S
C55 C35 1.428 . S
C67 C8 1.445 . S
C82 C9 1.484 . S
C94 C23 1.482 . S
C109 C22 1.456 . S
C121 C36 1.449 . S
C136 C37 1.464 . S
C148 C3 1.464 . S
C163 C21 1.383 . S
C175 C7 1.409 . S
C190 C31 1.425 . S
C202 C17 1.437 . S
