# Generated by pormake.
# Topology unh, (4)-cn, num edge types: 1
# Building blocks:
#     Node 0, Type 0, BuildingBlock: QUQFOY_clean_sbu_3, # of connection points: 4
#     Node 1, Type 0, BuildingBlock: QUQFOY_clean_sbu_3, # of connection points: 4
#     Node 2, Type 0, BuildingBlock: QUQFOY_clean_sbu_3, # of connection points: 4
#     Node 3, Type 0, BuildingBlock: QUQFOY_clean_sbu_3, # of connection points: 4
#     Node 4, Type 0, BuildingBlock: QUQFOY_clean_sbu_3, # of connection points: 4
#     Node 5, Type 0, BuildingBlock: QUQFOY_clean_sbu_3, # of connection points: 4
#     Edge 6, Type (0, 0), BuildingBlock: EYOCIG_clean_linker_4, # of connection points: 2
#     Edge 7, Type (0, 0), BuildingBlock: EYOCIG_clean_linker_4, # of connection points: 2
#     Edge 8, Type (0, 0), BuildingBlock: EYOCIG_clean_linker_4, # of connection points: 2
#     Edge 9, Type (0, 0), BuildingBlock: EYOCIG_clean_linker_4, # of connection points: 2
#     Edge 10, Type (0, 0), BuildingBlock: EYOCIG_clean_linker_4, # of connection points: 2
#     Edge 11, Type (0, 0), BuildingBlock: EYOCIG_clean_linker_4, # of connection points: 2
#     Edge 12, Type (0, 0), BuildingBlock: EYOCIG_clean_linker_4, # of connection points: 2
#     Edge 13, Type (0, 0), BuildingBlock: EYOCIG_clean_linker_4, # of connection points: 2
#     Edge 14, Type (0, 0), BuildingBlock: EYOCIG_clean_linker_4, # of connection points: 2
#     Edge 15, Type (0, 0), BuildingBlock: EYOCIG_clean_linker_4, # of connection points: 2
#     Edge 16, Type (0, 0), BuildingBlock: EYOCIG_clean_linker_4, # of connection points: 2
#     Edge 17, Type (0, 0), BuildingBlock: EYOCIG_clean_linker_4, # of connection points: 2
# Relax obj value: 0.078
# Max RMSD: 0.192
# Mean RMSD: 0.192
data_MOF--net-unh--node1-QUQFOY_clean_sbu_3--edge1-EYOCIG_clean_linker_4
_symmetry_space_group_name_H-M    P1
_symmetry_Int_Tables_number       1
_symmetry_cell_setting            triclinic
loop_
_symmetry_equiv_pos_as_xyz
'x, y, z'
_cell_length_a     36.08642
_cell_length_b     36.06056
_cell_length_c     18.871691
_cell_angle_alpha  89.977475
_cell_angle_beta   89.983117
_cell_angle_gamma 120.04995
loop_
_atom_site_label
_atom_site_type_symbol
_atom_site_fract_x
_atom_site_fract_y
_atom_site_fract_z
_atom_type_partial_charge
C0 C 0.14615 0.49526 0.10683 0.0
O1 O 0.14566 0.48232 0.04421 0.0
Cd2 Cd 0.10389 0.48912 0.95134 0.0
O3 O 0.12235 0.51039 0.12472 0.0
Cd4 Cd 0.06613 0.52199 0.07051 0.0
C5 C 0.1402 0.59723 0.96274 0.0
O6 O 0.0313 0.46002 -0.00985 0.0
O7 O 0.0167 0.51084 0.97436 0.0
O8 O 0.02204 0.48868 0.17419 0.0
C9 C 0.00949 0.4737 0.95852 0.0
O10 O 0.13812 0.56596 0.92821 0.0
C11 C 0.0164 0.51971 0.18947 0.0
O12 O 0.11917 0.59146 0.01983 0.0
O13 O 0.03439 0.55277 0.15032 0.0
C14 C 0.61497 0.16469 0.27362 0.0
O15 O 0.62761 0.16429 0.2111 0.0
Cd16 Cd 0.57925 0.12263 0.11787 0.0
O17 O 0.57596 0.14084 0.29121 0.0
Cd18 Cd 0.50825 0.08465 0.23651 0.0
C19 C 0.50755 0.15893 0.12881 0.0
O20 O 0.53551 0.04991 0.15627 0.0
O21 O 0.47014 0.03532 0.14013 0.0
O22 O 0.49718 0.04044 0.34011 0.0
C23 C 0.50008 0.02813 0.12443 0.0
O24 O 0.53682 0.15692 0.09447 0.0
C25 C 0.46049 0.03476 0.35524 0.0
O26 O 0.49209 0.13779 0.18578 0.0
O27 O 0.44553 0.05277 0.31602 0.0
C28 C 0.41436 0.63336 0.44018 0.0
O29 O 0.42746 0.64592 0.37764 0.0
Cd30 Cd 0.42084 0.59745 0.28467 0.0
O31 O 0.39918 0.59436 0.45797 0.0
Cd32 Cd 0.38772 0.52655 0.40371 0.0
C33 C 0.31276 0.52553 0.29573 0.0
O34 O 0.44977 0.55384 0.32348 0.0
O35 O 0.39899 0.48835 0.30754 0.0
O36 O 0.42095 0.51581 0.50739 0.0
C37 C 0.43613 0.51834 0.29178 0.0
O38 O 0.34409 0.55482 0.26134 0.0
C39 C 0.38998 0.47906 0.52269 0.0
O40 O 0.3184 0.51016 0.35281 0.0
O41 O 0.35696 0.46393 0.48355 0.0
C42 C 0.74582 0.43334 0.60747 0.0
O43 O 0.74641 0.44639 0.54488 0.0
Cd44 Cd 0.78803 0.43945 0.45187 0.0
O45 O 0.76946 0.41802 0.62528 0.0
Cd46 Cd 0.82549 0.40614 0.57092 0.0
C47 C 0.75127 0.33123 0.4631 0.0
O48 O 0.86056 0.46815 0.49054 0.0
O49 O 0.87481 0.4171 0.47465 0.0
O50 O 0.86969 0.43931 0.67445 0.0
C51 C 0.88221 0.45431 0.45881 0.0
O52 O 0.75352 0.36262 0.42865 0.0
C53 C 0.87516 0.40817 0.68975 0.0
O54 O 0.77224 0.33683 0.52017 0.0
O55 O 0.85701 0.37511 0.6507 0.0
C56 C 0.27661 0.76414 0.77382 0.0
O57 O 0.26405 0.76465 0.71129 0.0
Cd58 Cd 0.31249 0.80633 0.61806 0.0
O59 O 0.31561 0.7879 0.79146 0.0
Cd60 Cd 0.38345 0.84406 0.73686 0.0
C61 C 0.38403 0.7698 0.629 0.0
O62 O 0.35633 0.87894 0.65663 0.0
O63 O 0.42168 0.89343 0.64045 0.0
O64 O 0.39459 0.88828 0.84042 0.0
C65 C 0.39178 0.90068 0.62474 0.0
O66 O 0.35483 0.77193 0.59467 0.0
C67 C 0.43124 0.89386 0.85553 0.0
O68 O 0.39948 0.79086 0.686 0.0
O69 O 0.44613 0.87577 0.81634 0.0
C70 C 0.47733 0.29556 0.94024 0.0
O71 O 0.46432 0.28307 0.87767 0.0
Cd72 Cd 0.47112 0.33166 0.78471 0.0
O73 O 0.49251 0.33454 0.95806 0.0
Cd74 Cd 0.50414 0.40245 0.9038 0.0
C75 C 0.5792 0.40345 0.79605 0.0
O76 O 0.44217 0.37524 0.82354 0.0
O77 O 0.49297 0.44073 0.80759 0.0
O78 O 0.4709 0.41321 0.00751 0.0
C79 C 0.45584 0.41075 0.79182 0.0
O80 O 0.54791 0.37422 0.76159 0.0
C81 C 0.5019 0.44994 0.02273 0.0
O82 O 0.5735 0.41879 0.85308 0.0
O83 O 0.53492 0.46504 -0.01645 0.0
C84 C -0.04536 0.43321 0.85536 0.0
C85 C -0.01994 0.44981 0.90283 0.0
C86 C 0.92566 0.41885 0.798 0.0
C87 C 0.90219 0.4114 0.74797 0.0
C88 C 0.47116 0.94438 0.96375 0.0
C89 C 0.45511 0.92091 0.91372 0.0
C90 C 0.4858 -0.02664 0.02117 0.0
C91 C 0.4946 -0.00126 0.0687 0.0
C92 C 0.47667 0.50414 0.18855 0.0
C93 C 0.46004 0.51289 0.23606 0.0
C94 C 0.49108 0.4896 0.13111 0.0
C95 C 0.49858 0.47366 0.08102 0.0
C96 C 0.93701 0.49462 0.3554 0.0
C97 C 0.91162 0.4781 0.40299 0.0
C98 C -0.03405 0.50893 0.29791 0.0
C99 C -0.01063 0.51638 0.2478 0.0
C100 C 0.42066 -0.01574 0.46366 0.0
C101 C 0.43668 0.00771 0.41354 0.0
C102 C 0.40607 0.95535 0.52121 0.0
C103 C 0.39729 0.93001 0.56887 0.0
C104 C 0.41532 0.42497 0.68857 0.0
C105 C 0.43196 0.41624 0.73609 0.0
C106 C 0.40087 0.43946 0.63112 0.0
C107 C 0.39333 0.45536 0.58101 0.0
C108 C 0.2028 0.49658 0.19693 0.0
C109 C 0.17673 0.49623 0.15655 0.0
C110 C 0.23748 0.50174 0.23889 0.0
C111 C 0.27035 0.5104 0.2689 0.0
C112 C 0.67012 0.22127 0.36412 0.0
C113 C 0.64447 0.19523 0.32357 0.0
C114 C 0.69961 0.25593 0.4062 0.0
C115 C 0.72388 0.2888 0.43624 0.0
C116 C 0.40764 0.71815 0.5722 0.0
C117 C 0.39905 0.74242 0.60215 0.0
C118 C 0.41284 0.68862 0.53029 0.0
C119 C 0.41328 0.66292 0.48992 0.0
C120 C 0.65455 0.42713 0.73947 0.0
C121 C 0.62166 0.41853 0.76938 0.0
C122 C 0.68924 0.43221 0.6976 0.0
C123 C 0.71528 0.43247 0.65723 0.0
C124 C 0.2213 0.70745 0.86415 0.0
C125 C 0.24702 0.73354 0.82368 0.0
C126 C 0.19177 0.67269 0.9061 0.0
C127 C 0.16752 0.63974 0.93603 0.0
C128 C 0.4787 0.24017 0.0303 0.0
C129 C 0.47833 0.26593 -0.01004 0.0
C130 C 0.48387 0.21058 0.07214 0.0
C131 C 0.49249 0.1863 0.10203 0.0
loop_
_geom_bond_atom_site_label_1
_geom_bond_atom_site_label_2
_geom_bond_distance
_geom_bond_site_symmetry_2
_ccdc_geom_bond_type
C0 O1 1.306 . S
C0 O3 1.160 . S
O1 C0 1.306 . S
O1 Cd2 2.228 1_554 S
Cd2 O1 2.228 1_556 S
Cd2 O6 2.269 1_556 S
Cd2 O10 2.277 . S
O3 C0 1.160 . S
O3 Cd4 2.203 . S
Cd4 O3 2.203 . S
Cd4 O6 2.420 . S
Cd4 O7 2.333 . S
Cd4 O8 2.352 . S
Cd4 O12 2.277 . S
Cd4 O13 2.356 . S
C5 O10 1.209 1_554 S
C5 O12 1.226 . S
O6 Cd2 2.269 1_554 S
O6 Cd4 2.420 . S
O6 C9 1.316 1_554 S
O7 Cd4 2.333 . S
O7 C9 1.214 1_554 S
O8 Cd4 2.352 . S
O8 C11 1.258 . S
C9 O6 1.316 1_556 S
C9 O7 1.214 1_556 S
O10 Cd2 2.277 . S
O10 C5 1.209 1_556 S
C11 O8 1.258 . S
C11 O13 1.282 . S
O12 Cd4 2.277 . S
O12 C5 1.226 . S
O13 Cd4 2.356 . S
O13 C11 1.282 . S
C14 O15 1.306 . S
C14 O17 1.160 . S
O15 C14 1.306 . S
O15 Cd16 2.228 . S
Cd16 O15 2.228 . S
Cd16 O20 2.273 . S
Cd16 O24 2.277 . S
O17 C14 1.160 . S
O17 Cd18 2.203 . S
Cd18 O17 2.203 . S
Cd18 O20 2.411 . S
Cd18 O21 2.333 . S
Cd18 O22 2.352 . S
Cd18 O26 2.277 . S
Cd18 O27 2.356 . S
C19 O24 1.209 . S
C19 O26 1.226 . S
O20 Cd16 2.273 . S
O20 Cd18 2.411 . S
O20 C23 1.320 . S
O21 Cd18 2.333 . S
O21 C23 1.214 . S
O22 Cd18 2.352 . S
O22 C25 1.258 . S
C23 O20 1.320 . S
C23 O21 1.214 . S
O24 Cd16 2.277 . S
O24 C19 1.209 . S
C25 O22 1.258 . S
C25 O27 1.282 . S
O26 Cd18 2.277 . S
O26 C19 1.226 . S
O27 Cd18 2.356 . S
O27 C25 1.282 . S
C28 O29 1.306 . S
C28 O31 1.160 . S
O29 C28 1.306 . S
O29 Cd30 2.228 . S
Cd30 O29 2.228 . S
Cd30 O34 2.273 . S
Cd30 O38 2.277 . S
O31 C28 1.160 . S
O31 Cd32 2.203 . S
Cd32 O31 2.203 . S
Cd32 O34 2.411 . S
Cd32 O35 2.333 . S
Cd32 O36 2.352 . S
Cd32 O40 2.277 . S
Cd32 O41 2.356 . S
C33 O38 1.209 . S
C33 O40 1.226 . S
O34 Cd30 2.273 . S
O34 Cd32 2.411 . S
O34 C37 1.320 . S
O35 Cd32 2.333 . S
O35 C37 1.214 . S
O36 Cd32 2.352 . S
O36 C39 1.258 . S
C37 O34 1.320 . S
C37 O35 1.214 . S
O38 Cd30 2.277 . S
O38 C33 1.209 . S
C39 O36 1.258 . S
C39 O41 1.282 . S
O40 Cd32 2.277 . S
O40 C33 1.226 . S
O41 Cd32 2.356 . S
O41 C39 1.282 . S
C42 O43 1.306 . S
C42 O45 1.160 . S
O43 C42 1.306 . S
O43 Cd44 2.228 . S
Cd44 O43 2.228 . S
Cd44 O48 2.273 . S
Cd44 O52 2.277 . S
O45 C42 1.160 . S
O45 Cd46 2.203 . S
Cd46 O45 2.203 . S
Cd46 O48 2.411 . S
Cd46 O49 2.333 . S
Cd46 O50 2.352 . S
Cd46 O54 2.277 . S
Cd46 O55 2.356 . S
C47 O52 1.209 . S
C47 O54 1.226 . S
O48 Cd44 2.273 . S
O48 Cd46 2.411 . S
O48 C51 1.320 . S
O49 Cd46 2.333 . S
O49 C51 1.214 . S
O50 Cd46 2.352 . S
O50 C53 1.258 . S
C51 O48 1.320 . S
C51 O49 1.214 . S
O52 Cd44 2.277 . S
O52 C47 1.209 . S
C53 O50 1.258 . S
C53 O55 1.282 . S
O54 Cd46 2.277 . S
O54 C47 1.226 . S
O55 Cd46 2.356 . S
O55 C53 1.282 . S
C56 O57 1.306 . S
C56 O59 1.160 . S
O57 C56 1.306 . S
O57 Cd58 2.228 . S
Cd58 O57 2.228 . S
Cd58 O62 2.273 . S
Cd58 O66 2.277 . S
O59 C56 1.160 . S
O59 Cd60 2.203 . S
Cd60 O59 2.203 . S
Cd60 O62 2.411 . S
Cd60 O63 2.333 . S
Cd60 O64 2.352 . S
Cd60 O68 2.277 . S
Cd60 O69 2.356 . S
C61 O66 1.209 . S
C61 O68 1.226 . S
O62 Cd58 2.273 . S
O62 Cd60 2.411 . S
O62 C65 1.320 . S
O63 Cd60 2.333 . S
O63 C65 1.214 . S
O64 Cd60 2.352 . S
O64 C67 1.258 . S
C65 O62 1.320 . S
C65 O63 1.214 . S
O66 Cd58 2.277 . S
O66 C61 1.209 . S
C67 O64 1.258 . S
C67 O69 1.282 . S
O68 Cd60 2.277 . S
O68 C61 1.226 . S
O69 Cd60 2.356 . S
O69 C67 1.282 . S
C70 O71 1.306 . S
C70 O73 1.160 . S
O71 C70 1.306 . S
O71 Cd72 2.228 . S
Cd72 O71 2.228 . S
Cd72 O76 2.273 . S
Cd72 O80 2.277 . S
O73 C70 1.160 . S
O73 Cd74 2.203 . S
Cd74 O73 2.203 . S
Cd74 O76 2.411 . S
Cd74 O77 2.333 . S
Cd74 O78 2.352 1_556 S
Cd74 O82 2.277 . S
Cd74 O83 2.356 1_556 S
C75 O80 1.209 . S
C75 O82 1.226 . S
O76 Cd72 2.273 . S
O76 Cd74 2.411 . S
O76 C79 1.320 . S
O77 Cd74 2.333 . S
O77 C79 1.214 . S
O78 Cd74 2.352 1_554 S
O78 C81 1.258 . S
C79 O76 1.320 . S
C79 O77 1.214 . S
O80 Cd72 2.277 . S
O80 C75 1.209 . S
C81 O78 1.258 . S
C81 O83 1.282 . S
O82 Cd74 2.277 . S
O82 C75 1.226 . S
O83 Cd74 2.356 1_554 S
O83 C81 1.282 . S
C84 C85 1.170 . S
C84 C86 1.380 1_455 S
C85 C84 1.170 . S
C86 C84 1.380 1_655 S
C86 C87 1.170 . S
C87 C86 1.170 . S
C88 C89 1.170 . S
C88 C90 1.380 1_566 S
C89 C88 1.170 . S
C90 C88 1.380 1_544 S
C90 C91 1.170 . S
C91 C90 1.170 . S
C92 C93 1.170 . S
C92 C94 1.380 . S
C93 C92 1.170 . S
C94 C92 1.380 . S
C94 C95 1.170 . S
C95 C94 1.170 . S
C96 C97 1.170 . S
C96 C98 1.380 1_655 S
C97 C96 1.170 . S
C98 C96 1.380 1_455 S
C98 C99 1.170 . S
C99 C98 1.170 . S
C100 C101 1.170 . S
C100 C102 1.380 1_545 S
C101 C100 1.170 . S
C102 C100 1.380 1_565 S
C102 C103 1.170 . S
C103 C102 1.170 . S
C104 C105 1.170 . S
C104 C106 1.380 . S
C105 C104 1.170 . S
C106 C104 1.380 . S
C106 C107 1.170 . S
C107 C106 1.170 . S
C108 C109 1.170 . S
C108 C110 1.380 . S
C109 C108 1.170 . S
C110 C108 1.380 . S
C110 C111 1.170 . S
C111 C110 1.170 . S
C112 C113 1.170 . S
C112 C114 1.380 . S
C113 C112 1.170 . S
C114 C112 1.380 . S
C114 C115 1.170 . S
C115 C114 1.170 . S
C116 C117 1.170 . S
C116 C118 1.380 . S
C117 C116 1.170 . S
C118 C116 1.380 . S
C118 C119 1.170 . S
C119 C118 1.170 . S
C120 C121 1.170 . S
C120 C122 1.380 . S
C121 C120 1.170 . S
C122 C120 1.380 . S
C122 C123 1.170 . S
C123 C122 1.170 . S
C124 C125 1.170 . S
C124 C126 1.380 . S
C125 C124 1.170 . S
C126 C124 1.380 . S
C126 C127 1.170 . S
C127 C126 1.170 . S
C128 C129 1.170 . S
C128 C130 1.380 . S
C129 C128 1.170 . S
C130 C128 1.380 . S
C130 C131 1.170 . S
C131 C130 1.170 . S
C85 C9 1.345 . S
C87 C53 1.354 . S
C89 C67 1.353 . S
C91 C23 1.348 . S
C93 C37 1.324 . S
C95 C81 1.356 . S
C97 C51 1.347 . S
C99 C11 1.353 . S
C101 C25 1.353 . S
C103 C65 1.348 . S
C105 C79 1.347 . S
C107 C39 1.352 . S
C109 C0 1.326 . S
C111 C33 1.323 . S
C113 C14 1.329 . S
C115 C47 1.330 . S
C117 C61 1.319 . S
C119 C28 1.320 . S
C121 C75 1.338 . S
C123 C42 1.337 . S
C125 C56 1.341 . S
C127 C5 1.341 1_556 S
C129 C70 1.330 1_554 S
C131 C19 1.331 . S
