# Generated by pormake.
# Topology pcu, (6)-cn, num edge types: 1
# Building blocks:
#     Node 0, Type 0, BuildingBlock: CUWYAW_clean_sbu_0, # of connection points: 6
#     Edge 1, Type (0, 0), BuildingBlock: FUNLAD_clean_linker_1, # of connection points: 2
#     Edge 2, Type (0, 0), BuildingBlock: FUNLAD_clean_linker_1, # of connection points: 2
#     Edge 3, Type (0, 0), BuildingBlock: FUNLAD_clean_linker_1, # of connection points: 2
# Relax obj value: 0.000
# Max RMSD: 0.000
# Mean RMSD: 0.000
data_MOF--net-pcu--node1-CUWYAW_clean_sbu_0--edge1-FUNLAD_clean_linker_1
_symmetry_space_group_name_H-M    P1
_symmetry_Int_Tables_number       1
_symmetry_cell_setting            triclinic
loop_
_symmetry_equiv_pos_as_xyz
'x, y, z'
_cell_length_a     26.311041
_cell_length_b     15.961817
_cell_length_c     15.191654
_cell_angle_alpha  91.57494
_cell_angle_beta   96.73807
_cell_angle_gamma 122.97861
loop_
_atom_site_label
_atom_site_type_symbol
_atom_site_fract_x
_atom_site_fract_y
_atom_site_fract_z
_atom_type_partial_charge
C0 C 0.20782 0.11064 0.98585 0.0
Eu1 Eu 0.09699 0.04784 0.01275 0.0
C2 C 0.25138 0.07932 0.99264 0.0
C3 C 0.31314 0.15033 0.02722 0.0
C4 C 0.35629 0.12464 0.03129 0.0
C5 C 0.33853 0.02706 0.9998 0.0
C6 C 0.27618 0.95534 0.96735 0.0
C7 C 0.23296 0.98109 0.96366 0.0
C8 C 0.05491 0.01724 0.17069 0.0
C9 C 1.00856 0.80207 0.99371 0.0
C10 C 0.84692 0.88034 0.02474 0.0
Eu11 Eu 0.9579 0.94332 0.99854 0.0
C12 C 0.80343 0.91182 0.01805 0.0
C13 C 0.74172 0.84106 0.98302 0.0
C14 C 0.69862 0.86686 0.97905 0.0
C15 C 0.71638 0.96428 0.01108 0.0
C16 C 0.7787 0.03578 0.04397 0.0
C17 C 0.82187 0.00992 0.04757 0.0
C18 C 1.00041 0.9741 0.84076 0.0
C19 C 0.04632 0.18907 0.01793 0.0
O20 O 0.15952 0.06169 0.92354 0.0
O21 O 0.19546 0.13228 0.06087 0.0
O22 O 0.10763 0.09476 0.15944 0.0
O23 O 0.02932 0.95663 0.10088 0.0
O24 O 0.06222 0.88273 0.98382 0.0
O25 O 0.9626 0.80776 0.01161 0.0
O26 O 0.89502 0.92876 0.0874 0.0
O27 O 0.85953 0.85933 0.94971 0.0
O28 O 0.94773 0.89633 0.85182 0.0
O29 O 1.02552 0.03456 0.91061 0.0
O30 O 0.99268 0.10838 0.02782 0.0
O31 O 0.09226 0.1834 0.99987 0.0
H32 H 0.32815 0.22627 0.05073 0.0
H33 H 0.40316 0.18173 0.05959 0.0
H34 H 0.2609 0.87936 0.94356 0.0
H35 H 0.18539 0.92457 0.93737 0.0
H36 H 0.72669 0.76523 0.95909 0.0
H37 H 0.65178 0.80999 0.95037 0.0
H38 H 0.79397 0.11164 0.06818 0.0
H39 H 0.8694 0.06625 0.07421 0.0
H40 H 0.9898 0.92269 0.25931 0.0
C41 C 0.03385 0.99203 0.25752 0.0
H42 H 0.1121 0.12016 0.33241 0.0
H43 H 0.97972 0.09635 0.66214 0.0
H44 H 0.99116 0.24329 0.60124 0.0
H45 H 0.02879 0.29104 0.45779 0.0
H46 H 0.05478 0.19154 0.37417 0.0
C47 C 0.0686 0.0497 0.33383 0.0
C48 C 0.04787 0.02188 0.42181 0.0
C49 C 0.03417 0.08207 0.47091 0.0
C50 C 1.01354 0.05553 0.55447 0.0
C51 C 0.99753 0.11462 0.59991 0.0
C52 C 1.00338 0.19885 0.56531 0.0
C53 C 1.02448 0.22566 0.48451 0.0
C54 C 0.03943 0.16798 0.43733 0.0
H55 H 0.06571 0.0691 0.75253 0.0
C56 C 1.0217 -0.0004 0.7541 0.0
H57 H 0.94369 0.87138 0.67892 0.0
H58 H 0.07614 0.89547 0.34942 0.0
H59 H 0.06474 0.74857 0.41034 0.0
H60 H 1.02719 0.70088 0.55385 0.0
H61 H 1.00123 0.80039 0.6375 0.0
C62 C 0.98716 0.94198 0.67767 0.0
C63 C 1.00804 0.96998 0.5898 0.0
C64 C 1.02178 0.90982 0.54073 0.0
C65 C 0.04239 0.93634 0.45716 0.0
C66 C 0.05837 0.87724 0.41168 0.0
C67 C 0.05254 0.79302 0.44629 0.0
C68 C 0.03148 0.76625 0.52712 0.0
C69 C 1.01655 0.82393 0.57431 0.0
H70 H 0.36475 0.91714 0.98755 0.0
C71 C 0.38313 -0.00313 0.99973 0.0
H72 H 0.4656 0.14261 0.02096 0.0
H73 H 0.62431 0.97187 0.17021 0.0
H74 H 0.61083 0.02811 0.31038 0.0
H75 H 0.54059 0.08498 0.31361 0.0
H76 H 0.48313 0.08551 0.17658 0.0
C77 C 0.44444 0.06223 0.00998 0.0
C78 C 0.48632 0.02701 0.00753 0.0
C79 C 0.52028 0.02869 0.08798 0.0
C80 C 0.56121 -0.00324 0.08604 0.0
C81 C 0.59333 -0.00324 0.16765 0.0
C82 C 0.58586 0.02854 0.24864 0.0
C83 C 0.54628 0.06052 0.25047 0.0
C84 C 0.51367 0.0606 0.17133 0.0
H85 H 0.69022 0.07426 0.02353 0.0
C86 C 0.67182 0.99453 0.01125 0.0
H87 H 0.58935 0.8488 0.98996 0.0
H88 H 0.43063 0.01953 0.84076 0.0
H89 H 0.44411 0.96329 0.70059 0.0
H90 H 0.51436 0.90642 0.69736 0.0
H91 H 0.57182 0.90589 0.83439 0.0
C92 C 0.6105 0.92918 1.00098 0.0
C93 C 0.56863 0.9644 1.00344 0.0
C94 C 0.53467 0.96272 0.92299 0.0
C95 C 0.49374 0.99465 0.92493 0.0
C96 C 0.46162 0.99464 0.84332 0.0
C97 C 0.46909 0.96286 0.76233 0.0
C98 C 0.50866 0.93088 0.7605 0.0
C99 C 0.54127 0.9308 0.83964 0.0
H100 H 0.95484 0.63772 0.99498 0.0
C101 C 1.00032 0.70306 0.99132 0.0
H102 H 0.09353 0.75643 0.9906 0.0
H103 H 0.05996 0.38337 0.18226 0.0
H104 H 0.11298 0.51466 0.30665 0.0
H105 H 0.13242 0.68278 0.29086 0.0
H106 H 0.09896 0.72061 0.1506 0.0
C107 C 0.04713 0.69169 0.98977 0.0
C108 C 0.03779 0.59176 0.99728 0.0
C109 C 0.05879 0.57165 0.07917 0.0
C110 C 0.04805 0.47505 0.08806 0.0
C111 C 0.0679 0.45601 0.17137 0.0
C112 C 0.09813 0.53056 0.24345 0.0
C113 C 0.10905 0.62519 0.23458 0.0
C114 C 0.08964 0.64591 0.15364 0.0
H115 H 0.10003 0.35343 0.01675 0.0
C116 C 0.05457 0.28808 0.02045 0.0
H117 H 0.96136 0.23469 0.02132 0.0
H118 H 0.99492 0.60775 0.82963 0.0
H119 H 0.94189 0.47645 0.70525 0.0
H120 H 0.92241 0.30831 0.72105 0.0
H121 H 0.95587 0.27049 0.86131 0.0
C122 C 1.00775 0.29943 0.02211 0.0
C123 C 1.01707 0.39935 0.01462 0.0
C124 C 0.99607 0.41946 0.93274 0.0
C125 C 1.00681 0.51606 0.92383 0.0
C126 C 0.98696 0.5351 0.84052 0.0
C127 C 0.95673 0.46055 0.76845 0.0
C128 C 0.9458 0.36591 0.77733 0.0
C129 C 0.96521 0.34519 0.85826 0.0
loop_
_geom_bond_atom_site_label_1
_geom_bond_atom_site_label_2
_geom_bond_distance
_geom_bond_site_symmetry_2
_ccdc_geom_bond_type
C0 Eu1 2.835 . S
C0 C2 1.500 . S
C0 O20 1.257 1_554 S
C0 O21 1.260 . S
Eu1 C0 2.835 . S
Eu1 O20 2.473 1_554 S
Eu1 O21 2.480 . S
Eu1 O22 2.430 . S
Eu1 O23 2.670 1_455 S
Eu1 O24 2.394 1_545 S
Eu1 O29 2.355 1_544 S
Eu1 O31 2.374 . S
C2 C0 1.500 . S
C2 C3 1.377 . S
C2 C7 1.377 1_544 S
C3 C2 1.377 . S
C3 C4 1.395 . S
C3 H32 0.931 . S
C4 C3 1.395 . S
C4 C5 1.388 . S
C4 H33 0.931 . S
C5 C4 1.388 . S
C5 C6 1.396 1_544 S
C6 C5 1.396 1_566 S
C6 C7 1.378 . S
C6 H34 0.931 . S
C7 C2 1.377 1_566 S
C7 C6 1.378 . S
C7 H35 0.931 . S
C8 O22 1.259 . S
C8 O23 1.270 1_455 S
C9 O24 1.251 1_655 S
C9 O25 1.251 1_554 S
C10 Eu11 2.835 . S
C10 C12 1.500 . S
C10 O26 1.257 1_556 S
C10 O27 1.260 . S
Eu11 C10 2.835 . S
Eu11 O23 2.355 1_566 S
Eu11 O25 2.374 . S
Eu11 O26 2.473 1_556 S
Eu11 O27 2.480 . S
Eu11 O28 2.430 . S
Eu11 O29 2.670 1_655 S
Eu11 O30 2.394 1_565 S
C12 C10 1.500 . S
C12 C13 1.377 . S
C12 C17 1.377 1_566 S
C13 C12 1.377 . S
C13 C14 1.395 . S
C13 H36 0.931 . S
C14 C13 1.395 . S
C14 C15 1.387 . S
C14 H37 0.931 . S
C15 C14 1.387 . S
C15 C16 1.396 1_566 S
C16 C15 1.396 1_544 S
C16 C17 1.378 . S
C16 H38 0.931 . S
C17 C12 1.377 1_544 S
C17 C16 1.378 . S
C17 H39 0.931 . S
C18 O28 1.259 . S
C18 O29 1.270 1_655 S
C19 O30 1.251 1_455 S
C19 O31 1.251 1_556 S
O20 C0 1.257 1_556 S
O20 Eu1 2.473 1_556 S
O21 C0 1.260 . S
O21 Eu1 2.480 . S
O22 Eu1 2.430 . S
O22 C8 1.259 . S
O23 Eu1 2.670 1_655 S
O23 C8 1.270 1_655 S
O23 Eu11 2.355 1_544 S
O24 Eu1 2.394 1_565 S
O24 C9 1.251 1_455 S
O25 C9 1.251 1_556 S
O25 Eu11 2.374 . S
O26 C10 1.257 1_554 S
O26 Eu11 2.473 1_554 S
O27 C10 1.260 . S
O27 Eu11 2.480 . S
O28 Eu11 2.430 . S
O28 C18 1.259 . S
O29 Eu1 2.355 1_566 S
O29 Eu11 2.670 1_455 S
O29 C18 1.270 1_455 S
O30 Eu11 2.394 1_545 S
O30 C19 1.251 1_655 S
O31 Eu1 2.374 . S
O31 C19 1.251 1_554 S
H32 C3 0.931 . S
H33 C4 0.931 . S
H34 C6 0.931 . S
H35 C7 0.931 . S
H36 C13 0.931 . S
H37 C14 0.931 . S
H38 C16 0.931 . S
H39 C17 0.931 . S
H40 C41 0.951 . S
C41 H40 0.951 . S
C41 C47 1.265 1_665 S
H42 C47 0.950 . S
H43 C51 0.949 . S
H44 C52 0.950 . S
H45 C53 0.951 . S
H46 C54 0.951 . S
C47 C41 1.265 1_445 S
C47 H42 0.950 . S
C47 C48 1.478 . S
C48 C47 1.478 . S
C48 C49 1.397 . S
C48 C65 1.394 1_445 S
C49 C48 1.397 . S
C49 C50 1.438 . S
C49 C54 1.429 . S
C50 C49 1.438 . S
C50 C51 1.428 . S
C50 C63 1.394 1_445 S
C51 H43 0.949 . S
C51 C50 1.428 . S
C51 C52 1.345 . S
C52 H44 0.950 . S
C52 C51 1.345 . S
C52 C53 1.424 . S
C53 H45 0.951 . S
C53 C52 1.424 . S
C53 C54 1.347 . S
C54 H46 0.951 . S
C54 C49 1.429 . S
C54 C53 1.347 . S
H55 C56 0.951 . S
C56 H55 0.951 . S
C56 C62 1.265 1_445 S
H57 C62 0.950 . S
H58 C66 0.949 . S
H59 C67 0.950 . S
H60 C68 0.951 . S
H61 C69 0.951 . S
C62 C56 1.265 1_665 S
C62 H57 0.950 . S
C62 C63 1.478 . S
C63 C50 1.394 1_665 S
C63 C62 1.478 . S
C63 C64 1.397 . S
C64 C63 1.397 . S
C64 C65 1.438 . S
C64 C69 1.429 . S
C65 C48 1.394 1_665 S
C65 C64 1.438 . S
C65 C66 1.428 . S
C66 H58 0.949 . S
C66 C65 1.428 . S
C66 C67 1.345 . S
C67 H59 0.950 . S
C67 C66 1.345 . S
C67 C68 1.424 . S
C68 H60 0.951 . S
C68 C67 1.424 . S
C68 C69 1.347 . S
C69 H61 0.951 . S
C69 C64 1.429 . S
C69 C68 1.347 . S
H70 C71 0.951 . S
C71 H70 0.951 . S
C71 C77 1.265 1_566 S
H72 C77 0.950 . S
H73 C81 0.949 1_565 S
H74 C82 0.950 . S
H75 C83 0.951 . S
H76 C84 0.951 . S
C77 C71 1.265 1_544 S
C77 H72 0.950 . S
C77 C78 1.478 . S
C78 C77 1.478 . S
C78 C79 1.397 . S
C78 C95 1.394 1_544 S
C79 C78 1.397 . S
C79 C80 1.438 . S
C79 C84 1.429 . S
C80 C79 1.438 . S
C80 C81 1.428 . S
C80 C93 1.394 1_544 S
C81 H73 0.949 1_545 S
C81 C80 1.428 . S
C81 C82 1.345 . S
C82 H74 0.950 . S
C82 C81 1.345 . S
C82 C83 1.424 . S
C83 H75 0.951 . S
C83 C82 1.424 . S
C83 C84 1.347 . S
C84 H76 0.951 . S
C84 C79 1.429 . S
C84 C83 1.347 . S
H85 C86 0.951 . S
C86 H85 0.951 . S
C86 C92 1.265 1_544 S
H87 C92 0.950 . S
H88 C96 0.949 1_545 S
H89 C97 0.950 . S
H90 C98 0.951 . S
H91 C99 0.951 . S
C92 C86 1.265 1_566 S
C92 H87 0.950 . S
C92 C93 1.478 . S
C93 C80 1.394 1_566 S
C93 C92 1.478 . S
C93 C94 1.397 . S
C94 C93 1.397 . S
C94 C95 1.438 . S
C94 C99 1.429 . S
C95 C78 1.394 1_566 S
C95 C94 1.438 . S
C95 C96 1.428 . S
C96 H88 0.949 1_565 S
C96 C95 1.428 . S
C96 C97 1.345 . S
C97 H89 0.950 . S
C97 C96 1.345 . S
C97 C98 1.424 . S
C98 H90 0.951 . S
C98 C97 1.424 . S
C98 C99 1.347 . S
C99 H91 0.951 . S
C99 C94 1.429 . S
C99 C98 1.347 . S
H100 C101 0.951 . S
C101 H100 0.951 . S
C101 C107 1.265 1_656 S
H102 C107 0.950 . S
H103 C111 0.949 . S
H104 C112 0.950 . S
H105 C113 0.951 . S
H106 C114 0.951 . S
C107 C101 1.265 1_454 S
C107 H102 0.950 . S
C107 C108 1.478 . S
C108 C107 1.478 . S
C108 C109 1.397 . S
C108 C125 1.394 1_454 S
C109 C108 1.397 . S
C109 C110 1.438 . S
C109 C114 1.429 . S
C110 C109 1.438 . S
C110 C111 1.428 . S
C110 C123 1.394 1_454 S
C111 H103 0.949 . S
C111 C110 1.428 . S
C111 C112 1.345 . S
C112 H104 0.950 . S
C112 C111 1.345 . S
C112 C113 1.424 . S
C113 H105 0.951 . S
C113 C112 1.424 . S
C113 C114 1.347 . S
C114 H106 0.951 . S
C114 C109 1.429 . S
C114 C113 1.347 . S
H115 C116 0.951 . S
C116 H115 0.951 . S
C116 C122 1.265 1_454 S
H117 C122 0.950 . S
H118 C126 0.949 . S
H119 C127 0.950 . S
H120 C128 0.951 . S
H121 C129 0.951 . S
C122 C116 1.265 1_656 S
C122 H117 0.950 . S
C122 C123 1.478 . S
C123 C110 1.394 1_656 S
C123 C122 1.478 . S
C123 C124 1.397 . S
C124 C123 1.397 . S
C124 C125 1.438 . S
C124 C129 1.429 . S
C125 C108 1.394 1_656 S
C125 C124 1.438 . S
C125 C126 1.428 . S
C126 H118 0.949 . S
C126 C125 1.428 . S
C126 C127 1.345 . S
C127 H119 0.950 . S
C127 C126 1.345 . S
C127 C128 1.424 . S
C128 H120 0.951 . S
C128 C127 1.424 . S
C128 C129 1.347 . S
C129 H121 0.951 . S
C129 C124 1.429 . S
C129 C128 1.347 . S
C41 C8 1.484 1_665 S
C56 C18 1.484 1_445 S
C71 C5 1.484 1_566 S
C86 C15 1.486 1_544 S
C101 C9 1.469 1_556 S
C116 C19 1.469 1_554 S
