# Generated by pormake.
# Topology qtz-x, (6)-cn, num edge types: 1
# Building blocks:
#     Node 0, Type 0, BuildingBlock: MIFKUJ_clean_sbu_0, # of connection points: 6
#     Node 1, Type 0, BuildingBlock: MIFKUJ_clean_sbu_0, # of connection points: 6
#     Node 2, Type 0, BuildingBlock: MIFKUJ_clean_sbu_0, # of connection points: 6
#     Edge 3, Type (0, 0), BuildingBlock: KIFKEQ_clean_linker_1, # of connection points: 2
#     Edge 4, Type (0, 0), BuildingBlock: KIFKEQ_clean_linker_1, # of connection points: 2
#     Edge 5, Type (0, 0), BuildingBlock: KIFKEQ_clean_linker_1, # of connection points: 2
#     Edge 6, Type (0, 0), BuildingBlock: KIFKEQ_clean_linker_1, # of connection points: 2
#     Edge 7, Type (0, 0), BuildingBlock: KIFKEQ_clean_linker_1, # of connection points: 2
#     Edge 8, Type (0, 0), BuildingBlock: KIFKEQ_clean_linker_1, # of connection points: 2
#     Edge 9, Type (0, 0), BuildingBlock: KIFKEQ_clean_linker_1, # of connection points: 2
#     Edge 10, Type (0, 0), BuildingBlock: KIFKEQ_clean_linker_1, # of connection points: 2
#     Edge 11, Type (0, 0), BuildingBlock: KIFKEQ_clean_linker_1, # of connection points: 2
# Relax obj value: 0.172
# Max RMSD: 0.240
# Mean RMSD: 0.238
data_MOF--net-qtz-x--node1-MIFKUJ_clean_sbu_0--edge1-KIFKEQ_clean_linker_1
_symmetry_space_group_name_H-M    P1
_symmetry_Int_Tables_number       1
_symmetry_cell_setting            triclinic
loop_
_symmetry_equiv_pos_as_xyz
'x, y, z'
_cell_length_a     14.59496
_cell_length_b     14.853155
_cell_length_c     46.522061
_cell_angle_alpha  94.298142
_cell_angle_beta   90.060753
_cell_angle_gamma 119.5737
loop_
_atom_site_label
_atom_site_type_symbol
_atom_site_fract_x
_atom_site_fract_y
_atom_site_fract_z
_atom_type_partial_charge
Zn0 Zn 0.07778 0.48192 0.19098 0.0
Zn1 Zn 0.90459 0.38854 0.14437 0.0
C2 C 0.95194 0.48401 0.23742 0.0
O3 O 0.02059 0.58383 0.23849 0.0
C4 C 0.01369 0.37721 0.09624 0.0
O5 O 0.93823 0.2803 0.09688 0.0
O6 O 0.19877 0.55498 0.22033 0.0
O7 O 0.08291 0.36105 0.17048 0.0
O8 O 0.90994 0.27493 0.16406 0.0
C9 C 0.19888 0.50715 0.24189 0.0
O10 O 0.13182 0.40708 0.24149 0.0
O11 O 0.95366 0.4243 0.21661 0.0
C12 C 0.73119 0.37096 0.10937 0.0
O13 O 0.7598 0.46342 0.12216 0.0
O14 O 0.77618 0.32162 0.11718 0.0
O15 O 0.90603 0.50935 0.16768 0.0
O16 O 0.07858 0.59244 0.16839 0.0
O17 O 0.02195 0.44359 0.11648 0.0
C18 C -0.00323 0.27531 0.16706 0.0
C19 C -0.00742 0.59424 0.1679 0.0
Zn20 Zn 0.52446 -0.01072 0.54471 0.0
Zn21 Zn 0.59007 0.08202 0.47259 0.0
C22 C 0.59743 0.13901 0.59356 0.0
O23 O 0.6581 0.09851 0.59772 0.0
C24 C 0.44015 0.94622 0.43039 0.0
O25 O 0.42461 0.02637 0.43184 0.0
O26 O 0.46248 0.87429 0.57104 0.0
O27 O 0.41929 0.96193 0.51264 0.0
O28 O 0.49391 0.11542 0.4959 0.0
C29 C 0.38641 0.86523 0.58623 0.0
O30 O 0.3416 0.92074 0.58107 0.0
O31 O 0.53956 0.11077 0.57055 0.0
C32 C 0.70102 0.15924 0.4234 0.0
O33 O 0.71345 0.07881 0.42682 0.0
O34 O 0.6523 0.18372 0.44227 0.0
O35 O 0.71057 0.08215 0.49299 0.0
O36 O 0.66851 0.01249 0.53489 0.0
O37 O 0.50488 0.94572 0.44859 0.0
C38 C 0.41629 0.04313 0.50741 0.0
C39 C 0.73398 0.05225 0.51532 0.0
Zn40 Zn 0.43765 0.41449 0.86697 0.0
Zn41 Zn 0.36199 0.49961 0.82191 0.0
C42 C 0.41883 0.52897 0.91588 0.0
O43 O 0.51977 0.55903 0.91855 0.0
C44 C 0.37521 0.40178 0.76977 0.0
O45 O 0.28177 0.39371 0.76709 0.0
O46 O 0.48808 0.35237 0.89591 0.0
O47 O 0.32545 0.29673 0.8415 0.0
O48 O 0.23539 0.37834 0.83734 0.0
C49 C 0.41831 0.29722 0.91306 0.0
O50 O 0.32011 0.27374 0.90788 0.0
O51 O 0.36744 0.47497 0.89297 0.0
C52 C 0.39354 0.64404 0.78347 0.0
O53 O 0.48934 0.66864 0.79221 0.0
O54 O 0.31583 0.57396 0.79571 0.0
O55 O 0.47504 0.61223 0.84924 0.0
O56 O 0.56302 0.52817 0.84923 0.0
O57 O 0.42828 0.4405 0.79356 0.0
C58 C 0.23749 0.2941 0.83876 0.0
C59 C 0.56267 0.61355 0.84973 0.0
H60 H 0.15815 0.78302 0.15768 0.0
H61 H 0.82885 0.63073 0.17761 0.0
H62 H 0.15924 0.94713 0.15668 0.0
H63 H 0.83079 0.79561 0.1778 0.0
H64 H 0.83941 0.08253 0.14727 0.0
H65 H 0.83928 0.91853 0.14681 0.0
H66 H 0.15324 0.07932 0.18697 0.0
H67 H 0.1547 0.24385 0.18633 0.0
C68 C 0.08618 0.78483 0.16209 0.0
C69 C -0.00663 0.69397 0.16769 0.0
C70 C 0.08693 0.87909 0.16169 0.0
C71 C -0.00484 0.88489 0.1672 0.0
C72 C 0.90246 0.79383 0.17296 0.0
C73 C 0.90145 0.69934 0.17304 0.0
C74 C 0.9084 0.08276 0.15598 0.0
C75 C -0.00293 0.17601 0.16683 0.0
C76 C 0.90814 -0.01137 0.15588 0.0
C77 C -0.00391 -0.0146 0.16695 0.0
C78 C 0.08477 0.07895 0.17784 0.0
C79 C 0.08548 0.17328 0.17762 0.0
H80 H 0.22747 0.89505 0.52605 0.0
H81 H 0.39023 0.21071 0.50189 0.0
H82 H 0.06641 0.90501 0.53146 0.0
H83 H 0.22999 0.22112 0.50783 0.0
H84 H 0.89481 0.13878 0.47864 0.0
H85 H 0.06261 0.14235 0.48041 0.0
H86 H -0.01919 -0.01115 0.55929 0.0
H87 H 0.8108 -0.01652 0.55734 0.0
C88 C 0.22929 0.96697 0.52227 0.0
C89 C 0.3212 0.05161 0.51316 0.0
C90 C 0.13719 0.97288 0.52555 0.0
C91 C 0.13533 0.06355 0.51981 0.0
C92 C 0.22851 0.14957 0.5119 0.0
C93 C 0.32038 0.14363 0.50857 0.0
C94 C 0.91247 0.1063 0.49652 0.0
C95 C 0.83892 0.06029 0.51777 0.0
C96 C 0.00923 0.10909 0.49763 0.0
C97 C 0.03503 0.06603 0.52002 0.0
C98 C 0.9626 0.02179 0.54163 0.0
C99 C 0.86553 0.01919 0.54057 0.0
H100 H 0.59314 0.80968 0.86082 0.0
H101 H 0.75646 0.64187 0.83609 0.0
H102 H 0.75589 0.97366 0.85804 0.0
H103 H 0.91815 0.80548 0.83201 0.0
H104 H 0.03734 0.24884 0.82318 0.0
H105 H 0.87452 0.08377 0.82527 0.0
H106 H 0.05199 0.95025 0.85944 0.0
H107 H 0.21427 0.11318 0.8561 0.0
C108 C 0.66384 0.8079 0.85467 0.0
C109 C 0.66216 0.71292 0.84881 0.0
C110 C 0.75703 0.90195 0.85281 0.0
C111 C 0.85045 0.9032 0.84469 0.0
C112 C 0.84839 0.80784 0.83881 0.0
C113 C 0.75552 0.71384 0.84104 0.0
C114 C 0.04133 0.18389 0.83097 0.0
C115 C 0.1386 0.19392 0.83936 0.0
C116 C 0.94797 0.08943 0.83239 0.0
C117 C 0.94977 0.00336 0.84259 0.0
C118 C 0.04743 0.01391 0.85097 0.0
C119 C 0.14067 0.10773 0.84918 0.0
H120 H 0.20593 0.44574 0.9203 0.0
H121 H 0.50107 0.61664 0.97022 0.0
H122 H 0.1101 0.4195 0.96455 0.0
H123 H 0.40467 0.58928 0.01449 0.0
H124 H 0.17689 0.57079 0.08692 0.0
H125 H 0.27545 0.62352 0.04291 0.0
H126 H 0.09537 0.30864 1.004 0.0
H127 H -0.00271 0.25609 0.04752 0.0
C128 C 0.25042 0.47959 0.94062 0.0
C129 C 0.36123 0.53241 0.94172 0.0
C130 C 0.19547 0.46377 0.96599 0.0
C131 C 0.25003 0.50083 0.99298 0.0
C132 C 0.36057 0.55996 0.99399 0.0
C133 C 0.41569 0.57549 0.9686 0.0
C134 C 0.15887 0.51288 0.06899 0.0
C135 C 0.07915 0.4093 0.0707 0.0
C136 C 0.2152 0.5431 0.04384 0.0
C137 C 0.19194 0.47049 0.0199 0.0
C138 C 0.11349 0.36682 0.02187 0.0
C139 C 0.05799 0.33654 0.04696 0.0
H140 H 0.68227 0.32442 0.40772 0.0
H141 H 0.79237 0.11298 0.37804 0.0
H142 H 0.72764 0.40363 0.36179 0.0
H143 H 0.83795 0.19218 0.33263 0.0
H144 H 0.81627 0.2794 0.24439 0.0
H145 H 0.74675 0.20307 0.28946 0.0
H146 H 0.88795 0.50962 0.33438 0.0
H147 H 0.95647 0.58641 0.28925 0.0
C148 C 0.71661 0.29528 0.39152 0.0
C149 C 0.73365 0.21237 0.39654 0.0
C150 C 0.7425 0.34058 0.36525 0.0
C151 C 0.78504 0.30319 0.34347 0.0
C152 C 0.80317 0.22126 0.34872 0.0
C153 C 0.77796 0.17654 0.37492 0.0
C154 C 0.83072 0.33072 0.26374 0.0
C155 C 0.89281 0.43897 0.26326 0.0
C156 C 0.79158 0.28691 0.2896 0.0
C157 C 0.81348 0.35033 0.31553 0.0
C158 C 0.86956 0.45876 0.31474 0.0
C159 C 0.90891 0.50268 0.28885 0.0
H160 H 0.20889 0.58028 0.75181 0.0
H161 H 0.54548 0.78937 0.7528 0.0
H162 H 0.19247 0.62247 0.7027 0.0
H163 H 0.52873 0.82975 0.70412 0.0
H164 H 0.48745 0.76996 0.60776 0.0
H165 H 0.47684 0.71343 0.65604 0.0
H166 H 0.22924 0.78543 0.67443 0.0
H167 H 0.2396 0.84275 0.62596 0.0
C168 C 0.27887 0.63636 0.74181 0.0
C169 C 0.37861 0.68084 0.75611 0.0
C170 C 0.26944 0.66003 0.71372 0.0
C171 C 0.35968 0.72752 0.69952 0.0
C172 C 0.45824 0.77564 0.71438 0.0
C173 C 0.46757 0.75297 0.74237 0.0
C174 C 0.42927 0.77204 0.62181 0.0
C175 C 0.36532 0.81215 0.61312 0.0
C176 C 0.4237 0.74022 0.64951 0.0
C177 C 0.35353 0.74693 0.66903 0.0
C178 C 0.28414 0.7798 0.65976 0.0
C179 C 0.29028 0.81261 0.63204 0.0
H180 H 0.60427 0.30805 0.92903 0.0
H181 H 0.30477 0.25169 0.9615 0.0
H182 H 0.66469 0.30494 0.97783 0.0
H183 H 0.36572 0.24968 0.01014 0.0
H184 H 0.59862 0.43694 0.09086 0.0
H185 H 0.50995 0.39776 0.04332 0.0
H186 H 0.62592 0.18685 0.01934 0.0
H187 H 0.71397 0.22509 0.06698 0.0
C188 C 0.55079 0.29312 0.94647 0.0
C189 C 0.44992 0.28013 0.94142 0.0
C190 C 0.58515 0.29095 0.97435 0.0
C191 C 0.51986 0.27738 0.99772 0.0
C192 C 0.41769 0.26069 0.99251 0.0
C193 C 0.38273 0.26121 0.96461 0.0
C194 C 0.60339 0.38061 0.07566 0.0
C195 C 0.66353 0.33444 0.08263 0.0
C196 C 0.55239 0.35794 0.04849 0.0
C197 C 0.56175 0.28976 0.02764 0.0
C198 C 0.61816 0.24023 0.03498 0.0
C199 C 0.66785 0.26165 0.06232 0.0
H200 H 0.19821 0.4327 0.29407 0.0
H201 H 0.31886 0.71791 0.25233 0.0
H202 H 0.2579 0.53317 0.34101 0.0
H203 H 0.3782 0.81747 0.29914 0.0
H204 H 0.31852 0.94114 0.38528 0.0
H205 H 0.27092 0.83195 0.34009 0.0
H206 H 0.42248 0.66967 0.37156 0.0
H207 H 0.47106 0.77979 0.41716 0.0
C208 C 0.23937 0.51672 0.29482 0.0
C209 C 0.25287 0.56723 0.26945 0.0
C210 C 0.27344 0.5741 0.32171 0.0
C211 C 0.32089 0.68287 0.3237 0.0
C212 C 0.33995 0.73349 0.29824 0.0
C213 C 0.30668 0.67639 0.2714 0.0
C214 C 0.34099 0.88163 0.38281 0.0
C215 C 0.39922 0.86969 0.4048 0.0
C216 C 0.31445 0.81968 0.35678 0.0
C217 C 0.34475 0.74372 0.35214 0.0
C218 C 0.39854 0.72801 0.37457 0.0
C219 C 0.42607 0.79087 0.40065 0.0
H220 H 0.34659 0.4304 0.71462 0.0
H221 H 0.5088 0.32157 0.76741 0.0
H222 H 0.41521 0.38674 0.67154 0.0
H223 H 0.57261 0.27066 0.72401 0.0
H224 H 0.72297 0.23839 0.64225 0.0
H225 H 0.68163 0.31666 0.68466 0.0
H226 H 0.38514 0.24195 0.64247 0.0
H227 H 0.42946 0.16997 0.59989 0.0
C228 C 0.39624 0.39584 0.71689 0.0
C229 C 0.42123 0.37772 0.74421 0.0
C230 C 0.4353 0.37026 0.69217 0.0
C231 C 0.49815 0.32319 0.69403 0.0
C232 C 0.52546 0.3077 0.72161 0.0
C233 C 0.48831 0.33592 0.74651 0.0
C234 C 0.65001 0.24082 0.64195 0.0
C235 C 0.5797 0.19837 0.61772 0.0
C236 C 0.62565 0.28463 0.66638 0.0
C237 C 0.52956 0.28533 0.66727 0.0
C238 C 0.46084 0.24513 0.64259 0.0
C239 C 0.48607 0.20322 0.61807 0.0
loop_
_geom_bond_atom_site_label_1
_geom_bond_atom_site_label_2
_geom_bond_distance
_geom_bond_site_symmetry_2
_ccdc_geom_bond_type
Zn0 O6 1.969 . S
Zn0 O7 1.965 . S
Zn0 O11 2.024 1_455 S
Zn0 O16 1.969 . S
Zn1 O8 1.969 . S
Zn1 O14 1.969 1_455 S
Zn1 O15 1.965 1_455 S
Zn1 O17 2.024 . S
C2 O3 1.229 . S
C2 O11 1.058 . S
O3 C2 1.229 . S
C4 O5 1.229 . S
C4 O17 1.058 . S
O5 C4 1.229 . S
O6 Zn0 1.969 . S
O6 C9 1.267 . S
O7 Zn0 1.965 . S
O7 C18 1.260 . S
O8 Zn1 1.969 . S
O8 C18 1.258 . S
C9 O6 1.267 . S
C9 O10 1.228 . S
O10 C9 1.228 . S
O11 Zn0 2.024 1_655 S
O11 C2 1.058 . S
C12 O13 1.228 . S
C12 O14 1.267 . S
O13 C12 1.228 . S
O14 Zn1 1.969 1_655 S
O14 C12 1.267 . S
O15 Zn1 1.965 1_655 S
O15 C19 1.260 1_655 S
O16 Zn0 1.969 . S
O16 C19 1.258 . S
O17 Zn1 2.024 . S
O17 C4 1.058 . S
C18 O7 1.260 . S
C18 O8 1.258 . S
C19 O15 1.260 1_455 S
C19 O16 1.258 . S
Zn20 O26 1.969 1_545 S
Zn20 O27 1.965 1_545 S
Zn20 O31 2.024 . S
Zn20 O36 1.969 . S
Zn21 O28 1.969 . S
Zn21 O34 1.969 . S
Zn21 O35 1.965 . S
Zn21 O37 2.024 1_545 S
C22 O23 1.229 . S
C22 O31 1.058 . S
O23 C22 1.229 . S
C24 O25 1.229 . S
C24 O37 1.058 . S
O25 C24 1.229 . S
O26 Zn20 1.969 1_565 S
O26 C29 1.267 . S
O27 Zn20 1.965 1_565 S
O27 C38 1.260 . S
O28 Zn21 1.969 . S
O28 C38 1.258 1_545 S
C29 O26 1.267 . S
C29 O30 1.228 . S
O30 C29 1.228 . S
O31 Zn20 2.024 . S
O31 C22 1.058 . S
C32 O33 1.228 . S
C32 O34 1.267 . S
O33 C32 1.228 . S
O34 Zn21 1.969 . S
O34 C32 1.267 . S
O35 Zn21 1.965 . S
O35 C39 1.260 . S
O36 Zn20 1.969 . S
O36 C39 1.258 . S
O37 Zn21 2.024 1_565 S
O37 C24 1.058 . S
C38 O27 1.260 . S
C38 O28 1.258 1_565 S
C39 O35 1.260 . S
C39 O36 1.258 . S
Zn40 O46 1.969 . S
Zn40 O47 1.965 . S
Zn40 O51 2.024 . S
Zn40 O56 1.969 . S
Zn41 O48 1.969 . S
Zn41 O54 1.969 . S
Zn41 O55 1.965 . S
Zn41 O57 2.024 . S
C42 O43 1.229 . S
C42 O51 1.058 . S
O43 C42 1.229 . S
C44 O45 1.229 . S
C44 O57 1.058 . S
O45 C44 1.229 . S
O46 Zn40 1.969 . S
O46 C49 1.267 . S
O47 Zn40 1.965 . S
O47 C58 1.260 . S
O48 Zn41 1.969 . S
O48 C58 1.258 . S
C49 O46 1.267 . S
C49 O50 1.228 . S
O50 C49 1.228 . S
O51 Zn40 2.024 . S
O51 C42 1.058 . S
C52 O53 1.228 . S
C52 O54 1.267 . S
O53 C52 1.228 . S
O54 Zn41 1.969 . S
O54 C52 1.267 . S
O55 Zn41 1.965 . S
O55 C59 1.260 . S
O56 Zn40 1.969 . S
O56 C59 1.258 . S
O57 Zn41 2.024 . S
O57 C44 1.058 . S
C58 O47 1.260 . S
C58 O48 1.258 . S
C59 O55 1.260 . S
C59 O56 1.258 . S
H60 C68 0.950 . S
H61 C73 0.950 . S
H62 C70 0.950 . S
H63 C72 0.950 . S
H64 C74 0.950 . S
H65 C76 0.950 1_565 S
H66 C78 0.950 . S
H67 C79 0.950 . S
C68 H60 0.950 . S
C68 C69 1.386 . S
C68 C70 1.391 . S
C69 C68 1.386 . S
C69 C73 1.393 1_455 S
C70 H62 0.950 . S
C70 C68 1.391 . S
C70 C71 1.400 . S
C71 C70 1.400 . S
C71 C72 1.398 1_455 S
C71 C77 1.491 1_565 S
C72 H63 0.950 . S
C72 C71 1.398 1_655 S
C72 C73 1.391 . S
C73 H61 0.950 . S
C73 C69 1.393 1_655 S
C73 C72 1.391 . S
C74 H64 0.950 . S
C74 C75 1.386 1_655 S
C74 C76 1.391 . S
C75 C74 1.386 1_455 S
C75 C79 1.393 . S
C76 H65 0.950 1_545 S
C76 C74 1.391 . S
C76 C77 1.400 1_655 S
C77 C71 1.491 1_545 S
C77 C76 1.400 1_455 S
C77 C78 1.398 . S
C78 H66 0.950 . S
C78 C77 1.398 . S
C78 C79 1.391 . S
C79 H67 0.950 . S
C79 C75 1.393 . S
C79 C78 1.391 . S
H80 C88 0.950 . S
H81 C93 0.950 . S
H82 C90 0.950 . S
H83 C92 0.950 . S
H84 C94 0.950 . S
H85 C96 0.950 1_455 S
H86 C98 0.950 . S
H87 C99 0.950 . S
C88 H80 0.950 . S
C88 C89 1.386 1_565 S
C88 C90 1.391 . S
C89 C88 1.386 1_545 S
C89 C93 1.393 . S
C90 H82 0.950 . S
C90 C88 1.391 . S
C90 C91 1.400 1_565 S
C91 C90 1.400 1_545 S
C91 C92 1.398 . S
C91 C97 1.491 1_455 S
C92 H83 0.950 . S
C92 C91 1.398 . S
C92 C93 1.391 . S
C93 H81 0.950 . S
C93 C89 1.393 . S
C93 C92 1.391 . S
C94 H84 0.950 . S
C94 C95 1.386 . S
C94 C96 1.391 . S
C95 C94 1.386 . S
C95 C99 1.393 1_545 S
C96 H85 0.950 1_655 S
C96 C94 1.391 . S
C96 C97 1.400 . S
C97 C91 1.491 1_655 S
C97 C96 1.400 . S
C97 C98 1.398 1_545 S
C98 H86 0.950 . S
C98 C97 1.398 1_565 S
C98 C99 1.391 . S
C99 H87 0.950 . S
C99 C95 1.393 1_565 S
C99 C98 1.391 . S
H100 C108 0.950 . S
H101 C113 0.950 . S
H102 C110 0.950 . S
H103 C112 0.950 . S
H104 C114 0.950 . S
H105 C116 0.950 . S
H106 C118 0.950 . S
H107 C119 0.950 . S
C108 H100 0.950 . S
C108 C109 1.386 . S
C108 C110 1.391 . S
C109 C108 1.386 . S
C109 C113 1.393 . S
C110 H102 0.950 . S
C110 C108 1.391 . S
C110 C111 1.400 . S
C111 C110 1.400 . S
C111 C112 1.398 . S
C111 C117 1.491 1_665 S
C112 H103 0.950 . S
C112 C111 1.398 . S
C112 C113 1.391 . S
C113 H101 0.950 . S
C113 C109 1.393 . S
C113 C112 1.391 . S
C114 H104 0.950 . S
C114 C115 1.386 . S
C114 C116 1.391 . S
C115 C114 1.386 . S
C115 C119 1.393 . S
C116 H105 0.950 . S
C116 C114 1.391 . S
C116 C117 1.400 . S
C117 C111 1.491 1_445 S
C117 C116 1.400 . S
C117 C118 1.398 . S
C118 H106 0.950 . S
C118 C117 1.398 . S
C118 C119 1.391 . S
C119 H107 0.950 . S
C119 C115 1.393 . S
C119 C118 1.391 . S
H120 C128 0.950 . S
H121 C133 0.950 . S
H122 C130 0.950 . S
H123 C132 0.950 . S
H124 C134 0.950 . S
H125 C136 0.950 . S
H126 C138 0.950 . S
H127 C139 0.950 . S
C128 H120 0.950 . S
C128 C129 1.386 . S
C128 C130 1.391 . S
C129 C128 1.386 . S
C129 C133 1.393 . S
C130 H122 0.950 . S
C130 C128 1.391 . S
C130 C131 1.400 . S
C131 C130 1.400 . S
C131 C132 1.398 . S
C131 C137 1.491 1_556 S
C132 H123 0.950 . S
C132 C131 1.398 . S
C132 C133 1.391 . S
C133 H121 0.950 . S
C133 C129 1.393 . S
C133 C132 1.391 . S
C134 H124 0.950 . S
C134 C135 1.386 . S
C134 C136 1.391 . S
C135 C134 1.386 . S
C135 C139 1.393 . S
C136 H125 0.950 . S
C136 C134 1.391 . S
C136 C137 1.400 . S
C137 C131 1.491 1_554 S
C137 C136 1.400 . S
C137 C138 1.398 . S
C138 H126 0.950 . S
C138 C137 1.398 . S
C138 C139 1.391 . S
C139 H127 0.950 . S
C139 C135 1.393 . S
C139 C138 1.391 . S
H140 C148 0.950 . S
H141 C153 0.950 . S
H142 C150 0.950 . S
H143 C152 0.950 . S
H144 C154 0.950 . S
H145 C156 0.950 . S
H146 C158 0.950 . S
H147 C159 0.950 . S
C148 H140 0.950 . S
C148 C149 1.386 . S
C148 C150 1.391 . S
C149 C148 1.386 . S
C149 C153 1.393 . S
C150 H142 0.950 . S
C150 C148 1.391 . S
C150 C151 1.400 . S
C151 C150 1.400 . S
C151 C152 1.398 . S
C151 C157 1.491 . S
C152 H143 0.950 . S
C152 C151 1.398 . S
C152 C153 1.391 . S
C153 H141 0.950 . S
C153 C149 1.393 . S
C153 C152 1.391 . S
C154 H144 0.950 . S
C154 C155 1.386 . S
C154 C156 1.391 . S
C155 C154 1.386 . S
C155 C159 1.393 . S
C156 H145 0.950 . S
C156 C154 1.391 . S
C156 C157 1.400 . S
C157 C151 1.491 . S
C157 C156 1.400 . S
C157 C158 1.398 . S
C158 H146 0.950 . S
C158 C157 1.398 . S
C158 C159 1.391 . S
C159 H147 0.950 . S
C159 C155 1.393 . S
C159 C158 1.391 . S
H160 C168 0.950 . S
H161 C173 0.950 . S
H162 C170 0.950 . S
H163 C172 0.950 . S
H164 C174 0.950 . S
H165 C176 0.950 . S
H166 C178 0.950 . S
H167 C179 0.950 . S
C168 H160 0.950 . S
C168 C169 1.386 . S
C168 C170 1.391 . S
C169 C168 1.386 . S
C169 C173 1.393 . S
C170 H162 0.950 . S
C170 C168 1.391 . S
C170 C171 1.400 . S
C171 C170 1.400 . S
C171 C172 1.398 . S
C171 C177 1.491 . S
C172 H163 0.950 . S
C172 C171 1.398 . S
C172 C173 1.391 . S
C173 H161 0.950 . S
C173 C169 1.393 . S
C173 C172 1.391 . S
C174 H164 0.950 . S
C174 C175 1.386 . S
C174 C176 1.391 . S
C175 C174 1.386 . S
C175 C179 1.393 . S
C176 H165 0.950 . S
C176 C174 1.391 . S
C176 C177 1.400 . S
C177 C171 1.491 . S
C177 C176 1.400 . S
C177 C178 1.398 . S
C178 H166 0.950 . S
C178 C177 1.398 . S
C178 C179 1.391 . S
C179 H167 0.950 . S
C179 C175 1.393 . S
C179 C178 1.391 . S
H180 C188 0.950 . S
H181 C193 0.950 . S
H182 C190 0.950 . S
H183 C192 0.950 . S
H184 C194 0.950 . S
H185 C196 0.950 . S
H186 C198 0.951 . S
H187 C199 0.950 . S
C188 H180 0.950 . S
C188 C189 1.386 . S
C188 C190 1.391 . S
C189 C188 1.386 . S
C189 C193 1.393 . S
C190 H182 0.950 . S
C190 C188 1.391 . S
C190 C191 1.400 . S
C191 C190 1.400 . S
C191 C192 1.398 . S
C191 C197 1.491 1_556 S
C192 H183 0.950 . S
C192 C191 1.398 . S
C192 C193 1.391 . S
C193 H181 0.950 . S
C193 C189 1.393 . S
C193 C192 1.391 . S
C194 H184 0.950 . S
C194 C195 1.386 . S
C194 C196 1.391 . S
C195 C194 1.386 . S
C195 C199 1.393 . S
C196 H185 0.950 . S
C196 C194 1.391 . S
C196 C197 1.400 . S
C197 C191 1.491 1_554 S
C197 C196 1.400 . S
C197 C198 1.398 . S
C198 H186 0.951 . S
C198 C197 1.398 . S
C198 C199 1.391 . S
C199 H187 0.950 . S
C199 C195 1.393 . S
C199 C198 1.391 . S
H200 C208 0.950 . S
H201 C213 0.950 . S
H202 C210 0.950 . S
H203 C212 0.950 . S
H204 C214 0.950 . S
H205 C216 0.950 . S
H206 C218 0.950 . S
H207 C219 0.950 . S
C208 H200 0.950 . S
C208 C209 1.386 . S
C208 C210 1.391 . S
C209 C208 1.386 . S
C209 C213 1.393 . S
C210 H202 0.950 . S
C210 C208 1.391 . S
C210 C211 1.400 . S
C211 C210 1.400 . S
C211 C212 1.398 . S
C211 C217 1.491 . S
C212 H203 0.950 . S
C212 C211 1.398 . S
C212 C213 1.391 . S
C213 H201 0.950 . S
C213 C209 1.393 . S
C213 C212 1.391 . S
C214 H204 0.950 . S
C214 C215 1.386 . S
C214 C216 1.391 . S
C215 C214 1.386 . S
C215 C219 1.393 . S
C216 H205 0.950 . S
C216 C214 1.391 . S
C216 C217 1.400 . S
C217 C211 1.491 . S
C217 C216 1.400 . S
C217 C218 1.398 . S
C218 H206 0.950 . S
C218 C217 1.398 . S
C218 C219 1.391 . S
C219 H207 0.950 . S
C219 C215 1.393 . S
C219 C218 1.391 . S
H220 C228 0.950 . S
H221 C233 0.950 . S
H222 C230 0.950 . S
H223 C232 0.950 . S
H224 C234 0.950 . S
H225 C236 0.950 . S
H226 C238 0.950 . S
H227 C239 0.950 . S
C228 H220 0.950 . S
C228 C229 1.386 . S
C228 C230 1.391 . S
C229 C228 1.386 . S
C229 C233 1.393 . S
C230 H222 0.950 . S
C230 C228 1.391 . S
C230 C231 1.400 . S
C231 C230 1.400 . S
C231 C232 1.398 . S
C231 C237 1.491 . S
C232 H223 0.950 . S
C232 C231 1.398 . S
C232 C233 1.391 . S
C233 H221 0.950 . S
C233 C229 1.393 . S
C233 C232 1.391 . S
C234 H224 0.950 . S
C234 C235 1.386 . S
C234 C236 1.391 . S
C235 C234 1.386 . S
C235 C239 1.393 . S
C236 H225 0.950 . S
C236 C234 1.391 . S
C236 C237 1.400 . S
C237 C231 1.491 . S
C237 C236 1.400 . S
C237 C238 1.398 . S
C238 H226 0.950 . S
C238 C237 1.398 . S
C238 C239 1.391 . S
C239 H227 0.950 . S
C239 C235 1.393 . S
C239 C238 1.391 . S
C69 C19 1.503 . S
C75 C18 1.503 . S
C89 C38 1.493 1_545 S
C95 C39 1.493 . S
C109 C59 1.497 . S
C115 C58 1.497 . S
C129 C42 1.076 . S
C135 C4 1.119 . S
C149 C32 1.273 . S
C155 C2 1.234 . S
C169 C52 1.107 . S
C175 C29 1.122 . S
C189 C49 1.076 . S
C195 C12 1.102 . S
C209 C9 1.011 . S
C215 C24 1.006 . S
C229 C44 1.151 . S
C235 C22 1.081 . S
