# Generated by pormake.
# Topology pcu, (6)-cn, num edge types: 1
# Building blocks:
#     Node 0, Type 0, BuildingBlock: CUKXOW_clean_sbu_0, # of connection points: 6
#     Edge 1, Type (0, 0), BuildingBlock: AJUNOK_clean_linker_0, # of connection points: 2
#     Edge 2, Type (0, 0), BuildingBlock: AJUNOK_clean_linker_0, # of connection points: 2
#     Edge 3, Type (0, 0), BuildingBlock: AJUNOK_clean_linker_0, # of connection points: 2
# Relax obj value: 0.000
# Max RMSD: 0.000
# Mean RMSD: 0.000
data_MOF--net-pcu--node1-CUKXOW_clean_sbu_0--edge1-AJUNOK_clean_linker_0
_symmetry_space_group_name_H-M    P1
_symmetry_Int_Tables_number       1
_symmetry_cell_setting            triclinic
loop_
_symmetry_equiv_pos_as_xyz
'x, y, z'
_cell_length_a     9.9140009
_cell_length_b     13.992617
_cell_length_c     11.361856
_cell_angle_alpha  91.805986
_cell_angle_beta   94.541606
_cell_angle_gamma 122.4529
loop_
_atom_site_label
_atom_site_type_symbol
_atom_site_fract_x
_atom_site_fract_y
_atom_site_fract_z
_atom_type_partial_charge
Tb0 Tb 0.10452 0.10821 -0.00554 0.0
C1 C 1.01414 0.97378 0.73776 0.0
Tb2 Tb 0.9769 0.85029 0.9737 0.0
O3 O 0.35441 0.15285 0.03731 0.0
O4 O 0.18145 0.00328 0.93712 0.0
O5 O 0.04603 0.06632 0.80203 0.0
C6 C 1.00452 0.67175 -0.01108 0.0
O7 O 0.99476 0.8825 0.78663 0.0
C8 C 0.75917 0.90084 0.97573 0.0
C9 C 0.06131 0.98541 0.23031 0.0
O10 O 0.87794 0.66771 0.93999 0.0
O11 O 0.11214 0.77522 0.03053 0.0
O12 O 0.72718 0.80321 0.92968 0.0
O13 O 0.89873 0.95475 0.02888 0.0
O14 O 1.02867 0.89174 0.16751 0.0
O15 O 0.078 0.07501 0.17967 0.0
C16 C 0.09124 0.293 -0.01714 0.0
O17 O 0.21432 0.29184 0.0301 0.0
O18 O 0.97832 0.19087 0.94078 0.0
C19 C 0.32191 0.05617 -0.01174 0.0
C20 C 0.97785 0.88094 0.41272 0.0
C21 C 0.05667 0.98461 0.36033 0.0
C22 C 0.96225 0.87812 0.53438 0.0
C23 C 1.02437 0.97877 0.60836 0.0
H24 H 0.92522 0.801 0.35924 0.0
H25 H 0.90025 0.79619 0.57048 0.0
S26 S 0.25314 0.27315 0.51635 0.0
N27 N 0.20564 0.1909 0.39306 0.0
N28 N 0.1758 0.1858 0.62084 0.0
C29 C 0.10575 0.08322 0.55729 0.0
C30 C 0.12216 0.08604 0.43363 0.0
C31 C 0.57533 0.06753 0.06116 0.0
C32 C 0.43462 0.018 -0.01854 0.0
C33 C 0.67937 0.02852 0.05913 0.0
C34 C 0.64659 0.9391 0.97686 0.0
H35 H 0.60418 0.13572 0.12663 0.0
H36 H 0.78581 0.06837 0.12298 0.0
S37 S 0.29925 0.78521 0.74467 0.0
N38 N 0.27278 0.87845 0.81376 0.0
N39 N 0.46666 0.80435 0.81214 0.0
C40 C 0.50766 0.88983 0.896 0.0
C41 C 0.40237 0.92982 0.8974 0.0
C42 C 0.90606 0.46786 0.939 0.0
C43 C 1.02885 0.57645 -0.01022 0.0
C44 C 0.92842 0.37706 0.93629 0.0
C45 C 0.07455 0.39174 -0.01613 0.0
H46 H 0.79183 0.45276 0.90101 0.0
H47 H 0.82988 0.29454 0.89703 0.0
S48 S 0.43416 0.65956 0.12672 0.0
N49 N 0.30209 0.69381 0.08896 0.0
N50 N 0.34393 0.52317 0.08304 0.0
C51 C 0.1985 0.49994 0.03462 0.0
C52 C 0.17563 0.59233 0.03778 0.0
loop_
_geom_bond_atom_site_label_1
_geom_bond_atom_site_label_2
_geom_bond_distance
_geom_bond_site_symmetry_2
_ccdc_geom_bond_type
Tb0 O3 2.453 . S
Tb0 O4 2.596 1_545 S
Tb0 O5 2.374 1_554 S
Tb0 O13 2.343 1_454 S
Tb0 O15 2.353 . S
Tb0 O17 2.427 . S
Tb0 O18 2.513 1_554 S
C1 O5 1.251 1_655 S
C1 O7 1.263 1_545 S
Tb2 O4 2.343 1_656 S
Tb2 O7 2.353 . S
Tb2 O10 2.427 . S
Tb2 O11 2.513 1_556 S
Tb2 O12 2.453 . S
Tb2 O13 2.596 1_565 S
Tb2 O14 2.374 1_556 S
O3 Tb0 2.453 . S
O3 C19 1.245 . S
O4 Tb0 2.596 1_565 S
O4 Tb2 2.343 1_454 S
O4 C19 1.259 1_565 S
O5 Tb0 2.374 1_556 S
O5 C1 1.251 1_455 S
C6 O10 1.273 1_554 S
C6 O11 1.247 . S
O7 C1 1.263 1_565 S
O7 Tb2 2.353 . S
C8 O12 1.245 . S
C8 O13 1.259 1_565 S
C9 O14 1.250 1_455 S
C9 O15 1.263 1_565 S
O10 Tb2 2.427 . S
O10 C6 1.273 1_556 S
O11 Tb2 2.513 1_554 S
O11 C6 1.247 . S
O12 Tb2 2.453 . S
O12 C8 1.245 . S
O13 Tb0 2.343 1_656 S
O13 Tb2 2.596 1_545 S
O13 C8 1.259 1_545 S
O14 Tb2 2.374 1_554 S
O14 C9 1.250 1_655 S
O15 Tb0 2.353 . S
O15 C9 1.263 1_545 S
C16 O17 1.275 1_556 S
C16 O18 1.245 . S
O17 Tb0 2.427 . S
O17 C16 1.275 1_554 S
O18 Tb0 2.513 1_556 S
O18 C16 1.245 . S
C19 O3 1.245 . S
C19 O4 1.259 1_545 S
C20 C21 1.365 1_645 S
C20 C22 1.419 . S
C20 H24 0.930 . S
C21 C20 1.365 1_465 S
C21 C30 1.432 . S
C22 C20 1.419 . S
C22 C23 1.356 1_645 S
C22 H25 0.929 . S
C23 C22 1.356 1_465 S
C23 C29 1.439 . S
H24 C20 0.930 . S
H25 C22 0.929 . S
S26 N27 1.613 . S
S26 N28 1.610 . S
N27 S26 1.613 . S
N27 C30 1.350 . S
N28 S26 1.610 . S
N28 C29 1.351 . S
C29 C23 1.439 . S
C29 N28 1.351 . S
C29 C30 1.434 . S
C30 C21 1.432 . S
C30 N27 1.350 . S
C30 C29 1.434 . S
C31 C32 1.371 1_544 S
C31 C33 1.419 . S
C31 H35 0.930 . S
C32 C31 1.371 1_566 S
C32 C41 1.431 . S
C33 C31 1.419 . S
C33 C34 1.362 1_544 S
C33 H36 0.929 . S
C34 C33 1.362 1_566 S
C34 C40 1.427 . S
H35 C31 0.930 . S
H36 C33 0.929 . S
S37 N38 1.613 . S
S37 N39 1.610 . S
N38 S37 1.613 . S
N38 C41 1.350 . S
N39 S37 1.610 . S
N39 C40 1.351 . S
C40 C34 1.427 . S
C40 N39 1.351 . S
C40 C41 1.434 . S
C41 C32 1.431 . S
C41 N38 1.350 . S
C41 C40 1.434 . S
C42 C43 1.369 1_656 S
C42 C44 1.419 . S
C42 H46 0.930 . S
C43 C42 1.369 1_454 S
C43 C52 1.429 . S
C44 C42 1.419 . S
C44 C45 1.363 1_656 S
C44 H47 0.929 . S
C45 C44 1.363 1_454 S
C45 C51 1.429 . S
H46 C42 0.930 . S
H47 C44 0.929 . S
S48 N49 1.613 . S
S48 N50 1.610 . S
N49 S48 1.613 . S
N49 C52 1.350 . S
N50 S48 1.610 . S
N50 C51 1.351 . S
C51 C45 1.429 . S
C51 N50 1.351 . S
C51 C52 1.434 . S
C52 C43 1.429 . S
C52 N49 1.350 . S
C52 C51 1.434 . S
C21 C9 1.487 . S
C23 C1 1.485 1_465 S
C32 C19 1.443 1_566 S
C34 C8 1.445 . S
C43 C6 1.480 1_455 S
C45 C16 1.474 1_554 S
