# Generated by pormake.
# Topology sxc, (6)-cn, num edge types: 1
# Building blocks:
#     Node 0, Type 0, BuildingBlock: GEDQOX_clean_sbu_0, # of connection points: 6
#     Node 1, Type 0, BuildingBlock: GEDQOX_clean_sbu_0, # of connection points: 6
#     Node 2, Type 0, BuildingBlock: GEDQOX_clean_sbu_0, # of connection points: 6
#     Edge 3, Type (0, 0), BuildingBlock: OJICUG_clean_linker_0, # of connection points: 2
#     Edge 4, Type (0, 0), BuildingBlock: OJICUG_clean_linker_0, # of connection points: 2
#     Edge 5, Type (0, 0), BuildingBlock: OJICUG_clean_linker_0, # of connection points: 2
#     Edge 6, Type (0, 0), BuildingBlock: OJICUG_clean_linker_0, # of connection points: 2
#     Edge 7, Type (0, 0), BuildingBlock: OJICUG_clean_linker_0, # of connection points: 2
#     Edge 8, Type (0, 0), BuildingBlock: OJICUG_clean_linker_0, # of connection points: 2
#     Edge 9, Type (0, 0), BuildingBlock: OJICUG_clean_linker_0, # of connection points: 2
#     Edge 10, Type (0, 0), BuildingBlock: OJICUG_clean_linker_0, # of connection points: 2
#     Edge 11, Type (0, 0), BuildingBlock: OJICUG_clean_linker_0, # of connection points: 2
# Relax obj value: 0.494
# Max RMSD: 0.196
# Mean RMSD: 0.109
data_MOF--net-sxc--node1-GEDQOX_clean_sbu_0--edge1-OJICUG_clean_linker_0
_symmetry_space_group_name_H-M    P1
_symmetry_Int_Tables_number       1
_symmetry_cell_setting            triclinic
loop_
_symmetry_equiv_pos_as_xyz
'x, y, z'
_cell_length_a     18.13721
_cell_length_b     13.994866
_cell_length_c     33.539541
_cell_angle_alpha  93.599172
_cell_angle_beta   89.78035
_cell_angle_gamma 137.77108
loop_
_atom_site_label
_atom_site_type_symbol
_atom_site_fract_x
_atom_site_fract_y
_atom_site_fract_z
_atom_type_partial_charge
Nd0 Nd 0.24126 0.26905 0.96947 0.0
Nd1 Nd 0.24442 1.09206 0.97184 0.0
C2 C 0.18413 0.39379 0.96708 0.0
C3 C 1.11053 0.36893 -0.004 0.0
C4 C 1.15632 0.47217 0.02786 0.0
C5 C 1.09452 0.4408 0.06002 0.0
C6 C 0.98364 0.30529 0.06115 0.0
C7 C 0.9372 0.20233 0.02885 0.0
C8 C 0.99992 0.23372 -0.00332 0.0
C9 C 0.26018 0.24292 0.04988 0.0
C10 C 0.49203 0.43236 0.96643 0.0
C11 C 0.26001 0.93502 -0.00249 0.0
C12 C 0.18198 0.82253 0.02479 0.0
C13 C 0.18479 0.85768 0.06553 0.0
C14 C 1.09914 0.75361 0.0894 0.0
C15 C 1.00867 0.61189 0.07316 0.0
C16 C 1.00685 0.57808 0.03225 0.0
C17 C 1.09244 0.68122 0.0087 0.0
C18 C 0.21915 1.10745 0.89098 0.0
C19 C 0.99297 0.92758 0.96909 0.0
O20 O 0.27963 0.45988 -0.01734 0.0
O21 O 1.14041 0.28582 0.94171 0.0
O22 O 0.32501 0.36161 0.03348 0.0
O23 O 0.19224 0.14056 0.02326 0.0
O24 O 0.4293 0.44503 0.95603 0.0
O25 O 0.43905 0.30516 0.97721 0.0
O26 O 0.32366 1.06613 0.01263 0.0
O27 O 0.21864 0.91064 0.96154 0.0
O28 O 0.1626 0.99103 0.90814 0.0
O29 O 0.28704 0.21475 0.91654 0.0
O30 O 1.05457 0.9159 0.98177 0.0
O31 O 1.04783 1.05433 0.95748 0.0
H32 H 0.24135 0.57675 0.02845 0.0
H33 H 1.13378 0.52622 0.08326 0.0
H34 H 0.85196 1.09829 0.02818 0.0
H35 H 0.96207 0.15107 0.97269 0.0
H36 H 0.25224 0.96626 0.07891 0.0
H37 H 1.1046 0.78351 0.12073 0.0
H38 H 0.94147 0.47015 0.01826 0.0
H39 H 1.08724 0.65051 0.97748 0.0
Nd40 Nd 0.16922 0.14671 0.31011 0.0
Nd41 Nd 0.25446 0.23486 0.30886 0.0
C42 C 0.95641 0.97181 0.29291 0.0
C43 C 0.87781 0.96887 0.30493 0.0
C44 C 0.78306 0.89113 0.28016 0.0
C45 C 0.72295 0.91759 0.28481 0.0
C46 C 0.7577 1.02226 0.31423 0.0
C47 C 0.84713 1.09056 0.34124 0.0
C48 C 0.90728 1.06435 0.3365 0.0
C49 C 0.18577 0.16772 0.39418 0.0
C50 C 0.18484 0.42148 0.29793 0.0
C51 C 0.46405 0.39721 0.32777 0.0
C52 C 0.53225 0.38117 0.31698 0.0
C53 C 0.61944 0.44032 0.34346 0.0
C54 C 0.66424 0.39182 0.34014 0.0
C55 C 0.62152 0.28327 0.31041 0.0
C56 C 0.53998 0.23258 0.28201 0.0
C57 C 0.49543 0.28124 0.28533 0.0
C58 C 0.24443 0.23032 0.22526 0.0
C59 C 0.23877 0.96015 0.32087 0.0
O60 O 1.03434 1.07856 0.27265 0.0
O61 O 0.99342 0.95172 0.32018 0.0
O62 O 1.15602 1.06328 0.37187 0.0
O63 O 0.21427 0.25766 0.37149 0.0
O64 O 0.22751 0.38356 0.3169 0.0
O65 O 0.23065 0.39137 0.31837 0.0
O66 O 0.38369 0.29835 0.34912 0.0
O67 O 0.43247 0.42114 0.29925 0.0
O68 O 0.28207 0.33632 0.24948 0.0
O69 O 0.2068 1.13109 0.24589 0.0
O70 O 0.19619 0.99816 0.30181 0.0
O71 O 0.19335 0.99069 0.30043 0.0
H72 H 0.76017 0.81774 0.25552 0.0
H73 H 0.65348 0.86283 0.26394 0.0
H74 H 0.87606 0.17266 0.36391 0.0
H75 H 0.98138 1.12636 0.35549 0.0
H76 H 0.64756 0.5164 0.36828 0.0
H77 H 0.72845 0.434 0.36194 0.0
H78 H 0.50522 0.14823 0.25901 0.0
H79 H 0.4266 0.23285 0.26508 0.0
Nd80 Nd 0.2138 0.2616 0.6538 0.0
Nd81 Nd 0.20497 1.06181 0.6318 0.0
C82 C 0.20032 0.42085 0.69014 0.0
C83 C 1.1089 0.39809 0.69677 0.0
C84 C 1.00922 0.26657 0.70851 0.0
C85 C 0.91276 0.22452 0.7015 0.0
C86 C 0.9152 0.31319 0.68248 0.0
C87 C 1.01655 0.45209 0.67565 0.0
C88 C 1.1134 0.49458 0.68289 0.0
C89 C 0.21116 0.22804 0.57067 0.0
C90 C 0.95903 0.91426 0.64191 0.0
C91 C 0.21861 0.90278 0.59549 0.0
C92 C 0.31146 0.92969 0.58738 0.0
C93 C 0.40886 1.06261 0.57521 0.0
C94 C 0.50789 1.11062 0.58192 0.0
C95 C 0.51006 1.02646 0.60106 0.0
C96 C 0.41103 0.88577 0.6079 0.0
C97 C 0.31168 0.83734 0.60099 0.0
C98 C 0.20318 1.0908 0.71466 0.0
C99 C 0.45956 0.40933 0.6436 0.0
O100 O 0.20076 0.3424 0.70901 0.0
O101 O 0.22252 0.42753 0.65269 0.0
O102 O 0.27686 0.35024 0.59175 0.0
O103 O 1.14951 1.12806 0.59352 0.0
O104 O 1.01841 1.04758 0.65653 0.0
O105 O 1.01355 0.89276 0.62677 0.0
O106 O 0.21236 0.97529 0.5764 0.0
O107 O 0.20146 0.90084 0.63341 0.0
O108 O 1.13687 0.97005 0.6928 0.0
O109 O 0.26756 0.19303 0.69253 0.0
O110 O 0.40014 0.2762 0.62879 0.0
O111 O 0.40508 0.43056 0.65897 0.0
H112 H 1.00374 0.19036 0.71945 0.0
H113 H 0.83557 1.1168 0.707 0.0
H114 H 1.01997 0.52284 0.66158 0.0
H115 H 0.19006 0.59689 0.67398 0.0
H116 H 0.41057 1.13557 0.56443 0.0
H117 H 0.58329 0.21937 0.57629 0.0
H118 H 0.41129 0.81843 0.62201 0.0
H119 H 0.23684 0.73404 0.61021 0.0
C120 C 0.96782 0.37826 0.12671 0.0
C121 C 0.91328 0.28551 0.09132 0.0
H122 H 1.04499 0.58247 0.15031 0.0
C123 C 0.82513 0.25454 0.0753 0.0
H124 H 1.02642 0.39225 0.14367 0.0
C125 C 0.8319 0.36106 0.08071 0.0
C126 C 0.92971 0.4941 0.09965 0.0
H127 H 0.76993 0.17102 0.05128 0.0
H128 H 0.78151 0.35467 0.0606 0.0
C129 C 0.97848 0.48841 0.13054 0.0
C130 C 0.67535 0.18099 0.27565 0.0
C131 C 0.6542 0.21359 0.31121 0.0
H132 H 0.72447 1.09371 0.24891 0.0
C133 C 0.66001 0.17409 0.34755 0.0
H134 H 0.67161 0.21077 0.24731 0.0
C135 C 0.68938 1.10628 0.34846 0.0
C136 C 0.71275 1.07639 0.31301 0.0
H137 H 0.64131 0.19499 0.37524 0.0
H138 H 0.69503 1.0786 0.37686 0.0
C139 C 0.70446 1.11293 0.27654 0.0
C140 C 0.76557 0.79872 0.65807 0.0
C141 C 0.83079 0.78571 0.64237 0.0
H142 H 0.6042 0.6977 0.67086 0.0
C143 C 0.77044 0.64473 0.62707 0.0
H144 H 0.80536 0.90245 0.67029 0.0
C145 C 0.653 0.52497 0.6274 0.0
C146 C 0.58778 0.53796 0.6431 0.0
H147 H 0.81436 0.62594 0.61462 0.0
H148 H 0.61322 0.42125 0.61519 0.0
C149 C 0.64813 0.67894 0.6584 0.0
C150 C 0.71554 0.1576 0.68269 0.0
C151 C 0.81322 0.24986 0.66282 0.0
H152 H 0.54213 1.01263 0.67817 0.0
C153 C 0.81053 0.2657 0.62206 0.0
H154 H 0.7159 0.14379 0.71409 0.0
C155 C 0.71125 0.18919 0.60135 0.0
C156 C 0.61344 1.09551 0.62112 0.0
H157 H 0.88463 0.33354 0.60582 0.0
H158 H 0.71072 0.20267 0.56993 0.0
C159 C 0.61632 1.08096 0.66198 0.0
C160 C 0.80615 0.66555 0.98111 0.0
C161 C 0.86438 0.8005 0.96801 0.0
H162 H 0.65016 0.4496 -0.00908 0.0
C163 C 0.79657 0.81055 0.95401 0.0
H164 H 0.85197 0.64935 -0.00781 0.0
C165 C 0.67869 0.6941 0.95346 0.0
C166 C 0.6205 0.55922 0.96658 0.0
H167 H 0.83463 0.90944 0.9432 0.0
H168 H 0.63283 0.71037 0.9425 0.0
C169 C 0.68832 0.54891 0.98035 0.0
C170 C 0.2759 0.69277 0.33346 0.0
C171 C 0.20287 0.56305 0.30586 0.0
H172 H 0.34334 0.8965 0.35899 0.0
C173 C 1.14062 0.57345 0.28213 0.0
H174 H 0.3304 0.70754 0.35382 0.0
C175 C 1.14838 0.68951 0.28512 0.0
C176 C 0.22122 0.81905 0.31278 0.0
H177 H 1.08117 0.486 0.25951 0.0
H178 H 1.09401 0.67487 0.26472 0.0
C179 C 0.28368 0.80886 0.33645 0.0
C180 C 0.18252 1.10249 0.15474 0.0
C181 C 0.24734 0.22947 0.18027 0.0
H182 H 1.13253 1.0055 0.09388 0.0
C183 C 0.31526 0.35854 0.16227 0.0
H184 H 1.12868 1.0008 0.16738 0.0
C185 C 0.31941 0.36142 0.12038 0.0
C186 C 0.25414 0.23505 0.09467 0.0
H187 H 0.36638 0.45852 0.18068 0.0
H188 H 0.37365 0.46374 0.10809 0.0
C189 C 0.18486 1.10511 0.11253 0.0
C190 C 1.1375 1.06444 0.46161 0.0
C191 C 0.19006 0.18173 0.43934 0.0
H192 H 1.10052 0.98531 0.51988 0.0
C193 C 0.24794 0.31316 0.46083 0.0
H194 H 1.09198 0.96141 0.44626 0.0
C195 C 0.25463 0.3275 0.50311 0.0
C196 C 0.20179 0.21027 0.52545 0.0
H197 H 0.28966 0.40603 0.44495 0.0
H198 H 0.3012 0.43107 0.51835 0.0
C199 C 1.14231 1.0781 0.50395 0.0
C200 C 1.13611 0.97553 0.77972 0.0
C201 C 0.21002 1.10142 0.75992 0.0
H202 H 1.08112 0.87922 0.83526 0.0
C203 C 0.28774 0.23258 0.78395 0.0
H204 H 1.07468 0.87233 0.76264 0.0
C205 C 0.29141 0.23662 0.82641 0.0
C206 C 0.21755 1.1096 0.84596 0.0
H207 H 0.34589 0.33198 0.76998 0.0
H208 H 0.35241 0.33902 0.84388 0.0
C209 C 1.13983 0.97952 0.82172 0.0
loop_
_geom_bond_atom_site_label_1
_geom_bond_atom_site_label_2
_geom_bond_distance
_geom_bond_site_symmetry_2
_ccdc_geom_bond_type
Nd0 C2 2.836 1_655 S
Nd0 O20 2.500 1_654 S
Nd0 O21 2.488 . S
Nd0 O22 2.487 . S
Nd0 O23 2.684 1_545 S
Nd0 O24 2.410 1_655 S
Nd0 O29 2.414 1_654 S
Nd0 O31 2.424 1_545 S
Nd1 C11 2.836 1_455 S
Nd1 O23 2.412 1_456 S
Nd1 O25 2.424 1_565 S
Nd1 O26 2.500 1_456 S
Nd1 O27 2.492 . S
Nd1 O28 2.487 . S
Nd1 O29 2.682 1_565 S
Nd1 O30 2.410 1_455 S
C2 Nd0 2.836 1_455 S
C2 C3 1.498 . S
C2 O20 1.258 1_554 S
C2 O21 1.239 1_455 S
C3 C2 1.498 . S
C3 C4 1.366 1_554 S
C3 C8 1.407 . S
C4 C3 1.366 1_556 S
C4 C5 1.392 . S
C4 H32 0.930 . S
C5 C4 1.392 . S
C5 C6 1.398 1_556 S
C5 H33 0.929 . S
C6 C5 1.398 1_554 S
C6 C7 1.352 . S
C7 C6 1.352 . S
C7 C8 1.384 . S
C7 H34 0.930 . S
C8 C3 1.407 . S
C8 C7 1.384 . S
C8 H35 0.929 . S
C9 O22 1.241 . S
C9 O23 1.274 1_545 S
C10 O24 1.251 . S
C10 O25 1.268 1_554 S
C11 Nd1 2.836 1_655 S
C11 C12 1.499 . S
C11 O26 1.258 1_556 S
C11 O27 1.239 1_655 S
C12 C11 1.499 . S
C12 C13 1.360 1_556 S
C12 C17 1.413 . S
C13 C12 1.360 1_554 S
C13 C14 1.392 . S
C13 H36 0.930 . S
C14 C13 1.392 . S
C14 C15 1.398 . S
C14 H37 0.929 . S
C15 C14 1.398 . S
C15 C16 1.352 1_554 S
C16 C15 1.352 1_556 S
C16 C17 1.384 . S
C16 H38 0.930 . S
C17 C12 1.413 . S
C17 C16 1.384 . S
C17 H39 0.929 . S
C18 O28 1.241 . S
C18 O29 1.273 1_565 S
C19 O30 1.255 . S
C19 O31 1.267 1_556 S
O20 Nd0 2.500 1_456 S
O20 C2 1.258 1_556 S
O21 Nd0 2.488 . S
O21 C2 1.239 1_655 S
O22 Nd0 2.487 . S
O22 C9 1.241 . S
O23 Nd0 2.684 1_565 S
O23 Nd1 2.412 1_654 S
O23 C9 1.274 1_565 S
O24 Nd0 2.410 1_455 S
O24 C10 1.251 . S
O25 Nd1 2.424 1_545 S
O25 C10 1.268 1_556 S
O26 Nd1 2.500 1_654 S
O26 C11 1.258 1_554 S
O27 Nd1 2.492 . S
O27 C11 1.239 1_455 S
O28 Nd1 2.487 . S
O28 C18 1.241 . S
O29 Nd0 2.414 1_456 S
O29 Nd1 2.682 1_545 S
O29 C18 1.273 1_545 S
O30 Nd1 2.410 1_655 S
O30 C19 1.255 . S
O31 Nd0 2.424 1_565 S
O31 C19 1.267 1_554 S
H32 C4 0.930 . S
H33 C5 0.929 . S
H34 C7 0.930 . S
H35 C8 0.929 . S
H36 C13 0.930 . S
H37 C14 0.929 . S
H38 C16 0.930 . S
H39 C17 0.929 . S
Nd40 C42 2.836 . S
Nd40 O60 2.500 . S
Nd40 O61 2.492 . S
Nd40 O62 2.487 . S
Nd40 O63 2.682 1_665 S
Nd40 O64 2.410 1_565 S
Nd40 O69 2.414 1_665 S
Nd40 O71 2.424 . S
Nd41 C51 2.836 . S
Nd41 O63 2.414 . S
Nd41 O65 2.424 . S
Nd41 O66 2.500 . S
Nd41 O67 2.492 . S
Nd41 O68 2.487 . S
Nd41 O69 2.682 . S
Nd41 O70 2.410 1_545 S
C42 Nd40 2.836 . S
C42 C43 1.498 . S
C42 O60 1.258 . S
C42 O61 1.239 . S
C43 C42 1.498 . S
C43 C44 1.366 . S
C43 C48 1.407 . S
C44 C43 1.366 . S
C44 C45 1.392 . S
C44 H72 0.930 . S
C45 C44 1.392 . S
C45 C46 1.398 . S
C45 H73 0.929 . S
C46 C45 1.398 . S
C46 C47 1.352 . S
C47 C46 1.352 . S
C47 C48 1.384 . S
C47 H74 0.930 . S
C48 C43 1.407 . S
C48 C47 1.384 . S
C48 H75 0.929 . S
C49 O62 1.241 1_445 S
C49 O63 1.273 . S
C50 O64 1.251 1_455 S
C50 O65 1.268 . S
C51 Nd41 2.836 . S
C51 C52 1.498 . S
C51 O66 1.258 . S
C51 O67 1.239 . S
C52 C51 1.498 . S
C52 C53 1.366 . S
C52 C57 1.407 . S
C53 C52 1.366 . S
C53 C54 1.392 . S
C53 H76 0.930 . S
C54 C53 1.392 . S
C54 C55 1.398 . S
C54 H77 0.929 . S
C55 C54 1.398 . S
C55 C56 1.352 . S
C56 C55 1.352 . S
C56 C57 1.384 . S
C56 H78 0.930 . S
C57 C52 1.407 . S
C57 C56 1.384 . S
C57 H79 0.929 . S
C58 O68 1.241 . S
C58 O69 1.273 . S
C59 O70 1.251 . S
C59 O71 1.268 1_455 S
O60 Nd40 2.500 . S
O60 C42 1.258 . S
O61 Nd40 2.492 . S
O61 C42 1.239 . S
O62 Nd40 2.487 . S
O62 C49 1.241 1_665 S
O63 Nd40 2.682 1_445 S
O63 Nd41 2.414 . S
O63 C49 1.273 . S
O64 Nd40 2.410 1_545 S
O64 C50 1.251 1_655 S
O65 Nd41 2.424 . S
O65 C50 1.268 . S
O66 Nd41 2.500 . S
O66 C51 1.258 . S
O67 Nd41 2.492 . S
O67 C51 1.239 . S
O68 Nd41 2.487 . S
O68 C58 1.241 . S
O69 Nd40 2.414 1_445 S
O69 Nd41 2.682 . S
O69 C58 1.273 . S
O70 Nd41 2.410 1_565 S
O70 C59 1.251 . S
O71 Nd40 2.424 . S
O71 C59 1.268 1_655 S
H72 C44 0.930 . S
H73 C45 0.929 . S
H74 C47 0.930 . S
H75 C48 0.929 . S
H76 C53 0.930 . S
H77 C54 0.929 . S
H78 C56 0.930 . S
H79 C57 0.929 . S
Nd80 C82 2.836 1_455 S
Nd80 O100 2.500 1_455 S
Nd80 O101 2.492 1_455 S
Nd80 O102 2.487 . S
Nd80 O103 2.682 . S
Nd80 O104 2.410 1_445 S
Nd80 O109 2.414 . S
Nd80 O111 2.424 . S
Nd81 C91 2.836 . S
Nd81 O103 2.414 1_565 S
Nd81 O105 2.424 1_455 S
Nd81 O106 2.500 . S
Nd81 O107 2.492 . S
Nd81 O108 2.487 . S
Nd81 O109 2.682 1_565 S
Nd81 O110 2.410 1_565 S
C82 Nd80 2.836 1_655 S
C82 C83 1.498 . S
C82 O100 1.258 . S
C82 O101 1.239 . S
C83 C82 1.498 . S
C83 C84 1.366 1_545 S
C83 C88 1.407 . S
C84 C83 1.366 1_565 S
C84 C85 1.392 . S
C84 H112 0.930 . S
C85 C84 1.392 . S
C85 C86 1.389 1_565 S
C85 H113 0.929 . S
C86 C85 1.389 1_545 S
C86 C87 1.352 . S
C87 C86 1.352 . S
C87 C88 1.384 . S
C87 H114 0.930 . S
C88 C83 1.407 . S
C88 C87 1.384 . S
C88 H115 0.929 . S
C89 O102 1.241 . S
C89 O103 1.273 . S
C90 O104 1.251 . S
C90 O105 1.268 . S
C91 Nd81 2.836 . S
C91 C92 1.498 . S
C91 O106 1.258 . S
C91 O107 1.239 . S
C92 C91 1.498 . S
C92 C93 1.366 1_565 S
C92 C97 1.407 . S
C93 C92 1.366 1_545 S
C93 C94 1.392 . S
C93 H116 0.930 . S
C94 C93 1.392 . S
C94 C95 1.398 . S
C94 H117 0.929 . S
C95 C94 1.398 . S
C95 C96 1.352 1_545 S
C96 C95 1.352 1_565 S
C96 C97 1.384 . S
C96 H118 0.930 . S
C97 C92 1.407 . S
C97 C96 1.384 . S
C97 H119 0.929 . S
C98 O108 1.241 1_545 S
C98 O109 1.273 . S
C99 O110 1.251 . S
C99 O111 1.268 . S
O100 Nd80 2.500 1_655 S
O100 C82 1.258 . S
O101 Nd80 2.492 1_655 S
O101 C82 1.239 . S
O102 Nd80 2.487 . S
O102 C89 1.241 . S
O103 Nd80 2.682 . S
O103 Nd81 2.414 1_545 S
O103 C89 1.273 . S
O104 Nd80 2.410 1_665 S
O104 C90 1.251 . S
O105 Nd81 2.424 1_655 S
O105 C90 1.268 . S
O106 Nd81 2.500 . S
O106 C91 1.258 . S
O107 Nd81 2.492 . S
O107 C91 1.239 . S
O108 Nd81 2.487 . S
O108 C98 1.241 1_565 S
O109 Nd80 2.414 . S
O109 Nd81 2.682 1_545 S
O109 C98 1.273 . S
O110 Nd81 2.410 1_545 S
O110 C99 1.251 . S
O111 Nd80 2.424 . S
O111 C99 1.268 . S
H112 C84 0.930 . S
H113 C85 0.929 . S
H114 C87 0.930 . S
H115 C88 0.929 . S
H116 C93 0.930 . S
H117 C94 0.929 . S
H118 C96 0.930 . S
H119 C97 0.929 . S
C120 C121 1.387 . S
C120 H124 0.950 . S
C120 C129 1.390 1_455 S
C121 C120 1.387 . S
C121 C123 1.387 1_554 S
H122 C129 0.950 . S
C123 C121 1.387 1_556 S
C123 C125 1.390 1_455 S
C123 H127 0.950 . S
H124 C120 0.950 . S
C125 C123 1.390 1_655 S
C125 C126 1.387 1_556 S
C125 H128 0.950 . S
C126 C125 1.387 1_554 S
C126 C129 1.387 . S
H127 C123 0.950 . S
H128 C125 0.950 . S
C129 C120 1.390 1_655 S
C129 H122 0.950 . S
C129 C126 1.387 . S
C130 C131 1.387 . S
C130 H134 0.950 . S
C130 C139 1.390 . S
C131 C130 1.387 . S
C131 C133 1.387 1_545 S
H132 C139 0.950 . S
C133 C131 1.387 1_565 S
C133 C135 1.390 . S
C133 H137 0.950 . S
H134 C130 0.950 . S
C135 C133 1.390 . S
C135 C136 1.387 . S
C135 H138 0.950 . S
C136 C135 1.387 . S
C136 C139 1.387 1_565 S
H137 C133 0.950 . S
H138 C135 0.950 . S
C139 C130 1.390 . S
C139 H132 0.950 . S
C139 C136 1.387 1_545 S
C140 C141 1.387 . S
C140 H144 0.950 . S
C140 C149 1.390 . S
C141 C140 1.387 . S
C141 C143 1.387 . S
H142 C149 0.950 . S
C143 C141 1.387 . S
C143 C145 1.390 . S
C143 H147 0.950 . S
H144 C140 0.950 . S
C145 C143 1.390 . S
C145 C146 1.387 . S
C145 H148 0.950 . S
C146 C145 1.387 . S
C146 C149 1.387 . S
H147 C143 0.950 . S
H148 C145 0.950 . S
C149 C140 1.390 . S
C149 H142 0.950 . S
C149 C146 1.387 . S
C150 C151 1.387 . S
C150 H154 0.950 . S
C150 C159 1.390 1_565 S
C151 C150 1.387 . S
C151 C153 1.387 1_565 S
H152 C159 0.950 . S
C153 C151 1.387 1_545 S
C153 C155 1.390 . S
C153 H157 0.950 . S
H154 C150 0.950 . S
C155 C153 1.390 . S
C155 C156 1.387 . S
C155 H158 0.950 . S
C156 C155 1.387 . S
C156 C159 1.387 . S
H157 C153 0.950 . S
H158 C155 0.950 . S
C159 C150 1.390 1_545 S
C159 H152 0.950 . S
C159 C156 1.387 . S
C160 C161 1.387 1_556 S
C160 H164 0.950 . S
C160 C169 1.390 . S
C161 C160 1.387 1_554 S
C161 C163 1.387 . S
H162 C169 0.950 . S
C163 C161 1.387 . S
C163 C165 1.390 . S
C163 H167 0.950 . S
H164 C160 0.950 . S
C165 C163 1.390 . S
C165 C166 1.387 . S
C165 H168 0.950 . S
C166 C165 1.387 . S
C166 C169 1.387 1_554 S
H167 C163 0.950 . S
H168 C165 0.950 . S
C169 C160 1.390 . S
C169 H162 0.950 . S
C169 C166 1.387 1_556 S
C170 C171 1.387 . S
C170 H174 0.950 . S
C170 C179 1.390 . S
C171 C170 1.387 . S
C171 C173 1.387 . S
H172 C179 0.950 . S
C173 C171 1.387 . S
C173 C175 1.390 . S
C173 H177 0.950 . S
H174 C170 0.950 . S
C175 C173 1.390 . S
C175 C176 1.387 . S
C175 H178 0.950 . S
C176 C175 1.387 . S
C176 C179 1.387 . S
H177 C173 0.950 . S
H178 C175 0.950 . S
C179 C170 1.390 . S
C179 H172 0.950 . S
C179 C176 1.387 . S
C180 C181 1.387 1_665 S
C180 H184 0.950 . S
C180 C189 1.390 . S
C181 C180 1.387 1_445 S
C181 C183 1.387 . S
H182 C189 0.950 . S
C183 C181 1.387 . S
C183 C185 1.390 . S
C183 H187 0.950 . S
H184 C180 0.950 . S
C185 C183 1.390 . S
C185 C186 1.387 . S
C185 H188 0.950 . S
C186 C185 1.387 . S
C186 C189 1.387 1_445 S
H187 C183 0.950 . S
H188 C185 0.950 . S
C189 C180 1.390 . S
C189 H182 0.950 . S
C189 C186 1.387 1_665 S
C190 C191 1.387 1_565 S
C190 H194 0.950 . S
C190 C199 1.390 . S
C191 C190 1.387 1_545 S
C191 C193 1.387 . S
H192 C199 0.950 . S
C193 C191 1.387 . S
C193 C195 1.390 . S
C193 H197 0.950 . S
H194 C190 0.950 . S
C195 C193 1.390 . S
C195 C196 1.387 . S
C195 H198 0.950 . S
C196 C195 1.387 . S
C196 C199 1.387 1_545 S
H197 C193 0.950 . S
H198 C195 0.950 . S
C199 C190 1.390 . S
C199 H192 0.950 . S
C199 C196 1.387 1_565 S
C200 C201 1.387 1_665 S
C200 H204 0.950 . S
C200 C209 1.390 . S
C201 C200 1.387 1_445 S
C201 C203 1.387 . S
H202 C209 0.950 . S
C203 C201 1.387 . S
C203 C205 1.390 . S
C203 H207 0.950 . S
H204 C200 0.950 . S
C205 C203 1.390 . S
C205 C206 1.387 . S
C205 H208 0.950 . S
C206 C205 1.387 . S
C206 C209 1.387 1_445 S
H207 C203 0.950 . S
H208 C205 0.950 . S
C209 C200 1.390 . S
C209 H202 0.950 . S
C209 C206 1.387 1_665 S
C121 C6 0.889 . S
C126 C15 0.889 . S
C131 C55 0.907 . S
C136 C46 0.907 . S
C141 C90 3.017 . S
C146 C99 3.017 . S
C151 C86 0.691 1_565 S
C156 C95 0.682 . S
C161 C19 3.116 1_554 S
C166 C10 3.117 . S
C171 C50 4.921 . S
C176 C59 4.921 . S
C181 C58 1.474 . S
C186 C9 1.478 1_455 S
C191 C49 1.443 . S
C196 C89 1.453 . S
C201 C98 1.462 . S
C206 C18 1.447 1_545 S
