# Generated by pormake.
# Topology acs, (6)-cn, num edge types: 1
# Building blocks:
#     Node 0, Type 0, BuildingBlock: IZENUY_clean_sbu_0, # of connection points: 6
#     Node 1, Type 0, BuildingBlock: IZENUY_clean_sbu_0, # of connection points: 6
#     Edge 2, Type (0, 0), BuildingBlock: UVAHIK_clean_linker_0, # of connection points: 2
#     Edge 3, Type (0, 0), BuildingBlock: UVAHIK_clean_linker_0, # of connection points: 2
#     Edge 4, Type (0, 0), BuildingBlock: UVAHIK_clean_linker_0, # of connection points: 2
#     Edge 5, Type (0, 0), BuildingBlock: UVAHIK_clean_linker_0, # of connection points: 2
#     Edge 6, Type (0, 0), BuildingBlock: UVAHIK_clean_linker_0, # of connection points: 2
#     Edge 7, Type (0, 0), BuildingBlock: UVAHIK_clean_linker_0, # of connection points: 2
# Relax obj value: 0.000
# Max RMSD: 0.012
# Mean RMSD: 0.012
data_MOF--net-acs--node1-IZENUY_clean_sbu_0--edge1-UVAHIK_clean_linker_0
_symmetry_space_group_name_H-M    P1
_symmetry_Int_Tables_number       1
_symmetry_cell_setting            triclinic
loop_
_symmetry_equiv_pos_as_xyz
'x, y, z'
_cell_length_a     26.569038
_cell_length_b     26.566531
_cell_length_c     26.754887
_cell_angle_alpha  90.006469
_cell_angle_beta   90.004652
_cell_angle_gamma 120.19026
loop_
_atom_site_label
_atom_site_type_symbol
_atom_site_fract_x
_atom_site_fract_y
_atom_site_fract_z
_atom_type_partial_charge
Fe0 Fe 0.63878 0.32857 0.22051 0.0
Fe1 Fe 0.75444 0.32882 0.22065 0.0
O2 O 0.71596 0.3673 0.22064 0.0
Fe3 Fe 0.75468 0.44448 0.22077 0.0
O4 O 0.72127 0.44698 0.27924 0.0
O5 O 0.63171 0.3828 0.25749 0.0
O6 O 0.63593 0.29247 0.27899 0.0
C7 C 0.65997 0.26244 0.28613 0.0
C8 C 0.66051 0.4162 0.15492 0.0
O9 O 0.69984 0.26712 0.25726 0.0
C10 C 0.82081 0.42329 0.15516 0.0
O11 O 0.63173 0.26726 0.18348 0.0
O12 O 0.72134 0.2931 0.16199 0.0
O13 O 0.70046 0.45156 0.18379 0.0
O14 O 0.63629 0.36199 0.16205 0.0
C15 C 0.82029 0.41611 0.28665 0.0
O16 O 0.81613 0.38342 0.18403 0.0
O17 O 0.79079 0.44733 0.1623 0.0
C18 C 0.66716 0.26296 0.15464 0.0
O19 O 0.79015 0.36192 0.27931 0.0
O20 O 0.81599 0.45154 0.25781 0.0
C21 C 0.66706 0.42276 0.28636 0.0
Fe22 Fe 0.46031 0.73879 0.72078 0.0
Fe23 Fe 0.34466 0.73855 0.72064 0.0
O24 O 0.38313 0.70007 0.72065 0.0
Fe25 Fe 0.34441 0.62288 0.72052 0.0
O26 O 0.39864 0.61581 0.7575 0.0
O27 O 0.4628 0.70538 0.77924 0.0
O28 O 0.46737 0.8001 0.75781 0.0
C29 C 0.43193 0.80441 0.78665 0.0
C30 C 0.43203 0.64461 0.65493 0.0
O31 O 0.37775 0.77427 0.7793 0.0
C32 C 0.2788 0.65126 0.65464 0.0
O33 O 0.46317 0.7749 0.6623 0.0
O34 O 0.39926 0.80024 0.68403 0.0
O35 O 0.37782 0.62038 0.66205 0.0
O36 O 0.46738 0.68456 0.6838 0.0
C37 C 0.27829 0.64408 0.78613 0.0
O38 O 0.30895 0.70545 0.66198 0.0
O39 O 0.28311 0.61583 0.68348 0.0
C40 C 0.43913 0.80492 0.65516 0.0
O41 O 0.28297 0.68395 0.75726 0.0
O42 O 0.30831 0.62004 0.77899 0.0
C43 C 0.43858 0.65117 0.78637 0.0
C44 C 0.51553 0.88324 0.83426 0.0
C45 C 0.45511 0.84966 0.82615 0.0
C46 C 0.53812 0.92736 0.87014 0.0
C47 C 0.50278 1.02471 0.94047 0.0
H48 H 0.63188 0.04817 0.02441 0.0
C49 C 0.58357 0.18413 0.10702 0.0
C50 C 0.64398 0.21771 0.11513 0.0
C51 C 0.56097 0.14001 0.07114 0.0
C52 C 0.59632 0.04266 0.00081 0.0
H53 H 0.37101 0.83557 0.85023 0.0
H54 H 0.4106 0.91254 0.91325 0.0
H55 H 0.59044 0.96807 0.96457 0.0
H56 H 0.72809 0.2318 0.09106 0.0
H57 H 0.6885 0.15483 0.02803 0.0
H58 H 0.50866 0.0993 -0.02328 0.0
C59 C 0.44045 0.90508 0.89126 0.0
C60 C 0.57248 0.99668 0.9666 0.0
C61 C 0.41775 0.86075 0.85535 0.0
C62 C 0.68134 0.20662 0.08593 0.0
C63 C 0.65865 0.16229 0.05003 0.0
C64 C 0.52662 0.07069 -0.02531 0.0
C65 C 0.50093 0.93906 0.89886 0.0
C66 C 0.52545 0.98718 0.93601 0.0
C67 C 0.59817 0.12831 0.04242 0.0
C68 C 0.57365 0.08019 0.00527 0.0
H69 H 0.54565 0.87591 0.81254 0.0
H70 H 0.58493 0.95313 0.87463 0.0
H71 H 0.46722 1.0192 0.91688 0.0
H72 H 0.55345 0.19146 0.12875 0.0
H73 H 0.51417 0.11424 0.06665 0.0
C74 C 0.41798 0.57452 0.58575 0.0
C75 C 0.45532 0.62256 0.6156 0.0
C76 C 0.44074 0.55297 0.54994 0.0
C77 C 0.57541 0.55163 0.51765 0.0
H78 H 0.50343 0.50288 0.38718 0.0
C79 C 0.68111 0.49284 0.35554 0.0
C80 C 0.64377 0.4448 0.32569 0.0
C81 C 0.65834 0.51439 0.39135 0.0
C82 C 0.52368 0.51572 0.42365 0.0
H83 H 0.54593 0.68639 0.63027 0.0
H84 H 0.58526 0.64923 0.56773 0.0
H85 H 0.46259 0.54059 0.44827 0.0
H86 H 0.55317 0.38096 0.31102 0.0
H87 H 0.51383 0.41813 0.37356 0.0
H88 H 0.6365 0.52676 0.49303 0.0
C89 C 0.53848 0.62752 0.57256 0.0
C90 C 0.50024 0.53731 0.45865 0.0
C91 C 0.51581 0.64903 0.60826 0.0
C92 C 0.58328 0.41832 0.33304 0.0
C93 C 0.56061 0.43984 0.36873 0.0
C94 C 0.59885 0.53004 0.48264 0.0
C95 C 0.5013 0.57899 0.54323 0.0
C96 C 0.52585 0.55557 0.50605 0.0
C97 C 0.59779 0.48836 0.39807 0.0
C98 C 0.57324 0.51179 0.43524 0.0
H99 H 0.37119 0.55309 0.5904 0.0
H100 H 0.41092 0.51521 0.5282 0.0
H101 H 0.59566 0.56447 0.55411 0.0
H102 H 0.7279 0.51427 0.35089 0.0
H103 H 0.68816 0.55215 0.41309 0.0
C104 C 0.87735 0.49352 0.0861 0.0
C105 C 0.86627 0.44538 0.11584 0.0
C106 C 0.92174 0.51499 0.05025 0.0
C107 C 0.05738 0.5157 0.01761 0.0
H108 H 1.03436 0.56456 0.88724 0.0
C109 C 0.22174 0.57386 0.85519 0.0
C110 C 0.23283 0.62199 0.82545 0.0
C111 C 0.17735 0.55239 0.89104 0.0
C112 C 1.04172 0.55168 0.92368 0.0
H113 H 0.8924 0.38129 0.13028 0.0
H114 H 0.96899 0.41831 0.06769 0.0
H115 H 0.95579 0.52726 0.94849 0.0
H116 H 0.2067 0.68608 0.81101 0.0
H117 H 0.13011 0.64907 0.87359 0.0
H118 H 0.1433 0.54012 -0.0072 0.0
C119 C 0.9442 0.44017 0.07264 0.0
C120 C 0.99668 0.53034 0.95878 0.0
C121 C 0.89996 0.41874 0.10837 0.0
C122 C 0.19914 0.64863 0.83292 0.0
C123 C 0.1549 0.62721 0.86865 0.0
C124 C 0.10242 0.53704 -0.01749 0.0
C125 C 0.95594 0.48878 0.04339 0.0
C126 C 1.00396 0.51205 0.00615 0.0
C127 C 0.14315 0.5786 0.8979 0.0
C128 C 0.09514 0.55533 0.93515 0.0
H129 H 0.85224 0.51506 0.09086 0.0
H130 H 0.92999 0.55282 0.02857 0.0
H131 H 0.06473 0.50282 0.05405 0.0
H132 H 0.24685 0.55231 0.85044 0.0
H133 H 0.1691 0.51456 0.91272 0.0
C134 C 0.43457 0.88405 0.60833 0.0
C135 C 0.46122 0.85038 0.61583 0.0
C136 C 0.456 0.9283 0.5726 0.0
C137 C 0.54624 0.98082 0.45879 0.0
H138 H 0.55591 0.12742 0.49277 0.0
C139 C 0.66453 0.18331 0.33295 0.0
C140 C 0.63788 0.21698 0.32545 0.0
C141 C 0.6431 0.13907 0.36868 0.0
C142 C 0.55287 0.08654 0.4825 0.0
H143 H 0.53094 0.83639 0.5909 0.0
H144 H 0.5687 0.91415 0.52861 0.0
H145 H 0.5186 0.04884 0.55402 0.0
H146 H 0.56816 0.23097 0.35039 0.0
H147 H 0.5304 0.15321 0.41268 0.0
H148 H 0.58051 1.01852 0.38727 0.0
C149 C 0.53085 0.90588 0.55027 0.0
C150 C 0.53152 0.0415 0.51759 0.0
C151 C 0.50938 0.86149 0.58612 0.0
C152 C 0.58972 0.20587 0.35517 0.0
C153 C 0.56825 0.16148 0.39102 0.0
C154 C 0.56759 1.02587 0.42369 0.0
C155 C 0.50463 0.94006 0.54339 0.0
C156 C 0.5279 0.98808 0.50614 0.0
C157 C 0.59447 0.1273 0.3979 0.0
C158 C 0.5712 0.07928 0.43515 0.0
H159 H 0.3971 0.87647 0.63023 0.0
H160 H 0.43412 0.95307 0.56764 0.0
H161 H 0.54319 0.93994 0.44851 0.0
H162 H 0.702 0.19089 0.31106 0.0
H163 H 0.66498 0.11429 0.37365 0.0
C164 C 0.50864 0.66523 0.85557 0.0
C165 C 0.46064 0.62787 0.8257 0.0
C166 C 0.53019 0.64247 0.89138 0.0
C167 C 0.53164 0.50784 0.92364 0.0
H168 H 0.58026 0.57976 0.05413 0.0
C169 C 0.59045 0.40214 0.08572 0.0
C170 C 0.63846 0.43949 0.11559 0.0
C171 C 0.5689 0.42489 0.04991 0.0
C172 C 0.56745 0.55952 0.01766 0.0
H173 H 0.39687 0.53726 0.81098 0.0
H174 H 0.43404 0.49793 0.87351 0.0
H175 H 0.54253 0.62058 -0.00695 0.0
H176 H 0.70222 0.53011 0.13031 0.0
H177 H 0.66505 0.56943 0.06778 0.0
H178 H 0.55656 0.44678 0.94824 0.0
C179 C 0.45572 0.54472 0.8687 0.0
C180 C 0.54585 0.58296 -0.01734 0.0
C181 C 0.4342 0.56738 0.83301 0.0
C182 C 0.66489 0.49998 0.10828 0.0
C183 C 0.64337 0.52265 0.07259 0.0
C184 C 0.55324 0.48441 0.95864 0.0
C185 C 0.50421 0.58191 0.89807 0.0
C186 C 0.52764 0.55737 0.93524 0.0
C187 C 0.59488 0.48545 0.04322 0.0
C188 C 0.57144 0.50999 0.00605 0.0
H189 H 0.53004 0.71202 0.85095 0.0
H190 H 0.56793 0.6723 0.91314 0.0
H191 H 0.51883 0.48761 0.88716 0.0
H192 H 0.56906 0.35534 0.09035 0.0
H193 H 0.53116 0.39506 0.02815 0.0
C194 C 0.22253 0.66546 0.58589 0.0
C195 C 0.23356 0.62808 0.61514 0.0
C196 C 0.17821 0.64277 0.54998 0.0
C197 C 0.08648 0.51067 0.47475 0.0
H198 H 0.98407 0.57473 0.46446 0.0
C199 C 0.87656 0.40191 0.3554 0.0
C200 C 0.86554 0.43928 0.32615 0.0
C201 C 0.92089 0.4246 0.39131 0.0
C202 C 1.01262 0.5567 0.46654 0.0
H203 H 0.20718 0.53752 0.62884 0.0
H204 H 0.12997 0.49826 0.56675 0.0
H205 H 0.06416 0.61614 0.52431 0.0
H206 H 0.89192 0.52984 0.31244 0.0
H207 H 0.96913 0.56911 0.37453 0.0
H208 H 1.03493 0.45123 0.41698 0.0
C209 C 0.15579 0.54507 0.5712 0.0
C210 C 0.05859 0.58053 0.50076 0.0
C211 C 0.1999 0.56766 0.60708 0.0
C212 C 0.89919 0.49971 0.33421 0.0
C213 C 0.9433 0.5223 0.37009 0.0
C214 C 1.0405 0.48684 0.44053 0.0
C215 C 0.14416 0.58228 0.54243 0.0
C216 C 0.09604 0.55777 0.50528 0.0
C217 C 0.95493 0.48509 0.39886 0.0
C218 C 1.00305 0.50959 0.43601 0.0
H219 H 0.24776 0.71221 0.59097 0.0
H220 H 0.1708 0.67263 0.52795 0.0
H221 H 0.11502 0.49264 0.47682 0.0
H222 H 0.85133 0.35515 0.35032 0.0
H223 H 0.92829 0.39473 0.41334 0.0
loop_
_geom_bond_atom_site_label_1
_geom_bond_atom_site_label_2
_geom_bond_distance
_geom_bond_site_symmetry_2
_ccdc_geom_bond_type
Fe0 O2 1.918 . S
Fe0 O5 1.997 . S
Fe0 O6 2.002 . S
Fe0 O11 1.976 . S
Fe0 O14 1.996 . S
Fe1 O2 1.918 . S
Fe1 O9 1.997 . S
Fe1 O12 1.996 . S
Fe1 O16 1.976 . S
Fe1 O19 2.002 . S
O2 Fe0 1.918 . S
O2 Fe1 1.918 . S
O2 Fe3 1.918 . S
Fe3 O2 1.918 . S
Fe3 O4 2.002 . S
Fe3 O13 1.976 . S
Fe3 O17 1.996 . S
Fe3 O20 1.997 . S
O4 Fe3 2.002 . S
O4 C21 1.295 . S
O5 Fe0 1.997 . S
O5 C21 1.235 . S
O6 Fe0 2.002 . S
O6 C7 1.295 . S
C7 O6 1.295 . S
C7 O9 1.235 . S
C8 O13 1.287 . S
C8 O14 1.255 . S
O9 Fe1 1.997 . S
O9 C7 1.235 . S
C10 O16 1.287 . S
C10 O17 1.255 . S
O11 Fe0 1.976 . S
O11 C18 1.287 . S
O12 Fe1 1.996 . S
O12 C18 1.255 . S
O13 Fe3 1.976 . S
O13 C8 1.287 . S
O14 Fe0 1.996 . S
O14 C8 1.255 . S
C15 O19 1.295 . S
C15 O20 1.235 . S
O16 Fe1 1.976 . S
O16 C10 1.287 . S
O17 Fe3 1.996 . S
O17 C10 1.255 . S
C18 O11 1.287 . S
C18 O12 1.255 . S
O19 Fe1 2.002 . S
O19 C15 1.295 . S
O20 Fe3 1.997 . S
O20 C15 1.235 . S
C21 O4 1.295 . S
C21 O5 1.235 . S
Fe22 O24 1.918 . S
Fe22 O27 1.997 . S
Fe22 O28 2.002 . S
Fe22 O33 1.976 . S
Fe22 O36 1.996 . S
Fe23 O24 1.918 . S
Fe23 O31 1.997 . S
Fe23 O34 1.996 . S
Fe23 O38 1.976 . S
Fe23 O41 2.002 . S
O24 Fe22 1.918 . S
O24 Fe23 1.918 . S
O24 Fe25 1.918 . S
Fe25 O24 1.918 . S
Fe25 O26 2.002 . S
Fe25 O35 1.976 . S
Fe25 O39 1.996 . S
Fe25 O42 1.997 . S
O26 Fe25 2.002 . S
O26 C43 1.295 . S
O27 Fe22 1.997 . S
O27 C43 1.235 . S
O28 Fe22 2.002 . S
O28 C29 1.295 . S
C29 O28 1.295 . S
C29 O31 1.235 . S
C30 O35 1.287 . S
C30 O36 1.255 . S
O31 Fe23 1.997 . S
O31 C29 1.235 . S
C32 O38 1.287 . S
C32 O39 1.255 . S
O33 Fe22 1.976 . S
O33 C40 1.287 . S
O34 Fe23 1.996 . S
O34 C40 1.255 . S
O35 Fe25 1.976 . S
O35 C30 1.287 . S
O36 Fe22 1.996 . S
O36 C30 1.255 . S
C37 O41 1.295 . S
C37 O42 1.235 . S
O38 Fe23 1.976 . S
O38 C32 1.287 . S
O39 Fe25 1.996 . S
O39 C32 1.255 . S
C40 O33 1.287 . S
C40 O34 1.255 . S
O41 Fe23 2.002 . S
O41 C37 1.295 . S
O42 Fe25 1.997 . S
O42 C37 1.235 . S
C43 O26 1.295 . S
C43 O27 1.235 . S
C44 C45 1.349 . S
C44 C46 1.327 . S
C44 H69 0.950 . S
C45 C44 1.349 . S
C45 C61 1.349 . S
C46 C44 1.327 . S
C46 C65 1.429 . S
C46 H70 0.950 . S
C47 C64 1.574 . S
C47 C66 1.368 1_545 S
C47 H71 0.949 . S
H48 C52 0.949 . S
C49 C50 1.349 . S
C49 C51 1.327 . S
C49 H72 0.950 . S
C50 C49 1.349 . S
C50 C62 1.349 . S
C51 C49 1.327 . S
C51 C67 1.429 . S
C51 H73 0.950 . S
C52 H48 0.949 . S
C52 C60 1.574 . S
C52 C68 1.368 1_565 S
H53 C61 0.950 . S
H54 C59 0.950 . S
H55 C60 0.949 . S
H56 C62 0.950 . S
H57 C63 0.950 . S
H58 C64 0.949 . S
C59 H54 0.950 . S
C59 C61 1.327 . S
C59 C65 1.429 . S
C60 C52 1.574 . S
C60 H55 0.949 . S
C60 C66 1.368 1_554 S
C61 C45 1.349 . S
C61 H53 0.950 . S
C61 C59 1.327 . S
C62 C50 1.349 . S
C62 H56 0.950 . S
C62 C63 1.327 . S
C63 H57 0.950 . S
C63 C62 1.327 . S
C63 C67 1.429 . S
C64 C47 1.574 . S
C64 H58 0.949 . S
C64 C68 1.368 1_556 S
C65 C46 1.429 . S
C65 C59 1.429 . S
C65 C66 1.523 . S
C66 C47 1.368 1_565 S
C66 C60 1.368 1_556 S
C66 C65 1.523 . S
C67 C51 1.429 . S
C67 C63 1.429 . S
C67 C68 1.523 . S
C68 C52 1.368 1_545 S
C68 C64 1.368 1_554 S
C68 C67 1.523 . S
H69 C44 0.950 . S
H70 C46 0.950 . S
H71 C47 0.949 . S
H72 C49 0.950 . S
H73 C51 0.950 . S
C74 C75 1.349 . S
C74 C76 1.327 . S
C74 H99 0.950 . S
C75 C74 1.349 . S
C75 C91 1.349 . S
C76 C74 1.327 . S
C76 C95 1.429 . S
C76 H100 0.950 . S
C77 C94 1.574 . S
C77 C96 1.368 . S
C77 H101 0.949 . S
H78 C82 0.949 . S
C79 C80 1.349 . S
C79 C81 1.327 . S
C79 H102 0.950 . S
C80 C79 1.349 . S
C80 C92 1.349 . S
C81 C79 1.327 . S
C81 C97 1.429 . S
C81 H103 0.950 . S
C82 H78 0.949 . S
C82 C90 1.574 . S
C82 C98 1.368 . S
H83 C91 0.950 . S
H84 C89 0.950 . S
H85 C90 0.949 . S
H86 C92 0.950 . S
H87 C93 0.950 . S
H88 C94 0.949 . S
C89 H84 0.950 . S
C89 C91 1.327 . S
C89 C95 1.429 . S
C90 C82 1.574 . S
C90 H85 0.949 . S
C90 C96 1.368 . S
C91 C75 1.349 . S
C91 H83 0.950 . S
C91 C89 1.327 . S
C92 C80 1.349 . S
C92 H86 0.950 . S
C92 C93 1.327 . S
C93 H87 0.950 . S
C93 C92 1.327 . S
C93 C97 1.429 . S
C94 C77 1.574 . S
C94 H88 0.949 . S
C94 C98 1.368 . S
C95 C76 1.429 . S
C95 C89 1.429 . S
C95 C96 1.523 . S
C96 C77 1.368 . S
C96 C90 1.368 . S
C96 C95 1.523 . S
C97 C81 1.429 . S
C97 C93 1.429 . S
C97 C98 1.523 . S
C98 C82 1.368 . S
C98 C94 1.368 . S
C98 C97 1.523 . S
H99 C74 0.950 . S
H100 C76 0.950 . S
H101 C77 0.949 . S
H102 C79 0.950 . S
H103 C81 0.950 . S
C104 C105 1.349 . S
C104 C106 1.327 . S
C104 H129 0.950 . S
C105 C104 1.349 . S
C105 C121 1.349 . S
C106 C104 1.327 . S
C106 C125 1.429 . S
C106 H130 0.950 . S
C107 C124 1.574 1_655 S
C107 C126 1.368 . S
C107 H131 0.949 . S
H108 C112 0.949 . S
C109 C110 1.349 . S
C109 C111 1.327 . S
C109 H132 0.950 . S
C110 C109 1.349 . S
C110 C122 1.349 . S
C111 C109 1.327 . S
C111 C127 1.429 . S
C111 H133 0.950 . S
C112 H108 0.949 . S
C112 C120 1.574 1_455 S
C112 C128 1.368 . S
H113 C121 0.950 . S
H114 C119 0.950 . S
H115 C120 0.949 . S
H116 C122 0.950 . S
H117 C123 0.950 . S
H118 C124 0.949 . S
C119 H114 0.950 . S
C119 C121 1.327 . S
C119 C125 1.429 . S
C120 C112 1.574 1_655 S
C120 H115 0.949 . S
C120 C126 1.368 1_556 S
C121 C105 1.349 . S
C121 H113 0.950 . S
C121 C119 1.327 . S
C122 C110 1.349 . S
C122 H116 0.950 . S
C122 C123 1.327 . S
C123 H117 0.950 . S
C123 C122 1.327 . S
C123 C127 1.429 . S
C124 C107 1.574 1_455 S
C124 H118 0.949 . S
C124 C128 1.368 1_554 S
C125 C106 1.429 . S
C125 C119 1.429 . S
C125 C126 1.523 . S
C126 C107 1.368 . S
C126 C120 1.368 1_554 S
C126 C125 1.523 . S
C127 C111 1.429 . S
C127 C123 1.429 . S
C127 C128 1.523 . S
C128 C112 1.368 . S
C128 C124 1.368 1_556 S
C128 C127 1.523 . S
H129 C104 0.950 . S
H130 C106 0.950 . S
H131 C107 0.949 . S
H132 C109 0.950 . S
H133 C111 0.950 . S
C134 C135 1.349 . S
C134 C136 1.327 . S
C134 H159 0.950 . S
C135 C134 1.349 . S
C135 C151 1.349 . S
C136 C134 1.327 . S
C136 C155 1.429 . S
C136 H160 0.950 . S
C137 C154 1.574 1_565 S
C137 C156 1.368 . S
C137 H161 0.949 . S
H138 C142 0.949 . S
C139 C140 1.349 . S
C139 C141 1.327 . S
C139 H162 0.950 . S
C140 C139 1.349 . S
C140 C152 1.349 . S
C141 C139 1.327 . S
C141 C157 1.429 . S
C141 H163 0.950 . S
C142 H138 0.949 . S
C142 C150 1.574 1_545 S
C142 C158 1.368 . S
H143 C151 0.950 . S
H144 C149 0.950 . S
H145 C150 0.949 . S
H146 C152 0.950 . S
H147 C153 0.950 . S
H148 C154 0.949 . S
C149 H144 0.950 . S
C149 C151 1.327 . S
C149 C155 1.429 . S
C150 C142 1.574 1_565 S
C150 H145 0.949 . S
C150 C156 1.368 . S
C151 C135 1.349 . S
C151 H143 0.950 . S
C151 C149 1.327 . S
C152 C140 1.349 . S
C152 H146 0.950 . S
C152 C153 1.327 . S
C153 H147 0.950 . S
C153 C152 1.327 . S
C153 C157 1.429 . S
C154 C137 1.574 1_545 S
C154 H148 0.949 . S
C154 C158 1.368 . S
C155 C136 1.429 . S
C155 C149 1.429 . S
C155 C156 1.523 . S
C156 C137 1.368 . S
C156 C150 1.368 . S
C156 C155 1.523 . S
C157 C141 1.429 . S
C157 C153 1.429 . S
C157 C158 1.523 . S
C158 C142 1.368 . S
C158 C154 1.368 . S
C158 C157 1.523 . S
H159 C134 0.950 . S
H160 C136 0.950 . S
H161 C137 0.949 . S
H162 C139 0.950 . S
H163 C141 0.950 . S
C164 C165 1.349 . S
C164 C166 1.327 . S
C164 H189 0.950 . S
C165 C164 1.349 . S
C165 C181 1.349 . S
C166 C164 1.327 . S
C166 C185 1.429 . S
C166 H190 0.950 . S
C167 C184 1.574 . S
C167 C186 1.368 . S
C167 H191 0.949 . S
H168 C172 0.949 . S
C169 C170 1.349 . S
C169 C171 1.327 . S
C169 H192 0.950 . S
C170 C169 1.349 . S
C170 C182 1.349 . S
C171 C169 1.327 . S
C171 C187 1.429 . S
C171 H193 0.950 . S
C172 H168 0.949 . S
C172 C180 1.574 . S
C172 C188 1.368 . S
H173 C181 0.950 . S
H174 C179 0.950 . S
H175 C180 0.949 . S
H176 C182 0.950 . S
H177 C183 0.950 . S
H178 C184 0.949 . S
C179 H174 0.950 . S
C179 C181 1.327 . S
C179 C185 1.429 . S
C180 C172 1.574 . S
C180 H175 0.949 . S
C180 C186 1.368 1_554 S
C181 C165 1.349 . S
C181 H173 0.950 . S
C181 C179 1.327 . S
C182 C170 1.349 . S
C182 H176 0.950 . S
C182 C183 1.327 . S
C183 H177 0.950 . S
C183 C182 1.327 . S
C183 C187 1.429 . S
C184 C167 1.574 . S
C184 H178 0.949 . S
C184 C188 1.368 1_556 S
C185 C166 1.429 . S
C185 C179 1.429 . S
C185 C186 1.523 . S
C186 C167 1.368 . S
C186 C180 1.368 1_556 S
C186 C185 1.523 . S
C187 C171 1.429 . S
C187 C183 1.429 . S
C187 C188 1.523 . S
C188 C172 1.368 . S
C188 C184 1.368 1_554 S
C188 C187 1.523 . S
H189 C164 0.950 . S
H190 C166 0.950 . S
H191 C167 0.949 . S
H192 C169 0.950 . S
H193 C171 0.950 . S
C194 C195 1.349 . S
C194 C196 1.327 . S
C194 H219 0.950 . S
C195 C194 1.349 . S
C195 C211 1.349 . S
C196 C194 1.327 . S
C196 C215 1.429 . S
C196 H220 0.950 . S
C197 C214 1.591 . S
C197 C216 1.368 . S
C197 H221 0.949 . S
H198 C202 0.949 . S
C199 C200 1.349 . S
C199 C201 1.327 . S
C199 H222 0.950 . S
C200 C199 1.349 . S
C200 C212 1.349 . S
C201 C199 1.327 . S
C201 C217 1.429 . S
C201 H223 0.950 . S
C202 H198 0.949 . S
C202 C210 1.574 . S
C202 C218 1.368 . S
H203 C211 0.950 . S
H204 C209 0.950 . S
H205 C210 0.949 . S
H206 C212 0.950 . S
H207 C213 0.950 . S
H208 C214 0.954 . S
C209 H204 0.950 . S
C209 C211 1.327 . S
C209 C215 1.429 . S
C210 C202 1.574 . S
C210 H205 0.949 . S
C210 C216 1.368 1_655 S
C211 C195 1.349 . S
C211 H203 0.950 . S
C211 C209 1.327 . S
C212 C200 1.349 . S
C212 H206 0.950 . S
C212 C213 1.327 . S
C213 H207 0.950 . S
C213 C212 1.327 . S
C213 C217 1.429 . S
C214 C197 1.591 . S
C214 H208 0.954 . S
C214 C218 1.347 1_455 S
C215 C196 1.429 . S
C215 C209 1.429 . S
C215 C216 1.523 . S
C216 C197 1.368 . S
C216 C210 1.368 1_455 S
C216 C215 1.523 . S
C217 C201 1.429 . S
C217 C213 1.429 . S
C217 C218 1.523 . S
C218 C202 1.368 . S
C218 C214 1.347 1_655 S
C218 C217 1.523 . S
H219 C194 0.950 . S
H220 C196 0.950 . S
H221 C197 0.949 . S
H222 C199 0.950 . S
H223 C201 0.950 . S
C45 C29 1.488 . S
C50 C18 1.498 . S
C75 C30 1.498 . S
C80 C21 1.488 . S
C105 C10 1.498 . S
C110 C37 1.488 . S
C135 C40 1.498 . S
C140 C7 1.488 . S
C165 C43 1.488 . S
C170 C8 1.498 . S
C195 C32 1.498 . S
C200 C15 1.488 . S
