# Generated by pormake.
# Topology rob, (6)-cn, num edge types: 1
# Building blocks:
#     Node 0, Type 0, BuildingBlock: FUNLAD_clean_sbu_0, # of connection points: 6
#     Node 1, Type 0, BuildingBlock: FUNLAD_clean_sbu_0, # of connection points: 6
#     Node 2, Type 0, BuildingBlock: FUNLAD_clean_sbu_0, # of connection points: 6
#     Node 3, Type 0, BuildingBlock: FUNLAD_clean_sbu_0, # of connection points: 6
#     Edge 4, Type (0, 0), BuildingBlock: OJICUG_clean_linker_0, # of connection points: 2
#     Edge 5, Type (0, 0), BuildingBlock: OJICUG_clean_linker_0, # of connection points: 2
#     Edge 6, Type (0, 0), BuildingBlock: OJICUG_clean_linker_0, # of connection points: 2
#     Edge 7, Type (0, 0), BuildingBlock: OJICUG_clean_linker_0, # of connection points: 2
#     Edge 8, Type (0, 0), BuildingBlock: OJICUG_clean_linker_0, # of connection points: 2
#     Edge 9, Type (0, 0), BuildingBlock: OJICUG_clean_linker_0, # of connection points: 2
#     Edge 10, Type (0, 0), BuildingBlock: OJICUG_clean_linker_0, # of connection points: 2
#     Edge 11, Type (0, 0), BuildingBlock: OJICUG_clean_linker_0, # of connection points: 2
#     Edge 12, Type (0, 0), BuildingBlock: OJICUG_clean_linker_0, # of connection points: 2
#     Edge 13, Type (0, 0), BuildingBlock: OJICUG_clean_linker_0, # of connection points: 2
#     Edge 14, Type (0, 0), BuildingBlock: OJICUG_clean_linker_0, # of connection points: 2
#     Edge 15, Type (0, 0), BuildingBlock: OJICUG_clean_linker_0, # of connection points: 2
# Relax obj value: 0.103
# Max RMSD: 0.146
# Mean RMSD: 0.146
data_MOF--net-rob--node1-FUNLAD_clean_sbu_0--edge1-OJICUG_clean_linker_0
_symmetry_space_group_name_H-M    P1
_symmetry_Int_Tables_number       1
_symmetry_cell_setting            triclinic
loop_
_symmetry_equiv_pos_as_xyz
'x, y, z'
_cell_length_a     12.698509
_cell_length_b     32.938201
_cell_length_c     16.768247
_cell_angle_alpha  93.516836
_cell_angle_beta   89.982045
_cell_angle_gamma 90.011408
loop_
_atom_site_label
_atom_site_type_symbol
_atom_site_fract_x
_atom_site_fract_y
_atom_site_fract_z
_atom_type_partial_charge
C0 C 0.2756 0.25987 0.84376 0.0
N1 N 0.2791 0.36739 0.99062 0.0
C2 C 0.37777 0.37286 0.96146 0.0
C3 C 0.42117 0.41177 0.96105 0.0
C4 C 0.3627 0.4455 0.99114 0.0
C5 C 0.26048 0.43903 0.02001 0.0
C6 C 0.21997 0.39954 0.0191 0.0
Zn7 Zn 0.22388 0.30922 0.99523 0.0
C8 C 0.01649 0.29612 0.93036 0.0
N9 N 0.13083 0.18502 0.00245 0.0
C10 C 0.1899 0.15285 0.97398 0.0
C11 C 0.03218 0.17958 0.03166 0.0
C12 C -0.01126 0.14068 0.03215 0.0
C13 C 0.04714 0.10693 0.00209 0.0
C14 C 0.14934 0.11337 0.97315 0.0
Zn15 Zn 0.1861 0.24319 -0.00218 0.0
O16 O 0.27803 0.29522 0.87855 0.0
C17 C 0.39349 0.2563 0.06268 0.0
O18 O 0.24301 0.22997 0.88114 0.0
H19 H -0.01379 0.20557 0.05353 0.0
H20 H 0.42379 0.34689 0.93958 0.0
H21 H 0.26816 0.15786 0.95108 0.0
O22 O 0.36842 0.29194 0.04456 0.0
O23 O 0.33029 0.22704 0.04689 0.0
H24 H 0.1417 0.39451 0.04196 0.0
O25 O 0.13195 0.25719 0.1145 0.0
O26 O 0.16698 0.32245 0.1119 0.0
O27 O 0.04156 0.26047 0.94847 0.0
O28 O 0.0797 0.32537 0.94617 0.0
C29 C 0.13439 0.29254 0.14929 0.0
H30 H 0.50071 0.41524 0.93916 0.0
H31 H 0.21217 0.46423 0.04286 0.0
H32 H 0.90921 0.13724 0.05408 0.0
H33 H 0.19761 0.08816 0.95031 0.0
C34 C 0.77537 0.75989 0.84417 0.0
N35 N 0.77901 0.86741 0.991 0.0
C36 C 0.87768 0.87284 0.96181 0.0
C37 C 0.92117 0.91173 0.96133 0.0
C38 C 0.8628 0.94549 0.9914 0.0
C39 C 0.76059 0.93907 0.02032 0.0
C40 C 0.71998 0.89959 0.01947 0.0
Zn41 Zn 0.72367 0.80926 0.99563 0.0
C42 C 0.51628 0.79618 0.93074 0.0
N43 N 0.63052 0.68507 0.00283 0.0
C44 C 0.68961 0.65291 0.97435 0.0
C45 C 0.53183 0.67962 0.03198 0.0
C46 C 0.48839 0.64072 0.03237 0.0
C47 C 0.54682 0.60697 0.00228 0.0
C48 C 0.64905 0.61343 0.97343 0.0
Zn49 Zn 0.68582 0.74323 -0.00177 0.0
O50 O 0.77783 0.79524 0.87895 0.0
C51 C 0.8932 0.7563 0.06311 0.0
O52 O 0.74274 0.72999 0.88156 0.0
H53 H 0.48585 0.7056 0.05386 0.0
H54 H 0.92362 0.84685 0.93994 0.0
H55 H 0.7679 0.65793 0.9515 0.0
O56 O 0.86818 0.79195 0.04499 0.0
O57 O 0.82997 0.72706 0.04731 0.0
H58 H 0.6417 0.89459 0.04236 0.0
O59 O 0.63165 0.75724 0.11489 0.0
O60 O 0.66674 0.82249 0.1123 0.0
O61 O 0.54132 0.76054 0.94887 0.0
O62 O 0.57951 0.82543 0.94654 0.0
C63 C 0.63411 0.79259 0.14968 0.0
H64 H 0.00071 0.91516 0.93941 0.0
H65 H 0.71235 0.96429 0.04315 0.0
H66 H 0.40883 0.63726 0.05424 0.0
H67 H 0.69734 0.58823 0.95057 0.0
C68 C 0.27533 0.7925 0.6497 0.0
N69 N 0.27905 0.68503 0.50266 0.0
C70 C 0.37771 0.67961 0.53182 0.0
C71 C 0.42119 0.64072 0.53224 0.0
C72 C 0.36283 0.60696 0.50215 0.0
C73 C 0.26063 0.61338 0.47325 0.0
C74 C 0.22003 0.65286 0.47415 0.0
Zn75 Zn 0.22368 0.7432 0.49816 0.0
C76 C 0.01626 0.7562 0.56306 0.0
N77 N 0.13045 0.86739 0.49118 0.0
C78 C 0.1895 0.89956 0.51964 0.0
C79 C 0.0318 0.87282 0.462 0.0
C80 C -0.01163 0.91171 0.4615 0.0
C81 C 0.04677 0.94548 0.49153 0.0
C82 C 0.14895 0.93905 0.52046 0.0
Zn83 Zn 0.18581 0.80923 0.4957 0.0
O84 O 0.2778 0.75717 0.61485 0.0
C85 C 0.39323 0.79623 0.43079 0.0
O86 O 0.24268 0.82242 0.61238 0.0
H87 H -0.01415 0.84682 0.44013 0.0
H88 H 0.42364 0.7056 0.55372 0.0
H89 H 0.26776 0.89457 0.54251 0.0
O90 O 0.36819 0.76057 0.44883 0.0
O91 O 0.32997 0.82545 0.44664 0.0
H92 H 0.14177 0.65785 0.45129 0.0
O93 O 0.1317 0.79526 0.37901 0.0
O94 O 0.16679 0.73001 0.38146 0.0
O95 O 0.0413 0.79186 0.54501 0.0
O96 O 0.07951 0.72697 0.54723 0.0
C97 C 0.13416 0.75993 0.34415 0.0
H98 H 0.50071 0.63729 0.55414 0.0
H99 H 0.2124 0.58816 0.4504 0.0
H100 H 0.90886 0.91514 0.43958 0.0
H101 H 0.19721 0.96426 0.54328 0.0
C102 C 0.77557 0.2925 0.6493 0.0
N103 N 0.7792 0.18505 0.50224 0.0
C104 C 0.87784 0.17961 0.53143 0.0
C105 C 0.92124 0.14071 0.53192 0.0
C106 C 0.86282 0.10695 0.50189 0.0
C107 C 0.76065 0.11339 0.47295 0.0
C108 C 0.72013 0.15288 0.47377 0.0
Zn109 Zn 0.7239 0.24322 0.49774 0.0
C110 C 0.51648 0.25624 0.56264 0.0
N111 N 0.63078 0.36743 0.49082 0.0
C112 C 0.68983 0.39959 0.51933 0.0
C113 C 0.53213 0.37287 0.46164 0.0
C114 C 0.48869 0.41176 0.46122 0.0
C115 C 0.54708 0.44552 0.49131 0.0
C116 C 0.64927 0.43908 0.52022 0.0
Zn117 Zn 0.68609 0.30925 0.4953 0.0
O118 O 0.778 0.25717 0.61443 0.0
C119 C 0.89351 0.29623 0.43041 0.0
O120 O 0.74297 0.32242 0.612 0.0
H121 H 0.48618 0.34688 0.43974 0.0
H122 H 0.92381 0.2056 0.55331 0.0
H123 H 0.76808 0.39459 0.5422 0.0
O124 O 0.86844 0.26057 0.44844 0.0
O125 O 0.83028 0.32546 0.44625 0.0
H126 H 0.64189 0.15789 0.45089 0.0
O127 O 0.63198 0.2953 0.3786 0.0
O128 O 0.66704 0.23005 0.38105 0.0
O129 O 0.54155 0.2919 0.54462 0.0
O130 O 0.57972 0.22701 0.54678 0.0
C131 C 0.63443 0.25997 0.34374 0.0
H132 H 0.00075 0.13727 0.55386 0.0
H133 H 0.71238 0.08818 0.45013 0.0
H134 H 0.40918 0.4152 0.43931 0.0
H135 H 0.69752 0.46429 0.54308 0.0
C136 C 0.43939 0.55292 0.06375 0.0
C137 C 0.50039 0.56548 -0.00028 0.0
H138 H 0.34924 0.50519 0.11166 0.0
C139 C 0.5152 0.53834 0.93264 0.0
H140 H 0.42764 0.57288 0.11677 0.0
C141 C 0.47007 0.49957 0.92964 0.0
C142 C 0.40908 0.48701 0.99368 0.0
H143 H 0.56022 0.5473 0.88173 0.0
H144 H 0.48182 0.47961 0.87662 0.0
C145 C 0.39425 0.51415 0.06076 0.0
C146 C 0.39455 0.53829 0.43264 0.0
C147 C 0.40929 0.56547 0.49968 0.0
H148 H 0.42803 0.47955 0.37673 0.0
C149 C 0.47024 0.55295 0.56373 0.0
H150 H 0.34957 0.54721 0.38171 0.0
C151 C 0.51541 0.51419 0.56081 0.0
C152 C 0.50066 0.48701 0.49378 0.0
H153 H 0.48193 0.57294 0.61672 0.0
H154 H 0.56039 0.50527 0.61174 0.0
C155 C 0.43971 0.49953 0.42972 0.0
C156 C 0.01544 0.03825 0.93263 0.0
C157 C 0.00071 0.06543 -0.00034 0.0
H158 H -0.01808 0.9795 0.87676 0.0
C159 C 0.93975 0.05292 0.06376 0.0
H160 H 0.06043 0.04717 0.88168 0.0
C161 C 0.89456 1.01416 0.06087 0.0
C162 C 0.90928 0.98698 0.99383 0.0
H163 H 0.92807 0.07291 0.11674 0.0
H164 H 0.84957 1.00524 0.11182 0.0
C165 C -0.02975 0.99949 0.92974 0.0
C166 C 0.89442 0.03823 0.43257 0.0
C167 C 0.90917 0.06545 0.49954 0.0
H168 H 0.92782 0.97945 0.37682 0.0
C169 C -0.02995 0.05296 0.56366 0.0
H170 H 0.8495 0.04714 0.38159 0.0
C171 C 0.01514 1.01419 0.56086 0.0
C172 C 0.00039 0.98697 0.49388 0.0
H173 H -0.01826 0.07297 0.61661 0.0
H174 H 0.06006 1.00528 0.61183 0.0
C175 C 0.93951 0.99946 0.42977 0.0
C176 C 0.59965 0.2872 0.21206 0.0
C177 C 0.59599 0.25435 0.26136 0.0
H178 H 0.54191 0.31268 0.10682 0.0
C179 C 0.54581 0.21818 0.23407 0.0
H180 H 0.64049 0.31504 0.231 0.0
C181 C 0.48847 0.21683 0.16281 0.0
C182 C 0.48173 0.25158 0.11829 0.0
H183 H 0.54342 0.19226 0.27081 0.0
H184 H 0.44204 0.18998 0.14671 0.0
C185 C 0.54388 0.28568 0.14062 0.0
C186 C 0.5996 0.76544 0.28148 0.0
C187 C 0.59572 0.79824 0.23208 0.0
H188 H 0.54202 0.73999 0.38682 0.0
C189 C 0.54537 0.83438 0.25929 0.0
H190 H 0.64059 0.73763 0.26259 0.0
C191 C 0.48804 0.83573 0.33058 0.0
C192 C 0.48148 0.801 0.37519 0.0
H193 H 0.54281 0.86027 0.22247 0.0
H194 H 0.44145 0.86255 0.34662 0.0
C195 C 0.54384 0.76696 0.35294 0.0
C196 C 0.42136 0.83565 0.83058 0.0
C197 C 0.42806 0.8009 0.87513 0.0
H198 H 0.36645 0.8602 0.72257 0.0
C199 C 0.36585 0.76682 0.85283 0.0
H200 H 0.46784 0.86249 0.84667 0.0
C201 C 0.31006 0.7653 0.78141 0.0
C202 C 0.31377 0.79813 0.73208 0.0
H203 H 0.36777 0.73984 0.88668 0.0
H204 H 0.26917 0.73747 0.76249 0.0
C205 C 0.36401 0.83429 0.75933 0.0
C206 C 0.42164 0.21674 0.66284 0.0
C207 C 0.42823 0.25147 0.61824 0.0
H208 H 0.36685 0.19219 0.77093 0.0
C209 C 0.36591 0.28553 0.64052 0.0
H210 H 0.4682 0.18992 0.64677 0.0
C211 C 0.31015 0.28704 0.71197 0.0
C212 C 0.31399 0.25423 0.76135 0.0
H213 H 0.36775 0.3125 0.60663 0.0
H214 H 0.26919 0.31485 0.73087 0.0
C215 C 0.36431 0.21809 0.73412 0.0
C216 C -0.0119 0.71682 0.16326 0.0
C217 C -0.01858 0.75157 0.11873 0.0
H218 H 0.04301 0.69224 0.27125 0.0
C219 C 0.04364 0.78565 0.14104 0.0
H220 H 0.94162 0.68998 0.14716 0.0
C221 C 0.09944 0.78715 0.21246 0.0
C222 C 0.09572 0.75431 0.26177 0.0
H223 H 0.04173 0.81263 0.10722 0.0
H224 H 0.14033 0.81498 0.23139 0.0
C225 C 0.04547 0.71816 0.2345 0.0
C226 C -0.01163 0.33571 0.33019 0.0
C227 C -0.01822 0.30099 0.37481 0.0
H228 H 0.04316 0.36023 0.22209 0.0
C229 C 0.04408 0.26693 0.35255 0.0
H230 H 0.94182 0.36253 0.34625 0.0
C231 C 0.09984 0.2654 0.28109 0.0
C232 C 0.096 0.2982 0.23169 0.0
H233 H 0.04223 0.23996 0.38645 0.0
H234 H 0.14079 0.23758 0.2622 0.0
C235 C 0.0457 0.33435 0.25891 0.0
C236 C 0.86418 0.33427 0.759 0.0
C237 C 0.814 0.2981 0.73169 0.0
H238 H -0.03205 0.36246 0.84637 0.0
C239 C 0.81035 0.26525 0.78097 0.0
H240 H 0.86657 0.36019 0.72227 0.0
C241 C 0.86612 0.26675 0.8524 0.0
C242 C 0.92826 0.30085 0.87476 0.0
H243 H 0.7695 0.23741 0.76201 0.0
H244 H 0.86809 0.23975 0.88619 0.0
C245 C 0.92151 0.33561 0.83026 0.0
C246 C 0.92144 0.71672 0.6633 0.0
C247 C 0.928 0.75144 0.61866 0.0
H248 H 0.86666 0.6922 0.77142 0.0
C249 C 0.86566 0.78549 0.6409 0.0
H250 H -0.03198 0.6899 0.64726 0.0
C251 C 0.80989 0.78702 0.71235 0.0
C252 C 0.81376 0.75423 0.76177 0.0
H253 H 0.86748 0.81245 0.60698 0.0
H254 H 0.76891 0.81483 0.73123 0.0
C255 C 0.8641 0.71808 0.73458 0.0
loop_
_geom_bond_atom_site_label_1
_geom_bond_atom_site_label_2
_geom_bond_distance
_geom_bond_site_symmetry_2
_ccdc_geom_bond_type
C0 O16 1.251 . S
C0 O18 1.254 . S
N1 C2 1.333 1_554 S
N1 C6 1.307 . S
N1 Zn7 2.020 . S
C2 N1 1.333 1_556 S
C2 C3 1.379 . S
C2 H20 0.952 . S
C3 C2 1.379 . S
C3 C4 1.390 1_556 S
C3 H30 0.949 . S
C4 C3 1.390 1_554 S
C4 C5 1.357 . S
C5 C4 1.357 . S
C5 C6 1.370 . S
C5 H31 0.950 . S
C6 N1 1.307 . S
C6 C5 1.370 . S
C6 H24 0.948 . S
Zn7 N1 2.020 . S
Zn7 O16 2.039 1_554 S
Zn7 O22 2.034 . S
Zn7 O26 2.025 . S
Zn7 O28 2.024 1_554 S
C8 O27 1.246 . S
C8 O28 1.249 . S
N9 C10 1.307 . S
N9 C11 1.333 1_556 S
N9 Zn15 2.020 . S
C10 N9 1.307 . S
C10 C14 1.370 . S
C10 H21 0.948 . S
C11 N9 1.333 1_554 S
C11 C12 1.379 . S
C11 H19 0.952 . S
C12 C11 1.379 . S
C12 C13 1.390 1_554 S
C12 H32 0.949 1_455 S
C13 C12 1.390 1_556 S
C13 C14 1.357 . S
C14 C10 1.370 . S
C14 C13 1.357 . S
C14 H33 0.950 . S
Zn15 N9 2.020 . S
Zn15 O18 2.025 . S
Zn15 O23 2.024 1_556 S
Zn15 O25 2.039 1_556 S
Zn15 O27 2.034 . S
O16 C0 1.251 . S
O16 Zn7 2.039 1_556 S
C17 O22 1.246 . S
C17 O23 1.249 . S
O18 C0 1.254 . S
O18 Zn15 2.025 . S
H19 C11 0.952 . S
H20 C2 0.952 . S
H21 C10 0.948 . S
O22 Zn7 2.034 . S
O22 C17 1.246 . S
O23 Zn15 2.024 1_554 S
O23 C17 1.249 . S
H24 C6 0.948 . S
O25 Zn15 2.039 1_554 S
O25 C29 1.251 . S
O26 Zn7 2.025 . S
O26 C29 1.254 . S
O27 C8 1.246 . S
O27 Zn15 2.034 . S
O28 Zn7 2.024 1_556 S
O28 C8 1.249 . S
C29 O25 1.251 . S
C29 O26 1.254 . S
H30 C3 0.949 . S
H31 C5 0.950 . S
H32 C12 0.949 1_655 S
H33 C14 0.950 . S
C34 O50 1.251 . S
C34 O52 1.254 . S
N35 C36 1.333 1_554 S
N35 C40 1.307 . S
N35 Zn41 2.020 . S
C36 N35 1.333 1_556 S
C36 C37 1.379 . S
C36 H54 0.952 . S
C37 C36 1.379 . S
C37 C38 1.390 1_556 S
C37 H64 0.949 1_655 S
C38 C37 1.390 1_554 S
C38 C39 1.357 . S
C39 C38 1.357 . S
C39 C40 1.370 . S
C39 H65 0.950 . S
C40 N35 1.307 . S
C40 C39 1.370 . S
C40 H58 0.948 . S
Zn41 N35 2.020 . S
Zn41 O50 2.039 1_554 S
Zn41 O56 2.034 . S
Zn41 O60 2.025 . S
Zn41 O62 2.024 1_554 S
C42 O61 1.246 . S
C42 O62 1.249 . S
N43 C44 1.307 . S
N43 C45 1.333 1_556 S
N43 Zn49 2.020 . S
C44 N43 1.307 . S
C44 C48 1.370 . S
C44 H55 0.948 . S
C45 N43 1.333 1_554 S
C45 C46 1.379 . S
C45 H53 0.952 . S
C46 C45 1.379 . S
C46 C47 1.390 1_554 S
C46 H66 0.949 . S
C47 C46 1.390 1_556 S
C47 C48 1.357 . S
C48 C44 1.370 . S
C48 C47 1.357 . S
C48 H67 0.950 . S
Zn49 N43 2.020 . S
Zn49 O52 2.025 . S
Zn49 O57 2.024 1_556 S
Zn49 O59 2.039 1_556 S
Zn49 O61 2.034 . S
O50 C34 1.251 . S
O50 Zn41 2.039 1_556 S
C51 O56 1.246 . S
C51 O57 1.249 . S
O52 C34 1.254 . S
O52 Zn49 2.025 . S
H53 C45 0.952 . S
H54 C36 0.952 . S
H55 C44 0.948 . S
O56 Zn41 2.034 . S
O56 C51 1.246 . S
O57 Zn49 2.024 1_554 S
O57 C51 1.249 . S
H58 C40 0.948 . S
O59 Zn49 2.039 1_554 S
O59 C63 1.251 . S
O60 Zn41 2.025 . S
O60 C63 1.254 . S
O61 C42 1.246 . S
O61 Zn49 2.034 . S
O62 Zn41 2.024 1_556 S
O62 C42 1.249 . S
C63 O59 1.251 . S
C63 O60 1.254 . S
H64 C37 0.949 1_455 S
H65 C39 0.950 . S
H66 C46 0.949 . S
H67 C48 0.950 . S
C68 O84 1.251 . S
C68 O86 1.254 . S
N69 C70 1.333 . S
N69 C74 1.307 . S
N69 Zn75 2.020 . S
C70 N69 1.333 . S
C70 C71 1.379 . S
C70 H88 0.952 . S
C71 C70 1.379 . S
C71 C72 1.390 . S
C71 H98 0.949 . S
C72 C71 1.390 . S
C72 C73 1.357 . S
C73 C72 1.357 . S
C73 C74 1.370 . S
C73 H99 0.950 . S
C74 N69 1.307 . S
C74 C73 1.370 . S
C74 H92 0.948 . S
Zn75 N69 2.020 . S
Zn75 O84 2.039 . S
Zn75 O90 2.034 . S
Zn75 O94 2.025 . S
Zn75 O96 2.024 . S
C76 O95 1.246 . S
C76 O96 1.249 . S
N77 C78 1.307 . S
N77 C79 1.333 . S
N77 Zn83 2.020 . S
C78 N77 1.307 . S
C78 C82 1.370 . S
C78 H89 0.948 . S
C79 N77 1.333 . S
C79 C80 1.379 . S
C79 H87 0.952 . S
C80 C79 1.379 . S
C80 C81 1.390 . S
C80 H100 0.949 1_455 S
C81 C80 1.390 . S
C81 C82 1.357 . S
C82 C78 1.370 . S
C82 C81 1.357 . S
C82 H101 0.950 . S
Zn83 N77 2.020 . S
Zn83 O86 2.025 . S
Zn83 O91 2.024 . S
Zn83 O93 2.039 . S
Zn83 O95 2.034 . S
O84 C68 1.251 . S
O84 Zn75 2.039 . S
C85 O90 1.246 . S
C85 O91 1.249 . S
O86 C68 1.254 . S
O86 Zn83 2.025 . S
H87 C79 0.952 . S
H88 C70 0.952 . S
H89 C78 0.948 . S
O90 Zn75 2.034 . S
O90 C85 1.246 . S
O91 Zn83 2.024 . S
O91 C85 1.249 . S
H92 C74 0.948 . S
O93 Zn83 2.039 . S
O93 C97 1.251 . S
O94 Zn75 2.025 . S
O94 C97 1.254 . S
O95 C76 1.246 . S
O95 Zn83 2.034 . S
O96 Zn75 2.024 . S
O96 C76 1.249 . S
C97 O93 1.251 . S
C97 O94 1.254 . S
H98 C71 0.949 . S
H99 C73 0.950 . S
H100 C80 0.949 1_655 S
H101 C82 0.950 . S
C102 O118 1.251 . S
C102 O120 1.254 . S
N103 C104 1.333 . S
N103 C108 1.307 . S
N103 Zn109 2.020 . S
C104 N103 1.333 . S
C104 C105 1.379 . S
C104 H122 0.952 . S
C105 C104 1.379 . S
C105 C106 1.390 . S
C105 H132 0.949 1_655 S
C106 C105 1.390 . S
C106 C107 1.357 . S
C107 C106 1.357 . S
C107 C108 1.370 . S
C107 H133 0.950 . S
C108 N103 1.307 . S
C108 C107 1.370 . S
C108 H126 0.948 . S
Zn109 N103 2.020 . S
Zn109 O118 2.039 . S
Zn109 O124 2.034 . S
Zn109 O128 2.025 . S
Zn109 O130 2.024 . S
C110 O129 1.246 . S
C110 O130 1.249 . S
N111 C112 1.307 . S
N111 C113 1.333 . S
N111 Zn117 2.020 . S
C112 N111 1.307 . S
C112 C116 1.370 . S
C112 H123 0.948 . S
C113 N111 1.333 . S
C113 C114 1.379 . S
C113 H121 0.952 . S
C114 C113 1.379 . S
C114 C115 1.390 . S
C114 H134 0.949 . S
C115 C114 1.390 . S
C115 C116 1.357 . S
C116 C112 1.370 . S
C116 C115 1.357 . S
C116 H135 0.950 . S
Zn117 N111 2.020 . S
Zn117 O120 2.025 . S
Zn117 O125 2.024 . S
Zn117 O127 2.039 . S
Zn117 O129 2.034 . S
O118 C102 1.251 . S
O118 Zn109 2.039 . S
C119 O124 1.246 . S
C119 O125 1.249 . S
O120 C102 1.254 . S
O120 Zn117 2.025 . S
H121 C113 0.952 . S
H122 C104 0.952 . S
H123 C112 0.948 . S
O124 Zn109 2.034 . S
O124 C119 1.246 . S
O125 Zn117 2.024 . S
O125 C119 1.249 . S
H126 C108 0.948 . S
O127 Zn117 2.039 . S
O127 C131 1.251 . S
O128 Zn109 2.025 . S
O128 C131 1.254 . S
O129 C110 1.246 . S
O129 Zn117 2.034 . S
O130 Zn109 2.024 . S
O130 C110 1.249 . S
C131 O127 1.251 . S
C131 O128 1.254 . S
H132 C105 0.949 1_455 S
H133 C107 0.950 . S
H134 C114 0.949 . S
H135 C116 0.950 . S
C136 C137 1.388 . S
C136 H140 0.950 . S
C136 C145 1.390 . S
C137 C136 1.388 . S
C137 C139 1.387 1_554 S
H138 C145 0.950 . S
C139 C137 1.387 1_556 S
C139 C141 1.390 . S
C139 H143 0.950 . S
H140 C136 0.950 . S
C141 C139 1.390 . S
C141 C142 1.386 1_556 S
C141 H144 0.950 . S
C142 C141 1.386 1_554 S
C142 C145 1.389 . S
H143 C139 0.950 . S
H144 C141 0.950 . S
C145 C136 1.390 . S
C145 H138 0.950 . S
C145 C142 1.389 . S
C146 C147 1.387 . S
C146 H150 0.950 . S
C146 C155 1.390 . S
C147 C146 1.387 . S
C147 C149 1.387 . S
H148 C155 0.950 . S
C149 C147 1.387 . S
C149 C151 1.390 . S
C149 H153 0.950 . S
H150 C146 0.950 . S
C151 C149 1.390 . S
C151 C152 1.387 . S
C151 H154 0.950 . S
C152 C151 1.387 . S
C152 C155 1.387 . S
H153 C149 0.950 . S
H154 C151 0.950 . S
C155 C146 1.390 . S
C155 H148 0.950 . S
C155 C152 1.387 . S
C156 C157 1.387 1_556 S
C156 H160 0.950 . S
C156 C165 1.390 1_445 S
C157 C156 1.387 1_554 S
C157 C159 1.388 . S
H158 C165 0.950 . S
C159 C157 1.388 . S
C159 C161 1.390 1_445 S
C159 H163 0.950 . S
H160 C156 0.950 . S
C161 C159 1.390 1_665 S
C161 C162 1.389 . S
C161 H164 0.950 . S
C162 C161 1.389 . S
C162 C165 1.386 1_554 S
H163 C159 0.950 . S
H164 C161 0.950 . S
C165 C156 1.390 1_665 S
C165 H158 0.950 . S
C165 C162 1.386 1_556 S
C166 C167 1.387 . S
C166 H170 0.950 . S
C166 C175 1.390 1_645 S
C167 C166 1.387 . S
C167 C169 1.387 . S
H168 C175 0.950 . S
C169 C167 1.387 . S
C169 C171 1.390 1_645 S
C169 H173 0.950 . S
H170 C166 0.950 . S
C171 C169 1.390 1_465 S
C171 C172 1.387 . S
C171 H174 0.950 . S
C172 C171 1.387 . S
C172 C175 1.387 . S
H173 C169 0.950 . S
H174 C171 0.950 . S
C175 C166 1.390 1_465 S
C175 H168 0.950 . S
C175 C172 1.387 . S
C176 C177 1.387 . S
C176 H180 0.950 . S
C176 C185 1.390 . S
C177 C176 1.387 . S
C177 C179 1.387 . S
H178 C185 0.950 . S
C179 C177 1.387 . S
C179 C181 1.390 . S
C179 H183 0.950 . S
H180 C176 0.950 . S
C181 C179 1.390 . S
C181 C182 1.387 . S
C181 H184 0.950 . S
C182 C181 1.387 . S
C182 C185 1.387 . S
H183 C179 0.950 . S
H184 C181 0.950 . S
C185 C176 1.390 . S
C185 H178 0.950 . S
C185 C182 1.387 . S
C186 C187 1.387 . S
C186 H190 0.950 . S
C186 C195 1.390 . S
C187 C186 1.387 . S
C187 C189 1.387 . S
H188 C195 0.950 . S
C189 C187 1.387 . S
C189 C191 1.390 . S
C189 H193 0.950 . S
H190 C186 0.950 . S
C191 C189 1.390 . S
C191 C192 1.387 . S
C191 H194 0.950 . S
C192 C191 1.387 . S
C192 C195 1.387 . S
H193 C189 0.950 . S
H194 C191 0.950 . S
C195 C186 1.390 . S
C195 H188 0.950 . S
C195 C192 1.387 . S
C196 C197 1.387 . S
C196 H200 0.950 . S
C196 C205 1.390 . S
C197 C196 1.387 . S
C197 C199 1.387 . S
H198 C205 0.950 . S
C199 C197 1.387 . S
C199 C201 1.390 . S
C199 H203 0.950 . S
H200 C196 0.950 . S
C201 C199 1.390 . S
C201 C202 1.387 . S
C201 H204 0.950 . S
C202 C201 1.387 . S
C202 C205 1.387 . S
H203 C199 0.950 . S
H204 C201 0.950 . S
C205 C196 1.390 . S
C205 H198 0.950 . S
C205 C202 1.387 . S
C206 C207 1.387 . S
C206 H210 0.950 . S
C206 C215 1.390 . S
C207 C206 1.387 . S
C207 C209 1.387 . S
H208 C215 0.950 . S
C209 C207 1.387 . S
C209 C211 1.390 . S
C209 H213 0.950 . S
H210 C206 0.950 . S
C211 C209 1.390 . S
C211 C212 1.387 . S
C211 H214 0.950 . S
C212 C211 1.387 . S
C212 C215 1.387 . S
H213 C209 0.950 . S
H214 C211 0.950 . S
C215 C206 1.390 . S
C215 H208 0.950 . S
C215 C212 1.387 . S
C216 C217 1.387 . S
C216 H220 0.950 . S
C216 C225 1.390 1_655 S
C217 C216 1.387 . S
C217 C219 1.387 . S
H218 C225 0.950 . S
C219 C217 1.387 . S
C219 C221 1.389 1_655 S
C219 H223 0.950 . S
H220 C216 0.950 . S
C221 C219 1.389 1_455 S
C221 C222 1.389 . S
C221 H224 0.950 . S
C222 C221 1.389 . S
C222 C225 1.387 . S
H223 C219 0.950 . S
H224 C221 0.950 . S
C225 C216 1.390 1_455 S
C225 H218 0.950 . S
C225 C222 1.387 . S
C226 C227 1.387 . S
C226 H230 0.950 . S
C226 C235 1.390 1_655 S
C227 C226 1.387 . S
C227 C229 1.387 . S
H228 C235 0.950 . S
C229 C227 1.387 . S
C229 C231 1.390 1_655 S
C229 H233 0.950 . S
H230 C226 0.950 . S
C231 C229 1.390 1_455 S
C231 C232 1.387 . S
C231 H234 0.950 . S
C232 C231 1.387 . S
C232 C235 1.387 . S
H233 C229 0.950 . S
H234 C231 0.950 . S
C235 C226 1.390 1_455 S
C235 H228 0.950 . S
C235 C232 1.387 . S
C236 C237 1.387 . S
C236 H240 0.950 . S
C236 C245 1.390 1_655 S
C237 C236 1.387 . S
C237 C239 1.387 . S
H238 C245 0.950 . S
C239 C237 1.387 . S
C239 C241 1.390 1_655 S
C239 H243 0.950 . S
H240 C236 0.950 . S
C241 C239 1.390 1_455 S
C241 C242 1.387 . S
C241 H244 0.950 . S
C242 C241 1.387 . S
C242 C245 1.387 . S
H243 C239 0.950 . S
H244 C241 0.950 . S
C245 C236 1.390 1_455 S
C245 H238 0.950 . S
C245 C242 1.387 . S
C246 C247 1.387 . S
C246 H250 0.950 . S
C246 C255 1.390 1_455 S
C247 C246 1.387 . S
C247 C249 1.387 . S
H248 C255 0.950 . S
C249 C247 1.387 . S
C249 C251 1.390 1_455 S
C249 H253 0.950 . S
H250 C246 0.950 . S
C251 C249 1.390 1_655 S
C251 C252 1.387 . S
C251 H254 0.950 . S
C252 C251 1.387 . S
C252 C255 1.387 . S
H253 C249 0.950 . S
H254 C251 0.950 . S
C255 C246 1.390 1_655 S
C255 H248 0.950 . S
C255 C252 1.387 . S
C137 C47 1.647 1_554 S
C142 C4 1.647 . S
C147 C72 1.647 . S
C152 C115 1.647 . S
C157 C13 1.645 1_554 S
C162 C38 1.645 . S
C167 C106 1.647 . S
C172 C81 1.647 . S
C177 C131 1.183 . S
C182 C17 1.190 . S
C187 C63 1.183 . S
C192 C85 1.190 . S
C197 C42 1.190 . S
C202 C68 1.183 . S
C207 C110 1.190 . S
C212 C0 1.183 . S
C217 C51 1.188 . S
C222 C97 1.180 . S
C227 C119 1.188 . S
C232 C29 1.180 . S
C237 C102 1.183 . S
C242 C8 1.190 . S
C247 C76 1.190 . S
C252 C34 1.183 . S
