# Generated by pormake.
# Topology ttw, (5)-cn, num edge types: 1
# Building blocks:
#     Node 0, Type 0, BuildingBlock: BEQFEK_clean_sbu_0, # of connection points: 5
#     Node 1, Type 0, BuildingBlock: BEQFEK_clean_sbu_0, # of connection points: 5
#     Node 2, Type 0, BuildingBlock: BEQFEK_clean_sbu_0, # of connection points: 5
#     Node 3, Type 0, BuildingBlock: BEQFEK_clean_sbu_0, # of connection points: 5
#     Node 4, Type 0, BuildingBlock: BEQFEK_clean_sbu_0, # of connection points: 5
#     Node 5, Type 0, BuildingBlock: BEQFEK_clean_sbu_0, # of connection points: 5
#     Edge 6, Type (0, 0), None
#     Edge 7, Type (0, 0), None
#     Edge 8, Type (0, 0), None
#     Edge 9, Type (0, 0), None
#     Edge 10, Type (0, 0), None
#     Edge 11, Type (0, 0), None
#     Edge 12, Type (0, 0), None
#     Edge 13, Type (0, 0), None
#     Edge 14, Type (0, 0), None
#     Edge 15, Type (0, 0), None
#     Edge 16, Type (0, 0), None
#     Edge 17, Type (0, 0), None
#     Edge 18, Type (0, 0), None
#     Edge 19, Type (0, 0), None
#     Edge 20, Type (0, 0), None
# Relax obj value: 0.073
# Max RMSD: 0.178
# Mean RMSD: 0.167
data_MOF--net-ttw--node1-BEQFEK_clean_sbu_0--edge1-none
_symmetry_space_group_name_H-M    P1
_symmetry_Int_Tables_number       1
_symmetry_cell_setting            triclinic
loop_
_symmetry_equiv_pos_as_xyz
'x, y, z'
_cell_length_a     26.819415
_cell_length_b     27.760583
_cell_length_c     11.477214
_cell_angle_alpha  91.168711
_cell_angle_beta   90.03293
_cell_angle_gamma 124.87379
loop_
_atom_site_label
_atom_site_type_symbol
_atom_site_fract_x
_atom_site_fract_y
_atom_site_fract_z
_atom_type_partial_charge
Co0 Co 0.18454 0.53746 0.91228 0.0
Co1 Co 0.18675 0.5308 0.18473 0.0
C2 C 0.28071 0.53469 0.04871 0.0
O3 O 0.25579 0.53552 0.95445 0.0
O4 O 0.25651 0.52866 0.14738 0.0
C5 C 0.19239 0.51798 0.6607 0.0
O6 O 0.23623 0.51163 0.68385 0.0
C7 C 0.19555 0.51203 0.43536 0.0
C8 C 0.14 0.54023 0.51065 0.0
C9 C 0.17588 0.52107 0.54021 0.0
N10 N 0.17258 0.52581 0.34805 0.0
N11 N 0.13938 0.54246 0.39391 0.0
C12 C 0.2365 0.49217 0.41796 0.0
H13 H 0.22635 0.4685 0.33285 0.0
H14 H 0.23094 0.46279 0.48844 0.0
H15 H 0.28443 0.53114 0.41859 0.0
C16 C 0.05537 0.46098 0.9588 0.0
N17 N 0.11317 0.48488 -0.00835 0.0
N18 N 0.11508 0.47376 0.1013 0.0
C19 C 0.05787 0.43722 0.1391 0.0
C20 C 0.01768 0.42899 0.05093 0.0
C21 C 0.0396 0.48057 0.85278 0.0
H22 H 0.07778 0.52587 0.83142 0.0
H23 H 0.03214 0.45132 0.77753 0.0
H24 H -0.00149 0.48028 0.86626 0.0
O25 O 0.21072 0.61667 0.95127 0.0
O26 O 0.21479 0.61271 0.14384 0.0
H27 H 0.04682 0.43809 0.32427 0.0
H28 H -0.00426 0.36736 0.2531 0.0
C29 C 0.04267 0.40798 0.25438 0.0
H30 H 0.07552 0.39712 0.27555 0.0
H31 H 0.11709 0.55636 0.34525 0.0
O32 O 0.16727 0.52757 0.74285 0.0
C33 C 0.22315 0.64123 0.05149 0.0
Co34 Co 0.52262 0.18068 0.20912 0.0
Co35 Co 0.51211 0.17697 0.93619 0.0
C36 C 0.51046 0.26671 0.07235 0.0
O37 O 0.51373 0.24539 0.16756 0.0
O38 O 0.50568 0.24233 0.97407 0.0
C39 C 0.4954 0.18081 0.46075 0.0
O40 O 0.47347 0.21166 0.4396 0.0
C41 C 0.48695 0.18011 0.68593 0.0
C42 C 0.52913 0.13834 0.60794 0.0
C43 C 0.50119 0.16594 0.58008 0.0
N44 N 0.50645 0.16226 0.77218 0.0
N45 N 0.53118 0.13701 0.72468 0.0
C46 C 0.45802 0.21232 0.70534 0.0
H47 H 0.43644 0.20228 0.792 0.0
H48 H 0.4231 0.19992 0.63701 0.0
H49 H 0.49338 0.26027 0.70147 0.0
C50 C 0.45225 0.05521 0.16072 0.0
N51 N 0.47103 0.10921 0.12822 0.0
N52 N 0.45755 0.10767 0.01785 0.0
C53 C 0.42415 0.05142 0.97903 0.0
C54 C 0.42066 0.01593 0.06768 0.0
C55 C 0.47787 0.0456 0.26678 0.0
H56 H 0.52407 0.08529 0.28688 0.0
H57 H 0.4488 0.03806 0.3426 0.0
H58 H 0.48128 0.0079 0.25394 0.0
O59 O 0.60564 0.21047 0.17213 0.0
O60 O 0.59833 0.20853 0.97914 0.0
H61 H 0.42793 0.03943 0.79499 0.0
H62 H 0.35545 0.98585 0.85921 0.0
C63 C 0.39455 0.03273 0.86084 0.0
H64 H 0.37878 0.0605 0.8365 0.0
H65 H 0.55113 0.12038 0.77233 0.0
O66 O 0.51588 0.16606 0.37817 0.0
C67 C 0.62963 0.22047 0.07254 0.0
Co68 Co 0.45607 0.64 0.9164 0.0
Co69 Co 0.46351 0.64878 0.18936 0.0
C70 C 0.47011 0.74198 0.05939 0.0
O71 O 0.46625 0.71558 0.96344 0.0
O72 O 0.47308 0.72292 0.15727 0.0
C73 C 0.48681 0.67018 0.66652 0.0
O74 O 0.5149 0.72627 0.69273 0.0
C75 C 0.49259 0.67873 0.44131 0.0
C76 C 0.44262 0.58948 0.51232 0.0
C77 C 0.47696 0.64844 0.54482 0.0
N78 N 0.46771 0.63916 0.35219 0.0
N79 N 0.43846 0.58602 0.39543 0.0
C80 C 0.52912 0.7437 0.42659 0.0
H81 H 0.54868 0.75506 0.33809 0.0
H82 H 0.56629 0.76662 0.49284 0.0
H83 H 0.49919 0.75898 0.43783 0.0
C84 C 0.52866 0.59419 0.963 0.0
N85 N 0.50691 0.62538 -0.0035 0.0
N86 N 0.51872 0.63921 0.10764 0.0
C87 C 0.55385 0.62248 0.1464 0.0
C88 C 0.56025 0.59168 0.05675 0.0
C89 C 0.50693 0.55712 0.85334 0.0
H90 H 0.46113 0.54517 0.82839 0.0
H91 H 0.53822 0.58268 0.78153 0.0
H92 H 0.50408 0.51603 0.86433 0.0
O93 O 0.37216 0.57838 0.94919 0.0
O94 O 0.37675 0.58601 0.14219 0.0
H95 H 0.54988 0.60986 0.33084 0.0
H96 H 0.62302 0.6367 0.26749 0.0
C97 C 0.58315 0.63914 0.26496 0.0
H98 H 0.59786 0.68449 0.28867 0.0
H99 H 0.41443 0.54727 0.34497 0.0
O100 O 0.46283 0.63253 0.74612 0.0
C101 C 0.34654 0.5628 0.04725 0.0
Co102 Co 0.7979 0.37335 0.20381 0.0
Co103 Co 0.78884 0.3583 0.93084 0.0
C104 C 0.69531 0.26389 0.06716 0.0
O105 O 0.72224 0.29464 0.15983 0.0
O106 O 0.71807 0.28107 0.96683 0.0
C107 C 0.77922 0.3482 0.45146 0.0
O108 O 0.72304 0.30561 0.42284 0.0
C109 C 0.77006 0.33451 0.6753 0.0
C110 C 0.85022 0.41772 0.61116 0.0
C111 C 0.79866 0.36443 0.57424 0.0
N112 N 0.80347 0.36898 0.76749 0.0
N113 N 0.85111 0.41861 0.72826 0.0
C114 C 0.71205 0.27476 0.68537 0.0
H115 H 0.71677 0.25066 0.75538 0.0
H116 H 0.69959 0.24861 0.60299 0.0
H117 H 0.67491 0.27946 0.70936 0.0
C118 C 0.92267 0.41111 0.153 0.0
N119 N 0.8654 0.38925 0.11926 0.0
N120 N 0.85798 0.37299 0.00916 0.0
C121 C 0.90841 0.37852 0.97146 0.0
C122 C 0.95219 0.40448 0.06045 0.0
C123 C 0.94951 0.44517 0.26508 0.0
H124 H 0.92461 0.46419 0.29397 0.0
H125 H 0.94473 0.41522 0.33354 0.0
H126 H -0.00188 0.48139 0.25498 0.0
O127 O 0.77773 0.42904 0.1727 0.0
O128 O 0.76572 0.41268 0.98141 0.0
H129 H 0.92131 0.38451 0.78636 0.0
H130 H 0.94799 0.346 0.85861 0.0
C131 C 0.9118 0.35385 0.85678 0.0
H132 H 0.86729 0.31208 0.83584 0.0
H133 H 0.88395 0.45341 0.78174 0.0
O134 O 0.81632 0.37983 0.37269 0.0
C135 C 0.76206 0.43661 0.07421 0.0
Co136 Co 0.3631 0.80212 0.1936 0.0
Co137 Co 0.37437 0.80449 0.92129 0.0
C138 C 0.44849 0.78025 0.05841 0.0
O139 O 0.42466 0.78429 0.15165 0.0
O140 O 0.4367 0.79148 0.95928 0.0
C141 C 0.38095 0.79949 0.4428 0.0
O142 O 0.40005 0.76651 0.41583 0.0
C143 C 0.39215 0.80035 0.66765 0.0
C144 C 0.33555 0.82814 0.5987 0.0
C145 C 0.37179 0.80975 0.56481 0.0
N146 N 0.36857 0.81243 0.75781 0.0
N147 N 0.33477 0.8289 0.7158 0.0
C148 C 0.43339 0.78073 0.68179 0.0
H149 H 0.46964 0.80988 0.74662 0.0
H150 H 0.45508 0.7817 0.59915 0.0
H151 H 0.40704 0.73551 0.71566 0.0
C152 C 0.3764 0.9131 0.14878 0.0
N153 N 0.3728 0.865 0.11171 0.0
N154 N 0.38781 0.87048 0.0019 0.0
C155 C 0.40732 0.92456 0.96779 0.0
C156 C 0.39974 0.95356 0.05955 0.0
C157 C 0.35409 0.91776 0.26518 0.0
H158 H 0.3109 0.87525 0.28467 0.0
H159 H 0.38746 0.9264 0.33406 0.0
H160 H 0.34648 0.95308 0.26733 0.0
O161 O 0.28486 0.72964 0.15751 0.0
O162 O 0.29634 0.73017 0.96576 0.0
H163 H 0.41108 0.94471 0.78763 0.0
H164 H 0.47887 -0.00247 0.8715 0.0
C165 C 0.44224 0.95019 0.85822 0.0
H166 H 0.46273 0.92672 0.83005 0.0
H167 H 0.31051 0.83999 0.76728 0.0
O168 O 0.36441 0.81845 0.36245 0.0
C169 C 0.26632 0.70513 0.05749 0.0
Co170 Co 0.61225 0.43838 0.20629 0.0
Co171 Co 0.62183 0.44162 0.93409 0.0
C172 C 0.71974 0.45408 0.07187 0.0
O173 O 0.69149 0.44927 0.16564 0.0
O174 O 0.69958 0.45521 0.97245 0.0
C175 C 0.63637 0.44609 0.45619 0.0
O176 O 0.6762 0.43448 0.43046 0.0
C177 C 0.64779 0.45038 0.68135 0.0
C178 C 0.5645 0.43777 0.60916 0.0
C179 C 0.61879 0.44637 0.57747 0.0
N180 N 0.61192 0.44433 0.77011 0.0
N181 N 0.5622 0.43657 0.72611 0.0
C182 C 0.70829 0.45994 0.69733 0.0
H183 H 0.73475 0.49406 0.76641 0.0
H184 H 0.735 0.47413 0.61628 0.0
H185 H 0.70128 0.41858 0.72622 0.0
C186 C 0.57713 0.51901 0.15682 0.0
N187 N 0.59838 0.4874 0.12306 0.0
N188 N 0.61317 0.49668 0.01315 0.0
C189 C 0.60819 0.53943 0.97601 0.0
C190 C 0.58343 0.55429 0.06494 0.0
C191 C 0.54224 0.50685 0.26676 0.0
H192 H 0.52139 0.46078 0.29224 0.0
H193 H 0.57368 0.5359 0.3383 0.0
H194 H 0.50558 0.51358 0.25541 0.0
O195 O 0.54925 0.35606 0.17196 0.0
O196 O 0.55939 0.3578 0.97997 0.0
H197 H 0.60005 0.5438 0.791 0.0
H198 H 0.64341 0.61432 0.86612 0.0
C199 C 0.63311 0.56948 0.86261 0.0
H200 H 0.67503 0.57206 0.84217 0.0
H201 H 0.52644 0.43004 0.77616 0.0
O202 O 0.60711 0.4505 0.37506 0.0
C203 C 0.53542 0.32964 0.07345 0.0
loop_
_geom_bond_atom_site_label_1
_geom_bond_atom_site_label_2
_geom_bond_distance
_geom_bond_site_symmetry_2
_ccdc_geom_bond_type
Co0 O3 1.970 . S
Co0 N17 1.989 1_556 S
Co0 O25 1.967 . S
Co0 O32 1.920 . S
Co1 O4 1.966 . S
Co1 N10 2.022 . S
Co1 N18 1.993 . S
Co1 O26 1.941 . S
C2 O3 1.258 1_554 S
C2 O4 1.263 . S
O3 Co0 1.970 . S
O3 C2 1.258 1_556 S
O4 Co1 1.966 . S
O4 C2 1.263 . S
C5 O6 1.235 . S
C5 O32 1.289 . S
O6 C5 1.235 . S
C7 C9 1.400 . S
C7 N10 1.351 . S
C7 C12 1.501 . S
C8 C9 1.387 . S
C8 N11 1.341 . S
C9 C7 1.400 . S
C9 C8 1.387 . S
N10 Co1 2.022 . S
N10 C7 1.351 . S
N10 N11 1.365 . S
N11 C8 1.341 . S
N11 N10 1.365 . S
N11 H31 0.862 . S
C12 C7 1.501 . S
C12 H13 0.961 . S
C12 H14 0.961 . S
C12 H15 0.960 . S
H13 C12 0.961 . S
H14 C12 0.961 . S
H15 C12 0.960 . S
C16 N17 1.342 1_556 S
C16 C20 1.401 1_556 S
C16 C21 1.499 . S
N17 Co0 1.989 1_554 S
N17 C16 1.342 1_554 S
N17 N18 1.388 . S
N18 Co1 1.993 . S
N18 N17 1.388 . S
N18 C19 1.346 . S
C19 N18 1.346 . S
C19 C20 1.396 . S
C19 C29 1.510 . S
C20 C16 1.401 1_554 S
C20 C19 1.396 . S
C21 C16 1.499 . S
C21 H22 0.959 . S
C21 H23 0.960 . S
C21 H24 0.961 . S
H22 C21 0.959 . S
H23 C21 0.960 . S
H24 C21 0.961 . S
O25 Co0 1.967 . S
O25 C33 1.258 1_556 S
O26 Co1 1.941 . S
O26 C33 1.266 . S
H27 C29 0.959 . S
H28 C29 0.961 . S
C29 C19 1.510 . S
C29 H27 0.959 . S
C29 H28 0.961 . S
C29 H30 0.960 . S
H30 C29 0.960 . S
H31 N11 0.862 . S
O32 Co0 1.920 . S
O32 C5 1.289 . S
C33 O25 1.258 1_554 S
C33 O26 1.266 . S
Co34 O37 1.970 . S
Co34 N51 1.989 . S
Co34 O59 1.967 . S
Co34 O66 1.920 . S
Co35 O38 1.966 . S
Co35 N44 2.022 . S
Co35 N52 1.993 1_556 S
Co35 O60 1.941 . S
C36 O37 1.258 . S
C36 O38 1.263 1_554 S
O37 Co34 1.970 . S
O37 C36 1.258 . S
O38 Co35 1.966 . S
O38 C36 1.263 1_556 S
C39 O40 1.235 . S
C39 O66 1.289 . S
O40 C39 1.235 . S
C41 C43 1.400 . S
C41 N44 1.351 . S
C41 C46 1.501 . S
C42 C43 1.387 . S
C42 N45 1.341 . S
C43 C41 1.400 . S
C43 C42 1.387 . S
N44 Co35 2.022 . S
N44 C41 1.351 . S
N44 N45 1.365 . S
N45 C42 1.341 . S
N45 N44 1.365 . S
N45 H65 0.862 . S
C46 C41 1.501 . S
C46 H47 0.961 . S
C46 H48 0.961 . S
C46 H49 0.960 . S
H47 C46 0.961 . S
H48 C46 0.961 . S
H49 C46 0.960 . S
C50 N51 1.342 . S
C50 C54 1.401 . S
C50 C55 1.499 . S
N51 Co34 1.989 . S
N51 C50 1.342 . S
N51 N52 1.388 . S
N52 Co35 1.993 1_554 S
N52 N51 1.388 . S
N52 C53 1.346 1_554 S
C53 N52 1.346 1_556 S
C53 C54 1.396 1_556 S
C53 C63 1.510 . S
C54 C50 1.401 . S
C54 C53 1.396 1_554 S
C55 C50 1.499 . S
C55 H56 0.959 . S
C55 H57 0.960 . S
C55 H58 0.961 . S
H56 C55 0.959 . S
H57 C55 0.960 . S
H58 C55 0.961 . S
O59 Co34 1.967 . S
O59 C67 1.258 . S
O60 Co35 1.941 . S
O60 C67 1.266 1_556 S
H61 C63 0.959 . S
H62 C63 0.961 . S
C63 C53 1.510 . S
C63 H61 0.959 . S
C63 H62 0.961 . S
C63 H64 0.960 . S
H64 C63 0.960 . S
H65 N45 0.862 . S
O66 Co34 1.920 . S
O66 C39 1.289 . S
C67 O59 1.258 . S
C67 O60 1.266 1_554 S
Co68 O71 1.970 . S
Co68 N85 1.989 1_556 S
Co68 O93 1.967 . S
Co68 O100 1.920 . S
Co69 O72 1.966 . S
Co69 N78 2.022 . S
Co69 N86 1.993 . S
Co69 O94 1.941 . S
C70 O71 1.258 1_554 S
C70 O72 1.263 . S
O71 Co68 1.970 . S
O71 C70 1.258 1_556 S
O72 Co69 1.966 . S
O72 C70 1.263 . S
C73 O74 1.235 . S
C73 O100 1.289 . S
O74 C73 1.235 . S
C75 C77 1.400 . S
C75 N78 1.351 . S
C75 C80 1.501 . S
C76 C77 1.387 . S
C76 N79 1.341 . S
C77 C75 1.400 . S
C77 C76 1.387 . S
N78 Co69 2.022 . S
N78 C75 1.351 . S
N78 N79 1.365 . S
N79 C76 1.341 . S
N79 N78 1.365 . S
N79 H99 0.862 . S
C80 C75 1.501 . S
C80 H81 0.961 . S
C80 H82 0.961 . S
C80 H83 0.960 . S
H81 C80 0.961 . S
H82 C80 0.961 . S
H83 C80 0.960 . S
C84 N85 1.342 1_556 S
C84 C88 1.401 1_556 S
C84 C89 1.499 . S
N85 Co68 1.989 1_554 S
N85 C84 1.342 1_554 S
N85 N86 1.388 . S
N86 Co69 1.993 . S
N86 N85 1.388 . S
N86 C87 1.346 . S
C87 N86 1.346 . S
C87 C88 1.396 . S
C87 C97 1.510 . S
C88 C84 1.401 1_554 S
C88 C87 1.396 . S
C89 C84 1.499 . S
C89 H90 0.959 . S
C89 H91 0.960 . S
C89 H92 0.961 . S
H90 C89 0.959 . S
H91 C89 0.960 . S
H92 C89 0.961 . S
O93 Co68 1.967 . S
O93 C101 1.258 1_556 S
O94 Co69 1.941 . S
O94 C101 1.266 . S
H95 C97 0.959 . S
H96 C97 0.961 . S
C97 C87 1.510 . S
C97 H95 0.959 . S
C97 H96 0.961 . S
C97 H98 0.960 . S
H98 C97 0.960 . S
H99 N79 0.862 . S
O100 Co68 1.920 . S
O100 C73 1.289 . S
C101 O93 1.258 1_554 S
C101 O94 1.266 . S
Co102 O105 1.970 . S
Co102 N119 1.989 . S
Co102 O127 1.967 . S
Co102 O134 1.920 . S
Co103 O106 1.966 . S
Co103 N112 2.022 . S
Co103 N120 1.993 1_556 S
Co103 O128 1.941 . S
C104 O105 1.258 . S
C104 O106 1.263 1_554 S
O105 Co102 1.970 . S
O105 C104 1.258 . S
O106 Co103 1.966 . S
O106 C104 1.263 1_556 S
C107 O108 1.235 . S
C107 O134 1.289 . S
O108 C107 1.235 . S
C109 C111 1.400 . S
C109 N112 1.351 . S
C109 C114 1.501 . S
C110 C111 1.387 . S
C110 N113 1.341 . S
C111 C109 1.400 . S
C111 C110 1.387 . S
N112 Co103 2.022 . S
N112 C109 1.351 . S
N112 N113 1.365 . S
N113 C110 1.341 . S
N113 N112 1.365 . S
N113 H133 0.862 . S
C114 C109 1.501 . S
C114 H115 0.961 . S
C114 H116 0.961 . S
C114 H117 0.960 . S
H115 C114 0.961 . S
H116 C114 0.961 . S
H117 C114 0.960 . S
C118 N119 1.342 . S
C118 C122 1.401 . S
C118 C123 1.499 . S
N119 Co102 1.989 . S
N119 C118 1.342 . S
N119 N120 1.388 . S
N120 Co103 1.993 1_554 S
N120 N119 1.388 . S
N120 C121 1.346 1_554 S
C121 N120 1.346 1_556 S
C121 C122 1.396 1_556 S
C121 C131 1.510 . S
C122 C118 1.401 . S
C122 C121 1.396 1_554 S
C123 C118 1.499 . S
C123 H124 0.959 . S
C123 H125 0.960 . S
C123 H126 0.961 . S
H124 C123 0.959 . S
H125 C123 0.960 . S
H126 C123 0.961 . S
O127 Co102 1.967 . S
O127 C135 1.258 . S
O128 Co103 1.941 . S
O128 C135 1.266 1_556 S
H129 C131 0.959 . S
H130 C131 0.961 . S
C131 C121 1.510 . S
C131 H129 0.959 . S
C131 H130 0.961 . S
C131 H132 0.960 . S
H132 C131 0.960 . S
H133 N113 0.862 . S
O134 Co102 1.920 . S
O134 C107 1.289 . S
C135 O127 1.258 . S
C135 O128 1.266 1_554 S
Co136 O139 1.970 . S
Co136 N153 1.989 . S
Co136 O161 1.967 . S
Co136 O168 1.920 . S
Co137 O140 1.966 . S
Co137 N146 2.022 . S
Co137 N154 1.993 . S
Co137 O162 1.941 . S
C138 O139 1.258 . S
C138 O140 1.263 1_554 S
O139 Co136 1.970 . S
O139 C138 1.258 . S
O140 Co137 1.966 . S
O140 C138 1.263 1_556 S
C141 O142 1.235 . S
C141 O168 1.289 . S
O142 C141 1.235 . S
C143 C145 1.400 . S
C143 N146 1.351 . S
C143 C148 1.501 . S
C144 C145 1.387 . S
C144 N147 1.341 . S
C145 C143 1.400 . S
C145 C144 1.387 . S
N146 Co137 2.022 . S
N146 C143 1.351 . S
N146 N147 1.365 . S
N147 C144 1.341 . S
N147 N146 1.365 . S
N147 H167 0.862 . S
C148 C143 1.501 . S
C148 H149 0.961 . S
C148 H150 0.961 . S
C148 H151 0.960 . S
H149 C148 0.961 . S
H150 C148 0.961 . S
H151 C148 0.960 . S
C152 N153 1.342 . S
C152 C156 1.401 . S
C152 C157 1.499 . S
N153 Co136 1.989 . S
N153 C152 1.342 . S
N153 N154 1.388 1_554 S
N154 Co137 1.993 . S
N154 N153 1.388 1_556 S
N154 C155 1.346 . S
C155 N154 1.346 . S
C155 C156 1.396 1_556 S
C155 C165 1.510 . S
C156 C152 1.401 . S
C156 C155 1.396 1_554 S
C157 C152 1.499 . S
C157 H158 0.959 . S
C157 H159 0.960 . S
C157 H160 0.961 . S
H158 C157 0.959 . S
H159 C157 0.960 . S
H160 C157 0.961 . S
O161 Co136 1.967 . S
O161 C169 1.258 . S
O162 Co137 1.941 . S
O162 C169 1.266 1_556 S
H163 C165 0.959 . S
H164 C165 0.961 . S
C165 C155 1.510 . S
C165 H163 0.959 . S
C165 H164 0.961 . S
C165 H166 0.960 . S
H166 C165 0.960 . S
H167 N147 0.862 . S
O168 Co136 1.920 . S
O168 C141 1.289 . S
C169 O161 1.258 . S
C169 O162 1.266 1_554 S
Co170 O173 1.970 . S
Co170 N187 1.989 . S
Co170 O195 1.967 . S
Co170 O202 1.920 . S
Co171 O174 1.966 . S
Co171 N180 2.022 . S
Co171 N188 1.993 1_556 S
Co171 O196 1.941 . S
C172 O173 1.258 . S
C172 O174 1.263 1_554 S
O173 Co170 1.970 . S
O173 C172 1.258 . S
O174 Co171 1.966 . S
O174 C172 1.263 1_556 S
C175 O176 1.235 . S
C175 O202 1.289 . S
O176 C175 1.235 . S
C177 C179 1.400 . S
C177 N180 1.351 . S
C177 C182 1.501 . S
C178 C179 1.387 . S
C178 N181 1.341 . S
C179 C177 1.400 . S
C179 C178 1.387 . S
N180 Co171 2.022 . S
N180 C177 1.351 . S
N180 N181 1.365 . S
N181 C178 1.341 . S
N181 N180 1.365 . S
N181 H201 0.862 . S
C182 C177 1.501 . S
C182 H183 0.961 . S
C182 H184 0.961 . S
C182 H185 0.960 . S
H183 C182 0.961 . S
H184 C182 0.961 . S
H185 C182 0.960 . S
C186 N187 1.342 . S
C186 C190 1.401 . S
C186 C191 1.499 . S
N187 Co170 1.989 . S
N187 C186 1.342 . S
N187 N188 1.388 . S
N188 Co171 1.993 1_554 S
N188 N187 1.388 . S
N188 C189 1.346 1_554 S
C189 N188 1.346 1_556 S
C189 C190 1.396 1_556 S
C189 C199 1.510 . S
C190 C186 1.401 . S
C190 C189 1.396 1_554 S
C191 C186 1.499 . S
C191 H192 0.959 . S
C191 H193 0.960 . S
C191 H194 0.961 . S
H192 C191 0.959 . S
H193 C191 0.960 . S
H194 C191 0.961 . S
O195 Co170 1.967 . S
O195 C203 1.258 . S
O196 Co171 1.941 . S
O196 C203 1.266 1_556 S
H197 C199 0.959 . S
H198 C199 0.961 . S
C199 C189 1.510 . S
C199 H197 0.959 . S
C199 H198 0.961 . S
C199 H200 0.960 . S
H200 C199 0.960 . S
H201 N181 0.862 . S
O202 Co170 1.920 . S
O202 C175 1.289 . S
C203 O195 1.258 . S
C203 O196 1.266 1_554 S
C20 C122 1.384 1_455 S
C156 C54 1.650 1_565 S
C190 C88 1.407 . S
C9 C5 1.510 . S
C39 C43 1.407 . S
C73 C77 1.362 . S
C111 C107 1.426 . S
C141 C145 1.391 . S
C175 C179 1.425 . S
C2 C101 1.207 . S
C67 C104 1.276 . S
C70 C138 1.193 . S
C135 C172 1.014 . S
C33 C169 0.950 . S
C36 C203 1.590 . S
