# Generated by pormake.
# Topology fcu, (12)-cn, num edge types: 1
# Building blocks:
#     Node 0, Type 0, BuildingBlock: EZIPEK_clean_sbu_0, # of connection points: 12
#     Node 1, Type 0, BuildingBlock: EZIPEK_clean_sbu_0, # of connection points: 12
#     Node 2, Type 0, BuildingBlock: EZIPEK_clean_sbu_0, # of connection points: 12
#     Node 3, Type 0, BuildingBlock: EZIPEK_clean_sbu_0, # of connection points: 12
#     Edge 4, Type (0, 0), None
#     Edge 5, Type (0, 0), None
#     Edge 6, Type (0, 0), None
#     Edge 7, Type (0, 0), None
#     Edge 8, Type (0, 0), None
#     Edge 9, Type (0, 0), None
#     Edge 10, Type (0, 0), None
#     Edge 11, Type (0, 0), None
#     Edge 12, Type (0, 0), None
#     Edge 13, Type (0, 0), None
#     Edge 14, Type (0, 0), None
#     Edge 15, Type (0, 0), None
#     Edge 16, Type (0, 0), None
#     Edge 17, Type (0, 0), None
#     Edge 18, Type (0, 0), None
#     Edge 19, Type (0, 0), None
#     Edge 20, Type (0, 0), None
#     Edge 21, Type (0, 0), None
#     Edge 22, Type (0, 0), None
#     Edge 23, Type (0, 0), None
#     Edge 24, Type (0, 0), None
#     Edge 25, Type (0, 0), None
#     Edge 26, Type (0, 0), None
#     Edge 27, Type (0, 0), None
# Relax obj value: 0.000
# Max RMSD: 0.000
# Mean RMSD: 0.000
data_MOF--net-fcu--node1-EZIPEK_clean_sbu_0--edge1-none
_symmetry_space_group_name_H-M    P1
_symmetry_Int_Tables_number       1
_symmetry_cell_setting            triclinic
loop_
_symmetry_equiv_pos_as_xyz
'x, y, z'
_cell_length_a     15.041142
_cell_length_b     15.041057
_cell_length_c     15.041151
_cell_angle_alpha  89.999963
_cell_angle_beta   90.000007
_cell_angle_gamma 89.999773
loop_
_atom_site_label
_atom_site_type_symbol
_atom_site_fract_x
_atom_site_fract_y
_atom_site_fract_z
_atom_type_partial_charge
C0 C 0.01838 0.8029 0.23382 0.0
C1 C 0.01838 0.80286 0.80293 0.0
C2 C 0.01838 0.23381 0.23386 0.0
C3 C 0.01838 0.23385 0.80289 0.0
C4 C 0.80291 0.23384 0.01839 0.0
C5 C 0.8029 0.8029 0.01839 0.0
C6 C 0.23382 0.23384 0.01839 0.0
C7 C 0.23382 0.8029 0.01839 0.0
C8 C 0.23385 0.01838 0.80289 0.0
C9 C 0.80288 0.01838 0.80289 0.0
C10 C 0.23381 0.01838 0.23386 0.0
C11 C 0.80291 0.01838 0.23386 0.0
Eu12 Eu 0.01836 0.85007 0.01837 0.0
O13 O 0.93931 0.93936 0.93921 0.0
O14 O 0.09742 0.93936 0.09752 0.0
Eu15 Eu 0.85004 0.01834 0.01837 0.0
Eu16 Eu 0.18668 0.01834 0.01837 0.0
O17 O 0.93931 0.93935 0.09752 0.0
O18 O 0.09741 0.93936 0.93921 0.0
Eu19 Eu 0.01836 0.01834 0.18684 0.0
Eu20 Eu 0.01836 0.01834 0.84989 0.0
O21 O 0.93941 0.09746 0.09742 0.0
O22 O 0.93942 0.09746 0.93931 0.0
O23 O 0.09731 0.09746 0.93931 0.0
O24 O 0.09731 0.09746 0.09742 0.0
Eu25 Eu 0.01836 0.18686 0.01837 0.0
O26 O 0.01838 0.77555 0.1494 0.0
O27 O 0.01838 0.77551 0.88736 0.0
O28 O 0.01838 0.26123 0.14946 0.0
O29 O 0.01838 0.26127 0.8873 0.0
O30 O 0.77556 0.14941 0.01838 0.0
O31 O 0.77552 0.88732 0.01838 0.0
O32 O 0.26117 0.14941 0.01838 0.0
O33 O 0.26121 0.88732 0.01838 0.0
O34 O 0.14944 0.01837 0.77547 0.0
O35 O 0.88728 0.01837 0.77547 0.0
O36 O 0.14941 0.01837 0.26128 0.0
O37 O 0.88731 0.01837 0.26128 0.0
O38 O 0.14942 0.26128 0.01838 0.0
O39 O 0.8873 0.26128 0.01838 0.0
O40 O 0.1494 0.77554 0.01838 0.0
O41 O 0.88732 0.77554 0.01838 0.0
O42 O 0.01838 0.88726 0.7755 0.0
O43 O 0.01838 0.14943 0.77549 0.0
O44 O 0.01838 0.8873 0.26126 0.0
O45 O 0.01838 0.1494 0.26126 0.0
O46 O 0.77556 0.01838 0.14943 0.0
O47 O 0.77552 0.01838 0.88732 0.0
O48 O 0.26117 0.01838 0.14943 0.0
O49 O 0.26121 0.01838 0.88732 0.0
C50 C 0.01838 0.3029 0.73382 0.0
C51 C 0.01838 0.7338 0.73386 0.0
C52 C 0.01838 0.30287 0.30291 0.0
C53 C 0.01838 0.73383 0.30287 0.0
C54 C 0.23383 0.51834 0.3029 0.0
C55 C 0.23379 0.51834 0.73383 0.0
C56 C 0.8029 0.51834 0.3029 0.0
C57 C 0.80293 0.51834 0.73383 0.0
C58 C 0.80291 0.73384 0.51834 0.0
C59 C 0.23382 0.73384 0.51834 0.0
C60 C 0.80291 0.30289 0.51834 0.0
C61 C 0.23382 0.30289 0.51834 0.0
Eu62 Eu 0.01836 0.51836 0.68666 0.0
O63 O 0.09741 0.59752 0.59737 0.0
O64 O 0.93931 0.4392 0.59737 0.0
Eu65 Eu 0.18667 0.51836 0.51839 0.0
Eu66 Eu 0.85006 0.51836 0.51839 0.0
O67 O 0.09741 0.4392 0.59737 0.0
O68 O 0.93931 0.59752 0.59737 0.0
Eu69 Eu 0.01836 0.34989 0.51839 0.0
Eu70 Eu 0.01836 0.68684 0.51839 0.0
O71 O 0.09731 0.43931 0.43927 0.0
O72 O 0.09731 0.59742 0.43927 0.0
O73 O 0.93942 0.59742 0.43927 0.0
O74 O 0.93942 0.43931 0.43927 0.0
Eu75 Eu 0.01836 0.51836 0.34986 0.0
O76 O 0.01838 0.38733 0.76118 0.0
O77 O 0.01838 0.64937 0.76122 0.0
O78 O 0.01838 0.38727 0.27549 0.0
O79 O 0.01838 0.64943 0.27545 0.0
O80 O 0.26118 0.51835 0.38733 0.0
O81 O 0.26117 0.51835 0.64942 0.0
O82 O 0.77555 0.51835 0.38734 0.0
O83 O 0.77555 0.51835 0.64942 0.0
O84 O 0.88731 0.76127 0.51835 0.0
O85 O 0.14942 0.76127 0.51835 0.0
O86 O 0.88731 0.27546 0.51835 0.0
O87 O 0.14942 0.27546 0.51835 0.0
O88 O 0.88729 0.51834 0.27546 0.0
O89 O 0.14943 0.51834 0.27546 0.0
O90 O 0.88735 0.51834 0.76121 0.0
O91 O 0.14938 0.51834 0.76121 0.0
O92 O 0.01838 0.76123 0.64946 0.0
O93 O 0.01838 0.76123 0.38729 0.0
O94 O 0.01838 0.27547 0.64943 0.0
O95 O 0.01838 0.27546 0.38732 0.0
O96 O 0.26117 0.38732 0.51835 0.0
O97 O 0.26117 0.64941 0.51835 0.0
O98 O 0.77555 0.38732 0.51835 0.0
O99 O 0.77555 0.64941 0.51835 0.0
C100 C 0.51834 0.80293 0.73386 0.0
C101 C 0.51834 0.23383 0.73382 0.0
C102 C 0.51834 0.8029 0.30287 0.0
C103 C 0.51834 0.23387 0.30291 0.0
C104 C 0.73383 0.01839 0.3029 0.0
C105 C 0.73379 0.01839 0.73383 0.0
C106 C 0.3029 0.01839 0.3029 0.0
C107 C 0.30293 0.01839 0.73383 0.0
C108 C 0.3029 0.23384 0.51834 0.0
C109 C 0.73382 0.23384 0.51834 0.0
C110 C 0.30291 0.80289 0.51834 0.0
C111 C 0.73382 0.80289 0.51834 0.0
Eu112 Eu 0.51836 0.01837 0.68666 0.0
O113 O 0.59741 0.09753 0.59737 0.0
O114 O 0.43931 0.93921 0.59737 0.0
Eu115 Eu 0.68667 0.01837 0.51839 0.0
Eu116 Eu 0.35005 0.01837 0.51839 0.0
O117 O 0.59741 0.93921 0.59737 0.0
O118 O 0.43931 0.09753 0.59737 0.0
Eu119 Eu 0.51836 0.84989 0.51839 0.0
Eu120 Eu 0.51836 0.18684 0.51839 0.0
O121 O 0.5973 0.93931 0.43927 0.0
O122 O 0.59731 0.09742 0.43926 0.0
O123 O 0.43941 0.09742 0.43927 0.0
O124 O 0.43942 0.93932 0.43927 0.0
Eu125 Eu 0.51836 0.01837 0.34986 0.0
O126 O 0.51834 0.88736 0.76122 0.0
O127 O 0.51834 0.1494 0.76118 0.0
O128 O 0.51834 0.8873 0.27545 0.0
O129 O 0.51834 0.14946 0.27549 0.0
O130 O 0.76117 0.01838 0.38734 0.0
O131 O 0.76117 0.01838 0.64942 0.0
O132 O 0.27555 0.01838 0.38733 0.0
O133 O 0.27555 0.01838 0.64942 0.0
O134 O 0.3873 0.26127 0.51835 0.0
O135 O 0.64942 0.26127 0.51835 0.0
O136 O 0.3873 0.77546 0.51835 0.0
O137 O 0.64942 0.77546 0.51835 0.0
O138 O 0.38729 0.01839 0.27546 0.0
O139 O 0.64943 0.01839 0.27546 0.0
O140 O 0.38735 0.01839 0.76121 0.0
O141 O 0.64937 0.01839 0.76121 0.0
O142 O 0.51834 0.26126 0.64943 0.0
O143 O 0.51834 0.26127 0.38732 0.0
O144 O 0.51834 0.7755 0.64946 0.0
O145 O 0.51834 0.7755 0.38729 0.0
O146 O 0.76117 0.88732 0.51835 0.0
O147 O 0.76117 0.14941 0.51835 0.0
O148 O 0.27555 0.88732 0.51835 0.0
O149 O 0.27555 0.14941 0.51835 0.0
C150 C 0.51834 0.73387 0.80293 0.0
C151 C 0.51834 0.73383 0.23382 0.0
C152 C 0.51834 0.30288 0.80289 0.0
C153 C 0.51834 0.30292 0.23386 0.0
C154 C 0.73382 0.30289 0.01839 0.0
C155 C 0.73382 0.73383 0.01839 0.0
C156 C 0.3029 0.30289 0.01839 0.0
C157 C 0.3029 0.73383 0.01839 0.0
C158 C 0.30291 0.51835 0.23386 0.0
C159 C 0.73381 0.51835 0.23386 0.0
C160 C 0.30287 0.51835 0.80289 0.0
C161 C 0.73385 0.51835 0.80289 0.0
Eu162 Eu 0.51836 0.68666 0.01837 0.0
O163 O 0.59741 0.59738 0.09752 0.0
O164 O 0.43931 0.59737 0.93921 0.0
Eu165 Eu 0.68668 0.51839 0.01837 0.0
Eu166 Eu 0.35004 0.51839 0.01837 0.0
O167 O 0.59741 0.59737 0.93921 0.0
O168 O 0.43931 0.59738 0.09752 0.0
Eu169 Eu 0.51836 0.51839 0.84989 0.0
Eu170 Eu 0.51836 0.51839 0.18684 0.0
O171 O 0.59731 0.43927 0.93931 0.0
O172 O 0.59731 0.43927 0.09742 0.0
O173 O 0.43941 0.43927 0.09742 0.0
O174 O 0.43941 0.43927 0.93931 0.0
Eu175 Eu 0.51836 0.34987 0.01837 0.0
O176 O 0.51834 0.76122 0.88736 0.0
O177 O 0.51834 0.76118 0.1494 0.0
O178 O 0.51834 0.27546 0.8873 0.0
O179 O 0.51834 0.2755 0.14946 0.0
O180 O 0.76117 0.38732 0.01838 0.0
O181 O 0.76121 0.64941 0.01838 0.0
O182 O 0.27555 0.38732 0.01838 0.0
O183 O 0.27552 0.64941 0.01838 0.0
O184 O 0.38731 0.51836 0.26128 0.0
O185 O 0.64941 0.51836 0.26128 0.0
O186 O 0.38728 0.51836 0.77547 0.0
O187 O 0.64944 0.51836 0.77547 0.0
O188 O 0.3873 0.27545 0.01838 0.0
O189 O 0.64942 0.27545 0.01838 0.0
O190 O 0.38732 0.76119 0.01838 0.0
O191 O 0.6494 0.76119 0.01838 0.0
O192 O 0.51834 0.64943 0.26126 0.0
O193 O 0.51834 0.38733 0.26126 0.0
O194 O 0.51834 0.64947 0.7755 0.0
O195 O 0.51834 0.3873 0.77549 0.0
O196 O 0.7612 0.51835 0.88732 0.0
O197 O 0.76117 0.51835 0.14943 0.0
O198 O 0.27552 0.51835 0.88732 0.0
O199 O 0.27556 0.51835 0.14943 0.0
loop_
_geom_bond_atom_site_label_1
_geom_bond_atom_site_label_2
_geom_bond_distance
_geom_bond_site_symmetry_2
_ccdc_geom_bond_type
C0 O26 1.283 . S
C0 O44 1.283 . S
C1 O27 1.283 . S
C1 O42 1.283 . S
C2 O28 1.283 . S
C2 O45 1.283 . S
C3 O29 1.283 . S
C3 O43 1.283 . S
C4 O30 1.283 . S
C4 O39 1.283 . S
C5 O31 1.283 . S
C5 O41 1.283 . S
C6 O32 1.283 . S
C6 O38 1.283 . S
C7 O33 1.283 . S
C7 O40 1.283 . S
C8 O34 1.283 . S
C8 O49 1.283 . S
C9 O35 1.283 . S
C9 O47 1.283 . S
C10 O36 1.283 . S
C10 O48 1.283 . S
C11 O37 1.283 . S
C11 O46 1.283 . S
Eu12 O13 2.370 1_454 S
Eu12 O14 2.370 . S
Eu12 O17 2.370 1_455 S
Eu12 O18 2.370 1_554 S
Eu12 O26 2.363 . S
Eu12 O27 2.363 1_554 S
Eu12 O40 2.363 . S
Eu12 O41 2.363 1_455 S
O13 Eu12 2.370 1_656 S
O13 Eu15 2.370 1_566 S
O13 Eu20 2.370 1_665 S
O14 Eu12 2.370 . S
O14 Eu16 2.370 1_565 S
O14 Eu19 2.370 1_565 S
Eu15 O13 2.370 1_544 S
Eu15 O17 2.370 1_545 S
Eu15 O21 2.370 . S
Eu15 O22 2.370 1_554 S
Eu15 O30 2.363 . S
Eu15 O31 2.363 1_545 S
Eu15 O46 2.363 . S
Eu15 O47 2.363 1_554 S
Eu16 O14 2.370 1_545 S
Eu16 O18 2.370 1_544 S
Eu16 O23 2.370 1_554 S
Eu16 O24 2.370 . S
Eu16 O32 2.363 . S
Eu16 O33 2.363 1_545 S
Eu16 O48 2.363 . S
Eu16 O49 2.363 1_554 S
O17 Eu12 2.370 1_655 S
O17 Eu15 2.370 1_565 S
O17 Eu19 2.370 1_665 S
O18 Eu12 2.370 1_556 S
O18 Eu16 2.370 1_566 S
O18 Eu20 2.370 1_565 S
Eu19 O14 2.370 1_545 S
Eu19 O17 2.370 1_445 S
Eu19 O21 2.370 1_455 S
Eu19 O24 2.370 . S
Eu19 O36 2.363 . S
Eu19 O37 2.363 1_455 S
Eu19 O44 2.363 1_545 S
Eu19 O45 2.363 . S
Eu20 O13 2.370 1_445 S
Eu20 O18 2.370 1_545 S
Eu20 O22 2.370 1_455 S
Eu20 O23 2.370 . S
Eu20 O34 2.363 . S
Eu20 O35 2.363 1_455 S
Eu20 O42 2.363 1_545 S
Eu20 O43 2.363 . S
O21 Eu15 2.370 . S
O21 Eu19 2.370 1_655 S
O21 Eu25 2.370 1_655 S
O22 Eu15 2.370 1_556 S
O22 Eu20 2.370 1_655 S
O22 Eu25 2.370 1_656 S
O23 Eu16 2.370 1_556 S
O23 Eu20 2.370 . S
O23 Eu25 2.370 1_556 S
O24 Eu16 2.370 . S
O24 Eu19 2.370 . S
O24 Eu25 2.370 . S
Eu25 O21 2.370 1_455 S
Eu25 O22 2.370 1_454 S
Eu25 O23 2.370 1_554 S
Eu25 O24 2.370 . S
Eu25 O28 2.363 . S
Eu25 O29 2.363 1_554 S
Eu25 O38 2.363 . S
Eu25 O39 2.363 1_455 S
O26 C0 1.283 . S
O26 Eu12 2.363 . S
O27 C1 1.283 . S
O27 Eu12 2.363 1_556 S
O28 C2 1.283 . S
O28 Eu25 2.363 . S
O29 C3 1.283 . S
O29 Eu25 2.363 1_556 S
O30 C4 1.283 . S
O30 Eu15 2.363 . S
O31 C5 1.283 . S
O31 Eu15 2.363 1_565 S
O32 C6 1.283 . S
O32 Eu16 2.363 . S
O33 C7 1.283 . S
O33 Eu16 2.363 1_565 S
O34 C8 1.283 . S
O34 Eu20 2.363 . S
O35 C9 1.283 . S
O35 Eu20 2.363 1_655 S
O36 C10 1.283 . S
O36 Eu19 2.363 . S
O37 C11 1.283 . S
O37 Eu19 2.363 1_655 S
O38 C6 1.283 . S
O38 Eu25 2.363 . S
O39 C4 1.283 . S
O39 Eu25 2.363 1_655 S
O40 C7 1.283 . S
O40 Eu12 2.363 . S
O41 C5 1.283 . S
O41 Eu12 2.363 1_655 S
O42 C1 1.283 . S
O42 Eu20 2.363 1_565 S
O43 C3 1.283 . S
O43 Eu20 2.363 . S
O44 C0 1.283 . S
O44 Eu19 2.363 1_565 S
O45 C2 1.283 . S
O45 Eu19 2.363 . S
O46 C11 1.283 . S
O46 Eu15 2.363 . S
O47 C9 1.283 . S
O47 Eu15 2.363 1_556 S
O48 C10 1.283 . S
O48 Eu16 2.363 . S
O49 C8 1.283 . S
O49 Eu16 2.363 1_556 S
C50 O76 1.283 . S
C50 O94 1.283 . S
C51 O77 1.283 . S
C51 O92 1.283 . S
C52 O78 1.283 . S
C52 O95 1.283 . S
C53 O79 1.283 . S
C53 O93 1.283 . S
C54 O80 1.283 . S
C54 O89 1.283 . S
C55 O81 1.283 . S
C55 O91 1.283 . S
C56 O82 1.283 . S
C56 O88 1.283 . S
C57 O83 1.283 . S
C57 O90 1.283 . S
C58 O84 1.283 . S
C58 O99 1.283 . S
C59 O85 1.283 . S
C59 O97 1.283 . S
C60 O86 1.283 . S
C60 O98 1.283 . S
C61 O87 1.283 . S
C61 O96 1.283 . S
Eu62 O63 2.370 . S
Eu62 O64 2.370 1_455 S
Eu62 O67 2.370 . S
Eu62 O68 2.370 1_455 S
Eu62 O76 2.363 . S
Eu62 O77 2.363 . S
Eu62 O90 2.363 1_455 S
Eu62 O91 2.363 . S
O63 Eu62 2.370 . S
O63 Eu65 2.370 . S
O63 Eu70 2.370 . S
O64 Eu62 2.370 1_655 S
O64 Eu66 2.370 . S
O64 Eu69 2.370 1_655 S
Eu65 O63 2.370 . S
Eu65 O67 2.370 . S
Eu65 O71 2.370 . S
Eu65 O72 2.370 . S
Eu65 O80 2.363 . S
Eu65 O81 2.363 . S
Eu65 O96 2.363 . S
Eu65 O97 2.363 . S
Eu66 O64 2.370 . S
Eu66 O68 2.370 . S
Eu66 O73 2.370 . S
Eu66 O74 2.370 . S
Eu66 O82 2.363 . S
Eu66 O83 2.363 . S
Eu66 O98 2.363 . S
Eu66 O99 2.363 . S
O67 Eu62 2.370 . S
O67 Eu65 2.370 . S
O67 Eu69 2.370 . S
O68 Eu62 2.370 1_655 S
O68 Eu66 2.370 . S
O68 Eu70 2.370 1_655 S
Eu69 O64 2.370 1_455 S
Eu69 O67 2.370 . S
Eu69 O71 2.370 . S
Eu69 O74 2.370 1_455 S
Eu69 O86 2.363 1_455 S
Eu69 O87 2.363 . S
Eu69 O94 2.363 . S
Eu69 O95 2.363 . S
Eu70 O63 2.370 . S
Eu70 O68 2.370 1_455 S
Eu70 O72 2.370 . S
Eu70 O73 2.370 1_455 S
Eu70 O84 2.363 1_455 S
Eu70 O85 2.363 . S
Eu70 O92 2.363 . S
Eu70 O93 2.363 . S
O71 Eu65 2.370 . S
O71 Eu69 2.370 . S
O71 Eu75 2.370 . S
O72 Eu65 2.370 . S
O72 Eu70 2.370 . S
O72 Eu75 2.370 . S
O73 Eu66 2.370 . S
O73 Eu70 2.370 1_655 S
O73 Eu75 2.370 1_655 S
O74 Eu66 2.370 . S
O74 Eu69 2.370 1_655 S
O74 Eu75 2.370 1_655 S
Eu75 O71 2.370 . S
Eu75 O72 2.370 . S
Eu75 O73 2.370 1_455 S
Eu75 O74 2.370 1_455 S
Eu75 O78 2.363 . S
Eu75 O79 2.363 . S
Eu75 O88 2.363 1_455 S
Eu75 O89 2.363 . S
O76 C50 1.283 . S
O76 Eu62 2.363 . S
O77 C51 1.283 . S
O77 Eu62 2.363 . S
O78 C52 1.283 . S
O78 Eu75 2.363 . S
O79 C53 1.283 . S
O79 Eu75 2.363 . S
O80 C54 1.283 . S
O80 Eu65 2.363 . S
O81 C55 1.283 . S
O81 Eu65 2.363 . S
O82 C56 1.283 . S
O82 Eu66 2.363 . S
O83 C57 1.283 . S
O83 Eu66 2.363 . S
O84 C58 1.283 . S
O84 Eu70 2.363 1_655 S
O85 C59 1.283 . S
O85 Eu70 2.363 . S
O86 C60 1.283 . S
O86 Eu69 2.363 1_655 S
O87 C61 1.283 . S
O87 Eu69 2.363 . S
O88 C56 1.283 . S
O88 Eu75 2.363 1_655 S
O89 C54 1.283 . S
O89 Eu75 2.363 . S
O90 C57 1.283 . S
O90 Eu62 2.363 1_655 S
O91 C55 1.283 . S
O91 Eu62 2.363 . S
O92 C51 1.283 . S
O92 Eu70 2.363 . S
O93 C53 1.283 . S
O93 Eu70 2.363 . S
O94 C50 1.283 . S
O94 Eu69 2.363 . S
O95 C52 1.283 . S
O95 Eu69 2.363 . S
O96 C61 1.283 . S
O96 Eu65 2.363 . S
O97 C59 1.283 . S
O97 Eu65 2.363 . S
O98 C60 1.283 . S
O98 Eu66 2.363 . S
O99 C58 1.283 . S
O99 Eu66 2.363 . S
C100 O126 1.283 . S
C100 O144 1.283 . S
C101 O127 1.283 . S
C101 O142 1.283 . S
C102 O128 1.283 . S
C102 O145 1.283 . S
C103 O129 1.283 . S
C103 O143 1.283 . S
C104 O130 1.283 . S
C104 O139 1.283 . S
C105 O131 1.283 . S
C105 O141 1.283 . S
C106 O132 1.283 . S
C106 O138 1.283 . S
C107 O133 1.283 . S
C107 O140 1.283 . S
C108 O134 1.283 . S
C108 O149 1.283 . S
C109 O135 1.283 . S
C109 O147 1.283 . S
C110 O136 1.283 . S
C110 O148 1.283 . S
C111 O137 1.283 . S
C111 O146 1.283 . S
Eu112 O113 2.370 . S
Eu112 O114 2.370 1_545 S
Eu112 O117 2.370 1_545 S
Eu112 O118 2.370 . S
Eu112 O126 2.363 1_545 S
Eu112 O127 2.363 . S
Eu112 O140 2.363 . S
Eu112 O141 2.363 . S
O113 Eu112 2.370 . S
O113 Eu115 2.370 . S
O113 Eu120 2.370 . S
O114 Eu112 2.370 1_565 S
O114 Eu116 2.370 1_565 S
O114 Eu119 2.370 . S
Eu115 O113 2.370 . S
Eu115 O117 2.370 1_545 S
Eu115 O121 2.370 1_545 S
Eu115 O122 2.370 . S
Eu115 O130 2.363 . S
Eu115 O131 2.363 . S
Eu115 O146 2.363 1_545 S
Eu115 O147 2.363 . S
Eu116 O114 2.370 1_545 S
Eu116 O118 2.370 . S
Eu116 O123 2.370 . S
Eu116 O124 2.370 1_545 S
Eu116 O132 2.363 . S
Eu116 O133 2.363 . S
Eu116 O148 2.363 1_545 S
Eu116 O149 2.363 . S
O117 Eu112 2.370 1_565 S
O117 Eu115 2.370 1_565 S
O117 Eu119 2.370 . S
O118 Eu112 2.370 . S
O118 Eu116 2.370 . S
O118 Eu120 2.370 . S
Eu119 O114 2.370 . S
Eu119 O117 2.370 . S
Eu119 O121 2.370 . S
Eu119 O124 2.370 . S
Eu119 O136 2.363 . S
Eu119 O137 2.363 . S
Eu119 O144 2.363 . S
Eu119 O145 2.363 . S
Eu120 O113 2.370 . S
Eu120 O118 2.370 . S
Eu120 O122 2.370 . S
Eu120 O123 2.370 . S
Eu120 O134 2.363 . S
Eu120 O135 2.363 . S
Eu120 O142 2.363 . S
Eu120 O143 2.363 . S
O121 Eu115 2.370 1_565 S
O121 Eu119 2.370 . S
O121 Eu125 2.370 1_565 S
O122 Eu115 2.370 . S
O122 Eu120 2.370 . S
O122 Eu125 2.370 . S
O123 Eu116 2.370 . S
O123 Eu120 2.370 . S
O123 Eu125 2.370 . S
O124 Eu116 2.370 1_565 S
O124 Eu119 2.370 . S
O124 Eu125 2.370 1_565 S
Eu125 O121 2.370 1_545 S
Eu125 O122 2.370 . S
Eu125 O123 2.370 . S
Eu125 O124 2.370 1_545 S
Eu125 O128 2.363 1_545 S
Eu125 O129 2.363 . S
Eu125 O138 2.363 . S
Eu125 O139 2.363 . S
O126 C100 1.283 . S
O126 Eu112 2.363 1_565 S
O127 C101 1.283 . S
O127 Eu112 2.363 . S
O128 C102 1.283 . S
O128 Eu125 2.363 1_565 S
O129 C103 1.283 . S
O129 Eu125 2.363 . S
O130 C104 1.283 . S
O130 Eu115 2.363 . S
O131 C105 1.283 . S
O131 Eu115 2.363 . S
O132 C106 1.283 . S
O132 Eu116 2.363 . S
O133 C107 1.283 . S
O133 Eu116 2.363 . S
O134 C108 1.283 . S
O134 Eu120 2.363 . S
O135 C109 1.283 . S
O135 Eu120 2.363 . S
O136 C110 1.283 . S
O136 Eu119 2.363 . S
O137 C111 1.283 . S
O137 Eu119 2.363 . S
O138 C106 1.283 . S
O138 Eu125 2.363 . S
O139 C104 1.283 . S
O139 Eu125 2.363 . S
O140 C107 1.283 . S
O140 Eu112 2.363 . S
O141 C105 1.283 . S
O141 Eu112 2.363 . S
O142 C101 1.283 . S
O142 Eu120 2.363 . S
O143 C103 1.283 . S
O143 Eu120 2.363 . S
O144 C100 1.283 . S
O144 Eu119 2.363 . S
O145 C102 1.283 . S
O145 Eu119 2.363 . S
O146 C111 1.283 . S
O146 Eu115 2.363 1_565 S
O147 C109 1.283 . S
O147 Eu115 2.363 . S
O148 C110 1.283 . S
O148 Eu116 2.363 1_565 S
O149 C108 1.283 . S
O149 Eu116 2.363 . S
C150 O176 1.283 . S
C150 O194 1.283 . S
C151 O177 1.283 . S
C151 O192 1.283 . S
C152 O178 1.283 . S
C152 O195 1.283 . S
C153 O179 1.283 . S
C153 O193 1.283 . S
C154 O180 1.283 . S
C154 O189 1.283 . S
C155 O181 1.283 . S
C155 O191 1.283 . S
C156 O182 1.283 . S
C156 O188 1.283 . S
C157 O183 1.283 . S
C157 O190 1.283 . S
C158 O184 1.283 . S
C158 O199 1.283 . S
C159 O185 1.283 . S
C159 O197 1.283 . S
C160 O186 1.283 . S
C160 O198 1.283 . S
C161 O187 1.283 . S
C161 O196 1.283 . S
Eu162 O163 2.370 . S
Eu162 O164 2.370 1_554 S
Eu162 O167 2.370 1_554 S
Eu162 O168 2.370 . S
Eu162 O176 2.363 1_554 S
Eu162 O177 2.363 . S
Eu162 O190 2.363 . S
Eu162 O191 2.363 . S
O163 Eu162 2.370 . S
O163 Eu165 2.370 . S
O163 Eu170 2.370 . S
O164 Eu162 2.370 1_556 S
O164 Eu166 2.370 1_556 S
O164 Eu169 2.370 . S
Eu165 O163 2.370 . S
Eu165 O167 2.370 1_554 S
Eu165 O171 2.370 1_554 S
Eu165 O172 2.370 . S
Eu165 O180 2.363 . S
Eu165 O181 2.363 . S
Eu165 O196 2.363 1_554 S
Eu165 O197 2.363 . S
Eu166 O164 2.370 1_554 S
Eu166 O168 2.370 . S
Eu166 O173 2.370 . S
Eu166 O174 2.370 1_554 S
Eu166 O182 2.363 . S
Eu166 O183 2.363 . S
Eu166 O198 2.363 1_554 S
Eu166 O199 2.363 . S
O167 Eu162 2.370 1_556 S
O167 Eu165 2.370 1_556 S
O167 Eu169 2.370 . S
O168 Eu162 2.370 . S
O168 Eu166 2.370 . S
O168 Eu170 2.370 . S
Eu169 O164 2.370 . S
Eu169 O167 2.370 . S
Eu169 O171 2.370 . S
Eu169 O174 2.370 . S
Eu169 O186 2.363 . S
Eu169 O187 2.363 . S
Eu169 O194 2.363 . S
Eu169 O195 2.363 . S
Eu170 O163 2.370 . S
Eu170 O168 2.370 . S
Eu170 O172 2.370 . S
Eu170 O173 2.370 . S
Eu170 O184 2.363 . S
Eu170 O185 2.363 . S
Eu170 O192 2.363 . S
Eu170 O193 2.363 . S
O171 Eu165 2.370 1_556 S
O171 Eu169 2.370 . S
O171 Eu175 2.370 1_556 S
O172 Eu165 2.370 . S
O172 Eu170 2.370 . S
O172 Eu175 2.370 . S
O173 Eu166 2.370 . S
O173 Eu170 2.370 . S
O173 Eu175 2.370 . S
O174 Eu166 2.370 1_556 S
O174 Eu169 2.370 . S
O174 Eu175 2.370 1_556 S
Eu175 O171 2.370 1_554 S
Eu175 O172 2.370 . S
Eu175 O173 2.370 . S
Eu175 O174 2.370 1_554 S
Eu175 O178 2.363 1_554 S
Eu175 O179 2.363 . S
Eu175 O188 2.363 . S
Eu175 O189 2.363 . S
O176 C150 1.283 . S
O176 Eu162 2.363 1_556 S
O177 C151 1.283 . S
O177 Eu162 2.363 . S
O178 C152 1.283 . S
O178 Eu175 2.363 1_556 S
O179 C153 1.283 . S
O179 Eu175 2.363 . S
O180 C154 1.283 . S
O180 Eu165 2.363 . S
O181 C155 1.283 . S
O181 Eu165 2.363 . S
O182 C156 1.283 . S
O182 Eu166 2.363 . S
O183 C157 1.283 . S
O183 Eu166 2.363 . S
O184 C158 1.283 . S
O184 Eu170 2.363 . S
O185 C159 1.283 . S
O185 Eu170 2.363 . S
O186 C160 1.283 . S
O186 Eu169 2.363 . S
O187 C161 1.283 . S
O187 Eu169 2.363 . S
O188 C156 1.283 . S
O188 Eu175 2.363 . S
O189 C154 1.283 . S
O189 Eu175 2.363 . S
O190 C157 1.283 . S
O190 Eu162 2.363 . S
O191 C155 1.283 . S
O191 Eu162 2.363 . S
O192 C151 1.283 . S
O192 Eu170 2.363 . S
O193 C153 1.283 . S
O193 Eu170 2.363 . S
O194 C150 1.283 . S
O194 Eu169 2.363 . S
O195 C152 1.283 . S
O195 Eu169 2.363 . S
O196 C161 1.283 . S
O196 Eu165 2.363 1_556 S
O197 C159 1.283 . S
O197 Eu165 2.363 . S
O198 C160 1.283 . S
O198 Eu166 2.363 1_556 S
O199 C158 1.283 . S
O199 Eu166 2.363 . S
C2 C52 1.498 . S
C11 C104 1.500 . S
C0 C53 1.500 . S
C106 C10 1.498 . S
C1 C51 1.502 . S
C8 C107 1.500 . S
C50 C3 1.500 . S
C105 C9 1.502 . S
C156 C6 1.498 . S
C157 C7 1.500 . S
C154 C4 1.500 . S
C5 C155 1.502 . S
C161 C57 1.502 . S
C55 C160 1.500 . S
C54 C158 1.498 . S
C159 C56 1.500 . S
C110 C59 1.500 . S
C61 C108 1.498 . S
C58 C111 1.502 . S
C109 C60 1.500 . S
C152 C101 1.500 . S
C100 C150 1.502 . S
C151 C102 1.500 . S
C103 C153 1.498 . S
