# Generated by pormake.
# Topology npo, (4)-cn, num edge types: 1
# Building blocks:
#     Node 0, Type 0, BuildingBlock: GALJAG_clean_sbu_0, # of connection points: 4
#     Node 1, Type 0, BuildingBlock: GALJAG_clean_sbu_0, # of connection points: 4
#     Node 2, Type 0, BuildingBlock: GALJAG_clean_sbu_0, # of connection points: 4
#     Node 3, Type 0, BuildingBlock: GALJAG_clean_sbu_0, # of connection points: 4
#     Node 4, Type 0, BuildingBlock: GALJAG_clean_sbu_0, # of connection points: 4
#     Node 5, Type 0, BuildingBlock: GALJAG_clean_sbu_0, # of connection points: 4
#     Edge 6, Type (0, 0), BuildingBlock: OJICUG_clean_linker_0, # of connection points: 2
#     Edge 7, Type (0, 0), BuildingBlock: OJICUG_clean_linker_0, # of connection points: 2
#     Edge 8, Type (0, 0), BuildingBlock: OJICUG_clean_linker_0, # of connection points: 2
#     Edge 9, Type (0, 0), BuildingBlock: OJICUG_clean_linker_0, # of connection points: 2
#     Edge 10, Type (0, 0), BuildingBlock: OJICUG_clean_linker_0, # of connection points: 2
#     Edge 11, Type (0, 0), BuildingBlock: OJICUG_clean_linker_0, # of connection points: 2
#     Edge 12, Type (0, 0), BuildingBlock: OJICUG_clean_linker_0, # of connection points: 2
#     Edge 13, Type (0, 0), BuildingBlock: OJICUG_clean_linker_0, # of connection points: 2
#     Edge 14, Type (0, 0), BuildingBlock: OJICUG_clean_linker_0, # of connection points: 2
#     Edge 15, Type (0, 0), BuildingBlock: OJICUG_clean_linker_0, # of connection points: 2
#     Edge 16, Type (0, 0), BuildingBlock: OJICUG_clean_linker_0, # of connection points: 2
#     Edge 17, Type (0, 0), BuildingBlock: OJICUG_clean_linker_0, # of connection points: 2
# Relax obj value: 0.168
# Max RMSD: 0.203
# Mean RMSD: 0.203
data_MOF--net-npo--node1-GALJAG_clean_sbu_0--edge1-OJICUG_clean_linker_0
_symmetry_space_group_name_H-M    P1
_symmetry_Int_Tables_number       1
_symmetry_cell_setting            triclinic
loop_
_symmetry_equiv_pos_as_xyz
'x, y, z'
_cell_length_a     34.697527
_cell_length_b     35.058678
_cell_length_c     16.295854
_cell_angle_alpha  90.370485
_cell_angle_beta   89.947666
_cell_angle_gamma 120.41096
loop_
_atom_site_label
_atom_site_type_symbol
_atom_site_fract_x
_atom_site_fract_y
_atom_site_fract_z
_atom_type_partial_charge
In0 In 0.55215 0.11299 0.25279 0.0
O1 O 0.49925 0.06654 0.16149 0.0
O2 O 0.56125 0.06796 0.16369 0.0
C3 C 0.52107 0.16966 0.25884 0.0
C4 C 0.52647 0.05683 0.38015 0.0
C5 C 0.63873 0.17613 0.23622 0.0
O6 O 0.52219 0.15094 0.19322 0.0
O7 O 0.53427 0.15868 0.32168 0.0
O8 O 0.62128 0.16098 0.3052 0.0
O9 O 0.61291 0.15834 0.17578 0.0
C10 C 0.52273 0.0515 0.13269 0.0
O11 O 0.56496 0.07367 0.3491 0.0
O12 O 0.50149 0.0691 0.34809 0.0
In13 In 0.41538 0.54437 0.75105 0.0
O14 O 0.40628 0.49037 0.66144 0.0
O15 O 0.46847 0.55088 0.66079 0.0
C16 C 0.32872 0.52068 0.73462 0.0
C17 C 0.44107 0.51402 0.87876 0.0
C18 C 0.44652 0.6322 0.75693 0.0
O19 O 0.35438 0.52886 0.67415 0.0
O20 O 0.34637 0.52297 0.80353 0.0
O21 O 0.43372 0.60815 0.81987 0.0
O22 O 0.44493 0.61218 0.69126 0.0
C23 C 0.44494 0.51242 0.63132 0.0
O24 O 0.46591 0.55146 0.84735 0.0
O25 O 0.40272 0.49209 0.84685 0.0
In26 In 0.8572 0.43186 0.19023 0.0
O27 O 0.89645 0.42191 0.08907 0.0
O28 O 0.89801 0.4833 0.09337 0.0
C29 C 0.79911 0.34433 0.20311 0.0
C30 C 0.92168 0.46482 0.30553 0.0
C31 C 0.79438 0.45544 0.19838 0.0
O32 O 0.81081 0.3637 0.13487 0.0
O33 O 0.81779 0.36889 0.26461 0.0
O34 O 0.81525 0.45421 0.26067 0.0
O35 O 0.8065 0.44652 0.13146 0.0
C36 C 0.9113 0.45979 0.05859 0.0
O37 O 0.90424 0.4863 0.27848 0.0
O38 O 0.9062 0.42664 0.27505 0.0
In39 In 0.43138 0.86182 0.74962 0.0
O40 O 0.42006 0.90102 0.84876 0.0
O41 O 0.48381 0.90626 0.84365 0.0
C42 C 0.34339 0.80324 0.73203 0.0
C43 C 0.46243 0.92323 0.63079 0.0
C44 C 0.45638 0.80042 0.75641 0.0
O45 O 0.36125 0.81848 0.80105 0.0
O46 O 0.36972 0.81843 0.6719 0.0
O47 O 0.45648 0.81918 0.69052 0.0
O48 O 0.44546 0.81398 0.81915 0.0
C49 C 0.45901 0.91822 0.8781 0.0
O50 O 0.48504 0.90708 0.65857 0.0
O51 O 0.42418 0.90787 0.66205 0.0
In52 In 0.53658 0.41463 0.24906 0.0
O53 O 0.483 0.40595 0.15714 0.0
O54 O 0.54343 0.46806 0.16234 0.0
C55 C 0.62446 0.44425 0.23004 0.0
C56 C 0.50892 0.44316 0.37753 0.0
C57 C 0.5117 0.32826 0.2572 0.0
O58 O 0.60726 0.44252 0.29921 0.0
O59 O 0.59752 0.43211 0.17047 0.0
O60 O 0.52351 0.35328 0.31941 0.0
O61 O 0.51069 0.34637 0.19121 0.0
C62 C 0.50534 0.4449 0.1302 0.0
O63 O 0.48405 0.40653 0.34231 0.0
O64 O 0.54798 0.4649 0.34898 0.0
In65 In 0.11024 0.55773 0.69145 0.0
O66 O 0.06106 0.50362 0.77601 0.0
O67 O 0.06353 0.56548 0.77935 0.0
C68 C 0.16814 0.52805 0.70299 0.0
C69 C 0.05604 0.53176 0.55945 0.0
C70 C 0.17332 0.64412 0.70093 0.0
O71 O 0.14943 0.53343 0.76478 0.0
O72 O 0.15653 0.5363 0.63511 0.0
O73 O 0.1605 0.62347 0.63358 0.0
O74 O 0.15304 0.62163 0.76309 0.0
C75 C 0.04585 0.52654 0.8063 0.0
O76 O 0.06972 0.56869 0.59423 0.0
O77 O 0.07053 0.50847 0.59017 0.0
C78 C 0.50183 0.22075 0.1871 0.0
C79 C 0.51059 0.20558 0.26041 0.0
H80 H 0.49482 0.27147 0.12871 0.0
C81 C 0.51389 0.22806 0.33411 0.0
H82 H 0.49896 0.20399 0.12938 0.0
C83 C 0.51149 0.26665 0.33373 0.0
C84 C 0.50575 0.28348 0.25964 0.0
H85 H 0.5204 0.21702 0.39164 0.0
H86 H 0.51627 0.28441 0.39098 0.0
C87 C 0.49943 0.25937 0.18672 0.0
C88 C 0.26715 0.51602 0.64793 0.0
C89 C 0.2836 0.51461 0.72591 0.0
H90 H 0.21724 0.52093 0.57947 0.0
C91 C 0.25868 0.51214 0.79572 0.0
H92 H 0.28555 0.51775 0.59299 0.0
C93 C 0.21956 0.514 0.78796 0.0
C94 C 0.20469 0.51831 0.71027 0.0
H95 H 0.27048 0.51089 0.8566 0.0
H96 H 0.20212 0.51409 0.84308 0.0
C97 C 0.22802 0.51783 0.64018 0.0
C98 C 0.70014 0.23266 0.14919 0.0
C99 C 0.68379 0.21528 0.22735 0.0
H100 H 0.74993 0.28714 0.08019 0.0
C101 C 0.70873 0.2383 0.29703 0.0
H102 H 0.68172 0.21554 0.09434 0.0
C103 C 0.74779 0.27935 0.28891 0.0
C104 C 0.76257 0.29802 0.21097 0.0
H105 H 0.697 0.22563 0.35804 0.0
H106 H 0.76525 0.29731 0.34388 0.0
C107 C 0.73921 0.27366 0.14107 0.0
C108 C 0.45725 0.73921 0.83241 0.0
C109 C 0.46225 0.76154 0.75835 0.0
H110 H 0.44876 0.68078 0.89009 0.0
C111 C 0.4677 0.74345 0.6851 0.0
H112 H 0.45315 0.75243 0.8899 0.0
C113 C 0.46516 0.70236 0.6852 0.0
C114 C 0.45713 0.67867 0.75856 0.0
H115 H 0.47173 0.75997 0.62709 0.0
H116 H 0.46736 0.68824 0.62729 0.0
C117 C 0.4547 0.69815 0.83251 0.0
C118 C 0.6983 0.46274 0.28974 0.0
C119 C 0.67113 0.45477 0.22047 0.0
H120 H 0.75913 0.46972 0.33688 0.0
C121 C 0.68747 0.45268 0.14266 0.0
H122 H 0.68666 0.4647 0.35046 0.0
C123 C 0.72899 0.45563 0.13485 0.0
C124 C 0.75486 0.46067 0.20474 0.0
H125 H 0.66734 0.4468 0.0881 0.0
H126 H 0.7398 0.45184 0.07451 0.0
C127 C 0.73982 0.46565 0.28195 0.0
C128 C 0.27953 0.74893 0.64514 0.0
C129 C 0.29668 0.76694 0.72301 0.0
H130 H 0.22653 0.696 0.57698 0.0
C131 C 0.27029 0.7472 0.79267 0.0
H132 H 0.29904 0.76358 0.59031 0.0
C133 C 0.22875 0.7085 0.78503 0.0
C134 C 0.21289 0.68891 0.7076 0.0
H135 H 0.28258 0.76047 0.85346 0.0
H136 H 0.21005 0.69285 0.84015 0.0
C137 C 0.23798 0.71026 0.63749 0.0
C138 C 0.51864 0.96972 0.97546 0.0
C139 C 0.47487 0.95123 0.94509 0.0
H140 H 0.56814 0.01607 0.05876 0.0
C141 C 0.44681 0.96561 0.97744 0.0
H142 H 0.54102 0.95928 0.95157 0.0
C143 C 0.46238 -0.00177 0.03847 0.0
C144 C 0.50626 0.01698 0.06838 0.0
H145 H 0.41292 0.95198 0.95508 0.0
H146 H 0.44007 0.00883 0.06204 0.0
C147 C 0.53418 0.00227 0.03666 0.0
C148 C 0.4491 0.43494 0.47376 0.0
C149 C 0.49301 0.4602 0.44441 0.0
H150 H 0.39943 0.43175 0.55602 0.0
C151 C 0.52115 0.50254 0.47761 0.0
H152 H 0.42666 0.40221 0.4492 0.0
C153 C 0.50551 0.51953 0.53843 0.0
C154 C 0.46149 0.49443 0.56728 0.0
H155 H 0.55515 0.52278 0.45606 0.0
H156 H 0.52788 0.55236 0.56266 0.0
C157 C 0.43349 0.45189 0.53474 0.0
C158 C -0.00533 0.53592 0.90156 0.0
C159 C 0.01025 0.50909 0.86864 0.0
H160 H 0.95078 0.5412 -0.01262 0.0
C161 C -0.00827 0.46541 0.89622 0.0
H162 H 0.00824 0.56968 0.88116 0.0
C163 C 0.95882 0.4491 0.95673 0.0
C164 C 0.94382 0.47617 -0.00921 0.0
H165 H 0.00297 0.44391 0.87166 0.0
H166 H 0.94561 0.41548 0.97764 0.0
C167 C 0.96172 0.5196 0.96215 0.0
C168 C 0.46775 0.00643 0.47832 0.0
C169 C 0.51097 0.0238 0.44625 0.0
H170 H 0.41856 0.96096 0.56172 0.0
C171 C 0.53845 0.00819 0.47586 0.0
H172 H 0.4458 0.01781 0.45662 0.0
C173 C 0.52275 0.97542 0.53595 0.0
C174 C 0.47936 0.95782 0.56745 0.0
H175 H 0.5719 0.02094 0.45206 0.0
H176 H 0.54451 0.9638 0.5575 0.0
C177 C 0.45212 0.9738 0.53838 0.0
C178 C 0.42937 0.45327 0.97384 0.0
C179 C 0.45659 0.4966 0.94511 0.0
H180 H 0.42357 0.40275 0.05497 0.0
C181 C 0.4996 0.5228 0.97832 0.0
H182 H 0.39608 0.43231 0.94916 0.0
C183 C 0.51529 0.50593 0.03859 0.0
C184 C 0.48833 0.46247 0.06674 0.0
H185 H 0.52135 0.55631 0.95734 0.0
H186 H 0.54869 0.52691 0.0628 0.0
C187 C 0.44513 0.43632 0.03414 0.0
C188 C 0.0082 0.47367 0.45707 0.0
C189 C 0.02356 0.51583 0.49129 0.0
H190 H 0.96384 0.42448 0.37144 0.0
C191 C 0.00607 0.54166 0.46239 0.0
H192 H 0.02109 0.45302 0.47817 0.0
C193 C 0.97318 0.52527 0.40137 0.0
C194 C 0.95725 0.48277 0.36827 0.0
H195 H 0.01729 0.57428 0.48774 0.0
H196 H 0.95993 0.54568 0.38077 0.0
C197 C 0.97536 0.45729 0.39612 0.0
loop_
_geom_bond_atom_site_label_1
_geom_bond_atom_site_label_2
_geom_bond_distance
_geom_bond_site_symmetry_2
_ccdc_geom_bond_type
In0 O1 2.294 . S
In0 O2 2.326 . S
In0 O6 2.266 . S
In0 O7 2.326 . S
In0 O8 2.266 . S
In0 O9 2.326 . S
In0 O11 2.294 . S
In0 O12 2.326 . S
O1 In0 2.294 . S
O1 C10 1.240 . S
O2 In0 2.326 . S
O2 C10 1.252 . S
C3 O6 1.252 . S
C3 O7 1.260 . S
C4 O11 1.240 . S
C4 O12 1.252 . S
C5 O8 1.252 . S
C5 O9 1.260 . S
O6 In0 2.266 . S
O6 C3 1.252 . S
O7 In0 2.326 . S
O7 C3 1.260 . S
O8 In0 2.266 . S
O8 C5 1.252 . S
O9 In0 2.326 . S
O9 C5 1.260 . S
C10 O1 1.240 . S
C10 O2 1.252 . S
O11 In0 2.294 . S
O11 C4 1.240 . S
O12 In0 2.326 . S
O12 C4 1.252 . S
In13 O14 2.294 . S
In13 O15 2.326 . S
In13 O19 2.266 . S
In13 O20 2.326 . S
In13 O21 2.266 . S
In13 O22 2.326 . S
In13 O24 2.294 . S
In13 O25 2.326 . S
O14 In13 2.294 . S
O14 C23 1.240 . S
O15 In13 2.326 . S
O15 C23 1.252 . S
C16 O19 1.252 . S
C16 O20 1.260 . S
C17 O24 1.240 . S
C17 O25 1.252 . S
C18 O21 1.252 . S
C18 O22 1.260 . S
O19 In13 2.266 . S
O19 C16 1.252 . S
O20 In13 2.326 . S
O20 C16 1.260 . S
O21 In13 2.266 . S
O21 C18 1.252 . S
O22 In13 2.326 . S
O22 C18 1.260 . S
C23 O14 1.240 . S
C23 O15 1.252 . S
O24 In13 2.294 . S
O24 C17 1.240 . S
O25 In13 2.326 . S
O25 C17 1.252 . S
In26 O27 2.294 . S
In26 O28 2.326 . S
In26 O32 2.266 . S
In26 O33 2.326 . S
In26 O34 2.266 . S
In26 O35 2.326 . S
In26 O37 2.294 . S
In26 O38 2.326 . S
O27 In26 2.294 . S
O27 C36 1.240 . S
O28 In26 2.326 . S
O28 C36 1.252 . S
C29 O32 1.252 . S
C29 O33 1.260 . S
C30 O37 1.240 . S
C30 O38 1.252 . S
C31 O34 1.252 . S
C31 O35 1.260 . S
O32 In26 2.266 . S
O32 C29 1.252 . S
O33 In26 2.326 . S
O33 C29 1.260 . S
O34 In26 2.266 . S
O34 C31 1.252 . S
O35 In26 2.326 . S
O35 C31 1.260 . S
C36 O27 1.240 . S
C36 O28 1.252 . S
O37 In26 2.294 . S
O37 C30 1.240 . S
O38 In26 2.326 . S
O38 C30 1.252 . S
In39 O40 2.294 . S
In39 O41 2.326 . S
In39 O45 2.266 . S
In39 O46 2.326 . S
In39 O47 2.266 . S
In39 O48 2.326 . S
In39 O50 2.294 . S
In39 O51 2.326 . S
O40 In39 2.294 . S
O40 C49 1.240 . S
O41 In39 2.326 . S
O41 C49 1.252 . S
C42 O45 1.252 . S
C42 O46 1.260 . S
C43 O50 1.240 . S
C43 O51 1.252 . S
C44 O47 1.252 . S
C44 O48 1.260 . S
O45 In39 2.266 . S
O45 C42 1.252 . S
O46 In39 2.326 . S
O46 C42 1.260 . S
O47 In39 2.266 . S
O47 C44 1.252 . S
O48 In39 2.326 . S
O48 C44 1.260 . S
C49 O40 1.240 . S
C49 O41 1.252 . S
O50 In39 2.294 . S
O50 C43 1.240 . S
O51 In39 2.326 . S
O51 C43 1.252 . S
In52 O53 2.294 . S
In52 O54 2.326 . S
In52 O58 2.266 . S
In52 O59 2.326 . S
In52 O60 2.266 . S
In52 O61 2.326 . S
In52 O63 2.294 . S
In52 O64 2.326 . S
O53 In52 2.294 . S
O53 C62 1.240 . S
O54 In52 2.326 . S
O54 C62 1.252 . S
C55 O58 1.252 . S
C55 O59 1.260 . S
C56 O63 1.240 . S
C56 O64 1.252 . S
C57 O60 1.252 . S
C57 O61 1.260 . S
O58 In52 2.266 . S
O58 C55 1.252 . S
O59 In52 2.326 . S
O59 C55 1.260 . S
O60 In52 2.266 . S
O60 C57 1.252 . S
O61 In52 2.326 . S
O61 C57 1.260 . S
C62 O53 1.240 . S
C62 O54 1.252 . S
O63 In52 2.294 . S
O63 C56 1.240 . S
O64 In52 2.326 . S
O64 C56 1.252 . S
In65 O66 2.294 . S
In65 O67 2.326 . S
In65 O71 2.266 . S
In65 O72 2.326 . S
In65 O73 2.266 . S
In65 O74 2.326 . S
In65 O76 2.294 . S
In65 O77 2.326 . S
O66 In65 2.294 . S
O66 C75 1.240 . S
O67 In65 2.326 . S
O67 C75 1.252 . S
C68 O71 1.252 . S
C68 O72 1.260 . S
C69 O76 1.240 . S
C69 O77 1.252 . S
C70 O73 1.252 . S
C70 O74 1.260 . S
O71 In65 2.266 . S
O71 C68 1.252 . S
O72 In65 2.326 . S
O72 C68 1.260 . S
O73 In65 2.266 . S
O73 C70 1.252 . S
O74 In65 2.326 . S
O74 C70 1.260 . S
C75 O66 1.240 . S
C75 O67 1.252 . S
O76 In65 2.294 . S
O76 C69 1.240 . S
O77 In65 2.326 . S
O77 C69 1.252 . S
C78 C79 1.387 . S
C78 H82 0.950 . S
C78 C87 1.390 . S
C79 C78 1.387 . S
C79 C81 1.387 . S
H80 C87 0.950 . S
C81 C79 1.387 . S
C81 C83 1.390 . S
C81 H85 0.950 . S
H82 C78 0.950 . S
C83 C81 1.390 . S
C83 C84 1.387 . S
C83 H86 0.950 . S
C84 C83 1.387 . S
C84 C87 1.387 . S
H85 C81 0.950 . S
H86 C83 0.950 . S
C87 C78 1.390 . S
C87 H80 0.950 . S
C87 C84 1.387 . S
C88 C89 1.387 . S
C88 H92 0.950 . S
C88 C97 1.390 . S
C89 C88 1.387 . S
C89 C91 1.387 . S
H90 C97 0.950 . S
C91 C89 1.387 . S
C91 C93 1.390 . S
C91 H95 0.950 . S
H92 C88 0.950 . S
C93 C91 1.390 . S
C93 C94 1.387 . S
C93 H96 0.950 . S
C94 C93 1.387 . S
C94 C97 1.387 . S
H95 C91 0.950 . S
H96 C93 0.950 . S
C97 C88 1.390 . S
C97 H90 0.950 . S
C97 C94 1.387 . S
C98 C99 1.387 . S
C98 H102 0.950 . S
C98 C107 1.390 . S
C99 C98 1.387 . S
C99 C101 1.387 . S
H100 C107 0.950 . S
C101 C99 1.387 . S
C101 C103 1.390 . S
C101 H105 0.950 . S
H102 C98 0.950 . S
C103 C101 1.390 . S
C103 C104 1.387 . S
C103 H106 0.950 . S
C104 C103 1.387 . S
C104 C107 1.387 . S
H105 C101 0.950 . S
H106 C103 0.950 . S
C107 C98 1.390 . S
C107 H100 0.950 . S
C107 C104 1.387 . S
C108 C109 1.387 . S
C108 H112 0.950 . S
C108 C117 1.390 . S
C109 C108 1.387 . S
C109 C111 1.387 . S
H110 C117 0.950 . S
C111 C109 1.387 . S
C111 C113 1.390 . S
C111 H115 0.950 . S
H112 C108 0.950 . S
C113 C111 1.390 . S
C113 C114 1.387 . S
C113 H116 0.950 . S
C114 C113 1.387 . S
C114 C117 1.387 . S
H115 C111 0.950 . S
H116 C113 0.950 . S
C117 C108 1.390 . S
C117 H110 0.950 . S
C117 C114 1.387 . S
C118 C119 1.387 . S
C118 H122 0.950 . S
C118 C127 1.390 . S
C119 C118 1.387 . S
C119 C121 1.387 . S
H120 C127 0.950 . S
C121 C119 1.387 . S
C121 C123 1.390 . S
C121 H125 0.950 . S
H122 C118 0.950 . S
C123 C121 1.390 . S
C123 C124 1.387 . S
C123 H126 0.950 . S
C124 C123 1.387 . S
C124 C127 1.387 . S
H125 C121 0.950 . S
H126 C123 0.950 . S
C127 C118 1.390 . S
C127 H120 0.950 . S
C127 C124 1.387 . S
C128 C129 1.387 . S
C128 H132 0.950 . S
C128 C137 1.390 . S
C129 C128 1.387 . S
C129 C131 1.387 . S
H130 C137 0.950 . S
C131 C129 1.387 . S
C131 C133 1.390 . S
C131 H135 0.950 . S
H132 C128 0.950 . S
C133 C131 1.390 . S
C133 C134 1.387 . S
C133 H136 0.950 . S
C134 C133 1.387 . S
C134 C137 1.387 . S
H135 C131 0.950 . S
H136 C133 0.950 . S
C137 C128 1.390 . S
C137 H130 0.950 . S
C137 C134 1.387 . S
C138 C139 1.387 . S
C138 H142 0.950 . S
C138 C147 1.390 1_566 S
C139 C138 1.387 . S
C139 C141 1.387 . S
H140 C147 0.950 . S
C141 C139 1.387 . S
C141 C143 1.390 1_566 S
C141 H145 0.950 . S
H142 C138 0.950 . S
C143 C141 1.390 1_544 S
C143 C144 1.387 . S
C143 H146 0.950 . S
C144 C143 1.387 . S
C144 C147 1.387 . S
H145 C141 0.950 . S
H146 C143 0.950 . S
C147 C138 1.390 1_544 S
C147 H140 0.950 . S
C147 C144 1.387 . S
C148 C149 1.387 . S
C148 H152 0.950 . S
C148 C157 1.390 . S
C149 C148 1.387 . S
C149 C151 1.387 . S
H150 C157 0.950 . S
C151 C149 1.387 . S
C151 C153 1.390 . S
C151 H155 0.950 . S
H152 C148 0.950 . S
C153 C151 1.390 . S
C153 C154 1.387 . S
C153 H156 0.950 . S
C154 C153 1.387 . S
C154 C157 1.387 . S
H155 C151 0.950 . S
H156 C153 0.950 . S
C157 C148 1.390 . S
C157 H150 0.950 . S
C157 C154 1.387 . S
C158 C159 1.387 . S
C158 H162 0.950 . S
C158 C167 1.390 1_456 S
C159 C158 1.387 . S
C159 C161 1.387 . S
H160 C167 0.950 . S
C161 C159 1.387 . S
C161 C163 1.390 1_456 S
C161 H165 0.950 . S
H162 C158 0.950 . S
C163 C161 1.390 1_654 S
C163 C164 1.387 . S
C163 H166 0.950 . S
C164 C163 1.387 . S
C164 C167 1.387 . S
H165 C161 0.950 . S
H166 C163 0.950 . S
C167 C158 1.390 1_654 S
C167 H160 0.950 . S
C167 C164 1.387 . S
C168 C169 1.387 . S
C168 H172 0.950 . S
C168 C177 1.390 1_545 S
C169 C168 1.387 . S
C169 C171 1.387 . S
H170 C177 0.950 . S
C171 C169 1.387 . S
C171 C173 1.390 1_545 S
C171 H175 0.950 . S
H172 C168 0.950 . S
C173 C171 1.390 1_565 S
C173 C174 1.387 . S
C173 H176 0.950 . S
C174 C173 1.387 . S
C174 C177 1.387 . S
H175 C171 0.950 . S
H176 C173 0.950 . S
C177 C168 1.390 1_565 S
C177 H170 0.950 . S
C177 C174 1.387 . S
C178 C179 1.387 . S
C178 H182 0.950 . S
C178 C187 1.390 . S
C179 C178 1.387 . S
C179 C181 1.387 1_556 S
H180 C187 0.950 . S
C181 C179 1.387 1_554 S
C181 C183 1.390 . S
C181 H185 0.950 . S
H182 C178 0.950 . S
C183 C181 1.390 . S
C183 C184 1.387 . S
C183 H186 0.950 . S
C184 C183 1.387 . S
C184 C187 1.387 1_554 S
H185 C181 0.950 . S
H186 C183 0.950 . S
C187 C178 1.390 . S
C187 H180 0.950 . S
C187 C184 1.387 1_556 S
C188 C189 1.387 . S
C188 H192 0.950 . S
C188 C197 1.390 1_455 S
C189 C188 1.387 . S
C189 C191 1.387 . S
H190 C197 0.950 . S
C191 C189 1.387 . S
C191 C193 1.390 1_455 S
C191 H195 0.950 . S
H192 C188 0.950 . S
C193 C191 1.390 1_655 S
C193 C194 1.387 . S
C193 H196 0.950 . S
C194 C193 1.387 . S
C194 C197 1.387 . S
H195 C191 0.950 . S
H196 C193 0.950 . S
C197 C188 1.390 1_655 S
C197 H190 0.950 . S
C197 C194 1.387 . S
C79 C3 1.313 . S
C84 C57 1.315 . S
C89 C16 1.313 . S
C94 C68 1.313 . S
C99 C5 1.315 . S
C104 C29 1.314 . S
C109 C44 1.315 . S
C114 C18 1.313 . S
C119 C55 1.313 . S
C124 C31 1.313 . S
C129 C42 1.316 . S
C134 C70 1.314 . S
C139 C49 1.462 . S
C144 C10 1.462 . S
C149 C56 1.462 . S
C154 C23 1.462 . S
C159 C75 1.462 . S
C164 C36 1.462 . S
C169 C4 1.462 . S
C174 C43 1.462 . S
C179 C17 1.462 . S
C184 C62 1.461 . S
C189 C69 1.462 . S
C194 C30 1.462 . S
