# Generated by pormake.
# Topology kag, (6)-cn, num edge types: 1
# Building blocks:
#     Node 0, Type 0, BuildingBlock: BETDEL_clean_sbu_0, # of connection points: 6
#     Node 1, Type 0, BuildingBlock: BETDEL_clean_sbu_0, # of connection points: 6
#     Node 2, Type 0, BuildingBlock: BETDEL_clean_sbu_0, # of connection points: 6
#     Edge 3, Type (0, 0), BuildingBlock: XIVTED_clean_linker_0, # of connection points: 2
#     Edge 4, Type (0, 0), BuildingBlock: XIVTED_clean_linker_0, # of connection points: 2
#     Edge 5, Type (0, 0), BuildingBlock: XIVTED_clean_linker_0, # of connection points: 2
#     Edge 6, Type (0, 0), BuildingBlock: XIVTED_clean_linker_0, # of connection points: 2
#     Edge 7, Type (0, 0), BuildingBlock: XIVTED_clean_linker_0, # of connection points: 2
#     Edge 8, Type (0, 0), BuildingBlock: XIVTED_clean_linker_0, # of connection points: 2
#     Edge 9, Type (0, 0), BuildingBlock: XIVTED_clean_linker_0, # of connection points: 2
#     Edge 10, Type (0, 0), BuildingBlock: XIVTED_clean_linker_0, # of connection points: 2
#     Edge 11, Type (0, 0), BuildingBlock: XIVTED_clean_linker_0, # of connection points: 2
# Relax obj value: 0.013
# Max RMSD: 0.059
# Mean RMSD: 0.043
data_MOF--net-kag--node1-BETDEL_clean_sbu_0--edge1-XIVTED_clean_linker_0
_symmetry_space_group_name_H-M    P1
_symmetry_Int_Tables_number       1
_symmetry_cell_setting            triclinic
loop_
_symmetry_equiv_pos_as_xyz
'x, y, z'
_cell_length_a     31.27862
_cell_length_b     33.585653
_cell_length_c     14.669677
_cell_angle_alpha  95.084057
_cell_angle_beta   90.85409
_cell_angle_gamma 113.29058
loop_
_atom_site_label
_atom_site_type_symbol
_atom_site_fract_x
_atom_site_fract_y
_atom_site_fract_z
_atom_type_partial_charge
Dy0 Dy 0.98586 0.46277 0.99642 0.0
C1 C 0.08921 0.64646 1.00409 0.0
C2 C 0.92738 0.37677 0.99717 0.0
Dy3 Dy 0.03167 0.56042 0.00861 0.0
O4 O 0.93707 0.39832 0.92607 0.0
O5 O 0.95037 0.4021 0.06934 0.0
O6 O 0.01719 0.45916 0.8623 0.0
O7 O 0.99571 0.51029 0.89664 0.0
C8 C 0.01477 0.49426 0.83693 0.0
C9 C 1.00282 0.52884 0.16824 0.0
O10 O 0.95937 0.55402 0.97502 0.0
O11 O 0.92638 0.48369 0.01659 0.0
O12 O 0.07808 0.62637 0.07702 0.0
O13 O 0.06823 0.61963 0.93236 0.0
O14 O 1.0005 0.56402 0.14306 0.0
O15 O 0.02194 0.51297 0.10839 0.0
O16 O 0.05806 0.4688 0.02932 0.0
O17 O 0.09145 0.53967 0.99056 0.0
C18 C 0.92263 0.51966 0.99445 0.0
C19 C 0.09494 0.50334 0.01106 0.0
Dy20 Dy 0.56029 0.03617 1.0027 0.0
C21 C 0.36736 0.92764 0.013 0.0
C22 C 0.64931 0.09482 0.98189 0.0
Dy23 Dy 0.45687 0.98744 1.00225 0.0
O24 O 0.63467 0.07509 0.05433 0.0
O25 O 0.6155 0.08161 0.91913 0.0
O26 O 0.56895 0.01002 0.13283 0.0
O27 O 0.51008 0.0242 0.11081 0.0
C28 C 0.53014 1.00893 0.16501 0.0
C29 C 0.48811 0.01565 0.84097 0.0
O30 O 0.457 0.0525 0.0472 0.0
O31 O 0.53394 0.08993 0.01242 0.0
O32 O 0.38767 0.94019 0.93825 0.0
O33 O 0.39575 0.94845 0.08322 0.0
O34 O 0.44986 0.01571 0.87378 0.0
O35 O 0.50723 0.99931 0.89452 0.0
O36 O 0.558 0.97023 0.95525 0.0
O37 O 0.48471 0.93551 0.00929 0.0
C38 C 0.49291 0.08923 0.03651 0.0
C39 C 0.52392 0.93464 0.97821 0.0
Dy40 Dy 0.52473 0.5578 1.00502 0.0
C41 C 0.47544 0.37933 0.04727 0.0
C42 C 0.53738 0.64251 0.99317 0.0
Dy43 Dy 0.48972 0.46142 0.0067 0.0
O44 O 0.52204 0.62055 0.0624 0.0
O45 O 0.54635 0.6182 0.92864 0.0
O46 O 0.55967 0.56581 0.14365 0.0
O47 O 0.4951 0.51359 0.11097 0.0
C48 C 0.52783 0.53144 0.1717 0.0
C49 C 0.48802 0.48596 0.83766 0.0
O50 O 0.42499 0.47066 0.04229 0.0
O51 O 0.44766 0.53426 0.97315 0.0
O52 O 0.45231 0.38828 0.98376 0.0
O53 O 0.50587 0.4152 0.08935 0.0
O54 O 0.45829 0.44989 0.8638 0.0
O55 O 0.51946 0.50519 0.90027 0.0
O56 O 0.59304 0.55371 0.98074 0.0
O57 O 0.56763 0.48188 0.01345 0.0
C58 C 0.41493 0.50107 0.00727 0.0
C59 C 0.60138 0.51914 0.99625 0.0
H60 H 0.98939 0.55297 0.75734 0.0
H61 H 0.02856 0.4703 0.24773 0.0
H62 H 0.04364 0.45435 0.69628 0.0
H63 H 0.97382 0.56854 0.30895 0.0
H64 H 0.03331 0.46307 0.41192 0.0
H65 H 0.98474 0.56021 0.59318 0.0
C66 C 1.00074 0.53318 0.70937 0.0
C67 C 0.01669 0.50289 0.74006 0.0
C68 C 0.02008 0.48609 0.38939 0.0
C69 C 0.01099 0.51051 0.55263 0.0
C70 C 0.01713 0.49 0.29574 0.0
C71 C 1.001 0.52019 0.26509 0.0
C72 C 1.00681 0.51258 0.45252 0.0
C73 C 0.98666 0.54499 0.32992 0.0
C74 C 0.99784 0.5371 0.61572 0.0
C75 C 0.03093 0.47799 0.67527 0.0
N76 N 0.9901 0.5408 0.42061 0.0
N77 N 0.02754 0.48219 0.58456 0.0
H78 H 0.57632 0.9846 0.29278 0.0
H79 H 0.44237 0.04059 0.71337 0.0
H80 H 0.465 0.0283 0.26098 0.0
H81 H 0.55278 0.99568 0.74478 0.0
H82 H 0.45104 0.03751 0.54801 0.0
H83 H 0.56763 0.98768 0.45811 0.0
C84 C 0.54976 0.99454 0.32067 0.0
C85 C 0.52144 1.0064 0.26331 0.0
C86 C 0.47351 0.02846 0.59093 0.0
C87 C 0.51158 0.0104 0.45268 0.0
C88 C 0.46873 0.0304 0.6854 0.0
C89 C 0.49679 0.01819 0.74265 0.0
C90 C 0.50663 0.01419 0.55327 0.0
C91 C 0.53042 1.00533 0.70295 0.0
C92 C 0.54495 0.99645 0.41513 0.0
C93 C 0.48755 0.01891 0.30291 0.0
N94 N 0.53427 1.00347 0.61056 0.0
N95 N 0.4837 0.02079 0.3953 0.0
H96 H 0.4273 0.44102 0.69353 0.0
H97 H 0.58998 0.57557 0.31499 0.0
H98 H 0.55961 0.54891 0.75992 0.0
H99 H 0.45621 0.4694 0.25046 0.0
H100 H 0.58035 0.56556 0.4777 0.0
H101 H 0.43739 0.45104 0.53114 0.0
C102 C 0.45843 0.46699 0.67384 0.0
C103 C 0.49276 0.49409 0.74018 0.0
C104 C 0.55313 0.54436 0.42806 0.0
C105 C 0.50473 0.50564 0.55407 0.0
C106 C 0.55867 0.54996 0.33511 0.0
C107 C 0.52375 0.52335 0.26926 0.0
C108 C 0.51233 0.51186 0.45551 0.0
C109 C 0.48394 0.49067 0.29907 0.0
C110 C 0.46422 0.47263 0.58104 0.0
C111 C 0.53232 0.52728 0.7109 0.0
N112 N 0.47926 0.48593 0.39002 0.0
N113 N 0.5373 0.53203 0.61994 0.0
H114 H 0.17582 0.56539 0.96159 0.0
H115 H 0.33664 0.43808 0.06872 0.0
H116 H 0.12074 0.43804 0.05947 0.0
H117 H 0.38335 0.55934 0.94574 0.0
H118 H 0.25775 0.43701 0.0697 0.0
H119 H 0.25245 0.56341 0.95994 0.0
C120 C 0.17977 0.53692 0.98297 0.0
C121 C 0.1416 0.50181 0.01085 0.0
C122 C 0.28534 0.46374 0.04238 0.0
C123 C 0.23001 0.49937 0.00898 0.0
C124 C 0.33036 0.4644 0.04182 0.0
C125 C 0.36675 0.4989 0.00725 0.0
C126 C 0.27681 0.4979 0.00844 0.0
C127 C 0.35655 0.53209 0.97321 0.0
C128 C 0.22372 0.5358 0.98178 0.0
C129 C 0.14915 0.46583 0.03743 0.0
N130 N 0.31268 0.53077 0.97489 0.0
N131 N 0.19258 0.46555 0.03601 0.0
H132 H 0.68417 0.14226 0.83773 0.0
H133 H 0.89755 0.32647 0.14039 0.0
H134 H 0.71735 0.1318 0.11859 0.0
H135 H 0.87551 0.32519 0.84906 0.0
H136 H 0.83327 0.25414 0.13409 0.0
H137 H 0.75585 0.20828 0.83961 0.0
C138 C 0.70688 0.1536 0.89939 0.0
C139 C 0.69486 0.13165 0.9781 0.0
C140 C 0.84281 0.26956 0.07144 0.0
C141 C 0.77656 0.20748 0.9815 0.0
C142 C 0.87948 0.31077 0.07511 0.0
C143 C 0.89169 0.33181 0.99524 0.0
C144 C 0.81808 0.24956 0.98739 0.0
C145 C 0.86714 0.31015 0.91237 0.0
C146 C 0.74775 0.19134 0.90063 0.0
C147 C 0.72538 0.1478 0.05638 0.0
N148 N 0.83137 0.27044 0.91072 0.0
N149 N 0.76461 0.18494 0.05641 0.0
H150 H 0.58686 0.90942 0.88433 0.0
H151 H 0.51009 0.689 0.12069 0.0
H152 H 0.47365 0.86444 0.06555 0.0
H153 H 0.57142 0.69776 0.85776 0.0
H154 H 0.51033 0.76108 0.11474 0.0
H155 H 0.59383 0.83866 0.88448 0.0
C156 C 0.5636 0.88483 0.92401 0.0
C157 C 0.52958 0.89283 0.97489 0.0
C158 C 0.52383 0.74741 0.05819 0.0
C159 C 0.53779 0.81285 0.9762 0.0
C160 C 0.52386 0.70626 0.06165 0.0
C161 C 0.54045 0.68729 0.98925 0.0
C162 C 0.54081 0.77024 0.98202 0.0
C163 C 0.55809 0.7113 0.9147 0.0
C164 C 0.56749 0.84457 0.92371 0.0
C165 C 0.50024 0.85983 0.02486 0.0
N166 N 0.55783 0.75179 0.91283 0.0
N167 N 0.50525 0.8216 0.02464 0.0
H168 H 0.84075 0.45476 0.03033 0.0
H169 H 0.68178 0.58798 0.95993 0.0
H170 H 0.89729 0.5867 0.9562 0.0
H171 H 0.63094 0.45504 0.02743 0.0
H172 H 0.76091 0.58959 0.95811 0.0
H173 H 0.76378 0.4558 0.02962 0.0
C174 C 0.83707 0.48408 0.01378 0.0
C175 C 0.87576 0.52074 0.99327 0.0
C176 C 0.73232 0.56014 0.9732 0.0
C177 C 0.78686 0.5221 0.99233 0.0
C178 C 0.68716 0.55917 0.97427 0.0
C179 C 0.64955 0.52131 0.99383 0.0
C180 C 0.73979 0.523 0.99193 0.0
C181 C 0.65865 0.48498 0.0119 0.0
C182 C 0.79287 0.48463 0.01337 0.0
C183 C 0.86847 0.5577 0.97241 0.0
N184 N 0.70269 0.4868 0.01054 0.0
N185 N 0.8248 0.55746 0.9725 0.0
H186 H 0.12318 0.69226 0.85664 0.0
H187 H 0.32318 0.88991 0.16263 0.0
H188 H 0.13604 0.70259 0.15175 0.0
H189 H 0.30779 0.88172 0.86813 0.0
H190 H 0.25096 0.82423 0.16125 0.0
H191 H 0.1871 0.76447 0.85985 0.0
C192 C 0.13916 0.70995 0.92205 0.0
C193 C 0.12451 0.69145 1.00396 0.0
C194 C 0.26314 0.83702 0.09696 0.0
C195 C 0.19776 0.77374 0.00844 0.0
C196 C 0.30427 0.87457 0.09788 0.0
C197 C 0.32148 0.89109 0.01541 0.0
C198 C 0.23923 0.81582 0.01289 0.0
C199 C 0.29576 0.86992 0.93329 0.0
C200 C 0.17568 0.7511 0.92398 0.0
C201 C 0.1464 0.71566 0.08694 0.0
N202 N 0.25615 0.83326 0.93404 0.0
N203 N 0.18208 0.75537 0.08704 0.0
H204 H 0.40891 0.30102 0.97546 0.0
H205 H 0.56138 0.16969 0.08365 0.0
H206 H 0.53574 0.3579 0.14735 0.0
H207 H 0.41304 0.10423 0.02265 0.0
H208 H 0.55369 0.23951 0.09905 0.0
H209 H 0.40988 0.22872 0.98455 0.0
C210 C 0.43662 0.29816 0.01596 0.0
C211 C 0.47239 0.33532 0.06049 0.0
C212 C 0.52274 0.20986 0.08312 0.0
C213 C 0.47417 0.25328 0.06981 0.0
C214 C 0.52712 0.17001 0.07383 0.0
C215 C 0.48779 0.13115 0.05149 0.0
C216 C 0.47885 0.21102 0.06811 0.0
C217 C 0.44422 0.13347 0.04017 0.0
C218 C 0.43712 0.257 0.02122 0.0
C219 C 0.50752 0.33 0.11201 0.0
N220 N 0.44096 0.17286 0.04741 0.0
N221 N 0.50789 0.28979 0.11425 0.0
loop_
_geom_bond_atom_site_label_1
_geom_bond_atom_site_label_2
_geom_bond_distance
_geom_bond_site_symmetry_2
_ccdc_geom_bond_type
Dy0 O4 2.398 . S
Dy0 O5 2.491 1_556 S
Dy0 O6 2.403 . S
Dy0 O7 2.664 1_655 S
Dy0 O11 2.326 . S
Dy0 O15 2.310 1_556 S
Dy0 O16 2.351 1_655 S
C1 O12 1.185 . S
C1 O13 1.355 1_554 S
C2 O4 1.185 . S
C2 O5 1.355 1_556 S
Dy3 O7 2.310 1_554 S
Dy3 O10 2.351 1_455 S
Dy3 O12 2.398 . S
Dy3 O13 2.491 1_554 S
Dy3 O14 2.403 . S
Dy3 O15 2.664 1_455 S
Dy3 O17 2.326 . S
O4 Dy0 2.398 . S
O4 C2 1.185 . S
O5 Dy0 2.491 1_554 S
O5 C2 1.355 1_554 S
O6 Dy0 2.403 . S
O6 C8 1.254 . S
O7 Dy0 2.664 1_455 S
O7 Dy3 2.310 1_556 S
O7 C8 1.268 1_455 S
C8 O6 1.254 . S
C8 O7 1.268 1_655 S
C9 O14 1.254 . S
C9 O15 1.268 1_455 S
O10 Dy3 2.351 1_655 S
O10 C18 1.249 1_554 S
O11 Dy0 2.326 . S
O11 C18 1.267 . S
O12 C1 1.185 . S
O12 Dy3 2.398 . S
O13 C1 1.355 1_556 S
O13 Dy3 2.491 1_556 S
O14 Dy3 2.403 . S
O14 C9 1.254 . S
O15 Dy0 2.310 1_554 S
O15 Dy3 2.664 1_655 S
O15 C9 1.268 1_655 S
O16 Dy0 2.351 1_455 S
O16 C19 1.249 1_556 S
O17 Dy3 2.326 . S
O17 C19 1.267 . S
C18 O10 1.249 1_556 S
C18 O11 1.267 . S
C19 O16 1.249 1_554 S
C19 O17 1.267 . S
Dy20 O24 2.398 . S
Dy20 O25 2.491 1_554 S
Dy20 O26 2.403 . S
Dy20 O27 2.664 1_545 S
Dy20 O31 2.326 . S
Dy20 O35 2.310 1_554 S
Dy20 O36 2.351 1_545 S
C21 O32 1.185 . S
C21 O33 1.355 1_556 S
C22 O24 1.185 . S
C22 O25 1.355 1_554 S
Dy23 O27 2.310 1_556 S
Dy23 O30 2.351 1_565 S
Dy23 O32 2.398 . S
Dy23 O33 2.491 1_556 S
Dy23 O34 2.403 . S
Dy23 O35 2.664 1_565 S
Dy23 O37 2.326 . S
O24 Dy20 2.398 . S
O24 C22 1.185 . S
O25 Dy20 2.491 1_556 S
O25 C22 1.355 1_556 S
O26 Dy20 2.403 . S
O26 C28 1.254 . S
O27 Dy20 2.664 1_565 S
O27 Dy23 2.310 1_554 S
O27 C28 1.268 1_565 S
C28 O26 1.254 . S
C28 O27 1.268 1_545 S
C29 O34 1.254 . S
C29 O35 1.268 1_565 S
O30 Dy23 2.351 1_545 S
O30 C38 1.249 1_556 S
O31 Dy20 2.326 . S
O31 C38 1.267 . S
O32 C21 1.185 . S
O32 Dy23 2.398 . S
O33 C21 1.355 1_554 S
O33 Dy23 2.491 1_554 S
O34 Dy23 2.403 . S
O34 C29 1.254 . S
O35 Dy20 2.310 1_556 S
O35 Dy23 2.664 1_545 S
O35 C29 1.268 1_545 S
O36 Dy20 2.351 1_565 S
O36 C39 1.249 1_554 S
O37 Dy23 2.326 . S
O37 C39 1.267 . S
C38 O30 1.249 1_554 S
C38 O31 1.267 . S
C39 O36 1.249 1_556 S
C39 O37 1.267 . S
Dy40 O44 2.398 . S
Dy40 O45 2.491 1_554 S
Dy40 O46 2.403 . S
Dy40 O47 2.664 . S
Dy40 O51 2.326 . S
Dy40 O55 2.310 1_554 S
Dy40 O56 2.351 . S
C41 O52 1.185 . S
C41 O53 1.355 1_556 S
C42 O44 1.185 . S
C42 O45 1.355 1_554 S
Dy43 O47 2.310 1_556 S
Dy43 O50 2.351 . S
Dy43 O52 2.398 . S
Dy43 O53 2.491 1_556 S
Dy43 O54 2.403 . S
Dy43 O55 2.664 . S
Dy43 O57 2.326 . S
O44 Dy40 2.398 . S
O44 C42 1.185 . S
O45 Dy40 2.491 1_556 S
O45 C42 1.355 1_556 S
O46 Dy40 2.403 . S
O46 C48 1.254 . S
O47 Dy40 2.664 . S
O47 Dy43 2.310 1_554 S
O47 C48 1.268 . S
C48 O46 1.254 . S
C48 O47 1.268 . S
C49 O54 1.254 . S
C49 O55 1.268 . S
O50 Dy43 2.351 . S
O50 C58 1.249 1_556 S
O51 Dy40 2.326 . S
O51 C58 1.267 . S
O52 C41 1.185 . S
O52 Dy43 2.398 . S
O53 C41 1.355 1_554 S
O53 Dy43 2.491 1_554 S
O54 Dy43 2.403 . S
O54 C49 1.254 . S
O55 Dy40 2.310 1_556 S
O55 Dy43 2.664 . S
O55 C49 1.268 . S
O56 Dy40 2.351 . S
O56 C59 1.249 1_554 S
O57 Dy43 2.326 . S
O57 C59 1.267 . S
C58 O50 1.249 1_554 S
C58 O51 1.267 . S
C59 O56 1.249 1_556 S
C59 O57 1.267 . S
H60 C66 0.930 . S
H61 C70 0.930 . S
H62 C75 0.929 . S
H63 C73 0.929 . S
H64 C68 0.929 . S
H65 C74 0.929 . S
C66 H60 0.930 . S
C66 C67 1.367 . S
C66 C74 1.378 . S
C67 C66 1.367 . S
C67 C75 1.433 1_455 S
C68 H64 0.929 . S
C68 C70 1.378 . S
C68 C72 1.350 1_655 S
C69 C72 1.463 . S
C69 C74 1.350 . S
C69 N77 1.427 1_455 S
C70 H61 0.930 . S
C70 C68 1.378 . S
C70 C71 1.367 . S
C71 C70 1.367 . S
C71 C73 1.433 1_655 S
C72 C68 1.350 1_455 S
C72 C69 1.463 . S
C72 N76 1.427 . S
C73 H63 0.929 . S
C73 C71 1.433 1_455 S
C73 N76 1.384 . S
C74 H65 0.929 . S
C74 C66 1.378 . S
C74 C69 1.350 . S
C75 H62 0.929 . S
C75 C67 1.433 1_655 S
C75 N77 1.384 . S
N76 C72 1.427 . S
N76 C73 1.384 . S
N77 C69 1.427 1_655 S
N77 C75 1.384 . S
H78 C84 0.930 . S
H79 C88 0.930 . S
H80 C93 0.929 . S
H81 C91 0.929 . S
H82 C86 0.929 . S
H83 C92 0.929 . S
C84 H78 0.930 . S
C84 C85 1.352 1_565 S
C84 C92 1.378 . S
C85 C84 1.352 1_545 S
C85 C93 1.447 . S
C86 H82 0.929 . S
C86 C88 1.378 . S
C86 C90 1.350 . S
C87 C90 1.462 1_565 S
C87 C92 1.349 . S
C87 N95 1.429 1_565 S
C88 H79 0.930 . S
C88 C86 1.378 . S
C88 C89 1.367 . S
C89 C88 1.367 . S
C89 C91 1.433 1_545 S
C90 C86 1.350 . S
C90 C87 1.462 1_545 S
C90 N94 1.427 1_545 S
C91 H81 0.929 . S
C91 C89 1.433 1_565 S
C91 N94 1.384 . S
C92 H83 0.929 . S
C92 C84 1.378 . S
C92 C87 1.349 . S
C93 H80 0.929 . S
C93 C85 1.447 . S
C93 N95 1.384 . S
N94 C90 1.427 1_565 S
N94 C91 1.384 . S
N95 C87 1.429 1_545 S
N95 C93 1.384 . S
H96 C102 0.930 . S
H97 C106 0.930 . S
H98 C111 0.929 . S
H99 C109 0.929 . S
H100 C104 0.929 . S
H101 C110 0.929 . S
C102 H96 0.930 . S
C102 C103 1.367 . S
C102 C110 1.378 . S
C103 C102 1.367 . S
C103 C111 1.433 . S
C104 H100 0.929 . S
C104 C106 1.378 . S
C104 C108 1.350 . S
C105 C108 1.463 . S
C105 C110 1.350 . S
C105 N113 1.427 . S
C106 H97 0.930 . S
C106 C104 1.378 . S
C106 C107 1.367 . S
C107 C106 1.367 . S
C107 C109 1.433 . S
C108 C104 1.350 . S
C108 C105 1.463 . S
C108 N112 1.427 . S
C109 H99 0.929 . S
C109 C107 1.433 . S
C109 N112 1.384 . S
C110 H101 0.929 . S
C110 C102 1.378 . S
C110 C105 1.350 . S
C111 H98 0.929 . S
C111 C103 1.433 . S
C111 N113 1.384 . S
N112 C108 1.427 . S
N112 C109 1.384 . S
N113 C105 1.427 . S
N113 C111 1.384 . S
H114 C120 0.930 . S
H115 C124 0.930 . S
H116 C129 0.929 . S
H117 C127 0.929 . S
H118 C122 0.929 . S
H119 C128 0.929 . S
C120 H114 0.930 . S
C120 C121 1.367 . S
C120 C128 1.378 . S
C121 C120 1.367 . S
C121 C129 1.433 1_556 S
C122 H118 0.929 . S
C122 C124 1.378 . S
C122 C126 1.350 1_554 S
C123 C126 1.463 . S
C123 C128 1.350 . S
C123 N131 1.427 1_556 S
C124 H115 0.930 . S
C124 C122 1.378 . S
C124 C125 1.367 1_554 S
C125 C124 1.367 1_556 S
C125 C127 1.433 . S
C126 C122 1.350 1_556 S
C126 C123 1.463 . S
C126 N130 1.427 . S
C127 H117 0.929 . S
C127 C125 1.433 . S
C127 N130 1.384 . S
C128 H119 0.929 . S
C128 C120 1.378 . S
C128 C123 1.350 . S
C129 H116 0.929 . S
C129 C121 1.433 1_554 S
C129 N131 1.384 . S
N130 C126 1.427 . S
N130 C127 1.384 . S
N131 C123 1.427 1_554 S
N131 C129 1.384 . S
H132 C138 0.930 . S
H133 C142 0.930 . S
H134 C147 0.929 . S
H135 C145 0.929 . S
H136 C140 0.929 . S
H137 C146 0.929 . S
C138 H132 0.930 . S
C138 C139 1.367 . S
C138 C146 1.378 . S
C139 C138 1.367 . S
C139 C147 1.433 1_556 S
C140 H136 0.929 . S
C140 C142 1.378 . S
C140 C144 1.356 . S
C141 C144 1.463 1_556 S
C141 C146 1.350 . S
C141 N149 1.427 1_556 S
C142 H133 0.930 . S
C142 C140 1.378 . S
C142 C143 1.367 . S
C143 C142 1.367 . S
C143 C145 1.433 1_554 S
C144 C140 1.356 . S
C144 C141 1.463 1_554 S
C144 N148 1.421 1_554 S
C145 H135 0.929 . S
C145 C143 1.433 1_556 S
C145 N148 1.384 . S
C146 H137 0.929 . S
C146 C138 1.378 . S
C146 C141 1.350 . S
C147 H134 0.929 . S
C147 C139 1.433 1_554 S
C147 N149 1.384 . S
N148 C144 1.421 1_556 S
N148 C145 1.384 . S
N149 C141 1.427 1_554 S
N149 C147 1.384 . S
H150 C156 0.930 . S
H151 C160 0.930 . S
H152 C165 0.929 . S
H153 C163 0.929 . S
H154 C158 0.929 . S
H155 C164 0.929 . S
C156 H150 0.930 . S
C156 C157 1.367 . S
C156 C164 1.378 . S
C157 C156 1.367 . S
C157 C165 1.433 1_556 S
C158 H154 0.929 . S
C158 C160 1.378 . S
C158 C162 1.350 . S
C159 C162 1.463 1_556 S
C159 C164 1.350 . S
C159 N167 1.427 1_556 S
C160 H151 0.930 . S
C160 C158 1.378 . S
C160 C161 1.367 . S
C161 C160 1.367 . S
C161 C163 1.433 1_554 S
C162 C158 1.350 . S
C162 C159 1.463 1_554 S
C162 N166 1.427 1_554 S
C163 H153 0.929 . S
C163 C161 1.433 1_556 S
C163 N166 1.384 . S
C164 H155 0.929 . S
C164 C156 1.378 . S
C164 C159 1.350 . S
C165 H152 0.929 . S
C165 C157 1.433 1_554 S
C165 N167 1.384 . S
N166 C162 1.427 1_556 S
N166 C163 1.384 . S
N167 C159 1.427 1_554 S
N167 C165 1.384 . S
H168 C174 0.930 . S
H169 C178 0.930 . S
H170 C183 0.929 . S
H171 C181 0.929 . S
H172 C176 0.929 . S
H173 C182 0.929 . S
C174 H168 0.930 . S
C174 C175 1.367 . S
C174 C182 1.378 . S
C175 C174 1.367 . S
C175 C183 1.433 1_554 S
C176 H172 0.929 . S
C176 C178 1.378 . S
C176 C180 1.350 1_556 S
C177 C180 1.463 . S
C177 C182 1.350 . S
C177 N185 1.427 1_554 S
C178 H169 0.930 . S
C178 C176 1.378 . S
C178 C179 1.367 1_556 S
C179 C178 1.367 1_554 S
C179 C181 1.433 . S
C180 C176 1.350 1_554 S
C180 C177 1.463 . S
C180 N184 1.427 . S
C181 H171 0.929 . S
C181 C179 1.433 . S
C181 N184 1.384 . S
C182 H173 0.929 . S
C182 C174 1.378 . S
C182 C177 1.350 . S
C183 H170 0.929 . S
C183 C175 1.433 1_556 S
C183 N185 1.384 . S
N184 C180 1.427 . S
N184 C181 1.384 . S
N185 C177 1.427 1_556 S
N185 C183 1.384 . S
H186 C192 0.930 . S
H187 C196 0.930 . S
H188 C201 0.929 . S
H189 C199 0.929 . S
H190 C194 0.929 . S
H191 C200 0.929 . S
C192 H186 0.930 . S
C192 C193 1.365 1_556 S
C192 C200 1.378 . S
C193 C192 1.365 1_554 S
C193 C201 1.435 . S
C194 H190 0.929 . S
C194 C196 1.378 . S
C194 C198 1.350 . S
C195 C198 1.463 1_556 S
C195 C200 1.351 . S
C195 N203 1.426 1_556 S
C196 H187 0.930 . S
C196 C194 1.378 . S
C196 C197 1.367 . S
C197 C196 1.367 . S
C197 C199 1.433 1_554 S
C198 C194 1.350 . S
C198 C195 1.463 1_554 S
C198 N202 1.427 1_554 S
C199 H189 0.929 . S
C199 C197 1.433 1_556 S
C199 N202 1.384 . S
C200 H191 0.929 . S
C200 C192 1.378 . S
C200 C195 1.351 . S
C201 H188 0.929 . S
C201 C193 1.435 . S
C201 N203 1.384 . S
N202 C198 1.427 1_556 S
N202 C199 1.384 . S
N203 C195 1.426 1_554 S
N203 C201 1.384 . S
H204 C210 0.930 . S
H205 C214 0.930 . S
H206 C219 0.929 . S
H207 C217 0.929 . S
H208 C212 0.929 . S
H209 C218 0.929 . S
C210 H204 0.930 . S
C210 C211 1.367 . S
C210 C218 1.378 . S
C211 C210 1.367 . S
C211 C219 1.433 1_556 S
C212 H208 0.929 . S
C212 C214 1.378 . S
C212 C216 1.350 . S
C213 C216 1.463 . S
C213 C218 1.350 1_554 S
C213 N221 1.427 . S
C214 H205 0.930 . S
C214 C212 1.378 . S
C214 C215 1.367 . S
C215 C214 1.367 . S
C215 C217 1.433 1_554 S
C216 C212 1.350 . S
C216 C213 1.463 . S
C216 N220 1.427 1_554 S
C217 H207 0.929 . S
C217 C215 1.433 1_556 S
C217 N220 1.384 . S
C218 H209 0.929 . S
C218 C210 1.378 . S
C218 C213 1.350 1_556 S
C219 H206 0.929 . S
C219 C211 1.433 1_554 S
C219 N221 1.384 . S
N220 C216 1.427 1_556 S
N220 C217 1.384 . S
N221 C213 1.427 . S
N221 C219 1.384 . S
C67 C8 1.466 1_455 S
C71 C9 1.466 1_655 S
C85 C28 1.459 . S
C89 C29 1.458 1_545 S
C103 C49 1.456 . S
C107 C48 1.456 . S
C121 C19 1.774 1_556 S
C125 C58 1.761 1_556 S
C139 C22 1.244 1_556 S
C143 C2 1.228 1_554 S
C157 C39 1.521 . S
C161 C42 1.496 . S
C175 C18 1.774 1_554 S
C179 C59 1.761 1_554 S
C193 C1 1.228 . S
C197 C21 1.244 1_554 S
C211 C41 1.489 . S
C215 C38 1.522 . S
