# Generated by pormake.
# Topology qzd, (4)-cn, num edge types: 1
# Building blocks:
#     Node 0, Type 0, BuildingBlock: MUDLON_clean_sbu_0, # of connection points: 4
#     Node 1, Type 0, BuildingBlock: MUDLON_clean_sbu_0, # of connection points: 4
#     Node 2, Type 0, BuildingBlock: MUDLON_clean_sbu_0, # of connection points: 4
#     Edge 3, Type (0, 0), BuildingBlock: UVAHIK_clean_linker_0, # of connection points: 2
#     Edge 4, Type (0, 0), BuildingBlock: UVAHIK_clean_linker_0, # of connection points: 2
#     Edge 5, Type (0, 0), BuildingBlock: UVAHIK_clean_linker_0, # of connection points: 2
#     Edge 6, Type (0, 0), BuildingBlock: UVAHIK_clean_linker_0, # of connection points: 2
#     Edge 7, Type (0, 0), BuildingBlock: UVAHIK_clean_linker_0, # of connection points: 2
#     Edge 8, Type (0, 0), BuildingBlock: UVAHIK_clean_linker_0, # of connection points: 2
# Relax obj value: 0.001
# Max RMSD: 0.021
# Mean RMSD: 0.017
data_MOF--net-qzd--node1-MUDLON_clean_sbu_0--edge1-UVAHIK_clean_linker_0
_symmetry_space_group_name_H-M    P1
_symmetry_Int_Tables_number       1
_symmetry_cell_setting            triclinic
loop_
_symmetry_equiv_pos_as_xyz
'x, y, z'
_cell_length_a     20.252534
_cell_length_b     19.451524
_cell_length_c     58.68011
_cell_angle_alpha  91.855505
_cell_angle_beta   90.023364
_cell_angle_gamma 120.84422
loop_
_atom_site_label
_atom_site_type_symbol
_atom_site_fract_x
_atom_site_fract_y
_atom_site_fract_z
_atom_type_partial_charge
Mg0 Mg 0.99822 1.01652 0.01863 0.0
C1 C 0.111 0.95282 0.01436 0.0
O2 O 0.04559 0.88702 1.00902 0.0
C3 C 0.82207 0.95128 0.01613 0.0
O4 O 0.82174 0.88354 0.01475 0.0
C5 C 0.96759 0.95925 0.96609 0.0
O6 O 0.92605 0.88827 0.97473 0.0
O7 O 1.00264 1.02068 0.9795 0.0
O8 O 0.11077 1.01676 0.01933 0.0
O9 O 0.99557 1.01722 0.05784 0.0
C10 C 0.99869 0.96565 0.06989 0.0
O11 O 1.00312 0.90708 0.05968 0.0
O12 O 0.88607 1.01689 0.01786 0.0
Mg13 Mg 0.88116 0.06575 0.35433 0.0
C14 C 0.98652 0.24089 0.37021 0.0
O15 O 0.97495 0.20715 0.38999 0.0
C16 C 0.71468 0.9735 0.36954 0.0
O17 O 0.7501 0.98802 0.38942 0.0
C18 C 0.97398 0.06485 0.31366 0.0
O19 O 0.02457 0.13484 0.32303 0.0
O20 O 0.91177 1.02062 0.32403 0.0
O21 O 0.94956 0.19736 0.35271 0.0
O22 O 0.90731 0.03321 0.38699 0.0
C23 C 0.97068 0.04023 0.39323 0.0
O24 O 0.027 0.06504 0.37868 0.0
O25 O 0.75476 1.00485 0.35198 0.0
Mg26 Mg 0.17343 0.08073 0.68052 0.0
C27 C 0.24816 0.25454 0.66525 0.0
O28 O 0.22558 0.21905 0.64497 0.0
C29 C 0.23708 0.97815 0.69708 0.0
O30 O 0.19974 0.97733 0.71546 0.0
C31 C 0.14841 0.03746 0.63119 0.0
O32 O 0.21659 0.04786 0.63565 0.0
O33 O 0.11113 0.04505 0.6476 0.0
O34 O 0.23906 0.21223 0.68239 0.0
O35 O 0.10265 0.04437 0.71114 0.0
C36 C 0.13013 0.09377 0.72821 0.0
O37 O 0.1946 0.1621 0.72579 0.0
O38 O 0.24063 1.02122 0.68069 0.0
C39 C 0.749 0.02323 0.01884 0.0
C40 C 0.74894 0.95122 0.01581 0.0
C41 C 0.67996 0.02314 0.01865 0.0
C42 C 0.47026 0.89031 0.02569 0.0
H43 H 0.45938 0.05934 0.99585 0.0
C44 C 0.18371 0.8808 1.01036 0.0
C45 C 0.18391 0.95244 0.01461 0.0
C46 C 0.25254 0.88043 1.01054 0.0
C47 C 0.46173 1.01217 1.00445 0.0
H48 H 0.67623 0.82265 1.01003 0.0
H49 H 0.55592 0.82265 1.00935 0.0
H50 H 0.57953 0.05887 0.99591 0.0
H51 H 0.25666 0.07992 0.02242 0.0
H52 H 0.37668 0.07913 0.02279 0.0
H53 H 0.3522 0.84341 0.03408 0.0
C54 C 0.60925 0.87909 1.01226 0.0
C55 C 0.5306 1.01192 1.00451 0.0
C56 C 0.6783 0.87915 0.01252 0.0
C57 C 0.25447 0.02371 0.01904 0.0
C58 C 0.32332 0.02337 0.01913 0.0
C59 C 0.40131 0.89043 0.02555 0.0
C60 C 0.60923 0.95108 0.01535 0.0
C61 C 0.53576 0.95106 0.01516 0.0
C62 C 0.32312 0.95173 0.01489 0.0
C63 C 0.39631 0.95142 0.01496 0.0
H64 H 0.80239 0.07979 0.02152 0.0
H65 H 0.68201 0.07953 0.02141 0.0
H66 H 0.47253 0.84326 0.03437 0.0
H67 H 0.13038 0.82487 1.00686 0.0
H68 H 0.25058 0.82442 1.00697 0.0
C69 C 0.5882 0.87915 0.38711 0.0
C70 C 0.63118 0.91195 0.36742 0.0
C71 C 0.51246 0.81441 0.3855 0.0
C72 C 0.38164 0.64361 0.34684 0.0
H73 H 0.2282 0.61927 0.39053 0.0
C74 C 0.07678 0.35782 0.34656 0.0
C75 C 0.04955 0.3257 0.36804 0.0
C76 C 0.14207 0.43457 0.34482 0.0
C77 C 0.27043 0.62481 0.37825 0.0
H78 H 0.6266 0.90358 0.33046 0.0
H79 H 0.49394 0.79086 0.32762 0.0
H80 H 0.35182 0.74434 0.39034 0.0
H81 H 0.06856 0.35073 0.40451 0.0
H82 H 0.18155 0.48359 0.40149 0.0
H83 H 0.30068 0.52345 0.33504 0.0
C84 C 0.51937 0.81479 0.34438 0.0
C85 C 0.3415 0.69669 0.37815 0.0
C86 C 0.59529 0.87998 0.346 0.0
C87 C 0.08763 0.37339 0.38768 0.0
C88 C 0.15246 0.45004 0.38594 0.0
C89 C 0.31046 0.57166 0.34694 0.0
C90 C 0.47729 0.78027 0.36414 0.0
C91 C 0.39873 0.70667 0.36272 0.0
C92 C 0.18144 0.48134 0.36451 0.0
C93 C 0.25434 0.56068 0.36293 0.0
H94 H 0.61379 0.90199 0.40392 0.0
H95 H 0.48255 0.78915 0.40112 0.0
H96 H 0.42443 0.64849 0.33489 0.0
H97 H 0.04911 0.32277 0.33107 0.0
H98 H 0.16213 0.45699 0.32803 0.0
C99 C 0.28521 0.90494 0.67262 0.0
C100 C 0.26351 0.9199 0.69413 0.0
C101 C 0.29942 0.84209 0.6692 0.0
C102 C 0.33736 0.69942 0.69895 0.0
H103 H 0.23345 0.55969 0.64609 0.0
C104 C 0.27471 0.37354 0.69038 0.0
C105 C 0.27212 0.34038 0.66851 0.0
C106 C 0.28652 0.4509 0.69312 0.0
C107 C 0.26425 0.59862 0.66072 0.0
H108 H 0.24374 0.88297 0.72917 0.0
H109 H 0.26875 0.77386 0.72321 0.0
H110 H 0.23274 0.6837 0.65149 0.0
H111 H 0.28459 0.36458 0.63247 0.0
H112 H 0.30733 0.49995 0.63726 0.0
H113 H 0.36824 0.61383 0.7083 0.0
C114 C 0.27489 0.81067 0.70898 0.0
C115 C 0.2637 0.66992 0.66382 0.0
C116 C 0.26019 0.87311 0.71237 0.0
C117 C 0.28556 0.38795 0.64955 0.0
C118 C 0.29799 0.46548 0.6523 0.0
C119 C 0.33834 0.62823 0.69577 0.0
C120 C 0.29285 0.79311 0.68723 0.0
C121 C 0.29938 0.72077 0.68312 0.0
C122 C 0.29664 0.49733 0.67406 0.0
C123 C 0.30093 0.57627 0.67674 0.0
H124 H 0.28841 0.93978 0.65819 0.0
H125 H 0.31417 0.83087 0.6523 0.0
H126 H 0.36617 0.73769 0.71387 0.0
H127 H 0.26426 0.33851 0.70536 0.0
H128 H 0.28431 0.47278 0.71014 0.0
C129 C 0.92258 0.97904 0.27763 0.0
C130 C 0.98378 0.04405 0.2898 0.0
C131 C 0.92831 0.96625 0.25427 0.0
C132 C 0.035 0.07735 0.20385 0.0
H133 H 0.93628 0.86587 0.17432 0.0
C134 C 0.98877 0.03178 0.10617 0.0
C135 C 0.9983 0.9722 0.09519 0.0
C136 C 0.98906 0.03843 0.13 0.0
C137 C 0.96484 0.92543 0.18228 0.0
H138 H 0.10065 0.14385 0.28714 0.0
H139 H 0.11127 0.12052 0.24663 0.0
H140 H 0.93662 0.87921 0.2158 0.0
H141 H 0.0157 0.87285 0.10077 0.0
H142 H 0.01733 0.88519 0.14229 0.0
H143 H 0.06442 0.12368 0.17044 0.0
C144 C 0.05799 0.08057 0.25496 0.0
C145 C 0.96427 0.93307 0.2061 0.0
C146 C 0.05214 0.09357 0.27828 0.0
C147 C 0.00792 0.91929 0.10864 0.0
C148 C 0.00844 0.9261 0.13249 0.0
C149 C 0.03571 0.06972 0.18008 0.0
C150 C 0.99551 1.01793 0.2425 0.0
C151 C 0.99897 1.00918 0.21721 0.0
C152 C 0.99917 0.98589 0.14351 0.0
C153 C 1.00013 0.99369 0.16893 0.0
H154 H 0.86897 0.93979 0.28593 0.0
H155 H 0.87875 0.91779 0.24527 0.0
H156 H 0.06144 0.13697 0.2117 0.0
H157 H 0.9808 0.07331 0.09637 0.0
H158 H 0.98042 0.08434 0.13782 0.0
C159 C 0.16489 1.01809 0.58973 0.0
C160 C 0.12065 0.02512 0.60711 0.0
C161 C 0.14394 1.01339 0.56682 0.0
C162 C 0.98409 0.96815 0.52726 0.0
H163 H 0.14898 0.10324 0.48703 0.0
C164 C 0.92838 1.01793 0.43391 0.0
C165 C 0.98284 0.02823 0.41741 0.0
C166 C 0.94208 1.01261 0.45698 0.0
C167 C 0.1023 0.06405 0.49787 0.0
H168 H 0.01785 0.02987 0.61394 0.0
H169 H 0.98086 1.02127 0.57365 0.0
H170 H 0.17691 0.10246 0.52727 0.0
H171 H 0.09328 0.03809 0.41223 0.0
H172 H 0.11634 0.02662 0.45233 0.0
H173 H 0.90952 0.92911 0.49777 0.0
C174 C 0.03193 1.01941 0.57792 0.0
C175 C 0.11834 0.06389 0.52102 0.0
C176 C 0.05319 0.02451 0.60098 0.0
C177 C 0.05036 0.03076 0.42448 0.0
C178 C 0.0638 0.02478 0.44755 0.0
C179 C 0.96805 0.96783 0.504 0.0
C180 C 0.078 1.01533 0.56057 0.0
C181 C 0.05958 1.01582 0.53601 0.0
C182 C 0.01039 1.01686 0.46418 0.0
C183 C 0.02703 1.01573 0.48895 0.0
H184 H 0.21686 1.01763 0.59375 0.0
H185 H 0.17987 1.00872 0.55393 0.0
H186 H 0.93767 0.92991 0.53833 0.0
H187 H 0.87582 1.01607 0.42911 0.0
H188 H 0.89999 1.00758 0.46922 0.0
C189 C 0.12047 0.1345 0.76826 0.0
C190 C 0.09531 0.07376 0.75109 0.0
C191 C 0.09445 0.11649 0.79052 0.0
C192 C 0.01834 0.95271 0.83055 0.0
H193 H 0.98293 0.09868 0.8678 0.0
C194 C 0.93659 0.90007 0.926 0.0
C195 C 0.97372 0.96777 0.94097 0.0
C196 C 0.94285 0.90827 0.90234 0.0
C197 C 0.99316 0.05758 0.85769 0.0
H198 H 0.02131 0.94632 0.74377 0.0
H199 H 0.97545 0.91457 0.78291 0.0
H200 H 0.0057 0.12022 0.82718 0.0
H201 H 0.04655 0.09729 0.94267 0.0
H202 H 0.05795 0.11147 0.90155 0.0
H203 H 0.00718 0.89093 0.86121 0.0
C204 C 0.01586 0.97628 0.77904 0.0
C205 C 0.00604 0.06982 0.83437 0.0
C206 C 0.04162 0.9945 0.7566 0.0
C207 C 0.01699 0.04383 0.93168 0.0
C208 C 0.02309 0.05201 0.90806 0.0
C209 C 1.00543 0.94043 0.85393 0.0
C210 C 0.04267 0.03709 0.79632 0.0
C211 C 0.02028 1.01849 0.82057 0.0
C212 C 0.98616 0.98438 0.89305 0.0
C213 C 0.9941 0.99362 0.86788 0.0
H214 H 0.16174 0.19625 0.76464 0.0
H215 H 0.11717 0.16474 0.80338 0.0
H216 H 0.02992 0.91251 0.8205 0.0
H217 H 0.90264 0.84057 0.93255 0.0
H218 H 0.91306 0.85496 0.8913 0.0
loop_
_geom_bond_atom_site_label_1
_geom_bond_atom_site_label_2
_geom_bond_distance
_geom_bond_site_symmetry_2
_ccdc_geom_bond_type
Mg0 O7 2.141 1_554 S
Mg0 O8 2.048 . S
Mg0 O9 2.048 . S
Mg0 O12 2.141 1_455 S
C1 O2 1.313 1_545 S
C1 O8 1.195 . S
O2 C1 1.313 1_565 S
C3 O4 1.245 1_545 S
C3 O12 1.289 . S
O4 C3 1.245 1_565 S
C5 O6 1.245 1_445 S
C5 O7 1.289 . S
O6 C5 1.245 1_665 S
O7 Mg0 2.141 1_556 S
O7 C5 1.289 . S
O8 Mg0 2.048 . S
O8 C1 1.195 . S
O9 Mg0 2.048 . S
O9 C10 1.195 . S
C10 O9 1.195 . S
C10 O11 1.313 1_445 S
O11 C10 1.313 1_665 S
O12 Mg0 2.141 1_655 S
O12 C3 1.289 . S
Mg13 O20 2.141 . S
Mg13 O21 2.048 1_655 S
Mg13 O22 2.048 . S
Mg13 O25 2.141 1_545 S
C14 O15 1.313 . S
C14 O21 1.195 . S
O15 C14 1.313 . S
C16 O17 1.245 . S
C16 O25 1.289 . S
O17 C16 1.245 . S
C18 O19 1.245 1_545 S
C18 O20 1.289 1_455 S
O19 C18 1.245 1_565 S
O20 Mg13 2.141 . S
O20 C18 1.289 1_655 S
O21 Mg13 2.048 1_455 S
O21 C14 1.195 . S
O22 Mg13 2.048 . S
O22 C23 1.195 1_655 S
C23 O22 1.195 1_455 S
C23 O24 1.313 1_545 S
O24 C23 1.313 1_565 S
O25 Mg13 2.141 1_565 S
O25 C16 1.289 . S
Mg26 O33 2.141 1_445 S
Mg26 O34 2.048 . S
Mg26 O35 2.047 1_545 S
Mg26 O38 2.141 1_445 S
C27 O28 1.313 . S
C27 O34 1.195 . S
O28 C27 1.313 . S
C29 O30 1.245 . S
C29 O38 1.289 1_455 S
O30 C29 1.245 . S
C31 O32 1.245 . S
C31 O33 1.289 1_445 S
O32 C31 1.245 . S
O33 Mg26 2.141 1_665 S
O33 C31 1.289 1_665 S
O34 Mg26 2.048 . S
O34 C27 1.195 . S
O35 Mg26 2.047 1_565 S
O35 C36 1.194 1_565 S
C36 O35 1.194 1_545 S
C36 O37 1.313 . S
O37 C36 1.313 . S
O38 Mg26 2.141 1_665 S
O38 C29 1.289 1_655 S
C39 C40 1.349 1_556 S
C39 C41 1.327 . S
C39 H64 0.950 . S
C40 C39 1.349 1_554 S
C40 C56 1.349 1_545 S
C41 C39 1.327 . S
C41 C60 1.429 1_556 S
C41 H65 0.950 . S
C42 C59 1.574 . S
C42 C61 1.368 1_565 S
C42 H66 0.949 . S
H43 C47 0.949 . S
C44 C45 1.349 1_565 S
C44 C46 1.327 . S
C44 H67 0.950 . S
C45 C44 1.349 1_545 S
C45 C57 1.349 1_554 S
C46 C44 1.327 . S
C46 C62 1.429 1_565 S
C46 H68 0.950 . S
C47 H43 0.949 . S
C47 C55 1.574 . S
C47 C63 1.368 1_556 S
H48 C56 0.950 . S
H49 C54 0.950 . S
H50 C55 0.949 . S
H51 C57 0.950 . S
H52 C58 0.950 . S
H53 C59 0.949 . S
C54 H49 0.950 . S
C54 C56 1.327 . S
C54 C60 1.429 1_565 S
C55 C47 1.574 . S
C55 H50 0.949 . S
C55 C61 1.368 1_556 S
C56 C40 1.349 1_565 S
C56 H48 0.950 . S
C56 C54 1.327 . S
C57 C45 1.349 1_556 S
C57 H51 0.950 . S
C57 C58 1.327 . S
C58 H52 0.950 . S
C58 C57 1.327 . S
C58 C62 1.429 1_556 S
C59 C42 1.574 . S
C59 H53 0.949 . S
C59 C63 1.368 1_565 S
C60 C41 1.429 1_554 S
C60 C54 1.429 1_545 S
C60 C61 1.523 . S
C61 C42 1.368 1_545 S
C61 C55 1.368 1_554 S
C61 C60 1.523 . S
C62 C46 1.429 1_545 S
C62 C58 1.429 1_554 S
C62 C63 1.523 . S
C63 C47 1.368 1_554 S
C63 C59 1.368 1_545 S
C63 C62 1.523 . S
H64 C39 0.950 . S
H65 C41 0.950 . S
H66 C42 0.949 . S
H67 C44 0.950 . S
H68 C46 0.950 . S
C69 C70 1.349 . S
C69 C71 1.327 . S
C69 H94 0.950 . S
C70 C69 1.349 . S
C70 C86 1.349 . S
C71 C69 1.327 . S
C71 C90 1.429 . S
C71 H95 0.950 . S
C72 C89 1.574 . S
C72 C91 1.368 . S
C72 H96 0.949 . S
H73 C77 0.949 . S
C74 C75 1.349 . S
C74 C76 1.327 . S
C74 H97 0.950 . S
C75 C74 1.349 . S
C75 C87 1.349 . S
C76 C74 1.327 . S
C76 C92 1.429 . S
C76 H98 0.950 . S
C77 H73 0.949 . S
C77 C85 1.574 . S
C77 C93 1.368 . S
H78 C86 0.950 . S
H79 C84 0.950 . S
H80 C85 0.949 . S
H81 C87 0.950 . S
H82 C88 0.950 . S
H83 C89 0.949 . S
C84 H79 0.950 . S
C84 C86 1.327 . S
C84 C90 1.429 . S
C85 C77 1.574 . S
C85 H80 0.949 . S
C85 C91 1.368 . S
C86 C70 1.349 . S
C86 H78 0.950 . S
C86 C84 1.327 . S
C87 C75 1.349 . S
C87 H81 0.950 . S
C87 C88 1.327 . S
C88 H82 0.950 . S
C88 C87 1.327 . S
C88 C92 1.429 . S
C89 C72 1.574 . S
C89 H83 0.949 . S
C89 C93 1.368 . S
C90 C71 1.429 . S
C90 C84 1.429 . S
C90 C91 1.523 . S
C91 C72 1.368 . S
C91 C85 1.368 . S
C91 C90 1.523 . S
C92 C76 1.429 . S
C92 C88 1.429 . S
C92 C93 1.523 . S
C93 C77 1.368 . S
C93 C89 1.368 . S
C93 C92 1.523 . S
H94 C69 0.950 . S
H95 C71 0.950 . S
H96 C72 0.949 . S
H97 C74 0.950 . S
H98 C76 0.950 . S
C99 C100 1.349 . S
C99 C101 1.327 . S
C99 H124 0.950 . S
C100 C99 1.349 . S
C100 C116 1.349 . S
C101 C99 1.327 . S
C101 C120 1.429 . S
C101 H125 0.950 . S
C102 C119 1.574 . S
C102 C121 1.363 1_655 S
C102 H126 0.962 . S
H103 C107 0.949 . S
C104 C105 1.349 . S
C104 C106 1.327 . S
C104 H127 0.950 1_455 S
C105 C104 1.349 . S
C105 C117 1.349 . S
C106 C104 1.327 . S
C106 C122 1.429 . S
C106 H128 0.950 1_455 S
C107 H103 0.949 . S
C107 C115 1.574 . S
C107 C123 1.368 . S
H108 C116 0.950 1_655 S
H109 C114 0.950 1_655 S
H110 C115 0.949 . S
H111 C117 0.950 . S
H112 C118 0.950 . S
H113 C119 0.952 . S
C114 H109 0.950 1_455 S
C114 C116 1.327 . S
C114 C120 1.429 . S
C115 C107 1.574 . S
C115 H110 0.949 . S
C115 C121 1.368 . S
C116 C100 1.349 . S
C116 H108 0.950 1_455 S
C116 C114 1.327 . S
C117 C105 1.349 . S
C117 H111 0.950 . S
C117 C118 1.327 . S
C118 H112 0.950 . S
C118 C117 1.327 . S
C118 C122 1.429 . S
C119 C102 1.574 . S
C119 H113 0.952 . S
C119 C123 1.356 1_655 S
C120 C101 1.429 . S
C120 C114 1.429 . S
C120 C121 1.523 . S
C121 C102 1.363 1_455 S
C121 C115 1.368 . S
C121 C120 1.523 . S
C122 C106 1.429 . S
C122 C118 1.429 . S
C122 C123 1.523 . S
C123 C107 1.368 . S
C123 C119 1.356 1_455 S
C123 C122 1.523 . S
H124 C99 0.950 . S
H125 C101 0.950 . S
H126 C102 0.962 . S
H127 C104 0.950 1_655 S
H128 C106 0.950 1_655 S
C129 C130 1.349 1_665 S
C129 C131 1.327 . S
C129 H154 0.950 . S
C130 C129 1.349 1_445 S
C130 C146 1.349 . S
C131 C129 1.327 . S
C131 C150 1.429 1_665 S
C131 H155 0.950 . S
C132 C149 1.574 . S
C132 C151 1.368 . S
C132 H156 0.949 . S
H133 C137 0.949 . S
C134 C135 1.349 . S
C134 C136 1.327 . S
C134 H157 0.950 . S
C135 C134 1.349 . S
C135 C147 1.349 1_445 S
C136 C134 1.327 . S
C136 C152 1.429 . S
C136 H158 0.950 . S
C137 H133 0.949 . S
C137 C145 1.574 . S
C137 C153 1.368 1_665 S
H138 C146 0.950 . S
H139 C144 0.950 . S
H140 C145 0.949 . S
H141 C147 0.950 . S
H142 C148 0.950 . S
H143 C149 0.949 . S
C144 H139 0.950 . S
C144 C146 1.327 . S
C144 C150 1.429 . S
C145 C137 1.574 . S
C145 H140 0.949 . S
C145 C151 1.368 1_665 S
C146 C130 1.349 . S
C146 H138 0.950 . S
C146 C144 1.327 . S
C147 C135 1.349 1_665 S
C147 H141 0.950 . S
C147 C148 1.327 . S
C148 H142 0.950 . S
C148 C147 1.327 . S
C148 C152 1.429 1_665 S
C149 C132 1.574 . S
C149 H143 0.949 . S
C149 C153 1.368 . S
C150 C131 1.429 1_445 S
C150 C144 1.429 . S
C150 C151 1.523 . S
C151 C132 1.368 . S
C151 C145 1.368 1_445 S
C151 C150 1.523 . S
C152 C136 1.429 . S
C152 C148 1.429 1_445 S
C152 C153 1.523 . S
C153 C137 1.368 1_445 S
C153 C149 1.368 . S
C153 C152 1.523 . S
H154 C129 0.950 . S
H155 C131 0.950 . S
H156 C132 0.949 . S
H157 C134 0.950 . S
H158 C136 0.950 . S
C159 C160 1.349 . S
C159 C161 1.327 . S
C159 H184 0.950 . S
C160 C159 1.349 . S
C160 C176 1.349 1_445 S
C161 C159 1.327 . S
C161 C180 1.429 . S
C161 H185 0.950 . S
C162 C179 1.574 . S
C162 C181 1.368 1_665 S
C162 H186 0.949 . S
H163 C167 0.949 . S
C164 C165 1.349 1_665 S
C164 C166 1.327 . S
C164 H187 0.950 . S
C165 C164 1.349 1_445 S
C165 C177 1.349 . S
C166 C164 1.327 . S
C166 C182 1.429 1_665 S
C166 H188 0.950 . S
C167 H163 0.949 . S
C167 C175 1.574 . S
C167 C183 1.368 . S
H168 C176 0.950 . S
H169 C174 0.950 . S
H170 C175 0.949 . S
H171 C177 0.950 . S
H172 C178 0.950 . S
H173 C179 0.949 . S
C174 H169 0.950 . S
C174 C176 1.327 . S
C174 C180 1.429 1_665 S
C175 C167 1.574 . S
C175 H170 0.949 . S
C175 C181 1.368 . S
C176 C160 1.349 1_665 S
C176 H168 0.950 . S
C176 C174 1.327 . S
C177 C165 1.349 . S
C177 H171 0.950 . S
C177 C178 1.327 . S
C178 H172 0.950 . S
C178 C177 1.327 . S
C178 C182 1.429 . S
C179 C162 1.574 . S
C179 H173 0.949 . S
C179 C183 1.368 1_665 S
C180 C161 1.429 . S
C180 C174 1.429 1_445 S
C180 C181 1.523 . S
C181 C162 1.368 1_445 S
C181 C175 1.368 . S
C181 C180 1.523 . S
C182 C166 1.429 1_445 S
C182 C178 1.429 . S
C182 C183 1.523 . S
C183 C167 1.368 . S
C183 C179 1.368 1_445 S
C183 C182 1.523 . S
H184 C159 0.950 . S
H185 C161 0.950 . S
H186 C162 0.949 . S
H187 C164 0.950 . S
H188 C166 0.950 . S
C189 C190 1.349 . S
C189 C191 1.327 . S
C189 H214 0.950 . S
C190 C189 1.349 . S
C190 C206 1.349 1_545 S
C191 C189 1.327 . S
C191 C210 1.429 . S
C191 H215 0.950 . S
C192 C209 1.574 . S
C192 C211 1.368 1_565 S
C192 H216 0.949 . S
H193 C197 0.949 . S
C194 C195 1.349 1_565 S
C194 C196 1.327 . S
C194 H217 0.950 . S
C195 C194 1.349 1_545 S
C195 C207 1.349 . S
C196 C194 1.327 . S
C196 C212 1.429 1_565 S
C196 H218 0.950 . S
C197 H193 0.949 . S
C197 C205 1.574 . S
C197 C213 1.368 . S
H198 C206 0.950 . S
H199 C204 0.950 . S
H200 C205 0.949 . S
H201 C207 0.950 . S
H202 C208 0.950 . S
H203 C209 0.949 . S
C204 H199 0.950 . S
C204 C206 1.327 . S
C204 C210 1.429 1_565 S
C205 C197 1.574 . S
C205 H200 0.949 . S
C205 C211 1.368 . S
C206 C190 1.349 1_565 S
C206 H198 0.950 . S
C206 C204 1.327 . S
C207 C195 1.349 . S
C207 H201 0.950 . S
C207 C208 1.327 . S
C208 H202 0.950 . S
C208 C207 1.327 . S
C208 C212 1.429 . S
C209 C192 1.574 . S
C209 H203 0.949 . S
C209 C213 1.368 1_565 S
C210 C191 1.429 . S
C210 C204 1.429 1_545 S
C210 C211 1.523 . S
C211 C192 1.368 1_545 S
C211 C205 1.368 . S
C211 C210 1.523 . S
C212 C196 1.429 1_545 S
C212 C208 1.429 . S
C212 C213 1.523 . S
C213 C197 1.368 . S
C213 C209 1.368 1_545 S
C213 C212 1.523 . S
H214 C189 0.950 . S
H215 C191 0.950 . S
H216 C192 0.949 . S
H217 C194 0.950 . S
H218 C196 0.950 . S
C40 C3 1.489 . S
C45 C1 1.493 . S
C70 C16 1.489 . S
C75 C14 1.493 . S
C100 C29 1.489 . S
C105 C27 1.493 . S
C130 C18 1.488 . S
C135 C10 1.493 . S
C160 C31 1.496 . S
C165 C23 1.495 . S
C190 C36 1.499 . S
C195 C5 1.492 . S
