# Generated by pormake.
# Topology umm, (4)-cn, num edge types: 1
# Building blocks:
#     Node 0, Type 0, BuildingBlock: CEKHIL_clean_sbu_0, # of connection points: 4
#     Node 1, Type 0, BuildingBlock: CEKHIL_clean_sbu_0, # of connection points: 4
#     Node 2, Type 0, BuildingBlock: CEKHIL_clean_sbu_0, # of connection points: 4
#     Node 3, Type 0, BuildingBlock: CEKHIL_clean_sbu_0, # of connection points: 4
#     Node 4, Type 0, BuildingBlock: CEKHIL_clean_sbu_0, # of connection points: 4
#     Node 5, Type 0, BuildingBlock: CEKHIL_clean_sbu_0, # of connection points: 4
#     Node 6, Type 0, BuildingBlock: CEKHIL_clean_sbu_0, # of connection points: 4
#     Node 7, Type 0, BuildingBlock: CEKHIL_clean_sbu_0, # of connection points: 4
#     Node 8, Type 0, BuildingBlock: CEKHIL_clean_sbu_0, # of connection points: 4
#     Node 9, Type 0, BuildingBlock: CEKHIL_clean_sbu_0, # of connection points: 4
#     Node 10, Type 0, BuildingBlock: CEKHIL_clean_sbu_0, # of connection points: 4
#     Node 11, Type 0, BuildingBlock: CEKHIL_clean_sbu_0, # of connection points: 4
#     Edge 12, Type (0, 0), None
#     Edge 13, Type (0, 0), None
#     Edge 14, Type (0, 0), None
#     Edge 15, Type (0, 0), None
#     Edge 16, Type (0, 0), None
#     Edge 17, Type (0, 0), None
#     Edge 18, Type (0, 0), None
#     Edge 19, Type (0, 0), None
#     Edge 20, Type (0, 0), None
#     Edge 21, Type (0, 0), None
#     Edge 22, Type (0, 0), None
#     Edge 23, Type (0, 0), None
#     Edge 24, Type (0, 0), None
#     Edge 25, Type (0, 0), None
#     Edge 26, Type (0, 0), None
#     Edge 27, Type (0, 0), None
#     Edge 28, Type (0, 0), None
#     Edge 29, Type (0, 0), None
#     Edge 30, Type (0, 0), None
#     Edge 31, Type (0, 0), None
#     Edge 32, Type (0, 0), None
#     Edge 33, Type (0, 0), None
#     Edge 34, Type (0, 0), None
#     Edge 35, Type (0, 0), None
# Relax obj value: 0.127
# Max RMSD: 0.390
# Mean RMSD: 0.250
data_MOF--net-umm--node1-CEKHIL_clean_sbu_0--edge1-none
_symmetry_space_group_name_H-M    P1
_symmetry_Int_Tables_number       1
_symmetry_cell_setting            triclinic
loop_
_symmetry_equiv_pos_as_xyz
'x, y, z'
_cell_length_a     23.875548
_cell_length_b     24.652723
_cell_length_c     12.038199
_cell_angle_alpha  90.000878
_cell_angle_beta   90.000107
_cell_angle_gamma 118.9665
loop_
_atom_site_label
_atom_site_type_symbol
_atom_site_fract_x
_atom_site_fract_y
_atom_site_fract_z
_atom_type_partial_charge
Co0 Co 0.40214 0.59351 0.11478 0.0
O1 O 0.34587 0.6249 0.07843 0.0
O2 O 0.32462 0.52848 0.04375 0.0
C3 C 0.43228 0.63297 0.28502 0.0
O4 O 0.4544 0.54969 0.14173 0.0
Co5 Co 0.546 0.69444 0.13576 0.0
O6 O 0.5569 0.62283 0.1775 0.0
C7 C 0.49119 0.64803 0.91639 0.0
C8 C 0.3098 0.57251 0.02971 0.0
C9 C 0.51328 0.56669 0.16709 0.0
O10 O 0.43784 0.61375 0.96299 0.0
O11 O 0.54138 0.68677 0.96873 0.0
O12 O 0.37775 0.58287 0.27072 0.0
O13 O 0.46013 0.6631 0.19561 0.0
Co14 Co 0.89479 0.41429 0.40066 0.0
O15 O 0.80627 0.36597 0.36067 0.0
O16 O 0.871 0.32706 0.357 0.0
C17 C 0.86209 0.4405 0.5803 0.0
O18 O 0.99233 0.46036 0.43872 0.0
Co19 Co 0.90982 0.45898 0.37308 0.0
O20 O 0.99172 0.46338 0.43786 0.0
C21 C 0.89387 0.44519 0.17611 0.0
C22 C 0.81465 0.32005 0.33424 0.0
C23 C 0.03284 0.51875 0.45468 0.0
O24 O 0.91984 0.42094 0.23239 0.0
O25 O 0.87257 0.47373 0.23239 0.0
O26 O 0.87009 0.3942 0.56148 0.0
O27 O 0.87573 0.4763 0.4979 0.0
Co28 Co 0.50257 0.88213 0.76725 0.0
O29 O 0.48086 0.79773 0.75551 0.0
O30 O 0.57642 0.87374 0.71162 0.0
C31 C 0.45418 0.87372 0.93343 0.0
O32 O 0.53332 0.97603 0.77252 0.0
Co33 Co 0.38206 0.89864 0.75013 0.0
O34 O 0.44388 0.98641 0.78296 0.0
C35 C 0.43678 0.87779 0.54703 0.0
C36 C 0.53564 0.8143 0.71028 0.0
C37 C 0.50453 1.00927 0.78168 0.0
O38 O 0.4827 0.88203 0.6063 0.0
O39 O 0.38774 0.87859 0.58855 0.0
O40 O 0.51151 0.88036 0.9295 0.0
O41 O 0.42584 0.86429 0.83813 0.0
Co42 Co 0.64484 0.49321 0.1148 0.0
O43 O 0.7011 0.46181 0.07845 0.0
O44 O 0.72236 0.55824 0.04378 0.0
C45 C 0.6147 0.45375 0.28503 0.0
O46 O 0.59259 0.53703 0.14175 0.0
Co47 Co 0.50097 0.39229 0.13577 0.0
O48 O 0.49008 0.46391 0.17751 0.0
C49 C 0.55579 0.4387 0.9164 0.0
C50 C 0.73718 0.51421 0.02973 0.0
C51 C 0.53372 0.52004 0.16715 0.0
O52 O 0.60913 0.47298 0.963 0.0
O53 O 0.5056 0.39996 0.96874 0.0
O54 O 0.66923 0.50385 0.27074 0.0
O55 O 0.58685 0.42362 0.19562 0.0
Co56 Co 0.15219 0.67243 0.40065 0.0
O57 O 0.24071 0.72073 0.36064 0.0
O58 O 0.176 0.75966 0.35699 0.0
C59 C 0.18489 0.64622 0.58029 0.0
O60 O 0.05465 0.62639 0.43873 0.0
Co61 Co 0.13715 0.62771 0.37305 0.0
O62 O 0.05526 0.62335 0.4378 0.0
C63 C 0.1531 0.64152 0.1761 0.0
C64 C 0.23235 0.76666 0.33423 0.0
C65 C 1.01406 0.56799 0.45435 0.0
O66 O 0.12714 0.66577 0.23238 0.0
O67 O 0.17439 0.61296 0.23237 0.0
O68 O 0.1769 0.69252 0.56146 0.0
O69 O 0.17124 0.61041 0.49789 0.0
Co70 Co 0.54444 0.20459 0.76724 0.0
O71 O 0.56615 0.28899 0.7555 0.0
O72 O 0.47059 0.21299 0.71162 0.0
C73 C 0.59282 0.213 0.93342 0.0
O74 O 0.51368 0.11069 0.77252 0.0
Co75 Co 0.66494 0.18807 0.75012 0.0
O76 O 0.60311 0.10031 0.78296 0.0
C77 C 0.61022 0.20893 0.54703 0.0
C78 C 0.51137 0.27242 0.71028 0.0
C79 C 0.54247 0.07745 0.78169 0.0
O80 O 0.5643 0.20468 0.60629 0.0
O81 O 0.65927 0.20812 0.58855 0.0
O82 O 0.53549 0.20637 0.9295 0.0
O83 O 0.62116 0.22242 0.83812 0.0
Co84 Co 0.52387 0.67243 0.57209 0.0
O85 O 0.48367 0.72074 0.6121 0.0
O86 O 0.58732 0.75966 0.61576 0.0
C87 C 0.46496 0.64622 0.39244 0.0
O88 O 0.57534 0.62636 0.53402 0.0
Co89 Co 0.4942 0.62773 0.59967 0.0
O90 O 0.5717 0.62334 0.53487 0.0
C91 C 0.49204 0.64153 0.79663 0.0
C92 C 0.53797 0.76664 0.63857 0.0
C93 C 0.55746 0.56797 0.51805 0.0
O94 O 0.54227 0.66577 0.74036 0.0
O95 O 0.4422 0.61298 0.74035 0.0
O96 O 0.51926 0.69252 0.41127 0.0
O97 O 0.4428 0.61042 0.47483 0.0
Co98 Co 0.85199 0.49321 0.85796 0.0
O99 O 0.76432 0.46181 0.89431 0.0
O100 O 0.83952 0.55824 0.929 0.0
C101 C 0.84269 0.45377 0.68774 0.0
O102 O 0.94807 0.53702 0.83103 0.0
Co103 Co 0.89491 0.39228 0.83699 0.0
O104 O 0.97742 0.46389 0.79525 0.0
C105 C 0.8865 0.43868 0.05636 0.0
C106 C 0.78066 0.5142 0.94305 0.0
C107 C 0.98994 0.52003 0.80566 0.0
O108 O 0.86745 0.47297 0.00976 0.0
O109 O 0.89795 0.39994 0.00402 0.0
O110 O 0.83824 0.50386 0.70202 0.0
O111 O 0.84038 0.42362 0.77713 0.0
Co112 Co 0.38321 0.88212 0.20546 0.0
O113 O 0.32052 0.79772 0.21724 0.0
O114 O 0.30096 0.87373 0.26111 0.0
C115 C 0.42317 0.8737 0.03928 0.0
O116 O 0.44634 0.97602 0.20016 0.0
Co117 Co 0.52024 0.89865 0.22257 0.0
O118 O 0.54617 0.98642 0.18974 0.0
C119 C 0.44467 0.87778 0.42567 0.0
C120 C 0.28234 0.8143 0.26251 0.0
C121 C 0.50837 1.00927 0.19101 0.0
O122 O 0.403 0.88205 0.36641 0.0
O123 O 0.49451 0.87859 0.38415 0.0
O124 O 0.37247 0.88033 0.04321 0.0
O125 O 0.4421 0.8643 0.13458 0.0
Co126 Co 0.52311 0.41429 0.5721 0.0
O127 O 0.56333 0.366 0.61212 0.0
O128 O 0.45968 0.32706 0.61577 0.0
C129 C 0.58201 0.4405 0.39245 0.0
O130 O 0.47162 0.46033 0.534 0.0
Co131 Co 0.55279 0.45901 0.5997 0.0
O132 O 0.47526 0.46336 0.53494 0.0
C133 C 0.55494 0.4452 0.79665 0.0
C134 C 0.50904 0.32008 0.63858 0.0
C135 C 0.48943 0.51873 0.51839 0.0
O136 O 0.50471 0.42095 0.74037 0.0
O137 O 0.60478 0.47377 0.74038 0.0
O138 O 0.52773 0.39419 0.41129 0.0
O139 O 0.60418 0.4763 0.47484 0.0
Co140 Co 0.19499 0.5935 0.85794 0.0
O141 O 0.28266 0.62491 0.89429 0.0
O142 O 0.20746 0.52847 0.92897 0.0
C143 C 0.20429 0.63294 0.68773 0.0
O144 O 0.09891 0.54968 0.831 0.0
Co145 Co 0.15206 0.69443 0.83698 0.0
O146 O 0.06954 0.62281 0.79524 0.0
C147 C 0.16047 0.64803 0.05635 0.0
C148 C 0.26632 0.57252 0.94303 0.0
C149 C 0.05704 0.56668 0.80561 0.0
O150 O 0.17952 0.61374 0.00974 0.0
O151 O 0.14902 0.68676 0.00401 0.0
O152 O 0.20874 0.58286 0.702 0.0
O153 O 0.2066 0.66309 0.77712 0.0
Co154 Co 0.66379 0.20459 0.20546 0.0
O155 O 0.72648 0.28899 0.21724 0.0
O156 O 0.74604 0.21298 0.26111 0.0
C157 C 0.62383 0.21301 0.03928 0.0
O158 O 0.60066 0.1107 0.20016 0.0
Co159 Co 0.52676 0.18806 0.22257 0.0
O160 O 0.50083 0.1003 0.18973 0.0
C161 C 0.60233 0.20893 0.42566 0.0
C162 C 0.76466 0.27241 0.2625 0.0
C163 C 0.53862 0.07745 0.19099 0.0
O164 O 0.64401 0.20467 0.3664 0.0
O165 O 0.55249 0.20813 0.38414 0.0
O166 O 0.67453 0.20638 0.04321 0.0
O167 O 0.6049 0.22242 0.13458 0.0
loop_
_geom_bond_atom_site_label_1
_geom_bond_atom_site_label_2
_geom_bond_distance
_geom_bond_site_symmetry_2
_ccdc_geom_bond_type
Co0 O1 2.216 . S
Co0 O2 2.091 . S
Co0 O4 2.004 . S
Co0 O10 2.021 1_554 S
Co0 O12 2.137 . S
Co0 O13 2.244 . S
O1 Co0 2.216 . S
O1 C8 1.247 . S
O2 Co0 2.091 . S
O2 C8 1.261 . S
C3 O12 1.247 . S
C3 O13 1.272 . S
O4 Co0 2.004 . S
O4 C9 1.259 . S
Co5 O6 2.061 . S
Co5 O11 2.052 1_554 S
Co5 O13 2.135 . S
O6 Co5 2.061 . S
O6 C9 1.235 . S
C7 O10 1.238 . S
C7 O11 1.241 . S
C8 O1 1.247 . S
C8 O2 1.261 . S
C9 O4 1.259 . S
C9 O6 1.235 . S
O10 Co0 2.021 1_556 S
O10 C7 1.238 . S
O11 Co5 2.052 1_556 S
O11 C7 1.241 . S
O12 Co0 2.137 . S
O12 C3 1.247 . S
O13 Co0 2.244 . S
O13 C3 1.272 . S
O13 Co5 2.135 . S
Co14 O15 2.216 . S
Co14 O16 2.091 . S
Co14 O18 2.004 . S
Co14 O24 2.021 . S
Co14 O26 2.137 . S
Co14 O27 2.244 . S
O15 Co14 2.216 . S
O15 C22 1.247 . S
O16 Co14 2.091 . S
O16 C22 1.261 . S
C17 O26 1.247 . S
C17 O27 1.272 . S
O18 Co14 2.004 . S
O18 C23 1.259 1_655 S
Co19 O20 2.061 . S
Co19 O25 2.052 . S
Co19 O27 2.135 . S
O20 Co19 2.061 . S
O20 C23 1.235 1_655 S
C21 O24 1.238 . S
C21 O25 1.241 . S
C22 O15 1.247 . S
C22 O16 1.261 . S
C23 O18 1.259 1_455 S
C23 O20 1.235 1_455 S
O24 Co14 2.021 . S
O24 C21 1.238 . S
O25 Co19 2.052 . S
O25 C21 1.241 . S
O26 Co14 2.137 . S
O26 C17 1.247 . S
O27 Co14 2.244 . S
O27 C17 1.272 . S
O27 Co19 2.135 . S
Co28 O29 2.216 . S
Co28 O30 2.091 . S
Co28 O32 2.004 . S
Co28 O38 2.021 . S
Co28 O40 2.137 . S
Co28 O41 2.244 . S
O29 Co28 2.216 . S
O29 C36 1.247 . S
O30 Co28 2.091 . S
O30 C36 1.261 . S
C31 O40 1.247 . S
C31 O41 1.272 . S
O32 Co28 2.004 . S
O32 C37 1.259 . S
Co33 O34 2.061 . S
Co33 O39 2.052 . S
Co33 O41 2.135 . S
O34 Co33 2.061 . S
O34 C37 1.235 . S
C35 O38 1.238 . S
C35 O39 1.241 . S
C36 O29 1.247 . S
C36 O30 1.261 . S
C37 O32 1.259 . S
C37 O34 1.235 . S
O38 Co28 2.021 . S
O38 C35 1.238 . S
O39 Co33 2.052 . S
O39 C35 1.241 . S
O40 Co28 2.137 . S
O40 C31 1.247 . S
O41 Co28 2.244 . S
O41 C31 1.272 . S
O41 Co33 2.135 . S
Co42 O43 2.216 . S
Co42 O44 2.091 . S
Co42 O46 2.004 . S
Co42 O52 2.021 1_554 S
Co42 O54 2.137 . S
Co42 O55 2.244 . S
O43 Co42 2.216 . S
O43 C50 1.247 . S
O44 Co42 2.091 . S
O44 C50 1.261 . S
C45 O54 1.247 . S
C45 O55 1.272 . S
O46 Co42 2.004 . S
O46 C51 1.259 . S
Co47 O48 2.061 . S
Co47 O53 2.052 1_554 S
Co47 O55 2.135 . S
O48 Co47 2.061 . S
O48 C51 1.235 . S
C49 O52 1.238 . S
C49 O53 1.241 . S
C50 O43 1.247 . S
C50 O44 1.261 . S
C51 O46 1.259 . S
C51 O48 1.235 . S
O52 Co42 2.021 1_556 S
O52 C49 1.238 . S
O53 Co47 2.052 1_556 S
O53 C49 1.241 . S
O54 Co42 2.137 . S
O54 C45 1.247 . S
O55 Co42 2.244 . S
O55 C45 1.272 . S
O55 Co47 2.135 . S
Co56 O57 2.216 . S
Co56 O58 2.091 . S
Co56 O60 2.004 . S
Co56 O66 2.021 . S
Co56 O68 2.137 . S
Co56 O69 2.244 . S
O57 Co56 2.216 . S
O57 C64 1.247 . S
O58 Co56 2.091 . S
O58 C64 1.261 . S
C59 O68 1.247 . S
C59 O69 1.272 . S
O60 Co56 2.004 . S
O60 C65 1.259 1_455 S
Co61 O62 2.061 . S
Co61 O67 2.052 . S
Co61 O69 2.135 . S
O62 Co61 2.061 . S
O62 C65 1.235 1_455 S
C63 O66 1.238 . S
C63 O67 1.241 . S
C64 O57 1.247 . S
C64 O58 1.261 . S
C65 O60 1.259 1_655 S
C65 O62 1.235 1_655 S
O66 Co56 2.021 . S
O66 C63 1.238 . S
O67 Co61 2.052 . S
O67 C63 1.241 . S
O68 Co56 2.137 . S
O68 C59 1.247 . S
O69 Co56 2.244 . S
O69 C59 1.272 . S
O69 Co61 2.135 . S
Co70 O71 2.216 . S
Co70 O72 2.091 . S
Co70 O74 2.004 . S
Co70 O80 2.021 . S
Co70 O82 2.137 . S
Co70 O83 2.244 . S
O71 Co70 2.216 . S
O71 C78 1.247 . S
O72 Co70 2.091 . S
O72 C78 1.261 . S
C73 O82 1.247 . S
C73 O83 1.272 . S
O74 Co70 2.004 . S
O74 C79 1.259 . S
Co75 O76 2.061 . S
Co75 O81 2.052 . S
Co75 O83 2.135 . S
O76 Co75 2.061 . S
O76 C79 1.235 . S
C77 O80 1.238 . S
C77 O81 1.241 . S
C78 O71 1.247 . S
C78 O72 1.261 . S
C79 O74 1.259 . S
C79 O76 1.235 . S
O80 Co70 2.021 . S
O80 C77 1.238 . S
O81 Co75 2.052 . S
O81 C77 1.241 . S
O82 Co70 2.137 . S
O82 C73 1.247 . S
O83 Co70 2.244 . S
O83 C73 1.272 . S
O83 Co75 2.135 . S
Co84 O85 2.216 . S
Co84 O86 2.091 . S
Co84 O88 2.004 . S
Co84 O94 2.021 . S
Co84 O96 2.137 . S
Co84 O97 2.244 . S
O85 Co84 2.216 . S
O85 C92 1.247 . S
O86 Co84 2.091 . S
O86 C92 1.261 . S
C87 O96 1.247 . S
C87 O97 1.272 . S
O88 Co84 2.004 . S
O88 C93 1.259 . S
Co89 O90 2.061 . S
Co89 O95 2.052 . S
Co89 O97 2.135 . S
O90 Co89 2.061 . S
O90 C93 1.235 . S
C91 O94 1.238 . S
C91 O95 1.241 . S
C92 O85 1.247 . S
C92 O86 1.261 . S
C93 O88 1.259 . S
C93 O90 1.235 . S
O94 Co84 2.021 . S
O94 C91 1.238 . S
O95 Co89 2.052 . S
O95 C91 1.241 . S
O96 Co84 2.137 . S
O96 C87 1.247 . S
O97 Co84 2.244 . S
O97 C87 1.272 . S
O97 Co89 2.135 . S
Co98 O99 2.216 . S
Co98 O100 2.091 . S
Co98 O102 2.004 . S
Co98 O108 2.021 1_556 S
Co98 O110 2.137 . S
Co98 O111 2.244 . S
O99 Co98 2.216 . S
O99 C106 1.247 . S
O100 Co98 2.091 . S
O100 C106 1.261 . S
C101 O110 1.247 . S
C101 O111 1.272 . S
O102 Co98 2.004 . S
O102 C107 1.259 . S
Co103 O104 2.061 . S
Co103 O109 2.052 1_556 S
Co103 O111 2.135 . S
O104 Co103 2.061 . S
O104 C107 1.235 . S
C105 O108 1.238 . S
C105 O109 1.241 . S
C106 O99 1.247 . S
C106 O100 1.261 . S
C107 O102 1.259 . S
C107 O104 1.235 . S
O108 Co98 2.021 1_554 S
O108 C105 1.238 . S
O109 Co103 2.052 1_554 S
O109 C105 1.241 . S
O110 Co98 2.137 . S
O110 C101 1.247 . S
O111 Co98 2.244 . S
O111 C101 1.272 . S
O111 Co103 2.135 . S
Co112 O113 2.216 . S
Co112 O114 2.091 . S
Co112 O116 2.004 . S
Co112 O122 2.021 . S
Co112 O124 2.137 . S
Co112 O125 2.244 . S
O113 Co112 2.216 . S
O113 C120 1.247 . S
O114 Co112 2.091 . S
O114 C120 1.261 . S
C115 O124 1.247 . S
C115 O125 1.272 . S
O116 Co112 2.004 . S
O116 C121 1.259 . S
Co117 O118 2.061 . S
Co117 O123 2.052 . S
Co117 O125 2.135 . S
O118 Co117 2.061 . S
O118 C121 1.235 . S
C119 O122 1.238 . S
C119 O123 1.241 . S
C120 O113 1.247 . S
C120 O114 1.261 . S
C121 O116 1.259 . S
C121 O118 1.235 . S
O122 Co112 2.021 . S
O122 C119 1.238 . S
O123 Co117 2.052 . S
O123 C119 1.241 . S
O124 Co112 2.137 . S
O124 C115 1.247 . S
O125 Co112 2.244 . S
O125 C115 1.272 . S
O125 Co117 2.135 . S
Co126 O127 2.216 . S
Co126 O128 2.091 . S
Co126 O130 2.004 . S
Co126 O136 2.021 . S
Co126 O138 2.137 . S
Co126 O139 2.244 . S
O127 Co126 2.216 . S
O127 C134 1.247 . S
O128 Co126 2.091 . S
O128 C134 1.261 . S
C129 O138 1.247 . S
C129 O139 1.272 . S
O130 Co126 2.004 . S
O130 C135 1.259 . S
Co131 O132 2.061 . S
Co131 O137 2.052 . S
Co131 O139 2.135 . S
O132 Co131 2.061 . S
O132 C135 1.235 . S
C133 O136 1.238 . S
C133 O137 1.241 . S
C134 O127 1.247 . S
C134 O128 1.261 . S
C135 O130 1.259 . S
C135 O132 1.235 . S
O136 Co126 2.021 . S
O136 C133 1.238 . S
O137 Co131 2.052 . S
O137 C133 1.241 . S
O138 Co126 2.137 . S
O138 C129 1.247 . S
O139 Co126 2.244 . S
O139 C129 1.272 . S
O139 Co131 2.135 . S
Co140 O141 2.216 . S
Co140 O142 2.091 . S
Co140 O144 2.004 . S
Co140 O150 2.021 1_556 S
Co140 O152 2.137 . S
Co140 O153 2.244 . S
O141 Co140 2.216 . S
O141 C148 1.247 . S
O142 Co140 2.091 . S
O142 C148 1.261 . S
C143 O152 1.247 . S
C143 O153 1.272 . S
O144 Co140 2.004 . S
O144 C149 1.259 . S
Co145 O146 2.061 . S
Co145 O151 2.052 1_556 S
Co145 O153 2.135 . S
O146 Co145 2.061 . S
O146 C149 1.235 . S
C147 O150 1.238 . S
C147 O151 1.241 . S
C148 O141 1.247 . S
C148 O142 1.261 . S
C149 O144 1.259 . S
C149 O146 1.235 . S
O150 Co140 2.021 1_554 S
O150 C147 1.238 . S
O151 Co145 2.052 1_554 S
O151 C147 1.241 . S
O152 Co140 2.137 . S
O152 C143 1.247 . S
O153 Co140 2.244 . S
O153 C143 1.272 . S
O153 Co145 2.135 . S
Co154 O155 2.216 . S
Co154 O156 2.091 . S
Co154 O158 2.004 . S
Co154 O164 2.021 . S
Co154 O166 2.137 . S
Co154 O167 2.244 . S
O155 Co154 2.216 . S
O155 C162 1.247 . S
O156 Co154 2.091 . S
O156 C162 1.261 . S
C157 O166 1.247 . S
C157 O167 1.272 . S
O158 Co154 2.004 . S
O158 C163 1.259 . S
Co159 O160 2.061 . S
Co159 O165 2.052 . S
Co159 O167 2.135 . S
O160 Co159 2.061 . S
O160 C163 1.235 . S
C161 O164 1.238 . S
C161 O165 1.241 . S
C162 O155 1.247 . S
C162 O156 1.261 . S
C163 O158 1.259 . S
C163 O160 1.235 . S
O164 Co154 2.021 . S
O164 C161 1.238 . S
O165 Co159 2.052 . S
O165 C161 1.241 . S
O166 Co154 2.137 . S
O166 C157 1.247 . S
O167 Co154 2.244 . S
O167 C157 1.272 . S
O167 Co159 2.135 . S
C3 C87 1.626 . S
C17 C101 1.625 . S
C31 C115 1.628 1_556 S
C45 C129 1.626 . S
C59 C143 1.625 . S
C157 C73 1.628 1_554 S
C8 C148 1.714 1_554 S
C22 C162 2.234 . S
C36 C92 2.234 . S
C50 C106 1.714 1_554 S
C64 C120 2.234 . S
C78 C134 2.234 . S
C9 C51 1.171 . S
C23 C65 3.215 1_455 S
C79 C37 1.410 1_545 S
C93 C135 3.215 . S
C149 C107 1.171 1_455 S
C121 C163 1.410 1_565 S
C91 C7 1.756 . S
C21 C105 1.756 . S
C35 C119 2.018 . S
C133 C49 1.756 . S
C147 C63 1.756 . S
C77 C161 2.018 . S
