# Generated by pormake.
# Topology cds, (4)-cn, num edge types: 1
# Building blocks:
#     Node 0, Type 0, BuildingBlock: NAWXER_clean_sbu_0, # of connection points: 4
#     Node 1, Type 0, BuildingBlock: NAWXER_clean_sbu_0, # of connection points: 4
#     Edge 2, Type (0, 0), BuildingBlock: AJUNOK_clean_linker_0, # of connection points: 2
#     Edge 3, Type (0, 0), BuildingBlock: AJUNOK_clean_linker_0, # of connection points: 2
#     Edge 4, Type (0, 0), BuildingBlock: AJUNOK_clean_linker_0, # of connection points: 2
#     Edge 5, Type (0, 0), BuildingBlock: AJUNOK_clean_linker_0, # of connection points: 2
# Relax obj value: 0.000
# Max RMSD: 0.000
# Mean RMSD: 0.000
data_MOF--net-cds--node1-NAWXER_clean_sbu_0--edge1-AJUNOK_clean_linker_0
_symmetry_space_group_name_H-M    P1
_symmetry_Int_Tables_number       1
_symmetry_cell_setting            triclinic
loop_
_symmetry_equiv_pos_as_xyz
'x, y, z'
_cell_length_a     10.675921
_cell_length_b     10.736033
_cell_length_c     21.16613
_cell_angle_alpha  95.179574
_cell_angle_beta   95.290393
_cell_angle_gamma 88.817632
loop_
_atom_site_label
_atom_site_type_symbol
_atom_site_fract_x
_atom_site_fract_y
_atom_site_fract_z
_atom_type_partial_charge
C0 C 0.17105 0.84583 0.99605 0.0
C1 C 0.71268 0.84621 0.99271 0.0
O2 O 0.10215 0.74982 0.99302 0.0
Zn3 Zn 0.943 0.84126 0.99907 0.0
O4 O 0.12148 0.95522 1.00371 0.0
Zn5 Zn 0.94038 0.04037 1.01082 0.0
O6 O 0.94763 0.12559 0.09487 0.0
O7 O 0.95941 0.92041 0.09652 0.0
O8 O 0.76016 0.95571 0.99953 0.0
O9 O 0.78489 0.75051 0.99201 0.0
O10 O 0.9286 0.93652 0.91209 0.0
O11 O 0.93304 0.14042 0.93998 0.0
C12 C 0.95819 0.02997 0.12614 0.0
C13 C 0.92697 0.04978 0.89688 0.0
C14 C 0.18519 0.31774 0.53349 0.0
C15 C 0.18574 0.8603 0.52964 0.0
O16 O 0.28168 0.24657 0.53836 0.0
Zn17 Zn 0.19092 0.08842 0.53073 0.0
O18 O 0.07564 0.26922 0.526 0.0
Zn19 Zn 0.99045 0.09098 0.51697 0.0
O20 O 0.88945 0.09827 0.58764 0.0
O21 O 0.09377 0.10023 0.61669 0.0
O22 O 0.07624 0.91075 0.52167 0.0
O23 O 0.28236 0.92939 0.53641 0.0
O24 O 0.11213 0.0733 0.43249 0.0
O25 O 0.90526 0.08433 0.43298 0.0
C26 C 0.97957 0.10151 0.63132 0.0
C27 C 1.00221 0.07457 0.4023 0.0
C28 C 0.05364 0.96831 0.23096 0.0
C29 C 0.96851 0.04402 0.19637 0.0
C30 C 0.06532 0.9801 0.29778 0.0
C31 C 0.98916 0.06492 0.33208 0.0
H32 H 0.11291 0.90079 0.2062 0.0
H33 H 0.13288 0.92097 0.32276 0.0
S34 S 0.75006 0.28252 0.26385 0.0
N35 N 0.80749 0.20705 0.20114 0.0
N36 N 0.82566 0.22545 0.32677 0.0
C37 C 0.90256 0.13992 0.29806 0.0
C38 C 0.89329 0.13052 0.23012 0.0
C39 C 0.0201 0.15162 0.81145 0.0
C40 C 0.92845 0.07321 0.82953 0.0
C41 C 0.03423 0.1626 0.74697 0.0
C42 C 0.95469 0.09845 0.69862 0.0
H43 H 0.08501 0.20026 0.84728 0.0
H44 H 0.10902 0.22031 0.73486 0.0
S45 S 0.69473 0.88785 0.72181 0.0
N46 N 0.75467 0.93367 0.79476 0.0
N47 N 0.77758 0.958 0.67346 0.0
C48 C 0.85905 0.02411 0.71632 0.0
C49 C 0.84699 1.01036 0.78189 0.0
C50 C 0.5139 0.73807 1.01144 0.0
C51 C 0.57407 0.83512 0.98589 0.0
C52 C 0.3821 0.73818 1.01252 0.0
C53 C 0.30723 0.83545 0.98817 0.0
H54 H 0.56916 0.66491 0.03321 0.0
H55 H 0.33933 0.66499 0.03494 0.0
S56 S 0.41757 0.09734 0.90522 0.0
N57 N 0.54721 0.02093 0.92802 0.0
N58 N 0.30142 0.02126 0.93011 0.0
C59 C 0.36603 0.92795 0.95876 0.0
C60 C 0.49902 0.92774 0.95759 0.0
C61 C 0.08216 0.65666 0.53376 0.0
C62 C 0.19434 0.72249 0.53245 0.0
C63 C 0.0821 0.52726 0.53517 0.0
C64 C 0.19421 0.45605 0.53522 0.0
H65 H 0.99212 0.70514 0.5336 0.0
H66 H 0.992 0.48299 0.53581 0.0
S67 S 0.51525 0.58206 0.53406 0.0
N68 N 0.42219 0.70692 0.53292 0.0
N69 N 0.42208 0.46144 0.53532 0.0
C70 C 0.3081 0.52008 0.53502 0.0
C71 C 0.30817 0.65353 0.53369 0.0
loop_
_geom_bond_atom_site_label_1
_geom_bond_atom_site_label_2
_geom_bond_distance
_geom_bond_site_symmetry_2
_ccdc_geom_bond_type
C0 O2 1.249 1_554 S
C0 O4 1.256 1_565 S
C1 O8 1.251 1_556 S
C1 O9 1.254 1_545 S
O2 C0 1.249 1_556 S
O2 Zn3 2.029 1_455 S
Zn3 O2 2.029 1_655 S
Zn3 O7 2.035 1_656 S
Zn3 O9 2.034 . S
Zn3 O10 2.028 . S
O4 C0 1.256 1_545 S
O4 Zn5 2.036 . S
Zn5 O4 2.036 . S
Zn5 O6 2.028 . S
Zn5 O8 2.027 1_455 S
Zn5 O11 2.035 1_454 S
O6 Zn5 2.028 . S
O6 C12 1.251 . S
O7 Zn3 2.035 1_454 S
O7 C12 1.254 1_565 S
O8 C1 1.251 1_554 S
O8 Zn5 2.027 1_655 S
O9 C1 1.254 1_565 S
O9 Zn3 2.034 . S
O10 Zn3 2.028 . S
O10 C13 1.249 . S
O11 Zn5 2.035 1_656 S
O11 C13 1.256 1_545 S
C12 O6 1.251 . S
C12 O7 1.254 1_545 S
C13 O10 1.249 . S
C13 O11 1.256 1_565 S
C14 O16 1.251 . S
C14 O18 1.254 1_455 S
C15 O22 1.249 . S
C15 O23 1.256 1_655 S
O16 C14 1.251 . S
O16 Zn17 2.028 . S
Zn17 O16 2.028 . S
Zn17 O21 2.035 . S
Zn17 O23 2.035 1_545 S
Zn17 O24 2.028 1_545 S
O18 C14 1.254 1_655 S
O18 Zn19 2.035 1_545 S
Zn19 O18 2.035 1_565 S
Zn19 O20 2.028 1_565 S
Zn19 O22 2.028 . S
Zn19 O25 2.035 . S
O20 Zn19 2.028 1_545 S
O20 C26 1.249 . S
O21 Zn17 2.035 . S
O21 C26 1.256 1_455 S
O22 C15 1.249 . S
O22 Zn19 2.028 . S
O23 C15 1.256 1_455 S
O23 Zn17 2.035 1_565 S
O24 Zn17 2.028 1_565 S
O24 C27 1.251 . S
O25 Zn19 2.035 . S
O25 C27 1.254 1_655 S
C26 O20 1.249 . S
C26 O21 1.256 1_655 S
C27 O24 1.251 . S
C27 O25 1.254 1_455 S
C28 C29 1.367 1_465 S
C28 C30 1.419 . S
C28 H32 0.930 . S
C29 C28 1.367 1_645 S
C29 C38 1.432 . S
C30 C28 1.419 . S
C30 C31 1.360 1_465 S
C30 H33 0.929 . S
C31 C30 1.360 1_645 S
C31 C37 1.431 . S
H32 C28 0.930 . S
H33 C30 0.929 . S
S34 N35 1.613 . S
S34 N36 1.610 . S
N35 S34 1.613 . S
N35 C38 1.350 . S
N36 S34 1.610 . S
N36 C37 1.351 . S
C37 C31 1.431 . S
C37 N36 1.351 . S
C37 C38 1.434 . S
C38 C29 1.432 . S
C38 N35 1.350 . S
C38 C37 1.434 . S
C39 C40 1.366 1_445 S
C39 C41 1.419 . S
C39 H43 0.930 . S
C40 C39 1.366 1_665 S
C40 C49 1.431 . S
C41 C39 1.419 . S
C41 C42 1.356 1_445 S
C41 H44 0.929 . S
C42 C41 1.356 1_665 S
C42 C48 1.438 . S
H43 C39 0.930 . S
H44 C41 0.929 . S
S45 N46 1.613 . S
S45 N47 1.610 . S
N46 S45 1.613 . S
N46 C49 1.350 . S
N47 S45 1.610 . S
N47 C48 1.351 . S
C48 C42 1.438 . S
C48 N47 1.351 . S
C48 C49 1.434 . S
C49 C40 1.431 . S
C49 N46 1.350 . S
C49 C48 1.434 . S
C50 C51 1.359 1_564 S
C50 C52 1.419 . S
C50 H54 0.930 . S
C51 C50 1.359 1_546 S
C51 C60 1.438 . S
C52 C50 1.419 . S
C52 C53 1.357 1_564 S
C52 H55 0.929 . S
C53 C52 1.357 1_546 S
C53 C59 1.436 . S
H54 C50 0.930 . S
H55 C52 0.929 . S
S56 N57 1.613 . S
S56 N58 1.610 . S
N57 S56 1.613 . S
N57 C60 1.350 . S
N58 S56 1.610 . S
N58 C59 1.351 . S
C59 C53 1.436 . S
C59 N58 1.351 . S
C59 C60 1.434 . S
C60 C51 1.438 . S
C60 N57 1.350 . S
C60 C59 1.434 . S
C61 C62 1.368 1_655 S
C61 C63 1.419 . S
C61 H65 0.930 . S
C62 C61 1.368 1_455 S
C62 C71 1.430 . S
C63 C61 1.419 . S
C63 C64 1.361 1_655 S
C63 H66 0.929 . S
C64 C63 1.361 1_455 S
C64 C70 1.430 . S
H65 C61 0.930 . S
H66 C63 0.929 . S
S67 N68 1.613 . S
S67 N69 1.610 . S
N68 S67 1.613 . S
N68 C71 1.350 . S
N69 S67 1.610 . S
N69 C70 1.351 . S
C70 C64 1.430 . S
C70 N69 1.351 . S
C70 C71 1.434 . S
C71 C62 1.430 . S
C71 N68 1.350 . S
C71 C70 1.434 . S
C29 C12 1.497 1_655 S
C31 C27 1.498 1_645 S
C40 C13 1.499 . S
C42 C26 1.499 1_565 S
C51 C1 1.499 . S
C53 C0 1.498 1_546 S
C62 C15 1.498 1_455 S
C64 C14 1.499 . S
