# Generated by pormake.
# Topology msp, (4)-cn, num edge types: 1
# Building blocks:
#     Node 0, Type 0, BuildingBlock: QUQFOY_clean_sbu_1, # of connection points: 4
#     Node 1, Type 0, BuildingBlock: QUQFOY_clean_sbu_1, # of connection points: 4
#     Node 2, Type 0, BuildingBlock: QUQFOY_clean_sbu_1, # of connection points: 4
#     Node 3, Type 0, BuildingBlock: QUQFOY_clean_sbu_1, # of connection points: 4
#     Node 4, Type 0, BuildingBlock: QUQFOY_clean_sbu_1, # of connection points: 4
#     Node 5, Type 0, BuildingBlock: QUQFOY_clean_sbu_1, # of connection points: 4
#     Node 6, Type 0, BuildingBlock: QUQFOY_clean_sbu_1, # of connection points: 4
#     Node 7, Type 0, BuildingBlock: QUQFOY_clean_sbu_1, # of connection points: 4
#     Edge 8, Type (0, 0), BuildingBlock: EYOCIG_clean_linker_4, # of connection points: 2
#     Edge 9, Type (0, 0), BuildingBlock: EYOCIG_clean_linker_4, # of connection points: 2
#     Edge 10, Type (0, 0), BuildingBlock: EYOCIG_clean_linker_4, # of connection points: 2
#     Edge 11, Type (0, 0), BuildingBlock: EYOCIG_clean_linker_4, # of connection points: 2
#     Edge 12, Type (0, 0), BuildingBlock: EYOCIG_clean_linker_4, # of connection points: 2
#     Edge 13, Type (0, 0), BuildingBlock: EYOCIG_clean_linker_4, # of connection points: 2
#     Edge 14, Type (0, 0), BuildingBlock: EYOCIG_clean_linker_4, # of connection points: 2
#     Edge 15, Type (0, 0), BuildingBlock: EYOCIG_clean_linker_4, # of connection points: 2
#     Edge 16, Type (0, 0), BuildingBlock: EYOCIG_clean_linker_4, # of connection points: 2
#     Edge 17, Type (0, 0), BuildingBlock: EYOCIG_clean_linker_4, # of connection points: 2
#     Edge 18, Type (0, 0), BuildingBlock: EYOCIG_clean_linker_4, # of connection points: 2
#     Edge 19, Type (0, 0), BuildingBlock: EYOCIG_clean_linker_4, # of connection points: 2
#     Edge 20, Type (0, 0), BuildingBlock: EYOCIG_clean_linker_4, # of connection points: 2
#     Edge 21, Type (0, 0), BuildingBlock: EYOCIG_clean_linker_4, # of connection points: 2
#     Edge 22, Type (0, 0), BuildingBlock: EYOCIG_clean_linker_4, # of connection points: 2
#     Edge 23, Type (0, 0), BuildingBlock: EYOCIG_clean_linker_4, # of connection points: 2
# Relax obj value: 0.058
# Max RMSD: 0.120
# Mean RMSD: 0.120
data_MOF--net-msp--node1-QUQFOY_clean_sbu_1--edge1-EYOCIG_clean_linker_4
_symmetry_space_group_name_H-M    P1
_symmetry_Int_Tables_number       1
_symmetry_cell_setting            triclinic
loop_
_symmetry_equiv_pos_as_xyz
'x, y, z'
_cell_length_a     18.686245
_cell_length_b     31.274652
_cell_length_c     26.75586
_cell_angle_alpha  89.98918
_cell_angle_beta   92.516718
_cell_angle_gamma 89.991475
loop_
_atom_site_label
_atom_site_type_symbol
_atom_site_fract_x
_atom_site_fract_y
_atom_site_fract_z
_atom_type_partial_charge
O0 O 0.09141 0.29256 0.32569 0.0
Cd1 Cd 1.00778 0.30162 0.37066 0.0
Cd2 Cd 0.07328 0.37782 0.37845 0.0
O3 O 0.11531 0.36051 0.31008 0.0
O4 O 0.93447 0.25823 0.34777 0.0
O5 O 0.92 0.32828 0.33792 0.0
C6 C 0.89777 0.28979 0.32896 0.0
C7 C 0.04028 0.442 0.4161 0.0
C8 C 0.1256 0.32065 0.30239 0.0
C9 C 0.10386 0.3104 0.45521 0.0
O10 O 0.12545 0.34195 0.43058 0.0
O11 O 0.04338 0.29319 0.44444 0.0
O12 O 0.10373 0.43692 0.39996 0.0
O13 O 0.99279 0.41299 0.40543 0.0
O14 O 0.4268 0.29263 0.66966 0.0
Cd15 Cd 0.51021 0.30136 0.62447 0.0
Cd16 Cd 0.44554 0.37788 0.61684 0.0
O17 O 0.40332 0.36065 0.68522 0.0
O18 O 0.58361 0.25805 0.64745 0.0
O19 O 0.59814 0.32815 0.65675 0.0
C20 C 0.62037 0.28968 0.66598 0.0
C21 C 0.47884 0.44189 0.57891 0.0
C22 C 0.39275 0.3208 0.69291 0.0
C23 C 0.4133 0.31044 0.54044 0.0
O24 O 0.39252 0.34224 0.56497 0.0
O25 O 0.47371 0.29299 0.5509 0.0
O26 O 0.41556 0.4371 0.59543 0.0
O27 O 0.52612 0.41269 0.58935 0.0
O28 O 0.92731 0.75115 0.66837 0.0
Cd29 Cd 0.01102 0.74202 0.62347 0.0
Cd30 Cd 0.94606 0.6653 0.6164 0.0
O31 O 0.90261 0.68331 0.68411 0.0
O32 O 0.08413 0.78572 0.6459 0.0
O33 O 0.09923 0.71576 0.65612 0.0
C34 C 0.12122 0.75436 0.66477 0.0
C35 C 0.98048 0.60093 0.57978 0.0
C36 C 0.89248 0.72324 0.69149 0.0
C37 C 0.91484 0.73218 0.53898 0.0
O38 O 0.89392 0.70045 0.5636 0.0
O39 O 0.97499 0.74982 0.54972 0.0
O40 O 0.91677 0.60583 0.59553 0.0
O41 O 0.02743 0.63028 0.59032 0.0
O42 O 0.59137 0.75003 0.32537 0.0
Cd43 Cd 0.50796 0.74122 0.37063 0.0
Cd44 Cd 0.57239 0.66484 0.37804 0.0
O45 O 0.61508 0.68204 0.30989 0.0
O46 O 0.43444 0.78448 0.34776 0.0
O47 O 0.4199 0.71436 0.3386 0.0
C48 C 0.39757 0.75281 0.32942 0.0
C49 C 0.53809 0.60062 0.41495 0.0
C50 C 0.62559 0.72188 0.30221 0.0
C51 C 0.60447 0.73208 0.45487 0.0
O52 O 0.62517 0.70021 0.4304 0.0
O53 O 0.54428 0.74971 0.44419 0.0
O54 O 0.60176 0.60547 0.39911 0.0
O55 O 0.49113 0.62997 0.40444 0.0
O56 O 0.59178 0.79307 0.82515 0.0
Cd57 Cd 0.50834 0.80171 0.87032 0.0
Cd58 Cd 0.57181 0.87836 0.87776 0.0
O59 O 0.61499 0.86114 0.80969 0.0
O60 O 0.4349 0.7584 0.84744 0.0
O61 O 0.42033 0.82851 0.83811 0.0
C62 C 0.39807 0.79004 0.82895 0.0
C63 C 0.53683 0.9422 0.91522 0.0
C64 C 0.6259 0.82132 0.80207 0.0
C65 C 0.60532 0.81121 0.95429 0.0
O66 O 0.6254 0.84326 0.92988 0.0
O67 O 0.54523 0.79339 0.94382 0.0
O68 O 0.60033 0.93784 0.8989 0.0
O69 O 0.49026 0.91262 0.90481 0.0
O70 O 0.92695 0.79169 0.168 0.0
Cd71 Cd 0.01108 0.80093 0.12345 0.0
Cd72 Cd 0.94603 0.87749 0.11649 0.0
O73 O 0.90247 0.85949 0.18408 0.0
O74 O 0.08405 0.75722 0.14606 0.0
O75 O 0.09897 0.82717 0.1565 0.0
C76 C 0.12095 0.78857 0.16514 0.0
C77 C 0.9801 0.94199 0.08014 0.0
C78 C 0.89218 0.81955 0.19123 0.0
C79 C 0.91583 0.81095 0.03854 0.0
O80 O 0.89437 0.8424 0.0634 0.0
O81 O 0.97599 0.79337 0.04945 0.0
O82 O 0.91633 0.93689 0.09571 0.0
O83 O 0.02726 0.91277 0.09076 0.0
O84 O 0.42687 0.25064 0.16811 0.0
Cd85 Cd 0.51098 0.24149 0.12339 0.0
Cd86 Cd 0.4452 0.16514 0.11629 0.0
O87 O 0.40194 0.18287 0.18397 0.0
O88 O 0.58396 0.28523 0.1459 0.0
O89 O 0.59926 0.21529 0.15609 0.0
C90 C 0.62119 0.2539 0.1647 0.0
C91 C 0.47799 0.10065 0.07949 0.0
C92 C 0.39187 0.2228 0.19123 0.0
C93 C 0.41557 0.23191 0.03853 0.0
O94 O 0.39379 0.20059 0.06345 0.0
O95 O 0.4759 0.24928 0.04941 0.0
O96 O 0.41439 0.10606 0.0952 0.0
O97 O 0.52572 0.12951 0.09025 0.0
O98 O 0.09117 0.25052 0.82594 0.0
Cd99 Cd 1.00774 0.24168 0.87109 0.0
Cd100 Cd 0.07221 0.16472 0.87815 0.0
O101 O 0.11566 0.18261 0.81039 0.0
O102 O 0.93449 0.28537 0.84879 0.0
O103 O 0.91931 0.21538 0.83887 0.0
C104 C 0.89727 0.25397 0.83015 0.0
C105 C 0.03898 0.10056 0.91581 0.0
C106 C 0.12601 0.22253 0.80297 0.0
C107 C 0.10512 0.23181 0.95487 0.0
O108 O 0.12527 0.19988 0.93032 0.0
O109 O 0.04491 0.24958 0.94459 0.0
O110 O 0.10218 0.10538 0.89916 0.0
O111 O 0.99169 0.12978 0.90552 0.0
C112 C 0.01612 0.50496 0.48021 0.0
C113 C 0.02617 0.47607 0.45104 0.0
C114 C 1.00585 0.53771 0.51628 0.0
C115 C 0.99537 0.56674 0.54517 0.0
C116 C 0.51296 0.53741 0.47848 0.0
C117 C 0.5233 0.56645 0.44957 0.0
C118 C 0.50287 0.5047 0.51458 0.0
C119 C 0.49292 0.47587 0.54385 0.0
C120 C 0.50177 0.03757 0.01555 0.0
C121 C 0.49198 0.06653 0.04465 0.0
C122 C 0.51167 1.00492 0.97936 0.0
C123 C 0.52194 0.97608 0.95019 0.0
C124 C 1.00511 1.0052 0.01656 0.0
C125 C 0.99479 0.97617 0.04549 0.0
C126 C 0.01519 0.03783 0.98033 0.0
C127 C 0.0251 0.06661 0.95098 0.0
C128 C 0.7314 0.26865 0.2284 0.0
C129 C 0.68111 0.26205 0.19933 0.0
C130 C 0.7881 0.2759 0.26454 0.0
C131 C 0.83815 0.28206 0.29394 0.0
C132 C 0.73016 0.27576 0.73034 0.0
C133 C 0.68008 0.28206 0.70098 0.0
C134 C 0.78695 0.26845 0.76641 0.0
C135 C 0.83729 0.26197 0.7955 0.0
C136 C 0.23126 0.76895 0.72869 0.0
C137 C 0.18104 0.76243 0.69952 0.0
C138 C 0.28805 0.77622 0.76476 0.0
C139 C 0.33824 0.78244 0.79404 0.0
C140 C 0.28738 0.76657 0.26539 0.0
C141 C 0.33765 0.76037 0.2946 0.0
C142 C 0.23063 0.77387 0.22931 0.0
C143 C 0.18058 0.78044 0.20002 0.0
C144 C 0.28541 0.25864 0.23688 0.0
C145 C 0.3319 0.23812 0.21797 0.0
C146 C 0.23109 0.28516 0.25545 0.0
C147 C 0.18501 0.30565 0.27486 0.0
C148 C 0.28697 0.28525 0.73947 0.0
C149 C 0.33313 0.30589 0.72032 0.0
C150 C 0.23269 0.25846 0.75768 0.0
C151 C 0.18618 0.23773 0.77633 0.0
C152 C 0.73226 0.786 0.75587 0.0
C153 C 0.68584 0.80653 0.77489 0.0
C154 C 0.78651 0.75928 0.73749 0.0
C155 C 0.83273 0.73856 0.7185 0.0
C156 C 0.78599 0.78369 0.23713 0.0
C157 C 0.83236 0.80426 0.21815 0.0
C158 C 0.73163 0.75717 0.25566 0.0
C159 C 0.6853 0.73675 0.2749 0.0
C160 C 0.29569 0.28021 0.5021 0.0
C161 C 0.35717 0.28768 0.51431 0.0
C162 C 0.22044 0.28021 0.49506 0.0
C163 C 0.15916 0.28767 0.48227 0.0
C164 C 0.79735 0.76217 0.50019 0.0
C165 C 0.85883 0.7548 0.51252 0.0
C166 C 0.72207 0.76216 0.49343 0.0
C167 C 0.66059 0.75474 0.48114 0.0
C168 C 0.79906 0.78125 -0.00151 0.0
C169 C 0.86039 0.78852 0.01128 0.0
C170 C 0.72377 0.78123 0.99173 0.0
C171 C 0.6621 0.78857 0.97989 0.0
C172 C 0.29906 0.26171 -0.00168 0.0
C173 C 0.36041 0.25442 0.01108 0.0
C174 C 0.22374 0.26176 0.99185 0.0
C175 C 0.16196 0.25447 0.98032 0.0
loop_
_geom_bond_atom_site_label_1
_geom_bond_atom_site_label_2
_geom_bond_distance
_geom_bond_site_symmetry_2
_ccdc_geom_bond_type
O0 Cd1 2.223 . S
O0 C8 1.315 . S
Cd1 O0 2.223 . S
Cd1 O4 2.297 1_455 S
Cd1 O5 2.439 1_455 S
Cd1 O11 2.240 . S
Cd2 O3 2.240 . S
Cd2 O10 2.223 . S
Cd2 O12 2.297 . S
Cd2 O13 2.439 1_455 S
O3 Cd2 2.240 . S
O3 C8 1.279 . S
O4 Cd1 2.297 1_655 S
O4 C6 1.247 . S
O5 Cd1 2.439 1_655 S
O5 C6 1.208 . S
C6 O4 1.247 . S
C6 O5 1.208 . S
C7 O12 1.247 . S
C7 O13 1.208 1_455 S
C8 O0 1.315 . S
C8 O3 1.279 . S
C9 O10 1.315 . S
C9 O11 1.279 . S
O10 Cd2 2.223 . S
O10 C9 1.315 . S
O11 Cd1 2.240 . S
O11 C9 1.279 . S
O12 Cd2 2.297 . S
O12 C7 1.247 . S
O13 Cd2 2.439 1_655 S
O13 C7 1.208 1_655 S
O14 Cd15 2.223 . S
O14 C22 1.315 . S
Cd15 O14 2.223 . S
Cd15 O18 2.297 . S
Cd15 O19 2.439 . S
Cd15 O25 2.240 . S
Cd16 O17 2.240 . S
Cd16 O24 2.223 . S
Cd16 O26 2.297 . S
Cd16 O27 2.439 . S
O17 Cd16 2.240 . S
O17 C22 1.279 . S
O18 Cd15 2.297 . S
O18 C20 1.247 . S
O19 Cd15 2.439 . S
O19 C20 1.208 . S
C20 O18 1.247 . S
C20 O19 1.208 . S
C21 O26 1.247 . S
C21 O27 1.208 . S
C22 O14 1.315 . S
C22 O17 1.279 . S
C23 O24 1.315 . S
C23 O25 1.279 . S
O24 Cd16 2.223 . S
O24 C23 1.315 . S
O25 Cd15 2.240 . S
O25 C23 1.279 . S
O26 Cd16 2.297 . S
O26 C21 1.247 . S
O27 Cd16 2.439 . S
O27 C21 1.208 . S
O28 Cd29 2.223 . S
O28 C36 1.315 . S
Cd29 O28 2.223 . S
Cd29 O32 2.297 1_655 S
Cd29 O33 2.439 1_655 S
Cd29 O39 2.240 . S
Cd30 O31 2.240 . S
Cd30 O38 2.223 . S
Cd30 O40 2.297 . S
Cd30 O41 2.439 1_655 S
O31 Cd30 2.240 . S
O31 C36 1.279 . S
O32 Cd29 2.297 1_455 S
O32 C34 1.247 . S
O33 Cd29 2.439 1_455 S
O33 C34 1.208 . S
C34 O32 1.247 . S
C34 O33 1.208 . S
C35 O40 1.247 . S
C35 O41 1.208 1_655 S
C36 O28 1.315 . S
C36 O31 1.279 . S
C37 O38 1.315 . S
C37 O39 1.279 . S
O38 Cd30 2.223 . S
O38 C37 1.315 . S
O39 Cd29 2.240 . S
O39 C37 1.279 . S
O40 Cd30 2.297 . S
O40 C35 1.247 . S
O41 Cd30 2.439 1_455 S
O41 C35 1.208 1_455 S
O42 Cd43 2.223 . S
O42 C50 1.315 . S
Cd43 O42 2.223 . S
Cd43 O46 2.297 . S
Cd43 O47 2.439 . S
Cd43 O53 2.240 . S
Cd44 O45 2.240 . S
Cd44 O52 2.223 . S
Cd44 O54 2.297 . S
Cd44 O55 2.439 . S
O45 Cd44 2.240 . S
O45 C50 1.279 . S
O46 Cd43 2.297 . S
O46 C48 1.247 . S
O47 Cd43 2.439 . S
O47 C48 1.208 . S
C48 O46 1.247 . S
C48 O47 1.208 . S
C49 O54 1.247 . S
C49 O55 1.208 . S
C50 O42 1.315 . S
C50 O45 1.279 . S
C51 O52 1.315 . S
C51 O53 1.279 . S
O52 Cd44 2.223 . S
O52 C51 1.315 . S
O53 Cd43 2.240 . S
O53 C51 1.279 . S
O54 Cd44 2.297 . S
O54 C49 1.247 . S
O55 Cd44 2.439 . S
O55 C49 1.208 . S
O56 Cd57 2.223 . S
O56 C64 1.315 . S
Cd57 O56 2.223 . S
Cd57 O60 2.297 . S
Cd57 O61 2.439 . S
Cd57 O67 2.240 . S
Cd58 O59 2.240 . S
Cd58 O66 2.223 . S
Cd58 O68 2.297 . S
Cd58 O69 2.439 . S
O59 Cd58 2.240 . S
O59 C64 1.279 . S
O60 Cd57 2.297 . S
O60 C62 1.247 . S
O61 Cd57 2.439 . S
O61 C62 1.208 . S
C62 O60 1.247 . S
C62 O61 1.208 . S
C63 O68 1.247 . S
C63 O69 1.208 . S
C64 O56 1.315 . S
C64 O59 1.279 . S
C65 O66 1.315 . S
C65 O67 1.279 . S
O66 Cd58 2.223 . S
O66 C65 1.315 . S
O67 Cd57 2.240 . S
O67 C65 1.279 . S
O68 Cd58 2.297 . S
O68 C63 1.247 . S
O69 Cd58 2.439 . S
O69 C63 1.208 . S
O70 Cd71 2.223 . S
O70 C78 1.315 . S
Cd71 O70 2.223 . S
Cd71 O74 2.297 1_655 S
Cd71 O75 2.439 1_655 S
Cd71 O81 2.240 . S
Cd72 O73 2.240 . S
Cd72 O80 2.223 . S
Cd72 O82 2.297 . S
Cd72 O83 2.439 1_655 S
O73 Cd72 2.240 . S
O73 C78 1.279 . S
O74 Cd71 2.297 1_455 S
O74 C76 1.247 . S
O75 Cd71 2.439 1_455 S
O75 C76 1.208 . S
C76 O74 1.247 . S
C76 O75 1.208 . S
C77 O82 1.247 . S
C77 O83 1.208 1_655 S
C78 O70 1.315 . S
C78 O73 1.279 . S
C79 O80 1.315 . S
C79 O81 1.279 . S
O80 Cd72 2.223 . S
O80 C79 1.315 . S
O81 Cd71 2.240 . S
O81 C79 1.279 . S
O82 Cd72 2.297 . S
O82 C77 1.247 . S
O83 Cd72 2.439 1_455 S
O83 C77 1.208 1_455 S
O84 Cd85 2.223 . S
O84 C92 1.315 . S
Cd85 O84 2.223 . S
Cd85 O88 2.297 . S
Cd85 O89 2.439 . S
Cd85 O95 2.240 . S
Cd86 O87 2.240 . S
Cd86 O94 2.223 . S
Cd86 O96 2.297 . S
Cd86 O97 2.439 . S
O87 Cd86 2.240 . S
O87 C92 1.279 . S
O88 Cd85 2.297 . S
O88 C90 1.247 . S
O89 Cd85 2.439 . S
O89 C90 1.208 . S
C90 O88 1.247 . S
C90 O89 1.208 . S
C91 O96 1.247 . S
C91 O97 1.208 . S
C92 O84 1.315 . S
C92 O87 1.279 . S
C93 O94 1.315 . S
C93 O95 1.279 . S
O94 Cd86 2.223 . S
O94 C93 1.315 . S
O95 Cd85 2.240 . S
O95 C93 1.279 . S
O96 Cd86 2.297 . S
O96 C91 1.247 . S
O97 Cd86 2.439 . S
O97 C91 1.208 . S
O98 Cd99 2.223 . S
O98 C106 1.315 . S
Cd99 O98 2.223 . S
Cd99 O102 2.297 1_455 S
Cd99 O103 2.439 1_455 S
Cd99 O109 2.240 . S
Cd100 O101 2.240 . S
Cd100 O108 2.223 . S
Cd100 O110 2.297 . S
Cd100 O111 2.439 1_455 S
O101 Cd100 2.240 . S
O101 C106 1.279 . S
O102 Cd99 2.297 1_655 S
O102 C104 1.247 . S
O103 Cd99 2.439 1_655 S
O103 C104 1.208 . S
C104 O102 1.247 . S
C104 O103 1.208 . S
C105 O110 1.247 . S
C105 O111 1.208 1_455 S
C106 O98 1.315 . S
C106 O101 1.279 . S
C107 O108 1.315 . S
C107 O109 1.279 . S
O108 Cd100 2.223 . S
O108 C107 1.315 . S
O109 Cd99 2.240 . S
O109 C107 1.279 . S
O110 Cd100 2.297 . S
O110 C105 1.247 . S
O111 Cd100 2.439 1_655 S
O111 C105 1.208 1_655 S
C112 C113 1.170 . S
C112 C114 1.380 . S
C113 C112 1.170 . S
C114 C112 1.380 . S
C114 C115 1.170 . S
C115 C114 1.170 . S
C116 C117 1.170 . S
C116 C118 1.380 . S
C117 C116 1.170 . S
C118 C116 1.380 . S
C118 C119 1.170 . S
C119 C118 1.170 . S
C120 C121 1.170 . S
C120 C122 1.380 1_544 S
C121 C120 1.170 . S
C122 C120 1.380 1_566 S
C122 C123 1.170 . S
C123 C122 1.170 . S
C124 C125 1.170 . S
C124 C126 1.380 1_564 S
C125 C124 1.170 . S
C126 C124 1.380 1_546 S
C126 C127 1.170 1_455 S
C127 C126 1.170 1_655 S
C128 C129 1.170 . S
C128 C130 1.380 . S
C129 C128 1.170 . S
C130 C128 1.380 . S
C130 C131 1.170 . S
C131 C130 1.170 . S
C132 C133 1.170 . S
C132 C134 1.380 . S
C133 C132 1.170 . S
C134 C132 1.380 . S
C134 C135 1.170 . S
C135 C134 1.170 . S
C136 C137 1.170 . S
C136 C138 1.380 . S
C137 C136 1.170 . S
C138 C136 1.380 . S
C138 C139 1.170 . S
C139 C138 1.170 . S
C140 C141 1.170 . S
C140 C142 1.380 . S
C141 C140 1.170 . S
C142 C140 1.380 . S
C142 C143 1.170 . S
C143 C142 1.170 . S
C144 C145 1.170 . S
C144 C146 1.380 . S
C145 C144 1.170 . S
C146 C144 1.380 . S
C146 C147 1.170 . S
C147 C146 1.170 . S
C148 C149 1.170 . S
C148 C150 1.380 . S
C149 C148 1.170 . S
C150 C148 1.380 . S
C150 C151 1.170 . S
C151 C150 1.170 . S
C152 C153 1.170 . S
C152 C154 1.380 . S
C153 C152 1.170 . S
C154 C152 1.380 . S
C154 C155 1.170 . S
C155 C154 1.170 . S
C156 C157 1.170 . S
C156 C158 1.380 . S
C157 C156 1.170 . S
C158 C156 1.380 . S
C158 C159 1.170 . S
C159 C158 1.170 . S
C160 C161 1.170 . S
C160 C162 1.380 . S
C161 C160 1.170 . S
C162 C160 1.380 . S
C162 C163 1.170 . S
C163 C162 1.170 . S
C164 C165 1.170 . S
C164 C166 1.380 . S
C165 C164 1.170 . S
C166 C164 1.380 . S
C166 C167 1.170 . S
C167 C166 1.170 . S
C168 C169 1.170 . S
C168 C170 1.380 1_554 S
C169 C168 1.170 . S
C170 C168 1.380 1_556 S
C170 C171 1.170 . S
C171 C170 1.170 . S
C172 C173 1.170 . S
C172 C174 1.380 1_554 S
C173 C172 1.170 . S
C174 C172 1.380 1_556 S
C174 C175 1.170 . S
C175 C174 1.170 . S
C113 C7 1.475 . S
C115 C35 1.507 1_455 S
C117 C49 1.503 . S
C119 C21 1.477 . S
C121 C91 1.475 . S
C123 C63 1.514 . S
C125 C77 1.511 1_455 S
C127 C105 1.486 1_655 S
C129 C90 1.671 . S
C131 C6 1.664 . S
C133 C20 1.664 . S
C135 C104 1.672 . S
C137 C34 1.667 . S
C139 C62 1.667 . S
C141 C48 1.674 . S
C143 C76 1.668 . S
C145 C92 1.560 . S
C147 C8 1.563 . S
C149 C22 1.567 . S
C151 C106 1.554 . S
C153 C64 1.569 . S
C155 C36 1.547 . S
C157 C78 1.547 . S
C159 C50 1.567 . S
C161 C23 0.803 . S
C163 C9 0.849 . S
C165 C37 0.850 . S
C167 C51 0.847 . S
C169 C79 0.851 . S
C171 C65 0.779 . S
C173 C93 0.821 . S
C175 C107 0.786 . S
