# Generated by pormake.
# Topology mmt, (4)-cn, num edge types: 1
# Building blocks:
#     Node 0, Type 0, BuildingBlock: NAHDIM_clean_sbu_0, # of connection points: 4
#     Node 1, Type 0, BuildingBlock: NAHDIM_clean_sbu_0, # of connection points: 4
#     Node 2, Type 0, BuildingBlock: NAHDIM_clean_sbu_0, # of connection points: 4
#     Node 3, Type 0, BuildingBlock: NAHDIM_clean_sbu_0, # of connection points: 4
#     Node 4, Type 0, BuildingBlock: NAHDIM_clean_sbu_0, # of connection points: 4
#     Node 5, Type 0, BuildingBlock: NAHDIM_clean_sbu_0, # of connection points: 4
#     Node 6, Type 0, BuildingBlock: NAHDIM_clean_sbu_0, # of connection points: 4
#     Node 7, Type 0, BuildingBlock: NAHDIM_clean_sbu_0, # of connection points: 4
#     Edge 8, Type (0, 0), BuildingBlock: OJICUG_clean_linker_0, # of connection points: 2
#     Edge 9, Type (0, 0), BuildingBlock: OJICUG_clean_linker_0, # of connection points: 2
#     Edge 10, Type (0, 0), BuildingBlock: OJICUG_clean_linker_0, # of connection points: 2
#     Edge 11, Type (0, 0), BuildingBlock: OJICUG_clean_linker_0, # of connection points: 2
#     Edge 12, Type (0, 0), BuildingBlock: OJICUG_clean_linker_0, # of connection points: 2
#     Edge 13, Type (0, 0), BuildingBlock: OJICUG_clean_linker_0, # of connection points: 2
#     Edge 14, Type (0, 0), BuildingBlock: OJICUG_clean_linker_0, # of connection points: 2
#     Edge 15, Type (0, 0), BuildingBlock: OJICUG_clean_linker_0, # of connection points: 2
#     Edge 16, Type (0, 0), BuildingBlock: OJICUG_clean_linker_0, # of connection points: 2
#     Edge 17, Type (0, 0), BuildingBlock: OJICUG_clean_linker_0, # of connection points: 2
#     Edge 18, Type (0, 0), BuildingBlock: OJICUG_clean_linker_0, # of connection points: 2
#     Edge 19, Type (0, 0), BuildingBlock: OJICUG_clean_linker_0, # of connection points: 2
#     Edge 20, Type (0, 0), BuildingBlock: OJICUG_clean_linker_0, # of connection points: 2
#     Edge 21, Type (0, 0), BuildingBlock: OJICUG_clean_linker_0, # of connection points: 2
#     Edge 22, Type (0, 0), BuildingBlock: OJICUG_clean_linker_0, # of connection points: 2
#     Edge 23, Type (0, 0), BuildingBlock: OJICUG_clean_linker_0, # of connection points: 2
# Relax obj value: 0.077
# Max RMSD: 0.130
# Mean RMSD: 0.130
data_MOF--net-mmt--node1-NAHDIM_clean_sbu_0--edge1-OJICUG_clean_linker_0
_symmetry_space_group_name_H-M    P1
_symmetry_Int_Tables_number       1
_symmetry_cell_setting            triclinic
loop_
_symmetry_equiv_pos_as_xyz
'x, y, z'
_cell_length_a     16.319306
_cell_length_b     28.385305
_cell_length_c     32.246373
_cell_angle_alpha  90.009036
_cell_angle_beta   89.996948
_cell_angle_gamma 89.995626
loop_
_atom_site_label
_atom_site_type_symbol
_atom_site_fract_x
_atom_site_fract_y
_atom_site_fract_z
_atom_type_partial_charge
C0 C 0.05625 0.52332 0.42924 0.0
O1 O 0.00995 0.55019 0.40573 0.0
O2 O 0.18509 0.60996 0.36681 0.0
Zn3 Zn 0.16292 0.53996 0.36191 0.0
O4 O 0.07037 0.52377 0.32273 0.0
C5 C 0.30441 0.52781 0.31188 0.0
O6 O 0.28017 0.56937 0.29898 0.0
O7 O 0.12901 0.51425 0.41752 0.0
C8 C 0.07079 0.52305 0.28328 0.0
O9 O 0.13619 0.53666 0.26287 0.0
C10 C 0.16707 0.63913 0.33836 0.0
O11 O 0.12684 0.62448 0.30556 0.0
O12 O 0.26523 0.50754 0.34091 0.0
C13 C 0.42617 0.93936 0.429 0.0
O14 O 0.47244 0.91247 0.4055 0.0
O15 O 0.29751 0.85258 0.36671 0.0
Zn16 Zn 0.31949 0.92259 0.36173 0.0
O17 O 0.41194 0.93879 0.3225 0.0
C18 C 0.17792 0.93449 0.31173 0.0
O19 O 0.20228 0.89292 0.29889 0.0
O20 O 0.3534 0.94842 0.41731 0.0
C21 C 0.4115 0.93943 0.28305 0.0
O22 O 0.34613 0.9257 0.26267 0.0
C23 C 0.31569 0.82336 0.33831 0.0
O24 O 0.35599 0.83798 0.30552 0.0
O25 O 0.21706 0.95487 0.34072 0.0
C26 C 0.55626 0.43902 0.07853 0.0
O27 O 0.51 0.41213 0.10203 0.0
O28 O 0.68514 0.35236 0.14087 0.0
Zn29 Zn 0.66295 0.42234 0.14583 0.0
O30 O 0.5704 0.4385 0.18503 0.0
C31 C 0.80442 0.43447 0.19587 0.0
O32 O 0.78018 0.39292 0.20877 0.0
O33 O 0.62902 0.44811 0.09024 0.0
C34 C 0.57078 0.43919 0.22448 0.0
O35 O 0.63615 0.42554 0.24489 0.0
C36 C 0.66718 0.32314 0.1693 0.0
O37 O 0.62701 0.33775 0.20213 0.0
O38 O 0.76526 0.45475 0.16684 0.0
C39 C 0.92616 0.02297 0.07822 0.0
O40 O 0.97245 0.04983 0.10173 0.0
O41 O 0.79752 0.10972 0.14061 0.0
Zn42 Zn 0.81949 0.0397 0.14552 0.0
O43 O 0.91195 0.02345 0.18473 0.0
C44 C 0.67791 0.02778 0.1955 0.0
O45 O 0.70224 0.06934 0.20835 0.0
O46 O 0.85338 0.01392 0.08992 0.0
C47 C 0.91146 0.02277 0.22418 0.0
O48 O 0.84605 0.03647 0.24456 0.0
C49 C 0.81576 0.13889 0.16904 0.0
O50 O 0.85611 0.12422 0.20178 0.0
O51 O 0.71706 0.00741 0.16651 0.0
C52 C 0.92247 0.44007 0.57843 0.0
O53 O 0.9688 0.41324 0.60195 0.0
O54 O 0.79508 0.35291 0.64064 0.0
Zn55 Zn 0.81583 0.42304 0.64563 0.0
O56 O 0.90788 0.43967 0.68496 0.0
C57 C 0.67377 0.4341 0.69543 0.0
O58 O 0.69859 0.39259 0.70816 0.0
O59 O 0.84962 0.44901 0.59009 0.0
C60 C 0.9071 0.44034 0.72441 0.0
O61 O 0.8417 0.42644 0.74467 0.0
C62 C 0.81384 0.32383 0.66904 0.0
O63 O 0.85384 0.33873 0.70182 0.0
O64 O 0.71283 0.45477 0.66657 0.0
C65 C 0.56004 0.02258 0.57821 0.0
O66 O 0.51374 0.04944 0.60173 0.0
O67 O 0.68766 0.10952 0.64057 0.0
Zn68 Zn 0.66663 0.03941 0.64547 0.0
O69 O 0.57445 0.02284 0.68475 0.0
C70 C 0.80857 0.02804 0.69531 0.0
O71 O 0.7839 0.06955 0.70813 0.0
O72 O 0.63283 0.01356 0.58989 0.0
C73 C 0.57516 0.02209 0.7242 0.0
O74 O 0.64058 0.03587 0.7445 0.0
C75 C 0.66912 0.13858 0.66903 0.0
O76 O 0.62921 0.12368 0.70184 0.0
O77 O 0.76948 0.0075 0.66639 0.0
C78 C 0.4224 0.52222 0.92933 0.0
O79 O 0.46871 0.54904 0.9058 0.0
O80 O 0.29503 0.60928 0.86702 0.0
Zn81 Zn 0.31579 0.53914 0.86211 0.0
O82 O 0.40784 0.52246 0.82279 0.0
C83 C 0.17373 0.52804 0.81233 0.0
O84 O 0.19853 0.56955 0.79958 0.0
O85 O 0.34957 0.51324 0.91767 0.0
C86 C 0.40705 0.52175 0.78334 0.0
O87 O 0.34162 0.53562 0.76309 0.0
C88 C 0.31386 0.63832 0.83859 0.0
O89 O 0.35393 0.62336 0.80585 0.0
O90 O 0.21279 0.50739 0.84119 0.0
C91 C 0.05999 0.93971 0.92901 0.0
O92 O 0.01369 0.91285 0.9055 0.0
O93 O 0.18766 0.85269 0.86674 0.0
Zn94 Zn 0.16662 0.92279 0.86177 0.0
O95 O 0.07445 0.93932 0.82248 0.0
C96 C 0.30856 0.93412 0.81191 0.0
O97 O 0.28389 0.89261 0.7991 0.0
O98 O 0.1328 0.94871 0.91732 0.0
C99 C 0.07513 0.94003 0.78303 0.0
O100 O 0.14054 0.92622 0.76272 0.0
C101 C 0.16919 0.82359 0.8383 0.0
O102 O 0.12935 0.83844 0.80546 0.0
O103 O 0.26947 0.95468 0.84083 0.0
C104 C 0.42098 0.47025 0.31003 0.0
C105 C 0.3715 0.50368 0.28996 0.0
H106 H 0.52447 0.42388 0.305 0.0
C107 C 0.38629 0.51436 0.24813 0.0
H108 H 0.41059 0.46144 0.34229 0.0
C109 C 0.44957 0.49223 0.22668 0.0
C110 C 0.50066 0.45976 0.24689 0.0
H111 H 0.34851 0.53968 0.2318 0.0
H112 H 0.45969 0.50149 0.19449 0.0
C113 C 0.48594 0.44889 0.28876 0.0
C114 C 0.03264 0.96971 0.22649 0.0
C115 C 0.98153 0.00224 0.24664 0.0
H116 H 0.13375 0.92232 0.23169 0.0
C117 C -0.00376 0.01323 0.28849 0.0
H118 H 0.02252 0.96036 0.19432 0.0
C119 C 0.06124 -0.00804 0.30979 0.0
C120 C 0.11076 0.95849 0.28979 0.0
H121 H 0.95771 0.03828 0.30468 0.0
H122 H 0.07163 0.00088 0.34203 0.0
C123 C 0.09594 0.94767 0.24798 0.0
C124 C 0.92102 0.492 0.19773 0.0
C125 C 0.87151 0.45858 0.21779 0.0
H126 H 0.02452 0.53834 0.20275 0.0
C127 C 0.88628 0.44791 0.25963 0.0
H128 H 0.91064 0.50081 0.16547 0.0
C129 C 0.94956 0.47002 0.28108 0.0
C130 C 0.00068 0.50249 0.26087 0.0
H131 H 0.84848 0.4226 0.27596 0.0
H132 H 0.95966 0.46077 0.31327 0.0
C133 C 0.98598 0.51335 0.21899 0.0
C134 C 0.56128 0.97027 0.19744 0.0
C135 C 0.61075 0.00376 0.21745 0.0
H136 H 0.45781 0.92391 0.20255 0.0
C137 C 0.59591 0.01458 0.25925 0.0
H138 H 0.5717 0.96135 0.16521 0.0
C139 C 0.53262 -0.00748 0.28074 0.0
C140 C 0.48157 0.95997 0.2606 0.0
H141 H 0.63368 0.03994 0.27554 0.0
H142 H 0.52248 0.00187 0.31291 0.0
C143 C 0.49631 0.94898 0.21874 0.0
C144 C 0.52801 0.46855 0.78073 0.0
C145 C 0.47695 0.50121 0.76075 0.0
H146 H 0.6292 0.42124 0.77534 0.0
C147 C 0.49168 0.51245 0.71895 0.0
H148 H 0.51786 0.45901 0.81286 0.0
C149 C 0.55674 0.49134 0.69757 0.0
C150 C 0.60631 0.45779 0.71743 0.0
H151 H 0.45318 0.53761 0.70288 0.0
H152 H 0.56722 0.50049 0.66539 0.0
C153 C 0.59138 0.44666 0.75916 0.0
C154 C 0.92546 0.9707 0.69733 0.0
C155 C 0.87592 0.00421 0.71727 0.0
H156 H 0.02898 0.92438 0.70254 0.0
C157 C 0.89079 0.01518 0.75904 0.0
H158 H 0.91502 0.96166 0.66512 0.0
C159 C 0.95412 -0.0068 0.78057 0.0
C160 C 0.00518 0.9606 0.7605 0.0
H161 H 0.85298 0.04056 0.77528 0.0
H162 H 0.96424 0.00264 0.81272 0.0
C163 C 0.99047 0.9495 0.71867 0.0
C164 C 0.09137 0.51546 0.7486 0.0
C165 C 0.1063 0.50434 0.79033 0.0
H166 H 0.01787 0.5031 0.6949 0.0
C167 C 0.05676 0.47077 0.81019 0.0
H168 H 0.12917 0.54089 0.73242 0.0
C169 C -0.00827 0.44964 0.7888 0.0
C170 C 0.97699 0.46088 0.74701 0.0
H171 H 0.06724 0.46162 0.84236 0.0
H172 H 0.95325 0.42447 0.80487 0.0
C173 C 0.02802 0.49356 0.72702 0.0
C174 C 0.42547 -0.00856 0.80989 0.0
C175 C 0.37592 0.95794 0.78995 0.0
H176 H 0.529 0.03773 0.80469 0.0
C177 C 0.3908 0.94697 0.74818 0.0
H178 H 0.41502 0.00047 0.8421 0.0
C179 C 0.45414 0.96893 0.72665 0.0
C180 C 0.50521 0.00153 0.74672 0.0
H181 H 0.35298 0.92159 0.73194 0.0
H182 H 0.46427 0.95949 0.6945 0.0
C183 C 0.49049 0.01263 0.78856 0.0
C184 C 0.07039 0.47233 0.49235 0.0
C185 C 0.02251 0.50242 0.46768 0.0
H186 H 0.07629 0.42891 0.54647 0.0
C187 C 0.94113 0.5116 0.47959 0.0
H188 H 0.13321 0.46443 0.48401 0.0
C189 C 0.90835 0.49113 0.51535 0.0
C190 C 0.95623 0.46103 0.54002 0.0
H191 H 0.90246 0.53454 0.46123 0.0
H192 H 0.84553 0.49902 0.52369 0.0
C193 C 0.03761 0.45186 0.52812 0.0
C194 C 0.4121 -0.00958 0.4921 0.0
C195 C 0.45995 0.96029 0.46743 0.0
H196 H 0.40626 0.03384 0.54623 0.0
C197 C 0.54131 0.95108 0.47933 0.0
H198 H 0.3493 -0.00166 0.48376 0.0
C199 C 0.57411 0.97154 0.51511 0.0
C200 C 0.52627 0.00166 0.53978 0.0
H201 H 0.57996 0.92811 0.46098 0.0
H202 H 0.63692 0.96362 0.52344 0.0
C203 C 0.4449 0.01087 0.52787 0.0
C204 C 0.57034 0.49003 0.01542 0.0
C205 C 0.52249 0.45993 0.0401 0.0
H206 H 0.57619 0.53344 0.9613 0.0
C207 C 0.44112 0.45072 0.0282 0.0
H208 H 0.63315 0.49794 0.02376 0.0
C209 C 0.40832 0.47118 0.99243 0.0
C210 C 0.45617 0.50128 0.96776 0.0
H211 H 0.40247 0.42777 0.04655 0.0
H212 H 0.34551 0.46327 0.98409 0.0
C213 C 0.53754 0.51048 0.97965 0.0
C214 C 0.07408 -0.00923 0.9921 0.0
C215 C 0.02622 0.96066 0.96743 0.0
H216 H 0.07994 0.0342 0.04623 0.0
C217 C 0.94485 0.95147 0.97934 0.0
H218 H 0.13689 -0.00133 0.98376 0.0
C219 C 0.91206 0.97194 0.01511 0.0
C220 C 0.95992 0.00205 0.03978 0.0
H221 H 0.90619 0.92851 0.96098 0.0
H222 H 0.84925 0.96403 0.02345 0.0
C223 C 0.04129 0.01124 0.02787 0.0
C224 C 0.22285 0.70904 0.37649 0.0
C225 C 0.20305 0.68677 0.33889 0.0
H226 H 0.27347 0.77037 0.40582 0.0
C227 C 0.22207 0.70932 0.30135 0.0
H228 H 0.20908 0.69225 0.40584 0.0
C229 C 0.26095 0.75308 0.30134 0.0
C230 C 0.27978 0.77571 0.33887 0.0
H231 H 0.20839 0.69271 0.2719 0.0
H232 H 0.27474 0.76962 0.27188 0.0
C233 C 0.25984 0.75352 0.37648 0.0
C234 C 0.75984 0.2088 0.13098 0.0
C235 C 0.77986 0.18655 0.16856 0.0
H236 H 0.70904 0.27013 0.10172 0.0
C237 C 0.7611 0.20912 0.20612 0.0
H238 H 0.7734 0.19199 0.10161 0.0
C239 C 0.72224 0.2529 0.20618 0.0
C240 C 0.70315 0.2755 0.16869 0.0
H241 H 0.77496 0.19253 0.23555 0.0
H242 H 0.70862 0.26945 0.23566 0.0
C243 C 0.72286 0.25329 0.13105 0.0
C244 C 0.72268 0.20915 0.70602 0.0
C245 C 0.70413 0.18645 0.66849 0.0
H246 H 0.77407 0.26984 0.73547 0.0
C247 C 0.72341 0.20884 0.63088 0.0
H248 H 0.70938 0.19246 0.73547 0.0
C249 C 0.75944 0.25359 0.63088 0.0
C250 C 0.77892 0.27593 0.66849 0.0
H251 H 0.70998 0.19195 0.60153 0.0
H252 H 0.77268 0.27053 0.60153 0.0
C253 C 0.76061 0.25319 0.70602 0.0
C254 C 0.25938 0.70862 0.87664 0.0
C255 C 0.27895 0.68622 0.83907 0.0
H256 H 0.20987 0.77032 0.90589 0.0
C257 C 0.26074 0.70891 0.80151 0.0
H258 H 0.27255 0.69173 0.90602 0.0
C259 C 0.22282 0.75296 0.80143 0.0
C260 C 0.20418 0.77571 0.83892 0.0
H261 H 0.27427 0.69222 0.77208 0.0
H262 H 0.2096 0.7696 0.77195 0.0
C263 C 0.22336 0.75338 0.87657 0.0
loop_
_geom_bond_atom_site_label_1
_geom_bond_atom_site_label_2
_geom_bond_distance
_geom_bond_site_symmetry_2
_ccdc_geom_bond_type
C0 O1 1.160 . S
C0 O7 1.185 . S
O1 C0 1.160 . S
O2 Zn3 1.899 . S
O2 C10 1.284 . S
Zn3 O2 1.899 . S
Zn3 O4 2.032 . S
Zn3 O7 2.086 . S
Zn3 O12 1.977 . S
O4 Zn3 2.032 . S
O4 C8 1.278 . S
C5 O6 1.203 . S
C5 O12 1.267 . S
O6 C5 1.203 . S
O7 C0 1.185 . S
O7 Zn3 2.086 . S
C8 O4 1.278 . S
C8 O9 1.211 . S
O9 C8 1.211 . S
C10 O2 1.284 . S
C10 O11 1.273 . S
O11 C10 1.273 . S
O12 Zn3 1.977 . S
O12 C5 1.267 . S
C13 O14 1.160 . S
C13 O20 1.185 . S
O14 C13 1.160 . S
O15 Zn16 1.899 . S
O15 C23 1.284 . S
Zn16 O15 1.899 . S
Zn16 O17 2.032 . S
Zn16 O20 2.086 . S
Zn16 O25 1.977 . S
O17 Zn16 2.032 . S
O17 C21 1.278 . S
C18 O19 1.203 . S
C18 O25 1.267 . S
O19 C18 1.203 . S
O20 C13 1.185 . S
O20 Zn16 2.086 . S
C21 O17 1.278 . S
C21 O22 1.211 . S
O22 C21 1.211 . S
C23 O15 1.284 . S
C23 O24 1.273 . S
O24 C23 1.273 . S
O25 Zn16 1.977 . S
O25 C18 1.267 . S
C26 O27 1.160 . S
C26 O33 1.185 . S
O27 C26 1.160 . S
O28 Zn29 1.899 . S
O28 C36 1.284 . S
Zn29 O28 1.899 . S
Zn29 O30 2.032 . S
Zn29 O33 2.086 . S
Zn29 O38 1.977 . S
O30 Zn29 2.032 . S
O30 C34 1.278 . S
C31 O32 1.203 . S
C31 O38 1.267 . S
O32 C31 1.203 . S
O33 C26 1.185 . S
O33 Zn29 2.086 . S
C34 O30 1.278 . S
C34 O35 1.211 . S
O35 C34 1.211 . S
C36 O28 1.284 . S
C36 O37 1.273 . S
O37 C36 1.273 . S
O38 Zn29 1.977 . S
O38 C31 1.267 . S
C39 O40 1.160 . S
C39 O46 1.185 . S
O40 C39 1.160 . S
O41 Zn42 1.899 . S
O41 C49 1.284 . S
Zn42 O41 1.899 . S
Zn42 O43 2.032 . S
Zn42 O46 2.086 . S
Zn42 O51 1.977 . S
O43 Zn42 2.032 . S
O43 C47 1.278 . S
C44 O45 1.203 . S
C44 O51 1.267 . S
O45 C44 1.203 . S
O46 C39 1.185 . S
O46 Zn42 2.086 . S
C47 O43 1.278 . S
C47 O48 1.211 . S
O48 C47 1.211 . S
C49 O41 1.284 . S
C49 O50 1.273 . S
O50 C49 1.273 . S
O51 Zn42 1.977 . S
O51 C44 1.267 . S
C52 O53 1.160 . S
C52 O59 1.185 . S
O53 C52 1.160 . S
O54 Zn55 1.899 . S
O54 C62 1.284 . S
Zn55 O54 1.899 . S
Zn55 O56 2.032 . S
Zn55 O59 2.086 . S
Zn55 O64 1.977 . S
O56 Zn55 2.032 . S
O56 C60 1.278 . S
C57 O58 1.203 . S
C57 O64 1.267 . S
O58 C57 1.203 . S
O59 C52 1.185 . S
O59 Zn55 2.086 . S
C60 O56 1.278 . S
C60 O61 1.211 . S
O61 C60 1.211 . S
C62 O54 1.284 . S
C62 O63 1.273 . S
O63 C62 1.273 . S
O64 Zn55 1.977 . S
O64 C57 1.267 . S
C65 O66 1.160 . S
C65 O72 1.185 . S
O66 C65 1.160 . S
O67 Zn68 1.899 . S
O67 C75 1.284 . S
Zn68 O67 1.899 . S
Zn68 O69 2.032 . S
Zn68 O72 2.086 . S
Zn68 O77 1.977 . S
O69 Zn68 2.032 . S
O69 C73 1.278 . S
C70 O71 1.203 . S
C70 O77 1.267 . S
O71 C70 1.203 . S
O72 C65 1.185 . S
O72 Zn68 2.086 . S
C73 O69 1.278 . S
C73 O74 1.211 . S
O74 C73 1.211 . S
C75 O67 1.284 . S
C75 O76 1.273 . S
O76 C75 1.273 . S
O77 Zn68 1.977 . S
O77 C70 1.267 . S
C78 O79 1.160 . S
C78 O85 1.185 . S
O79 C78 1.160 . S
O80 Zn81 1.899 . S
O80 C88 1.284 . S
Zn81 O80 1.899 . S
Zn81 O82 2.032 . S
Zn81 O85 2.086 . S
Zn81 O90 1.977 . S
O82 Zn81 2.032 . S
O82 C86 1.278 . S
C83 O84 1.203 . S
C83 O90 1.267 . S
O84 C83 1.203 . S
O85 C78 1.185 . S
O85 Zn81 2.086 . S
C86 O82 1.278 . S
C86 O87 1.211 . S
O87 C86 1.211 . S
C88 O80 1.284 . S
C88 O89 1.273 . S
O89 C88 1.273 . S
O90 Zn81 1.977 . S
O90 C83 1.267 . S
C91 O92 1.160 . S
C91 O98 1.185 . S
O92 C91 1.160 . S
O93 Zn94 1.899 . S
O93 C101 1.284 . S
Zn94 O93 1.899 . S
Zn94 O95 2.032 . S
Zn94 O98 2.086 . S
Zn94 O103 1.977 . S
O95 Zn94 2.032 . S
O95 C99 1.278 . S
C96 O97 1.203 . S
C96 O103 1.267 . S
O97 C96 1.203 . S
O98 C91 1.185 . S
O98 Zn94 2.086 . S
C99 O95 1.278 . S
C99 O100 1.211 . S
O100 C99 1.211 . S
C101 O93 1.284 . S
C101 O102 1.273 . S
O102 C101 1.273 . S
O103 Zn94 1.977 . S
O103 C96 1.267 . S
C104 C105 1.387 . S
C104 H108 0.950 . S
C104 C113 1.390 . S
C105 C104 1.387 . S
C105 C107 1.387 . S
H106 C113 0.950 . S
C107 C105 1.387 . S
C107 C109 1.390 . S
C107 H111 0.950 . S
H108 C104 0.950 . S
C109 C107 1.390 . S
C109 C110 1.387 . S
C109 H112 0.950 . S
C110 C109 1.387 . S
C110 C113 1.387 . S
H111 C107 0.950 . S
H112 C109 0.950 . S
C113 C104 1.390 . S
C113 H106 0.950 . S
C113 C110 1.387 . S
C114 C115 1.387 1_565 S
C114 H118 0.950 . S
C114 C123 1.390 . S
C115 C114 1.387 1_545 S
C115 C117 1.387 . S
H116 C123 0.950 . S
C117 C115 1.387 . S
C117 C119 1.390 . S
C117 H121 0.950 . S
H118 C114 0.950 . S
C119 C117 1.390 . S
C119 C120 1.387 1_545 S
C119 H122 0.950 . S
C120 C119 1.387 1_565 S
C120 C123 1.387 . S
H121 C117 0.950 . S
H122 C119 0.950 . S
C123 C114 1.390 . S
C123 H116 0.950 . S
C123 C120 1.387 . S
C124 C125 1.387 . S
C124 H128 0.950 . S
C124 C133 1.390 . S
C125 C124 1.387 . S
C125 C127 1.387 . S
H126 C133 0.950 . S
C127 C125 1.387 . S
C127 C129 1.390 . S
C127 H131 0.950 . S
H128 C124 0.950 . S
C129 C127 1.390 . S
C129 C130 1.387 . S
C129 H132 0.950 . S
C130 C129 1.387 . S
C130 C133 1.387 . S
H131 C127 0.950 . S
H132 C129 0.950 . S
C133 C124 1.390 . S
C133 H126 0.950 . S
C133 C130 1.387 . S
C134 C135 1.387 1_565 S
C134 H138 0.950 . S
C134 C143 1.390 . S
C135 C134 1.387 1_545 S
C135 C137 1.387 . S
H136 C143 0.950 . S
C137 C135 1.387 . S
C137 C139 1.390 . S
C137 H141 0.950 . S
H138 C134 0.950 . S
C139 C137 1.390 . S
C139 C140 1.387 1_545 S
C139 H142 0.950 . S
C140 C139 1.387 1_565 S
C140 C143 1.387 . S
H141 C137 0.950 . S
H142 C139 0.950 . S
C143 C134 1.390 . S
C143 H136 0.950 . S
C143 C140 1.387 . S
C144 C145 1.387 . S
C144 H148 0.950 . S
C144 C153 1.390 . S
C145 C144 1.387 . S
C145 C147 1.387 . S
H146 C153 0.950 . S
C147 C145 1.387 . S
C147 C149 1.390 . S
C147 H151 0.950 . S
H148 C144 0.950 . S
C149 C147 1.390 . S
C149 C150 1.387 . S
C149 H152 0.950 . S
C150 C149 1.387 . S
C150 C153 1.387 . S
H151 C147 0.950 . S
H152 C149 0.950 . S
C153 C144 1.390 . S
C153 H146 0.950 . S
C153 C150 1.387 . S
C154 C155 1.387 1_565 S
C154 H158 0.950 . S
C154 C163 1.390 . S
C155 C154 1.387 1_545 S
C155 C157 1.387 . S
H156 C163 0.950 . S
C157 C155 1.387 . S
C157 C159 1.390 . S
C157 H161 0.950 . S
H158 C154 0.950 . S
C159 C157 1.390 . S
C159 C160 1.387 1_545 S
C159 H162 0.950 . S
C160 C159 1.387 1_565 S
C160 C163 1.387 . S
H161 C157 0.950 . S
H162 C159 0.950 . S
C163 C154 1.390 . S
C163 H156 0.950 . S
C163 C160 1.387 . S
C164 C165 1.387 . S
C164 H168 0.950 . S
C164 C173 1.390 . S
C165 C164 1.387 . S
C165 C167 1.387 . S
H166 C173 0.950 . S
C167 C165 1.387 . S
C167 C169 1.390 . S
C167 H171 0.950 . S
H168 C164 0.950 . S
C169 C167 1.390 . S
C169 C170 1.387 . S
C169 H172 0.950 . S
C170 C169 1.387 . S
C170 C173 1.387 . S
H171 C167 0.950 . S
H172 C169 0.950 . S
C173 C164 1.390 . S
C173 H166 0.950 . S
C173 C170 1.387 . S
C174 C175 1.387 1_545 S
C174 H178 0.950 . S
C174 C183 1.390 . S
C175 C174 1.387 1_565 S
C175 C177 1.387 . S
H176 C183 0.950 . S
C177 C175 1.387 . S
C177 C179 1.390 . S
C177 H181 0.950 . S
H178 C174 0.950 . S
C179 C177 1.390 . S
C179 C180 1.387 1_565 S
C179 H182 0.950 . S
C180 C179 1.387 1_545 S
C180 C183 1.387 . S
H181 C177 0.950 . S
H182 C179 0.950 . S
C183 C174 1.390 . S
C183 H176 0.950 . S
C183 C180 1.387 . S
C184 C185 1.387 . S
C184 H188 0.950 . S
C184 C193 1.390 1_455 S
C185 C184 1.387 . S
C185 C187 1.387 . S
H186 C193 0.950 . S
C187 C185 1.387 . S
C187 C189 1.390 1_455 S
C187 H191 0.950 . S
H188 C184 0.950 . S
C189 C187 1.390 1_655 S
C189 C190 1.387 . S
C189 H192 0.950 . S
C190 C189 1.387 . S
C190 C193 1.387 . S
H191 C187 0.950 . S
H192 C189 0.950 . S
C193 C184 1.390 1_655 S
C193 H186 0.950 . S
C193 C190 1.387 . S
C194 C195 1.387 1_545 S
C194 H198 0.950 . S
C194 C203 1.390 . S
C195 C194 1.387 1_565 S
C195 C197 1.387 . S
H196 C203 0.950 . S
C197 C195 1.387 . S
C197 C199 1.390 . S
C197 H201 0.950 . S
H198 C194 0.950 . S
C199 C197 1.390 . S
C199 C200 1.387 1_565 S
C199 H202 0.950 . S
C200 C199 1.387 1_545 S
C200 C203 1.387 . S
H201 C197 0.950 . S
H202 C199 0.950 . S
C203 C194 1.390 . S
C203 H196 0.950 . S
C203 C200 1.387 . S
C204 C205 1.387 . S
C204 H208 0.950 . S
C204 C213 1.390 1_554 S
C205 C204 1.387 . S
C205 C207 1.387 . S
H206 C213 0.950 . S
C207 C205 1.387 . S
C207 C209 1.390 1_554 S
C207 H211 0.950 . S
H208 C204 0.950 . S
C209 C207 1.390 1_556 S
C209 C210 1.387 . S
C209 H212 0.950 . S
C210 C209 1.387 . S
C210 C213 1.387 . S
H211 C207 0.950 . S
H212 C209 0.950 . S
C213 C204 1.390 1_556 S
C213 H206 0.950 . S
C213 C210 1.387 . S
C214 C215 1.387 1_545 S
C214 H218 0.950 . S
C214 C223 1.390 1_456 S
C215 C214 1.387 1_565 S
C215 C217 1.387 . S
H216 C223 0.950 . S
C217 C215 1.387 . S
C217 C219 1.390 1_456 S
C217 H221 0.950 . S
H218 C214 0.950 . S
C219 C217 1.390 1_654 S
C219 C220 1.387 1_565 S
C219 H222 0.950 . S
C220 C219 1.387 1_545 S
C220 C223 1.387 . S
H221 C217 0.950 . S
H222 C219 0.950 . S
C223 C214 1.390 1_654 S
C223 H216 0.950 . S
C223 C220 1.387 . S
C224 C225 1.387 . S
C224 H228 0.950 . S
C224 C233 1.390 . S
C225 C224 1.387 . S
C225 C227 1.387 . S
H226 C233 0.950 . S
C227 C225 1.387 . S
C227 C229 1.390 . S
C227 H231 0.950 . S
H228 C224 0.950 . S
C229 C227 1.390 . S
C229 C230 1.387 . S
C229 H232 0.950 . S
C230 C229 1.387 . S
C230 C233 1.387 . S
H231 C227 0.950 . S
H232 C229 0.950 . S
C233 C224 1.390 . S
C233 H226 0.950 . S
C233 C230 1.387 . S
C234 C235 1.387 . S
C234 H238 0.950 . S
C234 C243 1.390 . S
C235 C234 1.387 . S
C235 C237 1.387 . S
H236 C243 0.950 . S
C237 C235 1.387 . S
C237 C239 1.390 . S
C237 H241 0.950 . S
H238 C234 0.950 . S
C239 C237 1.390 . S
C239 C240 1.387 . S
C239 H242 0.950 . S
C240 C239 1.387 . S
C240 C243 1.387 . S
H241 C237 0.950 . S
H242 C239 0.950 . S
C243 C234 1.390 . S
C243 H236 0.950 . S
C243 C240 1.387 . S
C244 C245 1.387 . S
C244 H248 0.950 . S
C244 C253 1.390 . S
C245 C244 1.387 . S
C245 C247 1.387 . S
H246 C253 0.950 . S
C247 C245 1.387 . S
C247 C249 1.390 . S
C247 H251 0.950 . S
H248 C244 0.950 . S
C249 C247 1.390 . S
C249 C250 1.387 . S
C249 H252 0.950 . S
C250 C249 1.387 . S
C250 C253 1.387 . S
H251 C247 0.950 . S
H252 C249 0.950 . S
C253 C244 1.390 . S
C253 H246 0.950 . S
C253 C250 1.387 . S
C254 C255 1.387 . S
C254 H258 0.950 . S
C254 C263 1.390 . S
C255 C254 1.387 . S
C255 C257 1.387 . S
H256 C263 0.950 . S
C257 C255 1.387 . S
C257 C259 1.390 . S
C257 H261 0.950 . S
H258 C254 0.950 . S
C259 C257 1.390 . S
C259 C260 1.387 . S
C259 H262 0.950 . S
C260 C259 1.387 . S
C260 C263 1.387 . S
H261 C257 0.950 . S
H262 C259 0.950 . S
C263 C254 1.390 . S
C263 H256 0.950 . S
C263 C260 1.387 . S
C105 C5 1.242 . S
C110 C34 1.242 . S
C115 C47 1.239 1_455 S
C120 C18 1.242 . S
C125 C31 1.243 . S
C130 C8 1.243 1_655 S
C135 C44 1.243 . S
C140 C21 1.242 . S
C145 C86 1.242 . S
C150 C57 1.244 . S
C155 C70 1.242 . S
C160 C99 1.239 1_655 S
C165 C83 1.244 . S
C170 C60 1.242 1_455 S
C175 C96 1.241 . S
C180 C73 1.239 . S
C185 C0 1.513 . S
C190 C52 1.513 . S
C195 C13 1.512 . S
C200 C65 1.512 . S
C205 C26 1.513 . S
C210 C78 1.513 . S
C215 C91 1.514 . S
C220 C39 1.514 . S
C225 C10 1.538 . S
C230 C23 1.538 . S
C235 C49 1.538 . S
C240 C36 1.538 . S
C245 C75 1.538 . S
C250 C62 1.538 . S
C255 C88 1.537 . S
C260 C101 1.537 . S
