# Generated by pormake.
# Topology hex, (8)-cn, num edge types: 1
# Building blocks:
#     Node 0, Type 0, BuildingBlock: EBIMEJ_clean_sbu_0, # of connection points: 8
#     Edge 1, Type (0, 0), None
#     Edge 2, Type (0, 0), None
#     Edge 3, Type (0, 0), None
#     Edge 4, Type (0, 0), None
# Relax obj value: 0.009
# Max RMSD: 0.048
# Mean RMSD: 0.048
data_MOF--net-hex--node1-EBIMEJ_clean_sbu_0--edge1-none
_symmetry_space_group_name_H-M    P1
_symmetry_Int_Tables_number       1
_symmetry_cell_setting            triclinic
loop_
_symmetry_equiv_pos_as_xyz
'x, y, z'
_cell_length_a     9.363589
_cell_length_b     11.795356
_cell_length_c     7.8583744
_cell_angle_alpha  73.535256
_cell_angle_beta   113.73845
_cell_angle_gamma 129.58892
loop_
_atom_site_label
_atom_site_type_symbol
_atom_site_fract_x
_atom_site_fract_y
_atom_site_fract_z
_atom_type_partial_charge
Co0 Co 0.99403 0.79547 0.91474 0.0
Co1 Co 0.81508 0.92483 0.01578 0.0
Co2 Co 0.22467 0.12971 0.99468 0.0
H3 H 0.08722 0.95637 0.9926 0.0
O4 O 0.03444 0.91756 0.0807 0.0
H5 H 0.95253 0.09817 0.01786 0.0
O6 O 1.00531 0.13698 0.92975 0.0
Co7 Co 0.04572 0.25907 0.09572 0.0
O8 O 0.77017 0.15586 0.09524 0.0
O9 O 0.60239 0.94376 0.95815 0.0
O10 O 0.32391 0.42958 0.09361 0.0
O11 O 0.40661 0.3468 0.95154 0.0
O12 O 0.97189 0.63726 0.82257 0.0
O13 O 0.03971 0.65411 0.10653 0.0
O14 O 0.10839 0.18114 0.35444 0.0
O15 O 0.88263 0.94349 0.28947 0.0
C16 C 0.42922 1.01512 0.99386 0.0
C17 C 0.60463 0.60357 0.99601 0.0
C18 C 0.02756 0.46704 0.02605 0.0
C19 C 0.03232 1.00803 0.60506 0.0
C20 C 0.61053 0.03942 0.0166 0.0
C21 C 0.43513 0.45097 0.01445 0.0
C22 C 1.01218 0.5875 0.98441 0.0
C23 C 1.00743 0.04651 0.4054 0.0
O24 O 0.26959 0.89868 0.91522 0.0
O25 O 0.43736 0.11078 0.05231 0.0
O26 O 0.63315 0.70774 0.05892 0.0
O27 O 0.71584 0.62497 0.91685 0.0
O28 O 0.06786 0.41727 0.18788 0.0
O29 O 1.00004 0.40043 0.90392 0.0
O30 O 0.93137 0.8734 0.65602 0.0
O31 O 0.15712 0.11106 0.72099 0.0
loop_
_geom_bond_atom_site_label_1
_geom_bond_atom_site_label_2
_geom_bond_distance
_geom_bond_site_symmetry_2
_ccdc_geom_bond_type
Co0 H3 2.400 1_556 S
Co0 O4 2.009 1_556 S
Co0 O12 2.115 1_455 S
Co0 O13 2.315 1_556 S
Co0 O24 2.053 . S
Co0 O27 2.094 1_455 S
Co0 O30 2.122 1_455 S
Co1 O4 2.126 1_655 S
Co1 H5 2.388 1_564 S
Co1 O6 2.053 1_564 S
Co1 O9 2.047 1_554 S
Co1 O15 2.113 . S
Co1 O26 2.063 . S
Co2 H3 2.388 1_546 S
Co2 O4 2.053 1_546 S
Co2 O6 2.126 1_455 S
Co2 O11 2.063 . S
Co2 O25 2.047 1_556 S
Co2 O31 2.113 . S
H3 Co0 2.400 1_554 S
H3 Co2 2.388 1_564 S
H3 O4 0.760 . S
O4 Co0 2.009 1_554 S
O4 Co1 2.126 1_455 S
O4 Co2 2.053 1_564 S
O4 H3 0.760 . S
H5 Co1 2.388 1_546 S
H5 O6 0.760 . S
H5 Co7 2.400 1_556 S
O6 Co1 2.053 1_546 S
O6 Co2 2.126 1_655 S
O6 H5 0.760 . S
O6 Co7 2.009 1_556 S
Co7 H5 2.400 1_554 S
Co7 O6 2.009 1_554 S
Co7 O8 2.053 . S
Co7 O10 2.094 1_655 S
Co7 O14 2.122 1_655 S
Co7 O28 2.115 1_655 S
Co7 O29 2.315 1_554 S
O8 Co7 2.053 . S
O8 C20 1.259 1_545 S
O9 Co1 2.047 1_556 S
O9 C20 1.257 1_556 S
O10 Co7 2.094 1_455 S
O10 C21 1.253 . S
O11 Co2 2.063 . S
O11 C21 1.268 1_556 S
O12 Co0 2.115 1_655 S
O12 C22 1.281 1_556 S
O13 Co0 2.315 1_554 S
O13 C22 1.252 1_455 S
O14 Co7 2.122 1_455 S
O14 C23 1.272 1_455 S
O15 Co1 2.113 . S
O15 C23 1.245 1_565 S
C16 O24 1.259 1_545 S
C16 O25 1.257 1_556 S
C17 O26 1.268 1_556 S
C17 O27 1.253 . S
C18 O28 1.281 1_556 S
C18 O29 1.252 1_455 S
C19 O30 1.272 1_455 S
C19 O31 1.245 1_565 S
C20 O8 1.259 1_565 S
C20 O9 1.257 1_554 S
C21 O10 1.253 . S
C21 O11 1.268 1_554 S
C22 O12 1.281 1_554 S
C22 O13 1.252 1_655 S
C23 O14 1.272 1_655 S
C23 O15 1.245 1_545 S
O24 Co0 2.053 . S
O24 C16 1.259 1_565 S
O25 Co2 2.047 1_554 S
O25 C16 1.257 1_554 S
O26 Co1 2.063 . S
O26 C17 1.268 1_554 S
O27 Co0 2.094 1_655 S
O27 C17 1.253 . S
O28 Co7 2.115 1_455 S
O28 C18 1.281 1_554 S
O29 Co7 2.315 1_556 S
O29 C18 1.252 1_655 S
O30 Co0 2.122 1_655 S
O30 C19 1.272 1_655 S
O31 Co2 2.113 . S
O31 C19 1.245 1_545 S
C18 C22 1.345 1_456 S
C20 C16 1.169 1_564 S
C21 C17 2.024 1_554 S
C19 C23 1.536 1_465 S
