# Generated by pormake.
# Topology uoj, (4)-cn, num edge types: 1
# Building blocks:
#     Node 0, Type 0, BuildingBlock: GALJAG_clean_sbu_0, # of connection points: 4
#     Node 1, Type 0, BuildingBlock: GALJAG_clean_sbu_0, # of connection points: 4
#     Node 2, Type 0, BuildingBlock: GALJAG_clean_sbu_0, # of connection points: 4
#     Node 3, Type 0, BuildingBlock: GALJAG_clean_sbu_0, # of connection points: 4
#     Node 4, Type 0, BuildingBlock: GALJAG_clean_sbu_0, # of connection points: 4
#     Node 5, Type 0, BuildingBlock: GALJAG_clean_sbu_0, # of connection points: 4
#     Node 6, Type 0, BuildingBlock: GALJAG_clean_sbu_0, # of connection points: 4
#     Node 7, Type 0, BuildingBlock: GALJAG_clean_sbu_0, # of connection points: 4
#     Edge 8, Type (0, 0), None
#     Edge 9, Type (0, 0), None
#     Edge 10, Type (0, 0), None
#     Edge 11, Type (0, 0), None
#     Edge 12, Type (0, 0), None
#     Edge 13, Type (0, 0), None
#     Edge 14, Type (0, 0), None
#     Edge 15, Type (0, 0), None
#     Edge 16, Type (0, 0), None
#     Edge 17, Type (0, 0), None
#     Edge 18, Type (0, 0), None
#     Edge 19, Type (0, 0), None
#     Edge 20, Type (0, 0), None
#     Edge 21, Type (0, 0), None
#     Edge 22, Type (0, 0), None
#     Edge 23, Type (0, 0), None
# Relax obj value: 0.030
# Max RMSD: 0.084
# Mean RMSD: 0.084
data_MOF--net-uoj--node1-GALJAG_clean_sbu_0--edge1-none
_symmetry_space_group_name_H-M    P1
_symmetry_Int_Tables_number       1
_symmetry_cell_setting            triclinic
loop_
_symmetry_equiv_pos_as_xyz
'x, y, z'
_cell_length_a     15.451082
_cell_length_b     15.451173
_cell_length_c     15.532621
_cell_angle_alpha  90.000403
_cell_angle_beta   89.999594
_cell_angle_gamma 89.999993
loop_
_atom_site_label
_atom_site_type_symbol
_atom_site_fract_x
_atom_site_fract_y
_atom_site_fract_z
_atom_type_partial_charge
In0 In 0.03899 0.28861 0.45734 0.0
O1 O 0.9094 0.22522 0.421 0.0
O2 O 0.95079 0.22348 0.5525 0.0
C3 C 0.10272 0.34656 0.30557 0.0
C4 C 0.15017 0.16407 0.50592 0.0
C5 C -0.00122 0.44523 0.51906 0.0
O6 O 0.03955 0.29436 0.30945 0.0
O7 O 0.13395 0.36829 0.37733 0.0
O8 O 0.07345 0.41294 0.52841 0.0
O9 O 0.94439 0.39679 0.48269 0.0
C10 C 0.89394 0.20262 0.49798 0.0
O11 O 0.13167 0.22629 0.55556 0.0
O12 O 0.11579 0.16717 0.43241 0.0
In13 In 0.28862 0.94444 0.57212 0.0
O14 O 0.2263 0.85175 0.47389 0.0
O15 O 0.16719 0.86762 0.59704 0.0
C16 C 0.44524 0.98464 0.51038 0.0
C17 C 0.20263 0.08948 0.53148 0.0
C18 C 0.34657 0.88071 0.72388 0.0
O19 O 0.41295 0.90996 0.50104 0.0
O20 O 0.3968 0.03903 0.54676 0.0
O21 O 0.29437 0.94387 0.72 0.0
O22 O 0.36831 0.84948 0.65213 0.0
C23 C 0.16408 0.83324 0.52353 0.0
O24 O 0.22524 0.07403 0.60846 0.0
O25 O 0.22349 0.03263 0.47695 0.0
In26 In 0.94445 0.6948 0.45732 0.0
O27 O 0.07404 0.75819 0.42099 0.0
O28 O 0.03265 0.75991 0.55249 0.0
C29 C 0.88071 0.63686 0.30556 0.0
C30 C 0.83326 0.81934 0.5059 0.0
C31 C 0.98462 0.5382 0.51899 0.0
O32 O 0.94387 0.68906 0.30943 0.0
O33 O 0.84949 0.61511 0.37731 0.0
O34 O 0.90997 0.5705 0.52844 0.0
O35 O 0.03904 0.5866 0.48261 0.0
C36 C 0.0895 0.78079 0.49797 0.0
O37 O 0.85177 0.75713 0.55554 0.0
O38 O 0.86764 0.81624 0.4324 0.0
In39 In 0.69482 0.03897 0.57212 0.0
O40 O 0.75821 0.90938 0.60845 0.0
O41 O 0.75992 0.95077 0.47694 0.0
C42 C 0.63687 0.10272 0.72388 0.0
C43 C 0.81937 0.15014 0.52353 0.0
C44 C 0.53821 -0.00121 0.51045 0.0
O45 O 0.68907 0.03956 0.72001 0.0
O46 O 0.61513 0.13394 0.65213 0.0
O47 O 0.57051 0.07345 0.501 0.0
O48 O 0.58661 0.94438 0.54684 0.0
C49 C 0.7808 0.89393 0.53147 0.0
O50 O 0.75714 0.13166 0.4739 0.0
O51 O 0.81626 0.11577 0.59704 0.0
In52 In 0.44444 0.78862 0.95733 0.0
O53 O 0.57403 0.72523 0.92099 0.0
O54 O 0.53264 0.72349 0.05249 0.0
C55 C 0.38071 0.84657 0.80557 0.0
C56 C 0.33325 0.66408 1.00592 0.0
C57 C 0.48464 0.94524 0.01906 0.0
O58 O 0.44388 0.79437 0.80944 0.0
O59 O 0.34948 0.86831 0.87732 0.0
O60 O 0.40997 0.91295 0.02841 0.0
O61 O 0.53903 0.8968 0.98269 0.0
C62 C 0.58949 0.70264 0.99797 0.0
O63 O 0.35176 0.7263 0.05555 0.0
O64 O 0.36762 0.66719 0.93241 0.0
In65 In 0.78861 0.53898 0.07211 0.0
O66 O 0.72522 0.4094 0.10845 0.0
O67 O 0.72349 0.45079 0.97694 0.0
C68 C 0.84656 0.60271 0.22387 0.0
C69 C 0.66406 0.65016 0.02352 0.0
C70 C 0.94523 0.49878 1.01038 0.0
O71 O 0.79436 0.53955 0.22 0.0
O72 O 0.86829 0.63395 0.15212 0.0
O73 O 0.91294 0.57345 1.00103 0.0
O74 O 0.89679 0.44439 0.04676 0.0
C75 C 0.70263 0.39393 0.03147 0.0
O76 O 0.72629 0.63167 0.97389 0.0
O77 O 0.66717 0.61578 0.09703 0.0
In78 In 0.53897 0.19481 0.95732 0.0
O79 O 0.63166 0.25713 0.05554 0.0
O80 O 0.61577 0.31626 0.9324 0.0
C81 C 0.4988 0.03821 0.01899 0.0
C82 C 0.39392 0.28079 0.99798 0.0
C83 C 0.60272 0.13687 0.80557 0.0
O84 O 0.57345 0.07051 0.02845 0.0
O85 O 0.44439 0.08661 0.9826 0.0
O86 O 0.53956 0.18907 0.80944 0.0
O87 O 0.63395 0.11513 0.87732 0.0
C88 C 0.65014 0.31937 1.00591 0.0
O89 O 0.40939 0.25821 0.92099 0.0
O90 O 0.45077 0.25992 0.0525 0.0
In91 In 0.19481 0.44445 0.07213 0.0
O92 O 0.25819 0.57404 0.10846 0.0
O93 O 0.25991 0.53265 0.97695 0.0
C94 C 0.13686 0.38071 0.22389 0.0
C95 C 0.31935 0.33327 0.02354 0.0
C96 C 0.0382 0.48462 1.01045 0.0
O97 O 0.18907 0.44386 0.22001 0.0
O98 O 0.11511 0.34948 0.15213 0.0
O99 O 0.0705 0.40997 1.00101 0.0
O100 O 0.0866 0.53904 0.04684 0.0
C101 C 0.28079 0.5895 0.03148 0.0
O102 O 0.25713 0.35177 0.97391 0.0
O103 O 0.31625 0.36764 0.09705 0.0
loop_
_geom_bond_atom_site_label_1
_geom_bond_atom_site_label_2
_geom_bond_distance
_geom_bond_site_symmetry_2
_ccdc_geom_bond_type
In0 O1 2.294 1_455 S
In0 O2 2.326 1_455 S
In0 O6 2.266 . S
In0 O7 2.326 . S
In0 O8 2.266 . S
In0 O9 2.326 1_455 S
In0 O11 2.294 . S
In0 O12 2.326 . S
O1 In0 2.294 1_655 S
O1 C10 1.240 . S
O2 In0 2.326 1_655 S
O2 C10 1.252 . S
C3 O6 1.252 . S
C3 O7 1.260 . S
C4 O11 1.240 . S
C4 O12 1.252 . S
C5 O8 1.252 . S
C5 O9 1.260 1_455 S
O6 In0 2.266 . S
O6 C3 1.252 . S
O7 In0 2.326 . S
O7 C3 1.260 . S
O8 In0 2.266 . S
O8 C5 1.252 . S
O9 In0 2.326 1_655 S
O9 C5 1.260 1_655 S
C10 O1 1.240 . S
C10 O2 1.252 . S
O11 In0 2.294 . S
O11 C4 1.240 . S
O12 In0 2.326 . S
O12 C4 1.252 . S
In13 O14 2.294 . S
In13 O15 2.326 . S
In13 O19 2.266 . S
In13 O20 2.326 1_565 S
In13 O21 2.266 . S
In13 O22 2.326 . S
In13 O24 2.294 1_565 S
In13 O25 2.326 1_565 S
O14 In13 2.294 . S
O14 C23 1.240 . S
O15 In13 2.326 . S
O15 C23 1.252 . S
C16 O19 1.252 . S
C16 O20 1.260 1_565 S
C17 O24 1.240 . S
C17 O25 1.252 . S
C18 O21 1.252 . S
C18 O22 1.260 . S
O19 In13 2.266 . S
O19 C16 1.252 . S
O20 In13 2.326 1_545 S
O20 C16 1.260 1_545 S
O21 In13 2.266 . S
O21 C18 1.252 . S
O22 In13 2.326 . S
O22 C18 1.260 . S
C23 O14 1.240 . S
C23 O15 1.252 . S
O24 In13 2.294 1_545 S
O24 C17 1.240 . S
O25 In13 2.326 1_545 S
O25 C17 1.252 . S
In26 O27 2.294 1_655 S
In26 O28 2.326 1_655 S
In26 O32 2.266 . S
In26 O33 2.326 . S
In26 O34 2.266 . S
In26 O35 2.326 1_655 S
In26 O37 2.294 . S
In26 O38 2.326 . S
O27 In26 2.294 1_455 S
O27 C36 1.240 . S
O28 In26 2.326 1_455 S
O28 C36 1.252 . S
C29 O32 1.252 . S
C29 O33 1.260 . S
C30 O37 1.240 . S
C30 O38 1.252 . S
C31 O34 1.252 . S
C31 O35 1.260 1_655 S
O32 In26 2.266 . S
O32 C29 1.252 . S
O33 In26 2.326 . S
O33 C29 1.260 . S
O34 In26 2.266 . S
O34 C31 1.252 . S
O35 In26 2.326 1_455 S
O35 C31 1.260 1_455 S
C36 O27 1.240 . S
C36 O28 1.252 . S
O37 In26 2.294 . S
O37 C30 1.240 . S
O38 In26 2.326 . S
O38 C30 1.252 . S
In39 O40 2.294 1_545 S
In39 O41 2.326 1_545 S
In39 O45 2.266 . S
In39 O46 2.326 . S
In39 O47 2.266 . S
In39 O48 2.326 1_545 S
In39 O50 2.294 . S
In39 O51 2.326 . S
O40 In39 2.294 1_565 S
O40 C49 1.240 . S
O41 In39 2.326 1_565 S
O41 C49 1.252 . S
C42 O45 1.252 . S
C42 O46 1.260 . S
C43 O50 1.240 . S
C43 O51 1.252 . S
C44 O47 1.252 . S
C44 O48 1.260 1_545 S
O45 In39 2.266 . S
O45 C42 1.252 . S
O46 In39 2.326 . S
O46 C42 1.260 . S
O47 In39 2.266 . S
O47 C44 1.252 . S
O48 In39 2.326 1_565 S
O48 C44 1.260 1_565 S
C49 O40 1.240 . S
C49 O41 1.252 . S
O50 In39 2.294 . S
O50 C43 1.240 . S
O51 In39 2.326 . S
O51 C43 1.252 . S
In52 O53 2.294 . S
In52 O54 2.326 1_556 S
In52 O58 2.266 . S
In52 O59 2.326 . S
In52 O60 2.266 1_556 S
In52 O61 2.326 . S
In52 O63 2.294 1_556 S
In52 O64 2.326 . S
O53 In52 2.294 . S
O53 C62 1.240 . S
O54 In52 2.326 1_554 S
O54 C62 1.252 1_554 S
C55 O58 1.252 . S
C55 O59 1.260 . S
C56 O63 1.240 . S
C56 O64 1.252 1_554 S
C57 O60 1.252 1_556 S
C57 O61 1.260 . S
O58 In52 2.266 . S
O58 C55 1.252 . S
O59 In52 2.326 . S
O59 C55 1.260 . S
O60 In52 2.266 1_554 S
O60 C57 1.252 1_554 S
O61 In52 2.326 . S
O61 C57 1.260 . S
C62 O53 1.240 . S
C62 O54 1.252 1_556 S
O63 In52 2.294 1_554 S
O63 C56 1.240 . S
O64 In52 2.326 . S
O64 C56 1.252 1_556 S
In65 O66 2.294 . S
In65 O67 2.326 1_554 S
In65 O71 2.266 . S
In65 O72 2.326 . S
In65 O73 2.266 1_554 S
In65 O74 2.326 . S
In65 O76 2.294 1_554 S
In65 O77 2.326 . S
O66 In65 2.294 . S
O66 C75 1.240 . S
O67 In65 2.326 1_556 S
O67 C75 1.252 1_556 S
C68 O71 1.252 . S
C68 O72 1.260 . S
C69 O76 1.240 . S
C69 O77 1.252 1_556 S
C70 O73 1.252 1_554 S
C70 O74 1.260 . S
O71 In65 2.266 . S
O71 C68 1.252 . S
O72 In65 2.326 . S
O72 C68 1.260 . S
O73 In65 2.266 1_556 S
O73 C70 1.252 1_556 S
O74 In65 2.326 . S
O74 C70 1.260 . S
C75 O66 1.240 . S
C75 O67 1.252 1_554 S
O76 In65 2.294 1_556 S
O76 C69 1.240 . S
O77 In65 2.326 . S
O77 C69 1.252 1_554 S
In78 O79 2.294 1_556 S
In78 O80 2.326 . S
In78 O84 2.266 1_556 S
In78 O85 2.326 . S
In78 O86 2.266 . S
In78 O87 2.326 . S
In78 O89 2.294 . S
In78 O90 2.326 1_556 S
O79 In78 2.294 1_554 S
O79 C88 1.240 . S
O80 In78 2.326 . S
O80 C88 1.252 1_556 S
C81 O84 1.252 1_556 S
C81 O85 1.260 . S
C82 O89 1.240 . S
C82 O90 1.252 1_556 S
C83 O86 1.252 . S
C83 O87 1.260 . S
O84 In78 2.266 1_554 S
O84 C81 1.252 1_554 S
O85 In78 2.326 . S
O85 C81 1.260 . S
O86 In78 2.266 . S
O86 C83 1.252 . S
O87 In78 2.326 . S
O87 C83 1.260 . S
C88 O79 1.240 . S
C88 O80 1.252 1_554 S
O89 In78 2.294 . S
O89 C82 1.240 . S
O90 In78 2.326 1_554 S
O90 C82 1.252 1_554 S
In91 O92 2.294 . S
In91 O93 2.326 1_554 S
In91 O97 2.266 . S
In91 O98 2.326 . S
In91 O99 2.266 1_554 S
In91 O100 2.326 . S
In91 O102 2.294 1_554 S
In91 O103 2.326 . S
O92 In91 2.294 . S
O92 C101 1.240 . S
O93 In91 2.326 1_556 S
O93 C101 1.252 1_556 S
C94 O97 1.252 . S
C94 O98 1.260 . S
C95 O102 1.240 . S
C95 O103 1.252 1_556 S
C96 O99 1.252 1_554 S
C96 O100 1.260 . S
O97 In91 2.266 . S
O97 C94 1.252 . S
O98 In91 2.326 . S
O98 C94 1.260 . S
O99 In91 2.266 1_556 S
O99 C96 1.252 1_556 S
O100 In91 2.326 . S
O100 C96 1.260 . S
C101 O92 1.240 . S
C101 O93 1.252 1_554 S
O102 In91 2.294 1_556 S
O102 C95 1.240 . S
O103 In91 2.326 . S
O103 C95 1.252 1_554 S
C94 C3 1.513 . S
C18 C55 1.513 . S
C29 C68 1.513 . S
C83 C42 1.513 . S
C17 C4 1.532 . S
C23 C36 1.532 . S
C49 C30 1.532 . S
C43 C10 1.532 . S
C101 C56 1.532 . S
C69 C62 1.532 . S
C75 C88 1.532 . S
C82 C95 1.532 . S
C31 C5 1.288 1_655 S
C44 C16 1.288 1_545 S
C81 C57 1.288 1_545 S
C96 C70 1.288 1_455 S
