# Generated by pormake.
# Topology sxb, (6)-cn, num edge types: 1
# Building blocks:
#     Node 0, Type 0, BuildingBlock: FUNLAD_clean_sbu_0, # of connection points: 6
#     Node 1, Type 0, BuildingBlock: FUNLAD_clean_sbu_0, # of connection points: 6
#     Node 2, Type 0, BuildingBlock: FUNLAD_clean_sbu_0, # of connection points: 6
#     Node 3, Type 0, BuildingBlock: FUNLAD_clean_sbu_0, # of connection points: 6
#     Edge 4, Type (0, 0), None
#     Edge 5, Type (0, 0), None
#     Edge 6, Type (0, 0), None
#     Edge 7, Type (0, 0), None
#     Edge 8, Type (0, 0), None
#     Edge 9, Type (0, 0), None
#     Edge 10, Type (0, 0), None
#     Edge 11, Type (0, 0), None
#     Edge 12, Type (0, 0), None
#     Edge 13, Type (0, 0), None
#     Edge 14, Type (0, 0), None
#     Edge 15, Type (0, 0), None
# Relax obj value: 0.050
# Max RMSD: 0.153
# Mean RMSD: 0.153
data_MOF--net-sxb--node1-FUNLAD_clean_sbu_0--edge1-none
_symmetry_space_group_name_H-M    P1
_symmetry_Int_Tables_number       1
_symmetry_cell_setting            triclinic
loop_
_symmetry_equiv_pos_as_xyz
'x, y, z'
_cell_length_a     6.5979428
_cell_length_b     12.353393
_cell_length_c     26.668236
_cell_angle_alpha  89.99999
_cell_angle_beta   90.971582
_cell_angle_gamma 89.999999
loop_
_atom_site_label
_atom_site_type_symbol
_atom_site_fract_x
_atom_site_fract_y
_atom_site_fract_z
_atom_type_partial_charge
C0 C 0.34927 -0.00016 0.03039 0.0
N1 N 0.94548 -0.02104 0.91217 0.0
C2 C 0.01713 0.06723 0.88763 0.0
C3 C 0.01955 0.06925 0.83531 0.0
C4 C 0.94986 -0.02099 0.80805 0.0
C5 C 0.87726 0.88886 0.83433 0.0
C6 C 0.87534 0.8908 0.88668 0.0
Zn7 Zn 0.94847 -0.02147 0.98865 0.0
C8 C 0.12697 0.77384 0.03028 0.0
N9 N -0.04264 0.97791 0.14839 0.0
C10 C 0.0275 0.06606 0.17387 0.0
C11 C 0.8857 0.88963 0.17293 0.0
C12 C 0.88329 0.88761 0.22525 0.0
C13 C -0.04702 0.97785 0.2525 0.0
C14 C 0.02558 0.06801 0.22623 0.0
Zn15 Zn -0.04564 0.97833 0.07191 0.0
O16 O 0.25434 0.01239 0.98909 0.0
C17 C 0.77585 0.18302 0.03027 0.0
O18 O 0.26064 0.01208 0.07183 0.0
H19 H 0.82916 0.82086 0.15184 0.0
H20 H 0.07367 0.136 0.90872 0.0
H21 H 0.08451 0.13511 0.15353 0.0
O22 O 0.83344 0.14174 0.98911 0.0
O23 O 0.83915 0.14166 0.07143 0.0
H24 H 0.81832 0.82176 0.90702 0.0
O25 O 0.64849 0.94447 0.07147 0.0
O26 O 0.6422 0.94478 0.98872 0.0
O27 O 0.06939 0.81512 0.07145 0.0
O28 O 0.06368 0.81521 0.98912 0.0
C29 C 0.55356 0.957 0.03017 0.0
H30 H 0.07846 0.13989 0.8164 0.0
H31 H 0.82037 0.81818 0.8146 0.0
H32 H 0.82438 0.81698 0.24416 0.0
H33 H 0.08248 0.13869 0.24595 0.0
C34 C 0.55358 -0.00016 0.53017 0.0
N35 N -0.04263 -0.02104 0.64839 0.0
C36 C 0.88571 0.06724 0.67293 0.0
C37 C 0.88329 0.06925 0.72524 0.0
C38 C -0.04701 -0.02099 0.7525 0.0
C39 C 0.02559 0.88886 0.72623 0.0
C40 C 0.02751 0.8908 0.67387 0.0
Zn41 Zn -0.04562 -0.02147 0.57191 0.0
C42 C 0.77588 0.77384 0.53027 0.0
N43 N 0.94549 0.97791 0.41217 0.0
C44 C 0.87535 0.06607 0.38668 0.0
C45 C 0.01714 0.88963 0.38763 0.0
C46 C 0.01956 0.88762 0.33531 0.0
C47 C 0.94986 0.97785 0.30805 0.0
C48 C 0.87726 0.06801 0.33433 0.0
Zn49 Zn 0.94849 0.97834 0.48865 0.0
O50 O 0.64851 0.01239 0.57147 0.0
C51 C 0.12699 0.18302 0.53028 0.0
O52 O 0.64221 0.01208 0.48872 0.0
H53 H 0.07368 0.82086 0.40872 0.0
H54 H 0.82918 0.136 0.65184 0.0
H55 H 0.81833 0.13511 0.40702 0.0
O56 O 0.06941 0.14174 0.57145 0.0
O57 O 0.0637 0.14166 0.48912 0.0
H58 H 0.08453 0.82176 0.65353 0.0
O59 O 0.25435 0.94448 0.48909 0.0
O60 O 0.26065 0.94478 0.57183 0.0
O61 O 0.83346 0.81512 0.48911 0.0
O62 O 0.83917 0.81521 0.57143 0.0
C63 C 0.34928 0.95701 0.53039 0.0
H64 H 0.82438 0.13989 0.74415 0.0
H65 H 0.08248 0.81818 0.74596 0.0
H66 H 0.07847 0.81698 0.3164 0.0
H67 H 0.82037 0.13869 0.3146 0.0
C68 C 0.84927 0.49984 0.03039 0.0
N69 N 0.44548 0.47896 0.91217 0.0
C70 C 0.51713 0.56723 0.88763 0.0
C71 C 0.51955 0.56925 0.83531 0.0
C72 C 0.44986 0.47901 0.80805 0.0
C73 C 0.37726 0.38886 0.83433 0.0
C74 C 0.37534 0.3908 0.88668 0.0
Zn75 Zn 0.44847 0.47853 0.98865 0.0
C76 C 0.62698 0.27384 0.03028 0.0
N77 N 0.45736 0.47791 0.14839 0.0
C78 C 0.5275 0.56606 0.17387 0.0
C79 C 0.3857 0.38963 0.17293 0.0
C80 C 0.38329 0.38761 0.22525 0.0
C81 C 0.45298 0.47785 0.2525 0.0
C82 C 0.52558 0.56801 0.22623 0.0
Zn83 Zn 0.45436 0.47833 0.07191 0.0
O84 O 0.75434 0.51239 0.98909 0.0
C85 C 0.27585 0.68302 0.03027 0.0
O86 O 0.76064 0.51208 0.07183 0.0
H87 H 0.32916 0.32086 0.15184 0.0
H88 H 0.57367 0.636 0.90872 0.0
H89 H 0.58451 0.63511 0.15353 0.0
O90 O 0.33343 0.64174 0.98911 0.0
O91 O 0.33914 0.64166 0.07143 0.0
H92 H 0.31832 0.32176 0.90702 0.0
O93 O 0.14849 0.44447 0.07147 0.0
O94 O 0.1422 0.44478 0.98872 0.0
O95 O 0.56939 0.31512 0.07145 0.0
O96 O 0.56368 0.31521 0.98912 0.0
C97 C 0.05356 0.457 0.03017 0.0
H98 H 0.57846 0.63989 0.8164 0.0
H99 H 0.32037 0.31818 0.8146 0.0
H100 H 0.32438 0.31698 0.24416 0.0
H101 H 0.58248 0.63869 0.24595 0.0
C102 C 0.05358 0.49984 0.53017 0.0
N103 N 0.45737 0.47896 0.64839 0.0
C104 C 0.38571 0.56724 0.67293 0.0
C105 C 0.38329 0.56925 0.72524 0.0
C106 C 0.45299 0.47901 0.7525 0.0
C107 C 0.52559 0.38886 0.72623 0.0
C108 C 0.52751 0.3908 0.67387 0.0
Zn109 Zn 0.45438 0.47853 0.57191 0.0
C110 C 0.27587 0.27385 0.53027 0.0
N111 N 0.44549 0.47791 0.41217 0.0
C112 C 0.37535 0.56607 0.38668 0.0
C113 C 0.51714 0.38963 0.38763 0.0
C114 C 0.51956 0.38762 0.33531 0.0
C115 C 0.44986 0.47785 0.30805 0.0
C116 C 0.37726 0.56801 0.33433 0.0
Zn117 Zn 0.44849 0.47834 0.48865 0.0
O118 O 0.14851 0.51239 0.57147 0.0
C119 C 0.627 0.68302 0.53028 0.0
O120 O 0.14221 0.51208 0.48872 0.0
H121 H 0.57368 0.32086 0.40872 0.0
H122 H 0.32918 0.636 0.65184 0.0
H123 H 0.31833 0.63511 0.40702 0.0
O124 O 0.56941 0.64174 0.57145 0.0
O125 O 0.5637 0.64166 0.48912 0.0
H126 H 0.58453 0.32176 0.65353 0.0
O127 O 0.75435 0.44447 0.48909 0.0
O128 O 0.76065 0.44478 0.57183 0.0
O129 O 0.33345 0.31512 0.48911 0.0
O130 O 0.33916 0.31521 0.57143 0.0
C131 C 0.84928 0.45701 0.53039 0.0
H132 H 0.32438 0.63989 0.74415 0.0
H133 H 0.58248 0.31818 0.74596 0.0
H134 H 0.57847 0.31698 0.3164 0.0
H135 H 0.32037 0.63869 0.3146 0.0
loop_
_geom_bond_atom_site_label_1
_geom_bond_atom_site_label_2
_geom_bond_distance
_geom_bond_site_symmetry_2
_ccdc_geom_bond_type
C0 O16 1.251 1_554 S
C0 O18 1.254 . S
N1 C2 1.335 1_655 S
N1 C6 1.304 1_545 S
N1 Zn7 2.020 1_545 S
C2 N1 1.335 1_455 S
C2 C3 1.379 . S
C2 H20 0.952 . S
C3 C2 1.379 . S
C3 C4 1.390 1_455 S
C3 H30 0.949 . S
C4 C3 1.390 1_655 S
C4 C5 1.357 1_545 S
C5 C4 1.357 1_565 S
C5 C6 1.370 . S
C5 H31 0.950 . S
C6 N1 1.304 1_565 S
C6 C5 1.370 . S
C6 H24 0.948 . S
Zn7 N1 2.020 1_565 S
Zn7 O16 2.039 1_665 S
Zn7 O22 2.034 1_565 S
Zn7 O26 2.025 . S
Zn7 O28 2.024 1_655 S
C8 O27 1.246 . S
C8 O28 1.249 1_554 S
N9 C10 1.305 1_565 S
N9 C11 1.334 1_455 S
N9 Zn15 2.020 1_565 S
C10 N9 1.305 1_545 S
C10 C14 1.370 . S
C10 H21 0.948 . S
C11 N9 1.334 1_655 S
C11 C12 1.379 . S
C11 H19 0.952 . S
C12 C11 1.379 . S
C12 C13 1.390 1_655 S
C12 H32 0.949 . S
C13 C12 1.390 1_455 S
C13 C14 1.357 1_565 S
C14 C10 1.370 . S
C14 C13 1.357 1_545 S
C14 H33 0.950 . S
Zn15 N9 2.020 1_545 S
Zn15 O18 2.025 . S
Zn15 O23 2.024 1_455 S
Zn15 O25 2.039 1_445 S
Zn15 O27 2.034 1_545 S
O16 C0 1.251 1_556 S
O16 Zn7 2.039 1_445 S
C17 O22 1.246 1_554 S
C17 O23 1.249 . S
O18 C0 1.254 . S
O18 Zn15 2.025 . S
H19 C11 0.952 . S
H20 C2 0.952 . S
H21 C10 0.948 . S
O22 Zn7 2.034 1_545 S
O22 C17 1.246 1_556 S
O23 Zn15 2.024 1_655 S
O23 C17 1.249 . S
H24 C6 0.948 . S
O25 Zn15 2.039 1_665 S
O25 C29 1.251 . S
O26 Zn7 2.025 . S
O26 C29 1.254 1_556 S
O27 C8 1.246 . S
O27 Zn15 2.034 1_565 S
O28 Zn7 2.024 1_455 S
O28 C8 1.249 1_556 S
C29 O25 1.251 . S
C29 O26 1.254 1_554 S
H30 C3 0.949 . S
H31 C5 0.950 . S
H32 C12 0.949 . S
H33 C14 0.950 . S
C34 O50 1.251 . S
C34 O52 1.254 . S
N35 C36 1.335 1_455 S
N35 C40 1.304 1_545 S
N35 Zn41 2.020 1_545 S
C36 N35 1.335 1_655 S
C36 C37 1.379 . S
C36 H54 0.952 . S
C37 C36 1.379 . S
C37 C38 1.390 1_655 S
C37 H64 0.949 . S
C38 C37 1.390 1_455 S
C38 C39 1.357 1_545 S
C39 C38 1.357 1_565 S
C39 C40 1.370 . S
C39 H65 0.950 . S
C40 N35 1.304 1_565 S
C40 C39 1.370 . S
C40 H58 0.948 . S
Zn41 N35 2.020 1_565 S
Zn41 O50 2.039 1_465 S
Zn41 O56 2.034 1_565 S
Zn41 O60 2.025 . S
Zn41 O62 2.024 1_455 S
C42 O61 1.246 . S
C42 O62 1.249 . S
N43 C44 1.305 1_565 S
N43 C45 1.334 1_655 S
N43 Zn49 2.020 1_565 S
C44 N43 1.305 1_545 S
C44 C48 1.370 . S
C44 H55 0.948 . S
C45 N43 1.334 1_455 S
C45 C46 1.379 . S
C45 H53 0.952 . S
C46 C45 1.379 . S
C46 C47 1.390 1_455 S
C46 H66 0.949 . S
C47 C46 1.390 1_655 S
C47 C48 1.357 1_565 S
C48 C44 1.370 . S
C48 C47 1.357 1_545 S
C48 H67 0.950 . S
Zn49 N43 2.020 1_545 S
Zn49 O52 2.025 . S
Zn49 O57 2.024 1_655 S
Zn49 O59 2.039 1_645 S
Zn49 O61 2.034 1_545 S
O50 C34 1.251 . S
O50 Zn41 2.039 1_645 S
C51 O56 1.246 . S
C51 O57 1.249 . S
O52 C34 1.254 . S
O52 Zn49 2.025 . S
H53 C45 0.952 . S
H54 C36 0.952 . S
H55 C44 0.948 . S
O56 Zn41 2.034 1_545 S
O56 C51 1.246 . S
O57 Zn49 2.024 1_455 S
O57 C51 1.249 . S
H58 C40 0.948 . S
O59 Zn49 2.039 1_465 S
O59 C63 1.251 . S
O60 Zn41 2.025 . S
O60 C63 1.254 . S
O61 C42 1.246 . S
O61 Zn49 2.034 1_565 S
O62 Zn41 2.024 1_655 S
O62 C42 1.249 . S
C63 O59 1.251 . S
C63 O60 1.254 . S
H64 C37 0.949 . S
H65 C39 0.950 . S
H66 C46 0.949 . S
H67 C48 0.950 . S
C68 O84 1.251 1_554 S
C68 O86 1.254 . S
N69 C70 1.333 . S
N69 C74 1.307 . S
N69 Zn75 2.020 . S
C70 N69 1.333 . S
C70 C71 1.379 . S
C70 H88 0.952 . S
C71 C70 1.379 . S
C71 C72 1.390 . S
C71 H98 0.949 . S
C72 C71 1.390 . S
C72 C73 1.357 . S
C73 C72 1.357 . S
C73 C74 1.370 . S
C73 H99 0.950 . S
C74 N69 1.307 . S
C74 C73 1.370 . S
C74 H92 0.948 . S
Zn75 N69 2.020 . S
Zn75 O84 2.039 . S
Zn75 O90 2.034 . S
Zn75 O94 2.025 . S
Zn75 O96 2.024 . S
C76 O95 1.246 . S
C76 O96 1.249 1_554 S
N77 C78 1.307 . S
N77 C79 1.333 . S
N77 Zn83 2.020 . S
C78 N77 1.307 . S
C78 C82 1.370 . S
C78 H89 0.948 . S
C79 N77 1.333 . S
C79 C80 1.379 . S
C79 H87 0.952 . S
C80 C79 1.379 . S
C80 C81 1.390 . S
C80 H100 0.949 . S
C81 C80 1.390 . S
C81 C82 1.357 . S
C82 C78 1.370 . S
C82 C81 1.357 . S
C82 H101 0.950 . S
Zn83 N77 2.020 . S
Zn83 O86 2.025 . S
Zn83 O91 2.024 . S
Zn83 O93 2.039 . S
Zn83 O95 2.034 . S
O84 C68 1.251 1_556 S
O84 Zn75 2.039 . S
C85 O90 1.246 1_554 S
C85 O91 1.249 . S
O86 C68 1.254 . S
O86 Zn83 2.025 . S
H87 C79 0.952 . S
H88 C70 0.952 . S
H89 C78 0.948 . S
O90 Zn75 2.034 . S
O90 C85 1.246 1_556 S
O91 Zn83 2.024 . S
O91 C85 1.249 . S
H92 C74 0.948 . S
O93 Zn83 2.039 . S
O93 C97 1.251 . S
O94 Zn75 2.025 . S
O94 C97 1.254 1_556 S
O95 C76 1.246 . S
O95 Zn83 2.034 . S
O96 Zn75 2.024 . S
O96 C76 1.249 1_556 S
C97 O93 1.251 . S
C97 O94 1.254 1_554 S
H98 C71 0.949 . S
H99 C73 0.950 . S
H100 C80 0.949 . S
H101 C82 0.950 . S
C102 O118 1.251 . S
C102 O120 1.254 . S
N103 C104 1.333 . S
N103 C108 1.307 . S
N103 Zn109 2.020 . S
C104 N103 1.333 . S
C104 C105 1.379 . S
C104 H122 0.952 . S
C105 C104 1.379 . S
C105 C106 1.390 . S
C105 H132 0.949 . S
C106 C105 1.390 . S
C106 C107 1.357 . S
C107 C106 1.357 . S
C107 C108 1.370 . S
C107 H133 0.950 . S
C108 N103 1.307 . S
C108 C107 1.370 . S
C108 H126 0.948 . S
Zn109 N103 2.020 . S
Zn109 O118 2.039 . S
Zn109 O124 2.034 . S
Zn109 O128 2.025 . S
Zn109 O130 2.024 . S
C110 O129 1.246 . S
C110 O130 1.249 . S
N111 C112 1.307 . S
N111 C113 1.333 . S
N111 Zn117 2.020 . S
C112 N111 1.307 . S
C112 C116 1.370 . S
C112 H123 0.948 . S
C113 N111 1.333 . S
C113 C114 1.379 . S
C113 H121 0.952 . S
C114 C113 1.379 . S
C114 C115 1.390 . S
C114 H134 0.949 . S
C115 C114 1.390 . S
C115 C116 1.357 . S
C116 C112 1.370 . S
C116 C115 1.357 . S
C116 H135 0.950 . S
Zn117 N111 2.020 . S
Zn117 O120 2.025 . S
Zn117 O125 2.024 . S
Zn117 O127 2.039 . S
Zn117 O129 2.034 . S
O118 C102 1.251 . S
O118 Zn109 2.039 . S
C119 O124 1.246 . S
C119 O125 1.249 . S
O120 C102 1.254 . S
O120 Zn117 2.025 . S
H121 C113 0.952 . S
H122 C104 0.952 . S
H123 C112 0.948 . S
O124 Zn109 2.034 . S
O124 C119 1.246 . S
O125 Zn117 2.024 . S
O125 C119 1.249 . S
H126 C108 0.948 . S
O127 Zn117 2.039 . S
O127 C131 1.251 . S
O128 Zn109 2.025 . S
O128 C131 1.254 . S
O129 C110 1.246 . S
O129 Zn117 2.034 . S
O130 Zn109 2.024 . S
O130 C110 1.249 . S
C131 O127 1.251 . S
C131 O128 1.254 . S
H132 C105 0.949 . S
H133 C107 0.950 . S
H134 C114 0.949 . S
H135 C116 0.950 . S
C85 C8 1.958 . S
C76 C17 1.958 . S
C51 C110 1.957 . S
C42 C119 1.958 . S
C0 C29 1.323 1_545 S
C63 C34 1.323 1_565 S
C68 C97 1.323 1_655 S
C102 C131 1.323 1_455 S
C47 C13 1.498 1_655 S
C4 C38 1.498 1_655 S
C115 C81 1.498 . S
C106 C72 1.498 . S
