# Generated by pormake.
# Topology qtz-a, (4)-cn, num edge types: 1
# Building blocks:
#     Node 0, Type 0, BuildingBlock: NAHDIM_clean_sbu_0, # of connection points: 4
#     Node 1, Type 0, BuildingBlock: NAHDIM_clean_sbu_0, # of connection points: 4
#     Node 2, Type 0, BuildingBlock: NAHDIM_clean_sbu_0, # of connection points: 4
#     Node 3, Type 0, BuildingBlock: NAHDIM_clean_sbu_0, # of connection points: 4
#     Node 4, Type 0, BuildingBlock: NAHDIM_clean_sbu_0, # of connection points: 4
#     Node 5, Type 0, BuildingBlock: NAHDIM_clean_sbu_0, # of connection points: 4
#     Node 6, Type 0, BuildingBlock: NAHDIM_clean_sbu_0, # of connection points: 4
#     Node 7, Type 0, BuildingBlock: NAHDIM_clean_sbu_0, # of connection points: 4
#     Node 8, Type 0, BuildingBlock: NAHDIM_clean_sbu_0, # of connection points: 4
#     Node 9, Type 0, BuildingBlock: NAHDIM_clean_sbu_0, # of connection points: 4
#     Node 10, Type 0, BuildingBlock: NAHDIM_clean_sbu_0, # of connection points: 4
#     Node 11, Type 0, BuildingBlock: NAHDIM_clean_sbu_0, # of connection points: 4
#     Edge 12, Type (0, 0), None
#     Edge 13, Type (0, 0), None
#     Edge 14, Type (0, 0), None
#     Edge 15, Type (0, 0), None
#     Edge 16, Type (0, 0), None
#     Edge 17, Type (0, 0), None
#     Edge 18, Type (0, 0), None
#     Edge 19, Type (0, 0), None
#     Edge 20, Type (0, 0), None
#     Edge 21, Type (0, 0), None
#     Edge 22, Type (0, 0), None
#     Edge 23, Type (0, 0), None
#     Edge 24, Type (0, 0), None
#     Edge 25, Type (0, 0), None
#     Edge 26, Type (0, 0), None
#     Edge 27, Type (0, 0), None
#     Edge 28, Type (0, 0), None
#     Edge 29, Type (0, 0), None
#     Edge 30, Type (0, 0), None
#     Edge 31, Type (0, 0), None
#     Edge 32, Type (0, 0), None
#     Edge 33, Type (0, 0), None
#     Edge 34, Type (0, 0), None
#     Edge 35, Type (0, 0), None
# Relax obj value: 0.748
# Max RMSD: 0.449
# Mean RMSD: 0.374
data_MOF--net-qtz-a--node1-NAHDIM_clean_sbu_0--edge1-none
_symmetry_space_group_name_H-M    P1
_symmetry_Int_Tables_number       1
_symmetry_cell_setting            triclinic
loop_
_symmetry_equiv_pos_as_xyz
'x, y, z'
_cell_length_a     21.096715
_cell_length_b     21.093993
_cell_length_c     19.667941
_cell_angle_alpha  90.010975
_cell_angle_beta   89.98869
_cell_angle_gamma 111.83216
loop_
_atom_site_label
_atom_site_type_symbol
_atom_site_fract_x
_atom_site_fract_y
_atom_site_fract_z
_atom_type_partial_charge
C0 C 0.44622 0.20445 0.13282 0.0
O1 O 0.49831 0.20173 0.09835 0.0
O2 O 0.40791 -0.00073 0.14982 0.0
Zn3 Zn 0.38975 0.06659 0.08767 0.0
O4 O 0.46893 0.09496 0.02387 0.0
C5 C 0.32278 0.97318 0.99027 0.0
O6 O 0.3743 0.95627 0.00825 0.0
O7 O 0.39109 0.15194 0.1364 0.0
C8 C 0.46708 0.11289 0.96263 0.0
O9 O 0.41025 0.11385 0.93628 0.0
C10 C 0.46938 0.01436 0.16902 0.0
O11 O 0.51229 0.07786 0.16326 0.0
O12 O 0.31048 0.01862 0.02456 0.0
C13 C 0.26184 0.45982 0.48231 0.0
O14 O 0.26247 0.41495 0.43654 0.0
O15 O 0.48445 0.56445 0.50452 0.0
Zn16 Zn 0.40331 0.54375 0.44086 0.0
O17 O 0.41968 0.6336 0.39308 0.0
C18 C 0.3875 0.41422 0.35763 0.0
O19 O 0.36451 0.37088 0.40793 0.0
O20 O 0.31404 0.51416 0.49129 0.0
C21 C 0.38787 0.64071 0.34055 0.0
O22 O 0.40591 0.70073 0.31121 0.0
C23 C 0.50269 0.52167 0.53626 0.0
O24 O 0.5594 0.54305 0.57184 0.0
O25 O 0.40401 0.47788 0.36695 0.0
C26 C 0.72522 0.3056 0.83214 0.0
O27 O 0.72447 0.36656 0.82042 0.0
O28 O 0.93684 0.40328 0.91846 0.0
Zn29 Zn 0.87374 0.36921 0.83721 0.0
O30 O 0.86717 0.45148 0.79262 0.0
C31 C 0.94513 0.29627 0.72805 0.0
O32 O 0.95769 0.24238 0.74681 0.0
O33 O 0.78022 0.29827 0.8493 0.0
C34 C 0.84771 0.44385 0.73132 0.0
O35 O 0.82945 0.38337 0.70296 0.0
C36 C 0.94659 0.46295 0.94064 0.0
O37 O 0.89709 0.48612 0.93416 0.0
O38 O 0.91766 0.32438 0.77 0.0
C39 C 0.51885 0.76937 0.13227 0.0
O40 O 0.46729 0.77207 0.09692 0.0
O41 O 0.55819 0.97477 0.15056 0.0
Zn42 Zn 0.5759 0.90747 0.08788 0.0
O43 O 0.49626 0.88011 0.02455 0.0
C44 C 0.64323 0.00191 0.99231 0.0
O45 O 0.59316 0.01978 0.01321 0.0
O46 O 0.57394 0.82185 0.1364 0.0
C47 C 0.49773 0.86291 0.96301 0.0
O48 O 0.55433 0.86199 0.93605 0.0
C49 C 0.4966 0.95973 0.16937 0.0
O50 O 0.45365 0.89626 0.16345 0.0
O51 O 0.65516 0.95501 0.0243 0.0
C52 C 0.70174 0.51491 0.48215 0.0
O53 O 0.7012 0.55918 0.43568 0.0
O54 O 0.47912 0.40779 0.50143 0.0
Zn55 Zn 0.56144 0.4299 0.4391 0.0
O56 O 0.54681 0.34065 0.39093 0.0
C57 C 0.5763 0.55962 0.35747 0.0
O58 O 0.59614 0.60161 0.40922 0.0
O59 O 0.64983 0.46027 0.49096 0.0
C60 C 0.57853 0.33485 0.33781 0.0
O61 O 0.56185 0.27512 0.30811 0.0
C62 C 0.4605 0.44937 0.53484 0.0
O63 O 0.40306 0.42674 0.56922 0.0
O64 O 0.56136 0.496 0.3653 0.0
C65 C 0.23949 0.66995 0.83259 0.0
O66 O 0.24029 0.60874 0.82256 0.0
O67 O 0.02706 0.57228 0.91731 0.0
Zn68 Zn 0.09118 0.60591 0.83673 0.0
O69 O 0.09911 0.5236 0.79339 0.0
C70 C 0.01942 0.67733 0.72724 0.0
O71 O 0.00664 0.72999 0.74965 0.0
O72 O 0.18432 0.67767 0.84846 0.0
C73 C 0.11824 0.5314 0.73195 0.0
O74 O 0.13588 0.59186 0.70366 0.0
C75 C 0.01741 0.5129 0.94025 0.0
O76 O 0.06686 0.4896 0.93421 0.0
O77 O 0.04683 0.64673 0.76636 0.0
C78 C 0.76413 0.52421 0.51981 0.0
O79 O 0.76687 0.47263 0.55512 0.0
O80 O 0.96941 0.56343 0.50166 0.0
Zn81 Zn 0.90214 0.58132 0.56431 0.0
O82 O 0.87471 0.50178 0.6278 0.0
C83 C -0.0032 0.64867 0.65948 0.0
O84 O 0.01473 0.59879 0.63809 0.0
O85 O 0.81656 0.57935 0.51575 0.0
C86 C 0.85757 0.50333 0.68935 0.0
O87 O 0.85676 0.55999 0.71628 0.0
C88 C 0.95445 0.5018 0.48299 0.0
O89 O 0.89102 0.45882 0.48904 0.0
O90 O 0.94972 0.66064 0.62787 0.0
C91 C 0.30048 0.73062 0.81996 0.0
O92 O 0.36142 0.72994 0.8319 0.0
O93 O 0.39805 0.94217 0.7336 0.0
Zn94 Zn 0.36379 0.87925 0.81496 0.0
O95 O 0.44598 0.87298 0.85989 0.0
C96 C 0.29039 0.95053 0.92392 0.0
O97 O 0.23636 0.96329 0.90612 0.0
O98 O 0.29313 0.78559 0.8027 0.0
C99 C 0.43828 0.85318 0.92106 0.0
O100 O 0.37776 0.83467 0.94934 0.0
C101 C 0.4577 0.95183 0.71148 0.0
O102 O 0.48082 0.9023 0.71813 0.0
O103 O 0.31775 0.92303 0.88119 0.0
C104 C 0.45477 0.26707 0.16975 0.0
O105 O 0.41013 0.26758 0.21583 0.0
O106 O 0.55934 0.48978 0.14757 0.0
Zn107 Zn 0.53865 0.40857 0.21113 0.0
O108 O 0.62849 0.42489 0.2589 0.0
C109 C 0.40913 0.39263 0.29435 0.0
O110 O 0.36581 0.36962 0.24404 0.0
O111 O 0.50901 0.31934 0.1606 0.0
C112 C 0.63559 0.3931 0.31144 0.0
O113 O 0.69561 0.41111 0.34077 0.0
C114 C 0.51654 0.508 0.11583 0.0
O115 O 0.53788 0.56476 0.08033 0.0
O116 O 0.47279 0.40921 0.28505 0.0
C117 C 0.19917 0.45135 0.51911 0.0
O118 O 0.19634 0.50356 0.55327 0.0
O119 O -0.00587 0.41316 0.50233 0.0
Zn120 Zn 0.06145 0.39484 0.56444 0.0
O121 O 0.08993 0.47401 0.62831 0.0
C122 C 0.96788 0.32795 0.66144 0.0
O123 O 0.95103 0.37936 0.64293 0.0
O124 O 0.14675 0.39612 0.51573 0.0
C125 C 0.10787 0.47212 0.68954 0.0
O126 O 0.10873 0.41524 0.71588 0.0
C127 C 0.00915 0.47466 0.48321 0.0
O128 O 0.0726 0.51766 0.48896 0.0
O129 O 0.01349 0.31552 0.6276 0.0
C130 C 0.66457 0.24461 0.81948 0.0
O131 O 0.60336 0.24533 0.82971 0.0
O132 O 0.56708 0.03228 0.73456 0.0
Zn133 Zn 0.60077 0.09623 0.81526 0.0
O134 O 0.51849 0.10389 0.85884 0.0
C135 C 0.67246 0.02451 0.92475 0.0
O136 O 0.72532 0.01169 0.90302 0.0
O137 O 0.67231 0.18948 0.80349 0.0
C138 C 0.52634 0.12315 0.92023 0.0
O139 O 0.58682 0.14092 0.94847 0.0
C140 C 0.50769 0.02265 0.71172 0.0
O141 O 0.48444 0.07214 0.71779 0.0
O142 O 0.64234 0.05194 0.88506 0.0
C143 C 0.50958 0.70697 0.16991 0.0
O144 O 0.55382 0.70646 0.21643 0.0
O145 O 0.40263 0.48431 0.15057 0.0
Zn146 Zn 0.42466 0.56662 0.2129 0.0
O147 O 0.33539 0.55194 0.26106 0.0
C148 C 0.55436 0.5816 0.29459 0.0
O149 O 0.59639 0.60147 0.24288 0.0
O150 O 0.45499 0.65503 0.16106 0.0
C151 C 0.32962 0.58366 0.31419 0.0
O152 O 0.26991 0.56697 0.34392 0.0
C153 C 0.44426 0.46574 0.1172 0.0
O154 O 0.42172 0.40829 0.08283 0.0
O155 O 0.49074 0.56658 0.28673 0.0
loop_
_geom_bond_atom_site_label_1
_geom_bond_atom_site_label_2
_geom_bond_distance
_geom_bond_site_symmetry_2
_ccdc_geom_bond_type
C0 O1 1.160 . S
C0 O7 1.185 . S
O1 C0 1.160 . S
O2 Zn3 1.899 . S
O2 C10 1.284 . S
Zn3 O2 1.899 . S
Zn3 O4 2.032 . S
Zn3 O7 2.086 . S
Zn3 O12 1.977 . S
O4 Zn3 2.032 . S
O4 C8 1.278 1_554 S
C5 O6 1.203 . S
C5 O12 1.267 1_565 S
O6 C5 1.203 . S
O7 C0 1.185 . S
O7 Zn3 2.086 . S
C8 O4 1.278 1_556 S
C8 O9 1.211 . S
O9 C8 1.211 . S
C10 O2 1.284 . S
C10 O11 1.273 . S
O11 C10 1.273 . S
O12 Zn3 1.977 . S
O12 C5 1.267 1_545 S
C13 O14 1.160 . S
C13 O20 1.185 . S
O14 C13 1.160 . S
O15 Zn16 1.899 . S
O15 C23 1.284 . S
Zn16 O15 1.899 . S
Zn16 O17 2.032 . S
Zn16 O20 2.086 . S
Zn16 O25 1.977 . S
O17 Zn16 2.032 . S
O17 C21 1.278 . S
C18 O19 1.203 . S
C18 O25 1.267 . S
O19 C18 1.203 . S
O20 C13 1.185 . S
O20 Zn16 2.086 . S
C21 O17 1.278 . S
C21 O22 1.211 . S
O22 C21 1.211 . S
C23 O15 1.284 . S
C23 O24 1.273 . S
O24 C23 1.273 . S
O25 Zn16 1.977 . S
O25 C18 1.267 . S
C26 O27 1.160 . S
C26 O33 1.185 . S
O27 C26 1.160 . S
O28 Zn29 1.899 . S
O28 C36 1.284 . S
Zn29 O28 1.899 . S
Zn29 O30 2.032 . S
Zn29 O33 2.086 . S
Zn29 O38 1.977 . S
O30 Zn29 2.032 . S
O30 C34 1.278 . S
C31 O32 1.203 1_655 S
C31 O38 1.267 . S
O32 C31 1.203 1_455 S
O33 C26 1.185 . S
O33 Zn29 2.086 . S
C34 O30 1.278 . S
C34 O35 1.211 . S
O35 C34 1.211 . S
C36 O28 1.284 . S
C36 O37 1.273 . S
O37 C36 1.273 . S
O38 Zn29 1.977 . S
O38 C31 1.267 . S
C39 O40 1.160 . S
C39 O46 1.185 . S
O40 C39 1.160 . S
O41 Zn42 1.899 . S
O41 C49 1.284 . S
Zn42 O41 1.899 . S
Zn42 O43 2.032 . S
Zn42 O46 2.086 . S
Zn42 O51 1.977 . S
O43 Zn42 2.032 . S
O43 C47 1.278 1_554 S
C44 O45 1.203 . S
C44 O51 1.267 1_545 S
O45 C44 1.203 . S
O46 C39 1.185 . S
O46 Zn42 2.086 . S
C47 O43 1.278 1_556 S
C47 O48 1.211 . S
O48 C47 1.211 . S
C49 O41 1.284 . S
C49 O50 1.273 . S
O50 C49 1.273 . S
O51 Zn42 1.977 . S
O51 C44 1.267 1_565 S
C52 O53 1.160 . S
C52 O59 1.185 . S
O53 C52 1.160 . S
O54 Zn55 1.899 . S
O54 C62 1.284 . S
Zn55 O54 1.899 . S
Zn55 O56 2.032 . S
Zn55 O59 2.086 . S
Zn55 O64 1.977 . S
O56 Zn55 2.032 . S
O56 C60 1.278 . S
C57 O58 1.203 . S
C57 O64 1.267 . S
O58 C57 1.203 . S
O59 C52 1.185 . S
O59 Zn55 2.086 . S
C60 O56 1.278 . S
C60 O61 1.211 . S
O61 C60 1.211 . S
C62 O54 1.284 . S
C62 O63 1.273 . S
O63 C62 1.273 . S
O64 Zn55 1.977 . S
O64 C57 1.267 . S
C65 O66 1.160 . S
C65 O72 1.185 . S
O66 C65 1.160 . S
O67 Zn68 1.899 . S
O67 C75 1.284 . S
Zn68 O67 1.899 . S
Zn68 O69 2.032 . S
Zn68 O72 2.086 . S
Zn68 O77 1.977 . S
O69 Zn68 2.032 . S
O69 C73 1.278 . S
C70 O71 1.203 1_455 S
C70 O77 1.267 . S
O71 C70 1.203 1_655 S
O72 C65 1.185 . S
O72 Zn68 2.086 . S
C73 O69 1.278 . S
C73 O74 1.211 . S
O74 C73 1.211 . S
C75 O67 1.284 . S
C75 O76 1.273 . S
O76 C75 1.273 . S
O77 Zn68 1.977 . S
O77 C70 1.267 . S
C78 O79 1.160 . S
C78 O85 1.185 . S
O79 C78 1.160 . S
O80 Zn81 1.899 . S
O80 C88 1.284 . S
Zn81 O80 1.899 . S
Zn81 O82 2.032 . S
Zn81 O85 2.086 . S
Zn81 O90 1.977 . S
O82 Zn81 2.032 . S
O82 C86 1.278 . S
C83 O84 1.203 . S
C83 O90 1.267 1_455 S
O84 C83 1.203 . S
O85 C78 1.185 . S
O85 Zn81 2.086 . S
C86 O82 1.278 . S
C86 O87 1.211 . S
O87 C86 1.211 . S
C88 O80 1.284 . S
C88 O89 1.273 . S
O89 C88 1.273 . S
O90 Zn81 1.977 . S
O90 C83 1.267 1_655 S
C91 O92 1.160 . S
C91 O98 1.185 . S
O92 C91 1.160 . S
O93 Zn94 1.899 . S
O93 C101 1.284 . S
Zn94 O93 1.899 . S
Zn94 O95 2.032 . S
Zn94 O98 2.086 . S
Zn94 O103 1.977 . S
O95 Zn94 2.032 . S
O95 C99 1.278 . S
C96 O97 1.203 1_565 S
C96 O103 1.267 . S
O97 C96 1.203 1_545 S
O98 C91 1.185 . S
O98 Zn94 2.086 . S
C99 O95 1.278 . S
C99 O100 1.211 . S
O100 C99 1.211 . S
C101 O93 1.284 . S
C101 O102 1.273 . S
O102 C101 1.273 . S
O103 Zn94 1.977 . S
O103 C96 1.267 . S
C104 O105 1.160 . S
C104 O111 1.185 . S
O105 C104 1.160 . S
O106 Zn107 1.899 . S
O106 C114 1.284 . S
Zn107 O106 1.899 . S
Zn107 O108 2.032 . S
Zn107 O111 2.086 . S
Zn107 O116 1.977 . S
O108 Zn107 2.032 . S
O108 C112 1.278 . S
C109 O110 1.203 . S
C109 O116 1.267 . S
O110 C109 1.203 . S
O111 C104 1.185 . S
O111 Zn107 2.086 . S
C112 O108 1.278 . S
C112 O113 1.211 . S
O113 C112 1.211 . S
C114 O106 1.284 . S
C114 O115 1.273 . S
O115 C114 1.273 . S
O116 Zn107 1.977 . S
O116 C109 1.267 . S
C117 O118 1.160 . S
C117 O124 1.185 . S
O118 C117 1.160 . S
O119 Zn120 1.899 . S
O119 C127 1.284 . S
Zn120 O119 1.899 . S
Zn120 O121 2.032 . S
Zn120 O124 2.086 . S
Zn120 O129 1.977 . S
O121 Zn120 2.032 . S
O121 C125 1.278 . S
C122 O123 1.203 . S
C122 O129 1.267 1_655 S
O123 C122 1.203 . S
O124 C117 1.185 . S
O124 Zn120 2.086 . S
C125 O121 1.278 . S
C125 O126 1.211 . S
O126 C125 1.211 . S
C127 O119 1.284 . S
C127 O128 1.273 . S
O128 C127 1.273 . S
O129 Zn120 1.977 . S
O129 C122 1.267 1_455 S
C130 O131 1.160 . S
C130 O137 1.185 . S
O131 C130 1.160 . S
O132 Zn133 1.899 . S
O132 C140 1.284 . S
Zn133 O132 1.899 . S
Zn133 O134 2.032 . S
Zn133 O137 2.086 . S
Zn133 O142 1.977 . S
O134 Zn133 2.032 . S
O134 C138 1.278 . S
C135 O136 1.203 1_545 S
C135 O142 1.267 . S
O136 C135 1.203 1_565 S
O137 C130 1.185 . S
O137 Zn133 2.086 . S
C138 O134 1.278 . S
C138 O139 1.211 . S
O139 C138 1.211 . S
C140 O132 1.284 . S
C140 O141 1.273 . S
O141 C140 1.273 . S
O142 Zn133 1.977 . S
O142 C135 1.267 . S
C143 O144 1.160 . S
C143 O150 1.185 . S
O144 C143 1.160 . S
O145 Zn146 1.899 . S
O145 C153 1.284 . S
Zn146 O145 1.899 . S
Zn146 O147 2.032 . S
Zn146 O150 2.086 . S
Zn146 O155 1.977 . S
O147 Zn146 2.032 . S
O147 C151 1.278 . S
C148 O149 1.203 . S
C148 O155 1.267 . S
O149 C148 1.203 . S
O150 C143 1.185 . S
O150 Zn146 2.086 . S
C151 O147 1.278 . S
C151 O152 1.211 . S
O152 C151 1.211 . S
C153 O145 1.284 . S
C153 O154 1.273 . S
O154 C153 1.273 . S
O155 Zn146 1.977 . S
O155 C148 1.267 . S
C8 C138 0.556 . S
C151 C21 3.138 . S
C86 C34 0.556 . S
C47 C99 0.556 . S
C60 C112 3.138 . S
C125 C73 0.556 . S
C5 C96 2.389 1_554 S
C109 C18 0.814 . S
C122 C31 2.389 . S
C44 C135 2.389 1_554 S
C148 C57 0.814 . S
C70 C83 2.390 . S
C49 C10 0.785 1_565 S
C62 C23 3.822 . S
C75 C36 1.334 1_455 S
C88 C127 0.784 1_655 S
C101 C140 1.334 1_565 S
C114 C153 3.822 . S
C104 C0 2.602 . S
C117 C13 2.602 . S
C130 C26 2.630 . S
C143 C39 2.602 . S
C78 C52 2.603 . S
C65 C91 2.630 . S
