# Generated by pormake.
# Topology pcu, (6)-cn, num edge types: 1
# Building blocks:
#     Node 0, Type 0, BuildingBlock: CUWYAW_clean_sbu_0, # of connection points: 6
#     Edge 1, Type (0, 0), BuildingBlock: CIFDUS_clean_linker_0, # of connection points: 2
#     Edge 2, Type (0, 0), BuildingBlock: CIFDUS_clean_linker_0, # of connection points: 2
#     Edge 3, Type (0, 0), BuildingBlock: CIFDUS_clean_linker_0, # of connection points: 2
# Relax obj value: 0.000
# Max RMSD: 0.000
# Mean RMSD: 0.000
data_MOF--net-pcu--node1-CUWYAW_clean_sbu_0--edge1-CIFDUS_clean_linker_0
_symmetry_space_group_name_H-M    P1
_symmetry_Int_Tables_number       1
_symmetry_cell_setting            triclinic
loop_
_symmetry_equiv_pos_as_xyz
'x, y, z'
_cell_length_a     23.653196
_cell_length_b     13.622244
_cell_length_c     12.604404
_cell_angle_alpha  93.225234
_cell_angle_beta   97.820068
_cell_angle_gamma 120.22918
loop_
_atom_site_label
_atom_site_type_symbol
_atom_site_fract_x
_atom_site_fract_y
_atom_site_fract_z
_atom_type_partial_charge
C0 C 0.22847 0.12679 0.99659 0.0
Eu1 Eu 0.10459 0.02998 0.02125 0.0
C2 C 0.27845 0.09277 0.9917 0.0
C3 C 0.34617 0.1739 0.02991 0.0
C4 C 0.39448 0.14368 0.02664 0.0
C5 C 0.37607 0.03143 0.98481 0.0
C6 C 0.30792 0.95005 0.94699 0.0
C7 C 0.25959 -0.0197 0.95071 0.0
C8 C 0.06233 0.00181 0.21218 0.0
C9 C 1.01893 0.76055 0.02019 0.0
C10 C 0.8294 0.82591 0.03041 0.0
Eu11 Eu 0.95336 0.92275 1.00623 0.0
C12 C 0.77942 0.85996 0.03517 0.0
C13 C 0.71171 0.77884 0.99691 0.0
C14 C 0.6634 0.80908 1.00013 0.0
C15 C 0.6818 0.92133 0.04195 0.0
C16 C 0.74995 0.0027 0.07979 0.0
C17 C 0.79828 0.97244 0.07613 0.0
C18 C 0.99601 0.95143 0.81546 0.0
C19 C 0.03905 0.19221 1.00756 0.0
O20 O 0.17767 0.08291 0.9157 0.0
O21 O 0.21108 0.12935 0.09035 0.0
O22 O 0.11011 -0.01293 0.19194 0.0
O23 O 0.04132 0.03528 0.13344 0.0
O24 O 0.07398 0.84482 0.9966 0.0
O25 O 0.96935 0.77453 0.0388 0.0
O26 O 0.88011 0.86966 0.11145 0.0
O27 O 0.84692 0.82351 0.93675 0.0
O28 O 0.94826 0.96632 0.83559 0.0
O29 O 1.01656 0.9174 0.89418 0.0
O30 O 0.984 0.10792 0.03115 0.0
O31 O 0.0886 0.17823 0.98886 0.0
H32 H 0.36177 0.26105 0.06211 0.0
H33 H 0.4464 0.20889 0.05531 0.0
H34 H 0.2918 0.86248 0.91559 0.0
H35 H 0.20752 0.91581 0.9217 0.0
H36 H 0.69611 0.69168 0.96474 0.0
H37 H 0.61147 0.74388 0.97143 0.0
H38 H 0.76607 0.09027 0.11119 0.0
H39 H 0.85034 0.03692 0.10518 0.0
H40 H 0.10677 0.93935 0.39015 0.0
H41 H 0.97313 0.0541 0.27196 0.0
H42 H 0.94111 0.04942 0.44881 0.0
H43 H 0.95172 0.01394 0.63755 0.0
H44 H 0.08519 0.8989 0.75578 0.0
H45 H 0.1173 0.90369 0.57894 0.0
C46 C 0.07058 0.96314 0.40325 0.0
C47 C 0.04213 -0.00344 0.31832 0.0
C48 C 0.05276 0.96094 0.50528 0.0
C49 C 0.99538 0.02735 0.33609 0.0
C50 C 0.97723 0.02509 0.43723 0.0
C51 C 0.98789 -0.00989 0.62447 0.0
C52 C 1.01629 0.95664 0.7094 0.0
C53 C 1.0057 -0.00773 0.52246 0.0
C54 C 0.063 0.92575 0.69165 0.0
C55 C 0.08119 0.92806 0.59051 0.0
H56 H 0.48671 0.09273 0.13719 0.0
H57 H 0.38208 0.89935 0.81983 0.0
H58 H 0.46658 0.8481 0.80963 0.0
H59 H 0.57117 0.86003 0.88955 0.0
H60 H 0.67579 0.05341 0.20691 0.0
H61 H 0.59129 0.10466 0.21711 0.0
C62 C 0.4826 0.0401 0.06538 0.0
C63 C 0.42779 -0.0001 0.97953 0.0
C64 C 0.53169 0.01136 0.05969 0.0
C65 C 0.42302 0.93027 0.88786 0.0
C66 C 0.47163 0.90145 0.88162 0.0
C67 C 0.57527 0.91266 0.96136 0.0
C68 C 0.63008 0.95287 0.04721 0.0
C69 C 0.52618 0.9414 0.96705 0.0
C70 C 0.63485 0.02249 0.13888 0.0
C71 C 0.58624 0.05131 0.14512 0.0
H72 H 0.10866 0.70095 0.98082 0.0
H73 H 0.91441 0.56408 0.06573 0.0
H74 H 0.90375 0.37644 0.06867 0.0
H75 H 0.94932 0.25182 0.04704 0.0
H76 H 0.14358 0.38871 0.9621 0.0
H77 H 0.15424 0.57635 0.95921 0.0
C78 C 0.0639 0.6303 1.00009 0.0
C79 C 1.01237 0.64682 0.023 0.0
C80 C 0.05804 0.52272 1.00153 0.0
C81 C 0.95484 0.55398 0.04773 0.0
C82 C 0.94868 0.44658 0.04941 0.0
C83 C 0.99409 0.32247 0.02778 0.0
C84 C 0.04561 0.30595 1.00484 0.0
C85 C 0.99995 0.43006 0.02635 0.0
C86 C 0.10315 0.3988 0.98013 0.0
C87 C 0.10931 0.5062 0.97847 0.0
loop_
_geom_bond_atom_site_label_1
_geom_bond_atom_site_label_2
_geom_bond_distance
_geom_bond_site_symmetry_2
_ccdc_geom_bond_type
C0 Eu1 2.835 . S
C0 C2 1.500 . S
C0 O20 1.257 1_554 S
C0 O21 1.260 . S
Eu1 C0 2.835 . S
Eu1 O20 2.473 1_554 S
Eu1 O21 2.480 . S
Eu1 O22 2.430 . S
Eu1 O23 2.670 1_455 S
Eu1 O24 2.394 1_545 S
Eu1 O29 2.355 1_544 S
Eu1 O31 2.374 . S
C2 C0 1.500 . S
C2 C3 1.377 . S
C2 C7 1.377 1_544 S
C3 C2 1.377 . S
C3 C4 1.395 . S
C3 H32 0.931 . S
C4 C3 1.395 . S
C4 C5 1.388 . S
C4 H33 0.931 . S
C5 C4 1.388 . S
C5 C6 1.396 1_544 S
C6 C5 1.396 1_566 S
C6 C7 1.378 . S
C6 H34 0.931 . S
C7 C2 1.377 1_566 S
C7 C6 1.378 . S
C7 H35 0.931 . S
C8 O22 1.259 . S
C8 O23 1.270 1_455 S
C9 O24 1.251 1_655 S
C9 O25 1.251 1_554 S
C10 Eu11 2.835 . S
C10 C12 1.500 . S
C10 O26 1.257 1_556 S
C10 O27 1.260 . S
Eu11 C10 2.835 . S
Eu11 O23 2.355 1_566 S
Eu11 O25 2.374 . S
Eu11 O26 2.473 1_556 S
Eu11 O27 2.480 . S
Eu11 O28 2.430 . S
Eu11 O29 2.670 1_655 S
Eu11 O30 2.394 1_565 S
C12 C10 1.500 . S
C12 C13 1.377 . S
C12 C17 1.377 1_566 S
C13 C12 1.377 . S
C13 C14 1.395 . S
C13 H36 0.931 . S
C14 C13 1.395 . S
C14 C15 1.387 . S
C14 H37 0.931 . S
C15 C14 1.387 . S
C15 C16 1.396 1_566 S
C16 C15 1.396 1_544 S
C16 C17 1.378 . S
C16 H38 0.931 . S
C17 C12 1.377 1_544 S
C17 C16 1.378 . S
C17 H39 0.931 . S
C18 O28 1.259 . S
C18 O29 1.270 1_655 S
C19 O30 1.251 1_455 S
C19 O31 1.251 1_556 S
O20 C0 1.257 1_556 S
O20 Eu1 2.473 1_556 S
O21 C0 1.260 . S
O21 Eu1 2.480 . S
O22 Eu1 2.430 . S
O22 C8 1.259 . S
O23 Eu1 2.670 1_655 S
O23 C8 1.270 1_655 S
O23 Eu11 2.355 1_544 S
O24 Eu1 2.394 1_565 S
O24 C9 1.251 1_455 S
O25 C9 1.251 1_556 S
O25 Eu11 2.374 . S
O26 C10 1.257 1_554 S
O26 Eu11 2.473 1_554 S
O27 C10 1.260 . S
O27 Eu11 2.480 . S
O28 Eu11 2.430 . S
O28 C18 1.259 . S
O29 Eu1 2.355 1_566 S
O29 Eu11 2.670 1_455 S
O29 C18 1.270 1_455 S
O30 Eu11 2.394 1_545 S
O30 C19 1.251 1_655 S
O31 Eu1 2.374 . S
O31 C19 1.251 1_554 S
H32 C3 0.931 . S
H33 C4 0.931 . S
H34 C6 0.931 . S
H35 C7 0.931 . S
H36 C13 0.931 . S
H37 C14 0.931 . S
H38 C16 0.931 . S
H39 C17 0.931 . S
H40 C46 0.930 . S
H41 C49 0.930 . S
H42 C50 0.930 . S
H43 C51 0.930 . S
H44 C54 0.930 . S
H45 C55 0.930 . S
C46 H40 0.930 . S
C46 C47 1.355 1_465 S
C46 C48 1.415 . S
C47 C46 1.355 1_645 S
C47 C49 1.419 . S
C48 C46 1.415 . S
C48 C53 1.425 1_465 S
C48 C55 1.409 . S
C49 H41 0.930 . S
C49 C47 1.419 . S
C49 C50 1.362 . S
C50 H42 0.930 . S
C50 C49 1.362 . S
C50 C53 1.409 . S
C51 H43 0.930 . S
C51 C52 1.355 1_645 S
C51 C53 1.415 . S
C52 C51 1.355 1_465 S
C52 C54 1.419 . S
C53 C48 1.425 1_645 S
C53 C50 1.409 . S
C53 C51 1.415 . S
C54 H44 0.930 . S
C54 C52 1.419 . S
C54 C55 1.362 . S
C55 H45 0.930 . S
C55 C48 1.409 . S
C55 C54 1.362 . S
H56 C62 0.930 . S
H57 C65 0.930 . S
H58 C66 0.930 . S
H59 C67 0.930 . S
H60 C70 0.930 . S
H61 C71 0.930 . S
C62 H56 0.930 . S
C62 C63 1.355 1_564 S
C62 C64 1.415 . S
C63 C62 1.355 1_546 S
C63 C65 1.419 . S
C64 C62 1.415 . S
C64 C69 1.425 1_564 S
C64 C71 1.409 . S
C65 H57 0.930 . S
C65 C63 1.419 . S
C65 C66 1.362 . S
C66 H58 0.930 . S
C66 C65 1.362 . S
C66 C69 1.409 . S
C67 H59 0.930 . S
C67 C68 1.355 1_546 S
C67 C69 1.415 . S
C68 C67 1.355 1_564 S
C68 C70 1.419 . S
C69 C64 1.425 1_546 S
C69 C66 1.409 . S
C69 C67 1.415 . S
C70 H60 0.930 . S
C70 C68 1.419 . S
C70 C71 1.362 . S
C71 H61 0.930 . S
C71 C64 1.409 . S
C71 C70 1.362 . S
H72 C78 0.930 . S
H73 C81 0.930 . S
H74 C82 0.930 . S
H75 C83 0.930 . S
H76 C86 0.930 . S
H77 C87 0.930 . S
C78 H72 0.930 . S
C78 C79 1.355 1_656 S
C78 C80 1.415 . S
C79 C78 1.355 1_454 S
C79 C81 1.419 . S
C80 C78 1.415 . S
C80 C85 1.425 1_656 S
C80 C87 1.409 . S
C81 H73 0.930 . S
C81 C79 1.419 . S
C81 C82 1.362 . S
C82 H74 0.930 . S
C82 C81 1.362 . S
C82 C85 1.409 . S
C83 H75 0.930 . S
C83 C84 1.355 1_454 S
C83 C85 1.415 . S
C84 C83 1.355 1_656 S
C84 C86 1.419 . S
C85 C80 1.425 1_454 S
C85 C82 1.409 . S
C85 C83 1.415 . S
C86 H76 0.930 . S
C86 C84 1.419 . S
C86 C87 1.362 . S
C87 H77 0.930 . S
C87 C80 1.409 . S
C87 C86 1.362 . S
C47 C8 1.466 1_655 S
C52 C18 1.466 1_455 S
C63 C5 1.488 1_556 S
C68 C15 1.489 1_554 S
C79 C9 1.474 1_455 S
C84 C19 1.474 1_655 S
