# Generated by pormake.
# Topology ecf, (8)-cn, num edge types: 1
# Building blocks:
#     Node 0, Type 0, BuildingBlock: TAGTUT_clean_sbu_1, # of connection points: 8
#     Node 1, Type 0, BuildingBlock: TAGTUT_clean_sbu_1, # of connection points: 8
#     Node 2, Type 0, BuildingBlock: TAGTUT_clean_sbu_1, # of connection points: 8
#     Node 3, Type 0, BuildingBlock: TAGTUT_clean_sbu_1, # of connection points: 8
#     Node 4, Type 0, BuildingBlock: TAGTUT_clean_sbu_1, # of connection points: 8
#     Node 5, Type 0, BuildingBlock: TAGTUT_clean_sbu_1, # of connection points: 8
#     Edge 6, Type (0, 0), None
#     Edge 7, Type (0, 0), None
#     Edge 8, Type (0, 0), None
#     Edge 9, Type (0, 0), None
#     Edge 10, Type (0, 0), None
#     Edge 11, Type (0, 0), None
#     Edge 12, Type (0, 0), None
#     Edge 13, Type (0, 0), None
#     Edge 14, Type (0, 0), None
#     Edge 15, Type (0, 0), None
#     Edge 16, Type (0, 0), None
#     Edge 17, Type (0, 0), None
#     Edge 18, Type (0, 0), None
#     Edge 19, Type (0, 0), None
#     Edge 20, Type (0, 0), None
#     Edge 21, Type (0, 0), None
#     Edge 22, Type (0, 0), None
#     Edge 23, Type (0, 0), None
#     Edge 24, Type (0, 0), None
#     Edge 25, Type (0, 0), None
#     Edge 26, Type (0, 0), None
#     Edge 27, Type (0, 0), None
#     Edge 28, Type (0, 0), None
#     Edge 29, Type (0, 0), None
# Relax obj value: 0.226
# Max RMSD: 0.217
# Mean RMSD: 0.191
data_MOF--net-ecf--node1-TAGTUT_clean_sbu_1--edge1-none
_symmetry_space_group_name_H-M    P1
_symmetry_Int_Tables_number       1
_symmetry_cell_setting            triclinic
loop_
_symmetry_equiv_pos_as_xyz
'x, y, z'
_cell_length_a     18.969823
_cell_length_b     19.303596
_cell_length_c     13.815355
_cell_angle_alpha  103.72025
_cell_angle_beta   85.466029
_cell_angle_gamma 120.59239
loop_
_atom_site_label
_atom_site_type_symbol
_atom_site_fract_x
_atom_site_fract_y
_atom_site_fract_z
_atom_type_partial_charge
C0 C 0.82432 0.04283 0.20738 0.0
C1 C 0.93582 0.25892 0.03802 0.0
C2 C 0.22045 0.24507 0.07348 0.0
Mg3 Mg 0.91978 0.23161 0.24837 0.0
O4 O 0.00155 0.20123 0.22985 0.0
Mg5 Mg 0.01024 0.14738 0.09404 0.0
Mg6 Mg 0.11387 0.28846 0.26392 0.0
O7 O 0.22544 0.37953 0.2986 0.0
Mg8 Mg 0.31736 0.36526 0.28051 0.0
Mg9 Mg 0.2099 0.43499 0.43376 0.0
C10 C 0.00453 0.31792 0.4534 0.0
C11 C 0.10746 0.456 0.28281 0.0
O12 O 0.87536 0.04358 0.13819 0.0
O13 O 0.8271 0.10922 0.257 0.0
O14 O -0.03305 0.2128 0.02047 0.0
O15 O 0.90964 0.27471 0.12308 0.0
O16 O -0.03354 0.32293 0.38576 0.0
O17 O 0.07266 0.31651 0.4349 0.0
C18 C 0.10858 0.11736 0.22875 0.0
O19 O 0.14244 0.18976 0.28728 0.0
O20 O 0.05638 0.09405 0.15991 0.0
O21 O 0.33698 0.54836 0.40343 0.0
O22 O 0.39884 0.49608 0.28797 0.0
O23 O 0.26501 0.38029 0.51273 0.0
C24 C 0.39275 0.55733 0.33953 0.0
O25 O 0.31625 0.31379 0.40421 0.0
O26 O 0.28437 0.28114 0.13245 0.0
C27 C 0.29526 0.33306 0.49191 0.0
O28 O 0.15582 0.25326 0.09886 0.0
O29 O 0.08229 0.38333 0.22835 0.0
O30 O 0.15381 0.48313 0.36009 0.0
C31 C 0.81494 0.40941 0.69711 0.0
C32 C -0.04617 0.29401 0.5423 0.0
C33 C 0.65917 -0.00416 0.57827 0.0
Mg34 Mg 0.91336 0.33508 0.76055 0.0
O35 O 0.80354 0.24225 0.74124 0.0
Mg36 Mg 0.74522 0.20374 0.61011 0.0
Mg37 Mg 0.78077 0.13335 0.75865 0.0
O38 O 0.76272 0.02637 0.78201 0.0
Mg39 Mg 0.65713 0.93739 0.77869 0.0
Mg40 Mg 0.82698 0.0692 0.91058 0.0
C41 C 0.90143 0.26325 0.95152 0.0
C42 C -0.05056 0.13203 0.72509 0.0
O43 O 0.7653 0.33814 0.64174 0.0
O44 O 0.87472 0.42141 0.7497 0.0
O45 O 0.87464 0.253 0.52811 0.0
O46 O -0.0133 0.32737 0.63062 0.0
O47 O -0.05816 0.32387 0.90809 0.0
O48 O 0.83967 0.19482 0.91004 0.0
C49 C 0.60632 0.12762 0.77822 0.0
O50 O 0.65371 0.11063 0.81595 0.0
O51 O 0.62628 0.15976 0.70152 0.0
O52 O 0.8074 0.94016 0.89527 0.0
O53 O 0.69038 0.85225 0.80215 0.0
O54 O 0.7116 0.02302 1.00707 0.0
C55 C 0.75113 0.86676 0.85456 0.0
O56 O 0.59626 0.9499 0.90982 0.0
O57 O 0.62871 0.94329 0.63385 0.0
C58 C 0.6333 -0.02206 0.99511 0.0
O59 O 0.722 0.06927 0.60497 0.0
O60 O 0.90324 0.1538 0.69571 0.0
O61 O 0.93531 0.10375 0.80423 0.0
C62 C 0.35185 0.82872 0.19381 0.0
C63 C 0.58821 0.93737 0.07503 0.0
C64 C 0.57151 0.64894 0.11348 0.0
Mg65 Mg 0.53194 0.93139 0.28311 0.0
O66 O 0.51253 0.82264 0.26823 0.0
Mg67 Mg 0.47253 0.74533 0.13496 0.0
Mg68 Mg 0.60533 0.80571 0.28642 0.0
O69 O 0.69508 0.7866 0.31021 0.0
Mg70 Mg 0.66244 0.67721 0.31271 0.0
Mg71 Mg 0.74964 0.86958 0.43478 0.0
C72 C 0.63377 0.95876 0.47467 0.0
C73 C 0.77452 -0.03153 0.25037 0.0
O74 O 0.36559 0.77079 0.14901 0.0
O75 O 0.40638 0.8953 0.25146 0.0
O76 O 0.54509 0.85768 0.055 0.0
O77 O 0.60085 -0.01911 0.16351 0.0
O78 O 0.59625 -0.01663 0.4305 0.0
O79 O 0.6362 0.89205 0.43856 0.0
C80 C 0.43912 0.6361 0.3061 0.0
O81 O 0.51085 0.69077 0.34516 0.0
O82 O 0.41103 0.64234 0.22834 0.0
O83 O 0.84888 0.83357 0.39252 0.0
O84 O 0.7844 0.70207 0.3 0.0
O85 O 0.70076 0.76913 0.54293 0.0
C86 C 0.84912 0.76905 0.3396 0.0
O87 O 0.62902 0.64026 0.45182 0.0
O88 O 0.58208 0.61802 0.18007 0.0
C89 C 0.66102 0.68988 0.53549 0.0
O90 O 0.58091 0.72168 0.13302 0.0
O91 O 0.6994 0.91801 0.22121 0.0
O92 O 0.80441 -0.03637 0.32752 0.0
C93 C 0.04435 0.85818 0.70009 0.0
C94 C 0.9107 0.60954 0.53327 0.0
C95 C 0.65741 0.65221 0.62133 0.0
Mg96 Mg -0.03644 0.69625 0.75431 0.0
O97 O 0.87992 0.72162 0.76499 0.0
Mg98 Mg 0.8472 0.73659 0.63917 0.0
Mg99 Mg 0.77282 0.63502 0.78512 0.0
O100 O 0.66385 0.54691 0.79723 0.0
Mg101 Mg 0.56696 0.55486 0.78704 0.0
Mg102 Mg 0.689 0.51704 0.91298 0.0
C103 C 0.9019 0.64279 0.95741 0.0
C104 C 0.78226 0.4643 0.73679 0.0
O105 O -0.02334 0.8318 0.65409 0.0
O106 O 0.05727 0.81736 0.74946 0.0
O107 O 0.87345 0.6483 0.53356 0.0
O108 O -0.0547 0.6142 0.61202 0.0
O109 O -0.04353 0.66221 0.8926 0.0
O110 O 0.82935 0.63359 0.94078 0.0
C111 C 0.77704 0.80752 0.8233 0.0
O112 O 0.74754 0.74156 0.85666 0.0
O113 O 0.81811 0.81824 0.74566 0.0
O114 O 0.5586 0.40897 0.86194 0.0
O115 O 0.48005 0.42419 0.76376 0.0
O116 O 0.63281 0.58466 1.01024 0.0
C117 C 0.49293 0.38019 0.80803 0.0
O118 O 0.55505 0.61565 0.93583 0.0
O119 O 0.59035 0.62068 0.66645 0.0
C120 C 0.58645 0.61508 1.01378 0.0
O121 O 0.71695 0.64185 0.64027 0.0
O122 O 0.80263 0.52988 0.7067 0.0
O123 O 0.74002 0.44809 0.81266 0.0
C124 C 0.12904 0.05552 0.22714 0.0
C125 C 0.23077 0.92105 0.02711 0.0
C126 C 0.93758 0.6501 0.05706 0.0
Mg127 Mg 0.21495 -0.02701 0.24921 0.0
O128 O 0.10509 0.88712 0.24264 0.0
Mg129 Mg 0.04157 0.85069 0.11596 0.0
Mg130 Mg 0.0888 0.78194 0.24779 0.0
O131 O 0.07457 0.67493 0.24786 0.0
Mg132 Mg -0.02899 0.57189 0.21738 0.0
Mg133 Mg 0.14157 0.71438 0.3755 0.0
C134 C 0.22162 0.92628 0.44127 0.0
C135 C 0.26837 0.80029 0.22249 0.0
O136 O 0.08012 -0.01552 0.17157 0.0
O137 O 0.19483 0.07243 0.2688 0.0
O138 O 0.15286 0.88532 0.01607 0.0
O139 O 0.26767 0.95333 0.11281 0.0
O140 O 0.25801 -0.02518 0.38315 0.0
O141 O 0.15855 0.85102 0.41106 0.0
C142 C 0.92329 0.78295 0.29097 0.0
O143 O -0.03259 0.75683 0.31595 0.0
O144 O -0.0612 0.81812 0.21837 0.0
O145 O 0.12276 0.58559 0.32369 0.0
O146 O 0.02127 0.49031 0.20916 0.0
O147 O 0.02845 0.65724 0.45423 0.0
C148 C 0.08314 0.51314 0.26646 0.0
O149 O 0.9133 0.56924 0.35866 0.0
O150 O 0.91156 0.58483 0.09118 0.0
C151 C -0.04769 0.60452 0.44358 0.0
O152 O 0.00828 0.71563 0.09109 0.0
O153 O 0.21762 0.81291 0.18405 0.0
O154 O 0.25082 0.7646 0.29388 0.0
C155 C 0.03002 0.15672 0.68313 0.0
C156 C 0.27822 0.28075 0.56189 0.0
C157 C 0.24831 -0.03024 0.54749 0.0
Mg158 Mg 0.20555 0.24399 0.75784 0.0
O159 O 0.1798 0.13314 0.72251 0.0
Mg160 Mg 0.15516 0.07945 0.57953 0.0
Mg161 Mg 0.26573 0.11355 0.75229 0.0
O162 O 0.3527 0.09425 0.77968 0.0
Mg163 Mg 0.33648 -0.01506 0.74385 0.0
Mg164 Mg 0.38286 0.15536 0.92203 0.0
C165 C 0.23621 0.223 0.96594 0.0
C166 C 0.43104 0.29489 0.80736 0.0
O167 O 0.04207 0.10286 0.61984 0.0
O168 O 0.08789 0.22199 0.73614 0.0
O169 O 0.23432 0.20261 0.52777 0.0
O170 O 0.28369 0.31325 0.65475 0.0
O171 O 0.22492 0.26296 0.91322 0.0
O172 O 0.25883 0.16832 0.92714 0.0
C173 C 0.10473 0.94044 0.69637 0.0
O174 O 0.16679 -0.01612 0.75818 0.0
O175 O 0.08918 -0.03254 0.63034 0.0
O176 O 0.50321 0.14312 0.8794 0.0
O177 O 0.46591 0.03126 0.75155 0.0
O178 O 0.31719 0.03812 0.97349 0.0
C179 C 0.52088 0.09658 0.81 0.0
O180 O 0.26923 0.92032 0.85842 0.0
O181 O 0.27287 0.93727 0.59751 0.0
C182 C 0.27838 -0.04019 0.94874 0.0
O183 O 0.26026 0.04513 0.58101 0.0
O184 O 0.36897 0.24934 0.7449 0.0
O185 O 0.44423 0.2685 0.87507 0.0
loop_
_geom_bond_atom_site_label_1
_geom_bond_atom_site_label_2
_geom_bond_distance
_geom_bond_site_symmetry_2
_ccdc_geom_bond_type
C0 O12 1.241 . S
C0 O13 1.280 . S
C1 O14 1.277 . S
C1 O15 1.245 1_556 S
C2 O26 1.247 . S
C2 O28 1.289 . S
Mg3 O4 1.926 1_655 S
Mg3 O13 1.984 . S
Mg3 O15 1.988 . S
Mg3 O16 2.061 . S
O4 Mg3 1.926 1_455 S
O4 Mg5 1.986 . S
O4 Mg6 1.917 . S
Mg5 O4 1.986 . S
Mg5 O12 2.042 1_455 S
Mg5 O14 2.041 1_454 S
Mg5 O20 2.038 . S
Mg5 O28 2.238 . S
Mg6 O4 1.917 . S
Mg6 O7 1.917 . S
Mg6 O17 2.106 . S
Mg6 O19 2.079 . S
Mg6 O28 2.106 . S
Mg6 O29 2.079 . S
O7 Mg6 1.917 . S
O7 Mg8 1.926 . S
O7 Mg9 1.986 . S
Mg8 O7 1.926 . S
Mg8 O22 1.984 . S
Mg8 O25 1.988 . S
Mg8 O26 2.061 . S
Mg9 O7 1.986 . S
Mg9 O17 2.238 . S
Mg9 O21 2.042 . S
Mg9 O23 2.041 . S
Mg9 O30 2.038 . S
C10 O16 1.247 1_455 S
C10 O17 1.289 . S
C11 O29 1.245 . S
C11 O30 1.274 . S
O12 C0 1.241 . S
O12 Mg5 2.042 1_655 S
O13 C0 1.280 . S
O13 Mg3 1.984 . S
O14 C1 1.277 . S
O14 Mg5 2.041 1_656 S
O15 C1 1.245 1_554 S
O15 Mg3 1.988 . S
O16 Mg3 2.061 . S
O16 C10 1.247 1_655 S
O17 Mg6 2.106 . S
O17 Mg9 2.238 . S
O17 C10 1.289 . S
C18 O19 1.245 . S
C18 O20 1.274 . S
O19 Mg6 2.079 . S
O19 C18 1.245 . S
O20 Mg5 2.038 . S
O20 C18 1.274 . S
O21 Mg9 2.042 . S
O21 C24 1.241 . S
O22 Mg8 1.984 . S
O22 C24 1.280 . S
O23 Mg9 2.041 . S
O23 C27 1.277 . S
C24 O21 1.241 . S
C24 O22 1.280 . S
O25 Mg8 1.988 . S
O25 C27 1.245 . S
O26 C2 1.247 . S
O26 Mg8 2.061 . S
C27 O23 1.277 . S
C27 O25 1.245 . S
O28 C2 1.289 . S
O28 Mg5 2.238 . S
O28 Mg6 2.106 . S
O29 Mg6 2.079 . S
O29 C11 1.245 . S
O30 Mg9 2.038 . S
O30 C11 1.274 . S
C31 O43 1.241 . S
C31 O44 1.280 . S
C32 O45 1.277 . S
C32 O46 1.245 1_655 S
C33 O57 1.247 1_545 S
C33 O59 1.289 . S
Mg34 O35 1.926 . S
Mg34 O44 1.984 . S
Mg34 O46 1.988 1_655 S
Mg34 O47 2.061 . S
O35 Mg34 1.926 . S
O35 Mg36 1.986 . S
O35 Mg37 1.917 . S
Mg36 O35 1.986 . S
Mg36 O43 2.042 . S
Mg36 O45 2.041 . S
Mg36 O51 2.038 . S
Mg36 O59 2.238 . S
Mg37 O35 1.917 . S
Mg37 O38 1.917 . S
Mg37 O48 2.106 . S
Mg37 O50 2.079 . S
Mg37 O59 2.106 . S
Mg37 O60 2.079 . S
O38 Mg37 1.917 . S
O38 Mg39 1.926 1_545 S
O38 Mg40 1.986 . S
Mg39 O38 1.926 1_565 S
Mg39 O53 1.984 . S
Mg39 O56 1.988 . S
Mg39 O57 2.061 . S
Mg40 O38 1.986 . S
Mg40 O48 2.238 . S
Mg40 O52 2.042 1_545 S
Mg40 O54 2.041 . S
Mg40 O61 2.038 . S
C41 O47 1.247 . S
C41 O48 1.289 . S
C42 O60 1.245 . S
C42 O61 1.274 . S
O43 C31 1.241 . S
O43 Mg36 2.042 . S
O44 C31 1.280 . S
O44 Mg34 1.984 . S
O45 C32 1.277 . S
O45 Mg36 2.041 . S
O46 C32 1.245 1_455 S
O46 Mg34 1.988 1_455 S
O47 Mg34 2.061 . S
O47 C41 1.247 . S
O48 Mg37 2.106 . S
O48 Mg40 2.238 . S
O48 C41 1.289 . S
C49 O50 1.245 . S
C49 O51 1.274 . S
O50 Mg37 2.079 . S
O50 C49 1.245 . S
O51 Mg36 2.038 . S
O51 C49 1.274 . S
O52 Mg40 2.042 1_565 S
O52 C55 1.241 . S
O53 Mg39 1.984 . S
O53 C55 1.280 . S
O54 Mg40 2.041 . S
O54 C58 1.277 1_545 S
C55 O52 1.241 . S
C55 O53 1.280 . S
O56 Mg39 1.988 . S
O56 C58 1.245 . S
O57 C33 1.247 1_565 S
O57 Mg39 2.061 . S
C58 O54 1.277 1_565 S
C58 O56 1.245 . S
O59 C33 1.289 . S
O59 Mg36 2.238 . S
O59 Mg37 2.106 . S
O60 Mg37 2.079 . S
O60 C42 1.245 . S
O61 Mg40 2.038 . S
O61 C42 1.274 . S
C62 O74 1.241 . S
C62 O75 1.280 . S
C63 O76 1.277 . S
C63 O77 1.245 1_565 S
C64 O88 1.247 . S
C64 O90 1.289 . S
Mg65 O66 1.926 . S
Mg65 O75 1.984 . S
Mg65 O77 1.988 1_565 S
Mg65 O78 2.061 . S
O66 Mg65 1.926 . S
O66 Mg67 1.986 . S
O66 Mg68 1.917 . S
Mg67 O66 1.986 . S
Mg67 O74 2.042 . S
Mg67 O76 2.041 . S
Mg67 O82 2.038 . S
Mg67 O90 2.238 . S
Mg68 O66 1.917 . S
Mg68 O69 1.917 . S
Mg68 O79 2.106 . S
Mg68 O81 2.079 . S
Mg68 O90 2.106 . S
Mg68 O91 2.079 . S
O69 Mg68 1.917 . S
O69 Mg70 1.926 . S
O69 Mg71 1.986 . S
Mg70 O69 1.926 . S
Mg70 O84 1.984 . S
Mg70 O87 1.988 . S
Mg70 O88 2.061 . S
Mg71 O69 1.986 . S
Mg71 O79 2.238 . S
Mg71 O83 2.042 . S
Mg71 O85 2.041 . S
Mg71 O92 2.038 . S
C72 O78 1.247 . S
C72 O79 1.289 . S
C73 O91 1.245 . S
C73 O92 1.274 . S
O74 C62 1.241 . S
O74 Mg67 2.042 . S
O75 C62 1.280 . S
O75 Mg65 1.984 . S
O76 C63 1.277 . S
O76 Mg67 2.041 . S
O77 C63 1.245 1_545 S
O77 Mg65 1.988 1_545 S
O78 Mg65 2.061 . S
O78 C72 1.247 . S
O79 Mg68 2.106 . S
O79 Mg71 2.238 . S
O79 C72 1.289 . S
C80 O81 1.245 . S
C80 O82 1.274 . S
O81 Mg68 2.079 . S
O81 C80 1.245 . S
O82 Mg67 2.038 . S
O82 C80 1.274 . S
O83 Mg71 2.042 . S
O83 C86 1.241 . S
O84 Mg70 1.984 . S
O84 C86 1.280 . S
O85 Mg71 2.041 . S
O85 C89 1.277 . S
C86 O83 1.241 . S
C86 O84 1.280 . S
O87 Mg70 1.988 . S
O87 C89 1.245 . S
O88 C64 1.247 . S
O88 Mg70 2.061 . S
C89 O85 1.277 . S
C89 O87 1.245 . S
O90 C64 1.289 . S
O90 Mg67 2.238 . S
O90 Mg68 2.106 . S
O91 Mg68 2.079 . S
O91 C73 1.245 . S
O92 Mg71 2.038 . S
O92 C73 1.274 . S
C93 O105 1.241 . S
C93 O106 1.280 . S
C94 O107 1.277 1_455 S
C94 O108 1.245 . S
C95 O119 1.247 . S
C95 O121 1.289 . S
Mg96 O97 1.926 1_455 S
Mg96 O106 1.984 . S
Mg96 O108 1.988 . S
Mg96 O109 2.061 . S
O97 Mg96 1.926 1_655 S
O97 Mg98 1.986 . S
O97 Mg99 1.917 . S
Mg98 O97 1.986 . S
Mg98 O105 2.042 1_655 S
Mg98 O107 2.041 . S
Mg98 O113 2.038 . S
Mg98 O121 2.238 . S
Mg99 O97 1.917 . S
Mg99 O100 1.917 . S
Mg99 O110 2.106 . S
Mg99 O112 2.079 . S
Mg99 O121 2.106 . S
Mg99 O122 2.079 . S
O100 Mg99 1.917 . S
O100 Mg101 1.926 . S
O100 Mg102 1.986 . S
Mg101 O100 1.926 . S
Mg101 O115 1.984 . S
Mg101 O118 1.988 . S
Mg101 O119 2.061 . S
Mg102 O100 1.986 . S
Mg102 O110 2.238 . S
Mg102 O114 2.042 . S
Mg102 O116 2.041 . S
Mg102 O123 2.038 . S
C103 O109 1.247 1_655 S
C103 O110 1.289 . S
C104 O122 1.245 . S
C104 O123 1.274 . S
O105 C93 1.241 . S
O105 Mg98 2.042 1_455 S
O106 C93 1.280 . S
O106 Mg96 1.984 . S
O107 C94 1.277 1_655 S
O107 Mg98 2.041 . S
O108 C94 1.245 . S
O108 Mg96 1.988 . S
O109 Mg96 2.061 . S
O109 C103 1.247 1_455 S
O110 Mg99 2.106 . S
O110 Mg102 2.238 . S
O110 C103 1.289 . S
C111 O112 1.245 . S
C111 O113 1.274 . S
O112 Mg99 2.079 . S
O112 C111 1.245 . S
O113 Mg98 2.038 . S
O113 C111 1.274 . S
O114 Mg102 2.042 . S
O114 C117 1.241 . S
O115 Mg101 1.984 . S
O115 C117 1.280 . S
O116 Mg102 2.041 . S
O116 C120 1.277 . S
C117 O114 1.241 . S
C117 O115 1.280 . S
O118 Mg101 1.988 . S
O118 C120 1.245 . S
O119 C95 1.247 . S
O119 Mg101 2.061 . S
C120 O116 1.277 . S
C120 O118 1.245 . S
O121 C95 1.289 . S
O121 Mg98 2.238 . S
O121 Mg99 2.106 . S
O122 Mg99 2.079 . S
O122 C104 1.245 . S
O123 Mg102 2.038 . S
O123 C104 1.274 . S
C124 O136 1.241 . S
C124 O137 1.280 . S
C125 O138 1.277 1_545 S
C125 O139 1.245 . S
C126 O150 1.247 . S
C126 O152 1.289 . S
Mg127 O128 1.926 1_545 S
Mg127 O137 1.984 . S
Mg127 O139 1.988 . S
Mg127 O140 2.061 . S
O128 Mg127 1.926 1_565 S
O128 Mg129 1.986 . S
O128 Mg130 1.917 . S
Mg129 O128 1.986 . S
Mg129 O136 2.042 1_565 S
Mg129 O138 2.041 . S
Mg129 O144 2.038 . S
Mg129 O152 2.238 . S
Mg130 O128 1.917 . S
Mg130 O131 1.917 . S
Mg130 O141 2.106 . S
Mg130 O143 2.079 . S
Mg130 O152 2.106 . S
Mg130 O153 2.079 . S
O131 Mg130 1.917 . S
O131 Mg132 1.926 . S
O131 Mg133 1.986 . S
Mg132 O131 1.926 . S
Mg132 O146 1.984 . S
Mg132 O149 1.988 1_455 S
Mg132 O150 2.061 . S
Mg133 O131 1.986 . S
Mg133 O141 2.238 . S
Mg133 O145 2.042 . S
Mg133 O147 2.041 . S
Mg133 O154 2.038 . S
C134 O140 1.247 1_565 S
C134 O141 1.289 . S
C135 O153 1.245 . S
C135 O154 1.274 . S
O136 C124 1.241 . S
O136 Mg129 2.042 1_545 S
O137 C124 1.280 . S
O137 Mg127 1.984 . S
O138 C125 1.277 1_565 S
O138 Mg129 2.041 . S
O139 C125 1.245 . S
O139 Mg127 1.988 . S
O140 Mg127 2.061 . S
O140 C134 1.247 1_545 S
O141 Mg130 2.106 . S
O141 Mg133 2.238 . S
O141 C134 1.289 . S
C142 O143 1.245 . S
C142 O144 1.274 . S
O143 Mg130 2.079 . S
O143 C142 1.245 . S
O144 Mg129 2.038 . S
O144 C142 1.274 . S
O145 Mg133 2.042 . S
O145 C148 1.241 . S
O146 Mg132 1.984 . S
O146 C148 1.280 . S
O147 Mg133 2.041 . S
O147 C151 1.277 . S
C148 O145 1.241 . S
C148 O146 1.280 . S
O149 Mg132 1.988 1_655 S
O149 C151 1.245 1_655 S
O150 C126 1.247 . S
O150 Mg132 2.061 . S
C151 O147 1.277 . S
C151 O149 1.245 1_455 S
O152 C126 1.289 . S
O152 Mg129 2.238 . S
O152 Mg130 2.106 . S
O153 Mg130 2.079 . S
O153 C135 1.245 . S
O154 Mg133 2.038 . S
O154 C135 1.274 . S
C155 O167 1.241 . S
C155 O168 1.280 . S
C156 O169 1.277 . S
C156 O170 1.245 . S
C157 O181 1.247 . S
C157 O183 1.289 . S
Mg158 O159 1.926 . S
Mg158 O168 1.984 . S
Mg158 O170 1.988 . S
Mg158 O171 2.061 . S
O159 Mg158 1.926 . S
O159 Mg160 1.986 . S
O159 Mg161 1.917 . S
Mg160 O159 1.986 . S
Mg160 O167 2.042 . S
Mg160 O169 2.041 . S
Mg160 O175 2.038 . S
Mg160 O183 2.238 . S
Mg161 O159 1.917 . S
Mg161 O162 1.917 . S
Mg161 O172 2.106 . S
Mg161 O174 2.079 . S
Mg161 O183 2.106 . S
Mg161 O184 2.079 . S
O162 Mg161 1.917 . S
O162 Mg163 1.926 . S
O162 Mg164 1.986 . S
Mg163 O162 1.926 . S
Mg163 O177 1.984 . S
Mg163 O180 1.987 1_545 S
Mg163 O181 2.061 . S
Mg164 O162 1.986 . S
Mg164 O172 2.238 . S
Mg164 O176 2.042 . S
Mg164 O178 2.041 . S
Mg164 O185 2.038 . S
C165 O171 1.247 . S
C165 O172 1.289 . S
C166 O184 1.245 . S
C166 O185 1.274 . S
O167 C155 1.241 . S
O167 Mg160 2.042 . S
O168 C155 1.280 . S
O168 Mg158 1.984 . S
O169 C156 1.277 . S
O169 Mg160 2.041 . S
O170 C156 1.245 . S
O170 Mg158 1.988 . S
O171 Mg158 2.061 . S
O171 C165 1.247 . S
O172 Mg161 2.106 . S
O172 Mg164 2.238 . S
O172 C165 1.289 . S
C173 O174 1.245 . S
C173 O175 1.274 . S
O174 Mg161 2.079 . S
O174 C173 1.245 . S
O175 Mg160 2.038 . S
O175 C173 1.274 . S
O176 Mg164 2.042 . S
O176 C179 1.241 . S
O177 Mg163 1.984 . S
O177 C179 1.280 . S
O178 Mg164 2.041 . S
O178 C182 1.277 . S
C179 O176 1.241 . S
C179 O177 1.280 . S
O180 Mg163 1.987 1_565 S
O180 C182 1.243 1_565 S
O181 C157 1.247 . S
O181 Mg163 2.061 . S
C182 O178 1.277 . S
C182 O180 1.243 1_545 S
O183 C157 1.289 . S
O183 Mg160 2.238 . S
O183 Mg161 2.106 . S
O184 Mg161 2.079 . S
O184 C166 1.245 . S
O185 Mg164 2.038 . S
O185 C166 1.274 . S
C11 C148 1.495 . S
C179 C49 1.734 . S
C24 C80 1.660 . S
C31 C104 1.426 . S
C135 C62 1.418 . S
C166 C117 1.388 . S
C18 C124 1.288 . S
C42 C155 1.272 1_655 S
C0 C73 2.247 1_545 S
C55 C111 1.182 . S
C86 C142 1.555 1_655 S
C173 C93 1.193 1_545 S
C2 C165 2.407 1_554 S
C32 C10 2.215 1_655 S
C63 C58 1.944 1_554 S
C95 C89 1.962 . S
C103 C126 2.362 1_656 S
C157 C134 2.142 1_545 S
C120 C64 1.476 1_556 S
C151 C94 1.266 . S
C182 C125 1.533 1_556 S
C156 C27 1.760 . S
C1 C41 1.318 . S
C33 C72 1.714 1_545 S
