# Generated by pormake.
# Topology kag, (6)-cn, num edge types: 1
# Building blocks:
#     Node 0, Type 0, BuildingBlock: UKALOJ_clean_sbu_0, # of connection points: 6
#     Node 1, Type 0, BuildingBlock: UKALOJ_clean_sbu_0, # of connection points: 6
#     Node 2, Type 0, BuildingBlock: UKALOJ_clean_sbu_0, # of connection points: 6
#     Edge 3, Type (0, 0), BuildingBlock: OJICUG_clean_linker_0, # of connection points: 2
#     Edge 4, Type (0, 0), BuildingBlock: OJICUG_clean_linker_0, # of connection points: 2
#     Edge 5, Type (0, 0), BuildingBlock: OJICUG_clean_linker_0, # of connection points: 2
#     Edge 6, Type (0, 0), BuildingBlock: OJICUG_clean_linker_0, # of connection points: 2
#     Edge 7, Type (0, 0), BuildingBlock: OJICUG_clean_linker_0, # of connection points: 2
#     Edge 8, Type (0, 0), BuildingBlock: OJICUG_clean_linker_0, # of connection points: 2
#     Edge 9, Type (0, 0), BuildingBlock: OJICUG_clean_linker_0, # of connection points: 2
#     Edge 10, Type (0, 0), BuildingBlock: OJICUG_clean_linker_0, # of connection points: 2
#     Edge 11, Type (0, 0), BuildingBlock: OJICUG_clean_linker_0, # of connection points: 2
# Relax obj value: 0.112
# Max RMSD: 0.168
# Mean RMSD: 0.168
data_MOF--net-kag--node1-UKALOJ_clean_sbu_0--edge1-OJICUG_clean_linker_0
_symmetry_space_group_name_H-M    P1
_symmetry_Int_Tables_number       1
_symmetry_cell_setting            triclinic
loop_
_symmetry_equiv_pos_as_xyz
'x, y, z'
_cell_length_a     22.096124
_cell_length_b     22.008788
_cell_length_c     16.191732
_cell_angle_alpha  90.400112
_cell_angle_beta   90.605718
_cell_angle_gamma 119.97635
loop_
_atom_site_label
_atom_site_type_symbol
_atom_site_fract_x
_atom_site_fract_y
_atom_site_fract_z
_atom_type_partial_charge
Zn0 Zn -0.02747 0.49004 0.95281 0.0
O1 O 0.04963 0.59629 0.93626 0.0
C2 C 0.0784 0.45606 1.00789 0.0
Zn3 Zn -0.01865 0.49641 0.08995 0.0
C4 C 0.07789 0.63159 1.00195 0.0
O5 O 0.05798 0.60231 0.0715 0.0
C6 C 0.87588 0.35489 0.04081 0.0
O7 O 0.90412 0.52565 0.10111 0.0
O8 O 0.89534 0.51925 0.96582 0.0
N9 N 0.00469 0.51195 0.21333 0.0
C10 C -0.03336 0.48723 0.28219 0.0
C11 C 0.07208 0.55689 0.32045 0.0
N12 N 0.0701 0.55511 0.23737 0.0
N13 N 0.00792 0.51453 0.35027 0.0
C14 C -0.0127 0.4991 0.76058 0.0
C15 C 0.88189 0.42938 0.72227 0.0
N16 N 0.94922 0.47445 0.82942 0.0
N17 N 0.88382 0.43125 0.80536 0.0
N18 N 0.94607 0.47172 0.69248 0.0
H19 H 0.07666 0.60193 0.75799 0.0
H20 H 0.08821 0.53585 0.70604 0.0
H21 H 0.08942 0.54072 0.81762 0.0
C22 C 0.06497 0.54675 0.76059 0.0
C23 C 0.88898 0.43957 0.28221 0.0
H24 H 0.86577 0.45042 0.33683 0.0
H25 H 0.87729 0.38439 0.28473 0.0
H26 H 0.86451 0.44565 0.22523 0.0
O27 O 0.90422 0.39016 0.1065 0.0
O28 O 0.89586 0.38415 0.97126 0.0
C29 C 0.87559 0.53053 0.03486 0.0
O30 O 0.0498 0.46084 0.94165 0.0
O31 O 0.05859 0.46726 0.07693 0.0
Zn32 Zn 0.47706 -0.00221 0.9529 0.0
O33 O 0.50588 0.92049 0.93354 0.0
C34 C 0.33776 0.8921 1.00416 0.0
Zn35 Zn 0.4755 -0.01 0.08985 0.0
C36 C 0.51348 0.89276 0.99848 0.0
O37 O 0.5046 0.91316 0.06861 0.0
C38 C 0.43922 0.09514 0.04428 0.0
O39 O 0.58179 0.06756 0.1041 0.0
O40 O 0.58345 0.0753 0.969 0.0
N41 N 0.46777 0.96641 0.21235 0.0
C42 C 0.48098 0.00451 0.28259 0.0
C43 C 0.44534 0.89869 0.31701 0.0
N44 N 0.44561 0.90076 0.23399 0.0
N45 N 0.467 0.96303 0.34917 0.0
C46 C 0.47139 -0.01678 0.76017 0.0
C47 C 0.50696 0.08902 0.72571 0.0
N48 N 0.48472 0.02136 0.8304 0.0
N49 N 0.50683 0.08699 0.80873 0.0
N50 N 0.48525 0.02466 0.69357 0.0
H51 H 0.48491 0.89374 0.75494 0.0
H52 H 0.40769 0.88194 0.70163 0.0
H53 H 0.4108 0.88059 0.8132 0.0
C54 C 0.44149 0.90529 0.75733 0.0
C55 C 0.51087 0.08244 0.28547 0.0
H56 H 0.54459 0.10576 0.34124 0.0
H57 H 0.46745 0.09398 0.28777 0.0
H58 H 0.54165 0.10715 0.22965 0.0
O59 O 0.44673 0.06734 0.10921 0.0
O60 O 0.44803 0.07467 0.97415 0.0
C61 C 0.61484 0.09559 0.0386 0.0
O62 O 0.37077 0.9202 0.93866 0.0
O63 O 0.36913 0.91244 0.07376 0.0
Zn64 Zn 0.47789 0.49882 0.08987 0.0
O65 O 0.44895 0.39268 0.10879 0.0
C66 C 0.61611 0.53129 0.03525 0.0
Zn67 Zn 0.47732 0.4903 0.95281 0.0
C68 C 0.44031 0.35625 0.04392 0.0
O69 O 0.4482 0.38445 0.97368 0.0
C70 C 0.51476 0.63284 0.99876 0.0
O71 O 0.37099 0.4615 0.94113 0.0
O72 O 0.37151 0.4699 0.07632 0.0
N73 N 0.48331 0.47313 0.82984 0.0
C74 C 0.47056 0.49843 0.76029 0.0
C75 C 0.50491 0.42741 0.72394 0.0
N76 N 0.50461 0.42906 0.807 0.0
N77 N 0.48409 0.47073 0.69294 0.0
C78 C 0.48485 0.49081 0.28238 0.0
C79 C 0.45056 0.56188 0.31878 0.0
N80 N 0.47198 0.51604 0.21284 0.0
N81 N 0.45073 0.56014 0.23572 0.0
N82 N 0.47143 0.51859 0.34975 0.0
H83 H 0.54505 0.44857 0.22807 0.0
H84 H 0.47007 0.38726 0.28471 0.0
H85 H 0.54714 0.45186 0.33975 0.0
C86 C 0.51392 0.44218 0.28382 0.0
C87 C 0.4415 0.54707 0.75881 0.0
H88 H 0.4103 0.54064 0.81451 0.0
H89 H 0.40835 0.53744 0.70282 0.0
H90 H 0.48536 0.60199 0.758 0.0
O91 O 0.50622 0.59643 0.93389 0.0
O92 O 0.50695 0.60465 0.069 0.0
C93 C 0.33907 0.45769 1.00743 0.0
O94 O 0.58422 0.52758 0.10154 0.0
O95 O 0.58369 0.51916 0.96636 0.0
C96 C 0.00746 0.55023 0.57656 0.0
C97 C -0.03686 0.48267 0.60644 0.0
H98 H 0.056 0.61301 0.47056 0.0
C99 C 0.9324 0.42577 0.55043 0.0
H100 H 0.02999 0.59526 0.61793 0.0
C101 C 0.94657 0.43599 0.4662 0.0
C102 C -0.00912 0.50355 0.43631 0.0
H103 H 0.89803 0.37321 0.5722 0.0
H104 H 0.92403 0.39096 0.42482 0.0
C105 C 0.02163 0.56045 0.49233 0.0
C106 C 0.49892 0.9493 0.49099 0.0
C107 C 0.47286 -0.01998 0.43582 0.0
H108 H 0.5251 0.94091 0.61651 0.0
C109 C 0.44951 0.02423 0.46702 0.0
H110 H 0.51719 0.915 0.4682 0.0
C111 C 0.45326 0.03835 0.55176 0.0
C112 C 0.47933 0.00763 0.60693 0.0
H113 H 0.4271 0.04674 0.42623 0.0
H114 H 0.435 0.07265 0.57455 0.0
C115 C 0.50267 0.96341 0.57572 0.0
C116 C 0.45362 0.42672 0.54974 0.0
C117 C 0.47953 0.48298 0.60661 0.0
H118 H 0.42895 0.39366 0.42318 0.0
C119 C 0.50425 0.55115 0.57739 0.0
H120 H 0.43435 0.37372 0.57097 0.0
C121 C 0.50198 0.56262 0.49294 0.0
C122 C 0.47606 0.50636 0.43608 0.0
H123 H 0.52663 0.59568 0.61952 0.0
H124 H 0.52124 0.61562 0.47171 0.0
C125 C 0.45134 0.4382 0.4653 0.0
C126 C 0.16827 0.43749 0.07938 0.0
C127 C 0.13889 0.44472 1.00534 0.0
H128 H 0.25404 0.43505 0.13788 0.0
C129 C 0.17199 0.44796 0.93046 0.0
H130 H 0.14379 0.43422 0.13807 0.0
C131 C 0.23557 0.44843 0.93035 0.0
C132 C 0.26702 0.4457 1.00511 0.0
H133 H 0.15056 0.45345 0.87235 0.0
H134 H 0.26156 0.45425 0.87216 0.0
C135 C 0.23159 0.43799 0.07927 0.0
C136 C 0.72447 0.18141 0.96937 0.0
C137 C 0.68704 0.15556 0.04254 0.0
H138 H 0.81395 0.26392 0.91183 0.0
C139 C 0.71668 0.19161 0.11742 0.0
H140 H 0.70349 0.15451 0.91078 0.0
C141 C 0.78044 0.25484 0.11804 0.0
C142 C 0.81548 0.28285 0.04382 0.0
H143 H 0.68907 0.17288 0.17487 0.0
H144 H 0.8004 0.28334 0.17592 0.0
C145 C 0.78794 0.24423 0.97001 0.0
C146 C 0.51538 0.79484 0.9199 0.0
C147 C 0.52605 0.83287 0.99397 0.0
H148 H 0.50374 0.70119 0.86297 0.0
C149 C 0.54187 0.80884 0.06668 0.0
H150 H 0.50315 0.81212 0.86286 0.0
C151 C 0.54226 0.74577 0.06673 0.0
C152 C 0.52678 0.70509 0.9941 0.0
H153 H 0.55118 0.83732 0.12461 0.0
H154 H 0.55181 0.7275 0.12473 0.0
C155 C 0.51573 0.73134 0.91996 0.0
C156 C 0.78629 0.54996 0.96335 0.0
C157 C 0.81542 0.54237 0.03739 0.0
H158 H 0.70102 0.55333 0.90484 0.0
C159 C 0.78246 0.53947 0.11226 0.0
H160 H 0.81069 0.553 0.90466 0.0
C161 C 0.71922 0.53969 0.11237 0.0
C162 C 0.68797 0.54278 0.0376 0.0
H163 H 0.80371 0.53373 0.17038 0.0
H164 H 0.69328 0.53409 0.17055 0.0
C165 C 0.72332 0.55015 0.96345 0.0
C166 C 0.17289 0.73205 0.92472 0.0
C167 C 0.13798 0.70381 0.99895 0.0
H168 H 0.26386 0.81452 0.86787 0.0
C169 C 0.16526 0.74253 0.07275 0.0
H170 H 0.1531 0.70349 0.86685 0.0
C171 C 0.22839 0.8057 0.07338 0.0
C172 C 0.26574 0.83181 1.0002 0.0
H173 H 0.13932 0.72268 0.13094 0.0
H174 H 0.24921 0.83267 0.13196 0.0
C175 C 0.23631 0.79563 0.92533 0.0
C176 C 0.43851 0.25735 0.12273 0.0
C177 C 0.4278 0.28382 0.04858 0.0
H178 H 0.45019 0.17606 0.17989 0.0
C179 C 0.41196 0.24305 0.97597 0.0
H180 H 0.45073 0.28755 0.17971 0.0
C181 C 0.41165 0.17963 0.97607 0.0
C182 C 0.42715 0.15534 0.0488 0.0
H183 H 0.40263 0.26149 0.91797 0.0
H184 H 0.40211 0.15108 0.91815 0.0
C185 C 0.43817 0.19351 0.12284 0.0
loop_
_geom_bond_atom_site_label_1
_geom_bond_atom_site_label_2
_geom_bond_distance
_geom_bond_site_symmetry_2
_ccdc_geom_bond_type
Zn0 O1 2.055 . S
Zn0 O8 2.046 1_455 S
Zn0 N16 2.036 . S
Zn0 O28 2.053 1_455 S
Zn0 O30 2.066 . S
O1 Zn0 2.055 . S
O1 C4 1.259 . S
C2 O30 1.256 . S
C2 O31 1.244 1_556 S
Zn3 O5 2.046 . S
Zn3 O7 2.055 1_455 S
Zn3 N9 2.036 . S
Zn3 O27 2.066 1_455 S
Zn3 O31 2.053 . S
C4 O1 1.259 . S
C4 O5 1.254 1_556 S
O5 Zn3 2.046 . S
O5 C4 1.254 1_554 S
C6 O27 1.256 . S
C6 O28 1.244 1_554 S
O7 Zn3 2.055 1_655 S
O7 C29 1.259 . S
O8 Zn0 2.046 1_655 S
O8 C29 1.254 1_556 S
N9 Zn3 2.036 . S
N9 C10 1.298 1_455 S
N9 N12 1.398 . S
C10 N9 1.298 1_655 S
C10 N13 1.367 1_655 S
C10 C23 1.481 . S
C11 N12 1.299 . S
C11 N13 1.379 . S
N12 N9 1.398 . S
N12 C11 1.299 . S
N13 C10 1.367 1_455 S
N13 C11 1.379 . S
C14 N16 1.298 . S
C14 N18 1.367 . S
C14 C22 1.481 . S
C15 N17 1.299 . S
C15 N18 1.379 1_655 S
N16 Zn0 2.036 . S
N16 C14 1.298 . S
N16 N17 1.398 1_455 S
N17 C15 1.299 . S
N17 N16 1.398 1_655 S
N18 C14 1.367 . S
N18 C15 1.379 1_455 S
H19 C22 0.980 . S
H20 C22 0.981 . S
H21 C22 0.981 . S
C22 C14 1.481 . S
C22 H19 0.980 . S
C22 H20 0.981 . S
C22 H21 0.981 . S
C23 C10 1.481 . S
C23 H24 0.980 . S
C23 H25 0.981 . S
C23 H26 0.981 . S
H24 C23 0.980 . S
H25 C23 0.981 . S
H26 C23 0.981 . S
O27 Zn3 2.066 1_655 S
O27 C6 1.256 . S
O28 Zn0 2.053 1_655 S
O28 C6 1.244 1_556 S
C29 O7 1.259 . S
C29 O8 1.254 1_554 S
O30 Zn0 2.066 . S
O30 C2 1.256 . S
O31 C2 1.244 1_554 S
O31 Zn3 2.053 . S
Zn32 O33 2.055 1_545 S
Zn32 O40 2.046 . S
Zn32 N48 2.036 . S
Zn32 O60 2.053 . S
Zn32 O62 2.066 1_545 S
O33 Zn32 2.055 1_565 S
O33 C36 1.259 . S
C34 O62 1.256 . S
C34 O63 1.244 1_556 S
Zn35 O37 2.046 1_545 S
Zn35 O39 2.055 . S
Zn35 N41 2.036 . S
Zn35 O59 2.066 . S
Zn35 O63 2.053 1_545 S
C36 O33 1.259 . S
C36 O37 1.254 1_556 S
O37 Zn35 2.046 1_565 S
O37 C36 1.254 1_554 S
C38 O59 1.256 . S
C38 O60 1.244 1_554 S
O39 Zn35 2.055 . S
O39 C61 1.259 . S
O40 Zn32 2.046 . S
O40 C61 1.254 1_556 S
N41 Zn35 2.036 . S
N41 C42 1.298 . S
N41 N44 1.398 1_545 S
C42 N41 1.298 . S
C42 N45 1.367 . S
C42 C55 1.481 . S
C43 N44 1.299 . S
C43 N45 1.379 1_565 S
N44 N41 1.398 1_565 S
N44 C43 1.299 . S
N45 C42 1.367 . S
N45 C43 1.379 1_545 S
C46 N48 1.298 1_565 S
C46 N50 1.367 1_565 S
C46 C54 1.481 . S
C47 N49 1.299 . S
C47 N50 1.379 . S
N48 Zn32 2.036 . S
N48 C46 1.298 1_545 S
N48 N49 1.398 . S
N49 C47 1.299 . S
N49 N48 1.398 . S
N50 C46 1.367 1_545 S
N50 C47 1.379 . S
H51 C54 0.980 . S
H52 C54 0.981 . S
H53 C54 0.981 . S
C54 C46 1.481 . S
C54 H51 0.980 . S
C54 H52 0.981 . S
C54 H53 0.981 . S
C55 C42 1.481 . S
C55 H56 0.980 . S
C55 H57 0.981 . S
C55 H58 0.981 . S
H56 C55 0.980 . S
H57 C55 0.981 . S
H58 C55 0.981 . S
O59 Zn35 2.066 . S
O59 C38 1.256 . S
O60 Zn32 2.053 . S
O60 C38 1.244 1_556 S
C61 O39 1.259 . S
C61 O40 1.254 1_554 S
O62 Zn32 2.066 1_565 S
O62 C34 1.256 . S
O63 C34 1.244 1_554 S
O63 Zn35 2.053 1_565 S
Zn64 O65 2.055 . S
Zn64 O72 2.046 . S
Zn64 N80 2.036 . S
Zn64 O92 2.053 . S
Zn64 O94 2.066 . S
O65 Zn64 2.055 . S
O65 C68 1.259 . S
C66 O94 1.256 . S
C66 O95 1.244 1_554 S
Zn67 O69 2.046 . S
Zn67 O71 2.055 . S
Zn67 N73 2.036 . S
Zn67 O91 2.066 . S
Zn67 O95 2.053 . S
C68 O65 1.259 . S
C68 O69 1.254 1_554 S
O69 Zn67 2.046 . S
O69 C68 1.254 1_556 S
C70 O91 1.256 . S
C70 O92 1.244 1_556 S
O71 Zn67 2.055 . S
O71 C93 1.259 . S
O72 Zn64 2.046 . S
O72 C93 1.254 1_554 S
N73 Zn67 2.036 . S
N73 C74 1.298 . S
N73 N76 1.398 . S
C74 N73 1.298 . S
C74 N77 1.367 . S
C74 C87 1.481 . S
C75 N76 1.299 . S
C75 N77 1.379 . S
N76 N73 1.398 . S
N76 C75 1.299 . S
N77 C74 1.367 . S
N77 C75 1.379 . S
C78 N80 1.298 . S
C78 N82 1.367 . S
C78 C86 1.481 . S
C79 N81 1.299 . S
C79 N82 1.379 . S
N80 Zn64 2.036 . S
N80 C78 1.298 . S
N80 N81 1.398 . S
N81 C79 1.299 . S
N81 N80 1.398 . S
N82 C78 1.367 . S
N82 C79 1.379 . S
H83 C86 0.980 . S
H84 C86 0.981 . S
H85 C86 0.981 . S
C86 C78 1.481 . S
C86 H83 0.980 . S
C86 H84 0.981 . S
C86 H85 0.981 . S
C87 C74 1.481 . S
C87 H88 0.980 . S
C87 H89 0.981 . S
C87 H90 0.981 . S
H88 C87 0.980 . S
H89 C87 0.981 . S
H90 C87 0.981 . S
O91 Zn67 2.066 . S
O91 C70 1.256 . S
O92 Zn64 2.053 . S
O92 C70 1.244 1_554 S
C93 O71 1.259 . S
C93 O72 1.254 1_556 S
O94 Zn64 2.066 . S
O94 C66 1.256 . S
O95 C66 1.244 1_556 S
O95 Zn67 2.053 . S
C96 C97 1.387 . S
C96 H100 0.950 . S
C96 C105 1.390 . S
C97 C96 1.387 . S
C97 C99 1.387 . S
H98 C105 0.950 . S
C99 C97 1.387 . S
C99 C101 1.390 1_455 S
C99 H103 0.950 . S
H100 C96 0.950 . S
C101 C99 1.390 1_655 S
C101 C102 1.387 1_655 S
C101 H104 0.950 . S
C102 C101 1.387 1_455 S
C102 C105 1.387 . S
H103 C99 0.950 . S
H104 C101 0.950 . S
C105 C96 1.390 . S
C105 H98 0.950 . S
C105 C102 1.387 . S
C106 C107 1.387 . S
C106 H110 0.950 . S
C106 C115 1.390 . S
C107 C106 1.387 . S
C107 C109 1.387 . S
H108 C115 0.950 . S
C109 C107 1.387 . S
C109 C111 1.390 . S
C109 H113 0.950 . S
H110 C106 0.950 . S
C111 C109 1.390 . S
C111 C112 1.387 . S
C111 H114 0.950 . S
C112 C111 1.387 . S
C112 C115 1.387 . S
H113 C109 0.950 . S
H114 C111 0.950 . S
C115 C106 1.390 . S
C115 H108 0.950 . S
C115 C112 1.387 . S
C116 C117 1.387 . S
C116 H120 0.950 . S
C116 C125 1.390 . S
C117 C116 1.387 . S
C117 C119 1.387 . S
H118 C125 0.950 . S
C119 C117 1.387 . S
C119 C121 1.390 . S
C119 H123 0.950 . S
H120 C116 0.950 . S
C121 C119 1.390 . S
C121 C122 1.387 . S
C121 H124 0.950 . S
C122 C121 1.387 . S
C122 C125 1.387 . S
H123 C119 0.950 . S
H124 C121 0.950 . S
C125 C116 1.390 . S
C125 H118 0.950 . S
C125 C122 1.387 . S
C126 C127 1.387 1_554 S
C126 H130 0.950 . S
C126 C135 1.390 . S
C127 C126 1.387 1_556 S
C127 C129 1.387 . S
H128 C135 0.950 . S
C129 C127 1.387 . S
C129 C131 1.390 . S
C129 H133 0.950 . S
H130 C126 0.950 . S
C131 C129 1.390 . S
C131 C132 1.387 . S
C131 H134 0.950 . S
C132 C131 1.387 . S
C132 C135 1.387 1_556 S
H133 C129 0.950 . S
H134 C131 0.950 . S
C135 C126 1.390 . S
C135 H128 0.950 . S
C135 C132 1.387 1_554 S
C136 C137 1.387 1_556 S
C136 H140 0.950 . S
C136 C145 1.390 . S
C137 C136 1.387 1_554 S
C137 C139 1.387 . S
H138 C145 0.950 . S
C139 C137 1.387 . S
C139 C141 1.390 . S
C139 H143 0.950 . S
H140 C136 0.950 . S
C141 C139 1.390 . S
C141 C142 1.387 . S
C141 H144 0.950 . S
C142 C141 1.387 . S
C142 C145 1.387 1_554 S
H143 C139 0.950 . S
H144 C141 0.950 . S
C145 C136 1.390 . S
C145 H138 0.950 . S
C145 C142 1.387 1_556 S
C146 C147 1.387 . S
C146 H150 0.950 . S
C146 C155 1.390 . S
C147 C146 1.387 . S
C147 C149 1.387 1_556 S
H148 C155 0.950 . S
C149 C147 1.387 1_554 S
C149 C151 1.390 . S
C149 H153 0.950 . S
H150 C146 0.950 . S
C151 C149 1.390 . S
C151 C152 1.387 1_554 S
C151 H154 0.950 . S
C152 C151 1.387 1_556 S
C152 C155 1.387 . S
H153 C149 0.950 . S
H154 C151 0.950 . S
C155 C146 1.390 . S
C155 H148 0.950 . S
C155 C152 1.387 . S
C156 C157 1.387 1_556 S
C156 H160 0.950 . S
C156 C165 1.390 . S
C157 C156 1.387 1_554 S
C157 C159 1.387 . S
H158 C165 0.950 . S
C159 C157 1.387 . S
C159 C161 1.390 . S
C159 H163 0.950 . S
H160 C156 0.950 . S
C161 C159 1.390 . S
C161 C162 1.387 . S
C161 H164 0.950 . S
C162 C161 1.387 . S
C162 C165 1.387 1_554 S
H163 C159 0.950 . S
H164 C161 0.950 . S
C165 C156 1.390 . S
C165 H158 0.950 . S
C165 C162 1.387 1_556 S
C166 C167 1.387 . S
C166 H170 0.950 . S
C166 C175 1.390 . S
C167 C166 1.387 . S
C167 C169 1.387 1_556 S
H168 C175 0.950 . S
C169 C167 1.387 1_554 S
C169 C171 1.390 . S
C169 H173 0.950 . S
H170 C166 0.950 . S
C171 C169 1.390 . S
C171 C172 1.387 1_554 S
C171 H174 0.950 . S
C172 C171 1.387 1_556 S
C172 C175 1.387 . S
H173 C169 0.950 . S
H174 C171 0.950 . S
C175 C166 1.390 . S
C175 H168 0.950 . S
C175 C172 1.387 . S
C176 C177 1.387 . S
C176 H180 0.950 . S
C176 C185 1.390 . S
C177 C176 1.387 . S
C177 C179 1.387 1_554 S
H178 C185 0.950 . S
C179 C177 1.387 1_556 S
C179 C181 1.390 . S
C179 H183 0.950 . S
H180 C176 0.950 . S
C181 C179 1.390 . S
C181 C182 1.387 1_556 S
C181 H184 0.950 . S
C182 C181 1.387 1_554 S
C182 C185 1.387 . S
H183 C179 0.950 . S
H184 C181 0.950 . S
C185 C176 1.390 . S
C185 H178 0.950 . S
C185 C182 1.387 . S
C97 N18 1.475 . S
C102 N13 1.475 . S
C107 N45 1.475 . S
C112 N50 1.475 . S
C117 N77 1.475 . S
C122 N82 1.475 . S
C127 C2 1.286 . S
C132 C93 1.293 . S
C137 C61 1.293 . S
C142 C6 1.286 . S
C147 C36 1.293 . S
C152 C70 1.287 . S
C157 C29 1.293 . S
C162 C66 1.286 . S
C167 C4 1.293 . S
C172 C34 1.287 . S
C177 C68 1.293 . S
C182 C38 1.287 . S
