# Generated by pormake.
# Topology est, (5)-cn, num edge types: 1
# Building blocks:
#     Node 0, Type 0, BuildingBlock: XOMCOT_clean_sbu_0, # of connection points: 5
#     Node 1, Type 0, BuildingBlock: XOMCOT_clean_sbu_0, # of connection points: 5
#     Node 2, Type 0, BuildingBlock: XOMCOT_clean_sbu_0, # of connection points: 5
#     Node 3, Type 0, BuildingBlock: XOMCOT_clean_sbu_0, # of connection points: 5
#     Edge 4, Type (0, 0), BuildingBlock: AJUNOK_clean_linker_0, # of connection points: 2
#     Edge 5, Type (0, 0), BuildingBlock: AJUNOK_clean_linker_0, # of connection points: 2
#     Edge 6, Type (0, 0), BuildingBlock: AJUNOK_clean_linker_0, # of connection points: 2
#     Edge 7, Type (0, 0), BuildingBlock: AJUNOK_clean_linker_0, # of connection points: 2
#     Edge 8, Type (0, 0), BuildingBlock: AJUNOK_clean_linker_0, # of connection points: 2
#     Edge 9, Type (0, 0), BuildingBlock: AJUNOK_clean_linker_0, # of connection points: 2
#     Edge 10, Type (0, 0), BuildingBlock: AJUNOK_clean_linker_0, # of connection points: 2
#     Edge 11, Type (0, 0), BuildingBlock: AJUNOK_clean_linker_0, # of connection points: 2
#     Edge 12, Type (0, 0), BuildingBlock: AJUNOK_clean_linker_0, # of connection points: 2
#     Edge 13, Type (0, 0), BuildingBlock: AJUNOK_clean_linker_0, # of connection points: 2
# Relax obj value: 0.183
# Max RMSD: 0.236
# Mean RMSD: 0.236
data_MOF--net-est--node1-XOMCOT_clean_sbu_0--edge1-AJUNOK_clean_linker_0
_symmetry_space_group_name_H-M    P1
_symmetry_Int_Tables_number       1
_symmetry_cell_setting            triclinic
loop_
_symmetry_equiv_pos_as_xyz
'x, y, z'
_cell_length_a     13.083422
_cell_length_b     13.128621
_cell_length_c     39.899287
_cell_angle_alpha  86.390322
_cell_angle_beta   91.205972
_cell_angle_gamma 90.424576
loop_
_atom_site_label
_atom_site_type_symbol
_atom_site_fract_x
_atom_site_fract_y
_atom_site_fract_z
_atom_type_partial_charge
Co0 Co 0.28581 0.16662 0.58507 0.0
C1 C 0.07095 0.20739 0.59785 0.0
C2 C 0.12746 0.3085 0.55829 0.0
C3 C 0.02218 0.311 0.55715 0.0
N4 N 0.15859 0.24313 0.58386 0.0
N5 N 0.98664 0.24582 0.58173 0.0
H6 H 0.06835 0.14241 0.61575 0.0
H7 H 0.17657 0.34134 0.53896 0.0
C8 C 0.36239 0.38718 0.57094 0.0
O9 O 0.29515 0.42898 0.58976 0.0
N10 N 0.41188 0.08984 0.58613 0.0
C11 C 0.43601 0.00976 0.60758 0.0
C12 C 0.54103 0.99878 0.60874 0.0
C13 C 0.50217 0.12437 0.57398 0.0
N14 N 0.58224 0.07224 0.58793 0.0
C15 C 0.24855 0.12401 0.65453 0.0
C16 C 0.37688 0.26832 0.68059 0.0
C17 C 0.31315 0.20996 0.70235 0.0
C18 C 0.25151 0.13475 0.68893 0.0
C19 C 0.37214 0.25446 0.64587 0.0
N20 N 0.30465 0.18608 0.63305 0.0
H21 H 0.19976 0.06511 0.64542 0.0
H22 H 0.42284 0.29869 0.62967 0.0
H23 H 0.38218 0.96833 0.62359 0.0
H24 H 0.51103 0.19255 0.55772 0.0
O25 O 0.20593 0.04234 0.5879 0.0
O26 O 0.25036 0.1254 0.54064 0.0
O27 O 0.36621 0.29082 0.56951 0.0
C28 C 0.19411 0.05477 0.55552 0.0
H29 H 0.97575 0.34994 0.53763 0.0
H30 H 0.58381 0.94541 0.62527 0.0
H31 H 0.42797 0.32539 0.69019 0.0
H32 H 0.20446 0.08491 0.70497 0.0
Co33 Co 0.81673 0.74698 0.08649 0.0
C34 C 0.77006 0.52956 0.09692 0.0
C35 C 0.68928 0.59464 0.05368 0.0
C36 C 0.68392 0.4897 0.05331 0.0
N37 N 0.74295 0.61985 0.08126 0.0
N38 N 0.73618 0.44944 0.08035 0.0
H39 H 0.82431 0.5217 0.11758 0.0
H40 H 0.66666 0.64787 0.03313 0.0
C41 C 0.60352 0.82412 0.06327 0.0
O42 O 0.54929 0.75107 0.07846 0.0
N43 N 0.89068 0.87339 0.09161 0.0
C44 C 0.94946 0.89652 0.11828 0.0
C45 C 0.95226 0.00138 0.11991 0.0
C46 C 0.86226 0.96423 0.0768 0.0
N47 N 0.89506 0.0431 0.0942 0.0
C48 C 0.82682 0.68662 0.15644 0.0
C49 C 0.68011 0.81635 0.17794 0.0
C50 C 0.73252 0.75194 0.20185 0.0
C51 C 0.80591 0.68603 0.1905 0.0
C52 C 0.70277 0.81377 0.14371 0.0
N53 N 0.77467 0.74825 0.13324 0.0
H54 H 0.88828 0.63936 0.14909 0.0
H55 H 0.66518 0.86748 0.1261 0.0
H56 H 0.9783 0.84133 0.13736 0.0
H57 H 0.81041 0.97296 0.05546 0.0
O58 O 0.94147 0.669 0.0922 0.0
O59 O 0.87694 0.73182 0.04364 0.0
O60 O 0.69953 0.82991 0.06774 0.0
C61 C 0.94386 0.67331 0.05951 0.0
H62 H 0.65443 0.4469 0.03285 0.0
H63 H 0.98447 0.04272 0.14031 0.0
H64 H 0.62528 0.87113 0.18569 0.0
H65 H 0.84918 0.63577 0.20799 0.0
Co66 Co 0.71869 0.83661 0.46364 0.0
C67 C 0.92983 0.78208 0.452 0.0
C68 C 0.87762 0.71284 0.49849 0.0
C69 C 0.98292 0.71415 0.49931 0.0
N70 N 0.84387 0.75755 0.46897 0.0
N71 N 0.01572 0.76053 0.47036 0.0
H72 H 0.92951 0.82496 0.42817 0.0
H73 H 0.82982 0.69446 0.51985 0.0
C74 C 0.64507 0.62097 0.48422 0.0
O75 O 0.72195 0.57586 0.47072 0.0
N76 N 0.5949 0.91619 0.45855 0.0
C77 C 0.56701 0.97656 0.43141 0.0
C78 C 0.46186 0.98088 0.42956 0.0
C79 C 0.50665 0.88988 0.47372 0.0
N80 N 0.42364 0.92472 0.45602 0.0
C81 C 0.76193 0.87312 0.39417 0.0
C82 C 0.64207 0.72086 0.36884 0.0
C83 C 0.69988 0.78409 0.3466 0.0
C84 C 0.75912 0.86154 0.35979 0.0
C85 C 0.647 0.73518 0.40351 0.0
N86 N 0.70861 0.80929 0.41593 0.0
H87 H 0.80738 0.93492 0.40309 0.0
H88 H 0.60045 0.68705 0.41995 0.0
H89 H 0.61814 0.00563 0.41213 0.0
H90 H 0.50289 0.83812 0.49568 0.0
O91 O 0.80282 0.95884 0.46089 0.0
O92 O 0.74406 0.88444 0.50775 0.0
O93 O 0.63195 0.71674 0.47946 0.0
C94 C 0.80494 0.95195 0.49356 0.0
H95 H 0.03085 0.69419 0.52116 0.0
H96 H 0.41822 0.01319 0.40823 0.0
H97 H 0.59489 0.66009 0.35964 0.0
H98 H 0.80324 0.91358 0.34354 0.0
Co99 Co 0.21534 0.25104 0.9635 0.0
C100 C 0.25802 0.47147 0.95598 0.0
C101 C 0.35611 0.39879 0.99356 0.0
C102 C 0.35989 0.50308 0.99674 0.0
N103 N 0.2917 0.37845 0.9679 0.0
N104 N 0.29649 0.54835 0.97332 0.0
H105 H 0.19515 0.4828 0.93832 0.0
H106 H 0.38888 0.34184 1.01128 0.0
C107 C 0.42985 0.15985 0.97915 0.0
O108 O 0.4835 0.22519 0.96031 0.0
N109 N 0.13931 0.12457 0.95972 0.0
C110 C 0.07773 0.10029 0.9339 0.0
C111 C 0.07061 0.99518 0.93384 0.0
C112 C 0.16552 0.03411 0.9755 0.0
N113 N 0.12722 0.95364 0.95984 0.0
C114 C 0.2057 0.31988 0.8941 0.0
C115 C 0.32767 0.17178 0.86969 0.0
C116 C 0.28265 0.245 0.84694 0.0
C117 C 0.22273 0.32075 0.85975 0.0
C118 C 0.30985 0.17463 0.90423 0.0
N119 N 0.25062 0.24927 0.91616 0.0
H120 H 0.15231 0.37394 0.90257 0.0
H121 H 0.33995 0.11394 0.92096 0.0
H122 H 0.04922 0.15436 0.91441 0.0
H123 H 0.22087 0.02667 0.99581 0.0
O124 O 0.09099 0.33043 0.95978 0.0
O125 O 0.16242 0.26647 1.00718 0.0
O126 O 0.33348 0.16634 0.98016 0.0
C127 C 0.0951 0.32713 0.99254 0.0
H128 H 0.40067 0.54138 1.01624 0.0
H129 H 0.03358 0.95284 0.91453 0.0
H130 H 0.37265 0.11047 0.86076 0.0
H131 H 0.18647 0.37894 0.8432 0.0
C132 C 0.82399 0.19295 0.55466 0.0
C133 C 0.88482 0.20243 0.58389 0.0
C134 C 0.72711 0.14655 0.55608 0.0
C135 C 0.68698 0.1074 0.58671 0.0
H136 H 0.85185 0.22013 0.53036 0.0
H137 H 0.68263 0.1417 0.53303 0.0
S138 S 0.81193 0.11908 0.67075 0.0
N139 N 0.89558 0.17249 0.64456 0.0
N140 N 0.71367 0.0853 0.64719 0.0
C141 C 0.7467 0.11635 0.61613 0.0
C142 C 0.84534 0.16393 0.61472 0.0
C143 C 0.8792 0.32905 0.09128 0.0
C144 C 0.77434 0.34691 0.08491 0.0
C145 C 0.91852 0.22968 0.09425 0.0
C146 C 0.85393 0.1448 0.09133 0.0
H147 H 0.93119 0.39247 0.09362 0.0
H148 H 0.99986 0.219 0.09851 0.0
S149 S 0.57119 0.15123 0.08155 0.0
N150 N 0.60577 0.27251 0.07958 0.0
N151 N 0.67791 0.08504 0.08643 0.0
C152 C 0.7481 0.16171 0.08663 0.0
C153 C 0.70873 0.26294 0.08311 0.0
C154 C 0.30172 0.78909 0.4758 0.0
C155 C 0.32006 0.8863 0.45973 0.0
C156 C 0.20275 0.74833 0.4785 0.0
C157 C 0.11743 0.80166 0.46481 0.0
H158 H 0.36414 0.74246 0.48598 0.0
H159 H 0.19293 0.67373 0.49124 0.0
S160 S 0.12293 0.0597 0.42032 0.0
N161 N 0.24335 0.03608 0.43085 0.0
N162 N 0.05839 0.95785 0.43427 0.0
C163 C 0.13451 0.89848 0.44824 0.0
C164 C 0.23533 0.94105 0.44616 0.0
C165 C 0.18448 0.79458 0.93586 0.0
C166 C 0.16514 0.85007 0.96409 0.0
C167 C 0.2296 0.69768 0.93919 0.0
C168 C 0.25798 0.65184 0.97085 0.0
H169 H 0.16689 0.82718 0.91083 0.0
H170 H 0.24304 0.65823 0.91668 0.0
S171 S 0.21846 0.7625 0.05297 0.0
N172 N 0.17393 0.84996 1.02499 0.0
N173 N 0.25937 0.66841 0.03125 0.0
C174 C 0.23847 0.70608 0.99939 0.0
C175 C 0.19188 0.80477 0.99599 0.0
C176 C 0.38652 0.22822 0.79492 0.0
C177 C 0.29088 0.23879 0.80991 0.0
C178 C 0.39443 0.22302 0.75988 0.0
C179 C 0.3068 0.22709 0.73876 0.0
H180 H 0.45564 0.2242 0.81036 0.0
H181 H 0.46908 0.21296 0.74938 0.0
S182 S 0.03883 0.25478 0.76536 0.0
N183 N 0.10694 0.25216 0.80068 0.0
N184 N 0.12212 0.24531 0.73525 0.0
C185 C 0.21118 0.23911 0.75345 0.0
C186 C 0.20311 0.24407 0.78888 0.0
C187 C 0.8069 0.76339 0.25971 0.0
C188 C 0.71944 0.75858 0.23869 0.0
C189 C 0.7991 0.76858 0.29446 0.0
C190 C 0.70348 0.76953 0.30992 0.0
H191 H 0.88256 0.76457 0.24916 0.0
H192 H 0.86898 0.7727 0.30939 0.0
S193 S 0.45058 0.75684 0.26654 0.0
N194 N 0.53365 0.75289 0.23602 0.0
N195 N 0.51899 0.7647 0.30159 0.0
C196 C 0.61508 0.76373 0.28939 0.0
C197 C 0.62305 0.75842 0.25376 0.0
C198 C 0.48005 0.40576 0.52212 0.0
C199 C 0.43364 0.4498 0.54941 0.0
C200 C 0.54906 0.46076 0.50136 0.0
C201 C 0.57382 0.56255 0.50677 0.0
H202 H 0.46217 0.32807 0.51634 0.0
H203 H 0.58188 0.42375 0.48063 0.0
S204 S 0.48033 0.71185 0.57605 0.0
N205 N 0.42117 0.60062 0.58129 0.0
N206 N 0.55228 0.70345 0.54285 0.0
C207 C 0.52941 0.60729 0.53423 0.0
C208 C 0.4588 0.55128 0.55532 0.0
C209 C 0.42193 0.02711 0.02685 0.0
C210 C 0.47704 0.07389 0.99978 0.0
C211 C 0.46036 0.94287 0.04633 0.0
C212 C 0.55644 0.90326 0.03996 0.0
H213 H 0.34942 0.05769 0.03387 0.0
H214 H 0.41669 0.9118 0.06741 0.0
S215 S 0.72798 0.99062 0.97055 0.0
N216 N 0.63014 0.06952 0.96665 0.0
N217 N 0.70289 0.91106 1.00308 0.0
C218 C 0.61137 0.94718 1.01247 0.0
C219 C 0.57197 0.03287 0.99258 0.0
C220 C 0.96593 0.0547 0.49541 0.0
C221 C 0.89623 0.98838 0.51208 0.0
C222 C 0.06436 0.07079 0.50871 0.0
C223 C 0.0972 0.02168 0.5394 0.0
H224 H 0.94521 0.09261 0.47136 0.0
H225 H 0.11437 0.12379 0.49498 0.0
S226 S 0.93989 0.84913 0.59508 0.0
N227 N 0.864 0.8797 0.56253 0.0
N228 N 0.04888 0.90915 0.58731 0.0
C229 C 0.02681 0.95798 0.55699 0.0
C230 C 0.92626 0.94224 0.54356 0.0
C231 C 0.95889 0.57175 1.00918 0.0
C232 C 0.99384 0.59228 0.04174 0.0
C233 C 0.98796 0.48326 0.99411 0.0
C234 C 0.05321 0.41158 1.01092 0.0
H235 H 0.90576 0.62268 0.9955 0.0
H236 H 0.95949 0.47141 0.96895 0.0
S237 S 0.1735 0.43424 0.09552 0.0
N238 N 0.1022 0.53713 0.08949 0.0
N239 N 0.15729 0.37076 0.0614 0.0
C240 C 0.09112 0.43271 0.04318 0.0
C241 C 0.06178 0.52323 0.05842 0.0
loop_
_geom_bond_atom_site_label_1
_geom_bond_atom_site_label_2
_geom_bond_distance
_geom_bond_site_symmetry_2
_ccdc_geom_bond_type
Co0 N4 2.148 . S
Co0 N10 2.128 . S
Co0 N20 2.194 . S
Co0 O25 2.351 . S
Co0 O26 2.155 . S
Co0 O27 2.096 . S
C1 N4 1.301 . S
C1 N5 1.328 1_455 S
C1 H6 0.930 . S
C2 C3 1.333 1_455 S
C2 N4 1.317 . S
C2 H7 0.930 . S
C3 C2 1.333 1_655 S
C3 N5 1.350 . S
C3 H29 0.931 . S
N4 Co0 2.148 . S
N4 C1 1.301 . S
N4 C2 1.317 . S
N5 C1 1.328 1_655 S
N5 C3 1.350 . S
H6 C1 0.930 . S
H7 C2 0.930 . S
C8 O9 1.224 . S
C8 O27 1.247 . S
O9 C8 1.224 . S
N10 Co0 2.128 . S
N10 C11 1.355 . S
N10 C13 1.311 . S
C11 N10 1.355 . S
C11 C12 1.363 . S
C11 H23 0.929 . S
C12 C11 1.363 . S
C12 N14 1.375 . S
C12 H30 0.931 . S
C13 N10 1.311 . S
C13 N14 1.347 . S
C13 H24 0.929 . S
N14 C12 1.375 . S
N14 C13 1.347 . S
C15 C18 1.365 . S
C15 N20 1.328 . S
C15 H21 0.929 . S
C16 C17 1.362 . S
C16 C19 1.378 . S
C16 H31 0.929 . S
C17 C16 1.362 . S
C17 C18 1.366 . S
C18 C15 1.365 . S
C18 C17 1.366 . S
C18 H32 0.930 . S
C19 C16 1.378 . S
C19 N20 1.315 . S
C19 H22 0.930 . S
N20 Co0 2.194 . S
N20 C15 1.328 . S
N20 C19 1.315 . S
H21 C15 0.929 . S
H22 C19 0.930 . S
H23 C11 0.929 . S
H24 C13 0.929 . S
O25 Co0 2.351 . S
O25 C28 1.244 . S
O26 Co0 2.155 . S
O26 C28 1.240 . S
O27 Co0 2.096 . S
O27 C8 1.247 . S
C28 O25 1.244 . S
C28 O26 1.240 . S
H29 C3 0.931 . S
H30 C12 0.931 . S
H31 C16 0.929 . S
H32 C18 0.930 . S
Co33 N37 2.148 . S
Co33 N43 2.128 . S
Co33 N53 2.194 . S
Co33 O58 2.351 . S
Co33 O59 2.155 . S
Co33 O60 2.096 . S
C34 N37 1.301 . S
C34 N38 1.328 . S
C34 H39 0.930 . S
C35 C36 1.333 . S
C35 N37 1.317 . S
C35 H40 0.930 . S
C36 C35 1.333 . S
C36 N38 1.350 . S
C36 H62 0.931 . S
N37 Co33 2.148 . S
N37 C34 1.301 . S
N37 C35 1.317 . S
N38 C34 1.328 . S
N38 C36 1.350 . S
H39 C34 0.930 . S
H40 C35 0.930 . S
C41 O42 1.224 . S
C41 O60 1.247 . S
O42 C41 1.224 . S
N43 Co33 2.128 . S
N43 C44 1.355 . S
N43 C46 1.311 . S
C44 N43 1.355 . S
C44 C45 1.363 1_565 S
C44 H56 0.929 . S
C45 C44 1.363 1_545 S
C45 N47 1.375 . S
C45 H63 0.931 . S
C46 N43 1.311 . S
C46 N47 1.347 1_565 S
C46 H57 0.929 . S
N47 C45 1.375 . S
N47 C46 1.347 1_545 S
C48 C51 1.365 . S
C48 N53 1.328 . S
C48 H54 0.929 . S
C49 C50 1.362 . S
C49 C52 1.378 . S
C49 H64 0.929 . S
C50 C49 1.362 . S
C50 C51 1.366 . S
C51 C48 1.365 . S
C51 C50 1.366 . S
C51 H65 0.930 . S
C52 C49 1.378 . S
C52 N53 1.315 . S
C52 H55 0.930 . S
N53 Co33 2.194 . S
N53 C48 1.328 . S
N53 C52 1.315 . S
H54 C48 0.929 . S
H55 C52 0.930 . S
H56 C44 0.929 . S
H57 C46 0.929 . S
O58 Co33 2.351 . S
O58 C61 1.244 . S
O59 Co33 2.155 . S
O59 C61 1.240 . S
O60 Co33 2.096 . S
O60 C41 1.247 . S
C61 O58 1.244 . S
C61 O59 1.240 . S
H62 C36 0.931 . S
H63 C45 0.931 . S
H64 C49 0.929 . S
H65 C51 0.930 . S
Co66 N70 2.148 . S
Co66 N76 2.128 . S
Co66 N86 2.194 . S
Co66 O91 2.351 . S
Co66 O92 2.155 . S
Co66 O93 2.096 . S
C67 N70 1.301 . S
C67 N71 1.328 1_655 S
C67 H72 0.930 . S
C68 C69 1.333 1_655 S
C68 N70 1.317 . S
C68 H73 0.930 . S
C69 C68 1.333 1_455 S
C69 N71 1.350 . S
C69 H95 0.931 . S
N70 Co66 2.148 . S
N70 C67 1.301 . S
N70 C68 1.317 . S
N71 C67 1.328 1_455 S
N71 C69 1.350 . S
H72 C67 0.930 . S
H73 C68 0.930 . S
C74 O75 1.224 . S
C74 O93 1.247 . S
O75 C74 1.224 . S
N76 Co66 2.128 . S
N76 C77 1.355 . S
N76 C79 1.311 . S
C77 N76 1.355 . S
C77 C78 1.363 . S
C77 H89 0.929 . S
C78 C77 1.363 . S
C78 N80 1.375 . S
C78 H96 0.931 . S
C79 N76 1.311 . S
C79 N80 1.347 . S
C79 H90 0.929 . S
N80 C78 1.375 . S
N80 C79 1.347 . S
C81 C84 1.365 . S
C81 N86 1.328 . S
C81 H87 0.929 . S
C82 C83 1.362 . S
C82 C85 1.378 . S
C82 H97 0.929 . S
C83 C82 1.362 . S
C83 C84 1.366 . S
C84 C81 1.365 . S
C84 C83 1.366 . S
C84 H98 0.930 . S
C85 C82 1.378 . S
C85 N86 1.315 . S
C85 H88 0.930 . S
N86 Co66 2.194 . S
N86 C81 1.328 . S
N86 C85 1.315 . S
H87 C81 0.929 . S
H88 C85 0.930 . S
H89 C77 0.929 . S
H90 C79 0.929 . S
O91 Co66 2.351 . S
O91 C94 1.244 . S
O92 Co66 2.155 . S
O92 C94 1.240 . S
O93 Co66 2.096 . S
O93 C74 1.247 . S
C94 O91 1.244 . S
C94 O92 1.240 . S
H95 C69 0.931 . S
H96 C78 0.931 . S
H97 C82 0.929 . S
H98 C84 0.930 . S
Co99 N103 2.148 . S
Co99 N109 2.128 . S
Co99 N119 2.194 . S
Co99 O124 2.351 . S
Co99 O125 2.155 . S
Co99 O126 2.096 . S
C100 N103 1.301 . S
C100 N104 1.328 . S
C100 H105 0.930 . S
C101 C102 1.333 . S
C101 N103 1.317 . S
C101 H106 0.930 . S
C102 C101 1.333 . S
C102 N104 1.350 . S
C102 H128 0.931 . S
N103 Co99 2.148 . S
N103 C100 1.301 . S
N103 C101 1.317 . S
N104 C100 1.328 . S
N104 C102 1.350 . S
H105 C100 0.930 . S
H106 C101 0.930 . S
C107 O108 1.224 . S
C107 O126 1.247 . S
O108 C107 1.224 . S
N109 Co99 2.128 . S
N109 C110 1.355 . S
N109 C112 1.311 . S
C110 N109 1.355 . S
C110 C111 1.363 1_545 S
C110 H122 0.929 . S
C111 C110 1.363 1_565 S
C111 N113 1.375 . S
C111 H129 0.931 . S
C112 N109 1.311 . S
C112 N113 1.347 1_545 S
C112 H123 0.929 . S
N113 C111 1.375 . S
N113 C112 1.347 1_565 S
C114 C117 1.365 . S
C114 N119 1.328 . S
C114 H120 0.929 . S
C115 C116 1.362 . S
C115 C118 1.378 . S
C115 H130 0.929 . S
C116 C115 1.362 . S
C116 C117 1.366 . S
C117 C114 1.365 . S
C117 C116 1.366 . S
C117 H131 0.930 . S
C118 C115 1.378 . S
C118 N119 1.315 . S
C118 H121 0.930 . S
N119 Co99 2.194 . S
N119 C114 1.328 . S
N119 C118 1.315 . S
H120 C114 0.929 . S
H121 C118 0.930 . S
H122 C110 0.929 . S
H123 C112 0.929 . S
O124 Co99 2.351 . S
O124 C127 1.244 . S
O125 Co99 2.155 . S
O125 C127 1.240 . S
O126 Co99 2.096 . S
O126 C107 1.247 . S
C127 O124 1.244 . S
C127 O125 1.240 . S
H128 C102 0.931 . S
H129 C111 0.931 . S
H130 C115 0.929 . S
H131 C117 0.930 . S
C132 C133 1.369 . S
C132 C134 1.419 . S
C132 H136 0.930 . S
C133 C132 1.369 . S
C133 C142 1.429 . S
C134 C132 1.419 . S
C134 C135 1.363 . S
C134 H137 0.929 . S
C135 C134 1.363 . S
C135 C141 1.428 . S
H136 C132 0.930 . S
H137 C134 0.929 . S
S138 N139 1.613 . S
S138 N140 1.610 . S
N139 S138 1.613 . S
N139 C142 1.350 . S
N140 S138 1.610 . S
N140 C141 1.351 . S
C141 C135 1.428 . S
C141 N140 1.351 . S
C141 C142 1.434 . S
C142 C133 1.429 . S
C142 N139 1.350 . S
C142 C141 1.434 . S
C143 C144 1.369 . S
C143 C145 1.419 . S
C143 H147 0.930 . S
C144 C143 1.369 . S
C144 C153 1.429 . S
C145 C143 1.419 . S
C145 C146 1.363 . S
C145 H148 0.929 . S
C146 C145 1.363 . S
C146 C152 1.428 . S
H147 C143 0.930 . S
H148 C145 0.929 . S
S149 N150 1.613 . S
S149 N151 1.610 . S
N150 S149 1.613 . S
N150 C153 1.350 . S
N151 S149 1.610 . S
N151 C152 1.351 . S
C152 C146 1.428 . S
C152 N151 1.351 . S
C152 C153 1.434 . S
C153 C144 1.429 . S
C153 N150 1.350 . S
C153 C152 1.434 . S
C154 C155 1.369 . S
C154 C156 1.419 . S
C154 H158 0.930 . S
C155 C154 1.369 . S
C155 C164 1.429 . S
C156 C154 1.419 . S
C156 C157 1.363 . S
C156 H159 0.929 . S
C157 C156 1.363 . S
C157 C163 1.428 . S
H158 C154 0.930 . S
H159 C156 0.929 . S
S160 N161 1.613 . S
S160 N162 1.610 . S
N161 S160 1.613 . S
N161 C164 1.350 . S
N162 S160 1.610 . S
N162 C163 1.351 . S
C163 C157 1.428 . S
C163 N162 1.351 . S
C163 C164 1.434 . S
C164 C155 1.429 . S
C164 N161 1.350 . S
C164 C163 1.434 . S
C165 C166 1.369 . S
C165 C167 1.419 . S
C165 H169 0.930 . S
C166 C165 1.369 . S
C166 C175 1.429 . S
C167 C165 1.419 . S
C167 C168 1.363 . S
C167 H170 0.929 . S
C168 C167 1.363 . S
C168 C174 1.428 . S
H169 C165 0.930 . S
H170 C167 0.929 . S
S171 N172 1.613 1_554 S
S171 N173 1.610 1_554 S
N172 S171 1.613 1_556 S
N172 C175 1.350 . S
N173 S171 1.610 1_556 S
N173 C174 1.351 . S
C174 C168 1.428 . S
C174 N173 1.351 . S
C174 C175 1.434 . S
C175 C166 1.429 . S
C175 N172 1.350 . S
C175 C174 1.434 . S
C176 C177 1.369 . S
C176 C178 1.419 . S
C176 H180 0.930 . S
C177 C176 1.369 . S
C177 C186 1.429 . S
C178 C176 1.419 . S
C178 C179 1.363 . S
C178 H181 0.929 . S
C179 C178 1.363 . S
C179 C185 1.428 . S
H180 C176 0.930 . S
H181 C178 0.929 . S
S182 N183 1.613 . S
S182 N184 1.610 . S
N183 S182 1.613 . S
N183 C186 1.350 . S
N184 S182 1.610 . S
N184 C185 1.351 . S
C185 C179 1.428 . S
C185 N184 1.351 . S
C185 C186 1.434 . S
C186 C177 1.429 . S
C186 N183 1.350 . S
C186 C185 1.434 . S
C187 C188 1.369 . S
C187 C189 1.419 . S
C187 H191 0.930 . S
C188 C187 1.369 . S
C188 C197 1.429 . S
C189 C187 1.419 . S
C189 C190 1.363 . S
C189 H192 0.929 . S
C190 C189 1.363 . S
C190 C196 1.428 . S
H191 C187 0.930 . S
H192 C189 0.929 . S
S193 N194 1.613 . S
S193 N195 1.610 . S
N194 S193 1.613 . S
N194 C197 1.350 . S
N195 S193 1.610 . S
N195 C196 1.351 . S
C196 C190 1.428 . S
C196 N195 1.351 . S
C196 C197 1.434 . S
C197 C188 1.429 . S
C197 N194 1.350 . S
C197 C196 1.434 . S
C198 C199 1.369 . S
C198 C200 1.419 . S
C198 H202 0.930 . S
C199 C198 1.369 . S
C199 C208 1.429 . S
C200 C198 1.419 . S
C200 C201 1.363 . S
C200 H203 0.929 . S
C201 C200 1.363 . S
C201 C207 1.428 . S
H202 C198 0.930 . S
H203 C200 0.929 . S
S204 N205 1.613 . S
S204 N206 1.610 . S
N205 S204 1.613 . S
N205 C208 1.350 . S
N206 S204 1.610 . S
N206 C207 1.351 . S
C207 C201 1.428 . S
C207 N206 1.351 . S
C207 C208 1.434 . S
C208 C199 1.429 . S
C208 N205 1.350 . S
C208 C207 1.434 . S
C209 C210 1.369 1_554 S
C209 C211 1.419 1_545 S
C209 H213 0.930 . S
C210 C209 1.369 1_556 S
C210 C219 1.429 . S
C211 C209 1.419 1_565 S
C211 C212 1.363 . S
C211 H214 0.929 . S
C212 C211 1.363 . S
C212 C218 1.428 1_554 S
H213 C209 0.930 . S
H214 C211 0.929 . S
S215 N216 1.613 . S
S215 N217 1.610 . S
N216 S215 1.613 . S
N216 C219 1.350 1_565 S
N217 S215 1.610 . S
N217 C218 1.351 . S
C218 C212 1.428 1_556 S
C218 N217 1.351 . S
C218 C219 1.434 1_565 S
C219 C210 1.429 . S
C219 N216 1.350 1_545 S
C219 C218 1.434 1_545 S
C220 C221 1.369 1_545 S
C220 C222 1.419 1_655 S
C220 H224 0.930 . S
C221 C220 1.369 1_565 S
C221 C230 1.429 . S
C222 C220 1.419 1_455 S
C222 C223 1.363 . S
C222 H225 0.929 . S
C223 C222 1.363 . S
C223 C229 1.428 1_545 S
H224 C220 0.930 . S
H225 C222 0.929 . S
S226 N227 1.613 1_455 S
S226 N228 1.610 . S
N227 S226 1.613 1_655 S
N227 C230 1.350 . S
N228 S226 1.610 . S
N228 C229 1.351 . S
C229 C223 1.428 1_565 S
C229 N228 1.351 . S
C229 C230 1.434 1_455 S
C230 C221 1.429 . S
C230 N227 1.350 . S
C230 C229 1.434 1_655 S
C231 C232 1.369 . S
C231 C233 1.419 1_554 S
C231 H235 0.930 . S
C232 C231 1.369 . S
C232 C241 1.429 1_655 S
C233 C231 1.419 1_556 S
C233 C234 1.363 1_655 S
C233 H236 0.929 . S
C234 C233 1.363 1_455 S
C234 C240 1.428 . S
H235 C231 0.930 . S
H236 C233 0.929 . S
S237 N238 1.613 . S
S237 N239 1.602 1_554 S
N238 S237 1.613 . S
N238 C241 1.350 . S
N239 S237 1.602 1_556 S
N239 C240 1.351 . S
C240 C234 1.428 . S
C240 N239 1.351 . S
C240 C241 1.434 1_556 S
C241 C232 1.429 1_455 S
C241 N238 1.350 . S
C241 C240 1.434 1_554 S
C133 N5 1.368 . S
C135 N14 1.361 . S
C144 N38 1.369 . S
C146 N47 1.361 . S
C155 N80 1.368 . S
C157 N71 1.362 . S
C166 N113 1.363 . S
C168 N104 1.367 . S
C177 C116 1.480 . S
C179 C17 1.480 . S
C188 C50 1.480 . S
C190 C83 1.481 . S
C199 C8 1.567 . S
C201 C74 1.557 . S
C210 C107 1.547 . S
C212 C41 1.551 . S
C221 C94 1.497 . S
C223 C28 1.505 . S
C232 C61 1.513 . S
C234 C127 1.504 . S
