# Generated by pormake.
# Topology upb, (4)-cn, num edge types: 1
# Building blocks:
#     Node 0, Type 0, BuildingBlock: AZAVOO_clean_sbu_0, # of connection points: 4
#     Node 1, Type 0, BuildingBlock: AZAVOO_clean_sbu_0, # of connection points: 4
#     Node 2, Type 0, BuildingBlock: AZAVOO_clean_sbu_0, # of connection points: 4
#     Node 3, Type 0, BuildingBlock: AZAVOO_clean_sbu_0, # of connection points: 4
#     Node 4, Type 0, BuildingBlock: AZAVOO_clean_sbu_0, # of connection points: 4
#     Node 5, Type 0, BuildingBlock: AZAVOO_clean_sbu_0, # of connection points: 4
#     Node 6, Type 0, BuildingBlock: AZAVOO_clean_sbu_0, # of connection points: 4
#     Node 7, Type 0, BuildingBlock: AZAVOO_clean_sbu_0, # of connection points: 4
#     Node 8, Type 0, BuildingBlock: AZAVOO_clean_sbu_0, # of connection points: 4
#     Node 9, Type 0, BuildingBlock: AZAVOO_clean_sbu_0, # of connection points: 4
#     Node 10, Type 0, BuildingBlock: AZAVOO_clean_sbu_0, # of connection points: 4
#     Node 11, Type 0, BuildingBlock: AZAVOO_clean_sbu_0, # of connection points: 4
#     Node 12, Type 0, BuildingBlock: AZAVOO_clean_sbu_0, # of connection points: 4
#     Node 13, Type 0, BuildingBlock: AZAVOO_clean_sbu_0, # of connection points: 4
#     Node 14, Type 0, BuildingBlock: AZAVOO_clean_sbu_0, # of connection points: 4
#     Node 15, Type 0, BuildingBlock: AZAVOO_clean_sbu_0, # of connection points: 4
#     Edge 16, Type (0, 0), None
#     Edge 17, Type (0, 0), None
#     Edge 18, Type (0, 0), None
#     Edge 19, Type (0, 0), None
#     Edge 20, Type (0, 0), None
#     Edge 21, Type (0, 0), None
#     Edge 22, Type (0, 0), None
#     Edge 23, Type (0, 0), None
#     Edge 24, Type (0, 0), None
#     Edge 25, Type (0, 0), None
#     Edge 26, Type (0, 0), None
#     Edge 27, Type (0, 0), None
#     Edge 28, Type (0, 0), None
#     Edge 29, Type (0, 0), None
#     Edge 30, Type (0, 0), None
#     Edge 31, Type (0, 0), None
#     Edge 32, Type (0, 0), None
#     Edge 33, Type (0, 0), None
#     Edge 34, Type (0, 0), None
#     Edge 35, Type (0, 0), None
#     Edge 36, Type (0, 0), None
#     Edge 37, Type (0, 0), None
#     Edge 38, Type (0, 0), None
#     Edge 39, Type (0, 0), None
#     Edge 40, Type (0, 0), None
#     Edge 41, Type (0, 0), None
#     Edge 42, Type (0, 0), None
#     Edge 43, Type (0, 0), None
#     Edge 44, Type (0, 0), None
#     Edge 45, Type (0, 0), None
#     Edge 46, Type (0, 0), None
#     Edge 47, Type (0, 0), None
# Relax obj value: 0.288
# Max RMSD: 0.144
# Mean RMSD: 0.144
data_MOF--net-upb--node1-AZAVOO_clean_sbu_0--edge1-none
_symmetry_space_group_name_H-M    P1
_symmetry_Int_Tables_number       1
_symmetry_cell_setting            triclinic
loop_
_symmetry_equiv_pos_as_xyz
'x, y, z'
_cell_length_a     16.643714
_cell_length_b     16.643346
_cell_length_c     24.442559
_cell_angle_alpha  89.999882
_cell_angle_beta   90.000113
_cell_angle_gamma 90.00015
loop_
_atom_site_label
_atom_site_type_symbol
_atom_site_fract_x
_atom_site_fract_y
_atom_site_fract_z
_atom_type_partial_charge
Mg0 Mg 0.03784 0.26454 0.33709 0.0
O1 O 0.9265 0.18886 0.33187 0.0
O2 O 0.90475 0.15617 0.24482 0.0
Mg3 Mg 0.0235 0.18162 0.19899 0.0
C4 C 0.88368 0.15689 0.29498 0.0
C5 C 0.0026 0.31975 0.46062 0.0
O6 O 0.07937 0.30585 0.46872 0.0
O7 O -0.01592 0.36187 0.2838 0.0
O8 O 0.0223 0.31981 0.20178 0.0
O9 O 0.10616 0.15623 0.36332 0.0
O10 O 0.0932 0.19244 0.27678 0.0
C11 C 0.01118 0.37667 0.23607 0.0
C12 C 0.11864 0.14112 0.312 0.0
O13 O 0.97413 0.31451 0.41268 0.0
Mg14 Mg 0.685 0.03788 0.33701 0.0
O15 O 0.76076 0.92658 0.33187 0.0
O16 O 0.79349 0.90477 0.24484 0.0
Mg17 Mg 0.76804 0.02347 0.19895 0.0
C18 C 0.79276 0.88374 0.295 0.0
C19 C 0.6299 0.00268 0.46054 0.0
O20 O 0.644 0.07941 0.46863 0.0
O21 O 0.58778 -0.01599 0.2837 0.0
O22 O 0.62984 0.0222 0.20168 0.0
O23 O 0.79326 0.10626 0.36327 0.0
O24 O 0.75714 0.09323 0.27672 0.0
C25 C 0.57298 0.01111 0.23597 0.0
C26 C 0.80842 0.1187 0.31195 0.0
O27 O 0.63497 0.9742 0.4126 0.0
Mg28 Mg 0.91176 0.68508 0.33709 0.0
O29 O 0.0231 0.76077 0.33187 0.0
O30 O 0.04485 0.79346 0.24482 0.0
Mg31 Mg 0.9261 0.768 0.19899 0.0
C32 C 0.06592 0.79273 0.29498 0.0
C33 C 0.947 0.62988 0.46062 0.0
O34 O 0.87024 0.64379 0.46872 0.0
O35 O 0.96552 0.58776 0.2838 0.0
O36 O 0.9273 0.62981 0.20179 0.0
O37 O 0.84344 0.7934 0.36332 0.0
O38 O 0.8564 0.75718 0.27679 0.0
C39 C 0.93842 0.57295 0.23607 0.0
C40 C 0.83097 0.8085 0.312 0.0
O41 O -0.02452 0.63512 0.41268 0.0
Mg42 Mg 0.2646 0.91175 0.33701 0.0
O43 O 0.18885 0.02305 0.33187 0.0
O44 O 0.15611 0.04485 0.24483 0.0
Mg45 Mg 0.18156 0.92615 0.19895 0.0
C46 C 0.15684 0.06589 0.295 0.0
C47 C 0.31971 0.94695 0.46054 0.0
O48 O 0.30562 0.87021 0.46863 0.0
O49 O 0.36182 0.96561 0.2837 0.0
O50 O 0.31976 0.92743 0.20168 0.0
O51 O 0.15634 0.84336 0.36327 0.0
O52 O 0.19246 0.8564 0.27672 0.0
C53 C 0.37663 0.93852 0.23597 0.0
C54 C 0.14118 0.83093 0.31195 0.0
O55 O 0.31463 -0.02457 0.4126 0.0
Mg56 Mg 0.03812 0.68514 0.63084 0.0
O57 O 0.92679 0.76078 0.63607 0.0
O58 O 0.90492 0.79337 0.72313 0.0
Mg59 Mg 0.02368 0.7679 0.76897 0.0
C60 C 0.88391 0.7927 0.67296 0.0
C61 C 0.00289 0.62982 0.50729 0.0
O62 O 0.07971 0.64339 0.49917 0.0
O63 O -0.01566 0.58772 0.68405 0.0
O64 O 0.0226 0.62971 0.76607 0.0
O65 O 0.10637 0.79349 0.60467 0.0
O66 O 0.09344 0.75723 0.6912 0.0
C67 C 0.01141 0.57287 0.73178 0.0
C68 C 0.11883 0.80859 0.65599 0.0
O69 O 0.97441 0.6353 0.55521 0.0
Mg70 Mg 0.26441 0.0381 0.63076 0.0
O71 O 0.18886 0.92672 0.63608 0.0
O72 O 0.15632 0.90491 0.72314 0.0
Mg73 Mg 0.18177 0.02373 0.76893 0.0
C74 C 0.15699 0.88386 0.67298 0.0
C75 C 0.31982 0.00284 0.50721 0.0
O76 O 0.30644 0.07969 0.49909 0.0
O77 O 0.36194 -0.01555 0.68393 0.0
O78 O 0.31996 0.02277 0.76595 0.0
O79 O 0.15599 0.10627 0.60461 0.0
O80 O 0.19236 0.09343 0.69113 0.0
C81 C 0.3768 0.01154 0.73166 0.0
C82 C 0.14095 0.11877 0.65594 0.0
O83 O 0.31418 0.97436 0.55513 0.0
Mg84 Mg 0.9115 0.2645 0.63084 0.0
O85 O 0.02283 0.18886 0.63607 0.0
O86 O 0.04469 0.15627 0.72312 0.0
Mg87 Mg 0.92594 0.18173 0.76897 0.0
C88 C 0.0657 0.15694 0.67296 0.0
C89 C 0.94671 0.31981 0.50729 0.0
O90 O 0.86989 0.30623 0.49917 0.0
O91 O 0.96527 0.36191 0.68405 0.0
O92 O 0.92701 0.31992 0.76607 0.0
O93 O 0.84324 0.15614 0.60467 0.0
O94 O 0.85617 0.19241 0.6912 0.0
C95 C 0.9382 0.37677 0.73178 0.0
C96 C 0.83078 0.14105 0.65599 0.0
O97 O -0.0248 0.31433 0.55521 0.0
Mg98 Mg 0.6852 0.91153 0.63076 0.0
O99 O 0.76075 0.02291 0.63608 0.0
O100 O 0.79329 0.04472 0.72314 0.0
Mg101 Mg 0.76784 0.9259 0.76893 0.0
C102 C 0.79263 0.06577 0.67298 0.0
C103 C 0.62979 0.94679 0.50721 0.0
O104 O 0.64315 0.86993 0.49909 0.0
O105 O 0.58767 0.96518 0.68393 0.0
O106 O 0.62965 0.92686 0.76595 0.0
O107 O 0.79363 0.84337 0.60462 0.0
O108 O 0.75726 0.8562 0.69113 0.0
C109 C 0.57281 0.9381 0.73166 0.0
C110 C 0.80867 0.83087 0.65594 0.0
O111 O 0.63544 -0.02473 0.55513 0.0
Mg112 Mg 0.53733 0.76486 0.83702 0.0
O113 O 0.42609 0.68882 0.83201 0.0
O114 O 0.40441 0.65573 0.74502 0.0
Mg115 Mg 0.52295 0.68131 0.69907 0.0
C116 C 0.38334 0.65661 0.79517 0.0
C117 C 0.50254 0.82024 0.96047 0.0
O118 O 0.57932 0.80621 0.96837 0.0
O119 O 0.48318 0.8617 0.78354 0.0
O120 O 0.52081 0.81951 0.70139 0.0
O121 O 0.60601 0.65684 0.8634 0.0
O122 O 0.59272 0.6927 0.77681 0.0
C123 C 0.51008 0.87638 0.73574 0.0
C124 C 0.61839 0.64158 0.81209 0.0
O125 O 0.4738 0.81506 0.9126 0.0
Mg126 Mg 0.18485 0.53731 0.8371 0.0
O127 O 0.26078 0.42602 0.83201 0.0
O128 O 0.29382 0.4044 0.745 0.0
Mg129 Mg 0.26826 0.523 0.69911 0.0
C130 C 0.29295 0.38328 0.79514 0.0
C131 C 0.12936 0.50248 0.96055 0.0
O132 O 0.14319 0.5793 0.96846 0.0
O133 O 0.08788 0.4833 0.78366 0.0
O134 O 0.13007 0.52099 0.70152 0.0
O135 O 0.29294 0.6059 0.86345 0.0
O136 O 0.25697 0.5927 0.77688 0.0
C137 C 0.07321 0.51021 0.73586 0.0
C138 C 0.30814 0.61831 0.81214 0.0
O139 O 0.13471 0.47375 0.91269 0.0
Mg140 Mg 0.41228 0.18478 0.83702 0.0
O141 O 0.52352 0.26081 0.83201 0.0
O142 O 0.5452 0.2939 0.74502 0.0
Mg143 Mg 0.42666 0.26832 0.69907 0.0
C144 C 0.56627 0.29302 0.79516 0.0
C145 C 0.44707 0.12938 0.96047 0.0
O146 O 0.37028 0.14341 0.96837 0.0
O147 O 0.46643 0.08793 0.78354 0.0
O148 O 0.4288 0.13012 0.7014 0.0
O149 O 0.3436 0.2928 0.8634 0.0
O150 O 0.35689 0.25693 0.77681 0.0
C151 C 0.43953 0.07325 0.73574 0.0
C152 C 0.33123 0.30806 0.81208 0.0
O153 O 0.47581 0.13458 0.9126 0.0
Mg154 Mg 0.76476 0.41232 0.8371 0.0
O155 O 0.68883 0.52361 0.83201 0.0
O156 O 0.65579 0.54524 0.745 0.0
Mg157 Mg 0.68135 0.42664 0.69912 0.0
C158 C 0.65666 0.56635 0.79514 0.0
C159 C 0.82025 0.44714 0.96055 0.0
O160 O 0.80641 0.37033 0.96846 0.0
O161 O 0.86173 0.46633 0.78366 0.0
O162 O 0.81954 0.42865 0.70152 0.0
O163 O 0.65667 0.34373 0.86345 0.0
O164 O 0.69264 0.35693 0.77688 0.0
C165 C 0.87641 0.43942 0.73586 0.0
C166 C 0.64147 0.33132 0.81214 0.0
O167 O 0.8149 0.47588 0.91269 0.0
Mg168 Mg 0.53754 0.18497 0.13075 0.0
O169 O 0.42622 0.26079 0.13592 0.0
O170 O 0.40454 0.29369 0.22295 0.0
Mg171 Mg 0.52319 0.26813 0.2688 0.0
C172 C 0.38345 0.29288 0.1728 0.0
C173 C 0.5027 0.12929 0.00728 0.0
O174 O 0.5796 0.14264 -0.00066 0.0
O175 O 0.48362 0.08781 0.18409 0.0
O176 O 0.5214 0.12994 0.26622 0.0
O177 O 0.60601 0.29315 0.10448 0.0
O178 O 0.59291 0.25705 0.19103 0.0
C179 C 0.51051 0.07309 0.23189 0.0
C180 C 0.61844 0.30829 0.1558 0.0
O181 O 0.47396 0.13501 0.05512 0.0
Mg182 Mg 0.76472 0.53758 0.13083 0.0
O183 O 0.68882 0.4263 0.13592 0.0
O184 O 0.65587 0.40456 0.22294 0.0
Mg185 Mg 0.68144 0.52316 0.26884 0.0
C186 C 0.6567 0.38351 0.17278 0.0
C187 C 0.82031 0.50278 0.00736 0.0
O188 O 0.80677 0.57964 -0.00057 0.0
O189 O 0.86177 0.48354 0.18419 0.0
O190 O 0.81963 0.52129 0.26633 0.0
O191 O 0.65659 0.60611 0.10453 0.0
O192 O 0.6926 0.59294 0.19109 0.0
C193 C 0.87648 0.51043 0.23199 0.0
C194 C 0.6414 0.61851 0.15584 0.0
O195 O 0.81474 0.47403 0.05521 0.0
Mg196 Mg 0.41206 0.76466 0.13075 0.0
O197 O 0.52338 0.68884 0.13592 0.0
O198 O 0.54506 0.65593 0.22295 0.0
Mg199 Mg 0.42642 0.68149 0.2688 0.0
C200 C 0.56616 0.65675 0.1728 0.0
C201 C 0.44691 0.82034 0.00728 0.0
O202 O 0.37001 0.807 -0.00066 0.0
O203 O 0.46598 0.86182 0.18409 0.0
O204 O 0.42821 0.81968 0.26622 0.0
O205 O 0.3436 0.65647 0.10448 0.0
O206 O 0.3567 0.69258 0.19103 0.0
C207 C 0.43909 0.87653 0.23189 0.0
C208 C 0.33116 0.64133 0.15579 0.0
O209 O 0.47564 0.81461 0.05512 0.0
Mg210 Mg 0.18489 0.41204 0.13082 0.0
O211 O 0.26078 0.52333 0.13592 0.0
O212 O 0.29373 0.54506 0.22294 0.0
Mg213 Mg 0.26816 0.42646 0.26884 0.0
C214 C 0.2929 0.56611 0.17278 0.0
C215 C 0.1293 0.44685 0.00736 0.0
O216 O 0.14285 0.36998 -0.00058 0.0
O217 O 0.08783 0.46608 0.18419 0.0
O218 O 0.12997 0.42833 0.26633 0.0
O219 O 0.29302 0.34351 0.10452 0.0
O220 O 0.257 0.35669 0.19109 0.0
C221 C 0.07312 0.43919 0.23199 0.0
C222 C 0.30821 0.33112 0.15584 0.0
O223 O 0.13486 0.47559 0.0552 0.0
loop_
_geom_bond_atom_site_label_1
_geom_bond_atom_site_label_2
_geom_bond_distance
_geom_bond_site_symmetry_2
_ccdc_geom_bond_type
Mg0 O1 2.028 1_455 S
Mg0 O7 1.986 . S
Mg0 O9 2.114 . S
Mg0 O10 2.251 . S
Mg0 O13 2.010 . S
O1 Mg0 2.028 1_655 S
O1 C4 1.250 . S
O2 Mg3 2.028 1_655 S
O2 C4 1.248 . S
Mg3 O2 2.028 1_455 S
Mg3 O8 2.032 . S
Mg3 O10 2.079 . S
C4 O1 1.250 . S
C4 O2 1.248 . S
C5 O6 1.264 . S
C5 O13 1.249 . S
O6 C5 1.264 . S
O7 Mg0 1.986 . S
O7 C11 1.246 . S
O8 Mg3 2.032 . S
O8 C11 1.259 . S
O9 Mg0 2.114 . S
O9 C12 1.252 . S
O10 Mg0 2.251 . S
O10 Mg3 2.079 . S
O10 C12 1.273 . S
C11 O7 1.246 . S
C11 O8 1.259 . S
C12 O9 1.252 . S
C12 O10 1.273 . S
O13 Mg0 2.010 . S
O13 C5 1.249 . S
Mg14 O15 2.028 1_545 S
Mg14 O21 1.986 . S
Mg14 O23 2.114 . S
Mg14 O24 2.251 . S
Mg14 O27 2.010 . S
O15 Mg14 2.028 1_565 S
O15 C18 1.250 . S
O16 Mg17 2.028 1_565 S
O16 C18 1.248 . S
Mg17 O16 2.028 1_545 S
Mg17 O22 2.032 . S
Mg17 O24 2.079 . S
C18 O15 1.250 . S
C18 O16 1.248 . S
C19 O20 1.264 . S
C19 O27 1.249 . S
O20 C19 1.264 . S
O21 Mg14 1.986 . S
O21 C25 1.246 . S
O22 Mg17 2.032 . S
O22 C25 1.259 . S
O23 Mg14 2.114 . S
O23 C26 1.252 . S
O24 Mg14 2.251 . S
O24 Mg17 2.079 . S
O24 C26 1.273 . S
C25 O21 1.246 . S
C25 O22 1.259 . S
C26 O23 1.252 . S
C26 O24 1.273 . S
O27 Mg14 2.010 . S
O27 C19 1.249 . S
Mg28 O29 2.028 1_655 S
Mg28 O35 1.986 . S
Mg28 O37 2.114 . S
Mg28 O38 2.251 . S
Mg28 O41 2.010 . S
O29 Mg28 2.028 1_455 S
O29 C32 1.250 . S
O30 Mg31 2.028 1_455 S
O30 C32 1.248 . S
Mg31 O30 2.028 1_655 S
Mg31 O36 2.032 . S
Mg31 O38 2.079 . S
C32 O29 1.250 . S
C32 O30 1.248 . S
C33 O34 1.264 . S
C33 O41 1.249 . S
O34 C33 1.264 . S
O35 Mg28 1.986 . S
O35 C39 1.246 . S
O36 Mg31 2.032 . S
O36 C39 1.259 . S
O37 Mg28 2.114 . S
O37 C40 1.252 . S
O38 Mg28 2.251 . S
O38 Mg31 2.079 . S
O38 C40 1.273 . S
C39 O35 1.246 . S
C39 O36 1.259 . S
C40 O37 1.252 . S
C40 O38 1.273 . S
O41 Mg28 2.010 . S
O41 C33 1.249 . S
Mg42 O43 2.028 1_565 S
Mg42 O49 1.986 . S
Mg42 O51 2.114 . S
Mg42 O52 2.251 . S
Mg42 O55 2.010 . S
O43 Mg42 2.028 1_545 S
O43 C46 1.250 . S
O44 Mg45 2.028 1_545 S
O44 C46 1.248 . S
Mg45 O44 2.028 1_565 S
Mg45 O50 2.032 . S
Mg45 O52 2.079 . S
C46 O43 1.250 . S
C46 O44 1.248 . S
C47 O48 1.264 . S
C47 O55 1.249 . S
O48 C47 1.264 . S
O49 Mg42 1.986 . S
O49 C53 1.246 . S
O50 Mg45 2.032 . S
O50 C53 1.259 . S
O51 Mg42 2.114 . S
O51 C54 1.252 . S
O52 Mg42 2.251 . S
O52 Mg45 2.079 . S
O52 C54 1.273 . S
C53 O49 1.246 . S
C53 O50 1.259 . S
C54 O51 1.252 . S
C54 O52 1.273 . S
O55 Mg42 2.010 . S
O55 C47 1.249 . S
Mg56 O57 2.028 1_455 S
Mg56 O63 1.986 . S
Mg56 O65 2.114 . S
Mg56 O66 2.251 . S
Mg56 O69 2.010 . S
O57 Mg56 2.028 1_655 S
O57 C60 1.250 . S
O58 Mg59 2.028 1_655 S
O58 C60 1.248 . S
Mg59 O58 2.028 1_455 S
Mg59 O64 2.032 . S
Mg59 O66 2.079 . S
C60 O57 1.250 . S
C60 O58 1.248 . S
C61 O62 1.264 . S
C61 O69 1.249 . S
O62 C61 1.264 . S
O63 Mg56 1.986 . S
O63 C67 1.246 . S
O64 Mg59 2.032 . S
O64 C67 1.259 . S
O65 Mg56 2.114 . S
O65 C68 1.252 . S
O66 Mg56 2.251 . S
O66 Mg59 2.079 . S
O66 C68 1.273 . S
C67 O63 1.246 . S
C67 O64 1.259 . S
C68 O65 1.252 . S
C68 O66 1.273 . S
O69 Mg56 2.010 . S
O69 C61 1.249 . S
Mg70 O71 2.028 1_545 S
Mg70 O77 1.986 . S
Mg70 O79 2.114 . S
Mg70 O80 2.251 . S
Mg70 O83 2.010 . S
O71 Mg70 2.028 1_565 S
O71 C74 1.250 . S
O72 Mg73 2.028 1_565 S
O72 C74 1.248 . S
Mg73 O72 2.028 1_545 S
Mg73 O78 2.032 . S
Mg73 O80 2.079 . S
C74 O71 1.250 . S
C74 O72 1.248 . S
C75 O76 1.264 . S
C75 O83 1.249 . S
O76 C75 1.264 . S
O77 Mg70 1.986 . S
O77 C81 1.246 . S
O78 Mg73 2.032 . S
O78 C81 1.259 . S
O79 Mg70 2.114 . S
O79 C82 1.252 . S
O80 Mg70 2.251 . S
O80 Mg73 2.079 . S
O80 C82 1.273 . S
C81 O77 1.246 . S
C81 O78 1.259 . S
C82 O79 1.252 . S
C82 O80 1.273 . S
O83 Mg70 2.010 . S
O83 C75 1.249 . S
Mg84 O85 2.028 1_655 S
Mg84 O91 1.986 . S
Mg84 O93 2.114 . S
Mg84 O94 2.251 . S
Mg84 O97 2.010 . S
O85 Mg84 2.028 1_455 S
O85 C88 1.250 . S
O86 Mg87 2.028 1_455 S
O86 C88 1.248 . S
Mg87 O86 2.028 1_655 S
Mg87 O92 2.032 . S
Mg87 O94 2.079 . S
C88 O85 1.250 . S
C88 O86 1.248 . S
C89 O90 1.264 . S
C89 O97 1.249 . S
O90 C89 1.264 . S
O91 Mg84 1.986 . S
O91 C95 1.246 . S
O92 Mg87 2.032 . S
O92 C95 1.259 . S
O93 Mg84 2.114 . S
O93 C96 1.252 . S
O94 Mg84 2.251 . S
O94 Mg87 2.079 . S
O94 C96 1.273 . S
C95 O91 1.246 . S
C95 O92 1.259 . S
C96 O93 1.252 . S
C96 O94 1.273 . S
O97 Mg84 2.010 . S
O97 C89 1.249 . S
Mg98 O99 2.028 1_565 S
Mg98 O105 1.986 . S
Mg98 O107 2.114 . S
Mg98 O108 2.251 . S
Mg98 O111 2.010 . S
O99 Mg98 2.028 1_545 S
O99 C102 1.250 . S
O100 Mg101 2.028 1_545 S
O100 C102 1.248 . S
Mg101 O100 2.028 1_565 S
Mg101 O106 2.032 . S
Mg101 O108 2.079 . S
C102 O99 1.250 . S
C102 O100 1.248 . S
C103 O104 1.264 . S
C103 O111 1.249 . S
O104 C103 1.264 . S
O105 Mg98 1.986 . S
O105 C109 1.246 . S
O106 Mg101 2.032 . S
O106 C109 1.259 . S
O107 Mg98 2.114 . S
O107 C110 1.252 . S
O108 Mg98 2.251 . S
O108 Mg101 2.079 . S
O108 C110 1.273 . S
C109 O105 1.246 . S
C109 O106 1.259 . S
C110 O107 1.252 . S
C110 O108 1.273 . S
O111 Mg98 2.010 . S
O111 C103 1.249 . S
Mg112 O113 2.028 . S
Mg112 O119 1.986 . S
Mg112 O121 2.114 . S
Mg112 O122 2.251 . S
Mg112 O125 2.010 . S
O113 Mg112 2.028 . S
O113 C116 1.250 . S
O114 Mg115 2.028 . S
O114 C116 1.248 . S
Mg115 O114 2.028 . S
Mg115 O120 2.032 . S
Mg115 O122 2.079 . S
C116 O113 1.250 . S
C116 O114 1.248 . S
C117 O118 1.264 1_556 S
C117 O125 1.249 . S
O118 C117 1.264 1_554 S
O119 Mg112 1.986 . S
O119 C123 1.246 . S
O120 Mg115 2.032 . S
O120 C123 1.259 . S
O121 Mg112 2.114 . S
O121 C124 1.252 . S
O122 Mg112 2.251 . S
O122 Mg115 2.079 . S
O122 C124 1.273 . S
C123 O119 1.246 . S
C123 O120 1.259 . S
C124 O121 1.252 . S
C124 O122 1.273 . S
O125 Mg112 2.010 . S
O125 C117 1.249 . S
Mg126 O127 2.028 . S
Mg126 O133 1.986 . S
Mg126 O135 2.114 . S
Mg126 O136 2.251 . S
Mg126 O139 2.010 . S
O127 Mg126 2.028 . S
O127 C130 1.250 . S
O128 Mg129 2.028 . S
O128 C130 1.248 . S
Mg129 O128 2.028 . S
Mg129 O134 2.032 . S
Mg129 O136 2.079 . S
C130 O127 1.250 . S
C130 O128 1.248 . S
C131 O132 1.264 1_556 S
C131 O139 1.249 . S
O132 C131 1.264 1_554 S
O133 Mg126 1.986 . S
O133 C137 1.246 . S
O134 Mg129 2.032 . S
O134 C137 1.259 . S
O135 Mg126 2.114 . S
O135 C138 1.252 . S
O136 Mg126 2.251 . S
O136 Mg129 2.079 . S
O136 C138 1.273 . S
C137 O133 1.246 . S
C137 O134 1.259 . S
C138 O135 1.252 . S
C138 O136 1.273 . S
O139 Mg126 2.010 . S
O139 C131 1.249 . S
Mg140 O141 2.028 . S
Mg140 O147 1.986 . S
Mg140 O149 2.114 . S
Mg140 O150 2.251 . S
Mg140 O153 2.010 . S
O141 Mg140 2.028 . S
O141 C144 1.250 . S
O142 Mg143 2.028 . S
O142 C144 1.248 . S
Mg143 O142 2.028 . S
Mg143 O148 2.032 . S
Mg143 O150 2.079 . S
C144 O141 1.250 . S
C144 O142 1.248 . S
C145 O146 1.264 1_556 S
C145 O153 1.249 . S
O146 C145 1.264 1_554 S
O147 Mg140 1.986 . S
O147 C151 1.246 . S
O148 Mg143 2.032 . S
O148 C151 1.259 . S
O149 Mg140 2.114 . S
O149 C152 1.252 . S
O150 Mg140 2.251 . S
O150 Mg143 2.079 . S
O150 C152 1.273 . S
C151 O147 1.246 . S
C151 O148 1.259 . S
C152 O149 1.252 . S
C152 O150 1.273 . S
O153 Mg140 2.010 . S
O153 C145 1.249 . S
Mg154 O155 2.028 . S
Mg154 O161 1.986 . S
Mg154 O163 2.114 . S
Mg154 O164 2.251 . S
Mg154 O167 2.010 . S
O155 Mg154 2.028 . S
O155 C158 1.250 . S
O156 Mg157 2.028 . S
O156 C158 1.248 . S
Mg157 O156 2.028 . S
Mg157 O162 2.032 . S
Mg157 O164 2.079 . S
C158 O155 1.250 . S
C158 O156 1.248 . S
C159 O160 1.264 1_556 S
C159 O167 1.249 . S
O160 C159 1.264 1_554 S
O161 Mg154 1.986 . S
O161 C165 1.246 . S
O162 Mg157 2.032 . S
O162 C165 1.259 . S
O163 Mg154 2.114 . S
O163 C166 1.252 . S
O164 Mg154 2.251 . S
O164 Mg157 2.079 . S
O164 C166 1.273 . S
C165 O161 1.246 . S
C165 O162 1.259 . S
C166 O163 1.252 . S
C166 O164 1.273 . S
O167 Mg154 2.010 . S
O167 C159 1.249 . S
Mg168 O169 2.028 . S
Mg168 O175 1.986 . S
Mg168 O177 2.114 . S
Mg168 O178 2.251 . S
Mg168 O181 2.010 . S
O169 Mg168 2.028 . S
O169 C172 1.250 . S
O170 Mg171 2.028 . S
O170 C172 1.248 . S
Mg171 O170 2.028 . S
Mg171 O176 2.032 . S
Mg171 O178 2.079 . S
C172 O169 1.250 . S
C172 O170 1.248 . S
C173 O174 1.264 1_554 S
C173 O181 1.249 . S
O174 C173 1.264 1_556 S
O175 Mg168 1.986 . S
O175 C179 1.246 . S
O176 Mg171 2.032 . S
O176 C179 1.259 . S
O177 Mg168 2.114 . S
O177 C180 1.252 . S
O178 Mg168 2.251 . S
O178 Mg171 2.079 . S
O178 C180 1.273 . S
C179 O175 1.246 . S
C179 O176 1.259 . S
C180 O177 1.252 . S
C180 O178 1.273 . S
O181 Mg168 2.010 . S
O181 C173 1.249 . S
Mg182 O183 2.028 . S
Mg182 O189 1.986 . S
Mg182 O191 2.114 . S
Mg182 O192 2.251 . S
Mg182 O195 2.010 . S
O183 Mg182 2.028 . S
O183 C186 1.250 . S
O184 Mg185 2.028 . S
O184 C186 1.248 . S
Mg185 O184 2.028 . S
Mg185 O190 2.032 . S
Mg185 O192 2.079 . S
C186 O183 1.250 . S
C186 O184 1.248 . S
C187 O188 1.264 1_554 S
C187 O195 1.249 . S
O188 C187 1.264 1_556 S
O189 Mg182 1.986 . S
O189 C193 1.246 . S
O190 Mg185 2.032 . S
O190 C193 1.259 . S
O191 Mg182 2.114 . S
O191 C194 1.252 . S
O192 Mg182 2.251 . S
O192 Mg185 2.079 . S
O192 C194 1.273 . S
C193 O189 1.246 . S
C193 O190 1.259 . S
C194 O191 1.252 . S
C194 O192 1.273 . S
O195 Mg182 2.010 . S
O195 C187 1.249 . S
Mg196 O197 2.028 . S
Mg196 O203 1.986 . S
Mg196 O205 2.114 . S
Mg196 O206 2.251 . S
Mg196 O209 2.010 . S
O197 Mg196 2.028 . S
O197 C200 1.250 . S
O198 Mg199 2.028 . S
O198 C200 1.248 . S
Mg199 O198 2.028 . S
Mg199 O204 2.032 . S
Mg199 O206 2.079 . S
C200 O197 1.250 . S
C200 O198 1.248 . S
C201 O202 1.264 1_554 S
C201 O209 1.249 . S
O202 C201 1.264 1_556 S
O203 Mg196 1.986 . S
O203 C207 1.246 . S
O204 Mg199 2.032 . S
O204 C207 1.259 . S
O205 Mg196 2.114 . S
O205 C208 1.252 . S
O206 Mg196 2.251 . S
O206 Mg199 2.079 . S
O206 C208 1.273 . S
C207 O203 1.246 . S
C207 O204 1.259 . S
C208 O205 1.252 . S
C208 O206 1.273 . S
O209 Mg196 2.010 . S
O209 C201 1.249 . S
Mg210 O211 2.028 . S
Mg210 O217 1.986 . S
Mg210 O219 2.114 . S
Mg210 O220 2.251 . S
Mg210 O223 2.010 . S
O211 Mg210 2.028 . S
O211 C214 1.250 . S
O212 Mg213 2.028 . S
O212 C214 1.248 . S
Mg213 O212 2.028 . S
Mg213 O218 2.032 . S
Mg213 O220 2.079 . S
C214 O211 1.250 . S
C214 O212 1.248 . S
C215 O216 1.264 1_554 S
C215 O223 1.249 . S
O216 C215 1.264 1_556 S
O217 Mg210 1.986 . S
O217 C221 1.246 . S
O218 Mg213 2.032 . S
O218 C221 1.259 . S
O219 Mg210 2.114 . S
O219 C222 1.252 . S
O220 Mg210 2.251 . S
O220 Mg213 2.079 . S
O220 C222 1.273 . S
C221 O217 1.246 . S
C221 O218 1.259 . S
C222 O219 1.252 . S
C222 O220 1.273 . S
O223 Mg210 2.010 . S
O223 C215 1.249 . S
C12 C46 1.579 . S
C4 C26 1.579 . S
C18 C40 1.579 . S
C32 C54 1.579 . S
C68 C74 1.579 . S
C82 C88 1.579 . S
C96 C102 1.579 . S
C110 C60 1.579 . S
C124 C158 1.579 . S
C116 C138 1.579 . S
C130 C152 1.579 . S
C166 C144 1.579 . S
C186 C180 1.579 . S
C200 C194 1.579 . S
C208 C214 1.579 . S
C222 C172 1.579 . S
C11 C221 1.167 . S
C25 C179 1.167 . S
C193 C39 1.167 . S
C53 C207 1.167 . S
C137 C67 1.167 . S
C151 C81 1.167 . S
C95 C165 1.167 . S
C109 C123 1.167 . S
C5 C89 1.272 1_455 S
C103 C19 1.272 1_565 S
C61 C33 1.272 1_455 S
C75 C47 1.272 1_545 S
C117 C201 1.272 1_556 S
C131 C215 1.272 1_556 S
C173 C145 1.272 1_554 S
C159 C187 1.272 1_556 S
