# Generated by pormake.
# Topology sma, (6)-cn, num edge types: 1
# Building blocks:
#     Node 0, Type 0, BuildingBlock: BETFEN_clean_sbu_0, # of connection points: 6
#     Node 1, Type 0, BuildingBlock: BETFEN_clean_sbu_0, # of connection points: 6
#     Node 2, Type 0, BuildingBlock: BETFEN_clean_sbu_0, # of connection points: 6
#     Edge 3, Type (0, 0), BuildingBlock: AJUNOK_clean_linker_0, # of connection points: 2
#     Edge 4, Type (0, 0), BuildingBlock: AJUNOK_clean_linker_0, # of connection points: 2
#     Edge 5, Type (0, 0), BuildingBlock: AJUNOK_clean_linker_0, # of connection points: 2
#     Edge 6, Type (0, 0), BuildingBlock: AJUNOK_clean_linker_0, # of connection points: 2
#     Edge 7, Type (0, 0), BuildingBlock: AJUNOK_clean_linker_0, # of connection points: 2
#     Edge 8, Type (0, 0), BuildingBlock: AJUNOK_clean_linker_0, # of connection points: 2
#     Edge 9, Type (0, 0), BuildingBlock: AJUNOK_clean_linker_0, # of connection points: 2
#     Edge 10, Type (0, 0), BuildingBlock: AJUNOK_clean_linker_0, # of connection points: 2
#     Edge 11, Type (0, 0), BuildingBlock: AJUNOK_clean_linker_0, # of connection points: 2
# Relax obj value: 0.156
# Max RMSD: 0.277
# Mean RMSD: 0.206
data_MOF--net-sma--node1-BETFEN_clean_sbu_0--edge1-AJUNOK_clean_linker_0
_symmetry_space_group_name_H-M    P1
_symmetry_Int_Tables_number       1
_symmetry_cell_setting            triclinic
loop_
_symmetry_equiv_pos_as_xyz
'x, y, z'
_cell_length_a     23.267672
_cell_length_b     33.526194
_cell_length_c     10.237761
_cell_angle_alpha  90.381964
_cell_angle_beta   95.960443
_cell_angle_gamma 92.780996
loop_
_atom_site_label
_atom_site_type_symbol
_atom_site_fract_x
_atom_site_fract_y
_atom_site_fract_z
_atom_type_partial_charge
Pr0 Pr 0.09884 0.49947 0.0184 0.0
Pr1 Pr 0.10284 0.58966 0.9559 0.0
C2 C 0.08314 0.4282 0.13394 0.0
C3 C 1.04059 0.39581 0.1611 0.0
C4 C 1.04896 0.35683 0.1189 0.0
C5 C 1.0127 0.32488 0.15223 0.0
C6 C 0.96729 0.33108 0.22939 0.0
C7 C 0.95803 0.37029 0.2695 0.0
C8 C 0.99443 0.40237 0.236 0.0
C9 C 0.09478 0.51654 0.75248 0.0
C10 C 0.9742 0.54672 0.95702 0.0
C11 C 0.12407 0.66575 0.88502 0.0
C12 C 0.15909 0.69881 0.95301 0.0
C13 C 0.18281 0.69417 0.08344 0.0
C14 C 0.21287 0.72614 0.15238 0.0
C15 C 0.21964 0.7634 0.09223 0.0
C16 C 0.19763 0.76752 0.95988 0.0
C17 C 0.16736 0.73545 0.89087 0.0
C18 C 0.1077 0.57132 0.22144 0.0
C19 C 0.22531 0.54027 -0.02995 0.0
O20 O 0.08164 0.46249 0.19523 0.0
O21 O 0.09683 0.43173 0.01353 0.0
O22 O 1.06843 0.53457 0.83448 0.0
O23 O 0.12199 0.48658 0.80469 0.0
O24 O 1.00399 0.5757 0.90354 0.0
O25 O 1.0007 0.51675 0.01753 0.0
O26 O 0.15269 0.63603 0.84597 0.0
O27 O 1.07821 0.65394 0.94064 0.0
O28 O 0.13461 0.55432 0.13854 0.0
O29 O 1.08009 0.60089 0.17 0.0
O30 O 0.19959 0.5108 0.03086 0.0
O31 O 0.19617 0.57059 0.92114 0.0
H32 H 0.08452 0.3509 0.06226 0.0
H33 H 1.02124 0.29505 0.12048 0.0
H34 H 0.92276 0.37617 0.32695 0.0
H35 H 0.98685 0.43212 0.27017 0.0
H36 H 0.17722 0.66593 0.13261 0.0
H37 H 0.23048 0.7218 0.25314 0.0
H38 H 0.20237 0.79587 0.91102 0.0
H39 H 0.14955 0.73947 0.79004 0.0
Pr40 Pr 0.6604 0.05061 0.55173 0.0
Pr41 Pr 0.52628 1.0297 0.55838 0.0
C42 C 0.76633 0.07253 0.48622 0.0
C43 C 0.79298 0.111 0.44593 0.0
C44 C 0.8444 0.12651 0.51565 0.0
C45 C 0.86898 0.1636 0.48316 0.0
C46 C 0.84262 0.18609 0.38012 0.0
C47 C 0.79133 0.17044 0.30949 0.0
C48 C 0.76653 0.13341 0.34248 0.0
C49 C 0.62065 0.05563 0.79557 0.0
C50 C 0.5728 0.1244 0.5691 0.0
C51 C 0.41479 1.008 0.57019 0.0
C52 C 0.38087 0.97308 0.50656 0.0
C53 C 0.36093 0.97342 0.37197 0.0
C54 C 0.33512 0.93899 0.30864 0.0
C55 C 0.32844 0.90333 0.37808 0.0
C56 C 0.34785 0.90301 0.51284 0.0
C57 C 0.37338 0.93754 0.57649 0.0
C58 C 0.56929 1.02394 0.31702 0.0
C59 C 0.61612 0.9559 0.6041 0.0
O60 O 0.72597 0.05516 0.40351 0.0
O61 O 0.75437 0.07057 0.60818 0.0
O62 O 0.60453 1.0295 0.70991 0.0
O63 O 0.66425 0.07783 0.76381 0.0
O64 O 0.53384 0.09855 0.61015 0.0
O65 O 0.61919 0.11236 0.51897 0.0
O66 O 0.45515 0.99991 0.66386 0.0
O67 O 0.43136 0.03625 0.49232 0.0
O68 O 0.5821 0.05137 0.4 0.0
O69 O 0.52964 0.99926 0.35294 0.0
O70 O 0.65838 0.97924 0.56252 0.0
O71 O 0.56521 0.96956 0.62189 0.0
H72 H 0.86554 0.10993 0.59586 0.0
H73 H 0.90919 0.17441 0.53755 0.0
H74 H 0.77006 0.18707 0.2296 0.0
H75 H 0.72648 0.12253 0.28753 0.0
H76 H 0.36626 1.00008 0.3144 0.0
H77 H 0.32035 0.94028 0.20494 0.0
H78 H 0.34452 0.87582 0.56866 0.0
H79 H 0.38875 0.93606 0.67984 0.0
Pr80 Pr 0.59382 0.49814 0.85365 0.0
Pr81 Pr 0.59792 0.59334 0.8839 0.0
C82 C 0.57887 0.42035 0.78591 0.0
C83 C 0.57065 0.37743 0.74907 0.0
C84 C 0.57146 0.34798 0.84631 0.0
C85 C 0.56761 0.30736 0.81168 0.0
C86 C 0.56286 0.29525 0.67904 0.0
C87 C 0.56001 0.32478 0.5818 0.0
C88 C 0.5642 0.36538 0.61642 0.0
C89 C 0.61797 0.5281 0.10555 0.0
C90 C 0.72124 0.54405 0.89565 0.0
C91 C 0.62089 0.67192 0.94116 0.0
C92 C 0.6234 0.71235 0.88444 0.0
C93 C 0.6165 0.71875 0.74821 0.0
C94 C 0.61998 0.75777 0.69864 0.0
C95 C 0.63079 0.79098 0.78451 0.0
C96 C 0.63817 0.78404 0.92063 0.0
C97 C 0.6344 0.74528 -0.03027 0.0
C98 C 0.57803 0.56431 0.62951 0.0
C99 C 0.4718 0.54446 0.89424 0.0
O100 O 0.58525 0.44841 0.69965 0.0
O101 O 0.57955 0.433 0.90725 0.0
O102 O 0.58211 0.54166 0.01945 0.0
O103 O 0.6391 0.49531 0.06733 0.0
O104 O 0.69456 0.57519 0.93633 0.0
O105 O 0.69249 0.51186 0.84329 0.0
O106 O 0.57 0.65405 0.94702 0.0
O107 O 0.65999 0.64758 0.9123 0.0
O108 O 0.61209 0.55037 0.71861 0.0
O109 O 0.5566 0.5969 0.66736 0.0
O110 O 0.49502 0.51323 0.84348 0.0
O111 O 0.5033 0.57725 0.93293 0.0
H112 H 0.5764 0.35628 0.94944 0.0
H113 H 0.57006 0.2854 0.88896 0.0
H114 H 0.55491 0.3165 0.47867 0.0
H115 H 0.563 0.38733 0.53914 0.0
H116 H 0.60804 0.69367 0.68051 0.0
H117 H 0.61279 0.76196 0.59355 0.0
H118 H 0.64679 0.80873 -0.01022 0.0
H119 H 0.64018 0.74102 0.07504 0.0
C120 C 0.31931 0.57626 0.93292 0.0
C121 C 0.28843 0.54008 0.95458 0.0
C122 C 0.37836 0.57734 0.91433 0.0
C123 C 0.40904 0.5422 0.91368 0.0
H124 H 0.29779 0.60422 0.93107 0.0
H125 H 0.39995 0.606 0.89859 0.0
S126 S 0.34916 0.43963 -0.03179 0.0
N127 N 0.29374 0.46815 -0.02318 0.0
N128 N 0.40428 0.47008 0.93964 0.0
C129 C 0.37886 0.50576 0.93545 0.0
C130 C 0.31882 0.50473 0.95665 0.0
C131 C 0.87942 0.23198 0.21139 0.0
C132 C 0.87 0.22494 0.34302 0.0
C133 C 0.90947 0.26682 0.17528 0.0
C134 C 0.93098 0.29623 0.26908 0.0
H135 H 0.86504 0.2098 0.13612 0.0
H136 H 0.91659 0.27053 0.07306 0.0
S137 S 0.91424 0.29346 0.62571 0.0
N138 N 0.8814 0.25142 0.56634 0.0
N139 N 0.93881 0.3165 0.49911 0.0
C140 C 0.92014 0.29019 0.40046 0.0
C141 C 0.88959 0.25464 0.43725 0.0
C142 C 0.59733 0.90074 0.75719 0.0
C143 C 0.6256 0.91441 0.64952 0.0
C144 C 0.5997 0.86118 0.79912 0.0
C145 C 0.6304 0.83303 0.73552 0.0
H146 H 0.57246 0.92082 0.80972 0.0
H147 H 0.57613 0.85243 0.88106 0.0
S148 S 0.71336 0.85352 0.45 0.0
N149 N 0.68627 0.89685 0.48101 0.0
N150 N 0.69121 0.82206 0.56014 0.0
C151 C 0.65965 0.84629 0.62836 0.0
C152 C 0.65746 0.88705 0.58589 0.0
C153 C 0.81539 0.51042 0.94065 0.0
C154 C 0.78554 0.5453 0.91103 0.0
C155 C 0.87625 0.51122 0.95744 0.0
C156 C 0.90971 0.54676 0.94231 0.0
H157 H 0.79155 0.48235 0.95278 0.0
H158 H 0.89715 0.4836 -0.01921 0.0
S159 S 0.85207 0.64603 0.85979 0.0
N160 N 0.79384 0.6162 0.86527 0.0
N161 N 0.90768 0.61774 0.89382 0.0
C162 C 0.88015 0.58176 0.9111 0.0
C163 C 0.81829 0.58103 0.89636 0.0
C164 C 0.31792 0.85546 0.18593 0.0
C165 C 0.30146 0.86669 0.30912 0.0
C166 C 0.29164 0.82193 0.11681 0.0
C167 C 0.24809 0.79819 0.16846 0.0
H168 H 0.35155 0.87268 0.14262 0.0
H169 H 0.30573 0.81441 0.0225 0.0
S170 S 0.18737 0.81559 0.48405 0.0
N171 N 0.23747 0.85191 0.47763 0.0
N172 N 0.18849 0.78885 0.34841 0.0
C173 C 0.23136 0.80896 0.29159 0.0
C174 C 0.25795 0.84315 0.36174 0.0
C175 C 0.52813 0.22349 0.70289 0.0
C176 C 0.56305 0.25201 0.64301 0.0
C177 C 0.52986 0.18245 0.67496 0.0
C178 C 0.56698 0.16818 0.5868 0.0
H179 H 0.49943 0.23296 0.77266 0.0
H180 H 0.50303 0.16173 0.72579 0.0
S181 S 0.66699 0.23066 0.4028 0.0
N182 N 0.63581 0.263 0.49128 0.0
N183 N 0.63845 0.18641 0.43683 0.0
C184 C 0.60134 0.19655 0.52438 0.0
C185 C 0.59951 0.23825 0.55285 0.0
C186 C 0.13842 0.51589 0.54013 0.0
C187 C 0.09554 0.52899 0.61509 0.0
C188 C 0.14209 0.52964 0.41212 0.0
C189 C 0.10302 0.55691 0.3555 0.0
H190 H 0.17004 0.49554 0.58143 0.0
H191 H 0.17615 0.51923 0.35786 0.0
S192 S 0.97907 0.59691 0.50618 0.0
N193 N 1.0106 0.56831 0.62003 0.0
N194 N 1.01773 0.59433 0.38034 0.0
C195 C 1.05899 0.56934 0.42818 0.0
C196 C 1.05516 0.55528 0.55792 0.0
C197 C 0.63751 1.02829 0.14948 0.0
C198 C 0.58054 1.02899 0.18162 0.0
C199 C 0.65097 0.03917 0.02469 0.0
C200 C 0.60732 0.05026 0.9292 0.0
H201 H 0.67155 1.01873 0.22036 0.0
H202 H 0.69522 0.03767 0.00148 0.0
S203 S 0.45127 0.05564 -0.03551 0.0
N204 N 0.48018 0.04124 0.10977 0.0
N205 N 0.50525 0.06047 0.87195 0.0
C206 C 0.54999 0.05016 0.95908 0.0
C207 C 0.5365 0.03964 0.08659 0.0
C208 C 0.58634 0.51644 0.45168 0.0
C209 C 0.58523 0.5562 0.49341 0.0
C210 C 0.60111 0.50724 0.32731 0.0
C211 C 0.61457 0.53784 0.24171 0.0
H212 H 0.57505 0.49238 0.51478 0.0
H213 H 0.59961 0.47621 0.29619 0.0
S214 S 0.62052 0.64674 0.30636 0.0
N215 N 0.60106 0.62645 0.44266 0.0
N216 N 0.6275 0.60906 0.20534 0.0
C217 C 0.61392 0.57776 0.28198 0.0
C218 C 0.59928 0.58708 0.40905 0.0
loop_
_geom_bond_atom_site_label_1
_geom_bond_atom_site_label_2
_geom_bond_distance
_geom_bond_site_symmetry_2
_ccdc_geom_bond_type
Pr0 C2 2.880 1_455 S
Pr0 O20 2.562 1_455 S
Pr0 O21 2.490 1_455 S
Pr0 O22 2.695 1_554 S
Pr0 O23 2.512 1_554 S
Pr0 O25 2.437 1_455 S
Pr0 O28 2.436 . S
Pr0 O30 2.438 . S
Pr1 C11 2.880 . S
Pr1 O22 2.436 1_554 S
Pr1 O24 2.438 1_455 S
Pr1 O26 2.562 . S
Pr1 O27 2.490 . S
Pr1 O28 2.695 . S
Pr1 O29 2.512 . S
Pr1 O31 2.437 . S
C2 Pr0 2.880 1_655 S
C2 C3 1.491 . S
C2 O20 1.254 . S
C2 O21 1.225 . S
C3 C2 1.491 . S
C3 C4 1.392 . S
C3 C8 1.356 . S
C4 C3 1.392 . S
C4 C5 1.368 . S
C4 H32 0.929 1_554 S
C5 C4 1.368 . S
C5 C6 1.386 . S
C5 H33 0.929 1_554 S
C6 C5 1.386 . S
C6 C7 1.373 . S
C7 C6 1.373 . S
C7 C8 1.409 . S
C7 H34 0.931 . S
C8 C3 1.356 . S
C8 C7 1.409 . S
C8 H35 0.930 . S
C9 O22 1.270 . S
C9 O23 1.248 . S
C10 O24 1.267 . S
C10 O25 1.278 . S
C11 Pr1 2.880 . S
C11 C12 1.491 . S
C11 O26 1.254 . S
C11 O27 1.225 . S
C12 C11 1.491 . S
C12 C13 1.392 . S
C12 C17 1.356 1_554 S
C13 C12 1.392 . S
C13 C14 1.368 . S
C13 H36 0.929 . S
C14 C13 1.368 . S
C14 C15 1.386 . S
C14 H37 0.929 . S
C15 C14 1.386 . S
C15 C16 1.373 1_554 S
C16 C15 1.373 1_556 S
C16 C17 1.409 . S
C16 H38 0.931 . S
C17 C12 1.356 1_556 S
C17 C16 1.409 . S
C17 H39 0.930 . S
C18 O28 1.270 . S
C18 O29 1.248 . S
C19 O30 1.267 . S
C19 O31 1.278 . S
O20 Pr0 2.562 1_655 S
O20 C2 1.254 . S
O21 Pr0 2.490 1_655 S
O21 C2 1.225 . S
O22 Pr0 2.695 1_556 S
O22 Pr1 2.436 1_556 S
O22 C9 1.270 . S
O23 Pr0 2.512 1_556 S
O23 C9 1.248 . S
O24 Pr1 2.438 1_655 S
O24 C10 1.267 . S
O25 Pr0 2.437 1_655 S
O25 C10 1.278 . S
O26 Pr1 2.562 . S
O26 C11 1.254 . S
O27 Pr1 2.490 . S
O27 C11 1.225 . S
O28 Pr0 2.436 . S
O28 Pr1 2.695 . S
O28 C18 1.270 . S
O29 Pr1 2.512 . S
O29 C18 1.248 . S
O30 Pr0 2.438 . S
O30 C19 1.267 . S
O31 Pr1 2.437 . S
O31 C19 1.278 . S
H32 C4 0.929 1_556 S
H33 C5 0.929 1_556 S
H34 C7 0.931 . S
H35 C8 0.930 . S
H36 C13 0.929 . S
H37 C14 0.929 . S
H38 C16 0.931 . S
H39 C17 0.930 . S
Pr40 C42 2.880 . S
Pr40 O60 2.562 . S
Pr40 O61 2.490 . S
Pr40 O62 2.695 . S
Pr40 O63 2.512 . S
Pr40 O65 2.437 . S
Pr40 O68 2.436 . S
Pr40 O70 2.438 1_545 S
Pr41 C51 2.880 1_545 S
Pr41 O62 2.436 . S
Pr41 O64 2.438 . S
Pr41 O66 2.562 1_545 S
Pr41 O67 2.490 1_545 S
Pr41 O68 2.695 . S
Pr41 O69 2.512 . S
Pr41 O71 2.437 1_545 S
C42 Pr40 2.880 . S
C42 C43 1.491 . S
C42 O60 1.254 . S
C42 O61 1.225 . S
C43 C42 1.491 . S
C43 C44 1.392 . S
C43 C48 1.356 . S
C44 C43 1.392 . S
C44 C45 1.368 . S
C44 H72 0.929 . S
C45 C44 1.368 . S
C45 C46 1.386 . S
C45 H73 0.929 . S
C46 C45 1.386 . S
C46 C47 1.373 . S
C47 C46 1.373 . S
C47 C48 1.409 . S
C47 H74 0.931 . S
C48 C43 1.356 . S
C48 C47 1.409 . S
C48 H75 0.930 . S
C49 O62 1.270 . S
C49 O63 1.248 . S
C50 O64 1.267 . S
C50 O65 1.278 . S
C51 Pr41 2.880 1_565 S
C51 C52 1.491 . S
C51 O66 1.254 . S
C51 O67 1.225 . S
C52 C51 1.491 . S
C52 C53 1.392 . S
C52 C57 1.356 . S
C53 C52 1.392 . S
C53 C54 1.368 . S
C53 H76 0.929 . S
C54 C53 1.368 . S
C54 C55 1.386 . S
C54 H77 0.929 . S
C55 C54 1.386 . S
C55 C56 1.373 . S
C56 C55 1.373 . S
C56 C57 1.409 . S
C56 H78 0.931 . S
C57 C52 1.356 . S
C57 C56 1.409 . S
C57 H79 0.930 . S
C58 O68 1.270 . S
C58 O69 1.248 . S
C59 O70 1.267 . S
C59 O71 1.278 . S
O60 Pr40 2.562 . S
O60 C42 1.254 . S
O61 Pr40 2.490 . S
O61 C42 1.225 . S
O62 Pr40 2.695 . S
O62 Pr41 2.436 . S
O62 C49 1.270 . S
O63 Pr40 2.512 . S
O63 C49 1.248 . S
O64 Pr41 2.438 . S
O64 C50 1.267 . S
O65 Pr40 2.437 . S
O65 C50 1.278 . S
O66 Pr41 2.562 1_565 S
O66 C51 1.254 . S
O67 Pr41 2.490 1_565 S
O67 C51 1.225 . S
O68 Pr40 2.436 . S
O68 Pr41 2.695 . S
O68 C58 1.270 . S
O69 Pr41 2.512 . S
O69 C58 1.248 . S
O70 Pr40 2.438 1_565 S
O70 C59 1.267 . S
O71 Pr41 2.437 1_565 S
O71 C59 1.278 . S
H72 C44 0.929 . S
H73 C45 0.929 . S
H74 C47 0.931 . S
H75 C48 0.930 . S
H76 C53 0.929 . S
H77 C54 0.929 . S
H78 C56 0.931 . S
H79 C57 0.930 . S
Pr80 C82 2.880 . S
Pr80 O100 2.562 . S
Pr80 O101 2.490 . S
Pr80 O102 2.695 1_556 S
Pr80 O103 2.512 1_556 S
Pr80 O105 2.437 . S
Pr80 O108 2.436 . S
Pr80 O110 2.438 . S
Pr81 C91 2.880 . S
Pr81 O102 2.436 1_556 S
Pr81 O104 2.438 . S
Pr81 O106 2.562 . S
Pr81 O107 2.490 . S
Pr81 O108 2.695 . S
Pr81 O109 2.512 . S
Pr81 O111 2.437 . S
C82 Pr80 2.880 . S
C82 C83 1.491 . S
C82 O100 1.254 . S
C82 O101 1.225 . S
C83 C82 1.491 . S
C83 C84 1.392 . S
C83 C88 1.356 . S
C84 C83 1.392 . S
C84 C85 1.368 . S
C84 H112 0.929 1_556 S
C85 C84 1.368 . S
C85 C86 1.386 . S
C85 H113 0.929 . S
C86 C85 1.386 . S
C86 C87 1.373 . S
C87 C86 1.373 . S
C87 C88 1.409 . S
C87 H114 0.931 . S
C88 C83 1.356 . S
C88 C87 1.409 . S
C88 H115 0.930 . S
C89 O102 1.270 . S
C89 O103 1.248 . S
C90 O104 1.267 . S
C90 O105 1.278 . S
C91 Pr81 2.880 . S
C91 C92 1.491 . S
C91 O106 1.254 . S
C91 O107 1.225 . S
C92 C91 1.491 . S
C92 C93 1.392 . S
C92 C97 1.356 . S
C93 C92 1.392 . S
C93 C94 1.368 . S
C93 H116 0.929 . S
C94 C93 1.368 . S
C94 C95 1.386 . S
C94 H117 0.929 . S
C95 C94 1.386 . S
C95 C96 1.373 . S
C96 C95 1.373 . S
C96 C97 1.409 . S
C96 H118 0.931 1_556 S
C97 C92 1.356 . S
C97 C96 1.409 . S
C97 H119 0.930 1_556 S
C98 O108 1.270 . S
C98 O109 1.248 . S
C99 O110 1.267 . S
C99 O111 1.278 . S
O100 Pr80 2.562 . S
O100 C82 1.254 . S
O101 Pr80 2.490 . S
O101 C82 1.225 . S
O102 Pr80 2.695 1_554 S
O102 Pr81 2.436 1_554 S
O102 C89 1.270 . S
O103 Pr80 2.512 1_554 S
O103 C89 1.248 . S
O104 Pr81 2.438 . S
O104 C90 1.267 . S
O105 Pr80 2.437 . S
O105 C90 1.278 . S
O106 Pr81 2.562 . S
O106 C91 1.254 . S
O107 Pr81 2.490 . S
O107 C91 1.225 . S
O108 Pr80 2.436 . S
O108 Pr81 2.695 . S
O108 C98 1.270 . S
O109 Pr81 2.512 . S
O109 C98 1.248 . S
O110 Pr80 2.438 . S
O110 C99 1.267 . S
O111 Pr81 2.437 . S
O111 C99 1.278 . S
H112 C84 0.929 1_554 S
H113 C85 0.929 . S
H114 C87 0.931 . S
H115 C88 0.930 . S
H116 C93 0.929 . S
H117 C94 0.929 . S
H118 C96 0.931 1_554 S
H119 C97 0.930 1_554 S
C120 C121 1.369 . S
C120 C122 1.419 1_554 S
C120 H124 0.930 . S
C121 C120 1.369 . S
C121 C130 1.429 1_554 S
C122 C120 1.419 1_556 S
C122 C123 1.363 . S
C122 H125 0.929 . S
C123 C122 1.363 . S
C123 C129 1.428 . S
H124 C120 0.930 . S
H125 C122 0.929 . S
S126 N127 1.613 . S
S126 N128 1.610 . S
N127 S126 1.613 . S
N127 C130 1.350 . S
N128 S126 1.610 . S
N128 C129 1.351 . S
C129 C123 1.428 . S
C129 N128 1.351 . S
C129 C130 1.434 . S
C130 C121 1.429 1_556 S
C130 N127 1.350 . S
C130 C129 1.434 . S
C131 C132 1.369 . S
C131 C133 1.419 . S
C131 H135 0.930 . S
C132 C131 1.369 . S
C132 C141 1.429 . S
C133 C131 1.419 . S
C133 C134 1.363 . S
C133 H136 0.929 . S
C134 C133 1.363 . S
C134 C140 1.428 . S
H135 C131 0.930 . S
H136 C133 0.929 . S
S137 N138 1.613 . S
S137 N139 1.610 . S
N138 S137 1.613 . S
N138 C141 1.350 . S
N139 S137 1.610 . S
N139 C140 1.351 . S
C140 C134 1.428 . S
C140 N139 1.351 . S
C140 C141 1.434 . S
C141 C132 1.429 . S
C141 N138 1.350 . S
C141 C140 1.434 . S
C142 C143 1.369 . S
C142 C144 1.419 . S
C142 H146 0.930 . S
C143 C142 1.369 . S
C143 C152 1.429 . S
C144 C142 1.419 . S
C144 C145 1.363 . S
C144 H147 0.929 . S
C145 C144 1.363 . S
C145 C151 1.428 . S
H146 C142 0.930 . S
H147 C144 0.929 . S
S148 N149 1.613 . S
S148 N150 1.610 . S
N149 S148 1.613 . S
N149 C152 1.350 . S
N150 S148 1.610 . S
N150 C151 1.351 . S
C151 C145 1.428 . S
C151 N150 1.351 . S
C151 C152 1.434 . S
C152 C143 1.429 . S
C152 N149 1.350 . S
C152 C151 1.434 . S
C153 C154 1.369 1_554 S
C153 C155 1.419 . S
C153 H157 0.930 . S
C154 C153 1.369 1_556 S
C154 C163 1.429 . S
C155 C153 1.419 . S
C155 C156 1.363 . S
C155 H158 0.929 . S
C156 C155 1.363 . S
C156 C162 1.428 1_554 S
H157 C153 0.930 . S
H158 C155 0.929 . S
S159 N160 1.613 . S
S159 N161 1.610 . S
N160 S159 1.613 . S
N160 C163 1.350 . S
N161 S159 1.610 . S
N161 C162 1.351 . S
C162 C156 1.428 1_556 S
C162 N161 1.351 . S
C162 C163 1.434 . S
C163 C154 1.429 . S
C163 N160 1.350 . S
C163 C162 1.434 . S
C164 C165 1.369 . S
C164 C166 1.419 . S
C164 H168 0.930 . S
C165 C164 1.369 . S
C165 C174 1.429 . S
C166 C164 1.419 . S
C166 C167 1.363 . S
C166 H169 0.929 . S
C167 C166 1.363 . S
C167 C173 1.428 . S
H168 C164 0.930 . S
H169 C166 0.929 . S
S170 N171 1.613 . S
S170 N172 1.610 . S
N171 S170 1.613 . S
N171 C174 1.350 . S
N172 S170 1.610 . S
N172 C173 1.351 . S
C173 C167 1.428 . S
C173 N172 1.351 . S
C173 C174 1.434 . S
C174 C165 1.429 . S
C174 N171 1.350 . S
C174 C173 1.434 . S
C175 C176 1.369 . S
C175 C177 1.419 . S
C175 H179 0.930 . S
C176 C175 1.369 . S
C176 C185 1.429 . S
C177 C175 1.419 . S
C177 C178 1.363 . S
C177 H180 0.929 . S
C178 C177 1.363 . S
C178 C184 1.428 . S
H179 C175 0.930 . S
H180 C177 0.929 . S
S181 N182 1.613 . S
S181 N183 1.610 . S
N182 S181 1.613 . S
N182 C185 1.350 . S
N183 S181 1.610 . S
N183 C184 1.351 . S
C184 C178 1.428 . S
C184 N183 1.351 . S
C184 C185 1.434 . S
C185 C176 1.429 . S
C185 N182 1.350 . S
C185 C184 1.434 . S
C186 C187 1.369 . S
C186 C188 1.419 . S
C186 H190 0.930 . S
C187 C186 1.369 . S
C187 C196 1.429 1_455 S
C188 C186 1.419 . S
C188 C189 1.363 . S
C188 H191 0.929 . S
C189 C188 1.363 . S
C189 C195 1.428 1_455 S
H190 C186 0.930 . S
H191 C188 0.929 . S
S192 N193 1.613 . S
S192 N194 1.610 . S
N193 S192 1.613 . S
N193 C196 1.350 . S
N194 S192 1.610 . S
N194 C195 1.351 . S
C195 C189 1.428 1_655 S
C195 N194 1.351 . S
C195 C196 1.434 . S
C196 C187 1.429 1_655 S
C196 N193 1.350 . S
C196 C195 1.434 . S
C197 C198 1.369 . S
C197 C199 1.419 1_554 S
C197 H201 0.930 . S
C198 C197 1.369 . S
C198 C207 1.429 . S
C199 C197 1.419 1_556 S
C199 C200 1.363 . S
C199 H202 0.929 . S
C200 C199 1.363 . S
C200 C206 1.428 . S
H201 C197 0.930 . S
H202 C199 0.929 . S
S203 N204 1.613 1_565 S
S203 N205 1.609 1_564 S
N204 S203 1.613 1_545 S
N204 C207 1.350 . S
N205 S203 1.609 1_546 S
N205 C206 1.355 . S
C206 C200 1.428 . S
C206 N205 1.355 . S
C206 C207 1.434 1_556 S
C207 C198 1.429 . S
C207 N204 1.350 . S
C207 C206 1.434 1_554 S
C208 C209 1.369 . S
C208 C210 1.419 . S
C208 H212 0.930 . S
C209 C208 1.369 . S
C209 C218 1.429 . S
C210 C208 1.419 . S
C210 C211 1.363 . S
C210 H213 0.929 . S
C211 C210 1.363 . S
C211 C217 1.428 . S
H212 C208 0.930 . S
H213 C210 0.929 . S
S214 N215 1.613 . S
S214 N216 1.610 . S
N215 S214 1.613 . S
N215 C218 1.350 . S
N216 S214 1.610 . S
N216 C217 1.351 . S
C217 C211 1.428 . S
C217 N216 1.351 . S
C217 C218 1.434 . S
C218 C209 1.429 . S
C218 N215 1.350 . S
C218 C217 1.434 . S
C121 C19 2.957 . S
C123 C99 2.876 . S
C132 C46 1.659 . S
C134 C6 1.661 . S
C143 C59 2.768 . S
C145 C95 2.575 . S
C154 C90 2.617 . S
C156 C10 2.682 . S
C165 C55 1.707 . S
C167 C15 1.693 . S
C176 C86 2.318 . S
C178 C50 2.354 . S
C187 C9 0.752 . S
C189 C18 0.767 . S
C198 C58 0.754 . S
C200 C49 0.770 . S
C209 C98 0.758 . S
C211 C89 0.774 . S
