# Generated by pormake.
# Topology sxc, (6)-cn, num edge types: 1
# Building blocks:
#     Node 0, Type 0, BuildingBlock: UKALOJ_clean_sbu_0, # of connection points: 6
#     Node 1, Type 0, BuildingBlock: UKALOJ_clean_sbu_0, # of connection points: 6
#     Node 2, Type 0, BuildingBlock: UKALOJ_clean_sbu_0, # of connection points: 6
#     Edge 3, Type (0, 0), BuildingBlock: AJUNOK_clean_linker_0, # of connection points: 2
#     Edge 4, Type (0, 0), BuildingBlock: AJUNOK_clean_linker_0, # of connection points: 2
#     Edge 5, Type (0, 0), BuildingBlock: AJUNOK_clean_linker_0, # of connection points: 2
#     Edge 6, Type (0, 0), BuildingBlock: AJUNOK_clean_linker_0, # of connection points: 2
#     Edge 7, Type (0, 0), BuildingBlock: AJUNOK_clean_linker_0, # of connection points: 2
#     Edge 8, Type (0, 0), BuildingBlock: AJUNOK_clean_linker_0, # of connection points: 2
#     Edge 9, Type (0, 0), BuildingBlock: AJUNOK_clean_linker_0, # of connection points: 2
#     Edge 10, Type (0, 0), BuildingBlock: AJUNOK_clean_linker_0, # of connection points: 2
#     Edge 11, Type (0, 0), BuildingBlock: AJUNOK_clean_linker_0, # of connection points: 2
# Relax obj value: 0.104
# Max RMSD: 0.184
# Mean RMSD: 0.184
data_MOF--net-sxc--node1-UKALOJ_clean_sbu_0--edge1-AJUNOK_clean_linker_0
_symmetry_space_group_name_H-M    P1
_symmetry_Int_Tables_number       1
_symmetry_cell_setting            triclinic
loop_
_symmetry_equiv_pos_as_xyz
'x, y, z'
_cell_length_a     11.092901
_cell_length_b     11.122624
_cell_length_c     48.196885
_cell_angle_alpha  90.014265
_cell_angle_beta   90.472364
_cell_angle_gamma 119.99682
loop_
_atom_site_label
_atom_site_type_symbol
_atom_site_fract_x
_atom_site_fract_y
_atom_site_fract_z
_atom_type_partial_charge
Zn0 Zn 0.9467 0.06586 1.01525 0.0
O1 O -0.00548 0.90342 1.01418 0.0
C2 C 0.67727 0.85435 0.03689 0.0
Zn3 Zn 0.95017 0.07055 0.06138 0.0
C4 C 0.00428 0.85364 0.03732 0.0
O5 O 0.00308 0.91397 0.0596 0.0
C6 C 0.89234 0.28265 0.04014 0.0
O7 O 0.16119 0.23267 0.06191 0.0
O8 O 0.15684 0.22188 1.01651 0.0
N9 N 0.9443 0.05328 0.10385 0.0
C10 C 0.01494 0.14062 0.12499 0.0
C11 C 0.88105 0.94216 0.14259 0.0
N12 N 0.86079 0.93035 0.11493 0.0
N13 N -0.02229 0.07297 0.14951 0.0
C14 C 0.92313 -0.00459 0.95129 0.0
C15 C -0.01188 0.19567 0.93451 0.0
N16 N 0.95112 0.08323 0.97288 0.0
N17 N -0.00867 0.20732 0.96229 0.0
N18 N 0.94517 0.06364 0.92694 0.0
H19 H -0.03993 0.82541 0.95507 0.0
H20 H 0.80366 0.78515 0.93609 0.0
H21 H 0.81028 0.80289 0.97353 0.0
C22 C 0.87018 0.84306 0.95416 0.0
C23 C 0.11472 0.29259 0.12164 0.0
H24 H 0.21895 0.30807 0.11682 0.0
H25 H 0.12239 0.35024 0.14098 0.0
H26 H 0.08183 0.33463 0.10416 0.0
O27 O 0.89681 0.22693 0.06286 0.0
O28 O 0.89942 0.22856 1.01742 0.0
C29 C 0.2197 0.28228 0.03881 0.0
O30 O 0.73644 0.91012 1.01422 0.0
O31 O 0.73965 0.90834 0.05967 0.0
Zn32 Zn 0.21591 0.1625 0.34851 0.0
O33 O 0.00452 0.1076 0.34911 0.0
C34 C 0.27406 0.43288 0.3709 0.0
Zn35 Zn 0.22326 0.16413 0.39463 0.0
C36 C 0.94797 0.10553 0.3721 0.0
O37 O 0.01349 0.11759 0.39467 0.0
C38 C 0.48985 0.21808 0.37095 0.0
O39 O 0.17161 0.95441 0.39542 0.0
O40 O 0.1689 0.9533 0.34993 0.0
N41 N 0.23435 0.17822 0.43702 0.0
C42 C 0.15629 0.09271 0.45749 0.0
C43 C 0.31359 0.27897 0.47666 0.0
N44 N 0.33214 0.29361 0.44903 0.0
N45 N 0.20474 0.15332 0.48247 0.0
C46 C 0.15255 0.18179 0.2852 0.0
C47 C 0.2749 0.10507 0.26675 0.0
N48 N 0.21601 0.1526 0.30601 0.0
N49 N 0.2919 0.10514 0.29439 0.0
N50 N 0.18827 0.15314 0.26029 0.0
H51 H 0.0849 0.30148 0.309 0.0
H52 H 0.95039 0.1569 0.29016 0.0
H53 H 0.06971 0.3109 0.2717 0.0
C54 C 0.05989 0.24232 0.28929 0.0
C55 C 0.02897 0.9537 0.45311 0.0
H56 H -0.00853 0.9395 0.43135 0.0
H57 H 0.94529 0.94175 0.46727 0.0
H58 H 0.05404 0.87147 0.45829 0.0
O59 O 0.43266 0.21158 0.39404 0.0
O60 O 0.42699 0.21535 0.34862 0.0
C61 C 0.16409 0.89313 0.37266 0.0
O62 O 0.26358 0.37265 0.34783 0.0
O63 O 0.27513 0.37291 0.39322 0.0
Zn64 Zn -0.00896 0.94692 0.72546 0.0
O65 O 0.82886 -0.00441 0.72806 0.0
C66 C 0.77611 0.68143 0.70262 0.0
Zn67 Zn -0.01083 0.95658 0.67925 0.0
C68 C 0.77273 0.00383 0.70551 0.0
O69 O 0.82763 0.00351 0.68253 0.0
C70 C 0.20429 0.89545 0.69897 0.0
O71 O 0.1438 0.16615 0.67886 0.0
O72 O 0.15261 0.15888 0.72419 0.0
N73 N -0.03304 0.9544 0.63688 0.0
C74 C 0.05646 -0.00716 0.61551 0.0
C75 C 0.85572 0.93097 0.59841 0.0
N76 N 0.84238 0.91545 0.62612 0.0
N77 N -0.01123 -0.02191 0.59123 0.0
C78 C 0.93588 0.92744 0.79009 0.0
C79 C 0.14229 0.00442 0.80549 0.0
N80 N 0.01856 0.95346 0.76789 0.0
N81 N 0.14653 0.00051 0.77763 0.0
N82 N 0.01128 0.95954 0.81391 0.0
H83 H 0.73897 0.78144 0.77228 0.0
H84 H 0.75586 0.94488 0.78251 0.0
H85 H 0.73226 0.81857 0.80859 0.0
C86 C 0.78137 0.86377 0.7884 0.0
C87 C 0.21009 0.04951 0.61841 0.0
H88 H 0.26697 0.1227 0.60136 0.0
H89 H 0.23142 0.96223 0.6173 0.0
H90 H 0.24915 0.10261 0.63862 0.0
O91 O 0.15211 0.91007 0.67652 0.0
O92 O 0.14898 0.89524 0.72194 0.0
C93 C 0.20267 0.22365 0.70164 0.0
O94 O 0.83118 0.7371 0.72586 0.0
O95 O 0.83199 0.74613 0.68037 0.0
C96 C 0.93317 0.49631 1.01478 0.0
C97 C 0.90958 0.42419 0.04003 0.0
C98 C -0.02971 0.63674 1.01414 0.0
C99 C -0.01386 0.71181 0.03872 0.0
H100 H 0.92524 0.44474 0.99522 0.0
H101 H -0.01495 0.68615 0.99413 0.0
S102 S 0.93489 0.57157 0.11044 0.0
N103 N 0.90288 0.43872 0.09031 0.0
N104 N -0.02547 0.70226 0.08923 0.0
C105 C -0.03686 0.64104 0.06417 0.0
C106 C 0.92394 0.49757 0.06479 0.0
C107 C 0.69844 0.2275 0.3935 0.0
C108 C 0.61091 0.19598 0.37012 0.0
C109 C 0.80282 0.19146 0.39451 0.0
C110 C 0.82295 0.12115 0.37228 0.0
H111 H 0.6862 0.28044 0.41119 0.0
H112 H 0.87059 0.22246 0.4126 0.0
S113 S 0.6116 0.00047 0.30758 0.0
N114 N 0.54525 0.08136 0.32495 0.0
N115 N 0.74033 0.0128 0.32709 0.0
C116 C 0.73379 0.08563 0.34911 0.0
C117 C 0.62833 0.12338 0.34795 0.0
C118 C 0.56406 0.49588 0.72637 0.0
C119 C 0.63289 0.55904 0.70159 0.0
C120 C 0.42295 0.39296 0.72637 0.0
C121 C 0.34394 0.34898 0.7016 0.0
H122 H 0.61906 0.52695 0.74608 0.0
H123 H 0.37645 0.34569 0.74599 0.0
S124 S 0.47197 0.48578 0.63106 0.0
N125 N 0.60913 0.57177 0.6515 0.0
N126 N 0.34434 0.38119 0.65165 0.0
C127 C 0.41063 0.41319 0.67671 0.0
C128 C 0.55475 0.51681 0.67664 0.0
C129 C 0.58564 0.03555 0.68336 0.0
C130 C 0.62933 -0.01852 0.70512 0.0
C131 C 0.44583 0.00103 0.68056 0.0
C132 C 0.3443 0.91022 0.6993 0.0
H133 H 0.66015 0.10515 0.66838 0.0
H134 H 0.41818 0.04937 0.66412 0.0
S135 S 0.40014 0.72483 0.75736 0.0
N136 N 0.55581 0.82051 0.7438 0.0
N137 N 0.29477 0.75923 0.73902 0.0
C138 C 0.38566 0.85244 0.72061 0.0
C139 C 0.52761 0.88712 0.7234 0.0
C140 C 0.50907 0.63803 0.06185 0.0
C141 C 0.55332 0.7125 0.03682 0.0
C142 C 0.40652 0.49728 0.06218 0.0
C143 C 0.34337 0.42428 0.03753 0.0
H144 H 0.55575 0.68789 0.08146 0.0
H145 H 0.37585 0.44596 0.08204 0.0
S146 S 0.42119 0.57089 0.96624 0.0
N147 N 0.52477 0.70226 0.9866 0.0
N148 N 0.33355 0.43814 0.98713 0.0
C149 C 0.38709 0.49732 1.01226 0.0
C150 C 0.49092 0.64109 1.01195 0.0
C151 C 0.25474 0.62427 0.34764 0.0
C152 C 0.2543 0.55549 0.37216 0.0
C153 C 0.21888 0.72865 0.3478 0.0
C154 C 0.18013 0.76827 0.37246 0.0
H155 H 0.28219 0.59683 0.32807 0.0
H156 H 0.22461 0.78058 0.32843 0.0
S157 S 0.15424 0.61553 0.44216 0.0
N158 N 0.20686 0.53187 0.42181 0.0
N159 N 0.13894 0.72677 0.42191 0.0
C160 C 0.17716 0.69896 0.39706 0.0
C161 C 0.21466 0.59339 0.39698 0.0
C162 C -0.00342 0.10162 0.22713 0.0
C163 C 0.13944 0.15669 0.23265 0.0
C164 C 0.94552 0.08214 0.19977 0.0
C165 C 0.03516 0.11702 0.17697 0.0
H166 H 0.92273 0.0654 0.24391 0.0
H167 H 0.83426 0.03404 0.19631 0.0
S168 S 0.41742 0.26335 0.18033 0.0
N169 N 0.36986 0.24863 0.21309 0.0
N170 N 0.27308 0.20675 0.1618 0.0
C171 C 0.17834 0.17495 0.18221 0.0
C172 C 0.23044 0.19576 0.21001 0.0
C173 C 0.09177 0.174 0.52433 0.0
C174 C 0.14784 0.10511 0.50946 0.0
C175 C 0.03929 0.13131 0.5511 0.0
C176 C 0.04453 0.02074 0.56397 0.0
H177 H 0.08803 0.26076 0.51505 0.0
H178 H -0.00439 0.18565 0.56199 0.0
S179 S 0.18323 0.80877 0.53388 0.0
N180 N 0.20612 0.92198 0.50935 0.0
N181 N 0.10966 0.84326 0.56006 0.0
C182 C 0.10121 0.9518 0.54941 0.0
C183 C 0.15243 -0.0063 0.52198 0.0
C184 C 0.0189 0.9142 0.86372 0.0
C185 C -0.02742 0.96628 0.84205 0.0
C186 C 0.00235 0.9389 0.89162 0.0
C187 C 0.9394 0.01725 0.89879 0.0
H188 H 0.07297 0.85837 0.85894 0.0
H189 H 0.0464 0.9035 0.90755 0.0
S190 S 0.80176 0.17782 0.8499 0.0
N191 N 0.86314 0.10129 0.8297 0.0
N192 N 0.82806 0.14405 0.88203 0.0
C193 C 0.88936 0.06653 0.8773 0.0
C194 C 0.9067 0.04189 0.84896 0.0
loop_
_geom_bond_atom_site_label_1
_geom_bond_atom_site_label_2
_geom_bond_distance
_geom_bond_site_symmetry_2
_ccdc_geom_bond_type
Zn0 O1 2.055 1_545 S
Zn0 O8 2.046 . S
Zn0 N16 2.036 . S
Zn0 O28 2.053 1_455 S
Zn0 O30 2.066 1_445 S
O1 Zn0 2.055 1_565 S
O1 C4 1.259 1_556 S
C2 O30 1.256 1_554 S
C2 O31 1.244 . S
Zn3 O5 2.046 1_545 S
Zn3 O7 2.055 . S
Zn3 N9 2.036 1_455 S
Zn3 O27 2.066 1_455 S
Zn3 O31 2.053 1_445 S
C4 O1 1.259 1_554 S
C4 O5 1.254 . S
O5 Zn3 2.046 1_565 S
O5 C4 1.254 . S
C6 O27 1.256 . S
C6 O28 1.244 1_554 S
O7 Zn3 2.055 . S
O7 C29 1.259 . S
O8 Zn0 2.046 . S
O8 C29 1.254 1_556 S
N9 Zn3 2.036 1_655 S
N9 C10 1.298 1_655 S
N9 N12 1.398 1_545 S
C10 N9 1.298 1_455 S
C10 N13 1.367 1_455 S
C10 C23 1.481 . S
C11 N12 1.299 . S
C11 N13 1.379 1_565 S
N12 N9 1.398 1_565 S
N12 C11 1.299 . S
N13 C10 1.367 1_655 S
N13 C11 1.379 1_545 S
C14 N16 1.298 1_655 S
C14 N18 1.367 . S
C14 C22 1.481 1_545 S
C15 N17 1.299 1_655 S
C15 N18 1.379 . S
N16 Zn0 2.036 . S
N16 C14 1.298 1_455 S
N16 N17 1.398 . S
N17 C15 1.299 1_455 S
N17 N16 1.398 . S
N18 C14 1.367 . S
N18 C15 1.379 . S
H19 C22 0.980 1_455 S
H20 C22 0.981 . S
H21 C22 0.981 . S
C22 C14 1.481 1_565 S
C22 H19 0.980 1_655 S
C22 H20 0.981 . S
C22 H21 0.981 . S
C23 C10 1.481 . S
C23 H24 0.980 . S
C23 H25 0.981 . S
C23 H26 0.981 . S
H24 C23 0.980 . S
H25 C23 0.981 . S
H26 C23 0.981 . S
O27 Zn3 2.066 1_655 S
O27 C6 1.256 . S
O28 Zn0 2.053 1_655 S
O28 C6 1.244 1_556 S
C29 O7 1.259 . S
C29 O8 1.254 1_554 S
O30 Zn0 2.066 1_665 S
O30 C2 1.256 1_556 S
O31 C2 1.244 . S
O31 Zn3 2.053 1_665 S
Zn32 O33 2.055 1_455 S
Zn32 O40 2.046 1_545 S
Zn32 N48 2.036 . S
Zn32 O60 2.053 . S
Zn32 O62 2.066 . S
O33 Zn32 2.055 1_655 S
O33 C36 1.259 . S
C34 O62 1.256 . S
C34 O63 1.244 . S
Zn35 O37 2.046 1_455 S
Zn35 O39 2.055 1_545 S
Zn35 N41 2.036 . S
Zn35 O59 2.066 . S
Zn35 O63 2.053 . S
C36 O33 1.259 . S
C36 O37 1.254 . S
O37 Zn35 2.046 1_655 S
O37 C36 1.254 . S
C38 O59 1.256 . S
C38 O60 1.244 . S
O39 Zn35 2.055 1_565 S
O39 C61 1.259 . S
O40 Zn32 2.046 1_565 S
O40 C61 1.254 . S
N41 Zn35 2.036 . S
N41 C42 1.298 . S
N41 N44 1.398 . S
C42 N41 1.298 . S
C42 N45 1.367 . S
C42 C55 1.476 1_545 S
C43 N44 1.299 . S
C43 N45 1.379 . S
N44 N41 1.398 . S
N44 C43 1.299 . S
N45 C42 1.367 . S
N45 C43 1.379 . S
C46 N48 1.298 . S
C46 N50 1.367 . S
C46 C54 1.476 1_455 S
C47 N49 1.299 . S
C47 N50 1.379 . S
N48 Zn32 2.036 . S
N48 C46 1.298 . S
N48 N49 1.398 . S
N49 C47 1.299 . S
N49 N48 1.398 . S
N50 C46 1.367 . S
N50 C47 1.379 . S
H51 C54 0.981 . S
H52 C54 0.983 . S
H53 C54 0.982 1_455 S
C54 C46 1.476 1_655 S
C54 H51 0.981 . S
C54 H52 0.983 . S
C54 H53 0.982 1_655 S
C55 C42 1.476 1_565 S
C55 H56 0.981 . S
C55 H57 0.983 . S
C55 H58 0.982 1_565 S
H56 C55 0.981 . S
H57 C55 0.983 . S
H58 C55 0.982 1_545 S
O59 Zn35 2.066 . S
O59 C38 1.256 . S
O60 Zn32 2.053 . S
O60 C38 1.244 . S
C61 O39 1.259 . S
C61 O40 1.254 . S
O62 Zn32 2.066 . S
O62 C34 1.256 . S
O63 C34 1.244 . S
O63 Zn35 2.053 . S
Zn64 O65 2.055 1_455 S
Zn64 O72 2.046 . S
Zn64 N80 2.036 . S
Zn64 O92 2.053 1_545 S
Zn64 O94 2.066 1_445 S
O65 Zn64 2.055 1_655 S
O65 C68 1.259 . S
C66 O94 1.256 . S
C66 O95 1.244 . S
Zn67 O69 2.046 1_455 S
Zn67 O71 2.055 . S
Zn67 N73 2.036 1_545 S
Zn67 O91 2.066 1_545 S
Zn67 O95 2.053 1_445 S
C68 O65 1.259 . S
C68 O69 1.254 . S
O69 Zn67 2.046 1_655 S
O69 C68 1.254 . S
C70 O91 1.256 . S
C70 O92 1.244 . S
O71 Zn67 2.055 . S
O71 C93 1.259 . S
O72 Zn64 2.046 . S
O72 C93 1.254 . S
N73 Zn67 2.036 1_565 S
N73 C74 1.298 1_565 S
N73 N76 1.398 1_455 S
C74 N73 1.298 1_545 S
C74 N77 1.367 1_545 S
C74 C87 1.481 . S
C75 N76 1.299 . S
C75 N77 1.379 1_655 S
N76 N73 1.398 1_655 S
N76 C75 1.299 . S
N77 C74 1.367 1_565 S
N77 C75 1.379 1_455 S
C78 N80 1.298 1_565 S
C78 N82 1.367 . S
C78 C86 1.481 1_455 S
C79 N81 1.299 1_565 S
C79 N82 1.379 . S
N80 Zn64 2.036 . S
N80 C78 1.298 1_545 S
N80 N81 1.398 . S
N81 C79 1.299 1_545 S
N81 N80 1.398 . S
N82 C78 1.367 . S
N82 C79 1.379 . S
H83 C86 0.980 1_545 S
H84 C86 0.981 . S
H85 C86 0.981 . S
C86 C78 1.481 1_655 S
C86 H83 0.980 1_565 S
C86 H84 0.981 . S
C86 H85 0.981 . S
C87 C74 1.481 . S
C87 H88 0.980 . S
C87 H89 0.981 . S
C87 H90 0.981 . S
H88 C87 0.980 . S
H89 C87 0.981 . S
H90 C87 0.981 . S
O91 Zn67 2.066 1_565 S
O91 C70 1.256 . S
O92 Zn64 2.053 1_565 S
O92 C70 1.244 . S
C93 O71 1.259 . S
C93 O72 1.254 . S
O94 Zn64 2.066 1_665 S
O94 C66 1.256 . S
O95 C66 1.244 . S
O95 Zn67 2.053 1_665 S
C96 C97 1.369 1_455 S
C96 C98 1.419 . S
C96 H100 0.930 . S
C97 C96 1.369 1_655 S
C97 C106 1.429 . S
C98 C96 1.419 . S
C98 C99 1.363 . S
C98 H101 0.929 . S
C99 C98 1.363 . S
C99 C105 1.428 1_455 S
H100 C96 0.930 . S
H101 C98 0.929 . S
S102 N103 1.613 . S
S102 N104 1.610 . S
N103 S102 1.613 . S
N103 C106 1.350 . S
N104 S102 1.610 . S
N104 C105 1.351 . S
C105 C99 1.428 1_655 S
C105 N104 1.351 . S
C105 C106 1.434 . S
C106 C97 1.429 . S
C106 N103 1.350 . S
C106 C105 1.434 . S
C107 C108 1.369 . S
C107 C109 1.419 . S
C107 H111 0.930 . S
C108 C107 1.369 . S
C108 C117 1.429 . S
C109 C107 1.419 . S
C109 C110 1.363 . S
C109 H112 0.929 . S
C110 C109 1.363 . S
C110 C116 1.428 . S
H111 C107 0.930 . S
H112 C109 0.929 . S
S113 N114 1.613 . S
S113 N115 1.610 . S
N114 S113 1.613 . S
N114 C117 1.350 1_565 S
N115 S113 1.610 . S
N115 C116 1.351 1_565 S
C116 C110 1.428 . S
C116 N115 1.351 1_545 S
C116 C117 1.434 . S
C117 C108 1.429 . S
C117 N114 1.350 1_545 S
C117 C116 1.434 . S
C118 C119 1.369 . S
C118 C120 1.419 . S
C118 H122 0.930 . S
C119 C118 1.369 . S
C119 C128 1.429 . S
C120 C118 1.419 . S
C120 C121 1.363 . S
C120 H123 0.929 . S
C121 C120 1.363 . S
C121 C127 1.428 . S
H122 C118 0.930 . S
H123 C120 0.929 . S
S124 N125 1.613 . S
S124 N126 1.610 . S
N125 S124 1.613 . S
N125 C128 1.350 . S
N126 S124 1.610 . S
N126 C127 1.351 . S
C127 C121 1.428 . S
C127 N126 1.351 . S
C127 C128 1.434 . S
C128 C119 1.429 . S
C128 N125 1.350 . S
C128 C127 1.434 . S
C129 C130 1.369 . S
C129 C131 1.419 . S
C129 H133 0.930 . S
C130 C129 1.369 . S
C130 C139 1.429 1_545 S
C131 C129 1.419 . S
C131 C132 1.363 1_545 S
C131 H134 0.929 . S
C132 C131 1.363 1_565 S
C132 C138 1.428 . S
H133 C129 0.930 . S
H134 C131 0.929 . S
S135 N136 1.613 . S
S135 N137 1.610 . S
N136 S135 1.613 . S
N136 C139 1.350 . S
N137 S135 1.610 . S
N137 C138 1.351 . S
C138 C132 1.428 . S
C138 N137 1.351 . S
C138 C139 1.434 . S
C139 C130 1.429 1_565 S
C139 N136 1.350 . S
C139 C138 1.434 . S
C140 C141 1.369 . S
C140 C142 1.419 . S
C140 H144 0.930 . S
C141 C140 1.369 . S
C141 C150 1.429 1_554 S
C142 C140 1.419 . S
C142 C143 1.363 . S
C142 H145 0.929 . S
C143 C142 1.363 . S
C143 C149 1.428 1_554 S
H144 C140 0.930 . S
H145 C142 0.929 . S
S146 N147 1.613 . S
S146 N148 1.610 . S
N147 S146 1.613 . S
N147 C150 1.350 . S
N148 S146 1.610 . S
N148 C149 1.351 . S
C149 C143 1.428 1_556 S
C149 N148 1.351 . S
C149 C150 1.434 . S
C150 C141 1.429 1_556 S
C150 N147 1.350 . S
C150 C149 1.434 . S
C151 C152 1.369 . S
C151 C153 1.419 . S
C151 H155 0.930 . S
C152 C151 1.369 . S
C152 C161 1.429 . S
C153 C151 1.419 . S
C153 C154 1.363 . S
C153 H156 0.929 . S
C154 C153 1.363 . S
C154 C160 1.428 . S
H155 C151 0.930 . S
H156 C153 0.929 . S
S157 N158 1.613 . S
S157 N159 1.610 . S
N158 S157 1.613 . S
N158 C161 1.350 1_655 S
N159 S157 1.610 . S
N159 C160 1.351 1_655 S
C160 C154 1.428 . S
C160 N159 1.351 1_455 S
C160 C161 1.434 . S
C161 C152 1.429 . S
C161 N158 1.350 1_455 S
C161 C160 1.434 . S
C162 C163 1.369 . S
C162 C164 1.419 1_455 S
C162 H166 0.930 1_455 S
C163 C162 1.369 . S
C163 C172 1.429 . S
C164 C162 1.419 1_655 S
C164 C165 1.363 1_655 S
C164 H167 0.929 . S
C165 C164 1.363 1_455 S
C165 C171 1.428 . S
H166 C162 0.930 1_655 S
H167 C164 0.929 . S
S168 N169 1.613 . S
S168 N170 1.610 . S
N169 S168 1.613 . S
N169 C172 1.350 . S
N170 S168 1.610 . S
N170 C171 1.351 . S
C171 C165 1.428 . S
C171 N170 1.351 . S
C171 C172 1.434 . S
C172 C163 1.429 . S
C172 N169 1.350 . S
C172 C171 1.434 . S
C173 C174 1.369 . S
C173 C175 1.419 . S
C173 H177 0.930 . S
C174 C173 1.369 . S
C174 C183 1.429 . S
C175 C173 1.419 . S
C175 C176 1.363 . S
C175 H178 0.929 . S
C176 C175 1.363 . S
C176 C182 1.428 . S
H177 C173 0.930 . S
H178 C175 0.929 . S
S179 N180 1.613 . S
S179 N181 1.610 1_545 S
N180 S179 1.613 . S
N180 C183 1.350 . S
N181 S179 1.610 1_565 S
N181 C182 1.351 1_565 S
C182 C176 1.428 . S
C182 N181 1.351 1_545 S
C182 C183 1.434 . S
C183 C174 1.429 . S
C183 N180 1.350 . S
C183 C182 1.434 . S
C184 C185 1.369 1_455 S
C184 C186 1.419 . S
C184 H188 0.930 . S
C185 C184 1.369 1_655 S
C185 C194 1.429 . S
C186 C184 1.419 . S
C186 C187 1.363 1_455 S
C186 H189 0.929 . S
C187 C186 1.363 1_655 S
C187 C193 1.428 1_565 S
H188 C184 0.930 . S
H189 C186 0.929 . S
S190 N191 1.613 . S
S190 N192 1.610 . S
N191 S190 1.613 . S
N191 C194 1.350 1_545 S
N192 S190 1.610 . S
N192 C193 1.351 . S
C193 C187 1.428 1_545 S
C193 N192 1.351 . S
C193 C194 1.434 1_545 S
C194 C185 1.429 . S
C194 N191 1.350 1_565 S
C194 C193 1.434 1_565 S
C97 C6 1.348 . S
C99 C4 1.355 . S
C108 C38 1.341 . S
C110 C36 1.359 . S
C119 C66 1.344 . S
C121 C93 1.357 . S
C130 C68 1.353 . S
C132 C70 1.348 . S
C141 C2 1.346 . S
C143 C29 1.356 . S
C152 C34 1.341 . S
C154 C61 1.359 . S
C163 N50 1.612 . S
C165 N13 1.610 1_455 S
C174 N45 1.613 . S
C176 N77 1.614 1_545 S
C185 N82 1.609 1_655 S
C187 N18 1.611 1_565 S
