# Generated by pormake.
# Topology bcu, (8)-cn, num edge types: 1
# Building blocks:
#     Node 0, Type 0, BuildingBlock: GIZVER_clean_sbu_0, # of connection points: 8
#     Node 1, Type 0, BuildingBlock: GIZVER_clean_sbu_0, # of connection points: 8
#     Edge 2, Type (0, 0), BuildingBlock: CIFDUS_clean_linker_0, # of connection points: 2
#     Edge 3, Type (0, 0), BuildingBlock: CIFDUS_clean_linker_0, # of connection points: 2
#     Edge 4, Type (0, 0), BuildingBlock: CIFDUS_clean_linker_0, # of connection points: 2
#     Edge 5, Type (0, 0), BuildingBlock: CIFDUS_clean_linker_0, # of connection points: 2
#     Edge 6, Type (0, 0), BuildingBlock: CIFDUS_clean_linker_0, # of connection points: 2
#     Edge 7, Type (0, 0), BuildingBlock: CIFDUS_clean_linker_0, # of connection points: 2
#     Edge 8, Type (0, 0), BuildingBlock: CIFDUS_clean_linker_0, # of connection points: 2
#     Edge 9, Type (0, 0), BuildingBlock: CIFDUS_clean_linker_0, # of connection points: 2
# Relax obj value: 0.003
# Max RMSD: 0.035
# Mean RMSD: 0.035
data_MOF--net-bcu--node1-GIZVER_clean_sbu_0--edge1-CIFDUS_clean_linker_0
_symmetry_space_group_name_H-M    P1
_symmetry_Int_Tables_number       1
_symmetry_cell_setting            triclinic
loop_
_symmetry_equiv_pos_as_xyz
'x, y, z'
_cell_length_a     19.518926
_cell_length_b     22.441206
_cell_length_c     11.179358
_cell_angle_alpha  86.823695
_cell_angle_beta   93.792351
_cell_angle_gamma 111.86655
loop_
_atom_site_label
_atom_site_type_symbol
_atom_site_fract_x
_atom_site_fract_y
_atom_site_fract_z
_atom_type_partial_charge
Co0 Co 0.10357 0.92118 0.97836 0.0
Co1 Co 0.11035 0.96207 0.19305 0.0
Co2 Co 0.02698 0.03274 1.01941 0.0
O3 O 0.11072 1.00189 0.04335 0.0
H4 H 0.15808 0.03588 0.03155 0.0
O5 O 0.94119 0.06099 0.99416 0.0
Co6 Co 0.94607 0.14062 0.05367 0.0
Co7 Co 0.93907 0.09652 0.84077 0.0
H8 H 0.89451 1.02646 1.00808 0.0
O9 O 0.19686 0.963 0.26502 0.0
O10 O 0.11753 0.887 0.14444 0.0
O11 O 1.02308 0.93633 0.28262 0.0
O12 O 0.95995 0.96526 0.13318 0.0
O13 O 0.07375 0.09807 0.14711 0.0
O14 O 0.94445 0.21174 0.11162 0.0
O15 O 0.84857 0.11878 0.08046 0.0
O16 O 0.04792 0.17364 0.03986 0.0
O17 O 0.09259 0.09871 0.90481 0.0
O18 O 0.02786 0.12448 0.75355 0.0
O19 O 0.93051 0.17111 0.88756 0.0
O20 O 0.85114 0.09497 0.76851 0.0
C21 C 0.17529 0.88389 0.91404 0.0
C22 C 0.96211 0.91172 0.90669 0.0
C23 C 0.96229 0.9334 0.23092 0.0
C24 C 0.17711 0.90753 0.21596 0.0
C25 C 0.87463 0.17746 0.11937 0.0
C26 C 0.0886 0.15769 0.11846 0.0
C27 C 0.08912 0.12882 0.8057 0.0
C28 C 0.8705 0.15016 0.81835 0.0
O29 O 0.10486 0.85068 0.91624 0.0
O30 O 0.20151 0.94181 0.95644 0.0
O31 O 0.98317 0.97214 0.88841 0.0
O32 O 0.99772 0.88822 0.98298 0.0
Co33 Co 0.6061 0.41961 0.48877 0.0
Co34 Co 0.6131 0.4637 0.70168 0.0
Co35 Co 0.52519 0.52749 0.52304 0.0
O36 O 0.61098 0.49924 0.54829 0.0
H37 H 0.65766 0.53376 0.53437 0.0
O38 O 0.44145 0.55834 0.4991 0.0
Co39 Co 0.4486 0.63905 0.56408 0.0
Co40 Co 0.44182 0.59816 0.34939 0.0
H41 H 0.39409 0.52434 0.5109 0.0
O42 O 0.70103 0.46525 0.77394 0.0
O43 O 0.62166 0.38911 0.65488 0.0
O44 O 0.5243 0.43573 0.78889 0.0
O45 O 0.45958 0.46152 0.63764 0.0
O46 O 0.56899 0.58809 0.65404 0.0
O47 O 0.44731 0.70955 0.62619 0.0
O48 O 0.35067 0.61842 0.586 0.0
O49 O 0.55445 0.67201 0.55946 0.0
O50 O 0.59222 0.59497 0.40927 0.0
O51 O 0.52908 0.62388 0.25982 0.0
O52 O 0.43464 0.67323 0.39799 0.0
O53 O 0.35531 0.59722 0.27743 0.0
C54 C 0.67755 0.38278 0.42306 0.0
C55 C 0.46357 0.40254 0.42399 0.0
C56 C 0.46305 0.4314 0.73674 0.0
C57 C 0.68167 0.41006 0.72409 0.0
C58 C 0.37688 0.67634 0.62839 0.0
C59 C 0.59006 0.64851 0.63576 0.0
C60 C 0.58987 0.62682 0.31152 0.0
C61 C 0.37507 0.65269 0.32648 0.0
O62 O 0.60772 0.34849 0.43082 0.0
O63 O 0.70361 0.44145 0.46198 0.0
O64 O 0.47842 0.46216 0.39534 0.0
O65 O 0.50425 0.38659 0.50258 0.0
H66 H 0.18677 0.15118 0.30153 0.0
H67 H 0.14559 0.28126 0.03277 0.0
H68 H 0.25608 0.36826 0.10258 0.0
H69 H 0.3654 0.40905 0.24092 0.0
H70 H 0.40658 0.27897 0.50967 0.0
H71 H 0.2961 0.19197 0.43986 0.0
C72 C 0.2021 0.19849 0.25824 0.0
C73 C 0.15748 0.20923 0.16245 0.0
C74 C 0.26609 0.24911 0.29913 0.0
C75 C 0.17829 0.27121 0.10759 0.0
C76 C 0.24175 0.3214 0.14727 0.0
C77 C 0.35007 0.36174 0.2842 0.0
C78 C 0.39469 0.351 0.37999 0.0
C79 C 0.28608 0.31112 0.24331 0.0
C80 C 0.37388 0.28901 0.43486 0.0
C81 C 0.31042 0.23883 0.39517 0.0
H82 H 0.91641 0.29729 0.20599 0.0
H83 H 0.72514 0.12355 0.15016 0.0
H84 H 0.64825 0.17192 0.24092 0.0
H85 H 0.63576 0.26295 0.33644 0.0
H86 H 0.82703 0.43668 0.39227 0.0
H87 H 0.90392 0.38832 0.30152 0.0
C88 C 0.85786 0.26976 0.21336 0.0
C89 C 0.82667 0.20657 0.17134 0.0
C90 C 0.81419 0.29779 0.26598 0.0
C91 C 0.75067 0.17206 0.18171 0.0
C92 C 0.70673 0.19972 0.23378 0.0
C93 C 0.69432 0.29047 0.32907 0.0
C94 C 0.72551 0.35366 0.37109 0.0
C95 C 0.73799 0.26245 0.27645 0.0
C96 C 0.80151 0.38817 0.36072 0.0
C97 C 0.84544 0.36051 0.30866 0.0
H98 H 0.83684 0.87317 0.09473 0.0
H99 H 0.93531 0.87253 0.45183 0.0
H100 H 0.83216 0.7741 0.50428 0.0
H101 H 0.71533 0.68705 0.44772 0.0
H102 H 0.61686 0.68769 0.09062 0.0
H103 H 0.72001 0.78612 0.03817 0.0
C104 C 0.83527 0.8522 0.18473 0.0
C105 C 0.89375 0.88075 0.26944 0.0
C106 C 0.77674 0.79456 0.21332 0.0
C107 C 0.89098 0.85203 0.38505 0.0
C108 C 0.83227 0.79536 0.41482 0.0
C109 C 0.7169 0.70802 0.35772 0.0
C110 C 0.65842 0.67947 0.27301 0.0
C111 C 0.77543 0.76566 0.32913 0.0
C112 C 0.66119 0.70819 0.1574 0.0
C113 C 0.7199 0.76486 0.12763 0.0
H114 H 0.15881 0.79062 0.12904 0.0
H115 H 0.29448 0.9329 0.37776 0.0
H116 H 0.36697 0.86715 0.43477 0.0
H117 H 0.39336 0.7696 0.4134 0.0
H118 H 0.2577 0.62732 0.16468 0.0
H119 H 0.1852 0.69307 0.10767 0.0
C120 C 0.20434 0.80738 0.19536 0.0
C121 C 0.22096 0.86679 0.24843 0.0
C122 C 0.24644 0.76942 0.22773 0.0
C123 C 0.28023 0.88749 0.33473 0.0
C124 C 0.32197 0.8499 0.36771 0.0
C125 C 0.34784 0.75284 0.34708 0.0
C126 C 0.33122 0.69343 0.294 0.0
C127 C 0.30573 0.79081 0.3147 0.0
C128 C 0.27194 0.67273 0.20771 0.0
C129 C 0.23021 0.71033 0.17473 0.0
H130 H 0.13361 0.76585 0.81903 0.0
H131 H 0.32631 0.93472 0.90018 0.0
H132 H 0.40486 0.88518 0.81819 0.0
H133 H 0.41856 0.79438 0.7234 0.0
H134 H 0.22586 0.62552 0.64225 0.0
H135 H 0.14731 0.67505 0.72424 0.0
C136 C 0.19283 0.79207 0.81899 0.0
C137 C 0.22392 0.85426 0.86563 0.0
C138 C 0.23753 0.76331 0.77156 0.0
C139 C 0.3008 0.88706 0.86475 0.0
C140 C 0.34572 0.85869 0.81782 0.0
C141 C 0.35934 0.76817 0.72344 0.0
C142 C 0.32825 0.70598 0.67681 0.0
C143 C 0.31464 0.79692 0.77086 0.0
C144 C 0.25137 0.67317 0.67768 0.0
C145 C 0.20645 0.70154 0.72461 0.0
H146 H 0.33402 0.37961 0.60598 0.0
H147 H 0.44027 0.36256 0.9507 0.0
H148 H 0.33639 0.26343 0.99667 0.0
H149 H 0.21815 0.18061 0.93647 0.0
H150 H 0.1119 0.19766 0.59175 0.0
H151 H 0.21578 0.29679 0.54578 0.0
C152 C 0.33429 0.35487 0.69203 0.0
C153 C 0.39502 0.37874 0.77492 0.0
C154 C 0.27572 0.29697 0.71615 0.0
C155 C 0.39425 0.3455 0.88546 0.0
C156 C 0.33528 0.28844 0.9112 0.0
C157 C 0.21787 0.20535 0.85042 0.0
C158 C 0.15715 0.18148 0.76753 0.0
C159 C 0.27645 0.26324 0.8263 0.0
C160 C 0.15792 0.21472 0.65698 0.0
C161 C 0.21689 0.27178 0.63124 0.0
H162 H 0.8958 0.26823 0.90234 0.0
H163 H 0.74768 0.12418 0.66777 0.0
H164 H 0.67697 0.19234 0.61665 0.0
H165 H 0.65638 0.29199 0.6401 0.0
H166 H 0.8045 0.43605 0.87467 0.0
H167 H 0.87521 0.36789 0.92579 0.0
C168 C 0.84783 0.25148 0.84058 0.0
C169 C 0.827 0.19108 0.78944 0.0
C170 C 0.80719 0.29071 0.81189 0.0
C171 C 0.76491 0.17041 0.70886 0.0
C172 C 0.72438 0.20933 0.67944 0.0
C173 C 0.70434 0.30874 0.70185 0.0
C174 C 0.72517 0.36914 0.75299 0.0
C175 C 0.74499 0.26951 0.73054 0.0
C176 C 0.78726 0.38981 0.83358 0.0
C177 C 0.8278 0.35089 0.86299 0.0
H178 H 0.66615 0.77704 0.59842 0.0
H179 H 0.67037 0.61252 0.8138 0.0
H180 H 0.78559 0.67864 0.91563 0.0
H181 H 0.88602 0.78318 0.94403 0.0
H182 H 0.8818 0.94771 0.72865 0.0
H183 H 0.76658 0.88159 0.62682 0.0
C184 C 0.69211 0.75573 0.66793 0.0
C185 C 0.65944 0.68995 0.69812 0.0
C186 C 0.75884 0.79396 0.72623 0.0
C187 C 0.69422 0.66305 0.78814 0.0
C188 C 0.76031 0.70078 0.84664 0.0
C189 C 0.86006 0.80449 0.87452 0.0
C190 C 0.89273 0.87027 0.84433 0.0
C191 C 0.79333 0.76626 0.81622 0.0
C192 C 0.85795 0.89718 0.75431 0.0
C193 C 0.79186 0.85944 0.69581 0.0
loop_
_geom_bond_atom_site_label_1
_geom_bond_atom_site_label_2
_geom_bond_distance
_geom_bond_site_symmetry_2
_ccdc_geom_bond_type
Co0 O3 2.042 1_556 S
Co0 O10 2.264 1_556 S
Co0 O29 2.286 . S
Co0 O30 2.069 . S
Co0 O32 2.015 1_455 S
Co1 O3 2.122 . S
Co1 O9 2.073 . S
Co1 O10 2.327 . S
Co1 O11 1.976 1_455 S
Co2 O3 2.087 1_545 S
Co2 O5 2.087 1_454 S
Co2 O12 2.111 1_445 S
Co2 O13 2.143 . S
Co2 O17 2.111 1_554 S
Co2 O31 2.143 1_444 S
O3 Co0 2.042 1_554 S
O3 Co1 2.122 . S
O3 Co2 2.087 1_565 S
O3 H4 0.980 . S
H4 O3 0.980 . S
O5 Co2 2.087 1_656 S
O5 Co6 2.042 1_556 S
O5 Co7 2.122 . S
O5 H8 0.980 . S
Co6 O5 2.042 1_554 S
Co6 O14 2.286 . S
Co6 O15 2.069 . S
Co6 O16 2.015 1_655 S
Co6 O19 2.264 1_554 S
Co7 O5 2.122 . S
Co7 O18 1.976 1_655 S
Co7 O19 2.327 . S
Co7 O20 2.073 . S
H8 O5 0.980 . S
O9 Co1 2.073 . S
O9 C24 1.245 . S
O10 Co0 2.264 1_554 S
O10 Co1 2.327 . S
O10 C24 1.257 . S
O11 Co1 1.976 1_655 S
O11 C23 1.251 . S
O12 Co2 2.111 1_665 S
O12 C23 1.274 . S
O13 Co2 2.143 . S
O13 C26 1.246 . S
O14 Co6 2.286 . S
O14 C25 1.259 . S
O15 Co6 2.069 . S
O15 C25 1.289 . S
O16 Co6 2.015 1_455 S
O16 C26 1.257 . S
O17 Co2 2.111 1_556 S
O17 C27 1.274 . S
O18 Co7 1.976 1_455 S
O18 C27 1.251 . S
O19 Co6 2.264 1_556 S
O19 Co7 2.327 . S
O19 C28 1.257 . S
O20 Co7 2.073 . S
O20 C28 1.245 . S
C21 O29 1.259 . S
C21 O30 1.289 . S
C22 O31 1.246 . S
C22 O32 1.257 . S
C23 O11 1.251 . S
C23 O12 1.274 . S
C24 O9 1.245 . S
C24 O10 1.257 . S
C25 O14 1.259 . S
C25 O15 1.289 . S
C26 O13 1.246 . S
C26 O16 1.257 . S
C27 O17 1.274 . S
C27 O18 1.251 . S
C28 O19 1.257 . S
C28 O20 1.245 . S
O29 Co0 2.286 . S
O29 C21 1.259 . S
O30 Co0 2.069 . S
O30 C21 1.289 . S
O31 Co2 2.143 1_666 S
O31 C22 1.246 . S
O32 Co0 2.015 1_655 S
O32 C22 1.257 . S
Co33 O36 2.042 . S
Co33 O43 2.264 . S
Co33 O62 2.286 . S
Co33 O63 2.069 . S
Co33 O65 2.015 . S
Co34 O36 2.122 . S
Co34 O42 2.073 . S
Co34 O43 2.327 . S
Co34 O44 1.976 . S
Co35 O36 2.087 . S
Co35 O38 2.087 . S
Co35 O45 2.111 . S
Co35 O46 2.143 . S
Co35 O50 2.111 . S
Co35 O64 2.143 . S
O36 Co33 2.042 . S
O36 Co34 2.122 . S
O36 Co35 2.087 . S
O36 H37 0.980 . S
H37 O36 0.980 . S
O38 Co35 2.087 . S
O38 Co39 2.042 . S
O38 Co40 2.122 . S
O38 H41 0.980 . S
Co39 O38 2.042 . S
Co39 O47 2.286 . S
Co39 O48 2.069 . S
Co39 O49 2.015 . S
Co39 O52 2.264 . S
Co40 O38 2.122 . S
Co40 O51 1.976 . S
Co40 O52 2.327 . S
Co40 O53 2.073 . S
H41 O38 0.980 . S
O42 Co34 2.073 . S
O42 C57 1.245 . S
O43 Co33 2.264 . S
O43 Co34 2.327 . S
O43 C57 1.257 . S
O44 Co34 1.976 . S
O44 C56 1.251 . S
O45 Co35 2.111 . S
O45 C56 1.274 . S
O46 Co35 2.143 . S
O46 C59 1.246 . S
O47 Co39 2.286 . S
O47 C58 1.259 . S
O48 Co39 2.069 . S
O48 C58 1.289 . S
O49 Co39 2.015 . S
O49 C59 1.257 . S
O50 Co35 2.111 . S
O50 C60 1.274 . S
O51 Co40 1.976 . S
O51 C60 1.251 . S
O52 Co39 2.264 . S
O52 Co40 2.327 . S
O52 C61 1.257 . S
O53 Co40 2.073 . S
O53 C61 1.245 . S
C54 O62 1.259 . S
C54 O63 1.289 . S
C55 O64 1.246 . S
C55 O65 1.257 . S
C56 O44 1.251 . S
C56 O45 1.274 . S
C57 O42 1.245 . S
C57 O43 1.257 . S
C58 O47 1.259 . S
C58 O48 1.289 . S
C59 O46 1.246 . S
C59 O49 1.257 . S
C60 O50 1.274 . S
C60 O51 1.251 . S
C61 O52 1.257 . S
C61 O53 1.245 . S
O62 Co33 2.286 . S
O62 C54 1.259 . S
O63 Co33 2.069 . S
O63 C54 1.289 . S
O64 Co35 2.143 . S
O64 C55 1.246 . S
O65 Co33 2.015 . S
O65 C55 1.257 . S
H66 C72 0.930 . S
H67 C75 0.930 . S
H68 C76 0.930 . S
H69 C77 0.930 . S
H70 C80 0.930 . S
H71 C81 0.930 . S
C72 H66 0.930 . S
C72 C73 1.355 . S
C72 C74 1.415 . S
C73 C72 1.355 . S
C73 C75 1.419 . S
C74 C72 1.415 . S
C74 C79 1.425 . S
C74 C81 1.409 . S
C75 H67 0.930 . S
C75 C73 1.419 . S
C75 C76 1.362 . S
C76 H68 0.930 . S
C76 C75 1.362 . S
C76 C79 1.409 . S
C77 H69 0.930 . S
C77 C78 1.355 . S
C77 C79 1.415 . S
C78 C77 1.355 . S
C78 C80 1.419 . S
C79 C74 1.425 . S
C79 C76 1.409 . S
C79 C77 1.415 . S
C80 H70 0.930 . S
C80 C78 1.419 . S
C80 C81 1.362 . S
C81 H71 0.930 . S
C81 C74 1.409 . S
C81 C80 1.362 . S
H82 C88 0.930 . S
H83 C91 0.930 . S
H84 C92 0.930 . S
H85 C93 0.930 . S
H86 C96 0.930 . S
H87 C97 0.930 . S
C88 H82 0.930 . S
C88 C89 1.355 . S
C88 C90 1.415 . S
C89 C88 1.355 . S
C89 C91 1.419 . S
C90 C88 1.415 . S
C90 C95 1.425 . S
C90 C97 1.409 . S
C91 H83 0.930 . S
C91 C89 1.419 . S
C91 C92 1.362 . S
C92 H84 0.930 . S
C92 C91 1.362 . S
C92 C95 1.409 . S
C93 H85 0.930 . S
C93 C94 1.355 . S
C93 C95 1.415 . S
C94 C93 1.355 . S
C94 C96 1.419 . S
C95 C90 1.425 . S
C95 C92 1.409 . S
C95 C93 1.415 . S
C96 H86 0.930 . S
C96 C94 1.419 . S
C96 C97 1.362 . S
C97 H87 0.930 . S
C97 C90 1.409 . S
C97 C96 1.362 . S
H98 C104 0.930 . S
H99 C107 0.930 . S
H100 C108 0.930 . S
H101 C109 0.930 . S
H102 C112 0.930 . S
H103 C113 0.930 . S
C104 H98 0.930 . S
C104 C105 1.355 . S
C104 C106 1.415 . S
C105 C104 1.355 . S
C105 C107 1.419 . S
C106 C104 1.415 . S
C106 C111 1.425 . S
C106 C113 1.409 . S
C107 H99 0.930 . S
C107 C105 1.419 . S
C107 C108 1.362 . S
C108 H100 0.930 . S
C108 C107 1.362 . S
C108 C111 1.409 . S
C109 H101 0.930 . S
C109 C110 1.355 . S
C109 C111 1.415 . S
C110 C109 1.355 . S
C110 C112 1.419 . S
C111 C106 1.425 . S
C111 C108 1.409 . S
C111 C109 1.415 . S
C112 H102 0.930 . S
C112 C110 1.419 . S
C112 C113 1.362 . S
C113 H103 0.930 . S
C113 C106 1.409 . S
C113 C112 1.362 . S
H114 C120 0.930 . S
H115 C123 0.930 . S
H116 C124 0.930 . S
H117 C125 0.930 . S
H118 C128 0.930 . S
H119 C129 0.930 . S
C120 H114 0.930 . S
C120 C121 1.355 . S
C120 C122 1.415 . S
C121 C120 1.355 . S
C121 C123 1.419 . S
C122 C120 1.415 . S
C122 C127 1.425 . S
C122 C129 1.409 . S
C123 H115 0.930 . S
C123 C121 1.419 . S
C123 C124 1.362 . S
C124 H116 0.930 . S
C124 C123 1.362 . S
C124 C127 1.409 . S
C125 H117 0.930 . S
C125 C126 1.355 . S
C125 C127 1.415 . S
C126 C125 1.355 . S
C126 C128 1.419 . S
C127 C122 1.425 . S
C127 C124 1.409 . S
C127 C125 1.415 . S
C128 H118 0.930 . S
C128 C126 1.419 . S
C128 C129 1.362 . S
C129 H119 0.930 . S
C129 C122 1.409 . S
C129 C128 1.362 . S
H130 C136 0.930 . S
H131 C139 0.930 . S
H132 C140 0.930 . S
H133 C141 0.930 . S
H134 C144 0.930 . S
H135 C145 0.930 . S
C136 H130 0.930 . S
C136 C137 1.355 . S
C136 C138 1.415 . S
C137 C136 1.355 . S
C137 C139 1.419 . S
C138 C136 1.415 . S
C138 C143 1.425 . S
C138 C145 1.409 . S
C139 H131 0.930 . S
C139 C137 1.419 . S
C139 C140 1.362 . S
C140 H132 0.930 . S
C140 C139 1.362 . S
C140 C143 1.409 . S
C141 H133 0.930 . S
C141 C142 1.355 . S
C141 C143 1.415 . S
C142 C141 1.355 . S
C142 C144 1.419 . S
C143 C138 1.425 . S
C143 C140 1.409 . S
C143 C141 1.415 . S
C144 H134 0.930 . S
C144 C142 1.419 . S
C144 C145 1.362 . S
C145 H135 0.930 . S
C145 C138 1.409 . S
C145 C144 1.362 . S
H146 C152 0.930 . S
H147 C155 0.930 . S
H148 C156 0.930 . S
H149 C157 0.930 . S
H150 C160 0.930 . S
H151 C161 0.930 . S
C152 H146 0.930 . S
C152 C153 1.355 . S
C152 C154 1.415 . S
C153 C152 1.355 . S
C153 C155 1.419 . S
C154 C152 1.415 . S
C154 C159 1.425 . S
C154 C161 1.409 . S
C155 H147 0.930 . S
C155 C153 1.419 . S
C155 C156 1.362 . S
C156 H148 0.930 . S
C156 C155 1.362 . S
C156 C159 1.409 . S
C157 H149 0.930 . S
C157 C158 1.355 . S
C157 C159 1.415 . S
C158 C157 1.355 . S
C158 C160 1.419 . S
C159 C154 1.425 . S
C159 C156 1.409 . S
C159 C157 1.415 . S
C160 H150 0.930 . S
C160 C158 1.419 . S
C160 C161 1.362 . S
C161 H151 0.930 . S
C161 C154 1.409 . S
C161 C160 1.362 . S
H162 C168 0.930 . S
H163 C171 0.930 . S
H164 C172 0.930 . S
H165 C173 0.930 . S
H166 C176 0.930 . S
H167 C177 0.930 . S
C168 H162 0.930 . S
C168 C169 1.355 . S
C168 C170 1.415 . S
C169 C168 1.355 . S
C169 C171 1.419 . S
C170 C168 1.415 . S
C170 C175 1.425 . S
C170 C177 1.409 . S
C171 H163 0.930 . S
C171 C169 1.419 . S
C171 C172 1.362 . S
C172 H164 0.930 . S
C172 C171 1.362 . S
C172 C175 1.409 . S
C173 H165 0.930 . S
C173 C174 1.355 . S
C173 C175 1.415 . S
C174 C173 1.355 . S
C174 C176 1.419 . S
C175 C170 1.425 . S
C175 C172 1.409 . S
C175 C173 1.415 . S
C176 H166 0.930 . S
C176 C174 1.419 . S
C176 C177 1.362 . S
C177 H167 0.930 . S
C177 C170 1.409 . S
C177 C176 1.362 . S
H178 C184 0.930 . S
H179 C187 0.930 . S
H180 C188 0.930 . S
H181 C189 0.930 . S
H182 C192 0.930 . S
H183 C193 0.930 . S
C184 H178 0.930 . S
C184 C185 1.355 . S
C184 C186 1.415 . S
C185 C184 1.355 . S
C185 C187 1.419 . S
C186 C184 1.415 . S
C186 C191 1.425 . S
C186 C193 1.409 . S
C187 H179 0.930 . S
C187 C185 1.419 . S
C187 C188 1.362 . S
C188 H180 0.930 . S
C188 C187 1.362 . S
C188 C191 1.409 . S
C189 H181 0.930 . S
C189 C190 1.355 . S
C189 C191 1.415 . S
C190 C189 1.355 . S
C190 C192 1.419 . S
C191 C186 1.425 . S
C191 C188 1.409 . S
C191 C189 1.415 . S
C192 H182 0.930 . S
C192 C190 1.419 . S
C192 C193 1.362 . S
C193 H183 0.930 . S
C193 C186 1.409 . S
C193 C192 1.362 . S
C73 C26 1.326 . S
C78 C55 1.324 . S
C89 C25 1.658 . S
C94 C54 1.658 . S
C105 C23 1.261 . S
C110 C60 1.263 . S
C121 C24 1.405 . S
C126 C61 1.405 . S
C137 C21 1.662 . S
C142 C58 1.662 . S
C153 C56 1.296 . S
C158 C27 1.294 . S
C169 C28 1.375 . S
C174 C57 1.375 . S
C185 C59 1.400 . S
C190 C22 1.402 . S
