# Generated by pormake.
# Topology hex, (8)-cn, num edge types: 1
# Building blocks:
#     Node 0, Type 0, BuildingBlock: XADDAJ01_clean_sbu_3, # of connection points: 8
#     Edge 1, Type (0, 0), BuildingBlock: UVAHIK_clean_linker_0, # of connection points: 2
#     Edge 2, Type (0, 0), BuildingBlock: UVAHIK_clean_linker_0, # of connection points: 2
#     Edge 3, Type (0, 0), BuildingBlock: UVAHIK_clean_linker_0, # of connection points: 2
#     Edge 4, Type (0, 0), BuildingBlock: UVAHIK_clean_linker_0, # of connection points: 2
# Relax obj value: 0.037
# Max RMSD: 0.101
# Mean RMSD: 0.101
data_MOF--net-hex--node1-XADDAJ01_clean_sbu_3--edge1-UVAHIK_clean_linker_0
_symmetry_space_group_name_H-M    P1
_symmetry_Int_Tables_number       1
_symmetry_cell_setting            triclinic
loop_
_symmetry_equiv_pos_as_xyz
'x, y, z'
_cell_length_a     27.921641
_cell_length_b     20.571693
_cell_length_c     19.15717
_cell_angle_alpha  112.49132
_cell_angle_beta   101.39616
_cell_angle_gamma 109.94605
loop_
_atom_site_label
_atom_site_type_symbol
_atom_site_fract_x
_atom_site_fract_y
_atom_site_fract_z
_atom_type_partial_charge
C0 C 0.78875 0.88463 0.96447 0.0
C1 C 0.76856 0.8195 0.9782 0.0
C2 C 0.72891 0.8109 0.01364 0.0
C3 C 0.70971 0.86741 0.03527 0.0
C4 C 0.72668 0.92953 0.01766 0.0
C5 C 0.76645 0.93832 0.98272 0.0
O6 O 0.9665 0.04571 0.08796 0.0
Tb7 Tb 0.93078 0.95331 0.96177 0.0
Tb8 Tb 0.0706 0.07106 0.0223 0.0
O9 O 0.96453 0.87648 0.97828 0.0
O10 O 0.05088 0.04922 0.11774 0.0
O11 O 0.85653 0.8526 0.92194 0.0
C12 C 0.17283 0.13156 0.06054 0.0
O13 O 0.85875 0.96478 0.93765 0.0
O14 O 0.03487 0.97867 0.89611 0.0
O15 O 0.9505 0.97516 0.86633 0.0
C16 C 0.82855 0.89281 0.92354 0.0
C17 C 0.04853 0.21623 0.0671 0.0
O18 O 0.07763 0.23567 0.14128 0.0
C19 C 0.01011 0.05481 0.13953 0.0
C20 C 0.99126 0.96956 0.84454 0.0
O21 O 0.03686 0.1479 0.00579 0.0
C22 C 0.21264 0.13974 0.01961 0.0
C23 C 0.27472 0.09488 0.96645 0.0
C24 C 0.23495 0.08607 0.00138 0.0
C25 C 0.23281 0.20487 0.00587 0.0
C26 C 0.27246 0.21347 0.97043 0.0
C27 C 0.29168 0.15698 0.94882 0.0
C28 C 0.95285 0.80815 0.91697 0.0
O29 O 0.92375 0.78871 0.84278 0.0
O30 O 0.14485 0.17177 0.06215 0.0
O31 O 0.14263 0.05957 0.0464 0.0
H32 H 0.78221 0.77443 0.95929 0.0
H33 H 0.67672 0.85805 0.05806 0.0
H34 H 0.77853 0.98543 0.96731 0.0
H35 H 0.22287 0.03896 0.01679 0.0
H36 H 0.21915 0.24993 0.02477 0.0
H37 H 0.32466 0.16634 0.92603 0.0
C38 C 0.04949 0.34904 0.11678 0.0
C39 C 0.0343 0.27424 0.05176 0.0
C40 C 0.04003 0.40612 0.10212 0.0
C41 C 0.01647 0.46169 0.94033 0.0
H42 H 0.97171 0.60011 0.08386 0.0
C43 C 0.95189 0.67534 0.86728 0.0
C44 C 0.96709 0.75014 0.9323 0.0
C45 C 0.96136 0.61826 0.88194 0.0
C46 C 0.98492 0.56269 0.04373 0.0
H47 H 0.99587 0.20036 0.92014 0.0
H48 H 0.97879 0.29948 0.89466 0.0
H49 H 0.98324 0.49756 0.10849 0.0
H50 H 0.00552 0.82402 0.06392 0.0
H51 H 0.0226 0.7249 0.0894 0.0
H52 H 0.01815 0.52682 0.87557 0.0
C53 C 0.99885 0.31453 0.95707 0.0
C54 C 0.99145 0.50365 0.05781 0.0
C55 C 0.00825 0.25736 0.97174 0.0
C56 C 0.99314 0.76702 0.01232 0.0
C57 C 0.00254 0.70986 0.027 0.0
C58 C 0.00994 0.52073 0.92625 0.0
C59 C 0.01514 0.39003 0.02201 0.0
C60 C 0.00732 0.45228 0.00631 0.0
C61 C 0.98625 0.63435 0.96205 0.0
C62 C 0.99407 0.5721 0.97775 0.0
H63 H 0.06977 0.36428 0.17919 0.0
H64 H 0.05367 0.46374 0.15365 0.0
H65 H 0.02969 0.42427 0.9002 0.0
H66 H 0.93161 0.6601 0.80487 0.0
H67 H 0.94772 0.56064 0.83041 0.0
C68 C 0.68181 1.00293 0.09176 0.0
C69 C 0.69445 0.97399 0.0223 0.0
C70 C 0.63783 0.02096 0.0876 0.0
C71 C 0.53562 0.04726 0.95964 0.0
H72 H 0.43918 0.9491 0.04947 0.0
C73 C 0.31958 0.02147 0.89235 0.0
C74 C 0.30694 0.05041 0.9618 0.0
C75 C 0.36356 1.00344 0.8965 0.0
C76 C 0.46577 0.97713 0.02446 0.0
H77 H 0.67443 0.94782 0.89637 0.0
H78 H 0.59787 0.97992 0.88911 0.0
H79 H 0.52838 0.9498 0.06973 0.0
H80 H 0.32697 0.07657 0.08773 0.0
H81 H 0.40353 0.04447 0.09498 0.0
H82 H 0.47301 0.07458 0.91436 0.0
C83 C 0.62183 0.98882 0.94683 0.0
C84 C 0.51705 0.97812 0.03654 0.0
C85 C 0.66595 0.97093 0.95107 0.0
C86 C 0.33545 0.05346 0.03303 0.0
C87 C 0.37956 0.03557 0.03727 0.0
C88 C 0.48434 0.04627 0.94755 0.0
C89 C 0.60569 1.01025 0.01388 0.0
C90 C 0.55259 0.01331 0.00439 0.0
C91 C 0.3957 0.01414 0.97022 0.0
C92 C 0.4488 1.01107 0.97971 0.0
H93 H 0.70341 1.00602 0.14746 0.0
H94 H 0.62721 0.03931 0.14088 0.0
H95 H 0.56221 0.07528 0.93462 0.0
H96 H 0.29799 0.01838 0.83664 0.0
H97 H 0.37418 0.98508 0.84321 0.0
C98 C 0.31201 0.28244 0.8982 0.0
C99 C 0.30291 0.28728 0.96917 0.0
C100 C 0.35709 0.34327 0.90303 0.0
C101 C 0.49635 0.48956 0.05146 0.0
H102 H 0.50724 0.55318 0.88686 0.0
C103 C 0.68936 0.74193 0.08587 0.0
C104 C 0.69845 0.7371 0.01489 0.0
C105 C 0.64427 0.6811 0.08103 0.0
C106 C 0.50501 0.53482 0.9326 0.0
H107 H 0.32986 0.36266 0.09919 0.0
H108 H 0.40782 0.47035 0.1075 0.0
H109 H 0.41705 0.47015 0.87749 0.0
H110 H 0.6715 0.66173 0.88487 0.0
H111 H 0.59354 0.55404 0.87655 0.0
H112 H 0.5843 0.55423 0.10656 0.0
C113 C 0.38095 0.41871 0.04842 0.0
C114 C 0.45325 0.48786 0.9276 0.0
C115 C 0.33573 0.35781 0.04349 0.0
C116 C 0.66563 0.66657 0.94057 0.0
C117 C 0.62041 0.60568 0.93564 0.0
C118 C 0.54811 0.53651 0.05646 0.0
C119 C 0.39384 0.41002 0.97902 0.0
C120 C 0.44828 0.46475 0.98702 0.0
C121 C 0.60752 0.61436 0.00504 0.0
C122 C 0.55308 0.55963 -0.00297 0.0
H123 H 0.28741 0.22828 0.84031 0.0
H124 H 0.36569 0.33463 0.84835 0.0
H125 H 0.49412 0.4712 0.09719 0.0
H126 H 0.71395 0.79608 0.14376 0.0
H127 H 0.63567 0.68974 0.13571 0.0
C128 C 0.04069 0.98458 0.75134 0.0
C129 C 0.99179 0.96666 0.76635 0.0
C130 C 0.04263 0.99233 0.6824 0.0
C131 C 0.95556 0.94661 0.48029 0.0
H132 H 0.08086 0.12942 0.51448 0.0
C133 C 0.96068 0.03981 0.23273 0.0
C134 C 0.00959 0.05772 0.21772 0.0
C135 C 0.95874 0.03205 0.30167 0.0
C136 C 0.04581 0.07778 0.50379 0.0
H137 H 0.90594 0.93901 0.71874 0.0
H138 H 0.9094 0.95253 0.59888 0.0
H139 H 0.0771 0.10276 0.62739 0.0
H140 H 0.09544 0.08537 0.26533 0.0
H141 H 0.09198 0.07185 0.38519 0.0
H142 H 0.92428 0.92163 0.35668 0.0
C143 C 0.94622 0.96051 0.64014 0.0
C144 C 0.04376 0.0623 0.56837 0.0
C145 C 0.94432 0.95311 0.70913 0.0
C146 C 0.05705 0.07127 0.27495 0.0
C147 C 0.05516 0.06387 0.34393 0.0
C148 C 0.95762 0.96209 0.41571 0.0
C149 C 0.99566 0.98186 0.62687 0.0
C150 C 0.99862 0.99654 0.55736 0.0
C151 C 0.00572 0.04253 0.3572 0.0
C152 C 0.00276 0.02785 0.42672 0.0
H153 H 0.07802 0.99544 0.79422 0.0
H154 H 0.08114 1.00763 0.67316 0.0
H155 H 0.92052 0.89497 0.4696 0.0
H156 H 0.92336 0.02894 0.18985 0.0
H157 H 0.92024 0.01675 0.31091 0.0
loop_
_geom_bond_atom_site_label_1
_geom_bond_atom_site_label_2
_geom_bond_distance
_geom_bond_site_symmetry_2
_ccdc_geom_bond_type
C0 C1 1.386 . S
C0 C5 1.384 . S
C0 C16 1.497 . S
C1 C0 1.386 . S
C1 C2 1.393 1_556 S
C1 H32 0.932 . S
C2 C1 1.393 1_554 S
C2 C3 1.387 . S
C3 C2 1.387 . S
C3 C4 1.392 1_554 S
C3 H33 0.930 . S
C4 C3 1.392 1_556 S
C4 C5 1.402 . S
C5 C0 1.384 . S
C5 C4 1.402 . S
C5 H34 0.930 . S
O6 Tb7 2.288 1_554 S
O6 C19 1.257 1_665 S
Tb7 O6 2.288 1_556 S
Tb7 O9 2.303 . S
Tb7 O11 2.430 . S
Tb7 O13 2.459 . S
Tb7 O15 2.301 . S
Tb7 C16 2.808 . S
Tb8 O10 2.301 . S
Tb8 C12 2.808 . S
Tb8 O14 2.288 1_554 S
Tb8 O21 2.303 . S
Tb8 O30 2.430 . S
Tb8 O31 2.459 . S
O9 Tb7 2.303 . S
O9 C28 1.255 1_655 S
O10 Tb8 2.301 . S
O10 C19 1.237 . S
O11 Tb7 2.430 . S
O11 C16 1.248 . S
C12 Tb8 2.808 . S
C12 C22 1.497 . S
C12 O30 1.248 . S
C12 O31 1.260 . S
O13 Tb7 2.459 . S
O13 C16 1.260 . S
O14 Tb8 2.288 1_556 S
O14 C20 1.257 1_445 S
O15 Tb7 2.301 . S
O15 C20 1.237 . S
C16 C0 1.497 . S
C16 Tb7 2.808 . S
C16 O11 1.248 . S
C16 O13 1.260 . S
C17 O18 1.255 . S
C17 O21 1.255 1_655 S
O18 C17 1.255 . S
C19 O6 1.257 1_445 S
C19 O10 1.237 . S
C20 O14 1.257 1_665 S
C20 O15 1.237 . S
O21 Tb8 2.303 . S
O21 C17 1.255 1_455 S
C22 C12 1.497 . S
C22 C24 1.384 . S
C22 C25 1.386 . S
C23 C24 1.402 . S
C23 C27 1.392 1_554 S
C24 C22 1.384 . S
C24 C23 1.402 . S
C24 H35 0.930 . S
C25 C22 1.386 . S
C25 C26 1.393 1_554 S
C25 H36 0.932 . S
C26 C25 1.393 1_556 S
C26 C27 1.387 . S
C27 C23 1.392 1_556 S
C27 C26 1.387 . S
C27 H37 0.930 . S
C28 O9 1.255 1_455 S
C28 O29 1.255 . S
O29 C28 1.255 . S
O30 Tb8 2.430 . S
O30 C12 1.248 . S
O31 Tb8 2.459 . S
O31 C12 1.260 . S
H32 C1 0.932 . S
H33 C3 0.930 . S
H34 C5 0.930 . S
H35 C24 0.930 . S
H36 C25 0.932 . S
H37 C27 0.930 . S
C38 C39 1.349 1_455 S
C38 C40 1.327 . S
C38 H63 0.950 . S
C39 C38 1.349 1_655 S
C39 C55 1.349 1_554 S
C40 C38 1.327 . S
C40 C59 1.429 1_455 S
C40 H64 0.950 . S
C41 C58 1.574 . S
C41 C60 1.372 1_556 S
C41 H65 0.949 . S
H42 C46 0.949 . S
C43 C44 1.349 1_655 S
C43 C45 1.327 . S
C43 H66 0.950 . S
C44 C43 1.349 1_455 S
C44 C56 1.349 1_556 S
C45 C43 1.327 . S
C45 C61 1.429 1_655 S
C45 H67 0.950 . S
C46 H42 0.949 . S
C46 C54 1.574 . S
C46 C62 1.373 1_554 S
H47 C55 0.950 . S
H48 C53 0.950 . S
H49 C54 0.949 . S
H50 C56 0.950 . S
H51 C57 0.950 . S
H52 C58 0.949 . S
C53 H48 0.950 . S
C53 C55 1.327 . S
C53 C59 1.429 1_556 S
C54 C46 1.574 . S
C54 H49 0.949 . S
C54 C60 1.369 1_455 S
C55 C39 1.349 1_556 S
C55 H47 0.950 . S
C55 C53 1.327 . S
C56 C44 1.349 1_554 S
C56 H50 0.950 . S
C56 C57 1.327 . S
C57 H51 0.950 . S
C57 C56 1.327 . S
C57 C61 1.429 1_554 S
C58 C41 1.574 . S
C58 H52 0.949 . S
C58 C62 1.369 1_655 S
C59 C40 1.429 1_655 S
C59 C53 1.429 1_554 S
C59 C60 1.517 . S
C60 C41 1.372 1_554 S
C60 C54 1.369 1_655 S
C60 C59 1.517 . S
C61 C45 1.429 1_455 S
C61 C57 1.429 1_556 S
C61 C62 1.516 . S
C62 C46 1.373 1_556 S
C62 C58 1.369 1_455 S
C62 C61 1.516 . S
H63 C38 0.950 . S
H64 C40 0.950 . S
H65 C41 0.949 . S
H66 C43 0.950 . S
H67 C45 0.950 . S
C68 C69 1.349 1_554 S
C68 C70 1.327 . S
C68 H93 0.950 . S
C69 C68 1.349 1_556 S
C69 C85 1.349 . S
C70 C68 1.327 . S
C70 C89 1.429 1_554 S
C70 H94 0.950 . S
C71 C88 1.574 . S
C71 C90 1.368 1_545 S
C71 H95 0.949 . S
H72 C76 0.949 . S
C73 C74 1.349 1_556 S
C73 C75 1.327 . S
C73 H96 0.950 . S
C74 C73 1.349 1_554 S
C74 C86 1.349 . S
C75 C73 1.327 . S
C75 C91 1.429 1_556 S
C75 H97 0.950 . S
C76 H72 0.949 . S
C76 C84 1.574 . S
C76 C92 1.368 1_565 S
H77 C85 0.950 1_545 S
H78 C83 0.950 . S
H79 C84 0.949 . S
H80 C86 0.950 1_565 S
H81 C87 0.950 . S
H82 C88 0.949 . S
C83 H78 0.950 . S
C83 C85 1.327 1_545 S
C83 C89 1.429 1_545 S
C84 C76 1.574 . S
C84 H79 0.949 . S
C84 C90 1.368 1_554 S
C85 C69 1.349 . S
C85 H77 0.950 1_565 S
C85 C83 1.327 1_565 S
C86 C74 1.349 . S
C86 H80 0.950 1_545 S
C86 C87 1.327 1_545 S
C87 H81 0.950 . S
C87 C86 1.327 1_565 S
C87 C91 1.429 1_565 S
C88 C71 1.574 . S
C88 H82 0.949 . S
C88 C92 1.368 1_556 S
C89 C70 1.429 1_556 S
C89 C83 1.429 1_565 S
C89 C90 1.523 . S
C90 C71 1.368 1_565 S
C90 C84 1.368 1_556 S
C90 C89 1.523 . S
C91 C75 1.429 1_554 S
C91 C87 1.429 1_545 S
C91 C92 1.523 . S
C92 C76 1.368 1_545 S
C92 C88 1.368 1_554 S
C92 C91 1.523 . S
H93 C68 0.950 . S
H94 C70 0.950 . S
H95 C71 0.949 . S
H96 C73 0.950 . S
H97 C75 0.950 . S
C98 C99 1.349 . S
C98 C100 1.327 . S
C98 H123 0.950 . S
C99 C98 1.349 . S
C99 C115 1.349 1_556 S
C100 C98 1.327 . S
C100 C119 1.429 . S
C100 H124 0.950 . S
C101 C118 1.574 . S
C101 C120 1.368 1_554 S
C101 H125 0.949 . S
H102 C106 0.949 . S
C103 C104 1.349 . S
C103 C105 1.327 . S
C103 H126 0.950 . S
C104 C103 1.349 . S
C104 C116 1.349 1_554 S
C105 C103 1.327 . S
C105 C121 1.429 . S
C105 H127 0.950 . S
C106 H102 0.949 . S
C106 C114 1.574 . S
C106 C122 1.368 1_556 S
H107 C115 0.950 . S
H108 C113 0.950 . S
H109 C114 0.949 . S
H110 C116 0.950 . S
H111 C117 0.950 . S
H112 C118 0.949 . S
C113 H108 0.950 . S
C113 C115 1.327 . S
C113 C119 1.429 1_554 S
C114 C106 1.574 . S
C114 H109 0.949 . S
C114 C120 1.368 . S
C115 C99 1.349 1_554 S
C115 H107 0.950 . S
C115 C113 1.327 . S
C116 C104 1.349 1_556 S
C116 H110 0.950 . S
C116 C117 1.327 . S
C117 H111 0.950 . S
C117 C116 1.327 . S
C117 C121 1.429 1_556 S
C118 C101 1.574 . S
C118 H112 0.949 . S
C118 C122 1.368 . S
C119 C100 1.429 . S
C119 C113 1.429 1_556 S
C119 C120 1.523 . S
C120 C101 1.368 1_556 S
C120 C114 1.368 . S
C120 C119 1.523 . S
C121 C105 1.429 . S
C121 C117 1.429 1_554 S
C121 C122 1.523 . S
C122 C106 1.368 1_554 S
C122 C118 1.368 . S
C122 C121 1.523 . S
H123 C98 0.950 . S
H124 C100 0.950 . S
H125 C101 0.949 . S
H126 C103 0.950 . S
H127 C105 0.950 . S
C128 C129 1.348 . S
C128 C130 1.327 . S
C128 H153 0.950 . S
C129 C128 1.348 . S
C129 C145 1.350 1_445 S
C130 C128 1.327 . S
C130 C149 1.428 . S
C130 H154 0.950 . S
C131 C148 1.574 . S
C131 C150 1.369 1_665 S
C131 H155 0.949 . S
H132 C136 0.949 . S
C133 C134 1.348 1_665 S
C133 C135 1.327 . S
C133 H156 0.950 . S
C134 C133 1.348 1_445 S
C134 C146 1.350 . S
C135 C133 1.327 . S
C135 C151 1.428 1_665 S
C135 H157 0.950 . S
C136 H132 0.949 . S
C136 C144 1.574 . S
C136 C152 1.369 . S
H137 C145 0.950 . S
H138 C143 0.950 . S
H139 C144 0.949 . S
H140 C146 0.950 . S
H141 C147 0.950 . S
H142 C148 0.949 . S
C143 H138 0.950 . S
C143 C145 1.327 . S
C143 C149 1.429 1_665 S
C144 C136 1.574 . S
C144 H139 0.949 . S
C144 C150 1.368 . S
C145 C129 1.350 1_665 S
C145 H137 0.950 . S
C145 C143 1.327 . S
C146 C134 1.350 . S
C146 H140 0.950 . S
C146 C147 1.327 . S
C147 H141 0.950 . S
C147 C146 1.327 . S
C147 C151 1.429 . S
C148 C131 1.574 . S
C148 H142 0.949 . S
C148 C152 1.368 1_665 S
C149 C130 1.428 . S
C149 C143 1.429 1_445 S
C149 C150 1.523 . S
C150 C131 1.369 1_445 S
C150 C144 1.368 . S
C150 C149 1.523 . S
C151 C135 1.428 1_445 S
C151 C147 1.429 . S
C151 C152 1.523 . S
C152 C136 1.369 . S
C152 C148 1.368 1_445 S
C152 C151 1.523 . S
H153 C128 0.950 . S
H154 C130 0.950 . S
H155 C131 0.949 . S
H156 C133 0.950 . S
H157 C135 0.950 . S
C39 C17 0.422 . S
C44 C28 0.422 . S
C69 C4 2.159 . S
C74 C23 2.159 . S
C99 C26 1.901 . S
C104 C2 1.901 . S
C129 C20 1.490 1_445 S
C134 C19 1.490 . S
