# Generated by pormake.
# Topology fee, (5)-cn, num edge types: 1
# Building blocks:
#     Node 0, Type 0, BuildingBlock: XOMCOT_clean_sbu_0, # of connection points: 5
#     Node 1, Type 0, BuildingBlock: XOMCOT_clean_sbu_0, # of connection points: 5
#     Node 2, Type 0, BuildingBlock: XOMCOT_clean_sbu_0, # of connection points: 5
#     Node 3, Type 0, BuildingBlock: XOMCOT_clean_sbu_0, # of connection points: 5
#     Edge 4, Type (0, 0), BuildingBlock: OJICUG_clean_linker_0, # of connection points: 2
#     Edge 5, Type (0, 0), BuildingBlock: OJICUG_clean_linker_0, # of connection points: 2
#     Edge 6, Type (0, 0), BuildingBlock: OJICUG_clean_linker_0, # of connection points: 2
#     Edge 7, Type (0, 0), BuildingBlock: OJICUG_clean_linker_0, # of connection points: 2
#     Edge 8, Type (0, 0), BuildingBlock: OJICUG_clean_linker_0, # of connection points: 2
#     Edge 9, Type (0, 0), BuildingBlock: OJICUG_clean_linker_0, # of connection points: 2
#     Edge 10, Type (0, 0), BuildingBlock: OJICUG_clean_linker_0, # of connection points: 2
#     Edge 11, Type (0, 0), BuildingBlock: OJICUG_clean_linker_0, # of connection points: 2
#     Edge 12, Type (0, 0), BuildingBlock: OJICUG_clean_linker_0, # of connection points: 2
#     Edge 13, Type (0, 0), BuildingBlock: OJICUG_clean_linker_0, # of connection points: 2
# Relax obj value: 0.155
# Max RMSD: 0.169
# Mean RMSD: 0.149
data_MOF--net-fee--node1-XOMCOT_clean_sbu_0--edge1-OJICUG_clean_linker_0
_symmetry_space_group_name_H-M    P1
_symmetry_Int_Tables_number       1
_symmetry_cell_setting            triclinic
loop_
_symmetry_equiv_pos_as_xyz
'x, y, z'
_cell_length_a     28.731347
_cell_length_b     28.735472
_cell_length_c     13.652757
_cell_angle_alpha  95.684496
_cell_angle_beta   95.721715
_cell_angle_gamma 89.694431
loop_
_atom_site_label
_atom_site_type_symbol
_atom_site_fract_x
_atom_site_fract_y
_atom_site_fract_z
_atom_type_partial_charge
Co0 Co 0.1772 0.55713 0.11271 0.0
C1 C 0.17621 0.55529 0.32967 0.0
C2 C 0.18202 0.62478 0.287 0.0
C3 C 0.18125 0.62769 0.38786 0.0
N4 N 0.17906 0.57948 0.25079 0.0
N5 N 0.17752 0.58403 0.41483 0.0
H6 H 0.17241 0.51766 0.3244 0.0
H7 H 0.18437 0.65378 0.2429 0.0
C8 C 0.26112 0.6082 0.04968 0.0
O9 O 0.26868 0.57508 0.97974 0.0
N10 N 0.17431 0.53522 0.97261 0.0
C11 C 0.16512 0.49106 0.93195 0.0
C12 C 0.16359 0.48969 0.83112 0.0
C13 C 0.17574 0.56058 0.89458 0.0
N14 N 0.17065 0.53327 0.80743 0.0
C15 C 0.20664 0.4635 0.1412 0.0
C16 C 0.30168 0.47942 0.1548 0.0
C17 C 0.28516 0.43319 0.13536 0.0
C18 C 0.23697 0.42551 0.13417 0.0
C19 C 0.26986 0.51644 0.16118 0.0
N20 N 0.22279 0.50826 0.14386 0.0
H21 H 0.16967 0.45637 0.13702 0.0
H22 H 0.28358 0.55133 0.17842 0.0
H23 H 0.15781 0.4617 0.97124 0.0
H24 H 0.181 0.59807 0.90158 0.0
O25 O 0.12028 0.52296 0.1206 0.0
O26 O 0.12304 0.59639 0.08557 0.0
O27 O 0.22762 0.60489 0.10343 0.0
C28 C 0.09779 0.56045 0.09876 0.0
H29 H 0.18379 0.65957 0.43742 0.0
H30 H 0.15638 0.45907 0.77901 0.0
H31 H 0.33882 0.48703 0.16335 0.0
H32 H 0.22222 0.39059 0.12234 0.0
Co33 Co 0.45489 0.19395 0.14158 0.0
C34 C 0.45856 0.19825 0.36027 0.0
C35 C 0.39004 0.21261 0.29244 0.0
C36 C 0.38798 0.21357 0.39273 0.0
N37 N 0.4343 0.20352 0.27228 0.0
N38 N 0.43097 0.20435 0.43527 0.0
H39 H 0.49529 0.18931 0.36885 0.0
H40 H 0.36078 0.21623 0.23766 0.0
C41 C 0.4111 0.27872 0.05203 0.0
O42 O 0.44887 0.2856 1.0083 0.0
N43 N 0.47485 0.18299 1.00849 0.0
C44 C 0.51453 0.16151 0.98363 0.0
C45 C 0.51559 0.15898 0.8831 0.0
C46 C 0.45112 0.19068 0.92092 0.0
N47 N 0.47583 0.1776 0.84329 0.0
C48 C 0.54956 0.22794 0.1736 0.0
C49 C 0.5272 0.32161 0.19538 0.0
C50 C 0.57177 0.30869 0.16801 0.0
C51 C 0.58385 0.26122 0.16613 0.0
C52 C 0.49439 0.28683 0.20474 0.0
N53 N 0.50417 0.24089 0.17953 0.0
H54 H 0.55919 0.19161 0.16958 0.0
H55 H 0.45997 0.29714 0.22378 0.0
H56 H 0.54067 0.14693 0.03388 0.0
H57 H 0.41605 0.20455 0.91379 0.0
O58 O 0.48881 0.13904 0.17748 0.0
O59 O 0.41483 0.1392 0.11333 0.0
O60 O 0.40803 0.24305 0.10021 0.0
C61 C 0.45081 0.11544 0.14627 0.0
H62 H 0.35677 0.21844 0.43087 0.0
H63 H 0.54383 0.14461 0.84294 0.0
H64 H 0.51645 0.35782 0.20311 0.0
H65 H 0.61894 0.2495 0.15453 0.0
Co66 Co 0.81723 0.55661 0.07947 0.0
C67 C 0.813 0.55306 0.86087 0.0
C68 C 0.79864 0.62157 0.92857 0.0
C69 C 0.79758 0.6236 0.82823 0.0
N70 N 0.80778 0.57733 0.94882 0.0
N71 N 0.80681 0.58061 0.78581 0.0
H72 H 0.8219 0.51633 0.85235 0.0
H73 H 0.79497 0.65082 0.9833 0.0
C74 C 0.73208 0.59987 0.1675 0.0
O75 O 0.72497 0.5617 0.20971 0.0
N76 N 0.82812 0.53656 0.21259 0.0
C77 C 0.85058 0.49743 0.23783 0.0
C78 C 0.85301 0.49632 0.33833 0.0
C79 C 0.81979 0.56001 0.30001 0.0
N80 N 0.83341 0.53559 0.37784 0.0
C81 C 0.78242 0.46212 0.04893 0.0
C82 C 0.68911 0.48517 1.01735 0.0
C83 C 0.70112 0.44038 0.04353 0.0
C84 C 0.74843 0.42798 0.05225 0.0
C85 C 0.72457 0.51783 1.01221 0.0
N86 N 0.77009 0.50759 0.04105 0.0
H87 H 0.81865 0.45226 0.0572 0.0
H88 H 0.71502 0.55239 0.99272 0.0
H89 H 0.86603 0.47178 0.1879 0.0
H90 H 0.80527 0.5948 0.30695 0.0
O91 O 0.87204 0.52255 0.04346 0.0
O92 O 0.8721 0.59647 0.10793 0.0
O93 O 0.76817 0.60348 0.12086 0.0
C94 C 0.89575 0.56047 0.0748 0.0
H95 H 0.79262 0.65477 0.78996 0.0
H96 H 0.86816 0.46847 0.37869 0.0
H97 H 0.65281 0.4953 1.00464 0.0
H98 H 0.75922 0.39306 0.06777 0.0
Co99 Co 0.4538 0.83402 0.10756 0.0
C100 C 0.45562 0.83503 0.8906 0.0
C101 C 0.38611 0.82934 0.93324 0.0
C102 C 0.38319 0.83008 0.83237 0.0
N103 N 0.43142 0.83224 0.96948 0.0
N104 N 0.42686 0.83373 0.80542 0.0
H105 H 0.49325 0.83876 0.89588 0.0
H106 H 0.3571 0.82703 0.97733 0.0
C107 C 0.40285 0.75002 0.17038 0.0
O108 O 0.43607 0.74241 0.24013 0.0
N109 N 0.47573 0.83684 0.24768 0.0
C110 C 0.51989 0.84605 0.28843 0.0
C111 C 0.52124 0.84754 0.38926 0.0
C112 C 0.45035 0.83533 0.32564 0.0
N113 N 0.47765 0.84042 0.41285 0.0
C114 C 0.54745 0.80457 0.07932 0.0
C115 C 0.53141 0.70954 0.0647 0.0
C116 C 0.57766 0.72599 0.08446 0.0
C117 C 0.5854 0.7742 0.0862 0.0
C118 C 0.49442 0.74142 0.05854 0.0
N119 N 0.50265 0.78845 0.07636 0.0
H120 H 0.55462 0.84154 0.0838 0.0
H121 H 0.4595 0.72777 0.04106 0.0
H122 H 0.54925 0.85344 0.24924 0.0
H123 H 0.41286 0.83005 0.31856 0.0
O124 O 0.488 0.89093 0.09975 0.0
O125 O 0.41456 0.88819 0.13475 0.0
O126 O 0.40604 0.7836 0.11678 0.0
C127 C 0.45052 0.91342 0.12163 0.0
H128 H 0.35129 0.82756 0.78279 0.0
H129 H 0.55185 0.85477 0.44143 0.0
H130 H 0.52375 0.67242 0.05572 0.0
H131 H 0.62034 0.78891 0.0983 0.0
C132 C 0.1597 0.59159 0.68536 0.0
C133 C 0.17286 0.54665 0.70898 0.0
H134 H 0.14962 0.63838 0.57292 0.0
C135 C 0.18774 0.51432 0.6343 0.0
H136 H 0.14758 0.61706 0.74087 0.0
C137 C 0.18912 0.52646 0.53813 0.0
C138 C 0.17564 0.57129 0.51403 0.0
H139 H 0.199 0.47966 0.65045 0.0
H140 H 0.20148 0.50089 0.48316 0.0
C141 C 0.16091 0.60374 0.58891 0.0
C142 C 0.48664 0.15787 0.6659 0.0
C143 C 0.46375 0.18375 0.74 0.0
H144 H 0.49435 0.14433 0.51123 0.0
C145 C 0.43023 0.21694 0.71143 0.0
H146 H 0.51208 0.13146 0.68422 0.0
C147 C 0.41987 0.22394 0.6117 0.0
C148 C 0.44303 0.19826 0.53816 0.0
H149 H 0.41245 0.23814 0.766 0.0
H150 H 0.39409 0.24992 0.59212 0.0
C151 C 0.4766 0.16526 0.56636 0.0
C152 C 0.84602 0.53513 0.65489 0.0
C153 C 0.81281 0.56848 0.68294 0.0
H154 H 0.87997 0.4998 0.53726 0.0
C155 C 0.78682 0.59133 0.60928 0.0
H156 H 0.86717 0.51763 0.71015 0.0
C157 C 0.79374 0.58089 0.50955 0.0
C158 C 0.82718 0.54762 0.48111 0.0
H159 H 0.76068 0.61694 0.62879 0.0
H160 H 0.7723 0.59844 0.45491 0.0
C161 C 0.85335 0.52504 0.55538 0.0
C162 C 0.48442 0.82202 0.6822 0.0
C163 C 0.4396 0.83554 0.70621 0.0
H164 H 0.53124 0.81207 0.56996 0.0
C165 C 0.40715 0.85025 0.63123 0.0
H166 H 0.50999 0.80967 0.73724 0.0
C167 C 0.4193 0.85141 0.53478 0.0
C168 C 0.46426 0.83822 0.51126 0.0
H169 H 0.3725 0.86157 0.64713 0.0
H170 H 0.39384 0.86352 0.47919 0.0
C171 C 0.49658 0.82335 0.58603 0.0
C172 C 0.97206 0.51911 0.06858 0.0
C173 C 0.94733 0.56136 0.07719 0.0
H174 H 0.03885 0.48587 0.06959 0.0
C175 C 0.97243 0.60376 0.09056 0.0
H176 H 0.95376 0.48585 0.05859 0.0
C177 C 0.02144 0.60378 0.09547 0.0
C178 C 0.04608 0.56138 0.08909 0.0
H179 H 0.95424 0.63686 0.09724 0.0
H180 H 0.04004 0.63687 0.10629 0.0
C181 C 0.02086 0.51911 0.0753 0.0
C182 C 0.40727 0.98982 0.12518 0.0
C183 C 0.44965 0.96512 0.13148 0.0
H184 H 0.37429 0.05708 0.12363 0.0
C185 C 0.49196 0.99027 0.1454 0.0
H186 H 0.37415 0.97128 0.11427 0.0
C187 C 0.49204 0.03906 0.1523 0.0
C188 C 0.44982 0.06387 0.14375 0.0
H189 H 0.52518 0.97224 0.15107 0.0
H190 H 0.52534 0.0573 0.16237 0.0
C191 C 0.40737 0.03883 0.13027 0.0
C192 C 0.33864 0.31159 0.12041 0.0
C193 C 0.37688 0.31718 0.06577 0.0
H194 H 0.28117 0.34364 0.18859 0.0
C195 C 0.38449 0.36121 0.0334 0.0
H196 H 0.33157 0.27829 0.14662 0.0
C197 C 0.35506 0.39886 0.05673 0.0
C198 C 0.31737 0.39346 0.11324 0.0
H199 H 0.41367 0.3669 0.99149 0.0
H200 H 0.36165 0.43213 0.02963 0.0
C201 C 0.30949 0.34921 0.14431 0.0
C202 C 0.66429 0.36093 0.02954 0.0
C203 C 0.66544 0.40783 0.06924 0.0
H204 H 0.63322 0.29359 0.02685 0.0
C205 C 0.63521 0.42251 0.14097 0.0
H206 H 0.68713 0.34878 0.97389 0.0
C207 C 0.60517 0.39055 0.1742 0.0
C208 C 0.60429 0.34326 0.13542 0.0
H209 H 0.63602 0.45841 0.17398 0.0
H210 H 0.58347 0.40286 0.23172 0.0
C211 C 0.63378 0.32919 0.06132 0.0
C212 C 0.61185 0.65576 0.16221 0.0
C213 C 0.61736 0.69369 0.10639 0.0
H214 H 0.6437 0.59692 0.22683 0.0
C215 C 0.6617 0.70172 0.0759 0.0
H216 H 0.57851 0.64903 0.18885 0.0
C217 C 0.69931 0.67253 0.09976 0.0
C218 C 0.69361 0.63408 0.15375 0.0
H219 H 0.66736 0.73022 0.03211 0.0
H220 H 0.73267 0.67974 0.07403 0.0
C221 C 0.64948 0.62628 0.18544 0.0
C222 C 0.34425 0.69242 0.21085 0.0
C223 C 0.36575 0.71457 0.14009 0.0
H224 H 0.29308 0.6423 0.23726 0.0
C225 C 0.35221 0.70193 0.03899 0.0
H226 H 0.35406 0.70156 0.28906 0.0
C227 C 0.31853 0.66698 1.00922 0.0
C228 C 0.29655 0.64532 0.07998 0.0
H229 H 0.36848 0.71832 0.98282 0.0
H230 H 0.30928 0.65729 0.931 0.0
C231 C 0.30934 0.65871 0.18108 0.0
loop_
_geom_bond_atom_site_label_1
_geom_bond_atom_site_label_2
_geom_bond_distance
_geom_bond_site_symmetry_2
_ccdc_geom_bond_type
Co0 N4 2.148 . S
Co0 N10 2.128 1_554 S
Co0 N20 2.194 . S
Co0 O25 2.351 . S
Co0 O26 2.155 . S
Co0 O27 2.096 . S
C1 N4 1.301 . S
C1 N5 1.328 . S
C1 H6 0.930 . S
C2 C3 1.333 . S
C2 N4 1.317 . S
C2 H7 0.930 . S
C3 C2 1.333 . S
C3 N5 1.350 . S
C3 H29 0.931 . S
N4 Co0 2.148 . S
N4 C1 1.301 . S
N4 C2 1.317 . S
N5 C1 1.328 . S
N5 C3 1.350 . S
H6 C1 0.930 . S
H7 C2 0.930 . S
C8 O9 1.224 . S
C8 O27 1.247 . S
O9 C8 1.224 . S
N10 Co0 2.128 1_556 S
N10 C11 1.355 . S
N10 C13 1.311 . S
C11 N10 1.355 . S
C11 C12 1.363 . S
C11 H23 0.929 . S
C12 C11 1.363 . S
C12 N14 1.375 . S
C12 H30 0.931 . S
C13 N10 1.311 . S
C13 N14 1.347 . S
C13 H24 0.929 . S
N14 C12 1.375 . S
N14 C13 1.347 . S
C15 C18 1.365 . S
C15 N20 1.328 . S
C15 H21 0.929 . S
C16 C17 1.362 . S
C16 C19 1.378 . S
C16 H31 0.929 . S
C17 C16 1.362 . S
C17 C18 1.366 . S
C18 C15 1.365 . S
C18 C17 1.366 . S
C18 H32 0.930 . S
C19 C16 1.378 . S
C19 N20 1.315 . S
C19 H22 0.930 . S
N20 Co0 2.194 . S
N20 C15 1.328 . S
N20 C19 1.315 . S
H21 C15 0.929 . S
H22 C19 0.930 . S
H23 C11 0.929 . S
H24 C13 0.929 . S
O25 Co0 2.351 . S
O25 C28 1.244 . S
O26 Co0 2.155 . S
O26 C28 1.240 . S
O27 Co0 2.096 . S
O27 C8 1.247 . S
C28 O25 1.244 . S
C28 O26 1.240 . S
H29 C3 0.931 . S
H30 C12 0.931 . S
H31 C16 0.929 . S
H32 C18 0.930 . S
Co33 N37 2.148 . S
Co33 N43 2.128 1_554 S
Co33 N53 2.194 . S
Co33 O58 2.351 . S
Co33 O59 2.155 . S
Co33 O60 2.096 . S
C34 N37 1.301 . S
C34 N38 1.328 . S
C34 H39 0.930 . S
C35 C36 1.333 . S
C35 N37 1.317 . S
C35 H40 0.930 . S
C36 C35 1.333 . S
C36 N38 1.350 . S
C36 H62 0.931 . S
N37 Co33 2.148 . S
N37 C34 1.301 . S
N37 C35 1.317 . S
N38 C34 1.328 . S
N38 C36 1.350 . S
H39 C34 0.930 . S
H40 C35 0.930 . S
C41 O42 1.224 . S
C41 O60 1.247 . S
O42 C41 1.224 . S
N43 Co33 2.128 1_556 S
N43 C44 1.355 . S
N43 C46 1.311 . S
C44 N43 1.355 . S
C44 C45 1.363 . S
C44 H56 0.929 . S
C45 C44 1.363 . S
C45 N47 1.375 . S
C45 H63 0.931 . S
C46 N43 1.311 . S
C46 N47 1.347 . S
C46 H57 0.929 . S
N47 C45 1.375 . S
N47 C46 1.347 . S
C48 C51 1.365 . S
C48 N53 1.328 . S
C48 H54 0.929 . S
C49 C50 1.362 . S
C49 C52 1.378 . S
C49 H64 0.929 . S
C50 C49 1.362 . S
C50 C51 1.366 . S
C51 C48 1.365 . S
C51 C50 1.366 . S
C51 H65 0.930 . S
C52 C49 1.378 . S
C52 N53 1.315 . S
C52 H55 0.930 . S
N53 Co33 2.194 . S
N53 C48 1.328 . S
N53 C52 1.315 . S
H54 C48 0.929 . S
H55 C52 0.930 . S
H56 C44 0.929 . S
H57 C46 0.929 . S
O58 Co33 2.351 . S
O58 C61 1.244 . S
O59 Co33 2.155 . S
O59 C61 1.240 . S
O60 Co33 2.096 . S
O60 C41 1.247 . S
C61 O58 1.244 . S
C61 O59 1.240 . S
H62 C36 0.931 . S
H63 C45 0.931 . S
H64 C49 0.929 . S
H65 C51 0.930 . S
Co66 N70 2.148 1_554 S
Co66 N76 2.128 . S
Co66 N86 2.194 . S
Co66 O91 2.351 . S
Co66 O92 2.155 . S
Co66 O93 2.096 . S
C67 N70 1.301 . S
C67 N71 1.328 . S
C67 H72 0.930 . S
C68 C69 1.333 . S
C68 N70 1.317 . S
C68 H73 0.930 . S
C69 C68 1.333 . S
C69 N71 1.350 . S
C69 H95 0.931 . S
N70 Co66 2.148 1_556 S
N70 C67 1.301 . S
N70 C68 1.317 . S
N71 C67 1.328 . S
N71 C69 1.350 . S
H72 C67 0.930 . S
H73 C68 0.930 . S
C74 O75 1.224 . S
C74 O93 1.247 . S
O75 C74 1.224 . S
N76 Co66 2.128 . S
N76 C77 1.355 . S
N76 C79 1.311 . S
C77 N76 1.355 . S
C77 C78 1.363 . S
C77 H89 0.929 . S
C78 C77 1.363 . S
C78 N80 1.375 . S
C78 H96 0.931 . S
C79 N76 1.311 . S
C79 N80 1.347 . S
C79 H90 0.929 . S
N80 C78 1.375 . S
N80 C79 1.347 . S
C81 C84 1.365 . S
C81 N86 1.328 . S
C81 H87 0.929 . S
C82 C83 1.362 . S
C82 C85 1.378 . S
C82 H97 0.929 . S
C83 C82 1.362 . S
C83 C84 1.366 . S
C84 C81 1.365 . S
C84 C83 1.366 . S
C84 H98 0.930 . S
C85 C82 1.378 . S
C85 N86 1.315 . S
C85 H88 0.930 . S
N86 Co66 2.194 . S
N86 C81 1.328 . S
N86 C85 1.315 . S
H87 C81 0.929 . S
H88 C85 0.930 . S
H89 C77 0.929 . S
H90 C79 0.929 . S
O91 Co66 2.351 . S
O91 C94 1.244 . S
O92 Co66 2.155 . S
O92 C94 1.240 . S
O93 Co66 2.096 . S
O93 C74 1.247 . S
C94 O91 1.244 . S
C94 O92 1.240 . S
H95 C69 0.931 . S
H96 C78 0.931 . S
H97 C82 0.929 . S
H98 C84 0.930 . S
Co99 N103 2.148 1_554 S
Co99 N109 2.128 . S
Co99 N119 2.194 . S
Co99 O124 2.351 . S
Co99 O125 2.155 . S
Co99 O126 2.096 . S
C100 N103 1.301 . S
C100 N104 1.328 . S
C100 H105 0.930 . S
C101 C102 1.333 . S
C101 N103 1.317 . S
C101 H106 0.930 . S
C102 C101 1.333 . S
C102 N104 1.350 . S
C102 H128 0.931 . S
N103 Co99 2.148 1_556 S
N103 C100 1.301 . S
N103 C101 1.317 . S
N104 C100 1.328 . S
N104 C102 1.350 . S
H105 C100 0.930 . S
H106 C101 0.930 . S
C107 O108 1.224 . S
C107 O126 1.247 . S
O108 C107 1.224 . S
N109 Co99 2.128 . S
N109 C110 1.355 . S
N109 C112 1.311 . S
C110 N109 1.355 . S
C110 C111 1.363 . S
C110 H122 0.929 . S
C111 C110 1.363 . S
C111 N113 1.375 . S
C111 H129 0.931 . S
C112 N109 1.311 . S
C112 N113 1.347 . S
C112 H123 0.929 . S
N113 C111 1.375 . S
N113 C112 1.347 . S
C114 C117 1.365 . S
C114 N119 1.328 . S
C114 H120 0.929 . S
C115 C116 1.362 . S
C115 C118 1.378 . S
C115 H130 0.929 . S
C116 C115 1.362 . S
C116 C117 1.366 . S
C117 C114 1.365 . S
C117 C116 1.366 . S
C117 H131 0.930 . S
C118 C115 1.378 . S
C118 N119 1.315 . S
C118 H121 0.930 . S
N119 Co99 2.194 . S
N119 C114 1.328 . S
N119 C118 1.315 . S
H120 C114 0.929 . S
H121 C118 0.930 . S
H122 C110 0.929 . S
H123 C112 0.929 . S
O124 Co99 2.351 . S
O124 C127 1.244 . S
O125 Co99 2.155 . S
O125 C127 1.240 . S
O126 Co99 2.096 . S
O126 C107 1.247 . S
C127 O124 1.244 . S
C127 O125 1.240 . S
H128 C102 0.931 . S
H129 C111 0.931 . S
H130 C115 0.929 . S
H131 C117 0.930 . S
C132 C133 1.387 . S
C132 H136 0.950 . S
C132 C141 1.390 . S
C133 C132 1.387 . S
C133 C135 1.387 . S
H134 C141 0.950 . S
C135 C133 1.387 . S
C135 C137 1.390 . S
C135 H139 0.950 . S
H136 C132 0.950 . S
C137 C135 1.390 . S
C137 C138 1.387 . S
C137 H140 0.950 . S
C138 C137 1.387 . S
C138 C141 1.387 . S
H139 C135 0.950 . S
H140 C137 0.950 . S
C141 C132 1.390 . S
C141 H134 0.950 . S
C141 C138 1.387 . S
C142 C143 1.387 . S
C142 H146 0.950 . S
C142 C151 1.390 . S
C143 C142 1.387 . S
C143 C145 1.387 . S
H144 C151 0.950 . S
C145 C143 1.387 . S
C145 C147 1.390 . S
C145 H149 0.950 . S
H146 C142 0.950 . S
C147 C145 1.390 . S
C147 C148 1.387 . S
C147 H150 0.950 . S
C148 C147 1.387 . S
C148 C151 1.387 . S
H149 C145 0.950 . S
H150 C147 0.950 . S
C151 C142 1.390 . S
C151 H144 0.950 . S
C151 C148 1.387 . S
C152 C153 1.387 . S
C152 H156 0.950 . S
C152 C161 1.390 . S
C153 C152 1.387 . S
C153 C155 1.387 . S
H154 C161 0.950 . S
C155 C153 1.387 . S
C155 C157 1.390 . S
C155 H159 0.950 . S
H156 C152 0.950 . S
C157 C155 1.390 . S
C157 C158 1.387 . S
C157 H160 0.950 . S
C158 C157 1.387 . S
C158 C161 1.387 . S
H159 C155 0.950 . S
H160 C157 0.950 . S
C161 C152 1.390 . S
C161 H154 0.950 . S
C161 C158 1.387 . S
C162 C163 1.387 . S
C162 H166 0.950 . S
C162 C171 1.390 . S
C163 C162 1.387 . S
C163 C165 1.387 . S
H164 C171 0.950 . S
C165 C163 1.387 . S
C165 C167 1.390 . S
C165 H169 0.950 . S
H166 C162 0.950 . S
C167 C165 1.390 . S
C167 C168 1.387 . S
C167 H170 0.950 . S
C168 C167 1.387 . S
C168 C171 1.387 . S
H169 C165 0.950 . S
H170 C167 0.950 . S
C171 C162 1.390 . S
C171 H164 0.950 . S
C171 C168 1.387 . S
C172 C173 1.387 . S
C172 H176 0.950 . S
C172 C181 1.390 1_655 S
C173 C172 1.387 . S
C173 C175 1.387 . S
H174 C181 0.950 . S
C175 C173 1.387 . S
C175 C177 1.390 1_655 S
C175 H179 0.950 . S
H176 C172 0.950 . S
C177 C175 1.390 1_455 S
C177 C178 1.387 . S
C177 H180 0.950 . S
C178 C177 1.387 . S
C178 C181 1.387 . S
H179 C175 0.950 . S
H180 C177 0.950 . S
C181 C172 1.390 1_455 S
C181 H174 0.950 . S
C181 C178 1.387 . S
C182 C183 1.387 . S
C182 H186 0.950 . S
C182 C191 1.390 1_565 S
C183 C182 1.387 . S
C183 C185 1.387 . S
H184 C191 0.950 . S
C185 C183 1.387 . S
C185 C187 1.390 1_565 S
C185 H189 0.950 . S
H186 C182 0.950 . S
C187 C185 1.390 1_545 S
C187 C188 1.387 . S
C187 H190 0.950 . S
C188 C187 1.387 . S
C188 C191 1.387 . S
H189 C185 0.950 . S
H190 C187 0.950 . S
C191 C182 1.390 1_545 S
C191 H184 0.950 . S
C191 C188 1.387 . S
C192 C193 1.387 . S
C192 H196 0.950 . S
C192 C201 1.390 . S
C193 C192 1.387 . S
C193 C195 1.387 1_554 S
H194 C201 0.950 . S
C195 C193 1.387 1_556 S
C195 C197 1.390 . S
C195 H199 0.950 . S
H196 C192 0.950 . S
C197 C195 1.390 . S
C197 C198 1.387 1_556 S
C197 H200 0.950 . S
C198 C197 1.387 1_554 S
C198 C201 1.387 . S
H199 C195 0.950 . S
H200 C197 0.950 . S
C201 C192 1.390 . S
C201 H194 0.950 . S
C201 C198 1.387 . S
C202 C203 1.387 . S
C202 H206 0.950 1_554 S
C202 C211 1.390 . S
C203 C202 1.387 . S
C203 C205 1.387 . S
H204 C211 0.950 1_556 S
C205 C203 1.387 . S
C205 C207 1.390 . S
C205 H209 0.950 . S
H206 C202 0.950 1_556 S
C207 C205 1.390 . S
C207 C208 1.387 . S
C207 H210 0.950 . S
C208 C207 1.387 . S
C208 C211 1.387 . S
H209 C205 0.950 . S
H210 C207 0.950 . S
C211 C202 1.390 . S
C211 H204 0.950 1_554 S
C211 C208 1.387 . S
C212 C213 1.387 . S
C212 H216 0.950 . S
C212 C221 1.390 . S
C213 C212 1.387 . S
C213 C215 1.387 . S
H214 C221 0.950 . S
C215 C213 1.387 . S
C215 C217 1.390 . S
C215 H219 0.950 . S
H216 C212 0.950 . S
C217 C215 1.390 . S
C217 C218 1.387 . S
C217 H220 0.950 . S
C218 C217 1.387 . S
C218 C221 1.387 . S
H219 C215 0.950 . S
H220 C217 0.950 . S
C221 C212 1.390 . S
C221 H214 0.950 . S
C221 C218 1.387 . S
C222 C223 1.387 . S
C222 H226 0.950 . S
C222 C231 1.390 . S
C223 C222 1.387 . S
C223 C225 1.387 . S
H224 C231 0.950 . S
C225 C223 1.387 . S
C225 C227 1.390 1_554 S
C225 H229 0.950 1_554 S
H226 C222 0.950 . S
C227 C225 1.390 1_556 S
C227 C228 1.387 1_556 S
C227 H230 0.950 . S
C228 C227 1.387 1_554 S
C228 C231 1.387 . S
H229 C225 0.950 1_556 S
H230 C227 0.950 . S
C231 C222 1.390 . S
C231 H224 0.950 . S
C231 C228 1.387 . S
C133 N14 1.455 . S
C138 N5 1.462 . S
C143 N47 1.462 . S
C148 N38 1.473 . S
C153 N71 1.473 . S
C158 N80 1.462 . S
C163 N104 1.465 . S
C168 N113 1.457 . S
C173 C94 1.106 . S
C178 C28 1.105 . S
C183 C127 1.104 . S
C188 C61 1.105 . S
C193 C41 1.525 . S
C198 C17 1.561 . S
C203 C83 1.299 . S
C208 C50 1.301 . S
C213 C116 1.562 . S
C218 C74 1.523 . S
C223 C107 1.851 . S
C228 C8 1.852 . S
