# Generated by pormake.
# Topology ukh, (4)-cn, num edge types: 1
# Building blocks:
#     Node 0, Type 0, BuildingBlock: GALJAG_clean_sbu_0, # of connection points: 4
#     Node 1, Type 0, BuildingBlock: GALJAG_clean_sbu_0, # of connection points: 4
#     Node 2, Type 0, BuildingBlock: GALJAG_clean_sbu_0, # of connection points: 4
#     Node 3, Type 0, BuildingBlock: GALJAG_clean_sbu_0, # of connection points: 4
#     Node 4, Type 0, BuildingBlock: GALJAG_clean_sbu_0, # of connection points: 4
#     Node 5, Type 0, BuildingBlock: GALJAG_clean_sbu_0, # of connection points: 4
#     Node 6, Type 0, BuildingBlock: GALJAG_clean_sbu_0, # of connection points: 4
#     Node 7, Type 0, BuildingBlock: GALJAG_clean_sbu_0, # of connection points: 4
#     Node 8, Type 0, BuildingBlock: GALJAG_clean_sbu_0, # of connection points: 4
#     Node 9, Type 0, BuildingBlock: GALJAG_clean_sbu_0, # of connection points: 4
#     Node 10, Type 0, BuildingBlock: GALJAG_clean_sbu_0, # of connection points: 4
#     Node 11, Type 0, BuildingBlock: GALJAG_clean_sbu_0, # of connection points: 4
#     Edge 12, Type (0, 0), None
#     Edge 13, Type (0, 0), None
#     Edge 14, Type (0, 0), None
#     Edge 15, Type (0, 0), None
#     Edge 16, Type (0, 0), None
#     Edge 17, Type (0, 0), None
#     Edge 18, Type (0, 0), None
#     Edge 19, Type (0, 0), None
#     Edge 20, Type (0, 0), None
#     Edge 21, Type (0, 0), None
#     Edge 22, Type (0, 0), None
#     Edge 23, Type (0, 0), None
#     Edge 24, Type (0, 0), None
#     Edge 25, Type (0, 0), None
#     Edge 26, Type (0, 0), None
#     Edge 27, Type (0, 0), None
#     Edge 28, Type (0, 0), None
#     Edge 29, Type (0, 0), None
#     Edge 30, Type (0, 0), None
#     Edge 31, Type (0, 0), None
#     Edge 32, Type (0, 0), None
#     Edge 33, Type (0, 0), None
#     Edge 34, Type (0, 0), None
#     Edge 35, Type (0, 0), None
# Relax obj value: 0.072
# Max RMSD: 0.081
# Mean RMSD: 0.081
data_MOF--net-ukh--node1-GALJAG_clean_sbu_0--edge1-none
_symmetry_space_group_name_H-M    P1
_symmetry_Int_Tables_number       1
_symmetry_cell_setting            triclinic
loop_
_symmetry_equiv_pos_as_xyz
'x, y, z'
_cell_length_a     13.958954
_cell_length_b     13.959595
_cell_length_c     30.072369
_cell_angle_alpha  89.999941
_cell_angle_beta   90.000028
_cell_angle_gamma 120.00493
loop_
_atom_site_label
_atom_site_type_symbol
_atom_site_fract_x
_atom_site_fract_y
_atom_site_fract_z
_atom_type_partial_charge
In0 In 0.32862 0.22439 0.06205 0.0
O1 O 0.50244 0.37565 0.05421 0.0
O2 O 0.36744 0.40351 0.06465 0.0
C3 C 0.33068 0.05363 0.02024 0.0
C4 C 0.32796 0.17864 0.14885 0.0
C5 C 0.15377 0.20725 0.01795 0.0
O6 O 0.3788 0.15056 1.00449 0.0
O7 O 0.29123 0.04602 0.05854 0.0
O8 O 0.15717 0.20664 0.05999 0.0
O9 O 0.23737 0.21555 0.99841 0.0
C10 C 0.46979 0.44498 0.05859 0.0
O11 O 0.24009 0.15409 0.12789 0.0
O12 O 0.41605 0.22745 0.12634 0.0
In13 In 0.10925 0.32612 0.39538 0.0
O14 O 0.09098 0.23758 0.46122 0.0
O15 O 0.19363 0.41354 0.45967 0.0
C16 C 0.95153 0.15127 0.35128 0.0
C17 C 0.02982 0.46728 0.39192 0.0
C18 C 0.28207 0.32818 0.35356 0.0
O19 O 0.95553 0.15467 0.39332 0.0
O20 O 0.02683 0.23486 0.33174 0.0
O21 O 0.23325 0.37628 0.33781 0.0
O22 O 0.25025 0.28876 0.39187 0.0
C23 C 0.15433 0.32544 0.48217 0.0
O24 O 0.13182 0.49994 0.38753 0.0
O25 O 0.96893 0.36493 0.39797 0.0
In26 In 0.78815 0.10672 0.72872 0.0
O27 O 0.63691 0.1293 0.72087 0.0
O28 O 0.609 0.96641 0.73132 0.0
C29 C 0.95891 0.27955 0.6869 0.0
C30 C 0.83391 0.15181 0.81551 0.0
C31 C 0.80528 0.94902 0.68462 0.0
O32 O 0.86198 0.23072 0.67115 0.0
O33 O 0.96653 0.24773 0.7252 0.0
O34 O 0.80587 0.95301 0.72666 0.0
O35 O 0.797 0.02432 0.66508 0.0
C36 C 0.56756 0.02731 0.72526 0.0
O37 O 0.85844 0.08849 0.79456 0.0
O38 O 0.7851 0.19109 0.793 0.0
In39 In 0.68643 0.78564 0.06205 0.0
O40 O 0.77496 0.85593 0.12789 0.0
O41 O 0.599 0.78258 0.12634 0.0
C42 C 0.86127 0.80277 0.01795 0.0
C43 C 0.54526 0.56505 0.0586 0.0
C44 C 0.68437 0.95639 0.02024 0.0
O45 O 0.85788 0.80338 0.05999 0.0
O46 O 0.77768 0.79447 0.99841 0.0
O47 O 0.63625 0.85946 1.00449 0.0
O48 O 0.72381 0.96401 0.05854 0.0
C49 C 0.68709 0.83139 0.14885 0.0
O50 O 0.51261 0.63438 0.05421 0.0
O51 O 0.64761 0.60651 0.06465 0.0
In52 In 0.9058 0.68391 0.39538 0.0
O53 O 0.92407 0.77244 0.46122 0.0
O54 O 0.82142 0.59649 0.45967 0.0
C55 C 0.06352 0.85876 0.35128 0.0
C56 C 0.98522 0.54274 0.39192 0.0
C57 C 0.73297 0.68185 0.35356 0.0
O58 O 0.05952 0.85536 0.39332 0.0
O59 O 0.98821 0.77516 0.33174 0.0
O60 O 0.7818 0.63375 0.33781 0.0
O61 O 0.7648 0.72127 0.39187 0.0
C62 C 0.86072 0.68458 0.48217 0.0
O63 O 0.88323 0.51009 0.38753 0.0
O64 O 0.04612 0.64509 0.39797 0.0
In65 In 0.2269 0.90331 0.72872 0.0
O66 O 0.37813 0.88073 0.72087 0.0
O67 O 0.40604 0.04361 0.73132 0.0
C68 C 0.05614 0.73048 0.6869 0.0
C69 C 0.18114 0.85821 0.81551 0.0
C70 C 0.20977 0.06101 0.68462 0.0
O71 O 0.15307 0.77931 0.67115 0.0
O72 O 0.04852 0.76229 0.7252 0.0
O73 O 0.20918 0.05702 0.72666 0.0
O74 O 0.21805 0.98571 0.66508 0.0
C75 C 0.44749 0.98271 0.72526 0.0
O76 O 0.1566 0.92154 0.79456 0.0
O77 O 0.22994 0.81894 0.793 0.0
In78 In 0.78816 0.68395 0.61604 0.0
O79 O 0.85841 0.77246 0.55019 0.0
O80 O 0.78514 0.59651 0.55176 0.0
C81 C 0.80526 0.85877 0.66014 0.0
C82 C 0.56756 0.54276 0.61949 0.0
C83 C 0.95889 0.68195 0.65785 0.0
O84 O 0.80587 0.85537 0.6181 0.0
O85 O 0.797 0.77518 0.67968 0.0
O86 O 0.86195 0.6337 0.6736 0.0
O87 O 0.96657 0.72145 0.61956 0.0
C88 C 0.83392 0.68459 0.52925 0.0
O89 O 0.63691 0.51012 0.62388 0.0
O90 O 0.60901 0.6451 0.61344 0.0
In91 In 0.10922 0.78564 0.94938 0.0
O92 O 0.13181 0.6344 0.95722 0.0
O93 O 0.96892 0.60649 0.94678 0.0
C94 C 0.28196 0.95638 0.99119 0.0
C95 C 0.15433 0.8314 0.86258 0.0
C96 C 0.9515 0.80274 0.99348 0.0
O97 O 0.23326 0.85945 0.00694 0.0
O98 O 0.25016 0.96405 0.95289 0.0
O99 O 0.95549 0.80333 0.95144 0.0
O100 O 0.02683 0.79449 0.01302 0.0
C101 C 0.02982 0.56505 0.95284 0.0
O102 O 0.09094 0.85587 0.88353 0.0
O103 O 0.19366 0.78265 0.8851 0.0
In104 In 0.32862 0.10673 0.28271 0.0
O105 O 0.50244 0.1293 0.29056 0.0
O106 O 0.36743 0.96642 0.28011 0.0
C107 C 0.3306 0.27945 0.32452 0.0
C108 C 0.32796 0.15183 0.19592 0.0
C109 C 0.15378 0.949 0.32681 0.0
O110 O 0.37884 0.23077 0.34027 0.0
O111 O 0.29112 0.24763 0.28623 0.0
O112 O 0.15718 0.953 0.28477 0.0
O113 O 0.23737 0.02432 0.34635 0.0
C114 C 0.46979 0.02731 0.28617 0.0
O115 O 0.2401 0.08844 0.21687 0.0
O116 O 0.41605 0.19116 0.21844 0.0
In117 In 0.22689 0.32608 0.61604 0.0
O118 O 0.15664 0.23757 0.55019 0.0
O119 O 0.2299 0.41352 0.55176 0.0
C120 C 0.20979 0.15126 0.66014 0.0
C121 C 0.44749 0.46727 0.61949 0.0
C122 C 0.05616 0.32808 0.65785 0.0
O123 O 0.20918 0.15465 0.6181 0.0
O124 O 0.21805 0.23484 0.67968 0.0
O125 O 0.1531 0.37632 0.6736 0.0
O126 O 0.04848 0.28858 0.61956 0.0
C127 C 0.18113 0.32543 0.52925 0.0
O128 O 0.37814 0.49991 0.62388 0.0
O129 O 0.40603 0.36493 0.61343 0.0
In130 In 0.90582 0.22439 0.94938 0.0
O131 O 0.9241 0.15416 0.88353 0.0
O132 O 0.82139 0.22737 0.8851 0.0
C133 C 0.06354 0.20729 0.99348 0.0
C134 C 0.98523 0.44498 0.95283 0.0
C135 C 0.73309 0.05365 0.99119 0.0
O136 O 0.05955 0.2067 0.95144 0.0
O137 O 0.98822 0.21554 0.01302 0.0
O138 O 0.78179 0.15058 0.00694 0.0
O139 O 0.76489 0.04598 0.95289 0.0
C140 C 0.86072 0.17862 0.86258 0.0
O141 O 0.88323 0.37562 0.95722 0.0
O142 O 0.04613 0.40354 0.94678 0.0
In143 In 0.68643 0.9033 0.28271 0.0
O144 O 0.77495 0.92158 0.21687 0.0
O145 O 0.599 0.81886 0.21844 0.0
C146 C 0.86127 0.06103 0.32681 0.0
C147 C 0.54526 0.98271 0.28616 0.0
C148 C 0.68444 0.73058 0.32452 0.0
O149 O 0.85787 0.05703 0.28477 0.0
O150 O 0.77768 0.98571 0.34635 0.0
O151 O 0.63621 0.77926 0.34027 0.0
O152 O 0.72393 0.76239 0.28623 0.0
C153 C 0.68709 0.8582 0.19592 0.0
O154 O 0.5126 0.88072 0.29056 0.0
O155 O 0.64761 0.04361 0.28011 0.0
loop_
_geom_bond_atom_site_label_1
_geom_bond_atom_site_label_2
_geom_bond_distance
_geom_bond_site_symmetry_2
_ccdc_geom_bond_type
In0 O1 2.294 . S
In0 O2 2.326 . S
In0 O6 2.266 . S
In0 O7 2.326 . S
In0 O8 2.266 . S
In0 O9 2.326 1_554 S
In0 O11 2.294 . S
In0 O12 2.326 . S
O1 In0 2.294 . S
O1 C10 1.240 . S
O2 In0 2.326 . S
O2 C10 1.252 . S
C3 O6 1.252 . S
C3 O7 1.260 . S
C4 O11 1.240 . S
C4 O12 1.252 . S
C5 O8 1.252 . S
C5 O9 1.260 1_554 S
O6 In0 2.266 . S
O6 C3 1.252 . S
O7 In0 2.326 . S
O7 C3 1.260 . S
O8 In0 2.266 . S
O8 C5 1.252 . S
O9 In0 2.326 1_556 S
O9 C5 1.260 1_556 S
C10 O1 1.240 . S
C10 O2 1.252 . S
O11 In0 2.294 . S
O11 C4 1.240 . S
O12 In0 2.326 . S
O12 C4 1.252 . S
In13 O14 2.294 . S
In13 O15 2.326 . S
In13 O19 2.266 1_455 S
In13 O20 2.326 1_455 S
In13 O21 2.266 . S
In13 O22 2.326 . S
In13 O24 2.294 . S
In13 O25 2.325 1_455 S
O14 In13 2.294 . S
O14 C23 1.240 . S
O15 In13 2.326 . S
O15 C23 1.252 . S
C16 O19 1.252 . S
C16 O20 1.260 . S
C17 O24 1.240 . S
C17 O25 1.252 1_455 S
C18 O21 1.252 . S
C18 O22 1.260 . S
O19 In13 2.266 1_655 S
O19 C16 1.252 . S
O20 In13 2.326 1_655 S
O20 C16 1.260 . S
O21 In13 2.266 . S
O21 C18 1.252 . S
O22 In13 2.326 . S
O22 C18 1.260 . S
C23 O14 1.240 . S
C23 O15 1.252 . S
O24 In13 2.294 . S
O24 C17 1.240 . S
O25 In13 2.325 1_655 S
O25 C17 1.252 1_655 S
In26 O27 2.294 . S
In26 O28 2.326 1_545 S
In26 O32 2.266 . S
In26 O33 2.326 . S
In26 O34 2.266 1_545 S
In26 O35 2.326 1_545 S
In26 O37 2.294 . S
In26 O38 2.326 . S
O27 In26 2.294 . S
O27 C36 1.240 . S
O28 In26 2.326 1_565 S
O28 C36 1.251 1_565 S
C29 O32 1.252 . S
C29 O33 1.260 . S
C30 O37 1.240 . S
C30 O38 1.252 . S
C31 O34 1.252 . S
C31 O35 1.260 . S
O32 In26 2.266 . S
O32 C29 1.252 . S
O33 In26 2.326 . S
O33 C29 1.260 . S
O34 In26 2.266 1_565 S
O34 C31 1.252 . S
O35 In26 2.326 1_565 S
O35 C31 1.260 . S
C36 O27 1.240 . S
C36 O28 1.251 1_545 S
O37 In26 2.294 . S
O37 C30 1.240 . S
O38 In26 2.326 . S
O38 C30 1.252 . S
In39 O40 2.294 . S
In39 O41 2.326 . S
In39 O45 2.266 . S
In39 O46 2.326 1_554 S
In39 O47 2.266 . S
In39 O48 2.326 . S
In39 O50 2.294 . S
In39 O51 2.326 . S
O40 In39 2.294 . S
O40 C49 1.240 . S
O41 In39 2.326 . S
O41 C49 1.252 . S
C42 O45 1.252 . S
C42 O46 1.260 1_554 S
C43 O50 1.240 . S
C43 O51 1.252 . S
C44 O47 1.252 . S
C44 O48 1.260 . S
O45 In39 2.266 . S
O45 C42 1.252 . S
O46 In39 2.326 1_556 S
O46 C42 1.260 1_556 S
O47 In39 2.266 . S
O47 C44 1.252 . S
O48 In39 2.326 . S
O48 C44 1.260 . S
C49 O40 1.240 . S
C49 O41 1.252 . S
O50 In39 2.294 . S
O50 C43 1.240 . S
O51 In39 2.326 . S
O51 C43 1.252 . S
In52 O53 2.294 . S
In52 O54 2.326 . S
In52 O58 2.266 1_655 S
In52 O59 2.326 1_655 S
In52 O60 2.266 . S
In52 O61 2.326 . S
In52 O63 2.294 . S
In52 O64 2.325 1_655 S
O53 In52 2.294 . S
O53 C62 1.240 . S
O54 In52 2.326 . S
O54 C62 1.252 . S
C55 O58 1.252 . S
C55 O59 1.260 . S
C56 O63 1.240 . S
C56 O64 1.252 1_655 S
C57 O60 1.252 . S
C57 O61 1.260 . S
O58 In52 2.266 1_455 S
O58 C55 1.252 . S
O59 In52 2.326 1_455 S
O59 C55 1.260 . S
O60 In52 2.266 . S
O60 C57 1.252 . S
O61 In52 2.326 . S
O61 C57 1.260 . S
C62 O53 1.240 . S
C62 O54 1.252 . S
O63 In52 2.294 . S
O63 C56 1.240 . S
O64 In52 2.325 1_455 S
O64 C56 1.252 1_455 S
In65 O66 2.294 . S
In65 O67 2.326 1_565 S
In65 O71 2.266 . S
In65 O72 2.326 . S
In65 O73 2.266 1_565 S
In65 O74 2.326 1_565 S
In65 O76 2.294 . S
In65 O77 2.326 . S
O66 In65 2.294 . S
O66 C75 1.240 . S
O67 In65 2.326 1_545 S
O67 C75 1.251 1_545 S
C68 O71 1.252 . S
C68 O72 1.260 . S
C69 O76 1.240 . S
C69 O77 1.252 . S
C70 O73 1.252 . S
C70 O74 1.260 . S
O71 In65 2.266 . S
O71 C68 1.252 . S
O72 In65 2.326 . S
O72 C68 1.260 . S
O73 In65 2.266 1_545 S
O73 C70 1.252 . S
O74 In65 2.326 1_545 S
O74 C70 1.260 . S
C75 O66 1.240 . S
C75 O67 1.251 1_565 S
O76 In65 2.294 . S
O76 C69 1.240 . S
O77 In65 2.326 . S
O77 C69 1.252 . S
In78 O79 2.294 . S
In78 O80 2.326 . S
In78 O84 2.266 . S
In78 O85 2.326 . S
In78 O86 2.266 . S
In78 O87 2.326 . S
In78 O89 2.294 . S
In78 O90 2.326 . S
O79 In78 2.294 . S
O79 C88 1.240 . S
O80 In78 2.326 . S
O80 C88 1.252 . S
C81 O84 1.252 . S
C81 O85 1.260 . S
C82 O89 1.240 . S
C82 O90 1.252 . S
C83 O86 1.252 . S
C83 O87 1.260 . S
O84 In78 2.266 . S
O84 C81 1.252 . S
O85 In78 2.326 . S
O85 C81 1.260 . S
O86 In78 2.266 . S
O86 C83 1.252 . S
O87 In78 2.326 . S
O87 C83 1.260 . S
C88 O79 1.240 . S
C88 O80 1.252 . S
O89 In78 2.294 . S
O89 C82 1.240 . S
O90 In78 2.326 . S
O90 C82 1.252 . S
In91 O92 2.294 . S
In91 O93 2.326 1_455 S
In91 O97 2.266 . S
In91 O98 2.326 . S
In91 O99 2.266 1_455 S
In91 O100 2.326 1_456 S
In91 O102 2.294 . S
In91 O103 2.326 . S
O92 In91 2.294 . S
O92 C101 1.240 . S
O93 In91 2.326 1_655 S
O93 C101 1.251 1_655 S
C94 O97 1.252 . S
C94 O98 1.260 . S
C95 O102 1.240 . S
C95 O103 1.252 . S
C96 O99 1.252 . S
C96 O100 1.260 1_556 S
O97 In91 2.266 . S
O97 C94 1.252 . S
O98 In91 2.326 . S
O98 C94 1.260 . S
O99 In91 2.266 1_655 S
O99 C96 1.252 . S
O100 In91 2.326 1_654 S
O100 C96 1.260 1_554 S
C101 O92 1.240 . S
C101 O93 1.251 1_455 S
O102 In91 2.294 . S
O102 C95 1.240 . S
O103 In91 2.326 . S
O103 C95 1.252 . S
In104 O105 2.294 . S
In104 O106 2.325 1_545 S
In104 O110 2.266 . S
In104 O111 2.326 . S
In104 O112 2.266 1_545 S
In104 O113 2.326 1_545 S
In104 O115 2.294 . S
In104 O116 2.326 . S
O105 In104 2.294 . S
O105 C114 1.240 . S
O106 In104 2.325 1_565 S
O106 C114 1.252 1_565 S
C107 O110 1.252 . S
C107 O111 1.260 . S
C108 O115 1.240 . S
C108 O116 1.252 . S
C109 O112 1.252 . S
C109 O113 1.260 . S
O110 In104 2.266 . S
O110 C107 1.252 . S
O111 In104 2.326 . S
O111 C107 1.260 . S
O112 In104 2.266 1_565 S
O112 C109 1.252 . S
O113 In104 2.326 1_565 S
O113 C109 1.260 . S
C114 O105 1.240 . S
C114 O106 1.252 1_545 S
O115 In104 2.294 . S
O115 C108 1.240 . S
O116 In104 2.326 . S
O116 C108 1.252 . S
In117 O118 2.294 . S
In117 O119 2.326 . S
In117 O123 2.266 . S
In117 O124 2.326 . S
In117 O125 2.266 . S
In117 O126 2.326 . S
In117 O128 2.294 . S
In117 O129 2.326 . S
O118 In117 2.294 . S
O118 C127 1.240 . S
O119 In117 2.326 . S
O119 C127 1.252 . S
C120 O123 1.252 . S
C120 O124 1.260 . S
C121 O128 1.240 . S
C121 O129 1.252 . S
C122 O125 1.252 . S
C122 O126 1.260 . S
O123 In117 2.266 . S
O123 C120 1.252 . S
O124 In117 2.326 . S
O124 C120 1.260 . S
O125 In117 2.266 . S
O125 C122 1.252 . S
O126 In117 2.326 . S
O126 C122 1.260 . S
C127 O118 1.240 . S
C127 O119 1.252 . S
O128 In117 2.294 . S
O128 C121 1.240 . S
O129 In117 2.326 . S
O129 C121 1.252 . S
In130 O131 2.294 . S
In130 O132 2.326 . S
In130 O136 2.266 1_655 S
In130 O137 2.326 1_656 S
In130 O138 2.266 . S
In130 O139 2.326 . S
In130 O141 2.294 . S
In130 O142 2.326 1_655 S
O131 In130 2.294 . S
O131 C140 1.240 . S
O132 In130 2.326 . S
O132 C140 1.252 . S
C133 O136 1.252 . S
C133 O137 1.260 1_556 S
C134 O141 1.240 . S
C134 O142 1.251 1_655 S
C135 O138 1.252 . S
C135 O139 1.260 . S
O136 In130 2.266 1_455 S
O136 C133 1.252 . S
O137 In130 2.326 1_454 S
O137 C133 1.260 1_554 S
O138 In130 2.266 . S
O138 C135 1.252 . S
O139 In130 2.326 . S
O139 C135 1.260 . S
C140 O131 1.240 . S
C140 O132 1.252 . S
O141 In130 2.294 . S
O141 C134 1.240 . S
O142 In130 2.326 1_455 S
O142 C134 1.251 1_455 S
In143 O144 2.294 . S
In143 O145 2.326 . S
In143 O149 2.266 1_565 S
In143 O150 2.326 1_565 S
In143 O151 2.266 . S
In143 O152 2.326 . S
In143 O154 2.294 . S
In143 O155 2.325 1_565 S
O144 In143 2.294 . S
O144 C153 1.240 . S
O145 In143 2.326 . S
O145 C153 1.252 . S
C146 O149 1.252 . S
C146 O150 1.260 . S
C147 O154 1.240 . S
C147 O155 1.252 1_565 S
C148 O151 1.252 . S
C148 O152 1.260 . S
O149 In143 2.266 1_545 S
O149 C146 1.252 . S
O150 In143 2.326 1_545 S
O150 C146 1.260 . S
O151 In143 2.266 . S
O151 C148 1.252 . S
O152 In143 2.326 . S
O152 C148 1.260 . S
C153 O144 1.240 . S
C153 O145 1.252 . S
O154 In143 2.294 . S
O154 C147 1.240 . S
O155 In143 2.325 1_545 S
O155 C147 1.252 1_545 S
C43 C10 1.894 . S
C17 C56 1.894 1_455 S
C75 C36 1.894 1_565 S
C82 C121 1.894 . S
C134 C101 1.894 1_655 S
C114 C147 1.894 1_545 S
C108 C4 1.684 . S
C23 C127 1.684 . S
C30 C140 1.685 . S
C49 C153 1.684 . S
C88 C62 1.684 . S
C95 C69 1.684 . S
C94 C3 1.349 1_566 S
C18 C107 1.349 . S
C29 C122 1.349 1_655 S
C44 C135 1.349 1_564 S
C148 C57 1.349 . S
C68 C83 1.349 1_455 S
C133 C5 1.421 1_556 S
C146 C16 1.421 . S
C81 C31 1.421 . S
C42 C96 1.421 1_554 S
C55 C109 1.421 . S
C70 C120 1.421 . S
