# Generated by pormake.
# Topology qzd, (4)-cn, num edge types: 1
# Building blocks:
#     Node 0, Type 0, BuildingBlock: NAWXER_clean_sbu_0, # of connection points: 4
#     Node 1, Type 0, BuildingBlock: NAWXER_clean_sbu_0, # of connection points: 4
#     Node 2, Type 0, BuildingBlock: NAWXER_clean_sbu_0, # of connection points: 4
#     Edge 3, Type (0, 0), BuildingBlock: OJICUG_clean_linker_0, # of connection points: 2
#     Edge 4, Type (0, 0), BuildingBlock: OJICUG_clean_linker_0, # of connection points: 2
#     Edge 5, Type (0, 0), BuildingBlock: OJICUG_clean_linker_0, # of connection points: 2
#     Edge 6, Type (0, 0), BuildingBlock: OJICUG_clean_linker_0, # of connection points: 2
#     Edge 7, Type (0, 0), BuildingBlock: OJICUG_clean_linker_0, # of connection points: 2
#     Edge 8, Type (0, 0), BuildingBlock: OJICUG_clean_linker_0, # of connection points: 2
# Relax obj value: 0.000
# Max RMSD: 0.038
# Mean RMSD: 0.038
data_MOF--net-qzd--node1-NAWXER_clean_sbu_0--edge1-OJICUG_clean_linker_0
_symmetry_space_group_name_H-M    P1
_symmetry_Int_Tables_number       1
_symmetry_cell_setting            triclinic
loop_
_symmetry_equiv_pos_as_xyz
'x, y, z'
_cell_length_a     10.707355
_cell_length_b     10.699117
_cell_length_c     31.657176
_cell_angle_alpha  94.564755
_cell_angle_beta   94.333431
_cell_angle_gamma 120.06236
loop_
_atom_site_label
_atom_site_type_symbol
_atom_site_fract_x
_atom_site_fract_y
_atom_site_fract_z
_atom_type_partial_charge
C0 C 0.12774 0.78716 0.02577 0.0
C1 C 0.66859 0.78777 0.02235 0.0
O2 O 1.00076 0.67446 0.01917 0.0
Zn3 Zn 0.8942 0.77976 0.02366 0.0
O4 O 0.1417 0.91341 0.03244 0.0
Zn5 Zn 1.01345 1.01238 0.03591 0.0
O6 O 0.06888 0.11227 0.09284 0.0
O7 O 0.95022 0.87273 0.09071 0.0
O8 O 0.78404 0.914 0.02907 0.0
O9 O 0.67991 0.67486 0.01683 0.0
O10 O 0.94354 0.89243 0.96764 0.0
O11 O 0.06906 0.12898 0.9904 0.0
C12 C 1.01552 1.00086 0.11224 0.0
C13 C 1.01177 0.02493 0.95974 0.0
C14 C 0.0703 0.11652 0.45061 0.0
C15 C 0.02073 0.06818 0.29516 0.0
O16 O 0.99923 0.17356 0.43512 0.0
Zn17 Zn 0.93154 0.2077 0.37329 0.0
O18 O 0.12163 0.05977 0.42574 0.0
Zn19 Zn 0.04711 0.09131 0.37285 0.0
O20 O 0.17706 0.31975 0.37408 0.0
O21 O 0.04141 0.42097 0.37584 0.0
O22 O 0.07777 0.01665 0.31971 0.0
O23 O 0.96427 0.13958 0.31104 0.0
O24 O 0.71857 0.09847 0.37097 0.0
O25 O 0.81865 0.96162 0.37135 0.0
C26 C 0.16589 0.4336 0.375 0.0
C27 C 0.70523 0.97329 0.37078 0.0
C28 C 0.1106 0.12152 0.78575 0.0
C29 C 0.13584 0.11721 0.63326 0.0
O30 O 1.00701 0.06385 0.75506 0.0
Zn31 Zn 0.12385 0.11921 0.70952 0.0
O32 O 0.24308 0.18983 0.77788 0.0
Zn33 Zn 0.35606 0.23877 0.72192 0.0
O34 O 0.46099 0.45309 0.72878 0.0
O35 O 0.22218 0.34892 0.71603 0.0
O36 O 0.26373 0.18272 0.65479 0.0
O37 O 0.02433 0.06344 0.65265 0.0
O38 O 0.2229 0.99096 0.71256 0.0
O39 O 0.46145 0.13253 0.72632 0.0
C40 C 0.34836 0.4644 0.72276 0.0
C41 C 0.34914 1.0053 0.71923 0.0
C42 C 0.52604 0.91028 0.03141 0.0
C43 C 0.52612 0.77959 0.02261 0.0
H44 H 0.40369 1.01426 0.03958 0.0
C45 C 0.39174 0.64722 0.01507 0.0
H46 H 0.62661 1.01467 0.03755 0.0
C47 C 0.26025 0.647 0.01623 0.0
C48 C 0.262 0.77911 0.02504 0.0
H49 H 0.38819 0.54459 1.00827 0.0
H50 H 0.15801 0.54425 1.01012 0.0
C51 C 0.39682 0.91002 0.03267 0.0
C52 C 0.55886 0.70533 0.36872 0.0
C53 C 0.56277 0.83884 0.37084 0.0
H54 H 0.43394 0.47689 0.36855 0.0
C55 C 0.43261 0.83956 0.37406 0.0
H56 H 0.65607 0.69934 0.36608 0.0
C57 C 0.30162 0.70841 0.37548 0.0
C58 C 0.29978 0.5755 0.37378 0.0
H59 H 0.43221 0.94085 0.37581 0.0
H60 H 0.2027 0.7111 0.37806 0.0
C61 C 0.43017 0.57646 0.37023 0.0
C62 C 0.22846 0.73595 0.70808 0.0
C63 C 0.35772 0.87114 0.7192 0.0
H64 H 0.12495 0.50562 0.70058 0.0
C65 C 0.48834 0.87322 0.73106 0.0
H66 H 0.12561 0.72897 0.6985 0.0
C67 C 0.48799 0.74162 0.73225 0.0
C68 C 0.35694 0.60685 0.72171 0.0
H69 H 0.58979 0.97577 0.73983 0.0
H70 H 0.58927 0.74538 0.74174 0.0
C71 C 0.22804 0.60658 0.70937 0.0
C72 C 0.02021 0.92872 0.22753 0.0
C73 C 0.02265 0.05078 0.24855 0.0
H74 H 1.01327 0.81566 0.16743 0.0
C75 C 0.02629 0.15727 0.2246 0.0
H76 H 1.0172 0.84502 0.2453 0.0
C77 C 0.02777 0.14241 0.18048 0.0
C78 C 0.02183 0.01888 0.15921 0.0
H79 H 0.02927 0.25298 0.24006 0.0
H80 H 0.03021 0.22621 0.16286 0.0
C81 C 1.01764 0.91183 0.18308 0.0
C82 C 0.99501 0.10627 0.56527 0.0
C83 C 0.11821 0.11171 0.58632 0.0
H84 H 0.88518 0.10637 0.50595 0.0
C85 C 0.22539 0.11657 0.56231 0.0
H86 H 0.91113 0.10338 0.58301 0.0
C87 C 0.20897 0.11518 0.51793 0.0
C88 C 0.08727 0.11332 0.49714 0.0
H89 H 0.32133 0.12061 0.5778 0.0
H90 H 0.29276 0.1187 0.50003 0.0
C91 C 0.98063 0.10895 0.52123 0.0
C92 C 0.17936 0.20454 0.86445 0.0
C93 C 0.07945 0.10312 0.83019 0.0
H94 H 0.23409 0.26091 0.93245 0.0
C95 C 0.95286 0.9798 0.83884 0.0
H96 H 0.2775 0.30079 0.85863 0.0
C97 C 0.92971 0.95522 0.88103 0.0
C98 C 0.0307 0.05556 0.91529 0.0
H99 H 0.87422 0.89961 0.81302 0.0
H100 H 0.83334 0.8572 0.88685 0.0
C101 C 0.1542 0.18198 0.90663 0.0
loop_
_geom_bond_atom_site_label_1
_geom_bond_atom_site_label_2
_geom_bond_distance
_geom_bond_site_symmetry_2
_ccdc_geom_bond_type
C0 O2 1.249 . S
C0 O4 1.255 1_565 S
C1 O8 1.250 . S
C1 O9 1.253 1_545 S
O2 C0 1.249 . S
O2 Zn3 2.028 1_455 S
Zn3 O2 2.028 1_655 S
Zn3 O7 2.035 . S
Zn3 O9 2.035 . S
Zn3 O10 2.028 1_554 S
O4 C0 1.255 1_545 S
O4 Zn5 2.035 . S
Zn5 O4 2.035 . S
Zn5 O6 2.028 . S
Zn5 O8 2.028 1_455 S
Zn5 O11 2.035 1_554 S
O6 Zn5 2.028 . S
O6 C12 1.250 . S
O7 Zn3 2.035 . S
O7 C12 1.255 1_665 S
O8 C1 1.250 . S
O8 Zn5 2.028 1_655 S
O9 C1 1.253 1_565 S
O9 Zn3 2.035 . S
O10 Zn3 2.028 1_556 S
O10 C13 1.248 1_655 S
O11 Zn5 2.035 1_556 S
O11 C13 1.257 1_545 S
C12 O6 1.250 . S
C12 O7 1.255 1_445 S
C13 O10 1.248 1_455 S
C13 O11 1.257 1_565 S
C14 O16 1.247 1_455 S
C14 O18 1.258 . S
C15 O22 1.247 1_655 S
C15 O23 1.258 . S
O16 C14 1.247 1_655 S
O16 Zn17 2.028 . S
Zn17 O16 2.028 . S
Zn17 O21 2.035 1_655 S
Zn17 O23 2.035 . S
Zn17 O24 2.028 1_545 S
O18 C14 1.258 . S
O18 Zn19 2.035 . S
Zn19 O18 2.035 . S
Zn19 O20 2.028 . S
Zn19 O22 2.028 . S
Zn19 O25 2.035 1_445 S
O20 Zn19 2.028 . S
O20 C26 1.247 . S
O21 Zn17 2.035 1_455 S
O21 C26 1.258 . S
O22 C15 1.247 1_455 S
O22 Zn19 2.028 . S
O23 C15 1.258 . S
O23 Zn17 2.035 . S
O24 Zn17 2.028 1_565 S
O24 C27 1.247 . S
O25 Zn19 2.035 1_665 S
O25 C27 1.258 . S
C26 O20 1.247 . S
C26 O21 1.258 . S
C27 O24 1.247 . S
C27 O25 1.258 . S
C28 O30 1.247 1_455 S
C28 O32 1.258 . S
C29 O36 1.247 . S
C29 O37 1.258 1_455 S
O30 C28 1.247 1_655 S
O30 Zn31 2.028 . S
Zn31 O30 2.028 . S
Zn31 O35 2.035 . S
Zn31 O37 2.035 . S
Zn31 O38 2.028 1_545 S
O32 C28 1.258 . S
O32 Zn33 2.035 . S
Zn33 O32 2.035 . S
Zn33 O34 2.028 . S
Zn33 O36 2.028 . S
Zn33 O39 2.035 1_545 S
O34 Zn33 2.028 . S
O34 C40 1.247 . S
O35 Zn31 2.035 . S
O35 C40 1.258 1_655 S
O36 C29 1.247 . S
O36 Zn33 2.028 . S
O37 C29 1.258 1_655 S
O37 Zn31 2.035 . S
O38 Zn31 2.028 1_565 S
O38 C41 1.247 1_655 S
O39 Zn33 2.035 1_565 S
O39 C41 1.258 . S
C40 O34 1.247 . S
C40 O35 1.258 1_455 S
C41 O38 1.247 1_455 S
C41 O39 1.258 . S
C42 C43 1.388 . S
C42 H46 0.950 . S
C42 C51 1.390 . S
C43 C42 1.388 . S
C43 C45 1.387 1_545 S
H44 C51 0.950 . S
C45 C43 1.387 1_565 S
C45 C47 1.390 . S
C45 H49 0.950 . S
H46 C42 0.950 . S
C47 C45 1.390 . S
C47 C48 1.388 1_565 S
C47 H50 0.950 . S
C48 C47 1.388 1_545 S
C48 C51 1.387 . S
H49 C45 0.950 . S
H50 C47 0.950 . S
C51 C42 1.390 . S
C51 H44 0.950 . S
C51 C48 1.387 . S
C52 C53 1.387 . S
C52 H56 0.950 . S
C52 C61 1.390 . S
C53 C52 1.387 . S
C53 C55 1.387 . S
H54 C61 0.950 . S
C55 C53 1.387 . S
C55 C57 1.390 . S
C55 H59 0.950 . S
H56 C52 0.950 . S
C57 C55 1.390 . S
C57 C58 1.387 . S
C57 H60 0.950 . S
C58 C57 1.387 . S
C58 C61 1.387 . S
H59 C55 0.950 . S
H60 C57 0.950 . S
C61 C52 1.390 . S
C61 H54 0.950 . S
C61 C58 1.387 . S
C62 C63 1.387 . S
C62 H66 0.950 . S
C62 C71 1.390 . S
C63 C62 1.387 . S
C63 C65 1.387 . S
H64 C71 0.950 . S
C65 C63 1.387 . S
C65 C67 1.390 . S
C65 H69 0.950 . S
H66 C62 0.950 . S
C67 C65 1.390 . S
C67 C68 1.387 . S
C67 H70 0.950 . S
C68 C67 1.387 . S
C68 C71 1.387 . S
H69 C65 0.950 . S
H70 C67 0.950 . S
C71 C62 1.390 . S
C71 H64 0.950 . S
C71 C68 1.387 . S
C72 C73 1.387 1_565 S
C72 H76 0.950 . S
C72 C81 1.390 . S
C73 C72 1.387 1_545 S
C73 C75 1.387 1_655 S
H74 C81 0.950 . S
C75 C73 1.387 1_455 S
C75 C77 1.390 . S
C75 H79 0.950 . S
H76 C72 0.950 . S
C77 C75 1.390 . S
C77 C78 1.387 1_455 S
C77 H80 0.950 . S
C78 C77 1.387 1_655 S
C78 C81 1.387 1_545 S
H79 C75 0.950 . S
H80 C77 0.950 . S
C81 C72 1.390 . S
C81 H74 0.950 . S
C81 C78 1.387 1_565 S
C82 C83 1.387 1_565 S
C82 H86 0.950 1_455 S
C82 C91 1.390 1_455 S
C83 C82 1.387 1_545 S
C83 C85 1.387 . S
H84 C91 0.950 . S
C85 C83 1.387 . S
C85 C87 1.390 . S
C85 H89 0.950 . S
H86 C82 0.950 1_655 S
C87 C85 1.390 . S
C87 C88 1.387 . S
C87 H90 0.950 . S
C88 C87 1.387 . S
C88 C91 1.387 1_445 S
H89 C85 0.950 . S
H90 C87 0.950 . S
C91 C82 1.390 1_655 S
C91 H84 0.950 . S
C91 C88 1.387 1_665 S
C92 C93 1.387 . S
C92 H96 0.950 . S
C92 C101 1.390 . S
C93 C92 1.387 . S
C93 C95 1.387 1_445 S
H94 C101 0.950 . S
C95 C93 1.387 1_665 S
C95 C97 1.390 . S
C95 H99 0.950 . S
H96 C92 0.950 . S
C97 C95 1.390 . S
C97 C98 1.387 1_665 S
C97 H100 0.950 . S
C98 C97 1.387 1_445 S
C98 C101 1.387 . S
H99 C95 0.950 . S
H100 C97 0.950 . S
C101 C92 1.390 . S
C101 H94 0.950 . S
C101 C98 1.387 . S
C43 C1 1.501 . S
C48 C0 1.500 1_545 S
C53 C27 1.498 . S
C58 C26 1.498 . S
C63 C41 1.498 . S
C68 C40 1.498 . S
C73 C15 1.521 . S
C78 C12 1.525 1_655 S
C83 C29 1.526 . S
C88 C14 1.523 . S
C93 C28 1.526 . S
C98 C13 1.526 1_545 S
