# Generated by pormake.
# Topology qtz-x, (6)-cn, num edge types: 1
# Building blocks:
#     Node 0, Type 0, BuildingBlock: CUKXOW_clean_sbu_0, # of connection points: 6
#     Node 1, Type 0, BuildingBlock: CUKXOW_clean_sbu_0, # of connection points: 6
#     Node 2, Type 0, BuildingBlock: CUKXOW_clean_sbu_0, # of connection points: 6
#     Edge 3, Type (0, 0), BuildingBlock: EYOCIG_clean_linker_4, # of connection points: 2
#     Edge 4, Type (0, 0), BuildingBlock: EYOCIG_clean_linker_4, # of connection points: 2
#     Edge 5, Type (0, 0), BuildingBlock: EYOCIG_clean_linker_4, # of connection points: 2
#     Edge 6, Type (0, 0), BuildingBlock: EYOCIG_clean_linker_4, # of connection points: 2
#     Edge 7, Type (0, 0), BuildingBlock: EYOCIG_clean_linker_4, # of connection points: 2
#     Edge 8, Type (0, 0), BuildingBlock: EYOCIG_clean_linker_4, # of connection points: 2
#     Edge 9, Type (0, 0), BuildingBlock: EYOCIG_clean_linker_4, # of connection points: 2
#     Edge 10, Type (0, 0), BuildingBlock: EYOCIG_clean_linker_4, # of connection points: 2
#     Edge 11, Type (0, 0), BuildingBlock: EYOCIG_clean_linker_4, # of connection points: 2
# Relax obj value: 0.118
# Max RMSD: 0.216
# Mean RMSD: 0.216
data_MOF--net-qtz-x--node1-CUKXOW_clean_sbu_0--edge1-EYOCIG_clean_linker_4
_symmetry_space_group_name_H-M    P1
_symmetry_Int_Tables_number       1
_symmetry_cell_setting            triclinic
loop_
_symmetry_equiv_pos_as_xyz
'x, y, z'
_cell_length_a     11.894044
_cell_length_b     11.889421
_cell_length_c     33.548368
_cell_angle_alpha  89.99244
_cell_angle_beta   90.03423
_cell_angle_gamma 119.80962
loop_
_atom_site_label
_atom_site_type_symbol
_atom_site_fract_x
_atom_site_fract_y
_atom_site_fract_z
_atom_type_partial_charge
Tb0 Tb 0.15331 0.65272 0.22434 0.0
C1 C 0.06363 0.84518 0.19506 0.0
Tb2 Tb 0.9016 0.54901 0.16483 0.0
O3 O 0.30006 0.72683 0.17591 0.0
O4 O 0.10366 0.64848 0.16597 0.0
O5 O 0.13794 0.82522 0.21999 0.0
C6 C 0.77792 0.52788 0.09508 0.0
O7 O -0.02482 0.75717 0.17083 0.0
C8 C 0.83934 0.48426 0.24152 0.0
C9 C 0.02686 0.37574 0.18681 0.0
O10 O 0.78118 0.59651 0.12572 0.0
O11 O 0.84035 0.46731 0.10427 0.0
O12 O 0.75437 0.44836 0.21266 0.0
O13 O 0.94813 0.55452 0.22553 0.0
O14 O 0.95852 0.40066 0.16026 0.0
O15 O 0.08974 0.44947 0.21784 0.0
C16 C 0.28138 0.72447 0.29134 0.0
O17 O 0.28944 0.64549 0.26626 0.0
O18 O 0.2019 0.76142 0.27897 0.0
C19 C 0.21039 0.69621 0.14896 0.0
Tb20 Tb 0.36739 0.88802 0.55788 0.0
C21 C 0.64928 0.97657 0.52927 0.0
Tb22 Tb 0.51518 0.13839 0.49808 0.0
O23 O 0.29419 0.74035 0.50965 0.0
O24 O 0.41294 0.93624 0.49943 0.0
O25 O 0.55507 0.90292 0.55417 0.0
C26 C 0.61808 0.26133 0.42838 0.0
O27 O 0.6494 0.06414 0.50461 0.0
C28 C 0.51399 0.203 0.5746 0.0
C29 C 0.21816 0.01672 0.52046 0.0
O30 O 0.68301 0.25839 0.4592 0.0
O31 O 0.49532 0.19886 0.43734 0.0
O32 O 0.56333 0.28715 0.54557 0.0
O33 O 0.47395 0.09338 0.55886 0.0
O34 O 0.31071 0.0837 0.49371 0.0
O35 O 0.22922 0.95387 0.55151 0.0
C36 C 0.30788 0.75889 0.62469 0.0
O37 O 0.22239 0.75078 0.599 0.0
O38 O 0.42455 0.83911 0.61307 0.0
C39 C 0.35322 0.82927 0.48257 0.0
Tb40 Tb 0.38706 0.67485 0.89085 0.0
C41 C 0.19719 0.39153 0.86286 0.0
Tb42 Tb 0.49147 0.52763 0.83128 0.0
O43 O 0.31087 0.74671 0.84266 0.0
O44 O 0.39109 0.63006 0.83235 0.0
O45 O 0.21686 0.48609 0.88755 0.0
C46 C 0.51339 0.42709 0.76128 0.0
O47 O 0.28424 0.39204 0.83794 0.0
C48 C 0.55592 0.52844 0.90794 0.0
C49 C 0.66661 0.82347 0.85483 0.0
O50 O 0.44713 0.36104 0.7921 0.0
O51 O 0.57116 0.54975 0.77039 0.0
O52 O 0.5916 0.47926 0.879 0.0
O53 O 0.48635 0.56841 0.89199 0.0
O54 O 0.64235 0.7314 0.82796 0.0
O55 O 0.59055 0.81307 0.88516 0.0
C56 C 0.31418 0.73025 0.95778 0.0
O57 O 0.39291 0.81739 0.9328 0.0
O58 O 0.27816 0.61429 0.94536 0.0
C59 C 0.34159 0.68813 0.81556 0.0
C60 C 0.08109 0.0713 0.18807 0.0
C61 C 0.08017 0.97147 0.19324 0.0
C62 C 0.06135 0.17645 0.18257 0.0
C63 C 0.0393 0.26414 0.18162 0.0
C64 C -0.01489 -0.01634 0.51725 0.0
C65 C 0.09459 0.00553 0.5156 0.0
C66 C 0.85986 0.96223 0.52318 0.0
C67 C 0.75987 0.96111 0.52814 0.0
C68 C 0.87039 0.05355 0.85334 0.0
C69 C 0.78098 0.94547 0.85113 0.0
C70 C -0.02518 0.17834 0.85883 0.0
C71 C 0.07294 0.27927 0.8627 0.0
C72 C 0.27115 0.75303 0.03199 0.0
C73 C 0.29638 0.75496 0.9976 0.0
C74 C 0.2481 0.73591 0.07268 0.0
C75 C 0.23025 0.7175 0.10758 0.0
C76 C 0.7193 0.35546 0.35613 0.0
C77 C 0.6728 0.31249 0.38895 0.0
C78 C 0.77173 0.40408 0.31708 0.0
C79 C 0.80976 0.44437 0.28334 0.0
C80 C 0.29875 0.68438 0.73937 0.0
C81 C 0.31841 0.68603 0.77424 0.0
C82 C 0.28127 0.6903 0.69867 0.0
C83 C 0.2804 0.71442 0.66429 0.0
C84 C 0.63567 0.53925 0.98354 0.0
C85 C 0.59565 0.5378 0.94978 0.0
C86 C 0.68411 0.53494 1.02264 0.0
C87 C 0.72698 0.53132 0.05553 0.0
C88 C 0.34706 0.76642 0.3656 0.0
C89 C 0.32377 0.74159 0.33118 0.0
C90 C 0.35335 0.78977 0.40631 0.0
C91 C 0.3536 0.80836 0.44119 0.0
C92 C 0.50722 0.32689 0.68888 0.0
C93 C 0.51053 0.37324 0.72173 0.0
C94 C 0.50307 0.27363 0.64992 0.0
C95 C 0.50453 0.23425 0.61631 0.0
loop_
_geom_bond_atom_site_label_1
_geom_bond_atom_site_label_2
_geom_bond_distance
_geom_bond_site_symmetry_2
_ccdc_geom_bond_type
Tb0 O3 2.453 . S
Tb0 O4 2.596 . S
Tb0 O5 2.374 . S
Tb0 O13 2.343 . S
Tb0 O15 2.353 . S
Tb0 O17 2.427 . S
Tb0 O18 2.513 . S
C1 O5 1.251 . S
C1 O7 1.263 1_455 S
Tb2 O4 2.343 1_655 S
Tb2 O7 2.353 . S
Tb2 O10 2.427 . S
Tb2 O11 2.513 . S
Tb2 O12 2.453 . S
Tb2 O13 2.596 1_655 S
Tb2 O14 2.374 . S
O3 Tb0 2.453 . S
O3 C19 1.245 . S
O4 Tb0 2.596 . S
O4 Tb2 2.343 1_455 S
O4 C19 1.259 . S
O5 Tb0 2.374 . S
O5 C1 1.251 . S
C6 O10 1.275 . S
C6 O11 1.246 . S
O7 C1 1.263 1_655 S
O7 Tb2 2.353 . S
C8 O12 1.245 . S
C8 O13 1.259 1_655 S
C9 O14 1.250 1_455 S
C9 O15 1.263 . S
O10 Tb2 2.427 . S
O10 C6 1.275 . S
O11 Tb2 2.513 . S
O11 C6 1.246 . S
O12 Tb2 2.453 . S
O12 C8 1.245 . S
O13 Tb0 2.343 . S
O13 Tb2 2.596 1_455 S
O13 C8 1.259 1_455 S
O14 Tb2 2.374 . S
O14 C9 1.250 1_655 S
O15 Tb0 2.353 . S
O15 C9 1.263 . S
C16 O17 1.275 . S
C16 O18 1.246 . S
O17 Tb0 2.427 . S
O17 C16 1.275 . S
O18 Tb0 2.513 . S
O18 C16 1.246 . S
C19 O3 1.245 . S
C19 O4 1.259 . S
Tb20 O23 2.453 . S
Tb20 O24 2.596 . S
Tb20 O25 2.374 . S
Tb20 O33 2.343 1_565 S
Tb20 O35 2.353 . S
Tb20 O37 2.427 . S
Tb20 O38 2.513 . S
C21 O25 1.251 . S
C21 O27 1.263 1_565 S
Tb22 O24 2.343 1_545 S
Tb22 O27 2.353 . S
Tb22 O30 2.427 . S
Tb22 O31 2.513 . S
Tb22 O32 2.453 . S
Tb22 O33 2.596 . S
Tb22 O34 2.374 . S
O23 Tb20 2.453 . S
O23 C39 1.245 . S
O24 Tb20 2.596 . S
O24 Tb22 2.343 1_565 S
O24 C39 1.259 . S
O25 Tb20 2.374 . S
O25 C21 1.251 . S
C26 O30 1.275 . S
C26 O31 1.246 . S
O27 C21 1.263 1_545 S
O27 Tb22 2.353 . S
C28 O32 1.245 . S
C28 O33 1.259 . S
C29 O34 1.250 . S
C29 O35 1.263 1_545 S
O30 Tb22 2.427 . S
O30 C26 1.275 . S
O31 Tb22 2.513 . S
O31 C26 1.246 . S
O32 Tb22 2.453 . S
O32 C28 1.245 . S
O33 Tb20 2.343 1_545 S
O33 Tb22 2.596 . S
O33 C28 1.259 . S
O34 Tb22 2.374 . S
O34 C29 1.250 . S
O35 Tb20 2.353 . S
O35 C29 1.263 1_565 S
C36 O37 1.275 . S
C36 O38 1.246 . S
O37 Tb20 2.427 . S
O37 C36 1.275 . S
O38 Tb20 2.513 . S
O38 C36 1.246 . S
C39 O23 1.245 . S
C39 O24 1.259 . S
Tb40 O43 2.453 . S
Tb40 O44 2.596 . S
Tb40 O45 2.374 . S
Tb40 O53 2.343 . S
Tb40 O55 2.353 . S
Tb40 O57 2.427 . S
Tb40 O58 2.513 . S
C41 O45 1.251 . S
C41 O47 1.263 . S
Tb42 O44 2.343 . S
Tb42 O47 2.353 . S
Tb42 O50 2.427 . S
Tb42 O51 2.513 . S
Tb42 O52 2.453 . S
Tb42 O53 2.596 . S
Tb42 O54 2.374 . S
O43 Tb40 2.453 . S
O43 C59 1.245 . S
O44 Tb40 2.596 . S
O44 Tb42 2.343 . S
O44 C59 1.259 . S
O45 Tb40 2.374 . S
O45 C41 1.251 . S
C46 O50 1.275 . S
C46 O51 1.246 . S
O47 C41 1.263 . S
O47 Tb42 2.353 . S
C48 O52 1.245 . S
C48 O53 1.259 . S
C49 O54 1.250 . S
C49 O55 1.263 . S
O50 Tb42 2.427 . S
O50 C46 1.275 . S
O51 Tb42 2.513 . S
O51 C46 1.246 . S
O52 Tb42 2.453 . S
O52 C48 1.245 . S
O53 Tb40 2.343 . S
O53 Tb42 2.596 . S
O53 C48 1.259 . S
O54 Tb42 2.374 . S
O54 C49 1.250 . S
O55 Tb40 2.353 . S
O55 C49 1.263 . S
C56 O57 1.275 . S
C56 O58 1.246 . S
O57 Tb40 2.427 . S
O57 C56 1.275 . S
O58 Tb40 2.513 . S
O58 C56 1.246 . S
C59 O43 1.245 . S
C59 O44 1.259 . S
C60 C61 1.170 1_545 S
C60 C62 1.380 . S
C61 C60 1.170 1_565 S
C62 C60 1.380 . S
C62 C63 1.170 . S
C63 C62 1.170 . S
C64 C65 1.170 1_565 S
C64 C66 1.380 1_455 S
C65 C64 1.170 1_545 S
C66 C64 1.380 1_655 S
C66 C67 1.170 . S
C67 C66 1.170 . S
C68 C69 1.170 1_545 S
C68 C70 1.380 1_655 S
C69 C68 1.170 1_565 S
C70 C68 1.380 1_455 S
C70 C71 1.170 . S
C71 C70 1.170 . S
C72 C73 1.170 1_554 S
C72 C74 1.380 . S
C73 C72 1.170 1_556 S
C74 C72 1.380 . S
C74 C75 1.170 . S
C75 C74 1.170 . S
C76 C77 1.170 . S
C76 C78 1.380 . S
C77 C76 1.170 . S
C78 C76 1.380 . S
C78 C79 1.170 . S
C79 C78 1.170 . S
C80 C81 1.170 . S
C80 C82 1.380 . S
C81 C80 1.170 . S
C82 C80 1.380 . S
C82 C83 1.170 . S
C83 C82 1.170 . S
C84 C85 1.170 . S
C84 C86 1.380 . S
C85 C84 1.170 . S
C86 C84 1.380 . S
C86 C87 1.170 1_556 S
C87 C86 1.170 1_554 S
C88 C89 1.170 . S
C88 C90 1.380 . S
C89 C88 1.170 . S
C90 C88 1.380 . S
C90 C91 1.170 . S
C91 C90 1.170 . S
C92 C93 1.170 . S
C92 C94 1.380 . S
C93 C92 1.170 . S
C94 C92 1.380 . S
C94 C95 1.170 . S
C95 C94 1.170 . S
C61 C1 1.187 . S
C63 C9 1.152 . S
C65 C29 1.164 . S
C67 C21 1.180 . S
C69 C49 1.178 . S
C71 C41 1.166 . S
C73 C56 1.294 . S
C75 C19 1.274 . S
C77 C26 1.823 . S
C79 C8 1.806 . S
C81 C59 1.257 . S
C83 C36 1.313 . S
C85 C48 1.801 . S
C87 C6 1.820 . S
C89 C16 1.307 . S
C91 C39 1.250 . S
C93 C46 1.848 . S
C95 C28 1.773 . S
