# Generated by pormake.
# Topology uni, (4)-cn, num edge types: 1
# Building blocks:
#     Node 0, Type 0, BuildingBlock: AZAVOO_clean_sbu_0, # of connection points: 4
#     Node 1, Type 0, BuildingBlock: AZAVOO_clean_sbu_0, # of connection points: 4
#     Node 2, Type 0, BuildingBlock: AZAVOO_clean_sbu_0, # of connection points: 4
#     Node 3, Type 0, BuildingBlock: AZAVOO_clean_sbu_0, # of connection points: 4
#     Node 4, Type 0, BuildingBlock: AZAVOO_clean_sbu_0, # of connection points: 4
#     Node 5, Type 0, BuildingBlock: AZAVOO_clean_sbu_0, # of connection points: 4
#     Edge 6, Type (0, 0), BuildingBlock: AJUNOK_clean_linker_0, # of connection points: 2
#     Edge 7, Type (0, 0), BuildingBlock: AJUNOK_clean_linker_0, # of connection points: 2
#     Edge 8, Type (0, 0), BuildingBlock: AJUNOK_clean_linker_0, # of connection points: 2
#     Edge 9, Type (0, 0), BuildingBlock: AJUNOK_clean_linker_0, # of connection points: 2
#     Edge 10, Type (0, 0), BuildingBlock: AJUNOK_clean_linker_0, # of connection points: 2
#     Edge 11, Type (0, 0), BuildingBlock: AJUNOK_clean_linker_0, # of connection points: 2
#     Edge 12, Type (0, 0), BuildingBlock: AJUNOK_clean_linker_0, # of connection points: 2
#     Edge 13, Type (0, 0), BuildingBlock: AJUNOK_clean_linker_0, # of connection points: 2
#     Edge 14, Type (0, 0), BuildingBlock: AJUNOK_clean_linker_0, # of connection points: 2
#     Edge 15, Type (0, 0), BuildingBlock: AJUNOK_clean_linker_0, # of connection points: 2
#     Edge 16, Type (0, 0), BuildingBlock: AJUNOK_clean_linker_0, # of connection points: 2
#     Edge 17, Type (0, 0), BuildingBlock: AJUNOK_clean_linker_0, # of connection points: 2
# Relax obj value: 0.051
# Max RMSD: 0.094
# Mean RMSD: 0.094
data_MOF--net-uni--node1-AZAVOO_clean_sbu_0--edge1-AJUNOK_clean_linker_0
_symmetry_space_group_name_H-M    P1
_symmetry_Int_Tables_number       1
_symmetry_cell_setting            triclinic
loop_
_symmetry_equiv_pos_as_xyz
'x, y, z'
_cell_length_a     29.843271
_cell_length_b     29.975406
_cell_length_c     15.805279
_cell_angle_alpha  90.090945
_cell_angle_beta   89.61633
_cell_angle_gamma 119.77651
loop_
_atom_site_label
_atom_site_type_symbol
_atom_site_fract_x
_atom_site_fract_y
_atom_site_fract_z
_atom_type_partial_charge
Mg0 Mg 0.63459 -0.0051 0.02752 0.0
O1 O 0.59456 0.01724 0.12932 0.0
O2 O 0.58914 0.08479 0.08377 0.0
Mg3 Mg 0.6234 0.10386 0.95009 0.0
C4 C 0.58137 0.05132 0.14027 0.0
C5 C 0.68183 0.93955 0.14288 0.0
O6 O 0.72678 0.97263 0.10994 0.0
O7 O 0.71345 0.06393 0.05722 0.0
O8 O 0.70396 0.12724 1.0013 0.0
O9 O 0.55901 0.94267 0.96813 0.0
O10 O 0.60755 0.0242 0.93237 0.0
C11 C 0.73132 0.11118 0.03804 0.0
C12 C 0.56532 0.98119 0.92251 0.0
O13 O 0.64215 0.94247 0.12318 0.0
Mg14 Mg 0.65579 0.64111 0.19195 0.0
O15 O 0.59309 0.59529 0.28961 0.0
O16 O 0.51863 0.58891 0.24868 0.0
Mg17 Mg 0.53371 0.62791 0.11904 0.0
C18 C 0.54533 0.5799 0.3014 0.0
C19 C 0.76039 0.68321 0.29901 0.0
O20 O 0.77552 0.72708 0.25978 0.0
O21 O 0.66155 0.71683 0.23241 0.0
O22 O 0.58838 0.70676 0.17699 0.0
O23 O 0.63643 0.56907 0.12508 0.0
O24 O 0.60013 0.61584 0.0958 0.0
C25 C 0.6311 0.73398 0.21534 0.0
C26 C 0.60307 0.57494 0.08186 0.0
O27 O 0.71513 0.64619 0.28634 0.0
Mg28 Mg 0.02711 0.64314 0.33973 0.0
O29 O 0.00649 0.58087 0.43974 0.0
O30 O 0.93937 0.50788 0.39521 0.0
Mg31 Mg 0.91748 0.52359 0.26471 0.0
C32 C 0.97349 0.53352 0.45066 0.0
C33 C 0.08085 0.74271 0.46113 0.0
O34 O 0.04635 0.75405 0.43313 0.0
O35 O 0.95792 0.6519 0.37591 0.0
O36 O 0.8936 0.57935 0.32228 0.0
O37 O 0.07936 0.62082 0.27547 0.0
O38 O -0.00305 0.58761 0.2438 0.0
C39 C 0.91016 0.6224 0.36006 0.0
C40 C 0.04023 0.58871 0.23111 0.0
O41 O 0.07992 0.70212 0.43532 0.0
Mg42 Mg 0.37696 0.01629 0.52803 0.0
O43 O 0.41863 -0.0034 0.63057 0.0
O44 O 0.42806 0.93124 0.58449 0.0
Mg45 Mg 0.39515 0.91089 0.45114 0.0
C46 C 0.43386 0.96405 0.64107 0.0
C47 C 0.397 0.09593 0.66994 0.0
O48 O 0.4406 0.09514 0.66968 0.0
O49 O 0.30016 0.94462 0.5584 0.0
O50 O 0.31374 0.88349 0.50354 0.0
O51 O 0.45211 0.07158 0.46711 0.0
O52 O 0.40751 0.9893 0.43471 0.0
C53 C 0.28468 0.89767 0.54045 0.0
C54 C 0.44823 0.03338 0.42309 0.0
O55 O 0.3612 0.06547 0.62088 0.0
Mg56 Mg 0.38069 0.37594 0.69324 0.0
O57 O 0.44196 0.42506 0.79158 0.0
O58 O 0.51729 0.43387 0.74793 0.0
Mg59 Mg 0.50582 0.39449 0.62087 0.0
C60 C 0.49007 0.44171 0.80192 0.0
C61 C 0.27306 0.32909 0.7929 0.0
O62 O 0.26151 0.28744 0.7493 0.0
O63 O 0.3795 0.30268 0.73843 0.0
O64 O 0.45553 0.31737 0.68597 0.0
O65 O 0.39763 0.44614 0.61934 0.0
O66 O 0.4367 0.40126 0.59666 0.0
C67 C 0.41336 0.28908 0.7257 0.0
C68 C 0.43185 0.44038 0.57752 0.0
O69 O 0.31821 0.36769 0.78607 0.0
Mg70 Mg -0.00045 0.36183 0.84048 0.0
O71 O 0.02065 0.42458 0.94014 0.0
O72 O 0.08992 0.49623 0.89423 0.0
Mg73 Mg 0.11102 0.48036 0.76261 0.0
C74 C 0.05527 0.47149 0.95013 0.0
C75 C 0.93899 0.25896 0.95476 0.0
O76 O 0.96942 0.24407 0.91969 0.0
O77 O 0.06842 0.35175 0.87591 0.0
O78 O 0.13269 0.42342 0.81885 0.0
O79 O 0.94801 0.38495 0.77608 0.0
O80 O 0.03082 0.41805 0.74508 0.0
C81 C 0.11612 0.38058 0.85731 0.0
C82 C 0.98793 0.41767 0.73318 0.0
O83 O 0.94498 0.30279 0.93606 0.0
C84 C 0.52208 0.002 0.25955 0.0
C85 C 0.55252 0.0493 0.21821 0.0
C86 C 0.48984 -0.00244 0.32765 0.0
C87 C 0.48738 0.04039 0.35825 0.0
H88 H 0.52147 0.96753 0.23704 0.0
H89 H 0.46601 0.95998 0.35522 0.0
S90 S 0.56346 0.17415 0.27755 0.0
N91 N 0.58095 0.14066 0.21635 0.0
N92 N 0.52099 0.13255 0.34536 0.0
C93 C 0.51967 0.08851 0.32032 0.0
C94 C 0.55197 0.09289 0.25 0.0
C95 C 0.48351 0.55289 0.42352 0.0
C96 C 0.51902 0.54614 0.37429 0.0
C97 C 0.45668 0.51934 0.49067 0.0
C98 C 0.46345 0.47709 0.50959 0.0
H99 H 0.47653 0.58435 0.41014 0.0
H100 H 0.42976 0.52616 0.52696 0.0
S101 S 0.54944 0.44088 0.39326 0.0
N102 N 0.55891 0.49407 0.34654 0.0
N103 N 0.5066 0.4293 0.46884 0.0
C104 C 0.49845 0.46972 0.45932 0.0
C105 C 0.5267 0.50469 0.39266 0.0
C106 C 0.94094 0.42779 0.61238 0.0
C107 C 0.98308 0.45004 0.66771 0.0
C108 C 0.93766 0.45542 0.5436 0.0
C109 C 0.97613 0.50672 0.52805 0.0
H110 H 0.91116 0.388 0.62038 0.0
H111 H 0.90506 0.43593 0.50152 0.0
S112 S 0.09071 0.58467 0.66281 0.0
N113 N 0.06121 0.52755 0.7084 0.0
N114 N 0.0556 0.57996 0.57943 0.0
C115 C 0.01723 0.53021 0.58593 0.0
C116 C 0.02062 0.50174 0.65559 0.0
C117 C 0.5273 0.01877 0.8239 0.0
C118 C 0.52703 0.97523 0.85768 0.0
C119 C 0.49522 0.01452 0.75632 0.0
C120 C 0.46241 0.96666 0.71879 0.0
H121 H 0.55314 0.05665 0.8486 0.0
H122 H 0.49783 0.0493 0.731 0.0
S123 S 0.44431 0.84036 0.78675 0.0
N124 N 0.4885 0.88214 0.85141 0.0
N125 N 0.42913 0.87447 0.72334 0.0
C126 C 0.46046 0.92261 0.75354 0.0
C127 C 0.49245 0.9268 0.8233 0.0
C128 C 0.53 0.53974 0.97836 0.0
C129 C 0.57123 0.53715 0.0163 0.0
C130 C 0.50239 0.50726 0.91109 0.0
C131 C 0.51576 0.47182 0.87823 0.0
H132 H 0.51946 0.56765 0.99952 0.0
H133 H 0.47169 0.51132 0.88254 0.0
S134 S 0.61772 0.44674 0.95829 0.0
N135 N 0.62165 0.49344 0.01885 0.0
N136 N 0.57044 0.43345 0.89154 0.0
C137 C 0.55574 0.46766 0.917 0.0
C138 C 0.58326 0.50002 0.98629 0.0
C139 C 0.00539 0.48475 0.06552 0.0
C140 C 0.0532 0.49899 0.02666 0.0
C141 C 0.00163 0.51319 0.13295 0.0
C142 C 0.04565 0.55633 0.16532 0.0
H143 H 0.97023 0.45247 0.04171 0.0
H144 H 0.96379 0.50156 0.15885 0.0
S145 S 0.18062 0.607 0.09025 0.0
N146 N 0.14589 0.55739 0.02824 0.0
N147 N 0.1391 0.61027 0.15593 0.0
C148 C 0.09402 0.56964 0.12934 0.0
C149 C 0.09773 0.54118 0.05974 0.0
C150 C 0.61133 0.80485 0.23108 0.0
C151 C 0.6486 0.78934 0.22544 0.0
C152 C 0.62383 0.85533 0.21246 0.0
C153 C 0.67404 0.89221 0.18628 0.0
H154 H 0.57127 0.77687 0.24387 0.0
H155 H 0.59281 0.86422 0.21241 0.0
S156 S 0.78826 0.87387 0.1807 0.0
N157 N 0.73969 0.81688 0.20695 0.0
N158 N 0.7633 0.91196 0.17115 0.0
C159 C 0.71301 0.8788 0.19042 0.0
C160 C 0.70025 0.82724 0.21024 0.0
C161 C 0.88881 0.69257 0.34717 0.0
C162 C 0.87372 0.64183 0.37118 0.0
C163 C 0.85187 0.70744 0.33118 0.0
C164 C 0.79869 0.67215 0.33936 0.0
H165 H 0.92896 0.71963 0.33325 0.0
H166 H 0.86505 0.74562 0.30614 0.0
S167 S 0.74084 0.53875 0.42245 0.0
N168 N 0.80338 0.55928 0.41726 0.0
N169 N 0.7339 0.58728 0.39002 0.0
C170 C 0.78381 0.62329 0.37374 0.0
C171 C 0.82137 0.60806 0.38877 0.0
C172 C 0.14197 0.83397 0.50152 0.0
C173 C 0.12737 0.78157 0.50624 0.0
C174 C 0.19222 0.87229 0.52226 0.0
C175 C 0.22934 0.8593 0.54795 0.0
H176 H 0.11598 0.84566 0.47509 0.0
H177 H 0.20326 0.91206 0.51047 0.0
S178 S 0.20662 0.72829 0.59222 0.0
N179 N 0.15099 0.71908 0.55549 0.0
N180 N 0.24557 0.79116 0.59246 0.0
C181 C 0.21344 0.80735 0.56248 0.0
C182 C 0.16233 0.76842 0.5422 0.0
C183 C 0.35608 0.19517 0.70833 0.0
C184 C 0.40112 0.23594 0.74271 0.0
C185 C 0.35274 0.14756 0.6922 0.0
C186 C 0.39431 0.13933 0.7103 0.0
H187 H 0.32559 0.20162 0.68561 0.0
H188 H 0.31919 0.1187 0.6589 0.0
S189 S 0.5146 0.23022 0.82226 0.0
N190 N 0.48357 0.26246 0.80924 0.0
N191 N 0.4771 0.1728 0.78131 0.0
C192 C 0.43644 0.17774 0.75531 0.0
C193 C 0.43993 0.2262 0.77086 0.0
C194 C 0.2057 0.39807 0.87901 0.0
C195 C 0.15325 0.36189 0.86791 0.0
C196 C 0.24419 0.38547 0.86252 0.0
C197 C 0.2318 0.33633 0.83281 0.0
H198 H 0.21734 0.43752 0.89488 0.0
H199 H 0.28403 0.41583 0.86703 0.0
S200 S 0.09951 0.22475 0.81064 0.0
N201 N 0.09032 0.27266 0.83911 0.0
N202 N 0.16272 0.2488 0.80721 0.0
C203 C 0.17926 0.29819 0.83057 0.0
C204 C 0.13992 0.31102 0.84837 0.0
C205 C 0.87346 0.16842 0.99431 0.0
C206 C 0.89097 0.22149 0.9997 0.0
C207 C 0.82246 0.13194 0.01621 0.0
C208 C 0.78734 0.14741 0.04369 0.0
H209 H 0.89789 0.15485 0.96698 0.0
H210 H 0.80933 0.09172 1.00421 0.0
S211 S 0.81725 0.28065 0.0892 0.0
N212 N 0.8717 0.28694 0.05088 0.0
N213 N 0.77576 0.21832 0.08962 0.0
C214 C 0.80591 0.19986 0.05832 0.0
C215 C 0.85782 0.23694 0.03703 0.0
loop_
_geom_bond_atom_site_label_1
_geom_bond_atom_site_label_2
_geom_bond_distance
_geom_bond_site_symmetry_2
_ccdc_geom_bond_type
Mg0 O1 2.028 . S
Mg0 O7 1.986 . S
Mg0 O9 2.114 1_544 S
Mg0 O10 2.251 1_554 S
Mg0 O13 2.010 1_545 S
O1 Mg0 2.028 . S
O1 C4 1.250 . S
O2 Mg3 2.028 . S
O2 C4 1.248 . S
Mg3 O2 2.028 . S
Mg3 O8 2.032 . S
Mg3 O10 2.079 1_554 S
C4 O1 1.250 . S
C4 O2 1.248 . S
C5 O6 1.264 . S
C5 O13 1.249 . S
O6 C5 1.264 . S
O7 Mg0 1.986 . S
O7 C11 1.246 . S
O8 Mg3 2.032 . S
O8 C11 1.259 . S
O9 Mg0 2.114 1_566 S
O9 C12 1.252 1_565 S
O10 Mg0 2.251 1_556 S
O10 Mg3 2.079 1_556 S
O10 C12 1.273 . S
C11 O7 1.246 . S
C11 O8 1.259 . S
C12 O9 1.252 1_545 S
C12 O10 1.273 . S
O13 Mg0 2.010 1_565 S
O13 C5 1.249 . S
Mg14 O15 2.028 . S
Mg14 O21 1.986 . S
Mg14 O23 2.114 . S
Mg14 O24 2.251 . S
Mg14 O27 2.010 . S
O15 Mg14 2.028 . S
O15 C18 1.250 . S
O16 Mg17 2.028 . S
O16 C18 1.248 . S
Mg17 O16 2.028 . S
Mg17 O22 2.032 . S
Mg17 O24 2.079 . S
C18 O15 1.250 . S
C18 O16 1.248 . S
C19 O20 1.264 . S
C19 O27 1.249 . S
O20 C19 1.264 . S
O21 Mg14 1.986 . S
O21 C25 1.246 . S
O22 Mg17 2.032 . S
O22 C25 1.259 . S
O23 Mg14 2.114 . S
O23 C26 1.252 . S
O24 Mg14 2.251 . S
O24 Mg17 2.079 . S
O24 C26 1.273 . S
C25 O21 1.246 . S
C25 O22 1.259 . S
C26 O23 1.252 . S
C26 O24 1.273 . S
O27 Mg14 2.010 . S
O27 C19 1.249 . S
Mg28 O29 2.028 . S
Mg28 O35 1.986 1_455 S
Mg28 O37 2.114 . S
Mg28 O38 2.251 1_455 S
Mg28 O41 2.010 . S
O29 Mg28 2.028 . S
O29 C32 1.250 . S
O30 Mg31 2.028 . S
O30 C32 1.248 1_655 S
Mg31 O30 2.028 . S
Mg31 O36 2.032 . S
Mg31 O38 2.079 . S
C32 O29 1.250 . S
C32 O30 1.248 1_455 S
C33 O34 1.264 . S
C33 O41 1.249 . S
O34 C33 1.264 . S
O35 Mg28 1.986 1_655 S
O35 C39 1.246 . S
O36 Mg31 2.032 . S
O36 C39 1.259 . S
O37 Mg28 2.114 . S
O37 C40 1.252 . S
O38 Mg28 2.251 1_655 S
O38 Mg31 2.079 . S
O38 C40 1.273 1_655 S
C39 O35 1.246 . S
C39 O36 1.259 . S
C40 O37 1.252 . S
C40 O38 1.273 1_455 S
O41 Mg28 2.010 . S
O41 C33 1.249 . S
Mg42 O43 2.028 . S
Mg42 O49 1.986 1_545 S
Mg42 O51 2.114 . S
Mg42 O52 2.251 1_545 S
Mg42 O55 2.010 . S
O43 Mg42 2.028 . S
O43 C46 1.250 1_545 S
O44 Mg45 2.028 . S
O44 C46 1.248 . S
Mg45 O44 2.028 . S
Mg45 O50 2.032 . S
Mg45 O52 2.079 . S
C46 O43 1.250 1_565 S
C46 O44 1.248 . S
C47 O48 1.264 . S
C47 O55 1.249 . S
O48 C47 1.264 . S
O49 Mg42 1.986 1_565 S
O49 C53 1.246 . S
O50 Mg45 2.032 . S
O50 C53 1.259 . S
O51 Mg42 2.114 . S
O51 C54 1.252 . S
O52 Mg42 2.251 1_565 S
O52 Mg45 2.079 . S
O52 C54 1.273 1_565 S
C53 O49 1.246 . S
C53 O50 1.259 . S
C54 O51 1.252 . S
C54 O52 1.273 1_545 S
O55 Mg42 2.010 . S
O55 C47 1.249 . S
Mg56 O57 2.028 . S
Mg56 O63 1.986 . S
Mg56 O65 2.114 . S
Mg56 O66 2.251 . S
Mg56 O69 2.010 . S
O57 Mg56 2.028 . S
O57 C60 1.250 . S
O58 Mg59 2.028 . S
O58 C60 1.248 . S
Mg59 O58 2.028 . S
Mg59 O64 2.032 . S
Mg59 O66 2.079 . S
C60 O57 1.250 . S
C60 O58 1.248 . S
C61 O62 1.264 . S
C61 O69 1.249 . S
O62 C61 1.264 . S
O63 Mg56 1.986 . S
O63 C67 1.246 . S
O64 Mg59 2.032 . S
O64 C67 1.259 . S
O65 Mg56 2.114 . S
O65 C68 1.252 . S
O66 Mg56 2.251 . S
O66 Mg59 2.079 . S
O66 C68 1.273 . S
C67 O63 1.246 . S
C67 O64 1.259 . S
C68 O65 1.252 . S
C68 O66 1.273 . S
O69 Mg56 2.010 . S
O69 C61 1.249 . S
Mg70 O71 2.028 . S
Mg70 O77 1.986 . S
Mg70 O79 2.114 1_455 S
Mg70 O80 2.251 . S
Mg70 O83 2.010 1_455 S
O71 Mg70 2.028 . S
O71 C74 1.250 1_556 S
O72 Mg73 2.028 . S
O72 C74 1.248 1_556 S
Mg73 O72 2.028 . S
Mg73 O78 2.032 . S
Mg73 O80 2.079 . S
C74 O71 1.250 1_554 S
C74 O72 1.248 1_554 S
C75 O76 1.264 . S
C75 O83 1.249 . S
O76 C75 1.264 . S
O77 Mg70 1.986 . S
O77 C81 1.246 . S
O78 Mg73 2.032 . S
O78 C81 1.259 . S
O79 Mg70 2.114 1_655 S
O79 C82 1.252 1_655 S
O80 Mg70 2.251 . S
O80 Mg73 2.079 . S
O80 C82 1.273 . S
C81 O77 1.246 . S
C81 O78 1.259 . S
C82 O79 1.252 1_455 S
C82 O80 1.273 . S
O83 Mg70 2.010 1_655 S
O83 C75 1.249 . S
C84 C85 1.369 . S
C84 C86 1.419 . S
C84 H88 0.930 1_545 S
C85 C84 1.369 . S
C85 C94 1.429 . S
C86 C84 1.419 . S
C86 C87 1.363 . S
C86 H89 0.929 1_545 S
C87 C86 1.363 . S
C87 C93 1.428 . S
H88 C84 0.930 1_565 S
H89 C86 0.929 1_565 S
S90 N91 1.613 . S
S90 N92 1.610 . S
N91 S90 1.613 . S
N91 C94 1.350 . S
N92 S90 1.610 . S
N92 C93 1.351 . S
C93 C87 1.428 . S
C93 N92 1.351 . S
C93 C94 1.434 . S
C94 C85 1.429 . S
C94 N91 1.350 . S
C94 C93 1.434 . S
C95 C96 1.369 . S
C95 C97 1.419 . S
C95 H99 0.930 . S
C96 C95 1.369 . S
C96 C105 1.429 . S
C97 C95 1.419 . S
C97 C98 1.363 . S
C97 H100 0.929 . S
C98 C97 1.363 . S
C98 C104 1.428 . S
H99 C95 0.930 . S
H100 C97 0.929 . S
S101 N102 1.613 . S
S101 N103 1.610 . S
N102 S101 1.613 . S
N102 C105 1.350 . S
N103 S101 1.610 . S
N103 C104 1.351 . S
C104 C98 1.428 . S
C104 N103 1.351 . S
C104 C105 1.434 . S
C105 C96 1.429 . S
C105 N102 1.350 . S
C105 C104 1.434 . S
C106 C107 1.369 1_655 S
C106 C108 1.419 . S
C106 H110 0.930 . S
C107 C106 1.369 1_455 S
C107 C116 1.429 . S
C108 C106 1.419 . S
C108 C109 1.363 1_655 S
C108 H111 0.929 . S
C109 C108 1.363 1_455 S
C109 C115 1.428 . S
H110 C106 0.930 . S
H111 C108 0.929 . S
S112 N113 1.613 . S
S112 N114 1.610 . S
N113 S112 1.613 . S
N113 C116 1.350 . S
N114 S112 1.610 . S
N114 C115 1.351 . S
C115 C109 1.428 . S
C115 N114 1.351 . S
C115 C116 1.434 . S
C116 C107 1.429 . S
C116 N113 1.350 . S
C116 C115 1.434 . S
C117 C118 1.371 . S
C117 C119 1.419 . S
C117 H121 0.930 . S
C118 C117 1.371 . S
C118 C127 1.427 1_545 S
C119 C117 1.419 . S
C119 C120 1.363 . S
C119 H122 0.929 . S
C120 C119 1.363 . S
C120 C126 1.428 1_545 S
H121 C117 0.930 . S
H122 C119 0.929 . S
S123 N124 1.613 . S
S123 N125 1.610 . S
N124 S123 1.613 . S
N124 C127 1.350 . S
N125 S123 1.610 . S
N125 C126 1.351 . S
C126 C120 1.428 1_565 S
C126 N125 1.351 . S
C126 C127 1.434 . S
C127 C118 1.427 1_565 S
C127 N124 1.350 . S
C127 C126 1.434 . S
C128 C129 1.369 . S
C128 C130 1.419 1_554 S
C128 H132 0.930 . S
C129 C128 1.369 . S
C129 C138 1.429 1_554 S
C130 C128 1.419 1_556 S
C130 C131 1.363 . S
C130 H133 0.929 . S
C131 C130 1.363 . S
C131 C137 1.428 . S
H132 C128 0.930 . S
H133 C130 0.929 . S
S134 N135 1.614 . S
S134 N136 1.610 . S
N135 S134 1.614 . S
N135 C138 1.350 . S
N136 S134 1.610 . S
N136 C137 1.351 . S
C137 C131 1.428 . S
C137 N136 1.351 . S
C137 C138 1.434 . S
C138 C129 1.429 1_556 S
C138 N135 1.350 . S
C138 C137 1.434 . S
C139 C140 1.369 . S
C139 C141 1.419 . S
C139 H143 0.930 . S
C140 C139 1.369 . S
C140 C149 1.429 . S
C141 C139 1.419 . S
C141 C142 1.363 . S
C141 H144 0.929 . S
C142 C141 1.363 . S
C142 C148 1.428 . S
H143 C139 0.930 . S
H144 C141 0.929 . S
S145 N146 1.613 . S
S145 N147 1.610 1_556 S
N146 S145 1.613 . S
N146 C149 1.350 1_556 S
N147 S145 1.610 1_554 S
N147 C148 1.351 . S
C148 C142 1.428 . S
C148 N147 1.351 . S
C148 C149 1.434 . S
C149 C140 1.429 . S
C149 N146 1.350 1_554 S
C149 C148 1.434 . S
C150 C151 1.369 . S
C150 C152 1.419 . S
C150 H154 0.930 . S
C151 C150 1.369 . S
C151 C160 1.429 . S
C152 C150 1.419 . S
C152 C153 1.363 . S
C152 H155 0.929 . S
C153 C152 1.363 . S
C153 C159 1.428 . S
H154 C150 0.930 . S
H155 C152 0.929 . S
S156 N157 1.613 . S
S156 N158 1.610 . S
N157 S156 1.613 . S
N157 C160 1.350 . S
N158 S156 1.610 . S
N158 C159 1.351 . S
C159 C153 1.428 . S
C159 N158 1.351 . S
C159 C160 1.434 . S
C160 C151 1.429 . S
C160 N157 1.350 . S
C160 C159 1.434 . S
C161 C162 1.369 . S
C161 C163 1.419 . S
C161 H165 0.930 . S
C162 C161 1.369 . S
C162 C171 1.429 . S
C163 C161 1.419 . S
C163 C164 1.363 . S
C163 H166 0.929 . S
C164 C163 1.363 . S
C164 C170 1.428 . S
H165 C161 0.930 . S
H166 C163 0.929 . S
S167 N168 1.613 . S
S167 N169 1.610 . S
N168 S167 1.613 . S
N168 C171 1.350 . S
N169 S167 1.610 . S
N169 C170 1.351 . S
C170 C164 1.428 . S
C170 N169 1.351 . S
C170 C171 1.434 . S
C171 C162 1.429 . S
C171 N168 1.350 . S
C171 C170 1.434 . S
C172 C173 1.369 . S
C172 C174 1.419 . S
C172 H176 0.930 . S
C173 C172 1.369 . S
C173 C182 1.429 . S
C174 C172 1.419 . S
C174 C175 1.363 . S
C174 H177 0.929 . S
C175 C174 1.363 . S
C175 C181 1.428 . S
H176 C172 0.930 . S
H177 C174 0.929 . S
S178 N179 1.613 . S
S178 N180 1.610 . S
N179 S178 1.613 . S
N179 C182 1.350 . S
N180 S178 1.610 . S
N180 C181 1.351 . S
C181 C175 1.428 . S
C181 N180 1.351 . S
C181 C182 1.434 . S
C182 C173 1.429 . S
C182 N179 1.350 . S
C182 C181 1.434 . S
C183 C184 1.369 . S
C183 C185 1.419 . S
C183 H187 0.930 . S
C184 C183 1.369 . S
C184 C193 1.429 . S
C185 C183 1.419 . S
C185 C186 1.363 . S
C185 H188 0.929 . S
C186 C185 1.363 . S
C186 C192 1.428 . S
H187 C183 0.930 . S
H188 C185 0.929 . S
S189 N190 1.613 . S
S189 N191 1.610 . S
N190 S189 1.613 . S
N190 C193 1.350 . S
N191 S189 1.610 . S
N191 C192 1.351 . S
C192 C186 1.428 . S
C192 N191 1.351 . S
C192 C193 1.434 . S
C193 C184 1.429 . S
C193 N190 1.350 . S
C193 C192 1.434 . S
C194 C195 1.369 . S
C194 C196 1.419 . S
C194 H198 0.930 . S
C195 C194 1.369 . S
C195 C204 1.429 . S
C196 C194 1.419 . S
C196 C197 1.363 . S
C196 H199 0.929 . S
C197 C196 1.363 . S
C197 C203 1.428 . S
H198 C194 0.930 . S
H199 C196 0.929 . S
S200 N201 1.613 . S
S200 N202 1.610 . S
N201 S200 1.613 . S
N201 C204 1.350 . S
N202 S200 1.610 . S
N202 C203 1.351 . S
C203 C197 1.428 . S
C203 N202 1.351 . S
C203 C204 1.434 . S
C204 C195 1.429 . S
C204 N201 1.350 . S
C204 C203 1.434 . S
C205 C206 1.369 . S
C205 C207 1.419 1_556 S
C205 H209 0.930 . S
C206 C205 1.369 . S
C206 C215 1.429 . S
C207 C205 1.419 1_554 S
C207 C208 1.363 . S
C207 H210 0.929 . S
C208 C207 1.363 . S
C208 C214 1.428 . S
H209 C205 0.930 . S
H210 C207 0.929 . S
S211 N212 1.613 1_554 S
S211 N213 1.610 . S
N212 S211 1.613 1_556 S
N212 C215 1.350 . S
N213 S211 1.610 . S
N213 C214 1.351 . S
C214 C208 1.428 . S
C214 N213 1.351 . S
C214 C215 1.434 1_554 S
C215 C206 1.429 . S
C215 N212 1.350 . S
C215 C214 1.434 1_556 S
C85 C4 1.368 . S
C87 C54 1.406 . S
C96 C18 1.361 . S
C98 C68 1.407 . S
C107 C82 1.406 . S
C109 C32 1.366 . S
C118 C12 1.407 . S
C120 C46 1.361 1_545 S
C129 C26 1.408 . S
C131 C60 1.361 . S
C140 C74 1.359 . S
C142 C40 1.408 . S
C151 C25 1.449 . S
C153 C5 1.330 . S
C162 C39 1.444 . S
C164 C19 1.338 . S
C173 C33 1.340 . S
C175 C53 1.445 . S
C184 C67 1.441 . S
C186 C47 1.331 . S
C195 C81 1.444 . S
C197 C61 1.326 . S
C206 C75 1.339 . S
C208 C11 1.444 . S
