# Generated by pormake.
# Topology lon, (4)-cn, num edge types: 1
# Building blocks:
#     Node 0, Type 0, BuildingBlock: QUQFOY_clean_sbu_3, # of connection points: 4
#     Node 1, Type 0, BuildingBlock: QUQFOY_clean_sbu_3, # of connection points: 4
#     Node 2, Type 0, BuildingBlock: QUQFOY_clean_sbu_3, # of connection points: 4
#     Node 3, Type 0, BuildingBlock: QUQFOY_clean_sbu_3, # of connection points: 4
#     Edge 4, Type (0, 0), BuildingBlock: CIFDUS_clean_linker_0, # of connection points: 2
#     Edge 5, Type (0, 0), BuildingBlock: CIFDUS_clean_linker_0, # of connection points: 2
#     Edge 6, Type (0, 0), BuildingBlock: CIFDUS_clean_linker_0, # of connection points: 2
#     Edge 7, Type (0, 0), BuildingBlock: CIFDUS_clean_linker_0, # of connection points: 2
#     Edge 8, Type (0, 0), BuildingBlock: CIFDUS_clean_linker_0, # of connection points: 2
#     Edge 9, Type (0, 0), BuildingBlock: CIFDUS_clean_linker_0, # of connection points: 2
#     Edge 10, Type (0, 0), BuildingBlock: CIFDUS_clean_linker_0, # of connection points: 2
#     Edge 11, Type (0, 0), BuildingBlock: CIFDUS_clean_linker_0, # of connection points: 2
# Relax obj value: 0.136
# Max RMSD: 0.174
# Mean RMSD: 0.169
data_MOF--net-lon--node1-QUQFOY_clean_sbu_3--edge1-CIFDUS_clean_linker_0
_symmetry_space_group_name_H-M    P1
_symmetry_Int_Tables_number       1
_symmetry_cell_setting            triclinic
loop_
_symmetry_equiv_pos_as_xyz
'x, y, z'
_cell_length_a     21.25977
_cell_length_b     23.021249
_cell_length_c     37.183308
_cell_angle_alpha  90.350104
_cell_angle_beta   89.797098
_cell_angle_gamma 117.10607
loop_
_atom_site_label
_atom_site_type_symbol
_atom_site_fract_x
_atom_site_fract_y
_atom_site_fract_z
_atom_type_partial_charge
C0 C 0.09979 0.63159 0.04572 0.0
O1 O 0.10109 0.68342 0.05849 0.0
Cd2 Cd 0.2068 0.77579 0.07828 0.0
O3 O 0.15636 0.62542 0.04363 0.0
Cd4 Cd 0.28369 0.68996 0.05909 0.0
C5 C 0.25414 0.70853 0.14785 0.0
O6 O 0.29375 0.79085 0.03275 0.0
O7 O 0.38803 0.79688 0.05763 0.0
O8 O 0.30311 0.62914 0.00956 0.0
C9 C 0.35892 0.82443 0.03956 0.0
O10 O 0.23218 0.74897 0.13804 0.0
C11 C 0.34777 0.61723 0.0264 0.0
O12 O 0.27243 0.6783 0.12459 0.0
O13 O 0.36184 0.63851 0.05845 0.0
C14 C 0.644 0.35202 0.50408 0.0
O15 O 0.64051 0.31839 0.47626 0.0
Cd16 Cd 0.67709 0.23452 0.47453 0.0
O17 O 0.66472 0.34022 0.53403 0.0
Cd18 Cd 0.70296 0.26409 0.56176 0.0
C19 C 0.8465 0.32569 0.50742 0.0
O20 O 0.62818 0.17136 0.52675 0.0
O21 O 0.70825 0.1592 0.55647 0.0
O22 O 0.61813 0.24822 0.60841 0.0
C23 C 0.65546 0.13478 0.53547 0.0
O24 O 0.80445 0.29484 0.4819 0.0
C25 C 0.66074 0.26472 0.63469 0.0
O26 O 0.8236 0.3257 0.53921 0.0
O27 O 0.72536 0.28193 0.62734 0.0
C28 C 0.25572 0.57384 0.49015 0.0
O29 O 0.29774 0.60755 0.51487 0.0
Cd30 Cd 0.41466 0.68916 0.50385 0.0
O31 O 0.27494 0.58272 0.45721 0.0
Cd32 Cd 0.38219 0.65501 0.42209 0.0
C33 C 0.48074 0.59488 0.46371 0.0
O34 O 0.39991 0.75041 0.45534 0.0
O35 O 0.48977 0.7623 0.42334 0.0
O36 O 0.31174 0.66317 0.37213 0.0
C37 C 0.45899 0.78821 0.44187 0.0
O38 O 0.48184 0.62864 0.49115 0.0
C39 C 0.34295 0.64666 0.34799 0.0
O40 O 0.44563 0.59385 0.43594 0.0
O41 O 0.39106 0.63257 0.35845 0.0
C42 C 0.45995 0.37297 0.92553 0.0
O43 O 0.41553 0.32161 0.9097 0.0
Cd44 Cd 0.43315 0.22678 0.90109 0.0
O45 O 0.51984 0.37842 0.93541 0.0
Cd46 Cd 0.58859 0.31506 0.93285 0.0
C47 C 0.57181 0.28236 0.84237 0.0
O48 O 0.48704 0.22103 0.95671 0.0
O49 O 0.58047 0.20813 0.95027 0.0
O50 O 0.65322 0.39042 0.98176 0.0
C51 C 0.51649 0.18451 0.9601 0.0
O52 O 0.50669 0.24478 0.84802 0.0
C53 C 0.71354 0.39709 0.97222 0.0
O54 O 0.61181 0.31573 0.86795 0.0
O55 O 0.71549 0.36511 0.94469 0.0
H56 H 0.32016 0.64423 0.17888 0.0
H57 H 0.20113 0.74911 0.20426 0.0
H58 H 0.21438 0.73558 0.26836 0.0
H59 H 0.26392 0.6981 0.31727 0.0
H60 H 0.38699 0.59719 0.29197 0.0
H61 H 0.3675 0.60463 0.22782 0.0
C62 C 0.2967 0.66378 0.1984 0.0
C63 C 0.25988 0.6978 0.1867 0.0
C64 C 0.30529 0.65661 0.23528 0.0
C65 C 0.23008 0.72301 0.21245 0.0
C66 C 0.23754 0.71524 0.24915 0.0
C67 C 0.28592 0.6772 0.29773 0.0
C68 C 0.32684 0.64716 0.30937 0.0
C69 C 0.27562 0.68271 0.26087 0.0
C70 C 0.3554 0.62071 0.28371 0.0
C71 C 0.34436 0.625 0.24701 0.0
H72 H 0.73817 0.3162 0.69591 0.0
H73 H 0.52431 0.2093 0.65679 0.0
H74 H 0.47861 0.20565 0.71721 0.0
H75 H 0.49834 0.23231 0.78094 0.0
H76 H 0.71091 0.34137 0.82119 0.0
H77 H 0.75791 0.34491 0.76062 0.0
C78 C 0.68164 0.29204 0.7007 0.0
C79 C 0.63483 0.26299 0.67185 0.0
C80 C 0.65534 0.29061 0.73568 0.0
C81 C 0.56163 0.2322 0.67844 0.0
C82 C 0.5353 0.23 0.71303 0.0
C83 C 0.55502 0.25689 0.77659 0.0
C84 C 0.60093 0.28632 0.80565 0.0
C85 C 0.58158 0.25903 0.7418 0.0
C86 C 0.67424 0.31834 0.79931 0.0
C87 C 0.70121 0.32027 0.76468 0.0
H88 H 0.31022 0.54665 0.9643 0.0
H89 H 0.46072 0.60375 0.05134 0.0
H90 H 0.51369 0.53858 0.02546 0.0
H91 H 0.51257 0.46009 0.98032 0.0
H92 H 0.3573 0.39717 0.89542 0.0
H93 H 0.31156 0.47058 0.91794 0.0
C94 C 0.35492 0.54517 0.97745 0.0
C95 C 0.38128 0.57974 0.00977 0.0
C96 C 0.38435 0.50663 0.96277 0.0
C97 C 0.4391 0.5772 0.02656 0.0
C98 C 0.46954 0.54007 0.01175 0.0
C99 C 0.4695 0.46325 0.96637 0.0
C100 C 0.43846 0.42335 0.93621 0.0
C101 C 0.44203 0.50393 0.98013 0.0
C102 C 0.38204 0.42734 0.91874 0.0
C103 C 0.35571 0.46913 0.93166 0.0
H104 H 0.15307 0.49037 0.44538 0.0
H105 H 0.19475 0.54965 0.55677 0.0
H106 H 0.07269 0.47589 0.57226 0.0
H107 H 0.95266 0.39861 0.5538 0.0
H108 H 0.9113 0.33981 0.44229 0.0
H109 H 0.03473 0.40909 0.42746 0.0
C110 C 0.13563 0.48696 0.47308 0.0
C111 C 0.18293 0.5259 0.49975 0.0
C112 C 0.06529 0.44465 0.48186 0.0
C113 C 0.15945 0.52045 0.53559 0.0
C114 C 0.08957 0.47832 0.54453 0.0
C115 C 0.97067 0.40061 0.52629 0.0
C116 C 0.92252 0.36441 0.49923 0.0
C117 C 0.0418 0.44082 0.51781 0.0
C118 C 0.947 0.36736 0.46373 0.0
C119 C 0.01766 0.40705 0.45514 0.0
H120 H 0.57073 0.10639 0.9858 0.0
H121 H 0.37412 0.11272 0.96583 0.0
H122 H 0.30805 0.00174 0.98843 0.0
H123 H 0.30593 0.90278 0.01364 0.0
H124 H 0.50215 0.89745 0.03623 0.0
H125 H 0.5686 0.00819 0.01298 0.0
C126 C 0.51344 0.08333 0.98636 0.0
C127 C 0.47734 0.11751 0.97405 0.0
C128 C 0.47574 0.0198 -9e-05 0.0
C129 C 0.40312 0.08741 0.97523 0.0
C130 C 0.36528 0.02393 0.9881 0.0
C131 C 0.36324 0.92586 0.01345 0.0
C132 C 0.39908 0.89195 0.02645 0.0
C133 C 0.40102 -0.01032 0.00048 0.0
C134 C 0.47335 0.92265 0.02639 0.0
C135 C 0.51137 -0.01412 0.01303 0.0
H136 H 0.59894 0.39087 0.44496 0.0
H137 H 0.63927 0.43052 0.5585 0.0
H138 H 0.5967 0.51251 0.5555 0.0
H139 H 0.54215 0.56864 0.52133 0.0
H140 H 0.4999 0.52685 0.40806 0.0
H141 H 0.54971 0.45034 0.41035 0.0
C142 C 0.59877 0.41758 0.46906 0.0
C143 C 0.62177 0.40413 0.50193 0.0
C144 C 0.57381 0.46427 0.46724 0.0
C145 C 0.62155 0.4396 0.53283 0.0
C146 C 0.5972 0.48653 0.53117 0.0
C147 C 0.54446 0.54331 0.49706 0.0
C148 C 0.51689 0.55321 0.46466 0.0
C149 C 0.57237 0.49866 0.49861 0.0
C150 C 0.52031 0.5199 0.43345 0.0
C151 C 0.54873 0.47604 0.4347 0.0
H152 H 0.96692 0.61653 0.05762 0.0
H153 H 0.08167 0.52917 0.00211 0.0
H154 H 0.9719 0.44772 0.9753 0.0
H155 H 0.84419 0.40445 0.9654 0.0
H156 H 0.7291 0.49015 0.02203 0.0
H157 H 0.8382 0.56897 0.05072 0.0
C158 C 0.96793 0.57952 0.03978 0.0
C159 C 0.03256 0.57935 0.03167 0.0
C160 C 0.90461 0.53265 0.02456 0.0
C161 C 0.03273 0.53052 0.00881 0.0
C162 C 0.96999 0.48401 -0.00664 0.0
C163 C 0.84295 0.4402 0.98415 0.0
C164 C 0.77876 0.4418 0.99136 0.0
C165 C 0.90578 0.48512 0.0007 0.0
C166 C 0.77785 0.48795 0.01599 0.0
C167 C 0.84023 0.53314 0.03234 0.0
H168 H 0.53843 0.0705 0.49557 0.0
H169 H 0.71946 0.05482 0.53689 0.0
H170 H 0.67865 0.94809 0.50761 0.0
H171 H 0.58768 0.85685 0.47249 0.0
H172 H 0.40324 0.87123 0.43583 0.0
H173 H 0.44985 -0.01823 0.46039 0.0
C174 C 0.5692 0.04391 0.4981 0.0
C175 C 0.63168 0.07028 0.51838 0.0
C176 C 0.54505 -0.01728 0.48171 0.0
C177 C 0.67085 0.03519 0.52155 0.0
C178 C 0.64772 0.97439 0.50471 0.0
C179 C 0.55881 0.88507 0.46936 0.0
C180 C 0.49294 0.85715 0.45209 0.0
C181 C 0.5846 0.94747 0.48491 0.0
C182 C 0.45449 0.89268 0.44882 0.0
C183 C 0.48084 0.95546 0.46301 0.0
loop_
_geom_bond_atom_site_label_1
_geom_bond_atom_site_label_2
_geom_bond_distance
_geom_bond_site_symmetry_2
_ccdc_geom_bond_type
C0 O1 1.306 . S
C0 O3 1.160 . S
O1 C0 1.306 . S
O1 Cd2 2.228 . S
Cd2 O1 2.228 . S
Cd2 O6 2.273 . S
Cd2 O10 2.277 . S
O3 C0 1.160 . S
O3 Cd4 2.203 . S
Cd4 O3 2.203 . S
Cd4 O6 2.411 . S
Cd4 O7 2.333 . S
Cd4 O8 2.352 . S
Cd4 O12 2.277 . S
Cd4 O13 2.356 . S
C5 O10 1.209 . S
C5 O12 1.226 . S
O6 Cd2 2.273 . S
O6 Cd4 2.411 . S
O6 C9 1.320 . S
O7 Cd4 2.333 . S
O7 C9 1.214 . S
O8 Cd4 2.352 . S
O8 C11 1.258 . S
C9 O6 1.320 . S
C9 O7 1.214 . S
O10 Cd2 2.277 . S
O10 C5 1.209 . S
C11 O8 1.258 . S
C11 O13 1.282 . S
O12 Cd4 2.277 . S
O12 C5 1.226 . S
O13 Cd4 2.356 . S
O13 C11 1.282 . S
C14 O15 1.306 . S
C14 O17 1.160 . S
O15 C14 1.306 . S
O15 Cd16 2.228 . S
Cd16 O15 2.228 . S
Cd16 O20 2.273 . S
Cd16 O24 2.277 . S
O17 C14 1.160 . S
O17 Cd18 2.203 . S
Cd18 O17 2.203 . S
Cd18 O20 2.411 . S
Cd18 O21 2.333 . S
Cd18 O22 2.352 . S
Cd18 O26 2.277 . S
Cd18 O27 2.356 . S
C19 O24 1.209 . S
C19 O26 1.226 . S
O20 Cd16 2.273 . S
O20 Cd18 2.411 . S
O20 C23 1.320 . S
O21 Cd18 2.333 . S
O21 C23 1.214 . S
O22 Cd18 2.352 . S
O22 C25 1.258 . S
C23 O20 1.320 . S
C23 O21 1.214 . S
O24 Cd16 2.277 . S
O24 C19 1.209 . S
C25 O22 1.258 . S
C25 O27 1.282 . S
O26 Cd18 2.277 . S
O26 C19 1.226 . S
O27 Cd18 2.356 . S
O27 C25 1.282 . S
C28 O29 1.306 . S
C28 O31 1.160 . S
O29 C28 1.306 . S
O29 Cd30 2.228 . S
Cd30 O29 2.228 . S
Cd30 O34 2.273 . S
Cd30 O38 2.277 . S
O31 C28 1.160 . S
O31 Cd32 2.203 . S
Cd32 O31 2.203 . S
Cd32 O34 2.411 . S
Cd32 O35 2.333 . S
Cd32 O36 2.352 . S
Cd32 O40 2.277 . S
Cd32 O41 2.356 . S
C33 O38 1.209 . S
C33 O40 1.226 . S
O34 Cd30 2.273 . S
O34 Cd32 2.411 . S
O34 C37 1.320 . S
O35 Cd32 2.333 . S
O35 C37 1.214 . S
O36 Cd32 2.352 . S
O36 C39 1.258 . S
C37 O34 1.320 . S
C37 O35 1.214 . S
O38 Cd30 2.277 . S
O38 C33 1.209 . S
C39 O36 1.258 . S
C39 O41 1.282 . S
O40 Cd32 2.277 . S
O40 C33 1.226 . S
O41 Cd32 2.356 . S
O41 C39 1.282 . S
C42 O43 1.306 . S
C42 O45 1.160 . S
O43 C42 1.306 . S
O43 Cd44 2.228 . S
Cd44 O43 2.228 . S
Cd44 O48 2.273 . S
Cd44 O52 2.277 . S
O45 C42 1.160 . S
O45 Cd46 2.203 . S
Cd46 O45 2.203 . S
Cd46 O48 2.411 . S
Cd46 O49 2.333 . S
Cd46 O50 2.352 . S
Cd46 O54 2.277 . S
Cd46 O55 2.356 . S
C47 O52 1.209 . S
C47 O54 1.226 . S
O48 Cd44 2.273 . S
O48 Cd46 2.411 . S
O48 C51 1.320 . S
O49 Cd46 2.333 . S
O49 C51 1.214 . S
O50 Cd46 2.352 . S
O50 C53 1.258 . S
C51 O48 1.320 . S
C51 O49 1.214 . S
O52 Cd44 2.277 . S
O52 C47 1.209 . S
C53 O50 1.258 . S
C53 O55 1.282 . S
O54 Cd46 2.277 . S
O54 C47 1.226 . S
O55 Cd46 2.356 . S
O55 C53 1.282 . S
H56 C62 0.930 . S
H57 C65 0.930 . S
H58 C66 0.930 . S
H59 C67 0.930 . S
H60 C70 0.930 . S
H61 C71 0.930 . S
C62 H56 0.930 . S
C62 C63 1.355 . S
C62 C64 1.415 . S
C63 C62 1.355 . S
C63 C65 1.419 . S
C64 C62 1.415 . S
C64 C69 1.425 . S
C64 C71 1.409 . S
C65 H57 0.930 . S
C65 C63 1.419 . S
C65 C66 1.362 . S
C66 H58 0.930 . S
C66 C65 1.362 . S
C66 C69 1.409 . S
C67 H59 0.930 . S
C67 C68 1.355 . S
C67 C69 1.415 . S
C68 C67 1.355 . S
C68 C70 1.419 . S
C69 C64 1.425 . S
C69 C66 1.409 . S
C69 C67 1.415 . S
C70 H60 0.930 . S
C70 C68 1.419 . S
C70 C71 1.362 . S
C71 H61 0.930 . S
C71 C64 1.409 . S
C71 C70 1.362 . S
H72 C78 0.930 . S
H73 C81 0.930 . S
H74 C82 0.930 . S
H75 C83 0.930 . S
H76 C86 0.930 . S
H77 C87 0.930 . S
C78 H72 0.930 . S
C78 C79 1.355 . S
C78 C80 1.415 . S
C79 C78 1.355 . S
C79 C81 1.419 . S
C80 C78 1.415 . S
C80 C85 1.425 . S
C80 C87 1.409 . S
C81 H73 0.930 . S
C81 C79 1.419 . S
C81 C82 1.362 . S
C82 H74 0.930 . S
C82 C81 1.362 . S
C82 C85 1.409 . S
C83 H75 0.930 . S
C83 C84 1.355 . S
C83 C85 1.415 . S
C84 C83 1.355 . S
C84 C86 1.419 . S
C85 C80 1.425 . S
C85 C82 1.409 . S
C85 C83 1.415 . S
C86 H76 0.930 . S
C86 C84 1.419 . S
C86 C87 1.362 . S
C87 H77 0.930 . S
C87 C80 1.409 . S
C87 C86 1.362 . S
H88 C94 0.930 . S
H89 C97 0.930 . S
H90 C98 0.930 . S
H91 C99 0.930 1_554 S
H92 C102 0.930 . S
H93 C103 0.930 . S
C94 H88 0.930 . S
C94 C95 1.355 1_556 S
C94 C96 1.415 . S
C95 C94 1.355 1_554 S
C95 C97 1.419 . S
C96 C94 1.415 . S
C96 C101 1.425 1_556 S
C96 C103 1.409 . S
C97 H89 0.930 . S
C97 C95 1.419 . S
C97 C98 1.362 . S
C98 H90 0.930 . S
C98 C97 1.362 . S
C98 C101 1.409 . S
C99 H91 0.930 1_556 S
C99 C100 1.355 . S
C99 C101 1.415 1_556 S
C100 C99 1.355 . S
C100 C102 1.419 . S
C101 C96 1.425 1_554 S
C101 C98 1.409 . S
C101 C99 1.415 1_554 S
C102 H92 0.930 . S
C102 C100 1.419 . S
C102 C103 1.362 . S
C103 H93 0.930 . S
C103 C96 1.409 . S
C103 C102 1.362 . S
H104 C110 0.930 . S
H105 C113 0.930 . S
H106 C114 0.930 . S
H107 C115 0.930 . S
H108 C118 0.930 . S
H109 C119 0.930 . S
C110 H104 0.930 . S
C110 C111 1.355 . S
C110 C112 1.415 1_455 S
C111 C110 1.355 . S
C111 C113 1.419 . S
C112 C110 1.415 1_655 S
C112 C117 1.425 . S
C112 C119 1.409 . S
C113 H105 0.930 . S
C113 C111 1.419 . S
C113 C114 1.362 . S
C114 H106 0.930 . S
C114 C113 1.362 . S
C114 C117 1.409 1_455 S
C115 H107 0.930 . S
C115 C116 1.355 . S
C115 C117 1.415 . S
C116 C115 1.355 . S
C116 C118 1.419 . S
C117 C112 1.425 . S
C117 C114 1.409 1_655 S
C117 C115 1.415 . S
C118 H108 0.930 . S
C118 C116 1.419 . S
C118 C119 1.362 . S
C119 H109 0.930 . S
C119 C112 1.409 . S
C119 C118 1.362 . S
H120 C126 0.930 1_554 S
H121 C129 0.930 . S
H122 C130 0.930 1_565 S
H123 C131 0.930 1_556 S
H124 C134 0.930 . S
H125 C135 0.930 1_545 S
C126 H120 0.930 1_556 S
C126 C127 1.355 . S
C126 C128 1.415 1_556 S
C127 C126 1.355 . S
C127 C129 1.419 . S
C128 C126 1.415 1_554 S
C128 C133 1.425 1_544 S
C128 C135 1.409 1_545 S
C129 H121 0.930 . S
C129 C127 1.419 . S
C129 C130 1.362 . S
C130 H122 0.930 1_545 S
C130 C129 1.362 . S
C130 C133 1.409 1_545 S
C131 H123 0.930 1_554 S
C131 C132 1.355 . S
C131 C133 1.415 1_554 S
C132 C131 1.355 . S
C132 C134 1.419 . S
C133 C128 1.425 1_566 S
C133 C130 1.409 1_565 S
C133 C131 1.415 1_556 S
C134 H124 0.930 . S
C134 C132 1.419 . S
C134 C135 1.362 . S
C135 H125 0.930 1_565 S
C135 C128 1.409 1_565 S
C135 C134 1.362 . S
H136 C142 0.930 . S
H137 C145 0.930 . S
H138 C146 0.930 . S
H139 C147 0.930 . S
H140 C150 0.930 . S
H141 C151 0.930 . S
C142 H136 0.930 . S
C142 C143 1.355 . S
C142 C144 1.415 . S
C143 C142 1.355 . S
C143 C145 1.419 . S
C144 C142 1.415 . S
C144 C149 1.425 . S
C144 C151 1.409 . S
C145 H137 0.930 . S
C145 C143 1.419 . S
C145 C146 1.362 . S
C146 H138 0.930 . S
C146 C145 1.362 . S
C146 C149 1.409 . S
C147 H139 0.930 . S
C147 C148 1.355 . S
C147 C149 1.415 . S
C148 C147 1.355 . S
C148 C150 1.419 . S
C149 C144 1.425 . S
C149 C146 1.409 . S
C149 C147 1.415 . S
C150 H140 0.930 . S
C150 C148 1.419 . S
C150 C151 1.362 . S
C151 H141 0.930 . S
C151 C144 1.409 . S
C151 C150 1.362 . S
H152 C158 0.930 . S
H153 C161 0.930 . S
H154 C162 0.930 . S
H155 C163 0.930 . S
H156 C166 0.930 . S
H157 C167 0.930 . S
C158 H152 0.930 . S
C158 C159 1.355 . S
C158 C160 1.415 . S
C159 C158 1.355 . S
C159 C161 1.419 1_554 S
C160 C158 1.415 . S
C160 C165 1.425 1_554 S
C160 C167 1.409 1_455 S
C161 H153 0.930 . S
C161 C159 1.419 1_556 S
C161 C162 1.362 . S
C162 H154 0.930 . S
C162 C161 1.362 . S
C162 C165 1.409 . S
C163 H155 0.930 . S
C163 C164 1.355 . S
C163 C165 1.415 1_655 S
C164 C163 1.355 . S
C164 C166 1.419 1_556 S
C165 C160 1.425 1_556 S
C165 C162 1.409 . S
C165 C163 1.415 1_455 S
C166 H156 0.930 . S
C166 C164 1.419 1_554 S
C166 C167 1.362 . S
C167 H157 0.930 . S
C167 C160 1.409 1_655 S
C167 C166 1.362 . S
H168 C174 0.930 . S
H169 C177 0.930 . S
H170 C178 0.930 1_565 S
H171 C179 0.930 . S
H172 C182 0.930 . S
H173 C183 0.930 1_545 S
C174 H168 0.930 . S
C174 C175 1.355 . S
C174 C176 1.415 . S
C175 C174 1.355 . S
C175 C177 1.419 . S
C176 C174 1.415 . S
C176 C181 1.425 1_545 S
C176 C183 1.409 1_545 S
C177 H169 0.930 . S
C177 C175 1.419 . S
C177 C178 1.362 . S
C178 H170 0.930 1_545 S
C178 C177 1.362 . S
C178 C181 1.409 1_545 S
C179 H171 0.930 . S
C179 C180 1.355 . S
C179 C181 1.415 . S
C180 C179 1.355 . S
C180 C182 1.419 . S
C181 C176 1.425 1_565 S
C181 C178 1.409 1_565 S
C181 C179 1.415 . S
C182 H172 0.930 . S
C182 C180 1.419 . S
C182 C183 1.362 . S
C183 H173 0.930 1_565 S
C183 C176 1.409 1_565 S
C183 C182 1.362 . S
C63 C5 1.579 . S
C68 C39 1.543 . S
C79 C25 1.550 . S
C84 C47 1.571 . S
C95 C11 1.416 . S
C100 C42 1.452 . S
C111 C28 1.626 . S
C116 C19 1.646 . S
C127 C51 1.528 . S
C132 C9 1.528 . S
C143 C14 1.649 . S
C148 C33 1.624 . S
C159 C0 1.457 . S
C164 C53 1.449 . S
C175 C23 1.584 . S
C180 C37 1.577 . S
