# Generated by pormake.
# Topology sml, (6)-cn, num edge types: 1
# Building blocks:
#     Node 0, Type 0, BuildingBlock: UKALOJ_clean_sbu_0, # of connection points: 6
#     Node 1, Type 0, BuildingBlock: UKALOJ_clean_sbu_0, # of connection points: 6
#     Node 2, Type 0, BuildingBlock: UKALOJ_clean_sbu_0, # of connection points: 6
#     Node 3, Type 0, BuildingBlock: UKALOJ_clean_sbu_0, # of connection points: 6
#     Node 4, Type 0, BuildingBlock: UKALOJ_clean_sbu_0, # of connection points: 6
#     Node 5, Type 0, BuildingBlock: UKALOJ_clean_sbu_0, # of connection points: 6
#     Edge 6, Type (0, 0), None
#     Edge 7, Type (0, 0), None
#     Edge 8, Type (0, 0), None
#     Edge 9, Type (0, 0), None
#     Edge 10, Type (0, 0), None
#     Edge 11, Type (0, 0), None
#     Edge 12, Type (0, 0), None
#     Edge 13, Type (0, 0), None
#     Edge 14, Type (0, 0), None
#     Edge 15, Type (0, 0), None
#     Edge 16, Type (0, 0), None
#     Edge 17, Type (0, 0), None
#     Edge 18, Type (0, 0), None
#     Edge 19, Type (0, 0), None
#     Edge 20, Type (0, 0), None
#     Edge 21, Type (0, 0), None
#     Edge 22, Type (0, 0), None
#     Edge 23, Type (0, 0), None
# Relax obj value: 0.594
# Max RMSD: 0.301
# Mean RMSD: 0.301
data_MOF--net-sml--node1-UKALOJ_clean_sbu_0--edge1-none
_symmetry_space_group_name_H-M    P1
_symmetry_Int_Tables_number       1
_symmetry_cell_setting            triclinic
loop_
_symmetry_equiv_pos_as_xyz
'x, y, z'
_cell_length_a     16.393285
_cell_length_b     15.542816
_cell_length_c     10.292386
_cell_angle_alpha  89.930108
_cell_angle_beta   89.971531
_cell_angle_gamma 119.05432
loop_
_atom_site_label
_atom_site_type_symbol
_atom_site_fract_x
_atom_site_fract_y
_atom_site_fract_z
_atom_type_partial_charge
Zn0 Zn 0.1829 0.35999 0.17041 0.0
O1 O 0.1672 0.46806 0.26489 0.0
C2 C -0.05011 0.26436 0.15702 0.0
Zn3 Zn 0.0412 0.36611 0.92825 0.0
C4 C 0.12037 0.50482 0.21521 0.0
O5 O 0.08291 0.47673 0.1019 0.0
C6 C 0.1718 0.24833 0.94869 0.0
O7 O 0.16055 0.46543 0.82755 0.0
O8 O 0.24747 0.46333 0.99 0.0
N9 N 0.00039 0.27194 0.77375 0.0
C10 C 0.01936 0.30787 0.6566 0.0
C11 C 0.00126 0.25272 0.70787 0.0
N12 N -0.03108 0.17528 0.79113 0.0
N13 N 0.01489 0.24208 0.574 0.0
C14 C 0.15072 0.31219 0.44198 0.0
C15 C 0.11337 0.25548 0.39401 0.0
N16 N 0.13063 0.27227 0.32735 0.0
N17 N 0.06358 0.17802 0.31474 0.0
N18 N 0.09807 0.24832 0.53009 0.0
H19 H 0.29839 0.43067 0.40174 0.0
H20 H 0.27201 0.40136 0.57314 0.0
H21 H 0.23148 0.47313 0.48934 0.0
C22 C 0.24494 0.41132 0.47907 0.0
C23 C 0.04351 0.41709 0.61261 0.0
H24 H 0.02691 0.4552 0.69052 0.0
H25 H 0.00375 0.41242 0.52375 0.0
H26 H 0.11778 0.46231 0.59099 0.0
O27 O 0.12383 0.29081 0.92876 0.0
O28 O 0.19259 0.24463 0.06616 0.0
C29 C 0.24063 0.49477 0.87645 0.0
O30 O 0.03722 0.30019 0.1622 0.0
O31 O -0.08111 0.2618 1.04334 0.0
Zn32 Zn 0.67116 0.1097 0.32114 0.0
O33 O 0.67699 0.23743 0.24001 0.0
C34 C 0.88366 0.22579 0.27355 0.0
Zn35 Zn 0.74786 0.2071 0.48786 0.0
C36 C 0.70936 0.32159 0.2895 0.0
O37 O 0.74137 0.33414 0.40514 0.0
C38 C 0.69445 -0.00459 0.52952 0.0
O39 O 0.61043 0.14653 0.55807 0.0
O40 O 0.5241 0.05424 0.40247 0.0
N41 N 0.78234 0.26166 0.6854 0.0
C42 C 0.71987 0.23184 0.77741 0.0
C43 C 0.77664 0.24499 0.75644 0.0
N44 N 0.86629 0.31934 0.73013 0.0
N45 N 0.74647 0.20619 0.88531 0.0
C46 C 0.63187 0.10198 1.03749 0.0
C47 C 0.66697 0.07269 0.05419 0.0
N48 N 0.65325 0.05693 0.12792 0.0
N49 N 0.70028 0.01089 0.08993 0.0
N50 N 0.67708 0.11082 0.92594 0.0
H51 H 0.50989 0.09645 0.1414 0.0
H52 H 0.50482 0.10271 0.96685 0.0
H53 H 0.57792 0.21139 0.05721 0.0
C54 C 0.55054 0.13105 1.05221 0.0
C55 C 0.6254 0.23859 0.77709 0.0
H56 H 0.62124 0.28008 0.69189 0.0
H57 H 0.62629 0.27431 0.86876 0.0
H58 H 0.56725 0.16411 0.78273 0.0
O59 O 0.74631 0.08161 0.57186 0.0
O60 O 0.66584 -0.016 0.41187 0.0
C61 C 0.52991 0.08578 0.51955 0.0
O62 O 0.80388 0.1584 0.24606 0.0
O63 O 0.89347 0.26707 0.38571 0.0
Zn64 Zn 0.48942 0.79811 0.79456 0.0
O65 O 0.36163 0.66226 0.84918 0.0
C66 C 0.60753 0.69003 0.84204 0.0
Zn67 Zn 0.47693 0.69762 0.64454 0.0
C68 C 0.32398 0.57451 0.80703 0.0
O69 O 0.35669 0.55968 0.70299 0.0
C70 C 0.63903 0.91571 0.62383 0.0
O71 O 0.38926 0.75115 0.56758 0.0
O72 O 0.3993 0.85811 0.70647 0.0
N73 N 0.47451 0.6569 0.45631 0.0
C74 C 0.44418 0.68897 0.36131 0.0
C75 C 0.49119 0.68924 0.39044 0.0
N76 N 0.55905 0.67135 0.44107 0.0
N77 N 0.51309 0.75102 0.28019 0.0
C78 C 0.47135 0.76252 0.08084 0.0
C79 C 0.48645 0.82381 0.06581 0.0
N80 N 0.48613 0.82794 0.98981 0.0
N81 N 0.48277 0.90716 1.02645 0.0
N82 N 0.47592 0.7969 0.19991 0.0
H83 H 0.36774 0.60414 0.07706 0.0
H84 H 0.47145 0.61683 0.1373 0.0
H85 H 0.45812 0.62334 0.96996 0.0
C86 C 0.443 0.64612 0.06279 0.0
C87 C 0.33392 0.66007 0.34001 0.0
H88 H 0.28951 0.62111 0.42396 0.0
H89 H 0.30803 0.61466 0.25319 0.0
H90 H 0.32791 0.72585 0.3187 0.0
O91 O 0.59549 0.82972 0.5793 0.0
O92 O 0.61293 0.93282 0.73345 0.0
C93 C 0.37128 0.81887 0.59439 0.0
O94 O 0.58454 0.75349 0.87482 0.0
O95 O 0.57341 0.64464 0.73458 0.0
Zn96 Zn 0.77982 0.53793 0.92813 0.0
O97 O 0.66066 0.4383 0.82779 0.0
C98 C 0.64863 0.65505 0.94928 0.0
Zn99 Zn 0.6375 0.54289 0.17052 0.0
C100 C 0.58053 0.40869 0.87688 0.0
O101 O 0.57348 0.43996 0.99031 0.0
C102 C 0.87116 0.63965 0.15677 0.0
O103 O 0.65288 0.43479 0.26505 0.0
O104 O 0.73827 0.42756 0.10233 0.0
N105 N 0.68953 0.63021 0.32724 0.0
C106 C 0.66886 0.5902 0.44188 0.0
C107 C 0.70664 0.64669 0.39395 0.0
N108 N 0.75709 0.72424 0.31464 0.0
N109 N 0.72181 0.65352 0.53002 0.0
C110 C 0.80177 0.59573 0.65602 0.0
C111 C 0.8194 0.65094 0.70706 0.0
N112 N 0.82038 0.63186 0.77299 0.0
N113 N 0.85111 0.72843 0.78974 0.0
N114 N 0.80568 0.66115 0.57309 0.0
H115 H 0.79297 0.4481 0.69208 0.0
H116 H 0.81988 0.49161 0.52599 0.0
H117 H 0.70427 0.44203 0.58761 0.0
C118 C 0.77805 0.48663 0.61278 0.0
C119 C 0.57393 0.49164 0.47908 0.0
H120 H 0.52125 0.47225 0.40081 0.0
H121 H 0.54618 0.50264 0.57195 0.0
H122 H 0.58682 0.42949 0.49208 0.0
O123 O 0.78376 0.60351 0.16247 0.0
O124 O 0.90206 0.6425 1.04286 0.0
C125 C 0.7005 0.39893 0.21553 0.0
O126 O 0.69687 0.61286 0.92944 0.0
O127 O 0.6273 0.65816 0.06665 0.0
Zn128 Zn 0.07391 0.69753 0.48752 0.0
O129 O 0.2112 0.75867 0.55811 0.0
C130 C 0.12732 0.90922 0.52834 0.0
Zn131 Zn 0.15002 0.79444 0.3199 0.0
C132 C 0.29172 0.81854 0.51836 0.0
O133 O 0.29734 0.84896 0.40055 0.0
C134 C -0.06244 0.6785 0.27303 0.0
O135 O 0.14326 0.66627 0.23849 0.0
O136 O 0.08111 0.57056 0.4055 0.0
N137 N 0.16796 0.84758 0.12671 0.0
C138 C 0.18875 0.80236 1.03613 0.0
C139 C 0.1538 0.83149 0.05323 0.0
N140 N 0.12146 0.89421 0.08894 0.0
N141 N 0.14251 0.79272 0.92534 0.0
C142 C 0.10152 0.67151 0.77716 0.0
C143 C 0.04466 0.65915 0.7563 0.0
N144 N 0.03913 0.64288 0.6852 0.0
N145 N -0.04497 0.58511 0.72988 0.0
N146 N 0.07496 0.69647 0.88547 0.0
H147 H 0.19997 0.62371 0.69042 0.0
H148 H 0.19508 0.62899 0.86745 0.0
H149 H 0.25391 0.73928 0.78152 0.0
C150 C 0.19581 0.66482 0.77589 0.0
C151 C 0.26979 0.7727 1.0504 0.0
H152 H 0.31029 0.80671 0.13972 0.0
H153 H 0.31577 0.80142 0.96516 0.0
H154 H 0.24214 0.69231 0.05521 0.0
O155 O 0.01706 0.74663 0.24538 0.0
O156 O -0.07173 0.6369 0.38504 0.0
C157 C 0.11198 0.58249 0.28915 0.0
O158 O 0.07496 0.82301 0.57081 0.0
O159 O 0.15631 0.92055 0.4108 0.0
Zn160 Zn 0.34482 0.20673 0.64445 0.0
O161 O 0.43271 0.15362 0.5679 0.0
C162 C 0.18261 -0.01108 0.62253 0.0
Zn163 Zn 0.33166 0.10594 0.79463 0.0
C164 C 0.45036 0.08568 0.59518 0.0
O165 O 0.42183 0.04609 0.70716 0.0
C166 C 0.21325 0.21371 0.84147 0.0
O167 O 0.45953 0.24128 0.84981 0.0
O168 O 0.46476 0.34423 0.7037 0.0
N169 N 0.33447 0.07627 0.99045 0.0
C170 C 0.34766 0.14121 0.08108 0.0
C171 C 0.33382 0.08071 0.06652 0.0
N172 N 0.33808 -0.00258 1.02816 0.0
N173 N 0.34204 0.1067 0.20078 0.0
C174 C 0.37799 0.21661 0.36058 0.0
C175 C 0.33159 0.21722 0.39103 0.0
N176 N 0.34899 0.24901 0.45673 0.0
N177 N 0.26575 0.23818 0.44198 0.0
N178 N 0.30831 0.15663 0.27963 0.0
H179 H 0.53293 0.28251 0.42011 0.0
H180 H 0.51331 0.28464 0.24849 0.0
H181 H 0.49051 0.17454 0.32028 0.0
C182 C 0.48719 0.2422 0.33799 0.0
C183 C 0.37667 0.25804 0.06159 0.0
H184 H 0.45178 0.29988 0.07692 0.0
H185 H 0.34809 0.28809 0.13483 0.0
H186 H 0.36253 0.28083 0.96806 0.0
O187 O 0.2361 0.15014 0.87435 0.0
O188 O 0.24788 0.25951 0.73417 0.0
C189 C 0.49735 0.3291 0.80757 0.0
O190 O 0.2264 0.07502 0.57782 0.0
O191 O 0.20816 -0.02838 0.73255 0.0
loop_
_geom_bond_atom_site_label_1
_geom_bond_atom_site_label_2
_geom_bond_distance
_geom_bond_site_symmetry_2
_ccdc_geom_bond_type
Zn0 O1 2.055 . S
Zn0 O8 2.046 . S
Zn0 N16 2.036 . S
Zn0 O28 2.053 . S
Zn0 O30 2.066 . S
O1 Zn0 2.055 . S
O1 C4 1.259 . S
C2 O30 1.256 . S
C2 O31 1.244 1_554 S
Zn3 O5 2.046 . S
Zn3 O7 2.055 . S
Zn3 N9 2.036 . S
Zn3 O27 2.066 . S
Zn3 O31 2.053 . S
C4 O1 1.259 . S
C4 O5 1.254 1_554 S
O5 Zn3 2.046 . S
O5 C4 1.254 1_556 S
C6 O27 1.256 . S
C6 O28 1.244 1_556 S
O7 Zn3 2.055 . S
O7 C29 1.259 . S
O8 Zn0 2.046 . S
O8 C29 1.254 1_554 S
N9 Zn3 2.036 . S
N9 C10 1.298 . S
N9 N12 1.398 1_455 S
C10 N9 1.298 . S
C10 N13 1.367 . S
C10 C23 1.481 . S
C11 N12 1.299 . S
C11 N13 1.379 1_655 S
N12 N9 1.398 1_655 S
N12 C11 1.299 . S
N13 C10 1.367 . S
N13 C11 1.379 1_455 S
C14 N16 1.298 . S
C14 N18 1.367 . S
C14 C22 1.481 . S
C15 N17 1.299 . S
C15 N18 1.379 . S
N16 Zn0 2.036 . S
N16 C14 1.298 . S
N16 N17 1.398 . S
N17 C15 1.299 . S
N17 N16 1.398 . S
N18 C14 1.367 . S
N18 C15 1.379 . S
H19 C22 0.980 . S
H20 C22 0.981 . S
H21 C22 0.981 . S
C22 C14 1.481 . S
C22 H19 0.980 . S
C22 H20 0.981 . S
C22 H21 0.981 . S
C23 C10 1.481 . S
C23 H24 0.980 . S
C23 H25 0.981 . S
C23 H26 0.981 . S
H24 C23 0.980 . S
H25 C23 0.981 . S
H26 C23 0.981 . S
O27 Zn3 2.066 . S
O27 C6 1.256 . S
O28 Zn0 2.053 . S
O28 C6 1.244 1_554 S
C29 O7 1.259 . S
C29 O8 1.254 1_556 S
O30 Zn0 2.066 . S
O30 C2 1.256 . S
O31 C2 1.244 1_556 S
O31 Zn3 2.053 . S
Zn32 O33 2.055 . S
Zn32 O40 2.046 . S
Zn32 N48 2.036 . S
Zn32 O60 2.053 . S
Zn32 O62 2.066 . S
O33 Zn32 2.055 . S
O33 C36 1.259 . S
C34 O62 1.256 . S
C34 O63 1.244 . S
Zn35 O37 2.046 . S
Zn35 O39 2.055 . S
Zn35 N41 2.036 . S
Zn35 O59 2.066 . S
Zn35 O63 2.053 . S
C36 O33 1.259 . S
C36 O37 1.254 . S
O37 Zn35 2.046 . S
O37 C36 1.254 . S
C38 O59 1.256 . S
C38 O60 1.244 . S
O39 Zn35 2.055 . S
O39 C61 1.259 . S
O40 Zn32 2.046 . S
O40 C61 1.254 . S
N41 Zn35 2.036 . S
N41 C42 1.298 . S
N41 N44 1.398 1_655 S
C42 N41 1.298 . S
C42 N45 1.367 . S
C42 C55 1.481 . S
C43 N44 1.299 . S
C43 N45 1.379 1_455 S
N44 N41 1.398 1_455 S
N44 C43 1.299 . S
N45 C42 1.367 . S
N45 C43 1.379 1_655 S
C46 N48 1.298 1_556 S
C46 N50 1.367 . S
C46 C54 1.481 . S
C47 N49 1.299 1_556 S
C47 N50 1.379 1_565 S
N48 Zn32 2.036 . S
N48 C46 1.298 1_554 S
N48 N49 1.398 1_545 S
N49 C47 1.299 1_554 S
N49 N48 1.398 1_565 S
N50 C46 1.367 . S
N50 C47 1.379 1_545 S
H51 C54 0.980 . S
H52 C54 0.981 . S
H53 C54 0.981 . S
C54 C46 1.481 . S
C54 H51 0.980 . S
C54 H52 0.981 . S
C54 H53 0.981 . S
C55 C42 1.481 . S
C55 H56 0.980 . S
C55 H57 0.981 . S
C55 H58 0.981 . S
H56 C55 0.980 . S
H57 C55 0.981 . S
H58 C55 0.981 . S
O59 Zn35 2.066 . S
O59 C38 1.256 . S
O60 Zn32 2.053 . S
O60 C38 1.244 . S
C61 O39 1.259 . S
C61 O40 1.254 . S
O62 Zn32 2.066 . S
O62 C34 1.256 . S
O63 C34 1.244 . S
O63 Zn35 2.053 . S
Zn64 O65 2.055 . S
Zn64 O72 2.046 . S
Zn64 N80 2.036 . S
Zn64 O92 2.053 . S
Zn64 O94 2.066 . S
O65 Zn64 2.055 . S
O65 C68 1.259 . S
C66 O94 1.256 . S
C66 O95 1.244 . S
Zn67 O69 2.046 . S
Zn67 O71 2.055 . S
Zn67 N73 2.036 . S
Zn67 O91 2.066 . S
Zn67 O95 2.053 . S
C68 O65 1.259 . S
C68 O69 1.254 . S
O69 Zn67 2.046 . S
O69 C68 1.254 . S
C70 O91 1.256 . S
C70 O92 1.244 . S
O71 Zn67 2.055 . S
O71 C93 1.259 . S
O72 Zn64 2.046 . S
O72 C93 1.254 . S
N73 Zn67 2.036 . S
N73 C74 1.298 . S
N73 N76 1.398 . S
C74 N73 1.298 . S
C74 N77 1.367 . S
C74 C87 1.481 . S
C75 N76 1.299 . S
C75 N77 1.379 . S
N76 N73 1.398 . S
N76 C75 1.299 . S
N77 C74 1.367 . S
N77 C75 1.379 . S
C78 N80 1.298 1_554 S
C78 N82 1.367 . S
C78 C86 1.481 . S
C79 N81 1.299 1_554 S
C79 N82 1.379 1_545 S
N80 Zn64 2.036 . S
N80 C78 1.298 1_556 S
N80 N81 1.398 1_565 S
N81 C79 1.299 1_556 S
N81 N80 1.398 1_545 S
N82 C78 1.367 . S
N82 C79 1.379 1_565 S
H83 C86 0.980 . S
H84 C86 0.981 . S
H85 C86 0.981 . S
C86 C78 1.481 . S
C86 H83 0.980 . S
C86 H84 0.981 . S
C86 H85 0.981 . S
C87 C74 1.481 . S
C87 H88 0.980 . S
C87 H89 0.981 . S
C87 H90 0.981 . S
H88 C87 0.980 . S
H89 C87 0.981 . S
H90 C87 0.981 . S
O91 Zn67 2.066 . S
O91 C70 1.256 . S
O92 Zn64 2.053 . S
O92 C70 1.244 . S
C93 O71 1.259 . S
C93 O72 1.254 . S
O94 Zn64 2.066 . S
O94 C66 1.256 . S
O95 C66 1.244 . S
O95 Zn67 2.053 . S
Zn96 O97 2.055 . S
Zn96 O104 2.046 . S
Zn96 N112 2.036 . S
Zn96 O124 2.053 . S
Zn96 O126 2.066 . S
O97 Zn96 2.055 . S
O97 C100 1.259 . S
C98 O126 1.256 . S
C98 O127 1.244 1_556 S
Zn99 O101 2.046 . S
Zn99 O103 2.055 . S
Zn99 N105 2.036 . S
Zn99 O123 2.066 . S
Zn99 O127 2.053 . S
C100 O97 1.259 . S
C100 O101 1.254 1_556 S
O101 Zn99 2.046 . S
O101 C100 1.254 1_554 S
C102 O123 1.256 . S
C102 O124 1.244 1_554 S
O103 Zn99 2.055 . S
O103 C125 1.259 . S
O104 Zn96 2.046 . S
O104 C125 1.254 1_556 S
N105 Zn99 2.036 . S
N105 C106 1.298 . S
N105 N108 1.398 . S
C106 N105 1.298 . S
C106 N109 1.367 . S
C106 C119 1.481 . S
C107 N108 1.299 . S
C107 N109 1.379 . S
N108 N105 1.398 . S
N108 C107 1.299 . S
N109 C106 1.367 . S
N109 C107 1.379 . S
C110 N112 1.298 . S
C110 N114 1.367 . S
C110 C118 1.481 . S
C111 N113 1.299 . S
C111 N114 1.379 1_455 S
N112 Zn96 2.036 . S
N112 C110 1.298 . S
N112 N113 1.398 1_655 S
N113 C111 1.299 . S
N113 N112 1.398 1_455 S
N114 C110 1.367 . S
N114 C111 1.379 1_655 S
H115 C118 0.980 . S
H116 C118 0.981 . S
H117 C118 0.981 . S
C118 C110 1.481 . S
C118 H115 0.980 . S
C118 H116 0.981 . S
C118 H117 0.981 . S
C119 C106 1.481 . S
C119 H120 0.980 . S
C119 H121 0.981 . S
C119 H122 0.981 . S
H120 C119 0.980 . S
H121 C119 0.981 . S
H122 C119 0.981 . S
O123 Zn99 2.066 . S
O123 C102 1.256 . S
O124 Zn96 2.053 . S
O124 C102 1.244 1_556 S
C125 O103 1.259 . S
C125 O104 1.254 1_554 S
O126 Zn96 2.066 . S
O126 C98 1.256 . S
O127 C98 1.244 1_554 S
O127 Zn99 2.053 . S
Zn128 O129 2.055 . S
Zn128 O136 2.046 . S
Zn128 N144 2.036 . S
Zn128 O156 2.053 . S
Zn128 O158 2.066 . S
O129 Zn128 2.055 . S
O129 C132 1.259 . S
C130 O158 1.256 . S
C130 O159 1.244 . S
Zn131 O133 2.046 . S
Zn131 O135 2.055 . S
Zn131 N137 2.036 . S
Zn131 O155 2.066 . S
Zn131 O159 2.053 . S
C132 O129 1.259 . S
C132 O133 1.254 . S
O133 Zn131 2.046 . S
O133 C132 1.254 . S
C134 O155 1.256 . S
C134 O156 1.244 . S
O135 Zn131 2.055 . S
O135 C157 1.259 . S
O136 Zn128 2.046 . S
O136 C157 1.254 . S
N137 Zn131 2.036 . S
N137 C138 1.298 1_554 S
N137 N140 1.398 1_565 S
C138 N137 1.298 1_556 S
C138 N141 1.367 . S
C138 C151 1.481 . S
C139 N140 1.299 1_556 S
C139 N141 1.379 1_545 S
N140 N137 1.398 1_545 S
N140 C139 1.299 1_554 S
N141 C138 1.367 . S
N141 C139 1.379 1_565 S
C142 N144 1.298 . S
C142 N146 1.367 . S
C142 C150 1.481 . S
C143 N145 1.299 . S
C143 N146 1.379 1_655 S
N144 Zn128 2.036 . S
N144 C142 1.298 . S
N144 N145 1.398 1_455 S
N145 C143 1.299 . S
N145 N144 1.398 1_655 S
N146 C142 1.367 . S
N146 C143 1.379 1_455 S
H147 C150 0.980 . S
H148 C150 0.981 . S
H149 C150 0.981 . S
C150 C142 1.481 . S
C150 H147 0.980 . S
C150 H148 0.981 . S
C150 H149 0.981 . S
C151 C138 1.481 . S
C151 H152 0.980 . S
C151 H153 0.981 . S
C151 H154 0.981 . S
H152 C151 0.980 . S
H153 C151 0.981 . S
H154 C151 0.981 . S
O155 Zn131 2.066 . S
O155 C134 1.256 . S
O156 Zn128 2.053 . S
O156 C134 1.244 . S
C157 O135 1.259 . S
C157 O136 1.254 . S
O158 Zn128 2.066 . S
O158 C130 1.256 . S
O159 C130 1.244 . S
O159 Zn131 2.053 . S
Zn160 O161 2.055 . S
Zn160 O168 2.046 . S
Zn160 N176 2.036 . S
Zn160 O188 2.053 . S
Zn160 O190 2.066 . S
O161 Zn160 2.055 . S
O161 C164 1.259 . S
C162 O190 1.256 . S
C162 O191 1.244 . S
Zn163 O165 2.046 . S
Zn163 O167 2.055 . S
Zn163 N169 2.036 . S
Zn163 O187 2.066 . S
Zn163 O191 2.053 . S
C164 O161 1.259 . S
C164 O165 1.254 . S
O165 Zn163 2.046 . S
O165 C164 1.254 . S
C166 O187 1.256 . S
C166 O188 1.244 . S
O167 Zn163 2.055 . S
O167 C189 1.259 . S
O168 Zn160 2.046 . S
O168 C189 1.254 . S
N169 Zn163 2.036 . S
N169 C170 1.298 1_556 S
N169 N172 1.398 1_545 S
C170 N169 1.298 1_554 S
C170 N173 1.367 . S
C170 C183 1.481 . S
C171 N172 1.299 1_554 S
C171 N173 1.379 1_565 S
N172 N169 1.398 1_565 S
N172 C171 1.299 1_556 S
N173 C170 1.367 . S
N173 C171 1.379 1_545 S
C174 N176 1.298 . S
C174 N178 1.367 . S
C174 C182 1.481 . S
C175 N177 1.299 . S
C175 N178 1.379 . S
N176 Zn160 2.036 . S
N176 C174 1.298 . S
N176 N177 1.398 . S
N177 C175 1.299 . S
N177 N176 1.398 . S
N178 C174 1.367 . S
N178 C175 1.379 . S
H179 C182 0.980 . S
H180 C182 0.981 . S
H181 C182 0.981 . S
C182 C174 1.481 . S
C182 H179 0.980 . S
C182 H180 0.981 . S
C182 H181 0.981 . S
C183 C170 1.481 . S
C183 H184 0.980 . S
C183 H185 0.981 . S
C183 H186 0.981 . S
H184 C183 0.980 . S
H185 C183 0.981 . S
H186 C183 0.981 . S
O187 Zn163 2.066 . S
O187 C166 1.256 . S
O188 Zn160 2.053 . S
O188 C166 1.244 . S
C189 O167 1.259 . S
C189 O168 1.254 . S
O190 Zn160 2.066 . S
O190 C162 1.256 . S
O191 C162 1.244 . S
O191 Zn163 2.053 . S
C166 C6 1.823 . S
C2 C34 1.823 1_455 S
C38 C70 1.823 1_545 S
C66 C98 1.823 . S
C134 C102 1.823 1_455 S
C162 C130 1.823 1_545 S
N13 N18 4.695 . S
N50 N45 4.695 . S
N77 N82 4.695 . S
N114 N109 4.695 . S
N146 N141 4.695 . S
N178 N173 4.695 . S
C4 C157 2.165 . S
C61 C164 2.165 . S
C29 C68 2.165 . S
C36 C125 2.165 . S
C132 C93 2.165 . S
C100 C189 2.165 . S
