# Generated by pormake.
# Topology sxc, (6)-cn, num edge types: 1
# Building blocks:
#     Node 0, Type 0, BuildingBlock: MIFKUJ_clean_sbu_0, # of connection points: 6
#     Node 1, Type 0, BuildingBlock: MIFKUJ_clean_sbu_0, # of connection points: 6
#     Node 2, Type 0, BuildingBlock: MIFKUJ_clean_sbu_0, # of connection points: 6
#     Edge 3, Type (0, 0), BuildingBlock: EZIPEK_clean_linker_0, # of connection points: 2
#     Edge 4, Type (0, 0), BuildingBlock: EZIPEK_clean_linker_0, # of connection points: 2
#     Edge 5, Type (0, 0), BuildingBlock: EZIPEK_clean_linker_0, # of connection points: 2
#     Edge 6, Type (0, 0), BuildingBlock: EZIPEK_clean_linker_0, # of connection points: 2
#     Edge 7, Type (0, 0), BuildingBlock: EZIPEK_clean_linker_0, # of connection points: 2
#     Edge 8, Type (0, 0), BuildingBlock: EZIPEK_clean_linker_0, # of connection points: 2
#     Edge 9, Type (0, 0), BuildingBlock: EZIPEK_clean_linker_0, # of connection points: 2
#     Edge 10, Type (0, 0), BuildingBlock: EZIPEK_clean_linker_0, # of connection points: 2
#     Edge 11, Type (0, 0), BuildingBlock: EZIPEK_clean_linker_0, # of connection points: 2
# Relax obj value: 0.019
# Max RMSD: 0.066
# Mean RMSD: 0.047
data_MOF--net-sxc--node1-MIFKUJ_clean_sbu_0--edge1-EZIPEK_clean_linker_0
_symmetry_space_group_name_H-M    P1
_symmetry_Int_Tables_number       1
_symmetry_cell_setting            triclinic
loop_
_symmetry_equiv_pos_as_xyz
'x, y, z'
_cell_length_a     14.698966
_cell_length_b     13.577275
_cell_length_c     30.191024
_cell_angle_alpha  92.335973
_cell_angle_beta   98.774012
_cell_angle_gamma 117.6341
loop_
_atom_site_label
_atom_site_type_symbol
_atom_site_fract_x
_atom_site_fract_y
_atom_site_fract_z
_atom_type_partial_charge
Zn0 Zn 0.93435 0.86315 -0.00534 0.0
Zn1 Zn 0.1492 0.17728 0.00866 0.0
C2 C -0.01247 0.69339 -0.00273 0.0
O3 O 0.90764 0.65343 0.96323 0.0
C4 C 0.15313 0.38829 0.03034 0.0
O5 O 0.24855 0.41897 0.05197 0.0
O6 O 0.78547 0.74334 0.98552 0.0
O7 O 0.9577 0.99183 0.03717 0.0
O8 O 0.12573 0.09907 0.06324 0.0
C9 C 0.73391 0.7075 0.01667 0.0
O10 O 0.77437 0.7576 0.05835 0.0
O11 O 0.02041 0.79077 0.01767 0.0
C12 C 0.33142 0.31462 0.97593 0.0
O13 O 0.25706 0.30289 0.94275 0.0
O14 O 0.30374 0.2651 0.0101 0.0
O15 O 0.07851 0.08312 0.94875 0.0
O16 O 0.96002 0.90355 0.93422 0.0
O17 O 0.09563 0.28868 0.01084 0.0
C18 C 0.0362 0.02814 0.06919 0.0
C19 C 0.0179 0.99575 0.9211 0.0
Zn20 Zn 0.08441 0.97443 0.33964 0.0
Zn21 Zn 0.8751 0.05453 0.32261 0.0
C22 C 0.03977 0.75402 0.36185 0.0
O23 O 0.10106 0.81298 0.40012 0.0
C24 C 0.93107 0.28805 0.31883 0.0
O25 O 0.85336 0.2427 0.28402 0.0
O26 O 0.23678 0.01668 0.35088 0.0
O27 O 0.05967 0.02664 0.2804 0.0
O28 O 0.89739 0.003 0.26473 0.0
C29 C 0.27263 0.0005 0.31717 0.0
O30 O 0.21177 0.9644 0.27703 0.0
O31 O 0.01241 0.80343 0.33178 0.0
C32 C 0.69285 0.06294 0.33774 0.0
O33 O 0.75791 0.12668 0.37443 0.0
O34 O 0.72428 0.01855 0.3101 0.0
O35 O 0.88913 0.97616 0.37547 0.0
O36 O 0.05987 0.03745 0.39466 0.0
O37 O 0.96155 0.22551 0.3396 0.0
C38 C -0.01984 0.01435 0.25263 0.0
C39 C -0.02766 0.01365 0.40507 0.0
Zn40 Zn 0.11598 0.0871 0.65616 0.0
Zn41 Zn 0.78409 0.93571 0.65282 0.0
C42 C 0.24404 0.97742 0.66409 0.0
O43 O 0.21057 0.94765 0.7018 0.0
C44 C 0.62479 0.99197 0.63109 0.0
O45 O 0.61934 0.93342 0.59423 0.0
O46 O 0.20542 0.25175 0.65695 0.0
O47 O -0.02647 0.03022 0.62272 0.0
O48 O 0.81213 0.9595 0.5896 0.0
C49 C 0.26092 0.28367 0.62678 0.0
O50 O 0.24702 0.21084 0.59304 0.0
O51 O 0.20104 0.01959 0.63702 0.0
C52 C 0.61209 0.72734 0.66634 0.0
O53 O 0.59351 0.79351 0.6921 0.0
O54 O 0.69292 0.76812 0.64858 0.0
O55 O 0.92088 0.99071 0.70039 0.0
O56 O 0.09252 0.05894 0.71805 0.0
O57 O 0.69561 0.00749 0.66479 0.0
C58 C 0.90732 0.00278 0.58671 0.0
C59 C 0.00443 0.02428 0.73013 0.0
C60 C 0.11024 0.50915 0.98025 0.0
C61 C 0.11761 0.47292 0.0235 0.0
C62 C 0.04561 0.58864 0.05149 0.0
C63 C 0.04238 0.62771 0.00866 0.0
N64 N 0.09614 0.64877 0.93662 0.0
N65 N 0.10837 0.48967 0.10233 0.0
C66 C 0.08201 0.59488 0.97432 0.0
C67 C 0.09111 0.51709 0.05992 0.0
N68 N 0.12832 0.46039 0.94449 0.0
N69 N 0.00011 0.61474 0.08309 0.0
H70 H 0.13635 0.43289 0.10925 0.0
H71 H 0.1015 0.52841 0.13118 0.0
H72 H 0.96649 0.66721 0.07823 0.0
H73 H -0.0108 0.57877 0.11293 0.0
H74 H 0.11103 0.47314 0.91115 0.0
H75 H 0.15341 0.40055 0.94753 0.0
H76 H 0.13484 0.63671 0.91248 0.0
H77 H 0.07892 0.71443 0.93171 0.0
C78 C 0.41332 0.95782 0.35393 0.0
C79 C 0.38018 0.01602 0.3229 0.0
C80 C 0.54342 0.08264 0.2948 0.0
C81 C 0.58259 0.03886 0.33028 0.0
N82 N 0.55803 0.94053 0.39599 0.0
N83 N 0.42136 0.15093 0.26952 0.0
C84 C 0.51872 0.97891 0.36081 0.0
C85 C 0.44728 0.08309 0.29482 0.0
N86 N 0.34279 0.87706 0.37462 0.0
N87 N 0.59647 0.12185 0.26059 0.0
H88 H 0.35303 0.15658 0.26972 0.0
H89 H 0.47261 0.21019 0.25208 0.0
H90 H 0.665 0.11898 0.25827 0.0
H91 H 0.5661 0.14493 0.23182 0.0
H92 H 0.36007 0.82378 0.39385 0.0
H93 H 0.2638 0.85496 0.36866 0.0
H94 H 0.51947 0.90926 0.42251 0.0
H95 H 0.63175 0.94523 0.40002 0.0
C96 C 0.52103 0.52938 0.68351 0.0
C97 C 0.53123 0.60901 0.65313 0.0
C98 C 0.36503 0.47432 0.60457 0.0
C99 C 0.355 0.39464 0.6349 0.0
N100 N 0.43491 0.33471 0.69637 0.0
N101 N 0.4785 0.6494 0.57944 0.0
C102 C 0.43631 0.41879 0.67251 0.0
C103 C 0.45808 0.57889 0.6119 0.0
N104 N 0.59222 0.55979 0.72297 0.0
N105 N 0.28399 0.45164 0.56978 0.0
H106 H 0.547 0.72532 0.58331 0.0
H107 H 0.43322 0.62806 0.54704 0.0
H108 H 0.21544 0.37512 0.56308 0.0
H109 H 0.28118 0.51093 0.54962 0.0
H110 H 0.58213 0.51095 0.74936 0.0
H111 H 0.66013 0.63672 0.7299 0.0
H112 H 0.49709 0.34424 0.7211 0.0
H113 H 0.37534 0.25198 0.68866 0.0
C114 C 0.53584 0.06834 0.67744 0.0
C115 C 0.53592 0.01435 0.63624 0.0
C116 C 0.34683 0.9404 0.61361 0.0
C117 C 0.34395 0.98444 0.6564 0.0
N118 N 0.43645 0.09614 0.7292 0.0
N119 N 0.45246 0.96094 0.55748 0.0
C120 C 0.43871 0.05015 0.68848 0.0
C121 C 0.44466 0.96823 0.60187 0.0
N122 N 0.62902 0.1466 0.70327 0.0
N123 N 0.2559 0.86865 0.58458 0.0
H124 H 0.52438 -0.00183 0.54718 0.0
H125 H 0.3888 0.93528 0.53092 0.0
H126 H 0.18209 0.84342 0.59235 0.0
H127 H 0.25427 0.82535 0.55489 0.0
H128 H 0.63615 0.19552 0.73232 0.0
H129 H 0.69975 0.17386 0.69224 0.0
H130 H 0.49935 0.1299 0.75635 0.0
H131 H 0.37074 0.09829 0.7369 0.0
C132 C 0.55483 0.59738 0.96969 0.0
C133 C 0.63244 0.60324 0.00549 0.0
C134 C 0.52322 0.40375 0.01175 0.0
C135 C 0.4428 0.40189 0.97843 0.0
N136 N 0.4112 0.47652 0.90983 0.0
N137 N 0.69646 0.51116 0.05891 0.0
C138 C 0.46664 0.49249 0.95251 0.0
C139 C 0.61853 0.50595 0.02609 0.0
N140 N 0.56324 0.69277 0.95302 0.0
N141 N 0.51121 0.30518 0.02638 0.0
H142 H 0.77051 0.58071 0.06739 0.0
H143 H 0.68813 0.44807 0.0789 0.0
H144 H 0.44833 0.22793 0.01168 0.0
H145 H 0.56694 0.29701 0.04929 0.0
H146 H 0.50312 0.69404 0.93015 0.0
H147 H 0.62534 0.7723 0.96548 0.0
H148 H 0.43035 0.53892 0.88859 0.0
H149 H 0.35884 0.39707 0.89279 0.0
C150 C 0.96383 0.44817 0.37553 0.0
C151 C -0.02248 0.41047 0.33371 0.0
C152 C 0.04587 0.60193 0.31319 0.0
C153 C 0.01678 0.63522 0.35169 0.0
N154 N 0.93655 0.58554 0.41702 0.0
N155 N 0.03157 0.45089 0.26226 0.0
C156 C -0.02652 0.55732 0.3824 0.0
C157 C 0.01832 0.48738 0.30241 0.0
N158 N 0.94238 0.38052 0.40897 0.0
N159 N 0.10537 0.68056 0.28833 0.0
H160 H 0.02555 0.37202 0.25575 0.0
H161 H 0.04525 0.49726 0.23508 0.0
H162 H 0.13046 0.76556 0.29579 0.0
H163 H 0.13878 0.66353 0.26302 0.0
H164 H 0.94221 0.40772 0.44169 0.0
H165 H 0.93592 0.3009 0.40576 0.0
H166 H 0.89259 0.5283 0.43717 0.0
H167 H 0.94142 0.66399 0.4231 0.0
C168 C -0.02858 0.09217 0.17939 0.0
C169 C -0.01493 0.01222 0.20443 0.0
C170 C 0.04022 0.94939 0.14175 0.0
C171 C 0.01865 0.02278 0.11555 0.0
N172 N 0.95297 0.15579 0.10647 0.0
N173 N 0.00638 0.84629 0.20598 0.0
C174 C -0.02006 0.09096 0.13334 0.0
C175 C 0.01181 0.93521 0.18459 0.0
N176 N 0.95681 0.17349 0.20025 0.0
N177 N 0.09053 0.89587 0.12634 0.0
H178 H -0.01779 0.83101 0.23689 0.0
H179 H 0.0155 0.7817 0.19106 0.0
H180 H 0.11442 0.90616 0.09531 0.0
H181 H 0.11741 0.85002 0.14608 0.0
H182 H 0.95762 0.24122 0.18502 0.0
H183 H 0.95268 0.17897 0.23427 0.0
H184 H 0.91187 0.19581 0.11583 0.0
H185 H 0.96605 0.16479 0.07355 0.0
C186 C 0.91467 0.90781 0.46957 0.0
C187 C 0.96465 0.01217 0.45283 0.0
C188 C -0.01638 0.11274 0.52551 0.0
C189 C 0.93703 0.00845 0.54249 0.0
N190 N 0.8791 0.80986 0.53523 0.0
N191 N 0.06066 0.21439 0.46526 0.0
C192 C 0.90874 0.90679 0.51584 0.0
C193 C 0.00425 0.115 0.48107 0.0
N194 N 0.87092 0.80974 0.44109 0.0
N195 N 0.00292 0.20842 0.55099 0.0
H196 H 0.07344 0.21953 0.43219 0.0
H197 H 0.10033 0.29148 0.48553 0.0
H198 H -0.00806 0.21022 0.58429 0.0
H199 H 0.02323 0.28452 0.53834 0.0
H200 H 0.82086 0.7323 0.44998 0.0
H201 H 0.87962 0.80591 0.40753 0.0
H202 H 0.86806 0.73521 0.51869 0.0
H203 H 0.87484 0.80637 0.56936 0.0
C204 C 0.91334 0.94091 0.79502 0.0
C205 C 0.00197 0.0204 0.77903 0.0
C206 C 0.1039 0.06896 0.85559 0.0
C207 C 0.01203 0.00333 0.87229 0.0
N208 N 0.82211 0.90789 0.85724 0.0
N209 N 0.16829 0.19183 0.79998 0.0
C210 C 0.91414 0.94886 0.84193 0.0
C211 C 0.09348 0.09456 0.81103 0.0
N212 N 0.83127 0.85377 0.76686 0.0
N213 N 0.20095 0.10332 0.88107 0.0
H214 H 0.15821 0.22201 0.7694 0.0
H215 H 0.23292 0.24965 0.82377 0.0
H216 H 0.2125 0.07835 0.91273 0.0
H217 H 0.26917 0.14567 0.86821 0.0
H218 H 0.76953 0.79201 0.7791 0.0
H219 H 0.83122 0.83372 0.73326 0.0
H220 H 0.74971 0.8756 0.83543 0.0
H221 H 0.81852 0.91918 0.89116 0.0
loop_
_geom_bond_atom_site_label_1
_geom_bond_atom_site_label_2
_geom_bond_distance
_geom_bond_site_symmetry_2
_ccdc_geom_bond_type
Zn0 O6 1.969 . S
Zn0 O7 1.965 1_556 S
Zn0 O11 2.024 1_656 S
Zn0 O16 1.969 . S
Zn1 O8 1.969 . S
Zn1 O14 1.969 . S
Zn1 O15 1.965 1_554 S
Zn1 O17 2.024 1_554 S
C2 O3 1.229 1_455 S
C2 O11 1.058 1_556 S
O3 C2 1.229 1_655 S
C4 O5 1.229 . S
C4 O17 1.058 1_554 S
O5 C4 1.229 . S
O6 Zn0 1.969 . S
O6 C9 1.267 1_556 S
O7 Zn0 1.965 1_554 S
O7 C18 1.260 1_665 S
O8 Zn1 1.969 . S
O8 C18 1.258 . S
C9 O6 1.267 1_554 S
C9 O10 1.228 . S
O10 C9 1.228 . S
O11 Zn0 2.024 1_454 S
O11 C2 1.058 1_554 S
C12 O13 1.228 . S
C12 O14 1.267 1_556 S
O13 C12 1.228 . S
O14 Zn1 1.969 . S
O14 C12 1.267 1_554 S
O15 Zn1 1.965 1_556 S
O15 C19 1.260 1_545 S
O16 Zn0 1.969 . S
O16 C19 1.258 1_655 S
O17 Zn1 2.024 1_556 S
O17 C4 1.058 1_556 S
C18 O7 1.260 1_445 S
C18 O8 1.258 . S
C19 O15 1.260 1_565 S
C19 O16 1.258 1_455 S
Zn20 O26 1.969 1_565 S
Zn20 O27 1.965 1_565 S
Zn20 O31 2.024 . S
Zn20 O36 1.969 . S
Zn21 O28 1.969 . S
Zn21 O34 1.969 . S
Zn21 O35 1.965 . S
Zn21 O37 2.024 1_655 S
C22 O23 1.229 . S
C22 O31 1.058 . S
O23 C22 1.229 . S
C24 O25 1.229 . S
C24 O37 1.058 1_655 S
O25 C24 1.229 . S
O26 Zn20 1.969 1_545 S
O26 C29 1.267 . S
O27 Zn20 1.965 1_545 S
O27 C38 1.260 . S
O28 Zn21 1.969 . S
O28 C38 1.258 1_655 S
C29 O26 1.267 . S
C29 O30 1.228 1_545 S
O30 C29 1.228 1_565 S
O31 Zn20 2.024 . S
O31 C22 1.058 . S
C32 O33 1.228 . S
C32 O34 1.267 . S
O33 C32 1.228 . S
O34 Zn21 1.969 . S
O34 C32 1.267 . S
O35 Zn21 1.965 . S
O35 C39 1.260 1_655 S
O36 Zn20 1.969 . S
O36 C39 1.258 1_565 S
O37 Zn21 2.024 1_455 S
O37 C24 1.058 1_455 S
C38 O27 1.260 . S
C38 O28 1.258 1_455 S
C39 O35 1.260 1_455 S
C39 O36 1.258 1_545 S
Zn40 O46 1.969 . S
Zn40 O47 1.965 . S
Zn40 O51 2.024 . S
Zn40 O56 1.969 . S
Zn41 O48 1.969 . S
Zn41 O54 1.969 . S
Zn41 O55 1.965 . S
Zn41 O57 2.024 1_565 S
C42 O43 1.229 . S
C42 O51 1.058 . S
O43 C42 1.229 . S
C44 O45 1.229 1_545 S
C44 O57 1.058 . S
O45 C44 1.229 1_565 S
O46 Zn40 1.969 . S
O46 C49 1.267 . S
O47 Zn40 1.965 . S
O47 C58 1.260 1_455 S
O48 Zn41 1.969 . S
O48 C58 1.258 1_565 S
C49 O46 1.267 . S
C49 O50 1.228 . S
O50 C49 1.228 . S
O51 Zn40 2.024 . S
O51 C42 1.058 . S
C52 O53 1.228 . S
C52 O54 1.267 . S
O53 C52 1.228 . S
O54 Zn41 1.969 . S
O54 C52 1.267 . S
O55 Zn41 1.965 . S
O55 C59 1.260 1_665 S
O56 Zn40 1.969 . S
O56 C59 1.258 . S
O57 Zn41 2.024 1_545 S
O57 C44 1.058 . S
C58 O47 1.260 1_655 S
C58 O48 1.258 1_545 S
C59 O55 1.260 1_445 S
C59 O56 1.258 . S
C60 C61 1.363 1_556 S
C60 C66 1.379 . S
C60 N68 1.356 . S
C61 C60 1.363 1_554 S
C61 C67 1.363 . S
C62 C63 1.363 . S
C62 C67 1.379 . S
C62 N69 1.356 . S
C63 C62 1.363 . S
C63 C66 1.363 1_554 S
N64 C66 1.356 . S
N64 H76 0.984 . S
N64 H77 0.985 . S
N65 C67 1.356 . S
N65 H70 0.984 . S
N65 H71 0.985 . S
C66 C60 1.379 . S
C66 C63 1.363 1_556 S
C66 N64 1.356 . S
C67 C61 1.363 . S
C67 C62 1.379 . S
C67 N65 1.356 . S
N68 C60 1.356 . S
N68 H74 0.984 1_455 S
N68 H75 0.984 . S
N69 C62 1.356 . S
N69 H72 0.984 . S
N69 H73 0.985 . S
H70 N65 0.984 . S
H71 N65 0.985 . S
H72 N69 0.984 . S
H73 N69 0.985 . S
H74 N68 0.984 1_655 S
H75 N68 0.984 . S
H76 N64 0.984 . S
H77 N64 0.985 . S
C78 C79 1.363 1_565 S
C78 C84 1.379 . S
C78 N86 1.356 . S
C79 C78 1.363 1_545 S
C79 C85 1.363 . S
C80 C81 1.363 . S
C80 C85 1.379 . S
C80 N87 1.356 . S
C81 C80 1.363 . S
C81 C84 1.363 1_545 S
N82 C84 1.356 . S
N82 H94 0.984 . S
N82 H95 0.985 . S
N83 C85 1.356 . S
N83 H88 0.984 . S
N83 H89 0.985 . S
C84 C78 1.379 . S
C84 C81 1.363 1_565 S
C84 N82 1.356 . S
C85 C79 1.363 . S
C85 C80 1.379 . S
C85 N83 1.356 . S
N86 C78 1.356 . S
N86 H92 0.984 . S
N86 H93 0.984 . S
N87 C80 1.356 . S
N87 H90 0.984 . S
N87 H91 0.985 . S
H88 N83 0.984 . S
H89 N83 0.985 . S
H90 N87 0.984 . S
H91 N87 0.985 . S
H92 N86 0.984 . S
H93 N86 0.984 . S
H94 N82 0.984 . S
H95 N82 0.985 . S
C96 C97 1.363 . S
C96 C102 1.379 . S
C96 N104 1.356 . S
C97 C96 1.363 . S
C97 C103 1.363 . S
C98 C99 1.363 . S
C98 C103 1.379 . S
C98 N105 1.356 . S
C99 C98 1.363 . S
C99 C102 1.363 . S
N100 C102 1.356 . S
N100 H112 0.984 . S
N100 H113 0.985 . S
N101 C103 1.356 . S
N101 H106 0.984 . S
N101 H107 0.985 . S
C102 C96 1.379 . S
C102 C99 1.363 . S
C102 N100 1.356 . S
C103 C97 1.363 . S
C103 C98 1.379 . S
C103 N101 1.356 . S
N104 C96 1.356 . S
N104 H110 0.984 . S
N104 H111 0.984 . S
N105 C98 1.356 . S
N105 H108 0.984 . S
N105 H109 0.985 . S
H106 N101 0.984 . S
H107 N101 0.985 . S
H108 N105 0.984 . S
H109 N105 0.985 . S
H110 N104 0.984 . S
H111 N104 0.984 . S
H112 N100 0.984 . S
H113 N100 0.985 . S
C114 C115 1.363 . S
C114 C120 1.379 . S
C114 N122 1.356 . S
C115 C114 1.363 . S
C115 C121 1.363 1_545 S
C116 C117 1.363 1_565 S
C116 C121 1.379 . S
C116 N123 1.356 . S
C117 C116 1.363 1_545 S
C117 C120 1.363 . S
N118 C120 1.356 . S
N118 H130 0.984 . S
N118 H131 0.985 . S
N119 C121 1.356 . S
N119 H124 0.984 . S
N119 H125 0.985 . S
C120 C114 1.379 . S
C120 C117 1.363 . S
C120 N118 1.356 . S
C121 C115 1.363 1_565 S
C121 C116 1.379 . S
C121 N119 1.356 . S
N122 C114 1.356 . S
N122 H128 0.984 . S
N122 H129 0.984 . S
N123 C116 1.356 . S
N123 H126 0.984 . S
N123 H127 0.985 . S
H124 N119 0.984 . S
H125 N119 0.985 . S
H126 N123 0.984 . S
H127 N123 0.985 . S
H128 N122 0.984 . S
H129 N122 0.984 . S
H130 N118 0.984 . S
H131 N118 0.985 . S
C132 C133 1.363 1_556 S
C132 C138 1.379 . S
C132 N140 1.356 . S
C133 C132 1.363 1_554 S
C133 C139 1.363 . S
C134 C135 1.363 . S
C134 C139 1.379 . S
C134 N141 1.356 . S
C135 C134 1.363 . S
C135 C138 1.363 1_554 S
N136 C138 1.356 . S
N136 H148 0.984 . S
N136 H149 0.985 . S
N137 C139 1.356 . S
N137 H142 0.984 . S
N137 H143 0.985 . S
C138 C132 1.379 . S
C138 C135 1.363 1_556 S
C138 N136 1.356 . S
C139 C133 1.363 . S
C139 C134 1.379 . S
C139 N137 1.356 . S
N140 C132 1.356 . S
N140 H146 0.984 . S
N140 H147 0.984 . S
N141 C134 1.356 . S
N141 H144 0.984 . S
N141 H145 0.985 . S
H142 N137 0.984 . S
H143 N137 0.985 . S
H144 N141 0.984 . S
H145 N141 0.985 . S
H146 N140 0.984 . S
H147 N140 0.984 . S
H148 N136 0.984 . S
H149 N136 0.985 . S
C150 C151 1.363 1_655 S
C150 C156 1.379 . S
C150 N158 1.356 . S
C151 C150 1.363 1_455 S
C151 C157 1.363 . S
C152 C153 1.363 . S
C152 C157 1.379 . S
C152 N159 1.356 . S
C153 C152 1.363 . S
C153 C156 1.363 1_455 S
N154 C156 1.356 . S
N154 H166 0.984 . S
N154 H167 0.985 . S
N155 C157 1.356 . S
N155 H160 0.984 . S
N155 H161 0.985 . S
C156 C150 1.379 . S
C156 C153 1.363 1_655 S
C156 N154 1.356 . S
C157 C151 1.363 . S
C157 C152 1.379 . S
C157 N155 1.356 . S
N158 C150 1.356 . S
N158 H164 0.984 . S
N158 H165 0.984 . S
N159 C152 1.356 . S
N159 H162 0.984 . S
N159 H163 0.985 . S
H160 N155 0.984 . S
H161 N155 0.985 . S
H162 N159 0.984 . S
H163 N159 0.985 . S
H164 N158 0.984 . S
H165 N158 0.984 . S
H166 N154 0.984 . S
H167 N154 0.985 . S
C168 C169 1.363 . S
C168 C174 1.379 . S
C168 N176 1.356 . S
C169 C168 1.363 . S
C169 C175 1.363 1_545 S
C170 C171 1.363 1_565 S
C170 C175 1.379 . S
C170 N177 1.356 . S
C171 C170 1.363 1_545 S
C171 C174 1.363 . S
N172 C174 1.356 . S
N172 H184 0.984 . S
N172 H185 0.985 . S
N173 C175 1.356 . S
N173 H178 0.984 . S
N173 H179 0.985 . S
C174 C168 1.379 . S
C174 C171 1.363 . S
C174 N172 1.356 . S
C175 C169 1.363 1_565 S
C175 C170 1.379 . S
C175 N173 1.356 . S
N176 C168 1.356 . S
N176 H182 0.984 1_455 S
N176 H183 0.984 1_455 S
N177 C170 1.356 . S
N177 H180 0.984 . S
N177 H181 0.985 . S
H178 N173 0.984 . S
H179 N173 0.985 . S
H180 N177 0.984 . S
H181 N177 0.985 . S
H182 N176 0.984 1_655 S
H183 N176 0.984 1_655 S
H184 N172 0.984 . S
H185 N172 0.985 . S
C186 C187 1.363 1_665 S
C186 C192 1.379 . S
C186 N194 1.356 . S
C187 C186 1.363 1_445 S
C187 C193 1.363 . S
C188 C189 1.363 . S
C188 C193 1.379 . S
C188 N195 1.356 . S
C189 C188 1.363 . S
C189 C192 1.363 1_445 S
N190 C192 1.356 . S
N190 H202 0.984 . S
N190 H203 0.985 . S
N191 C193 1.356 . S
N191 H196 0.984 . S
N191 H197 0.985 . S
C192 C186 1.379 . S
C192 C189 1.363 1_665 S
C192 N190 1.356 . S
C193 C187 1.363 . S
C193 C188 1.379 . S
C193 N191 1.356 . S
N194 C186 1.356 . S
N194 H200 0.984 . S
N194 H201 0.984 . S
N195 C188 1.356 . S
N195 H198 0.984 . S
N195 H199 0.985 . S
H196 N191 0.984 . S
H197 N191 0.985 . S
H198 N195 0.984 . S
H199 N195 0.985 . S
H200 N194 0.984 . S
H201 N194 0.984 . S
H202 N190 0.984 . S
H203 N190 0.985 . S
C204 C205 1.363 1_665 S
C204 C210 1.379 . S
C204 N212 1.356 . S
C205 C204 1.363 1_445 S
C205 C211 1.363 . S
C206 C207 1.363 . S
C206 C211 1.379 . S
C206 N213 1.356 . S
C207 C206 1.363 . S
C207 C210 1.363 1_445 S
N208 C210 1.356 . S
N208 H220 0.984 . S
N208 H221 0.985 . S
N209 C211 1.356 . S
N209 H214 0.984 . S
N209 H215 0.985 . S
C210 C204 1.379 . S
C210 C207 1.363 1_665 S
C210 N208 1.356 . S
C211 C205 1.363 . S
C211 C206 1.379 . S
C211 N209 1.356 . S
N212 C204 1.356 . S
N212 H218 0.984 . S
N212 H219 0.984 . S
N213 C206 1.356 . S
N213 H216 0.984 . S
N213 H217 0.985 . S
H214 N209 0.984 . S
H215 N209 0.985 . S
H216 N213 0.984 . S
H217 N213 0.985 . S
H218 N212 0.984 . S
H219 N212 0.984 . S
H220 N208 0.984 . S
H221 N208 0.985 . S
C61 C4 1.423 . S
C63 C2 1.423 1_554 S
C79 C29 1.127 . S
C81 C32 1.127 . S
C97 C52 1.287 . S
C99 C49 1.287 . S
C115 C44 1.586 . S
C117 C42 1.586 . S
C133 C9 1.276 . S
C135 C12 1.276 1_554 S
C151 C24 1.425 1_455 S
C153 C22 1.425 . S
C169 C38 1.489 . S
C171 C18 1.480 . S
C187 C39 1.483 . S
C189 C58 1.492 1_455 S
C205 C59 1.486 . S
C207 C19 1.495 1_545 S
