# Generated by pormake.
# Topology svk, (7)-cn, num edge types: 1
# Building blocks:
#     Node 0, Type 0, BuildingBlock: HICVOG_clean_sbu_0, # of connection points: 7
#     Node 1, Type 0, BuildingBlock: HICVOG_clean_sbu_0, # of connection points: 7
#     Node 2, Type 0, BuildingBlock: HICVOG_clean_sbu_0, # of connection points: 7
#     Node 3, Type 0, BuildingBlock: HICVOG_clean_sbu_0, # of connection points: 7
#     Edge 4, Type (0, 0), None
#     Edge 5, Type (0, 0), None
#     Edge 6, Type (0, 0), None
#     Edge 7, Type (0, 0), None
#     Edge 8, Type (0, 0), None
#     Edge 9, Type (0, 0), None
#     Edge 10, Type (0, 0), None
#     Edge 11, Type (0, 0), None
#     Edge 12, Type (0, 0), None
#     Edge 13, Type (0, 0), None
#     Edge 14, Type (0, 0), None
#     Edge 15, Type (0, 0), None
#     Edge 16, Type (0, 0), None
#     Edge 17, Type (0, 0), None
# Relax obj value: 0.300
# Max RMSD: 0.271
# Mean RMSD: 0.271
data_MOF--net-svk--node1-HICVOG_clean_sbu_0--edge1-none
_symmetry_space_group_name_H-M    P1
_symmetry_Int_Tables_number       1
_symmetry_cell_setting            triclinic
loop_
_symmetry_equiv_pos_as_xyz
'x, y, z'
_cell_length_a     7.1807556
_cell_length_b     24.581355
_cell_length_c     12.532176
_cell_angle_alpha  89.941457
_cell_angle_beta   89.999907
_cell_angle_gamma 89.99992
loop_
_atom_site_label
_atom_site_type_symbol
_atom_site_fract_x
_atom_site_fract_y
_atom_site_fract_z
_atom_type_partial_charge
Zn0 Zn 0.27496 0.34785 0.1135 0.0
C1 C 1.00742 0.23856 0.97043 0.0
N2 N 1.15714 0.20446 0.99048 0.0
C3 C 0.30677 0.23852 0.01078 0.0
N4 N 0.24302 0.29039 0.00854 0.0
N5 N 1.07088 0.29046 0.97303 0.0
C6 C 0.74821 0.37423 0.96911 0.0
O7 O 0.88508 0.37662 0.03685 0.0
O8 O 0.53913 0.36041 0.10904 0.0
Zn9 Zn 1.0399 0.34796 0.86783 0.0
N10 N 1.15167 0.32549 0.24689 0.0
C11 C 0.86372 0.29712 0.32487 0.0
C12 C 0.97348 0.30726 0.23557 0.0
C13 C 0.22759 0.3308 0.3459 0.0
N14 N 0.93825 0.30315 0.42329 0.0
C15 C 1.11787 0.31913 0.43669 0.0
O16 O 1.12664 0.42585 0.90346 0.0
C17 C 0.15756 0.45106 -0.0094 0.0
O18 O 0.1884 0.42576 0.07776 0.0
H19 H 0.91454 0.30094 0.15789 0.0
H20 H 0.37015 0.34454 0.35388 0.0
C21 C 1.0874 0.33088 0.63553 0.0
C22 C 0.19703 0.31912 0.5448 0.0
C23 C 0.45104 0.297 0.65671 0.0
C24 C 0.34131 0.30719 0.74596 0.0
N25 N 0.16327 0.32554 0.73457 0.0
N26 N 0.37656 0.30305 0.55826 0.0
H27 H 0.94491 0.34469 0.62748 0.0
C28 C 0.56642 0.37413 0.01193 0.0
O29 O 0.42946 0.37646 0.94423 0.0
O30 O 0.77572 0.36058 0.87204 0.0
H31 H 0.40019 0.30081 0.82366 0.0
H32 H 0.72112 0.2836 0.31602 0.0
H33 H 0.59354 0.28339 0.66564 0.0
Zn34 Zn 0.27496 0.6138 0.8677 0.0
C35 C 1.00742 0.72309 0.01076 0.0
N36 N 1.15714 0.75719 -0.00928 0.0
C37 C 0.30677 0.72313 0.97042 0.0
N38 N 0.24302 0.67125 0.97265 0.0
N39 N 1.07088 0.67119 0.00816 0.0
C40 C 0.74821 0.58742 0.01209 0.0
O41 O 0.88508 0.58503 0.94434 0.0
O42 O 0.53913 0.60124 0.87216 0.0
Zn43 Zn 1.0399 0.61368 0.11336 0.0
N44 N 1.15167 0.63615 0.73431 0.0
C45 C 0.86372 0.66452 0.65632 0.0
C46 C 0.97348 0.65439 0.74562 0.0
C47 C 0.22759 0.63084 0.63529 0.0
N48 N 0.93825 0.6585 0.5579 0.0
C49 C 1.11787 0.64252 0.54451 0.0
O50 O 1.12664 0.5358 0.07774 0.0
C51 C 0.15756 0.51059 -0.0094 0.0
O52 O 0.1884 0.53589 0.90344 0.0
H53 H 0.91454 0.66071 0.8233 0.0
H54 H 0.37015 0.61711 0.62732 0.0
C55 C 1.0874 0.63077 0.34567 0.0
C56 C 0.19703 0.64253 0.4364 0.0
C57 C 0.45104 0.66465 0.32448 0.0
C58 C 0.34131 0.65446 0.23523 0.0
N59 N 0.16327 0.6361 0.24663 0.0
N60 N 0.37656 0.6586 0.42293 0.0
H61 H 0.94491 0.61696 0.35371 0.0
C62 C 0.56642 0.58752 0.96926 0.0
O63 O 0.42946 0.58519 0.03696 0.0
O64 O 0.77572 0.60107 0.10915 0.0
H65 H 0.40019 0.66084 0.15753 0.0
H66 H 0.72112 0.67805 0.66518 0.0
H67 H 0.59354 0.67825 0.31556 0.0
Zn68 Zn 0.77498 0.84785 0.11348 0.0
C69 C 0.5074 0.73856 0.97052 0.0
N70 N 0.65714 0.70445 0.99046 0.0
C71 C 0.80679 0.73852 0.01065 0.0
N72 N 0.74303 0.7904 0.00851 0.0
N73 N 0.57087 0.79047 0.97303 0.0
C74 C 0.2482 0.87423 0.9691 0.0
O75 O 0.38508 0.87663 0.03684 0.0
O76 O 1.03914 0.86041 0.10903 0.0
Zn77 Zn 0.53988 0.84797 0.86782 0.0
N78 N 0.65167 0.82549 0.24687 0.0
C79 C 0.36371 0.79713 0.32486 0.0
C80 C 0.47348 0.80726 0.23556 0.0
C81 C 0.72759 0.8308 0.34589 0.0
N82 N 0.43824 0.80315 0.42328 0.0
C83 C 0.61787 0.81912 0.43667 0.0
O84 O 0.62662 0.92585 0.90345 0.0
C85 C 0.65755 0.95106 -0.0094 0.0
O86 O 0.68841 0.92576 0.07775 0.0
H87 H 0.41452 0.80094 0.15788 0.0
H88 H 0.87016 0.84453 0.35386 0.0
C89 C 0.58738 0.83087 0.63551 0.0
C90 C 0.69702 0.81912 0.54479 0.0
C91 C 0.95104 0.79701 0.6567 0.0
C92 C 0.84131 0.8072 0.74595 0.0
N93 N 0.66326 0.82555 0.73456 0.0
N94 N 0.87656 0.80305 0.55825 0.0
H95 H 0.44489 0.84468 0.62747 0.0
C96 C 1.06642 0.87413 0.01193 0.0
O97 O 0.92946 0.87647 0.94423 0.0
O98 O 0.27571 0.86058 0.87203 0.0
H99 H 0.90019 0.80083 0.82365 0.0
H100 H 0.22111 0.78361 0.316 0.0
H101 H 1.09355 0.78341 0.66562 0.0
Zn102 Zn 0.77498 0.1138 0.86771 0.0
C103 C 0.5074 0.22309 0.01068 0.0
N104 N 0.65714 0.2572 -0.00926 0.0
C105 C 0.80679 0.22312 0.97054 0.0
N106 N 0.74303 0.17125 0.97269 0.0
N107 N 0.57087 0.17118 0.00816 0.0
C108 C 0.2482 0.08742 0.0121 0.0
O109 O 0.38508 0.08502 0.94435 0.0
O110 O 1.03914 0.10124 0.87217 0.0
Zn111 Zn 0.53988 0.11368 0.11337 0.0
N112 N 0.65168 0.13616 0.73433 0.0
C113 C 0.36371 0.16452 0.65634 0.0
C114 C 0.47348 0.15439 0.74564 0.0
C115 C 0.72759 0.13085 0.63531 0.0
N116 N 0.43824 0.1585 0.55792 0.0
C117 C 0.61787 0.14252 0.54452 0.0
O118 O 0.62662 0.0358 0.07774 0.0
C119 C 0.65755 0.01059 -0.0094 0.0
O120 O 0.68841 0.03589 0.90345 0.0
H121 H 0.41452 0.16071 0.82331 0.0
H122 H 0.87016 0.11711 0.62733 0.0
C123 C 0.58738 0.13078 0.34568 0.0
C124 C 0.69702 0.14253 0.43641 0.0
C125 C 0.95104 0.16464 0.32449 0.0
C126 C 0.84131 0.15445 0.23524 0.0
N127 N 0.66326 0.1361 0.24664 0.0
N128 N 0.87656 0.15859 0.42294 0.0
H129 H 0.44489 0.11697 0.35373 0.0
C130 C 1.06642 0.08752 0.96927 0.0
O131 O 0.92946 0.08518 0.03697 0.0
O132 O 0.27571 0.10107 0.10916 0.0
H133 H 0.90019 0.16082 0.15754 0.0
H134 H 0.22111 0.17804 0.66519 0.0
H135 H 1.09355 0.17824 0.31557 0.0
loop_
_geom_bond_atom_site_label_1
_geom_bond_atom_site_label_2
_geom_bond_distance
_geom_bond_site_symmetry_2
_ccdc_geom_bond_type
Zn0 N4 2.020 . S
Zn0 O8 2.019 . S
Zn0 N10 2.119 . S
Zn0 O18 1.975 . S
C1 N2 1.334 1_656 S
C1 N5 1.336 . S
N2 C1 1.334 1_454 S
N2 C3 1.334 . S
C3 N2 1.334 . S
C3 N4 1.336 . S
N4 Zn0 2.020 . S
N4 C3 1.336 . S
N4 N5 1.354 1_454 S
N5 C1 1.336 . S
N5 N4 1.354 1_656 S
N5 Zn9 2.020 . S
C6 O7 1.244 1_556 S
C6 O30 1.257 . S
O7 C6 1.244 1_554 S
O8 Zn0 2.019 . S
O8 C28 1.257 . S
Zn9 N5 2.020 . S
Zn9 O16 1.975 . S
Zn9 N25 2.119 . S
Zn9 O30 2.019 . S
N10 Zn0 2.119 . S
N10 C12 1.334 1_455 S
N10 C13 1.328 . S
C11 C12 1.391 . S
C11 N14 1.329 1_655 S
C11 H32 0.930 . S
C12 N10 1.334 1_655 S
C12 C11 1.391 . S
C12 H19 0.930 . S
C13 N10 1.328 . S
C13 C15 1.392 . S
C13 H20 0.930 . S
N14 C11 1.329 1_455 S
N14 C15 1.331 . S
C15 C13 1.392 . S
C15 N14 1.331 . S
O16 Zn9 1.975 . S
O16 C17 1.252 1_656 S
C17 O16 1.252 1_454 S
C17 O18 1.252 . S
O18 Zn0 1.975 . S
O18 C17 1.252 . S
H19 C12 0.930 . S
H20 C13 0.930 . S
C21 C22 1.392 . S
C21 N25 1.328 . S
C21 H27 0.930 . S
C22 C21 1.392 . S
C22 N26 1.331 . S
C23 C24 1.391 . S
C23 N26 1.329 1_455 S
C23 H33 0.930 . S
C24 C23 1.391 . S
C24 N25 1.334 1_455 S
C24 H31 0.930 . S
N25 Zn9 2.119 . S
N25 C21 1.328 . S
N25 C24 1.334 1_655 S
N26 C22 1.331 . S
N26 C23 1.329 1_655 S
H27 C21 0.930 . S
C28 O8 1.257 . S
C28 O29 1.244 1_554 S
O29 C28 1.244 1_556 S
O30 C6 1.257 . S
O30 Zn9 2.019 . S
H31 C24 0.930 . S
H32 C11 0.930 . S
H33 C23 0.930 . S
Zn34 N38 2.020 . S
Zn34 O42 2.019 . S
Zn34 N44 2.119 . S
Zn34 O52 1.975 . S
C35 N36 1.334 1_655 S
C35 N39 1.336 . S
N36 C35 1.334 1_455 S
N36 C37 1.334 1_554 S
C37 N36 1.334 1_556 S
C37 N38 1.336 . S
N38 Zn34 2.020 . S
N38 C37 1.336 . S
N38 N39 1.354 1_456 S
N39 C35 1.336 . S
N39 N38 1.354 1_654 S
N39 Zn43 2.020 . S
C40 O41 1.244 1_554 S
C40 O64 1.257 . S
O41 C40 1.244 1_556 S
O42 Zn34 2.019 . S
O42 C62 1.257 . S
Zn43 N39 2.020 . S
Zn43 O50 1.975 . S
Zn43 N59 2.119 . S
Zn43 O64 2.019 . S
N44 Zn34 2.119 . S
N44 C46 1.334 1_455 S
N44 C47 1.328 . S
C45 C46 1.391 . S
C45 N48 1.329 1_655 S
C45 H66 0.930 . S
C46 N44 1.334 1_655 S
C46 C45 1.391 . S
C46 H53 0.930 . S
C47 N44 1.328 . S
C47 C49 1.392 . S
C47 H54 0.930 . S
N48 C45 1.329 1_455 S
N48 C49 1.331 . S
C49 C47 1.392 . S
C49 N48 1.331 . S
O50 Zn43 1.975 . S
O50 C51 1.252 1_655 S
C51 O50 1.252 1_455 S
C51 O52 1.252 1_554 S
O52 Zn34 1.975 . S
O52 C51 1.252 1_556 S
H53 C46 0.930 . S
H54 C47 0.930 . S
C55 C56 1.392 . S
C55 N59 1.328 . S
C55 H61 0.930 . S
C56 C55 1.392 . S
C56 N60 1.331 . S
C57 C58 1.391 . S
C57 N60 1.329 1_455 S
C57 H67 0.930 . S
C58 C57 1.391 . S
C58 N59 1.334 1_455 S
C58 H65 0.930 . S
N59 Zn43 2.119 . S
N59 C55 1.328 . S
N59 C58 1.334 1_655 S
N60 C56 1.331 . S
N60 C57 1.329 1_655 S
H61 C55 0.930 . S
C62 O42 1.257 . S
C62 O63 1.244 1_556 S
O63 C62 1.244 1_554 S
O64 C40 1.257 . S
O64 Zn43 2.019 . S
H65 C58 0.930 . S
H66 C45 0.930 . S
H67 C57 0.930 . S
Zn68 N72 2.020 . S
Zn68 O76 2.019 . S
Zn68 N78 2.119 . S
Zn68 O86 1.975 . S
C69 N70 1.334 1_556 S
C69 N73 1.336 . S
N70 C69 1.334 1_554 S
N70 C71 1.334 . S
C71 N70 1.334 . S
C71 N72 1.336 . S
N72 Zn68 2.020 . S
N72 C71 1.336 . S
N72 N73 1.354 1_554 S
N73 C69 1.336 . S
N73 N72 1.354 1_556 S
N73 Zn77 2.020 . S
C74 O75 1.244 1_556 S
C74 O98 1.257 . S
O75 C74 1.244 1_554 S
O76 Zn68 2.019 . S
O76 C96 1.257 . S
Zn77 N73 2.020 . S
Zn77 O84 1.975 . S
Zn77 N93 2.119 . S
Zn77 O98 2.019 . S
N78 Zn68 2.119 . S
N78 C80 1.334 . S
N78 C81 1.328 . S
C79 C80 1.391 . S
C79 N82 1.329 . S
C79 H100 0.930 . S
C80 N78 1.334 . S
C80 C79 1.391 . S
C80 H87 0.930 . S
C81 N78 1.328 . S
C81 C83 1.392 . S
C81 H88 0.930 . S
N82 C79 1.329 . S
N82 C83 1.331 . S
C83 C81 1.392 . S
C83 N82 1.331 . S
O84 Zn77 1.975 . S
O84 C85 1.252 1_556 S
C85 O84 1.252 1_554 S
C85 O86 1.252 . S
O86 Zn68 1.975 . S
O86 C85 1.252 . S
H87 C80 0.930 . S
H88 C81 0.930 . S
C89 C90 1.392 . S
C89 N93 1.328 . S
C89 H95 0.930 . S
C90 C89 1.392 . S
C90 N94 1.331 . S
C91 C92 1.391 . S
C91 N94 1.329 . S
C91 H101 0.930 . S
C92 C91 1.391 . S
C92 N93 1.334 . S
C92 H99 0.930 . S
N93 Zn77 2.119 . S
N93 C89 1.328 . S
N93 C92 1.334 . S
N94 C90 1.331 . S
N94 C91 1.329 . S
H95 C89 0.930 . S
C96 O76 1.257 . S
C96 O97 1.244 1_554 S
O97 C96 1.244 1_556 S
O98 C74 1.257 . S
O98 Zn77 2.019 . S
H99 C92 0.930 . S
H100 C79 0.930 . S
H101 C91 0.930 . S
Zn102 N106 2.020 . S
Zn102 O110 2.019 . S
Zn102 N112 2.119 . S
Zn102 O120 1.975 . S
C103 N104 1.334 . S
C103 N107 1.336 . S
N104 C103 1.334 . S
N104 C105 1.334 1_554 S
C105 N104 1.334 1_556 S
C105 N106 1.336 . S
N106 Zn102 2.020 . S
N106 C105 1.336 . S
N106 N107 1.354 1_556 S
N107 C103 1.336 . S
N107 N106 1.354 1_554 S
N107 Zn111 2.020 . S
C108 O109 1.244 1_554 S
C108 O132 1.257 . S
O109 C108 1.244 1_556 S
O110 Zn102 2.019 . S
O110 C130 1.257 . S
Zn111 N107 2.020 . S
Zn111 O118 1.975 . S
Zn111 N127 2.119 . S
Zn111 O132 2.019 . S
N112 Zn102 2.119 . S
N112 C114 1.334 . S
N112 C115 1.328 . S
C113 C114 1.391 . S
C113 N116 1.329 . S
C113 H134 0.930 . S
C114 N112 1.334 . S
C114 C113 1.391 . S
C114 H121 0.930 . S
C115 N112 1.328 . S
C115 C117 1.392 . S
C115 H122 0.930 . S
N116 C113 1.329 . S
N116 C117 1.331 . S
C117 C115 1.392 . S
C117 N116 1.331 . S
O118 Zn111 1.975 . S
O118 C119 1.252 . S
C119 O118 1.252 . S
C119 O120 1.252 1_554 S
O120 Zn102 1.975 . S
O120 C119 1.252 1_556 S
H121 C114 0.930 . S
H122 C115 0.930 . S
C123 C124 1.392 . S
C123 N127 1.328 . S
C123 H129 0.930 . S
C124 C123 1.392 . S
C124 N128 1.331 . S
C125 C126 1.391 . S
C125 N128 1.329 . S
C125 H135 0.930 . S
C126 C125 1.391 . S
C126 N127 1.334 . S
C126 H133 0.930 . S
N127 Zn111 2.119 . S
N127 C123 1.328 . S
N127 C126 1.334 . S
N128 C124 1.331 . S
N128 C125 1.329 . S
H129 C123 0.930 . S
C130 O110 1.257 . S
C130 O131 1.244 1_556 S
O131 C130 1.244 1_554 S
O132 C108 1.257 . S
O132 Zn111 2.019 . S
H133 C126 0.930 . S
H134 C113 0.930 . S
H135 C125 0.930 . S
C17 C51 1.580 . S
C119 C85 1.580 1_545 S
C22 C15 3.192 1_655 S
C56 C49 3.192 1_655 S
C90 C83 3.192 . S
C117 C124 3.192 . S
C6 C28 1.547 1_556 S
C40 C62 1.547 1_554 S
C74 C96 1.547 1_456 S
C108 C130 1.547 1_454 S
C103 C3 2.921 . S
C71 C35 2.923 . S
C69 C37 2.921 . S
C105 C1 2.923 . S
