# Generated by pormake.
# Topology cds, (4)-cn, num edge types: 1
# Building blocks:
#     Node 0, Type 0, BuildingBlock: MUDLON_clean_sbu_0, # of connection points: 4
#     Node 1, Type 0, BuildingBlock: MUDLON_clean_sbu_0, # of connection points: 4
#     Edge 2, Type (0, 0), None
#     Edge 3, Type (0, 0), None
#     Edge 4, Type (0, 0), None
#     Edge 5, Type (0, 0), None
# Relax obj value: 0.001
# Max RMSD: 0.016
# Mean RMSD: 0.016
data_MOF--net-cds--node1-MUDLON_clean_sbu_0--edge1-none
_symmetry_space_group_name_H-M    P1
_symmetry_Int_Tables_number       1
_symmetry_cell_setting            triclinic
loop_
_symmetry_equiv_pos_as_xyz
'x, y, z'
_cell_length_a     7.0919964
_cell_length_b     7.0923347
_cell_length_c     14.029488
_cell_angle_alpha  90.79346
_cell_angle_beta   90.72566
_cell_angle_gamma 106.60117
loop_
_atom_site_label
_atom_site_type_symbol
_atom_site_fract_x
_atom_site_fract_y
_atom_site_fract_z
_atom_type_partial_charge
Mg0 Mg 0.92578 0.91399 1.02127 0.0
C1 C 0.27033 0.80302 1.01991 0.0
O2 O 0.30751 0.99547 0.02221 0.0
C3 C 0.43905 0.72234 1.01888 0.0
O4 O 0.41848 0.5324 1.01692 0.0
C5 C 0.95769 1.03478 0.81583 0.0
O6 O 0.81282 0.87147 0.80714 0.0
O7 O 0.02924 0.09389 0.89801 0.0
O8 O 0.09153 0.69809 1.01878 0.0
O9 O 0.03295 0.09054 0.14896 0.0
C10 C 0.96225 1.03029 0.22941 0.0
O11 O 0.81694 0.86729 0.23377 0.0
O12 O 0.60821 0.84716 1.02027 0.0
Mg13 Mg 0.17734 0.16232 0.52527 0.0
C14 C 0.36895 0.64903 0.52762 0.0
O15 O 0.55889 0.66958 0.52949 0.0
C16 C 0.28829 0.81775 0.52662 0.0
O17 O 0.09584 0.7806 0.52437 0.0
C18 C 0.05923 0.12728 0.31727 0.0
O19 O 0.22054 0.27459 0.31285 0.0
O20 O 1.0008 0.05488 0.39764 0.0
O21 O 0.24411 0.47989 0.52627 0.0
O22 O 0.99724 0.05907 0.64854 0.0
C23 C 0.05502 0.1319 0.73066 0.0
O24 O 0.21725 0.27807 0.73938 0.0
O25 O 0.39324 0.99654 0.5277 0.0
loop_
_geom_bond_atom_site_label_1
_geom_bond_atom_site_label_2
_geom_bond_distance
_geom_bond_site_symmetry_2
_ccdc_geom_bond_type
Mg0 O7 2.147 . S
Mg0 O8 2.048 1_655 S
Mg0 O9 2.042 1_556 S
Mg0 O12 2.141 . S
C1 O2 1.312 1_545 S
C1 O8 1.195 1_554 S
O2 C1 1.312 1_565 S
C3 O4 1.245 . S
C3 O12 1.289 1_564 S
O4 C3 1.245 . S
C5 O6 1.245 . S
C5 O7 1.289 1_465 S
O6 C5 1.245 . S
O7 Mg0 2.147 . S
O7 C5 1.289 1_645 S
O8 Mg0 2.048 1_455 S
O8 C1 1.195 1_556 S
O9 Mg0 2.042 1_554 S
O9 C10 1.196 1_655 S
C10 O9 1.196 1_455 S
C10 O11 1.312 1_545 S
O11 C10 1.312 1_565 S
O12 Mg0 2.141 . S
O12 C3 1.289 1_546 S
Mg13 O20 2.141 . S
Mg13 O21 2.048 1_565 S
Mg13 O22 2.048 . S
Mg13 O25 2.141 . S
C14 O15 1.313 . S
C14 O21 1.195 1_455 S
O15 C14 1.313 . S
C16 O17 1.245 . S
C16 O25 1.289 1_455 S
O17 C16 1.245 . S
C18 O19 1.245 . S
C18 O20 1.289 1_445 S
O19 C18 1.245 . S
O20 Mg13 2.141 . S
O20 C18 1.289 1_665 S
O21 Mg13 2.048 1_545 S
O21 C14 1.195 1_655 S
O22 Mg13 2.048 . S
O22 C23 1.195 1_665 S
C23 O22 1.195 1_445 S
C23 O24 1.313 . S
O24 C23 1.313 . S
O25 Mg13 2.141 . S
O25 C16 1.289 1_655 S
C10 C18 1.477 . S
C5 C23 1.492 1_565 S
C3 C1 1.468 1_565 S
C16 C14 1.468 . S
