# Generated by pormake.
# Topology qtz-e, (6)-cn, num edge types: 1
# Building blocks:
#     Node 0, Type 0, BuildingBlock: LEVNOQ01_clean_sbu_1, # of connection points: 6
#     Node 1, Type 0, BuildingBlock: LEVNOQ01_clean_sbu_1, # of connection points: 6
#     Node 2, Type 0, BuildingBlock: LEVNOQ01_clean_sbu_1, # of connection points: 6
#     Node 3, Type 0, BuildingBlock: LEVNOQ01_clean_sbu_1, # of connection points: 6
#     Node 4, Type 0, BuildingBlock: LEVNOQ01_clean_sbu_1, # of connection points: 6
#     Node 5, Type 0, BuildingBlock: LEVNOQ01_clean_sbu_1, # of connection points: 6
#     Edge 6, Type (0, 0), BuildingBlock: EYOCIG_clean_linker_4, # of connection points: 2
#     Edge 7, Type (0, 0), BuildingBlock: EYOCIG_clean_linker_4, # of connection points: 2
#     Edge 8, Type (0, 0), BuildingBlock: EYOCIG_clean_linker_4, # of connection points: 2
#     Edge 9, Type (0, 0), BuildingBlock: EYOCIG_clean_linker_4, # of connection points: 2
#     Edge 10, Type (0, 0), BuildingBlock: EYOCIG_clean_linker_4, # of connection points: 2
#     Edge 11, Type (0, 0), BuildingBlock: EYOCIG_clean_linker_4, # of connection points: 2
#     Edge 12, Type (0, 0), BuildingBlock: EYOCIG_clean_linker_4, # of connection points: 2
#     Edge 13, Type (0, 0), BuildingBlock: EYOCIG_clean_linker_4, # of connection points: 2
#     Edge 14, Type (0, 0), BuildingBlock: EYOCIG_clean_linker_4, # of connection points: 2
#     Edge 15, Type (0, 0), BuildingBlock: EYOCIG_clean_linker_4, # of connection points: 2
#     Edge 16, Type (0, 0), BuildingBlock: EYOCIG_clean_linker_4, # of connection points: 2
#     Edge 17, Type (0, 0), BuildingBlock: EYOCIG_clean_linker_4, # of connection points: 2
#     Edge 18, Type (0, 0), BuildingBlock: EYOCIG_clean_linker_4, # of connection points: 2
#     Edge 19, Type (0, 0), BuildingBlock: EYOCIG_clean_linker_4, # of connection points: 2
#     Edge 20, Type (0, 0), BuildingBlock: EYOCIG_clean_linker_4, # of connection points: 2
#     Edge 21, Type (0, 0), BuildingBlock: EYOCIG_clean_linker_4, # of connection points: 2
#     Edge 22, Type (0, 0), BuildingBlock: EYOCIG_clean_linker_4, # of connection points: 2
#     Edge 23, Type (0, 0), BuildingBlock: EYOCIG_clean_linker_4, # of connection points: 2
# Relax obj value: 0.331
# Max RMSD: 0.227
# Mean RMSD: 0.227
data_MOF--net-qtz-e--node1-LEVNOQ01_clean_sbu_1--edge1-EYOCIG_clean_linker_4
_symmetry_space_group_name_H-M    P1
_symmetry_Int_Tables_number       1
_symmetry_cell_setting            triclinic
loop_
_symmetry_equiv_pos_as_xyz
'x, y, z'
_cell_length_a     23.302702
_cell_length_b     23.313864
_cell_length_c     26.295665
_cell_angle_alpha  89.947492
_cell_angle_beta   90.02113
_cell_angle_gamma 120.01914
loop_
_atom_site_label
_atom_site_type_symbol
_atom_site_fract_x
_atom_site_fract_y
_atom_site_fract_z
_atom_type_partial_charge
O0 O 0.34446 0.52389 0.01043 0.0
Mg1 Mg 0.29962 0.56723 -0.03166 0.0
O2 O 0.26822 0.4154 0.00831 0.0
Mg3 Mg 0.17468 0.40915 -0.03278 0.0
O4 O 0.20491 0.5124 -0.00891 0.0
O5 O 0.26056 0.62021 0.00432 0.0
O6 O 0.08766 0.4131 0.92903 0.0
O7 O 0.10941 0.36454 0.04279 0.0
Mg8 Mg 0.04199 0.26073 0.94431 0.0
O9 O 0.14242 0.30824 0.93375 0.0
O10 O 0.00314 0.31641 0.90506 0.0
O11 O 0.02936 0.261 0.02493 0.0
O12 O 0.08122 0.2068 0.90597 0.0
C13 C 0.27677 0.49683 0.86933 0.0
C14 C 0.32524 0.4639 0.02129 0.0
C15 C 0.20693 0.56415 0.00983 0.0
C16 C 0.03124 0.37923 0.90809 0.0
C17 C 0.0592 0.30874 0.0561 0.0
C18 C 0.13904 0.25862 0.90945 0.0
O19 O 0.30338 0.55386 0.8894 0.0
O20 O 0.23451 0.44499 0.89267 0.0
O21 O 0.74383 0.04107 0.35863 0.0
Mg22 Mg 0.75691 0.05339 0.27803 0.0
O23 O 0.72092 0.12152 0.37647 0.0
Mg24 Mg 0.74245 0.18701 0.30088 0.0
O25 O 0.81045 0.15375 0.26787 0.0
O26 O 0.85014 0.09237 0.23958 0.0
O27 O 0.76763 0.24697 0.22628 0.0
O28 O 0.83028 0.27999 0.3422 0.0
Mg29 Mg 0.71161 0.31319 0.30189 0.0
O30 O 0.66971 0.21813 0.32426 0.0
O31 O 0.72987 0.31766 0.2231 0.0
O32 O 0.79902 0.3569 0.34472 0.0
O33 O 0.61908 0.2755 0.33672 0.0
C34 C 0.62817 0.04404 0.2417 0.0
C35 C 0.72616 0.07113 0.38978 0.0
C36 C 0.85644 0.15026 0.24326 0.0
C37 C 0.75938 0.29012 0.20303 0.0
C38 C 0.83933 0.33708 0.35547 0.0
C39 C 0.62003 0.22111 0.34217 0.0
O40 O 0.66246 0.01546 0.2388 0.0
O41 O 0.65114 0.10052 0.26256 0.0
O42 O 0.42072 0.81441 0.67969 0.0
Mg43 Mg 0.3747 0.72651 0.63756 0.0
O44 O 0.52848 0.84407 0.67561 0.0
Mg45 Mg 0.53125 0.75497 0.6345 0.0
O46 O 0.42752 0.6839 0.65892 0.0
O47 O 0.3199 0.63421 0.67298 0.0
O48 O 0.52428 0.66276 0.59609 0.0
O49 O 0.57562 0.73302 0.70965 0.0
Mg50 Mg 0.67812 0.76702 0.61025 0.0
O51 O 0.63223 0.82149 0.60055 0.0
O52 O 0.61984 0.67267 0.57134 0.0
O53 O 0.67822 0.75411 0.69088 0.0
O54 O 0.73287 0.86006 0.57151 0.0
C55 C 0.44419 0.77275 0.53782 0.0
C56 C 0.48132 0.85424 0.68944 0.0
C57 C 0.37508 0.63455 0.6774 0.0
C58 C 0.55694 0.6391 0.57478 0.0
C59 C 0.63103 0.73732 0.72246 0.0
C60 C 0.68178 0.86715 0.57576 0.0
O61 O 0.3875 0.74423 0.55861 0.0
O62 O 0.49576 0.78028 0.56038 0.0
O63 O 0.89973 0.68912 0.024 0.0
Mg64 Mg 0.88587 0.68754 0.9434 0.0
O65 O 0.81836 0.58681 0.04352 0.0
Mg66 Mg 0.75152 0.54132 -0.03117 0.0
O67 O 0.78537 0.64186 0.93384 0.0
O68 O 0.84801 0.74222 0.90429 0.0
O69 O 0.68979 0.50402 0.89534 0.0
O70 O 0.65995 0.53901 0.01012 0.0
Mg71 Mg 0.62337 0.3844 -0.0255 0.0
O72 O 0.71933 0.43824 -0.00576 0.0
O73 O 0.61697 0.39585 0.89546 0.0
O74 O 0.58229 0.43132 0.01649 0.0
O75 O 0.66264 0.3311 0.00998 0.0
C76 C 0.8927 0.56634 0.90866 0.0
C77 C 0.86951 0.64234 0.05593 0.0
C78 C 0.78966 0.69136 0.90868 0.0
C79 C 0.64515 0.45195 0.87372 0.0
C80 C 0.603 0.49215 0.02504 0.0
C81 C 0.7174 0.38655 0.01307 0.0
O82 O 0.92195 0.62916 0.90479 0.0
O83 O 0.83653 0.53389 0.93029 0.0
O84 O 0.12835 0.59474 0.34908 0.0
Mg85 Mg 0.21645 0.63653 0.30705 0.0
O86 O 0.09751 0.67184 0.34345 0.0
Mg87 Mg 0.1864 0.76389 0.30207 0.0
O88 O 0.25771 0.73218 0.32719 0.0
O89 O 0.30904 0.6763 0.34267 0.0
O90 O 0.27866 0.84925 0.26352 0.0
O91 O 0.20758 0.8305 0.37687 0.0
Mg92 Mg 0.17385 0.89781 0.27695 0.0
O93 O 0.11934 0.79736 0.26713 0.0
O94 O 0.26844 0.9345 0.23826 0.0
O95 O 0.18609 0.91151 0.35751 0.0
O96 O 0.08118 0.85984 0.23805 0.0
C97 C 0.16993 0.65819 0.20663 0.0
C98 C 0.08792 0.61497 0.35806 0.0
C99 C 0.30765 0.73065 0.34609 0.0
C100 C 0.30223 0.90546 0.242 0.0
C101 C 0.20291 0.88144 0.38937 0.0
C102 C 0.07389 0.80158 0.24227 0.0
O103 O 0.19856 0.63051 0.22803 0.0
O104 O 0.16203 0.70235 0.22852 0.0
O105 O 0.25014 0.19759 0.69114 0.0
Mg106 Mg 0.24947 0.18463 0.6105 0.0
O107 O 0.35346 0.22023 0.70906 0.0
Mg108 Mg 0.39764 0.19932 0.63336 0.0
O109 O 0.29639 0.13117 0.60023 0.0
O110 O 0.19515 0.09148 0.5721 0.0
O111 O 0.43289 0.175 0.5587 0.0
O112 O 0.40361 0.11175 0.67425 0.0
Mg113 Mg 0.55581 0.23207 0.63389 0.0
O114 O 0.50112 0.27181 0.65701 0.0
O115 O 0.5418 0.21508 0.55495 0.0
O116 O 0.51208 0.14365 0.67576 0.0
O117 O 0.60897 0.32406 0.67012 0.0
C118 C 0.36861 0.31351 0.57432 0.0
C119 C 0.29782 0.21504 0.72235 0.0
C120 C 0.24677 0.08518 0.57572 0.0
C121 C 0.48457 0.18455 0.53513 0.0
C122 C 0.45209 0.103 0.68684 0.0
C123 C 0.55289 0.32151 0.6758 0.0
O124 O 0.30574 0.27911 0.57123 0.0
O125 O 0.40215 0.29059 0.59527 0.0
C126 C 0.12722 0.60958 0.11642 0.0
C127 C 0.14351 0.63643 0.15698 0.0
C128 C 0.12951 0.57784 0.07202 0.0
C129 C 0.15584 0.56053 0.0415 0.0
C130 C 0.48944 0.14099 0.44519 0.0
C131 C 0.47851 0.15711 0.48569 0.0
C132 C 0.52507 0.14344 0.40165 0.0
C133 C 0.57034 0.16972 0.3724 0.0
C134 C 0.32522 0.50263 0.77922 0.0
C135 C 0.29817 0.49125 0.81976 0.0
C136 C 0.35818 0.53881 0.73581 0.0
C137 C 0.37692 0.58439 0.70689 0.0
C138 C 0.80242 0.33837 0.11295 0.0
C139 C 0.78657 0.3112 0.15345 0.0
C140 C 0.79865 0.37127 0.0697 0.0
C141 C 0.77081 0.38949 0.04132 0.0
C142 C 0.43869 0.81526 0.44754 0.0
C143 C 0.44977 0.79938 0.4881 0.0
C144 C 0.40272 0.81161 0.4039 0.0
C145 C 0.35727 0.78381 0.37501 0.0
C146 C 0.59725 0.44579 0.78314 0.0
C147 C 0.62375 0.45633 0.82386 0.0
C148 C 0.56612 0.412 0.73849 0.0
C149 C 0.5492 0.36863 0.70778 0.0
C150 C 0.43004 0.4674 0.05726 0.0
C151 C 0.37525 0.45335 0.04341 0.0
C152 C 0.4991 0.49238 0.05812 0.0
C153 C 0.554 0.50536 0.04549 0.0
C154 C -0.01539 0.51062 0.39178 0.0
C155 C 0.02607 0.56561 0.3789 0.0
C156 C 0.94088 0.44149 0.39128 0.0
C157 C 0.90011 0.38663 0.37761 0.0
C158 C 0.45563 0.00161 0.72246 0.0
C159 C 0.4415 0.04237 0.70884 0.0
C160 C 0.4808 0.9577 0.72312 0.0
C161 C 0.49408 0.91606 0.7104 0.0
C162 C 0.48461 0.51119 0.5528 0.0
C163 C 0.52145 0.56959 0.56136 0.0
C164 C 0.43961 0.44161 0.55264 0.0
C165 C 0.4031 0.38308 0.56098 0.0
C166 C -0.02668 0.44944 0.88646 0.0
C167 C -0.0043 0.41325 0.89477 0.0
C168 C 0.94839 0.49413 0.88667 0.0
C169 C 0.92669 0.53082 0.89525 0.0
C170 C 0.43031 0.96165 0.22015 0.0
C171 C 0.37183 0.93975 0.22866 0.0
C172 C 0.49999 -0.01336 0.22003 0.0
C173 C 0.55856 0.0089 0.22842 0.0
C174 C 0.26618 0.24473 0.81147 0.0
C175 C 0.28764 0.23283 0.77315 0.0
C176 C 0.23104 0.25666 0.85082 0.0
C177 C 0.19317 0.26298 0.87903 0.0
C178 C 0.95045 0.24211 0.18453 0.0
C179 C 0.90625 0.20435 0.21282 0.0
C180 C -0.00244 0.27712 0.14514 0.0
C181 C 0.03097 0.29851 0.10682 0.0
C182 C 0.68438 0.96205 0.51788 0.0
C183 C 0.6779 0.91752 0.5458 0.0
C184 C 0.69633 0.00944 0.47877 0.0
C185 C 0.70825 0.04301 0.44055 0.0
C186 C 0.66293 0.70708 0.81132 0.0
C187 C 0.64147 0.71934 0.77315 0.0
C188 C 0.69793 0.69461 0.85051 0.0
C189 C 0.73558 0.68773 0.87861 0.0
C190 C -0.02095 0.70997 0.184 0.0
C191 C 0.02352 0.7476 0.21212 0.0
C192 C 0.93173 0.67496 0.14476 0.0
C193 C 0.89809 0.65334 0.10658 0.0
C194 C 0.24447 -0.009 0.51727 0.0
C195 C 0.25091 0.03527 0.5454 0.0
C196 C 0.23243 0.9437 0.47811 0.0
C197 C 0.2205 0.91001 0.44 0.0
loop_
_geom_bond_atom_site_label_1
_geom_bond_atom_site_label_2
_geom_bond_distance
_geom_bond_site_symmetry_2
_ccdc_geom_bond_type
O0 Mg1 1.990 . S
O0 C14 1.253 . S
Mg1 O0 1.990 . S
Mg1 O4 2.180 . S
Mg1 O5 2.117 . S
Mg1 O19 2.030 1_554 S
O2 Mg3 2.072 1_554 S
O2 C14 1.260 . S
Mg3 O2 2.072 1_556 S
Mg3 O4 2.099 1_556 S
Mg3 O6 2.079 . S
Mg3 O7 2.072 1_556 S
Mg3 O9 2.099 . S
Mg3 O20 2.079 . S
O4 Mg1 2.180 . S
O4 Mg3 2.099 1_554 S
O4 C15 1.279 . S
O5 Mg1 2.117 . S
O5 C15 1.250 . S
O6 Mg3 2.079 . S
O6 C16 1.264 . S
O7 Mg3 2.072 1_554 S
O7 C17 1.260 . S
Mg8 O9 2.180 . S
Mg8 O10 2.030 . S
Mg8 O11 1.990 1_556 S
Mg8 O12 2.117 . S
O9 Mg3 2.099 . S
O9 Mg8 2.180 . S
O9 C18 1.279 . S
O10 Mg8 2.030 . S
O10 C16 1.248 . S
O11 Mg8 1.990 1_554 S
O11 C17 1.253 . S
O12 Mg8 2.117 . S
O12 C18 1.250 . S
C13 O19 1.248 . S
C13 O20 1.264 . S
C14 O0 1.253 . S
C14 O2 1.260 . S
C15 O4 1.279 . S
C15 O5 1.250 . S
C16 O6 1.264 . S
C16 O10 1.248 . S
C17 O7 1.260 . S
C17 O11 1.253 . S
C18 O9 1.279 . S
C18 O12 1.250 . S
O19 Mg1 2.030 1_556 S
O19 C13 1.248 . S
O20 Mg3 2.079 . S
O20 C13 1.264 . S
O21 Mg22 1.990 . S
O21 C35 1.253 . S
Mg22 O21 1.990 . S
Mg22 O25 2.180 . S
Mg22 O26 2.117 . S
Mg22 O40 2.030 . S
O23 Mg24 2.072 . S
O23 C35 1.260 . S
Mg24 O23 2.072 . S
Mg24 O25 2.099 . S
Mg24 O27 2.079 . S
Mg24 O28 2.072 . S
Mg24 O30 2.099 . S
Mg24 O41 2.079 . S
O25 Mg22 2.180 . S
O25 Mg24 2.099 . S
O25 C36 1.279 . S
O26 Mg22 2.117 . S
O26 C36 1.250 . S
O27 Mg24 2.079 . S
O27 C37 1.264 . S
O28 Mg24 2.072 . S
O28 C38 1.260 . S
Mg29 O30 2.180 . S
Mg29 O31 2.030 . S
Mg29 O32 1.990 . S
Mg29 O33 2.117 . S
O30 Mg24 2.099 . S
O30 Mg29 2.180 . S
O30 C39 1.279 . S
O31 Mg29 2.030 . S
O31 C37 1.248 . S
O32 Mg29 1.990 . S
O32 C38 1.253 . S
O33 Mg29 2.117 . S
O33 C39 1.250 . S
C34 O40 1.248 . S
C34 O41 1.264 . S
C35 O21 1.253 . S
C35 O23 1.260 . S
C36 O25 1.279 . S
C36 O26 1.250 . S
C37 O27 1.264 . S
C37 O31 1.248 . S
C38 O28 1.260 . S
C38 O32 1.253 . S
C39 O30 1.279 . S
C39 O33 1.250 . S
O40 Mg22 2.030 . S
O40 C34 1.248 . S
O41 Mg24 2.079 . S
O41 C34 1.264 . S
O42 Mg43 1.990 . S
O42 C56 1.253 . S
Mg43 O42 1.990 . S
Mg43 O46 2.180 . S
Mg43 O47 2.117 . S
Mg43 O61 2.030 . S
O44 Mg45 2.072 . S
O44 C56 1.260 . S
Mg45 O44 2.072 . S
Mg45 O46 2.099 . S
Mg45 O48 2.079 . S
Mg45 O49 2.072 . S
Mg45 O51 2.099 . S
Mg45 O62 2.079 . S
O46 Mg43 2.180 . S
O46 Mg45 2.099 . S
O46 C57 1.279 . S
O47 Mg43 2.117 . S
O47 C57 1.250 . S
O48 Mg45 2.079 . S
O48 C58 1.264 . S
O49 Mg45 2.072 . S
O49 C59 1.260 . S
Mg50 O51 2.180 . S
Mg50 O52 2.030 . S
Mg50 O53 1.990 . S
Mg50 O54 2.117 . S
O51 Mg45 2.099 . S
O51 Mg50 2.180 . S
O51 C60 1.279 . S
O52 Mg50 2.030 . S
O52 C58 1.248 . S
O53 Mg50 1.990 . S
O53 C59 1.253 . S
O54 Mg50 2.117 . S
O54 C60 1.250 . S
C55 O61 1.248 . S
C55 O62 1.264 . S
C56 O42 1.253 . S
C56 O44 1.260 . S
C57 O46 1.279 . S
C57 O47 1.250 . S
C58 O48 1.264 . S
C58 O52 1.248 . S
C59 O49 1.260 . S
C59 O53 1.253 . S
C60 O51 1.279 . S
C60 O54 1.250 . S
O61 Mg43 2.030 . S
O61 C55 1.248 . S
O62 Mg45 2.079 . S
O62 C55 1.264 . S
O63 Mg64 1.990 1_554 S
O63 C77 1.253 . S
Mg64 O63 1.990 1_556 S
Mg64 O67 2.180 . S
Mg64 O68 2.117 . S
Mg64 O82 2.030 . S
O65 Mg66 2.072 1_554 S
O65 C77 1.260 . S
Mg66 O65 2.072 1_556 S
Mg66 O67 2.099 . S
Mg66 O69 2.079 . S
Mg66 O70 2.072 1_556 S
Mg66 O72 2.099 1_556 S
Mg66 O83 2.079 . S
O67 Mg64 2.180 . S
O67 Mg66 2.099 . S
O67 C78 1.279 . S
O68 Mg64 2.117 . S
O68 C78 1.250 . S
O69 Mg66 2.079 . S
O69 C79 1.264 . S
O70 Mg66 2.072 1_554 S
O70 C80 1.260 . S
Mg71 O72 2.180 . S
Mg71 O73 2.030 1_554 S
Mg71 O74 1.990 . S
Mg71 O75 2.117 . S
O72 Mg66 2.099 1_554 S
O72 Mg71 2.180 . S
O72 C81 1.279 . S
O73 Mg71 2.030 1_556 S
O73 C79 1.248 . S
O74 Mg71 1.990 . S
O74 C80 1.253 . S
O75 Mg71 2.117 . S
O75 C81 1.250 . S
C76 O82 1.248 . S
C76 O83 1.264 . S
C77 O63 1.253 . S
C77 O65 1.260 . S
C78 O67 1.279 . S
C78 O68 1.250 . S
C79 O69 1.264 . S
C79 O73 1.248 . S
C80 O70 1.260 . S
C80 O74 1.253 . S
C81 O72 1.279 . S
C81 O75 1.250 . S
O82 Mg64 2.030 . S
O82 C76 1.248 . S
O83 Mg66 2.079 . S
O83 C76 1.264 . S
O84 Mg85 1.990 . S
O84 C98 1.253 . S
Mg85 O84 1.990 . S
Mg85 O88 2.180 . S
Mg85 O89 2.117 . S
Mg85 O103 2.030 . S
O86 Mg87 2.072 . S
O86 C98 1.260 . S
Mg87 O86 2.072 . S
Mg87 O88 2.099 . S
Mg87 O90 2.079 . S
Mg87 O91 2.072 . S
Mg87 O93 2.099 . S
Mg87 O104 2.079 . S
O88 Mg85 2.180 . S
O88 Mg87 2.099 . S
O88 C99 1.279 . S
O89 Mg85 2.117 . S
O89 C99 1.250 . S
O90 Mg87 2.079 . S
O90 C100 1.264 . S
O91 Mg87 2.072 . S
O91 C101 1.260 . S
Mg92 O93 2.180 . S
Mg92 O94 2.030 . S
Mg92 O95 1.990 . S
Mg92 O96 2.117 . S
O93 Mg87 2.099 . S
O93 Mg92 2.180 . S
O93 C102 1.279 . S
O94 Mg92 2.030 . S
O94 C100 1.248 . S
O95 Mg92 1.990 . S
O95 C101 1.253 . S
O96 Mg92 2.117 . S
O96 C102 1.250 . S
C97 O103 1.248 . S
C97 O104 1.264 . S
C98 O84 1.253 . S
C98 O86 1.260 . S
C99 O88 1.279 . S
C99 O89 1.250 . S
C100 O90 1.264 . S
C100 O94 1.248 . S
C101 O91 1.260 . S
C101 O95 1.253 . S
C102 O93 1.279 . S
C102 O96 1.250 . S
O103 Mg85 2.030 . S
O103 C97 1.248 . S
O104 Mg87 2.079 . S
O104 C97 1.264 . S
O105 Mg106 1.990 . S
O105 C119 1.253 . S
Mg106 O105 1.990 . S
Mg106 O109 2.180 . S
Mg106 O110 2.117 . S
Mg106 O124 2.030 . S
O107 Mg108 2.072 . S
O107 C119 1.260 . S
Mg108 O107 2.072 . S
Mg108 O109 2.099 . S
Mg108 O111 2.079 . S
Mg108 O112 2.072 . S
Mg108 O114 2.099 . S
Mg108 O125 2.079 . S
O109 Mg106 2.180 . S
O109 Mg108 2.099 . S
O109 C120 1.279 . S
O110 Mg106 2.117 . S
O110 C120 1.250 . S
O111 Mg108 2.079 . S
O111 C121 1.264 . S
O112 Mg108 2.072 . S
O112 C122 1.260 . S
Mg113 O114 2.180 . S
Mg113 O115 2.030 . S
Mg113 O116 1.990 . S
Mg113 O117 2.117 . S
O114 Mg108 2.099 . S
O114 Mg113 2.180 . S
O114 C123 1.279 . S
O115 Mg113 2.030 . S
O115 C121 1.248 . S
O116 Mg113 1.990 . S
O116 C122 1.253 . S
O117 Mg113 2.117 . S
O117 C123 1.250 . S
C118 O124 1.248 . S
C118 O125 1.264 . S
C119 O105 1.253 . S
C119 O107 1.260 . S
C120 O109 1.279 . S
C120 O110 1.250 . S
C121 O111 1.264 . S
C121 O115 1.248 . S
C122 O112 1.260 . S
C122 O116 1.253 . S
C123 O114 1.279 . S
C123 O117 1.250 . S
O124 Mg106 2.030 . S
O124 C118 1.248 . S
O125 Mg108 2.079 . S
O125 C118 1.264 . S
C126 C127 1.170 . S
C126 C128 1.380 . S
C127 C126 1.170 . S
C128 C126 1.380 . S
C128 C129 1.170 . S
C129 C128 1.170 . S
C130 C131 1.170 . S
C130 C132 1.380 . S
C131 C130 1.170 . S
C132 C130 1.380 . S
C132 C133 1.170 . S
C133 C132 1.170 . S
C134 C135 1.170 . S
C134 C136 1.380 . S
C135 C134 1.170 . S
C136 C134 1.380 . S
C136 C137 1.170 . S
C137 C136 1.170 . S
C138 C139 1.170 . S
C138 C140 1.380 . S
C139 C138 1.170 . S
C140 C138 1.380 . S
C140 C141 1.170 . S
C141 C140 1.170 . S
C142 C143 1.170 . S
C142 C144 1.380 . S
C143 C142 1.170 . S
C144 C142 1.380 . S
C144 C145 1.170 . S
C145 C144 1.170 . S
C146 C147 1.170 . S
C146 C148 1.380 . S
C147 C146 1.170 . S
C148 C146 1.380 . S
C148 C149 1.170 . S
C149 C148 1.170 . S
C150 C151 1.170 . S
C150 C152 1.380 . S
C151 C150 1.170 . S
C152 C150 1.380 . S
C152 C153 1.170 . S
C153 C152 1.170 . S
C154 C155 1.170 . S
C154 C156 1.380 1_455 S
C155 C154 1.170 . S
C156 C154 1.380 1_655 S
C156 C157 1.170 . S
C157 C156 1.170 . S
C158 C159 1.170 . S
C158 C160 1.380 1_545 S
C159 C158 1.170 . S
C160 C158 1.380 1_565 S
C160 C161 1.170 . S
C161 C160 1.170 . S
C162 C163 1.170 . S
C162 C164 1.380 . S
C163 C162 1.170 . S
C164 C162 1.380 . S
C164 C165 1.170 . S
C165 C164 1.170 . S
C166 C167 1.170 . S
C166 C168 1.380 1_455 S
C167 C166 1.170 . S
C168 C166 1.380 1_655 S
C168 C169 1.170 . S
C169 C168 1.170 . S
C170 C171 1.170 . S
C170 C172 1.380 1_565 S
C171 C170 1.170 . S
C172 C170 1.380 1_545 S
C172 C173 1.170 . S
C173 C172 1.170 . S
C174 C175 1.170 . S
C174 C176 1.380 . S
C175 C174 1.170 . S
C176 C174 1.380 . S
C176 C177 1.170 . S
C177 C176 1.170 . S
C178 C179 1.170 . S
C178 C180 1.380 1_655 S
C179 C178 1.170 . S
C180 C178 1.380 1_455 S
C180 C181 1.170 . S
C181 C180 1.170 . S
C182 C183 1.170 . S
C182 C184 1.380 1_565 S
C183 C182 1.170 . S
C184 C182 1.380 1_545 S
C184 C185 1.170 . S
C185 C184 1.170 . S
C186 C187 1.170 . S
C186 C188 1.380 . S
C187 C186 1.170 . S
C188 C186 1.380 . S
C188 C189 1.170 . S
C189 C188 1.170 . S
C190 C191 1.170 . S
C190 C192 1.380 1_455 S
C191 C190 1.170 . S
C192 C190 1.380 1_655 S
C192 C193 1.170 . S
C193 C192 1.170 . S
C194 C195 1.170 . S
C194 C196 1.380 1_545 S
C195 C194 1.170 . S
C196 C194 1.380 1_565 S
C196 C197 1.170 . S
C197 C196 1.170 . S
C127 C97 0.986 . S
C129 C15 0.952 . S
C131 C121 0.989 . S
C133 C39 0.916 . S
C135 C13 1.002 . S
C137 C57 0.904 . S
C139 C37 1.033 . S
C141 C81 0.996 . S
C143 C55 1.042 . S
C145 C99 0.949 . S
C147 C79 1.018 . S
C149 C123 0.999 . S
C151 C14 1.151 . S
C153 C80 1.226 . S
C155 C98 1.175 . S
C157 C38 1.177 . S
C159 C122 1.217 . S
C161 C56 1.167 . S
C163 C58 1.388 . S
C165 C118 1.405 . S
C167 C16 1.393 . S
C169 C76 1.382 . S
C171 C100 1.398 . S
C173 C34 1.382 . S
C175 C119 1.270 . S
C177 C18 1.232 . S
C179 C36 1.209 . S
C181 C17 1.249 . S
C183 C60 1.256 . S
C185 C35 1.245 . S
C187 C59 1.251 . S
C189 C78 1.208 . S
C191 C102 1.243 . S
C193 C77 1.232 . S
C195 C120 1.242 . S
C197 C101 1.264 . S
