# Generated by pormake.
# Topology kag, (6)-cn, num edge types: 1
# Building blocks:
#     Node 0, Type 0, BuildingBlock: BETDIP_clean_sbu_0, # of connection points: 6
#     Node 1, Type 0, BuildingBlock: BETDIP_clean_sbu_0, # of connection points: 6
#     Node 2, Type 0, BuildingBlock: BETDIP_clean_sbu_0, # of connection points: 6
#     Edge 3, Type (0, 0), BuildingBlock: OJICUG_clean_linker_0, # of connection points: 2
#     Edge 4, Type (0, 0), BuildingBlock: OJICUG_clean_linker_0, # of connection points: 2
#     Edge 5, Type (0, 0), BuildingBlock: OJICUG_clean_linker_0, # of connection points: 2
#     Edge 6, Type (0, 0), BuildingBlock: OJICUG_clean_linker_0, # of connection points: 2
#     Edge 7, Type (0, 0), BuildingBlock: OJICUG_clean_linker_0, # of connection points: 2
#     Edge 8, Type (0, 0), BuildingBlock: OJICUG_clean_linker_0, # of connection points: 2
#     Edge 9, Type (0, 0), BuildingBlock: OJICUG_clean_linker_0, # of connection points: 2
#     Edge 10, Type (0, 0), BuildingBlock: OJICUG_clean_linker_0, # of connection points: 2
#     Edge 11, Type (0, 0), BuildingBlock: OJICUG_clean_linker_0, # of connection points: 2
# Relax obj value: 0.013
# Max RMSD: 0.069
# Mean RMSD: 0.060
data_MOF--net-kag--node1-BETDIP_clean_sbu_0--edge1-OJICUG_clean_linker_0
_symmetry_space_group_name_H-M    P1
_symmetry_Int_Tables_number       1
_symmetry_cell_setting            triclinic
loop_
_symmetry_equiv_pos_as_xyz
'x, y, z'
_cell_length_a     32.740025
_cell_length_b     32.753188
_cell_length_c     10.252586
_cell_angle_alpha  93.238942
_cell_angle_beta   91.952887
_cell_angle_gamma 120.00769
loop_
_atom_site_label
_atom_site_type_symbol
_atom_site_fract_x
_atom_site_fract_y
_atom_site_fract_z
_atom_type_partial_charge
Tb0 Tb 1.01287 0.4754 0.02939 0.0
Tb1 Tb 0.07087 0.5805 1.01313 0.0
C2 C 0.95907 0.39411 0.10081 0.0
C3 C 0.90884 0.3571 0.09712 0.0
C4 C 0.89322 0.32855 0.20187 0.0
C5 C 0.84709 0.29022 0.19706 0.0
C6 C 0.81553 0.27947 0.08688 0.0
C7 C 0.8308 0.30926 0.9837 0.0
C8 C 0.8771 0.34778 0.98874 0.0
C9 C 1.03124 0.50217 0.78944 0.0
C10 C 0.96107 0.53603 1.00891 0.0
C11 C 0.12473 0.66191 0.9425 0.0
C12 C 0.17498 0.69887 0.94621 0.0
C13 C 0.1907 0.72726 0.84113 0.0
C14 C 0.23684 0.76557 0.84592 0.0
C15 C 0.26831 0.77646 0.9564 0.0
C16 C 0.25296 0.74683 0.05991 0.0
C17 C 0.20664 0.70834 0.0549 0.0
C18 C 0.05229 0.55348 0.25294 0.0
C19 C 0.1226 0.51977 0.03252 0.0
O20 O 0.97219 0.43321 0.17448 0.0
O21 O 0.97914 0.4019 0.98962 0.0
O22 O 1.02185 0.52246 0.88167 0.0
O23 O 1.0264 0.46297 0.82691 0.0
O24 O 0.95858 0.4963 0.04195 0.0
O25 O 1.00109 0.57179 0.97496 0.0
O26 O 0.11152 0.62289 0.86833 0.0
O27 O 0.10469 0.65398 0.05375 0.0
O28 O 0.06195 0.53347 0.16063 0.0
O29 O 0.05698 0.59264 0.21558 0.0
O30 O 0.1251 0.55955 0.99991 0.0
O31 O 0.08264 0.48403 0.06672 0.0
H32 H 0.91711 0.33529 0.2866 0.0
H33 H 0.8363 0.26868 0.27936 0.0
H34 H 0.80752 0.30189 0.89711 0.0
H35 H 0.88841 0.36948 0.9068 0.0
H36 H 0.16686 0.72041 0.75616 0.0
H37 H 0.24771 0.78699 0.76338 0.0
H38 H 0.27616 0.75431 0.14673 0.0
H39 H 0.19526 0.68677 0.1371 0.0
Tb40 Tb 0.56616 1.00004 0.04006 0.0
Tb41 Tb 0.51768 0.05591 1.00395 0.0
C42 C 0.59307 0.94496 0.1167 0.0
C43 C 0.58076 0.89485 0.09272 0.0
C44 C 0.55706 0.86248 0.18566 0.0
C45 C 0.54937 0.81635 0.17027 0.0
C46 C 0.56558 0.80165 0.06207 0.0
C47 C 0.58827 0.83373 0.96756 0.0
C48 C 0.59587 0.87976 0.98277 0.0
C49 C 0.55698 1.0174 0.79506 0.0
C50 C 0.45347 0.94653 0.99377 0.0
C51 C 0.49078 0.11108 0.92802 0.0
C52 C 0.50339 0.16128 0.95174 0.0
C53 C 0.52628 0.19325 0.85726 0.0
C54 C 0.5343 0.2395 0.87264 0.0
C55 C 0.51922 0.25472 0.9824 0.0
C56 C 0.49732 0.22304 0.07838 0.0
C57 C 0.48942 0.17689 0.06319 0.0
C58 C 0.52686 0.0383 0.24884 0.0
C59 C 0.63036 0.10942 0.04991 0.0
O60 O 0.56309 0.95336 0.17723 0.0
O61 O 0.61121 0.97229 0.02157 0.0
O62 O 0.5272 1.00763 0.87952 0.0
O63 O 0.5915 1.01305 0.84295 0.0
O64 O 0.49102 0.94547 0.04156 0.0
O65 O 0.45748 0.98562 0.95067 0.0
O66 O 0.52042 0.1024 0.86658 0.0
O67 O 0.4729 0.08395 0.02368 0.0
O68 O 0.55663 0.04835 0.16428 0.0
O69 O 0.49224 0.04253 0.20103 0.0
O70 O 0.5928 0.11047 1.00214 0.0
O71 O 0.62635 0.07036 0.09316 0.0
H72 H 0.5455 0.87318 0.2722 0.0
H73 H 0.53222 0.79275 0.24565 0.0
H74 H 0.60063 0.8234 0.88211 0.0
H75 H 0.61448 0.90375 0.90943 0.0
H76 H 0.53695 0.18215 0.7696 0.0
H77 H 0.55079 0.26277 0.79612 0.0
H78 H 0.48584 0.23378 0.16497 0.0
H79 H 0.47147 0.15323 0.13777 0.0
Tb80 Tb 0.49009 0.50408 0.02877 0.0
Tb81 Tb 0.59516 0.55236 1.01008 0.0
C82 C 0.40755 0.47675 0.09554 0.0
C83 C 0.3687 0.4871 0.07599 0.0
C84 C 0.37319 0.53065 0.12104 0.0
C85 C 0.33434 0.53765 0.10943 0.0
C86 C 0.29024 0.50121 0.05312 0.0
C87 C 0.28642 0.45827 1.00506 0.0
C88 C 0.32507 0.45128 1.01686 0.0
C89 C 0.51751 0.51262 0.78717 0.0
C90 C 0.55032 0.61684 0.02853 0.0
C91 C 0.67712 0.57959 0.93846 0.0
C92 C 0.71424 0.56665 0.94473 0.0
C93 C 0.74691 0.58102 0.84845 0.0
C94 C 0.78517 0.57333 0.85737 0.0
C95 C 0.79173 0.55117 0.96329 0.0
C96 C 0.75783 0.53515 0.05739 0.0
C97 C 0.71939 0.54287 0.04824 0.0
C98 C 0.56758 0.54438 0.25151 0.0
C99 C 0.53515 0.4398 1.01367 0.0
O100 O 0.44583 0.50791 0.16663 0.0
O101 O 0.41706 0.45822 0.99297 0.0
O102 O 0.53745 0.54249 0.88408 0.0
O103 O 0.47821 0.47824 0.82112 0.0
O104 O 0.51102 0.57934 0.05978 0.0
O105 O 0.58594 0.61287 0.98551 0.0
O106 O 0.63851 0.55129 0.86463 0.0
O107 O 0.6684 0.59467 0.04906 0.0
O108 O 0.54784 0.51425 0.155 0.0
O109 O 0.60688 0.57882 0.21731 0.0
O110 O 0.57417 0.47705 0.98006 0.0
O111 O 0.49992 0.44416 0.05805 0.0
H112 H 0.40635 0.55897 0.16743 0.0
H113 H 0.33845 0.57105 0.14824 0.0
H114 H 0.25333 0.42975 0.95891 0.0
H115 H 0.3206 0.41739 0.98139 0.0
H116 H 0.7434 0.5992 0.76748 0.0
H117 H 0.80996 0.58524 0.78172 0.0
H118 H 0.76188 0.51814 0.14044 0.0
H119 H 0.69443 0.53135 0.12353 0.0
C120 C 1.03412 0.55492 0.61692 0.0
C121 C 1.03698 0.51556 0.65248 0.0
H122 H 1.03651 0.59757 0.46268 0.0
C123 C 0.04466 0.48856 0.5553 0.0
H124 H 1.028 0.57629 0.68937 0.0
C125 C 0.04943 0.50067 0.42538 0.0
C126 C 0.04656 0.54002 0.38984 0.0
H127 H 0.04702 0.45801 0.57967 0.0
H128 H 0.05556 0.47931 0.35291 0.0
C129 C 1.03887 0.56702 0.48702 0.0
C130 C 0.57629 0.03435 0.43473 0.0
C131 C 0.53457 0.03265 0.38825 0.0
H132 H 0.6161 0.03105 0.60026 0.0
C133 C 0.5003 1.02608 0.4767 0.0
H134 H 0.60334 0.03945 0.36888 0.0
C135 C 0.50761 1.02136 0.6091 0.0
C136 C 0.54933 1.02305 0.6556 0.0
H137 H 0.46779 1.02463 0.44361 0.0
H138 H 0.48056 1.01626 0.67493 0.0
C139 C 0.5836 0.02962 0.56715 0.0
C140 C 0.50263 0.48662 0.54755 0.0
C141 C 0.53062 0.5207 0.65041 0.0
H142 H 0.49221 0.4675 0.34044 0.0
C143 C 0.57061 0.56276 0.62096 0.0
H144 H 0.47156 0.45389 0.56739 0.0
C145 C 0.58237 0.57057 0.49108 0.0
C146 C 0.5544 0.53646 0.38825 0.0
H147 H 0.59273 0.58972 0.6982 0.0
H148 H 0.61345 0.60329 0.47123 0.0
C149 C 0.51437 0.49444 0.41769 0.0
C150 C 0.16329 0.47354 0.07124 0.0
C151 C 0.16592 0.51584 0.03835 0.0
H152 H 0.20014 0.43613 0.10365 0.0
C153 C 0.21009 0.55382 1.0114 0.0
H154 H 0.13001 0.44357 0.09314 0.0
C155 C 0.25058 0.5494 1.01684 0.0
C156 C 0.24773 0.50684 0.04866 0.0
H157 H 0.21344 0.58694 0.98582 0.0
H158 H 0.28395 0.57905 0.99411 0.0
C159 C 0.20358 0.46913 0.07641 0.0
C160 C 0.68301 0.19565 1.01708 0.0
C161 C 0.67739 0.15325 0.0606 0.0
H162 H 0.73078 0.26882 0.99224 0.0
C163 C 0.71743 0.15288 0.11286 0.0
H164 H 0.65294 0.19723 0.9762 0.0
C165 C 0.76196 0.19378 0.12139 0.0
C166 C 0.76772 0.23623 0.07806 0.0
H167 H 0.71457 0.12087 0.14662 0.0
H168 H 0.79209 0.19186 0.16017 0.0
C169 C 0.72769 0.23666 0.02555 0.0
C170 C 0.51939 0.71372 0.08328 0.0
C171 C 0.56086 0.75388 0.05073 0.0
H172 H 0.48332 0.63902 0.10125 0.0
C173 C 0.5985 0.74834 1.00978 0.0
H174 H 0.48956 0.71665 0.11395 0.0
C175 C 0.59491 0.70391 1.00205 0.0
C176 C 0.55357 0.66378 0.0351 0.0
H177 H 0.63125 0.77858 0.98603 0.0
H178 H 0.62482 0.7012 0.9711 0.0
C179 C 0.51576 0.66917 0.07543 0.0
C180 C 0.87357 0.50195 0.02977 0.0
C181 C 0.91756 0.53958 1.0002 0.0
H182 H 0.79925 0.47581 0.04054 0.0
C183 C 0.9197 0.58097 0.96061 0.0
H184 H 0.87059 0.46953 0.06061 0.0
C185 C 0.879 0.58455 0.94948 0.0
C186 C 0.83489 0.54686 0.9775 0.0
H187 H 0.95291 0.61083 0.93777 0.0
H188 H 0.88226 0.61723 0.91996 0.0
C189 C 0.83269 0.5056 1.01882 0.0
C190 C 0.32193 0.86209 0.92128 0.0
C191 C 0.31612 0.8197 0.9652 0.0
H192 H 0.36935 0.93497 0.89573 0.0
C193 C 0.35611 0.81933 1.01835 0.0
H194 H 0.29183 0.86396 0.88196 0.0
C195 C 0.40078 0.86034 0.02693 0.0
C196 C 0.40645 0.90269 0.98289 0.0
H197 H 0.35298 0.78721 0.05212 0.0
H198 H 0.43082 0.85881 0.06835 0.0
C199 C 0.36645 0.903 0.92994 0.0
C200 C 0.56923 0.38709 0.96596 0.0
C201 C 0.53186 0.39285 1.00842 0.0
H202 H 0.59488 0.33924 0.92601 0.0
C203 C 0.49085 0.35305 0.04447 0.0
H204 H 0.60142 0.41701 0.93789 0.0
C205 C 0.48709 0.30854 0.03728 0.0
C206 C 0.52423 0.30261 0.99384 0.0
H207 H 0.46128 0.35605 0.07721 0.0
H208 H 0.45456 0.27853 0.06324 0.0
C209 C 0.56542 0.34247 0.95859 0.0
loop_
_geom_bond_atom_site_label_1
_geom_bond_atom_site_label_2
_geom_bond_distance
_geom_bond_site_symmetry_2
_ccdc_geom_bond_type
Tb0 C2 2.809 . S
Tb0 O20 2.484 1_556 S
Tb0 O21 2.440 . S
Tb0 O22 2.658 1_655 S
Tb0 O23 2.409 . S
Tb0 O24 2.378 . S
Tb0 O28 2.325 1_556 S
Tb0 O31 2.341 1_655 S
Tb1 C11 2.809 . S
Tb1 O22 2.325 1_554 S
Tb1 O25 2.341 1_455 S
Tb1 O26 2.484 1_554 S
Tb1 O27 2.440 . S
Tb1 O28 2.658 1_455 S
Tb1 O29 2.409 . S
Tb1 O30 2.378 . S
C2 Tb0 2.809 . S
C2 C3 1.514 1_556 S
C2 O20 1.248 1_556 S
C2 O21 1.266 . S
C3 C2 1.514 1_554 S
C3 C4 1.359 . S
C3 C8 1.348 1_554 S
C4 C3 1.359 . S
C4 C5 1.380 . S
C4 H32 0.929 . S
C5 C4 1.380 . S
C5 C6 1.347 . S
C5 H33 0.931 . S
C6 C5 1.347 . S
C6 C7 1.369 1_554 S
C7 C6 1.369 1_556 S
C7 C8 1.408 . S
C7 H34 0.930 . S
C8 C3 1.348 1_556 S
C8 C7 1.408 . S
C8 H35 0.930 . S
C9 O22 1.281 1_655 S
C9 O23 1.254 . S
C10 O24 1.236 . S
C10 O25 1.266 1_556 S
C11 Tb1 2.809 . S
C11 C12 1.514 1_554 S
C11 O26 1.248 1_554 S
C11 O27 1.266 . S
C12 C11 1.514 1_556 S
C12 C13 1.359 . S
C12 C17 1.348 1_556 S
C13 C12 1.359 . S
C13 C14 1.380 . S
C13 H36 0.929 . S
C14 C13 1.380 . S
C14 C15 1.347 . S
C14 H37 0.931 . S
C15 C14 1.347 . S
C15 C16 1.369 1_556 S
C16 C15 1.369 1_554 S
C16 C17 1.408 . S
C16 H38 0.930 . S
C17 C12 1.348 1_554 S
C17 C16 1.408 . S
C17 H39 0.930 . S
C18 O28 1.281 1_455 S
C18 O29 1.254 . S
C19 O30 1.236 . S
C19 O31 1.266 1_554 S
O20 Tb0 2.484 1_554 S
O20 C2 1.248 1_554 S
O21 Tb0 2.440 . S
O21 C2 1.266 . S
O22 Tb0 2.658 1_455 S
O22 Tb1 2.325 1_556 S
O22 C9 1.281 1_455 S
O23 Tb0 2.409 . S
O23 C9 1.254 . S
O24 Tb0 2.378 . S
O24 C10 1.236 . S
O25 Tb1 2.341 1_655 S
O25 C10 1.266 1_554 S
O26 Tb1 2.484 1_556 S
O26 C11 1.248 1_556 S
O27 Tb1 2.440 . S
O27 C11 1.266 . S
O28 Tb0 2.325 1_554 S
O28 Tb1 2.658 1_655 S
O28 C18 1.281 1_655 S
O29 Tb1 2.409 . S
O29 C18 1.254 . S
O30 Tb1 2.378 . S
O30 C19 1.236 . S
O31 Tb0 2.341 1_455 S
O31 C19 1.266 1_556 S
H32 C4 0.929 . S
H33 C5 0.931 . S
H34 C7 0.930 . S
H35 C8 0.930 . S
H36 C13 0.929 . S
H37 C14 0.931 . S
H38 C16 0.930 . S
H39 C17 0.930 . S
Tb40 C42 2.809 1_556 S
Tb40 O60 2.484 1_556 S
Tb40 O61 2.440 . S
Tb40 O62 2.658 1_565 S
Tb40 O63 2.409 . S
Tb40 O64 2.378 . S
Tb40 O68 2.325 1_556 S
Tb40 O71 2.341 1_566 S
Tb41 C51 2.809 1_554 S
Tb41 O62 2.325 1_554 S
Tb41 O65 2.341 1_544 S
Tb41 O66 2.484 1_554 S
Tb41 O67 2.440 . S
Tb41 O68 2.658 1_545 S
Tb41 O69 2.409 . S
Tb41 O70 2.378 . S
C42 Tb40 2.809 1_554 S
C42 C43 1.514 . S
C42 O60 1.248 . S
C42 O61 1.266 1_554 S
C43 C42 1.514 . S
C43 C44 1.359 . S
C43 C48 1.348 1_554 S
C44 C43 1.359 . S
C44 C45 1.380 . S
C44 H72 0.929 . S
C45 C44 1.380 . S
C45 C46 1.347 . S
C45 H73 0.931 . S
C46 C45 1.347 . S
C46 C47 1.369 1_554 S
C47 C46 1.369 1_556 S
C47 C48 1.408 . S
C47 H74 0.930 . S
C48 C43 1.348 1_556 S
C48 C47 1.408 . S
C48 H75 0.930 . S
C49 O62 1.281 1_565 S
C49 O63 1.254 . S
C50 O64 1.236 . S
C50 O65 1.266 . S
C51 Tb41 2.809 1_556 S
C51 C52 1.514 . S
C51 O66 1.248 . S
C51 O67 1.266 1_556 S
C52 C51 1.514 . S
C52 C53 1.359 . S
C52 C57 1.348 1_556 S
C53 C52 1.359 . S
C53 C54 1.380 . S
C53 H76 0.929 . S
C54 C53 1.380 . S
C54 C55 1.347 . S
C54 H77 0.931 . S
C55 C54 1.347 . S
C55 C56 1.369 1_556 S
C56 C55 1.369 1_554 S
C56 C57 1.408 . S
C56 H78 0.930 . S
C57 C52 1.348 1_554 S
C57 C56 1.408 . S
C57 H79 0.930 . S
C58 O68 1.281 1_545 S
C58 O69 1.254 . S
C59 O70 1.236 . S
C59 O71 1.266 . S
O60 Tb40 2.484 1_554 S
O60 C42 1.248 . S
O61 Tb40 2.440 . S
O61 C42 1.266 1_556 S
O62 Tb40 2.658 1_545 S
O62 Tb41 2.325 1_556 S
O62 C49 1.281 1_545 S
O63 Tb40 2.409 . S
O63 C49 1.254 . S
O64 Tb40 2.378 . S
O64 C50 1.236 . S
O65 Tb41 2.341 1_566 S
O65 C50 1.266 . S
O66 Tb41 2.484 1_556 S
O66 C51 1.248 . S
O67 Tb41 2.440 . S
O67 C51 1.266 1_554 S
O68 Tb40 2.325 1_554 S
O68 Tb41 2.658 1_565 S
O68 C58 1.281 1_565 S
O69 Tb41 2.409 . S
O69 C58 1.254 . S
O70 Tb41 2.378 . S
O70 C59 1.236 . S
O71 Tb40 2.341 1_544 S
O71 C59 1.266 . S
H72 C44 0.929 . S
H73 C45 0.931 . S
H74 C47 0.930 . S
H75 C48 0.930 . S
H76 C53 0.929 . S
H77 C54 0.931 . S
H78 C56 0.930 . S
H79 C57 0.930 . S
Tb80 C82 2.809 . S
Tb80 O100 2.484 1_556 S
Tb80 O101 2.440 . S
Tb80 O102 2.658 . S
Tb80 O103 2.409 . S
Tb80 O104 2.378 . S
Tb80 O108 2.325 1_556 S
Tb80 O111 2.341 . S
Tb81 C91 2.809 . S
Tb81 O102 2.325 1_554 S
Tb81 O105 2.341 . S
Tb81 O106 2.484 1_554 S
Tb81 O107 2.440 . S
Tb81 O108 2.658 . S
Tb81 O109 2.409 . S
Tb81 O110 2.378 . S
C82 Tb80 2.809 . S
C82 C83 1.514 1_556 S
C82 O100 1.248 1_556 S
C82 O101 1.266 . S
C83 C82 1.514 1_554 S
C83 C84 1.359 . S
C83 C88 1.348 1_554 S
C84 C83 1.359 . S
C84 C85 1.380 . S
C84 H112 0.929 . S
C85 C84 1.380 . S
C85 C86 1.347 . S
C85 H113 0.931 . S
C86 C85 1.347 . S
C86 C87 1.369 1_554 S
C87 C86 1.369 1_556 S
C87 C88 1.408 . S
C87 H114 0.930 . S
C88 C83 1.348 1_556 S
C88 C87 1.408 . S
C88 H115 0.930 . S
C89 O102 1.281 . S
C89 O103 1.254 . S
C90 O104 1.236 . S
C90 O105 1.266 1_556 S
C91 Tb81 2.809 . S
C91 C92 1.514 1_554 S
C91 O106 1.248 1_554 S
C91 O107 1.266 . S
C92 C91 1.514 1_556 S
C92 C93 1.359 . S
C92 C97 1.348 1_556 S
C93 C92 1.359 . S
C93 C94 1.380 . S
C93 H116 0.929 . S
C94 C93 1.380 . S
C94 C95 1.347 . S
C94 H117 0.931 . S
C95 C94 1.347 . S
C95 C96 1.369 1_556 S
C96 C95 1.369 1_554 S
C96 C97 1.408 . S
C96 H118 0.930 . S
C97 C92 1.348 1_554 S
C97 C96 1.408 . S
C97 H119 0.930 . S
C98 O108 1.281 . S
C98 O109 1.254 . S
C99 O110 1.236 . S
C99 O111 1.266 1_554 S
O100 Tb80 2.484 1_554 S
O100 C82 1.248 1_554 S
O101 Tb80 2.440 . S
O101 C82 1.266 . S
O102 Tb80 2.658 . S
O102 Tb81 2.325 1_556 S
O102 C89 1.281 . S
O103 Tb80 2.409 . S
O103 C89 1.254 . S
O104 Tb80 2.378 . S
O104 C90 1.236 . S
O105 Tb81 2.341 . S
O105 C90 1.266 1_554 S
O106 Tb81 2.484 1_556 S
O106 C91 1.248 1_556 S
O107 Tb81 2.440 . S
O107 C91 1.266 . S
O108 Tb80 2.325 1_554 S
O108 Tb81 2.658 . S
O108 C98 1.281 . S
O109 Tb81 2.409 . S
O109 C98 1.254 . S
O110 Tb81 2.378 . S
O110 C99 1.236 . S
O111 Tb80 2.341 . S
O111 C99 1.266 1_556 S
H112 C84 0.929 . S
H113 C85 0.931 . S
H114 C87 0.930 . S
H115 C88 0.930 . S
H116 C93 0.929 . S
H117 C94 0.931 . S
H118 C96 0.930 . S
H119 C97 0.930 . S
C120 C121 1.387 . S
C120 H124 0.950 . S
C120 C129 1.390 . S
C121 C120 1.387 . S
C121 C123 1.388 1_455 S
H122 C129 0.950 . S
C123 C121 1.388 1_655 S
C123 C125 1.390 . S
C123 H127 0.950 . S
H124 C120 0.950 . S
C125 C123 1.390 . S
C125 C126 1.390 1_655 S
C125 H128 0.950 . S
C126 C125 1.390 1_455 S
C126 C129 1.384 . S
H127 C123 0.950 . S
H128 C125 0.950 . S
C129 C120 1.390 . S
C129 H122 0.950 . S
C129 C126 1.384 . S
C130 C131 1.382 1_565 S
C130 H134 0.950 . S
C130 C139 1.390 . S
C131 C130 1.382 1_545 S
C131 C133 1.393 . S
H132 C139 0.950 . S
C133 C131 1.393 . S
C133 C135 1.390 . S
C133 H137 0.950 . S
H134 C130 0.950 . S
C135 C133 1.390 . S
C135 C136 1.391 . S
C135 H138 0.950 . S
C136 C135 1.391 . S
C136 C139 1.384 1_545 S
H137 C133 0.950 . S
H138 C135 0.950 . S
C139 C130 1.390 . S
C139 H132 0.950 . S
C139 C136 1.384 1_565 S
C140 C141 1.387 . S
C140 H144 0.950 . S
C140 C149 1.390 . S
C141 C140 1.387 . S
C141 C143 1.387 . S
H142 C149 0.950 . S
C143 C141 1.387 . S
C143 C145 1.390 . S
C143 H147 0.950 . S
H144 C140 0.950 . S
C145 C143 1.390 . S
C145 C146 1.387 . S
C145 H148 0.950 . S
C146 C145 1.387 . S
C146 C149 1.387 . S
H147 C143 0.950 . S
H148 C145 0.950 . S
C149 C140 1.390 . S
C149 H142 0.950 . S
C149 C146 1.387 . S
C150 C151 1.387 1_556 S
C150 H154 0.950 . S
C150 C159 1.390 . S
C151 C150 1.387 1_554 S
C151 C153 1.387 . S
H152 C159 0.950 . S
C153 C151 1.387 . S
C153 C155 1.390 . S
C153 H157 0.950 . S
H154 C150 0.950 . S
C155 C153 1.390 . S
C155 C156 1.387 . S
C155 H158 0.950 . S
C156 C155 1.387 . S
C156 C159 1.387 1_554 S
H157 C153 0.950 . S
H158 C155 0.950 . S
C159 C150 1.390 . S
C159 H152 0.950 . S
C159 C156 1.387 1_556 S
C160 C161 1.387 1_556 S
C160 H164 0.950 . S
C160 C169 1.390 . S
C161 C160 1.387 1_554 S
C161 C163 1.387 . S
H162 C169 0.950 . S
C163 C161 1.387 . S
C163 C165 1.390 . S
C163 H167 0.950 . S
H164 C160 0.950 . S
C165 C163 1.390 . S
C165 C166 1.387 . S
C165 H168 0.950 . S
C166 C165 1.387 . S
C166 C169 1.387 1_554 S
H167 C163 0.950 . S
H168 C165 0.950 . S
C169 C160 1.390 . S
C169 H162 0.950 . S
C169 C166 1.387 1_556 S
C170 C171 1.387 . S
C170 H174 0.950 . S
C170 C179 1.390 . S
C171 C170 1.387 . S
C171 C173 1.387 1_554 S
H172 C179 0.950 . S
C173 C171 1.387 1_556 S
C173 C175 1.390 . S
C173 H177 0.950 . S
H174 C170 0.950 . S
C175 C173 1.390 . S
C175 C176 1.387 1_556 S
C175 H178 0.950 . S
C176 C175 1.387 1_554 S
C176 C179 1.387 . S
H177 C173 0.950 . S
H178 C175 0.950 . S
C179 C170 1.390 . S
C179 H172 0.950 . S
C179 C176 1.387 . S
C180 C181 1.387 1_554 S
C180 H184 0.950 . S
C180 C189 1.390 . S
C181 C180 1.387 1_556 S
C181 C183 1.387 . S
H182 C189 0.950 . S
C183 C181 1.387 . S
C183 C185 1.390 . S
C183 H187 0.950 . S
H184 C180 0.950 . S
C185 C183 1.390 . S
C185 C186 1.387 . S
C185 H188 0.950 . S
C186 C185 1.387 . S
C186 C189 1.387 1_556 S
H187 C183 0.950 . S
H188 C185 0.950 . S
C189 C180 1.390 . S
C189 H182 0.950 . S
C189 C186 1.387 1_554 S
C190 C191 1.387 . S
C190 H194 0.950 . S
C190 C199 1.390 . S
C191 C190 1.387 . S
C191 C193 1.387 1_556 S
H192 C199 0.950 . S
C193 C191 1.387 1_554 S
C193 C195 1.390 . S
C193 H197 0.950 . S
H194 C190 0.950 . S
C195 C193 1.390 . S
C195 C196 1.387 1_554 S
C195 H198 0.950 . S
C196 C195 1.387 1_556 S
C196 C199 1.387 . S
H197 C193 0.950 . S
H198 C195 0.950 . S
C199 C190 1.390 . S
C199 H192 0.950 . S
C199 C196 1.387 . S
C200 C201 1.387 . S
C200 H204 0.950 . S
C200 C209 1.390 . S
C201 C200 1.387 . S
C201 C203 1.387 1_556 S
H202 C209 0.950 . S
C203 C201 1.387 1_554 S
C203 C205 1.390 . S
C203 H207 0.950 . S
H204 C200 0.950 . S
C205 C203 1.390 . S
C205 C206 1.387 1_554 S
C205 H208 0.950 . S
C206 C205 1.387 1_556 S
C206 C209 1.387 . S
H207 C203 0.950 . S
H208 C205 0.950 . S
C209 C200 1.390 . S
C209 H202 0.950 . S
C209 C206 1.387 . S
C121 C9 1.442 1_455 S
C126 C18 1.442 . S
C131 C58 1.436 . S
C136 C49 1.434 1_545 S
C141 C89 1.444 . S
C146 C98 1.444 . S
C151 C19 1.625 . S
C156 C86 1.629 . S
C161 C59 1.629 . S
C166 C6 1.629 . S
C171 C46 1.636 . S
C176 C90 1.646 1_554 S
C181 C10 1.625 . S
C186 C95 1.628 . S
C191 C15 1.629 . S
C196 C50 1.629 . S
C201 C99 1.645 1_556 S
C206 C55 1.637 . S
