# Generated by pormake.
# Topology nbo, (4)-cn, num edge types: 1
# Building blocks:
#     Node 0, Type 0, BuildingBlock: NAWXER_clean_sbu_0, # of connection points: 4
#     Node 1, Type 0, BuildingBlock: NAWXER_clean_sbu_0, # of connection points: 4
#     Node 2, Type 0, BuildingBlock: NAWXER_clean_sbu_0, # of connection points: 4
#     Node 3, Type 0, BuildingBlock: NAWXER_clean_sbu_0, # of connection points: 4
#     Node 4, Type 0, BuildingBlock: NAWXER_clean_sbu_0, # of connection points: 4
#     Node 5, Type 0, BuildingBlock: NAWXER_clean_sbu_0, # of connection points: 4
#     Edge 6, Type (0, 0), None
#     Edge 7, Type (0, 0), None
#     Edge 8, Type (0, 0), None
#     Edge 9, Type (0, 0), None
#     Edge 10, Type (0, 0), None
#     Edge 11, Type (0, 0), None
#     Edge 12, Type (0, 0), None
#     Edge 13, Type (0, 0), None
#     Edge 14, Type (0, 0), None
#     Edge 15, Type (0, 0), None
#     Edge 16, Type (0, 0), None
#     Edge 17, Type (0, 0), None
# Relax obj value: 0.000
# Max RMSD: 0.000
# Mean RMSD: 0.000
data_MOF--net-nbo--node1-NAWXER_clean_sbu_0--edge1-none
_symmetry_space_group_name_H-M    P1
_symmetry_Int_Tables_number       1
_symmetry_cell_setting            triclinic
loop_
_symmetry_equiv_pos_as_xyz
'x, y, z'
_cell_length_a     12.545025
_cell_length_b     12.545133
_cell_length_c     12.545032
_cell_angle_alpha  99.397548
_cell_angle_beta   99.40204
_cell_angle_gamma 99.399589
loop_
_atom_site_label
_atom_site_type_symbol
_atom_site_fract_x
_atom_site_fract_y
_atom_site_fract_z
_atom_type_partial_charge
C0 C 0.95106 0.29586 0.43888 0.0
C1 C 0.92567 0.90866 0.45731 0.0
O2 O 0.91853 0.21385 0.35972 0.0
Zn3 Zn 0.93016 0.10013 0.44724 0.0
O4 O 0.97535 0.28103 0.53773 0.0
Zn5 Zn 0.97662 0.14657 0.62152 0.0
O6 O 0.12815 0.17687 0.69671 0.0
O7 O 0.10484 0.1215 0.516 0.0
O8 O 0.95523 0.9719 0.55274 0.0
O9 O 0.89984 0.94861 0.37204 0.0
O10 O 0.79572 0.1014 0.53104 0.0
O11 O 0.86292 0.15819 0.70905 0.0
C12 C 0.16809 0.15104 0.61143 0.0
C13 C 0.7809 0.12567 0.6299 0.0
C14 C 0.61671 0.16553 0.14833 0.0
C15 C 0.63517 0.77835 0.12297 0.0
O16 O 0.70199 0.12559 0.17416 0.0
Zn17 Zn 0.6268 0.97406 0.14386 0.0
O18 O 0.52128 0.10229 0.11878 0.0
Zn19 Zn 0.45251 0.92761 0.09741 0.0
O20 O 0.36499 0.91599 0.21112 0.0
O21 O 0.543 0.9728 0.27831 0.0
O22 O 0.53631 0.79317 0.09869 0.0
O23 O 0.71432 0.86035 0.15549 0.0
O24 O 0.55802 0.95268 0.96918 0.0
O25 O 0.37731 0.8973 0.94588 0.0
C26 C 0.44414 0.94852 0.29313 0.0
C27 C 0.46259 0.92312 0.90594 0.0
C28 C 0.29839 0.4416 0.94582 0.0
C29 C 0.9112 0.46004 0.92041 0.0
O30 O 0.21638 0.36245 0.91329 0.0
Zn31 Zn 0.10267 0.44996 0.92491 0.0
O32 O 0.28357 0.54045 0.9701 0.0
Zn33 Zn 0.14911 0.62425 0.97135 0.0
O34 O 0.17942 0.69943 0.12288 0.0
O35 O 0.12404 0.51873 0.09958 0.0
O36 O 0.97444 0.55547 0.94997 0.0
O37 O 0.95114 0.37477 0.89459 0.0
O38 O 0.10394 0.53376 0.79046 0.0
O39 O 0.16073 0.71177 0.85765 0.0
C40 C 0.15359 0.61416 0.16282 0.0
C41 C 0.12822 0.63262 0.77564 0.0
C42 C 0.65363 0.66553 0.11145 0.0
C43 C 0.62822 0.27835 0.12988 0.0
O44 O 0.62406 0.60231 1.01602 0.0
Zn45 Zn 0.60266 0.42764 0.94724 0.0
O46 O 0.67945 0.62559 0.19674 0.0
Zn47 Zn 0.64912 0.47407 0.12153 0.0
O48 O 0.78357 0.4728 0.03772 0.0
O49 O 0.71637 0.41602 0.85971 0.0
O50 O 0.66075 0.36035 0.20904 0.0
O51 O 0.60393 0.29318 1.03103 0.0
O52 O 0.45113 0.39734 0.87205 0.0
O53 O 0.47445 0.4527 0.05277 0.0
C54 C 0.79838 0.44853 0.93887 0.0
C55 C 0.41121 0.42315 0.95733 0.0
C56 C 0.94412 0.79585 0.4458 0.0
C57 C 0.96258 0.40867 0.42043 0.0
O58 O 0.04298 0.78103 0.47008 0.0
Zn59 Zn 0.12678 0.64658 0.47136 0.0
O60 O 0.86497 0.71384 0.41328 0.0
Zn61 Zn 0.95249 0.60013 0.42491 0.0
O62 O 1.02127 0.62152 0.59959 0.0
O63 O 0.20199 0.67689 0.62289 0.0
O64 O 0.8773 0.4486 0.39461 0.0
O65 O 0.05802 0.47191 0.44999 0.0
O66 O 0.2143 0.6582 0.35764 0.0
O67 O 1.03628 0.60139 0.29046 0.0
C68 C 0.11671 0.65108 0.66282 0.0
C69 C 0.13514 0.62568 0.27564 0.0
C70 C 0.66809 0.11416 0.64837 0.0
C71 C 0.2809 0.1326 0.62295 0.0
O72 O 0.60486 1.01873 0.6188 0.0
Zn73 Zn 0.43019 0.94995 0.59741 0.0
O74 O 0.62815 0.19944 0.67417 0.0
Zn75 Zn 0.47663 0.12424 0.64385 0.0
O76 O 0.47536 0.04044 0.7783 0.0
O77 O 0.41856 0.86243 0.71112 0.0
O78 O 0.36291 0.21175 0.65547 0.0
O79 O 0.29573 1.03374 0.59867 0.0
O80 O 0.39988 0.87475 0.44588 0.0
O81 O 0.45525 0.05547 0.46918 0.0
C82 C 0.45108 0.94158 0.79313 0.0
C83 C 0.42569 0.96004 0.40595 0.0
loop_
_geom_bond_atom_site_label_1
_geom_bond_atom_site_label_2
_geom_bond_distance
_geom_bond_site_symmetry_2
_ccdc_geom_bond_type
C0 O2 1.247 1_455 S
C0 O4 1.258 . S
C1 O8 1.247 1_655 S
C1 O9 1.258 . S
O2 C0 1.247 1_655 S
O2 Zn3 2.028 1_545 S
Zn3 O2 2.028 1_565 S
Zn3 O7 2.035 1_655 S
Zn3 O9 2.035 . S
Zn3 O10 2.028 . S
O4 C0 1.258 . S
O4 Zn5 2.035 . S
Zn5 O4 2.035 . S
Zn5 O6 2.028 . S
Zn5 O8 2.028 1_545 S
Zn5 O11 2.035 1_455 S
O6 Zn5 2.028 . S
O6 C12 1.247 . S
O7 Zn3 2.035 1_455 S
O7 C12 1.258 1_565 S
O8 C1 1.247 1_455 S
O8 Zn5 2.028 1_565 S
O9 C1 1.258 . S
O9 Zn3 2.035 . S
O10 Zn3 2.028 . S
O10 C13 1.247 . S
O11 Zn5 2.035 1_655 S
O11 C13 1.258 1_545 S
C12 O6 1.247 . S
C12 O7 1.258 1_545 S
C13 O10 1.247 . S
C13 O11 1.258 1_565 S
C14 O16 1.247 . S
C14 O18 1.258 1_554 S
C15 O22 1.247 . S
C15 O23 1.258 1_556 S
O16 C14 1.247 . S
O16 Zn17 2.028 . S
Zn17 O16 2.028 . S
Zn17 O21 2.035 . S
Zn17 O23 2.035 1_545 S
Zn17 O24 2.028 1_554 S
O18 C14 1.258 1_556 S
O18 Zn19 2.035 1_545 S
Zn19 O18 2.035 1_565 S
Zn19 O20 2.028 1_556 S
Zn19 O22 2.028 . S
Zn19 O25 2.035 . S
O20 Zn19 2.028 1_554 S
O20 C26 1.247 1_565 S
O21 Zn17 2.035 . S
O21 C26 1.258 . S
O22 C15 1.247 . S
O22 Zn19 2.028 . S
O23 C15 1.258 1_554 S
O23 Zn17 2.035 1_565 S
O24 Zn17 2.028 1_556 S
O24 C27 1.247 1_545 S
O25 Zn19 2.035 . S
O25 C27 1.258 . S
C26 O20 1.247 1_545 S
C26 O21 1.258 . S
C27 O24 1.247 1_565 S
C27 O25 1.258 . S
C28 O30 1.247 1_554 S
C28 O32 1.258 . S
C29 O36 1.247 1_556 S
C29 O37 1.258 . S
O30 C28 1.247 1_556 S
O30 Zn31 2.028 1_455 S
Zn31 O30 2.028 1_655 S
Zn31 O35 2.035 1_556 S
Zn31 O37 2.035 . S
Zn31 O38 2.028 . S
O32 C28 1.258 . S
O32 Zn33 2.035 . S
Zn33 O32 2.035 . S
Zn33 O34 2.028 . S
Zn33 O36 2.028 1_455 S
Zn33 O39 2.035 1_554 S
O34 Zn33 2.028 . S
O34 C40 1.247 . S
O35 Zn31 2.035 1_554 S
O35 C40 1.258 1_655 S
O36 C29 1.247 1_554 S
O36 Zn33 2.028 1_655 S
O37 C29 1.258 . S
O37 Zn31 2.035 . S
O38 Zn31 2.028 . S
O38 C41 1.247 . S
O39 Zn33 2.035 1_556 S
O39 C41 1.258 1_455 S
C40 O34 1.247 . S
C40 O35 1.258 1_455 S
C41 O38 1.247 . S
C41 O39 1.258 1_655 S
C42 O44 1.249 . S
C42 O46 1.256 1_556 S
C43 O50 1.251 . S
C43 O51 1.254 1_554 S
O44 C42 1.249 . S
O44 Zn45 2.028 . S
Zn45 O44 2.028 . S
Zn45 O49 2.035 . S
Zn45 O51 2.035 . S
Zn45 O52 2.028 . S
O46 C42 1.256 1_554 S
O46 Zn47 2.035 . S
Zn47 O46 2.035 . S
Zn47 O48 2.028 . S
Zn47 O50 2.028 . S
Zn47 O53 2.035 . S
O48 Zn47 2.028 . S
O48 C54 1.251 . S
O49 Zn45 2.035 . S
O49 C54 1.254 1_556 S
O50 C43 1.251 . S
O50 Zn47 2.028 . S
O51 C43 1.254 1_556 S
O51 Zn45 2.035 . S
O52 Zn45 2.028 . S
O52 C55 1.249 . S
O53 Zn47 2.035 . S
O53 C55 1.256 1_554 S
C54 O48 1.251 . S
C54 O49 1.254 1_554 S
C55 O52 1.249 . S
C55 O53 1.256 1_556 S
C56 O58 1.251 . S
C56 O60 1.254 1_455 S
C57 O64 1.249 . S
C57 O65 1.256 1_655 S
O58 C56 1.251 . S
O58 Zn59 2.028 . S
Zn59 O58 2.028 . S
Zn59 O63 2.035 . S
Zn59 O65 2.035 . S
Zn59 O66 2.028 . S
O60 C56 1.254 1_655 S
O60 Zn61 2.035 . S
Zn61 O60 2.035 . S
Zn61 O62 2.028 . S
Zn61 O64 2.028 . S
Zn61 O67 2.035 . S
O62 Zn61 2.028 . S
O62 C68 1.249 . S
O63 Zn59 2.035 . S
O63 C68 1.256 1_455 S
O64 C57 1.249 . S
O64 Zn61 2.028 . S
O65 C57 1.256 1_455 S
O65 Zn59 2.035 . S
O66 Zn59 2.028 . S
O66 C69 1.251 . S
O67 Zn61 2.035 . S
O67 C69 1.254 1_655 S
C68 O62 1.249 . S
C68 O63 1.256 1_655 S
C69 O66 1.251 . S
C69 O67 1.254 1_455 S
C70 O72 1.249 . S
C70 O74 1.256 1_565 S
C71 O78 1.251 . S
C71 O79 1.254 1_545 S
O72 C70 1.249 . S
O72 Zn73 2.028 . S
Zn73 O72 2.028 . S
Zn73 O77 2.035 . S
Zn73 O79 2.035 . S
Zn73 O80 2.028 . S
O74 C70 1.256 1_545 S
O74 Zn75 2.035 . S
Zn75 O74 2.035 . S
Zn75 O76 2.028 . S
Zn75 O78 2.028 . S
Zn75 O81 2.035 . S
O76 Zn75 2.028 . S
O76 C82 1.251 . S
O77 Zn73 2.035 . S
O77 C82 1.254 1_565 S
O78 C71 1.251 . S
O78 Zn75 2.028 . S
O79 C71 1.254 1_565 S
O79 Zn73 2.035 . S
O80 Zn73 2.028 . S
O80 C83 1.249 . S
O81 Zn75 2.035 . S
O81 C83 1.256 1_545 S
C82 O76 1.251 . S
C82 O77 1.254 1_545 S
C83 O80 1.249 . S
C83 O81 1.256 1_565 S
C0 C57 1.495 1_455 S
C13 C70 1.498 . S
C56 C1 1.497 1_455 S
C71 C12 1.496 . S
C83 C26 1.495 1_565 S
C40 C69 1.496 . S
C82 C27 1.497 1_545 S
C68 C41 1.498 . S
C28 C55 1.495 1_554 S
C43 C14 1.496 . S
C29 C54 1.497 1_556 S
C42 C15 1.498 . S
