# Generated by pormake.
# Topology qzd, (4)-cn, num edge types: 1
# Building blocks:
#     Node 0, Type 0, BuildingBlock: ESEHIV_clean_sbu_0, # of connection points: 4
#     Node 1, Type 0, BuildingBlock: ESEHIV_clean_sbu_0, # of connection points: 4
#     Node 2, Type 0, BuildingBlock: ESEHIV_clean_sbu_0, # of connection points: 4
#     Edge 3, Type (0, 0), BuildingBlock: AJUNOK_clean_linker_0, # of connection points: 2
#     Edge 4, Type (0, 0), BuildingBlock: AJUNOK_clean_linker_0, # of connection points: 2
#     Edge 5, Type (0, 0), BuildingBlock: AJUNOK_clean_linker_0, # of connection points: 2
#     Edge 6, Type (0, 0), BuildingBlock: AJUNOK_clean_linker_0, # of connection points: 2
#     Edge 7, Type (0, 0), BuildingBlock: AJUNOK_clean_linker_0, # of connection points: 2
#     Edge 8, Type (0, 0), BuildingBlock: AJUNOK_clean_linker_0, # of connection points: 2
# Relax obj value: 0.000
# Max RMSD: 0.157
# Mean RMSD: 0.078
data_MOF--net-qzd--node1-ESEHIV_clean_sbu_0--edge1-AJUNOK_clean_linker_0
_symmetry_space_group_name_H-M    P1
_symmetry_Int_Tables_number       1
_symmetry_cell_setting            triclinic
loop_
_symmetry_equiv_pos_as_xyz
'x, y, z'
_cell_length_a     10.68845
_cell_length_b     12.949938
_cell_length_c     34.115253
_cell_angle_alpha  99.618703
_cell_angle_beta   98.893889
_cell_angle_gamma 114.06985
loop_
_atom_site_label
_atom_site_type_symbol
_atom_site_fract_x
_atom_site_fract_y
_atom_site_fract_z
_atom_type_partial_charge
Cu0 Cu 0.36837 0.24272 0.08551 0.0
N1 N 0.35373 0.15339 0.12398 0.0
N2 N 0.32315 0.09701 0.18173 0.0
C3 C 0.33825 0.18225 0.16215 0.0
C4 C 0.32782 1.01066 0.15465 0.0
C5 C 0.34758 1.046 0.11913 0.0
O6 O 0.2707 0.33731 0.10027 0.0
C7 C 0.6705 0.34779 0.11422 0.0
O8 O 0.6446 0.32853 0.14938 0.0
H9 H 0.33344 0.26261 0.17476 0.0
H10 H 0.35408 0.99606 0.09141 0.0
N11 N 0.27077 0.14217 0.03327 0.0
N12 N 0.2015 0.06904 0.96506 0.0
C13 C 0.30221 0.15467 0.99696 0.0
C14 C 0.14704 1.04556 0.02415 0.0
C15 C 0.10433 1.00023 0.98227 0.0
C16 C 0.18138 0.34944 0.07431 0.0
O17 O 0.17434 0.31805 0.03507 0.0
H18 H 0.39649 0.22546 0.99418 0.0
H19 H 0.09025 1.01226 0.04642 0.0
O20 O 0.56719 0.32655 0.08463 0.0
H21 H 0.31664 0.92767 0.16008 0.0
H22 H 1.00657 0.92436 0.96565 0.0
Cu23 Cu 0.16774 0.21167 0.41595 0.0
N24 N 0.21953 0.37255 0.42513 0.0
N25 N 0.34368 0.56123 0.42656 0.0
C26 C 0.33818 0.45337 0.41897 0.0
C27 C 0.22287 0.5473 0.43758 0.0
C28 C 0.14665 0.43107 0.43664 0.0
O29 O 0.24289 0.17491 0.36969 0.0
C30 C 0.22424 0.22159 0.49964 0.0
O31 O 0.17896 0.30198 0.50066 0.0
H32 H 0.4186 0.43317 0.40884 0.0
H33 H 1.04425 0.3917 0.4433 0.0
N34 N 0.971 0.12277 0.40334 0.0
N35 N 0.76222 0.97859 0.40141 0.0
C36 C 0.90372 1.01902 0.41202 0.0
C37 C 0.86797 0.14837 0.38661 0.0
C38 C 0.7386 0.05952 0.38563 0.0
C39 C 0.17248 0.09167 0.33748 0.0
O40 O 1.04551 1.01325 0.33649 0.0
H41 H 0.95751 0.97532 0.42669 0.0
H42 H 0.8857 0.22691 0.3765 0.0
O43 O 0.23875 0.17554 0.46562 0.0
H44 H 0.18937 0.61523 0.44447 0.0
H45 H 0.63548 1.05512 0.37465 0.0
Cu46 Cu 1.03783 1.01911 0.70954 0.0
N47 N 0.92251 0.09556 0.71066 0.0
N48 N 0.85099 0.23463 0.70618 0.0
C49 C 0.93745 0.18834 0.69539 0.0
C50 C 0.77965 0.16804 0.72936 0.0
C51 C 0.8234 0.08239 0.73187 0.0
O52 O 0.156 0.08124 0.67251 0.0
C53 C 0.07266 0.99318 0.78946 0.0
O54 O 0.94231 0.91201 0.7734 0.0
H55 H 1.01365 0.22333 0.67778 0.0
H56 H 0.79018 1.01871 0.74963 0.0
N57 N 0.92729 0.85691 0.6892 0.0
N58 N 0.85336 0.6643 0.6807 0.0
C59 C 0.96052 0.77219 0.69818 0.0
C60 C 0.7957 0.80071 0.66458 0.0
C61 C 0.74989 0.68188 0.65918 0.0
C62 C 0.15277 1.01872 0.63885 0.0
O63 O 0.0858 0.90441 0.63138 0.0
H64 H 1.05934 0.78962 0.71846 0.0
H65 H 0.73666 0.84337 0.65191 0.0
O66 O 0.14012 1.05236 0.76669 0.0
H67 H 0.70722 0.18369 0.74557 0.0
H68 H 0.64838 0.61392 0.64081 0.0
C69 C 0.95533 0.36778 0.057 0.0
C70 C 0.066 0.37332 0.08709 0.0
C71 C 0.8317 0.36696 0.06652 0.0
C72 C 0.81273 0.37165 0.10663 0.0
H73 H 0.96074 0.35828 0.02524 0.0
H74 H 0.74761 0.35679 0.0417 0.0
S75 S 0.07932 0.40562 0.19817 0.0
N76 N 0.15473 0.39742 0.1598 0.0
N77 N 0.92339 0.3962 0.17773 0.0
C78 C 0.92693 0.38615 0.13766 0.0
C79 C 1.05306 0.38696 0.12792 0.0
C80 C 0.62142 0.76424 0.38285 0.0
C81 C 0.6586 0.87465 0.40827 0.0
C82 C 0.51923 0.66209 0.38917 0.0
C83 C 0.45135 0.66703 0.42127 0.0
H84 H 0.67069 0.75736 0.35772 0.0
H85 H 0.49138 0.57888 0.36835 0.0
S86 S 0.52601 0.93613 0.49892 0.0
N87 N 0.6285 0.98374 0.46788 0.0
N88 N 0.43895 0.79258 0.48068 0.0
C89 C 0.49132 0.77754 0.4475 0.0
C90 C 0.59447 0.88113 0.44079 0.0
C91 C 0.97066 0.5362 0.68779 0.0
C92 C 0.84914 0.55451 0.68587 0.0
C93 C 0.96983 0.4312 0.69374 0.0
C94 C 0.84756 0.34021 0.69834 0.0
H95 H 0.06722 0.60368 0.68457 0.0
H96 H 0.06697 0.42259 0.69566 0.0
S97 S 0.50251 0.34636 0.69686 0.0
N98 N 0.60456 0.47469 0.69031 0.0
N99 N 0.60084 0.27611 0.69999 0.0
C100 C 0.72498 0.35748 0.69624 0.0
C101 C 0.72619 0.46464 0.69031 0.0
C102 C 0.15671 0.99178 0.26589 0.0
C103 C 0.2242 0.09174 0.29932 0.0
C104 C 0.19256 0.99302 0.228 0.0
C105 C 0.29573 0.09475 0.22178 0.0
H106 H 0.07344 0.91228 0.26871 0.0
H107 H 0.13559 0.91498 0.20292 0.0
S108 S 0.51148 0.37739 0.29966 0.0
N109 N 0.40582 0.29382 0.32396 0.0
N110 N 0.47141 0.29554 0.25267 0.0
C111 C 0.36708 0.19415 0.25512 0.0
C112 C 0.33204 0.19271 0.29389 0.0
C113 C 0.22467 0.19114 0.60823 0.0
C114 C 0.19739 0.07375 0.60509 0.0
C115 C 0.2429 0.24006 0.57462 0.0
C116 C 0.23371 0.17377 0.53616 0.0
H117 H 0.22416 0.24439 0.63622 0.0
H118 H 0.25793 0.32944 0.57841 0.0
S119 S 0.17119 0.86382 0.51175 0.0
N120 N 0.17028 0.8941 0.56064 0.0
N121 N 0.20191 0.98567 0.49734 0.0
C122 C 0.2136 1.05802 0.53296 0.0
C123 C 0.19559 1.0081 0.56736 0.0
C124 C 0.09176 0.92229 0.85236 0.0
C125 C 0.13204 1.01655 0.83402 0.0
C126 C 0.12178 0.94048 0.89506 0.0
C127 C 0.19168 1.05387 0.92147 0.0
H128 H 1.03225 0.83331 0.83348 0.0
H129 H 0.08599 0.8648 0.90753 0.0
S130 S 0.32406 0.33091 0.88872 0.0
N131 N 0.25156 0.22745 0.84524 0.0
N132 N 0.30508 0.26249 0.92576 0.0
C133 C 0.23836 0.14922 0.90353 0.0
C134 C 0.20912 0.13032 0.85976 0.0
loop_
_geom_bond_atom_site_label_1
_geom_bond_atom_site_label_2
_geom_bond_distance
_geom_bond_site_symmetry_2
_ccdc_geom_bond_type
Cu0 N1 1.999 . S
Cu0 O6 1.974 1_455 S
Cu0 N11 1.985 1_554 S
Cu0 O20 1.959 . S
N1 Cu0 1.999 . S
N1 C3 1.263 1_455 S
N1 C5 1.389 . S
N2 C3 1.358 1_455 S
N2 C4 1.400 . S
C3 N1 1.263 1_655 S
C3 N2 1.358 1_655 S
C3 H9 0.930 1_545 S
C4 N2 1.400 . S
C4 C5 1.351 . S
C4 H21 0.930 . S
C5 N1 1.389 . S
C5 C4 1.351 . S
C5 H10 0.930 . S
O6 Cu0 1.974 1_655 S
O6 C16 1.282 1_545 S
C7 O8 1.261 . S
C7 O20 1.251 1_565 S
O8 C7 1.261 . S
H9 C3 0.930 1_565 S
H10 C5 0.930 . S
N11 Cu0 1.985 1_556 S
N11 C13 1.335 . S
N11 C14 1.390 1_445 S
N12 C13 1.345 . S
N12 C15 1.336 1_445 S
C13 N11 1.335 . S
C13 N12 1.345 . S
C13 H18 0.930 . S
C14 N11 1.390 1_665 S
C14 C15 1.346 . S
C14 H19 0.930 . S
C15 N12 1.336 1_665 S
C15 C14 1.346 . S
C15 H22 0.929 . S
C16 O6 1.282 1_565 S
C16 O17 1.216 . S
O17 C16 1.216 . S
H18 C13 0.930 . S
H19 C14 0.930 . S
O20 Cu0 1.959 . S
O20 C7 1.251 1_545 S
H21 C4 0.930 . S
H22 C15 0.929 . S
Cu23 N24 1.999 . S
Cu23 O29 1.974 . S
Cu23 N34 1.985 1_445 S
Cu23 O43 1.959 . S
N24 Cu23 1.999 . S
N24 C26 1.263 . S
N24 C28 1.389 . S
N25 C26 1.358 . S
N25 C27 1.400 . S
C26 N24 1.263 . S
C26 N25 1.358 . S
C26 H32 0.930 . S
C27 N25 1.400 . S
C27 C28 1.351 . S
C27 H44 0.930 . S
C28 N24 1.389 . S
C28 C27 1.351 . S
C28 H33 0.930 . S
O29 Cu23 1.974 . S
O29 C39 1.282 1_455 S
C30 O31 1.258 1_455 S
C30 O43 1.256 . S
O31 C30 1.258 1_655 S
H32 C26 0.930 . S
H33 C28 0.930 . S
N34 Cu23 1.985 1_665 S
N34 C36 1.335 . S
N34 C37 1.390 . S
N35 C36 1.345 . S
N35 C38 1.336 . S
C36 N34 1.335 . S
C36 N35 1.345 . S
C36 H41 0.930 . S
C37 N34 1.390 . S
C37 C38 1.346 . S
C37 H42 0.930 . S
C38 N35 1.336 . S
C38 C37 1.346 . S
C38 H45 0.929 . S
C39 O29 1.282 1_655 S
C39 O40 1.216 . S
O40 C39 1.216 . S
H41 C36 0.930 . S
H42 C37 0.930 . S
O43 Cu23 1.959 . S
O43 C30 1.256 . S
H44 C27 0.930 . S
H45 C38 0.929 . S
Cu46 N47 1.999 . S
Cu46 O52 1.974 . S
Cu46 N57 1.985 1_545 S
Cu46 O66 1.959 . S
N47 Cu46 1.999 . S
N47 C49 1.263 . S
N47 C51 1.389 . S
N48 C49 1.358 . S
N48 C50 1.400 . S
C49 N47 1.263 . S
C49 N48 1.358 . S
C49 H55 0.930 . S
C50 N48 1.400 . S
C50 C51 1.351 . S
C50 H67 0.930 . S
C51 N47 1.389 . S
C51 C50 1.351 . S
C51 H56 0.930 . S
O52 Cu46 1.974 . S
O52 C62 1.282 . S
C53 O54 1.261 . S
C53 O66 1.251 . S
O54 C53 1.261 . S
H55 C49 0.930 . S
H56 C51 0.930 . S
N57 Cu46 1.985 1_565 S
N57 C59 1.335 . S
N57 C60 1.390 . S
N58 C59 1.345 . S
N58 C61 1.336 . S
C59 N57 1.335 . S
C59 N58 1.345 . S
C59 H64 0.930 . S
C60 N57 1.390 . S
C60 C61 1.346 . S
C60 H65 0.930 . S
C61 N58 1.336 . S
C61 C60 1.346 . S
C61 H68 0.929 . S
C62 O52 1.282 . S
C62 O63 1.216 . S
O63 C62 1.216 . S
H64 C59 0.930 . S
H65 C60 0.930 . S
O66 Cu46 1.959 . S
O66 C53 1.251 . S
H67 C50 0.930 . S
H68 C61 0.929 . S
C69 C70 1.369 1_545 S
C69 C71 1.419 . S
C69 H73 0.930 . S
C70 C69 1.369 1_565 S
C70 C79 1.429 . S
C71 C69 1.419 . S
C71 C72 1.363 1_545 S
C71 H74 0.929 . S
C72 C71 1.363 1_565 S
C72 C78 1.428 . S
H73 C69 0.930 . S
H74 C71 0.929 . S
S75 N76 1.613 . S
S75 N77 1.610 . S
N76 S75 1.613 . S
N76 C79 1.350 . S
N77 S75 1.610 . S
N77 C78 1.351 . S
C78 C72 1.428 . S
C78 N77 1.351 . S
C78 C79 1.434 . S
C79 C70 1.429 . S
C79 N76 1.350 . S
C79 C78 1.434 . S
C80 C81 1.369 . S
C80 C82 1.419 . S
C80 H84 0.930 . S
C81 C80 1.369 . S
C81 C90 1.429 . S
C82 C80 1.419 . S
C82 C83 1.363 . S
C82 H85 0.929 . S
C83 C82 1.363 . S
C83 C89 1.428 . S
H84 C80 0.930 . S
H85 C82 0.929 . S
S86 N87 1.613 . S
S86 N88 1.610 . S
N87 S86 1.613 . S
N87 C90 1.350 . S
N88 S86 1.610 . S
N88 C89 1.351 . S
C89 C83 1.428 . S
C89 N88 1.351 . S
C89 C90 1.434 . S
C90 C81 1.429 . S
C90 N87 1.350 . S
C90 C89 1.434 . S
C91 C92 1.369 . S
C91 C93 1.419 . S
C91 H95 0.930 . S
C92 C91 1.369 . S
C92 C101 1.429 . S
C93 C91 1.419 . S
C93 C94 1.363 . S
C93 H96 0.929 . S
C94 C93 1.363 . S
C94 C100 1.428 . S
H95 C91 0.930 . S
H96 C93 0.929 . S
S97 N98 1.613 1_655 S
S97 N99 1.602 1_655 S
N98 S97 1.613 1_455 S
N98 C101 1.350 . S
N99 S97 1.602 1_455 S
N99 C100 1.358 . S
C100 C94 1.428 . S
C100 N99 1.358 . S
C100 C101 1.434 . S
C101 C92 1.429 . S
C101 N98 1.350 . S
C101 C100 1.434 . S
C102 C103 1.369 1_565 S
C102 C104 1.419 . S
C102 H106 0.930 . S
C103 C102 1.369 1_545 S
C103 C112 1.429 1_655 S
C104 C102 1.419 . S
C104 C105 1.358 1_665 S
C104 H107 0.929 . S
C105 C104 1.358 1_445 S
C105 C111 1.430 . S
H106 C102 0.930 . S
H107 C104 0.929 . S
S108 N109 1.613 . S
S108 N110 1.610 . S
N109 S108 1.613 . S
N109 C112 1.350 . S
N110 S108 1.610 . S
N110 C111 1.351 . S
C111 C105 1.430 . S
C111 N110 1.351 . S
C111 C112 1.434 . S
C112 C103 1.429 1_455 S
C112 N109 1.350 . S
C112 C111 1.434 . S
C113 C114 1.369 . S
C113 C115 1.419 . S
C113 H117 0.930 . S
C114 C113 1.369 . S
C114 C123 1.429 1_455 S
C115 C113 1.419 . S
C115 C116 1.363 . S
C115 H118 0.929 . S
C116 C115 1.363 . S
C116 C122 1.428 1_455 S
H117 C113 0.930 . S
H118 C115 0.929 . S
S119 N120 1.613 . S
S119 N121 1.610 . S
N120 S119 1.613 . S
N120 C123 1.350 1_565 S
N121 S119 1.610 . S
N121 C122 1.351 1_565 S
C122 C116 1.428 1_655 S
C122 N121 1.351 1_545 S
C122 C123 1.434 . S
C123 C114 1.429 1_655 S
C123 N120 1.350 1_545 S
C123 C122 1.434 . S
C124 C125 1.369 1_565 S
C124 C126 1.419 . S
C124 H128 0.930 . S
C125 C124 1.369 1_545 S
C125 C134 1.429 . S
C126 C124 1.419 . S
C126 C127 1.363 1_565 S
C126 H129 0.929 . S
C127 C126 1.363 1_545 S
C127 C133 1.428 . S
H128 C124 0.930 . S
H129 C126 0.929 . S
S130 N131 1.613 . S
S130 N132 1.610 . S
N131 S130 1.613 . S
N131 C134 1.350 . S
N132 S130 1.610 . S
N132 C133 1.351 . S
C133 C127 1.428 . S
C133 N132 1.351 . S
C133 C134 1.434 . S
C134 C125 1.429 . S
C134 N131 1.350 . S
C134 C133 1.434 . S
C70 C16 1.489 . S
C72 C7 1.498 . S
C81 N35 1.469 . S
C83 N25 1.462 . S
C92 N58 1.466 . S
C94 N48 1.462 . S
C103 C39 1.593 . S
C105 N2 1.542 . S
C114 C62 1.573 . S
C116 C30 1.595 . S
C125 C53 1.513 . S
C127 N12 1.492 . S
