# Generated by pormake.
# Topology dmp, (4)-cn, num edge types: 1
# Building blocks:
#     Node 0, Type 0, BuildingBlock: CEKHIL_clean_sbu_0, # of connection points: 4
#     Node 1, Type 0, BuildingBlock: CEKHIL_clean_sbu_0, # of connection points: 4
#     Node 2, Type 0, BuildingBlock: CEKHIL_clean_sbu_0, # of connection points: 4
#     Node 3, Type 0, BuildingBlock: CEKHIL_clean_sbu_0, # of connection points: 4
#     Edge 4, Type (0, 0), BuildingBlock: KIFKEQ_clean_linker_1, # of connection points: 2
#     Edge 5, Type (0, 0), BuildingBlock: KIFKEQ_clean_linker_1, # of connection points: 2
#     Edge 6, Type (0, 0), BuildingBlock: KIFKEQ_clean_linker_1, # of connection points: 2
#     Edge 7, Type (0, 0), BuildingBlock: KIFKEQ_clean_linker_1, # of connection points: 2
#     Edge 8, Type (0, 0), BuildingBlock: KIFKEQ_clean_linker_1, # of connection points: 2
#     Edge 9, Type (0, 0), BuildingBlock: KIFKEQ_clean_linker_1, # of connection points: 2
#     Edge 10, Type (0, 0), BuildingBlock: KIFKEQ_clean_linker_1, # of connection points: 2
#     Edge 11, Type (0, 0), BuildingBlock: KIFKEQ_clean_linker_1, # of connection points: 2
# Relax obj value: 0.088
# Max RMSD: 0.196
# Mean RMSD: 0.196
data_MOF--net-dmp--node1-CEKHIL_clean_sbu_0--edge1-KIFKEQ_clean_linker_1
_symmetry_space_group_name_H-M    P1
_symmetry_Int_Tables_number       1
_symmetry_cell_setting            triclinic
loop_
_symmetry_equiv_pos_as_xyz
'x, y, z'
_cell_length_a     38.986261
_cell_length_b     19.791962
_cell_length_c     14.827814
_cell_angle_alpha  90.065922
_cell_angle_beta   89.935817
_cell_angle_gamma 90.932043
loop_
_atom_site_label
_atom_site_type_symbol
_atom_site_fract_x
_atom_site_fract_y
_atom_site_fract_z
_atom_type_partial_charge
Co0 Co 0.11267 0.23291 0.25002 0.0
O1 O 0.08099 0.30594 0.2401 0.0
O2 O 0.10796 0.27742 0.36552 0.0
C3 C 0.07963 0.15683 0.17589 0.0
O4 O 0.14668 0.16027 0.28599 0.0
Co5 Co 0.14434 0.16802 0.07885 0.0
O6 O 0.15766 0.09612 0.16443 0.0
C7 C 0.17161 0.29914 0.1461 0.0
C8 C 0.08623 0.31651 0.32533 0.0
C9 C 0.15999 0.10806 0.24867 0.0
O10 O 0.15184 0.29505 0.21552 0.0
O11 O 0.17082 0.25607 0.08147 0.0
O12 O 0.07453 0.16828 0.26109 0.0
O13 O 0.10247 0.19491 0.13733 0.0
Co14 Co 0.41228 0.73505 0.25324 0.0
O15 O 0.44505 0.66385 0.24442 0.0
O16 O 0.41713 0.6913 0.3691 0.0
C17 C 0.44449 0.81272 0.17956 0.0
O18 O 0.37707 0.80592 0.28783 0.0
Co19 Co 0.38047 0.79667 0.08038 0.0
O20 O 0.36551 0.86811 0.16503 0.0
C21 C 0.35523 0.66421 0.14758 0.0
C22 C 0.43955 0.65323 0.32953 0.0
C23 C 0.36311 0.8569 0.24942 0.0
O24 O 0.3742 0.6705 0.21816 0.0
O25 O 0.35588 0.70653 0.08222 0.0
O26 O 0.44941 0.80188 0.26492 0.0
O27 O 0.42244 0.77307 0.14063 0.0
Co28 Co 0.91376 0.73615 0.73507 0.0
O29 O 0.948 0.66791 0.74088 0.0
O30 O 0.91961 0.69502 0.61721 0.0
C31 C 0.9445 0.81399 0.81282 0.0
O32 O 0.87736 0.80527 0.70446 0.0
Co33 Co 0.88116 0.78942 0.91242 0.0
O34 O 0.86485 0.86217 0.83153 0.0
C35 C 0.85807 0.65837 0.83695 0.0
C36 C 0.94297 0.65844 0.65544 0.0
C37 C 0.86269 0.85392 0.74642 0.0
O38 O 0.87661 0.66842 0.76626 0.0
O39 O 0.85852 0.69745 0.90588 0.0
O40 O 0.94946 0.80632 0.72678 0.0
O41 O 0.92336 0.77141 0.84956 0.0
Co42 Co 0.61079 0.23254 0.73857 0.0
O43 O 0.57729 0.30217 0.74529 0.0
O44 O 0.6052 0.27403 0.62103 0.0
C45 C 0.57935 0.15593 0.81647 0.0
O46 O 0.64643 0.16205 0.70692 0.0
Co47 Co 0.64315 0.17753 0.91481 0.0
O48 O 0.65863 0.10431 0.83323 0.0
C49 C 0.66764 0.30764 0.83951 0.0
C50 C 0.5823 0.31152 0.65981 0.0
C51 C 0.66075 0.11276 0.74817 0.0
O52 O 0.64869 0.29871 0.76941 0.0
O53 O 0.667 0.26834 0.9081 0.0
O54 O 0.57437 0.16382 0.73054 0.0
O55 O 0.60101 0.19755 0.85309 0.0
H56 H 0.31462 0.81204 0.36818 0.0
H57 H 0.35402 -0.0076 0.23879 0.0
H58 H 0.26248 0.87207 0.41046 0.0
H59 H 0.3026 0.05277 0.28317 0.0
H60 H 0.16852 0.97226 0.23874 0.0
H61 H 0.21975 0.91151 0.28331 0.0
H62 H 0.26003 0.09203 0.411 0.0
H63 H 0.20813 0.15245 0.36851 0.0
C64 C 0.31287 0.86536 0.3527 0.0
C65 C 0.33816 0.89764 0.29979 0.0
C66 C 0.28299 0.89952 0.37652 0.0
C67 C 0.27847 0.96689 0.34972 0.0
C68 C 0.3055 0.00107 0.30548 0.0
C69 C 0.33491 0.96653 0.27979 0.0
C70 C 0.18761 -0.00198 0.27992 0.0
C71 C 0.18451 0.067 0.29981 0.0
C72 C 0.2169 0.96324 0.30571 0.0
C73 C 0.24396 -0.0027 0.34997 0.0
C74 C 0.23951 0.06469 0.37698 0.0
C75 C 0.20976 0.09908 0.35304 0.0
H76 H 0.18546 0.39521 0.27474 0.0
H77 H 0.21735 0.32778 0.01041 0.0
H78 H 0.23063 0.48165 0.27282 0.0
H79 H 0.26271 0.41385 0.00943 0.0
H80 H 0.31438 0.62588 0.00566 0.0
H81 H 0.26978 0.53824 0.00378 0.0
H82 H 0.29422 0.48621 0.27882 0.0
H83 H 0.33861 0.57424 0.28149 0.0
C84 C 0.20197 0.39884 0.21609 0.0
C85 C 0.19774 0.35433 0.14277 0.0
C86 C 0.22804 0.44808 0.21539 0.0
C87 C 0.25035 0.45417 0.14127 0.0
C88 C 0.24576 0.41064 0.06725 0.0
C89 C 0.21979 0.36118 0.06803 0.0
C90 C 0.31042 0.59558 0.06567 0.0
C91 C 0.33002 0.60743 0.14388 0.0
C92 C 0.28493 0.54518 0.06438 0.0
C93 C 0.27834 0.50576 0.14136 0.0
C94 C 0.29838 0.51655 0.21892 0.0
C95 C 0.32401 0.56667 0.22011 0.0
H96 H 0.70952 0.15442 0.62852 0.0
H97 H 0.669 0.97731 0.76345 0.0
H98 H 0.76111 0.09215 0.58734 0.0
H99 H 0.71984 0.91459 0.71982 0.0
H100 H 0.85417 -0.01078 0.76222 0.0
H101 H 0.80319 0.05163 0.7194 0.0
H102 H 0.76194 0.87369 0.58747 0.0
H103 H 0.81368 0.81171 0.62783 0.0
C104 C 0.71091 0.1013 0.64549 0.0
C105 C 0.68549 0.07056 0.69953 0.0
C106 C 0.74044 0.06587 0.62223 0.0
C107 C 0.74443 -0.00125 0.65065 0.0
C108 C 0.71727 0.96607 0.69629 0.0
C109 C 0.68824 0.00194 0.72156 0.0
C110 C 0.83489 0.96443 0.72063 0.0
C111 C 0.83771 0.89581 0.69847 0.0
C112 C 0.80578 0.00012 0.69583 0.0
C113 C 0.77862 0.96727 0.65052 0.0
C114 C 0.78262 0.9001 0.62209 0.0
C115 C 0.81223 0.86484 0.64488 0.0
H116 H 0.81912 0.61829 0.69499 0.0
H117 H 0.83854 0.57573 0.97533 0.0
H118 H 0.77176 0.53717 0.69499 0.0
H119 H 0.79302 0.48995 0.9744 0.0
H120 H 0.68915 0.38794 0.97852 0.0
H121 H 0.73514 0.47269 0.97635 0.0
H122 H 0.75366 0.42792 0.69459 0.0
H123 H 0.70586 0.34782 0.69605 0.0
C124 C 0.81374 0.58998 0.75604 0.0
C125 C 0.83242 0.60298 0.83512 0.0
C126 C 0.7866 0.54309 0.75618 0.0
C127 C 0.77812 0.50656 0.83484 0.0
C128 C 0.79789 0.51814 0.9131 0.0
C129 C 0.82436 0.56663 0.91359 0.0
C130 C 0.70286 0.39729 0.91605 0.0
C131 C 0.69385 0.36203 0.83733 0.0
C132 C 0.72959 0.44521 0.91482 0.0
C133 C 0.74867 0.45729 0.83544 0.0
C134 C 0.73935 0.42163 0.75666 0.0
C135 C 0.71195 0.37533 0.75735 0.0
H136 H 0.01983 0.09385 0.22532 0.0
H137 H 0.09516 0.10365 0.01191 0.0
H138 H 0.9856 0.01373 0.13701 0.0
H139 H 0.06206 0.02105 0.92539 0.0
H140 H 0.98024 0.92423 0.75091 0.0
H141 H 1.01186 0.00808 0.83983 0.0
H142 H 0.98281 0.90233 0.08415 0.0
H143 H 0.94987 0.82094 -0.0047 0.0
C144 C 0.02927 0.07806 0.16 0.0
C145 C 0.06005 0.10503 0.12529 0.0
C146 C 1.00975 0.03191 0.10941 0.0
C147 C 0.02091 0.01095 0.02361 0.0
C148 C 0.05218 0.0371 0.9901 0.0
C149 C 0.07137 0.08401 0.04006 0.0
C150 C 0.98049 0.91936 0.82367 0.0
C151 C 0.96268 0.86614 0.86624 0.0
C152 C 0.99883 0.96704 0.87473 0.0
C153 C 1.0002 0.96185 0.9694 0.0
C154 C 0.98199 0.90872 0.01169 0.0
C155 C 0.96324 0.86174 0.96071 0.0
H156 H 0.54359 0.04559 0.75486 0.0
H157 H 0.57281 0.15093 -0.00125 0.0
H158 H 0.51159 0.96244 0.84392 0.0
H159 H 0.53942 0.07036 0.08771 0.0
H160 H 0.50328 0.87875 0.22994 0.0
H161 H 0.53698 0.95971 0.14181 0.0
H162 H 0.46135 0.94825 0.92876 0.0
H163 H 0.42882 0.8647 0.01516 0.0
C164 C 0.54296 0.0511 0.82754 0.0
C165 C 0.56065 0.10455 0.86996 0.0
C166 C 0.52439 0.00382 0.87869 0.0
C167 C 0.52264 0.00972 0.97327 0.0
C168 C 0.54057 0.06333 0.01536 0.0
C169 C 0.55959 0.10985 0.96432 0.0
C170 C 0.49388 0.89383 0.16436 0.0
C171 C 0.46355 0.86533 0.12917 0.0
C172 C 0.5131 0.9405 0.11387 0.0
C173 C 0.50206 0.96052 0.02767 0.0
C174 C 0.47115 0.93298 0.99377 0.0
C175 C 0.45229 0.88551 0.04365 0.0
H176 H 1.00091 0.59826 0.71319 0.0
H177 H 0.93262 0.60816 0.48466 0.0
H178 H 0.03645 0.51868 0.63322 0.0
H179 H 0.96744 0.52538 0.40529 0.0
H180 H 0.05423 0.42507 0.25374 0.0
H181 H 0.02017 0.50887 0.3321 0.0
H182 H 0.03888 0.40688 0.58478 0.0
H183 H 0.07441 0.32533 0.50643 0.0
C184 C 0.99327 0.58281 0.64594 0.0
C185 C 0.96389 0.60936 0.60525 0.0
C186 C 0.0136 0.53664 0.60017 0.0
C187 C 1.00484 0.51492 0.51278 0.0
C188 C 0.97533 0.54156 0.47199 0.0
C189 C 0.95518 0.58866 0.51757 0.0
C190 C 0.05123 0.421 0.32618 0.0
C191 C 0.06705 0.36888 0.37412 0.0
C192 C 0.03141 0.46868 0.37109 0.0
C193 C 0.02648 0.46474 0.46493 0.0
C194 C 0.04252 0.41248 0.51277 0.0
C195 C 0.06284 0.36547 0.46795 0.0
H196 H 0.47208 0.54502 0.25854 0.0
H197 H 0.45139 0.64567 0.5107 0.0
H198 H 0.50625 0.46192 0.33728 0.0
H199 H 0.48711 0.56486 0.58948 0.0
H200 H 0.52484 0.37333 0.71832 0.0
H201 H 0.4897 0.45351 0.63864 0.0
H202 H 0.55872 0.4453 0.41038 0.0
H203 H 0.59307 0.36186 0.48939 0.0
C204 C 0.47503 0.54949 0.33096 0.0
C205 C 0.459 0.60159 0.37864 0.0
C206 C 0.49492 0.5022 0.37609 0.0
C207 C 0.49975 0.50657 0.46992 0.0
C208 C 0.48356 0.55892 0.5175 0.0
C209 C 0.46314 0.60552 0.47244 0.0
C210 C 0.53256 0.38861 0.65107 0.0
C211 C 0.56177 0.36133 0.61011 0.0
C212 C 0.51248 0.43514 0.60546 0.0
C213 C 0.52131 0.45652 0.51799 0.0
C214 C 0.55073 0.42936 0.47709 0.0
C215 C 0.57062 0.38187 0.52248 0.0
loop_
_geom_bond_atom_site_label_1
_geom_bond_atom_site_label_2
_geom_bond_distance
_geom_bond_site_symmetry_2
_ccdc_geom_bond_type
Co0 O1 2.216 . S
Co0 O2 2.091 . S
Co0 O4 2.004 . S
Co0 O10 2.021 . S
Co0 O12 2.137 . S
Co0 O13 2.244 . S
O1 Co0 2.216 . S
O1 C8 1.247 . S
O2 Co0 2.091 . S
O2 C8 1.261 . S
C3 O12 1.247 . S
C3 O13 1.272 . S
O4 Co0 2.004 . S
O4 C9 1.259 . S
Co5 O6 2.061 . S
Co5 O11 2.052 . S
Co5 O13 2.135 . S
O6 Co5 2.061 . S
O6 C9 1.235 . S
C7 O10 1.238 . S
C7 O11 1.241 . S
C8 O1 1.247 . S
C8 O2 1.261 . S
C9 O4 1.259 . S
C9 O6 1.235 . S
O10 Co0 2.021 . S
O10 C7 1.238 . S
O11 Co5 2.052 . S
O11 C7 1.241 . S
O12 Co0 2.137 . S
O12 C3 1.247 . S
O13 Co0 2.244 . S
O13 C3 1.272 . S
O13 Co5 2.135 . S
Co14 O15 2.216 . S
Co14 O16 2.091 . S
Co14 O18 2.004 . S
Co14 O24 2.021 . S
Co14 O26 2.137 . S
Co14 O27 2.244 . S
O15 Co14 2.216 . S
O15 C22 1.247 . S
O16 Co14 2.091 . S
O16 C22 1.261 . S
C17 O26 1.247 . S
C17 O27 1.272 . S
O18 Co14 2.004 . S
O18 C23 1.259 . S
Co19 O20 2.061 . S
Co19 O25 2.052 . S
Co19 O27 2.135 . S
O20 Co19 2.061 . S
O20 C23 1.235 . S
C21 O24 1.238 . S
C21 O25 1.241 . S
C22 O15 1.247 . S
C22 O16 1.261 . S
C23 O18 1.259 . S
C23 O20 1.235 . S
O24 Co14 2.021 . S
O24 C21 1.238 . S
O25 Co19 2.052 . S
O25 C21 1.241 . S
O26 Co14 2.137 . S
O26 C17 1.247 . S
O27 Co14 2.244 . S
O27 C17 1.272 . S
O27 Co19 2.135 . S
Co28 O29 2.216 . S
Co28 O30 2.091 . S
Co28 O32 2.004 . S
Co28 O38 2.021 . S
Co28 O40 2.137 . S
Co28 O41 2.244 . S
O29 Co28 2.216 . S
O29 C36 1.247 . S
O30 Co28 2.091 . S
O30 C36 1.261 . S
C31 O40 1.247 . S
C31 O41 1.272 . S
O32 Co28 2.004 . S
O32 C37 1.259 . S
Co33 O34 2.061 . S
Co33 O39 2.052 . S
Co33 O41 2.135 . S
O34 Co33 2.061 . S
O34 C37 1.235 . S
C35 O38 1.238 . S
C35 O39 1.241 . S
C36 O29 1.247 . S
C36 O30 1.261 . S
C37 O32 1.259 . S
C37 O34 1.235 . S
O38 Co28 2.021 . S
O38 C35 1.238 . S
O39 Co33 2.052 . S
O39 C35 1.241 . S
O40 Co28 2.137 . S
O40 C31 1.247 . S
O41 Co28 2.244 . S
O41 C31 1.272 . S
O41 Co33 2.135 . S
Co42 O43 2.216 . S
Co42 O44 2.091 . S
Co42 O46 2.004 . S
Co42 O52 2.021 . S
Co42 O54 2.137 . S
Co42 O55 2.244 . S
O43 Co42 2.216 . S
O43 C50 1.247 . S
O44 Co42 2.091 . S
O44 C50 1.261 . S
C45 O54 1.247 . S
C45 O55 1.272 . S
O46 Co42 2.004 . S
O46 C51 1.259 . S
Co47 O48 2.061 . S
Co47 O53 2.052 . S
Co47 O55 2.135 . S
O48 Co47 2.061 . S
O48 C51 1.235 . S
C49 O52 1.238 . S
C49 O53 1.241 . S
C50 O43 1.247 . S
C50 O44 1.261 . S
C51 O46 1.259 . S
C51 O48 1.235 . S
O52 Co42 2.021 . S
O52 C49 1.238 . S
O53 Co47 2.052 . S
O53 C49 1.241 . S
O54 Co42 2.137 . S
O54 C45 1.247 . S
O55 Co42 2.244 . S
O55 C45 1.272 . S
O55 Co47 2.135 . S
H56 C64 0.950 . S
H57 C69 0.950 . S
H58 C66 0.950 . S
H59 C68 0.950 . S
H60 C70 0.950 . S
H61 C72 0.950 . S
H62 C74 0.950 . S
H63 C75 0.950 . S
C64 H56 0.950 . S
C64 C65 1.386 . S
C64 C66 1.391 . S
C65 C64 1.386 . S
C65 C69 1.393 . S
C66 H58 0.950 . S
C66 C64 1.391 . S
C66 C67 1.400 . S
C67 C66 1.400 . S
C67 C68 1.398 . S
C67 C73 1.491 1_565 S
C68 H59 0.950 . S
C68 C67 1.398 . S
C68 C69 1.391 . S
C69 H57 0.950 . S
C69 C65 1.393 . S
C69 C68 1.391 . S
C70 H60 0.950 . S
C70 C71 1.386 . S
C70 C72 1.391 . S
C71 C70 1.386 . S
C71 C75 1.393 . S
C72 H61 0.950 . S
C72 C70 1.391 . S
C72 C73 1.400 . S
C73 C67 1.491 1_545 S
C73 C72 1.400 . S
C73 C74 1.398 . S
C74 H62 0.950 . S
C74 C73 1.398 . S
C74 C75 1.391 . S
C75 H63 0.950 . S
C75 C71 1.393 . S
C75 C74 1.391 . S
H76 C84 0.950 . S
H77 C89 0.950 . S
H78 C86 0.950 . S
H79 C88 0.950 . S
H80 C90 0.950 . S
H81 C92 0.950 . S
H82 C94 0.950 . S
H83 C95 0.950 . S
C84 H76 0.950 . S
C84 C85 1.386 . S
C84 C86 1.391 . S
C85 C84 1.386 . S
C85 C89 1.393 . S
C86 H78 0.950 . S
C86 C84 1.391 . S
C86 C87 1.400 . S
C87 C86 1.400 . S
C87 C88 1.398 . S
C87 C93 1.491 . S
C88 H79 0.950 . S
C88 C87 1.398 . S
C88 C89 1.391 . S
C89 H77 0.950 . S
C89 C85 1.393 . S
C89 C88 1.391 . S
C90 H80 0.950 . S
C90 C91 1.386 . S
C90 C92 1.391 . S
C91 C90 1.386 . S
C91 C95 1.393 . S
C92 H81 0.950 . S
C92 C90 1.391 . S
C92 C93 1.400 . S
C93 C87 1.491 . S
C93 C92 1.400 . S
C93 C94 1.398 . S
C94 H82 0.950 . S
C94 C93 1.398 . S
C94 C95 1.391 . S
C95 H83 0.950 . S
C95 C91 1.393 . S
C95 C94 1.391 . S
H96 C104 0.950 . S
H97 C109 0.950 . S
H98 C106 0.950 . S
H99 C108 0.950 . S
H100 C110 0.950 . S
H101 C112 0.950 . S
H102 C114 0.950 . S
H103 C115 0.950 . S
C104 H96 0.950 . S
C104 C105 1.386 . S
C104 C106 1.391 . S
C105 C104 1.386 . S
C105 C109 1.393 . S
C106 H98 0.950 . S
C106 C104 1.391 . S
C106 C107 1.400 . S
C107 C106 1.400 . S
C107 C108 1.398 . S
C107 C113 1.491 1_545 S
C108 H99 0.950 . S
C108 C107 1.398 . S
C108 C109 1.391 . S
C109 H97 0.950 . S
C109 C105 1.393 . S
C109 C108 1.391 . S
C110 H100 0.950 . S
C110 C111 1.386 . S
C110 C112 1.391 . S
C111 C110 1.386 . S
C111 C115 1.393 . S
C112 H101 0.950 . S
C112 C110 1.391 . S
C112 C113 1.400 . S
C113 C107 1.491 1_565 S
C113 C112 1.400 . S
C113 C114 1.398 . S
C114 H102 0.950 . S
C114 C113 1.398 . S
C114 C115 1.391 . S
C115 H103 0.950 . S
C115 C111 1.393 . S
C115 C114 1.391 . S
H116 C124 0.950 . S
H117 C129 0.950 . S
H118 C126 0.950 . S
H119 C128 0.950 . S
H120 C130 0.950 . S
H121 C132 0.950 . S
H122 C134 0.950 . S
H123 C135 0.950 . S
C124 H116 0.950 . S
C124 C125 1.386 . S
C124 C126 1.391 . S
C125 C124 1.386 . S
C125 C129 1.393 . S
C126 H118 0.950 . S
C126 C124 1.391 . S
C126 C127 1.400 . S
C127 C126 1.400 . S
C127 C128 1.398 . S
C127 C133 1.491 . S
C128 H119 0.950 . S
C128 C127 1.398 . S
C128 C129 1.391 . S
C129 H117 0.950 . S
C129 C125 1.393 . S
C129 C128 1.391 . S
C130 H120 0.950 . S
C130 C131 1.386 . S
C130 C132 1.391 . S
C131 C130 1.386 . S
C131 C135 1.393 . S
C132 H121 0.950 . S
C132 C130 1.391 . S
C132 C133 1.400 . S
C133 C127 1.491 . S
C133 C132 1.400 . S
C133 C134 1.398 . S
C134 H122 0.950 . S
C134 C133 1.398 . S
C134 C135 1.391 . S
C135 H123 0.950 . S
C135 C131 1.393 . S
C135 C134 1.391 . S
H136 C144 0.950 . S
H137 C149 0.954 . S
H138 C146 0.950 1_565 S
H139 C148 0.950 . S
H140 C150 0.950 . S
H141 C152 0.950 1_545 S
H142 C154 0.950 . S
H143 C155 0.954 . S
C144 H136 0.950 . S
C144 C145 1.386 . S
C144 C146 1.391 . S
C145 C144 1.386 . S
C145 C149 1.386 1_554 S
C146 H138 0.950 1_545 S
C146 C144 1.391 . S
C146 C147 1.400 . S
C147 C146 1.400 . S
C147 C148 1.398 1_554 S
C147 C153 1.491 1_444 S
C148 H139 0.950 . S
C148 C147 1.398 1_556 S
C148 C149 1.393 . S
C149 H137 0.954 . S
C149 C145 1.386 1_556 S
C149 C148 1.393 . S
C150 H140 0.950 . S
C150 C151 1.386 . S
C150 C152 1.391 . S
C151 C150 1.386 . S
C151 C155 1.386 1_556 S
C152 H141 0.950 1_565 S
C152 C150 1.391 . S
C152 C153 1.400 . S
C153 C147 1.491 1_666 S
C153 C152 1.400 . S
C153 C154 1.398 1_556 S
C154 H142 0.950 . S
C154 C153 1.398 1_554 S
C154 C155 1.393 . S
C155 H143 0.954 . S
C155 C151 1.386 1_554 S
C155 C154 1.393 . S
H156 C164 0.950 . S
H157 C169 0.950 1_554 S
H158 C166 0.950 1_565 S
H159 C168 0.950 . S
H160 C170 0.950 . S
H161 C172 0.950 1_545 S
H162 C174 0.950 . S
H163 C175 0.950 1_556 S
C164 H156 0.950 . S
C164 C165 1.386 . S
C164 C166 1.391 . S
C165 C164 1.386 . S
C165 C169 1.393 . S
C166 H158 0.950 1_545 S
C166 C164 1.391 . S
C166 C167 1.400 . S
C167 C166 1.400 . S
C167 C168 1.398 1_556 S
C167 C173 1.491 1_546 S
C168 H159 0.950 . S
C168 C167 1.398 1_554 S
C168 C169 1.391 1_554 S
C169 H157 0.950 1_556 S
C169 C165 1.393 . S
C169 C168 1.391 1_556 S
C170 H160 0.950 . S
C170 C171 1.386 . S
C170 C172 1.391 . S
C171 C170 1.386 . S
C171 C175 1.393 . S
C172 H161 0.950 1_565 S
C172 C170 1.391 . S
C172 C173 1.400 . S
C173 C167 1.491 1_564 S
C173 C172 1.400 . S
C173 C174 1.398 1_554 S
C174 H162 0.950 . S
C174 C173 1.398 1_556 S
C174 C175 1.391 1_556 S
C175 H163 0.950 1_554 S
C175 C171 1.393 . S
C175 C174 1.391 1_554 S
H176 C184 0.950 . S
H177 C189 0.950 . S
H178 C186 0.950 . S
H179 C188 0.950 1_455 S
H180 C190 0.950 . S
H181 C192 0.950 . S
H182 C194 0.950 1_655 S
H183 C195 0.950 . S
C184 H176 0.950 . S
C184 C185 1.386 . S
C184 C186 1.391 . S
C185 C184 1.386 . S
C185 C189 1.393 . S
C186 H178 0.950 . S
C186 C184 1.391 . S
C186 C187 1.400 . S
C187 C186 1.400 . S
C187 C188 1.398 . S
C187 C193 1.491 1_655 S
C188 H179 0.950 1_655 S
C188 C187 1.398 . S
C188 C189 1.391 . S
C189 H177 0.950 . S
C189 C185 1.393 . S
C189 C188 1.391 . S
C190 H180 0.950 . S
C190 C191 1.386 . S
C190 C192 1.391 . S
C191 C190 1.386 . S
C191 C195 1.393 . S
C192 H181 0.950 . S
C192 C190 1.391 . S
C192 C193 1.400 . S
C193 C187 1.491 1_455 S
C193 C192 1.400 . S
C193 C194 1.398 . S
C194 H182 0.950 1_455 S
C194 C193 1.398 . S
C194 C195 1.391 . S
C195 H183 0.950 . S
C195 C191 1.393 . S
C195 C194 1.391 . S
H196 C204 0.950 . S
H197 C209 0.950 . S
H198 C206 0.950 . S
H199 C208 0.950 . S
H200 C210 0.950 . S
H201 C212 0.950 . S
H202 C214 0.950 . S
H203 C215 0.950 . S
C204 H196 0.950 . S
C204 C205 1.386 . S
C204 C206 1.391 . S
C205 C204 1.386 . S
C205 C209 1.393 . S
C206 H198 0.950 . S
C206 C204 1.391 . S
C206 C207 1.400 . S
C207 C206 1.400 . S
C207 C208 1.398 . S
C207 C213 1.491 . S
C208 H199 0.950 . S
C208 C207 1.398 . S
C208 C209 1.391 . S
C209 H197 0.950 . S
C209 C205 1.393 . S
C209 C208 1.391 . S
C210 H200 0.950 . S
C210 C211 1.386 . S
C210 C212 1.391 . S
C211 C210 1.386 . S
C211 C215 1.393 . S
C212 H201 0.950 . S
C212 C210 1.391 . S
C212 C213 1.400 . S
C213 C207 1.491 . S
C213 C212 1.400 . S
C213 C214 1.398 . S
C214 H202 0.950 . S
C214 C213 1.398 . S
C214 C215 1.391 . S
C215 H203 0.950 . S
C215 C211 1.393 . S
C215 C214 1.391 . S
C65 C23 1.060 . S
C71 C9 1.069 . S
C85 C7 0.950 . S
C91 C21 0.946 . S
C105 C51 1.046 . S
C111 C37 1.054 . S
C125 C35 0.979 . S
C131 C49 0.978 . S
C145 C3 1.525 . S
C151 C31 1.525 . S
C165 C45 1.529 . S
C171 C17 1.529 . S
C185 C36 1.544 . S
C191 C8 1.544 . S
C205 C22 1.538 . S
C211 C50 1.538 . S
