# Generated by pormake.
# Topology bnn, (5)-cn, num edge types: 1
# Building blocks:
#     Node 0, Type 0, BuildingBlock: XOMCOT_clean_sbu_0, # of connection points: 5
#     Node 1, Type 0, BuildingBlock: XOMCOT_clean_sbu_0, # of connection points: 5
#     Edge 2, Type (0, 0), BuildingBlock: CIFDUS_clean_linker_0, # of connection points: 2
#     Edge 3, Type (0, 0), BuildingBlock: CIFDUS_clean_linker_0, # of connection points: 2
#     Edge 4, Type (0, 0), BuildingBlock: CIFDUS_clean_linker_0, # of connection points: 2
#     Edge 5, Type (0, 0), BuildingBlock: CIFDUS_clean_linker_0, # of connection points: 2
#     Edge 6, Type (0, 0), BuildingBlock: CIFDUS_clean_linker_0, # of connection points: 2
# Relax obj value: 0.023
# Max RMSD: 0.078
# Mean RMSD: 0.078
data_MOF--net-bnn--node1-XOMCOT_clean_sbu_0--edge1-CIFDUS_clean_linker_0
_symmetry_space_group_name_H-M    P1
_symmetry_Int_Tables_number       1
_symmetry_cell_setting            triclinic
loop_
_symmetry_equiv_pos_as_xyz
'x, y, z'
_cell_length_a     26.710757
_cell_length_b     23.926226
_cell_length_c     15.919611
_cell_angle_alpha  98.258225
_cell_angle_beta   90.292365
_cell_angle_gamma 123.36593
loop_
_atom_site_label
_atom_site_type_symbol
_atom_site_fract_x
_atom_site_fract_y
_atom_site_fract_z
_atom_type_partial_charge
Co0 Co 0.32874 0.70386 0.02804 0.0
C1 C 0.33018 0.70236 0.21532 0.0
C2 C 0.34436 0.79432 0.18607 0.0
C3 C 0.34184 0.79622 0.27279 0.0
N4 N 0.33823 0.73596 0.15007 0.0
N5 N 0.33253 0.73806 0.29073 0.0
H6 H 0.321 0.65216 0.20873 0.0
H7 H 0.3486 0.83208 0.15116 0.0
C8 C 0.44804 0.83968 0.05917 0.0
O9 O 0.46038 0.82702 0.13131 0.0
N10 N 0.31825 0.67292 0.90688 0.0
C11 C 0.30081 0.61063 0.86642 0.0
C12 C 0.30105 0.6108 0.77996 0.0
C13 C 0.32839 0.70995 0.84515 0.0
N14 N 0.31847 0.67335 0.76665 0.0
C15 C 0.35169 0.60786 0.07094 0.0
C16 C 0.46017 0.65781 1.00245 0.0
C17 C 0.43394 0.59694 0.03475 0.0
C18 C 0.37951 0.57298 0.07066 0.0
C19 C 0.43098 0.69194 1.00509 0.0
N20 N 0.37774 0.66752 0.04058 0.0
H21 H 0.30737 0.58436 0.09216 0.0
H22 H 0.44966 0.7355 0.97384 0.0
H23 H 0.2895 0.56838 0.89761 0.0
H24 H 0.34237 0.76248 0.85772 0.0
O25 O 0.25105 0.62399 0.0383 0.0
O26 O 0.26668 0.7214 0.01568 0.0
O27 O 0.39961 0.79544 1.01115 0.0
C28 C 0.22882 0.6591 0.02685 0.0
H29 H 0.34392 0.83581 0.31841 0.0
H30 H 0.29049 0.56843 0.73104 0.0
H31 H 0.50133 0.67725 0.97175 0.0
H32 H 0.35738 0.52636 0.09655 0.0
Co33 Co 0.666 0.36987 0.03106 0.0
C34 C 0.6717 0.36616 0.84223 0.0
C35 C 0.58735 0.28495 0.87366 0.0
C36 C 0.58502 0.27994 0.78622 0.0
N37 N 0.64215 0.33844 0.90892 0.0
N38 N 0.63828 0.33109 0.76662 0.0
H39 H 0.71559 0.41239 0.84771 0.0
H40 H 0.55136 0.25193 0.90933 0.0
C41 C 0.63657 0.22759 1.00039 0.0
O42 O 0.66299 0.23913 0.92965 0.0
N43 N 0.68755 0.40008 0.1523 0.0
C44 C 0.73681 0.45875 0.19249 0.0
C45 C 0.73574 0.4594 0.27911 0.0
C46 C 0.65679 0.36621 0.21441 0.0
N47 N 0.68541 0.4012 0.29265 0.0
C48 C 0.78594 0.45013 0.98589 0.0
C49 C 0.83134 0.38635 0.05721 0.0
C50 C 0.87051 0.4436 0.02047 0.0
C51 C 0.84654 0.4747 0.98339 0.0
C52 C 0.77019 0.36233 0.05659 0.0
N53 N 0.74766 0.39306 0.01892 0.0
H54 H 0.7706 0.4792 0.96368 0.0
H55 H 0.74213 0.32154 0.09078 0.0
H56 H 0.77119 0.49809 0.16104 0.0
H57 H 0.61492 0.3165 0.20244 0.0
O58 O 0.67953 0.45625 0.02044 0.0
O59 O 0.59219 0.36644 0.04317 0.0
O60 O 0.63518 0.2744 0.04803 0.0
C61 C 0.62333 0.42961 0.03242 0.0
H62 H 0.54706 0.24154 0.74088 0.0
H63 H 0.76909 0.49988 0.32833 0.0
H64 H 0.84809 0.36201 0.0894 0.0
H65 H 0.87453 0.51893 0.95406 0.0
H66 H 0.55303 0.64315 0.05612 0.0
H67 H 0.37513 0.45867 0.99606 0.0
H68 H 0.4175 0.39082 0.99315 0.0
H69 H 0.505 0.3832 1.00882 0.0
H70 H 0.68334 0.56722 0.05998 0.0
H71 H 0.64101 0.6356 0.06422 0.0
C72 C 0.52359 0.58817 0.04142 0.0
C73 C 0.46089 0.55632 0.02783 0.0
C74 C 0.54831 0.54914 0.03837 0.0
C75 C 0.42345 0.48479 1.00917 0.0
C76 C 0.44763 0.44575 1.00686 0.0
C77 C 0.53446 0.43826 0.02109 0.0
C78 C 0.59703 0.47012 0.03456 0.0
C79 C 0.50992 0.47731 0.02207 0.0
C80 C 0.6349 0.54149 0.04932 0.0
C81 C 0.61077 0.58067 0.05183 0.0
H82 H 0.96207 0.57767 0.04399 0.0
H83 H 0.92764 0.37652 1.00556 0.0
H84 H 0.0357 0.42586 1.00698 0.0
H85 H 0.13952 0.52591 0.01432 0.0
H86 H 0.17242 0.7259 0.04208 0.0
H87 H 0.06468 0.67675 0.04686 0.0
C88 C 0.9778 0.54424 0.03439 0.0
C89 C 0.93637 0.47324 0.02382 0.0
C90 C 0.03965 0.57274 0.03267 0.0
C91 C 0.95829 0.43128 0.01458 0.0
C92 C 0.02009 0.45943 0.01467 0.0
C93 C 0.12307 0.55872 0.02144 0.0
C94 C 0.16374 0.62942 0.02788 0.0
C95 C 0.06108 0.53004 0.02303 0.0
C96 C 0.14189 0.67131 0.03659 0.0
C97 C 0.08039 0.64327 0.03961 0.0
H98 H 0.51235 0.96187 0.16472 0.0
H99 H 0.47075 0.86859 0.89929 0.0
H100 H 0.52935 0.9807 0.85766 0.0
H101 H 0.58776 0.10547 0.89647 0.0
H102 H 0.62097 0.19849 0.16121 0.0
H103 H 0.57055 0.08674 0.2035 0.0
C104 C 0.51699 0.96627 0.09791 0.0
C105 C 0.4879 0.90726 0.03516 0.0
C106 C 0.54883 1.03093 0.07436 0.0
C107 C 0.493 0.91345 0.94867 0.0
C108 C 0.52637 0.97749 0.92487 0.0
C109 C 0.58443 0.1012 0.96342 0.0
C110 C 0.6082 0.16006 0.02563 0.0
C111 C 0.55378 0.03661 0.98708 0.0
C112 C 0.6028 0.15383 0.11211 0.0
C113 C 0.57408 0.08997 0.13634 0.0
H114 H 0.26557 0.59602 0.61173 0.0
H115 H 0.38928 0.80339 0.7386 0.0
H116 H 0.403 0.84223 0.60199 0.0
H117 H 0.38201 0.81696 0.44533 0.0
H118 H 0.26038 0.60916 0.31937 0.0
H119 H 0.2449 0.57079 0.45642 0.0
C120 C 0.29601 0.64964 0.60973 0.0
C121 C 0.32623 0.69648 0.68582 0.0
C122 C 0.30444 0.67162 0.53079 0.0
C123 C 0.36466 0.76605 0.68156 0.0
C124 C 0.37291 0.78838 0.60321 0.0
C125 C 0.35181 0.7634 0.44813 0.0
C126 C 0.32273 0.71603 0.37219 0.0
C127 C 0.34317 0.74159 0.52736 0.0
C128 C 0.28415 0.64661 0.37664 0.0
C129 C 0.27495 0.62463 0.45508 0.0
H130 H 0.75745 0.43164 0.43368 0.0
H131 H 0.57112 0.32381 0.33374 0.0
H132 H 0.53943 0.2908 0.47226 0.0
H133 H 0.56508 0.29594 0.62312 0.0
H134 H 0.75201 0.40146 0.72072 0.0
H135 H 0.78296 0.43305 0.58238 0.0
C136 C 0.70994 0.40132 0.44243 0.0
C137 C 0.66674 0.38061 0.37373 0.0
C138 C 0.69213 0.38247 0.52203 0.0
C139 C 0.60525 0.34005 0.38549 0.0
C140 C 0.58714 0.32144 0.46478 0.0
C141 C 0.61255 0.32517 0.61407 0.0
C142 C 0.65601 0.34687 0.6831 0.0
C143 C 0.63022 0.34263 0.53367 0.0
C144 C 0.71743 0.38527 0.66977 0.0
C145 C 0.73529 0.40303 0.59029 0.0
loop_
_geom_bond_atom_site_label_1
_geom_bond_atom_site_label_2
_geom_bond_distance
_geom_bond_site_symmetry_2
_ccdc_geom_bond_type
Co0 N4 2.148 . S
Co0 N10 2.128 1_554 S
Co0 N20 2.194 . S
Co0 O25 2.351 . S
Co0 O26 2.155 . S
Co0 O27 2.096 . S
C1 N4 1.301 . S
C1 N5 1.328 . S
C1 H6 0.930 . S
C2 C3 1.333 . S
C2 N4 1.317 . S
C2 H7 0.930 . S
C3 C2 1.333 . S
C3 N5 1.350 . S
C3 H29 0.931 . S
N4 Co0 2.148 . S
N4 C1 1.301 . S
N4 C2 1.317 . S
N5 C1 1.328 . S
N5 C3 1.350 . S
H6 C1 0.930 . S
H7 C2 0.930 . S
C8 O9 1.224 . S
C8 O27 1.247 . S
O9 C8 1.224 . S
N10 Co0 2.128 1_556 S
N10 C11 1.355 . S
N10 C13 1.311 . S
C11 N10 1.355 . S
C11 C12 1.363 . S
C11 H23 0.929 . S
C12 C11 1.363 . S
C12 N14 1.375 . S
C12 H30 0.931 . S
C13 N10 1.311 . S
C13 N14 1.347 . S
C13 H24 0.929 . S
N14 C12 1.375 . S
N14 C13 1.347 . S
C15 C18 1.365 . S
C15 N20 1.328 . S
C15 H21 0.929 . S
C16 C17 1.362 . S
C16 C19 1.378 . S
C16 H31 0.929 . S
C17 C16 1.362 . S
C17 C18 1.366 . S
C18 C15 1.365 . S
C18 C17 1.366 . S
C18 H32 0.930 . S
C19 C16 1.378 . S
C19 N20 1.315 . S
C19 H22 0.930 . S
N20 Co0 2.194 . S
N20 C15 1.328 . S
N20 C19 1.315 . S
H21 C15 0.929 . S
H22 C19 0.930 . S
H23 C11 0.929 . S
H24 C13 0.929 . S
O25 Co0 2.351 . S
O25 C28 1.244 . S
O26 Co0 2.155 . S
O26 C28 1.240 . S
O27 Co0 2.096 . S
O27 C8 1.247 . S
C28 O25 1.244 . S
C28 O26 1.240 . S
H29 C3 0.931 . S
H30 C12 0.931 . S
H31 C16 0.929 . S
H32 C18 0.930 . S
Co33 N37 2.148 1_554 S
Co33 N43 2.128 . S
Co33 N53 2.194 . S
Co33 O58 2.351 . S
Co33 O59 2.155 . S
Co33 O60 2.096 . S
C34 N37 1.301 . S
C34 N38 1.328 . S
C34 H39 0.930 . S
C35 C36 1.333 . S
C35 N37 1.317 . S
C35 H40 0.930 . S
C36 C35 1.333 . S
C36 N38 1.350 . S
C36 H62 0.931 . S
N37 Co33 2.148 1_556 S
N37 C34 1.301 . S
N37 C35 1.317 . S
N38 C34 1.328 . S
N38 C36 1.350 . S
H39 C34 0.930 . S
H40 C35 0.930 . S
C41 O42 1.224 . S
C41 O60 1.247 . S
O42 C41 1.224 . S
N43 Co33 2.128 . S
N43 C44 1.355 . S
N43 C46 1.311 . S
C44 N43 1.355 . S
C44 C45 1.363 . S
C44 H56 0.929 . S
C45 C44 1.363 . S
C45 N47 1.375 . S
C45 H63 0.931 . S
C46 N43 1.311 . S
C46 N47 1.347 . S
C46 H57 0.929 . S
N47 C45 1.375 . S
N47 C46 1.347 . S
C48 C51 1.365 . S
C48 N53 1.328 . S
C48 H54 0.929 1_554 S
C49 C50 1.362 . S
C49 C52 1.378 . S
C49 H64 0.929 . S
C50 C49 1.362 . S
C50 C51 1.366 . S
C51 C48 1.365 . S
C51 C50 1.366 . S
C51 H65 0.930 . S
C52 C49 1.378 . S
C52 N53 1.315 . S
C52 H55 0.930 . S
N53 Co33 2.194 . S
N53 C48 1.328 . S
N53 C52 1.315 . S
H54 C48 0.929 1_556 S
H55 C52 0.930 . S
H56 C44 0.929 . S
H57 C46 0.929 . S
O58 Co33 2.351 . S
O58 C61 1.244 . S
O59 Co33 2.155 . S
O59 C61 1.240 . S
O60 Co33 2.096 . S
O60 C41 1.247 . S
C61 O58 1.244 . S
C61 O59 1.240 . S
H62 C36 0.931 . S
H63 C45 0.931 . S
H64 C49 0.929 . S
H65 C51 0.930 . S
H66 C72 0.930 . S
H67 C75 0.930 . S
H68 C76 0.930 . S
H69 C77 0.930 . S
H70 C80 0.930 . S
H71 C81 0.930 . S
C72 H66 0.930 . S
C72 C73 1.356 . S
C72 C74 1.415 . S
C73 C72 1.356 . S
C73 C75 1.419 1_554 S
C74 C72 1.415 . S
C74 C79 1.425 1_554 S
C74 C81 1.409 . S
C75 H67 0.930 . S
C75 C73 1.419 1_556 S
C75 C76 1.362 . S
C76 H68 0.930 . S
C76 C75 1.362 . S
C76 C79 1.409 . S
C77 H69 0.930 . S
C77 C78 1.355 1_556 S
C77 C79 1.415 . S
C78 C77 1.355 1_554 S
C78 C80 1.419 . S
C79 C74 1.425 1_556 S
C79 C76 1.409 . S
C79 C77 1.415 . S
C80 H70 0.930 . S
C80 C78 1.419 . S
C80 C81 1.362 . S
C81 H71 0.930 . S
C81 C74 1.409 . S
C81 C80 1.362 . S
H82 C88 0.930 . S
H83 C91 0.930 1_556 S
H84 C92 0.927 1_455 S
H85 C93 0.930 . S
H86 C96 0.930 . S
H87 C97 0.930 . S
C88 H82 0.930 . S
C88 C89 1.355 . S
C88 C90 1.415 1_655 S
C89 C88 1.355 . S
C89 C91 1.419 . S
C90 C88 1.415 1_455 S
C90 C95 1.425 . S
C90 C97 1.409 . S
C91 H83 0.930 1_554 S
C91 C89 1.419 . S
C91 C92 1.362 1_554 S
C92 H84 0.927 1_655 S
C92 C91 1.362 1_556 S
C92 C95 1.409 1_656 S
C93 H85 0.930 . S
C93 C94 1.355 . S
C93 C95 1.415 . S
C94 C93 1.355 . S
C94 C96 1.419 . S
C95 C90 1.425 . S
C95 C92 1.409 1_454 S
C95 C93 1.415 . S
C96 H86 0.930 . S
C96 C94 1.419 . S
C96 C97 1.362 . S
C97 H87 0.930 . S
C97 C90 1.409 . S
C97 C96 1.362 . S
H98 C104 0.930 . S
H99 C107 0.930 . S
H100 C108 0.930 . S
H101 C109 0.930 . S
H102 C112 0.930 . S
H103 C113 0.930 . S
C104 H98 0.930 . S
C104 C105 1.355 . S
C104 C106 1.415 . S
C105 C104 1.355 . S
C105 C107 1.419 1_554 S
C106 C104 1.415 . S
C106 C111 1.425 1_564 S
C106 C113 1.409 1_565 S
C107 H99 0.930 . S
C107 C105 1.419 1_556 S
C107 C108 1.362 . S
C108 H100 0.930 . S
C108 C107 1.362 . S
C108 C111 1.409 1_565 S
C109 H101 0.930 . S
C109 C110 1.355 1_556 S
C109 C111 1.415 . S
C110 C109 1.355 1_554 S
C110 C112 1.419 . S
C111 C106 1.425 1_546 S
C111 C108 1.409 1_545 S
C111 C109 1.415 . S
C112 H102 0.930 . S
C112 C110 1.419 . S
C112 C113 1.362 . S
C113 H103 0.930 . S
C113 C106 1.409 1_545 S
C113 C112 1.362 . S
H114 C120 0.930 . S
H115 C123 0.930 . S
H116 C124 0.930 . S
H117 C125 0.930 . S
H118 C128 0.930 . S
H119 C129 0.930 . S
C120 H114 0.930 . S
C120 C121 1.355 . S
C120 C122 1.415 . S
C121 C120 1.355 . S
C121 C123 1.419 . S
C122 C120 1.415 . S
C122 C127 1.425 . S
C122 C129 1.409 . S
C123 H115 0.930 . S
C123 C121 1.419 . S
C123 C124 1.362 . S
C124 H116 0.930 . S
C124 C123 1.362 . S
C124 C127 1.409 . S
C125 H117 0.930 . S
C125 C126 1.355 . S
C125 C127 1.415 . S
C126 C125 1.355 . S
C126 C128 1.419 . S
C127 C122 1.425 . S
C127 C124 1.409 . S
C127 C125 1.415 . S
C128 H118 0.930 . S
C128 C126 1.419 . S
C128 C129 1.362 . S
C129 H119 0.930 . S
C129 C122 1.409 . S
C129 C128 1.362 . S
H130 C136 0.930 . S
H131 C139 0.930 . S
H132 C140 0.930 . S
H133 C141 0.930 . S
H134 C144 0.930 . S
H135 C145 0.930 . S
C136 H130 0.930 . S
C136 C137 1.355 . S
C136 C138 1.415 . S
C137 C136 1.355 . S
C137 C139 1.419 . S
C138 C136 1.415 . S
C138 C143 1.425 . S
C138 C145 1.409 . S
C139 H131 0.930 . S
C139 C137 1.419 . S
C139 C140 1.362 . S
C140 H132 0.930 . S
C140 C139 1.362 . S
C140 C143 1.409 . S
C141 H133 0.930 . S
C141 C142 1.355 . S
C141 C143 1.415 . S
C142 C141 1.355 . S
C142 C144 1.419 . S
C143 C138 1.425 . S
C143 C140 1.409 . S
C143 C141 1.415 . S
C144 H134 0.930 . S
C144 C142 1.419 . S
C144 C145 1.362 . S
C145 H135 0.930 . S
C145 C138 1.409 . S
C145 C144 1.362 . S
C73 C17 1.498 . S
C78 C61 1.497 . S
C89 C50 1.488 . S
C94 C28 1.492 . S
C105 C8 1.492 . S
C110 C41 1.492 . S
C121 N14 1.474 . S
C126 N5 1.481 . S
C137 N47 1.444 . S
C142 N38 1.447 . S
