# Generated by pormake.
# Topology smu, (6)-cn, num edge types: 1
# Building blocks:
#     Node 0, Type 0, BuildingBlock: BETDEL_clean_sbu_0, # of connection points: 6
#     Node 1, Type 0, BuildingBlock: BETDEL_clean_sbu_0, # of connection points: 6
#     Node 2, Type 0, BuildingBlock: BETDEL_clean_sbu_0, # of connection points: 6
#     Node 3, Type 0, BuildingBlock: BETDEL_clean_sbu_0, # of connection points: 6
#     Node 4, Type 0, BuildingBlock: BETDEL_clean_sbu_0, # of connection points: 6
#     Node 5, Type 0, BuildingBlock: BETDEL_clean_sbu_0, # of connection points: 6
#     Edge 6, Type (0, 0), None
#     Edge 7, Type (0, 0), None
#     Edge 8, Type (0, 0), None
#     Edge 9, Type (0, 0), None
#     Edge 10, Type (0, 0), None
#     Edge 11, Type (0, 0), None
#     Edge 12, Type (0, 0), None
#     Edge 13, Type (0, 0), None
#     Edge 14, Type (0, 0), None
#     Edge 15, Type (0, 0), None
#     Edge 16, Type (0, 0), None
#     Edge 17, Type (0, 0), None
#     Edge 18, Type (0, 0), None
#     Edge 19, Type (0, 0), None
#     Edge 20, Type (0, 0), None
#     Edge 21, Type (0, 0), None
#     Edge 22, Type (0, 0), None
#     Edge 23, Type (0, 0), None
# Relax obj value: 0.213
# Max RMSD: 0.293
# Mean RMSD: 0.293
data_MOF--net-smu--node1-BETDEL_clean_sbu_0--edge1-none
_symmetry_space_group_name_H-M    P1
_symmetry_Int_Tables_number       1
_symmetry_cell_setting            triclinic
loop_
_symmetry_equiv_pos_as_xyz
'x, y, z'
_cell_length_a     15.222306
_cell_length_b     15.251992
_cell_length_c     12.598874
_cell_angle_alpha  90.005933
_cell_angle_beta   90.08617
_cell_angle_gamma 120.1233
loop_
_atom_site_label
_atom_site_type_symbol
_atom_site_fract_x
_atom_site_fract_y
_atom_site_fract_z
_atom_type_partial_charge
Dy0 Dy 0.44151 0.09925 0.25664 0.0
C1 C 0.2345 0.26816 0.24222 0.0
C2 C 0.64077 0.14826 0.25643 0.0
Dy3 Dy 0.31909 0.14547 0.23097 0.0
O4 O 0.60023 0.18275 0.32151 0.0
O5 O 0.57103 0.08065 0.1938 0.0
O6 O 0.40013 0.98008 0.37121 0.0
O7 O 0.35257 0.09363 0.39389 0.0
C8 C 0.34951 1.01074 0.42828 0.0
C9 C 0.32241 0.05497 0.04755 0.0
O10 O 0.43714 0.29703 0.17942 0.0
O11 O 0.51789 0.26668 0.3051 0.0
O12 O 0.2148 0.19806 0.17232 0.0
O13 O 0.29519 0.26432 0.31207 0.0
O14 O 0.2404 0.04532 0.08956 0.0
O15 O 0.40057 0.12005 0.09805 0.0
O16 O 0.28964 0.94619 0.22597 0.0
O17 O 0.1969 1.0094 0.29729 0.0
C18 C 0.5115 0.33323 0.24472 0.0
C19 C 0.2011 0.93095 0.26509 0.0
Dy20 Dy 0.73022 0.64344 0.25544 0.0
C21 C 0.10235 0.8483 0.23591 0.0
C22 C 0.58122 0.44324 0.25314 0.0
Dy23 Dy 0.89398 0.76206 0.22858 0.0
O24 O 0.65894 0.48339 0.31525 0.0
O25 O 0.5804 0.51361 0.19449 0.0
O26 O 0.64842 0.67916 0.37035 0.0
O27 O 0.81148 0.73238 0.39345 0.0
C28 C 0.72945 0.73128 0.42799 0.0
C29 C 0.8001 0.76219 0.04584 0.0
O30 O 0.92745 0.64436 0.17617 0.0
O31 O 0.82302 0.57027 0.30775 0.0
O32 O 1.05003 0.86649 0.16702 0.0
O33 O 1.03919 0.78738 0.30643 0.0
O34 O 0.87286 0.84303 0.0894 0.0
O35 O 0.78619 0.6832 0.09458 0.0
O36 O 0.72942 0.79568 0.22825 0.0
O37 O 0.88557 0.88536 0.29958 0.0
C38 C 0.89317 0.5736 0.24518 0.0
C39 C 0.80347 0.88318 0.26861 0.0
Dy40 Dy 0.98431 0.35596 0.25884 0.0
C41 C 0.82137 0.98245 0.24044 0.0
C42 C 0.93433 0.50507 0.25496 0.0
Dy43 Dy 0.94045 0.19032 0.23348 0.0
O44 O 0.89946 0.43042 0.32062 0.0
O45 O 1.00256 0.50307 0.19368 0.0
O46 O 0.10259 0.43788 0.37357 0.0
O47 O 0.99199 0.27533 0.39721 0.0
C48 C 0.07333 0.35741 0.43167 0.0
C49 C 1.03128 0.28427 0.04994 0.0
O50 O 0.78779 0.15362 0.18179 0.0
O51 O 0.81734 0.26278 0.30887 0.0
O52 O 0.89342 0.03531 0.17328 0.0
O53 O 0.82084 0.04465 0.31035 0.0
O54 O 1.0421 0.21326 0.09317 0.0
O55 O 0.96543 0.2963 0.09954 0.0
O56 O 0.13806 0.35815 0.23072 0.0
O57 O 0.0745 0.20401 0.30543 0.0
C58 C 0.75092 0.18986 0.24805 0.0
C59 C 0.15335 0.28589 0.2722 0.0
Dy60 Dy 0.07687 0.31546 0.74107 0.0
C61 C 0.42718 0.54976 0.74119 0.0
C62 C 0.91755 0.12884 0.70525 0.0
Dy63 Dy 0.22247 0.40803 0.7375 0.0
O64 O 0.91086 0.20076 0.75297 0.0
O65 O 1.00625 0.16326 0.6642 0.0
O66 O 1.00277 0.32955 0.88063 0.0
O67 O 0.14426 0.32804 0.89477 0.0
C68 C 0.06722 0.32426 0.94291 0.0
C69 C 0.12504 0.36976 0.53438 0.0
O70 O 0.2907 0.31889 0.78347 0.0
O71 O 0.14995 0.21875 0.69709 0.0
O72 O 0.3539 0.5621 0.77513 0.0
O73 O 0.38901 0.46182 0.69593 0.0
O74 O 0.19497 0.34942 0.56058 0.0
O75 O 0.11238 0.41084 0.61185 0.0
O76 O 0.09009 0.47268 0.7066 0.0
O77 O 0.22396 0.53764 0.81061 0.0
C78 C 0.23937 0.23742 0.7305 0.0
C79 C 0.15931 0.55264 0.76024 0.0
Dy80 Dy 0.30827 1.01258 0.739 0.0
C81 C 0.18876 0.6595 0.74285 0.0
C82 C 0.27972 0.1712 0.70778 0.0
Dy83 Dy 0.25285 0.86384 0.73452 0.0
O84 O 0.35961 0.17818 0.7535 0.0
O85 O 0.22519 0.08307 0.6657 0.0
O86 O 0.39762 0.08291 0.87937 0.0
O87 O 0.2525 0.94317 0.89143 0.0
C88 C 0.32681 1.01869 0.94073 0.0
C89 C 0.31024 0.96096 0.53165 0.0
O90 O 0.09574 0.79958 0.78036 0.0
O91 O 0.13841 0.93988 0.6928 0.0
O92 O 0.27375 0.73309 0.77839 0.0
O93 O 0.14039 0.69706 0.69336 0.0
O94 O 0.22084 0.88818 0.5571 0.0
O95 O 0.36478 0.9751 0.60903 0.0
O96 O 0.45185 0.99822 0.70203 0.0
O97 O 0.38262 0.86177 0.80228 0.0
C98 C 0.06664 0.85124 0.72664 0.0
C99 C 0.46216 0.92719 0.75233 0.0
Dy100 Dy 0.7718 0.78201 0.73708 0.0
C101 C 0.53858 0.89679 0.73155 0.0
C102 C 0.95975 0.81169 0.7042 0.0
Dy103 Dy 0.68005 0.83338 0.73213 0.0
O104 O 0.88684 0.73158 0.7493 0.0
O105 O 0.92585 0.86647 0.66363 0.0
O106 O 0.75905 0.69236 0.8747 0.0
O107 O 0.75711 0.83327 0.89152 0.0
C108 C 0.76185 0.75994 0.93827 0.0
C109 C 0.71811 0.77213 0.53001 0.0
O110 O 0.76921 0.9909 0.77915 0.0
O111 O 0.86927 0.95163 0.69235 0.0
O112 O 0.52317 0.80813 0.75794 0.0
O113 O 0.63042 0.9504 0.6961 0.0
O114 O 0.73956 0.86288 0.55533 0.0
O115 O 0.67659 0.71924 0.60782 0.0
O116 O 0.61372 0.63782 0.70326 0.0
O117 O 0.55071 0.70706 0.80836 0.0
C118 C 0.85083 1.02194 0.72636 0.0
C119 C 0.5345 0.62711 0.75796 0.0
loop_
_geom_bond_atom_site_label_1
_geom_bond_atom_site_label_2
_geom_bond_distance
_geom_bond_site_symmetry_2
_ccdc_geom_bond_type
Dy0 O4 2.398 . S
Dy0 O5 2.491 . S
Dy0 O6 2.403 . S
Dy0 O7 2.664 . S
Dy0 O11 2.326 . S
Dy0 O15 2.310 . S
Dy0 O16 2.351 1_545 S
C1 O12 1.185 . S
C1 O13 1.355 . S
C2 O4 1.185 . S
C2 O5 1.355 . S
Dy3 O7 2.310 . S
Dy3 O10 2.351 . S
Dy3 O12 2.398 . S
Dy3 O13 2.491 . S
Dy3 O14 2.403 . S
Dy3 O15 2.664 . S
Dy3 O17 2.326 . S
O4 Dy0 2.398 . S
O4 C2 1.185 . S
O5 Dy0 2.491 . S
O5 C2 1.355 . S
O6 Dy0 2.403 . S
O6 C8 1.254 . S
O7 Dy0 2.664 . S
O7 Dy3 2.310 . S
O7 C8 1.268 . S
C8 O6 1.254 . S
C8 O7 1.268 . S
C9 O14 1.254 . S
C9 O15 1.268 . S
O10 Dy3 2.351 . S
O10 C18 1.249 . S
O11 Dy0 2.326 . S
O11 C18 1.267 . S
O12 C1 1.185 . S
O12 Dy3 2.398 . S
O13 C1 1.355 . S
O13 Dy3 2.491 . S
O14 Dy3 2.403 . S
O14 C9 1.254 . S
O15 Dy0 2.310 . S
O15 Dy3 2.664 . S
O15 C9 1.268 . S
O16 Dy0 2.351 1_565 S
O16 C19 1.249 . S
O17 Dy3 2.326 . S
O17 C19 1.267 1_545 S
C18 O10 1.249 . S
C18 O11 1.267 . S
C19 O16 1.249 . S
C19 O17 1.267 1_565 S
Dy20 O24 2.398 . S
Dy20 O25 2.491 . S
Dy20 O26 2.403 . S
Dy20 O27 2.664 . S
Dy20 O31 2.326 . S
Dy20 O35 2.310 . S
Dy20 O36 2.351 . S
C21 O32 1.185 . S
C21 O33 1.355 . S
C22 O24 1.185 . S
C22 O25 1.355 . S
Dy23 O27 2.310 . S
Dy23 O30 2.351 . S
Dy23 O32 2.398 1_655 S
Dy23 O33 2.491 1_655 S
Dy23 O34 2.403 . S
Dy23 O35 2.664 . S
Dy23 O37 2.326 . S
O24 Dy20 2.398 . S
O24 C22 1.185 . S
O25 Dy20 2.491 . S
O25 C22 1.355 . S
O26 Dy20 2.403 . S
O26 C28 1.254 . S
O27 Dy20 2.664 . S
O27 Dy23 2.310 . S
O27 C28 1.268 . S
C28 O26 1.254 . S
C28 O27 1.268 . S
C29 O34 1.254 . S
C29 O35 1.268 . S
O30 Dy23 2.351 . S
O30 C38 1.249 . S
O31 Dy20 2.326 . S
O31 C38 1.267 . S
O32 C21 1.185 . S
O32 Dy23 2.398 1_455 S
O33 C21 1.355 . S
O33 Dy23 2.491 1_455 S
O34 Dy23 2.403 . S
O34 C29 1.254 . S
O35 Dy20 2.310 . S
O35 Dy23 2.664 . S
O35 C29 1.268 . S
O36 Dy20 2.351 . S
O36 C39 1.249 . S
O37 Dy23 2.326 . S
O37 C39 1.267 . S
C38 O30 1.249 . S
C38 O31 1.267 . S
C39 O36 1.249 . S
C39 O37 1.267 . S
Dy40 O44 2.398 . S
Dy40 O45 2.491 . S
Dy40 O46 2.403 . S
Dy40 O47 2.664 . S
Dy40 O51 2.326 . S
Dy40 O55 2.310 . S
Dy40 O56 2.351 1_655 S
C41 O52 1.185 . S
C41 O53 1.355 . S
C42 O44 1.185 . S
C42 O45 1.355 . S
Dy43 O47 2.310 . S
Dy43 O50 2.351 . S
Dy43 O52 2.398 1_545 S
Dy43 O53 2.491 1_545 S
Dy43 O54 2.403 . S
Dy43 O55 2.664 . S
Dy43 O57 2.326 . S
O44 Dy40 2.398 . S
O44 C42 1.185 . S
O45 Dy40 2.491 . S
O45 C42 1.355 . S
O46 Dy40 2.403 . S
O46 C48 1.254 . S
O47 Dy40 2.664 . S
O47 Dy43 2.310 . S
O47 C48 1.268 . S
C48 O46 1.254 . S
C48 O47 1.268 . S
C49 O54 1.254 . S
C49 O55 1.268 . S
O50 Dy43 2.351 . S
O50 C58 1.249 . S
O51 Dy40 2.326 . S
O51 C58 1.267 . S
O52 C41 1.185 . S
O52 Dy43 2.398 1_565 S
O53 C41 1.355 . S
O53 Dy43 2.491 1_565 S
O54 Dy43 2.403 . S
O54 C49 1.254 . S
O55 Dy40 2.310 . S
O55 Dy43 2.664 . S
O55 C49 1.268 . S
O56 Dy40 2.351 1_455 S
O56 C59 1.249 . S
O57 Dy43 2.326 . S
O57 C59 1.267 1_655 S
C58 O50 1.249 . S
C58 O51 1.267 . S
C59 O56 1.249 . S
C59 O57 1.267 1_455 S
Dy60 O64 2.398 . S
Dy60 O65 2.491 . S
Dy60 O66 2.403 . S
Dy60 O67 2.664 1_655 S
Dy60 O71 2.326 1_655 S
Dy60 O75 2.310 1_655 S
Dy60 O76 2.351 1_655 S
C61 O72 1.185 . S
C61 O73 1.355 . S
C62 O64 1.185 . S
C62 O65 1.355 . S
Dy63 O67 2.310 . S
Dy63 O70 2.351 . S
Dy63 O72 2.398 . S
Dy63 O73 2.491 . S
Dy63 O74 2.403 . S
Dy63 O75 2.664 . S
Dy63 O77 2.326 . S
O64 Dy60 2.398 . S
O64 C62 1.185 . S
O65 Dy60 2.491 . S
O65 C62 1.355 . S
O66 Dy60 2.403 . S
O66 C68 1.254 1_655 S
O67 Dy60 2.664 1_455 S
O67 Dy63 2.310 . S
O67 C68 1.268 . S
C68 O66 1.254 1_455 S
C68 O67 1.268 . S
C69 O74 1.254 . S
C69 O75 1.268 . S
O70 Dy63 2.351 . S
O70 C78 1.249 . S
O71 Dy60 2.326 1_455 S
O71 C78 1.267 . S
O72 C61 1.185 . S
O72 Dy63 2.398 . S
O73 C61 1.355 . S
O73 Dy63 2.491 . S
O74 Dy63 2.403 . S
O74 C69 1.254 . S
O75 Dy60 2.310 1_455 S
O75 Dy63 2.664 . S
O75 C69 1.268 . S
O76 Dy60 2.351 1_455 S
O76 C79 1.249 . S
O77 Dy63 2.326 . S
O77 C79 1.267 . S
C78 O70 1.249 . S
C78 O71 1.267 . S
C79 O76 1.249 . S
C79 O77 1.267 . S
Dy80 O84 2.398 . S
Dy80 O85 2.491 . S
Dy80 O86 2.403 . S
Dy80 O87 2.664 1_545 S
Dy80 O91 2.326 1_545 S
Dy80 O95 2.310 1_545 S
Dy80 O96 2.351 1_545 S
C81 O92 1.185 . S
C81 O93 1.355 . S
C82 O84 1.185 . S
C82 O85 1.355 . S
Dy83 O87 2.310 . S
Dy83 O90 2.351 . S
Dy83 O92 2.398 . S
Dy83 O93 2.491 . S
Dy83 O94 2.403 . S
Dy83 O95 2.664 . S
Dy83 O97 2.326 . S
O84 Dy80 2.398 . S
O84 C82 1.185 . S
O85 Dy80 2.491 . S
O85 C82 1.355 . S
O86 Dy80 2.403 . S
O86 C88 1.254 1_545 S
O87 Dy80 2.664 1_565 S
O87 Dy83 2.310 . S
O87 C88 1.268 . S
C88 O86 1.254 1_565 S
C88 O87 1.268 . S
C89 O94 1.254 . S
C89 O95 1.268 . S
O90 Dy83 2.351 . S
O90 C98 1.249 . S
O91 Dy80 2.326 1_565 S
O91 C98 1.267 . S
O92 C81 1.185 . S
O92 Dy83 2.398 . S
O93 C81 1.355 . S
O93 Dy83 2.491 . S
O94 Dy83 2.403 . S
O94 C89 1.254 . S
O95 Dy80 2.310 1_565 S
O95 Dy83 2.664 . S
O95 C89 1.268 . S
O96 Dy80 2.351 1_565 S
O96 C99 1.249 . S
O97 Dy83 2.326 . S
O97 C99 1.267 . S
C98 O90 1.249 . S
C98 O91 1.267 . S
C99 O96 1.249 . S
C99 O97 1.267 . S
Dy100 O104 2.398 . S
Dy100 O105 2.491 . S
Dy100 O106 2.403 . S
Dy100 O107 2.664 . S
Dy100 O111 2.326 . S
Dy100 O115 2.310 . S
Dy100 O116 2.351 . S
C101 O112 1.185 . S
C101 O113 1.355 . S
C102 O104 1.185 . S
C102 O105 1.355 . S
Dy103 O107 2.310 . S
Dy103 O110 2.351 . S
Dy103 O112 2.398 . S
Dy103 O113 2.491 . S
Dy103 O114 2.403 . S
Dy103 O115 2.664 . S
Dy103 O117 2.326 . S
O104 Dy100 2.398 . S
O104 C102 1.185 . S
O105 Dy100 2.491 . S
O105 C102 1.355 . S
O106 Dy100 2.403 . S
O106 C108 1.254 . S
O107 Dy100 2.664 . S
O107 Dy103 2.310 . S
O107 C108 1.268 . S
C108 O106 1.254 . S
C108 O107 1.268 . S
C109 O114 1.254 . S
C109 O115 1.268 . S
O110 Dy103 2.351 . S
O110 C118 1.249 . S
O111 Dy100 2.326 . S
O111 C118 1.267 . S
O112 C101 1.185 . S
O112 Dy103 2.398 . S
O113 C101 1.355 . S
O113 Dy103 2.491 . S
O114 Dy103 2.403 . S
O114 C109 1.254 . S
O115 Dy100 2.310 . S
O115 Dy103 2.664 . S
O115 C109 1.268 . S
O116 Dy100 2.351 . S
O116 C119 1.249 . S
O117 Dy103 2.326 . S
O117 C119 1.267 . S
C118 O110 1.249 . S
C118 O111 1.267 . S
C119 O116 1.249 . S
C119 O117 1.267 . S
C88 C9 3.049 1_566 S
C109 C28 3.116 . S
C49 C68 3.049 1_654 S
C8 C89 3.116 1_545 S
C108 C29 3.049 1_556 S
C48 C69 3.116 1_655 S
C2 C58 2.322 . S
C22 C18 2.322 . S
C42 C38 2.322 . S
C79 C81 2.062 . S
C99 C101 2.062 . S
C61 C119 2.062 . S
C1 C59 1.549 . S
C21 C19 1.549 . S
C41 C39 1.549 . S
C78 C82 1.844 . S
C98 C102 1.844 1_455 S
C62 C118 1.844 1_545 S
