# Generated by pormake.
# Topology unh, (4)-cn, num edge types: 1
# Building blocks:
#     Node 0, Type 0, BuildingBlock: MUDLON_clean_sbu_0, # of connection points: 4
#     Node 1, Type 0, BuildingBlock: MUDLON_clean_sbu_0, # of connection points: 4
#     Node 2, Type 0, BuildingBlock: MUDLON_clean_sbu_0, # of connection points: 4
#     Node 3, Type 0, BuildingBlock: MUDLON_clean_sbu_0, # of connection points: 4
#     Node 4, Type 0, BuildingBlock: MUDLON_clean_sbu_0, # of connection points: 4
#     Node 5, Type 0, BuildingBlock: MUDLON_clean_sbu_0, # of connection points: 4
#     Edge 6, Type (0, 0), BuildingBlock: AJUNOK_clean_linker_0, # of connection points: 2
#     Edge 7, Type (0, 0), BuildingBlock: AJUNOK_clean_linker_0, # of connection points: 2
#     Edge 8, Type (0, 0), BuildingBlock: AJUNOK_clean_linker_0, # of connection points: 2
#     Edge 9, Type (0, 0), BuildingBlock: AJUNOK_clean_linker_0, # of connection points: 2
#     Edge 10, Type (0, 0), BuildingBlock: AJUNOK_clean_linker_0, # of connection points: 2
#     Edge 11, Type (0, 0), BuildingBlock: AJUNOK_clean_linker_0, # of connection points: 2
#     Edge 12, Type (0, 0), BuildingBlock: AJUNOK_clean_linker_0, # of connection points: 2
#     Edge 13, Type (0, 0), BuildingBlock: AJUNOK_clean_linker_0, # of connection points: 2
#     Edge 14, Type (0, 0), BuildingBlock: AJUNOK_clean_linker_0, # of connection points: 2
#     Edge 15, Type (0, 0), BuildingBlock: AJUNOK_clean_linker_0, # of connection points: 2
#     Edge 16, Type (0, 0), BuildingBlock: AJUNOK_clean_linker_0, # of connection points: 2
#     Edge 17, Type (0, 0), BuildingBlock: AJUNOK_clean_linker_0, # of connection points: 2
# Relax obj value: 0.034
# Max RMSD: 0.245
# Mean RMSD: 0.245
data_MOF--net-unh--node1-MUDLON_clean_sbu_0--edge1-AJUNOK_clean_linker_0
_symmetry_space_group_name_H-M    P1
_symmetry_Int_Tables_number       1
_symmetry_cell_setting            triclinic
loop_
_symmetry_equiv_pos_as_xyz
'x, y, z'
_cell_length_a     32.944417
_cell_length_b     32.935394
_cell_length_c     17.260776
_cell_angle_alpha  89.770624
_cell_angle_beta   89.931748
_cell_angle_gamma 119.87724
loop_
_atom_site_label
_atom_site_type_symbol
_atom_site_fract_x
_atom_site_fract_y
_atom_site_fract_z
_atom_type_partial_charge
Mg0 Mg 0.15419 0.55287 0.10292 0.0
C1 C 0.22972 0.62733 1.01727 0.0
O2 O 0.2324 0.58932 1.00574 0.0
C3 C 0.09035 0.56297 0.23066 0.0
O4 O 0.10473 0.60583 0.20618 0.0
C5 C 0.21654 0.54321 0.21623 0.0
O6 O 0.19729 0.56275 0.25722 0.0
O7 O 0.20375 0.53254 0.14614 0.0
O8 O 0.19725 0.62451 0.06102 0.0
O9 O 0.11375 0.51367 1.00263 0.0
C10 C 0.06984 0.49833 1.00267 0.0
O11 O 0.05035 0.50347 0.06546 0.0
O12 O 0.10575 0.53866 0.19843 0.0
Mg13 Mg 0.58143 0.14979 0.28222 0.0
C14 C 0.56439 0.20692 0.16617 0.0
O15 O 0.58757 0.1917 0.12487 0.0
C16 C 0.51352 0.07011 0.39084 0.0
O17 O 0.49866 0.04658 0.32599 0.0
C18 C 0.6698 0.19873 0.37908 0.0
O19 O 0.64365 0.16459 0.42728 0.0
O20 O 0.65367 0.19923 0.31235 0.0
O21 O 0.5548 0.19367 0.23645 0.0
O22 O 0.57474 0.09994 0.19351 0.0
C23 C 0.53582 0.07993 0.15803 0.0
O24 O 0.50413 0.09142 0.17623 0.0
O25 O 0.54547 0.11291 0.38802 0.0
Mg26 Mg 0.47268 0.60735 0.44039 0.0
C27 C 0.38518 0.55421 0.34334 0.0
O28 O 0.41568 0.55188 0.29731 0.0
C29 C 0.47182 0.53547 0.5612 0.0
O30 O 0.4363 0.50282 0.52254 0.0
C31 C 0.4958 0.68925 0.54498 0.0
O32 O 0.49436 0.65869 0.59561 0.0
O33 O 0.49021 0.67822 0.47354 0.0
O34 O 0.3986 0.57243 0.41005 0.0
O35 O 0.51018 0.60465 0.33811 0.0
C36 C 0.5314 0.58125 0.33913 0.0
O37 O 0.53429 0.56269 0.40489 0.0
O38 O 0.49032 0.57785 0.5389 0.0
Mg39 Mg 0.88635 0.44567 0.6087 0.0
C40 C 0.8257 0.37174 0.49556 0.0
O41 O 0.83721 0.41014 0.45589 0.0
C42 C 0.96728 0.45813 0.71279 0.0
O43 O 0.99122 0.47237 0.64782 0.0
C44 C 0.83287 0.47741 0.71196 0.0
O45 O 0.86159 0.47641 0.76369 0.0
O46 O 0.83726 0.46876 0.64164 0.0
O47 O 0.84268 0.37554 0.56303 0.0
O48 O 0.93552 0.48934 0.51891 0.0
C49 C 0.95367 0.47007 0.47899 0.0
O50 O 0.94158 0.42641 0.49484 0.0
O51 O 0.92372 0.44437 0.71185 0.0
Mg52 Mg 0.43279 0.88015 0.77825 0.0
C53 C 0.47152 0.84053 0.66397 0.0
O54 O 0.4504 0.85647 0.61902 0.0
C55 C 0.50009 0.94764 0.90781 0.0
O56 O 0.53464 0.94451 0.87585 0.0
C57 C 0.37416 0.79673 0.86738 0.0
O58 O 0.41769 0.80815 0.88216 0.0
O59 O 0.36681 0.822 0.81987 0.0
O60 O 0.47267 0.84786 0.73657 0.0
O61 O 0.42937 0.92201 0.68307 0.0
C62 C 0.46383 0.9636 0.67866 0.0
O63 O 0.49577 0.97809 0.7331 0.0
O64 O 0.45942 0.92536 0.87859 0.0
Mg65 Mg 0.58937 0.45326 0.94413 0.0
C66 C 0.66284 0.46939 0.82629 0.0
O67 O 0.62463 0.44801 0.78445 0.0
C68 C 0.56439 0.51132 0.05047 0.0
O69 O 0.53694 0.50681 0.99208 0.0
C70 C 0.55648 0.36869 0.05041 0.0
O71 O 0.55788 0.39881 0.10152 0.0
O72 O 0.56542 0.38138 0.97984 0.0
O73 O 0.6592 0.47796 0.89699 0.0
O74 O 0.5462 0.45788 0.85302 0.0
C75 C 0.5622 0.49757 0.82017 0.0
O76 O 0.60237 0.53228 0.84416 0.0
O77 O 0.59087 0.49359 0.04517 0.0
C78 C 0.06552 0.49125 0.85796 0.0
C79 C 0.04238 0.48174 0.92995 0.0
C80 C 0.04076 0.48195 0.78814 0.0
C81 C 0.99178 0.46257 0.78734 0.0
H82 H 0.10332 0.50778 0.85526 0.0
H83 H 0.0605 0.49142 0.73446 0.0
S84 S 0.91388 0.42558 0.96022 0.0
N85 N 0.96712 0.44777 0.9961 0.0
N86 N 0.92062 0.43019 0.86525 0.0
C87 C 0.96792 0.45047 0.85894 0.0
C88 C 0.99318 0.46007 0.93005 0.0
C89 C 0.55416 1.00918 1.00168 0.0
C90 C 0.50842 0.97927 0.97467 0.0
C91 C 0.56279 0.04108 0.06188 0.0
C92 C 0.52605 0.04452 0.09711 0.0
H93 H 0.58372 1.00855 0.97541 0.0
H94 H 0.59864 0.06387 0.07979 0.0
S95 S 0.39944 0.97159 0.05257 0.0
N96 N 0.42556 0.95341 0.99169 0.0
N97 N 0.44187 1.01326 0.10374 0.0
C98 C 0.48007 1.014 0.07209 0.0
C99 C 0.47123 0.98143 1.01127 0.0
C100 C 0.52797 0.57435 0.1945 0.0
C101 C 0.54564 0.5686 0.26539 0.0
C102 C 0.53547 0.55696 0.12519 0.0
C103 C 0.56132 0.53344 0.12357 0.0
H104 H 0.50657 0.59082 0.19268 0.0
H105 H 0.51989 0.56115 0.07273 0.0
S106 S 0.61917 0.51327 0.29219 0.0
N107 N 0.59308 0.54062 0.3288 0.0
N108 N 0.60742 0.50822 0.19864 0.0
C109 C 0.58117 0.52947 0.19343 0.0
C110 C 0.57325 0.54693 0.26422 0.0
C111 C 1.00662 0.47199 0.37402 0.0
C112 C 0.98824 0.49562 0.41626 0.0
C113 C 0.03939 0.49426 0.31476 0.0
C114 C 0.05549 0.54135 0.29454 0.0
H115 H 0.99571 0.43572 0.38659 0.0
H116 H 0.05206 0.47398 0.28451 0.0
S117 S 1.01862 0.61945 0.38723 0.0
N118 N 0.98865 0.56913 0.43389 0.0
N119 N 0.05045 0.61113 0.32201 0.0
C120 C 0.03747 0.56563 0.33615 0.0
C121 C 1.00387 0.54279 0.397 0.0
C122 C 0.46215 0.99783 0.46879 0.0
C123 C 0.49705 0.04547 0.46663 0.0
C124 C 0.44975 0.9721 0.53831 0.0
C125 C 0.47196 0.99289 0.60842 0.0
H126 H 0.44516 0.97971 0.41599 0.0
H127 H 0.42401 0.93515 0.53629 0.0
S128 S 0.56176 0.11778 0.63638 0.0
N129 N 0.55069 0.11333 0.54264 0.0
N130 N 0.52757 0.065 0.67273 0.0
C131 C 0.50515 0.04105 0.6079 0.0
C132 C 0.5176 0.06732 0.53724 0.0
C133 C 0.55357 0.55107 0.72752 0.0
C134 C 0.53688 0.50533 0.75573 0.0
C135 C 0.53184 0.56014 0.66564 0.0
C136 C 0.49241 0.52389 0.62862 0.0
H137 H 0.58394 0.58044 0.75317 0.0
H138 H 0.5466 0.59613 0.64642 0.0
S139 S 0.43405 0.39766 0.68089 0.0
N140 N 0.47785 0.42311 0.74265 0.0
N141 N 0.43697 0.44017 0.62585 0.0
C142 C 0.47487 0.47789 0.65665 0.0
C143 C 0.49706 0.46862 0.72023 0.0
C144 C 0.26944 0.55256 0.32692 0.0
C145 C 0.25594 0.539 0.24961 0.0
C146 C 0.30983 0.5549 0.35794 0.0
C147 C 0.33866 0.54383 0.31308 0.0
H148 H 0.24954 0.56304 0.36345 0.0
H149 H 0.3194 0.5673 0.41678 0.0
S150 S 0.31586 0.50056 0.1103 0.0
N151 N 0.2724 0.5101 0.13103 0.0
N152 N 0.34822 0.5143 0.18922 0.0
C153 C 0.32408 0.52745 0.23708 0.0
C154 C 0.28281 0.52509 0.20542 0.0
C155 C 0.73506 0.2812 0.36081 0.0
C156 C 0.71373 0.24014 0.40628 0.0
C157 C 0.77231 0.32293 0.38926 0.0
C158 C 0.7901 0.32549 0.46433 0.0
H159 H 0.72179 0.28179 0.30367 0.0
H160 H 0.7863 0.35378 0.3526 0.0
S161 S 0.75058 0.22647 0.60349 0.0
N162 N 0.71607 0.20361 0.52781 0.0
N163 N 0.78615 0.282 0.58116 0.0
C164 C 0.77094 0.28405 0.50886 0.0
C165 C 0.73279 0.24145 0.47991 0.0
C166 C 0.49237 0.77756 0.68205 0.0
C167 C 0.48582 0.80762 0.63207 0.0
C168 C 0.49788 0.74086 0.65302 0.0
C169 C 0.49718 0.73268 0.57276 0.0
H170 H 0.49099 0.78086 0.74429 0.0
H171 H 0.50085 0.71764 0.6943 0.0
S172 S 0.48849 0.806 0.41689 0.0
N173 N 0.48444 0.83015 0.49801 0.0
N174 N 0.4947 0.76123 0.4436 0.0
C175 C 0.4939 0.76448 0.52201 0.0
C176 C 0.48824 0.80187 0.5516 0.0
C177 C 0.74516 0.48587 0.84448 0.0
C178 C 0.7083 0.47777 0.79422 0.0
C179 C 0.7861 0.48775 0.81675 0.0
C180 C 0.79208 0.48186 0.73753 0.0
H181 H 0.74171 0.4889 0.90629 0.0
H182 H 0.81259 0.49233 0.85845 0.0
S183 S 0.7086 0.46613 0.58027 0.0
N184 N 0.68234 0.46844 0.66025 0.0
N185 N 0.7592 0.47211 0.60813 0.0
C186 C 0.75664 0.47654 0.68598 0.0
C187 C 0.71482 0.47443 0.71433 0.0
C188 C 0.34413 0.71813 0.92707 0.0
C189 C 0.33563 0.75425 0.90432 0.0
C190 C 0.30962 0.67771 0.9639 0.0
C191 C 0.2653 0.6719 0.98107 0.0
H192 H 0.37772 0.72079 0.91566 0.0
H193 H 0.31801 0.65083 0.9795 0.0
S194 S 0.22528 0.75643 0.93523 0.0
N195 N 0.27955 0.78184 0.90183 0.0
N196 N 0.21466 0.70586 0.97299 0.0
C197 C 0.25628 0.70791 0.95964 0.0
C198 C 0.29138 0.749 0.92057 0.0
C199 C 0.54636 0.31206 0.15637 0.0
C200 C 0.55149 0.32332 0.07678 0.0
C201 C 0.54814 0.27295 0.18448 0.0
C202 C 0.5554 0.24362 0.13421 0.0
H203 H 0.54261 0.33452 0.19796 0.0
H204 H 0.54591 0.26696 0.24648 0.0
S205 S 0.56419 0.25353 0.91973 0.0
N206 N 0.55911 0.29874 0.94725 0.0
N207 N 0.5627 0.22556 1.00018 0.0
C208 C 0.55776 0.25278 0.05412 0.0
C209 C 0.5557 0.29247 1.02537 0.0
loop_
_geom_bond_atom_site_label_1
_geom_bond_atom_site_label_2
_geom_bond_distance
_geom_bond_site_symmetry_2
_ccdc_geom_bond_type
Mg0 O7 2.141 . S
Mg0 O8 2.039 1_554 S
Mg0 O9 2.047 . S
Mg0 O12 2.141 . S
C1 O2 1.313 . S
C1 O8 1.199 . S
O2 C1 1.313 . S
C3 O4 1.245 . S
C3 O12 1.289 . S
O4 C3 1.245 . S
C5 O6 1.245 . S
C5 O7 1.289 . S
O6 C5 1.245 . S
O7 Mg0 2.141 . S
O7 C5 1.289 . S
O8 Mg0 2.039 1_556 S
O8 C1 1.199 . S
O9 Mg0 2.047 . S
O9 C10 1.195 1_554 S
C10 O9 1.195 1_556 S
C10 O11 1.313 . S
O11 C10 1.313 . S
O12 Mg0 2.141 . S
O12 C3 1.289 . S
Mg13 O20 2.141 . S
Mg13 O21 2.048 . S
Mg13 O22 2.048 . S
Mg13 O25 2.141 . S
C14 O15 1.313 . S
C14 O21 1.195 . S
O15 C14 1.313 . S
C16 O17 1.245 . S
C16 O25 1.289 . S
O17 C16 1.245 . S
C18 O19 1.245 . S
C18 O20 1.289 . S
O19 C18 1.245 . S
O20 Mg13 2.141 . S
O20 C18 1.289 . S
O21 Mg13 2.048 . S
O21 C14 1.195 . S
O22 Mg13 2.048 . S
O22 C23 1.195 . S
C23 O22 1.195 . S
C23 O24 1.313 . S
O24 C23 1.313 . S
O25 Mg13 2.141 . S
O25 C16 1.289 . S
Mg26 O33 2.141 . S
Mg26 O34 2.048 . S
Mg26 O35 2.048 . S
Mg26 O38 2.141 . S
C27 O28 1.313 . S
C27 O34 1.195 . S
O28 C27 1.313 . S
C29 O30 1.245 . S
C29 O38 1.289 . S
O30 C29 1.245 . S
C31 O32 1.245 . S
C31 O33 1.289 . S
O32 C31 1.245 . S
O33 Mg26 2.141 . S
O33 C31 1.289 . S
O34 Mg26 2.048 . S
O34 C27 1.195 . S
O35 Mg26 2.048 . S
O35 C36 1.195 . S
C36 O35 1.195 . S
C36 O37 1.313 . S
O37 C36 1.313 . S
O38 Mg26 2.141 . S
O38 C29 1.289 . S
Mg39 O46 2.141 . S
Mg39 O47 2.048 . S
Mg39 O48 2.048 . S
Mg39 O51 2.141 . S
C40 O41 1.313 . S
C40 O47 1.195 . S
O41 C40 1.313 . S
C42 O43 1.245 . S
C42 O51 1.289 . S
O43 C42 1.245 . S
C44 O45 1.245 . S
C44 O46 1.289 . S
O45 C44 1.245 . S
O46 Mg39 2.141 . S
O46 C44 1.289 . S
O47 Mg39 2.048 . S
O47 C40 1.195 . S
O48 Mg39 2.048 . S
O48 C49 1.195 . S
C49 O48 1.195 . S
C49 O50 1.313 . S
O50 C49 1.313 . S
O51 Mg39 2.141 . S
O51 C42 1.289 . S
Mg52 O59 2.141 . S
Mg52 O60 2.048 . S
Mg52 O61 2.048 . S
Mg52 O64 2.141 . S
C53 O54 1.313 . S
C53 O60 1.195 . S
O54 C53 1.313 . S
C55 O56 1.245 . S
C55 O64 1.289 . S
O56 C55 1.245 . S
C57 O58 1.245 . S
C57 O59 1.289 . S
O58 C57 1.245 . S
O59 Mg52 2.141 . S
O59 C57 1.289 . S
O60 Mg52 2.048 . S
O60 C53 1.195 . S
O61 Mg52 2.048 . S
O61 C62 1.195 . S
C62 O61 1.195 . S
C62 O63 1.313 . S
O63 C62 1.313 . S
O64 Mg52 2.141 . S
O64 C55 1.289 . S
Mg65 O72 2.141 . S
Mg65 O73 2.048 . S
Mg65 O74 2.048 . S
Mg65 O77 2.141 . S
C66 O67 1.313 . S
C66 O73 1.195 . S
O67 C66 1.313 . S
C68 O69 1.245 . S
C68 O77 1.289 1_554 S
O69 C68 1.245 . S
C70 O71 1.245 . S
C70 O72 1.289 1_554 S
O71 C70 1.245 . S
O72 Mg65 2.141 . S
O72 C70 1.289 1_556 S
O73 Mg65 2.048 . S
O73 C66 1.195 . S
O74 Mg65 2.048 . S
O74 C75 1.195 . S
C75 O74 1.195 . S
C75 O76 1.313 . S
O76 C75 1.313 . S
O77 Mg65 2.141 . S
O77 C68 1.289 1_556 S
C78 C79 1.369 . S
C78 C80 1.419 . S
C78 H82 0.930 . S
C79 C78 1.369 . S
C79 C88 1.429 1_455 S
C80 C78 1.419 . S
C80 C81 1.363 1_455 S
C80 H83 0.929 . S
C81 C80 1.363 1_655 S
C81 C87 1.428 . S
H82 C78 0.930 . S
H83 C80 0.929 . S
S84 N85 1.613 . S
S84 N86 1.610 . S
N85 S84 1.613 . S
N85 C88 1.350 . S
N86 S84 1.610 . S
N86 C87 1.351 . S
C87 C81 1.428 . S
C87 N86 1.351 . S
C87 C88 1.434 . S
C88 C79 1.429 1_655 S
C88 N85 1.350 . S
C88 C87 1.434 . S
C89 C90 1.369 . S
C89 C91 1.419 1_556 S
C89 H93 0.930 . S
C90 C89 1.369 . S
C90 C99 1.429 1_565 S
C91 C89 1.419 1_554 S
C91 C92 1.363 1_565 S
C91 H94 0.929 . S
C92 C91 1.363 1_545 S
C92 C98 1.428 . S
H93 C89 0.930 . S
H94 C91 0.929 . S
S95 N96 1.613 . S
S95 N97 1.608 1_556 S
N96 S95 1.613 . S
N96 C99 1.350 . S
N97 S95 1.608 1_554 S
N97 C98 1.351 . S
C98 C92 1.428 . S
C98 N97 1.351 . S
C98 C99 1.434 1_554 S
C99 C90 1.429 1_545 S
C99 N96 1.350 . S
C99 C98 1.434 1_556 S
C100 C101 1.369 . S
C100 C102 1.419 . S
C100 H104 0.930 . S
C101 C100 1.369 . S
C101 C110 1.429 . S
C102 C100 1.419 . S
C102 C103 1.363 . S
C102 H105 0.929 . S
C103 C102 1.363 . S
C103 C109 1.428 . S
H104 C100 0.930 . S
H105 C102 0.929 . S
S106 N107 1.613 . S
S106 N108 1.610 . S
N107 S106 1.613 . S
N107 C110 1.350 . S
N108 S106 1.610 . S
N108 C109 1.351 . S
C109 C103 1.428 . S
C109 N108 1.351 . S
C109 C110 1.434 . S
C110 C101 1.429 . S
C110 N107 1.350 . S
C110 C109 1.434 . S
C111 C112 1.369 . S
C111 C113 1.419 . S
C111 H115 0.930 . S
C112 C111 1.369 . S
C112 C121 1.429 1_655 S
C113 C111 1.419 . S
C113 C114 1.363 1_655 S
C113 H116 0.929 . S
C114 C113 1.363 1_455 S
C114 C120 1.428 . S
H115 C111 0.930 . S
H116 C113 0.929 . S
S117 N118 1.613 . S
S117 N119 1.610 . S
N118 S117 1.613 . S
N118 C121 1.350 . S
N119 S117 1.610 . S
N119 C120 1.351 . S
C120 C114 1.428 . S
C120 N119 1.351 . S
C120 C121 1.434 . S
C121 C112 1.429 1_455 S
C121 N118 1.350 . S
C121 C120 1.434 . S
C122 C123 1.369 . S
C122 C124 1.419 . S
C122 H126 0.930 . S
C123 C122 1.369 . S
C123 C132 1.429 1_545 S
C124 C122 1.419 . S
C124 C125 1.363 1_545 S
C124 H127 0.929 . S
C125 C124 1.363 1_565 S
C125 C131 1.428 . S
H126 C122 0.930 . S
H127 C124 0.929 . S
S128 N129 1.613 . S
S128 N130 1.610 . S
N129 S128 1.613 . S
N129 C132 1.350 . S
N130 S128 1.610 . S
N130 C131 1.351 . S
C131 C125 1.428 . S
C131 N130 1.351 . S
C131 C132 1.434 . S
C132 C123 1.429 1_565 S
C132 N129 1.350 . S
C132 C131 1.434 . S
C133 C134 1.369 . S
C133 C135 1.419 . S
C133 H137 0.930 . S
C134 C133 1.369 . S
C134 C143 1.429 . S
C135 C133 1.419 . S
C135 C136 1.363 . S
C135 H138 0.929 . S
C136 C135 1.363 . S
C136 C142 1.428 . S
H137 C133 0.930 . S
H138 C135 0.929 . S
S139 N140 1.613 . S
S139 N141 1.610 . S
N140 S139 1.613 . S
N140 C143 1.350 . S
N141 S139 1.610 . S
N141 C142 1.351 . S
C142 C136 1.428 . S
C142 N141 1.351 . S
C142 C143 1.434 . S
C143 C134 1.429 . S
C143 N140 1.350 . S
C143 C142 1.434 . S
C144 C145 1.369 . S
C144 C146 1.419 . S
C144 H148 0.930 . S
C145 C144 1.369 . S
C145 C154 1.429 . S
C146 C144 1.419 . S
C146 C147 1.363 . S
C146 H149 0.929 . S
C147 C146 1.363 . S
C147 C153 1.428 . S
H148 C144 0.930 . S
H149 C146 0.929 . S
S150 N151 1.613 . S
S150 N152 1.610 . S
N151 S150 1.613 . S
N151 C154 1.350 . S
N152 S150 1.610 . S
N152 C153 1.351 . S
C153 C147 1.428 . S
C153 N152 1.351 . S
C153 C154 1.434 . S
C154 C145 1.429 . S
C154 N151 1.350 . S
C154 C153 1.434 . S
C155 C156 1.369 . S
C155 C157 1.419 . S
C155 H159 0.930 . S
C156 C155 1.369 . S
C156 C165 1.429 . S
C157 C155 1.419 . S
C157 C158 1.363 . S
C157 H160 0.929 . S
C158 C157 1.363 . S
C158 C164 1.428 . S
H159 C155 0.930 . S
H160 C157 0.929 . S
S161 N162 1.613 . S
S161 N163 1.610 . S
N162 S161 1.613 . S
N162 C165 1.350 . S
N163 S161 1.610 . S
N163 C164 1.351 . S
C164 C158 1.428 . S
C164 N163 1.351 . S
C164 C165 1.434 . S
C165 C156 1.429 . S
C165 N162 1.350 . S
C165 C164 1.434 . S
C166 C167 1.369 . S
C166 C168 1.419 . S
C166 H170 0.930 . S
C167 C166 1.369 . S
C167 C176 1.429 . S
C168 C166 1.419 . S
C168 C169 1.363 . S
C168 H171 0.929 . S
C169 C168 1.363 . S
C169 C175 1.428 . S
H170 C166 0.930 . S
H171 C168 0.929 . S
S172 N173 1.613 . S
S172 N174 1.610 . S
N173 S172 1.613 . S
N173 C176 1.350 . S
N174 S172 1.610 . S
N174 C175 1.351 . S
C175 C169 1.428 . S
C175 N174 1.351 . S
C175 C176 1.434 . S
C176 C167 1.429 . S
C176 N173 1.350 . S
C176 C175 1.434 . S
C177 C178 1.369 . S
C177 C179 1.419 . S
C177 H181 0.930 . S
C178 C177 1.369 . S
C178 C187 1.429 . S
C179 C177 1.419 . S
C179 C180 1.363 . S
C179 H182 0.929 . S
C180 C179 1.363 . S
C180 C186 1.428 . S
H181 C177 0.930 . S
H182 C179 0.929 . S
S183 N184 1.613 . S
S183 N185 1.610 . S
N184 S183 1.613 . S
N184 C187 1.350 . S
N185 S183 1.610 . S
N185 C186 1.351 . S
C186 C180 1.428 . S
C186 N185 1.351 . S
C186 C187 1.434 . S
C187 C178 1.429 . S
C187 N184 1.350 . S
C187 C186 1.434 . S
C188 C189 1.369 . S
C188 C190 1.419 . S
C188 H192 0.930 . S
C189 C188 1.369 . S
C189 C198 1.429 . S
C190 C188 1.419 . S
C190 C191 1.363 . S
C190 H193 0.929 . S
C191 C190 1.363 . S
C191 C197 1.428 . S
H192 C188 0.930 . S
H193 C190 0.929 . S
S194 N195 1.613 . S
S194 N196 1.610 . S
N195 S194 1.613 . S
N195 C198 1.350 . S
N196 S194 1.610 . S
N196 C197 1.351 . S
C197 C191 1.428 . S
C197 N196 1.351 . S
C197 C198 1.434 . S
C198 C189 1.429 . S
C198 N195 1.350 . S
C198 C197 1.434 . S
C199 C200 1.369 . S
C199 C201 1.419 . S
C199 H203 0.930 . S
C200 C199 1.369 . S
C200 C209 1.429 . S
C201 C199 1.419 . S
C201 C202 1.363 . S
C201 H204 0.929 . S
C202 C201 1.363 . S
C202 C208 1.428 . S
H203 C199 0.930 . S
H204 C201 0.929 . S
S205 N206 1.613 . S
S205 N207 1.610 1_556 S
N206 S205 1.613 . S
N206 C209 1.350 1_556 S
N207 S205 1.610 1_554 S
N207 C208 1.351 . S
C208 C202 1.428 . S
C208 N207 1.351 . S
C208 C209 1.434 . S
C209 C200 1.429 . S
C209 N206 1.350 1_554 S
C209 C208 1.434 . S
C79 C10 1.838 . S
C81 C42 1.773 . S
C90 C55 1.777 . S
C92 C23 1.835 . S
C101 C36 1.838 . S
C103 C68 1.773 . S
C112 C49 1.838 . S
C114 C3 1.771 . S
C123 C16 1.777 . S
C125 C62 1.836 . S
C134 C75 1.836 . S
C136 C29 1.772 . S
C145 C5 1.645 . S
C147 C27 1.576 . S
C156 C18 1.646 . S
C158 C40 1.578 . S
C167 C53 1.583 . S
C169 C31 1.643 . S
C178 C66 1.583 . S
C180 C44 1.644 . S
C189 C57 1.647 . S
C191 C1 1.574 . S
C200 C70 1.645 . S
C202 C14 1.577 . S
