# Generated by pormake.
# Topology uop, (4)-cn, num edge types: 1
# Building blocks:
#     Node 0, Type 0, BuildingBlock: NAWXER_clean_sbu_0, # of connection points: 4
#     Node 1, Type 0, BuildingBlock: NAWXER_clean_sbu_0, # of connection points: 4
#     Node 2, Type 0, BuildingBlock: NAWXER_clean_sbu_0, # of connection points: 4
#     Node 3, Type 0, BuildingBlock: NAWXER_clean_sbu_0, # of connection points: 4
#     Node 4, Type 0, BuildingBlock: NAWXER_clean_sbu_0, # of connection points: 4
#     Node 5, Type 0, BuildingBlock: NAWXER_clean_sbu_0, # of connection points: 4
#     Node 6, Type 0, BuildingBlock: NAWXER_clean_sbu_0, # of connection points: 4
#     Node 7, Type 0, BuildingBlock: NAWXER_clean_sbu_0, # of connection points: 4
#     Node 8, Type 0, BuildingBlock: NAWXER_clean_sbu_0, # of connection points: 4
#     Node 9, Type 0, BuildingBlock: NAWXER_clean_sbu_0, # of connection points: 4
#     Node 10, Type 0, BuildingBlock: NAWXER_clean_sbu_0, # of connection points: 4
#     Node 11, Type 0, BuildingBlock: NAWXER_clean_sbu_0, # of connection points: 4
#     Edge 12, Type (0, 0), None
#     Edge 13, Type (0, 0), None
#     Edge 14, Type (0, 0), None
#     Edge 15, Type (0, 0), None
#     Edge 16, Type (0, 0), None
#     Edge 17, Type (0, 0), None
#     Edge 18, Type (0, 0), None
#     Edge 19, Type (0, 0), None
#     Edge 20, Type (0, 0), None
#     Edge 21, Type (0, 0), None
#     Edge 22, Type (0, 0), None
#     Edge 23, Type (0, 0), None
#     Edge 24, Type (0, 0), None
#     Edge 25, Type (0, 0), None
#     Edge 26, Type (0, 0), None
#     Edge 27, Type (0, 0), None
#     Edge 28, Type (0, 0), None
#     Edge 29, Type (0, 0), None
#     Edge 30, Type (0, 0), None
#     Edge 31, Type (0, 0), None
#     Edge 32, Type (0, 0), None
#     Edge 33, Type (0, 0), None
#     Edge 34, Type (0, 0), None
#     Edge 35, Type (0, 0), None
# Relax obj value: 0.102
# Max RMSD: 0.272
# Mean RMSD: 0.272
data_MOF--net-uop--node1-NAWXER_clean_sbu_0--edge1-none
_symmetry_space_group_name_H-M    P1
_symmetry_Int_Tables_number       1
_symmetry_cell_setting            triclinic
loop_
_symmetry_equiv_pos_as_xyz
'x, y, z'
_cell_length_a     14.583619
_cell_length_b     14.58364
_cell_length_c     21.215151
_cell_angle_alpha  89.999074
_cell_angle_beta   89.998752
_cell_angle_gamma 119.99988
loop_
_atom_site_label
_atom_site_type_symbol
_atom_site_fract_x
_atom_site_fract_y
_atom_site_fract_z
_atom_type_partial_charge
C0 C 0.29205 0.33084 0.29468 0.0
C1 C 0.24646 0.58066 0.16589 0.0
O2 O 0.29317 0.31253 0.23556 0.0
Zn3 Zn 0.26644 0.37303 0.14799 0.0
O4 O 0.26988 0.40039 0.31308 0.0
Zn5 Zn 0.25857 0.44928 0.23135 0.0
O6 O 0.10894 0.3271 0.20053 0.0
O7 O 0.13442 0.25923 0.11401 0.0
O8 O 0.2465 0.57458 0.2256 0.0
O9 O 0.25272 0.51111 0.13221 0.0
O10 O 0.40023 0.41657 0.10502 0.0
O11 O 0.41458 0.50293 0.19373 0.0
C12 C 0.07214 0.26012 0.15552 0.0
C13 C 0.4574 0.48559 0.14588 0.0
C14 C 0.82203 0.06718 0.48886 0.0
C15 C 0.98181 0.45244 0.47923 0.0
O16 O 0.79184 0.10397 0.53388 0.0
Zn17 Zn 0.81929 0.25361 0.56469 0.0
O18 O 0.88518 0.12946 0.44734 0.0
Zn19 Zn 0.9034 0.26147 0.48133 0.0
O20 O 0.99062 0.28819 0.5689 0.0
O21 O 0.87948 0.2649 0.64642 0.0
O22 O 0.99366 0.39528 0.43836 0.0
O23 O 0.92166 0.40962 0.52708 0.0
O24 O 0.68192 0.24154 0.55895 0.0
O25 O 0.75161 0.24777 0.46556 0.0
C26 C 0.9712 0.28707 0.62801 0.0
C27 C 0.6758 0.24151 0.49924 0.0
C28 C 0.69412 0.96621 0.96132 0.0
C29 C 0.44429 0.67079 0.83256 0.0
O30 O 0.71242 0.98563 0.90221 0.0
Zn31 Zn 0.65191 0.8984 0.81464 0.0
O32 O 0.62456 0.87449 0.97973 0.0
Zn33 Zn 0.57567 0.81429 0.89801 0.0
O34 O 0.69785 0.78685 0.8672 0.0
O35 O 0.76571 0.88017 0.78066 0.0
O36 O 0.45037 0.67693 0.89227 0.0
O37 O 0.51383 0.7466 0.79888 0.0
O38 O 0.60837 0.98865 0.77167 0.0
O39 O 0.52202 0.91666 0.86039 0.0
C40 C 0.76483 0.81703 0.82218 0.0
C41 C 0.53935 0.9768 0.81254 0.0
C42 C 0.7379 0.68912 0.29467 0.0
C43 C 0.78347 0.43927 0.1659 0.0
O44 O 0.73678 0.70742 0.23555 0.0
Zn45 Zn 0.7635 0.6469 0.14798 0.0
O46 O 0.76006 0.61956 0.31307 0.0
Zn47 Zn 0.77136 0.57065 0.23135 0.0
O48 O 0.92099 0.69283 0.20053 0.0
O49 O 0.89552 0.76069 0.11399 0.0
O50 O 0.78342 0.44535 0.22561 0.0
O51 O 0.77721 0.50882 0.13222 0.0
O52 O 0.6297 0.60336 0.10502 0.0
O53 O 0.61535 0.51701 0.19374 0.0
C54 C 0.95779 0.75981 0.1555 0.0
C55 C 0.57254 0.53434 0.14588 0.0
C56 C 0.05879 0.73293 0.62802 0.0
C57 C 0.35421 0.77851 0.49925 0.0
O58 O 0.03938 0.73182 0.5689 0.0
Zn59 Zn 0.12661 0.75854 0.48134 0.0
O60 O 0.15051 0.75509 0.64642 0.0
Zn61 Zn 0.21072 0.7664 0.5647 0.0
O62 O 0.23817 0.91603 0.53389 0.0
O63 O 0.14485 0.89056 0.44735 0.0
O64 O 0.34809 0.77846 0.55896 0.0
O65 O 0.27841 0.77225 0.46557 0.0
O66 O 0.03636 0.62475 0.43837 0.0
O67 O 0.10836 0.61039 0.52709 0.0
C68 C 0.20799 0.95283 0.48887 0.0
C69 C 0.04822 0.56758 0.47923 0.0
C70 C 0.33583 0.05375 0.96132 0.0
C71 C 0.58567 0.3492 0.83257 0.0
O72 O 0.31754 0.03434 0.90221 0.0
Zn73 Zn 0.37805 0.1216 0.81464 0.0
O74 O 0.40538 0.14547 0.97973 0.0
Zn75 Zn 0.45428 0.20569 0.89801 0.0
O76 O 0.3321 0.23314 0.8672 0.0
O77 O 0.26425 0.13983 0.78067 0.0
O78 O 0.57958 0.34306 0.89228 0.0
O79 O 0.51613 0.2734 0.79888 0.0
O80 O 0.4216 0.03135 0.77167 0.0
O81 O 0.50794 0.10334 0.86039 0.0
C82 C 0.26512 0.20296 0.82218 0.0
C83 C 0.49062 0.04321 0.81253 0.0
C84 C 0.44432 0.77851 0.46862 0.0
C85 C 0.69414 0.73292 0.33985 0.0
O86 O 0.51387 0.77226 0.5023 0.0
Zn87 Zn 0.65195 0.75854 0.48653 0.0
O88 O 0.45039 0.77845 0.40891 0.0
Zn89 Zn 0.57569 0.76639 0.40316 0.0
O90 O 0.52205 0.61039 0.44079 0.0
O91 O 0.60841 0.62475 0.5295 0.0
O92 O 0.62459 0.75507 0.32144 0.0
O93 O 0.71245 0.7318 0.39896 0.0
O94 O 0.76574 0.89056 0.52051 0.0
O95 O 0.69787 0.91603 0.43397 0.0
C96 C 0.53937 0.56758 0.48865 0.0
C97 C 0.76484 0.95282 0.47899 0.0
C98 C 0.97122 0.68915 0.67319 0.0
C99 C 0.67578 0.43931 0.80194 0.0
O100 O 0.99063 0.70745 0.73231 0.0
Zn101 Zn 0.90338 0.64693 0.81987 0.0
O102 O 0.87951 0.61959 0.65478 0.0
Zn103 Zn 0.81929 0.57069 0.7365 0.0
O104 O 0.79184 0.69288 0.7673 0.0
O105 O 0.88515 0.76072 0.85385 0.0
O106 O 0.68192 0.44539 0.74223 0.0
O107 O 0.75158 0.50885 0.83563 0.0
O108 O 0.99362 0.60338 0.86284 0.0
O109 O 0.92164 0.51704 0.77412 0.0
C110 C 0.82202 0.75985 0.81232 0.0
C111 C 0.98178 0.53437 0.82197 0.0
C112 C 0.24647 0.67077 0.13526 0.0
C113 C 0.29205 0.96619 0.0065 0.0
O114 O 0.25272 0.74656 0.16894 0.0
Zn115 Zn 0.26643 0.89836 0.15318 0.0
O116 O 0.24653 0.6769 0.07555 0.0
Zn117 Zn 0.2586 0.81427 0.06981 0.0
O118 O 0.41459 0.91663 0.10743 0.0
O119 O 0.40022 0.98861 0.19615 0.0
O120 O 0.26991 0.87448 -0.01191 0.0
O121 O 0.29316 0.9856 0.06561 0.0
O122 O 0.13441 0.88013 0.18716 0.0
O123 O 0.10895 0.7868 0.10062 0.0
C124 C 0.4574 0.97676 0.15529 0.0
C125 C 0.07216 0.81698 0.14564 0.0
C126 C 0.5857 0.24151 0.46861 0.0
C127 C 0.33584 0.28707 0.33986 0.0
O128 O 0.51615 0.24776 0.50229 0.0
Zn129 Zn 0.37806 0.26147 0.48653 0.0
O130 O 0.57962 0.24157 0.4089 0.0
Zn131 Zn 0.45432 0.25363 0.40316 0.0
O132 O 0.50796 0.40963 0.44079 0.0
O133 O 0.4216 0.39526 0.52951 0.0
O134 O 0.40541 0.26493 0.32144 0.0
O135 O 0.31754 0.28819 0.39897 0.0
O136 O 0.26428 0.12945 0.52052 0.0
O137 O 0.33215 0.10399 0.43398 0.0
C138 C 0.49064 0.45243 0.48865 0.0
C139 C 0.26518 0.0672 0.47901 0.0
C140 C 0.05876 0.33085 0.67319 0.0
C141 C 0.35418 0.58069 0.80194 0.0
O142 O 0.03934 0.31255 0.7323 0.0
Zn143 Zn 0.12658 0.37306 0.81987 0.0
O144 O 0.15048 0.40041 0.65478 0.0
Zn145 Zn 0.21068 0.44931 0.7365 0.0
O146 O 0.23813 0.32712 0.76731 0.0
O147 O 0.14481 0.25927 0.85385 0.0
O148 O 0.34805 0.5746 0.74223 0.0
O149 O 0.27838 0.51114 0.83563 0.0
O150 O 0.03633 0.41661 0.86284 0.0
O151 O 0.10832 0.50295 0.77412 0.0
C152 C 0.20794 0.26014 0.81233 0.0
C153 C 0.04819 0.48563 0.82197 0.0
C154 C 0.78347 0.34917 0.13527 0.0
C155 C 0.73791 0.05377 0.0065 0.0
O156 O 0.77721 0.27336 0.16895 0.0
Zn157 Zn 0.7635 0.12157 0.15318 0.0
O158 O 0.78342 0.34304 0.07556 0.0
Zn159 Zn 0.77136 0.20568 0.06982 0.0
O160 O 0.61535 0.10331 0.10744 0.0
O161 O 0.62971 0.03131 0.19615 0.0
O162 O 0.76006 0.14548 -0.01191 0.0
O163 O 0.73678 0.03434 0.06562 0.0
O164 O 0.89552 0.13979 0.18717 0.0
O165 O 0.921 0.23313 0.10063 0.0
C166 C 0.57254 0.04318 0.15529 0.0
C167 C 0.95778 0.20295 0.14565 0.0
loop_
_geom_bond_atom_site_label_1
_geom_bond_atom_site_label_2
_geom_bond_distance
_geom_bond_site_symmetry_2
_ccdc_geom_bond_type
C0 O2 1.247 . S
C0 O4 1.258 . S
C1 O8 1.247 . S
C1 O9 1.258 . S
O2 C0 1.247 . S
O2 Zn3 2.028 . S
Zn3 O2 2.028 . S
Zn3 O7 2.035 . S
Zn3 O9 2.035 . S
Zn3 O10 2.028 . S
O4 C0 1.258 . S
O4 Zn5 2.035 . S
Zn5 O4 2.035 . S
Zn5 O6 2.028 . S
Zn5 O8 2.028 . S
Zn5 O11 2.035 . S
O6 Zn5 2.028 . S
O6 C12 1.247 . S
O7 Zn3 2.035 . S
O7 C12 1.258 . S
O8 C1 1.247 . S
O8 Zn5 2.028 . S
O9 C1 1.258 . S
O9 Zn3 2.035 . S
O10 Zn3 2.028 . S
O10 C13 1.247 . S
O11 Zn5 2.035 . S
O11 C13 1.258 . S
C12 O6 1.247 . S
C12 O7 1.258 . S
C13 O10 1.247 . S
C13 O11 1.258 . S
C14 O16 1.247 . S
C14 O18 1.258 . S
C15 O22 1.247 . S
C15 O23 1.258 . S
O16 C14 1.247 . S
O16 Zn17 2.028 . S
Zn17 O16 2.028 . S
Zn17 O21 2.035 . S
Zn17 O23 2.035 . S
Zn17 O24 2.028 . S
O18 C14 1.258 . S
O18 Zn19 2.035 . S
Zn19 O18 2.035 . S
Zn19 O20 2.028 1_655 S
Zn19 O22 2.028 . S
Zn19 O25 2.035 . S
O20 Zn19 2.028 1_455 S
O20 C26 1.247 . S
O21 Zn17 2.035 . S
O21 C26 1.258 1_655 S
O22 C15 1.247 . S
O22 Zn19 2.028 . S
O23 C15 1.258 . S
O23 Zn17 2.035 . S
O24 Zn17 2.028 . S
O24 C27 1.247 . S
O25 Zn19 2.035 . S
O25 C27 1.258 . S
C26 O20 1.247 . S
C26 O21 1.258 1_455 S
C27 O24 1.247 . S
C27 O25 1.258 . S
C28 O30 1.247 . S
C28 O32 1.258 1_545 S
C29 O36 1.247 . S
C29 O37 1.258 . S
O30 C28 1.247 . S
O30 Zn31 2.028 1_545 S
Zn31 O30 2.028 1_565 S
Zn31 O35 2.035 . S
Zn31 O37 2.035 . S
Zn31 O38 2.028 . S
O32 C28 1.258 1_565 S
O32 Zn33 2.035 . S
Zn33 O32 2.035 . S
Zn33 O34 2.028 . S
Zn33 O36 2.028 . S
Zn33 O39 2.035 . S
O34 Zn33 2.028 . S
O34 C40 1.247 . S
O35 Zn31 2.035 . S
O35 C40 1.258 . S
O36 C29 1.247 . S
O36 Zn33 2.028 . S
O37 C29 1.258 . S
O37 Zn31 2.035 . S
O38 Zn31 2.028 . S
O38 C41 1.247 . S
O39 Zn33 2.035 . S
O39 C41 1.258 . S
C40 O34 1.247 . S
C40 O35 1.258 . S
C41 O38 1.247 . S
C41 O39 1.258 . S
C42 O44 1.247 . S
C42 O46 1.258 . S
C43 O50 1.247 . S
C43 O51 1.258 . S
O44 C42 1.247 . S
O44 Zn45 2.028 . S
Zn45 O44 2.028 . S
Zn45 O49 2.035 . S
Zn45 O51 2.035 . S
Zn45 O52 2.028 . S
O46 C42 1.258 . S
O46 Zn47 2.035 . S
Zn47 O46 2.035 . S
Zn47 O48 2.028 . S
Zn47 O50 2.028 . S
Zn47 O53 2.035 . S
O48 Zn47 2.028 . S
O48 C54 1.247 . S
O49 Zn45 2.035 . S
O49 C54 1.258 . S
O50 C43 1.247 . S
O50 Zn47 2.028 . S
O51 C43 1.258 . S
O51 Zn45 2.035 . S
O52 Zn45 2.028 . S
O52 C55 1.247 . S
O53 Zn47 2.035 . S
O53 C55 1.258 . S
C54 O48 1.247 . S
C54 O49 1.258 . S
C55 O52 1.247 . S
C55 O53 1.258 . S
C56 O58 1.247 . S
C56 O60 1.258 1_655 S
C57 O64 1.247 . S
C57 O65 1.258 . S
O58 C56 1.247 . S
O58 Zn59 2.028 1_655 S
Zn59 O58 2.028 1_455 S
Zn59 O63 2.035 . S
Zn59 O65 2.035 . S
Zn59 O66 2.028 . S
O60 C56 1.258 1_455 S
O60 Zn61 2.035 . S
Zn61 O60 2.035 . S
Zn61 O62 2.028 . S
Zn61 O64 2.028 . S
Zn61 O67 2.035 . S
O62 Zn61 2.028 . S
O62 C68 1.247 . S
O63 Zn59 2.035 . S
O63 C68 1.258 . S
O64 C57 1.247 . S
O64 Zn61 2.028 . S
O65 C57 1.258 . S
O65 Zn59 2.035 . S
O66 Zn59 2.028 . S
O66 C69 1.247 . S
O67 Zn61 2.035 . S
O67 C69 1.258 . S
C68 O62 1.247 . S
C68 O63 1.258 . S
C69 O66 1.247 . S
C69 O67 1.258 . S
C70 O72 1.247 . S
C70 O74 1.258 1_565 S
C71 O78 1.247 . S
C71 O79 1.258 . S
O72 C70 1.247 . S
O72 Zn73 2.028 1_565 S
Zn73 O72 2.028 1_545 S
Zn73 O77 2.035 . S
Zn73 O79 2.035 . S
Zn73 O80 2.028 . S
O74 C70 1.258 1_545 S
O74 Zn75 2.035 . S
Zn75 O74 2.035 . S
Zn75 O76 2.028 . S
Zn75 O78 2.028 . S
Zn75 O81 2.035 . S
O76 Zn75 2.028 . S
O76 C82 1.247 . S
O77 Zn73 2.035 . S
O77 C82 1.258 . S
O78 C71 1.247 . S
O78 Zn75 2.028 . S
O79 C71 1.258 . S
O79 Zn73 2.035 . S
O80 Zn73 2.028 . S
O80 C83 1.247 . S
O81 Zn75 2.035 . S
O81 C83 1.258 . S
C82 O76 1.247 . S
C82 O77 1.258 . S
C83 O80 1.247 . S
C83 O81 1.258 . S
C84 O86 1.247 . S
C84 O88 1.258 . S
C85 O92 1.247 . S
C85 O93 1.258 . S
O86 C84 1.247 . S
O86 Zn87 2.028 . S
Zn87 O86 2.028 . S
Zn87 O91 2.035 . S
Zn87 O93 2.035 . S
Zn87 O94 2.028 . S
O88 C84 1.258 . S
O88 Zn89 2.035 . S
Zn89 O88 2.035 . S
Zn89 O90 2.028 . S
Zn89 O92 2.028 . S
Zn89 O95 2.035 . S
O90 Zn89 2.028 . S
O90 C96 1.247 . S
O91 Zn87 2.035 . S
O91 C96 1.258 . S
O92 C85 1.247 . S
O92 Zn89 2.028 . S
O93 C85 1.258 . S
O93 Zn87 2.035 . S
O94 Zn87 2.028 . S
O94 C97 1.247 . S
O95 Zn89 2.035 . S
O95 C97 1.258 . S
C96 O90 1.247 . S
C96 O91 1.258 . S
C97 O94 1.247 . S
C97 O95 1.258 . S
C98 O100 1.247 . S
C98 O102 1.258 1_455 S
C99 O106 1.247 . S
C99 O107 1.258 . S
O100 C98 1.247 . S
O100 Zn101 2.028 1_455 S
Zn101 O100 2.028 1_655 S
Zn101 O105 2.035 . S
Zn101 O107 2.035 . S
Zn101 O108 2.028 . S
O102 C98 1.258 1_655 S
O102 Zn103 2.035 . S
Zn103 O102 2.035 . S
Zn103 O104 2.028 . S
Zn103 O106 2.028 . S
Zn103 O109 2.035 . S
O104 Zn103 2.028 . S
O104 C110 1.247 . S
O105 Zn101 2.035 . S
O105 C110 1.258 . S
O106 C99 1.247 . S
O106 Zn103 2.028 . S
O107 C99 1.258 . S
O107 Zn101 2.035 . S
O108 Zn101 2.028 . S
O108 C111 1.247 . S
O109 Zn103 2.035 . S
O109 C111 1.258 . S
C110 O104 1.247 . S
C110 O105 1.258 . S
C111 O108 1.247 . S
C111 O109 1.258 . S
C112 O114 1.247 . S
C112 O116 1.258 . S
C113 O120 1.236 1_545 S
C113 O121 1.260 . S
O114 C112 1.247 . S
O114 Zn115 2.028 . S
Zn115 O114 2.028 . S
Zn115 O119 2.035 . S
Zn115 O121 2.035 1_565 S
Zn115 O122 2.028 . S
O116 C112 1.258 . S
O116 Zn117 2.035 . S
Zn117 O116 2.035 . S
Zn117 O118 2.028 . S
Zn117 O120 2.028 . S
Zn117 O123 2.035 . S
O118 Zn117 2.028 . S
O118 C124 1.247 . S
O119 Zn115 2.035 . S
O119 C124 1.258 . S
O120 C113 1.236 1_565 S
O120 Zn117 2.028 . S
O121 C113 1.260 . S
O121 Zn115 2.035 1_545 S
O122 Zn115 2.028 . S
O122 C125 1.247 . S
O123 Zn117 2.035 . S
O123 C125 1.258 . S
C124 O118 1.247 . S
C124 O119 1.258 . S
C125 O122 1.247 . S
C125 O123 1.258 . S
C126 O128 1.247 . S
C126 O130 1.258 . S
C127 O134 1.247 . S
C127 O135 1.258 . S
O128 C126 1.247 . S
O128 Zn129 2.028 . S
Zn129 O128 2.028 . S
Zn129 O133 2.035 . S
Zn129 O135 2.035 . S
Zn129 O136 2.028 . S
O130 C126 1.258 . S
O130 Zn131 2.035 . S
Zn131 O130 2.035 . S
Zn131 O132 2.028 . S
Zn131 O134 2.028 . S
Zn131 O137 2.035 . S
O132 Zn131 2.028 . S
O132 C138 1.247 . S
O133 Zn129 2.035 . S
O133 C138 1.258 . S
O134 C127 1.247 . S
O134 Zn131 2.028 . S
O135 C127 1.258 . S
O135 Zn129 2.035 . S
O136 Zn129 2.028 . S
O136 C139 1.247 . S
O137 Zn131 2.035 . S
O137 C139 1.258 . S
C138 O132 1.247 . S
C138 O133 1.258 . S
C139 O136 1.247 . S
C139 O137 1.258 . S
C140 O142 1.247 . S
C140 O144 1.258 1_655 S
C141 O148 1.247 . S
C141 O149 1.258 . S
O142 C140 1.247 . S
O142 Zn143 2.028 1_655 S
Zn143 O142 2.028 1_455 S
Zn143 O147 2.035 . S
Zn143 O149 2.035 . S
Zn143 O150 2.028 . S
O144 C140 1.258 1_455 S
O144 Zn145 2.035 . S
Zn145 O144 2.035 . S
Zn145 O146 2.028 . S
Zn145 O148 2.028 . S
Zn145 O151 2.035 . S
O146 Zn145 2.028 . S
O146 C152 1.247 . S
O147 Zn143 2.035 . S
O147 C152 1.258 . S
O148 C141 1.247 . S
O148 Zn145 2.028 . S
O149 C141 1.258 . S
O149 Zn143 2.035 . S
O150 Zn143 2.028 . S
O150 C153 1.247 . S
O151 Zn145 2.035 . S
O151 C153 1.258 . S
C152 O146 1.247 . S
C152 O147 1.258 . S
C153 O150 1.247 . S
C153 O151 1.258 . S
C154 O156 1.247 . S
C154 O158 1.258 . S
C155 O162 1.236 1_565 S
C155 O163 1.260 . S
O156 C154 1.247 . S
O156 Zn157 2.028 . S
Zn157 O156 2.028 . S
Zn157 O161 2.035 . S
Zn157 O163 2.035 1_545 S
Zn157 O164 2.028 . S
O158 C154 1.258 . S
O158 Zn159 2.035 . S
Zn159 O158 2.035 . S
Zn159 O160 2.028 . S
Zn159 O162 2.028 . S
Zn159 O165 2.035 . S
O160 Zn159 2.028 . S
O160 C166 1.247 . S
O161 Zn157 2.035 . S
O161 C166 1.258 . S
O162 C155 1.236 1_545 S
O162 Zn159 2.028 . S
O163 C155 1.260 . S
O163 Zn157 2.035 1_565 S
O164 Zn157 2.028 . S
O164 C167 1.247 . S
O165 Zn159 2.035 . S
O165 C167 1.258 . S
C166 O160 1.247 . S
C166 O161 1.258 . S
C167 O164 1.247 . S
C167 O165 1.258 . S
C112 C1 2.923 . S
C27 C126 2.923 . S
C29 C141 2.915 . S
C43 C154 2.923 . S
C84 C57 2.923 . S
C71 C99 2.915 . S
C55 C13 1.576 . S
C69 C15 1.576 1_455 S
C83 C41 1.576 1_545 S
C96 C138 1.582 . S
C111 C153 1.576 1_655 S
C124 C166 1.582 1_565 S
C0 C127 2.548 . S
C26 C140 2.556 1_455 S
C28 C155 2.548 1_546 S
C85 C42 2.548 . S
C56 C98 2.556 1_655 S
C113 C70 2.548 1_544 S
C167 C12 1.710 1_655 S
C14 C97 1.710 1_545 S
C110 C40 1.715 . S
C54 C125 1.710 1_655 S
C68 C139 1.710 1_565 S
C152 C82 1.715 . S
