# Generated by pormake.
# Topology sra, (4)-cn, num edge types: 1
# Building blocks:
#     Node 0, Type 0, BuildingBlock: NAHDIM_clean_sbu_0, # of connection points: 4
#     Node 1, Type 0, BuildingBlock: NAHDIM_clean_sbu_0, # of connection points: 4
#     Node 2, Type 0, BuildingBlock: NAHDIM_clean_sbu_0, # of connection points: 4
#     Node 3, Type 0, BuildingBlock: NAHDIM_clean_sbu_0, # of connection points: 4
#     Node 4, Type 0, BuildingBlock: NAHDIM_clean_sbu_0, # of connection points: 4
#     Node 5, Type 0, BuildingBlock: NAHDIM_clean_sbu_0, # of connection points: 4
#     Node 6, Type 0, BuildingBlock: NAHDIM_clean_sbu_0, # of connection points: 4
#     Node 7, Type 0, BuildingBlock: NAHDIM_clean_sbu_0, # of connection points: 4
#     Edge 8, Type (0, 0), BuildingBlock: EYOCIG_clean_linker_4, # of connection points: 2
#     Edge 9, Type (0, 0), BuildingBlock: EYOCIG_clean_linker_4, # of connection points: 2
#     Edge 10, Type (0, 0), BuildingBlock: EYOCIG_clean_linker_4, # of connection points: 2
#     Edge 11, Type (0, 0), BuildingBlock: EYOCIG_clean_linker_4, # of connection points: 2
#     Edge 12, Type (0, 0), BuildingBlock: EYOCIG_clean_linker_4, # of connection points: 2
#     Edge 13, Type (0, 0), BuildingBlock: EYOCIG_clean_linker_4, # of connection points: 2
#     Edge 14, Type (0, 0), BuildingBlock: EYOCIG_clean_linker_4, # of connection points: 2
#     Edge 15, Type (0, 0), BuildingBlock: EYOCIG_clean_linker_4, # of connection points: 2
#     Edge 16, Type (0, 0), BuildingBlock: EYOCIG_clean_linker_4, # of connection points: 2
#     Edge 17, Type (0, 0), BuildingBlock: EYOCIG_clean_linker_4, # of connection points: 2
#     Edge 18, Type (0, 0), BuildingBlock: EYOCIG_clean_linker_4, # of connection points: 2
#     Edge 19, Type (0, 0), BuildingBlock: EYOCIG_clean_linker_4, # of connection points: 2
#     Edge 20, Type (0, 0), BuildingBlock: EYOCIG_clean_linker_4, # of connection points: 2
#     Edge 21, Type (0, 0), BuildingBlock: EYOCIG_clean_linker_4, # of connection points: 2
#     Edge 22, Type (0, 0), BuildingBlock: EYOCIG_clean_linker_4, # of connection points: 2
#     Edge 23, Type (0, 0), BuildingBlock: EYOCIG_clean_linker_4, # of connection points: 2
# Relax obj value: 0.090
# Max RMSD: 0.091
# Mean RMSD: 0.091
data_MOF--net-sra--node1-NAHDIM_clean_sbu_0--edge1-EYOCIG_clean_linker_4
_symmetry_space_group_name_H-M    P1
_symmetry_Int_Tables_number       1
_symmetry_cell_setting            triclinic
loop_
_symmetry_equiv_pos_as_xyz
'x, y, z'
_cell_length_a     19.730487
_cell_length_b     39.174138
_cell_length_c     33.566554
_cell_angle_alpha  90.03203
_cell_angle_beta   89.948133
_cell_angle_gamma 89.981595
loop_
_atom_site_label
_atom_site_type_symbol
_atom_site_fract_x
_atom_site_fract_y
_atom_site_fract_z
_atom_type_partial_charge
C0 C 0.00764 0.02711 0.06935 0.0
O1 O 0.00048 0.00895 0.10191 0.0
O2 O 0.92633 0.07323 0.153 0.0
Zn3 Zn 0.01612 0.08153 0.12529 0.0
O4 O 0.09471 0.06116 0.15583 0.0
C5 C 0.00165 0.15393 0.14029 0.0
O6 O 0.96457 0.14336 0.17027 0.0
O7 O 0.01436 0.05924 0.07157 0.0
C8 C 0.12521 0.07874 0.18198 0.0
O9 O 0.10441 0.10975 0.19015 0.0
C10 C 0.92113 0.06759 0.19014 0.0
O11 O 0.97556 0.06621 0.21246 0.0
O12 O 0.02975 0.13241 0.11726 0.0
C13 C 0.02399 0.45005 0.07002 0.0
O14 O 0.03252 0.46779 0.1028 0.0
O15 O 0.10656 0.40375 0.15195 0.0
Zn16 Zn 0.0161 0.39539 0.12527 0.0
O17 O 0.93837 0.41572 0.1567 0.0
C18 C 0.03117 0.3231 0.1402 0.0
O19 O 0.06815 0.33383 0.17012 0.0
O20 O 0.0165 0.41795 0.07179 0.0
C21 C 0.90794 0.39806 0.18282 0.0
O22 O 0.92817 0.36686 0.1904 0.0
C23 C 0.11264 0.4093 0.18904 0.0
O24 O 0.05877 0.41048 0.2119 0.0
O25 O 0.00274 0.34449 0.11721 0.0
C26 C 0.00732 0.95034 0.89158 0.0
O27 O -0.00016 0.96809 0.85875 0.0
O28 O 0.92539 0.90394 0.80891 0.0
Zn29 Zn 0.01498 0.89525 0.83652 0.0
O30 O 0.09406 0.91467 0.80551 0.0
C31 C 0.99881 0.82292 0.82208 0.0
O32 O 0.96237 0.8336 0.79191 0.0
O33 O 0.01398 0.91818 0.88988 0.0
C34 C 0.12385 0.8967 0.77938 0.0
O35 O 0.10204 0.86583 0.77148 0.0
C36 C 0.92032 0.9098 0.77183 0.0
O37 O 0.9748 0.91118 0.74949 0.0
O38 O 0.02714 0.84435 0.84508 0.0
C39 C 0.0241 0.52695 0.89249 0.0
O40 O 0.0319 0.50888 0.85989 0.0
O41 O 0.10573 0.57298 0.80929 0.0
Zn42 Zn 0.01572 0.5814 0.83674 0.0
O43 O 0.93718 0.56121 0.80596 0.0
C44 C 0.03026 0.65382 0.82197 0.0
O45 O 0.06757 0.6433 0.79204 0.0
O46 O 0.01699 0.55906 0.89037 0.0
C47 C 0.90705 0.5789 0.77978 0.0
O48 O 0.9283 0.60983 0.77169 0.0
C49 C 0.11123 0.56694 0.77225 0.0
O50 O 0.05697 0.56527 0.74981 0.0
O51 O 0.00211 0.63226 0.84489 0.0
C52 C 0.51091 0.52639 0.56976 0.0
O53 O 0.50283 0.50833 0.60233 0.0
O54 O 0.42542 0.57278 0.65189 0.0
Zn55 Zn 0.51616 0.58126 0.62533 0.0
O56 O 0.59378 0.5615 0.65724 0.0
C57 C 0.50008 0.65376 0.63911 0.0
O58 O 0.4621 0.6434 0.66881 0.0
O59 O 0.51695 0.55855 0.57186 0.0
C60 C 0.62325 0.5794 0.68351 0.0
O61 O 0.60212 0.61049 0.69091 0.0
C62 C 0.41918 0.56703 0.68895 0.0
O63 O 0.47296 0.56573 0.71181 0.0
O64 O 0.52929 0.63209 0.61678 0.0
C65 C 0.5215 0.95063 0.57034 0.0
O66 O 0.52971 0.96825 0.60323 0.0
O67 O 0.60644 0.90356 0.65165 0.0
Zn68 Zn 0.51587 0.89521 0.62495 0.0
O69 O 0.43792 0.91465 0.65695 0.0
C70 C 0.53148 0.82274 0.63846 0.0
O71 O 0.56883 0.8331 0.6684 0.0
O72 O 0.51529 0.91844 0.57184 0.0
C73 C 0.40859 0.89662 0.68316 0.0
O74 O 0.43022 0.86562 0.69055 0.0
C75 C 0.61255 0.90942 0.68869 0.0
O76 O 0.55867 0.91091 0.71152 0.0
O77 O 0.50283 0.84441 0.61594 0.0
C78 C 0.51057 0.45007 0.39183 0.0
O79 O 0.50381 0.46811 0.35915 0.0
O80 O 0.42593 0.404 0.30924 0.0
Zn81 Zn 0.51603 0.39541 0.33626 0.0
O82 O 0.59406 0.4156 0.30506 0.0
C83 C 0.50035 0.32308 0.32138 0.0
O84 O 0.4633 0.33379 0.29148 0.0
O85 O 0.51575 0.41785 0.38984 0.0
C86 C 0.62477 0.39786 0.2791 0.0
O87 O 0.60468 0.36663 0.27154 0.0
C88 C 0.42045 0.40927 0.27206 0.0
O89 O 0.47465 0.41006 0.24945 0.0
O90 O 0.529 0.34448 0.34428 0.0
C91 C 0.52083 0.02723 0.39266 0.0
O92 O 0.52959 0.009 0.36026 0.0
O93 O 0.60633 0.07324 0.3105 0.0
Zn94 Zn 0.51512 0.08157 0.33656 0.0
O95 O 0.43819 0.0612 0.30457 0.0
C96 C 0.53009 0.15392 0.32175 0.0
O97 O 0.56828 0.14331 0.29226 0.0
O98 O 0.51414 0.05935 0.39028 0.0
C99 C 0.40844 0.07888 0.27822 0.0
O100 O 0.42892 0.11006 0.2708 0.0
C101 C 0.61314 0.06761 0.27345 0.0
O102 O 0.55968 0.0663 0.25032 0.0
O103 O 0.50111 0.13244 0.3444 0.0
C104 C 0.01874 0.25648 0.13112 0.0
C105 C 0.02281 0.2871 0.13396 0.0
C106 C 0.01483 0.22049 0.13114 0.0
C107 C 0.01043 0.18989 0.134 0.0
C108 C 0.01163 0.75632 0.83121 0.0
C109 C 0.00733 0.78693 0.82833 0.0
C110 C 0.01611 0.72035 0.83116 0.0
C111 C 0.02099 0.68976 0.82825 0.0
C112 C 0.51342 0.72024 0.62923 0.0
C113 C 0.50895 0.68967 0.63247 0.0
C114 C 0.51778 0.75622 0.629 0.0
C115 C 0.52233 0.78681 0.63195 0.0
C116 C 0.51259 0.25648 0.33062 0.0
C117 C 0.50858 0.28709 0.32768 0.0
C118 C 0.51654 0.22049 0.3307 0.0
C119 C 0.52105 0.18989 0.32792 0.0
C120 C 0.298 0.06014 0.24033 0.0
C121 C 0.34863 0.06631 0.25898 0.0
C122 C 0.23692 0.06009 0.2186 0.0
C123 C 0.18572 0.06618 0.20046 0.0
C124 C 0.73576 0.41681 0.24185 0.0
C125 C 0.68483 0.41056 0.26022 0.0
C126 C 0.79689 0.41689 0.22013 0.0
C127 C 0.84783 0.41073 0.20171 0.0
C128 C 0.23592 0.91453 0.74243 0.0
C129 C 0.18462 0.90869 0.76064 0.0
C130 C 0.29717 0.9145 0.72081 0.0
C131 C 0.34818 0.9086 0.70232 0.0
C132 C 0.73395 0.56096 0.72141 0.0
C133 C 0.68324 0.56711 0.7028 0.0
C134 C 0.79506 0.56074 0.74309 0.0
C135 C 0.84636 0.56661 0.76126 0.0
C136 C 0.73429 0.91362 0.72098 0.0
C137 C 0.67879 0.91169 0.70614 0.0
C138 C 0.7992 0.91373 0.73869 0.0
C139 C 0.85454 0.91194 0.75377 0.0
C140 C 0.29741 0.56291 0.72137 0.0
C141 C 0.35288 0.56481 0.70642 0.0
C142 C 0.23256 0.56289 0.73923 0.0
C143 C 0.1772 0.56474 0.75435 0.0
C144 C 0.73525 0.06384 0.24141 0.0
C145 C 0.67968 0.06559 0.25627 0.0
C146 C 0.80006 0.06382 0.2235 0.0
C147 C 0.85531 0.06554 0.20824 0.0
C148 C 0.23434 0.41313 0.22139 0.0
C149 C 0.17886 0.41137 0.20651 0.0
C150 C 0.29918 0.41314 0.23915 0.0
C151 C 0.3545 0.41136 0.25423 0.0
C152 C 0.00931 -0.00297 -0.00092 0.0
C153 C 0.00851 0.01066 0.03123 0.0
C154 C 0.00926 0.98109 0.96144 0.0
C155 C 0.00832 0.96724 0.92942 0.0
C156 C 0.02209 0.49675 0.96263 0.0
C157 C 0.02304 0.51043 0.93053 0.0
C158 C 0.02204 0.48077 0.00021 0.0
C159 C 0.02298 0.46691 0.03219 0.0
C160 C 0.51405 0.48038 0.4619 0.0
C161 C 0.51242 0.4667 0.4298 0.0
C162 C 0.51417 0.49622 0.49959 0.0
C163 C 0.51264 0.50984 0.53172 0.0
C164 C 0.51786 0.98153 0.50065 0.0
C165 C 0.51959 0.96767 0.53263 0.0
C166 C 0.51766 -0.00261 0.463 0.0
C167 C 0.51914 0.01092 0.43082 0.0
loop_
_geom_bond_atom_site_label_1
_geom_bond_atom_site_label_2
_geom_bond_distance
_geom_bond_site_symmetry_2
_ccdc_geom_bond_type
C0 O1 1.160 1_455 S
C0 O7 1.185 . S
O1 C0 1.160 1_655 S
O2 Zn3 1.899 1_655 S
O2 C10 1.284 . S
Zn3 O2 1.899 1_455 S
Zn3 O4 2.032 . S
Zn3 O7 2.086 . S
Zn3 O12 1.977 . S
O4 Zn3 2.032 . S
O4 C8 1.278 . S
C5 O6 1.203 1_455 S
C5 O12 1.267 . S
O6 C5 1.203 1_655 S
O7 C0 1.185 . S
O7 Zn3 2.086 . S
C8 O4 1.278 . S
C8 O9 1.211 . S
O9 C8 1.211 . S
C10 O2 1.284 . S
C10 O11 1.273 . S
O11 C10 1.273 . S
O12 Zn3 1.977 . S
O12 C5 1.267 . S
C13 O14 1.160 . S
C13 O20 1.185 . S
O14 C13 1.160 . S
O15 Zn16 1.899 . S
O15 C23 1.284 . S
Zn16 O15 1.899 . S
Zn16 O17 2.032 1_455 S
Zn16 O20 2.086 . S
Zn16 O25 1.977 . S
O17 Zn16 2.032 1_655 S
O17 C21 1.278 . S
C18 O19 1.203 . S
C18 O25 1.267 . S
O19 C18 1.203 . S
O20 C13 1.185 . S
O20 Zn16 2.086 . S
C21 O17 1.278 . S
C21 O22 1.211 . S
O22 C21 1.211 . S
C23 O15 1.284 . S
C23 O24 1.273 . S
O24 C23 1.273 . S
O25 Zn16 1.977 . S
O25 C18 1.267 . S
C26 O27 1.160 1_455 S
C26 O33 1.185 . S
O27 C26 1.160 1_655 S
O28 Zn29 1.899 1_655 S
O28 C36 1.284 . S
Zn29 O28 1.899 1_455 S
Zn29 O30 2.032 . S
Zn29 O33 2.086 . S
Zn29 O38 1.977 . S
O30 Zn29 2.032 . S
O30 C34 1.278 . S
C31 O32 1.203 1_455 S
C31 O38 1.267 . S
O32 C31 1.203 1_655 S
O33 C26 1.185 . S
O33 Zn29 2.086 . S
C34 O30 1.278 . S
C34 O35 1.211 . S
O35 C34 1.211 . S
C36 O28 1.284 . S
C36 O37 1.273 . S
O37 C36 1.273 . S
O38 Zn29 1.977 . S
O38 C31 1.267 . S
C39 O40 1.160 . S
C39 O46 1.185 . S
O40 C39 1.160 . S
O41 Zn42 1.899 . S
O41 C49 1.284 . S
Zn42 O41 1.899 . S
Zn42 O43 2.032 1_455 S
Zn42 O46 2.086 . S
Zn42 O51 1.977 . S
O43 Zn42 2.032 1_655 S
O43 C47 1.278 . S
C44 O45 1.203 . S
C44 O51 1.267 . S
O45 C44 1.203 . S
O46 C39 1.185 . S
O46 Zn42 2.086 . S
C47 O43 1.278 . S
C47 O48 1.211 . S
O48 C47 1.211 . S
C49 O41 1.284 . S
C49 O50 1.273 . S
O50 C49 1.273 . S
O51 Zn42 1.977 . S
O51 C44 1.267 . S
C52 O53 1.160 . S
C52 O59 1.185 . S
O53 C52 1.160 . S
O54 Zn55 1.899 . S
O54 C62 1.284 . S
Zn55 O54 1.899 . S
Zn55 O56 2.032 . S
Zn55 O59 2.086 . S
Zn55 O64 1.977 . S
O56 Zn55 2.032 . S
O56 C60 1.278 . S
C57 O58 1.203 . S
C57 O64 1.267 . S
O58 C57 1.203 . S
O59 C52 1.185 . S
O59 Zn55 2.086 . S
C60 O56 1.278 . S
C60 O61 1.211 . S
O61 C60 1.211 . S
C62 O54 1.284 . S
C62 O63 1.273 . S
O63 C62 1.273 . S
O64 Zn55 1.977 . S
O64 C57 1.267 . S
C65 O66 1.160 . S
C65 O72 1.185 . S
O66 C65 1.160 . S
O67 Zn68 1.899 . S
O67 C75 1.284 . S
Zn68 O67 1.899 . S
Zn68 O69 2.032 . S
Zn68 O72 2.086 . S
Zn68 O77 1.977 . S
O69 Zn68 2.032 . S
O69 C73 1.278 . S
C70 O71 1.203 . S
C70 O77 1.267 . S
O71 C70 1.203 . S
O72 C65 1.185 . S
O72 Zn68 2.086 . S
C73 O69 1.278 . S
C73 O74 1.211 . S
O74 C73 1.211 . S
C75 O67 1.284 . S
C75 O76 1.273 . S
O76 C75 1.273 . S
O77 Zn68 1.977 . S
O77 C70 1.267 . S
C78 O79 1.160 . S
C78 O85 1.185 . S
O79 C78 1.160 . S
O80 Zn81 1.899 . S
O80 C88 1.284 . S
Zn81 O80 1.899 . S
Zn81 O82 2.032 . S
Zn81 O85 2.086 . S
Zn81 O90 1.977 . S
O82 Zn81 2.032 . S
O82 C86 1.278 . S
C83 O84 1.203 . S
C83 O90 1.267 . S
O84 C83 1.203 . S
O85 C78 1.185 . S
O85 Zn81 2.086 . S
C86 O82 1.278 . S
C86 O87 1.211 . S
O87 C86 1.211 . S
C88 O80 1.284 . S
C88 O89 1.273 . S
O89 C88 1.273 . S
O90 Zn81 1.977 . S
O90 C83 1.267 . S
C91 O92 1.160 . S
C91 O98 1.185 . S
O92 C91 1.160 . S
O93 Zn94 1.899 . S
O93 C101 1.284 . S
Zn94 O93 1.899 . S
Zn94 O95 2.032 . S
Zn94 O98 2.086 . S
Zn94 O103 1.977 . S
O95 Zn94 2.032 . S
O95 C99 1.278 . S
C96 O97 1.203 . S
C96 O103 1.267 . S
O97 C96 1.203 . S
O98 C91 1.185 . S
O98 Zn94 2.086 . S
C99 O95 1.278 . S
C99 O100 1.211 . S
O100 C99 1.211 . S
C101 O93 1.284 . S
C101 O102 1.273 . S
O102 C101 1.273 . S
O103 Zn94 1.977 . S
O103 C96 1.267 . S
C104 C105 1.170 . S
C104 C106 1.380 . S
C105 C104 1.170 . S
C106 C104 1.380 . S
C106 C107 1.170 . S
C107 C106 1.170 . S
C108 C109 1.170 . S
C108 C110 1.380 . S
C109 C108 1.170 . S
C110 C108 1.380 . S
C110 C111 1.170 . S
C111 C110 1.170 . S
C112 C113 1.170 . S
C112 C114 1.380 . S
C113 C112 1.170 . S
C114 C112 1.380 . S
C114 C115 1.170 . S
C115 C114 1.170 . S
C116 C117 1.170 . S
C116 C118 1.380 . S
C117 C116 1.170 . S
C118 C116 1.380 . S
C118 C119 1.170 . S
C119 C118 1.170 . S
C120 C121 1.170 . S
C120 C122 1.380 . S
C121 C120 1.170 . S
C122 C120 1.380 . S
C122 C123 1.170 . S
C123 C122 1.170 . S
C124 C125 1.170 . S
C124 C126 1.380 . S
C125 C124 1.170 . S
C126 C124 1.380 . S
C126 C127 1.170 . S
C127 C126 1.170 . S
C128 C129 1.170 . S
C128 C130 1.380 . S
C129 C128 1.170 . S
C130 C128 1.380 . S
C130 C131 1.170 . S
C131 C130 1.170 . S
C132 C133 1.170 . S
C132 C134 1.380 . S
C133 C132 1.170 . S
C134 C132 1.380 . S
C134 C135 1.170 . S
C135 C134 1.170 . S
C136 C137 1.170 . S
C136 C138 1.380 . S
C137 C136 1.170 . S
C138 C136 1.380 . S
C138 C139 1.170 . S
C139 C138 1.170 . S
C140 C141 1.170 . S
C140 C142 1.380 . S
C141 C140 1.170 . S
C142 C140 1.380 . S
C142 C143 1.170 . S
C143 C142 1.170 . S
C144 C145 1.170 . S
C144 C146 1.380 . S
C145 C144 1.170 . S
C146 C144 1.380 . S
C146 C147 1.170 . S
C147 C146 1.170 . S
C148 C149 1.170 . S
C148 C150 1.380 . S
C149 C148 1.170 . S
C150 C148 1.380 . S
C150 C151 1.170 . S
C151 C150 1.170 . S
C152 C153 1.170 . S
C152 C154 1.380 1_544 S
C153 C152 1.170 . S
C154 C152 1.380 1_566 S
C154 C155 1.170 . S
C155 C154 1.170 . S
C156 C157 1.170 . S
C156 C158 1.380 1_556 S
C157 C156 1.170 . S
C158 C156 1.380 1_554 S
C158 C159 1.170 . S
C159 C158 1.170 . S
C160 C161 1.170 . S
C160 C162 1.380 . S
C161 C160 1.170 . S
C162 C160 1.380 . S
C162 C163 1.170 . S
C163 C162 1.170 . S
C164 C165 1.170 . S
C164 C166 1.380 1_565 S
C165 C164 1.170 . S
C166 C164 1.380 1_545 S
C166 C167 1.170 . S
C167 C166 1.170 . S
C105 C18 1.414 . S
C107 C5 1.429 . S
C109 C31 1.416 . S
C111 C44 1.435 . S
C113 C57 1.444 . S
C115 C70 1.448 . S
C117 C83 1.414 . S
C119 C96 1.430 . S
C121 C99 1.355 . S
C123 C8 1.340 . S
C125 C86 1.368 . S
C127 C21 1.368 . S
C129 C34 1.322 . S
C131 C73 1.325 . S
C133 C60 1.349 . S
C135 C47 1.335 . S
C137 C75 1.461 . S
C139 C36 1.452 . S
C141 C62 1.458 . S
C143 C49 1.456 . S
C145 C101 1.461 . S
C147 C10 1.448 . S
C149 C23 1.460 . S
C151 C88 1.448 . S
C153 C0 1.313 . S
C155 C26 1.302 . S
C157 C39 1.312 . S
C159 C13 1.303 . S
C161 C78 1.328 . S
C163 C52 1.334 . S
C165 C65 1.321 . S
C167 C91 1.334 . S
