# Generated by pormake.
# Topology pcu, (6)-cn, num edge types: 1
# Building blocks:
#     Node 0, Type 0, BuildingBlock: KUMBOL_clean_sbu_0, # of connection points: 6
#     Edge 1, Type (0, 0), None
#     Edge 2, Type (0, 0), None
#     Edge 3, Type (0, 0), None
# Relax obj value: 0.000
# Max RMSD: 0.000
# Mean RMSD: 0.000
data_MOF--net-pcu--node1-KUMBOL_clean_sbu_0--edge1-none
_symmetry_space_group_name_H-M    P1
_symmetry_Int_Tables_number       1
_symmetry_cell_setting            triclinic
loop_
_symmetry_equiv_pos_as_xyz
'x, y, z'
_cell_length_a     20.10146
_cell_length_b     6.1968896
_cell_length_c     7.7902103
_cell_angle_alpha  81.683072
_cell_angle_beta   108.11418
_cell_angle_gamma 123.16439
loop_
_atom_site_label
_atom_site_type_symbol
_atom_site_fract_x
_atom_site_fract_y
_atom_site_fract_z
_atom_type_partial_charge
Gd0 Gd 0.02672 0.19466 -0.02155 0.0
Gd1 Gd 0.80979 0.86729 0.8458 0.0
C2 C 0.64027 0.95474 0.04612 0.0
C3 C 0.56297 0.66185 0.66555 0.0
C4 C 0.66177 0.26993 0.70079 0.0
C5 C 0.68083 0.26243 -0.07126 0.0
C6 C 0.60445 0.9831 0.56247 0.0
C7 C 0.57615 0.64397 0.90652 0.0
C8 C 0.69344 0.98409 0.23061 0.0
C9 C 0.76945 0.21681 0.28216 0.0
N10 N 0.75536 0.46996 0.01276 0.0
C11 C 0.80038 0.43337 0.17393 0.0
H12 H 0.86479 0.57683 0.22687 0.0
C13 C 0.69185 0.50648 0.45085 0.0
N14 N 0.70769 0.50124 0.63378 0.0
C15 C 0.63643 0.28977 0.33338 0.0
C16 C 0.59627 0.03108 0.38695 0.0
H17 H 0.72416 0.67903 0.38639 0.0
H18 H 0.55969 0.46804 -0.02449 0.0
H19 H -0.02836 0.48548 0.59789 0.0
H20 H 0.65553 0.94528 0.11344 0.0
H21 H 0.80949 0.22924 0.41429 0.0
H22 H 0.53371 0.49089 0.58934 0.0
H23 H 0.11235 0.38285 0.4375 0.0
H24 H 0.18094 0.1165 0.7105 0.0
H25 H 0.02689 0.83245 0.40998 0.0
H26 H 0.30216 0.57053 0.23483 0.0
H27 H 0.63275 0.33383 0.19417 0.0
H28 H 0.55997 0.8648 0.29632 0.0
H29 H 0.27624 0.5938 0.84854 0.0
H30 H 0.20345 0.72783 0.62964 0.0
N31 N 0.08114 0.59255 0.81179 0.0
C32 C 0.143 0.07776 0.59338 0.0
C33 C 0.06698 0.84508 0.54207 0.0
C34 C 0.1962 0.10729 0.77786 0.0
C35 C 0.1559 0.7995 0.89529 0.0
C36 C 0.03606 0.62897 0.65065 0.0
N37 N 0.12902 0.56063 0.19022 0.0
C38 C 0.17503 0.79189 0.12326 0.0
C39 C 0.20003 0.772 0.49056 0.0
C40 C 0.24021 1.03068 0.43703 0.0
C41 C 0.14473 0.55535 0.3731 0.0
C42 C 0.23212 0.07864 0.26152 0.0
H43 H 0.27639 0.19691 0.52769 0.0
O44 O 0.10638 0.06316 0.12709 0.0
O45 O 0.91258 0.82137 0.85406 0.0
O46 O 0.84603 0.92596 0.17003 0.0
O47 O -0.01174 0.14364 0.25454 0.0
O48 O -0.00395 0.79304 0.07443 0.0
O49 O 0.10972 0.20208 0.86748 0.0
O50 O 0.73034 0.99959 0.69742 0.0
O51 O -0.07615 0.24015 -0.02981 0.0
O52 O -0.00951 0.13652 0.65416 0.0
O53 O 0.84823 0.9183 0.56968 0.0
O54 O 0.84054 0.26917 0.75011 0.0
O55 O 0.72613 0.85698 -0.04389 0.0
C56 C -0.06967 0.66121 -0.05436 0.0
C57 C 0.27319 0.39978 0.15844 0.0
C58 C 0.25996 0.41788 -0.08252 0.0
C59 C 0.1431 0.10064 0.00056 0.0
C60 C 0.29334 0.12065 0.04439 0.0
C61 C 0.37036 0.23825 0.20574 0.0
C62 C 0.32625 0.06506 -0.07912 0.0
C63 C 0.3971 0.03808 -0.0268 0.0
C64 C 0.43252 0.18825 0.2538 0.0
C65 C 0.42869 1.02723 0.15054 0.0
C66 C 0.91772 0.03459 0.30499 0.0
C67 C 0.9063 0.40084 0.87885 0.0
C68 C 0.69318 0.96002 0.82342 0.0
C69 C 0.54326 0.94217 0.77943 0.0
C70 C 0.46638 0.82575 0.61764 0.0
C71 C 0.51017 0.99671 0.90308 0.0
C72 C 0.4393 1.02365 0.85083 0.0
C73 C 0.40432 0.87612 0.56954 0.0
C74 C 0.40789 0.03574 0.67351 0.0
C75 C -0.08121 1.02769 0.51923 0.0
H76 H 0.38289 0.35469 0.31602 0.0
H77 H 0.30047 0.0482 0.78322 0.0
H78 H 0.48034 0.25403 0.37672 0.0
H79 H 0.45996 0.92973 0.20362 0.0
H80 H 0.45385 0.70965 0.50715 0.0
H81 H 0.53577 1.01249 0.04079 0.0
H82 H 0.3567 0.81119 0.44621 0.0
H83 H 0.37672 0.13367 0.62076 0.0
loop_
_geom_bond_atom_site_label_1
_geom_bond_atom_site_label_2
_geom_bond_distance
_geom_bond_site_symmetry_2
_ccdc_geom_bond_type
Gd0 N31 2.661 1_554 S
Gd0 N37 2.601 . S
Gd0 O44 2.545 . S
Gd0 O45 2.606 1_444 S
Gd0 O47 2.429 1_545 S
Gd0 O48 2.545 1_545 S
Gd0 O49 2.412 . S
Gd0 O51 2.362 . S
Gd0 O52 2.324 1_554 S
Gd0 C59 2.828 . S
Gd1 N10 2.661 1_556 S
Gd1 N14 2.601 . S
Gd1 O45 2.362 . S
Gd1 O46 2.324 1_556 S
Gd1 O50 2.545 . S
Gd1 O51 2.606 1_666 S
Gd1 O53 2.429 1_565 S
Gd1 O54 2.545 1_565 S
Gd1 O55 2.412 . S
Gd1 C68 2.828 . S
C2 C5 1.417 1_565 S
C2 C7 1.431 . S
C2 C8 1.412 1_556 S
C3 C6 1.437 1_565 S
C3 C7 1.317 . S
C3 H22 0.929 . S
C4 C5 1.426 . S
C4 C6 1.413 . S
C4 N14 1.359 . S
C5 C2 1.417 1_545 S
C5 C4 1.426 . S
C5 N10 1.350 1_556 S
C6 C3 1.437 1_545 S
C6 C4 1.413 . S
C6 C16 1.391 . S
C7 C2 1.431 . S
C7 C3 1.317 . S
C7 H18 0.930 . S
C8 C2 1.412 1_554 S
C8 C9 1.355 1_565 S
C8 H20 0.930 . S
C9 C8 1.355 1_545 S
C9 C11 1.402 . S
C9 H21 0.930 . S
N10 Gd1 2.661 1_554 S
N10 C5 1.350 1_554 S
N10 C11 1.307 . S
C11 C9 1.402 . S
C11 N10 1.307 . S
C11 H12 0.930 . S
H12 C11 0.930 . S
C13 N14 1.334 . S
C13 C15 1.394 . S
C13 H17 0.930 . S
N14 Gd1 2.601 . S
N14 C4 1.359 . S
N14 C13 1.334 . S
C15 C13 1.394 . S
C15 C16 1.359 . S
C15 H27 0.930 . S
C16 C6 1.391 . S
C16 C15 1.359 . S
C16 H28 0.929 . S
H17 C13 0.930 . S
H18 C7 0.930 . S
H19 C36 0.930 . S
H20 C8 0.930 . S
H21 C9 0.930 . S
H22 C3 0.929 . S
H23 C41 0.930 . S
H24 C32 0.930 . S
H25 C33 0.930 . S
H26 C57 0.929 . S
H27 C15 0.930 . S
H28 C16 0.929 . S
H29 C58 0.930 . S
H30 C39 0.930 . S
N31 Gd0 2.661 1_556 S
N31 C35 1.350 1_556 S
N31 C36 1.307 . S
C32 H24 0.930 . S
C32 C33 1.355 1_545 S
C32 C34 1.412 1_556 S
C33 H25 0.930 . S
C33 C32 1.355 1_565 S
C33 C36 1.402 . S
C34 C32 1.412 1_554 S
C34 C35 1.417 1_545 S
C34 C58 1.431 . S
C35 N31 1.350 1_554 S
C35 C34 1.417 1_565 S
C35 C38 1.426 . S
C36 H19 0.930 . S
C36 N31 1.307 . S
C36 C33 1.402 . S
N37 Gd0 2.601 . S
N37 C38 1.359 . S
N37 C41 1.334 . S
C38 C35 1.426 . S
C38 N37 1.359 . S
C38 C42 1.413 . S
C39 H30 0.930 . S
C39 C40 1.359 . S
C39 C41 1.394 . S
C40 C39 1.359 . S
C40 C42 1.391 . S
C40 H43 0.929 . S
C41 H23 0.930 . S
C41 N37 1.334 . S
C41 C39 1.394 . S
C42 C38 1.413 . S
C42 C40 1.391 . S
C42 C57 1.437 1_565 S
H43 C40 0.929 . S
O44 Gd0 2.545 . S
O44 C59 1.258 . S
O45 Gd0 2.606 1_666 S
O45 Gd1 2.362 . S
O45 C56 1.284 1_656 S
O46 Gd1 2.324 1_554 S
O46 C66 1.254 1_655 S
O47 Gd0 2.429 1_565 S
O47 C66 1.268 . S
O48 Gd0 2.545 1_565 S
O48 C56 1.250 . S
O49 Gd0 2.412 . S
O49 C59 1.252 . S
O50 Gd1 2.545 . S
O50 C68 1.258 . S
O51 Gd0 2.362 . S
O51 Gd1 2.606 1_444 S
O51 C67 1.284 1_454 S
O52 Gd0 2.324 1_556 S
O52 C75 1.254 1_455 S
O53 Gd1 2.429 1_545 S
O53 C75 1.268 . S
O54 Gd1 2.545 1_545 S
O54 C67 1.250 . S
O55 Gd1 2.412 . S
O55 C68 1.252 . S
C56 O45 1.284 1_454 S
C56 O48 1.250 . S
C57 H26 0.929 . S
C57 C42 1.437 1_545 S
C57 C58 1.317 . S
C58 H29 0.930 . S
C58 C34 1.431 . S
C58 C57 1.317 . S
C59 Gd0 2.828 . S
C59 O44 1.258 . S
C59 O49 1.252 . S
C59 C60 1.497 . S
C60 C59 1.497 . S
C60 C61 1.395 . S
C60 C62 1.380 . S
C61 C60 1.395 . S
C61 C64 1.398 . S
C61 H76 0.930 . S
C62 C60 1.380 . S
C62 C63 1.391 . S
C62 H77 0.930 1_554 S
C63 C62 1.391 . S
C63 C65 1.387 . S
C64 C61 1.398 . S
C64 C65 1.380 . S
C64 H78 0.930 . S
C65 C63 1.387 . S
C65 C64 1.380 . S
C65 H79 0.930 . S
C66 O46 1.254 1_455 S
C66 O47 1.268 . S
C67 O51 1.284 1_656 S
C67 O54 1.250 . S
C68 Gd1 2.828 . S
C68 O50 1.258 . S
C68 O55 1.252 . S
C68 C69 1.497 . S
C69 C68 1.497 . S
C69 C70 1.395 . S
C69 C71 1.380 . S
C70 C69 1.395 . S
C70 C73 1.398 . S
C70 H80 0.930 . S
C71 C69 1.380 . S
C71 C72 1.391 . S
C71 H81 0.930 1_556 S
C72 C71 1.391 . S
C72 C74 1.387 . S
C73 C70 1.398 . S
C73 C74 1.380 . S
C73 H82 0.930 . S
C74 C72 1.387 . S
C74 C73 1.380 . S
C74 H83 0.930 . S
C75 O52 1.254 1_655 S
C75 O53 1.268 . S
H76 C61 0.930 . S
H77 C62 0.930 1_556 S
H78 C64 0.930 . S
H79 C65 0.930 . S
H80 C70 0.930 . S
H81 C71 0.930 1_554 S
H82 C73 0.930 . S
H83 C74 0.930 . S
C66 C75 1.500 1_465 S
C63 C72 1.500 1_544 S
C56 C67 1.500 1_454 S
