# Generated by pormake.
# Topology cds, (4)-cn, num edge types: 1
# Building blocks:
#     Node 0, Type 0, BuildingBlock: KOZSID_clean_sbu_0, # of connection points: 4
#     Node 1, Type 0, BuildingBlock: KOZSID_clean_sbu_0, # of connection points: 4
#     Edge 2, Type (0, 0), BuildingBlock: XUDNAN_clean_linker_2, # of connection points: 2
#     Edge 3, Type (0, 0), BuildingBlock: XUDNAN_clean_linker_2, # of connection points: 2
#     Edge 4, Type (0, 0), BuildingBlock: XUDNAN_clean_linker_2, # of connection points: 2
#     Edge 5, Type (0, 0), BuildingBlock: XUDNAN_clean_linker_2, # of connection points: 2
# Relax obj value: 0.000
# Max RMSD: 0.000
# Mean RMSD: 0.000
data_MOF--net-cds--node1-KOZSID_clean_sbu_0--edge1-XUDNAN_clean_linker_2
_symmetry_space_group_name_H-M    P1
_symmetry_Int_Tables_number       1
_symmetry_cell_setting            triclinic
loop_
_symmetry_equiv_pos_as_xyz
'x, y, z'
_cell_length_a     16.678601
_cell_length_b     19.537527
_cell_length_c     36.148766
_cell_angle_alpha  106.28961
_cell_angle_beta   106.83651
_cell_angle_gamma 86.813652
loop_
_atom_site_label
_atom_site_type_symbol
_atom_site_fract_x
_atom_site_fract_y
_atom_site_fract_z
_atom_type_partial_charge
C0 C 0.16921 0.08484 0.0284 0.0
C1 C 0.2084 0.15161 0.04043 0.0
C2 C 0.14662 0.20041 0.03981 0.0
C3 C 0.07352 0.16097 0.02752 0.0
N4 N 0.08483 0.0898 0.02021 0.0
Co5 Co 0.99544 0.01327 1.00242 0.0
N6 N 0.905 0.08513 1.00074 0.0
C7 C 0.91369 0.15567 0.0054 0.0
C8 C 0.84 0.19132 1.00336 0.0
C9 C 0.7811 0.14067 0.99775 0.0
C10 C 0.82266 0.07702 0.99686 0.0
N11 N 0.90614 0.93731 0.9869 0.0
C12 C 0.82431 0.94395 0.98598 0.0
C13 C 0.78519 0.87823 0.97751 0.0
C14 C 0.84492 0.8282 0.97364 0.0
C15 C 0.91676 0.86621 0.98017 0.0
N16 N 0.08552 0.94095 1.00235 0.0
C17 C 0.07478 0.86916 0.99132 0.0
C18 C 0.14798 0.8331 0.99287 0.0
C19 C 0.20915 0.88485 0.00517 0.0
C20 C 0.16947 0.94981 0.01039 0.0
N21 N 0.00579 0.02251 0.05962 0.0
C22 C 0.01585 0.03544 0.14057 0.0
C23 C 0.02645 0.96968 0.11458 0.0
C24 C 0.02084 0.96438 0.07454 0.0
C25 C 1.00031 0.09457 0.12513 0.0
C26 C 0.99624 0.08711 0.08507 0.0
N27 N 0.9853 1.00395 0.94484 0.0
C28 C 0.9663 0.93051 0.8765 0.0
C29 C 0.98482 0.98846 0.86456 0.0
C30 C 1.00073 0.05481 0.89328 0.0
C31 C 0.99994 0.06138 0.93266 0.0
C32 C 0.96708 0.93929 0.91633 0.0
H33 H 0.01279 0.11349 0.95272 0.0
H34 H 0.95359 0.89255 0.9232 0.0
H35 H 0.02872 0.9127 0.05612 0.0
H36 H 0.98469 0.1343 0.07522 0.0
C37 C 0.99316 0.18846 0.01895 0.0
C38 C 0.21433 0.01828 0.02302 0.0
C39 C 0.78303 1.01156 0.99546 0.0
C40 C 0.9958 0.83738 0.9819 0.0
H41 H 0.27465 0.1638 0.04791 0.0
H42 H 0.15396 0.25765 0.04636 0.0
H43 H 0.83114 0.24808 0.008 0.0
H44 H 0.71576 0.14991 0.99623 0.0
H45 H 0.7208 0.86773 0.97547 0.0
H46 H 0.83753 0.77119 0.96809 0.0
H47 H 0.15601 0.776 0.98623 0.0
H48 H 0.27552 0.87581 0.00987 0.0
H49 H 0.03995 0.92236 0.12506 0.0
H50 H 0.9902 0.14654 0.14364 0.0
H51 H 0.95135 0.8782 0.85528 0.0
H52 H 0.01601 0.10153 0.88587 0.0
C53 C 0.08191 0.03478 0.59373 0.0
C54 C 0.15794 0.04435 0.62352 0.0
C55 C 0.21889 0.04143 0.60485 0.0
C56 C 0.17668 0.03059 0.56493 0.0
N57 N 0.09229 0.02813 0.5571 0.0
Co58 Co 0.00661 1.00998 0.50316 0.0
N59 N 0.09621 0.99666 0.47506 0.0
C60 C 0.18016 0.99883 0.49202 0.0
C61 C 0.2256 0.98966 0.46497 0.0
C62 C 0.16732 0.98291 0.42868 0.0
C63 C 0.0895 0.98879 0.43584 0.0
N64 N 0.92118 0.99168 0.44913 0.0
C65 C 0.93145 0.98562 0.41247 0.0
C66 C 0.85505 0.9782 0.38298 0.0
C67 C 0.79441 0.98051 0.40175 0.0
C68 C 0.83691 0.98952 0.44146 0.0
N69 N 0.91723 0.02342 0.53144 0.0
C70 C 0.83343 0.021 0.51439 0.0
C71 C 0.78777 0.02773 0.54116 0.0
C72 C 0.84581 0.0333 0.57738 0.0
C73 C 0.92388 0.0299 0.57058 0.0
N74 N 0.0067 0.11419 0.5071 0.0
C75 C 0.0094 0.2626 0.51455 0.0
C76 C 0.93369 0.22334 0.50045 0.0
C77 C 0.93373 0.14983 0.49715 0.0
C78 C 0.08343 0.22567 0.5237 0.0
C79 C 0.08072 0.15253 0.51968 0.0
N80 N 0.0067 0.90595 0.49968 0.0
C81 C 0.93359 0.79683 0.49292 0.0
C82 C 0.00938 0.76493 0.50679 0.0
C83 C 0.08345 0.80331 0.51452 0.0
C84 C 0.08073 0.87257 0.51058 0.0
C85 C 0.93367 0.86692 0.48961 0.0
H86 H 0.13966 0.89867 0.51769 0.0
H87 H 0.87394 0.88916 0.47997 0.0
H88 H 0.87402 0.12304 0.48671 0.0
H89 H 0.13964 0.12829 0.52703 0.0
C90 C 0.2144 0.01573 0.53378 0.0
C91 C 0.00218 0.02689 0.60123 0.0
C92 C 0.01174 0.99244 0.40506 0.0
C93 C 0.79967 1.00426 0.4727 0.0
H94 H 0.16819 0.05014 0.65524 0.0
H95 H 0.28601 0.04373 0.61848 0.0
H96 H 0.29308 0.99072 0.47113 0.0
H97 H 0.18051 0.97706 0.40035 0.0
H98 H 0.84379 0.9743 0.35145 0.0
H99 H 0.72726 0.97945 0.38837 0.0
H100 H 0.72028 0.02519 0.53474 0.0
H101 H 0.83185 0.03659 0.60523 0.0
H102 H 0.87455 0.24946 0.49298 0.0
H103 H 0.14388 0.25315 0.53396 0.0
H104 H 0.87445 0.7691 0.48626 0.0
H105 H 0.14388 0.7804 0.52436 0.0
H106 H 0.96298 0.93851 0.17203 0.0
H107 H 0.08208 0.1482 0.20659 0.0
H108 H 0.089 0.16116 0.2772 0.0
H109 H 0.84113 0.97731 0.24217 0.0
H110 H 0.85693 0.89198 0.2528 0.0
H111 H 0.85814 0.89978 0.20447 0.0
H112 H 0.00567 0.84561 0.2139 0.0
H113 H 0.00469 0.83721 0.26213 0.0
H114 H 0.0893 0.88575 0.25824 0.0
H115 H 0.08311 0.15186 0.34417 0.0
H116 H 0.07007 0.11797 0.40333 0.0
H117 H 0.96394 0.91179 0.32614 0.0
C118 C 0.99129 0.98696 0.19438 0.0
C119 C 0.0213 0.04257 0.1834 0.0
C120 C 0.05686 0.10538 0.21384 0.0
C121 C 0.06165 0.11312 0.25417 0.0
C122 C 0.03129 0.05741 0.2638 0.0
C123 C 0.99738 0.99532 0.23486 0.0
C124 C 0.97127 0.94275 0.25339 0.0
C125 C 0.87622 0.92706 0.23724 0.0
C126 C 0.02071 0.87376 0.24651 0.0
C127 C 0.99607 0.98496 0.29729 0.0
C128 C 0.02993 0.05123 0.30259 0.0
C129 C 0.05682 0.1001 0.34041 0.0
C130 C 0.04921 0.08055 0.37373 0.0
C131 C 0.01546 1.01275 0.36896 0.0
C132 C 0.98897 0.96429 0.33032 0.0
H133 H 0.93825 0.08288 0.81822 0.0
H134 H 0.04422 0.87414 0.81658 0.0
H135 H 0.05505 0.85982 0.74831 0.0
H136 H 0.81999 0.04173 0.71364 0.0
H137 H 0.84255 0.12702 0.70828 0.0
H138 H 0.83886 0.11961 0.75633 0.0
H139 H 0.98915 0.17494 0.78927 0.0
H140 H 0.9932 0.1827 0.74136 0.0
H141 H 0.07292 0.13499 0.76898 0.0
H142 H 0.05717 0.86881 0.6806 0.0
H143 H 0.05257 0.90235 0.61878 0.0
H144 H 0.9529 0.1072 0.66597 0.0
C145 C 0.96415 0.03422 0.80372 0.0
C146 C 0.98971 0.97942 0.82292 0.0
C147 C 0.02238 0.91634 0.80238 0.0
C148 C 0.02942 0.90785 0.76363 0.0
C149 C 0.00402 0.96302 0.74578 0.0
C150 C 0.97234 0.02509 0.76518 0.0
C151 C 0.95192 0.07717 0.73981 0.0
C152 C 0.85773 0.09224 0.72887 0.0
C153 C 0.00498 0.14654 0.76113 0.0
C154 C 0.9774 0.03477 0.70317 0.0
C155 C 0.00681 0.96885 0.70711 0.0
C156 C 0.03414 0.92021 0.67716 0.0
C157 C 0.03138 0.93956 0.64229 0.0
C158 C 0.00177 1.00686 0.63784 0.0
C159 C 0.97485 0.05512 0.66869 0.0
H160 H 0.62316 0.97732 0.94683 0.0
H161 H 0.76936 0.05506 0.07142 0.0
H162 H 0.63959 0.06358 0.09271 0.0
H163 H 0.44764 0.08942 0.95425 0.0
H164 H 0.37063 0.02241 0.92012 0.0
H165 H 0.47505 0.02092 0.91506 0.0
H166 H 0.4899 0.89097 0.9204 0.0
H167 H 0.38548 0.89207 0.92547 0.0
H168 H 0.47256 0.87069 0.96319 0.0
H169 H 0.49375 0.06437 0.1 0.0
H170 H 0.34137 0.05902 0.09264 0.0
H171 H 0.29065 0.98181 0.96328 0.0
C172 C 0.62731 0.9957 0.97854 0.0
C173 C 0.70528 0.01515 0.00772 0.0
C174 C 0.7095 0.03972 0.04892 0.0
C175 C 0.63642 0.04463 0.06116 0.0
C176 C 0.56004 0.02491 0.0317 0.0
C177 C 0.55496 1.001 0.99123 0.0
C178 C 0.46509 0.98425 0.96561 0.0
C179 C 0.43803 0.03212 0.93709 0.0
C180 C 0.45255 0.90477 0.9423 0.0
C181 C 0.42034 1.00275 0.99793 0.0
C182 C 0.4762 0.02588 0.03587 0.0
C183 C 0.44945 0.04629 0.07046 0.0
C184 C 0.36325 0.04316 0.0661 0.0
C185 C 0.30544 0.02007 0.0275 0.0
C186 C 0.33426 0.99949 0.99307 0.0
H187 H 0.92078 0.63845 0.4602 0.0
H188 H 0.10595 0.73199 0.57393 0.0
H189 H 0.12009 0.61578 0.58895 0.0
H190 H 0.82203 0.51603 0.4964 0.0
H191 H 0.8064 0.44477 0.45055 0.0
H192 H 0.80671 0.53628 0.44918 0.0
H193 H 0.92409 0.50977 0.4138 0.0
H194 H 0.92419 0.41829 0.4151 0.0
H195 H 0.0199 0.47159 0.43689 0.0
H196 H 0.12001 0.48988 0.59098 0.0
H197 H 0.10583 0.36036 0.57987 0.0
H198 H 0.92082 0.34406 0.46487 0.0
C199 C 0.96342 0.6345 0.48846 0.0
C200 C 0.01275 0.69448 0.51578 0.0
C201 C 0.06844 0.68682 0.55226 0.0
C202 C 0.07656 0.62104 0.56121 0.0
C203 C 0.0284 0.56284 0.53348 0.0
C204 C 0.9727 0.56863 0.49787 0.0
C205 C 0.93094 0.49648 0.47284 0.0
C206 C 0.83586 0.49853 0.4669 0.0
C207 C 0.95101 0.47264 0.43226 0.0
C208 C 0.97276 0.4494 0.49977 0.0
C209 C 0.0284 0.48922 0.53466 0.0
C210 C 0.07648 0.45814 0.56382 0.0
C211 C 0.0683 0.38432 0.55711 0.0
C212 C 0.01259 0.34167 0.52143 0.0
C213 C 0.96337 0.37514 0.49261 0.0
loop_
_geom_bond_atom_site_label_1
_geom_bond_atom_site_label_2
_geom_bond_distance
_geom_bond_site_symmetry_2
_ccdc_geom_bond_type
C0 C1 1.443 . S
C0 N4 1.376 . S
C0 C38 1.389 . S
C1 C0 1.443 . S
C1 C2 1.340 . S
C1 H41 0.951 . S
C2 C1 1.340 . S
C2 C3 1.439 . S
C2 H42 0.950 . S
C3 C2 1.439 . S
C3 N4 1.374 . S
C3 C37 1.394 1_455 S
N4 C0 1.376 . S
N4 C3 1.374 . S
N4 Co5 2.007 . S
Co5 N4 2.007 . S
Co5 N6 1.998 1_455 S
Co5 N11 2.009 1_444 S
Co5 N16 1.992 1_544 S
Co5 N21 2.301 . S
Co5 N27 2.264 1_444 S
N6 Co5 1.998 1_655 S
N6 C7 1.376 . S
N6 C10 1.383 . S
C7 N6 1.376 . S
C7 C8 1.446 . S
C7 C37 1.392 . S
C8 C7 1.446 . S
C8 C9 1.339 . S
C8 H43 0.949 . S
C9 C8 1.339 . S
C9 C10 1.439 . S
C9 H44 0.950 . S
C10 N6 1.383 . S
C10 C9 1.439 . S
C10 C39 1.388 1_544 S
N11 Co5 2.009 1_666 S
N11 C12 1.376 . S
N11 C15 1.374 . S
C12 N11 1.376 . S
C12 C13 1.443 . S
C12 C39 1.399 . S
C13 C12 1.443 . S
C13 C14 1.340 . S
C13 H45 0.951 . S
C14 C13 1.340 . S
C14 C15 1.439 . S
C14 H46 0.950 . S
C15 N11 1.374 . S
C15 C14 1.439 . S
C15 C40 1.388 1_655 S
N16 Co5 1.992 1_566 S
N16 C17 1.376 . S
N16 C20 1.383 . S
C17 N16 1.376 . S
C17 C18 1.446 . S
C17 C40 1.398 . S
C18 C17 1.446 . S
C18 C19 1.339 . S
C18 H47 0.949 . S
C19 C18 1.339 . S
C19 C20 1.439 . S
C19 H48 0.950 . S
C20 N16 1.383 . S
C20 C19 1.439 . S
C20 C38 1.392 1_566 S
N21 Co5 2.301 . S
N21 C24 1.332 1_545 S
N21 C26 1.332 1_455 S
C22 C23 1.375 1_545 S
C22 C25 1.405 1_455 S
C23 C22 1.375 1_565 S
C23 C24 1.382 . S
C23 H49 0.950 . S
C24 N21 1.332 1_565 S
C24 C23 1.382 . S
C24 H35 0.952 . S
C25 C22 1.405 1_655 S
C25 C26 1.382 . S
C25 H50 0.950 . S
C26 N21 1.332 1_655 S
C26 C25 1.382 . S
C26 H36 0.948 . S
N27 Co5 2.264 1_666 S
N27 C31 1.332 1_565 S
N27 C32 1.332 1_655 S
C28 C29 1.395 1_455 S
C28 C32 1.382 . S
C28 H51 0.950 . S
C29 C28 1.395 1_655 S
C29 C30 1.381 1_565 S
C30 C29 1.381 1_545 S
C30 C31 1.382 . S
C30 H52 0.950 . S
C31 N27 1.332 1_545 S
C31 C30 1.382 . S
C31 H33 0.952 . S
C32 N27 1.332 1_455 S
C32 C28 1.382 . S
C32 H34 0.948 . S
H33 C31 0.952 . S
H34 C32 0.948 . S
H35 C24 0.952 . S
H36 C26 0.948 . S
C37 C3 1.394 1_655 S
C37 C7 1.392 . S
C38 C0 1.389 . S
C38 C20 1.392 1_544 S
C39 C10 1.388 1_566 S
C39 C12 1.399 . S
C40 C15 1.388 1_455 S
C40 C17 1.398 . S
H41 C1 0.951 . S
H42 C2 0.950 . S
H43 C8 0.949 . S
H44 C9 0.950 . S
H45 C13 0.951 . S
H46 C14 0.950 . S
H47 C18 0.949 . S
H48 C19 0.950 . S
H49 C23 0.950 . S
H50 C25 0.950 . S
H51 C28 0.950 . S
H52 C30 0.950 . S
C53 C54 1.446 . S
C53 N57 1.374 1_565 S
C53 C91 1.389 1_565 S
C54 C53 1.446 . S
C54 C55 1.340 . S
C54 H94 0.951 . S
C55 C54 1.340 . S
C55 C56 1.439 . S
C55 H95 0.950 . S
C56 C55 1.439 . S
C56 N57 1.374 1_565 S
C56 C90 1.395 . S
N57 C53 1.374 1_545 S
N57 C56 1.374 1_545 S
N57 Co58 2.008 . S
Co58 N57 2.008 . S
Co58 N59 1.996 1_545 S
Co58 N64 2.008 1_445 S
Co58 N69 1.993 1_455 S
Co58 N74 2.286 . S
Co58 N80 2.279 1_445 S
N59 Co58 1.996 1_565 S
N59 C60 1.376 . S
N59 C63 1.383 . S
C60 N59 1.376 . S
C60 C61 1.446 . S
C60 C90 1.391 . S
C61 C60 1.446 . S
C61 C62 1.339 . S
C61 H96 0.949 . S
C62 C61 1.339 . S
C62 C63 1.439 . S
C62 H97 0.950 . S
C63 N59 1.383 . S
C63 C62 1.439 . S
C63 C92 1.383 1_455 S
N64 Co58 2.008 1_665 S
N64 C65 1.376 1_565 S
N64 C68 1.374 1_565 S
C65 N64 1.376 1_545 S
C65 C66 1.443 . S
C65 C92 1.401 1_545 S
C66 C65 1.443 . S
C66 C67 1.340 . S
C66 H98 0.951 . S
C67 C66 1.340 . S
C67 C68 1.439 . S
C67 H99 0.950 . S
C68 N64 1.374 1_545 S
C68 C67 1.439 . S
C68 C93 1.395 . S
N69 Co58 1.993 1_655 S
N69 C70 1.376 . S
N69 C73 1.383 . S
C70 N69 1.376 . S
C70 C71 1.446 . S
C70 C93 1.391 . S
C71 C70 1.446 . S
C71 C72 1.339 . S
C71 H100 0.949 . S
C72 C71 1.339 . S
C72 C73 1.439 . S
C72 H101 0.950 . S
C73 N69 1.383 . S
C73 C72 1.439 . S
C73 C91 1.392 1_655 S
N74 Co58 2.286 . S
N74 C77 1.332 1_455 S
N74 C79 1.332 . S
C75 C76 1.386 1_455 S
C75 C78 1.388 . S
C76 C75 1.386 1_655 S
C76 C77 1.382 . S
C76 H102 0.950 . S
C77 N74 1.332 1_655 S
C77 C76 1.382 . S
C77 H88 0.952 . S
C78 C75 1.388 . S
C78 C79 1.382 . S
C78 H103 0.950 . S
C79 N74 1.332 . S
C79 C78 1.382 . S
C79 H89 0.948 . S
N80 Co58 2.279 1_665 S
N80 C84 1.332 1_655 S
N80 C85 1.332 . S
C81 C82 1.396 . S
C81 C85 1.382 . S
C81 H104 0.950 . S
C82 C81 1.396 . S
C82 C83 1.377 1_655 S
C83 C82 1.377 1_455 S
C83 C84 1.382 . S
C83 H105 0.950 . S
C84 N80 1.332 1_455 S
C84 C83 1.382 . S
C84 H86 0.952 . S
C85 N80 1.332 . S
C85 C81 1.382 . S
C85 H87 0.948 . S
H86 C84 0.952 . S
H87 C85 0.948 . S
H88 C77 0.952 . S
H89 C79 0.948 . S
C90 C56 1.395 . S
C90 C60 1.391 . S
C91 C53 1.389 1_545 S
C91 C73 1.392 1_455 S
C92 C63 1.383 1_655 S
C92 C65 1.401 1_565 S
C93 C68 1.395 . S
C93 C70 1.391 . S
H94 C54 0.951 . S
H95 C55 0.950 . S
H96 C61 0.949 . S
H97 C62 0.950 . S
H98 C66 0.951 . S
H99 C67 0.950 . S
H100 C71 0.949 . S
H101 C72 0.950 . S
H102 C76 0.950 . S
H103 C78 0.950 . S
H104 C81 0.950 . S
H105 C83 0.950 . S
H106 C118 0.930 . S
H107 C120 0.930 . S
H108 C121 0.930 . S
H109 C125 0.959 1_545 S
H110 C125 0.959 . S
H111 C125 0.961 . S
H112 C126 0.960 . S
H113 C126 0.961 . S
H114 C126 0.959 . S
H115 C129 0.929 . S
H116 C130 0.931 . S
H117 C132 0.930 . S
C118 H106 0.930 . S
C118 C119 1.393 1_665 S
C118 C123 1.399 . S
C119 C118 1.393 1_445 S
C119 C120 1.380 . S
C120 H107 0.930 . S
C120 C119 1.380 . S
C120 C121 1.388 . S
C121 H108 0.930 . S
C121 C120 1.388 . S
C121 C122 1.390 . S
C122 C121 1.390 . S
C122 C123 1.394 1_445 S
C122 C128 1.465 . S
C123 C118 1.399 . S
C123 C122 1.394 1_665 S
C123 C124 1.516 . S
C124 C123 1.516 . S
C124 C125 1.502 . S
C124 C126 1.561 . S
C124 C127 1.526 . S
C125 H109 0.959 1_565 S
C125 H110 0.959 . S
C125 H111 0.961 . S
C125 C124 1.502 . S
C126 H112 0.960 . S
C126 H113 0.961 . S
C126 H114 0.959 . S
C126 C124 1.561 . S
C127 C124 1.526 . S
C127 C128 1.396 1_665 S
C127 C132 1.390 . S
C128 C122 1.465 . S
C128 C127 1.396 1_445 S
C128 C129 1.399 . S
C129 H115 0.929 . S
C129 C128 1.399 . S
C129 C130 1.385 . S
C130 H116 0.931 . S
C130 C129 1.385 . S
C130 C131 1.389 . S
C131 C130 1.389 . S
C131 C132 1.387 1_445 S
C132 H117 0.930 . S
C132 C127 1.390 . S
C132 C131 1.387 1_665 S
H133 C145 0.930 . S
H134 C147 0.930 . S
H135 C148 0.930 . S
H136 C152 0.959 . S
H137 C152 0.959 . S
H138 C152 0.961 . S
H139 C153 0.960 . S
H140 C153 0.961 . S
H141 C153 0.959 . S
H142 C156 0.929 . S
H143 C157 0.931 . S
H144 C159 0.930 . S
C145 H133 0.930 . S
C145 C146 1.399 1_645 S
C145 C150 1.399 . S
C146 C145 1.399 1_465 S
C146 C147 1.376 . S
C147 H134 0.930 . S
C147 C146 1.376 . S
C147 C148 1.388 . S
C148 H135 0.930 . S
C148 C147 1.388 . S
C148 C149 1.390 . S
C149 C148 1.390 . S
C149 C150 1.394 1_465 S
C149 C155 1.465 . S
C150 C145 1.399 . S
C150 C149 1.394 1_645 S
C150 C151 1.516 . S
C151 C150 1.516 . S
C151 C152 1.502 . S
C151 C153 1.561 1_655 S
C151 C154 1.526 . S
C152 H136 0.959 . S
C152 H137 0.959 . S
C152 H138 0.961 . S
C152 C151 1.502 . S
C153 H139 0.960 . S
C153 H140 0.961 . S
C153 H141 0.959 . S
C153 C151 1.561 1_455 S
C154 C151 1.526 . S
C154 C155 1.396 1_645 S
C154 C159 1.390 . S
C155 C149 1.465 . S
C155 C154 1.396 1_465 S
C155 C156 1.399 . S
C156 H142 0.929 . S
C156 C155 1.399 . S
C156 C157 1.385 . S
C157 H143 0.931 . S
C157 C156 1.385 . S
C157 C158 1.389 . S
C158 C157 1.389 . S
C158 C159 1.387 1_465 S
C159 H144 0.930 . S
C159 C154 1.390 . S
C159 C158 1.387 1_645 S
H160 C172 0.930 . S
H161 C174 0.930 . S
H162 C175 0.930 . S
H163 C179 0.959 . S
H164 C179 0.959 . S
H165 C179 0.961 . S
H166 C180 0.960 . S
H167 C180 0.966 1_556 S
H168 C180 0.959 . S
H169 C183 0.929 . S
H170 C184 0.931 . S
H171 C186 0.930 . S
C172 H160 0.930 . S
C172 C173 1.399 1_566 S
C172 C177 1.399 . S
C173 C172 1.399 1_544 S
C173 C174 1.376 . S
C174 H161 0.930 . S
C174 C173 1.376 . S
C174 C175 1.388 . S
C175 H162 0.930 . S
C175 C174 1.388 . S
C175 C176 1.390 . S
C176 C175 1.390 . S
C176 C177 1.394 1_544 S
C176 C182 1.465 . S
C177 C172 1.399 . S
C177 C176 1.394 1_566 S
C177 C178 1.516 . S
C178 C177 1.516 . S
C178 C179 1.502 . S
C178 C180 1.561 1_556 S
C178 C181 1.526 . S
C179 H163 0.959 . S
C179 H164 0.959 . S
C179 H165 0.961 . S
C179 C178 1.502 . S
C180 H166 0.960 . S
C180 H167 0.966 1_554 S
C180 H168 0.959 . S
C180 C178 1.561 1_554 S
C181 C178 1.526 . S
C181 C182 1.396 1_566 S
C181 C186 1.390 . S
C182 C176 1.465 . S
C182 C181 1.396 1_544 S
C182 C183 1.399 . S
C183 H169 0.929 . S
C183 C182 1.399 . S
C183 C184 1.385 . S
C184 H170 0.931 . S
C184 C183 1.385 . S
C184 C185 1.389 . S
C185 C184 1.389 . S
C185 C186 1.387 1_544 S
C186 H171 0.930 . S
C186 C181 1.390 . S
C186 C185 1.387 1_566 S
H187 C199 0.930 . S
H188 C201 0.930 . S
H189 C202 0.930 . S
H190 C206 0.959 . S
H191 C206 0.959 . S
H192 C206 0.961 . S
H193 C207 0.960 . S
H194 C207 0.961 . S
H195 C207 0.959 . S
H196 C210 0.929 . S
H197 C211 0.931 . S
H198 C213 0.930 . S
C199 H187 0.930 . S
C199 C200 1.399 1_655 S
C199 C204 1.399 . S
C200 C199 1.399 1_455 S
C200 C201 1.376 . S
C201 H188 0.930 . S
C201 C200 1.376 . S
C201 C202 1.388 . S
C202 H189 0.930 . S
C202 C201 1.388 . S
C202 C203 1.390 . S
C203 C202 1.390 . S
C203 C204 1.394 1_455 S
C203 C209 1.465 . S
C204 C199 1.399 . S
C204 C203 1.394 1_655 S
C204 C205 1.516 . S
C205 C204 1.516 . S
C205 C206 1.502 . S
C205 C207 1.561 . S
C205 C208 1.526 . S
C206 H190 0.959 . S
C206 H191 0.959 . S
C206 H192 0.961 . S
C206 C205 1.502 . S
C207 H193 0.960 . S
C207 H194 0.961 . S
C207 H195 0.959 . S
C207 C205 1.561 . S
C208 C205 1.526 . S
C208 C209 1.396 1_655 S
C208 C213 1.390 . S
C209 C203 1.465 . S
C209 C208 1.396 1_455 S
C209 C210 1.399 . S
C210 H196 0.929 . S
C210 C209 1.399 . S
C210 C211 1.385 . S
C211 H197 0.931 . S
C211 C210 1.385 . S
C211 C212 1.389 . S
C212 C211 1.389 . S
C212 C213 1.387 1_455 S
C213 H198 0.930 . S
C213 C208 1.390 . S
C213 C212 1.387 1_655 S
C119 C22 1.488 . S
C131 C92 1.490 1_445 S
C146 C29 1.492 1_455 S
C158 C91 1.495 1_565 S
C173 C39 1.488 1_544 S
C185 C38 1.489 . S
C200 C82 1.492 1_455 S
C212 C75 1.492 . S
