# Generated by pormake.
# Topology lvt, (4)-cn, num edge types: 1
# Building blocks:
#     Node 0, Type 0, BuildingBlock: NAWXER_clean_sbu_0, # of connection points: 4
#     Node 1, Type 0, BuildingBlock: NAWXER_clean_sbu_0, # of connection points: 4
#     Node 2, Type 0, BuildingBlock: NAWXER_clean_sbu_0, # of connection points: 4
#     Node 3, Type 0, BuildingBlock: NAWXER_clean_sbu_0, # of connection points: 4
#     Node 4, Type 0, BuildingBlock: NAWXER_clean_sbu_0, # of connection points: 4
#     Node 5, Type 0, BuildingBlock: NAWXER_clean_sbu_0, # of connection points: 4
#     Node 6, Type 0, BuildingBlock: NAWXER_clean_sbu_0, # of connection points: 4
#     Node 7, Type 0, BuildingBlock: NAWXER_clean_sbu_0, # of connection points: 4
#     Edge 8, Type (0, 0), None
#     Edge 9, Type (0, 0), None
#     Edge 10, Type (0, 0), None
#     Edge 11, Type (0, 0), None
#     Edge 12, Type (0, 0), None
#     Edge 13, Type (0, 0), None
#     Edge 14, Type (0, 0), None
#     Edge 15, Type (0, 0), None
#     Edge 16, Type (0, 0), None
#     Edge 17, Type (0, 0), None
#     Edge 18, Type (0, 0), None
#     Edge 19, Type (0, 0), None
#     Edge 20, Type (0, 0), None
#     Edge 21, Type (0, 0), None
#     Edge 22, Type (0, 0), None
#     Edge 23, Type (0, 0), None
# Relax obj value: 0.000
# Max RMSD: 0.000
# Mean RMSD: 0.000
data_MOF--net-lvt--node1-NAWXER_clean_sbu_0--edge1-none
_symmetry_space_group_name_H-M    P1
_symmetry_Int_Tables_number       1
_symmetry_cell_setting            triclinic
loop_
_symmetry_equiv_pos_as_xyz
'x, y, z'
_cell_length_a     17.145872
_cell_length_b     17.146229
_cell_length_c     7.4868197
_cell_angle_alpha  90.023522
_cell_angle_beta   89.967771
_cell_angle_gamma 90.000054
loop_
_atom_site_label
_atom_site_type_symbol
_atom_site_fract_x
_atom_site_fract_y
_atom_site_fract_z
_atom_type_partial_charge
C0 C 0.94415 0.94287 0.85977 0.0
C1 C 0.14464 0.12829 0.66768 0.0
O2 O 0.96584 0.93592 0.69661 0.0
Zn3 Zn 0.04825 0.98378 0.51148 0.0
O4 O 0.97733 0.99216 0.96184 0.0
Zn5 Zn 0.04819 0.03348 0.78001 0.0
O6 O 0.96581 0.08133 0.59493 0.0
O7 O 0.97743 0.02511 0.3297 0.0
O8 O 0.11997 0.12096 0.82704 0.0
O9 O 0.12157 0.08112 0.54652 0.0
O10 O 0.1201 0.8963 0.46448 0.0
O11 O 0.12156 0.93615 0.74498 0.0
C12 C 0.94418 0.07439 0.43178 0.0
C13 C 0.14471 0.88898 0.62383 0.0
C14 C 0.1928 0.823 0.68177 0.0
C15 C 0.37821 0.62248 0.87382 0.0
O16 O 0.24209 0.78977 0.57968 0.0
Zn17 Zn 0.28341 0.71894 0.76147 0.0
O18 O 0.18585 0.80137 0.84492 0.0
Zn19 Zn 0.23369 0.71898 1.03001 0.0
O20 O 0.27501 0.78984 0.21183 0.0
O21 O 0.33126 0.80135 0.94659 0.0
O22 O 0.33103 0.64562 0.99497 0.0
O23 O 0.3709 0.6471 0.71447 0.0
O24 O 0.18607 0.64561 0.79652 0.0
O25 O 0.14621 0.6472 1.07703 0.0
C26 C 0.3243 0.82304 1.10975 0.0
C27 C 0.1389 0.62252 0.91768 0.0
C28 C 0.37239 0.88902 0.1677 0.0
C29 C 0.5729 0.07444 0.35975 0.0
O30 O 0.39554 0.93615 1.04655 0.0
Zn31 Zn 0.46891 0.03344 1.0115 0.0
O32 O 0.39701 0.89637 0.32705 0.0
Zn33 Zn 0.46885 0.98382 0.28004 0.0
O34 O 0.39553 0.08113 0.24494 0.0
O35 O 0.39715 0.12089 0.96444 0.0
O36 O 0.53965 0.0252 0.46184 0.0
O37 O 0.55128 0.08134 0.1966 0.0
O38 O 0.53976 0.99207 0.82966 0.0
O39 O 0.55126 0.93592 1.0949 0.0
C40 C 0.37246 0.12825 1.12378 0.0
C41 C 0.57295 0.94282 0.93174 0.0
C42 C 0.32437 0.19425 0.18173 0.0
C43 C 0.13893 0.39473 0.37377 0.0
O44 O 0.27513 0.22745 1.07965 0.0
Zn45 Zn 0.23375 0.29828 0.26148 0.0
O46 O 0.33126 0.21593 0.34488 0.0
Zn47 Zn 0.28335 0.29833 0.53003 0.0
O48 O 0.24196 0.22752 0.71183 0.0
O49 O 0.18584 0.21591 0.44659 0.0
O50 O 0.18605 0.37165 0.49493 0.0
O51 O 0.1463 0.37005 0.21443 0.0
O52 O 0.33104 0.37165 0.29656 0.0
O53 O 0.37079 0.37015 0.57705 0.0
C54 C 0.19273 0.19428 0.60974 0.0
C55 C 0.37815 0.39478 0.41771 0.0
C56 C 0.6928 0.32301 0.18179 0.0
C57 C 0.8782 0.12248 0.37384 0.0
O58 O 0.74208 0.28976 1.0797 0.0
Zn59 Zn 0.78341 0.21894 0.26149 0.0
O60 O 0.68585 0.30137 0.34494 0.0
Zn61 Zn 0.73369 0.21898 0.53002 0.0
O62 O 0.77501 0.28984 0.71184 0.0
O63 O 0.83125 0.30135 0.44661 0.0
O64 O 0.83102 0.14562 0.49499 0.0
O65 O 0.87089 0.1471 0.21449 0.0
O66 O 0.68607 0.14561 0.29654 0.0
O67 O 0.6462 0.1472 0.57705 0.0
C68 C 0.8243 0.32303 0.60976 0.0
C69 C 0.63889 0.12253 0.4177 0.0
C70 C 0.82437 0.69425 0.68174 0.0
C71 C 0.63894 0.89473 0.87379 0.0
O72 O 0.77514 0.72745 0.57967 0.0
Zn73 Zn 0.73375 0.79828 0.7615 0.0
O74 O 0.83127 0.71592 0.8449 0.0
Zn75 Zn 0.78336 0.79832 1.03004 0.0
O76 O 0.74196 0.72752 0.21185 0.0
O77 O 0.68584 0.71591 0.94661 0.0
O78 O 0.68606 0.87165 0.99495 0.0
O79 O 0.64631 0.87005 0.71444 0.0
O80 O 0.83104 0.87165 0.79657 0.0
O81 O 0.8708 0.87015 1.07707 0.0
C82 C 0.69273 0.69428 1.10976 0.0
C83 C 0.87816 0.89478 0.91773 0.0
C84 C 0.44419 0.57439 0.93177 0.0
C85 C 0.64471 0.38898 1.12384 0.0
O86 O 0.46581 0.58133 1.09492 0.0
Zn87 Zn 0.54819 0.53349 0.28001 0.0
O88 O 0.47744 0.52511 0.82969 0.0
Zn89 Zn 0.54826 0.48378 1.01148 0.0
O90 O 0.46584 0.43593 0.1966 0.0
O91 O 0.47733 0.49216 0.46183 0.0
O92 O 0.6201 0.3963 0.96449 0.0
O93 O 0.62156 0.43616 0.24499 0.0
O94 O 0.61997 0.62097 0.32705 0.0
O95 O 0.62157 0.58112 1.04653 0.0
C96 C 0.44415 0.44287 0.35976 0.0
C97 C 0.64464 0.62829 0.16769 0.0
C98 C 0.87239 0.38902 0.66772 0.0
C99 C 0.07291 0.57444 0.85974 0.0
O100 O 0.89553 0.43615 0.54656 0.0
Zn101 Zn 0.96891 0.53344 0.5115 0.0
O102 O 0.89701 0.39637 0.82706 0.0
Zn103 Zn 0.96885 0.48382 0.78004 0.0
O104 O 0.89553 0.58113 0.74496 0.0
O105 O 0.89714 0.62089 0.46444 0.0
O106 O 0.03965 0.5252 0.96183 0.0
O107 O 0.05128 0.58134 0.69659 0.0
O108 O 0.03975 0.49207 0.32965 0.0
O109 O 0.05125 0.43592 0.59489 0.0
C110 C 0.87246 0.62825 0.62379 0.0
C111 C 0.07294 0.44282 0.43173 0.0
loop_
_geom_bond_atom_site_label_1
_geom_bond_atom_site_label_2
_geom_bond_distance
_geom_bond_site_symmetry_2
_ccdc_geom_bond_type
C0 O2 1.247 . S
C0 O4 1.258 . S
C1 O8 1.247 . S
C1 O9 1.258 . S
O2 C0 1.247 . S
O2 Zn3 2.033 . S
Zn3 O2 2.033 . S
Zn3 O7 2.041 1_565 S
Zn3 O9 2.030 1_665 S
Zn3 O10 2.022 1_655 S
O4 C0 1.258 . S
O4 Zn5 2.027 1_665 S
Zn5 O4 2.027 1_445 S
Zn5 O6 2.020 1_455 S
Zn5 O8 2.036 . S
Zn5 O11 2.043 1_545 S
O6 Zn5 2.020 1_655 S
O6 C12 1.247 . S
O7 Zn3 2.041 1_545 S
O7 C12 1.258 . S
O8 C1 1.247 . S
O8 Zn5 2.036 . S
O9 C1 1.258 . S
O9 Zn3 2.030 1_445 S
O10 Zn3 2.022 1_455 S
O10 C13 1.247 . S
O11 Zn5 2.043 1_565 S
O11 C13 1.258 . S
C12 O6 1.247 . S
C12 O7 1.258 . S
C13 O10 1.247 . S
C13 O11 1.258 . S
C14 O16 1.247 . S
C14 O18 1.258 . S
C15 O22 1.247 . S
C15 O23 1.258 . S
O16 C14 1.247 . S
O16 Zn17 2.028 . S
Zn17 O16 2.028 . S
Zn17 O21 2.035 . S
Zn17 O23 2.035 . S
Zn17 O24 2.028 . S
O18 C14 1.258 . S
O18 Zn19 2.035 . S
Zn19 O18 2.035 . S
Zn19 O20 2.028 . S
Zn19 O22 2.028 . S
Zn19 O25 2.035 . S
O20 Zn19 2.028 . S
O20 C26 1.247 . S
O21 Zn17 2.035 . S
O21 C26 1.258 . S
O22 C15 1.247 . S
O22 Zn19 2.028 . S
O23 C15 1.258 . S
O23 Zn17 2.035 . S
O24 Zn17 2.028 . S
O24 C27 1.247 . S
O25 Zn19 2.035 . S
O25 C27 1.258 . S
C26 O20 1.247 . S
C26 O21 1.258 . S
C27 O24 1.247 . S
C27 O25 1.258 . S
C28 O30 1.247 . S
C28 O32 1.258 1_556 S
C29 O36 1.247 . S
C29 O37 1.258 1_554 S
O30 C28 1.247 . S
O30 Zn31 2.028 1_565 S
Zn31 O30 2.028 1_545 S
Zn31 O35 2.035 . S
Zn31 O37 2.035 . S
Zn31 O38 2.028 1_545 S
O32 C28 1.258 1_554 S
O32 Zn33 2.035 . S
Zn33 O32 2.035 . S
Zn33 O34 2.028 1_565 S
Zn33 O36 2.028 1_565 S
Zn33 O39 2.035 . S
O34 Zn33 2.028 1_545 S
O34 C40 1.247 . S
O35 Zn31 2.035 . S
O35 C40 1.258 1_556 S
O36 C29 1.247 . S
O36 Zn33 2.028 1_545 S
O37 C29 1.258 1_556 S
O37 Zn31 2.035 . S
O38 Zn31 2.028 1_565 S
O38 C41 1.247 . S
O39 Zn33 2.035 . S
O39 C41 1.258 1_554 S
C40 O34 1.247 . S
C40 O35 1.258 1_554 S
C41 O38 1.247 . S
C41 O39 1.258 1_556 S
C42 O44 1.247 . S
C42 O46 1.258 . S
C43 O50 1.247 . S
C43 O51 1.258 . S
O44 C42 1.247 . S
O44 Zn45 2.028 . S
Zn45 O44 2.028 . S
Zn45 O49 2.035 . S
Zn45 O51 2.035 . S
Zn45 O52 2.028 . S
O46 C42 1.258 . S
O46 Zn47 2.035 . S
Zn47 O46 2.035 . S
Zn47 O48 2.028 . S
Zn47 O50 2.028 . S
Zn47 O53 2.035 . S
O48 Zn47 2.028 . S
O48 C54 1.247 . S
O49 Zn45 2.035 . S
O49 C54 1.258 . S
O50 C43 1.247 . S
O50 Zn47 2.028 . S
O51 C43 1.258 . S
O51 Zn45 2.035 . S
O52 Zn45 2.028 . S
O52 C55 1.247 . S
O53 Zn47 2.035 . S
O53 C55 1.258 . S
C54 O48 1.247 . S
C54 O49 1.258 . S
C55 O52 1.247 . S
C55 O53 1.258 . S
C56 O58 1.247 . S
C56 O60 1.258 . S
C57 O64 1.247 . S
C57 O65 1.258 . S
O58 C56 1.247 . S
O58 Zn59 2.028 . S
Zn59 O58 2.028 . S
Zn59 O63 2.035 . S
Zn59 O65 2.035 . S
Zn59 O66 2.028 . S
O60 C56 1.258 . S
O60 Zn61 2.035 . S
Zn61 O60 2.035 . S
Zn61 O62 2.028 . S
Zn61 O64 2.028 . S
Zn61 O67 2.035 . S
O62 Zn61 2.028 . S
O62 C68 1.247 . S
O63 Zn59 2.035 . S
O63 C68 1.258 . S
O64 C57 1.247 . S
O64 Zn61 2.028 . S
O65 C57 1.258 . S
O65 Zn59 2.035 . S
O66 Zn59 2.028 . S
O66 C69 1.247 . S
O67 Zn61 2.035 . S
O67 C69 1.258 . S
C68 O62 1.247 . S
C68 O63 1.258 . S
C69 O66 1.247 . S
C69 O67 1.258 . S
C70 O72 1.247 . S
C70 O74 1.258 . S
C71 O78 1.247 . S
C71 O79 1.258 . S
O72 C70 1.247 . S
O72 Zn73 2.028 . S
Zn73 O72 2.028 . S
Zn73 O77 2.035 . S
Zn73 O79 2.035 . S
Zn73 O80 2.028 . S
O74 C70 1.258 . S
O74 Zn75 2.035 . S
Zn75 O74 2.035 . S
Zn75 O76 2.028 . S
Zn75 O78 2.028 . S
Zn75 O81 2.035 . S
O76 Zn75 2.028 . S
O76 C82 1.247 . S
O77 Zn73 2.035 . S
O77 C82 1.258 . S
O78 C71 1.247 . S
O78 Zn75 2.028 . S
O79 C71 1.258 . S
O79 Zn73 2.035 . S
O80 Zn73 2.028 . S
O80 C83 1.247 . S
O81 Zn75 2.035 . S
O81 C83 1.258 . S
C82 O76 1.247 . S
C82 O77 1.258 . S
C83 O80 1.247 . S
C83 O81 1.258 . S
C84 O86 1.247 1_556 S
C84 O88 1.258 . S
C85 O92 1.247 1_554 S
C85 O93 1.258 . S
O86 C84 1.247 1_554 S
O86 Zn87 2.028 . S
Zn87 O86 2.028 . S
Zn87 O91 2.035 . S
Zn87 O93 2.035 . S
Zn87 O94 2.028 . S
O88 C84 1.258 . S
O88 Zn89 2.035 . S
Zn89 O88 2.035 . S
Zn89 O90 2.028 . S
Zn89 O92 2.028 . S
Zn89 O95 2.035 . S
O90 Zn89 2.028 . S
O90 C96 1.247 1_556 S
O91 Zn87 2.035 . S
O91 C96 1.258 . S
O92 C85 1.247 1_556 S
O92 Zn89 2.028 . S
O93 C85 1.258 . S
O93 Zn87 2.035 . S
O94 Zn87 2.028 . S
O94 C97 1.247 1_554 S
O95 Zn89 2.035 . S
O95 C97 1.258 . S
C96 O90 1.247 1_554 S
C96 O91 1.258 . S
C97 O94 1.247 1_556 S
C97 O95 1.258 . S
C98 O100 1.247 . S
C98 O102 1.258 . S
C99 O106 1.247 . S
C99 O107 1.258 . S
O100 C98 1.247 . S
O100 Zn101 2.034 . S
Zn101 O100 2.034 . S
Zn101 O105 2.041 . S
Zn101 O107 2.030 1_655 S
Zn101 O108 2.022 1_655 S
O102 C98 1.258 . S
O102 Zn103 2.027 1_655 S
Zn103 O102 2.027 1_455 S
Zn103 O104 2.020 1_455 S
Zn103 O106 2.036 . S
Zn103 O109 2.043 . S
O104 Zn103 2.020 1_655 S
O104 C110 1.247 . S
O105 Zn101 2.041 . S
O105 C110 1.258 . S
O106 C99 1.247 . S
O106 Zn103 2.036 . S
O107 C99 1.258 . S
O107 Zn101 2.030 1_455 S
O108 Zn101 2.022 1_455 S
O108 C111 1.247 . S
O109 Zn103 2.043 . S
O109 C111 1.258 . S
C110 O104 1.247 . S
C110 O105 1.258 . S
C111 O108 1.247 . S
C111 O109 1.258 . S
C1 C54 1.493 . S
C13 C14 1.494 . S
C28 C26 1.496 . S
C42 C40 1.493 . S
C0 C83 1.497 . S
C12 C57 1.494 . S
C69 C29 1.493 . S
C41 C71 1.496 . S
C97 C82 1.495 . S
C56 C85 1.495 . S
C68 C98 1.495 . S
C70 C110 1.496 . S
C96 C55 1.494 . S
C15 C84 1.496 . S
C27 C99 1.493 . S
C43 C111 1.494 . S
