# Generated by pormake.
# Topology pcu, (6)-cn, num edge types: 1
# Building blocks:
#     Node 0, Type 0, BuildingBlock: BETDIP_clean_sbu_0, # of connection points: 6
#     Edge 1, Type (0, 0), BuildingBlock: XUDNAN_clean_linker_2, # of connection points: 2
#     Edge 2, Type (0, 0), BuildingBlock: XUDNAN_clean_linker_2, # of connection points: 2
#     Edge 3, Type (0, 0), BuildingBlock: XUDNAN_clean_linker_2, # of connection points: 2
# Relax obj value: 0.000
# Max RMSD: 0.000
# Mean RMSD: 0.000
data_MOF--net-pcu--node1-BETDIP_clean_sbu_0--edge1-XUDNAN_clean_linker_2
_symmetry_space_group_name_H-M    P1
_symmetry_Int_Tables_number       1
_symmetry_cell_setting            triclinic
loop_
_symmetry_equiv_pos_as_xyz
'x, y, z'
_cell_length_a     25.006649
_cell_length_b     15.283226
_cell_length_c     14.198557
_cell_angle_alpha  90.659179
_cell_angle_beta   97.020068
_cell_angle_gamma 124.37166
loop_
_atom_site_label
_atom_site_type_symbol
_atom_site_fract_x
_atom_site_fract_y
_atom_site_fract_z
_atom_type_partial_charge
Tb0 Tb 0.96161 0.91162 0.0371 0.0
Tb1 Tb 0.10601 0.04261 0.02683 0.0
C2 C 0.84864 0.84055 0.0745 0.0
C3 C 0.7989 0.86409 0.04958 0.0
C4 C 0.77862 0.89695 0.12213 0.0
C5 C 0.73187 0.91991 0.10017 0.0
C6 C 0.70402 0.9101 1.00496 0.0
C7 C 0.724 0.87608 0.93253 0.0
C8 C 0.77093 0.85366 0.95446 0.0
C9 C 0.99408 0.94007 0.86312 0.0
C10 C 0.04282 0.16575 0.04642 0.0
C11 C 0.21505 0.11298 0.97453 0.0
C12 C 0.26013 0.07956 0.9686 0.0
C13 C 0.26511 0.04567 0.87968 0.0
C14 C 0.31168 0.02354 0.87169 0.0
C15 C 0.35491 0.03553 0.95235 0.0
C16 C 0.3487 0.06663 0.04176 0.0
C17 C 0.30204 0.08866 0.04978 0.0
C18 C 0.07851 0.03562 0.20015 0.0
C19 C 1.0285 0.79231 0.04605 0.0
O20 O 0.90279 0.91419 0.12955 0.0
O21 O 0.85993 0.7978 1.00598 0.0
O22 O 1.02132 0.00574 0.93543 0.0
O23 O 0.94256 0.85416 0.88446 0.0
O24 O 0.99071 0.07465 0.06495 0.0
O25 O 0.09174 0.17069 1.01361 0.0
O26 O 0.15917 0.06056 0.91612 0.0
O27 O 0.20849 0.13559 0.05976 0.0
O28 O 0.04747 0.95847 0.13559 0.0
O29 O 0.12996 0.11515 0.17108 0.0
O30 O 0.07861 0.8773 1.01531 0.0
O31 O 0.98048 0.79384 0.07368 0.0
H32 H 0.79931 0.90551 0.19606 0.0
H33 H 0.71842 0.9471 0.15779 0.0
H34 H 0.70294 0.86575 0.85856 0.0
H35 H 0.78518 0.82814 0.89669 0.0
H36 H 0.23385 0.03838 0.81572 0.0
H37 H 0.31432 -0.00181 0.80188 0.0
H38 H 0.38155 0.07791 0.10524 0.0
H39 H 0.30008 0.11544 0.11941 0.0
H40 H 0.99489 0.86508 0.29949 0.0
H41 H 0.13345 0.20907 0.32355 0.0
H42 H 0.12305 0.21922 0.49216 0.0
H43 H 0.88987 0.86301 0.46412 0.0
H44 H 0.87515 0.7455 0.51581 0.0
H45 H 0.88963 0.76368 0.39398 0.0
H46 H 0.98514 0.74176 0.43225 0.0
H47 H 0.97127 0.72423 0.55426 0.0
H48 H 0.05115 0.82696 0.52797 0.0
H49 H 0.10643 0.1952 0.65763 0.0
H50 H 0.07789 0.13847 0.8153 0.0
H51 H 0.94668 0.80922 0.69294 0.0
C52 C 1.0221 0.9423 0.34031 0.0
C53 C 0.06528 0.03639 0.29864 0.0
C54 C 0.10051 0.136 0.35413 0.0
C55 C 0.09488 0.14275 0.45004 0.0
C56 C 0.05347 0.04913 0.48993 0.0
C57 C 1.01705 0.95068 0.43737 0.0
C58 C 0.97765 0.86303 0.50044 0.0
C59 C 0.90367 0.8054 0.46656 0.0
C60 C 0.99751 0.78435 0.50391 0.0
C61 C 0.9988 0.92803 0.59636 0.0
C62 C 0.04261 0.03515 0.58767 0.0
C63 C 0.07159 0.11173 0.66546 0.0
C64 C 0.05518 0.07849 0.75493 0.0
C65 C 1.00982 0.96956 0.76644 0.0
C66 C 0.98106 0.89311 0.68594 0.0
H67 H 0.40084 0.94205 0.07168 0.0
H68 H 0.43156 0.09954 0.81134 0.0
H69 H 0.52236 0.08224 0.79583 0.0
H70 H 0.57128 0.06482 0.16231 0.0
H71 H 0.55853 0.94744 0.21167 0.0
H72 H 0.49434 0.96894 0.20128 0.0
H73 H 0.41422 0.7852 0.10327 0.0
H74 H 0.4781 0.76298 0.11365 0.0
H75 H 0.43651 0.75522 0.99757 0.0
H76 H 0.61219 0.05352 0.81071 0.0
H77 H 0.69326 0.0114 0.85288 0.0
H78 H 0.6043 0.87042 0.10275 0.0
C79 C 0.42672 0.97313 1.01149 0.0
C80 C 0.40851 0.0216 0.94237 0.0
C81 C 0.44352 0.06032 0.86433 0.0
C82 C 0.49561 0.05161 0.85522 0.0
C83 C 0.51237 0.00392 0.92467 0.0
C84 C 0.47892 0.96499 1.00118 0.0
C85 C 0.50727 0.91781 0.06607 0.0
C86 C 0.53447 0.97839 0.16626 0.0
C87 C 0.45597 0.7982 0.07035 0.0
C88 C 0.56204 0.93682 1.01425 0.0
C89 C 0.56406 0.98667 0.93292 0.0
C90 C 0.61073 0.01366 0.87383 0.0
C91 C 0.65639 -0.01133 0.89815 0.0
C92 C 0.65518 0.93666 0.9808 0.0
C93 C 0.60717 0.91087 0.03952 0.0
H94 H 0.09073 0.72111 0.95519 0.0
H95 H 0.96994 0.653 0.17604 0.0
H96 H 0.97042 0.49586 0.20745 0.0
H97 H 1.00963 0.45069 0.86281 0.0
H98 H 0.08248 0.46346 0.83728 0.0
H99 H 0.07828 0.57726 0.83658 0.0
H100 H 0.18452 0.68357 0.96047 0.0
H101 H 0.18895 0.56986 0.96173 0.0
H102 H 0.18854 0.62987 0.07143 0.0
H103 H 0.97807 0.34455 0.21158 0.0
H104 H 0.98724 0.19548 0.18242 0.0
H105 H 0.10146 0.35218 0.9565 0.0
C106 C 0.06506 0.67345 1.01071 0.0
C107 C 1.03025 0.69904 0.0632 0.0
C108 C 0.99645 0.6344 0.13445 0.0
C109 C 0.99686 0.54543 0.15344 0.0
C110 C 1.03102 0.52171 0.10029 0.0
C111 C 0.06419 0.58283 0.02993 0.0
C112 C 0.09293 0.53392 0.97934 0.0
C113 C 0.06409 0.50458 0.87269 0.0
C114 C 0.16821 0.60878 0.99416 0.0
C115 C 0.06963 0.43509 0.03158 0.0
C116 C 1.03473 0.4312 0.1017 0.0
C117 C 1.00551 0.34661 0.15732 0.0
C118 C 1.01077 0.26211 0.13977 0.0
C119 C 0.04479 0.26226 0.06694 0.0
C120 C 0.07583 0.35087 1.01326 0.0
loop_
_geom_bond_atom_site_label_1
_geom_bond_atom_site_label_2
_geom_bond_distance
_geom_bond_site_symmetry_2
_ccdc_geom_bond_type
Tb0 C2 2.809 . S
Tb0 O20 2.484 1_556 S
Tb0 O21 2.440 . S
Tb0 O22 2.658 1_655 S
Tb0 O23 2.409 . S
Tb0 O24 2.378 1_565 S
Tb0 O28 2.325 1_566 S
Tb0 O31 2.341 . S
Tb1 C11 2.809 . S
Tb1 O22 2.325 1_544 S
Tb1 O25 2.341 . S
Tb1 O26 2.484 1_554 S
Tb1 O27 2.440 . S
Tb1 O28 2.658 1_455 S
Tb1 O29 2.409 . S
Tb1 O30 2.378 1_545 S
C2 Tb0 2.809 . S
C2 C3 1.514 . S
C2 O20 1.248 1_556 S
C2 O21 1.266 . S
C3 C2 1.514 . S
C3 C4 1.355 1_566 S
C3 C8 1.348 . S
C4 C3 1.355 1_544 S
C4 C5 1.386 . S
C4 H32 0.927 . S
C5 C4 1.386 . S
C5 C6 1.339 1_544 S
C5 H33 0.931 . S
C6 C5 1.339 1_566 S
C6 C7 1.378 . S
C7 C6 1.378 . S
C7 C8 1.408 . S
C7 H34 0.930 . S
C8 C3 1.348 . S
C8 C7 1.408 . S
C8 H35 0.930 . S
C9 O22 1.281 1_655 S
C9 O23 1.254 . S
C10 O24 1.236 1_455 S
C10 O25 1.266 1_556 S
C11 Tb1 2.809 . S
C11 C12 1.514 . S
C11 O26 1.248 1_554 S
C11 O27 1.266 . S
C12 C11 1.514 . S
C12 C13 1.356 1_544 S
C12 C17 1.348 . S
C13 C12 1.356 1_566 S
C13 C14 1.384 . S
C13 H36 0.927 . S
C14 C13 1.384 . S
C14 C15 1.337 1_566 S
C14 H37 0.931 . S
C15 C14 1.337 1_544 S
C15 C16 1.380 . S
C16 C15 1.380 . S
C16 C17 1.408 . S
C16 H38 0.930 . S
C17 C12 1.348 . S
C17 C16 1.408 . S
C17 H39 0.930 . S
C18 O28 1.281 1_455 S
C18 O29 1.254 . S
C19 O30 1.236 1_655 S
C19 O31 1.266 1_554 S
O20 Tb0 2.484 1_554 S
O20 C2 1.248 1_554 S
O21 Tb0 2.440 . S
O21 C2 1.266 . S
O22 Tb0 2.658 1_455 S
O22 Tb1 2.325 1_566 S
O22 C9 1.281 1_455 S
O23 Tb0 2.409 . S
O23 C9 1.254 . S
O24 Tb0 2.378 1_545 S
O24 C10 1.236 1_655 S
O25 Tb1 2.341 . S
O25 C10 1.266 1_554 S
O26 Tb1 2.484 1_556 S
O26 C11 1.248 1_556 S
O27 Tb1 2.440 . S
O27 C11 1.266 . S
O28 Tb0 2.325 1_544 S
O28 Tb1 2.658 1_655 S
O28 C18 1.281 1_655 S
O29 Tb1 2.409 . S
O29 C18 1.254 . S
O30 Tb1 2.378 1_565 S
O30 C19 1.236 1_455 S
O31 Tb0 2.341 . S
O31 C19 1.266 1_556 S
H32 C4 0.927 . S
H33 C5 0.931 . S
H34 C7 0.930 . S
H35 C8 0.930 . S
H36 C13 0.927 . S
H37 C14 0.931 . S
H38 C16 0.930 . S
H39 C17 0.930 . S
H40 C52 0.930 . S
H41 C54 0.930 . S
H42 C55 0.930 . S
H43 C59 0.959 . S
H44 C59 0.959 . S
H45 C59 0.961 . S
H46 C60 0.960 . S
H47 C60 0.961 . S
H48 C60 0.959 . S
H49 C63 0.929 . S
H50 C64 0.931 . S
H51 C66 0.930 . S
C52 H40 0.930 . S
C52 C53 1.399 1_665 S
C52 C57 1.399 . S
C53 C52 1.399 1_445 S
C53 C54 1.376 . S
C54 H41 0.930 . S
C54 C53 1.376 . S
C54 C55 1.388 . S
C55 H42 0.930 . S
C55 C54 1.388 . S
C55 C56 1.390 . S
C56 C55 1.390 . S
C56 C57 1.394 1_445 S
C56 C62 1.465 . S
C57 C52 1.399 . S
C57 C56 1.394 1_665 S
C57 C58 1.516 . S
C58 C57 1.516 . S
C58 C59 1.502 . S
C58 C60 1.561 . S
C58 C61 1.526 . S
C59 H43 0.959 . S
C59 H44 0.959 . S
C59 H45 0.961 . S
C59 C58 1.502 . S
C60 H46 0.960 . S
C60 H47 0.961 . S
C60 H48 0.959 . S
C60 C58 1.561 . S
C61 C58 1.526 . S
C61 C62 1.396 1_665 S
C61 C66 1.390 . S
C62 C56 1.465 . S
C62 C61 1.396 1_445 S
C62 C63 1.399 . S
C63 H49 0.929 . S
C63 C62 1.399 . S
C63 C64 1.385 . S
C64 H50 0.931 . S
C64 C63 1.385 . S
C64 C65 1.389 . S
C65 C64 1.389 . S
C65 C66 1.387 1_445 S
C66 H51 0.930 . S
C66 C61 1.390 . S
C66 C65 1.387 1_665 S
H67 C79 0.930 . S
H68 C81 0.930 . S
H69 C82 0.930 . S
H70 C86 0.959 1_545 S
H71 C86 0.959 . S
H72 C86 0.961 . S
H73 C87 0.960 . S
H74 C87 0.961 . S
H75 C87 0.959 . S
H76 C90 0.929 . S
H77 C91 0.931 . S
H78 C93 0.930 . S
C79 H67 0.930 . S
C79 C80 1.397 1_564 S
C79 C84 1.399 . S
C80 C79 1.397 1_546 S
C80 C81 1.377 . S
C81 H68 0.930 . S
C81 C80 1.377 . S
C81 C82 1.388 . S
C82 H69 0.930 . S
C82 C81 1.388 . S
C82 C83 1.390 . S
C83 C82 1.390 . S
C83 C84 1.394 1_546 S
C83 C89 1.465 . S
C84 C79 1.399 . S
C84 C83 1.394 1_564 S
C84 C85 1.516 . S
C85 C84 1.516 . S
C85 C86 1.502 . S
C85 C87 1.561 . S
C85 C88 1.526 . S
C86 H70 0.959 1_565 S
C86 H71 0.959 . S
C86 H72 0.961 . S
C86 C85 1.502 . S
C87 H73 0.960 . S
C87 H74 0.961 . S
C87 H75 0.959 . S
C87 C85 1.561 . S
C88 C85 1.526 . S
C88 C89 1.396 1_564 S
C88 C93 1.390 . S
C89 C83 1.465 . S
C89 C88 1.396 1_546 S
C89 C90 1.399 . S
C90 H76 0.929 . S
C90 C89 1.399 . S
C90 C91 1.385 . S
C91 H77 0.931 . S
C91 C90 1.385 . S
C91 C92 1.389 . S
C92 C91 1.389 . S
C92 C93 1.387 1_546 S
C93 H78 0.930 . S
C93 C88 1.390 . S
C93 C92 1.387 1_564 S
H94 C106 0.930 . S
H95 C108 0.930 . S
H96 C109 0.930 . S
H97 C113 0.959 . S
H98 C113 0.959 . S
H99 C113 0.961 . S
H100 C114 0.960 . S
H101 C114 0.961 . S
H102 C114 0.959 . S
H103 C117 0.929 . S
H104 C118 0.931 . S
H105 C120 0.930 . S
C106 H94 0.930 . S
C106 C107 1.399 1_656 S
C106 C111 1.399 . S
C107 C106 1.399 1_454 S
C107 C108 1.376 . S
C108 H95 0.930 . S
C108 C107 1.376 . S
C108 C109 1.388 . S
C109 H96 0.930 . S
C109 C108 1.388 . S
C109 C110 1.390 . S
C110 C109 1.390 . S
C110 C111 1.394 1_454 S
C110 C116 1.465 . S
C111 C106 1.399 . S
C111 C110 1.394 1_656 S
C111 C112 1.516 . S
C112 C111 1.516 . S
C112 C113 1.502 . S
C112 C114 1.561 1_655 S
C112 C115 1.526 . S
C113 H97 0.959 . S
C113 H98 0.959 . S
C113 H99 0.961 . S
C113 C112 1.502 . S
C114 H100 0.960 . S
C114 H101 0.961 . S
C114 H102 0.959 . S
C114 C112 1.561 1_455 S
C115 C112 1.526 . S
C115 C116 1.396 1_656 S
C115 C120 1.390 . S
C116 C110 1.465 . S
C116 C115 1.396 1_454 S
C116 C117 1.399 . S
C117 H103 0.929 . S
C117 C116 1.399 . S
C117 C118 1.385 . S
C118 H104 0.931 . S
C118 C117 1.385 . S
C118 C119 1.389 . S
C119 C118 1.389 . S
C119 C120 1.387 1_454 S
C120 H105 0.930 . S
C120 C115 1.390 . S
C120 C119 1.387 1_656 S
C53 C18 1.409 . S
C65 C9 1.481 1_445 S
C80 C15 1.492 1_556 S
C92 C6 1.493 1_545 S
C107 C19 1.476 1_455 S
C119 C10 1.494 1_554 S
