# Generated by pormake.
# Topology hex, (8)-cn, num edge types: 1
# Building blocks:
#     Node 0, Type 0, BuildingBlock: EBIMEJ_clean_sbu_0, # of connection points: 8
#     Edge 1, Type (0, 0), BuildingBlock: CIFDUS_clean_linker_0, # of connection points: 2
#     Edge 2, Type (0, 0), BuildingBlock: CIFDUS_clean_linker_0, # of connection points: 2
#     Edge 3, Type (0, 0), BuildingBlock: CIFDUS_clean_linker_0, # of connection points: 2
#     Edge 4, Type (0, 0), BuildingBlock: CIFDUS_clean_linker_0, # of connection points: 2
# Relax obj value: 0.011
# Max RMSD: 0.049
# Mean RMSD: 0.049
data_MOF--net-hex--node1-EBIMEJ_clean_sbu_0--edge1-CIFDUS_clean_linker_0
_symmetry_space_group_name_H-M    P1
_symmetry_Int_Tables_number       1
_symmetry_cell_setting            triclinic
loop_
_symmetry_equiv_pos_as_xyz
'x, y, z'
_cell_length_a     15.844848
_cell_length_b     18.428823
_cell_length_c     14.353343
_cell_angle_alpha  73.652041
_cell_angle_beta   115.9643
_cell_angle_gamma 126.12682
loop_
_atom_site_label
_atom_site_type_symbol
_atom_site_fract_x
_atom_site_fract_y
_atom_site_fract_z
_atom_type_partial_charge
Co0 Co 0.00211 0.88089 0.96759 0.0
Co1 Co 0.88289 0.96147 1.00497 0.0
Co2 Co 0.12108 0.08568 0.0104 0.0
H3 H 0.04808 0.97975 0.00882 0.0
O4 O 0.01597 0.95605 0.05417 0.0
H5 H 0.9559 0.06741 1.00656 0.0
O6 O 0.988 0.09111 0.96121 0.0
Co7 Co 1.00186 0.16626 0.04779 0.0
O8 O 0.84407 0.09956 0.04525 0.0
O9 O 0.75362 0.97393 0.96146 0.0
O10 O 0.1542 0.27052 0.04397 0.0
O11 O 0.22082 0.2182 0.98851 0.0
O12 O 0.93819 0.7546 0.92744 0.0
O13 O 0.0897 0.81979 0.04769 0.0
O14 O 0.04526 0.11746 0.19159 0.0
O15 O 0.91577 0.97374 0.15391 0.0
C16 C 0.24997 1.01738 0.01689 0.0
C17 C 0.77809 0.76435 1.00257 0.0
C18 C 0.98478 0.29676 0.02033 0.0
C19 C 0.01717 1.01086 0.7961 0.0
C20 C 0.754 0.02978 0.99848 0.0
C21 C 0.22588 0.2828 0.0128 0.0
C22 C 0.01919 0.7504 0.99505 0.0
C23 C 0.9868 0.0363 0.21928 0.0
O24 O 0.1599 0.9476 0.97012 0.0
O25 O 0.25035 0.07322 0.05392 0.0
O26 O 0.78315 0.82895 0.02686 0.0
O27 O 0.84977 0.77663 0.97141 0.0
O28 O 0.06579 0.29255 0.08793 0.0
O29 O 0.91427 0.22737 0.96769 0.0
O30 O 0.95871 0.9297 0.82379 0.0
O31 O 0.0882 0.07341 0.86147 0.0
H32 H 0.14169 0.45975 0.10676 0.0
H33 H 0.80223 0.30521 0.89893 0.0
H34 H 0.78258 0.43222 0.87273 0.0
H35 H 0.86228 0.5874 0.90861 0.0
H36 H 0.20174 0.74195 0.11645 0.0
H37 H 0.22139 0.61493 0.14264 0.0
C38 C 0.06349 0.45403 0.05584 0.0
C39 C 0.97363 0.37362 1.00465 0.0
C40 C 0.05295 0.52729 0.04099 0.0
C41 C 0.87278 0.36684 0.93864 0.0
C42 C 0.86143 0.43929 0.92378 0.0
C43 C 0.94048 0.59313 0.95954 0.0
C44 C 0.03034 0.67353 0.01073 0.0
C45 C 0.95102 0.51987 0.97438 0.0
C46 C 0.1312 0.68031 0.07673 0.0
C47 C 0.14254 0.60787 0.0916 0.0
H48 H 0.73154 0.13039 0.0808 0.0
H49 H 0.53922 0.89499 0.89955 0.0
H50 H 0.36673 0.87113 0.8906 0.0
H51 H 0.27243 0.91677 0.93458 0.0
H52 H 0.46476 0.15217 0.11582 0.0
H53 H 0.63724 0.17602 0.12478 0.0
C54 C 0.65211 0.0737 0.039 0.0
C55 C 0.64843 1.01442 0.99074 0.0
C56 C 0.55393 0.06035 0.03455 0.0
C57 C 0.54452 0.94149 0.93737 0.0
C58 C 0.44602 0.92786 0.93233 0.0
C59 C 0.35186 0.97345 0.97638 0.0
C60 C 0.35554 0.03273 0.02464 0.0
C61 C 0.45004 0.98681 0.98083 0.0
C62 C 0.45946 0.10566 0.07801 0.0
C63 C 0.55795 0.1193 0.08304 0.0
H64 H 0.43252 0.34444 0.01703 0.0
H65 H 0.22604 0.43409 0.99336 0.0
H66 H 0.37824 0.59014 0.99202 0.0
H67 H 0.57145 0.70271 0.99835 0.0
H68 H 0.77793 0.61306 0.02201 0.0
H69 H 0.62573 0.45702 0.02336 0.0
C70 C 0.4207 0.39814 0.0108 0.0
C71 C 0.31802 0.3772 1.00575 0.0
C72 C 0.50924 0.48841 0.01086 0.0
C73 C 0.30449 0.44791 0.99847 0.0
C74 C 0.3916 0.53751 0.99762 0.0
C75 C 0.58328 0.64902 1.00457 0.0
C76 C 0.68596 0.66996 0.00963 0.0
C77 C 0.49473 0.55874 1.00452 0.0
C78 C 0.69948 0.59925 0.01691 0.0
C79 C 0.61238 0.50965 0.01776 0.0
H80 H 0.91442 0.89117 0.64828 0.0
H81 H 0.11941 0.17587 0.70224 0.0
H82 H 0.13352 0.20827 0.53084 0.0
H83 H 0.08955 0.15599 0.3671 0.0
H84 H 0.88457 0.87129 0.31314 0.0
H85 H 0.87045 0.83889 0.48454 0.0
C86 C 0.96121 0.96045 0.62234 0.0
C87 C 0.01529 0.03097 0.68809 0.0
C88 C 0.97054 0.97862 0.52448 0.0
C89 C 0.07646 0.12023 0.65322 0.0
C90 C 0.08518 0.13885 0.55543 0.0
C91 C 0.04276 0.0867 0.39303 0.0
C92 C 0.98869 1.01618 0.32729 0.0
C93 C 0.03343 0.06854 0.4909 0.0
C94 C 0.92751 0.92692 0.36216 0.0
C95 C 0.91879 0.9083 0.45995 0.0
loop_
_geom_bond_atom_site_label_1
_geom_bond_atom_site_label_2
_geom_bond_distance
_geom_bond_site_symmetry_2
_ccdc_geom_bond_type
Co0 H3 2.400 1_556 S
Co0 O4 2.009 1_556 S
Co0 O12 2.115 1_455 S
Co0 O13 2.315 1_556 S
Co0 O24 2.053 . S
Co0 O27 2.094 1_455 S
Co0 O30 2.122 1_455 S
Co1 O4 2.126 1_655 S
Co1 H5 2.388 1_564 S
Co1 O6 2.053 1_564 S
Co1 O9 2.047 1_554 S
Co1 O15 2.113 . S
Co1 O26 2.063 . S
Co2 H3 2.388 1_546 S
Co2 O4 2.053 1_546 S
Co2 O6 2.126 1_455 S
Co2 O11 2.063 . S
Co2 O25 2.047 1_556 S
Co2 O31 2.113 . S
H3 Co0 2.400 1_554 S
H3 Co2 2.388 1_564 S
H3 O4 0.760 . S
O4 Co0 2.009 1_554 S
O4 Co1 2.126 1_455 S
O4 Co2 2.053 1_564 S
O4 H3 0.760 . S
H5 Co1 2.388 1_546 S
H5 O6 0.760 . S
H5 Co7 2.400 1_556 S
O6 Co1 2.053 1_546 S
O6 Co2 2.126 1_655 S
O6 H5 0.760 . S
O6 Co7 2.009 1_556 S
Co7 H5 2.400 1_554 S
Co7 O6 2.009 1_554 S
Co7 O8 2.053 . S
Co7 O10 2.094 1_655 S
Co7 O14 2.122 1_655 S
Co7 O28 2.115 1_655 S
Co7 O29 2.315 1_554 S
O8 Co7 2.053 . S
O8 C20 1.259 . S
O9 Co1 2.047 1_556 S
O9 C20 1.257 1_566 S
O10 Co7 2.094 1_455 S
O10 C21 1.253 . S
O11 Co2 2.063 . S
O11 C21 1.268 1_556 S
O12 Co0 2.115 1_655 S
O12 C22 1.281 1_556 S
O13 Co0 2.315 1_554 S
O13 C22 1.252 1_455 S
O14 Co7 2.122 1_455 S
O14 C23 1.272 1_455 S
O15 Co1 2.113 . S
O15 C23 1.245 1_565 S
C16 O24 1.259 . S
C16 O25 1.257 1_566 S
C17 O26 1.268 1_556 S
C17 O27 1.253 . S
C18 O28 1.281 1_556 S
C18 O29 1.252 1_455 S
C19 O30 1.272 1_455 S
C19 O31 1.245 1_565 S
C20 O8 1.259 . S
C20 O9 1.257 1_544 S
C21 O10 1.253 . S
C21 O11 1.268 1_554 S
C22 O12 1.281 1_554 S
C22 O13 1.252 1_655 S
C23 O14 1.272 1_655 S
C23 O15 1.245 1_545 S
O24 Co0 2.053 . S
O24 C16 1.259 . S
O25 Co2 2.047 1_554 S
O25 C16 1.257 1_544 S
O26 Co1 2.063 . S
O26 C17 1.268 1_554 S
O27 Co0 2.094 1_655 S
O27 C17 1.253 . S
O28 Co7 2.115 1_455 S
O28 C18 1.281 1_554 S
O29 Co7 2.315 1_556 S
O29 C18 1.252 1_655 S
O30 Co0 2.122 1_655 S
O30 C19 1.272 1_655 S
O31 Co2 2.113 . S
O31 C19 1.245 1_545 S
H32 C38 0.930 . S
H33 C41 0.930 . S
H34 C42 0.930 . S
H35 C43 0.930 . S
H36 C46 0.930 . S
H37 C47 0.930 . S
C38 H32 0.930 . S
C38 C39 1.355 1_554 S
C38 C40 1.415 . S
C39 C38 1.355 1_556 S
C39 C41 1.419 1_455 S
C40 C38 1.415 . S
C40 C45 1.425 1_454 S
C40 C47 1.409 . S
C41 H33 0.930 . S
C41 C39 1.419 1_655 S
C41 C42 1.362 . S
C42 H34 0.930 . S
C42 C41 1.362 . S
C42 C45 1.409 . S
C43 H35 0.930 . S
C43 C44 1.355 1_556 S
C43 C45 1.415 . S
C44 C43 1.355 1_554 S
C44 C46 1.419 1_655 S
C45 C40 1.425 1_656 S
C45 C42 1.409 . S
C45 C43 1.415 . S
C46 H36 0.930 . S
C46 C44 1.419 1_455 S
C46 C47 1.362 . S
C47 H37 0.930 . S
C47 C40 1.409 . S
C47 C46 1.362 . S
H48 C54 0.930 . S
H49 C57 0.930 . S
H50 C58 0.930 . S
H51 C59 0.930 . S
H52 C62 0.930 . S
H53 C63 0.930 . S
C54 H48 0.930 . S
C54 C55 1.357 . S
C54 C56 1.415 . S
C55 C54 1.357 . S
C55 C57 1.418 1_564 S
C56 C54 1.415 . S
C56 C61 1.425 1_564 S
C56 C63 1.409 . S
C57 H49 0.930 . S
C57 C55 1.418 1_546 S
C57 C58 1.362 . S
C58 H50 0.930 . S
C58 C57 1.362 . S
C58 C61 1.409 . S
C59 H51 0.930 . S
C59 C60 1.354 . S
C59 C61 1.415 . S
C60 C59 1.354 . S
C60 C62 1.420 1_546 S
C61 C56 1.425 1_546 S
C61 C58 1.409 . S
C61 C59 1.415 . S
C62 H52 0.930 . S
C62 C60 1.420 1_564 S
C62 C63 1.362 . S
C63 H53 0.930 . S
C63 C56 1.409 . S
C63 C62 1.362 . S
H64 C70 0.930 . S
H65 C73 0.930 . S
H66 C74 0.930 . S
H67 C75 0.930 . S
H68 C78 0.930 . S
H69 C79 0.930 . S
C70 H64 0.930 . S
C70 C71 1.355 . S
C70 C72 1.415 . S
C71 C70 1.355 . S
C71 C73 1.419 1_554 S
C72 C70 1.415 . S
C72 C77 1.425 1_554 S
C72 C79 1.409 . S
C73 H65 0.930 . S
C73 C71 1.419 1_556 S
C73 C74 1.362 . S
C74 H66 0.930 . S
C74 C73 1.362 . S
C74 C77 1.409 . S
C75 H67 0.930 . S
C75 C76 1.355 . S
C75 C77 1.415 . S
C76 C75 1.355 . S
C76 C78 1.419 1_556 S
C77 C72 1.425 1_556 S
C77 C74 1.409 . S
C77 C75 1.415 . S
C78 H68 0.930 . S
C78 C76 1.419 1_554 S
C78 C79 1.362 . S
C79 H69 0.930 . S
C79 C72 1.409 . S
C79 C78 1.362 . S
H80 C86 0.930 . S
H81 C89 0.930 . S
H82 C90 0.930 . S
H83 C91 0.930 . S
H84 C94 0.930 . S
H85 C95 0.930 . S
C86 H80 0.930 . S
C86 C87 1.353 1_665 S
C86 C88 1.415 . S
C87 C86 1.353 1_445 S
C87 C89 1.418 . S
C88 C86 1.415 . S
C88 C93 1.425 1_665 S
C88 C95 1.409 . S
C89 H81 0.930 . S
C89 C87 1.418 . S
C89 C90 1.362 . S
C90 H82 0.930 . S
C90 C89 1.362 . S
C90 C93 1.409 . S
C91 H83 0.930 . S
C91 C92 1.354 1_445 S
C91 C93 1.415 . S
C92 C91 1.354 1_665 S
C92 C94 1.418 . S
C93 C88 1.425 1_445 S
C93 C90 1.409 . S
C93 C91 1.415 . S
C94 H84 0.930 . S
C94 C92 1.418 . S
C94 C95 1.362 . S
C95 H85 0.930 . S
C95 C88 1.409 . S
C95 C94 1.362 . S
C39 C18 1.623 . S
C44 C22 1.623 . S
C55 C20 1.080 1_565 S
C60 C16 1.081 1_545 S
C71 C21 1.691 . S
C76 C17 1.691 . S
C87 C19 1.443 1_545 S
C92 C23 1.442 1_565 S
