# Generated by pormake.
# Topology sxc, (6)-cn, num edge types: 1
# Building blocks:
#     Node 0, Type 0, BuildingBlock: MIFKUJ_clean_sbu_0, # of connection points: 6
#     Node 1, Type 0, BuildingBlock: MIFKUJ_clean_sbu_0, # of connection points: 6
#     Node 2, Type 0, BuildingBlock: MIFKUJ_clean_sbu_0, # of connection points: 6
#     Edge 3, Type (0, 0), BuildingBlock: CIFDUS_clean_linker_0, # of connection points: 2
#     Edge 4, Type (0, 0), BuildingBlock: CIFDUS_clean_linker_0, # of connection points: 2
#     Edge 5, Type (0, 0), BuildingBlock: CIFDUS_clean_linker_0, # of connection points: 2
#     Edge 6, Type (0, 0), BuildingBlock: CIFDUS_clean_linker_0, # of connection points: 2
#     Edge 7, Type (0, 0), BuildingBlock: CIFDUS_clean_linker_0, # of connection points: 2
#     Edge 8, Type (0, 0), BuildingBlock: CIFDUS_clean_linker_0, # of connection points: 2
#     Edge 9, Type (0, 0), BuildingBlock: CIFDUS_clean_linker_0, # of connection points: 2
#     Edge 10, Type (0, 0), BuildingBlock: CIFDUS_clean_linker_0, # of connection points: 2
#     Edge 11, Type (0, 0), BuildingBlock: CIFDUS_clean_linker_0, # of connection points: 2
# Relax obj value: 0.016
# Max RMSD: 0.065
# Mean RMSD: 0.047
data_MOF--net-sxc--node1-MIFKUJ_clean_sbu_0--edge1-CIFDUS_clean_linker_0
_symmetry_space_group_name_H-M    P1
_symmetry_Int_Tables_number       1
_symmetry_cell_setting            triclinic
loop_
_symmetry_equiv_pos_as_xyz
'x, y, z'
_cell_length_a     16.627684
_cell_length_b     15.847451
_cell_length_c     36.579043
_cell_angle_alpha  91.620997
_cell_angle_beta   98.667649
_cell_angle_gamma 117.14739
loop_
_atom_site_label
_atom_site_type_symbol
_atom_site_fract_x
_atom_site_fract_y
_atom_site_fract_z
_atom_type_partial_charge
Zn0 Zn 0.96618 0.87783 0.00024 0.0
Zn1 Zn 0.14295 0.15844 0.01108 0.0
C2 C 0.95161 0.69551 0.97748 0.0
O3 O 0.90013 0.69983 0.94734 0.0
C4 C 0.08844 0.29145 0.03483 0.0
O5 O 0.14241 0.29361 0.06544 0.0
O6 O 0.82973 0.8219 0.99307 0.0
O7 O 0.02042 0.94715 0.05165 0.0
O8 O 0.12638 0.09856 0.05823 0.0
C9 C 0.79654 0.76863 0.0179 0.0
O10 O 0.85329 0.76439 0.0461 0.0
O11 O -0.01116 0.76481 0.00305 0.0
C12 C 0.29925 0.32672 0.00042 0.0
O13 O 0.2385 0.33106 0.97409 0.0
O14 O 0.27443 0.25619 0.0194 0.0
O15 O 0.11552 0.08554 0.96155 0.0
O16 O 0.01008 0.93336 0.95406 0.0
O17 O 0.07326 0.23327 0.00694 0.0
C18 C 0.0787 0.02303 0.07196 0.0
C19 C 0.06605 0.00681 0.94134 0.0
Zn20 Zn 0.11872 0.02102 0.34154 0.0
Zn21 Zn 0.93646 0.10171 0.33594 0.0
C22 C 0.09048 0.83301 0.34067 0.0
O23 O 0.16037 0.87757 0.36828 0.0
C24 C 0.96703 0.28401 0.31277 0.0
O25 O 0.88517 0.23224 0.29228 0.0
O26 O 0.2525 0.06253 0.34472 0.0
O27 O 0.08496 0.09461 0.30413 0.0
O28 O 0.93525 0.02584 0.2909 0.0
C29 C 0.27659 0.03997 0.3162 0.0
O30 O 0.21427 -0.00329 0.28602 0.0
O31 O 0.05471 0.8802 0.32372 0.0
C32 C 0.78916 0.11299 0.36213 0.0
O33 O 0.85539 0.16489 0.39018 0.0
O34 O 0.80707 0.0748 0.33565 0.0
O35 O -0.01565 0.07866 0.3864 0.0
O36 O 0.09551 0.03576 0.39304 0.0
O37 O 0.00556 0.24258 0.33217 0.0
C38 C 0.01104 0.04386 0.28137 0.0
C39 C 0.04029 0.05728 0.40645 0.0
Zn40 Zn 0.07988 0.05369 0.65768 0.0
Zn41 Zn 0.79572 0.8757 0.6543 0.0
C42 C 0.23491 0.02957 0.65852 0.0
O43 O 0.26079 0.09731 0.68589 0.0
C44 C 0.64842 0.91858 0.63689 0.0
O45 O 0.62126 0.84406 0.6125 0.0
O46 O 0.15414 0.19619 0.65682 0.0
O47 O 0.95129 -0.00717 0.63312 0.0
O48 O 0.82602 0.87937 0.60225 0.0
C49 C 0.19765 0.2235 0.63007 0.0
O50 O 0.18113 0.16016 0.60225 0.0
O51 O 0.15277 -0.00717 0.64056 0.0
C52 C 0.6534 0.7227 0.68343 0.0
O53 O 0.67151 0.79117 0.70938 0.0
O54 O 0.703 0.74047 0.65853 0.0
O55 O 0.90991 0.9285 0.69753 0.0
O56 O 0.06227 0.02143 0.70932 0.0
O57 O 0.72669 0.95086 0.65797 0.0
C58 C 0.90765 0.94221 0.60269 0.0
C59 C -0.01271 0.96737 0.72016 0.0
H60 H -0.00235 0.32235 0.97264 0.0
H61 H 0.11075 0.42654 0.08874 0.0
H62 H 0.07592 0.55943 0.08121 0.0
H63 H 0.02188 0.65077 0.0411 0.0
H64 H 0.90928 0.54819 0.92493 0.0
H65 H 0.93561 0.40958 0.93312 0.0
C66 C 0.01377 0.3735 -0.00359 0.0
C67 C 0.05731 0.36489 0.03114 0.0
C68 C -0.00543 0.45041 0.99181 0.0
C69 C 0.0776 0.43171 0.06165 0.0
C70 C 0.05799 0.50792 0.05736 0.0
C71 C 0.00307 0.59815 0.01752 0.0
C72 C 0.96468 0.61022 0.98236 0.0
C73 C 0.01812 0.51887 0.02244 0.0
C74 C 0.93937 0.54069 0.95225 0.0
C75 C 0.95438 0.46147 0.95691 0.0
H76 H 0.41609 0.11293 0.37594 0.0
H77 H 0.34797 -0.00605 0.26108 0.0
H78 H 0.50018 0.00448 0.26554 0.0
H79 H 0.6511 0.04479 0.30219 0.0
H80 H 0.7204 0.16516 0.41685 0.0
H81 H 0.56847 0.1561 0.41233 0.0
C82 C 0.43468 0.08983 0.3518 0.0
C83 C 0.37076 0.05262 0.31825 0.0
C84 C 0.52206 0.0956 0.35459 0.0
C85 C 0.39589 0.0229 0.28725 0.0
C86 C 0.4828 0.02861 0.28979 0.0
C87 C 0.6329 0.06864 0.32627 0.0
C88 C 0.69666 0.1051 0.35986 0.0
C89 C 0.54606 0.06412 0.32338 0.0
C90 C 0.6724 0.13665 0.39069 0.0
C91 C 0.58566 0.13163 0.38812 0.0
H92 H 0.5637 0.59467 0.62197 0.0
H93 H 0.55005 0.64656 0.73674 0.0
H94 H 0.40434 0.49974 0.72985 0.0
H95 H 0.28182 0.35532 0.69132 0.0
H96 H 0.2956 0.30601 0.57626 0.0
H97 H 0.43933 0.45394 0.58306 0.0
C98 C 0.52933 0.57346 0.6456 0.0
C99 C 0.56826 0.6309 0.67995 0.0
C100 C 0.4449 0.49001 0.64126 0.0
C101 C 0.52185 0.60328 0.71006 0.0
C102 C 0.43833 0.51954 0.7061 0.0
C103 C 0.31558 0.37757 0.66759 0.0
C104 C 0.27784 0.31944 0.63333 0.0
C105 C 0.39906 0.46242 0.67179 0.0
C106 C 0.32301 0.34918 0.60297 0.0
C107 C 0.40555 0.43362 0.60686 0.0
H108 H 0.47067 0.85097 0.60229 0.0
H109 H 0.68193 0.07106 0.68487 0.0
H110 H 0.57257 0.12542 0.69814 0.0
H111 H 0.41617 0.10647 0.68821 0.0
H112 H 0.20394 0.88589 0.60614 0.0
H113 H 0.31488 0.83558 0.5908 0.0
C114 C 0.49311 0.91136 0.62298 0.0
C115 C 0.58438 0.95668 0.64263 0.0
C116 C 0.42962 0.94163 0.63077 0.0
C117 C 0.61212 0.03476 0.66937 0.0
C118 C 0.54956 0.06575 0.67706 0.0
C119 C 0.39396 0.04733 0.66694 0.0
C120 C 0.30167 -0.00053 0.64857 0.0
C121 C 0.45795 0.01893 0.65828 0.0
C122 C 0.27444 0.92361 0.62085 0.0
C123 C 0.33786 0.89488 0.61204 0.0
H124 H 0.71385 0.62229 0.05774 0.0
H125 H 0.65805 0.76102 0.96458 0.0
H126 H 0.49772 0.63684 0.95135 0.0
H127 H 0.37598 0.48473 0.96453 0.0
H128 H 0.43561 0.34465 0.05655 0.0
H129 H 0.59252 0.47365 0.07173 0.0
C130 C 0.66653 0.62616 0.03477 0.0
C131 C 0.69774 0.70063 0.01216 0.0
C132 C 0.57552 0.55374 0.02685 0.0
C133 C 0.63559 0.70426 0.9824 0.0
C134 C 0.54409 0.63314 0.97473 0.0
C135 C 0.42329 0.48248 0.98791 0.0
C136 C 0.39428 0.40494 0.00922 0.0
C137 C 0.51375 0.55673 -0.00357 0.0
C138 C 0.4563 0.40319 0.03952 0.0
C139 C 0.54601 0.47706 0.04833 0.0
H140 H 0.89187 0.39368 0.28324 0.0
H141 H 0.13317 0.41115 0.35379 0.0
H142 H 0.19287 0.58266 0.36776 0.0
H143 H 0.17311 0.7257 0.36279 0.0
H144 H 0.9327 0.71038 0.29252 0.0
H145 H 0.87605 0.53964 0.27562 0.0
C146 C 0.95801 0.43511 0.30135 0.0
C147 C 0.00768 0.38933 0.3176 0.0
C148 C -0.00834 0.53382 0.30961 0.0
C149 C 0.0933 0.44429 0.34098 0.0
C150 C 0.12742 0.54242 0.3491 0.0
C151 C 0.10826 0.68517 0.34376 0.0
C152 C 0.05669 0.73047 0.32927 0.0
C153 C 0.07646 0.58753 0.33411 0.0
C154 C 0.97348 0.67709 0.30423 0.0
C155 C 0.94111 0.57951 0.29455 0.0
H156 H 0.15445 0.12433 0.24517 0.0
H157 H 0.87222 0.90559 0.23062 0.0
H158 H 0.87178 0.87213 0.1649 0.0
H159 H 0.9475 0.91465 0.11064 0.0
H160 H 0.2259 0.14181 0.12462 0.0
H161 H 0.23237 0.16162 0.19163 0.0
C162 C 0.0932 0.06849 0.22773 0.0
C163 C 0.01335 0.01783 0.24262 0.0
C164 C 0.09272 0.05145 0.18985 0.0
C165 C 0.93434 0.94609 0.21966 0.0
C166 C 0.93406 0.92689 0.18212 0.0
C167 C 0.01007 0.96736 0.12846 0.0
C168 C 0.08605 0.02677 0.11275 0.0
C169 C 0.01226 0.9805 0.16676 0.0
C170 C 0.16634 0.09557 0.13608 0.0
C171 C 0.17006 0.10703 0.17436 0.0
H172 H 0.01136 0.9097 0.44689 0.0
H173 H 0.06253 0.2023 0.45433 0.0
H174 H 0.04067 0.1963 0.51911 0.0
H175 H -0.01133 0.10199 0.57072 0.0
H176 H 0.91541 0.8033 0.56025 0.0
H177 H 0.96469 0.81656 0.49979 0.0
C178 C 0.01938 0.97234 0.46312 0.0
C179 C 0.03904 0.05647 0.44642 0.0
C180 C 0.00194 0.96665 0.49959 0.0
C181 C 0.04762 0.13705 0.46703 0.0
C182 C 0.0349 0.13349 0.50389 0.0
C183 C -0.01428 0.04062 0.55544 0.0
C184 C 0.94995 0.95224 0.56967 0.0
C185 C 0.0095 0.04794 0.52008 0.0
C186 C 0.94363 0.87211 0.54959 0.0
C187 C 0.97139 0.87969 0.51509 0.0
H188 H 0.12865 0.06993 0.777 0.0
H189 H 0.85172 0.83782 0.75335 0.0
H190 H 0.85458 0.82425 0.81992 0.0
H191 H 0.93298 0.88441 0.88491 0.0
H192 H 0.20642 0.12276 0.90784 0.0
H193 H 0.20791 0.12704 0.84132 0.0
C194 C 0.06903 0.01574 0.78629 0.0
C195 C -0.01004 0.9552 0.7602 0.0
C196 C 0.07053 0.00954 0.82449 0.0
C197 C 0.91327 0.88578 0.77285 0.0
C198 C 0.9149 0.87788 0.8109 0.0
C199 C -0.0067 0.93648 0.87533 0.0
C200 C 0.06946 0.00321 0.90125 0.0
C201 C -0.00722 0.94021 0.83698 0.0
C202 C 0.14677 0.07091 0.88843 0.0
C203 C 0.14767 0.07347 0.85042 0.0
loop_
_geom_bond_atom_site_label_1
_geom_bond_atom_site_label_2
_geom_bond_distance
_geom_bond_site_symmetry_2
_ccdc_geom_bond_type
Zn0 O6 1.969 1_554 S
Zn0 O7 1.965 . S
Zn0 O11 2.024 1_655 S
Zn0 O16 1.969 1_554 S
Zn1 O8 1.969 . S
Zn1 O14 1.969 . S
Zn1 O15 1.965 1_554 S
Zn1 O17 2.024 1_554 S
C2 O3 1.220 1_454 S
C2 O11 1.067 . S
O3 C2 1.220 1_656 S
C4 O5 1.229 . S
C4 O17 1.058 1_554 S
O5 C4 1.229 . S
O6 Zn0 1.969 1_556 S
O6 C9 1.267 1_556 S
O7 Zn0 1.965 . S
O7 C18 1.260 1_665 S
O8 Zn1 1.969 . S
O8 C18 1.258 . S
C9 O6 1.267 1_554 S
C9 O10 1.228 . S
O10 C9 1.228 . S
O11 Zn0 2.024 1_455 S
O11 C2 1.067 . S
C12 O13 1.228 1_554 S
C12 O14 1.267 . S
O13 C12 1.228 1_556 S
O14 Zn1 1.969 . S
O14 C12 1.267 . S
O15 Zn1 1.965 1_556 S
O15 C19 1.260 . S
O16 Zn0 1.969 1_556 S
O16 C19 1.258 1_665 S
O17 Zn1 2.024 1_556 S
O17 C4 1.058 1_556 S
C18 O7 1.260 1_445 S
C18 O8 1.258 . S
C19 O15 1.260 . S
C19 O16 1.258 1_445 S
Zn20 O26 1.969 1_565 S
Zn20 O27 1.965 1_565 S
Zn20 O31 2.024 . S
Zn20 O36 1.969 . S
Zn21 O28 1.969 . S
Zn21 O34 1.969 . S
Zn21 O35 1.965 . S
Zn21 O37 2.024 1_655 S
C22 O23 1.229 . S
C22 O31 1.058 . S
O23 C22 1.229 . S
C24 O25 1.229 . S
C24 O37 1.058 1_655 S
O25 C24 1.229 . S
O26 Zn20 1.969 1_545 S
O26 C29 1.267 . S
O27 Zn20 1.965 1_545 S
O27 C38 1.260 . S
O28 Zn21 1.969 . S
O28 C38 1.258 1_655 S
C29 O26 1.267 . S
C29 O30 1.228 1_545 S
O30 C29 1.228 1_565 S
O31 Zn20 2.024 . S
O31 C22 1.058 . S
C32 O33 1.228 . S
C32 O34 1.267 . S
O33 C32 1.228 . S
O34 Zn21 1.969 . S
O34 C32 1.267 . S
O35 Zn21 1.965 . S
O35 C39 1.260 1_655 S
O36 Zn20 1.969 . S
O36 C39 1.258 1_565 S
O37 Zn21 2.024 1_455 S
O37 C24 1.058 1_455 S
C38 O27 1.260 . S
C38 O28 1.258 1_455 S
C39 O35 1.260 1_455 S
C39 O36 1.258 1_545 S
Zn40 O46 1.969 . S
Zn40 O47 1.965 . S
Zn40 O51 2.024 . S
Zn40 O56 1.969 . S
Zn41 O48 1.969 . S
Zn41 O54 1.969 . S
Zn41 O55 1.965 . S
Zn41 O57 2.024 1_565 S
C42 O43 1.229 . S
C42 O51 1.058 . S
O43 C42 1.229 . S
C44 O45 1.229 1_545 S
C44 O57 1.058 . S
O45 C44 1.229 1_565 S
O46 Zn40 1.969 . S
O46 C49 1.267 . S
O47 Zn40 1.965 . S
O47 C58 1.260 . S
O48 Zn41 1.969 . S
O48 C58 1.258 1_665 S
C49 O46 1.267 . S
C49 O50 1.228 . S
O50 C49 1.228 . S
O51 Zn40 2.024 . S
O51 C42 1.058 . S
C52 O53 1.228 . S
C52 O54 1.267 . S
O53 C52 1.228 . S
O54 Zn41 1.969 . S
O54 C52 1.267 . S
O55 Zn41 1.965 . S
O55 C59 1.260 1_665 S
O56 Zn40 1.969 . S
O56 C59 1.258 . S
O57 Zn41 2.024 1_545 S
O57 C44 1.058 . S
C58 O47 1.260 . S
C58 O48 1.258 1_445 S
C59 O55 1.260 1_445 S
C59 O56 1.258 . S
H60 C66 0.930 1_655 S
H61 C69 0.930 . S
H62 C70 0.930 . S
H63 C71 0.930 . S
H64 C74 0.930 1_655 S
H65 C75 0.930 . S
C66 H60 0.930 1_455 S
C66 C67 1.355 1_556 S
C66 C68 1.415 . S
C67 C66 1.355 1_554 S
C67 C69 1.419 . S
C68 C66 1.415 . S
C68 C73 1.425 1_556 S
C68 C75 1.409 1_455 S
C69 H61 0.930 . S
C69 C67 1.419 . S
C69 C70 1.362 . S
C70 H62 0.930 . S
C70 C69 1.362 . S
C70 C73 1.409 . S
C71 H63 0.930 . S
C71 C72 1.355 . S
C71 C73 1.415 . S
C72 C71 1.355 . S
C72 C74 1.419 1_554 S
C73 C68 1.425 1_554 S
C73 C70 1.409 . S
C73 C71 1.415 . S
C74 H64 0.930 1_455 S
C74 C72 1.419 1_556 S
C74 C75 1.362 1_455 S
C75 H65 0.930 . S
C75 C68 1.409 1_655 S
C75 C74 1.362 1_655 S
H76 C82 0.930 1_565 S
H77 C85 0.930 . S
H78 C86 0.930 . S
H79 C87 0.930 . S
H80 C90 0.930 . S
H81 C91 0.930 . S
C82 H76 0.930 1_545 S
C82 C83 1.355 . S
C82 C84 1.415 . S
C83 C82 1.355 . S
C83 C85 1.419 . S
C84 C82 1.415 . S
C84 C89 1.425 . S
C84 C91 1.409 1_545 S
C85 H77 0.930 . S
C85 C83 1.419 . S
C85 C86 1.362 . S
C86 H78 0.930 . S
C86 C85 1.362 . S
C86 C89 1.409 . S
C87 H79 0.930 . S
C87 C88 1.355 . S
C87 C89 1.415 . S
C88 C87 1.355 . S
C88 C90 1.419 1_545 S
C89 C84 1.425 . S
C89 C86 1.409 . S
C89 C87 1.415 . S
C90 H80 0.930 . S
C90 C88 1.419 1_565 S
C90 C91 1.362 . S
C91 H81 0.930 . S
C91 C84 1.409 1_565 S
C91 C90 1.362 . S
H92 C98 0.930 . S
H93 C101 0.930 . S
H94 C102 0.930 . S
H95 C103 0.930 . S
H96 C106 0.930 . S
H97 C107 0.930 . S
C98 H92 0.930 . S
C98 C99 1.355 . S
C98 C100 1.415 . S
C99 C98 1.355 . S
C99 C101 1.419 . S
C100 C98 1.415 . S
C100 C105 1.425 . S
C100 C107 1.409 . S
C101 H93 0.930 . S
C101 C99 1.419 . S
C101 C102 1.362 . S
C102 H94 0.930 . S
C102 C101 1.362 . S
C102 C105 1.409 . S
C103 H95 0.930 . S
C103 C104 1.355 . S
C103 C105 1.415 . S
C104 C103 1.355 . S
C104 C106 1.419 . S
C105 C100 1.425 . S
C105 C102 1.409 . S
C105 C103 1.415 . S
C106 H96 0.930 . S
C106 C104 1.419 . S
C106 C107 1.362 . S
C107 H97 0.930 . S
C107 C100 1.409 . S
C107 C106 1.362 . S
H108 C114 0.930 . S
H109 C117 0.930 . S
H110 C118 0.930 1_565 S
H111 C119 0.930 1_565 S
H112 C122 0.930 . S
H113 C123 0.930 . S
C114 H108 0.930 . S
C114 C115 1.355 . S
C114 C116 1.415 . S
C115 C114 1.355 . S
C115 C117 1.419 . S
C116 C114 1.415 . S
C116 C121 1.425 . S
C116 C123 1.409 . S
C117 H109 0.930 . S
C117 C115 1.419 . S
C117 C118 1.362 . S
C118 H110 0.930 1_545 S
C118 C117 1.362 . S
C118 C121 1.409 . S
C119 H111 0.930 1_545 S
C119 C120 1.355 . S
C119 C121 1.415 . S
C120 C119 1.355 . S
C120 C122 1.419 . S
C121 C116 1.425 . S
C121 C118 1.409 . S
C121 C119 1.415 . S
C122 H112 0.930 . S
C122 C120 1.419 . S
C122 C123 1.362 . S
C123 H113 0.930 . S
C123 C116 1.409 . S
C123 C122 1.362 . S
H124 C130 0.930 . S
H125 C133 0.930 . S
H126 C134 0.930 . S
H127 C135 0.930 . S
H128 C138 0.930 . S
H129 C139 0.930 . S
C130 H124 0.930 . S
C130 C131 1.355 . S
C130 C132 1.415 . S
C131 C130 1.355 . S
C131 C133 1.419 1_554 S
C132 C130 1.415 . S
C132 C137 1.425 1_554 S
C132 C139 1.409 . S
C133 H125 0.930 . S
C133 C131 1.419 1_556 S
C133 C134 1.362 . S
C134 H126 0.930 . S
C134 C133 1.362 . S
C134 C137 1.409 . S
C135 H127 0.930 . S
C135 C136 1.355 1_556 S
C135 C137 1.415 . S
C136 C135 1.355 1_554 S
C136 C138 1.419 . S
C137 C132 1.425 1_556 S
C137 C134 1.409 . S
C137 C135 1.415 . S
C138 H128 0.930 . S
C138 C136 1.419 . S
C138 C139 1.362 . S
C139 H129 0.930 . S
C139 C132 1.409 . S
C139 C138 1.362 . S
H140 C146 0.930 . S
H141 C149 0.930 . S
H142 C150 0.930 . S
H143 C151 0.930 . S
H144 C154 0.930 . S
H145 C155 0.930 . S
C146 H140 0.930 . S
C146 C147 1.355 1_655 S
C146 C148 1.415 . S
C147 C146 1.355 1_455 S
C147 C149 1.419 . S
C148 C146 1.415 . S
C148 C153 1.425 1_655 S
C148 C155 1.409 . S
C149 H141 0.930 . S
C149 C147 1.419 . S
C149 C150 1.362 . S
C150 H142 0.930 . S
C150 C149 1.362 . S
C150 C153 1.409 . S
C151 H143 0.930 . S
C151 C152 1.355 1_455 S
C151 C153 1.415 . S
C152 C151 1.355 1_655 S
C152 C154 1.419 . S
C153 C148 1.425 1_455 S
C153 C150 1.409 . S
C153 C151 1.415 . S
C154 H144 0.930 . S
C154 C152 1.419 . S
C154 C155 1.362 . S
C155 H145 0.930 . S
C155 C148 1.409 . S
C155 C154 1.362 . S
H156 C162 0.930 . S
H157 C165 0.930 . S
H158 C166 0.930 . S
H159 C167 0.930 . S
H160 C170 0.930 . S
H161 C171 0.930 . S
C162 H156 0.930 . S
C162 C163 1.355 . S
C162 C164 1.415 . S
C163 C162 1.355 . S
C163 C165 1.419 1_445 S
C164 C162 1.415 . S
C164 C169 1.425 1_445 S
C164 C171 1.409 . S
C165 H157 0.930 . S
C165 C163 1.419 1_665 S
C165 C166 1.362 . S
C166 H158 0.930 . S
C166 C165 1.362 . S
C166 C169 1.409 . S
C167 H159 0.930 . S
C167 C168 1.355 1_665 S
C167 C169 1.415 . S
C168 C167 1.355 1_445 S
C168 C170 1.419 . S
C169 C164 1.425 1_665 S
C169 C166 1.409 . S
C169 C167 1.415 . S
C170 H160 0.930 . S
C170 C168 1.419 . S
C170 C171 1.362 . S
C171 H161 0.930 . S
C171 C164 1.409 . S
C171 C170 1.362 . S
H172 C178 0.930 . S
H173 C181 0.930 . S
H174 C182 0.930 . S
H175 C183 0.930 . S
H176 C186 0.930 . S
H177 C187 0.930 . S
C178 H172 0.930 . S
C178 C179 1.355 1_465 S
C178 C180 1.416 . S
C179 C178 1.355 1_645 S
C179 C181 1.418 . S
C180 C178 1.416 . S
C180 C185 1.416 1_465 S
C180 C187 1.416 . S
C181 H173 0.930 . S
C181 C179 1.418 . S
C181 C182 1.362 . S
C182 H174 0.930 . S
C182 C181 1.362 . S
C182 C185 1.409 . S
C183 H175 0.930 . S
C183 C184 1.355 1_655 S
C183 C185 1.415 . S
C184 C183 1.355 1_455 S
C184 C186 1.419 1_545 S
C185 C180 1.416 1_645 S
C185 C182 1.409 . S
C185 C183 1.415 . S
C186 H176 0.930 . S
C186 C184 1.419 1_565 S
C186 C187 1.362 . S
C187 H177 0.930 . S
C187 C180 1.416 . S
C187 C186 1.362 . S
H188 C194 0.930 . S
H189 C197 0.930 . S
H190 C198 0.930 . S
H191 C199 0.930 . S
H192 C202 0.930 . S
H193 C203 0.930 . S
C194 H188 0.930 . S
C194 C195 1.355 . S
C194 C196 1.415 . S
C195 C194 1.355 . S
C195 C197 1.419 1_445 S
C196 C194 1.415 . S
C196 C201 1.425 1_545 S
C196 C203 1.409 . S
C197 H189 0.930 . S
C197 C195 1.419 1_665 S
C197 C198 1.362 . S
C198 H190 0.930 . S
C198 C197 1.362 . S
C198 C201 1.409 1_655 S
C199 H191 0.930 . S
C199 C200 1.355 1_665 S
C199 C201 1.415 1_655 S
C200 C199 1.355 1_445 S
C200 C202 1.419 . S
C201 C196 1.425 1_565 S
C201 C198 1.409 1_455 S
C201 C199 1.415 1_455 S
C202 H192 0.930 . S
C202 C200 1.419 . S
C202 C203 1.362 . S
C203 H193 0.930 . S
C203 C196 1.409 . S
C203 C202 1.362 . S
C67 C4 1.369 . S
C72 C2 1.370 . S
C83 C29 1.133 . S
C88 C32 1.133 . S
C99 C52 1.235 . S
C104 C49 1.235 . S
C115 C44 1.578 . S
C120 C42 1.578 . S
C131 C9 1.265 . S
C136 C12 1.265 . S
C147 C24 1.440 1_455 S
C152 C22 1.440 1_655 S
C163 C38 1.488 . S
C168 C18 1.480 . S
C179 C39 1.497 1_655 S
C184 C58 1.503 . S
C195 C59 1.484 . S
C200 C19 1.504 . S
