# Generated by pormake.
# Topology msw, (6)-cn, num edge types: 1
# Building blocks:
#     Node 0, Type 0, BuildingBlock: VOLQOD_clean_sbu_1, # of connection points: 6
#     Node 1, Type 0, BuildingBlock: VOLQOD_clean_sbu_1, # of connection points: 6
#     Edge 2, Type (0, 0), BuildingBlock: FUNLAD_clean_linker_0, # of connection points: 2
#     Edge 3, Type (0, 0), BuildingBlock: FUNLAD_clean_linker_0, # of connection points: 2
#     Edge 4, Type (0, 0), BuildingBlock: FUNLAD_clean_linker_0, # of connection points: 2
#     Edge 5, Type (0, 0), BuildingBlock: FUNLAD_clean_linker_0, # of connection points: 2
#     Edge 6, Type (0, 0), BuildingBlock: FUNLAD_clean_linker_0, # of connection points: 2
#     Edge 7, Type (0, 0), BuildingBlock: FUNLAD_clean_linker_0, # of connection points: 2
# Relax obj value: 0.242
# Max RMSD: 0.191
# Mean RMSD: 0.191
data_MOF--net-msw--node1-VOLQOD_clean_sbu_1--edge1-FUNLAD_clean_linker_0
_symmetry_space_group_name_H-M    P1
_symmetry_Int_Tables_number       1
_symmetry_cell_setting            triclinic
loop_
_symmetry_equiv_pos_as_xyz
'x, y, z'
_cell_length_a     24.050745
_cell_length_b     24.23903
_cell_length_c     17.253758
_cell_angle_alpha  90.325808
_cell_angle_beta   89.632076
_cell_angle_gamma 90.159601
loop_
_atom_site_label
_atom_site_type_symbol
_atom_site_fract_x
_atom_site_fract_y
_atom_site_fract_z
_atom_type_partial_charge
O0 O 0.83658 0.27156 0.38371 0.0
Zn1 Zn 0.86816 0.2762 0.27544 0.0
O2 O 0.80594 0.30097 0.21696 0.0
Zn3 Zn 0.77287 0.23739 0.174 0.0
Zn4 Zn 0.75195 0.33376 0.2832 0.0
Zn5 Zn 0.8278 0.35555 0.14428 0.0
O6 O 0.74133 0.26448 0.07629 0.0
O7 O 0.80868 0.32335 0.0396 0.0
O8 O 0.9006 0.20568 0.22622 0.0
O9 O 0.83258 0.18362 0.14528 0.0
O10 O 0.71628 0.20316 0.24937 0.0
O11 O 0.69909 0.27609 0.32393 0.0
O12 O 0.71079 0.3976 0.23136 0.0
O13 O 0.92663 0.33452 0.27278 0.0
O14 O 0.77621 0.42019 0.14619 0.0
O15 O 0.90545 0.38647 0.17091 0.0
C16 C 0.80986 0.31205 0.41382 0.0
C17 C 0.76417 0.29567 0.02582 0.0
C18 C 0.69109 0.22548 0.30695 0.0
C19 C 0.88133 0.17573 0.17125 0.0
C20 C 0.7294 0.42927 0.17828 0.0
C21 C 0.93724 0.37469 0.22775 0.0
O22 O 0.79843 0.35407 0.37291 0.0
O23 O 0.35161 0.77603 0.56067 0.0
Zn24 Zn 0.33235 0.73642 0.65634 0.0
O25 O 0.30049 0.79393 0.71672 0.0
Zn26 Zn 0.35627 0.81948 0.78602 0.0
Zn27 Zn 0.27409 0.85087 0.6519 0.0
Zn28 Zn 0.2365 0.76444 0.7627 0.0
O29 O 0.32315 0.80645 0.89302 0.0
O30 O 0.26523 0.73721 0.86104 0.0
O31 O 0.39581 0.69788 0.71232 0.0
O32 O 0.41945 0.76562 0.79227 0.0
O33 O 0.38878 0.89449 0.74656 0.0
O34 O 0.33381 0.90669 0.64466 0.0
O35 O 0.20439 0.88758 0.69972 0.0
O36 O 0.27405 0.68217 0.6221 0.0
O37 O 0.18346 0.8248 0.7882 0.0
O38 O 0.20048 0.70665 0.69207 0.0
C39 C 0.30828 0.78449 0.52033 0.0
C40 C 0.29647 0.76193 0.90977 0.0
C41 C 0.37569 0.9209 0.68495 0.0
C42 C 0.42718 0.71724 0.76536 0.0
C43 C 0.17521 0.8717 0.75776 0.0
C44 C 0.22256 0.67745 0.6383 0.0
O45 O 0.26763 0.81227 0.54859 0.0
C46 C 0.69536 0.26432 0.92772 0.0
C47 C 0.73541 0.303 0.95199 0.0
C48 C 0.66801 0.27119 0.85758 0.0
C49 C 0.68026 0.31697 0.81114 0.0
C50 C 0.71731 0.35747 0.83792 0.0
C51 C 0.74513 0.35032 0.90753 0.0
C52 C 0.66419 0.31877 0.72925 0.0
C53 C 0.67496 0.27463 0.68408 0.0
C54 C 0.70369 0.28152 0.60891 0.0
C55 C 0.74511 0.24334 0.5883 0.0
C56 C 0.78084 0.25371 0.52609 0.0
C57 C 0.77559 0.30248 0.4834 0.0
H58 H 0.66398 0.35833 0.57612 0.0
C59 C 0.73276 0.33969 0.50244 0.0
C60 C 0.69669 0.32896 0.56377 0.0
H61 H 0.72634 0.37691 0.46927 0.0
H62 H 0.68625 0.22797 0.96182 0.0
H63 H 0.63915 0.2397 0.83816 0.0
H64 H 0.72742 0.39302 0.80264 0.0
H65 H 0.77458 0.38154 0.92607 0.0
H66 H 0.66274 0.35967 0.70412 0.0
H67 H 0.6789 0.23437 0.71097 0.0
H68 H 0.75133 0.20642 0.62227 0.0
H69 H 0.81264 0.22371 0.51178 0.0
C70 C 0.33649 0.70522 0.43688 0.0
C71 C 0.29873 0.74803 0.45337 0.0
C72 C 0.32797 0.67022 0.37403 0.0
C73 C 0.28219 0.6782 0.32558 0.0
C74 C 0.24208 0.71783 0.34553 0.0
C75 C 0.25034 0.75269 0.40894 0.0
C76 C 0.28128 0.6551 0.24661 0.0
C77 C 0.32777 0.65796 0.20297 0.0
C78 C 0.32434 0.67799 0.12293 0.0
C79 C 0.35955 0.72145 0.10059 0.0
C80 C 0.35008 0.74975 0.03189 0.0
C81 C 0.30557 0.73443 -0.01578 0.0
H82 H 0.25433 0.62699 0.08911 0.0
C83 C 0.27211 0.68903 0.00497 0.0
C84 C 0.28153 0.66092 0.07358 0.0
H85 H 0.23809 0.67544 -0.03135 0.0
H86 H 0.3732 0.69907 0.47179 0.0
H87 H 0.35875 0.63893 0.36089 0.0
H88 H 0.20631 0.72449 0.30891 0.0
H89 H 0.21973 0.78422 0.42168 0.0
H90 H 0.24095 0.65382 0.21856 0.0
H91 H 0.36783 0.66321 0.23093 0.0
H92 H 0.39276 0.73533 0.13819 0.0
H93 H 0.3774 0.78359 0.01638 0.0
C94 C 0.50084 0.70278 0.86555 0.0
C95 C 0.46749 0.68097 0.80591 0.0
C96 C 0.53179 0.66819 0.91338 0.0
C97 C 0.53071 0.61057 0.90263 0.0
C98 C 0.49879 0.58887 0.84149 0.0
C99 C 0.46774 0.62357 0.79349 0.0
C100 C 0.55976 0.57191 0.95619 0.0
C101 C 0.60267 0.58686 0.00199 0.0
C102 C 0.63269 0.54786 0.05345 0.0
C103 C 0.68942 0.55694 0.06735 0.0
C104 C 0.72009 0.51982 0.11154 0.0
C105 C 0.69448 0.47338 0.14484 0.0
H106 H 0.56232 0.49514 0.08154 0.0
C107 C 0.63696 0.46585 0.13497 0.0
C108 C 0.60635 0.50255 0.08923 0.0
H109 H 0.61619 0.43015 0.15928 0.0
H110 H 0.50143 0.74669 0.87754 0.0
H111 H 0.55453 0.68695 0.96057 0.0
H112 H 0.49692 0.54471 0.83173 0.0
H113 H 0.44218 0.60516 0.74877 0.0
H114 H 0.54651 0.52902 0.95554 0.0
H115 H 0.61959 0.62828 -0.00221 0.0
H116 H 0.71066 0.59183 0.04149 0.0
H117 H 0.76437 0.52666 0.11794 0.0
C118 C 0.97591 0.46899 0.25388 0.0
C119 C 0.98363 0.41159 0.24998 0.0
C120 C 1.01407 0.50251 0.29368 0.0
C121 C 0.06102 0.47916 0.32911 0.0
C122 C 0.07071 0.42244 0.31977 0.0
C123 C 1.03204 0.38889 0.28174 0.0
C124 C 0.09986 0.51207 0.37801 0.0
C125 C 0.08278 0.55357 0.42489 0.0
C126 C 0.11993 0.58299 0.48068 0.0
C127 C 0.09623 0.60995 0.54524 0.0
C128 C 0.12949 0.63895 0.59814 0.0
C129 C 0.18741 0.642 0.58748 0.0
H130 H 0.19794 0.56717 0.42024 0.0
C131 C 0.21116 0.61472 0.52302 0.0
C132 C 0.17795 0.58584 0.47019 0.0
H133 H 0.2555 0.61677 0.51201 0.0
H134 H 0.93862 0.48747 0.23071 0.0
H135 H 1.00615 0.54637 0.29812 0.0
H136 H 0.10683 0.40348 0.34562 0.0
H137 H 1.03885 0.34473 0.27994 0.0
H138 H 0.14245 0.49763 0.38136 0.0
H139 H 1.03887 0.56404 0.42644 0.0
H140 H 0.05166 0.60879 0.55471 0.0
H141 H 0.10961 0.65987 0.64649 0.0
C142 C 0.11184 0.8951 0.86893 0.0
C143 C 0.13487 0.90958 0.79648 0.0
C144 C 0.07787 0.93176 0.9101 0.0
C145 C 0.06556 0.98396 0.87988 0.0
C146 C 0.08677 0.99789 0.80632 0.0
C147 C 0.12159 0.96136 0.76535 0.0
C148 C 1.02906 1.02344 0.92283 0.0
C149 C 1.027 1.02644 0.00109 0.0
C150 C 0.9891 0.06424 0.0446 0.0
C151 C 1.00478 0.08447 0.11788 0.0
C152 C 0.9697 0.11995 0.16009 0.0
C153 C 0.91754 0.13492 0.13061 0.0
H154 H 0.92234 0.06241 0.96066 0.0
C155 C 0.90128 0.11314 0.05827 0.0
C156 C 0.93661 0.07849 0.01573 0.0
H157 H 0.86147 0.12366 0.03345 0.0
H158 H 0.12084 0.8556 0.89498 0.0
H159 H 0.06088 0.91879 -0.03466 0.0
H160 H 0.07729 1.03759 0.78117 0.0
H161 H 0.13847 0.97389 0.70982 0.0
H162 H 1.00477 0.05212 0.88883 0.0
H163 H 0.05552 1.00171 0.03486 0.0
H164 H 0.04472 0.07354 0.14199 0.0
H165 H 0.98359 0.13588 0.21547 0.0
C166 C 0.46833 0.97084 0.67153 0.0
C167 C 0.41189 0.96501 0.65176 0.0
C168 C 0.50385 1.00469 0.62697 0.0
C169 C 0.48342 1.03268 0.56164 0.0
C170 C 0.42668 1.02905 0.54492 0.0
C171 C 0.39135 0.99642 0.58975 0.0
C172 C 0.51998 0.06222 0.50552 0.0
C173 C 0.56421 0.09297 0.52587 0.0
C174 C 0.59588 0.12615 0.46795 0.0
C175 C 0.61307 0.17965 0.48769 0.0
C176 C 0.64186 0.21223 0.4341 0.0
C177 C 0.65612 0.19154 0.36017 0.0
H178 H 0.59704 0.06395 0.37705 0.0
C179 C 0.63944 0.13759 0.34058 0.0
C180 C 0.60912 0.10542 0.39362 0.0
H181 H 0.64995 0.12017 0.28445 0.0
H182 H 0.48566 0.94702 0.71843 0.0
H183 H 0.54764 1.00644 0.64097 0.0
H184 H 0.40973 0.05047 0.49545 0.0
H185 H 0.3481 0.9937 0.57295 0.0
H186 H 0.5071 0.06211 0.44521 0.0
H187 H 0.57411 0.09811 0.58686 0.0
H188 H 0.60346 0.19668 0.54442 0.0
H189 H 0.65378 0.2535 0.45127 0.0
loop_
_geom_bond_atom_site_label_1
_geom_bond_atom_site_label_2
_geom_bond_distance
_geom_bond_site_symmetry_2
_ccdc_geom_bond_type
O0 Zn1 1.953 . S
O0 C16 1.225 . S
Zn1 O0 1.953 . S
Zn1 O2 1.949 . S
Zn1 O8 1.919 . S
Zn1 O13 1.924 . S
O2 Zn1 1.949 . S
O2 Zn3 1.923 . S
O2 Zn4 1.950 . S
O2 Zn5 1.945 . S
Zn3 O2 1.923 . S
Zn3 O6 1.933 . S
Zn3 O9 1.941 . S
Zn3 O10 1.965 . S
Zn4 O2 1.950 . S
Zn4 O11 1.938 . S
Zn4 O12 1.906 . S
Zn4 O22 1.953 . S
Zn5 O2 1.945 . S
Zn5 O7 1.932 . S
Zn5 O14 1.977 . S
Zn5 O15 1.910 . S
O6 Zn3 1.933 . S
O6 C17 1.226 . S
O7 Zn5 1.932 . S
O7 C17 1.307 . S
O8 Zn1 1.919 . S
O8 C19 1.253 . S
O9 Zn3 1.941 . S
O9 C19 1.283 . S
O10 Zn3 1.965 . S
O10 C18 1.303 . S
O11 Zn4 1.938 . S
O11 C18 1.247 . S
O12 Zn4 1.906 . S
O12 C20 1.304 . S
O13 Zn1 1.924 . S
O13 C21 1.311 . S
O14 Zn5 1.977 . S
O14 C20 1.272 . S
O15 Zn5 1.910 . S
O15 C21 1.231 . S
C16 O0 1.225 . S
C16 O22 1.298 . S
C17 O6 1.226 . S
C17 O7 1.307 . S
C18 O10 1.303 . S
C18 O11 1.247 . S
C19 O8 1.253 . S
C19 O9 1.283 . S
C20 O12 1.304 . S
C20 O14 1.272 . S
C21 O13 1.311 . S
C21 O15 1.231 . S
O22 Zn4 1.953 . S
O22 C16 1.298 . S
O23 Zn24 1.953 . S
O23 C39 1.225 . S
Zn24 O23 1.953 . S
Zn24 O25 1.949 . S
Zn24 O31 1.919 . S
Zn24 O36 1.924 . S
O25 Zn24 1.949 . S
O25 Zn26 1.923 . S
O25 Zn27 1.950 . S
O25 Zn28 1.945 . S
Zn26 O25 1.923 . S
Zn26 O29 1.933 . S
Zn26 O32 1.941 . S
Zn26 O33 1.965 . S
Zn27 O25 1.950 . S
Zn27 O34 1.938 . S
Zn27 O35 1.906 . S
Zn27 O45 1.953 . S
Zn28 O25 1.945 . S
Zn28 O30 1.932 . S
Zn28 O37 1.977 . S
Zn28 O38 1.910 . S
O29 Zn26 1.933 . S
O29 C40 1.226 . S
O30 Zn28 1.932 . S
O30 C40 1.307 . S
O31 Zn24 1.919 . S
O31 C42 1.253 . S
O32 Zn26 1.941 . S
O32 C42 1.283 . S
O33 Zn26 1.965 . S
O33 C41 1.303 . S
O34 Zn27 1.938 . S
O34 C41 1.247 . S
O35 Zn27 1.906 . S
O35 C43 1.304 . S
O36 Zn24 1.924 . S
O36 C44 1.311 . S
O37 Zn28 1.977 . S
O37 C43 1.272 . S
O38 Zn28 1.910 . S
O38 C44 1.231 . S
C39 O23 1.225 . S
C39 O45 1.298 . S
C40 O29 1.226 . S
C40 O30 1.307 . S
C41 O33 1.303 . S
C41 O34 1.247 . S
C42 O31 1.253 . S
C42 O32 1.283 . S
C43 O35 1.304 . S
C43 O37 1.272 . S
C44 O36 1.311 . S
C44 O38 1.231 . S
O45 Zn27 1.953 . S
O45 C39 1.298 . S
C46 C47 1.386 1_556 S
C46 C48 1.383 . S
C46 H62 0.951 1_556 S
C47 C46 1.386 1_554 S
C47 C51 1.383 . S
C48 C46 1.383 . S
C48 C49 1.402 . S
C48 H63 0.951 . S
C49 C48 1.402 . S
C49 C50 1.375 . S
C49 C52 1.481 . S
C50 C49 1.375 . S
C50 C51 1.367 1_556 S
C50 H64 0.951 . S
C51 C47 1.383 . S
C51 C50 1.367 1_554 S
C51 H65 0.950 . S
C52 C49 1.481 . S
C52 C53 1.297 . S
C52 H66 0.950 . S
C53 C52 1.297 . S
C53 C54 1.479 . S
C53 H67 0.950 . S
C54 C53 1.479 . S
C54 C55 1.375 . S
C54 C60 1.404 . S
C55 C54 1.375 . S
C55 C56 1.369 . S
C55 H68 0.950 . S
C56 C55 1.369 . S
C56 C57 1.392 . S
C56 H69 0.951 . S
C57 C56 1.392 . S
C57 C59 1.384 . S
H58 C60 0.949 . S
C59 C57 1.384 . S
C59 C60 1.385 . S
C59 H61 0.950 . S
C60 C54 1.404 . S
C60 H58 0.949 . S
C60 C59 1.385 . S
H61 C59 0.950 . S
H62 C46 0.951 1_554 S
H63 C48 0.951 . S
H64 C50 0.951 . S
H65 C51 0.950 . S
H66 C52 0.950 . S
H67 C53 0.950 . S
H68 C55 0.950 . S
H69 C56 0.951 . S
C70 C71 1.386 . S
C70 C72 1.383 . S
C70 H86 0.951 . S
C71 C70 1.386 . S
C71 C75 1.383 . S
C72 C70 1.383 . S
C72 C73 1.402 . S
C72 H87 0.951 . S
C73 C72 1.402 . S
C73 C74 1.375 . S
C73 C76 1.481 . S
C74 C73 1.375 . S
C74 C75 1.367 . S
C74 H88 0.951 . S
C75 C71 1.383 . S
C75 C74 1.367 . S
C75 H89 0.950 . S
C76 C73 1.481 . S
C76 C77 1.297 . S
C76 H90 0.950 . S
C77 C76 1.297 . S
C77 C78 1.479 . S
C77 H91 0.950 . S
C78 C77 1.479 . S
C78 C79 1.375 . S
C78 C84 1.404 . S
C79 C78 1.375 . S
C79 C80 1.369 . S
C79 H92 0.950 . S
C80 C79 1.369 . S
C80 C81 1.392 1_554 S
C80 H93 0.951 1_554 S
C81 C80 1.392 1_556 S
C81 C83 1.384 1_556 S
H82 C84 0.949 . S
C83 C81 1.384 1_554 S
C83 C84 1.385 . S
C83 H85 0.950 1_554 S
C84 C78 1.404 . S
C84 H82 0.949 . S
C84 C83 1.385 . S
H85 C83 0.950 1_556 S
H86 C70 0.951 . S
H87 C72 0.951 . S
H88 C74 0.951 . S
H89 C75 0.950 . S
H90 C76 0.950 . S
H91 C77 0.950 . S
H92 C79 0.950 . S
H93 C80 0.951 1_556 S
C94 C95 1.386 . S
C94 C96 1.383 . S
C94 H110 0.951 . S
C95 C94 1.386 . S
C95 C99 1.383 . S
C96 C94 1.383 . S
C96 C97 1.402 . S
C96 H111 0.951 . S
C97 C96 1.402 . S
C97 C98 1.375 . S
C97 C100 1.481 . S
C98 C97 1.375 . S
C98 C99 1.367 . S
C98 H112 0.951 . S
C99 C95 1.383 . S
C99 C98 1.367 . S
C99 H113 0.950 . S
C100 C97 1.481 . S
C100 C101 1.297 1_556 S
C100 H114 0.950 . S
C101 C100 1.297 1_554 S
C101 C102 1.479 . S
C101 H115 0.950 . S
C102 C101 1.479 . S
C102 C103 1.375 . S
C102 C108 1.404 . S
C103 C102 1.375 . S
C103 C104 1.369 . S
C103 H116 0.950 . S
C104 C103 1.369 . S
C104 C105 1.392 . S
C104 H117 0.951 . S
C105 C104 1.392 . S
C105 C107 1.384 . S
H106 C108 0.949 . S
C107 C105 1.384 . S
C107 C108 1.385 . S
C107 H109 0.950 . S
C108 C102 1.404 . S
C108 H106 0.949 . S
C108 C107 1.385 . S
H109 C107 0.950 . S
H110 C94 0.951 . S
H111 C96 0.951 . S
H112 C98 0.951 . S
H113 C99 0.950 . S
H114 C100 0.950 . S
H115 C101 0.950 . S
H116 C103 0.950 . S
H117 C104 0.951 . S
C118 C119 1.386 . S
C118 C120 1.383 . S
C118 H134 0.951 . S
C119 C118 1.386 . S
C119 C123 1.383 . S
C120 C118 1.383 . S
C120 C121 1.402 . S
C120 H135 0.951 . S
C121 C120 1.402 . S
C121 C122 1.375 . S
C121 C124 1.481 1_655 S
C122 C121 1.375 . S
C122 C123 1.367 . S
C122 H136 0.951 1_655 S
C123 C119 1.383 . S
C123 C122 1.367 . S
C123 H137 0.950 . S
C124 C121 1.481 1_455 S
C124 C125 1.297 1_455 S
C124 H138 0.950 . S
C125 C124 1.297 1_655 S
C125 C126 1.479 1_655 S
C125 H139 0.950 . S
C126 C125 1.479 1_455 S
C126 C127 1.375 . S
C126 C132 1.404 . S
C127 C126 1.375 . S
C127 C128 1.369 . S
C127 H140 0.950 1_455 S
C128 C127 1.369 . S
C128 C129 1.392 . S
C128 H141 0.951 . S
C129 C128 1.392 . S
C129 C131 1.384 . S
H130 C132 0.949 . S
C131 C129 1.384 . S
C131 C132 1.385 . S
C131 H133 0.950 . S
C132 C126 1.404 . S
C132 H130 0.949 . S
C132 C131 1.385 . S
H133 C131 0.950 . S
H134 C118 0.951 . S
H135 C120 0.951 . S
H136 C122 0.951 1_455 S
H137 C123 0.950 . S
H138 C124 0.950 . S
H139 C125 0.950 . S
H140 C127 0.950 1_655 S
H141 C128 0.951 . S
C142 C143 1.386 . S
C142 C144 1.383 . S
C142 H158 0.951 . S
C143 C142 1.386 . S
C143 C147 1.383 . S
C144 C142 1.383 . S
C144 C145 1.402 . S
C144 H159 0.951 1_556 S
C145 C144 1.402 . S
C145 C146 1.375 . S
C145 C148 1.481 1_565 S
C146 C145 1.375 . S
C146 C147 1.367 . S
C146 H160 0.951 . S
C147 C143 1.383 . S
C147 C146 1.367 . S
C147 H161 0.950 . S
C148 C145 1.481 1_545 S
C148 C149 1.297 1_556 S
C148 H162 0.950 1_455 S
C149 C148 1.297 1_554 S
C149 C150 1.479 1_455 S
C149 H163 0.950 . S
C150 C149 1.479 1_655 S
C150 C151 1.375 . S
C150 C156 1.404 . S
C151 C150 1.375 . S
C151 C152 1.369 . S
C151 H164 0.950 . S
C152 C151 1.369 . S
C152 C153 1.392 . S
C152 H165 0.951 . S
C153 C152 1.392 . S
C153 C155 1.384 . S
H154 C156 0.949 1_556 S
C155 C153 1.384 . S
C155 C156 1.385 . S
C155 H157 0.950 . S
C156 C150 1.404 . S
C156 H154 0.949 1_554 S
C156 C155 1.385 . S
H157 C155 0.950 . S
H158 C142 0.951 . S
H159 C144 0.951 1_554 S
H160 C146 0.951 . S
H161 C147 0.950 . S
H162 C148 0.950 1_655 S
H163 C149 0.950 . S
H164 C151 0.950 . S
H165 C152 0.951 . S
C166 C167 1.386 . S
C166 C168 1.383 . S
C166 H182 0.951 . S
C167 C166 1.386 . S
C167 C171 1.383 . S
C168 C166 1.383 . S
C168 C169 1.402 . S
C168 H183 0.951 . S
C169 C168 1.402 . S
C169 C170 1.375 . S
C169 C172 1.481 . S
C170 C169 1.375 . S
C170 C171 1.367 . S
C170 H184 0.951 . S
C171 C167 1.383 . S
C171 C170 1.367 . S
C171 H185 0.950 . S
C172 C169 1.481 . S
C172 C173 1.297 1_565 S
C172 H186 0.950 . S
C173 C172 1.297 1_545 S
C173 C174 1.479 . S
C173 H187 0.950 . S
C174 C173 1.479 . S
C174 C175 1.375 . S
C174 C180 1.404 . S
C175 C174 1.375 . S
C175 C176 1.369 . S
C175 H188 0.950 . S
C176 C175 1.369 . S
C176 C177 1.392 . S
C176 H189 0.951 . S
C177 C176 1.392 . S
C177 C179 1.384 . S
H178 C180 0.949 1_565 S
C179 C177 1.384 . S
C179 C180 1.385 . S
C179 H181 0.950 . S
C180 C174 1.404 . S
C180 H178 0.949 1_545 S
C180 C179 1.385 . S
H181 C179 0.950 . S
H182 C166 0.951 . S
H183 C168 0.951 . S
H184 C170 0.951 . S
H185 C171 0.950 . S
H186 C172 0.950 . S
H187 C173 0.950 . S
H188 C175 0.950 . S
H189 C176 0.951 . S
C47 C17 0.295 . S
C57 C16 0.354 . S
C71 C39 0.267 . S
C81 C40 0.354 . S
C95 C42 2.126 . S
C105 C20 2.117 . S
C119 C21 2.069 . S
C129 C44 2.074 . S
C143 C43 2.122 . S
C153 C19 2.122 . S
C167 C41 2.161 . S
C177 C18 2.155 . S
