# Generated by pormake.
# Topology sxa, (6)-cn, num edge types: 1
# Building blocks:
#     Node 0, Type 0, BuildingBlock: IZENUY_clean_sbu_0, # of connection points: 6
#     Node 1, Type 0, BuildingBlock: IZENUY_clean_sbu_0, # of connection points: 6
#     Node 2, Type 0, BuildingBlock: IZENUY_clean_sbu_0, # of connection points: 6
#     Node 3, Type 0, BuildingBlock: IZENUY_clean_sbu_0, # of connection points: 6
#     Edge 4, Type (0, 0), BuildingBlock: AJUNOK_clean_linker_0, # of connection points: 2
#     Edge 5, Type (0, 0), BuildingBlock: AJUNOK_clean_linker_0, # of connection points: 2
#     Edge 6, Type (0, 0), BuildingBlock: AJUNOK_clean_linker_0, # of connection points: 2
#     Edge 7, Type (0, 0), BuildingBlock: AJUNOK_clean_linker_0, # of connection points: 2
#     Edge 8, Type (0, 0), BuildingBlock: AJUNOK_clean_linker_0, # of connection points: 2
#     Edge 9, Type (0, 0), BuildingBlock: AJUNOK_clean_linker_0, # of connection points: 2
#     Edge 10, Type (0, 0), BuildingBlock: AJUNOK_clean_linker_0, # of connection points: 2
#     Edge 11, Type (0, 0), BuildingBlock: AJUNOK_clean_linker_0, # of connection points: 2
#     Edge 12, Type (0, 0), BuildingBlock: AJUNOK_clean_linker_0, # of connection points: 2
#     Edge 13, Type (0, 0), BuildingBlock: AJUNOK_clean_linker_0, # of connection points: 2
#     Edge 14, Type (0, 0), BuildingBlock: AJUNOK_clean_linker_0, # of connection points: 2
#     Edge 15, Type (0, 0), BuildingBlock: AJUNOK_clean_linker_0, # of connection points: 2
# Relax obj value: 0.274
# Max RMSD: 0.267
# Mean RMSD: 0.267
data_MOF--net-sxa--node1-IZENUY_clean_sbu_0--edge1-AJUNOK_clean_linker_0
_symmetry_space_group_name_H-M    P1
_symmetry_Int_Tables_number       1
_symmetry_cell_setting            triclinic
loop_
_symmetry_equiv_pos_as_xyz
'x, y, z'
_cell_length_a     17.9497
_cell_length_b     20.437402
_cell_length_c     12.019281
_cell_angle_alpha  90.019319
_cell_angle_beta   90.032483
_cell_angle_gamma 89.642237
loop_
_atom_site_label
_atom_site_type_symbol
_atom_site_fract_x
_atom_site_fract_y
_atom_site_fract_z
_atom_type_partial_charge
Fe0 Fe 0.02037 0.87985 0.37315 0.0
Fe1 Fe 0.01478 0.7274 0.37659 0.0
O2 O 0.01736 0.80319 0.30247 0.0
Fe3 Fe 0.01704 0.80222 0.15413 0.0
O4 O 0.10899 0.83524 0.15097 0.0
O5 O 0.08881 0.91469 0.27428 0.0
O6 O 0.10073 0.85597 0.45431 0.0
C7 C 0.12117 0.80284 0.4978 0.0
C8 C 0.94096 0.92299 0.1953 0.0
O9 O 0.08261 0.75147 0.48534 0.0
C10 C 0.90782 0.716 0.20069 0.0
O11 O 0.9523 0.85714 0.48167 0.0
O12 O 0.93396 0.75178 0.45691 0.0
O13 O 0.97759 0.88463 0.13371 0.0
O14 O 0.94079 0.91327 0.29832 0.0
C15 C 0.09537 0.68364 0.20003 0.0
O16 O 0.94684 0.69093 0.27859 0.0
O17 O 0.92506 0.76903 0.15335 0.0
C18 C 0.91364 0.80606 0.49653 0.0
O19 O 0.09474 0.69378 0.30303 0.0
O20 O 0.05679 0.7198 0.13733 0.0
C21 C 0.12701 0.88859 0.19647 0.0
Fe22 Fe 0.51887 0.30102 0.15758 0.0
Fe23 Fe 0.52828 0.37868 0.37606 0.0
O24 O 0.52197 0.30201 0.30562 0.0
Fe25 Fe 0.51846 0.2264 0.37992 0.0
O26 O 0.59641 0.19072 0.30408 0.0
O27 O 0.5571 0.21819 0.13959 0.0
O28 O 0.61121 0.33292 0.15026 0.0
C29 C 0.63035 0.38656 0.19358 0.0
C30 C 0.4088 0.21638 0.20768 0.0
O31 O 0.5941 0.41301 0.27298 0.0
C32 C 0.42262 0.30716 0.50471 0.0
O33 O 0.47985 0.38364 0.13941 0.0
O34 O 0.44708 0.41275 0.30595 0.0
O35 O 0.44833 0.1907 0.2844 0.0
O36 O 0.42646 0.26917 0.16027 0.0
C37 C 0.62945 0.29993 0.49546 0.0
O38 O 0.4632 0.357 0.48936 0.0
O39 O 0.43952 0.25277 0.46221 0.0
C40 C 0.44428 0.42182 0.20274 0.0
O41 O 0.61066 0.3536 0.45199 0.0
O42 O 0.58821 0.2499 0.48617 0.0
C43 C 0.59545 0.18097 0.2009 0.0
Fe44 Fe 0.01915 0.30404 1.0651 0.0
Fe45 Fe 0.01794 0.37971 0.84386 0.0
O46 O 0.02216 0.30375 0.91704 0.0
Fe47 Fe 0.02953 0.22764 0.84524 0.0
O48 O 0.9485 0.19328 0.91398 0.0
O49 O 0.98029 0.22148 1.08166 0.0
O50 O 0.9266 0.33652 1.06282 0.0
C51 C 0.90873 0.38972 1.01637 0.0
C52 C 0.13107 0.21785 1.02845 0.0
O53 O 0.94837 0.41568 0.94062 0.0
C54 C 0.12935 0.30681 0.72699 0.0
O55 O 0.05733 0.38668 1.08401 0.0
O56 O 0.09643 0.41351 0.91941 0.0
O57 O 0.09525 0.19213 0.94824 0.0
O58 O 0.11159 0.27144 1.07221 0.0
C59 C 0.923 0.30057 0.71774 0.0
O60 O 0.08679 0.35639 0.73594 0.0
O61 O 0.11198 0.25311 0.7709 0.0
C62 C 0.09547 0.42361 1.02241 0.0
O63 O 0.93859 0.35451 0.76223 0.0
O64 O 0.96468 0.25073 0.73168 0.0
C65 C 0.94504 0.18401 1.0172 0.0
Fe66 Fe 0.51329 0.87676 0.84594 0.0
Fe67 Fe 0.52318 0.72456 0.8451 0.0
O68 O 0.51827 0.80062 0.91782 0.0
Fe69 Fe 0.5185 0.80074 1.06607 0.0
O70 O 0.42583 0.83294 1.06851 0.0
O71 O 0.4453 0.91234 0.9458 0.0
O72 O 0.43282 0.85226 0.76694 0.0
C73 C 0.41505 0.79903 0.72193 0.0
C74 C 0.59352 0.92053 1.0217 0.0
O75 O 0.45469 0.74784 0.73567 0.0
C76 C 0.62999 0.71513 1.02258 0.0
O77 O 0.58008 0.85371 0.73515 0.0
O78 O 0.60344 0.74948 0.76464 0.0
O79 O 0.55649 0.88351 1.08446 0.0
O80 O 0.59323 0.91002 0.91884 0.0
C81 C 0.44312 0.68119 1.02208 0.0
O82 O 0.59212 0.68917 0.94438 0.0
O83 O 0.61109 0.7685 1.06779 0.0
C84 C 0.6206 0.80328 0.72078 0.0
O85 O 0.44402 0.69049 0.91883 0.0
O86 O 0.48057 0.71812 1.08442 0.0
C87 C 0.40698 0.88619 1.023 0.0
C88 C 0.11653 0.49971 0.18308 0.0
C89 C 0.11926 0.48842 1.06739 0.0
C90 C 0.11713 0.5634 0.22701 0.0
C91 C 0.1197 0.61856 0.15693 0.0
H92 H 0.10856 0.45929 0.24005 0.0
H93 H 0.10898 0.5693 0.31575 0.0
S94 S 0.14604 0.61596 0.85075 0.0
N95 N 0.13915 0.53806 0.8855 0.0
N96 N 0.13888 0.65746 0.9682 0.0
C97 C 0.13106 0.60784 1.04249 0.0
C98 C 0.13131 0.54291 0.99769 0.0
C99 C 0.42229 0.49748 1.04157 0.0
C100 C 0.41986 0.48666 0.15744 0.0
C101 C 0.42173 0.56097 0.99694 0.0
C102 C 0.41929 0.61647 1.06637 0.0
H103 H 0.43018 0.45679 0.9849 0.0
H104 H 0.42972 0.56637 0.9081 0.0
S105 S 0.39252 0.61529 0.37255 0.0
N106 N 0.39972 0.53718 0.33868 0.0
N107 N 0.39983 0.65628 0.2547 0.0
C108 C 0.40794 0.60631 0.18097 0.0
C109 C 0.40778 0.54153 0.22651 0.0
C110 C 0.61876 0.99685 0.18121 0.0
C111 C 0.61702 0.98577 1.06537 0.0
C112 C 0.61995 0.06056 0.22547 0.0
C113 C 0.61857 0.11593 0.15563 0.0
H114 H 0.61412 0.95614 0.23845 0.0
H115 H 0.61562 0.06622 0.31486 0.0
S116 S 0.629 0.11415 0.84738 0.0
N117 N 0.62617 1.03611 0.88228 0.0
N118 N 0.62746 0.1553 0.96549 0.0
C119 C 0.62484 0.10546 1.04022 0.0
C120 C 0.62436 1.04061 0.99508 0.0
C121 C 0.92345 0.99991 1.03423 0.0
C122 C 0.91882 0.98853 0.14979 0.0
C123 C 0.92409 0.06365 0.99037 0.0
C124 C 0.92086 0.11895 1.06026 0.0
H125 H 0.93182 0.95939 0.97736 0.0
H126 H 0.93336 0.06935 0.90186 0.0
S127 S 0.89036 0.1166 0.3657 0.0
N128 N 0.89705 1.03859 0.33102 0.0
N129 N 0.89952 0.15802 0.24861 0.0
C130 C 0.90801 0.10832 0.17442 0.0
C131 C 0.90655 1.04331 0.21913 0.0
C132 C 0.30033 0.74079 0.6445 0.0
C133 C 0.34316 0.79814 0.6568 0.0
C134 C 0.22823 0.74234 0.5958 0.0
C135 C 0.19537 0.80138 0.55783 0.0
H136 H 0.32189 0.69452 0.67493 0.0
H137 H 0.19818 0.6968 0.5877 0.0
S138 S 0.28559 0.96519 0.56672 0.0
N139 N 0.34795 0.91517 0.62139 0.0
N140 N 0.21367 0.91881 0.53598 0.0
C141 C 0.2383 0.85885 0.56934 0.0
C142 C 0.31154 0.85702 0.61687 0.0
C143 C 0.24651 0.25283 0.65588 0.0
C144 C 0.20346 0.31045 0.66816 0.0
C145 C 0.31769 0.25326 0.60751 0.0
C146 C 0.35069 0.31136 0.56877 0.0
H147 H 0.22512 0.20617 0.68365 0.0
H148 H 0.3468 0.20692 0.59929 0.0
S149 S 0.26371 0.47671 0.58229 0.0
N150 N 0.20082 0.42828 0.63885 0.0
N151 N 0.33448 0.42892 0.54716 0.0
C152 C 0.30917 0.36981 0.58166 0.0
C153 C 0.23589 0.36938 0.63102 0.0
C154 C 0.81674 0.3547 0.61565 0.0
C155 C 0.85124 0.29664 0.6533 0.0
C156 C 0.74545 0.35477 0.5672 0.0
C157 C 0.70386 0.29682 0.55399 0.0
H158 H 0.8447 0.40121 0.62488 0.0
H159 H 0.72277 0.40138 0.54026 0.0
S160 S 0.7691 0.13097 0.63621 0.0
N161 N 0.83848 0.17907 0.67239 0.0
N162 N 0.70465 0.17888 0.58071 0.0
C163 C 0.73801 0.23805 0.58986 0.0
C164 C 0.81135 0.23803 0.63912 0.0
C165 C 0.80789 0.75037 0.59577 0.0
C166 C 0.84015 0.80878 0.55695 0.0
C167 C 0.73663 0.74931 0.64428 0.0
C168 C 0.69315 0.80661 0.65745 0.0
H169 H 0.83788 0.70442 0.58835 0.0
H170 H 0.71572 0.70256 0.67226 0.0
S171 S 0.74673 0.9713 0.55615 0.0
N172 N 0.81951 0.92491 0.52569 0.0
N173 N 0.68614 0.92316 0.6184 0.0
C174 C 0.72361 0.86528 0.61603 0.0
C175 C 0.79669 0.86633 0.56606 0.0
C176 C 0.32865 0.91991 0.18106 0.0
C177 C 0.33941 0.91782 1.06512 0.0
C178 C 0.25689 0.92116 0.22603 0.0
C179 C 0.19469 0.91971 0.15581 0.0
H180 H 0.37549 0.91304 0.23692 0.0
H181 H 0.25038 0.91449 0.31479 0.0
S182 S 0.19384 0.93025 0.84843 0.0
N183 N 0.28306 0.92741 0.88225 0.0
N184 N 0.14749 0.92905 0.9671 0.0
C185 C 0.20494 0.92732 1.04076 0.0
C186 C 0.27795 0.92667 0.99501 0.0
C187 C 0.25997 0.17872 1.00552 0.0
C188 C 0.1974 0.18598 1.07405 0.0
C189 C 0.33136 0.17846 1.05213 0.0
C190 C 0.3412 0.18462 0.16787 0.0
H191 H 0.25442 0.18196 0.91587 0.0
H192 H 0.37895 0.1812 0.99687 0.0
S193 S 0.19366 0.18664 0.38212 0.0
N194 N 0.14833 0.18557 0.26244 0.0
N195 N 0.28315 0.18432 0.35005 0.0
C196 C 0.27891 0.18113 0.2373 0.0
C197 C 0.20636 0.1821 0.19 0.0
C198 C 0.75856 0.42619 0.21702 0.0
C199 C 0.69643 0.41802 0.148 0.0
C200 C 0.83006 0.42739 0.17101 0.0
C201 C 0.84042 0.42124 1.05539 0.0
H202 H 0.75282 0.42314 0.30664 0.0
H203 H 0.87757 0.4253 0.22665 0.0
S204 S 0.6936 0.41657 0.83999 0.0
N205 N 0.6479 0.41722 0.95927 0.0
N206 N 0.78289 0.42031 0.87277 0.0
C207 C 0.77822 0.42366 0.98545 0.0
C208 C 0.70559 0.42167 1.03213 0.0
C209 C 0.77789 0.68386 0.23056 0.0
C210 C 0.84059 0.68355 0.1614 0.0
C211 C 0.7065 0.68374 0.18406 0.0
C212 C 0.69663 0.68303 1.06776 0.0
H213 H 0.78376 0.69281 0.31904 0.0
H214 H 0.65925 0.69213 0.23848 0.0
S215 S 0.84396 0.66228 0.85574 0.0
N216 N 0.88936 0.66777 0.97494 0.0
N217 N 0.75446 0.66676 0.88736 0.0
C218 C 0.75862 0.67164 0.99984 0.0
C219 C 0.83128 0.67233 1.04705 0.0
loop_
_geom_bond_atom_site_label_1
_geom_bond_atom_site_label_2
_geom_bond_distance
_geom_bond_site_symmetry_2
_ccdc_geom_bond_type
Fe0 O2 1.918 . S
Fe0 O5 1.997 . S
Fe0 O6 2.002 . S
Fe0 O11 1.976 1_455 S
Fe0 O14 1.996 . S
Fe1 O2 1.918 1_655 S
Fe1 O9 1.997 1_655 S
Fe1 O12 1.996 . S
Fe1 O16 1.976 . S
Fe1 O19 2.002 1_655 S
O2 Fe0 1.918 . S
O2 Fe1 1.918 1_455 S
O2 Fe3 1.918 . S
Fe3 O2 1.918 . S
Fe3 O4 2.002 . S
Fe3 O13 1.976 . S
Fe3 O17 1.996 1_455 S
Fe3 O20 1.997 . S
O4 Fe3 2.002 . S
O4 C21 1.295 . S
O5 Fe0 1.997 . S
O5 C21 1.235 . S
O6 Fe0 2.002 . S
O6 C7 1.295 . S
C7 O6 1.295 . S
C7 O9 1.235 . S
C8 O13 1.287 . S
C8 O14 1.255 . S
O9 Fe1 1.997 1_455 S
O9 C7 1.235 . S
C10 O16 1.287 . S
C10 O17 1.255 . S
O11 Fe0 1.976 1_655 S
O11 C18 1.287 . S
O12 Fe1 1.996 . S
O12 C18 1.255 . S
O13 Fe3 1.976 . S
O13 C8 1.287 . S
O14 Fe0 1.996 . S
O14 C8 1.255 . S
C15 O19 1.295 . S
C15 O20 1.235 . S
O16 Fe1 1.976 . S
O16 C10 1.287 . S
O17 Fe3 1.996 1_655 S
O17 C10 1.255 . S
C18 O11 1.287 . S
C18 O12 1.255 . S
O19 Fe1 2.002 1_455 S
O19 C15 1.295 . S
O20 Fe3 1.997 . S
O20 C15 1.235 . S
C21 O4 1.295 . S
C21 O5 1.235 . S
Fe22 O24 1.918 . S
Fe22 O27 1.997 . S
Fe22 O28 2.002 . S
Fe22 O33 1.976 . S
Fe22 O36 1.996 . S
Fe23 O24 1.918 . S
Fe23 O31 1.997 . S
Fe23 O34 1.996 . S
Fe23 O38 1.976 . S
Fe23 O41 2.002 . S
O24 Fe22 1.918 . S
O24 Fe23 1.918 . S
O24 Fe25 1.918 . S
Fe25 O24 1.918 . S
Fe25 O26 2.002 . S
Fe25 O35 1.976 . S
Fe25 O39 1.996 . S
Fe25 O42 1.997 . S
O26 Fe25 2.002 . S
O26 C43 1.295 . S
O27 Fe22 1.997 . S
O27 C43 1.235 . S
O28 Fe22 2.002 . S
O28 C29 1.295 . S
C29 O28 1.295 . S
C29 O31 1.235 . S
C30 O35 1.287 . S
C30 O36 1.255 . S
O31 Fe23 1.997 . S
O31 C29 1.235 . S
C32 O38 1.287 . S
C32 O39 1.255 . S
O33 Fe22 1.976 . S
O33 C40 1.287 . S
O34 Fe23 1.996 . S
O34 C40 1.255 . S
O35 Fe25 1.976 . S
O35 C30 1.287 . S
O36 Fe22 1.996 . S
O36 C30 1.255 . S
C37 O41 1.295 . S
C37 O42 1.235 . S
O38 Fe23 1.976 . S
O38 C32 1.287 . S
O39 Fe25 1.996 . S
O39 C32 1.255 . S
C40 O33 1.287 . S
C40 O34 1.255 . S
O41 Fe23 2.002 . S
O41 C37 1.295 . S
O42 Fe25 1.997 . S
O42 C37 1.235 . S
C43 O26 1.295 . S
C43 O27 1.235 . S
Fe44 O46 1.918 . S
Fe44 O49 1.997 . S
Fe44 O50 2.002 1_455 S
Fe44 O55 1.976 . S
Fe44 O58 1.996 . S
Fe45 O46 1.918 1_655 S
Fe45 O53 1.997 . S
Fe45 O56 1.996 1_655 S
Fe45 O60 1.976 1_655 S
Fe45 O63 2.002 . S
O46 Fe44 1.918 . S
O46 Fe45 1.918 1_455 S
O46 Fe47 1.918 . S
Fe47 O46 1.918 . S
Fe47 O48 2.002 . S
Fe47 O57 1.976 . S
Fe47 O61 1.996 . S
Fe47 O64 1.988 1_455 S
O48 Fe47 2.002 . S
O48 C65 1.295 . S
O49 Fe44 1.997 . S
O49 C65 1.235 . S
O50 Fe44 2.002 1_655 S
O50 C51 1.295 . S
C51 O50 1.295 . S
C51 O53 1.235 . S
C52 O57 1.287 . S
C52 O58 1.255 . S
O53 Fe45 1.997 . S
O53 C51 1.235 . S
C54 O60 1.287 . S
C54 O61 1.255 . S
O55 Fe44 1.976 . S
O55 C62 1.287 . S
O56 Fe45 1.996 1_455 S
O56 C62 1.255 . S
O57 Fe47 1.976 . S
O57 C52 1.287 . S
O58 Fe44 1.996 . S
O58 C52 1.255 . S
C59 O63 1.295 . S
C59 O64 1.245 . S
O60 Fe45 1.976 1_455 S
O60 C54 1.287 . S
O61 Fe47 1.996 . S
O61 C54 1.255 . S
C62 O55 1.287 . S
C62 O56 1.255 . S
O63 Fe45 2.002 . S
O63 C59 1.295 . S
O64 Fe47 1.988 1_655 S
O64 C59 1.245 . S
C65 O48 1.295 . S
C65 O49 1.235 . S
Fe66 O68 1.918 . S
Fe66 O71 1.997 . S
Fe66 O72 2.002 . S
Fe66 O77 1.976 . S
Fe66 O80 1.996 . S
Fe67 O68 1.918 . S
Fe67 O75 1.997 . S
Fe67 O78 1.996 . S
Fe67 O82 1.976 . S
Fe67 O85 2.002 . S
O68 Fe66 1.918 . S
O68 Fe67 1.918 . S
O68 Fe69 1.918 . S
Fe69 O68 1.918 . S
Fe69 O70 2.002 . S
Fe69 O79 1.976 . S
Fe69 O83 1.996 . S
Fe69 O86 1.997 . S
O70 Fe69 2.002 . S
O70 C87 1.295 . S
O71 Fe66 1.997 . S
O71 C87 1.235 . S
O72 Fe66 2.002 . S
O72 C73 1.295 . S
C73 O72 1.295 . S
C73 O75 1.235 . S
C74 O79 1.287 . S
C74 O80 1.255 . S
O75 Fe67 1.997 . S
O75 C73 1.235 . S
C76 O82 1.287 . S
C76 O83 1.255 . S
O77 Fe66 1.976 . S
O77 C84 1.287 . S
O78 Fe67 1.996 . S
O78 C84 1.255 . S
O79 Fe69 1.976 . S
O79 C74 1.287 . S
O80 Fe66 1.996 . S
O80 C74 1.255 . S
C81 O85 1.295 . S
C81 O86 1.235 . S
O82 Fe67 1.976 . S
O82 C76 1.287 . S
O83 Fe69 1.996 . S
O83 C76 1.255 . S
C84 O77 1.287 . S
C84 O78 1.255 . S
O85 Fe67 2.002 . S
O85 C81 1.295 . S
O86 Fe69 1.997 . S
O86 C81 1.235 . S
C87 O70 1.295 . S
C87 O71 1.235 . S
C88 C89 1.369 1_554 S
C88 C90 1.419 . S
C88 H92 0.930 . S
C89 C88 1.369 1_556 S
C89 C98 1.429 . S
C90 C88 1.419 . S
C90 C91 1.363 . S
C90 H93 0.929 . S
C91 C90 1.363 . S
C91 C97 1.428 1_554 S
H92 C88 0.930 . S
H93 C90 0.929 . S
S94 N95 1.613 . S
S94 N96 1.610 . S
N95 S94 1.613 . S
N95 C98 1.350 . S
N96 S94 1.610 . S
N96 C97 1.351 . S
C97 C91 1.428 1_556 S
C97 N96 1.351 . S
C97 C98 1.434 . S
C98 C89 1.429 . S
C98 N95 1.350 . S
C98 C97 1.434 . S
C99 C100 1.369 1_556 S
C99 C101 1.419 . S
C99 H103 0.930 . S
C100 C99 1.369 1_554 S
C100 C109 1.429 . S
C101 C99 1.419 . S
C101 C102 1.363 . S
C101 H104 0.929 . S
C102 C101 1.363 . S
C102 C108 1.428 1_556 S
H103 C99 0.930 . S
H104 C101 0.929 . S
S105 N106 1.613 . S
S105 N107 1.610 . S
N106 S105 1.613 . S
N106 C109 1.350 . S
N107 S105 1.610 . S
N107 C108 1.351 . S
C108 C102 1.428 1_554 S
C108 N107 1.351 . S
C108 C109 1.434 . S
C109 C100 1.429 . S
C109 N106 1.350 . S
C109 C108 1.434 . S
C110 C111 1.369 . S
C110 C112 1.419 1_566 S
C110 H114 0.930 1_556 S
C111 C110 1.369 . S
C111 C120 1.429 . S
C112 C110 1.419 1_544 S
C112 C113 1.363 . S
C112 H115 0.929 . S
C113 C112 1.363 . S
C113 C119 1.428 . S
H114 C110 0.930 1_554 S
H115 C112 0.929 . S
S116 N117 1.613 1_545 S
S116 N118 1.610 . S
N117 S116 1.613 1_565 S
N117 C120 1.350 . S
N118 S116 1.610 . S
N118 C119 1.351 1_556 S
C119 C113 1.428 . S
C119 N118 1.351 1_554 S
C119 C120 1.434 1_544 S
C120 C111 1.429 . S
C120 N117 1.350 . S
C120 C119 1.434 1_566 S
C121 C122 1.369 1_656 S
C121 C123 1.419 1_565 S
C121 H125 0.930 . S
C122 C121 1.369 1_454 S
C122 C131 1.444 . S
C123 C121 1.419 1_545 S
C123 C124 1.363 1_655 S
C123 H126 0.929 . S
C124 C123 1.363 1_455 S
C124 C130 1.428 1_556 S
H125 C121 0.930 . S
H126 C123 0.929 . S
S127 N128 1.613 . S
S127 N129 1.610 . S
N128 S127 1.613 . S
N128 C131 1.349 1_545 S
N129 S127 1.610 . S
N129 C130 1.351 . S
C130 C124 1.428 1_554 S
C130 N129 1.351 . S
C130 C131 1.418 1_545 S
C131 C122 1.444 . S
C131 N128 1.349 1_565 S
C131 C130 1.418 1_565 S
C132 C133 1.369 . S
C132 C134 1.419 . S
C132 H136 0.930 . S
C133 C132 1.369 . S
C133 C142 1.429 . S
C134 C132 1.419 . S
C134 C135 1.363 . S
C134 H137 0.929 . S
C135 C134 1.363 . S
C135 C141 1.428 . S
H136 C132 0.930 . S
H137 C134 0.929 . S
S138 N139 1.613 . S
S138 N140 1.610 . S
N139 S138 1.613 . S
N139 C142 1.350 . S
N140 S138 1.610 . S
N140 C141 1.351 . S
C141 C135 1.428 . S
C141 N140 1.351 . S
C141 C142 1.434 . S
C142 C133 1.429 . S
C142 N139 1.350 . S
C142 C141 1.434 . S
C143 C144 1.369 . S
C143 C145 1.419 . S
C143 H147 0.930 . S
C144 C143 1.369 . S
C144 C153 1.429 . S
C145 C143 1.419 . S
C145 C146 1.363 . S
C145 H148 0.929 . S
C146 C145 1.363 . S
C146 C152 1.428 . S
H147 C143 0.930 . S
H148 C145 0.929 . S
S149 N150 1.613 . S
S149 N151 1.610 . S
N150 S149 1.613 . S
N150 C153 1.350 . S
N151 S149 1.610 . S
N151 C152 1.351 . S
C152 C146 1.428 . S
C152 N151 1.351 . S
C152 C153 1.434 . S
C153 C144 1.429 . S
C153 N150 1.350 . S
C153 C152 1.434 . S
C154 C155 1.369 . S
C154 C156 1.419 . S
C154 H158 0.930 . S
C155 C154 1.369 . S
C155 C164 1.429 . S
C156 C154 1.419 . S
C156 C157 1.363 . S
C156 H159 0.929 . S
C157 C156 1.363 . S
C157 C163 1.428 . S
H158 C154 0.930 . S
H159 C156 0.929 . S
S160 N161 1.613 . S
S160 N162 1.610 . S
N161 S160 1.613 . S
N161 C164 1.350 . S
N162 S160 1.610 . S
N162 C163 1.351 . S
C163 C157 1.428 . S
C163 N162 1.351 . S
C163 C164 1.434 . S
C164 C155 1.429 . S
C164 N161 1.350 . S
C164 C163 1.434 . S
C165 C166 1.369 . S
C165 C167 1.419 . S
C165 H169 0.930 . S
C166 C165 1.369 . S
C166 C175 1.429 . S
C167 C165 1.419 . S
C167 C168 1.363 . S
C167 H170 0.929 . S
C168 C167 1.363 . S
C168 C174 1.428 . S
H169 C165 0.930 . S
H170 C167 0.929 . S
S171 N172 1.613 . S
S171 N173 1.610 . S
N172 S171 1.613 . S
N172 C175 1.350 . S
N173 S171 1.610 . S
N173 C174 1.351 . S
C174 C168 1.428 . S
C174 N173 1.351 . S
C174 C175 1.434 . S
C175 C166 1.429 . S
C175 N172 1.350 . S
C175 C174 1.434 . S
C176 C177 1.369 1_554 S
C176 C178 1.419 . S
C176 H180 0.930 . S
C177 C176 1.369 1_556 S
C177 C186 1.429 . S
C178 C176 1.419 . S
C178 C179 1.363 . S
C178 H181 0.929 . S
C179 C178 1.363 . S
C179 C185 1.428 1_554 S
H180 C176 0.930 . S
H181 C178 0.929 . S
S182 N183 1.613 . S
S182 N184 1.610 . S
N183 S182 1.613 . S
N183 C186 1.350 . S
N184 S182 1.610 . S
N184 C185 1.351 . S
C185 C179 1.428 1_556 S
C185 N184 1.351 . S
C185 C186 1.434 . S
C186 C177 1.429 . S
C186 N183 1.350 . S
C186 C185 1.434 . S
C187 C188 1.369 . S
C187 C189 1.419 1_556 S
C187 H191 0.930 . S
C188 C187 1.369 . S
C188 C197 1.429 . S
C189 C187 1.419 1_554 S
C189 C190 1.363 . S
C189 H192 0.929 . S
C190 C189 1.363 . S
C190 C196 1.428 . S
H191 C187 0.930 . S
H192 C189 0.929 . S
S193 N194 1.613 . S
S193 N195 1.610 1_556 S
N194 S193 1.613 . S
N194 C197 1.350 . S
N195 S193 1.610 1_554 S
N195 C196 1.351 . S
C196 C190 1.428 . S
C196 N195 1.351 . S
C196 C197 1.434 1_554 S
C197 C188 1.429 . S
C197 N194 1.350 . S
C197 C196 1.434 1_556 S
C198 C199 1.369 . S
C198 C200 1.419 1_554 S
C198 H202 0.930 . S
C199 C198 1.369 . S
C199 C208 1.429 . S
C200 C198 1.419 1_556 S
C200 C201 1.363 . S
C200 H203 0.929 . S
C201 C200 1.363 . S
C201 C207 1.428 . S
H202 C198 0.930 . S
H203 C200 0.929 . S
S204 N205 1.613 1_556 S
S204 N206 1.610 . S
N205 S204 1.613 1_554 S
N205 C208 1.350 . S
N206 S204 1.610 . S
N206 C207 1.351 . S
C207 C201 1.428 . S
C207 N206 1.351 . S
C207 C208 1.434 1_556 S
C208 C199 1.429 . S
C208 N205 1.350 . S
C208 C207 1.434 1_554 S
C209 C210 1.369 . S
C209 C211 1.419 . S
C209 H213 0.930 . S
C210 C209 1.369 . S
C210 C219 1.429 1_554 S
C211 C209 1.419 . S
C211 C212 1.363 1_554 S
C211 H214 0.929 . S
C212 C211 1.363 1_556 S
C212 C218 1.428 . S
H213 C209 0.930 . S
H214 C211 0.929 . S
S215 N216 1.613 . S
S215 N217 1.610 . S
N216 S215 1.613 . S
N216 C219 1.350 . S
N217 S215 1.610 . S
N217 C218 1.351 . S
C218 C212 1.428 . S
C218 N217 1.351 . S
C218 C219 1.434 . S
C219 C210 1.429 1_556 S
C219 N216 1.350 . S
C219 C218 1.434 . S
C89 C62 1.572 . S
C91 C15 1.551 . S
C100 C40 1.572 . S
C102 C81 1.550 . S
C111 C74 1.570 . S
C113 C43 1.549 . S
C122 C8 1.572 . S
C124 C65 1.550 . S
C133 C73 2.146 . S
C135 C7 2.148 . S
C144 C54 2.101 . S
C146 C32 2.104 . S
C155 C59 2.152 . S
C157 C37 2.150 . S
C166 C18 2.101 . S
C168 C84 2.104 . S
C177 C87 0.746 . S
C179 C21 0.734 . S
C188 C52 0.639 . S
C190 C30 0.624 . S
C199 C29 0.743 . S
C201 C51 0.739 . S
C210 C10 0.625 . S
C212 C76 0.634 . S
