# Generated by pormake.
# Topology hex, (8)-cn, num edge types: 1
# Building blocks:
#     Node 0, Type 0, BuildingBlock: EYACOX_clean_sbu_0, # of connection points: 8
#     Edge 1, Type (0, 0), BuildingBlock: ZUJKAS_clean_linker_0, # of connection points: 2
#     Edge 2, Type (0, 0), BuildingBlock: ZUJKAS_clean_linker_0, # of connection points: 2
#     Edge 3, Type (0, 0), BuildingBlock: ZUJKAS_clean_linker_0, # of connection points: 2
#     Edge 4, Type (0, 0), BuildingBlock: ZUJKAS_clean_linker_0, # of connection points: 2
# Relax obj value: 0.029
# Max RMSD: 0.070
# Mean RMSD: 0.070
data_MOF--net-hex--node1-EYACOX_clean_sbu_0--edge1-ZUJKAS_clean_linker_0
_symmetry_space_group_name_H-M    P1
_symmetry_Int_Tables_number       1
_symmetry_cell_setting            triclinic
loop_
_symmetry_equiv_pos_as_xyz
'x, y, z'
_cell_length_a     29.260992
_cell_length_b     28.07758
_cell_length_c     19.686146
_cell_angle_alpha  113.15277
_cell_angle_beta   72.543129
_cell_angle_gamma 141.56308
loop_
_atom_site_label
_atom_site_type_symbol
_atom_site_fract_x
_atom_site_fract_y
_atom_site_fract_z
_atom_type_partial_charge
Eu0 Eu 0.04183 0.92365 0.973 0.0
Eu1 Eu 0.96552 -0.0183 0.02699 0.0
O2 O 0.14158 0.9576 0.95298 0.0
O3 O 0.03425 0.83378 0.93802 0.0
O4 O 0.9685 0.95129 0.90335 0.0
O5 O 0.05985 -0.03606 0.87925 0.0
O6 O 0.92994 0.82239 0.92087 0.0
O7 O 0.87825 0.8508 0.01188 0.0
C8 C 0.13191 0.87175 0.97524 0.0
C9 C 0.18195 0.84288 0.03567 0.0
C10 C 0.10679 0.78487 0.02344 0.0
C11 C 0.08165 0.79931 0.99353 0.0
C12 C 0.23321 0.91277 0.01392 0.0
C13 C 0.20826 0.92739 0.9835 0.0
C14 C 0.10515 0.88499 0.93995 0.0
C15 C 0.01614 0.9579 0.85908 0.0
O16 O 0.86836 0.94939 0.03185 0.0
O17 O 0.97028 0.0701 0.08326 0.0
C18 C 0.87241 0.80184 0.95442 0.0
O19 O 0.99134 -0.01084 0.12991 0.0
O20 O 0.98787 0.89694 0.08201 0.0
O21 O 0.08536 0.08418 0.00451 0.0
O22 O 0.11627 0.04733 0.04639 0.0
C23 C 0.88706 0.05024 0.03858 0.0
C24 C 0.7969 0.02877 0.00498 0.0
C25 C 0.81312 0.00226 0.02927 0.0
C26 C 0.85442 0.10294 0.99037 0.0
C27 C 0.92759 0.1531 0.00301 0.0
C28 C 0.94422 0.12694 0.0271 0.0
C29 C 0.90261 0.02135 0.06556 0.0
C30 C 0.98686 0.9413 0.13813 0.0
C31 C 0.13531 0.1007 0.02724 0.0
H32 H 0.20134 0.82984 0.05553 0.0
H33 H 0.02333 0.75304 0.98254 0.0
H34 H 0.24793 -0.01942 0.96475 0.0
H35 H 0.76849 0.94521 0.04193 0.0
H36 H 0.84169 0.12467 0.97465 0.0
H37 H 1.001 0.16666 0.03807 0.0
H38 H 0.96875 0.20615 0.88456 0.0
H39 H 1.00802 0.32314 0.89143 0.0
H40 H 0.04087 0.40094 0.1269 0.0
H41 H 1.00068 0.28306 0.11998 0.0
H42 H 0.93594 0.37152 0.08786 0.0
H43 H 0.1888 0.56298 0.92687 0.0
H44 H 0.12037 0.45959 0.87766 0.0
H45 H 0.16231 0.49242 0.9601 0.0
C46 C 0.98869 0.25078 0.93698 0.0
C47 C 0.9823 0.23614 0.00166 0.0
C48 C 1.01063 0.31741 0.94103 0.0
C49 C 0.02705 0.37062 0.00976 0.0
C50 C 0.02845 0.36058 0.07332 0.0
H51 H 0.08213 0.74501 0.14583 0.0
H52 H 0.04956 0.63351 0.1445 0.0
C53 C 1.00661 0.29392 0.06923 0.0
C54 C 0.0299 0.42742 0.01654 0.0
H55 H 0.11564 0.57892 0.95182 0.0
C56 C 0.97582 0.41757 0.05884 0.0
C57 C 0.08115 0.48652 0.97777 0.0
C58 C 0.14187 0.50163 0.93358 0.0
C59 C 0.97092 0.4644 0.06241 0.0
C60 C 0.02177 0.52297 0.02315 0.0
C61 C 0.07609 0.53317 0.98118 0.0
C62 C 0.02273 0.57766 0.02769 0.0
C63 C 0.91053 0.44984 0.10678 0.0
C64 C 0.01487 0.58098 0.96327 0.0
C65 C 0.03255 0.64415 0.96423 0.0
C66 C 0.05934 0.7053 0.0294 0.0
C67 C 0.06043 0.69781 0.09525 0.0
C68 C 0.04231 0.63443 0.09438 0.0
H69 H 0.86564 0.39073 0.11837 0.0
H70 H 0.93366 0.49601 0.16041 0.0
H71 H 0.88691 0.45373 0.07735 0.0
H72 H 0.99994 0.53772 0.91125 0.0
H73 H 0.03265 0.64943 0.91253 0.0
H74 H 0.70989 0.00941 0.12174 0.0
H75 H 0.61105 -0.01139 0.12295 0.0
H76 H 0.62202 0.94399 0.88584 0.0
H77 H 0.72052 -0.03529 0.88475 0.0
H78 H 0.63982 0.09079 0.07094 0.0
H79 H 0.39973 0.77553 0.92289 0.0
H80 H 0.47255 0.80997 0.96259 0.0
H81 H 0.48533 0.82591 0.87559 0.0
C82 C 0.6884 -0.00898 0.06969 0.0
C83 C 0.72172 -0.0129 0.00301 0.0
C84 C 0.63274 -0.01967 0.07046 0.0
C85 C 0.60902 -0.03532 0.00447 0.0
C86 C 0.63845 0.95472 0.9373 0.0
H87 H 0.31695 0.93104 0.89382 0.0
H88 H 0.41946 0.95708 0.89024 0.0
C89 C 0.69435 -0.03405 0.9366 0.0
C90 C 0.56076 -0.03141 0.00636 0.0
H91 H 0.39772 0.86285 0.94196 0.0
C92 C 0.58661 0.04077 0.04319 0.0
C93 C 0.49185 0.90375 0.96936 0.0
C94 C 0.46024 0.82414 0.93086 0.0
C95 C 0.54587 0.05013 0.04322 0.0
C96 C 0.4768 -0.01482 0.0064 0.0
C97 C 0.45103 0.91302 0.96953 0.0
C98 C 0.42791 -0.01147 0.00895 0.0
C99 C 0.57789 0.12996 0.0815 0.0
C100 C 0.40125 0.00177 0.07687 0.0
C101 C 0.34353 -0.01191 0.0789 0.0
C102 C 0.311 -0.03963 0.01306 0.0
C103 C 0.34212 0.95422 0.94536 0.0
C104 C 0.39989 -0.0322 0.94331 0.0
H105 H 0.63875 0.17865 0.08626 0.0
H106 H 0.56308 0.14291 0.05164 0.0
H107 H 0.55576 0.12978 0.13821 0.0
H108 H 0.42083 0.01634 0.12822 0.0
H109 H 0.31938 -0.00859 0.13169 0.0
H110 H 0.24706 0.12803 0.02785 0.0
H111 H 0.3738 0.23597 0.99352 0.0
H112 H 0.32813 0.34127 0.96691 0.0
H113 H 0.19931 0.23075 -0.00184 0.0
H114 H 0.40578 0.33655 0.85209 0.0
H115 H 0.53181 0.45869 0.12031 0.0
H116 H 0.47491 0.3557 0.07924 0.0
H117 H 0.43442 0.38599 0.10895 0.0
C118 C 0.26394 0.17458 0.01568 0.0
C119 C 0.21346 0.1714 0.01613 0.0
C120 C 0.33647 0.23621 -0.00389 0.0
C121 C 0.36019 0.29677 0.97871 0.0
C122 C 0.31042 0.29472 0.98029 0.0
H123 H 0.74939 0.75502 0.95504 0.0
H124 H 0.62347 0.61889 0.93546 0.0
C125 C 0.23727 0.23215 -0.00133 0.0
C126 C 0.43696 0.36197 0.95818 0.0
H127 H 0.61294 0.51401 0.02286 0.0
C128 C 0.4512 0.37526 0.8892 0.0
C129 C 0.49574 0.41172 0.00681 0.0
C130 C 0.48357 0.4029 0.0832 0.0
C131 C 0.52317 0.4389 0.86843 0.0
C132 C 0.58136 0.48903 0.91759 0.0
C133 C 0.56752 0.47392 0.98505 0.0
C134 C 0.65545 0.56533 0.90719 0.0
C135 C 0.53682 0.45393 0.79542 0.0
C136 C 0.7143 0.579 0.89557 0.0
C137 C 0.78627 0.65663 0.90606 0.0
C138 C 0.79911 0.72056 0.93025 0.0
C139 C 0.74026 0.70625 0.93725 0.0
C140 C 0.6687 0.62885 0.92524 0.0
H141 H 0.48821 0.40156 0.75773 0.0
H142 H 0.54951 0.50516 0.80521 0.0
H143 H 0.58497 0.46943 0.768 0.0
H144 H 0.70437 0.5302 0.88281 0.0
H145 H 0.83125 0.66682 0.90043 0.0
H146 H 0.899 0.86325 0.77494 0.0
H147 H 0.89888 0.86112 0.65 0.0
H148 H 0.13608 0.04717 0.64843 0.0
H149 H 0.13587 0.04612 0.77271 0.0
H150 H 0.95321 -0.02517 0.60795 0.0
H151 H 0.08825 0.89703 0.45131 0.0
H152 H 0.05765 0.89 0.54486 0.0
H153 H 0.14315 -0.01529 0.52698 0.0
C154 C 0.95101 0.90296 0.74742 0.0
C155 C 0.01746 0.95483 0.78274 0.0
C156 C 0.95094 0.90177 0.67624 0.0
C157 C 0.0174 0.95352 0.6397 0.0
C158 C 0.08409 0.00535 0.67489 0.0
H159 H 0.03438 0.05778 0.26504 0.0
H160 H 0.0441 0.0638 0.38772 0.0
C161 C 0.08403 0.0051 0.74578 0.0
C162 C 0.01591 0.95539 0.56657 0.0
H163 H 0.06653 0.9341 0.38716 0.0
C164 C 0.97778 -0.03437 0.55957 0.0
C165 C 0.0476 0.94286 0.50361 0.0
C166 C 0.08584 0.92725 0.50673 0.0
C167 C 0.96919 -0.03779 0.49108 0.0
C168 C 1.00239 0.95165 0.42848 0.0
C169 C 0.04144 0.94253 0.43551 0.0
C170 C 0.99585 0.94794 0.3547 0.0
C171 C 0.92254 -0.03278 0.48627 0.0
C172 C 0.96708 0.88161 0.29528 0.0
C173 C 0.96276 0.87868 0.22491 0.0
C174 C 0.98657 0.94178 0.21312 0.0
C175 C 0.01451 0.00772 0.27286 0.0
C176 C 0.01995 0.01118 0.34297 0.0
H177 H 0.8839 0.95106 0.53313 0.0
H178 H 0.95874 0.02917 0.48849 0.0
H179 H 0.89015 0.92744 0.43385 0.0
H180 H 0.94828 0.83225 0.30332 0.0
H181 H 0.94109 0.82719 0.17975 0.0
loop_
_geom_bond_atom_site_label_1
_geom_bond_atom_site_label_2
_geom_bond_distance
_geom_bond_site_symmetry_2
_ccdc_geom_bond_type
Eu0 O2 2.472 . S
Eu0 O3 2.507 1_455 S
Eu0 O5 2.336 1_455 S
Eu0 O6 2.389 1_455 S
Eu0 C14 2.835 . S
Eu0 O20 2.396 1_556 S
Eu0 O22 2.323 1_565 S
Eu1 O4 2.396 1_654 S
Eu1 O7 2.323 1_545 S
Eu1 O16 2.472 . S
Eu1 O17 2.507 1_655 S
Eu1 O19 2.336 1_655 S
Eu1 O21 2.389 1_655 S
Eu1 C29 2.835 . S
O2 Eu0 2.472 . S
O2 C14 1.258 . S
O3 Eu0 2.507 1_655 S
O3 C14 1.246 1_655 S
O4 Eu1 2.396 1_456 S
O4 C15 1.216 1_445 S
O5 Eu0 2.336 1_655 S
O5 C15 1.279 . S
O6 Eu0 2.389 1_655 S
O6 C18 1.238 . S
O7 Eu1 2.323 1_565 S
O7 C18 1.249 1_554 S
C8 C11 1.390 . S
C8 C13 1.370 . S
C8 C14 1.489 . S
C9 C10 1.345 . S
C9 C12 1.413 . S
C9 H32 0.931 . S
C10 C9 1.345 . S
C10 C11 1.417 1_554 S
C11 C8 1.390 . S
C11 C10 1.417 1_556 S
C11 H33 0.930 1_455 S
C12 C9 1.413 . S
C12 C13 1.396 1_554 S
C13 C8 1.370 . S
C13 C12 1.396 1_556 S
C13 H34 0.932 1_565 S
C14 Eu0 2.835 . S
C14 O2 1.258 . S
C14 O3 1.246 1_455 S
C14 C8 1.489 . S
C15 O4 1.216 1_665 S
C15 O5 1.279 . S
O16 Eu1 2.472 . S
O16 C29 1.258 . S
O17 Eu1 2.507 1_455 S
O17 C29 1.246 1_455 S
C18 O6 1.238 . S
C18 O7 1.249 1_556 S
O19 Eu1 2.336 1_455 S
O19 C30 1.279 . S
O20 Eu0 2.396 1_554 S
O20 C30 1.216 1_565 S
O21 Eu1 2.389 1_455 S
O21 C31 1.238 . S
O22 Eu0 2.323 1_545 S
O22 C31 1.249 1_556 S
C23 C25 1.370 . S
C23 C28 1.390 . S
C23 C29 1.489 . S
C24 C25 1.396 . S
C24 C26 1.413 1_554 S
C25 C23 1.370 . S
C25 C24 1.396 . S
C25 H35 0.932 1_545 S
C26 C24 1.413 1_556 S
C26 C27 1.345 . S
C26 H36 0.931 . S
C27 C26 1.345 . S
C27 C28 1.419 1_556 S
C28 C23 1.390 . S
C28 C27 1.419 1_554 S
C28 H37 0.930 1_655 S
C29 Eu1 2.835 . S
C29 O16 1.258 . S
C29 O17 1.246 1_655 S
C29 C23 1.489 . S
C30 O19 1.279 . S
C30 O20 1.216 1_545 S
C31 O21 1.238 . S
C31 O22 1.249 1_554 S
H32 C9 0.931 . S
H33 C11 0.930 1_655 S
H34 C13 0.932 1_545 S
H35 C25 0.932 1_565 S
H36 C26 0.931 . S
H37 C28 0.930 1_455 S
H38 C46 0.929 . S
H39 C48 0.930 . S
H40 C50 0.930 . S
H41 C53 0.929 . S
H42 C56 0.930 . S
H43 C58 0.960 . S
H44 C58 0.960 . S
H45 C58 0.960 . S
C46 H38 0.929 . S
C46 C47 1.377 . S
C46 C48 1.384 . S
C47 C46 1.377 . S
C47 C53 1.390 1_656 S
C48 H39 0.930 . S
C48 C46 1.384 . S
C48 C49 1.372 . S
C49 C48 1.372 . S
C49 C50 1.400 1_656 S
C49 C54 1.486 . S
C50 H40 0.930 . S
C50 C49 1.400 1_454 S
C50 C53 1.386 . S
H51 C67 0.930 . S
H52 C68 0.931 . S
C53 H41 0.929 . S
C53 C47 1.390 1_454 S
C53 C50 1.386 . S
C54 C49 1.486 . S
C54 C56 1.392 1_556 S
C54 C57 1.409 1_655 S
H55 C61 0.930 . S
C56 H42 0.930 . S
C56 C54 1.392 1_554 S
C56 C59 1.403 . S
C57 C54 1.409 1_455 S
C57 C58 1.524 . S
C57 C61 1.400 . S
C58 H43 0.960 . S
C58 H44 0.960 . S
C58 H45 0.960 . S
C58 C57 1.524 . S
C59 C56 1.403 . S
C59 C60 1.392 1_655 S
C59 C63 1.495 . S
C60 C59 1.392 1_455 S
C60 C61 1.392 1_554 S
C60 C62 1.471 . S
C61 H55 0.930 . S
C61 C57 1.400 . S
C61 C60 1.392 1_556 S
C62 C60 1.471 . S
C62 C64 1.381 1_454 S
C62 C68 1.383 . S
C63 C59 1.495 . S
C63 H69 0.959 . S
C63 H70 0.961 . S
C63 H71 0.960 . S
C64 C62 1.381 1_656 S
C64 C65 1.394 . S
C64 H72 0.930 . S
C65 C64 1.394 . S
C65 C66 1.383 1_656 S
C65 H73 0.929 . S
C66 C65 1.383 1_454 S
C66 C67 1.377 . S
C67 H51 0.930 . S
C67 C66 1.377 . S
C67 C68 1.379 . S
C68 H52 0.931 . S
C68 C62 1.383 . S
C68 C67 1.379 . S
H69 C63 0.959 . S
H70 C63 0.961 . S
H71 C63 0.960 . S
H72 C64 0.930 . S
H73 C65 0.929 . S
H74 C82 0.937 . S
H75 C84 0.930 1_565 S
H76 C86 0.930 . S
H77 C89 0.929 . S
H78 C92 0.930 . S
H79 C94 0.960 . S
H80 C94 0.960 . S
H81 C94 0.960 . S
C82 H74 0.937 . S
C82 C83 1.388 . S
C82 C84 1.384 . S
C83 C82 1.388 . S
C83 C89 1.375 1_554 S
C84 H75 0.930 1_545 S
C84 C82 1.384 . S
C84 C85 1.372 . S
C85 C84 1.372 . S
C85 C86 1.400 1_554 S
C85 C90 1.490 . S
C86 H76 0.930 . S
C86 C85 1.400 1_556 S
C86 C89 1.386 . S
H87 C103 0.930 . S
H88 C104 0.931 . S
C89 H77 0.929 . S
C89 C83 1.375 1_556 S
C89 C86 1.386 . S
C90 C85 1.490 . S
C90 C92 1.395 . S
C90 C93 1.403 1_544 S
H91 C97 0.930 . S
C92 H78 0.930 . S
C92 C90 1.395 . S
C92 C95 1.403 . S
C93 C90 1.403 1_566 S
C93 C94 1.524 . S
C93 C97 1.400 . S
C94 H79 0.960 . S
C94 H80 0.960 . S
C94 H81 0.960 . S
C94 C93 1.524 . S
C95 C92 1.403 . S
C95 C96 1.392 . S
C95 C99 1.495 . S
C96 C95 1.392 . S
C96 C97 1.385 1_544 S
C96 C98 1.478 . S
C97 H91 0.930 . S
C97 C93 1.400 . S
C97 C96 1.385 1_566 S
C98 C96 1.478 . S
C98 C100 1.381 1_545 S
C98 C104 1.383 1_554 S
C99 C95 1.495 . S
C99 H105 0.959 . S
C99 H106 0.961 . S
C99 H107 0.960 . S
C100 C98 1.381 1_565 S
C100 C101 1.394 . S
C100 H108 0.930 . S
C101 C100 1.394 . S
C101 C102 1.383 . S
C101 H109 0.929 . S
C102 C101 1.383 . S
C102 C103 1.377 1_564 S
C103 H87 0.930 . S
C103 C102 1.377 1_546 S
C103 C104 1.379 . S
C104 H88 0.931 . S
C104 C98 1.383 1_556 S
C104 C103 1.379 . S
H105 C99 0.959 . S
H106 C99 0.961 . S
H107 C99 0.960 . S
H108 C100 0.930 . S
H109 C101 0.929 . S
H110 C118 0.929 . S
H111 C120 0.930 . S
H112 C122 0.930 . S
H113 C125 0.929 . S
H114 C128 0.930 . S
H115 C130 0.960 . S
H116 C130 0.960 . S
H117 C130 0.960 . S
C118 H110 0.929 . S
C118 C119 1.376 1_556 S
C118 C120 1.384 . S
C119 C118 1.376 1_554 S
C119 C125 1.390 . S
C120 H111 0.930 . S
C120 C118 1.384 . S
C120 C121 1.372 . S
C121 C120 1.372 . S
C121 C122 1.400 1_556 S
C121 C126 1.490 . S
C122 H112 0.930 . S
C122 C121 1.400 1_554 S
C122 C125 1.386 . S
H123 C139 0.930 . S
H124 C140 0.931 . S
C125 H113 0.929 . S
C125 C119 1.390 . S
C125 C122 1.386 . S
C126 C121 1.490 . S
C126 C128 1.395 . S
C126 C129 1.403 1_556 S
H127 C133 0.930 . S
C128 H114 0.930 . S
C128 C126 1.395 . S
C128 C131 1.403 . S
C129 C126 1.403 1_554 S
C129 C130 1.524 . S
C129 C133 1.400 . S
C130 H115 0.960 . S
C130 H116 0.960 . S
C130 H117 0.960 . S
C130 C129 1.524 . S
C131 C128 1.403 . S
C131 C132 1.392 . S
C131 C135 1.495 . S
C132 C131 1.392 . S
C132 C133 1.385 1_556 S
C132 C134 1.478 . S
C133 H127 0.930 . S
C133 C129 1.400 . S
C133 C132 1.385 1_554 S
C134 C132 1.478 . S
C134 C136 1.381 . S
C134 C140 1.383 1_556 S
C135 C131 1.495 . S
C135 H141 0.959 . S
C135 H142 0.961 . S
C135 H143 0.960 . S
C136 C134 1.381 . S
C136 C137 1.394 . S
C136 H144 0.930 . S
C137 C136 1.394 . S
C137 C138 1.383 . S
C137 H145 0.929 . S
C138 C137 1.383 . S
C138 C139 1.377 1_556 S
C139 H123 0.930 . S
C139 C138 1.377 1_554 S
C139 C140 1.379 . S
C140 H124 0.931 . S
C140 C134 1.383 1_554 S
C140 C139 1.379 . S
H141 C135 0.959 . S
H142 C135 0.961 . S
H143 C135 0.960 . S
H144 C136 0.930 . S
H145 C137 0.929 . S
H146 C154 0.929 . S
H147 C156 0.930 . S
H148 C158 0.930 . S
H149 C161 0.929 . S
H150 C164 0.930 . S
H151 C166 0.960 . S
H152 C166 0.960 . S
H153 C166 0.960 1_545 S
C154 H146 0.929 . S
C154 C155 1.379 . S
C154 C156 1.384 . S
C155 C154 1.379 . S
C155 C161 1.383 1_665 S
C156 H147 0.930 . S
C156 C154 1.384 . S
C156 C157 1.372 . S
C157 C156 1.372 . S
C157 C158 1.400 1_665 S
C157 C162 1.490 . S
C158 H148 0.930 . S
C158 C157 1.400 1_445 S
C158 C161 1.386 . S
H159 C175 0.930 . S
H160 C176 0.931 . S
C161 H149 0.929 . S
C161 C155 1.383 1_445 S
C161 C158 1.386 . S
C162 C157 1.490 . S
C162 C164 1.395 . S
C162 C165 1.403 1_655 S
H163 C169 0.930 . S
C164 H150 0.930 . S
C164 C162 1.395 . S
C164 C167 1.403 . S
C165 C162 1.403 1_455 S
C165 C166 1.524 . S
C165 C169 1.400 . S
C166 H151 0.960 . S
C166 H152 0.960 . S
C166 H153 0.960 1_565 S
C166 C165 1.524 . S
C167 C164 1.403 . S
C167 C168 1.392 . S
C167 C171 1.495 . S
C168 C167 1.392 . S
C168 C169 1.385 1_655 S
C168 C170 1.481 . S
C169 H163 0.930 . S
C169 C165 1.400 . S
C169 C168 1.385 1_455 S
C170 C168 1.481 . S
C170 C172 1.381 . S
C170 C176 1.380 1_665 S
C171 C167 1.495 . S
C171 H177 0.959 . S
C171 H178 0.961 1_565 S
C171 H179 0.960 . S
C172 C170 1.381 . S
C172 C173 1.394 . S
C172 H180 0.930 . S
C173 C172 1.394 . S
C173 C174 1.381 1_565 S
C173 H181 0.929 . S
C174 C173 1.381 1_545 S
C174 C175 1.377 1_655 S
C175 H159 0.930 . S
C175 C174 1.377 1_455 S
C175 C176 1.379 . S
C176 H160 0.931 . S
C176 C170 1.380 1_445 S
C176 C175 1.379 . S
H177 C171 0.959 . S
H178 C171 0.961 1_545 S
H179 C171 0.960 . S
H180 C172 0.930 . S
H181 C173 0.929 . S
C47 C27 1.124 . S
C66 C10 1.147 . S
C83 C24 2.269 . S
C102 C12 2.274 . S
C119 C31 0.576 . S
C138 C18 0.573 . S
C155 C15 1.498 . S
C174 C30 1.500 1_655 S
