# Generated by pormake.
# Topology hex, (8)-cn, num edge types: 1
# Building blocks:
#     Node 0, Type 0, BuildingBlock: EBIMEJ_clean_sbu_0, # of connection points: 8
#     Edge 1, Type (0, 0), BuildingBlock: FUNLAD_clean_linker_0, # of connection points: 2
#     Edge 2, Type (0, 0), BuildingBlock: FUNLAD_clean_linker_0, # of connection points: 2
#     Edge 3, Type (0, 0), BuildingBlock: FUNLAD_clean_linker_0, # of connection points: 2
#     Edge 4, Type (0, 0), BuildingBlock: FUNLAD_clean_linker_0, # of connection points: 2
# Relax obj value: 0.013
# Max RMSD: 0.052
# Mean RMSD: 0.052
data_MOF--net-hex--node1-EBIMEJ_clean_sbu_0--edge1-FUNLAD_clean_linker_0
_symmetry_space_group_name_H-M    P1
_symmetry_Int_Tables_number       1
_symmetry_cell_setting            triclinic
loop_
_symmetry_equiv_pos_as_xyz
'x, y, z'
_cell_length_a     19.491752
_cell_length_b     23.076266
_cell_length_c     18.714491
_cell_angle_alpha  72.919872
_cell_angle_beta   115.72694
_cell_angle_gamma 124.24977
loop_
_atom_site_label
_atom_site_type_symbol
_atom_site_fract_x
_atom_site_fract_y
_atom_site_fract_z
_atom_type_partial_charge
Co0 Co 1.00203 0.88685 0.98941 0.0
Co1 Co 0.91662 0.96148 0.01895 0.0
Co2 Co 0.09792 0.04985 0.00775 0.0
H3 H 0.04179 0.96689 0.01611 0.0
O4 O 0.02118 0.95236 0.05437 0.0
H5 H 0.97385 0.04462 0.01226 0.0
O6 O 0.99425 0.05884 0.97408 0.0
Co7 Co 0.0145 0.12589 0.0369 0.0
O8 O 0.88363 0.09219 0.98021 0.0
O9 O 0.81457 0.97489 0.98052 0.0
O10 O 0.14388 0.19418 0.05004 0.0
O11 O 0.17267 0.15104 0.98066 0.0
O12 O 0.94901 0.7944 0.94215 0.0
O13 O 0.05367 0.82115 0.04889 0.0
O14 O 0.05633 0.09012 0.14865 0.0
O15 O 0.94622 0.97974 0.13114 0.0
C16 C 0.19458 0.99156 0.00599 0.0
C17 C 0.83065 0.80711 0.02729 0.0
C18 C 0.0194 0.23482 0.04245 0.0
C19 C 0.99776 0.9819 0.84944 0.0
C20 C 0.8135 0.03207 0.96521 0.0
C21 C 0.19154 0.20133 0.01457 0.0
C22 C 1.00101 0.7765 0.99728 0.0
C23 C 0.00851 0.03002 0.1764 0.0
O24 O 0.12236 0.93554 0.97884 0.0
O25 O 0.19892 0.03644 0.03697 0.0
O26 O 0.84039 0.86058 0.04682 0.0
O27 O 0.88292 0.81157 0.99967 0.0
O28 O 0.06364 0.21011 0.09812 0.0
O29 O 0.97233 0.19758 0.98379 0.0
O30 O 0.95263 0.92179 0.87919 0.0
O31 O 0.06183 0.03257 0.89349 0.0
C32 C 0.97074 0.32361 0.98 0.0
C33 C 0.02365 0.30045 0.04477 0.0
C34 C 0.97585 0.38633 0.98127 0.0
C35 C 0.03377 0.42728 0.04785 0.0
C36 C 0.08689 0.40401 0.11234 0.0
C37 C 0.08171 0.34125 0.11102 0.0
C38 C 0.04338 0.49558 0.05122 0.0
C39 C 0.98134 0.51369 0.0059 0.0
C40 C 0.99001 0.58227 0.00643 0.0
C41 C 0.92919 0.59956 0.94451 0.0
C42 C 0.93322 0.66258 0.9417 0.0
C43 C 0.99805 0.71008 1.00108 0.0
H44 H 0.10208 0.61854 0.11628 0.0
C45 C 0.05878 0.69308 0.06357 0.0
C46 C 0.05489 0.62985 0.06641 0.0
H47 H 0.10918 0.72854 0.11047 0.0
H48 H 0.92583 0.29353 0.92781 0.0
H49 H 0.93566 0.40294 0.92907 0.0
H50 H 0.13266 0.43449 0.16415 0.0
H51 H 0.12366 0.32494 0.16172 0.0
H52 H 0.10392 0.53148 0.09329 0.0
H53 H 0.92038 0.47675 0.96508 0.0
H54 H 0.87821 0.56419 0.89762 0.0
H55 H 0.88519 0.67397 0.89289 0.0
C56 C 0.72432 0.09064 0.91776 0.0
C57 C 0.72777 0.02867 0.93375 0.0
C58 C 0.64504 0.08722 0.90019 0.0
C59 C 0.56809 0.02174 0.89875 0.0
C60 C 0.56983 0.96009 0.90746 0.0
C61 C 0.6491 0.96341 0.92518 0.0
C62 C 0.48728 0.0154 0.89569 0.0
C63 C 0.49032 0.06043 0.93086 0.0
C64 C 0.41333 0.0455 0.94627 0.0
C65 C 0.42778 0.07699 0.00915 0.0
C66 C 0.35704 0.05948 0.02966 0.0
C67 C 0.27094 1.00966 0.98789 0.0
H68 H 0.31177 0.97546 0.85088 0.0
C69 C 0.25637 0.98 0.92341 0.0
C70 C 0.32648 0.99837 0.90211 0.0
H71 H 0.19028 0.9434 0.88803 0.0
H72 H 0.78337 0.14187 0.92189 0.0
H73 H 0.64483 0.13576 0.89042 0.0
H74 H 0.51084 0.90904 0.90535 0.0
H75 H 0.64922 0.91471 0.93585 0.0
H76 H 0.42615 0.96683 0.87511 0.0
H77 H 0.55351 0.10542 0.95803 0.0
H78 H 0.49409 0.11415 0.04351 0.0
H79 H 0.36975 0.08413 0.07858 0.0
C80 C 0.29851 0.32291 0.0608 0.0
C81 C 0.27251 0.27038 0.01557 0.0
C82 C 0.37471 0.38818 0.06296 0.0
C83 C 0.42647 0.40293 0.01913 0.0
C84 C 0.40121 0.35028 0.97466 0.0
C85 C 0.32488 0.28466 0.97267 0.0
C86 C 0.50849 0.47157 0.02041 0.0
C87 C 0.52354 0.53202 0.03621 0.0
C88 C 0.6046 0.60156 0.03597 0.0
C89 C 0.62042 0.65822 0.06708 0.0
C90 C 0.6943 0.72505 0.06566 0.0
C91 C 0.754 0.73649 0.03306 0.0
H92 H 0.65507 0.57266 0.9767 0.0
C93 C 0.73844 0.67964 1.00258 0.0
C94 C 0.6647 0.61337 1.00345 0.0
H95 H 0.78241 0.68631 0.97628 0.0
H96 H 0.26049 0.31357 0.09552 0.0
H97 H 0.39338 0.4261 0.10039 0.0
H98 H 0.44036 0.36009 0.94085 0.0
H99 H 0.30692 0.24536 0.93743 0.0
H100 H 0.55658 0.47133 0.00622 0.0
H101 H 0.47396 0.53134 0.04918 0.0
H102 H 0.57517 0.65091 0.09223 0.0
H103 H 0.70417 0.76766 0.08951 0.0
C104 C 0.05011 0.04544 0.73278 0.0
C105 C 0.98499 0.98891 0.76371 0.0
C106 C 0.04411 0.04648 0.65507 0.0
C107 C 0.97268 0.9909 0.60647 0.0
C108 C 0.90552 0.93639 0.6361 0.0
C109 C 0.91178 0.93508 0.71382 0.0
C110 C 0.96519 0.98799 0.52463 0.0
C111 C 0.03533 0.01967 0.50058 0.0
C112 C 0.02841 0.01773 0.41865 0.0
C113 C 0.09673 0.07228 0.39046 0.0
C114 C 0.09168 0.07472 0.31292 0.0
C115 C 0.01852 0.022 0.26161 0.0
H116 H 0.90415 0.91898 0.38884 0.0
C117 C 0.95197 0.96542 0.29094 0.0
C118 C 0.95673 0.9633 0.36857 0.0
H119 H 0.89485 0.92377 0.25323 0.0
H120 H 0.10733 0.08787 0.76939 0.0
H121 H 0.09568 0.09085 0.63365 0.0
H122 H 0.84911 0.89342 0.59977 0.0
H123 H 0.86015 0.89081 0.73543 0.0
H124 H 0.89937 0.95714 0.48374 0.0
H125 H 0.1011 0.05028 0.5417 0.0
H126 H 0.15332 0.11441 0.42788 0.0
H127 H 0.1445 0.11895 0.29269 0.0
loop_
_geom_bond_atom_site_label_1
_geom_bond_atom_site_label_2
_geom_bond_distance
_geom_bond_site_symmetry_2
_ccdc_geom_bond_type
Co0 H3 2.400 1_556 S
Co0 O4 2.009 1_556 S
Co0 O12 2.115 1_455 S
Co0 O13 2.315 1_556 S
Co0 O24 2.053 . S
Co0 O27 2.094 1_455 S
Co0 O30 2.122 1_455 S
Co1 O4 2.126 1_655 S
Co1 H5 2.388 1_564 S
Co1 O6 2.053 1_564 S
Co1 O9 2.047 1_554 S
Co1 O15 2.113 . S
Co1 O26 2.063 . S
Co2 H3 2.388 1_546 S
Co2 O4 2.053 1_546 S
Co2 O6 2.126 1_455 S
Co2 O11 2.063 . S
Co2 O25 2.047 1_556 S
Co2 O31 2.113 . S
H3 Co0 2.400 1_554 S
H3 Co2 2.388 1_564 S
H3 O4 0.760 . S
O4 Co0 2.009 1_554 S
O4 Co1 2.126 1_455 S
O4 Co2 2.053 1_564 S
O4 H3 0.760 . S
H5 Co1 2.388 1_546 S
H5 O6 0.760 . S
H5 Co7 2.400 1_556 S
O6 Co1 2.053 1_546 S
O6 Co2 2.126 1_655 S
O6 H5 0.760 . S
O6 Co7 2.009 1_556 S
Co7 H5 2.400 1_554 S
Co7 O6 2.009 1_554 S
Co7 O8 2.053 . S
Co7 O10 2.094 1_655 S
Co7 O14 2.122 1_655 S
Co7 O28 2.115 1_655 S
Co7 O29 2.315 1_554 S
O8 Co7 2.053 . S
O8 C20 1.259 . S
O9 Co1 2.047 1_556 S
O9 C20 1.257 1_566 S
O10 Co7 2.094 1_455 S
O10 C21 1.253 . S
O11 Co2 2.063 . S
O11 C21 1.268 1_556 S
O12 Co0 2.115 1_655 S
O12 C22 1.281 1_556 S
O13 Co0 2.315 1_554 S
O13 C22 1.252 1_455 S
O14 Co7 2.122 1_455 S
O14 C23 1.272 1_455 S
O15 Co1 2.113 . S
O15 C23 1.245 1_565 S
C16 O24 1.259 . S
C16 O25 1.257 1_566 S
C17 O26 1.268 1_556 S
C17 O27 1.253 . S
C18 O28 1.281 1_556 S
C18 O29 1.252 1_455 S
C19 O30 1.272 1_455 S
C19 O31 1.245 1_565 S
C20 O8 1.259 . S
C20 O9 1.257 1_544 S
C21 O10 1.253 . S
C21 O11 1.268 1_554 S
C22 O12 1.281 1_554 S
C22 O13 1.252 1_655 S
C23 O14 1.272 1_655 S
C23 O15 1.245 1_545 S
O24 Co0 2.053 . S
O24 C16 1.259 . S
O25 Co2 2.047 1_554 S
O25 C16 1.257 1_544 S
O26 Co1 2.063 . S
O26 C17 1.268 1_554 S
O27 Co0 2.094 1_655 S
O27 C17 1.253 . S
O28 Co7 2.115 1_455 S
O28 C18 1.281 1_554 S
O29 Co7 2.315 1_556 S
O29 C18 1.252 1_655 S
O30 Co0 2.122 1_655 S
O30 C19 1.272 1_655 S
O31 Co2 2.113 . S
O31 C19 1.245 1_545 S
C32 C33 1.386 1_655 S
C32 C34 1.383 . S
C32 H48 0.951 . S
C33 C32 1.386 1_455 S
C33 C37 1.383 1_556 S
C34 C32 1.383 . S
C34 C35 1.402 1_656 S
C34 H49 0.951 . S
C35 C34 1.402 1_454 S
C35 C36 1.375 . S
C35 C38 1.481 . S
C36 C35 1.375 . S
C36 C37 1.367 . S
C36 H50 0.951 . S
C37 C33 1.383 1_554 S
C37 C36 1.367 . S
C37 H51 0.950 . S
C38 C35 1.481 . S
C38 C39 1.297 1_454 S
C38 H52 0.950 . S
C39 C38 1.297 1_656 S
C39 C40 1.479 1_556 S
C39 H53 0.950 . S
C40 C39 1.479 1_554 S
C40 C41 1.375 1_554 S
C40 C46 1.404 1_655 S
C41 C40 1.375 1_556 S
C41 C42 1.369 . S
C41 H54 0.950 . S
C42 C41 1.369 . S
C42 C43 1.392 1_556 S
C42 H55 0.951 . S
C43 C42 1.392 1_554 S
C43 C45 1.384 1_655 S
H44 C46 0.949 . S
C45 C43 1.384 1_455 S
C45 C46 1.385 . S
C45 H47 0.950 . S
C46 C40 1.404 1_455 S
C46 H44 0.949 . S
C46 C45 1.385 . S
H47 C45 0.950 . S
H48 C32 0.951 . S
H49 C34 0.951 . S
H50 C36 0.951 . S
H51 C37 0.950 . S
H52 C38 0.950 . S
H53 C39 0.950 . S
H54 C41 0.950 . S
H55 C42 0.951 . S
C56 C57 1.366 1_545 S
C56 C58 1.383 . S
C56 H72 0.951 . S
C57 C56 1.366 1_565 S
C57 C61 1.392 1_554 S
C58 C56 1.383 . S
C58 C59 1.402 1_544 S
C58 H73 0.951 . S
C59 C58 1.402 1_566 S
C59 C60 1.375 . S
C59 C62 1.481 . S
C60 C59 1.375 . S
C60 C61 1.367 . S
C60 H74 0.951 . S
C61 C57 1.392 1_556 S
C61 C60 1.367 . S
C61 H75 0.950 . S
C62 C59 1.481 . S
C62 C63 1.297 1_565 S
C62 H76 0.950 . S
C63 C62 1.297 1_545 S
C63 C64 1.479 . S
C63 H77 0.950 . S
C64 C63 1.479 . S
C64 C65 1.375 . S
C64 C70 1.404 1_545 S
C65 C64 1.375 . S
C65 C66 1.369 1_556 S
C65 H78 0.950 1_556 S
C66 C65 1.369 1_554 S
C66 C67 1.392 1_554 S
C66 H79 0.951 . S
C67 C66 1.392 1_556 S
C67 C69 1.384 1_545 S
H68 C70 0.949 . S
C69 C67 1.384 1_565 S
C69 C70 1.385 . S
C69 H71 0.950 . S
C70 C64 1.404 1_565 S
C70 H68 0.949 . S
C70 C69 1.385 . S
H71 C69 0.950 . S
H72 C56 0.951 . S
H73 C58 0.951 . S
H74 C60 0.951 . S
H75 C61 0.950 . S
H76 C62 0.950 . S
H77 C63 0.950 . S
H78 C65 0.950 1_554 S
H79 C66 0.951 . S
C80 C81 1.386 . S
C80 C82 1.383 . S
C80 H96 0.951 . S
C81 C80 1.386 . S
C81 C85 1.383 1_554 S
C82 C80 1.383 . S
C82 C83 1.402 1_554 S
C82 H97 0.951 . S
C83 C82 1.402 1_556 S
C83 C84 1.375 . S
C83 C86 1.481 . S
C84 C83 1.375 . S
C84 C85 1.367 . S
C84 H98 0.951 . S
C85 C81 1.383 1_556 S
C85 C84 1.367 . S
C85 H99 0.950 . S
C86 C83 1.481 . S
C86 C87 1.297 1_556 S
C86 H100 0.950 . S
C87 C86 1.297 1_554 S
C87 C88 1.479 . S
C87 H101 0.950 . S
C88 C87 1.479 . S
C88 C89 1.375 . S
C88 C94 1.404 1_554 S
C89 C88 1.375 . S
C89 C90 1.369 . S
C89 H102 0.950 . S
C90 C89 1.369 . S
C90 C91 1.392 1_554 S
C90 H103 0.951 . S
C91 C90 1.392 1_556 S
C91 C93 1.384 . S
H92 C94 0.949 . S
C93 C91 1.384 . S
C93 C94 1.385 . S
C93 H95 0.950 . S
C94 C88 1.404 1_556 S
C94 H92 0.949 . S
C94 C93 1.385 . S
H95 C93 0.950 . S
H96 C80 0.951 . S
H97 C82 0.951 . S
H98 C84 0.951 . S
H99 C85 0.950 . S
H100 C86 0.950 . S
H101 C87 0.950 . S
H102 C89 0.950 . S
H103 C90 0.951 . S
C104 C105 1.386 1_545 S
C104 C106 1.383 . S
C104 H120 0.951 . S
C105 C104 1.386 1_565 S
C105 C109 1.383 1_455 S
C106 C104 1.383 . S
C106 C107 1.402 1_545 S
C106 H121 0.951 . S
C107 C106 1.402 1_565 S
C107 C108 1.375 1_455 S
C107 C110 1.481 . S
C108 C107 1.375 1_655 S
C108 C109 1.367 . S
C108 H122 0.951 . S
C109 C105 1.383 1_655 S
C109 C108 1.367 . S
C109 H123 0.950 . S
C110 C107 1.481 . S
C110 C111 1.297 1_565 S
C110 H124 0.950 1_455 S
C111 C110 1.297 1_545 S
C111 C112 1.479 . S
C111 H125 0.950 . S
C112 C111 1.479 . S
C112 C113 1.375 . S
C112 C118 1.404 1_545 S
C113 C112 1.375 . S
C113 C114 1.369 . S
C113 H126 0.950 . S
C114 C113 1.369 . S
C114 C115 1.392 . S
C114 H127 0.951 . S
C115 C114 1.392 . S
C115 C117 1.384 1_545 S
H116 C118 0.949 . S
C117 C115 1.384 1_565 S
C117 C118 1.385 . S
C117 H119 0.950 1_455 S
C118 C112 1.404 1_565 S
C118 H116 0.949 . S
C118 C117 1.385 . S
H119 C117 0.950 1_655 S
H120 C104 0.951 . S
H121 C106 0.951 . S
H122 C108 0.951 . S
H123 C109 0.950 . S
H124 C110 0.950 1_655 S
H125 C111 0.950 . S
H126 C113 0.950 . S
H127 C114 0.951 . S
C33 C18 1.789 . S
C43 C22 1.823 . S
C57 C20 0.936 1_565 S
C67 C16 0.939 1_545 S
C81 C21 1.658 . S
C91 C17 1.649 . S
C105 C19 1.435 . S
C115 C23 1.469 1_455 S
