# Generated by pormake.
# Topology pcu, (6)-cn, num edge types: 1
# Building blocks:
#     Node 0, Type 0, BuildingBlock: BETGAK_clean_sbu_0, # of connection points: 6
#     Edge 1, Type (0, 0), BuildingBlock: UVAHIK_clean_linker_0, # of connection points: 2
#     Edge 2, Type (0, 0), BuildingBlock: UVAHIK_clean_linker_0, # of connection points: 2
#     Edge 3, Type (0, 0), BuildingBlock: UVAHIK_clean_linker_0, # of connection points: 2
# Relax obj value: 0.000
# Max RMSD: 0.000
# Mean RMSD: 0.000
data_MOF--net-pcu--node1-BETGAK_clean_sbu_0--edge1-UVAHIK_clean_linker_0
_symmetry_space_group_name_H-M    P1
_symmetry_Int_Tables_number       1
_symmetry_cell_setting            triclinic
loop_
_symmetry_equiv_pos_as_xyz
'x, y, z'
_cell_length_a     19.924423
_cell_length_b     29.569451
_cell_length_c     18.742247
_cell_angle_alpha  97.673773
_cell_angle_beta   86.621061
_cell_angle_gamma 124.12259
loop_
_atom_site_label
_atom_site_type_symbol
_atom_site_fract_x
_atom_site_fract_y
_atom_site_fract_z
_atom_type_partial_charge
La0 La 0.07363 0.09214 1.00855 0.0
La1 La 0.97051 0.97203 0.02878 0.0
C2 C 0.1311 0.18434 0.96498 0.0
C3 C 0.11108 0.22571 0.9701 0.0
C4 C 0.06061 0.22776 0.0241 0.0
C5 C 0.04587 0.26924 0.03012 0.0
C6 C 0.08118 0.30939 0.9821 0.0
C7 C 0.13013 0.30612 0.92708 0.0
C8 C 0.14495 0.26479 0.92129 0.0
C9 C 0.0628 0.07124 0.14271 0.0
C10 C 0.8816 1.03074 0.02909 0.0
C11 C 0.91286 0.87968 0.07194 0.0
C12 C 0.933 0.83838 0.06694 0.0
C13 C 0.98358 0.83636 1.01301 0.0
C14 C 0.99837 0.79491 1.00708 0.0
C15 C 0.96302 0.75476 0.0551 0.0
C16 C 0.914 0.75801 0.11005 0.0
C17 C 0.89912 0.79931 0.11576 0.0
C18 C 0.98151 0.99326 0.89466 0.0
C19 C 0.16256 0.03346 1.00845 0.0
O20 O 0.15372 0.17809 0.02498 0.0
O21 O 0.08116 0.13711 0.92672 0.0
O22 O 0.1261 0.11246 0.11674 0.0
O23 O 1.00658 0.0463 0.09595 0.0
O24 O 0.94978 0.07238 1.00548 0.0
O25 O 0.87842 0.98927 0.05234 0.0
O26 O 0.89068 0.88608 1.01182 0.0
O27 O 0.96245 0.92684 0.11052 0.0
O28 O 0.91806 0.95206 0.92054 0.0
O29 O 0.03758 1.01785 0.94152 0.0
O30 O 0.09437 0.99184 0.03209 0.0
O31 O 0.16572 0.07489 0.98508 0.0
H32 H 0.03364 0.19781 0.06226 0.0
H33 H 1.00843 0.2706 0.07348 0.0
H34 H 0.157 0.33549 0.88823 0.0
H35 H 0.18362 0.26367 0.87895 0.0
H36 H 1.01057 0.8663 0.97485 0.0
H37 H 0.03587 0.79357 0.96376 0.0
H38 H 0.8871 0.72864 0.14891 0.0
H39 H 0.86037 0.80041 0.15805 0.0
C40 C 0.97934 1.02094 0.24541 0.0
C41 C 0.05423 0.06143 0.21902 0.0
C42 C 0.97146 1.01323 0.31834 0.0
C43 C 0.09144 0.04158 0.48234 0.0
H44 H 0.90002 1.01732 0.58247 0.0
C45 C 0.0653 0.04367 0.79214 0.0
C46 C 0.99029 1.00322 0.81841 0.0
C47 C 0.07333 0.05152 0.71924 0.0
C48 C 0.95352 1.02349 0.55521 0.0
H49 H 0.17968 0.12521 0.24775 0.0
H50 H 0.16596 0.11219 0.37486 0.0
H51 H 0.91299 1.02787 0.4546 0.0
H52 H 0.86481 0.93965 0.78951 0.0
H53 H 0.87878 0.95287 0.66249 0.0
H54 H 0.13195 0.03718 0.58294 0.0
C55 C 0.11342 0.08591 0.33941 0.0
C56 C 0.96089 1.02947 0.48178 0.0
C57 C 0.1212 0.09362 0.26662 0.0
C58 C 0.92337 0.9712 0.77073 0.0
C59 C 0.93131 0.97904 0.69799 0.0
C60 C 0.08406 0.0356 0.55577 0.0
C61 C 0.03837 0.0458 0.36636 0.0
C62 C 0.02995 0.0386 0.44436 0.0
C63 C 1.00645 1.01912 0.67115 0.0
C64 C 1.01498 1.02644 0.59318 0.0
H65 H 0.92671 0.99551 0.20985 0.0
H66 H 0.91302 0.98149 0.33703 0.0
H67 H 0.14493 0.04776 0.45507 0.0
H68 H 0.1179 0.06896 0.82776 0.0
H69 H 0.13184 0.08322 0.70065 0.0
C70 C 0.31125 0.07755 0.98776 0.0
C71 C 0.23608 0.03252 1.00708 0.0
C72 C 0.38109 0.0773 0.98954 0.0
C73 C 0.45015 0.98452 0.98997 0.0
H74 H 0.64879 0.1168 0.07132 0.0
C75 C 0.73293 0.98666 0.04989 0.0
C76 C 0.80808 1.0317 0.03056 0.0
C77 C 0.66309 0.98693 0.04817 0.0
C78 C 0.59401 0.0797 0.04782 0.0
H79 H 0.17518 0.95147 0.0424 0.0
H80 H 0.29684 0.9513 0.04585 0.0
H81 H 0.52703 0.1168 0.06356 0.0
H82 H 0.86897 0.11276 0.99528 0.0
H83 H 0.74731 0.11294 0.99192 0.0
H84 H 0.51712 0.94743 0.97422 0.0
C85 C 0.30178 0.98662 0.02876 0.0
C86 C 0.5243 0.07973 0.04325 0.0
C87 C 0.23207 0.98691 0.02716 0.0
C88 C 0.81208 0.07732 1.01053 0.0
C89 C 0.74237 0.07762 1.00898 0.0
C90 C 0.51986 0.98449 0.99453 0.0
C91 C 0.37718 1.03194 1.01045 0.0
C92 C 0.45158 1.03214 1.01428 0.0
C93 C 0.66698 0.03229 0.0273 0.0
C94 C 0.59258 1.03209 0.0235 0.0
H95 H 0.31644 0.1133 0.97196 0.0
H96 H 0.43813 0.11255 0.97423 0.0
H97 H 0.39537 0.94742 0.96646 0.0
H98 H 0.72774 0.95091 0.06565 0.0
H99 H 0.60605 0.95167 0.06349 0.0
C100 C 0.05142 0.71843 0.02767 0.0
C101 C 0.97572 0.70908 0.04731 0.0
C102 C 0.06288 0.67541 0.0205 0.0
C103 C 0.94983 0.52268 0.9945 0.0
H104 H 0.15053 0.54969 0.06297 0.0
C105 C 0.99282 0.34574 1.00963 0.0
C106 C 0.06851 0.35508 0.98994 0.0
C107 C 0.98138 0.38877 1.01681 0.0
C108 C 0.09443 0.54149 0.0428 0.0
H109 H 0.85233 0.6464 0.07356 0.0
H110 H 0.87283 0.57205 0.06284 0.0
H111 H 0.13134 0.62479 0.07437 0.0
H112 H 0.19189 0.41775 0.96364 0.0
H113 H 0.17141 0.49211 0.97441 0.0
H114 H 0.91292 0.43939 0.96293 0.0
C115 C 0.92326 0.61253 0.05221 0.0
C116 C 0.08343 0.58467 0.04932 0.0
C117 C 0.91181 0.65547 0.05933 0.0
C118 C 0.13242 0.40868 0.97791 0.0
C119 C 0.12098 0.45163 0.98505 0.0
C120 C 0.96083 0.47951 0.98798 0.0
C121 C 0.99894 0.62184 0.0327 0.0
C122 C 1.01096 0.57588 0.02529 0.0
C123 C 0.04532 0.44233 1.0046 0.0
C124 C 0.0333 0.48829 1.01201 0.0
H125 H 0.10228 0.75918 1.01856 0.0
H126 H 0.12176 0.68407 1.00463 0.0
H127 H 0.89372 0.51448 0.97432 0.0
H128 H 0.94197 0.30499 0.01874 0.0
H129 H 0.9225 0.38011 0.03271 0.0
loop_
_geom_bond_atom_site_label_1
_geom_bond_atom_site_label_2
_geom_bond_distance
_geom_bond_site_symmetry_2
_ccdc_geom_bond_type
La0 C2 2.928 . S
La0 O20 2.521 . S
La0 O21 2.628 1_554 S
La0 O22 2.554 . S
La0 O23 2.757 1_545 S
La0 O24 2.470 1_455 S
La0 O29 2.482 1_454 S
La0 O31 2.503 . S
La1 C11 2.928 . S
La1 O23 2.482 1_656 S
La1 O25 2.503 . S
La1 O26 2.521 . S
La1 O27 2.628 1_556 S
La1 O28 2.554 . S
La1 O29 2.757 1_565 S
La1 O30 2.470 1_655 S
C2 La0 2.928 . S
C2 C3 1.503 . S
C2 O20 1.261 . S
C2 O21 1.243 1_554 S
C3 C2 1.503 . S
C3 C4 1.394 . S
C3 C8 1.373 1_454 S
C4 C3 1.394 . S
C4 C5 1.380 . S
C4 H32 0.930 . S
C5 C4 1.380 . S
C5 C6 1.387 . S
C5 H33 0.930 . S
C6 C5 1.387 . S
C6 C7 1.361 1_454 S
C7 C6 1.361 1_656 S
C7 C8 1.396 . S
C7 H34 0.929 . S
C8 C3 1.373 1_656 S
C8 C7 1.396 . S
C8 H35 0.929 . S
C9 O22 1.240 . S
C9 O23 1.289 1_545 S
C10 O24 1.258 1_565 S
C10 O25 1.255 1_554 S
C11 La1 2.928 . S
C11 C12 1.503 . S
C11 O26 1.261 . S
C11 O27 1.243 1_556 S
C12 C11 1.503 . S
C12 C13 1.394 . S
C12 C17 1.373 1_656 S
C13 C12 1.394 . S
C13 C14 1.380 . S
C13 H36 0.930 . S
C14 C13 1.380 . S
C14 C15 1.383 . S
C14 H37 0.930 . S
C15 C14 1.383 . S
C15 C16 1.364 1_656 S
C16 C15 1.364 1_454 S
C16 C17 1.396 . S
C16 H38 0.929 . S
C17 C12 1.373 1_454 S
C17 C16 1.396 . S
C17 H39 0.929 . S
C18 O28 1.240 . S
C18 O29 1.289 1_565 S
C19 O30 1.258 1_545 S
C19 O31 1.255 1_556 S
O20 La0 2.521 . S
O20 C2 1.261 . S
O21 La0 2.628 1_556 S
O21 C2 1.243 1_556 S
O22 La0 2.554 . S
O22 C9 1.240 . S
O23 La0 2.757 1_565 S
O23 La1 2.482 1_454 S
O23 C9 1.289 1_565 S
O24 La0 2.470 1_655 S
O24 C10 1.258 1_545 S
O25 La1 2.503 . S
O25 C10 1.255 1_556 S
O26 La1 2.521 . S
O26 C11 1.261 . S
O27 La1 2.628 1_554 S
O27 C11 1.243 1_554 S
O28 La1 2.554 . S
O28 C18 1.240 . S
O29 La0 2.482 1_656 S
O29 La1 2.757 1_545 S
O29 C18 1.289 1_545 S
O30 La1 2.470 1_455 S
O30 C19 1.258 1_565 S
O31 La0 2.503 . S
O31 C19 1.255 1_554 S
H32 C4 0.930 . S
H33 C5 0.930 . S
H34 C7 0.929 . S
H35 C8 0.929 . S
H36 C13 0.930 . S
H37 C14 0.930 . S
H38 C16 0.929 . S
H39 C17 0.929 . S
C40 C41 1.349 1_655 S
C40 C42 1.327 . S
C40 H65 0.950 . S
C41 C40 1.349 1_455 S
C41 C57 1.349 1_545 S
C42 C40 1.327 . S
C42 C61 1.429 1_655 S
C42 H66 0.950 . S
C43 C60 1.574 . S
C43 C62 1.368 1_565 S
C43 H67 0.949 . S
H44 C48 0.949 . S
C45 C46 1.349 1_565 S
C45 C47 1.327 . S
C45 H68 0.950 . S
C46 C45 1.349 1_545 S
C46 C58 1.349 1_455 S
C47 C45 1.327 . S
C47 C63 1.429 1_565 S
C47 H69 0.950 . S
C48 H44 0.949 . S
C48 C56 1.574 . S
C48 C64 1.368 1_655 S
H49 C57 0.950 . S
H50 C55 0.950 . S
H51 C56 0.949 . S
H52 C58 0.950 . S
H53 C59 0.950 . S
H54 C60 0.949 . S
C55 H50 0.950 . S
C55 C57 1.327 . S
C55 C61 1.429 1_565 S
C56 C48 1.574 . S
C56 H51 0.949 . S
C56 C62 1.368 1_655 S
C57 C41 1.349 1_565 S
C57 H49 0.950 . S
C57 C55 1.327 . S
C58 C46 1.349 1_655 S
C58 H52 0.950 . S
C58 C59 1.327 . S
C59 H53 0.950 . S
C59 C58 1.327 . S
C59 C63 1.429 1_655 S
C60 C43 1.574 . S
C60 H54 0.949 . S
C60 C64 1.368 1_565 S
C61 C42 1.429 1_455 S
C61 C55 1.429 1_545 S
C61 C62 1.523 . S
C62 C43 1.368 1_545 S
C62 C56 1.368 1_455 S
C62 C61 1.523 . S
C63 C47 1.429 1_545 S
C63 C59 1.429 1_455 S
C63 C64 1.523 . S
C64 C48 1.368 1_455 S
C64 C60 1.368 1_545 S
C64 C63 1.523 . S
H65 C40 0.950 . S
H66 C42 0.950 . S
H67 C43 0.949 . S
H68 C45 0.950 . S
H69 C47 0.950 . S
C70 C71 1.349 1_556 S
C70 C72 1.327 . S
C70 H95 0.950 . S
C71 C70 1.349 1_554 S
C71 C87 1.349 1_545 S
C72 C70 1.327 . S
C72 C91 1.429 1_556 S
C72 H96 0.950 . S
C73 C90 1.574 . S
C73 C92 1.368 1_565 S
C73 H97 0.949 . S
H74 C78 0.949 . S
C75 C76 1.349 1_565 S
C75 C77 1.327 . S
C75 H98 0.950 . S
C76 C75 1.349 1_545 S
C76 C88 1.349 1_554 S
C77 C75 1.327 . S
C77 C93 1.429 1_565 S
C77 H99 0.950 . S
C78 H74 0.949 . S
C78 C86 1.574 . S
C78 C94 1.368 1_556 S
H79 C87 0.950 . S
H80 C85 0.950 . S
H81 C86 0.949 . S
H82 C88 0.950 . S
H83 C89 0.950 . S
H84 C90 0.949 . S
C85 H80 0.950 . S
C85 C87 1.327 . S
C85 C91 1.429 1_565 S
C86 C78 1.574 . S
C86 H81 0.949 . S
C86 C92 1.368 1_556 S
C87 C71 1.349 1_565 S
C87 H79 0.950 . S
C87 C85 1.327 . S
C88 C76 1.349 1_556 S
C88 H82 0.950 . S
C88 C89 1.327 . S
C89 H83 0.950 . S
C89 C88 1.327 . S
C89 C93 1.429 1_556 S
C90 C73 1.574 . S
C90 H84 0.949 . S
C90 C94 1.368 1_565 S
C91 C72 1.429 1_554 S
C91 C85 1.429 1_545 S
C91 C92 1.523 . S
C92 C73 1.368 1_545 S
C92 C86 1.368 1_554 S
C92 C91 1.523 . S
C93 C77 1.429 1_545 S
C93 C89 1.429 1_554 S
C93 C94 1.523 . S
C94 C78 1.368 1_554 S
C94 C90 1.368 1_545 S
C94 C93 1.523 . S
H95 C70 0.950 . S
H96 C72 0.950 . S
H97 C73 0.949 . S
H98 C75 0.950 . S
H99 C77 0.950 . S
C100 C101 1.349 1_556 S
C100 C102 1.327 . S
C100 H125 0.950 . S
C101 C100 1.349 1_554 S
C101 C117 1.349 1_455 S
C102 C100 1.327 . S
C102 C121 1.429 1_556 S
C102 H126 0.950 . S
C103 C120 1.574 . S
C103 C122 1.368 1_655 S
C103 H127 0.949 . S
H104 C108 0.949 . S
C105 C106 1.349 1_655 S
C105 C107 1.327 . S
C105 H128 0.950 . S
C106 C105 1.349 1_455 S
C106 C118 1.349 1_554 S
C107 C105 1.327 . S
C107 C123 1.429 1_655 S
C107 H129 0.950 . S
C108 H104 0.949 . S
C108 C116 1.574 . S
C108 C124 1.368 1_556 S
H109 C117 0.950 . S
H110 C115 0.950 . S
H111 C116 0.949 . S
H112 C118 0.950 . S
H113 C119 0.950 . S
H114 C120 0.949 . S
C115 H110 0.950 . S
C115 C117 1.327 . S
C115 C121 1.429 1_655 S
C116 C108 1.574 . S
C116 H111 0.949 . S
C116 C122 1.368 1_556 S
C117 C101 1.349 1_655 S
C117 H109 0.950 . S
C117 C115 1.327 . S
C118 C106 1.349 1_556 S
C118 H112 0.950 . S
C118 C119 1.327 . S
C119 H113 0.950 . S
C119 C118 1.327 . S
C119 C123 1.429 1_556 S
C120 C103 1.574 . S
C120 H114 0.949 . S
C120 C124 1.368 1_655 S
C121 C102 1.429 1_554 S
C121 C115 1.429 1_455 S
C121 C122 1.523 . S
C122 C103 1.368 1_455 S
C122 C116 1.368 1_554 S
C122 C121 1.523 . S
C123 C107 1.429 1_455 S
C123 C119 1.429 1_554 S
C123 C124 1.523 . S
C124 C108 1.368 1_554 S
C124 C120 1.368 1_455 S
C124 C123 1.523 . S
H125 C100 0.950 . S
H126 C102 0.950 . S
H127 C103 0.949 . S
H128 C105 0.950 . S
H129 C107 0.950 . S
C41 C9 1.450 . S
C46 C18 1.450 1_445 S
C71 C19 1.484 1_554 S
C76 C10 1.484 1_545 S
C101 C15 1.499 1_454 S
C106 C6 1.498 . S
