# Generated by pormake.
# Topology ilc, (8)-cn, num edge types: 1
# Building blocks:
#     Node 0, Type 0, BuildingBlock: EYACOX_clean_sbu_0, # of connection points: 8
#     Node 1, Type 0, BuildingBlock: EYACOX_clean_sbu_0, # of connection points: 8
#     Node 2, Type 0, BuildingBlock: EYACOX_clean_sbu_0, # of connection points: 8
#     Edge 3, Type (0, 0), None
#     Edge 4, Type (0, 0), None
#     Edge 5, Type (0, 0), None
#     Edge 6, Type (0, 0), None
#     Edge 7, Type (0, 0), None
#     Edge 8, Type (0, 0), None
#     Edge 9, Type (0, 0), None
#     Edge 10, Type (0, 0), None
#     Edge 11, Type (0, 0), None
#     Edge 12, Type (0, 0), None
#     Edge 13, Type (0, 0), None
#     Edge 14, Type (0, 0), None
# Relax obj value: 0.207
# Max RMSD: 0.216
# Mean RMSD: 0.216
data_MOF--net-ilc--node1-EYACOX_clean_sbu_0--edge1-none
_symmetry_space_group_name_H-M    P1
_symmetry_Int_Tables_number       1
_symmetry_cell_setting            triclinic
loop_
_symmetry_equiv_pos_as_xyz
'x, y, z'
_cell_length_a     15.697147
_cell_length_b     8.9523342
_cell_length_c     11.747225
_cell_angle_alpha  89.103258
_cell_angle_beta   129.79526
_cell_angle_gamma 107.86476
loop_
_atom_site_label
_atom_site_type_symbol
_atom_site_fract_x
_atom_site_fract_y
_atom_site_fract_z
_atom_type_partial_charge
Eu0 Eu 0.93432 0.89039 0.94447 0.0
Eu1 Eu 0.15588 0.00684 -0.03887 0.0
O2 O 0.80544 0.70363 0.94229 0.0
O3 O 0.80676 0.94642 0.94004 0.0
O4 O 1.02498 0.77842 0.7624 0.0
O5 O 0.86596 0.69265 0.75001 0.0
O6 O 0.86773 0.0242 0.75238 0.0
O7 O 1.02442 0.101 0.76056 0.0
C8 C 0.80793 0.82711 0.11652 0.0
C9 C 0.8893 0.87169 0.40716 0.0
C10 C 0.76083 0.80664 0.27995 0.0
C11 C 0.7263 0.78934 0.13659 0.0
C12 C 0.9762 0.9136 0.38857 0.0
C13 C 0.92951 0.88712 0.24084 0.0
C14 C 0.77401 0.80888 -0.03197 0.0
C15 C 0.91515 0.67817 0.69447 0.0
O16 O 0.28477 0.1936 -0.03668 0.0
O17 O 0.28345 -0.04919 -0.03443 0.0
C18 C 0.91554 0.08933 0.69454 0.0
O19 O 0.22424 0.20458 0.1556 0.0
O20 O 0.06522 0.11881 0.1432 0.0
O21 O 0.22247 0.87303 0.15322 0.0
O22 O 0.06578 0.79623 0.14505 0.0
C23 C 0.28227 0.07012 0.78909 0.0
C24 C 0.11401 -0.01638 0.51703 0.0
C25 C 0.16069 0.01011 0.66477 0.0
C26 C 0.20091 0.02554 0.49845 0.0
C27 C 0.32937 0.09059 0.62565 0.0
C28 C 0.36391 0.10789 0.76902 0.0
C29 C 0.3162 0.08835 0.93758 0.0
C30 C 0.17506 0.21906 0.21114 0.0
C31 C 0.17466 0.8079 0.21106 0.0
H32 H 0.92031 0.88892 0.5187 0.0
H33 H 0.63542 0.74512 0.03922 0.0
H34 H 0.98702 0.91311 0.21808 0.0
H35 H 0.10319 -0.01588 0.68753 0.0
H36 H 0.16989 0.0083 0.38691 0.0
H37 H 0.45479 0.15211 0.86639 0.0
Eu38 Eu 0.60099 0.22371 0.27781 0.0
Eu39 Eu 0.82255 0.34018 0.29446 0.0
O40 O 0.47211 0.03695 0.27562 0.0
O41 O 0.47342 0.27974 0.27337 0.0
O42 O 0.69165 0.11177 0.09573 0.0
O43 O 0.53263 0.02598 0.08335 0.0
O44 O 0.5344 0.35752 0.08571 0.0
O45 O 0.69109 0.43435 0.0939 0.0
C46 C 0.4746 0.16043 0.44985 0.0
C47 C 0.55596 0.20503 0.74049 0.0
C48 C 0.4275 0.13998 0.61329 0.0
C49 C 0.39296 0.12267 0.46992 0.0
C50 C 0.64286 0.24694 0.72191 0.0
C51 C 0.59618 0.22045 0.57417 0.0
C52 C 0.44068 0.1422 0.30136 0.0
C53 C 0.58182 0.0115 0.0278 0.0
O54 O 0.95143 0.52695 0.29665 0.0
O55 O 0.95012 0.28415 0.2989 0.0
C56 C 0.58221 0.42267 0.02788 0.0
O57 O 0.89091 0.53791 0.48893 0.0
O58 O 0.73188 0.45214 0.47654 0.0
O59 O 0.88914 0.20636 0.48655 0.0
O60 O 0.73245 0.12956 0.47838 0.0
C61 C 0.94894 0.40348 0.12242 0.0
C62 C 0.78068 0.31697 0.85037 0.0
C63 C 0.82736 0.34346 -0.0019 0.0
C64 C 0.86758 0.35887 0.83178 0.0
C65 C 0.99604 0.42392 -0.04101 0.0
C66 C 1.03058 0.44123 0.10235 0.0
C67 C 0.98286 0.4217 0.27091 0.0
C68 C 0.84172 0.55239 0.54448 0.0
C69 C 0.84133 0.14123 0.54439 0.0
H70 H 0.58698 0.22227 0.85203 0.0
H71 H 0.30209 0.07845 0.37255 0.0
H72 H 0.65368 0.24643 0.55141 0.0
H73 H 0.76986 0.31748 0.02086 0.0
H74 H 0.83656 0.34162 0.72024 0.0
H75 H 0.12145 0.48545 0.19972 0.0
Eu76 Eu 0.26766 0.55705 0.61114 0.0
Eu77 Eu 0.48922 0.67352 0.6278 0.0
O78 O 0.13877 0.37028 0.60895 0.0
O79 O 0.14009 0.61307 0.60671 0.0
O80 O 0.35832 0.4451 0.42907 0.0
O81 O 0.1993 0.35932 0.41668 0.0
O82 O 0.20106 0.69086 0.41905 0.0
O83 O 0.35776 0.76768 0.42723 0.0
C84 C 0.14127 0.49375 0.78319 0.0
C85 C 0.22263 0.53836 0.07383 0.0
C86 C 0.09417 0.47331 0.94662 0.0
C87 C 0.05963 0.456 0.80326 0.0
C88 C 0.30953 0.58026 0.05524 0.0
C89 C 0.26285 0.55377 0.9075 0.0
C90 C 0.10734 0.47553 0.6347 0.0
C91 C 0.24849 0.34484 0.36113 0.0
O92 O 0.6181 0.86028 0.62998 0.0
O93 O 0.61678 0.61749 0.63224 0.0
C94 C 0.24888 0.756 0.36122 0.0
O95 O 0.55757 0.87125 0.82226 0.0
O96 O 0.39855 0.78546 0.80988 0.0
O97 O 0.55581 0.53971 0.81989 0.0
O98 O 0.39911 0.46288 0.81171 0.0
C99 C 0.61561 0.73681 0.45575 0.0
C100 C 0.44734 0.65029 0.1837 0.0
C101 C 0.49402 0.67679 0.33144 0.0
C102 C 0.53424 0.6922 0.16511 0.0
C103 C 0.6627 0.75725 0.29232 0.0
C104 C 0.69724 0.77456 0.43568 0.0
C105 C 0.64953 0.75503 0.60424 0.0
C106 C 0.50839 0.88572 0.87781 0.0
C107 C 0.508 0.47456 0.87772 0.0
H108 H 0.25365 0.55561 0.18537 0.0
H109 H 0.96875 0.41178 0.70588 0.0
H110 H 0.32035 0.57975 0.88475 0.0
H111 H 0.43652 0.65081 0.35419 0.0
H112 H 0.50323 0.67495 0.05357 0.0
H113 H 0.78812 0.81878 0.53306 0.0
loop_
_geom_bond_atom_site_label_1
_geom_bond_atom_site_label_2
_geom_bond_distance
_geom_bond_site_symmetry_2
_ccdc_geom_bond_type
Eu0 O2 2.472 1_556 S
Eu0 O3 2.507 1_556 S
Eu0 O5 2.336 . S
Eu0 O6 2.389 1_565 S
Eu0 C14 2.835 1_556 S
Eu0 O20 2.396 1_666 S
Eu0 O22 2.323 1_656 S
Eu1 O4 2.396 1_444 S
Eu1 O7 2.323 1_454 S
Eu1 O16 2.472 1_554 S
Eu1 O17 2.507 1_554 S
Eu1 O19 2.336 . S
Eu1 O21 2.389 1_545 S
Eu1 C29 2.835 1_554 S
O2 Eu0 2.472 1_554 S
O2 C14 1.258 . S
O3 Eu0 2.507 1_554 S
O3 C14 1.246 . S
O4 Eu1 2.396 1_666 S
O4 C15 1.216 . S
O5 Eu0 2.336 . S
O5 C15 1.279 . S
O6 Eu0 2.389 1_545 S
O6 C18 1.239 . S
O7 Eu1 2.323 1_656 S
O7 C18 1.249 . S
C8 C11 1.390 . S
C8 C13 1.370 . S
C8 C14 1.489 . S
C9 C10 1.344 . S
C9 C12 1.413 . S
C9 H32 0.931 . S
C10 C9 1.344 . S
C10 C11 1.423 . S
C11 C8 1.390 . S
C11 C10 1.423 . S
C11 H33 0.930 . S
C12 C9 1.413 . S
C12 C13 1.397 . S
C13 C8 1.370 . S
C13 C12 1.397 . S
C13 H34 0.932 . S
C14 Eu0 2.835 1_554 S
C14 O2 1.258 . S
C14 O3 1.246 . S
C14 C8 1.489 . S
C15 O4 1.216 . S
C15 O5 1.279 . S
O16 Eu1 2.472 1_556 S
O16 C29 1.258 . S
O17 Eu1 2.507 1_556 S
O17 C29 1.246 . S
C18 O6 1.239 . S
C18 O7 1.249 . S
O19 Eu1 2.336 . S
O19 C30 1.279 . S
O20 Eu0 2.396 1_444 S
O20 C30 1.216 . S
O21 Eu1 2.389 1_565 S
O21 C31 1.239 . S
O22 Eu0 2.323 1_454 S
O22 C31 1.249 . S
C23 C25 1.370 . S
C23 C28 1.390 . S
C23 C29 1.489 . S
C24 C25 1.397 . S
C24 C26 1.413 . S
C25 C23 1.370 . S
C25 C24 1.397 . S
C25 H35 0.932 . S
C26 C24 1.413 . S
C26 C27 1.344 . S
C26 H36 0.931 . S
C27 C26 1.344 . S
C27 C28 1.423 . S
C28 C23 1.390 . S
C28 C27 1.423 . S
C28 H37 0.930 . S
C29 Eu1 2.835 1_556 S
C29 O16 1.258 . S
C29 O17 1.246 . S
C29 C23 1.489 . S
C30 O19 1.279 . S
C30 O20 1.216 . S
C31 O21 1.239 . S
C31 O22 1.249 . S
H32 C9 0.931 . S
H33 C11 0.930 . S
H34 C13 0.932 . S
H35 C25 0.932 . S
H36 C26 0.931 . S
H37 C28 0.930 . S
Eu38 O40 2.472 . S
Eu38 O41 2.507 . S
Eu38 O43 2.336 . S
Eu38 O44 2.389 . S
Eu38 C52 2.835 . S
Eu38 O58 2.396 . S
Eu38 O60 2.323 . S
Eu39 O42 2.396 . S
Eu39 O45 2.323 . S
Eu39 O54 2.472 . S
Eu39 O55 2.507 . S
Eu39 O57 2.336 . S
Eu39 O59 2.389 . S
Eu39 C67 2.835 . S
O40 Eu38 2.472 . S
O40 C52 1.258 . S
O41 Eu38 2.507 . S
O41 C52 1.246 . S
O42 Eu39 2.396 . S
O42 C53 1.216 . S
O43 Eu38 2.336 . S
O43 C53 1.279 . S
O44 Eu38 2.389 . S
O44 C56 1.239 . S
O45 Eu39 2.323 . S
O45 C56 1.249 . S
C46 C49 1.390 . S
C46 C51 1.370 . S
C46 C52 1.489 . S
C47 C48 1.344 . S
C47 C50 1.413 . S
C47 H70 0.931 . S
C48 C47 1.344 . S
C48 C49 1.423 . S
C49 C46 1.390 . S
C49 C48 1.423 . S
C49 H71 0.930 . S
C50 C47 1.413 . S
C50 C51 1.397 . S
C51 C46 1.370 . S
C51 C50 1.397 . S
C51 H72 0.932 . S
C52 Eu38 2.835 . S
C52 O40 1.258 . S
C52 O41 1.246 . S
C52 C46 1.489 . S
C53 O42 1.216 . S
C53 O43 1.279 . S
O54 Eu39 2.472 . S
O54 C67 1.258 . S
O55 Eu39 2.507 . S
O55 C67 1.246 . S
C56 O44 1.239 . S
C56 O45 1.249 . S
O57 Eu39 2.336 . S
O57 C68 1.279 . S
O58 Eu38 2.396 . S
O58 C68 1.216 . S
O59 Eu39 2.389 . S
O59 C69 1.239 . S
O60 Eu38 2.323 . S
O60 C69 1.249 . S
C61 C63 1.370 . S
C61 C66 1.390 . S
C61 C67 1.489 . S
C62 C63 1.397 1_556 S
C62 C64 1.413 . S
C63 C61 1.370 . S
C63 C62 1.397 1_554 S
C63 H73 0.932 1_554 S
C64 C62 1.413 . S
C64 C65 1.344 1_656 S
C64 H74 0.931 . S
C65 C64 1.344 1_454 S
C65 C66 1.423 1_455 S
C66 C61 1.390 . S
C66 C65 1.423 1_655 S
C66 H75 0.930 1_655 S
C67 Eu39 2.835 . S
C67 O54 1.258 . S
C67 O55 1.246 . S
C67 C61 1.489 . S
C68 O57 1.279 . S
C68 O58 1.216 . S
C69 O59 1.239 . S
C69 O60 1.249 . S
H70 C47 0.931 . S
H71 C49 0.930 . S
H72 C51 0.932 . S
H73 C63 0.932 1_556 S
H74 C64 0.931 . S
H75 C66 0.930 1_455 S
Eu76 O78 2.472 . S
Eu76 O79 2.507 . S
Eu76 O81 2.336 . S
Eu76 O82 2.389 . S
Eu76 C90 2.835 . S
Eu76 O96 2.396 . S
Eu76 O98 2.323 . S
Eu77 O80 2.396 . S
Eu77 O83 2.323 . S
Eu77 O92 2.472 . S
Eu77 O93 2.507 . S
Eu77 O95 2.336 . S
Eu77 O97 2.389 . S
Eu77 C105 2.835 . S
O78 Eu76 2.472 . S
O78 C90 1.258 . S
O79 Eu76 2.507 . S
O79 C90 1.246 . S
O80 Eu77 2.396 . S
O80 C91 1.216 . S
O81 Eu76 2.336 . S
O81 C91 1.279 . S
O82 Eu76 2.389 . S
O82 C94 1.239 . S
O83 Eu77 2.323 . S
O83 C94 1.249 . S
C84 C87 1.390 . S
C84 C89 1.370 . S
C84 C90 1.489 . S
C85 C86 1.344 1_454 S
C85 C88 1.413 . S
C85 H108 0.931 . S
C86 C85 1.344 1_656 S
C86 C87 1.423 1_655 S
C87 C84 1.390 . S
C87 C86 1.423 1_455 S
C87 H109 0.930 1_455 S
C88 C85 1.413 . S
C88 C89 1.397 1_554 S
C89 C84 1.370 . S
C89 C88 1.397 1_556 S
C89 H110 0.932 1_556 S
C90 Eu76 2.835 . S
C90 O78 1.258 . S
C90 O79 1.246 . S
C90 C84 1.489 . S
C91 O80 1.216 . S
C91 O81 1.279 . S
O92 Eu77 2.472 . S
O92 C105 1.258 . S
O93 Eu77 2.507 . S
O93 C105 1.246 . S
C94 O82 1.239 . S
C94 O83 1.249 . S
O95 Eu77 2.336 . S
O95 C106 1.279 . S
O96 Eu76 2.396 . S
O96 C106 1.216 . S
O97 Eu77 2.389 . S
O97 C107 1.239 . S
O98 Eu76 2.323 . S
O98 C107 1.249 . S
C99 C101 1.370 . S
C99 C104 1.390 . S
C99 C105 1.489 . S
C100 C101 1.397 . S
C100 C102 1.413 . S
C101 C99 1.370 . S
C101 C100 1.397 . S
C101 H111 0.932 . S
C102 C100 1.413 . S
C102 C103 1.344 . S
C102 H112 0.931 . S
C103 C102 1.344 . S
C103 C104 1.423 . S
C104 C99 1.390 . S
C104 C103 1.423 . S
C104 H113 0.930 . S
C105 Eu77 2.835 . S
C105 O92 1.258 . S
C105 O93 1.246 . S
C105 C99 1.489 . S
C106 O95 1.279 . S
C106 O96 1.216 . S
C107 O97 1.239 . S
C107 O98 1.249 . S
H108 C85 0.931 . S
H109 C87 0.930 1_655 S
H110 C89 0.932 1_554 S
H111 C101 0.932 . S
H112 C102 0.931 . S
H113 C104 0.930 . S
C24 C12 4.310 1_445 S
C50 C62 4.310 . S
C88 C100 4.310 . S
C94 C31 3.128 . S
C91 C30 2.195 . S
C103 C10 2.701 . S
C69 C18 3.128 . S
C68 C15 2.195 . S
C48 C27 2.701 . S
C56 C107 3.128 1_554 S
C106 C53 2.195 1_566 S
C86 C65 2.701 1_656 S
