# Generated by pormake.
# Topology pcu, (6)-cn, num edge types: 1
# Building blocks:
#     Node 0, Type 0, BuildingBlock: VOLQOD_clean_sbu_1, # of connection points: 6
#     Edge 1, Type (0, 0), BuildingBlock: OJICUG_clean_linker_0, # of connection points: 2
#     Edge 2, Type (0, 0), BuildingBlock: OJICUG_clean_linker_0, # of connection points: 2
#     Edge 3, Type (0, 0), BuildingBlock: OJICUG_clean_linker_0, # of connection points: 2
# Relax obj value: 0.082
# Max RMSD: 0.143
# Mean RMSD: 0.143
data_MOF--net-pcu--node1-VOLQOD_clean_sbu_1--edge1-OJICUG_clean_linker_0
_symmetry_space_group_name_H-M    P1
_symmetry_Int_Tables_number       1
_symmetry_cell_setting            triclinic
loop_
_symmetry_equiv_pos_as_xyz
'x, y, z'
_cell_length_a     13.172519
_cell_length_b     13.126955
_cell_length_c     13.220384
_cell_angle_alpha  90.448563
_cell_angle_beta   90.0799
_cell_angle_gamma 90.290697
loop_
_atom_site_label
_atom_site_type_symbol
_atom_site_fract_x
_atom_site_fract_y
_atom_site_fract_z
_atom_type_partial_charge
O0 O 0.04134 0.03589 0.22474 0.0
Zn1 Zn 0.06427 0.06398 0.07683 0.0
O2 O 0.97803 -0.02123 -0.01085 0.0
Zn3 Zn 0.06354 0.89409 0.90148 0.0
Zn4 Zn 0.89191 0.8943 0.07589 0.0
Zn5 Zn 0.89219 0.06265 0.90225 0.0
O6 O 0.04081 0.92223 0.75358 0.0
O7 O 0.91476 0.0338 0.75425 0.0
O8 O 0.21269 0.03763 0.05071 0.0
O9 O 0.21201 0.92082 0.92792 0.0
O10 O 0.03383 0.74516 0.92541 0.0
O11 O 0.92167 0.74545 0.05147 0.0
O12 O 0.74341 0.92004 0.04979 0.0
O13 O 0.0351 0.21284 0.05279 0.0
O14 O 0.74371 0.03635 0.92837 0.0
O15 O 0.92243 0.21156 0.92687 0.0
C16 C 0.97806 -0.02022 0.27126 0.0
C17 C 0.97777 0.978 0.70695 0.0
C18 C 0.97783 0.69817 0.98847 0.0
C19 C 0.25939 -0.02078 -0.01067 0.0
C20 C 0.69652 0.97816 -0.01091 0.0
C21 C 0.9789 0.25935 -0.01021 0.0
O22 O 0.91486 0.92349 0.22384 0.0
C23 C 0.88602 0.97791 0.43604 0.0
C24 C 0.97806 -0.02032 0.38264 0.0
H25 H 0.81406 -0.02118 0.58154 0.0
C26 C 0.07003 -0.01921 0.43645 0.0
H27 H 0.8142 0.97735 0.39599 0.0
C28 C 0.06995 -0.02173 0.54216 0.0
C29 C 0.9779 -0.02169 0.59558 0.0
H30 H 0.1419 -0.01828 0.39669 0.0
H31 H 0.14176 0.97813 0.58223 0.0
C32 C 0.88594 -0.02091 0.54179 0.0
C33 C 0.42508 -0.01993 0.08099 0.0
C34 C 0.37112 -0.02089 -0.01066 0.0
H35 H 0.57142 0.97746 0.15245 0.0
C36 C 0.42471 0.97773 0.89763 0.0
H37 H 0.38513 -0.01926 0.15258 0.0
C38 C 0.53084 -0.02078 0.89757 0.0
C39 C 0.58478 -0.02172 -0.0108 0.0
H40 H 0.38449 0.9773 0.82607 0.0
H41 H 0.57078 -0.02071 0.82598 0.0
C42 C 0.53119 0.97777 0.08091 0.0
C43 C -0.02102 0.53101 0.89733 0.0
C44 C 0.97831 0.586 0.98881 0.0
H45 H 0.97687 0.38354 0.82623 0.0
C46 C 0.97822 0.53302 0.08067 0.0
H47 H 0.97874 0.5704 0.82561 0.0
C48 C -0.01955 0.42654 0.08102 0.0
C49 C -0.02087 0.37153 -0.01047 0.0
H50 H 0.97815 0.57401 0.15213 0.0
H51 H -0.01871 0.38716 0.15273 0.0
C52 C 0.97754 0.42451 0.89769 0.0
loop_
_geom_bond_atom_site_label_1
_geom_bond_atom_site_label_2
_geom_bond_distance
_geom_bond_site_symmetry_2
_ccdc_geom_bond_type
O0 Zn1 1.953 . S
O0 C16 1.225 . S
Zn1 O0 1.953 . S
Zn1 O2 1.949 1_454 S
Zn1 O8 1.919 . S
Zn1 O13 1.924 . S
O2 Zn1 1.949 1_656 S
O2 Zn3 1.923 1_645 S
O2 Zn4 1.950 1_546 S
O2 Zn5 1.945 . S
Zn3 O2 1.923 1_465 S
Zn3 O6 1.933 . S
Zn3 O9 1.941 . S
Zn3 O10 1.965 . S
Zn4 O2 1.950 1_564 S
Zn4 O11 1.938 . S
Zn4 O12 1.906 . S
Zn4 O22 1.953 . S
Zn5 O2 1.945 . S
Zn5 O7 1.932 . S
Zn5 O14 1.977 . S
Zn5 O15 1.910 . S
O6 Zn3 1.933 . S
O6 C17 1.231 . S
O7 Zn5 1.932 . S
O7 C17 1.302 1_645 S
O8 Zn1 1.919 . S
O8 C19 1.253 1_544 S
O9 Zn3 1.941 . S
O9 C19 1.283 . S
O10 Zn3 1.965 . S
O10 C18 1.303 1_456 S
O11 Zn4 1.938 . S
O11 C18 1.247 . S
O12 Zn4 1.906 . S
O12 C20 1.304 1_564 S
O13 Zn1 1.924 . S
O13 C21 1.311 . S
O14 Zn5 1.977 . S
O14 C20 1.272 . S
O15 Zn5 1.910 . S
O15 C21 1.231 1_656 S
C16 O0 1.225 . S
C16 O22 1.298 1_445 S
C17 O6 1.231 . S
C17 O7 1.302 1_465 S
C18 O10 1.303 1_654 S
C18 O11 1.247 . S
C19 O8 1.253 1_566 S
C19 O9 1.283 . S
C20 O12 1.304 1_546 S
C20 O14 1.272 . S
C21 O13 1.311 . S
C21 O15 1.231 1_454 S
O22 Zn4 1.953 . S
O22 C16 1.298 1_665 S
C23 C24 1.387 1_655 S
C23 H27 0.950 . S
C23 C32 1.390 . S
C24 C23 1.387 1_455 S
C24 C26 1.388 . S
H25 C32 0.950 . S
C26 C24 1.388 . S
C26 C28 1.390 1_545 S
C26 H30 0.949 1_545 S
H27 C23 0.950 . S
C28 C26 1.390 1_565 S
C28 C29 1.387 1_565 S
C28 H31 0.950 . S
C29 C28 1.387 1_545 S
C29 C32 1.387 1_455 S
H30 C26 0.949 1_565 S
H31 C28 0.950 . S
C32 C23 1.390 . S
C32 H25 0.950 . S
C32 C29 1.387 1_655 S
C33 C34 1.387 1_554 S
C33 H37 0.950 . S
C33 C42 1.390 . S
C34 C33 1.387 1_556 S
C34 C36 1.387 1_565 S
H35 C42 0.950 . S
C36 C34 1.387 1_545 S
C36 C38 1.390 . S
C36 H40 0.950 . S
H37 C33 0.950 . S
C38 C36 1.390 . S
C38 C39 1.387 1_545 S
C38 H41 0.950 . S
C39 C38 1.387 1_565 S
C39 C42 1.387 1_556 S
H40 C36 0.950 . S
H41 C38 0.950 . S
C42 C33 1.390 . S
C42 H35 0.950 . S
C42 C39 1.387 1_554 S
C43 C44 1.387 1_656 S
C43 H47 0.950 . S
C43 C52 1.390 . S
C44 C43 1.387 1_454 S
C44 C46 1.387 . S
H45 C52 0.950 . S
C46 C44 1.387 . S
C46 C48 1.390 . S
C46 H50 0.950 . S
H47 C43 0.950 . S
C48 C46 1.390 . S
C48 C49 1.387 . S
C48 H51 0.950 . S
C49 C48 1.387 . S
C49 C52 1.387 1_454 S
H50 C46 0.950 . S
H51 C48 0.950 . S
C52 C43 1.390 . S
C52 H45 0.950 . S
C52 C49 1.387 1_656 S
C24 C16 1.500 . S
C29 C17 1.499 1_545 S
C34 C19 1.457 . S
C39 C20 1.468 1_565 S
C44 C18 1.455 1_455 S
C49 C21 1.461 . S
