# Generated by pormake.
# Topology rkf, (6)-cn, num edge types: 1
# Building blocks:
#     Node 0, Type 0, BuildingBlock: VOLQOD_clean_sbu_1, # of connection points: 6
#     Node 1, Type 0, BuildingBlock: VOLQOD_clean_sbu_1, # of connection points: 6
#     Node 2, Type 0, BuildingBlock: VOLQOD_clean_sbu_1, # of connection points: 6
#     Node 3, Type 0, BuildingBlock: VOLQOD_clean_sbu_1, # of connection points: 6
#     Node 4, Type 0, BuildingBlock: VOLQOD_clean_sbu_1, # of connection points: 6
#     Node 5, Type 0, BuildingBlock: VOLQOD_clean_sbu_1, # of connection points: 6
#     Edge 6, Type (0, 0), None
#     Edge 7, Type (0, 0), None
#     Edge 8, Type (0, 0), None
#     Edge 9, Type (0, 0), None
#     Edge 10, Type (0, 0), None
#     Edge 11, Type (0, 0), None
#     Edge 12, Type (0, 0), None
#     Edge 13, Type (0, 0), None
#     Edge 14, Type (0, 0), None
#     Edge 15, Type (0, 0), None
#     Edge 16, Type (0, 0), None
#     Edge 17, Type (0, 0), None
#     Edge 18, Type (0, 0), None
#     Edge 19, Type (0, 0), None
#     Edge 20, Type (0, 0), None
#     Edge 21, Type (0, 0), None
#     Edge 22, Type (0, 0), None
#     Edge 23, Type (0, 0), None
# Relax obj value: 0.814
# Max RMSD: 0.323
# Mean RMSD: 0.323
data_MOF--net-rkf--node1-VOLQOD_clean_sbu_1--edge1-none
_symmetry_space_group_name_H-M    P1
_symmetry_Int_Tables_number       1
_symmetry_cell_setting            triclinic
loop_
_symmetry_equiv_pos_as_xyz
'x, y, z'
_cell_length_a     15.267928
_cell_length_b     15.25694
_cell_length_c     18.164346
_cell_angle_alpha  89.956287
_cell_angle_beta   90.02937
_cell_angle_gamma 120.00338
loop_
_atom_site_label
_atom_site_type_symbol
_atom_site_fract_x
_atom_site_fract_y
_atom_site_fract_z
_atom_type_partial_charge
O0 O 0.07109 0.96241 0.01879 0.0
Zn1 Zn 0.14784 0.90051 0.02097 0.0
O2 O 0.26621 0.0252 0.0249 0.0
Zn3 Zn 0.34332 0.07715 0.93943 0.0
Zn4 Zn 0.26166 0.14098 0.0473 0.0
Zn5 Zn 0.31518 -0.01465 0.10597 0.0
O6 O 0.47597 0.08686 0.97408 0.0
O7 O 0.41232 0.95313 0.05313 0.0
O8 O 0.15838 0.83597 0.93168 0.0
O9 O 0.29304 0.9611 0.87465 0.0
O10 O 0.31489 0.18741 0.88069 0.0
O11 O 0.22474 0.21206 0.96372 0.0
O12 O 0.39922 0.22215 0.09008 0.0
O13 O 0.06944 0.80476 0.10583 0.0
O14 O 0.41642 0.1101 0.15513 0.0
O15 O 0.18865 0.89606 0.18493 0.0
C16 C 0.06885 0.00668 0.07779 0.0
C17 C 0.48296 0.01787 1.01069 0.0
C18 C 0.25894 0.22601 0.89818 0.0
C19 C 0.22251 0.86973 0.87922 0.0
C20 C 0.4181 0.19376 0.15089 0.0
C21 C 0.09527 0.82821 0.1724 0.0
O22 O 0.14798 0.07061 0.11201 0.0
O23 O 0.12854 0.05837 0.3541 0.0
Zn24 Zn 0.26709 0.13652 0.35557 0.0
O25 O 0.25916 0.25417 0.35887 0.0
Zn26 Zn 0.28431 0.33111 0.27332 0.0
Zn27 Zn 0.13863 0.24915 0.38119 0.0
Zn28 Zn 0.34803 0.30404 0.43989 0.0
O29 O 0.4075 0.464 0.30763 0.0
O30 O 0.47751 0.40012 0.38648 0.0
O31 O 0.34187 0.14696 0.26606 0.0
O32 O 0.35017 0.28097 0.20874 0.0
O33 O 0.14546 0.30159 0.21443 0.0
O34 O 0.03067 0.21123 0.2975 0.0
O35 O 0.19593 0.38777 0.42263 0.0
O36 O 0.28535 0.05904 0.44061 0.0
O37 O 0.32577 0.40719 0.48758 0.0
O38 O 0.3095 0.17741 0.51936 0.0
C39 C 0.08146 0.05641 0.41272 0.0
C40 C 0.48356 0.47082 0.34394 0.0
C41 C 0.05094 0.24519 0.23187 0.0
C42 C 0.37164 0.2109 0.21342 0.0
C43 C 0.24275 0.40666 0.4836 0.0
C44 C 0.28536 0.0843 0.50702 0.0
O45 O 0.09629 0.13577 0.44646 0.0
O46 O 0.08777 0.11449 0.68708 0.0
Zn47 Zn 0.14945 0.25327 0.68781 0.0
O48 O 0.02469 0.24696 0.69169 0.0
Zn49 Zn -0.0278 0.27171 0.6064 0.0
Zn50 Zn 0.90893 0.12674 0.71432 0.0
Zn51 Zn 0.0642 0.33595 0.77262 0.0
O52 O -0.03755 0.39492 0.64068 0.0
O53 O 0.0963 0.46542 0.71945 0.0
O54 O 0.21332 0.32754 0.59783 0.0
O55 O 0.0878 0.33739 0.54163 0.0
O56 O 0.86277 0.13283 0.54772 0.0
O57 O 0.83851 0.01815 0.63091 0.0
O58 O 0.82785 0.18378 0.75627 0.0
O59 O 0.24548 0.27157 0.7727 0.0
O60 O 0.93939 0.31264 0.82164 0.0
O61 O 0.15296 0.2979 0.85165 0.0
C62 C 0.04257 0.06812 0.74593 0.0
C63 C 0.03149 0.47117 0.67697 0.0
C64 C 0.82468 0.03828 0.56526 0.0
C65 C 0.17903 0.35795 0.54567 0.0
C66 C 0.85596 0.2305 0.81726 0.0
C67 C 0.22114 0.2728 0.83921 0.0
O68 O -0.02048 0.08472 0.77996 0.0
O69 O -0.01055 0.07181 0.01879 0.0
Zn70 Zn 0.91362 0.1347 0.02119 0.0
O71 O 0.79498 0.01028 0.02528 0.0
Zn72 Zn 0.718 0.95902 0.93962 0.0
Zn73 Zn 0.79853 0.89365 0.04733 0.0
Zn74 Zn 0.74608 0.05033 0.10638 0.0
O75 O 0.58566 0.94978 0.97419 0.0
O76 O 0.64985 0.08363 0.05304 0.0
O77 O 0.9034 0.19982 0.93187 0.0
O78 O 0.76833 0.07514 0.87499 0.0
O79 O 0.74629 0.84923 0.88036 0.0
O80 O 0.83517 0.82279 0.96349 0.0
O81 O 0.66052 0.81374 0.08987 0.0
O82 O -0.00764 0.22998 0.10618 0.0
O83 O 0.64334 0.92538 0.15504 0.0
O84 O 0.87298 0.13917 0.18539 0.0
C85 C -0.00842 0.02748 0.07785 0.0
C86 C 0.57909 0.01909 1.01058 0.0
C87 C 0.80172 0.81 0.89777 0.0
C88 C 0.83908 0.16636 0.87951 0.0
C89 C 0.64329 0.84253 0.15106 0.0
C90 C -0.03349 0.20668 0.17279 0.0
O91 O 0.91245 0.9632 0.11192 0.0
O92 O 0.93757 -0.02226 0.35296 0.0
Zn93 Zn 0.79876 0.902 0.35442 0.0
O94 O 0.80384 0.78297 0.35858 0.0
Zn95 Zn 0.77819 0.70585 0.27306 0.0
Zn96 Zn 0.92371 0.78605 0.38077 0.0
Zn97 Zn 0.71445 0.73346 0.43947 0.0
O98 O 0.6546 0.57336 0.30756 0.0
O99 O 0.58494 0.63806 0.38584 0.0
O100 O 0.72396 0.89221 0.26478 0.0
O101 O 0.71276 0.75638 0.20843 0.0
O102 O 0.91635 0.73428 0.21396 0.0
O103 O 0.03145 0.82323 0.29717 0.0
O104 O 0.86465 0.64726 0.42235 0.0
O105 O 0.78123 -0.02019 0.4396 0.0
O106 O 0.73548 0.62924 0.48726 0.0
O107 O 0.75277 0.86021 0.51874 0.0
C108 C -0.01668 -0.02085 0.41221 0.0
C109 C 0.57863 0.56701 0.34367 0.0
C110 C 0.01093 0.78985 0.23145 0.0
C111 C 0.6928 0.82749 0.21267 0.0
C112 C 0.81862 0.62998 0.48354 0.0
C113 C 0.77871 0.95381 0.50619 0.0
O114 O -0.03198 0.89951 0.44586 0.0
O115 O -0.02493 0.92381 0.68649 0.0
Zn116 Zn 0.91258 0.78499 0.68712 0.0
O117 O 0.03683 0.79036 0.69134 0.0
Zn118 Zn 0.08963 0.76584 0.60617 0.0
Zn119 Zn 0.1528 0.91025 0.71423 0.0
Zn120 Zn -0.00311 0.70097 0.77215 0.0
O121 O 0.09898 0.64231 0.64062 0.0
O122 O -0.03523 0.57166 0.71904 0.0
O123 O 0.84873 0.71091 0.59706 0.0
O124 O -0.02588 0.70061 0.5411 0.0
O125 O 0.20011 0.90493 0.54802 0.0
O126 O 0.22381 0.01923 0.63126 0.0
O127 O 0.23363 0.85286 0.75605 0.0
O128 O 0.8165 0.76657 0.77201 0.0
O129 O 0.12155 0.72397 0.82134 0.0
O130 O 0.90767 0.73826 0.8511 0.0
C131 C 0.01959 0.96932 0.74575 0.0
C132 C 0.02981 0.566 0.67684 0.0
C133 C 0.23827 -0.0006 0.56574 0.0
C134 C 0.88296 0.68037 0.54501 0.0
C135 C 0.20538 0.80571 0.8169 0.0
C136 C 0.83995 0.764 0.8386 0.0
O137 O 0.08264 0.95262 0.77978 0.0
loop_
_geom_bond_atom_site_label_1
_geom_bond_atom_site_label_2
_geom_bond_distance
_geom_bond_site_symmetry_2
_ccdc_geom_bond_type
O0 Zn1 1.953 . S
O0 C16 1.225 1_566 S
Zn1 O0 1.953 . S
Zn1 O2 1.949 1_566 S
Zn1 O8 1.919 . S
Zn1 O13 1.924 1_556 S
O2 Zn1 1.949 1_544 S
O2 Zn3 1.923 1_554 S
O2 Zn4 1.950 . S
O2 Zn5 1.945 . S
Zn3 O2 1.923 1_556 S
Zn3 O6 1.933 . S
Zn3 O9 1.941 1_545 S
Zn3 O10 1.965 . S
Zn4 O2 1.950 . S
Zn4 O11 1.938 1_554 S
Zn4 O12 1.906 . S
Zn4 O22 1.953 . S
Zn5 O2 1.945 . S
Zn5 O7 1.932 . S
Zn5 O14 1.977 . S
Zn5 O15 1.910 1_545 S
O6 Zn3 1.933 . S
O6 C17 1.226 1_556 S
O7 Zn5 1.932 . S
O7 C17 1.307 . S
O8 Zn1 1.919 . S
O8 C19 1.253 . S
O9 Zn3 1.941 1_565 S
O9 C19 1.283 . S
O10 Zn3 1.965 . S
O10 C18 1.303 . S
O11 Zn4 1.938 1_556 S
O11 C18 1.247 . S
O12 Zn4 1.906 . S
O12 C20 1.304 . S
O13 Zn1 1.924 1_554 S
O13 C21 1.311 . S
O14 Zn5 1.977 . S
O14 C20 1.272 . S
O15 Zn5 1.910 1_565 S
O15 C21 1.231 . S
C16 O0 1.225 1_544 S
C16 O22 1.298 . S
C17 O6 1.226 1_554 S
C17 O7 1.307 . S
C18 O10 1.303 . S
C18 O11 1.247 . S
C19 O8 1.253 . S
C19 O9 1.283 . S
C20 O12 1.304 . S
C20 O14 1.272 . S
C21 O13 1.311 . S
C21 O15 1.231 . S
O22 Zn4 1.953 . S
O22 C16 1.298 . S
O23 Zn24 1.953 . S
O23 C39 1.225 . S
Zn24 O23 1.953 . S
Zn24 O25 1.949 . S
Zn24 O31 1.919 . S
Zn24 O36 1.924 . S
O25 Zn24 1.949 . S
O25 Zn26 1.923 . S
O25 Zn27 1.950 . S
O25 Zn28 1.945 . S
Zn26 O25 1.923 . S
Zn26 O29 1.933 . S
Zn26 O32 1.941 . S
Zn26 O33 1.965 . S
Zn27 O25 1.950 . S
Zn27 O34 1.938 . S
Zn27 O35 1.906 . S
Zn27 O45 1.953 . S
Zn28 O25 1.945 . S
Zn28 O30 1.932 . S
Zn28 O37 1.977 . S
Zn28 O38 1.910 . S
O29 Zn26 1.933 . S
O29 C40 1.226 . S
O30 Zn28 1.932 . S
O30 C40 1.307 . S
O31 Zn24 1.919 . S
O31 C42 1.253 . S
O32 Zn26 1.941 . S
O32 C42 1.283 . S
O33 Zn26 1.965 . S
O33 C41 1.303 . S
O34 Zn27 1.938 . S
O34 C41 1.247 . S
O35 Zn27 1.906 . S
O35 C43 1.304 . S
O36 Zn24 1.924 . S
O36 C44 1.311 . S
O37 Zn28 1.977 . S
O37 C43 1.272 . S
O38 Zn28 1.910 . S
O38 C44 1.231 . S
C39 O23 1.225 . S
C39 O45 1.298 . S
C40 O29 1.226 . S
C40 O30 1.307 . S
C41 O33 1.303 . S
C41 O34 1.247 . S
C42 O31 1.253 . S
C42 O32 1.283 . S
C43 O35 1.304 . S
C43 O37 1.272 . S
C44 O36 1.311 . S
C44 O38 1.231 . S
O45 Zn27 1.953 . S
O45 C39 1.298 . S
O46 Zn47 1.953 . S
O46 C62 1.225 . S
Zn47 O46 1.953 . S
Zn47 O48 1.949 . S
Zn47 O54 1.919 . S
Zn47 O59 1.924 . S
O48 Zn47 1.949 . S
O48 Zn49 1.923 . S
O48 Zn50 1.950 1_455 S
O48 Zn51 1.945 . S
Zn49 O48 1.923 . S
Zn49 O52 1.933 . S
Zn49 O55 1.941 . S
Zn49 O56 1.965 1_455 S
Zn50 O48 1.950 1_655 S
Zn50 O57 1.938 . S
Zn50 O58 1.906 . S
Zn50 O68 1.953 . S
Zn51 O48 1.945 . S
Zn51 O53 1.932 . S
Zn51 O60 1.977 1_455 S
Zn51 O61 1.910 . S
O52 Zn49 1.933 . S
O52 C63 1.226 . S
O53 Zn51 1.932 . S
O53 C63 1.307 . S
O54 Zn47 1.919 . S
O54 C65 1.253 . S
O55 Zn49 1.941 . S
O55 C65 1.283 . S
O56 Zn49 1.965 1_655 S
O56 C64 1.303 . S
O57 Zn50 1.938 . S
O57 C64 1.247 . S
O58 Zn50 1.906 . S
O58 C66 1.304 . S
O59 Zn47 1.924 . S
O59 C67 1.311 . S
O60 Zn51 1.977 1_655 S
O60 C66 1.272 . S
O61 Zn51 1.910 . S
O61 C67 1.231 . S
C62 O46 1.225 . S
C62 O68 1.298 1_455 S
C63 O52 1.226 . S
C63 O53 1.307 . S
C64 O56 1.303 . S
C64 O57 1.247 . S
C65 O54 1.253 . S
C65 O55 1.283 . S
C66 O58 1.304 . S
C66 O60 1.272 . S
C67 O59 1.311 . S
C67 O61 1.231 . S
O68 Zn50 1.953 . S
O68 C62 1.298 1_655 S
O69 Zn70 1.953 1_455 S
O69 C85 1.225 1_556 S
Zn70 O69 1.953 1_655 S
Zn70 O71 1.949 1_556 S
Zn70 O77 1.919 . S
Zn70 O82 1.924 1_656 S
O71 Zn70 1.949 1_554 S
O71 Zn72 1.923 1_544 S
O71 Zn73 1.950 1_545 S
O71 Zn74 1.945 . S
Zn72 O71 1.923 1_566 S
Zn72 O75 1.933 . S
Zn72 O78 1.941 1_565 S
Zn72 O79 1.965 . S
Zn73 O71 1.950 1_565 S
Zn73 O80 1.938 1_554 S
Zn73 O81 1.906 . S
Zn73 O91 1.953 1_655 S
Zn74 O71 1.945 . S
Zn74 O76 1.932 . S
Zn74 O83 1.977 1_545 S
Zn74 O84 1.910 . S
O75 Zn72 1.933 . S
O75 C86 1.226 1_566 S
O76 Zn74 1.932 . S
O76 C86 1.307 . S
O77 Zn70 1.919 . S
O77 C88 1.253 . S
O78 Zn72 1.941 1_545 S
O78 C88 1.283 . S
O79 Zn72 1.965 . S
O79 C87 1.303 . S
O80 Zn73 1.938 1_556 S
O80 C87 1.247 . S
O81 Zn73 1.906 . S
O81 C89 1.304 . S
O82 Zn70 1.924 1_454 S
O82 C90 1.311 1_455 S
O83 Zn74 1.977 1_565 S
O83 C89 1.272 . S
O84 Zn74 1.910 . S
O84 C90 1.231 . S
C85 O69 1.225 1_554 S
C85 O91 1.298 1_545 S
C86 O75 1.226 1_544 S
C86 O76 1.307 . S
C87 O79 1.303 . S
C87 O80 1.247 . S
C88 O77 1.253 . S
C88 O78 1.283 . S
C89 O81 1.304 . S
C89 O83 1.272 . S
C90 O82 1.311 1_655 S
C90 O84 1.231 . S
O91 Zn73 1.953 1_455 S
O91 C85 1.298 1_565 S
O92 Zn93 1.953 1_445 S
O92 C108 1.225 . S
Zn93 O92 1.953 1_665 S
Zn93 O94 1.949 . S
Zn93 O100 1.919 . S
Zn93 O105 1.924 . S
O94 Zn93 1.949 . S
O94 Zn95 1.923 . S
O94 Zn96 1.950 1_655 S
O94 Zn97 1.945 . S
Zn95 O94 1.923 . S
Zn95 O98 1.933 . S
Zn95 O101 1.941 . S
Zn95 O102 1.965 . S
Zn96 O94 1.950 1_455 S
Zn96 O103 1.938 . S
Zn96 O104 1.906 . S
Zn96 O114 1.953 . S
Zn97 O94 1.945 . S
Zn97 O99 1.932 . S
Zn97 O106 1.977 . S
Zn97 O107 1.910 . S
O98 Zn95 1.933 . S
O98 C109 1.226 . S
O99 Zn97 1.932 . S
O99 C109 1.307 . S
O100 Zn93 1.919 . S
O100 C111 1.253 . S
O101 Zn95 1.941 . S
O101 C111 1.283 . S
O102 Zn95 1.965 . S
O102 C110 1.303 1_655 S
O103 Zn96 1.938 . S
O103 C110 1.247 . S
O104 Zn96 1.906 . S
O104 C112 1.304 1_455 S
O105 Zn93 1.924 . S
O105 C113 1.311 . S
O106 Zn97 1.977 . S
O106 C112 1.272 . S
O107 Zn97 1.910 . S
O107 C113 1.231 . S
C108 O92 1.225 . S
C108 O114 1.298 1_545 S
C109 O98 1.226 . S
C109 O99 1.307 . S
C110 O102 1.303 1_455 S
C110 O103 1.247 . S
C111 O100 1.253 . S
C111 O101 1.283 . S
C112 O104 1.304 1_655 S
C112 O106 1.272 . S
C113 O105 1.311 . S
C113 O107 1.231 . S
O114 Zn96 1.953 . S
O114 C108 1.298 1_565 S
O115 Zn116 1.953 1_455 S
O115 C131 1.225 1_565 S
Zn116 O115 1.953 1_655 S
Zn116 O117 1.949 1_655 S
Zn116 O123 1.919 . S
Zn116 O128 1.924 . S
O117 Zn116 1.949 1_455 S
O117 Zn118 1.923 . S
O117 Zn119 1.950 . S
O117 Zn120 1.945 . S
Zn118 O117 1.923 . S
Zn118 O121 1.933 . S
Zn118 O124 1.941 . S
Zn118 O125 1.965 . S
Zn119 O117 1.950 . S
Zn119 O126 1.938 1_565 S
Zn119 O127 1.906 . S
Zn119 O137 1.953 1_565 S
Zn120 O117 1.945 . S
Zn120 O122 1.932 . S
Zn120 O129 1.977 . S
Zn120 O130 1.910 1_455 S
O121 Zn118 1.933 . S
O121 C132 1.226 . S
O122 Zn120 1.932 . S
O122 C132 1.307 . S
O123 Zn116 1.919 . S
O123 C134 1.253 . S
O124 Zn118 1.941 . S
O124 C134 1.283 1_455 S
O125 Zn118 1.965 . S
O125 C133 1.303 . S
O126 Zn119 1.938 1_545 S
O126 C133 1.247 1_545 S
O127 Zn119 1.906 . S
O127 C135 1.304 . S
O128 Zn116 1.924 . S
O128 C136 1.311 . S
O129 Zn120 1.977 . S
O129 C135 1.272 . S
O130 Zn120 1.910 1_655 S
O130 C136 1.231 . S
C131 O115 1.225 1_545 S
C131 O137 1.298 . S
C132 O121 1.226 . S
C132 O122 1.307 . S
C133 O125 1.303 . S
C133 O126 1.247 1_565 S
C134 O123 1.253 . S
C134 O124 1.283 1_655 S
C135 O127 1.304 . S
C135 O129 1.272 . S
C136 O128 1.311 . S
C136 O130 1.231 . S
O137 Zn119 1.953 1_545 S
O137 C131 1.298 . S
C85 C16 0.869 . S
C108 C39 0.869 . S
C131 C62 0.869 . S
C18 C67 2.584 . S
C41 C90 2.584 1_455 S
C64 C113 2.584 1_545 S
C87 C136 2.584 . S
C110 C21 2.584 . S
C133 C44 2.584 1_565 S
C17 C86 1.201 . S
C40 C109 1.201 . S
C63 C132 1.201 . S
C20 C42 1.093 . S
C43 C65 1.093 . S
C66 C88 1.093 . S
C89 C111 1.093 . S
C112 C134 1.093 . S
C135 C19 1.093 . S
