# Generated by pormake.
# Topology lon, (4)-cn, num edge types: 1
# Building blocks:
#     Node 0, Type 0, BuildingBlock: GALJAG_clean_sbu_0, # of connection points: 4
#     Node 1, Type 0, BuildingBlock: GALJAG_clean_sbu_0, # of connection points: 4
#     Node 2, Type 0, BuildingBlock: GALJAG_clean_sbu_0, # of connection points: 4
#     Node 3, Type 0, BuildingBlock: GALJAG_clean_sbu_0, # of connection points: 4
#     Edge 4, Type (0, 0), BuildingBlock: EYOCIG_clean_linker_4, # of connection points: 2
#     Edge 5, Type (0, 0), BuildingBlock: EYOCIG_clean_linker_4, # of connection points: 2
#     Edge 6, Type (0, 0), BuildingBlock: EYOCIG_clean_linker_4, # of connection points: 2
#     Edge 7, Type (0, 0), BuildingBlock: EYOCIG_clean_linker_4, # of connection points: 2
#     Edge 8, Type (0, 0), BuildingBlock: EYOCIG_clean_linker_4, # of connection points: 2
#     Edge 9, Type (0, 0), BuildingBlock: EYOCIG_clean_linker_4, # of connection points: 2
#     Edge 10, Type (0, 0), BuildingBlock: EYOCIG_clean_linker_4, # of connection points: 2
#     Edge 11, Type (0, 0), BuildingBlock: EYOCIG_clean_linker_4, # of connection points: 2
# Relax obj value: 0.209
# Max RMSD: 0.226
# Mean RMSD: 0.214
data_MOF--net-lon--node1-GALJAG_clean_sbu_0--edge1-EYOCIG_clean_linker_4
_symmetry_space_group_name_H-M    P1
_symmetry_Int_Tables_number       1
_symmetry_cell_setting            triclinic
loop_
_symmetry_equiv_pos_as_xyz
'x, y, z'
_cell_length_a     18.141914
_cell_length_b     20.202914
_cell_length_c     31.790608
_cell_angle_alpha  95.865316
_cell_angle_beta   90.012013
_cell_angle_gamma 116.74427
loop_
_atom_site_label
_atom_site_type_symbol
_atom_site_fract_x
_atom_site_fract_y
_atom_site_fract_z
_atom_type_partial_charge
In0 In 0.38847 0.70382 0.06558 0.0
O1 O 0.26158 0.67369 0.0351 0.0
O2 O 0.27795 0.58848 0.06192 0.0
C3 C 0.47348 0.83951 0.03888 0.0
C4 C 0.36956 0.72358 0.14929 0.0
C5 C 0.4693 0.63064 0.02965 0.0
O6 O 0.40177 0.79423 0.02441 0.0
O7 O 0.50276 0.81757 0.06728 0.0
O8 O 0.47865 0.65391 0.06854 0.0
O9 O 0.42074 0.64519 0.00853 0.0
C10 C 0.2302 0.60679 0.04296 0.0
O11 O 0.41026 0.69089 0.13425 0.0
O12 O 0.3407 0.74898 0.12264 0.0
In13 In 0.62559 0.33018 0.56481 0.0
O14 O 0.52763 0.22056 0.53098 0.0
O15 O 0.6395 0.22305 0.5537 0.0
C16 C 0.55387 0.41658 0.54798 0.0
C17 C 0.61249 0.31453 0.64806 0.0
C18 C 0.7686 0.3987 0.52646 0.0
O19 O 0.52994 0.35141 0.52986 0.0
O20 O 0.61307 0.43846 0.57508 0.0
O21 O 0.76424 0.4064 0.56606 0.0
O22 O 0.70147 0.35667 0.50595 0.0
C23 C 0.56934 0.18561 0.53502 0.0
O24 O 0.6811 0.34352 0.63128 0.0
O25 O 0.55 0.29481 0.62343 0.0
In26 In 0.29975 0.67777 0.43695 0.0
O27 O 0.31132 0.78755 0.47034 0.0
O28 O 0.42085 0.78509 0.44785 0.0
C29 C 0.14118 0.59175 0.45365 0.0
C30 C 0.30348 0.69352 0.35376 0.0
C31 C 0.37438 0.6094 0.47525 0.0
O32 O 0.18328 0.65629 0.47241 0.0
O33 O 0.17787 0.57029 0.426 0.0
O34 O 0.36119 0.60092 0.4357 0.0
O35 O 0.35021 0.65206 0.49576 0.0
C36 C 0.38805 0.82259 0.46626 0.0
O37 O 0.34227 0.66398 0.37068 0.0
O38 O 0.26082 0.71364 0.3782 0.0
In39 In 0.68822 0.3045 0.93619 0.0
O40 O 0.72193 0.31567 0.86727 0.0
O41 O 0.59418 0.26122 0.87959 0.0
C42 C 0.84205 0.37818 0.97254 0.0
C43 C 0.6288 0.40244 0.95936 0.0
C44 C 0.63729 0.16816 0.96201 0.0
O45 O 0.82857 0.35608 0.93349 0.0
O46 O 0.77861 0.36208 0.99359 0.0
O47 O 0.60947 0.21251 0.97613 0.0
O48 O 0.69 0.19135 0.93437 0.0
C49 C 0.64818 0.28487 0.85262 0.0
O50 O 0.59368 0.33598 0.96805 0.0
O51 O 0.69351 0.41982 0.93928 0.0
C52 C 0.33718 0.72351 0.23017 0.0
C53 C 0.35053 0.7248 0.19306 0.0
C54 C 0.32149 0.71577 0.27331 0.0
C55 C 0.31134 0.70678 0.31014 0.0
C56 C 0.6073 0.29277 0.72864 0.0
C57 C 0.60647 0.30152 0.69174 0.0
C58 C 0.61522 0.28518 0.77182 0.0
C59 C 0.62756 0.28385 0.80891 0.0
C60 C 0.53771 0.54731 0.99727 0.0
C61 C 0.50595 0.58527 0.01148 0.0
C62 C 0.5711 0.49862 0.98279 0.0
C63 C 0.59794 0.45512 0.97195 0.0
C64 C 0.98937 0.50855 0.47529 0.0
C65 C 0.0585 0.54497 0.46458 0.0
C66 C 0.91051 0.46821 0.49084 0.0
C67 C 0.84485 0.43577 0.50623 0.0
C68 C 0.58621 0.03786 0.9914 0.0
C69 C 0.61128 0.09677 0.97708 0.0
C70 C 0.55209 0.96945 0.00899 0.0
C71 C 0.51846 0.91074 0.02354 0.0
C72 C 0.48587 0.50001 0.52618 0.0
C73 C 0.51835 0.4635 0.53693 0.0
C74 C 0.44732 0.54031 0.51069 0.0
C75 C 0.41388 0.57259 0.49541 0.0
C76 C 0.07569 0.51123 0.01982 0.0
C77 C 0.1463 0.55453 0.03049 0.0
C78 C 0.99353 0.46237 0.00534 0.0
C79 C 0.92387 0.424 0.991 0.0
C80 C 0.50898 0.0426 0.50766 0.0
C81 C 0.5379 0.10791 0.52042 0.0
C82 C 0.47065 0.96585 0.4931 0.0
C83 C 0.43431 0.90043 0.48057 0.0
loop_
_geom_bond_atom_site_label_1
_geom_bond_atom_site_label_2
_geom_bond_distance
_geom_bond_site_symmetry_2
_ccdc_geom_bond_type
In0 O1 2.294 . S
In0 O2 2.326 . S
In0 O6 2.266 . S
In0 O7 2.326 . S
In0 O8 2.266 . S
In0 O9 2.326 . S
In0 O11 2.294 . S
In0 O12 2.326 . S
O1 In0 2.294 . S
O1 C10 1.240 . S
O2 In0 2.326 . S
O2 C10 1.252 . S
C3 O6 1.252 . S
C3 O7 1.260 . S
C4 O11 1.240 . S
C4 O12 1.252 . S
C5 O8 1.252 . S
C5 O9 1.260 . S
O6 In0 2.266 . S
O6 C3 1.252 . S
O7 In0 2.326 . S
O7 C3 1.260 . S
O8 In0 2.266 . S
O8 C5 1.252 . S
O9 In0 2.326 . S
O9 C5 1.260 . S
C10 O1 1.240 . S
C10 O2 1.252 . S
O11 In0 2.294 . S
O11 C4 1.240 . S
O12 In0 2.326 . S
O12 C4 1.252 . S
In13 O14 2.294 . S
In13 O15 2.326 . S
In13 O19 2.266 . S
In13 O20 2.326 . S
In13 O21 2.266 . S
In13 O22 2.326 . S
In13 O24 2.294 . S
In13 O25 2.326 . S
O14 In13 2.294 . S
O14 C23 1.240 . S
O15 In13 2.326 . S
O15 C23 1.252 . S
C16 O19 1.252 . S
C16 O20 1.260 . S
C17 O24 1.240 . S
C17 O25 1.252 . S
C18 O21 1.252 . S
C18 O22 1.260 . S
O19 In13 2.266 . S
O19 C16 1.252 . S
O20 In13 2.326 . S
O20 C16 1.260 . S
O21 In13 2.266 . S
O21 C18 1.252 . S
O22 In13 2.326 . S
O22 C18 1.260 . S
C23 O14 1.240 . S
C23 O15 1.252 . S
O24 In13 2.294 . S
O24 C17 1.240 . S
O25 In13 2.326 . S
O25 C17 1.252 . S
In26 O27 2.294 . S
In26 O28 2.326 . S
In26 O32 2.266 . S
In26 O33 2.326 . S
In26 O34 2.266 . S
In26 O35 2.326 . S
In26 O37 2.294 . S
In26 O38 2.326 . S
O27 In26 2.294 . S
O27 C36 1.240 . S
O28 In26 2.326 . S
O28 C36 1.252 . S
C29 O32 1.252 . S
C29 O33 1.260 . S
C30 O37 1.240 . S
C30 O38 1.252 . S
C31 O34 1.252 . S
C31 O35 1.260 . S
O32 In26 2.266 . S
O32 C29 1.252 . S
O33 In26 2.326 . S
O33 C29 1.260 . S
O34 In26 2.266 . S
O34 C31 1.252 . S
O35 In26 2.326 . S
O35 C31 1.260 . S
C36 O27 1.240 . S
C36 O28 1.252 . S
O37 In26 2.294 . S
O37 C30 1.240 . S
O38 In26 2.326 . S
O38 C30 1.252 . S
In39 O40 2.294 . S
In39 O41 2.326 . S
In39 O45 2.266 . S
In39 O46 2.327 1_556 S
In39 O47 2.266 . S
In39 O48 2.326 . S
In39 O50 2.294 . S
In39 O51 2.326 . S
O40 In39 2.294 . S
O40 C49 1.240 . S
O41 In39 2.326 . S
O41 C49 1.252 . S
C42 O45 1.252 . S
C42 O46 1.261 1_556 S
C43 O50 1.240 . S
C43 O51 1.252 . S
C44 O47 1.252 . S
C44 O48 1.260 . S
O45 In39 2.266 . S
O45 C42 1.252 . S
O46 In39 2.327 1_554 S
O46 C42 1.261 1_554 S
O47 In39 2.266 . S
O47 C44 1.252 . S
O48 In39 2.326 . S
O48 C44 1.260 . S
C49 O40 1.240 . S
C49 O41 1.252 . S
O50 In39 2.294 . S
O50 C43 1.240 . S
O51 In39 2.326 . S
O51 C43 1.252 . S
C52 C53 1.170 . S
C52 C54 1.380 . S
C53 C52 1.170 . S
C54 C52 1.380 . S
C54 C55 1.170 . S
C55 C54 1.170 . S
C56 C57 1.170 . S
C56 C58 1.380 . S
C57 C56 1.170 . S
C58 C56 1.380 . S
C58 C59 1.170 . S
C59 C58 1.170 . S
C60 C61 1.170 1_556 S
C60 C62 1.380 . S
C61 C60 1.170 1_554 S
C62 C60 1.380 . S
C62 C63 1.170 . S
C63 C62 1.170 . S
C64 C65 1.170 1_655 S
C64 C66 1.380 . S
C65 C64 1.170 1_455 S
C66 C64 1.380 . S
C66 C67 1.170 . S
C67 C66 1.170 . S
C68 C69 1.170 . S
C68 C70 1.380 1_546 S
C69 C68 1.170 . S
C70 C68 1.380 1_564 S
C70 C71 1.170 . S
C71 C70 1.170 . S
C72 C73 1.170 . S
C72 C74 1.380 . S
C73 C72 1.170 . S
C74 C72 1.380 . S
C74 C75 1.170 . S
C75 C74 1.170 . S
C76 C77 1.170 . S
C76 C78 1.380 1_455 S
C77 C76 1.170 . S
C78 C76 1.380 1_655 S
C78 C79 1.169 1_554 S
C79 C78 1.169 1_556 S
C80 C81 1.170 . S
C80 C82 1.380 1_545 S
C81 C80 1.170 . S
C82 C80 1.380 1_565 S
C82 C83 1.170 . S
C83 C82 1.170 . S
C53 C4 1.597 . S
C55 C30 1.582 . S
C57 C17 1.597 . S
C59 C49 1.596 . S
C61 C5 1.484 . S
C63 C43 1.509 . S
C65 C29 1.680 . S
C67 C18 1.678 . S
C69 C44 1.844 . S
C71 C3 1.834 . S
C73 C16 1.679 . S
C75 C31 1.667 . S
C77 C10 1.510 . S
C79 C42 1.478 . S
C81 C23 1.331 . S
C83 C36 1.338 . S
