# Generated by pormake.
# Topology dmp, (4)-cn, num edge types: 1
# Building blocks:
#     Node 0, Type 0, BuildingBlock: ESEHIV_clean_sbu_0, # of connection points: 4
#     Node 1, Type 0, BuildingBlock: ESEHIV_clean_sbu_0, # of connection points: 4
#     Node 2, Type 0, BuildingBlock: ESEHIV_clean_sbu_0, # of connection points: 4
#     Node 3, Type 0, BuildingBlock: ESEHIV_clean_sbu_0, # of connection points: 4
#     Edge 4, Type (0, 0), None
#     Edge 5, Type (0, 0), None
#     Edge 6, Type (0, 0), None
#     Edge 7, Type (0, 0), None
#     Edge 8, Type (0, 0), None
#     Edge 9, Type (0, 0), None
#     Edge 10, Type (0, 0), None
#     Edge 11, Type (0, 0), None
# Relax obj value: 0.000
# Max RMSD: 0.011
# Mean RMSD: 0.011
data_MOF--net-dmp--node1-ESEHIV_clean_sbu_0--edge1-none
_symmetry_space_group_name_H-M    P1
_symmetry_Int_Tables_number       1
_symmetry_cell_setting            triclinic
loop_
_symmetry_equiv_pos_as_xyz
'x, y, z'
_cell_length_a     18.662956
_cell_length_b     12.453337
_cell_length_c     4.5456475
_cell_angle_alpha  89.742337
_cell_angle_beta   90.482127
_cell_angle_gamma 108.87291
loop_
_atom_site_label
_atom_site_type_symbol
_atom_site_fract_x
_atom_site_fract_y
_atom_site_fract_z
_atom_type_partial_charge
Cu0 Cu 0.17869 0.26263 0.13773 0.0
N1 N 0.23947 0.19767 0.37311 0.0
N2 N 0.29333 0.06601 0.49087 0.0
C3 C 0.23015 0.08558 0.3931 0.0
C4 C 0.346 0.16807 0.52435 0.0
C5 C 0.31336 0.2486 0.44626 0.0
O6 O 0.1287 0.14099 0.86039 0.0
C7 C 0.27251 0.45661 0.76336 0.0
O8 O 0.24329 0.41283 0.50631 0.0
H9 H 0.18269 0.02061 0.29795 0.0
H10 H 0.34493 0.3371 0.41106 0.0
N11 N 0.10548 0.32167 0.30489 0.0
N12 N 0.05529 0.46038 0.37624 0.0
C13 C 0.10569 0.42664 0.22566 0.0
C14 C 0.05019 0.28772 0.50835 0.0
C15 C 1.01932 0.37317 0.55346 0.0
C16 C 0.06782 0.06624 -0.05174 0.0
O17 O 1.03546 0.08576 0.1853 0.0
H18 H 0.14287 0.47848 0.06241 0.0
H19 H 1.03135 0.20652 0.61392 0.0
O20 O 0.24985 0.40806 0.01307 0.0
H21 H 0.40511 0.18268 0.57611 0.0
H22 H 0.97435 0.37092 0.70445 0.0
Cu23 Cu 0.42044 0.7654 0.13641 0.0
N24 N 0.36038 0.82989 0.37039 0.0
N25 N 0.30674 0.96097 0.48904 0.0
C26 C 0.36957 0.94188 0.3903 0.0
C27 C 0.25437 0.85873 0.5228 0.0
C28 C 0.28684 0.77857 0.44367 0.0
O29 O 0.47025 0.88714 0.85938 0.0
C30 C 0.32529 0.572 0.76235 0.0
O31 O 0.35708 0.61229 0.50698 0.0
H32 H 0.41654 1.00712 0.29484 0.0
H33 H 0.25529 0.69013 0.40781 0.0
N34 N 0.49386 0.70591 0.30528 0.0
N35 N 0.54423 0.56704 0.37667 0.0
C36 C 0.49395 0.60163 0.22348 0.0
C37 C 0.54878 0.73862 0.51341 0.0
C38 C 0.57982 0.65307 0.55836 0.0
C39 C 0.5315 0.96133 -0.05137 0.0
O40 O 0.56383 0.94142 0.18807 0.0
H41 H 0.45693 0.55082 0.05689 0.0
H42 H 0.567 0.81892 0.62302 0.0
O43 O 0.34881 0.62038 0.01185 0.0
H44 H 0.19551 0.84383 0.57583 0.0
H45 H 0.62451 0.65433 0.71283 0.0
Cu46 Cu 0.92083 0.76483 0.59429 0.0
N47 N 0.86004 0.82979 0.35892 0.0
N48 N 0.80618 0.96145 0.24118 0.0
C49 C 0.86937 0.94188 0.33894 0.0
C50 C 0.75352 0.85938 0.2077 0.0
C51 C 0.78616 0.77886 0.28578 0.0
O52 O 0.97082 0.88646 -0.12836 0.0
C53 C 0.82701 0.57085 -0.03135 0.0
O54 O 0.85622 0.61464 0.22571 0.0
H55 H 0.91683 1.00685 0.43408 0.0
H56 H 0.75459 0.69036 0.32099 0.0
N57 N 0.99403 0.70579 0.4271 0.0
N58 N 1.0442 0.56705 0.35564 0.0
C59 C 0.99381 0.6008 0.50627 0.0
C60 C 1.04933 0.73974 0.22366 0.0
C61 C 0.08018 0.65428 0.1785 0.0
C62 C 1.0317 0.96121 0.78377 0.0
O63 O 0.06405 0.9417 0.54672 0.0
H64 H 0.95663 0.54896 0.66951 0.0
H65 H 0.06818 0.82095 0.11814 0.0
O66 O 0.84966 0.6194 0.71894 0.0
H67 H 0.69441 0.84478 0.15594 0.0
H68 H 0.12516 0.65653 0.02752 0.0
Cu69 Cu 0.67907 0.26206 0.59561 0.0
N70 N 0.73913 0.19757 0.36164 0.0
N71 N 0.79277 0.06649 0.24301 0.0
C72 C 0.72994 0.08558 0.34173 0.0
C73 C 0.84515 0.16873 0.20925 0.0
C74 C 0.81267 0.24889 0.28837 0.0
O75 O 0.62926 0.14033 -0.12735 0.0
C76 C 0.77423 0.45546 -0.03033 0.0
O77 O 0.74244 0.41517 0.22504 0.0
H78 H 0.68297 0.02033 0.43718 0.0
H79 H 0.84422 0.33733 0.32424 0.0
N80 N 0.60565 0.32156 0.42671 0.0
N81 N 0.55532 0.46046 0.35519 0.0
C82 C 0.60558 0.42586 0.50844 0.0
C83 C 0.55073 0.28884 0.2186 0.0
C84 C 0.5197 0.37441 0.17358 0.0
C85 C 0.56801 0.06614 0.7834 0.0
O86 O 0.53568 0.08605 0.54395 0.0
H87 H 0.6426 0.47667 0.67502 0.0
H88 H 0.5325 0.20853 0.10905 0.0
O89 O 0.7507 0.40708 0.72017 0.0
H90 H 0.90401 0.18363 0.15622 0.0
H91 H 0.47501 0.37315 0.01913 0.0
loop_
_geom_bond_atom_site_label_1
_geom_bond_atom_site_label_2
_geom_bond_distance
_geom_bond_site_symmetry_2
_ccdc_geom_bond_type
Cu0 N1 1.999 . S
Cu0 O6 1.974 . S
Cu0 N11 1.985 . S
Cu0 O20 1.959 . S
N1 Cu0 1.999 . S
N1 C3 1.263 . S
N1 C5 1.389 . S
N2 C3 1.358 . S
N2 C4 1.400 . S
C3 N1 1.263 . S
C3 N2 1.358 . S
C3 H9 0.930 . S
C4 N2 1.400 . S
C4 C5 1.351 . S
C4 H21 0.930 . S
C5 N1 1.389 . S
C5 C4 1.351 . S
C5 H10 0.930 . S
O6 Cu0 1.974 . S
O6 C16 1.280 1_554 S
C7 O8 1.261 1_554 S
C7 O20 1.251 . S
O8 C7 1.261 1_556 S
H9 C3 0.930 . S
H10 C5 0.930 . S
N11 Cu0 1.985 . S
N11 C13 1.335 . S
N11 C14 1.390 1_455 S
N12 C13 1.345 . S
N12 C15 1.336 1_455 S
C13 N11 1.335 . S
C13 N12 1.345 . S
C13 H18 0.930 . S
C14 N11 1.390 1_655 S
C14 C15 1.346 . S
C14 H19 0.930 . S
C15 N12 1.336 1_655 S
C15 C14 1.346 . S
C15 H22 0.929 . S
C16 O6 1.280 1_556 S
C16 O17 1.218 . S
O17 C16 1.218 . S
H18 C13 0.930 . S
H19 C14 0.930 . S
O20 Cu0 1.959 . S
O20 C7 1.251 . S
H21 C4 0.930 . S
H22 C15 0.929 . S
Cu23 N24 1.999 . S
Cu23 O29 1.974 . S
Cu23 N34 1.985 . S
Cu23 O43 1.959 . S
N24 Cu23 1.999 . S
N24 C26 1.263 . S
N24 C28 1.389 . S
N25 C26 1.358 . S
N25 C27 1.400 . S
C26 N24 1.263 . S
C26 N25 1.358 . S
C26 H32 0.930 . S
C27 N25 1.400 . S
C27 C28 1.351 . S
C27 H44 0.930 . S
C28 N24 1.389 . S
C28 C27 1.351 . S
C28 H33 0.930 . S
O29 Cu23 1.974 . S
O29 C39 1.282 1_554 S
C30 O31 1.261 1_554 S
C30 O43 1.251 . S
O31 C30 1.261 1_556 S
H32 C26 0.930 . S
H33 C28 0.930 . S
N34 Cu23 1.985 . S
N34 C36 1.335 . S
N34 C37 1.390 . S
N35 C36 1.345 . S
N35 C38 1.336 . S
C36 N34 1.335 . S
C36 N35 1.345 . S
C36 H41 0.930 . S
C37 N34 1.390 . S
C37 C38 1.346 . S
C37 H42 0.930 . S
C38 N35 1.336 . S
C38 C37 1.346 . S
C38 H45 0.929 . S
C39 O29 1.282 1_556 S
C39 O40 1.216 . S
O40 C39 1.216 . S
H41 C36 0.930 . S
H42 C37 0.930 . S
O43 Cu23 1.959 . S
O43 C30 1.251 . S
H44 C27 0.930 . S
H45 C38 0.929 . S
Cu46 N47 1.999 . S
Cu46 O52 1.974 . S
Cu46 N57 1.985 . S
Cu46 O66 1.959 . S
N47 Cu46 1.999 . S
N47 C49 1.263 . S
N47 C51 1.389 . S
N48 C49 1.358 . S
N48 C50 1.400 . S
C49 N47 1.263 . S
C49 N48 1.358 . S
C49 H55 0.930 . S
C50 N48 1.400 . S
C50 C51 1.351 . S
C50 H67 0.930 . S
C51 N47 1.389 . S
C51 C50 1.351 . S
C51 H56 0.930 . S
O52 Cu46 1.974 . S
O52 C62 1.280 1_556 S
C53 O54 1.261 1_556 S
C53 O66 1.251 . S
O54 C53 1.261 1_554 S
H55 C49 0.930 . S
H56 C51 0.930 . S
N57 Cu46 1.985 . S
N57 C59 1.335 . S
N57 C60 1.390 1_655 S
N58 C59 1.345 . S
N58 C61 1.336 1_655 S
C59 N57 1.335 . S
C59 N58 1.345 . S
C59 H64 0.930 . S
C60 N57 1.390 1_455 S
C60 C61 1.346 . S
C60 H65 0.930 . S
C61 N58 1.336 1_455 S
C61 C60 1.346 . S
C61 H68 0.929 . S
C62 O52 1.280 1_554 S
C62 O63 1.218 . S
O63 C62 1.218 . S
H64 C59 0.930 . S
H65 C60 0.930 . S
O66 Cu46 1.959 . S
O66 C53 1.251 . S
H67 C50 0.930 . S
H68 C61 0.929 . S
Cu69 N70 1.999 . S
Cu69 O75 1.974 . S
Cu69 N80 1.985 . S
Cu69 O89 1.959 . S
N70 Cu69 1.999 . S
N70 C72 1.263 . S
N70 C74 1.389 . S
N71 C72 1.358 . S
N71 C73 1.400 . S
C72 N70 1.263 . S
C72 N71 1.358 . S
C72 H78 0.930 . S
C73 N71 1.400 . S
C73 C74 1.351 . S
C73 H90 0.930 . S
C74 N70 1.389 . S
C74 C73 1.351 . S
C74 H79 0.930 . S
O75 Cu69 1.974 . S
O75 C85 1.282 1_556 S
C76 O77 1.261 1_556 S
C76 O89 1.251 . S
O77 C76 1.261 1_554 S
H78 C72 0.930 . S
H79 C74 0.930 . S
N80 Cu69 1.985 . S
N80 C82 1.335 . S
N80 C83 1.390 . S
N81 C82 1.345 . S
N81 C84 1.336 . S
C82 N80 1.335 . S
C82 N81 1.345 . S
C82 H87 0.930 . S
C83 N80 1.390 . S
C83 C84 1.346 . S
C83 H88 0.930 . S
C84 N81 1.336 . S
C84 C83 1.346 . S
C84 H91 0.929 . S
C85 O75 1.282 1_554 S
C85 O86 1.216 . S
O86 C85 1.216 . S
H87 C82 0.930 . S
H88 C83 0.930 . S
O89 Cu69 1.959 . S
O89 C76 1.251 . S
H90 C73 0.930 . S
H91 C84 0.929 . S
N25 N2 1.378 1_565 S
C7 C30 1.501 . S
N71 N48 1.378 1_545 S
C53 C76 1.501 . S
C16 C62 1.480 1_446 S
C85 C39 1.480 1_544 S
N58 N12 1.507 1_655 S
N35 N81 1.507 . S
