# Generated by pormake.
# Topology pcu, (6)-cn, num edge types: 1
# Building blocks:
#     Node 0, Type 0, BuildingBlock: KUMBOL_clean_sbu_1, # of connection points: 6
#     Edge 1, Type (0, 0), None
#     Edge 2, Type (0, 0), None
#     Edge 3, Type (0, 0), None
# Relax obj value: 0.000
# Max RMSD: 0.000
# Mean RMSD: 0.000
data_MOF--net-pcu--node1-KUMBOL_clean_sbu_1--edge1-none
_symmetry_space_group_name_H-M    P1
_symmetry_Int_Tables_number       1
_symmetry_cell_setting            triclinic
loop_
_symmetry_equiv_pos_as_xyz
'x, y, z'
_cell_length_a     7.1260744
_cell_length_b     17.318889
_cell_length_c     7.0532766
_cell_angle_alpha  104.96415
_cell_angle_beta   92.070208
_cell_angle_gamma 100.00782
loop_
_atom_site_label
_atom_site_type_symbol
_atom_site_fract_x
_atom_site_fract_y
_atom_site_fract_z
_atom_type_partial_charge
C0 C 0.33774 0.19954 0.14873 0.0
C1 C 0.49338 0.21494 0.85798 0.0
C2 C 0.37318 0.16747 -0.04581 0.0
C3 C 0.53967 0.29893 -0.05689 0.0
C4 C 0.42013 0.28022 0.24812 0.0
C5 C 0.50706 0.33134 0.13873 0.0
N6 N 0.21049 0.15437 0.2344 0.0
C7 C 0.17558 0.18239 0.42629 0.0
C8 C 0.39021 0.3093 0.44632 0.0
C9 C 0.26703 0.2602 0.53563 0.0
Gd10 Gd 0.90918 0.83233 0.87052 0.0
Gd11 Gd -0.00072 0.05555 0.00172 0.0
N12 N 0.28305 0.09137 0.8566 0.0
C13 C 0.55251 0.17724 0.67528 0.0
C14 C 0.34181 0.05318 0.67952 0.0
C15 C 0.48288 0.09467 0.59024 0.0
H16 H 0.2882 -0.00972 0.60855 0.0
H17 H 0.52953 0.06422 0.45084 0.0
H18 H 0.62012 0.89752 0.26359 0.0
H19 H 0.0663 0.14819 0.49015 0.0
H20 H 0.37889 0.82351 0.42128 0.0
H21 H 0.64872 0.2112 0.59746 0.0
H22 H 0.59821 0.3394 0.85842 0.0
H23 H 0.8424 0.73973 0.38214 0.0
H24 H 0.4512 0.37094 0.52761 0.0
H25 H 0.23304 0.28427 0.68434 0.0
H26 H 0.31068 0.54834 0.01368 0.0
H27 H 0.53954 0.39613 0.19843 0.0
H28 H 0.45786 0.51687 0.34453 0.0
H29 H 0.67588 0.60361 0.18788 0.0
N30 N 0.69805 0.73349 0.63777 0.0
C31 C 0.5709 0.68828 0.72344 0.0
C32 C 0.73313 0.70549 0.44594 0.0
C33 C 0.51872 0.57853 0.42585 0.0
C34 C 0.64183 0.62766 0.33658 0.0
C35 C 0.4887 0.60758 0.62405 0.0
H36 H 0.36957 0.49164 0.67372 0.0
N37 N 0.62546 0.79643 0.0156 0.0
C38 C 0.53541 0.72032 0.91796 0.0
C39 C 0.35612 0.71049 0.19686 0.0
C40 C 0.41529 0.67282 0.01416 0.0
C41 C 0.5666 0.83461 0.19263 0.0
C42 C 0.4256 0.79307 0.28189 0.0
O43 O 0.28075 0.00699 0.05177 0.0
O44 O 0.22088 0.88264 0.82653 0.0
O45 O -0.04488 0.74059 0.02378 0.0
O46 O 0.04368 0.73183 0.7319 0.0
O47 O 0.8945 0.00084 0.67433 0.0
O48 O -0.01615 0.87668 0.59459 0.0
O49 O 0.62767 0.88088 0.82055 0.0
O50 O 0.68756 0.00525 0.0457 0.0
O51 O 0.95343 0.1473 0.84845 0.0
O52 O 0.86499 0.15611 0.1404 0.0
O53 O 0.01387 0.88707 0.19793 0.0
O54 O 0.92448 0.01122 0.27764 0.0
C55 C 0.3451 0.9434 -0.05793 0.0
C56 C 0.9431 0.9404 0.54187 0.0
C57 C 0.95052 0.6062 0.81363 0.0
C58 C 0.92373 0.47082 0.87608 0.0
C59 C 0.82186 0.48484 0.55837 0.0
C60 C 0.9051 0.56628 0.6153 0.0
C61 C 0.83688 0.43628 0.68411 0.0
C62 C 0.95203 0.55765 -0.05305 0.0
C63 C 0.02099 0.69601 0.87262 0.0
C64 C 0.36916 0.58882 0.92902 0.0
C65 C 0.40188 0.55643 0.73342 0.0
H66 H 0.26001 0.6765 0.27471 0.0
C67 C 0.56333 -0.05553 0.93023 0.0
C68 C -0.03479 -0.0525 0.33037 0.0
C69 C -0.04167 0.28172 0.05859 0.0
C70 C -0.01486 0.41709 -0.00391 0.0
C71 C 0.08715 0.40308 0.31377 0.0
C72 C 0.00386 0.32164 0.25689 0.0
C73 C 0.07207 0.45164 0.18803 0.0
C74 C -0.0432 0.33025 0.92525 0.0
C75 C 0.8877 0.19191 -0.00035 0.0
H76 H 0.76842 0.45766 0.40817 0.0
H77 H 0.93232 0.59769 0.50321 0.0
H78 H 0.79128 0.37168 0.62253 0.0
H79 H -0.00725 0.58847 0.09976 0.0
H80 H 0.14062 0.43027 0.46396 0.0
H81 H -0.02334 0.29025 0.36902 0.0
H82 H 0.11768 0.51624 0.2496 0.0
H83 H 0.91599 0.29943 0.77245 0.0
loop_
_geom_bond_atom_site_label_1
_geom_bond_atom_site_label_2
_geom_bond_distance
_geom_bond_site_symmetry_2
_ccdc_geom_bond_type
C0 C2 1.422 . S
C0 C4 1.415 . S
C0 N6 1.369 . S
C1 C2 1.421 . S
C1 C3 1.417 1_655 S
C1 C13 1.422 . S
C2 C0 1.422 . S
C2 C1 1.421 . S
C2 N12 1.359 . S
C3 C1 1.417 1_455 S
C3 C5 1.329 . S
C3 H22 0.930 . S
C4 C0 1.415 . S
C4 C5 1.437 1_655 S
C4 C8 1.413 . S
C5 C3 1.329 . S
C5 C4 1.437 1_455 S
C5 H27 0.929 . S
N6 C0 1.369 . S
N6 C7 1.338 . S
N6 Gd11 2.622 . S
C7 N6 1.338 . S
C7 C9 1.378 . S
C7 H19 0.929 . S
C8 C4 1.413 . S
C8 C9 1.348 . S
C8 H24 0.931 1_556 S
C9 C7 1.378 . S
C9 C8 1.348 . S
C9 H25 0.930 1_556 S
Gd10 N30 2.622 . S
Gd10 N37 2.570 . S
Gd10 O44 2.353 1_655 S
Gd10 O45 2.468 . S
Gd10 O46 2.427 . S
Gd10 O48 2.388 . S
Gd10 O49 2.386 . S
Gd10 O53 2.307 1_556 S
Gd10 C63 2.805 . S
Gd11 N6 2.622 . S
Gd11 N12 2.570 . S
Gd11 O43 2.386 . S
Gd11 O47 2.307 1_554 S
Gd11 O50 2.353 1_455 S
Gd11 O51 2.468 . S
Gd11 O52 2.427 . S
Gd11 O54 2.388 . S
Gd11 C75 2.805 . S
N12 C2 1.359 . S
N12 Gd11 2.570 . S
N12 C14 1.343 1_554 S
C13 C1 1.422 . S
C13 C15 1.321 1_554 S
C13 H21 0.931 1_654 S
C14 N12 1.343 1_556 S
C14 C15 1.390 . S
C14 H16 0.931 . S
C15 C13 1.321 1_556 S
C15 C14 1.390 . S
C15 H17 0.930 . S
H16 C14 0.931 . S
H17 C15 0.930 . S
H18 C41 0.931 . S
H19 C7 0.929 . S
H20 C42 0.930 . S
H21 C13 0.931 1_456 S
H22 C3 0.930 . S
H23 C32 0.929 . S
H24 C8 0.931 1_554 S
H25 C9 0.930 1_554 S
H26 C64 0.930 . S
H27 C5 0.929 . S
H28 C33 0.931 1_556 S
H29 C34 0.930 1_556 S
N30 Gd10 2.622 . S
N30 C31 1.369 . S
N30 C32 1.338 . S
C31 N30 1.369 . S
C31 C35 1.415 . S
C31 C38 1.422 . S
C32 H23 0.929 . S
C32 N30 1.338 . S
C32 C34 1.378 . S
C33 H28 0.931 1_554 S
C33 C34 1.348 . S
C33 C35 1.413 . S
C34 H29 0.930 1_554 S
C34 C32 1.378 . S
C34 C33 1.348 . S
C35 C31 1.415 . S
C35 C33 1.413 . S
C35 C65 1.437 1_455 S
H36 C65 0.929 . S
N37 Gd10 2.570 . S
N37 C38 1.359 . S
N37 C41 1.343 1_556 S
C38 C31 1.422 . S
C38 N37 1.359 . S
C38 C40 1.421 . S
C39 C40 1.422 . S
C39 C42 1.321 1_556 S
C39 H66 0.931 1_456 S
C40 C38 1.421 . S
C40 C39 1.422 . S
C40 C64 1.417 1_455 S
C41 H18 0.931 . S
C41 N37 1.343 1_554 S
C41 C42 1.390 . S
C42 H20 0.930 . S
C42 C39 1.321 1_554 S
C42 C41 1.390 . S
O43 Gd11 2.386 . S
O43 C55 1.262 1_545 S
O44 Gd10 2.353 1_455 S
O44 C55 1.244 1_556 S
O45 Gd10 2.468 . S
O45 C63 1.263 . S
O46 Gd10 2.427 . S
O46 C63 1.252 . S
O47 Gd11 2.307 1_556 S
O47 C56 1.261 1_545 S
O48 Gd10 2.388 . S
O48 C56 1.252 1_655 S
O49 Gd10 2.386 . S
O49 C67 1.259 1_565 S
O50 Gd11 2.353 1_655 S
O50 C67 1.245 1_554 S
O51 Gd11 2.468 . S
O51 C75 1.263 . S
O52 Gd11 2.427 . S
O52 C75 1.252 . S
O53 Gd10 2.307 1_554 S
O53 C68 1.261 1_565 S
O54 Gd11 2.388 . S
O54 C68 1.252 1_455 S
C55 O43 1.262 1_565 S
C55 O44 1.244 1_554 S
C56 O47 1.261 1_565 S
C56 O48 1.252 1_455 S
C57 C60 1.394 . S
C57 C62 1.370 . S
C57 C63 1.500 . S
C58 C61 1.383 . S
C58 C62 1.395 . S
C59 C60 1.396 . S
C59 C61 1.365 . S
C59 H76 0.929 . S
C60 C57 1.394 . S
C60 C59 1.396 . S
C60 H77 0.930 . S
C61 C58 1.383 . S
C61 C59 1.365 . S
C61 H78 0.931 . S
C62 C57 1.370 . S
C62 C58 1.395 . S
C62 H79 0.930 1_556 S
C63 Gd10 2.805 . S
C63 O45 1.263 . S
C63 O46 1.252 . S
C63 C57 1.500 . S
C64 H26 0.930 . S
C64 C40 1.417 1_655 S
C64 C65 1.329 . S
C65 C35 1.437 1_655 S
C65 H36 0.929 . S
C65 C64 1.329 . S
H66 C39 0.931 1_654 S
C67 O49 1.259 1_545 S
C67 O50 1.245 1_556 S
C68 O53 1.261 1_545 S
C68 O54 1.252 1_655 S
C69 C72 1.394 . S
C69 C74 1.370 . S
C69 C75 1.500 . S
C70 C73 1.383 . S
C70 C74 1.395 . S
C71 C72 1.396 . S
C71 C73 1.365 . S
C71 H80 0.929 . S
C72 C69 1.394 . S
C72 C71 1.396 . S
C72 H81 0.930 . S
C73 C70 1.383 . S
C73 C71 1.365 . S
C73 H82 0.931 . S
C74 C69 1.370 . S
C74 C70 1.395 . S
C74 H83 0.930 1_554 S
C75 Gd11 2.805 . S
C75 O51 1.263 . S
C75 O52 1.252 . S
C75 C69 1.500 . S
H76 C59 0.929 . S
H77 C60 0.930 . S
H78 C61 0.931 . S
H79 C62 0.930 1_554 S
H80 C71 0.929 . S
H81 C72 0.930 . S
H82 C73 0.931 . S
H83 C74 0.930 1_556 S
C68 C56 1.500 1_645 S
C55 C67 1.505 1_564 S
C58 C70 1.500 1_656 S
