# Generated by pormake.
# Topology hcp, (12)-cn, num edge types: 1
# Building blocks:
#     Node 0, Type 0, BuildingBlock: QEWDON_clean_sbu_0, # of connection points: 12
#     Node 1, Type 0, BuildingBlock: QEWDON_clean_sbu_0, # of connection points: 12
#     Edge 2, Type (0, 0), BuildingBlock: EYOCIG_clean_linker_4, # of connection points: 2
#     Edge 3, Type (0, 0), BuildingBlock: EYOCIG_clean_linker_4, # of connection points: 2
#     Edge 4, Type (0, 0), BuildingBlock: EYOCIG_clean_linker_4, # of connection points: 2
#     Edge 5, Type (0, 0), BuildingBlock: EYOCIG_clean_linker_4, # of connection points: 2
#     Edge 6, Type (0, 0), BuildingBlock: EYOCIG_clean_linker_4, # of connection points: 2
#     Edge 7, Type (0, 0), BuildingBlock: EYOCIG_clean_linker_4, # of connection points: 2
#     Edge 8, Type (0, 0), BuildingBlock: EYOCIG_clean_linker_4, # of connection points: 2
#     Edge 9, Type (0, 0), BuildingBlock: EYOCIG_clean_linker_4, # of connection points: 2
#     Edge 10, Type (0, 0), BuildingBlock: EYOCIG_clean_linker_4, # of connection points: 2
#     Edge 11, Type (0, 0), BuildingBlock: EYOCIG_clean_linker_4, # of connection points: 2
#     Edge 12, Type (0, 0), BuildingBlock: EYOCIG_clean_linker_4, # of connection points: 2
#     Edge 13, Type (0, 0), BuildingBlock: EYOCIG_clean_linker_4, # of connection points: 2
# Relax obj value: 0.197
# Max RMSD: 0.274
# Mean RMSD: 0.274
data_MOF--net-hcp--node1-QEWDON_clean_sbu_0--edge1-EYOCIG_clean_linker_4
_symmetry_space_group_name_H-M    P1
_symmetry_Int_Tables_number       1
_symmetry_cell_setting            triclinic
loop_
_symmetry_equiv_pos_as_xyz
'x, y, z'
_cell_length_a     18.194898
_cell_length_b     16.181434
_cell_length_c     26.752974
_cell_angle_alpha  80.902025
_cell_angle_beta   90.605424
_cell_angle_gamma 125.61099
loop_
_atom_site_label
_atom_site_type_symbol
_atom_site_fract_x
_atom_site_fract_y
_atom_site_fract_z
_atom_type_partial_charge
Zn0 Zn 0.7187 0.22789 0.30974 0.0
Zn1 Zn 0.81528 0.41444 0.21468 0.0
O2 O 0.72356 0.35077 0.27555 0.0
H3 H 0.67781 0.3616 0.28131 0.0
C4 C 0.55565 1.00544 0.23782 0.0
O5 O 0.61378 0.09825 0.2479 0.0
Zn6 Zn 0.49487 0.48658 0.22597 0.0
Zn7 Zn 0.36381 0.26194 0.30064 0.0
O8 O 0.46602 0.34438 0.24366 0.0
H9 H 0.50602 0.32654 0.23549 0.0
Zn10 Zn 0.45606 0.09083 0.19751 0.0
O11 O 0.56447 0.24106 0.18962 0.0
Zn12 Zn 0.56451 0.31729 0.12336 0.0
H13 H 0.59866 0.27196 0.2172 0.0
Zn14 Zn 0.59008 0.44249 0.40372 0.0
O15 O 0.61824 0.44801 0.33063 0.0
H16 H 0.58182 0.39751 0.30964 0.0
Zn17 Zn 0.744 0.57559 0.31737 0.0
C18 C 0.40214 0.33974 0.45479 0.0
O19 O 0.31615 0.26138 0.46546 0.0
O20 O 0.84337 0.25544 0.29799 0.0
O21 O 0.89033 0.35827 0.2212 0.0
O22 O 0.29145 0.32137 0.29466 0.0
O23 O 0.38505 0.48112 0.24935 0.0
O24 O 0.38806 0.06067 0.13374 0.0
O25 O 0.48074 0.21266 0.08183 0.0
C26 C 0.8862 0.60746 0.24295 0.0
O27 O 0.69662 0.46391 0.44296 0.0
O28 O 0.80851 0.57708 0.38118 0.0
O29 O 0.27165 0.10345 0.30652 0.0
C30 C 0.90084 0.30765 0.25868 0.0
O31 O 0.62043 0.1235 0.37079 0.0
C32 C 0.51372 0.47194 0.12088 0.0
O33 O 0.48356 0.98284 0.2185 0.0
C34 C 0.30812 0.4072 0.27342 0.0
O35 O 0.4547 0.32985 0.42981 0.0
C36 C 0.75424 0.41192 0.10507 0.0
O37 O 0.90673 0.56564 0.21534 0.0
O38 O 0.8046 0.55758 0.26221 0.0
C39 C 0.41828 0.11592 0.08942 0.0
O40 O 0.50265 0.52104 0.14894 0.0
O41 O 0.53786 0.41551 0.14049 0.0
C42 C 0.66003 0.66745 0.27181 0.0
O43 O 0.68545 0.3905 0.08238 0.0
O44 O 0.74649 0.3966 0.15331 0.0
C45 C 0.7807 0.52378 0.42641 0.0
O46 O 0.72852 0.69103 0.29618 0.0
O47 O 0.61244 0.5795 0.25847 0.0
C48 C 0.26389 0.05925 0.26966 0.0
O49 O 0.32255 0.11167 0.22899 0.0
C50 C 0.5845 0.15203 0.39749 0.0
O51 O 0.61132 0.24831 0.38805 0.0
Zn52 Zn 0.39858 0.53627 0.78 0.0
Zn53 Zn 0.48986 0.73909 0.68864 0.0
O54 O 0.38818 0.65261 0.74579 0.0
H55 H 0.35787 0.6754 0.76245 0.0
C56 C 0.19758 0.30438 0.70971 0.0
O57 O 0.22021 0.36846 0.74116 0.0
Zn58 Zn 0.18017 0.82472 0.69191 0.0
Zn59 Zn 0.03729 0.60159 0.76225 0.0
O60 O 0.13499 0.67513 0.70336 0.0
H61 H 0.16388 0.6448 0.69384 0.0
Zn62 Zn 0.14338 0.42811 0.65499 0.0
O63 O 0.24558 0.56803 0.66967 0.0
Zn64 Zn 0.26665 0.66629 0.6069 0.0
H65 H 0.24929 0.58188 0.70367 0.0
Zn66 Zn 0.27298 0.68441 0.8845 0.0
O67 O 0.27828 0.75149 0.81314 0.0
H68 H 0.24011 0.7144 0.78785 0.0
Zn69 Zn 0.40035 0.89158 0.7993 0.0
C70 C 0.07883 0.5802 0.92141 0.0
O71 O 0.07213 0.62017 0.87644 0.0
O72 O 0.52338 0.56877 0.76133 0.0
O73 O 0.58488 0.71828 0.70773 0.0
O74 O -0.01667 0.68134 0.76312 0.0
O75 O 0.07183 0.82746 0.70578 0.0
O76 O 0.05967 0.43144 0.60228 0.0
O77 O 0.1534 0.59976 0.56935 0.0
C78 C 0.54503 0.93271 0.71986 0.0
O79 O 0.35677 0.8022 0.92096 0.0
O80 O 0.46568 0.93056 0.86236 0.0
O81 O -0.07048 0.44835 0.76272 0.0
C82 C 0.59107 0.6509 0.73443 0.0
O83 O 0.38082 0.48765 0.85874 0.0
C84 C 0.28666 0.86627 0.60294 0.0
O85 O 0.16101 0.31092 0.66997 0.0
C86 C 0.0003 0.76423 0.73683 0.0
O87 O 0.15184 0.5905 0.93098 0.0
C88 C 0.42768 0.67875 0.57521 0.0
O89 O 0.56344 0.89384 0.6888 0.0
O90 O 0.46647 0.87883 0.74395 0.0
C91 C 0.07835 0.51111 0.5712 0.0
O92 O 0.25252 0.90505 0.62234 0.0
O93 O 0.27017 0.78239 0.62693 0.0
C94 C 0.31239 0.97552 0.75381 0.0
O95 O 0.36771 0.69223 0.56134 0.0
O96 O 0.45932 0.69523 0.61827 0.0
C97 C 0.42979 0.89229 0.90819 0.0
O98 O 0.37862 1.00177 0.77979 0.0
O99 O 0.27271 0.8895 0.73948 0.0
C100 C -0.06912 0.37758 0.74917 0.0
O101 O 0.00825 0.39537 0.73449 0.0
C102 C 0.38402 0.53664 0.89233 0.0
O103 O 0.38435 0.6185 0.87927 0.0
C104 C 0.44493 0.99869 0.97572 0.0
C105 C 0.44942 0.96125 0.94167 0.0
C106 C 0.42462 0.03355 0.01451 0.0
C107 C 0.41727 0.06511 0.05037 0.0
C108 C 0.45575 0.57729 0.51842 0.0
C109 C 0.44561 0.62378 0.54564 0.0
C110 C 0.45087 0.50573 0.49132 0.0
C111 C 0.43526 0.43388 0.473 0.0
C112 C 0.89583 0.47928 0.04223 0.0
C113 C 0.83656 0.44988 0.07515 0.0
C114 C -0.0422 0.5114 0.99962 0.0
C115 C 0.01169 0.54318 0.96309 0.0
C116 C 0.39115 0.96154 0.51577 0.0
C117 C 0.34356 0.91719 0.55559 0.0
C118 C 0.45564 0.02221 0.47272 0.0
C119 C 0.51454 0.07942 0.43813 0.0
C120 C 0.4644 0.48333 0.02842 0.0
C121 C 0.48882 0.47323 0.06968 0.0
C122 C 0.43239 0.49896 0.98192 0.0
C123 C 0.41034 0.51752 0.9413 0.0
C124 C 0.89743 0.51631 0.48332 0.0
C125 C 0.84471 0.52026 0.45706 0.0
C126 C -0.04208 0.50797 0.51366 0.0
C127 C 0.01021 0.50482 0.54067 0.0
C128 C 0.59355 0.86918 0.25077 0.0
C129 C 0.57663 0.93172 0.24494 0.0
C130 C 0.61466 0.79704 0.25687 0.0
C131 C 0.63378 0.73642 0.26316 0.0
C132 C 0.85102 0.75093 0.73794 0.0
C133 C 0.92533 0.77018 0.7339 0.0
C134 C 0.75851 0.71012 0.73968 0.0
C135 C 0.67997 0.67707 0.73934 0.0
C136 C 0.11028 0.87706 0.26736 0.0
C137 C 0.18058 0.96026 0.26815 0.0
C138 C 0.02636 0.7836 0.26317 0.0
C139 C -0.04211 0.70365 0.25633 0.0
C140 C 0.23811 0.17022 0.72565 0.0
C141 C 0.2197 0.23155 0.71848 0.0
C142 C 0.26192 0.10028 0.7336 0.0
C143 C 0.28299 0.04141 0.74205 0.0
C144 C 0.15647 0.38978 0.26548 0.0
C145 C 0.23091 0.40883 0.26675 0.0
C146 C 0.06573 0.35556 0.26278 0.0
C147 C -0.01017 0.3323 0.26188 0.0
C148 C 0.77228 0.20278 0.74269 0.0
C149 C 0.8459 0.2815 0.74517 0.0
C150 C 0.68662 0.11155 0.73764 0.0
C151 C 0.61783 0.03025 0.73208 0.0
loop_
_geom_bond_atom_site_label_1
_geom_bond_atom_site_label_2
_geom_bond_distance
_geom_bond_site_symmetry_2
_ccdc_geom_bond_type
Zn0 O2 1.933 . S
Zn0 O20 1.985 . S
Zn0 O31 1.955 . S
Zn1 O2 1.911 . S
Zn1 O21 1.970 . S
Zn1 O37 1.943 1_655 S
Zn1 O44 1.981 . S
O2 Zn0 1.933 . S
O2 Zn1 1.911 . S
O2 H3 0.841 . S
H3 O2 0.841 . S
C4 O5 1.246 . S
C4 O33 1.276 1_545 S
O5 C4 1.246 . S
Zn6 O8 1.911 . S
Zn6 O23 1.970 . S
Zn6 O40 1.945 . S
Zn6 O47 1.981 . S
Zn7 O8 1.933 . S
Zn7 O22 1.985 . S
Zn7 O29 1.955 . S
O8 Zn6 1.911 . S
O8 Zn7 1.933 . S
O8 H9 0.841 . S
H9 O8 0.841 . S
Zn10 O11 1.933 . S
Zn10 O24 1.985 . S
Zn10 O33 1.955 1_545 S
O11 Zn10 1.933 . S
O11 Zn12 1.911 . S
O11 H13 0.841 . S
Zn12 O11 1.911 . S
Zn12 O25 1.970 . S
Zn12 O41 1.981 . S
Zn12 O43 1.945 . S
H13 O11 0.841 . S
Zn14 O15 1.933 . S
Zn14 O27 1.985 . S
Zn14 O35 1.955 . S
O15 Zn14 1.933 . S
O15 H16 0.841 . S
O15 Zn17 1.911 . S
H16 O15 0.841 . S
Zn17 O15 1.911 . S
Zn17 O28 1.970 . S
Zn17 O38 1.981 . S
Zn17 O46 1.945 . S
C18 O19 1.246 . S
C18 O35 1.276 . S
O19 C18 1.246 . S
O20 Zn0 1.985 . S
O20 C30 1.245 . S
O21 Zn1 1.970 . S
O21 C30 1.263 . S
O22 Zn7 1.985 . S
O22 C34 1.245 . S
O23 Zn6 1.970 . S
O23 C34 1.263 . S
O24 Zn10 1.985 . S
O24 C39 1.245 . S
O25 Zn12 1.970 . S
O25 C39 1.263 . S
C26 O37 1.258 1_655 S
C26 O38 1.245 . S
O27 Zn14 1.985 . S
O27 C45 1.245 . S
O28 Zn17 1.970 . S
O28 C45 1.263 . S
O29 Zn7 1.955 . S
O29 C48 1.276 . S
C30 O20 1.245 . S
C30 O21 1.263 . S
O31 Zn0 1.955 . S
O31 C50 1.276 . S
C32 O40 1.262 . S
C32 O41 1.245 . S
O33 C4 1.276 1_565 S
O33 Zn10 1.955 1_565 S
C34 O22 1.245 . S
C34 O23 1.263 . S
O35 Zn14 1.955 . S
O35 C18 1.276 . S
C36 O43 1.262 . S
C36 O44 1.245 . S
O37 Zn1 1.943 1_455 S
O37 C26 1.258 1_455 S
O38 Zn17 1.981 . S
O38 C26 1.245 . S
C39 O24 1.245 . S
C39 O25 1.263 . S
O40 Zn6 1.945 . S
O40 C32 1.262 . S
O41 Zn12 1.981 . S
O41 C32 1.245 . S
C42 O46 1.262 . S
C42 O47 1.245 . S
O43 Zn12 1.945 . S
O43 C36 1.262 . S
O44 Zn1 1.981 . S
O44 C36 1.245 . S
C45 O27 1.245 . S
C45 O28 1.263 . S
O46 Zn17 1.945 . S
O46 C42 1.262 . S
O47 Zn6 1.981 . S
O47 C42 1.245 . S
C48 O29 1.276 . S
C48 O49 1.246 . S
O49 C48 1.246 . S
C50 O31 1.276 . S
C50 O51 1.246 . S
O51 C50 1.246 . S
Zn52 O54 1.933 . S
Zn52 O72 1.985 . S
Zn52 O83 1.955 . S
Zn53 O54 1.911 . S
Zn53 O73 1.970 . S
Zn53 O89 1.945 . S
Zn53 O96 1.981 . S
O54 Zn52 1.933 . S
O54 Zn53 1.911 . S
O54 H55 0.841 . S
H55 O54 0.841 . S
C56 O57 1.246 . S
C56 O85 1.276 . S
O57 C56 1.246 . S
Zn58 O60 1.911 . S
Zn58 O75 1.970 . S
Zn58 O92 1.945 . S
Zn58 O99 1.981 . S
Zn59 O60 1.933 . S
Zn59 O74 1.985 . S
Zn59 O81 1.955 1_455 S
O60 Zn58 1.911 . S
O60 Zn59 1.933 . S
O60 H61 0.841 . S
H61 O60 0.841 . S
Zn62 O63 1.933 . S
Zn62 O76 1.985 . S
Zn62 O85 1.955 . S
O63 Zn62 1.933 . S
O63 Zn64 1.911 . S
O63 H65 0.841 . S
Zn64 O63 1.911 . S
Zn64 O77 1.970 . S
Zn64 O93 1.981 . S
Zn64 O95 1.945 . S
H65 O63 0.841 . S
Zn66 O67 1.933 . S
Zn66 O79 1.985 . S
Zn66 O87 1.955 . S
O67 Zn66 1.933 . S
O67 H68 0.841 . S
O67 Zn69 1.911 . S
H68 O67 0.841 . S
Zn69 O67 1.911 . S
Zn69 O80 1.970 . S
Zn69 O90 1.981 . S
Zn69 O98 1.945 1_565 S
C70 O71 1.246 . S
C70 O87 1.276 . S
O71 C70 1.246 . S
O72 Zn52 1.985 . S
O72 C82 1.245 . S
O73 Zn53 1.970 . S
O73 C82 1.263 . S
O74 Zn59 1.985 . S
O74 C86 1.245 . S
O75 Zn58 1.970 . S
O75 C86 1.263 . S
O76 Zn62 1.985 . S
O76 C91 1.245 . S
O77 Zn64 1.970 . S
O77 C91 1.263 . S
C78 O89 1.262 . S
C78 O90 1.245 . S
O79 Zn66 1.985 . S
O79 C97 1.245 . S
O80 Zn69 1.970 . S
O80 C97 1.263 . S
O81 Zn59 1.955 1_655 S
O81 C100 1.276 1_655 S
C82 O72 1.245 . S
C82 O73 1.263 . S
O83 Zn52 1.955 . S
O83 C102 1.276 . S
C84 O92 1.262 . S
C84 O93 1.245 . S
O85 C56 1.276 . S
O85 Zn62 1.955 . S
C86 O74 1.245 . S
C86 O75 1.263 . S
O87 Zn66 1.955 . S
O87 C70 1.276 . S
C88 O95 1.262 . S
C88 O96 1.245 . S
O89 Zn53 1.945 . S
O89 C78 1.262 . S
O90 Zn69 1.981 . S
O90 C78 1.245 . S
C91 O76 1.245 . S
C91 O77 1.263 . S
O92 Zn58 1.945 . S
O92 C84 1.262 . S
O93 Zn64 1.981 . S
O93 C84 1.245 . S
C94 O98 1.262 1_565 S
C94 O99 1.245 . S
O95 Zn64 1.945 . S
O95 C88 1.262 . S
O96 Zn53 1.981 . S
O96 C88 1.245 . S
C97 O79 1.245 . S
C97 O80 1.263 . S
O98 Zn69 1.945 1_545 S
O98 C94 1.262 1_545 S
O99 Zn58 1.981 . S
O99 C94 1.245 . S
C100 O81 1.276 1_455 S
C100 O101 1.246 . S
O101 C100 1.246 . S
C102 O83 1.276 . S
C102 O103 1.246 . S
O103 C102 1.246 . S
C104 C105 1.170 . S
C104 C106 1.380 1_566 S
C105 C104 1.170 . S
C106 C104 1.380 1_544 S
C106 C107 1.170 . S
C107 C106 1.170 . S
C108 C109 1.170 . S
C108 C110 1.380 . S
C109 C108 1.170 . S
C110 C108 1.380 . S
C110 C111 1.170 . S
C111 C110 1.170 . S
C112 C113 1.170 . S
C112 C114 1.380 1_654 S
C113 C112 1.170 . S
C114 C112 1.380 1_456 S
C114 C115 1.170 . S
C115 C114 1.170 . S
C116 C117 1.170 . S
C116 C118 1.380 1_565 S
C117 C116 1.170 . S
C118 C116 1.380 1_545 S
C118 C119 1.170 . S
C119 C118 1.170 . S
C120 C121 1.170 . S
C120 C122 1.380 1_554 S
C121 C120 1.170 . S
C122 C120 1.380 1_556 S
C122 C123 1.170 . S
C123 C122 1.170 . S
C124 C125 1.170 . S
C124 C126 1.380 1_655 S
C125 C124 1.170 . S
C126 C124 1.380 1_455 S
C126 C127 1.170 . S
C127 C126 1.170 . S
C128 C129 1.170 . S
C128 C130 1.380 . S
C129 C128 1.170 . S
C130 C128 1.380 . S
C130 C131 1.170 . S
C131 C130 1.170 . S
C132 C133 1.170 . S
C132 C134 1.380 . S
C133 C132 1.170 . S
C134 C132 1.380 . S
C134 C135 1.170 . S
C135 C134 1.170 . S
C136 C137 1.170 . S
C136 C138 1.380 . S
C137 C136 1.170 . S
C138 C136 1.380 . S
C138 C139 1.170 . S
C139 C138 1.170 . S
C140 C141 1.170 . S
C140 C142 1.380 . S
C141 C140 1.170 . S
C142 C140 1.380 . S
C142 C143 1.170 . S
C143 C142 1.170 . S
C144 C145 1.170 . S
C144 C146 1.380 . S
C145 C144 1.170 . S
C146 C144 1.380 . S
C146 C147 1.170 . S
C147 C146 1.170 . S
C148 C149 1.170 . S
C148 C150 1.380 . S
C149 C148 1.170 . S
C150 C148 1.380 . S
C150 C151 1.170 . S
C151 C150 1.170 . S
C105 C97 0.809 . S
C107 C39 0.843 . S
C109 C88 2.665 . S
C111 C18 2.605 . S
C113 C36 1.755 . S
C115 C70 1.750 . S
C117 C84 2.841 . S
C119 C50 2.861 . S
C121 C32 1.804 . S
C123 C102 1.745 . S
C125 C45 2.201 . S
C127 C91 2.193 . S
C129 C4 1.401 1_565 S
C131 C42 1.416 . S
C133 C86 0.983 1_655 S
C135 C82 0.885 . S
C137 C48 1.440 1_565 S
C139 C26 1.424 1_455 S
C141 C56 1.441 . S
C143 C94 1.402 1_545 S
C145 C34 0.968 . S
C147 C30 0.921 1_455 S
C149 C100 1.451 1_655 S
C151 C78 1.421 1_545 S
