# Generated by pormake.
# Topology pcu, (6)-cn, num edge types: 1
# Building blocks:
#     Node 0, Type 0, BuildingBlock: BETGAK_clean_sbu_0, # of connection points: 6
#     Edge 1, Type (0, 0), BuildingBlock: MIFKUJ_clean_linker_0, # of connection points: 2
#     Edge 2, Type (0, 0), BuildingBlock: MIFKUJ_clean_linker_0, # of connection points: 2
#     Edge 3, Type (0, 0), BuildingBlock: MIFKUJ_clean_linker_0, # of connection points: 2
# Relax obj value: 0.000
# Max RMSD: 0.000
# Mean RMSD: 0.000
data_MOF--net-pcu--node1-BETGAK_clean_sbu_0--edge1-MIFKUJ_clean_linker_0
_symmetry_space_group_name_H-M    P1
_symmetry_Int_Tables_number       1
_symmetry_cell_setting            triclinic
loop_
_symmetry_equiv_pos_as_xyz
'x, y, z'
_cell_length_a     19.896981
_cell_length_b     29.699386
_cell_length_c     18.813179
_cell_angle_alpha  96.679238
_cell_angle_beta   85.898728
_cell_angle_gamma 122.18538
loop_
_atom_site_label
_atom_site_type_symbol
_atom_site_fract_x
_atom_site_fract_y
_atom_site_fract_z
_atom_type_partial_charge
La0 La 0.06426 0.07929 1.01084 0.0
La1 La 0.9664 0.96115 0.02724 0.0
C2 C 0.11836 0.17052 0.96916 0.0
C3 C 0.09733 0.21166 0.97516 0.0
C4 C 0.07316 0.227 0.04065 0.0
C5 C 0.05863 0.26853 0.04586 0.0
C6 C 0.06744 0.29542 0.98562 0.0
C7 C 0.0895 0.27876 0.91974 0.0
C8 C 0.10447 0.23748 0.91469 0.0
C9 C 0.05298 0.05328 0.14233 0.0
C10 C 0.87539 1.01999 0.03359 0.0
C11 C 0.91209 0.86973 0.06837 0.0
C12 C 0.93329 0.82868 0.06251 0.0
C13 C 0.95755 0.81332 0.99709 0.0
C14 C 0.97216 0.77183 0.99199 0.0
C15 C 0.96337 0.74501 0.05229 0.0
C16 C 0.94124 0.76169 0.11812 0.0
C17 C 0.92617 0.80292 0.12305 0.0
C18 C 0.97787 0.98754 0.89583 0.0
C19 C 0.15528 0.02047 1.00479 0.0
O20 O 0.14057 0.16243 0.02775 0.0
O21 O 0.07144 0.12576 0.93073 0.0
O22 O 0.11314 0.09547 0.11783 0.0
O23 O 0.99848 0.0312 0.09681 0.0
O24 O 0.9421 0.06171 1.01164 0.0
O25 O 0.8733 0.97791 0.05319 0.0
O26 O 0.89044 0.87802 1.00962 0.0
O27 O 0.95852 0.91438 0.10724 0.0
O28 O 0.91747 0.94542 0.92024 0.0
O29 O 0.03221 1.00921 0.94143 0.0
O30 O 0.08856 0.97877 0.02675 0.0
O31 O 0.15736 0.06251 0.98505 0.0
H32 H 0.06681 0.20758 0.08815 0.0
H33 H 0.04255 0.28046 0.09763 0.0
H34 H 0.09533 0.29765 0.87187 0.0
H35 H 0.12257 0.22609 0.86354 0.0
H36 H 0.96387 0.83268 0.94953 0.0
H37 H 0.98829 0.75989 0.94026 0.0
H38 H 0.93541 0.74284 0.16603 0.0
H39 H 0.908 0.81432 0.17416 0.0
H40 H 0.07601 0.98633 0.20868 0.0
H41 H 0.06349 0.97517 0.33722 0.0
H42 H 0.99287 0.09049 0.37594 0.0
H43 H 1.00651 0.10198 0.24733 0.0
H44 H 0.0993 0.10927 0.47242 0.0
H45 H 0.85696 0.95581 0.37946 0.0
H46 H 0.77661 0.87482 0.29813 0.0
H47 H 0.88982 0.80122 0.37564 0.0
H48 H 0.97172 0.88213 0.45679 0.0
H49 H 0.95374 0.05386 0.82918 0.0
H50 H 0.96663 0.06509 0.70063 0.0
H51 H 0.03975 0.95106 0.66252 0.0
H52 H 0.026 0.93961 0.79117 0.0
H53 H 0.93212 0.9316 0.56581 0.0
H54 H 0.17431 0.0852 0.65898 0.0
H55 H 0.25432 0.1662 0.74042 0.0
H56 H 0.14084 0.23952 0.66261 0.0
H57 H 0.05928 0.15861 0.58134 0.0
C58 C 0.05694 1.0087 0.2448 0.0
C59 C 0.04105 0.04438 0.21867 0.0
C60 C 0.04982 1.0024 0.31812 0.0
C61 C 0.02633 0.03156 0.36642 0.0
C62 C 1.01091 0.0675 0.3399 0.0
C63 C 0.0182 0.07384 0.2666 0.0
C64 C 0.01873 0.02507 0.44456 0.0
C65 C 0.06188 0.07049 0.49286 0.0
C66 C 0.97132 0.97437 0.47139 0.0
C67 C 0.92101 0.92524 0.42373 0.0
C68 C 0.86506 0.92248 0.37888 0.0
C69 C 0.8192 0.87657 0.33283 0.0
C70 C 0.82827 0.83296 0.33157 0.0
C71 C 0.88295 0.83507 0.37661 0.0
C72 C 0.92904 0.88092 0.42271 0.0
C73 C 0.97346 0.0318 0.7932 0.0
C74 C 0.99006 0.99652 0.81951 0.0
C75 C 0.98076 0.03813 0.71989 0.0
C76 C 1.005 1.00933 0.67177 0.0
C77 C 0.02112 0.97377 0.69844 0.0
C78 C 1.01376 0.96747 0.77177 0.0
C79 C 1.01267 1.0158 0.59363 0.0
C80 C 0.96953 0.97037 0.54536 0.0
C81 C 0.06003 0.0665 0.56682 0.0
C82 C 0.11016 0.11564 0.61454 0.0
C83 C 0.16608 0.11848 0.65952 0.0
C84 C 0.21174 0.16438 0.70562 0.0
C85 C 0.2025 0.20792 0.70683 0.0
C86 C 0.14784 0.20573 0.66167 0.0
C87 C 0.10195 0.15988 0.61552 0.0
H88 H 0.2378 0.24339 0.74266 0.0
H89 H 0.79282 0.7975 0.29579 0.0
H90 H 0.17022 0.93625 0.02321 0.0
H91 H 0.2925 0.93617 0.02663 0.0
H92 H 0.42967 0.10228 0.98586 0.0
H93 H 0.30734 0.10247 0.98079 0.0
H94 H 0.48774 0.04771 0.9108 0.0
H95 H 0.40959 0.06473 0.15536 0.0
H96 H 0.3164 0.03874 0.25814 0.0
H97 H 0.29794 0.88723 0.24502 0.0
H98 H 0.39017 0.91202 0.14144 0.0
H99 H 0.86046 0.10424 1.01536 0.0
H100 H 0.73818 0.10434 1.01204 0.0
H101 H 0.60101 0.93821 0.05269 0.0
H102 H 0.72334 0.938 0.05766 0.0
H103 H 0.54295 0.99279 0.12783 0.0
H104 H 0.62109 0.97577 0.88326 0.0
H105 H 0.71429 1.00177 0.78048 0.0
H106 H 0.73277 0.15329 0.79363 0.0
H107 H 0.64054 0.12849 0.89721 0.0
C108 C 0.22631 0.97275 1.01454 0.0
C109 C 0.22903 1.01952 1.00221 0.0
C110 C 0.29623 0.97266 1.01679 0.0
C111 C 0.37033 1.01948 1.00781 0.0
C112 C 0.37314 0.06575 0.99321 0.0
C113 C 0.30314 0.0658 0.99042 0.0
C114 C 0.4449 0.0205 1.01528 0.0
C115 C 0.50028 0.03636 0.9586 0.0
C116 C 0.46054 1.00466 0.07712 0.0
C117 C 0.40627 0.99007 0.14027 0.0
C118 C 0.38533 0.02576 0.17416 0.0
C119 C 0.3327 1.01125 0.23257 0.0
C120 C 0.30114 0.96132 0.258 0.0
C121 C 0.32238 0.92587 0.22522 0.0
C122 C 0.37489 0.94015 0.1667 0.0
C123 C 0.80437 0.06774 0.02403 0.0
C124 C 0.80165 0.02096 0.03628 0.0
C125 C 0.73446 0.06784 0.02184 0.0
C126 C 0.66036 0.02102 0.03081 0.0
C127 C 0.65754 0.97474 0.04536 0.0
C128 C 0.72754 0.97468 0.04808 0.0
C129 C 0.58579 1.02 0.02335 0.0
C130 C 0.53041 1.00414 0.08003 0.0
C131 C 0.57015 0.03585 0.96152 0.0
C132 C 0.62442 0.05044 0.89836 0.0
C133 C 0.64536 1.01475 0.86447 0.0
C134 C 0.69799 0.02926 0.80606 0.0
C135 C 0.72956 0.0792 0.78064 0.0
C136 C 0.70832 0.11464 0.81342 0.0
C137 C 0.65581 0.10036 0.87194 0.0
H138 H 0.77037 0.09038 0.73547 0.0
H139 H 0.26034 0.95013 0.30318 0.0
H140 H 0.07482 0.73299 0.97166 0.0
H141 H 0.09104 0.65642 0.95959 0.0
H142 H 0.89644 0.5766 0.10766 0.0
H143 H 0.8785 0.65232 0.11888 0.0
H144 H 0.02168 0.56889 0.13733 0.0
H145 H 0.86976 0.53933 0.93152 0.0
H146 H 0.83883 0.56182 0.82116 0.0
H147 H 0.05368 0.58248 0.72241 0.0
H148 H 0.08652 0.56088 0.83264 0.0
H149 H 0.95608 0.30746 0.06638 0.0
H150 H 0.93989 0.38404 0.07855 0.0
H151 H 0.13446 0.46388 0.93046 0.0
H152 H 0.15236 0.38815 0.91914 0.0
H153 H 1.00921 0.47158 0.90081 0.0
H154 H 0.16112 0.50113 0.10663 0.0
H155 H 0.19205 0.47865 0.21699 0.0
H156 H 0.97719 0.45799 0.31573 0.0
H157 H 0.94435 0.47958 0.2055 0.0
C158 C 0.03485 0.69898 1.00118 0.0
C159 C 0.97518 0.69903 0.04618 0.0
C160 C 0.04442 0.65525 0.99435 0.0
C161 C 0.99455 0.61052 0.03228 0.0
C162 C 0.93578 0.6107 0.07801 0.0
C163 C 0.9259 0.65427 0.08462 0.0
C164 C 1.00364 0.56355 0.02442 0.0
C165 C 0.01789 0.54717 0.08573 0.0
C166 C 1.00046 0.53587 0.95691 0.0
C167 C 0.98104 0.54908 0.89064 0.0
C168 C 0.91081 0.54917 0.88652 0.0
C169 C 0.89285 0.56166 0.82394 0.0
C170 C 0.94437 0.57373 0.76489 0.0
C171 C 1.0139 0.57322 0.76825 0.0
C172 C 0.0322 0.56084 0.83075 0.0
C173 C 0.99605 0.34147 0.03689 0.0
C174 C 0.05569 0.34143 0.99183 0.0
C175 C 0.9865 0.38522 0.04376 0.0
C176 C 0.03636 0.42995 1.00584 0.0
C177 C 0.09512 0.42978 0.9601 0.0
C178 C 0.10498 0.3862 0.95343 0.0
C179 C 0.02725 0.47692 1.01372 0.0
C180 C 1.013 0.49329 0.95241 0.0
C181 C 0.03042 0.50459 0.08123 0.0
C182 C 0.04984 0.49138 0.1475 0.0
C183 C 0.12008 0.49129 0.15162 0.0
C184 C 0.13803 0.4788 0.2142 0.0
C185 C 0.0865 0.46674 0.27326 0.0
C186 C 0.01698 0.46724 0.26989 0.0
C187 C 0.99868 0.47962 0.20739 0.0
H188 H 0.10055 0.45713 0.32169 0.0
H189 H 0.93033 0.58333 0.71646 0.0
loop_
_geom_bond_atom_site_label_1
_geom_bond_atom_site_label_2
_geom_bond_distance
_geom_bond_site_symmetry_2
_ccdc_geom_bond_type
La0 C2 2.928 . S
La0 O20 2.521 . S
La0 O21 2.628 1_554 S
La0 O22 2.554 . S
La0 O23 2.757 1_545 S
La0 O24 2.470 1_455 S
La0 O29 2.482 1_454 S
La0 O31 2.503 . S
La1 C11 2.928 . S
La1 O23 2.482 1_656 S
La1 O25 2.503 . S
La1 O26 2.521 . S
La1 O27 2.628 1_556 S
La1 O28 2.554 . S
La1 O29 2.757 1_565 S
La1 O30 2.470 1_655 S
C2 La0 2.928 . S
C2 C3 1.503 . S
C2 O20 1.261 . S
C2 O21 1.243 1_554 S
C3 C2 1.503 . S
C3 C4 1.394 . S
C3 C8 1.373 1_454 S
C4 C3 1.394 . S
C4 C5 1.380 . S
C4 H32 0.930 . S
C5 C4 1.380 . S
C5 C6 1.387 . S
C5 H33 0.930 . S
C6 C5 1.387 . S
C6 C7 1.361 1_454 S
C7 C6 1.361 1_656 S
C7 C8 1.396 . S
C7 H34 0.929 . S
C8 C3 1.373 1_656 S
C8 C7 1.396 . S
C8 H35 0.929 . S
C9 O22 1.240 . S
C9 O23 1.289 1_545 S
C10 O24 1.258 1_565 S
C10 O25 1.255 1_554 S
C11 La1 2.928 . S
C11 C12 1.503 . S
C11 O26 1.261 . S
C11 O27 1.243 1_556 S
C12 C11 1.503 . S
C12 C13 1.394 . S
C12 C17 1.373 1_656 S
C13 C12 1.394 . S
C13 C14 1.380 . S
C13 H36 0.930 . S
C14 C13 1.380 . S
C14 C15 1.383 . S
C14 H37 0.930 . S
C15 C14 1.383 . S
C15 C16 1.364 1_656 S
C16 C15 1.364 1_454 S
C16 C17 1.396 . S
C16 H38 0.929 . S
C17 C12 1.373 1_454 S
C17 C16 1.396 . S
C17 H39 0.929 . S
C18 O28 1.240 . S
C18 O29 1.289 1_565 S
C19 O30 1.258 1_545 S
C19 O31 1.255 1_556 S
O20 La0 2.521 . S
O20 C2 1.261 . S
O21 La0 2.628 1_556 S
O21 C2 1.243 1_556 S
O22 La0 2.554 . S
O22 C9 1.240 . S
O23 La0 2.757 1_565 S
O23 La1 2.482 1_454 S
O23 C9 1.289 1_565 S
O24 La0 2.470 1_655 S
O24 C10 1.258 1_545 S
O25 La1 2.503 . S
O25 C10 1.255 1_556 S
O26 La1 2.521 . S
O26 C11 1.261 . S
O27 La1 2.628 1_554 S
O27 C11 1.243 1_554 S
O28 La1 2.554 . S
O28 C18 1.240 . S
O29 La0 2.482 1_656 S
O29 La1 2.757 1_545 S
O29 C18 1.289 1_545 S
O30 La1 2.470 1_455 S
O30 C19 1.258 1_565 S
O31 La0 2.503 . S
O31 C19 1.255 1_554 S
H32 C4 0.930 . S
H33 C5 0.930 . S
H34 C7 0.929 . S
H35 C8 0.929 . S
H36 C13 0.930 . S
H37 C14 0.930 . S
H38 C16 0.929 . S
H39 C17 0.929 . S
H40 C58 0.951 . S
H41 C60 0.951 . S
H42 C62 0.950 . S
H43 C63 0.950 . S
H44 C65 0.950 . S
H45 C68 0.950 . S
H46 C69 0.950 . S
H47 C71 0.950 . S
H48 C72 0.950 . S
H49 C73 0.951 . S
H50 C75 0.951 . S
H51 C77 0.950 . S
H52 C78 0.950 . S
H53 C80 0.950 . S
H54 C83 0.950 . S
H55 C84 0.950 . S
H56 C86 0.950 . S
H57 C87 0.950 . S
C58 H40 0.951 . S
C58 C59 1.365 1_565 S
C58 C60 1.388 . S
C59 C58 1.365 1_545 S
C59 C63 1.385 1_455 S
C60 H41 0.951 . S
C60 C58 1.388 . S
C60 C61 1.366 1_455 S
C61 C60 1.366 1_655 S
C61 C62 1.414 1_565 S
C61 C64 1.499 . S
C62 H42 0.950 . S
C62 C61 1.414 1_545 S
C62 C63 1.374 . S
C63 H43 0.950 . S
C63 C59 1.385 1_655 S
C63 C62 1.374 . S
C64 C61 1.499 . S
C64 C65 1.373 1_665 S
C64 C66 1.389 . S
C65 H44 0.950 . S
C65 C64 1.373 1_445 S
C65 C81 1.377 . S
C66 C64 1.389 . S
C66 C67 1.524 . S
C66 C80 1.377 . S
C67 C66 1.524 . S
C67 C68 1.397 . S
C67 C72 1.363 . S
C68 H45 0.950 . S
C68 C67 1.397 . S
C68 C69 1.334 . S
C69 H46 0.950 . S
C69 C68 1.334 . S
C69 C70 1.287 . S
C70 C69 1.287 . S
C70 C71 1.524 . S
C70 H89 0.913 . S
C71 H47 0.950 . S
C71 C70 1.524 . S
C71 C72 1.415 . S
C72 H48 0.950 . S
C72 C67 1.363 . S
C72 C71 1.415 . S
C73 H49 0.951 . S
C73 C74 1.362 . S
C73 C75 1.388 . S
C74 C73 1.362 . S
C74 C78 1.388 1_645 S
C75 H50 0.951 . S
C75 C73 1.388 . S
C75 C76 1.366 1_655 S
C76 C75 1.366 1_455 S
C76 C77 1.414 1_545 S
C76 C79 1.499 . S
C77 H51 0.950 . S
C77 C76 1.414 1_565 S
C77 C78 1.374 . S
C78 H52 0.950 . S
C78 C74 1.388 1_465 S
C78 C77 1.374 . S
C79 C76 1.499 . S
C79 C80 1.373 1_445 S
C79 C81 1.389 . S
C80 H53 0.950 . S
C80 C66 1.377 . S
C80 C79 1.373 1_665 S
C81 C65 1.377 . S
C81 C79 1.389 . S
C81 C82 1.524 . S
C82 C81 1.524 . S
C82 C83 1.397 . S
C82 C87 1.363 . S
C83 H54 0.950 . S
C83 C82 1.397 . S
C83 C84 1.334 . S
C84 H55 0.950 . S
C84 C83 1.334 . S
C84 C85 1.287 . S
C85 C84 1.287 . S
C85 C86 1.524 . S
C85 H88 0.999 . S
C86 H56 0.950 . S
C86 C85 1.524 . S
C86 C87 1.415 . S
C87 H57 0.950 . S
C87 C82 1.363 . S
C87 C86 1.415 . S
H88 C85 0.999 . S
H89 C70 0.913 . S
H90 C108 0.951 . S
H91 C110 0.951 . S
H92 C112 0.950 . S
H93 C113 0.950 . S
H94 C115 0.950 . S
H95 C118 0.950 . S
H96 C119 0.950 1_545 S
H97 C121 0.950 . S
H98 C122 0.950 . S
H99 C123 0.951 . S
H100 C125 0.951 . S
H101 C127 0.950 . S
H102 C128 0.950 . S
H103 C130 0.950 . S
H104 C133 0.950 . S
H105 C134 0.950 1_565 S
H106 C136 0.950 . S
H107 C137 0.950 . S
C108 H90 0.951 . S
C108 C109 1.366 1_564 S
C108 C110 1.388 . S
C109 C108 1.366 1_546 S
C109 C113 1.384 . S
C110 H91 0.951 . S
C110 C108 1.388 . S
C110 C111 1.366 1_565 S
C111 C110 1.366 1_545 S
C111 C112 1.414 1_554 S
C111 C114 1.499 . S
C112 H92 0.950 . S
C112 C111 1.414 1_556 S
C112 C113 1.374 . S
C113 H93 0.950 . S
C113 C109 1.384 . S
C113 C112 1.374 . S
C114 C111 1.499 . S
C114 C115 1.373 1_554 S
C114 C116 1.389 1_545 S
C115 H94 0.950 . S
C115 C114 1.373 1_556 S
C115 C131 1.377 . S
C116 C114 1.389 1_565 S
C116 C117 1.524 . S
C116 C130 1.377 . S
C117 C116 1.524 . S
C117 C118 1.397 1_565 S
C117 C122 1.363 . S
C118 H95 0.950 . S
C118 C117 1.397 1_545 S
C118 C119 1.334 1_545 S
C119 H96 0.950 1_565 S
C119 C118 1.334 1_565 S
C119 C120 1.287 . S
C120 C119 1.287 . S
C120 C121 1.524 . S
C120 H139 0.913 . S
C121 H97 0.950 . S
C121 C120 1.524 . S
C121 C122 1.415 . S
C122 H98 0.950 . S
C122 C117 1.363 . S
C122 C121 1.415 . S
C123 H99 0.951 . S
C123 C124 1.365 1_556 S
C123 C125 1.388 . S
C124 C123 1.365 1_554 S
C124 C128 1.385 1_545 S
C125 H100 0.951 . S
C125 C123 1.388 . S
C125 C126 1.357 1_545 S
C126 C125 1.357 1_565 S
C126 C127 1.436 1_556 S
C126 C129 1.486 . S
C127 H101 0.950 . S
C127 C126 1.436 1_554 S
C127 C128 1.374 . S
C128 H102 0.950 . S
C128 C124 1.385 1_565 S
C128 C127 1.374 . S
C129 C126 1.486 . S
C129 C130 1.373 1_556 S
C129 C131 1.389 1_565 S
C130 H103 0.950 . S
C130 C116 1.377 . S
C130 C129 1.373 1_554 S
C131 C115 1.377 . S
C131 C129 1.389 1_545 S
C131 C132 1.524 . S
C132 C131 1.524 . S
C132 C133 1.397 1_545 S
C132 C137 1.363 . S
C133 H104 0.950 . S
C133 C132 1.397 1_565 S
C133 C134 1.334 1_565 S
C134 H105 0.950 1_545 S
C134 C133 1.334 1_545 S
C134 C135 1.287 . S
C135 C134 1.287 . S
C135 C136 1.524 . S
C135 H138 0.999 . S
C136 H106 0.950 . S
C136 C135 1.524 . S
C136 C137 1.415 . S
C137 H107 0.950 . S
C137 C132 1.363 . S
C137 C136 1.415 . S
H138 C135 0.999 . S
H139 C120 0.913 . S
H140 C158 0.951 . S
H141 C160 0.951 . S
H142 C162 0.950 . S
H143 C163 0.950 . S
H144 C165 0.950 . S
H145 C168 0.950 . S
H146 C169 0.950 . S
H147 C171 0.950 . S
H148 C172 0.950 . S
H149 C173 0.951 . S
H150 C175 0.951 . S
H151 C177 0.950 . S
H152 C178 0.950 . S
H153 C180 0.950 . S
H154 C183 0.950 . S
H155 C184 0.950 . S
H156 C186 0.950 . S
H157 C187 0.950 . S
C158 H140 0.951 . S
C158 C159 1.366 1_556 S
C158 C160 1.388 . S
C159 C158 1.366 1_554 S
C159 C163 1.386 1_455 S
C160 H141 0.951 . S
C160 C158 1.388 . S
C160 C161 1.366 1_455 S
C161 C160 1.366 1_655 S
C161 C162 1.414 1_556 S
C161 C164 1.499 . S
C162 H142 0.950 . S
C162 C161 1.414 1_554 S
C162 C163 1.374 . S
C163 H143 0.950 . S
C163 C159 1.386 1_655 S
C163 C162 1.374 . S
C164 C161 1.499 . S
C164 C165 1.373 1_656 S
C164 C166 1.389 . S
C165 H144 0.950 . S
C165 C164 1.373 1_454 S
C165 C181 1.377 . S
C166 C164 1.389 . S
C166 C167 1.524 . S
C166 C180 1.377 . S
C167 C166 1.524 . S
C167 C168 1.397 . S
C167 C172 1.363 1_655 S
C168 H145 0.950 . S
C168 C167 1.397 . S
C168 C169 1.334 . S
C169 H146 0.950 . S
C169 C168 1.334 . S
C169 C170 1.287 . S
C170 C169 1.287 . S
C170 C171 1.524 1_655 S
C170 H189 0.913 . S
C171 H147 0.950 . S
C171 C170 1.524 1_455 S
C171 C172 1.415 . S
C172 H148 0.950 . S
C172 C167 1.363 1_455 S
C172 C171 1.415 . S
C173 H149 0.951 . S
C173 C174 1.368 1_654 S
C173 C175 1.388 . S
C174 C173 1.368 1_456 S
C174 C178 1.383 . S
C175 H150 0.951 . S
C175 C173 1.388 . S
C175 C176 1.366 1_655 S
C176 C175 1.366 1_455 S
C176 C177 1.414 1_554 S
C176 C179 1.499 . S
C177 H151 0.950 . S
C177 C176 1.414 1_556 S
C177 C178 1.374 . S
C178 H152 0.950 . S
C178 C174 1.383 . S
C178 C177 1.374 . S
C179 C176 1.499 . S
C179 C180 1.373 1_454 S
C179 C181 1.389 . S
C180 H153 0.950 . S
C180 C166 1.377 . S
C180 C179 1.373 1_656 S
C181 C165 1.377 . S
C181 C179 1.389 . S
C181 C182 1.524 . S
C182 C181 1.524 . S
C182 C183 1.397 . S
C182 C187 1.363 1_455 S
C183 H154 0.950 . S
C183 C182 1.397 . S
C183 C184 1.334 . S
C184 H155 0.950 . S
C184 C183 1.334 . S
C184 C185 1.287 . S
C185 C184 1.287 . S
C185 C186 1.524 1_455 S
C185 H188 0.999 . S
C186 H156 0.950 . S
C186 C185 1.524 1_655 S
C186 C187 1.415 . S
C187 H157 0.950 . S
C187 C182 1.363 1_655 S
C187 C186 1.415 . S
H188 C185 0.999 . S
H189 C170 0.913 . S
C59 C9 1.450 . S
C74 C18 1.450 1_545 S
C109 C19 1.483 . S
C124 C10 1.484 1_545 S
C159 C15 1.498 1_454 S
C174 C6 1.498 1_556 S
