# Generated by pormake.
# Topology pcu, (6)-cn, num edge types: 1
# Building blocks:
#     Node 0, Type 0, BuildingBlock: PAMTOO_clean_sbu_0, # of connection points: 6
#     Edge 1, Type (0, 0), BuildingBlock: OJICUG_clean_linker_0, # of connection points: 2
#     Edge 2, Type (0, 0), BuildingBlock: OJICUG_clean_linker_0, # of connection points: 2
#     Edge 3, Type (0, 0), BuildingBlock: OJICUG_clean_linker_0, # of connection points: 2
# Relax obj value: 0.000
# Max RMSD: 0.000
# Mean RMSD: 0.000
data_MOF--net-pcu--node1-PAMTOO_clean_sbu_0--edge1-OJICUG_clean_linker_0
_symmetry_space_group_name_H-M    P1
_symmetry_Int_Tables_number       1
_symmetry_cell_setting            triclinic
loop_
_symmetry_equiv_pos_as_xyz
'x, y, z'
_cell_length_a     21.512491
_cell_length_b     11.269529
_cell_length_c     11.186735
_cell_angle_alpha  85.424358
_cell_angle_beta   98.195036
_cell_angle_gamma 116.28215
loop_
_atom_site_label
_atom_site_type_symbol
_atom_site_fract_x
_atom_site_fract_y
_atom_site_fract_z
_atom_type_partial_charge
Dy0 Dy 0.11848 0.05033 0.0008 0.0
Dy1 Dy 0.94332 0.90577 0.9625 0.0
C2 C 0.03314 0.97906 0.74017 0.0
O3 O 0.08638 0.21373 0.95539 0.0
O4 O 0.97351 0.11543 0.00439 0.0
O5 O 0.2176 0.17791 0.93689 0.0
O6 O 0.21441 0.0867 0.11531 0.0
O7 O 0.97712 0.889 0.1588 0.0
O8 O 0.08438 0.06853 0.17427 0.0
O9 O 0.97328 0.74531 0.93467 0.0
O10 O 0.08633 0.8336 0.02978 0.0
O11 O 0.84425 0.78765 0.03055 0.0
O12 O 0.84671 0.85982 0.84595 0.0
C13 C 1.02992 0.22066 -0.02069 0.0
O14 O 0.08695 0.97886 0.81182 0.0
O15 O 0.97967 -0.01928 0.78234 0.0
C16 C 0.31006 0.12359 0.01427 0.0
C17 C 0.41932 0.05619 -0.00921 0.0
C18 C 0.34951 0.96938 0.95157 0.0
C19 C 0.29528 0.00275 0.96344 0.0
C20 C 0.37943 0.21107 0.05193 0.0
C21 C 0.43361 0.17785 0.04031 0.0
C22 C 0.25376 0.15755 0.03341 0.0
C23 C 1.0309 0.97831 0.22355 0.0
C24 C 1.02978 0.73346 -0.01765 0.0
C25 C 0.75201 0.83764 0.94273 0.0
C26 C 0.64387 0.91085 0.95843 0.0
C27 C 0.71369 -0.00391 -0.00064 0.0
C28 C 0.76734 0.95983 -0.00861 0.0
C29 C 0.68268 0.75224 0.9023 0.0
C30 C 0.62906 0.78836 0.91003 0.0
C31 C 0.80767 0.79899 0.93089 0.0
H32 H 0.33661 0.87438 0.91425 0.0
H33 H 0.24182 0.93367 0.93456 0.0
H34 H 0.39167 0.30474 0.09146 0.0
H35 H 0.48677 0.24773 0.06979 0.0
H36 H 0.72702 0.09171 0.0358 0.0
H37 H 0.82075 0.02732 0.02243 0.0
H38 H 0.67001 0.65754 0.86444 0.0
H39 H 0.57587 0.71965 0.87924 0.0
C40 C 0.96845 0.92525 0.40706 0.0
C41 C 0.03138 0.97765 0.35568 0.0
H42 H 0.91976 0.88671 0.5692 0.0
C43 C 0.09496 0.02995 0.43167 0.0
H44 H 0.9187 0.88477 0.35054 0.0
C45 C 0.09558 0.02877 0.55688 0.0
C46 C 0.03266 0.97819 0.60813 0.0
H47 H 0.14427 0.0704 0.39448 0.0
H48 H 0.14534 0.06926 0.61336 0.0
C49 C 0.96908 0.92695 0.53204 0.0
C50 C 0.53166 0.04687 0.07683 0.0
C51 C 0.477 0.01948 -0.01804 0.0
H52 H 0.62641 0.0327 0.1446 0.0
C53 C 0.47786 0.95661 0.87903 0.0
H54 H 0.53203 0.09321 0.15827 0.0
C55 C 0.53204 0.92194 0.8712 0.0
C56 C 0.58664 0.94913 0.96619 0.0
H57 H 0.43714 0.93583 0.80362 0.0
H58 H 0.53162 0.87533 0.7899 0.0
C59 C 0.58581 0.0122 0.06901 0.0
C60 C 0.96673 0.48664 0.96859 0.0
C61 C 1.02993 0.6024 -0.01835 0.0
H62 H 0.91717 0.27531 0.95878 0.0
C63 C 0.09321 0.59175 -0.0067 0.0
H64 H 0.91711 0.49154 0.95977 0.0
C65 C 0.09324 0.46789 -0.00892 0.0
C66 C 1.03002 0.35202 -0.02073 0.0
H67 H 0.14278 0.67922 0.00282 0.0
H68 H 0.14284 0.46292 9e-05 0.0
C69 C 0.96678 0.36268 0.96846 0.0
loop_
_geom_bond_atom_site_label_1
_geom_bond_atom_site_label_2
_geom_bond_distance
_geom_bond_site_symmetry_2
_ccdc_geom_bond_type
Dy0 O3 2.307 . S
Dy0 O5 2.395 1_554 S
Dy0 O6 2.379 . S
Dy0 O8 2.339 . S
Dy0 O10 2.298 1_545 S
Dy0 O14 2.275 1_554 S
Dy0 C22 2.738 . S
Dy1 O4 2.298 1_565 S
Dy1 O7 2.275 1_556 S
Dy1 O9 2.307 . S
Dy1 O11 2.395 1_556 S
Dy1 O12 2.379 . S
Dy1 O15 2.339 . S
Dy1 C31 2.738 . S
C2 O14 1.254 1_665 S
C2 O15 1.257 . S
O3 Dy0 2.307 . S
O3 C13 1.275 1_554 S
O4 Dy1 2.298 1_545 S
O4 C13 1.232 1_655 S
O5 Dy0 2.395 1_556 S
O5 C22 1.255 1_556 S
O6 Dy0 2.379 . S
O6 C22 1.249 . S
O7 Dy1 2.275 1_554 S
O7 C23 1.254 1_665 S
O8 Dy0 2.339 . S
O8 C23 1.257 . S
O9 Dy1 2.307 . S
O9 C24 1.270 1_556 S
O10 Dy0 2.298 1_565 S
O10 C24 1.234 1_455 S
O11 Dy1 2.395 1_554 S
O11 C31 1.255 1_554 S
O12 Dy1 2.379 . S
O12 C31 1.249 . S
C13 O3 1.275 1_556 S
C13 O4 1.232 1_455 S
O14 Dy0 2.275 1_556 S
O14 C2 1.254 1_445 S
O15 Dy1 2.339 . S
O15 C2 1.257 . S
C16 C19 1.344 1_544 S
C16 C20 1.328 . S
C16 C22 1.516 . S
C17 C18 1.304 . S
C17 C21 1.323 1_566 S
C18 C17 1.304 . S
C18 C19 1.371 . S
C18 H32 0.930 . S
C19 C16 1.344 1_566 S
C19 C18 1.371 . S
C19 H33 0.931 . S
C20 C16 1.328 . S
C20 C21 1.433 . S
C20 H34 0.931 . S
C21 C17 1.323 1_544 S
C21 C20 1.433 . S
C21 H35 0.933 . S
C22 Dy0 2.738 . S
C22 O5 1.255 1_554 S
C22 O6 1.249 . S
C22 C16 1.516 . S
C23 O7 1.254 1_445 S
C23 O8 1.257 . S
C24 O9 1.270 1_554 S
C24 O10 1.234 1_655 S
C25 C28 1.344 1_566 S
C25 C29 1.328 . S
C25 C31 1.516 . S
C26 C27 1.304 . S
C26 C30 1.323 1_544 S
C27 C26 1.304 . S
C27 C28 1.371 . S
C27 H36 0.930 . S
C28 C25 1.344 1_544 S
C28 C27 1.371 . S
C28 H37 0.931 . S
C29 C25 1.328 . S
C29 C30 1.433 . S
C29 H38 0.931 . S
C30 C26 1.323 1_566 S
C30 C29 1.433 . S
C30 H39 0.933 . S
C31 Dy1 2.738 . S
C31 O11 1.255 1_556 S
C31 O12 1.249 . S
C31 C25 1.516 . S
H32 C18 0.930 . S
H33 C19 0.931 . S
H34 C20 0.931 . S
H35 C21 0.933 . S
H36 C27 0.930 . S
H37 C28 0.931 . S
H38 C29 0.931 . S
H39 C30 0.933 . S
C40 C41 1.387 . S
C40 H44 0.950 . S
C40 C49 1.390 . S
C41 C40 1.387 . S
C41 C43 1.388 1_665 S
H42 C49 0.950 . S
C43 C41 1.388 1_445 S
C43 C45 1.390 . S
C43 H47 0.950 . S
H44 C40 0.950 . S
C45 C43 1.390 . S
C45 C46 1.388 . S
C45 H48 0.950 . S
C46 C45 1.388 . S
C46 C49 1.388 1_445 S
H47 C43 0.950 . S
H48 C45 0.950 . S
C49 C40 1.390 . S
C49 H42 0.950 . S
C49 C46 1.388 1_665 S
C50 C51 1.386 1_565 S
C50 H54 0.950 . S
C50 C59 1.390 . S
C51 C50 1.386 1_545 S
C51 C53 1.386 1_554 S
H52 C59 0.950 . S
C53 C51 1.386 1_556 S
C53 C55 1.390 . S
C53 H57 0.950 . S
H54 C50 0.950 . S
C55 C53 1.390 . S
C55 C56 1.385 1_545 S
C55 H58 0.950 . S
C56 C55 1.385 1_565 S
C56 C59 1.388 1_556 S
H57 C53 0.950 . S
H58 C55 0.950 . S
C59 C50 1.390 . S
C59 H52 0.950 . S
C59 C56 1.388 1_554 S
C60 C61 1.386 1_556 S
C60 H64 0.950 . S
C60 C69 1.390 . S
C61 C60 1.386 1_554 S
C61 C63 1.387 1_655 S
H62 C69 0.950 . S
C63 C61 1.387 1_455 S
C63 C65 1.390 . S
C63 H67 0.950 . S
H64 C60 0.950 . S
C65 C63 1.390 . S
C65 C66 1.386 . S
C65 H68 0.950 . S
C66 C65 1.386 . S
C66 C69 1.386 1_454 S
H67 C63 0.950 . S
H68 C65 0.950 . S
C69 C60 1.390 . S
C69 H62 0.950 . S
C69 C66 1.386 1_656 S
C41 C23 1.468 1_665 S
C46 C2 1.466 1_445 S
C51 C17 1.502 1_544 S
C56 C26 1.500 1_566 S
C61 C24 1.496 . S
C66 C13 1.496 1_554 S
