# Generated by pormake.
# Topology pcu, (6)-cn, num edge types: 1
# Building blocks:
#     Node 0, Type 0, BuildingBlock: KUMBUR_clean_sbu_1, # of connection points: 6
#     Edge 1, Type (0, 0), BuildingBlock: ZUJKAS_clean_linker_0, # of connection points: 2
#     Edge 2, Type (0, 0), BuildingBlock: ZUJKAS_clean_linker_0, # of connection points: 2
#     Edge 3, Type (0, 0), BuildingBlock: ZUJKAS_clean_linker_0, # of connection points: 2
# Relax obj value: 0.000
# Max RMSD: 0.000
# Mean RMSD: 0.000
data_MOF--net-pcu--node1-KUMBUR_clean_sbu_1--edge1-ZUJKAS_clean_linker_0
_symmetry_space_group_name_H-M    P1
_symmetry_Int_Tables_number       1
_symmetry_cell_setting            triclinic
loop_
_symmetry_equiv_pos_as_xyz
'x, y, z'
_cell_length_a     19.183476
_cell_length_b     28.960241
_cell_length_c     19.347214
_cell_angle_alpha  113.30973
_cell_angle_beta   89.857726
_cell_angle_gamma 115.47987
loop_
_atom_site_label
_atom_site_type_symbol
_atom_site_fract_x
_atom_site_fract_y
_atom_site_fract_z
_atom_type_partial_charge
Tb0 Tb 0.98224 0.93374 0.95573 0.0
C1 C 0.25463 0.1696 0.14278 0.0
N2 N 0.17895 0.14991 0.15298 0.0
C3 C 0.22537 0.18696 0.28839 0.0
C4 C 0.3186 0.19633 0.20443 0.0
C5 C 0.16412 0.16165 0.22554 0.0
C6 C 0.30288 0.20336 0.27756 0.0
C7 C 0.34553 0.19037 0.05905 0.0
C8 C 0.26816 0.16686 0.07144 0.0
C9 C 0.4095 0.21433 0.11909 0.0
C10 C 0.39605 0.21723 0.19167 0.0
Tb11 Tb 0.0839 0.1057 0.04419 0.0
N12 N 0.20483 0.14243 0.01451 0.0
C13 C 0.35602 0.19025 0.9873 0.0
C14 C 0.21444 0.14533 0.94606 0.0
C15 C 0.29017 0.16849 0.931 0.0
H16 H 0.10532 0.15248 0.23573 0.0
H17 H 0.29771 0.16944 0.87604 0.0
H18 H 0.91173 0.89297 0.77487 0.0
H19 H 0.83908 0.8832 0.17698 0.0
H20 H 0.1635 0.12859 0.9027 0.0
H21 H 0.41457 0.20801 0.97545 0.0
H22 H 0.95143 0.91346 0.11523 0.0
H23 H 0.21288 0.19474 0.34536 0.0
H24 H 0.46953 0.23202 0.11058 0.0
H25 H 0.44597 0.23736 0.23812 0.0
H26 H 0.78106 0.84543 0.69068 0.0
H27 H 0.35033 0.22369 0.32651 0.0
H28 H 0.70367 0.84536 0.10851 0.0
N29 N 0.86465 0.88909 0.8732 0.0
C30 C 0.79886 0.86892 0.90124 0.0
C31 C 0.78526 0.85225 0.75003 0.0
C32 C 0.72312 0.84168 0.85556 0.0
C33 C 0.85919 0.87952 0.79796 0.0
C34 C 0.71689 0.83381 0.77917 0.0
N35 N 0.88266 0.90089 0.01697 0.0
C36 C 0.89373 0.90075 0.08662 0.0
C37 C 0.74161 0.85584 0.00784 0.0
C38 C 0.80825 0.87616 0.97626 0.0
C39 C 0.75326 0.86039 0.08206 0.0
C40 C 0.82962 0.88198 0.12102 0.0
H41 H 0.65973 0.81294 0.74203 0.0
H42 H 0.59768 0.80257 0.85367 0.0
H43 H 0.61382 0.81488 0.9871 0.0
O44 O 0.96362 0.85468 0.95056 0.0
O45 O 0.91492 0.97714 0.94666 0.0
O46 O 0.96457 0.05932 0.05891 0.0
O47 O 0.02196 0.88489 0.86896 0.0
O48 O 0.04094 0.9834 0.07784 0.0
O49 O 0.03063 0.0669 0.12158 0.0
O50 O 0.04387 0.1443 0.99307 0.0
O51 O 0.14886 0.0589 0.98786 0.0
O52 O 0.10344 0.98513 0.0209 0.0
O53 O 0.10546 0.19009 0.11017 0.0
O54 O 0.02602 0.05656 0.92271 0.0
O55 O 0.03286 0.97139 0.87682 0.0
C56 C 0.90528 0.0164 0.00341 0.0
C57 C 1.0078 0.79346 0.85456 0.0
C58 C 1.01919 0.71333 0.85812 0.0
C59 C 0.03945 0.701 0.78546 0.0
C60 C 0.02786 0.77995 0.78183 0.0
C61 C 0.04313 0.73383 0.74748 0.0
C62 C 1.00224 0.75933 0.89215 0.0
C63 C 0.03791 0.02709 0.1333 0.0
C64 C 0.99823 0.84526 0.89247 0.0
C65 C 0.6565 0.82312 0.88753 0.0
C66 C 0.66573 0.83029 0.96359 0.0
C67 C 0.16033 0.02307 0.00549 0.0
C68 C 1.01148 0.21371 0.07629 0.0
C69 C 0.96275 0.27925 0.07612 0.0
C70 C 0.90493 0.25781 0.11586 0.0
C71 C 0.95341 0.19308 0.11566 0.0
C72 C 1.01566 0.25634 0.05617 0.0
C73 C 0.90027 0.21495 0.13505 0.0
C74 C 0.02899 1.01301 0.86704 0.0
C75 C 0.06811 0.19124 0.05552 0.0
H76 H 0.05194 0.66556 0.75772 0.0
H77 H 0.03248 0.80537 0.75168 0.0
H78 H 0.05863 0.72382 0.69144 0.0
H79 H 0.98768 0.76965 0.94868 0.0
H80 H 0.86399 0.27475 0.1335 0.0
H81 H 0.94963 0.16042 0.13177 0.0
H82 H 0.05986 0.27118 0.0244 0.0
H83 H 0.85572 0.19902 0.16577 0.0
H84 H 0.11078 0.98493 0.19296 0.0
H85 H 0.10945 0.98284 0.31803 0.0
H86 H 0.97395 0.07433 0.37538 0.0
H87 H 0.97457 0.07629 0.24954 0.0
H88 H 0.10747 0.1139 0.49468 0.0
H89 H 0.90853 0.88112 0.37326 0.0
H90 H 0.99315 0.90229 0.33057 0.0
H91 H 0.91822 0.92187 0.31999 0.0
C92 C 0.08077 1.00469 0.23225 0.0
C93 C 0.04221 0.0304 0.21143 0.0
C94 C 0.07991 1.0033 0.30348 0.0
C95 C 0.04043 0.02751 0.35515 0.0
C96 C 1.00428 0.05508 0.33585 0.0
H97 H 0.97316 0.06708 0.81369 0.0
H98 H 0.97514 0.06914 0.68903 0.0
C99 C 1.00495 0.05639 0.26429 0.0
C100 C 0.03664 0.02354 0.42909 0.0
H101 H 0.96454 0.92866 0.50628 0.0
C102 C 0.07598 0.07352 0.49744 0.0
C103 C 0.99595 0.97065 0.43209 0.0
C104 C 0.95096 0.91586 0.3602 0.0
C105 C 0.0768 0.07197 0.56902 0.0
C106 C 0.03544 0.01909 0.57221 0.0
C107 C 0.99624 0.96908 0.50368 0.0
C108 C 0.03077 0.01509 0.6463 0.0
C109 C 0.12348 0.12687 0.64035 0.0
C110 C 0.05788 0.98168 0.66238 0.0
C111 C 0.05572 0.97965 0.73354 0.0
C112 C 0.02667 1.01122 0.78965 0.0
C113 C 0.99728 0.04309 0.77224 0.0
C114 C 0.9987 0.04459 0.7011 0.0
H115 H 0.16974 0.15971 0.62665 0.0
H116 H 0.08319 0.14374 0.66747 0.0
H117 H 0.15207 0.12015 0.68278 0.0
H118 H 0.08214 0.9581 0.62048 0.0
H119 H 0.07859 0.95464 0.74529 0.0
H120 H 0.27097 0.06101 0.9251 0.0
H121 H 0.39803 0.06016 0.92286 0.0
H122 H 0.34949 0.98291 0.07944 0.0
H123 H 0.22276 0.98419 0.08241 0.0
H124 H 0.52589 0.10994 0.04207 0.0
H125 H 0.40087 0.87503 0.9012 0.0
H126 H 0.34219 0.91038 0.90447 0.0
H127 H 0.36561 0.90149 0.9868 0.0
C128 C 0.28791 0.0446 0.95982 0.0
C129 C 0.23731 0.0231 0.00436 0.0
C130 C 0.3602 0.04373 0.95807 0.0
C131 C 0.38266 0.0207 0.0001 0.0
C132 C 0.33258 0.99979 0.04532 0.0
H133 H 0.84923 0.06657 0.1248 0.0
H134 H 0.7229 0.06824 0.1223 0.0
C135 C 0.26034 1.00068 0.04711 0.0
C136 C 0.45871 0.01889 0.9971 0.0
H137 H 0.53909 0.9284 0.95157 0.0
C138 C 0.52885 0.07027 0.02199 0.0
C139 C 0.46228 0.96699 0.96977 0.0
C140 C 0.38874 0.91027 0.93831 0.0
C141 C 0.60269 0.07125 0.02198 0.0
C142 C 0.60633 0.0195 0.99761 0.0
C143 C 0.53612 0.96804 0.97101 0.0
C144 C 0.68244 0.01784 -0.00075 0.0
C145 C 0.67602 0.12764 0.04734 0.0
C146 C 0.70067 0.9876 0.93122 0.0
C147 C 0.77293 0.98671 0.9325 0.0
C148 C 0.82778 0.01555 0.00197 0.0
C149 C 0.80863 0.04473 0.07022 0.0
C150 C 0.73655 0.04578 0.06889 0.0
H151 H 0.66267 0.16021 0.04288 0.0
H152 H 0.70186 0.14333 0.10837 0.0
H153 H 0.72097 0.1234 0.01258 0.0
H154 H 0.65953 0.96549 0.87691 0.0
H155 H 0.78643 0.96442 0.87891 0.0
H156 H 0.89813 0.65748 0.91672 0.0
H157 H 0.88876 0.58844 0.96484 0.0
H158 H 0.12509 0.61983 0.93469 0.0
H159 H 0.13436 0.68811 0.88591 0.0
H160 H 0.91675 0.48838 0.86732 0.0
H161 H 0.11168 0.62528 0.15741 0.0
H162 H 0.06461 0.65076 0.11095 0.0
H163 H 0.14827 0.6421 0.08014 0.0
C164 C 0.94852 0.6504 0.9219 0.0
C165 C 1.01683 0.67789 0.89736 0.0
C166 C 0.94305 0.61091 0.94907 0.0
C167 C 1.00638 0.59925 0.9536 0.0
C168 C 0.07583 0.62855 0.93228 0.0
H169 H 0.09606 0.36823 0.07399 0.0
H170 H 0.10444 0.4436 0.04168 0.0
C171 C 0.08091 0.66732 0.90416 0.0
C172 C 0.9978 0.55291 0.97378 0.0
H173 H 0.06575 0.52617 0.10928 0.0
C174 C 0.94869 0.49651 0.9205 0.0
C175 C 0.04072 0.56377 0.04248 0.0
C176 C 0.09407 0.62371 0.10153 0.0
C177 C 0.94238 0.45048 0.93334 0.0
C178 C 0.98432 0.46115 0.00278 0.0
C179 C 0.03333 0.5178 0.05621 0.0
C180 C 0.97857 0.41426 0.02089 0.0
C181 C 0.89312 0.39099 0.87088 0.0
C182 C 0.9051 0.37255 0.02044 0.0
C183 C 0.89989 0.32848 0.03715 0.0
C184 C 0.96824 0.32562 0.05643 0.0
C185 C 0.04191 0.36807 0.05797 0.0
C186 C 0.04695 0.41174 0.0403 0.0
H187 H 0.88632 0.39084 0.81376 0.0
H188 H 0.91952 0.36294 0.86748 0.0
H189 H 0.83332 0.37281 0.88335 0.0
H190 H 0.85153 0.37415 0.00756 0.0
H191 H 0.84198 0.29647 0.03443 0.0
loop_
_geom_bond_atom_site_label_1
_geom_bond_atom_site_label_2
_geom_bond_distance
_geom_bond_site_symmetry_2
_ccdc_geom_bond_type
Tb0 N29 2.617 . S
Tb0 N35 2.572 . S
Tb0 O44 2.465 . S
Tb0 O45 2.387 . S
Tb0 O47 2.428 . S
Tb0 O48 2.308 1_556 S
Tb0 O52 2.349 1_655 S
Tb0 O55 2.393 . S
Tb0 C64 2.802 . S
C1 N2 1.379 . S
C1 C4 1.416 . S
C1 C8 1.424 . S
N2 C1 1.379 . S
N2 C5 1.334 . S
N2 Tb11 2.617 . S
C3 C5 1.390 . S
C3 C6 1.339 . S
C3 H23 0.930 . S
C4 C1 1.416 . S
C4 C6 1.416 . S
C4 C10 1.448 . S
C5 N2 1.334 . S
C5 C3 1.390 . S
C5 H16 0.930 . S
C6 C3 1.339 . S
C6 C4 1.416 . S
C6 H27 0.930 . S
C7 C8 1.413 . S
C7 C9 1.427 . S
C7 C13 1.416 . S
C8 C1 1.424 . S
C8 C7 1.413 . S
C8 N12 1.361 . S
C9 C7 1.427 . S
C9 C10 1.328 . S
C9 H24 0.929 . S
C10 C4 1.448 . S
C10 C9 1.328 . S
C10 H25 0.930 . S
Tb11 N2 2.617 . S
Tb11 N12 2.572 . S
Tb11 O46 2.349 1_455 S
Tb11 O49 2.393 . S
Tb11 O50 2.465 . S
Tb11 O51 2.387 . S
Tb11 O53 2.428 . S
Tb11 O54 2.308 1_554 S
Tb11 C75 2.802 . S
N12 C8 1.361 . S
N12 Tb11 2.572 . S
N12 C14 1.340 1_554 S
C13 C7 1.416 . S
C13 C15 1.332 1_554 S
C13 H21 0.931 1_554 S
C14 N12 1.340 1_556 S
C14 C15 1.407 . S
C14 H20 0.930 . S
C15 C13 1.332 1_556 S
C15 C14 1.407 . S
C15 H17 0.929 . S
H16 C5 0.930 . S
H17 C15 0.929 . S
H18 C33 0.930 . S
H19 C40 0.929 . S
H20 C14 0.930 . S
H21 C13 0.931 1_556 S
H22 C36 0.930 . S
H23 C3 0.930 . S
H24 C9 0.929 . S
H25 C10 0.930 . S
H26 C31 0.930 . S
H27 C6 0.930 . S
H28 C39 0.931 1_554 S
N29 Tb0 2.617 . S
N29 C30 1.379 . S
N29 C33 1.334 . S
C30 N29 1.379 . S
C30 C32 1.416 . S
C30 C38 1.424 . S
C31 H26 0.930 . S
C31 C33 1.390 . S
C31 C34 1.339 . S
C32 C30 1.416 . S
C32 C34 1.416 . S
C32 C65 1.448 . S
C33 H18 0.930 . S
C33 N29 1.334 . S
C33 C31 1.390 . S
C34 C31 1.339 . S
C34 C32 1.416 . S
C34 H41 0.930 . S
N35 Tb0 2.572 . S
N35 C36 1.340 1_556 S
N35 C38 1.361 . S
C36 H22 0.930 . S
C36 N35 1.340 1_554 S
C36 C40 1.407 . S
C37 C38 1.413 . S
C37 C39 1.416 . S
C37 C66 1.427 . S
C38 C30 1.424 . S
C38 N35 1.361 . S
C38 C37 1.413 . S
C39 H28 0.931 1_556 S
C39 C37 1.416 . S
C39 C40 1.332 1_556 S
C40 H19 0.929 . S
C40 C36 1.407 . S
C40 C39 1.332 1_554 S
H41 C34 0.930 . S
H42 C65 0.930 . S
H43 C66 0.929 . S
O44 Tb0 2.465 . S
O44 C64 1.264 . S
O45 Tb0 2.387 . S
O45 C56 1.257 1_565 S
O46 Tb11 2.349 1_655 S
O46 C56 1.247 1_554 S
O47 Tb0 2.428 . S
O47 C64 1.256 . S
O48 Tb0 2.308 1_554 S
O48 C63 1.266 1_565 S
O49 Tb11 2.393 . S
O49 C63 1.248 1_455 S
O50 Tb11 2.465 . S
O50 C75 1.264 . S
O51 Tb11 2.387 . S
O51 C67 1.262 1_545 S
O52 Tb0 2.349 1_455 S
O52 C67 1.245 1_556 S
O53 Tb11 2.428 . S
O53 C75 1.256 . S
O54 Tb11 2.308 1_556 S
O54 C74 1.266 1_545 S
O55 Tb0 2.393 . S
O55 C74 1.248 1_655 S
C56 O45 1.257 1_545 S
C56 O46 1.247 1_556 S
C57 C60 1.399 . S
C57 C62 1.383 . S
C57 C64 1.496 . S
C58 C59 1.399 . S
C58 C62 1.389 . S
C59 C58 1.399 . S
C59 C61 1.380 . S
C59 H76 0.929 . S
C60 C57 1.399 . S
C60 C61 1.392 . S
C60 H77 0.929 . S
C61 C59 1.380 . S
C61 C60 1.392 . S
C61 H78 0.929 . S
C62 C57 1.383 . S
C62 C58 1.389 . S
C62 H79 0.931 1_556 S
C63 O48 1.266 1_545 S
C63 O49 1.248 1_655 S
C64 Tb0 2.802 . S
C64 O44 1.264 . S
C64 O47 1.256 . S
C64 C57 1.496 . S
C65 C32 1.448 . S
C65 H42 0.930 . S
C65 C66 1.328 . S
C66 C37 1.427 . S
C66 H43 0.929 . S
C66 C65 1.328 . S
C67 O51 1.262 1_565 S
C67 O52 1.245 1_554 S
C68 C71 1.399 . S
C68 C72 1.383 . S
C68 C75 1.496 . S
C69 C70 1.399 . S
C69 C72 1.389 . S
C70 C69 1.399 . S
C70 C73 1.380 . S
C70 H80 0.929 . S
C71 C68 1.399 . S
C71 C73 1.392 . S
C71 H81 0.929 . S
C72 C68 1.383 . S
C72 C69 1.389 . S
C72 H82 0.931 1_554 S
C73 C70 1.380 . S
C73 C71 1.392 . S
C73 H83 0.929 . S
C74 O54 1.266 1_565 S
C74 O55 1.248 1_455 S
C75 Tb11 2.802 . S
C75 O50 1.264 . S
C75 O53 1.256 . S
C75 C68 1.496 . S
H76 C59 0.929 . S
H77 C60 0.929 . S
H78 C61 0.929 . S
H79 C62 0.931 1_554 S
H80 C70 0.929 . S
H81 C71 0.929 . S
H82 C72 0.931 1_556 S
H83 C73 0.929 . S
H84 C92 0.929 . S
H85 C94 0.930 . S
H86 C96 0.930 . S
H87 C99 0.929 . S
H88 C102 0.930 . S
H89 C104 0.960 . S
H90 C104 0.960 1_455 S
H91 C104 0.960 . S
C92 H84 0.929 . S
C92 C93 1.377 . S
C92 C94 1.384 . S
C93 C92 1.377 . S
C93 C99 1.391 1_445 S
C94 H85 0.930 . S
C94 C92 1.384 . S
C94 C95 1.372 . S
C95 C94 1.372 . S
C95 C96 1.400 1_445 S
C95 C100 1.490 . S
C96 H86 0.930 . S
C96 C95 1.400 1_665 S
C96 C99 1.386 . S
H97 C113 0.930 . S
H98 C114 0.931 . S
C99 H87 0.929 . S
C99 C93 1.391 1_665 S
C99 C96 1.386 . S
C100 C95 1.490 . S
C100 C102 1.395 . S
C100 C103 1.403 1_445 S
H101 C107 0.930 . S
C102 H88 0.930 . S
C102 C100 1.395 . S
C102 C105 1.403 . S
C103 C100 1.403 1_665 S
C103 C104 1.524 . S
C103 C107 1.400 . S
C104 H89 0.960 . S
C104 H90 0.960 1_655 S
C104 H91 0.960 . S
C104 C103 1.524 . S
C105 C102 1.403 . S
C105 C106 1.392 . S
C105 C109 1.495 . S
C106 C105 1.392 . S
C106 C107 1.385 1_445 S
C106 C108 1.478 . S
C107 H101 0.930 . S
C107 C103 1.400 . S
C107 C106 1.385 1_665 S
C108 C106 1.478 . S
C108 C110 1.381 . S
C108 C114 1.383 1_445 S
C109 C105 1.495 . S
C109 H115 0.959 . S
C109 H116 0.961 1_455 S
C109 H117 0.960 . S
C110 C108 1.381 . S
C110 C111 1.394 . S
C110 H118 0.930 . S
C111 C110 1.394 . S
C111 C112 1.388 . S
C111 H119 0.929 . S
C112 C111 1.388 . S
C112 C113 1.372 1_445 S
C113 H97 0.930 . S
C113 C112 1.372 1_665 S
C113 C114 1.379 . S
C114 H98 0.931 . S
C114 C108 1.383 1_665 S
C114 C113 1.379 . S
H115 C109 0.959 . S
H116 C109 0.961 1_655 S
H117 C109 0.960 . S
H118 C110 0.930 . S
H119 C111 0.929 . S
H120 C128 0.929 . S
H121 C130 0.930 . S
H122 C132 0.930 . S
H123 C135 0.929 . S
H124 C138 0.930 . S
H125 C140 0.960 . S
H126 C140 0.960 . S
H127 C140 0.960 . S
C128 H120 0.929 . S
C128 C129 1.375 1_545 S
C128 C130 1.384 . S
C129 C128 1.375 1_565 S
C129 C135 1.395 1_556 S
C130 H121 0.930 . S
C130 C128 1.384 . S
C130 C131 1.391 . S
C131 C130 1.391 . S
C131 C132 1.391 1_546 S
C131 C136 1.480 . S
C132 H122 0.930 . S
C132 C131 1.391 1_564 S
C132 C135 1.386 . S
H133 C149 0.930 . S
H134 C150 0.931 . S
C135 H123 0.929 . S
C135 C129 1.395 1_554 S
C135 C132 1.386 . S
C136 C131 1.480 . S
C136 C138 1.395 1_556 S
C136 C139 1.403 1_545 S
H137 C143 0.930 . S
C138 H124 0.930 . S
C138 C136 1.395 1_554 S
C138 C141 1.403 . S
C139 C136 1.403 1_565 S
C139 C140 1.524 . S
C139 C143 1.400 . S
C140 H125 0.960 . S
C140 H126 0.960 . S
C140 H127 0.960 . S
C140 C139 1.524 . S
C141 C138 1.403 . S
C141 C142 1.392 . S
C141 C145 1.495 . S
C142 C141 1.392 . S
C142 C143 1.385 1_544 S
C142 C144 1.478 . S
C143 H137 0.930 . S
C143 C139 1.400 . S
C143 C142 1.385 1_566 S
C144 C142 1.478 . S
C144 C146 1.381 1_554 S
C144 C150 1.383 1_545 S
C145 C141 1.495 . S
C145 H151 0.959 . S
C145 H152 0.961 . S
C145 H153 0.960 . S
C146 C144 1.381 1_556 S
C146 C147 1.394 . S
C146 H154 0.930 . S
C147 C146 1.394 . S
C147 C148 1.383 1_556 S
C147 H155 0.929 . S
C148 C147 1.383 1_554 S
C148 C149 1.377 1_545 S
C149 H133 0.930 . S
C149 C148 1.377 1_565 S
C149 C150 1.379 . S
C150 H134 0.931 . S
C150 C144 1.383 1_565 S
C150 C149 1.379 . S
H151 C145 0.959 . S
H152 C145 0.961 . S
H153 C145 0.960 . S
H154 C146 0.930 . S
H155 C147 0.929 . S
H156 C164 0.929 . S
H157 C166 0.930 . S
H158 C168 0.930 . S
H159 C171 0.929 . S
H160 C174 0.930 . S
H161 C176 0.960 . S
H162 C176 0.960 . S
H163 C176 0.960 . S
C164 H156 0.929 . S
C164 C165 1.379 . S
C164 C166 1.384 . S
C165 C164 1.379 . S
C165 C171 1.387 1_654 S
C166 H157 0.930 . S
C166 C164 1.384 . S
C166 C167 1.372 . S
C167 C166 1.372 . S
C167 C168 1.400 1_654 S
C167 C172 1.495 1_554 S
C168 H158 0.930 . S
C168 C167 1.400 1_456 S
C168 C171 1.386 . S
H169 C185 0.930 . S
H170 C186 0.931 . S
C171 H159 0.929 . S
C171 C165 1.387 1_456 S
C171 C168 1.386 . S
C172 C167 1.495 1_556 S
C172 C174 1.399 . S
C172 C175 1.394 1_656 S
H173 C179 0.930 . S
C174 H160 0.930 . S
C174 C172 1.399 . S
C174 C177 1.403 . S
C175 C172 1.394 1_454 S
C175 C176 1.524 . S
C175 C179 1.400 . S
C176 H161 0.960 . S
C176 H162 0.960 . S
C176 H163 0.960 . S
C176 C175 1.524 . S
C177 C174 1.403 . S
C177 C178 1.392 . S
C177 C181 1.495 . S
C178 C177 1.392 . S
C178 C179 1.385 1_656 S
C178 C180 1.478 . S
C179 H173 0.930 . S
C179 C175 1.400 . S
C179 C178 1.385 1_454 S
C180 C178 1.478 . S
C180 C182 1.381 1_556 S
C180 C186 1.383 1_655 S
C181 C177 1.495 . S
C181 H187 0.959 . S
C181 H188 0.961 . S
C181 H189 0.960 . S
C182 C180 1.381 1_554 S
C182 C183 1.394 . S
C182 H190 0.930 . S
C183 C182 1.394 . S
C183 C184 1.383 1_554 S
C183 H191 0.929 . S
C184 C183 1.383 1_556 S
C184 C185 1.377 1_655 S
C185 H169 0.930 . S
C185 C184 1.377 1_455 S
C185 C186 1.379 . S
C186 H170 0.931 . S
C186 C180 1.383 1_455 S
C186 C185 1.379 . S
H187 C181 0.959 . S
H188 C181 0.961 . S
H189 C181 0.960 . S
H190 C182 0.930 . S
H191 C183 0.929 . S
C93 C63 1.481 1_455 S
C112 C74 1.493 1_545 S
C129 C67 1.495 1_556 S
C148 C56 1.496 1_554 S
C165 C58 1.367 1_554 S
C184 C69 1.390 1_656 S
