# Generated by pormake.
# Topology hcp, (12)-cn, num edge types: 1
# Building blocks:
#     Node 0, Type 0, BuildingBlock: UKIBUN_clean_sbu_0, # of connection points: 12
#     Node 1, Type 0, BuildingBlock: UKIBUN_clean_sbu_0, # of connection points: 12
#     Edge 2, Type (0, 0), None
#     Edge 3, Type (0, 0), None
#     Edge 4, Type (0, 0), None
#     Edge 5, Type (0, 0), None
#     Edge 6, Type (0, 0), None
#     Edge 7, Type (0, 0), None
#     Edge 8, Type (0, 0), None
#     Edge 9, Type (0, 0), None
#     Edge 10, Type (0, 0), None
#     Edge 11, Type (0, 0), None
#     Edge 12, Type (0, 0), None
#     Edge 13, Type (0, 0), None
# Relax obj value: 0.181
# Max RMSD: 0.266
# Mean RMSD: 0.266
data_MOF--net-hcp--node1-UKIBUN_clean_sbu_0--edge1-none
_symmetry_space_group_name_H-M    P1
_symmetry_Int_Tables_number       1
_symmetry_cell_setting            triclinic
loop_
_symmetry_equiv_pos_as_xyz
'x, y, z'
_cell_length_a     9.8733576
_cell_length_b     9.9041058
_cell_length_c     16.596743
_cell_angle_alpha  90.075944
_cell_angle_beta   90.066911
_cell_angle_gamma 120.22392
loop_
_atom_site_label
_atom_site_type_symbol
_atom_site_fract_x
_atom_site_fract_y
_atom_site_fract_z
_atom_type_partial_charge
C0 C 0.09927 0.75655 0.25368 0.0
C1 C 0.08375 0.30205 0.26265 0.0
O2 O 0.80248 0.53568 0.28941 0.0
O3 O 0.66318 0.33019 0.12021 0.0
O4 O 0.59733 0.46663 0.21585 0.0
O5 O 0.86511 0.3967 0.21647 0.0
Hf6 Hf 0.81112 0.54962 0.16545 0.0
O7 O 0.66356 0.33177 0.38195 0.0
Hf8 Hf 0.87872 0.39887 0.34029 0.0
O9 O 0.4564 0.26432 0.28894 0.0
Hf10 Hf 0.59473 0.47738 0.33975 0.0
O11 O 0.72996 0.19153 0.28966 0.0
Hf12 Hf 0.44325 0.25892 0.16497 0.0
Hf13 Hf 0.73563 0.18369 0.16566 0.0
O14 O 0.5276 0.13058 0.21607 0.0
Hf15 Hf 0.51609 0.11741 0.33993 0.0
C16 C 0.39756 0.98447 0.05466 0.0
C17 C 0.90024 0.57002 0.47664 0.0
C18 C 0.23097 0.33585 0.2531 0.0
C19 C 0.69987 0.77968 0.2639 0.0
O20 O 0.75675 0.74038 0.20221 0.0
O21 O 0.97802 0.52277 0.07522 0.0
C22 C 0.00855 0.41102 0.05444 0.0
O23 O 0.59133 0.93543 0.31287 0.0
O24 O 0.25407 0.01294 0.20111 0.0
O25 O 0.4707 0.45453 0.07605 0.0
O26 O 0.46492 0.22205 0.46068 0.0
O27 O 0.77598 0.24074 0.46046 0.0
O28 O 0.05823 0.65677 0.31383 0.0
O29 O 0.98354 0.24091 0.20214 0.0
O30 O 0.53983 0.01423 0.07623 0.0
C31 C 0.4238 0.32998 0.4761 0.0
O32 O 0.33597 0.40182 0.31158 0.0
O33 O 0.75101 0.52994 0.46076 0.0
C34 C 0.65445 0.89613 0.25378 0.0
O35 O 0.57717 0.00334 0.42283 0.0
O36 O 0.72693 0.64605 0.07351 0.0
O37 O 0.04112 0.72648 0.18435 0.0
O38 O 0.27701 0.9536 0.33171 0.0
O39 O 0.68837 0.95675 0.18517 0.0
O40 O 0.41648 0.41197 0.42188 0.0
C41 C 0.21351 0.91912 0.26358 0.0
O42 O 0.66681 0.71487 0.33158 0.0
O43 O 0.99035 0.577 0.42279 0.0
O44 O 0.91599 0.26845 0.07343 0.0
O45 O 0.25774 0.29867 0.18505 0.0
O46 O 0.3488 0.07838 0.07247 0.0
O47 O 0.05273 0.33752 0.33016 0.0
C48 C 0.66448 0.09238 0.47625 0.0
C49 C 0.58382 0.59674 0.05501 0.0
C50 C 0.57013 0.66589 0.97659 0.0
C51 C 0.32783 0.90066 0.97628 0.0
O52 O 0.53677 0.73112 0.78963 0.0
O53 O 0.18939 0.45697 0.78896 0.0
O54 O 0.39535 0.52938 0.71608 0.0
O55 O 0.33034 0.66429 0.88198 0.0
Hf56 Hf 0.39709 0.51747 0.83993 0.0
O57 O 0.46717 0.86604 0.71655 0.0
Hf58 Hf 0.47846 0.87929 0.84041 0.0
O59 O 0.33023 0.66376 0.62019 0.0
Hf60 Hf 0.55038 0.7371 0.66558 0.0
O61 O 0.26448 0.80235 0.78942 0.0
Hf62 Hf 0.18158 0.44408 0.66499 0.0
Hf63 Hf 0.11494 0.59483 0.83969 0.0
O64 O 0.12813 0.5976 0.7158 0.0
Hf65 Hf 0.25918 0.81115 0.66552 0.0
C66 C 0.89251 0.23171 0.75321 0.0
C67 C 0.78071 0.08405 0.76299 0.0
C68 C 0.41059 0.40003 0.55443 0.0
C69 C 0.75647 0.6554 0.75375 0.0
O70 O 0.65442 0.59275 0.81295 0.0
O71 O 0.24045 0.46463 0.96046 0.0
C72 C 0.09106 0.42415 0.97601 0.0
O73 O 0.0141 0.75689 0.7022 0.0
O74 O 0.01241 0.47066 0.57596 0.0
O75 O 0.23914 0.25548 0.70115 0.0
O76 O 0.45401 0.97923 0.576 0.0
O77 O 0.40118 0.05942 0.81337 0.0
O78 O 0.53232 0.77622 0.96093 0.0
O79 O 0.21892 0.75132 0.96061 0.0
O80 O 0.93221 0.33591 0.81192 0.0
C81 C 0.59655 0.00973 0.5548 0.0
O82 O 0.52343 0.54251 0.57566 0.0
O83 O 0.74118 0.98475 0.70223 0.0
C84 C 0.91821 0.70047 0.76392 0.0
O85 O 0.30772 0.03884 0.68479 0.0
O86 O 0.32553 0.27997 0.83126 0.0
O87 O 0.57424 0.58113 0.92277 0.0
O88 O 0.07753 0.72595 0.57353 0.0
O89 O 0.94974 0.66682 0.83149 0.0
O90 O 0.6465 0.91718 0.57326 0.0
C91 C 0.98316 0.5832 0.5551 0.0
O92 O 0.72959 0.68912 0.68513 0.0
O93 O 0.71557 0.05163 0.83086 0.0
O94 O 0.00114 0.4179 0.92207 0.0
O95 O 0.26737 0.35018 0.5726 0.0
O96 O 0.95474 0.25977 0.68472 0.0
O97 O 0.4112 0.99035 0.92237 0.0
C98 C 0.33984 0.09914 0.75364 0.0
C99 C 0.2944 0.21569 0.7633 0.0
loop_
_geom_bond_atom_site_label_1
_geom_bond_atom_site_label_2
_geom_bond_distance
_geom_bond_site_symmetry_2
_ccdc_geom_bond_type
C0 O28 1.281 . S
C0 O37 1.281 . S
C1 O29 1.281 1_455 S
C1 O47 1.281 . S
O2 Hf6 2.202 . S
O2 Hf8 2.202 . S
O2 Hf10 2.202 . S
O3 Hf6 2.202 . S
O3 Hf12 2.202 . S
O3 Hf13 2.202 . S
O4 Hf6 2.072 . S
O4 Hf10 2.072 . S
O4 Hf12 2.072 . S
O5 Hf6 2.072 . S
O5 Hf8 2.072 . S
O5 Hf13 2.072 . S
Hf6 O2 2.202 . S
Hf6 O3 2.202 . S
Hf6 O4 2.072 . S
Hf6 O5 2.072 . S
Hf6 O20 2.209 . S
Hf6 O21 2.209 . S
Hf6 O36 2.209 . S
Hf6 O37 2.209 1_655 S
O7 Hf8 2.072 . S
O7 Hf10 2.072 . S
O7 Hf15 2.072 . S
Hf8 O2 2.202 . S
Hf8 O5 2.072 . S
Hf8 O7 2.072 . S
Hf8 O11 2.202 . S
Hf8 O27 2.209 . S
Hf8 O28 2.209 1_655 S
Hf8 O43 2.209 . S
Hf8 O47 2.209 1_655 S
O9 Hf10 2.202 . S
O9 Hf12 2.202 . S
O9 Hf15 2.202 . S
Hf10 O2 2.202 . S
Hf10 O4 2.072 . S
Hf10 O7 2.072 . S
Hf10 O9 2.202 . S
Hf10 O32 2.209 . S
Hf10 O33 2.209 . S
Hf10 O40 2.209 . S
Hf10 O42 2.209 . S
O11 Hf8 2.202 . S
O11 Hf13 2.202 . S
O11 Hf15 2.202 . S
Hf12 O3 2.202 . S
Hf12 O4 2.072 . S
Hf12 O9 2.202 . S
Hf12 O14 2.072 . S
Hf12 O24 2.209 . S
Hf12 O25 2.209 . S
Hf12 O45 2.209 . S
Hf12 O46 2.209 . S
Hf13 O3 2.202 . S
Hf13 O5 2.072 . S
Hf13 O11 2.202 . S
Hf13 O14 2.072 . S
Hf13 O29 2.209 . S
Hf13 O30 2.209 . S
Hf13 O39 2.209 1_545 S
Hf13 O44 2.209 . S
O14 Hf12 2.072 . S
O14 Hf13 2.072 . S
O14 Hf15 2.072 . S
Hf15 O7 2.072 . S
Hf15 O9 2.202 . S
Hf15 O11 2.202 . S
Hf15 O14 2.072 . S
Hf15 O23 2.209 1_545 S
Hf15 O26 2.209 . S
Hf15 O35 2.209 . S
Hf15 O38 2.209 1_545 S
C16 O30 1.281 . S
C16 O46 1.281 . S
C17 O33 1.281 . S
C17 O43 1.281 . S
C18 O32 1.281 . S
C18 O45 1.281 . S
C19 O20 1.281 . S
C19 O42 1.281 . S
O20 Hf6 2.209 . S
O20 C19 1.281 . S
O21 Hf6 2.209 . S
O21 C22 1.281 . S
C22 O21 1.281 . S
C22 O44 1.281 . S
O23 Hf15 2.209 1_565 S
O23 C34 1.281 . S
O24 Hf12 2.209 . S
O24 C41 1.281 1_545 S
O25 Hf12 2.209 . S
O25 C49 1.281 . S
O26 Hf15 2.209 . S
O26 C31 1.281 . S
O27 Hf8 2.209 . S
O27 C48 1.281 . S
O28 C0 1.281 . S
O28 Hf8 2.209 1_455 S
O29 C1 1.281 1_655 S
O29 Hf13 2.209 . S
O30 Hf13 2.209 . S
O30 C16 1.281 . S
C31 O26 1.281 . S
C31 O40 1.281 . S
O32 Hf10 2.209 . S
O32 C18 1.281 . S
O33 Hf10 2.209 . S
O33 C17 1.281 . S
C34 O23 1.281 . S
C34 O39 1.281 . S
O35 Hf15 2.209 . S
O35 C48 1.281 . S
O36 Hf6 2.209 . S
O36 C49 1.281 . S
O37 C0 1.281 . S
O37 Hf6 2.209 1_455 S
O38 Hf15 2.209 1_565 S
O38 C41 1.281 . S
O39 Hf13 2.209 1_565 S
O39 C34 1.281 . S
O40 Hf10 2.209 . S
O40 C31 1.281 . S
C41 O24 1.281 1_565 S
C41 O38 1.281 . S
O42 Hf10 2.209 . S
O42 C19 1.281 . S
O43 Hf8 2.209 . S
O43 C17 1.281 . S
O44 Hf13 2.209 . S
O44 C22 1.281 . S
O45 Hf12 2.209 . S
O45 C18 1.281 . S
O46 Hf12 2.209 . S
O46 C16 1.281 . S
O47 C1 1.281 . S
O47 Hf8 2.209 1_455 S
C48 O27 1.281 . S
C48 O35 1.281 . S
C49 O25 1.281 . S
C49 O36 1.281 . S
C50 O78 1.281 . S
C50 O87 1.281 . S
C51 O79 1.281 . S
C51 O97 1.281 . S
O52 Hf56 2.202 . S
O52 Hf58 2.202 . S
O52 Hf60 2.202 . S
O53 Hf56 2.202 . S
O53 Hf62 2.202 . S
O53 Hf63 2.202 . S
O54 Hf56 2.072 . S
O54 Hf60 2.072 . S
O54 Hf62 2.072 . S
O55 Hf56 2.072 . S
O55 Hf58 2.072 . S
O55 Hf63 2.072 . S
Hf56 O52 2.202 . S
Hf56 O53 2.202 . S
Hf56 O54 2.072 . S
Hf56 O55 2.072 . S
Hf56 O70 2.209 . S
Hf56 O71 2.209 . S
Hf56 O86 2.209 . S
Hf56 O87 2.209 . S
O57 Hf58 2.072 . S
O57 Hf60 2.072 . S
O57 Hf65 2.072 . S
Hf58 O52 2.202 . S
Hf58 O55 2.072 . S
Hf58 O57 2.072 . S
Hf58 O61 2.202 . S
Hf58 O77 2.209 1_565 S
Hf58 O78 2.209 . S
Hf58 O93 2.209 1_565 S
Hf58 O97 2.209 . S
O59 Hf60 2.202 . S
O59 Hf62 2.202 . S
O59 Hf65 2.202 . S
Hf60 O52 2.202 . S
Hf60 O54 2.072 . S
Hf60 O57 2.072 . S
Hf60 O59 2.202 . S
Hf60 O82 2.209 . S
Hf60 O83 2.209 . S
Hf60 O90 2.209 . S
Hf60 O92 2.209 . S
O61 Hf58 2.202 . S
O61 Hf63 2.202 . S
O61 Hf65 2.202 . S
Hf62 O53 2.202 . S
Hf62 O54 2.072 . S
Hf62 O59 2.202 . S
Hf62 O64 2.072 . S
Hf62 O74 2.209 . S
Hf62 O75 2.209 . S
Hf62 O95 2.209 . S
Hf62 O96 2.209 1_455 S
Hf63 O53 2.202 . S
Hf63 O55 2.072 . S
Hf63 O61 2.202 . S
Hf63 O64 2.072 . S
Hf63 O79 2.209 . S
Hf63 O80 2.209 1_455 S
Hf63 O89 2.209 1_455 S
Hf63 O94 2.209 . S
O64 Hf62 2.072 . S
O64 Hf63 2.072 . S
O64 Hf65 2.072 . S
Hf65 O57 2.072 . S
Hf65 O59 2.202 . S
Hf65 O61 2.202 . S
Hf65 O64 2.072 . S
Hf65 O73 2.209 . S
Hf65 O76 2.209 . S
Hf65 O85 2.209 1_565 S
Hf65 O88 2.209 . S
C66 O80 1.281 . S
C66 O96 1.281 . S
C67 O83 1.281 1_545 S
C67 O93 1.281 . S
C68 O82 1.281 . S
C68 O95 1.281 . S
C69 O70 1.281 . S
C69 O92 1.281 . S
O70 Hf56 2.209 . S
O70 C69 1.281 . S
O71 Hf56 2.209 . S
O71 C72 1.281 . S
C72 O71 1.281 . S
C72 O94 1.281 . S
O73 Hf65 2.209 . S
O73 C84 1.281 1_455 S
O74 Hf62 2.209 . S
O74 C91 1.281 . S
O75 Hf62 2.209 . S
O75 C99 1.281 . S
O76 Hf65 2.209 . S
O76 C81 1.281 . S
O77 Hf58 2.209 1_545 S
O77 C98 1.281 . S
O78 C50 1.281 . S
O78 Hf58 2.209 . S
O79 C51 1.281 . S
O79 Hf63 2.209 . S
O80 Hf63 2.209 1_655 S
O80 C66 1.281 . S
C81 O76 1.281 . S
C81 O90 1.281 . S
O82 Hf60 2.209 . S
O82 C68 1.281 . S
O83 Hf60 2.209 . S
O83 C67 1.281 1_565 S
C84 O73 1.281 1_655 S
C84 O89 1.281 . S
O85 Hf65 2.209 1_545 S
O85 C98 1.281 . S
O86 Hf56 2.209 . S
O86 C99 1.281 . S
O87 C50 1.281 . S
O87 Hf56 2.209 . S
O88 Hf65 2.209 . S
O88 C91 1.281 . S
O89 Hf63 2.209 1_655 S
O89 C84 1.281 . S
O90 Hf60 2.209 . S
O90 C81 1.281 . S
C91 O74 1.281 . S
C91 O88 1.281 . S
O92 Hf60 2.209 . S
O92 C69 1.281 . S
O93 Hf58 2.209 1_545 S
O93 C67 1.281 . S
O94 Hf63 2.209 . S
O94 C72 1.281 . S
O95 Hf62 2.209 . S
O95 C68 1.281 . S
O96 Hf62 2.209 1_655 S
O96 C66 1.281 . S
O97 C51 1.281 . S
O97 Hf58 2.209 . S
C98 O77 1.281 . S
C98 O85 1.281 . S
C99 O75 1.281 . S
C99 O86 1.281 . S
C51 C16 2.611 1_566 S
C68 C31 2.611 . S
C22 C72 2.611 1_654 S
C81 C48 2.611 1_565 S
C49 C50 2.611 1_554 S
C17 C91 2.611 1_655 S
C34 C19 1.427 . S
C84 C69 1.427 . S
C41 C0 1.427 . S
C99 C98 1.427 . S
C18 C1 1.427 . S
C66 C67 1.427 . S
