# Generated by pormake.
# Topology lon, (4)-cn, num edge types: 1
# Building blocks:
#     Node 0, Type 0, BuildingBlock: KUFVIS_clean_sbu_0, # of connection points: 4
#     Node 1, Type 0, BuildingBlock: KUFVIS_clean_sbu_0, # of connection points: 4
#     Node 2, Type 0, BuildingBlock: KUFVIS_clean_sbu_0, # of connection points: 4
#     Node 3, Type 0, BuildingBlock: KUFVIS_clean_sbu_0, # of connection points: 4
#     Edge 4, Type (0, 0), None
#     Edge 5, Type (0, 0), None
#     Edge 6, Type (0, 0), None
#     Edge 7, Type (0, 0), None
#     Edge 8, Type (0, 0), None
#     Edge 9, Type (0, 0), None
#     Edge 10, Type (0, 0), None
#     Edge 11, Type (0, 0), None
# Relax obj value: 0.043
# Max RMSD: 0.106
# Mean RMSD: 0.085
data_MOF--net-lon--node1-KUFVIS_clean_sbu_0--edge1-none
_symmetry_space_group_name_H-M    P1
_symmetry_Int_Tables_number       1
_symmetry_cell_setting            triclinic
loop_
_symmetry_equiv_pos_as_xyz
'x, y, z'
_cell_length_a     11.171536
_cell_length_b     10.661531
_cell_length_c     18.566537
_cell_angle_alpha  103.84012
_cell_angle_beta   89.999573
_cell_angle_gamma 121.59344
loop_
_atom_site_label
_atom_site_type_symbol
_atom_site_fract_x
_atom_site_fract_y
_atom_site_fract_z
_atom_type_partial_charge
Mn0 Mn 0.33928 0.69686 0.11167 0.0
Mn1 Mn 0.33467 0.59949 0.92749 0.0
C2 C 0.13363 0.6136 0.02563 0.0
C3 C 0.27905 0.67939 0.23685 0.0
C4 C 0.51731 0.9372 1.02141 0.0
O5 O 0.46572 0.59755 0.09837 0.0
O6 O 0.47799 0.57796 0.97528 0.0
C7 C 0.1971 0.27467 0.92621 0.0
N8 N 0.20832 0.38101 0.89308 0.0
C9 C 0.98016 0.19399 0.81845 0.0
C10 C 0.97835 0.07917 0.84329 0.0
C11 C 0.08614 0.1208 0.89922 0.0
C12 C 0.09864 0.34501 0.84425 0.0
H13 H 0.263 0.30785 0.9775 0.0
C14 C 0.5027 0.55241 0.03552 0.0
O15 O 0.38668 0.79821 0.22382 0.0
O16 O 0.21209 0.56161 0.17795 0.0
N17 N 0.19899 0.60942 0.87378 0.0
C18 C 0.19258 0.73518 0.87919 0.0
C19 C 0.0724 0.71659 0.84437 0.0
C20 C 0.9633 0.57029 0.80294 0.0
C21 C 0.97323 0.44186 0.79568 0.0
C22 C 0.09393 0.46684 0.83405 0.0
H23 H 0.275 0.84767 0.91294 0.0
O24 O 0.17797 0.72177 0.08832 0.0
O25 O 0.22554 0.57572 1.01151 0.0
O26 O 0.48654 0.89933 0.08247 0.0
O27 O 0.46546 0.83268 0.95839 0.0
C28 C 0.86269 0.28906 0.76028 0.0
C29 C 0.86259 0.16631 0.77502 0.0
H30 H 0.88851 0.96145 0.825 0.0
H31 H 0.07858 0.03702 0.92539 0.0
H32 H 0.06281 0.81397 0.84959 0.0
H33 H 0.87145 0.56193 0.78123 0.0
H34 H 0.77237 0.26009 0.7244 0.0
H35 H 0.76984 0.05094 0.75367 0.0
Mn36 Mn 0.71594 0.36852 0.57609 0.0
Mn37 Mn 0.3668 0.18745 0.59236 0.0
C38 C 0.57862 0.10492 0.54254 0.0
C39 C 0.92529 0.45971 0.51639 0.0
C40 C 0.5924 0.36659 0.72823 0.0
O41 O 0.65859 0.52563 0.56676 0.0
O42 O 0.4217 0.37155 0.56339 0.0
C43 C 0.14669 0.25923 0.60636 0.0
N44 N 0.19612 0.17154 0.61771 0.0
C45 C 0.96713 0.98071 0.63715 0.0
C46 C 0.91148 0.06326 0.6206 0.0
C47 C 1.00311 0.20586 0.60748 0.0
C48 C 0.10979 0.03577 0.63124 0.0
H49 H 0.21446 0.36671 0.5936 0.0
C50 C 0.53004 0.49684 0.55981 0.0
O51 O 0.9263 0.50496 0.58704 0.0
O52 O 0.79883 0.37353 0.47707 0.0
N53 N 0.30459 1.01037 0.62661 0.0
C54 C 0.38373 0.96586 0.65581 0.0
C55 C 0.31596 0.83609 0.68212 0.0
C56 C 0.16998 0.76254 0.68458 0.0
C57 C 0.09545 0.82677 0.6669 0.0
C58 C 0.16893 0.95385 0.63939 0.0
H59 H 0.49789 0.02987 0.66034 0.0
O60 O 0.71307 0.17547 0.56526 0.0
O61 O 0.52841 0.1908 0.54996 0.0
O62 O 0.69019 0.39214 0.68752 0.0
O63 O 0.46374 0.3046 0.69875 0.0
C64 C 0.95273 0.77285 0.67674 0.0
C65 C 0.88738 0.84691 0.65975 0.0
H66 H 0.79955 1.02035 0.62022 0.0
H67 H 0.96432 0.27476 0.59759 0.0
H68 H 0.37615 0.79422 0.70144 0.0
H69 H 0.11829 0.65864 0.70145 0.0
H70 H 0.89055 0.67331 0.69599 0.0
H71 H 0.77742 0.80322 0.66683 0.0
Mn72 Mn 0.37074 0.67808 0.46881 0.0
Mn73 Mn 0.20265 0.85916 0.45257 0.0
C74 C 0.497 0.94166 0.50242 0.0
C75 C 0.48876 0.58679 0.52847 0.0
C76 C 0.24909 0.68002 0.31669 0.0
O77 O 0.15627 0.52095 0.4781 0.0
O78 O 0.07345 0.67505 0.48154 0.0
C79 C 0.91078 0.78742 0.43859 0.0
N80 N 0.04789 0.8751 0.42724 0.0
C81 C 1.00973 0.06591 0.40777 0.0
C82 C 0.87154 0.98338 0.42432 0.0
C83 C 0.82057 0.84079 0.43745 0.0
C84 C 0.09733 1.01085 0.41369 0.0
H85 H 0.87107 0.67995 0.45136 0.0
C86 C 0.05649 0.54971 0.48504 0.0
O87 O 0.44464 0.54163 0.45781 0.0
O88 O 0.44855 0.67302 0.56782 0.0
N89 N 0.31752 0.03623 0.41832 0.0
C90 C 0.44117 0.08072 0.38912 0.0
C91 C 0.50315 0.21046 0.36279 0.0
C92 C 0.43072 0.28401 0.3603 0.0
C93 C 0.29196 0.2198 0.37799 0.0
C94 C 0.23839 0.09276 0.40553 0.0
H95 H 0.49132 1.01672 0.38461 0.0
O96 O 0.56092 0.87114 0.47967 0.0
O97 O 0.36091 0.85579 0.49497 0.0
O98 O 0.32139 0.65452 0.35739 0.0
O99 O 0.18242 0.74201 0.34617 0.0
C100 C 0.20317 0.27371 0.36814 0.0
C101 C 0.06378 0.19969 0.38514 0.0
H102 H 0.80252 0.02629 0.4247 0.0
H103 H 0.7129 0.77191 0.44735 0.0
H104 H 0.60521 0.25231 0.34346 0.0
H105 H 0.48292 0.38787 0.34342 0.0
H106 H 0.24052 0.37322 0.34886 0.0
H107 H 0.99751 0.24337 0.37805 0.0
Mn108 Mn 0.66573 0.34983 0.93326 0.0
Mn109 Mn 0.75854 0.4472 0.11743 0.0
C110 C 0.54341 0.43305 1.01923 0.0
C111 C 0.62303 0.36728 0.80808 0.0
C112 C 0.60345 0.10949 0.02352 0.0
O113 O 0.89145 0.44909 0.94655 0.0
O114 O 0.92338 0.46873 0.06964 0.0
C115 C 0.9458 0.77202 0.11873 0.0
N116 N 0.85066 0.66568 0.15186 0.0
C117 C 0.80951 0.8527 0.22647 0.0
C118 C 0.92253 0.96752 0.20164 0.0
C119 C 0.98869 0.92589 0.14572 0.0
C120 C 0.77697 0.70168 0.20068 0.0
H121 H 0.97854 0.73884 0.06744 0.0
C122 C 0.97358 0.4942 1.00938 0.0
O123 O 0.61181 0.24845 0.82112 0.0
O124 O 0.6738 0.48506 0.86698 0.0
N125 N 0.61292 0.43728 0.17114 0.0
C126 C 0.48076 0.31152 0.16571 0.0
C127 C 0.37917 0.33011 0.20053 0.0
C128 C 0.41636 0.4764 0.24197 0.0
C129 C 0.55472 0.60483 0.24924 0.0
C130 C 0.65044 0.57986 0.21087 0.0
H131 H 0.45068 0.19903 0.13195 0.0
O132 O 0.47946 0.32482 0.95656 0.0
O133 O 0.67321 0.47102 0.03343 0.0
O134 O 0.61052 0.14735 0.96246 0.0
O135 O 0.65614 0.21401 0.08654 0.0
C136 C 0.59698 0.75764 0.28464 0.0
C137 C 0.71961 0.88038 0.2699 0.0
H138 H 0.9504 0.08524 0.21992 0.0
H139 H 0.06493 1.00967 0.11955 0.0
H140 H 0.27219 0.23273 0.19531 0.0
H141 H 0.33286 0.48475 0.26368 0.0
H142 H 0.53561 0.78661 0.32052 0.0
H143 H 0.74222 0.99575 0.29125 0.0
loop_
_geom_bond_atom_site_label_1
_geom_bond_atom_site_label_2
_geom_bond_distance
_geom_bond_site_symmetry_2
_ccdc_geom_bond_type
Mn0 O5 2.095 . S
Mn0 O15 2.162 . S
Mn0 O16 2.297 . S
Mn0 O24 2.385 . S
Mn0 O25 2.209 . S
Mn0 O26 2.094 . S
Mn1 O6 2.121 . S
Mn1 N8 2.257 . S
Mn1 N17 2.282 . S
Mn1 O25 2.215 1_556 S
Mn1 O27 2.117 . S
C2 O24 1.234 . S
C2 O25 1.283 . S
C3 O15 1.281 . S
C3 O16 1.236 . S
C4 O26 1.240 1_556 S
C4 O27 1.264 . S
O5 Mn0 2.095 . S
O5 C14 1.250 1_554 S
O6 Mn1 2.121 . S
O6 C14 1.258 . S
C7 N8 1.326 . S
C7 C11 1.460 1_455 S
C7 H13 0.929 . S
N8 Mn1 2.257 . S
N8 C7 1.326 . S
N8 C12 1.362 1_455 S
C9 C10 1.258 . S
C9 C12 1.431 . S
C9 C29 1.449 . S
C10 C9 1.258 . S
C10 C11 1.477 . S
C10 H30 0.931 1_545 S
C11 C7 1.460 1_655 S
C11 C10 1.477 . S
C11 H31 0.930 1_545 S
C12 N8 1.362 1_655 S
C12 C9 1.431 . S
C12 C22 1.476 . S
H13 C7 0.929 . S
C14 O5 1.250 1_556 S
C14 O6 1.258 . S
O15 Mn0 2.162 . S
O15 C3 1.281 . S
O16 Mn0 2.297 . S
O16 C3 1.236 . S
N17 Mn1 2.282 . S
N17 C18 1.328 . S
N17 C22 1.318 1_455 S
C18 N17 1.328 . S
C18 C19 1.457 1_455 S
C18 H23 0.929 . S
C19 C18 1.457 1_655 S
C19 C20 1.291 . S
C19 H32 0.931 . S
C20 C19 1.291 . S
C20 C21 1.373 . S
C20 H33 0.929 . S
C21 C20 1.373 . S
C21 C22 1.396 . S
C21 C28 1.403 . S
C22 C12 1.476 . S
C22 N17 1.318 1_655 S
C22 C21 1.396 . S
H23 C18 0.929 . S
O24 Mn0 2.385 . S
O24 C2 1.234 . S
O25 Mn0 2.209 . S
O25 Mn1 2.215 1_554 S
O25 C2 1.283 . S
O26 Mn0 2.094 . S
O26 C4 1.240 1_554 S
O27 Mn1 2.117 . S
O27 C4 1.264 . S
C28 C21 1.403 . S
C28 C29 1.399 . S
C28 H34 0.929 . S
C29 C9 1.449 . S
C29 C28 1.399 . S
C29 H35 0.930 . S
H30 C10 0.931 1_565 S
H31 C11 0.930 1_565 S
H32 C19 0.931 . S
H33 C20 0.929 . S
H34 C28 0.929 . S
H35 C29 0.930 . S
Mn36 O41 2.095 . S
Mn36 O51 2.162 . S
Mn36 O52 2.297 . S
Mn36 O60 2.385 . S
Mn36 O61 2.209 . S
Mn36 O62 2.094 . S
Mn37 O42 2.121 . S
Mn37 N44 2.257 . S
Mn37 N53 2.282 1_545 S
Mn37 O61 2.215 . S
Mn37 O63 2.117 . S
C38 O60 1.234 . S
C38 O61 1.283 . S
C39 O51 1.281 . S
C39 O52 1.236 . S
C40 O62 1.240 . S
C40 O63 1.264 . S
O41 Mn36 2.095 . S
O41 C50 1.250 . S
O42 Mn37 2.121 . S
O42 C50 1.258 . S
C43 N44 1.326 . S
C43 C47 1.460 1_545 S
C43 H49 0.929 . S
N44 Mn37 2.257 . S
N44 C43 1.326 . S
N44 C48 1.362 1_545 S
C45 C46 1.258 1_455 S
C45 C48 1.431 . S
C45 C65 1.449 1_455 S
C46 C45 1.258 1_655 S
C46 C47 1.477 1_655 S
C46 H66 0.931 . S
C47 C43 1.460 1_565 S
C47 C46 1.477 1_455 S
C47 H67 0.930 . S
C48 N44 1.362 1_565 S
C48 C45 1.431 . S
C48 C58 1.476 . S
H49 C43 0.929 . S
C50 O41 1.250 . S
C50 O42 1.258 . S
O51 Mn36 2.162 . S
O51 C39 1.281 . S
O52 Mn36 2.297 . S
O52 C39 1.236 . S
N53 Mn37 2.282 1_565 S
N53 C54 1.328 . S
N53 C58 1.318 . S
C54 N53 1.328 . S
C54 C55 1.457 . S
C54 H59 0.929 . S
C55 C54 1.457 . S
C55 C56 1.291 . S
C55 H68 0.931 . S
C56 C55 1.291 . S
C56 C57 1.373 . S
C56 H69 0.929 . S
C57 C56 1.373 . S
C57 C58 1.396 . S
C57 C64 1.403 . S
C58 C48 1.476 . S
C58 N53 1.318 . S
C58 C57 1.396 . S
H59 C54 0.929 . S
O60 Mn36 2.385 . S
O60 C38 1.234 . S
O61 Mn36 2.209 . S
O61 Mn37 2.215 . S
O61 C38 1.283 . S
O62 Mn36 2.094 . S
O62 C40 1.240 . S
O63 Mn37 2.117 . S
O63 C40 1.264 . S
C64 C57 1.403 . S
C64 C65 1.399 1_455 S
C64 H70 0.929 1_455 S
C65 C45 1.449 1_655 S
C65 C64 1.399 1_655 S
C65 H71 0.930 . S
H66 C46 0.931 . S
H67 C47 0.930 . S
H68 C55 0.931 . S
H69 C56 0.929 . S
H70 C64 0.929 1_655 S
H71 C65 0.930 . S
Mn72 O77 2.095 . S
Mn72 O87 2.162 . S
Mn72 O88 2.297 . S
Mn72 O96 2.385 . S
Mn72 O97 2.209 . S
Mn72 O98 2.094 . S
Mn73 O78 2.121 . S
Mn73 N80 2.257 . S
Mn73 N89 2.282 1_565 S
Mn73 O97 2.215 . S
Mn73 O99 2.117 . S
C74 O96 1.234 . S
C74 O97 1.283 . S
C75 O87 1.281 . S
C75 O88 1.236 . S
C76 O98 1.240 . S
C76 O99 1.264 . S
O77 Mn72 2.095 . S
O77 C86 1.250 . S
O78 Mn73 2.121 . S
O78 C86 1.258 . S
C79 N80 1.326 . S
C79 C83 1.460 1_565 S
C79 H85 0.929 . S
N80 Mn73 2.257 . S
N80 C79 1.326 . S
N80 C84 1.362 1_565 S
C81 C82 1.258 . S
C81 C84 1.431 . S
C81 C101 1.449 . S
C82 C81 1.258 . S
C82 C83 1.477 . S
C82 H102 0.931 . S
C83 C79 1.460 1_545 S
C83 C82 1.477 . S
C83 H103 0.930 . S
C84 N80 1.362 1_545 S
C84 C81 1.431 . S
C84 C94 1.476 . S
H85 C79 0.929 . S
C86 O77 1.250 . S
C86 O78 1.258 . S
O87 Mn72 2.162 . S
O87 C75 1.281 . S
O88 Mn72 2.297 . S
O88 C75 1.236 . S
N89 Mn73 2.282 1_545 S
N89 C90 1.328 . S
N89 C94 1.318 . S
C90 N89 1.328 . S
C90 C91 1.457 . S
C90 H95 0.929 . S
C91 C90 1.457 . S
C91 C92 1.291 . S
C91 H104 0.931 . S
C92 C91 1.291 . S
C92 C93 1.373 . S
C92 H105 0.929 . S
C93 C92 1.373 . S
C93 C94 1.396 . S
C93 C100 1.403 . S
C94 C84 1.476 . S
C94 N89 1.318 . S
C94 C93 1.396 . S
H95 C90 0.929 . S
O96 Mn72 2.385 . S
O96 C74 1.234 . S
O97 Mn72 2.209 . S
O97 Mn73 2.215 . S
O97 C74 1.283 . S
O98 Mn72 2.094 . S
O98 C76 1.240 . S
O99 Mn73 2.117 . S
O99 C76 1.264 . S
C100 C93 1.403 . S
C100 C101 1.399 . S
C100 H106 0.929 . S
C101 C81 1.449 . S
C101 C100 1.399 . S
C101 H107 0.930 . S
H102 C82 0.931 . S
H103 C83 0.930 . S
H104 C91 0.931 . S
H105 C92 0.929 . S
H106 C100 0.929 . S
H107 C101 0.930 . S
Mn108 O113 2.095 . S
Mn108 O123 2.162 . S
Mn108 O124 2.297 . S
Mn108 O132 2.385 . S
Mn108 O133 2.209 . S
Mn108 O134 2.094 . S
Mn109 O114 2.121 . S
Mn109 N116 2.257 . S
Mn109 N125 2.282 . S
Mn109 O133 2.215 1_554 S
Mn109 O135 2.117 . S
C110 O132 1.234 . S
C110 O133 1.283 . S
C111 O123 1.281 . S
C111 O124 1.236 . S
C112 O134 1.240 1_554 S
C112 O135 1.264 . S
O113 Mn108 2.095 . S
O113 C122 1.250 1_556 S
O114 Mn109 2.121 . S
O114 C122 1.258 . S
C115 N116 1.326 . S
C115 C119 1.460 . S
C115 H121 0.929 . S
N116 Mn109 2.257 . S
N116 C115 1.326 . S
N116 C120 1.362 . S
C117 C118 1.258 . S
C117 C120 1.431 . S
C117 C137 1.449 . S
C118 C117 1.258 . S
C118 C119 1.477 . S
C118 H138 0.931 1_565 S
C119 C115 1.460 . S
C119 C118 1.477 . S
C119 H139 0.930 1_565 S
C120 N116 1.362 . S
C120 C117 1.431 . S
C120 C130 1.476 . S
H121 C115 0.929 . S
C122 O113 1.250 1_554 S
C122 O114 1.258 . S
O123 Mn108 2.162 . S
O123 C111 1.281 . S
O124 Mn108 2.297 . S
O124 C111 1.236 . S
N125 Mn109 2.282 . S
N125 C126 1.328 . S
N125 C130 1.318 . S
C126 N125 1.328 . S
C126 C127 1.457 . S
C126 H131 0.929 . S
C127 C126 1.457 . S
C127 C128 1.291 . S
C127 H140 0.931 . S
C128 C127 1.291 . S
C128 C129 1.373 . S
C128 H141 0.929 . S
C129 C128 1.373 . S
C129 C130 1.396 . S
C129 C136 1.403 . S
C130 C120 1.476 . S
C130 N125 1.318 . S
C130 C129 1.396 . S
H131 C126 0.929 . S
O132 Mn108 2.385 . S
O132 C110 1.234 . S
O133 Mn108 2.209 . S
O133 Mn109 2.215 1_556 S
O133 C110 1.283 . S
O134 Mn108 2.094 . S
O134 C112 1.240 1_556 S
O135 Mn109 2.117 . S
O135 C112 1.264 . S
C136 C129 1.403 . S
C136 C137 1.399 . S
C136 H142 0.929 . S
C137 C117 1.449 . S
C137 C136 1.399 . S
C137 H143 0.930 . S
H138 C118 0.931 1_545 S
H139 C119 0.930 1_545 S
H140 C127 0.931 . S
H141 C128 0.929 . S
H142 C136 0.929 . S
H143 C137 0.930 . S
C3 C76 1.521 . S
C40 C111 1.521 . S
C14 C110 1.414 . S
C86 C39 1.487 1_455 S
C112 C4 1.670 1_544 S
C50 C75 1.487 . S
C2 C122 1.414 1_455 S
C38 C74 1.461 1_545 S
