# Generated by pormake.
# Topology upa, (4)-cn, num edge types: 1
# Building blocks:
#     Node 0, Type 0, BuildingBlock: AZAVOO_clean_sbu_0, # of connection points: 4
#     Node 1, Type 0, BuildingBlock: AZAVOO_clean_sbu_0, # of connection points: 4
#     Node 2, Type 0, BuildingBlock: AZAVOO_clean_sbu_0, # of connection points: 4
#     Node 3, Type 0, BuildingBlock: AZAVOO_clean_sbu_0, # of connection points: 4
#     Node 4, Type 0, BuildingBlock: AZAVOO_clean_sbu_0, # of connection points: 4
#     Node 5, Type 0, BuildingBlock: AZAVOO_clean_sbu_0, # of connection points: 4
#     Node 6, Type 0, BuildingBlock: AZAVOO_clean_sbu_0, # of connection points: 4
#     Node 7, Type 0, BuildingBlock: AZAVOO_clean_sbu_0, # of connection points: 4
#     Edge 8, Type (0, 0), None
#     Edge 9, Type (0, 0), None
#     Edge 10, Type (0, 0), None
#     Edge 11, Type (0, 0), None
#     Edge 12, Type (0, 0), None
#     Edge 13, Type (0, 0), None
#     Edge 14, Type (0, 0), None
#     Edge 15, Type (0, 0), None
#     Edge 16, Type (0, 0), None
#     Edge 17, Type (0, 0), None
#     Edge 18, Type (0, 0), None
#     Edge 19, Type (0, 0), None
#     Edge 20, Type (0, 0), None
#     Edge 21, Type (0, 0), None
#     Edge 22, Type (0, 0), None
#     Edge 23, Type (0, 0), None
# Relax obj value: 0.152
# Max RMSD: 0.189
# Mean RMSD: 0.189
data_MOF--net-upa--node1-AZAVOO_clean_sbu_0--edge1-none
_symmetry_space_group_name_H-M    P1
_symmetry_Int_Tables_number       1
_symmetry_cell_setting            triclinic
loop_
_symmetry_equiv_pos_as_xyz
'x, y, z'
_cell_length_a     11.485716
_cell_length_b     11.485699
_cell_length_c     21.23802
_cell_angle_alpha  89.999696
_cell_angle_beta   90.000304
_cell_angle_gamma 90.000003
loop_
_atom_site_label
_atom_site_type_symbol
_atom_site_fract_x
_atom_site_fract_y
_atom_site_fract_z
_atom_type_partial_charge
Mg0 Mg 0.22816 0.33557 0.29948 0.0
O1 O 0.10255 0.1872 0.30712 0.0
O2 O 0.19734 1.02453 0.33168 0.0
Mg3 Mg 0.38699 0.07764 0.35507 0.0
C4 C 0.10381 0.07903 0.31784 0.0
C5 C 0.97783 0.40391 0.24413 0.0
O6 O 0.93924 0.35221 0.29515 0.0
O7 O 0.31964 0.26015 0.21204 0.0
O8 O 0.43558 0.12259 0.25291 0.0
O9 O 0.19324 0.3774 0.40116 0.0
O10 O 0.33411 0.26081 0.3693 0.0
C11 C 0.40258 0.18625 0.20698 0.0
C12 C 0.27712 0.30634 0.41491 0.0
O13 O 0.08705 0.42066 0.23717 0.0
Mg14 Mg 0.26058 0.72816 0.79948 0.0
O15 O 0.40895 0.60255 0.80712 0.0
O16 O 0.57161 0.69734 0.83167 0.0
Mg17 Mg 0.5185 0.88699 0.85507 0.0
C18 C 0.51712 0.60381 0.81784 0.0
C19 C 0.19224 0.47784 0.74413 0.0
O20 O 0.24393 0.43924 0.79514 0.0
O21 O 0.33599 0.81964 0.71204 0.0
O22 O 0.47355 0.93558 0.75291 0.0
O23 O 0.21874 0.69324 0.90116 0.0
O24 O 0.33533 0.83411 0.8693 0.0
C25 C 0.40989 0.90258 0.70698 0.0
C26 C 0.28981 0.77712 0.91491 0.0
O27 O 0.17548 0.58705 0.73717 0.0
Mg28 Mg 0.86798 0.76058 0.29948 0.0
O29 O 0.99359 0.90895 0.30712 0.0
O30 O 0.89879 0.07162 0.33167 0.0
Mg31 Mg 0.70915 1.0185 0.35507 0.0
C32 C 0.99232 1.01713 0.31783 0.0
C33 C 0.11831 0.69225 0.24413 0.0
O34 O 0.1569 0.74394 0.29514 0.0
O35 O 0.7765 0.83599 0.21204 0.0
O36 O 0.66056 0.97355 0.25291 0.0
O37 O 0.90291 0.71875 0.40116 0.0
O38 O 0.76204 0.83533 0.3693 0.0
C39 C 0.69356 0.90989 0.20698 0.0
C40 C 0.81903 0.78981 0.41491 0.0
O41 O 1.00909 0.67549 0.23717 0.0
Mg42 Mg 0.83557 0.36798 0.79949 0.0
O43 O 0.68719 0.49359 0.80712 0.0
O44 O 0.52453 0.39879 0.83167 0.0
Mg45 Mg 0.57764 0.20915 0.85507 0.0
C46 C 0.57902 0.49232 0.81783 0.0
C47 C 0.9039 0.61831 0.74413 0.0
O48 O 0.85221 0.6569 0.79515 0.0
O49 O 0.76015 0.2765 0.71204 0.0
O50 O 0.62259 0.16056 0.75291 0.0
O51 O 0.8774 0.40291 0.90116 0.0
O52 O 0.76081 0.26204 0.8693 0.0
C53 C 0.68625 0.19356 0.70698 0.0
C54 C 0.80634 0.31903 0.91491 0.0
O55 O 0.92066 0.50909 0.73717 0.0
Mg56 Mg 0.72817 0.26059 0.09566 0.0
O57 O 0.60255 0.40895 0.08801 0.0
O58 O 0.69734 0.57162 0.06346 0.0
Mg59 Mg 0.887 0.51852 0.04007 0.0
C60 C 0.60381 0.51712 0.0773 0.0
C61 C 0.47784 0.19224 0.151 0.0
O62 O 0.43921 0.24395 0.1 0.0
O63 O 0.81963 0.33601 0.1831 0.0
O64 O 0.93557 0.47359 0.14224 0.0
O65 O 0.69325 0.21875 -0.00602 0.0
O66 O 0.83411 0.33535 0.02584 0.0
C67 C 0.90254 0.40995 0.18817 0.0
C68 C 0.77713 0.28982 -0.01977 0.0
O69 O 0.58706 0.17549 0.15796 0.0
Mg70 Mg 0.33556 0.22817 0.59566 0.0
O71 O 0.18719 0.10256 0.58801 0.0
O72 O 1.02453 0.19735 0.56346 0.0
Mg73 Mg 0.07763 0.387 0.54007 0.0
C74 C 0.07902 0.10382 0.5773 0.0
C75 C 0.40391 0.97784 0.651 0.0
O76 O 0.3522 0.93921 0.6 0.0
O77 O 0.26014 0.31963 0.6831 0.0
O78 O 0.12256 0.43558 0.64224 0.0
O79 O 0.3774 0.19326 0.49398 0.0
O80 O 0.2608 0.33412 0.52584 0.0
C81 C 0.1862 0.40254 0.68817 0.0
C82 C 0.30633 0.27713 0.48023 0.0
O83 O 0.42066 0.08706 0.65796 0.0
Mg84 Mg 0.36797 0.83556 0.09565 0.0
O85 O 0.49359 0.68719 0.08801 0.0
O86 O 0.39879 0.52453 0.06346 0.0
Mg87 Mg 0.20914 0.57763 0.04007 0.0
C88 C 0.49232 0.57902 0.0773 0.0
C89 C 0.6183 0.90391 0.151 0.0
O90 O 0.65693 0.85219 0.1 0.0
O91 O 0.27651 0.76014 0.1831 0.0
O92 O 0.16057 0.62256 0.14224 0.0
O93 O 0.40289 0.8774 -0.00602 0.0
O94 O 0.26203 0.7608 0.02584 0.0
C95 C 0.1936 0.6862 0.18817 0.0
C96 C 0.31902 0.80633 -0.01977 0.0
O97 O 0.50909 0.92066 0.15796 0.0
Mg98 Mg 0.76059 0.86797 0.59566 0.0
O99 O 0.90895 0.99359 0.58801 0.0
O100 O 0.07162 0.8988 0.56346 0.0
Mg101 Mg 1.01852 0.70914 0.54007 0.0
C102 C 1.01713 0.99233 0.5773 0.0
C103 C 0.69224 0.1183 0.651 0.0
O104 O 0.74395 0.15693 0.6 0.0
O105 O 0.83601 0.77651 0.6831 0.0
O106 O 0.97358 0.66057 0.64224 0.0
O107 O 0.71875 0.90289 0.49398 0.0
O108 O 0.83534 0.76203 0.52584 0.0
C109 C 0.90995 0.6936 0.68817 0.0
C110 C 0.78982 0.81902 0.48023 0.0
O111 O 0.67549 1.00909 0.65796 0.0
loop_
_geom_bond_atom_site_label_1
_geom_bond_atom_site_label_2
_geom_bond_distance
_geom_bond_site_symmetry_2
_ccdc_geom_bond_type
Mg0 O1 2.028 . S
Mg0 O7 1.986 . S
Mg0 O9 2.114 . S
Mg0 O10 2.251 . S
Mg0 O13 2.010 1_455 S
O1 Mg0 2.028 . S
O1 C4 1.250 1_545 S
O2 Mg3 2.028 1_565 S
O2 C4 1.248 . S
Mg3 O2 2.028 1_545 S
Mg3 O8 2.032 . S
Mg3 O10 2.079 . S
C4 O1 1.250 1_565 S
C4 O2 1.248 . S
C5 O6 1.264 . S
C5 O13 1.249 . S
O6 C5 1.264 . S
O7 Mg0 1.986 . S
O7 C11 1.246 . S
O8 Mg3 2.032 . S
O8 C11 1.259 . S
O9 Mg0 2.114 . S
O9 C12 1.252 . S
O10 Mg0 2.251 . S
O10 Mg3 2.079 . S
O10 C12 1.273 . S
C11 O7 1.246 . S
C11 O8 1.259 . S
C12 O9 1.252 . S
C12 O10 1.273 . S
O13 Mg0 2.010 1_655 S
O13 C5 1.249 . S
Mg14 O15 2.028 . S
Mg14 O21 1.986 . S
Mg14 O23 2.114 . S
Mg14 O24 2.251 . S
Mg14 O27 2.010 . S
O15 Mg14 2.028 . S
O15 C18 1.250 . S
O16 Mg17 2.028 . S
O16 C18 1.248 . S
Mg17 O16 2.028 . S
Mg17 O22 2.032 . S
Mg17 O24 2.079 . S
C18 O15 1.250 . S
C18 O16 1.248 . S
C19 O20 1.264 . S
C19 O27 1.249 . S
O20 C19 1.264 . S
O21 Mg14 1.986 . S
O21 C25 1.246 . S
O22 Mg17 2.032 . S
O22 C25 1.259 . S
O23 Mg14 2.114 . S
O23 C26 1.252 . S
O24 Mg14 2.251 . S
O24 Mg17 2.079 . S
O24 C26 1.273 . S
C25 O21 1.246 . S
C25 O22 1.259 . S
C26 O23 1.252 . S
C26 O24 1.273 . S
O27 Mg14 2.010 . S
O27 C19 1.249 . S
Mg28 O29 2.028 . S
Mg28 O35 1.986 . S
Mg28 O37 2.114 . S
Mg28 O38 2.251 . S
Mg28 O41 2.010 1_655 S
O29 Mg28 2.028 . S
O29 C32 1.250 1_565 S
O30 Mg31 2.028 1_545 S
O30 C32 1.248 . S
Mg31 O30 2.028 1_565 S
Mg31 O36 2.032 . S
Mg31 O38 2.079 . S
C32 O29 1.250 1_545 S
C32 O30 1.248 . S
C33 O34 1.264 . S
C33 O41 1.249 . S
O34 C33 1.264 . S
O35 Mg28 1.986 . S
O35 C39 1.246 . S
O36 Mg31 2.032 . S
O36 C39 1.259 . S
O37 Mg28 2.114 . S
O37 C40 1.252 . S
O38 Mg28 2.251 . S
O38 Mg31 2.079 . S
O38 C40 1.273 . S
C39 O35 1.246 . S
C39 O36 1.259 . S
C40 O37 1.252 . S
C40 O38 1.273 . S
O41 Mg28 2.010 1_455 S
O41 C33 1.249 . S
Mg42 O43 2.028 . S
Mg42 O49 1.986 . S
Mg42 O51 2.114 . S
Mg42 O52 2.251 . S
Mg42 O55 2.010 . S
O43 Mg42 2.028 . S
O43 C46 1.250 . S
O44 Mg45 2.028 . S
O44 C46 1.248 . S
Mg45 O44 2.028 . S
Mg45 O50 2.032 . S
Mg45 O52 2.079 . S
C46 O43 1.250 . S
C46 O44 1.248 . S
C47 O48 1.264 . S
C47 O55 1.249 . S
O48 C47 1.264 . S
O49 Mg42 1.986 . S
O49 C53 1.246 . S
O50 Mg45 2.032 . S
O50 C53 1.259 . S
O51 Mg42 2.114 . S
O51 C54 1.252 . S
O52 Mg42 2.251 . S
O52 Mg45 2.079 . S
O52 C54 1.273 . S
C53 O49 1.246 . S
C53 O50 1.259 . S
C54 O51 1.252 . S
C54 O52 1.273 . S
O55 Mg42 2.010 . S
O55 C47 1.249 . S
Mg56 O57 2.028 . S
Mg56 O63 1.986 . S
Mg56 O65 2.114 . S
Mg56 O66 2.251 . S
Mg56 O69 2.010 . S
O57 Mg56 2.028 . S
O57 C60 1.250 . S
O58 Mg59 2.028 . S
O58 C60 1.248 . S
Mg59 O58 2.028 . S
Mg59 O64 2.032 . S
Mg59 O66 2.079 . S
C60 O57 1.250 . S
C60 O58 1.248 . S
C61 O62 1.264 . S
C61 O69 1.249 . S
O62 C61 1.264 . S
O63 Mg56 1.986 . S
O63 C67 1.246 . S
O64 Mg59 2.032 . S
O64 C67 1.259 . S
O65 Mg56 2.114 . S
O65 C68 1.252 . S
O66 Mg56 2.251 . S
O66 Mg59 2.079 . S
O66 C68 1.273 . S
C67 O63 1.246 . S
C67 O64 1.259 . S
C68 O65 1.252 . S
C68 O66 1.273 . S
O69 Mg56 2.010 . S
O69 C61 1.249 . S
Mg70 O71 2.028 . S
Mg70 O77 1.986 . S
Mg70 O79 2.114 . S
Mg70 O80 2.251 . S
Mg70 O83 2.010 1_545 S
O71 Mg70 2.028 . S
O71 C74 1.250 1_455 S
O72 Mg73 2.028 1_655 S
O72 C74 1.248 . S
Mg73 O72 2.028 1_455 S
Mg73 O78 2.032 . S
Mg73 O80 2.079 . S
C74 O71 1.250 1_655 S
C74 O72 1.248 . S
C75 O76 1.264 . S
C75 O83 1.249 . S
O76 C75 1.264 . S
O77 Mg70 1.986 . S
O77 C81 1.246 . S
O78 Mg73 2.032 . S
O78 C81 1.259 . S
O79 Mg70 2.114 . S
O79 C82 1.252 . S
O80 Mg70 2.251 . S
O80 Mg73 2.079 . S
O80 C82 1.273 . S
C81 O77 1.246 . S
C81 O78 1.259 . S
C82 O79 1.252 . S
C82 O80 1.273 . S
O83 Mg70 2.010 1_565 S
O83 C75 1.249 . S
Mg84 O85 2.028 . S
Mg84 O91 1.986 . S
Mg84 O93 2.114 . S
Mg84 O94 2.251 . S
Mg84 O97 2.010 . S
O85 Mg84 2.028 . S
O85 C88 1.250 . S
O86 Mg87 2.028 . S
O86 C88 1.248 . S
Mg87 O86 2.028 . S
Mg87 O92 2.032 . S
Mg87 O94 2.079 . S
C88 O85 1.250 . S
C88 O86 1.248 . S
C89 O90 1.264 . S
C89 O97 1.249 . S
O90 C89 1.264 . S
O91 Mg84 1.986 . S
O91 C95 1.246 . S
O92 Mg87 2.032 . S
O92 C95 1.259 . S
O93 Mg84 2.114 . S
O93 C96 1.252 . S
O94 Mg84 2.251 . S
O94 Mg87 2.079 . S
O94 C96 1.273 . S
C95 O91 1.246 . S
C95 O92 1.259 . S
C96 O93 1.252 . S
C96 O94 1.273 . S
O97 Mg84 2.010 . S
O97 C89 1.249 . S
Mg98 O99 2.028 . S
Mg98 O105 1.986 . S
Mg98 O107 2.114 . S
Mg98 O108 2.251 . S
Mg98 O111 2.010 1_565 S
O99 Mg98 2.028 . S
O99 C102 1.250 1_655 S
O100 Mg101 2.028 1_455 S
O100 C102 1.248 . S
Mg101 O100 2.028 1_655 S
Mg101 O106 2.032 . S
Mg101 O108 2.079 . S
C102 O99 1.250 1_455 S
C102 O100 1.248 . S
C103 O104 1.264 . S
C103 O111 1.249 . S
O104 C103 1.264 . S
O105 Mg98 1.986 . S
O105 C109 1.246 . S
O106 Mg101 2.032 . S
O106 C109 1.259 . S
O107 Mg98 2.114 . S
O107 C110 1.252 . S
O108 Mg98 2.251 . S
O108 Mg101 2.079 . S
O108 C110 1.273 . S
C109 O105 1.246 . S
C109 O106 1.259 . S
C110 O107 1.252 . S
C110 O108 1.273 . S
O111 Mg98 2.010 1_545 S
O111 C103 1.249 . S
C4 C32 1.400 1_465 S
C18 C46 1.400 . S
C60 C88 1.400 . S
C74 C102 1.400 1_645 S
C12 C82 1.925 . S
C26 C96 1.925 1_556 S
C110 C40 1.925 . S
C54 C68 1.925 1_556 S
C61 C11 1.680 . S
C25 C75 1.680 . S
C39 C89 1.680 . S
C53 C103 1.680 . S
C5 C67 1.680 . S
C81 C19 1.680 . S
C95 C33 1.680 . S
C47 C109 1.680 . S
