# Generated by pormake.
# Topology uov, (4)-cn, num edge types: 1
# Building blocks:
#     Node 0, Type 0, BuildingBlock: NAHDIM_clean_sbu_0, # of connection points: 4
#     Node 1, Type 0, BuildingBlock: NAHDIM_clean_sbu_0, # of connection points: 4
#     Node 2, Type 0, BuildingBlock: NAHDIM_clean_sbu_0, # of connection points: 4
#     Node 3, Type 0, BuildingBlock: NAHDIM_clean_sbu_0, # of connection points: 4
#     Node 4, Type 0, BuildingBlock: NAHDIM_clean_sbu_0, # of connection points: 4
#     Node 5, Type 0, BuildingBlock: NAHDIM_clean_sbu_0, # of connection points: 4
#     Node 6, Type 0, BuildingBlock: NAHDIM_clean_sbu_0, # of connection points: 4
#     Node 7, Type 0, BuildingBlock: NAHDIM_clean_sbu_0, # of connection points: 4
#     Edge 8, Type (0, 0), BuildingBlock: OJICUG_clean_linker_0, # of connection points: 2
#     Edge 9, Type (0, 0), BuildingBlock: OJICUG_clean_linker_0, # of connection points: 2
#     Edge 10, Type (0, 0), BuildingBlock: OJICUG_clean_linker_0, # of connection points: 2
#     Edge 11, Type (0, 0), BuildingBlock: OJICUG_clean_linker_0, # of connection points: 2
#     Edge 12, Type (0, 0), BuildingBlock: OJICUG_clean_linker_0, # of connection points: 2
#     Edge 13, Type (0, 0), BuildingBlock: OJICUG_clean_linker_0, # of connection points: 2
#     Edge 14, Type (0, 0), BuildingBlock: OJICUG_clean_linker_0, # of connection points: 2
#     Edge 15, Type (0, 0), BuildingBlock: OJICUG_clean_linker_0, # of connection points: 2
#     Edge 16, Type (0, 0), BuildingBlock: OJICUG_clean_linker_0, # of connection points: 2
#     Edge 17, Type (0, 0), BuildingBlock: OJICUG_clean_linker_0, # of connection points: 2
#     Edge 18, Type (0, 0), BuildingBlock: OJICUG_clean_linker_0, # of connection points: 2
#     Edge 19, Type (0, 0), BuildingBlock: OJICUG_clean_linker_0, # of connection points: 2
#     Edge 20, Type (0, 0), BuildingBlock: OJICUG_clean_linker_0, # of connection points: 2
#     Edge 21, Type (0, 0), BuildingBlock: OJICUG_clean_linker_0, # of connection points: 2
#     Edge 22, Type (0, 0), BuildingBlock: OJICUG_clean_linker_0, # of connection points: 2
#     Edge 23, Type (0, 0), BuildingBlock: OJICUG_clean_linker_0, # of connection points: 2
# Relax obj value: 0.256
# Max RMSD: 0.234
# Mean RMSD: 0.234
data_MOF--net-uov--node1-NAHDIM_clean_sbu_0--edge1-OJICUG_clean_linker_0
_symmetry_space_group_name_H-M    P1
_symmetry_Int_Tables_number       1
_symmetry_cell_setting            triclinic
loop_
_symmetry_equiv_pos_as_xyz
'x, y, z'
_cell_length_a     22.266342
_cell_length_b     22.365226
_cell_length_c     30.002246
_cell_angle_alpha  89.975378
_cell_angle_beta   90.07747
_cell_angle_gamma 90.103444
loop_
_atom_site_label
_atom_site_type_symbol
_atom_site_fract_x
_atom_site_fract_y
_atom_site_fract_z
_atom_type_partial_charge
C0 C 0.04723 0.37907 0.63926 0.0
O1 O 0.09775 0.35371 0.65168 0.0
O2 O 0.9467 0.22743 0.57733 0.0
Zn3 Zn 0.02091 0.26176 0.60536 0.0
O4 O 0.04706 0.21464 0.65902 0.0
C5 C 0.07604 0.25896 0.51857 0.0
O6 O 0.02153 0.27242 0.50513 0.0
O7 O 0.00744 0.34778 0.61981 0.0
C8 C 0.06257 0.16043 0.65355 0.0
O9 O 0.05774 0.13639 0.61375 0.0
C10 C 0.90959 0.19106 0.59464 0.0
O11 O 0.91713 0.17367 0.63609 0.0
O12 O 0.08666 0.25484 0.56009 0.0
C13 C 0.36258 0.96701 0.34995 0.0
O14 O 0.33397 0.92113 0.33261 0.0
O15 O 0.21018 0.08844 0.382 0.0
Zn16 Zn 0.24335 0.0056 0.37678 0.0
O17 O 0.20161 0.95923 0.32833 0.0
C18 C 0.22133 0.91229 0.443 0.0
O19 O 0.23912 0.87512 0.41181 0.0
O20 O 0.33285 0.00782 0.36934 0.0
C21 C 0.14496 0.95266 0.33077 0.0
O22 O 0.11573 0.97834 0.36359 0.0
C23 C 0.23448 0.12034 0.41209 0.0
O24 O 0.28377 0.1007 0.43124 0.0
O25 O 0.22213 0.96807 0.43531 0.0
C26 C 0.02137 0.63546 0.64167 0.0
O27 O 0.06406 0.67009 0.65754 0.0
O28 O 0.0542 0.77379 0.58516 0.0
Zn29 Zn 0.97505 0.74698 0.61009 0.0
O30 O 0.95319 0.7901 0.66697 0.0
C31 C 0.9242 0.75448 0.52188 0.0
O32 O 0.97465 0.72812 0.51067 0.0
O33 O 0.97782 0.65887 0.62063 0.0
C34 C 0.91592 0.83315 0.66638 0.0
O35 O 0.89378 0.85107 0.62805 0.0
C36 C 0.06805 0.82882 0.58349 0.0
O37 O 0.0327 0.86803 0.60274 0.0
O38 O 0.91366 0.76471 0.56281 0.0
C39 C 0.62199 0.97415 0.3552 0.0
O40 O 0.65428 0.93223 0.33616 0.0
O41 O 0.76557 0.93656 0.41099 0.0
Zn42 Zn 0.73755 0.01496 0.38594 0.0
O43 O 0.77933 0.03939 0.32933 0.0
C44 C 0.75581 0.06351 0.47342 0.0
O45 O 0.73072 0.01286 0.48558 0.0
O46 O 0.64822 0.01446 0.37788 0.0
C47 C 0.83549 0.0334 0.3232 0.0
O48 O 0.86831 0.00647 0.35354 0.0
C49 C 0.79282 0.89245 0.39375 0.0
O50 O 0.80485 0.89237 0.3509 0.0
O51 O 0.76047 0.07553 0.43215 0.0
C52 C 0.9866 0.36083 0.15337 0.0
O53 O 0.00549 0.32722 0.18645 0.0
O54 O 0.04436 0.21934 0.08605 0.0
Zn55 Zn 0.96527 0.24697 0.11051 0.0
O56 O 0.94075 0.20496 0.16704 0.0
C57 C 0.91716 0.22905 0.02275 0.0
O58 O 0.96809 0.25427 0.01102 0.0
O59 O 0.96683 0.33607 0.11816 0.0
C60 C 0.94841 0.14924 0.17327 0.0
O61 O 0.97679 0.11749 0.14313 0.0
C62 C 0.08972 0.19422 0.10358 0.0
O63 O 0.09064 0.18343 0.14661 0.0
O64 O 0.90467 0.22417 0.06393 0.0
C65 C 0.35508 0.03874 0.8527 0.0
O66 O 0.33086 0.08293 0.83014 0.0
O67 O 0.19051 0.94454 0.90028 0.0
Zn68 Zn 0.2336 0.02066 0.88452 0.0
O69 O 0.19684 0.058 0.83006 0.0
C70 C 0.23175 0.0683 0.97547 0.0
O71 O 0.26079 0.01935 0.98633 0.0
O72 O 0.32196 0.00639 0.87734 0.0
C73 C 0.17671 0.02947 0.79662 0.0
O74 O 0.18164 0.97096 0.79546 0.0
C75 C 0.21616 0.90419 0.92323 0.0
O76 O 0.2733 0.91019 0.93328 0.0
O77 O 0.21868 0.07792 0.93483 0.0
C78 C 0.01114 0.61814 0.15991 0.0
O79 O 0.02887 0.64555 0.19636 0.0
O80 O 0.936 0.77717 0.10202 0.0
Zn81 Zn 0.01368 0.73717 0.11908 0.0
O82 O 0.04803 0.77487 0.17455 0.0
C83 C 0.0595 0.75938 0.02954 0.0
O84 O 0.00415 0.74795 0.01703 0.0
O85 O 0.00238 0.6483 0.12461 0.0
C86 C 0.01879 0.8095 0.20011 0.0
O87 O 0.96132 0.81831 0.19271 0.0
C88 C 0.89615 0.75076 0.07887 0.0
O89 O 0.90368 0.69425 0.06837 0.0
O90 O 0.07352 0.75498 0.0705 0.0
C91 C 0.61232 0.00572 0.85639 0.0
O92 O 0.6481 0.04192 0.83434 0.0
O93 O 0.75413 0.03854 0.91732 0.0
Zn94 Zn 0.72418 0.96196 0.89018 0.0
O95 O 0.76503 0.94487 0.83169 0.0
C96 C 0.74744 0.90673 0.97486 0.0
O97 O 0.7324 0.96 0.98949 0.0
O98 O 0.63506 0.96674 0.88215 0.0
C99 C 0.81666 0.92064 0.83166 0.0
O100 O 0.84296 0.90897 0.86991 0.0
C101 C 0.79299 0.07382 0.90089 0.0
O102 O 0.81494 0.06296 0.8611 0.0
O103 O 0.74465 0.896 0.9333 0.0
C104 C 0.07768 0.54271 0.66283 0.0
C105 C 0.02602 0.56972 0.64499 0.0
H106 H 0.12495 0.46104 0.67519 0.0
C107 C 0.9798 0.53327 0.62821 0.0
H108 H 0.11399 0.5696 0.67618 0.0
C109 C 0.98601 0.47125 0.62773 0.0
C110 C 0.03864 0.44426 0.64393 0.0
H111 H 0.93922 0.55262 0.61449 0.0
H112 H 0.95005 0.44462 0.6136 0.0
C113 C 0.08397 0.48052 0.66226 0.0
C114 C 0.52567 0.92687 0.32958 0.0
C115 C 0.5557 0.97344 0.35187 0.0
H116 H 0.441 0.88826 0.31136 0.0
C117 C 0.5217 0.01884 0.37203 0.0
H118 H 0.55058 0.89129 0.31361 0.0
C119 C 0.45909 0.01718 0.37065 0.0
C120 C 0.42894 0.96999 0.34919 0.0
H121 H 0.54338 0.05549 0.38935 0.0
H122 H 0.43436 0.05256 0.38703 0.0
C123 C 0.46288 0.92512 0.32829 0.0
C124 C 0.97508 0.46208 0.11904 0.0
C125 C 0.9907 0.42679 0.15602 0.0
H126 H 0.96925 0.54984 0.09128 0.0
C127 C 0.01156 0.45509 0.19492 0.0
H128 H 0.95878 0.44177 0.08855 0.0
C129 C 0.01748 0.51736 0.19653 0.0
C130 C 0.00286 0.55248 0.15921 0.0
H131 H 0.02382 0.42917 0.22404 0.0
H132 H 0.0342 0.53784 0.22682 0.0
C133 C 0.98117 0.52414 0.12059 0.0
C134 C 0.45837 0.06524 0.82584 0.0
C135 C 0.42064 0.02841 0.85148 0.0
H136 H 0.5486 0.08687 0.80711 0.0
C137 C 0.44634 0.98253 0.8772 0.0
H138 H 0.43996 0.10086 0.80555 0.0
C139 C 0.50846 0.97453 0.87809 0.0
C140 C 0.54636 0.01221 0.85328 0.0
H141 H 0.41856 0.95321 0.89724 0.0
H142 H 0.52678 0.93929 0.8988 0.0
C143 C 0.52064 0.05721 0.82672 0.0
C144 C 0.14235 0.18404 0.41749 0.0
C145 C 0.19969 0.1687 0.43346 0.0
H146 H 0.05814 0.22571 0.43186 0.0
C147 C 0.2194 0.19295 0.47416 0.0
H148 H 0.12605 0.16656 0.38604 0.0
C149 C 0.18034 0.22635 0.50056 0.0
C150 C 0.12106 0.23669 0.48654 0.0
H151 H 0.26356 0.18265 0.48722 0.0
H152 H 0.19552 0.24104 0.53309 0.0
C153 C 0.10341 0.21798 0.44377 0.0
C154 C 0.16643 0.93043 0.51442 0.0
C155 C 0.19123 0.88991 0.48368 0.0
H156 H 0.10852 0.94281 0.57047 0.0
C157 C 0.18169 0.82841 0.48998 0.0
H158 H 0.1734 0.97814 0.51083 0.0
C159 C 0.14459 0.80814 0.52439 0.0
C160 C 0.11616 0.84904 0.55303 0.0
H161 H 0.20052 0.79602 0.46712 0.0
H162 H 0.13578 0.76063 0.527 0.0
C163 C 0.12921 0.9102 0.54869 0.0
C164 C 0.86886 0.81285 0.41063 0.0
C165 C 0.81961 0.84764 0.42401 0.0
H166 H 0.94082 0.75565 0.43127 0.0
C167 C 0.80057 0.84488 0.46862 0.0
H168 H 0.88456 0.81404 0.37648 0.0
C169 C 0.83263 0.81163 0.4999 0.0
C170 C 0.8846 0.78045 0.48732 0.0
H171 H 0.76234 0.87065 0.4799 0.0
H172 H 0.81818 0.81271 0.53435 0.0
C173 C 0.90117 0.77957 0.44207 0.0
C174 C 0.81723 0.15335 0.49282 0.0
C175 C 0.78721 0.10125 0.50656 0.0
H176 H 0.87892 0.2228 0.50998 0.0
C177 C 0.79255 0.08266 0.55119 0.0
H178 H 0.81372 0.1692 0.4588 0.0
C179 C 0.83014 0.11353 0.58071 0.0
C180 C 0.86306 0.16345 0.56606 0.0
H181 H 0.7698 0.04279 0.56287 0.0
H182 H 0.83536 0.09671 0.61435 0.0
C183 C 0.85474 0.18406 0.52222 0.0
C184 C 0.79713 0.13014 0.97276 0.0
C185 C 0.81919 0.12116 0.92938 0.0
H186 H 0.81035 0.1718 0.0361 0.0
C187 C 0.86966 0.15388 0.91531 0.0
H188 H 0.75799 0.1061 0.98457 0.0
C189 C 0.89973 0.1918 0.94499 0.0
C190 C 0.8799 0.19761 0.98926 0.0
H191 H 0.88757 0.14825 0.88203 0.0
H192 H 0.94007 0.21433 0.93377 0.0
C193 C 0.82716 0.16791 0.00236 0.0
C194 C 0.17317 0.15828 0.99796 0.0
C195 C 0.20536 0.10693 0.01032 0.0
H196 H 0.11214 0.22658 0.01803 0.0
C197 C 0.20628 0.08977 0.05546 0.0
H198 H 0.17213 0.17326 0.96362 0.0
C199 C 0.1718 0.12072 0.08691 0.0
C200 C 0.13581 0.16908 0.07359 0.0
H201 H 0.23096 0.05058 0.06609 0.0
H202 H 0.17055 0.10452 0.12092 0.0
C203 C 0.13873 0.1889 0.0292 0.0
C204 C 0.16305 0.79363 0.00969 0.0
C205 C 0.10228 0.78698 -0.00199 0.0
H206 H 0.24723 0.83503 0.99455 0.0
C207 C 0.08151 0.81261 0.9581 0.0
H208 H 0.18047 0.77393 0.04005 0.0
C209 C 0.11961 0.84815 0.93225 0.0
C210 C 0.17936 0.85801 0.94551 0.0
H211 H 0.03496 0.80813 0.94809 0.0
H212 H 0.10153 0.86995 0.90291 0.0
C213 C 0.20136 0.82848 0.9835 0.0
C214 C 0.78713 0.80436 0.99115 0.0
C215 C 0.77659 0.86338 0.0051 0.0
H216 H 0.83229 0.7218 0.00419 0.0
C217 C 0.79946 0.88231 0.04644 0.0
H218 H 0.76973 0.78838 0.95958 0.0
C219 C 0.83586 0.84443 0.07174 0.0
C220 C 0.84929 0.7866 0.05652 0.0
H221 H 0.79202 0.92748 0.05819 0.0
H222 H 0.85538 0.86126 0.10238 0.0
C223 C 0.82277 0.76615 0.01681 0.0
C224 C 0.10227 0.06489 0.6859 0.0
C225 C 0.0895 0.12613 0.69069 0.0
H226 H 0.13969 0.98615 0.71564 0.0
C227 C 0.10484 0.15488 0.73073 0.0
H228 H 0.09095 0.04142 0.65544 0.0
C229 C 0.13322 0.1234 0.76496 0.0
C230 C 0.14648 0.0623 0.76011 0.0
H231 H 0.09577 0.20202 0.73547 0.0
H232 H 0.14476 0.14712 0.79526 0.0
C233 C 0.13025 0.03322 0.72036 0.0
C234 C 0.11386 0.84428 0.23653 0.0
C235 C 0.05073 0.84403 0.23497 0.0
H236 H 0.19305 0.87919 0.26757 0.0
C237 C 0.01879 0.87927 0.26559 0.0
H238 H 0.13988 0.81784 0.21331 0.0
C239 C 0.04939 0.91428 0.2969 0.0
C240 C 0.11253 0.9153 0.29789 0.0
H241 H 0.97015 0.8801 0.26525 0.0
H242 H 0.02352 0.94102 0.32002 0.0
C243 C 0.1444 0.87974 0.26748 0.0
C244 C 0.84439 0.89848 0.70825 0.0
C245 C 0.89381 0.85944 0.70852 0.0
H246 H 0.78115 0.94834 0.7469 0.0
C247 C 0.91982 0.84358 0.74954 0.0
H248 H 0.82336 0.91172 0.67721 0.0
C249 C 0.89582 0.86494 0.78951 0.0
C250 C 0.84499 0.90215 0.78929 0.0
H251 H 0.95812 0.81385 0.75087 0.0
H252 H 0.91621 0.85095 0.8206 0.0
C253 C 0.82007 0.91939 0.74821 0.0
C254 C 0.91739 0.03856 0.26614 0.0
C255 C 0.86432 0.06191 0.28439 0.0
H256 H 0.98533 0.04751 0.21585 0.0
C257 C 0.83971 0.11428 0.2662 0.0
H258 H 0.93716 -0.00178 0.27964 0.0
C259 C 0.868 0.14328 0.23077 0.0
C260 C 0.92059 0.11961 0.21204 0.0
H261 H 0.79911 0.13352 0.27989 0.0
H262 H 0.84805 0.18371 0.21752 0.0
C263 C 0.94484 0.0667 0.22976 0.0
loop_
_geom_bond_atom_site_label_1
_geom_bond_atom_site_label_2
_geom_bond_distance
_geom_bond_site_symmetry_2
_ccdc_geom_bond_type
C0 O1 1.160 1_455 S
C0 O7 1.185 . S
O1 C0 1.160 1_655 S
O2 Zn3 1.899 1_655 S
O2 C10 1.284 . S
Zn3 O2 1.899 1_455 S
Zn3 O4 2.032 . S
Zn3 O7 2.086 . S
Zn3 O12 1.977 . S
O4 Zn3 2.032 . S
O4 C8 1.278 . S
C5 O6 1.203 . S
C5 O12 1.267 . S
O6 C5 1.203 . S
O7 C0 1.185 . S
O7 Zn3 2.086 . S
C8 O4 1.278 . S
C8 O9 1.211 . S
O9 C8 1.211 . S
C10 O2 1.284 . S
C10 O11 1.273 . S
O11 C10 1.273 . S
O12 Zn3 1.977 . S
O12 C5 1.267 . S
C13 O14 1.160 1_565 S
C13 O20 1.185 . S
O14 C13 1.160 1_545 S
O15 Zn16 1.899 1_545 S
O15 C23 1.284 . S
Zn16 O15 1.899 1_565 S
Zn16 O17 2.032 . S
Zn16 O20 2.086 . S
Zn16 O25 1.977 . S
O17 Zn16 2.032 . S
O17 C21 1.278 . S
C18 O19 1.203 . S
C18 O25 1.267 . S
O19 C18 1.203 . S
O20 C13 1.185 . S
O20 Zn16 2.086 . S
C21 O17 1.278 . S
C21 O22 1.211 . S
O22 C21 1.211 . S
C23 O15 1.284 . S
C23 O24 1.273 . S
O24 C23 1.273 . S
O25 Zn16 1.977 . S
O25 C18 1.267 . S
C26 O27 1.160 1_655 S
C26 O33 1.185 . S
O27 C26 1.160 1_455 S
O28 Zn29 1.899 1_455 S
O28 C36 1.284 . S
Zn29 O28 1.899 1_655 S
Zn29 O30 2.032 . S
Zn29 O33 2.086 . S
Zn29 O38 1.977 . S
O30 Zn29 2.032 . S
O30 C34 1.278 . S
C31 O32 1.203 . S
C31 O38 1.267 . S
O32 C31 1.203 . S
O33 C26 1.185 . S
O33 Zn29 2.086 . S
C34 O30 1.278 . S
C34 O35 1.211 . S
O35 C34 1.211 . S
C36 O28 1.284 . S
C36 O37 1.273 . S
O37 C36 1.273 . S
O38 Zn29 1.977 . S
O38 C31 1.267 . S
C39 O40 1.160 1_545 S
C39 O46 1.185 . S
O40 C39 1.160 1_565 S
O41 Zn42 1.899 1_565 S
O41 C49 1.284 . S
Zn42 O41 1.899 1_545 S
Zn42 O43 2.032 . S
Zn42 O46 2.086 . S
Zn42 O51 1.977 . S
O43 Zn42 2.032 . S
O43 C47 1.278 . S
C44 O45 1.203 . S
C44 O51 1.267 . S
O45 C44 1.203 . S
O46 C39 1.185 . S
O46 Zn42 2.086 . S
C47 O43 1.278 . S
C47 O48 1.211 . S
O48 C47 1.211 . S
C49 O41 1.284 . S
C49 O50 1.273 . S
O50 C49 1.273 . S
O51 Zn42 1.977 . S
O51 C44 1.267 . S
C52 O53 1.160 1_655 S
C52 O59 1.185 . S
O53 C52 1.160 1_455 S
O54 Zn55 1.899 1_455 S
O54 C62 1.284 . S
Zn55 O54 1.899 1_655 S
Zn55 O56 2.032 . S
Zn55 O59 2.086 . S
Zn55 O64 1.977 . S
O56 Zn55 2.032 . S
O56 C60 1.278 . S
C57 O58 1.203 . S
C57 O64 1.267 . S
O58 C57 1.203 . S
O59 C52 1.185 . S
O59 Zn55 2.086 . S
C60 O56 1.278 . S
C60 O61 1.211 . S
O61 C60 1.211 . S
C62 O54 1.284 . S
C62 O63 1.273 . S
O63 C62 1.273 . S
O64 Zn55 1.977 . S
O64 C57 1.267 . S
C65 O66 1.160 1_545 S
C65 O72 1.185 . S
O66 C65 1.160 1_565 S
O67 Zn68 1.899 1_565 S
O67 C75 1.284 . S
Zn68 O67 1.899 1_545 S
Zn68 O69 2.032 . S
Zn68 O72 2.086 . S
Zn68 O77 1.977 . S
O69 Zn68 2.032 . S
O69 C73 1.278 . S
C70 O71 1.203 . S
C70 O77 1.267 . S
O71 C70 1.203 . S
O72 C65 1.185 . S
O72 Zn68 2.086 . S
C73 O69 1.278 . S
C73 O74 1.211 . S
O74 C73 1.211 . S
C75 O67 1.284 . S
C75 O76 1.273 . S
O76 C75 1.273 . S
O77 Zn68 1.977 . S
O77 C70 1.267 . S
C78 O79 1.160 1_455 S
C78 O85 1.185 . S
O79 C78 1.160 1_655 S
O80 Zn81 1.899 1_655 S
O80 C88 1.284 . S
Zn81 O80 1.899 1_455 S
Zn81 O82 2.032 . S
Zn81 O85 2.086 . S
Zn81 O90 1.977 . S
O82 Zn81 2.032 . S
O82 C86 1.278 . S
C83 O84 1.203 . S
C83 O90 1.267 . S
O84 C83 1.203 . S
O85 C78 1.185 . S
O85 Zn81 2.086 . S
C86 O82 1.278 . S
C86 O87 1.211 . S
O87 C86 1.211 . S
C88 O80 1.284 . S
C88 O89 1.273 . S
O89 C88 1.273 . S
O90 Zn81 1.977 . S
O90 C83 1.267 . S
C91 O92 1.160 1_565 S
C91 O98 1.185 . S
O92 C91 1.160 1_545 S
O93 Zn94 1.899 1_545 S
O93 C101 1.284 . S
Zn94 O93 1.899 1_565 S
Zn94 O95 2.032 . S
Zn94 O98 2.086 . S
Zn94 O103 1.977 . S
O95 Zn94 2.032 . S
O95 C99 1.278 . S
C96 O97 1.203 . S
C96 O103 1.267 . S
O97 C96 1.203 . S
O98 C91 1.185 . S
O98 Zn94 2.086 . S
C99 O95 1.278 . S
C99 O100 1.211 . S
O100 C99 1.211 . S
C101 O93 1.284 . S
C101 O102 1.273 . S
O102 C101 1.273 . S
O103 Zn94 1.977 . S
O103 C96 1.267 . S
C104 C105 1.387 . S
C104 H108 0.950 . S
C104 C113 1.390 1_655 S
C105 C104 1.387 . S
C105 C107 1.387 . S
H106 C113 0.950 . S
C107 C105 1.387 . S
C107 C109 1.390 1_655 S
C107 H111 0.950 . S
H108 C104 0.950 . S
C109 C107 1.390 1_455 S
C109 C110 1.387 . S
C109 H112 0.950 . S
C110 C109 1.387 . S
C110 C113 1.387 . S
H111 C107 0.950 . S
H112 C109 0.950 . S
C113 C104 1.390 1_455 S
C113 H106 0.950 . S
C113 C110 1.387 . S
C114 C115 1.387 . S
C114 H118 0.950 . S
C114 C123 1.390 1_545 S
C115 C114 1.387 . S
C115 C117 1.387 . S
H116 C123 0.950 . S
C117 C115 1.387 . S
C117 C119 1.390 1_545 S
C117 H121 0.950 . S
H118 C114 0.950 . S
C119 C117 1.390 1_565 S
C119 C120 1.387 . S
C119 H122 0.950 . S
C120 C119 1.387 . S
C120 C123 1.387 . S
H121 C117 0.950 . S
H122 C119 0.950 . S
C123 C114 1.390 1_565 S
C123 H116 0.950 . S
C123 C120 1.387 . S
C124 C125 1.387 . S
C124 H128 0.950 . S
C124 C133 1.390 1_655 S
C125 C124 1.387 . S
C125 C127 1.387 . S
H126 C133 0.950 . S
C127 C125 1.387 . S
C127 C129 1.390 1_655 S
C127 H131 0.950 . S
H128 C124 0.950 . S
C129 C127 1.390 1_455 S
C129 C130 1.387 . S
C129 H132 0.950 . S
C130 C129 1.387 . S
C130 C133 1.387 . S
H131 C127 0.950 . S
H132 C129 0.950 . S
C133 C124 1.390 1_455 S
C133 H126 0.950 . S
C133 C130 1.387 . S
C134 C135 1.387 . S
C134 H138 0.950 . S
C134 C143 1.390 1_545 S
C135 C134 1.387 . S
C135 C137 1.387 . S
H136 C143 0.950 . S
C137 C135 1.387 . S
C137 C139 1.390 1_545 S
C137 H141 0.950 . S
H138 C134 0.950 . S
C139 C137 1.390 1_565 S
C139 C140 1.387 . S
C139 H142 0.950 . S
C140 C139 1.387 . S
C140 C143 1.387 . S
H141 C137 0.950 . S
H142 C139 0.950 . S
C143 C134 1.390 1_565 S
C143 H136 0.950 . S
C143 C140 1.387 . S
C144 C145 1.387 . S
C144 H148 0.950 . S
C144 C153 1.390 . S
C145 C144 1.387 . S
C145 C147 1.387 . S
H146 C153 0.950 . S
C147 C145 1.387 . S
C147 C149 1.390 . S
C147 H151 0.950 . S
H148 C144 0.950 . S
C149 C147 1.390 . S
C149 C150 1.387 . S
C149 H152 0.950 . S
C150 C149 1.387 . S
C150 C153 1.387 . S
H151 C147 0.950 . S
H152 C149 0.950 . S
C153 C144 1.390 . S
C153 H146 0.950 . S
C153 C150 1.387 . S
C154 C155 1.387 . S
C154 H158 0.950 . S
C154 C163 1.390 . S
C155 C154 1.387 . S
C155 C157 1.387 . S
H156 C163 0.950 . S
C157 C155 1.387 . S
C157 C159 1.390 . S
C157 H161 0.950 . S
H158 C154 0.950 . S
C159 C157 1.390 . S
C159 C160 1.387 . S
C159 H162 0.950 . S
C160 C159 1.387 . S
C160 C163 1.387 . S
H161 C157 0.950 . S
H162 C159 0.950 . S
C163 C154 1.390 . S
C163 H156 0.950 . S
C163 C160 1.387 . S
C164 C165 1.387 . S
C164 H168 0.950 . S
C164 C173 1.390 . S
C165 C164 1.387 . S
C165 C167 1.387 . S
H166 C173 0.950 . S
C167 C165 1.387 . S
C167 C169 1.390 . S
C167 H171 0.950 . S
H168 C164 0.950 . S
C169 C167 1.390 . S
C169 C170 1.387 . S
C169 H172 0.950 . S
C170 C169 1.387 . S
C170 C173 1.387 . S
H171 C167 0.950 . S
H172 C169 0.950 . S
C173 C164 1.390 . S
C173 H166 0.950 . S
C173 C170 1.387 . S
C174 C175 1.387 . S
C174 H178 0.950 . S
C174 C183 1.390 . S
C175 C174 1.387 . S
C175 C177 1.387 . S
H176 C183 0.950 . S
C177 C175 1.387 . S
C177 C179 1.390 . S
C177 H181 0.950 . S
H178 C174 0.950 . S
C179 C177 1.390 . S
C179 C180 1.387 . S
C179 H182 0.950 . S
C180 C179 1.387 . S
C180 C183 1.387 . S
H181 C177 0.950 . S
H182 C179 0.950 . S
C183 C174 1.390 . S
C183 H176 0.950 . S
C183 C180 1.387 . S
C184 C185 1.387 . S
C184 H188 0.950 . S
C184 C193 1.390 1_556 S
C185 C184 1.387 . S
C185 C187 1.387 . S
H186 C193 0.950 . S
C187 C185 1.387 . S
C187 C189 1.390 . S
C187 H191 0.950 . S
H188 C184 0.950 . S
C189 C187 1.390 . S
C189 C190 1.387 1_556 S
C189 H192 0.950 . S
C190 C189 1.387 1_554 S
C190 C193 1.387 . S
H191 C187 0.950 . S
H192 C189 0.950 . S
C193 C184 1.390 1_554 S
C193 H186 0.950 . S
C193 C190 1.387 . S
C194 C195 1.387 . S
C194 H198 0.950 . S
C194 C203 1.390 1_556 S
C195 C194 1.387 . S
C195 C197 1.387 1_556 S
H196 C203 0.950 . S
C197 C195 1.387 1_554 S
C197 C199 1.390 . S
C197 H201 0.950 . S
H198 C194 0.950 . S
C199 C197 1.390 . S
C199 C200 1.387 . S
C199 H202 0.950 . S
C200 C199 1.387 . S
C200 C203 1.387 . S
H201 C197 0.950 . S
H202 C199 0.950 . S
C203 C194 1.390 1_554 S
C203 H196 0.950 . S
C203 C200 1.387 . S
C204 C205 1.387 1_556 S
C204 H208 0.950 . S
C204 C213 1.390 . S
C205 C204 1.387 1_554 S
C205 C207 1.387 . S
H206 C213 0.950 . S
C207 C205 1.387 . S
C207 C209 1.390 1_554 S
C207 H211 0.950 . S
H208 C204 0.950 . S
C209 C207 1.390 1_556 S
C209 C210 1.387 . S
C209 H212 0.950 . S
C210 C209 1.387 . S
C210 C213 1.387 . S
H211 C207 0.950 . S
H212 C209 0.950 . S
C213 C204 1.390 . S
C213 H206 0.950 . S
C213 C210 1.387 . S
C214 C215 1.387 1_554 S
C214 H218 0.950 . S
C214 C223 1.390 . S
C215 C214 1.387 1_556 S
C215 C217 1.387 . S
H216 C223 0.950 . S
C217 C215 1.387 . S
C217 C219 1.390 1_556 S
C217 H221 0.950 . S
H218 C214 0.950 . S
C219 C217 1.390 1_554 S
C219 C220 1.387 . S
C219 H222 0.950 . S
C220 C219 1.387 . S
C220 C223 1.387 . S
H221 C217 0.950 . S
H222 C219 0.950 . S
C223 C214 1.390 . S
C223 H216 0.950 . S
C223 C220 1.387 . S
C224 C225 1.387 . S
C224 H228 0.950 . S
C224 C233 1.390 . S
C225 C224 1.387 . S
C225 C227 1.387 . S
H226 C233 0.950 . S
C227 C225 1.387 . S
C227 C229 1.390 . S
C227 H231 0.950 . S
H228 C224 0.950 . S
C229 C227 1.390 . S
C229 C230 1.387 . S
C229 H232 0.950 . S
C230 C229 1.387 . S
C230 C233 1.387 . S
H231 C227 0.950 . S
H232 C229 0.950 . S
C233 C224 1.390 . S
C233 H226 0.950 . S
C233 C230 1.387 . S
C234 C235 1.387 . S
C234 H238 0.950 . S
C234 C243 1.390 . S
C235 C234 1.387 . S
C235 C237 1.387 . S
H236 C243 0.950 . S
C237 C235 1.387 . S
C237 C239 1.390 . S
C237 H241 0.950 . S
H238 C234 0.950 . S
C239 C237 1.390 . S
C239 C240 1.387 . S
C239 H242 0.950 . S
C240 C239 1.387 . S
C240 C243 1.387 . S
H241 C237 0.950 . S
H242 C239 0.950 . S
C243 C234 1.390 . S
C243 H236 0.950 . S
C243 C240 1.387 . S
C244 C245 1.387 . S
C244 H248 0.950 . S
C244 C253 1.390 . S
C245 C244 1.387 . S
C245 C247 1.387 . S
H246 C253 0.950 . S
C247 C245 1.387 . S
C247 C249 1.390 . S
C247 H251 0.950 . S
H248 C244 0.950 . S
C249 C247 1.390 . S
C249 C250 1.387 . S
C249 H252 0.950 . S
C250 C249 1.387 . S
C250 C253 1.387 . S
H251 C247 0.950 . S
H252 C249 0.950 . S
C253 C244 1.390 . S
C253 H246 0.950 . S
C253 C250 1.387 . S
C254 C255 1.387 . S
C254 H258 0.950 . S
C254 C263 1.390 . S
C255 C254 1.387 . S
C255 C257 1.387 . S
H256 C263 0.950 . S
C257 C255 1.387 . S
C257 C259 1.390 . S
C257 H261 0.950 . S
H258 C254 0.950 . S
C259 C257 1.390 . S
C259 C260 1.387 . S
C259 H262 0.950 . S
C260 C259 1.387 . S
C260 C263 1.387 . S
H261 C257 0.950 . S
H262 C259 0.950 . S
C263 C254 1.390 . S
C263 H256 0.950 . S
C263 C260 1.387 . S
C105 C26 1.325 . S
C110 C0 1.325 . S
C115 C39 1.330 . S
C120 C13 1.330 . S
C125 C52 1.325 . S
C130 C78 1.325 . S
C135 C65 1.325 . S
C140 C91 1.325 . S
C145 C23 1.122 . S
C150 C5 1.035 . S
C155 C18 1.036 . S
C160 C36 1.120 . S
C165 C49 1.122 . S
C170 C31 1.031 . S
C175 C44 1.032 . S
C180 C10 1.122 . S
C185 C101 1.121 . S
C190 C57 1.031 . S
C195 C70 1.035 . S
C200 C62 1.120 . S
C205 C83 1.036 . S
C210 C75 1.122 . S
C215 C96 1.032 . S
C220 C88 1.120 . S
C225 C8 1.604 . S
C230 C73 1.604 . S
C235 C86 1.606 . S
C240 C21 1.606 . S
C245 C34 1.603 . S
C250 C99 1.603 . S
C255 C47 1.602 . S
C260 C60 1.602 . S
