# Generated by pormake.
# Topology sma, (6)-cn, num edge types: 1
# Building blocks:
#     Node 0, Type 0, BuildingBlock: BETDEL_clean_sbu_0, # of connection points: 6
#     Node 1, Type 0, BuildingBlock: BETDEL_clean_sbu_0, # of connection points: 6
#     Node 2, Type 0, BuildingBlock: BETDEL_clean_sbu_0, # of connection points: 6
#     Edge 3, Type (0, 0), None
#     Edge 4, Type (0, 0), None
#     Edge 5, Type (0, 0), None
#     Edge 6, Type (0, 0), None
#     Edge 7, Type (0, 0), None
#     Edge 8, Type (0, 0), None
#     Edge 9, Type (0, 0), None
#     Edge 10, Type (0, 0), None
#     Edge 11, Type (0, 0), None
# Relax obj value: 0.080
# Max RMSD: 0.177
# Mean RMSD: 0.177
data_MOF--net-sma--node1-BETDEL_clean_sbu_0--edge1-none
_symmetry_space_group_name_H-M    P1
_symmetry_Int_Tables_number       1
_symmetry_cell_setting            triclinic
loop_
_symmetry_equiv_pos_as_xyz
'x, y, z'
_cell_length_a     15.988703
_cell_length_b     15.991861
_cell_length_c     6.1630391
_cell_angle_alpha  90.003805
_cell_angle_beta   90.007145
_cell_angle_gamma 120.00198
loop_
_atom_site_label
_atom_site_type_symbol
_atom_site_fract_x
_atom_site_fract_y
_atom_site_fract_z
_atom_type_partial_charge
Dy0 Dy 0.13305 0.50727 0.13837 0.0
C1 C 0.83288 0.60656 -0.00066 0.0
C2 C 0.26545 0.46253 -0.02239 0.0
Dy3 Dy 0.97618 0.56664 0.10256 0.0
O4 O 0.25109 0.47071 0.18256 0.0
O5 O 0.20671 0.47819 0.86252 0.0
O6 O 0.16571 0.54857 0.48736 0.0
O7 O 1.02776 0.50725 0.3553 0.0
C8 C 0.08124 0.54043 0.51984 0.0
C9 C 1.04153 0.5333 0.73376 0.0
O10 O 0.09618 0.70246 0.24753 0.0
O11 O 0.21854 0.66938 0.15255 0.0
O12 O 0.91814 0.64836 0.91253 0.0
O13 O 0.83042 0.55083 0.15639 0.0
O14 O 0.9515 0.50277 0.76876 0.0
O15 O 0.09095 0.57654 0.89592 0.0
O16 O 0.99642 0.35834 0.15873 0.0
O17 O 0.88861 0.41367 0.22267 0.0
C18 C 0.18874 0.72824 0.22681 0.0
C19 C 0.90926 0.34273 0.21728 0.0
Dy20 Dy 0.44063 0.95385 0.47154 0.0
C21 C 0.83991 0.25407 0.33259 0.0
C22 C 0.2638 0.82131 0.31012 0.0
Dy23 Dy 0.65697 0.11057 0.4359 0.0
O24 O 0.28581 0.83623 0.51529 0.0
O25 O 0.33839 0.87967 0.19518 0.0
O26 O 0.44923 0.92117 0.82053 0.0
O27 O 0.54598 0.05905 0.68854 0.0
C28 C 0.52563 1.00559 0.85306 0.0
C29 C 0.55827 0.0453 0.06701 0.0
O30 O 0.67275 0.99057 0.58089 0.0
O31 O 0.51717 0.86828 0.48643 0.0
O32 O 0.79695 0.16867 0.24653 0.0
O33 O 0.78655 0.25659 0.48934 0.0
O34 O 0.61787 0.13527 0.10201 0.0
O35 O 0.55204 0.99589 0.22918 0.0
O36 O 0.42845 0.09054 0.49161 0.0
O37 O 0.59159 0.19811 0.5563 0.0
C38 C 0.60586 0.89804 0.56048 0.0
C39 C 0.50004 0.1776 0.55055 0.0
Dy40 Dy 0.5795 0.64613 0.80509 0.0
C41 C 0.4808 0.24702 0.66581 0.0
C42 C 0.62382 0.82295 0.64381 0.0
Dy43 Dy 0.52025 0.42993 0.76925 0.0
O44 O 0.61665 0.80092 0.84895 0.0
O45 O 0.60757 0.74837 0.52881 0.0
O46 O 0.53821 0.63747 0.15405 0.0
O47 O 0.5796 0.54091 0.02199 0.0
C48 C 0.54641 0.56118 0.18653 0.0
C49 C 0.55354 0.52859 0.40046 0.0
O50 O 0.38436 0.41396 0.91422 0.0
O51 O 0.41737 0.56946 0.82018 0.0
O52 O 0.43837 0.28999 0.57974 0.0
O53 O 0.5367 0.30037 0.82258 0.0
O54 O 0.58407 0.46911 0.43543 0.0
O55 O 0.51029 0.53473 0.5626 0.0
O56 O 0.72849 0.65854 0.8252 0.0
O57 O 0.67325 0.49547 0.88957 0.0
C58 C 0.35854 0.48071 0.89396 0.0
C59 C 0.74417 0.58706 0.88387 0.0
loop_
_geom_bond_atom_site_label_1
_geom_bond_atom_site_label_2
_geom_bond_distance
_geom_bond_site_symmetry_2
_ccdc_geom_bond_type
Dy0 O4 2.398 . S
Dy0 O5 2.491 1_554 S
Dy0 O6 2.403 . S
Dy0 O7 2.664 1_455 S
Dy0 O11 2.326 . S
Dy0 O15 2.310 1_554 S
Dy0 O16 2.351 1_455 S
C1 O12 1.185 . S
C1 O13 1.355 . S
C2 O4 1.185 . S
C2 O5 1.355 1_554 S
Dy3 O7 2.310 . S
Dy3 O10 2.351 1_655 S
Dy3 O12 2.398 . S
Dy3 O13 2.491 . S
Dy3 O14 2.403 1_554 S
Dy3 O15 2.664 1_654 S
Dy3 O17 2.326 . S
O4 Dy0 2.398 . S
O4 C2 1.185 . S
O5 Dy0 2.491 1_556 S
O5 C2 1.355 1_556 S
O6 Dy0 2.403 . S
O6 C8 1.254 . S
O7 Dy0 2.664 1_655 S
O7 Dy3 2.310 . S
O7 C8 1.268 1_655 S
C8 O6 1.254 . S
C8 O7 1.268 1_455 S
C9 O14 1.254 . S
C9 O15 1.268 1_655 S
O10 Dy3 2.351 1_455 S
O10 C18 1.249 . S
O11 Dy0 2.326 . S
O11 C18 1.267 . S
O12 C1 1.185 . S
O12 Dy3 2.398 . S
O13 C1 1.355 . S
O13 Dy3 2.491 . S
O14 Dy3 2.403 1_556 S
O14 C9 1.254 . S
O15 Dy0 2.310 1_556 S
O15 Dy3 2.664 1_456 S
O15 C9 1.268 1_455 S
O16 Dy0 2.351 1_655 S
O16 C19 1.249 . S
O17 Dy3 2.326 . S
O17 C19 1.267 . S
C18 O10 1.249 . S
C18 O11 1.267 . S
C19 O16 1.249 . S
C19 O17 1.267 . S
Dy20 O24 2.398 . S
Dy20 O25 2.491 . S
Dy20 O26 2.403 . S
Dy20 O27 2.664 1_565 S
Dy20 O31 2.326 . S
Dy20 O35 2.310 . S
Dy20 O36 2.351 1_565 S
C21 O32 1.185 . S
C21 O33 1.355 . S
C22 O24 1.185 . S
C22 O25 1.355 . S
Dy23 O27 2.310 . S
Dy23 O30 2.351 1_545 S
Dy23 O32 2.398 . S
Dy23 O33 2.491 . S
Dy23 O34 2.403 . S
Dy23 O35 2.664 1_545 S
Dy23 O37 2.326 . S
O24 Dy20 2.398 . S
O24 C22 1.185 . S
O25 Dy20 2.491 . S
O25 C22 1.355 . S
O26 Dy20 2.403 . S
O26 C28 1.257 . S
O27 Dy20 2.664 1_545 S
O27 Dy23 2.310 . S
O27 C28 1.266 1_545 S
C28 O26 1.257 . S
C28 O27 1.266 1_565 S
C29 O34 1.254 . S
C29 O35 1.268 1_545 S
O30 Dy23 2.351 1_565 S
O30 C38 1.249 . S
O31 Dy20 2.326 . S
O31 C38 1.267 . S
O32 C21 1.185 . S
O32 Dy23 2.398 . S
O33 C21 1.355 . S
O33 Dy23 2.491 . S
O34 Dy23 2.403 . S
O34 C29 1.254 . S
O35 Dy20 2.310 . S
O35 Dy23 2.664 1_565 S
O35 C29 1.268 1_565 S
O36 Dy20 2.351 1_545 S
O36 C39 1.249 . S
O37 Dy23 2.326 . S
O37 C39 1.267 . S
C38 O30 1.249 . S
C38 O31 1.267 . S
C39 O36 1.249 . S
C39 O37 1.267 . S
Dy40 O44 2.398 . S
Dy40 O45 2.491 . S
Dy40 O46 2.403 1_556 S
Dy40 O47 2.664 1_556 S
Dy40 O51 2.326 . S
Dy40 O55 2.310 . S
Dy40 O56 2.351 . S
C41 O52 1.185 . S
C41 O53 1.355 1_556 S
C42 O44 1.185 . S
C42 O45 1.355 . S
Dy43 O47 2.310 1_556 S
Dy43 O50 2.351 . S
Dy43 O52 2.398 . S
Dy43 O53 2.491 1_556 S
Dy43 O54 2.403 . S
Dy43 O55 2.664 . S
Dy43 O57 2.326 . S
O44 Dy40 2.398 . S
O44 C42 1.185 . S
O45 Dy40 2.491 . S
O45 C42 1.355 . S
O46 Dy40 2.403 1_554 S
O46 C48 1.254 . S
O47 Dy40 2.664 1_554 S
O47 Dy43 2.310 1_554 S
O47 C48 1.268 . S
C48 O46 1.254 . S
C48 O47 1.268 . S
C49 O54 1.254 . S
C49 O55 1.268 . S
O50 Dy43 2.351 . S
O50 C58 1.249 . S
O51 Dy40 2.326 . S
O51 C58 1.267 . S
O52 C41 1.185 . S
O52 Dy43 2.398 . S
O53 C41 1.355 1_554 S
O53 Dy43 2.491 1_554 S
O54 Dy43 2.403 . S
O54 C49 1.254 . S
O55 Dy40 2.310 . S
O55 Dy43 2.664 . S
O55 C49 1.268 . S
O56 Dy40 2.351 . S
O56 C59 1.249 . S
O57 Dy43 2.326 . S
O57 C59 1.267 . S
C58 O50 1.249 . S
C58 O51 1.267 . S
C59 O56 1.249 . S
C59 O57 1.267 . S
C2 C58 2.165 1_554 S
C21 C19 2.471 . S
C38 C42 2.165 . S
C59 C1 2.471 1_556 S
C22 C18 2.165 . S
C41 C39 2.471 . S
C9 C8 0.745 1_655 S
C29 C28 0.750 1_544 S
C49 C48 0.745 . S
