# Generated by pormake.
# Topology une, (4)-cn, num edge types: 1
# Building blocks:
#     Node 0, Type 0, BuildingBlock: NAHDIM_clean_sbu_0, # of connection points: 4
#     Node 1, Type 0, BuildingBlock: NAHDIM_clean_sbu_0, # of connection points: 4
#     Node 2, Type 0, BuildingBlock: NAHDIM_clean_sbu_0, # of connection points: 4
#     Node 3, Type 0, BuildingBlock: NAHDIM_clean_sbu_0, # of connection points: 4
#     Node 4, Type 0, BuildingBlock: NAHDIM_clean_sbu_0, # of connection points: 4
#     Node 5, Type 0, BuildingBlock: NAHDIM_clean_sbu_0, # of connection points: 4
#     Node 6, Type 0, BuildingBlock: NAHDIM_clean_sbu_0, # of connection points: 4
#     Node 7, Type 0, BuildingBlock: NAHDIM_clean_sbu_0, # of connection points: 4
#     Node 8, Type 0, BuildingBlock: NAHDIM_clean_sbu_0, # of connection points: 4
#     Node 9, Type 0, BuildingBlock: NAHDIM_clean_sbu_0, # of connection points: 4
#     Node 10, Type 0, BuildingBlock: NAHDIM_clean_sbu_0, # of connection points: 4
#     Node 11, Type 0, BuildingBlock: NAHDIM_clean_sbu_0, # of connection points: 4
#     Node 12, Type 0, BuildingBlock: NAHDIM_clean_sbu_0, # of connection points: 4
#     Node 13, Type 0, BuildingBlock: NAHDIM_clean_sbu_0, # of connection points: 4
#     Node 14, Type 0, BuildingBlock: NAHDIM_clean_sbu_0, # of connection points: 4
#     Node 15, Type 0, BuildingBlock: NAHDIM_clean_sbu_0, # of connection points: 4
#     Node 16, Type 0, BuildingBlock: NAHDIM_clean_sbu_0, # of connection points: 4
#     Node 17, Type 0, BuildingBlock: NAHDIM_clean_sbu_0, # of connection points: 4
#     Edge 18, Type (0, 0), None
#     Edge 19, Type (0, 0), None
#     Edge 20, Type (0, 0), None
#     Edge 21, Type (0, 0), None
#     Edge 22, Type (0, 0), None
#     Edge 23, Type (0, 0), None
#     Edge 24, Type (0, 0), None
#     Edge 25, Type (0, 0), None
#     Edge 26, Type (0, 0), None
#     Edge 27, Type (0, 0), None
#     Edge 28, Type (0, 0), None
#     Edge 29, Type (0, 0), None
#     Edge 30, Type (0, 0), None
#     Edge 31, Type (0, 0), None
#     Edge 32, Type (0, 0), None
#     Edge 33, Type (0, 0), None
#     Edge 34, Type (0, 0), None
#     Edge 35, Type (0, 0), None
#     Edge 36, Type (0, 0), None
#     Edge 37, Type (0, 0), None
#     Edge 38, Type (0, 0), None
#     Edge 39, Type (0, 0), None
#     Edge 40, Type (0, 0), None
#     Edge 41, Type (0, 0), None
#     Edge 42, Type (0, 0), None
#     Edge 43, Type (0, 0), None
#     Edge 44, Type (0, 0), None
#     Edge 45, Type (0, 0), None
#     Edge 46, Type (0, 0), None
#     Edge 47, Type (0, 0), None
#     Edge 48, Type (0, 0), None
#     Edge 49, Type (0, 0), None
#     Edge 50, Type (0, 0), None
#     Edge 51, Type (0, 0), None
#     Edge 52, Type (0, 0), None
#     Edge 53, Type (0, 0), None
# Relax obj value: 0.206
# Max RMSD: 0.186
# Mean RMSD: 0.167
data_MOF--net-une--node1-NAHDIM_clean_sbu_0--edge1-none
_symmetry_space_group_name_H-M    P1
_symmetry_Int_Tables_number       1
_symmetry_cell_setting            triclinic
loop_
_symmetry_equiv_pos_as_xyz
'x, y, z'
_cell_length_a     17.551231
_cell_length_b     17.637715
_cell_length_c     25.781614
_cell_angle_alpha  86.72999
_cell_angle_beta   93.22284
_cell_angle_gamma 121.1172
loop_
_atom_site_label
_atom_site_type_symbol
_atom_site_fract_x
_atom_site_fract_y
_atom_site_fract_z
_atom_type_partial_charge
C0 C 0.46762 -0.01816 1.00607 0.0
O1 O 0.40167 0.96535 0.97294 0.0
O2 O 0.36967 0.11867 1.00593 0.0
Zn3 Zn 0.37175 0.03539 0.06191 0.0
O4 O 0.26213 0.91671 0.0539 0.0
C5 C 0.33453 0.12536 0.13783 0.0
O6 O 0.28527 0.13055 0.09919 0.0
O7 O 0.47276 0.01642 0.04916 0.0
C8 C 0.1882 0.88052 0.07625 0.0
O9 O 0.1759 0.92134 0.11297 0.0
C10 C 0.29771 0.10146 0.98173 0.0
O11 O 0.22411 0.02603 0.99127 0.0
O12 O 0.37781 0.0867 0.13173 0.0
C13 C 0.8899 0.20664 0.17331 0.0
O14 O -0.02295 0.2561 0.17235 0.0
O15 O 0.01359 0.27881 0.05595 0.0
Zn16 Zn 0.8996 0.27484 0.06676 0.0
O17 O 0.81303 0.20748 1.00857 0.0
C18 C 0.96284 0.44328 0.0187 0.0
O19 O -0.02199 0.40322 0.98279 0.0
O20 O 0.84325 0.20782 0.13411 0.0
C21 C 0.82891 0.1685 0.97454 0.0
O22 O 0.90626 0.17393 0.97494 0.0
C23 C 0.02839 0.21601 0.06529 0.0
O24 O -0.03207 0.14182 0.08785 0.0
O25 O 0.92713 0.40104 0.06073 0.0
C26 C 0.69116 0.61635 0.16449 0.0
O27 O 0.62972 0.63771 0.16447 0.0
O28 O 0.63311 0.68721 0.0351 0.0
Zn29 Zn 0.63797 0.57783 0.05405 0.0
O30 O 0.71182 0.56689 1.00164 0.0
C31 C 0.46853 0.47026 1.00603 0.0
O32 O 0.50745 0.53122 0.96914 0.0
O33 O 0.70239 0.58684 0.12363 0.0
C34 C 0.78229 0.63798 0.98863 0.0
O35 O 0.79949 0.7133 1.00694 0.0
C36 C 0.68086 0.76439 0.05278 0.0
O37 O 0.74122 0.78002 0.08978 0.0
O38 O 0.51185 0.47415 0.04815 0.0
C39 C 0.67172 0.82973 0.85461 0.0
O40 O 0.7218 0.82544 0.89308 0.0
O41 O 0.5329 0.93183 0.94855 0.0
Zn42 Zn 0.63298 0.91201 0.93277 0.0
O43 O 0.62907 0.82092 0.98406 0.0
C44 C 0.75419 0.09915 0.94545 0.0
O45 O 0.68371 0.10527 0.93407 0.0
O46 O 0.6263 0.86591 0.86136 0.0
C47 C 0.67875 0.83755 0.02472 0.0
O48 O 0.73594 0.91985 0.03687 0.0
C49 C 0.53447 0.9604 0.99316 0.0
O50 O 0.59851 -0.02614 0.02712 0.0
O51 O 0.74913 0.02491 0.94364 0.0
C52 C 0.18085 0.81724 0.8863 0.0
O53 O 0.2307 0.82283 0.92748 0.0
O54 O 0.01755 0.57602 0.96658 0.0
Zn55 Zn 0.04222 0.70119 0.95628 0.0
O56 O 0.12856 0.77553 0.01171 0.0
C57 C 0.85302 0.63456 0.96383 0.0
O58 O 0.84049 0.55876 0.94914 0.0
O59 O 0.09686 0.7642 0.88742 0.0
C60 C 0.1131 0.80377 0.05167 0.0
O61 O 0.03099 0.77772 0.06314 0.0
C62 C -0.01396 0.53556 0.00975 0.0
O63 O -0.02805 0.57615 0.04584 0.0
O64 O 0.93097 0.70208 0.96627 0.0
C65 C 0.08057 0.2945 0.87813 0.0
O66 O 0.06521 0.3217 0.92046 0.0
O67 O 0.33538 0.38986 0.95441 0.0
Zn68 Zn 0.21171 0.28198 0.94625 0.0
O69 O 0.1402 0.28108 1.00413 0.0
C70 C 0.29234 0.17369 0.95494 0.0
O71 O 0.36559 0.24702 0.9417 0.0
O72 O 0.14332 0.27796 0.87845 0.0
C73 C 0.09994 0.21854 0.03754 0.0
O74 O 0.10847 0.14879 0.03839 0.0
C75 C 0.3764 0.39748 0.998 0.0
O76 O 0.33703 0.33731 0.03522 0.0
O77 O 0.21954 0.17259 0.95577 0.0
C78 C 0.13439 0.31526 0.33941 0.0
O79 O 0.06843 0.29877 0.30629 0.0
O80 O 0.03642 0.45206 0.33927 0.0
Zn81 Zn 0.03852 0.36879 0.39525 0.0
O82 O 0.92891 0.2501 0.38725 0.0
C83 C 0.00124 0.45872 0.47117 0.0
O84 O 0.95196 0.46387 0.43253 0.0
O85 O 0.13953 0.34984 0.3825 0.0
C86 C 0.85499 0.21388 0.40961 0.0
O87 O 0.84271 0.25467 0.44636 0.0
C88 C 0.96446 0.43484 0.31507 0.0
O89 O 0.89086 0.3594 0.32462 0.0
O90 O 0.04456 0.4201 0.46507 0.0
C91 C 0.55655 0.53991 0.50662 0.0
O92 O 0.64371 0.58934 0.50569 0.0
O93 O 0.68031 0.61215 0.38929 0.0
Zn94 Zn 0.56632 0.60819 0.40009 0.0
O95 O 0.47976 0.54085 0.34189 0.0
C96 C 0.62958 0.77664 0.35205 0.0
O97 O 0.64476 0.73659 0.31614 0.0
O98 O 0.50994 0.54114 0.46743 0.0
C99 C 0.49565 0.50188 0.30785 0.0
O100 O 0.57301 0.50731 0.30826 0.0
C101 C 0.69509 0.54934 0.39861 0.0
O102 O 0.63461 0.47513 0.42115 0.0
O103 O 0.59386 0.73439 0.39407 0.0
C104 C 0.35781 0.94969 0.49782 0.0
O105 O 0.29635 0.97103 0.49779 0.0
O106 O 0.29983 0.02059 0.36841 0.0
Zn107 Zn 0.30467 0.9112 0.38736 0.0
O108 O 0.37855 0.90027 0.33497 0.0
C109 C 0.13523 0.80363 0.33934 0.0
O110 O 0.17415 0.86459 0.30245 0.0
O111 O 0.36907 0.92021 0.45696 0.0
C112 C 0.44906 0.97137 0.32202 0.0
O113 O 0.46628 0.04666 0.34038 0.0
C114 C 0.34756 0.09777 0.38611 0.0
O115 O 0.40789 0.11338 0.42313 0.0
O116 O 0.17856 0.80753 0.38147 0.0
C117 C 0.33843 0.16312 0.18793 0.0
O118 O 0.38852 0.15883 0.2264 0.0
O119 O 0.19965 0.26524 0.28188 0.0
Zn120 Zn 0.29971 0.2454 0.26609 0.0
O121 O 0.2958 0.15431 0.31738 0.0
C122 C 0.42094 0.43254 0.27875 0.0
O123 O 0.35046 0.43867 0.26737 0.0
O124 O 0.29301 0.19929 0.19468 0.0
C125 C 0.34546 0.17092 0.35805 0.0
O126 O 0.40264 0.25323 0.3702 0.0
C127 C 0.20123 0.29382 0.32649 0.0
O128 O 0.26529 0.30729 0.36044 0.0
O129 O 0.41587 0.3583 0.27696 0.0
C130 C 0.84758 0.15063 0.21965 0.0
O131 O 0.89745 0.15624 0.26082 0.0
O132 O 0.68431 0.90939 0.29994 0.0
Zn133 Zn 0.70899 0.03456 0.28964 0.0
O134 O 0.79535 0.10891 0.34507 0.0
C135 C 0.51979 0.96795 0.29721 0.0
O136 O 0.50725 0.89217 0.28249 0.0
O137 O 0.76359 0.09756 0.22078 0.0
C138 C 0.77989 0.13713 0.38504 0.0
O139 O 0.69779 0.11105 0.39653 0.0
C140 C 0.65279 0.86892 0.3431 0.0
O141 O 0.63869 0.9095 0.37919 0.0
O142 O 0.59774 0.03546 0.29967 0.0
C143 C 0.74727 0.62784 0.21147 0.0
O144 O 0.73194 0.65507 0.2538 0.0
O145 O 0.00208 0.72321 0.28772 0.0
Zn146 Zn 0.87842 0.61532 0.27958 0.0
O147 O 0.80691 0.61441 0.33746 0.0
C148 C 0.95907 0.50706 0.28827 0.0
O149 O 0.03232 0.58039 0.27503 0.0
O150 O 0.81001 0.61129 0.21178 0.0
C151 C 0.76664 0.55186 0.37086 0.0
O152 O 0.77515 0.48211 0.3717 0.0
C153 C 0.0431 0.73085 0.33132 0.0
O154 O 0.00374 0.67068 0.36854 0.0
O155 O 0.88627 0.50594 0.2891 0.0
C156 C 0.80094 0.6485 0.67274 0.0
O157 O 0.73499 0.63201 0.63961 0.0
O158 O 0.703 0.78533 0.67261 0.0
Zn159 Zn 0.70506 0.70204 0.72858 0.0
O160 O 0.59544 0.58336 0.72056 0.0
C161 C 0.66783 0.79199 0.8045 0.0
O162 O 0.61858 0.79718 0.76586 0.0
O163 O 0.80607 0.68307 0.71582 0.0
C164 C 0.52151 0.54717 0.7429 0.0
O165 O 0.5092 0.58799 0.77963 0.0
C166 C 0.63104 0.76813 0.6484 0.0
O167 O 0.55743 0.6927 0.65794 0.0
O168 O 0.71112 0.75334 0.7984 0.0
C169 C 0.22319 0.87327 0.83997 0.0
O170 O 0.31034 0.92271 0.83902 0.0
O171 O 0.34691 0.94548 0.72262 0.0
Zn172 Zn 0.23293 0.94152 0.73342 0.0
O173 O 0.14635 0.87417 0.67524 0.0
C174 C 0.29617 0.10995 0.68536 0.0
O175 O 0.31133 0.06988 0.64946 0.0
O176 O 0.17656 0.87448 0.80077 0.0
C177 C 0.16224 0.83519 0.64119 0.0
O178 O 0.23959 0.84062 0.6416 0.0
C179 C 0.36171 0.88267 0.73195 0.0
O180 O 0.30123 0.80847 0.7545 0.0
O181 O 0.26046 0.06772 0.72739 0.0
C182 C 0.02447 0.28302 0.83115 0.0
O183 O 0.96303 0.30437 0.83113 0.0
O184 O -0.03355 0.3539 0.70175 0.0
Zn185 Zn -0.02869 0.24451 0.7207 0.0
O186 O 0.04516 0.23356 0.6683 0.0
C187 C 0.80186 0.13694 0.67269 0.0
O188 O 0.84079 0.1979 0.6358 0.0
O189 O 0.03572 0.25352 0.79029 0.0
C190 C 0.11562 0.30465 0.65527 0.0
O191 O 0.1328 0.37998 0.67356 0.0
C192 C 0.0142 0.43108 0.71944 0.0
O193 O 0.07457 0.4467 0.75644 0.0
O194 O 0.84519 0.14084 0.71482 0.0
C195 C 0.00512 0.49647 0.52127 0.0
O196 O 0.05522 0.49221 0.55975 0.0
O197 O 0.86624 0.5985 0.61521 0.0
Zn198 Zn -0.03368 0.57869 0.59943 0.0
O199 O 0.96242 0.4876 0.65072 0.0
C200 C 0.08752 0.76583 0.61211 0.0
O201 O 0.01704 0.77195 0.60073 0.0
O202 O 0.95966 0.5326 0.52803 0.0
C203 C 0.0121 0.50423 0.69138 0.0
O204 O 0.06929 0.58654 0.70353 0.0
C205 C 0.86779 0.62706 0.65983 0.0
O206 O 0.93184 0.64053 0.69378 0.0
O207 O 0.08247 0.6916 0.6103 0.0
C208 C 0.5142 0.48388 0.55295 0.0
O209 O 0.56403 0.48944 0.59413 0.0
O210 O 0.35088 0.24268 0.63324 0.0
Zn211 Zn 0.37555 0.36785 0.62292 0.0
O212 O 0.46188 0.44219 0.67836 0.0
C213 C 0.18635 0.30122 0.63048 0.0
O214 O 0.17382 0.22542 0.61581 0.0
O215 O 0.4302 0.43085 0.55407 0.0
C216 C 0.44641 0.47043 0.71832 0.0
O217 O 0.3643 0.44438 0.72979 0.0
C218 C 0.31937 0.20223 0.67641 0.0
O219 O 0.30528 0.24282 0.71249 0.0
O220 O 0.26429 0.36875 0.63291 0.0
C221 C 0.4139 0.96117 0.5448 0.0
O222 O 0.39854 -0.01164 0.58713 0.0
O223 O 0.66871 0.05654 0.62107 0.0
Zn224 Zn 0.54504 0.94866 0.61292 0.0
O225 O 0.47353 0.94775 0.6708 0.0
C226 C 0.62568 0.84037 0.62162 0.0
O227 O 0.69893 0.91369 0.60838 0.0
O228 O 0.47666 0.94464 0.54512 0.0
C229 C 0.43326 0.8852 0.7042 0.0
O230 O 0.44177 0.81545 0.70504 0.0
C231 C 0.70973 0.06417 0.66467 0.0
O232 O 0.67037 0.004 0.70189 0.0
O233 O 0.55288 0.83927 0.62244 0.0
loop_
_geom_bond_atom_site_label_1
_geom_bond_atom_site_label_2
_geom_bond_distance
_geom_bond_site_symmetry_2
_ccdc_geom_bond_type
C0 O1 1.160 1_554 S
C0 O7 1.185 . S
O1 C0 1.160 1_556 S
O2 Zn3 1.899 . S
O2 C10 1.284 1_554 S
Zn3 O2 1.899 . S
Zn3 O4 2.032 1_545 S
Zn3 O7 2.086 . S
Zn3 O12 1.977 . S
O4 Zn3 2.032 1_565 S
O4 C8 1.278 . S
C5 O6 1.203 . S
C5 O12 1.267 . S
O6 C5 1.203 . S
O7 C0 1.185 . S
O7 Zn3 2.086 . S
C8 O4 1.278 . S
C8 O9 1.211 . S
O9 C8 1.211 . S
C10 O2 1.284 1_556 S
C10 O11 1.273 . S
O11 C10 1.273 . S
O12 Zn3 1.977 . S
O12 C5 1.267 . S
C13 O14 1.160 . S
C13 O20 1.185 . S
O14 C13 1.160 . S
O15 Zn16 1.899 1_455 S
O15 C23 1.284 . S
Zn16 O15 1.899 1_655 S
Zn16 O17 2.032 . S
Zn16 O20 2.086 . S
Zn16 O25 1.977 . S
O17 Zn16 2.032 . S
O17 C21 1.278 1_554 S
C18 O19 1.213 1_554 S
C18 O25 1.264 1_455 S
O19 C18 1.213 1_556 S
O20 C13 1.185 . S
O20 Zn16 2.086 . S
C21 O17 1.278 1_556 S
C21 O22 1.211 . S
O22 C21 1.211 . S
C23 O15 1.284 . S
C23 O24 1.273 1_554 S
O24 C23 1.273 1_556 S
O25 Zn16 1.977 . S
O25 C18 1.264 1_655 S
C26 O27 1.160 . S
C26 O33 1.185 . S
O27 C26 1.160 . S
O28 Zn29 1.899 . S
O28 C36 1.284 . S
Zn29 O28 1.899 . S
Zn29 O30 2.032 . S
Zn29 O33 2.086 . S
Zn29 O38 1.977 . S
O30 Zn29 2.032 . S
O30 C34 1.278 1_554 S
C31 O32 1.203 1_554 S
C31 O38 1.267 . S
O32 C31 1.203 1_556 S
O33 C26 1.185 . S
O33 Zn29 2.086 . S
C34 O30 1.278 1_556 S
C34 O35 1.211 . S
O35 C34 1.211 . S
C36 O28 1.284 . S
C36 O37 1.273 1_554 S
O37 C36 1.273 1_556 S
O38 Zn29 1.977 . S
O38 C31 1.267 . S
C39 O40 1.160 . S
C39 O46 1.185 . S
O40 C39 1.160 . S
O41 Zn42 1.899 . S
O41 C49 1.284 . S
Zn42 O41 1.899 . S
Zn42 O43 2.032 . S
Zn42 O46 2.086 . S
Zn42 O51 1.977 1_565 S
O43 Zn42 2.032 . S
O43 C47 1.278 1_556 S
C44 O45 1.203 1_556 S
C44 O51 1.267 . S
O45 C44 1.203 1_554 S
O46 C39 1.185 . S
O46 Zn42 2.086 . S
C47 O43 1.278 1_554 S
C47 O48 1.211 . S
O48 C47 1.211 . S
C49 O41 1.284 . S
C49 O50 1.273 1_556 S
O50 C49 1.273 1_554 S
O51 Zn42 1.977 1_545 S
O51 C44 1.267 . S
C52 O53 1.160 . S
C52 O59 1.185 . S
O53 C52 1.160 . S
O54 Zn55 1.899 . S
O54 C62 1.284 . S
Zn55 O54 1.899 . S
Zn55 O56 2.032 . S
Zn55 O59 2.086 . S
Zn55 O64 1.977 1_455 S
O56 Zn55 2.032 . S
O56 C60 1.278 1_556 S
C57 O58 1.203 1_556 S
C57 O64 1.267 . S
O58 C57 1.203 1_554 S
O59 C52 1.185 . S
O59 Zn55 2.086 . S
C60 O56 1.278 1_554 S
C60 O61 1.211 . S
O61 C60 1.211 . S
C62 O54 1.284 . S
C62 O63 1.273 1_556 S
O63 C62 1.273 1_554 S
O64 Zn55 1.977 1_655 S
O64 C57 1.267 . S
C65 O66 1.160 . S
C65 O72 1.185 . S
O66 C65 1.160 . S
O67 Zn68 1.899 . S
O67 C75 1.284 . S
Zn68 O67 1.899 . S
Zn68 O69 2.032 . S
Zn68 O72 2.086 . S
Zn68 O77 1.977 . S
O69 Zn68 2.032 . S
O69 C73 1.278 1_556 S
C70 O71 1.203 1_556 S
C70 O77 1.267 . S
O71 C70 1.203 1_554 S
O72 C65 1.185 . S
O72 Zn68 2.086 . S
C73 O69 1.278 1_554 S
C73 O74 1.211 . S
O74 C73 1.211 . S
C75 O67 1.284 . S
C75 O76 1.273 1_556 S
O76 C75 1.273 1_554 S
O77 Zn68 1.977 . S
O77 C70 1.267 . S
C78 O79 1.160 . S
C78 O85 1.185 . S
O79 C78 1.160 . S
O80 Zn81 1.899 . S
O80 C88 1.284 1_455 S
Zn81 O80 1.899 . S
Zn81 O82 2.032 1_455 S
Zn81 O85 2.086 . S
Zn81 O90 1.977 . S
O82 Zn81 2.032 1_655 S
O82 C86 1.278 . S
C83 O84 1.203 . S
C83 O90 1.267 1_655 S
O84 C83 1.203 . S
O85 C78 1.185 . S
O85 Zn81 2.086 . S
C86 O82 1.278 . S
C86 O87 1.211 . S
O87 C86 1.211 . S
C88 O80 1.284 1_655 S
C88 O89 1.273 . S
O89 C88 1.273 . S
O90 Zn81 1.977 . S
O90 C83 1.267 1_455 S
C91 O92 1.160 . S
C91 O98 1.185 . S
O92 C91 1.160 . S
O93 Zn94 1.899 . S
O93 C101 1.284 . S
Zn94 O93 1.899 . S
Zn94 O95 2.032 . S
Zn94 O98 2.086 . S
Zn94 O103 1.977 . S
O95 Zn94 2.032 . S
O95 C99 1.278 . S
C96 O97 1.203 . S
C96 O103 1.267 . S
O97 C96 1.203 . S
O98 C91 1.185 . S
O98 Zn94 2.086 . S
C99 O95 1.278 . S
C99 O100 1.211 . S
O100 C99 1.211 . S
C101 O93 1.284 . S
C101 O102 1.273 . S
O102 C101 1.273 . S
O103 Zn94 1.977 . S
O103 C96 1.267 . S
C104 O105 1.160 . S
C104 O111 1.185 1_545 S
O105 C104 1.160 . S
O106 Zn107 1.899 1_545 S
O106 C114 1.284 . S
Zn107 O106 1.899 1_565 S
Zn107 O108 2.032 1_565 S
Zn107 O111 2.086 . S
Zn107 O116 1.977 . S
O108 Zn107 2.032 1_545 S
O108 C112 1.278 1_545 S
C109 O110 1.203 . S
C109 O116 1.267 . S
O110 C109 1.203 . S
O111 C104 1.185 1_565 S
O111 Zn107 2.086 . S
C112 O108 1.278 1_565 S
C112 O113 1.211 . S
O113 C112 1.211 . S
C114 O106 1.284 . S
C114 O115 1.273 . S
O115 C114 1.273 . S
O116 Zn107 1.977 . S
O116 C109 1.267 . S
C117 O118 1.160 . S
C117 O124 1.185 . S
O118 C117 1.160 . S
O119 Zn120 1.899 . S
O119 C127 1.284 . S
Zn120 O119 1.899 . S
Zn120 O121 2.032 . S
Zn120 O124 2.086 . S
Zn120 O129 1.977 . S
O121 Zn120 2.032 . S
O121 C125 1.278 . S
C122 O123 1.203 . S
C122 O129 1.267 . S
O123 C122 1.203 . S
O124 C117 1.185 . S
O124 Zn120 2.086 . S
C125 O121 1.278 . S
C125 O126 1.211 . S
O126 C125 1.211 . S
C127 O119 1.284 . S
C127 O128 1.273 . S
O128 C127 1.273 . S
O129 Zn120 1.977 . S
O129 C122 1.267 . S
C130 O131 1.160 . S
C130 O137 1.185 . S
O131 C130 1.160 . S
O132 Zn133 1.899 1_565 S
O132 C140 1.284 . S
Zn133 O132 1.899 1_545 S
Zn133 O134 2.032 . S
Zn133 O137 2.086 . S
Zn133 O142 1.977 . S
O134 Zn133 2.032 . S
O134 C138 1.278 . S
C135 O136 1.197 1_545 S
C135 O142 1.268 . S
O136 C135 1.197 1_565 S
O137 C130 1.185 . S
O137 Zn133 2.086 . S
C138 O134 1.278 . S
C138 O139 1.211 . S
O139 C138 1.211 . S
C140 O132 1.284 . S
C140 O141 1.273 . S
O141 C140 1.273 . S
O142 Zn133 1.977 . S
O142 C135 1.268 . S
C143 O144 1.160 . S
C143 O150 1.185 . S
O144 C143 1.160 . S
O145 Zn146 1.899 1_455 S
O145 C153 1.284 . S
Zn146 O145 1.899 1_655 S
Zn146 O147 2.032 . S
Zn146 O150 2.086 . S
Zn146 O155 1.977 . S
O147 Zn146 2.032 . S
O147 C151 1.278 . S
C148 O149 1.203 1_655 S
C148 O155 1.267 . S
O149 C148 1.203 1_455 S
O150 C143 1.185 . S
O150 Zn146 2.086 . S
C151 O147 1.278 . S
C151 O152 1.211 . S
O152 C151 1.211 . S
C153 O145 1.284 . S
C153 O154 1.273 . S
O154 C153 1.273 . S
O155 Zn146 1.977 . S
O155 C148 1.267 . S
C156 O157 1.160 . S
C156 O163 1.185 . S
O157 C156 1.160 . S
O158 Zn159 1.899 . S
O158 C166 1.284 . S
Zn159 O158 1.899 . S
Zn159 O160 2.032 . S
Zn159 O163 2.086 . S
Zn159 O168 1.977 . S
O160 Zn159 2.032 . S
O160 C164 1.278 . S
C161 O162 1.203 . S
C161 O168 1.267 . S
O162 C161 1.203 . S
O163 C156 1.185 . S
O163 Zn159 2.086 . S
C164 O160 1.278 . S
C164 O165 1.211 . S
O165 C164 1.211 . S
C166 O158 1.284 . S
C166 O167 1.273 . S
O167 C166 1.273 . S
O168 Zn159 1.977 . S
O168 C161 1.267 . S
C169 O170 1.160 . S
C169 O176 1.185 . S
O170 C169 1.160 . S
O171 Zn172 1.899 . S
O171 C179 1.284 . S
Zn172 O171 1.899 . S
Zn172 O173 2.032 . S
Zn172 O176 2.086 . S
Zn172 O181 1.977 1_565 S
O173 Zn172 2.032 . S
O173 C177 1.278 . S
C174 O175 1.203 . S
C174 O181 1.267 . S
O175 C174 1.203 . S
O176 C169 1.185 . S
O176 Zn172 2.086 . S
C177 O173 1.278 . S
C177 O178 1.211 . S
O178 C177 1.211 . S
C179 O171 1.284 . S
C179 O180 1.273 . S
O180 C179 1.273 . S
O181 Zn172 1.977 1_545 S
O181 C174 1.267 . S
C182 O183 1.160 . S
C182 O189 1.185 . S
O183 C182 1.160 . S
O184 Zn185 1.899 . S
O184 C192 1.284 . S
Zn185 O184 1.899 . S
Zn185 O186 2.032 . S
Zn185 O189 2.086 . S
Zn185 O194 1.977 1_455 S
O186 Zn185 2.032 . S
O186 C190 1.278 . S
C187 O188 1.203 . S
C187 O194 1.267 . S
O188 C187 1.203 . S
O189 C182 1.185 . S
O189 Zn185 2.086 . S
C190 O186 1.278 . S
C190 O191 1.211 . S
O191 C190 1.211 . S
C192 O184 1.284 . S
C192 O193 1.273 . S
O193 C192 1.273 . S
O194 Zn185 1.977 1_655 S
O194 C187 1.267 . S
C195 O196 1.160 . S
C195 O202 1.185 1_655 S
O196 C195 1.160 . S
O197 Zn198 1.899 1_655 S
O197 C205 1.284 . S
Zn198 O197 1.899 1_455 S
Zn198 O199 2.032 1_455 S
Zn198 O202 2.086 . S
Zn198 O207 1.977 . S
O199 Zn198 2.032 1_655 S
O199 C203 1.278 1_655 S
C200 O201 1.203 . S
C200 O207 1.267 . S
O201 C200 1.203 . S
O202 C195 1.185 1_455 S
O202 Zn198 2.086 . S
C203 O199 1.278 1_455 S
C203 O204 1.211 . S
O204 C203 1.211 . S
C205 O197 1.284 . S
C205 O206 1.273 . S
O206 C205 1.273 . S
O207 Zn198 1.977 . S
O207 C200 1.267 . S
C208 O209 1.160 . S
C208 O215 1.185 . S
O209 C208 1.160 . S
O210 Zn211 1.899 . S
O210 C218 1.284 . S
Zn211 O210 1.899 . S
Zn211 O212 2.032 . S
Zn211 O215 2.086 . S
Zn211 O220 1.977 . S
O212 Zn211 2.032 . S
O212 C216 1.278 . S
C213 O214 1.203 . S
C213 O220 1.267 . S
O214 C213 1.203 . S
O215 C208 1.185 . S
O215 Zn211 2.086 . S
C216 O212 1.278 . S
C216 O217 1.211 . S
O217 C216 1.211 . S
C218 O210 1.284 . S
C218 O219 1.273 . S
O219 C218 1.273 . S
O220 Zn211 1.977 . S
O220 C213 1.267 . S
C221 O222 1.160 . S
C221 O228 1.185 1_545 S
O222 C221 1.160 . S
O223 Zn224 1.899 1_545 S
O223 C231 1.284 . S
Zn224 O223 1.899 1_565 S
Zn224 O225 2.032 1_565 S
Zn224 O228 2.086 . S
Zn224 O233 1.977 . S
O225 Zn224 2.032 1_545 S
O225 C229 1.278 1_545 S
C226 O227 1.203 . S
C226 O233 1.267 . S
O227 C226 1.203 . S
O228 C221 1.185 1_565 S
O228 Zn224 2.086 . S
C229 O225 1.278 1_565 S
C229 O230 1.211 . S
O230 C229 1.211 . S
C231 O223 1.284 . S
C231 O232 1.273 . S
O232 C231 1.273 . S
O233 Zn224 1.977 . S
O233 C226 1.267 . S
C0 C49 1.725 1_544 S
C18 C62 1.579 1_554 S
C75 C31 1.559 1_556 S
C78 C127 1.732 . S
C96 C140 1.577 . S
C153 C109 1.544 . S
C205 C156 1.732 . S
C218 C174 1.577 . S
C231 C187 1.544 . S
C5 C117 2.275 . S
C13 C130 2.661 . S
C143 C26 2.598 . S
C39 C161 2.270 . S
C52 C169 2.658 . S
C65 C182 2.598 . S
C83 C195 2.279 . S
C91 C208 2.704 . S
C221 C104 2.546 . S
C8 C60 0.887 . S
C23 C73 0.636 . S
C36 C47 0.665 . S
C44 C21 0.689 . S
C34 C57 0.703 . S
C70 C10 0.724 . S
C86 C138 0.896 . S
C151 C101 0.650 . S
C125 C114 0.662 . S
C99 C122 0.681 . S
C135 C112 0.729 1_545 S
C148 C88 0.694 . S
C216 C164 0.888 . S
C229 C179 0.652 . S
C192 C203 0.667 . S
C177 C200 0.725 . S
C190 C213 0.698 . S
C166 C226 0.754 . S
