# Generated by pormake.
# Topology unc, (4)-cn, num edge types: 1
# Building blocks:
#     Node 0, Type 0, BuildingBlock: GALJAG_clean_sbu_0, # of connection points: 4
#     Node 1, Type 0, BuildingBlock: GALJAG_clean_sbu_0, # of connection points: 4
#     Node 2, Type 0, BuildingBlock: GALJAG_clean_sbu_0, # of connection points: 4
#     Node 3, Type 0, BuildingBlock: GALJAG_clean_sbu_0, # of connection points: 4
#     Edge 4, Type (0, 0), BuildingBlock: OJICUG_clean_linker_0, # of connection points: 2
#     Edge 5, Type (0, 0), BuildingBlock: OJICUG_clean_linker_0, # of connection points: 2
#     Edge 6, Type (0, 0), BuildingBlock: OJICUG_clean_linker_0, # of connection points: 2
#     Edge 7, Type (0, 0), BuildingBlock: OJICUG_clean_linker_0, # of connection points: 2
#     Edge 8, Type (0, 0), BuildingBlock: OJICUG_clean_linker_0, # of connection points: 2
#     Edge 9, Type (0, 0), BuildingBlock: OJICUG_clean_linker_0, # of connection points: 2
#     Edge 10, Type (0, 0), BuildingBlock: OJICUG_clean_linker_0, # of connection points: 2
#     Edge 11, Type (0, 0), BuildingBlock: OJICUG_clean_linker_0, # of connection points: 2
# Relax obj value: 0.013
# Max RMSD: 0.034
# Mean RMSD: 0.034
data_MOF--net-unc--node1-GALJAG_clean_sbu_0--edge1-OJICUG_clean_linker_0
_symmetry_space_group_name_H-M    P1
_symmetry_Int_Tables_number       1
_symmetry_cell_setting            triclinic
loop_
_symmetry_equiv_pos_as_xyz
'x, y, z'
_cell_length_a     22.952439
_cell_length_b     22.938985
_cell_length_c     15.225449
_cell_angle_alpha  90.023828
_cell_angle_beta   89.98756
_cell_angle_gamma 89.996632
loop_
_atom_site_label
_atom_site_type_symbol
_atom_site_fract_x
_atom_site_fract_y
_atom_site_fract_z
_atom_type_partial_charge
In0 In 1.00342 0.6805 -0.01499 0.0
O1 O 0.08591 0.7354 0.96599 0.0
O2 O 0.04324 0.7383 0.09008 0.0
C3 C 0.00953 0.59934 0.85815 0.0
C4 C 0.9218 0.75568 0.92671 0.0
C5 C 0.99729 0.59935 0.1118 0.0
O6 O 0.05408 0.62784 0.88187 0.0
O7 O 0.96286 0.61332 0.89647 0.0
O8 O 0.95276 0.62789 0.08815 0.0
O9 O 0.04397 0.6133 0.07346 0.0
C10 C 0.08509 0.75568 0.04326 0.0
O11 O 0.92096 0.73547 0.00401 0.0
O12 O 0.96365 0.73824 0.87992 0.0
In13 In 0.32694 0.00382 0.23475 0.0
O14 O 0.27231 0.9211 0.25334 0.0
O15 O 0.2688 0.9644 0.1298 0.0
C16 C 0.4081 0.99773 0.36147 0.0
C17 C 0.25178 0.08542 0.29337 0.0
C18 C 0.40794 0.00985 0.10774 0.0
O19 O 0.37956 0.95317 0.33784 0.0
O20 O 0.39414 0.04442 0.32317 0.0
O21 O 0.37952 0.05446 0.13158 0.0
O22 O 0.39393 0.96316 0.14599 0.0
C23 C 0.25172 0.92226 0.17629 0.0
O24 O 0.27231 0.08655 0.21627 0.0
O25 O 0.26891 0.04329 0.33985 0.0
In26 In 1.0034 0.32713 0.4848 0.0
O27 O 0.08589 0.27222 0.50383 0.0
O28 O 0.04327 0.26935 0.37973 0.0
C29 C 0.00951 0.4083 0.61164 0.0
C30 C 0.92176 0.25192 0.54302 0.0
C31 C 0.99727 0.40827 0.35801 0.0
O32 O 0.05404 0.37975 0.58796 0.0
O33 O 0.96284 0.39436 0.5733 0.0
O34 O 0.95273 0.37977 0.38174 0.0
O35 O 0.04395 0.39428 0.39626 0.0
C36 C 0.08511 0.25197 0.42655 0.0
O37 O 0.92101 0.27208 0.4657 0.0
O38 O 0.96353 0.26943 0.58989 0.0
In39 In 0.6801 1.00369 0.73464 0.0
O40 O 0.73472 0.92094 0.71625 0.0
O41 O 0.73815 0.96437 0.83975 0.0
C42 C 0.59911 0.99765 0.60765 0.0
C43 C 0.75529 0.08524 0.67611 0.0
C44 C 0.59893 0.00977 0.86141 0.0
O45 O 0.62752 0.95305 0.63143 0.0
O46 O 0.61311 0.04435 0.64595 0.0
O47 O 0.62747 0.05434 0.83782 0.0
O48 O 0.61288 0.96309 0.82302 0.0
C49 C 0.75525 0.92217 0.79334 0.0
O50 O 0.7346 0.08651 0.75311 0.0
O51 O 0.73833 0.04299 0.6297 0.0
C52 C 0.94283 0.52759 0.20596 0.0
C53 C 0.99573 0.55137 0.17628 0.0
H54 H 0.90161 0.46254 0.28634 0.0
C55 C 0.04837 0.52717 0.20578 0.0
H56 H 0.90162 0.54522 0.18371 0.0
C57 C 0.04837 0.48036 0.26387 0.0
C58 C 0.99572 0.45624 0.29351 0.0
H59 H 0.08987 0.54442 0.18397 0.0
H60 H 0.08986 0.46305 0.28556 0.0
C61 C 0.94282 0.4801 0.26398 0.0
C62 C 0.47978 0.94323 0.45565 0.0
C63 C 0.45608 0.99617 0.4259 0.0
H64 H 0.54473 0.90196 0.53608 0.0
C65 C 0.48037 0.04883 0.45529 0.0
H66 H 0.46208 0.902 0.43349 0.0
C67 C 0.52717 0.04881 0.51338 0.0
C68 C 0.55119 0.99612 0.5431 0.0
H69 H 0.4632 0.09036 0.43342 0.0
H70 H 0.54455 0.09031 0.535 0.0
C71 C 0.52725 0.9432 0.51365 0.0
C72 C 0.95843 0.52728 0.76391 0.0
C73 C 0.01108 0.55138 0.79358 0.0
H74 H 0.91693 0.46325 0.6839 0.0
C75 C 0.06398 0.5275 0.764 0.0
H76 H 0.91694 0.5446 0.78564 0.0
C77 C 0.06397 0.48003 0.7059 0.0
C78 C 0.01106 0.45627 0.67619 0.0
H79 H 0.10519 0.54505 0.78638 0.0
H80 H 0.10518 0.46239 0.68362 0.0
C81 C 0.95843 0.48048 0.70573 0.0
C82 C 0.47989 0.95869 0.01338 0.0
C83 C 0.45586 0.01138 0.04317 0.0
H84 H 0.54387 0.91715 0.93335 0.0
C85 C 0.47978 0.0643 0.01373 0.0
H86 H 0.46253 0.91719 0.035 0.0
C87 C 0.52724 0.06427 0.95569 0.0
C88 C 0.55095 0.01133 0.92588 0.0
H89 H 0.46227 0.10554 0.0362 0.0
H90 H 0.54492 0.1055 0.93353 0.0
C91 C 0.52668 0.95867 0.95526 0.0
C92 C 0.1778 0.84369 0.20044 0.0
C93 C 0.21052 0.8782 0.1425 0.0
H94 H 0.1117 0.77835 0.21412 0.0
C95 C 0.20274 0.87115 0.0515 0.0
H96 H 0.18285 0.84833 0.27083 0.0
C97 C 0.1629 0.83037 0.019 0.0
C98 C 0.12919 0.79686 0.07696 0.0
H99 H 0.22761 0.89709 0.00534 0.0
H100 H 0.15762 0.82594 0.94862 0.0
C101 C 0.13702 0.80385 0.16795 0.0
C102 C 0.17784 0.16398 0.2693 0.0
C103 C 0.21058 0.12949 0.32721 0.0
H104 H 0.11172 0.2293 0.25568 0.0
C105 C 0.20282 0.13653 0.41822 0.0
H106 H 0.18289 0.15934 0.19891 0.0
C107 C 0.16296 0.17731 0.45076 0.0
C108 C 0.12923 0.2108 0.39282 0.0
H109 H 0.2277 0.1106 0.46436 0.0
H110 H 0.15769 0.18174 0.52115 0.0
C111 C 0.13705 0.20381 0.30183 0.0
C112 C 0.80442 0.13614 0.55129 0.0
C113 C 0.79646 0.12931 0.64229 0.0
H114 H 0.84963 0.18122 0.44838 0.0
C115 C 0.82895 0.16407 0.7002 0.0
H116 H 0.77973 0.11001 0.50514 0.0
C117 C 0.86969 0.20394 0.6677 0.0
C118 C 0.8777 0.21071 0.57671 0.0
H119 H 0.82375 0.1596 0.77059 0.0
H120 H 0.89483 0.22963 0.71386 0.0
C121 C 0.84421 0.17696 0.51876 0.0
C122 C 0.82914 0.84353 0.76937 0.0
C123 C 0.79643 0.87813 0.82723 0.0
H124 H 0.89521 0.77814 0.75582 0.0
C125 C 0.80419 0.87121 0.91825 0.0
H126 H 0.8241 0.84808 0.69897 0.0
C127 C 0.84401 0.83045 0.95084 0.0
C128 C 0.87772 0.79684 0.89295 0.0
H129 H 0.77933 0.89722 0.96435 0.0
H130 H 0.84928 0.82611 0.02123 0.0
C131 C 0.8699 0.80371 0.80194 0.0
loop_
_geom_bond_atom_site_label_1
_geom_bond_atom_site_label_2
_geom_bond_distance
_geom_bond_site_symmetry_2
_ccdc_geom_bond_type
In0 O1 2.294 1_554 S
In0 O2 2.326 . S
In0 O6 2.266 1_554 S
In0 O7 2.326 1_454 S
In0 O8 2.266 1_455 S
In0 O9 2.326 . S
In0 O11 2.294 1_455 S
In0 O12 2.326 1_454 S
O1 In0 2.294 1_556 S
O1 C10 1.240 1_556 S
O2 In0 2.326 . S
O2 C10 1.252 . S
C3 O6 1.253 . S
C3 O7 1.259 1_455 S
C4 O11 1.240 1_556 S
C4 O12 1.252 . S
C5 O8 1.253 1_455 S
C5 O9 1.259 . S
O6 In0 2.266 1_556 S
O6 C3 1.253 . S
O7 In0 2.326 1_656 S
O7 C3 1.259 1_655 S
O8 In0 2.266 1_655 S
O8 C5 1.253 1_655 S
O9 In0 2.326 . S
O9 C5 1.259 . S
C10 O1 1.240 1_554 S
C10 O2 1.252 . S
O11 In0 2.294 1_655 S
O11 C4 1.240 1_554 S
O12 In0 2.326 1_656 S
O12 C4 1.252 . S
In13 O14 2.294 1_545 S
In13 O15 2.326 1_545 S
In13 O19 2.266 1_545 S
In13 O20 2.326 . S
In13 O21 2.266 . S
In13 O22 2.326 1_545 S
In13 O24 2.294 . S
In13 O25 2.326 . S
O14 In13 2.294 1_565 S
O14 C23 1.240 . S
O15 In13 2.326 1_565 S
O15 C23 1.252 . S
C16 O19 1.253 1_545 S
C16 O20 1.259 . S
C17 O24 1.240 . S
C17 O25 1.252 . S
C18 O21 1.253 . S
C18 O22 1.259 1_545 S
O19 In13 2.266 1_565 S
O19 C16 1.253 1_565 S
O20 In13 2.326 . S
O20 C16 1.259 . S
O21 In13 2.266 . S
O21 C18 1.253 . S
O22 In13 2.326 1_565 S
O22 C18 1.259 1_565 S
C23 O14 1.240 . S
C23 O15 1.252 . S
O24 In13 2.294 . S
O24 C17 1.240 . S
O25 In13 2.326 . S
O25 C17 1.252 . S
In26 O27 2.294 . S
In26 O28 2.326 . S
In26 O32 2.266 . S
In26 O33 2.326 1_455 S
In26 O34 2.266 1_455 S
In26 O35 2.326 . S
In26 O37 2.294 1_455 S
In26 O38 2.326 1_455 S
O27 In26 2.294 . S
O27 C36 1.240 . S
O28 In26 2.326 . S
O28 C36 1.252 . S
C29 O32 1.253 . S
C29 O33 1.259 1_455 S
C30 O37 1.240 . S
C30 O38 1.252 . S
C31 O34 1.253 1_455 S
C31 O35 1.259 . S
O32 In26 2.266 . S
O32 C29 1.253 . S
O33 In26 2.326 1_655 S
O33 C29 1.259 1_655 S
O34 In26 2.266 1_655 S
O34 C31 1.253 1_655 S
O35 In26 2.326 . S
O35 C31 1.259 . S
C36 O27 1.240 . S
C36 O28 1.252 . S
O37 In26 2.294 1_655 S
O37 C30 1.240 . S
O38 In26 2.326 1_655 S
O38 C30 1.252 . S
In39 O40 2.294 1_545 S
In39 O41 2.326 1_545 S
In39 O45 2.266 1_545 S
In39 O46 2.326 . S
In39 O47 2.266 . S
In39 O48 2.326 1_545 S
In39 O50 2.294 . S
In39 O51 2.326 . S
O40 In39 2.294 1_565 S
O40 C49 1.240 . S
O41 In39 2.326 1_565 S
O41 C49 1.252 . S
C42 O45 1.253 1_545 S
C42 O46 1.259 . S
C43 O50 1.240 . S
C43 O51 1.252 . S
C44 O47 1.253 . S
C44 O48 1.259 1_545 S
O45 In39 2.266 1_565 S
O45 C42 1.253 1_565 S
O46 In39 2.326 . S
O46 C42 1.259 . S
O47 In39 2.266 . S
O47 C44 1.253 . S
O48 In39 2.326 1_565 S
O48 C44 1.259 1_565 S
C49 O40 1.240 . S
C49 O41 1.252 . S
O50 In39 2.294 . S
O50 C43 1.240 . S
O51 In39 2.326 . S
O51 C43 1.252 . S
C52 C53 1.387 . S
C52 H56 0.950 . S
C52 C61 1.390 . S
C53 C52 1.387 . S
C53 C55 1.387 1_655 S
H54 C61 0.950 . S
C55 C53 1.387 1_455 S
C55 C57 1.390 . S
C55 H59 0.950 . S
H56 C52 0.950 . S
C57 C55 1.390 . S
C57 C58 1.387 1_455 S
C57 H60 0.950 . S
C58 C57 1.387 1_655 S
C58 C61 1.387 . S
H59 C55 0.950 . S
H60 C57 0.950 . S
C61 C52 1.390 . S
C61 H54 0.950 . S
C61 C58 1.387 . S
C62 C63 1.387 . S
C62 H66 0.950 . S
C62 C71 1.390 . S
C63 C62 1.387 . S
C63 C65 1.387 1_565 S
H64 C71 0.950 . S
C65 C63 1.387 1_545 S
C65 C67 1.390 . S
C65 H69 0.950 . S
H66 C62 0.950 . S
C67 C65 1.390 . S
C67 C68 1.387 1_545 S
C67 H70 0.950 . S
C68 C67 1.387 1_565 S
C68 C71 1.387 . S
H69 C65 0.950 . S
H70 C67 0.950 . S
C71 C62 1.390 . S
C71 H64 0.950 . S
C71 C68 1.387 . S
C72 C73 1.387 1_655 S
C72 H76 0.950 . S
C72 C81 1.390 . S
C73 C72 1.387 1_455 S
C73 C75 1.387 . S
H74 C81 0.950 . S
C75 C73 1.387 . S
C75 C77 1.390 . S
C75 H79 0.950 . S
H76 C72 0.950 . S
C77 C75 1.390 . S
C77 C78 1.387 . S
C77 H80 0.950 . S
C78 C77 1.387 . S
C78 C81 1.387 1_455 S
H79 C75 0.950 . S
H80 C77 0.950 . S
C81 C72 1.390 . S
C81 H74 0.950 . S
C81 C78 1.387 1_655 S
C82 C83 1.387 1_565 S
C82 H86 0.950 . S
C82 C91 1.390 1_554 S
C83 C82 1.387 1_545 S
C83 C85 1.387 . S
H84 C91 0.950 . S
C85 C83 1.387 . S
C85 C87 1.390 1_554 S
C85 H89 0.950 . S
H86 C82 0.950 . S
C87 C85 1.390 1_556 S
C87 C88 1.387 . S
C87 H90 0.950 . S
C88 C87 1.387 . S
C88 C91 1.387 1_545 S
H89 C85 0.950 . S
H90 C87 0.950 . S
C91 C82 1.390 1_556 S
C91 H84 0.950 . S
C91 C88 1.387 1_565 S
C92 C93 1.387 . S
C92 H96 0.950 . S
C92 C101 1.390 . S
C93 C92 1.387 . S
C93 C95 1.387 . S
H94 C101 0.950 . S
C95 C93 1.387 . S
C95 C97 1.390 . S
C95 H99 0.950 . S
H96 C92 0.950 . S
C97 C95 1.390 . S
C97 C98 1.387 . S
C97 H100 0.950 1_554 S
C98 C97 1.387 . S
C98 C101 1.387 . S
H99 C95 0.950 . S
H100 C97 0.950 1_556 S
C101 C92 1.390 . S
C101 H94 0.950 . S
C101 C98 1.387 . S
C102 C103 1.387 . S
C102 H106 0.950 . S
C102 C111 1.390 . S
C103 C102 1.387 . S
C103 C105 1.387 . S
H104 C111 0.950 . S
C105 C103 1.387 . S
C105 C107 1.390 . S
C105 H109 0.950 . S
H106 C102 0.950 . S
C107 C105 1.390 . S
C107 C108 1.387 . S
C107 H110 0.950 . S
C108 C107 1.387 . S
C108 C111 1.387 . S
H109 C105 0.950 . S
H110 C107 0.950 . S
C111 C102 1.390 . S
C111 H104 0.950 . S
C111 C108 1.387 . S
C112 C113 1.387 . S
C112 H116 0.950 . S
C112 C121 1.390 . S
C113 C112 1.387 . S
C113 C115 1.387 . S
H114 C121 0.950 . S
C115 C113 1.387 . S
C115 C117 1.390 . S
C115 H119 0.950 . S
H116 C112 0.950 . S
C117 C115 1.390 . S
C117 C118 1.387 . S
C117 H120 0.950 . S
C118 C117 1.387 . S
C118 C121 1.387 . S
H119 C115 0.950 . S
H120 C117 0.950 . S
C121 C112 1.390 . S
C121 H114 0.950 . S
C121 C118 1.387 . S
C122 C123 1.387 . S
C122 H126 0.950 . S
C122 C131 1.390 . S
C123 C122 1.387 . S
C123 C125 1.387 . S
H124 C131 0.950 . S
C125 C123 1.387 . S
C125 C127 1.390 . S
C125 H129 0.950 . S
H126 C122 0.950 . S
C127 C125 1.390 . S
C127 C128 1.387 . S
C127 H130 0.950 1_556 S
C128 C127 1.387 . S
C128 C131 1.387 . S
H129 C125 0.950 . S
H130 C127 0.950 1_554 S
C131 C122 1.390 . S
C131 H124 0.950 . S
C131 C128 1.387 . S
C53 C5 1.475 1_655 S
C58 C31 1.474 1_655 S
C63 C16 1.475 1_565 S
C68 C42 1.475 1_565 S
C73 C3 1.474 . S
C78 C29 1.475 . S
C83 C18 1.474 . S
C88 C44 1.474 . S
C93 C23 1.543 . S
C98 C10 1.543 . S
C103 C17 1.543 . S
C108 C36 1.540 . S
C113 C43 1.544 . S
C118 C30 1.544 . S
C123 C49 1.543 . S
C128 C4 1.547 . S
