# Generated by pormake.
# Topology oof, (8)-cn, num edge types: 1
# Building blocks:
#     Node 0, Type 0, BuildingBlock: AJUNOK_clean_sbu_0, # of connection points: 8
#     Node 1, Type 0, BuildingBlock: AJUNOK_clean_sbu_0, # of connection points: 8
#     Node 2, Type 0, BuildingBlock: AJUNOK_clean_sbu_0, # of connection points: 8
#     Node 3, Type 0, BuildingBlock: AJUNOK_clean_sbu_0, # of connection points: 8
#     Edge 4, Type (0, 0), None
#     Edge 5, Type (0, 0), None
#     Edge 6, Type (0, 0), None
#     Edge 7, Type (0, 0), None
#     Edge 8, Type (0, 0), None
#     Edge 9, Type (0, 0), None
#     Edge 10, Type (0, 0), None
#     Edge 11, Type (0, 0), None
#     Edge 12, Type (0, 0), None
#     Edge 13, Type (0, 0), None
#     Edge 14, Type (0, 0), None
#     Edge 15, Type (0, 0), None
#     Edge 16, Type (0, 0), None
#     Edge 17, Type (0, 0), None
#     Edge 18, Type (0, 0), None
#     Edge 19, Type (0, 0), None
# Relax obj value: 0.039
# Max RMSD: 0.129
# Mean RMSD: 0.128
data_MOF--net-oof--node1-AJUNOK_clean_sbu_0--edge1-none
_symmetry_space_group_name_H-M    P1
_symmetry_Int_Tables_number       1
_symmetry_cell_setting            triclinic
loop_
_symmetry_equiv_pos_as_xyz
'x, y, z'
_cell_length_a     5.847838
_cell_length_b     40.411605
_cell_length_c     12.803447
_cell_angle_alpha  99.642677
_cell_angle_beta   89.575504
_cell_angle_gamma 82.107771
loop_
_atom_site_label
_atom_site_type_symbol
_atom_site_fract_x
_atom_site_fract_y
_atom_site_fract_z
_atom_type_partial_charge
Cd0 Cd 0.13395 0.04144 0.13879 0.0
Cd1 Cd 1.02593 0.14721 0.34808 0.0
C2 C 0.27105 0.06636 0.92907 0.0
N3 N 0.08622 0.07074 -0.0029 0.0
C4 C 0.84911 0.09921 0.87878 0.0
C5 C 1.03469 0.09371 0.80435 0.0
C6 C 0.2497 0.07788 0.83246 0.0
C7 C 0.87856 0.08729 0.97493 0.0
H8 H 0.43312 0.05267 0.94825 0.0
H9 H 0.7331 0.09001 0.02959 0.0
C10 C 0.66481 0.10199 0.26304 0.0
C11 C 0.84285 0.1424 0.58298 0.0
C12 C 0.8506 0.13214 0.68207 0.0
C13 C 1.00546 0.10358 0.69742 0.0
C14 C 0.13838 0.08492 0.6094 0.0
C15 C 0.12695 0.0963 0.51242 0.0
N16 N 0.98336 0.1248 0.50153 0.0
H17 H 0.73244 0.16525 0.57236 0.0
H18 H 0.23845 0.08297 0.44665 0.0
C19 C 0.72481 0.19045 0.19266 0.0
N20 N 0.93719 0.17274 0.2001 0.0
C21 C 0.06501 0.18753 0.03836 0.0
C22 C 0.84632 0.20601 0.02777 0.0
C23 C 0.67469 0.20699 0.10646 0.0
C24 C 0.10627 0.1709 0.12516 0.0
H25 H 0.59441 0.19198 0.25406 0.0
H26 H 0.27476 0.15697 0.13387 0.0
C27 C 0.48988 0.08579 0.23088 0.0
C28 C 0.06696 -0.01852 0.00546 0.0
N29 N 0.11352 0.01355 0.28378 0.0
C30 C 0.24537 -0.01731 0.27341 0.0
C31 C 0.22135 0.96124 0.34623 0.0
C32 C 0.06321 -0.02817 0.4326 0.0
C33 C 0.93485 0.00444 0.44315 0.0
C34 C 0.96044 0.02475 0.36675 0.0
C35 C 0.24599 0.19991 0.45538 0.0
O36 O 0.86978 0.08893 0.23587 0.0
O37 O 0.63335 0.13105 0.32112 0.0
O38 O 0.28384 0.09898 0.25488 0.0
O39 O 0.52355 0.05651 0.17454 0.0
O40 O 0.89612 0.00178 0.05112 0.0
O41 O 0.26825 -0.0104 0.01992 0.0
O42 O 0.36236 0.17297 0.40555 0.0
O43 O 1.02728 0.20235 0.45423 0.0
H44 H 0.3642 -0.02582 0.20621 0.0
H45 H 0.85486 0.04913 0.37313 0.0
H46 H 0.68022 0.11132 0.86164 0.0
H47 H 0.40017 0.07383 0.77979 0.0
H48 H 0.74376 0.14738 0.74669 0.0
H49 H 0.25394 0.06202 0.61529 0.0
H50 H 0.20522 0.18636 -0.01834 0.0
H51 H 0.5023 0.22026 0.10192 0.0
H52 H 0.32189 0.93626 0.3328 0.0
H53 H 0.81487 0.01429 0.50939 0.0
Cd54 Cd 0.08201 0.78053 0.61399 0.0
Cd55 Cd 0.97255 0.88683 0.82213 0.0
C56 C 0.23949 0.78353 0.37378 0.0
N57 N 0.12628 0.80318 0.46046 0.0
C58 C 1.00095 0.84675 0.36017 0.0
C59 C 0.10781 0.82648 0.26798 0.0
C60 C 0.23295 0.79477 0.27619 0.0
C61 C 1.01102 0.83443 0.45578 0.0
H62 H 0.32668 0.75854 0.37933 0.0
H63 H 0.91963 0.84929 0.52547 0.0
C64 C 0.61829 0.84154 0.73366 0.0
C65 C 0.84362 0.86602 0.04081 0.0
C66 C 0.86652 0.85475 0.1379 0.0
C67 C 0.07962 0.8378 0.16351 0.0
C68 C 0.26381 0.83194 0.08851 0.0
C69 C 0.23347 0.84387 -0.00759 0.0
N70 N 1.02589 0.86062 0.97079 0.0
H71 H 0.68169 0.87988 0.02211 0.0
H72 H 0.37698 0.84036 0.93631 0.0
C73 C 0.80532 0.9313 0.64501 0.0
N74 N 0.99236 0.91029 0.66868 0.0
C75 C 0.22214 0.92629 0.53556 0.0
C76 C 1.03457 0.9492 0.51136 0.0
C77 C 0.822 0.95088 0.56576 0.0
C78 C 0.19733 0.90716 0.61491 0.0
H79 H 0.64569 0.93384 0.69071 0.0
H80 H 0.345 0.89098 0.63648 0.0
C81 C 0.44284 0.82548 0.70131 0.0
C82 C 0.85972 0.72725 0.51118 0.0
N83 N 0.18975 0.7559 0.76169 0.0
C84 C 0.35222 0.72799 0.75009 0.0
C85 C 0.40849 0.71159 0.83618 0.0
C86 C 0.29662 0.72401 0.93562 0.0
C87 C 0.1332 0.75352 0.94519 0.0
C88 C 0.08101 0.76891 0.85675 0.0
C89 C 1.03421 0.94929 0.94154 0.0
O90 O 0.82395 0.82847 0.7084 0.0
O91 O 0.58529 0.87068 0.79089 0.0
O92 O 0.23784 0.83882 0.72755 0.0
O93 O 0.47385 0.79644 0.64301 0.0
O94 O 0.74398 0.75381 0.56359 0.0
O95 O 0.07817 0.72538 0.50823 0.0
O96 O 0.20652 0.92809 0.90172 0.0
O97 O 0.83302 0.94119 0.92633 0.0
H98 H 0.43492 0.71806 0.67334 0.0
H99 H 0.9519 0.79111 0.86372 0.0
H100 H 0.90636 0.87162 0.35813 0.0
H101 H 0.31636 0.77819 0.20719 0.0
H102 H 0.71865 0.85937 0.19241 0.0
H103 H 0.43111 0.81906 0.10491 0.0
H104 H 0.39013 0.92405 0.49716 0.0
H105 H 0.67054 -0.03249 0.54883 0.0
H106 H 0.53363 0.68884 0.82354 0.0
H107 H 0.04589 0.76481 0.02009 0.0
Cd108 Cd 0.63381 0.54145 0.1388 0.0
Cd109 Cd 0.52577 0.64721 0.34809 0.0
C110 C 0.77087 0.56637 0.92908 0.0
N111 N 0.58604 0.57075 -0.00289 0.0
C112 C 0.34893 0.59922 0.87879 0.0
C113 C 0.5345 0.59371 0.80436 0.0
C114 C 0.74951 0.57789 0.83246 0.0
C115 C 0.37838 0.5873 0.97494 0.0
H116 H 0.93295 0.55267 0.94825 0.0
H117 H 0.23293 0.59001 0.0296 0.0
C118 C 0.16466 0.602 0.26305 0.0
C119 C 0.34267 0.6424 0.58299 0.0
C120 C 0.35042 0.63215 0.68208 0.0
C121 C 0.50527 0.60358 0.69743 0.0
C122 C 0.63818 0.58492 0.60941 0.0
C123 C 0.62676 0.59631 0.51243 0.0
N124 N 0.48318 0.62481 0.50154 0.0
H125 H 0.23227 0.66526 0.57237 0.0
H126 H 0.73826 0.58297 0.44666 0.0
C127 C 0.22464 0.69046 0.19267 0.0
N128 N 0.43702 0.67275 0.20012 0.0
C129 C 0.56483 0.68753 0.03837 0.0
C130 C 0.34614 0.70602 0.02778 0.0
C131 C 0.17451 0.707 0.10648 0.0
C132 C 0.6061 0.67091 0.12518 0.0
H133 H 0.09423 0.69199 0.25408 0.0
H134 H 0.77459 0.65697 0.13388 0.0
C135 C 0.98973 0.5858 0.23089 0.0
C136 C 0.56692 0.48149 0.00546 0.0
N137 N 0.61343 0.51356 0.28378 0.0
C138 C 0.74533 0.4827 0.27342 0.0
C139 C 0.72136 0.46125 0.34625 0.0
C140 C 0.56323 0.47184 0.43261 0.0
C141 C 0.43481 0.50444 0.44316 0.0
C142 C 0.46034 0.52475 0.36675 0.0
C143 C 0.74583 0.69992 0.45539 0.0
O144 O 0.36962 0.58893 0.23588 0.0
O145 O 0.1332 0.63105 0.32113 0.0
O146 O 0.78369 0.59898 0.25489 0.0
O147 O 1.0234 0.55652 0.17454 0.0
O148 O 0.39605 0.50178 0.05112 0.0
O149 O 0.76819 0.48961 0.01992 0.0
O150 O 0.8622 0.67298 0.40556 0.0
O151 O 0.52712 0.70236 0.45424 0.0
H152 H 0.86417 0.47419 0.20622 0.0
H153 H 0.35472 0.54913 0.37313 0.0
H154 H 0.18004 0.61132 0.86165 0.0
H155 H 0.89999 0.57383 0.77979 0.0
H156 H 0.24358 0.64739 0.7467 0.0
H157 H 0.75374 0.56202 0.61529 0.0
H158 H 0.70504 0.68637 -0.01833 0.0
H159 H 1.00212 0.72026 0.10194 0.0
H160 H 0.82195 0.43628 0.33281 0.0
H161 H 0.31482 0.51429 0.5094 0.0
Cd162 Cd 0.58217 0.28052 0.61398 0.0
Cd163 Cd 0.4727 0.38682 0.82212 0.0
C164 C 0.73967 0.28352 0.37377 0.0
N165 N 0.62647 0.30317 0.46045 0.0
C166 C 0.50117 0.34674 0.36016 0.0
C167 C 0.60802 0.32647 0.26797 0.0
C168 C 0.73314 0.29476 0.27618 0.0
C169 C 0.51123 0.33442 0.45577 0.0
H170 H 0.82685 0.25853 0.37932 0.0
H171 H 0.41985 0.34929 0.52546 0.0
C172 C 0.11845 0.34154 0.73365 0.0
C173 C 0.34381 0.36601 0.04081 0.0
C174 C 0.36672 0.35475 0.13789 0.0
C175 C 0.57982 0.33779 0.1635 0.0
C176 C 0.76401 0.33193 0.0885 0.0
C177 C 0.73367 0.34386 -0.0076 0.0
N178 N 0.52608 0.36061 0.97078 0.0
H179 H 0.18188 0.37987 0.02211 0.0
H180 H 0.87717 0.34036 0.9363 0.0
C181 C 0.30543 0.43129 0.64503 0.0
N182 N 0.49249 0.41029 0.66868 0.0
C183 C 0.72223 0.42629 0.53557 0.0
C184 C 0.53463 0.44921 0.51137 0.0
C185 C 0.32208 0.45087 0.56578 0.0
C186 C 0.69745 0.40717 0.61491 0.0
H187 H 0.14581 0.43383 0.69073 0.0
H188 H 0.84514 0.39098 0.63648 0.0
C189 C 0.943 0.32547 0.7013 0.0
C190 C 0.35988 0.22724 0.51116 0.0
N191 N 0.68993 0.2559 0.76167 0.0
C192 C 0.8524 0.22798 0.75008 0.0
C193 C 0.90867 0.21158 0.83617 0.0
C194 C 0.79679 0.224 0.93561 0.0
C195 C 0.63339 0.25351 0.94518 0.0
C196 C 0.58119 0.2689 0.85674 0.0
C197 C 0.53424 0.44929 0.94154 0.0
O198 O 0.32411 0.32846 0.70839 0.0
O199 O 0.08545 0.37067 0.79089 0.0
O200 O 0.738 0.33882 0.72754 0.0
O201 O 0.974 0.29644 0.643 0.0
O202 O 0.24414 0.2538 0.56358 0.0
O203 O 0.57832 0.22537 0.50822 0.0
O204 O 0.70658 0.4281 0.90172 0.0
O205 O 0.33308 0.44118 0.92634 0.0
H206 H 0.93509 0.21805 0.67333 0.0
H207 H 0.45208 0.29111 0.86371 0.0
H208 H 0.40659 0.37162 0.35813 0.0
H209 H 0.81654 0.27818 0.20718 0.0
H210 H 0.21885 0.35937 0.19241 0.0
H211 H 0.93131 0.31905 0.1049 0.0
H212 H 0.8902 0.42406 0.49716 0.0
H213 H 0.1706 0.4675 0.54886 0.0
H214 H 1.03381 0.18883 0.82352 0.0
H215 H 0.54608 0.2648 0.02008 0.0
loop_
_geom_bond_atom_site_label_1
_geom_bond_atom_site_label_2
_geom_bond_distance
_geom_bond_site_symmetry_2
_ccdc_geom_bond_type
Cd0 N3 2.334 . S
Cd0 N29 2.304 . S
Cd0 O36 2.268 1_455 S
Cd0 O39 2.273 . S
Cd0 O40 2.417 1_455 S
Cd0 O41 2.330 . S
Cd1 N16 2.304 1_655 S
Cd1 N20 2.334 . S
Cd1 O37 2.273 . S
Cd1 O38 2.268 1_655 S
Cd1 O42 2.417 1_655 S
Cd1 O43 2.330 . S
C2 N3 1.332 1_556 S
C2 C6 1.381 . S
C2 H8 0.931 . S
N3 Cd0 2.334 . S
N3 C2 1.332 1_554 S
N3 C7 1.328 1_454 S
C4 C5 1.396 . S
C4 C7 1.378 . S
C4 H46 0.931 . S
C5 C4 1.396 . S
C5 C6 1.382 1_655 S
C6 C2 1.381 . S
C6 C5 1.382 1_455 S
C6 H47 0.930 . S
C7 N3 1.328 1_656 S
C7 C4 1.378 . S
C7 H9 0.930 1_556 S
H8 C2 0.931 . S
H9 C7 0.930 1_554 S
C10 O36 1.238 . S
C10 O37 1.253 . S
C11 C12 1.379 . S
C11 N16 1.337 1_655 S
C11 H17 0.929 . S
C12 C11 1.379 . S
C12 C13 1.380 1_655 S
C12 H48 0.929 . S
C13 C12 1.380 1_455 S
C13 C14 1.399 . S
C14 C13 1.399 . S
C14 C15 1.376 . S
C14 H49 0.931 . S
C15 C14 1.376 . S
C15 N16 1.338 . S
C15 H18 0.930 . S
N16 Cd1 2.304 1_455 S
N16 C11 1.337 1_455 S
N16 C15 1.338 . S
H17 C11 0.929 . S
H18 C15 0.930 . S
C19 N20 1.332 . S
C19 C23 1.381 . S
C19 H25 0.931 . S
N20 Cd1 2.334 . S
N20 C19 1.332 . S
N20 C24 1.328 1_655 S
C21 C22 1.396 1_455 S
C21 C24 1.378 . S
C21 H50 0.931 . S
C22 C21 1.396 1_655 S
C22 C23 1.382 . S
C23 C19 1.381 . S
C23 C22 1.382 . S
C23 H51 0.930 . S
C24 N20 1.328 1_455 S
C24 C21 1.378 . S
C24 H26 0.930 . S
H25 C19 0.931 . S
H26 C24 0.930 . S
C27 O38 1.238 . S
C27 O39 1.253 . S
C28 O40 1.239 . S
C28 O41 1.230 1_655 S
N29 Cd0 2.304 . S
N29 C30 1.337 . S
N29 C34 1.338 1_455 S
C30 N29 1.337 . S
C30 C31 1.379 . S
C30 H44 0.929 . S
C31 C30 1.379 . S
C31 C32 1.380 . S
C31 H52 0.929 . S
C32 C31 1.380 . S
C32 C33 1.399 1_455 S
C33 C32 1.399 1_655 S
C33 C34 1.376 . S
C33 H53 0.931 . S
C34 N29 1.338 1_655 S
C34 C33 1.376 . S
C34 H45 0.930 . S
C35 O42 1.239 . S
C35 O43 1.230 1_455 S
O36 Cd0 2.268 1_655 S
O36 C10 1.238 . S
O37 Cd1 2.273 . S
O37 C10 1.253 . S
O38 Cd1 2.268 1_455 S
O38 C27 1.238 . S
O39 Cd0 2.273 . S
O39 C27 1.253 . S
O40 Cd0 2.417 1_655 S
O40 C28 1.239 . S
O41 Cd0 2.330 . S
O41 C28 1.230 1_455 S
O42 Cd1 2.417 1_455 S
O42 C35 1.239 . S
O43 Cd1 2.330 . S
O43 C35 1.230 1_655 S
H44 C30 0.929 . S
H45 C34 0.930 . S
H46 C4 0.931 . S
H47 C6 0.930 . S
H48 C12 0.929 . S
H49 C14 0.931 . S
H50 C21 0.931 . S
H51 C23 0.930 . S
H52 C31 0.929 . S
H53 C33 0.931 . S
Cd54 N57 2.334 . S
Cd54 N83 2.304 . S
Cd54 O90 2.268 1_455 S
Cd54 O93 2.273 . S
Cd54 O94 2.417 1_455 S
Cd54 O95 2.330 . S
Cd55 N70 2.304 . S
Cd55 N74 2.334 1_455 S
Cd55 O91 2.273 1_455 S
Cd55 O92 2.268 . S
Cd55 O96 2.417 . S
Cd55 O97 2.330 1_455 S
C56 N57 1.332 . S
C56 C60 1.381 . S
C56 H62 0.931 . S
N57 Cd54 2.334 . S
N57 C56 1.332 . S
N57 C61 1.328 1_455 S
C58 C59 1.396 1_655 S
C58 C61 1.378 . S
C58 H100 0.931 . S
C59 C58 1.396 1_455 S
C59 C60 1.382 . S
C60 C56 1.381 . S
C60 C59 1.382 . S
C60 H101 0.930 . S
C61 N57 1.328 1_655 S
C61 C58 1.378 . S
C61 H63 0.930 . S
H62 C56 0.931 . S
H63 C61 0.930 . S
C64 O90 1.238 . S
C64 O91 1.253 . S
C65 C66 1.379 . S
C65 N70 1.337 1_654 S
C65 H71 0.929 . S
C66 C65 1.379 . S
C66 C67 1.380 1_655 S
C66 H102 0.929 . S
C67 C66 1.380 1_455 S
C67 C68 1.399 . S
C68 C67 1.399 . S
C68 C69 1.376 . S
C68 H103 0.931 . S
C69 C68 1.376 . S
C69 N70 1.338 1_554 S
C69 H72 0.930 1_554 S
N70 Cd55 2.304 . S
N70 C65 1.337 1_456 S
N70 C69 1.338 1_556 S
H71 C65 0.929 . S
H72 C69 0.930 1_556 S
C73 N74 1.332 . S
C73 C77 1.381 . S
C73 H79 0.931 . S
N74 Cd55 2.334 1_655 S
N74 C73 1.332 . S
N74 C78 1.328 1_655 S
C75 C76 1.396 1_455 S
C75 C78 1.378 . S
C75 H104 0.931 . S
C76 C75 1.396 1_655 S
C76 C77 1.382 . S
C77 C73 1.381 . S
C77 C76 1.382 . S
C77 H105 0.930 . S
C78 N74 1.328 1_455 S
C78 C75 1.378 . S
C78 H80 0.930 . S
H79 C73 0.931 . S
H80 C78 0.930 . S
C81 O92 1.238 . S
C81 O93 1.253 . S
C82 O94 1.239 . S
C82 O95 1.230 1_655 S
N83 Cd54 2.304 . S
N83 C84 1.337 . S
N83 C88 1.338 1_455 S
C84 N83 1.337 . S
C84 C85 1.379 . S
C84 H98 0.929 . S
C85 C84 1.379 . S
C85 C86 1.380 . S
C85 H106 0.929 . S
C86 C85 1.380 . S
C86 C87 1.399 1_455 S
C87 C86 1.399 1_655 S
C87 C88 1.376 . S
C87 H107 0.931 1_556 S
C88 N83 1.338 1_655 S
C88 C87 1.376 . S
C88 H99 0.930 . S
C89 O96 1.239 . S
C89 O97 1.230 1_455 S
O90 Cd54 2.268 1_655 S
O90 C64 1.238 . S
O91 Cd55 2.273 1_655 S
O91 C64 1.253 . S
O92 Cd55 2.268 . S
O92 C81 1.238 . S
O93 Cd54 2.273 . S
O93 C81 1.253 . S
O94 Cd54 2.417 1_655 S
O94 C82 1.239 . S
O95 Cd54 2.330 . S
O95 C82 1.230 1_455 S
O96 Cd55 2.417 . S
O96 C89 1.239 . S
O97 Cd55 2.330 1_655 S
O97 C89 1.230 1_655 S
H98 C84 0.929 . S
H99 C88 0.930 . S
H100 C58 0.931 . S
H101 C60 0.930 . S
H102 C66 0.929 . S
H103 C68 0.931 . S
H104 C75 0.931 . S
H105 C77 0.930 . S
H106 C85 0.929 . S
H107 C87 0.931 1_554 S
Cd108 N111 2.334 . S
Cd108 N137 2.304 . S
Cd108 O144 2.268 . S
Cd108 O147 2.273 . S
Cd108 O148 2.417 . S
Cd108 O149 2.330 . S
Cd109 N124 2.304 . S
Cd109 N128 2.334 . S
Cd109 O145 2.273 . S
Cd109 O146 2.268 . S
Cd109 O150 2.417 . S
Cd109 O151 2.330 . S
C110 N111 1.332 1_556 S
C110 C114 1.381 . S
C110 H116 0.931 . S
N111 Cd108 2.334 . S
N111 C110 1.332 1_554 S
N111 C115 1.328 1_554 S
C112 C113 1.396 . S
C112 C115 1.378 . S
C112 H154 0.931 . S
C113 C112 1.396 . S
C113 C114 1.382 . S
C114 C110 1.381 . S
C114 C113 1.382 . S
C114 H155 0.930 . S
C115 N111 1.328 1_556 S
C115 C112 1.378 . S
C115 H117 0.930 1_556 S
H116 C110 0.931 . S
H117 C115 0.930 1_554 S
C118 O144 1.238 . S
C118 O145 1.253 . S
C119 C120 1.379 . S
C119 N124 1.337 . S
C119 H125 0.929 . S
C120 C119 1.379 . S
C120 C121 1.380 . S
C120 H156 0.929 . S
C121 C120 1.380 . S
C121 C122 1.399 . S
C122 C121 1.399 . S
C122 C123 1.376 . S
C122 H157 0.931 . S
C123 C122 1.376 . S
C123 N124 1.338 . S
C123 H126 0.930 . S
N124 Cd109 2.304 . S
N124 C119 1.337 . S
N124 C123 1.338 . S
H125 C119 0.929 . S
H126 C123 0.930 . S
C127 N128 1.332 . S
C127 C131 1.381 . S
C127 H133 0.931 . S
N128 Cd109 2.334 . S
N128 C127 1.332 . S
N128 C132 1.328 . S
C129 C130 1.396 . S
C129 C132 1.378 . S
C129 H158 0.931 . S
C130 C129 1.396 . S
C130 C131 1.382 . S
C131 C127 1.381 . S
C131 C130 1.382 . S
C131 H159 0.930 . S
C132 N128 1.328 . S
C132 C129 1.378 . S
C132 H134 0.930 . S
H133 C127 0.931 . S
H134 C132 0.930 . S
C135 O146 1.238 . S
C135 O147 1.253 . S
C136 O148 1.239 . S
C136 O149 1.230 . S
N137 Cd108 2.304 . S
N137 C138 1.337 . S
N137 C142 1.338 . S
C138 N137 1.337 . S
C138 C139 1.379 . S
C138 H152 0.929 . S
C139 C138 1.379 . S
C139 C140 1.380 . S
C139 H160 0.929 . S
C140 C139 1.380 . S
C140 C141 1.399 . S
C141 C140 1.399 . S
C141 C142 1.376 . S
C141 H161 0.931 . S
C142 N137 1.338 . S
C142 C141 1.376 . S
C142 H153 0.930 . S
C143 O150 1.239 . S
C143 O151 1.230 . S
O144 Cd108 2.268 . S
O144 C118 1.238 . S
O145 Cd109 2.273 . S
O145 C118 1.253 . S
O146 Cd109 2.268 . S
O146 C135 1.238 . S
O147 Cd108 2.273 . S
O147 C135 1.253 . S
O148 Cd108 2.417 . S
O148 C136 1.239 . S
O149 Cd108 2.330 . S
O149 C136 1.230 . S
O150 Cd109 2.417 . S
O150 C143 1.239 . S
O151 Cd109 2.330 . S
O151 C143 1.230 . S
H152 C138 0.929 . S
H153 C142 0.930 . S
H154 C112 0.931 . S
H155 C114 0.930 . S
H156 C120 0.929 . S
H157 C122 0.931 . S
H158 C129 0.931 . S
H159 C131 0.930 . S
H160 C139 0.929 . S
H161 C141 0.931 . S
Cd162 N165 2.334 . S
Cd162 N191 2.304 . S
Cd162 O198 2.268 . S
Cd162 O201 2.273 . S
Cd162 O202 2.417 . S
Cd162 O203 2.330 . S
Cd163 N178 2.304 . S
Cd163 N182 2.334 . S
Cd163 O199 2.273 . S
Cd163 O200 2.268 . S
Cd163 O204 2.417 . S
Cd163 O205 2.330 . S
C164 N165 1.332 . S
C164 C168 1.381 . S
C164 H170 0.931 . S
N165 Cd162 2.334 . S
N165 C164 1.332 . S
N165 C169 1.328 . S
C166 C167 1.396 . S
C166 C169 1.378 . S
C166 H208 0.931 . S
C167 C166 1.396 . S
C167 C168 1.382 . S
C168 C164 1.381 . S
C168 C167 1.382 . S
C168 H209 0.930 . S
C169 N165 1.328 . S
C169 C166 1.378 . S
C169 H171 0.930 . S
H170 C164 0.931 . S
H171 C169 0.930 . S
C172 O198 1.238 . S
C172 O199 1.253 . S
C173 C174 1.379 . S
C173 N178 1.337 1_554 S
C173 H179 0.929 . S
C174 C173 1.379 . S
C174 C175 1.380 . S
C174 H210 0.929 . S
C175 C174 1.380 . S
C175 C176 1.399 . S
C176 C175 1.399 . S
C176 C177 1.376 . S
C176 H211 0.931 . S
C177 C176 1.376 . S
C177 N178 1.338 1_554 S
C177 H180 0.930 1_554 S
N178 Cd163 2.304 . S
N178 C173 1.337 1_556 S
N178 C177 1.338 1_556 S
H179 C173 0.929 . S
H180 C177 0.930 1_556 S
C181 N182 1.332 . S
C181 C185 1.381 . S
C181 H187 0.931 . S
N182 Cd163 2.334 . S
N182 C181 1.332 . S
N182 C186 1.328 . S
C183 C184 1.396 . S
C183 C186 1.378 . S
C183 H212 0.931 . S
C184 C183 1.396 . S
C184 C185 1.382 . S
C185 C181 1.381 . S
C185 C184 1.382 . S
C185 H213 0.930 . S
C186 N182 1.328 . S
C186 C183 1.378 . S
C186 H188 0.930 . S
H187 C181 0.931 . S
H188 C186 0.930 . S
C189 O200 1.238 . S
C189 O201 1.253 . S
C190 O202 1.239 . S
C190 O203 1.230 . S
N191 Cd162 2.304 . S
N191 C192 1.337 . S
N191 C196 1.338 . S
C192 N191 1.337 . S
C192 C193 1.379 . S
C192 H206 0.929 . S
C193 C192 1.379 . S
C193 C194 1.380 . S
C193 H214 0.929 . S
C194 C193 1.380 . S
C194 C195 1.399 . S
C195 C194 1.399 . S
C195 C196 1.376 . S
C195 H215 0.931 1_556 S
C196 N191 1.338 . S
C196 C195 1.376 . S
C196 H207 0.930 . S
C197 O204 1.239 . S
C197 O205 1.230 . S
O198 Cd162 2.268 . S
O198 C172 1.238 . S
O199 Cd163 2.273 . S
O199 C172 1.253 . S
O200 Cd163 2.268 . S
O200 C189 1.238 . S
O201 Cd162 2.273 . S
O201 C189 1.253 . S
O202 Cd162 2.417 . S
O202 C190 1.239 . S
O203 Cd162 2.330 . S
O203 C190 1.230 . S
O204 Cd163 2.417 . S
O204 C197 1.239 . S
O205 Cd163 2.330 . S
O205 C197 1.230 . S
H206 C192 0.929 . S
H207 C196 0.930 . S
H208 C166 0.931 . S
H209 C168 0.930 . S
H210 C174 0.929 . S
H211 C176 0.931 . S
H212 C183 0.931 . S
H213 C185 0.930 . S
H214 C193 0.929 . S
H215 C195 0.931 1_554 S
C5 C13 1.877 1_655 S
C59 C67 1.878 . S
C113 C121 1.877 . S
C175 C167 1.878 . S
C10 C27 1.152 . S
C64 C81 1.152 . S
C135 C118 1.152 1_655 S
C189 C172 1.152 1_655 S
C190 C35 2.655 . S
C194 C22 2.339 1_556 S
C143 C82 2.655 . S
C130 C86 2.338 1_554 S
C28 C89 0.887 1_644 S
C32 C76 2.173 1_445 S
C136 C197 0.889 1_554 S
C184 C140 2.172 . S
