# Generated by pormake.
# Topology sxc, (6)-cn, num edge types: 1
# Building blocks:
#     Node 0, Type 0, BuildingBlock: JUFBIX_clean_sbu_0, # of connection points: 6
#     Node 1, Type 0, BuildingBlock: JUFBIX_clean_sbu_0, # of connection points: 6
#     Node 2, Type 0, BuildingBlock: JUFBIX_clean_sbu_0, # of connection points: 6
#     Edge 3, Type (0, 0), BuildingBlock: XIVTED_clean_linker_0, # of connection points: 2
#     Edge 4, Type (0, 0), BuildingBlock: XIVTED_clean_linker_0, # of connection points: 2
#     Edge 5, Type (0, 0), BuildingBlock: XIVTED_clean_linker_0, # of connection points: 2
#     Edge 6, Type (0, 0), BuildingBlock: XIVTED_clean_linker_0, # of connection points: 2
#     Edge 7, Type (0, 0), BuildingBlock: XIVTED_clean_linker_0, # of connection points: 2
#     Edge 8, Type (0, 0), BuildingBlock: XIVTED_clean_linker_0, # of connection points: 2
#     Edge 9, Type (0, 0), BuildingBlock: XIVTED_clean_linker_0, # of connection points: 2
#     Edge 10, Type (0, 0), BuildingBlock: XIVTED_clean_linker_0, # of connection points: 2
#     Edge 11, Type (0, 0), BuildingBlock: XIVTED_clean_linker_0, # of connection points: 2
# Relax obj value: 0.480
# Max RMSD: 0.153
# Mean RMSD: 0.152
data_MOF--net-sxc--node1-JUFBIX_clean_sbu_0--edge1-XIVTED_clean_linker_0
_symmetry_space_group_name_H-M    P1
_symmetry_Int_Tables_number       1
_symmetry_cell_setting            triclinic
loop_
_symmetry_equiv_pos_as_xyz
'x, y, z'
_cell_length_a     15.635211
_cell_length_b     15.626097
_cell_length_c     45.248039
_cell_angle_alpha  93.411118
_cell_angle_beta   89.419374
_cell_angle_gamma 120.25382
loop_
_atom_site_label
_atom_site_type_symbol
_atom_site_fract_x
_atom_site_fract_y
_atom_site_fract_z
_atom_type_partial_charge
Co0 Co 0.14458 1.01089 0.00656 0.0
C1 C 0.08953 1.04326 0.95194 0.0
Co2 Co 1.05669 0.08364 0.01001 0.0
C3 C 0.19856 0.86582 0.01056 0.0
C4 C 0.2949 0.97782 0.98216 0.0
N5 N 0.22427 0.95642 0.00246 0.0
N6 N 0.24191 0.82451 0.99398 0.0
C7 C 0.30513 0.89596 0.97665 0.0
H8 H 0.13515 0.82374 0.02416 0.0
H9 H 0.32508 1.04175 0.96891 0.0
C10 C 0.11166 1.05095 0.06451 0.0
N11 N 0.97242 0.13332 0.01319 0.0
C12 C 0.95556 0.18204 0.99269 0.0
C13 C 0.89606 0.10476 0.03186 0.0
N14 N 0.87107 0.18376 0.99734 0.0
C15 C 0.83421 0.13678 0.02235 0.0
C16 C 0.93775 0.87141 0.0076 0.0
O17 O 0.1547 1.01441 0.04874 0.0
O18 O 1.06433 0.08532 0.05183 0.0
O19 O 0.93803 0.95291 0.00916 0.0
O20 O 1.02197 0.87676 0.00621 0.0
O21 O 1.04936 0.0818 0.96796 0.0
H22 H 0.88351 0.05943 0.05039 0.0
H23 H 1.00495 0.21619 0.97464 0.0
O24 O 0.13483 1.00663 0.96443 0.0
O25 O 0.26285 0.14147 0.0068 0.0
O26 O 0.1782 0.218 0.01076 0.0
C27 C 0.26261 0.22304 0.0088 0.0
H28 H 0.34353 0.88452 0.95816 0.0
H29 H 0.76792 0.12703 0.03306 0.0
Co30 Co 0.22414 0.15783 0.34267 0.0
C31 C 0.13492 0.09788 0.28673 0.0
Co32 Co 1.06319 0.0703 0.34374 0.0
C33 C 0.42544 0.21688 0.34957 0.0
C34 C 0.4064 0.31328 0.32234 0.0
N35 N 0.35834 0.23971 0.34086 0.0
N36 N 0.51093 0.26571 0.3351 0.0
C37 C 0.50038 0.32877 0.31852 0.0
H38 H 0.40591 0.15241 0.3619 0.0
H39 H 0.37118 0.34277 0.30909 0.0
C40 C 0.15292 0.13023 0.39951 0.0
N41 N 0.92919 0.98451 0.34469 0.0
C42 C 0.86213 0.96814 0.32356 0.0
C43 C 0.88212 0.90769 0.36221 0.0
N44 N 0.77516 0.88367 0.3268 0.0
C45 C 0.78704 0.84608 0.35144 0.0
C46 C 0.15752 0.95174 0.34324 0.0
O47 O 0.23215 0.16812 0.38487 0.0
O48 O 1.0699 0.08432 0.38576 0.0
O49 O 1.07642 0.95203 0.34436 0.0
O50 O 0.23662 1.03612 0.34211 0.0
O51 O 1.0566 0.0571 0.30156 0.0
H52 H 0.91594 0.89524 0.38097 0.0
H53 H 0.8767 1.01848 0.30627 0.0
O54 O 0.21748 0.14712 0.30047 0.0
O55 O 0.21093 0.2761 0.34312 0.0
O56 O 1.04932 0.19067 0.34301 0.0
C57 C 0.12912 0.2756 0.34301 0.0
H58 H 0.55039 0.3708 0.30142 0.0
H59 H 0.73049 0.78009 0.36129 0.0
Co60 Co 0.08438 1.01315 0.67133 0.0
C61 C 0.13519 0.11577 0.6199 0.0
Co62 Co 0.1571 0.17396 0.6793 0.0
C63 C 0.98322 0.80809 0.68285 0.0
C64 C 1.06188 0.83482 0.64248 0.0
N65 N 1.03317 0.87878 0.66383 0.0
N66 N 0.98105 0.72258 0.67472 0.0
C67 C 1.02848 0.73811 0.6489 0.0
H68 H 0.94864 0.81899 0.70243 0.0
H69 H 0.10842 0.87192 0.6242 0.0
C70 C 0.10761 0.0724 0.73096 0.0
N71 N 0.21338 0.30784 0.68737 0.0
C72 C 0.30359 0.3736 0.67852 0.0
C73 C 0.19415 0.35494 0.71014 0.0
N74 N 0.3465 0.45683 0.69649 0.0
C75 C 0.27704 0.44657 0.71611 0.0
C76 C 0.94635 0.08272 0.67446 0.0
O77 O 1.07462 0.99667 0.71303 0.0
O78 O 0.14697 0.15732 0.72068 0.0
O79 O 1.02815 0.16412 0.67853 0.0
O80 O 0.95062 1.00273 0.67052 0.0
O81 O 0.1674 0.19186 0.63778 0.0
H82 H 0.13067 0.31974 0.72419 0.0
H83 H 0.3441 0.35323 0.66282 0.0
O84 O 0.09545 1.03038 0.63003 0.0
O85 O 0.21365 1.02314 0.67221 0.0
O86 O 0.29066 0.18332 0.68016 0.0
C87 C 0.29535 0.10399 0.67627 0.0
H88 H 1.03806 0.68357 0.63571 0.0
H89 H 0.29034 0.4946 0.73587 0.0
H90 H 0.78854 0.28627 0.0224 0.0
H91 H 0.17785 0.73913 0.93867 0.0
H92 H 0.89474 0.22997 0.9396 0.0
H93 H 0.17072 0.67713 0.03051 0.0
H94 H 1.02953 0.57489 0.92868 0.0
H95 H 0.85785 0.45833 0.01111 0.0
C96 C 0.82137 0.3084 0.001 0.0
C97 C 0.84539 0.24754 0.98317 0.0
C98 C 1.06122 0.59793 0.9509 0.0
C99 C 0.92543 0.44211 0.97069 0.0
C100 C 0.14726 0.68953 0.95648 0.0
C101 C 0.18638 0.72092 0.98555 0.0
C102 C 1.01411 0.53983 0.9747 0.0
C103 C 0.14289 0.65501 0.00788 0.0
C104 C 0.8617 0.40711 0.99467 0.0
C105 C 0.88274 0.27841 0.95501 0.0
N106 N 1.05784 0.56825 0.00212 0.0
N107 N 0.92773 0.37631 0.95016 0.0
H108 H 0.5982 0.20306 0.37139 0.0
H109 H 0.74502 0.91585 0.27031 0.0
H110 H 0.52842 0.20331 0.27953 0.0
H111 H 0.5917 0.79965 0.35069 0.0
H112 H 0.65214 1.00106 0.26482 0.0
H113 H 0.61195 0.05609 0.35975 0.0
C114 C 0.59 0.17425 0.34857 0.0
C115 C 0.56209 0.21457 0.32647 0.0
C116 C 0.63509 0.95274 0.28287 0.0
C117 C 0.57224 1.04476 0.31314 0.0
C118 C 0.68752 0.90343 0.28594 0.0
C119 C 0.68371 0.86124 0.31284 0.0
C120 C 0.57799 0.95518 0.30655 0.0
C121 C 0.60312 0.83963 0.33097 0.0
C122 C 0.59395 0.08866 0.34209 0.0
C123 C 0.55079 0.17434 0.29714 0.0
N124 N 0.55657 0.89212 0.32855 0.0
N125 N 0.55539 0.09059 0.29122 0.0
H126 H 0.87089 0.54263 0.64566 0.0
H127 H 0.43713 0.46577 0.74818 0.0
H128 H 0.94382 0.68872 0.73295 0.0
H129 H 0.48879 0.54467 0.65744 0.0
H130 H 0.60015 0.47778 0.75067 0.0
H131 H 0.70084 0.43862 0.66056 0.0
C132 C 0.85274 0.54903 0.66853 0.0
C133 C 0.91786 0.62998 0.6874 0.0
C134 C 0.57524 0.49274 0.73038 0.0
C135 C 0.72575 0.51525 0.70394 0.0
C136 C 0.4845 0.48949 0.7292 0.0
C137 C 0.4504 0.50485 0.70248 0.0
C138 C 0.62964 0.50927 0.70453 0.0
C139 C 0.51322 0.53315 0.67837 0.0
C140 C 0.75529 0.49032 0.67694 0.0
C141 C 0.89212 0.63136 0.71717 0.0
N142 N 0.59906 0.53243 0.67975 0.0
N143 N 0.79543 0.57876 0.72431 0.0
H144 H 0.92037 0.24486 0.68228 0.0
H145 H 0.32184 0.9424 0.66836 0.0
H146 H 0.74833 0.92685 0.66712 0.0
H147 H 0.49318 0.26044 0.68378 0.0
H148 H 0.47521 0.93608 0.66785 0.0
H149 H 0.76723 0.25171 0.6828 0.0
C150 C 0.85059 0.17592 0.67902 0.0
C151 C 0.84939 0.08487 0.67461 0.0
C152 C 0.47987 1.00746 0.67136 0.0
C153 C 0.66962 0.0928 0.67526 0.0
C154 C 0.39153 1.01142 0.67169 0.0
C155 C 0.39247 0.10227 0.67616 0.0
C156 C 0.57252 0.09498 0.67553 0.0
C157 C 0.48698 0.18837 0.68026 0.0
C158 C 0.76238 0.18021 0.67935 0.0
C159 C 0.75476 0.99901 0.67058 0.0
N160 N 0.57209 0.18249 0.67984 0.0
N161 N 0.66984 1.00519 0.67101 0.0
H162 H 0.89955 0.67528 0.00318 0.0
H163 H 0.30104 0.41918 0.0127 0.0
H164 H 0.7487 0.84219 0.012 0.0
H165 H 0.4518 0.25217 0.00453 0.0
H166 H 0.46292 0.57381 0.01231 0.0
H167 H 0.73754 0.52055 0.00336 0.0
C168 C 0.83291 0.67997 0.00518 0.0
C169 C 0.83956 0.7736 0.00759 0.0
C170 C 0.46073 0.50334 0.01061 0.0
C171 C 0.65121 0.59418 0.00788 0.0
C172 C 0.36766 0.41445 0.01084 0.0
C173 C 0.36091 0.32081 0.00869 0.0
C174 C 0.54935 0.50014 0.00819 0.0
C175 C 0.45162 0.32145 0.00629 0.0
C176 C 0.73983 0.59104 0.0053 0.0
C177 C 0.74887 0.7729 0.01007 0.0
N178 N 0.54072 0.4085 0.00611 0.0
N179 N 0.65981 0.68581 0.01016 0.0
H180 H 0.97142 0.3134 0.34407 0.0
H181 H 0.31534 0.91412 0.34077 0.0
H182 H 0.29 0.46626 0.34169 0.0
H183 H 0.99715 0.76131 0.34546 0.0
H184 H 0.30803 0.75255 0.34061 0.0
H185 H 0.97908 0.47508 0.34409 0.0
C186 C 1.04307 0.38041 0.34354 0.0
C187 C 0.13003 0.37411 0.34291 0.0
C188 C 0.23963 0.75414 0.34169 0.0
C189 C 0.13963 0.56279 0.3429 0.0
C190 C 0.24384 0.84713 0.34179 0.0
C191 C 0.15684 0.85335 0.34316 0.0
C192 C 0.14767 0.66487 0.34294 0.0
C193 C 1.06669 0.76202 0.34439 0.0
C194 C 1.04749 0.47346 0.34356 0.0
C195 C 0.22043 0.46554 0.34223 0.0
N196 N 1.06463 0.67305 0.34424 0.0
N197 N 0.22269 0.5546 0.34223 0.0
H198 H 0.97368 1.03931 0.25038 0.0
H199 H 0.24401 1.03586 0.10019 0.0
H200 H 0.28476 0.13311 0.24855 0.0
H201 H 0.98805 0.07221 0.10331 0.0
H202 H 0.24997 1.04513 0.15459 0.0
H203 H 0.9674 1.02455 0.19617 0.0
C204 C 1.04059 0.05654 0.23858 0.0
C205 C 0.13 0.08791 0.25398 0.0
C206 C 0.19261 1.05101 0.14328 0.0
C207 C 0.12293 0.07004 0.19203 0.0
C208 C 0.18889 1.04531 0.1123 0.0
C209 C 0.11566 1.05366 0.09723 0.0
C210 C 0.12145 0.06319 0.1592 0.0
C211 C 1.04618 0.06607 0.11401 0.0
C212 C 1.03698 1.04838 0.20767 0.0
C213 C 0.21444 0.10928 0.23753 0.0
N214 N 1.05047 0.06993 0.14407 0.0
N215 N 0.20876 0.09946 0.20742 0.0
H216 H 1.0255 0.15131 0.4366 0.0
H217 H 0.17909 1.00734 0.58008 0.0
H218 H 0.28768 0.12591 0.43642 0.0
H219 H 0.11426 0.24525 0.58668 0.0
H220 H 0.192 1.02025 0.5262 0.0
H221 H 1.02879 0.15775 0.49104 0.0
C222 C 0.08374 0.14727 0.44806 0.0
C223 C 0.15654 0.13819 0.43216 0.0
C224 C 0.17545 0.06979 0.53954 0.0
C225 C 0.15909 0.14308 0.49391 0.0
C226 C 0.16754 0.0622 0.57013 0.0
C227 C 0.14562 0.12542 0.58768 0.0
C228 C 0.15802 0.13875 0.52641 0.0
C229 C 0.13173 0.19559 0.57382 0.0
C230 C 0.08579 0.15146 0.47898 0.0
C231 C 0.23062 0.13348 0.44797 0.0
N232 N 0.13654 0.19938 0.54382 0.0
N233 N 0.22911 0.13427 0.47805 0.0
H234 H 1.07417 0.91263 0.76185 0.0
H235 H 1.04255 0.15509 0.91878 0.0
H236 H 0.12369 0.21049 0.77379 0.0
H237 H 0.1282 0.93189 0.91076 0.0
H238 H 1.04277 0.15882 0.86478 0.0
H239 H 1.06556 0.90151 0.81586 0.0
C240 C 0.08285 0.97543 0.7758 0.0
C241 C 0.10012 0.0628 0.76335 0.0
C242 C 1.06132 0.10895 0.87487 0.0
C243 C 0.08901 1.04997 0.82484 0.0
C244 C 1.06084 0.10645 0.90566 0.0
C245 C 0.08582 1.04338 0.91928 0.0
C246 C 0.0853 1.04675 0.85752 0.0
C247 C 0.10905 0.98205 0.90115 0.0
C248 C 1.07826 0.96913 0.80655 0.0
C249 C 0.11089 0.14197 0.78245 0.0
N250 N 0.10785 0.98495 0.87116 0.0
N251 N 0.10462 0.13347 0.81221 0.0
loop_
_geom_bond_atom_site_label_1
_geom_bond_atom_site_label_2
_geom_bond_distance
_geom_bond_site_symmetry_2
_ccdc_geom_bond_type
Co0 N5 2.057 1_554 S
Co0 O17 2.021 . S
Co0 O20 2.062 1_455 S
Co0 O24 2.117 1_554 S
Co0 O25 2.020 1_565 S
C1 O21 1.259 1_455 S
C1 O24 1.258 1_545 S
Co2 N11 2.057 . S
Co2 O18 2.117 1_655 S
Co2 O19 2.020 1_545 S
Co2 O21 2.021 1_554 S
Co2 O26 2.062 1_655 S
C3 N5 1.316 1_554 S
C3 N6 1.346 . S
C3 H8 0.931 . S
C4 N5 1.375 . S
C4 C7 1.350 . S
C4 H9 0.930 . S
N5 Co0 2.057 1_556 S
N5 C3 1.316 1_556 S
N5 C4 1.375 . S
N6 C3 1.346 . S
N6 C7 1.376 1_554 S
C7 C4 1.350 . S
C7 N6 1.376 1_556 S
C7 H28 0.931 . S
H8 C3 0.931 . S
H9 C4 0.930 . S
C10 O17 1.259 1_545 S
C10 O18 1.257 . S
N11 Co2 2.057 . S
N11 C12 1.316 1_554 S
N11 C13 1.375 . S
C12 N11 1.316 1_556 S
C12 N14 1.347 1_556 S
C12 H23 0.931 . S
C13 N11 1.375 . S
C13 C15 1.350 . S
C13 H22 0.930 . S
N14 C12 1.347 1_554 S
N14 C15 1.373 . S
C15 C13 1.350 . S
C15 N14 1.373 . S
C15 H29 0.931 . S
C16 O19 1.256 . S
C16 O20 1.255 . S
O17 Co0 2.021 . S
O17 C10 1.259 1_565 S
O18 Co2 2.117 1_455 S
O18 C10 1.257 . S
O19 Co2 2.020 1_565 S
O19 C16 1.256 . S
O20 Co0 2.062 1_655 S
O20 C16 1.255 . S
O21 C1 1.259 1_655 S
O21 Co2 2.021 1_556 S
H22 C13 0.930 . S
H23 C12 0.931 . S
O24 Co0 2.117 1_556 S
O24 C1 1.258 1_565 S
O25 Co0 2.020 1_545 S
O25 C27 1.256 . S
O26 Co2 2.062 1_455 S
O26 C27 1.255 . S
C27 O25 1.256 . S
C27 O26 1.255 . S
H28 C7 0.931 . S
H29 C15 0.931 . S
Co30 N35 2.057 . S
Co30 O47 2.021 . S
Co30 O50 2.062 1_545 S
Co30 O54 2.117 . S
Co30 O55 2.020 . S
C31 O51 1.259 1_445 S
C31 O54 1.258 . S
Co32 N41 2.057 . S
Co32 O48 2.117 1_565 S
Co32 O49 2.020 . S
Co32 O51 2.021 . S
Co32 O56 2.062 1_565 S
C33 N35 1.316 . S
C33 N36 1.347 . S
C33 H38 0.931 . S
C34 N35 1.375 . S
C34 C37 1.350 . S
C34 H39 0.930 . S
N35 Co30 2.057 . S
N35 C33 1.316 . S
N35 C34 1.375 . S
N36 C33 1.347 . S
N36 C37 1.373 . S
C37 C34 1.350 . S
C37 N36 1.373 . S
C37 H58 0.931 . S
H38 C33 0.931 . S
H39 C34 0.930 . S
C40 O47 1.259 . S
C40 O48 1.258 1_455 S
N41 Co32 2.057 . S
N41 C42 1.316 . S
N41 C43 1.375 . S
C42 N41 1.316 . S
C42 N44 1.347 . S
C42 H53 0.931 . S
C43 N41 1.375 . S
C43 C45 1.350 . S
C43 H52 0.930 . S
N44 C42 1.347 . S
N44 C45 1.373 . S
C45 C43 1.350 . S
C45 N44 1.373 . S
C45 H59 0.931 . S
C46 O49 1.256 1_455 S
C46 O50 1.255 . S
O47 Co30 2.021 . S
O47 C40 1.259 . S
O48 Co32 2.117 1_545 S
O48 C40 1.258 1_655 S
O49 Co32 2.020 . S
O49 C46 1.256 1_655 S
O50 Co30 2.062 1_565 S
O50 C46 1.255 . S
O51 C31 1.259 1_665 S
O51 Co32 2.021 . S
H52 C43 0.930 . S
H53 C42 0.931 . S
O54 Co30 2.117 . S
O54 C31 1.258 . S
O55 Co30 2.020 . S
O55 C57 1.256 . S
O56 Co32 2.062 1_545 S
O56 C57 1.255 1_655 S
C57 O55 1.256 . S
C57 O56 1.255 1_455 S
H58 C37 0.931 . S
H59 C45 0.931 . S
Co60 N65 2.057 . S
Co60 O77 2.021 . S
Co60 O80 2.062 . S
Co60 O84 2.117 1_655 S
Co60 O85 2.020 1_655 S
C61 O81 1.259 . S
C61 O84 1.259 1_545 S
Co62 N71 2.057 . S
Co62 O78 2.117 . S
Co62 O79 2.020 1_455 S
Co62 O81 2.021 . S
Co62 O86 2.062 . S
C63 N65 1.316 . S
C63 N66 1.347 . S
C63 H68 0.931 . S
C64 N65 1.375 . S
C64 C67 1.350 . S
C64 H69 0.930 . S
N65 Co60 2.057 . S
N65 C63 1.316 . S
N65 C64 1.375 . S
N66 C63 1.347 . S
N66 C67 1.373 . S
C67 C64 1.350 . S
C67 N66 1.373 . S
C67 H88 0.931 . S
H68 C63 0.931 . S
H69 C64 0.930 . S
C70 O77 1.259 1_445 S
C70 O78 1.258 . S
N71 Co62 2.057 . S
N71 C72 1.316 . S
N71 C73 1.375 . S
C72 N71 1.316 . S
C72 N74 1.347 . S
C72 H83 0.931 . S
C73 N71 1.375 . S
C73 C75 1.350 . S
C73 H82 0.930 . S
N74 C72 1.347 . S
N74 C75 1.373 . S
C75 C73 1.350 . S
C75 N74 1.373 . S
C75 H89 0.931 . S
C76 O79 1.256 . S
C76 O80 1.255 1_545 S
O77 Co60 2.021 . S
O77 C70 1.259 1_665 S
O78 Co62 2.117 . S
O78 C70 1.258 . S
O79 Co62 2.020 1_655 S
O79 C76 1.256 . S
O80 Co60 2.062 . S
O80 C76 1.255 1_565 S
O81 C61 1.259 . S
O81 Co62 2.021 . S
H82 C73 0.930 . S
H83 C72 0.931 . S
O84 Co60 2.117 1_455 S
O84 C61 1.259 1_565 S
O85 Co60 2.020 1_455 S
O85 C87 1.256 . S
O86 Co62 2.062 . S
O86 C87 1.255 1_545 S
C87 O85 1.256 . S
C87 O86 1.255 1_565 S
H88 C67 0.931 . S
H89 C75 0.931 . S
H90 C96 0.930 . S
H91 C100 0.930 . S
H92 C105 0.929 . S
H93 C103 0.929 1_655 S
H94 C98 0.929 . S
H95 C104 0.929 . S
C96 H90 0.930 . S
C96 C97 1.367 1_556 S
C96 C104 1.378 . S
C97 C96 1.367 1_554 S
C97 C105 1.433 1_655 S
C98 H94 0.929 . S
C98 C100 1.378 . S
C98 C102 1.350 . S
C99 C102 1.463 1_655 S
C99 C104 1.350 1_554 S
C99 N107 1.427 1_655 S
C100 H91 0.930 . S
C100 C98 1.378 . S
C100 C101 1.367 . S
C101 C100 1.367 . S
C101 C103 1.433 1_554 S
C102 C98 1.350 . S
C102 C99 1.463 1_455 S
C102 N106 1.427 1_454 S
C103 H93 0.929 1_455 S
C103 C101 1.433 1_556 S
C103 N106 1.384 1_455 S
C104 H95 0.929 . S
C104 C96 1.378 . S
C104 C99 1.350 1_556 S
C105 H92 0.929 . S
C105 C97 1.433 1_455 S
C105 N107 1.384 . S
N106 C102 1.427 1_656 S
N106 C103 1.384 1_655 S
N107 C99 1.427 1_455 S
N107 C105 1.384 . S
H108 C114 0.930 . S
H109 C118 0.930 . S
H110 C123 0.929 . S
H111 C121 0.929 . S
H112 C116 0.929 . S
H113 C122 0.929 . S
C114 H108 0.930 . S
C114 C115 1.367 . S
C114 C122 1.378 . S
C115 C114 1.367 . S
C115 C123 1.433 . S
C116 H112 0.929 . S
C116 C118 1.378 . S
C116 C120 1.350 . S
C117 C120 1.463 1_545 S
C117 C122 1.350 . S
C117 N125 1.427 . S
C118 H109 0.930 . S
C118 C116 1.378 . S
C118 C119 1.367 . S
C119 C118 1.367 . S
C119 C121 1.433 . S
C120 C116 1.350 . S
C120 C117 1.463 1_565 S
C120 N124 1.427 . S
C121 H111 0.929 . S
C121 C119 1.433 . S
C121 N124 1.384 . S
C122 H113 0.929 . S
C122 C114 1.378 . S
C122 C117 1.350 . S
C123 H110 0.929 . S
C123 C115 1.433 . S
C123 N125 1.384 . S
N124 C120 1.427 . S
N124 C121 1.384 . S
N125 C117 1.427 . S
N125 C123 1.384 . S
H126 C132 0.930 . S
H127 C136 0.930 . S
H128 C141 0.929 . S
H129 C139 0.929 . S
H130 C134 0.929 . S
H131 C140 0.929 . S
C132 H126 0.930 . S
C132 C133 1.367 . S
C132 C140 1.378 . S
C133 C132 1.367 . S
C133 C141 1.433 . S
C134 H130 0.929 . S
C134 C136 1.378 . S
C134 C138 1.350 . S
C135 C138 1.463 . S
C135 C140 1.350 . S
C135 N143 1.427 . S
C136 H127 0.930 . S
C136 C134 1.378 . S
C136 C137 1.367 . S
C137 C136 1.367 . S
C137 C139 1.433 . S
C138 C134 1.350 . S
C138 C135 1.463 . S
C138 N142 1.427 . S
C139 H129 0.929 . S
C139 C137 1.433 . S
C139 N142 1.384 . S
C140 H131 0.929 . S
C140 C132 1.378 . S
C140 C135 1.350 . S
C141 H128 0.929 . S
C141 C133 1.433 . S
C141 N143 1.384 . S
N142 C138 1.427 . S
N142 C139 1.384 . S
N143 C135 1.427 . S
N143 C141 1.384 . S
H144 C150 0.930 . S
H145 C154 0.930 . S
H146 C159 0.929 . S
H147 C157 0.929 . S
H148 C152 0.929 . S
H149 C158 0.929 . S
C150 H144 0.930 . S
C150 C151 1.367 . S
C150 C158 1.378 . S
C151 C150 1.367 . S
C151 C159 1.433 1_545 S
C152 H148 0.929 . S
C152 C154 1.378 . S
C152 C156 1.350 1_565 S
C153 C156 1.463 . S
C153 C158 1.350 . S
C153 N161 1.427 1_545 S
C154 H145 0.930 . S
C154 C152 1.378 . S
C154 C155 1.367 . S
C155 C154 1.367 . S
C155 C157 1.433 1_565 S
C156 C152 1.350 1_545 S
C156 C153 1.463 . S
C156 N160 1.427 . S
C157 H147 0.929 . S
C157 C155 1.433 1_545 S
C157 N160 1.384 . S
C158 H149 0.929 . S
C158 C150 1.378 . S
C158 C153 1.350 . S
C159 H146 0.929 . S
C159 C151 1.433 1_565 S
C159 N161 1.384 . S
N160 C156 1.427 . S
N160 C157 1.384 . S
N161 C153 1.427 1_565 S
N161 C159 1.384 . S
H162 C168 0.929 1_556 S
H163 C172 0.930 . S
H164 C177 0.929 . S
H165 C175 0.931 . S
H166 C170 0.929 . S
H167 C176 0.928 1_556 S
C168 H162 0.929 1_554 S
C168 C169 1.368 . S
C168 C176 1.378 . S
C169 C168 1.368 . S
C169 C177 1.433 . S
C170 H166 0.929 . S
C170 C172 1.378 . S
C170 C174 1.350 . S
C171 C174 1.463 . S
C171 C176 1.350 . S
C171 N179 1.427 . S
C172 H163 0.930 . S
C172 C170 1.378 . S
C172 C173 1.367 . S
C173 C172 1.367 . S
C173 C175 1.431 1_554 S
C174 C170 1.350 . S
C174 C171 1.463 . S
C174 N178 1.427 1_554 S
C175 H165 0.931 . S
C175 C173 1.431 1_556 S
C175 N178 1.384 . S
C176 H167 0.928 1_554 S
C176 C168 1.378 . S
C176 C171 1.350 . S
C177 H164 0.929 . S
C177 C169 1.433 . S
C177 N179 1.384 . S
N178 C174 1.427 1_556 S
N178 C175 1.384 . S
N179 C171 1.427 . S
N179 C177 1.384 . S
H180 C186 0.930 . S
H181 C190 0.930 . S
H182 C195 0.929 . S
H183 C193 0.929 . S
H184 C188 0.929 . S
H185 C194 0.929 1_655 S
C186 H180 0.930 . S
C186 C187 1.367 . S
C186 C194 1.378 . S
C187 C186 1.367 . S
C187 C195 1.433 . S
C188 H184 0.929 . S
C188 C190 1.378 . S
C188 C192 1.350 . S
C189 C192 1.463 . S
C189 C194 1.350 . S
C189 N197 1.427 . S
C190 H181 0.930 . S
C190 C188 1.378 . S
C190 C191 1.367 . S
C191 C190 1.367 . S
C191 C193 1.433 1_455 S
C192 C188 1.350 . S
C192 C189 1.463 . S
C192 N196 1.427 1_455 S
C193 H183 0.929 . S
C193 C191 1.433 1_655 S
C193 N196 1.384 . S
C194 H185 0.929 1_455 S
C194 C186 1.378 . S
C194 C189 1.350 . S
C195 H182 0.929 . S
C195 C187 1.433 . S
C195 N197 1.384 . S
N196 C192 1.427 1_655 S
N196 C193 1.384 . S
N197 C189 1.427 . S
N197 C195 1.384 . S
H198 C204 0.930 . S
H199 C208 0.930 . S
H200 C213 0.929 . S
H201 C211 0.929 . S
H202 C206 0.929 . S
H203 C212 0.929 . S
C204 H198 0.930 . S
C204 C205 1.367 1_665 S
C204 C212 1.378 . S
C205 C204 1.367 1_445 S
C205 C213 1.433 . S
C206 H202 0.929 . S
C206 C208 1.378 . S
C206 C210 1.350 . S
C207 C210 1.463 . S
C207 C212 1.350 1_445 S
C207 N215 1.427 . S
C208 H199 0.930 . S
C208 C206 1.378 . S
C208 C209 1.367 . S
C209 C208 1.367 . S
C209 C211 1.433 1_445 S
C210 C206 1.350 . S
C210 C207 1.463 . S
C210 N214 1.427 1_445 S
C211 H201 0.929 . S
C211 C209 1.433 1_665 S
C211 N214 1.384 . S
C212 H203 0.929 . S
C212 C204 1.378 . S
C212 C207 1.350 1_665 S
C213 H200 0.929 . S
C213 C205 1.433 . S
C213 N215 1.384 . S
N214 C210 1.427 1_665 S
N214 C211 1.384 . S
N215 C207 1.427 . S
N215 C213 1.384 . S
H216 C222 0.930 . S
H217 C226 0.930 . S
H218 C231 0.929 . S
H219 C229 0.929 . S
H220 C224 0.929 . S
H221 C230 0.929 . S
C222 H216 0.930 . S
C222 C223 1.367 . S
C222 C230 1.378 . S
C223 C222 1.367 . S
C223 C231 1.433 1_545 S
C224 H220 0.929 . S
C224 C226 1.378 . S
C224 C228 1.350 1_565 S
C225 C228 1.463 . S
C225 C230 1.350 . S
C225 N233 1.427 1_545 S
C226 H217 0.930 . S
C226 C224 1.378 . S
C226 C227 1.367 1_565 S
C227 C226 1.367 1_545 S
C227 C229 1.433 . S
C228 C224 1.350 1_545 S
C228 C225 1.463 . S
C228 N232 1.427 . S
C229 H219 0.929 . S
C229 C227 1.433 . S
C229 N232 1.384 . S
C230 H221 0.929 . S
C230 C222 1.378 . S
C230 C225 1.350 . S
C231 H218 0.929 . S
C231 C223 1.433 1_565 S
C231 N233 1.384 . S
N232 C228 1.427 . S
N232 C229 1.384 . S
N233 C225 1.427 1_565 S
N233 C231 1.384 . S
H234 C240 0.930 . S
H235 C244 0.930 . S
H236 C249 0.929 . S
H237 C247 0.929 . S
H238 C242 0.929 . S
H239 C248 0.929 . S
C240 H234 0.930 . S
C240 C241 1.367 1_565 S
C240 C248 1.378 . S
C241 C240 1.367 1_545 S
C241 C249 1.433 . S
C242 H238 0.929 . S
C242 C244 1.378 . S
C242 C246 1.350 . S
C243 C246 1.463 . S
C243 C248 1.350 1_545 S
C243 N251 1.427 . S
C244 H235 0.930 . S
C244 C242 1.378 . S
C244 C245 1.367 . S
C245 C244 1.367 . S
C245 C247 1.433 1_545 S
C246 C242 1.350 . S
C246 C243 1.463 . S
C246 N250 1.427 1_545 S
C247 H237 0.929 . S
C247 C245 1.433 1_565 S
C247 N250 1.384 . S
C248 H239 0.929 . S
C248 C240 1.378 . S
C248 C243 1.350 1_565 S
C249 H236 0.929 . S
C249 C241 1.433 . S
C249 N251 1.384 . S
N250 C246 1.427 1_565 S
N250 C247 1.384 . S
N251 C243 1.427 . S
N251 C249 1.384 . S
C97 N14 0.406 . S
C101 N6 0.404 . S
C115 N36 0.433 . S
C119 N44 0.433 . S
C133 N66 0.366 . S
C137 N74 0.366 . S
C151 C76 2.690 . S
C155 C87 2.690 . S
C169 C16 2.684 . S
C173 C27 2.684 . S
C187 C57 2.685 . S
C191 C46 2.685 . S
C205 C31 1.496 . S
C209 C10 1.495 . S
C223 C40 1.500 . S
C227 C61 1.499 . S
C241 C70 1.495 . S
C245 C1 1.498 . S
