# Generated by pormake.
# Topology whc, (6)-cn, num edge types: 1
# Building blocks:
#     Node 0, Type 0, BuildingBlock: IZENUY_clean_sbu_0, # of connection points: 6
#     Node 1, Type 0, BuildingBlock: IZENUY_clean_sbu_0, # of connection points: 6
#     Node 2, Type 0, BuildingBlock: IZENUY_clean_sbu_0, # of connection points: 6
#     Node 3, Type 0, BuildingBlock: IZENUY_clean_sbu_0, # of connection points: 6
#     Node 4, Type 0, BuildingBlock: IZENUY_clean_sbu_0, # of connection points: 6
#     Node 5, Type 0, BuildingBlock: IZENUY_clean_sbu_0, # of connection points: 6
#     Node 6, Type 0, BuildingBlock: IZENUY_clean_sbu_0, # of connection points: 6
#     Node 7, Type 0, BuildingBlock: IZENUY_clean_sbu_0, # of connection points: 6
#     Edge 8, Type (0, 0), None
#     Edge 9, Type (0, 0), None
#     Edge 10, Type (0, 0), None
#     Edge 11, Type (0, 0), None
#     Edge 12, Type (0, 0), None
#     Edge 13, Type (0, 0), None
#     Edge 14, Type (0, 0), None
#     Edge 15, Type (0, 0), None
#     Edge 16, Type (0, 0), None
#     Edge 17, Type (0, 0), None
#     Edge 18, Type (0, 0), None
#     Edge 19, Type (0, 0), None
#     Edge 20, Type (0, 0), None
#     Edge 21, Type (0, 0), None
#     Edge 22, Type (0, 0), None
#     Edge 23, Type (0, 0), None
#     Edge 24, Type (0, 0), None
#     Edge 25, Type (0, 0), None
#     Edge 26, Type (0, 0), None
#     Edge 27, Type (0, 0), None
#     Edge 28, Type (0, 0), None
#     Edge 29, Type (0, 0), None
#     Edge 30, Type (0, 0), None
#     Edge 31, Type (0, 0), None
# Relax obj value: 0.364
# Max RMSD: 0.284
# Mean RMSD: 0.283
data_MOF--net-whc--node1-IZENUY_clean_sbu_0--edge1-none
_symmetry_space_group_name_H-M    P1
_symmetry_Int_Tables_number       1
_symmetry_cell_setting            triclinic
loop_
_symmetry_equiv_pos_as_xyz
'x, y, z'
_cell_length_a     16.353655
_cell_length_b     16.353364
_cell_length_c     13.18243
_cell_angle_alpha  90.495361
_cell_angle_beta   89.502894
_cell_angle_gamma 89.445724
loop_
_atom_site_label
_atom_site_type_symbol
_atom_site_fract_x
_atom_site_fract_y
_atom_site_fract_z
_atom_type_partial_charge
Fe0 Fe 0.58575 0.2024 0.12194 0.0
Fe1 Fe 0.40037 0.1927 0.08757 0.0
O2 O 0.48542 0.24351 0.14084 0.0
Fe3 Fe 0.4754 0.3329 0.21122 0.0
O4 O 0.55222 0.38457 0.13244 0.0
O5 O 0.64278 0.29149 0.1576 0.0
O6 O 0.57898 0.23687 0.98994 0.0
C7 C 0.51827 0.21855 0.9338 0.0
C8 C 0.56796 0.22016 0.32481 0.0
O9 O 0.46166 0.17148 0.96882 0.0
C10 C 0.32985 0.267 0.27317 0.0
O11 O 0.55346 0.10306 0.08544 0.0
O12 O 0.43231 0.09659 0.15261 0.0
O13 O 0.54897 0.29483 0.30576 0.0
O14 O 0.58782 0.17033 0.25414 0.0
C15 C 0.36423 0.35127 0.04296 0.0
O16 O 0.32248 0.22288 0.19219 0.0
O17 O 0.40064 0.2882 0.29607 0.0
C18 C 0.50277 0.06439 0.13593 0.0
O19 O 0.3644 0.27781 1.01786 0.0
O20 O 0.39864 0.37752 0.12369 0.0
C21 C 0.6258 0.36111 0.12831 0.0
Fe22 Fe 0.17366 0.67033 0.98856 0.0
Fe23 Fe 0.21888 0.49539 0.96058 0.0
O24 O 0.22885 0.59099 0.94416 0.0
Fe25 Fe 0.33093 0.58741 0.92004 0.0
O26 O 0.35194 0.61366 0.04998 0.0
O27 O 0.26251 0.71721 0.05466 0.0
O28 O 0.15085 0.62235 0.11236 0.0
C29 C 0.19369 0.5651 0.15138 0.0
C30 C 0.27933 0.73714 0.84402 0.0
O31 O 0.22968 0.5115 0.09669 0.0
C32 C 0.24493 0.51903 0.75714 0.0
O33 O 0.08028 0.62037 0.93382 0.0
O34 O 0.10896 0.49029 0.9747 0.0
O35 O 0.33195 0.69616 0.89134 0.0
O36 O 0.20262 0.72341 0.86419 0.0
C37 C 0.31451 0.40584 0.9821 0.0
O38 O 0.20405 0.48032 0.8234 0.0
O39 O 0.30629 0.56183 0.78558 0.0
C40 C 0.05819 0.54477 0.94748 0.0
O41 O 0.23701 0.39334 0.97769 0.0
O42 O 0.34755 0.4754 0.95749 0.0
C43 C 0.3263 0.68019 0.08951 0.0
Fe44 Fe 0.65102 0.86621 0.10296 0.0
Fe45 Fe 0.57839 0.70741 0.17434 0.0
O46 O 0.57722 0.80886 0.15158 0.0
Fe47 Fe 0.48016 0.81898 0.14641 0.0
O48 O 0.48537 0.80389 1.01018 0.0
O49 O 0.5936 0.88306 0.98325 0.0
O50 O 0.70083 0.78134 1.03449 0.0
C51 C 0.6668 0.7178 0.99782 0.0
C52 C 0.524 0.97846 0.15202 0.0
O53 O 0.60359 0.68682 1.04081 0.0
C54 C 0.5164 0.79304 0.34173 0.0
O55 O 0.71219 0.84043 0.22197 0.0
O56 O 0.68878 0.7089 0.19945 0.0
O57 O 0.47035 0.92715 0.1291 0.0
O58 O 0.60001 0.95728 0.16243 0.0
C59 C 0.38854 0.72674 0.14132 0.0
O60 O 0.55703 0.73053 0.30959 0.0
O61 O 0.47627 0.83684 0.28106 0.0
C62 C 0.7304 0.76441 0.24202 0.0
O63 O 0.46196 0.69204 0.14843 0.0
O64 O 0.37769 0.80429 0.14539 0.0
C65 C 0.53578 0.83714 0.95045 0.0
Fe66 Fe 0.81045 0.57178 0.93779 0.0
Fe67 Fe 0.70188 0.47809 0.88685 0.0
O68 O 0.80028 0.47549 0.92695 0.0
Fe69 Fe 0.85022 0.39993 0.98451 0.0
O70 O 0.86315 0.45831 0.10234 0.0
O71 O 0.7834 0.5656 0.07288 0.0
O72 O 0.79479 0.67431 0.94165 0.0
C73 C 0.71715 0.66431 0.93438 0.0
C74 C 0.9705 0.52034 0.94555 0.0
O75 O 0.68457 0.59349 0.91136 0.0
C76 C 0.7604 0.31891 0.83719 0.0
O77 O 0.84055 0.57779 0.80463 0.0
O78 O 0.74171 0.49488 0.75808 0.0
O79 O 0.94872 0.4442 0.93534 0.0
O80 O 0.91841 0.57611 0.96646 0.0
C81 C 0.68649 0.39957 0.06398 0.0
O82 O 0.70315 0.36694 0.86611 0.0
O83 O 0.83389 0.33502 0.86631 0.0
C84 C 0.80551 0.53637 0.73658 0.0
O85 O 0.6633 0.4605 1.01279 0.0
O86 O 0.75421 0.3608 0.04384 0.0
C87 C 0.81528 0.51521 0.13368 0.0
Fe88 Fe 0.58657 0.33178 0.66223 0.0
Fe89 Fe 0.6695 0.1745 0.59373 0.0
O90 O 0.59016 0.22969 0.63813 0.0
Fe91 Fe 0.49456 0.21973 0.62171 0.0
O92 O 0.39251 0.23786 0.6046 0.0
O93 O 0.47457 0.34839 0.62477 0.0
O94 O 0.61283 0.35277 0.53229 0.0
C95 C 0.67937 0.32713 0.49278 0.0
C96 C 0.51819 0.24579 0.82514 0.0
O97 O 0.71638 0.26335 0.52764 0.0
C98 C 0.54393 0.05904 0.63482 0.0
O99 O 0.69531 0.33283 0.69095 0.0
O100 O 0.72259 0.20345 0.7181 0.0
O101 O 0.47949 0.2049 0.75888 0.0
O102 O 0.56098 0.30716 0.79669 0.0
C103 C 0.56425 0.19451 0.43091 0.0
O104 O 0.61953 0.08112 0.64846 0.0
O105 O 0.48945 0.10981 0.6076 0.0
C106 C 0.73625 0.28017 0.73826 0.0
O107 O 0.62153 0.15169 0.46992 0.0
O108 O 0.51067 0.23052 0.4856 0.0
C109 C 0.40502 0.31536 0.60013 0.0
Fe110 Fe 0.19187 0.40119 0.49469 0.0
Fe111 Fe 0.33208 0.47627 0.37106 0.0
O112 O 0.24267 0.48626 0.44143 0.0
Fe113 Fe 0.20154 0.58659 0.46034 0.0
O114 O 0.23601 0.57981 0.59234 0.0
O115 O 0.17064 0.46247 0.61345 0.0
O116 O 0.27698 0.36523 0.56438 0.0
C117 C 0.35044 0.3651 0.5393 0.0
C118 C 0.06355 0.5036 0.44633 0.0
O119 O 0.37669 0.39952 0.45858 0.0
C120 C 0.21933 0.56881 0.25748 0.0
O121 O 0.22203 0.32333 0.39005 0.0
O122 O 0.28746 0.4015 0.28618 0.0
O123 O 0.10222 0.55428 0.49684 0.0
O124 O 0.09575 0.43314 0.42966 0.0
C125 C 0.36025 0.62668 0.45399 0.0
O126 O 0.294 0.54984 0.27653 0.0
O127 O 0.16949 0.58866 0.32814 0.0
C128 C 0.26616 0.33074 0.30909 0.0
O129 O 0.38371 0.5531 0.44986 0.0
O130 O 0.29063 0.64365 0.4247 0.0
C131 C 0.2177 0.51909 0.64848 0.0
Fe132 Fe 0.39907 0.85108 0.59779 0.0
Fe133 Fe 0.57092 0.8113 0.64448 0.0
O134 O 0.47464 0.80113 0.65534 0.0
Fe135 Fe 0.47725 0.70272 0.69542 0.0
O136 O 0.45964 0.66417 0.56947 0.0
O137 O 0.35993 0.75507 0.53847 0.0
O138 O 0.45745 0.86402 0.47995 0.0
C139 C 0.51434 0.81615 0.4486 0.0
C140 C 0.31811 0.76124 0.7451 0.0
O141 O 0.56473 0.78426 0.5094 0.0
C142 C 0.53555 0.80632 0.84569 0.0
O143 O 0.44336 0.94957 0.64696 0.0
O144 O 0.57526 0.91926 0.61582 0.0
O145 O 0.36612 0.70397 0.71621 0.0
O146 O 0.33416 0.83475 0.71598 0.0
C147 C 0.66346 0.71798 0.64777 0.0
O148 O 0.57696 0.84138 0.77764 0.0
O149 O 0.49407 0.74252 0.82419 0.0
C150 C 0.51949 0.97135 0.63674 0.0
O151 O 0.67344 0.79562 0.64059 0.0
O152 O 0.59265 0.68542 0.67087 0.0
C153 C 0.3987 0.68736 0.51831 0.0
Fe154 Fe 0.86539 0.65185 0.47933 0.0
Fe155 Fe 0.70658 0.57922 0.40797 0.0
O156 O 0.80803 0.57806 0.43071 0.0
Fe157 Fe 0.81815 0.48099 0.43586 0.0
O158 O 0.80309 0.48618 0.5721 0.0
O159 O 0.88225 0.59442 0.59904 0.0
O160 O 0.78054 0.70165 0.54783 0.0
C161 C 0.71703 0.66757 0.5845 0.0
C162 C 0.97763 0.52483 0.43024 0.0
O163 O 0.68601 0.60439 0.54151 0.0
C164 C 0.79219 0.51726 0.24056 0.0
O165 O 0.8396 0.71305 0.36034 0.0
O166 O 0.70805 0.68961 0.38288 0.0
O167 O 0.92632 0.47117 0.45315 0.0
O168 O 0.95645 0.60084 0.41983 0.0
C169 C 0.72592 0.38937 0.44095 0.0
O170 O 0.72967 0.55788 0.27271 0.0
O171 O 0.83599 0.47713 0.30121 0.0
C172 C 0.76357 0.73121 0.34032 0.0
O173 O 0.69122 0.46279 0.43387 0.0
O174 O 0.80347 0.37851 0.43687 0.0
C175 C 0.83636 0.53657 0.63183 0.0
loop_
_geom_bond_atom_site_label_1
_geom_bond_atom_site_label_2
_geom_bond_distance
_geom_bond_site_symmetry_2
_ccdc_geom_bond_type
Fe0 O2 1.918 . S
Fe0 O5 1.997 . S
Fe0 O6 2.002 1_554 S
Fe0 O11 1.976 . S
Fe0 O14 1.996 . S
Fe1 O2 1.918 . S
Fe1 O9 1.997 1_554 S
Fe1 O12 1.996 . S
Fe1 O16 1.976 . S
Fe1 O19 2.002 1_554 S
O2 Fe0 1.918 . S
O2 Fe1 1.918 . S
O2 Fe3 1.918 . S
Fe3 O2 1.918 . S
Fe3 O4 2.002 . S
Fe3 O13 1.976 . S
Fe3 O17 1.996 . S
Fe3 O20 1.997 . S
O4 Fe3 2.002 . S
O4 C21 1.295 . S
O5 Fe0 1.997 . S
O5 C21 1.235 . S
O6 Fe0 2.002 1_556 S
O6 C7 1.295 . S
C7 O6 1.295 . S
C7 O9 1.235 . S
C8 O13 1.287 . S
C8 O14 1.255 . S
O9 Fe1 1.997 1_556 S
O9 C7 1.235 . S
C10 O16 1.287 . S
C10 O17 1.255 . S
O11 Fe0 1.976 . S
O11 C18 1.287 . S
O12 Fe1 1.996 . S
O12 C18 1.255 . S
O13 Fe3 1.976 . S
O13 C8 1.287 . S
O14 Fe0 1.996 . S
O14 C8 1.255 . S
C15 O19 1.295 . S
C15 O20 1.235 1_556 S
O16 Fe1 1.976 . S
O16 C10 1.287 . S
O17 Fe3 1.996 . S
O17 C10 1.255 . S
C18 O11 1.287 . S
C18 O12 1.255 . S
O19 Fe1 2.002 1_556 S
O19 C15 1.295 . S
O20 Fe3 1.997 . S
O20 C15 1.235 1_554 S
C21 O4 1.295 . S
C21 O5 1.235 . S
Fe22 O24 1.918 . S
Fe22 O27 1.997 1_556 S
Fe22 O28 2.002 1_556 S
Fe22 O33 1.976 . S
Fe22 O36 1.996 . S
Fe23 O24 1.918 . S
Fe23 O31 1.997 1_556 S
Fe23 O34 1.996 . S
Fe23 O38 1.976 . S
Fe23 O41 2.002 . S
O24 Fe22 1.918 . S
O24 Fe23 1.918 . S
O24 Fe25 1.918 . S
Fe25 O24 1.918 . S
Fe25 O26 2.002 . S
Fe25 O35 1.976 . S
Fe25 O39 1.996 . S
Fe25 O42 1.997 . S
O26 Fe25 2.002 . S
O26 C43 1.295 1_556 S
O27 Fe22 1.997 1_554 S
O27 C43 1.235 . S
O28 Fe22 2.002 1_554 S
O28 C29 1.295 . S
C29 O28 1.295 . S
C29 O31 1.235 . S
C30 O35 1.287 . S
C30 O36 1.255 . S
O31 Fe23 1.997 1_554 S
O31 C29 1.235 . S
C32 O38 1.287 . S
C32 O39 1.255 . S
O33 Fe22 1.976 . S
O33 C40 1.287 . S
O34 Fe23 1.996 . S
O34 C40 1.255 . S
O35 Fe25 1.976 . S
O35 C30 1.287 . S
O36 Fe22 1.996 . S
O36 C30 1.255 . S
C37 O41 1.295 . S
C37 O42 1.235 . S
O38 Fe23 1.976 . S
O38 C32 1.287 . S
O39 Fe25 1.996 . S
O39 C32 1.255 . S
C40 O33 1.287 . S
C40 O34 1.255 . S
O41 Fe23 2.002 . S
O41 C37 1.295 . S
O42 Fe25 1.997 . S
O42 C37 1.235 . S
C43 O26 1.295 1_554 S
C43 O27 1.235 . S
Fe44 O46 1.918 . S
Fe44 O49 1.997 1_554 S
Fe44 O50 2.002 1_554 S
Fe44 O55 1.976 . S
Fe44 O58 1.996 . S
Fe45 O46 1.918 . S
Fe45 O53 1.997 . S
Fe45 O56 1.996 . S
Fe45 O60 1.976 . S
Fe45 O63 2.002 . S
O46 Fe44 1.918 . S
O46 Fe45 1.918 . S
O46 Fe47 1.918 . S
Fe47 O46 1.918 . S
Fe47 O48 2.002 1_554 S
Fe47 O57 1.976 . S
Fe47 O61 1.996 . S
Fe47 O64 1.997 . S
O48 Fe47 2.002 1_556 S
O48 C65 1.295 . S
O49 Fe44 1.997 1_556 S
O49 C65 1.235 . S
O50 Fe44 2.002 1_556 S
O50 C51 1.295 . S
C51 O50 1.295 . S
C51 O53 1.235 1_556 S
C52 O57 1.287 . S
C52 O58 1.255 . S
O53 Fe45 1.997 . S
O53 C51 1.235 1_554 S
C54 O60 1.287 . S
C54 O61 1.255 . S
O55 Fe44 1.976 . S
O55 C62 1.287 . S
O56 Fe45 1.996 . S
O56 C62 1.255 . S
O57 Fe47 1.976 . S
O57 C52 1.287 . S
O58 Fe44 1.996 . S
O58 C52 1.255 . S
C59 O63 1.295 . S
C59 O64 1.235 . S
O60 Fe45 1.976 . S
O60 C54 1.287 . S
O61 Fe47 1.996 . S
O61 C54 1.255 . S
C62 O55 1.287 . S
C62 O56 1.255 . S
O63 Fe45 2.002 . S
O63 C59 1.295 . S
O64 Fe47 1.997 . S
O64 C59 1.235 . S
C65 O48 1.295 . S
C65 O49 1.235 . S
Fe66 O68 1.918 . S
Fe66 O71 1.997 1_556 S
Fe66 O72 2.002 . S
Fe66 O77 1.976 . S
Fe66 O80 1.996 . S
Fe67 O68 1.918 . S
Fe67 O75 1.997 . S
Fe67 O78 1.996 . S
Fe67 O82 1.976 . S
Fe67 O85 2.002 . S
O68 Fe66 1.918 . S
O68 Fe67 1.918 . S
O68 Fe69 1.918 . S
Fe69 O68 1.918 . S
Fe69 O70 2.002 1_556 S
Fe69 O79 1.976 . S
Fe69 O83 1.996 . S
Fe69 O86 1.997 1_556 S
O70 Fe69 2.002 1_554 S
O70 C87 1.295 . S
O71 Fe66 1.997 1_554 S
O71 C87 1.235 . S
O72 Fe66 2.002 . S
O72 C73 1.295 . S
C73 O72 1.295 . S
C73 O75 1.235 . S
C74 O79 1.287 . S
C74 O80 1.255 . S
O75 Fe67 1.997 . S
O75 C73 1.235 . S
C76 O82 1.287 . S
C76 O83 1.255 . S
O77 Fe66 1.976 . S
O77 C84 1.287 . S
O78 Fe67 1.996 . S
O78 C84 1.255 . S
O79 Fe69 1.976 . S
O79 C74 1.287 . S
O80 Fe66 1.996 . S
O80 C74 1.255 . S
C81 O85 1.295 1_554 S
C81 O86 1.235 . S
O82 Fe67 1.976 . S
O82 C76 1.287 . S
O83 Fe69 1.996 . S
O83 C76 1.255 . S
C84 O77 1.287 . S
C84 O78 1.255 . S
O85 Fe67 2.002 . S
O85 C81 1.295 1_556 S
O86 Fe69 1.997 1_554 S
O86 C81 1.235 . S
C87 O70 1.295 . S
C87 O71 1.235 . S
Fe88 O90 1.918 . S
Fe88 O93 1.997 . S
Fe88 O94 2.002 . S
Fe88 O99 1.976 . S
Fe88 O102 1.996 . S
Fe89 O90 1.918 . S
Fe89 O97 1.997 . S
Fe89 O100 1.996 . S
Fe89 O104 1.976 . S
Fe89 O107 2.002 . S
O90 Fe88 1.918 . S
O90 Fe89 1.918 . S
O90 Fe91 1.918 . S
Fe91 O90 1.918 . S
Fe91 O92 2.002 . S
Fe91 O101 1.976 . S
Fe91 O105 1.996 . S
Fe91 O108 1.997 . S
O92 Fe91 2.002 . S
O92 C109 1.295 . S
O93 Fe88 1.997 . S
O93 C109 1.235 . S
O94 Fe88 2.002 . S
O94 C95 1.295 . S
C95 O94 1.295 . S
C95 O97 1.235 . S
C96 O101 1.287 . S
C96 O102 1.255 . S
O97 Fe89 1.997 . S
O97 C95 1.235 . S
C98 O104 1.287 . S
C98 O105 1.255 . S
O99 Fe88 1.976 . S
O99 C106 1.287 . S
O100 Fe89 1.996 . S
O100 C106 1.255 . S
O101 Fe91 1.976 . S
O101 C96 1.287 . S
O102 Fe88 1.996 . S
O102 C96 1.255 . S
C103 O107 1.295 . S
C103 O108 1.235 . S
O104 Fe89 1.976 . S
O104 C98 1.287 . S
O105 Fe91 1.996 . S
O105 C98 1.255 . S
C106 O99 1.287 . S
C106 O100 1.255 . S
O107 Fe89 2.002 . S
O107 C103 1.295 . S
O108 Fe91 1.997 . S
O108 C103 1.235 . S
C109 O92 1.295 . S
C109 O93 1.235 . S
Fe110 O112 1.918 . S
Fe110 O115 1.997 . S
Fe110 O116 2.002 . S
Fe110 O121 1.976 . S
Fe110 O124 1.996 . S
Fe111 O112 1.918 . S
Fe111 O119 1.997 . S
Fe111 O122 1.996 . S
Fe111 O126 1.976 . S
Fe111 O129 2.002 . S
O112 Fe110 1.918 . S
O112 Fe111 1.918 . S
O112 Fe113 1.918 . S
Fe113 O112 1.918 . S
Fe113 O114 2.002 . S
Fe113 O123 1.976 . S
Fe113 O127 1.996 . S
Fe113 O130 1.997 . S
O114 Fe113 2.002 . S
O114 C131 1.295 . S
O115 Fe110 1.997 . S
O115 C131 1.235 . S
O116 Fe110 2.002 . S
O116 C117 1.295 . S
C117 O116 1.295 . S
C117 O119 1.235 . S
C118 O123 1.287 . S
C118 O124 1.255 . S
O119 Fe111 1.997 . S
O119 C117 1.235 . S
C120 O126 1.287 . S
C120 O127 1.255 . S
O121 Fe110 1.976 . S
O121 C128 1.287 . S
O122 Fe111 1.996 . S
O122 C128 1.255 . S
O123 Fe113 1.976 . S
O123 C118 1.287 . S
O124 Fe110 1.996 . S
O124 C118 1.255 . S
C125 O129 1.295 . S
C125 O130 1.235 . S
O126 Fe111 1.976 . S
O126 C120 1.287 . S
O127 Fe113 1.996 . S
O127 C120 1.255 . S
C128 O121 1.287 . S
C128 O122 1.255 . S
O129 Fe111 2.002 . S
O129 C125 1.295 . S
O130 Fe113 1.997 . S
O130 C125 1.235 . S
C131 O114 1.295 . S
C131 O115 1.235 . S
Fe132 O134 1.918 . S
Fe132 O137 1.997 . S
Fe132 O138 2.002 . S
Fe132 O143 1.976 . S
Fe132 O146 1.996 . S
Fe133 O134 1.918 . S
Fe133 O141 1.997 . S
Fe133 O144 1.996 . S
Fe133 O148 1.976 . S
Fe133 O151 2.002 . S
O134 Fe132 1.918 . S
O134 Fe133 1.918 . S
O134 Fe135 1.918 . S
Fe135 O134 1.918 . S
Fe135 O136 2.002 . S
Fe135 O145 1.976 . S
Fe135 O149 1.996 . S
Fe135 O152 1.997 . S
O136 Fe135 2.002 . S
O136 C153 1.295 . S
O137 Fe132 1.997 . S
O137 C153 1.235 . S
O138 Fe132 2.002 . S
O138 C139 1.295 . S
C139 O138 1.295 . S
C139 O141 1.235 . S
C140 O145 1.287 . S
C140 O146 1.255 . S
O141 Fe133 1.997 . S
O141 C139 1.235 . S
C142 O148 1.287 . S
C142 O149 1.255 . S
O143 Fe132 1.976 . S
O143 C150 1.287 . S
O144 Fe133 1.996 . S
O144 C150 1.255 . S
O145 Fe135 1.976 . S
O145 C140 1.287 . S
O146 Fe132 1.996 . S
O146 C140 1.255 . S
C147 O151 1.295 . S
C147 O152 1.235 . S
O148 Fe133 1.976 . S
O148 C142 1.287 . S
O149 Fe135 1.996 . S
O149 C142 1.255 . S
C150 O143 1.287 . S
C150 O144 1.255 . S
O151 Fe133 2.002 . S
O151 C147 1.295 . S
O152 Fe135 1.997 . S
O152 C147 1.235 . S
C153 O136 1.295 . S
C153 O137 1.235 . S
Fe154 O156 1.918 . S
Fe154 O159 1.997 . S
Fe154 O160 2.002 . S
Fe154 O165 1.976 . S
Fe154 O168 1.996 . S
Fe155 O156 1.918 . S
Fe155 O163 1.997 . S
Fe155 O166 1.996 . S
Fe155 O170 1.976 . S
Fe155 O173 2.002 . S
O156 Fe154 1.918 . S
O156 Fe155 1.918 . S
O156 Fe157 1.918 . S
Fe157 O156 1.918 . S
Fe157 O158 2.002 . S
Fe157 O167 1.976 . S
Fe157 O171 1.996 . S
Fe157 O174 1.997 . S
O158 Fe157 2.002 . S
O158 C175 1.295 . S
O159 Fe154 1.997 . S
O159 C175 1.235 . S
O160 Fe154 2.002 . S
O160 C161 1.295 . S
C161 O160 1.295 . S
C161 O163 1.235 . S
C162 O167 1.287 . S
C162 O168 1.255 . S
O163 Fe155 1.997 . S
O163 C161 1.235 . S
C164 O170 1.287 . S
C164 O171 1.255 . S
O165 Fe154 1.976 . S
O165 C172 1.287 . S
O166 Fe155 1.996 . S
O166 C172 1.255 . S
O167 Fe157 1.976 . S
O167 C162 1.287 . S
O168 Fe154 1.996 . S
O168 C162 1.255 . S
C169 O173 1.295 . S
C169 O174 1.235 . S
O170 Fe155 1.976 . S
O170 C164 1.287 . S
O171 Fe157 1.996 . S
O171 C164 1.255 . S
C172 O165 1.287 . S
C172 O166 1.255 . S
O173 Fe155 2.002 . S
O173 C169 1.295 . S
O174 Fe157 1.997 . S
O174 C169 1.235 . S
C175 O158 1.295 . S
C175 O159 1.235 . S
C128 C10 1.631 . S
C30 C140 1.722 . S
C172 C62 1.631 . S
C76 C106 1.722 . S
C96 C7 1.806 . S
C29 C120 1.790 . S
C65 C142 1.806 . S
C164 C87 1.790 . S
C8 C103 1.790 . S
C131 C32 1.806 . S
C54 C139 1.790 . S
C84 C175 1.806 . S
C37 C15 1.274 . S
C43 C59 1.298 . S
C51 C73 1.274 . S
C81 C21 1.298 . S
C95 C169 1.298 . S
C109 C117 1.274 . S
C153 C125 1.298 . S
C161 C147 1.274 . S
C18 C52 3.059 1_545 S
C74 C40 2.984 1_655 S
C150 C98 2.984 1_565 S
C162 C118 3.060 1_655 S
