# Generated by pormake.
# Topology cdl, (4)-cn, num edge types: 1
# Building blocks:
#     Node 0, Type 0, BuildingBlock: MUDLON_clean_sbu_0, # of connection points: 4
#     Node 1, Type 0, BuildingBlock: MUDLON_clean_sbu_0, # of connection points: 4
#     Node 2, Type 0, BuildingBlock: MUDLON_clean_sbu_0, # of connection points: 4
#     Node 3, Type 0, BuildingBlock: MUDLON_clean_sbu_0, # of connection points: 4
#     Edge 4, Type (0, 0), BuildingBlock: FUNLAD_clean_linker_0, # of connection points: 2
#     Edge 5, Type (0, 0), BuildingBlock: FUNLAD_clean_linker_0, # of connection points: 2
#     Edge 6, Type (0, 0), BuildingBlock: FUNLAD_clean_linker_0, # of connection points: 2
#     Edge 7, Type (0, 0), BuildingBlock: FUNLAD_clean_linker_0, # of connection points: 2
#     Edge 8, Type (0, 0), BuildingBlock: FUNLAD_clean_linker_0, # of connection points: 2
#     Edge 9, Type (0, 0), BuildingBlock: FUNLAD_clean_linker_0, # of connection points: 2
#     Edge 10, Type (0, 0), BuildingBlock: FUNLAD_clean_linker_0, # of connection points: 2
#     Edge 11, Type (0, 0), BuildingBlock: FUNLAD_clean_linker_0, # of connection points: 2
# Relax obj value: 0.001
# Max RMSD: 0.021
# Mean RMSD: 0.019
data_MOF--net-cdl--node1-MUDLON_clean_sbu_0--edge1-FUNLAD_clean_linker_0
_symmetry_space_group_name_H-M    P1
_symmetry_Int_Tables_number       1
_symmetry_cell_setting            triclinic
loop_
_symmetry_equiv_pos_as_xyz
'x, y, z'
_cell_length_a     17.950386
_cell_length_b     17.513198
_cell_length_c     69.874976
_cell_angle_alpha  90.404762
_cell_angle_beta   90.269416
_cell_angle_gamma 90.763463
loop_
_atom_site_label
_atom_site_type_symbol
_atom_site_fract_x
_atom_site_fract_y
_atom_site_fract_z
_atom_type_partial_charge
Mg0 Mg 0.12167 0.99464 0.1442 0.0
C1 C 0.17703 0.15415 0.15372 0.0
O2 O 0.13378 0.1415 0.16849 0.0
C3 C 0.18477 0.84277 0.13119 0.0
O4 O 0.1457 0.85886 0.11583 0.0
C5 C 0.03904 0.04552 0.10858 0.0
O6 O 0.06183 0.11257 0.11501 0.0
O7 O 0.05087 0.98674 0.11871 0.0
O8 O 0.18638 0.10064 0.14157 0.0
O9 O 0.06348 0.99627 0.17167 0.0
C10 C 0.10325 0.97614 0.18587 0.0
O11 O 0.1721 0.95515 0.18266 0.0
O12 O 0.1889 0.89171 0.14471 0.0
Mg13 Mg 0.95708 0.04214 0.64424 0.0
C14 C 0.11073 0.9704 0.64932 0.0
O15 O 0.06813 0.9171 0.65687 0.0
C16 C 0.79559 0.9906 0.64121 0.0
O17 O 0.83118 0.92835 0.63635 0.0
C18 C 0.98111 0.98562 0.60173 0.0
O19 O 0.01363 0.92976 0.61086 0.0
O20 O 0.95181 0.03926 0.61136 0.0
O21 O 0.08129 0.03076 0.64301 0.0
O22 O 0.96274 0.04698 0.67708 0.0
C23 C 0.93798 0.99252 0.6873 0.0
O24 O 0.90846 0.9321 0.6788 0.0
O25 O 0.83275 0.05052 0.64541 0.0
Mg26 Mg 0.11203 0.9891 0.90052 0.0
C27 C 0.19214 0.13113 0.88609 0.0
O28 O 0.17703 0.09763 0.86963 0.0
C29 C 0.12907 0.82373 0.89961 0.0
O30 O 0.05817 0.83583 0.89616 0.0
C31 C 0.08452 0.95024 0.8595 0.0
O32 O 0.14888 0.91819 0.86296 0.0
O33 O 0.05231 0.98589 0.87303 0.0
O34 O 0.17755 0.09545 0.90146 0.0
O35 O 0.04172 0.99146 0.92593 0.0
C36 C 0.02771 0.05442 0.93428 0.0
O37 O 0.04858 0.1185 0.9261 0.0
O38 O 0.17188 0.88127 0.90255 0.0
Mg39 Mg 0.92876 0.17731 0.38997 0.0
C40 C 0.08706 0.22653 0.37964 0.0
O41 O 0.07092 0.18136 0.36508 0.0
C42 C 0.77124 0.22503 0.40062 0.0
O43 O 0.78597 0.17841 0.41474 0.0
C44 C 0.89074 0.12682 0.34968 0.0
O45 O 0.84331 0.18251 0.35205 0.0
O46 O 0.93227 0.1083 0.36369 0.0
O47 O 0.03598 0.24112 0.39174 0.0
O48 O 0.92367 0.1098 0.41616 0.0
C49 C 0.98074 0.10038 0.42673 0.0
O50 O 0.04604 0.12445 0.42066 0.0
O51 O 0.8229 0.2409 0.38873 0.0
C52 C 0.19344 0.29105 0.1635 0.0
C53 C 0.20499 0.2327 0.14997 0.0
C54 C 0.21007 0.36714 0.15917 0.0
C55 C 0.23928 0.38687 0.14116 0.0
C56 C 0.25346 0.32811 0.12791 0.0
C57 C 0.23686 0.25183 0.13227 0.0
C58 C 0.24772 0.46793 0.13501 0.0
C59 C 0.25133 0.52771 0.1473 0.0
C60 C 0.24478 0.60926 0.14154 0.0
C61 C 0.26116 0.66656 0.15517 0.0
C62 C 0.24549 0.74312 0.15146 0.0
C63 C 0.21265 0.76422 0.13401 0.0
H64 H 0.20018 0.58925 0.11285 0.0
C65 C 0.19968 0.70758 0.11999 0.0
C66 C 0.21519 0.63102 0.1237 0.0
H67 H 0.17433 0.72175 0.10639 0.0
H68 H 0.16879 0.27842 0.17726 0.0
H69 H 0.19625 0.4102 0.16968 0.0
H70 H 0.2754 0.34146 0.11389 0.0
H71 H 0.24624 0.20835 0.12148 0.0
H72 H 0.24892 0.4781 0.11972 0.0
H73 H 0.25701 0.51692 0.16251 0.0
H74 H 0.28373 0.65177 0.16904 0.0
H75 H 0.25631 0.78523 0.16259 0.0
C76 C 0.23461 1.01222 0.63715 0.0
C77 C 0.19173 0.96019 0.64777 0.0
C78 C 0.3114 1.0041 0.63584 0.0
C79 C 0.34716 0.94433 0.64539 0.0
C80 C 0.30414 0.89084 0.6555 0.0
C81 C 0.22696 0.89876 0.65673 0.0
C82 C 0.4291 0.93664 0.64495 0.0
C83 C 0.47484 0.99772 0.64338 0.0
C84 C 0.55699 0.99303 0.64306 0.0
C85 C 0.59883 0.05864 0.64784 0.0
C86 C 0.67635 0.05771 0.64732 0.0
C87 C 0.71363 0.99111 0.64184 0.0
H88 H 0.5639 0.87536 0.63305 0.0
C89 C 0.67191 0.92545 0.6369 0.0
C90 C 0.59422 0.92639 0.63743 0.0
H91 H 0.69915 0.87346 0.63247 0.0
H92 H 0.20888 0.0593 0.62975 0.0
H93 H 0.34233 0.04455 0.62723 0.0
H94 H 0.33041 0.84374 0.66276 0.0
H95 H 0.19516 0.85741 0.66489 0.0
H96 H 0.4518 0.8802 0.64712 0.0
H97 H 0.45143 0.0546 0.64322 0.0
H98 H 0.57146 0.11088 0.65207 0.0
H99 H 0.70694 0.10934 0.65117 0.0
C100 C 0.21287 0.25515 0.90399 0.0
C101 C 0.21144 0.21392 0.88661 0.0
C102 C 0.21775 0.33519 0.90405 0.0
C103 C 0.2214 0.37555 0.8867 0.0
C104 C 0.22422 0.33396 0.86948 0.0
C105 C 0.21973 0.25426 0.86942 0.0
C106 C 0.21238 0.45987 0.88571 0.0
C107 C 0.22602 0.50913 0.90028 0.0
C108 C 0.20385 0.59069 0.89927 0.0
C109 C 0.24651 0.64784 0.90859 0.0
C110 C 0.22386 0.72434 0.90835 0.0
C111 C 0.15703 0.74445 0.89923 0.0
H112 H 0.10208 0.56869 0.88312 0.0
C113 C 0.11441 0.68706 0.89002 0.0
C114 C 0.13754 0.61134 0.88998 0.0
H115 H 0.06259 0.7005 0.88287 0.0
H116 H 0.20635 0.22595 0.9175 0.0
H117 H 0.21417 0.36504 0.91762 0.0
H118 H 0.22692 0.36339 0.8559 0.0
H119 H 0.21915 0.22456 0.85577 0.0
H120 H 0.19151 0.48229 0.87227 0.0
H121 H 0.2534 0.48973 0.91321 0.0
H122 H 0.29738 0.63329 0.91604 0.0
H123 H 0.25759 0.76727 0.91567 0.0
C124 C 0.22058 0.23491 0.36916 0.0
C125 C 0.16625 0.2499 0.38312 0.0
C126 C 0.29653 0.24685 0.37305 0.0
C127 C 0.32054 0.27451 0.39105 0.0
C128 C 0.26598 0.2918 0.40479 0.0
C129 C 0.18984 0.28004 0.40087 0.0
C130 C 0.40132 0.27935 0.39662 0.0
C131 C 0.45856 0.27985 0.38405 0.0
C132 C 0.53918 0.27441 0.38959 0.0
C133 C 0.5943 0.29296 0.37604 0.0
C134 C 0.6701 0.28074 0.37988 0.0
C135 C 0.69273 0.24886 0.39734 0.0
H136 H 0.52238 0.22814 0.41808 0.0
C137 C 0.6379 0.23262 0.41113 0.0
C138 C 0.56232 0.24501 0.40733 0.0
H139 H 0.65306 0.20775 0.42473 0.0
H140 H 0.20468 0.21137 0.35533 0.0
H141 H 0.33597 0.23098 0.36212 0.0
H142 H 0.28241 0.31273 0.41884 0.0
H143 H 0.14978 0.29178 0.41202 0.0
H144 H 0.41351 0.28201 0.41184 0.0
H145 H 0.44648 0.28382 0.36886 0.0
H146 H 0.57853 0.31525 0.3622 0.0
H147 H 0.71056 0.29351 0.36886 0.0
C148 C 0.99072 0.9873 0.96459 0.0
C149 C 0.99965 0.05543 0.95425 0.0
C150 C 0.97463 0.9892 0.9842 0.0
C151 C 0.96732 0.05948 0.99392 0.0
C152 C 0.97168 0.12714 0.98328 0.0
C153 C 0.98794 0.12526 0.96373 0.0
C154 C 0.95844 0.06565 1.01512 0.0
C155 C 0.97907 1.0109 0.02752 0.0
C156 C 0.9832 0.02189 0.04872 0.0
C157 C 0.98846 0.9572 0.06042 0.0
C158 C 1.00242 0.9647 0.08009 0.0
C159 C 0.0122 0.0373 0.08852 0.0
H160 H 0.98784 0.14626 0.04897 0.0
C161 C 1.00378 0.10215 0.07699 0.0
C162 C 0.98967 0.09468 0.05735 0.0
H163 H 0.01117 0.15898 0.08298 0.0
H164 H 0.99856 0.93243 0.95769 0.0
H165 H 0.96901 0.93547 0.99161 0.0
H166 H 0.96542 0.18211 0.99027 0.0
H167 H 0.99375 0.17886 0.95621 0.0
H168 H 0.93914 0.1199 0.02064 0.0
H169 H 0.99776 0.95633 0.02205 0.0
H170 H 0.98406 0.9004 0.05423 0.0
H171 H 0.00869 0.91346 0.0885 0.0
C172 C 0.03526 0.06403 0.45847 0.0
C173 C 0.97229 0.07323 0.4467 0.0
C174 C 0.02738 0.04741 0.47793 0.0
C175 C 0.95614 0.03938 0.4861 0.0
C176 C 0.89332 0.04666 0.47422 0.0
C177 C 0.9012 0.06287 0.45473 0.0
C178 C 0.94523 0.02948 0.50709 0.0
C179 C 0.99683 0.99953 0.51885 0.0
C180 C 0.98794 0.99455 0.54001 0.0
C181 C 0.02802 0.93927 0.55005 0.0
C182 C 0.02453 0.93542 0.57002 0.0
C183 C 0.98169 0.98766 0.58048 0.0
H184 H 0.91429 0.09126 0.54331 0.0
C185 C 0.94138 0.04301 0.57045 0.0
C186 C 0.94437 0.04644 0.55044 0.0
H187 H 0.90809 0.08435 0.57807 0.0
H188 H 0.09085 0.07202 0.4528 0.0
H189 H 0.07729 0.04418 0.48661 0.0
H190 H 0.83778 0.04119 0.4801 0.0
H191 H 0.85143 0.06988 0.44613 0.0
H192 H 0.89198 0.04655 0.51295 0.0
H193 H 0.04712 0.97573 0.5128 0.0
H194 H 0.06255 0.89902 0.54243 0.0
H195 H 0.05658 0.89225 0.57727 0.0
C196 C 0.9623 0.04668 0.32623 0.0
C197 C 0.90108 0.09317 0.33033 0.0
C198 C 0.976 0.02234 0.30744 0.0
C199 C 0.92874 0.04422 0.29231 0.0
C200 C 0.86559 0.08733 0.29664 0.0
C201 C 0.85211 0.11188 0.31537 0.0
C202 C 0.94364 0.0247 0.27186 0.0
C203 C 0.01239 1.01091 0.26505 0.0
C204 C 0.03024 0.99782 0.24445 0.0
C205 C 0.09946 0.96614 0.23998 0.0
C206 C 0.12185 0.95753 0.22099 0.0
C207 C 0.07578 0.98086 0.20585 0.0
H208 H 0.93011 0.04631 0.23198 0.0
C209 C 0.00578 1.01142 0.21019 0.0
C210 C 0.98321 0.02002 0.22929 0.0
H211 H 0.96915 0.03038 0.19887 0.0
H212 H 1.00079 0.03069 0.33745 0.0
H213 H 0.02376 0.98674 0.30489 0.0
H214 H 0.82764 0.10423 0.28537 0.0
H215 H 0.804 0.14704 0.31801 0.0
H216 H 0.89662 0.02587 0.26207 0.0
H217 H 0.05917 1.01061 0.27494 0.0
H218 H 0.13707 0.94874 0.25127 0.0
H219 H 0.17613 0.93362 0.21823 0.0
C220 C 0.92078 0.93387 0.71969 0.0
C221 C 0.94385 0.9962 0.7085 0.0
C222 C 0.92834 0.93613 0.73963 0.0
C223 C 0.95945 1.00085 0.74888 0.0
C224 C 0.98035 0.06398 0.73774 0.0
C225 C 0.9731 0.06159 0.71778 0.0
C226 C 0.97141 1.00419 0.77001 0.0
C227 C 0.98441 0.94158 0.78058 0.0
C228 C 0.00558 0.94436 0.8012 0.0
C229 C 0.05177 0.88702 0.80829 0.0
C230 C 0.07598 0.88863 0.8273 0.0
C231 C 0.05325 0.94675 0.83985 0.0
H232 H 0.94398 0.04584 0.80896 0.0
C233 C 1.00444 1.00263 0.83305 0.0
C234 C 0.98113 1.00178 0.81384 0.0
H235 H 0.98597 0.04806 0.84242 0.0
H236 H 0.89723 0.88289 0.71305 0.0
H237 H 0.90929 0.88723 0.74772 0.0
H238 H 1.00386 0.11483 0.74447 0.0
H239 H 0.99094 0.11087 0.70963 0.0
H240 H 0.97618 0.06025 0.77669 0.0
H241 H 0.98682 0.88624 0.77351 0.0
H242 H 0.07086 0.84171 0.79896 0.0
H243 H 0.11308 0.84437 0.83214 0.0
loop_
_geom_bond_atom_site_label_1
_geom_bond_atom_site_label_2
_geom_bond_distance
_geom_bond_site_symmetry_2
_ccdc_geom_bond_type
Mg0 O7 2.142 1_455 S
Mg0 O8 2.048 . S
Mg0 O9 2.048 1_545 S
Mg0 O12 2.141 1_445 S
C1 O2 1.313 . S
C1 O8 1.195 . S
O2 C1 1.313 . S
C3 O4 1.245 . S
C3 O12 1.289 1_455 S
O4 C3 1.245 . S
C5 O6 1.245 . S
C5 O7 1.290 1_455 S
O6 C5 1.245 . S
O7 Mg0 2.142 1_655 S
O7 C5 1.290 1_655 S
O8 Mg0 2.048 . S
O8 C1 1.195 . S
O9 Mg0 2.048 1_565 S
O9 C10 1.195 1_565 S
C10 O9 1.195 1_545 S
C10 O11 1.313 . S
O11 C10 1.313 . S
O12 Mg0 2.141 1_665 S
O12 C3 1.289 1_655 S
Mg13 O20 2.142 . S
Mg13 O21 2.048 . S
Mg13 O22 2.048 1_455 S
Mg13 O25 2.141 1_455 S
C14 O15 1.313 1_545 S
C14 O21 1.195 . S
O15 C14 1.313 1_565 S
C16 O17 1.245 1_545 S
C16 O25 1.289 . S
O17 C16 1.245 1_565 S
C18 O19 1.245 1_545 S
C18 O20 1.290 . S
O19 C18 1.245 1_565 S
O20 Mg13 2.142 . S
O20 C18 1.290 . S
O21 Mg13 2.048 . S
O21 C14 1.195 . S
O22 Mg13 2.048 1_655 S
O22 C23 1.195 1_655 S
C23 O22 1.195 1_455 S
C23 O24 1.313 1_545 S
O24 C23 1.313 1_565 S
O25 Mg13 2.141 1_655 S
O25 C16 1.289 . S
Mg26 O33 2.141 . S
Mg26 O34 2.048 . S
Mg26 O35 2.048 . S
Mg26 O38 2.141 1_545 S
C27 O28 1.313 . S
C27 O34 1.195 1_455 S
O28 C27 1.313 . S
C29 O30 1.245 . S
C29 O38 1.289 1_455 S
O30 C29 1.245 . S
C31 O32 1.245 . S
C31 O33 1.289 1_455 S
O32 C31 1.245 . S
O33 Mg26 2.141 . S
O33 C31 1.289 1_655 S
O34 Mg26 2.048 . S
O34 C27 1.195 1_655 S
O35 Mg26 2.048 . S
O35 C36 1.195 1_655 S
C36 O35 1.195 1_455 S
C36 O37 1.313 . S
O37 C36 1.313 . S
O38 Mg26 2.141 1_565 S
O38 C29 1.289 1_655 S
Mg39 O46 2.141 . S
Mg39 O47 2.048 . S
Mg39 O48 2.048 . S
Mg39 O51 2.141 1_455 S
C40 O41 1.313 1_545 S
C40 O47 1.195 . S
O41 C40 1.313 1_565 S
C42 O43 1.245 1_545 S
C42 O51 1.289 . S
O43 C42 1.245 1_565 S
C44 O45 1.251 . S
C44 O46 1.285 1_565 S
O45 C44 1.251 . S
O46 Mg39 2.141 . S
O46 C44 1.285 1_545 S
O47 Mg39 2.048 . S
O47 C40 1.195 . S
O48 Mg39 2.048 . S
O48 C49 1.195 . S
C49 O48 1.195 . S
C49 O50 1.313 1_545 S
O50 C49 1.313 1_565 S
O51 Mg39 2.141 1_655 S
O51 C42 1.289 . S
C52 C53 1.386 . S
C52 C54 1.383 . S
C52 H68 0.951 . S
C53 C52 1.386 . S
C53 C57 1.383 . S
C54 C52 1.383 . S
C54 C55 1.402 . S
C54 H69 0.951 . S
C55 C54 1.402 . S
C55 C56 1.375 . S
C55 C58 1.481 . S
C56 C55 1.375 . S
C56 C57 1.367 . S
C56 H70 0.951 . S
C57 C53 1.383 . S
C57 C56 1.367 . S
C57 H71 0.950 . S
C58 C55 1.481 . S
C58 C59 1.297 . S
C58 H72 0.950 . S
C59 C58 1.297 . S
C59 C60 1.479 . S
C59 H73 0.950 . S
C60 C59 1.479 . S
C60 C61 1.375 . S
C60 C66 1.404 . S
C61 C60 1.375 . S
C61 C62 1.369 . S
C61 H74 0.950 . S
C62 C61 1.369 . S
C62 C63 1.392 . S
C62 H75 0.951 . S
C63 C62 1.392 . S
C63 C65 1.384 . S
H64 C66 0.949 . S
C65 C63 1.384 . S
C65 C66 1.385 . S
C65 H67 0.950 . S
C66 C60 1.404 . S
C66 H64 0.949 . S
C66 C65 1.385 . S
H67 C65 0.950 . S
H68 C52 0.951 . S
H69 C54 0.951 . S
H70 C56 0.951 . S
H71 C57 0.950 . S
H72 C58 0.950 . S
H73 C59 0.950 . S
H74 C61 0.950 . S
H75 C62 0.951 . S
C76 C77 1.386 . S
C76 C78 1.383 . S
C76 H92 0.951 . S
C77 C76 1.386 . S
C77 C81 1.390 . S
C78 C76 1.383 . S
C78 C79 1.402 . S
C78 H93 0.951 . S
C79 C78 1.402 . S
C79 C80 1.375 1_545 S
C79 C82 1.481 . S
C80 C79 1.375 1_565 S
C80 C81 1.365 1_565 S
C80 H94 0.951 . S
C81 C77 1.390 . S
C81 C80 1.365 1_545 S
C81 H95 0.945 1_545 S
C82 C79 1.481 . S
C82 C83 1.297 . S
C82 H96 0.950 1_545 S
C83 C82 1.297 . S
C83 C84 1.479 . S
C83 H97 0.950 . S
C84 C83 1.479 . S
C84 C85 1.375 . S
C84 C90 1.404 1_545 S
C85 C84 1.375 . S
C85 C86 1.369 . S
C85 H98 0.950 . S
C86 C85 1.369 . S
C86 C87 1.392 . S
C86 H99 0.951 . S
C87 C86 1.392 . S
C87 C89 1.384 1_545 S
H88 C90 0.949 . S
C89 C87 1.384 1_565 S
C89 C90 1.385 . S
C89 H91 0.950 . S
C90 C84 1.404 1_565 S
C90 H88 0.949 . S
C90 C89 1.385 . S
H91 C89 0.950 . S
H92 C76 0.951 . S
H93 C78 0.951 . S
H94 C80 0.951 . S
H95 C81 0.945 1_565 S
H96 C82 0.950 1_565 S
H97 C83 0.950 . S
H98 C85 0.950 . S
H99 C86 0.951 . S
C100 C101 1.386 . S
C100 C102 1.383 . S
C100 H116 0.951 1_455 S
C101 C100 1.386 . S
C101 C105 1.383 . S
C102 C100 1.383 . S
C102 C103 1.402 . S
C102 H117 0.951 . S
C103 C102 1.402 . S
C103 C104 1.375 . S
C103 C106 1.481 . S
C104 C103 1.375 . S
C104 C105 1.367 . S
C104 H118 0.951 . S
C105 C101 1.383 . S
C105 C104 1.367 . S
C105 H119 0.950 . S
C106 C103 1.481 . S
C106 C107 1.297 . S
C106 H120 0.950 . S
C107 C106 1.297 . S
C107 C108 1.479 . S
C107 H121 0.950 . S
C108 C107 1.479 . S
C108 C109 1.375 . S
C108 C114 1.404 . S
C109 C108 1.375 . S
C109 C110 1.369 . S
C109 H122 0.950 . S
C110 C109 1.369 . S
C110 C111 1.392 . S
C110 H123 0.951 1_455 S
C111 C110 1.392 . S
C111 C113 1.384 . S
H112 C114 0.949 . S
C113 C111 1.384 . S
C113 C114 1.385 . S
C113 H115 0.950 . S
C114 C108 1.404 . S
C114 H112 0.949 . S
C114 C113 1.385 . S
H115 C113 0.950 . S
H116 C100 0.951 1_655 S
H117 C102 0.951 . S
H118 C104 0.951 . S
H119 C105 0.950 . S
H120 C106 0.950 . S
H121 C107 0.950 . S
H122 C109 0.950 . S
H123 C110 0.951 1_655 S
C124 C125 1.386 . S
C124 C126 1.383 . S
C124 H140 0.951 1_545 S
C125 C124 1.386 . S
C125 C129 1.383 . S
C126 C124 1.383 . S
C126 C127 1.402 . S
C126 H141 0.949 1_545 S
C127 C126 1.402 . S
C127 C128 1.375 . S
C127 C130 1.481 . S
C128 C127 1.375 . S
C128 C129 1.367 . S
C128 H142 0.951 . S
C129 C125 1.383 . S
C129 C128 1.367 . S
C129 H143 0.950 . S
C130 C127 1.481 . S
C130 C131 1.297 . S
C130 H144 0.950 . S
C131 C130 1.297 . S
C131 C132 1.479 . S
C131 H145 0.950 . S
C132 C131 1.479 . S
C132 C133 1.375 . S
C132 C138 1.404 . S
C133 C132 1.375 . S
C133 C134 1.369 . S
C133 H146 0.950 . S
C134 C133 1.369 . S
C134 C135 1.392 . S
C134 H147 0.951 1_545 S
C135 C134 1.392 . S
C135 C137 1.384 . S
H136 C138 0.949 . S
C137 C135 1.384 . S
C137 C138 1.385 . S
C137 H139 0.950 . S
C138 C132 1.404 . S
C138 H136 0.949 . S
C138 C137 1.385 . S
H139 C137 0.950 . S
H140 C124 0.951 1_565 S
H141 C126 0.949 1_565 S
H142 C128 0.951 . S
H143 C129 0.950 . S
H144 C130 0.950 . S
H145 C131 0.950 . S
H146 C133 0.950 . S
H147 C134 0.951 1_565 S
C148 C149 1.386 1_665 S
C148 C150 1.383 . S
C148 H164 0.951 . S
C149 C148 1.386 1_445 S
C149 C153 1.383 . S
C150 C148 1.383 . S
C150 C151 1.402 1_665 S
C150 H165 0.951 . S
C151 C150 1.402 1_445 S
C151 C152 1.375 . S
C151 C154 1.481 . S
C152 C151 1.375 . S
C152 C153 1.367 . S
C152 H166 0.951 . S
C153 C149 1.383 . S
C153 C152 1.367 . S
C153 H167 0.950 . S
C154 C151 1.481 . S
C154 C155 1.297 1_546 S
C154 H168 0.950 . S
C155 C154 1.297 1_564 S
C155 C156 1.479 . S
C155 H169 0.954 1_455 S
C156 C155 1.479 . S
C156 C157 1.375 1_455 S
C156 C162 1.404 1_565 S
C157 C156 1.375 1_655 S
C157 C158 1.369 . S
C157 H170 0.950 . S
C158 C157 1.369 . S
C158 C159 1.389 1_665 S
C158 H171 0.951 . S
C159 C158 1.389 1_445 S
C159 C161 1.386 . S
H160 C162 0.949 . S
C161 C159 1.386 . S
C161 C162 1.385 . S
C161 H163 0.950 . S
C162 C156 1.404 1_545 S
C162 H160 0.949 . S
C162 C161 1.385 . S
H163 C161 0.950 . S
H164 C148 0.951 . S
H165 C150 0.951 . S
H166 C152 0.951 . S
H167 C153 0.950 . S
H168 C154 0.950 . S
H169 C155 0.954 1_655 S
H170 C157 0.950 . S
H171 C158 0.951 . S
C172 C173 1.386 . S
C172 C174 1.383 . S
C172 H188 0.951 1_545 S
C173 C172 1.386 . S
C173 C177 1.383 1_455 S
C174 C172 1.383 . S
C174 C175 1.402 1_455 S
C174 H189 0.951 . S
C175 C174 1.402 1_655 S
C175 C176 1.375 . S
C175 C178 1.481 . S
C176 C175 1.375 . S
C176 C177 1.367 . S
C176 H190 0.951 . S
C177 C173 1.383 1_655 S
C177 C176 1.367 . S
C177 H191 0.950 . S
C178 C175 1.481 . S
C178 C179 1.297 1_655 S
C178 H192 0.950 . S
C179 C178 1.297 1_455 S
C179 C180 1.479 . S
C179 H193 0.950 . S
C180 C179 1.479 . S
C180 C181 1.375 . S
C180 C186 1.404 1_455 S
C181 C180 1.375 . S
C181 C182 1.369 . S
C181 H194 0.950 . S
C182 C181 1.369 . S
C182 C183 1.392 . S
C182 H195 0.951 . S
C183 C182 1.392 . S
C183 C185 1.384 1_455 S
H184 C186 0.949 . S
C185 C183 1.384 1_655 S
C185 C186 1.385 . S
C185 H187 0.950 . S
C186 C180 1.404 1_655 S
C186 H184 0.949 . S
C186 C185 1.385 . S
H187 C185 0.950 . S
H188 C172 0.951 1_565 S
H189 C174 0.951 . S
H190 C176 0.951 . S
H191 C177 0.950 . S
H192 C178 0.950 . S
H193 C179 0.950 . S
H194 C181 0.950 . S
H195 C182 0.951 . S
C196 C197 1.386 . S
C196 C198 1.383 . S
C196 H212 0.951 . S
C197 C196 1.386 . S
C197 C201 1.383 1_445 S
C198 C196 1.383 . S
C198 C199 1.402 1_545 S
C198 H213 0.951 . S
C199 C198 1.402 1_565 S
C199 C200 1.375 1_455 S
C199 C202 1.481 . S
C200 C199 1.375 1_655 S
C200 C201 1.367 . S
C200 H214 0.951 . S
C201 C197 1.383 1_665 S
C201 C200 1.367 . S
C201 H215 0.950 . S
C202 C199 1.481 . S
C202 C203 1.297 . S
C202 H216 0.950 1_455 S
C203 C202 1.297 . S
C203 C204 1.479 . S
C203 H217 0.950 1_565 S
C204 C203 1.479 . S
C204 C205 1.375 1_565 S
C204 C210 1.404 . S
C205 C204 1.375 1_545 S
C205 C206 1.369 . S
C205 H218 0.950 . S
C206 C205 1.369 . S
C206 C207 1.399 . S
C206 H219 0.951 . S
C207 C206 1.399 . S
C207 C209 1.376 1_545 S
H208 C210 0.949 1_655 S
C209 C207 1.376 1_565 S
C209 C210 1.385 . S
C209 H211 0.950 1_455 S
C210 C204 1.404 . S
C210 H208 0.949 1_455 S
C210 C209 1.385 . S
H211 C209 0.950 1_655 S
H212 C196 0.951 . S
H213 C198 0.951 . S
H214 C200 0.951 . S
H215 C201 0.950 . S
H216 C202 0.950 1_655 S
H217 C203 0.950 1_545 S
H218 C205 0.950 . S
H219 C206 0.951 . S
C220 C221 1.386 . S
C220 C222 1.383 . S
C220 H236 0.951 . S
C221 C220 1.386 . S
C221 C225 1.383 1_455 S
C222 C220 1.383 . S
C222 C223 1.402 1_455 S
C222 H237 0.951 . S
C223 C222 1.402 1_655 S
C223 C224 1.375 . S
C223 C226 1.481 . S
C224 C223 1.375 . S
C224 C225 1.367 . S
C224 H238 0.951 . S
C225 C221 1.383 1_655 S
C225 C224 1.367 . S
C225 H239 0.950 . S
C226 C223 1.481 . S
C226 C227 1.297 1_655 S
C226 H240 0.950 . S
C227 C226 1.297 1_455 S
C227 C228 1.479 . S
C227 H241 0.950 . S
C228 C227 1.479 . S
C228 C229 1.375 . S
C228 C234 1.404 1_455 S
C229 C228 1.375 . S
C229 C230 1.369 . S
C229 H242 0.950 . S
C230 C229 1.369 . S
C230 C231 1.392 . S
C230 H243 0.948 1_545 S
C231 C230 1.392 . S
C231 C233 1.384 1_455 S
H232 C234 0.949 . S
C233 C231 1.384 1_655 S
C233 C234 1.385 . S
C233 H235 0.950 . S
C234 C228 1.404 1_655 S
C234 H232 0.949 . S
C234 C233 1.385 . S
H235 C233 0.950 . S
H236 C220 0.951 . S
H237 C222 0.951 . S
H238 C224 0.951 . S
H239 C225 0.950 . S
H240 C226 0.950 . S
H241 C227 0.950 . S
H242 C229 0.950 . S
H243 C230 0.948 1_565 S
C53 C1 1.489 . S
C63 C3 1.454 . S
C77 C14 1.482 . S
C87 C16 1.461 . S
C101 C27 1.483 . S
C111 C29 1.457 . S
C125 C40 1.496 . S
C135 C42 1.496 . S
C149 C36 1.479 . S
C159 C5 1.471 . S
C173 C49 1.502 . S
C183 C18 1.501 . S
C197 C44 1.476 1_545 S
C207 C10 1.480 . S
C221 C23 1.500 . S
C231 C31 1.472 . S
