# Generated by pormake.
# Topology unc, (4)-cn, num edge types: 1
# Building blocks:
#     Node 0, Type 0, BuildingBlock: GALJAG_clean_sbu_0, # of connection points: 4
#     Node 1, Type 0, BuildingBlock: GALJAG_clean_sbu_0, # of connection points: 4
#     Node 2, Type 0, BuildingBlock: GALJAG_clean_sbu_0, # of connection points: 4
#     Node 3, Type 0, BuildingBlock: GALJAG_clean_sbu_0, # of connection points: 4
#     Edge 4, Type (0, 0), BuildingBlock: EZIPEK_clean_linker_0, # of connection points: 2
#     Edge 5, Type (0, 0), BuildingBlock: EZIPEK_clean_linker_0, # of connection points: 2
#     Edge 6, Type (0, 0), BuildingBlock: EZIPEK_clean_linker_0, # of connection points: 2
#     Edge 7, Type (0, 0), BuildingBlock: EZIPEK_clean_linker_0, # of connection points: 2
#     Edge 8, Type (0, 0), BuildingBlock: EZIPEK_clean_linker_0, # of connection points: 2
#     Edge 9, Type (0, 0), BuildingBlock: EZIPEK_clean_linker_0, # of connection points: 2
#     Edge 10, Type (0, 0), BuildingBlock: EZIPEK_clean_linker_0, # of connection points: 2
#     Edge 11, Type (0, 0), BuildingBlock: EZIPEK_clean_linker_0, # of connection points: 2
# Relax obj value: 0.013
# Max RMSD: 0.034
# Mean RMSD: 0.034
data_MOF--net-unc--node1-GALJAG_clean_sbu_0--edge1-EZIPEK_clean_linker_0
_symmetry_space_group_name_H-M    P1
_symmetry_Int_Tables_number       1
_symmetry_cell_setting            triclinic
loop_
_symmetry_equiv_pos_as_xyz
'x, y, z'
_cell_length_a     22.964168
_cell_length_b     23.012499
_cell_length_c     15.110049
_cell_angle_alpha  90.293385
_cell_angle_beta   89.5396
_cell_angle_gamma 89.756812
loop_
_atom_site_label
_atom_site_type_symbol
_atom_site_fract_x
_atom_site_fract_y
_atom_site_fract_z
_atom_type_partial_charge
In0 In 1.0034 0.68185 -0.00739 0.0
O1 O 0.09331 0.72377 0.98438 0.0
O2 O 0.0372 0.74872 0.09118 0.0
C3 C 0.01059 0.60336 0.8609 0.0
C4 C 0.92071 0.75604 0.936 0.0
C5 C 0.99673 0.6032 0.12234 0.0
O6 O 0.05163 0.63809 0.87703 0.0
O7 O 0.96547 0.61015 0.90781 0.0
O8 O 0.95557 0.63827 0.10738 0.0
O9 O 0.04165 0.60958 0.07508 0.0
C10 C 0.08587 0.75439 0.05307 0.0
O11 O 0.9126 0.72278 0.001 0.0
O12 O 0.97021 0.75205 0.89962 0.0
In13 In 0.32795 1.00187 0.24128 0.0
O14 O 0.27238 0.92092 0.263 0.0
O15 O 0.27028 0.9618 0.13674 0.0
C16 C 0.40874 0.99209 0.36801 0.0
C17 C 0.25037 0.08285 0.29447 0.0
C18 C 0.40968 0.01107 0.11393 0.0
O19 O 0.38576 0.94798 0.3327 0.0
O20 O 0.38823 0.0402 0.34368 0.0
O21 O 0.38575 0.05534 0.14867 0.0
O22 O 0.38984 0.96299 0.13961 0.0
C23 C 0.25209 0.92118 0.18538 0.0
O24 O 0.27734 0.0866 0.22137 0.0
O25 O 0.26246 0.03863 0.33991 0.0
In26 In 1.00474 0.32825 0.48916 0.0
O27 O 0.09145 0.28011 0.4989 0.0
O28 O 0.03644 0.26143 0.38885 0.0
C29 C 0.01125 0.40827 0.61907 0.0
C30 C 0.92525 0.25147 0.54595 0.0
C31 C 0.99793 0.40875 0.36157 0.0
O32 O 0.05625 0.38447 0.58627 0.0
O33 O 0.96371 0.38875 0.59087 0.0
O34 O 0.95304 0.38492 0.39357 0.0
O35 O 0.0456 0.38921 0.38959 0.0
C36 C 0.08371 0.25147 0.42826 0.0
O37 O 0.91763 0.28192 0.47745 0.0
O38 O 0.97287 0.25974 0.58533 0.0
In39 In 0.68175 1.00324 0.73648 0.0
O40 O 0.72974 0.91632 0.72949 0.0
O41 O 0.74158 0.96938 0.84394 0.0
C42 C 0.6039 0.99237 0.60587 0.0
C43 C 0.75745 0.08341 0.67474 0.0
C44 C 0.60281 0.01247 0.86731 0.0
O45 O 0.63813 0.95145 0.62575 0.0
O46 O 0.61099 0.03896 0.64847 0.0
O47 O 0.63982 0.05192 0.85299 0.0
O48 O 0.60716 0.96812 0.81836 0.0
C49 C 0.75411 0.92278 0.80352 0.0
O50 O 0.7185 0.09547 0.73142 0.0
O51 O 0.75802 0.0312 0.64914 0.0
C52 C 0.02806 0.55774 0.26373 0.0
C53 C 0.99252 0.55601 0.18766 0.0
C54 C 0.96247 0.45659 0.22287 0.0
C55 C 0.99529 0.45953 0.30192 0.0
N56 N 0.0505 0.51686 0.4065 0.0
N57 N 0.91951 0.5081 0.09978 0.0
C58 C 0.02582 0.51114 0.32479 0.0
C59 C 0.95733 0.50692 0.16921 0.0
N60 N 0.06445 0.60382 0.27725 0.0
N61 N 0.93936 0.40475 0.19612 0.0
H62 H 0.91658 0.54283 0.056 0.0
H63 H 0.88796 0.47652 0.08912 0.0
H64 H 0.94366 0.36646 0.2321 0.0
H65 H 0.92052 0.39816 0.13448 0.0
H66 H 0.09726 0.60401 0.32443 0.0
H67 H 0.06417 0.64091 0.23784 0.0
H68 H 0.06696 0.55585 0.43074 0.0
H69 H 0.05012 0.48432 0.45409 0.0
C70 C 0.45812 0.9546 0.50435 0.0
C71 C 0.46015 0.98853 0.42627 0.0
C72 C 0.55814 0.02238 0.46386 0.0
C73 C 0.55712 0.98658 0.53986 0.0
N74 N 0.51046 0.91213 0.62705 0.0
N75 N 0.51618 0.04565 0.32214 0.0
C76 C 0.50866 0.9502 0.5579 0.0
C77 C 0.51128 0.01998 0.40336 0.0
N78 N 0.4068 0.92975 0.53044 0.0
N79 N 0.60376 0.05936 0.44996 0.0
H80 H 0.4832 0.04553 0.2753 0.0
H81 H 0.55488 0.06277 0.29742 0.0
H82 H 0.64113 0.05914 0.48861 0.0
H83 H 0.60337 0.09243 0.4032 0.0
H84 H 0.40052 0.91007 0.59162 0.0
H85 H 0.3685 0.93307 0.49421 0.0
H86 H 0.47962 0.87977 0.63721 0.0
H87 H 0.54494 0.90994 0.67132 0.0
C88 C 0.97954 0.55739 0.71904 0.0
C89 C 0.01521 0.55596 0.79499 0.0
C90 C 0.0465 0.45656 0.75826 0.0
C91 C 0.01353 0.45923 0.67935 0.0
N92 N 0.95768 0.51636 0.57562 0.0
N93 N 0.08894 0.50835 0.88196 0.0
C94 C 0.98238 0.51074 0.65727 0.0
C95 C 0.05106 0.50699 0.81261 0.0
N96 N 0.94239 0.60319 0.70629 0.0
N97 N 0.07032 0.40485 0.78422 0.0
H98 H 0.09141 0.54304 0.92637 0.0
H99 H 0.12094 0.47694 0.892 0.0
H100 H 0.06653 0.36653 0.74767 0.0
H101 H 0.0893 0.39839 0.84573 0.0
H102 H 0.90959 0.60311 0.65911 0.0
H103 H 0.94196 0.64023 0.7464 0.0
H104 H 0.9408 0.5553 0.55195 0.0
H105 H 0.95853 0.48382 0.52752 0.0
C106 C 0.45826 0.05002 0.97672 0.0
C107 C 0.46063 0.01458 0.05328 0.0
C108 C 0.55789 0.97963 0.00924 0.0
C109 C 0.55662 0.01729 0.93547 0.0
N110 N 0.51058 0.09506 0.85517 0.0
N111 N 0.51745 0.95471 0.15216 0.0
C112 C 0.50855 0.05501 0.92166 0.0
C113 C 0.51173 0.9818 0.07226 0.0
N114 N 0.40689 0.07577 0.95329 0.0
N115 N 0.60302 0.94119 0.01862 0.0
H116 H 0.48526 0.95493 0.20104 0.0
H117 H 0.55627 0.93633 0.17383 0.0
H118 H 0.63985 0.94113 0.97775 0.0
H119 H 0.60256 0.90714 0.06375 0.0
H120 H 0.40062 0.09682 0.89328 0.0
H121 H 0.36852 0.07164 0.98999 0.0
H122 H 0.47991 0.12813 0.8481 0.0
H123 H 0.54531 0.09816 0.81062 0.0
C124 C 0.21924 0.81729 0.166 0.0
C125 C 0.20942 0.87775 0.15315 0.0
C126 C 0.12427 0.8554 0.0626 0.0
C127 C 0.1299 0.79602 0.0847 0.0
N128 N 0.17785 0.72043 0.16673 0.0
N129 N 0.14454 0.95443 0.10543 0.0
C130 C 0.17589 0.77693 0.13943 0.0
C131 C 0.1597 0.89691 0.10582 0.0
N132 N 0.27114 0.79804 0.19872 0.0
N133 N 0.08625 0.87203 -0.00166 0.0
H134 H 0.16751 0.98627 0.13962 0.0
H135 H 0.10554 0.96965 0.07925 0.0
H136 H 0.06125 0.84227 0.96303 0.0
H137 H 0.08424 0.91417 0.97363 0.0
H138 H 0.2827 0.75427 0.20114 0.0
H139 H 0.30525 0.8257 0.21513 0.0
H140 H 0.20646 0.70557 0.21484 0.0
H141 H 0.14793 0.68929 0.14604 0.0
C142 C 0.14972 0.10913 0.34649 0.0
C143 C 0.20737 0.12677 0.32554 0.0
C144 C 0.18226 0.22742 0.36494 0.0
C145 C 0.12658 0.20863 0.39398 0.0
N146 N 0.05998 0.13059 0.42589 0.0
N147 N 0.28175 0.20058 0.32835 0.0
C148 C 0.11095 0.14918 0.38831 0.0
C149 C 0.22455 0.18543 0.33807 0.0
N150 N 0.13131 0.0547 0.32349 0.0
N151 N 0.19409 0.28551 0.36012 0.0
H152 H 0.31429 0.1711 0.30984 0.0
H153 H 0.29791 0.24118 0.34611 0.0
H154 H 0.16427 0.3176 0.37925 0.0
H155 H 0.23144 0.30205 0.33009 0.0
H156 H 0.08808 0.04151 0.32813 0.0
H157 H 0.15816 0.02419 0.29205 0.0
H158 H 0.04918 0.08692 0.43254 0.0
H159 H 0.03058 0.15852 0.45776 0.0
C160 C 0.82934 0.16377 0.70191 0.0
C161 C 0.79989 0.12692 0.64148 0.0
C162 C 0.85788 0.16731 0.51955 0.0
C163 C 0.88154 0.20911 0.57833 0.0
N164 N 0.87916 0.25511 0.72251 0.0
N165 N 0.77753 0.10296 0.48945 0.0
C166 C 0.86425 0.20969 0.66876 0.0
C167 C 0.81171 0.13127 0.54926 0.0
N168 N 0.82658 0.15338 0.79084 0.0
N169 N 0.88109 0.15995 0.43663 0.0
H170 H 0.74196 0.0777 0.50778 0.0
H171 H 0.78074 0.10957 0.42141 0.0
H172 H 0.91646 0.18374 0.41313 0.0
H173 H 0.86925 0.12596 0.39472 0.0
H174 H 0.85197 0.17561 0.83664 0.0
H175 H 0.80415 0.1184 0.81809 0.0
H176 H 0.86274 0.26021 0.7866 0.0
H177 H 0.90268 0.29091 0.70027 0.0
C178 C 0.7799 0.82047 0.84675 0.0
C179 C 0.79592 0.87981 0.83921 0.0
C180 C 0.88912 0.85849 0.90976 0.0
C181 C 0.87639 0.79836 0.9063 0.0
N182 N 0.81299 0.72074 0.86032 0.0
N183 N 0.87075 0.95325 0.8475 0.0
C184 C 0.8226 0.77885 0.87188 0.0
C185 C 0.8519 0.89838 0.86644 0.0
N186 N 0.72345 0.80415 0.83364 0.0
N187 N 0.9355 0.87776 0.95758 0.0
H188 H 0.8459 0.98337 0.81272 0.0
H189 H 0.91336 0.96683 0.85815 0.0
H190 H 0.96166 0.84981 -0.00576 0.0
H191 H 0.94381 0.92161 0.9691 0.0
H192 H 0.70813 0.76255 0.84708 0.0
H193 H 0.6905 0.83352 0.81771 0.0
H194 H 0.77723 0.70434 0.82652 0.0
H195 H 0.8432 0.68894 0.87793 0.0
loop_
_geom_bond_atom_site_label_1
_geom_bond_atom_site_label_2
_geom_bond_distance
_geom_bond_site_symmetry_2
_ccdc_geom_bond_type
In0 O1 2.294 1_554 S
In0 O2 2.326 . S
In0 O6 2.266 1_554 S
In0 O7 2.326 1_454 S
In0 O8 2.266 1_455 S
In0 O9 2.326 . S
In0 O11 2.294 1_455 S
In0 O12 2.326 1_454 S
O1 In0 2.294 1_556 S
O1 C10 1.240 1_556 S
O2 In0 2.326 . S
O2 C10 1.252 . S
C3 O6 1.253 . S
C3 O7 1.259 1_455 S
C4 O11 1.240 1_556 S
C4 O12 1.252 . S
C5 O8 1.253 1_455 S
C5 O9 1.259 . S
O6 In0 2.266 1_556 S
O6 C3 1.253 . S
O7 In0 2.326 1_656 S
O7 C3 1.259 1_655 S
O8 In0 2.266 1_655 S
O8 C5 1.253 1_655 S
O9 In0 2.326 . S
O9 C5 1.259 . S
C10 O1 1.240 1_554 S
C10 O2 1.252 . S
O11 In0 2.294 1_655 S
O11 C4 1.240 1_554 S
O12 In0 2.326 1_656 S
O12 C4 1.252 . S
In13 O14 2.294 1_545 S
In13 O15 2.326 1_545 S
In13 O19 2.266 1_545 S
In13 O20 2.326 . S
In13 O21 2.266 . S
In13 O22 2.326 1_545 S
In13 O24 2.294 . S
In13 O25 2.326 . S
O14 In13 2.294 1_565 S
O14 C23 1.240 . S
O15 In13 2.326 1_565 S
O15 C23 1.252 . S
C16 O19 1.253 1_545 S
C16 O20 1.259 . S
C17 O24 1.240 . S
C17 O25 1.252 . S
C18 O21 1.253 . S
C18 O22 1.259 1_545 S
O19 In13 2.266 1_565 S
O19 C16 1.253 1_565 S
O20 In13 2.326 . S
O20 C16 1.259 . S
O21 In13 2.266 . S
O21 C18 1.253 . S
O22 In13 2.326 1_565 S
O22 C18 1.259 1_565 S
C23 O14 1.240 . S
C23 O15 1.252 . S
O24 In13 2.294 . S
O24 C17 1.240 . S
O25 In13 2.326 . S
O25 C17 1.252 . S
In26 O27 2.294 . S
In26 O28 2.326 . S
In26 O32 2.266 . S
In26 O33 2.326 1_455 S
In26 O34 2.266 1_455 S
In26 O35 2.326 . S
In26 O37 2.294 1_455 S
In26 O38 2.326 1_455 S
O27 In26 2.294 . S
O27 C36 1.240 . S
O28 In26 2.326 . S
O28 C36 1.252 . S
C29 O32 1.253 . S
C29 O33 1.259 1_455 S
C30 O37 1.240 . S
C30 O38 1.252 . S
C31 O34 1.253 1_455 S
C31 O35 1.259 . S
O32 In26 2.266 . S
O32 C29 1.253 . S
O33 In26 2.326 1_655 S
O33 C29 1.259 1_655 S
O34 In26 2.266 1_655 S
O34 C31 1.253 1_655 S
O35 In26 2.326 . S
O35 C31 1.259 . S
C36 O27 1.240 . S
C36 O28 1.252 . S
O37 In26 2.294 1_655 S
O37 C30 1.240 . S
O38 In26 2.326 1_655 S
O38 C30 1.252 . S
In39 O40 2.294 1_545 S
In39 O41 2.326 1_545 S
In39 O45 2.266 1_545 S
In39 O46 2.326 . S
In39 O47 2.266 . S
In39 O48 2.326 1_545 S
In39 O50 2.294 . S
In39 O51 2.326 . S
O40 In39 2.294 1_565 S
O40 C49 1.240 . S
O41 In39 2.326 1_565 S
O41 C49 1.252 . S
C42 O45 1.253 1_545 S
C42 O46 1.259 . S
C43 O50 1.240 . S
C43 O51 1.252 . S
C44 O47 1.253 . S
C44 O48 1.259 1_545 S
O45 In39 2.266 1_565 S
O45 C42 1.253 1_565 S
O46 In39 2.326 . S
O46 C42 1.259 . S
O47 In39 2.266 . S
O47 C44 1.253 . S
O48 In39 2.326 1_565 S
O48 C44 1.259 1_565 S
C49 O40 1.240 . S
C49 O41 1.252 . S
O50 In39 2.294 . S
O50 C43 1.240 . S
O51 In39 2.326 . S
O51 C43 1.252 . S
C52 C53 1.363 1_455 S
C52 C58 1.379 . S
C52 N60 1.356 . S
C53 C52 1.363 1_655 S
C53 C59 1.363 . S
C54 C55 1.363 . S
C54 C59 1.379 . S
C54 N61 1.356 . S
C55 C54 1.363 . S
C55 C58 1.363 1_655 S
N56 C58 1.356 . S
N56 H68 0.984 . S
N56 H69 0.985 . S
N57 C59 1.356 . S
N57 H62 0.984 . S
N57 H63 0.985 . S
C58 C52 1.379 . S
C58 C55 1.363 1_455 S
C58 N56 1.356 . S
C59 C53 1.363 . S
C59 C54 1.379 . S
C59 N57 1.356 . S
N60 C52 1.356 . S
N60 H66 0.984 . S
N60 H67 0.984 . S
N61 C54 1.356 . S
N61 H64 0.984 . S
N61 H65 0.985 . S
H62 N57 0.984 . S
H63 N57 0.985 . S
H64 N61 0.984 . S
H65 N61 0.985 . S
H66 N60 0.984 . S
H67 N60 0.984 . S
H68 N56 0.984 . S
H69 N56 0.985 . S
C70 C71 1.363 . S
C70 C76 1.379 . S
C70 N78 1.356 . S
C71 C70 1.363 . S
C71 C77 1.363 1_565 S
C72 C73 1.363 1_545 S
C72 C77 1.379 . S
C72 N79 1.356 . S
C73 C72 1.363 1_565 S
C73 C76 1.363 . S
N74 C76 1.356 . S
N74 H86 0.984 . S
N74 H87 0.985 . S
N75 C77 1.356 . S
N75 H80 0.984 . S
N75 H81 0.985 . S
C76 C70 1.379 . S
C76 C73 1.363 . S
C76 N74 1.356 . S
C77 C71 1.363 1_545 S
C77 C72 1.379 . S
C77 N75 1.356 . S
N78 C70 1.356 . S
N78 H84 0.984 . S
N78 H85 0.984 . S
N79 C72 1.356 . S
N79 H82 0.984 . S
N79 H83 0.985 . S
H80 N75 0.984 . S
H81 N75 0.985 . S
H82 N79 0.984 . S
H83 N79 0.985 . S
H84 N78 0.984 . S
H85 N78 0.984 . S
H86 N74 0.984 . S
H87 N74 0.985 . S
C88 C89 1.363 1_655 S
C88 C94 1.379 . S
C88 N96 1.356 . S
C89 C88 1.363 1_455 S
C89 C95 1.363 . S
C90 C91 1.363 . S
C90 C95 1.379 . S
C90 N97 1.356 . S
C91 C90 1.363 . S
C91 C94 1.363 1_455 S
N92 C94 1.356 . S
N92 H104 0.984 . S
N92 H105 0.985 . S
N93 C95 1.356 . S
N93 H98 0.984 . S
N93 H99 0.985 . S
C94 C88 1.379 . S
C94 C91 1.363 1_655 S
C94 N92 1.356 . S
C95 C89 1.363 . S
C95 C90 1.379 . S
C95 N93 1.356 . S
N96 C88 1.356 . S
N96 H102 0.984 . S
N96 H103 0.984 . S
N97 C90 1.356 . S
N97 H100 0.984 . S
N97 H101 0.985 . S
H98 N93 0.984 . S
H99 N93 0.985 . S
H100 N97 0.984 . S
H101 N97 0.985 . S
H102 N96 0.984 . S
H103 N96 0.984 . S
H104 N92 0.984 . S
H105 N92 0.985 . S
C106 C107 1.363 1_556 S
C106 C112 1.379 . S
C106 N114 1.356 1_556 S
C107 C106 1.363 1_554 S
C107 C113 1.363 1_545 S
C108 C109 1.363 1_564 S
C108 C113 1.379 . S
C108 N115 1.356 1_554 S
C109 C108 1.363 1_546 S
C109 C112 1.363 . S
N110 C112 1.356 . S
N110 H122 0.984 . S
N110 H123 0.985 . S
N111 C113 1.356 . S
N111 H116 0.984 . S
N111 H117 0.985 . S
C112 C106 1.379 . S
C112 C109 1.363 . S
C112 N110 1.356 . S
C113 C107 1.363 1_565 S
C113 C108 1.379 . S
C113 N111 1.356 . S
N114 C106 1.356 1_554 S
N114 H120 0.984 1_554 S
N114 H121 0.984 . S
N115 C108 1.356 1_556 S
N115 H118 0.984 . S
N115 H119 0.985 1_556 S
H116 N111 0.984 . S
H117 N111 0.985 . S
H118 N115 0.984 . S
H119 N115 0.985 1_554 S
H120 N114 0.984 1_556 S
H121 N114 0.984 . S
H122 N110 0.984 . S
H123 N110 0.985 . S
C124 C125 1.363 . S
C124 C130 1.379 . S
C124 N132 1.356 . S
C125 C124 1.363 . S
C125 C131 1.363 . S
C126 C127 1.363 . S
C126 C131 1.379 . S
C126 N133 1.352 1_554 S
C127 C126 1.363 . S
C127 C130 1.363 . S
N128 C130 1.356 . S
N128 H140 0.984 . S
N128 H141 0.985 . S
N129 C131 1.356 . S
N129 H134 0.984 . S
N129 H135 0.985 . S
C130 C124 1.379 . S
C130 C127 1.363 . S
C130 N128 1.356 . S
C131 C125 1.363 . S
C131 C126 1.379 . S
C131 N129 1.356 . S
N132 C124 1.356 . S
N132 H138 0.984 . S
N132 H139 0.984 . S
N133 C126 1.352 1_556 S
N133 H136 0.986 . S
N133 H137 0.987 . S
H134 N129 0.984 . S
H135 N129 0.985 . S
H136 N133 0.986 . S
H137 N133 0.987 . S
H138 N132 0.984 . S
H139 N132 0.984 . S
H140 N128 0.984 . S
H141 N128 0.985 . S
C142 C143 1.363 . S
C142 C148 1.379 . S
C142 N150 1.356 . S
C143 C142 1.363 . S
C143 C149 1.363 . S
C144 C145 1.363 . S
C144 C149 1.379 . S
C144 N151 1.356 . S
C145 C144 1.363 . S
C145 C148 1.363 . S
N146 C148 1.356 . S
N146 H158 0.984 . S
N146 H159 0.985 . S
N147 C149 1.356 . S
N147 H152 0.984 . S
N147 H153 0.985 . S
C148 C142 1.379 . S
C148 C145 1.363 . S
C148 N146 1.356 . S
C149 C143 1.363 . S
C149 C144 1.379 . S
C149 N147 1.356 . S
N150 C142 1.356 . S
N150 H156 0.984 . S
N150 H157 0.984 . S
N151 C144 1.356 . S
N151 H154 0.984 . S
N151 H155 0.985 . S
H152 N147 0.984 . S
H153 N147 0.985 . S
H154 N151 0.984 . S
H155 N151 0.985 . S
H156 N150 0.984 . S
H157 N150 0.984 . S
H158 N146 0.984 . S
H159 N146 0.985 . S
C160 C161 1.363 . S
C160 C166 1.379 . S
C160 N168 1.356 . S
C161 C160 1.363 . S
C161 C167 1.363 . S
C162 C163 1.363 . S
C162 C167 1.379 . S
C162 N169 1.356 . S
C163 C162 1.363 . S
C163 C166 1.363 . S
N164 C166 1.356 . S
N164 H176 0.984 . S
N164 H177 0.985 . S
N165 C167 1.356 . S
N165 H170 0.984 . S
N165 H171 0.985 . S
C166 C160 1.379 . S
C166 C163 1.363 . S
C166 N164 1.356 . S
C167 C161 1.363 . S
C167 C162 1.379 . S
C167 N165 1.356 . S
N168 C160 1.356 . S
N168 H174 0.984 . S
N168 H175 0.984 . S
N169 C162 1.356 . S
N169 H172 0.984 . S
N169 H173 0.985 . S
H170 N165 0.984 . S
H171 N165 0.985 . S
H172 N169 0.984 . S
H173 N169 0.985 . S
H174 N168 0.984 . S
H175 N168 0.984 . S
H176 N164 0.984 . S
H177 N164 0.985 . S
C178 C179 1.363 . S
C178 C184 1.379 . S
C178 N186 1.356 . S
C179 C178 1.363 . S
C179 C185 1.363 . S
C180 C181 1.363 . S
C180 C185 1.379 . S
C180 N187 1.356 . S
C181 C180 1.363 . S
C181 C184 1.363 . S
N182 C184 1.356 . S
N182 H194 0.984 . S
N182 H195 0.985 . S
N183 C185 1.356 . S
N183 H188 0.984 . S
N183 H189 0.985 . S
C184 C178 1.379 . S
C184 C181 1.363 . S
C184 N182 1.356 . S
C185 C179 1.363 . S
C185 C180 1.379 . S
C185 N183 1.356 . S
N186 C178 1.356 . S
N186 H192 0.984 . S
N186 H193 0.984 . S
N187 C180 1.356 . S
N187 H190 0.984 . S
N187 H191 0.985 . S
H188 N183 0.984 . S
H189 N183 0.985 . S
H190 N187 0.984 . S
H191 N187 0.985 . S
H192 N186 0.984 . S
H193 N186 0.984 . S
H194 N182 0.984 . S
H195 N182 0.985 . S
C53 C5 1.475 1_655 S
C55 C31 1.474 1_655 S
C71 C16 1.475 1_565 S
C73 C42 1.475 1_565 S
C89 C3 1.475 . S
C91 C29 1.476 . S
C107 C18 1.475 . S
C109 C44 1.475 . S
C125 C23 1.544 . S
C127 C10 1.543 . S
C143 C17 1.544 . S
C145 C36 1.541 . S
C161 C43 1.544 . S
C163 C30 1.544 . S
C179 C49 1.544 . S
C181 C4 1.547 . S
