# Generated by pormake.
# Topology sxb, (6)-cn, num edge types: 1
# Building blocks:
#     Node 0, Type 0, BuildingBlock: CUKXOW_clean_sbu_0, # of connection points: 6
#     Node 1, Type 0, BuildingBlock: CUKXOW_clean_sbu_0, # of connection points: 6
#     Node 2, Type 0, BuildingBlock: CUKXOW_clean_sbu_0, # of connection points: 6
#     Node 3, Type 0, BuildingBlock: CUKXOW_clean_sbu_0, # of connection points: 6
#     Edge 4, Type (0, 0), None
#     Edge 5, Type (0, 0), None
#     Edge 6, Type (0, 0), None
#     Edge 7, Type (0, 0), None
#     Edge 8, Type (0, 0), None
#     Edge 9, Type (0, 0), None
#     Edge 10, Type (0, 0), None
#     Edge 11, Type (0, 0), None
#     Edge 12, Type (0, 0), None
#     Edge 13, Type (0, 0), None
#     Edge 14, Type (0, 0), None
#     Edge 15, Type (0, 0), None
# Relax obj value: 0.037
# Max RMSD: 0.102
# Mean RMSD: 0.102
data_MOF--net-sxb--node1-CUKXOW_clean_sbu_0--edge1-none
_symmetry_space_group_name_H-M    P1
_symmetry_Int_Tables_number       1
_symmetry_cell_setting            triclinic
loop_
_symmetry_equiv_pos_as_xyz
'x, y, z'
_cell_length_a     5.7756865
_cell_length_b     18.650072
_cell_length_c     13.989184
_cell_angle_alpha  89.999941
_cell_angle_beta   100.80736
_cell_angle_gamma 89.999986
loop_
_atom_site_label
_atom_site_type_symbol
_atom_site_fract_x
_atom_site_fract_y
_atom_site_fract_z
_atom_type_partial_charge
Tb0 Tb 1.08934 0.07341 0.9842 0.0
C1 C 1.09407 -0.00913 0.78827 0.0
Tb2 Tb 0.10102 0.90416 -0.01222 0.0
O3 O 0.45285 0.07586 0.9577 0.0
O4 O 0.32809 -0.00971 0.03049 0.0
O5 O 1.05954 0.05326 0.82946 0.0
C6 C 0.29098 0.77418 -0.01322 0.0
O7 O 0.12322 0.92859 0.83592 0.0
C8 C 0.69394 0.96627 0.97902 0.0
C9 C 0.09626 0.9867 0.18371 0.0
O10 O 1.06788 0.78862 0.95855 0.0
O11 O 0.40518 0.83229 0.01612 0.0
O12 O 0.73735 0.90183 0.0143 0.0
O13 O 0.86266 0.98723 0.94163 0.0
O14 O 0.13077 0.9243 0.14252 0.0
O15 O 1.06713 0.04897 0.13607 0.0
C16 C 0.89925 0.20337 0.98524 0.0
O17 O 0.12235 0.18894 0.0135 0.0
O18 O 0.78511 0.14526 0.95584 0.0
C19 C 0.49653 0.01145 -0.00696 0.0
Tb20 Tb 0.10098 0.07341 0.48778 0.0
C21 C 0.09623 -0.00913 0.68371 0.0
Tb22 Tb 1.0893 0.90416 0.4842 0.0
O23 O 0.73747 0.07586 0.51428 0.0
O24 O 0.86222 -0.00971 0.4415 0.0
O25 O 0.13077 0.05326 0.64252 0.0
C26 C 0.89933 0.77418 0.48521 0.0
O27 O 1.0671 0.92859 0.63606 0.0
C28 C 0.49638 0.96627 0.49297 0.0
C29 C 1.09408 0.98669 0.28827 0.0
O30 O 0.12244 0.78862 0.51344 0.0
O31 O 0.78514 0.83229 0.45586 0.0
O32 O 0.45297 0.90183 0.45768 0.0
O33 O 0.32766 0.98723 0.53035 0.0
O34 O 1.05955 0.9243 0.32946 0.0
O35 O 0.12319 0.04897 0.33592 0.0
C36 C 0.29107 0.20337 0.48675 0.0
O37 O 1.06797 0.18894 0.45848 0.0
O38 O 0.4052 0.14526 0.51615 0.0
C39 C 0.69379 0.01145 0.47894 0.0
Tb40 Tb 0.58933 0.57341 0.9842 0.0
C41 C 0.59407 0.49087 0.78827 0.0
Tb42 Tb 0.60102 0.40416 -0.01222 0.0
O43 O 0.95285 0.57586 0.9577 0.0
O44 O 0.82809 0.49029 0.03049 0.0
O45 O 0.55954 0.55327 0.82946 0.0
C46 C 0.79099 0.27418 -0.01323 0.0
O47 O 0.62321 0.4286 0.83592 0.0
C48 C 0.19394 0.46627 0.97901 0.0
C49 C 0.59625 0.48669 0.18371 0.0
O50 O 0.56788 0.28862 0.95854 0.0
O51 O 0.90518 0.33229 0.01612 0.0
O52 O 0.23734 0.40183 0.0143 0.0
O53 O 0.36265 0.48723 0.94163 0.0
O54 O 0.63077 0.42429 0.14252 0.0
O55 O 0.56713 0.54897 0.13607 0.0
C56 C 0.39925 0.70337 0.98525 0.0
O57 O 0.62234 0.68894 0.0135 0.0
O58 O 0.28511 0.64526 0.95585 0.0
C59 C 0.99653 0.51145 -0.00696 0.0
Tb60 Tb 0.60098 0.57341 0.48778 0.0
C61 C 0.59623 0.49087 0.68371 0.0
Tb62 Tb 0.5893 0.40416 0.4842 0.0
O63 O 0.23746 0.57586 0.51428 0.0
O64 O 0.36222 0.49029 0.4415 0.0
O65 O 0.63077 0.55327 0.64252 0.0
C66 C 0.39933 0.27418 0.48522 0.0
O67 O 0.5671 0.4286 0.63606 0.0
C68 C 0.99637 0.46627 0.49297 0.0
C69 C 0.59408 0.48669 0.28827 0.0
O70 O 0.62244 0.28862 0.51344 0.0
O71 O 0.28514 0.33229 0.45586 0.0
O72 O 0.95297 0.40183 0.45768 0.0
O73 O 0.82766 0.48723 0.53035 0.0
O74 O 0.55955 0.42429 0.32946 0.0
O75 O 0.62318 0.54897 0.33592 0.0
C76 C 0.79107 0.70337 0.48673 0.0
O77 O 0.56797 0.68894 0.45848 0.0
O78 O 0.9052 0.64526 0.51614 0.0
C79 C 0.19379 0.51145 0.47894 0.0
loop_
_geom_bond_atom_site_label_1
_geom_bond_atom_site_label_2
_geom_bond_distance
_geom_bond_site_symmetry_2
_ccdc_geom_bond_type
Tb0 O3 2.453 . S
Tb0 O4 2.596 1_545 S
Tb0 O5 2.374 1_454 S
Tb0 O13 2.343 1_454 S
Tb0 O15 2.353 . S
Tb0 O17 2.427 1_455 S
Tb0 O18 2.513 1_454 S
C1 O5 1.251 . S
C1 O7 1.263 1_545 S
Tb2 O4 2.343 1_656 S
Tb2 O7 2.353 . S
Tb2 O10 2.427 1_655 S
Tb2 O11 2.513 1_656 S
Tb2 O12 2.453 . S
Tb2 O13 2.596 1_565 S
Tb2 O14 2.374 1_656 S
O3 Tb0 2.453 . S
O3 C19 1.245 . S
O4 Tb0 2.596 1_565 S
O4 Tb2 2.343 1_454 S
O4 C19 1.259 1_565 S
O5 Tb0 2.374 1_656 S
O5 C1 1.251 . S
C6 O10 1.275 1_554 S
C6 O11 1.246 . S
O7 C1 1.263 1_565 S
O7 Tb2 2.353 . S
C8 O12 1.245 . S
C8 O13 1.259 1_565 S
C9 O14 1.250 . S
C9 O15 1.263 1_565 S
O10 Tb2 2.427 1_455 S
O10 C6 1.275 1_556 S
O11 Tb2 2.513 1_454 S
O11 C6 1.246 . S
O12 Tb2 2.453 . S
O12 C8 1.245 . S
O13 Tb0 2.343 1_656 S
O13 Tb2 2.596 1_545 S
O13 C8 1.259 1_545 S
O14 Tb2 2.374 1_454 S
O14 C9 1.250 . S
O15 Tb0 2.353 . S
O15 C9 1.263 1_545 S
C16 O17 1.275 1_556 S
C16 O18 1.246 . S
O17 Tb0 2.427 1_655 S
O17 C16 1.275 1_554 S
O18 Tb0 2.513 1_656 S
O18 C16 1.246 . S
C19 O3 1.245 . S
C19 O4 1.259 1_545 S
Tb20 O23 2.453 . S
Tb20 O24 2.596 1_545 S
Tb20 O25 2.374 1_655 S
Tb20 O33 2.343 1_655 S
Tb20 O35 2.353 . S
Tb20 O37 2.427 1_655 S
Tb20 O38 2.513 1_655 S
C21 O25 1.251 . S
C21 O27 1.263 1_545 S
Tb22 O24 2.343 1_455 S
Tb22 O27 2.353 . S
Tb22 O30 2.427 1_455 S
Tb22 O31 2.513 1_455 S
Tb22 O32 2.453 . S
Tb22 O33 2.596 1_565 S
Tb22 O34 2.374 1_455 S
O23 Tb20 2.453 . S
O23 C39 1.245 . S
O24 Tb20 2.596 1_565 S
O24 Tb22 2.343 1_655 S
O24 C39 1.259 1_565 S
O25 Tb20 2.374 1_455 S
O25 C21 1.251 . S
C26 O30 1.275 . S
C26 O31 1.246 . S
O27 C21 1.263 1_565 S
O27 Tb22 2.353 . S
C28 O32 1.245 . S
C28 O33 1.259 1_565 S
C29 O34 1.250 . S
C29 O35 1.263 1_565 S
O30 Tb22 2.427 1_655 S
O30 C26 1.275 . S
O31 Tb22 2.513 1_655 S
O31 C26 1.246 . S
O32 Tb22 2.453 . S
O32 C28 1.245 . S
O33 Tb20 2.343 1_455 S
O33 Tb22 2.596 1_545 S
O33 C28 1.259 1_545 S
O34 Tb22 2.374 1_655 S
O34 C29 1.250 . S
O35 Tb20 2.353 . S
O35 C29 1.263 1_545 S
C36 O37 1.275 . S
C36 O38 1.246 . S
O37 Tb20 2.427 1_455 S
O37 C36 1.275 . S
O38 Tb20 2.513 1_455 S
O38 C36 1.246 . S
C39 O23 1.245 . S
C39 O24 1.259 1_545 S
Tb40 O43 2.453 . S
Tb40 O44 2.596 . S
Tb40 O45 2.374 1_554 S
Tb40 O53 2.343 1_554 S
Tb40 O55 2.353 . S
Tb40 O57 2.427 . S
Tb40 O58 2.513 1_554 S
C41 O45 1.251 . S
C41 O47 1.263 . S
Tb42 O44 2.343 1_556 S
Tb42 O47 2.353 . S
Tb42 O50 2.427 . S
Tb42 O51 2.513 1_556 S
Tb42 O52 2.453 . S
Tb42 O53 2.596 . S
Tb42 O54 2.374 1_556 S
O43 Tb40 2.453 . S
O43 C59 1.245 . S
O44 Tb40 2.596 . S
O44 Tb42 2.343 1_554 S
O44 C59 1.259 . S
O45 Tb40 2.374 1_556 S
O45 C41 1.251 . S
C46 O50 1.275 1_554 S
C46 O51 1.246 . S
O47 C41 1.263 . S
O47 Tb42 2.353 . S
C48 O52 1.245 . S
C48 O53 1.259 . S
C49 O54 1.250 . S
C49 O55 1.263 . S
O50 Tb42 2.427 . S
O50 C46 1.275 1_556 S
O51 Tb42 2.513 1_554 S
O51 C46 1.246 . S
O52 Tb42 2.453 . S
O52 C48 1.245 . S
O53 Tb40 2.343 1_556 S
O53 Tb42 2.596 . S
O53 C48 1.259 . S
O54 Tb42 2.374 1_554 S
O54 C49 1.250 . S
O55 Tb40 2.353 . S
O55 C49 1.263 . S
C56 O57 1.275 1_556 S
C56 O58 1.246 . S
O57 Tb40 2.427 . S
O57 C56 1.275 1_554 S
O58 Tb40 2.513 1_556 S
O58 C56 1.246 . S
C59 O43 1.245 . S
C59 O44 1.259 . S
Tb60 O63 2.453 . S
Tb60 O64 2.596 . S
Tb60 O65 2.374 . S
Tb60 O73 2.343 . S
Tb60 O75 2.353 . S
Tb60 O77 2.427 . S
Tb60 O78 2.513 . S
C61 O65 1.251 . S
C61 O67 1.263 . S
Tb62 O64 2.343 . S
Tb62 O67 2.353 . S
Tb62 O70 2.427 . S
Tb62 O71 2.513 . S
Tb62 O72 2.453 . S
Tb62 O73 2.596 . S
Tb62 O74 2.374 . S
O63 Tb60 2.453 . S
O63 C79 1.245 . S
O64 Tb60 2.596 . S
O64 Tb62 2.343 . S
O64 C79 1.259 . S
O65 Tb60 2.374 . S
O65 C61 1.251 . S
C66 O70 1.275 . S
C66 O71 1.246 . S
O67 C61 1.263 . S
O67 Tb62 2.353 . S
C68 O72 1.245 . S
C68 O73 1.259 . S
C69 O74 1.250 . S
C69 O75 1.263 . S
O70 Tb62 2.427 . S
O70 C66 1.275 . S
O71 Tb62 2.513 . S
O71 C66 1.246 . S
O72 Tb62 2.453 . S
O72 C68 1.245 . S
O73 Tb60 2.343 . S
O73 Tb62 2.596 . S
O73 C68 1.259 . S
O74 Tb62 2.374 . S
O74 C69 1.250 . S
O75 Tb60 2.353 . S
O75 C69 1.263 . S
C76 O77 1.275 . S
C76 O78 1.246 . S
O77 Tb60 2.427 . S
O77 C76 1.275 . S
O78 Tb60 2.513 . S
O78 C76 1.246 . S
C79 O63 1.245 . S
C79 O64 1.259 . S
C56 C6 1.501 1_556 S
C46 C16 1.501 1_554 S
C36 C66 1.501 . S
C26 C76 1.501 . S
C19 C8 1.827 1_544 S
C28 C39 1.827 1_565 S
C59 C48 1.827 1_654 S
C79 C68 1.827 1_455 S
C29 C9 1.484 1_655 S
C1 C21 1.485 1_655 S
C69 C49 1.484 . S
C61 C41 1.486 . S
