# Generated by pormake.
# Topology hex, (8)-cn, num edge types: 1
# Building blocks:
#     Node 0, Type 0, BuildingBlock: NUHRAL_clean_sbu_3, # of connection points: 8
#     Edge 1, Type (0, 0), BuildingBlock: XUDNAN_clean_linker_2, # of connection points: 2
#     Edge 2, Type (0, 0), BuildingBlock: XUDNAN_clean_linker_2, # of connection points: 2
#     Edge 3, Type (0, 0), BuildingBlock: XUDNAN_clean_linker_2, # of connection points: 2
#     Edge 4, Type (0, 0), BuildingBlock: XUDNAN_clean_linker_2, # of connection points: 2
# Relax obj value: 0.035
# Max RMSD: 0.097
# Mean RMSD: 0.097
data_MOF--net-hex--node1-NUHRAL_clean_sbu_3--edge1-XUDNAN_clean_linker_2
_symmetry_space_group_name_H-M    P1
_symmetry_Int_Tables_number       1
_symmetry_cell_setting            triclinic
loop_
_symmetry_equiv_pos_as_xyz
'x, y, z'
_cell_length_a     21.78398
_cell_length_b     18.339209
_cell_length_c     14.505481
_cell_angle_alpha  112.13247
_cell_angle_beta   101.64862
_cell_angle_gamma 112.15414
loop_
_atom_site_label
_atom_site_type_symbol
_atom_site_fract_x
_atom_site_fract_y
_atom_site_fract_z
_atom_type_partial_charge
C0 C 0.78626 0.83013 0.99161 0.0
C1 C 0.76785 0.76026 0.01813 0.0
C2 C 0.7212 0.74949 0.07208 0.0
C3 C 0.69302 0.80778 0.09868 0.0
C4 C 0.70899 0.87584 0.07091 0.0
C5 C 0.7557 0.88684 0.01704 0.0
O6 O 1.03224 0.95818 0.11975 0.0
Tb7 Tb 0.95849 0.8736 0.94844 0.0
O8 O 0.97619 0.76287 0.94057 0.0
O9 O 0.04057 0.09783 0.17336 0.0
Eu10 Eu 0.08637 0.12237 0.05624 0.0
O11 O 0.84908 0.77782 0.88891 0.0
C12 C 0.19033 0.08486 0.05705 0.0
O13 O 0.88843 0.92451 0.97481 0.0
O14 O 0.98374 0.03104 0.90643 0.0
O15 O 0.98341 0.90007 0.82218 0.0
C16 C 0.83323 0.84213 0.93152 0.0
C17 C 0.06448 0.27998 0.05525 0.0
O18 O 1.00113 0.22621 0.04811 0.0
C19 C 1.0319 0.02924 0.1895 0.0
C20 C 0.98345 0.97129 0.821 0.0
O21 O 0.11467 0.25667 0.0639 0.0
C22 C 0.25833 0.1108 0.041 0.0
C23 C 0.3559 0.07972 0.02248 0.0
C24 C 0.28973 0.05555 0.03384 0.0
C25 C 0.29492 0.19246 0.04072 0.0
C26 C 0.36096 0.21621 0.02866 0.0
C27 C 0.38954 0.15817 0.016 0.0
C28 C 0.04097 0.77236 0.95591 0.0
O29 O 0.09251 0.8467 0.96855 0.0
O30 O 0.19098 0.14439 0.14412 0.0
O31 O 0.13042 0.04288 0.97063 0.0
H32 H 0.78856 0.71383 0.99584 0.0
H33 H 0.65407 0.79581 0.13523 0.0
H34 H 0.76757 0.93866 0.99376 0.0
H35 H 0.26402 -0.00447 0.04077 0.0
H36 H 0.2734 0.23828 0.05305 0.0
H37 H 0.44241 0.1793 0.01264 0.0
H38 H 0.97116 0.34575 0.03851 0.0
H39 H 0.1845 0.39753 0.04758 0.0
H40 H 0.20154 0.52863 0.02186 0.0
H41 H 0.92195 0.39826 0.83243 0.0
H42 H 0.87503 0.45174 0.89309 0.0
H43 H 0.88054 0.36391 0.91563 0.0
H44 H 0.93771 0.47263 0.12384 0.0
H45 H 0.93189 0.5606 0.10192 0.0
H46 H 1.01771 0.58171 0.18281 0.0
H47 H 0.19436 0.65334 0.99286 0.0
H48 H 0.16454 0.7631 0.96591 0.0
H49 H 0.95509 0.62776 0.97333 0.0
C50 C 1.0217 0.38485 0.03573 0.0
C51 C 0.0766 0.36137 0.04528 0.0
C52 C 0.14179 0.41436 0.04092 0.0
C53 C 0.1519 0.48885 0.0261 0.0
C54 C 0.09636 0.50954 0.01596 0.0
C55 C 0.03267 0.45928 0.02107 0.0
C56 C 0.98121 0.49524 0.00733 0.0
C57 C 0.91052 0.42297 0.90608 0.0
C58 C 0.96628 0.52959 0.11009 0.0
C59 C 1.02555 0.57307 0.99248 0.0
C60 C 0.09193 0.58049 0.99821 0.0
C61 C 0.14251 0.64807 0.98816 0.0
C62 C 0.12501 0.71004 0.97273 0.0
C63 C 0.05732 0.70382 0.96689 0.0
C64 C 1.007 0.63393 0.97639 0.0
H65 H 0.63595 0.90873 0.92721 0.0
H66 H 0.69051 0.95453 0.25623 0.0
H67 H 0.59915 0.00114 0.27322 0.0
H68 H 0.60448 0.10531 0.98589 0.0
H69 H 0.53219 0.04491 0.8537 0.0
H70 H 0.60562 0.02146 0.87121 0.0
H71 H 0.51249 0.85108 0.78726 0.0
H72 H 0.43897 0.87448 0.77307 0.0
H73 H 0.45027 0.81808 0.84816 0.0
H74 H 0.49247 0.02379 0.24705 0.0
H75 H 0.39623 0.05891 0.19598 0.0
H76 H 0.41541 0.00873 0.88905 0.0
C77 C 0.63045 0.93171 1.00406 0.0
C78 C 0.66971 0.92712 0.09004 0.0
C79 C 0.66032 0.95663 0.18897 0.0
C80 C 0.60833 0.98268 0.19921 0.0
C81 C 0.56725 0.98083 0.11062 0.0
C82 C 0.57935 0.95936 0.01636 0.0
C83 C 0.52802 0.96422 0.93411 0.0
C84 C 0.57008 0.03841 0.90984 0.0
C85 C 0.47959 0.87142 0.82948 0.0
C86 C 0.4845 -0.01 0.99629 0.0
C87 C 0.50735 -0.00224 0.09724 0.0
C88 C 0.47451 0.01893 0.16868 0.0
C89 C 0.41922 0.03734 0.13842 0.0
C90 C 0.3982 0.03551 0.03838 0.0
C91 C 0.43011 0.00947 0.96546 0.0
H92 H 0.40737 0.26277 0.8873 0.0
H93 H 0.42761 0.37235 0.22069 0.0
H94 H 0.53533 0.51555 0.27235 0.0
H95 H 0.59279 0.35677 0.94006 0.0
H96 H 0.58779 0.38432 0.83287 0.0
H97 H 0.5103 0.29122 0.8195 0.0
H98 H 0.43087 0.3625 0.78925 0.0
H99 H 0.50725 0.45349 0.79763 0.0
H100 H 0.46161 0.4788 0.88567 0.0
H101 H 0.64554 0.64045 0.29011 0.0
H102 H 0.73228 0.75735 0.2654 0.0
H103 H 0.63816 0.57005 0.91911 0.0
C104 C 0.43321 0.31837 0.97026 0.0
C105 C 0.40898 0.30787 0.05003 0.0
C106 C 0.44467 0.38056 0.15836 0.0
C107 C 0.50653 0.46118 0.18862 0.0
C108 C 0.53124 0.46787 0.10911 0.0
C109 C 0.49434 0.39986 1.00147 0.0
C110 C 0.53065 0.42605 0.93139 0.0
C111 C 0.55692 0.36067 0.87782 0.0
C112 C 0.47958 0.43053 0.84598 0.0
C113 C 0.59385 0.51948 0.01654 0.0
C114 C 0.59404 0.54115 0.11888 0.0
C115 C 0.64589 0.62445 0.21045 0.0
C116 C 0.69564 0.68987 0.196 0.0
C117 C 0.69229 0.67194 0.0907 0.0
C118 C 0.64305 0.58436 1.00065 0.0
H119 H 0.96808 0.85981 0.61505 0.0
H120 H 1.02765 0.13672 0.83769 0.0
H121 H 0.04806 0.18035 0.70194 0.0
H122 H 0.0958 0.91568 0.49293 0.0
H123 H 0.03386 0.82324 0.35745 0.0
H124 H 1.02519 0.81241 0.4732 0.0
H125 H 0.89178 0.77508 0.4026 0.0
H126 H 0.90023 0.78605 0.28682 0.0
H127 H 0.87155 0.85313 0.3746 0.0
H128 H 0.05998 0.19561 0.54467 0.0
H129 H 0.0635 0.1813 0.37054 0.0
H130 H 0.99567 0.89515 0.24442 0.0
C131 C 0.98588 0.92959 0.6351 0.0
C132 C 0.99652 -0.00517 0.7373 0.0
C133 C 1.01906 0.08535 0.76022 0.0
C134 C 1.03093 0.11108 0.68358 0.0
C135 C 1.01955 0.04546 0.58367 0.0
C136 C 0.99736 0.95653 0.55852 0.0
C137 C 0.98742 0.89961 0.44312 0.0
C138 C 0.03864 0.86045 0.44165 0.0
C139 C 0.90804 0.82398 0.37264 0.0
C140 C 1.00853 0.97106 0.40886 0.0
C141 C 1.02646 0.05445 0.49131 0.0
C142 C 0.04633 0.1308 0.47928 0.0
C143 C 0.04804 0.12189 0.37993 0.0
C144 C 1.03033 0.03731 0.29407 0.0
C145 C 1.0103 0.96096 0.30899 0.0
loop_
_geom_bond_atom_site_label_1
_geom_bond_atom_site_label_2
_geom_bond_distance
_geom_bond_site_symmetry_2
_ccdc_geom_bond_type
C0 C1 1.387 . S
C0 C5 1.380 . S
C0 C16 1.494 . S
C1 C0 1.387 . S
C1 C2 1.386 1_556 S
C1 H32 0.930 . S
C2 C1 1.386 1_554 S
C2 C3 1.397 . S
C3 C2 1.397 . S
C3 C4 1.393 1_554 S
C3 H33 0.930 . S
C4 C3 1.393 1_556 S
C4 C5 1.395 . S
C5 C0 1.380 . S
C5 C4 1.395 . S
C5 H34 0.930 . S
O6 Tb7 2.295 1_554 S
O6 C19 1.242 1_665 S
Tb7 O6 2.295 1_556 S
Tb7 O8 2.312 . S
Tb7 O11 2.438 . S
Tb7 O13 2.472 . S
Tb7 O15 2.308 . S
Tb7 C16 2.821 . S
O8 Tb7 2.312 . S
O8 C28 1.264 1_655 S
O9 Eu10 2.308 . S
O9 C19 1.243 . S
Eu10 O9 2.308 . S
Eu10 C12 2.821 . S
Eu10 O14 2.295 1_554 S
Eu10 O21 2.312 . S
Eu10 O30 2.438 . S
Eu10 O31 2.472 . S
O11 Tb7 2.438 . S
O11 C16 1.263 . S
C12 Eu10 2.821 . S
C12 C22 1.494 . S
C12 O30 1.263 . S
C12 O31 1.264 . S
O13 Tb7 2.472 . S
O13 C16 1.264 . S
O14 Eu10 2.295 1_556 S
O14 C20 1.242 1_445 S
O15 Tb7 2.308 . S
O15 C20 1.243 . S
C16 C0 1.494 . S
C16 Tb7 2.821 . S
C16 O11 1.263 . S
C16 O13 1.264 . S
C17 O18 1.260 . S
C17 O21 1.264 1_655 S
O18 C17 1.260 . S
C19 O6 1.242 1_445 S
C19 O9 1.243 . S
C20 O14 1.242 1_665 S
C20 O15 1.243 . S
O21 Eu10 2.312 . S
O21 C17 1.264 1_455 S
C22 C12 1.494 . S
C22 C24 1.380 . S
C22 C25 1.387 . S
C23 C24 1.395 . S
C23 C27 1.393 1_554 S
C24 C22 1.380 . S
C24 C23 1.395 . S
C24 H35 0.930 . S
C25 C22 1.387 . S
C25 C26 1.386 1_554 S
C25 H36 0.930 . S
C26 C25 1.386 1_556 S
C26 C27 1.397 . S
C27 C23 1.393 1_556 S
C27 C26 1.397 . S
C27 H37 0.930 . S
C28 O8 1.264 1_455 S
C28 O29 1.260 . S
O29 C28 1.260 . S
O30 Eu10 2.438 . S
O30 C12 1.263 . S
O31 Eu10 2.472 . S
O31 C12 1.264 . S
H32 C1 0.930 . S
H33 C3 0.930 . S
H34 C5 0.930 . S
H35 C24 0.930 . S
H36 C25 0.930 . S
H37 C27 0.930 . S
H38 C50 0.930 . S
H39 C52 0.930 . S
H40 C53 0.930 . S
H41 C57 0.959 . S
H42 C57 0.959 . S
H43 C57 0.961 . S
H44 C58 0.960 . S
H45 C58 0.961 . S
H46 C58 0.959 . S
H47 C61 0.929 . S
H48 C62 0.931 . S
H49 C64 0.930 . S
C50 H38 0.930 . S
C50 C51 1.399 . S
C50 C55 1.399 . S
C51 C50 1.399 . S
C51 C52 1.376 1_654 S
C52 H39 0.930 . S
C52 C51 1.376 1_456 S
C52 C53 1.388 . S
C53 H40 0.930 . S
C53 C52 1.388 . S
C53 C54 1.390 . S
C54 C53 1.390 . S
C54 C55 1.394 1_456 S
C54 C60 1.465 . S
C55 C50 1.399 . S
C55 C54 1.394 1_654 S
C55 C56 1.516 . S
C56 C55 1.516 . S
C56 C57 1.502 . S
C56 C58 1.561 1_655 S
C56 C59 1.526 1_655 S
C57 H41 0.959 . S
C57 H42 0.959 . S
C57 H43 0.961 . S
C57 C56 1.502 . S
C58 H44 0.960 . S
C58 H45 0.961 . S
C58 H46 0.959 . S
C58 C56 1.561 1_455 S
C59 C56 1.526 1_455 S
C59 C60 1.396 1_554 S
C59 C64 1.390 1_455 S
C60 C54 1.465 . S
C60 C59 1.396 1_556 S
C60 C61 1.399 . S
C61 H47 0.929 . S
C61 C60 1.399 . S
C61 C62 1.385 . S
C62 H48 0.931 . S
C62 C61 1.385 . S
C62 C63 1.389 . S
C63 C62 1.389 . S
C63 C64 1.387 1_456 S
C64 H49 0.930 . S
C64 C59 1.390 1_655 S
C64 C63 1.387 1_654 S
H65 C77 0.930 . S
H66 C79 0.934 . S
H67 C80 0.930 . S
H68 C84 0.959 . S
H69 C84 0.959 . S
H70 C84 0.961 . S
H71 C85 0.960 . S
H72 C85 0.961 . S
H73 C85 0.959 . S
H74 C88 0.929 . S
H75 C89 0.931 . S
H76 C91 0.930 . S
C77 H65 0.930 . S
C77 C78 1.399 . S
C77 C82 1.399 1_556 S
C78 C77 1.399 . S
C78 C79 1.378 1_566 S
C79 H66 0.934 . S
C79 C78 1.378 1_544 S
C79 C80 1.389 . S
C80 H67 0.930 . S
C80 C79 1.389 . S
C80 C81 1.390 . S
C81 C80 1.390 . S
C81 C82 1.394 1_545 S
C81 C87 1.465 . S
C82 C77 1.399 1_554 S
C82 C81 1.394 1_565 S
C82 C83 1.516 . S
C83 C82 1.516 . S
C83 C84 1.502 1_554 S
C83 C85 1.561 . S
C83 C86 1.526 . S
C84 H68 0.959 . S
C84 H69 0.959 . S
C84 H70 0.961 . S
C84 C83 1.502 1_556 S
C85 H71 0.960 . S
C85 H72 0.961 . S
C85 H73 0.959 . S
C85 C83 1.561 . S
C86 C83 1.526 . S
C86 C87 1.396 1_565 S
C86 C91 1.390 . S
C87 C81 1.465 . S
C87 C86 1.396 1_545 S
C87 C88 1.399 . S
C88 H74 0.929 . S
C88 C87 1.399 . S
C88 C89 1.385 . S
C89 H75 0.931 . S
C89 C88 1.385 . S
C89 C90 1.389 . S
C90 C89 1.389 . S
C90 C91 1.387 1_545 S
C91 H76 0.930 . S
C91 C86 1.390 . S
C91 C90 1.387 1_565 S
H92 C104 0.930 . S
H93 C106 0.930 . S
H94 C107 0.930 . S
H95 C111 0.959 . S
H96 C111 0.959 . S
H97 C111 0.961 . S
H98 C112 0.960 . S
H99 C112 0.961 . S
H100 C112 0.959 . S
H101 C115 0.929 . S
H102 C116 0.931 . S
H103 C118 0.930 . S
C104 H92 0.930 . S
C104 C105 1.399 . S
C104 C109 1.399 1_556 S
C105 C104 1.399 . S
C105 C106 1.376 . S
C106 H93 0.930 . S
C106 C105 1.376 . S
C106 C107 1.388 1_556 S
C107 H94 0.930 . S
C107 C106 1.388 1_554 S
C107 C108 1.390 . S
C108 C107 1.390 . S
C108 C109 1.394 . S
C108 C114 1.465 . S
C109 C104 1.399 1_554 S
C109 C108 1.394 . S
C109 C110 1.516 . S
C110 C109 1.516 . S
C110 C111 1.502 1_554 S
C110 C112 1.561 . S
C110 C113 1.526 . S
C111 H95 0.959 . S
C111 H96 0.959 . S
C111 H97 0.961 . S
C111 C110 1.502 1_556 S
C112 H98 0.960 . S
C112 H99 0.961 . S
C112 H100 0.959 . S
C112 C110 1.561 . S
C113 C110 1.526 . S
C113 C114 1.396 . S
C113 C118 1.390 . S
C114 C108 1.465 . S
C114 C113 1.396 . S
C114 C115 1.399 . S
C115 H101 0.929 . S
C115 C114 1.399 . S
C115 C116 1.385 . S
C116 H102 0.931 . S
C116 C115 1.385 . S
C116 C117 1.389 . S
C117 C116 1.389 . S
C117 C118 1.387 . S
C118 H103 0.930 . S
C118 C113 1.390 . S
C118 C117 1.387 . S
H119 C131 0.935 . S
H120 C133 0.930 . S
H121 C134 0.930 . S
H122 C138 0.959 . S
H123 C138 0.959 . S
H124 C138 0.961 . S
H125 C139 0.960 . S
H126 C139 0.961 . S
H127 C139 0.959 . S
H128 C142 0.929 . S
H129 C143 0.929 . S
H130 C145 0.930 . S
C131 H119 0.935 . S
C131 C132 1.399 1_565 S
C131 C136 1.399 . S
C132 C131 1.399 1_545 S
C132 C133 1.376 . S
C133 H120 0.930 . S
C133 C132 1.376 . S
C133 C134 1.388 . S
C134 H121 0.930 . S
C134 C133 1.388 . S
C134 C135 1.390 . S
C135 C134 1.390 . S
C135 C136 1.394 1_545 S
C135 C141 1.465 . S
C136 C131 1.399 . S
C136 C135 1.394 1_565 S
C136 C137 1.516 . S
C137 C136 1.516 . S
C137 C138 1.502 1_655 S
C137 C139 1.561 . S
C137 C140 1.526 . S
C138 H122 0.959 . S
C138 H123 0.959 . S
C138 H124 0.961 . S
C138 C137 1.502 1_455 S
C139 H125 0.960 . S
C139 H126 0.961 . S
C139 H127 0.959 . S
C139 C137 1.561 . S
C140 C137 1.526 . S
C140 C141 1.396 1_565 S
C140 C145 1.390 . S
C141 C135 1.465 . S
C141 C140 1.396 1_545 S
C141 C142 1.399 . S
C142 H128 0.929 . S
C142 C141 1.399 . S
C142 C143 1.385 . S
C143 H129 0.929 . S
C143 C142 1.385 . S
C143 C144 1.397 . S
C144 C143 1.397 . S
C144 C145 1.384 1_545 S
C145 H130 0.930 . S
C145 C140 1.390 . S
C145 C144 1.384 1_565 S
C51 C17 0.542 . S
C63 C28 0.312 . S
C78 C4 2.102 . S
C90 C23 2.034 . S
C105 C26 1.822 . S
C117 C2 1.852 . S
C132 C20 1.486 1_545 S
C144 C19 1.473 1_655 S
