# Generated by pormake.
# Topology pcu, (6)-cn, num edge types: 1
# Building blocks:
#     Node 0, Type 0, BuildingBlock: KUMBOL_clean_sbu_1, # of connection points: 6
#     Edge 1, Type (0, 0), BuildingBlock: TEMPAE_clean_linker_10, # of connection points: 2
#     Edge 2, Type (0, 0), BuildingBlock: TEMPAE_clean_linker_10, # of connection points: 2
#     Edge 3, Type (0, 0), BuildingBlock: TEMPAE_clean_linker_10, # of connection points: 2
# Relax obj value: 0.000
# Max RMSD: 0.000
# Mean RMSD: 0.000
data_MOF--net-pcu--node1-KUMBOL_clean_sbu_1--edge1-TEMPAE_clean_linker_10
_symmetry_space_group_name_H-M    P1
_symmetry_Int_Tables_number       1
_symmetry_cell_setting            triclinic
loop_
_symmetry_equiv_pos_as_xyz
'x, y, z'
_cell_length_a     14.99838
_cell_length_b     24.890039
_cell_length_c     15.160279
_cell_angle_alpha  113.63624
_cell_angle_beta   89.366384
_cell_angle_gamma 115.52071
loop_
_atom_site_label
_atom_site_type_symbol
_atom_site_fract_x
_atom_site_fract_y
_atom_site_fract_z
_atom_type_partial_charge
C0 C 0.33663 0.22522 0.20247 0.0
C1 C 0.45119 0.24714 0.09236 0.0
C2 C 0.35319 0.21524 0.10825 0.0
C3 C 0.5331 0.28604 0.17188 0.0
C4 C 0.41806 0.26726 0.28322 0.0
C5 C 0.51657 0.29602 0.26712 0.0
N6 N 0.24036 0.19763 0.21579 0.0
C7 C 0.21956 0.21493 0.30811 0.0
C8 C 0.39764 0.28112 0.37797 0.0
C9 C 0.29782 0.25583 0.39048 0.0
Gd10 Gd 0.98572 0.92138 0.94495 0.0
Gd11 Gd 0.11557 0.12679 0.07214 0.0
N12 N 0.27268 0.17658 0.0325 0.0
C13 C 0.46345 0.24033 -0.00264 0.0
C14 C 0.28316 0.17343 0.94121 0.0
C15 C 0.37885 0.2042 0.92179 0.0
H16 H 0.21773 0.14673 0.88344 0.0
H17 H 0.38724 0.20026 0.84877 0.0
H18 H 0.82238 0.90126 0.09595 0.0
H19 H 0.14237 0.19667 0.31833 0.0
H20 H 0.63834 0.85279 0.08652 0.0
H21 H 0.5375 0.26402 0.98218 0.0
H22 H 0.60915 0.31008 0.16088 0.0
H23 H 1.01937 0.87304 0.70954 0.0
H24 H 0.45806 0.31315 0.44192 0.0
H25 H 0.28106 0.26805 0.46352 0.0
H26 H 0.50212 0.76141 0.74435 0.0
H27 H 0.58016 0.32777 0.32816 0.0
H28 H 0.73194 0.77649 0.52283 0.0
H29 H 0.91675 0.81973 0.54438 0.0
N30 N 0.89572 0.86708 0.78259 0.0
C31 C 0.79366 0.83963 0.77176 0.0
C32 C 0.9395 0.85737 0.7019 0.0
C33 C 0.77696 0.80129 0.59593 0.0
C34 C 0.88125 0.82583 0.60779 0.0
C35 C 0.73162 0.80675 0.67814 0.0
H36 H 0.57781 0.75432 0.59796 0.0
N37 N 0.81213 0.87385 0.9434 0.0
C38 C 0.75059 0.8423 0.85414 0.0
C39 C 0.60455 0.81826 0.93002 0.0
C40 C 0.64501 0.81403 0.84524 0.0
C41 C 0.77313 0.87663 0.02587 0.0
C42 C 0.66892 0.8494 0.02063 0.0
O43 O 0.21532 0.07918 0.01173 0.0
O44 O 0.14145 0.98742 0.04032 0.0
O45 O 0.95033 0.8387 0.97991 0.0
O46 O 0.03847 0.84912 0.86856 0.0
O47 O 0.03586 0.05983 0.91468 0.0
O48 O 0.07663 0.97488 0.85929 0.0
O49 O 0.89217 0.97404 0.9532 0.0
O50 O 0.96224 0.0702 0.09816 0.0
O51 O 0.05569 0.16604 -0.00334 0.0
O52 O 0.12188 0.22336 0.15093 0.0
O53 O 1.00925 0.96674 0.11025 0.0
O54 O 0.08297 0.08345 0.18327 0.0
C55 C 0.21944 0.03104 0.02435 0.0
C56 C 0.06452 0.02101 0.84744 0.0
C57 C 0.9397 0.74029 0.85461 0.0
C58 C 0.89989 0.62917 0.83466 0.0
C59 C 0.82485 0.64334 0.70926 0.0
C60 C 0.87596 0.71202 0.76414 0.0
C61 C 0.83663 0.60213 0.74396 0.0
C62 C 0.95112 0.69868 0.88978 0.0
C63 C 0.99444 0.81278 0.9139 0.0
C64 C 0.58334 0.78301 0.75251 0.0
C65 C 0.6265 0.77926 0.6692 0.0
H66 H 0.52387 0.79759 0.9263 0.0
C67 C 0.88467 0.02138 0.02848 0.0
C68 C 0.04679 0.02548 0.18698 0.0
C69 C 0.99672 0.2411 0.09194 0.0
C70 C 0.92179 0.3066 0.07171 0.0
C71 C 0.85151 0.24175 0.1632 0.0
C72 C 0.9248 0.2203 0.14663 0.0
C73 C 0.84965 0.28442 0.126 0.0
C74 C 0.99499 0.28414 0.0546 0.0
C75 C 0.07578 0.22 0.07534 0.0
H76 H 0.77558 0.6219 0.63959 0.0
H77 H 0.86551 0.74275 0.73572 0.0
H78 H 0.79495 0.54898 0.70038 0.0
H79 H 1.0008 0.72053 0.9595 0.0
H80 H 0.79661 0.22591 0.20607 0.0
H81 H 0.92633 0.18825 0.17744 0.0
H82 H 0.79305 0.30121 0.14168 0.0
H83 H 0.05069 0.30002 0.01217 0.0
C84 C 0.13197 0.07668 0.36161 0.0
C85 C 0.05105 0.02589 0.28459 0.0
C86 C 0.13868 0.07684 0.45389 0.0
C87 C 0.0631 0.0243 0.46885 0.0
C88 C 0.98224 0.97204 0.39082 0.0
C89 C 0.97754 0.97333 0.29946 0.0
C90 C 0.22651 0.13318 0.53528 0.0
C91 C 0.90032 0.91504 0.40406 0.0
C92 C 0.11621 0.9937 0.6839 0.0
C93 C 0.0666 0.0225 0.75105 0.0
C94 C 0.11621 0.9941 0.59159 0.0
C95 C 0.06664 0.02487 0.56693 0.0
C96 C 1.0183 0.05522 0.6353 0.0
C97 C 1.01875 0.05358 0.72644 0.0
C98 C 0.16835 0.96113 0.52018 0.0
C99 C 0.96499 0.08874 0.61175 0.0
H100 H 0.19181 0.11524 0.34898 0.0
H101 H 0.91593 0.93316 0.23992 0.0
H102 H 0.19858 0.15957 0.59764 0.0
H103 H 0.26778 0.11361 0.56319 0.0
H104 H 0.28012 0.16946 0.51087 0.0
H105 H 0.84374 0.87758 0.33532 0.0
H106 H 0.93371 0.89028 0.42901 0.0
H107 H 0.86099 0.93388 0.46177 0.0
H108 H 0.15506 0.97088 0.70348 0.0
H109 H 0.9804 0.07614 0.77807 0.0
H110 H 0.22628 0.99718 0.49831 0.0
H111 H 0.11299 0.92028 0.4525 0.0
H112 H 0.20508 0.94055 0.55145 0.0
H113 H 1.01788 0.12786 0.59195 0.0
H114 H 0.93343 0.1116 0.6742 0.0
H115 H 0.9026 0.05216 0.54735 0.0
C116 C 0.32517 0.98077 0.04795 0.0
C117 C 0.31591 0.02798 0.02576 0.0
C118 C 0.41646 0.97774 0.04991 0.0
C119 C 0.50071 0.02355 0.03049 0.0
C120 C 0.49181 0.07115 0.00789 0.0
C121 C 0.39928 0.0722 0.00467 0.0
C122 C 0.42265 0.92537 0.07222 0.0
C123 C 0.58031 0.12143 0.98796 0.0
C124 C 0.76385 0.05694 0.11806 0.0
C125 C 0.78592 0.02111 0.03047 0.0
C126 C 0.671 0.05802 0.1194 0.0
C127 C 0.59783 0.02101 0.03151 0.0
C128 C 0.61876 0.98331 0.94347 0.0
C129 C 0.71296 0.98453 0.9438 0.0
C130 C 0.65132 0.09887 0.21469 0.0
C131 C 0.54212 0.94228 0.84855 0.0
H132 H 0.26102 0.94594 0.0636 0.0
H133 H 0.39238 0.10756 0.985 0.0
H134 H 0.44639 0.89449 0.01119 0.0
H135 H 0.48045 0.94917 0.13928 0.0
H136 H 0.34962 0.89246 0.08344 0.0
H137 H 0.55971 0.1531 0.96687 0.0
H138 H 0.64056 0.15383 0.05472 0.0
H139 H 0.61212 0.09622 0.92842 0.0
H140 H 0.81922 0.08425 0.1856 0.0
H141 H 0.72974 0.95725 0.87553 0.0
H142 H 0.58919 0.06577 0.23768 0.0
H143 H 0.627 0.13267 0.20471 0.0
H144 H 0.71886 0.12887 0.27465 0.0
H145 H 0.47105 0.90675 0.8584 0.0
H146 H 0.56912 0.91401 0.7873 0.0
H147 H 0.52418 0.97488 0.82747 0.0
C148 C 0.9085 0.59599 0.96966 0.0
C149 C 0.91093 0.58453 0.87138 0.0
C150 C 0.91324 0.55209 0.00355 0.0
C151 C 0.92098 0.49541 0.93775 0.0
C152 C 0.92569 0.48438 0.83902 0.0
C153 C 0.92053 0.52894 0.8071 0.0
C154 C 0.9079 0.56565 0.10934 0.0
C155 C 0.93472 0.42492 0.76663 0.0
C156 C 1.0126 0.40773 0.04192 0.0
C157 C 0.92182 0.35417 0.03531 0.0
C158 C 1.01353 0.45398 0.01049 0.0
C159 C 0.92148 0.44669 0.97138 0.0
C160 C 0.82965 0.39253 0.96388 0.0
C161 C 0.8309 0.34707 -0.00404 0.0
C162 C 0.11305 0.51098 0.01983 0.0
C163 C 0.72988 0.38273 0.92223 0.0
H164 H 0.90012 0.6384 0.01961 0.0
H165 H 0.92405 0.52023 0.73143 0.0
H166 H 0.83941 0.52487 0.11279 0.0
H167 H 0.97384 0.5673 0.14497 0.0
H168 H 0.90587 0.61314 0.15207 0.0
H169 H 0.94049 0.42446 0.69323 0.0
H170 H 1.00216 0.42428 0.79451 0.0
H171 H 0.86809 0.37872 0.7581 0.0
H172 H 0.0831 0.41428 0.07354 0.0
H173 H 0.76043 0.30551 0.98946 0.0
H174 H 0.11425 0.55869 0.06809 0.0
H175 H 0.12271 0.51047 0.94688 0.0
H176 H 0.17807 0.50919 0.05056 0.0
H177 H 0.71769 0.4256 0.96872 0.0
H178 H 0.66556 0.33678 0.91784 0.0
H179 H 0.73023 0.38034 0.84757 0.0
loop_
_geom_bond_atom_site_label_1
_geom_bond_atom_site_label_2
_geom_bond_distance
_geom_bond_site_symmetry_2
_ccdc_geom_bond_type
C0 C2 1.422 . S
C0 C4 1.415 . S
C0 N6 1.369 . S
C1 C2 1.421 . S
C1 C3 1.417 . S
C1 C13 1.422 . S
C2 C0 1.422 . S
C2 C1 1.421 . S
C2 N12 1.359 . S
C3 C1 1.417 . S
C3 C5 1.329 . S
C3 H22 0.930 . S
C4 C0 1.415 . S
C4 C5 1.437 . S
C4 C8 1.413 . S
C5 C3 1.329 . S
C5 C4 1.437 . S
C5 H27 0.929 . S
N6 C0 1.369 . S
N6 C7 1.338 . S
N6 Gd11 2.622 . S
C7 N6 1.338 . S
C7 C9 1.378 . S
C7 H19 0.929 . S
C8 C4 1.413 . S
C8 C9 1.348 . S
C8 H24 0.931 . S
C9 C7 1.378 . S
C9 C8 1.348 . S
C9 H25 0.930 . S
Gd10 N30 2.622 . S
Gd10 N37 2.570 . S
Gd10 O44 2.353 1_655 S
Gd10 O45 2.468 . S
Gd10 O46 2.427 . S
Gd10 O48 2.388 . S
Gd10 O49 2.386 . S
Gd10 O53 2.307 1_556 S
Gd10 C63 2.805 . S
Gd11 N6 2.622 . S
Gd11 N12 2.570 . S
Gd11 O43 2.386 . S
Gd11 O47 2.307 1_554 S
Gd11 O50 2.353 1_455 S
Gd11 O51 2.468 . S
Gd11 O52 2.427 . S
Gd11 O54 2.388 . S
Gd11 C75 2.805 . S
N12 C2 1.359 . S
N12 Gd11 2.570 . S
N12 C14 1.343 1_554 S
C13 C1 1.422 . S
C13 C15 1.321 1_554 S
C13 H21 0.931 1_554 S
C14 N12 1.343 1_556 S
C14 C15 1.390 . S
C14 H16 0.931 . S
C15 C13 1.321 1_556 S
C15 C14 1.390 . S
C15 H17 0.930 . S
H16 C14 0.931 . S
H17 C15 0.930 . S
H18 C41 0.931 . S
H19 C7 0.929 . S
H20 C42 0.930 . S
H21 C13 0.931 1_556 S
H22 C3 0.930 . S
H23 C32 0.929 . S
H24 C8 0.931 . S
H25 C9 0.930 . S
H26 C64 0.930 . S
H27 C5 0.929 . S
H28 C33 0.931 . S
H29 C34 0.930 . S
N30 Gd10 2.622 . S
N30 C31 1.369 . S
N30 C32 1.338 . S
C31 N30 1.369 . S
C31 C35 1.415 . S
C31 C38 1.422 . S
C32 H23 0.929 . S
C32 N30 1.338 . S
C32 C34 1.378 . S
C33 H28 0.931 . S
C33 C34 1.348 . S
C33 C35 1.413 . S
C34 H29 0.930 . S
C34 C32 1.378 . S
C34 C33 1.348 . S
C35 C31 1.415 . S
C35 C33 1.413 . S
C35 C65 1.437 . S
H36 C65 0.929 . S
N37 Gd10 2.570 . S
N37 C38 1.359 . S
N37 C41 1.343 1_556 S
C38 C31 1.422 . S
C38 N37 1.359 . S
C38 C40 1.421 . S
C39 C40 1.422 . S
C39 C42 1.321 1_556 S
C39 H66 0.931 1_556 S
C40 C38 1.421 . S
C40 C39 1.422 . S
C40 C64 1.417 . S
C41 H18 0.931 . S
C41 N37 1.343 1_554 S
C41 C42 1.390 . S
C42 H20 0.930 . S
C42 C39 1.321 1_554 S
C42 C41 1.390 . S
O43 Gd11 2.386 . S
O43 C55 1.263 1_545 S
O44 Gd10 2.353 1_455 S
O44 C55 1.243 1_556 S
O45 Gd10 2.468 . S
O45 C63 1.263 . S
O46 Gd10 2.427 . S
O46 C63 1.252 . S
O47 Gd11 2.307 1_556 S
O47 C56 1.261 1_545 S
O48 Gd10 2.388 . S
O48 C56 1.252 1_655 S
O49 Gd10 2.386 . S
O49 C67 1.259 1_565 S
O50 Gd11 2.353 1_655 S
O50 C67 1.245 1_554 S
O51 Gd11 2.468 . S
O51 C75 1.263 . S
O52 Gd11 2.427 . S
O52 C75 1.252 . S
O53 Gd10 2.307 1_554 S
O53 C68 1.261 1_565 S
O54 Gd11 2.388 . S
O54 C68 1.252 1_455 S
C55 O43 1.263 1_565 S
C55 O44 1.243 1_554 S
C56 O47 1.261 1_565 S
C56 O48 1.252 1_455 S
C57 C60 1.394 . S
C57 C62 1.370 . S
C57 C63 1.500 . S
C58 C61 1.383 . S
C58 C62 1.395 . S
C59 C60 1.396 . S
C59 C61 1.365 . S
C59 H76 0.929 . S
C60 C57 1.394 . S
C60 C59 1.396 . S
C60 H77 0.930 . S
C61 C58 1.383 . S
C61 C59 1.365 . S
C61 H78 0.931 . S
C62 C57 1.370 . S
C62 C58 1.395 . S
C62 H79 0.930 1_556 S
C63 Gd10 2.805 . S
C63 O45 1.263 . S
C63 O46 1.252 . S
C63 C57 1.500 . S
C64 H26 0.930 . S
C64 C40 1.417 . S
C64 C65 1.329 . S
C65 C35 1.437 . S
C65 H36 0.929 . S
C65 C64 1.329 . S
H66 C39 0.931 1_554 S
C67 O49 1.259 1_545 S
C67 O50 1.245 1_556 S
C68 O53 1.261 1_545 S
C68 O54 1.252 1_655 S
C69 C72 1.394 . S
C69 C74 1.370 . S
C69 C75 1.500 . S
C70 C73 1.383 . S
C70 C74 1.395 . S
C71 C72 1.396 . S
C71 C73 1.365 . S
C71 H80 0.929 . S
C72 C69 1.394 . S
C72 C71 1.396 . S
C72 H81 0.930 . S
C73 C70 1.383 . S
C73 C71 1.365 . S
C73 H82 0.931 . S
C74 C69 1.370 . S
C74 C70 1.395 . S
C74 H83 0.930 1_554 S
C75 Gd11 2.805 . S
C75 O51 1.263 . S
C75 O52 1.252 . S
C75 C69 1.500 . S
H76 C59 0.929 . S
H77 C60 0.930 . S
H78 C61 0.931 . S
H79 C62 0.930 1_554 S
H80 C71 0.929 . S
H81 C72 0.930 . S
H82 C73 0.931 . S
H83 C74 0.930 1_556 S
C84 C85 1.391 1_455 S
C84 C86 1.394 . S
C84 H100 0.931 . S
C85 C84 1.391 1_655 S
C85 C89 1.376 1_545 S
C86 C84 1.394 . S
C86 C87 1.369 1_455 S
C86 C90 1.531 . S
C87 C86 1.369 1_655 S
C87 C88 1.410 1_545 S
C87 C95 1.503 . S
C88 C87 1.410 1_565 S
C88 C89 1.392 . S
C88 C91 1.511 . S
C89 C85 1.376 1_565 S
C89 C88 1.392 . S
C89 H101 0.929 . S
C90 C86 1.531 . S
C90 H102 0.960 . S
C90 H103 0.962 . S
C90 H104 0.960 . S
C91 C88 1.511 . S
C91 H105 0.961 . S
C91 H106 0.961 . S
C91 H107 0.961 . S
C92 C93 1.363 1_465 S
C92 C94 1.363 . S
C92 H108 0.931 . S
C93 C92 1.363 1_645 S
C93 C97 1.426 . S
C94 C92 1.363 . S
C94 C95 1.370 1_465 S
C94 C98 1.524 . S
C95 C87 1.503 . S
C95 C94 1.370 1_645 S
C95 C96 1.403 . S
C96 C95 1.403 . S
C96 C97 1.404 . S
C96 C99 1.539 . S
C97 C93 1.426 . S
C97 C96 1.404 . S
C97 H109 0.930 . S
C98 C94 1.524 . S
C98 H110 0.956 . S
C98 H111 0.961 . S
C98 H112 0.961 . S
C99 C96 1.539 . S
C99 H113 0.958 . S
C99 H114 0.961 . S
C99 H115 0.960 . S
H100 C84 0.931 . S
H101 C89 0.929 . S
H102 C90 0.960 . S
H103 C90 0.962 . S
H104 C90 0.960 . S
H105 C91 0.961 . S
H106 C91 0.961 . S
H107 C91 0.961 . S
H108 C92 0.931 . S
H109 C97 0.930 . S
H110 C98 0.956 . S
H111 C98 0.961 . S
H112 C98 0.961 . S
H113 C99 0.958 . S
H114 C99 0.961 . S
H115 C99 0.960 . S
C116 C117 1.391 . S
C116 C118 1.394 . S
C116 H132 0.931 . S
C117 C116 1.391 . S
C117 C121 1.376 1_566 S
C118 C116 1.394 . S
C118 C119 1.369 . S
C118 C122 1.531 . S
C119 C118 1.369 . S
C119 C120 1.410 1_566 S
C119 C127 1.503 . S
C120 C119 1.410 1_544 S
C120 C121 1.392 . S
C120 C123 1.511 . S
C121 C117 1.376 1_544 S
C121 C120 1.392 . S
C121 H133 0.929 . S
C122 C118 1.531 . S
C122 H134 0.960 . S
C122 H135 0.962 . S
C122 H136 0.960 . S
C123 C120 1.511 . S
C123 H137 0.961 . S
C123 H138 0.961 . S
C123 H139 0.961 1_554 S
C124 C125 1.370 1_544 S
C124 C126 1.363 . S
C124 H140 0.931 . S
C125 C124 1.370 1_566 S
C125 C129 1.409 . S
C126 C124 1.363 . S
C126 C127 1.370 1_544 S
C126 C130 1.524 . S
C127 C119 1.503 . S
C127 C126 1.370 1_566 S
C127 C128 1.403 . S
C128 C127 1.403 . S
C128 C129 1.404 . S
C128 C131 1.539 . S
C129 C125 1.409 . S
C129 C128 1.404 . S
C129 H141 0.930 . S
C130 C126 1.524 . S
C130 H142 0.956 1_545 S
C130 H143 0.961 . S
C130 H144 0.961 . S
C131 C128 1.539 . S
C131 H145 0.958 . S
C131 H146 0.961 . S
C131 H147 0.960 . S
H132 C116 0.931 . S
H133 C121 0.929 . S
H134 C122 0.960 . S
H135 C122 0.962 . S
H136 C122 0.960 . S
H137 C123 0.961 . S
H138 C123 0.961 . S
H139 C123 0.961 1_556 S
H140 C124 0.931 . S
H141 C129 0.930 . S
H142 C130 0.956 1_565 S
H143 C130 0.961 . S
H144 C130 0.961 . S
H145 C131 0.958 . S
H146 C131 0.961 . S
H147 C131 0.960 . S
C148 C149 1.391 1_554 S
C148 C150 1.394 . S
C148 H164 0.931 . S
C149 C148 1.391 1_556 S
C149 C153 1.376 1_655 S
C150 C148 1.394 . S
C150 C151 1.369 1_554 S
C150 C154 1.531 . S
C151 C150 1.369 1_556 S
C151 C152 1.410 1_655 S
C151 C159 1.503 . S
C152 C151 1.410 1_455 S
C152 C153 1.392 . S
C152 C155 1.511 . S
C153 C149 1.376 1_455 S
C153 C152 1.392 . S
C153 H165 0.929 . S
C154 C150 1.531 . S
C154 H166 0.960 . S
C154 H167 0.962 . S
C154 H168 0.960 . S
C155 C152 1.511 . S
C155 H169 0.961 . S
C155 H170 0.961 . S
C155 H171 0.961 1_455 S
C156 C157 1.370 1_454 S
C156 C158 1.363 . S
C156 H172 0.931 . S
C157 C156 1.370 1_656 S
C157 C161 1.408 . S
C158 C156 1.363 . S
C158 C159 1.370 1_454 S
C158 C162 1.524 . S
C159 C151 1.503 . S
C159 C158 1.370 1_656 S
C159 C160 1.403 . S
C160 C159 1.403 . S
C160 C161 1.404 . S
C160 C163 1.539 . S
C161 C157 1.408 . S
C161 C160 1.404 . S
C161 H173 0.930 . S
C162 C158 1.524 . S
C162 H174 0.956 . S
C162 H175 0.961 . S
C162 H176 0.961 . S
C163 C160 1.539 . S
C163 H177 0.958 . S
C163 H178 0.961 . S
C163 H179 0.960 . S
H164 C148 0.931 . S
H165 C153 0.929 . S
H166 C154 0.960 . S
H167 C154 0.962 . S
H168 C154 0.960 . S
H169 C155 0.961 . S
H170 C155 0.961 . S
H171 C155 0.961 1_655 S
H172 C156 0.931 . S
H173 C161 0.930 . S
H174 C162 0.956 . S
H175 C162 0.961 . S
H176 C162 0.961 . S
H177 C163 0.958 . S
H178 C163 0.961 . S
H179 C163 0.960 . S
C85 C68 1.457 . S
C93 C56 1.475 1_645 S
C117 C55 1.501 1_556 S
C125 C67 1.493 1_565 S
C149 C58 1.328 . S
C157 C70 1.368 1_656 S
