# Generated by pormake.
# Topology pcu, (6)-cn, num edge types: 1
# Building blocks:
#     Node 0, Type 0, BuildingBlock: KUMJIN_clean_sbu_0, # of connection points: 6
#     Edge 1, Type (0, 0), BuildingBlock: UVAHIK_clean_linker_0, # of connection points: 2
#     Edge 2, Type (0, 0), BuildingBlock: UVAHIK_clean_linker_0, # of connection points: 2
#     Edge 3, Type (0, 0), BuildingBlock: UVAHIK_clean_linker_0, # of connection points: 2
# Relax obj value: 0.000
# Max RMSD: 0.000
# Mean RMSD: 0.000
data_MOF--net-pcu--node1-KUMJIN_clean_sbu_0--edge1-UVAHIK_clean_linker_0
_symmetry_space_group_name_H-M    P1
_symmetry_Int_Tables_number       1
_symmetry_cell_setting            triclinic
loop_
_symmetry_equiv_pos_as_xyz
'x, y, z'
_cell_length_a     18.403403
_cell_length_b     28.870432
_cell_length_c     19.817159
_cell_angle_alpha  115.74979
_cell_angle_beta   73.956366
_cell_angle_gamma 116.56991
loop_
_atom_site_label
_atom_site_type_symbol
_atom_site_fract_x
_atom_site_fract_y
_atom_site_fract_z
_atom_type_partial_charge
Eu0 Eu 0.08222 0.07603 0.0241 0.0
C1 C 0.81648 0.84955 0.85631 0.0
C2 C 0.68959 0.85074 0.93398 0.0
C3 C 0.68908 0.80073 0.79872 0.0
C4 C 0.77514 0.86708 0.92627 0.0
C5 C 0.77377 0.81512 0.79192 0.0
C6 C 0.64707 0.81856 0.86964 0.0
C7 C 0.90047 0.8079 0.72019 0.0
N8 N 0.89808 0.86383 0.85183 0.0
C9 C 0.94001 0.84197 0.78573 0.0
C10 C 0.81714 0.79497 0.72308 0.0
Eu11 Eu 0.96162 0.92344 0.96418 0.0
N12 N 0.81802 0.89772 0.98731 0.0
C13 C 0.77835 0.90999 0.05822 0.0
C14 C 0.64915 0.866 0.00632 0.0
C15 C 0.69363 0.89503 0.06876 0.0
H16 H 1.00456 0.85223 0.78332 0.0
H17 H 0.66277 0.90615 0.12503 0.0
H18 H 0.58147 0.8061 0.87435 0.0
H19 H 0.93425 0.79172 0.66754 0.0
H20 H 0.81191 0.93268 0.10699 0.0
H21 H 0.38104 0.09343 0.86315 0.0
H22 H 0.58355 0.85449 0.01465 0.0
H23 H 0.03931 0.14717 0.20501 0.0
H24 H 0.23189 0.06687 0.88124 0.0
H25 H 0.10966 0.20765 0.32077 0.0
H26 H 0.65525 0.77475 0.7498 0.0
H27 H 0.46031 0.14507 0.9735 0.0
H28 H 0.46243 0.1934 0.1138 0.0
H29 H 0.78656 0.76842 0.67229 0.0
H30 H 0.38867 0.22469 0.23839 0.0
N31 N 0.22583 0.10179 0.00093 0.0
C32 C 0.26547 0.08954 0.93 0.0
C33 C 0.3947 0.13355 0.98186 0.0
C34 C 0.35428 0.14877 0.0542 0.0
C35 C 0.3502 0.10453 0.91943 0.0
C36 C 0.26873 0.13241 0.06195 0.0
H37 H 0.25736 0.23097 0.31596 0.0
N38 N 0.14579 0.13561 0.13645 0.0
C39 C 0.14344 0.19149 0.2681 0.0
C40 C 0.22739 0.1499 0.13194 0.0
C41 C 0.10387 0.15744 0.20257 0.0
C42 C 0.22677 0.20444 0.26518 0.0
C43 C 0.27013 0.18431 0.19631 0.0
O44 O 0.04523 0.14572 0.05666 0.0
O45 O 0.9616 0.00759 -0.00259 0.0
O46 O 0.96759 0.95105 0.87161 0.0
O47 O 0.08353 0.0333 0.89572 0.0
O48 O 0.95943 0.07836 0.08767 0.0
O49 O 0.12515 0.12649 0.95438 0.0
O50 O 0.99854 0.85373 0.93168 0.0
O51 O 0.08214 0.99187 0.99075 0.0
O52 O 0.07631 0.04838 0.11661 0.0
O53 O 0.9603 0.96619 0.09255 0.0
O54 O 0.08449 0.92109 0.90073 0.0
O55 O 0.91865 0.87302 0.03396 0.0
C56 C 0.91471 0.02975 0.04617 0.0
C57 C 0.13994 0.22049 0.01934 0.0
C58 C 0.15855 0.31231 0.02825 0.0
C59 C 0.11146 0.255 0.01015 0.0
C60 C 0.23432 0.33436 0.05618 0.0
C61 C 0.21569 0.24342 0.04704 0.0
C62 C 0.26249 0.30008 0.06541 0.0
C63 C 0.02679 0.99186 0.85152 0.0
C64 C 0.0898 0.16086 0.00053 0.0
C65 C 0.35482 0.19872 0.18947 0.0
C66 C 0.39682 0.18092 0.11854 0.0
C67 C 0.12916 0.96976 0.94215 0.0
C68 C 0.90379 0.779 0.96906 0.0
C69 C 0.93226 0.74448 0.97823 0.0
C70 C 0.88514 0.68718 0.96016 0.0
C71 C 0.80935 0.66515 0.93228 0.0
C72 C 0.82801 0.75609 0.94141 0.0
C73 C 0.78119 0.69944 0.92307 0.0
C74 C 1.0171 0.00758 0.13672 0.0
C75 C 0.95397 0.83862 0.98783 0.0
H76 H 0.0532 0.23702 0.98804 0.0
H77 H 0.27148 0.37831 0.07187 0.0
H78 H 0.23866 0.21762 0.05443 0.0
H79 H 0.32077 0.31754 0.08708 0.0
H80 H 0.99053 0.76245 0.00031 0.0
H81 H 0.77217 0.6212 0.91661 0.0
H82 H 0.80505 0.7819 0.93403 0.0
H83 H 0.72289 0.68199 0.90143 0.0
C84 C 0.94981 0.96905 0.24001 0.0
C85 C 1.01577 0.00745 0.21173 0.0
C86 C 0.95056 0.96755 0.30941 0.0
C87 C 0.04871 0.05108 0.48695 0.0
H88 H 0.97532 0.90808 0.50517 0.0
C89 C 0.0941 0.0304 0.74823 0.0
C90 C 0.02814 0.99198 0.77649 0.0
C91 C 0.09337 0.03188 0.67882 0.0
C92 C 0.99527 0.94834 0.50125 0.0
H93 H 0.13479 0.07397 0.23421 0.0
H94 H 0.13575 0.07148 0.35494 0.0
H95 H 0.97072 0.91204 0.38605 0.0
H96 H 0.90916 0.92543 0.75397 0.0
H97 H 0.90823 0.92791 0.63323 0.0
H98 H 0.07325 0.08738 0.60214 0.0
C99 C 0.08286 0.04309 0.32408 0.0
C100 C 0.99251 0.95061 0.433 0.0
C101 C 0.08222 0.0445 0.25471 0.0
C102 C 0.96173 0.95491 0.73349 0.0
C103 C 0.96111 0.95632 0.6641 0.0
C104 C 0.05146 0.04881 0.5552 0.0
C105 C 1.01727 0.00441 0.35211 0.0
C106 C 1.0192 0.00201 0.42503 0.0
C107 C 0.02669 0.99501 0.63609 0.0
C108 C 0.02477 0.99741 0.56317 0.0
H109 H 0.8976 0.93991 0.20849 0.0
H110 H 0.89861 0.93769 0.32983 0.0
H111 H 0.06866 0.09134 0.48302 0.0
H112 H 0.14629 0.05955 0.77977 0.0
H113 H 0.14532 0.06175 0.65841 0.0
C114 C 0.2656 0.96354 0.89069 0.0
C115 C 0.21259 0.98122 0.95296 0.0
C116 C 0.3422 0.96973 0.90072 0.0
C117 C 0.45237 0.98357 0.04256 0.0
H118 H 0.64496 0.0299 0.90876 0.0
C119 C 0.77837 0.03616 0.09777 0.0
C120 C 0.83129 0.0184 0.03546 0.0
C121 C 0.70178 0.03002 0.0878 0.0
C122 C 0.59155 0.01623 0.94605 0.0
H123 H 0.1967 0.01713 0.07478 0.0
H124 H 0.33072 0.02916 0.09242 0.0
H125 H 0.51479 0.02461 0.89167 0.0
H126 H 0.84701 0.98237 0.91365 0.0
H127 H 0.71301 0.97047 0.89612 0.0
H128 H 0.52914 0.9752 0.09694 0.0
C129 C 0.31347 0.01065 0.03571 0.0
C130 C 0.51698 0.0133 0.93632 0.0
C131 C 0.23703 0.00451 0.02558 0.0
C132 C 0.80675 0.99507 0.96288 0.0
C133 C 0.73033 0.989 0.95281 0.0
C134 C 0.52695 0.9865 0.0523 0.0
C135 C 0.36675 0.9929 0.97345 0.0
C136 C 0.44647 0.99692 0.98444 0.0
C137 C 0.67715 0.00683 0.0151 0.0
C138 C 0.59745 0.00286 0.00417 0.0
H139 H 0.24744 0.94451 0.83422 0.0
H140 H 0.38122 0.95491 0.85162 0.0
H141 H 0.39896 0.96989 0.07985 0.0
H142 H 0.7966 0.0552 0.15421 0.0
H143 H 0.66283 0.0449 0.13693 0.0
C144 C 0.86002 0.6081 -0.00211 0.0
C145 C 0.91456 0.65017 0.96983 0.0
C146 C 0.88662 0.57204 0.00466 0.0
C147 C 0.05093 0.51664 0.93228 0.0
H148 H 0.97042 0.47109 0.10522 0.0
C149 C 0.18366 0.39138 0.99052 0.0
C150 C 0.12912 0.3493 0.01857 0.0
C151 C 0.15705 0.42743 0.98373 0.0
C152 C 0.99273 0.48281 0.05608 0.0
H153 H 0.04027 0.68729 0.92723 0.0
H154 H 0.08708 0.62498 0.94032 0.0
H155 H 0.92631 0.53623 0.09666 0.0
H156 H 1.0034 0.31216 0.06113 0.0
H157 H 0.95658 0.37446 0.04801 0.0
H158 H 0.11736 0.46323 0.8917 0.0
C159 C 0.02336 0.6195 0.95627 0.0
C160 C 0.9675 0.52027 0.05121 0.0
C161 C 0.99674 0.65567 0.94961 0.0
C162 C 0.04694 0.34379 0.03876 0.0
C163 C 1.02031 0.37995 0.03208 0.0
C164 C 0.07616 0.47919 0.93715 0.0
C165 C 0.96853 0.57703 0.98356 0.0
C166 C 0.99625 0.53767 0.98924 0.0
C167 C 0.07513 0.42243 0.00481 0.0
C168 C 0.04742 0.46178 -0.00088 0.0
H169 H 0.79652 0.60306 0.01487 0.0
H170 H 0.84251 0.53956 0.02523 0.0
H171 H 0.07324 0.52837 0.88314 0.0
H172 H 0.24716 0.39643 0.97355 0.0
H173 H 0.20116 0.45992 0.96317 0.0
loop_
_geom_bond_atom_site_label_1
_geom_bond_atom_site_label_2
_geom_bond_distance
_geom_bond_site_symmetry_2
_ccdc_geom_bond_type
Eu0 N31 2.657 1_554 S
Eu0 N38 2.609 . S
Eu0 O44 2.558 . S
Eu0 O45 2.612 1_444 S
Eu0 O47 2.339 1_554 S
Eu0 O48 2.563 1_455 S
Eu0 O49 2.419 . S
Eu0 O51 2.380 . S
Eu0 O52 2.432 1_455 S
Eu0 C64 2.848 . S
C1 C4 1.429 . S
C1 C5 1.411 . S
C1 N8 1.377 . S
C2 C4 1.420 . S
C2 C6 1.423 . S
C2 C14 1.392 1_556 S
C3 C5 1.420 . S
C3 C6 1.351 . S
C3 H26 0.931 . S
C4 C1 1.429 . S
C4 C2 1.420 . S
C4 N12 1.362 1_556 S
C5 C1 1.411 . S
C5 C3 1.420 . S
C5 C10 1.395 . S
C6 C2 1.423 . S
C6 C3 1.351 . S
C6 H18 0.930 . S
C7 C9 1.400 . S
C7 C10 1.386 . S
C7 H19 0.930 . S
N8 C1 1.377 . S
N8 C9 1.321 . S
N8 Eu11 2.609 . S
C9 C7 1.400 . S
C9 N8 1.321 . S
C9 H16 0.930 . S
C10 C5 1.395 . S
C10 C7 1.386 . S
C10 H29 0.930 . S
Eu11 N8 2.609 . S
Eu11 N12 2.657 1_556 S
Eu11 O45 2.380 . S
Eu11 O46 2.432 1_655 S
Eu11 O50 2.558 . S
Eu11 O51 2.612 1_666 S
Eu11 O53 2.339 1_556 S
Eu11 O54 2.563 1_655 S
Eu11 O55 2.419 . S
Eu11 C75 2.848 . S
N12 C4 1.362 1_554 S
N12 Eu11 2.657 1_554 S
N12 C13 1.334 . S
C13 N12 1.334 . S
C13 C15 1.413 . S
C13 H20 0.929 . S
C14 C2 1.392 1_554 S
C14 C15 1.367 . S
C14 H22 0.930 . S
C15 C13 1.413 . S
C15 C14 1.367 . S
C15 H17 0.930 . S
H16 C9 0.930 . S
H17 C15 0.930 . S
H18 C6 0.930 . S
H19 C7 0.930 . S
H20 C13 0.929 . S
H21 C35 0.930 . S
H22 C14 0.930 . S
H23 C41 0.930 . S
H24 C32 0.929 . S
H25 C39 0.930 . S
H26 C3 0.931 . S
H27 C33 0.930 . S
H28 C66 0.930 . S
H29 C10 0.930 . S
H30 C65 0.931 . S
N31 Eu0 2.657 1_556 S
N31 C32 1.334 . S
N31 C36 1.362 1_556 S
C32 H24 0.929 . S
C32 N31 1.334 . S
C32 C35 1.413 . S
C33 H27 0.930 . S
C33 C34 1.392 1_556 S
C33 C35 1.367 . S
C34 C33 1.392 1_554 S
C34 C36 1.420 . S
C34 C66 1.423 . S
C35 H21 0.930 . S
C35 C32 1.413 . S
C35 C33 1.367 . S
C36 N31 1.362 1_554 S
C36 C34 1.420 . S
C36 C40 1.429 . S
H37 C42 0.930 . S
N38 Eu0 2.609 . S
N38 C40 1.377 . S
N38 C41 1.321 . S
C39 H25 0.930 . S
C39 C41 1.400 . S
C39 C42 1.386 . S
C40 C36 1.429 . S
C40 N38 1.377 . S
C40 C43 1.411 . S
C41 H23 0.930 . S
C41 N38 1.321 . S
C41 C39 1.400 . S
C42 H37 0.930 . S
C42 C39 1.386 . S
C42 C43 1.395 . S
C43 C40 1.411 . S
C43 C42 1.395 . S
C43 C65 1.420 . S
O44 Eu0 2.558 . S
O44 C64 1.257 . S
O45 Eu0 2.612 1_666 S
O45 Eu11 2.380 . S
O45 C56 1.276 1_566 S
O46 Eu11 2.432 1_455 S
O46 C63 1.264 . S
O47 Eu0 2.339 1_556 S
O47 C63 1.254 1_545 S
O48 Eu0 2.563 1_655 S
O48 C56 1.235 . S
O49 Eu0 2.419 . S
O49 C64 1.249 . S
O50 Eu11 2.558 . S
O50 C75 1.257 . S
O51 Eu0 2.380 . S
O51 Eu11 2.612 1_444 S
O51 C67 1.276 1_544 S
O52 Eu0 2.432 1_655 S
O52 C74 1.264 . S
O53 Eu11 2.339 1_554 S
O53 C74 1.254 1_565 S
O54 Eu11 2.563 1_455 S
O54 C67 1.235 . S
O55 Eu11 2.419 . S
O55 C75 1.249 . S
C56 O45 1.276 1_544 S
C56 O48 1.235 . S
C57 C59 1.393 . S
C57 C61 1.395 . S
C57 C64 1.492 . S
C58 C59 1.392 . S
C58 C60 1.386 . S
C59 C57 1.393 . S
C59 C58 1.392 . S
C59 H76 0.930 1_554 S
C60 C58 1.386 . S
C60 C62 1.395 . S
C60 H77 0.930 . S
C61 C57 1.395 . S
C61 C62 1.379 . S
C61 H78 0.930 . S
C62 C60 1.395 . S
C62 C61 1.379 . S
C62 H79 0.930 . S
C63 O46 1.264 . S
C63 O47 1.254 1_565 S
C64 Eu0 2.848 . S
C64 O44 1.257 . S
C64 O49 1.249 . S
C64 C57 1.492 . S
C65 H30 0.931 . S
C65 C43 1.420 . S
C65 C66 1.351 . S
C66 H28 0.930 . S
C66 C34 1.423 . S
C66 C65 1.351 . S
C67 O51 1.276 1_566 S
C67 O54 1.235 . S
C68 C69 1.393 . S
C68 C72 1.395 . S
C68 C75 1.492 . S
C69 C68 1.393 . S
C69 C70 1.392 . S
C69 H80 0.930 1_556 S
C70 C69 1.392 . S
C70 C71 1.386 . S
C71 C70 1.386 . S
C71 C73 1.395 . S
C71 H81 0.930 . S
C72 C68 1.395 . S
C72 C73 1.379 . S
C72 H82 0.930 . S
C73 C71 1.395 . S
C73 C72 1.379 . S
C73 H83 0.930 . S
C74 O52 1.264 . S
C74 O53 1.254 1_545 S
C75 Eu11 2.848 . S
C75 O50 1.257 . S
C75 O55 1.249 . S
C75 C68 1.492 . S
H76 C59 0.930 1_556 S
H77 C60 0.930 . S
H78 C61 0.930 . S
H79 C62 0.930 . S
H80 C69 0.930 1_554 S
H81 C71 0.930 . S
H82 C72 0.930 . S
H83 C73 0.930 . S
C84 C85 1.349 1_565 S
C84 C86 1.327 . S
C84 H109 0.950 . S
C85 C84 1.349 1_545 S
C85 C101 1.349 1_455 S
C86 C84 1.327 . S
C86 C105 1.429 1_565 S
C86 H110 0.950 . S
C87 C104 1.574 . S
C87 C106 1.368 1_655 S
C87 H111 0.949 . S
H88 C92 0.949 . S
C89 C90 1.349 1_655 S
C89 C91 1.327 . S
C89 H112 0.950 . S
C90 C89 1.349 1_455 S
C90 C102 1.349 1_545 S
C91 C89 1.327 . S
C91 C107 1.429 1_655 S
C91 H113 0.950 . S
C92 H88 0.949 . S
C92 C100 1.574 . S
C92 C108 1.368 1_565 S
H93 C101 0.950 . S
H94 C99 0.950 . S
H95 C100 0.949 . S
H96 C102 0.950 . S
H97 C103 0.950 . S
H98 C104 0.949 . S
C99 H94 0.950 . S
C99 C101 1.327 . S
C99 C105 1.429 1_655 S
C100 C92 1.574 . S
C100 H95 0.949 . S
C100 C106 1.368 1_565 S
C101 C85 1.349 1_655 S
C101 H93 0.950 . S
C101 C99 1.327 . S
C102 C90 1.349 1_565 S
C102 H96 0.950 . S
C102 C103 1.327 . S
C103 H97 0.950 . S
C103 C102 1.327 . S
C103 C107 1.429 1_565 S
C104 C87 1.574 . S
C104 H98 0.949 . S
C104 C108 1.368 1_655 S
C105 C86 1.429 1_545 S
C105 C99 1.429 1_455 S
C105 C106 1.523 . S
C106 C87 1.368 1_455 S
C106 C100 1.368 1_545 S
C106 C105 1.523 . S
C107 C91 1.429 1_455 S
C107 C103 1.429 1_545 S
C107 C108 1.523 . S
C108 C92 1.368 1_545 S
C108 C104 1.368 1_455 S
C108 C107 1.523 . S
H109 C84 0.950 . S
H110 C86 0.950 . S
H111 C87 0.949 . S
H112 C89 0.950 . S
H113 C91 0.950 . S
C114 C115 1.349 1_556 S
C114 C116 1.327 . S
C114 H139 0.950 . S
C115 C114 1.349 1_554 S
C115 C131 1.338 1_545 S
C116 C114 1.327 . S
C116 C135 1.429 1_556 S
C116 H140 0.950 . S
C117 C134 1.574 . S
C117 C136 1.357 1_565 S
C117 H141 0.949 . S
H118 C122 0.949 . S
C119 C120 1.348 1_565 S
C119 C121 1.327 . S
C119 H142 0.961 . S
C120 C119 1.348 1_545 S
C120 C132 1.349 1_554 S
C121 C119 1.327 . S
C121 C137 1.417 1_565 S
C121 H143 0.951 . S
C122 H118 0.949 . S
C122 C130 1.574 . S
C122 C138 1.368 1_556 S
H123 C131 0.950 . S
H124 C129 0.961 . S
H125 C130 0.949 . S
H126 C132 0.950 . S
H127 C133 0.950 . S
H128 C134 0.962 . S
C129 H124 0.961 . S
C129 C131 1.327 . S
C129 C135 1.429 1_565 S
C130 C122 1.574 . S
C130 H125 0.949 . S
C130 C136 1.368 1_556 S
C131 C115 1.338 1_565 S
C131 H123 0.950 . S
C131 C129 1.327 . S
C132 C120 1.349 1_556 S
C132 H126 0.950 . S
C132 C133 1.327 . S
C133 H127 0.950 . S
C133 C132 1.327 . S
C133 C137 1.429 1_556 S
C134 C117 1.574 . S
C134 H128 0.962 . S
C134 C138 1.366 1_565 S
C135 C116 1.429 1_554 S
C135 C129 1.429 1_545 S
C135 C136 1.523 . S
C136 C117 1.357 1_545 S
C136 C130 1.368 1_554 S
C136 C135 1.523 . S
C137 C121 1.417 1_545 S
C137 C133 1.429 1_554 S
C137 C138 1.523 . S
C138 C122 1.368 1_554 S
C138 C134 1.366 1_545 S
C138 C137 1.523 . S
H139 C114 0.950 . S
H140 C116 0.950 . S
H141 C117 0.949 . S
H142 C119 0.961 . S
H143 C121 0.951 . S
C144 C145 1.349 1_655 S
C144 C146 1.327 . S
C144 H169 0.950 . S
C145 C144 1.349 1_455 S
C145 C161 1.349 1_554 S
C146 C144 1.327 . S
C146 C165 1.429 1_655 S
C146 H170 0.950 . S
C147 C164 1.574 . S
C147 C166 1.368 1_556 S
C147 H171 0.949 . S
H148 C152 0.949 . S
C149 C150 1.349 1_556 S
C149 C151 1.327 . S
C149 H172 0.950 . S
C150 C149 1.349 1_554 S
C150 C162 1.349 1_455 S
C151 C149 1.327 . S
C151 C167 1.429 1_556 S
C151 H173 0.950 . S
C152 H148 0.949 . S
C152 C160 1.574 . S
C152 C168 1.368 1_655 S
H153 C161 0.950 . S
H154 C159 0.950 . S
H155 C160 0.949 . S
H156 C162 0.950 . S
H157 C163 0.950 . S
H158 C164 0.949 . S
C159 H154 0.950 . S
C159 C161 1.327 . S
C159 C165 1.429 1_556 S
C160 C152 1.574 . S
C160 H155 0.949 . S
C160 C166 1.368 1_655 S
C161 C145 1.349 1_556 S
C161 H153 0.950 . S
C161 C159 1.327 . S
C162 C150 1.349 1_655 S
C162 H156 0.950 . S
C162 C163 1.327 . S
C163 H157 0.950 . S
C163 C162 1.327 . S
C163 C167 1.429 1_655 S
C164 C147 1.574 . S
C164 H158 0.949 . S
C164 C168 1.368 1_556 S
C165 C146 1.429 1_455 S
C165 C159 1.429 1_554 S
C165 C166 1.523 . S
C166 C147 1.368 1_554 S
C166 C160 1.368 1_455 S
C166 C165 1.523 . S
C167 C151 1.429 1_554 S
C167 C163 1.429 1_455 S
C167 C168 1.523 . S
C168 C152 1.368 1_455 S
C168 C164 1.368 1_554 S
C168 C167 1.523 . S
H169 C144 0.950 . S
H170 C146 0.950 . S
H171 C147 0.949 . S
H172 C149 0.950 . S
H173 C151 0.950 . S
C85 C74 1.472 1_455 S
C90 C63 1.472 1_545 S
C115 C67 1.438 1_544 S
C120 C56 1.438 . S
C145 C70 1.324 1_454 S
C150 C58 1.324 . S
