# Generated by pormake.
# Topology qtz-x, (6)-cn, num edge types: 1
# Building blocks:
#     Node 0, Type 0, BuildingBlock: VOLQOD_clean_sbu_1, # of connection points: 6
#     Node 1, Type 0, BuildingBlock: VOLQOD_clean_sbu_1, # of connection points: 6
#     Node 2, Type 0, BuildingBlock: VOLQOD_clean_sbu_1, # of connection points: 6
#     Edge 3, Type (0, 0), None
#     Edge 4, Type (0, 0), None
#     Edge 5, Type (0, 0), None
#     Edge 6, Type (0, 0), None
#     Edge 7, Type (0, 0), None
#     Edge 8, Type (0, 0), None
#     Edge 9, Type (0, 0), None
#     Edge 10, Type (0, 0), None
#     Edge 11, Type (0, 0), None
# Relax obj value: 0.229
# Max RMSD: 0.195
# Mean RMSD: 0.195
data_MOF--net-qtz-x--node1-VOLQOD_clean_sbu_1--edge1-none
_symmetry_space_group_name_H-M    P1
_symmetry_Int_Tables_number       1
_symmetry_cell_setting            triclinic
loop_
_symmetry_equiv_pos_as_xyz
'x, y, z'
_cell_length_a     8.9122615
_cell_length_b     9.0389675
_cell_length_c     18.797428
_cell_angle_alpha  88.70136
_cell_angle_beta   92.498412
_cell_angle_gamma 120.14443
loop_
_atom_site_label
_atom_site_type_symbol
_atom_site_fract_x
_atom_site_fract_y
_atom_site_fract_z
_atom_type_partial_charge
O0 O 0.12939 0.96523 0.12515 0.0
Zn1 Zn 0.19859 0.77904 0.12894 0.0
O2 O 0.01617 0.56291 0.16534 0.0
Zn3 Zn 0.92506 0.38855 0.09449 0.0
Zn4 Zn 0.83266 0.60157 0.19546 0.0
Zn5 Zn 0.09855 0.46682 0.23936 0.0
O6 O 0.98841 0.20151 0.10616 0.0
O7 O 0.04974 0.22324 0.22193 0.0
O8 O 0.25724 0.74114 0.02813 0.0
O9 O 0.00955 0.50016 0.00275 0.0
O10 O 0.66933 0.2757 0.09038 0.0
O11 O 0.64199 0.49699 0.11685 0.0
O12 O 0.77053 0.51158 0.29604 0.0
O13 O 0.38452 0.85637 0.20858 0.0
O14 O 0.99163 0.47244 0.32952 0.0
O15 O 0.35302 0.61356 0.25328 0.0
C16 C 0.02079 0.98007 0.16213 0.0
C17 C 0.02228 0.14432 0.16328 0.0
C18 C 0.59546 0.36321 0.07978 0.0
C19 C 0.15146 0.62752 0.98353 0.0
C20 C 0.85967 0.48401 0.34417 0.0
C21 C 0.42754 0.77541 0.254 0.0
O22 O 0.90892 0.85477 0.19799 0.0
O23 O 0.87977 0.90912 0.48155 0.0
Zn24 Zn 0.62192 0.83758 0.47481 0.0
O25 O 0.59522 0.02698 0.50149 0.0
Zn26 Zn 0.48327 0.09259 0.42928 0.0
Zn27 Zn 0.81278 0.21245 0.53814 0.0
Zn28 Zn 0.43521 0.95863 0.57505 0.0
O29 O 0.23568 0.02709 0.45181 0.0
O30 O 0.26915 0.0527 0.56906 0.0
O31 O 0.5349 0.7755 0.37168 0.0
O32 O 0.48189 0.98368 0.33814 0.0
O33 O 0.62248 0.34349 0.41577 0.0
O34 O 0.87743 0.38605 0.45862 0.0
O35 O 0.77237 0.27636 0.63627 0.0
O36 O 0.48962 0.65178 0.54966 0.0
O37 O 0.57911 0.0123 0.66512 0.0
O38 O 0.28313 0.7107 0.5682 0.0
C39 C 0.0119 0.03057 0.514 0.0
C40 C 0.1808 0.03803 0.51178 0.0
C41 C 0.78682 0.42033 0.41388 0.0
C42 C 0.49859 0.85606 0.3234 0.0
C43 C 0.67995 0.16683 0.68309 0.0
C44 C 0.3517 0.61967 0.58096 0.0
O45 O 0.00309 0.15011 0.54472 0.0
O46 O 0.84213 0.71397 0.85403 0.0
Zn47 Zn 0.65048 0.4633 0.85497 0.0
O48 O 0.42838 0.435 0.82647 0.0
Zn49 Zn 0.31204 0.27767 0.75013 0.0
Zn50 Zn 0.45353 0.65741 0.80566 0.0
Zn51 Zn 0.2649 0.33039 0.89939 0.0
O52 O 0.06605 0.08529 0.76797 0.0
O53 O 0.08984 0.07818 0.88543 0.0
O54 O 0.71391 0.34298 0.78182 0.0
O55 O 0.45294 0.17642 0.72974 0.0
O56 O 0.32147 0.40488 0.66146 0.0
O57 O 0.35606 0.64844 0.70482 0.0
O58 O 0.34959 0.71697 0.88847 0.0
O59 O 0.63177 0.378 0.95679 0.0
O60 O 0.13258 0.45247 0.89231 0.0
O61 O 0.39056 0.36392 0.99487 0.0
C62 C 0.84466 0.8467 0.82818 0.0
C63 C 0.00952 0.01007 0.82704 0.0
C64 C 0.33099 0.54873 0.65265 0.0
C65 C 0.61331 0.22556 0.73808 0.0
C66 C 0.20632 0.60559 0.91418 0.0
C67 C 0.53147 0.36216 0.00677 0.0
O68 O 0.70682 0.84208 0.80399 0.0
loop_
_geom_bond_atom_site_label_1
_geom_bond_atom_site_label_2
_geom_bond_distance
_geom_bond_site_symmetry_2
_ccdc_geom_bond_type
O0 Zn1 1.953 . S
O0 C16 1.225 . S
Zn1 O0 1.953 . S
Zn1 O2 1.949 . S
Zn1 O8 1.919 . S
Zn1 O13 1.924 . S
O2 Zn1 1.949 . S
O2 Zn3 1.923 1_455 S
O2 Zn4 1.950 1_455 S
O2 Zn5 1.945 . S
Zn3 O2 1.923 1_655 S
Zn3 O6 1.933 . S
Zn3 O9 1.941 1_655 S
Zn3 O10 1.965 . S
Zn4 O2 1.950 1_655 S
Zn4 O11 1.938 . S
Zn4 O12 1.906 . S
Zn4 O22 1.953 . S
Zn5 O2 1.945 . S
Zn5 O7 1.932 . S
Zn5 O14 1.977 1_455 S
Zn5 O15 1.910 . S
O6 Zn3 1.933 . S
O6 C17 1.226 1_655 S
O7 Zn5 1.932 . S
O7 C17 1.307 . S
O8 Zn1 1.919 . S
O8 C19 1.253 . S
O9 Zn3 1.941 1_455 S
O9 C19 1.283 . S
O10 Zn3 1.965 . S
O10 C18 1.303 . S
O11 Zn4 1.938 . S
O11 C18 1.247 . S
O12 Zn4 1.906 . S
O12 C20 1.304 . S
O13 Zn1 1.924 . S
O13 C21 1.311 . S
O14 Zn5 1.977 1_655 S
O14 C20 1.272 . S
O15 Zn5 1.910 . S
O15 C21 1.231 . S
C16 O0 1.225 . S
C16 O22 1.298 1_455 S
C17 O6 1.226 1_455 S
C17 O7 1.307 . S
C18 O10 1.303 . S
C18 O11 1.247 . S
C19 O8 1.253 . S
C19 O9 1.283 . S
C20 O12 1.304 . S
C20 O14 1.272 . S
C21 O13 1.311 . S
C21 O15 1.231 . S
O22 Zn4 1.953 . S
O22 C16 1.298 1_655 S
O23 Zn24 1.953 . S
O23 C39 1.225 . S
Zn24 O23 1.953 . S
Zn24 O25 1.949 1_565 S
Zn24 O31 1.919 . S
Zn24 O36 1.924 . S
O25 Zn24 1.949 1_545 S
O25 Zn26 1.923 . S
O25 Zn27 1.950 . S
O25 Zn28 1.945 1_545 S
Zn26 O25 1.923 . S
Zn26 O29 1.933 . S
Zn26 O32 1.941 1_545 S
Zn26 O33 1.965 . S
Zn27 O25 1.950 . S
Zn27 O34 1.938 . S
Zn27 O35 1.906 . S
Zn27 O45 1.953 . S
Zn28 O25 1.945 1_565 S
Zn28 O30 1.932 . S
Zn28 O37 1.977 1_565 S
Zn28 O38 1.910 . S
O29 Zn26 1.933 . S
O29 C40 1.226 . S
O30 Zn28 1.932 . S
O30 C40 1.307 1_565 S
O31 Zn24 1.919 . S
O31 C42 1.253 . S
O32 Zn26 1.941 1_565 S
O32 C42 1.283 . S
O33 Zn26 1.965 . S
O33 C41 1.303 . S
O34 Zn27 1.938 . S
O34 C41 1.247 . S
O35 Zn27 1.906 . S
O35 C43 1.304 . S
O36 Zn24 1.924 . S
O36 C44 1.311 . S
O37 Zn28 1.977 1_545 S
O37 C43 1.272 . S
O38 Zn28 1.910 . S
O38 C44 1.231 . S
C39 O23 1.225 . S
C39 O45 1.298 1_565 S
C40 O29 1.226 . S
C40 O30 1.307 1_545 S
C41 O33 1.303 . S
C41 O34 1.247 . S
C42 O31 1.253 . S
C42 O32 1.283 . S
C43 O35 1.304 . S
C43 O37 1.272 . S
C44 O36 1.311 . S
C44 O38 1.231 . S
O45 Zn27 1.953 . S
O45 C39 1.298 1_545 S
O46 Zn47 1.953 . S
O46 C62 1.225 . S
Zn47 O46 1.953 . S
Zn47 O48 1.949 . S
Zn47 O54 1.919 . S
Zn47 O59 1.924 . S
O48 Zn47 1.949 . S
O48 Zn49 1.923 . S
O48 Zn50 1.950 . S
O48 Zn51 1.945 . S
Zn49 O48 1.923 . S
Zn49 O52 1.933 . S
Zn49 O55 1.941 . S
Zn49 O56 1.965 . S
Zn50 O48 1.950 . S
Zn50 O57 1.938 . S
Zn50 O58 1.906 . S
Zn50 O68 1.953 . S
Zn51 O48 1.945 . S
Zn51 O53 1.932 . S
Zn51 O60 1.977 . S
Zn51 O61 1.910 . S
O52 Zn49 1.933 . S
O52 C63 1.226 . S
O53 Zn51 1.932 . S
O53 C63 1.307 . S
O54 Zn47 1.919 . S
O54 C65 1.253 . S
O55 Zn49 1.941 . S
O55 C65 1.283 . S
O56 Zn49 1.965 . S
O56 C64 1.303 . S
O57 Zn50 1.938 . S
O57 C64 1.247 . S
O58 Zn50 1.906 . S
O58 C66 1.304 . S
O59 Zn47 1.924 . S
O59 C67 1.311 . S
O60 Zn51 1.977 . S
O60 C66 1.272 . S
O61 Zn51 1.910 . S
O61 C67 1.231 . S
C62 O46 1.225 . S
C62 O68 1.298 . S
C63 O52 1.226 . S
C63 O53 1.307 . S
C64 O56 1.303 . S
C64 O57 1.247 . S
C65 O54 1.253 . S
C65 O55 1.283 . S
C66 O58 1.304 . S
C66 O60 1.272 . S
C67 O59 1.311 . S
C67 O61 1.231 . S
O68 Zn50 1.953 . S
O68 C62 1.298 . S
C16 C17 1.825 1_565 S
C40 C39 1.825 1_445 S
C62 C63 1.825 1_665 S
C66 C19 1.046 1_556 S
C41 C20 1.334 . S
C64 C44 1.509 . S
C67 C18 1.477 1_556 S
C21 C42 1.179 . S
C65 C43 1.021 . S
