# Generated by pormake.
# Topology hex, (8)-cn, num edge types: 1
# Building blocks:
#     Node 0, Type 0, BuildingBlock: EBIMEJ_clean_sbu_0, # of connection points: 8
#     Edge 1, Type (0, 0), BuildingBlock: FUNLAD_clean_linker_1, # of connection points: 2
#     Edge 2, Type (0, 0), BuildingBlock: FUNLAD_clean_linker_1, # of connection points: 2
#     Edge 3, Type (0, 0), BuildingBlock: FUNLAD_clean_linker_1, # of connection points: 2
#     Edge 4, Type (0, 0), BuildingBlock: FUNLAD_clean_linker_1, # of connection points: 2
# Relax obj value: 0.012
# Max RMSD: 0.051
# Mean RMSD: 0.051
data_MOF--net-hex--node1-EBIMEJ_clean_sbu_0--edge1-FUNLAD_clean_linker_1
_symmetry_space_group_name_H-M    P1
_symmetry_Int_Tables_number       1
_symmetry_cell_setting            triclinic
loop_
_symmetry_equiv_pos_as_xyz
'x, y, z'
_cell_length_a     17.954329
_cell_length_b     21.009639
_cell_length_c     16.955369
_cell_angle_alpha  73.71385
_cell_angle_beta   114.11063
_cell_angle_gamma 124.7895
loop_
_atom_site_label
_atom_site_type_symbol
_atom_site_fract_x
_atom_site_fract_y
_atom_site_fract_z
_atom_type_partial_charge
Co0 Co 0.97141 0.88064 0.94981 0.0
Co1 Co 0.9017 0.97893 -0.00156 0.0
Co2 Co 0.10281 0.05903 0.99542 0.0
H3 H 0.02573 0.96853 0.98896 0.0
O4 O 0.99883 0.95162 0.02833 0.0
H5 H 0.97878 0.06943 0.0049 0.0
O6 O 0.00568 0.08634 0.96554 0.0
Co7 Co 0.03311 0.15731 0.04405 0.0
O8 O 0.90304 0.11355 0.05422 0.0
O9 O 0.80785 1.01046 0.97327 0.0
O10 O 0.16382 0.23304 0.02669 0.0
O11 O 0.20381 0.16891 0.98103 0.0
O12 O 0.03022 0.81118 0.99462 0.0
O13 O 0.88885 0.76613 0.91729 0.0
O14 O 0.05126 0.10488 0.16343 0.0
O15 O 0.93577 0.98376 0.12643 0.0
C16 C 0.18405 0.97739 0.98014 0.0
C17 C 0.78514 0.80681 0.99421 0.0
C18 C 0.04937 0.28538 0.03619 0.0
C19 C 0.00725 1.00412 0.81055 0.0
C20 C 0.82046 0.06056 0.01372 0.0
C21 C 0.21938 0.23115 -0.00034 0.0
C22 C 0.95515 0.75258 0.95767 0.0
C23 C 0.99726 0.03383 0.18332 0.0
O24 O 0.10147 0.92441 0.93964 0.0
O25 O 0.19667 0.02749 0.02059 0.0
O26 O 0.8007 0.86905 0.01283 0.0
O27 O 0.84069 0.80492 0.96717 0.0
O28 O 0.9743 0.22678 -0.00076 0.0
O29 O 0.11567 0.27183 0.07657 0.0
O30 O 0.95326 0.93307 0.83043 0.0
O31 O 0.06874 0.0542 0.86743 0.0
H32 H 0.13022 0.40953 0.06179 0.0
C33 C 0.05957 0.36118 0.03301 0.0
H34 H 0.91308 0.32256 0.972 0.0
H35 H 0.94258 0.5873 0.11678 0.0
H36 H 0.87317 0.47823 0.21518 0.0
H37 H 0.85758 0.35385 0.21456 0.0
H38 H 0.91204 0.33787 0.11598 0.0
C39 C 0.9846 0.37142 -0.0024 0.0
C40 C 0.99499 0.4474 -0.00217 0.0
C41 C 0.96077 0.4555 0.0543 0.0
C42 C 0.96869 0.52715 0.05391 0.0
C43 C 0.93676 0.53397 0.11317 0.0
C44 C 0.89705 0.47186 0.17024 0.0
C45 C 0.88833 0.40184 0.16993 0.0
C46 C 0.91977 0.39343 0.11291 0.0
H47 H 0.8743 0.62843 0.93208 0.0
C48 C 0.94495 0.67678 0.96085 0.0
H49 H 0.09144 0.71539 0.02186 0.0
H50 H 0.06194 0.45066 0.87708 0.0
H51 H 0.13135 0.55973 0.77868 0.0
H52 H 0.14694 0.68411 0.77931 0.0
H53 H 0.09247 0.70009 0.87788 0.0
C54 C 0.01992 0.66653 0.99627 0.0
C55 C 0.00953 0.59056 0.99603 0.0
C56 C 0.04374 0.58246 0.93956 0.0
C57 C 0.03583 0.51081 0.93995 0.0
C58 C 0.06776 0.50399 0.8807 0.0
C59 C 0.10747 0.56609 0.82363 0.0
C60 C 0.11619 0.63612 0.82393 0.0
C61 C 0.08474 0.64453 0.88095 0.0
H62 H 0.75262 0.08518 0.07307 0.0
C63 C 0.73881 0.05654 0.02 0.0
H64 H 0.63543 0.99388 0.90936 0.0
H65 H 0.29709 0.86777 0.05572 0.0
H66 H 0.28045 0.74898 0.03937 0.0
H67 H 0.39742 0.75306 0.99405 0.0
H68 H 0.53181 0.87593 0.96541 0.0
C69 C 0.6509 0.02297 0.96273 0.0
C70 C 0.57234 0.02121 0.97535 0.0
C71 C 0.49302 0.94877 0.98994 0.0
C72 C 0.42399 0.94646 0.01343 0.0
C73 C 0.34881 0.87316 0.0331 0.0
C74 C 0.33914 0.80437 0.02522 0.0
C75 C 0.40509 0.80667 -8e-05 0.0
C76 C 0.48186 0.87777 0.98342 0.0
H77 H 0.2519 0.95278 0.92079 0.0
C78 C 0.26571 0.98142 0.97386 0.0
H79 H 0.36908 0.04409 0.08449 0.0
H80 H 0.70743 0.17019 0.93813 0.0
H81 H 0.72407 0.28898 0.95449 0.0
H82 H 0.6071 0.28491 -0.0002 0.0
H83 H 0.4727 0.16203 0.02844 0.0
C84 C 0.35361 1.01499 0.03113 0.0
C85 C 0.43217 1.01676 0.0185 0.0
C86 C 0.5115 0.08919 0.00392 0.0
C87 C 0.58053 0.09151 0.98042 0.0
C88 C 0.65571 0.1648 0.96076 0.0
C89 C 0.66538 0.23359 0.96864 0.0
C90 C 0.59943 0.23129 0.99394 0.0
C91 C 0.52266 0.16019 0.01044 0.0
H92 H 0.3615 0.30225 0.98067 0.0
C93 C 0.30745 0.30477 0.99122 0.0
H94 H 0.2693 0.37714 0.00843 0.0
H95 H 0.68785 0.65413 0.15516 0.0
H96 H 0.63374 0.60612 0.28072 0.0
H97 H 0.4788 0.48542 0.278 0.0
H98 H 0.37759 0.41171 0.14998 0.0
C99 C 0.32243 0.37409 -0.00306 0.0
C100 C 0.41443 0.44802 0.99637 0.0
C101 C 0.47192 0.49144 0.07126 0.0
C102 C 0.5604 0.56194 0.07226 0.0
C103 C 0.61842 0.60188 0.14948 0.0
C104 C 0.58862 0.57455 0.22247 0.0
C105 C 0.50148 0.50656 0.22099 0.0
C106 C 0.44385 0.46497 0.14677 0.0
H107 H 0.64302 0.7357 0.01319 0.0
C108 C 0.69706 0.73318 0.00264 0.0
H109 H 0.73521 0.66081 0.98543 0.0
H110 H 0.31667 0.38383 0.8387 0.0
H111 H 0.37078 0.43184 0.71314 0.0
H112 H 0.52572 0.55253 0.71586 0.0
H113 H 0.62693 0.62625 0.84388 0.0
C114 C 0.68208 0.66387 -0.00308 0.0
C115 C 0.59009 0.58994 -0.00251 0.0
C116 C 0.53259 0.54652 0.9226 0.0
C117 C 0.44411 0.47602 0.9216 0.0
C118 C 0.3861 0.43608 0.84438 0.0
C119 C 0.41589 0.46341 0.77139 0.0
C120 C 0.50303 0.5314 0.77287 0.0
C121 C 0.56066 0.57299 0.84709 0.0
H122 H 0.06366 0.08772 0.7074 0.0
C123 C 0.00998 0.02833 0.72053 0.0
H124 H 0.9061 0.91767 0.67139 0.0
H125 H 0.99835 0.15692 0.32054 0.0
H126 H 0.94042 0.22254 0.3538 0.0
H127 H 0.896 0.18496 0.4866 0.0
H128 H 0.90978 0.08172 0.58709 0.0
C129 C 0.95737 0.97789 0.65791 0.0
C130 C 0.97891 0.99869 0.57479 0.0
C131 C 0.96881 0.05837 0.51574 0.0
C132 C 0.99309 0.07918 0.43837 0.0
C133 C 0.98192 0.1389 0.3806 0.0
C134 C 0.94819 0.17694 0.39863 0.0
C135 C 0.9233 0.15586 0.47343 0.0
C136 C 0.93253 0.09692 0.53109 0.0
H137 H 0.94086 0.95023 0.28647 0.0
C138 C 0.99453 1.00963 0.27333 0.0
H139 H 0.09841 0.12028 0.32247 0.0
H140 H 0.00617 0.88103 0.67332 0.0
H141 H 0.06409 0.81542 0.64006 0.0
H142 H 0.10851 0.85299 0.50726 0.0
H143 H 0.09473 0.95624 0.40677 0.0
C144 C 0.04715 0.06007 0.33595 0.0
C145 C 0.02561 0.03927 0.41907 0.0
C146 C 0.0357 0.97959 0.47812 0.0
C147 C 0.01143 0.95878 0.55549 0.0
C148 C 0.0226 0.89905 0.61326 0.0
C149 C 0.05632 0.86101 0.59523 0.0
C150 C 0.08121 0.8821 0.52043 0.0
C151 C 0.07198 0.94104 0.46277 0.0
loop_
_geom_bond_atom_site_label_1
_geom_bond_atom_site_label_2
_geom_bond_distance
_geom_bond_site_symmetry_2
_ccdc_geom_bond_type
Co0 H3 2.400 1_556 S
Co0 O4 2.009 1_556 S
Co0 O12 2.115 1_455 S
Co0 O13 2.315 1_556 S
Co0 O24 2.053 . S
Co0 O27 2.094 1_455 S
Co0 O30 2.122 1_455 S
Co1 O4 2.126 1_655 S
Co1 H5 2.388 1_564 S
Co1 O6 2.053 1_564 S
Co1 O9 2.047 1_554 S
Co1 O15 2.113 . S
Co1 O26 2.063 . S
Co2 H3 2.388 1_546 S
Co2 O4 2.053 1_546 S
Co2 O6 2.126 1_455 S
Co2 O11 2.063 . S
Co2 O25 2.047 1_556 S
Co2 O31 2.113 . S
H3 Co0 2.400 1_554 S
H3 Co2 2.388 1_564 S
H3 O4 0.760 . S
O4 Co0 2.009 1_554 S
O4 Co1 2.126 1_455 S
O4 Co2 2.053 1_564 S
O4 H3 0.760 . S
H5 Co1 2.388 1_546 S
H5 O6 0.760 . S
H5 Co7 2.400 1_556 S
O6 Co1 2.053 1_546 S
O6 Co2 2.126 1_655 S
O6 H5 0.760 . S
O6 Co7 2.009 1_556 S
Co7 H5 2.400 1_554 S
Co7 O6 2.009 1_554 S
Co7 O8 2.053 . S
Co7 O10 2.094 1_655 S
Co7 O14 2.122 1_655 S
Co7 O28 2.115 1_655 S
Co7 O29 2.315 1_554 S
O8 Co7 2.053 . S
O8 C20 1.259 . S
O9 Co1 2.047 1_556 S
O9 C20 1.257 1_566 S
O10 Co7 2.094 1_455 S
O10 C21 1.253 . S
O11 Co2 2.063 . S
O11 C21 1.268 1_556 S
O12 Co0 2.115 1_655 S
O12 C22 1.281 1_556 S
O13 Co0 2.315 1_554 S
O13 C22 1.252 1_455 S
O14 Co7 2.122 1_455 S
O14 C23 1.272 1_455 S
O15 Co1 2.113 . S
O15 C23 1.245 1_565 S
C16 O24 1.259 . S
C16 O25 1.257 1_566 S
C17 O26 1.268 1_556 S
C17 O27 1.253 . S
C18 O28 1.281 1_556 S
C18 O29 1.252 1_455 S
C19 O30 1.272 1_455 S
C19 O31 1.245 1_565 S
C20 O8 1.259 . S
C20 O9 1.257 1_544 S
C21 O10 1.253 . S
C21 O11 1.268 1_554 S
C22 O12 1.281 1_554 S
C22 O13 1.252 1_655 S
C23 O14 1.272 1_655 S
C23 O15 1.245 1_545 S
O24 Co0 2.053 . S
O24 C16 1.259 . S
O25 Co2 2.047 1_554 S
O25 C16 1.257 1_544 S
O26 Co1 2.063 . S
O26 C17 1.268 1_554 S
O27 Co0 2.094 1_655 S
O27 C17 1.253 . S
O28 Co7 2.115 1_455 S
O28 C18 1.281 1_554 S
O29 Co7 2.315 1_556 S
O29 C18 1.252 1_655 S
O30 Co0 2.122 1_655 S
O30 C19 1.272 1_655 S
O31 Co2 2.113 . S
O31 C19 1.245 1_545 S
H32 C33 0.951 . S
C33 H32 0.951 . S
C33 C39 1.265 1_455 S
H34 C39 0.950 . S
H35 C43 0.949 . S
H36 C44 0.950 . S
H37 C45 0.951 . S
H38 C46 0.951 . S
C39 C33 1.265 1_655 S
C39 H34 0.950 . S
C39 C40 1.478 . S
C40 C39 1.478 . S
C40 C41 1.397 1_556 S
C40 C57 1.394 1_655 S
C41 C40 1.397 1_554 S
C41 C42 1.438 . S
C41 C46 1.429 . S
C42 C41 1.438 . S
C42 C43 1.428 . S
C42 C55 1.394 1_655 S
C43 H35 0.949 . S
C43 C42 1.428 . S
C43 C44 1.345 . S
C44 H36 0.950 . S
C44 C43 1.345 . S
C44 C45 1.424 . S
C45 H37 0.951 . S
C45 C44 1.424 . S
C45 C46 1.347 . S
C46 H38 0.951 . S
C46 C41 1.429 . S
C46 C45 1.347 . S
H47 C48 0.951 . S
C48 H47 0.951 . S
C48 C54 1.265 1_655 S
H49 C54 0.950 . S
H50 C58 0.949 . S
H51 C59 0.950 . S
H52 C60 0.951 . S
H53 C61 0.951 . S
C54 C48 1.265 1_455 S
C54 H49 0.950 . S
C54 C55 1.478 . S
C55 C42 1.394 1_455 S
C55 C54 1.478 . S
C55 C56 1.397 1_554 S
C56 C55 1.397 1_556 S
C56 C57 1.438 . S
C56 C61 1.429 . S
C57 C40 1.394 1_455 S
C57 C56 1.438 . S
C57 C58 1.428 . S
C58 H50 0.949 . S
C58 C57 1.428 . S
C58 C59 1.345 . S
C59 H51 0.950 . S
C59 C58 1.345 . S
C59 C60 1.424 . S
C60 H52 0.951 . S
C60 C59 1.424 . S
C60 C61 1.347 . S
C61 H53 0.951 . S
C61 C56 1.429 . S
C61 C60 1.347 . S
H62 C63 0.951 . S
C63 H62 0.951 . S
C63 C69 1.265 1_544 S
H64 C69 0.950 . S
H65 C73 0.949 1_554 S
H66 C74 0.950 . S
H67 C75 0.951 . S
H68 C76 0.951 . S
C69 C63 1.265 1_566 S
C69 H64 0.950 . S
C69 C70 1.478 . S
C70 C69 1.478 . S
C70 C71 1.397 . S
C70 C87 1.394 1_566 S
C71 C70 1.397 . S
C71 C72 1.438 . S
C71 C76 1.429 . S
C72 C71 1.438 . S
C72 C73 1.428 . S
C72 C85 1.394 1_566 S
C73 H65 0.949 1_556 S
C73 C72 1.428 . S
C73 C74 1.345 . S
C74 H66 0.950 . S
C74 C73 1.345 . S
C74 C75 1.424 . S
C75 H67 0.951 . S
C75 C74 1.424 . S
C75 C76 1.347 . S
C76 H68 0.951 . S
C76 C71 1.429 . S
C76 C75 1.347 . S
H77 C78 0.951 . S
C78 H77 0.951 . S
C78 C84 1.265 1_566 S
H79 C84 0.950 . S
H80 C88 0.949 1_556 S
H81 C89 0.950 . S
H82 C90 0.951 . S
H83 C91 0.951 . S
C84 C78 1.265 1_544 S
C84 H79 0.950 . S
C84 C85 1.478 . S
C85 C72 1.394 1_544 S
C85 C84 1.478 . S
C85 C86 1.397 . S
C86 C85 1.397 . S
C86 C87 1.438 . S
C86 C91 1.429 . S
C87 C70 1.394 1_544 S
C87 C86 1.438 . S
C87 C88 1.428 . S
C88 H80 0.949 1_554 S
C88 C87 1.428 . S
C88 C89 1.345 . S
C89 H81 0.950 . S
C89 C88 1.345 . S
C89 C90 1.424 . S
C90 H82 0.951 . S
C90 C89 1.424 . S
C90 C91 1.347 . S
C91 H83 0.951 . S
C91 C86 1.429 . S
C91 C90 1.347 . S
H92 C93 0.951 . S
C93 H92 0.951 . S
C93 C99 1.265 . S
H94 C99 0.950 . S
H95 C103 0.949 . S
H96 C104 0.950 . S
H97 C105 0.951 . S
H98 C106 0.951 . S
C99 C93 1.265 . S
C99 H94 0.950 . S
C99 C100 1.478 . S
C100 C99 1.478 . S
C100 C101 1.397 . S
C100 C117 1.394 1_554 S
C101 C100 1.397 . S
C101 C102 1.438 . S
C101 C106 1.429 . S
C102 C101 1.438 . S
C102 C103 1.428 . S
C102 C115 1.394 1_554 S
C103 H95 0.949 . S
C103 C102 1.428 . S
C103 C104 1.345 . S
C104 H96 0.950 . S
C104 C103 1.345 . S
C104 C105 1.424 . S
C105 H97 0.951 . S
C105 C104 1.424 . S
C105 C106 1.347 . S
C106 H98 0.951 . S
C106 C101 1.429 . S
C106 C105 1.347 . S
H107 C108 0.951 . S
C108 H107 0.951 . S
C108 C114 1.265 . S
H109 C114 0.950 . S
H110 C118 0.949 . S
H111 C119 0.950 . S
H112 C120 0.951 . S
H113 C121 0.951 . S
C114 C108 1.265 . S
C114 H109 0.950 . S
C114 C115 1.478 . S
C115 C102 1.394 1_556 S
C115 C114 1.478 . S
C115 C116 1.397 . S
C116 C115 1.397 . S
C116 C117 1.438 . S
C116 C121 1.429 . S
C117 C100 1.394 1_556 S
C117 C116 1.438 . S
C117 C118 1.428 . S
C118 H110 0.949 . S
C118 C117 1.428 . S
C118 C119 1.345 . S
C119 H111 0.950 . S
C119 C118 1.345 . S
C119 C120 1.424 . S
C120 H112 0.951 . S
C120 C119 1.424 . S
C120 C121 1.347 . S
C121 H113 0.951 . S
C121 C116 1.429 . S
C121 C120 1.347 . S
H122 C123 0.947 . S
C123 H122 0.947 . S
C123 C129 1.266 1_445 S
H124 C129 0.946 . S
H125 C133 0.949 . S
H126 C134 0.950 . S
H127 C135 0.951 . S
H128 C136 0.951 . S
C129 C123 1.266 1_665 S
C129 H124 0.946 . S
C129 C130 1.478 . S
C130 C129 1.478 . S
C130 C131 1.393 1_565 S
C130 C147 1.401 . S
C131 C130 1.393 1_545 S
C131 C132 1.438 1_655 S
C131 C136 1.429 . S
C132 C131 1.438 1_455 S
C132 C133 1.428 . S
C132 C145 1.405 . S
C133 H125 0.949 . S
C133 C132 1.428 . S
C133 C134 1.345 . S
C134 H126 0.950 . S
C134 C133 1.345 . S
C134 C135 1.424 1_455 S
C135 H127 0.951 . S
C135 C134 1.424 1_655 S
C135 C136 1.347 . S
C136 H128 0.951 . S
C136 C131 1.429 . S
C136 C135 1.347 . S
H137 C138 0.949 . S
C138 H137 0.949 . S
C138 C144 1.266 1_665 S
H139 C144 0.944 . S
H140 C148 0.949 . S
H141 C149 0.950 . S
H142 C150 0.951 . S
H143 C151 0.951 . S
C144 C138 1.266 1_445 S
C144 H139 0.944 . S
C144 C145 1.478 . S
C145 C132 1.405 . S
C145 C144 1.478 . S
C145 C146 1.390 1_545 S
C146 C145 1.390 1_565 S
C146 C147 1.438 1_455 S
C146 C151 1.429 . S
C147 C130 1.401 . S
C147 C146 1.438 1_655 S
C147 C148 1.428 . S
C148 H140 0.949 . S
C148 C147 1.428 . S
C148 C149 1.345 . S
C149 H141 0.950 . S
C149 C148 1.345 . S
C149 C150 1.424 1_655 S
C150 H142 0.951 . S
C150 C149 1.424 1_455 S
C150 C151 1.347 . S
C151 H143 0.951 . S
C151 C146 1.429 . S
C151 C150 1.347 . S
C33 C18 1.758 . S
C48 C22 1.758 . S
C63 C20 0.986 . S
C78 C16 0.986 . S
C93 C21 1.664 . S
C108 C17 1.664 . S
C123 C19 1.430 1_545 S
C138 C23 1.430 1_565 S
