# Generated by pormake.
# Topology qtz-x, (6)-cn, num edge types: 1
# Building blocks:
#     Node 0, Type 0, BuildingBlock: UKALOJ_clean_sbu_0, # of connection points: 6
#     Node 1, Type 0, BuildingBlock: UKALOJ_clean_sbu_0, # of connection points: 6
#     Node 2, Type 0, BuildingBlock: UKALOJ_clean_sbu_0, # of connection points: 6
#     Edge 3, Type (0, 0), BuildingBlock: EYOCIG_clean_linker_4, # of connection points: 2
#     Edge 4, Type (0, 0), BuildingBlock: EYOCIG_clean_linker_4, # of connection points: 2
#     Edge 5, Type (0, 0), BuildingBlock: EYOCIG_clean_linker_4, # of connection points: 2
#     Edge 6, Type (0, 0), BuildingBlock: EYOCIG_clean_linker_4, # of connection points: 2
#     Edge 7, Type (0, 0), BuildingBlock: EYOCIG_clean_linker_4, # of connection points: 2
#     Edge 8, Type (0, 0), BuildingBlock: EYOCIG_clean_linker_4, # of connection points: 2
#     Edge 9, Type (0, 0), BuildingBlock: EYOCIG_clean_linker_4, # of connection points: 2
#     Edge 10, Type (0, 0), BuildingBlock: EYOCIG_clean_linker_4, # of connection points: 2
#     Edge 11, Type (0, 0), BuildingBlock: EYOCIG_clean_linker_4, # of connection points: 2
# Relax obj value: 0.337
# Max RMSD: 0.263
# Mean RMSD: 0.261
data_MOF--net-qtz-x--node1-UKALOJ_clean_sbu_0--edge1-EYOCIG_clean_linker_4
_symmetry_space_group_name_H-M    P1
_symmetry_Int_Tables_number       1
_symmetry_cell_setting            triclinic
loop_
_symmetry_equiv_pos_as_xyz
'x, y, z'
_cell_length_a     16.939604
_cell_length_b     16.938152
_cell_length_c     24.073561
_cell_angle_alpha  93.194149
_cell_angle_beta   93.150683
_cell_angle_gamma 120.10592
loop_
_atom_site_label
_atom_site_type_symbol
_atom_site_fract_x
_atom_site_fract_y
_atom_site_fract_z
_atom_type_partial_charge
Zn0 Zn 0.00728 0.55351 0.22628 0.0
O1 O 0.1044 0.6141 0.16462 0.0
C2 C 0.85836 0.43331 0.13948 0.0
Zn3 Zn 0.0048 0.42222 0.2099 0.0
C4 C 0.12999 0.56386 0.13938 0.0
O5 O 0.09689 0.48123 0.14969 0.0
C6 C 0.88317 0.40653 0.29686 0.0
O7 O 0.12137 0.46908 0.27158 0.0
O8 O 0.11816 0.5966 0.28641 0.0
N9 N 0.00067 0.3025 0.18941 0.0
C10 C 0.01434 0.24531 0.21978 0.0
C11 C 0.98045 0.18698 0.13489 0.0
N12 N 0.97964 0.26618 0.13672 0.0
N13 N 0.00217 0.173 0.18643 0.0
C14 C 0.01373 0.73835 0.21624 0.0
C15 C 0.00486 0.77546 0.30092 0.0
N16 N 0.00912 0.67209 0.24665 0.0
N17 N 0.0036 0.69522 0.29921 0.0
N18 N 0.01134 0.80344 0.24944 0.0
H19 H 0.09592 0.77631 0.14767 0.0
H20 H 0.9912 0.77817 0.13596 0.0
H21 H 0.98912 0.67002 0.13332 0.0
C22 C 0.02215 0.74029 0.15461 0.0
C23 C 0.0412 0.26089 0.2815 0.0
H24 H 0.11712 0.29929 0.28886 0.0
H25 H 0.01516 0.19463 0.29995 0.0
H26 H 0.01521 0.30178 0.30267 0.0
O27 O 0.91243 0.36146 0.27012 0.0
O28 O 0.91128 0.48943 0.28789 0.0
C29 C 0.1547 0.549 0.29677 0.0
O30 O 0.89614 0.51197 0.16618 0.0
O31 O 0.88933 0.38003 0.14833 0.0
Zn32 Zn 0.59378 0.01117 0.56092 0.0
O33 O 0.54682 0.89449 0.49926 0.0
C34 C 0.60947 0.13274 0.47397 0.0
Zn35 Zn 0.46256 0.0088 0.54469 0.0
C36 C 0.46688 0.86117 0.47414 0.0
O37 O 0.41936 0.89778 0.48456 0.0
C38 C 0.58291 0.15784 0.63139 0.0
O39 O 0.40199 0.91175 0.60639 0.0
O40 O 0.53481 0.91918 0.62116 0.0
N41 N 0.34404 0.00702 0.52438 0.0
C42 C 0.27776 0.00239 0.55481 0.0
C43 C 0.24074 0.01131 0.47015 0.0
N44 N 0.32097 0.01259 0.47184 0.0
N45 N 0.2127 0.00478 0.52162 0.0
C46 C 0.77059 0.00145 0.55098 0.0
C47 C 0.82888 0.03543 0.63587 0.0
N48 N 0.71343 0.01522 0.58135 0.0
N49 N 0.74972 0.0363 0.63404 0.0
N50 N 0.84286 0.01362 0.58434 0.0
H51 H 0.71632 0.89855 0.48192 0.0
H52 H 0.82125 0.00021 0.47082 0.0
H53 H 0.71439 0.00071 0.46808 0.0
C54 C 0.75501 0.97448 0.48927 0.0
C55 C 0.27578 0.99395 0.61642 0.0
H56 H 0.23988 0.92017 0.62335 0.0
H57 H 0.23779 0.02479 0.6351 0.0
H58 H 0.34604 0.0271 0.63772 0.0
O59 O 0.5042 0.12005 0.60478 0.0
O60 O 0.63611 0.12679 0.62246 0.0
C61 C 0.45224 0.88615 0.63157 0.0
O62 O 0.65452 0.10344 0.50065 0.0
O63 O 0.52662 0.10471 0.48304 0.0
Zn64 Zn 0.56244 0.58549 0.89399 0.0
O65 O 0.62324 0.53981 0.83235 0.0
C66 C 0.44318 0.60141 0.80695 0.0
Zn67 Zn 0.43114 0.45409 0.87695 0.0
C68 C 0.57318 0.45999 0.80694 0.0
O69 O 0.49043 0.41174 0.81698 0.0
C70 C 0.41505 0.57333 0.964 0.0
O71 O 0.47682 0.3934 0.93858 0.0
O72 O 0.60483 0.52629 0.95396 0.0
N73 N 0.31153 0.33525 0.85619 0.0
C74 C 0.25401 0.26918 0.88655 0.0
C75 C 0.19627 0.23108 0.80155 0.0
N76 N 0.27561 0.31149 0.80344 0.0
N77 N 0.18185 0.20364 0.85312 0.0
C78 C 0.74724 0.76264 0.8843 0.0
C79 C 0.78517 0.82081 0.96922 0.0
N80 N 0.68116 0.70524 0.9147 0.0
N81 N 0.7048 0.74143 0.96741 0.0
N82 N 0.81268 0.83498 0.91766 0.0
H83 H 0.78405 0.70781 0.81509 0.0
H84 H 0.78736 0.8135 0.80424 0.0
H85 H 0.67856 0.70737 0.80127 0.0
C86 C 0.74886 0.74724 0.82255 0.0
C87 C 0.2692 0.26765 0.94832 0.0
H88 H 0.30989 0.23382 0.95592 0.0
H89 H 0.20296 0.22801 0.96648 0.0
H90 H 0.30783 0.33799 0.96966 0.0
O91 O 0.3701 0.49496 0.9369 0.0
O92 O 0.49827 0.62679 0.95561 0.0
C93 C 0.55661 0.44352 0.96399 0.0
O94 O 0.52153 0.64644 0.83404 0.0
O95 O 0.38979 0.51817 0.81534 0.0
C96 C 0.01383 0.95164 0.22391 0.0
C97 C 0.01276 0.88286 0.23497 0.0
C98 C 0.01208 0.03094 0.21183 0.0
C99 C 0.00779 0.09707 0.20081 0.0
C100 C 0.06437 0.00208 0.54707 0.0
C101 C 0.13322 0.00325 0.53608 0.0
C102 C 0.98498 0.00373 0.55903 0.0
C103 C 0.91881 0.008 0.56997 0.0
C104 C 0.96052 0.977 0.89172 0.0
C105 C 0.89196 0.911 0.90315 0.0
C106 C 0.03957 0.05593 0.87896 0.0
C107 C 0.10568 0.12443 0.86756 0.0
C108 C 0.32162 0.61167 1.0342 0.0
C109 C 0.36973 0.60034 1.00327 0.0
C110 C 0.25803 0.61196 0.07004 0.0
C111 C 0.20092 0.59945 0.10189 0.0
C112 C 0.70093 0.25381 0.40331 0.0
C113 C 0.65429 0.19897 0.43462 0.0
C114 C 0.7621 0.31501 0.36752 0.0
C115 C 0.81695 0.36168 0.33622 0.0
C116 C 0.4047 0.69472 0.7368 0.0
C117 C 0.41611 0.64667 0.7677 0.0
C118 C 0.40429 0.75824 0.70096 0.0
C119 C 0.4167 0.81529 0.66909 0.0
C120 C 0.64666 0.39466 1.03316 0.0
C121 C 0.59744 0.40759 1.00134 0.0
C122 C 0.7158 0.39456 0.06905 0.0
C123 C 0.77994 0.40585 0.10008 0.0
C124 C 0.30314 0.64125 0.36697 0.0
C125 C 0.2369 0.5905 0.33471 0.0
C126 C 0.37453 0.71265 0.40395 0.0
C127 C 0.4253 0.77891 0.4362 0.0
C128 C 0.62199 0.36988 0.73771 0.0
C129 C 0.60913 0.41917 0.76955 0.0
C130 C 0.62193 0.30063 0.70179 0.0
C131 C 0.61051 0.23638 0.67077 0.0
loop_
_geom_bond_atom_site_label_1
_geom_bond_atom_site_label_2
_geom_bond_distance
_geom_bond_site_symmetry_2
_ccdc_geom_bond_type
Zn0 O1 2.055 . S
Zn0 O8 2.046 . S
Zn0 N16 2.036 . S
Zn0 O28 2.053 1_455 S
Zn0 O30 2.066 1_455 S
O1 Zn0 2.055 . S
O1 C4 1.259 . S
C2 O30 1.256 . S
C2 O31 1.244 . S
Zn3 O5 2.046 . S
Zn3 O7 2.055 . S
Zn3 N9 2.036 . S
Zn3 O27 2.066 1_455 S
Zn3 O31 2.053 1_455 S
C4 O1 1.259 . S
C4 O5 1.254 . S
O5 Zn3 2.046 . S
O5 C4 1.254 . S
C6 O27 1.256 . S
C6 O28 1.244 . S
O7 Zn3 2.055 . S
O7 C29 1.259 . S
O8 Zn0 2.046 . S
O8 C29 1.254 . S
N9 Zn3 2.036 . S
N9 C10 1.298 . S
N9 N12 1.398 1_455 S
C10 N9 1.298 . S
C10 N13 1.367 1_455 S
C10 C23 1.481 . S
C11 N12 1.299 . S
C11 N13 1.379 . S
N12 N9 1.398 1_655 S
N12 C11 1.299 . S
N13 C10 1.367 1_655 S
N13 C11 1.379 . S
C14 N16 1.298 . S
C14 N18 1.367 1_455 S
C14 C22 1.481 . S
C15 N17 1.299 . S
C15 N18 1.379 . S
N16 Zn0 2.036 . S
N16 C14 1.298 . S
N16 N17 1.398 1_455 S
N17 C15 1.299 . S
N17 N16 1.398 1_655 S
N18 C14 1.367 1_655 S
N18 C15 1.379 . S
H19 C22 0.980 . S
H20 C22 0.981 . S
H21 C22 0.981 1_655 S
C22 C14 1.481 . S
C22 H19 0.980 . S
C22 H20 0.981 . S
C22 H21 0.981 1_455 S
C23 C10 1.481 . S
C23 H24 0.980 . S
C23 H25 0.981 . S
C23 H26 0.981 . S
H24 C23 0.980 . S
H25 C23 0.981 . S
H26 C23 0.981 . S
O27 Zn3 2.066 1_655 S
O27 C6 1.256 . S
O28 Zn0 2.053 1_655 S
O28 C6 1.244 . S
C29 O7 1.259 . S
C29 O8 1.254 . S
O30 Zn0 2.066 1_655 S
O30 C2 1.256 . S
O31 C2 1.244 . S
O31 Zn3 2.053 1_655 S
Zn32 O33 2.055 . S
Zn32 O40 2.046 . S
Zn32 N48 2.036 1_565 S
Zn32 O60 2.053 1_565 S
Zn32 O62 2.066 1_565 S
O33 Zn32 2.055 . S
O33 C36 1.259 . S
C34 O62 1.256 . S
C34 O63 1.244 . S
Zn35 O37 2.046 . S
Zn35 O39 2.055 . S
Zn35 N41 2.036 1_565 S
Zn35 O59 2.066 1_565 S
Zn35 O63 2.053 1_565 S
C36 O33 1.259 . S
C36 O37 1.254 . S
O37 Zn35 2.046 . S
O37 C36 1.254 . S
C38 O59 1.256 . S
C38 O60 1.244 . S
O39 Zn35 2.055 . S
O39 C61 1.259 . S
O40 Zn32 2.046 . S
O40 C61 1.254 . S
N41 Zn35 2.036 1_545 S
N41 C42 1.298 . S
N41 N44 1.398 . S
C42 N41 1.298 . S
C42 N45 1.367 . S
C42 C55 1.481 1_545 S
C43 N44 1.299 . S
C43 N45 1.379 . S
N44 N41 1.398 . S
N44 C43 1.299 . S
N45 C42 1.367 . S
N45 C43 1.379 . S
C46 N48 1.298 . S
C46 N50 1.367 . S
C46 C54 1.481 1_545 S
C47 N49 1.299 . S
C47 N50 1.379 . S
N48 Zn32 2.036 1_545 S
N48 C46 1.298 . S
N48 N49 1.398 . S
N49 C47 1.299 . S
N49 N48 1.398 . S
N50 C46 1.367 . S
N50 C47 1.379 . S
H51 C54 0.980 . S
H52 C54 0.981 . S
H53 C54 0.981 1_545 S
C54 C46 1.481 1_565 S
C54 H51 0.980 . S
C54 H52 0.981 . S
C54 H53 0.981 1_565 S
C55 C42 1.481 1_565 S
C55 H56 0.980 . S
C55 H57 0.981 . S
C55 H58 0.981 1_565 S
H56 C55 0.980 . S
H57 C55 0.981 . S
H58 C55 0.981 1_545 S
O59 Zn35 2.066 1_545 S
O59 C38 1.256 . S
O60 Zn32 2.053 1_545 S
O60 C38 1.244 . S
C61 O39 1.259 . S
C61 O40 1.254 . S
O62 Zn32 2.066 1_545 S
O62 C34 1.256 . S
O63 C34 1.244 . S
O63 Zn35 2.053 1_545 S
Zn64 O65 2.055 . S
Zn64 O72 2.046 . S
Zn64 N80 2.036 . S
Zn64 O92 2.053 . S
Zn64 O94 2.066 . S
O65 Zn64 2.055 . S
O65 C68 1.259 . S
C66 O94 1.256 . S
C66 O95 1.244 . S
Zn67 O69 2.046 . S
Zn67 O71 2.055 . S
Zn67 N73 2.036 . S
Zn67 O91 2.066 . S
Zn67 O95 2.053 . S
C68 O65 1.259 . S
C68 O69 1.254 . S
O69 Zn67 2.046 . S
O69 C68 1.254 . S
C70 O91 1.256 . S
C70 O92 1.244 . S
O71 Zn67 2.055 . S
O71 C93 1.259 . S
O72 Zn64 2.046 . S
O72 C93 1.254 . S
N73 Zn67 2.036 . S
N73 C74 1.298 . S
N73 N76 1.398 . S
C74 N73 1.298 . S
C74 N77 1.367 . S
C74 C87 1.481 . S
C75 N76 1.299 . S
C75 N77 1.379 . S
N76 N73 1.398 . S
N76 C75 1.299 . S
N77 C74 1.367 . S
N77 C75 1.379 . S
C78 N80 1.298 . S
C78 N82 1.367 . S
C78 C86 1.481 . S
C79 N81 1.299 . S
C79 N82 1.379 . S
N80 Zn64 2.036 . S
N80 C78 1.298 . S
N80 N81 1.398 . S
N81 C79 1.299 . S
N81 N80 1.398 . S
N82 C78 1.367 . S
N82 C79 1.379 . S
H83 C86 0.980 . S
H84 C86 0.981 . S
H85 C86 0.981 . S
C86 C78 1.481 . S
C86 H83 0.980 . S
C86 H84 0.981 . S
C86 H85 0.981 . S
C87 C74 1.481 . S
C87 H88 0.980 . S
C87 H89 0.981 . S
C87 H90 0.981 . S
H88 C87 0.980 . S
H89 C87 0.981 . S
H90 C87 0.981 . S
O91 Zn67 2.066 . S
O91 C70 1.256 . S
O92 Zn64 2.053 . S
O92 C70 1.244 . S
C93 O71 1.259 . S
C93 O72 1.254 . S
O94 Zn64 2.066 . S
O94 C66 1.256 . S
O95 C66 1.244 . S
O95 Zn67 2.053 . S
C96 C97 1.170 . S
C96 C98 1.380 1_565 S
C97 C96 1.170 . S
C98 C96 1.380 1_545 S
C98 C99 1.170 . S
C99 C98 1.170 . S
C100 C101 1.170 . S
C100 C102 1.380 . S
C101 C100 1.170 . S
C102 C100 1.380 . S
C102 C103 1.170 1_455 S
C103 C102 1.170 1_655 S
C104 C105 1.170 . S
C104 C106 1.380 1_665 S
C105 C104 1.170 . S
C106 C104 1.380 1_445 S
C106 C107 1.170 . S
C107 C106 1.170 . S
C108 C109 1.170 . S
C108 C110 1.380 1_556 S
C109 C108 1.170 . S
C110 C108 1.380 1_554 S
C110 C111 1.170 . S
C111 C110 1.170 . S
C112 C113 1.170 . S
C112 C114 1.380 . S
C113 C112 1.170 . S
C114 C112 1.380 . S
C114 C115 1.170 . S
C115 C114 1.170 . S
C116 C117 1.170 . S
C116 C118 1.380 . S
C117 C116 1.170 . S
C118 C116 1.380 . S
C118 C119 1.170 . S
C119 C118 1.170 . S
C120 C121 1.170 . S
C120 C122 1.380 1_556 S
C121 C120 1.170 . S
C122 C120 1.380 1_554 S
C122 C123 1.170 . S
C123 C122 1.170 . S
C124 C125 1.170 . S
C124 C126 1.380 . S
C125 C124 1.170 . S
C126 C124 1.380 . S
C126 C127 1.170 . S
C127 C126 1.170 . S
C128 C129 1.170 . S
C128 C130 1.380 . S
C129 C128 1.170 . S
C130 C128 1.380 . S
C130 C131 1.170 . S
C131 C130 1.170 . S
C97 N18 0.874 . S
C99 N13 0.889 . S
C101 N45 0.870 . S
C103 N50 0.893 . S
C105 N82 0.888 . S
C107 N77 0.869 . S
C109 C70 1.808 . S
C111 C4 1.784 . S
C113 C34 2.080 . S
C115 C6 2.084 . S
C117 C66 1.799 . S
C119 C61 1.780 . S
C121 C93 1.805 . S
C123 C2 1.836 . S
C125 C29 1.551 . S
C127 C36 1.534 . S
C129 C68 1.819 . S
C131 C38 1.840 . S
