# Generated by pormake.
# Topology pcu, (6)-cn, num edge types: 1
# Building blocks:
#     Node 0, Type 0, BuildingBlock: CUKXOW_clean_sbu_0, # of connection points: 6
#     Edge 1, Type (0, 0), BuildingBlock: FUNLAD_clean_linker_0, # of connection points: 2
#     Edge 2, Type (0, 0), BuildingBlock: FUNLAD_clean_linker_0, # of connection points: 2
#     Edge 3, Type (0, 0), BuildingBlock: FUNLAD_clean_linker_0, # of connection points: 2
# Relax obj value: 0.000
# Max RMSD: 0.000
# Mean RMSD: 0.000
data_MOF--net-pcu--node1-CUKXOW_clean_sbu_0--edge1-FUNLAD_clean_linker_0
_symmetry_space_group_name_H-M    P1
_symmetry_Int_Tables_number       1
_symmetry_cell_setting            triclinic
loop_
_symmetry_equiv_pos_as_xyz
'x, y, z'
_cell_length_a     16.15962
_cell_length_b     20.692323
_cell_length_c     17.895095
_cell_angle_alpha  84.565216
_cell_angle_beta   104.17085
_cell_angle_gamma 124.70357
loop_
_atom_site_label
_atom_site_type_symbol
_atom_site_fract_x
_atom_site_fract_y
_atom_site_fract_z
_atom_type_partial_charge
Tb0 Tb 0.04027 0.07442 0.97536 0.0
C1 C 1.00619 0.98174 0.83073 0.0
Tb2 Tb 1.00082 0.91011 -0.0026 0.0
O3 O 0.18791 0.12035 0.94634 0.0
O4 O 0.12921 0.02846 0.02062 0.0
O5 O 1.00043 0.03741 0.85513 0.0
C6 C 1.01225 0.78594 0.00411 0.0
O7 O 1.01671 0.93174 0.8777 0.0
C8 C 0.84133 0.91627 0.98804 0.0
C9 C 0.03503 0.00282 0.14205 0.0
O10 O 0.08674 0.85614 0.03355 0.0
O11 O 0.93076 0.78536 0.97111 0.0
O12 O 0.85318 0.86445 0.02649 0.0
O13 O 0.9121 0.95609 0.95218 0.0
O14 O 0.04076 0.94714 0.11764 0.0
O15 O 0.02448 0.05281 0.09509 0.0
C16 C 0.02858 0.19846 0.9687 0.0
O17 O 0.95418 0.12826 0.93921 0.0
O18 O 0.11012 0.19911 0.00171 0.0
C19 C 0.19991 0.06856 0.98471 0.0
C20 C 0.04507 0.95508 0.276 0.0
C21 C 0.03809 0.00849 0.22468 0.0
C22 C 0.04491 0.95904 0.35349 0.0
C23 C 0.03714 0.01635 0.38133 0.0
C24 C 0.03243 0.07069 0.33041 0.0
C25 C 0.03236 0.06664 0.25291 0.0
C26 C 0.03619 0.02272 0.46312 0.0
C27 C 1.0052 0.96189 0.50969 0.0
C28 C 1.00423 0.96826 0.59148 0.0
C29 C 1.00891 0.91392 0.6424 0.0
C30 C 1.00894 0.91795 0.71989 0.0
C31 C 1.0032 0.9761 0.74811 0.0
H32 H 0.98895 0.06685 0.58155 0.0
C33 C 0.99625 0.02952 0.69679 0.0
C34 C 0.99645 0.02557 0.61931 0.0
H35 H 0.9908 0.07465 0.71635 0.0
H36 H 0.05051 0.90994 0.25644 0.0
H37 H 0.05243 0.91777 0.39125 0.0
H38 H 0.02749 0.11595 0.35042 0.0
H39 H 0.02731 0.109 0.21519 0.0
H40 H 0.06052 0.07966 0.48479 0.0
H41 H 0.98087 0.90495 0.48803 0.0
H42 H 1.01386 0.86866 0.6224 0.0
H43 H 1.01397 0.87558 0.75762 0.0
C44 C 0.30087 0.01043 0.03582 0.0
C45 C 0.27758 0.05368 0.98014 0.0
C46 C 0.37148 0.9936 0.02967 0.0
C47 C 0.42144 0.02085 0.96799 0.0
C48 C 0.39815 0.06457 0.91268 0.0
C49 C 0.32744 0.08122 0.91889 0.0
C50 C 0.49551 0.00318 0.9576 0.0
C51 C 0.54659 0.98262 0.01505 0.0
C52 C 0.62054 0.9648 0.00471 0.0
C53 C 0.64404 0.92135 0.06026 0.0
C54 C 0.71453 0.90447 0.05408 0.0
C55 C 0.76398 0.93151 -0.00739 0.0
H56 H 0.65678 0.0269 0.89966 0.0
C57 C 0.74049 0.97448 0.93668 0.0
C58 C 0.67009 0.99155 0.9428 0.0
H59 H 0.77663 -0.00504 0.88811 0.0
H60 H 0.2644 0.98953 0.0842 0.0
H61 H 0.3846 0.958 0.07258 0.0
H62 H 0.43478 0.08595 0.86435 0.0
H63 H 0.3105 0.11453 0.87499 0.0
H64 H 0.5084 0.00818 0.90002 0.0
H65 H 0.53372 0.97768 0.07263 0.0
H66 H 0.60772 0.90034 0.10876 0.0
H67 H 0.73162 0.87138 0.09816 0.0
C68 C 0.93476 0.64467 0.9724 0.0
C69 C 1.02026 0.71834 0.00628 0.0
C70 C 0.94299 0.58085 0.97365 0.0
C71 C 0.03746 0.58983 0.00848 0.0
C72 C 0.12229 0.66346 0.04332 0.0
C73 C 0.114 0.72721 0.04197 0.0
C74 C 0.05019 0.52379 0.0116 0.0
C75 C 0.99024 0.4604 0.96133 0.0
C76 C 1.00305 0.3944 0.96443 0.0
C77 C 0.91825 0.32074 0.92962 0.0
C78 C 0.92663 0.25705 0.93094 0.0
C79 C 1.02044 0.26599 0.96656 0.0
H80 H 0.1659 0.45969 0.02437 0.0
C81 C 0.1059 0.33968 0.00042 0.0
C82 C 0.09758 0.40346 -0.00081 0.0
H83 H 0.17937 0.34816 0.02768 0.0
H84 H 0.86134 0.63626 0.94509 0.0
H85 H 0.87464 0.52464 0.94844 0.0
H86 H 0.19566 0.67196 0.07112 0.0
H87 H 0.18112 0.78348 0.06866 0.0
H88 H 0.11261 0.52882 0.05668 0.0
H89 H 0.92781 0.45537 0.91625 0.0
H90 H 0.84483 0.31219 0.90187 0.0
H91 H 0.85954 0.20075 0.90427 0.0
loop_
_geom_bond_atom_site_label_1
_geom_bond_atom_site_label_2
_geom_bond_distance
_geom_bond_site_symmetry_2
_ccdc_geom_bond_type
Tb0 O3 2.453 . S
Tb0 O4 2.596 1_545 S
Tb0 O5 2.374 1_554 S
Tb0 O13 2.343 1_454 S
Tb0 O15 2.353 . S
Tb0 O17 2.427 . S
Tb0 O18 2.513 1_554 S
C1 O5 1.251 1_655 S
C1 O7 1.263 1_545 S
Tb2 O4 2.343 1_656 S
Tb2 O7 2.353 . S
Tb2 O10 2.427 . S
Tb2 O11 2.513 1_556 S
Tb2 O12 2.453 . S
Tb2 O13 2.596 1_565 S
Tb2 O14 2.374 1_556 S
O3 Tb0 2.453 . S
O3 C19 1.245 . S
O4 Tb0 2.596 1_565 S
O4 Tb2 2.343 1_454 S
O4 C19 1.259 1_565 S
O5 Tb0 2.374 1_556 S
O5 C1 1.251 1_455 S
C6 O10 1.273 1_554 S
C6 O11 1.247 . S
O7 C1 1.263 1_565 S
O7 Tb2 2.353 . S
C8 O12 1.245 . S
C8 O13 1.259 1_565 S
C9 O14 1.250 1_455 S
C9 O15 1.263 1_565 S
O10 Tb2 2.427 . S
O10 C6 1.273 1_556 S
O11 Tb2 2.513 1_554 S
O11 C6 1.247 . S
O12 Tb2 2.453 . S
O12 C8 1.245 . S
O13 Tb0 2.343 1_656 S
O13 Tb2 2.596 1_545 S
O13 C8 1.259 1_545 S
O14 Tb2 2.374 1_554 S
O14 C9 1.250 1_655 S
O15 Tb0 2.353 . S
O15 C9 1.263 1_545 S
C16 O17 1.273 . S
C16 O18 1.247 1_554 S
O17 Tb0 2.427 . S
O17 C16 1.273 . S
O18 Tb0 2.513 1_556 S
O18 C16 1.247 1_556 S
C19 O3 1.245 . S
C19 O4 1.259 1_545 S
C20 C21 1.390 1_565 S
C20 C22 1.383 . S
C20 H36 0.951 . S
C21 C20 1.390 1_545 S
C21 C25 1.376 1_455 S
C22 C20 1.383 . S
C22 C23 1.402 1_565 S
C22 H37 0.951 . S
C23 C22 1.402 1_545 S
C23 C24 1.375 1_455 S
C23 C26 1.481 1_455 S
C24 C23 1.375 1_655 S
C24 C25 1.367 . S
C24 H38 0.951 . S
C25 C21 1.376 1_655 S
C25 C24 1.367 . S
C25 H39 0.950 . S
C26 C23 1.481 1_655 S
C26 C27 1.297 1_655 S
C26 H40 0.950 . S
C27 C26 1.297 1_455 S
C27 C28 1.479 . S
C27 H41 0.950 . S
C28 C27 1.479 . S
C28 C29 1.365 1_545 S
C28 C34 1.404 1_455 S
C29 C28 1.365 1_565 S
C29 C30 1.368 . S
C29 H42 0.962 . S
C30 C29 1.368 . S
C30 C31 1.392 1_565 S
C30 H43 0.951 . S
C31 C30 1.392 1_545 S
C31 C33 1.384 1_455 S
H32 C34 0.949 . S
C33 C31 1.384 1_655 S
C33 C34 1.385 . S
C33 H35 0.950 . S
C34 C28 1.404 1_655 S
C34 H32 0.949 . S
C34 C33 1.385 . S
H35 C33 0.950 . S
H36 C20 0.951 . S
H37 C22 0.951 . S
H38 C24 0.951 . S
H39 C25 0.950 . S
H40 C26 0.950 . S
H41 C27 0.950 . S
H42 C29 0.962 . S
H43 C30 0.951 . S
C44 C45 1.386 1_544 S
C44 C46 1.383 . S
C44 H60 0.951 . S
C45 C44 1.386 1_566 S
C45 C49 1.383 . S
C46 C44 1.383 . S
C46 C47 1.402 1_544 S
C46 H61 0.951 . S
C47 C46 1.402 1_566 S
C47 C48 1.375 . S
C47 C50 1.481 . S
C48 C47 1.375 . S
C48 C49 1.367 . S
C48 H62 0.951 . S
C49 C45 1.383 . S
C49 C48 1.367 . S
C49 H63 0.950 . S
C50 C47 1.481 . S
C50 C51 1.297 1_556 S
C50 H64 0.950 . S
C51 C50 1.297 1_554 S
C51 C52 1.479 . S
C51 H65 0.950 . S
C52 C51 1.479 . S
C52 C53 1.374 . S
C52 C58 1.404 1_554 S
C53 C52 1.374 . S
C53 C54 1.376 1_565 S
C53 H66 0.944 1_565 S
C54 C53 1.376 1_545 S
C54 C55 1.392 1_545 S
C54 H67 0.951 . S
C55 C54 1.392 1_565 S
C55 C57 1.384 1_554 S
H56 C58 0.949 . S
C57 C55 1.384 1_556 S
C57 C58 1.385 . S
C57 H59 0.950 . S
C58 C52 1.404 1_556 S
C58 H56 0.949 . S
C58 C57 1.385 . S
H59 C57 0.950 . S
H60 C44 0.951 . S
H61 C46 0.951 . S
H62 C48 0.951 . S
H63 C49 0.950 . S
H64 C50 0.950 . S
H65 C51 0.950 . S
H66 C53 0.944 1_545 S
H67 C54 0.951 . S
C68 C69 1.388 1_554 S
C68 C70 1.383 . S
C68 H84 0.951 . S
C69 C68 1.388 1_556 S
C69 C73 1.374 1_655 S
C70 C68 1.383 . S
C70 C71 1.402 1_554 S
C70 H85 0.951 . S
C71 C70 1.402 1_556 S
C71 C72 1.375 1_655 S
C71 C74 1.481 . S
C72 C71 1.375 1_455 S
C72 C73 1.367 . S
C72 H86 0.951 . S
C73 C69 1.374 1_455 S
C73 C72 1.367 . S
C73 H87 0.950 . S
C74 C71 1.481 . S
C74 C75 1.297 . S
C74 H88 0.950 1_655 S
C75 C74 1.297 . S
C75 C76 1.479 . S
C75 H89 0.950 1_556 S
C76 C75 1.479 . S
C76 C77 1.375 1_556 S
C76 C82 1.404 1_655 S
C77 C76 1.375 1_554 S
C77 C78 1.369 . S
C77 H90 0.950 . S
C78 C77 1.369 . S
C78 C79 1.392 1_554 S
C78 H91 0.951 . S
C79 C78 1.392 1_556 S
C79 C81 1.384 1_655 S
H80 C82 0.949 . S
C81 C79 1.384 1_455 S
C81 C82 1.385 . S
C81 H83 0.950 . S
C82 C76 1.404 1_455 S
C82 H80 0.949 . S
C82 C81 1.385 . S
H83 C81 0.950 . S
H84 C68 0.951 . S
H85 C70 0.951 . S
H86 C72 0.951 . S
H87 C73 0.950 . S
H88 C74 0.950 1_455 S
H89 C75 0.950 1_554 S
H90 C77 0.950 . S
H91 C78 0.951 . S
C21 C9 1.496 1_545 S
C31 C1 1.482 1_455 S
C45 C19 1.470 1_566 S
C55 C8 1.399 1_554 S
C69 C6 1.484 1_556 S
C79 C16 1.489 1_656 S
