# Generated by pormake.
# Topology sma, (6)-cn, num edge types: 1
# Building blocks:
#     Node 0, Type 0, BuildingBlock: UKALOJ_clean_sbu_0, # of connection points: 6
#     Node 1, Type 0, BuildingBlock: UKALOJ_clean_sbu_0, # of connection points: 6
#     Node 2, Type 0, BuildingBlock: UKALOJ_clean_sbu_0, # of connection points: 6
#     Edge 3, Type (0, 0), BuildingBlock: CIFDUS_clean_linker_0, # of connection points: 2
#     Edge 4, Type (0, 0), BuildingBlock: CIFDUS_clean_linker_0, # of connection points: 2
#     Edge 5, Type (0, 0), BuildingBlock: CIFDUS_clean_linker_0, # of connection points: 2
#     Edge 6, Type (0, 0), BuildingBlock: CIFDUS_clean_linker_0, # of connection points: 2
#     Edge 7, Type (0, 0), BuildingBlock: CIFDUS_clean_linker_0, # of connection points: 2
#     Edge 8, Type (0, 0), BuildingBlock: CIFDUS_clean_linker_0, # of connection points: 2
#     Edge 9, Type (0, 0), BuildingBlock: CIFDUS_clean_linker_0, # of connection points: 2
#     Edge 10, Type (0, 0), BuildingBlock: CIFDUS_clean_linker_0, # of connection points: 2
#     Edge 11, Type (0, 0), BuildingBlock: CIFDUS_clean_linker_0, # of connection points: 2
# Relax obj value: 0.606
# Max RMSD: 0.361
# Mean RMSD: 0.361
data_MOF--net-sma--node1-UKALOJ_clean_sbu_0--edge1-CIFDUS_clean_linker_0
_symmetry_space_group_name_H-M    P1
_symmetry_Int_Tables_number       1
_symmetry_cell_setting            triclinic
loop_
_symmetry_equiv_pos_as_xyz
'x, y, z'
_cell_length_a     22.551997
_cell_length_b     22.26079
_cell_length_c     16.811977
_cell_angle_alpha  92.259881
_cell_angle_beta   93.241684
_cell_angle_gamma 120.27324
loop_
_atom_site_label
_atom_site_type_symbol
_atom_site_fract_x
_atom_site_fract_y
_atom_site_fract_z
_atom_type_partial_charge
Zn0 Zn 0.06529 0.51213 0.11528 0.0
O1 O 0.17005 0.61502 0.10661 0.0
C2 C 0.17122 0.50663 0.18796 0.0
Zn3 Zn 0.07393 0.56432 0.22003 0.0
C4 C 0.17885 0.66977 0.14654 0.0
O5 O 0.12985 0.6633 0.18437 0.0
C6 C 0.9717 0.41316 0.21405 0.0
O7 O 0.98126 0.57132 0.19195 0.0
O8 O 1.00831 0.55535 0.07308 0.0
N9 N 0.09357 0.61039 0.33216 0.0
C10 C 0.06183 0.58948 0.39938 0.0
C11 C 0.16023 0.67906 0.43205 0.0
N12 N 0.1539 0.6672 0.35236 0.0
N13 N 0.10361 0.63042 0.46394 0.0
C14 C 0.07646 0.5072 0.93651 0.0
C15 C 1.01703 0.39819 0.9011 0.0
N16 N 1.05835 0.47353 0.00322 0.0
N17 N 1.02178 0.40577 0.98155 0.0
N18 N 1.0517 0.46117 0.87199 0.0
H19 H 0.0996 0.60042 0.87672 0.0
H20 H 0.16939 0.60601 0.94011 0.0
H21 H 0.10013 0.60973 0.98313 0.0
C22 C 0.11296 0.58513 0.93395 0.0
C23 C 0.98849 0.5319 0.40051 0.0
H24 H 0.96284 0.51203 0.3395 0.0
H25 H 0.95893 0.55236 0.43026 0.0
H26 H 0.9862 0.48919 0.43439 0.0
O27 O 1.01613 0.46461 0.26028 0.0
O28 O 0.97151 0.41924 0.13885 0.0
C29 C 0.97128 0.56861 0.11567 0.0
O30 O 0.11459 0.46169 0.15255 0.0
O31 O 0.17104 0.55521 0.23151 0.0
Zn32 Zn 0.58166 0.04692 0.55971 0.0
O33 O 0.68445 0.13716 0.55489 0.0
C34 C 0.53911 0.15314 0.57482 0.0
Zn35 Zn 0.53575 0.0545 0.45553 0.0
C36 C 0.69038 0.14542 0.48033 0.0
O37 O 0.63721 0.11193 0.43193 0.0
C38 C 0.42318 0.94537 0.49774 0.0
O39 O 0.53434 0.95081 0.42504 0.0
O40 O 0.62109 0.9895 0.51426 0.0
N41 N 0.50859 0.06338 0.34257 0.0
C42 C 0.52564 0.04587 0.27389 0.0
C43 C 0.46525 0.09235 0.24407 0.0
N44 N 0.47104 0.09223 0.32434 0.0
N45 N 0.49934 0.06373 0.21168 0.0
C46 C 0.62676 0.06351 0.73903 0.0
C47 C 0.59588 0.95917 0.76302 0.0
N48 N 0.60355 1.02477 0.66887 0.0
N49 N 0.58571 0.96016 0.68362 0.0
N50 N 0.62221 1.02364 0.79911 0.0
H51 H 0.68873 0.16601 0.79936 0.0
H52 H 0.6019 0.14213 0.76747 0.0
H53 H 0.66487 0.16511 0.69496 0.0
C54 C 0.64699 0.13872 0.75038 0.0
C55 C 0.56295 1.00607 0.26751 0.0
H56 H 0.60512 1.02465 0.31572 0.0
H57 H 0.58469 1.00979 0.20936 0.0
H58 H 0.52575 0.95008 0.27312 0.0
O59 O 0.43397 1.00229 0.4739 0.0
O60 O 0.47137 0.94833 0.5456 0.0
C61 C 0.57992 0.9419 0.46317 0.0
O62 O 0.54714 0.10938 0.61266 0.0
O63 O 0.53741 0.14921 0.49859 0.0
Zn64 Zn 0.59055 0.60023 0.88379 0.0
O65 O 0.58786 0.49748 0.90396 0.0
C66 C 0.69665 0.59717 0.81884 0.0
Zn67 Zn 0.54201 0.54597 0.77769 0.0
C68 C 0.53938 0.44268 0.86366 0.0
O69 O 0.49739 0.45018 0.81897 0.0
C70 C 0.59225 0.69502 0.77 0.0
O71 O 0.44408 0.54389 0.79869 0.0
O72 O 0.49474 0.56245 0.91912 0.0
N73 N 0.51069 0.50009 0.66443 0.0
C74 C 0.492 0.52152 0.59881 0.0
C75 C 0.51724 0.44588 0.55947 0.0
N76 N 0.52514 0.45205 0.63992 0.0
N77 N 0.49617 0.48878 0.53216 0.0
C78 C 0.60796 0.6068 0.06611 0.0
C79 C 0.66844 0.71558 0.10181 0.0
N80 N 0.62566 0.6406 0.99902 0.0
N81 N 0.66334 0.70823 0.02112 0.0
N82 N 0.63366 0.65257 0.13098 0.0
H83 H 0.52369 0.50416 0.0242 0.0
H84 H 0.55232 0.51192 0.12807 0.0
H85 H 0.60408 0.5091 0.05354 0.0
C86 C 0.56931 0.52879 0.06836 0.0
C87 C 0.47672 0.57969 0.59871 0.0
H88 H 0.43284 0.5659 0.55396 0.0
H89 H 0.52204 0.62724 0.58047 0.0
H90 H 0.46405 0.59053 0.65828 0.0
O91 O 0.58521 0.64211 0.73065 0.0
O92 O 0.58954 0.69368 0.84591 0.0
C93 C 0.44204 0.54901 0.87474 0.0
O94 O 0.68867 0.64333 0.85367 0.0
O95 O 0.64471 0.54839 0.77498 0.0
H96 H 0.16807 0.45256 0.03912 0.0
H97 H 0.31176 0.59188 0.23386 0.0
H98 H 0.40709 0.62075 0.14979 0.0
H99 H 0.44803 0.60644 0.02143 0.0
H100 H 0.30251 0.47148 0.82591 0.0
H101 H 0.2075 0.44378 0.90997 0.0
C102 C 0.22002 0.48929 0.06446 0.0
C103 C 0.23222 0.51969 0.14412 0.0
C104 C 0.27357 0.50765 0.01482 0.0
C105 C 0.30044 0.56739 0.17373 0.0
C106 C 0.35479 0.58419 0.12526 0.0
C107 C 0.39542 0.57121 0.99658 0.0
C108 C 0.38237 0.54052 0.91709 0.0
C109 C 0.34167 0.55496 0.04563 0.0
C110 C 0.31399 0.496 0.88609 0.0
C111 C 0.25996 0.47959 0.93466 0.0
H112 H 0.70986 0.15387 0.32379 0.0
H113 H 0.81657 0.24622 0.55682 0.0
H114 H 0.917 0.33287 0.49252 0.0
H115 H 0.96955 0.38613 0.37033 0.0
H116 H 0.85595 0.29906 0.13955 0.0
H117 H 0.7627 0.20431 0.20343 0.0
C118 C 0.75501 0.19258 0.36128 0.0
C119 C 0.75529 0.19394 0.44551 0.0
C120 C 0.81095 0.24275 0.32413 0.0
C121 C 0.81487 0.24405 0.49221 0.0
C122 C 0.87203 0.2936 0.45533 0.0
C123 C 0.9242 0.3468 0.33388 0.0
C124 C 0.91905 0.35066 0.25021 0.0
C125 C 0.86985 0.2942 0.37139 0.0
C126 C 0.86108 0.2977 0.20381 0.0
C127 C 0.80769 0.24379 0.24043 0.0
H128 H 0.48952 0.8544 0.55899 0.0
H129 H 0.65554 0.88181 0.42243 0.0
H130 H 0.67864 0.80996 0.51196 0.0
H131 H 0.66025 0.75246 0.64012 0.0
H132 H 0.50592 0.7453 0.7859 0.0
H133 H 0.4716 0.80008 0.68398 0.0
C134 C 0.52851 0.84237 0.54572 0.0
C135 C 0.56911 0.87257 0.48179 0.0
C136 C 0.54649 0.80858 0.6029 0.0
C137 C 0.62168 0.85773 0.46906 0.0
C138 C 0.63637 0.81856 0.52209 0.0
C139 C 0.62061 0.76509 0.6506 0.0
C140 C 0.58709 0.74683 0.72194 0.0
C141 C 0.60133 0.79692 0.59156 0.0
C142 C 0.53431 0.76125 0.73342 0.0
C143 C 0.51351 0.79082 0.67405 0.0
H144 H 0.75431 0.64233 0.97001 0.0
H145 H 0.75822 0.52403 0.76242 0.0
H146 H 0.84331 0.5046 0.83786 0.0
H147 H 0.91586 0.52217 0.96269 0.0
H148 H 0.90376 0.63394 0.17126 0.0
H149 H 0.82039 0.65417 0.09467 0.0
C150 C 0.7741 0.61299 0.93992 0.0
C151 C 0.75108 0.58643 0.85902 0.0
C152 C 0.82061 0.6003 0.98431 0.0
C153 C 0.77593 0.54636 0.82345 0.0
C154 C 0.82418 0.53499 0.86693 0.0
C155 C 0.89507 0.55108 0.9917 0.0
C156 C 0.91679 0.57736 0.07288 0.0
C157 C 0.84682 0.56185 0.94736 0.0
C158 C 0.88823 0.61338 0.1094 0.0
C159 C 0.8409 0.62516 0.06536 0.0
H160 H 0.36561 0.9456 0.35028 0.0
H161 H 0.37997 0.80382 0.50773 0.0
H162 H 0.32528 0.71056 0.39944 0.0
H163 H 0.26711 0.66829 0.26372 0.0
H164 H 0.23843 0.80638 0.11519 0.0
H165 H 0.31067 0.90406 0.21434 0.0
C166 C 0.35702 0.89445 0.36219 0.0
C167 C 0.37888 0.88313 0.4385 0.0
C168 C 0.3251 0.84103 0.29968 0.0
C169 C 0.36602 0.81558 0.45038 0.0
C170 C 0.33463 0.76206 0.38795 0.0
C171 C 0.27809 0.71973 0.25107 0.0
C172 C 0.2473 0.72909 0.18018 0.0
C173 C 0.31406 0.77426 0.31227 0.0
C174 C 0.26248 0.79719 0.16724 0.0
C175 C 0.30217 0.85277 0.22537 0.0
H176 H 0.44224 0.32554 0.77796 0.0
H177 H 0.65093 0.42263 0.88678 0.0
H178 H 0.67 0.34167 0.8035 0.0
H179 H 0.63045 0.25178 0.6887 0.0
H180 H 0.42718 0.16872 0.56965 0.0
H181 H 0.40432 0.23972 0.66427 0.0
C182 C 0.49182 0.32856 0.78494 0.0
C183 C 0.54517 0.38073 0.83902 0.0
C184 C 0.50424 0.28665 0.73192 0.0
C185 C 0.60862 0.3829 0.84686 0.0
C186 C 0.61995 0.33756 0.79775 0.0
C187 C 0.58135 0.24969 0.68339 0.0
C188 C 0.53059 0.20555 0.62179 0.0
C189 C 0.56892 0.29107 0.738 0.0
C190 C 0.46737 0.20339 0.61523 0.0
C191 C 0.45403 0.24306 0.67019 0.0
H192 H 0.15724 0.5268 0.78535 0.0
H193 H 0.93785 0.43589 0.784 0.0
H194 H 0.93466 0.48783 0.65888 0.0
H195 H 0.99669 0.56593 0.55682 0.0
H196 H 0.21575 0.64925 0.55317 0.0
H197 H 0.21807 0.59856 0.67764 0.0
C198 C 0.10886 0.51715 0.7558 0.0
C199 C 1.04781 0.47724 0.79155 0.0
C200 C 0.10797 0.54817 0.68559 0.0
C201 C 0.98498 0.46545 0.75531 0.0
C202 C 0.98349 0.49609 0.68507 0.0
C203 C 1.0445 0.57121 0.58127 0.0
C204 C 0.10524 0.60931 0.54347 0.0
C205 C 1.04497 0.53854 0.65047 0.0
C206 C 0.16785 0.61997 0.58046 0.0
C207 C 0.16926 0.59013 0.65111 0.0
H208 H 0.61923 0.12589 0.14872 0.0
H209 H 0.40143 0.98692 0.0937 0.0
H210 H 0.42096 0.96085 0.95748 0.0
H211 H 0.50159 0.97285 0.85842 0.0
H212 H 0.71982 0.10814 0.91481 0.0
H213 H 0.69987 0.14001 0.04833 0.0
C214 C 0.57643 0.09073 0.10592 0.0
C215 C 0.50928 0.05773 0.12958 0.0
C216 C 0.5886 0.07438 0.02989 0.0
C217 C 0.45333 1.01257 0.07526 0.0
C218 C 0.46467 0.99724 0.99838 0.0
C219 C 0.54444 1.00844 0.90089 0.0
C220 C 0.61195 1.03738 0.87904 0.0
C221 C 0.53221 1.02656 0.97597 0.0
C222 C 0.66771 0.08488 0.93224 0.0
C223 C 0.65616 0.10332 0.00761 0.0
H224 H 0.61959 0.565 0.48004 0.0
H225 H 0.40283 0.4784 0.41708 0.0
H226 H 0.42726 0.52969 0.2873 0.0
H227 H 0.51115 0.59372 0.18987 0.0
H228 H 0.72765 0.67786 0.25233 0.0
H229 H 0.7037 0.63496 0.38602 0.0
C230 C 0.57807 0.55729 0.43722 0.0
C231 C 0.50962 0.5171 0.45597 0.0
C232 C 0.59283 0.58718 0.36396 0.0
C233 C 0.45565 0.50834 0.40219 0.0
C234 C 0.46975 0.53788 0.32875 0.0
C235 C 0.55275 0.60324 0.23368 0.0
C236 C 0.62085 0.63794 0.21235 0.0
C237 C 0.53813 0.57673 0.30879 0.0
C238 C 0.67505 0.65109 0.2685 0.0
C239 C 0.6612 0.62603 0.34413 0.0
loop_
_geom_bond_atom_site_label_1
_geom_bond_atom_site_label_2
_geom_bond_distance
_geom_bond_site_symmetry_2
_ccdc_geom_bond_type
Zn0 O1 2.055 . S
Zn0 O8 2.046 1_455 S
Zn0 N16 2.036 1_454 S
Zn0 O28 2.053 1_455 S
Zn0 O30 2.066 . S
O1 Zn0 2.055 . S
O1 C4 1.259 . S
C2 O30 1.256 . S
C2 O31 1.244 . S
Zn3 O5 2.046 . S
Zn3 O7 2.055 1_455 S
Zn3 N9 2.036 . S
Zn3 O27 2.066 1_455 S
Zn3 O31 2.053 . S
C4 O1 1.259 . S
C4 O5 1.254 . S
O5 Zn3 2.046 . S
O5 C4 1.254 . S
C6 O27 1.256 . S
C6 O28 1.244 . S
O7 Zn3 2.055 1_655 S
O7 C29 1.259 . S
O8 Zn0 2.046 1_655 S
O8 C29 1.254 . S
N9 Zn3 2.036 . S
N9 C10 1.298 1_455 S
N9 N12 1.398 . S
C10 N9 1.298 1_655 S
C10 N13 1.365 1_655 S
C10 C23 1.481 . S
C11 N12 1.299 . S
C11 N13 1.384 . S
N12 N9 1.398 . S
N12 C11 1.299 . S
N13 C10 1.365 1_455 S
N13 C11 1.384 . S
C14 N16 1.298 1_455 S
C14 N18 1.367 . S
C14 C22 1.481 . S
C15 N17 1.299 . S
C15 N18 1.379 1_655 S
N16 Zn0 2.036 1_656 S
N16 C14 1.298 1_655 S
N16 N17 1.398 . S
N17 C15 1.299 . S
N17 N16 1.398 . S
N18 C14 1.367 . S
N18 C15 1.379 1_455 S
H19 C22 0.980 . S
H20 C22 0.981 . S
H21 C22 0.981 . S
C22 C14 1.481 . S
C22 H19 0.980 . S
C22 H20 0.981 . S
C22 H21 0.981 . S
C23 C10 1.481 . S
C23 H24 0.980 . S
C23 H25 0.981 . S
C23 H26 0.981 . S
H24 C23 0.980 . S
H25 C23 0.981 . S
H26 C23 0.981 . S
O27 Zn3 2.066 1_655 S
O27 C6 1.256 . S
O28 Zn0 2.053 1_655 S
O28 C6 1.244 . S
C29 O7 1.259 . S
C29 O8 1.254 . S
O30 Zn0 2.066 . S
O30 C2 1.256 . S
O31 C2 1.244 . S
O31 Zn3 2.053 . S
Zn32 O33 2.055 . S
Zn32 O40 2.046 1_545 S
Zn32 N48 2.036 1_545 S
Zn32 O60 2.053 1_545 S
Zn32 O62 2.066 . S
O33 Zn32 2.055 . S
O33 C36 1.259 . S
C34 O62 1.256 . S
C34 O63 1.244 . S
Zn35 O37 2.046 . S
Zn35 O39 2.055 1_545 S
Zn35 N41 2.036 . S
Zn35 O59 2.066 1_545 S
Zn35 O63 2.053 . S
C36 O33 1.259 . S
C36 O37 1.254 . S
O37 Zn35 2.046 . S
O37 C36 1.254 . S
C38 O59 1.256 . S
C38 O60 1.244 . S
O39 Zn35 2.055 1_565 S
O39 C61 1.259 . S
O40 Zn32 2.046 1_565 S
O40 C61 1.254 . S
N41 Zn35 2.036 . S
N41 C42 1.298 1_545 S
N41 N44 1.398 . S
C42 N41 1.298 1_565 S
C42 N45 1.365 1_565 S
C42 C55 1.481 . S
C43 N44 1.299 . S
C43 N45 1.384 . S
N44 N41 1.398 . S
N44 C43 1.299 . S
N45 C42 1.365 1_545 S
N45 C43 1.384 . S
C46 N48 1.298 1_545 S
C46 N50 1.367 . S
C46 C54 1.481 . S
C47 N49 1.299 . S
C47 N50 1.379 1_565 S
N48 Zn32 2.036 1_565 S
N48 C46 1.298 1_565 S
N48 N49 1.398 . S
N49 C47 1.299 . S
N49 N48 1.398 . S
N50 C46 1.367 . S
N50 C47 1.379 1_545 S
H51 C54 0.980 . S
H52 C54 0.981 . S
H53 C54 0.981 . S
C54 C46 1.481 . S
C54 H51 0.980 . S
C54 H52 0.981 . S
C54 H53 0.981 . S
C55 C42 1.481 . S
C55 H56 0.980 . S
C55 H57 0.981 . S
C55 H58 0.981 . S
H56 C55 0.980 . S
H57 C55 0.981 . S
H58 C55 0.981 . S
O59 Zn35 2.066 1_565 S
O59 C38 1.256 . S
O60 Zn32 2.053 1_565 S
O60 C38 1.244 . S
C61 O39 1.259 . S
C61 O40 1.254 . S
O62 Zn32 2.066 . S
O62 C34 1.256 . S
O63 C34 1.244 . S
O63 Zn35 2.053 . S
Zn64 O65 2.055 . S
Zn64 O72 2.046 . S
Zn64 N80 2.036 1_556 S
Zn64 O92 2.053 . S
Zn64 O94 2.066 . S
O65 Zn64 2.055 . S
O65 C68 1.259 . S
C66 O94 1.256 . S
C66 O95 1.244 . S
Zn67 O69 2.046 . S
Zn67 O71 2.055 . S
Zn67 N73 2.036 . S
Zn67 O91 2.066 . S
Zn67 O95 2.053 . S
C68 O65 1.259 . S
C68 O69 1.254 . S
O69 Zn67 2.046 . S
O69 C68 1.254 . S
C70 O91 1.256 . S
C70 O92 1.244 . S
O71 Zn67 2.055 . S
O71 C93 1.259 . S
O72 Zn64 2.046 . S
O72 C93 1.254 . S
N73 Zn67 2.036 . S
N73 C74 1.298 . S
N73 N76 1.398 . S
C74 N73 1.298 . S
C74 N77 1.367 . S
C74 C87 1.481 . S
C75 N76 1.299 . S
C75 N77 1.379 . S
N76 N73 1.398 . S
N76 C75 1.299 . S
N77 C74 1.367 . S
N77 C75 1.379 . S
C78 N80 1.298 . S
C78 N82 1.367 . S
C78 C86 1.481 . S
C79 N81 1.299 . S
C79 N82 1.379 . S
N80 Zn64 2.036 1_554 S
N80 C78 1.298 . S
N80 N81 1.398 . S
N81 C79 1.299 . S
N81 N80 1.398 . S
N82 C78 1.367 . S
N82 C79 1.379 . S
H83 C86 0.980 . S
H84 C86 0.981 . S
H85 C86 0.981 . S
C86 C78 1.481 . S
C86 H83 0.980 . S
C86 H84 0.981 . S
C86 H85 0.981 . S
C87 C74 1.481 . S
C87 H88 0.980 . S
C87 H89 0.981 . S
C87 H90 0.981 . S
H88 C87 0.980 . S
H89 C87 0.981 . S
H90 C87 0.981 . S
O91 Zn67 2.066 . S
O91 C70 1.256 . S
O92 Zn64 2.053 . S
O92 C70 1.244 . S
C93 O71 1.259 . S
C93 O72 1.254 . S
O94 Zn64 2.066 . S
O94 C66 1.256 . S
O95 C66 1.244 . S
O95 Zn67 2.053 . S
H96 C102 0.930 1_556 S
H97 C105 0.930 . S
H98 C106 0.930 . S
H99 C107 0.930 . S
H100 C110 0.930 . S
H101 C111 0.930 . S
C102 H96 0.930 1_554 S
C102 C103 1.355 . S
C102 C104 1.415 1_554 S
C103 C102 1.355 . S
C103 C105 1.419 . S
C104 C102 1.415 1_556 S
C104 C109 1.425 1_556 S
C104 C111 1.409 . S
C105 H97 0.930 . S
C105 C103 1.419 . S
C105 C106 1.362 . S
C106 H98 0.930 . S
C106 C105 1.362 . S
C106 C109 1.409 . S
C107 H99 0.930 . S
C107 C108 1.355 . S
C107 C109 1.415 1_556 S
C108 C107 1.355 . S
C108 C110 1.419 . S
C109 C104 1.425 1_554 S
C109 C106 1.409 . S
C109 C107 1.415 1_554 S
C110 H100 0.930 . S
C110 C108 1.419 . S
C110 C111 1.362 . S
C111 H101 0.930 . S
C111 C104 1.409 . S
C111 C110 1.362 . S
H112 C118 0.930 . S
H113 C121 0.930 . S
H114 C122 0.930 . S
H115 C123 0.930 . S
H116 C126 0.930 . S
H117 C127 0.930 . S
C118 H112 0.930 . S
C118 C119 1.355 . S
C118 C120 1.415 . S
C119 C118 1.355 . S
C119 C121 1.419 . S
C120 C118 1.415 . S
C120 C125 1.425 . S
C120 C127 1.409 . S
C121 H113 0.930 . S
C121 C119 1.419 . S
C121 C122 1.362 . S
C122 H114 0.930 . S
C122 C121 1.362 . S
C122 C125 1.409 . S
C123 H115 0.930 . S
C123 C124 1.355 . S
C123 C125 1.415 . S
C124 C123 1.355 . S
C124 C126 1.419 . S
C125 C120 1.425 . S
C125 C122 1.409 . S
C125 C123 1.415 . S
C126 H116 0.930 . S
C126 C124 1.419 . S
C126 C127 1.362 . S
C127 H117 0.930 . S
C127 C120 1.409 . S
C127 C126 1.362 . S
H128 C134 0.930 . S
H129 C137 0.930 . S
H130 C138 0.930 . S
H131 C139 0.930 . S
H132 C142 0.930 . S
H133 C143 0.930 . S
C134 H128 0.930 . S
C134 C135 1.355 . S
C134 C136 1.415 . S
C135 C134 1.355 . S
C135 C137 1.419 . S
C136 C134 1.415 . S
C136 C141 1.425 . S
C136 C143 1.409 . S
C137 H129 0.930 . S
C137 C135 1.419 . S
C137 C138 1.362 . S
C138 H130 0.930 . S
C138 C137 1.362 . S
C138 C141 1.409 . S
C139 H131 0.930 . S
C139 C140 1.355 . S
C139 C141 1.415 . S
C140 C139 1.355 . S
C140 C142 1.419 . S
C141 C136 1.425 . S
C141 C138 1.409 . S
C141 C139 1.415 . S
C142 H132 0.930 . S
C142 C140 1.419 . S
C142 C143 1.362 . S
C143 H133 0.930 . S
C143 C136 1.409 . S
C143 C142 1.362 . S
H144 C150 0.930 . S
H145 C153 0.930 . S
H146 C154 0.930 . S
H147 C155 0.930 . S
H148 C158 0.930 . S
H149 C159 0.930 1_556 S
C150 H144 0.930 . S
C150 C151 1.355 . S
C150 C152 1.415 . S
C151 C150 1.355 . S
C151 C153 1.419 . S
C152 C150 1.415 . S
C152 C157 1.425 1_556 S
C152 C159 1.409 1_556 S
C153 H145 0.930 . S
C153 C151 1.419 . S
C153 C154 1.362 1_556 S
C154 H146 0.930 . S
C154 C153 1.362 1_554 S
C154 C157 1.409 . S
C155 H147 0.930 . S
C155 C156 1.355 . S
C155 C157 1.415 . S
C156 C155 1.355 . S
C156 C158 1.419 . S
C157 C152 1.425 1_554 S
C157 C154 1.409 . S
C157 C155 1.415 . S
C158 H148 0.930 . S
C158 C156 1.419 . S
C158 C159 1.362 . S
C159 H149 0.930 1_554 S
C159 C152 1.409 1_554 S
C159 C158 1.362 . S
H160 C166 0.930 . S
H161 C169 0.930 . S
H162 C170 0.930 . S
H163 C171 0.930 . S
H164 C174 0.930 . S
H165 C175 0.930 . S
C166 H160 0.930 . S
C166 C167 1.355 . S
C166 C168 1.415 . S
C167 C166 1.355 . S
C167 C169 1.419 . S
C168 C166 1.415 . S
C168 C173 1.425 . S
C168 C175 1.409 . S
C169 H161 0.930 . S
C169 C167 1.419 . S
C169 C170 1.362 . S
C170 H162 0.930 . S
C170 C169 1.362 . S
C170 C173 1.409 . S
C171 H163 0.930 . S
C171 C172 1.355 . S
C171 C173 1.415 . S
C172 C171 1.355 . S
C172 C174 1.419 . S
C173 C168 1.425 . S
C173 C170 1.409 . S
C173 C171 1.415 . S
C174 H164 0.930 . S
C174 C172 1.419 . S
C174 C175 1.362 . S
C175 H165 0.930 . S
C175 C168 1.409 . S
C175 C174 1.362 . S
H176 C182 0.930 . S
H177 C185 0.930 . S
H178 C186 0.930 . S
H179 C187 0.930 . S
H180 C190 0.930 . S
H181 C191 0.930 . S
C182 H176 0.930 . S
C182 C183 1.355 . S
C182 C184 1.415 . S
C183 C182 1.355 . S
C183 C185 1.419 . S
C184 C182 1.415 . S
C184 C189 1.425 . S
C184 C191 1.409 . S
C185 H177 0.930 . S
C185 C183 1.419 . S
C185 C186 1.362 . S
C186 H178 0.930 . S
C186 C185 1.362 . S
C186 C189 1.409 . S
C187 H179 0.930 . S
C187 C188 1.355 . S
C187 C189 1.415 . S
C188 C187 1.355 . S
C188 C190 1.419 . S
C189 C184 1.425 . S
C189 C186 1.409 . S
C189 C187 1.415 . S
C190 H180 0.930 . S
C190 C188 1.419 . S
C190 C191 1.362 . S
C191 H181 0.930 . S
C191 C184 1.409 . S
C191 C190 1.362 . S
H192 C198 0.930 . S
H193 C201 0.930 . S
H194 C202 0.930 . S
H195 C203 0.930 . S
H196 C206 0.930 . S
H197 C207 0.930 . S
C198 H192 0.930 . S
C198 C199 1.355 . S
C198 C200 1.415 . S
C199 C198 1.355 . S
C199 C201 1.419 1_455 S
C200 C198 1.415 . S
C200 C205 1.425 1_455 S
C200 C207 1.409 . S
C201 H193 0.930 . S
C201 C199 1.419 1_655 S
C201 C202 1.362 . S
C202 H194 0.930 . S
C202 C201 1.362 . S
C202 C205 1.409 . S
C203 H195 0.930 . S
C203 C204 1.355 . S
C203 C205 1.415 . S
C204 C203 1.355 . S
C204 C206 1.419 1_655 S
C205 C200 1.425 1_655 S
C205 C202 1.409 . S
C205 C203 1.415 . S
C206 H196 0.930 . S
C206 C204 1.419 1_455 S
C206 C207 1.362 . S
C207 H197 0.930 . S
C207 C200 1.409 . S
C207 C206 1.362 . S
H208 C214 0.930 . S
H209 C217 0.930 . S
H210 C218 0.930 . S
H211 C219 0.930 . S
H212 C222 0.930 . S
H213 C223 0.930 . S
C214 H208 0.930 . S
C214 C215 1.355 . S
C214 C216 1.415 1_565 S
C215 C214 1.355 . S
C215 C217 1.419 . S
C216 C214 1.415 1_545 S
C216 C221 1.425 1_554 S
C216 C223 1.409 1_554 S
C217 H209 0.930 . S
C217 C215 1.419 . S
C217 C218 1.362 . S
C218 H210 0.930 . S
C218 C217 1.362 . S
C218 C221 1.409 1_564 S
C219 H211 0.930 . S
C219 C220 1.355 . S
C219 C221 1.415 . S
C220 C219 1.355 . S
C220 C222 1.419 . S
C221 C216 1.425 1_556 S
C221 C218 1.409 1_546 S
C221 C219 1.415 . S
C222 H212 0.930 . S
C222 C220 1.419 . S
C222 C223 1.362 . S
C223 H213 0.930 . S
C223 C216 1.409 1_556 S
C223 C222 1.362 . S
H224 C230 0.930 . S
H225 C233 0.930 . S
H226 C234 0.930 . S
H227 C235 0.930 . S
H228 C238 0.930 . S
H229 C239 0.930 . S
C230 H224 0.930 . S
C230 C231 1.355 . S
C230 C232 1.415 . S
C231 C230 1.355 . S
C231 C233 1.419 . S
C232 C230 1.415 . S
C232 C237 1.425 . S
C232 C239 1.409 . S
C233 H225 0.930 . S
C233 C231 1.419 . S
C233 C234 1.362 . S
C234 H226 0.930 . S
C234 C233 1.362 . S
C234 C237 1.409 . S
C235 H227 0.930 . S
C235 C236 1.355 . S
C235 C237 1.415 . S
C236 C235 1.355 . S
C236 C238 1.419 . S
C237 C232 1.425 . S
C237 C234 1.409 . S
C237 C235 1.415 . S
C238 H228 0.930 . S
C238 C236 1.419 . S
C238 C239 1.362 . S
C239 H229 0.930 . S
C239 C232 1.409 . S
C239 C238 1.362 . S
C103 C2 2.026 . S
C108 C93 2.000 . S
C119 C36 1.975 . S
C124 C6 2.008 . S
C135 C61 1.935 . S
C140 C70 1.959 . S
C151 C66 1.975 . S
C156 C29 1.940 . S
C167 C38 2.002 . S
C172 C4 1.985 . S
C183 C68 1.932 . S
C188 C34 1.965 . S
C199 N18 0.478 . S
C204 N13 0.507 1_655 S
C215 N45 0.564 1_565 S
C220 N50 0.531 . S
C231 N77 0.632 . S
C236 N82 0.657 . S
