# Generated by pormake.
# Topology pcu, (6)-cn, num edge types: 1
# Building blocks:
#     Node 0, Type 0, BuildingBlock: KUMJIN_clean_sbu_0, # of connection points: 6
#     Edge 1, Type (0, 0), BuildingBlock: FUNLAD_clean_linker_1, # of connection points: 2
#     Edge 2, Type (0, 0), BuildingBlock: FUNLAD_clean_linker_1, # of connection points: 2
#     Edge 3, Type (0, 0), BuildingBlock: FUNLAD_clean_linker_1, # of connection points: 2
# Relax obj value: 0.000
# Max RMSD: 0.000
# Mean RMSD: 0.000
data_MOF--net-pcu--node1-KUMJIN_clean_sbu_0--edge1-FUNLAD_clean_linker_1
_symmetry_space_group_name_H-M    P1
_symmetry_Int_Tables_number       1
_symmetry_cell_setting            triclinic
loop_
_symmetry_equiv_pos_as_xyz
'x, y, z'
_cell_length_a     14.891227
_cell_length_b     25.687227
_cell_length_c     15.709007
_cell_angle_alpha  115.34489
_cell_angle_beta   73.845351
_cell_angle_gamma 118.00543
loop_
_atom_site_label
_atom_site_type_symbol
_atom_site_fract_x
_atom_site_fract_y
_atom_site_fract_z
_atom_type_partial_charge
Eu0 Eu 0.07733 0.08699 0.03304 0.0
C1 C 0.78638 0.80674 0.8337 0.0
C2 C 0.62134 0.79436 0.92433 0.0
C3 C 0.63086 0.72704 0.75955 0.0
C4 C 0.72891 0.82581 0.91744 0.0
C5 C 0.738 0.75671 0.75411 0.0
C6 C 0.57268 0.74561 0.8446 0.0
C7 C 0.90505 0.76453 0.67266 0.0
N8 N 0.88974 0.83461 0.83173 0.0
C9 C 0.94942 0.81297 0.75401 0.0
C10 C 0.79886 0.73655 0.67243 0.0
Eu11 Eu 0.95905 0.91406 0.97323 0.0
N12 N 0.77825 0.87214 0.99389 0.0
C13 C 0.72478 0.88795 0.08002 0.0
C14 C 0.56595 0.81222 0.01159 0.0
C15 C 0.61801 0.85897 0.08987 0.0
H16 H 0.03153 0.83413 0.75456 0.0
H17 H 0.576 0.87247 0.15804 0.0
H18 H 0.49019 0.7215 0.84828 0.0
H19 H 0.95266 0.74838 0.61055 0.0
H20 H 0.76404 0.92329 0.14148 0.0
H21 H 0.46042 0.12872 0.84827 0.0
H22 H 0.48326 0.7895 0.0196 0.0
H23 H 1.00478 0.16681 0.25179 0.0
H24 H 0.27238 0.07788 0.86479 0.0
H25 H 0.08361 0.2525 0.39584 0.0
H26 H 0.59231 0.68871 0.69904 0.0
H27 H 0.55311 0.21165 0.98675 0.0
H28 H 0.54614 0.27958 0.15811 0.0
H29 H 0.76458 0.69841 0.60975 0.0
H30 H 0.44399 0.31229 0.30737 0.0
N31 N 0.25813 0.12898 0.0124 0.0
C32 C 0.31161 0.1132 0.92626 0.0
C33 C 0.47043 0.18892 0.99474 0.0
C34 C 0.41502 0.20673 0.08201 0.0
C35 C 0.41839 0.14219 0.91643 0.0
C36 C 0.30745 0.17527 0.08888 0.0
H37 H 0.27169 0.30252 0.39666 0.0
N38 N 0.1466 0.1664 0.17459 0.0
C39 C 0.13124 0.2364 0.33372 0.0
C40 C 0.24996 0.1943 0.17263 0.0
C41 C 0.0869 0.18799 0.25234 0.0
C42 C 0.23743 0.2644 0.33395 0.0
C43 C 0.29831 0.24429 0.25226 0.0
O44 O 1.01642 0.15569 0.05866 0.0
O45 O 0.93736 0.99914 0.996 0.0
O46 O 0.95919 0.93203 0.84484 0.0
O47 O 0.08597 0.03442 0.87224 0.0
O48 O 0.91507 0.07475 0.10021 0.0
O49 O 0.12515 0.13855 0.93703 0.0
O50 O 0.01988 0.84534 0.94764 0.0
O51 O 0.09888 0.00188 0.0101 0.0
O52 O 0.07744 0.06898 0.16131 0.0
O53 O 0.95046 0.96667 0.13402 0.0
O54 O 0.12143 0.92633 0.90624 0.0
O55 O 0.91123 0.86256 0.06932 0.0
C56 C 0.86863 0.01702 0.04775 0.0
C57 C 0.12788 0.24121 0.00734 0.0
C58 C 0.13211 0.33957 0.01576 0.0
C59 C 0.08164 0.27407 0.99537 0.0
C60 C 0.23032 0.37164 0.04719 0.0
C61 C 0.22587 0.27416 0.03838 0.0
C62 C 0.27653 0.33897 0.05842 0.0
C63 C 0.02384 0.97977 0.81662 0.0
C64 C 0.07316 0.17286 0.98759 0.0
C65 C 0.40545 0.27399 0.24683 0.0
C66 C 0.46365 0.25545 0.16177 0.0
C67 C 0.16778 0.98411 0.95859 0.0
C68 C 0.90837 0.75987 0.99906 0.0
C69 C 0.95461 0.72698 0.01095 0.0
C70 C 0.90409 0.66149 0.99061 0.0
C71 C 0.80583 0.62944 0.95929 0.0
C72 C 0.81033 0.72695 0.96815 0.0
C73 C 0.75961 0.66215 0.94814 0.0
C74 C 1.01274 0.02127 0.18958 0.0
C75 C 0.96315 0.82821 0.01875 0.0
H76 H 1.00619 0.24872 0.97065 0.0
H77 H 0.27287 0.4216 0.06082 0.0
H78 H 0.26381 0.24989 0.04617 0.0
H79 H 0.35241 0.36386 0.08184 0.0
H80 H 0.03011 0.75231 0.03558 0.0
H81 H 0.76324 0.57949 0.94569 0.0
H82 H 0.77238 0.75125 0.96043 0.0
H83 H 0.6837 0.63728 0.92482 0.0
H84 H 0.05824 0.07647 0.33439 0.0
C85 C 1.01657 0.02927 0.2873 0.0
H86 H 0.94047 0.93273 0.27054 0.0
H87 H 0.23869 0.05558 0.61401 0.0
H88 H 0.37981 0.07363 0.49244 0.0
H89 H 0.34904 0.05134 0.33153 0.0
H90 H 0.17749 0.01148 0.29144 0.0
C91 C 0.98195 0.98037 0.31635 0.0
C92 C 1.00067 0.98995 0.41145 0.0
C93 C 0.10175 0.01193 0.43301 0.0
C94 C 0.11938 0.02338 0.52517 0.0
C95 C 0.22096 0.04593 0.54509 0.0
C96 C 0.30269 0.05638 0.47592 0.0
C97 C 0.2854 0.04396 0.3854 0.0
C98 C 0.18634 0.02161 0.36362 0.0
H99 H 0.9785 0.92456 0.67175 0.0
C100 C 0.0201 0.97176 0.71887 0.0
H101 H 0.09608 0.06831 0.73565 0.0
H102 H 0.79793 0.94544 0.39216 0.0
H103 H 0.65681 0.92737 0.51372 0.0
H104 H 0.68758 0.94964 0.67462 0.0
H105 H 0.85914 0.98952 0.71471 0.0
C106 C 0.05468 0.02066 0.68982 0.0
C107 C 0.03595 0.01107 0.59472 0.0
C108 C 0.93488 0.98908 0.57315 0.0
C109 C 0.91725 0.97764 0.48099 0.0
C110 C 0.81567 0.95509 0.46107 0.0
C111 C 0.73394 0.94463 0.53024 0.0
C112 C 0.75123 0.95704 0.62075 0.0
C113 C 0.85029 0.97939 0.64254 0.0
H114 H 0.25044 0.00234 0.071 0.0
C115 C 0.26006 1.00022 0.9986 0.0
H116 H 0.35494 0.99895 0.87233 0.0
H117 H 0.67023 0.09465 0.19675 0.0
H118 H 0.60124 0.17174 0.29702 0.0
H119 H 0.45781 0.17404 0.2521 0.0
H120 H 0.38462 0.10009 0.10586 0.0
C121 C 0.34898 0.00295 0.94523 0.0
C122 C 0.43493 0.00216 0.97677 0.0
C123 C 0.47911 0.04696 0.06261 0.0
C124 C 0.56186 0.04531 0.089 0.0
C125 C 0.60547 0.09178 0.17395 0.0
C126 C 0.56737 0.1371 0.23218 0.0
C127 C 0.48691 0.13852 0.20674 0.0
C128 C 0.44442 0.09491 0.1226 0.0
H129 H 0.7858 0.99892 0.93556 0.0
C130 C 0.7763 0.00106 0.00795 0.0
H131 H 0.68158 0.00235 0.13431 0.0
H132 H 0.36604 0.90658 0.81003 0.0
H133 H 0.435 0.82947 0.70978 0.0
H134 H 0.57843 0.82717 0.7547 0.0
H135 H 0.65164 0.90113 0.90093 0.0
C136 C 0.68745 0.99835 0.06143 0.0
C137 C 0.60141 0.9991 0.02997 0.0
C138 C 0.55719 0.95429 0.94414 0.0
C139 C 0.47445 0.95594 0.91776 0.0
C140 C 0.43081 0.90945 0.83283 0.0
C141 C 0.4689 0.86412 0.77461 0.0
C142 C 0.54935 0.8627 0.80004 0.0
C143 C 0.59185 0.90632 0.88418 0.0
H144 H 1.00658 0.65484 0.06066 0.0
C145 C 0.95318 0.62819 0.00686 0.0
H146 H 0.88431 0.53992 0.90166 0.0
H147 H 0.26686 0.51418 0.99968 0.0
H148 H 0.38025 0.59952 0.9415 0.0
H149 H 0.31135 0.65387 0.89676 0.0
H150 H 0.12908 0.62361 0.91055 0.0
C151 C 0.93563 0.5672 0.9571 0.0
C152 C 0.97854 0.53328 0.98028 0.0
C153 C 0.08559 0.55073 0.96974 0.0
C154 C 0.12512 0.51844 0.99375 0.0
C155 C 0.23241 0.53708 0.9829 0.0
C156 C 0.29852 0.58587 0.94916 0.0
C157 C 0.2598 0.61654 0.9241 0.0
C158 C 0.15476 0.59905 0.93334 0.0
H159 H 0.02967 0.34617 0.94558 0.0
C160 C 0.08302 0.37284 0.99943 0.0
H161 H 0.15178 0.46111 0.10465 0.0
H162 H 0.76928 0.4868 0.00652 0.0
H163 H 0.65588 0.40145 0.06467 0.0
H164 H 0.72478 0.34709 0.10939 0.0
H165 H 0.90705 0.37736 0.09562 0.0
C166 C 0.10051 0.43382 0.04918 0.0
C167 C 0.05759 0.46771 0.02594 0.0
C168 C 0.95055 0.45025 0.03646 0.0
C169 C 0.91101 0.48255 0.01246 0.0
C170 C 0.80372 0.4639 0.0233 0.0
C171 C 0.73761 0.4151 0.05702 0.0
C172 C 0.77634 0.38443 0.08207 0.0
C173 C 0.88138 0.40192 0.07284 0.0
loop_
_geom_bond_atom_site_label_1
_geom_bond_atom_site_label_2
_geom_bond_distance
_geom_bond_site_symmetry_2
_ccdc_geom_bond_type
Eu0 N31 2.657 1_554 S
Eu0 N38 2.609 . S
Eu0 O44 2.558 . S
Eu0 O45 2.612 1_444 S
Eu0 O47 2.339 1_554 S
Eu0 O48 2.563 1_455 S
Eu0 O49 2.419 . S
Eu0 O51 2.380 . S
Eu0 O52 2.432 1_455 S
Eu0 C64 2.848 . S
C1 C4 1.429 . S
C1 C5 1.411 . S
C1 N8 1.377 . S
C2 C4 1.420 . S
C2 C6 1.423 . S
C2 C14 1.392 1_556 S
C3 C5 1.420 . S
C3 C6 1.351 . S
C3 H26 0.931 . S
C4 C1 1.429 . S
C4 C2 1.420 . S
C4 N12 1.362 1_556 S
C5 C1 1.411 . S
C5 C3 1.420 . S
C5 C10 1.395 . S
C6 C2 1.423 . S
C6 C3 1.351 . S
C6 H18 0.930 . S
C7 C9 1.400 . S
C7 C10 1.386 . S
C7 H19 0.930 . S
N8 C1 1.377 . S
N8 C9 1.321 . S
N8 Eu11 2.609 . S
C9 C7 1.400 . S
C9 N8 1.321 . S
C9 H16 0.930 . S
C10 C5 1.395 . S
C10 C7 1.386 . S
C10 H29 0.930 . S
Eu11 N8 2.609 . S
Eu11 N12 2.657 1_556 S
Eu11 O45 2.380 . S
Eu11 O46 2.432 1_655 S
Eu11 O50 2.558 . S
Eu11 O51 2.612 1_666 S
Eu11 O53 2.339 1_556 S
Eu11 O54 2.563 1_655 S
Eu11 O55 2.419 . S
Eu11 C75 2.848 . S
N12 C4 1.362 1_554 S
N12 Eu11 2.657 1_554 S
N12 C13 1.334 . S
C13 N12 1.334 . S
C13 C15 1.413 . S
C13 H20 0.929 . S
C14 C2 1.392 1_554 S
C14 C15 1.367 . S
C14 H22 0.930 . S
C15 C13 1.413 . S
C15 C14 1.367 . S
C15 H17 0.930 . S
H16 C9 0.930 . S
H17 C15 0.930 . S
H18 C6 0.930 . S
H19 C7 0.930 . S
H20 C13 0.929 . S
H21 C35 0.930 . S
H22 C14 0.930 . S
H23 C41 0.930 . S
H24 C32 0.929 . S
H25 C39 0.930 . S
H26 C3 0.931 . S
H27 C33 0.930 . S
H28 C66 0.930 . S
H29 C10 0.930 . S
H30 C65 0.931 . S
N31 Eu0 2.657 1_556 S
N31 C32 1.334 . S
N31 C36 1.362 1_556 S
C32 H24 0.929 . S
C32 N31 1.334 . S
C32 C35 1.413 . S
C33 H27 0.930 . S
C33 C34 1.392 1_556 S
C33 C35 1.367 . S
C34 C33 1.392 1_554 S
C34 C36 1.420 . S
C34 C66 1.423 . S
C35 H21 0.930 . S
C35 C32 1.413 . S
C35 C33 1.367 . S
C36 N31 1.362 1_554 S
C36 C34 1.420 . S
C36 C40 1.429 . S
H37 C42 0.930 . S
N38 Eu0 2.609 . S
N38 C40 1.377 . S
N38 C41 1.321 . S
C39 H25 0.930 . S
C39 C41 1.400 . S
C39 C42 1.386 . S
C40 C36 1.429 . S
C40 N38 1.377 . S
C40 C43 1.411 . S
C41 H23 0.930 . S
C41 N38 1.321 . S
C41 C39 1.400 . S
C42 H37 0.930 . S
C42 C39 1.386 . S
C42 C43 1.395 . S
C43 C40 1.411 . S
C43 C42 1.395 . S
C43 C65 1.420 . S
O44 Eu0 2.558 . S
O44 C64 1.257 . S
O45 Eu0 2.612 1_666 S
O45 Eu11 2.380 . S
O45 C56 1.276 1_566 S
O46 Eu11 2.432 1_455 S
O46 C63 1.264 . S
O47 Eu0 2.339 1_556 S
O47 C63 1.254 1_545 S
O48 Eu0 2.563 1_655 S
O48 C56 1.235 . S
O49 Eu0 2.419 . S
O49 C64 1.249 . S
O50 Eu11 2.558 . S
O50 C75 1.257 . S
O51 Eu0 2.380 . S
O51 Eu11 2.612 1_444 S
O51 C67 1.276 1_544 S
O52 Eu0 2.432 1_655 S
O52 C74 1.264 . S
O53 Eu11 2.339 1_554 S
O53 C74 1.254 1_565 S
O54 Eu11 2.563 1_455 S
O54 C67 1.235 . S
O55 Eu11 2.419 . S
O55 C75 1.249 . S
C56 O45 1.276 1_544 S
C56 O48 1.235 . S
C57 C59 1.393 . S
C57 C61 1.395 . S
C57 C64 1.492 . S
C58 C59 1.392 . S
C58 C60 1.386 . S
C59 C57 1.393 . S
C59 C58 1.392 . S
C59 H76 0.930 1_554 S
C60 C58 1.386 . S
C60 C62 1.395 . S
C60 H77 0.930 . S
C61 C57 1.395 . S
C61 C62 1.379 . S
C61 H78 0.930 . S
C62 C60 1.395 . S
C62 C61 1.379 . S
C62 H79 0.930 . S
C63 O46 1.264 . S
C63 O47 1.254 1_565 S
C64 Eu0 2.848 . S
C64 O44 1.257 . S
C64 O49 1.249 . S
C64 C57 1.492 . S
C65 H30 0.931 . S
C65 C43 1.420 . S
C65 C66 1.351 . S
C66 H28 0.930 . S
C66 C34 1.423 . S
C66 C65 1.351 . S
C67 O51 1.276 1_566 S
C67 O54 1.235 . S
C68 C69 1.393 . S
C68 C72 1.395 . S
C68 C75 1.492 . S
C69 C68 1.393 . S
C69 C70 1.392 . S
C69 H80 0.930 1_556 S
C70 C69 1.392 . S
C70 C71 1.386 . S
C71 C70 1.386 . S
C71 C73 1.395 . S
C71 H81 0.930 . S
C72 C68 1.395 . S
C72 C73 1.379 . S
C72 H82 0.930 . S
C73 C71 1.395 . S
C73 C72 1.379 . S
C73 H83 0.930 . S
C74 O52 1.264 . S
C74 O53 1.254 1_545 S
C75 Eu11 2.848 . S
C75 O50 1.257 . S
C75 O55 1.249 . S
C75 C68 1.492 . S
H76 C59 0.930 1_556 S
H77 C60 0.930 . S
H78 C61 0.930 . S
H79 C62 0.930 . S
H80 C69 0.930 1_554 S
H81 C71 0.930 . S
H82 C72 0.930 . S
H83 C73 0.930 . S
H84 C85 0.951 . S
C85 H84 0.951 . S
C85 C91 1.265 1_645 S
H86 C91 0.950 . S
H87 C95 0.949 . S
H88 C96 0.950 . S
H89 C97 0.951 . S
H90 C98 0.951 . S
C91 C85 1.265 1_465 S
C91 H86 0.950 . S
C91 C92 1.478 . S
C92 C91 1.478 . S
C92 C93 1.397 1_565 S
C92 C109 1.394 1_455 S
C93 C92 1.397 1_545 S
C93 C94 1.438 . S
C93 C98 1.429 . S
C94 C93 1.438 . S
C94 C95 1.428 . S
C94 C107 1.394 1_455 S
C95 H87 0.949 . S
C95 C94 1.428 . S
C95 C96 1.345 . S
C96 H88 0.950 . S
C96 C95 1.345 . S
C96 C97 1.424 . S
C97 H89 0.951 . S
C97 C96 1.424 . S
C97 C98 1.347 . S
C98 H90 0.951 . S
C98 C93 1.429 . S
C98 C97 1.347 . S
H99 C100 0.951 . S
C100 H99 0.951 . S
C100 C106 1.265 1_465 S
H101 C106 0.950 . S
H102 C110 0.949 . S
H103 C111 0.950 . S
H104 C112 0.951 . S
H105 C113 0.951 . S
C106 C100 1.265 1_645 S
C106 H101 0.950 . S
C106 C107 1.478 . S
C107 C94 1.394 1_655 S
C107 C106 1.478 . S
C107 C108 1.397 1_545 S
C108 C107 1.397 1_565 S
C108 C109 1.438 . S
C108 C113 1.429 . S
C109 C92 1.394 1_655 S
C109 C108 1.438 . S
C109 C110 1.428 . S
C110 H102 0.949 . S
C110 C109 1.428 . S
C110 C111 1.345 . S
C111 H103 0.950 . S
C111 C110 1.345 . S
C111 C112 1.424 . S
C112 H104 0.951 . S
C112 C111 1.424 . S
C112 C113 1.347 . S
C113 H105 0.951 . S
C113 C108 1.429 . S
C113 C112 1.347 . S
H114 C115 0.951 . S
C115 H114 0.951 . S
C115 C121 1.265 1_566 S
H116 C121 0.950 . S
H117 C125 0.949 . S
H118 C126 0.950 . S
H119 C127 0.951 . S
H120 C128 0.951 . S
C121 C115 1.265 1_544 S
C121 H116 0.950 . S
C121 C122 1.478 . S
C122 C121 1.478 . S
C122 C123 1.397 . S
C122 C139 1.394 1_544 S
C123 C122 1.397 . S
C123 C124 1.438 . S
C123 C128 1.429 . S
C124 C123 1.438 . S
C124 C125 1.428 . S
C124 C137 1.394 1_544 S
C125 H117 0.949 . S
C125 C124 1.428 . S
C125 C126 1.345 . S
C126 H118 0.950 . S
C126 C125 1.345 . S
C126 C127 1.424 . S
C127 H119 0.951 . S
C127 C126 1.424 . S
C127 C128 1.347 . S
C128 H120 0.951 . S
C128 C123 1.429 . S
C128 C127 1.347 . S
H129 C130 0.951 . S
C130 H129 0.951 . S
C130 C136 1.265 1_544 S
H131 C136 0.950 . S
H132 C140 0.949 . S
H133 C141 0.950 . S
H134 C142 0.951 . S
H135 C143 0.951 . S
C136 C130 1.265 1_566 S
C136 H131 0.950 . S
C136 C137 1.478 . S
C137 C124 1.394 1_566 S
C137 C136 1.478 . S
C137 C138 1.397 . S
C138 C137 1.397 . S
C138 C139 1.438 . S
C138 C143 1.429 . S
C139 C122 1.394 1_566 S
C139 C138 1.438 . S
C139 C140 1.428 . S
C140 H132 0.949 . S
C140 C139 1.428 . S
C140 C141 1.345 . S
C141 H133 0.950 . S
C141 C140 1.345 . S
C141 C142 1.424 . S
C142 H134 0.951 . S
C142 C141 1.424 . S
C142 C143 1.347 . S
C143 H135 0.951 . S
C143 C138 1.429 . S
C143 C142 1.347 . S
H144 C145 0.951 . S
C145 H144 0.951 . S
C145 C151 1.262 1_655 S
H146 C151 0.950 . S
H147 C155 0.949 . S
H148 C156 0.950 . S
H149 C157 0.951 . S
H150 C158 0.951 . S
C151 C145 1.262 1_455 S
C151 H146 0.950 . S
C151 C152 1.481 1_554 S
C152 C151 1.481 1_556 S
C152 C153 1.398 1_556 S
C152 C169 1.393 1_455 S
C153 C152 1.398 1_554 S
C153 C154 1.438 . S
C153 C158 1.429 . S
C154 C153 1.438 . S
C154 C155 1.428 . S
C154 C167 1.395 1_455 S
C155 H147 0.949 . S
C155 C154 1.428 . S
C155 C156 1.345 . S
C156 H148 0.950 . S
C156 C155 1.345 . S
C156 C157 1.424 . S
C157 H149 0.951 . S
C157 C156 1.424 . S
C157 C158 1.347 . S
C158 H150 0.951 . S
C158 C153 1.429 . S
C158 C157 1.347 . S
H159 C160 0.952 . S
C160 H159 0.952 . S
C160 C166 1.269 1_455 S
H161 C166 0.950 . S
H162 C170 0.949 . S
H163 C171 0.950 . S
H164 C172 0.951 . S
H165 C173 0.951 . S
C166 C160 1.269 1_655 S
C166 H161 0.950 . S
C166 C167 1.481 1_556 S
C167 C154 1.395 1_655 S
C167 C166 1.481 1_554 S
C167 C168 1.395 1_554 S
C168 C167 1.395 1_556 S
C168 C169 1.438 . S
C168 C173 1.429 . S
C169 C152 1.393 1_655 S
C169 C168 1.438 . S
C169 C170 1.428 . S
C170 H162 0.949 . S
C170 C169 1.428 . S
C170 C171 1.345 . S
C171 H163 0.950 . S
C171 C170 1.345 . S
C171 C172 1.424 . S
C172 H164 0.951 . S
C172 C171 1.424 . S
C172 C173 1.347 . S
C173 H165 0.951 . S
C173 C168 1.429 . S
C173 C172 1.347 . S
C85 C74 1.431 . S
C100 C63 1.431 . S
C115 C67 1.382 . S
C130 C56 1.382 . S
C145 C70 1.283 1_554 S
C160 C58 1.273 1_556 S
