# Generated by pormake.
# Topology hex, (8)-cn, num edge types: 1
# Building blocks:
#     Node 0, Type 0, BuildingBlock: AJUNOK_clean_sbu_0, # of connection points: 8
#     Edge 1, Type (0, 0), None
#     Edge 2, Type (0, 0), None
#     Edge 3, Type (0, 0), None
#     Edge 4, Type (0, 0), None
# Relax obj value: 0.035
# Max RMSD: 0.081
# Mean RMSD: 0.081
data_MOF--net-hex--node1-AJUNOK_clean_sbu_0--edge1-none
_symmetry_space_group_name_H-M    P1
_symmetry_Int_Tables_number       1
_symmetry_cell_setting            triclinic
loop_
_symmetry_equiv_pos_as_xyz
'x, y, z'
_cell_length_a     12.905484
_cell_length_b     12.90469
_cell_length_c     5.8330397
_cell_angle_alpha  94.81986
_cell_angle_beta   94.876472
_cell_angle_gamma 127.37649
loop_
_atom_site_label
_atom_site_type_symbol
_atom_site_fract_x
_atom_site_fract_y
_atom_site_fract_z
_atom_type_partial_charge
Cd0 Cd 0.169 0.15536 0.15212 0.0
Cd1 Cd 0.75413 0.74055 0.9901 0.0
C2 C 0.06751 0.31673 0.32387 0.0
N3 N 0.05071 0.23736 0.13199 0.0
C4 C 0.93541 0.29314 0.89857 0.0
C5 C 0.95625 0.3808 0.09113 0.0
C6 C 0.02026 0.38917 0.30767 0.0
C7 C -0.0157 0.2227 0.92276 0.0
H8 H 0.12289 0.32828 0.48707 0.0
H9 H -0.02495 0.16168 0.77145 0.0
C10 C 0.93411 0.91318 0.65526 0.0
C11 C 0.76786 0.50368 0.88336 0.0
C12 C 0.80269 0.42127 0.9071 0.0
C13 C 0.91673 0.46686 1.06356 0.0
C14 C -0.00611 0.5966 0.19036 0.0
C15 C 0.9541 0.67497 0.16369 0.0
N16 N 0.84233 0.62721 1.01285 0.0
H17 H 0.67907 0.4675 0.76528 0.0
H18 H 0.01169 0.77301 0.26602 0.0
C19 C 0.59273 0.8421 0.81822 0.0
N20 N 0.67216 0.85886 1.0101 0.0
C21 C 0.61645 -0.0259 0.24352 0.0
C22 C 0.52873 -0.04669 1.05097 0.0
C23 C 0.52029 0.88934 0.83442 0.0
C24 C 0.68687 0.92522 0.21932 0.0
H25 H 0.58112 0.78675 0.65503 0.0
H26 H 0.74793 0.93444 0.37064 0.0
C27 C -0.00364 -0.02461 0.48698 0.0
C28 C 0.39668 0.40077 0.08661 0.0
N29 N 0.28232 0.06715 0.12939 0.0
C30 C 0.40589 0.14161 0.25884 0.0
C31 C 0.48829 0.10681 0.23505 0.0
C32 C 0.44267 -0.0072 0.07858 0.0
C33 C 0.31289 0.91566 0.95182 0.0
C34 C 0.23453 -0.04458 0.97855 0.0
C35 C 0.50875 0.51284 1.05563 0.0
O36 O -0.01532 -0.0341 0.86685 0.0
O37 O 0.82107 0.80016 0.60969 0.0
O38 O 0.94364 0.92482 0.27539 0.0
O39 O 0.10941 0.0884 0.53256 0.0
O40 O 0.31236 0.31216 0.91336 0.0
O41 O 0.37269 0.37605 0.29067 0.0
O42 O 0.59742 0.59712 0.22887 0.0
O43 O 0.53341 0.5369 0.85157 0.0
H44 H 0.4421 0.23037 0.37693 0.0
H45 H 0.13646 0.89784 0.87625 0.0
H46 H 0.88768 0.28358 0.72768 0.0
H47 H 0.03641 0.45317 0.46223 0.0
H48 H 0.73897 0.32189 0.80732 0.0
H49 H 0.08434 0.63771 0.30899 0.0
H50 H 0.62606 0.02179 0.41441 0.0
H51 H 0.45625 0.87323 0.67988 0.0
H52 H 0.58771 0.17051 0.3348 0.0
H53 H 0.27176 0.82523 0.83318 0.0
loop_
_geom_bond_atom_site_label_1
_geom_bond_atom_site_label_2
_geom_bond_distance
_geom_bond_site_symmetry_2
_ccdc_geom_bond_type
Cd0 N3 2.334 . S
Cd0 N29 2.304 . S
Cd0 O36 2.268 1_554 S
Cd0 O39 2.273 . S
Cd0 O40 2.417 1_554 S
Cd0 O41 2.330 . S
Cd1 N16 2.304 . S
Cd1 N20 2.334 . S
Cd1 O37 2.273 . S
Cd1 O38 2.268 1_556 S
Cd1 O42 2.417 1_556 S
Cd1 O43 2.330 . S
C2 N3 1.332 . S
C2 C6 1.381 . S
C2 H8 0.931 . S
N3 Cd0 2.334 . S
N3 C2 1.332 . S
N3 C7 1.328 1_554 S
C4 C5 1.396 1_556 S
C4 C7 1.378 1_655 S
C4 H46 0.931 . S
C5 C4 1.396 1_554 S
C5 C6 1.382 1_655 S
C6 C2 1.381 . S
C6 C5 1.382 1_455 S
C6 H47 0.930 . S
C7 N3 1.328 1_556 S
C7 C4 1.378 1_455 S
C7 H9 0.930 . S
H8 C2 0.931 . S
H9 C7 0.930 . S
C10 O36 1.238 1_665 S
C10 O37 1.253 . S
C11 C12 1.379 . S
C11 N16 1.337 . S
C11 H17 0.929 . S
C12 C11 1.379 . S
C12 C13 1.380 1_655 S
C12 H48 0.929 . S
C13 C12 1.380 1_455 S
C13 C14 1.399 1_556 S
C14 C13 1.399 1_554 S
C14 C15 1.376 1_455 S
C14 H49 0.931 . S
C15 C14 1.376 1_655 S
C15 N16 1.338 1_554 S
C15 H18 0.930 . S
N16 Cd1 2.304 . S
N16 C11 1.337 . S
N16 C15 1.338 1_556 S
H17 C11 0.929 . S
H18 C15 0.930 . S
C19 N20 1.332 . S
C19 C23 1.381 . S
C19 H25 0.931 . S
N20 Cd1 2.334 . S
N20 C19 1.332 . S
N20 C24 1.328 1_556 S
C21 C22 1.396 1_554 S
C21 C24 1.378 1_545 S
C21 H50 0.931 . S
C22 C21 1.396 1_556 S
C22 C23 1.382 1_545 S
C23 C19 1.381 . S
C23 C22 1.382 1_565 S
C23 H51 0.930 . S
C24 N20 1.328 1_554 S
C24 C21 1.378 1_565 S
C24 H26 0.930 . S
H25 C19 0.931 . S
H26 C24 0.930 . S
C27 O38 1.238 1_445 S
C27 O39 1.253 . S
C28 O40 1.239 . S
C28 O41 1.230 1_556 S
N29 Cd0 2.304 . S
N29 C30 1.337 . S
N29 C34 1.338 1_554 S
C30 N29 1.337 . S
C30 C31 1.379 . S
C30 H44 0.929 . S
C31 C30 1.379 . S
C31 C32 1.380 1_545 S
C31 H52 0.929 . S
C32 C31 1.380 1_565 S
C32 C33 1.399 1_554 S
C33 C32 1.399 1_556 S
C33 C34 1.376 1_565 S
C33 H53 0.931 . S
C34 N29 1.338 1_556 S
C34 C33 1.376 1_545 S
C34 H45 0.930 . S
C35 O42 1.239 . S
C35 O43 1.230 1_554 S
O36 Cd0 2.268 1_556 S
O36 C10 1.238 1_445 S
O37 Cd1 2.273 . S
O37 C10 1.253 . S
O38 Cd1 2.268 1_554 S
O38 C27 1.238 1_665 S
O39 Cd0 2.273 . S
O39 C27 1.253 . S
O40 Cd0 2.417 1_556 S
O40 C28 1.239 . S
O41 Cd0 2.330 . S
O41 C28 1.230 1_554 S
O42 Cd1 2.417 1_554 S
O42 C35 1.239 . S
O43 Cd1 2.330 . S
O43 C35 1.230 1_556 S
H44 C30 0.929 . S
H45 C34 0.930 . S
H46 C4 0.931 . S
H47 C6 0.930 . S
H48 C12 0.929 . S
H49 C14 0.931 . S
H50 C21 0.931 . S
H51 C23 0.930 . S
H52 C31 0.929 . S
H53 C33 0.931 . S
C5 C13 1.982 1_654 S
C22 C32 1.982 1_546 S
C28 C35 0.541 1_556 S
C10 C27 1.487 1_665 S
