# Generated by pormake.
# Topology uon, (4)-cn, num edge types: 1
# Building blocks:
#     Node 0, Type 0, BuildingBlock: MUDLON_clean_sbu_0, # of connection points: 4
#     Node 1, Type 0, BuildingBlock: MUDLON_clean_sbu_0, # of connection points: 4
#     Node 2, Type 0, BuildingBlock: MUDLON_clean_sbu_0, # of connection points: 4
#     Node 3, Type 0, BuildingBlock: MUDLON_clean_sbu_0, # of connection points: 4
#     Node 4, Type 0, BuildingBlock: MUDLON_clean_sbu_0, # of connection points: 4
#     Node 5, Type 0, BuildingBlock: MUDLON_clean_sbu_0, # of connection points: 4
#     Edge 6, Type (0, 0), None
#     Edge 7, Type (0, 0), None
#     Edge 8, Type (0, 0), None
#     Edge 9, Type (0, 0), None
#     Edge 10, Type (0, 0), None
#     Edge 11, Type (0, 0), None
#     Edge 12, Type (0, 0), None
#     Edge 13, Type (0, 0), None
#     Edge 14, Type (0, 0), None
#     Edge 15, Type (0, 0), None
#     Edge 16, Type (0, 0), None
#     Edge 17, Type (0, 0), None
# Relax obj value: 0.138
# Max RMSD: 0.116
# Mean RMSD: 0.111
data_MOF--net-uon--node1-MUDLON_clean_sbu_0--edge1-none
_symmetry_space_group_name_H-M    P1
_symmetry_Int_Tables_number       1
_symmetry_cell_setting            triclinic
loop_
_symmetry_equiv_pos_as_xyz
'x, y, z'
_cell_length_a     17.082057
_cell_length_b     17.784015
_cell_length_c     7.4115928
_cell_angle_alpha  92.234317
_cell_angle_beta   84.644261
_cell_angle_gamma 120.40771
loop_
_atom_site_label
_atom_site_type_symbol
_atom_site_fract_x
_atom_site_fract_y
_atom_site_fract_z
_atom_type_partial_charge
Mg0 Mg 0.21905 0.39845 0.27779 0.0
C1 C 0.37335 0.52341 0.07418 0.0
O2 O 0.39356 0.52509 0.24155 0.0
C3 C 0.03438 0.31796 0.47354 0.0
O4 O 0.08625 0.36484 0.60124 0.0
C5 C 0.29515 0.28725 0.1819 0.0
O6 O 0.24644 0.28027 0.04846 0.0
O7 O 0.29281 0.33064 0.32165 0.0
O8 O 0.29523 0.4648 1.02882 0.0
O9 O 0.23797 0.51612 0.41426 0.0
C10 C 0.23005 0.56874 0.31495 0.0
O11 O 0.21008 0.54879 0.14666 0.0
O12 O 0.07118 0.31588 0.31642 0.0
Mg13 Mg 0.74952 0.21517 0.66682 0.0
C14 C 0.75254 0.36133 0.48265 0.0
O15 O 0.78744 0.39805 0.63434 0.0
C16 C 0.71843 0.04229 0.74694 0.0
O17 O 0.75465 0.08559 0.8924 0.0
C18 C 0.93475 0.27282 0.50972 0.0
O19 O 0.88314 0.22746 0.38043 0.0
O20 O 0.8973 0.28037 0.66161 0.0
O21 O 0.72841 0.28173 0.45604 0.0
O22 O 0.65233 0.20047 0.89607 0.0
C23 C 0.6579 0.18877 0.06093 0.0
O24 O 0.73389 0.19806 0.11147 0.0
O25 O 0.71005 0.08126 0.61612 0.0
Mg26 Mg 0.58793 0.76717 0.82944 0.0
C27 C 0.44049 0.78065 0.72299 0.0
O28 O 0.43343 0.78502 0.90053 0.0
C29 C 0.7268 0.7437 0.93163 0.0
O30 O 0.69665 0.77147 0.07319 0.0
C31 C 0.68166 0.94861 0.7419 0.0
O32 O 0.66802 0.90914 0.58486 0.0
O33 O 0.65606 0.9038 0.88796 0.0
O34 O 0.49971 0.76472 0.64256 0.0
O35 O 0.49467 0.66749 1.02045 0.0
C36 C 0.43581 0.59588 0.95369 0.0
O37 O 0.43096 0.58803 0.77764 0.0
O38 O 0.69446 0.73735 0.78016 0.0
Mg39 Mg 0.81273 0.57446 0.12052 0.0
C40 C 0.66327 0.46938 0.87791 0.0
O41 O 0.63645 0.52207 0.94932 0.0
C42 C 0.98801 0.69297 0.26277 0.0
O43 O 0.92883 0.68719 0.39604 0.0
C44 C 0.77894 0.70173 0.96014 0.0
O45 O 0.81647 0.68024 0.82024 0.0
O46 O 0.77056 0.66911 0.11547 0.0
O47 O 0.74079 0.48132 0.91038 0.0
O48 O 0.77455 0.49341 0.36154 0.0
C49 C 0.75535 0.41493 0.33463 0.0
O50 O 0.75124 0.38588 0.16844 0.0
O51 O 0.95954 0.65084 0.11711 0.0
Mg52 Mg 0.258 0.81831 0.45415 0.0
C53 C 0.23393 0.64695 0.39085 0.0
O54 O 0.1978 0.64337 0.55677 0.0
C55 C 0.31134 0.00565 0.50183 0.0
O56 O 0.22227 0.96907 0.5127 0.0
C57 C 0.08558 0.74221 0.28769 0.0
O58 O 0.14429 0.7504 0.15131 0.0
O59 O 0.11389 0.7712 0.44306 0.0
O60 O 0.26698 0.71682 0.29646 0.0
O61 O 0.3135 0.79746 0.68234 0.0
C62 C 0.38853 0.80396 0.61761 0.0
O63 O 0.41885 0.8299 0.44898 0.0
O64 O 0.34714 0.96029 0.44651 0.0
Mg65 Mg 0.47623 0.1948 0.90964 0.0
C66 C 0.57554 0.15137 0.18849 0.0
O67 O 0.57677 0.11902 0.34377 0.0
C68 C 0.36089 0.25655 0.15345 0.0
O69 O 0.4177 0.27075 0.27564 0.0
C70 C 0.36386 0.08769 0.60036 0.0
O71 O 0.32872 0.13798 0.63543 0.0
O72 O 0.42965 0.09895 0.68836 0.0
O73 O 0.50104 0.14399 0.1479 0.0
O74 O 0.59974 0.31821 0.84449 0.0
C75 C 0.59323 0.38452 0.81529 0.0
O76 O 0.51299 0.37343 0.79 0.0
O77 O 0.36945 0.22536 0.99967 0.0
loop_
_geom_bond_atom_site_label_1
_geom_bond_atom_site_label_2
_geom_bond_distance
_geom_bond_site_symmetry_2
_ccdc_geom_bond_type
Mg0 O7 2.141 . S
Mg0 O8 2.048 . S
Mg0 O9 2.048 . S
Mg0 O12 2.141 1_556 S
C1 O2 1.313 . S
C1 O8 1.195 . S
O2 C1 1.313 . S
C3 O4 1.245 . S
C3 O12 1.289 . S
O4 C3 1.245 . S
C5 O6 1.245 1_556 S
C5 O7 1.289 . S
O6 C5 1.245 1_554 S
O7 Mg0 2.141 . S
O7 C5 1.289 . S
O8 Mg0 2.048 . S
O8 C1 1.195 . S
O9 Mg0 2.048 . S
O9 C10 1.195 1_556 S
C10 O9 1.195 1_554 S
C10 O11 1.313 . S
O11 C10 1.313 . S
O12 Mg0 2.141 1_554 S
O12 C3 1.289 . S
Mg13 O20 2.141 . S
Mg13 O21 2.048 . S
Mg13 O22 2.048 . S
Mg13 O25 2.141 . S
C14 O15 1.313 . S
C14 O21 1.195 . S
O15 C14 1.313 . S
C16 O17 1.245 . S
C16 O25 1.289 . S
O17 C16 1.245 . S
C18 O19 1.245 1_655 S
C18 O20 1.289 . S
O19 C18 1.245 1_455 S
O20 Mg13 2.141 . S
O20 C18 1.289 . S
O21 Mg13 2.048 . S
O21 C14 1.195 . S
O22 Mg13 2.048 . S
O22 C23 1.195 . S
C23 O22 1.195 . S
C23 O24 1.313 1_556 S
O24 C23 1.313 1_554 S
O25 Mg13 2.141 . S
O25 C16 1.289 . S
Mg26 O33 2.141 . S
Mg26 O34 2.048 . S
Mg26 O35 2.048 . S
Mg26 O38 2.141 . S
C27 O28 1.313 . S
C27 O34 1.195 . S
O28 C27 1.313 . S
C29 O30 1.245 . S
C29 O38 1.289 . S
O30 C29 1.245 . S
C31 O32 1.245 . S
C31 O33 1.289 . S
O32 C31 1.245 . S
O33 Mg26 2.141 . S
O33 C31 1.289 . S
O34 Mg26 2.048 . S
O34 C27 1.195 . S
O35 Mg26 2.048 . S
O35 C36 1.195 . S
C36 O35 1.195 . S
C36 O37 1.313 . S
O37 C36 1.313 . S
O38 Mg26 2.141 . S
O38 C29 1.289 . S
Mg39 O46 2.141 . S
Mg39 O47 2.048 . S
Mg39 O48 2.048 . S
Mg39 O51 2.141 . S
C40 O41 1.313 . S
C40 O47 1.195 . S
O41 C40 1.313 . S
C42 O43 1.245 . S
C42 O51 1.289 . S
O43 C42 1.245 . S
C44 O45 1.245 . S
C44 O46 1.289 . S
O45 C44 1.245 . S
O46 Mg39 2.141 . S
O46 C44 1.289 . S
O47 Mg39 2.048 . S
O47 C40 1.195 . S
O48 Mg39 2.048 . S
O48 C49 1.195 . S
C49 O48 1.195 . S
C49 O50 1.313 . S
O50 C49 1.313 . S
O51 Mg39 2.141 . S
O51 C42 1.289 . S
Mg52 O59 2.141 . S
Mg52 O60 2.048 . S
Mg52 O61 2.048 . S
Mg52 O64 2.141 . S
C53 O54 1.313 . S
C53 O60 1.195 . S
O54 C53 1.313 . S
C55 O56 1.245 . S
C55 O64 1.289 . S
O56 C55 1.245 . S
C57 O58 1.245 . S
C57 O59 1.289 . S
O58 C57 1.245 . S
O59 Mg52 2.141 . S
O59 C57 1.289 . S
O60 Mg52 2.048 . S
O60 C53 1.195 . S
O61 Mg52 2.048 . S
O61 C62 1.195 . S
C62 O61 1.195 . S
C62 O63 1.313 . S
O63 C62 1.313 . S
O64 Mg52 2.141 . S
O64 C55 1.289 . S
Mg65 O72 2.141 . S
Mg65 O73 2.048 . S
Mg65 O74 2.048 1_556 S
Mg65 O77 2.141 . S
C66 O67 1.313 1_556 S
C66 O73 1.195 . S
O67 C66 1.313 1_554 S
C68 O69 1.245 . S
C68 O77 1.289 1_554 S
O69 C68 1.245 . S
C70 O71 1.245 1_545 S
C70 O72 1.289 . S
O71 C70 1.245 1_565 S
O72 Mg65 2.141 . S
O72 C70 1.289 . S
O73 Mg65 2.048 . S
O73 C66 1.195 . S
O74 Mg65 2.048 1_554 S
O74 C75 1.195 . S
C75 O74 1.195 . S
C75 O76 1.313 . S
O76 C75 1.313 . S
O77 Mg65 2.141 . S
O77 C68 1.289 1_556 S
C5 C68 2.097 1_556 S
C18 C3 2.171 1_655 S
C16 C31 2.394 1_545 S
C44 C29 2.181 1_554 S
C42 C57 2.392 1_655 S
C70 C55 2.164 1_545 S
C53 C10 1.757 . S
C66 C23 1.971 . S
C36 C1 1.865 . S
C49 C14 2.071 . S
C62 C27 1.854 . S
C75 C40 2.077 . S
