# Generated by pormake.
# Topology cds, (4)-cn, num edge types: 1
# Building blocks:
#     Node 0, Type 0, BuildingBlock: KOZSID_clean_sbu_0, # of connection points: 4
#     Node 1, Type 0, BuildingBlock: KOZSID_clean_sbu_0, # of connection points: 4
#     Edge 2, Type (0, 0), BuildingBlock: TEMPAE_clean_linker_10, # of connection points: 2
#     Edge 3, Type (0, 0), BuildingBlock: TEMPAE_clean_linker_10, # of connection points: 2
#     Edge 4, Type (0, 0), BuildingBlock: TEMPAE_clean_linker_10, # of connection points: 2
#     Edge 5, Type (0, 0), BuildingBlock: TEMPAE_clean_linker_10, # of connection points: 2
# Relax obj value: 0.000
# Max RMSD: 0.000
# Mean RMSD: 0.000
data_MOF--net-cds--node1-KOZSID_clean_sbu_0--edge1-TEMPAE_clean_linker_10
_symmetry_space_group_name_H-M    P1
_symmetry_Int_Tables_number       1
_symmetry_cell_setting            triclinic
loop_
_symmetry_equiv_pos_as_xyz
'x, y, z'
_cell_length_a     16.773355
_cell_length_b     19.781663
_cell_length_c     36.690147
_cell_angle_alpha  106.53157
_cell_angle_beta   107.03928
_cell_angle_gamma 86.58659
loop_
_atom_site_label
_atom_site_type_symbol
_atom_site_fract_x
_atom_site_fract_y
_atom_site_fract_z
_atom_type_partial_charge
C0 C 0.17645 0.07555 0.03572 0.0
C1 C 0.21563 0.14099 0.05616 0.0
C2 C 0.1541 0.18916 0.05744 0.0
C3 C 0.08116 0.15048 0.03836 0.0
N4 N 0.09242 0.08041 0.02534 0.0
Co5 Co 0.00363 1.00443 0.9999 0.0
N6 N 0.91378 0.07562 0.99903 0.0
C7 C 0.92342 0.14652 0.00897 0.0
C8 C 0.8495 0.18116 0.00337 0.0
C9 C 0.78918 0.12926 0.98982 0.0
C10 C 0.83023 0.06592 0.98856 0.0
N11 N 0.91413 0.92844 0.97656 0.0
C12 C 0.83142 0.93329 0.9733 0.0
C13 C 0.79332 0.86696 0.96174 0.0
C14 C 0.85375 0.8188 0.95735 0.0
C15 C 0.92526 0.85801 0.96707 0.0
N16 N 0.09396 0.93328 0.99875 0.0
C17 C 0.08334 0.86248 0.98349 0.0
C18 C 0.15556 0.82759 0.98186 0.0
C19 C 0.21616 0.87909 0.99649 0.0
C20 C 0.17745 0.94295 0.00709 0.0
N21 N 0.00366 1.00148 0.05354 0.0
C22 C 0.99806 0.99604 0.12863 0.0
C23 C 0.01764 0.93655 0.10177 0.0
C24 C 0.01952 0.94024 0.06457 0.0
C25 C 0.98185 0.05843 0.11745 0.0
C26 C 0.98565 0.06016 0.08021 0.0
N27 N 0.00346 1.00749 0.94617 0.0
C28 C 0.99676 0.94794 0.87781 0.0
C29 C 0.00599 0.01202 0.87057 0.0
C30 C 0.01385 0.07378 0.90147 0.0
C31 C 0.01349 0.07029 0.9389 0.0
C32 C 0.99462 0.94694 0.91545 0.0
H33 H 0.02195 0.11911 0.96151 0.0
H34 H 0.9859 0.89656 0.91892 0.0
H35 H 0.03324 0.89265 0.04514 0.0
H36 H 0.97345 0.10957 0.07363 0.0
C37 C 0.00201 0.17891 0.02879 0.0
C38 C 0.22164 0.01154 0.02391 0.0
C39 C 0.78843 0.99963 0.98286 0.0
C40 C 0.00445 0.83035 0.9702 0.0
H41 H 0.28196 0.15294 0.06773 0.0
H42 H 0.16174 0.24584 0.06965 0.0
H43 H 0.84058 0.23754 0.01045 0.0
H44 H 0.72271 0.1373 0.98387 0.0
H45 H 0.72943 0.85373 0.9581 0.0
H46 H 0.84706 0.76198 0.94975 0.0
H47 H 0.16299 0.7715 0.97039 0.0
H48 H 0.28097 0.86973 0.99803 0.0
H49 H 0.02997 0.88691 0.10913 0.0
H50 H 0.96728 0.10603 0.13757 0.0
H51 H 0.99008 0.89893 0.85436 0.0
H52 H 0.02163 0.12447 0.89691 0.0
C53 C 0.08527 0.03431 0.5886 0.0
C54 C 0.16421 0.04078 0.61561 0.0
C55 C 0.22016 0.03461 0.59446 0.0
C56 C 0.17268 0.02425 0.55588 0.0
N57 N 0.08952 0.02421 0.55105 0.0
Co58 Co 0.99813 1.00609 0.49948 0.0
N59 N 0.08092 0.9893 0.46813 0.0
C60 C 0.16501 0.98971 0.48248 0.0
C61 C 0.20539 0.9765 0.45378 0.0
C62 C 0.1435 0.96813 0.41898 0.0
C63 C 0.06868 0.97733 0.42861 0.0
N64 N 0.90675 0.98866 0.44793 0.0
C65 C 0.91111 0.97845 0.41039 0.0
C66 C 0.83228 0.97305 0.38339 0.0
C67 C 0.7762 0.98022 0.40456 0.0
C68 C 0.82358 0.99002 0.44313 0.0
N69 N 0.91534 0.02216 0.53081 0.0
C70 C 0.8312 0.02068 0.51641 0.0
C71 C 0.7908 0.03296 0.54506 0.0
C72 C 0.85273 0.04156 0.57986 0.0
C73 C 0.92762 0.03346 0.57029 0.0
N74 N 0.99899 0.10837 0.50266 0.0
C75 C 0.9994 0.25164 0.50316 0.0
C76 C 0.92508 0.21548 0.49647 0.0
C77 C 0.92627 0.14463 0.4963 0.0
C78 C 0.07367 0.21502 0.51022 0.0
C79 C 0.0721 0.14424 0.51001 0.0
N80 N 0.99727 0.90384 0.49629 0.0
C81 C 0.92198 0.79577 0.48565 0.0
C82 C 0.99649 0.76069 0.49594 0.0
C83 C 0.07129 0.79829 0.50568 0.0
C84 C 0.07027 0.86895 0.50555 0.0
C85 C 0.92379 0.86665 0.48604 0.0
H86 H 0.12947 0.8943 0.51336 0.0
H87 H 0.86489 0.89045 0.47842 0.0
H88 H 0.86735 0.12019 0.49046 0.0
H89 H 0.13084 0.11956 0.5156 0.0
C90 C 0.20432 1.00722 0.52326 0.0
C91 C 0.00833 0.03395 0.59958 0.0
C92 C 0.98813 0.97736 0.39936 0.0
C93 C 0.79191 1.00519 0.47568 0.0
H94 H 0.18025 0.04702 0.64717 0.0
H95 H 0.28748 0.0346 0.60566 0.0
H96 H 0.27196 0.97499 0.45778 0.0
H97 H 0.15249 0.958 0.38988 0.0
H98 H 0.81657 0.96655 0.35181 0.0
H99 H 0.70891 0.98059 0.39334 0.0
H100 H 0.72422 0.03412 0.54104 0.0
H101 H 0.84372 0.0513 0.60893 0.0
H102 H 0.86574 0.24122 0.49049 0.0
H103 H 0.13309 0.24093 0.51618 0.0
H104 H 0.8623 0.76918 0.47813 0.0
H105 H 0.13074 0.77325 0.5132 0.0
C106 C 0.92648 0.02018 0.18191 0.0
C107 C 0.99466 0.99305 0.16807 0.0
C108 C 0.92237 0.01741 0.21914 0.0
C109 C 0.98863 0.98775 0.24328 0.0
C110 C 0.05779 0.96057 0.22949 0.0
C111 C 0.05967 0.96308 0.19191 0.0
C112 C 0.84704 0.04596 0.23257 0.0
C113 C 0.13021 0.92949 0.25462 0.0
C114 C 0.01776 0.04022 0.35443 0.0
C115 C 0.98548 0.98055 0.35904 0.0
C116 C 0.01901 0.04337 0.31688 0.0
C117 C 0.98616 0.98571 0.28317 0.0
C118 C 0.95251 0.92561 0.28772 0.0
C119 C 0.95345 0.92344 0.32576 0.0
C120 C 0.05649 0.10792 0.31336 0.0
C121 C 0.91601 0.8635 0.25246 0.0
H122 H 0.87575 0.04269 0.16331 0.0
H123 H 0.11278 0.94269 0.18139 0.0
H124 H 0.81718 1.00414 0.23923 0.0
H125 H 0.86644 0.08967 0.26035 0.0
H126 H 0.79998 0.0658 0.20987 0.0
H127 H 0.17955 0.91113 0.23968 0.0
H128 H 0.15817 0.96939 0.28328 0.0
H129 H 0.10807 0.88422 0.26158 0.0
H130 H 0.04285 0.08411 0.3804 0.0
H131 H 0.92928 0.87712 0.32962 0.0
H132 H 0.00959 0.13217 0.29283 0.0
H133 H 0.10949 0.09264 0.30062 0.0
H134 H 0.07924 0.1482 0.34248 0.0
H135 H 0.86634 0.88131 0.22988 0.0
H136 H 0.88919 0.82216 0.26085 0.0
H137 H 0.96494 0.83967 0.2383 0.0
C138 C 0.07273 0.98441 0.81578 0.0
C139 C 0.00736 0.01455 0.83095 0.0
C140 C 0.07563 0.98775 0.77847 0.0
C141 C 0.01038 0.02037 0.75552 0.0
C142 C 0.94359 0.05 0.77065 0.0
C143 C 0.94351 0.04756 0.80851 0.0
C144 C 0.14881 0.95704 0.76377 0.0
C145 C 0.87191 0.08371 0.74672 0.0
C146 C 0.04492 0.0862 0.67342 0.0
C147 C 0.01125 0.03004 0.63984 0.0
C148 C 0.04683 0.08308 0.71142 0.0
C149 C 0.0117 0.02333 0.71562 0.0
C150 C 0.97658 0.96688 0.6816 0.0
C151 C 0.9776 0.97063 0.64412 0.0
C152 C 0.08631 0.14369 0.74703 0.0
C153 C 0.93683 0.90302 0.6847 0.0
H154 H 0.12224 0.95931 0.83348 0.0
H155 H 0.89291 0.07053 0.82041 0.0
H156 H 0.12685 0.91428 0.73572 0.0
H157 H 0.17991 0.99823 0.75716 0.0
H158 H 0.19555 0.93534 0.78572 0.0
H159 H 0.82362 0.10239 0.76229 0.0
H160 H 0.8952 0.12923 0.74043 0.0
H161 H 0.84228 0.04534 0.7177 0.0
H162 H 0.06996 0.13243 0.66986 0.0
H163 H 0.95114 0.92749 0.61795 0.0
H164 H 0.13546 0.12397 0.76898 0.0
H165 H 0.03882 0.16873 0.76187 0.0
H166 H 0.11454 0.18456 0.73887 0.0
H167 H 0.98322 0.87659 0.70423 0.0
H168 H 0.91138 0.86413 0.65531 0.0
H169 H 0.88542 0.91957 0.69843 0.0
C170 C 0.63683 0.96603 0.96351 0.0
C171 C 0.70758 1.00192 0.99198 0.0
C172 C 0.56081 0.96793 0.97229 0.0
C173 C 0.55384 0.01194 0.00909 0.0
C174 C 0.62424 0.05106 0.03728 0.0
C175 C 0.70103 0.0437 0.02886 0.0
C176 C 0.48811 0.92293 0.94211 0.0
C177 C 0.61782 0.10258 0.07553 0.0
C178 C 0.32999 0.05971 0.00312 0.0
C179 C 0.30965 0.01757 0.02415 0.0
C180 C 0.41135 0.06258 1.00067 0.0
C181 C 0.47199 0.01845 0.0173 0.0
C182 C 0.45225 0.97699 0.03935 0.0
C183 C 0.37203 0.97959 0.04398 0.0
C184 C 0.43146 0.11126 0.97927 0.0
C185 C 0.51371 0.92638 0.0557 0.0
H186 H 0.64104 0.93616 0.9344 0.0
H187 H 0.75575 0.0723 0.05068 0.0
H188 H 0.45733 0.89466 0.9567 0.0
H189 H 0.44104 0.9568 0.9282 0.0
H190 H 0.50771 0.88348 0.91822 0.0
H191 H 0.6783 0.13011 0.09379 0.0
H192 H 0.57095 0.14267 0.06873 0.0
H193 H 0.5961 0.07511 0.09344 0.0
H194 H 0.28189 0.08985 0.98818 0.0
H195 H 0.35654 0.94865 0.06118 0.0
H196 H 0.43418 0.08037 0.9493 0.0
H197 H 0.49323 0.13798 0.99555 0.0
H198 H 0.38359 0.15206 0.97573 0.0
H199 H 0.52901 0.88616 0.0308 0.0
H200 H 0.48886 0.89889 0.07275 0.0
H201 H 0.57282 0.95439 0.07527 0.0
C202 C 0.93996 0.63567 0.467 0.0
C203 C 0.99643 0.68582 0.49695 0.0
C204 C 0.9397 0.56491 0.4676 0.0
C205 C 0.99706 0.54365 0.499 0.0
C206 C 0.05397 0.59405 0.5294 0.0
C207 C 0.05303 0.66437 0.52799 0.0
C208 C 0.87827 0.51279 0.43452 0.0
C209 C 0.11579 0.57374 0.56352 0.0
C210 C 0.94821 0.37554 0.5203 0.0
C211 C 0.99924 0.32663 0.50237 0.0
C212 C 0.94691 0.44622 0.51945 0.0
C213 C 0.99763 0.46869 0.50007 0.0
C214 C 0.04922 0.4196 0.48187 0.0
C215 C 0.04952 0.34931 0.48331 0.0
C216 C 0.89145 0.49694 0.53943 0.0
C217 C 0.10387 0.44127 0.46072 0.0
H218 H 0.89667 0.65155 0.44268 0.0
H219 H 0.09605 0.7029 0.55157 0.0
H220 H 0.91221 0.46951 0.41914 0.0
H221 H 0.83817 0.48857 0.44693 0.0
H222 H 0.83766 0.53769 0.41231 0.0
H223 H 0.15579 0.61919 0.58483 0.0
H224 H 0.08222 0.55181 0.57974 0.0
H225 H 0.15648 0.53188 0.55208 0.0
H226 H 0.90992 0.35872 0.53549 0.0
H227 H 0.08825 0.3117 0.4689 0.0
H228 H 0.84673 0.51995 0.51752 0.0
H229 H 0.92965 0.54122 0.56282 0.0
H230 H 0.85568 0.47117 0.55318 0.0
H231 H 0.06498 0.46218 0.43638 0.0
H232 H 0.1402 0.39674 0.44798 0.0
H233 H 0.14806 0.48424 0.48161 0.0
loop_
_geom_bond_atom_site_label_1
_geom_bond_atom_site_label_2
_geom_bond_distance
_geom_bond_site_symmetry_2
_ccdc_geom_bond_type
C0 C1 1.443 . S
C0 N4 1.376 . S
C0 C38 1.389 . S
C1 C0 1.443 . S
C1 C2 1.340 . S
C1 H41 0.951 . S
C2 C1 1.340 . S
C2 C3 1.439 . S
C2 H42 0.950 . S
C3 C2 1.439 . S
C3 N4 1.374 . S
C3 C37 1.394 1_455 S
N4 C0 1.376 . S
N4 C3 1.374 . S
N4 Co5 2.007 . S
Co5 N4 2.007 . S
Co5 N6 1.998 1_455 S
Co5 N11 2.009 1_444 S
Co5 N16 1.992 1_544 S
Co5 N21 2.301 . S
Co5 N27 2.264 1_444 S
N6 Co5 1.998 1_655 S
N6 C7 1.376 . S
N6 C10 1.383 . S
C7 N6 1.376 . S
C7 C8 1.446 . S
C7 C37 1.392 . S
C8 C7 1.446 . S
C8 C9 1.339 . S
C8 H43 0.949 . S
C9 C8 1.339 . S
C9 C10 1.439 . S
C9 H44 0.950 . S
C10 N6 1.383 . S
C10 C9 1.439 . S
C10 C39 1.388 1_544 S
N11 Co5 2.009 1_666 S
N11 C12 1.376 . S
N11 C15 1.374 . S
C12 N11 1.376 . S
C12 C13 1.443 . S
C12 C39 1.399 . S
C13 C12 1.443 . S
C13 C14 1.340 . S
C13 H45 0.951 . S
C14 C13 1.340 . S
C14 C15 1.439 . S
C14 H46 0.950 . S
C15 N11 1.374 . S
C15 C14 1.439 . S
C15 C40 1.388 1_655 S
N16 Co5 1.992 1_566 S
N16 C17 1.376 . S
N16 C20 1.383 . S
C17 N16 1.376 . S
C17 C18 1.446 . S
C17 C40 1.398 . S
C18 C17 1.446 . S
C18 C19 1.339 . S
C18 H47 0.949 . S
C19 C18 1.339 . S
C19 C20 1.439 . S
C19 H48 0.950 . S
C20 N16 1.383 . S
C20 C19 1.439 . S
C20 C38 1.392 1_566 S
N21 Co5 2.301 . S
N21 C24 1.332 1_545 S
N21 C26 1.332 1_455 S
C22 C23 1.375 1_545 S
C22 C25 1.405 1_455 S
C23 C22 1.375 1_565 S
C23 C24 1.382 . S
C23 H49 0.950 . S
C24 N21 1.332 1_565 S
C24 C23 1.382 . S
C24 H35 0.952 . S
C25 C22 1.405 1_655 S
C25 C26 1.382 . S
C25 H50 0.950 . S
C26 N21 1.332 1_655 S
C26 C25 1.382 . S
C26 H36 0.948 . S
N27 Co5 2.264 1_666 S
N27 C31 1.332 1_565 S
N27 C32 1.332 1_655 S
C28 C29 1.395 1_455 S
C28 C32 1.382 . S
C28 H51 0.950 . S
C29 C28 1.395 1_655 S
C29 C30 1.381 1_565 S
C30 C29 1.381 1_545 S
C30 C31 1.382 . S
C30 H52 0.950 . S
C31 N27 1.332 1_545 S
C31 C30 1.382 . S
C31 H33 0.952 . S
C32 N27 1.332 1_455 S
C32 C28 1.382 . S
C32 H34 0.948 . S
H33 C31 0.952 . S
H34 C32 0.948 . S
H35 C24 0.952 . S
H36 C26 0.948 . S
C37 C3 1.394 1_655 S
C37 C7 1.392 . S
C38 C0 1.389 . S
C38 C20 1.392 1_544 S
C39 C10 1.388 1_566 S
C39 C12 1.399 . S
C40 C15 1.388 1_455 S
C40 C17 1.398 . S
H41 C1 0.951 . S
H42 C2 0.950 . S
H43 C8 0.949 . S
H44 C9 0.950 . S
H45 C13 0.951 . S
H46 C14 0.950 . S
H47 C18 0.949 . S
H48 C19 0.950 . S
H49 C23 0.950 . S
H50 C25 0.950 . S
H51 C28 0.950 . S
H52 C30 0.950 . S
C53 C54 1.446 . S
C53 N57 1.374 1_565 S
C53 C91 1.389 1_565 S
C54 C53 1.446 . S
C54 C55 1.340 . S
C54 H94 0.951 . S
C55 C54 1.340 . S
C55 C56 1.439 . S
C55 H95 0.950 . S
C56 C55 1.439 . S
C56 N57 1.374 1_565 S
C56 C90 1.395 . S
N57 C53 1.374 1_545 S
N57 C56 1.374 1_545 S
N57 Co58 2.008 . S
Co58 N57 2.008 . S
Co58 N59 1.996 1_545 S
Co58 N64 2.008 1_445 S
Co58 N69 1.993 1_455 S
Co58 N74 2.286 . S
Co58 N80 2.279 1_445 S
N59 Co58 1.996 1_565 S
N59 C60 1.376 . S
N59 C63 1.383 . S
C60 N59 1.376 . S
C60 C61 1.446 . S
C60 C90 1.391 . S
C61 C60 1.446 . S
C61 C62 1.339 . S
C61 H96 0.949 . S
C62 C61 1.339 . S
C62 C63 1.439 . S
C62 H97 0.950 . S
C63 N59 1.383 . S
C63 C62 1.439 . S
C63 C92 1.383 1_455 S
N64 Co58 2.008 1_665 S
N64 C65 1.376 1_565 S
N64 C68 1.374 1_565 S
C65 N64 1.376 1_545 S
C65 C66 1.443 . S
C65 C92 1.401 1_545 S
C66 C65 1.443 . S
C66 C67 1.340 . S
C66 H98 0.951 . S
C67 C66 1.340 . S
C67 C68 1.439 . S
C67 H99 0.950 . S
C68 N64 1.374 1_545 S
C68 C67 1.439 . S
C68 C93 1.395 . S
N69 Co58 1.993 1_655 S
N69 C70 1.376 . S
N69 C73 1.383 . S
C70 N69 1.376 . S
C70 C71 1.446 . S
C70 C93 1.391 . S
C71 C70 1.446 . S
C71 C72 1.339 . S
C71 H100 0.949 . S
C72 C71 1.339 . S
C72 C73 1.439 . S
C72 H101 0.950 . S
C73 N69 1.383 . S
C73 C72 1.439 . S
C73 C91 1.392 1_655 S
N74 Co58 2.286 . S
N74 C77 1.332 1_455 S
N74 C79 1.332 . S
C75 C76 1.386 1_455 S
C75 C78 1.388 . S
C76 C75 1.386 1_655 S
C76 C77 1.382 . S
C76 H102 0.950 . S
C77 N74 1.332 1_655 S
C77 C76 1.382 . S
C77 H88 0.952 . S
C78 C75 1.388 . S
C78 C79 1.382 . S
C78 H103 0.950 . S
C79 N74 1.332 . S
C79 C78 1.382 . S
C79 H89 0.948 . S
N80 Co58 2.279 1_665 S
N80 C84 1.332 1_655 S
N80 C85 1.332 . S
C81 C82 1.396 . S
C81 C85 1.382 . S
C81 H104 0.950 . S
C82 C81 1.396 . S
C82 C83 1.377 1_655 S
C83 C82 1.377 1_455 S
C83 C84 1.382 . S
C83 H105 0.950 . S
C84 N80 1.332 1_455 S
C84 C83 1.382 . S
C84 H86 0.952 . S
C85 N80 1.332 . S
C85 C81 1.382 . S
C85 H87 0.948 . S
H86 C84 0.952 . S
H87 C85 0.948 . S
H88 C77 0.952 . S
H89 C79 0.948 . S
C90 C56 1.395 . S
C90 C60 1.391 . S
C91 C53 1.389 1_545 S
C91 C73 1.392 1_455 S
C92 C63 1.383 1_655 S
C92 C65 1.401 1_565 S
C93 C68 1.395 . S
C93 C70 1.391 . S
H94 C54 0.951 . S
H95 C55 0.950 . S
H96 C61 0.949 . S
H97 C62 0.950 . S
H98 C66 0.951 . S
H99 C67 0.950 . S
H100 C71 0.949 . S
H101 C72 0.950 . S
H102 C76 0.950 . S
H103 C78 0.950 . S
H104 C81 0.950 . S
H105 C83 0.950 . S
C106 C107 1.398 . S
C106 C108 1.394 . S
C106 H122 0.931 . S
C107 C106 1.398 . S
C107 C111 1.371 1_655 S
C108 C106 1.394 . S
C108 C109 1.369 . S
C108 C112 1.531 . S
C109 C108 1.369 . S
C109 C110 1.410 1_655 S
C109 C117 1.503 . S
C110 C109 1.410 1_455 S
C110 C111 1.392 . S
C110 C113 1.511 . S
C111 C107 1.371 1_455 S
C111 C110 1.392 . S
C111 H123 0.929 . S
C112 C108 1.531 . S
C112 H124 0.960 . S
C112 H125 0.962 1_565 S
C112 H126 0.960 . S
C113 C110 1.511 . S
C113 H127 0.961 . S
C113 H128 0.961 . S
C113 H129 0.961 . S
C114 C115 1.371 1_545 S
C114 C116 1.363 . S
C114 H130 0.931 . S
C115 C114 1.371 1_565 S
C115 C119 1.409 1_455 S
C116 C114 1.363 . S
C116 C117 1.370 1_445 S
C116 C120 1.524 . S
C117 C109 1.503 . S
C117 C116 1.370 1_665 S
C117 C118 1.403 . S
C118 C117 1.403 . S
C118 C119 1.404 . S
C118 C121 1.539 . S
C119 C115 1.409 1_655 S
C119 C118 1.404 . S
C119 H131 0.930 . S
C120 C116 1.524 . S
C120 H132 0.956 1_455 S
C120 H133 0.961 . S
C120 H134 0.961 . S
C121 C118 1.539 . S
C121 H135 0.958 . S
C121 H136 0.961 1_655 S
C121 H137 0.960 1_655 S
H122 C106 0.931 . S
H123 C111 0.929 . S
H124 C112 0.960 . S
H125 C112 0.962 1_545 S
H126 C112 0.960 . S
H127 C113 0.961 . S
H128 C113 0.961 . S
H129 C113 0.961 . S
H130 C114 0.931 . S
H131 C119 0.930 . S
H132 C120 0.956 1_655 S
H133 C120 0.961 . S
H134 C120 0.961 . S
H135 C121 0.958 . S
H136 C121 0.961 1_455 S
H137 C121 0.960 1_455 S
C138 C139 1.391 1_455 S
C138 C140 1.394 . S
C138 H154 0.931 . S
C139 C138 1.391 1_655 S
C139 C143 1.376 1_565 S
C140 C138 1.394 . S
C140 C141 1.369 1_455 S
C140 C144 1.531 . S
C141 C140 1.369 1_655 S
C141 C142 1.410 1_565 S
C141 C149 1.503 . S
C142 C141 1.410 1_545 S
C142 C143 1.392 . S
C142 C145 1.511 . S
C143 C139 1.376 1_545 S
C143 C142 1.392 . S
C143 H155 0.929 . S
C144 C140 1.531 . S
C144 H156 0.960 . S
C144 H157 0.962 . S
C144 H158 0.960 . S
C145 C142 1.511 . S
C145 H159 0.961 . S
C145 H160 0.961 . S
C145 H161 0.961 . S
C146 C147 1.370 1_445 S
C146 C148 1.363 . S
C146 H162 0.931 . S
C147 C146 1.370 1_665 S
C147 C151 1.408 . S
C148 C146 1.363 . S
C148 C149 1.370 1_445 S
C148 C152 1.524 . S
C149 C141 1.503 . S
C149 C148 1.370 1_665 S
C149 C150 1.403 . S
C150 C149 1.403 . S
C150 C151 1.404 . S
C150 C153 1.539 . S
C151 C147 1.408 . S
C151 C150 1.404 . S
C151 H163 0.930 . S
C152 C148 1.524 . S
C152 H164 0.956 . S
C152 H165 0.961 . S
C152 H166 0.961 . S
C153 C150 1.539 . S
C153 H167 0.958 . S
C153 H168 0.961 . S
C153 H169 0.960 . S
H154 C138 0.931 . S
H155 C143 0.929 . S
H156 C144 0.960 . S
H157 C144 0.962 . S
H158 C144 0.960 . S
H159 C145 0.961 . S
H160 C145 0.961 . S
H161 C145 0.961 . S
H162 C146 0.931 . S
H163 C151 0.930 . S
H164 C152 0.956 . S
H165 C152 0.961 . S
H166 C152 0.961 . S
H167 C153 0.958 . S
H168 C153 0.961 . S
H169 C153 0.960 . S
C170 C171 1.378 1_566 S
C170 C172 1.390 1_556 S
C170 H186 0.931 . S
C171 C170 1.378 1_544 S
C171 C175 1.390 . S
C172 C170 1.390 1_554 S
C172 C173 1.369 1_565 S
C172 C176 1.531 1_554 S
C173 C172 1.369 1_545 S
C173 C174 1.410 . S
C173 C181 1.503 . S
C174 C173 1.410 . S
C174 C175 1.392 . S
C174 C177 1.511 . S
C175 C171 1.390 . S
C175 C174 1.392 . S
C175 H187 0.929 . S
C176 C172 1.531 1_556 S
C176 H188 0.960 1_556 S
C176 H189 0.962 . S
C176 H190 0.960 1_556 S
C177 C174 1.511 . S
C177 H191 0.961 . S
C177 H192 0.961 . S
C177 H193 0.961 . S
C178 C179 1.373 1_566 S
C178 C180 1.363 . S
C178 H194 0.931 . S
C179 C178 1.373 1_544 S
C179 C183 1.406 . S
C180 C178 1.363 . S
C180 C181 1.370 1_566 S
C180 C184 1.524 . S
C181 C173 1.503 . S
C181 C180 1.370 1_544 S
C181 C182 1.403 . S
C182 C181 1.403 . S
C182 C183 1.404 . S
C182 C185 1.539 . S
C183 C179 1.406 . S
C183 C182 1.404 . S
C183 H195 0.930 . S
C184 C180 1.524 . S
C184 H196 0.956 . S
C184 H197 0.961 1_565 S
C184 H198 0.961 . S
C185 C182 1.539 . S
C185 H199 0.958 1_545 S
C185 H200 0.961 . S
C185 H201 0.960 . S
H186 C170 0.931 . S
H187 C175 0.929 . S
H188 C176 0.960 1_554 S
H189 C176 0.962 . S
H190 C176 0.960 1_554 S
H191 C177 0.961 . S
H192 C177 0.961 . S
H193 C177 0.961 . S
H194 C178 0.931 . S
H195 C183 0.930 . S
H196 C184 0.956 . S
H197 C184 0.961 1_545 S
H198 C184 0.961 . S
H199 C185 0.958 1_565 S
H200 C185 0.961 . S
H201 C185 0.960 . S
C202 C203 1.391 1_655 S
C202 C204 1.394 . S
C202 H218 0.931 . S
C203 C202 1.391 1_455 S
C203 C207 1.376 . S
C204 C202 1.394 . S
C204 C205 1.369 1_655 S
C204 C208 1.531 . S
C205 C204 1.369 1_455 S
C205 C206 1.410 . S
C205 C213 1.503 . S
C206 C205 1.410 . S
C206 C207 1.392 . S
C206 C209 1.511 . S
C207 C203 1.376 . S
C207 C206 1.392 . S
C207 H219 0.929 . S
C208 C204 1.531 . S
C208 H220 0.960 . S
C208 H221 0.962 . S
C208 H222 0.960 . S
C209 C206 1.511 . S
C209 H223 0.961 . S
C209 H224 0.961 . S
C209 H225 0.961 . S
C210 C211 1.370 1_655 S
C210 C212 1.363 . S
C210 H226 0.931 . S
C211 C210 1.370 1_455 S
C211 C215 1.408 . S
C212 C210 1.363 . S
C212 C213 1.370 1_655 S
C212 C216 1.524 . S
C213 C205 1.503 . S
C213 C212 1.370 1_455 S
C213 C214 1.403 . S
C214 C213 1.403 . S
C214 C215 1.404 . S
C214 C217 1.539 . S
C215 C211 1.408 . S
C215 C214 1.404 . S
C215 H227 0.930 . S
C216 C212 1.524 . S
C216 H228 0.956 . S
C216 H229 0.961 . S
C216 H230 0.961 . S
C217 C214 1.539 . S
C217 H231 0.958 . S
C217 H232 0.961 . S
C217 H233 0.960 . S
H218 C202 0.931 . S
H219 C207 0.929 . S
H220 C208 0.960 . S
H221 C208 0.962 . S
H222 C208 0.960 . S
H223 C209 0.961 . S
H224 C209 0.961 . S
H225 C209 0.961 . S
H226 C210 0.931 . S
H227 C215 0.930 . S
H228 C216 0.956 . S
H229 C216 0.961 . S
H230 C216 0.961 . S
H231 C217 0.958 . S
H232 C217 0.961 . S
H233 C217 0.960 . S
C107 C22 1.487 1_665 S
C115 C92 1.492 1_455 S
C139 C29 1.491 . S
C147 C91 1.500 1_665 S
C171 C39 1.492 1_544 S
C179 C38 1.496 . S
C203 C82 1.493 1_455 S
C211 C75 1.499 . S
