# Generated by pormake.
# Topology uni, (4)-cn, num edge types: 1
# Building blocks:
#     Node 0, Type 0, BuildingBlock: GALJAG_clean_sbu_0, # of connection points: 4
#     Node 1, Type 0, BuildingBlock: GALJAG_clean_sbu_0, # of connection points: 4
#     Node 2, Type 0, BuildingBlock: GALJAG_clean_sbu_0, # of connection points: 4
#     Node 3, Type 0, BuildingBlock: GALJAG_clean_sbu_0, # of connection points: 4
#     Node 4, Type 0, BuildingBlock: GALJAG_clean_sbu_0, # of connection points: 4
#     Node 5, Type 0, BuildingBlock: GALJAG_clean_sbu_0, # of connection points: 4
#     Edge 6, Type (0, 0), BuildingBlock: OJICUG_clean_linker_0, # of connection points: 2
#     Edge 7, Type (0, 0), BuildingBlock: OJICUG_clean_linker_0, # of connection points: 2
#     Edge 8, Type (0, 0), BuildingBlock: OJICUG_clean_linker_0, # of connection points: 2
#     Edge 9, Type (0, 0), BuildingBlock: OJICUG_clean_linker_0, # of connection points: 2
#     Edge 10, Type (0, 0), BuildingBlock: OJICUG_clean_linker_0, # of connection points: 2
#     Edge 11, Type (0, 0), BuildingBlock: OJICUG_clean_linker_0, # of connection points: 2
#     Edge 12, Type (0, 0), BuildingBlock: OJICUG_clean_linker_0, # of connection points: 2
#     Edge 13, Type (0, 0), BuildingBlock: OJICUG_clean_linker_0, # of connection points: 2
#     Edge 14, Type (0, 0), BuildingBlock: OJICUG_clean_linker_0, # of connection points: 2
#     Edge 15, Type (0, 0), BuildingBlock: OJICUG_clean_linker_0, # of connection points: 2
#     Edge 16, Type (0, 0), BuildingBlock: OJICUG_clean_linker_0, # of connection points: 2
#     Edge 17, Type (0, 0), BuildingBlock: OJICUG_clean_linker_0, # of connection points: 2
# Relax obj value: 0.070
# Max RMSD: 0.134
# Mean RMSD: 0.134
data_MOF--net-uni--node1-GALJAG_clean_sbu_0--edge1-OJICUG_clean_linker_0
_symmetry_space_group_name_H-M    P1
_symmetry_Int_Tables_number       1
_symmetry_cell_setting            triclinic
loop_
_symmetry_equiv_pos_as_xyz
'x, y, z'
_cell_length_a     28.403203
_cell_length_b     27.915673
_cell_length_c     17.981926
_cell_angle_alpha  89.813832
_cell_angle_beta   90.04328
_cell_angle_gamma 121.42144
loop_
_atom_site_label
_atom_site_type_symbol
_atom_site_fract_x
_atom_site_fract_y
_atom_site_fract_z
_atom_type_partial_charge
In0 In 0.62084 0.01325 0.07175 0.0
O1 O 0.55683 0.96625 0.98015 0.0
O2 O 0.58993 0.05382 0.99079 0.0
C3 C 0.63763 0.92919 0.1083 0.0
C4 C 0.72348 0.09713 0.03414 0.0
C5 C 0.56319 0.01775 0.1885 0.0
O6 O 0.61935 0.93235 0.04568 0.0
O7 O 0.64905 0.96927 0.15153 0.0
O8 O 0.60634 0.06055 0.16418 0.0
O9 O 0.54836 0.97336 0.15261 0.0
C10 C 0.5584 0.00942 0.95543 0.0
O11 O 0.70238 0.0943 0.09694 0.0
O12 O 0.69362 0.05675 0.99142 0.0
In13 In 0.61778 0.62793 0.24265 0.0
O14 O 0.61473 0.58976 0.12951 0.0
O15 O 0.53948 0.55676 0.18912 0.0
C16 C 0.71332 0.63211 0.26967 0.0
C17 C 0.63245 0.72849 0.20132 0.0
C18 C 0.56054 0.58639 0.37081 0.0
O19 O 0.66887 0.58718 0.25456 0.0
O20 O 0.71013 0.67558 0.26901 0.0
O21 O 0.53946 0.59463 0.31405 0.0
O22 O 0.61007 0.60008 0.36296 0.0
C23 C 0.56335 0.55536 0.13074 0.0
O24 O 0.62794 0.71352 0.26845 0.0
O25 O 0.63009 0.69324 0.15574 0.0
In26 In 0.00102 0.6315 0.38965 0.0
O27 O 0.04317 0.59526 0.32069 0.0
O28 O -0.01191 0.61294 0.26526 0.0
C29 C 0.08613 0.73263 0.43418 0.0
C30 C 0.9084 0.63261 0.36163 0.0
C31 C 0.98431 0.55808 0.49992 0.0
O32 O 0.07842 0.71775 0.36699 0.0
O33 O 0.05064 0.69714 0.47829 0.0
O34 O 0.95772 0.58279 0.4961 0.0
O35 O 0.01787 0.56931 0.44733 0.0
C36 C 0.01977 0.59415 0.26056 0.0
O37 O 0.90859 0.58775 0.36976 0.0
O38 O 0.95481 0.6771 0.36986 0.0
In39 In 0.38755 0.01424 0.57142 0.0
O40 O 0.30607 0.93272 0.59567 0.0
O41 O 0.31505 0.97207 0.49104 0.0
C42 C 0.44527 0.00992 0.68829 0.0
C43 C 0.4501 0.01839 0.4553 0.0
C44 C 0.36888 0.09662 0.6088 0.0
O45 O 0.40222 0.967 0.6642 0.0
O46 O 0.45996 0.05433 0.65209 0.0
O47 O 0.38744 0.09454 0.54594 0.0
O48 O 0.35861 0.05662 0.65188 0.0
C49 C 0.28504 0.93111 0.53319 0.0
O50 O 0.45186 0.06159 0.47993 0.0
O51 O 0.41836 0.97387 0.49068 0.0
In52 In 0.38191 0.39297 0.7446 0.0
O53 O 0.37735 0.30993 0.76902 0.0
O54 O 0.36222 0.3249 0.65865 0.0
C55 C 0.44149 0.43321 0.87112 0.0
C56 C 0.4381 0.46311 0.63087 0.0
C57 C 0.28941 0.39408 0.77459 0.0
O58 O 0.39013 0.39884 0.87144 0.0
O59 O 0.46287 0.44621 0.80727 0.0
O60 O 0.33658 0.43815 0.77176 0.0
O61 O 0.28861 0.34944 0.76013 0.0
C62 C 0.36641 0.29241 0.70306 0.0
O63 O 0.38691 0.44242 0.63958 0.0
O64 O 0.46042 0.44888 0.67972 0.0
In65 In 0.0046 0.40123 0.89119 0.0
O66 O 0.09758 0.44179 0.88046 0.0
O67 O 0.0477 0.35364 0.86333 0.0
C68 C 0.02158 0.47457 1.00099 0.0
C69 C -0.01187 0.44065 0.76194 0.0
C70 C 0.91977 0.29959 0.93584 0.0
O71 O 0.0442 0.44588 1.00046 0.0
O72 O -0.00855 0.4672 0.94539 0.0
O73 O 0.9286 0.31405 0.86837 0.0
O74 O 0.9538 0.33593 0.98024 0.0
C75 C 0.09563 0.39683 0.86416 0.0
O76 O 0.95662 0.42885 0.8173 0.0
O77 O 0.02698 0.432 0.77176 0.0
C78 C 0.49361 0.96786 0.28905 0.0
C79 C 0.53397 0.01855 0.25606 0.0
H80 H 0.43621 0.92818 0.37841 0.0
C81 C 0.54718 0.06949 0.2896 0.0
H82 H 0.48277 0.92792 0.26477 0.0
C83 C 0.52016 0.06966 0.35464 0.0
C84 C 0.48004 0.01887 0.3878 0.0
H85 H 0.57824 0.1092 0.26546 0.0
H86 H 0.53078 0.10949 0.37906 0.0
C87 C 0.46719 0.96801 0.35444 0.0
C88 C 0.55608 0.5506 0.49922 0.0
C89 C 0.52937 0.55928 0.43958 0.0
H90 H 0.54819 0.51372 0.60624 0.0
C91 C 0.47263 0.53896 0.44508 0.0
H92 H 0.59979 0.56584 0.49678 0.0
C93 C 0.44288 0.50892 0.50826 0.0
C94 C 0.46945 0.49873 0.56674 0.0
H95 H 0.45101 0.54505 0.39991 0.0
H96 H 0.39894 0.49253 0.5105 0.0
C97 C 0.52647 0.52067 0.56201 0.0
C98 C 0.01702 0.47378 0.63167 0.0
C99 C 0.98258 0.46569 0.69246 0.0
H100 H 0.04399 0.50865 0.52297 0.0
C101 C 0.94549 0.48458 0.68734 0.0
H102 H 0.04587 0.45946 0.63381 0.0
C103 C 0.94457 0.51312 0.62364 0.0
C104 C 0.98048 0.52287 0.56394 0.0
H105 H 0.91844 0.47887 0.73337 0.0
H106 H 0.91681 0.52878 0.62195 0.0
C107 C 0.01588 0.50189 0.56806 0.0
C108 C 0.54104 0.05981 0.85426 0.0
C109 C 0.52845 0.00897 0.88789 0.0
H110 H 0.52524 0.09985 0.76428 0.0
C111 C 0.48858 0.95816 0.85491 0.0
H112 H 0.57182 0.09964 0.87809 0.0
C113 C 0.46155 0.95828 0.78979 0.0
C114 C 0.4745 0.0092 0.75597 0.0
H115 H 0.47816 0.91833 0.87952 0.0
H116 H 0.43069 0.91855 0.7658 0.0
C117 C 0.51461 0.05992 0.78878 0.0
C118 C 0.47593 0.48104 0.07093 0.0
C119 C 0.53303 0.51957 0.06654 0.0
H120 H 0.40217 0.4229 1.01248 0.0
C121 C 0.56035 0.52622 0.99872 0.0
H122 H 0.45382 0.47493 0.12256 0.0
C123 C 0.53078 0.4967 0.9357 0.0
C124 C 0.47338 0.45968 0.93941 0.0
H125 H 0.60434 0.55559 0.99366 0.0
H126 H 0.5527 0.50397 0.88363 0.0
C127 C 0.44639 0.4512 1.00797 0.0
C128 C -0.00342 0.53784 0.06444 0.0
C129 C 0.02619 0.51029 0.06445 0.0
H130 H 0.97163 0.58624 0.12642 0.0
C131 C 0.05714 0.51415 0.12763 0.0
H132 H 0.97241 0.5357 1.01653 0.0
C133 C 0.05673 0.54318 0.19066 0.0
C134 C 0.02532 0.56881 0.19163 0.0
H135 H 0.08043 0.49341 0.12919 0.0
H136 H 0.07969 0.54413 0.23933 0.0
C137 C -0.00387 0.56678 0.1274 0.0
C138 C 0.63222 0.791 0.10174 0.0
C139 C 0.63769 0.78173 0.17729 0.0
H140 H 0.62783 0.84494 0.02069 0.0
C141 C 0.64633 0.82288 0.22944 0.0
H142 H 0.62556 0.76003 0.06024 0.0
C143 C 0.64831 0.87187 0.20659 0.0
C144 C 0.64102 0.88023 0.13133 0.0
H145 H 0.65086 0.81693 0.28798 0.0
H146 H 0.65398 0.90241 0.24819 0.0
C147 C 0.63352 0.8396 0.07905 0.0
C148 C 0.80953 0.58215 0.32294 0.0
C149 C 0.85844 0.63282 0.33945 0.0
H150 H 0.7256 0.54235 0.28709 0.0
C151 C 0.85963 0.68356 0.33175 0.0
H152 H 0.80744 0.5424 0.32796 0.0
C153 C 0.81265 0.68355 0.30822 0.0
C154 C 0.7638 0.63281 0.2916 0.0
H155 H 0.89685 0.72329 0.34381 0.0
H156 H 0.81457 0.72321 0.30324 0.0
C157 C 0.76275 0.58216 0.2991 0.0
C158 C 0.14795 0.79378 0.53601 0.0
C159 C 0.13454 0.78567 0.46 0.0
H160 H 0.20639 0.84621 0.61881 0.0
C161 C 0.1692 0.82743 0.4089 0.0
H162 H 0.12197 0.76223 0.57667 0.0
C163 C 0.21711 0.87584 0.43319 0.0
C164 C 0.23161 0.88292 0.50886 0.0
H165 H 0.15975 0.82233 0.35004 0.0
H166 H 0.2437 0.90684 0.39237 0.0
C167 C 0.19626 0.84177 0.56016 0.0
C168 C 0.35843 0.20064 0.73108 0.0
C169 C 0.36239 0.23997 0.67867 0.0
H170 H 0.35641 0.12379 0.74975 0.0
C171 C 0.36528 0.23013 0.60268 0.0
H172 H 0.35602 0.20713 0.78998 0.0
C173 C 0.3663 0.18289 0.5797 0.0
C174 C 0.36347 0.14416 0.63222 0.0
H175 H 0.36847 0.25983 0.56105 0.0
H176 H 0.37004 0.17709 0.52093 0.0
C177 C 0.3585 0.15291 0.70801 0.0
C178 C 0.19703 0.44567 0.84021 0.0
C179 C 0.14525 0.39565 0.84299 0.0
H180 H 0.28308 0.48439 0.81581 0.0
C181 C 0.1411 0.34505 0.82257 0.0
H182 H 0.20148 0.48536 0.85535 0.0
C183 C 0.18788 0.34452 0.7997 0.0
C184 C 0.23961 0.3946 0.79668 0.0
H185 H 0.10168 0.30587 0.8239 0.0
H186 H 0.18352 0.30489 0.78446 0.0
C187 C 0.24372 0.44515 0.81722 0.0
C188 C 0.85828 0.23684 0.03739 0.0
C189 C 0.87202 0.24573 0.96145 0.0
H190 H 0.80036 0.18276 0.11997 0.0
C191 C 0.8385 0.20367 0.91029 0.0
H192 H 0.8834 0.26852 0.07814 0.0
C193 C 0.79134 0.15425 0.93441 0.0
C194 C 0.77648 0.14632 1.01001 0.0
H195 H 0.84823 0.2093 0.85148 0.0
H196 H 0.76558 0.12307 0.8935 0.0
C197 C 0.81077 0.18777 0.06138 0.0
loop_
_geom_bond_atom_site_label_1
_geom_bond_atom_site_label_2
_geom_bond_distance
_geom_bond_site_symmetry_2
_ccdc_geom_bond_type
In0 O1 2.294 1_544 S
In0 O2 2.326 1_554 S
In0 O6 2.266 1_545 S
In0 O7 2.326 1_545 S
In0 O8 2.266 . S
In0 O9 2.326 1_545 S
In0 O11 2.294 . S
In0 O12 2.326 1_554 S
O1 In0 2.294 1_566 S
O1 C10 1.240 1_565 S
O2 In0 2.326 1_556 S
O2 C10 1.252 . S
C3 O6 1.252 . S
C3 O7 1.260 . S
C4 O11 1.240 1_556 S
C4 O12 1.252 . S
C5 O8 1.244 1_565 S
C5 O9 1.272 . S
O6 In0 2.266 1_565 S
O6 C3 1.252 . S
O7 In0 2.326 1_565 S
O7 C3 1.260 . S
O8 In0 2.266 . S
O8 C5 1.244 1_545 S
O9 In0 2.326 1_565 S
O9 C5 1.272 . S
C10 O1 1.240 1_545 S
C10 O2 1.252 . S
O11 In0 2.294 . S
O11 C4 1.240 1_554 S
O12 In0 2.326 1_556 S
O12 C4 1.252 . S
In13 O14 2.294 . S
In13 O15 2.326 . S
In13 O19 2.266 . S
In13 O20 2.326 . S
In13 O21 2.266 . S
In13 O22 2.326 . S
In13 O24 2.294 . S
In13 O25 2.326 . S
O14 In13 2.294 . S
O14 C23 1.240 . S
O15 In13 2.326 . S
O15 C23 1.252 . S
C16 O19 1.252 . S
C16 O20 1.260 . S
C17 O24 1.240 . S
C17 O25 1.252 . S
C18 O21 1.252 . S
C18 O22 1.260 . S
O19 In13 2.266 . S
O19 C16 1.252 . S
O20 In13 2.326 . S
O20 C16 1.260 . S
O21 In13 2.266 . S
O21 C18 1.252 . S
O22 In13 2.326 . S
O22 C18 1.260 . S
C23 O14 1.240 . S
C23 O15 1.252 . S
O24 In13 2.294 . S
O24 C17 1.240 . S
O25 In13 2.326 . S
O25 C17 1.252 . S
In26 O27 2.294 . S
In26 O28 2.326 1_455 S
In26 O32 2.266 . S
In26 O33 2.326 . S
In26 O34 2.266 1_455 S
In26 O35 2.326 . S
In26 O37 2.294 1_455 S
In26 O38 2.326 1_455 S
O27 In26 2.294 . S
O27 C36 1.240 . S
O28 In26 2.326 1_655 S
O28 C36 1.252 1_655 S
C29 O32 1.252 . S
C29 O33 1.260 . S
C30 O37 1.240 . S
C30 O38 1.252 . S
C31 O34 1.252 1_455 S
C31 O35 1.260 . S
O32 In26 2.266 . S
O32 C29 1.252 . S
O33 In26 2.326 . S
O33 C29 1.260 . S
O34 In26 2.266 1_655 S
O34 C31 1.252 1_655 S
O35 In26 2.326 . S
O35 C31 1.260 . S
C36 O27 1.240 . S
C36 O28 1.252 1_455 S
O37 In26 2.294 1_655 S
O37 C30 1.240 . S
O38 In26 2.326 1_655 S
O38 C30 1.252 . S
In39 O40 2.294 1_545 S
In39 O41 2.326 1_545 S
In39 O45 2.266 1_545 S
In39 O46 2.326 . S
In39 O47 2.266 . S
In39 O48 2.326 . S
In39 O50 2.294 . S
In39 O51 2.326 1_545 S
O40 In39 2.294 1_565 S
O40 C49 1.240 . S
O41 In39 2.326 1_565 S
O41 C49 1.252 . S
C42 O45 1.252 1_545 S
C42 O46 1.260 . S
C43 O50 1.240 1_565 S
C43 O51 1.252 . S
C44 O47 1.252 . S
C44 O48 1.260 . S
O45 In39 2.266 1_565 S
O45 C42 1.252 1_565 S
O46 In39 2.326 . S
O46 C42 1.260 . S
O47 In39 2.266 . S
O47 C44 1.252 . S
O48 In39 2.326 . S
O48 C44 1.260 . S
C49 O40 1.240 . S
C49 O41 1.252 . S
O50 In39 2.294 . S
O50 C43 1.240 1_545 S
O51 In39 2.326 1_565 S
O51 C43 1.252 . S
In52 O53 2.294 . S
In52 O54 2.326 . S
In52 O58 2.266 . S
In52 O59 2.326 . S
In52 O60 2.266 . S
In52 O61 2.326 . S
In52 O63 2.294 . S
In52 O64 2.326 . S
O53 In52 2.294 . S
O53 C62 1.240 . S
O54 In52 2.326 . S
O54 C62 1.252 . S
C55 O58 1.252 . S
C55 O59 1.260 . S
C56 O63 1.240 . S
C56 O64 1.252 . S
C57 O60 1.252 . S
C57 O61 1.260 . S
O58 In52 2.266 . S
O58 C55 1.252 . S
O59 In52 2.326 . S
O59 C55 1.260 . S
O60 In52 2.266 . S
O60 C57 1.252 . S
O61 In52 2.326 . S
O61 C57 1.260 . S
C62 O53 1.240 . S
C62 O54 1.252 . S
O63 In52 2.294 . S
O63 C56 1.240 . S
O64 In52 2.326 . S
O64 C56 1.252 . S
In65 O66 2.294 . S
In65 O67 2.326 . S
In65 O71 2.266 . S
In65 O72 2.326 1_455 S
In65 O73 2.266 1_455 S
In65 O74 2.326 1_455 S
In65 O76 2.294 1_455 S
In65 O77 2.326 . S
O66 In65 2.294 . S
O66 C75 1.240 . S
O67 In65 2.326 . S
O67 C75 1.252 . S
C68 O71 1.252 . S
C68 O72 1.260 1_455 S
C69 O76 1.240 1_455 S
C69 O77 1.252 . S
C70 O73 1.252 . S
C70 O74 1.260 . S
O71 In65 2.266 . S
O71 C68 1.252 . S
O72 In65 2.326 1_655 S
O72 C68 1.260 1_655 S
O73 In65 2.266 1_655 S
O73 C70 1.252 . S
O74 In65 2.326 1_655 S
O74 C70 1.260 . S
C75 O66 1.240 . S
C75 O67 1.252 . S
O76 In65 2.294 1_655 S
O76 C69 1.240 1_655 S
O77 In65 2.326 . S
O77 C69 1.252 . S
C78 C79 1.387 . S
C78 H82 0.950 . S
C78 C87 1.390 . S
C79 C78 1.387 . S
C79 C81 1.387 1_565 S
H80 C87 0.950 . S
C81 C79 1.387 1_545 S
C81 C83 1.390 . S
C81 H85 0.950 . S
H82 C78 0.950 . S
C83 C81 1.390 . S
C83 C84 1.387 1_545 S
C83 H86 0.950 . S
C84 C83 1.387 1_565 S
C84 C87 1.387 . S
H85 C81 0.950 . S
H86 C83 0.950 . S
C87 C78 1.390 . S
C87 H80 0.950 . S
C87 C84 1.387 . S
C88 C89 1.387 . S
C88 H92 0.950 . S
C88 C97 1.390 . S
C89 C88 1.387 . S
C89 C91 1.387 . S
H90 C97 0.950 . S
C91 C89 1.387 . S
C91 C93 1.390 . S
C91 H95 0.950 . S
H92 C88 0.950 . S
C93 C91 1.390 . S
C93 C94 1.387 . S
C93 H96 0.950 . S
C94 C93 1.387 . S
C94 C97 1.387 . S
H95 C91 0.950 . S
H96 C93 0.950 . S
C97 C88 1.390 . S
C97 H90 0.950 . S
C97 C94 1.387 . S
C98 C99 1.387 . S
C98 H102 0.950 . S
C98 C107 1.390 . S
C99 C98 1.387 . S
C99 C101 1.387 1_455 S
H100 C107 0.950 . S
C101 C99 1.387 1_655 S
C101 C103 1.390 . S
C101 H105 0.950 . S
H102 C98 0.950 . S
C103 C101 1.390 . S
C103 C104 1.387 1_655 S
C103 H106 0.950 . S
C104 C103 1.387 1_455 S
C104 C107 1.387 . S
H105 C101 0.950 . S
H106 C103 0.950 . S
C107 C98 1.390 . S
C107 H100 0.950 . S
C107 C104 1.387 . S
C108 C109 1.387 . S
C108 H112 0.950 . S
C108 C117 1.390 . S
C109 C108 1.387 . S
C109 C111 1.387 1_545 S
H110 C117 0.950 . S
C111 C109 1.387 1_565 S
C111 C113 1.390 . S
C111 H115 0.950 . S
H112 C108 0.950 . S
C113 C111 1.390 . S
C113 C114 1.387 1_565 S
C113 H116 0.950 . S
C114 C113 1.387 1_545 S
C114 C117 1.387 . S
H115 C111 0.950 . S
H116 C113 0.950 . S
C117 C108 1.390 . S
C117 H110 0.950 . S
C117 C114 1.387 . S
C118 C119 1.387 . S
C118 H122 0.950 . S
C118 C127 1.390 1_554 S
C119 C118 1.387 . S
C119 C121 1.387 1_554 S
H120 C127 0.950 . S
C121 C119 1.387 1_556 S
C121 C123 1.390 . S
C121 H125 0.950 . S
H122 C118 0.950 . S
C123 C121 1.390 . S
C123 C124 1.387 . S
C123 H126 0.950 . S
C124 C123 1.387 . S
C124 C127 1.387 . S
H125 C121 0.950 . S
H126 C123 0.950 . S
C127 C118 1.390 1_556 S
C127 H120 0.950 . S
C127 C124 1.387 . S
C128 C129 1.387 1_655 S
C128 H132 0.950 . S
C128 C137 1.390 . S
C129 C128 1.387 1_455 S
C129 C131 1.387 . S
H130 C137 0.950 . S
C131 C129 1.387 . S
C131 C133 1.390 . S
C131 H135 0.950 . S
H132 C128 0.950 . S
C133 C131 1.390 . S
C133 C134 1.387 . S
C133 H136 0.950 . S
C134 C133 1.387 . S
C134 C137 1.387 1_455 S
H135 C131 0.950 . S
H136 C133 0.950 . S
C137 C128 1.390 . S
C137 H130 0.950 . S
C137 C134 1.387 1_655 S
C138 C139 1.387 . S
C138 H142 0.950 . S
C138 C147 1.390 . S
C139 C138 1.387 . S
C139 C141 1.387 . S
H140 C147 0.950 . S
C141 C139 1.387 . S
C141 C143 1.390 . S
C141 H145 0.950 . S
H142 C138 0.950 . S
C143 C141 1.390 . S
C143 C144 1.387 . S
C143 H146 0.950 . S
C144 C143 1.387 . S
C144 C147 1.387 . S
H145 C141 0.950 . S
H146 C143 0.950 . S
C147 C138 1.390 . S
C147 H140 0.950 . S
C147 C144 1.387 . S
C148 C149 1.387 . S
C148 H152 0.950 . S
C148 C157 1.390 . S
C149 C148 1.387 . S
C149 C151 1.387 . S
H150 C157 0.950 . S
C151 C149 1.387 . S
C151 C153 1.390 . S
C151 H155 0.950 . S
H152 C148 0.950 . S
C153 C151 1.390 . S
C153 C154 1.387 . S
C153 H156 0.950 . S
C154 C153 1.387 . S
C154 C157 1.387 . S
H155 C151 0.950 . S
H156 C153 0.950 . S
C157 C148 1.390 . S
C157 H150 0.950 . S
C157 C154 1.387 . S
C158 C159 1.387 . S
C158 H162 0.950 . S
C158 C167 1.390 . S
C159 C158 1.387 . S
C159 C161 1.387 . S
H160 C167 0.950 . S
C161 C159 1.387 . S
C161 C163 1.390 . S
C161 H165 0.950 . S
H162 C158 0.950 . S
C163 C161 1.390 . S
C163 C164 1.387 . S
C163 H166 0.950 . S
C164 C163 1.387 . S
C164 C167 1.387 . S
H165 C161 0.950 . S
H166 C163 0.950 . S
C167 C158 1.390 . S
C167 H160 0.950 . S
C167 C164 1.387 . S
C168 C169 1.387 . S
C168 H172 0.950 . S
C168 C177 1.390 . S
C169 C168 1.387 . S
C169 C171 1.387 . S
H170 C177 0.950 . S
C171 C169 1.387 . S
C171 C173 1.390 . S
C171 H175 0.950 . S
H172 C168 0.950 . S
C173 C171 1.390 . S
C173 C174 1.387 . S
C173 H176 0.950 . S
C174 C173 1.387 . S
C174 C177 1.387 . S
H175 C171 0.950 . S
H176 C173 0.950 . S
C177 C168 1.390 . S
C177 H170 0.950 . S
C177 C174 1.387 . S
C178 C179 1.387 . S
C178 H182 0.950 . S
C178 C187 1.390 . S
C179 C178 1.387 . S
C179 C181 1.387 . S
H180 C187 0.950 . S
C181 C179 1.387 . S
C181 C183 1.390 . S
C181 H185 0.950 . S
H182 C178 0.950 . S
C183 C181 1.390 . S
C183 C184 1.387 . S
C183 H186 0.950 . S
C184 C183 1.387 . S
C184 C187 1.387 . S
H185 C181 0.950 . S
H186 C183 0.950 . S
C187 C178 1.390 . S
C187 H180 0.950 . S
C187 C184 1.387 . S
C188 C189 1.387 1_554 S
C188 H192 0.950 . S
C188 C197 1.390 . S
C189 C188 1.387 1_556 S
C189 C191 1.387 . S
H190 C197 0.950 . S
C191 C189 1.387 . S
C191 C193 1.390 . S
C191 H195 0.950 . S
H192 C188 0.950 . S
C193 C191 1.390 . S
C193 C194 1.387 . S
C193 H196 0.950 . S
C194 C193 1.387 . S
C194 C197 1.387 1_556 S
H195 C191 0.950 . S
H196 C193 0.950 . S
C197 C188 1.390 . S
C197 H190 0.950 . S
C197 C194 1.387 1_554 S
C79 C5 1.700 . S
C84 C43 1.704 . S
C89 C18 1.705 . S
C94 C56 1.704 . S
C99 C69 1.704 . S
C104 C31 1.705 . S
C109 C10 1.704 . S
C114 C42 1.705 . S
C119 C23 1.704 . S
C124 C55 1.705 . S
C129 C68 1.705 1_554 S
C134 C36 1.704 . S
C139 C17 1.470 . S
C144 C3 1.471 . S
C149 C30 1.470 . S
C154 C16 1.472 . S
C159 C29 1.472 . S
C164 C49 1.469 . S
C169 C62 1.469 . S
C174 C44 1.472 . S
C179 C75 1.470 . S
C184 C57 1.472 . S
C189 C70 1.472 . S
C194 C4 1.469 . S
