# Generated by pormake.
# Topology sxa, (6)-cn, num edge types: 1
# Building blocks:
#     Node 0, Type 0, BuildingBlock: LEVNOQ01_clean_sbu_1, # of connection points: 6
#     Node 1, Type 0, BuildingBlock: LEVNOQ01_clean_sbu_1, # of connection points: 6
#     Node 2, Type 0, BuildingBlock: LEVNOQ01_clean_sbu_1, # of connection points: 6
#     Node 3, Type 0, BuildingBlock: LEVNOQ01_clean_sbu_1, # of connection points: 6
#     Edge 4, Type (0, 0), BuildingBlock: EYOCIG_clean_linker_4, # of connection points: 2
#     Edge 5, Type (0, 0), BuildingBlock: EYOCIG_clean_linker_4, # of connection points: 2
#     Edge 6, Type (0, 0), BuildingBlock: EYOCIG_clean_linker_4, # of connection points: 2
#     Edge 7, Type (0, 0), BuildingBlock: EYOCIG_clean_linker_4, # of connection points: 2
#     Edge 8, Type (0, 0), BuildingBlock: EYOCIG_clean_linker_4, # of connection points: 2
#     Edge 9, Type (0, 0), BuildingBlock: EYOCIG_clean_linker_4, # of connection points: 2
#     Edge 10, Type (0, 0), BuildingBlock: EYOCIG_clean_linker_4, # of connection points: 2
#     Edge 11, Type (0, 0), BuildingBlock: EYOCIG_clean_linker_4, # of connection points: 2
#     Edge 12, Type (0, 0), BuildingBlock: EYOCIG_clean_linker_4, # of connection points: 2
#     Edge 13, Type (0, 0), BuildingBlock: EYOCIG_clean_linker_4, # of connection points: 2
#     Edge 14, Type (0, 0), BuildingBlock: EYOCIG_clean_linker_4, # of connection points: 2
#     Edge 15, Type (0, 0), BuildingBlock: EYOCIG_clean_linker_4, # of connection points: 2
# Relax obj value: 0.187
# Max RMSD: 0.232
# Mean RMSD: 0.232
data_MOF--net-sxa--node1-LEVNOQ01_clean_sbu_1--edge1-EYOCIG_clean_linker_4
_symmetry_space_group_name_H-M    P1
_symmetry_Int_Tables_number       1
_symmetry_cell_setting            triclinic
loop_
_symmetry_equiv_pos_as_xyz
'x, y, z'
_cell_length_a     21.429552
_cell_length_b     22.995724
_cell_length_c     12.488196
_cell_angle_alpha  90.065455
_cell_angle_beta   90.034139
_cell_angle_gamma 90.221455
loop_
_atom_site_label
_atom_site_type_symbol
_atom_site_fract_x
_atom_site_fract_y
_atom_site_fract_z
_atom_type_partial_charge
O0 O 0.11116 0.71791 0.0426 0.0
Mg1 Mg 0.07995 0.67251 0.17977 0.0
O2 O 0.04336 0.78944 0.06253 0.0
Mg3 Mg -0.02993 0.76954 0.1876 0.0
O4 O -0.01384 0.67102 0.17263 0.0
O5 O 0.0417 0.58997 0.16952 0.0
O6 O 0.88871 0.75184 0.31888 0.0
O7 O 0.89873 0.74899 0.05862 0.0
Mg8 Mg 0.86106 0.8648 0.17865 0.0
O9 O 0.95504 0.86876 0.17066 0.0
O10 O 0.82616 0.82909 0.32078 0.0
O11 O 0.82921 0.8193 0.04206 0.0
O12 O 0.89622 0.9481 0.1687 0.0
C13 C 0.09807 0.75936 0.35786 0.0
C14 C 0.09149 0.76825 0.01891 0.0
C15 C -0.01151 0.61516 0.15825 0.0
C16 C 0.84089 0.77931 0.35548 0.0
C17 C 0.85019 0.76981 0.0157 0.0
C18 C 0.95047 0.92473 0.15855 0.0
O19 O 0.11365 0.71011 0.32143 0.0
O20 O 0.05 0.78681 0.32196 0.0
O21 O 0.60947 0.22178 0.03747 0.0
Mg22 Mg 0.57699 0.17753 0.17403 0.0
O23 O 0.54371 0.29384 0.06564 0.0
Mg24 Mg 0.47104 0.27134 0.19115 0.0
O25 O 0.4829 0.17168 0.16737 0.0
O26 O 0.5447 0.09391 0.16248 0.0
O27 O 0.38901 0.25263 0.32217 0.0
O28 O 0.4005 0.25155 0.06093 0.0
Mg29 Mg 0.36512 0.36333 0.18423 0.0
O30 O 0.45882 0.37224 0.19671 0.0
O31 O 0.32687 0.33046 0.32493 0.0
O32 O 0.33059 0.32054 0.04806 0.0
O33 O 0.39567 0.4436 0.14262 0.0
C34 C 0.59993 0.25823 0.35693 0.0
C35 C 0.59072 0.27289 0.01816 0.0
C36 C 0.48965 0.11591 0.15412 0.0
C37 C 0.34109 0.28028 0.35868 0.0
C38 C 0.35131 0.27163 0.01994 0.0
C39 C 0.45091 0.42158 0.14696 0.0
O40 O 0.61562 0.21013 0.31604 0.0
O41 O 0.55096 0.28546 0.32512 0.0
O42 O 0.11015 0.31855 0.98056 0.0
Mg43 Mg 0.0797 0.3643 0.84391 0.0
O44 O 0.04338 0.24603 0.9561 0.0
Mg45 Mg -0.02938 0.26796 0.8307 0.0
O46 O -0.01406 0.36684 0.85078 0.0
O47 O 0.04379 0.44711 0.85597 0.0
O48 O 0.88893 0.28656 0.69987 0.0
O49 O 0.90031 0.28773 0.96096 0.0
Mg50 Mg 0.858 0.17198 0.83376 0.0
O51 O 0.95159 0.16917 0.83061 0.0
O52 O 0.82771 0.20757 0.68875 0.0
O53 O 0.82529 0.22163 0.96355 0.0
O54 O 0.89476 0.09291 0.87815 0.0
C55 C 0.09872 0.28038 0.66227 0.0
C56 C 0.09062 0.26779 1.00242 0.0
C57 C -0.01015 0.42267 0.86551 0.0
C58 C 0.84219 0.25862 0.65897 0.0
C59 C 0.849 0.26876 0.99677 0.0
C60 C 0.94852 0.11821 0.87562 0.0
O61 O 0.11486 0.32898 0.70136 0.0
O62 O 0.05013 0.2528 0.69617 0.0
O63 O 0.33119 0.7207 0.97916 0.0
Mg64 Mg 0.3616 0.67389 0.84344 0.0
O65 O 0.39922 0.79245 0.95741 0.0
Mg66 Mg 0.4702 0.77064 0.82941 0.0
O67 O 0.45543 0.67192 0.85067 0.0
O68 O 0.39812 0.59136 0.85671 0.0
O69 O 0.5509 0.75209 0.69644 0.0
O70 O 0.54208 0.75046 0.95677 0.0
Mg71 Mg 0.58058 0.86516 0.83545 0.0
O72 O 0.48685 0.87024 0.82647 0.0
O73 O 0.61434 0.82968 0.69261 0.0
O74 O 0.61354 0.81906 0.96922 0.0
O75 O 0.54628 0.94465 0.8783 0.0
C76 C 0.34058 0.75737 0.66321 0.0
C77 C 0.35162 0.77097 1.00279 0.0
C78 C 0.45188 0.61616 0.86616 0.0
C79 C 0.59888 0.77958 0.65891 0.0
C80 C 0.5919 0.7702 0.99697 0.0
C81 C 0.49199 0.9203 0.87483 0.0
O82 O 0.32576 0.70805 0.7005 0.0
O83 O 0.38878 0.78542 0.69766 0.0
C84 C 0.92191 0.49514 0.97432 0.0
C85 C 0.94279 0.45528 0.92204 0.0
C86 C 0.92146 0.54424 0.04369 0.0
C87 C 0.94181 0.58364 0.09814 0.0
C88 C 0.52031 0.49477 0.04391 0.0
C89 C 0.50011 0.45482 0.097 0.0
C90 C 0.51992 0.54435 0.97582 0.0
C91 C 0.49909 0.58409 0.92328 0.0
C92 C 0.42179 0.98986 0.98284 0.0
C93 C 0.44208 0.95065 0.92818 0.0
C94 C 0.42261 0.03976 0.05034 0.0
C95 C 0.44335 0.0807 0.10034 0.0
C96 C 0.01782 0.99971 0.05296 0.0
C97 C -0.00285 0.95886 0.10331 0.0
C98 C 0.01867 0.04992 0.9861 0.0
C99 C -0.00141 0.08914 0.93116 0.0
C100 C 0.24796 0.79305 0.54014 0.0
C101 C 0.29469 0.78377 0.59291 0.0
C102 C 0.18968 0.79404 0.48391 0.0
C103 C 0.14299 0.78594 0.43019 0.0
C104 C 0.18984 0.24503 0.53623 0.0
C105 C 0.14349 0.25408 0.58993 0.0
C106 C 0.2481 0.24447 0.48025 0.0
C107 C 0.29515 0.25314 0.42799 0.0
C108 C 0.75027 0.29532 0.53686 0.0
C109 C 0.79694 0.28652 0.58982 0.0
C110 C 0.69199 0.29431 0.48107 0.0
C111 C 0.64535 0.28465 0.42829 0.0
C112 C 0.74874 0.74315 0.47902 0.0
C113 C 0.79542 0.75219 0.42592 0.0
C114 C 0.69051 0.74307 0.5353 0.0
C115 C 0.64391 0.75211 0.58846 0.0
C116 C 0.25321 0.82888 0.02945 0.0
C117 C 0.30574 0.81189 0.03296 0.0
C118 C 0.19041 0.82789 0.9997 0.0
C119 C 0.13825 0.80968 0.99383 0.0
C120 C 0.18992 0.21066 0.02878 0.0
C121 C 0.13721 0.22731 0.03154 0.0
C122 C 0.25292 0.21149 0.99997 0.0
C123 C 0.30515 0.22964 0.9941 0.0
C124 C 0.69051 0.3313 0.99789 0.0
C125 C 0.63793 0.31397 0.99345 0.0
C126 C 0.75363 0.33058 0.02587 0.0
C127 C 0.80542 0.31156 0.02854 0.0
C128 C 0.75235 0.70993 0.98809 0.0
C129 C 0.80464 0.72812 0.98537 0.0
C130 C 0.68937 0.70968 0.01702 0.0
C131 C 0.63729 0.72785 0.02288 0.0
loop_
_geom_bond_atom_site_label_1
_geom_bond_atom_site_label_2
_geom_bond_distance
_geom_bond_site_symmetry_2
_ccdc_geom_bond_type
O0 Mg1 1.990 . S
O0 C14 1.253 . S
Mg1 O0 1.990 . S
Mg1 O4 2.180 . S
Mg1 O5 2.117 . S
Mg1 O19 2.030 . S
O2 Mg3 2.082 . S
O2 C14 1.260 . S
Mg3 O2 2.082 . S
Mg3 O4 2.102 . S
Mg3 O6 2.069 1_455 S
Mg3 O7 2.063 1_455 S
Mg3 O9 2.096 1_455 S
Mg3 O20 2.088 . S
O4 Mg1 2.180 . S
O4 Mg3 2.102 . S
O4 C15 1.279 . S
O5 Mg1 2.117 . S
O5 C15 1.250 . S
O6 Mg3 2.069 1_655 S
O6 C16 1.264 . S
O7 Mg3 2.063 1_655 S
O7 C17 1.260 . S
Mg8 O9 2.180 . S
Mg8 O10 2.030 . S
Mg8 O11 1.990 . S
Mg8 O12 2.117 . S
O9 Mg3 2.096 1_655 S
O9 Mg8 2.180 . S
O9 C18 1.279 . S
O10 Mg8 2.030 . S
O10 C16 1.248 . S
O11 Mg8 1.990 . S
O11 C17 1.253 . S
O12 Mg8 2.117 . S
O12 C18 1.250 . S
C13 O19 1.248 . S
C13 O20 1.264 . S
C14 O0 1.253 . S
C14 O2 1.260 . S
C15 O4 1.279 . S
C15 O5 1.250 . S
C16 O6 1.264 . S
C16 O10 1.248 . S
C17 O7 1.260 . S
C17 O11 1.253 . S
C18 O9 1.279 . S
C18 O12 1.250 . S
O19 Mg1 2.030 . S
O19 C13 1.248 . S
O20 Mg3 2.088 . S
O20 C13 1.264 . S
O21 Mg22 1.990 . S
O21 C35 1.253 . S
Mg22 O21 1.990 . S
Mg22 O25 2.180 . S
Mg22 O26 2.117 . S
Mg22 O40 2.030 . S
O23 Mg24 2.072 . S
O23 C35 1.260 . S
Mg24 O23 2.072 . S
Mg24 O25 2.099 . S
Mg24 O27 2.079 . S
Mg24 O28 2.072 . S
Mg24 O30 2.099 . S
Mg24 O41 2.079 . S
O25 Mg22 2.180 . S
O25 Mg24 2.099 . S
O25 C36 1.279 . S
O26 Mg22 2.117 . S
O26 C36 1.250 . S
O27 Mg24 2.079 . S
O27 C37 1.264 . S
O28 Mg24 2.072 . S
O28 C38 1.260 . S
Mg29 O30 2.180 . S
Mg29 O31 2.030 . S
Mg29 O32 1.990 . S
Mg29 O33 2.117 . S
O30 Mg24 2.099 . S
O30 Mg29 2.180 . S
O30 C39 1.279 . S
O31 Mg29 2.030 . S
O31 C37 1.248 . S
O32 Mg29 1.990 . S
O32 C38 1.253 . S
O33 Mg29 2.117 . S
O33 C39 1.250 . S
C34 O40 1.248 . S
C34 O41 1.264 . S
C35 O21 1.253 . S
C35 O23 1.260 . S
C36 O25 1.279 . S
C36 O26 1.250 . S
C37 O27 1.264 . S
C37 O31 1.248 . S
C38 O28 1.260 . S
C38 O32 1.253 . S
C39 O30 1.279 . S
C39 O33 1.250 . S
O40 Mg22 2.030 . S
O40 C34 1.248 . S
O41 Mg24 2.079 . S
O41 C34 1.264 . S
O42 Mg43 1.990 . S
O42 C56 1.253 . S
Mg43 O42 1.990 . S
Mg43 O46 2.180 . S
Mg43 O47 2.117 . S
Mg43 O61 2.030 . S
O44 Mg45 2.082 . S
O44 C56 1.260 . S
Mg45 O44 2.082 . S
Mg45 O46 2.102 . S
Mg45 O48 2.069 1_455 S
Mg45 O49 2.063 1_455 S
Mg45 O51 2.096 1_455 S
Mg45 O62 2.088 . S
O46 Mg43 2.180 . S
O46 Mg45 2.102 . S
O46 C57 1.279 . S
O47 Mg43 2.117 . S
O47 C57 1.250 . S
O48 Mg45 2.069 1_655 S
O48 C58 1.264 . S
O49 Mg45 2.063 1_655 S
O49 C59 1.260 . S
Mg50 O51 2.180 . S
Mg50 O52 2.030 . S
Mg50 O53 1.990 . S
Mg50 O54 2.117 . S
O51 Mg45 2.096 1_655 S
O51 Mg50 2.180 . S
O51 C60 1.279 . S
O52 Mg50 2.030 . S
O52 C58 1.248 . S
O53 Mg50 1.990 . S
O53 C59 1.253 . S
O54 Mg50 2.117 . S
O54 C60 1.250 . S
C55 O61 1.248 . S
C55 O62 1.264 . S
C56 O42 1.253 . S
C56 O44 1.260 . S
C57 O46 1.279 . S
C57 O47 1.250 . S
C58 O48 1.264 . S
C58 O52 1.248 . S
C59 O49 1.260 . S
C59 O53 1.253 . S
C60 O51 1.279 . S
C60 O54 1.250 . S
O61 Mg43 2.030 . S
O61 C55 1.248 . S
O62 Mg45 2.088 . S
O62 C55 1.264 . S
O63 Mg64 1.990 . S
O63 C77 1.253 . S
Mg64 O63 1.990 . S
Mg64 O67 2.180 . S
Mg64 O68 2.117 . S
Mg64 O82 2.030 . S
O65 Mg66 2.072 . S
O65 C77 1.260 . S
Mg66 O65 2.072 . S
Mg66 O67 2.099 . S
Mg66 O69 2.079 . S
Mg66 O70 2.072 . S
Mg66 O72 2.099 . S
Mg66 O83 2.079 . S
O67 Mg64 2.180 . S
O67 Mg66 2.099 . S
O67 C78 1.279 . S
O68 Mg64 2.117 . S
O68 C78 1.250 . S
O69 Mg66 2.079 . S
O69 C79 1.264 . S
O70 Mg66 2.072 . S
O70 C80 1.260 . S
Mg71 O72 2.180 . S
Mg71 O73 2.030 . S
Mg71 O74 1.990 . S
Mg71 O75 2.117 . S
O72 Mg66 2.099 . S
O72 Mg71 2.180 . S
O72 C81 1.279 . S
O73 Mg71 2.030 . S
O73 C79 1.248 . S
O74 Mg71 1.990 . S
O74 C80 1.253 . S
O75 Mg71 2.117 . S
O75 C81 1.250 . S
C76 O82 1.248 . S
C76 O83 1.264 . S
C77 O63 1.253 . S
C77 O65 1.260 . S
C78 O67 1.279 . S
C78 O68 1.250 . S
C79 O69 1.264 . S
C79 O73 1.248 . S
C80 O70 1.260 . S
C80 O74 1.253 . S
C81 O72 1.279 . S
C81 O75 1.250 . S
O82 Mg64 2.030 . S
O82 C76 1.248 . S
O83 Mg66 2.079 . S
O83 C76 1.264 . S
C84 C85 1.170 . S
C84 C86 1.380 1_556 S
C85 C84 1.170 . S
C86 C84 1.380 1_554 S
C86 C87 1.170 . S
C87 C86 1.170 . S
C88 C89 1.170 . S
C88 C90 1.380 1_554 S
C89 C88 1.170 . S
C90 C88 1.380 1_556 S
C90 C91 1.170 . S
C91 C90 1.170 . S
C92 C93 1.170 . S
C92 C94 1.380 1_566 S
C93 C92 1.170 . S
C94 C92 1.380 1_544 S
C94 C95 1.170 . S
C95 C94 1.170 . S
C96 C97 1.170 . S
C96 C98 1.380 1_564 S
C97 C96 1.170 . S
C98 C96 1.380 1_546 S
C98 C99 1.170 . S
C99 C98 1.170 . S
C100 C101 1.170 . S
C100 C102 1.380 . S
C101 C100 1.170 . S
C102 C100 1.380 . S
C102 C103 1.170 . S
C103 C102 1.170 . S
C104 C105 1.170 . S
C104 C106 1.380 . S
C105 C104 1.170 . S
C106 C104 1.380 . S
C106 C107 1.170 . S
C107 C106 1.170 . S
C108 C109 1.170 . S
C108 C110 1.380 . S
C109 C108 1.170 . S
C110 C108 1.380 . S
C110 C111 1.170 . S
C111 C110 1.170 . S
C112 C113 1.170 . S
C112 C114 1.380 . S
C113 C112 1.170 . S
C114 C112 1.380 . S
C114 C115 1.170 . S
C115 C114 1.170 . S
C116 C117 1.170 . S
C116 C118 1.380 . S
C117 C116 1.170 . S
C118 C116 1.380 . S
C118 C119 1.170 . S
C119 C118 1.170 . S
C120 C121 1.170 . S
C120 C122 1.380 . S
C121 C120 1.170 . S
C122 C120 1.380 . S
C122 C123 1.170 . S
C123 C122 1.170 . S
C124 C125 1.170 . S
C124 C126 1.380 . S
C125 C124 1.170 . S
C126 C124 1.380 . S
C126 C127 1.170 1_554 S
C127 C126 1.170 1_556 S
C128 C129 1.170 . S
C128 C130 1.380 . S
C129 C128 1.170 . S
C130 C128 1.380 . S
C130 C131 1.170 . S
C131 C130 1.170 . S
C85 C57 1.733 1_655 S
C87 C15 1.701 1_655 S
C89 C39 1.739 . S
C91 C78 1.724 . S
C93 C81 1.677 . S
C95 C36 1.690 . S
C97 C18 1.694 1_455 S
C99 C60 1.676 1_455 S
C101 C76 1.473 . S
C103 C13 1.478 . S
C105 C55 1.468 . S
C107 C37 1.456 . S
C109 C58 1.471 . S
C111 C34 1.459 . S
C113 C16 1.464 . S
C115 C79 1.474 . S
C117 C77 0.994 1_554 S
C119 C14 0.959 . S
C121 C56 1.003 1_554 S
C123 C38 0.954 . S
C125 C35 1.008 . S
C127 C59 1.020 . S
C129 C17 1.030 1_556 S
C131 C80 0.948 . S
