# Generated by pormake.
# Topology acs, (6)-cn, num edge types: 1
# Building blocks:
#     Node 0, Type 0, BuildingBlock: IZENUY_clean_sbu_0, # of connection points: 6
#     Node 1, Type 0, BuildingBlock: IZENUY_clean_sbu_0, # of connection points: 6
#     Edge 2, Type (0, 0), BuildingBlock: XUDNAN_clean_linker_2, # of connection points: 2
#     Edge 3, Type (0, 0), BuildingBlock: XUDNAN_clean_linker_2, # of connection points: 2
#     Edge 4, Type (0, 0), BuildingBlock: XUDNAN_clean_linker_2, # of connection points: 2
#     Edge 5, Type (0, 0), BuildingBlock: XUDNAN_clean_linker_2, # of connection points: 2
#     Edge 6, Type (0, 0), BuildingBlock: XUDNAN_clean_linker_2, # of connection points: 2
#     Edge 7, Type (0, 0), BuildingBlock: XUDNAN_clean_linker_2, # of connection points: 2
# Relax obj value: 0.000
# Max RMSD: 0.012
# Mean RMSD: 0.012
data_MOF--net-acs--node1-IZENUY_clean_sbu_0--edge1-XUDNAN_clean_linker_2
_symmetry_space_group_name_H-M    P1
_symmetry_Int_Tables_number       1
_symmetry_cell_setting            triclinic
loop_
_symmetry_equiv_pos_as_xyz
'x, y, z'
_cell_length_a     20.950692
_cell_length_b     20.800551
_cell_length_c     19.962969
_cell_angle_alpha  90.051596
_cell_angle_beta   89.978852
_cell_angle_gamma 120.20445
loop_
_atom_site_label
_atom_site_type_symbol
_atom_site_fract_x
_atom_site_fract_y
_atom_site_fract_z
_atom_type_partial_charge
Fe0 Fe 0.63379 0.3377 0.25584 0.0
Fe1 Fe 0.7752 0.32776 0.25681 0.0
O2 O 0.73139 0.38103 0.24808 0.0
Fe3 Fe 0.7857 0.47746 0.2313 0.0
O4 O 0.72632 0.503 0.27743 0.0
O5 O 0.64166 0.39923 0.32432 0.0
O6 O 0.6265 0.2704 0.3199 0.0
C7 C 0.67472 0.2706 0.35855 0.0
C8 C 0.66765 0.43801 0.14768 0.0
O9 O 0.74215 0.30365 0.34221 0.0
C10 C 0.85206 0.41494 0.15059 0.0
O11 O 0.61829 0.27249 0.18772 0.0
O12 O 0.69758 0.24145 0.22497 0.0
O13 O 0.73661 0.46674 0.15375 0.0
O14 O 0.62403 0.39746 0.19343 0.0
C15 C 0.87694 0.46374 0.31953 0.0
O16 O 0.81103 0.34924 0.17155 0.0
O17 O 0.85479 0.46953 0.18134 0.0
C18 C 0.64352 0.22866 0.18806 0.0
O19 O 0.86143 0.40359 0.29053 0.0
O20 O 0.83963 0.49488 0.30802 0.0
C21 C 0.67796 0.46946 0.3221 0.0
Fe22 Fe 0.49425 0.76686 0.76059 0.0
Fe23 Fe 0.34382 0.75847 0.75357 0.0
O24 O 0.39764 0.71439 0.74848 0.0
Fe25 Fe 0.35552 0.61807 0.73106 0.0
O26 O 0.38859 0.59941 0.80927 0.0
O27 O 0.50254 0.69023 0.79551 0.0
O28 O 0.48196 0.79036 0.8453 0.0
C29 C 0.44753 0.82394 0.8597 0.0
C30 C 0.48753 0.68037 0.65487 0.0
O31 O 0.40169 0.82522 0.81895 0.0
C32 C 0.28049 0.65873 0.64432 0.0
O33 O 0.50492 0.85372 0.728 0.0
O34 O 0.39651 0.82378 0.68651 0.0
O35 O 0.43411 0.6257 0.68396 0.0
O36 O 0.51194 0.74592 0.67626 0.0
C37 C 0.25297 0.62649 0.81797 0.0
O38 O 0.27643 0.69945 0.6894 0.0
O39 O 0.32039 0.62981 0.65201 0.0
C40 C 0.46561 0.86694 0.68879 0.0
O41 O 0.28733 0.69673 0.82077 0.0
O42 O 0.26911 0.59297 0.77423 0.0
C43 C 0.45643 0.62989 0.8232 0.0
H44 H 0.44308 0.95235 0.88009 0.0
H45 H 0.50273 0.80257 0.97564 0.0
H46 H 0.54779 0.8852 0.07437 0.0
H47 H 0.60109 0.11699 0.93152 0.0
H48 H 0.55524 0.16967 0.94445 0.0
H49 H 0.51894 0.09469 0.88465 0.0
H50 H 0.39247 1.03248 0.94524 0.0
H51 H 0.42838 0.10747 0.00525 0.0
H52 H 0.38809 1.01263 0.03356 0.0
H53 H 0.59464 0.98648 0.15772 0.0
H54 H 0.64512 0.10323 0.22104 0.0
H55 H 0.55881 0.19192 0.07227 0.0
C56 C 0.46405 0.93619 0.92252 0.0
C57 C 0.46879 0.87065 0.92065 0.0
C58 C 0.49845 0.85235 0.97622 0.0
C59 C 0.52385 0.89877 0.03256 0.0
C60 C 0.5196 0.96352 0.03241 0.0
C61 C 0.49066 0.98255 0.97894 0.0
C62 C 0.49844 0.05856 0.98952 0.0
C63 C 0.54628 0.11319 0.93426 0.0
C64 C 0.4223 0.05238 0.99365 0.0
C65 C 0.5375 0.07977 0.0568 0.0
C66 C 0.54824 1.02349 0.08066 0.0
C67 C 0.58608 1.03069 0.13989 0.0
C68 C 0.61485 0.09753 0.17533 0.0
C69 C 0.606 0.15685 0.15161 0.0
C70 C 0.56559 0.14725 0.09204 0.0
H71 H 0.45457 0.54427 0.60589 0.0
H72 H 0.60843 0.78071 0.58139 0.0
H73 H 0.67407 0.75216 0.49364 0.0
H74 H 0.58597 0.48435 0.58654 0.0
H75 H 0.5234 0.40075 0.54167 0.0
H76 H 0.48792 0.44003 0.60124 0.0
H77 H 0.4033 0.44589 0.5097 0.0
H78 H 0.43827 0.40636 0.44987 0.0
H79 H 0.44344 0.49384 0.43225 0.0
H80 H 0.72317 0.69707 0.40956 0.0
H81 H 0.75175 0.62093 0.33448 0.0
H82 H 0.56564 0.42015 0.41536 0.0
C83 C 0.50191 0.59036 0.58208 0.0
C84 C 0.52636 0.66491 0.60065 0.0
C85 C 0.58866 0.72324 0.56807 0.0
C86 C 0.62628 0.70752 0.51824 0.0
C87 C 0.60087 0.63328 0.50171 0.0
C88 C 0.54004 0.57572 0.53262 0.0
C89 C 0.52407 0.50073 0.50625 0.0
C90 C 0.53076 0.45372 0.56227 0.0
C91 C 0.44775 0.45929 0.4725 0.0
C92 C 0.58557 0.52492 0.45549 0.0
C93 C 0.6292 0.60159 0.45362 0.0
C94 C 0.6893 0.63705 0.41056 0.0
C95 C 0.705 0.59312 0.36804 0.0
C96 C 0.66084 0.51433 0.36876 0.0
C97 C 0.60054 0.48008 0.4135 0.0
H98 H 0.95736 0.55136 0.10434 0.0
H99 H 0.86728 0.31471 0.07145 0.0
H100 H 0.95951 0.34344 0.9818 0.0
H101 H 0.99673 0.60821 0.93162 0.0
H102 H 0.0809 0.69322 0.95109 0.0
H103 H 1.0066 0.65363 0.01105 0.0
H104 H 0.09563 0.65208 0.10031 0.0
H105 H 0.17015 0.6914 0.04062 0.0
H106 H 0.14628 0.6052 0.08205 0.0
H107 H 0.06329 0.39863 0.89754 0.0
H108 H 0.16951 0.47479 0.82426 0.0
H109 H 0.19208 0.67576 0.91361 0.0
C110 C 0.95645 0.50527 0.0782 0.0
C111 C 0.90487 0.43058 0.09502 0.0
C112 C 0.90615 0.37227 0.05951 0.0
C113 C 0.95833 0.3881 0.00856 0.0
C114 C 1.00872 0.46242 0.99386 0.0
C115 C 1.00806 0.51999 0.02762 0.0
C116 C 0.06879 0.59506 0.0032 0.0
C117 C 1.03629 0.64017 0.9724 0.0
C118 C 0.12344 0.63847 0.05993 0.0
C119 C 0.10412 0.57089 0.95033 0.0
C120 C 0.06855 0.49417 0.94567 0.0
C121 C 0.09138 0.4587 0.90066 0.0
C122 C 0.15193 0.50267 0.85922 0.0
C123 C 0.18932 0.58154 0.8629 0.0
C124 C 0.16484 0.61579 0.90936 0.0
H125 H 0.41624 0.90717 0.57587 0.0
H126 H 0.59931 0.98755 0.71601 0.0
H127 H 0.66755 0.10268 0.6512 0.0
H128 H 0.52566 0.97523 0.4301 0.0
H129 H 0.46682 1.00213 0.38759 0.0
H130 H 0.42809 0.92788 0.44801 0.0
H131 H 0.37402 0.99656 0.51451 0.0
H132 H 0.4125 0.07105 0.45412 0.0
H133 H 0.43443 0.09096 0.54172 0.0
H134 H 0.72159 0.20369 0.56767 0.0
H135 H 0.75687 0.28712 0.46981 0.0
H136 H 0.53989 0.14595 0.38313 0.0
C137 C 0.47007 0.94964 0.59343 0.0
C138 C 0.50226 0.93802 0.65109 0.0
C139 C 0.57341 0.99463 0.67188 0.0
C140 C 0.61271 0.06062 0.63556 0.0
C141 C 0.58035 0.06984 0.57843 0.0
C142 C 0.51058 1.01636 0.55741 0.0
C143 C 0.49087 0.03939 0.49198 0.0
C144 C 0.47707 0.98279 0.43613 0.0
C145 C 0.42398 0.05013 0.50116 0.0
C146 C 0.561 0.11313 0.47923 0.0
C147 C 0.61163 0.12956 0.53003 0.0
C148 C 0.68211 0.19212 0.52794 0.0
C149 C 0.70176 0.23903 0.4721 0.0
C150 C 0.65102 0.22343 0.41924 0.0
C151 C 0.57938 0.16007 0.42341 0.0
H152 H 0.41196 0.55465 0.94413 0.0
H153 H 0.56999 0.61431 0.78218 0.0
H154 H 0.63338 0.56033 0.84392 0.0
H155 H 0.53997 0.60254 0.07376 0.0
H156 H 0.4815 0.52747 0.12938 0.0
H157 H 0.44099 0.56086 0.06924 0.0
H158 H 0.36258 0.4279 0.0208 0.0
H159 H 0.40253 0.39393 0.08121 0.0
H160 H 0.4077 0.3782 0.99307 0.0
H161 H 0.68886 0.5155 0.92617 0.0
H162 H 0.73165 0.47683 0.02493 0.0
H163 H 0.53905 0.44321 0.13607 0.0
C164 C 0.45861 0.55421 0.92124 0.0
C165 C 0.48606 0.58822 0.8584 0.0
C166 C 0.54833 0.58856 0.83039 0.0
C167 C 0.58453 0.5578 0.8649 0.0
C168 C 0.55788 0.52673 0.92755 0.0
C169 C 0.49615 0.52403 0.95558 0.0
C170 C 0.48328 0.49253 0.02613 0.0
C171 C 0.48666 0.54925 0.07765 0.0
C172 C 0.40964 0.41874 0.03054 0.0
C173 C 0.54854 0.48021 0.03363 0.0
C174 C 0.59033 0.4999 0.97578 0.0
C175 C 0.65604 0.49867 0.97147 0.0
C176 C 0.68011 0.47705 0.02793 0.0
C177 C 0.6385 0.45662 0.08793 0.0
C178 C 0.57129 0.45731 0.09045 0.0
H179 H 0.15036 0.66016 0.62845 0.0
H180 H 0.30283 0.61063 0.52471 0.0
H181 H 0.22081 0.56841 0.42632 0.0
H182 H 0.98887 0.50217 0.57315 0.0
H183 H 0.9348 0.54696 0.5637 0.0
H184 H 1.00932 0.58243 0.62331 0.0
H185 H 0.06864 0.71214 0.56723 0.0
H186 H 0.99412 0.67705 0.50738 0.0
H187 H 0.08841 0.72063 0.47873 0.0
H188 H 0.11991 0.52128 0.34447 0.0
H189 H 1.00281 0.46849 0.28261 0.0
H190 H 0.91171 0.54647 0.4367 0.0
C191 C 0.16711 0.64193 0.58441 0.0
C192 C 0.23321 0.639 0.58405 0.0
C193 C 0.2525 0.61328 0.52612 0.0
C194 C 0.20647 0.58957 0.46985 0.0
C195 C 0.14121 0.59184 0.47217 0.0
C196 C 0.12125 0.6173 0.52774 0.0
C197 C 1.045 0.60802 0.51864 0.0
C198 C 0.99135 0.55684 0.57292 0.0
C199 C 1.04933 0.684 0.51795 0.0
C200 C 1.0246 0.57152 0.45005 0.0
C201 C 0.08163 0.56374 0.42417 0.0
C202 C 0.07519 0.52778 0.36373 0.0
C203 C 1.0083 0.4977 0.32917 0.0
C204 C 0.94842 0.5036 0.3549 0.0
C205 C 0.95711 0.54235 0.41551 0.0
loop_
_geom_bond_atom_site_label_1
_geom_bond_atom_site_label_2
_geom_bond_distance
_geom_bond_site_symmetry_2
_ccdc_geom_bond_type
Fe0 O2 1.918 . S
Fe0 O5 1.997 . S
Fe0 O6 2.002 . S
Fe0 O11 1.976 . S
Fe0 O14 1.996 . S
Fe1 O2 1.918 . S
Fe1 O9 1.997 . S
Fe1 O12 1.996 . S
Fe1 O16 1.976 . S
Fe1 O19 2.002 . S
O2 Fe0 1.918 . S
O2 Fe1 1.918 . S
O2 Fe3 1.918 . S
Fe3 O2 1.918 . S
Fe3 O4 2.002 . S
Fe3 O13 1.976 . S
Fe3 O17 1.996 . S
Fe3 O20 1.997 . S
O4 Fe3 2.002 . S
O4 C21 1.295 . S
O5 Fe0 1.997 . S
O5 C21 1.235 . S
O6 Fe0 2.002 . S
O6 C7 1.295 . S
C7 O6 1.295 . S
C7 O9 1.235 . S
C8 O13 1.287 . S
C8 O14 1.255 . S
O9 Fe1 1.997 . S
O9 C7 1.235 . S
C10 O16 1.287 . S
C10 O17 1.255 . S
O11 Fe0 1.976 . S
O11 C18 1.287 . S
O12 Fe1 1.996 . S
O12 C18 1.255 . S
O13 Fe3 1.976 . S
O13 C8 1.287 . S
O14 Fe0 1.996 . S
O14 C8 1.255 . S
C15 O19 1.295 . S
C15 O20 1.235 . S
O16 Fe1 1.976 . S
O16 C10 1.287 . S
O17 Fe3 1.996 . S
O17 C10 1.255 . S
C18 O11 1.287 . S
C18 O12 1.255 . S
O19 Fe1 2.002 . S
O19 C15 1.295 . S
O20 Fe3 1.997 . S
O20 C15 1.235 . S
C21 O4 1.295 . S
C21 O5 1.235 . S
Fe22 O24 1.918 . S
Fe22 O27 1.997 . S
Fe22 O28 2.002 . S
Fe22 O33 1.976 . S
Fe22 O36 1.996 . S
Fe23 O24 1.918 . S
Fe23 O31 1.997 . S
Fe23 O34 1.996 . S
Fe23 O38 1.976 . S
Fe23 O41 2.002 . S
O24 Fe22 1.918 . S
O24 Fe23 1.918 . S
O24 Fe25 1.918 . S
Fe25 O24 1.918 . S
Fe25 O26 2.002 . S
Fe25 O35 1.976 . S
Fe25 O39 1.996 . S
Fe25 O42 1.997 . S
O26 Fe25 2.002 . S
O26 C43 1.295 . S
O27 Fe22 1.997 . S
O27 C43 1.235 . S
O28 Fe22 2.002 . S
O28 C29 1.295 . S
C29 O28 1.295 . S
C29 O31 1.235 . S
C30 O35 1.287 . S
C30 O36 1.255 . S
O31 Fe23 1.997 . S
O31 C29 1.235 . S
C32 O38 1.287 . S
C32 O39 1.255 . S
O33 Fe22 1.976 . S
O33 C40 1.287 . S
O34 Fe23 1.996 . S
O34 C40 1.255 . S
O35 Fe25 1.976 . S
O35 C30 1.287 . S
O36 Fe22 1.996 . S
O36 C30 1.255 . S
C37 O41 1.295 . S
C37 O42 1.235 . S
O38 Fe23 1.976 . S
O38 C32 1.287 . S
O39 Fe25 1.996 . S
O39 C32 1.255 . S
C40 O33 1.287 . S
C40 O34 1.255 . S
O41 Fe23 2.002 . S
O41 C37 1.295 . S
O42 Fe25 1.997 . S
O42 C37 1.235 . S
C43 O26 1.295 . S
C43 O27 1.235 . S
H44 C56 0.930 . S
H45 C58 0.930 . S
H46 C59 0.930 . S
H47 C63 0.959 . S
H48 C63 0.959 . S
H49 C63 0.961 . S
H50 C64 0.960 . S
H51 C64 0.961 . S
H52 C64 0.959 . S
H53 C67 0.929 1_565 S
H54 C68 0.931 . S
H55 C70 0.930 . S
C56 H44 0.930 . S
C56 C57 1.399 . S
C56 C61 1.399 . S
C57 C56 1.399 . S
C57 C58 1.376 . S
C58 H45 0.930 . S
C58 C57 1.376 . S
C58 C59 1.388 1_556 S
C59 H46 0.930 . S
C59 C58 1.388 1_554 S
C59 C60 1.390 . S
C60 C59 1.390 . S
C60 C61 1.394 1_554 S
C60 C66 1.465 1_565 S
C61 C56 1.399 . S
C61 C60 1.394 1_556 S
C61 C62 1.516 1_565 S
C62 C61 1.516 1_545 S
C62 C63 1.502 . S
C62 C64 1.561 . S
C62 C65 1.526 1_556 S
C63 H47 0.959 . S
C63 H48 0.959 . S
C63 H49 0.961 . S
C63 C62 1.502 . S
C64 H50 0.960 . S
C64 H51 0.961 . S
C64 H52 0.959 . S
C64 C62 1.561 . S
C65 C62 1.526 1_554 S
C65 C66 1.396 . S
C65 C70 1.390 . S
C66 C60 1.465 1_545 S
C66 C65 1.396 . S
C66 C67 1.399 . S
C67 H53 0.929 1_545 S
C67 C66 1.399 . S
C67 C68 1.385 . S
C68 H54 0.931 . S
C68 C67 1.385 . S
C68 C69 1.389 . S
C69 C68 1.389 . S
C69 C70 1.387 . S
C70 H55 0.930 . S
C70 C65 1.390 . S
C70 C69 1.387 . S
H71 C83 0.930 . S
H72 C85 0.930 . S
H73 C86 0.930 . S
H74 C90 0.959 . S
H75 C90 0.959 . S
H76 C90 0.961 . S
H77 C91 0.960 . S
H78 C91 0.961 . S
H79 C91 0.959 . S
H80 C94 0.929 . S
H81 C95 0.931 . S
H82 C97 0.930 . S
C83 H71 0.930 . S
C83 C84 1.399 . S
C83 C88 1.399 . S
C84 C83 1.399 . S
C84 C85 1.376 . S
C85 H72 0.930 . S
C85 C84 1.376 . S
C85 C86 1.388 . S
C86 H73 0.930 . S
C86 C85 1.388 . S
C86 C87 1.390 . S
C87 C86 1.390 . S
C87 C88 1.394 . S
C87 C93 1.465 . S
C88 C83 1.399 . S
C88 C87 1.394 . S
C88 C89 1.516 . S
C89 C88 1.516 . S
C89 C90 1.502 . S
C89 C91 1.561 . S
C89 C92 1.526 . S
C90 H74 0.959 . S
C90 H75 0.959 . S
C90 H76 0.961 . S
C90 C89 1.502 . S
C91 H77 0.960 . S
C91 H78 0.961 . S
C91 H79 0.959 . S
C91 C89 1.561 . S
C92 C89 1.526 . S
C92 C93 1.396 . S
C92 C97 1.390 . S
C93 C87 1.465 . S
C93 C92 1.396 . S
C93 C94 1.399 . S
C94 H80 0.929 . S
C94 C93 1.399 . S
C94 C95 1.385 . S
C95 H81 0.931 . S
C95 C94 1.385 . S
C95 C96 1.389 . S
C96 C95 1.389 . S
C96 C97 1.387 . S
C97 H82 0.930 . S
C97 C92 1.390 . S
C97 C96 1.387 . S
H98 C110 0.930 . S
H99 C112 0.930 . S
H100 C113 0.930 1_556 S
H101 C117 0.964 . S
H102 C117 0.959 . S
H103 C117 0.961 . S
H104 C118 0.960 . S
H105 C118 0.961 . S
H106 C118 0.959 . S
H107 C121 0.929 . S
H108 C122 0.931 . S
H109 C124 0.930 . S
C110 H98 0.930 . S
C110 C111 1.399 . S
C110 C115 1.399 . S
C111 C110 1.399 . S
C111 C112 1.376 . S
C112 H99 0.930 . S
C112 C111 1.376 . S
C112 C113 1.388 . S
C113 H100 0.930 1_554 S
C113 C112 1.388 . S
C113 C114 1.390 . S
C114 C113 1.390 . S
C114 C115 1.394 . S
C114 C120 1.465 1_654 S
C115 C110 1.399 . S
C115 C114 1.394 . S
C115 C116 1.516 1_655 S
C116 C115 1.516 1_455 S
C116 C117 1.502 . S
C116 C118 1.561 . S
C116 C119 1.526 1_554 S
C117 H101 0.964 . S
C117 H102 0.959 . S
C117 H103 0.961 . S
C117 C116 1.502 . S
C118 H104 0.960 . S
C118 H105 0.961 . S
C118 H106 0.959 . S
C118 C116 1.561 . S
C119 C116 1.526 1_556 S
C119 C120 1.396 . S
C119 C124 1.390 . S
C120 C114 1.465 1_456 S
C120 C119 1.396 . S
C120 C121 1.399 . S
C121 H107 0.929 . S
C121 C120 1.399 . S
C121 C122 1.385 . S
C122 H108 0.931 . S
C122 C121 1.385 . S
C122 C123 1.389 . S
C123 C122 1.389 . S
C123 C124 1.387 . S
C124 H109 0.930 . S
C124 C119 1.390 . S
C124 C123 1.387 . S
H125 C137 0.930 . S
H126 C139 0.930 . S
H127 C140 0.930 . S
H128 C144 0.959 . S
H129 C144 0.959 . S
H130 C144 0.961 . S
H131 C145 0.960 . S
H132 C145 0.961 . S
H133 C145 0.959 . S
H134 C148 0.929 1_565 S
H135 C149 0.931 . S
H136 C151 0.930 . S
C137 H125 0.930 . S
C137 C138 1.399 . S
C137 C142 1.399 . S
C138 C137 1.399 . S
C138 C139 1.376 . S
C139 H126 0.930 . S
C139 C138 1.376 . S
C139 C140 1.388 . S
C140 H127 0.930 . S
C140 C139 1.388 . S
C140 C141 1.390 . S
C141 C140 1.390 . S
C141 C142 1.394 . S
C141 C147 1.465 1_565 S
C142 C137 1.399 . S
C142 C141 1.394 . S
C142 C143 1.516 1_565 S
C143 C142 1.516 1_545 S
C143 C144 1.502 . S
C143 C145 1.561 . S
C143 C146 1.526 . S
C144 H128 0.959 . S
C144 H129 0.959 . S
C144 H130 0.961 . S
C144 C143 1.502 . S
C145 H131 0.960 . S
C145 H132 0.961 . S
C145 H133 0.959 . S
C145 C143 1.561 . S
C146 C143 1.526 . S
C146 C147 1.396 . S
C146 C151 1.390 . S
C147 C141 1.465 1_545 S
C147 C146 1.396 . S
C147 C148 1.399 . S
C148 H134 0.929 1_545 S
C148 C147 1.399 . S
C148 C149 1.385 . S
C149 H135 0.931 . S
C149 C148 1.385 . S
C149 C150 1.389 . S
C150 C149 1.389 . S
C150 C151 1.387 . S
C151 H136 0.930 . S
C151 C146 1.390 . S
C151 C150 1.387 . S
H152 C164 0.930 . S
H153 C166 0.930 . S
H154 C167 0.930 . S
H155 C171 0.959 . S
H156 C171 0.959 . S
H157 C171 0.961 . S
H158 C172 0.960 . S
H159 C172 0.961 . S
H160 C172 0.959 . S
H161 C175 0.929 . S
H162 C176 0.931 . S
H163 C178 0.930 . S
C164 H152 0.930 . S
C164 C165 1.399 . S
C164 C169 1.399 . S
C165 C164 1.399 . S
C165 C166 1.376 . S
C166 H153 0.930 . S
C166 C165 1.376 . S
C166 C167 1.388 . S
C167 H154 0.930 . S
C167 C166 1.388 . S
C167 C168 1.390 . S
C168 C167 1.390 . S
C168 C169 1.394 . S
C168 C174 1.465 . S
C169 C164 1.399 . S
C169 C168 1.394 . S
C169 C170 1.516 1_556 S
C170 C169 1.516 1_554 S
C170 C171 1.502 . S
C170 C172 1.561 . S
C170 C173 1.526 . S
C171 H155 0.959 . S
C171 H156 0.959 . S
C171 H157 0.961 . S
C171 C170 1.502 . S
C172 H158 0.960 . S
C172 H159 0.961 . S
C172 H160 0.959 . S
C172 C170 1.561 . S
C173 C170 1.526 . S
C173 C174 1.396 1_554 S
C173 C178 1.390 . S
C174 C168 1.465 . S
C174 C173 1.396 1_556 S
C174 C175 1.399 . S
C175 H161 0.929 . S
C175 C174 1.399 . S
C175 C176 1.385 1_556 S
C176 H162 0.931 . S
C176 C175 1.385 1_554 S
C176 C177 1.389 . S
C177 C176 1.389 . S
C177 C178 1.387 . S
C178 H163 0.930 . S
C178 C173 1.390 . S
C178 C177 1.387 . S
H179 C191 0.930 . S
H180 C193 0.930 . S
H181 C194 0.930 . S
H182 C198 0.959 . S
H183 C198 0.959 . S
H184 C198 0.962 . S
H185 C199 0.960 . S
H186 C199 0.961 . S
H187 C199 0.959 . S
H188 C202 0.929 . S
H189 C203 0.931 . S
H190 C205 0.930 . S
C191 H179 0.930 . S
C191 C192 1.399 . S
C191 C196 1.399 . S
C192 C191 1.399 . S
C192 C193 1.376 . S
C193 H180 0.930 . S
C193 C192 1.376 . S
C193 C194 1.388 . S
C194 H181 0.930 . S
C194 C193 1.388 . S
C194 C195 1.390 . S
C195 C194 1.390 . S
C195 C196 1.394 . S
C195 C201 1.465 1_455 S
C196 C191 1.399 . S
C196 C195 1.394 . S
C196 C197 1.516 . S
C197 C196 1.516 . S
C197 C198 1.502 1_455 S
C197 C199 1.561 . S
C197 C200 1.526 1_455 S
C198 H182 0.959 . S
C198 H183 0.959 . S
C198 H184 0.962 . S
C198 C197 1.502 1_655 S
C199 H185 0.960 . S
C199 H186 0.961 . S
C199 H187 0.959 . S
C199 C197 1.561 . S
C200 C197 1.526 1_655 S
C200 C201 1.396 . S
C200 C205 1.390 . S
C201 C195 1.465 1_655 S
C201 C200 1.396 . S
C201 C202 1.399 . S
C202 H188 0.929 . S
C202 C201 1.399 . S
C202 C203 1.385 . S
C203 H189 0.931 . S
C203 C202 1.385 . S
C203 C204 1.389 . S
C204 C203 1.389 . S
C204 C205 1.387 . S
C205 H190 0.930 . S
C205 C200 1.390 . S
C205 C204 1.387 . S
C57 C29 1.499 . S
C69 C18 1.484 . S
C84 C30 1.483 . S
C96 C21 1.499 . S
C111 C10 1.495 . S
C123 C37 1.473 . S
C138 C40 1.498 . S
C150 C7 1.465 . S
C165 C43 1.463 . S
C177 C8 1.498 . S
C192 C32 1.492 . S
C204 C15 1.477 . S
