# Generated by pormake.
# Topology uol, (4)-cn, num edge types: 1
# Building blocks:
#     Node 0, Type 0, BuildingBlock: MUDLON_clean_sbu_0, # of connection points: 4
#     Node 1, Type 0, BuildingBlock: MUDLON_clean_sbu_0, # of connection points: 4
#     Node 2, Type 0, BuildingBlock: MUDLON_clean_sbu_0, # of connection points: 4
#     Node 3, Type 0, BuildingBlock: MUDLON_clean_sbu_0, # of connection points: 4
#     Node 4, Type 0, BuildingBlock: MUDLON_clean_sbu_0, # of connection points: 4
#     Node 5, Type 0, BuildingBlock: MUDLON_clean_sbu_0, # of connection points: 4
#     Node 6, Type 0, BuildingBlock: MUDLON_clean_sbu_0, # of connection points: 4
#     Node 7, Type 0, BuildingBlock: MUDLON_clean_sbu_0, # of connection points: 4
#     Node 8, Type 0, BuildingBlock: MUDLON_clean_sbu_0, # of connection points: 4
#     Node 9, Type 0, BuildingBlock: MUDLON_clean_sbu_0, # of connection points: 4
#     Node 10, Type 0, BuildingBlock: MUDLON_clean_sbu_0, # of connection points: 4
#     Node 11, Type 0, BuildingBlock: MUDLON_clean_sbu_0, # of connection points: 4
#     Edge 12, Type (0, 0), None
#     Edge 13, Type (0, 0), None
#     Edge 14, Type (0, 0), None
#     Edge 15, Type (0, 0), None
#     Edge 16, Type (0, 0), None
#     Edge 17, Type (0, 0), None
#     Edge 18, Type (0, 0), None
#     Edge 19, Type (0, 0), None
#     Edge 20, Type (0, 0), None
#     Edge 21, Type (0, 0), None
#     Edge 22, Type (0, 0), None
#     Edge 23, Type (0, 0), None
#     Edge 24, Type (0, 0), None
#     Edge 25, Type (0, 0), None
#     Edge 26, Type (0, 0), None
#     Edge 27, Type (0, 0), None
#     Edge 28, Type (0, 0), None
#     Edge 29, Type (0, 0), None
#     Edge 30, Type (0, 0), None
#     Edge 31, Type (0, 0), None
#     Edge 32, Type (0, 0), None
#     Edge 33, Type (0, 0), None
#     Edge 34, Type (0, 0), None
#     Edge 35, Type (0, 0), None
# Relax obj value: 0.129
# Max RMSD: 0.265
# Mean RMSD: 0.265
data_MOF--net-uol--node1-MUDLON_clean_sbu_0--edge1-none
_symmetry_space_group_name_H-M    P1
_symmetry_Int_Tables_number       1
_symmetry_cell_setting            triclinic
loop_
_symmetry_equiv_pos_as_xyz
'x, y, z'
_cell_length_a     15.342195
_cell_length_b     16.331307
_cell_length_c     30.963898
_cell_angle_alpha  89.999967
_cell_angle_beta   89.99999
_cell_angle_gamma 118.01805
loop_
_atom_site_label
_atom_site_type_symbol
_atom_site_fract_x
_atom_site_fract_y
_atom_site_fract_z
_atom_type_partial_charge
Mg0 Mg 0.12988 0.31395 0.15276 0.0
C1 C 0.98149 0.20051 0.21955 0.0
O2 O 0.05393 0.1822 0.22911 0.0
C3 C 0.19666 0.25841 0.07102 0.0
O4 O 0.2308 0.3471 1.06278 0.0
C5 C 0.19128 0.51775 0.14405 0.0
O6 O 0.23192 0.52025 0.18169 0.0
O7 O 0.14655 0.44129 0.12399 0.0
O8 O 0.9888 0.24929 0.18639 0.0
O9 O 0.23495 0.33799 0.20439 0.0
C10 C 0.30284 0.31486 0.20052 0.0
O11 O 0.32089 0.29112 0.16236 0.0
O12 O 0.14701 0.22434 0.10529 0.0
Mg13 Mg 0.81389 0.13699 0.34237 0.0
C14 C 0.99266 0.28644 0.38706 0.0
O15 O 0.03328 0.28814 0.34951 0.0
C16 C 0.60407 0.07277 0.31884 0.0
O17 O 0.60531 -0.00648 0.32394 0.0
C18 C 0.90212 0.17886 0.25106 0.0
O19 O 0.83425 0.20474 0.244 0.0
O20 O 0.90756 0.14684 0.28781 0.0
O21 O 0.90001 0.2372 0.39147 0.0
O22 O 0.76744 0.00724 0.37653 0.0
C23 C 0.82947 -0.00514 0.39913 0.0
O24 O 0.92306 0.05705 0.39824 0.0
O25 O 0.68336 0.14822 0.32388 0.0
Mg26 Mg 0.64001 0.78268 0.49321 0.0
C27 C 0.66656 0.95164 0.54371 0.0
O28 O 0.69376 -0.00895 0.50567 0.0
C29 C 0.45635 0.59967 0.4984 0.0
O30 O 0.50078 0.59413 0.53369 0.0
C31 C 0.7942 0.92076 0.43155 0.0
O32 O 0.85655 0.91458 0.45872 0.0
O33 O 0.702 0.87196 0.43753 0.0
O34 O 0.63408 0.86463 0.54724 0.0
O35 O 0.72696 0.71796 0.51628 0.0
C36 C 0.79095 0.75701 0.5458 0.0
O37 O 0.81144 0.84074 0.55872 0.0
O38 O 0.49588 0.6728 0.47563 0.0
Mg39 Mg 0.89315 0.64689 0.65276 0.0
C40 C 0.04154 0.76033 0.71955 0.0
O41 O 0.9691 0.77863 0.72911 0.0
C42 C 0.82637 0.70241 0.57102 0.0
O43 O 0.79224 0.61373 0.56277 0.0
C44 C 0.83175 0.44309 0.64405 0.0
O45 O 0.79111 0.44058 0.68169 0.0
O46 O 0.87648 0.51955 0.62399 0.0
O47 O 0.03423 0.71155 0.68639 0.0
O48 O 0.78809 0.62285 0.70439 0.0
C49 C 0.72019 0.64597 0.70052 0.0
O50 O 0.70214 0.66972 0.66236 0.0
O51 O 0.87601 0.73649 0.60529 0.0
Mg52 Mg 0.20915 0.82385 0.84237 0.0
C53 C 0.03038 0.6744 0.88706 0.0
O54 O 0.98975 0.6727 0.84951 0.0
C55 C 0.41896 0.88807 0.81885 0.0
O56 O 0.41773 0.96732 0.82395 0.0
C57 C 0.12091 0.78198 0.75106 0.0
O58 O 0.18879 0.75611 0.744 0.0
O59 O 0.11547 0.814 0.78781 0.0
O60 O 0.12303 0.72364 0.89147 0.0
O61 O 0.25559 0.9536 0.87653 0.0
C62 C 0.19357 0.96598 0.89913 0.0
O63 O 0.09997 0.90379 0.89824 0.0
O64 O 0.33967 0.81262 0.82388 0.0
Mg65 Mg 0.38303 0.17816 0.99321 0.0
C66 C 0.35647 0.0092 1.04371 0.0
O67 O 0.32927 0.96979 1.00567 0.0
C68 C 0.56669 0.36117 0.9984 0.0
O69 O 0.52225 0.36671 1.03369 0.0
C70 C 0.22884 0.04008 0.93155 0.0
O71 O 0.16649 0.04626 0.95872 0.0
O72 O 0.32103 0.08888 0.93753 0.0
O73 O 0.38895 0.09621 1.04724 0.0
O74 O 0.29607 0.24288 1.01629 0.0
C75 C 0.23208 0.20382 1.04581 0.0
O76 O 0.21158 0.12008 1.05872 0.0
O77 O 0.52716 0.28804 0.97563 0.0
Mg78 Mg 0.65733 0.82387 0.78404 0.0
C79 C 0.68662 0.6744 0.73937 0.0
O80 O 0.72552 0.67264 0.77691 0.0
C81 C 0.51172 0.88808 0.80755 0.0
O82 O 0.5922 0.96733 0.80243 0.0
C83 C 0.70369 0.78198 0.87535 0.0
O84 O 0.60994 0.75611 0.8824 0.0
O85 O 0.74116 0.81402 0.8386 0.0
O86 O 0.64325 0.72366 0.73494 0.0
O87 O 0.74065 0.95363 0.74988 0.0
C88 C 0.81505 0.966 0.72728 0.0
O89 O 0.84645 0.90381 0.72817 0.0
O90 O 0.51557 0.81263 0.80253 0.0
Mg91 Mg 0.79633 0.64688 0.97364 0.0
C92 C 0.76141 0.76033 0.90686 0.0
O93 O 0.85215 0.77865 0.8973 0.0
C94 C 0.91864 0.7024 1.05538 0.0
O95 O 0.8641 0.61371 0.06362 0.0
C96 C 0.65395 0.44308 0.98236 0.0
O97 O 0.6921 0.44055 0.94473 0.0
O98 O 0.68565 0.51954 1.00241 0.0
O99 O 0.71992 0.71154 0.94002 0.0
O100 O 0.87736 0.62285 0.92202 0.0
C101 C 0.96838 0.64594 0.9259 0.0
O102 O 1.0102 0.66966 0.96405 0.0
O103 O 0.90308 0.73649 1.02112 0.0
Mg104 Mg 0.18526 0.78265 0.1332 0.0
C105 C 0.32769 0.95161 0.08272 0.0
O106 O 0.33992 -0.00896 0.12075 0.0
C107 C 0.18592 0.59965 0.12801 0.0
O108 O 0.13599 0.59411 0.09271 0.0
C109 C 0.16916 0.92074 0.19486 0.0
O110 O 0.10064 0.91455 0.16768 0.0
O111 O 0.21254 0.87192 0.18889 0.0
O112 O 0.27315 0.86461 0.07918 0.0
O113 O 0.03359 0.71793 0.11012 0.0
C114 C 1.00867 0.757 0.0806 0.0
O115 O 0.0719 0.84073 0.0677 0.0
O116 O 0.21951 0.67277 0.15079 0.0
Mg117 Mg 0.3657 0.13697 0.28404 0.0
C118 C 0.33641 0.28644 0.23936 0.0
O119 O 0.29751 0.28819 0.27691 0.0
C120 C 0.51132 0.07276 0.30754 0.0
O121 O 0.43084 -0.0065 0.30243 0.0
C122 C 0.31934 0.17886 0.37535 0.0
O123 O 0.41309 0.20473 0.3824 0.0
O124 O 0.28187 0.14682 0.3386 0.0
O125 O 0.37979 0.23717 0.23494 0.0
O126 O 0.28238 0.00721 0.24988 0.0
C127 C 0.20799 -0.00516 0.22728 0.0
O128 O 0.17657 0.05702 0.22816 0.0
O129 O 0.50746 0.1482 0.30253 0.0
Mg130 Mg 0.2267 0.31396 0.47364 0.0
C131 C 0.26162 0.20051 0.40686 0.0
O132 O 0.17088 0.18219 0.3973 0.0
C133 C 0.10439 0.25844 0.55538 0.0
O134 O 0.15894 0.34712 0.56362 0.0
C135 C 0.36909 0.51776 0.48236 0.0
O136 O 0.33093 0.52029 0.44473 0.0
O137 O 0.33738 0.4413 0.50241 0.0
O138 O 0.30311 0.2493 0.44002 0.0
O139 O 0.14567 0.33799 0.42202 0.0
C140 C 0.05465 0.3149 0.4259 0.0
O141 O 0.01284 0.29118 0.46405 0.0
O142 O 0.11995 0.22435 0.52112 0.0
Mg143 Mg 0.83778 0.17819 0.63321 0.0
C144 C 0.69535 0.00922 0.58272 0.0
O145 O 0.68312 0.9698 0.62075 0.0
C146 C 0.83711 0.36119 0.62801 0.0
O147 O 0.88705 0.36672 0.59271 0.0
C148 C 0.85388 0.0401 0.69486 0.0
O149 O 0.9224 0.04628 0.66768 0.0
O150 O 0.8105 0.08891 0.68889 0.0
O151 O 0.74988 0.09623 0.57918 0.0
O152 O 0.98944 0.24291 0.61012 0.0
C153 C 0.01437 0.20384 0.5806 0.0
O154 O 0.95114 0.12011 0.5677 0.0
O155 O 0.80353 0.28807 0.65079 0.0
loop_
_geom_bond_atom_site_label_1
_geom_bond_atom_site_label_2
_geom_bond_distance
_geom_bond_site_symmetry_2
_ccdc_geom_bond_type
Mg0 O7 2.141 . S
Mg0 O8 2.048 . S
Mg0 O9 2.048 . S
Mg0 O12 2.141 . S
C1 O2 1.313 . S
C1 O8 1.195 . S
O2 C1 1.313 . S
C3 O4 1.245 . S
C3 O12 1.289 . S
O4 C3 1.245 . S
C5 O6 1.245 . S
C5 O7 1.289 . S
O6 C5 1.245 . S
O7 Mg0 2.141 . S
O7 C5 1.289 . S
O8 Mg0 2.048 . S
O8 C1 1.195 . S
O9 Mg0 2.048 . S
O9 C10 1.195 . S
C10 O9 1.195 . S
C10 O11 1.313 . S
O11 C10 1.313 . S
O12 Mg0 2.141 . S
O12 C3 1.289 . S
Mg13 O20 2.141 . S
Mg13 O21 2.048 . S
Mg13 O22 2.048 . S
Mg13 O25 2.141 . S
C14 O15 1.313 . S
C14 O21 1.195 . S
O15 C14 1.313 . S
C16 O17 1.245 1_545 S
C16 O25 1.289 . S
O17 C16 1.245 1_565 S
C18 O19 1.245 . S
C18 O20 1.289 . S
O19 C18 1.245 . S
O20 Mg13 2.141 . S
O20 C18 1.289 . S
O21 Mg13 2.048 . S
O21 C14 1.195 . S
O22 Mg13 2.048 . S
O22 C23 1.195 . S
C23 O22 1.195 . S
C23 O24 1.313 1_545 S
O24 C23 1.313 1_565 S
O25 Mg13 2.141 . S
O25 C16 1.289 . S
Mg26 O33 2.141 . S
Mg26 O34 2.048 . S
Mg26 O35 2.048 . S
Mg26 O38 2.141 . S
C27 O28 1.313 . S
C27 O34 1.195 . S
O28 C27 1.313 . S
C29 O30 1.245 . S
C29 O38 1.289 . S
O30 C29 1.245 . S
C31 O32 1.245 . S
C31 O33 1.289 . S
O32 C31 1.245 . S
O33 Mg26 2.141 . S
O33 C31 1.289 . S
O34 Mg26 2.048 . S
O34 C27 1.195 . S
O35 Mg26 2.048 . S
O35 C36 1.195 . S
C36 O35 1.195 . S
C36 O37 1.313 . S
O37 C36 1.313 . S
O38 Mg26 2.141 . S
O38 C29 1.289 . S
Mg39 O46 2.141 . S
Mg39 O47 2.048 . S
Mg39 O48 2.048 . S
Mg39 O51 2.141 . S
C40 O41 1.313 . S
C40 O47 1.195 . S
O41 C40 1.313 . S
C42 O43 1.245 . S
C42 O51 1.289 . S
O43 C42 1.245 . S
C44 O45 1.245 . S
C44 O46 1.289 . S
O45 C44 1.245 . S
O46 Mg39 2.141 . S
O46 C44 1.289 . S
O47 Mg39 2.048 . S
O47 C40 1.195 . S
O48 Mg39 2.048 . S
O48 C49 1.195 . S
C49 O48 1.195 . S
C49 O50 1.313 . S
O50 C49 1.313 . S
O51 Mg39 2.141 . S
O51 C42 1.289 . S
Mg52 O59 2.141 . S
Mg52 O60 2.048 . S
Mg52 O61 2.048 . S
Mg52 O64 2.141 . S
C53 O54 1.313 . S
C53 O60 1.195 . S
O54 C53 1.313 . S
C55 O56 1.245 1_565 S
C55 O64 1.289 . S
O56 C55 1.245 1_545 S
C57 O58 1.245 . S
C57 O59 1.289 . S
O58 C57 1.245 . S
O59 Mg52 2.141 . S
O59 C57 1.289 . S
O60 Mg52 2.048 . S
O60 C53 1.195 . S
O61 Mg52 2.048 . S
O61 C62 1.195 . S
C62 O61 1.195 . S
C62 O63 1.313 1_565 S
O63 C62 1.313 1_545 S
O64 Mg52 2.141 . S
O64 C55 1.289 . S
Mg65 O72 2.141 . S
Mg65 O73 2.048 . S
Mg65 O74 2.047 . S
Mg65 O77 2.141 . S
C66 O67 1.313 . S
C66 O73 1.195 . S
O67 C66 1.313 . S
C68 O69 1.245 . S
C68 O77 1.289 . S
O69 C68 1.245 . S
C70 O71 1.245 . S
C70 O72 1.289 . S
O71 C70 1.245 . S
O72 Mg65 2.141 . S
O72 C70 1.289 . S
O73 Mg65 2.048 . S
O73 C66 1.195 . S
O74 Mg65 2.047 . S
O74 C75 1.195 1_556 S
C75 O74 1.195 1_554 S
C75 O76 1.313 1_554 S
O76 C75 1.313 1_556 S
O77 Mg65 2.141 . S
O77 C68 1.289 . S
Mg78 O85 2.141 . S
Mg78 O86 2.048 . S
Mg78 O87 2.048 . S
Mg78 O90 2.141 . S
C79 O80 1.313 . S
C79 O86 1.195 . S
O80 C79 1.313 . S
C81 O82 1.245 1_565 S
C81 O90 1.289 . S
O82 C81 1.245 1_545 S
C83 O84 1.245 . S
C83 O85 1.289 . S
O84 C83 1.245 . S
O85 Mg78 2.141 . S
O85 C83 1.289 . S
O86 Mg78 2.048 . S
O86 C79 1.195 . S
O87 Mg78 2.048 . S
O87 C88 1.195 . S
C88 O87 1.195 . S
C88 O89 1.313 1_565 S
O89 C88 1.313 1_545 S
O90 Mg78 2.141 . S
O90 C81 1.289 . S
Mg91 O98 2.141 . S
Mg91 O99 2.048 . S
Mg91 O100 2.048 . S
Mg91 O103 2.141 . S
C92 O93 1.313 . S
C92 O99 1.195 . S
O93 C92 1.313 . S
C94 O95 1.245 . S
C94 O103 1.289 . S
O95 C94 1.245 . S
C96 O97 1.245 . S
C96 O98 1.289 . S
O97 C96 1.245 . S
O98 Mg91 2.141 . S
O98 C96 1.289 . S
O99 Mg91 2.048 . S
O99 C92 1.195 . S
O100 Mg91 2.048 . S
O100 C101 1.195 . S
C101 O100 1.195 . S
C101 O102 1.313 . S
O102 C101 1.313 . S
O103 Mg91 2.141 . S
O103 C94 1.289 . S
Mg104 O111 2.141 . S
Mg104 O112 2.048 . S
Mg104 O113 2.047 . S
Mg104 O116 2.141 . S
C105 O106 1.313 . S
C105 O112 1.195 . S
O106 C105 1.313 . S
C107 O108 1.245 1_455 S
C107 O116 1.289 . S
O108 C107 1.245 1_655 S
C109 O110 1.245 . S
C109 O111 1.289 . S
O110 C109 1.245 . S
O111 Mg104 2.141 . S
O111 C109 1.289 . S
O112 Mg104 2.048 . S
O112 C105 1.195 . S
O113 Mg104 2.047 . S
O113 C114 1.195 1_554 S
C114 O113 1.195 1_556 S
C114 O115 1.313 1_456 S
O115 C114 1.313 1_654 S
O116 Mg104 2.141 . S
O116 C107 1.289 . S
Mg117 O124 2.141 . S
Mg117 O125 2.048 . S
Mg117 O126 2.048 . S
Mg117 O129 2.141 . S
C118 O119 1.313 . S
C118 O125 1.195 . S
O119 C118 1.313 . S
C120 O121 1.245 1_545 S
C120 O129 1.289 . S
O121 C120 1.245 1_565 S
C122 O123 1.245 . S
C122 O124 1.289 . S
O123 C122 1.245 . S
O124 Mg117 2.141 . S
O124 C122 1.289 . S
O125 Mg117 2.048 . S
O125 C118 1.195 . S
O126 Mg117 2.048 . S
O126 C127 1.195 . S
C127 O126 1.195 . S
C127 O128 1.313 1_545 S
O128 C127 1.313 1_565 S
O129 Mg117 2.141 . S
O129 C120 1.289 . S
Mg130 O137 2.141 . S
Mg130 O138 2.048 . S
Mg130 O139 2.048 . S
Mg130 O142 2.141 . S
C131 O132 1.313 . S
C131 O138 1.195 . S
O132 C131 1.313 . S
C133 O134 1.245 . S
C133 O142 1.289 . S
O134 C133 1.245 . S
C135 O136 1.245 . S
C135 O137 1.289 . S
O136 C135 1.245 . S
O137 Mg130 2.141 . S
O137 C135 1.289 . S
O138 Mg130 2.048 . S
O138 C131 1.195 . S
O139 Mg130 2.048 . S
O139 C140 1.195 . S
C140 O139 1.195 . S
C140 O141 1.313 . S
O141 C140 1.313 . S
O142 Mg130 2.141 . S
O142 C133 1.289 . S
Mg143 O150 2.141 . S
Mg143 O151 2.048 . S
Mg143 O152 2.048 . S
Mg143 O155 2.141 . S
C144 O145 1.313 . S
C144 O151 1.195 . S
O145 C144 1.313 . S
C146 O147 1.245 1_655 S
C146 O155 1.289 . S
O147 C146 1.245 1_455 S
C148 O149 1.245 . S
C148 O150 1.289 . S
O149 C148 1.245 . S
O150 Mg143 2.141 . S
O150 C148 1.289 . S
O151 Mg143 2.048 . S
O151 C144 1.195 . S
O152 Mg143 2.048 . S
O152 C153 1.195 . S
C153 O152 1.195 . S
C153 O154 1.313 1_655 S
O154 C153 1.313 1_455 S
O155 Mg143 2.141 . S
O155 C146 1.289 . S
C107 C5 1.915 . S
C16 C120 2.073 . S
C29 C135 1.915 . S
C44 C146 1.915 . S
C81 C55 2.073 . S
C68 C96 1.915 . S
C118 C10 1.607 . S
C14 C140 1.608 1_655 S
C144 C27 1.684 1_545 S
C49 C79 1.608 . S
C101 C53 1.607 1_655 S
C105 C66 1.684 1_564 S
C3 C75 2.004 . S
C18 C1 2.110 1_655 S
C23 C31 1.960 1_545 S
C42 C36 2.004 . S
C57 C40 2.110 1_455 S
C70 C62 1.960 1_545 S
C83 C92 2.110 . S
C94 C114 2.004 1_655 S
C109 C127 1.960 1_565 S
C122 C131 2.110 . S
C133 C153 2.004 1_455 S
C88 C148 1.961 1_565 S
