# Generated by pormake.
# Topology qtz-x, (6)-cn, num edge types: 1
# Building blocks:
#     Node 0, Type 0, BuildingBlock: PAMTUU_clean_sbu_0, # of connection points: 6
#     Node 1, Type 0, BuildingBlock: PAMTUU_clean_sbu_0, # of connection points: 6
#     Node 2, Type 0, BuildingBlock: PAMTUU_clean_sbu_0, # of connection points: 6
#     Edge 3, Type (0, 0), None
#     Edge 4, Type (0, 0), None
#     Edge 5, Type (0, 0), None
#     Edge 6, Type (0, 0), None
#     Edge 7, Type (0, 0), None
#     Edge 8, Type (0, 0), None
#     Edge 9, Type (0, 0), None
#     Edge 10, Type (0, 0), None
#     Edge 11, Type (0, 0), None
# Relax obj value: 0.160
# Max RMSD: 0.256
# Mean RMSD: 0.256
data_MOF--net-qtz-x--node1-PAMTUU_clean_sbu_0--edge1-none
_symmetry_space_group_name_H-M    P1
_symmetry_Int_Tables_number       1
_symmetry_cell_setting            triclinic
loop_
_symmetry_equiv_pos_as_xyz
'x, y, z'
_cell_length_a     7.1074514
_cell_length_b     7.1081604
_cell_length_c     30.869088
_cell_angle_alpha  89.998
_cell_angle_beta   89.998894
_cell_angle_gamma 119.99823
loop_
_atom_site_label
_atom_site_type_symbol
_atom_site_fract_x
_atom_site_fract_y
_atom_site_fract_z
_atom_type_partial_charge
Tb0 Tb 0.36048 0.80713 0.20087 0.0
Tb1 Tb 0.89408 0.58683 0.24634 0.0
C2 C 0.12856 0.30069 0.22309 0.0
C3 C 0.59932 0.9715 0.09713 0.0
C4 C 0.46898 0.88573 1.00911 0.0
C5 C 0.66601 0.9037 1.02311 0.0
C6 C 0.73067 0.94627 0.06661 0.0
C7 C 0.40674 0.9636 0.08264 0.0
C8 C 0.34279 0.92245 1.03897 0.0
C9 C 0.65033 0.98488 0.14421 0.0
O10 O 0.11723 0.64252 0.1528 0.0
O11 O 0.78047 0.5404 0.17989 0.0
O12 O 0.93289 0.89952 0.2244 0.0
O13 O 0.30297 0.07637 0.22017 0.0
O14 O 0.63147 0.31352 0.27558 0.0
O15 O 0.69773 0.63678 0.2889 0.0
O16 O 0.15003 0.77524 0.29149 0.0
O17 O 0.44538 0.77164 0.26698 0.0
O18 O 0.3076 0.47671 0.21058 0.0
O19 O 0.95725 0.31167 0.23652 0.0
C20 C 0.90983 0.56333 0.14758 0.0
O21 O 0.5842 0.09115 0.1681 0.0
O22 O 0.60352 0.80227 0.16252 0.0
C23 C 0.12033 0.08238 0.22224 0.0
C24 C 0.58501 0.39552 0.3472 0.0
C25 C 0.57007 0.30303 0.43609 0.0
C26 C 0.74274 0.49588 0.41969 0.0
C27 C 0.75104 0.5412 0.37527 0.0
C28 C 0.40839 0.2103 0.36407 0.0
C29 C 0.40012 0.16484 0.40789 0.0
C30 C 0.58921 0.43511 0.30052 0.0
C31 C 0.31603 0.75152 0.29904 0.0
H32 H 0.76671 0.87633 1.00054 0.0
H33 H 0.87994 0.95281 0.07662 0.0
H34 H 0.30314 0.98623 0.10521 0.0
H35 H 0.19064 0.90973 1.02907 0.0
H36 H 0.87242 0.6082 0.44063 0.0
H37 H 0.88704 0.68977 0.36299 0.0
H38 H 0.27486 0.10163 0.34345 0.0
H39 H 0.2588 0.01841 0.4195 0.0
Tb40 Tb 0.35605 0.7772 0.53418 0.0
Tb41 Tb 0.60222 0.24365 0.57968 0.0
C42 C 0.08155 1.00906 0.5564 0.0
C43 C 0.28151 0.53818 0.43046 0.0
C44 C 0.32612 0.66861 0.34244 0.0
C45 C 0.1471 0.47157 0.35643 0.0
C46 C 0.12497 0.40685 0.39993 0.0
C47 C 0.46615 0.73081 0.41598 0.0
C48 C 0.48897 0.7948 0.37231 0.0
C49 C 0.24388 0.48717 0.47754 0.0
O50 O 0.43494 0.02072 0.48615 0.0
O51 O 0.66952 0.3574 0.51324 0.0
O52 O 0.87607 0.20475 0.55774 0.0
O53 O 0.68282 0.83469 0.55348 0.0
O54 O 0.59154 0.50628 0.60891 0.0
O55 O 0.84848 0.43992 0.62225 0.0
O56 O 0.53466 0.98762 0.62481 0.0
O57 O 0.23569 0.69234 0.6003 0.0
O58 O 0.07852 0.83008 0.54387 0.0
O59 O 0.26381 0.18031 0.56986 0.0
C60 C 0.56316 0.22809 0.48093 0.0
O61 O 0.41631 0.55339 0.50143 0.0
O62 O 0.10816 0.53414 0.49584 0.0
C63 C 0.87147 0.0173 0.55555 0.0
C64 C 0.71998 0.5528 0.68053 0.0
C65 C 0.64244 0.56789 0.76941 0.0
C66 C 0.66252 0.39514 0.75303 0.0
C67 C 0.69954 0.38677 0.70862 0.0
C68 C 0.71148 0.72949 0.69739 0.0
C69 C 0.67429 0.73783 0.74121 0.0
C70 C 0.75539 0.54853 0.63385 0.0
C71 C 0.34493 0.82162 0.63235 0.0
H72 H 0.01905 0.37088 0.33385 0.0
H73 H 0.98228 0.25758 0.40993 0.0
H74 H 0.59233 0.83442 0.43855 0.0
H75 H 0.62837 0.94695 0.36241 0.0
H76 H 0.64509 0.26547 0.77398 0.0
H77 H 0.71205 0.25072 0.69635 0.0
H78 H 0.73642 0.86302 0.67676 0.0
H79 H 0.66924 0.8792 0.75281 0.0
Tb80 Tb 0.33065 0.78166 0.86754 0.0
Tb81 Tb 0.55088 0.53546 0.91302 0.0
C82 C 0.83694 0.05616 0.88976 0.0
C83 C 0.16622 0.85596 0.76379 0.0
C84 C 0.25196 0.81147 0.67576 0.0
C85 C 0.23399 0.99048 0.68977 0.0
C86 C 0.19142 0.01255 0.73328 0.0
C87 C 0.17419 0.67135 0.7493 0.0
C88 C 0.21531 0.64857 0.70562 0.0
C89 C 0.1527 0.89349 0.81087 0.0
O90 O 0.49564 0.70338 0.81949 0.0
O91 O 0.59706 0.46818 0.84656 0.0
O92 O 0.23811 0.26154 0.89111 0.0
O93 O 0.06136 0.45485 0.88683 0.0
O94 O 0.82439 0.54647 0.94225 0.0
O95 O 0.50123 0.28921 0.95555 0.0
O96 O 0.36249 0.60302 0.95817 0.0
O97 O 0.36592 0.9019 0.93366 0.0
O98 O 0.66094 0.05926 0.87728 0.0
O99 O 0.82595 0.87381 0.90316 0.0
C100 C 0.57444 0.57485 0.81426 0.0
O101 O 0.04653 0.72102 0.83475 0.0
O102 O 0.33523 0.0294 0.82919 0.0
C103 C 0.05529 0.26619 0.88892 0.0
C104 C 0.74245 0.41778 1.01385 0.0
C105 C 0.8349 0.49527 0.10274 0.0
C106 C 0.64207 0.47516 0.08634 0.0
C107 C 0.59677 0.43817 1.04193 0.0
C108 C 0.92761 0.42624 1.03073 0.0
C109 C 0.97305 0.46341 0.07455 0.0
C110 C 0.70292 0.3825 0.96717 0.0
C111 C 0.38612 0.7927 0.96571 0.0
H112 H 0.26134 0.11859 0.6672 0.0
H113 H 0.18483 0.15519 0.74329 0.0
H114 H 0.15163 0.54512 0.77187 0.0
H115 H 0.22804 0.50921 0.69572 0.0
H116 H 0.52976 0.49258 0.10728 0.0
H117 H 0.44823 0.42567 1.02964 0.0
H118 H 0.03625 0.40129 1.01012 0.0
H119 H 0.11945 0.46846 0.08617 0.0
loop_
_geom_bond_atom_site_label_1
_geom_bond_atom_site_label_2
_geom_bond_distance
_geom_bond_site_symmetry_2
_ccdc_geom_bond_type
Tb0 C9 2.764 . S
Tb0 O10 2.325 . S
Tb0 O13 2.303 . S
Tb0 O17 2.322 . S
Tb0 O18 2.349 . S
Tb0 O21 2.415 1_565 S
Tb0 O22 2.399 . S
Tb1 O11 2.322 . S
Tb1 O12 2.349 . S
Tb1 O14 2.415 . S
Tb1 O15 2.399 . S
Tb1 O16 2.325 1_655 S
Tb1 O19 2.303 1_655 S
Tb1 C30 2.764 . S
C2 O18 1.261 . S
C2 O19 1.257 . S
C3 C6 1.358 . S
C3 C7 1.332 1_565 S
C3 C9 1.504 . S
C4 C5 1.373 1_545 S
C4 C8 1.308 . S
C5 C4 1.373 1_565 S
C5 C6 1.429 1_556 S
C5 H32 0.932 . S
C6 C3 1.358 . S
C6 C5 1.429 1_554 S
C6 H33 0.930 . S
C7 C3 1.332 1_545 S
C7 C8 1.394 1_554 S
C7 H34 0.932 . S
C8 C4 1.308 . S
C8 C7 1.394 1_556 S
C8 H35 0.929 . S
C9 Tb0 2.764 . S
C9 C3 1.504 . S
C9 O21 1.239 1_565 S
C9 O22 1.263 . S
O10 Tb0 2.325 . S
O10 C20 1.236 1_455 S
O11 Tb1 2.322 . S
O11 C20 1.257 . S
O12 Tb1 2.349 . S
O12 C23 1.261 1_665 S
O13 Tb0 2.303 . S
O13 C23 1.257 1_565 S
O14 Tb1 2.415 . S
O14 C30 1.239 . S
O15 Tb1 2.399 . S
O15 C30 1.263 . S
O16 Tb1 2.325 1_455 S
O16 C31 1.236 . S
O17 Tb0 2.322 . S
O17 C31 1.257 . S
O18 Tb0 2.349 . S
O18 C2 1.261 . S
O19 Tb1 2.303 1_455 S
O19 C2 1.257 . S
C20 O10 1.236 1_655 S
C20 O11 1.257 . S
O21 Tb0 2.415 1_545 S
O21 C9 1.239 1_545 S
O22 Tb0 2.399 . S
O22 C9 1.263 . S
C23 O12 1.261 1_445 S
C23 O13 1.257 1_545 S
C24 C27 1.358 . S
C24 C28 1.332 . S
C24 C30 1.504 . S
C25 C26 1.373 . S
C25 C29 1.308 . S
C26 C25 1.373 . S
C26 C27 1.429 . S
C26 H36 0.932 . S
C27 C24 1.358 . S
C27 C26 1.429 . S
C27 H37 0.930 . S
C28 C24 1.332 . S
C28 C29 1.394 . S
C28 H38 0.932 . S
C29 C25 1.308 . S
C29 C28 1.394 . S
C29 H39 0.929 . S
C30 Tb1 2.764 . S
C30 O14 1.239 . S
C30 O15 1.263 . S
C30 C24 1.504 . S
C31 O16 1.236 . S
C31 O17 1.257 . S
H32 C5 0.932 . S
H33 C6 0.930 . S
H34 C7 0.932 . S
H35 C8 0.929 . S
H36 C26 0.932 . S
H37 C27 0.930 . S
H38 C28 0.932 . S
H39 C29 0.929 . S
Tb40 C49 2.764 . S
Tb40 O50 2.325 1_565 S
Tb40 O53 2.303 . S
Tb40 O57 2.322 . S
Tb40 O58 2.349 . S
Tb40 O61 2.415 . S
Tb40 O62 2.399 . S
Tb41 O51 2.322 . S
Tb41 O52 2.349 . S
Tb41 O54 2.415 . S
Tb41 O55 2.399 . S
Tb41 O56 2.325 1_545 S
Tb41 O59 2.303 . S
Tb41 C70 2.764 . S
C42 O58 1.261 . S
C42 O59 1.257 1_565 S
C43 C46 1.358 . S
C43 C47 1.332 . S
C43 C49 1.504 . S
C44 C45 1.373 . S
C44 C48 1.308 . S
C45 C44 1.373 . S
C45 C46 1.429 . S
C45 H72 0.932 1_455 S
C46 C43 1.358 . S
C46 C45 1.429 . S
C46 H73 0.930 1_455 S
C47 C43 1.332 . S
C47 C48 1.394 . S
C47 H74 0.932 . S
C48 C44 1.308 . S
C48 C47 1.394 . S
C48 H75 0.929 . S
C49 Tb40 2.764 . S
C49 C43 1.504 . S
C49 O61 1.239 . S
C49 O62 1.263 . S
O50 Tb40 2.325 1_545 S
O50 C60 1.236 . S
O51 Tb41 2.322 . S
O51 C60 1.257 . S
O52 Tb41 2.349 . S
O52 C63 1.261 . S
O53 Tb40 2.303 . S
O53 C63 1.257 1_565 S
O54 Tb41 2.415 . S
O54 C70 1.239 . S
O55 Tb41 2.399 . S
O55 C70 1.263 . S
O56 Tb41 2.325 1_565 S
O56 C71 1.236 . S
O57 Tb40 2.322 . S
O57 C71 1.257 . S
O58 Tb40 2.349 . S
O58 C42 1.261 . S
O59 Tb41 2.303 . S
O59 C42 1.257 1_545 S
C60 O50 1.236 . S
C60 O51 1.257 . S
O61 Tb40 2.415 . S
O61 C49 1.239 . S
O62 Tb40 2.399 . S
O62 C49 1.263 . S
C63 O52 1.261 . S
C63 O53 1.257 1_545 S
C64 C67 1.358 . S
C64 C68 1.332 . S
C64 C70 1.504 . S
C65 C66 1.373 . S
C65 C69 1.308 . S
C66 C65 1.373 . S
C66 C67 1.429 . S
C66 H76 0.932 . S
C67 C64 1.358 . S
C67 C66 1.429 . S
C67 H77 0.930 . S
C68 C64 1.332 . S
C68 C69 1.394 . S
C68 H78 0.932 . S
C69 C65 1.308 . S
C69 C68 1.394 . S
C69 H79 0.929 . S
C70 Tb41 2.764 . S
C70 O54 1.239 . S
C70 O55 1.263 . S
C70 C64 1.504 . S
C71 O56 1.236 . S
C71 O57 1.257 . S
H72 C45 0.932 1_655 S
H73 C46 0.930 1_655 S
H74 C47 0.932 . S
H75 C48 0.929 . S
H76 C66 0.932 . S
H77 C67 0.930 . S
H78 C68 0.932 . S
H79 C69 0.929 . S
Tb80 C89 2.764 . S
Tb80 O90 2.325 . S
Tb80 O93 2.303 . S
Tb80 O97 2.322 . S
Tb80 O98 2.349 1_565 S
Tb80 O101 2.415 . S
Tb80 O102 2.399 1_565 S
Tb81 O91 2.322 . S
Tb81 O92 2.349 . S
Tb81 O94 2.415 . S
Tb81 O95 2.399 . S
Tb81 O96 2.325 . S
Tb81 O99 2.303 . S
Tb81 C110 2.764 . S
C82 O98 1.261 . S
C82 O99 1.257 1_545 S
C83 C86 1.358 1_565 S
C83 C87 1.332 1_455 S
C83 C89 1.504 . S
C84 C85 1.373 1_665 S
C84 C88 1.308 . S
C85 C84 1.373 1_445 S
C85 C86 1.429 . S
C85 H112 0.932 . S
C86 C83 1.358 1_545 S
C86 C85 1.429 . S
C86 H113 0.930 . S
C87 C83 1.332 1_655 S
C87 C88 1.394 . S
C87 H114 0.932 . S
C88 C84 1.308 . S
C88 C87 1.394 . S
C88 H115 0.929 . S
C89 Tb80 2.764 . S
C89 C83 1.504 . S
C89 O101 1.239 . S
C89 O102 1.263 1_565 S
O90 Tb80 2.325 . S
O90 C100 1.236 . S
O91 Tb81 2.322 . S
O91 C100 1.257 . S
O92 Tb81 2.349 . S
O92 C103 1.261 . S
O93 Tb80 2.303 . S
O93 C103 1.257 . S
O94 Tb81 2.415 . S
O94 C110 1.239 . S
O95 Tb81 2.399 . S
O95 C110 1.263 . S
O96 Tb81 2.325 . S
O96 C111 1.236 . S
O97 Tb80 2.322 . S
O97 C111 1.257 . S
O98 Tb80 2.349 1_545 S
O98 C82 1.261 . S
O99 Tb81 2.303 . S
O99 C82 1.257 1_565 S
C100 O90 1.236 . S
C100 O91 1.257 . S
O101 Tb80 2.415 . S
O101 C89 1.239 . S
O102 Tb80 2.399 1_545 S
O102 C89 1.263 1_545 S
C103 O92 1.261 . S
C103 O93 1.257 . S
C104 C107 1.358 1_556 S
C104 C108 1.332 1_556 S
C104 C110 1.504 . S
C105 C106 1.373 . S
C105 C109 1.308 . S
C106 C105 1.373 . S
C106 C107 1.429 . S
C106 H116 0.932 . S
C107 C104 1.358 1_554 S
C107 C106 1.429 . S
C107 H117 0.930 1_554 S
C108 C104 1.332 1_554 S
C108 C109 1.394 . S
C108 H118 0.932 1_554 S
C109 C105 1.308 . S
C109 C108 1.394 . S
C109 H119 0.929 1_655 S
C110 Tb81 2.764 . S
C110 O94 1.239 . S
C110 O95 1.263 . S
C110 C104 1.504 . S
C111 O96 1.236 . S
C111 O97 1.257 . S
H112 C85 0.932 . S
H113 C86 0.930 . S
H114 C87 0.932 . S
H115 C88 0.929 . S
H116 C106 0.932 . S
H117 C107 0.930 1_556 S
H118 C108 0.932 1_556 S
H119 C109 0.929 1_455 S
C23 C2 2.127 . S
C42 C63 2.128 1_465 S
C82 C103 2.127 1_655 S
C111 C4 3.359 1_565 S
C60 C25 1.872 . S
C84 C71 3.358 1_655 S
C105 C20 1.872 . S
C31 C44 3.360 . S
C100 C65 1.871 . S
