# Generated by pormake.
# Topology pcu, (6)-cn, num edge types: 1
# Building blocks:
#     Node 0, Type 0, BuildingBlock: KUMBUR_clean_sbu_1, # of connection points: 6
#     Edge 1, Type (0, 0), BuildingBlock: XIVTED_clean_linker_0, # of connection points: 2
#     Edge 2, Type (0, 0), BuildingBlock: XIVTED_clean_linker_0, # of connection points: 2
#     Edge 3, Type (0, 0), BuildingBlock: XIVTED_clean_linker_0, # of connection points: 2
# Relax obj value: 0.000
# Max RMSD: 0.000
# Mean RMSD: 0.000
data_MOF--net-pcu--node1-KUMBUR_clean_sbu_1--edge1-XIVTED_clean_linker_0
_symmetry_space_group_name_H-M    P1
_symmetry_Int_Tables_number       1
_symmetry_cell_setting            triclinic
loop_
_symmetry_equiv_pos_as_xyz
'x, y, z'
_cell_length_a     14.980455
_cell_length_b     24.812851
_cell_length_c     14.99014
_cell_angle_alpha  114.37161
_cell_angle_beta   89.023637
_cell_angle_gamma 115.54919
loop_
_atom_site_label
_atom_site_type_symbol
_atom_site_fract_x
_atom_site_fract_y
_atom_site_fract_z
_atom_type_partial_charge
Tb0 Tb 0.95099 0.91003 0.93087 0.0
C1 C 0.29945 0.19988 0.19464 0.0
N2 N 0.20284 0.17384 0.2083 0.0
C3 C 0.26188 0.223 0.38474 0.0
C4 C 0.38153 0.23814 0.27581 0.0
C5 C 0.18291 0.18543 0.3018 0.0
C6 C 0.36167 0.24928 0.37171 0.0
C7 C 0.41469 0.21407 0.08089 0.0
C8 C 0.31576 0.18776 0.09839 0.0
C9 C 0.49691 0.25191 0.16144 0.0
C10 C 0.48038 0.26388 0.25864 0.0
Tb11 Tb 0.08065 0.11216 0.06737 0.0
N12 N 0.23424 0.1494 0.02195 0.0
C13 C 0.42786 0.20184 0.98306 0.0
C14 C 0.24666 0.14061 0.92741 0.0
C15 C 0.3434 0.16564 0.90624 0.0
H16 H 0.1061 0.16701 0.31284 0.0
H17 H 0.3527 0.1577 0.8308 0.0
H18 H 0.92552 0.85517 0.6854 0.0
H19 H 0.67895 0.86454 0.16748 0.0
H20 H 0.18292 0.11593 0.86826 0.0
H21 H 0.50265 0.22122 0.96639 0.0
H22 H 0.84873 0.90628 0.13 0.0
H23 H 0.2457 0.23201 0.45872 0.0
H24 H 0.57355 0.27234 0.14942 0.0
H25 H 0.54453 0.29328 0.32003 0.0
H26 H 0.78591 0.79019 0.53954 0.0
H27 H 0.42266 0.27844 0.43612 0.0
H28 H 0.52899 0.80103 0.0319 0.0
N29 N 0.82879 0.84835 0.78996 0.0
C30 C 0.73218 0.82232 0.80362 0.0
C31 C 0.76974 0.7992 0.61352 0.0
C32 C 0.6501 0.78407 0.72245 0.0
C33 C 0.84871 0.83676 0.69645 0.0
C34 C 0.66995 0.77293 0.62656 0.0
N35 N 0.79741 0.87278 0.97631 0.0
C36 C 0.78499 0.8816 0.07085 0.0
C37 C 0.61695 0.80815 0.91738 0.0
C38 C 0.71588 0.83444 0.89987 0.0
C39 C 0.60379 0.82039 0.01521 0.0
C40 C 0.68825 0.85658 0.09203 0.0
H41 H 0.60895 0.74378 0.56215 0.0
H42 H 0.48709 0.72895 0.67825 0.0
H43 H 0.45808 0.7499 0.84887 0.0
O44 O 0.97867 0.85458 0.99178 0.0
O45 O 0.85749 0.95847 0.93007 0.0
O46 O 0.92399 0.05672 0.07582 0.0
O47 O 0.95031 0.81978 0.83307 0.0
O48 O 0.01725 0.96438 0.09156 0.0
O49 O 1.00248 0.06199 0.15673 0.0
O50 O 0.05295 0.16759 0.00645 0.0
O51 O 0.17417 0.06372 0.06817 0.0
O52 O 0.10766 0.96546 0.92243 0.0
O53 O 0.08133 0.20241 0.16516 0.0
O54 O 1.0144 0.05781 0.90668 0.0
O55 O 0.02917 0.96019 0.84151 0.0
C56 C 0.84976 1.00913 0.00019 0.0
C57 C 0.89887 0.73765 0.89167 0.0
C58 C 0.87896 0.63953 0.90967 0.0
C59 C 0.77557 0.60772 0.8683 0.0
C60 C 0.79573 0.70457 0.85006 0.0
C61 C 0.73454 0.64013 0.83885 0.0
C62 C 0.94018 0.70491 0.92129 0.0
C63 C 1.01414 0.01504 0.1671 0.0
C64 C 0.96464 0.80601 0.90467 0.0
C65 C 0.55125 0.75835 0.73964 0.0
C66 C 0.53472 0.77032 0.83684 0.0
C67 C 0.18189 0.01306 0.99806 0.0
C68 C 0.13274 0.28452 0.10653 0.0
C69 C 0.15264 0.38262 0.08849 0.0
C70 C 0.25603 0.41444 0.12986 0.0
C71 C 0.23589 0.3176 0.14814 0.0
C72 C 0.09143 0.31724 0.07689 0.0
C73 C 0.29707 0.38204 0.15933 0.0
C74 C 0.01752 1.00715 0.83114 0.0
C75 C 0.06698 0.21616 0.09355 0.0
H76 H 0.72656 0.5572 0.85684 0.0
H77 H 0.76242 0.7281 0.82547 0.0
H78 H 0.65505 0.61495 0.80642 0.0
H79 H 0.01977 0.73064 0.95406 0.0
H80 H 0.30503 0.46496 0.1413 0.0
H81 H 0.26921 0.29409 0.17274 0.0
H82 H 1.01183 0.29151 0.04412 0.0
H83 H 0.37656 0.40723 0.19176 0.0
H84 H 0.94855 0.08179 0.32744 0.0
H85 H 0.0831 0.94039 0.6708 0.0
H86 H 0.08131 0.94839 0.23157 0.0
H87 H 0.95038 0.07381 0.76667 0.0
H88 H 0.08215 0.94212 0.50903 0.0
H89 H 0.94951 0.08006 0.48921 0.0
C90 C 0.97882 0.05264 0.34073 0.0
C91 C 0.01592 0.01575 0.26624 0.0
C92 C 0.05292 0.97086 0.56532 0.0
C93 C 1.01562 0.01258 0.4507 0.0
C94 C 0.05284 0.96954 0.65751 0.0
C95 C 1.01575 1.00643 0.73201 0.0
C96 C 0.01606 1.0096 0.54755 0.0
C97 C 0.97959 0.04451 0.71135 0.0
C98 C 0.97874 0.05132 0.43292 0.0
C99 C 0.05209 0.97768 0.2869 0.0
N100 N 0.98057 0.04506 0.62109 0.0
N101 N 0.05112 0.97713 0.37716 0.0
H102 H 0.34595 0.0907 0.15213 0.0
H103 H 0.68571 0.9315 0.8461 0.0
H104 H 0.2426 0.93433 0.84865 0.0
H105 H 0.78904 0.08785 0.1496 0.0
H106 H 0.52272 0.9313 0.84593 0.0
H107 H 0.50894 0.0909 0.1523 0.0
C108 C 0.35763 0.0567 0.08524 0.0
C109 C 0.28061 0.01295 -0.00012 0.0
C110 C 0.58098 0.96564 0.91263 0.0
C111 C 0.46687 0.01197 0.00021 0.0
C112 C 0.67403 0.9655 0.913 0.0
C113 C 0.75104 1.00923 0.99837 0.0
C114 C 0.56478 1.01022 0.99804 0.0
C115 C 0.73198 0.05318 0.08208 0.0
C116 C 0.45068 0.05656 0.0856 0.0
C117 C 0.29967 0.969 0.91617 0.0
N118 N 0.64082 0.05251 0.07981 0.0
N119 N 0.39083 0.96968 0.91844 0.0
H120 H 0.05999 0.63796 0.88262 0.0
H121 H 0.9716 0.38419 0.11553 0.0
H122 H 0.79657 0.55909 0.00249 0.0
H123 H 0.23501 0.46304 0.99564 0.0
H124 H 0.90532 0.44681 0.07293 0.0
H125 H 0.12626 0.57533 0.92521 0.0
C126 C 0.01641 0.60796 0.91866 0.0
C127 C 0.92234 0.60381 0.93874 0.0
C128 C 0.97759 0.45038 0.05584 0.0
C129 C 0.99731 0.53104 0.98657 0.0
C130 C 1.01518 0.41419 0.07949 0.0
C131 C 0.10925 0.41834 0.05941 0.0
C132 C 0.03427 0.49109 0.01156 0.0
C133 C 0.16288 0.45898 0.01392 0.0
C134 C 0.05399 0.57176 0.9423 0.0
C135 C 0.8687 0.56316 0.98421 0.0
N136 N 0.12474 0.49372 0.99168 0.0
N137 N 0.90684 0.52841 0.00645 0.0
loop_
_geom_bond_atom_site_label_1
_geom_bond_atom_site_label_2
_geom_bond_distance
_geom_bond_site_symmetry_2
_ccdc_geom_bond_type
Tb0 N29 2.617 . S
Tb0 N35 2.572 . S
Tb0 O44 2.465 . S
Tb0 O45 2.387 . S
Tb0 O47 2.428 . S
Tb0 O48 2.308 1_556 S
Tb0 O52 2.349 1_655 S
Tb0 O55 2.393 . S
Tb0 C64 2.802 . S
C1 N2 1.379 . S
C1 C4 1.416 . S
C1 C8 1.424 . S
N2 C1 1.379 . S
N2 C5 1.334 . S
N2 Tb11 2.617 . S
C3 C5 1.390 . S
C3 C6 1.339 . S
C3 H23 0.930 . S
C4 C1 1.416 . S
C4 C6 1.416 . S
C4 C10 1.448 . S
C5 N2 1.334 . S
C5 C3 1.390 . S
C5 H16 0.930 . S
C6 C3 1.339 . S
C6 C4 1.416 . S
C6 H27 0.930 . S
C7 C8 1.413 . S
C7 C9 1.427 . S
C7 C13 1.416 . S
C8 C1 1.424 . S
C8 C7 1.413 . S
C8 N12 1.361 . S
C9 C7 1.427 . S
C9 C10 1.328 . S
C9 H24 0.929 . S
C10 C4 1.448 . S
C10 C9 1.328 . S
C10 H25 0.930 . S
Tb11 N2 2.617 . S
Tb11 N12 2.572 . S
Tb11 O46 2.349 1_455 S
Tb11 O49 2.393 . S
Tb11 O50 2.465 . S
Tb11 O51 2.387 . S
Tb11 O53 2.428 . S
Tb11 O54 2.308 1_554 S
Tb11 C75 2.802 . S
N12 C8 1.361 . S
N12 Tb11 2.572 . S
N12 C14 1.340 1_554 S
C13 C7 1.416 . S
C13 C15 1.332 1_554 S
C13 H21 0.931 1_554 S
C14 N12 1.340 1_556 S
C14 C15 1.407 . S
C14 H20 0.930 . S
C15 C13 1.332 1_556 S
C15 C14 1.407 . S
C15 H17 0.929 . S
H16 C5 0.930 . S
H17 C15 0.929 . S
H18 C33 0.930 . S
H19 C40 0.929 . S
H20 C14 0.930 . S
H21 C13 0.931 1_556 S
H22 C36 0.930 . S
H23 C3 0.930 . S
H24 C9 0.929 . S
H25 C10 0.930 . S
H26 C31 0.930 . S
H27 C6 0.930 . S
H28 C39 0.931 1_554 S
N29 Tb0 2.617 . S
N29 C30 1.379 . S
N29 C33 1.334 . S
C30 N29 1.379 . S
C30 C32 1.416 . S
C30 C38 1.424 . S
C31 H26 0.930 . S
C31 C33 1.390 . S
C31 C34 1.339 . S
C32 C30 1.416 . S
C32 C34 1.416 . S
C32 C65 1.448 . S
C33 H18 0.930 . S
C33 N29 1.334 . S
C33 C31 1.390 . S
C34 C31 1.339 . S
C34 C32 1.416 . S
C34 H41 0.930 . S
N35 Tb0 2.572 . S
N35 C36 1.340 1_556 S
N35 C38 1.361 . S
C36 H22 0.930 . S
C36 N35 1.340 1_554 S
C36 C40 1.407 . S
C37 C38 1.413 . S
C37 C39 1.416 . S
C37 C66 1.427 . S
C38 C30 1.424 . S
C38 N35 1.361 . S
C38 C37 1.413 . S
C39 H28 0.931 1_556 S
C39 C37 1.416 . S
C39 C40 1.332 1_556 S
C40 H19 0.929 . S
C40 C36 1.407 . S
C40 C39 1.332 1_554 S
H41 C34 0.930 . S
H42 C65 0.930 . S
H43 C66 0.929 . S
O44 Tb0 2.465 . S
O44 C64 1.264 . S
O45 Tb0 2.387 . S
O45 C56 1.257 1_565 S
O46 Tb11 2.349 1_655 S
O46 C56 1.247 1_554 S
O47 Tb0 2.428 . S
O47 C64 1.256 . S
O48 Tb0 2.308 1_554 S
O48 C63 1.266 1_565 S
O49 Tb11 2.393 . S
O49 C63 1.248 1_455 S
O50 Tb11 2.465 . S
O50 C75 1.264 . S
O51 Tb11 2.387 . S
O51 C67 1.261 1_545 S
O52 Tb0 2.349 1_455 S
O52 C67 1.245 1_556 S
O53 Tb11 2.428 . S
O53 C75 1.256 . S
O54 Tb11 2.308 1_556 S
O54 C74 1.266 1_545 S
O55 Tb0 2.393 . S
O55 C74 1.248 1_655 S
C56 O45 1.257 1_545 S
C56 O46 1.247 1_556 S
C57 C60 1.399 . S
C57 C62 1.383 . S
C57 C64 1.496 . S
C58 C59 1.399 . S
C58 C62 1.389 . S
C59 C58 1.399 . S
C59 C61 1.380 . S
C59 H76 0.929 . S
C60 C57 1.399 . S
C60 C61 1.392 . S
C60 H77 0.929 . S
C61 C59 1.380 . S
C61 C60 1.392 . S
C61 H78 0.929 . S
C62 C57 1.383 . S
C62 C58 1.389 . S
C62 H79 0.931 1_556 S
C63 O48 1.266 1_545 S
C63 O49 1.248 1_655 S
C64 Tb0 2.802 . S
C64 O44 1.264 . S
C64 O47 1.256 . S
C64 C57 1.496 . S
C65 C32 1.448 . S
C65 H42 0.930 . S
C65 C66 1.328 . S
C66 C37 1.427 . S
C66 H43 0.929 . S
C66 C65 1.328 . S
C67 O51 1.261 1_565 S
C67 O52 1.245 1_554 S
C68 C71 1.399 . S
C68 C72 1.383 . S
C68 C75 1.496 . S
C69 C70 1.399 . S
C69 C72 1.389 . S
C70 C69 1.399 . S
C70 C73 1.380 . S
C70 H80 0.929 . S
C71 C68 1.399 . S
C71 C73 1.392 . S
C71 H81 0.929 . S
C72 C68 1.383 . S
C72 C69 1.389 . S
C72 H82 0.931 1_554 S
C73 C70 1.380 . S
C73 C71 1.392 . S
C73 H83 0.929 . S
C74 O54 1.266 1_565 S
C74 O55 1.248 1_455 S
C75 Tb11 2.802 . S
C75 O50 1.264 . S
C75 O53 1.256 . S
C75 C68 1.496 . S
H76 C59 0.929 . S
H77 C60 0.929 . S
H78 C61 0.929 . S
H79 C62 0.931 1_554 S
H80 C70 0.929 . S
H81 C71 0.929 . S
H82 C72 0.931 1_556 S
H83 C73 0.929 . S
H84 C90 0.930 . S
H85 C94 0.930 . S
H86 C99 0.929 . S
H87 C97 0.929 . S
H88 C92 0.929 . S
H89 C98 0.929 . S
C90 H84 0.930 . S
C90 C91 1.366 . S
C90 C98 1.378 . S
C91 C90 1.366 . S
C91 C99 1.434 1_645 S
C92 H88 0.929 . S
C92 C94 1.378 . S
C92 C96 1.351 . S
C93 C96 1.462 1_645 S
C93 C98 1.350 . S
C93 N101 1.428 1_645 S
C94 H85 0.930 . S
C94 C92 1.378 . S
C94 C95 1.367 . S
C95 C94 1.367 . S
C95 C97 1.433 1_465 S
C96 C92 1.351 . S
C96 C93 1.462 1_465 S
C96 N100 1.426 1_465 S
C97 H87 0.929 . S
C97 C95 1.433 1_645 S
C97 N100 1.384 . S
C98 H89 0.929 . S
C98 C90 1.378 . S
C98 C93 1.350 . S
C99 H86 0.929 . S
C99 C91 1.434 1_465 S
C99 N101 1.384 . S
N100 C96 1.426 1_645 S
N100 C97 1.384 . S
N101 C93 1.428 1_465 S
N101 C99 1.384 . S
H102 C108 0.930 . S
H103 C112 0.930 . S
H104 C117 0.929 . S
H105 C115 0.929 . S
H106 C110 0.929 . S
H107 C116 0.929 . S
C108 H102 0.930 . S
C108 C109 1.367 . S
C108 C116 1.378 . S
C109 C108 1.367 . S
C109 C117 1.433 1_544 S
C110 H106 0.929 . S
C110 C112 1.378 . S
C110 C114 1.350 . S
C111 C114 1.463 1_544 S
C111 C116 1.350 . S
C111 N119 1.427 1_544 S
C112 H103 0.930 . S
C112 C110 1.378 . S
C112 C113 1.367 . S
C113 C112 1.367 . S
C113 C115 1.433 1_566 S
C114 C110 1.350 . S
C114 C111 1.463 1_566 S
C114 N118 1.427 1_566 S
C115 H105 0.929 . S
C115 C113 1.433 1_544 S
C115 N118 1.384 . S
C116 H107 0.929 . S
C116 C108 1.378 . S
C116 C111 1.350 . S
C117 H104 0.929 . S
C117 C109 1.433 1_566 S
C117 N119 1.384 . S
N118 C114 1.427 1_544 S
N118 C115 1.384 . S
N119 C111 1.427 1_566 S
N119 C117 1.384 . S
H120 C126 0.930 . S
H121 C130 0.930 . S
H122 C135 0.929 . S
H123 C133 0.929 . S
H124 C128 0.929 . S
H125 C134 0.929 . S
C126 H120 0.930 . S
C126 C127 1.368 . S
C126 C134 1.378 . S
C127 C126 1.368 . S
C127 C135 1.433 1_456 S
C128 H124 0.929 . S
C128 C130 1.378 . S
C128 C132 1.350 . S
C129 C132 1.464 1_456 S
C129 C134 1.350 . S
C129 N137 1.426 1_456 S
C130 H121 0.930 . S
C130 C128 1.378 . S
C130 C131 1.366 . S
C131 C130 1.366 . S
C131 C133 1.433 1_654 S
C132 C128 1.350 . S
C132 C129 1.464 1_654 S
C132 N136 1.427 1_654 S
C133 H123 0.929 . S
C133 C131 1.433 1_456 S
C133 N136 1.384 . S
C134 H125 0.929 . S
C134 C126 1.378 . S
C134 C129 1.350 . S
C135 H122 0.929 . S
C135 C127 1.433 1_654 S
C135 N137 1.384 . S
N136 C132 1.427 1_456 S
N136 C133 1.384 . S
N137 C129 1.426 1_654 S
N137 C135 1.384 . S
C91 C63 1.475 . S
C95 C74 1.475 . S
C109 C67 1.495 1_545 S
C113 C56 1.497 1_565 S
C127 C58 1.345 1_455 S
C131 C69 1.346 1_655 S
