# Generated by pormake.
# Topology bcu, (8)-cn, num edge types: 1
# Building blocks:
#     Node 0, Type 0, BuildingBlock: TAGTUT_clean_sbu_3, # of connection points: 8
#     Node 1, Type 0, BuildingBlock: TAGTUT_clean_sbu_3, # of connection points: 8
#     Edge 2, Type (0, 0), None
#     Edge 3, Type (0, 0), None
#     Edge 4, Type (0, 0), None
#     Edge 5, Type (0, 0), None
#     Edge 6, Type (0, 0), None
#     Edge 7, Type (0, 0), None
#     Edge 8, Type (0, 0), None
#     Edge 9, Type (0, 0), None
# Relax obj value: 0.007
# Max RMSD: 0.052
# Mean RMSD: 0.052
data_MOF--net-bcu--node1-TAGTUT_clean_sbu_3--edge1-none
_symmetry_space_group_name_H-M    P1
_symmetry_Int_Tables_number       1
_symmetry_cell_setting            triclinic
loop_
_symmetry_equiv_pos_as_xyz
'x, y, z'
_cell_length_a     12.038155
_cell_length_b     12.04121
_cell_length_c     9.9595738
_cell_angle_alpha  92.91528
_cell_angle_beta   87.091337
_cell_angle_gamma 118.18739
loop_
_atom_site_label
_atom_site_type_symbol
_atom_site_fract_x
_atom_site_fract_y
_atom_site_fract_z
_atom_type_partial_charge
C0 C 0.10262 0.12344 0.21289 0.0
C1 C 0.1623 0.7362 0.21837 0.0
C2 C 0.07882 0.65904 0.81895 0.0
Mg3 Mg -0.09007 0.18426 0.03265 0.0
Mg4 Mg 0.63026 -0.05807 0.97624 0.0
O5 O 0.80452 0.00929 0.96008 0.0
Mg6 Mg 0.88822 0.91338 1.01819 0.0
O7 O -0.01591 0.82967 0.07637 0.0
Mg8 Mg 0.15917 -0.06499 1.00406 0.0
Mg9 Mg -0.08322 0.65547 0.06034 0.0
C10 C 0.64976 0.72064 0.82089 0.0
O11 O 0.73602 0.78945 0.17765 0.0
O12 O 0.81692 0.25321 0.87604 0.0
O13 O 0.73858 0.60187 0.16634 0.0
O14 O 0.75063 0.17067 0.18412 0.0
O15 O 0.63535 0.07359 0.84712 0.0
O16 O 0.56598 -0.00403 0.16233 0.0
O17 O 0.05607 0.01572 0.8667 0.0
O18 O 0.05762 0.202 0.87244 0.0
C19 C 0.09814 0.12762 0.82341 0.0
C20 C 0.71091 0.18757 0.81865 0.0
O21 O 0.76424 0.76131 0.85879 0.0
O22 O 0.228 0.84213 0.16092 0.0
O23 O 0.57662 0.76385 0.86988 0.0
O24 O 0.14564 0.77562 0.85275 0.0
O25 O 0.04831 0.66065 0.1898 0.0
O26 O -0.02909 0.59102 0.87445 0.0
O27 O -0.00929 0.08094 0.16948 0.0
O28 O 0.17714 0.08298 0.16412 0.0
C29 C 0.63405 0.10382 0.21792 0.0
C30 C 0.69533 0.67494 0.2154 0.0
C31 C 0.60261 0.62345 0.7129 0.0
C32 C 0.66227 0.23622 0.71846 0.0
C33 C 0.57883 0.15903 0.31901 0.0
Mg34 Mg 0.40994 0.68426 0.53262 0.0
Mg35 Mg 0.13027 0.44193 0.4762 0.0
O36 O 0.30453 0.50929 0.46006 0.0
Mg37 Mg 0.38822 0.41338 0.51819 0.0
O38 O 0.48408 0.32968 0.57639 0.0
Mg39 Mg 0.65917 0.435 0.5041 0.0
Mg40 Mg 0.41677 0.15547 0.56039 0.0
C41 C 0.14976 0.22062 0.3209 0.0
O42 O 0.23601 0.28946 0.67765 0.0
O43 O 0.31693 0.7532 0.37599 0.0
O44 O 0.23857 0.10188 0.66635 0.0
O45 O 0.25063 0.67068 0.68407 0.0
O46 O 0.13538 0.57358 0.34703 0.0
O47 O 0.06597 0.496 0.66226 0.0
O48 O 0.55609 0.51571 0.36671 0.0
O49 O 0.55763 0.70199 0.37243 0.0
C50 C 0.59816 0.62761 0.32341 0.0
C51 C 0.21094 0.68756 0.31856 0.0
O52 O 0.26425 0.2613 0.35879 0.0
O53 O 0.72798 0.34213 0.66098 0.0
O54 O 0.07663 0.26385 0.36986 0.0
O55 O 0.64565 0.2756 0.3528 0.0
O56 O 0.54828 0.16066 0.68988 0.0
O57 O 0.47092 0.091 0.37452 0.0
O58 O 0.4907 0.58095 0.66947 0.0
O59 O 0.67713 0.58298 0.66413 0.0
C60 C 0.13404 0.60384 0.71786 0.0
C61 C 0.1953 0.17495 0.71539 0.0
loop_
_geom_bond_atom_site_label_1
_geom_bond_atom_site_label_2
_geom_bond_distance
_geom_bond_site_symmetry_2
_ccdc_geom_bond_type
C0 O27 1.312 . S
C0 O28 1.208 . S
C1 O22 1.331 . S
C1 O25 1.244 . S
C2 O24 1.264 . S
C2 O26 1.273 . S
Mg3 O5 1.936 1_454 S
Mg3 O12 2.081 1_454 S
Mg3 O14 2.023 1_455 S
Mg3 O18 2.031 1_554 S
Mg3 O27 2.291 . S
Mg4 O5 1.963 1_565 S
Mg4 O15 1.942 1_565 S
Mg4 O16 1.955 1_566 S
Mg4 O23 1.986 . S
O5 Mg3 1.936 1_656 S
O5 Mg4 1.963 1_545 S
O5 Mg6 1.915 1_546 S
Mg6 O5 1.915 1_564 S
Mg6 O7 1.915 1_655 S
Mg6 O11 2.013 . S
Mg6 O17 2.114 1_664 S
Mg6 O21 2.013 1_554 S
Mg6 O27 2.114 1_665 S
O7 Mg6 1.915 1_455 S
O7 Mg8 1.936 1_564 S
O7 Mg9 1.963 1_455 S
Mg8 O7 1.936 1_546 S
Mg8 O17 2.291 . S
Mg8 O22 2.081 1_546 S
Mg8 O24 2.023 1_545 S
Mg8 O28 2.031 1_556 S
Mg9 O7 1.963 1_655 S
Mg9 O13 1.986 . S
Mg9 O25 1.942 1_655 S
Mg9 O26 1.955 1_654 S
C10 O21 1.191 . S
C10 O23 1.307 . S
O11 Mg6 2.013 . S
O11 C30 1.191 . S
O12 Mg3 2.081 1_656 S
O12 C20 1.331 . S
O13 Mg9 1.986 . S
O13 C30 1.307 . S
O14 Mg3 2.023 1_655 S
O14 C29 1.264 . S
O15 Mg4 1.942 1_545 S
O15 C20 1.244 . S
O16 Mg4 1.955 1_544 S
O16 C29 1.273 . S
O17 Mg6 2.114 1_446 S
O17 Mg8 2.291 . S
O17 C19 1.312 . S
O18 Mg3 2.031 1_556 S
O18 C19 1.208 . S
C19 O17 1.312 . S
C19 O18 1.208 . S
C20 O12 1.331 . S
C20 O15 1.244 . S
O21 Mg6 2.013 1_556 S
O21 C10 1.191 . S
O22 C1 1.331 . S
O22 Mg8 2.081 1_564 S
O23 Mg4 1.986 . S
O23 C10 1.307 . S
O24 C2 1.264 . S
O24 Mg8 2.023 1_565 S
O25 C1 1.244 . S
O25 Mg9 1.942 1_455 S
O26 C2 1.273 . S
O26 Mg9 1.955 1_456 S
O27 C0 1.312 . S
O27 Mg3 2.291 . S
O27 Mg6 2.114 1_445 S
O28 C0 1.208 . S
O28 Mg8 2.031 1_554 S
C29 O14 1.264 . S
C29 O16 1.273 . S
C30 O11 1.191 . S
C30 O13 1.307 . S
C31 O58 1.312 . S
C31 O59 1.208 . S
C32 O53 1.331 . S
C32 O56 1.244 . S
C33 O55 1.264 . S
C33 O57 1.273 . S
Mg34 O36 1.936 . S
Mg34 O43 2.081 . S
Mg34 O45 2.023 . S
Mg34 O49 2.031 . S
Mg34 O58 2.291 . S
Mg35 O36 1.963 . S
Mg35 O46 1.942 . S
Mg35 O47 1.955 . S
Mg35 O54 1.986 . S
O36 Mg34 1.936 . S
O36 Mg35 1.963 . S
O36 Mg37 1.915 . S
Mg37 O36 1.915 . S
Mg37 O38 1.915 . S
Mg37 O42 2.013 . S
Mg37 O48 2.114 . S
Mg37 O52 2.013 . S
Mg37 O58 2.114 . S
O38 Mg37 1.915 . S
O38 Mg39 1.936 . S
O38 Mg40 1.963 . S
Mg39 O38 1.936 . S
Mg39 O48 2.291 . S
Mg39 O53 2.081 . S
Mg39 O55 2.023 . S
Mg39 O59 2.031 . S
Mg40 O38 1.963 . S
Mg40 O44 1.986 . S
Mg40 O56 1.942 . S
Mg40 O57 1.955 . S
C41 O52 1.191 . S
C41 O54 1.307 . S
O42 Mg37 2.013 . S
O42 C61 1.191 . S
O43 Mg34 2.081 . S
O43 C51 1.331 . S
O44 Mg40 1.986 . S
O44 C61 1.307 . S
O45 Mg34 2.023 . S
O45 C60 1.264 . S
O46 Mg35 1.942 . S
O46 C51 1.244 . S
O47 Mg35 1.955 . S
O47 C60 1.273 . S
O48 Mg37 2.114 . S
O48 Mg39 2.291 . S
O48 C50 1.312 . S
O49 Mg34 2.031 . S
O49 C50 1.208 . S
C50 O48 1.312 . S
C50 O49 1.208 . S
C51 O43 1.331 . S
C51 O46 1.244 . S
O52 Mg37 2.013 . S
O52 C41 1.191 . S
O53 C32 1.331 . S
O53 Mg39 2.081 . S
O54 Mg35 1.986 . S
O54 C41 1.307 . S
O55 C33 1.264 . S
O55 Mg39 2.023 . S
O56 C32 1.244 . S
O56 Mg40 1.942 . S
O57 C33 1.273 . S
O57 Mg40 1.955 . S
O58 C31 1.312 . S
O58 Mg34 2.291 . S
O58 Mg37 2.114 . S
O59 C31 1.208 . S
O59 Mg39 2.031 . S
C60 O45 1.264 . S
C60 O47 1.273 . S
C61 O42 1.191 . S
C61 O44 1.307 . S
C0 C41 1.497 . S
C29 C33 1.510 . S
C30 C50 1.497 . S
C1 C51 1.414 . S
C2 C60 1.511 . S
C61 C19 1.498 . S
C20 C32 1.416 . S
C31 C10 1.499 . S
