# Generated by pormake.
# Topology npo, (4)-cn, num edge types: 1
# Building blocks:
#     Node 0, Type 0, BuildingBlock: TATPOV_clean_sbu_0, # of connection points: 4
#     Node 1, Type 0, BuildingBlock: TATPOV_clean_sbu_0, # of connection points: 4
#     Node 2, Type 0, BuildingBlock: TATPOV_clean_sbu_0, # of connection points: 4
#     Node 3, Type 0, BuildingBlock: TATPOV_clean_sbu_0, # of connection points: 4
#     Node 4, Type 0, BuildingBlock: TATPOV_clean_sbu_0, # of connection points: 4
#     Node 5, Type 0, BuildingBlock: TATPOV_clean_sbu_0, # of connection points: 4
#     Edge 6, Type (0, 0), BuildingBlock: AJUNOK_clean_linker_0, # of connection points: 2
#     Edge 7, Type (0, 0), BuildingBlock: AJUNOK_clean_linker_0, # of connection points: 2
#     Edge 8, Type (0, 0), BuildingBlock: AJUNOK_clean_linker_0, # of connection points: 2
#     Edge 9, Type (0, 0), BuildingBlock: AJUNOK_clean_linker_0, # of connection points: 2
#     Edge 10, Type (0, 0), BuildingBlock: AJUNOK_clean_linker_0, # of connection points: 2
#     Edge 11, Type (0, 0), BuildingBlock: AJUNOK_clean_linker_0, # of connection points: 2
#     Edge 12, Type (0, 0), BuildingBlock: AJUNOK_clean_linker_0, # of connection points: 2
#     Edge 13, Type (0, 0), BuildingBlock: AJUNOK_clean_linker_0, # of connection points: 2
#     Edge 14, Type (0, 0), BuildingBlock: AJUNOK_clean_linker_0, # of connection points: 2
#     Edge 15, Type (0, 0), BuildingBlock: AJUNOK_clean_linker_0, # of connection points: 2
#     Edge 16, Type (0, 0), BuildingBlock: AJUNOK_clean_linker_0, # of connection points: 2
#     Edge 17, Type (0, 0), BuildingBlock: AJUNOK_clean_linker_0, # of connection points: 2
# Relax obj value: 0.173
# Max RMSD: 0.210
# Mean RMSD: 0.196
data_MOF--net-npo--node1-TATPOV_clean_sbu_0--edge1-AJUNOK_clean_linker_0
_symmetry_space_group_name_H-M    P1
_symmetry_Int_Tables_number       1
_symmetry_cell_setting            triclinic
loop_
_symmetry_equiv_pos_as_xyz
'x, y, z'
_cell_length_a     31.881757
_cell_length_b     30.739284
_cell_length_c     18.825431
_cell_angle_alpha  88.93787
_cell_angle_beta   89.659839
_cell_angle_gamma 121.20956
loop_
_atom_site_label
_atom_site_type_symbol
_atom_site_fract_x
_atom_site_fract_y
_atom_site_fract_z
_atom_type_partial_charge
Zn0 Zn 0.63261 0.14898 0.1899 0.0
Zn1 Zn 0.56673 0.08995 0.27913 0.0
O2 O 0.532 0.12772 0.24697 0.0
O3 O 0.58983 0.17741 0.16863 0.0
O4 O 0.52347 0.03657 0.3546 0.0
O5 O 0.6305 0.10035 0.12344 0.0
O6 O 0.56965 0.04726 0.19506 0.0
C7 C 0.54872 0.16245 0.19849 0.0
C8 C 0.67333 0.17209 0.32089 0.0
O9 O 0.6288 0.13885 0.33642 0.0
O10 O 0.68708 0.18224 0.25661 0.0
C11 C 0.521 0.04903 0.41797 0.0
O12 O 0.54399 0.09755 0.43287 0.0
C13 C 0.59539 0.05607 0.13821 0.0
Zn14 Zn 0.35583 0.52662 0.50916 0.0
Zn15 Zn 0.39445 0.49861 0.61763 0.0
O16 O 0.32296 0.46827 0.65099 0.0
O17 O 0.29035 0.48893 0.56385 0.0
O18 O 0.42693 0.48021 0.69415 0.0
O19 O 0.37764 0.49181 0.44004 0.0
O20 O 0.40849 0.47087 0.52907 0.0
C21 C 0.28616 0.46815 0.62442 0.0
C22 C 0.43317 0.6113 0.58348 0.0
O23 O 0.43269 0.57552 0.61924 0.0
O24 O 0.40381 0.60089 0.53262 0.0
C25 C 0.43572 0.49944 0.75544 0.0
O26 O 0.42023 0.53019 0.77193 0.0
C27 C 0.40078 0.47125 0.46292 0.0
Zn28 Zn 0.81843 0.46233 0.47035 0.0
Zn29 Zn 0.87697 0.46272 0.3637 0.0
O30 O 0.8389 0.4924 0.31633 0.0
O31 O 0.79282 0.49494 0.40141 0.0
O32 O 0.92006 0.46242 0.28477 0.0
O33 O 0.87912 0.50217 0.5299 0.0
O34 O 0.92486 0.50006 0.4438 0.0
C35 C 0.80652 0.50219 0.33668 0.0
C36 C 0.79767 0.36229 0.4332 0.0
O37 O 0.83266 0.38796 0.38874 0.0
O38 O 0.7838 0.38478 0.47439 0.0
C39 C 0.90555 0.45006 0.22146 0.0
O40 O 0.86088 0.43809 0.20505 0.0
C41 C 0.92064 0.51201 0.50675 0.0
Zn42 Zn 0.4693 0.80207 0.88148 0.0
Zn43 Zn 0.46169 0.86179 0.78773 0.0
O44 O 0.38877 0.81862 0.81611 0.0
O45 O 0.3967 0.77061 0.89698 0.0
O46 O 0.4688 0.91339 0.71207 0.0
O47 O 0.51313 0.8553 0.94669 0.0
O48 O 0.50423 0.90555 0.87136 0.0
C49 C 0.37004 0.78317 0.86354 0.0
C50 C 0.49352 0.7854 0.74644 0.0
O51 O 0.48156 0.8181 0.73159 0.0
O52 O 0.49452 0.77326 0.81067 0.0
C53 C 0.44927 0.89863 0.65164 0.0
O54 O 0.42101 0.84959 0.64169 0.0
C55 C 0.52122 0.89885 0.92921 0.0
Zn56 Zn 0.60287 0.41843 0.02009 0.0
Zn57 Zn 0.55133 0.42969 0.12195 0.0
O58 O 0.6222 0.47126 0.15755 0.0
O59 O 0.66582 0.46339 0.07365 0.0
O60 O 0.51201 0.44066 0.19509 0.0
O61 O 0.57703 0.44528 0.94429 0.0
O62 O 0.53234 0.45112 0.02847 0.0
C63 C 0.66351 0.48019 0.13363 0.0
C64 C 0.5346 0.32482 0.09765 0.0
O65 O 0.52576 0.35381 0.13373 0.0
O66 O 0.56462 0.34284 0.04545 0.0
C67 C 0.50744 0.42322 0.25822 0.0
O68 O 0.52973 0.3987 0.27528 0.0
C69 C 0.54479 0.45525 0.96306 0.0
Zn70 Zn 0.14122 0.50543 0.95145 0.0
Zn71 Zn 0.09075 0.51868 0.85292 0.0
O72 O 0.11903 0.47929 0.80398 0.0
O73 O 0.15879 0.46517 0.88711 0.0
O74 O 0.04817 0.52293 0.77798 0.0
O75 O 0.08511 0.47317 0.02142 0.0
O76 O 0.04437 0.48915 0.94206 0.0
C77 C 0.14585 0.4617 0.823 0.0
C78 C 0.18113 0.61103 0.90556 0.0
O79 O 0.14547 0.59241 0.863 0.0
O80 O 0.18605 0.58216 0.9493 0.0
C81 C 0.06515 0.54088 0.716 0.0
O82 O 0.11136 0.55708 0.70118 0.0
C83 C 0.04684 0.47315 1.0041 0.0
C84 C 0.51975 0.22153 0.22379 0.0
C85 C 0.52302 0.18849 0.17669 0.0
C86 C 0.517 0.2631 0.19775 0.0
C87 C 0.51803 0.27274 0.12405 0.0
H88 H 0.52497 0.21872 0.28014 0.0
H89 H 0.51968 0.29073 0.23524 0.0
S90 S 0.51365 0.18955 0.98079 0.0
N91 N 0.51741 0.16209 0.05473 0.0
N92 N 0.51244 0.24014 0.00569 0.0
C93 C 0.51457 0.23597 0.07741 0.0
C94 C 0.51704 0.19375 0.10388 0.0
C95 C 0.24147 0.4391 0.74178 0.0
C96 C 0.24161 0.45198 0.66959 0.0
C97 C 0.20687 0.43705 0.79021 0.0
C98 C 0.1709 0.44789 0.7686 0.0
H99 H 0.27042 0.43409 0.7624 0.0
H100 H 0.21081 0.43065 0.84586 0.0
S101 S 0.14769 0.47097 0.58257 0.0
N102 N 0.19684 0.4662 0.57666 0.0
N103 N 0.13198 0.46247 0.66765 0.0
C104 C 0.16699 0.45477 0.69527 0.0
C105 C 0.2023 0.45685 0.64578 0.0
C106 C 0.75707 0.23424 0.35946 0.0
C107 C 0.70637 0.20779 0.37407 0.0
C108 C 0.78794 0.28263 0.3861 0.0
C109 C 0.76909 0.3062 0.42818 0.0
H110 H 0.77213 0.21988 0.32108 0.0
H111 H 0.82591 0.30345 0.36805 0.0
S112 S 0.64149 0.24621 0.49857 0.0
N113 N 0.64059 0.20338 0.44593 0.0
N114 N 0.69872 0.29459 0.49653 0.0
C115 C 0.72 0.27679 0.45231 0.0
C116 C 0.68852 0.22727 0.42515 0.0
C117 C 0.50745 0.71666 0.70946 0.0
C118 C 0.49467 0.75274 0.69053 0.0
C119 C 0.49166 0.67308 0.66971 0.0
C120 C 0.46248 0.66393 0.60951 0.0
H121 H 0.52591 0.71962 0.75888 0.0
H122 H 0.49898 0.64448 0.68999 0.0
S123 S 0.43278 0.75463 0.52504 0.0
N124 N 0.46166 0.7826 0.59826 0.0
N125 N 0.43163 0.70034 0.5235 0.0
C126 C 0.45596 0.70335 0.58401 0.0
C127 C 0.47228 0.74799 0.62453 0.0
C128 C 0.69953 0.50465 0.25473 0.0
C129 C 0.70642 0.5009 0.1816 0.0
C130 C 0.73448 0.51003 0.30434 0.0
C131 C 0.77789 0.51196 0.28302 0.0
H132 H 0.66529 0.49957 0.27468 0.0
H133 H 0.72554 0.5089 0.3602 0.0
S134 S 0.81921 0.51688 0.09653 0.0
N135 N 0.76416 0.50913 0.08941 0.0
N136 N 0.82984 0.51951 0.18251 0.0
C137 C 0.78781 0.51433 0.20953 0.0
C138 C 0.75211 0.50872 0.15892 0.0
C139 C 0.29976 0.72988 0.9446 0.0
C140 C 0.31668 0.75179 0.87641 0.0
C141 C 0.253 0.68705 0.95509 0.0
C142 C 0.22152 0.66456 0.89771 0.0
H143 H 0.3243 0.74337 0.98924 0.0
H144 H 0.24304 0.66905 0.00751 0.0
S145 S 0.245 0.71363 0.71114 0.0
N146 N 0.29595 0.75302 0.75271 0.0
N147 N 0.20749 0.67216 0.77227 0.0
C148 C 0.23567 0.68982 0.83085 0.0
C149 C 0.28356 0.73367 0.82019 0.0
C150 C 0.54079 0.92753 0.05391 0.0
C151 C 0.54489 0.93997 0.98069 0.0
C152 C 0.55785 0.96527 0.10497 0.0
C153 C 0.58067 0.01675 0.08445 0.0
H154 H 0.52256 0.88817 0.0722 0.0
H155 H 0.55275 0.95407 0.16074 0.0
S156 S 0.602 0.06943 0.89951 0.0
N157 N 0.57422 0.00729 0.89034 0.0
N158 N 0.60737 0.07855 0.98593 0.0
C159 C 0.58639 0.02984 0.01132 0.0
C160 C 0.5682 -0.00866 0.9595 0.0
C161 C 0.44919 0.45163 0.28949 0.0
C162 C 0.47773 0.43121 0.31149 0.0
C163 C 0.42268 0.46219 0.33853 0.0
C164 C 0.42375 0.45308 0.41185 0.0
H165 H 0.44776 0.46033 0.23385 0.0
H166 H 0.40238 0.47911 0.31868 0.0
S167 S 0.49037 0.3968 0.49702 0.0
N168 N 0.50353 0.39979 0.41148 0.0
N169 N 0.45383 0.41974 0.50377 0.0
C170 C 0.4508 0.43097 0.4345 0.0
C171 C 0.47774 0.42005 0.38436 0.0
C172 C 0.9666 0.46368 0.04154 0.0
C173 C 0.00791 0.46051 0.05879 0.0
C174 C 0.93283 0.45869 0.09412 0.0
C175 C 0.93934 0.45096 0.16615 0.0
H176 H 0.96094 0.47155 0.98727 0.0
H177 H 0.90237 0.46275 0.07843 0.0
S178 S 0.03794 0.434 0.23913 0.0
N179 N 0.05064 0.44445 0.15319 0.0
N180 N 0.98768 0.43598 0.25141 0.0
C181 C 0.97916 0.44552 0.18388 0.0
C182 C 0.01322 0.44996 0.13039 0.0
C183 C 0.50717 0.0246 0.54763 0.0
C184 C 0.49781 0.0098 0.47629 0.0
C185 C 0.49015 -0.01147 0.60385 0.0
C186 C 0.46258 0.93598 0.5914 0.0
H187 H 0.5292 0.06446 0.5604 0.0
H188 H 0.49961 0.0021 0.65749 0.0
S189 S 0.42422 0.87704 0.41465 0.0
N190 N 0.45653 0.93878 0.39662 0.0
N191 N 0.42416 0.87106 0.50197 0.0
C192 C 0.45112 0.92063 0.52045 0.0
C193 C 0.46882 0.95744 0.46308 0.0
C194 C 0.46374 0.49877 0.87942 0.0
C195 C 0.46451 0.48865 0.80695 0.0
C196 C 0.49027 0.48852 0.92928 0.0
C197 C 0.51926 0.46843 0.9086 0.0
H198 H 0.44192 0.51409 0.89813 0.0
H199 H 0.48786 0.49631 0.98455 0.0
S200 S 0.53531 0.43694 0.72449 0.0
N201 N 0.49766 0.45847 0.71665 0.0
N202 N 0.54777 0.4397 0.80983 0.0
C203 C 0.52108 0.45903 0.83595 0.0
C204 C 0.49362 0.46893 0.78535 0.0
C205 C 0.98705 0.53517 0.68092 0.0
C206 C 0.03218 0.54084 0.66065 0.0
C207 C 0.95275 0.52967 0.6303 0.0
C208 C 0.96178 0.52895 0.55709 0.0
H209 H 0.97747 0.53363 0.7366 0.0
H210 H 0.91787 0.52344 0.64927 0.0
S211 S 0.0766 0.5475 0.47566 0.0
N212 N 0.08593 0.54965 0.56201 0.0
N213 N 0.02129 0.5388 0.46671 0.0
C214 C 0.00798 0.53747 0.53583 0.0
C215 C 0.04317 0.54349 0.58758 0.0
loop_
_geom_bond_atom_site_label_1
_geom_bond_atom_site_label_2
_geom_bond_distance
_geom_bond_site_symmetry_2
_ccdc_geom_bond_type
Zn0 O3 2.031 . S
Zn0 O5 2.049 . S
Zn0 O10 2.067 . S
Zn1 O2 1.962 . S
Zn1 O4 1.986 . S
Zn1 O6 1.996 . S
Zn1 O9 1.943 . S
O2 Zn1 1.962 . S
O2 C7 1.254 . S
O3 Zn0 2.031 . S
O3 C7 1.269 . S
O4 Zn1 1.986 . S
O4 C11 1.262 . S
O5 Zn0 2.049 . S
O5 C13 1.260 . S
O6 Zn1 1.996 . S
O6 C13 1.257 . S
C7 O2 1.254 . S
C7 O3 1.269 . S
C8 O9 1.249 . S
C8 O10 1.270 . S
O9 Zn1 1.943 . S
O9 C8 1.249 . S
O10 Zn0 2.067 . S
O10 C8 1.270 . S
C11 O4 1.262 . S
C11 O12 1.232 . S
O12 C11 1.232 . S
C13 O5 1.260 . S
C13 O6 1.257 . S
Zn14 O17 2.031 . S
Zn14 O19 2.049 . S
Zn14 O24 2.067 . S
Zn15 O16 1.962 . S
Zn15 O18 1.986 . S
Zn15 O20 1.996 . S
Zn15 O23 1.943 . S
O16 Zn15 1.962 . S
O16 C21 1.254 . S
O17 Zn14 2.031 . S
O17 C21 1.269 . S
O18 Zn15 1.986 . S
O18 C25 1.262 . S
O19 Zn14 2.049 . S
O19 C27 1.260 . S
O20 Zn15 1.996 . S
O20 C27 1.257 . S
C21 O16 1.254 . S
C21 O17 1.269 . S
C22 O23 1.249 . S
C22 O24 1.270 . S
O23 Zn15 1.943 . S
O23 C22 1.249 . S
O24 Zn14 2.067 . S
O24 C22 1.270 . S
C25 O18 1.262 . S
C25 O26 1.232 . S
O26 C25 1.232 . S
C27 O19 1.260 . S
C27 O20 1.257 . S
Zn28 O31 2.031 . S
Zn28 O33 2.049 . S
Zn28 O38 2.067 . S
Zn29 O30 1.962 . S
Zn29 O32 1.986 . S
Zn29 O34 1.996 . S
Zn29 O37 1.943 . S
O30 Zn29 1.962 . S
O30 C35 1.254 . S
O31 Zn28 2.031 . S
O31 C35 1.269 . S
O32 Zn29 1.986 . S
O32 C39 1.262 . S
O33 Zn28 2.049 . S
O33 C41 1.260 . S
O34 Zn29 1.996 . S
O34 C41 1.257 . S
C35 O30 1.254 . S
C35 O31 1.269 . S
C36 O37 1.249 . S
C36 O38 1.270 . S
O37 Zn29 1.943 . S
O37 C36 1.249 . S
O38 Zn28 2.067 . S
O38 C36 1.270 . S
C39 O32 1.262 . S
C39 O40 1.232 . S
O40 C39 1.232 . S
C41 O33 1.260 . S
C41 O34 1.257 . S
Zn42 O45 2.031 . S
Zn42 O47 2.049 . S
Zn42 O52 2.067 . S
Zn43 O44 1.962 . S
Zn43 O46 1.986 . S
Zn43 O48 1.996 . S
Zn43 O51 1.943 . S
O44 Zn43 1.962 . S
O44 C49 1.254 . S
O45 Zn42 2.031 . S
O45 C49 1.269 . S
O46 Zn43 1.986 . S
O46 C53 1.262 . S
O47 Zn42 2.049 . S
O47 C55 1.260 . S
O48 Zn43 1.996 . S
O48 C55 1.257 . S
C49 O44 1.254 . S
C49 O45 1.269 . S
C50 O51 1.249 . S
C50 O52 1.270 . S
O51 Zn43 1.943 . S
O51 C50 1.249 . S
O52 Zn42 2.067 . S
O52 C50 1.270 . S
C53 O46 1.262 . S
C53 O54 1.232 . S
O54 C53 1.232 . S
C55 O47 1.260 . S
C55 O48 1.257 . S
Zn56 O59 2.031 . S
Zn56 O61 2.049 . S
Zn56 O66 2.067 . S
Zn57 O58 1.962 . S
Zn57 O60 1.986 . S
Zn57 O62 1.996 . S
Zn57 O65 1.943 . S
O58 Zn57 1.962 . S
O58 C63 1.254 . S
O59 Zn56 2.031 . S
O59 C63 1.269 . S
O60 Zn57 1.986 . S
O60 C67 1.262 . S
O61 Zn56 2.049 . S
O61 C69 1.260 . S
O62 Zn57 1.996 . S
O62 C69 1.257 . S
C63 O58 1.254 . S
C63 O59 1.269 . S
C64 O65 1.249 . S
C64 O66 1.270 . S
O65 Zn57 1.943 . S
O65 C64 1.249 . S
O66 Zn56 2.067 . S
O66 C64 1.270 . S
C67 O60 1.262 . S
C67 O68 1.232 . S
O68 C67 1.232 . S
C69 O61 1.260 . S
C69 O62 1.257 . S
Zn70 O73 2.031 . S
Zn70 O75 2.049 . S
Zn70 O80 2.067 . S
Zn71 O72 1.962 . S
Zn71 O74 1.986 . S
Zn71 O76 1.996 . S
Zn71 O79 1.943 . S
O72 Zn71 1.962 . S
O72 C77 1.254 . S
O73 Zn70 2.031 . S
O73 C77 1.269 . S
O74 Zn71 1.986 . S
O74 C81 1.262 . S
O75 Zn70 2.049 . S
O75 C83 1.260 . S
O76 Zn71 1.996 . S
O76 C83 1.257 . S
C77 O72 1.254 . S
C77 O73 1.269 . S
C78 O79 1.249 . S
C78 O80 1.270 . S
O79 Zn71 1.943 . S
O79 C78 1.249 . S
O80 Zn70 2.067 . S
O80 C78 1.270 . S
C81 O74 1.262 . S
C81 O82 1.232 . S
O82 C81 1.232 . S
C83 O75 1.260 . S
C83 O76 1.257 . S
C84 C85 1.369 . S
C84 C86 1.419 . S
C84 H88 0.930 . S
C85 C84 1.369 . S
C85 C94 1.429 . S
C86 C84 1.419 . S
C86 C87 1.363 . S
C86 H89 0.929 . S
C87 C86 1.363 . S
C87 C93 1.428 . S
H88 C84 0.930 . S
H89 C86 0.929 . S
S90 N91 1.613 . S
S90 N92 1.610 . S
N91 S90 1.613 . S
N91 C94 1.350 . S
N92 S90 1.610 . S
N92 C93 1.351 . S
C93 C87 1.428 . S
C93 N92 1.351 . S
C93 C94 1.434 . S
C94 C85 1.429 . S
C94 N91 1.350 . S
C94 C93 1.434 . S
C95 C96 1.369 . S
C95 C97 1.419 . S
C95 H99 0.930 . S
C96 C95 1.369 . S
C96 C105 1.429 . S
C97 C95 1.419 . S
C97 C98 1.363 . S
C97 H100 0.929 . S
C98 C97 1.363 . S
C98 C104 1.428 . S
H99 C95 0.930 . S
H100 C97 0.929 . S
S101 N102 1.613 . S
S101 N103 1.610 . S
N102 S101 1.613 . S
N102 C105 1.350 . S
N103 S101 1.610 . S
N103 C104 1.351 . S
C104 C98 1.428 . S
C104 N103 1.351 . S
C104 C105 1.434 . S
C105 C96 1.429 . S
C105 N102 1.350 . S
C105 C104 1.434 . S
C106 C107 1.369 . S
C106 C108 1.419 . S
C106 H110 0.930 . S
C107 C106 1.369 . S
C107 C116 1.429 . S
C108 C106 1.419 . S
C108 C109 1.363 . S
C108 H111 0.929 . S
C109 C108 1.363 . S
C109 C115 1.428 . S
H110 C106 0.930 . S
H111 C108 0.929 . S
S112 N113 1.613 . S
S112 N114 1.610 . S
N113 S112 1.613 . S
N113 C116 1.350 . S
N114 S112 1.610 . S
N114 C115 1.351 . S
C115 C109 1.428 . S
C115 N114 1.351 . S
C115 C116 1.434 . S
C116 C107 1.429 . S
C116 N113 1.350 . S
C116 C115 1.434 . S
C117 C118 1.369 . S
C117 C119 1.419 . S
C117 H121 0.930 . S
C118 C117 1.369 . S
C118 C127 1.429 . S
C119 C117 1.419 . S
C119 C120 1.363 . S
C119 H122 0.929 . S
C120 C119 1.363 . S
C120 C126 1.428 . S
H121 C117 0.930 . S
H122 C119 0.929 . S
S123 N124 1.613 . S
S123 N125 1.610 . S
N124 S123 1.613 . S
N124 C127 1.350 . S
N125 S123 1.610 . S
N125 C126 1.351 . S
C126 C120 1.428 . S
C126 N125 1.351 . S
C126 C127 1.434 . S
C127 C118 1.429 . S
C127 N124 1.350 . S
C127 C126 1.434 . S
C128 C129 1.369 . S
C128 C130 1.419 . S
C128 H132 0.930 . S
C129 C128 1.369 . S
C129 C138 1.429 . S
C130 C128 1.419 . S
C130 C131 1.363 . S
C130 H133 0.929 . S
C131 C130 1.363 . S
C131 C137 1.428 . S
H132 C128 0.930 . S
H133 C130 0.929 . S
S134 N135 1.613 . S
S134 N136 1.610 . S
N135 S134 1.613 . S
N135 C138 1.350 . S
N136 S134 1.610 . S
N136 C137 1.351 . S
C137 C131 1.428 . S
C137 N136 1.351 . S
C137 C138 1.434 . S
C138 C129 1.429 . S
C138 N135 1.350 . S
C138 C137 1.434 . S
C139 C140 1.369 . S
C139 C141 1.419 . S
C139 H143 0.930 . S
C140 C139 1.369 . S
C140 C149 1.429 . S
C141 C139 1.419 . S
C141 C142 1.363 . S
C141 H144 0.929 . S
C142 C141 1.363 . S
C142 C148 1.428 . S
H143 C139 0.930 . S
H144 C141 0.929 . S
S145 N146 1.613 . S
S145 N147 1.610 . S
N146 S145 1.613 . S
N146 C149 1.350 . S
N147 S145 1.610 . S
N147 C148 1.351 . S
C148 C142 1.428 . S
C148 N147 1.351 . S
C148 C149 1.434 . S
C149 C140 1.429 . S
C149 N146 1.350 . S
C149 C148 1.434 . S
C150 C151 1.369 . S
C150 C152 1.419 1_556 S
C150 H154 0.930 . S
C151 C150 1.369 . S
C151 C160 1.429 1_565 S
C152 C150 1.419 1_554 S
C152 C153 1.363 1_565 S
C152 H155 0.929 . S
C153 C152 1.363 1_545 S
C153 C159 1.428 . S
H154 C150 0.930 . S
H155 C152 0.929 . S
S156 N157 1.613 . S
S156 N158 1.610 1_556 S
N157 S156 1.613 . S
N157 C160 1.350 . S
N158 S156 1.610 1_554 S
N158 C159 1.351 . S
C159 C153 1.428 . S
C159 N158 1.351 . S
C159 C160 1.434 1_554 S
C160 C151 1.429 1_545 S
C160 N157 1.350 . S
C160 C159 1.434 1_556 S
C161 C162 1.369 . S
C161 C163 1.419 . S
C161 H165 0.930 . S
C162 C161 1.369 . S
C162 C171 1.429 . S
C163 C161 1.419 . S
C163 C164 1.363 . S
C163 H166 0.929 . S
C164 C163 1.363 . S
C164 C170 1.428 . S
H165 C161 0.930 . S
H166 C163 0.929 . S
S167 N168 1.613 . S
S167 N169 1.610 . S
N168 S167 1.613 . S
N168 C171 1.350 . S
N169 S167 1.610 . S
N169 C170 1.351 . S
C170 C164 1.428 . S
C170 N169 1.351 . S
C170 C171 1.434 . S
C171 C162 1.429 . S
C171 N168 1.350 . S
C171 C170 1.434 . S
C172 C173 1.369 . S
C172 C174 1.419 1_456 S
C172 H176 0.930 . S
C173 C172 1.369 . S
C173 C182 1.429 . S
C174 C172 1.419 1_654 S
C174 C175 1.363 . S
C174 H177 0.929 . S
C175 C174 1.363 . S
C175 C181 1.428 . S
H176 C172 0.930 . S
H177 C174 0.929 . S
S178 N179 1.612 1_654 S
S178 N180 1.620 . S
N179 S178 1.612 1_456 S
N179 C182 1.350 . S
N180 S178 1.620 . S
N180 C181 1.351 . S
C181 C175 1.428 . S
C181 N180 1.351 . S
C181 C182 1.434 1_654 S
C182 C173 1.429 . S
C182 N179 1.350 . S
C182 C181 1.434 1_456 S
C183 C184 1.369 . S
C183 C185 1.419 . S
C183 H187 0.930 . S
C184 C183 1.369 . S
C184 C193 1.429 1_545 S
C185 C183 1.419 . S
C185 C186 1.363 1_545 S
C185 H188 0.929 . S
C186 C185 1.363 1_565 S
C186 C192 1.428 . S
H187 C183 0.930 . S
H188 C185 0.929 . S
S189 N190 1.613 . S
S189 N191 1.610 . S
N190 S189 1.613 . S
N190 C193 1.350 . S
N191 S189 1.610 . S
N191 C192 1.351 . S
C192 C186 1.428 . S
C192 N191 1.351 . S
C192 C193 1.434 . S
C193 C184 1.429 1_565 S
C193 N190 1.350 . S
C193 C192 1.434 . S
C194 C195 1.369 1_554 S
C194 C196 1.419 . S
C194 H198 0.930 . S
C195 C194 1.369 1_556 S
C195 C204 1.429 . S
C196 C194 1.419 . S
C196 C197 1.363 . S
C196 H199 0.929 . S
C197 C196 1.363 . S
C197 C203 1.428 . S
H198 C194 0.930 . S
H199 C196 0.929 . S
S200 N201 1.613 . S
S200 N202 1.610 1_556 S
N201 S200 1.613 . S
N201 C204 1.350 . S
N202 S200 1.610 1_554 S
N202 C203 1.351 . S
C203 C197 1.428 . S
C203 N202 1.351 . S
C203 C204 1.434 1_554 S
C204 C195 1.429 . S
C204 N201 1.350 . S
C204 C203 1.434 1_556 S
C205 C206 1.369 1_655 S
C205 C207 1.419 . S
C205 H209 0.930 . S
C206 C205 1.369 1_455 S
C206 C215 1.429 . S
C207 C205 1.419 . S
C207 C208 1.363 . S
C207 H210 0.929 . S
C208 C207 1.363 . S
C208 C214 1.428 . S
H209 C205 0.930 . S
H210 C207 0.929 . S
S211 N212 1.613 . S
S211 N213 1.610 1_455 S
N212 S211 1.613 . S
N212 C215 1.350 . S
N213 S211 1.610 1_655 S
N213 C214 1.351 . S
C214 C208 1.428 . S
C214 N213 1.351 . S
C214 C215 1.434 1_655 S
C215 C206 1.429 . S
C215 N212 1.350 . S
C215 C214 1.434 1_455 S
C85 C7 1.169 . S
C87 C64 1.185 . S
C96 C21 1.188 . S
C98 C77 1.174 . S
C107 C8 1.203 . S
C109 C36 1.197 . S
C118 C50 1.200 . S
C120 C22 1.196 . S
C129 C63 1.165 . S
C131 C35 1.192 . S
C140 C49 1.179 . S
C142 C78 1.191 . S
C151 C55 1.312 . S
C153 C13 1.302 . S
C162 C67 1.432 . S
C164 C27 1.325 . S
C173 C83 1.314 . S
C175 C39 1.420 . S
C184 C11 1.421 . S
C186 C53 1.417 . S
C195 C25 1.421 . S
C197 C69 1.309 . S
C206 C81 1.431 . S
C208 C41 1.330 . S
