# Generated by pormake.
# Topology sma, (6)-cn, num edge types: 1
# Building blocks:
#     Node 0, Type 0, BuildingBlock: VOLQOD_clean_sbu_1, # of connection points: 6
#     Node 1, Type 0, BuildingBlock: VOLQOD_clean_sbu_1, # of connection points: 6
#     Node 2, Type 0, BuildingBlock: VOLQOD_clean_sbu_1, # of connection points: 6
#     Edge 3, Type (0, 0), BuildingBlock: XIVTED_clean_linker_0, # of connection points: 2
#     Edge 4, Type (0, 0), BuildingBlock: XIVTED_clean_linker_0, # of connection points: 2
#     Edge 5, Type (0, 0), BuildingBlock: XIVTED_clean_linker_0, # of connection points: 2
#     Edge 6, Type (0, 0), BuildingBlock: XIVTED_clean_linker_0, # of connection points: 2
#     Edge 7, Type (0, 0), BuildingBlock: XIVTED_clean_linker_0, # of connection points: 2
#     Edge 8, Type (0, 0), BuildingBlock: XIVTED_clean_linker_0, # of connection points: 2
#     Edge 9, Type (0, 0), BuildingBlock: XIVTED_clean_linker_0, # of connection points: 2
#     Edge 10, Type (0, 0), BuildingBlock: XIVTED_clean_linker_0, # of connection points: 2
#     Edge 11, Type (0, 0), BuildingBlock: XIVTED_clean_linker_0, # of connection points: 2
# Relax obj value: 0.284
# Max RMSD: 0.234
# Mean RMSD: 0.234
data_MOF--net-sma--node1-VOLQOD_clean_sbu_1--edge1-XIVTED_clean_linker_0
_symmetry_space_group_name_H-M    P1
_symmetry_Int_Tables_number       1
_symmetry_cell_setting            triclinic
loop_
_symmetry_equiv_pos_as_xyz
'x, y, z'
_cell_length_a     31.127623
_cell_length_b     31.002058
_cell_length_c     17.233709
_cell_angle_alpha  90.088474
_cell_angle_beta   90.00565
_cell_angle_gamma 120.11972
loop_
_atom_site_label
_atom_site_type_symbol
_atom_site_fract_x
_atom_site_fract_y
_atom_site_fract_z
_atom_type_partial_charge
O0 O 0.02708 0.56265 0.94815 0.0
Zn1 Zn 0.01824 0.58045 0.05701 0.0
O2 O -0.00267 0.52289 0.12174 0.0
Zn3 Zn 0.05017 0.53077 0.18667 0.0
Zn4 Zn 0.97612 0.46533 0.05662 0.0
Zn5 Zn 0.94473 0.51488 0.1874 0.0
O6 O 0.02802 0.514 0.29707 0.0
O7 O 0.96775 0.53281 0.29741 0.0
O8 O 0.07905 0.64087 0.10271 0.0
O9 O 0.10014 0.60266 0.19092 0.0
O10 O 0.08206 0.49324 0.14446 0.0
O11 O 0.0315 0.45014 0.04752 0.0
O12 O 0.91583 0.40491 0.10276 0.0
O13 O 0.96272 0.59548 0.04894 0.0
O14 O 0.89537 0.44278 0.1927 0.0
O15 O 0.91202 0.55158 0.14503 0.0
C16 C -0.00347 0.52281 0.9122 0.0
C17 C -0.00192 0.52362 0.33329 0.0
C18 C 0.07082 0.46358 0.08694 0.0
C19 C 0.10721 0.64229 0.15769 0.0
C20 C 0.88826 0.40325 0.15882 0.0
C21 C 0.92318 0.58145 0.08798 0.0
O22 O 0.96638 0.48299 0.94833 0.0
O23 O 0.48742 0.05048 0.27659 0.0
Zn24 Zn 0.46303 0.04362 0.38632 0.0
O25 O 0.49948 0.02178 0.44878 0.0
Zn26 Zn 0.54511 0.07235 0.51621 0.0
Zn27 Zn 0.53571 -0.00017 0.38567 0.0
Zn28 Zn 0.45402 0.97143 0.51637 0.0
O29 O 0.54105 0.04628 0.62417 0.0
O30 O 0.45904 -0.00256 0.62485 0.0
O31 O 0.46653 0.10546 0.4346 0.0
O32 O 0.52358 0.12216 0.52551 0.0
O33 O 0.6137 0.10629 0.47205 0.0
O34 O 0.60695 0.05471 0.37739 0.0
O35 O 0.53213 0.93777 0.43347 0.0
O36 O 0.39182 0.98884 0.3782 0.0
O37 O 0.47524 0.92143 0.52439 0.0
O38 O 0.38509 0.93757 0.47301 0.0
C39 C 0.49905 0.02175 0.24036 0.0
C40 C 0.50022 0.0218 0.66088 0.0
C41 C 0.63236 0.09509 0.41513 0.0
C42 C 0.49283 0.13159 0.49192 0.0
C43 C 0.50575 0.91172 0.49065 0.0
C44 C 0.36637 0.94865 0.4161 0.0
O45 O 0.51092 -0.00696 0.27596 0.0
O46 O 0.45392 0.50152 0.63372 0.0
Zn47 Zn 0.43923 0.47752 0.74396 0.0
O48 O 0.49604 0.51996 0.80634 0.0
Zn49 Zn 0.48348 0.56096 0.87312 0.0
Zn50 Zn 0.55244 0.56127 0.74262 0.0
Zn51 Zn 0.50902 0.47992 0.8743 0.0
O52 O 0.50804 0.56113 -0.01894 0.0
O53 O 0.48447 0.4806 -0.01816 0.0
O54 O 0.37636 0.47165 0.79059 0.0
O55 O 0.41045 0.52876 0.8839 0.0
O56 O 0.51012 0.62927 0.82728 0.0
O57 O 0.56019 0.62922 0.73563 0.0
O58 O 0.6156 0.5675 0.789 0.0
O59 O 0.43209 0.40976 0.73816 0.0
O60 O 0.58203 0.51262 0.88505 0.0
O61 O 0.48299 0.41133 0.82974 0.0
C62 C 0.49507 0.51864 0.59733 0.0
C63 C 0.49626 0.52103 0.01785 0.0
C64 C 0.54034 0.65069 0.77148 0.0
C65 C 0.37241 0.49446 0.8495 0.0
C66 C 0.61988 0.54605 0.84931 0.0
C67 C 0.45262 0.38911 0.77431 0.0
O68 O 0.53662 0.53609 0.63278 0.0
H69 H 0.15095 0.472 0.16511 0.0
H70 H 0.27913 0.442 0.78257 0.0
H71 H 0.07521 0.42634 0.94451 0.0
H72 H 0.35435 0.51032 -0.00276 0.0
H73 H 0.19955 0.42015 0.84503 0.0
H74 H 0.22043 0.46744 0.10952 0.0
C75 C 0.1486 0.46026 0.10526 0.0
C76 C 0.10767 0.4505 0.05901 0.0
C77 C 0.23361 0.43962 0.87825 0.0
C78 C 0.18759 0.44619 -0.00566 0.0
C79 C 0.27888 0.45217 0.84266 0.0
C80 C 0.32344 0.47891 0.88426 0.0
C81 C 0.23325 0.4534 0.95598 0.0
C82 C 0.32109 0.49072 0.96223 0.0
C83 C 0.18839 0.45783 0.07336 0.0
C84 C 0.10632 0.43469 -0.01793 0.0
N85 N 0.27692 0.47806 -0.00474 0.0
N86 N 0.14621 0.43389 0.9516 0.0
H87 H 0.6749 0.096 0.27476 0.0
H88 H 0.83244 0.38914 0.28762 0.0
H89 H 0.69872 0.18381 0.48201 0.0
H90 H 0.86046 0.30743 0.11054 0.0
H91 H 0.77868 0.31173 0.35366 0.0
H92 H 0.74176 0.16972 0.21082 0.0
C93 C 0.69497 0.13032 0.30758 0.0
C94 C 0.68048 0.134 0.38349 0.0
C95 C 0.79662 0.31053 0.3005 0.0
C96 C 0.75594 0.21821 0.31013 0.0
C97 C 0.82705 0.35484 0.262 0.0
C98 C 0.85121 0.35499 0.19312 0.0
C99 C 0.78941 0.26549 0.26987 0.0
C100 C 0.84251 0.30904 0.16337 0.0
C101 C 0.73291 0.17239 0.27077 0.0
C102 C 0.70792 0.17937 0.42306 0.0
N103 N 0.81202 0.26589 0.20186 0.0
N104 N 0.7437 0.21986 0.38546 0.0
H105 H 0.57852 0.88774 0.45911 0.0
H106 H 0.498 0.70413 0.82364 0.0
H107 H 0.45062 0.84705 0.60437 0.0
H108 H 0.59466 0.70317 0.64452 0.0
H109 H 0.49356 0.77013 0.75445 0.0
H110 H 0.59458 0.82933 0.53297 0.0
C111 C 0.55359 0.86626 0.50568 0.0
C112 C 0.5133 0.87252 0.52568 0.0
C113 C 0.51608 0.75575 0.73055 0.0
C114 C 0.53217 0.8072 0.61104 0.0
C115 C 0.51898 0.71832 0.77045 0.0
C116 C 0.54608 0.69746 0.7393 0.0
C117 C 0.54043 0.77254 0.65896 0.0
C118 C 0.57284 0.71779 0.67029 0.0
C119 C 0.563 0.83335 0.54809 0.0
C120 C 0.48236 0.84393 0.58694 0.0
N121 N 0.56891 0.75391 0.63184 0.0
N122 N 0.49267 0.81293 0.62756 0.0
H123 H 0.71283 0.59709 0.7812 0.0
H124 H 0.84268 0.57244 0.16571 0.0
H125 H 0.63873 0.53311 -0.00195 0.0
H126 H 0.91829 0.61777 0.94526 0.0
H127 H 0.77268 0.5758 0.10957 0.0
H128 H 0.7927 0.62 0.84371 0.0
C129 C 0.71338 0.58809 0.84176 0.0
C130 C 0.66904 0.56224 0.884 0.0
C131 C 0.8048 0.58561 0.07355 0.0
C132 C 0.75959 0.58896 0.95576 0.0
C133 C 0.84488 0.58388 0.10578 0.0
C134 C 0.88596 0.59392 0.05976 0.0
C135 C 0.80543 0.5968 -0.0056 0.0
C136 C 0.88709 0.60926 -0.01733 0.0
C137 C 0.75883 0.60125 0.87739 0.0
C138 C 0.6718 0.55196 0.96256 0.0
N139 N 0.84692 0.60936 0.95187 0.0
N140 N 0.71613 0.56515 -0.00441 0.0
H141 H 0.3224 0.94882 0.27765 0.0
H142 H 0.16639 0.65572 0.28192 0.0
H143 H 0.30095 0.85912 0.48128 0.0
H144 H 0.13366 0.73841 0.11339 0.0
H145 H 0.22122 0.73265 0.34871 0.0
H146 H 0.25502 0.8756 0.21305 0.0
C147 C 0.30277 0.91417 0.30958 0.0
C148 C 0.31806 0.90986 0.38459 0.0
C149 C 0.20201 0.73416 0.29727 0.0
C150 C 0.24201 0.82623 0.31042 0.0
C151 C 0.17094 0.69014 0.25832 0.0
C152 C 0.14508 0.69038 0.19171 0.0
C153 C 0.20816 0.77932 0.26936 0.0
C154 C 0.15289 0.73649 0.16444 0.0
C155 C 0.26453 0.8724 0.27239 0.0
C156 C 0.29113 0.86408 0.42305 0.0
N157 N 0.18401 0.77936 0.20333 0.0
N158 N 0.25506 0.8239 0.38503 0.0
H159 H 0.49782 0.33825 0.82561 0.0
H160 H 0.41881 0.15377 0.46135 0.0
H161 H 0.39762 0.33469 0.64884 0.0
H162 H 0.54785 0.19703 0.60539 0.0
H163 H 0.40156 0.21117 0.53584 0.0
H164 H 0.50401 0.27325 0.75602 0.0
C165 C 0.47641 0.32324 0.7729 0.0
C166 C 0.44779 0.34258 0.74247 0.0
C167 C 0.43367 0.20798 0.55058 0.0
C168 C 0.45545 0.26866 0.66166 0.0
C169 C 0.44376 0.17563 0.50778 0.0
C170 C 0.4847 0.17037 0.52727 0.0
C171 C 0.46451 0.2346 0.61338 0.0
C172 C 0.51563 0.19941 0.58838 0.0
C173 C 0.48033 0.2864 0.73274 0.0
C174 C 0.42058 0.32126 0.67404 0.0
N175 N 0.50468 0.22989 0.62939 0.0
N176 N 0.42551 0.28575 0.63534 0.0
H177 H 0.91891 0.46476 0.81621 0.0
H178 H 0.07607 0.54522 0.42907 0.0
H179 H 0.07312 0.58058 0.81469 0.0
H180 H 0.92111 0.50285 0.4308 0.0
H181 H 0.07588 0.54563 0.57133 0.0
H182 H 0.9191 0.4654 0.67399 0.0
C183 C 0.9528 0.49017 0.78588 0.0
C184 C -0.00393 0.52274 0.8269 0.0
C185 C 0.04204 0.53637 0.54031 0.0
C186 C -0.00341 0.52311 0.66536 0.0
C187 C 0.04202 0.53586 0.45948 0.0
C188 C -0.00146 0.52405 0.41855 0.0
C189 C -0.002 0.52385 0.58006 0.0
C190 C 0.95545 0.51246 0.46045 0.0
C191 C 0.95277 0.49067 0.70505 0.0
C192 C 0.03894 0.55512 0.78503 0.0
N193 N 0.95612 0.5122 0.53919 0.0
N194 N 0.03828 0.5542 0.70629 0.0
H195 H 0.44424 0.04547 0.14453 0.0
H196 H 0.57668 0.03776 0.75667 0.0
H197 H 0.55315 -0.00184 0.14242 0.0
H198 H 0.42478 0.0058 0.75889 0.0
H199 H 0.57638 0.03734 0.89886 0.0
H200 H 0.44424 0.04514 0.00238 0.0
C201 C 0.46824 0.03518 0.11409 0.0
C202 C 0.4987 0.02174 0.15499 0.0
C203 C 0.54317 0.03034 0.86798 0.0
C204 C 0.49922 0.02186 -0.00667 0.0
C205 C 0.54336 0.03082 0.78713 0.0
C206 C 0.50064 0.02172 0.74626 0.0
C207 C 0.50035 0.02179 0.90791 0.0
C208 C 0.45837 0.01269 0.78836 0.0
C209 C 0.46801 0.03476 0.03325 0.0
C210 C 0.52891 0.00845 0.11291 0.0
N211 N 0.45939 0.01335 0.86711 0.0
N212 N 0.52873 0.00923 0.03414 0.0
H213 H 0.41956 0.45588 0.50134 0.0
H214 H 0.54864 0.6006 0.1142 0.0
H215 H 0.56936 0.581 0.49958 0.0
H216 H 0.44395 0.44238 0.11535 0.0
H217 H 0.5485 0.60013 0.25638 0.0
H218 H 0.41965 0.45631 0.35915 0.0
C219 C 0.45237 0.4835 0.47097 0.0
C220 C 0.49457 0.5184 0.51196 0.0
C221 C 0.52567 0.56559 0.22527 0.0
C222 C 0.49461 0.51941 0.35032 0.0
C223 C 0.52552 0.56584 0.14441 0.0
C224 C 0.49634 0.52142 0.10324 0.0
C225 C 0.49565 0.52083 0.2649 0.0
C226 C 0.46722 0.47735 0.14505 0.0
C227 C 0.45245 0.48355 0.39011 0.0
C228 C 0.53621 0.55325 0.46999 0.0
N229 N 0.4673 0.47821 0.22381 0.0
N230 N 0.53506 0.55315 0.39124 0.0
loop_
_geom_bond_atom_site_label_1
_geom_bond_atom_site_label_2
_geom_bond_distance
_geom_bond_site_symmetry_2
_ccdc_geom_bond_type
O0 Zn1 1.953 1_556 S
O0 C16 1.225 . S
Zn1 O0 1.953 1_554 S
Zn1 O2 1.949 . S
Zn1 O8 1.919 . S
Zn1 O13 1.924 1_455 S
O2 Zn1 1.949 . S
O2 Zn3 1.923 . S
O2 Zn4 1.950 1_455 S
O2 Zn5 1.945 1_455 S
Zn3 O2 1.923 . S
Zn3 O6 1.933 . S
Zn3 O9 1.941 . S
Zn3 O10 1.965 . S
Zn4 O2 1.950 1_655 S
Zn4 O11 1.938 1_655 S
Zn4 O12 1.906 . S
Zn4 O22 1.953 1_554 S
Zn5 O2 1.945 1_655 S
Zn5 O7 1.932 . S
Zn5 O14 1.977 . S
Zn5 O15 1.910 . S
O6 Zn3 1.933 . S
O6 C17 1.226 . S
O7 Zn5 1.932 . S
O7 C17 1.307 1_655 S
O8 Zn1 1.919 . S
O8 C19 1.253 . S
O9 Zn3 1.941 . S
O9 C19 1.283 . S
O10 Zn3 1.965 . S
O10 C18 1.303 . S
O11 Zn4 1.938 1_455 S
O11 C18 1.247 . S
O12 Zn4 1.906 . S
O12 C20 1.304 . S
O13 Zn1 1.924 1_655 S
O13 C21 1.311 . S
O14 Zn5 1.977 . S
O14 C20 1.272 . S
O15 Zn5 1.910 . S
O15 C21 1.231 . S
C16 O0 1.225 . S
C16 O22 1.298 1_455 S
C17 O6 1.226 . S
C17 O7 1.307 1_455 S
C18 O10 1.303 . S
C18 O11 1.247 . S
C19 O8 1.253 . S
C19 O9 1.283 . S
C20 O12 1.304 . S
C20 O14 1.272 . S
C21 O13 1.311 . S
C21 O15 1.231 . S
O22 Zn4 1.953 1_556 S
O22 C16 1.298 1_655 S
O23 Zn24 1.953 . S
O23 C39 1.225 . S
Zn24 O23 1.953 . S
Zn24 O25 1.949 . S
Zn24 O31 1.919 . S
Zn24 O36 1.924 1_545 S
O25 Zn24 1.949 . S
O25 Zn26 1.923 . S
O25 Zn27 1.950 . S
O25 Zn28 1.945 1_545 S
Zn26 O25 1.923 . S
Zn26 O29 1.933 . S
Zn26 O32 1.941 . S
Zn26 O33 1.965 . S
Zn27 O25 1.950 . S
Zn27 O34 1.938 . S
Zn27 O35 1.906 1_545 S
Zn27 O45 1.953 . S
Zn28 O25 1.945 1_565 S
Zn28 O30 1.932 . S
Zn28 O37 1.977 . S
Zn28 O38 1.910 . S
O29 Zn26 1.933 . S
O29 C40 1.226 . S
O30 Zn28 1.932 . S
O30 C40 1.307 1_565 S
O31 Zn24 1.919 . S
O31 C42 1.253 . S
O32 Zn26 1.941 . S
O32 C42 1.283 . S
O33 Zn26 1.965 . S
O33 C41 1.303 . S
O34 Zn27 1.938 . S
O34 C41 1.247 . S
O35 Zn27 1.906 1_565 S
O35 C43 1.304 . S
O36 Zn24 1.924 1_565 S
O36 C44 1.311 . S
O37 Zn28 1.977 . S
O37 C43 1.272 . S
O38 Zn28 1.910 . S
O38 C44 1.231 . S
C39 O23 1.225 . S
C39 O45 1.298 . S
C40 O29 1.226 . S
C40 O30 1.307 1_545 S
C41 O33 1.303 . S
C41 O34 1.247 . S
C42 O31 1.253 . S
C42 O32 1.283 . S
C43 O35 1.304 . S
C43 O37 1.272 . S
C44 O36 1.311 . S
C44 O38 1.231 . S
O45 Zn27 1.953 . S
O45 C39 1.298 . S
O46 Zn47 1.953 . S
O46 C62 1.225 . S
Zn47 O46 1.953 . S
Zn47 O48 1.949 . S
Zn47 O54 1.919 . S
Zn47 O59 1.924 . S
O48 Zn47 1.949 . S
O48 Zn49 1.923 . S
O48 Zn50 1.950 . S
O48 Zn51 1.945 . S
Zn49 O48 1.923 . S
Zn49 O52 1.933 1_556 S
Zn49 O55 1.941 . S
Zn49 O56 1.965 . S
Zn50 O48 1.950 . S
Zn50 O57 1.938 . S
Zn50 O58 1.906 . S
Zn50 O68 1.953 . S
Zn51 O48 1.945 . S
Zn51 O53 1.932 1_556 S
Zn51 O60 1.977 . S
Zn51 O61 1.910 . S
O52 Zn49 1.933 1_554 S
O52 C63 1.226 . S
O53 Zn51 1.932 1_554 S
O53 C63 1.307 . S
O54 Zn47 1.919 . S
O54 C65 1.253 . S
O55 Zn49 1.941 . S
O55 C65 1.283 . S
O56 Zn49 1.965 . S
O56 C64 1.303 . S
O57 Zn50 1.938 . S
O57 C64 1.247 . S
O58 Zn50 1.906 . S
O58 C66 1.304 . S
O59 Zn47 1.924 . S
O59 C67 1.311 . S
O60 Zn51 1.977 . S
O60 C66 1.272 . S
O61 Zn51 1.910 . S
O61 C67 1.231 . S
C62 O46 1.225 . S
C62 O68 1.298 . S
C63 O52 1.226 . S
C63 O53 1.307 . S
C64 O56 1.303 . S
C64 O57 1.247 . S
C65 O54 1.253 . S
C65 O55 1.283 . S
C66 O58 1.304 . S
C66 O60 1.272 . S
C67 O59 1.311 . S
C67 O61 1.231 . S
O68 Zn50 1.953 . S
O68 C62 1.298 . S
H69 C75 0.930 . S
H70 C79 0.930 . S
H71 C84 0.929 . S
H72 C82 0.929 . S
H73 C77 0.929 . S
H74 C83 0.929 . S
C75 H69 0.930 . S
C75 C76 1.367 . S
C75 C83 1.378 . S
C76 C75 1.367 . S
C76 C84 1.433 . S
C77 H73 0.929 . S
C77 C79 1.378 . S
C77 C81 1.350 . S
C78 C81 1.463 1_554 S
C78 C83 1.350 . S
C78 N86 1.427 1_554 S
C79 H70 0.930 . S
C79 C77 1.378 . S
C79 C80 1.367 . S
C80 C79 1.367 . S
C80 C82 1.433 . S
C81 C77 1.350 . S
C81 C78 1.463 1_556 S
C81 N85 1.427 1_556 S
C82 H72 0.929 . S
C82 C80 1.433 . S
C82 N85 1.384 1_556 S
C83 H74 0.929 . S
C83 C75 1.378 . S
C83 C78 1.350 . S
C84 H71 0.929 . S
C84 C76 1.433 . S
C84 N86 1.384 1_554 S
N85 C81 1.427 1_554 S
N85 C82 1.384 1_554 S
N86 C78 1.427 1_556 S
N86 C84 1.384 1_556 S
H87 C93 0.930 . S
H88 C97 0.930 . S
H89 C102 0.929 . S
H90 C100 0.929 . S
H91 C95 0.929 . S
H92 C101 0.929 . S
C93 H87 0.930 . S
C93 C94 1.367 . S
C93 C101 1.378 . S
C94 C93 1.367 . S
C94 C102 1.433 . S
C95 H91 0.929 . S
C95 C97 1.378 . S
C95 C99 1.350 . S
C96 C99 1.463 . S
C96 C101 1.350 . S
C96 N104 1.427 . S
C97 H88 0.930 . S
C97 C95 1.378 . S
C97 C98 1.367 . S
C98 C97 1.367 . S
C98 C100 1.433 . S
C99 C95 1.350 . S
C99 C96 1.463 . S
C99 N103 1.427 . S
C100 H90 0.929 . S
C100 C98 1.433 . S
C100 N103 1.384 . S
C101 H92 0.929 . S
C101 C93 1.378 . S
C101 C96 1.350 . S
C102 H89 0.929 . S
C102 C94 1.433 . S
C102 N104 1.384 . S
N103 C99 1.427 . S
N103 C100 1.384 . S
N104 C96 1.427 . S
N104 C102 1.384 . S
H105 C111 0.930 . S
H106 C115 0.930 . S
H107 C120 0.929 . S
H108 C118 0.929 . S
H109 C113 0.929 . S
H110 C119 0.929 . S
C111 H105 0.930 . S
C111 C112 1.367 . S
C111 C119 1.378 . S
C112 C111 1.367 . S
C112 C120 1.433 . S
C113 H109 0.929 . S
C113 C115 1.378 . S
C113 C117 1.350 . S
C114 C117 1.463 . S
C114 C119 1.350 . S
C114 N122 1.427 . S
C115 H106 0.930 . S
C115 C113 1.378 . S
C115 C116 1.367 . S
C116 C115 1.367 . S
C116 C118 1.433 . S
C117 C113 1.350 . S
C117 C114 1.463 . S
C117 N121 1.427 . S
C118 H108 0.929 . S
C118 C116 1.433 . S
C118 N121 1.384 . S
C119 H110 0.929 . S
C119 C111 1.378 . S
C119 C114 1.350 . S
C120 H107 0.929 . S
C120 C112 1.433 . S
C120 N122 1.384 . S
N121 C117 1.427 . S
N121 C118 1.384 . S
N122 C114 1.427 . S
N122 C120 1.384 . S
H123 C129 0.930 . S
H124 C133 0.930 . S
H125 C138 0.929 1_554 S
H126 C136 0.929 1_556 S
H127 C131 0.929 . S
H128 C137 0.929 . S
C129 H123 0.930 . S
C129 C130 1.367 . S
C129 C137 1.378 . S
C130 C129 1.367 . S
C130 C138 1.433 . S
C131 H127 0.929 . S
C131 C133 1.378 . S
C131 C135 1.350 . S
C132 C135 1.463 1_556 S
C132 C137 1.350 . S
C132 N140 1.427 1_556 S
C133 H124 0.930 . S
C133 C131 1.378 . S
C133 C134 1.367 . S
C134 C133 1.367 . S
C134 C136 1.433 . S
C135 C131 1.350 . S
C135 C132 1.463 1_554 S
C135 N139 1.427 1_554 S
C136 H126 0.929 1_554 S
C136 C134 1.433 . S
C136 N139 1.384 1_554 S
C137 H128 0.929 . S
C137 C129 1.378 . S
C137 C132 1.350 . S
C138 H125 0.929 1_556 S
C138 C130 1.433 . S
C138 N140 1.384 1_556 S
N139 C135 1.427 1_556 S
N139 C136 1.384 1_556 S
N140 C132 1.427 1_554 S
N140 C138 1.384 1_554 S
H141 C147 0.930 . S
H142 C151 0.930 . S
H143 C156 0.929 . S
H144 C154 0.929 . S
H145 C149 0.929 . S
H146 C155 0.929 . S
C147 H141 0.930 . S
C147 C148 1.367 . S
C147 C155 1.378 . S
C148 C147 1.367 . S
C148 C156 1.433 . S
C149 H145 0.929 . S
C149 C151 1.378 . S
C149 C153 1.350 . S
C150 C153 1.463 . S
C150 C155 1.350 . S
C150 N158 1.427 . S
C151 H142 0.930 . S
C151 C149 1.378 . S
C151 C152 1.367 . S
C152 C151 1.367 . S
C152 C154 1.433 . S
C153 C149 1.350 . S
C153 C150 1.463 . S
C153 N157 1.427 . S
C154 H144 0.929 . S
C154 C152 1.433 . S
C154 N157 1.384 . S
C155 H146 0.929 . S
C155 C147 1.378 . S
C155 C150 1.350 . S
C156 H143 0.929 . S
C156 C148 1.433 . S
C156 N158 1.384 . S
N157 C153 1.427 . S
N157 C154 1.384 . S
N158 C150 1.427 . S
N158 C156 1.384 . S
H159 C165 0.930 . S
H160 C169 0.930 . S
H161 C174 0.929 . S
H162 C172 0.929 . S
H163 C167 0.929 . S
H164 C173 0.929 . S
C165 H159 0.930 . S
C165 C166 1.367 . S
C165 C173 1.378 . S
C166 C165 1.367 . S
C166 C174 1.433 . S
C167 H163 0.929 . S
C167 C169 1.378 . S
C167 C171 1.350 . S
C168 C171 1.463 . S
C168 C173 1.350 . S
C168 N176 1.427 . S
C169 H160 0.930 . S
C169 C167 1.378 . S
C169 C170 1.367 . S
C170 C169 1.367 . S
C170 C172 1.433 . S
C171 C167 1.350 . S
C171 C168 1.463 . S
C171 N175 1.427 . S
C172 H162 0.929 . S
C172 C170 1.433 . S
C172 N175 1.384 . S
C173 H164 0.929 . S
C173 C165 1.378 . S
C173 C168 1.350 . S
C174 H161 0.929 . S
C174 C166 1.433 . S
C174 N176 1.384 . S
N175 C171 1.427 . S
N175 C172 1.384 . S
N176 C168 1.427 . S
N176 C174 1.384 . S
H177 C183 0.930 . S
H178 C187 0.930 . S
H179 C192 0.929 . S
H180 C190 0.929 . S
H181 C185 0.929 . S
H182 C191 0.929 . S
C183 H177 0.930 . S
C183 C184 1.367 1_655 S
C183 C191 1.378 . S
C184 C183 1.367 1_455 S
C184 C192 1.433 . S
C185 H181 0.929 . S
C185 C187 1.378 . S
C185 C189 1.350 . S
C186 C189 1.463 . S
C186 C191 1.350 1_455 S
C186 N194 1.427 . S
C187 H178 0.930 . S
C187 C185 1.378 . S
C187 C188 1.367 . S
C188 C187 1.367 . S
C188 C190 1.433 1_455 S
C189 C185 1.350 . S
C189 C186 1.463 . S
C189 N193 1.427 1_455 S
C190 H180 0.929 . S
C190 C188 1.433 1_655 S
C190 N193 1.384 . S
C191 H182 0.929 . S
C191 C183 1.378 . S
C191 C186 1.350 1_655 S
C192 H179 0.929 . S
C192 C184 1.433 . S
C192 N194 1.384 . S
N193 C189 1.427 1_655 S
N193 C190 1.384 . S
N194 C186 1.427 . S
N194 C192 1.384 . S
H195 C201 0.930 . S
H196 C205 0.930 . S
H197 C210 0.929 . S
H198 C208 0.929 . S
H199 C203 0.929 . S
H200 C209 0.929 . S
C201 H195 0.930 . S
C201 C202 1.367 . S
C201 C209 1.378 . S
C202 C201 1.367 . S
C202 C210 1.433 . S
C203 H199 0.929 . S
C203 C205 1.378 . S
C203 C207 1.350 . S
C204 C207 1.463 1_554 S
C204 C209 1.350 . S
C204 N212 1.427 . S
C205 H196 0.930 . S
C205 C203 1.378 . S
C205 C206 1.367 . S
C206 C205 1.367 . S
C206 C208 1.433 . S
C207 C203 1.350 . S
C207 C204 1.463 1_556 S
C207 N211 1.427 . S
C208 H198 0.929 . S
C208 C206 1.433 . S
C208 N211 1.384 . S
C209 H200 0.929 . S
C209 C201 1.378 . S
C209 C204 1.350 . S
C210 H197 0.929 . S
C210 C202 1.433 . S
C210 N212 1.384 . S
N211 C207 1.427 . S
N211 C208 1.384 . S
N212 C204 1.427 . S
N212 C210 1.384 . S
H213 C219 0.930 . S
H214 C223 0.930 . S
H215 C228 0.929 . S
H216 C226 0.929 . S
H217 C221 0.929 . S
H218 C227 0.929 . S
C219 H213 0.930 . S
C219 C220 1.367 . S
C219 C227 1.378 . S
C220 C219 1.367 . S
C220 C228 1.433 . S
C221 H217 0.929 . S
C221 C223 1.378 . S
C221 C225 1.350 . S
C222 C225 1.463 . S
C222 C227 1.350 . S
C222 N230 1.427 . S
C223 H214 0.930 . S
C223 C221 1.378 . S
C223 C224 1.367 . S
C224 C223 1.367 . S
C224 C226 1.433 . S
C225 C221 1.350 . S
C225 C222 1.463 . S
C225 N229 1.427 . S
C226 H216 0.929 . S
C226 C224 1.433 . S
C226 N229 1.384 . S
C227 H218 0.929 . S
C227 C219 1.378 . S
C227 C222 1.350 . S
C228 H215 0.929 . S
C228 C220 1.433 . S
C228 N230 1.384 . S
N229 C225 1.427 . S
N229 C226 1.384 . S
N230 C222 1.427 . S
N230 C228 1.384 . S
C76 C18 1.416 . S
C80 C65 1.391 . S
C94 C41 1.397 . S
C98 C20 1.366 . S
C112 C43 1.345 . S
C116 C64 1.372 . S
C130 C66 1.309 . S
C134 C21 1.341 . S
C148 C44 1.357 . S
C152 C19 1.330 . S
C166 C67 1.384 . S
C170 C42 1.370 . S
C184 C16 0.964 . S
C188 C17 0.963 . S
C202 C39 0.962 . S
C206 C40 0.960 . S
C220 C62 0.961 . S
C224 C63 0.961 . S
