# Generated by pormake.
# Topology npo, (4)-cn, num edge types: 1
# Building blocks:
#     Node 0, Type 0, BuildingBlock: CEKHIL_clean_sbu_0, # of connection points: 4
#     Node 1, Type 0, BuildingBlock: CEKHIL_clean_sbu_0, # of connection points: 4
#     Node 2, Type 0, BuildingBlock: CEKHIL_clean_sbu_0, # of connection points: 4
#     Node 3, Type 0, BuildingBlock: CEKHIL_clean_sbu_0, # of connection points: 4
#     Node 4, Type 0, BuildingBlock: CEKHIL_clean_sbu_0, # of connection points: 4
#     Node 5, Type 0, BuildingBlock: CEKHIL_clean_sbu_0, # of connection points: 4
#     Edge 6, Type (0, 0), BuildingBlock: OJICUG_clean_linker_0, # of connection points: 2
#     Edge 7, Type (0, 0), BuildingBlock: OJICUG_clean_linker_0, # of connection points: 2
#     Edge 8, Type (0, 0), BuildingBlock: OJICUG_clean_linker_0, # of connection points: 2
#     Edge 9, Type (0, 0), BuildingBlock: OJICUG_clean_linker_0, # of connection points: 2
#     Edge 10, Type (0, 0), BuildingBlock: OJICUG_clean_linker_0, # of connection points: 2
#     Edge 11, Type (0, 0), BuildingBlock: OJICUG_clean_linker_0, # of connection points: 2
#     Edge 12, Type (0, 0), BuildingBlock: OJICUG_clean_linker_0, # of connection points: 2
#     Edge 13, Type (0, 0), BuildingBlock: OJICUG_clean_linker_0, # of connection points: 2
#     Edge 14, Type (0, 0), BuildingBlock: OJICUG_clean_linker_0, # of connection points: 2
#     Edge 15, Type (0, 0), BuildingBlock: OJICUG_clean_linker_0, # of connection points: 2
#     Edge 16, Type (0, 0), BuildingBlock: OJICUG_clean_linker_0, # of connection points: 2
#     Edge 17, Type (0, 0), BuildingBlock: OJICUG_clean_linker_0, # of connection points: 2
# Relax obj value: 0.295
# Max RMSD: 0.247
# Mean RMSD: 0.244
data_MOF--net-npo--node1-CEKHIL_clean_sbu_0--edge1-OJICUG_clean_linker_0
_symmetry_space_group_name_H-M    P1
_symmetry_Int_Tables_number       1
_symmetry_cell_setting            triclinic
loop_
_symmetry_equiv_pos_as_xyz
'x, y, z'
_cell_length_a     34.397089
_cell_length_b     34.085354
_cell_length_c     15.340835
_cell_angle_alpha  90.300255
_cell_angle_beta   89.885252
_cell_angle_gamma 120.06787
loop_
_atom_site_label
_atom_site_type_symbol
_atom_site_fract_x
_atom_site_fract_y
_atom_site_fract_z
_atom_type_partial_charge
Co0 Co 0.50073 0.08497 0.32965 0.0
O1 O 0.44579 0.03772 0.38083 0.0
O2 O 0.51425 0.05159 0.4135 0.0
C3 C 0.48428 0.14097 0.33934 0.0
O4 O 0.56526 0.13157 0.29764 0.0
Co5 Co 0.5027 0.13305 0.1566 0.0
O6 O 0.5666 0.17442 0.18531 0.0
C7 C 0.48689 0.03984 0.15144 0.0
C8 C 0.47124 0.02756 0.42677 0.0
C9 C 0.5862 0.16528 0.24549 0.0
O10 O 0.49609 0.04205 0.23335 0.0
O11 O 0.48481 0.07134 0.11052 0.0
O12 O 0.49928 0.12988 0.40713 0.0
O13 O 0.47583 0.11536 0.27152 0.0
Co14 Co 0.40366 0.53492 0.82369 0.0
O15 O 0.46163 0.54429 0.78608 0.0
O16 O 0.39565 0.4935 0.73102 0.0
C17 C 0.4202 0.60773 0.82697 0.0
O18 O 0.33756 0.51615 0.8365 0.0
Co19 Co 0.38668 0.56994 0.99859 0.0
O20 O 0.32839 0.55485 0.94588 0.0
C21 C 0.4018 0.49238 0.99983 0.0
C22 C 0.43905 0.51236 0.72917 0.0
C23 C 0.31377 0.52924 0.87906 0.0
O24 O 0.40059 0.49072 0.9157 0.0
O25 O 0.39921 0.52276 1.04446 0.0
O26 O 0.41152 0.58584 0.75334 0.0
O27 O 0.42366 0.58676 0.89393 0.0
Co28 Co 0.82593 0.3774 0.29355 0.0
O29 O 0.87473 0.36831 0.33112 0.0
O30 O 0.85864 0.41869 0.38661 0.0
C31 C 0.77047 0.30443 0.28954 0.0
O32 O 0.77828 0.39587 0.28082 0.0
Co33 Co 0.77468 0.3425 0.1184 0.0
O34 O 0.73117 0.35752 0.17083 0.0
C35 C 0.86654 0.4206 0.11775 0.0
C36 C 0.88354 0.40009 0.38828 0.0
C37 C 0.74171 0.38297 0.23786 0.0
O38 O 0.86686 0.42197 0.20191 0.0
O39 O 0.83399 0.39021 0.07292 0.0
O40 O 0.78316 0.32614 0.36338 0.0
O41 O 0.79493 0.32569 0.22284 0.0
Co42 Co 0.37002 0.82791 0.7821 0.0
O43 O 0.36317 0.87564 0.72997 0.0
O44 O 0.41703 0.86033 0.69812 0.0
C45 C 0.2976 0.77267 0.77284 0.0
O46 O 0.38713 0.78066 0.81513 0.0
Co47 Co 0.32351 0.78092 0.95563 0.0
O48 O 0.34548 0.73868 0.92805 0.0
C49 C 0.40172 0.87327 0.95998 0.0
C50 C 0.39864 0.885 0.68427 0.0
C51 C 0.37414 0.74716 0.8679 0.0
O52 O 0.4084 0.87079 0.87794 0.0
O53 O 0.36809 0.84228 1.00133 0.0
O54 O 0.32367 0.78318 0.70505 0.0
O55 O 0.31478 0.79849 0.84031 0.0
Co56 Co 0.50011 0.38165 0.32314 0.0
O57 O 0.44287 0.37404 0.2857 0.0
O58 O 0.50938 0.42377 0.23177 0.0
C59 C 0.48084 0.30817 0.32317 0.0
O60 O 0.56566 0.39847 0.33617 0.0
Co61 Co 0.51515 0.34457 0.49639 0.0
O62 O 0.57311 0.3583 0.44386 0.0
C63 C 0.50273 0.42395 0.50064 0.0
C64 C 0.46606 0.40576 0.22937 0.0
C65 C 0.58855 0.38427 0.37813 0.0
O66 O 0.50436 0.42602 0.41663 0.0
O67 O 0.50411 0.39278 0.54413 0.0
O68 O 0.49079 0.33073 0.25067 0.0
O69 O 0.47838 0.3292 0.39158 0.0
Co70 Co 0.07451 0.53191 0.79293 0.0
O71 O 0.02486 0.53963 0.83082 0.0
O72 O 0.04212 0.49009 0.88488 0.0
C73 C 0.12821 0.60542 0.79178 0.0
O74 O 0.12324 0.51494 0.77979 0.0
Co75 Co 0.12632 0.5683 0.61922 0.0
O76 O 0.17066 0.55468 0.67167 0.0
C77 C 0.03496 0.48904 0.61603 0.0
C78 C 0.01668 0.50809 0.88745 0.0
C79 C 0.16023 0.52889 0.73769 0.0
O80 O 0.03455 0.48724 0.70008 0.0
O81 O 0.06735 0.52002 0.57215 0.0
O82 O 0.11588 0.58311 0.86458 0.0
O83 O 0.10481 0.58413 0.72373 0.0
C84 C 0.47621 0.19919 0.25614 0.0
C85 C 0.48136 0.18268 0.33645 0.0
H86 H 0.47231 0.252 0.18913 0.0
C87 C 0.48448 0.2068 0.41307 0.0
H88 H 0.47357 0.1813 0.19593 0.0
C89 C 0.48292 0.24698 0.40925 0.0
C90 C 0.47907 0.26411 0.32857 0.0
H91 H 0.48824 0.19471 0.47589 0.0
H92 H 0.48575 0.26509 0.46925 0.0
C93 C 0.47547 0.23969 0.25218 0.0
C94 C 0.23629 0.51699 0.89838 0.0
C95 C 0.26984 0.51891 0.84324 0.0
H96 H 0.1743 0.51722 0.90761 0.0
C97 C 0.26369 0.51757 0.75252 0.0
H98 H 0.24024 0.51796 0.96854 0.0
C99 C 0.2265 0.5182 0.71763 0.0
C100 C 0.19426 0.51895 0.77286 0.0
H101 H 0.28919 0.51937 0.70848 0.0
H102 H 0.22396 0.52007 0.64756 0.0
C103 C 0.19851 0.5164 0.86345 0.0
C104 C 0.65368 0.20802 0.34099 0.0
C105 C 0.63486 0.19601 0.25716 0.0
H106 H 0.71166 0.25239 0.41722 0.0
C107 C 0.66223 0.21652 0.18433 0.0
H108 H 0.63315 0.19275 0.3982 0.0
C109 C 0.70721 0.24971 0.19503 0.0
C110 C 0.72539 0.26406 0.27886 0.0
H111 H 0.64857 0.20752 0.11898 0.0
H112 H 0.72708 0.26546 0.13742 0.0
C113 C 0.69851 0.24217 0.3518 0.0
C114 C 0.39926 0.70393 0.7737 0.0
C115 C 0.39186 0.71602 0.85717 0.0
H116 H 0.4137 0.65955 0.69847 0.0
C117 C 0.39831 0.69549 0.93048 0.0
H118 H 0.39435 0.71922 0.71613 0.0
C119 C 0.41041 0.6623 0.92057 0.0
C120 C 0.41495 0.64797 0.83704 0.0
H121 H 0.39321 0.70457 0.99558 0.0
H122 H 0.41428 0.64659 0.97849 0.0
C123 C 0.41024 0.66978 0.76366 0.0
C124 C 0.63939 0.39628 0.25253 0.0
C125 C 0.63249 0.39407 0.3431 0.0
H126 H 0.67963 0.39417 0.14775 0.0
C127 C 0.6653 0.39484 0.39856 0.0
H128 H 0.61448 0.39542 0.20823 0.0
C129 C 0.70307 0.39515 0.36395 0.0
C130 C 0.70801 0.39346 0.27329 0.0
H131 H 0.66079 0.39321 0.46863 0.0
H132 H 0.72665 0.39339 0.40821 0.0
C133 C 0.67655 0.39538 0.21788 0.0
C134 C 0.23158 0.71498 0.85695 0.0
C135 C 0.25316 0.73107 0.7764 0.0
H136 H 0.17529 0.66241 0.92484 0.0
C137 C 0.23236 0.70653 0.70021 0.0
H138 H 0.24667 0.73319 0.91684 0.0
C139 C 0.19095 0.66631 0.70471 0.0
C140 C 0.1701 0.64955 0.78566 0.0
H141 H 0.24815 0.71829 0.63721 0.0
H142 H 0.17585 0.64786 0.64503 0.0
C143 C 0.19068 0.67442 0.8616 0.0
C144 C 0.45483 -0.04309 0.96433 0.0
C145 C 0.43183 0.91538 1.00826 0.0
H146 H 0.49059 0.02922 0.97569 0.0
C147 C 0.43338 0.91517 0.09991 0.0
H148 H 0.45438 -0.04183 0.8938 0.0
C149 C 0.45454 0.95584 0.14687 0.0
C150 C 0.47391 -0.00255 0.10299 0.0
H151 H 0.41641 0.88359 0.13555 0.0
H152 H 0.45299 0.95462 0.21742 0.0
C153 C 0.47539 -0.0024 1.0113 0.0
C154 C 0.45813 0.46217 0.52481 0.0
C155 C 0.49349 0.45549 0.55048 0.0
H156 H 0.41255 0.48475 0.56289 0.0
C157 C 0.5142 0.47236 0.6318 0.0
H158 H 0.44121 0.44889 0.46307 0.0
C159 C 0.49849 0.49382 0.68814 0.0
C160 C 0.46087 0.49723 0.66511 0.0
H161 H 0.54134 0.46726 0.65318 0.0
H162 H 0.51388 0.50505 0.75174 0.0
C163 C 0.44151 0.48224 0.58223 0.0
C164 C -0.01506 0.47686 1.03386 0.0
C165 C -0.0197 0.49282 0.9524 0.0
H166 H -0.04739 0.44311 0.1525 0.0
C167 C 0.9397 0.49095 0.93188 0.0
H168 H 0.01613 0.4783 1.05146 0.0
C169 C 0.90315 0.47003 0.98898 0.0
C170 C 0.90717 0.4521 0.06866 0.0
H171 H 0.93534 0.50306 0.86955 0.0
H172 H 0.87115 0.46609 0.96928 0.0
C173 C -0.05114 0.45724 0.09211 0.0
C174 C 0.40839 -0.02636 0.52348 0.0
C175 C 0.45235 -0.00918 0.49202 0.0
H176 H 0.35714 0.92717 0.61019 0.0
C177 C 0.47848 -0.02695 0.52453 0.0
H178 H 0.38753 -0.01317 0.49989 0.0
C179 C 0.46091 0.93855 0.58669 0.0
C180 C 0.41712 0.92165 0.61881 0.0
H181 H 0.51245 -0.01444 0.50144 0.0
H182 H 0.4818 0.92538 0.61013 0.0
C183 C 0.39108 0.93967 0.5869 0.0
C184 C 0.38986 0.44329 0.12879 0.0
C185 C 0.41161 0.4613 1.04899 0.0
H186 H 0.38949 0.41035 0.24804 0.0
C187 C 0.44847 0.45659 1.0253 0.0
H188 H 0.36157 0.44691 0.14869 0.0
C189 C 0.46533 0.43724 0.08335 0.0
C190 C 0.44483 0.4211 0.16484 0.0
H191 H 0.4662 0.47081 0.96481 0.0
H192 H 0.49523 0.43607 0.06551 0.0
C193 C 0.40589 0.42261 0.18568 0.0
C194 C -0.04759 0.45087 0.59221 0.0
C195 C -0.00561 0.45739 0.56653 0.0
H196 H 0.88445 0.42827 0.5543 0.0
C197 C -0.00165 0.44025 0.48541 0.0
H198 H -0.05134 0.46435 0.65379 0.0
C199 C -0.03864 0.41867 0.42926 0.0
C200 C 0.92036 0.4154 0.45225 0.0
H201 H 0.03055 0.44522 0.46402 0.0
H202 H -0.03438 0.40723 0.36581 0.0
C203 C 0.91588 0.43067 0.53496 0.0
loop_
_geom_bond_atom_site_label_1
_geom_bond_atom_site_label_2
_geom_bond_distance
_geom_bond_site_symmetry_2
_ccdc_geom_bond_type
Co0 O1 2.216 . S
Co0 O2 2.091 . S
Co0 O4 2.004 . S
Co0 O10 2.021 . S
Co0 O12 2.137 . S
Co0 O13 2.244 . S
O1 Co0 2.216 . S
O1 C8 1.247 . S
O2 Co0 2.091 . S
O2 C8 1.261 . S
C3 O12 1.247 . S
C3 O13 1.272 . S
O4 Co0 2.004 . S
O4 C9 1.259 . S
Co5 O6 2.061 . S
Co5 O11 2.052 . S
Co5 O13 2.135 . S
O6 Co5 2.061 . S
O6 C9 1.235 . S
C7 O10 1.238 . S
C7 O11 1.241 . S
C8 O1 1.247 . S
C8 O2 1.261 . S
C9 O4 1.259 . S
C9 O6 1.235 . S
O10 Co0 2.021 . S
O10 C7 1.238 . S
O11 Co5 2.052 . S
O11 C7 1.241 . S
O12 Co0 2.137 . S
O12 C3 1.247 . S
O13 Co0 2.244 . S
O13 C3 1.272 . S
O13 Co5 2.135 . S
Co14 O15 2.216 . S
Co14 O16 2.091 . S
Co14 O18 2.004 . S
Co14 O24 2.021 . S
Co14 O26 2.137 . S
Co14 O27 2.244 . S
O15 Co14 2.216 . S
O15 C22 1.247 . S
O16 Co14 2.091 . S
O16 C22 1.261 . S
C17 O26 1.247 . S
C17 O27 1.272 . S
O18 Co14 2.004 . S
O18 C23 1.259 . S
Co19 O20 2.061 . S
Co19 O25 2.052 . S
Co19 O27 2.135 . S
O20 Co19 2.061 . S
O20 C23 1.235 . S
C21 O24 1.238 . S
C21 O25 1.241 . S
C22 O15 1.247 . S
C22 O16 1.261 . S
C23 O18 1.259 . S
C23 O20 1.235 . S
O24 Co14 2.021 . S
O24 C21 1.238 . S
O25 Co19 2.052 . S
O25 C21 1.241 . S
O26 Co14 2.137 . S
O26 C17 1.247 . S
O27 Co14 2.244 . S
O27 C17 1.272 . S
O27 Co19 2.135 . S
Co28 O29 2.216 . S
Co28 O30 2.091 . S
Co28 O32 2.004 . S
Co28 O38 2.021 . S
Co28 O40 2.137 . S
Co28 O41 2.244 . S
O29 Co28 2.216 . S
O29 C36 1.247 . S
O30 Co28 2.091 . S
O30 C36 1.261 . S
C31 O40 1.247 . S
C31 O41 1.272 . S
O32 Co28 2.004 . S
O32 C37 1.259 . S
Co33 O34 2.061 . S
Co33 O39 2.052 . S
Co33 O41 2.135 . S
O34 Co33 2.061 . S
O34 C37 1.235 . S
C35 O38 1.238 . S
C35 O39 1.241 . S
C36 O29 1.247 . S
C36 O30 1.261 . S
C37 O32 1.259 . S
C37 O34 1.235 . S
O38 Co28 2.021 . S
O38 C35 1.238 . S
O39 Co33 2.052 . S
O39 C35 1.241 . S
O40 Co28 2.137 . S
O40 C31 1.247 . S
O41 Co28 2.244 . S
O41 C31 1.272 . S
O41 Co33 2.135 . S
Co42 O43 2.216 . S
Co42 O44 2.091 . S
Co42 O46 2.004 . S
Co42 O52 2.021 . S
Co42 O54 2.137 . S
Co42 O55 2.244 . S
O43 Co42 2.216 . S
O43 C50 1.247 . S
O44 Co42 2.091 . S
O44 C50 1.261 . S
C45 O54 1.247 . S
C45 O55 1.272 . S
O46 Co42 2.004 . S
O46 C51 1.259 . S
Co47 O48 2.061 . S
Co47 O53 2.052 . S
Co47 O55 2.135 . S
O48 Co47 2.061 . S
O48 C51 1.235 . S
C49 O52 1.238 . S
C49 O53 1.241 . S
C50 O43 1.247 . S
C50 O44 1.261 . S
C51 O46 1.259 . S
C51 O48 1.235 . S
O52 Co42 2.021 . S
O52 C49 1.238 . S
O53 Co47 2.052 . S
O53 C49 1.241 . S
O54 Co42 2.137 . S
O54 C45 1.247 . S
O55 Co42 2.244 . S
O55 C45 1.272 . S
O55 Co47 2.135 . S
Co56 O57 2.216 . S
Co56 O58 2.091 . S
Co56 O60 2.004 . S
Co56 O66 2.021 . S
Co56 O68 2.137 . S
Co56 O69 2.244 . S
O57 Co56 2.216 . S
O57 C64 1.247 . S
O58 Co56 2.091 . S
O58 C64 1.261 . S
C59 O68 1.247 . S
C59 O69 1.272 . S
O60 Co56 2.004 . S
O60 C65 1.259 . S
Co61 O62 2.061 . S
Co61 O67 2.052 . S
Co61 O69 2.135 . S
O62 Co61 2.061 . S
O62 C65 1.235 . S
C63 O66 1.238 . S
C63 O67 1.241 . S
C64 O57 1.247 . S
C64 O58 1.261 . S
C65 O60 1.259 . S
C65 O62 1.235 . S
O66 Co56 2.021 . S
O66 C63 1.238 . S
O67 Co61 2.052 . S
O67 C63 1.241 . S
O68 Co56 2.137 . S
O68 C59 1.247 . S
O69 Co56 2.244 . S
O69 C59 1.272 . S
O69 Co61 2.135 . S
Co70 O71 2.216 . S
Co70 O72 2.091 . S
Co70 O74 2.004 . S
Co70 O80 2.021 . S
Co70 O82 2.137 . S
Co70 O83 2.244 . S
O71 Co70 2.216 . S
O71 C78 1.247 . S
O72 Co70 2.091 . S
O72 C78 1.261 . S
C73 O82 1.247 . S
C73 O83 1.272 . S
O74 Co70 2.004 . S
O74 C79 1.259 . S
Co75 O76 2.061 . S
Co75 O81 2.052 . S
Co75 O83 2.135 . S
O76 Co75 2.061 . S
O76 C79 1.235 . S
C77 O80 1.238 . S
C77 O81 1.241 . S
C78 O71 1.247 . S
C78 O72 1.261 . S
C79 O74 1.259 . S
C79 O76 1.235 . S
O80 Co70 2.021 . S
O80 C77 1.238 . S
O81 Co75 2.052 . S
O81 C77 1.241 . S
O82 Co70 2.137 . S
O82 C73 1.247 . S
O83 Co70 2.244 . S
O83 C73 1.272 . S
O83 Co75 2.135 . S
C84 C85 1.387 . S
C84 H88 0.950 . S
C84 C93 1.390 . S
C85 C84 1.387 . S
C85 C87 1.387 . S
H86 C93 0.950 . S
C87 C85 1.387 . S
C87 C89 1.390 . S
C87 H91 0.950 . S
H88 C84 0.950 . S
C89 C87 1.390 . S
C89 C90 1.387 . S
C89 H92 0.950 . S
C90 C89 1.387 . S
C90 C93 1.387 . S
H91 C87 0.950 . S
H92 C89 0.950 . S
C93 C84 1.390 . S
C93 H86 0.950 . S
C93 C90 1.387 . S
C94 C95 1.387 . S
C94 H98 0.950 . S
C94 C103 1.390 . S
C95 C94 1.387 . S
C95 C97 1.387 . S
H96 C103 0.950 . S
C97 C95 1.387 . S
C97 C99 1.390 . S
C97 H101 0.950 . S
H98 C94 0.950 . S
C99 C97 1.390 . S
C99 C100 1.387 . S
C99 H102 0.950 . S
C100 C99 1.387 . S
C100 C103 1.387 . S
H101 C97 0.950 . S
H102 C99 0.950 . S
C103 C94 1.390 . S
C103 H96 0.950 . S
C103 C100 1.387 . S
C104 C105 1.387 . S
C104 H108 0.950 . S
C104 C113 1.390 . S
C105 C104 1.387 . S
C105 C107 1.387 . S
H106 C113 0.950 . S
C107 C105 1.387 . S
C107 C109 1.390 . S
C107 H111 0.950 . S
H108 C104 0.950 . S
C109 C107 1.390 . S
C109 C110 1.387 . S
C109 H112 0.950 . S
C110 C109 1.387 . S
C110 C113 1.387 . S
H111 C107 0.950 . S
H112 C109 0.950 . S
C113 C104 1.390 . S
C113 H106 0.950 . S
C113 C110 1.387 . S
C114 C115 1.387 . S
C114 H118 0.950 . S
C114 C123 1.390 . S
C115 C114 1.387 . S
C115 C117 1.387 . S
H116 C123 0.950 . S
C117 C115 1.387 . S
C117 C119 1.390 . S
C117 H121 0.950 . S
H118 C114 0.950 . S
C119 C117 1.390 . S
C119 C120 1.387 . S
C119 H122 0.950 . S
C120 C119 1.387 . S
C120 C123 1.387 . S
H121 C117 0.950 . S
H122 C119 0.950 . S
C123 C114 1.390 . S
C123 H116 0.950 . S
C123 C120 1.387 . S
C124 C125 1.387 . S
C124 H128 0.950 . S
C124 C133 1.390 . S
C125 C124 1.387 . S
C125 C127 1.387 . S
H126 C133 0.950 . S
C127 C125 1.387 . S
C127 C129 1.390 . S
C127 H131 0.950 . S
H128 C124 0.950 . S
C129 C127 1.390 . S
C129 C130 1.387 . S
C129 H132 0.950 . S
C130 C129 1.387 . S
C130 C133 1.387 . S
H131 C127 0.950 . S
H132 C129 0.950 . S
C133 C124 1.390 . S
C133 H126 0.950 . S
C133 C130 1.387 . S
C134 C135 1.387 . S
C134 H138 0.950 . S
C134 C143 1.390 . S
C135 C134 1.387 . S
C135 C137 1.387 . S
H136 C143 0.950 . S
C137 C135 1.387 . S
C137 C139 1.390 . S
C137 H141 0.950 . S
H138 C134 0.950 . S
C139 C137 1.390 . S
C139 C140 1.387 . S
C139 H142 0.950 . S
C140 C139 1.387 . S
C140 C143 1.387 . S
H141 C137 0.950 . S
H142 C139 0.950 . S
C143 C134 1.390 . S
C143 H136 0.950 . S
C143 C140 1.387 . S
C144 C145 1.387 . S
C144 H148 0.950 . S
C144 C153 1.390 1_566 S
C145 C144 1.387 . S
C145 C147 1.387 . S
H146 C153 0.950 . S
C147 C145 1.387 . S
C147 C149 1.390 1_566 S
C147 H151 0.950 . S
H148 C144 0.950 . S
C149 C147 1.390 1_544 S
C149 C150 1.387 . S
C149 H152 0.950 . S
C150 C149 1.387 . S
C150 C153 1.387 . S
H151 C147 0.950 . S
H152 C149 0.950 . S
C153 C144 1.390 1_544 S
C153 H146 0.950 . S
C153 C150 1.387 . S
C154 C155 1.387 . S
C154 H158 0.950 . S
C154 C163 1.390 . S
C155 C154 1.387 . S
C155 C157 1.387 . S
H156 C163 0.950 . S
C157 C155 1.387 . S
C157 C159 1.390 . S
C157 H161 0.950 . S
H158 C154 0.950 . S
C159 C157 1.390 . S
C159 C160 1.387 . S
C159 H162 0.950 . S
C160 C159 1.387 . S
C160 C163 1.387 . S
H161 C157 0.950 . S
H162 C159 0.950 . S
C163 C154 1.390 . S
C163 H156 0.950 . S
C163 C160 1.387 . S
C164 C165 1.387 . S
C164 H168 0.950 . S
C164 C173 1.390 1_456 S
C165 C164 1.387 . S
C165 C167 1.387 . S
H166 C173 0.950 . S
C167 C165 1.387 . S
C167 C169 1.390 1_456 S
C167 H171 0.950 . S
H168 C164 0.950 . S
C169 C167 1.390 1_654 S
C169 C170 1.387 . S
C169 H172 0.950 . S
C170 C169 1.387 . S
C170 C173 1.387 . S
H171 C167 0.950 . S
H172 C169 0.950 . S
C173 C164 1.390 1_654 S
C173 H166 0.950 . S
C173 C170 1.387 . S
C174 C175 1.387 . S
C174 H178 0.950 . S
C174 C183 1.390 1_545 S
C175 C174 1.387 . S
C175 C177 1.387 . S
H176 C183 0.950 . S
C177 C175 1.387 . S
C177 C179 1.390 1_545 S
C177 H181 0.950 . S
H178 C174 0.950 . S
C179 C177 1.390 1_565 S
C179 C180 1.387 . S
C179 H182 0.950 . S
C180 C179 1.387 . S
C180 C183 1.387 . S
H181 C177 0.950 . S
H182 C179 0.950 . S
C183 C174 1.390 1_565 S
C183 H176 0.950 . S
C183 C180 1.387 . S
C184 C185 1.387 . S
C184 H188 0.950 . S
C184 C193 1.390 . S
C185 C184 1.387 . S
C185 C187 1.387 . S
H186 C193 0.950 . S
C187 C185 1.387 . S
C187 C189 1.390 1_556 S
C187 H191 0.950 . S
H188 C184 0.950 . S
C189 C187 1.390 1_554 S
C189 C190 1.387 . S
C189 H192 0.950 . S
C190 C189 1.387 . S
C190 C193 1.387 1_554 S
H191 C187 0.950 . S
H192 C189 0.950 . S
C193 C184 1.390 . S
C193 H186 0.950 . S
C193 C190 1.387 1_556 S
C194 C195 1.387 . S
C194 H198 0.950 . S
C194 C203 1.390 . S
C195 C194 1.387 . S
C195 C197 1.389 . S
H196 C203 0.950 . S
C197 C195 1.389 . S
C197 C199 1.388 1_455 S
C197 H201 0.951 1_455 S
H198 C194 0.950 . S
C199 C197 1.388 1_655 S
C199 C200 1.387 . S
C199 H202 0.950 . S
C200 C199 1.387 . S
C200 C203 1.387 1_655 S
H201 C197 0.951 1_655 S
H202 C199 0.950 . S
C203 C194 1.390 . S
C203 H196 0.950 . S
C203 C200 1.387 1_455 S
C85 C3 1.300 . S
C90 C59 1.296 . S
C95 C23 1.252 . S
C100 C79 1.267 . S
C105 C9 1.278 . S
C110 C31 1.296 . S
C115 C51 1.276 . S
C120 C17 1.296 . S
C125 C65 1.267 . S
C130 C37 1.252 . S
C135 C45 1.300 . S
C140 C73 1.294 . S
C145 C49 1.395 . S
C150 C7 1.395 . S
C155 C63 1.386 . S
C160 C22 1.429 . S
C165 C78 1.428 . S
C170 C35 1.395 . S
C175 C8 1.456 . S
C180 C50 1.456 . S
C185 C21 1.393 . S
C190 C64 1.427 . S
C195 C77 1.386 . S
C200 C36 1.429 . S
