# Generated by pormake.
# Topology pcu, (6)-cn, num edge types: 1
# Building blocks:
#     Node 0, Type 0, BuildingBlock: MIFKUJ_clean_sbu_0, # of connection points: 6
#     Edge 1, Type (0, 0), BuildingBlock: CIFDUS_clean_linker_0, # of connection points: 2
#     Edge 2, Type (0, 0), BuildingBlock: CIFDUS_clean_linker_0, # of connection points: 2
#     Edge 3, Type (0, 0), BuildingBlock: CIFDUS_clean_linker_0, # of connection points: 2
# Relax obj value: 0.000
# Max RMSD: 0.000
# Mean RMSD: 0.000
data_MOF--net-pcu--node1-MIFKUJ_clean_sbu_0--edge1-CIFDUS_clean_linker_0
_symmetry_space_group_name_H-M    P1
_symmetry_Int_Tables_number       1
_symmetry_cell_setting            triclinic
loop_
_symmetry_equiv_pos_as_xyz
'x, y, z'
_cell_length_a     14.227202
_cell_length_b     16.269707
_cell_length_c     12.731523
_cell_angle_alpha  98.654079
_cell_angle_beta   100.33119
_cell_angle_gamma 102.52438
loop_
_atom_site_label
_atom_site_type_symbol
_atom_site_fract_x
_atom_site_fract_y
_atom_site_fract_z
_atom_type_partial_charge
Zn0 Zn 0.05014 0.88278 0.97446 0.0
Zn1 Zn 1.0351 0.06761 -0.01353 0.0
C2 C 0.25002 0.90615 0.94888 0.0
O3 O 0.20837 0.83891 0.87024 0.0
C4 C 0.83522 0.04424 0.01205 0.0
O5 O 0.87688 0.11148 0.09068 0.0
O6 O 1.03673 0.75604 0.96373 0.0
O7 O 0.99899 0.9219 0.10602 0.0
O8 O 0.09725 0.05105 0.13441 0.0
C9 C 0.07791 0.72948 0.04452 0.0
O10 O 0.12677 0.78561 0.13331 0.0
O11 O 0.1964 0.93791 0.00509 0.0
C12 C 1.00734 0.22091 0.91641 0.0
O13 O 0.95848 0.16478 0.82762 0.0
O14 O 0.04851 0.19435 -0.0028 0.0
O15 O 0.08625 0.02849 0.85491 0.0
O16 O 0.988 0.89934 0.82652 0.0
O17 O 0.88885 0.01248 0.95584 0.0
C18 C 0.0506 -0.0099 0.17152 0.0
C19 C 1.03465 0.96029 0.7894 0.0
H20 H 0.96881 0.86917 0.27733 0.0
H21 H 0.14638 0.12957 0.33268 0.0
H22 H 0.15722 0.14307 0.52827 0.0
H23 H 0.11643 0.08122 0.6836 0.0
H24 H 0.93887 0.82082 0.62825 0.0
H25 H 0.92802 0.80732 0.43266 0.0
C26 C 1.00979 0.92898 0.33205 0.0
C27 C 0.05664 -0.00176 0.29015 0.0
C28 C 1.01587 0.93637 0.44453 0.0
C29 C 0.10963 0.07515 0.36251 0.0
C30 C 0.1159 0.08299 0.47449 0.0
C31 C 0.07545 0.02141 0.62888 0.0
C32 C 1.02861 0.95215 0.67078 0.0
C33 C 0.06938 0.01402 0.5164 0.0
C34 C 0.97561 0.87524 0.59841 0.0
C35 C 0.96935 0.8674 0.48643 0.0
H36 H 0.38461 0.84886 0.85009 0.0
H37 H 0.35877 0.04619 0.10312 0.0
H38 H 0.53726 0.1056 0.14535 0.0
H39 H 0.70064 0.10153 0.11084 0.0
H40 H 0.72647 0.9042 0.85781 0.0
H41 H 0.54799 0.84479 0.81558 0.0
C42 C 0.41787 0.90496 0.91439 0.0
C43 C 0.35818 0.94295 0.97325 0.0
C44 C 0.52064 0.93874 0.9385 0.0
C45 C 0.40279 0.01557 0.05643 0.0
C46 C 0.50495 0.04962 0.08074 0.0
C47 C 0.66737 0.04543 0.04654 0.0
C48 C 0.72706 0.00744 -0.01233 0.0
C49 C 0.5646 0.01165 0.02243 0.0
C50 C 0.68245 0.93482 0.9045 0.0
C51 C 0.58029 0.90077 0.88018 0.0
H52 H 0.99038 0.5988 0.87082 0.0
H53 H 0.15398 0.65208 0.20406 0.0
H54 H 0.14708 0.49982 0.19361 0.0
H55 H 0.09486 0.35159 0.09011 0.0
H56 H 0.93127 0.29831 0.75687 0.0
H57 H 0.93816 0.45057 0.76731 0.0
C58 C 1.02444 0.57718 0.94128 0.0
C59 C 0.07257 0.6369 0.03807 0.0
C60 C 1.02038 0.4895 0.93476 0.0
C61 C 0.11643 0.60763 0.12847 0.0
C62 C 0.11259 0.5205 0.12262 0.0
C63 C 0.06081 0.37321 0.01965 0.0
C64 C 1.01268 0.31349 0.92286 0.0
C65 C 0.06486 0.46089 0.02617 0.0
C66 C 0.96881 0.34276 0.83246 0.0
C67 C 0.97266 0.42989 0.8383 0.0
loop_
_geom_bond_atom_site_label_1
_geom_bond_atom_site_label_2
_geom_bond_distance
_geom_bond_site_symmetry_2
_ccdc_geom_bond_type
Zn0 O6 1.969 . S
Zn0 O7 1.965 1_456 S
Zn0 O11 2.024 1_556 S
Zn0 O16 1.969 . S
Zn1 O8 1.969 . S
Zn1 O14 1.969 . S
Zn1 O15 1.965 1_654 S
Zn1 O17 2.024 1_554 S
C2 O3 1.229 . S
C2 O11 1.058 1_556 S
O3 C2 1.229 . S
C4 O5 1.229 . S
C4 O17 1.058 1_554 S
O5 C4 1.229 . S
O6 Zn0 1.969 . S
O6 C9 1.267 1_556 S
O7 Zn0 1.965 1_654 S
O7 C18 1.266 . S
O8 Zn1 1.969 . S
O8 C18 1.249 1_545 S
C9 O6 1.267 1_554 S
C9 O10 1.228 . S
O10 C9 1.228 . S
O11 Zn0 2.024 1_554 S
O11 C2 1.058 1_554 S
C12 O13 1.228 . S
C12 O14 1.267 1_556 S
O13 C12 1.228 . S
O14 Zn1 1.969 . S
O14 C12 1.267 1_554 S
O15 Zn1 1.965 1_456 S
O15 C19 1.269 . S
O16 Zn0 1.969 . S
O16 C19 1.245 1_565 S
O17 Zn1 2.024 1_556 S
O17 C4 1.058 1_556 S
C18 O7 1.266 . S
C18 O8 1.249 1_565 S
C19 O15 1.269 . S
C19 O16 1.245 1_545 S
H20 C26 0.930 . S
H21 C29 0.930 . S
H22 C30 0.930 . S
H23 C31 0.930 . S
H24 C34 0.930 . S
H25 C35 0.930 . S
C26 H20 0.930 . S
C26 C27 1.355 1_665 S
C26 C28 1.415 . S
C27 C26 1.355 1_445 S
C27 C29 1.419 . S
C28 C26 1.415 . S
C28 C33 1.425 1_665 S
C28 C35 1.409 . S
C29 H21 0.930 . S
C29 C27 1.419 . S
C29 C30 1.362 . S
C30 H22 0.930 . S
C30 C29 1.362 . S
C30 C33 1.409 . S
C31 H23 0.930 . S
C31 C32 1.355 1_445 S
C31 C33 1.415 . S
C32 C31 1.355 1_665 S
C32 C34 1.419 . S
C33 C28 1.425 1_445 S
C33 C30 1.409 . S
C33 C31 1.415 . S
C34 H24 0.930 . S
C34 C32 1.419 . S
C34 C35 1.362 . S
C35 H25 0.930 . S
C35 C28 1.409 . S
C35 C34 1.362 . S
H36 C42 0.930 . S
H37 C45 0.930 . S
H38 C46 0.930 . S
H39 C47 0.930 . S
H40 C50 0.930 . S
H41 C51 0.930 . S
C42 H36 0.930 . S
C42 C43 1.355 1_566 S
C42 C44 1.415 . S
C43 C42 1.355 1_544 S
C43 C45 1.419 . S
C44 C42 1.415 . S
C44 C49 1.425 1_566 S
C44 C51 1.409 . S
C45 H37 0.930 . S
C45 C43 1.419 . S
C45 C46 1.362 . S
C46 H38 0.930 . S
C46 C45 1.362 . S
C46 C49 1.409 . S
C47 H39 0.930 . S
C47 C48 1.355 1_544 S
C47 C49 1.415 . S
C48 C47 1.355 1_566 S
C48 C50 1.419 . S
C49 C44 1.425 1_544 S
C49 C46 1.409 . S
C49 C47 1.415 . S
C50 H40 0.930 . S
C50 C48 1.419 . S
C50 C51 1.362 . S
C51 H41 0.930 . S
C51 C44 1.409 . S
C51 C50 1.362 . S
H52 C58 0.930 . S
H53 C61 0.930 . S
H54 C62 0.930 . S
H55 C63 0.930 . S
H56 C66 0.930 . S
H57 C67 0.930 . S
C58 H52 0.930 . S
C58 C59 1.355 1_456 S
C58 C60 1.415 . S
C59 C58 1.355 1_654 S
C59 C61 1.419 . S
C60 C58 1.415 . S
C60 C65 1.425 1_456 S
C60 C67 1.409 . S
C61 H53 0.930 . S
C61 C59 1.419 . S
C61 C62 1.362 . S
C62 H54 0.930 . S
C62 C61 1.362 . S
C62 C65 1.409 . S
C63 H55 0.930 . S
C63 C64 1.355 1_654 S
C63 C65 1.415 . S
C64 C63 1.355 1_456 S
C64 C66 1.419 . S
C65 C60 1.425 1_654 S
C65 C62 1.409 . S
C65 C63 1.415 . S
C66 H56 0.930 . S
C66 C64 1.419 . S
C66 C67 1.362 . S
C67 H57 0.930 . S
C67 C60 1.409 . S
C67 C66 1.362 . S
C27 C18 1.469 1_445 S
C32 C19 1.470 1_665 S
C43 C2 1.441 1_544 S
C48 C4 1.441 1_566 S
C59 C9 1.466 1_655 S
C64 C12 1.466 1_455 S
