# Generated by pormake.
# Topology kag, (6)-cn, num edge types: 1
# Building blocks:
#     Node 0, Type 0, BuildingBlock: GEDQOX_clean_sbu_0, # of connection points: 6
#     Node 1, Type 0, BuildingBlock: GEDQOX_clean_sbu_0, # of connection points: 6
#     Node 2, Type 0, BuildingBlock: GEDQOX_clean_sbu_0, # of connection points: 6
#     Edge 3, Type (0, 0), BuildingBlock: OJICUG_clean_linker_0, # of connection points: 2
#     Edge 4, Type (0, 0), BuildingBlock: OJICUG_clean_linker_0, # of connection points: 2
#     Edge 5, Type (0, 0), BuildingBlock: OJICUG_clean_linker_0, # of connection points: 2
#     Edge 6, Type (0, 0), BuildingBlock: OJICUG_clean_linker_0, # of connection points: 2
#     Edge 7, Type (0, 0), BuildingBlock: OJICUG_clean_linker_0, # of connection points: 2
#     Edge 8, Type (0, 0), BuildingBlock: OJICUG_clean_linker_0, # of connection points: 2
#     Edge 9, Type (0, 0), BuildingBlock: OJICUG_clean_linker_0, # of connection points: 2
#     Edge 10, Type (0, 0), BuildingBlock: OJICUG_clean_linker_0, # of connection points: 2
#     Edge 11, Type (0, 0), BuildingBlock: OJICUG_clean_linker_0, # of connection points: 2
# Relax obj value: 0.118
# Max RMSD: 0.242
# Mean RMSD: 0.135
data_MOF--net-kag--node1-GEDQOX_clean_sbu_0--edge1-OJICUG_clean_linker_0
_symmetry_space_group_name_H-M    P1
_symmetry_Int_Tables_number       1
_symmetry_cell_setting            triclinic
loop_
_symmetry_equiv_pos_as_xyz
'x, y, z'
_cell_length_a     41.013887
_cell_length_b     34.236892
_cell_length_c     10.546737
_cell_angle_alpha  94.254612
_cell_angle_beta   88.77421
_cell_angle_gamma 145.77118
loop_
_atom_site_label
_atom_site_type_symbol
_atom_site_fract_x
_atom_site_fract_y
_atom_site_fract_z
_atom_type_partial_charge
Nd0 Nd 0.07644 0.61531 0.03981 0.0
Nd1 Nd 0.07755 0.51905 0.98212 0.0
C2 C 1.06778 0.67746 0.15467 0.0
C3 C 1.03374 0.68023 0.14339 0.0
C4 C 0.98198 0.63429 0.20524 0.0
C5 C 0.95126 0.63896 0.20022 0.0
C6 C 0.97171 0.69001 0.13404 0.0
C7 C 1.0233 0.73571 0.0715 0.0
C8 C 1.05406 0.73102 0.07647 0.0
C9 C 1.07007 0.58581 0.77968 0.0
C10 C 0.95264 0.44286 0.98786 0.0
C11 C 0.086 0.45666 0.86722 0.0
C12 C 0.12002 0.45387 0.87834 0.0
C13 C 0.17252 0.5009 0.81906 0.0
C14 C 0.20319 0.49616 0.82383 0.0
C15 C 0.18198 0.44399 0.88721 0.0
C16 C 0.12968 0.39723 0.94725 0.0
C17 C 0.09895 0.40196 0.94247 0.0
C18 C 0.08419 0.54877 0.24228 0.0
C19 C 0.20132 0.69147 0.0341 0.0
O20 O 1.04019 0.61938 0.18778 0.0
O21 O 0.10528 0.70586 0.06902 0.0
O22 O 1.07201 0.62424 0.82445 0.0
O23 O 1.07005 0.56508 0.87356 0.0
O24 O 0.97955 0.50272 0.03014 0.0
O25 O 0.98032 0.43765 0.95229 0.0
O26 O 0.11353 0.51468 0.83388 0.0
O27 O 1.04864 0.42842 0.95317 0.0
O28 O 0.08253 0.51062 0.19746 0.0
O29 O 0.0836 0.56894 0.14844 0.0
O30 O 0.17441 0.63165 0.99134 0.0
O31 O 0.17364 0.69662 0.07011 0.0
H32 H 0.96531 0.59494 0.2587 0.0
H33 H 0.91132 0.60235 0.24812 0.0
H34 H 1.04074 0.77626 0.02114 0.0
H35 H 0.0942 0.76787 0.02928 0.0
H36 H 0.18982 0.54118 0.7678 0.0
H37 H 0.24368 0.53359 0.77792 0.0
H38 H 0.11169 0.35583 0.99541 0.0
H39 H 1.05825 0.36428 0.98759 0.0
Nd40 Nd 0.57417 0.10852 1.01001 0.0
Nd41 Nd 0.57977 1.02583 0.01158 0.0
C42 C 0.57919 0.18935 0.98332 0.0
C43 C 0.58307 0.23602 0.97258 0.0
C44 C 0.55545 0.22622 0.86835 0.0
C45 C 0.55503 0.26669 0.86501 0.0
C46 C 0.58235 0.31789 0.96575 0.0
C47 C 0.61092 0.32837 0.06857 0.0
C48 C 0.61127 0.288 0.07191 0.0
C49 C 0.56735 0.07455 0.24657 0.0
C50 C 0.70157 0.19087 1.00277 0.0
C51 C 0.57478 0.94499 0.03785 0.0
C52 C 0.57092 0.89835 0.04846 0.0
C53 C 0.59861 0.90819 0.15257 0.0
C54 C 0.59902 0.86771 0.15584 0.0
C55 C 0.57162 0.81645 0.05516 0.0
C56 C 0.543 0.80593 0.95245 0.0
C57 C 0.54266 0.84632 0.94917 0.0
C58 C 0.5867 1.06011 0.77515 0.0
C59 C 0.45239 0.9435 0.01922 0.0
O60 O 0.55505 0.14087 0.89374 0.0
O61 O 0.602 0.19575 0.08347 0.0
O62 O 0.53675 0.07303 0.20556 0.0
O63 O 0.60129 0.09514 0.16491 0.0
O64 O 0.67021 0.19053 0.97179 0.0
O65 O 0.67712 0.13483 0.03864 0.0
O66 O 0.59888 0.99341 0.12756 0.0
O67 O 0.55199 0.93866 0.93775 0.0
O68 O 0.61739 1.06177 0.81612 0.0
O69 O 0.55256 1.03908 0.85672 0.0
O70 O 0.48376 0.94384 0.05004 0.0
O71 O 0.47681 0.99951 0.98332 0.0
H72 H 0.53321 0.18642 0.79053 0.0
H73 H 0.53323 0.25779 0.78362 0.0
H74 H 0.63171 0.36654 0.14868 0.0
H75 H 0.63264 0.29661 0.15407 0.0
H76 H 0.62091 0.94803 0.23036 0.0
H77 H 0.62087 0.87664 0.23714 0.0
H78 H 0.52214 0.76772 0.87239 0.0
H79 H 0.52124 0.83768 0.8671 0.0
Nd80 Nd 0.51218 0.50194 0.98544 0.0
Nd81 Nd 0.64161 0.63221 0.0346 0.0
C82 C 0.40394 0.40956 0.90444 0.0
C83 C 0.36981 0.41207 0.89456 0.0
C84 C 0.39134 0.46544 0.83591 0.0
C85 C 0.36014 0.46949 0.83358 0.0
C86 C 0.30687 0.42048 0.89022 0.0
C87 C 0.28524 0.36689 0.94821 0.0
C88 C 0.31639 0.36268 0.95006 0.0
C89 C 0.54923 0.53442 0.23712 0.0
C90 C 0.58129 0.65603 0.03243 0.0
C91 C 0.74996 0.72469 0.11479 0.0
C92 C 0.78405 0.72214 0.12486 0.0
C93 C 0.76288 0.66938 0.18534 0.0
C94 C 0.79403 0.66526 0.18794 0.0
C95 C 0.84688 0.71357 0.12967 0.0
C96 C 0.86814 0.76654 0.0698 0.0
C97 C 0.83707 0.77084 0.06775 0.0
C98 C 0.60421 0.59947 0.78297 0.0
C99 C 0.57253 0.47816 0.9882 0.0
O100 O 0.44605 0.4459 0.82818 0.0
O101 O 0.41854 0.41443 0.02001 0.0
O102 O 0.50629 0.47129 0.18072 0.0
O103 O 0.5701 0.57754 0.16199 0.0
O104 O 0.53547 0.59064 0.98039 0.0
O105 O 0.62808 0.68437 0.07717 0.0
O106 O 0.70804 0.68871 0.19146 0.0
O107 O 0.73514 0.71946 0.99915 0.0
O108 O 0.64706 0.66261 0.83935 0.0
O109 O 0.58375 0.55659 0.85812 0.0
O110 O 0.6183 0.54353 0.0403 0.0
O111 O 0.52577 0.44982 0.94317 0.0
H112 H 0.43276 0.50482 0.7935 0.0
H113 H 0.37841 0.51197 0.78978 0.0
H114 H 0.24406 0.32795 0.99156 0.0
H115 H 0.29904 0.32124 0.99616 0.0
H116 H 0.72177 0.6305 0.229 0.0
H117 H 0.77607 0.62327 0.23324 0.0
H118 H 0.90899 0.80493 0.02515 0.0
H119 H 0.85414 0.81181 0.02022 0.0
C120 C 1.06629 0.5291 0.59869 0.0
C121 C 1.07356 0.57585 0.64242 0.0
H122 H 1.06413 0.48425 0.43873 0.0
C123 C 0.08439 0.61386 0.55295 0.0
H124 H 1.05696 0.49824 0.66424 0.0
C125 C 0.08819 0.60565 0.42335 0.0
C126 C 0.08093 0.55892 0.37963 0.0
H127 H 0.09035 0.65051 0.5833 0.0
H128 H 0.09741 0.63643 0.35775 0.0
C129 C 1.07013 0.52094 0.4691 0.0
C130 C 0.6122 0.08235 0.42461 0.0
C131 C 0.57172 0.06969 0.38116 0.0
H132 H 0.64903 0.08998 0.58437 0.0
C133 C 0.53652 1.05455 0.46842 0.0
H134 H 0.63995 0.09433 0.35936 0.0
C135 C 0.54181 1.05229 0.59715 0.0
C136 C 0.58229 1.06496 0.64059 0.0
H137 H 0.50499 1.0447 0.43736 0.0
H138 H 0.51406 1.04031 0.66241 0.0
C139 C 0.6175 0.08011 0.55333 0.0
C140 C 0.61925 0.63537 0.56507 0.0
C141 C 0.58961 0.58257 0.64358 0.0
H142 H 0.63001 0.66166 0.37484 0.0
C143 C 0.54689 0.51393 0.58725 0.0
H144 H 0.65245 0.68879 0.60575 0.0
C145 C 0.53415 0.49846 0.45504 0.0
C146 C 0.5638 0.55127 0.37653 0.0
H147 H 0.52341 0.47218 0.6453 0.0
H148 H 0.50094 0.44504 0.41435 0.0
C149 C 0.60652 0.6199 0.43287 0.0
C150 C 0.21877 0.42177 0.99862 0.0
C151 C 0.21376 0.43763 0.88832 0.0
H152 H 0.25254 0.40466 0.08617 0.0
C153 C 0.23922 0.44717 0.77851 0.0
H154 H 0.20039 0.41505 0.08535 0.0
C155 C 0.26921 0.44141 0.77915 0.0
C156 C 0.27432 0.42572 0.88944 0.0
H157 H 0.2353 0.45814 0.69119 0.0
H158 H 0.28776 0.44834 0.69255 0.0
C159 C 0.24865 0.4158 0.99912 0.0
C160 C 0.79762 0.25191 0.98979 0.0
C161 C 0.76558 0.25516 0.9946 0.0
H162 H 0.88135 0.30808 0.98161 0.0
C163 C 0.79541 0.32043 0.99236 0.0
H164 H 0.77599 0.20244 0.99047 0.0
C165 C 0.856 0.38121 0.98863 0.0
C166 C 0.88811 0.37803 0.98471 0.0
H167 H 0.7721 0.32482 0.99596 0.0
H168 H 0.87769 0.43077 0.98919 0.0
C169 C 0.85806 0.3125 0.98383 0.0
C170 C 0.52494 0.70379 1.00945 0.0
C171 C 0.57374 0.77499 0.05485 0.0
H172 H 0.48901 0.61085 0.96711 0.0
C173 C 0.62498 0.80657 0.09556 0.0
H174 H 0.48446 0.67738 0.97923 0.0
C175 C 0.62755 0.76811 0.08905 0.0
C176 C 0.57896 0.6972 0.0416 0.0
H177 H 0.6636 0.86147 0.12972 0.0
H178 H 0.66784 0.79422 0.11992 0.0
C179 C 0.52753 0.66549 1.00281 0.0
C180 C 0.91541 0.68824 0.24295 0.0
C181 C 0.93991 0.69634 0.13256 0.0
H182 H 0.86762 0.68817 0.32899 0.0
C183 C 0.93393 0.71076 0.0213 0.0
H184 H 0.9201 0.67842 0.33097 0.0
C185 C 0.90407 0.71675 0.02048 0.0
C186 C 0.87937 0.70826 0.13076 0.0
H187 H 0.95153 0.71632 0.93413 0.0
H188 H 0.89943 0.72679 0.93276 0.0
C189 C 0.88542 0.69398 0.24197 0.0
C190 C 0.2959 0.82184 0.0385 0.0
C191 C 0.26585 0.75631 0.03729 0.0
H192 H 0.37797 0.93193 0.03213 0.0
C193 C 0.29796 0.75312 0.03307 0.0
H194 H 0.27261 0.82626 0.04097 0.0
C195 C 0.35855 0.81392 0.02937 0.0
C196 C 0.38838 0.8792 0.02744 0.0
H197 H 0.27627 0.70355 0.03225 0.0
H198 H 0.38187 0.80953 0.02552 0.0
C199 C 0.35635 0.88244 0.03256 0.0
C200 C 0.52636 0.36614 0.93149 0.0
C201 C 0.57489 0.43701 0.97918 0.0
H202 H 0.4904 0.27285 0.89067 0.0
C203 C 0.62629 0.46874 0.01831 0.0
H204 H 0.48609 0.34003 0.90037 0.0
C205 C 0.62893 0.43048 0.01169 0.0
C206 C 0.5802 0.35931 0.96602 0.0
H207 H 0.66477 0.52335 0.05424 0.0
H208 H 0.6694 0.4569 0.04214 0.0
C209 C 0.52898 0.32773 0.92502 0.0
loop_
_geom_bond_atom_site_label_1
_geom_bond_atom_site_label_2
_geom_bond_distance
_geom_bond_site_symmetry_2
_ccdc_geom_bond_type
Nd0 C2 2.836 1_556 S
Nd0 O20 2.500 1_556 S
Nd0 O21 2.492 . S
Nd0 O22 2.487 . S
Nd0 O23 2.682 1_655 S
Nd0 O24 2.410 . S
Nd0 O29 2.414 1_556 S
Nd0 O31 2.424 1_656 S
Nd1 C11 2.836 1_554 S
Nd1 O23 2.414 1_554 S
Nd1 O25 2.424 1_454 S
Nd1 O26 2.500 1_554 S
Nd1 O27 2.492 . S
Nd1 O28 2.487 . S
Nd1 O29 2.682 1_455 S
Nd1 O30 2.410 . S
C2 Nd0 2.836 1_554 S
C2 C3 1.498 . S
C2 O20 1.258 . S
C2 O21 1.239 1_554 S
C3 C2 1.498 . S
C3 C4 1.366 . S
C3 C8 1.407 1_554 S
C4 C3 1.366 . S
C4 C5 1.392 . S
C4 H32 0.930 . S
C5 C4 1.392 . S
C5 C6 1.398 . S
C5 H33 0.929 . S
C6 C5 1.398 . S
C6 C7 1.352 1_554 S
C7 C6 1.352 1_556 S
C7 C8 1.384 . S
C7 H34 0.930 . S
C8 C3 1.407 1_556 S
C8 C7 1.384 . S
C8 H35 0.929 . S
C9 O22 1.241 1_455 S
C9 O23 1.273 . S
C10 O24 1.251 . S
C10 O25 1.268 . S
C11 Nd1 2.836 1_556 S
C11 C12 1.498 . S
C11 O26 1.258 . S
C11 O27 1.239 1_556 S
C12 C11 1.498 . S
C12 C13 1.366 . S
C12 C17 1.407 1_556 S
C13 C12 1.366 . S
C13 C14 1.392 . S
C13 H36 0.930 . S
C14 C13 1.392 . S
C14 C15 1.398 . S
C14 H37 0.929 . S
C15 C14 1.398 . S
C15 C16 1.352 1_556 S
C16 C15 1.352 1_554 S
C16 C17 1.384 . S
C16 H38 0.930 . S
C17 C12 1.407 1_554 S
C17 C16 1.384 . S
C17 H39 0.929 . S
C18 O28 1.241 . S
C18 O29 1.273 1_455 S
C19 O30 1.251 . S
C19 O31 1.268 . S
O20 Nd0 2.500 1_554 S
O20 C2 1.258 . S
O21 Nd0 2.492 . S
O21 C2 1.239 1_556 S
O22 Nd0 2.487 . S
O22 C9 1.241 1_655 S
O23 Nd0 2.682 1_455 S
O23 Nd1 2.414 1_556 S
O23 C9 1.273 . S
O24 Nd0 2.410 . S
O24 C10 1.251 . S
O25 Nd1 2.424 1_656 S
O25 C10 1.268 . S
O26 Nd1 2.500 1_556 S
O26 C11 1.258 . S
O27 Nd1 2.492 . S
O27 C11 1.239 1_554 S
O28 Nd1 2.487 . S
O28 C18 1.241 . S
O29 Nd0 2.414 1_554 S
O29 Nd1 2.682 1_655 S
O29 C18 1.273 1_655 S
O30 Nd1 2.410 . S
O30 C19 1.251 . S
O31 Nd0 2.424 1_454 S
O31 C19 1.268 . S
H32 C4 0.930 . S
H33 C5 0.929 . S
H34 C7 0.930 . S
H35 C8 0.929 . S
H36 C13 0.930 . S
H37 C14 0.929 . S
H38 C16 0.930 . S
H39 C17 0.929 . S
Nd40 C42 2.836 . S
Nd40 O60 2.500 1_554 S
Nd40 O61 2.492 . S
Nd40 O62 2.487 . S
Nd40 O63 2.682 1_545 S
Nd40 O64 2.410 . S
Nd40 O69 2.414 1_554 S
Nd40 O71 2.424 1_545 S
Nd41 C51 2.836 . S
Nd41 O63 2.414 1_556 S
Nd41 O65 2.424 1_565 S
Nd41 O66 2.500 1_556 S
Nd41 O67 2.492 . S
Nd41 O68 2.487 . S
Nd41 O69 2.682 1_565 S
Nd41 O70 2.410 . S
C42 Nd40 2.836 . S
C42 C43 1.498 . S
C42 O60 1.258 1_554 S
C42 O61 1.239 . S
C43 C42 1.498 . S
C43 C44 1.366 1_554 S
C43 C48 1.407 . S
C44 C43 1.366 1_556 S
C44 C45 1.392 . S
C44 H72 0.930 . S
C45 C44 1.392 . S
C45 C46 1.398 1_556 S
C45 H73 0.929 . S
C46 C45 1.398 1_554 S
C46 C47 1.352 . S
C47 C46 1.352 . S
C47 C48 1.384 . S
C47 H74 0.930 . S
C48 C43 1.407 . S
C48 C47 1.384 . S
C48 H75 0.929 . S
C49 O62 1.241 . S
C49 O63 1.273 1_545 S
C50 O64 1.251 . S
C50 O65 1.268 1_554 S
C51 Nd41 2.836 . S
C51 C52 1.498 . S
C51 O66 1.258 1_556 S
C51 O67 1.239 . S
C52 C51 1.498 . S
C52 C53 1.366 1_556 S
C52 C57 1.407 . S
C53 C52 1.366 1_554 S
C53 C54 1.392 . S
C53 H76 0.930 . S
C54 C53 1.392 . S
C54 C55 1.398 1_554 S
C54 H77 0.929 . S
C55 C54 1.398 1_556 S
C55 C56 1.352 . S
C56 C55 1.352 . S
C56 C57 1.384 . S
C56 H78 0.930 . S
C57 C52 1.407 . S
C57 C56 1.384 . S
C57 H79 0.929 . S
C58 O68 1.241 . S
C58 O69 1.273 1_565 S
C59 O70 1.251 . S
C59 O71 1.268 1_556 S
O60 Nd40 2.500 1_556 S
O60 C42 1.258 1_556 S
O61 Nd40 2.492 . S
O61 C42 1.239 . S
O62 Nd40 2.487 . S
O62 C49 1.241 . S
O63 Nd40 2.682 1_565 S
O63 Nd41 2.414 1_554 S
O63 C49 1.273 1_565 S
O64 Nd40 2.410 . S
O64 C50 1.251 . S
O65 Nd41 2.424 1_545 S
O65 C50 1.268 1_556 S
O66 Nd41 2.500 1_554 S
O66 C51 1.258 1_554 S
O67 Nd41 2.492 . S
O67 C51 1.239 . S
O68 Nd41 2.487 . S
O68 C58 1.241 . S
O69 Nd40 2.414 1_556 S
O69 Nd41 2.682 1_545 S
O69 C58 1.273 1_545 S
O70 Nd41 2.410 . S
O70 C59 1.251 . S
O71 Nd40 2.424 1_565 S
O71 C59 1.268 1_554 S
H72 C44 0.930 . S
H73 C45 0.929 . S
H74 C47 0.930 . S
H75 C48 0.929 . S
H76 C53 0.930 . S
H77 C54 0.929 . S
H78 C56 0.930 . S
H79 C57 0.929 . S
Nd80 C82 2.836 1_554 S
Nd80 O100 2.500 1_554 S
Nd80 O101 2.492 . S
Nd80 O102 2.487 . S
Nd80 O103 2.682 . S
Nd80 O104 2.410 . S
Nd80 O109 2.414 1_554 S
Nd80 O111 2.424 1_554 S
Nd81 C91 2.836 1_556 S
Nd81 O103 2.414 1_556 S
Nd81 O105 2.424 1_556 S
Nd81 O106 2.500 1_556 S
Nd81 O107 2.492 . S
Nd81 O108 2.487 . S
Nd81 O109 2.682 . S
Nd81 O110 2.410 . S
C82 Nd80 2.836 1_556 S
C82 C83 1.498 . S
C82 O100 1.258 . S
C82 O101 1.239 1_556 S
C83 C82 1.498 . S
C83 C84 1.366 . S
C83 C88 1.407 1_556 S
C84 C83 1.366 . S
C84 C85 1.392 . S
C84 H112 0.930 . S
C85 C84 1.392 . S
C85 C86 1.398 . S
C85 H113 0.929 . S
C86 C85 1.398 . S
C86 C87 1.352 1_556 S
C87 C86 1.352 1_554 S
C87 C88 1.384 . S
C87 H114 0.930 . S
C88 C83 1.407 1_554 S
C88 C87 1.384 . S
C88 H115 0.929 . S
C89 O102 1.241 . S
C89 O103 1.273 . S
C90 O104 1.251 . S
C90 O105 1.268 . S
C91 Nd81 2.836 1_554 S
C91 C92 1.498 . S
C91 O106 1.258 . S
C91 O107 1.239 1_554 S
C92 C91 1.498 . S
C92 C93 1.366 . S
C92 C97 1.407 1_554 S
C93 C92 1.366 . S
C93 C94 1.392 . S
C93 H116 0.930 . S
C94 C93 1.392 . S
C94 C95 1.398 . S
C94 H117 0.929 . S
C95 C94 1.398 . S
C95 C96 1.352 1_554 S
C96 C95 1.352 1_556 S
C96 C97 1.384 . S
C96 H118 0.930 . S
C97 C92 1.407 1_556 S
C97 C96 1.384 . S
C97 H119 0.929 . S
C98 O108 1.241 . S
C98 O109 1.273 . S
C99 O110 1.251 . S
C99 O111 1.268 . S
O100 Nd80 2.500 1_556 S
O100 C82 1.258 . S
O101 Nd80 2.492 . S
O101 C82 1.239 1_554 S
O102 Nd80 2.487 . S
O102 C89 1.241 . S
O103 Nd80 2.682 . S
O103 Nd81 2.414 1_554 S
O103 C89 1.273 . S
O104 Nd80 2.410 . S
O104 C90 1.251 . S
O105 Nd81 2.424 1_554 S
O105 C90 1.268 . S
O106 Nd81 2.500 1_554 S
O106 C91 1.258 . S
O107 Nd81 2.492 . S
O107 C91 1.239 1_556 S
O108 Nd81 2.487 . S
O108 C98 1.241 . S
O109 Nd80 2.414 1_556 S
O109 Nd81 2.682 . S
O109 C98 1.273 . S
O110 Nd81 2.410 . S
O110 C99 1.251 . S
O111 Nd80 2.424 1_556 S
O111 C99 1.268 . S
H112 C84 0.930 . S
H113 C85 0.929 . S
H114 C87 0.930 . S
H115 C88 0.929 . S
H116 C93 0.930 . S
H117 C94 0.929 . S
H118 C96 0.930 . S
H119 C97 0.929 . S
C120 C121 1.387 . S
C120 H124 0.950 . S
C120 C129 1.392 . S
C121 C120 1.387 . S
C121 C123 1.387 . S
H122 C129 0.981 1_655 S
C123 C121 1.387 . S
C123 C125 1.390 . S
C123 H127 0.950 . S
H124 C120 0.950 . S
C125 C123 1.390 . S
C125 C126 1.380 . S
C125 H128 0.950 . S
C126 C125 1.380 . S
C126 C129 1.380 . S
H127 C123 0.950 . S
H128 C125 0.950 . S
C129 C120 1.392 . S
C129 H122 0.981 1_455 S
C129 C126 1.380 . S
C130 C131 1.387 . S
C130 H134 0.950 . S
C130 C139 1.390 . S
C131 C130 1.387 . S
C131 C133 1.387 1_545 S
H132 C139 0.950 . S
C133 C131 1.387 1_565 S
C133 C135 1.390 . S
C133 H137 0.950 . S
H134 C130 0.950 . S
C135 C133 1.390 . S
C135 C136 1.385 . S
C135 H138 0.950 . S
C136 C135 1.385 . S
C136 C139 1.389 1_565 S
H137 C133 0.950 . S
H138 C135 0.950 . S
C139 C130 1.390 . S
C139 H132 0.950 . S
C139 C136 1.389 1_545 S
C140 C141 1.387 . S
C140 H144 0.950 . S
C140 C149 1.390 . S
C141 C140 1.387 . S
C141 C143 1.387 . S
H142 C149 0.950 . S
C143 C141 1.387 . S
C143 C145 1.390 . S
C143 H147 0.950 . S
H144 C140 0.950 . S
C145 C143 1.390 . S
C145 C146 1.387 . S
C145 H148 0.950 . S
C146 C145 1.387 . S
C146 C149 1.387 . S
H147 C143 0.950 . S
H148 C145 0.950 . S
C149 C140 1.390 . S
C149 H142 0.950 . S
C149 C146 1.387 . S
C150 C151 1.387 1_554 S
C150 H154 0.950 . S
C150 C159 1.390 . S
C151 C150 1.387 1_556 S
C151 C153 1.387 . S
H152 C159 0.950 . S
C153 C151 1.387 . S
C153 C155 1.390 . S
C153 H157 0.950 . S
H154 C150 0.950 . S
C155 C153 1.390 . S
C155 C156 1.387 . S
C155 H158 0.950 . S
C156 C155 1.387 . S
C156 C159 1.387 1_556 S
H157 C153 0.950 . S
H158 C155 0.950 . S
C159 C150 1.390 . S
C159 H152 0.950 . S
C159 C156 1.387 1_554 S
C160 C161 1.385 1_556 S
C160 H164 0.950 . S
C160 C169 1.390 . S
C161 C160 1.385 1_554 S
C161 C163 1.389 . S
H162 C169 0.950 . S
C163 C161 1.389 . S
C163 C165 1.390 . S
C163 H167 0.950 . S
H164 C160 0.950 . S
C165 C163 1.390 . S
C165 C166 1.387 1_554 S
C165 H168 0.950 . S
C166 C165 1.387 1_556 S
C166 C169 1.387 . S
H167 C163 0.950 . S
H168 C165 0.950 . S
C169 C160 1.390 . S
C169 H162 0.950 . S
C169 C166 1.387 . S
C170 C171 1.387 . S
C170 H174 0.950 . S
C170 C179 1.390 . S
C171 C170 1.387 . S
C171 C173 1.387 1_556 S
H172 C179 0.950 . S
C173 C171 1.387 1_554 S
C173 C175 1.390 . S
C173 H177 0.950 . S
H174 C170 0.950 . S
C175 C173 1.390 . S
C175 C176 1.387 . S
C175 H178 0.950 . S
C176 C175 1.387 . S
C176 C179 1.387 1_554 S
H177 C173 0.950 . S
H178 C175 0.950 . S
C179 C170 1.390 . S
C179 H172 0.950 . S
C179 C176 1.387 1_556 S
C180 C181 1.387 . S
C180 H184 0.950 . S
C180 C189 1.390 . S
C181 C180 1.387 . S
C181 C183 1.387 1_554 S
H182 C189 0.950 . S
C183 C181 1.387 1_556 S
C183 C185 1.390 . S
C183 H187 0.950 . S
H184 C180 0.950 . S
C185 C183 1.390 . S
C185 C186 1.387 1_556 S
C185 H188 0.950 . S
C186 C185 1.387 1_554 S
C186 C189 1.387 . S
H187 C183 0.950 . S
H188 C185 0.950 . S
C189 C180 1.390 . S
C189 H182 0.950 . S
C189 C186 1.387 . S
C190 C191 1.387 1_556 S
C190 H194 0.950 . S
C190 C199 1.390 . S
C191 C190 1.387 1_554 S
C191 C193 1.387 . S
H192 C199 0.950 . S
C193 C191 1.387 . S
C193 C195 1.390 . S
C193 H197 0.950 . S
H194 C190 0.950 . S
C195 C193 1.390 . S
C195 C196 1.389 . S
C195 H198 0.950 . S
C196 C195 1.389 . S
C196 C199 1.386 1_554 S
H197 C193 0.950 . S
H198 C195 0.950 . S
C199 C190 1.390 . S
C199 H192 0.950 . S
C199 C196 1.386 1_556 S
C200 C201 1.392 . S
C200 H204 0.950 . S
C200 C209 1.390 . S
C201 C200 1.392 . S
C201 C203 1.383 1_556 S
H202 C209 0.950 . S
C203 C201 1.383 1_554 S
C203 C205 1.390 . S
C203 H207 0.950 . S
H204 C200 0.950 . S
C205 C203 1.390 . S
C205 C206 1.387 . S
C205 H208 0.950 . S
C206 C205 1.387 . S
C206 C209 1.387 1_554 S
H207 C203 0.950 . S
H208 C205 0.950 . S
C209 C200 1.390 . S
C209 H202 0.950 . S
C209 C206 1.387 1_556 S
C121 C9 1.437 . S
C126 C18 1.439 . S
C131 C49 1.459 . S
C136 C58 1.461 . S
C141 C98 1.440 . S
C146 C89 1.440 . S
C151 C15 0.987 . S
C156 C86 0.994 . S
C161 C50 2.585 . S
C166 C10 2.668 . S
C171 C55 2.211 . S
C176 C90 2.340 . S
C181 C6 0.987 . S
C186 C95 0.994 . S
C191 C19 2.668 . S
C196 C59 2.585 1_554 S
C201 C99 2.341 . S
C206 C46 2.211 . S
