# Generated by pormake.
# Topology umw, (4)-cn, num edge types: 1
# Building blocks:
#     Node 0, Type 0, BuildingBlock: NAHDIM_clean_sbu_0, # of connection points: 4
#     Node 1, Type 0, BuildingBlock: NAHDIM_clean_sbu_0, # of connection points: 4
#     Node 2, Type 0, BuildingBlock: NAHDIM_clean_sbu_0, # of connection points: 4
#     Node 3, Type 0, BuildingBlock: NAHDIM_clean_sbu_0, # of connection points: 4
#     Node 4, Type 0, BuildingBlock: NAHDIM_clean_sbu_0, # of connection points: 4
#     Node 5, Type 0, BuildingBlock: NAHDIM_clean_sbu_0, # of connection points: 4
#     Node 6, Type 0, BuildingBlock: NAHDIM_clean_sbu_0, # of connection points: 4
#     Node 7, Type 0, BuildingBlock: NAHDIM_clean_sbu_0, # of connection points: 4
#     Edge 8, Type (0, 0), BuildingBlock: OJICUG_clean_linker_0, # of connection points: 2
#     Edge 9, Type (0, 0), BuildingBlock: OJICUG_clean_linker_0, # of connection points: 2
#     Edge 10, Type (0, 0), BuildingBlock: OJICUG_clean_linker_0, # of connection points: 2
#     Edge 11, Type (0, 0), BuildingBlock: OJICUG_clean_linker_0, # of connection points: 2
#     Edge 12, Type (0, 0), BuildingBlock: OJICUG_clean_linker_0, # of connection points: 2
#     Edge 13, Type (0, 0), BuildingBlock: OJICUG_clean_linker_0, # of connection points: 2
#     Edge 14, Type (0, 0), BuildingBlock: OJICUG_clean_linker_0, # of connection points: 2
#     Edge 15, Type (0, 0), BuildingBlock: OJICUG_clean_linker_0, # of connection points: 2
#     Edge 16, Type (0, 0), BuildingBlock: OJICUG_clean_linker_0, # of connection points: 2
#     Edge 17, Type (0, 0), BuildingBlock: OJICUG_clean_linker_0, # of connection points: 2
#     Edge 18, Type (0, 0), BuildingBlock: OJICUG_clean_linker_0, # of connection points: 2
#     Edge 19, Type (0, 0), BuildingBlock: OJICUG_clean_linker_0, # of connection points: 2
#     Edge 20, Type (0, 0), BuildingBlock: OJICUG_clean_linker_0, # of connection points: 2
#     Edge 21, Type (0, 0), BuildingBlock: OJICUG_clean_linker_0, # of connection points: 2
#     Edge 22, Type (0, 0), BuildingBlock: OJICUG_clean_linker_0, # of connection points: 2
#     Edge 23, Type (0, 0), BuildingBlock: OJICUG_clean_linker_0, # of connection points: 2
# Relax obj value: 0.141
# Max RMSD: 0.107
# Mean RMSD: 0.107
data_MOF--net-umw--node1-NAHDIM_clean_sbu_0--edge1-OJICUG_clean_linker_0
_symmetry_space_group_name_H-M    P1
_symmetry_Int_Tables_number       1
_symmetry_cell_setting            triclinic
loop_
_symmetry_equiv_pos_as_xyz
'x, y, z'
_cell_length_a     32.279968
_cell_length_b     32.280371
_cell_length_c     17.25762
_cell_angle_alpha  89.934668
_cell_angle_beta   89.948528
_cell_angle_gamma 89.968547
loop_
_atom_site_label
_atom_site_type_symbol
_atom_site_fract_x
_atom_site_fract_y
_atom_site_fract_z
_atom_type_partial_charge
C0 C 0.35579 0.24126 0.29067 0.0
O1 O 0.39538 0.25069 0.29116 0.0
O2 O 0.42957 0.17689 0.16015 0.0
Zn3 Zn 0.39301 0.16581 0.25333 0.0
O4 O 0.42841 0.17337 0.34717 0.0
C5 C 0.40706 0.082 0.27025 0.0
O6 O 0.44398 0.09872 0.27716 0.0
O7 O 0.34504 0.20515 0.26914 0.0
C8 C 0.41367 0.16344 0.41284 0.0
O9 O 0.37539 0.14981 0.41728 0.0
C10 C 0.42824 0.20672 0.11206 0.0
O11 O 0.39893 0.23477 0.11825 0.0
O12 O 0.3764 0.10535 0.25475 0.0
C13 C 0.75295 0.3506 0.53839 0.0
O14 O 0.74246 0.38988 0.53419 0.0
O15 O 0.81155 0.42315 0.40239 0.0
Zn16 Zn 0.82728 0.38879 0.49703 0.0
O17 O 0.82242 0.42479 0.59076 0.0
C18 C 0.91103 0.40501 0.50157 0.0
O19 O 0.89351 0.44172 0.50513 0.0
O20 O 0.78949 0.34021 0.51879 0.0
C21 C 0.83496 0.41141 0.6558 0.0
O22 O 0.84978 0.37358 0.66074 0.0
C23 C 0.79399 0.45829 0.4101 0.0
O24 O 0.7832 0.47074 0.47966 0.0
O25 O 0.88808 0.37337 0.49244 0.0
C26 C 0.64219 0.74727 0.79197 0.0
O27 O 0.60271 0.73748 0.78954 0.0
O28 O 0.57098 0.80558 0.65187 0.0
Zn29 Zn 0.60526 0.82163 0.74614 0.0
O30 O 0.569 0.81802 0.83975 0.0
C31 C 0.58964 0.90542 0.74775 0.0
O32 O 0.55285 0.88805 0.7501 0.0
O33 O 0.65314 0.78318 0.76941 0.0
C34 C 0.58245 0.8308 0.90451 0.0
O35 O 0.62043 0.8452 0.90915 0.0
C36 C 0.53572 0.78833 0.66 0.0
O37 O 0.52312 0.77809 0.7298 0.0
O38 O 0.62131 0.88228 0.74032 0.0
C39 C 0.2474 0.63755 0.04161 0.0
O40 O 0.25649 0.59786 0.04223 0.0
O41 O 0.18324 0.56484 0.90899 0.0
Zn42 Zn 0.17181 0.60132 0.00181 0.0
O43 O 0.17845 0.56575 0.09572 0.0
C44 C 0.08798 0.58751 0.0159 0.0
O45 O 0.10469 0.55052 0.02171 0.0
O46 O 0.21161 0.64871 0.0188 0.0
C47 C 0.1681 0.58052 0.16108 0.0
O48 O 0.15455 0.61885 0.16508 0.0
C49 C 0.21309 0.56627 0.86098 0.0
O50 O 0.24101 0.59566 0.86712 0.0
O51 O 0.1114 0.61834 0.00205 0.0
C52 C 0.36138 0.74995 0.19184 0.0
O53 O 0.40104 0.74071 0.19298 0.0
O54 O 0.43035 0.80286 0.34104 0.0
Zn55 Zn 0.3964 0.82284 0.24995 0.0
O56 O 0.43533 0.82319 0.16016 0.0
C57 C 0.40047 0.90482 0.30878 0.0
O58 O 0.4298 0.88704 0.34967 0.0
O59 O 0.34978 0.78463 0.21923 0.0
C60 C 0.47265 0.83486 0.16789 0.0
O61 O 0.48569 0.84756 0.23591 0.0
C62 C 0.41843 0.79029 0.40709 0.0
O63 O 0.37859 0.78667 0.42123 0.0
O64 O 0.37857 0.88255 0.26397 0.0
C65 C 0.24299 0.35704 0.43545 0.0
O66 O 0.25156 0.39673 0.43119 0.0
O67 O 0.18936 0.42011 0.6046 0.0
Zn68 Zn 0.17191 0.3926 0.50371 0.0
O69 O 0.17459 0.4353 0.4197 0.0
C70 C 0.08801 0.39876 0.54986 0.0
O71 O 0.10509 0.42768 0.59267 0.0
O72 O 0.20966 0.34579 0.46889 0.0
C73 C 0.16207 0.4724 0.42658 0.0
O74 O 0.14612 0.48484 0.49261 0.0
C75 C 0.21594 0.44921 0.6073 0.0
O76 O 0.2368 0.45875 0.54441 0.0
O77 O 0.11132 0.37587 0.50861 0.0
C78 C 0.63792 0.23792 0.68642 0.0
O79 O 0.59821 0.24651 0.68246 0.0
O80 O 0.57475 0.18336 0.85523 0.0
Zn81 Zn 0.60228 0.1665 0.75374 0.0
O82 O 0.55945 0.16971 0.67003 0.0
C83 C 0.59592 0.0823 0.79794 0.0
O84 O 0.56695 0.09922 0.84099 0.0
O85 O 0.64916 0.20442 0.71932 0.0
C86 C 0.52226 0.1575 0.67732 0.0
O87 O 0.50987 0.14159 0.74345 0.0
C88 C 0.54581 0.21014 0.8586 0.0
O89 O 0.53656 0.23158 0.79626 0.0
O90 O 0.61896 0.10579 0.75728 0.0
C91 C 0.75487 0.63374 0.94406 0.0
O92 O 0.7454 0.59416 0.94617 0.0
O93 O 0.80914 0.56433 0.09147 0.0
Zn94 Zn 0.82831 0.59825 -0.00049 0.0
O95 O 0.82771 0.55918 0.90993 0.0
C96 C 0.9108 0.59391 0.05607 0.0
O97 O 0.89322 0.5647 0.09763 0.0
O98 O 0.78997 0.64512 0.96979 0.0
C99 C 0.83924 0.52181 0.91796 0.0
O100 O 0.85234 0.50893 0.98588 0.0
C101 C 0.79547 0.57588 0.15696 0.0
O102 O 0.78998 0.61555 0.17047 0.0
O103 O 0.88827 0.61583 0.01163 0.0
C104 C 0.42618 0.14835 0.55313 0.0
C105 C 0.4404 0.16414 0.48202 0.0
H106 H 0.44098 0.13377 0.67093 0.0
C107 C 0.48114 0.17908 0.4766 0.0
H108 H 0.3949 0.13663 0.55906 0.0
C109 C 0.50745 0.17744 0.54046 0.0
C110 C 0.49361 0.16076 0.6111 0.0
H111 H 0.49299 0.19158 0.42268 0.0
H112 H 0.53884 0.18881 0.53401 0.0
C113 C 0.45258 0.14664 0.61714 0.0
C114 C 0.85047 0.42536 0.79536 0.0
C115 C 0.83498 0.43905 0.72373 0.0
H116 H 0.86405 0.44086 0.91315 0.0
C117 C 0.82047 0.47992 0.71683 0.0
H118 H 0.86192 0.39404 0.80242 0.0
C119 C 0.82178 0.50671 0.78003 0.0
C120 C 0.83759 0.49318 0.85152 0.0
H121 H 0.80834 0.49142 0.66239 0.0
H122 H 0.81049 0.53807 0.77265 0.0
C123 C 0.85174 0.45219 0.85873 0.0
C124 C 0.54208 0.84764 0.10787 0.0
C125 C 0.50106 0.83358 0.10103 0.0
H126 H 0.60015 0.85771 0.05095 0.0
C127 C 0.48731 0.81808 0.02952 0.0
H128 H 0.55357 0.85972 0.16229 0.0
C129 C 0.51394 0.81684 0.96602 0.0
C130 C 0.55488 0.83113 0.9726 0.0
H131 H 0.45591 0.8069 0.02241 0.0
H132 H 0.50228 0.80487 0.91162 0.0
C133 C 0.56876 0.84644 0.04416 0.0
C134 C 0.18199 0.48697 0.28964 0.0
C135 C 0.16515 0.50091 0.36005 0.0
H136 H 0.19632 0.50125 0.17185 0.0
C137 C 0.1508 0.54188 0.36554 0.0
H138 H 0.19352 0.45562 0.2836 0.0
C139 C 0.15252 0.56817 0.30126 0.0
C140 C 0.16855 0.55387 0.23045 0.0
H141 H 0.13779 0.55354 0.41914 0.0
H142 H 0.14067 0.59942 0.30679 0.0
C143 C 0.18364 0.51316 0.22553 0.0
C144 C 0.28606 0.2577 0.34844 0.0
C145 C 0.32541 0.27082 0.32339 0.0
H146 H 0.22917 0.27448 0.40498 0.0
C147 C 0.33705 0.31222 0.33529 0.0
H148 H 0.27636 0.22585 0.34069 0.0
C149 C 0.31023 0.33986 0.37183 0.0
C150 C 0.27115 0.32678 0.39815 0.0
H151 H 0.36716 0.32332 0.31682 0.0
H152 H 0.32039 0.37153 0.38002 0.0
C153 C 0.25922 0.2854 0.38591 0.0
C154 C 0.68226 0.33183 0.58487 0.0
C155 C 0.72376 0.3204 0.57302 0.0
H156 H 0.62305 0.31505 0.63002 0.0
C157 C 0.73719 0.28132 0.59912 0.0
H158 H 0.67088 0.3617 0.56568 0.0
C159 C 0.70964 0.25449 0.63716 0.0
C160 C 0.66813 0.26617 0.64906 0.0
H161 H 0.76909 0.27176 0.59141 0.0
H162 H 0.72077 0.22462 0.65679 0.0
C163 C 0.65481 0.30504 0.62208 0.0
C164 C 0.73886 0.70417 0.88863 0.0
C165 C 0.72631 0.6635 0.90629 0.0
H166 H 0.72239 0.76251 0.83734 0.0
C167 C 0.68649 0.65059 0.8842 0.0
H168 H 0.76947 0.71497 0.90437 0.0
C169 C 0.6597 0.67764 0.84587 0.0
C170 C 0.67209 0.71828 0.82812 0.0
H171 H 0.67583 0.61946 0.89661 0.0
H172 H 0.62912 0.66663 0.83039 0.0
C173 C 0.71204 0.73127 0.84961 0.0
C174 C 0.26377 0.70747 0.098 0.0
C175 C 0.27672 0.66756 0.07608 0.0
H176 H 0.28014 0.76471 0.15312 0.0
C177 C 0.31749 0.65518 0.0927 0.0
H178 H 0.23242 0.71778 0.08661 0.0
C179 C 0.34466 0.6819 0.13071 0.0
C180 C 0.33169 0.72159 0.15366 0.0
H181 H 0.32844 0.62462 0.07679 0.0
H182 H 0.37586 0.67125 0.14246 0.0
C183 C 0.29096 0.73418 0.13677 0.0
C184 C 0.36798 0.97119 0.26108 0.0
C185 C 0.39825 0.95059 0.30546 0.0
H186 H 0.34663 0.02948 0.21556 0.0
C187 C 0.42919 0.97407 0.34198 0.0
H188 H 0.34369 0.95393 0.23234 0.0
C189 C 0.43124 0.01675 0.33124 0.0
C190 C 0.40202 0.03724 0.28478 0.0
H191 H 0.45292 0.95937 0.37682 0.0
H192 H 0.45617 0.03369 0.35877 0.0
C193 C 0.36965 0.01433 0.25139 0.0
C194 C 0.97907 0.367 0.48985 0.0
C195 C 0.95602 0.40127 0.51575 0.0
H196 H 0.03944 0.33929 0.47963 0.0
C197 C 0.97635 0.43301 0.55615 0.0
H198 H 0.96409 0.34203 0.45878 0.0
C199 C 0.01883 0.43108 0.56939 0.0
C200 C 0.04238 0.39768 0.54143 0.0
H201 H 0.9594 0.45957 0.57779 0.0
H202 H 0.03333 0.45653 0.59993 0.0
C203 C 0.02208 0.36543 0.50187 0.0
C204 C 0.56124 0.97078 0.8016 0.0
C205 C 0.59334 0.95041 0.76208 0.0
H206 H 0.53745 0.02771 0.84519 0.0
C207 C 0.62791 0.97341 0.73741 0.0
H208 H 0.53442 0.95388 0.8223 0.0
C209 C 0.62947 0.01639 0.74984 0.0
C210 C 0.5969 0.0367 0.78866 0.0
H211 H 0.65315 0.95839 0.70703 0.0
H212 H 0.65587 0.03371 0.72862 0.0
C213 C 0.56316 0.01321 0.8153 0.0
C214 C 0.97702 0.62655 0.00782 0.0
C215 C 0.95657 0.59605 0.05194 0.0
H216 H 0.03521 0.6482 0.96228 0.0
C217 C 0.98018 0.56489 0.0877 0.0
H218 H 0.95965 0.651 0.97966 0.0
C219 C 0.02284 0.56291 0.0766 0.0
C220 C 0.04319 0.59242 0.03054 0.0
H221 H 0.96561 0.54095 0.1223 0.0
H222 H 0.03987 0.53783 0.10362 0.0
C223 C 0.02016 0.62496 -0.0022 0.0
C224 C 0.52215 0.18281 0.98736 0.0
C225 C 0.51827 0.21203 0.92736 0.0
H226 H 0.49677 0.15805 0.09212 0.0
C227 C 0.48551 0.24076 0.93047 0.0
H228 H 0.54689 0.16013 0.98674 0.0
C229 C 0.45665 0.23956 0.99104 0.0
C230 C 0.45976 0.20945 0.04961 0.0
H231 H 0.48158 0.26369 0.88519 0.0
H232 H 0.43144 0.26172 0.99102 0.0
C233 C 0.49319 0.18147 0.04761 0.0
C234 C 0.77665 0.55655 0.29361 0.0
C235 C 0.79075 0.54482 0.21983 0.0
H236 H 0.76614 0.53835 0.41123 0.0
C237 C 0.80289 0.5034 0.20776 0.0
H238 H 0.76691 0.58809 0.30484 0.0
C239 C 0.80265 0.47488 0.26882 0.0
C240 C 0.79005 0.48702 0.34333 0.0
H241 H 0.81383 0.4932 0.15158 0.0
H242 H 0.81336 0.44361 0.25799 0.0
C243 C 0.77619 0.52794 0.35461 0.0
C244 C 0.51952 0.7958 0.51842 0.0
C245 C 0.50701 0.78429 0.59337 0.0
H246 H 0.50156 0.80625 0.40082 0.0
C247 C 0.46578 0.77152 0.60516 0.0
H248 H 0.55104 0.80563 0.50722 0.0
C249 C 0.43724 0.77209 0.54417 0.0
C250 C 0.44936 0.78518 0.46992 0.0
H251 H 0.45509 0.76232 0.66214 0.0
H252 H 0.40546 0.76329 0.55577 0.0
C253 C 0.49107 0.79611 0.45737 0.0
C254 C 0.18823 0.50113 0.79719 0.0
C255 C 0.21586 0.53483 0.79856 0.0
H256 H 0.16702 0.44736 0.73674 0.0
C257 C 0.24553 0.53833 0.73929 0.0
H258 H 0.16518 0.49725 0.84225 0.0
C259 C 0.24658 0.5096 0.6786 0.0
C260 C 0.21815 0.4766 0.6761 0.0
H261 H 0.2674 0.56377 0.73879 0.0
H262 H 0.26911 0.51383 0.63273 0.0
C263 C 0.18945 0.47231 0.73685 0.0
loop_
_geom_bond_atom_site_label_1
_geom_bond_atom_site_label_2
_geom_bond_distance
_geom_bond_site_symmetry_2
_ccdc_geom_bond_type
C0 O1 1.160 . S
C0 O7 1.185 . S
O1 C0 1.160 . S
O2 Zn3 1.899 . S
O2 C10 1.284 . S
Zn3 O2 1.899 . S
Zn3 O4 2.032 . S
Zn3 O7 2.086 . S
Zn3 O12 1.977 . S
O4 Zn3 2.032 . S
O4 C8 1.278 . S
C5 O6 1.203 . S
C5 O12 1.267 . S
O6 C5 1.203 . S
O7 C0 1.185 . S
O7 Zn3 2.086 . S
C8 O4 1.278 . S
C8 O9 1.211 . S
O9 C8 1.211 . S
C10 O2 1.284 . S
C10 O11 1.273 . S
O11 C10 1.273 . S
O12 Zn3 1.977 . S
O12 C5 1.267 . S
C13 O14 1.160 . S
C13 O20 1.185 . S
O14 C13 1.160 . S
O15 Zn16 1.899 . S
O15 C23 1.284 . S
Zn16 O15 1.899 . S
Zn16 O17 2.032 . S
Zn16 O20 2.086 . S
Zn16 O25 1.977 . S
O17 Zn16 2.032 . S
O17 C21 1.278 . S
C18 O19 1.203 . S
C18 O25 1.267 . S
O19 C18 1.203 . S
O20 C13 1.185 . S
O20 Zn16 2.086 . S
C21 O17 1.278 . S
C21 O22 1.211 . S
O22 C21 1.211 . S
C23 O15 1.284 . S
C23 O24 1.273 . S
O24 C23 1.273 . S
O25 Zn16 1.977 . S
O25 C18 1.267 . S
C26 O27 1.160 . S
C26 O33 1.185 . S
O27 C26 1.160 . S
O28 Zn29 1.899 . S
O28 C36 1.284 . S
Zn29 O28 1.899 . S
Zn29 O30 2.032 . S
Zn29 O33 2.086 . S
Zn29 O38 1.977 . S
O30 Zn29 2.032 . S
O30 C34 1.278 . S
C31 O32 1.203 . S
C31 O38 1.267 . S
O32 C31 1.203 . S
O33 C26 1.185 . S
O33 Zn29 2.086 . S
C34 O30 1.278 . S
C34 O35 1.211 . S
O35 C34 1.211 . S
C36 O28 1.284 . S
C36 O37 1.273 . S
O37 C36 1.273 . S
O38 Zn29 1.977 . S
O38 C31 1.267 . S
C39 O40 1.160 . S
C39 O46 1.185 . S
O40 C39 1.160 . S
O41 Zn42 1.899 1_556 S
O41 C49 1.284 . S
Zn42 O41 1.899 1_554 S
Zn42 O43 2.032 . S
Zn42 O46 2.086 . S
Zn42 O51 1.977 . S
O43 Zn42 2.032 . S
O43 C47 1.278 . S
C44 O45 1.203 1_554 S
C44 O51 1.267 . S
O45 C44 1.203 1_556 S
O46 C39 1.185 . S
O46 Zn42 2.086 . S
C47 O43 1.278 . S
C47 O48 1.211 . S
O48 C47 1.211 . S
C49 O41 1.284 . S
C49 O50 1.273 . S
O50 C49 1.273 . S
O51 Zn42 1.977 . S
O51 C44 1.267 . S
C52 O53 1.160 . S
C52 O59 1.185 . S
O53 C52 1.160 . S
O54 Zn55 1.899 . S
O54 C62 1.284 . S
Zn55 O54 1.899 . S
Zn55 O56 2.032 . S
Zn55 O59 2.086 . S
Zn55 O64 1.977 . S
O56 Zn55 2.032 . S
O56 C60 1.278 . S
C57 O58 1.203 . S
C57 O64 1.267 . S
O58 C57 1.203 . S
O59 C52 1.185 . S
O59 Zn55 2.086 . S
C60 O56 1.278 . S
C60 O61 1.211 . S
O61 C60 1.211 . S
C62 O54 1.284 . S
C62 O63 1.273 . S
O63 C62 1.273 . S
O64 Zn55 1.977 . S
O64 C57 1.267 . S
C65 O66 1.160 . S
C65 O72 1.185 . S
O66 C65 1.160 . S
O67 Zn68 1.899 . S
O67 C75 1.284 . S
Zn68 O67 1.899 . S
Zn68 O69 2.032 . S
Zn68 O72 2.086 . S
Zn68 O77 1.977 . S
O69 Zn68 2.032 . S
O69 C73 1.278 . S
C70 O71 1.203 . S
C70 O77 1.267 . S
O71 C70 1.203 . S
O72 C65 1.185 . S
O72 Zn68 2.086 . S
C73 O69 1.278 . S
C73 O74 1.211 . S
O74 C73 1.211 . S
C75 O67 1.284 . S
C75 O76 1.273 . S
O76 C75 1.273 . S
O77 Zn68 1.977 . S
O77 C70 1.267 . S
C78 O79 1.160 . S
C78 O85 1.185 . S
O79 C78 1.160 . S
O80 Zn81 1.899 . S
O80 C88 1.284 . S
Zn81 O80 1.899 . S
Zn81 O82 2.032 . S
Zn81 O85 2.086 . S
Zn81 O90 1.977 . S
O82 Zn81 2.032 . S
O82 C86 1.278 . S
C83 O84 1.203 . S
C83 O90 1.267 . S
O84 C83 1.203 . S
O85 C78 1.185 . S
O85 Zn81 2.086 . S
C86 O82 1.278 . S
C86 O87 1.211 . S
O87 C86 1.211 . S
C88 O80 1.284 . S
C88 O89 1.273 . S
O89 C88 1.273 . S
O90 Zn81 1.977 . S
O90 C83 1.267 . S
C91 O92 1.160 1_556 S
C91 O98 1.185 . S
O92 C91 1.160 1_554 S
O93 Zn94 1.899 . S
O93 C101 1.284 . S
Zn94 O93 1.899 . S
Zn94 O95 2.032 1_554 S
Zn94 O98 2.086 1_554 S
Zn94 O103 1.977 . S
O95 Zn94 2.032 1_556 S
O95 C99 1.278 . S
C96 O97 1.203 . S
C96 O103 1.267 . S
O97 C96 1.203 . S
O98 C91 1.185 . S
O98 Zn94 2.086 1_556 S
C99 O95 1.278 . S
C99 O100 1.211 . S
O100 C99 1.211 . S
C101 O93 1.284 . S
C101 O102 1.273 . S
O102 C101 1.273 . S
O103 Zn94 1.977 . S
O103 C96 1.267 . S
C104 C105 1.387 . S
C104 H108 0.950 . S
C104 C113 1.390 . S
C105 C104 1.387 . S
C105 C107 1.387 . S
H106 C113 0.950 . S
C107 C105 1.387 . S
C107 C109 1.390 . S
C107 H111 0.950 . S
H108 C104 0.950 . S
C109 C107 1.390 . S
C109 C110 1.387 . S
C109 H112 0.950 . S
C110 C109 1.387 . S
C110 C113 1.387 . S
H111 C107 0.950 . S
H112 C109 0.950 . S
C113 C104 1.390 . S
C113 H106 0.950 . S
C113 C110 1.387 . S
C114 C115 1.387 . S
C114 H118 0.950 . S
C114 C123 1.390 . S
C115 C114 1.387 . S
C115 C117 1.387 . S
H116 C123 0.950 . S
C117 C115 1.387 . S
C117 C119 1.390 . S
C117 H121 0.950 . S
H118 C114 0.950 . S
C119 C117 1.390 . S
C119 C120 1.387 . S
C119 H122 0.950 . S
C120 C119 1.387 . S
C120 C123 1.387 . S
H121 C117 0.950 . S
H122 C119 0.950 . S
C123 C114 1.390 . S
C123 H116 0.950 . S
C123 C120 1.387 . S
C124 C125 1.387 . S
C124 H128 0.950 . S
C124 C133 1.390 1_554 S
C125 C124 1.387 . S
C125 C127 1.387 . S
H126 C133 0.950 . S
C127 C125 1.387 . S
C127 C129 1.390 1_554 S
C127 H131 0.950 . S
H128 C124 0.950 . S
C129 C127 1.390 1_556 S
C129 C130 1.387 . S
C129 H132 0.950 . S
C130 C129 1.387 . S
C130 C133 1.387 . S
H131 C127 0.950 . S
H132 C129 0.950 . S
C133 C124 1.390 1_556 S
C133 H126 0.950 . S
C133 C130 1.387 . S
C134 C135 1.387 . S
C134 H138 0.950 . S
C134 C143 1.390 . S
C135 C134 1.387 . S
C135 C137 1.387 . S
H136 C143 0.950 . S
C137 C135 1.387 . S
C137 C139 1.390 . S
C137 H141 0.950 . S
H138 C134 0.950 . S
C139 C137 1.390 . S
C139 C140 1.387 . S
C139 H142 0.950 . S
C140 C139 1.387 . S
C140 C143 1.387 . S
H141 C137 0.950 . S
H142 C139 0.950 . S
C143 C134 1.390 . S
C143 H136 0.950 . S
C143 C140 1.387 . S
C144 C145 1.387 . S
C144 H148 0.950 . S
C144 C153 1.390 . S
C145 C144 1.387 . S
C145 C147 1.387 . S
H146 C153 0.950 . S
C147 C145 1.387 . S
C147 C149 1.390 . S
C147 H151 0.950 . S
H148 C144 0.950 . S
C149 C147 1.390 . S
C149 C150 1.387 . S
C149 H152 0.950 . S
C150 C149 1.387 . S
C150 C153 1.387 . S
H151 C147 0.950 . S
H152 C149 0.950 . S
C153 C144 1.390 . S
C153 H146 0.950 . S
C153 C150 1.387 . S
C154 C155 1.387 . S
C154 H158 0.950 . S
C154 C163 1.390 . S
C155 C154 1.387 . S
C155 C157 1.387 . S
H156 C163 0.950 . S
C157 C155 1.387 . S
C157 C159 1.390 . S
C157 H161 0.950 . S
H158 C154 0.950 . S
C159 C157 1.390 . S
C159 C160 1.387 . S
C159 H162 0.950 . S
C160 C159 1.387 . S
C160 C163 1.387 . S
H161 C157 0.950 . S
H162 C159 0.950 . S
C163 C154 1.390 . S
C163 H156 0.950 . S
C163 C160 1.387 . S
C164 C165 1.387 . S
C164 H168 0.950 1_556 S
C164 C173 1.390 . S
C165 C164 1.387 . S
C165 C167 1.387 . S
H166 C173 0.950 . S
C167 C165 1.387 . S
C167 C169 1.390 . S
C167 H171 0.950 . S
H168 C164 0.950 1_554 S
C169 C167 1.390 . S
C169 C170 1.387 . S
C169 H172 0.950 . S
C170 C169 1.387 . S
C170 C173 1.387 . S
H171 C167 0.950 . S
H172 C169 0.950 . S
C173 C164 1.390 . S
C173 H166 0.950 . S
C173 C170 1.387 . S
C174 C175 1.387 . S
C174 H178 0.950 . S
C174 C183 1.390 . S
C175 C174 1.387 . S
C175 C177 1.387 . S
H176 C183 0.950 . S
C177 C175 1.387 . S
C177 C179 1.390 . S
C177 H181 0.950 . S
H178 C174 0.950 . S
C179 C177 1.390 . S
C179 C180 1.387 . S
C179 H182 0.950 . S
C180 C179 1.387 . S
C180 C183 1.387 . S
H181 C177 0.950 . S
H182 C179 0.950 . S
C183 C174 1.390 . S
C183 H176 0.950 . S
C183 C180 1.387 . S
C184 C185 1.387 . S
C184 H188 0.950 . S
C184 C193 1.390 1_565 S
C185 C184 1.387 . S
C185 C187 1.387 . S
H186 C193 0.950 . S
C187 C185 1.387 . S
C187 C189 1.390 1_565 S
C187 H191 0.950 . S
H188 C184 0.950 . S
C189 C187 1.390 1_545 S
C189 C190 1.387 . S
C189 H192 0.950 . S
C190 C189 1.387 . S
C190 C193 1.387 . S
H191 C187 0.950 . S
H192 C189 0.950 . S
C193 C184 1.390 1_545 S
C193 H186 0.950 . S
C193 C190 1.387 . S
C194 C195 1.387 . S
C194 H198 0.950 . S
C194 C203 1.390 1_655 S
C195 C194 1.387 . S
C195 C197 1.387 . S
H196 C203 0.950 . S
C197 C195 1.387 . S
C197 C199 1.390 1_655 S
C197 H201 0.950 . S
H198 C194 0.950 . S
C199 C197 1.390 1_455 S
C199 C200 1.387 . S
C199 H202 0.950 . S
C200 C199 1.387 . S
C200 C203 1.387 . S
H201 C197 0.950 . S
H202 C199 0.950 . S
C203 C194 1.390 1_455 S
C203 H196 0.950 . S
C203 C200 1.387 . S
C204 C205 1.387 . S
C204 H208 0.950 . S
C204 C213 1.390 1_565 S
C205 C204 1.387 . S
C205 C207 1.387 . S
H206 C213 0.950 . S
C207 C205 1.387 . S
C207 C209 1.390 1_565 S
C207 H211 0.950 . S
H208 C204 0.950 . S
C209 C207 1.390 1_545 S
C209 C210 1.387 . S
C209 H212 0.950 . S
C210 C209 1.387 . S
C210 C213 1.387 . S
H211 C207 0.950 . S
H212 C209 0.950 . S
C213 C204 1.390 1_545 S
C213 H206 0.950 . S
C213 C210 1.387 . S
C214 C215 1.387 . S
C214 H218 0.950 . S
C214 C223 1.390 1_655 S
C215 C214 1.387 . S
C215 C217 1.387 . S
H216 C223 0.950 . S
C217 C215 1.387 . S
C217 C219 1.390 1_655 S
C217 H221 0.950 . S
H218 C214 0.950 . S
C219 C217 1.390 1_455 S
C219 C220 1.387 . S
C219 H222 0.950 . S
C220 C219 1.387 . S
C220 C223 1.387 . S
H221 C217 0.950 . S
H222 C219 0.950 . S
C223 C214 1.390 1_455 S
C223 H216 0.950 . S
C223 C220 1.387 . S
C224 C225 1.387 . S
C224 H228 0.950 . S
C224 C233 1.390 1_556 S
C225 C224 1.387 . S
C225 C227 1.387 . S
H226 C233 0.950 . S
C227 C225 1.387 . S
C227 C229 1.390 1_556 S
C227 H231 0.950 . S
H228 C224 0.950 . S
C229 C227 1.390 1_554 S
C229 C230 1.387 . S
C229 H232 0.950 . S
C230 C229 1.387 . S
C230 C233 1.387 . S
H231 C227 0.950 . S
H232 C229 0.950 . S
C233 C224 1.390 1_554 S
C233 H226 0.950 . S
C233 C230 1.387 . S
C234 C235 1.387 . S
C234 H238 0.950 . S
C234 C243 1.390 . S
C235 C234 1.387 . S
C235 C237 1.387 . S
H236 C243 0.950 . S
C237 C235 1.387 . S
C237 C239 1.390 . S
C237 H241 0.950 . S
H238 C234 0.950 . S
C239 C237 1.390 . S
C239 C240 1.387 . S
C239 H242 0.950 . S
C240 C239 1.387 . S
C240 C243 1.387 . S
H241 C237 0.950 . S
H242 C239 0.950 . S
C243 C234 1.390 . S
C243 H236 0.950 . S
C243 C240 1.387 . S
C244 C245 1.387 . S
C244 H248 0.950 . S
C244 C253 1.390 . S
C245 C244 1.387 . S
C245 C247 1.387 . S
H246 C253 0.950 . S
C247 C245 1.387 . S
C247 C249 1.390 . S
C247 H251 0.950 . S
H248 C244 0.950 . S
C249 C247 1.390 . S
C249 C250 1.387 . S
C249 H252 0.950 . S
C250 C249 1.387 . S
C250 C253 1.387 . S
H251 C247 0.950 . S
H252 C249 0.950 . S
C253 C244 1.390 . S
C253 H246 0.950 . S
C253 C250 1.387 . S
C254 C255 1.387 . S
C254 H258 0.950 . S
C254 C263 1.390 . S
C255 C254 1.387 . S
C255 C257 1.387 . S
H256 C263 0.950 . S
C257 C255 1.387 . S
C257 C259 1.390 . S
C257 H261 0.950 . S
H258 C254 0.950 . S
C259 C257 1.390 . S
C259 C260 1.387 . S
C259 H262 0.950 . S
C260 C259 1.387 . S
C260 C263 1.387 . S
H261 C257 0.950 . S
H262 C259 0.950 . S
C263 C254 1.390 . S
C263 H256 0.950 . S
C263 C260 1.387 . S
C105 C8 1.146 . S
C110 C86 1.146 . S
C115 C21 1.146 . S
C120 C99 1.146 . S
C125 C60 1.146 . S
C130 C34 1.146 . S
C135 C73 1.147 . S
C140 C47 1.147 . S
C145 C0 1.437 . S
C150 C65 1.438 . S
C155 C13 1.438 . S
C160 C78 1.437 . S
C165 C91 1.437 . S
C170 C26 1.438 . S
C175 C39 1.438 . S
C180 C52 1.438 . S
C185 C57 1.385 . S
C190 C5 1.385 . S
C195 C18 1.385 . S
C200 C70 1.385 . S
C205 C31 1.385 . S
C210 C83 1.385 . S
C215 C96 1.385 . S
C220 C44 1.385 . S
C225 C88 1.501 . S
C230 C10 1.501 . S
C235 C101 1.504 . S
C240 C23 1.504 . S
C245 C36 1.501 . S
C250 C62 1.501 . S
C255 C49 1.501 . S
C260 C75 1.501 . S
