# Generated by pormake.
# Topology umj, (4)-cn, num edge types: 1
# Building blocks:
#     Node 0, Type 0, BuildingBlock: QUQFOY_clean_sbu_1, # of connection points: 4
#     Node 1, Type 0, BuildingBlock: QUQFOY_clean_sbu_1, # of connection points: 4
#     Node 2, Type 0, BuildingBlock: QUQFOY_clean_sbu_1, # of connection points: 4
#     Node 3, Type 0, BuildingBlock: QUQFOY_clean_sbu_1, # of connection points: 4
#     Node 4, Type 0, BuildingBlock: QUQFOY_clean_sbu_1, # of connection points: 4
#     Node 5, Type 0, BuildingBlock: QUQFOY_clean_sbu_1, # of connection points: 4
#     Node 6, Type 0, BuildingBlock: QUQFOY_clean_sbu_1, # of connection points: 4
#     Node 7, Type 0, BuildingBlock: QUQFOY_clean_sbu_1, # of connection points: 4
#     Node 8, Type 0, BuildingBlock: QUQFOY_clean_sbu_1, # of connection points: 4
#     Node 9, Type 0, BuildingBlock: QUQFOY_clean_sbu_1, # of connection points: 4
#     Node 10, Type 0, BuildingBlock: QUQFOY_clean_sbu_1, # of connection points: 4
#     Node 11, Type 0, BuildingBlock: QUQFOY_clean_sbu_1, # of connection points: 4
#     Edge 12, Type (0, 0), None
#     Edge 13, Type (0, 0), None
#     Edge 14, Type (0, 0), None
#     Edge 15, Type (0, 0), None
#     Edge 16, Type (0, 0), None
#     Edge 17, Type (0, 0), None
#     Edge 18, Type (0, 0), None
#     Edge 19, Type (0, 0), None
#     Edge 20, Type (0, 0), None
#     Edge 21, Type (0, 0), None
#     Edge 22, Type (0, 0), None
#     Edge 23, Type (0, 0), None
#     Edge 24, Type (0, 0), None
#     Edge 25, Type (0, 0), None
#     Edge 26, Type (0, 0), None
#     Edge 27, Type (0, 0), None
#     Edge 28, Type (0, 0), None
#     Edge 29, Type (0, 0), None
#     Edge 30, Type (0, 0), None
#     Edge 31, Type (0, 0), None
#     Edge 32, Type (0, 0), None
#     Edge 33, Type (0, 0), None
#     Edge 34, Type (0, 0), None
#     Edge 35, Type (0, 0), None
# Relax obj value: 0.087
# Max RMSD: 0.432
# Mean RMSD: 0.267
data_MOF--net-umj--node1-QUQFOY_clean_sbu_1--edge1-none
_symmetry_space_group_name_H-M    P1
_symmetry_Int_Tables_number       1
_symmetry_cell_setting            triclinic
loop_
_symmetry_equiv_pos_as_xyz
'x, y, z'
_cell_length_a     13.328647
_cell_length_b     13.328668
_cell_length_c     37.871433
_cell_angle_alpha  89.349122
_cell_angle_beta   90.646019
_cell_angle_gamma 119.98653
loop_
_atom_site_label
_atom_site_type_symbol
_atom_site_fract_x
_atom_site_fract_y
_atom_site_fract_z
_atom_type_partial_charge
O0 O 0.9662 0.26924 0.16178 0.0
Cd1 Cd 0.99558 0.29475 0.11064 0.0
Cd2 Cd 0.19641 0.33831 0.10852 0.0
O3 O 0.15826 0.36714 0.16236 0.0
O4 O 0.94057 0.40069 0.08957 0.0
O5 O 0.11978 0.46763 0.10877 0.0
C6 C 1.04264 0.4883 0.09596 0.0
C7 C 0.22834 0.41334 0.04977 0.0
C8 C 0.06053 0.32137 0.17875 0.0
C9 C 0.06959 0.10842 0.09472 0.0
O10 O 0.16989 0.17869 0.10618 0.0
O11 O 0.99412 0.14128 0.09044 0.0
O12 O 0.31399 0.44242 0.07164 0.0
O13 O 0.12564 0.34932 0.06156 0.0
O14 O 0.7488 0.95486 0.49506 0.0
Cd15 Cd 0.75423 0.98743 0.44402 0.0
Cd16 Cd 0.91155 0.18886 0.44219 0.0
O17 O 0.84311 0.14693 0.49594 0.0
O18 O 0.5941 0.93381 0.42274 0.0
O19 O 0.70531 0.11157 0.4425 0.0
C20 C 0.60813 0.03534 0.4294 0.0
C21 C 0.86806 0.22307 0.38364 0.0
C22 C 0.79061 0.04819 0.51216 0.0
C23 C 1.01549 0.06335 0.42811 0.0
O24 O 1.04514 0.16312 0.4396 0.0
O25 O 0.9073 0.98789 0.42388 0.0
O26 O 0.92393 0.30786 0.40549 0.0
O27 O 0.83076 0.12002 0.39529 0.0
O28 O 0.8303 0.72422 0.82955 0.0
Cd29 Cd 0.80621 0.72975 0.77823 0.0
Cd30 Cd 0.76235 0.88713 0.77507 0.0
O31 O 0.73256 0.81865 0.829 0.0
O32 O 0.70134 0.57 0.75709 0.0
O33 O 0.63319 0.68056 0.77581 0.0
C34 C 0.6133 0.5838 0.763 0.0
C35 C 0.68722 0.84451 0.7165 0.0
C36 C 0.77784 0.76616 0.84595 0.0
C37 C 0.99234 0.99091 0.76152 0.0
O38 O 0.92183 1.02063 0.7725 0.0
O39 O 0.95974 0.88269 0.75786 0.0
O40 O 0.65748 0.90021 0.73794 0.0
O41 O 0.75227 0.80675 0.72862 0.0
O42 O 0.14827 0.8258 0.16247 0.0
Cd43 Cd 0.11343 0.80058 0.11149 0.0
Cd44 Cd 0.91114 0.7555 0.11004 0.0
O45 O 0.95617 0.72912 0.16372 0.0
O46 O 0.16617 0.69585 0.08929 0.0
O47 O 0.99013 0.62738 0.11061 0.0
C48 C 0.06533 0.6077 0.09646 0.0
C49 C 0.87572 0.6766 0.05217 0.0
C50 C 0.05519 0.77435 0.17976 0.0
C51 C 1.0344 0.98493 0.09493 0.0
O52 O 0.93472 0.9142 0.10653 0.0
O53 O 0.11034 0.95288 0.09108 0.0
O54 O 0.79157 0.6463 0.07426 0.0
O55 O 0.9788 0.74525 0.06316 0.0
O56 O 0.3741 0.13671 0.49598 0.0
Cd57 Cd 0.36612 0.10514 0.44489 0.0
Cd58 Cd 0.20913 0.90347 0.44312 0.0
O59 O 0.27899 0.94459 0.49691 0.0
O60 O 0.52443 0.15939 0.42292 0.0
O61 O 0.41585 0.98174 0.44365 0.0
C62 C 0.51138 0.05799 0.42981 0.0
C63 C 0.25232 0.87037 0.38503 0.0
C64 C 0.33216 0.04261 0.51313 0.0
C65 C 0.10378 1.02813 0.4283 0.0
O66 O 0.07453 0.92791 0.43986 0.0
O67 O 0.21186 0.10407 0.4244 0.0
O68 O 0.19776 0.78531 0.40712 0.0
O69 O 0.28808 0.97316 0.39618 0.0
O70 O 0.2738 0.34976 0.82812 0.0
Cd71 Cd 0.30036 0.34174 0.77736 0.0
Cd72 Cd 0.34521 0.18467 0.77692 0.0
O73 O 0.37071 0.25456 0.83048 0.0
O74 O 0.40612 0.50043 0.75523 0.0
O75 O 0.47347 0.39104 0.77701 0.0
C76 C 0.49389 0.48706 0.76287 0.0
C77 C 0.42398 0.2287 0.71887 0.0
C78 C 0.32498 0.30785 0.84596 0.0
C79 C 0.11583 0.0792 0.76163 0.0
O80 O 0.18644 0.04998 0.77367 0.0
O81 O 0.14804 0.18726 0.75717 0.0
O82 O 0.45373 0.17398 0.74136 0.0
O83 O 0.35625 0.26401 0.72956 0.0
O84 O 0.83937 0.13466 0.56815 0.0
Cd85 Cd 0.81415 0.09983 0.61913 0.0
Cd86 Cd 0.76908 0.89755 0.62059 0.0
O87 O 0.7427 0.94256 0.56691 0.0
O88 O 0.7094 0.15255 0.64133 0.0
O89 O 0.64095 0.97652 0.62003 0.0
C90 C 0.62125 0.05171 0.63417 0.0
C91 C 0.69021 0.86211 0.67845 0.0
C92 C 0.78792 0.04158 0.55086 0.0
C93 C 0.99853 1.02083 0.63568 0.0
O94 O 0.92779 0.92116 0.62409 0.0
O95 O 0.96646 0.09676 0.63954 0.0
O96 O 0.6599 0.77794 0.65637 0.0
O97 O 0.75883 0.96521 0.66747 0.0
O98 O 0.73783 0.8167 0.90108 0.0
Cd99 Cd 0.74334 0.7926 0.9524 0.0
Cd100 Cd 0.90072 0.74874 0.95556 0.0
O101 O 0.83225 0.71896 0.90163 0.0
O102 O 0.58357 0.68772 0.97353 0.0
O103 O 0.69415 0.61958 0.95483 0.0
C104 C 0.59738 0.59969 0.96763 0.0
C105 C 0.85813 0.67363 1.01412 0.0
C106 C 0.77977 0.76423 0.88468 0.0
C107 C 1.00449 0.97874 0.9691 0.0
O108 O 1.03421 0.90824 0.95812 0.0
O109 O 0.89627 0.94613 0.97277 0.0
O110 O 0.91385 0.64388 0.99269 0.0
O111 O 0.82032 0.73866 1.00201 0.0
O112 O 0.96846 0.73522 0.23557 0.0
Cd113 Cd 1.00103 0.74065 0.2866 0.0
Cd114 Cd 0.20245 0.89796 0.28843 0.0
O115 O 0.16053 0.82954 0.23468 0.0
O116 O 0.9474 0.58051 0.30789 0.0
O117 O 0.12516 0.69173 0.28812 0.0
C118 C 0.04893 0.59454 0.30123 0.0
C119 C 0.23667 0.85451 0.34697 0.0
C120 C 0.0618 0.77703 0.21847 0.0
C121 C 0.07693 1.0019 0.30251 0.0
O122 O 0.1767 1.03155 0.29102 0.0
O123 O 1.00148 0.89371 0.30675 0.0
O124 O 0.32148 0.91038 0.32513 0.0
O125 O 0.1336 0.81716 0.33533 0.0
O126 O 0.28282 0.9526 0.56885 0.0
Cd127 Cd 0.30833 0.98198 0.61999 0.0
Cd128 Cd 0.3519 0.18283 0.6221 0.0
O129 O 0.38071 0.14467 0.56826 0.0
O130 O 0.41424 0.92696 0.64106 0.0
O131 O 0.4812 0.10618 0.62185 0.0
C132 C 0.50184 1.02901 0.63466 0.0
C133 C 0.42691 0.21476 0.68083 0.0
C134 C 0.33495 0.04694 0.55187 0.0
C135 C 0.12202 0.05603 0.63591 0.0
O136 O 0.19229 0.15633 0.62444 0.0
O137 O 0.15485 0.98054 0.64019 0.0
O138 O 0.45602 0.30043 0.65897 0.0
O139 O 0.36289 0.11204 0.66907 0.0
O140 O 0.36338 0.26021 0.9025 0.0
Cd141 Cd 0.35533 0.28675 0.95326 0.0
Cd142 Cd 0.19826 0.33161 0.9537 0.0
O143 O 0.26815 0.3571 0.90014 0.0
O144 O 0.514 0.3925 0.97539 0.0
O145 O 0.40464 0.45986 0.95361 0.0
C146 C 0.50064 0.48027 0.96775 0.0
C147 C 0.24226 0.41036 1.01174 0.0
C148 C 0.32146 0.31138 0.88466 0.0
C149 C 0.09277 0.10223 0.96899 0.0
O150 O 0.06356 0.17284 0.95695 0.0
O151 O 0.20084 0.13443 0.97345 0.0
O152 O 0.18756 0.44015 0.98925 0.0
O153 O 0.27759 0.34263 1.00106 0.0
O154 O 0.15031 0.36053 0.23463 0.0
Cd155 Cd 0.11874 0.35254 0.28573 0.0
Cd156 Cd 0.91705 0.19555 0.28751 0.0
O157 O 0.95819 0.26541 0.23372 0.0
O158 O 0.17298 0.51084 0.3077 0.0
O159 O 0.99534 0.40227 0.28697 0.0
C160 C 0.07158 0.4978 0.30081 0.0
C161 C 0.88394 0.23871 0.34558 0.0
C162 C 0.0562 0.31859 0.21749 0.0
C163 C 1.04171 0.09019 0.30233 0.0
O164 O 0.94149 0.06094 0.29077 0.0
O165 O 0.11766 0.19826 0.30622 0.0
O166 O 0.79886 0.18416 0.3235 0.0
O167 O 0.98675 0.27449 0.33444 0.0
loop_
_geom_bond_atom_site_label_1
_geom_bond_atom_site_label_2
_geom_bond_distance
_geom_bond_site_symmetry_2
_ccdc_geom_bond_type
O0 Cd1 2.223 . S
O0 C8 1.315 1_655 S
Cd1 O0 2.223 . S
Cd1 O4 2.297 . S
Cd1 O5 2.439 . S
Cd1 O11 2.240 . S
Cd2 O3 2.240 . S
Cd2 O10 2.223 . S
Cd2 O12 2.297 . S
Cd2 O13 2.439 . S
O3 Cd2 2.240 . S
O3 C8 1.279 . S
O4 Cd1 2.297 . S
O4 C6 1.247 . S
O5 Cd1 2.439 . S
O5 C6 1.208 . S
C6 O4 1.247 . S
C6 O5 1.208 . S
C7 O12 1.247 . S
C7 O13 1.208 . S
C8 O0 1.315 1_455 S
C8 O3 1.279 . S
C9 O10 1.315 1_655 S
C9 O11 1.279 . S
O10 Cd2 2.223 . S
O10 C9 1.315 1_455 S
O11 Cd1 2.240 . S
O11 C9 1.279 . S
O12 Cd2 2.297 . S
O12 C7 1.247 . S
O13 Cd2 2.439 . S
O13 C7 1.208 . S
O14 Cd15 2.223 . S
O14 C22 1.315 1_565 S
Cd15 O14 2.223 . S
Cd15 O18 2.297 . S
Cd15 O19 2.439 1_565 S
Cd15 O25 2.240 1_565 S
Cd16 O17 2.240 1_455 S
Cd16 O24 2.223 . S
Cd16 O26 2.297 . S
Cd16 O27 2.439 1_455 S
O17 Cd16 2.240 1_655 S
O17 C22 1.279 . S
O18 Cd15 2.297 . S
O18 C20 1.247 . S
O19 Cd15 2.439 1_545 S
O19 C20 1.208 1_545 S
C20 O18 1.247 . S
C20 O19 1.208 1_565 S
C21 O26 1.247 . S
C21 O27 1.208 1_455 S
C22 O14 1.315 1_545 S
C22 O17 1.279 . S
C23 O24 1.315 . S
C23 O25 1.279 1_455 S
O24 Cd16 2.223 . S
O24 C23 1.315 . S
O25 Cd15 2.240 1_545 S
O25 C23 1.279 1_655 S
O26 Cd16 2.297 . S
O26 C21 1.247 . S
O27 Cd16 2.439 1_655 S
O27 C21 1.208 1_655 S
O28 Cd29 2.223 . S
O28 C36 1.315 . S
Cd29 O28 2.223 . S
Cd29 O32 2.297 . S
Cd29 O33 2.439 . S
Cd29 O39 2.240 . S
Cd30 O31 2.240 . S
Cd30 O38 2.223 . S
Cd30 O40 2.297 . S
Cd30 O41 2.439 . S
O31 Cd30 2.240 . S
O31 C36 1.279 . S
O32 Cd29 2.297 . S
O32 C34 1.247 . S
O33 Cd29 2.439 . S
O33 C34 1.208 . S
C34 O32 1.247 . S
C34 O33 1.208 . S
C35 O40 1.247 . S
C35 O41 1.208 . S
C36 O28 1.315 . S
C36 O31 1.279 . S
C37 O38 1.315 1_455 S
C37 O39 1.279 1_455 S
O38 Cd30 2.223 . S
O38 C37 1.315 1_655 S
O39 Cd29 2.240 . S
O39 C37 1.279 1_655 S
O40 Cd30 2.297 . S
O40 C35 1.247 . S
O41 Cd30 2.439 . S
O41 C35 1.208 . S
O42 Cd43 2.223 1_655 S
O42 C50 1.315 . S
Cd43 O42 2.223 1_455 S
Cd43 O46 2.297 . S
Cd43 O47 2.439 1_455 S
Cd43 O53 2.240 1_455 S
Cd44 O45 2.240 . S
Cd44 O52 2.223 . S
Cd44 O54 2.297 . S
Cd44 O55 2.439 . S
O45 Cd44 2.240 . S
O45 C50 1.279 . S
O46 Cd43 2.297 . S
O46 C48 1.247 1_455 S
O47 Cd43 2.439 1_655 S
O47 C48 1.208 . S
C48 O46 1.247 1_655 S
C48 O47 1.208 . S
C49 O54 1.247 . S
C49 O55 1.208 . S
C50 O42 1.315 . S
C50 O45 1.279 . S
C51 O52 1.315 . S
C51 O53 1.279 . S
O52 Cd44 2.223 . S
O52 C51 1.315 . S
O53 Cd43 2.240 1_655 S
O53 C51 1.279 . S
O54 Cd44 2.297 . S
O54 C49 1.247 . S
O55 Cd44 2.439 . S
O55 C49 1.208 . S
O56 Cd57 2.223 . S
O56 C64 1.315 1_545 S
Cd57 O56 2.223 . S
Cd57 O60 2.297 . S
Cd57 O61 2.439 . S
Cd57 O67 2.240 . S
Cd58 O59 2.240 . S
Cd58 O66 2.223 . S
Cd58 O68 2.297 . S
Cd58 O69 2.439 . S
O59 Cd58 2.240 . S
O59 C64 1.279 . S
O60 Cd57 2.297 . S
O60 C62 1.247 . S
O61 Cd57 2.439 . S
O61 C62 1.208 . S
C62 O60 1.247 . S
C62 O61 1.208 . S
C63 O68 1.247 . S
C63 O69 1.208 . S
C64 O56 1.315 1_565 S
C64 O59 1.279 . S
C65 O66 1.315 1_545 S
C65 O67 1.279 . S
O66 Cd58 2.223 . S
O66 C65 1.315 1_565 S
O67 Cd57 2.240 . S
O67 C65 1.279 . S
O68 Cd58 2.297 . S
O68 C63 1.247 . S
O69 Cd58 2.439 . S
O69 C63 1.208 . S
O70 Cd71 2.223 . S
O70 C78 1.315 . S
Cd71 O70 2.223 . S
Cd71 O74 2.297 . S
Cd71 O75 2.439 . S
Cd71 O81 2.240 . S
Cd72 O73 2.240 1_565 S
Cd72 O80 2.223 . S
Cd72 O82 2.297 . S
Cd72 O83 2.439 1_565 S
O73 Cd72 2.240 1_545 S
O73 C78 1.279 . S
O74 Cd71 2.297 . S
O74 C76 1.247 . S
O75 Cd71 2.439 . S
O75 C76 1.208 . S
C76 O74 1.247 . S
C76 O75 1.208 . S
C77 O82 1.247 . S
C77 O83 1.208 1_565 S
C78 O70 1.315 . S
C78 O73 1.279 . S
C79 O80 1.315 . S
C79 O81 1.279 1_565 S
O80 Cd72 2.223 . S
O80 C79 1.315 . S
O81 Cd71 2.240 . S
O81 C79 1.279 1_545 S
O82 Cd72 2.297 . S
O82 C77 1.247 . S
O83 Cd72 2.439 1_545 S
O83 C77 1.208 1_545 S
O84 Cd85 2.223 1_565 S
O84 C92 1.315 . S
Cd85 O84 2.223 1_545 S
Cd85 O88 2.297 . S
Cd85 O89 2.439 1_545 S
Cd85 O95 2.240 1_545 S
Cd86 O87 2.240 . S
Cd86 O94 2.223 . S
Cd86 O96 2.297 . S
Cd86 O97 2.439 . S
O87 Cd86 2.240 . S
O87 C92 1.279 . S
O88 Cd85 2.297 . S
O88 C90 1.247 1_545 S
O89 Cd85 2.439 1_565 S
O89 C90 1.208 . S
C90 O88 1.247 1_565 S
C90 O89 1.208 . S
C91 O96 1.247 . S
C91 O97 1.208 . S
C92 O84 1.315 . S
C92 O87 1.279 . S
C93 O94 1.315 . S
C93 O95 1.279 . S
O94 Cd86 2.223 . S
O94 C93 1.315 . S
O95 Cd85 2.240 1_565 S
O95 C93 1.279 . S
O96 Cd86 2.297 . S
O96 C91 1.247 . S
O97 Cd86 2.439 . S
O97 C91 1.208 . S
O98 Cd99 2.223 . S
O98 C106 1.315 . S
Cd99 O98 2.223 . S
Cd99 O102 2.297 . S
Cd99 O103 2.439 . S
Cd99 O109 2.240 . S
Cd100 O101 2.240 . S
Cd100 O108 2.223 . S
Cd100 O110 2.297 . S
Cd100 O111 2.439 . S
O101 Cd100 2.240 . S
O101 C106 1.279 . S
O102 Cd99 2.297 . S
O102 C104 1.247 . S
O103 Cd99 2.439 . S
O103 C104 1.208 . S
C104 O102 1.247 . S
C104 O103 1.208 . S
C105 O110 1.247 . S
C105 O111 1.208 . S
C106 O98 1.315 . S
C106 O101 1.279 . S
C107 O108 1.315 1_545 S
C107 O109 1.279 1_545 S
O108 Cd100 2.223 . S
O108 C107 1.315 1_565 S
O109 Cd99 2.240 . S
O109 C107 1.279 1_565 S
O110 Cd100 2.297 . S
O110 C105 1.247 . S
O111 Cd100 2.439 . S
O111 C105 1.208 . S
O112 Cd113 2.223 . S
O112 C120 1.315 1_655 S
Cd113 O112 2.223 . S
Cd113 O116 2.297 . S
Cd113 O117 2.439 1_655 S
Cd113 O123 2.240 1_655 S
Cd114 O115 2.240 1_545 S
Cd114 O122 2.223 . S
Cd114 O124 2.297 . S
Cd114 O125 2.439 1_545 S
O115 Cd114 2.240 1_565 S
O115 C120 1.279 . S
O116 Cd113 2.297 . S
O116 C118 1.247 . S
O117 Cd113 2.439 1_455 S
O117 C118 1.208 1_455 S
C118 O116 1.247 . S
C118 O117 1.208 1_655 S
C119 O124 1.247 . S
C119 O125 1.208 1_545 S
C120 O112 1.315 1_455 S
C120 O115 1.279 . S
C121 O122 1.315 . S
C121 O123 1.279 1_545 S
O122 Cd114 2.223 . S
O122 C121 1.315 . S
O123 Cd113 2.240 1_455 S
O123 C121 1.279 1_565 S
O124 Cd114 2.297 . S
O124 C119 1.247 . S
O125 Cd114 2.439 1_565 S
O125 C119 1.208 1_565 S
O126 Cd127 2.223 . S
O126 C134 1.315 1_565 S
Cd127 O126 2.223 . S
Cd127 O130 2.297 . S
Cd127 O131 2.439 . S
Cd127 O137 2.240 . S
Cd128 O129 2.240 . S
Cd128 O136 2.223 . S
Cd128 O138 2.297 . S
Cd128 O139 2.439 . S
O129 Cd128 2.240 . S
O129 C134 1.279 . S
O130 Cd127 2.297 . S
O130 C132 1.247 . S
O131 Cd127 2.439 . S
O131 C132 1.208 . S
C132 O130 1.247 . S
C132 O131 1.208 . S
C133 O138 1.247 . S
C133 O139 1.208 . S
C134 O126 1.315 1_545 S
C134 O129 1.279 . S
C135 O136 1.315 1_565 S
C135 O137 1.279 . S
O136 Cd128 2.223 . S
O136 C135 1.315 1_545 S
O137 Cd127 2.240 . S
O137 C135 1.279 . S
O138 Cd128 2.297 . S
O138 C133 1.247 . S
O139 Cd128 2.439 . S
O139 C133 1.208 . S
O140 Cd141 2.223 . S
O140 C148 1.315 . S
Cd141 O140 2.223 . S
Cd141 O144 2.297 . S
Cd141 O145 2.439 . S
Cd141 O151 2.240 . S
Cd142 O143 2.240 1_655 S
Cd142 O150 2.223 . S
Cd142 O152 2.297 . S
Cd142 O153 2.439 1_655 S
O143 Cd142 2.240 1_455 S
O143 C148 1.279 . S
O144 Cd141 2.297 . S
O144 C146 1.247 . S
O145 Cd141 2.439 . S
O145 C146 1.208 . S
C146 O144 1.247 . S
C146 O145 1.208 . S
C147 O152 1.247 . S
C147 O153 1.208 1_655 S
C148 O140 1.315 . S
C148 O143 1.279 . S
C149 O150 1.315 . S
C149 O151 1.279 1_655 S
O150 Cd142 2.223 . S
O150 C149 1.315 . S
O151 Cd141 2.240 . S
O151 C149 1.279 1_455 S
O152 Cd142 2.297 . S
O152 C147 1.247 . S
O153 Cd142 2.439 1_455 S
O153 C147 1.208 1_455 S
O154 Cd155 2.223 . S
O154 C162 1.315 1_455 S
Cd155 O154 2.223 . S
Cd155 O158 2.297 . S
Cd155 O159 2.439 . S
Cd155 O165 2.240 . S
Cd156 O157 2.240 . S
Cd156 O164 2.223 . S
Cd156 O166 2.297 . S
Cd156 O167 2.439 . S
O157 Cd156 2.240 . S
O157 C162 1.279 . S
O158 Cd155 2.297 . S
O158 C160 1.247 . S
O159 Cd155 2.439 . S
O159 C160 1.208 . S
C160 O158 1.247 . S
C160 O159 1.208 . S
C161 O166 1.247 . S
C161 O167 1.208 . S
C162 O154 1.315 1_655 S
C162 O157 1.279 . S
C163 O164 1.315 1_455 S
C163 O165 1.279 . S
O164 Cd156 2.223 . S
O164 C163 1.315 1_655 S
O165 Cd155 2.240 . S
O165 C163 1.279 . S
O166 Cd156 2.297 . S
O166 C161 1.247 . S
O167 Cd156 2.439 . S
O167 C161 1.208 . S
C162 C8 1.322 1_655 S
C22 C92 2.662 1_545 S
C36 C106 1.355 . S
C50 C120 2.662 1_655 S
C134 C64 1.322 1_545 S
C78 C148 3.585 . S
C7 C147 3.806 1_454 S
C21 C161 3.393 1_455 S
C35 C91 2.826 . S
C49 C105 2.826 1_554 S
C119 C63 3.392 1_545 S
C133 C77 3.805 1_545 S
C48 C6 2.082 . S
C20 C62 2.202 1_565 S
C76 C34 2.656 . S
C132 C90 2.083 . S
C146 C104 2.655 . S
C118 C160 2.202 1_655 S
C9 C51 1.159 1_545 S
C23 C65 1.180 . S
C79 C37 1.467 . S
C93 C135 1.159 1_655 S
C107 C149 1.467 . S
C121 C163 1.180 . S
