# Generated by pormake.
# Topology mmt, (4)-cn, num edge types: 1
# Building blocks:
#     Node 0, Type 0, BuildingBlock: GALJAG_clean_sbu_0, # of connection points: 4
#     Node 1, Type 0, BuildingBlock: GALJAG_clean_sbu_0, # of connection points: 4
#     Node 2, Type 0, BuildingBlock: GALJAG_clean_sbu_0, # of connection points: 4
#     Node 3, Type 0, BuildingBlock: GALJAG_clean_sbu_0, # of connection points: 4
#     Node 4, Type 0, BuildingBlock: GALJAG_clean_sbu_0, # of connection points: 4
#     Node 5, Type 0, BuildingBlock: GALJAG_clean_sbu_0, # of connection points: 4
#     Node 6, Type 0, BuildingBlock: GALJAG_clean_sbu_0, # of connection points: 4
#     Node 7, Type 0, BuildingBlock: GALJAG_clean_sbu_0, # of connection points: 4
#     Edge 8, Type (0, 0), None
#     Edge 9, Type (0, 0), None
#     Edge 10, Type (0, 0), None
#     Edge 11, Type (0, 0), None
#     Edge 12, Type (0, 0), None
#     Edge 13, Type (0, 0), None
#     Edge 14, Type (0, 0), None
#     Edge 15, Type (0, 0), None
#     Edge 16, Type (0, 0), None
#     Edge 17, Type (0, 0), None
#     Edge 18, Type (0, 0), None
#     Edge 19, Type (0, 0), None
#     Edge 20, Type (0, 0), None
#     Edge 21, Type (0, 0), None
#     Edge 22, Type (0, 0), None
#     Edge 23, Type (0, 0), None
# Relax obj value: 0.016
# Max RMSD: 0.061
# Mean RMSD: 0.061
data_MOF--net-mmt--node1-GALJAG_clean_sbu_0--edge1-none
_symmetry_space_group_name_H-M    P1
_symmetry_Int_Tables_number       1
_symmetry_cell_setting            triclinic
loop_
_symmetry_equiv_pos_as_xyz
'x, y, z'
_cell_length_a     10.286681
_cell_length_b     16.575978
_cell_length_c     20.013918
_cell_angle_alpha  90.001753
_cell_angle_beta   89.999999
_cell_angle_gamma 89.99981
loop_
_atom_site_label
_atom_site_type_symbol
_atom_site_fract_x
_atom_site_fract_y
_atom_site_fract_z
_atom_type_partial_charge
In0 In 0.15468 0.56608 0.30922 0.0
O1 O 0.31256 0.47139 0.28732 0.0
O2 O 0.27478 0.56341 0.21527 0.0
C3 C 0.07058 0.51628 0.42952 0.0
C4 C 0.26225 0.71177 0.3339 0.0
C5 C 0.94978 0.52634 0.23229 0.0
O6 O 0.16604 0.48363 0.40034 0.0
O7 O 1.02212 0.57636 0.39991 0.0
O8 O 1.00189 0.59516 0.2283 0.0
O9 O 1.00015 0.47936 0.27426 0.0
C10 C 0.3409 0.50251 0.23149 0.0
O11 O 0.14374 0.70361 0.31861 0.0
O12 O 0.32474 0.64677 0.33965 0.0
In13 In 0.43448 0.93634 0.30922 0.0
O14 O 0.2766 0.03103 0.28731 0.0
O15 O 0.31438 0.939 0.21527 0.0
C16 C 0.51859 0.98613 0.42952 0.0
C17 C 0.32687 0.79066 0.33387 0.0
C18 C 0.63938 0.97608 0.23229 0.0
O19 O 0.42314 0.01879 0.40034 0.0
O20 O 0.56703 0.92605 0.39991 0.0
O21 O 0.58728 0.90725 0.2283 0.0
O22 O 0.58901 0.02305 0.27426 0.0
C23 C 0.24826 0.99991 0.23148 0.0
O24 O 0.4454 0.79881 0.3186 0.0
O25 O 0.26441 0.85567 0.33966 0.0
In26 In 0.65468 0.43633 0.11319 0.0
O27 O 0.64374 0.2988 0.10379 0.0
O28 O 0.82474 0.35565 0.08275 0.0
C29 C 0.44979 0.47607 0.19013 0.0
C30 C 0.84092 0.49988 0.19091 0.0
C31 C 0.57058 0.48613 -0.00711 0.0
O32 O 0.50189 0.40725 0.19411 0.0
O33 O 0.50015 0.52305 0.14815 0.0
O34 O 0.66604 0.51879 0.02207 0.0
O35 O 0.52212 0.42605 0.0225 0.0
C36 C 0.76225 0.29064 0.0885 0.0
O37 O 0.81255 0.53102 0.1351 0.0
O38 O 0.7748 0.43898 0.20713 0.0
In39 In 0.93448 0.06607 0.11319 0.0
O40 O 0.77661 0.97138 0.1351 0.0
O41 O 0.81436 0.06343 0.20713 0.0
C42 C 1.01859 0.01628 -0.00711 0.0
C43 C 0.82687 0.21175 0.08853 0.0
C44 C 0.13937 0.02634 0.19013 0.0
O45 O 0.92314 0.98362 0.02207 0.0
O46 O 0.06703 0.07636 0.0225 0.0
O47 O 0.08728 0.09517 0.19411 0.0
O48 O 0.08901 0.97936 0.14815 0.0
C49 C 0.74824 0.00253 0.19092 0.0
O50 O 0.9454 0.2036 0.10381 0.0
O51 O 0.76441 0.14675 0.08274 0.0
In52 In 0.93449 0.43634 0.61319 0.0
O53 O 0.94543 0.29881 0.60379 0.0
O54 O 0.76444 0.35565 0.58276 0.0
C55 C 0.13939 0.47608 0.69012 0.0
C56 C 0.74827 0.4999 0.69092 0.0
C57 C 1.0186 0.48614 0.49289 0.0
O58 O 0.08728 0.40726 0.69411 0.0
O59 O 0.08902 0.52305 0.64815 0.0
O60 O 0.92314 0.51879 0.52207 0.0
O61 O 0.06705 0.42606 0.5225 0.0
C62 C 0.82692 0.29064 0.58851 0.0
O63 O 0.77661 0.53102 0.63509 0.0
O64 O 0.81439 0.439 0.70714 0.0
In65 In 0.6547 0.06607 0.61319 0.0
O66 O 0.81258 0.97138 0.63509 0.0
O67 O 0.7748 0.06341 0.70714 0.0
C68 C 0.57058 0.01628 0.49289 0.0
C69 C 0.7623 0.21175 0.58854 0.0
C70 C 0.4498 0.02634 0.69012 0.0
O71 O 0.66604 0.98362 0.52207 0.0
O72 O 0.52214 0.07636 0.5225 0.0
O73 O 0.5019 0.09516 0.69411 0.0
O74 O 0.50017 0.97936 0.64815 0.0
C75 C 0.84092 0.0025 0.69092 0.0
O76 O 0.64378 0.2036 0.60381 0.0
O77 O 0.82477 0.14675 0.58275 0.0
In78 In 0.43449 0.56608 0.80922 0.0
O79 O 0.27662 0.47139 0.78731 0.0
O80 O 0.31438 0.56343 0.71528 0.0
C81 C 0.5186 0.51628 0.92952 0.0
C82 C 0.32692 0.71177 0.83391 0.0
C83 C 0.63939 0.52634 0.73228 0.0
O84 O 0.42314 0.48362 0.90034 0.0
O85 O 0.56705 0.57636 0.89991 0.0
O86 O 0.58729 0.59517 0.7283 0.0
O87 O 0.58902 0.47937 0.77425 0.0
C88 C 0.24825 0.50253 0.7315 0.0
O89 O 0.44543 0.70361 0.81862 0.0
O90 O 0.26444 0.64677 0.83966 0.0
In91 In 0.1547 0.93634 0.80922 0.0
O92 O 0.31257 0.03103 0.78731 0.0
O93 O 0.27482 0.93898 0.71528 0.0
C94 C 0.07058 0.98614 0.92952 0.0
C95 C 0.2623 0.79066 0.83388 0.0
C96 C 0.94981 0.97607 0.73228 0.0
O97 O 0.16603 0.0188 0.90034 0.0
O98 O 1.02214 0.92605 0.89991 0.0
O99 O 1.0019 0.90724 0.7283 0.0
O100 O 1.00017 0.02305 0.77425 0.0
C101 C 0.34094 0.99988 0.73149 0.0
O102 O 0.14378 0.79881 0.8186 0.0
O103 O 0.32476 0.85567 0.83967 0.0
loop_
_geom_bond_atom_site_label_1
_geom_bond_atom_site_label_2
_geom_bond_distance
_geom_bond_site_symmetry_2
_ccdc_geom_bond_type
In0 O1 2.294 . S
In0 O2 2.326 . S
In0 O6 2.266 . S
In0 O7 2.326 1_455 S
In0 O8 2.266 1_455 S
In0 O9 2.326 . S
In0 O11 2.294 . S
In0 O12 2.326 . S
O1 In0 2.294 . S
O1 C10 1.240 . S
O2 In0 2.326 . S
O2 C10 1.252 . S
C3 O6 1.252 . S
C3 O7 1.260 1_455 S
C4 O11 1.240 . S
C4 O12 1.252 . S
C5 O8 1.252 . S
C5 O9 1.260 1_655 S
O6 In0 2.266 . S
O6 C3 1.252 . S
O7 In0 2.326 1_655 S
O7 C3 1.260 1_655 S
O8 In0 2.266 1_655 S
O8 C5 1.252 . S
O9 In0 2.326 . S
O9 C5 1.260 1_455 S
C10 O1 1.240 . S
C10 O2 1.252 . S
O11 In0 2.294 . S
O11 C4 1.240 . S
O12 In0 2.326 . S
O12 C4 1.252 . S
In13 O14 2.294 1_565 S
In13 O15 2.326 . S
In13 O19 2.266 1_565 S
In13 O20 2.326 . S
In13 O21 2.266 . S
In13 O22 2.326 1_565 S
In13 O24 2.294 . S
In13 O25 2.326 . S
O14 In13 2.294 1_545 S
O14 C23 1.240 1_545 S
O15 In13 2.326 . S
O15 C23 1.252 . S
C16 O19 1.252 1_565 S
C16 O20 1.260 . S
C17 O24 1.240 . S
C17 O25 1.252 . S
C18 O21 1.252 . S
C18 O22 1.260 1_565 S
O19 In13 2.266 1_545 S
O19 C16 1.252 1_545 S
O20 In13 2.326 . S
O20 C16 1.260 . S
O21 In13 2.266 . S
O21 C18 1.252 . S
O22 In13 2.326 1_545 S
O22 C18 1.260 1_545 S
C23 O14 1.240 1_565 S
C23 O15 1.252 . S
O24 In13 2.294 . S
O24 C17 1.240 . S
O25 In13 2.326 . S
O25 C17 1.252 . S
In26 O27 2.294 . S
In26 O28 2.326 . S
In26 O32 2.266 . S
In26 O33 2.326 . S
In26 O34 2.266 . S
In26 O35 2.326 . S
In26 O37 2.294 . S
In26 O38 2.326 . S
O27 In26 2.294 . S
O27 C36 1.240 . S
O28 In26 2.326 . S
O28 C36 1.252 . S
C29 O32 1.252 . S
C29 O33 1.260 . S
C30 O37 1.240 . S
C30 O38 1.252 . S
C31 O34 1.252 . S
C31 O35 1.260 . S
O32 In26 2.266 . S
O32 C29 1.252 . S
O33 In26 2.326 . S
O33 C29 1.260 . S
O34 In26 2.266 . S
O34 C31 1.252 . S
O35 In26 2.326 . S
O35 C31 1.260 . S
C36 O27 1.240 . S
C36 O28 1.252 . S
O37 In26 2.294 . S
O37 C30 1.240 . S
O38 In26 2.326 . S
O38 C30 1.252 . S
In39 O40 2.294 1_545 S
In39 O41 2.326 . S
In39 O45 2.266 1_545 S
In39 O46 2.326 1_655 S
In39 O47 2.266 1_655 S
In39 O48 2.326 1_545 S
In39 O50 2.294 . S
In39 O51 2.326 . S
O40 In39 2.294 1_565 S
O40 C49 1.240 1_565 S
O41 In39 2.326 . S
O41 C49 1.252 . S
C42 O45 1.252 1_545 S
C42 O46 1.260 1_655 S
C43 O50 1.240 . S
C43 O51 1.252 . S
C44 O47 1.252 . S
C44 O48 1.260 1_445 S
O45 In39 2.266 1_565 S
O45 C42 1.252 1_565 S
O46 In39 2.326 1_455 S
O46 C42 1.260 1_455 S
O47 In39 2.266 1_455 S
O47 C44 1.252 . S
O48 In39 2.326 1_565 S
O48 C44 1.260 1_665 S
C49 O40 1.240 1_545 S
C49 O41 1.252 . S
O50 In39 2.294 . S
O50 C43 1.240 . S
O51 In39 2.326 . S
O51 C43 1.252 . S
In52 O53 2.294 . S
In52 O54 2.326 . S
In52 O58 2.266 1_655 S
In52 O59 2.326 . S
In52 O60 2.266 . S
In52 O61 2.326 1_655 S
In52 O63 2.294 . S
In52 O64 2.326 . S
O53 In52 2.294 . S
O53 C62 1.240 . S
O54 In52 2.326 . S
O54 C62 1.252 . S
C55 O58 1.252 . S
C55 O59 1.260 1_455 S
C56 O63 1.240 . S
C56 O64 1.252 . S
C57 O60 1.252 . S
C57 O61 1.260 1_655 S
O58 In52 2.266 1_455 S
O58 C55 1.252 . S
O59 In52 2.326 . S
O59 C55 1.260 1_655 S
O60 In52 2.266 . S
O60 C57 1.252 . S
O61 In52 2.326 1_455 S
O61 C57 1.260 1_455 S
C62 O53 1.240 . S
C62 O54 1.252 . S
O63 In52 2.294 . S
O63 C56 1.240 . S
O64 In52 2.326 . S
O64 C56 1.252 . S
In65 O66 2.294 1_545 S
In65 O67 2.326 . S
In65 O71 2.266 1_545 S
In65 O72 2.326 . S
In65 O73 2.266 . S
In65 O74 2.326 1_545 S
In65 O76 2.294 . S
In65 O77 2.326 . S
O66 In65 2.294 1_565 S
O66 C75 1.240 1_565 S
O67 In65 2.326 . S
O67 C75 1.252 . S
C68 O71 1.252 1_545 S
C68 O72 1.260 . S
C69 O76 1.240 . S
C69 O77 1.252 . S
C70 O73 1.252 . S
C70 O74 1.260 1_545 S
O71 In65 2.266 1_565 S
O71 C68 1.252 1_565 S
O72 In65 2.326 . S
O72 C68 1.260 . S
O73 In65 2.266 . S
O73 C70 1.252 . S
O74 In65 2.326 1_565 S
O74 C70 1.260 1_565 S
C75 O66 1.240 1_545 S
C75 O67 1.252 . S
O76 In65 2.294 . S
O76 C69 1.240 . S
O77 In65 2.326 . S
O77 C69 1.252 . S
In78 O79 2.294 . S
In78 O80 2.326 . S
In78 O84 2.266 . S
In78 O85 2.326 . S
In78 O86 2.266 . S
In78 O87 2.326 . S
In78 O89 2.294 . S
In78 O90 2.326 . S
O79 In78 2.294 . S
O79 C88 1.240 . S
O80 In78 2.326 . S
O80 C88 1.252 . S
C81 O84 1.252 . S
C81 O85 1.260 . S
C82 O89 1.240 . S
C82 O90 1.252 . S
C83 O86 1.252 . S
C83 O87 1.260 . S
O84 In78 2.266 . S
O84 C81 1.252 . S
O85 In78 2.326 . S
O85 C81 1.260 . S
O86 In78 2.266 . S
O86 C83 1.252 . S
O87 In78 2.326 . S
O87 C83 1.260 . S
C88 O79 1.240 . S
C88 O80 1.252 . S
O89 In78 2.294 . S
O89 C82 1.240 . S
O90 In78 2.326 . S
O90 C82 1.252 . S
In91 O92 2.294 1_565 S
In91 O93 2.326 . S
In91 O97 2.266 1_565 S
In91 O98 2.326 1_455 S
In91 O99 2.266 1_455 S
In91 O100 2.326 1_565 S
In91 O102 2.294 . S
In91 O103 2.326 . S
O92 In91 2.294 1_545 S
O92 C101 1.240 1_545 S
O93 In91 2.326 . S
O93 C101 1.252 . S
C94 O97 1.252 1_565 S
C94 O98 1.260 1_455 S
C95 O102 1.240 . S
C95 O103 1.252 . S
C96 O99 1.252 . S
C96 O100 1.260 1_665 S
O97 In91 2.266 1_545 S
O97 C94 1.252 1_545 S
O98 In91 2.326 1_655 S
O98 C94 1.260 1_655 S
O99 In91 2.266 1_655 S
O99 C96 1.252 . S
O100 In91 2.326 1_545 S
O100 C96 1.260 1_445 S
C101 O92 1.240 1_565 S
C101 O93 1.252 . S
O102 In91 2.294 . S
O102 C95 1.240 . S
O103 In91 2.326 . S
O103 C95 1.252 . S
C10 C29 1.564 . S
C44 C23 1.564 1_545 S
C30 C5 1.564 . S
C49 C18 1.564 1_545 S
C83 C56 1.564 . S
C75 C96 1.564 1_545 S
C88 C55 1.564 . S
C101 C70 1.564 1_565 S
C3 C57 1.564 1_455 S
C16 C68 1.564 1_565 S
C31 C81 1.564 1_554 S
C94 C42 1.564 1_466 S
C4 C17 1.542 . S
C43 C36 1.542 . S
C69 C62 1.542 . S
C82 C95 1.542 . S
