# Generated by pormake.
# Topology pcu, (6)-cn, num edge types: 1
# Building blocks:
#     Node 0, Type 0, BuildingBlock: UKALOJ_clean_sbu_0, # of connection points: 6
#     Edge 1, Type (0, 0), BuildingBlock: CIFDUS_clean_linker_0, # of connection points: 2
#     Edge 2, Type (0, 0), BuildingBlock: CIFDUS_clean_linker_0, # of connection points: 2
#     Edge 3, Type (0, 0), BuildingBlock: CIFDUS_clean_linker_0, # of connection points: 2
# Relax obj value: 0.010
# Max RMSD: 0.054
# Mean RMSD: 0.054
data_MOF--net-pcu--node1-UKALOJ_clean_sbu_0--edge1-CIFDUS_clean_linker_0
_symmetry_space_group_name_H-M    P1
_symmetry_Int_Tables_number       1
_symmetry_cell_setting            triclinic
loop_
_symmetry_equiv_pos_as_xyz
'x, y, z'
_cell_length_a     13.505545
_cell_length_b     13.492666
_cell_length_c     18.242707
_cell_angle_alpha  99.869261
_cell_angle_beta   79.177755
_cell_angle_gamma 94.790223
loop_
_atom_site_label
_atom_site_type_symbol
_atom_site_fract_x
_atom_site_fract_y
_atom_site_fract_z
_atom_type_partial_charge
Zn0 Zn 0.96344 -0.01111 0.09517 0.0
O1 O 0.95789 0.83017 0.08836 0.0
C2 C 0.17658 -0.00996 1.02901 0.0
Zn3 Zn -0.02161 0.9766 0.97034 0.0
C4 C 0.96463 0.77597 1.02349 0.0
O5 O 0.97295 0.81827 0.96534 0.0
C6 C -0.0228 0.18951 0.04202 0.0
O7 O 0.82051 0.97049 0.97142 0.0
O8 O 0.80664 0.98243 0.09433 0.0
N9 N 0.01275 0.95552 0.85493 0.0
C10 C -0.02361 0.98778 0.79966 0.0
C11 C 0.10339 0.90152 0.74703 0.0
N12 N 0.0913 0.90173 0.82189 0.0
N13 N 0.03223 0.95479 0.73136 0.0
C14 C 0.96544 0.9777 0.26585 0.0
C15 C 0.83844 0.06396 0.31848 0.0
N16 N 0.92908 0.00996 0.21058 0.0
N17 N 0.85053 0.06375 0.24363 0.0
N18 N 0.9096 0.01069 0.33416 0.0
H19 H 0.06167 0.86648 0.19439 0.0
H20 H 0.03976 0.85785 0.29428 0.0
H21 H 0.12221 0.95701 0.25821 0.0
C22 C 0.05179 0.91014 0.25225 0.0
C23 C 0.89004 0.05534 0.81326 0.0
H24 H 0.88016 0.09901 0.87112 0.0
H25 H 0.81962 0.00848 0.80731 0.0
H26 H 0.90207 0.10763 0.77124 0.0
O27 O -0.01606 0.13531 0.97715 0.0
O28 O 0.96888 0.14721 0.10017 0.0
C29 C 0.76525 0.97544 0.0365 0.0
O30 O 0.12132 -0.005 0.09409 0.0
O31 O 0.13519 0.98305 0.97119 0.0
H32 H 0.07806 0.02422 0.3951 0.0
H33 H 0.75636 0.96289 0.44089 0.0
H34 H 0.7643 0.94292 0.57048 0.0
H35 H 0.86377 0.94126 0.67041 0.0
H36 H 0.18547 0.00259 0.62462 0.0
H37 H 0.17753 0.02256 0.49504 0.0
C38 C 0.0103 0.00448 0.4331 0.0
C39 C 0.91707 -0.00693 0.40839 0.0
C40 C 0.01552 -0.00611 0.50756 0.0
C41 C 0.82899 0.97121 0.45891 0.0
C42 C 0.8335 0.95998 0.53285 0.0
C43 C 0.93153 0.96101 0.63241 0.0
C44 C 0.02477 0.97241 0.65712 0.0
C45 C 0.92631 0.9716 0.55795 0.0
C46 C 0.11284 -0.00573 0.6066 0.0
C47 C 0.10833 0.0055 0.53266 0.0
H48 H 0.29164 0.98422 0.13609 0.0
H49 H 0.3121 -0.00561 0.89838 0.0
H50 H 0.49507 -0.01086 0.8792 0.0
H51 H 0.65019 0.98127 0.92943 0.0
H52 H 0.62973 0.9711 0.16713 0.0
H53 H 0.44676 0.97635 0.18631 0.0
C54 C 0.33615 0.98568 0.08018 0.0
C55 C 0.28797 -0.01016 1.01896 0.0
C56 C 0.44173 0.9822 0.06923 0.0
C57 C 0.34697 -0.00881 0.94672 0.0
C58 C 0.45183 -0.01192 0.93552 0.0
C59 C 0.60568 0.9798 0.98533 0.0
C60 C 0.65386 0.97565 0.04655 0.0
C61 C 0.5001 0.98329 0.99628 0.0
C62 C 0.59486 0.97429 0.11879 0.0
C63 C 0.49 0.9774 0.12999 0.0
H64 H 0.9638 0.66204 0.13334 0.0
H65 H 0.96838 0.64001 0.89378 0.0
H66 H 0.97404 0.45732 0.87816 0.0
H67 H -0.02197 0.30344 0.93217 0.0
H68 H 0.97345 0.32548 0.17174 0.0
H69 H 0.96779 0.50816 0.18735 0.0
C70 C 0.96568 0.61731 0.07774 0.0
C71 C 0.96547 0.66486 1.01494 0.0
C72 C 0.96934 0.5121 0.06897 0.0
C73 C 0.9684 0.60557 0.94322 0.0
C74 C 0.97176 0.50095 0.93413 0.0
C75 C -0.02385 0.34818 0.98777 0.0
C76 C -0.02364 0.30062 0.05058 0.0
C77 C 0.97249 0.45339 0.99654 0.0
C78 C 0.97343 0.35992 0.12229 0.0
C79 C 0.97007 0.46454 0.13138 0.0
loop_
_geom_bond_atom_site_label_1
_geom_bond_atom_site_label_2
_geom_bond_distance
_geom_bond_site_symmetry_2
_ccdc_geom_bond_type
Zn0 O1 2.055 . S
Zn0 O8 2.046 . S
Zn0 N16 2.036 1_565 S
Zn0 O28 2.053 1_565 S
Zn0 O30 2.066 1_665 S
O1 Zn0 2.055 . S
O1 C4 1.259 1_554 S
C2 O30 1.256 1_565 S
C2 O31 1.244 1_554 S
Zn3 O5 2.046 . S
Zn3 O7 2.055 . S
Zn3 N9 2.036 1_655 S
Zn3 O27 2.066 1_665 S
Zn3 O31 2.053 1_655 S
C4 O1 1.259 1_556 S
C4 O5 1.254 . S
O5 Zn3 2.046 . S
O5 C4 1.254 . S
C6 O27 1.256 1_655 S
C6 O28 1.244 1_556 S
O7 Zn3 2.055 . S
O7 C29 1.259 1_556 S
O8 Zn0 2.046 . S
O8 C29 1.254 . S
N9 Zn3 2.036 1_455 S
N9 C10 1.298 1_465 S
N9 N12 1.398 . S
C10 N9 1.298 1_645 S
C10 N13 1.367 1_655 S
C10 C23 1.481 . S
C11 N12 1.299 . S
C11 N13 1.379 1_565 S
N12 N9 1.398 . S
N12 C11 1.299 . S
N13 C10 1.367 1_455 S
N13 C11 1.379 1_545 S
C14 N16 1.298 1_465 S
C14 N18 1.367 1_565 S
C14 C22 1.481 . S
C15 N17 1.299 . S
C15 N18 1.379 1_655 S
N16 Zn0 2.036 1_545 S
N16 C14 1.298 1_645 S
N16 N17 1.398 . S
N17 C15 1.299 . S
N17 N16 1.398 . S
N18 C14 1.367 1_545 S
N18 C15 1.379 1_455 S
H19 C22 0.980 . S
H20 C22 0.981 . S
H21 C22 0.981 . S
C22 C14 1.481 . S
C22 H19 0.980 . S
C22 H20 0.981 . S
C22 H21 0.981 . S
C23 C10 1.481 . S
C23 H24 0.980 . S
C23 H25 0.981 . S
C23 H26 0.981 . S
H24 C23 0.980 . S
H25 C23 0.981 . S
H26 C23 0.981 . S
O27 Zn3 2.066 1_445 S
O27 C6 1.256 1_455 S
O28 Zn0 2.053 1_545 S
O28 C6 1.244 1_554 S
C29 O7 1.259 1_554 S
C29 O8 1.254 . S
O30 Zn0 2.066 1_445 S
O30 C2 1.256 1_545 S
O31 C2 1.244 1_556 S
O31 Zn3 2.053 1_455 S
H32 C38 0.934 . S
H33 C41 0.930 . S
H34 C42 0.930 . S
H35 C43 0.930 . S
H36 C46 0.930 . S
H37 C47 0.930 . S
C38 H32 0.934 . S
C38 C39 1.350 1_565 S
C38 C40 1.415 1_565 S
C39 C38 1.350 1_545 S
C39 C41 1.419 1_455 S
C40 C38 1.415 1_545 S
C40 C45 1.425 1_455 S
C40 C47 1.409 1_545 S
C41 H33 0.930 . S
C41 C39 1.419 1_655 S
C41 C42 1.362 . S
C42 H34 0.930 . S
C42 C41 1.362 . S
C42 C45 1.409 . S
C43 H35 0.930 . S
C43 C44 1.355 1_655 S
C43 C45 1.415 . S
C44 C43 1.355 1_455 S
C44 C46 1.419 1_545 S
C45 C40 1.425 1_655 S
C45 C42 1.409 . S
C45 C43 1.415 . S
C46 H36 0.930 . S
C46 C44 1.419 1_565 S
C46 C47 1.362 . S
C47 H37 0.930 . S
C47 C40 1.409 1_565 S
C47 C46 1.362 . S
H48 C54 0.930 . S
H49 C57 0.930 . S
H50 C58 0.930 . S
H51 C59 0.930 . S
H52 C62 0.930 . S
H53 C63 0.930 . S
C54 H48 0.930 . S
C54 C55 1.355 1_565 S
C54 C56 1.415 . S
C55 C54 1.355 1_545 S
C55 C57 1.419 1_554 S
C56 C54 1.415 . S
C56 C61 1.425 1_564 S
C56 C63 1.409 . S
C57 H49 0.930 . S
C57 C55 1.419 1_556 S
C57 C58 1.362 . S
C58 H50 0.930 . S
C58 C57 1.362 . S
C58 C61 1.409 . S
C59 H51 0.930 . S
C59 C60 1.355 1_546 S
C59 C61 1.415 . S
C60 C59 1.355 1_564 S
C60 C62 1.419 . S
C61 C56 1.425 1_546 S
C61 C58 1.409 . S
C61 C59 1.415 . S
C62 H52 0.930 . S
C62 C60 1.419 . S
C62 C63 1.362 . S
C63 H53 0.930 . S
C63 C56 1.409 . S
C63 C62 1.362 . S
H64 C70 0.930 . S
H65 C73 0.930 . S
H66 C74 0.930 . S
H67 C75 0.930 . S
H68 C78 0.930 . S
H69 C79 0.930 . S
C70 H64 0.930 . S
C70 C71 1.355 1_454 S
C70 C72 1.414 . S
C71 C70 1.355 1_656 S
C71 C73 1.419 . S
C72 C70 1.414 . S
C72 C77 1.424 1_454 S
C72 C79 1.410 . S
C73 H65 0.930 . S
C73 C71 1.419 . S
C73 C74 1.362 . S
C74 H66 0.930 . S
C74 C73 1.362 . S
C74 C77 1.409 . S
C75 H67 0.930 . S
C75 C76 1.355 1_556 S
C75 C77 1.415 . S
C76 C75 1.355 1_554 S
C76 C78 1.419 1_655 S
C77 C72 1.424 1_656 S
C77 C74 1.409 . S
C77 C75 1.415 . S
C78 H68 0.930 . S
C78 C76 1.419 1_455 S
C78 C79 1.362 . S
C79 H69 0.930 . S
C79 C72 1.410 . S
C79 C78 1.362 . S
C39 N18 1.427 . S
C44 N13 1.437 . S
C55 C2 1.490 1_545 S
C60 C29 1.480 . S
C71 C4 1.490 . S
C76 C6 1.495 1_554 S
