# Generated by pormake.
# Topology cds, (4)-cn, num edge types: 1
# Building blocks:
#     Node 0, Type 0, BuildingBlock: NAWXER_clean_sbu_0, # of connection points: 4
#     Node 1, Type 0, BuildingBlock: NAWXER_clean_sbu_0, # of connection points: 4
#     Edge 2, Type (0, 0), BuildingBlock: ZUJKAS_clean_linker_0, # of connection points: 2
#     Edge 3, Type (0, 0), BuildingBlock: ZUJKAS_clean_linker_0, # of connection points: 2
#     Edge 4, Type (0, 0), BuildingBlock: ZUJKAS_clean_linker_0, # of connection points: 2
#     Edge 5, Type (0, 0), BuildingBlock: ZUJKAS_clean_linker_0, # of connection points: 2
# Relax obj value: 0.000
# Max RMSD: 0.000
# Mean RMSD: 0.000
data_MOF--net-cds--node1-NAWXER_clean_sbu_0--edge1-ZUJKAS_clean_linker_0
_symmetry_space_group_name_H-M    P1
_symmetry_Int_Tables_number       1
_symmetry_cell_setting            triclinic
loop_
_symmetry_equiv_pos_as_xyz
'x, y, z'
_cell_length_a     19.186481
_cell_length_b     19.183523
_cell_length_c     38.315277
_cell_angle_alpha  97.056976
_cell_angle_beta   96.895171
_cell_angle_gamma 89.895092
loop_
_atom_site_label
_atom_site_type_symbol
_atom_site_fract_x
_atom_site_fract_y
_atom_site_fract_z
_atom_type_partial_charge
C0 C 0.19551 0.89792 1.00429 0.0
C1 C 0.94039 0.89818 1.00004 0.0
O2 O 0.15377 0.84544 1.00015 0.0
Zn3 Zn 0.06777 0.89758 1.0025 0.0
O4 O 0.17084 0.96016 0.0086 0.0
Zn5 Zn 0.07025 1.00853 0.01098 0.0
O6 O 0.07867 0.05795 0.05826 0.0
O7 O 0.075 0.94283 0.05722 0.0
O8 O 0.96714 0.96044 1.0053 0.0
O9 O 0.98045 0.84556 0.99666 0.0
O10 O 0.05981 0.94907 0.95513 0.0
O11 O 0.06446 0.06337 0.97185 0.0
C12 C 0.07871 1.00444 0.07477 0.0
C13 C 0.05947 0.01221 0.94722 0.0
C14 C 0.90059 0.1925 0.50556 0.0
C15 C 0.90133 0.93708 0.50017 0.0
O16 O 0.96284 0.16793 0.50979 0.0
Zn17 Zn 0.0114 0.06721 0.5111 0.0
O18 O 0.84824 0.15051 0.50063 0.0
Zn19 Zn 0.90052 0.06451 0.50252 0.0
O20 O 0.94571 0.07143 0.55729 0.0
O21 O 0.06085 0.07516 0.55828 0.0
O22 O 0.8487 0.977 0.49651 0.0
O23 O 0.96351 0.96399 0.50552 0.0
O24 O 0.06617 0.06205 0.47186 0.0
O25 O 0.95201 0.05715 0.45519 0.0
C26 C 1.00727 0.07505 0.5748 0.0
C27 C 0.01514 0.05709 0.44725 0.0
H28 H 0.05832 0.90246 0.11642 0.0
H29 H 0.05467 0.91621 0.18034 0.0
H30 H 0.10118 0.13747 0.18583 0.0
H31 H 0.10293 0.12456 0.12156 0.0
H32 H 0.15157 0.95932 0.23568 0.0
H33 H 0.92557 0.14045 0.23438 0.0
H34 H 0.95187 0.09366 0.19442 0.0
H35 H 0.99888 0.17168 0.21542 0.0
C36 C 0.06788 0.95413 0.13117 0.0
C37 C 0.08034 0.01256 0.11382 0.0
C38 C 0.06586 0.96185 0.16776 0.0
C39 C 0.07644 0.02806 0.18782 0.0
C40 C 0.09112 0.08618 0.17078 0.0
H41 H 0.1386 0.079 0.42054 0.0
H42 H 0.15723 0.07407 0.35817 0.0
C43 C 0.09251 0.07863 0.13406 0.0
C44 C 0.07129 0.03576 0.22647 0.0
H45 H 0.98013 0.11836 0.29053 0.0
C46 C 0.11419 0.99419 0.24773 0.0
C47 C 0.02184 0.08063 0.24205 0.0
C48 C 0.97142 0.12367 0.22039 0.0
C49 C 0.1087 0.99582 0.28405 0.0
C50 C 0.06014 0.04164 0.29974 0.0
C51 C 0.01768 0.08363 0.27853 0.0
C52 C 0.04984 0.04453 0.3377 0.0
C53 C 0.15322 0.94667 0.30494 0.0
C54 C 0.98298 0.03132 0.347 0.0
C55 C 0.97197 0.03513 0.38255 0.0
C56 C 0.02769 0.05203 0.40963 0.0
C57 C 0.09473 0.06519 0.40031 0.0
C58 C 0.10556 0.06202 0.36466 0.0
H59 H 0.1732 0.90261 0.28739 0.0
H60 H 0.19922 0.97611 0.32003 0.0
H61 H 0.12312 0.92444 0.32409 0.0
H62 H 0.93917 0.01784 0.32667 0.0
H63 H 0.91969 0.02462 0.38877 0.0
H64 H 0.08101 0.13563 0.92049 0.0
H65 H 0.07596 0.15399 0.85811 0.0
H66 H 0.01998 0.9357 0.82665 0.0
H67 H 0.02689 0.91649 0.88875 0.0
H68 H 0.12045 0.97656 0.79039 0.0
H69 H 0.90461 0.1695 0.78751 0.0
H70 H 0.97801 0.19574 0.82009 0.0
H71 H 0.92645 0.11961 0.82419 0.0
C72 C 0.06722 0.09166 0.90027 0.0
C73 C 0.05419 0.02463 0.90959 0.0
C74 C 0.06398 0.10233 0.86461 0.0
C75 C 0.04654 0.04646 0.83766 0.0
C76 C 0.03342 0.97962 0.84697 0.0
H77 H 0.90518 0.0544 0.61644 0.0
H78 H 0.91866 0.0507 0.68032 0.0
C79 C 0.0373 0.96877 0.88252 0.0
C80 C 0.04368 0.05658 0.7997 0.0
H81 H 0.96147 0.14777 0.73575 0.0
C82 C 0.08573 0.01406 0.77843 0.0
C83 C 0.99787 0.10506 0.78407 0.0
C84 C 0.94866 0.14964 0.80502 0.0
C85 C 0.08282 0.0181 0.74195 0.0
C86 C 0.03798 0.06748 0.72644 0.0
C87 C 0.99632 0.11043 0.74774 0.0
C88 C 0.03044 0.07257 0.6878 0.0
C89 C 0.12594 0.96762 0.72023 0.0
C90 C 0.08861 0.0873 0.67076 0.0
C91 C 0.08122 0.08872 0.63406 0.0
C92 C 0.01525 0.07652 0.61383 0.0
C93 C 0.95677 0.06397 0.63118 0.0
C94 C 0.96434 0.06192 0.66775 0.0
H95 H 0.14267 0.9218 0.73418 0.0
H96 H 0.09604 0.948 0.69426 0.0
H97 H 0.17395 0.9951 0.71527 0.0
H98 H 0.13982 0.09741 0.68581 0.0
H99 H 0.12717 0.09921 0.62156 0.0
H100 H 0.8416 1.00015 1.00514 0.0
H101 H 0.71497 0.98523 1.00337 0.0
H102 H 0.73719 0.76017 0.98903 0.0
H103 H 0.86467 0.77448 0.9911 0.0
H104 H 0.62039 0.91412 0.94795 0.0
H105 H 0.62202 0.79674 0.07394 0.0
H106 H 0.69751 0.84206 0.06317 0.0
H107 H 0.67539 0.75476 0.04218 0.0
C108 C 0.81982 0.94737 1.00167 0.0
C109 C 0.86341 0.88848 0.99839 0.0
C110 C 0.74734 0.93899 1.00063 0.0
C111 C 0.71685 0.87166 0.99647 0.0
C112 C 0.75988 0.8126 0.99284 0.0
H113 H 0.26802 0.77438 0.99576 0.0
H114 H 0.3942 0.76075 0.99172 0.0
C115 C 0.83263 0.82092 0.99384 0.0
C116 C 0.63977 0.86421 0.99547 0.0
H117 H 0.51162 0.81414 0.04227 0.0
C118 C 0.59657 0.89177 0.96841 0.0
C119 C 0.60892 0.83461 0.0221 0.0
C120 C 0.6531 0.8057 0.05219 0.0
C121 C 0.52332 0.89199 0.96768 0.0
C122 C 0.49261 0.86498 0.99506 0.0
C123 C 0.5355 0.83492 0.02139 0.0
C124 C 0.41668 0.87235 0.99813 0.0
C125 C 0.47941 0.92178 0.93777 0.0
C126 C 0.3881 0.9395 1.00382 0.0
C127 C 0.3165 0.94748 1.00621 0.0
C128 C 0.27188 0.88838 1.00311 0.0
C129 C 0.3009 0.82096 0.99814 0.0
C130 C 0.37288 0.81304 0.99583 0.0
H131 H 0.50802 0.92151 0.9142 0.0
H132 H 0.42946 0.89168 0.92984 0.0
H133 H 0.46644 0.97703 0.94663 0.0
H134 H 0.4213 0.98591 1.00637 0.0
H135 H 0.29614 1.00018 0.01025 0.0
H136 H 1.00318 0.83932 0.50919 0.0
H137 H 0.98818 0.71335 0.5101 0.0
H138 H 0.76348 0.73415 0.49104 0.0
H139 H 0.77787 0.86082 0.48984 0.0
H140 H 0.91028 0.6492 0.55719 0.0
H141 H 0.80921 0.57157 0.4153 0.0
H142 H 0.85431 0.65422 0.43065 0.0
H143 H 0.76521 0.64223 0.43876 0.0
C144 C 0.95048 0.81728 0.50493 0.0
C145 C 0.8917 0.86025 0.49938 0.0
C146 C 0.94205 0.74521 0.50553 0.0
C147 C 0.87481 0.71442 0.50037 0.0
C148 C 0.81589 0.75682 0.49459 0.0
H149 H 0.77735 0.26431 0.49432 0.0
H150 H 0.76346 0.39168 0.49481 0.0
C151 C 0.82424 0.82919 0.49405 0.0
C152 C 0.86718 0.6382 0.50224 0.0
H153 H 0.82295 0.4814 0.45202 0.0
C154 C 0.8907 0.61252 0.53428 0.0
C155 C 0.84105 0.59067 0.47237 0.0
C156 C 0.81633 0.61562 0.43718 0.0
C157 C 0.89033 0.54032 0.53707 0.0
C158 C 0.86702 0.49251 0.50682 0.0
C159 C 0.84092 0.51827 0.47512 0.0
C160 C 0.8745 0.41566 0.50694 0.0
C161 C 0.91543 0.51582 0.57233 0.0
C162 C 0.94151 0.38709 0.51311 0.0
C163 C 0.94964 0.31477 0.51283 0.0
C164 C 0.89086 0.26927 0.50616 0.0
C165 C 0.82365 0.29794 0.4997 0.0
C166 C 0.81559 0.37059 0.49992 0.0
H167 H 0.91109 0.55788 0.59461 0.0
H168 H 0.88504 0.46903 0.5766 0.0
H169 H 0.97152 0.50125 0.5729 0.0
H170 H 0.98777 0.42081 0.51785 0.0
H171 H 1.0022 0.2946 0.51772 0.0
loop_
_geom_bond_atom_site_label_1
_geom_bond_atom_site_label_2
_geom_bond_distance
_geom_bond_site_symmetry_2
_ccdc_geom_bond_type
C0 O2 1.250 1_554 S
C0 O4 1.257 1_565 S
C1 O8 1.255 1_556 S
C1 O9 1.254 1_545 S
O2 C0 1.250 1_556 S
O2 Zn3 2.025 . S
Zn3 O2 2.025 . S
Zn3 O7 2.035 1_556 S
Zn3 O9 2.036 1_455 S
Zn3 O10 2.028 1_455 S
O4 C0 1.257 1_545 S
O4 Zn5 2.036 . S
Zn5 O4 2.036 . S
Zn5 O6 2.028 . S
Zn5 O8 2.025 1_455 S
Zn5 O11 2.035 1_454 S
O6 Zn5 2.028 . S
O6 C12 1.251 . S
O7 Zn3 2.035 1_554 S
O7 C12 1.254 1_565 S
O8 C1 1.255 1_554 S
O8 Zn5 2.025 1_655 S
O9 C1 1.254 1_565 S
O9 Zn3 2.036 1_655 S
O10 Zn3 2.028 1_655 S
O10 C13 1.248 . S
O11 Zn5 2.035 1_656 S
O11 C13 1.257 1_545 S
C12 O6 1.251 . S
C12 O7 1.254 1_545 S
C13 O10 1.248 . S
C13 O11 1.257 1_565 S
C14 O16 1.251 . S
C14 O18 1.254 1_455 S
C15 O22 1.248 . S
C15 O23 1.257 1_655 S
O16 C14 1.251 . S
O16 Zn17 2.043 . S
Zn17 O16 2.043 . S
Zn17 O21 2.034 . S
Zn17 O23 2.020 1_545 S
Zn17 O24 2.029 1_545 S
O18 C14 1.254 1_655 S
O18 Zn19 2.024 1_545 S
Zn19 O18 2.024 1_565 S
Zn19 O20 2.029 1_565 S
Zn19 O22 2.039 . S
Zn19 O25 2.034 . S
O20 Zn19 2.029 1_545 S
O20 C26 1.248 . S
O21 Zn17 2.034 . S
O21 C26 1.257 1_455 S
O22 C15 1.248 . S
O22 Zn19 2.039 . S
O23 C15 1.257 1_455 S
O23 Zn17 2.020 1_565 S
O24 Zn17 2.029 1_565 S
O24 C27 1.251 . S
O25 Zn19 2.034 . S
O25 C27 1.254 1_655 S
C26 O20 1.248 . S
C26 O21 1.257 1_655 S
C27 O24 1.251 . S
C27 O25 1.254 1_455 S
H28 C36 0.929 . S
H29 C38 0.930 . S
H30 C40 0.930 . S
H31 C43 0.929 . S
H32 C46 0.930 . S
H33 C48 0.960 . S
H34 C48 0.960 . S
H35 C48 0.960 1_455 S
C36 H28 0.929 . S
C36 C37 1.387 1_565 S
C36 C38 1.384 . S
C37 C36 1.387 1_545 S
C37 C43 1.382 1_655 S
C38 H29 0.930 . S
C38 C36 1.384 . S
C38 C39 1.372 . S
C39 C38 1.372 . S
C39 C40 1.400 1_665 S
C39 C44 1.490 . S
C40 H30 0.930 . S
C40 C39 1.400 1_445 S
C40 C43 1.386 . S
H41 C57 0.930 . S
H42 C58 0.931 . S
C43 H31 0.929 . S
C43 C37 1.382 1_455 S
C43 C40 1.386 . S
C44 C39 1.490 . S
C44 C46 1.395 1_655 S
C44 C47 1.403 1_565 S
H45 C51 0.930 . S
C46 H32 0.930 . S
C46 C44 1.395 1_455 S
C46 C49 1.403 . S
C47 C44 1.403 1_545 S
C47 C48 1.524 . S
C47 C51 1.400 . S
C48 H33 0.960 . S
C48 H34 0.960 . S
C48 H35 0.960 1_655 S
C48 C47 1.524 . S
C49 C46 1.403 . S
C49 C50 1.392 1_455 S
C49 C53 1.495 . S
C50 C49 1.392 1_655 S
C50 C51 1.385 1_565 S
C50 C52 1.478 1_655 S
C51 H45 0.930 . S
C51 C47 1.400 . S
C51 C50 1.385 1_545 S
C52 C50 1.478 1_455 S
C52 C54 1.381 1_455 S
C52 C58 1.383 1_565 S
C53 C49 1.495 . S
C53 H59 0.959 . S
C53 H60 0.961 . S
C53 H61 0.960 1_455 S
C54 C52 1.381 1_655 S
C54 C55 1.394 . S
C54 H62 0.930 . S
C55 C54 1.394 . S
C55 C56 1.383 1_655 S
C55 H63 0.929 . S
C56 C55 1.383 1_455 S
C56 C57 1.377 1_565 S
C57 H41 0.930 . S
C57 C56 1.377 1_545 S
C57 C58 1.379 . S
C58 H42 0.931 . S
C58 C52 1.383 1_545 S
C58 C57 1.379 . S
H59 C53 0.959 . S
H60 C53 0.961 . S
H61 C53 0.960 1_655 S
H62 C54 0.930 . S
H63 C55 0.929 . S
H64 C72 0.929 . S
H65 C74 0.930 . S
H66 C76 0.930 . S
H67 C79 0.929 . S
H68 C82 0.930 . S
H69 C84 0.960 . S
H70 C84 0.960 . S
H71 C84 0.960 . S
C72 H64 0.929 . S
C72 C73 1.378 . S
C72 C74 1.384 . S
C73 C72 1.378 . S
C73 C79 1.389 1_445 S
C74 H65 0.930 . S
C74 C72 1.384 . S
C74 C75 1.372 . S
C75 C74 1.372 . S
C75 C76 1.400 1_445 S
C75 C80 1.490 . S
C76 H66 0.930 . S
C76 C75 1.400 1_665 S
C76 C79 1.386 . S
H77 C93 0.930 . S
H78 C94 0.931 . S
C79 H67 0.929 . S
C79 C73 1.389 1_665 S
C79 C76 1.386 . S
C80 C75 1.490 . S
C80 C82 1.395 1_545 S
C80 C83 1.403 1_455 S
H81 C87 0.930 . S
C82 H68 0.930 . S
C82 C80 1.395 1_565 S
C82 C85 1.403 . S
C83 C80 1.403 1_655 S
C83 C84 1.524 . S
C83 C87 1.400 . S
C84 H69 0.960 . S
C84 H70 0.960 . S
C84 H71 0.960 . S
C84 C83 1.524 . S
C85 C82 1.403 . S
C85 C86 1.392 . S
C85 C89 1.495 . S
C86 C85 1.392 . S
C86 C87 1.385 1_465 S
C86 C88 1.478 . S
C87 H81 0.930 . S
C87 C83 1.400 . S
C87 C86 1.385 1_645 S
C88 C86 1.478 . S
C88 C90 1.381 1_565 S
C88 C94 1.383 1_455 S
C89 C85 1.495 . S
C89 H95 0.959 . S
C89 H96 0.961 . S
C89 H97 0.960 . S
C90 C88 1.381 1_545 S
C90 C91 1.394 . S
C90 H98 0.930 . S
C91 C90 1.394 . S
C91 C92 1.383 1_545 S
C91 H99 0.929 . S
C92 C91 1.383 1_565 S
C92 C93 1.377 1_455 S
C93 H77 0.930 . S
C93 C92 1.377 1_655 S
C93 C94 1.379 . S
C94 H78 0.931 . S
C94 C88 1.383 1_655 S
C94 C93 1.379 . S
H95 C89 0.959 . S
H96 C89 0.961 . S
H97 C89 0.960 . S
H98 C90 0.930 . S
H99 C91 0.929 . S
H100 C108 0.929 . S
H101 C110 0.930 . S
H102 C112 0.930 . S
H103 C115 0.929 . S
H104 C118 0.930 . S
H105 C120 0.960 . S
H106 C120 0.960 1_545 S
H107 C120 0.960 . S
C108 H100 0.929 . S
C108 C109 1.374 1_556 S
C108 C110 1.384 . S
C109 C108 1.374 1_554 S
C109 C115 1.395 1_545 S
C110 H101 0.930 . S
C110 C108 1.384 . S
C110 C111 1.371 . S
C111 C110 1.371 . S
C111 C112 1.400 1_546 S
C111 C116 1.490 . S
C112 H102 0.930 . S
C112 C111 1.400 1_564 S
C112 C115 1.386 . S
H113 C129 0.930 . S
H114 C130 0.931 1_554 S
C115 H103 0.929 . S
C115 C109 1.395 1_565 S
C115 C112 1.386 . S
C116 C111 1.490 . S
C116 C118 1.395 . S
C116 C119 1.403 1_546 S
H117 C123 0.930 . S
C118 H104 0.930 . S
C118 C116 1.395 . S
C118 C121 1.403 . S
C119 C116 1.403 1_564 S
C119 C120 1.524 . S
C119 C123 1.400 . S
C120 H105 0.960 . S
C120 H106 0.960 1_565 S
C120 H107 0.960 . S
C120 C119 1.524 . S
C121 C118 1.403 . S
C121 C122 1.392 . S
C121 C125 1.495 . S
C122 C121 1.392 . S
C122 C123 1.385 1_546 S
C122 C124 1.478 . S
C123 H117 0.930 . S
C123 C119 1.400 . S
C123 C122 1.385 1_564 S
C124 C122 1.478 . S
C124 C126 1.381 . S
C124 C130 1.383 1_545 S
C125 C121 1.495 . S
C125 H131 0.959 . S
C125 H132 0.961 1_545 S
C125 H133 0.960 . S
C126 C124 1.381 . S
C126 C127 1.394 . S
C126 H134 0.930 . S
C127 C126 1.394 . S
C127 C128 1.385 . S
C127 H135 0.929 . S
C128 C127 1.385 . S
C128 C129 1.375 1_546 S
C129 H113 0.930 . S
C129 C128 1.375 1_564 S
C129 C130 1.379 1_554 S
C130 H114 0.931 1_556 S
C130 C124 1.383 1_565 S
C130 C129 1.379 1_556 S
H131 C125 0.959 . S
H132 C125 0.961 1_565 S
H133 C125 0.960 . S
H134 C126 0.930 . S
H135 C127 0.929 . S
H136 C144 0.929 . S
H137 C146 0.930 . S
H138 C148 0.930 . S
H139 C151 0.929 . S
H140 C154 0.930 . S
H141 C156 0.960 . S
H142 C156 0.960 . S
H143 C156 0.960 . S
C144 H136 0.929 . S
C144 C145 1.389 . S
C144 C146 1.384 . S
C145 C144 1.389 . S
C145 C151 1.378 1_455 S
C146 H137 0.930 . S
C146 C144 1.384 . S
C146 C147 1.372 . S
C147 C146 1.372 . S
C147 C148 1.400 1_455 S
C147 C152 1.490 . S
C148 H138 0.930 . S
C148 C147 1.400 1_655 S
C148 C151 1.386 . S
H149 C165 0.930 . S
H150 C166 0.931 . S
C151 H139 0.929 . S
C151 C145 1.378 1_655 S
C151 C148 1.386 . S
C152 C147 1.490 . S
C152 C154 1.395 . S
C152 C155 1.403 1_455 S
H153 C159 0.930 . S
C154 H140 0.930 . S
C154 C152 1.395 . S
C154 C157 1.403 . S
C155 C152 1.403 1_655 S
C155 C156 1.524 . S
C155 C159 1.400 . S
C156 H141 0.960 . S
C156 H142 0.960 . S
C156 H143 0.960 . S
C156 C155 1.524 . S
C157 C154 1.403 . S
C157 C158 1.392 . S
C157 C161 1.495 . S
C158 C157 1.392 . S
C158 C159 1.385 1_455 S
C158 C160 1.478 . S
C159 H153 0.930 . S
C159 C155 1.400 . S
C159 C158 1.385 1_655 S
C160 C158 1.478 . S
C160 C162 1.381 . S
C160 C166 1.383 1_455 S
C161 C157 1.495 . S
C161 H167 0.959 . S
C161 H168 0.961 . S
C161 H169 0.960 . S
C162 C160 1.381 . S
C162 C163 1.394 . S
C162 H170 0.930 . S
C163 C162 1.394 . S
C163 C164 1.383 . S
C163 H171 0.929 . S
C164 C163 1.383 . S
C164 C165 1.377 1_455 S
C165 H149 0.930 . S
C165 C164 1.377 1_655 S
C165 C166 1.379 . S
C166 H150 0.931 . S
C166 C160 1.383 1_655 S
C166 C165 1.379 . S
H167 C161 0.959 . S
H168 C161 0.961 . S
H169 C161 0.960 . S
H170 C162 0.930 . S
H171 C163 0.929 . S
C37 C12 1.496 1_655 S
C56 C27 1.487 . S
C73 C13 1.498 1_445 S
C92 C26 1.502 1_465 S
C109 C1 1.496 1_554 S
C128 C0 1.500 1_546 S
C145 C15 1.498 1_455 S
C164 C14 1.491 . S
