# Generated by pormake.
# Topology msp, (4)-cn, num edge types: 1
# Building blocks:
#     Node 0, Type 0, BuildingBlock: QUQFOY_clean_sbu_3, # of connection points: 4
#     Node 1, Type 0, BuildingBlock: QUQFOY_clean_sbu_3, # of connection points: 4
#     Node 2, Type 0, BuildingBlock: QUQFOY_clean_sbu_3, # of connection points: 4
#     Node 3, Type 0, BuildingBlock: QUQFOY_clean_sbu_3, # of connection points: 4
#     Node 4, Type 0, BuildingBlock: QUQFOY_clean_sbu_3, # of connection points: 4
#     Node 5, Type 0, BuildingBlock: QUQFOY_clean_sbu_3, # of connection points: 4
#     Node 6, Type 0, BuildingBlock: QUQFOY_clean_sbu_3, # of connection points: 4
#     Node 7, Type 0, BuildingBlock: QUQFOY_clean_sbu_3, # of connection points: 4
#     Edge 8, Type (0, 0), None
#     Edge 9, Type (0, 0), None
#     Edge 10, Type (0, 0), None
#     Edge 11, Type (0, 0), None
#     Edge 12, Type (0, 0), None
#     Edge 13, Type (0, 0), None
#     Edge 14, Type (0, 0), None
#     Edge 15, Type (0, 0), None
#     Edge 16, Type (0, 0), None
#     Edge 17, Type (0, 0), None
#     Edge 18, Type (0, 0), None
#     Edge 19, Type (0, 0), None
#     Edge 20, Type (0, 0), None
#     Edge 21, Type (0, 0), None
#     Edge 22, Type (0, 0), None
#     Edge 23, Type (0, 0), None
# Relax obj value: 0.142
# Max RMSD: 0.206
# Mean RMSD: 0.206
data_MOF--net-msp--node1-QUQFOY_clean_sbu_3--edge1-none
_symmetry_space_group_name_H-M    P1
_symmetry_Int_Tables_number       1
_symmetry_cell_setting            triclinic
loop_
_symmetry_equiv_pos_as_xyz
'x, y, z'
_cell_length_a     11.415034
_cell_length_b     10.395641
_cell_length_c     20.30135
_cell_angle_alpha  89.281768
_cell_angle_beta   98.816321
_cell_angle_gamma 87.961578
loop_
_atom_site_label
_atom_site_type_symbol
_atom_site_fract_x
_atom_site_fract_y
_atom_site_fract_z
_atom_type_partial_charge
C0 C -0.0091 0.53206 0.40206 0.0
O1 O 0.08486 0.58472 0.38979 0.0
Cd2 Cd 0.22709 0.48834 0.32373 0.0
O3 O 0.95378 0.43067 0.37206 0.0
Cd4 Cd -0.014 0.27639 0.28208 0.0
C5 C 0.17521 0.18628 0.39136 0.0
O6 O 0.11947 0.40341 0.22476 0.0
O7 O 0.11832 0.19711 0.208 0.0
O8 O 0.82145 0.39871 0.22002 0.0
C9 C 0.15937 0.30572 0.19677 0.0
O10 O 0.17754 0.28258 0.35382 0.0
C11 C 0.76264 0.30211 0.19973 0.0
O12 O 0.08429 0.11895 0.37687 0.0
O13 O 0.8043 0.19086 0.22077 0.0
C14 C 0.42407 0.53389 0.45206 0.0
O15 O 0.33348 0.59541 0.4673 0.0
Cd16 Cd 0.19408 0.50335 0.53366 0.0
O17 O 0.46031 0.42664 0.48041 0.0
Cd18 Cd 0.4289 0.27871 0.57277 0.0
C19 C 0.23808 0.19706 0.45928 0.0
O20 O 0.29545 0.40349 0.63182 0.0
O21 O 0.29757 0.19527 0.6445 0.0
O22 O 0.5856 0.3995 0.63275 0.0
C23 C 0.25502 0.30504 0.65719 0.0
O24 O 0.22281 0.30419 0.48538 0.0
C25 C 0.65111 0.30242 0.65422 0.0
O26 O 0.33342 0.13259 0.48117 0.0
O27 O 0.61635 0.19136 0.6352 0.0
C28 C 0.92275 0.58945 0.45143 0.0
O29 O 0.82879 0.53678 0.46371 0.0
Cd30 Cd 0.68656 0.63314 0.52978 0.0
O31 O -0.04014 0.69084 0.48143 0.0
Cd32 Cd 0.92765 0.84512 0.57141 0.0
C33 C 0.73845 0.93513 0.46213 0.0
O34 O 0.79418 0.71811 0.62873 0.0
O35 O 0.79532 0.92441 0.64549 0.0
O36 O 0.0922 0.72281 0.63347 0.0
C37 C 0.75428 0.81579 0.65673 0.0
O38 O 0.73612 0.83885 0.49968 0.0
C39 C 0.151 0.81941 0.65376 0.0
O40 O 0.82932 1.00252 0.47663 0.0
O41 O 0.10934 0.93066 0.63271 0.0
C42 C 0.48961 0.58765 0.40143 0.0
O43 O 0.58019 0.52614 0.38618 0.0
Cd44 Cd 0.71955 0.61823 0.31978 0.0
O45 O 0.45334 0.69489 0.37308 0.0
Cd46 Cd 0.48474 0.84285 0.28072 0.0
C47 C 0.67549 0.92445 0.39421 0.0
O48 O 0.61815 0.71806 0.22164 0.0
O49 O 0.61606 0.92627 0.20899 0.0
O50 O 0.32803 0.72203 0.22075 0.0
C51 C 0.65859 0.81651 0.19629 0.0
O52 O 0.69059 0.8174 0.36799 0.0
C53 C 0.26251 0.8191 0.19927 0.0
O54 O 0.58024 0.98907 0.37235 0.0
O55 O 0.29727 0.93017 0.21829 0.0
C56 C 0.4909 1.03207 0.90206 0.0
O57 O 0.58486 0.08473 0.88978 0.0
Cd58 Cd 0.72709 0.98838 0.82371 0.0
O59 O 0.45377 0.93067 0.87206 0.0
Cd60 Cd 0.48596 0.77639 0.78208 0.0
C61 C 0.67496 0.68671 0.89143 0.0
O62 O 0.61945 0.90339 0.72476 0.0
O63 O 0.61828 0.69709 0.70799 0.0
O64 O 0.32142 0.8987 0.72003 0.0
C65 C 0.65935 0.8057 0.69677 0.0
O66 O 0.67738 0.78285 0.85381 0.0
C67 C 0.26261 0.8021 0.69974 0.0
O68 O 0.58427 0.61905 0.87685 0.0
O69 O 0.30427 0.69085 0.72079 0.0
C70 C 0.92406 1.03389 -0.04794 0.0
O71 O 0.83346 0.09539 -0.0327 0.0
Cd72 Cd 0.69404 1.00335 0.03361 0.0
O73 O -0.03969 0.92663 -0.0196 0.0
Cd74 Cd 0.9289 0.77859 0.07273 0.0
C75 C 0.73826 0.69708 -0.04065 0.0
O76 O 0.79548 0.90348 0.13183 0.0
O77 O 0.7976 0.69524 0.1445 0.0
O78 O 0.08561 0.89947 0.13273 0.0
C79 C 0.75505 0.80501 0.15719 0.0
O80 O 0.72401 0.80383 -0.01399 0.0
C81 C 0.15115 0.8024 0.15421 0.0
O82 O 0.83329 0.63204 -0.01905 0.0
O83 O 0.11639 0.69134 0.13519 0.0
C84 C 0.42275 0.08946 -0.04857 0.0
O85 O 0.32878 1.03681 -0.0363 0.0
Cd86 Cd 0.18659 0.13325 0.02976 0.0
O87 O 0.45986 0.19086 -0.01857 0.0
Cd88 Cd 0.42765 0.34516 0.07139 0.0
C89 C 0.23805 0.43594 -0.03772 0.0
O90 O 0.29421 0.21813 0.12873 0.0
O91 O 0.29536 0.42443 0.1455 0.0
O92 O 0.59221 0.22283 0.13345 0.0
C93 C 0.2543 0.31582 0.15672 0.0
O94 O 0.23582 0.33949 -0.00023 0.0
C95 C 0.65103 0.31942 0.15375 0.0
O96 O 0.3293 0.50276 -0.02337 0.0
O97 O 0.60937 0.43067 0.1327 0.0
C98 C -0.01042 0.08766 0.90143 0.0
O99 O 0.0801 1.02613 0.88613 0.0
Cd100 Cd 0.21917 0.11824 0.8196 0.0
O101 O 0.95331 0.1949 0.87308 0.0
Cd102 Cd -0.01533 0.34263 0.78064 0.0
C103 C 0.17593 0.42443 0.89434 0.0
O104 O 0.11802 0.21815 0.72159 0.0
O105 O 0.11603 0.42634 0.70898 0.0
O106 O 0.82798 0.222 0.72073 0.0
C107 C 0.15856 0.31658 0.69629 0.0
O108 O 0.19283 0.31672 0.86913 0.0
C109 C 0.76247 0.3191 0.69928 0.0
O110 O 0.08008 0.48789 0.872 0.0
O111 O 0.79725 0.43016 0.7183 0.0
loop_
_geom_bond_atom_site_label_1
_geom_bond_atom_site_label_2
_geom_bond_distance
_geom_bond_site_symmetry_2
_ccdc_geom_bond_type
C0 O1 1.306 1_655 S
C0 O3 1.160 . S
O1 C0 1.306 1_455 S
O1 Cd2 2.228 . S
Cd2 O1 2.228 . S
Cd2 O6 2.273 . S
Cd2 O10 2.277 . S
O3 C0 1.160 . S
O3 Cd4 2.203 1_655 S
Cd4 O3 2.203 1_455 S
Cd4 O6 2.411 . S
Cd4 O7 2.333 . S
Cd4 O8 2.352 1_455 S
Cd4 O12 2.277 . S
Cd4 O13 2.356 1_455 S
C5 O10 1.209 . S
C5 O12 1.226 . S
O6 Cd2 2.273 . S
O6 Cd4 2.411 . S
O6 C9 1.320 . S
O7 Cd4 2.333 . S
O7 C9 1.214 . S
O8 Cd4 2.352 1_655 S
O8 C11 1.258 . S
C9 O6 1.320 . S
C9 O7 1.214 . S
O10 Cd2 2.277 . S
O10 C5 1.209 . S
C11 O8 1.258 . S
C11 O13 1.282 . S
O12 Cd4 2.277 . S
O12 C5 1.226 . S
O13 Cd4 2.356 1_655 S
O13 C11 1.282 . S
C14 O15 1.306 . S
C14 O17 1.160 . S
O15 C14 1.306 . S
O15 Cd16 2.228 . S
Cd16 O15 2.228 . S
Cd16 O20 2.273 . S
Cd16 O24 2.277 . S
O17 C14 1.160 . S
O17 Cd18 2.203 . S
Cd18 O17 2.203 . S
Cd18 O20 2.411 . S
Cd18 O21 2.333 . S
Cd18 O22 2.352 . S
Cd18 O26 2.277 . S
Cd18 O27 2.356 . S
C19 O24 1.209 . S
C19 O26 1.226 . S
O20 Cd16 2.273 . S
O20 Cd18 2.411 . S
O20 C23 1.320 . S
O21 Cd18 2.333 . S
O21 C23 1.214 . S
O22 Cd18 2.352 . S
O22 C25 1.258 . S
C23 O20 1.320 . S
C23 O21 1.214 . S
O24 Cd16 2.277 . S
O24 C19 1.209 . S
C25 O22 1.258 . S
C25 O27 1.282 . S
O26 Cd18 2.277 . S
O26 C19 1.226 . S
O27 Cd18 2.356 . S
O27 C25 1.282 . S
C28 O29 1.306 1_455 S
C28 O31 1.160 . S
O29 C28 1.306 1_655 S
O29 Cd30 2.228 . S
Cd30 O29 2.228 . S
Cd30 O34 2.273 . S
Cd30 O38 2.277 . S
O31 C28 1.160 . S
O31 Cd32 2.203 1_455 S
Cd32 O31 2.203 1_655 S
Cd32 O34 2.411 . S
Cd32 O35 2.333 . S
Cd32 O36 2.352 1_655 S
Cd32 O40 2.277 . S
Cd32 O41 2.356 1_655 S
C33 O38 1.209 . S
C33 O40 1.226 . S
O34 Cd30 2.273 . S
O34 Cd32 2.411 . S
O34 C37 1.320 . S
O35 Cd32 2.333 . S
O35 C37 1.214 . S
O36 Cd32 2.352 1_455 S
O36 C39 1.258 . S
C37 O34 1.320 . S
C37 O35 1.214 . S
O38 Cd30 2.277 . S
O38 C33 1.209 . S
C39 O36 1.258 . S
C39 O41 1.282 . S
O40 Cd32 2.277 . S
O40 C33 1.226 . S
O41 Cd32 2.356 1_455 S
O41 C39 1.282 . S
C42 O43 1.306 . S
C42 O45 1.160 . S
O43 C42 1.306 . S
O43 Cd44 2.228 . S
Cd44 O43 2.228 . S
Cd44 O48 2.273 . S
Cd44 O52 2.277 . S
O45 C42 1.160 . S
O45 Cd46 2.203 . S
Cd46 O45 2.203 . S
Cd46 O48 2.411 . S
Cd46 O49 2.333 . S
Cd46 O50 2.352 . S
Cd46 O54 2.277 . S
Cd46 O55 2.356 . S
C47 O52 1.209 . S
C47 O54 1.226 . S
O48 Cd44 2.273 . S
O48 Cd46 2.411 . S
O48 C51 1.320 . S
O49 Cd46 2.333 . S
O49 C51 1.214 . S
O50 Cd46 2.352 . S
O50 C53 1.258 . S
C51 O48 1.320 . S
C51 O49 1.214 . S
O52 Cd44 2.277 . S
O52 C47 1.209 . S
C53 O50 1.258 . S
C53 O55 1.282 . S
O54 Cd46 2.277 . S
O54 C47 1.226 . S
O55 Cd46 2.356 . S
O55 C53 1.282 . S
C56 O57 1.306 . S
C56 O59 1.160 . S
O57 C56 1.306 . S
O57 Cd58 2.228 . S
Cd58 O57 2.228 . S
Cd58 O62 2.273 . S
Cd58 O66 2.277 . S
O59 C56 1.160 . S
O59 Cd60 2.203 . S
Cd60 O59 2.203 . S
Cd60 O62 2.411 . S
Cd60 O63 2.333 . S
Cd60 O64 2.352 . S
Cd60 O68 2.277 . S
Cd60 O69 2.356 . S
C61 O66 1.212 . S
C61 O68 1.227 . S
O62 Cd58 2.273 . S
O62 Cd60 2.411 . S
O62 C65 1.320 . S
O63 Cd60 2.333 . S
O63 C65 1.214 . S
O64 Cd60 2.352 . S
O64 C67 1.258 . S
C65 O62 1.320 . S
C65 O63 1.214 . S
O66 Cd58 2.277 . S
O66 C61 1.212 . S
C67 O64 1.258 . S
C67 O69 1.282 . S
O68 Cd60 2.277 . S
O68 C61 1.227 . S
O69 Cd60 2.356 . S
O69 C67 1.282 . S
C70 O71 1.306 1_455 S
C70 O73 1.160 . S
O71 C70 1.306 1_655 S
O71 Cd72 2.228 . S
Cd72 O71 2.228 . S
Cd72 O76 2.273 . S
Cd72 O80 2.277 . S
O73 C70 1.160 . S
O73 Cd74 2.203 1_455 S
Cd74 O73 2.203 1_655 S
Cd74 O76 2.411 . S
Cd74 O77 2.333 . S
Cd74 O78 2.352 1_655 S
Cd74 O82 2.277 . S
Cd74 O83 2.356 1_655 S
C75 O80 1.212 . S
C75 O82 1.227 . S
O76 Cd72 2.273 . S
O76 Cd74 2.411 . S
O76 C79 1.320 . S
O77 Cd74 2.333 . S
O77 C79 1.214 . S
O78 Cd74 2.352 1_455 S
O78 C81 1.258 . S
C79 O76 1.320 . S
C79 O77 1.214 . S
O80 Cd72 2.277 . S
O80 C75 1.212 . S
C81 O78 1.258 . S
C81 O83 1.282 . S
O82 Cd74 2.277 . S
O82 C75 1.227 . S
O83 Cd74 2.356 1_455 S
O83 C81 1.282 . S
C84 O85 1.306 . S
C84 O87 1.160 . S
O85 C84 1.306 . S
O85 Cd86 2.228 . S
Cd86 O85 2.228 . S
Cd86 O90 2.273 . S
Cd86 O94 2.277 . S
O87 C84 1.160 . S
O87 Cd88 2.203 . S
Cd88 O87 2.203 . S
Cd88 O90 2.411 . S
Cd88 O91 2.333 . S
Cd88 O92 2.352 . S
Cd88 O96 2.277 . S
Cd88 O97 2.356 . S
C89 O94 1.212 . S
C89 O96 1.227 . S
O90 Cd86 2.273 . S
O90 Cd88 2.411 . S
O90 C93 1.320 . S
O91 Cd88 2.333 . S
O91 C93 1.214 . S
O92 Cd88 2.352 . S
O92 C95 1.258 . S
C93 O90 1.320 . S
C93 O91 1.214 . S
O94 Cd86 2.277 . S
O94 C89 1.212 . S
C95 O92 1.258 . S
C95 O97 1.282 . S
O96 Cd88 2.277 . S
O96 C89 1.227 . S
O97 Cd88 2.356 . S
O97 C95 1.282 . S
C98 O99 1.306 1_655 S
C98 O101 1.160 . S
O99 C98 1.306 1_455 S
O99 Cd100 2.228 . S
Cd100 O99 2.228 . S
Cd100 O104 2.273 . S
Cd100 O108 2.277 . S
O101 C98 1.160 . S
O101 Cd102 2.203 1_655 S
Cd102 O101 2.203 1_455 S
Cd102 O104 2.411 . S
Cd102 O105 2.333 . S
Cd102 O106 2.352 1_455 S
Cd102 O110 2.277 . S
Cd102 O111 2.356 1_455 S
C103 O108 1.212 . S
C103 O110 1.227 . S
O104 Cd100 2.273 . S
O104 Cd102 2.411 . S
O104 C107 1.320 . S
O105 Cd102 2.333 . S
O105 C107 1.214 . S
O106 Cd102 2.352 1_655 S
O106 C109 1.258 . S
C107 O104 1.320 . S
C107 O105 1.214 . S
O108 Cd100 2.277 . S
O108 C103 1.212 . S
C109 O106 1.258 . S
C109 O111 1.282 . S
O110 Cd102 2.277 . S
O110 C103 1.227 . S
O111 Cd102 2.356 1_655 S
O111 C109 1.282 . S
C0 C28 1.621 1_655 S
C42 C14 1.621 . S
C84 C56 1.621 1_544 S
C70 C98 1.621 1_464 S
C95 C11 2.479 . S
C25 C109 2.479 . S
C39 C67 2.479 . S
C53 C81 2.479 . S
C93 C9 1.643 . S
C23 C107 1.643 . S
C65 C37 1.643 . S
C79 C51 1.643 . S
C19 C5 1.015 . S
C33 C47 1.015 . S
C75 C61 1.016 1_554 S
C89 C103 1.016 1_554 S
