# Generated by pormake.
# Topology uoo, (4)-cn, num edge types: 1
# Building blocks:
#     Node 0, Type 0, BuildingBlock: CEKHIL_clean_sbu_0, # of connection points: 4
#     Node 1, Type 0, BuildingBlock: CEKHIL_clean_sbu_0, # of connection points: 4
#     Node 2, Type 0, BuildingBlock: CEKHIL_clean_sbu_0, # of connection points: 4
#     Node 3, Type 0, BuildingBlock: CEKHIL_clean_sbu_0, # of connection points: 4
#     Node 4, Type 0, BuildingBlock: CEKHIL_clean_sbu_0, # of connection points: 4
#     Node 5, Type 0, BuildingBlock: CEKHIL_clean_sbu_0, # of connection points: 4
#     Edge 6, Type (0, 0), BuildingBlock: OJICUG_clean_linker_0, # of connection points: 2
#     Edge 7, Type (0, 0), BuildingBlock: OJICUG_clean_linker_0, # of connection points: 2
#     Edge 8, Type (0, 0), BuildingBlock: OJICUG_clean_linker_0, # of connection points: 2
#     Edge 9, Type (0, 0), BuildingBlock: OJICUG_clean_linker_0, # of connection points: 2
#     Edge 10, Type (0, 0), BuildingBlock: OJICUG_clean_linker_0, # of connection points: 2
#     Edge 11, Type (0, 0), BuildingBlock: OJICUG_clean_linker_0, # of connection points: 2
#     Edge 12, Type (0, 0), BuildingBlock: OJICUG_clean_linker_0, # of connection points: 2
#     Edge 13, Type (0, 0), BuildingBlock: OJICUG_clean_linker_0, # of connection points: 2
#     Edge 14, Type (0, 0), BuildingBlock: OJICUG_clean_linker_0, # of connection points: 2
#     Edge 15, Type (0, 0), BuildingBlock: OJICUG_clean_linker_0, # of connection points: 2
#     Edge 16, Type (0, 0), BuildingBlock: OJICUG_clean_linker_0, # of connection points: 2
#     Edge 17, Type (0, 0), BuildingBlock: OJICUG_clean_linker_0, # of connection points: 2
# Relax obj value: 0.255
# Max RMSD: 0.173
# Mean RMSD: 0.173
data_MOF--net-uoo--node1-CEKHIL_clean_sbu_0--edge1-OJICUG_clean_linker_0
_symmetry_space_group_name_H-M    P1
_symmetry_Int_Tables_number       1
_symmetry_cell_setting            triclinic
loop_
_symmetry_equiv_pos_as_xyz
'x, y, z'
_cell_length_a     17.960119
_cell_length_b     17.951876
_cell_length_c     27.73364
_cell_angle_alpha  90.081239
_cell_angle_beta   89.599119
_cell_angle_gamma 119.96293
loop_
_atom_site_label
_atom_site_type_symbol
_atom_site_fract_x
_atom_site_fract_y
_atom_site_fract_z
_atom_type_partial_charge
Co0 Co 0.12432 0.31668 0.98321 0.0
O1 O 0.01015 0.29835 0.97171 0.0
O2 O 0.12549 0.42158 0.9926 0.0
C3 C 0.13648 0.2502 0.9178 0.0
O4 O 0.24986 0.36843 0.99545 0.0
Co5 Co 0.174 0.18098 0.00441 0.0
O6 O 0.29643 0.27474 0.00058 0.0
C7 C 0.08937 0.22636 0.08064 0.0
C8 C 0.04522 0.38033 0.98095 0.0
C9 C 0.31052 0.35156 -0.00084 0.0
O10 O 0.09532 0.28651 0.05306 0.0
O11 O 0.11224 0.17248 0.06706 0.0
O12 O 0.14868 0.32774 0.91519 0.0
O13 O 0.10948 0.21104 0.95902 0.0
Co14 Co 0.84137 0.16186 0.33162 0.0
O15 O 0.74259 0.065 0.30399 0.0
O16 O 0.74231 0.17163 0.34483 0.0
C17 C 0.92484 0.18942 0.26589 0.0
O18 O 0.92353 0.27124 0.36458 0.0
Co19 Co 0.01679 0.18915 0.35223 0.0
O20 O 0.05357 0.31233 0.33775 0.0
C21 C 0.87433 0.0848 0.42016 0.0
C22 C 0.69997 0.1006 0.32096 0.0
C23 C -0.00431 0.3303 0.34902 0.0
O24 O 0.82426 0.09772 0.39311 0.0
O25 O 0.95422 0.11486 0.41032 0.0
O26 O 0.87102 0.2176 0.26966 0.0
O27 O 0.92764 0.14457 0.30196 0.0
Co28 Co 0.65755 0.81023 0.66036 0.0
O29 O 0.65851 0.71078 0.63498 0.0
O30 O 0.54819 0.71144 0.67149 0.0
C31 C 0.71953 0.89239 0.59501 0.0
O32 O 0.62462 0.89085 0.69023 0.0
Co33 Co 0.80258 0.98867 0.68121 0.0
O34 O 0.71493 0.02361 0.66732 0.0
C35 C 0.75989 0.84856 0.75181 0.0
C36 C 0.57858 0.66869 0.64941 0.0
C37 C 0.63896 0.96475 0.6775 0.0
O38 O 0.69931 0.79589 0.72418 0.0
O39 O 0.80967 0.928 0.74102 0.0
O40 O 0.63742 0.83822 0.59649 0.0
O41 O 0.76311 0.89648 0.63308 0.0
Co42 Co 0.81904 0.66224 0.0015 0.0
O43 O 0.9171 0.66056 0.97472 0.0
O44 O 0.81095 0.55477 0.01659 0.0
C45 C 0.79297 0.71453 0.93453 0.0
O46 O 0.70836 0.63508 0.03377 0.0
Co47 Co 0.78879 0.81113 0.01793 0.0
O48 O 0.6665 0.72205 0.00491 0.0
C49 C 0.8981 0.78201 0.08583 0.0
C50 C 0.88205 0.58302 0.99243 0.0
C51 C 0.64912 0.64713 0.01772 0.0
O52 O 0.88256 0.71438 0.06213 0.0
O53 O 0.86788 0.83079 0.07414 0.0
O54 O 0.76482 0.63266 0.93933 0.0
O55 O 0.83576 0.76348 0.97044 0.0
Co56 Co 0.19138 0.85691 0.31568 0.0
O57 O 0.2876 0.97172 0.30603 0.0
O58 O 0.29455 0.855 0.32525 0.0
C59 C 0.11719 0.85133 0.25012 0.0
O60 O 0.11692 0.73044 0.3259 0.0
Co61 Co 0.00388 0.80497 0.33457 0.0
O62 O 0.97635 0.68303 0.32971 0.0
C63 C 0.13062 0.88921 0.4116 0.0
C64 C 0.33404 0.93594 0.31455 0.0
C65 C 0.03936 0.66934 0.32861 0.0
O66 O 0.18588 0.88151 0.38564 0.0
O67 O 0.05529 0.86792 0.39663 0.0
O68 O 0.18181 0.83795 0.24718 0.0
O69 O 0.10253 0.87401 0.29197 0.0
Co70 Co 0.31031 0.16226 0.65288 0.0
O71 O 0.29277 0.25598 0.63376 0.0
O72 O 0.41332 0.26718 0.66269 0.0
C73 C 0.25236 0.07934 0.58818 0.0
O74 O 0.36182 0.09149 0.6734 0.0
Co75 Co 0.17446 0.97767 0.67545 0.0
O76 O 0.26944 0.95092 0.66964 0.0
C77 C 0.20708 0.1123 0.74645 0.0
C78 C 0.37347 0.30417 0.64517 0.0
C79 C 0.3457 0.01395 0.673 0.0
O80 O 0.27027 0.16574 0.72 0.0
O81 O 0.15714 0.03395 0.73423 0.0
O82 O 0.33038 0.14396 0.58694 0.0
O83 O 0.2083 0.06945 0.62738 0.0
C84 C 0.23104 0.23438 0.79944 0.0
C85 C 0.19065 0.14515 0.79199 0.0
H86 H 0.24526 0.33663 0.84478 0.0
C87 C 0.1341 0.08955 0.82771 0.0
H88 H 0.27486 0.27932 0.77284 0.0
C89 C 0.1179 0.123 0.86974 0.0
C90 C 0.1568 0.21236 0.87608 0.0
H91 H 0.10215 0.02048 0.82311 0.0
H92 H 0.07336 0.07924 0.89649 0.0
C93 C 0.21387 0.26744 0.84072 0.0
C94 C 0.00882 0.15001 0.20861 0.0
C95 C 0.97457 0.20291 0.22092 0.0
H96 H 0.07137 0.11495 0.15427 0.0
C97 C 0.98236 0.26571 0.18801 0.0
H98 H 0.00332 0.10075 0.23328 0.0
C99 C 0.02124 0.27409 0.14316 0.0
C100 C 0.0529 0.21938 0.12976 0.0
H101 H 0.95707 0.30778 0.19658 0.0
H102 H 0.02468 0.32261 0.1186 0.0
C103 C 0.04732 0.15788 0.16327 0.0
C104 C 0.8883 0.03268 0.50228 0.0
C105 C 0.83658 0.03433 0.46491 0.0
H106 H 0.89183 0.98736 0.57339 0.0
C107 C 0.74674 0.98938 0.47116 0.0
H108 H 0.95766 0.06677 0.49868 0.0
C109 C 0.70943 0.94427 0.51358 0.0
C110 C 0.7608 0.94317 0.55108 0.0
H111 H 0.70466 0.98879 0.44318 0.0
H112 H 0.64002 0.91029 0.51694 0.0
C113 C 0.85068 0.98779 0.54515 0.0
C114 C 0.82922 0.839 0.87961 0.0
C115 C 0.78294 0.75011 0.88877 0.0
H116 H 0.85947 0.94018 0.82877 0.0
C117 C 0.73007 0.69435 0.85268 0.0
H118 H 0.87104 0.88342 0.90673 0.0
C119 C 0.72347 0.72657 0.80825 0.0
C120 C 0.76996 0.81542 0.7987 0.0
H121 H 0.69384 0.62551 0.85864 0.0
H122 H 0.68192 0.68144 0.78131 0.0
C123 C 0.82309 0.8714 0.83486 0.0
C124 C 0.00236 0.86607 0.20736 0.0
C125 C 0.06163 0.8366 0.20826 0.0
H126 H 0.90431 0.87324 0.16707 0.0
C127 C 0.06824 0.79221 0.16834 0.0
H128 H -0.00343 0.90104 0.23766 0.0
C129 C 0.01544 0.77565 0.12868 0.0
C130 C 0.95546 0.80409 0.12765 0.0
H131 H 0.11352 0.76898 0.16789 0.0
H132 H 0.02181 0.74048 0.09866 0.0
C133 C 0.95007 0.85063 0.16701 0.0
C134 C 0.27465 0.01371 0.51507 0.0
C135 C 0.21757 0.02158 0.54651 0.0
H136 H 0.29194 0.96481 0.44857 0.0
C137 C 0.12966 0.97966 0.53552 0.0
H138 H 0.34267 0.04479 0.52301 0.0
C139 C 0.10021 0.93431 0.49215 0.0
C140 C 0.15822 0.92924 0.4597 0.0
H141 H 0.08451 0.98513 0.55929 0.0
H142 H 0.03262 0.90511 0.48357 0.0
C143 C 0.24533 0.96759 0.47239 0.0
C144 C 0.41312 0.50863 0.99045 0.0
C145 C 0.39813 0.42601 0.00286 0.0
H146 H 0.50368 0.64336 0.98575 0.0
C147 C 0.46596 0.41714 0.02069 0.0
H148 H 0.36216 0.51769 0.97622 0.0
C149 C 0.54693 0.48965 0.02656 0.0
C150 C 0.56171 0.5723 0.01439 0.0
H151 H 0.45629 0.35461 0.03074 0.0
H152 H 0.59816 0.48057 0.0403 0.0
C153 C 0.49406 0.58096 0.99608 0.0
C154 C 0.93969 0.43216 0.35519 0.0
C155 C 0.00852 0.41779 0.34468 0.0
H156 H 0.89473 0.52242 0.35776 0.0
C157 C 0.08598 0.48592 0.32732 0.0
H158 H 0.87846 0.38058 0.36811 0.0
C159 C 0.09483 0.56707 0.32124 0.0
C160 C 0.02626 0.58162 0.33219 0.0
H161 H 0.13952 0.47659 0.31825 0.0
H162 H 0.15581 0.61856 0.30795 0.0
C163 C 0.94839 0.51317 0.34885 0.0
C164 C 0.50379 0.0711 0.66695 0.0
C165 C 0.4204 0.00099 0.6755 0.0
H166 H 0.63852 0.11507 0.66074 0.0
C167 C 0.41024 0.92022 0.68564 0.0
H168 H 0.51383 0.13439 0.65853 0.0
C169 C 0.48196 0.9097 0.68723 0.0
C170 C 0.56531 0.97959 0.6783 0.0
H171 H 0.34712 0.86528 0.69237 0.0
H172 H 0.47156 0.84601 0.69484 0.0
C173 C 0.57552 0.06043 0.66816 0.0
C174 C 0.50906 0.437 0.62713 0.0
C175 C 0.42106 0.39714 0.6385 0.0
H176 H 0.62824 0.55509 0.62112 0.0
C177 C 0.3833 0.44712 0.64883 0.0
H178 H 0.53908 0.39906 0.61865 0.0
C179 C 0.43463 0.53635 0.65097 0.0
C180 C 0.52374 0.57605 0.64209 0.0
H181 H 0.3156 0.41724 0.65791 0.0
H182 H 0.40497 0.57397 0.66098 0.0
C183 C 0.56003 0.52598 0.62854 0.0
C184 C 0.00597 0.56542 0.96949 0.0
C185 C 0.92084 0.52878 0.98559 0.0
H186 H 0.11166 0.54574 0.95521 0.0
C187 C 0.87365 0.44024 0.99614 0.0
H188 H 0.04348 0.63329 0.96089 0.0
C189 C 0.9123 0.38961 0.99212 0.0
C190 C -0.00126 0.42761 0.97833 0.0
H191 H 0.80739 0.4104 0.00823 0.0
H192 H 0.87607 0.32216 0.00185 0.0
C193 C 0.04479 0.51532 0.96625 0.0
C194 C 0.56561 0.10877 0.3252 0.0
C195 C 0.607 0.06148 0.31485 0.0
H196 H 0.44509 0.10594 0.33238 0.0
C197 C 0.5584 0.97548 0.30074 0.0
H198 H 0.6021 0.17564 0.33584 0.0
C199 C 0.4694 0.93599 0.29932 0.0
C200 C 0.42775 0.98223 0.31124 0.0
H201 H 0.58878 0.93783 0.29243 0.0
H202 H 0.43296 0.86859 0.28967 0.0
C203 C 0.47624 0.06943 0.32298 0.0
loop_
_geom_bond_atom_site_label_1
_geom_bond_atom_site_label_2
_geom_bond_distance
_geom_bond_site_symmetry_2
_ccdc_geom_bond_type
Co0 O1 2.216 . S
Co0 O2 2.091 . S
Co0 O4 2.004 1_556 S
Co0 O10 2.021 1_556 S
Co0 O12 2.137 . S
Co0 O13 2.244 . S
O1 Co0 2.216 . S
O1 C8 1.247 . S
O2 Co0 2.091 . S
O2 C8 1.261 . S
C3 O12 1.247 . S
C3 O13 1.272 . S
O4 Co0 2.004 1_554 S
O4 C9 1.259 . S
Co5 O6 2.061 . S
Co5 O11 2.052 . S
Co5 O13 2.135 1_554 S
O6 Co5 2.061 . S
O6 C9 1.235 . S
C7 O10 1.238 . S
C7 O11 1.241 . S
C8 O1 1.247 . S
C8 O2 1.261 . S
C9 O4 1.259 . S
C9 O6 1.235 . S
O10 Co0 2.021 1_554 S
O10 C7 1.238 . S
O11 Co5 2.052 . S
O11 C7 1.241 . S
O12 Co0 2.137 . S
O12 C3 1.247 . S
O13 Co0 2.244 . S
O13 C3 1.272 . S
O13 Co5 2.135 1_556 S
Co14 O15 2.216 . S
Co14 O16 2.091 . S
Co14 O18 2.004 . S
Co14 O24 2.021 . S
Co14 O26 2.137 . S
Co14 O27 2.244 . S
O15 Co14 2.216 . S
O15 C22 1.247 . S
O16 Co14 2.091 . S
O16 C22 1.261 . S
C17 O26 1.247 . S
C17 O27 1.272 . S
O18 Co14 2.004 . S
O18 C23 1.259 . S
Co19 O20 2.061 . S
Co19 O25 2.052 1_455 S
Co19 O27 2.135 1_455 S
O20 Co19 2.061 . S
O20 C23 1.235 1_455 S
C21 O24 1.238 . S
C21 O25 1.241 . S
C22 O15 1.247 . S
C22 O16 1.261 . S
C23 O18 1.259 . S
C23 O20 1.235 1_655 S
O24 Co14 2.021 . S
O24 C21 1.238 . S
O25 Co19 2.052 1_655 S
O25 C21 1.241 . S
O26 Co14 2.137 . S
O26 C17 1.247 . S
O27 Co14 2.244 . S
O27 C17 1.272 . S
O27 Co19 2.135 1_655 S
Co28 O29 2.216 . S
Co28 O30 2.091 . S
Co28 O32 2.004 . S
Co28 O38 2.021 . S
Co28 O40 2.137 . S
Co28 O41 2.244 . S
O29 Co28 2.216 . S
O29 C36 1.247 . S
O30 Co28 2.091 . S
O30 C36 1.261 . S
C31 O40 1.247 . S
C31 O41 1.272 . S
O32 Co28 2.004 . S
O32 C37 1.259 . S
Co33 O34 2.061 . S
Co33 O39 2.052 1_545 S
Co33 O41 2.135 1_545 S
O34 Co33 2.061 . S
O34 C37 1.235 1_545 S
C35 O38 1.238 . S
C35 O39 1.241 . S
C36 O29 1.247 . S
C36 O30 1.261 . S
C37 O32 1.259 . S
C37 O34 1.235 1_565 S
O38 Co28 2.021 . S
O38 C35 1.238 . S
O39 Co33 2.052 1_565 S
O39 C35 1.241 . S
O40 Co28 2.137 . S
O40 C31 1.247 . S
O41 Co28 2.244 . S
O41 C31 1.272 . S
O41 Co33 2.135 1_565 S
Co42 O43 2.216 . S
Co42 O44 2.091 . S
Co42 O46 2.004 1_556 S
Co42 O52 2.021 1_556 S
Co42 O54 2.137 . S
Co42 O55 2.244 . S
O43 Co42 2.216 . S
O43 C50 1.247 . S
O44 Co42 2.091 . S
O44 C50 1.261 . S
C45 O54 1.247 . S
C45 O55 1.272 . S
O46 Co42 2.004 1_554 S
O46 C51 1.259 . S
Co47 O48 2.061 . S
Co47 O53 2.052 . S
Co47 O55 2.135 1_554 S
O48 Co47 2.061 . S
O48 C51 1.235 . S
C49 O52 1.238 . S
C49 O53 1.241 . S
C50 O43 1.247 . S
C50 O44 1.261 . S
C51 O46 1.259 . S
C51 O48 1.235 . S
O52 Co42 2.021 1_554 S
O52 C49 1.238 . S
O53 Co47 2.052 . S
O53 C49 1.241 . S
O54 Co42 2.137 . S
O54 C45 1.247 . S
O55 Co42 2.244 . S
O55 C45 1.272 . S
O55 Co47 2.135 1_556 S
Co56 O57 2.216 . S
Co56 O58 2.091 . S
Co56 O60 2.004 . S
Co56 O66 2.021 . S
Co56 O68 2.137 . S
Co56 O69 2.244 . S
O57 Co56 2.216 . S
O57 C64 1.247 . S
O58 Co56 2.091 . S
O58 C64 1.261 . S
C59 O68 1.247 . S
C59 O69 1.272 . S
O60 Co56 2.004 . S
O60 C65 1.259 . S
Co61 O62 2.061 . S
Co61 O67 2.052 1_655 S
Co61 O69 2.135 1_655 S
O62 Co61 2.061 . S
O62 C65 1.235 1_655 S
C63 O66 1.238 . S
C63 O67 1.241 . S
C64 O57 1.247 . S
C64 O58 1.261 . S
C65 O60 1.259 . S
C65 O62 1.235 1_455 S
O66 Co56 2.021 . S
O66 C63 1.238 . S
O67 Co61 2.052 1_455 S
O67 C63 1.241 . S
O68 Co56 2.137 . S
O68 C59 1.247 . S
O69 Co56 2.244 . S
O69 C59 1.272 . S
O69 Co61 2.135 1_455 S
Co70 O71 2.216 . S
Co70 O72 2.091 . S
Co70 O74 2.004 . S
Co70 O80 2.021 . S
Co70 O82 2.137 . S
Co70 O83 2.244 . S
O71 Co70 2.216 . S
O71 C78 1.247 . S
O72 Co70 2.091 . S
O72 C78 1.261 . S
C73 O82 1.247 . S
C73 O83 1.272 . S
O74 Co70 2.004 . S
O74 C79 1.259 . S
Co75 O76 2.061 . S
Co75 O81 2.052 1_565 S
Co75 O83 2.135 1_565 S
O76 Co75 2.061 . S
O76 C79 1.235 1_565 S
C77 O80 1.238 . S
C77 O81 1.241 . S
C78 O71 1.247 . S
C78 O72 1.261 . S
C79 O74 1.259 . S
C79 O76 1.235 1_545 S
O80 Co70 2.021 . S
O80 C77 1.238 . S
O81 Co75 2.052 1_545 S
O81 C77 1.241 . S
O82 Co70 2.137 . S
O82 C73 1.247 . S
O83 Co70 2.244 . S
O83 C73 1.272 . S
O83 Co75 2.135 1_545 S
C84 C85 1.387 . S
C84 H88 0.950 . S
C84 C93 1.390 . S
C85 C84 1.387 . S
C85 C87 1.387 . S
H86 C93 0.950 . S
C87 C85 1.387 . S
C87 C89 1.390 . S
C87 H91 0.950 . S
H88 C84 0.950 . S
C89 C87 1.390 . S
C89 C90 1.387 . S
C89 H92 0.950 . S
C90 C89 1.387 . S
C90 C93 1.387 . S
H91 C87 0.950 . S
H92 C89 0.950 . S
C93 C84 1.390 . S
C93 H86 0.950 . S
C93 C90 1.387 . S
C94 C95 1.387 . S
C94 H98 0.950 . S
C94 C103 1.390 . S
C95 C94 1.387 . S
C95 C97 1.387 1_655 S
H96 C103 0.950 . S
C97 C95 1.387 1_455 S
C97 C99 1.390 . S
C97 H101 0.950 . S
H98 C94 0.950 . S
C99 C97 1.390 . S
C99 C100 1.387 . S
C99 H102 0.950 . S
C100 C99 1.387 . S
C100 C103 1.387 1_455 S
H101 C97 0.950 . S
H102 C99 0.950 . S
C103 C94 1.390 . S
C103 H96 0.950 . S
C103 C100 1.387 1_655 S
C104 C105 1.387 . S
C104 H108 0.950 . S
C104 C113 1.390 1_545 S
C105 C104 1.387 . S
C105 C107 1.387 . S
H106 C113 0.950 . S
C107 C105 1.387 . S
C107 C109 1.390 1_545 S
C107 H111 0.950 . S
H108 C104 0.950 . S
C109 C107 1.390 1_565 S
C109 C110 1.387 . S
C109 H112 0.950 . S
C110 C109 1.387 . S
C110 C113 1.387 . S
H111 C107 0.950 . S
H112 C109 0.950 . S
C113 C104 1.390 1_565 S
C113 H106 0.950 . S
C113 C110 1.387 . S
C114 C115 1.387 . S
C114 H118 0.950 . S
C114 C123 1.390 . S
C115 C114 1.387 . S
C115 C117 1.387 . S
H116 C123 0.950 . S
C117 C115 1.387 . S
C117 C119 1.390 . S
C117 H121 0.950 . S
H118 C114 0.950 . S
C119 C117 1.390 . S
C119 C120 1.387 . S
C119 H122 0.950 . S
C120 C119 1.387 . S
C120 C123 1.387 . S
H121 C117 0.950 . S
H122 C119 0.950 . S
C123 C114 1.390 . S
C123 H116 0.950 . S
C123 C120 1.387 . S
C124 C125 1.387 1_655 S
C124 H128 0.950 . S
C124 C133 1.390 . S
C125 C124 1.387 1_455 S
C125 C127 1.387 . S
H126 C133 0.950 . S
C127 C125 1.387 . S
C127 C129 1.390 . S
C127 H131 0.950 . S
H128 C124 0.950 . S
C129 C127 1.390 . S
C129 C130 1.387 1_455 S
C129 H132 0.950 . S
C130 C129 1.387 1_655 S
C130 C133 1.387 . S
H131 C127 0.950 . S
H132 C129 0.950 . S
C133 C124 1.390 . S
C133 H126 0.950 . S
C133 C130 1.387 . S
C134 C135 1.387 1_565 S
C134 H138 0.950 . S
C134 C143 1.390 . S
C135 C134 1.387 1_545 S
C135 C137 1.387 . S
H136 C143 0.950 . S
C137 C135 1.387 . S
C137 C139 1.390 1_545 S
C137 H141 0.950 . S
H138 C134 0.950 . S
C139 C137 1.390 1_565 S
C139 C140 1.387 . S
C139 H142 0.950 . S
C140 C139 1.387 . S
C140 C143 1.387 . S
H141 C137 0.950 . S
H142 C139 0.950 . S
C143 C134 1.390 . S
C143 H136 0.950 . S
C143 C140 1.387 . S
C144 C145 1.387 1_556 S
C144 H148 0.950 . S
C144 C153 1.390 . S
C145 C144 1.387 1_554 S
C145 C147 1.387 . S
H146 C153 0.950 . S
C147 C145 1.387 . S
C147 C149 1.390 . S
C147 H151 0.950 . S
H148 C144 0.950 . S
C149 C147 1.390 . S
C149 C150 1.387 . S
C149 H152 0.950 . S
C150 C149 1.387 . S
C150 C153 1.387 1_554 S
H151 C147 0.950 . S
H152 C149 0.950 . S
C153 C144 1.390 . S
C153 H146 0.950 . S
C153 C150 1.387 1_556 S
C154 C155 1.387 . S
C154 H158 0.950 . S
C154 C163 1.390 1_655 S
C155 C154 1.387 . S
C155 C157 1.387 . S
H156 C163 0.950 . S
C157 C155 1.387 . S
C157 C159 1.390 1_655 S
C157 H161 0.950 . S
H158 C154 0.950 . S
C159 C157 1.390 1_455 S
C159 C160 1.387 . S
C159 H162 0.950 . S
C160 C159 1.387 . S
C160 C163 1.387 . S
H161 C157 0.950 . S
H162 C159 0.950 . S
C163 C154 1.390 1_455 S
C163 H156 0.950 . S
C163 C160 1.387 . S
C164 C165 1.387 . S
C164 H168 0.950 . S
C164 C173 1.390 1_545 S
C165 C164 1.387 . S
C165 C167 1.387 . S
H166 C173 0.950 . S
C167 C165 1.387 . S
C167 C169 1.390 1_545 S
C167 H171 0.950 . S
H168 C164 0.950 . S
C169 C167 1.390 1_565 S
C169 C170 1.387 . S
C169 H172 0.950 . S
C170 C169 1.387 . S
C170 C173 1.387 . S
H171 C167 0.950 . S
H172 C169 0.950 . S
C173 C164 1.390 1_565 S
C173 H166 0.950 . S
C173 C170 1.387 . S
C174 C175 1.387 . S
C174 H178 0.950 . S
C174 C183 1.390 . S
C175 C174 1.387 . S
C175 C177 1.387 . S
H176 C183 0.950 . S
C177 C175 1.387 . S
C177 C179 1.390 . S
C177 H181 0.950 . S
H178 C174 0.950 . S
C179 C177 1.390 . S
C179 C180 1.387 . S
C179 H182 0.950 . S
C180 C179 1.387 . S
C180 C183 1.387 . S
H181 C177 0.950 . S
H182 C179 0.950 . S
C183 C174 1.390 . S
C183 H176 0.950 . S
C183 C180 1.387 . S
C184 C185 1.387 . S
C184 H188 0.950 . S
C184 C193 1.390 1_655 S
C185 C184 1.387 . S
C185 C187 1.387 1_556 S
H186 C193 0.950 . S
C187 C185 1.387 1_554 S
C187 C189 1.390 1_655 S
C187 H191 0.950 . S
H188 C184 0.950 . S
C189 C187 1.390 1_455 S
C189 C190 1.387 1_554 S
C189 H192 0.950 . S
C190 C189 1.387 1_556 S
C190 C193 1.387 . S
H191 C187 0.950 . S
H192 C189 0.950 . S
C193 C184 1.390 1_455 S
C193 H186 0.950 . S
C193 C190 1.387 . S
C194 C195 1.387 . S
C194 H198 0.950 . S
C194 C203 1.390 1_545 S
C195 C194 1.387 . S
C195 C197 1.387 . S
H196 C203 0.950 . S
C197 C195 1.387 . S
C197 C199 1.390 1_545 S
C197 H201 0.950 . S
H198 C194 0.950 . S
C199 C197 1.390 1_565 S
C199 C200 1.387 . S
C199 H202 0.950 . S
C200 C199 1.387 . S
C200 C203 1.387 . S
H201 C197 0.950 . S
H202 C199 0.950 . S
C203 C194 1.390 1_565 S
C203 H196 0.950 . S
C203 C200 1.387 . S
C85 C77 1.372 . S
C90 C3 1.355 . S
C95 C17 1.354 . S
C100 C7 1.372 . S
C105 C21 1.372 . S
C110 C31 1.353 . S
C115 C45 1.352 . S
C120 C35 1.372 . S
C125 C59 1.352 . S
C130 C49 1.372 . S
C135 C73 1.353 . S
C140 C63 1.372 . S
C145 C9 1.588 . S
C150 C51 1.588 . S
C155 C23 1.586 . S
C160 C65 1.586 . S
C165 C79 1.588 . S
C170 C37 1.588 . S
C175 C78 1.482 . S
C180 C36 1.482 . S
C185 C50 1.482 . S
C190 C8 1.482 . S
C195 C22 1.485 . S
C200 C64 1.485 . S
