# Generated by pormake.
# Topology smm, (6)-cn, num edge types: 1
# Building blocks:
#     Node 0, Type 0, BuildingBlock: LEVNOQ01_clean_sbu_1, # of connection points: 6
#     Node 1, Type 0, BuildingBlock: LEVNOQ01_clean_sbu_1, # of connection points: 6
#     Node 2, Type 0, BuildingBlock: LEVNOQ01_clean_sbu_1, # of connection points: 6
#     Node 3, Type 0, BuildingBlock: LEVNOQ01_clean_sbu_1, # of connection points: 6
#     Node 4, Type 0, BuildingBlock: LEVNOQ01_clean_sbu_1, # of connection points: 6
#     Node 5, Type 0, BuildingBlock: LEVNOQ01_clean_sbu_1, # of connection points: 6
#     Node 6, Type 0, BuildingBlock: LEVNOQ01_clean_sbu_1, # of connection points: 6
#     Node 7, Type 0, BuildingBlock: LEVNOQ01_clean_sbu_1, # of connection points: 6
#     Node 8, Type 0, BuildingBlock: LEVNOQ01_clean_sbu_1, # of connection points: 6
#     Edge 9, Type (0, 0), None
#     Edge 10, Type (0, 0), None
#     Edge 11, Type (0, 0), None
#     Edge 12, Type (0, 0), None
#     Edge 13, Type (0, 0), None
#     Edge 14, Type (0, 0), None
#     Edge 15, Type (0, 0), None
#     Edge 16, Type (0, 0), None
#     Edge 17, Type (0, 0), None
#     Edge 18, Type (0, 0), None
#     Edge 19, Type (0, 0), None
#     Edge 20, Type (0, 0), None
#     Edge 21, Type (0, 0), None
#     Edge 22, Type (0, 0), None
#     Edge 23, Type (0, 0), None
#     Edge 24, Type (0, 0), None
#     Edge 25, Type (0, 0), None
#     Edge 26, Type (0, 0), None
#     Edge 27, Type (0, 0), None
#     Edge 28, Type (0, 0), None
#     Edge 29, Type (0, 0), None
#     Edge 30, Type (0, 0), None
#     Edge 31, Type (0, 0), None
#     Edge 32, Type (0, 0), None
#     Edge 33, Type (0, 0), None
#     Edge 34, Type (0, 0), None
#     Edge 35, Type (0, 0), None
# Relax obj value: 0.193
# Max RMSD: 0.225
# Mean RMSD: 0.207
data_MOF--net-smm--node1-LEVNOQ01_clean_sbu_1--edge1-none
_symmetry_space_group_name_H-M    P1
_symmetry_Int_Tables_number       1
_symmetry_cell_setting            triclinic
loop_
_symmetry_equiv_pos_as_xyz
'x, y, z'
_cell_length_a     25.576043
_cell_length_b     25.190676
_cell_length_c     6.8659598
_cell_angle_alpha  93.894197
_cell_angle_beta   93.729343
_cell_angle_gamma 119.23605
loop_
_atom_site_label
_atom_site_type_symbol
_atom_site_fract_x
_atom_site_fract_y
_atom_site_fract_z
_atom_type_partial_charge
O0 O 0.10089 0.32515 0.1296 0.0
Mg1 Mg 0.05002 0.26967 0.35179 0.0
O2 O 0.03897 0.25304 0.89455 0.0
Mg3 Mg 0.97214 0.16032 -0.01688 0.0
O4 O 0.01524 0.18379 0.27486 0.0
O5 O 0.06006 0.21845 0.57258 0.0
O6 O 0.89672 0.06811 0.07321 0.0
O7 O 0.03373 0.1201 0.94384 0.0
Mg8 Mg 0.90232 0.0361 0.68156 0.0
O9 O 0.93948 0.12855 0.66146 0.0
O10 O 0.82575 0.01366 0.82731 0.0
O11 O 0.96011 0.02399 0.88952 0.0
O12 O 0.95152 0.06757 0.44209 0.0
C13 C 0.92267 0.24757 0.21612 0.0
C14 C 0.08095 0.30752 0.94868 0.0
C15 C 0.019 0.17389 0.45298 0.0
C16 C 0.84596 0.02108 0.00718 0.0
C17 C 0.01465 0.0634 0.94783 0.0
C18 C 0.96913 0.1217 0.52421 0.0
O19 O 0.96323 0.26271 0.35833 0.0
O20 O 0.9185 0.2131 0.06016 0.0
O21 O 0.68 0.67071 0.95142 0.0
Mg22 Mg 0.70697 0.71662 0.68549 0.0
O23 O 0.7634 0.72258 0.15926 0.0
Mg24 Mg 0.79965 0.82012 0.07842 0.0
O25 O 0.78549 0.78637 0.78352 0.0
O26 O 0.78463 0.73578 0.52419 0.0
O27 O 0.82806 0.9194 0.00063 0.0
O28 O 0.89396 0.83032 0.06723 0.0
Mg29 Mg 0.89868 0.93544 0.41136 0.0
O30 O 0.82423 0.85356 0.40203 0.0
O31 O 0.84771 0.97492 0.28838 0.0
O32 O 0.95876 0.92084 0.2292 0.0
O33 O 0.89018 0.88917 0.66523 0.0
C34 C 0.66496 0.79177 0.86163 0.0
C35 C 0.70897 0.67985 0.12036 0.0
C36 C 0.81256 0.78539 0.63892 0.0
C37 C 0.83297 0.96641 0.10395 0.0
C38 C 0.94782 0.8728 0.11859 0.0
C39 C 0.84644 0.84285 0.55858 0.0
O40 O 0.68512 0.78848 0.70045 0.0
O41 O 0.69799 0.80132 0.0267 0.0
O42 O 0.26977 -0.01861 0.04208 0.0
Mg43 Mg 0.26587 0.03457 0.31351 0.0
O44 O 0.17695 0.92858 0.88244 0.0
Mg45 Mg 0.14175 -0.00581 -0.0135 0.0
O46 O 0.17696 -0.00459 0.28323 0.0
O47 O 0.22096 0.00117 0.56906 0.0
O48 O 0.10449 0.06033 0.06343 0.0
O49 O 0.04842 0.9201 0.05994 0.0
Mg50 Mg 0.01157 0.91609 0.62574 0.0
O51 O 0.10302 0.97883 0.67097 0.0
O52 O 0.03914 -0.00685 0.82812 0.0
O53 O -0.01812 0.84946 0.83169 0.0
O54 O 0.06864 0.90556 0.43066 0.0
C55 C 0.28051 0.11744 0.0843 0.0
C56 C 0.23226 0.94222 0.90046 0.0
C57 C 0.17186 -0.01789 0.45743 0.0
C58 C 0.05557 0.03947 0.94954 0.0
C59 C -0.00354 0.87374 0.00944 0.0
C60 C 0.11365 0.95252 0.52797 0.0
O61 O 0.26943 0.11753 0.25961 0.0
O62 O 0.23766 0.07966 0.95089 0.0
O63 O 0.48213 0.51442 0.25399 0.0
Mg64 Mg 0.55193 0.55568 0.06159 0.0
O65 O 0.55593 0.52988 0.47107 0.0
Mg66 Mg 0.63422 0.51883 0.34579 0.0
O67 O 0.6212 0.5387 0.0593 0.0
O68 O 0.55206 0.49399 0.81857 0.0
O69 O 0.71991 0.51705 0.26791 0.0
O70 O 0.57135 0.41557 0.22062 0.0
Mg71 Mg 0.63163 0.40452 0.56662 0.0
O72 O 0.65003 0.49124 0.63269 0.0
O73 O 0.67779 0.41953 0.29835 0.0
O74 O 0.53822 0.36498 0.46884 0.0
O75 O 0.64164 0.43665 0.87225 0.0
C76 C 0.67458 0.65029 0.28446 0.0
C77 C 0.50417 0.52483 0.43241 0.0
C78 C 0.60273 0.50449 0.90017 0.0
C79 C 0.72259 0.46798 0.25834 0.0
C80 C 0.53753 0.36496 0.28518 0.0
C81 C 0.63905 0.48222 0.80928 0.0
O82 O 0.61847 0.63309 0.26384 0.0
O83 O 0.69352 0.62301 0.39712 0.0
O84 O 0.40898 0.02239 0.15172 0.0
Mg85 Mg 0.40003 0.06204 0.87598 0.0
O86 O 0.48519 0.09196 0.35353 0.0
Mg87 Mg 0.4904 0.17763 0.21454 0.0
O88 O 0.47744 0.13788 0.91935 0.0
O89 O 0.43121 0.11194 0.62604 0.0
O90 O 0.49353 0.26527 0.11776 0.0
O91 O 0.59262 0.2111 0.17702 0.0
Mg92 Mg 0.60356 0.2876 0.54779 0.0
O93 O 0.51399 0.22499 0.51814 0.0
O94 O 0.58546 0.30839 0.25404 0.0
O95 O 0.6397 0.22883 0.46967 0.0
O96 O 0.56162 0.25193 0.80987 0.0
C97 C 0.33977 0.12316 0.06166 0.0
C98 C 0.44325 0.0367 0.31193 0.0
C99 C 0.47325 0.15327 0.74942 0.0
C100 C 0.54119 0.31379 0.18876 0.0
C101 C 0.64111 0.22548 0.28545 0.0
C102 C 0.51502 0.21329 0.69457 0.0
O103 O 0.34012 0.09231 0.91042 0.0
O104 O 0.38327 0.14518 0.20463 0.0
O105 O 7e-05 0.47906 0.33363 0.0
Mg106 Mg 0.95253 0.42425 0.05308 0.0
O107 O 0.91517 0.46126 0.42283 0.0
Mg108 Mg 0.83182 0.36987 0.30755 0.0
O109 O 0.86078 0.37339 0.02861 0.0
O110 O 0.90019 0.45144 0.86593 0.0
O111 O 0.74358 0.27725 0.22275 0.0
O112 O 0.7873 0.43006 0.21539 0.0
Mg113 Mg 0.73173 0.38602 0.54601 0.0
O114 O 0.79899 0.36921 0.59642 0.0
O115 O 0.69526 0.3276 0.26423 0.0
O116 O 0.79243 0.47815 0.49495 0.0
O117 O 0.74944 0.37286 0.8405 0.0
C118 C 0.90481 0.29435 0.19816 0.0
C119 C 0.96897 0.47448 0.4732 0.0
C120 C 0.85317 0.40412 0.90604 0.0
C121 C 0.69399 0.2773 0.22573 0.0
C122 C 0.78013 0.47091 0.3114 0.0
C123 C 0.79757 0.37676 0.78 0.0
O124 O 0.93343 0.33194 0.07634 0.0
O125 O 0.87812 0.30738 0.33319 0.0
O126 O 0.45082 0.00847 0.64204 0.0
Mg127 Mg 0.37986 0.96118 0.83178 0.0
O128 O 0.37726 0.93917 0.42986 0.0
Mg129 Mg 0.31257 0.84253 0.55681 0.0
O130 O 0.36014 0.87225 0.85467 0.0
O131 O 0.33292 0.91715 0.07385 0.0
O132 O 0.24682 0.74657 0.66054 0.0
O133 O 0.38327 0.81254 0.52237 0.0
Mg134 Mg 0.24869 0.71833 0.24222 0.0
O135 O 0.26987 0.80859 0.24182 0.0
O136 O 0.17617 0.6835 0.42304 0.0
O137 O 0.31337 0.71702 0.44053 0.0
O138 O 0.29865 0.76407 0.01911 0.0
C139 C 0.25761 0.92545 0.73052 0.0
C140 C 0.42568 -0.00846 0.46558 0.0
C141 C 0.33339 0.86928 0.00801 0.0
C142 C 0.19823 0.69594 0.60317 0.0
C143 C 0.36336 0.75602 0.53572 0.0
C144 C 0.29972 0.81242 0.09361 0.0
O145 O 0.30777 0.96656 0.68943 0.0
O146 O 0.2414 0.87009 0.66913 0.0
O147 O 0.06034 0.33205 0.63878 0.0
Mg148 Mg 0.02592 0.37334 0.4356 0.0
O149 O 0.10961 0.4084 0.87477 0.0
Mg150 Mg 0.12298 0.49741 0.75702 0.0
O151 O 0.09763 0.45602 0.46882 0.0
O152 O 0.06025 0.42096 0.172 0.0
O153 O 0.1436 0.5905 0.65439 0.0
O154 O 0.21608 0.51508 0.6991 0.0
Mg155 Mg 0.23394 0.60077 0.09204 0.0
O156 O 0.14883 0.53598 0.05688 0.0
O157 O 0.21857 0.65526 0.88107 0.0
O158 O 0.27827 0.55315 0.97116 0.0
O159 O 0.19236 0.56252 0.35326 0.0
C160 C -0.01956 0.44625 0.63984 0.0
C161 C 0.08901 0.35266 0.80941 0.0
C162 C 0.10087 0.46543 0.29156 0.0
C163 C 0.1831 0.64496 0.7253 0.0
C164 C 0.26662 0.53052 0.79249 0.0
C165 C 0.14671 0.52393 0.23334 0.0
O166 O 0.96672 0.39102 0.59827 0.0
O167 O 0.02542 0.47994 0.769 0.0
O168 O 0.48236 0.54059 0.75806 0.0
Mg169 Mg 0.51356 0.61666 -0.00956 0.0
O170 O 0.48248 0.60243 0.55423 0.0
Mg171 Mg 0.4579 0.67318 0.7035 0.0
O172 O 0.48012 0.6732 0.00477 0.0
O173 O 0.44918 0.59927 0.18889 0.0
O174 O 0.43418 0.75179 0.77325 0.0
O175 O 0.36598 0.59279 0.75674 0.0
Mg176 Mg 0.32555 0.62828 0.42876 0.0
O177 O 0.41758 0.67123 0.41225 0.0
O178 O 0.343 0.67771 0.7193 0.0
O179 O 0.30612 0.5393 0.49148 0.0
O180 O 0.36008 0.65534 0.14814 0.0
C181 C 0.60091 0.74712 0.85372 0.0
C182 C 0.48314 0.55358 0.58417 0.0
C183 C 0.44577 0.64449 0.1297 0.0
C184 C 0.37943 0.73339 0.71093 0.0
C185 C 0.3175 0.54626 0.67704 0.0
C186 C 0.41162 0.667 0.22783 0.0
O187 O 0.59014 0.70209 0.95162 0.0
O188 O 0.56093 0.74652 0.72514 0.0
loop_
_geom_bond_atom_site_label_1
_geom_bond_atom_site_label_2
_geom_bond_distance
_geom_bond_site_symmetry_2
_ccdc_geom_bond_type
O0 Mg1 1.990 . S
O0 C14 1.253 . S
Mg1 O0 1.990 . S
Mg1 O4 2.180 . S
Mg1 O5 2.117 . S
Mg1 O19 2.030 1_455 S
O2 Mg3 2.069 1_456 S
O2 C14 1.260 1_556 S
Mg3 O2 2.069 1_654 S
Mg3 O4 2.100 1_655 S
Mg3 O6 2.082 . S
Mg3 O7 2.061 1_655 S
Mg3 O9 2.098 1_554 S
Mg3 O20 2.090 . S
O4 Mg1 2.180 . S
O4 Mg3 2.100 1_455 S
O4 C15 1.279 . S
O5 Mg1 2.117 . S
O5 C15 1.250 . S
O6 Mg3 2.082 . S
O6 C16 1.264 . S
O7 Mg3 2.061 1_455 S
O7 C17 1.260 . S
Mg8 O9 2.180 . S
Mg8 O10 2.030 . S
Mg8 O11 1.990 1_655 S
Mg8 O12 2.117 1_655 S
O9 Mg3 2.098 1_556 S
O9 Mg8 2.180 . S
O9 C18 1.279 1_655 S
O10 Mg8 2.030 . S
O10 C16 1.248 1_556 S
O11 Mg8 1.990 1_455 S
O11 C17 1.253 1_556 S
O12 Mg8 2.117 1_455 S
O12 C18 1.250 . S
C13 O19 1.248 . S
C13 O20 1.264 . S
C14 O0 1.253 . S
C14 O2 1.260 1_554 S
C15 O4 1.279 . S
C15 O5 1.250 . S
C16 O6 1.264 . S
C16 O10 1.248 1_554 S
C17 O7 1.260 . S
C17 O11 1.253 1_554 S
C18 O9 1.279 1_455 S
C18 O12 1.250 . S
O19 Mg1 2.030 1_655 S
O19 C13 1.248 . S
O20 Mg3 2.090 . S
O20 C13 1.264 . S
O21 Mg22 1.990 . S
O21 C35 1.253 1_556 S
Mg22 O21 1.990 . S
Mg22 O25 2.180 . S
Mg22 O26 2.117 . S
Mg22 O40 2.030 . S
O23 Mg24 2.072 . S
O23 C35 1.260 . S
Mg24 O23 2.072 . S
Mg24 O25 2.099 1_554 S
Mg24 O27 2.079 . S
Mg24 O28 2.072 . S
Mg24 O30 2.099 . S
Mg24 O41 2.079 . S
O25 Mg22 2.180 . S
O25 Mg24 2.099 1_556 S
O25 C36 1.279 . S
O26 Mg22 2.117 . S
O26 C36 1.250 . S
O27 Mg24 2.079 . S
O27 C37 1.264 1_565 S
O28 Mg24 2.072 . S
O28 C38 1.260 . S
Mg29 O30 2.180 . S
Mg29 O31 2.030 1_565 S
Mg29 O32 1.990 . S
Mg29 O33 2.117 . S
O30 Mg24 2.099 . S
O30 Mg29 2.180 . S
O30 C39 1.279 . S
O31 Mg29 2.030 1_545 S
O31 C37 1.248 . S
O32 Mg29 1.990 . S
O32 C38 1.253 . S
O33 Mg29 2.117 . S
O33 C39 1.250 . S
C34 O40 1.248 1_554 S
C34 O41 1.264 . S
C35 O21 1.253 1_554 S
C35 O23 1.260 . S
C36 O25 1.279 . S
C36 O26 1.250 . S
C37 O27 1.264 1_545 S
C37 O31 1.248 . S
C38 O28 1.260 . S
C38 O32 1.253 . S
C39 O30 1.279 . S
C39 O33 1.250 . S
O40 Mg22 2.030 . S
O40 C34 1.248 1_556 S
O41 Mg24 2.079 . S
O41 C34 1.264 . S
O42 Mg43 1.990 1_565 S
O42 C56 1.253 1_554 S
Mg43 O42 1.990 1_545 S
Mg43 O46 2.180 . S
Mg43 O47 2.117 1_545 S
Mg43 O61 2.030 . S
O44 Mg45 2.072 1_566 S
O44 C56 1.260 . S
Mg45 O44 2.072 1_544 S
Mg45 O46 2.099 . S
Mg45 O48 2.079 . S
Mg45 O49 2.072 1_545 S
Mg45 O51 2.099 1_554 S
Mg45 O62 2.079 . S
O46 Mg43 2.180 . S
O46 Mg45 2.099 . S
O46 C57 1.279 1_545 S
O47 Mg43 2.117 1_565 S
O47 C57 1.250 . S
O48 Mg45 2.079 . S
O48 C58 1.264 . S
O49 Mg45 2.072 1_565 S
O49 C59 1.260 1_554 S
Mg50 O51 2.180 . S
Mg50 O52 2.030 . S
Mg50 O53 1.990 1_545 S
Mg50 O54 2.117 1_545 S
O51 Mg45 2.099 1_556 S
O51 Mg50 2.180 . S
O51 C60 1.279 . S
O52 Mg50 2.030 . S
O52 C58 1.248 1_556 S
O53 Mg50 1.990 1_565 S
O53 C59 1.253 . S
O54 Mg50 2.117 1_565 S
O54 C60 1.250 1_565 S
C55 O61 1.248 . S
C55 O62 1.264 . S
C56 O42 1.253 1_556 S
C56 O44 1.260 . S
C57 O46 1.279 1_565 S
C57 O47 1.250 . S
C58 O48 1.264 . S
C58 O52 1.248 1_554 S
C59 O49 1.260 1_556 S
C59 O53 1.253 . S
C60 O51 1.279 . S
C60 O54 1.250 1_545 S
O61 Mg43 2.030 . S
O61 C55 1.248 . S
O62 Mg45 2.079 . S
O62 C55 1.264 . S
O63 Mg64 1.990 1_554 S
O63 C77 1.253 . S
Mg64 O63 1.990 1_556 S
Mg64 O67 2.180 . S
Mg64 O68 2.117 . S
Mg64 O82 2.030 1_556 S
O65 Mg66 2.072 . S
O65 C77 1.260 . S
Mg66 O65 2.072 . S
Mg66 O67 2.099 1_554 S
Mg66 O69 2.079 . S
Mg66 O70 2.072 . S
Mg66 O72 2.099 . S
Mg66 O83 2.079 . S
O67 Mg64 2.180 . S
O67 Mg66 2.099 1_556 S
O67 C78 1.279 . S
O68 Mg64 2.117 . S
O68 C78 1.250 . S
O69 Mg66 2.079 . S
O69 C79 1.264 . S
O70 Mg66 2.072 . S
O70 C80 1.260 . S
Mg71 O72 2.180 . S
Mg71 O73 2.030 . S
Mg71 O74 1.990 . S
Mg71 O75 2.117 . S
O72 Mg66 2.099 . S
O72 Mg71 2.180 . S
O72 C81 1.279 . S
O73 Mg71 2.030 . S
O73 C79 1.248 . S
O74 Mg71 1.990 . S
O74 C80 1.253 . S
O75 Mg71 2.117 . S
O75 C81 1.250 . S
C76 O82 1.248 . S
C76 O83 1.264 . S
C77 O63 1.253 . S
C77 O65 1.260 . S
C78 O67 1.279 . S
C78 O68 1.250 . S
C79 O69 1.264 . S
C79 O73 1.248 . S
C80 O70 1.260 . S
C80 O74 1.253 . S
C81 O72 1.279 . S
C81 O75 1.250 . S
O82 Mg64 2.030 1_554 S
O82 C76 1.248 . S
O83 Mg66 2.079 . S
O83 C76 1.264 . S
O84 Mg85 1.990 1_554 S
O84 C98 1.253 . S
Mg85 O84 1.990 1_556 S
Mg85 O88 2.180 . S
Mg85 O89 2.117 . S
Mg85 O103 2.030 1_556 S
O86 Mg87 2.072 . S
O86 C98 1.260 . S
Mg87 O86 2.072 . S
Mg87 O88 2.099 1_554 S
Mg87 O90 2.079 . S
Mg87 O91 2.072 . S
Mg87 O93 2.099 . S
Mg87 O104 2.079 . S
O88 Mg85 2.180 . S
O88 Mg87 2.099 1_556 S
O88 C99 1.279 . S
O89 Mg85 2.117 . S
O89 C99 1.250 . S
O90 Mg87 2.079 . S
O90 C100 1.264 . S
O91 Mg87 2.072 . S
O91 C101 1.260 . S
Mg92 O93 2.180 . S
Mg92 O94 2.030 . S
Mg92 O95 1.990 . S
Mg92 O96 2.117 . S
O93 Mg87 2.099 . S
O93 Mg92 2.180 . S
O93 C102 1.279 . S
O94 Mg92 2.030 . S
O94 C100 1.248 . S
O95 Mg92 1.990 . S
O95 C101 1.253 . S
O96 Mg92 2.117 . S
O96 C102 1.250 . S
C97 O103 1.248 . S
C97 O104 1.264 . S
C98 O84 1.253 . S
C98 O86 1.260 . S
C99 O88 1.279 . S
C99 O89 1.250 . S
C100 O90 1.264 . S
C100 O94 1.248 . S
C101 O91 1.260 . S
C101 O95 1.253 . S
C102 O93 1.279 . S
C102 O96 1.250 . S
O103 Mg85 2.030 1_554 S
O103 C97 1.248 . S
O104 Mg87 2.079 . S
O104 C97 1.264 . S
O105 Mg106 1.990 1_554 S
O105 C119 1.253 . S
Mg106 O105 1.990 1_556 S
Mg106 O109 2.180 . S
Mg106 O110 2.117 . S
Mg106 O124 2.030 1_556 S
O107 Mg108 2.072 . S
O107 C119 1.260 . S
Mg108 O107 2.072 . S
Mg108 O109 2.099 1_554 S
Mg108 O111 2.079 . S
Mg108 O112 2.072 . S
Mg108 O114 2.099 . S
Mg108 O125 2.079 . S
O109 Mg106 2.180 . S
O109 Mg108 2.099 1_556 S
O109 C120 1.279 . S
O110 Mg106 2.117 . S
O110 C120 1.250 . S
O111 Mg108 2.079 . S
O111 C121 1.264 . S
O112 Mg108 2.072 . S
O112 C122 1.260 . S
Mg113 O114 2.180 . S
Mg113 O115 2.030 . S
Mg113 O116 1.990 . S
Mg113 O117 2.117 . S
O114 Mg108 2.099 . S
O114 Mg113 2.180 . S
O114 C123 1.279 . S
O115 Mg113 2.030 . S
O115 C121 1.248 . S
O116 Mg113 1.990 . S
O116 C122 1.253 . S
O117 Mg113 2.117 . S
O117 C123 1.250 . S
C118 O124 1.248 . S
C118 O125 1.264 . S
C119 O105 1.253 . S
C119 O107 1.260 . S
C120 O109 1.279 . S
C120 O110 1.250 . S
C121 O111 1.264 . S
C121 O115 1.248 . S
C122 O112 1.260 . S
C122 O116 1.253 . S
C123 O114 1.279 . S
C123 O117 1.250 . S
O124 Mg106 2.030 1_554 S
O124 C118 1.248 . S
O125 Mg108 2.079 . S
O125 C118 1.264 . S
O126 Mg127 1.990 1_546 S
O126 C140 1.253 . S
Mg127 O126 1.990 1_564 S
Mg127 O130 2.180 1_554 S
Mg127 O131 2.117 . S
Mg127 O145 2.030 1_554 S
O128 Mg129 2.072 . S
O128 C140 1.260 1_565 S
Mg129 O128 2.072 . S
Mg129 O130 2.099 . S
Mg129 O132 2.079 . S
Mg129 O133 2.072 . S
Mg129 O135 2.099 . S
Mg129 O146 2.079 . S
O130 Mg127 2.180 1_556 S
O130 Mg129 2.099 . S
O130 C141 1.279 1_556 S
O131 Mg127 2.117 . S
O131 C141 1.250 . S
O132 Mg129 2.079 . S
O132 C142 1.264 . S
O133 Mg129 2.072 . S
O133 C143 1.260 . S
Mg134 O135 2.180 . S
Mg134 O136 2.030 . S
Mg134 O137 1.990 . S
Mg134 O138 2.117 . S
O135 Mg129 2.099 . S
O135 Mg134 2.180 . S
O135 C144 1.279 . S
O136 Mg134 2.030 . S
O136 C142 1.248 . S
O137 Mg134 1.990 . S
O137 C143 1.253 . S
O138 Mg134 2.117 . S
O138 C144 1.250 . S
C139 O145 1.248 . S
C139 O146 1.264 . S
C140 O126 1.253 . S
C140 O128 1.260 1_545 S
C141 O130 1.279 1_554 S
C141 O131 1.250 . S
C142 O132 1.264 . S
C142 O136 1.248 . S
C143 O133 1.260 . S
C143 O137 1.253 . S
C144 O135 1.279 . S
C144 O138 1.250 . S
O145 Mg127 2.030 1_556 S
O145 C139 1.248 . S
O146 Mg129 2.079 . S
O146 C139 1.264 . S
O147 Mg148 1.990 . S
O147 C161 1.253 . S
Mg148 O147 1.990 . S
Mg148 O151 2.180 . S
Mg148 O152 2.117 . S
Mg148 O166 2.030 . S
O149 Mg150 2.072 . S
O149 C161 1.260 . S
Mg150 O149 2.072 . S
Mg150 O151 2.099 . S
Mg150 O153 2.079 . S
Mg150 O154 2.072 . S
Mg150 O156 2.099 1_556 S
Mg150 O167 2.079 . S
O151 Mg148 2.180 . S
O151 Mg150 2.099 . S
O151 C162 1.279 . S
O152 Mg148 2.117 . S
O152 C162 1.250 . S
O153 Mg150 2.079 . S
O153 C163 1.264 . S
O154 Mg150 2.072 . S
O154 C164 1.260 . S
Mg155 O156 2.180 . S
Mg155 O157 2.030 1_554 S
Mg155 O158 1.990 1_554 S
Mg155 O159 2.117 . S
O156 Mg150 2.099 1_554 S
O156 Mg155 2.180 . S
O156 C165 1.279 . S
O157 Mg155 2.030 1_556 S
O157 C163 1.248 . S
O158 Mg155 1.990 1_556 S
O158 C164 1.253 . S
O159 Mg155 2.117 . S
O159 C165 1.250 . S
C160 O166 1.248 . S
C160 O167 1.264 . S
C161 O147 1.253 . S
C161 O149 1.260 . S
C162 O151 1.279 . S
C162 O152 1.250 . S
C163 O153 1.264 . S
C163 O157 1.248 . S
C164 O154 1.260 . S
C164 O158 1.253 . S
C165 O156 1.279 . S
C165 O159 1.250 . S
O166 Mg148 2.030 . S
O166 C160 1.248 . S
O167 Mg150 2.079 . S
O167 C160 1.264 . S
O168 Mg169 1.990 1_556 S
O168 C182 1.253 . S
Mg169 O168 1.990 1_554 S
Mg169 O172 2.180 . S
Mg169 O173 2.117 . S
Mg169 O187 2.030 1_554 S
O170 Mg171 2.072 . S
O170 C182 1.260 . S
Mg171 O170 2.072 . S
Mg171 O172 2.099 1_556 S
Mg171 O174 2.079 . S
Mg171 O175 2.072 . S
Mg171 O177 2.099 . S
Mg171 O188 2.079 . S
O172 Mg169 2.180 . S
O172 Mg171 2.099 1_554 S
O172 C183 1.279 . S
O173 Mg169 2.117 . S
O173 C183 1.250 . S
O174 Mg171 2.079 . S
O174 C184 1.264 . S
O175 Mg171 2.072 . S
O175 C185 1.260 . S
Mg176 O177 2.180 . S
Mg176 O178 2.030 . S
Mg176 O179 1.990 . S
Mg176 O180 2.117 . S
O177 Mg171 2.099 . S
O177 Mg176 2.180 . S
O177 C186 1.279 . S
O178 Mg176 2.030 . S
O178 C184 1.248 . S
O179 Mg176 1.990 . S
O179 C185 1.253 . S
O180 Mg176 2.117 . S
O180 C186 1.250 . S
C181 O187 1.248 . S
C181 O188 1.264 . S
C182 O168 1.253 . S
C182 O170 1.260 . S
C183 O172 1.279 . S
C183 O173 1.250 . S
C184 O174 1.264 . S
C184 O178 1.248 . S
C185 O175 1.260 . S
C185 O179 1.253 . S
C186 O177 1.279 . S
C186 O180 1.250 . S
O187 Mg169 2.030 1_556 S
O187 C181 1.248 . S
O188 Mg171 2.079 . S
O188 C181 1.264 . S
C14 C161 2.420 1_554 S
C34 C181 1.495 1_554 S
C56 C139 2.048 . S
C97 C55 1.042 . S
C118 C13 1.244 . S
C35 C76 1.883 . S
C160 C119 2.124 1_455 S
C182 C77 2.661 . S
C98 C140 2.980 . S
C58 C17 1.018 . S
C37 C16 0.956 . S
C38 C59 1.669 1_654 S
C79 C122 1.114 . S
C80 C100 1.156 . S
C101 C121 1.143 . S
C184 C143 1.340 . S
C163 C142 1.041 . S
C185 C164 1.592 . S
C18 C15 1.288 . S
C36 C39 1.139 . S
C60 C57 1.076 1_545 S
C81 C78 1.111 . S
C102 C99 1.324 . S
C123 C120 0.859 . S
C144 C141 1.505 . S
C165 C162 1.352 . S
C186 C183 1.002 . S
