# Generated by pormake.
# Topology acs-a, (4)-cn, num edge types: 1
# Building blocks:
#     Node 0, Type 0, BuildingBlock: CEKHIL_clean_sbu_0, # of connection points: 4
#     Node 1, Type 0, BuildingBlock: CEKHIL_clean_sbu_0, # of connection points: 4
#     Node 2, Type 0, BuildingBlock: CEKHIL_clean_sbu_0, # of connection points: 4
#     Node 3, Type 0, BuildingBlock: CEKHIL_clean_sbu_0, # of connection points: 4
#     Node 4, Type 0, BuildingBlock: CEKHIL_clean_sbu_0, # of connection points: 4
#     Node 5, Type 0, BuildingBlock: CEKHIL_clean_sbu_0, # of connection points: 4
#     Node 6, Type 0, BuildingBlock: CEKHIL_clean_sbu_0, # of connection points: 4
#     Node 7, Type 0, BuildingBlock: CEKHIL_clean_sbu_0, # of connection points: 4
#     Node 8, Type 0, BuildingBlock: CEKHIL_clean_sbu_0, # of connection points: 4
#     Node 9, Type 0, BuildingBlock: CEKHIL_clean_sbu_0, # of connection points: 4
#     Node 10, Type 0, BuildingBlock: CEKHIL_clean_sbu_0, # of connection points: 4
#     Node 11, Type 0, BuildingBlock: CEKHIL_clean_sbu_0, # of connection points: 4
#     Edge 12, Type (0, 0), None
#     Edge 13, Type (0, 0), None
#     Edge 14, Type (0, 0), None
#     Edge 15, Type (0, 0), None
#     Edge 16, Type (0, 0), None
#     Edge 17, Type (0, 0), None
#     Edge 18, Type (0, 0), None
#     Edge 19, Type (0, 0), None
#     Edge 20, Type (0, 0), None
#     Edge 21, Type (0, 0), None
#     Edge 22, Type (0, 0), None
#     Edge 23, Type (0, 0), None
#     Edge 24, Type (0, 0), None
#     Edge 25, Type (0, 0), None
#     Edge 26, Type (0, 0), None
#     Edge 27, Type (0, 0), None
#     Edge 28, Type (0, 0), None
#     Edge 29, Type (0, 0), None
#     Edge 30, Type (0, 0), None
#     Edge 31, Type (0, 0), None
#     Edge 32, Type (0, 0), None
#     Edge 33, Type (0, 0), None
#     Edge 34, Type (0, 0), None
#     Edge 35, Type (0, 0), None
# Relax obj value: 0.510
# Max RMSD: 0.267
# Mean RMSD: 0.242
data_MOF--net-acs-a--node1-CEKHIL_clean_sbu_0--edge1-none
_symmetry_space_group_name_H-M    P1
_symmetry_Int_Tables_number       1
_symmetry_cell_setting            triclinic
loop_
_symmetry_equiv_pos_as_xyz
'x, y, z'
_cell_length_a     21.647033
_cell_length_b     21.647679
_cell_length_c     17.019642
_cell_angle_alpha  89.995906
_cell_angle_beta   90.001949
_cell_angle_gamma 116.69378
loop_
_atom_site_label
_atom_site_type_symbol
_atom_site_fract_x
_atom_site_fract_y
_atom_site_fract_z
_atom_type_partial_charge
Co0 Co 0.624 0.14657 0.04862 0.0
O1 O 0.64745 0.07007 0.03729 0.0
O2 O 0.56284 0.08196 0.97544 0.0
C3 C 0.72973 0.24423 0.05487 0.0
O4 O 0.58001 0.21174 0.03926 0.0
Co5 Co 0.6649 0.23198 0.20202 0.0
O6 O 0.60606 0.27143 0.1515 0.0
C7 C 0.58213 0.095 0.20903 0.0
C8 C 0.59156 0.04283 -0.00583 0.0
C9 C 0.57598 0.25652 0.08477 0.0
O10 O 0.55968 0.09388 0.13862 0.0
O11 O 0.64571 0.13349 0.22088 0.0
O12 O 0.70418 0.21791 0.98608 0.0
O13 O 0.69801 0.20396 0.11127 0.0
Co14 Co 0.48491 0.63156 0.55093 0.0
O15 O 0.58278 0.65799 0.54384 0.0
O16 O 0.49887 0.57772 0.47217 0.0
C17 C 0.4832 0.73501 0.56371 0.0
O18 O 0.37989 0.58865 0.53737 0.0
Co19 Co 0.43204 0.66471 0.70628 0.0
O20 O 0.34237 0.61683 0.64767 0.0
C21 C 0.4919 0.57864 0.7077 0.0
C22 C 0.56332 0.60744 0.49347 0.0
C23 C 0.33113 0.58813 0.5802 0.0
O24 O 0.47614 0.5611 0.63526 0.0
O25 O 0.51075 0.64142 0.72489 0.0
O26 O 0.48934 0.71419 0.49325 0.0
O27 O 0.49215 0.70049 0.61893 0.0
Co28 Co 0.86491 0.47487 0.04554 0.0
O29 O 0.92787 0.57311 0.04016 0.0
O30 O 0.93477 0.49078 0.96857 0.0
C31 C 0.76125 0.47723 0.05748 0.0
O32 O 0.80926 0.36803 0.03235 0.0
Co33 Co 0.78358 0.42382 0.1998 0.0
O34 O 0.75046 0.33261 0.14529 0.0
C35 C 0.92295 0.48454 0.20223 0.0
C36 C 0.96276 0.55521 -0.00905 0.0
C37 C 0.76576 0.31969 0.07675 0.0
O38 O 0.92557 0.46499 0.13128 0.0
O39 O 0.87707 0.50395 0.21667 0.0
O40 O 0.7873 0.48191 0.98706 0.0
O41 O 0.80327 0.484 0.11238 0.0
Co42 Co 0.39442 0.88224 0.54862 0.0
O43 O 0.37096 0.95874 0.53728 0.0
O44 O 0.45558 0.94686 0.47543 0.0
C45 C 0.2887 0.78457 0.55487 0.0
O46 O 0.43843 0.81708 0.53926 0.0
Co47 Co 0.35354 0.7968 0.70201 0.0
O48 O 0.4124 0.75738 0.6515 0.0
C49 C 0.43629 0.93379 0.70903 0.0
C50 C 0.42685 0.98598 0.49416 0.0
C51 C 0.44247 0.7723 0.58477 0.0
O52 O 0.45874 0.93492 0.63862 0.0
O53 O 0.37271 0.89529 0.72087 0.0
O54 O 0.31425 0.8109 0.48608 0.0
O55 O 0.32042 0.82484 0.61127 0.0
Co56 Co 0.53352 0.39723 0.05094 0.0
O57 O 0.43564 0.37078 0.04384 0.0
O58 O 0.51955 0.45107 0.97217 0.0
C59 C 0.53529 0.29385 0.06371 0.0
O60 O 0.63854 0.44017 0.03739 0.0
Co61 Co 0.58642 0.36409 0.20629 0.0
O62 O 0.67608 0.41197 0.14767 0.0
C63 C 0.52652 0.45013 0.20771 0.0
C64 C 0.45509 0.42133 -0.00653 0.0
C65 C 0.68731 0.44068 0.0802 0.0
O66 O 0.54226 0.46768 0.13526 0.0
O67 O 0.5077 0.38736 0.2249 0.0
O68 O 0.52911 0.31462 -0.00677 0.0
O69 O 0.5263 0.32832 0.11895 0.0
Co70 Co 0.15354 0.55394 0.54555 0.0
O71 O 0.09058 0.4557 0.54016 0.0
O72 O 0.08368 0.53803 0.46857 0.0
C73 C 0.25719 0.55164 0.55748 0.0
O74 O 0.20917 0.66078 0.53236 0.0
Co75 Co 0.23485 0.60498 0.69982 0.0
O76 O 0.26798 0.69618 0.64529 0.0
C77 C 0.09548 0.54426 0.70224 0.0
C78 C 0.05569 0.4736 0.49095 0.0
C79 C 0.25267 0.70911 0.57675 0.0
O80 O 0.09286 0.5638 0.63128 0.0
O81 O 0.14137 0.52485 0.71669 0.0
O82 O 0.23115 0.54692 0.48705 0.0
O83 O 0.21517 0.54481 0.6124 0.0
Co84 Co 0.87707 0.39959 0.42613 0.0
O85 O 0.95357 0.37612 0.43744 0.0
O86 O 0.9417 0.46075 0.4993 0.0
C87 C 0.7794 0.29386 0.41988 0.0
O88 O 0.81191 0.44358 0.4355 0.0
Co89 Co 0.79165 0.35871 0.27273 0.0
O90 O 0.75221 0.41756 0.32326 0.0
C91 C 0.92864 0.44138 0.26573 0.0
C92 C 0.98081 0.43202 0.48054 0.0
C93 C 0.76712 0.44762 0.38999 0.0
O94 O 0.92974 0.46389 0.3361 0.0
O95 O 0.89011 0.37783 0.25376 0.0
O96 O 0.80573 0.31941 0.48866 0.0
O97 O 0.81967 0.32559 0.36348 0.0
Co98 Co 0.46966 0.8701 0.92922 0.0
O99 O 0.5679 0.93306 0.9346 0.0
O100 O 0.48554 0.93997 0.00616 0.0
C101 C 0.47203 0.76644 0.91731 0.0
O102 O 0.36282 0.81444 0.9424 0.0
Co103 Co 0.41867 0.78879 0.77495 0.0
O104 O 0.32745 0.75567 0.82945 0.0
C105 C 0.47946 0.92814 0.77254 0.0
C106 C 0.54997 0.96796 0.98376 0.0
C107 C 0.3145 0.77096 0.89798 0.0
O108 O 0.4598 0.93074 0.84344 0.0
O109 O 0.49883 0.88225 0.75801 0.0
O110 O 0.47669 0.7925 -0.01228 0.0
O111 O 0.47881 0.80847 0.86241 0.0
Co112 Co 0.6264 0.49006 0.42386 0.0
O113 O 0.65286 0.58794 0.43096 0.0
O114 O 0.57255 0.50401 0.50264 0.0
C115 C 0.72978 0.4883 0.41108 0.0
O116 O 0.58347 0.38505 0.43741 0.0
Co117 Co 0.65953 0.43722 0.26848 0.0
O118 O 0.61166 0.34755 0.32711 0.0
C119 C 0.57356 0.49719 0.26712 0.0
C120 C 0.6023 0.56846 0.48132 0.0
C121 C 0.58296 0.3363 0.39458 0.0
O122 O 0.55595 0.48133 0.33953 0.0
O123 O 0.6363 0.51596 0.24981 0.0
O124 O 0.70902 0.49447 0.48156 0.0
O125 O 0.69531 0.4973 0.35585 0.0
Co126 Co 0.14137 0.62922 0.92612 0.0
O127 O 0.06488 0.65269 0.93743 0.0
O128 O 0.07675 0.56806 -0.0007 0.0
C129 C 0.23904 0.73486 0.91986 0.0
O130 O 0.20653 0.58522 0.93549 0.0
Co131 Co 0.22679 0.67009 0.7727 0.0
O132 O 0.26624 0.61126 0.82326 0.0
C133 C 0.08979 0.58742 0.76573 0.0
C134 C 0.03764 0.59679 0.98054 0.0
C135 C 0.25132 0.58119 0.88999 0.0
O136 O 0.08869 0.56491 0.8361 0.0
O137 O 0.12832 0.65097 0.75374 0.0
O138 O 0.21273 0.70939 -0.01133 0.0
O139 O 0.19877 0.7032 0.86344 0.0
Co140 Co 0.54876 0.1587 0.42921 0.0
O141 O 0.45052 0.09576 0.43459 0.0
O142 O 0.53287 0.08883 0.50616 0.0
C143 C 0.54648 0.26236 0.4173 0.0
O144 O 0.65561 0.21433 0.44239 0.0
Co145 Co 0.59979 0.24003 0.27494 0.0
O146 O 0.691 0.27315 0.32946 0.0
C147 C 0.53896 0.10067 0.27254 0.0
C148 C 0.46844 0.06085 0.48376 0.0
C149 C 0.70394 0.25784 0.39799 0.0
O150 O 0.55861 0.09805 0.34344 0.0
O151 O 0.51961 0.14659 0.258 0.0
O152 O 0.54175 0.23631 0.48773 0.0
O153 O 0.53964 0.22034 0.36238 0.0
Co154 Co 0.39203 0.53872 0.92386 0.0
O155 O 0.36556 0.44085 0.93097 0.0
O156 O 0.44587 0.52476 0.00264 0.0
C157 C 0.28865 0.5405 0.91108 0.0
O158 O 0.43497 0.64374 0.9374 0.0
Co159 Co 0.35891 0.59161 0.7685 0.0
O160 O 0.4068 0.68128 0.8271 0.0
C161 C 0.44485 0.5316 0.76712 0.0
C162 C 0.41612 0.46031 0.98133 0.0
C163 C 0.43549 0.6925 0.89458 0.0
O164 O 0.46247 0.54745 0.83953 0.0
O165 O 0.38211 0.51285 0.74982 0.0
O166 O 0.30941 0.53433 0.98156 0.0
O167 O 0.32312 0.53151 0.85585 0.0
loop_
_geom_bond_atom_site_label_1
_geom_bond_atom_site_label_2
_geom_bond_distance
_geom_bond_site_symmetry_2
_ccdc_geom_bond_type
Co0 O1 2.216 . S
Co0 O2 2.091 1_554 S
Co0 O4 2.004 . S
Co0 O10 2.021 . S
Co0 O12 2.137 1_554 S
Co0 O13 2.244 . S
O1 Co0 2.216 . S
O1 C8 1.247 1_554 S
O2 Co0 2.091 1_556 S
O2 C8 1.261 . S
C3 O12 1.247 . S
C3 O13 1.272 1_556 S
O4 Co0 2.004 . S
O4 C9 1.259 . S
Co5 O6 2.061 . S
Co5 O11 2.052 . S
Co5 O13 2.135 . S
O6 Co5 2.061 . S
O6 C9 1.235 . S
C7 O10 1.238 . S
C7 O11 1.241 . S
C8 O1 1.247 1_556 S
C8 O2 1.261 . S
C9 O4 1.259 . S
C9 O6 1.235 . S
O10 Co0 2.021 . S
O10 C7 1.238 . S
O11 Co5 2.052 . S
O11 C7 1.241 . S
O12 Co0 2.137 1_556 S
O12 C3 1.247 . S
O13 Co0 2.244 . S
O13 C3 1.272 1_554 S
O13 Co5 2.135 . S
Co14 O15 2.216 . S
Co14 O16 2.091 . S
Co14 O18 2.004 . S
Co14 O24 2.021 . S
Co14 O26 2.137 . S
Co14 O27 2.244 . S
O15 Co14 2.216 . S
O15 C22 1.247 . S
O16 Co14 2.091 . S
O16 C22 1.261 . S
C17 O26 1.247 . S
C17 O27 1.272 . S
O18 Co14 2.004 . S
O18 C23 1.259 . S
Co19 O20 2.061 . S
Co19 O25 2.052 . S
Co19 O27 2.135 . S
O20 Co19 2.061 . S
O20 C23 1.235 . S
C21 O24 1.238 . S
C21 O25 1.241 . S
C22 O15 1.247 . S
C22 O16 1.261 . S
C23 O18 1.259 . S
C23 O20 1.235 . S
O24 Co14 2.021 . S
O24 C21 1.238 . S
O25 Co19 2.052 . S
O25 C21 1.241 . S
O26 Co14 2.137 . S
O26 C17 1.247 . S
O27 Co14 2.244 . S
O27 C17 1.272 . S
O27 Co19 2.135 . S
Co28 O29 2.216 . S
Co28 O30 2.091 1_554 S
Co28 O32 2.004 . S
Co28 O38 2.021 . S
Co28 O40 2.137 1_554 S
Co28 O41 2.244 . S
O29 Co28 2.216 . S
O29 C36 1.247 1_554 S
O30 Co28 2.091 1_556 S
O30 C36 1.261 . S
C31 O40 1.247 . S
C31 O41 1.272 1_556 S
O32 Co28 2.004 . S
O32 C37 1.259 . S
Co33 O34 2.061 . S
Co33 O39 2.052 . S
Co33 O41 2.135 . S
O34 Co33 2.061 . S
O34 C37 1.235 . S
C35 O38 1.238 . S
C35 O39 1.241 . S
C36 O29 1.247 1_556 S
C36 O30 1.261 . S
C37 O32 1.259 . S
C37 O34 1.235 . S
O38 Co28 2.021 . S
O38 C35 1.238 . S
O39 Co33 2.052 . S
O39 C35 1.241 . S
O40 Co28 2.137 1_556 S
O40 C31 1.247 . S
O41 Co28 2.244 . S
O41 C31 1.272 1_554 S
O41 Co33 2.135 . S
Co42 O43 2.216 . S
Co42 O44 2.091 . S
Co42 O46 2.004 . S
Co42 O52 2.021 . S
Co42 O54 2.137 . S
Co42 O55 2.244 . S
O43 Co42 2.216 . S
O43 C50 1.247 . S
O44 Co42 2.091 . S
O44 C50 1.261 . S
C45 O54 1.247 . S
C45 O55 1.272 . S
O46 Co42 2.004 . S
O46 C51 1.259 . S
Co47 O48 2.061 . S
Co47 O53 2.052 . S
Co47 O55 2.135 . S
O48 Co47 2.061 . S
O48 C51 1.235 . S
C49 O52 1.238 . S
C49 O53 1.241 . S
C50 O43 1.247 . S
C50 O44 1.261 . S
C51 O46 1.259 . S
C51 O48 1.235 . S
O52 Co42 2.021 . S
O52 C49 1.238 . S
O53 Co47 2.052 . S
O53 C49 1.241 . S
O54 Co42 2.137 . S
O54 C45 1.247 . S
O55 Co42 2.244 . S
O55 C45 1.272 . S
O55 Co47 2.135 . S
Co56 O57 2.216 . S
Co56 O58 2.091 1_554 S
Co56 O60 2.004 . S
Co56 O66 2.021 . S
Co56 O68 2.137 1_554 S
Co56 O69 2.244 . S
O57 Co56 2.216 . S
O57 C64 1.247 1_554 S
O58 Co56 2.091 1_556 S
O58 C64 1.261 . S
C59 O68 1.247 . S
C59 O69 1.272 1_556 S
O60 Co56 2.004 . S
O60 C65 1.259 . S
Co61 O62 2.061 . S
Co61 O67 2.052 . S
Co61 O69 2.135 . S
O62 Co61 2.061 . S
O62 C65 1.235 . S
C63 O66 1.238 . S
C63 O67 1.241 . S
C64 O57 1.247 1_556 S
C64 O58 1.261 . S
C65 O60 1.259 . S
C65 O62 1.235 . S
O66 Co56 2.021 . S
O66 C63 1.238 . S
O67 Co61 2.052 . S
O67 C63 1.241 . S
O68 Co56 2.137 1_556 S
O68 C59 1.247 . S
O69 Co56 2.244 . S
O69 C59 1.272 1_554 S
O69 Co61 2.135 . S
Co70 O71 2.216 . S
Co70 O72 2.091 . S
Co70 O74 2.004 . S
Co70 O80 2.021 . S
Co70 O82 2.137 . S
Co70 O83 2.244 . S
O71 Co70 2.216 . S
O71 C78 1.247 . S
O72 Co70 2.091 . S
O72 C78 1.261 . S
C73 O82 1.247 . S
C73 O83 1.272 . S
O74 Co70 2.004 . S
O74 C79 1.259 . S
Co75 O76 2.061 . S
Co75 O81 2.052 . S
Co75 O83 2.135 . S
O76 Co75 2.061 . S
O76 C79 1.235 . S
C77 O80 1.238 . S
C77 O81 1.241 . S
C78 O71 1.247 . S
C78 O72 1.261 . S
C79 O74 1.259 . S
C79 O76 1.235 . S
O80 Co70 2.021 . S
O80 C77 1.238 . S
O81 Co75 2.052 . S
O81 C77 1.241 . S
O82 Co70 2.137 . S
O82 C73 1.247 . S
O83 Co70 2.244 . S
O83 C73 1.272 . S
O83 Co75 2.135 . S
Co84 O85 2.216 . S
Co84 O86 2.091 . S
Co84 O88 2.004 . S
Co84 O94 2.021 . S
Co84 O96 2.137 . S
Co84 O97 2.244 . S
O85 Co84 2.216 . S
O85 C92 1.247 . S
O86 Co84 2.091 . S
O86 C92 1.261 . S
C87 O96 1.247 . S
C87 O97 1.272 . S
O88 Co84 2.004 . S
O88 C93 1.259 . S
Co89 O90 2.061 . S
Co89 O95 2.052 . S
Co89 O97 2.135 . S
O90 Co89 2.061 . S
O90 C93 1.235 . S
C91 O94 1.238 . S
C91 O95 1.241 . S
C92 O85 1.247 . S
C92 O86 1.261 . S
C93 O88 1.259 . S
C93 O90 1.235 . S
O94 Co84 2.021 . S
O94 C91 1.238 . S
O95 Co89 2.052 . S
O95 C91 1.241 . S
O96 Co84 2.137 . S
O96 C87 1.247 . S
O97 Co84 2.244 . S
O97 C87 1.272 . S
O97 Co89 2.135 . S
Co98 O99 2.216 . S
Co98 O100 2.091 1_556 S
Co98 O102 2.004 . S
Co98 O108 2.021 . S
Co98 O110 2.137 1_556 S
Co98 O111 2.244 . S
O99 Co98 2.216 . S
O99 C106 1.247 1_556 S
O100 Co98 2.091 1_554 S
O100 C106 1.261 . S
C101 O110 1.247 . S
C101 O111 1.272 1_554 S
O102 Co98 2.004 . S
O102 C107 1.259 . S
Co103 O104 2.061 . S
Co103 O109 2.052 . S
Co103 O111 2.135 . S
O104 Co103 2.061 . S
O104 C107 1.235 . S
C105 O108 1.238 . S
C105 O109 1.241 . S
C106 O99 1.247 1_554 S
C106 O100 1.261 . S
C107 O102 1.259 . S
C107 O104 1.235 . S
O108 Co98 2.021 . S
O108 C105 1.238 . S
O109 Co103 2.052 . S
O109 C105 1.241 . S
O110 Co98 2.137 1_554 S
O110 C101 1.247 . S
O111 Co98 2.244 . S
O111 C101 1.272 1_556 S
O111 Co103 2.135 . S
Co112 O113 2.216 . S
Co112 O114 2.091 . S
Co112 O116 2.004 . S
Co112 O122 2.021 . S
Co112 O124 2.137 . S
Co112 O125 2.244 . S
O113 Co112 2.216 . S
O113 C120 1.247 . S
O114 Co112 2.091 . S
O114 C120 1.261 . S
C115 O124 1.247 . S
C115 O125 1.272 . S
O116 Co112 2.004 . S
O116 C121 1.259 . S
Co117 O118 2.061 . S
Co117 O123 2.052 . S
Co117 O125 2.135 . S
O118 Co117 2.061 . S
O118 C121 1.235 . S
C119 O122 1.238 . S
C119 O123 1.241 . S
C120 O113 1.247 . S
C120 O114 1.261 . S
C121 O116 1.259 . S
C121 O118 1.235 . S
O122 Co112 2.021 . S
O122 C119 1.238 . S
O123 Co117 2.052 . S
O123 C119 1.241 . S
O124 Co112 2.137 . S
O124 C115 1.247 . S
O125 Co112 2.244 . S
O125 C115 1.272 . S
O125 Co117 2.135 . S
Co126 O127 2.216 . S
Co126 O128 2.091 1_556 S
Co126 O130 2.004 . S
Co126 O136 2.021 . S
Co126 O138 2.137 1_556 S
Co126 O139 2.244 . S
O127 Co126 2.216 . S
O127 C134 1.247 1_556 S
O128 Co126 2.091 1_554 S
O128 C134 1.261 . S
C129 O138 1.247 . S
C129 O139 1.272 1_554 S
O130 Co126 2.004 . S
O130 C135 1.259 . S
Co131 O132 2.061 . S
Co131 O137 2.052 . S
Co131 O139 2.135 . S
O132 Co131 2.061 . S
O132 C135 1.235 . S
C133 O136 1.238 . S
C133 O137 1.241 . S
C134 O127 1.247 1_554 S
C134 O128 1.261 . S
C135 O130 1.259 . S
C135 O132 1.235 . S
O136 Co126 2.021 . S
O136 C133 1.238 . S
O137 Co131 2.052 . S
O137 C133 1.241 . S
O138 Co126 2.137 1_554 S
O138 C129 1.247 . S
O139 Co126 2.244 . S
O139 C129 1.272 1_556 S
O139 Co131 2.135 . S
Co140 O141 2.216 . S
Co140 O142 2.091 . S
Co140 O144 2.004 . S
Co140 O150 2.021 . S
Co140 O152 2.137 . S
Co140 O153 2.244 . S
O141 Co140 2.216 . S
O141 C148 1.247 . S
O142 Co140 2.091 . S
O142 C148 1.261 . S
C143 O152 1.247 . S
C143 O153 1.272 . S
O144 Co140 2.004 . S
O144 C149 1.259 . S
Co145 O146 2.061 . S
Co145 O151 2.052 . S
Co145 O153 2.135 . S
O146 Co145 2.061 . S
O146 C149 1.235 . S
C147 O150 1.238 . S
C147 O151 1.241 . S
C148 O141 1.247 . S
C148 O142 1.261 . S
C149 O144 1.259 . S
C149 O146 1.235 . S
O150 Co140 2.021 . S
O150 C147 1.238 . S
O151 Co145 2.052 . S
O151 C147 1.241 . S
O152 Co140 2.137 . S
O152 C143 1.247 . S
O153 Co140 2.244 . S
O153 C143 1.272 . S
O153 Co145 2.135 . S
Co154 O155 2.216 . S
Co154 O156 2.091 1_556 S
Co154 O158 2.004 . S
Co154 O164 2.021 . S
Co154 O166 2.137 1_556 S
Co154 O167 2.244 . S
O155 Co154 2.216 . S
O155 C162 1.247 1_556 S
O156 Co154 2.091 1_554 S
O156 C162 1.261 . S
C157 O166 1.247 . S
C157 O167 1.272 1_554 S
O158 Co154 2.004 . S
O158 C163 1.259 . S
Co159 O160 2.061 . S
Co159 O165 2.052 . S
Co159 O167 2.135 . S
O160 Co159 2.061 . S
O160 C163 1.235 . S
C161 O164 1.238 . S
C161 O165 1.241 . S
C162 O155 1.247 1_554 S
C162 O156 1.261 . S
C163 O158 1.259 . S
C163 O160 1.235 . S
O164 Co154 2.021 . S
O164 C161 1.238 . S
O165 Co159 2.052 . S
O165 C161 1.241 . S
O166 Co154 2.137 1_554 S
O166 C157 1.247 . S
O167 Co154 2.244 . S
O167 C157 1.272 1_556 S
O167 Co159 2.135 . S
C147 C7 1.558 . S
C21 C161 1.490 . S
C35 C91 1.558 . S
C105 C49 1.558 . S
C119 C63 1.490 . S
C77 C133 1.558 . S
C8 C106 1.588 1_546 S
C22 C120 1.256 . S
C134 C36 1.588 1_454 S
C148 C50 1.588 1_545 S
C162 C64 1.256 1_554 S
C92 C78 1.588 1_655 S
C9 C59 1.700 1_554 S
C23 C73 1.412 . S
C37 C3 1.575 1_554 S
C51 C17 1.700 . S
C65 C31 1.412 1_554 S
C79 C45 1.575 . S
C93 C115 1.700 . S
C107 C129 1.575 1_556 S
C143 C121 1.412 . S
C135 C157 1.700 1_556 S
C149 C87 1.575 . S
C163 C101 1.412 1_556 S
