# Generated by pormake.
# Topology bcu, (8)-cn, num edge types: 1
# Building blocks:
#     Node 0, Type 0, BuildingBlock: LIZSOE_clean_sbu_0, # of connection points: 8
#     Node 1, Type 0, BuildingBlock: LIZSOE_clean_sbu_0, # of connection points: 8
#     Edge 2, Type (0, 0), BuildingBlock: KIFKEQ_clean_linker_1, # of connection points: 2
#     Edge 3, Type (0, 0), BuildingBlock: KIFKEQ_clean_linker_1, # of connection points: 2
#     Edge 4, Type (0, 0), BuildingBlock: KIFKEQ_clean_linker_1, # of connection points: 2
#     Edge 5, Type (0, 0), BuildingBlock: KIFKEQ_clean_linker_1, # of connection points: 2
#     Edge 6, Type (0, 0), BuildingBlock: KIFKEQ_clean_linker_1, # of connection points: 2
#     Edge 7, Type (0, 0), BuildingBlock: KIFKEQ_clean_linker_1, # of connection points: 2
#     Edge 8, Type (0, 0), BuildingBlock: KIFKEQ_clean_linker_1, # of connection points: 2
#     Edge 9, Type (0, 0), BuildingBlock: KIFKEQ_clean_linker_1, # of connection points: 2
# Relax obj value: 0.003
# Max RMSD: 0.034
# Mean RMSD: 0.034
data_MOF--net-bcu--node1-LIZSOE_clean_sbu_0--edge1-KIFKEQ_clean_linker_1
_symmetry_space_group_name_H-M    P1
_symmetry_Int_Tables_number       1
_symmetry_cell_setting            triclinic
loop_
_symmetry_equiv_pos_as_xyz
'x, y, z'
_cell_length_a     20.777688
_cell_length_b     20.603874
_cell_length_c     21.120021
_cell_angle_alpha  113.49787
_cell_angle_beta   66.734752
_cell_angle_gamma 110.91056
loop_
_atom_site_label
_atom_site_type_symbol
_atom_site_fract_x
_atom_site_fract_y
_atom_site_fract_z
_atom_type_partial_charge
Co0 Co 0.09019 0.91532 0.04648 0.0
N1 N 0.10982 0.89394 0.11348 0.0
C2 C 0.06307 0.84266 0.14511 0.0
N3 N 0.15486 0.88392 0.18885 0.0
C4 C 0.16621 0.91778 0.14071 0.0
C5 C 0.09004 0.83706 0.19169 0.0
Co6 Co 0.93773 0.07585 0.94594 0.0
N7 N 0.91735 0.09697 0.87919 0.0
N8 N 0.90885 0.14327 0.80377 0.0
C9 C 0.86105 0.07863 0.80118 0.0
C10 C 0.86575 0.05092 0.84777 0.0
C11 C 0.9423 0.15379 0.85185 0.0
Co12 Co 1.01727 0.99868 -0.00399 0.0
C13 C 0.95616 0.13223 0.04221 0.0
H14 H 0.832 1.0007 0.85928 0.0
O15 O 0.07786 0.93166 0.97784 0.0
O16 O 0.09676 0.04287 0.92081 0.0
O17 O 0.06311 0.07819 0.07064 0.0
O18 O 0.93678 0.9556 0.07246 0.0
O19 O 0.99542 0.9027 0.099 0.0
O20 O 1.03426 0.0895 0.89208 0.0
O21 O 0.95323 0.06221 0.01415 0.0
O22 O 0.92271 0.98 0.8935 0.0
O23 O 0.10637 1.0131 0.09998 0.0
O24 O 0.17965 0.93057 0.99027 0.0
O25 O 0.97256 0.91834 0.92004 0.0
O26 O 0.95525 0.16624 0.00225 0.0
C27 C 0.09639 0.07303 0.10741 0.0
C28 C 0.99858 0.22092 0.87352 0.0
H29 H 0.04062 0.20757 0.88268 0.0
H30 H 1.0245 0.24945 0.83161 0.0
H31 H 0.97254 0.25842 0.92481 0.0
C32 C 0.09275 0.07718 0.88416 0.0
C33 C 0.93863 0.9189 0.10817 0.0
H34 H 1.01286 0.8097 0.13373 0.0
H35 H 0.27007 0.94603 0.06758 0.0
H36 H 0.2623 0.99889 0.16072 0.0
H37 H 0.22183 1.01648 0.10962 0.0
C38 C 0.23374 0.97334 0.11886 0.0
C39 C 0.14692 0.93319 0.95025 0.0
C40 C 0.93682 0.92165 0.88441 0.0
H41 H 0.06569 0.79859 0.22252 0.0
H42 H 0.82269 0.05495 0.77045 0.0
Co43 Co 0.60572 0.42633 0.5416 0.0
N44 N 0.63687 0.41602 0.60691 0.0
C45 C 0.62169 0.45089 0.67857 0.0
N46 N 0.69954 0.38807 0.65361 0.0
C47 C 0.68371 0.37719 0.5933 0.0
C48 C 0.66059 0.43426 0.70719 0.0
Co49 Co 0.44171 0.58151 0.44945 0.0
N50 N 0.42909 0.61043 0.38388 0.0
N51 N 0.39871 0.67094 0.33666 0.0
C52 C 0.44521 0.63239 0.28329 0.0
C53 C 0.46332 0.59477 0.31224 0.0
C54 C 0.3891 0.65616 0.39715 0.0
Co55 Co 0.5189 0.49919 0.49582 0.0
C56 C 0.45418 0.63101 0.54846 0.0
H57 H 0.5009 0.56 0.28328 0.0
O58 O 0.58329 0.43429 0.47418 0.0
O59 O 0.59815 0.54456 0.42181 0.0
O60 O 0.56241 0.58107 0.57036 0.0
O61 O 0.44322 0.45171 0.5721 0.0
O62 O 0.51184 0.40934 0.59929 0.0
O63 O 0.53835 0.59923 0.40076 0.0
O64 O 0.4516 0.56112 0.51732 0.0
O65 O 0.4275 0.48638 0.39155 0.0
O66 O 0.62032 0.52385 0.59068 0.0
O67 O 0.69199 0.44559 0.4812 0.0
O68 O 0.47309 0.42054 0.41909 0.0
O69 O 0.45857 0.66928 0.50993 0.0
C70 C 0.60304 0.5807 0.60188 0.0
C71 C 0.34505 0.6907 0.47158 0.0
H72 H 0.32913 0.65618 0.50688 0.0
H73 H 0.37796 0.74456 0.49498 0.0
H74 H 0.296 0.69959 0.47069 0.0
C75 C 0.59586 0.58426 0.39012 0.0
C76 C 0.45129 0.41916 0.60861 0.0
H77 H 0.58608 0.4877 0.70782 0.0
H78 H 0.72925 0.28471 0.51923 0.0
H79 H 0.7703 0.36741 0.49502 0.0
H80 H 0.68295 0.31529 0.48377 0.0
C81 C 0.71813 0.3331 0.51869 0.0
C82 C 0.6527 0.43885 0.44284 0.0
C83 C 0.43965 0.4265 0.38228 0.0
H84 H 0.66067 0.45472 0.76302 0.0
H85 H 0.46516 0.63221 0.22748 0.0
H86 H 0.07894 0.11287 0.25085 0.0
H87 H 0.21359 0.16948 0.05603 0.0
H88 H 0.1702 0.19229 0.31155 0.0
H89 H 0.30773 0.24387 0.11331 0.0
H90 H 0.43921 0.4243 0.25458 0.0
H91 H 0.35297 0.34512 0.19028 0.0
H92 H 0.27879 0.20446 0.32469 0.0
H93 H 0.36258 0.28919 0.39368 0.0
C94 C 0.12738 0.14447 0.2219 0.0
C95 C 0.1381 0.13756 0.14981 0.0
C96 C 0.18094 0.18828 0.25581 0.0
C97 C 0.24778 0.22436 0.21761 0.0
C98 C 0.25709 0.21874 0.14577 0.0
C99 C 0.20265 0.1766 0.11271 0.0
C100 C 0.40568 0.37545 0.26937 0.0
C101 C 0.40748 0.36332 0.32955 0.0
C102 C 0.35573 0.32948 0.23215 0.0
C103 C 0.30685 0.26837 0.25258 0.0
C104 C 0.31351 0.25223 0.3086 0.0
C105 C 0.363 0.2996 0.34712 0.0
H106 H 0.82155 0.07532 0.11292 0.0
H107 H 1.00072 0.26071 0.13804 0.0
H108 H 0.73853 0.14927 0.19982 0.0
H109 H 0.91867 0.33445 0.23175 0.0
H110 H 0.76931 0.47969 0.33599 0.0
H111 H 0.84434 0.39779 0.24419 0.0
H112 H 0.67707 0.21465 0.30202 0.0
H113 H 0.60073 0.29629 0.38688 0.0
C114 C 0.84356 0.131 0.14108 0.0
C115 C 0.91775 0.16209 0.11869 0.0
C116 C 0.79548 0.17443 0.19067 0.0
C117 C 0.82062 0.24977 0.22167 0.0
C118 C 0.89603 0.27802 0.20664 0.0
C119 C 0.94385 0.23503 0.15487 0.0
C120 C 0.74724 0.42144 0.32527 0.0
C121 C 0.67875 0.39443 0.36781 0.0
C122 C 0.79138 0.37417 0.27462 0.0
C123 C 0.76913 0.29883 0.26715 0.0
C124 C 0.6975 0.2716 0.30504 0.0
C125 C 0.65254 0.31866 0.35342 0.0
H126 H 0.9314 0.93425 0.24227 0.0
H127 H 0.80709 0.83288 0.09114 0.0
H128 H 0.85556 0.84944 0.30968 0.0
H129 H 0.72583 0.75009 0.16233 0.0
H130 H 0.64707 0.55616 0.24468 0.0
H131 H 0.72384 0.64647 0.18156 0.0
H132 H 0.75339 0.80228 0.38448 0.0
H133 H 0.68169 0.70984 0.44488 0.0
C134 C 0.88496 0.89599 0.22585 0.0
C135 C 0.8749 0.89038 0.16171 0.0
C136 C 0.84133 0.84664 0.26445 0.0
C137 C 0.78488 0.79108 0.24111 0.0
C138 C 0.77021 0.79035 0.18083 0.0
C139 C 0.81528 0.83922 0.14107 0.0
C140 C 0.67358 0.60863 0.27447 0.0
C141 C 0.66104 0.62533 0.3489 0.0
C142 C 0.71564 0.6614 0.23898 0.0
C143 C 0.7442 0.73289 0.27771 0.0
C144 C 0.73379 0.74808 0.35192 0.0
C145 C 0.6933 0.69474 0.38679 0.0
H146 H 0.28988 0.86436 0.12153 0.0
H147 H 0.12741 0.8992 0.32823 0.0
H148 H 0.35807 0.83035 0.16982 0.0
H149 H 0.19543 0.86556 0.37738 0.0
H150 H 0.25848 0.66416 0.36797 0.0
H151 H 0.20833 0.7399 0.34449 0.0
H152 H 0.42376 0.85937 0.25816 0.0
H153 H 0.47342 0.78335 0.28305 0.0
C154 C 0.27072 0.8681 0.17826 0.0
C155 C 0.20385 0.88454 0.22152 0.0
C156 C 0.30944 0.84834 0.20593 0.0
C157 C 0.28142 0.84438 0.27709 0.0
C158 C 0.21767 0.86719 0.32205 0.0
C159 C 0.17909 0.88685 0.29431 0.0
C160 C 0.29467 0.70835 0.34646 0.0
C161 C 0.36937 0.71952 0.32882 0.0
C162 C 0.26626 0.75164 0.33286 0.0
C163 C 0.31224 0.80619 0.30032 0.0
C164 C 0.38718 0.81791 0.28349 0.0
C165 C 0.4155 0.77473 0.2976 0.0
H166 H 0.09196 0.79731 0.87764 0.0
H167 H 0.27367 0.98016 0.8558 0.0
H168 H 0.16639 0.71474 0.79049 0.0
H169 H 0.34789 0.89864 0.7617 0.0
H170 H 0.49421 0.74997 0.65539 0.0
H171 H 0.41234 0.82476 0.74735 0.0
H172 H 0.23189 0.65315 0.68927 0.0
H173 H 0.31364 0.57712 0.60441 0.0
C174 C 0.14695 0.82022 0.85009 0.0
C175 C 0.17682 0.89532 0.87351 0.0
C176 C 0.1907 0.7724 0.80034 0.0
C177 C 0.26518 0.79868 0.77011 0.0
C178 C 0.2922 0.87502 0.78616 0.0
C179 C 0.2489 0.92258 0.83816 0.0
C180 C 0.43663 0.72694 0.66611 0.0
C181 C 0.41039 0.65727 0.62355 0.0
C182 C 0.3893 0.77094 0.71686 0.0
C183 C 0.31458 0.74742 0.72438 0.0
C184 C 0.28829 0.67468 0.68633 0.0
C185 C 0.33545 0.62986 0.63791 0.0
H186 H 0.4545 0.4086 0.73011 0.0
H187 H 0.31169 0.34869 0.60277 0.0
H188 H 0.37434 0.32191 0.79337 0.0
H189 H 0.22631 0.26476 0.67134 0.0
H190 H 0.12633 0.06161 0.74213 0.0
H191 H 0.20834 0.15178 0.68084 0.0
H192 H 0.27434 0.2817 0.87383 0.0
H193 H 0.19676 0.18826 0.93154 0.0
C194 C 0.40419 0.37851 0.71748 0.0
C195 C 0.38993 0.38508 0.66075 0.0
C196 C 0.35755 0.32847 0.75432 0.0
C197 C 0.29366 0.28437 0.73722 0.0
C198 C 0.27606 0.29569 0.6847 0.0
C199 C 0.32401 0.34524 0.64644 0.0
C200 C 0.16139 0.10789 0.76965 0.0
C201 C 0.15743 0.11674 0.84043 0.0
C202 C 0.20684 0.16094 0.73548 0.0
C203 C 0.24784 0.22549 0.77219 0.0
C204 C 0.24524 0.2327 0.84252 0.0
C205 C 0.20123 0.17862 0.87578 0.0
H206 H 0.92536 0.11541 0.66403 0.0
H207 H 0.89126 0.28035 0.87071 0.0
H208 H 0.89308 0.18415 0.61423 0.0
H209 H 0.85829 0.34919 0.82185 0.0
H210 H 0.81058 0.46442 0.70839 0.0
H211 H 0.88609 0.41505 0.73397 0.0
H212 H 0.76917 0.19686 0.6457 0.0
H213 H 0.694 0.2467 0.62155 0.0
C214 C 0.91349 0.16783 0.69781 0.0
C215 C 0.91087 0.193 0.7708 0.0
C216 C 0.89456 0.20682 0.66971 0.0
C217 C 0.87207 0.27135 0.71452 0.0
C218 C 0.87593 0.29991 0.78587 0.0
C219 C 0.89508 0.26082 0.81387 0.0
C220 C 0.80245 0.40597 0.6935 0.0
C221 C 0.74812 0.35899 0.66151 0.0
C222 C 0.84533 0.3778 0.70804 0.0
C223 C 0.83419 0.30214 0.6909 0.0
C224 C 0.78052 0.25534 0.65759 0.0
C225 C 0.73755 0.28359 0.64356 0.0
H226 H 0.7268 0.66726 0.54767 0.0
H227 H 0.57353 0.63477 0.74755 0.0
H228 H 0.81839 0.73878 0.60863 0.0
H229 H 0.66313 0.71168 0.81131 0.0
H230 H 0.84803 0.79043 0.90181 0.0
H231 H 0.76458 0.71084 0.83086 0.0
H232 H 0.86713 0.84073 0.6833 0.0
H233 H 0.95252 0.91458 0.75032 0.0
C234 C 0.71161 0.67955 0.60585 0.0
C235 C 0.64262 0.6476 0.6434 0.0
C236 C 0.76449 0.71991 0.64106 0.0
C237 C 0.74923 0.73064 0.71532 0.0
C238 C 0.67807 0.70307 0.75384 0.0
C239 C 0.62572 0.66104 0.71798 0.0
C240 C 0.8548 0.79886 0.85186 0.0
C241 C 0.90711 0.85797 0.83101 0.0
C242 C 0.8056 0.75485 0.81227 0.0
C243 C 0.80717 0.77019 0.75201 0.0
C244 C 0.86364 0.826 0.72851 0.0
C245 C 0.91332 0.86846 0.76687 0.0
loop_
_geom_bond_atom_site_label_1
_geom_bond_atom_site_label_2
_geom_bond_distance
_geom_bond_site_symmetry_2
_ccdc_geom_bond_type
Co0 N1 2.034 . S
Co0 O15 2.262 1_554 S
Co0 O19 1.958 1_455 S
Co0 O23 1.950 1_565 S
Co0 O24 2.057 1_554 S
N1 Co0 2.034 . S
N1 C2 1.366 . S
N1 C4 1.332 . S
C2 N1 1.366 . S
C2 C5 1.377 . S
C2 H34 0.931 1_455 S
N3 C4 1.346 . S
N3 C5 1.337 . S
C4 N1 1.332 . S
C4 N3 1.346 . S
C4 C38 1.361 . S
C5 C2 1.377 . S
C5 N3 1.337 . S
C5 H41 0.930 . S
Co6 N7 2.034 . S
Co6 O20 1.950 1_655 S
Co6 O21 2.262 1_556 S
Co6 O22 1.958 1_545 S
Co6 O26 2.057 1_556 S
N7 Co6 2.034 . S
N7 C10 1.366 . S
N7 C11 1.332 . S
N8 C9 1.337 . S
N8 C11 1.346 . S
C9 N8 1.337 . S
C9 C10 1.377 . S
C9 H42 0.930 . S
C10 N7 1.366 . S
C10 C9 1.377 . S
C10 H14 0.931 1_545 S
C11 N7 1.332 . S
C11 N8 1.346 . S
C11 C28 1.361 . S
Co12 O15 2.097 1_654 S
Co12 O16 2.065 1_664 S
Co12 O17 2.065 1_665 S
Co12 O18 2.042 . S
Co12 O21 2.097 1_565 S
Co12 O25 2.042 1_554 S
C13 O21 1.253 . S
C13 O26 1.263 . S
H14 C10 0.931 1_565 S
O15 Co0 2.262 1_556 S
O15 Co12 2.097 1_456 S
O15 C39 1.253 . S
O16 Co12 2.065 1_446 S
O16 C32 1.221 . S
O17 Co12 2.065 1_445 S
O17 C27 1.221 . S
O18 Co12 2.042 . S
O18 C33 1.237 . S
O19 Co0 1.958 1_655 S
O19 C33 1.278 . S
O20 Co6 1.950 1_455 S
O20 C32 1.277 . S
O21 Co6 2.262 1_554 S
O21 Co12 2.097 1_545 S
O21 C13 1.253 . S
O22 Co6 1.958 1_565 S
O22 C40 1.278 . S
O23 Co0 1.950 1_545 S
O23 C27 1.277 . S
O24 Co0 2.057 1_556 S
O24 C39 1.263 . S
O25 Co12 2.042 1_556 S
O25 C40 1.237 . S
O26 Co6 2.057 1_554 S
O26 C13 1.263 . S
C27 O17 1.221 . S
C27 O23 1.277 . S
C28 C11 1.361 . S
C28 H29 0.960 . S
C28 H30 0.961 . S
C28 H31 0.961 . S
H29 C28 0.960 . S
H30 C28 0.961 . S
H31 C28 0.961 . S
C32 O16 1.221 . S
C32 O20 1.277 . S
C33 O18 1.237 . S
C33 O19 1.278 . S
H34 C2 0.931 1_655 S
H35 C38 0.961 . S
H36 C38 0.961 . S
H37 C38 0.960 . S
C38 C4 1.361 . S
C38 H35 0.961 . S
C38 H36 0.961 . S
C38 H37 0.960 . S
C39 O15 1.253 . S
C39 O24 1.263 . S
C40 O22 1.278 . S
C40 O25 1.237 . S
H41 C5 0.930 . S
H42 C9 0.930 . S
Co43 N44 2.034 . S
Co43 O58 2.262 . S
Co43 O62 1.958 . S
Co43 O66 1.950 . S
Co43 O67 2.057 . S
N44 Co43 2.034 . S
N44 C45 1.366 . S
N44 C47 1.332 . S
C45 N44 1.366 . S
C45 C48 1.377 . S
C45 H77 0.931 . S
N46 C47 1.346 . S
N46 C48 1.337 . S
C47 N44 1.332 . S
C47 N46 1.346 . S
C47 C81 1.361 . S
C48 C45 1.377 . S
C48 N46 1.337 . S
C48 H84 0.930 . S
Co49 N50 2.034 . S
Co49 O63 1.950 . S
Co49 O64 2.262 . S
Co49 O65 1.958 . S
Co49 O69 2.057 . S
N50 Co49 2.034 . S
N50 C53 1.366 . S
N50 C54 1.332 . S
N51 C52 1.337 . S
N51 C54 1.346 . S
C52 N51 1.337 . S
C52 C53 1.377 . S
C52 H85 0.930 . S
C53 N50 1.366 . S
C53 C52 1.377 . S
C53 H57 0.931 . S
C54 N50 1.332 . S
C54 N51 1.346 . S
C54 C71 1.361 . S
Co55 O58 2.097 . S
Co55 O59 2.065 . S
Co55 O60 2.065 . S
Co55 O61 2.042 . S
Co55 O64 2.097 . S
Co55 O68 2.042 . S
C56 O64 1.253 . S
C56 O69 1.263 . S
H57 C53 0.931 . S
O58 Co43 2.262 . S
O58 Co55 2.097 . S
O58 C82 1.253 . S
O59 Co55 2.065 . S
O59 C75 1.221 . S
O60 Co55 2.065 . S
O60 C70 1.221 . S
O61 Co55 2.042 . S
O61 C76 1.237 . S
O62 Co43 1.958 . S
O62 C76 1.278 . S
O63 Co49 1.950 . S
O63 C75 1.277 . S
O64 Co49 2.262 . S
O64 Co55 2.097 . S
O64 C56 1.253 . S
O65 Co49 1.958 . S
O65 C83 1.278 . S
O66 Co43 1.950 . S
O66 C70 1.277 . S
O67 Co43 2.057 . S
O67 C82 1.263 . S
O68 Co55 2.042 . S
O68 C83 1.237 . S
O69 Co49 2.057 . S
O69 C56 1.263 . S
C70 O60 1.221 . S
C70 O66 1.277 . S
C71 C54 1.361 . S
C71 H72 0.960 . S
C71 H73 0.961 . S
C71 H74 0.961 . S
H72 C71 0.960 . S
H73 C71 0.961 . S
H74 C71 0.961 . S
C75 O59 1.221 . S
C75 O63 1.277 . S
C76 O61 1.237 . S
C76 O62 1.278 . S
H77 C45 0.931 . S
H78 C81 0.961 . S
H79 C81 0.961 . S
H80 C81 0.960 . S
C81 C47 1.361 . S
C81 H78 0.961 . S
C81 H79 0.961 . S
C81 H80 0.960 . S
C82 O58 1.253 . S
C82 O67 1.263 . S
C83 O65 1.278 . S
C83 O68 1.237 . S
H84 C48 0.930 . S
H85 C52 0.930 . S
H86 C94 0.950 . S
H87 C99 0.950 . S
H88 C96 0.950 . S
H89 C98 0.950 . S
H90 C100 0.950 . S
H91 C102 0.950 . S
H92 C104 0.950 . S
H93 C105 0.950 . S
C94 H86 0.950 . S
C94 C95 1.386 . S
C94 C96 1.391 . S
C95 C94 1.386 . S
C95 C99 1.393 . S
C96 H88 0.950 . S
C96 C94 1.391 . S
C96 C97 1.400 . S
C97 C96 1.400 . S
C97 C98 1.398 . S
C97 C103 1.491 . S
C98 H89 0.950 . S
C98 C97 1.398 . S
C98 C99 1.391 . S
C99 H87 0.950 . S
C99 C95 1.393 . S
C99 C98 1.391 . S
C100 H90 0.950 . S
C100 C101 1.386 . S
C100 C102 1.391 . S
C101 C100 1.386 . S
C101 C105 1.393 . S
C102 H91 0.950 . S
C102 C100 1.391 . S
C102 C103 1.400 . S
C103 C97 1.491 . S
C103 C102 1.400 . S
C103 C104 1.398 . S
C104 H92 0.950 . S
C104 C103 1.398 . S
C104 C105 1.391 . S
C105 H93 0.950 . S
C105 C101 1.393 . S
C105 C104 1.391 . S
H106 C114 0.950 . S
H107 C119 0.950 . S
H108 C116 0.950 . S
H109 C118 0.950 . S
H110 C120 0.950 . S
H111 C122 0.950 . S
H112 C124 0.950 . S
H113 C125 0.950 . S
C114 H106 0.950 . S
C114 C115 1.386 . S
C114 C116 1.391 . S
C115 C114 1.386 . S
C115 C119 1.393 . S
C116 H108 0.950 . S
C116 C114 1.391 . S
C116 C117 1.400 . S
C117 C116 1.400 . S
C117 C118 1.398 . S
C117 C123 1.491 . S
C118 H109 0.950 . S
C118 C117 1.398 . S
C118 C119 1.391 . S
C119 H107 0.950 . S
C119 C115 1.393 . S
C119 C118 1.391 . S
C120 H110 0.950 . S
C120 C121 1.386 . S
C120 C122 1.391 . S
C121 C120 1.386 . S
C121 C125 1.393 . S
C122 H111 0.950 . S
C122 C120 1.391 . S
C122 C123 1.400 . S
C123 C117 1.491 . S
C123 C122 1.400 . S
C123 C124 1.398 . S
C124 H112 0.950 . S
C124 C123 1.398 . S
C124 C125 1.391 . S
C125 H113 0.950 . S
C125 C121 1.393 . S
C125 C124 1.391 . S
H126 C134 0.950 . S
H127 C139 0.950 . S
H128 C136 0.950 . S
H129 C138 0.950 . S
H130 C140 0.950 . S
H131 C142 0.950 . S
H132 C144 0.950 . S
H133 C145 0.950 . S
C134 H126 0.950 . S
C134 C135 1.386 . S
C134 C136 1.391 . S
C135 C134 1.386 . S
C135 C139 1.393 . S
C136 H128 0.950 . S
C136 C134 1.391 . S
C136 C137 1.400 . S
C137 C136 1.400 . S
C137 C138 1.398 . S
C137 C143 1.491 . S
C138 H129 0.950 . S
C138 C137 1.398 . S
C138 C139 1.391 . S
C139 H127 0.950 . S
C139 C135 1.393 . S
C139 C138 1.391 . S
C140 H130 0.950 . S
C140 C141 1.386 . S
C140 C142 1.391 . S
C141 C140 1.386 . S
C141 C145 1.393 . S
C142 H131 0.950 . S
C142 C140 1.391 . S
C142 C143 1.400 . S
C143 C137 1.491 . S
C143 C142 1.400 . S
C143 C144 1.398 . S
C144 H132 0.950 . S
C144 C143 1.398 . S
C144 C145 1.391 . S
C145 H133 0.950 . S
C145 C141 1.393 . S
C145 C144 1.391 . S
H146 C154 0.950 . S
H147 C159 0.950 . S
H148 C156 0.950 . S
H149 C158 0.950 . S
H150 C160 0.950 . S
H151 C162 0.950 . S
H152 C164 0.950 . S
H153 C165 0.950 . S
C154 H146 0.950 . S
C154 C155 1.386 . S
C154 C156 1.391 . S
C155 C154 1.386 . S
C155 C159 1.393 . S
C156 H148 0.950 . S
C156 C154 1.391 . S
C156 C157 1.400 . S
C157 C156 1.400 . S
C157 C158 1.398 . S
C157 C163 1.491 . S
C158 H149 0.950 . S
C158 C157 1.398 . S
C158 C159 1.391 . S
C159 H147 0.950 . S
C159 C155 1.393 . S
C159 C158 1.391 . S
C160 H150 0.950 . S
C160 C161 1.386 . S
C160 C162 1.391 . S
C161 C160 1.386 . S
C161 C165 1.393 . S
C162 H151 0.950 . S
C162 C160 1.391 . S
C162 C163 1.400 . S
C163 C157 1.491 . S
C163 C162 1.400 . S
C163 C164 1.398 . S
C164 H152 0.950 . S
C164 C163 1.398 . S
C164 C165 1.391 . S
C165 H153 0.950 . S
C165 C161 1.393 . S
C165 C164 1.391 . S
H166 C174 0.950 . S
H167 C179 0.950 . S
H168 C176 0.950 . S
H169 C178 0.950 . S
H170 C180 0.950 . S
H171 C182 0.950 . S
H172 C184 0.950 . S
H173 C185 0.950 . S
C174 H166 0.950 . S
C174 C175 1.386 . S
C174 C176 1.391 . S
C175 C174 1.386 . S
C175 C179 1.393 . S
C176 H168 0.950 . S
C176 C174 1.391 . S
C176 C177 1.400 . S
C177 C176 1.400 . S
C177 C178 1.398 . S
C177 C183 1.491 . S
C178 H169 0.950 . S
C178 C177 1.398 . S
C178 C179 1.391 . S
C179 H167 0.950 . S
C179 C175 1.393 . S
C179 C178 1.391 . S
C180 H170 0.950 . S
C180 C181 1.386 . S
C180 C182 1.391 . S
C181 C180 1.386 . S
C181 C185 1.393 . S
C182 H171 0.950 . S
C182 C180 1.391 . S
C182 C183 1.400 . S
C183 C177 1.491 . S
C183 C182 1.400 . S
C183 C184 1.398 . S
C184 H172 0.950 . S
C184 C183 1.398 . S
C184 C185 1.391 . S
C185 H173 0.950 . S
C185 C181 1.393 . S
C185 C184 1.391 . S
H186 C194 0.950 . S
H187 C199 0.950 . S
H188 C196 0.950 . S
H189 C198 0.950 . S
H190 C200 0.950 . S
H191 C202 0.950 . S
H192 C204 0.950 . S
H193 C205 0.950 . S
C194 H186 0.950 . S
C194 C195 1.386 . S
C194 C196 1.391 . S
C195 C194 1.386 . S
C195 C199 1.393 . S
C196 H188 0.950 . S
C196 C194 1.391 . S
C196 C197 1.400 . S
C197 C196 1.400 . S
C197 C198 1.398 . S
C197 C203 1.491 . S
C198 H189 0.950 . S
C198 C197 1.398 . S
C198 C199 1.391 . S
C199 H187 0.950 . S
C199 C195 1.393 . S
C199 C198 1.391 . S
C200 H190 0.950 . S
C200 C201 1.386 . S
C200 C202 1.391 . S
C201 C200 1.386 . S
C201 C205 1.393 . S
C202 H191 0.950 . S
C202 C200 1.391 . S
C202 C203 1.400 . S
C203 C197 1.491 . S
C203 C202 1.400 . S
C203 C204 1.398 . S
C204 H192 0.950 . S
C204 C203 1.398 . S
C204 C205 1.391 . S
C205 H193 0.950 . S
C205 C201 1.393 . S
C205 C204 1.391 . S
H206 C214 0.950 . S
H207 C219 0.950 . S
H208 C216 0.950 . S
H209 C218 0.950 . S
H210 C220 0.950 . S
H211 C222 0.950 . S
H212 C224 0.950 . S
H213 C225 0.950 . S
C214 H206 0.950 . S
C214 C215 1.386 . S
C214 C216 1.391 . S
C215 C214 1.386 . S
C215 C219 1.393 . S
C216 H208 0.950 . S
C216 C214 1.391 . S
C216 C217 1.400 . S
C217 C216 1.400 . S
C217 C218 1.398 . S
C217 C223 1.491 . S
C218 H209 0.950 . S
C218 C217 1.398 . S
C218 C219 1.391 . S
C219 H207 0.950 . S
C219 C215 1.393 . S
C219 C218 1.391 . S
C220 H210 0.950 . S
C220 C221 1.386 . S
C220 C222 1.391 . S
C221 C220 1.386 . S
C221 C225 1.393 . S
C222 H211 0.950 . S
C222 C220 1.391 . S
C222 C223 1.400 . S
C223 C217 1.491 . S
C223 C222 1.400 . S
C223 C224 1.398 . S
C224 H212 0.950 . S
C224 C223 1.398 . S
C224 C225 1.391 . S
C225 H213 0.950 . S
C225 C221 1.393 . S
C225 C224 1.391 . S
H226 C234 0.950 . S
H227 C239 0.950 . S
H228 C236 0.950 . S
H229 C238 0.950 . S
H230 C240 0.950 . S
H231 C242 0.950 . S
H232 C244 0.950 . S
H233 C245 0.950 . S
C234 H226 0.950 . S
C234 C235 1.386 . S
C234 C236 1.391 . S
C235 C234 1.386 . S
C235 C239 1.393 . S
C236 H228 0.950 . S
C236 C234 1.391 . S
C236 C237 1.400 . S
C237 C236 1.400 . S
C237 C238 1.398 . S
C237 C243 1.491 . S
C238 H229 0.950 . S
C238 C237 1.398 . S
C238 C239 1.391 . S
C239 H227 0.950 . S
C239 C235 1.393 . S
C239 C238 1.391 . S
C240 H230 0.950 . S
C240 C241 1.386 . S
C240 C242 1.391 . S
C241 C240 1.386 . S
C241 C245 1.393 . S
C242 H231 0.950 . S
C242 C240 1.391 . S
C242 C243 1.400 . S
C243 C237 1.491 . S
C243 C242 1.400 . S
C243 C244 1.398 . S
C244 H232 0.950 . S
C244 C243 1.398 . S
C244 C245 1.391 . S
C245 H233 0.950 . S
C245 C241 1.393 . S
C245 C244 1.391 . S
C95 C27 1.346 . S
C101 C83 1.341 . S
C115 C13 1.404 . S
C121 C82 1.403 . S
C135 C33 1.373 . S
C141 C75 1.375 . S
C155 N3 1.510 . S
C161 N51 1.499 . S
C175 C39 1.399 . S
C181 C56 1.398 . S
C195 C76 1.359 . S
C201 C32 1.356 . S
C215 N8 1.512 . S
C221 N46 1.523 . S
C235 C70 1.372 . S
C241 C40 1.375 . S
