# Generated by pormake.
# Topology dmp, (4)-cn, num edge types: 1
# Building blocks:
#     Node 0, Type 0, BuildingBlock: GALJAG_clean_sbu_0, # of connection points: 4
#     Node 1, Type 0, BuildingBlock: GALJAG_clean_sbu_0, # of connection points: 4
#     Node 2, Type 0, BuildingBlock: GALJAG_clean_sbu_0, # of connection points: 4
#     Node 3, Type 0, BuildingBlock: GALJAG_clean_sbu_0, # of connection points: 4
#     Edge 4, Type (0, 0), None
#     Edge 5, Type (0, 0), None
#     Edge 6, Type (0, 0), None
#     Edge 7, Type (0, 0), None
#     Edge 8, Type (0, 0), None
#     Edge 9, Type (0, 0), None
#     Edge 10, Type (0, 0), None
#     Edge 11, Type (0, 0), None
# Relax obj value: 0.059
# Max RMSD: 0.179
# Mean RMSD: 0.179
data_MOF--net-dmp--node1-GALJAG_clean_sbu_0--edge1-none
_symmetry_space_group_name_H-M    P1
_symmetry_Int_Tables_number       1
_symmetry_cell_setting            triclinic
loop_
_symmetry_equiv_pos_as_xyz
'x, y, z'
_cell_length_a     18.495614
_cell_length_b     9.0688016
_cell_length_c     5.3195665
_cell_angle_alpha  89.999669
_cell_angle_beta   90.901034
_cell_angle_gamma 90.000028
loop_
_atom_site_label
_atom_site_type_symbol
_atom_site_fract_x
_atom_site_fract_y
_atom_site_fract_z
_atom_type_partial_charge
In0 In 0.05764 0.27899 0.27963 0.0
O1 O 0.12653 0.43448 0.04452 0.0
O2 O 0.14136 0.42299 0.44792 0.0
C3 C -0.03458 0.08359 0.08269 0.0
C4 C -0.0345 0.47143 0.47569 0.0
C5 C 0.16265 0.08348 0.3178 0.0
O6 O -0.00604 0.18386 0.94941 0.0
O7 O -0.0186 0.08618 0.31512 0.0
O8 O 0.12958 0.12487 0.5141 0.0
O9 O 0.14084 0.13767 0.11084 0.0
C10 C 0.1611 0.47707 0.24061 0.0
O11 O -0.00398 0.37232 0.60946 0.0
O12 O -0.02037 0.4692 0.24351 0.0
In13 In 0.3251 0.77899 0.27831 0.0
O14 O 0.25621 0.93448 0.51342 0.0
O15 O 0.24138 0.92299 0.11002 0.0
C16 C 0.41732 0.58359 0.47525 0.0
C17 C 0.41724 0.97143 0.08225 0.0
C18 C 0.22009 0.58347 0.24014 0.0
O19 O 0.38878 0.68386 0.60853 0.0
O20 O 0.40134 0.58618 0.24282 0.0
O21 O 0.25316 0.62487 0.04384 0.0
O22 O 0.24191 0.63766 0.4471 0.0
C23 C 0.22164 0.97708 0.31733 0.0
O24 O 0.38672 0.87232 0.94848 0.0
O25 O 0.40311 0.9692 0.31443 0.0
In26 In 0.8251 0.77517 0.77831 0.0
O27 O 0.88672 0.68184 0.44848 0.0
O28 O 0.90311 0.58496 0.81443 0.0
C29 C 0.72009 0.97069 0.74014 0.0
C30 C 0.72164 0.57709 0.81733 0.0
C31 C 0.91732 0.97058 0.97525 0.0
O32 O 0.75316 0.92929 0.54384 0.0
O33 O 0.7419 0.9165 0.9471 0.0
O34 O 0.88878 0.8703 0.10853 0.0
O35 O 0.90134 0.96798 0.74282 0.0
C36 C 0.91724 0.58273 0.58225 0.0
O37 O 0.75621 0.61968 1.01342 0.0
O38 O 0.74138 0.63117 0.61002 0.0
In39 In 0.55764 0.27517 0.77963 0.0
O40 O 0.62653 0.11968 0.54452 0.0
O41 O 0.64136 0.13117 0.94792 0.0
C42 C 0.46542 0.47058 0.58269 0.0
C43 C 0.4655 0.08273 0.97569 0.0
C44 C 0.66265 0.47069 0.8178 0.0
O45 O 0.49396 0.3703 0.44941 0.0
O46 O 0.4814 0.46798 0.81512 0.0
O47 O 0.62958 0.42929 1.0141 0.0
O48 O 0.64084 0.4165 0.61084 0.0
C49 C 0.6611 0.07708 0.74061 0.0
O50 O 0.49602 0.18184 0.10946 0.0
O51 O 0.47963 0.08496 0.74351 0.0
loop_
_geom_bond_atom_site_label_1
_geom_bond_atom_site_label_2
_geom_bond_distance
_geom_bond_site_symmetry_2
_ccdc_geom_bond_type
In0 O1 2.294 . S
In0 O2 2.326 . S
In0 O6 2.266 1_554 S
In0 O7 2.326 . S
In0 O8 2.266 . S
In0 O9 2.326 . S
In0 O11 2.294 . S
In0 O12 2.326 . S
O1 In0 2.294 . S
O1 C10 1.240 . S
O2 In0 2.326 . S
O2 C10 1.252 . S
C3 O6 1.252 . S
C3 O7 1.260 1_556 S
C4 O11 1.240 . S
C4 O12 1.252 . S
C5 O8 1.252 . S
C5 O9 1.260 . S
O6 In0 2.266 1_556 S
O6 C3 1.252 . S
O7 In0 2.326 . S
O7 C3 1.260 1_554 S
O8 In0 2.266 . S
O8 C5 1.252 . S
O9 In0 2.326 . S
O9 C5 1.260 . S
C10 O1 1.240 . S
C10 O2 1.252 . S
O11 In0 2.294 . S
O11 C4 1.240 . S
O12 In0 2.326 . S
O12 C4 1.252 . S
In13 O14 2.294 . S
In13 O15 2.326 . S
In13 O19 2.266 . S
In13 O20 2.326 . S
In13 O21 2.266 . S
In13 O22 2.326 . S
In13 O24 2.294 1_554 S
In13 O25 2.326 . S
O14 In13 2.294 . S
O14 C23 1.240 . S
O15 In13 2.326 . S
O15 C23 1.252 . S
C16 O19 1.252 . S
C16 O20 1.260 . S
C17 O24 1.240 . S
C17 O25 1.252 1_556 S
C18 O21 1.252 . S
C18 O22 1.260 . S
O19 In13 2.266 . S
O19 C16 1.252 . S
O20 In13 2.326 . S
O20 C16 1.260 . S
O21 In13 2.266 . S
O21 C18 1.252 . S
O22 In13 2.326 . S
O22 C18 1.260 . S
C23 O14 1.240 . S
C23 O15 1.252 . S
O24 In13 2.294 1_556 S
O24 C17 1.240 . S
O25 In13 2.326 . S
O25 C17 1.252 1_554 S
In26 O27 2.294 . S
In26 O28 2.326 . S
In26 O32 2.266 . S
In26 O33 2.326 . S
In26 O34 2.266 1_556 S
In26 O35 2.326 . S
In26 O37 2.294 . S
In26 O38 2.326 . S
O27 In26 2.294 . S
O27 C36 1.240 . S
O28 In26 2.326 . S
O28 C36 1.252 . S
C29 O32 1.252 . S
C29 O33 1.260 . S
C30 O37 1.240 . S
C30 O38 1.252 . S
C31 O34 1.252 . S
C31 O35 1.260 1_554 S
O32 In26 2.266 . S
O32 C29 1.252 . S
O33 In26 2.326 . S
O33 C29 1.260 . S
O34 In26 2.266 1_554 S
O34 C31 1.252 . S
O35 In26 2.326 . S
O35 C31 1.260 1_556 S
C36 O27 1.240 . S
C36 O28 1.252 . S
O37 In26 2.294 . S
O37 C30 1.240 . S
O38 In26 2.326 . S
O38 C30 1.252 . S
In39 O40 2.294 . S
In39 O41 2.326 . S
In39 O45 2.266 . S
In39 O46 2.326 . S
In39 O47 2.266 . S
In39 O48 2.326 . S
In39 O50 2.294 1_556 S
In39 O51 2.326 . S
O40 In39 2.294 . S
O40 C49 1.240 . S
O41 In39 2.326 . S
O41 C49 1.252 . S
C42 O45 1.252 . S
C42 O46 1.260 . S
C43 O50 1.240 . S
C43 O51 1.252 1_554 S
C44 O47 1.252 . S
C44 O48 1.260 . S
O45 In39 2.266 . S
O45 C42 1.252 . S
O46 In39 2.326 . S
O46 C42 1.260 . S
O47 In39 2.266 . S
O47 C44 1.252 . S
O48 In39 2.326 . S
O48 C44 1.260 . S
C49 O40 1.240 . S
C49 O41 1.252 . S
O50 In39 2.294 1_554 S
O50 C43 1.240 . S
O51 In39 2.326 . S
O51 C43 1.252 1_556 S
C23 C5 1.283 1_565 S
C10 C18 1.283 . S
C49 C29 1.283 1_545 S
C30 C44 1.283 . S
C3 C31 1.748 1_446 S
C43 C17 1.746 1_544 S
C36 C4 1.746 1_655 S
C16 C42 1.748 . S
