# Generated by pormake.
# Topology lon, (4)-cn, num edge types: 1
# Building blocks:
#     Node 0, Type 0, BuildingBlock: CEKHIL_clean_sbu_0, # of connection points: 4
#     Node 1, Type 0, BuildingBlock: CEKHIL_clean_sbu_0, # of connection points: 4
#     Node 2, Type 0, BuildingBlock: CEKHIL_clean_sbu_0, # of connection points: 4
#     Node 3, Type 0, BuildingBlock: CEKHIL_clean_sbu_0, # of connection points: 4
#     Edge 4, Type (0, 0), BuildingBlock: EZIPEK_clean_linker_0, # of connection points: 2
#     Edge 5, Type (0, 0), BuildingBlock: EZIPEK_clean_linker_0, # of connection points: 2
#     Edge 6, Type (0, 0), BuildingBlock: EZIPEK_clean_linker_0, # of connection points: 2
#     Edge 7, Type (0, 0), BuildingBlock: EZIPEK_clean_linker_0, # of connection points: 2
#     Edge 8, Type (0, 0), BuildingBlock: EZIPEK_clean_linker_0, # of connection points: 2
#     Edge 9, Type (0, 0), BuildingBlock: EZIPEK_clean_linker_0, # of connection points: 2
#     Edge 10, Type (0, 0), BuildingBlock: EZIPEK_clean_linker_0, # of connection points: 2
#     Edge 11, Type (0, 0), BuildingBlock: EZIPEK_clean_linker_0, # of connection points: 2
# Relax obj value: 0.141
# Max RMSD: 0.174
# Mean RMSD: 0.173
data_MOF--net-lon--node1-CEKHIL_clean_sbu_0--edge1-EZIPEK_clean_linker_0
_symmetry_space_group_name_H-M    P1
_symmetry_Int_Tables_number       1
_symmetry_cell_setting            triclinic
loop_
_symmetry_equiv_pos_as_xyz
'x, y, z'
_cell_length_a     16.417884
_cell_length_b     17.819905
_cell_length_c     29.310613
_cell_angle_alpha  92.14209
_cell_angle_beta   89.040339
_cell_angle_gamma 116.7174
loop_
_atom_site_label
_atom_site_type_symbol
_atom_site_fract_x
_atom_site_fract_y
_atom_site_fract_z
_atom_type_partial_charge
Co0 Co 0.3869 0.71316 0.0956 0.0
O1 O 0.34696 0.76224 0.14643 0.0
O2 O 0.40302 0.6713 0.1531 0.0
C3 C 0.46488 0.83881 0.06015 0.0
O4 O 0.43987 0.64964 0.05507 0.0
Co5 Co 0.3489 0.71488 0.99404 0.0
O6 O 0.43715 0.67017 0.98035 0.0
C7 C 0.20221 0.60171 0.05453 0.0
C8 C 0.3708 0.71859 0.17294 0.0
C9 C 0.45956 0.63917 1.01336 0.0
O10 O 0.25867 0.61873 0.08796 0.0
O11 O 0.22414 0.63794 1.01626 0.0
O12 O 0.5022 0.8166 0.09252 0.0
O13 O 0.38309 0.78401 0.05008 0.0
Co14 Co 0.65796 0.34684 0.59817 0.0
O15 O 0.57797 0.29962 0.65033 0.0
O16 O 0.7272 0.3462 0.65109 0.0
C17 C 0.59238 0.43041 0.57937 0.0
O18 O 0.76678 0.40365 0.55515 0.0
Co19 Co 0.59645 0.33518 0.49837 0.0
O20 O 0.72592 0.40782 0.48298 0.0
C21 C 0.59515 0.18584 0.5404 0.0
C22 C 0.65102 0.31598 0.67365 0.0
C23 C 0.78668 0.42478 0.51337 0.0
O24 O 0.64093 0.23144 0.57505 0.0
O25 O 0.56224 0.2145 0.51006 0.0
O26 O 0.654 0.45424 0.61119 0.0
O27 O 0.57078 0.3572 0.56082 0.0
Co28 Co 0.31951 0.67205 0.44636 0.0
O29 O 0.28645 0.72097 0.39601 0.0
O30 O 0.39001 0.67403 0.39208 0.0
C31 C 0.172 0.58786 0.46602 0.0
O32 O 0.37209 0.61454 0.4881 0.0
Co33 Co 0.26725 0.68382 0.54679 0.0
O34 O 0.32539 0.61098 0.56079 0.0
C35 C 0.41218 0.83275 0.50386 0.0
C36 C 0.34348 0.70513 0.37118 0.0
C37 C 0.37027 0.59371 0.52989 0.0
O38 O 0.41439 0.78698 0.46907 0.0
O39 O 0.35193 0.80461 0.53536 0.0
O40 O 0.21156 0.56483 0.43351 0.0
O41 O 0.22102 0.66088 0.48481 0.0
Co42 Co 0.68965 0.29518 0.94837 0.0
O43 O 0.60388 0.25367 0.89765 0.0
O44 O 0.74858 0.34596 0.89192 0.0
C45 C 0.64956 0.1674 0.97824 0.0
O46 O 0.80137 0.35259 0.99006 0.0
Co47 Co 0.63505 0.27732 0.05018 0.0
O48 O 0.76723 0.33366 0.0646 0.0
C49 C 0.60863 0.40097 0.99587 0.0
C50 C 0.67102 0.30105 0.8717 0.0
C51 C 0.82481 0.36339 0.03248 0.0
O52 O 0.65395 0.389 0.96236 0.0
O53 O 0.58721 0.35759 0.03185 0.0
O54 O 0.70595 0.19246 0.94407 0.0
O55 O 0.61555 0.21719 0.99157 0.0
C56 C 0.44276 0.76244 0.25105 0.0
C57 C 0.36287 0.72254 0.22371 0.0
C58 C 0.27007 0.67169 0.29293 0.0
C59 C 0.34941 0.71487 0.32053 0.0
N60 N 0.50791 0.81485 0.32633 0.0
N61 N 0.19893 0.65212 0.21856 0.0
C62 C 0.43493 0.76397 0.29967 0.0
C63 C 0.27602 0.68184 0.24472 0.0
N64 N 0.52641 0.79839 0.2305 0.0
N65 N 0.19005 0.61634 0.31226 0.0
H66 H 0.20037 0.65471 0.18305 0.0
H67 H 0.13362 0.63085 0.23218 0.0
H68 H 0.18252 0.60483 0.34703 0.0
H69 H 0.133 0.57578 0.29342 0.0
H70 H 0.58764 0.81921 0.24815 0.0
H71 H 0.53474 0.80332 0.19519 0.0
H72 H 0.56975 0.85876 0.31333 0.0
H73 H 0.50413 0.81878 0.36184 0.0
C74 C 0.69212 0.38684 0.75195 0.0
C75 C 0.64973 0.31148 0.72463 0.0
C76 C 0.62289 0.22886 0.79358 0.0
C77 C 0.66027 0.30408 0.82122 0.0
N78 N 0.70946 0.45353 0.82728 0.0
N79 N 0.55502 0.16165 0.72106 0.0
C80 C 0.68931 0.38284 0.80053 0.0
C81 C 0.60848 0.23278 0.746 0.0
N82 N 0.73472 0.46273 0.73161 0.0
N83 N 0.60614 0.15398 0.81204 0.0
H84 H 0.54256 0.16221 0.6864 0.0
H85 H 0.5159 0.10381 0.73561 0.0
H86 H 0.61961 0.14863 0.84605 0.0
H87 H 0.58792 0.09863 0.79261 0.0
H88 H 0.77698 0.51833 0.74921 0.0
H89 H 0.73216 0.4698 0.69662 0.0
H90 H 0.72174 0.51126 0.81429 0.0
H91 H 0.70454 0.45278 0.86279 0.0
C92 C 0.46287 0.5116 0.97428 0.0
C93 C 0.50498 0.58434 1.0036 0.0
C94 C 0.61972 0.53968 0.0254 0.0
C95 C 0.58057 0.46942 0.99429 0.0
N96 N 0.47683 0.39811 0.93217 0.0
N97 N 0.63603 0.67812 0.04787 0.0
C98 C 0.50668 0.45915 0.96609 0.0
C99 C 0.58738 0.60159 0.02633 0.0
N100 N 0.37776 0.48869 0.957 0.0
N101 N 0.68605 0.5462 0.05512 0.0
H102 H 0.61532 0.72559 0.04835 0.0
H103 H 0.70113 0.69762 0.06117 0.0
H104 H 0.71316 0.50341 0.05508 0.0
H105 H 0.70942 0.59051 0.08205 0.0
H106 H 0.33961 0.43147 0.93978 0.0
H107 H 0.34094 0.52266 0.96356 0.0
H108 H 0.42991 0.39364 0.90743 0.0
H109 H 0.50458 0.35626 0.92631 0.0
C110 C 0.03207 0.46038 0.49221 0.0
C111 C 0.07188 0.54245 0.47475 0.0
C112 C 0.92502 0.54774 0.48267 0.0
C113 C 0.88452 0.46504 0.49932 0.0
N114 N 0.8938 0.33578 0.51096 0.0
N115 N 0.05124 0.65525 0.44243 0.0
C116 C 0.93656 0.41941 0.50166 0.0
C117 C 0.01691 0.58365 0.46696 0.0
N118 N 0.08603 0.42241 0.50086 0.0
N119 N 0.87653 0.59316 0.48308 0.0
H120 H 0.11708 0.68213 0.42904 0.0
H121 H 1.01194 0.68336 0.43129 0.0
H122 H 0.80823 0.56818 0.4926 0.0
H123 H 0.90552 0.65722 0.47708 0.0
H124 H 0.06425 0.36755 0.51897 0.0
H125 H 0.15481 0.44856 0.49201 0.0
H126 H 0.92547 0.29664 0.50847 0.0
H127 H 0.82402 0.30327 0.51743 0.0
C128 C 0.63929 0.06604 0.03759 0.0
C129 C 0.61067 0.08032 0.99506 0.0
C130 C 0.48559 0.93669 0.99355 0.0
C131 C 0.51041 0.92382 0.0383 0.0
N132 N 0.59201 0.99234 0.10788 0.0
N133 N 0.50183 0.03299 0.93374 0.0
C134 C 0.58263 0.99272 0.06166 0.0
C135 C 0.53345 0.01621 0.97307 0.0
N136 N 0.72134 0.12287 0.05497 0.0
N137 N 0.41492 0.87442 0.97026 0.0
H138 H 0.53645 0.08902 0.91675 0.0
H139 H 0.43898 0.99343 0.91907 0.0
H140 H 0.35511 0.83384 0.98613 0.0
H141 H 0.41116 0.8708 0.93471 0.0
H142 H 0.75029 0.11266 0.08401 0.0
H143 H 0.76452 0.17543 0.03695 0.0
H144 H 0.63924 0.04373 0.12681 0.0
H145 H 0.54406 0.94677 0.12834 0.0
C146 C 0.57935 0.55759 0.55172 0.0
C147 C 0.53773 0.47623 0.57009 0.0
C148 C 0.38639 0.47078 0.56084 0.0
C149 C 0.42788 0.55302 0.54355 0.0
N150 N 0.56436 0.6816 0.5311 0.0
N151 N 0.40453 0.36437 0.60259 0.0
C152 C 0.52463 0.59836 0.54128 0.0
C153 C 0.44198 0.43532 0.57752 0.0
N154 N 0.6709 0.595 0.54312 0.0
N155 N 0.2936 0.42537 0.56015 0.0
H156 H 0.44313 0.33791 0.6167 0.0
H157 H 0.33694 0.33652 0.61345 0.0
H158 H 0.25047 0.44997 0.54971 0.0
H159 H 0.25954 0.36154 0.5667 0.0
H160 H 0.70392 0.64915 0.52445 0.0
H161 H 0.71344 0.569 0.55254 0.0
H162 H 0.63408 0.72069 0.5337 0.0
H163 H 0.52696 0.7139 0.52364 0.0
C164 C 0.07637 0.45481 0.06596 0.0
C165 C 0.10452 0.54155 0.05982 0.0
C166 C 0.94943 0.51136 0.03752 0.0
C167 C 0.92015 0.42452 0.04453 0.0
N168 N 0.95024 0.31751 0.07766 0.0
N169 N 0.06283 0.65425 0.05437 0.0
C170 C 0.98178 0.39748 0.06293 0.0
C171 C 0.03913 0.57027 0.05034 0.0
N172 N 0.13993 0.42639 0.07213 0.0
N173 N 0.89253 0.53784 1.01767 0.0
H174 H 0.12765 0.69871 0.06491 0.0
H175 H 0.01604 0.67857 0.05217 0.0
H176 H 0.82546 0.4976 1.00858 0.0
H177 H 0.91401 0.59897 1.007 0.0
H178 H 0.12426 0.36286 0.07133 0.0
H179 H 0.20953 0.46636 0.0749 0.0
H180 H 0.99052 0.29663 0.09515 0.0
H181 H 0.88158 0.27464 0.0765 0.0
C182 C 0.57024 0.06583 0.4861 0.0
C183 C 0.5792 0.09628 0.53224 0.0
C184 C 0.51903 0.95007 0.55541 0.0
C185 C 0.48384 0.92152 0.51064 0.0
N186 N 0.47564 0.9568 0.43228 0.0
N187 N 0.56965 0.06313 0.61236 0.0
C188 C 0.51076 0.98022 0.4753 0.0
C189 C 0.55734 0.03746 0.5675 0.0
N190 N 0.61923 0.119 0.45264 0.0
N191 N 0.51802 0.89362 0.58599 0.0
H192 H 0.60654 0.12525 0.62343 0.0
H193 H 0.54139 0.02179 0.6389 0.0
H194 H 0.4949 0.82996 0.5773 0.0
H195 H 0.54978 0.91132 0.61778 0.0
H196 H 0.62038 0.09863 0.41893 0.0
H197 H 0.66712 0.18094 0.46007 0.0
H198 H 0.48695 1.00014 0.40706 0.0
H199 H 0.42905 0.89587 0.42264 0.0
loop_
_geom_bond_atom_site_label_1
_geom_bond_atom_site_label_2
_geom_bond_distance
_geom_bond_site_symmetry_2
_ccdc_geom_bond_type
Co0 O1 2.216 . S
Co0 O2 2.091 . S
Co0 O4 2.004 . S
Co0 O10 2.021 . S
Co0 O12 2.137 . S
Co0 O13 2.244 . S
O1 Co0 2.216 . S
O1 C8 1.247 . S
O2 Co0 2.091 . S
O2 C8 1.261 . S
C3 O12 1.247 . S
C3 O13 1.272 . S
O4 Co0 2.004 . S
O4 C9 1.259 . S
Co5 O6 2.061 . S
Co5 O11 2.048 1_556 S
Co5 O13 2.135 1_556 S
O6 Co5 2.061 . S
O6 C9 1.235 1_556 S
C7 O10 1.238 . S
C7 O11 1.247 . S
C8 O1 1.247 . S
C8 O2 1.261 . S
C9 O4 1.259 . S
C9 O6 1.235 1_554 S
O10 Co0 2.021 . S
O10 C7 1.238 . S
O11 Co5 2.048 1_554 S
O11 C7 1.247 . S
O12 Co0 2.137 . S
O12 C3 1.247 . S
O13 Co0 2.244 . S
O13 C3 1.272 . S
O13 Co5 2.135 1_554 S
Co14 O15 2.216 . S
Co14 O16 2.091 . S
Co14 O18 2.004 . S
Co14 O24 2.021 . S
Co14 O26 2.137 . S
Co14 O27 2.244 . S
O15 Co14 2.216 . S
O15 C22 1.247 . S
O16 Co14 2.091 . S
O16 C22 1.261 . S
C17 O26 1.247 . S
C17 O27 1.272 . S
O18 Co14 2.004 . S
O18 C23 1.259 . S
Co19 O20 2.061 . S
Co19 O25 2.052 . S
Co19 O27 2.135 . S
O20 Co19 2.061 . S
O20 C23 1.235 . S
C21 O24 1.238 . S
C21 O25 1.241 . S
C22 O15 1.247 . S
C22 O16 1.261 . S
C23 O18 1.259 . S
C23 O20 1.235 . S
O24 Co14 2.021 . S
O24 C21 1.238 . S
O25 Co19 2.052 . S
O25 C21 1.241 . S
O26 Co14 2.137 . S
O26 C17 1.247 . S
O27 Co14 2.244 . S
O27 C17 1.272 . S
O27 Co19 2.135 . S
Co28 O29 2.216 . S
Co28 O30 2.091 . S
Co28 O32 2.004 . S
Co28 O38 2.021 . S
Co28 O40 2.137 . S
Co28 O41 2.244 . S
O29 Co28 2.216 . S
O29 C36 1.247 . S
O30 Co28 2.091 . S
O30 C36 1.261 . S
C31 O40 1.247 . S
C31 O41 1.272 . S
O32 Co28 2.004 . S
O32 C37 1.259 . S
Co33 O34 2.061 . S
Co33 O39 2.052 . S
Co33 O41 2.135 . S
O34 Co33 2.061 . S
O34 C37 1.235 . S
C35 O38 1.238 . S
C35 O39 1.241 . S
C36 O29 1.247 . S
C36 O30 1.261 . S
C37 O32 1.259 . S
C37 O34 1.235 . S
O38 Co28 2.021 . S
O38 C35 1.238 . S
O39 Co33 2.052 . S
O39 C35 1.241 . S
O40 Co28 2.137 . S
O40 C31 1.247 . S
O41 Co28 2.244 . S
O41 C31 1.272 . S
O41 Co33 2.135 . S
Co42 O43 2.216 . S
Co42 O44 2.091 . S
Co42 O46 2.004 . S
Co42 O52 2.021 . S
Co42 O54 2.137 . S
Co42 O55 2.244 . S
O43 Co42 2.216 . S
O43 C50 1.247 . S
O44 Co42 2.091 . S
O44 C50 1.261 . S
C45 O54 1.247 . S
C45 O55 1.272 . S
O46 Co42 2.004 . S
O46 C51 1.259 . S
Co47 O48 2.061 . S
Co47 O53 2.048 1_554 S
Co47 O55 2.135 1_554 S
O48 Co47 2.061 . S
O48 C51 1.235 1_554 S
C49 O52 1.238 . S
C49 O53 1.247 . S
C50 O43 1.247 . S
C50 O44 1.261 . S
C51 O46 1.259 . S
C51 O48 1.235 1_556 S
O52 Co42 2.021 . S
O52 C49 1.238 . S
O53 Co47 2.048 1_556 S
O53 C49 1.247 . S
O54 Co42 2.137 . S
O54 C45 1.247 . S
O55 Co42 2.244 . S
O55 C45 1.272 . S
O55 Co47 2.135 1_556 S
C56 C57 1.363 . S
C56 C62 1.379 . S
C56 N64 1.356 . S
C57 C56 1.363 . S
C57 C63 1.363 . S
C58 C59 1.363 . S
C58 C63 1.379 . S
C58 N65 1.356 . S
C59 C58 1.363 . S
C59 C62 1.363 . S
N60 C62 1.356 . S
N60 H72 0.984 . S
N60 H73 0.985 . S
N61 C63 1.356 . S
N61 H66 0.984 . S
N61 H67 0.985 . S
C62 C56 1.379 . S
C62 C59 1.363 . S
C62 N60 1.356 . S
C63 C57 1.363 . S
C63 C58 1.379 . S
C63 N61 1.356 . S
N64 C56 1.356 . S
N64 H70 0.984 . S
N64 H71 0.984 . S
N65 C58 1.356 . S
N65 H68 0.984 . S
N65 H69 0.985 . S
H66 N61 0.984 . S
H67 N61 0.985 . S
H68 N65 0.984 . S
H69 N65 0.985 . S
H70 N64 0.984 . S
H71 N64 0.984 . S
H72 N60 0.984 . S
H73 N60 0.985 . S
C74 C75 1.363 . S
C74 C80 1.379 . S
C74 N82 1.356 . S
C75 C74 1.363 . S
C75 C81 1.363 . S
C76 C77 1.363 . S
C76 C81 1.379 . S
C76 N83 1.356 . S
C77 C76 1.363 . S
C77 C80 1.363 . S
N78 C80 1.356 . S
N78 H90 0.984 . S
N78 H91 0.985 . S
N79 C81 1.356 . S
N79 H84 0.984 . S
N79 H85 0.985 . S
C80 C74 1.379 . S
C80 C77 1.363 . S
C80 N78 1.356 . S
C81 C75 1.363 . S
C81 C76 1.379 . S
C81 N79 1.356 . S
N82 C74 1.356 . S
N82 H88 0.984 . S
N82 H89 0.984 . S
N83 C76 1.356 . S
N83 H86 0.984 . S
N83 H87 0.985 . S
H84 N79 0.984 . S
H85 N79 0.985 . S
H86 N83 0.984 . S
H87 N83 0.985 . S
H88 N82 0.984 . S
H89 N82 0.984 . S
H90 N78 0.984 . S
H91 N78 0.985 . S
C92 C93 1.363 . S
C92 C98 1.379 . S
C92 N100 1.356 . S
C93 C92 1.363 . S
C93 C99 1.363 1_556 S
C94 C95 1.363 1_554 S
C94 C99 1.379 . S
C94 N101 1.356 . S
C95 C94 1.363 1_556 S
C95 C98 1.363 . S
N96 C98 1.356 . S
N96 H108 0.984 . S
N96 H109 0.985 . S
N97 C99 1.356 . S
N97 H102 0.984 . S
N97 H103 0.985 . S
C98 C92 1.379 . S
C98 C95 1.363 . S
C98 N96 1.356 . S
C99 C93 1.363 1_554 S
C99 C94 1.379 . S
C99 N97 1.356 . S
N100 C92 1.356 . S
N100 H106 0.984 . S
N100 H107 0.984 . S
N101 C94 1.356 . S
N101 H104 0.984 . S
N101 H105 0.985 . S
H102 N97 0.984 . S
H103 N97 0.985 . S
H104 N101 0.984 . S
H105 N101 0.985 . S
H106 N100 0.984 . S
H107 N100 0.984 . S
H108 N96 0.984 . S
H109 N96 0.985 . S
C110 C111 1.363 . S
C110 C116 1.379 1_455 S
C110 N118 1.356 . S
C111 C110 1.363 . S
C111 C117 1.363 . S
C112 C113 1.363 . S
C112 C117 1.379 1_655 S
C112 N119 1.356 . S
C113 C112 1.363 . S
C113 C116 1.363 . S
N114 C116 1.356 . S
N114 H126 0.984 . S
N114 H127 0.985 . S
N115 C117 1.356 . S
N115 H120 0.984 . S
N115 H121 0.985 . S
C116 C110 1.379 1_655 S
C116 C113 1.363 . S
C116 N114 1.356 . S
C117 C111 1.363 . S
C117 C112 1.379 1_455 S
C117 N115 1.356 . S
N118 C110 1.356 . S
N118 H124 0.984 . S
N118 H125 0.984 . S
N119 C112 1.356 . S
N119 H122 0.984 . S
N119 H123 0.985 . S
H120 N115 0.984 . S
H121 N115 0.985 . S
H122 N119 0.984 . S
H123 N119 0.985 . S
H124 N118 0.984 . S
H125 N118 0.984 . S
H126 N114 0.984 . S
H127 N114 0.985 . S
C128 C129 1.363 1_554 S
C128 C134 1.379 1_545 S
C128 N136 1.356 . S
C129 C128 1.363 1_556 S
C129 C135 1.363 . S
C130 C131 1.363 1_556 S
C130 C135 1.379 1_565 S
C130 N137 1.356 . S
C131 C130 1.363 1_554 S
C131 C134 1.363 . S
N132 C134 1.356 . S
N132 H144 0.984 . S
N132 H145 0.985 . S
N133 C135 1.356 . S
N133 H138 0.984 . S
N133 H139 0.985 . S
C134 C128 1.379 1_565 S
C134 C131 1.363 . S
C134 N132 1.356 . S
C135 C129 1.363 . S
C135 C130 1.379 1_545 S
C135 N133 1.356 . S
N136 C128 1.356 . S
N136 H142 0.984 . S
N136 H143 0.984 . S
N137 C130 1.356 . S
N137 H140 0.984 . S
N137 H141 0.985 . S
H138 N133 0.984 . S
H139 N133 0.985 . S
H140 N137 0.984 . S
H141 N137 0.985 . S
H142 N136 0.984 . S
H143 N136 0.984 . S
H144 N132 0.984 . S
H145 N132 0.985 . S
C146 C147 1.363 . S
C146 C152 1.379 . S
C146 N154 1.356 . S
C147 C146 1.363 . S
C147 C153 1.363 . S
C148 C149 1.363 . S
C148 C153 1.379 . S
C148 N155 1.356 . S
C149 C148 1.363 . S
C149 C152 1.363 . S
N150 C152 1.356 . S
N150 H162 0.984 . S
N150 H163 0.985 . S
N151 C153 1.356 . S
N151 H156 0.984 . S
N151 H157 0.985 . S
C152 C146 1.379 . S
C152 C149 1.363 . S
C152 N150 1.356 . S
C153 C147 1.363 . S
C153 C148 1.379 . S
C153 N151 1.356 . S
N154 C146 1.356 . S
N154 H160 0.984 . S
N154 H161 0.984 . S
N155 C148 1.356 . S
N155 H158 0.984 . S
N155 H159 0.985 . S
H156 N151 0.984 . S
H157 N151 0.985 . S
H158 N155 0.984 . S
H159 N155 0.985 . S
H160 N154 0.984 . S
H161 N154 0.984 . S
H162 N150 0.984 . S
H163 N150 0.985 . S
C164 C165 1.363 . S
C164 C170 1.379 1_455 S
C164 N172 1.356 . S
C165 C164 1.363 . S
C165 C171 1.363 . S
C166 C167 1.363 1_556 S
C166 C171 1.379 1_656 S
C166 N173 1.356 . S
C167 C166 1.363 1_554 S
C167 C170 1.363 . S
N168 C170 1.356 . S
N168 H180 0.984 . S
N168 H181 0.985 . S
N169 C171 1.356 1_556 S
N169 H174 0.984 1_556 S
N169 H175 0.985 . S
C170 C164 1.379 1_655 S
C170 C167 1.363 . S
C170 N168 1.356 . S
C171 C165 1.363 . S
C171 C166 1.379 1_454 S
C171 N169 1.356 1_554 S
N172 C164 1.356 . S
N172 H178 0.984 . S
N172 H179 0.984 . S
N173 C166 1.356 . S
N173 H176 0.984 . S
N173 H177 0.985 . S
H174 N169 0.984 1_554 S
H175 N169 0.985 . S
H176 N173 0.984 . S
H177 N173 0.985 . S
H178 N172 0.984 . S
H179 N172 0.984 . S
H180 N168 0.984 . S
H181 N168 0.985 . S
C182 C183 1.363 . S
C182 C188 1.379 1_545 S
C182 N190 1.356 . S
C183 C182 1.363 . S
C183 C189 1.363 . S
C184 C185 1.363 . S
C184 C189 1.379 1_565 S
C184 N191 1.356 . S
C185 C184 1.363 . S
C185 C188 1.363 . S
N186 C188 1.356 . S
N186 H198 0.984 . S
N186 H199 0.985 . S
N187 C189 1.356 . S
N187 H192 0.984 . S
N187 H193 0.985 . S
C188 C182 1.379 1_565 S
C188 C185 1.363 . S
C188 N186 1.356 . S
C189 C183 1.363 . S
C189 C184 1.379 1_545 S
C189 N187 1.356 . S
N190 C182 1.356 . S
N190 H196 0.984 . S
N190 H197 0.984 . S
N191 C184 1.356 . S
N191 H194 0.984 . S
N191 H195 0.985 . S
H192 N187 0.984 . S
H193 N187 0.985 . S
H194 N191 0.984 . S
H195 N191 0.985 . S
H196 N190 0.984 . S
H197 N190 0.984 . S
H198 N186 0.984 . S
H199 N186 0.985 . S
C57 C8 1.568 . S
C59 C36 1.566 . S
C75 C22 1.566 . S
C77 C50 1.568 . S
C93 C9 1.548 1_556 S
C95 C49 1.515 . S
C111 C31 1.566 . S
C113 C23 1.563 . S
C129 C45 1.583 . S
C131 C3 1.583 . S
C147 C17 1.566 . S
C149 C37 1.563 . S
C165 C7 1.515 . S
C167 C51 1.548 1_554 S
C183 C21 1.471 . S
C185 C35 1.471 . S
