# Generated by pormake.
# Topology smb, (6)-cn, num edge types: 1
# Building blocks:
#     Node 0, Type 0, BuildingBlock: IZENUY_clean_sbu_0, # of connection points: 6
#     Node 1, Type 0, BuildingBlock: IZENUY_clean_sbu_0, # of connection points: 6
#     Node 2, Type 0, BuildingBlock: IZENUY_clean_sbu_0, # of connection points: 6
#     Node 3, Type 0, BuildingBlock: IZENUY_clean_sbu_0, # of connection points: 6
#     Node 4, Type 0, BuildingBlock: IZENUY_clean_sbu_0, # of connection points: 6
#     Node 5, Type 0, BuildingBlock: IZENUY_clean_sbu_0, # of connection points: 6
#     Node 6, Type 0, BuildingBlock: IZENUY_clean_sbu_0, # of connection points: 6
#     Node 7, Type 0, BuildingBlock: IZENUY_clean_sbu_0, # of connection points: 6
#     Node 8, Type 0, BuildingBlock: IZENUY_clean_sbu_0, # of connection points: 6
#     Edge 9, Type (0, 0), None
#     Edge 10, Type (0, 0), None
#     Edge 11, Type (0, 0), None
#     Edge 12, Type (0, 0), None
#     Edge 13, Type (0, 0), None
#     Edge 14, Type (0, 0), None
#     Edge 15, Type (0, 0), None
#     Edge 16, Type (0, 0), None
#     Edge 17, Type (0, 0), None
#     Edge 18, Type (0, 0), None
#     Edge 19, Type (0, 0), None
#     Edge 20, Type (0, 0), None
#     Edge 21, Type (0, 0), None
#     Edge 22, Type (0, 0), None
#     Edge 23, Type (0, 0), None
#     Edge 24, Type (0, 0), None
#     Edge 25, Type (0, 0), None
#     Edge 26, Type (0, 0), None
#     Edge 27, Type (0, 0), None
#     Edge 28, Type (0, 0), None
#     Edge 29, Type (0, 0), None
#     Edge 30, Type (0, 0), None
#     Edge 31, Type (0, 0), None
#     Edge 32, Type (0, 0), None
#     Edge 33, Type (0, 0), None
#     Edge 34, Type (0, 0), None
#     Edge 35, Type (0, 0), None
# Relax obj value: 0.326
# Max RMSD: 0.238
# Mean RMSD: 0.238
data_MOF--net-smb--node1-IZENUY_clean_sbu_0--edge1-none
_symmetry_space_group_name_H-M    P1
_symmetry_Int_Tables_number       1
_symmetry_cell_setting            triclinic
loop_
_symmetry_equiv_pos_as_xyz
'x, y, z'
_cell_length_a     18.236587
_cell_length_b     18.23667
_cell_length_c     12.950106
_cell_angle_alpha  89.999226
_cell_angle_beta   90.000525
_cell_angle_gamma 120.00467
loop_
_atom_site_label
_atom_site_type_symbol
_atom_site_fract_x
_atom_site_fract_y
_atom_site_fract_z
_atom_type_partial_charge
Fe0 Fe 0.45035 0.21552 0.93686 0.0
Fe1 Fe 0.34102 0.1693 0.13487 0.0
O2 O 0.44011 0.21342 0.0735 0.0
Fe3 Fe 0.53175 0.25088 0.1488 0.0
O4 O 0.59794 0.3259 1.0532 0.0
O5 O 0.51334 0.33297 0.94011 0.0
O6 O 0.35551 0.22364 0.91316 0.0
C7 C 0.31291 0.2462 0.9684 0.0
C8 C 0.5736 0.1736 1.00164 0.0
O9 O 0.31235 0.23957 0.06593 0.0
C10 C 0.42454 0.11119 0.25822 0.0
O11 O 0.38886 0.09999 0.92968 0.0
O12 O 0.28878 0.08625 1.03763 0.0
O13 O 0.54678 0.16701 0.09339 0.0
O14 O 0.54699 0.20588 0.93501 0.0
C15 C 0.44986 0.32082 0.24872 0.0
O16 O 0.36043 0.09179 0.20341 0.0
O17 O 0.48256 0.18622 0.26081 0.0
C18 C 0.31758 0.05484 0.97246 0.0
O19 O 0.38083 0.24967 0.24184 0.0
O20 O 0.51657 0.33323 0.2036 0.0
C21 C 0.57842 0.36945 0.99741 0.0
Fe22 Fe 0.86422 0.1662 0.1349 0.0
Fe23 Fe 0.78264 0.27534 0.14882 0.0
O24 O 0.82011 0.22118 0.07353 0.0
Fe25 Fe 0.81803 0.22932 0.93688 0.0
O26 O 0.8099 0.12636 0.91318 0.0
O27 O 0.79396 0.06726 0.06595 0.0
O28 O 0.78384 0.12563 0.24185 0.0
C29 C 0.71269 0.12351 0.24872 0.0
C30 C 0.9787 0.25724 0.97249 0.0
O31 O 0.70028 0.1778 0.2036 0.0
C32 C 0.85993 0.39449 1.00168 0.0
O33 O 0.94173 0.26313 0.20344 0.0
O34 O 0.8473 0.29082 0.26083 0.0
O35 O 0.93355 0.28336 0.92972 0.0
O36 O 0.94728 0.19702 1.03767 0.0
C37 C 0.6641 0.20346 0.99741 0.0
O38 O 0.86652 0.37427 0.09343 0.0
O39 O 0.82767 0.33561 0.93503 0.0
C40 C 0.92233 0.30784 0.25825 0.0
O41 O 0.70765 0.26652 1.05322 0.0
O42 O 0.70058 0.17486 0.94011 0.0
C43 C 0.78734 0.06119 0.96842 0.0
Fe44 Fe 0.80417 0.58316 0.93686 0.0
Fe45 Fe 0.8673 0.69249 0.13488 0.0
O46 O 0.8123 0.59339 0.07352 0.0
Fe47 Fe 0.75815 0.50176 0.14884 0.0
O48 O 0.76697 0.43559 1.05323 0.0
O49 O 0.85863 0.52018 0.94011 0.0
O50 O 0.90713 0.678 0.91316 0.0
C51 C 0.9723 0.72061 0.9684 0.0
C52 C 0.63903 0.45998 1.00169 0.0
O53 O 0.96623 0.72117 0.06593 0.0
C54 C 0.72568 0.60898 0.25825 0.0
O55 O 0.75014 0.64465 0.92968 0.0
O56 O 0.83648 0.74473 1.03763 0.0
O57 O 0.65919 0.48666 0.0935 0.0
O58 O 0.69788 0.48652 0.93501 0.0
C59 C 0.91 0.58368 0.24872 0.0
O60 O 0.77038 0.67308 0.20342 0.0
O61 O 0.74269 0.55096 0.26085 0.0
C62 C 0.77626 0.71592 0.97245 0.0
O63 O 0.90787 0.6527 0.24184 0.0
O64 O 0.85571 0.51697 0.2036 0.0
C65 C 0.83004 0.45512 0.99743 0.0
Fe66 Fe 0.117 0.54886 0.27018 0.0
Fe67 Fe 1.00768 0.50263 0.46821 0.0
O68 O 0.10677 0.54676 0.40683 0.0
Fe69 Fe 0.19841 0.58422 0.48212 0.0
O70 O 0.2646 0.65923 0.38652 0.0
O71 O 0.18 0.66631 0.27343 0.0
O72 O 0.02217 0.55698 0.24649 0.0
C73 C 0.9796 0.57956 0.30175 0.0
C74 C 0.24025 0.50693 0.33495 0.0
O75 O 0.97899 0.57289 0.39928 0.0
C76 C 0.0912 0.44452 0.59155 0.0
O77 O 0.05551 0.43333 0.26299 0.0
O78 O 0.95543 0.41958 0.37097 0.0
O79 O 0.21344 0.50034 0.42671 0.0
O80 O 0.21364 0.53921 0.26832 0.0
C81 C 0.11652 0.65415 0.58205 0.0
O82 O 0.02709 0.42512 0.53674 0.0
O83 O 0.14923 0.51955 0.59413 0.0
C84 C 0.98426 0.38817 0.30583 0.0
O85 O 0.04749 0.583 0.57517 0.0
O86 O 0.18323 0.66657 0.53693 0.0
C87 C 0.24508 0.70279 0.33073 0.0
Fe88 Fe 0.48469 0.56265 0.27018 0.0
Fe89 Fe 0.53088 0.49953 0.46822 0.0
O90 O 0.48677 0.55451 0.40684 0.0
Fe91 Fe 0.4493 0.60867 0.48213 0.0
O92 O 0.37431 0.59985 0.38653 0.0
O93 O 0.36724 0.50819 0.27341 0.0
O94 O 0.47656 0.45969 0.24649 0.0
C95 C 0.45398 0.39453 0.30175 0.0
C96 C 0.52659 0.72783 0.33499 0.0
O97 O 0.46063 0.40059 0.39928 0.0
C98 C 0.58899 0.64117 0.59156 0.0
O99 O 0.60021 0.61669 0.26302 0.0
O100 O 0.61394 0.53035 0.371 0.0
O101 O 0.53318 0.7076 0.42674 0.0
O102 O 0.49434 0.66894 0.26834 0.0
C103 C 0.37936 0.45684 0.58203 0.0
O104 O 0.60839 0.59646 0.53676 0.0
O105 O 0.51396 0.62415 0.59415 0.0
C106 C 0.64536 0.59059 0.30585 0.0
O107 O 0.4505 0.45897 0.57517 0.0
O108 O 0.36695 0.51113 0.53691 0.0
C109 C 0.33076 0.53679 0.33071 0.0
Fe110 Fe 0.42482 0.8351 0.48216 0.0
Fe111 Fe 0.47084 0.9165 0.27018 0.0
O112 O 0.47897 0.92674 0.40684 0.0
Fe113 Fe 0.53397 0.02583 0.46821 0.0
O114 O 0.57453 0.98603 0.57518 0.0
O115 O 0.52238 0.85031 0.53692 0.0
O116 O 0.43364 0.76893 0.38655 0.0
C117 C 0.49671 0.78845 0.33074 0.0
C118 C 0.39235 0.94231 0.59158 0.0
O119 O 0.52529 0.85352 0.27343 0.0
C120 C 0.44291 0.04925 0.30583 0.0
O121 O 0.32585 0.82 0.42682 0.0
O122 O 0.36455 0.81986 0.26834 0.0
O123 O 0.43705 1.00641 0.53676 0.0
O124 O 0.40936 0.88429 0.59417 0.0
C125 C 0.63897 0.05391 0.30175 0.0
O126 O 0.41681 0.978 0.26299 0.0
O127 O 0.50315 0.07808 0.37098 0.0
C128 C 0.3057 0.79332 0.33501 0.0
O129 O 0.57381 1.01134 0.24649 0.0
O130 O 0.63291 0.05452 0.39927 0.0
C131 C 0.57666 0.91701 0.58205 0.0
Fe132 Fe 0.78367 0.88219 0.60349 0.0
Fe133 Fe 0.67434 0.83597 0.80153 0.0
O134 O 0.77344 0.88009 0.74015 0.0
Fe135 Fe 0.86508 0.91755 0.81543 0.0
O136 O 0.93126 0.99256 0.71983 0.0
O137 O 0.84666 0.99964 0.60675 0.0
O138 O 0.68883 0.89031 0.57981 0.0
C139 C 0.64626 0.91289 0.63507 0.0
C140 C 0.90692 0.84026 0.66827 0.0
O141 O 0.64566 0.90622 0.7326 0.0
C142 C 0.75788 0.77786 0.92486 0.0
O143 O 0.72217 0.76666 0.59631 0.0
O144 O 0.62209 0.75291 0.7043 0.0
O145 O 0.88011 0.83367 0.76002 0.0
O146 O 0.8803 0.87254 0.60164 0.0
C147 C 0.7832 0.98747 0.91538 0.0
O148 O 0.69376 0.75845 0.87007 0.0
O149 O 0.8159 0.85289 0.92745 0.0
C150 C 0.65092 0.7215 0.63916 0.0
O151 O 0.71416 0.91633 0.9085 0.0
O152 O 0.8499 0.9999 0.87024 0.0
C153 C 0.91174 0.03612 0.66404 0.0
Fe154 Fe 0.15135 0.89598 0.6035 0.0
Fe155 Fe 0.19755 0.83286 0.80155 0.0
O156 O 0.15344 0.88784 0.74016 0.0
Fe157 Fe 0.11597 0.94201 0.81544 0.0
O158 O 0.04097 0.93318 0.71984 0.0
O159 O 0.0339 0.84152 0.60673 0.0
O160 O 0.14323 0.79302 0.57981 0.0
C161 C 0.12064 0.72786 0.63507 0.0
C162 C 0.19325 0.06116 0.66829 0.0
O163 O 0.12729 0.73392 0.7326 0.0
C164 C 0.25565 0.9745 0.92488 0.0
O165 O 0.26688 0.95002 0.59634 0.0
O166 O 0.28061 0.86368 0.70432 0.0
O167 O 0.19985 0.04094 0.76004 0.0
O168 O 0.161 1.00227 0.60165 0.0
C169 C 0.04603 0.79019 0.91537 0.0
O170 O 0.27506 0.9298 0.87008 0.0
O171 O 0.18062 0.95749 0.92746 0.0
C172 C 0.31203 0.92392 0.63918 0.0
O173 O 0.11717 0.7923 0.9085 0.0
O174 O 0.03362 0.84447 0.87023 0.0
C175 C 0.99743 0.87012 0.66402 0.0
Fe176 Fe 0.20064 0.35916 0.80154 0.0
Fe177 Fe 0.09148 0.16843 0.81547 0.0
O178 O 0.14564 0.26007 0.74016 0.0
Fe179 Fe 0.1375 0.24984 0.6035 0.0
O180 O 0.24047 0.34468 0.5798 0.0
O181 O 0.29957 0.38785 0.73259 0.0
O182 O 0.2412 0.31936 0.90849 0.0
C183 C 0.24332 0.25033 0.91536 0.0
C184 C 0.10958 0.38258 0.63916 0.0
O185 O 0.18904 0.18364 0.87022 0.0
C186 C 0.97236 0.12665 0.66833 0.0
O187 O 0.10372 0.33974 0.87009 0.0
O188 O 0.07603 0.21761 0.92749 0.0
O189 O 0.08347 0.31133 0.59632 0.0
O190 O 0.16982 0.41141 0.7043 0.0
C191 C 0.16337 0.12178 0.66405 0.0
O192 O 0.99252 0.15332 0.76014 0.0
O193 O 0.03121 0.1532 0.60165 0.0
C194 C 0.05902 0.27563 0.9249 0.0
O195 O 0.1003 0.10225 0.71985 0.0
O196 O 0.19196 0.18685 0.60673 0.0
C197 C 0.30563 0.38724 0.63506 0.0
loop_
_geom_bond_atom_site_label_1
_geom_bond_atom_site_label_2
_geom_bond_distance
_geom_bond_site_symmetry_2
_ccdc_geom_bond_type
Fe0 O2 1.918 1_556 S
Fe0 O5 1.997 . S
Fe0 O6 2.002 . S
Fe0 O11 1.976 . S
Fe0 O14 1.996 . S
Fe1 O2 1.918 . S
Fe1 O9 1.997 1_554 S
Fe1 O12 1.996 1_554 S
Fe1 O16 1.976 . S
Fe1 O19 2.002 . S
O2 Fe0 1.918 1_554 S
O2 Fe1 1.918 . S
O2 Fe3 1.918 . S
Fe3 O2 1.918 . S
Fe3 O4 2.002 . S
Fe3 O13 1.976 . S
Fe3 O17 1.996 . S
Fe3 O20 1.997 . S
O4 Fe3 2.002 . S
O4 C21 1.295 1_554 S
O5 Fe0 1.997 . S
O5 C21 1.235 . S
O6 Fe0 2.002 . S
O6 C7 1.295 . S
C7 O6 1.295 . S
C7 O9 1.235 . S
C8 O13 1.287 1_556 S
C8 O14 1.255 . S
O9 Fe1 1.997 1_556 S
O9 C7 1.235 . S
C10 O16 1.287 . S
C10 O17 1.255 . S
O11 Fe0 1.976 . S
O11 C18 1.287 . S
O12 Fe1 1.996 1_556 S
O12 C18 1.255 . S
O13 Fe3 1.976 . S
O13 C8 1.287 1_554 S
O14 Fe0 1.996 . S
O14 C8 1.255 . S
C15 O19 1.295 . S
C15 O20 1.235 . S
O16 Fe1 1.976 . S
O16 C10 1.287 . S
O17 Fe3 1.996 . S
O17 C10 1.255 . S
C18 O11 1.287 . S
C18 O12 1.255 . S
O19 Fe1 2.002 . S
O19 C15 1.295 . S
O20 Fe3 1.997 . S
O20 C15 1.235 . S
C21 O4 1.295 1_556 S
C21 O5 1.235 . S
Fe22 O24 1.918 . S
Fe22 O27 1.997 1_554 S
Fe22 O28 2.002 . S
Fe22 O33 1.976 . S
Fe22 O36 1.996 1_554 S
Fe23 O24 1.918 . S
Fe23 O31 1.997 . S
Fe23 O34 1.996 . S
Fe23 O38 1.976 . S
Fe23 O41 2.002 . S
O24 Fe22 1.918 . S
O24 Fe23 1.918 . S
O24 Fe25 1.918 1_554 S
Fe25 O24 1.918 1_556 S
Fe25 O26 2.002 . S
Fe25 O35 1.976 . S
Fe25 O39 1.996 . S
Fe25 O42 1.997 . S
O26 Fe25 2.002 . S
O26 C43 1.295 . S
O27 Fe22 1.997 1_556 S
O27 C43 1.235 . S
O28 Fe22 2.002 . S
O28 C29 1.295 . S
C29 O28 1.295 . S
C29 O31 1.235 . S
C30 O35 1.287 . S
C30 O36 1.255 . S
O31 Fe23 1.997 . S
O31 C29 1.235 . S
C32 O38 1.287 1_556 S
C32 O39 1.255 . S
O33 Fe22 1.976 . S
O33 C40 1.287 . S
O34 Fe23 1.996 . S
O34 C40 1.255 . S
O35 Fe25 1.976 . S
O35 C30 1.287 . S
O36 Fe22 1.996 1_556 S
O36 C30 1.255 . S
C37 O41 1.295 1_556 S
C37 O42 1.235 . S
O38 Fe23 1.976 . S
O38 C32 1.287 1_554 S
O39 Fe25 1.996 . S
O39 C32 1.255 . S
C40 O33 1.287 . S
C40 O34 1.255 . S
O41 Fe23 2.002 . S
O41 C37 1.295 1_554 S
O42 Fe25 1.997 . S
O42 C37 1.235 . S
C43 O26 1.295 . S
C43 O27 1.235 . S
Fe44 O46 1.918 1_556 S
Fe44 O49 1.997 . S
Fe44 O50 2.002 . S
Fe44 O55 1.976 . S
Fe44 O58 1.996 . S
Fe45 O46 1.918 . S
Fe45 O53 1.997 1_554 S
Fe45 O56 1.996 1_554 S
Fe45 O60 1.976 . S
Fe45 O63 2.002 . S
O46 Fe44 1.918 1_554 S
O46 Fe45 1.918 . S
O46 Fe47 1.918 . S
Fe47 O46 1.918 . S
Fe47 O48 2.002 . S
Fe47 O57 1.976 . S
Fe47 O61 1.996 . S
Fe47 O64 1.997 . S
O48 Fe47 2.002 . S
O48 C65 1.295 1_554 S
O49 Fe44 1.997 . S
O49 C65 1.235 . S
O50 Fe44 2.002 . S
O50 C51 1.295 . S
C51 O50 1.295 . S
C51 O53 1.235 . S
C52 O57 1.287 1_556 S
C52 O58 1.255 . S
O53 Fe45 1.997 1_556 S
O53 C51 1.235 . S
C54 O60 1.287 . S
C54 O61 1.255 . S
O55 Fe44 1.976 . S
O55 C62 1.287 . S
O56 Fe45 1.996 1_556 S
O56 C62 1.255 . S
O57 Fe47 1.976 . S
O57 C52 1.287 1_554 S
O58 Fe44 1.996 . S
O58 C52 1.255 . S
C59 O63 1.295 . S
C59 O64 1.235 . S
O60 Fe45 1.976 . S
O60 C54 1.287 . S
O61 Fe47 1.996 . S
O61 C54 1.255 . S
C62 O55 1.287 . S
C62 O56 1.255 . S
O63 Fe45 2.002 . S
O63 C59 1.295 . S
O64 Fe47 1.997 . S
O64 C59 1.235 . S
C65 O48 1.295 1_556 S
C65 O49 1.235 . S
Fe66 O68 1.918 . S
Fe66 O71 1.997 . S
Fe66 O72 2.002 . S
Fe66 O77 1.976 . S
Fe66 O80 1.996 . S
Fe67 O68 1.918 1_655 S
Fe67 O75 1.997 . S
Fe67 O78 1.996 . S
Fe67 O82 1.976 . S
Fe67 O85 2.002 . S
O68 Fe66 1.918 . S
O68 Fe67 1.918 1_455 S
O68 Fe69 1.918 . S
Fe69 O68 1.918 . S
Fe69 O70 2.002 . S
Fe69 O79 1.976 . S
Fe69 O83 1.996 . S
Fe69 O86 1.997 . S
O70 Fe69 2.002 . S
O70 C87 1.295 . S
O71 Fe66 1.997 . S
O71 C87 1.235 . S
O72 Fe66 2.002 . S
O72 C73 1.295 1_455 S
C73 O72 1.295 1_655 S
C73 O75 1.235 . S
C74 O79 1.287 . S
C74 O80 1.255 . S
O75 Fe67 1.997 . S
O75 C73 1.235 . S
C76 O82 1.287 1_455 S
C76 O83 1.255 . S
O77 Fe66 1.976 . S
O77 C84 1.287 1_455 S
O78 Fe67 1.996 . S
O78 C84 1.255 . S
O79 Fe69 1.976 . S
O79 C74 1.287 . S
O80 Fe66 1.996 . S
O80 C74 1.255 . S
C81 O85 1.295 1_455 S
C81 O86 1.235 . S
O82 Fe67 1.976 . S
O82 C76 1.287 1_655 S
O83 Fe69 1.996 . S
O83 C76 1.255 . S
C84 O77 1.287 1_655 S
C84 O78 1.255 . S
O85 Fe67 2.002 . S
O85 C81 1.295 1_655 S
O86 Fe69 1.997 . S
O86 C81 1.235 . S
C87 O70 1.295 . S
C87 O71 1.235 . S
Fe88 O90 1.918 . S
Fe88 O93 1.997 . S
Fe88 O94 2.002 . S
Fe88 O99 1.976 . S
Fe88 O102 1.996 . S
Fe89 O90 1.918 . S
Fe89 O97 1.997 . S
Fe89 O100 1.996 . S
Fe89 O104 1.976 . S
Fe89 O107 2.002 . S
O90 Fe88 1.918 . S
O90 Fe89 1.918 . S
O90 Fe91 1.918 . S
Fe91 O90 1.918 . S
Fe91 O92 2.002 . S
Fe91 O101 1.976 . S
Fe91 O105 1.996 . S
Fe91 O108 1.997 . S
O92 Fe91 2.002 . S
O92 C109 1.295 . S
O93 Fe88 1.997 . S
O93 C109 1.235 . S
O94 Fe88 2.002 . S
O94 C95 1.295 . S
C95 O94 1.295 . S
C95 O97 1.235 . S
C96 O101 1.287 . S
C96 O102 1.255 . S
O97 Fe89 1.997 . S
O97 C95 1.235 . S
C98 O104 1.287 . S
C98 O105 1.255 . S
O99 Fe88 1.976 . S
O99 C106 1.287 . S
O100 Fe89 1.996 . S
O100 C106 1.255 . S
O101 Fe91 1.976 . S
O101 C96 1.287 . S
O102 Fe88 1.996 . S
O102 C96 1.255 . S
C103 O107 1.295 . S
C103 O108 1.235 . S
O104 Fe89 1.976 . S
O104 C98 1.287 . S
O105 Fe91 1.996 . S
O105 C98 1.255 . S
C106 O99 1.287 . S
C106 O100 1.255 . S
O107 Fe89 2.002 . S
O107 C103 1.295 . S
O108 Fe91 1.997 . S
O108 C103 1.235 . S
C109 O92 1.295 . S
C109 O93 1.235 . S
Fe110 O112 1.918 . S
Fe110 O115 1.997 . S
Fe110 O116 2.002 . S
Fe110 O121 1.976 . S
Fe110 O124 1.996 . S
Fe111 O112 1.918 . S
Fe111 O119 1.997 . S
Fe111 O122 1.996 . S
Fe111 O126 1.976 . S
Fe111 O129 2.002 . S
O112 Fe110 1.918 . S
O112 Fe111 1.918 . S
O112 Fe113 1.918 1_565 S
Fe113 O112 1.918 1_545 S
Fe113 O114 2.002 . S
Fe113 O123 1.976 . S
Fe113 O127 1.996 . S
Fe113 O130 1.997 . S
O114 Fe113 2.002 . S
O114 C131 1.295 1_545 S
O115 Fe110 1.997 . S
O115 C131 1.235 . S
O116 Fe110 2.002 . S
O116 C117 1.295 . S
C117 O116 1.295 . S
C117 O119 1.235 . S
C118 O123 1.287 1_565 S
C118 O124 1.255 . S
O119 Fe111 1.997 . S
O119 C117 1.235 . S
C120 O126 1.287 1_545 S
C120 O127 1.255 . S
O121 Fe110 1.976 . S
O121 C128 1.287 . S
O122 Fe111 1.996 . S
O122 C128 1.255 . S
O123 Fe113 1.976 . S
O123 C118 1.287 1_545 S
O124 Fe110 1.996 . S
O124 C118 1.255 . S
C125 O129 1.295 1_545 S
C125 O130 1.235 . S
O126 Fe111 1.976 . S
O126 C120 1.287 1_565 S
O127 Fe113 1.996 . S
O127 C120 1.255 . S
C128 O121 1.287 . S
C128 O122 1.255 . S
O129 Fe111 2.002 . S
O129 C125 1.295 1_565 S
O130 Fe113 1.997 . S
O130 C125 1.235 . S
C131 O114 1.295 1_565 S
C131 O115 1.235 . S
Fe132 O134 1.918 . S
Fe132 O137 2.000 . S
Fe132 O138 2.002 . S
Fe132 O143 1.976 . S
Fe132 O146 1.996 . S
Fe133 O134 1.918 . S
Fe133 O141 1.997 . S
Fe133 O144 1.996 . S
Fe133 O148 1.976 . S
Fe133 O151 2.002 . S
O134 Fe132 1.918 . S
O134 Fe133 1.918 . S
O134 Fe135 1.918 . S
Fe135 O134 1.918 . S
Fe135 O136 2.002 1_565 S
Fe135 O145 1.976 . S
Fe135 O149 1.996 . S
Fe135 O152 1.997 . S
O136 Fe135 2.002 1_545 S
O136 C153 1.295 . S
O137 Fe132 2.000 . S
O137 C153 1.233 1_565 S
O138 Fe132 2.002 . S
O138 C139 1.295 . S
C139 O138 1.295 . S
C139 O141 1.235 . S
C140 O145 1.287 . S
C140 O146 1.255 . S
O141 Fe133 1.997 . S
O141 C139 1.235 . S
C142 O148 1.287 . S
C142 O149 1.255 . S
O143 Fe132 1.976 . S
O143 C150 1.287 . S
O144 Fe133 1.996 . S
O144 C150 1.255 . S
O145 Fe135 1.976 . S
O145 C140 1.287 . S
O146 Fe132 1.996 . S
O146 C140 1.255 . S
C147 O151 1.295 . S
C147 O152 1.235 . S
O148 Fe133 1.976 . S
O148 C142 1.287 . S
O149 Fe135 1.996 . S
O149 C142 1.255 . S
C150 O143 1.287 . S
C150 O144 1.255 . S
O151 Fe133 2.002 . S
O151 C147 1.295 . S
O152 Fe135 1.997 . S
O152 C147 1.235 . S
C153 O136 1.295 . S
C153 O137 1.233 1_545 S
Fe154 O156 1.918 . S
Fe154 O159 1.997 . S
Fe154 O160 2.002 . S
Fe154 O165 1.976 . S
Fe154 O168 1.996 1_565 S
Fe155 O156 1.918 . S
Fe155 O163 1.997 . S
Fe155 O166 1.996 . S
Fe155 O170 1.976 . S
Fe155 O173 2.002 . S
O156 Fe154 1.918 . S
O156 Fe155 1.918 . S
O156 Fe157 1.918 . S
Fe157 O156 1.918 . S
Fe157 O158 2.002 1_455 S
Fe157 O167 1.976 1_565 S
Fe157 O171 1.996 . S
Fe157 O174 1.997 . S
O158 Fe157 2.002 1_655 S
O158 C175 1.295 . S
O159 Fe154 1.997 . S
O159 C175 1.235 1_455 S
O160 Fe154 2.002 . S
O160 C161 1.295 . S
C161 O160 1.295 . S
C161 O163 1.235 . S
C162 O167 1.287 . S
C162 O168 1.255 . S
O163 Fe155 1.997 . S
O163 C161 1.235 . S
C164 O170 1.287 . S
C164 O171 1.255 . S
O165 Fe154 1.976 . S
O165 C172 1.287 . S
O166 Fe155 1.996 . S
O166 C172 1.255 . S
O167 Fe157 1.976 1_545 S
O167 C162 1.287 . S
O168 Fe154 1.996 1_545 S
O168 C162 1.255 . S
C169 O173 1.295 . S
C169 O174 1.235 . S
O170 Fe155 1.976 . S
O170 C164 1.287 . S
O171 Fe157 1.996 . S
O171 C164 1.255 . S
C172 O165 1.287 . S
C172 O166 1.255 . S
O173 Fe155 2.002 . S
O173 C169 1.295 . S
O174 Fe157 1.997 . S
O174 C169 1.235 . S
C175 O158 1.295 . S
C175 O159 1.235 1_655 S
Fe176 O178 1.918 . S
Fe176 O181 1.997 . S
Fe176 O182 2.002 . S
Fe176 O187 1.976 . S
Fe176 O190 1.996 . S
Fe177 O178 1.918 . S
Fe177 O185 1.997 . S
Fe177 O188 1.996 . S
Fe177 O192 1.976 1_455 S
Fe177 O195 2.002 . S
O178 Fe176 1.918 . S
O178 Fe177 1.918 . S
O178 Fe179 1.918 . S
Fe179 O178 1.918 . S
Fe179 O180 2.002 . S
Fe179 O189 1.976 . S
Fe179 O193 1.996 1_455 S
Fe179 O196 1.997 . S
O180 Fe179 2.002 . S
O180 C197 1.295 . S
O181 Fe176 1.997 . S
O181 C197 1.235 . S
O182 Fe176 2.002 . S
O182 C183 1.295 . S
C183 O182 1.295 . S
C183 O185 1.235 . S
C184 O189 1.287 . S
C184 O190 1.255 . S
O185 Fe177 1.997 . S
O185 C183 1.235 . S
C186 O192 1.287 . S
C186 O193 1.255 . S
O187 Fe176 1.976 . S
O187 C194 1.287 . S
O188 Fe177 1.996 . S
O188 C194 1.255 . S
O189 Fe179 1.976 . S
O189 C184 1.287 . S
O190 Fe176 1.996 . S
O190 C184 1.255 . S
C191 O195 1.295 . S
C191 O196 1.235 . S
O192 Fe177 1.976 1_655 S
O192 C186 1.287 . S
O193 Fe179 1.996 1_655 S
O193 C186 1.255 . S
C194 O187 1.287 . S
C194 O188 1.255 . S
O195 Fe177 2.002 . S
O195 C191 1.295 . S
O196 Fe179 1.997 . S
O196 C191 1.235 . S
C197 O180 1.295 . S
C197 O181 1.235 . S
C18 C164 1.583 1_545 S
C30 C194 1.583 1_655 S
C142 C62 1.583 . S
C169 C51 1.699 1_455 S
C183 C7 1.699 . S
C147 C43 1.699 1_565 S
C40 C84 1.583 . S
C106 C54 1.583 . S
C10 C120 1.583 . S
C29 C125 1.699 . S
C73 C59 1.699 . S
C15 C95 1.699 . S
C150 C98 1.583 . S
C118 C172 1.583 . S
C184 C76 1.583 . S
C197 C103 1.699 . S
C131 C139 1.699 . S
C81 C161 1.699 . S
C8 C37 0.957 . S
C65 C32 0.957 . S
C52 C21 0.957 . S
C109 C74 0.957 . S
C117 C96 0.957 . S
C128 C87 0.957 . S
C175 C140 0.957 . S
C162 C191 0.957 . S
C153 C186 0.957 . S
