# Generated by pormake.
# Topology pcu, (6)-cn, num edge types: 1
# Building blocks:
#     Node 0, Type 0, BuildingBlock: PAMTUU_clean_sbu_0, # of connection points: 6
#     Edge 1, Type (0, 0), BuildingBlock: EYOCIG_clean_linker_4, # of connection points: 2
#     Edge 2, Type (0, 0), BuildingBlock: EYOCIG_clean_linker_4, # of connection points: 2
#     Edge 3, Type (0, 0), BuildingBlock: EYOCIG_clean_linker_4, # of connection points: 2
# Relax obj value: 0.000
# Max RMSD: 0.000
# Mean RMSD: 0.000
data_MOF--net-pcu--node1-PAMTUU_clean_sbu_0--edge1-EYOCIG_clean_linker_4
_symmetry_space_group_name_H-M    P1
_symmetry_Int_Tables_number       1
_symmetry_cell_setting            triclinic
loop_
_symmetry_equiv_pos_as_xyz
'x, y, z'
_cell_length_a     22.547912
_cell_length_b     12.012554
_cell_length_c     11.938341
_cell_angle_alpha  85.422688
_cell_angle_beta   97.675921
_cell_angle_gamma 114.71945
loop_
_atom_site_label
_atom_site_type_symbol
_atom_site_fract_x
_atom_site_fract_y
_atom_site_fract_z
_atom_type_partial_charge
Tb0 Tb 0.11243 0.03651 0.00612 0.0
Tb1 Tb 0.94873 0.9258 0.9772 0.0
C2 C 0.03214 0.98056 0.21 0.0
C3 C 0.28891 0.07445 0.02178 0.0
C4 C 0.39751 0.02347 -0.00034 0.0
C5 C 0.39235 0.06756 0.10123 0.0
C6 C 0.33842 0.09288 0.11216 0.0
C7 C 0.29315 0.02655 0.92081 0.0
C8 C 0.34741 0.00133 0.90989 0.0
C9 C 0.23606 0.11285 0.03447 0.0
O10 O 0.07657 0.83899 0.0326 0.0
O11 O 0.96975 0.77074 0.94624 0.0
O12 O 0.9812 -0.00559 0.81177 0.0
O13 O 0.07879 0.97271 0.83434 0.0
O14 O 0.86327 0.85695 0.05882 0.0
O15 O 0.85718 0.87349 0.87717 0.0
O16 O 0.98342 0.11933 0.00945 0.0
O17 O 0.08985 0.19513 0.96207 0.0
O18 O 0.08174 0.06377 0.16285 0.0
O19 O 0.98382 0.89584 0.15047 0.0
C20 C 1.0221 0.75248 0.98737 0.0
O21 O 0.20344 0.13464 0.94298 0.0
O22 O 0.19795 0.05489 0.11235 0.0
C23 C 1.0296 -0.01593 0.7701 0.0
C24 C 0.77303 0.89321 0.96442 0.0
C25 C 0.66309 0.94592 0.97057 0.0
C26 C 0.67024 0.89572 0.87408 0.0
C27 C 0.7248 0.86941 0.87107 0.0
C28 C 0.76665 0.94768 0.05979 0.0
C29 C 0.71191 0.97372 0.06272 0.0
C30 C 0.8249 0.84799 0.96523 0.0
C31 C 0.03783 0.20998 0.98287 0.0
H32 H 0.43062 0.08462 0.17141 0.0
H33 H 0.33604 0.12949 0.1907 0.0
H34 H 0.2554 0.01083 0.85003 0.0
H35 H 0.35078 0.96667 0.831 0.0
H36 H 0.63281 0.87388 0.80221 0.0
H37 H 0.72825 0.82671 0.79706 0.0
H38 H 0.80278 0.96685 0.13338 0.0
H39 H 0.70695 0.01269 0.1379 0.0
C40 C 1.0295 -0.01581 0.43031 0.0
C41 C 0.03057 -0.01771 0.32972 0.0
C42 C 1.02883 -0.01469 0.54843 0.0
C43 C 1.0287 -0.01515 0.64949 0.0
C44 C 0.50485 -0.0089 0.98243 0.0
C45 C 0.45534 0.00487 0.98753 0.0
C46 C 0.55477 0.97824 0.97914 0.0
C47 C 0.60437 0.96397 0.97633 0.0
C48 C 1.02666 0.53777 0.97631 0.0
C49 C 1.02173 0.63365 0.97911 0.0
C50 C 0.03505 0.42774 0.9754 0.0
C51 C 0.03963 0.33111 0.97732 0.0
loop_
_geom_bond_atom_site_label_1
_geom_bond_atom_site_label_2
_geom_bond_distance
_geom_bond_site_symmetry_2
_ccdc_geom_bond_type
Tb0 C9 2.764 . S
Tb0 O10 2.325 1_545 S
Tb0 O13 2.303 1_554 S
Tb0 O17 2.322 . S
Tb0 O18 2.349 . S
Tb0 O21 2.415 1_554 S
Tb0 O22 2.399 . S
Tb1 O11 2.322 . S
Tb1 O12 2.349 . S
Tb1 O14 2.415 1_556 S
Tb1 O15 2.399 . S
Tb1 O16 2.325 1_565 S
Tb1 O19 2.303 1_556 S
Tb1 C30 2.764 . S
C2 O18 1.261 . S
C2 O19 1.257 1_445 S
C3 C6 1.358 . S
C3 C7 1.332 1_544 S
C3 C9 1.504 . S
C4 C5 1.373 1_566 S
C4 C8 1.308 . S
C5 C4 1.373 1_544 S
C5 C6 1.429 . S
C5 H32 0.932 . S
C6 C3 1.358 . S
C6 C5 1.429 . S
C6 H33 0.930 . S
C7 C3 1.332 1_566 S
C7 C8 1.394 . S
C7 H34 0.932 . S
C8 C4 1.308 . S
C8 C7 1.394 . S
C8 H35 0.929 . S
C9 Tb0 2.764 . S
C9 C3 1.504 . S
C9 O21 1.239 1_554 S
C9 O22 1.263 . S
O10 Tb0 2.325 1_565 S
O10 C20 1.232 1_455 S
O11 Tb1 2.322 . S
O11 C20 1.267 1_556 S
O12 Tb1 2.349 . S
O12 C23 1.261 . S
O13 Tb0 2.303 1_556 S
O13 C23 1.257 1_445 S
O14 Tb1 2.415 1_554 S
O14 C30 1.239 1_554 S
O15 Tb1 2.399 . S
O15 C30 1.263 . S
O16 Tb1 2.325 1_545 S
O16 C31 1.229 1_655 S
O17 Tb0 2.322 . S
O17 C31 1.271 1_554 S
O18 Tb0 2.349 . S
O18 C2 1.261 . S
O19 Tb1 2.303 1_554 S
O19 C2 1.257 1_665 S
C20 O10 1.232 1_655 S
C20 O11 1.267 1_554 S
O21 Tb0 2.415 1_556 S
O21 C9 1.239 1_556 S
O22 Tb0 2.399 . S
O22 C9 1.263 . S
C23 O12 1.261 . S
C23 O13 1.257 1_665 S
C24 C27 1.358 . S
C24 C28 1.332 1_566 S
C24 C30 1.504 . S
C25 C26 1.373 1_544 S
C25 C29 1.308 . S
C26 C25 1.373 1_566 S
C26 C27 1.429 . S
C26 H36 0.932 . S
C27 C24 1.358 . S
C27 C26 1.429 . S
C27 H37 0.930 . S
C28 C24 1.332 1_544 S
C28 C29 1.394 . S
C28 H38 0.932 . S
C29 C25 1.308 . S
C29 C28 1.394 . S
C29 H39 0.929 . S
C30 Tb1 2.764 . S
C30 O14 1.239 1_556 S
C30 O15 1.263 . S
C30 C24 1.504 . S
C31 O16 1.229 1_455 S
C31 O17 1.271 1_556 S
H32 C5 0.932 . S
H33 C6 0.930 . S
H34 C7 0.932 . S
H35 C8 0.929 . S
H36 C26 0.932 . S
H37 C27 0.930 . S
H38 C28 0.932 . S
H39 C29 0.929 . S
C40 C41 1.170 . S
C40 C42 1.380 . S
C41 C40 1.170 . S
C42 C40 1.380 . S
C42 C43 1.170 . S
C43 C42 1.170 . S
C44 C45 1.170 . S
C44 C46 1.380 . S
C45 C44 1.170 . S
C46 C44 1.380 . S
C46 C47 1.171 . S
C47 C46 1.171 . S
C48 C49 1.171 . S
C48 C50 1.380 . S
C49 C48 1.171 . S
C50 C48 1.380 . S
C50 C51 1.170 . S
C51 C50 1.170 . S
C41 C2 1.451 . S
C43 C23 1.480 1_445 S
C45 C4 1.500 1_544 S
C47 C25 1.495 . S
C49 C20 1.490 1_456 S
C51 C31 1.485 . S
