# Generated by pormake.
# Topology umc, (4)-cn, num edge types: 1
# Building blocks:
#     Node 0, Type 0, BuildingBlock: GALJAG_clean_sbu_0, # of connection points: 4
#     Node 1, Type 0, BuildingBlock: GALJAG_clean_sbu_0, # of connection points: 4
#     Node 2, Type 0, BuildingBlock: GALJAG_clean_sbu_0, # of connection points: 4
#     Node 3, Type 0, BuildingBlock: GALJAG_clean_sbu_0, # of connection points: 4
#     Node 4, Type 0, BuildingBlock: GALJAG_clean_sbu_0, # of connection points: 4
#     Node 5, Type 0, BuildingBlock: GALJAG_clean_sbu_0, # of connection points: 4
#     Node 6, Type 0, BuildingBlock: GALJAG_clean_sbu_0, # of connection points: 4
#     Node 7, Type 0, BuildingBlock: GALJAG_clean_sbu_0, # of connection points: 4
#     Node 8, Type 0, BuildingBlock: GALJAG_clean_sbu_0, # of connection points: 4
#     Node 9, Type 0, BuildingBlock: GALJAG_clean_sbu_0, # of connection points: 4
#     Node 10, Type 0, BuildingBlock: GALJAG_clean_sbu_0, # of connection points: 4
#     Node 11, Type 0, BuildingBlock: GALJAG_clean_sbu_0, # of connection points: 4
#     Node 12, Type 0, BuildingBlock: GALJAG_clean_sbu_0, # of connection points: 4
#     Node 13, Type 0, BuildingBlock: GALJAG_clean_sbu_0, # of connection points: 4
#     Node 14, Type 0, BuildingBlock: GALJAG_clean_sbu_0, # of connection points: 4
#     Node 15, Type 0, BuildingBlock: GALJAG_clean_sbu_0, # of connection points: 4
#     Edge 16, Type (0, 0), None
#     Edge 17, Type (0, 0), None
#     Edge 18, Type (0, 0), None
#     Edge 19, Type (0, 0), None
#     Edge 20, Type (0, 0), None
#     Edge 21, Type (0, 0), None
#     Edge 22, Type (0, 0), None
#     Edge 23, Type (0, 0), None
#     Edge 24, Type (0, 0), None
#     Edge 25, Type (0, 0), None
#     Edge 26, Type (0, 0), None
#     Edge 27, Type (0, 0), None
#     Edge 28, Type (0, 0), None
#     Edge 29, Type (0, 0), None
#     Edge 30, Type (0, 0), None
#     Edge 31, Type (0, 0), None
#     Edge 32, Type (0, 0), None
#     Edge 33, Type (0, 0), None
#     Edge 34, Type (0, 0), None
#     Edge 35, Type (0, 0), None
#     Edge 36, Type (0, 0), None
#     Edge 37, Type (0, 0), None
#     Edge 38, Type (0, 0), None
#     Edge 39, Type (0, 0), None
#     Edge 40, Type (0, 0), None
#     Edge 41, Type (0, 0), None
#     Edge 42, Type (0, 0), None
#     Edge 43, Type (0, 0), None
#     Edge 44, Type (0, 0), None
#     Edge 45, Type (0, 0), None
#     Edge 46, Type (0, 0), None
#     Edge 47, Type (0, 0), None
# Relax obj value: 0.064
# Max RMSD: 0.131
# Mean RMSD: 0.131
data_MOF--net-umc--node1-GALJAG_clean_sbu_0--edge1-none
_symmetry_space_group_name_H-M    P1
_symmetry_Int_Tables_number       1
_symmetry_cell_setting            triclinic
loop_
_symmetry_equiv_pos_as_xyz
'x, y, z'
_cell_length_a     18.602881
_cell_length_b     17.22143
_cell_length_c     25.554468
_cell_angle_alpha  90.000018
_cell_angle_beta   90.0
_cell_angle_gamma 89.998942
loop_
_atom_site_label
_atom_site_type_symbol
_atom_site_fract_x
_atom_site_fract_y
_atom_site_fract_z
_atom_type_partial_charge
In0 In 0.33135 0.06869 0.36385 0.0
O1 O 0.33616 0.19955 0.35568 0.0
O2 O 0.23298 0.14575 0.36633 0.0
C3 C 0.46495 0.01156 0.35337 0.0
C4 C 0.32197 0.05353 0.46781 0.0
C5 C 0.2852 0.01449 0.27202 0.0
O6 O 0.45206 0.08378 0.35123 0.0
O7 O 0.41071 0.96861 0.35991 0.0
O8 O 0.27606 0.97658 0.31415 0.0
O9 O 0.31458 0.08006 0.27709 0.0
C10 C 0.26873 0.20767 0.36039 0.0
O11 O 0.27832 0.01682 0.4386 0.0
O12 O 0.36764 0.09477 0.44436 0.0
In13 In 0.67172 0.92287 0.36386 0.0
O14 O 0.72474 0.97473 0.4386 0.0
O15 O 0.63543 0.89678 0.44436 0.0
C16 C 0.71787 0.97707 0.27202 0.0
C17 C 0.73434 0.78389 0.36039 0.0
C18 C 0.53812 0.97999 0.35338 0.0
O19 O 0.72701 0.01498 0.31415 0.0
O20 O 0.68849 0.9115 0.27709 0.0
O21 O 0.55101 0.90777 0.35123 0.0
O22 O 0.59236 0.02294 0.35992 0.0
C23 C 0.6811 0.93803 0.46781 0.0
O24 O 0.66691 0.79201 0.35568 0.0
O25 O 0.77009 0.84581 0.36633 0.0
In26 In 0.33135 0.92286 0.12908 0.0
O27 O 0.33616 0.792 0.13727 0.0
O28 O 0.23298 0.84581 0.12662 0.0
C29 C 0.46495 0.98 0.13956 0.0
C30 C 0.32197 0.938 0.02513 0.0
C31 C 0.28524 0.97708 0.2209 0.0
O32 O 0.45207 0.90778 0.1417 0.0
O33 O 0.4107 0.02294 0.13302 0.0
O34 O 0.27604 0.01497 0.17877 0.0
O35 O 0.31463 0.91151 0.21586 0.0
C36 C 0.26873 0.78389 0.13256 0.0
O37 O 0.27833 0.97472 0.05434 0.0
O38 O 0.36764 0.89675 0.04858 0.0
In39 In 0.67172 0.06869 0.12908 0.0
O40 O 0.66691 0.19955 0.13726 0.0
O41 O 0.77009 0.14575 0.12662 0.0
C42 C 0.53812 0.01157 0.13955 0.0
C43 C 0.6811 0.05355 0.02513 0.0
C44 C 0.71782 0.01447 0.2209 0.0
O45 O 0.551 0.08378 0.1417 0.0
O46 O 0.59236 0.96862 0.13301 0.0
O47 O 0.72703 0.97658 0.17877 0.0
O48 O 0.68844 0.08005 0.21586 0.0
C49 C 0.73434 0.20767 0.13256 0.0
O50 O 0.72474 0.01683 0.05434 0.0
O51 O 0.63543 0.0948 0.04858 0.0
In52 In 0.67172 0.92287 0.62908 0.0
O53 O 0.72474 0.97474 0.55434 0.0
O54 O 0.63544 0.89678 0.54858 0.0
C55 C 0.71787 0.97707 0.72092 0.0
C56 C 0.73434 0.78389 0.63255 0.0
C57 C 0.53813 0.98 0.63957 0.0
O58 O 0.72701 0.01497 0.67879 0.0
O59 O 0.68849 0.9115 0.71585 0.0
O60 O 0.55101 0.90778 0.64171 0.0
O61 O 0.59236 0.02294 0.63302 0.0
C62 C 0.68111 0.93802 0.52513 0.0
O63 O 0.66691 0.79201 0.63726 0.0
O64 O 0.77009 0.84581 0.62661 0.0
In65 In 0.33135 0.06869 0.62908 0.0
O66 O 0.33616 0.19955 0.63726 0.0
O67 O 0.23298 0.14575 0.62661 0.0
C68 C 0.46495 0.01156 0.63955 0.0
C69 C 0.32196 0.05353 0.52513 0.0
C70 C 0.2852 0.01449 0.72092 0.0
O71 O 0.45206 0.08378 0.64171 0.0
O72 O 0.41071 0.96862 0.63302 0.0
O73 O 0.27606 0.97658 0.67879 0.0
O74 O 0.31458 0.08006 0.71585 0.0
C75 C 0.26873 0.20767 0.63255 0.0
O76 O 0.27833 0.01682 0.55434 0.0
O77 O 0.36763 0.09478 0.54858 0.0
In78 In 0.67172 0.06869 0.86385 0.0
O79 O 0.66691 0.19955 0.85567 0.0
O80 O 0.77009 0.14575 0.86631 0.0
C81 C 0.53812 0.01156 0.85338 0.0
C82 C 0.68111 0.05356 0.96781 0.0
C83 C 0.71783 0.01447 0.77204 0.0
O84 O 0.551 0.08378 0.85124 0.0
O85 O 0.59237 0.96862 0.85992 0.0
O86 O 0.72704 0.97658 0.81416 0.0
O87 O 0.68844 0.08004 0.77708 0.0
C88 C 0.73434 0.20767 0.86037 0.0
O89 O 0.72474 0.01683 0.9386 0.0
O90 O 0.63544 0.09481 0.94436 0.0
In91 In 0.33135 0.92286 0.86385 0.0
O92 O 0.27834 0.97472 0.9386 0.0
O93 O 0.36763 0.89675 0.94436 0.0
C94 C 0.28525 0.97708 0.77204 0.0
C95 C 0.26873 0.78389 0.86037 0.0
C96 C 0.46495 0.97999 0.85339 0.0
O97 O 0.27604 0.01497 0.81416 0.0
O98 O 0.31463 0.91151 0.77708 0.0
O99 O 0.45207 0.90777 0.85124 0.0
O100 O 0.41071 0.02294 0.85992 0.0
C101 C 0.32197 0.938 0.96781 0.0
O102 O 0.33616 0.792 0.85567 0.0
O103 O 0.23299 0.84581 0.86631 0.0
In104 In 0.83135 0.56869 0.36385 0.0
O105 O 0.77832 0.51682 0.4386 0.0
O106 O 0.86764 0.59477 0.44436 0.0
C107 C 0.7852 0.51449 0.27202 0.0
C108 C 0.76873 0.70767 0.36039 0.0
C109 C 0.96495 0.51156 0.35337 0.0
O110 O 0.77606 0.47658 0.31415 0.0
O111 O 0.81458 0.58006 0.27709 0.0
O112 O 0.95206 0.58378 0.35123 0.0
O113 O 0.91071 0.46861 0.35991 0.0
C114 C 0.82197 0.55353 0.46781 0.0
O115 O 0.83616 0.69955 0.35568 0.0
O116 O 0.73298 0.64575 0.36633 0.0
In117 In 0.17172 0.42287 0.36386 0.0
O118 O 0.16691 0.29201 0.35568 0.0
O119 O 0.27009 0.34581 0.36633 0.0
C120 C 0.03812 0.47999 0.35338 0.0
C121 C 0.1811 0.43803 0.46781 0.0
C122 C 0.21787 0.47707 0.27202 0.0
O123 O 0.05101 0.40777 0.35123 0.0
O124 O 0.09236 0.52294 0.35991 0.0
O125 O 0.22701 0.51498 0.31415 0.0
O126 O 0.18849 0.4115 0.27709 0.0
C127 C 0.23434 0.28389 0.36039 0.0
O128 O 0.22475 0.47473 0.4386 0.0
O129 O 0.13543 0.39678 0.44436 0.0
In130 In 0.83135 0.42286 0.12908 0.0
O131 O 0.83616 0.292 0.13727 0.0
O132 O 0.73298 0.34581 0.12662 0.0
C133 C 0.96495 0.48 0.13956 0.0
C134 C 0.82197 0.438 0.02513 0.0
C135 C 0.78524 0.47708 0.2209 0.0
O136 O 0.95207 0.40778 0.1417 0.0
O137 O 0.9107 0.52294 0.13302 0.0
O138 O 0.77604 0.51497 0.17877 0.0
O139 O 0.81463 0.41151 0.21586 0.0
C140 C 0.76873 0.28389 0.13256 0.0
O141 O 0.77833 0.47472 0.05434 0.0
O142 O 0.86764 0.39675 0.04858 0.0
In143 In 0.17172 0.56869 0.12908 0.0
O144 O 0.22474 0.51683 0.05434 0.0
O145 O 0.13543 0.5948 0.04858 0.0
C146 C 0.21782 0.51447 0.2209 0.0
C147 C 0.23434 0.70767 0.13256 0.0
C148 C 0.03812 0.51157 0.13955 0.0
O149 O 0.22703 0.47658 0.17877 0.0
O150 O 0.18844 0.58005 0.21586 0.0
O151 O 0.051 0.58378 0.1417 0.0
O152 O 0.09236 0.46862 0.13301 0.0
C153 C 0.1811 0.55355 0.02513 0.0
O154 O 0.16691 0.69955 0.13726 0.0
O155 O 0.27008 0.64575 0.12662 0.0
In156 In 0.17172 0.42287 0.62908 0.0
O157 O 0.16691 0.29201 0.63726 0.0
O158 O 0.27009 0.34581 0.62661 0.0
C159 C 0.03813 0.48 0.63957 0.0
C160 C 0.18111 0.43802 0.52513 0.0
C161 C 0.21787 0.47707 0.72092 0.0
O162 O 0.05101 0.40778 0.64171 0.0
O163 O 0.09236 0.52294 0.63302 0.0
O164 O 0.22701 0.51497 0.67879 0.0
O165 O 0.18849 0.4115 0.71585 0.0
C166 C 0.23434 0.28389 0.63255 0.0
O167 O 0.22474 0.47474 0.55434 0.0
O168 O 0.13544 0.39678 0.54858 0.0
In169 In 0.83135 0.56869 0.62908 0.0
O170 O 0.77833 0.51682 0.55434 0.0
O171 O 0.86764 0.59478 0.54858 0.0
C172 C 0.7852 0.51449 0.72092 0.0
C173 C 0.76873 0.70767 0.63255 0.0
C174 C 0.96495 0.51156 0.63956 0.0
O175 O 0.77606 0.47658 0.67879 0.0
O176 O 0.81458 0.58006 0.71585 0.0
O177 O 0.95206 0.58378 0.64171 0.0
O178 O 0.91071 0.46862 0.63302 0.0
C179 C 0.82196 0.55353 0.52513 0.0
O180 O 0.83616 0.69955 0.63726 0.0
O181 O 0.73298 0.64575 0.62661 0.0
In182 In 0.17172 0.56869 0.86385 0.0
O183 O 0.16691 0.69955 0.85567 0.0
O184 O 0.27009 0.64575 0.86631 0.0
C185 C 0.03812 0.51156 0.85338 0.0
C186 C 0.18111 0.55356 0.96781 0.0
C187 C 0.21783 0.51447 0.77204 0.0
O188 O 0.051 0.58378 0.85124 0.0
O189 O 0.09237 0.46862 0.85992 0.0
O190 O 0.22704 0.47658 0.81416 0.0
O191 O 0.18844 0.58004 0.77708 0.0
C192 C 0.23434 0.70767 0.86038 0.0
O193 O 0.22474 0.51683 0.9386 0.0
O194 O 0.13544 0.59481 0.94436 0.0
In195 In 0.83135 0.42286 0.86385 0.0
O196 O 0.77834 0.47472 0.9386 0.0
O197 O 0.86763 0.39675 0.94436 0.0
C198 C 0.78525 0.47708 0.77204 0.0
C199 C 0.76873 0.28389 0.86038 0.0
C200 C 0.96495 0.47999 0.85339 0.0
O201 O 0.77604 0.51497 0.81416 0.0
O202 O 0.81463 0.41151 0.77708 0.0
O203 O 0.95207 0.40777 0.85124 0.0
O204 O 0.91071 0.52294 0.85992 0.0
C205 C 0.82197 0.438 0.96781 0.0
O206 O 0.83616 0.292 0.85567 0.0
O207 O 0.73299 0.34581 0.86631 0.0
loop_
_geom_bond_atom_site_label_1
_geom_bond_atom_site_label_2
_geom_bond_distance
_geom_bond_site_symmetry_2
_ccdc_geom_bond_type
In0 O1 2.294 . S
In0 O2 2.326 . S
In0 O6 2.266 . S
In0 O7 2.326 1_545 S
In0 O8 2.266 1_545 S
In0 O9 2.326 . S
In0 O11 2.294 . S
In0 O12 2.326 . S
O1 In0 2.294 . S
O1 C10 1.240 . S
O2 In0 2.326 . S
O2 C10 1.252 . S
C3 O6 1.252 . S
C3 O7 1.260 1_545 S
C4 O11 1.240 . S
C4 O12 1.252 . S
C5 O8 1.252 . S
C5 O9 1.260 1_565 S
O6 In0 2.266 . S
O6 C3 1.252 . S
O7 In0 2.326 1_565 S
O7 C3 1.260 1_565 S
O8 In0 2.266 1_565 S
O8 C5 1.252 . S
O9 In0 2.326 . S
O9 C5 1.260 1_545 S
C10 O1 1.240 . S
C10 O2 1.252 . S
O11 In0 2.294 . S
O11 C4 1.240 . S
O12 In0 2.326 . S
O12 C4 1.252 . S
In13 O14 2.294 . S
In13 O15 2.326 . S
In13 O19 2.266 1_565 S
In13 O20 2.326 . S
In13 O21 2.266 . S
In13 O22 2.326 1_565 S
In13 O24 2.294 . S
In13 O25 2.326 . S
O14 In13 2.294 . S
O14 C23 1.240 . S
O15 In13 2.326 . S
O15 C23 1.252 . S
C16 O19 1.252 . S
C16 O20 1.260 1_545 S
C17 O24 1.240 . S
C17 O25 1.252 . S
C18 O21 1.252 . S
C18 O22 1.260 1_565 S
O19 In13 2.266 1_545 S
O19 C16 1.252 . S
O20 In13 2.326 . S
O20 C16 1.260 1_565 S
O21 In13 2.266 . S
O21 C18 1.252 . S
O22 In13 2.326 1_545 S
O22 C18 1.260 1_545 S
C23 O14 1.240 . S
C23 O15 1.252 . S
O24 In13 2.294 . S
O24 C17 1.240 . S
O25 In13 2.326 . S
O25 C17 1.252 . S
In26 O27 2.294 . S
In26 O28 2.326 . S
In26 O32 2.266 . S
In26 O33 2.326 1_565 S
In26 O34 2.266 1_565 S
In26 O35 2.326 . S
In26 O37 2.294 . S
In26 O38 2.326 . S
O27 In26 2.294 . S
O27 C36 1.240 . S
O28 In26 2.326 . S
O28 C36 1.252 . S
C29 O32 1.252 . S
C29 O33 1.260 1_565 S
C30 O37 1.240 . S
C30 O38 1.252 . S
C31 O34 1.252 . S
C31 O35 1.260 1_545 S
O32 In26 2.266 . S
O32 C29 1.252 . S
O33 In26 2.326 1_545 S
O33 C29 1.260 1_545 S
O34 In26 2.266 1_545 S
O34 C31 1.252 . S
O35 In26 2.326 . S
O35 C31 1.260 1_565 S
C36 O27 1.240 . S
C36 O28 1.252 . S
O37 In26 2.294 . S
O37 C30 1.240 . S
O38 In26 2.326 . S
O38 C30 1.252 . S
In39 O40 2.294 . S
In39 O41 2.326 . S
In39 O45 2.266 . S
In39 O46 2.326 1_545 S
In39 O47 2.266 1_545 S
In39 O48 2.326 . S
In39 O50 2.294 . S
In39 O51 2.326 . S
O40 In39 2.294 . S
O40 C49 1.240 . S
O41 In39 2.326 . S
O41 C49 1.252 . S
C42 O45 1.252 . S
C42 O46 1.260 1_545 S
C43 O50 1.240 . S
C43 O51 1.252 . S
C44 O47 1.252 . S
C44 O48 1.260 1_565 S
O45 In39 2.266 . S
O45 C42 1.252 . S
O46 In39 2.326 1_565 S
O46 C42 1.260 1_565 S
O47 In39 2.266 1_565 S
O47 C44 1.252 . S
O48 In39 2.326 . S
O48 C44 1.260 1_545 S
C49 O40 1.240 . S
C49 O41 1.252 . S
O50 In39 2.294 . S
O50 C43 1.240 . S
O51 In39 2.326 . S
O51 C43 1.252 . S
In52 O53 2.294 . S
In52 O54 2.326 . S
In52 O58 2.266 1_565 S
In52 O59 2.326 . S
In52 O60 2.266 . S
In52 O61 2.326 1_565 S
In52 O63 2.294 . S
In52 O64 2.326 . S
O53 In52 2.294 . S
O53 C62 1.240 . S
O54 In52 2.326 . S
O54 C62 1.252 . S
C55 O58 1.252 . S
C55 O59 1.260 1_545 S
C56 O63 1.240 . S
C56 O64 1.252 . S
C57 O60 1.252 . S
C57 O61 1.260 1_565 S
O58 In52 2.266 1_545 S
O58 C55 1.252 . S
O59 In52 2.326 . S
O59 C55 1.260 1_565 S
O60 In52 2.266 . S
O60 C57 1.252 . S
O61 In52 2.326 1_545 S
O61 C57 1.260 1_545 S
C62 O53 1.240 . S
C62 O54 1.252 . S
O63 In52 2.294 . S
O63 C56 1.240 . S
O64 In52 2.326 . S
O64 C56 1.252 . S
In65 O66 2.294 . S
In65 O67 2.326 . S
In65 O71 2.266 . S
In65 O72 2.326 1_545 S
In65 O73 2.266 1_545 S
In65 O74 2.326 . S
In65 O76 2.294 . S
In65 O77 2.326 . S
O66 In65 2.294 . S
O66 C75 1.240 . S
O67 In65 2.326 . S
O67 C75 1.252 . S
C68 O71 1.252 . S
C68 O72 1.260 1_545 S
C69 O76 1.240 . S
C69 O77 1.252 . S
C70 O73 1.252 . S
C70 O74 1.260 1_565 S
O71 In65 2.266 . S
O71 C68 1.252 . S
O72 In65 2.326 1_565 S
O72 C68 1.260 1_565 S
O73 In65 2.266 1_565 S
O73 C70 1.252 . S
O74 In65 2.326 . S
O74 C70 1.260 1_545 S
C75 O66 1.240 . S
C75 O67 1.252 . S
O76 In65 2.294 . S
O76 C69 1.240 . S
O77 In65 2.326 . S
O77 C69 1.252 . S
In78 O79 2.294 . S
In78 O80 2.326 . S
In78 O84 2.266 . S
In78 O85 2.326 1_545 S
In78 O86 2.266 1_545 S
In78 O87 2.326 . S
In78 O89 2.294 . S
In78 O90 2.326 . S
O79 In78 2.294 . S
O79 C88 1.240 . S
O80 In78 2.326 . S
O80 C88 1.252 . S
C81 O84 1.252 . S
C81 O85 1.260 1_545 S
C82 O89 1.240 . S
C82 O90 1.252 . S
C83 O86 1.252 . S
C83 O87 1.260 1_565 S
O84 In78 2.266 . S
O84 C81 1.252 . S
O85 In78 2.326 1_565 S
O85 C81 1.260 1_565 S
O86 In78 2.266 1_565 S
O86 C83 1.252 . S
O87 In78 2.326 . S
O87 C83 1.260 1_545 S
C88 O79 1.240 . S
C88 O80 1.252 . S
O89 In78 2.294 . S
O89 C82 1.240 . S
O90 In78 2.326 . S
O90 C82 1.252 . S
In91 O92 2.294 . S
In91 O93 2.326 . S
In91 O97 2.266 1_565 S
In91 O98 2.326 . S
In91 O99 2.266 . S
In91 O100 2.326 1_565 S
In91 O102 2.294 . S
In91 O103 2.326 . S
O92 In91 2.294 . S
O92 C101 1.240 . S
O93 In91 2.326 . S
O93 C101 1.252 . S
C94 O97 1.252 . S
C94 O98 1.260 1_545 S
C95 O102 1.240 . S
C95 O103 1.252 . S
C96 O99 1.252 . S
C96 O100 1.260 1_565 S
O97 In91 2.266 1_545 S
O97 C94 1.252 . S
O98 In91 2.326 . S
O98 C94 1.260 1_565 S
O99 In91 2.266 . S
O99 C96 1.252 . S
O100 In91 2.326 1_545 S
O100 C96 1.260 1_545 S
C101 O92 1.240 . S
C101 O93 1.252 . S
O102 In91 2.294 . S
O102 C95 1.240 . S
O103 In91 2.326 . S
O103 C95 1.252 . S
In104 O105 2.294 . S
In104 O106 2.326 . S
In104 O110 2.266 . S
In104 O111 2.326 . S
In104 O112 2.266 . S
In104 O113 2.326 . S
In104 O115 2.294 . S
In104 O116 2.326 . S
O105 In104 2.294 . S
O105 C114 1.240 . S
O106 In104 2.326 . S
O106 C114 1.252 . S
C107 O110 1.252 . S
C107 O111 1.260 . S
C108 O115 1.240 . S
C108 O116 1.252 . S
C109 O112 1.252 . S
C109 O113 1.260 . S
O110 In104 2.266 . S
O110 C107 1.252 . S
O111 In104 2.326 . S
O111 C107 1.260 . S
O112 In104 2.266 . S
O112 C109 1.252 . S
O113 In104 2.326 . S
O113 C109 1.260 . S
C114 O105 1.240 . S
C114 O106 1.252 . S
O115 In104 2.294 . S
O115 C108 1.240 . S
O116 In104 2.326 . S
O116 C108 1.252 . S
In117 O118 2.294 . S
In117 O119 2.326 . S
In117 O123 2.266 . S
In117 O124 2.326 . S
In117 O125 2.266 . S
In117 O126 2.326 . S
In117 O128 2.294 . S
In117 O129 2.326 . S
O118 In117 2.294 . S
O118 C127 1.240 . S
O119 In117 2.326 . S
O119 C127 1.252 . S
C120 O123 1.252 . S
C120 O124 1.260 . S
C121 O128 1.240 . S
C121 O129 1.252 . S
C122 O125 1.252 . S
C122 O126 1.260 . S
O123 In117 2.266 . S
O123 C120 1.252 . S
O124 In117 2.326 . S
O124 C120 1.260 . S
O125 In117 2.266 . S
O125 C122 1.252 . S
O126 In117 2.326 . S
O126 C122 1.260 . S
C127 O118 1.240 . S
C127 O119 1.252 . S
O128 In117 2.294 . S
O128 C121 1.240 . S
O129 In117 2.326 . S
O129 C121 1.252 . S
In130 O131 2.294 . S
In130 O132 2.326 . S
In130 O136 2.266 . S
In130 O137 2.326 . S
In130 O138 2.266 . S
In130 O139 2.326 . S
In130 O141 2.294 . S
In130 O142 2.326 . S
O131 In130 2.294 . S
O131 C140 1.240 . S
O132 In130 2.326 . S
O132 C140 1.252 . S
C133 O136 1.252 . S
C133 O137 1.260 . S
C134 O141 1.240 . S
C134 O142 1.252 . S
C135 O138 1.252 . S
C135 O139 1.260 . S
O136 In130 2.266 . S
O136 C133 1.252 . S
O137 In130 2.326 . S
O137 C133 1.260 . S
O138 In130 2.266 . S
O138 C135 1.252 . S
O139 In130 2.326 . S
O139 C135 1.260 . S
C140 O131 1.240 . S
C140 O132 1.252 . S
O141 In130 2.294 . S
O141 C134 1.240 . S
O142 In130 2.326 . S
O142 C134 1.252 . S
In143 O144 2.294 . S
In143 O145 2.326 . S
In143 O149 2.266 . S
In143 O150 2.326 . S
In143 O151 2.266 . S
In143 O152 2.326 . S
In143 O154 2.294 . S
In143 O155 2.326 . S
O144 In143 2.294 . S
O144 C153 1.240 . S
O145 In143 2.326 . S
O145 C153 1.252 . S
C146 O149 1.252 . S
C146 O150 1.260 . S
C147 O154 1.240 . S
C147 O155 1.252 . S
C148 O151 1.252 . S
C148 O152 1.260 . S
O149 In143 2.266 . S
O149 C146 1.252 . S
O150 In143 2.326 . S
O150 C146 1.260 . S
O151 In143 2.266 . S
O151 C148 1.252 . S
O152 In143 2.326 . S
O152 C148 1.260 . S
C153 O144 1.240 . S
C153 O145 1.252 . S
O154 In143 2.294 . S
O154 C147 1.240 . S
O155 In143 2.326 . S
O155 C147 1.252 . S
In156 O157 2.294 . S
In156 O158 2.326 . S
In156 O162 2.266 . S
In156 O163 2.326 . S
In156 O164 2.266 . S
In156 O165 2.326 . S
In156 O167 2.294 . S
In156 O168 2.326 . S
O157 In156 2.294 . S
O157 C166 1.240 . S
O158 In156 2.326 . S
O158 C166 1.252 . S
C159 O162 1.252 . S
C159 O163 1.260 . S
C160 O167 1.240 . S
C160 O168 1.252 . S
C161 O164 1.252 . S
C161 O165 1.260 . S
O162 In156 2.266 . S
O162 C159 1.252 . S
O163 In156 2.326 . S
O163 C159 1.260 . S
O164 In156 2.266 . S
O164 C161 1.252 . S
O165 In156 2.326 . S
O165 C161 1.260 . S
C166 O157 1.240 . S
C166 O158 1.252 . S
O167 In156 2.294 . S
O167 C160 1.240 . S
O168 In156 2.326 . S
O168 C160 1.252 . S
In169 O170 2.294 . S
In169 O171 2.326 . S
In169 O175 2.266 . S
In169 O176 2.326 . S
In169 O177 2.266 . S
In169 O178 2.326 . S
In169 O180 2.294 . S
In169 O181 2.326 . S
O170 In169 2.294 . S
O170 C179 1.240 . S
O171 In169 2.326 . S
O171 C179 1.252 . S
C172 O175 1.252 . S
C172 O176 1.260 . S
C173 O180 1.240 . S
C173 O181 1.252 . S
C174 O177 1.252 . S
C174 O178 1.260 . S
O175 In169 2.266 . S
O175 C172 1.252 . S
O176 In169 2.326 . S
O176 C172 1.260 . S
O177 In169 2.266 . S
O177 C174 1.252 . S
O178 In169 2.326 . S
O178 C174 1.260 . S
C179 O170 1.240 . S
C179 O171 1.252 . S
O180 In169 2.294 . S
O180 C173 1.240 . S
O181 In169 2.326 . S
O181 C173 1.252 . S
In182 O183 2.294 . S
In182 O184 2.326 . S
In182 O188 2.266 . S
In182 O189 2.326 . S
In182 O190 2.266 . S
In182 O191 2.326 . S
In182 O193 2.294 . S
In182 O194 2.326 . S
O183 In182 2.294 . S
O183 C192 1.240 . S
O184 In182 2.326 . S
O184 C192 1.252 . S
C185 O188 1.252 . S
C185 O189 1.260 . S
C186 O193 1.240 . S
C186 O194 1.252 . S
C187 O190 1.252 . S
C187 O191 1.260 . S
O188 In182 2.266 . S
O188 C185 1.252 . S
O189 In182 2.326 . S
O189 C185 1.260 . S
O190 In182 2.266 . S
O190 C187 1.252 . S
O191 In182 2.326 . S
O191 C187 1.260 . S
C192 O183 1.240 . S
C192 O184 1.252 . S
O193 In182 2.294 . S
O193 C186 1.240 . S
O194 In182 2.326 . S
O194 C186 1.252 . S
In195 O196 2.294 . S
In195 O197 2.326 . S
In195 O201 2.266 . S
In195 O202 2.326 . S
In195 O203 2.266 . S
In195 O204 2.326 . S
In195 O206 2.294 . S
In195 O207 2.326 . S
O196 In195 2.294 . S
O196 C205 1.240 . S
O197 In195 2.326 . S
O197 C205 1.252 . S
C198 O201 1.252 . S
C198 O202 1.260 . S
C199 O206 1.240 . S
C199 O207 1.252 . S
C200 O203 1.252 . S
C200 O204 1.260 . S
O201 In195 2.266 . S
O201 C198 1.252 . S
O202 In195 2.326 . S
O202 C198 1.260 . S
O203 In195 2.266 . S
O203 C200 1.252 . S
O204 In195 2.326 . S
O204 C200 1.260 . S
C205 O196 1.240 . S
C205 O197 1.252 . S
O206 In195 2.294 . S
O206 C199 1.240 . S
O207 In195 2.326 . S
O207 C199 1.252 . S
C4 C69 1.502 . S
C62 C23 1.502 . S
C30 C101 1.502 1_554 S
C82 C43 1.502 1_556 S
C179 C114 1.502 . S
C160 C121 1.502 . S
C205 C134 1.502 1_556 S
C153 C186 1.502 1_554 S
C18 C3 1.526 1_565 S
C29 C42 1.526 1_565 S
C57 C68 1.526 1_565 S
C81 C96 1.526 1_545 S
C109 C120 1.526 1_655 S
C148 C133 1.526 1_455 S
C174 C159 1.526 1_655 S
C185 C200 1.526 1_455 S
C127 C10 1.512 . S
C17 C108 1.512 . S
C147 C36 1.512 . S
C49 C140 1.512 . S
C56 C173 1.512 . S
C166 C75 1.512 . S
C88 C199 1.512 . S
C192 C95 1.512 . S
C5 C31 1.509 1_565 S
C44 C16 1.509 1_565 S
C83 C55 1.509 1_565 S
C94 C70 1.509 1_545 S
C135 C107 1.509 . S
C122 C146 1.509 . S
C187 C161 1.509 . S
C172 C198 1.509 . S
