# Generated by pormake.
# Topology snx, (6)-cn, num edge types: 1
# Building blocks:
#     Node 0, Type 0, BuildingBlock: IZENUY_clean_sbu_0, # of connection points: 6
#     Node 1, Type 0, BuildingBlock: IZENUY_clean_sbu_0, # of connection points: 6
#     Node 2, Type 0, BuildingBlock: IZENUY_clean_sbu_0, # of connection points: 6
#     Node 3, Type 0, BuildingBlock: IZENUY_clean_sbu_0, # of connection points: 6
#     Node 4, Type 0, BuildingBlock: IZENUY_clean_sbu_0, # of connection points: 6
#     Node 5, Type 0, BuildingBlock: IZENUY_clean_sbu_0, # of connection points: 6
#     Edge 6, Type (0, 0), None
#     Edge 7, Type (0, 0), None
#     Edge 8, Type (0, 0), None
#     Edge 9, Type (0, 0), None
#     Edge 10, Type (0, 0), None
#     Edge 11, Type (0, 0), None
#     Edge 12, Type (0, 0), None
#     Edge 13, Type (0, 0), None
#     Edge 14, Type (0, 0), None
#     Edge 15, Type (0, 0), None
#     Edge 16, Type (0, 0), None
#     Edge 17, Type (0, 0), None
#     Edge 18, Type (0, 0), None
#     Edge 19, Type (0, 0), None
#     Edge 20, Type (0, 0), None
#     Edge 21, Type (0, 0), None
#     Edge 22, Type (0, 0), None
#     Edge 23, Type (0, 0), None
# Relax obj value: 0.026
# Max RMSD: 0.071
# Mean RMSD: 0.067
data_MOF--net-snx--node1-IZENUY_clean_sbu_0--edge1-none
_symmetry_space_group_name_H-M    P1
_symmetry_Int_Tables_number       1
_symmetry_cell_setting            triclinic
loop_
_symmetry_equiv_pos_as_xyz
'x, y, z'
_cell_length_a     16.8884
_cell_length_b     16.889311
_cell_length_c     9.9526932
_cell_angle_alpha  90.000276
_cell_angle_beta   90.00006
_cell_angle_gamma 120.59613
loop_
_atom_site_label
_atom_site_type_symbol
_atom_site_fract_x
_atom_site_fract_y
_atom_site_fract_z
_atom_type_partial_charge
Fe0 Fe 0.1684 0.28167 0.28976 0.0
Fe1 Fe 0.26002 0.4618 0.4517 0.0
O2 O 0.2311 0.40376 0.2943 0.0
Fe3 Fe 0.26548 0.46644 0.14164 0.0
O4 O 0.14671 0.41428 0.08443 0.0
O5 O 0.10943 0.27231 0.13156 0.0
O6 O 0.07139 0.27727 0.37555 0.0
C7 C 0.07642 0.31692 0.4854 0.0
C8 C 0.29282 0.31803 0.09062 0.0
O9 O 0.15347 0.37562 0.5347 0.0
C10 C 0.42048 0.5695 0.2968 0.0
O11 O 0.21454 0.26622 0.44735 0.0
O12 O 0.32322 0.40487 0.50271 0.0
O13 O 0.28117 0.38188 0.04926 0.0
O14 O 0.26184 0.27957 0.20275 0.0
C15 C 0.21758 0.57338 0.3049 0.0
O16 O 0.36999 0.55761 0.39703 0.0
O17 O 0.38706 0.52461 0.18887 0.0
C18 C 0.29063 0.31905 0.50307 0.0
O19 O 0.20192 0.52592 0.41083 0.0
O20 O 0.2558 0.5614 0.20457 0.0
C21 C 0.09316 0.32864 0.07303 0.0
Fe22 Fe 0.8262 0.24652 0.63947 0.0
Fe23 Fe 0.83094 0.25127 0.94983 0.0
O24 O 0.85834 0.21913 0.79464 0.0
Fe25 Fe 0.91895 0.15853 0.79464 0.0
O26 O 0.97604 0.20237 0.6331 0.0
O27 O 0.94552 0.31031 0.58329 0.0
O28 O 0.84125 0.35543 0.69875 0.0
C29 C 0.87538 0.40502 0.80235 0.0
C30 C 0.78613 0.06366 0.60546 0.0
O31 O 0.89046 0.37334 0.90775 0.0
C32 C 0.80157 0.0813 1.01581 0.0
O33 O 0.70412 0.187 0.68155 0.0
O34 O 0.72203 0.2362 0.89055 0.0
O35 O 0.82283 0.05984 0.71417 0.0
O36 O 0.80419 0.14022 0.55592 0.0
C37 C 1.01382 0.29139 0.98375 0.0
O38 O 0.76717 0.13195 1.006 0.0
O39 O 0.87511 0.10143 0.95617 0.0
C40 C 0.67244 0.2021 0.78694 0.0
O41 O 0.93726 0.27328 1.03336 0.0
O42 O 1.01765 0.25464 0.8751 0.0
C43 C 0.99618 0.27592 0.5735 0.0
Fe44 Fe 0.79583 0.90906 0.29948 0.0
Fe45 Fe 0.6157 0.81748 0.13753 0.0
O46 O 0.67374 0.84638 0.29494 0.0
Fe47 Fe 0.61105 0.81199 0.44761 0.0
O48 O 0.66321 0.93075 0.50482 0.0
O49 O 0.80519 0.96802 0.45769 0.0
O50 O 0.80025 1.00608 0.2137 0.0
C51 C 0.76056 1.00106 0.1039 0.0
C52 C 0.75946 0.78464 0.49861 0.0
O53 O 0.70188 0.92402 0.05455 0.0
C54 C 0.50804 0.65702 0.2924 0.0
O55 O 0.81128 0.86293 0.14188 0.0
O56 O 0.67262 0.75428 0.0865 0.0
O57 O 0.69562 0.7963 0.53998 0.0
O58 O 0.79793 0.81562 0.38648 0.0
C59 C 0.50411 0.85991 0.28437 0.0
O60 O 0.51988 0.70751 0.19219 0.0
O61 O 0.55288 0.69042 0.40037 0.0
C62 C 0.75843 0.78684 0.08615 0.0
O63 O 0.55157 0.87557 0.17844 0.0
O64 O 0.51609 0.82167 0.38468 0.0
C65 C 0.74886 0.9843 0.51621 0.0
Fe66 Fe 0.92223 0.78265 0.78977 0.0
Fe67 Fe 0.83061 0.60253 0.9517 0.0
O68 O 0.85953 0.66056 0.7943 0.0
Fe69 Fe 0.82515 0.59788 0.64163 0.0
O70 O 0.94391 0.65004 0.58442 0.0
O71 O 0.9812 0.79201 0.63156 0.0
O72 O 1.01924 0.78705 0.87555 0.0
C73 C 1.01421 0.7474 0.9854 0.0
C74 C 0.7978 0.74628 0.59065 0.0
O75 O 0.93716 0.6887 1.03471 0.0
C76 C 0.67015 0.49482 0.7968 0.0
O77 O 0.87609 0.79811 0.94736 0.0
O78 O 0.76741 0.65945 1.00271 0.0
O79 O 0.80945 0.68245 0.54926 0.0
O80 O 0.8288 0.78476 0.70276 0.0
C81 C 0.87307 0.49097 0.80488 0.0
O82 O 0.72064 0.50671 0.89703 0.0
O83 O 0.70357 0.53971 0.68887 0.0
C84 C 0.8 0.74527 1.00306 0.0
O85 O 0.88871 0.5384 0.91084 0.0
O86 O 0.83483 0.50292 0.70456 0.0
C87 C 0.99746 0.73568 0.57303 0.0
Fe88 Fe 0.17168 0.90579 0.29463 0.0
Fe89 Fe 0.26443 0.8178 0.13946 0.0
O90 O 0.23229 0.84519 0.29464 0.0
Fe91 Fe 0.25968 0.81305 0.44983 0.0
O92 O 0.15337 0.79104 0.53336 0.0
O93 O 0.07298 0.80968 0.37509 0.0
O94 O 0.11459 0.86195 0.1331 0.0
C95 C 0.09444 0.7884 0.0735 0.0
C96 C 0.28906 0.98303 0.51581 0.0
O97 O 0.14511 0.75401 0.08329 0.0
C98 C 0.41818 0.86225 0.28695 0.0
O99 O 0.2678 1.00448 0.21417 0.0
O100 O 0.28643 0.9241 0.05591 0.0
O101 O 0.32346 0.93237 0.506 0.0
O102 O 0.21552 0.96289 0.45617 0.0
C103 C 0.21522 0.6593 0.30234 0.0
O104 O 0.38651 0.87732 0.18154 0.0
O105 O 0.3686 0.82812 0.39055 0.0
C106 C 0.3045 1.00066 0.10546 0.0
O107 O 0.24937 0.70889 0.19874 0.0
O108 O 0.20017 0.69098 0.40776 0.0
C109 C 0.07681 0.77294 0.48375 0.0
Fe110 Fe 0.47493 0.24685 0.63753 0.0
Fe111 Fe 0.47957 0.25233 0.94761 0.0
O112 O 0.41689 0.21794 0.79494 0.0
Fe113 Fe 0.29479 0.15526 0.79947 0.0
O114 O 0.29038 0.05824 0.7137 0.0
O115 O 0.38875 0.1403 0.55454 0.0
O116 O 0.53906 0.18875 0.67843 0.0
C117 C 0.58649 0.20439 0.78439 0.0
C118 C 0.3322 0.27748 0.58616 0.0
O119 O 0.57454 0.24265 0.88469 0.0
C120 C 0.33118 0.2797 0.99858 0.0
O121 O 0.57075 0.35681 0.69219 0.0
O122 O 0.53775 0.37391 0.90037 0.0
O123 O 0.27935 0.20139 0.64188 0.0
O124 O 0.41801 0.31005 0.5865 0.0
C125 C 0.34176 0.08002 1.01621 0.0
O126 O 0.395 0.26802 1.03997 0.0
O127 O 0.29269 0.2487 0.88647 0.0
C128 C 0.58259 0.4073 0.7924 0.0
O129 O 0.42741 0.13357 1.00483 0.0
O130 O 0.28543 0.0963 0.95769 0.0
C131 C 0.33007 0.06326 0.6039 0.0
loop_
_geom_bond_atom_site_label_1
_geom_bond_atom_site_label_2
_geom_bond_distance
_geom_bond_site_symmetry_2
_ccdc_geom_bond_type
Fe0 O2 1.918 . S
Fe0 O5 1.997 . S
Fe0 O6 2.002 . S
Fe0 O11 1.976 . S
Fe0 O14 1.996 . S
Fe1 O2 1.918 . S
Fe1 O9 1.997 . S
Fe1 O12 1.996 . S
Fe1 O16 1.976 . S
Fe1 O19 2.002 . S
O2 Fe0 1.918 . S
O2 Fe1 1.918 . S
O2 Fe3 1.918 . S
Fe3 O2 1.918 . S
Fe3 O4 2.002 . S
Fe3 O13 1.976 . S
Fe3 O17 1.996 . S
Fe3 O20 1.997 . S
O4 Fe3 2.002 . S
O4 C21 1.295 . S
O5 Fe0 1.997 . S
O5 C21 1.235 . S
O6 Fe0 2.002 . S
O6 C7 1.295 . S
C7 O6 1.295 . S
C7 O9 1.235 . S
C8 O13 1.287 . S
C8 O14 1.255 . S
O9 Fe1 1.997 . S
O9 C7 1.235 . S
C10 O16 1.287 . S
C10 O17 1.255 . S
O11 Fe0 1.976 . S
O11 C18 1.287 . S
O12 Fe1 1.996 . S
O12 C18 1.255 . S
O13 Fe3 1.976 . S
O13 C8 1.287 . S
O14 Fe0 1.996 . S
O14 C8 1.255 . S
C15 O19 1.295 . S
C15 O20 1.235 . S
O16 Fe1 1.976 . S
O16 C10 1.287 . S
O17 Fe3 1.996 . S
O17 C10 1.255 . S
C18 O11 1.287 . S
C18 O12 1.255 . S
O19 Fe1 2.002 . S
O19 C15 1.295 . S
O20 Fe3 1.997 . S
O20 C15 1.235 . S
C21 O4 1.295 . S
C21 O5 1.235 . S
Fe22 O24 1.918 . S
Fe22 O27 1.997 . S
Fe22 O28 2.002 . S
Fe22 O33 1.976 . S
Fe22 O36 1.996 . S
Fe23 O24 1.918 . S
Fe23 O31 1.997 . S
Fe23 O34 1.996 . S
Fe23 O38 1.976 . S
Fe23 O41 2.002 . S
O24 Fe22 1.918 . S
O24 Fe23 1.918 . S
O24 Fe25 1.918 . S
Fe25 O24 1.918 . S
Fe25 O26 2.002 . S
Fe25 O35 1.976 . S
Fe25 O39 1.996 . S
Fe25 O42 1.997 . S
O26 Fe25 2.002 . S
O26 C43 1.295 . S
O27 Fe22 1.997 . S
O27 C43 1.235 . S
O28 Fe22 2.002 . S
O28 C29 1.295 . S
C29 O28 1.295 . S
C29 O31 1.235 . S
C30 O35 1.287 . S
C30 O36 1.255 . S
O31 Fe23 1.997 . S
O31 C29 1.235 . S
C32 O38 1.287 . S
C32 O39 1.255 . S
O33 Fe22 1.976 . S
O33 C40 1.287 . S
O34 Fe23 1.996 . S
O34 C40 1.255 . S
O35 Fe25 1.976 . S
O35 C30 1.287 . S
O36 Fe22 1.996 . S
O36 C30 1.255 . S
C37 O41 1.295 . S
C37 O42 1.235 . S
O38 Fe23 1.976 . S
O38 C32 1.287 . S
O39 Fe25 1.996 . S
O39 C32 1.255 . S
C40 O33 1.287 . S
C40 O34 1.255 . S
O41 Fe23 2.002 . S
O41 C37 1.295 . S
O42 Fe25 1.997 . S
O42 C37 1.235 . S
C43 O26 1.295 . S
C43 O27 1.235 . S
Fe44 O46 1.918 . S
Fe44 O49 1.997 . S
Fe44 O50 2.002 . S
Fe44 O55 1.976 . S
Fe44 O58 1.996 . S
Fe45 O46 1.918 . S
Fe45 O53 1.997 . S
Fe45 O56 1.996 . S
Fe45 O60 1.976 . S
Fe45 O63 2.002 . S
O46 Fe44 1.918 . S
O46 Fe45 1.918 . S
O46 Fe47 1.918 . S
Fe47 O46 1.918 . S
Fe47 O48 2.002 . S
Fe47 O57 1.976 . S
Fe47 O61 1.996 . S
Fe47 O64 1.997 . S
O48 Fe47 2.002 . S
O48 C65 1.295 . S
O49 Fe44 1.997 . S
O49 C65 1.235 . S
O50 Fe44 2.002 . S
O50 C51 1.295 . S
C51 O50 1.295 . S
C51 O53 1.235 . S
C52 O57 1.287 . S
C52 O58 1.255 . S
O53 Fe45 1.997 . S
O53 C51 1.235 . S
C54 O60 1.287 . S
C54 O61 1.255 . S
O55 Fe44 1.976 . S
O55 C62 1.287 . S
O56 Fe45 1.996 . S
O56 C62 1.255 . S
O57 Fe47 1.976 . S
O57 C52 1.287 . S
O58 Fe44 1.996 . S
O58 C52 1.255 . S
C59 O63 1.295 . S
C59 O64 1.235 . S
O60 Fe45 1.976 . S
O60 C54 1.287 . S
O61 Fe47 1.996 . S
O61 C54 1.255 . S
C62 O55 1.287 . S
C62 O56 1.255 . S
O63 Fe45 2.002 . S
O63 C59 1.295 . S
O64 Fe47 1.997 . S
O64 C59 1.235 . S
C65 O48 1.295 . S
C65 O49 1.235 . S
Fe66 O68 1.918 . S
Fe66 O71 1.997 . S
Fe66 O72 2.002 . S
Fe66 O77 1.976 . S
Fe66 O80 1.996 . S
Fe67 O68 1.918 . S
Fe67 O75 1.997 . S
Fe67 O78 1.996 . S
Fe67 O82 1.976 . S
Fe67 O85 2.002 . S
O68 Fe66 1.918 . S
O68 Fe67 1.918 . S
O68 Fe69 1.918 . S
Fe69 O68 1.918 . S
Fe69 O70 2.002 . S
Fe69 O79 1.976 . S
Fe69 O83 1.996 . S
Fe69 O86 1.997 . S
O70 Fe69 2.002 . S
O70 C87 1.295 . S
O71 Fe66 1.997 . S
O71 C87 1.235 . S
O72 Fe66 2.002 . S
O72 C73 1.295 . S
C73 O72 1.295 . S
C73 O75 1.235 . S
C74 O79 1.287 . S
C74 O80 1.255 . S
O75 Fe67 1.997 . S
O75 C73 1.235 . S
C76 O82 1.287 . S
C76 O83 1.255 . S
O77 Fe66 1.976 . S
O77 C84 1.287 . S
O78 Fe67 1.996 . S
O78 C84 1.255 . S
O79 Fe69 1.976 . S
O79 C74 1.287 . S
O80 Fe66 1.996 . S
O80 C74 1.255 . S
C81 O85 1.295 . S
C81 O86 1.235 . S
O82 Fe67 1.976 . S
O82 C76 1.287 . S
O83 Fe69 1.996 . S
O83 C76 1.255 . S
C84 O77 1.287 . S
C84 O78 1.255 . S
O85 Fe67 2.002 . S
O85 C81 1.295 . S
O86 Fe69 1.997 . S
O86 C81 1.235 . S
C87 O70 1.295 . S
C87 O71 1.235 . S
Fe88 O90 1.918 . S
Fe88 O93 1.997 . S
Fe88 O94 2.002 . S
Fe88 O99 1.976 . S
Fe88 O102 1.996 . S
Fe89 O90 1.918 . S
Fe89 O97 1.997 . S
Fe89 O100 1.996 . S
Fe89 O104 1.976 . S
Fe89 O107 2.002 . S
O90 Fe88 1.918 . S
O90 Fe89 1.918 . S
O90 Fe91 1.918 . S
Fe91 O90 1.918 . S
Fe91 O92 2.002 . S
Fe91 O101 1.976 . S
Fe91 O105 1.996 . S
Fe91 O108 1.997 . S
O92 Fe91 2.002 . S
O92 C109 1.295 . S
O93 Fe88 1.997 . S
O93 C109 1.235 . S
O94 Fe88 2.002 . S
O94 C95 1.295 . S
C95 O94 1.295 . S
C95 O97 1.235 . S
C96 O101 1.287 . S
C96 O102 1.255 . S
O97 Fe89 1.997 . S
O97 C95 1.235 . S
C98 O104 1.287 . S
C98 O105 1.255 . S
O99 Fe88 1.976 . S
O99 C106 1.287 . S
O100 Fe89 1.996 . S
O100 C106 1.255 . S
O101 Fe91 1.976 . S
O101 C96 1.287 . S
O102 Fe88 1.996 . S
O102 C96 1.255 . S
C103 O107 1.295 . S
C103 O108 1.235 . S
O104 Fe89 1.976 . S
O104 C98 1.287 . S
O105 Fe91 1.996 . S
O105 C98 1.255 . S
C106 O99 1.287 . S
C106 O100 1.255 . S
O107 Fe89 2.002 . S
O107 C103 1.295 . S
O108 Fe91 1.997 . S
O108 C103 1.235 . S
C109 O92 1.295 . S
C109 O93 1.235 . S
Fe110 O112 1.918 . S
Fe110 O115 1.997 . S
Fe110 O116 2.002 . S
Fe110 O121 1.976 . S
Fe110 O124 1.996 . S
Fe111 O112 1.918 . S
Fe111 O119 1.997 . S
Fe111 O122 1.996 . S
Fe111 O126 1.976 . S
Fe111 O129 2.002 . S
O112 Fe110 1.918 . S
O112 Fe111 1.918 . S
O112 Fe113 1.918 . S
Fe113 O112 1.918 . S
Fe113 O114 2.002 . S
Fe113 O123 1.976 . S
Fe113 O127 1.996 . S
Fe113 O130 1.997 . S
O114 Fe113 2.002 . S
O114 C131 1.295 . S
O115 Fe110 1.997 . S
O115 C131 1.235 . S
O116 Fe110 2.002 . S
O116 C117 1.295 . S
C117 O116 1.295 . S
C117 O119 1.235 . S
C118 O123 1.287 . S
C118 O124 1.255 . S
O119 Fe111 1.997 . S
O119 C117 1.235 . S
C120 O126 1.287 . S
C120 O127 1.255 . S
O121 Fe110 1.976 . S
O121 C128 1.287 . S
O122 Fe111 1.996 . S
O122 C128 1.255 . S
O123 Fe113 1.976 . S
O123 C118 1.287 . S
O124 Fe110 1.996 . S
O124 C118 1.255 . S
C125 O129 1.295 . S
C125 O130 1.235 . S
O126 Fe111 1.976 . S
O126 C120 1.287 . S
O127 Fe113 1.996 . S
O127 C120 1.255 . S
C128 O121 1.287 . S
C128 O122 1.255 . S
O129 Fe111 2.002 . S
O129 C125 1.295 . S
O130 Fe113 1.997 . S
O130 C125 1.235 . S
C131 O114 1.295 . S
C131 O115 1.235 . S
C15 C103 1.442 . S
C40 C117 1.414 . S
C10 C54 1.389 . S
C81 C29 1.442 . S
C59 C98 1.414 . S
C76 C128 1.389 . S
C120 C8 1.481 1_556 S
C43 C7 1.552 1_655 S
C32 C51 1.517 1_546 S
C52 C74 1.481 . S
C73 C95 1.552 1_656 S
C131 C96 1.517 1_545 S
C62 C84 1.494 1_554 S
C87 C109 1.559 1_655 S
C106 C125 1.528 1_564 S
C118 C18 1.494 . S
C37 C21 1.559 1_656 S
C65 C30 1.528 1_565 S
