# Generated by pormake.
# Topology bnn, (5)-cn, num edge types: 1
# Building blocks:
#     Node 0, Type 0, BuildingBlock: XOMCOT_clean_sbu_0, # of connection points: 5
#     Node 1, Type 0, BuildingBlock: XOMCOT_clean_sbu_0, # of connection points: 5
#     Edge 2, Type (0, 0), BuildingBlock: EZIPEK_clean_linker_0, # of connection points: 2
#     Edge 3, Type (0, 0), BuildingBlock: EZIPEK_clean_linker_0, # of connection points: 2
#     Edge 4, Type (0, 0), BuildingBlock: EZIPEK_clean_linker_0, # of connection points: 2
#     Edge 5, Type (0, 0), BuildingBlock: EZIPEK_clean_linker_0, # of connection points: 2
#     Edge 6, Type (0, 0), BuildingBlock: EZIPEK_clean_linker_0, # of connection points: 2
# Relax obj value: 0.023
# Max RMSD: 0.077
# Mean RMSD: 0.077
data_MOF--net-bnn--node1-XOMCOT_clean_sbu_0--edge1-EZIPEK_clean_linker_0
_symmetry_space_group_name_H-M    P1
_symmetry_Int_Tables_number       1
_symmetry_cell_setting            triclinic
loop_
_symmetry_equiv_pos_as_xyz
'x, y, z'
_cell_length_a     22.807983
_cell_length_b     20.15301
_cell_length_c     13.569066
_cell_angle_alpha  98.729683
_cell_angle_beta   90.869191
_cell_angle_gamma 123.31453
loop_
_atom_site_label
_atom_site_type_symbol
_atom_site_fract_x
_atom_site_fract_y
_atom_site_fract_z
_atom_type_partial_charge
Co0 Co 0.32737 0.70465 0.0416 0.0
C1 C 0.33033 0.707 0.26401 0.0
C2 C 0.33493 0.80883 0.2257 0.0
C3 C 0.33608 0.81516 0.32822 0.0
N4 N 0.33275 0.74184 0.18503 0.0
N5 N 0.33302 0.75097 0.35142 0.0
H6 H 0.32518 0.65031 0.25963 0.0
H7 H 0.33398 0.84953 0.18373 0.0
C8 C 0.45905 0.87254 0.08897 0.0
O9 O 0.47568 0.85476 0.16966 0.0
N10 N 0.32147 0.66887 0.89966 0.0
C11 C 0.31376 0.59977 0.85381 0.0
C12 C 0.31432 0.5988 0.75209 0.0
C13 C 0.32644 0.70894 0.82593 0.0
N14 N 0.32232 0.66736 0.7355 0.0
C15 C 0.3683 0.60449 0.10172 0.0
C16 C 0.49554 0.67437 1.02244 0.0
C17 C 0.47133 0.60522 0.0635 0.0
C18 C 0.40757 0.57087 0.10478 0.0
C19 C 0.45507 0.70717 0.02272 0.0
N20 N 0.39277 0.67322 0.06395 0.0
H21 H 0.31595 0.57174 0.12413 0.0
H22 H 0.47147 0.75603 0.98305 0.0
H23 H 0.30808 0.55336 0.89161 0.0
H24 H 0.33317 0.7672 0.83802 0.0
O25 O 0.23934 0.60319 0.04665 0.0
O26 O 0.24818 0.71359 1.01772 0.0
O27 O 0.40513 0.81795 0.02708 0.0
C28 C 0.20806 0.63841 0.02751 0.0
H29 H 0.33721 0.86182 0.38136 0.0
H30 H 0.30921 0.55173 0.6947 0.0
H31 H 0.54363 0.70058 0.9868 0.0
H32 H 0.38632 0.51563 0.13372 0.0
Co33 Co 0.66388 0.36806 0.02321 0.0
C34 C 0.65864 0.37539 0.80609 0.0
C35 C 0.57793 0.25873 0.83458 0.0
C36 C 0.57269 0.25639 0.73265 0.0
N37 N 0.6324 0.33302 0.88047 0.0
N38 N 0.62335 0.32971 0.71557 0.0
H39 H 0.70285 0.43772 0.81678 0.0
H40 H 0.54443 0.20931 0.87231 0.0
C41 C 0.63657 0.21708 0.09496 0.0
O42 O 0.68149 0.25913 0.17645 0.0
N43 N 0.69466 0.40401 0.16652 0.0
C44 C 0.75887 0.46691 0.21158 0.0
C45 C 0.75919 0.47324 0.31406 0.0
C46 C 0.65595 0.37491 0.24248 0.0
N47 N 0.69483 0.41478 0.3329 0.0
C48 C 0.80209 0.47484 0.97068 0.0
C49 C 0.85899 0.38973 1.01031 0.0
C50 C 0.90324 0.46722 0.98914 0.0
C51 C 0.87378 0.50865 0.96533 0.0
C52 C 0.78683 0.3569 1.01175 0.0
N53 N 0.75947 0.40077 0.99663 0.0
H54 H 0.7821 0.51082 0.95851 0.0
H55 H 0.75462 0.29747 0.0279 0.0
H56 H 0.80286 0.50559 0.17327 0.0
H57 H 0.60161 0.32326 0.2318 0.0
O58 O 0.67337 0.46922 1.02092 0.0
O59 O 0.57553 0.35735 0.0462 0.0
O60 O 0.63072 0.25213 0.0279 0.0
C61 C 0.60782 0.43278 0.03763 0.0
H62 H 0.53555 0.20476 0.67529 0.0
H63 H 0.80377 0.51554 0.37043 0.0
H64 H 0.88034 0.3558 0.02789 0.0
H65 H 0.90678 0.56876 0.94849 0.0
C66 C 0.5658 0.58895 0.1268 0.0
C67 C 0.50834 0.56323 0.0545 0.0
C68 C 0.51762 0.45351 0.96879 0.0
C69 C 0.57187 0.47579 0.0451 0.0
N70 N 0.64215 0.55731 0.20337 0.0
N71 N 0.425 0.46843 0.91104 0.0
C72 C 0.59479 0.54183 0.12571 0.0
C73 C 0.48292 0.49466 0.97672 0.0
N74 N 0.59302 0.65893 0.19583 0.0
N75 N 0.50146 0.3954 0.88649 0.0
H76 H 0.40107 0.50001 0.9097 0.0
H77 H 0.39805 0.41319 0.86111 0.0
H78 H 0.52489 0.36308 0.8785 0.0
H79 H 0.46852 0.38274 0.82265 0.0
H80 H 0.63975 0.68618 0.2434 0.0
H81 H 0.57144 0.69331 0.20115 0.0
H82 H 0.65528 0.59848 0.26981 0.0
H83 H 0.66453 0.52421 0.20513 0.0
C84 C 1.01382 0.48838 0.9244 0.0
C85 C 0.98115 0.50853 1.00035 0.0
C86 C 0.09706 0.61191 0.09576 0.0
C87 C 0.12997 0.59451 1.01752 0.0
N88 N 0.12188 0.52392 0.8525 0.0
N89 N 0.98929 0.58984 0.15675 0.0
C90 C 0.0889 0.53437 0.93076 0.0
C91 C 1.02221 0.57054 0.08562 0.0
N92 N 0.97289 0.42495 0.84648 0.0
N93 N 0.13748 0.66608 0.18136 0.0
H94 H 0.93463 0.55619 0.15719 0.0
H95 H 1.01529 0.64082 0.21375 0.0
H96 H 0.19233 0.69831 0.19052 0.0
H97 H 0.11736 0.67643 0.24578 0.0
H98 H 0.99262 0.40061 0.79484 0.0
H99 H 0.91789 0.39293 0.83625 0.0
H100 H 0.09584 0.48781 0.78256 0.0
H101 H 0.17658 0.55632 0.85481 0.0
C102 C 0.47189 1.00163 0.06293 0.0
C103 C 0.50297 0.95746 0.07177 0.0
C104 C 0.62171 0.08246 0.0859 0.0
C105 C 0.59085 0.12716 0.08117 0.0
N106 N 0.4869 0.12949 0.05561 0.0
N107 N 0.60516 0.95111 0.06586 0.0
C108 C 0.51608 0.08659 0.06579 0.0
C109 C 0.57733 0.99673 0.07611 0.0
N110 N 0.40017 0.9636 0.05789 0.0
N111 N 0.69363 0.12202 0.10022 0.0
H112 H 0.57402 0.88817 0.05549 0.0
H113 H 0.65796 0.97406 0.05814 0.0
H114 H 0.72822 0.18297 0.09725 0.0
H115 H 0.71954 0.09552 0.11894 0.0
H116 H 0.37486 0.99359 0.06988 0.0
H117 H 0.36465 0.90123 0.04369 0.0
H118 H 0.43462 0.10316 0.02699 0.0
H119 H 0.51513 0.19235 0.07265 0.0
C120 C 0.391 0.73185 0.60075 0.0
C121 C 0.32546 0.69086 0.64001 0.0
C122 C 0.26572 0.69404 0.49116 0.0
C123 C 0.33062 0.73151 0.44955 0.0
N124 N 0.45405 0.78309 0.45837 0.0
N125 N 0.20002 0.62758 0.62435 0.0
C126 C 0.39314 0.74963 0.50277 0.0
C127 C 0.26263 0.67077 0.58573 0.0
N128 N 0.45098 0.75475 0.65875 0.0
N129 N 0.20747 0.68145 0.43975 0.0
H130 H 0.19711 0.61155 0.69452 0.0
H131 H 0.15077 0.60428 0.58607 0.0
H132 H 0.20821 0.6953 0.36876 0.0
H133 H 0.15952 0.66095 0.46824 0.0
H134 H 0.50178 0.79026 0.63919 0.0
H135 H 0.45008 0.74134 0.73026 0.0
H136 H 0.5006 0.79186 0.48815 0.0
H137 H 0.45721 0.79944 0.38831 0.0
C138 C 0.62853 0.40722 0.47788 0.0
C139 C 0.67559 0.39212 0.42887 0.0
C140 C 0.69113 0.34038 0.57256 0.0
C141 C 0.64131 0.35153 0.61913 0.0
N142 N 0.55718 0.38754 0.61595 0.0
N143 N 0.74451 0.3347 0.42101 0.0
C144 C 0.60833 0.38264 0.5715 0.0
C145 C 0.70513 0.35621 0.4741 0.0
N146 N 0.60533 0.44747 0.4359 0.0
N147 N 0.72571 0.3158 0.62377 0.0
H148 H 0.75601 0.34588 0.34898 0.0
H149 H 0.76162 0.30071 0.44479 0.0
H150 H 0.71462 0.30117 0.69468 0.0
H151 H 0.76826 0.3147 0.5994 0.0
H152 H 0.5758 0.46709 0.47103 0.0
H153 H 0.6196 0.46584 0.36742 0.0
H154 H 0.52603 0.40274 0.58207 0.0
H155 H 0.54321 0.3717 0.6857 0.0
loop_
_geom_bond_atom_site_label_1
_geom_bond_atom_site_label_2
_geom_bond_distance
_geom_bond_site_symmetry_2
_ccdc_geom_bond_type
Co0 N4 2.148 . S
Co0 N10 2.128 1_554 S
Co0 N20 2.194 . S
Co0 O25 2.351 . S
Co0 O26 2.155 . S
Co0 O27 2.096 . S
C1 N4 1.301 . S
C1 N5 1.328 . S
C1 H6 0.930 . S
C2 C3 1.333 . S
C2 N4 1.317 . S
C2 H7 0.930 . S
C3 C2 1.333 . S
C3 N5 1.350 . S
C3 H29 0.931 . S
N4 Co0 2.148 . S
N4 C1 1.301 . S
N4 C2 1.317 . S
N5 C1 1.328 . S
N5 C3 1.350 . S
H6 C1 0.930 . S
H7 C2 0.930 . S
C8 O9 1.224 . S
C8 O27 1.247 . S
O9 C8 1.224 . S
N10 Co0 2.128 1_556 S
N10 C11 1.355 . S
N10 C13 1.311 . S
C11 N10 1.355 . S
C11 C12 1.363 . S
C11 H23 0.929 . S
C12 C11 1.363 . S
C12 N14 1.375 . S
C12 H30 0.931 . S
C13 N10 1.311 . S
C13 N14 1.347 . S
C13 H24 0.929 . S
N14 C12 1.375 . S
N14 C13 1.347 . S
C15 C18 1.365 . S
C15 N20 1.328 . S
C15 H21 0.929 . S
C16 C17 1.362 . S
C16 C19 1.378 . S
C16 H31 0.929 . S
C17 C16 1.362 . S
C17 C18 1.366 . S
C18 C15 1.365 . S
C18 C17 1.366 . S
C18 H32 0.930 . S
C19 C16 1.378 . S
C19 N20 1.315 . S
C19 H22 0.930 . S
N20 Co0 2.194 . S
N20 C15 1.328 . S
N20 C19 1.315 . S
H21 C15 0.929 . S
H22 C19 0.930 . S
H23 C11 0.929 . S
H24 C13 0.929 . S
O25 Co0 2.351 . S
O25 C28 1.244 . S
O26 Co0 2.155 . S
O26 C28 1.240 . S
O27 Co0 2.096 . S
O27 C8 1.247 . S
C28 O25 1.244 . S
C28 O26 1.240 . S
H29 C3 0.931 . S
H30 C12 0.931 . S
H31 C16 0.929 . S
H32 C18 0.930 . S
Co33 N37 2.148 1_554 S
Co33 N43 2.128 . S
Co33 N53 2.194 . S
Co33 O58 2.351 . S
Co33 O59 2.155 . S
Co33 O60 2.096 . S
C34 N37 1.301 . S
C34 N38 1.328 . S
C34 H39 0.930 . S
C35 C36 1.333 . S
C35 N37 1.317 . S
C35 H40 0.930 . S
C36 C35 1.333 . S
C36 N38 1.350 . S
C36 H62 0.931 . S
N37 Co33 2.148 1_556 S
N37 C34 1.301 . S
N37 C35 1.317 . S
N38 C34 1.328 . S
N38 C36 1.350 . S
H39 C34 0.930 . S
H40 C35 0.930 . S
C41 O42 1.224 . S
C41 O60 1.247 . S
O42 C41 1.224 . S
N43 Co33 2.128 . S
N43 C44 1.355 . S
N43 C46 1.311 . S
C44 N43 1.355 . S
C44 C45 1.363 . S
C44 H56 0.929 . S
C45 C44 1.363 . S
C45 N47 1.375 . S
C45 H63 0.931 . S
C46 N43 1.311 . S
C46 N47 1.347 . S
C46 H57 0.929 . S
N47 C45 1.375 . S
N47 C46 1.347 . S
C48 C51 1.365 1_556 S
C48 N53 1.328 1_556 S
C48 H54 0.929 . S
C49 C50 1.362 . S
C49 C52 1.378 . S
C49 H64 0.929 . S
C50 C49 1.362 . S
C50 C51 1.366 . S
C51 C48 1.365 1_554 S
C51 C50 1.366 . S
C51 H65 0.930 . S
C52 C49 1.378 . S
C52 N53 1.315 . S
C52 H55 0.930 . S
N53 Co33 2.194 . S
N53 C48 1.328 1_554 S
N53 C52 1.315 . S
H54 C48 0.929 . S
H55 C52 0.930 . S
H56 C44 0.929 . S
H57 C46 0.929 . S
O58 Co33 2.351 . S
O58 C61 1.244 . S
O59 Co33 2.155 . S
O59 C61 1.240 . S
O60 Co33 2.096 . S
O60 C41 1.247 . S
C61 O58 1.244 . S
C61 O59 1.240 . S
H62 C36 0.931 . S
H63 C45 0.931 . S
H64 C49 0.929 . S
H65 C51 0.930 . S
C66 C67 1.363 . S
C66 C72 1.379 . S
C66 N74 1.356 . S
C67 C66 1.363 . S
C67 C73 1.363 1_554 S
C68 C69 1.363 1_556 S
C68 C73 1.379 . S
C68 N75 1.356 . S
C69 C68 1.363 1_554 S
C69 C72 1.363 . S
N70 C72 1.356 . S
N70 H82 0.984 . S
N70 H83 0.985 . S
N71 C73 1.356 . S
N71 H76 0.984 . S
N71 H77 0.985 . S
C72 C66 1.379 . S
C72 C69 1.363 . S
C72 N70 1.356 . S
C73 C67 1.363 1_556 S
C73 C68 1.379 . S
C73 N71 1.356 . S
N74 C66 1.356 . S
N74 H80 0.984 . S
N74 H81 0.984 . S
N75 C68 1.356 . S
N75 H78 0.984 . S
N75 H79 0.985 . S
H76 N71 0.984 . S
H77 N71 0.985 . S
H78 N75 0.984 . S
H79 N75 0.985 . S
H80 N74 0.984 . S
H81 N74 0.984 . S
H82 N70 0.984 . S
H83 N70 0.985 . S
C84 C85 1.363 1_556 S
C84 C90 1.379 1_655 S
C84 N92 1.356 . S
C85 C84 1.363 1_554 S
C85 C91 1.363 1_655 S
C86 C87 1.363 . S
C86 C91 1.379 . S
C86 N93 1.356 . S
C87 C86 1.363 . S
C87 C90 1.363 1_554 S
N88 C90 1.356 . S
N88 H100 0.984 . S
N88 H101 0.985 . S
N89 C91 1.356 1_655 S
N89 H94 0.984 . S
N89 H95 0.985 . S
C90 C84 1.379 1_455 S
C90 C87 1.363 1_556 S
C90 N88 1.356 . S
C91 C85 1.363 1_455 S
C91 C86 1.379 . S
C91 N89 1.356 1_455 S
N92 C84 1.356 . S
N92 H98 0.984 . S
N92 H99 0.984 . S
N93 C86 1.356 . S
N93 H96 0.984 . S
N93 H97 0.985 . S
H94 N89 0.984 . S
H95 N89 0.985 . S
H96 N93 0.984 . S
H97 N93 0.985 . S
H98 N92 0.984 . S
H99 N92 0.984 . S
H100 N88 0.984 . S
H101 N88 0.985 . S
C102 C103 1.363 . S
C102 C108 1.379 1_565 S
C102 N110 1.356 . S
C103 C102 1.363 . S
C103 C109 1.363 1_554 S
C104 C105 1.363 1_556 S
C104 C109 1.379 1_545 S
C104 N111 1.356 . S
C105 C104 1.363 1_554 S
C105 C108 1.363 . S
N106 C108 1.356 . S
N106 H118 0.984 . S
N106 H119 0.985 . S
N107 C109 1.356 . S
N107 H112 0.984 . S
N107 H113 0.985 . S
C108 C102 1.379 1_545 S
C108 C105 1.363 . S
C108 N106 1.356 . S
C109 C103 1.363 1_556 S
C109 C104 1.379 1_565 S
C109 N107 1.356 . S
N110 C102 1.356 . S
N110 H116 0.984 . S
N110 H117 0.984 . S
N111 C104 1.356 . S
N111 H114 0.984 . S
N111 H115 0.985 . S
H112 N107 0.984 . S
H113 N107 0.985 . S
H114 N111 0.984 . S
H115 N111 0.985 . S
H116 N110 0.984 . S
H117 N110 0.984 . S
H118 N106 0.984 . S
H119 N106 0.985 . S
C120 C121 1.363 . S
C120 C126 1.379 . S
C120 N128 1.356 . S
C121 C120 1.363 . S
C121 C127 1.363 . S
C122 C123 1.363 . S
C122 C127 1.379 . S
C122 N129 1.356 . S
C123 C122 1.363 . S
C123 C126 1.363 . S
N124 C126 1.356 . S
N124 H136 0.984 . S
N124 H137 0.985 . S
N125 C127 1.356 . S
N125 H130 0.984 . S
N125 H131 0.985 . S
C126 C120 1.379 . S
C126 C123 1.363 . S
C126 N124 1.356 . S
C127 C121 1.363 . S
C127 C122 1.379 . S
C127 N125 1.356 . S
N128 C120 1.356 . S
N128 H134 0.984 . S
N128 H135 0.984 . S
N129 C122 1.356 . S
N129 H132 0.984 . S
N129 H133 0.985 . S
H130 N125 0.984 . S
H131 N125 0.985 . S
H132 N129 0.984 . S
H133 N129 0.985 . S
H134 N128 0.984 . S
H135 N128 0.984 . S
H136 N124 0.984 . S
H137 N124 0.985 . S
C138 C139 1.363 . S
C138 C144 1.379 . S
C138 N146 1.356 . S
C139 C138 1.363 . S
C139 C145 1.363 . S
C140 C141 1.363 . S
C140 C145 1.379 . S
C140 N147 1.356 . S
C141 C140 1.363 . S
C141 C144 1.363 . S
N142 C144 1.356 . S
N142 H154 0.984 . S
N142 H155 0.985 . S
N143 C145 1.356 . S
N143 H148 0.984 . S
N143 H149 0.985 . S
C144 C138 1.379 . S
C144 C141 1.363 . S
C144 N142 1.356 . S
C145 C139 1.363 . S
C145 C140 1.379 . S
C145 N143 1.356 . S
N146 C138 1.356 . S
N146 H152 0.984 . S
N146 H153 0.984 . S
N147 C140 1.356 . S
N147 H150 0.984 . S
N147 H151 0.985 . S
H148 N143 0.984 . S
H149 N143 0.985 . S
H150 N147 0.984 . S
H151 N147 0.985 . S
H152 N146 0.984 . S
H153 N146 0.984 . S
H154 N142 0.984 . S
H155 N142 0.985 . S
C67 C17 1.499 . S
C69 C61 1.501 . S
C85 C50 1.499 . S
C87 C28 1.501 . S
C103 C8 1.501 . S
C105 C41 1.501 . S
C121 N14 1.477 . S
C123 N5 1.481 . S
C139 N47 1.477 . S
C141 N38 1.481 . S
