# Generated by pormake.
# Topology pcu, (6)-cn, num edge types: 1
# Building blocks:
#     Node 0, Type 0, BuildingBlock: GEDQOX_clean_sbu_0, # of connection points: 6
#     Edge 1, Type (0, 0), BuildingBlock: KIFKEQ_clean_linker_1, # of connection points: 2
#     Edge 2, Type (0, 0), BuildingBlock: KIFKEQ_clean_linker_1, # of connection points: 2
#     Edge 3, Type (0, 0), BuildingBlock: KIFKEQ_clean_linker_1, # of connection points: 2
# Relax obj value: 0.000
# Max RMSD: 0.000
# Mean RMSD: 0.000
data_MOF--net-pcu--node1-GEDQOX_clean_sbu_0--edge1-KIFKEQ_clean_linker_1
_symmetry_space_group_name_H-M    P1
_symmetry_Int_Tables_number       1
_symmetry_cell_setting            triclinic
loop_
_symmetry_equiv_pos_as_xyz
'x, y, z'
_cell_length_a     15.825648
_cell_length_b     25.415302
_cell_length_c     14.714374
_cell_angle_alpha  82.198748
_cell_angle_beta   95.349597
_cell_angle_gamma 124.71097
loop_
_atom_site_label
_atom_site_type_symbol
_atom_site_fract_x
_atom_site_fract_y
_atom_site_fract_z
_atom_type_partial_charge
Nd0 Nd 0.0843 0.09605 0.03026 0.0
Nd1 Nd 0.94984 0.95381 1.00724 0.0
C2 C 0.16549 0.21297 0.07834 0.0
C3 C 0.14071 0.2614 0.06698 0.0
C4 C 0.17521 0.30462 0.13322 0.0
C5 C 0.15316 0.35121 0.12353 0.0
C6 C 0.09622 0.35572 0.04704 0.0
C7 C 0.06096 0.3117 0.9811 0.0
C8 C 0.08268 0.26489 0.99114 0.0
C9 C 0.06055 0.06777 0.8522 0.0
C10 C 0.83185 1.02194 1.00678 0.0
C11 C 0.86836 0.8369 0.95845 0.0
C12 C 0.89534 0.78975 0.96493 0.0
C13 C 0.82466 0.72914 0.93411 0.0
C14 C 0.84774 0.6831 0.94175 0.0
C15 C 0.94222 0.69679 0.98042 0.0
C16 C 1.01341 0.75807 1.01047 0.0
C17 C 0.99006 0.80407 1.00297 0.0
C18 C 0.97391 0.98166 0.18587 0.0
C19 C 0.20149 0.02799 0.02963 0.0
O20 O 0.10511 0.16032 0.13127 0.0
O21 O 0.19084 0.20201 1.00447 0.0
O22 O 0.14651 0.11318 0.88665 0.0
O23 O 0.98951 0.04064 0.90981 0.0
O24 O 0.91989 0.07074 0.03708 0.0
O25 O 0.82487 0.97271 0.97768 0.0
O26 O 0.92381 0.88964 0.90394 0.0
O27 O 0.84884 0.8476 0.03569 0.0
O28 O 0.8889 0.93517 0.1519 0.0
O29 O 0.04458 1.00938 0.12782 0.0
O30 O 0.11459 0.9812 0.99467 0.0
O31 O 0.20681 0.07505 0.06432 0.0
H32 H 0.21928 0.30232 0.19269 0.0
H33 H 0.1799 0.38327 0.17665 0.0
H34 H 0.01789 0.31396 0.92085 0.0
H35 H 0.05464 0.23168 0.93941 0.0
H36 H 0.75127 0.7173 0.90434 0.0
H37 H 0.79177 0.63688 0.91664 0.0
H38 H 0.08639 0.77008 0.04144 0.0
H39 H 0.0455 0.85055 0.02758 0.0
H40 H 0.84279 0.90651 0.32535 0.0
H41 H 0.13689 0.08468 0.26646 0.0
H42 H 0.86428 0.92523 0.48605 0.0
H43 H 0.15614 0.10622 0.42631 0.0
H44 H 0.20979 0.1019 0.73413 0.0
H45 H 0.19009 0.07981 0.57492 0.0
H46 H 0.86089 0.98289 0.59168 0.0
H47 H 0.88123 1.00182 0.75281 0.0
C48 C 0.91175 0.95017 0.3468 0.0
C49 C 0.98814 0.99418 0.28334 0.0
C50 C 0.92379 0.96133 0.43911 0.0
C51 C 1.01179 1.01755 0.47029 0.0
C52 C 0.08805 0.06178 0.40605 0.0
C53 C 0.07679 0.04987 0.31393 0.0
C54 C 0.13324 0.07564 0.7036 0.0
C55 C 0.04705 0.05361 0.75568 0.0
C56 C 0.12181 0.06339 0.61182 0.0
C57 C 0.02383 0.02977 0.56907 0.0
C58 C 0.93754 1.00786 0.62187 0.0
C59 C 0.94899 1.01906 0.71429 0.0
H60 H 0.22669 0.95419 0.9325 0.0
H61 H 0.38545 0.09994 0.12162 0.0
H62 H 0.37858 0.95371 0.92466 0.0
H63 H 0.53693 0.09752 0.11703 0.0
H64 H 0.82448 0.12558 0.01704 0.0
H65 H 0.67291 0.1273 0.02217 0.0
H66 H 0.47868 0.92161 1.00733 0.0
H67 H 0.63058 0.92059 0.99811 0.0
C68 C 0.29382 0.98572 0.97331 0.0
C69 C 0.29401 0.02719 0.02772 0.0
C70 C 0.38098 0.98514 0.96923 0.0
C71 C 0.47034 0.02542 0.02036 0.0
C72 C 0.47018 0.06658 0.07547 0.0
C73 C 0.38314 0.06773 0.07866 0.0
C74 C 0.74933 0.08076 1.01445 0.0
C75 C 0.7394 1.02293 1.0069 0.0
C76 C 0.66229 0.08165 0.01818 0.0
C77 C 0.56318 1.02457 1.01564 0.0
C78 C 0.55355 0.96673 1.00793 0.0
C79 C 0.64066 0.96601 1.00294 0.0
H80 H 0.81287 0.56775 0.03339 0.0
H81 H 0.12463 0.71307 0.94961 0.0
H82 H 0.85021 0.48628 0.0488 0.0
H83 H 0.16194 0.63144 0.96421 0.0
H84 H 0.22261 0.48084 0.08895 0.0
H85 H 0.1853 0.56224 0.07473 0.0
H86 H 0.88436 0.4278 0.96154 0.0
H87 H 0.91958 0.3453 0.98034 0.0
C88 C 0.88919 0.58226 0.01733 0.0
C89 C 0.96564 0.64707 0.99005 0.0
C90 C 0.91064 0.53543 0.02607 0.0
C91 C 1.00911 0.55201 1.00757 0.0
C92 C 0.08566 0.6169 0.98042 0.0
C93 C 0.06426 0.6638 0.97194 0.0
C94 C 0.14793 0.46826 0.06207 0.0
C95 C 0.07406 0.40614 0.0362 0.0
C96 C 0.12702 0.51538 0.05269 0.0
C97 C 0.03176 0.50186 0.01686 0.0
C98 C 0.9581 0.43987 0.99048 0.0
C99 C 0.97888 0.39267 1.00014 0.0
loop_
_geom_bond_atom_site_label_1
_geom_bond_atom_site_label_2
_geom_bond_distance
_geom_bond_site_symmetry_2
_ccdc_geom_bond_type
Nd0 C2 2.836 . S
Nd0 O20 2.500 1_556 S
Nd0 O21 2.492 . S
Nd0 O22 2.487 . S
Nd0 O23 2.682 1_445 S
Nd0 O24 2.410 1_455 S
Nd0 O29 2.414 1_556 S
Nd0 O31 2.424 . S
Nd1 C11 2.836 . S
Nd1 O23 2.414 1_554 S
Nd1 O25 2.424 . S
Nd1 O26 2.500 1_554 S
Nd1 O27 2.492 . S
Nd1 O28 2.487 . S
Nd1 O29 2.682 1_665 S
Nd1 O30 2.410 1_655 S
C2 Nd0 2.836 . S
C2 C3 1.498 . S
C2 O20 1.258 1_556 S
C2 O21 1.239 . S
C3 C2 1.498 . S
C3 C4 1.366 1_456 S
C3 C8 1.407 . S
C4 C3 1.366 1_654 S
C4 C5 1.392 . S
C4 H32 0.930 . S
C5 C4 1.392 . S
C5 C6 1.398 1_654 S
C5 H33 0.929 . S
C6 C5 1.398 1_456 S
C6 C7 1.352 . S
C7 C6 1.352 . S
C7 C8 1.384 . S
C7 H34 0.930 . S
C8 C3 1.407 . S
C8 C7 1.384 . S
C8 H35 0.929 . S
C9 O22 1.241 . S
C9 O23 1.273 1_445 S
C10 O24 1.251 1_565 S
C10 O25 1.268 1_556 S
C11 Nd1 2.836 . S
C11 C12 1.498 . S
C11 O26 1.258 1_554 S
C11 O27 1.239 . S
C12 C11 1.498 . S
C12 C13 1.366 1_654 S
C12 C17 1.407 . S
C13 C12 1.366 1_456 S
C13 C14 1.392 . S
C13 H36 0.930 . S
C14 C13 1.392 . S
C14 C15 1.398 1_456 S
C14 H37 0.929 . S
C15 C14 1.398 1_654 S
C15 C16 1.352 . S
C16 C15 1.352 . S
C16 C17 1.384 . S
C16 H38 0.930 . S
C17 C12 1.407 . S
C17 C16 1.384 . S
C17 H39 0.929 . S
C18 O28 1.241 . S
C18 O29 1.273 1_665 S
C19 O30 1.251 1_545 S
C19 O31 1.268 1_554 S
O20 Nd0 2.500 1_554 S
O20 C2 1.258 1_554 S
O21 Nd0 2.492 . S
O21 C2 1.239 . S
O22 Nd0 2.487 . S
O22 C9 1.241 . S
O23 Nd0 2.682 1_665 S
O23 Nd1 2.414 1_556 S
O23 C9 1.273 1_665 S
O24 Nd0 2.410 1_655 S
O24 C10 1.251 1_545 S
O25 Nd1 2.424 . S
O25 C10 1.268 1_554 S
O26 Nd1 2.500 1_556 S
O26 C11 1.258 1_556 S
O27 Nd1 2.492 . S
O27 C11 1.239 . S
O28 Nd1 2.487 . S
O28 C18 1.241 . S
O29 Nd0 2.414 1_554 S
O29 Nd1 2.682 1_445 S
O29 C18 1.273 1_445 S
O30 Nd1 2.410 1_455 S
O30 C19 1.251 1_565 S
O31 Nd0 2.424 . S
O31 C19 1.268 1_556 S
H32 C4 0.930 . S
H33 C5 0.929 . S
H34 C7 0.930 . S
H35 C8 0.929 . S
H36 C13 0.930 . S
H37 C14 0.929 . S
H38 C16 0.930 . S
H39 C17 0.929 . S
H40 C48 0.950 . S
H41 C53 0.950 . S
H42 C50 0.950 . S
H43 C52 0.950 . S
H44 C54 0.950 . S
H45 C56 0.950 . S
H46 C58 0.950 . S
H47 C59 0.950 . S
C48 H40 0.950 . S
C48 C49 1.386 1_665 S
C48 C50 1.391 . S
C49 C48 1.386 1_445 S
C49 C53 1.393 . S
C50 H42 0.950 . S
C50 C48 1.391 . S
C50 C51 1.385 1_665 S
C51 C50 1.385 1_445 S
C51 C52 1.412 . S
C51 C57 1.494 1_445 S
C52 H43 0.950 . S
C52 C51 1.412 . S
C52 C53 1.391 . S
C53 H41 0.950 . S
C53 C49 1.393 . S
C53 C52 1.391 . S
C54 H44 0.950 . S
C54 C55 1.386 1_445 S
C54 C56 1.391 . S
C55 C54 1.386 1_665 S
C55 C59 1.393 . S
C56 H45 0.950 . S
C56 C54 1.391 . S
C56 C57 1.390 1_445 S
C57 C51 1.494 1_665 S
C57 C56 1.390 1_665 S
C57 C58 1.407 . S
C58 H46 0.950 . S
C58 C57 1.407 . S
C58 C59 1.391 . S
C59 H47 0.950 . S
C59 C55 1.393 . S
C59 C58 1.391 . S
H60 C68 0.950 . S
H61 C73 0.950 . S
H62 C70 0.950 . S
H63 C72 0.950 . S
H64 C74 0.950 . S
H65 C76 0.950 . S
H66 C78 0.950 . S
H67 C79 0.950 . S
C68 H60 0.950 . S
C68 C69 1.386 1_565 S
C68 C70 1.391 . S
C69 C68 1.386 1_545 S
C69 C73 1.393 1_556 S
C70 H62 0.950 . S
C70 C68 1.391 . S
C70 C71 1.396 1_565 S
C71 C70 1.396 1_545 S
C71 C72 1.412 1_556 S
C71 C77 1.477 1_546 S
C72 H63 0.950 . S
C72 C71 1.412 1_554 S
C72 C73 1.391 . S
C73 H61 0.950 . S
C73 C69 1.393 1_554 S
C73 C72 1.391 . S
C74 H64 0.950 . S
C74 C75 1.364 1_545 S
C74 C76 1.391 . S
C75 C74 1.364 1_565 S
C75 C79 1.401 1_554 S
C76 H65 0.950 . S
C76 C74 1.391 . S
C76 C77 1.397 1_545 S
C77 C71 1.477 1_564 S
C77 C76 1.397 1_565 S
C77 C78 1.406 1_554 S
C78 H66 0.950 . S
C78 C77 1.406 1_556 S
C78 C79 1.391 . S
C79 H67 0.950 . S
C79 C75 1.401 1_556 S
C79 C78 1.391 . S
H80 C88 0.950 . S
H81 C93 0.950 . S
H82 C90 0.950 . S
H83 C92 0.950 . S
H84 C94 0.950 . S
H85 C96 0.950 . S
H86 C98 0.950 . S
H87 C99 0.950 . S
C88 H80 0.950 . S
C88 C89 1.386 1_655 S
C88 C90 1.391 . S
C89 C88 1.386 1_455 S
C89 C93 1.393 1_556 S
C90 H82 0.950 . S
C90 C88 1.391 . S
C90 C91 1.400 1_655 S
C91 C90 1.400 1_455 S
C91 C92 1.398 1_556 S
C91 C97 1.497 1_456 S
C92 H83 0.950 . S
C92 C91 1.398 1_554 S
C92 C93 1.391 . S
C93 H81 0.950 . S
C93 C89 1.393 1_554 S
C93 C92 1.391 . S
C94 H84 0.950 . S
C94 C95 1.386 1_455 S
C94 C96 1.391 . S
C95 C94 1.386 1_655 S
C95 C99 1.393 1_554 S
C96 H85 0.950 . S
C96 C94 1.391 . S
C96 C97 1.389 1_455 S
C97 C91 1.497 1_654 S
C97 C96 1.389 1_655 S
C97 C98 1.402 1_554 S
C98 H86 0.950 . S
C98 C97 1.402 1_556 S
C98 C99 1.391 . S
C99 H87 0.950 . S
C99 C95 1.393 1_556 S
C99 C98 1.391 . S
C49 C18 1.457 1_445 S
C55 C9 1.457 1_665 S
C69 C19 1.494 1_556 S
C75 C10 1.508 1_554 S
C89 C15 1.499 1_456 S
C95 C6 1.499 1_654 S
