# Generated by pormake.
# Topology pcu, (6)-cn, num edge types: 1
# Building blocks:
#     Node 0, Type 0, BuildingBlock: FUNLAD_clean_sbu_0, # of connection points: 6
#     Edge 1, Type (0, 0), BuildingBlock: EZIPEK_clean_linker_0, # of connection points: 2
#     Edge 2, Type (0, 0), BuildingBlock: EZIPEK_clean_linker_0, # of connection points: 2
#     Edge 3, Type (0, 0), BuildingBlock: EZIPEK_clean_linker_0, # of connection points: 2
# Relax obj value: 0.000
# Max RMSD: 0.000
# Mean RMSD: 0.000
data_MOF--net-pcu--node1-FUNLAD_clean_sbu_0--edge1-EZIPEK_clean_linker_0
_symmetry_space_group_name_H-M    P1
_symmetry_Int_Tables_number       1
_symmetry_cell_setting            triclinic
loop_
_symmetry_equiv_pos_as_xyz
'x, y, z'
_cell_length_a     11.319685
_cell_length_b     11.283709
_cell_length_c     17.625265
_cell_angle_alpha  90.712907
_cell_angle_beta   93.390769
_cell_angle_gamma 95.385105
loop_
_atom_site_label
_atom_site_type_symbol
_atom_site_fract_x
_atom_site_fract_y
_atom_site_fract_z
_atom_type_partial_charge
C0 C 0.22967 -0.00539 0.02255 0.0
N1 N 0.97441 0.97862 0.83981 0.0
C2 C 0.0458 0.90767 0.80431 0.0
C3 C 0.04809 0.9066 0.72521 0.0
C4 C 0.97609 0.97906 0.68275 0.0
C5 C 0.90207 0.0501 0.72027 0.0
C6 C 0.90263 0.04857 0.79949 0.0
Zn7 Zn 0.98009 -0.01525 0.95585 0.0
C8 C 0.97708 0.73999 0.02196 0.0
N9 N -0.00495 -0.009 0.19857 0.0
C10 C 0.06684 0.92105 0.23889 0.0
C11 C 0.92365 0.06194 0.23407 0.0
C12 C 0.92136 0.06301 0.31317 0.0
C13 C -0.00663 -0.00945 0.35563 0.0
C14 C 0.06739 0.91952 0.31811 0.0
Zn15 Zn -0.01063 -0.01514 0.08253 0.0
O16 O 0.16826 -0.00528 0.95981 0.0
C17 C -0.00762 0.22962 1.01643 0.0
O18 O 0.17752 -0.00876 0.08451 0.0
H19 H 0.86726 0.11669 0.20096 0.0
H20 H 0.10219 0.85291 0.83743 0.0
H21 H 0.12264 0.86517 0.20954 0.0
O22 O -0.0121 0.17166 0.95405 0.0
O23 O -0.00309 0.17488 0.07905 0.0
H24 H 0.84682 0.10445 0.82884 0.0
O25 O 0.8012 0.97489 0.07857 0.0
O26 O 0.79194 0.97837 0.95388 0.0
O27 O 0.98156 0.79796 0.08434 0.0
O28 O 0.97254 0.79473 0.95933 0.0
C29 C 0.73979 0.975 1.01583 0.0
H30 H 0.1061 0.85092 0.69743 0.0
H31 H 0.84567 0.10691 0.68862 0.0
H32 H 0.86335 0.11868 0.34095 0.0
H33 H 0.1238 0.86271 0.34976 0.0
C34 C 0.90814 0.90237 0.47263 0.0
C35 C -0.01051 -0.01276 0.43953 0.0
C36 C 0.06132 0.06723 0.56575 0.0
C37 C 0.97997 0.98237 0.59886 0.0
N38 N 0.83428 0.81229 0.58742 0.0
N39 N 0.13517 0.15733 0.45096 0.0
C40 C 0.90527 0.89818 0.5532 0.0
C41 C 0.06418 0.07143 0.48518 0.0
N42 N 0.83113 0.82869 0.42653 0.0
N43 N 0.13834 0.14091 0.61185 0.0
H44 H 0.14224 0.16056 0.39227 0.0
H45 H 0.18299 0.22928 0.47951 0.0
H46 H 0.13671 0.14224 0.67096 0.0
H47 H 0.2082 0.19685 0.59273 0.0
H48 H 0.76128 0.77274 0.44565 0.0
H49 H 0.83277 0.82736 0.36742 0.0
H50 H 0.78644 0.74035 0.55887 0.0
H51 H 0.8272 0.80906 0.64611 0.0
C52 C 0.405 0.89637 0.98009 0.0
C53 C 0.36037 -0.0111 0.0224 0.0
C54 C 0.56446 0.07324 0.05829 0.0
C55 C 0.60909 0.98071 1.01598 0.0
N56 N 0.57297 0.81551 0.92635 0.0
N57 N 0.39649 0.15412 0.11203 0.0
C58 C 0.52971 0.89575 0.97379 0.0
C59 C 0.43975 0.07387 0.06459 0.0
N60 N 0.32855 0.80354 0.95079 0.0
N61 N 0.64091 0.16608 0.0876 0.0
H62 H 0.30651 0.16366 0.11548 0.0
H63 H 0.44918 0.20635 0.1524 0.0
H64 H 0.73251 0.1719 0.08279 0.0
H65 H 0.61367 0.24387 0.1103 0.0
H66 H 0.3558 0.72574 0.9281 0.0
H67 H 0.23695 0.79771 0.95559 0.0
H68 H 0.52027 0.76329 0.88597 0.0
H69 H 0.66295 0.80597 0.92289 0.0
C70 C 0.8766 0.53457 0.99842 0.0
C71 C 0.98028 0.60923 0.02221 0.0
C72 C 0.09286 0.43505 0.03996 0.0
C73 C -0.01082 0.36038 1.01617 0.0
N74 N 0.78766 0.33672 0.96134 0.0
N75 N 0.1818 0.63289 0.07703 0.0
C76 C 0.88246 0.4095 0.99201 0.0
C77 C 0.087 0.56012 0.04637 0.0
N78 N 0.77083 0.58304 0.98695 0.0
N79 N 0.19863 0.38658 0.05144 0.0
H80 H 0.18262 0.72521 0.08064 0.0
H81 H 0.25721 0.60215 0.10369 0.0
H82 H 0.20629 0.29596 0.04391 0.0
H83 H 0.28048 0.43602 0.06143 0.0
H84 H 0.68899 0.53359 0.97695 0.0
H85 H 0.76317 0.67366 0.99446 0.0
H86 H 0.71225 0.36746 0.93469 0.0
H87 H 0.78683 0.2444 0.95774 0.0
loop_
_geom_bond_atom_site_label_1
_geom_bond_atom_site_label_2
_geom_bond_distance
_geom_bond_site_symmetry_2
_ccdc_geom_bond_type
C0 O16 1.243 1_544 S
C0 O18 1.263 . S
N1 C2 1.333 1_665 S
N1 C6 1.307 . S
N1 Zn7 2.020 . S
C2 N1 1.333 1_445 S
C2 C3 1.379 . S
C2 H20 0.952 . S
C3 C2 1.379 . S
C3 C4 1.391 1_455 S
C3 H30 0.949 . S
C4 C3 1.391 1_655 S
C4 C5 1.355 1_545 S
C5 C4 1.355 1_565 S
C5 C6 1.370 . S
C5 H31 0.950 . S
C6 N1 1.307 . S
C6 C5 1.370 . S
C6 H24 0.948 . S
Zn7 N1 2.020 . S
Zn7 O16 2.039 1_655 S
Zn7 O22 2.034 1_665 S
Zn7 O26 2.025 . S
Zn7 O28 2.024 . S
C8 O27 1.246 1_556 S
C8 O28 1.249 . S
N9 C10 1.307 . S
N9 C11 1.333 1_445 S
N9 Zn15 2.020 . S
C10 N9 1.307 . S
C10 C14 1.370 . S
C10 H21 0.948 . S
C11 N9 1.333 1_665 S
C11 C12 1.379 . S
C11 H19 0.952 . S
C12 C11 1.379 . S
C12 C13 1.391 1_655 S
C12 H32 0.949 . S
C13 C12 1.391 1_455 S
C13 C14 1.356 1_565 S
C14 C10 1.370 . S
C14 C13 1.356 1_545 S
C14 H33 0.950 . S
Zn15 N9 2.020 . S
Zn15 O18 2.025 . S
Zn15 O23 2.024 . S
Zn15 O25 2.039 1_455 S
Zn15 O27 2.034 1_445 S
O16 C0 1.243 1_566 S
O16 Zn7 2.039 1_455 S
C17 O22 1.246 1_554 S
C17 O23 1.249 . S
O18 C0 1.263 . S
O18 Zn15 2.025 . S
H19 C11 0.952 . S
H20 C2 0.952 . S
H21 C10 0.948 . S
O22 Zn7 2.034 1_445 S
O22 C17 1.246 1_556 S
O23 Zn15 2.024 . S
O23 C17 1.249 . S
H24 C6 0.948 . S
O25 Zn15 2.039 1_655 S
O25 C29 1.246 1_544 S
O26 Zn7 2.025 . S
O26 C29 1.259 . S
O27 C8 1.246 1_554 S
O27 Zn15 2.034 1_665 S
O28 Zn7 2.024 . S
O28 C8 1.249 . S
C29 O25 1.246 1_566 S
C29 O26 1.259 . S
H30 C3 0.949 . S
H31 C5 0.950 . S
H32 C12 0.949 . S
H33 C14 0.950 . S
C34 C35 1.363 1_665 S
C34 C40 1.379 . S
C34 N42 1.356 . S
C35 C34 1.363 1_445 S
C35 C41 1.363 . S
C36 C37 1.363 . S
C36 C41 1.379 . S
C36 N43 1.356 . S
C37 C36 1.363 . S
C37 C40 1.363 1_445 S
N38 C40 1.356 . S
N38 H50 0.984 . S
N38 H51 0.985 . S
N39 C41 1.356 . S
N39 H44 0.984 . S
N39 H45 0.985 . S
C40 C34 1.379 . S
C40 C37 1.363 1_665 S
C40 N38 1.356 . S
C41 C35 1.363 . S
C41 C36 1.379 . S
C41 N39 1.356 . S
N42 C34 1.356 . S
N42 H48 0.984 . S
N42 H49 0.984 . S
N43 C36 1.356 . S
N43 H46 0.984 . S
N43 H47 0.985 . S
H44 N39 0.984 . S
H45 N39 0.985 . S
H46 N43 0.984 . S
H47 N43 0.985 . S
H48 N42 0.984 . S
H49 N42 0.984 . S
H50 N38 0.984 . S
H51 N38 0.985 . S
C52 C53 1.363 1_566 S
C52 C58 1.379 . S
C52 N60 1.356 . S
C53 C52 1.363 1_544 S
C53 C59 1.363 . S
C54 C55 1.363 . S
C54 C59 1.379 . S
C54 N61 1.356 . S
C55 C54 1.363 . S
C55 C58 1.363 1_544 S
N56 C58 1.356 . S
N56 H68 0.984 . S
N56 H69 0.985 . S
N57 C59 1.356 . S
N57 H62 0.984 . S
N57 H63 0.985 . S
C58 C52 1.379 . S
C58 C55 1.363 1_566 S
C58 N56 1.356 . S
C59 C53 1.363 . S
C59 C54 1.379 . S
C59 N57 1.356 . S
N60 C52 1.356 . S
N60 H66 0.984 . S
N60 H67 0.984 . S
N61 C54 1.356 . S
N61 H64 0.984 . S
N61 H65 0.985 . S
H62 N57 0.984 . S
H63 N57 0.985 . S
H64 N61 0.984 . S
H65 N61 0.985 . S
H66 N60 0.984 . S
H67 N60 0.984 . S
H68 N56 0.984 . S
H69 N56 0.985 . S
C70 C71 1.363 1_656 S
C70 C76 1.379 . S
C70 N78 1.356 . S
C71 C70 1.363 1_454 S
C71 C77 1.363 . S
C72 C73 1.363 . S
C72 C77 1.379 . S
C72 N79 1.356 . S
C73 C72 1.363 . S
C73 C76 1.363 1_454 S
N74 C76 1.356 . S
N74 H86 0.984 . S
N74 H87 0.985 . S
N75 C77 1.356 . S
N75 H80 0.984 . S
N75 H81 0.985 . S
C76 C70 1.379 . S
C76 C73 1.363 1_656 S
C76 N74 1.356 . S
C77 C71 1.363 . S
C77 C72 1.379 . S
C77 N75 1.356 . S
N78 C70 1.356 . S
N78 H84 0.984 . S
N78 H85 0.984 . S
N79 C72 1.356 . S
N79 H82 0.984 . S
N79 H83 0.985 . S
H80 N75 0.984 . S
H81 N75 0.985 . S
H82 N79 0.984 . S
H83 N79 0.985 . S
H84 N78 0.984 . S
H85 N78 0.984 . S
H86 N74 0.984 . S
H87 N74 0.985 . S
C35 C13 1.498 1_545 S
C37 C4 1.498 1_455 S
C53 C0 1.499 . S
C55 C29 1.499 1_544 S
C71 C8 1.497 1_454 S
C73 C17 1.497 . S
