# Generated by pormake.
# Topology cds, (4)-cn, num edge types: 1
# Building blocks:
#     Node 0, Type 0, BuildingBlock: MUDLON_clean_sbu_0, # of connection points: 4
#     Node 1, Type 0, BuildingBlock: MUDLON_clean_sbu_0, # of connection points: 4
#     Edge 2, Type (0, 0), BuildingBlock: OJICUG_clean_linker_0, # of connection points: 2
#     Edge 3, Type (0, 0), BuildingBlock: OJICUG_clean_linker_0, # of connection points: 2
#     Edge 4, Type (0, 0), BuildingBlock: OJICUG_clean_linker_0, # of connection points: 2
#     Edge 5, Type (0, 0), BuildingBlock: OJICUG_clean_linker_0, # of connection points: 2
# Relax obj value: 0.001
# Max RMSD: 0.016
# Mean RMSD: 0.016
data_MOF--net-cds--node1-MUDLON_clean_sbu_0--edge1-OJICUG_clean_linker_0
_symmetry_space_group_name_H-M    P1
_symmetry_Int_Tables_number       1
_symmetry_cell_setting            triclinic
loop_
_symmetry_equiv_pos_as_xyz
'x, y, z'
_cell_length_a     11.252929
_cell_length_b     11.25744
_cell_length_c     21.857168
_cell_angle_alpha  90.092554
_cell_angle_beta   91.886972
_cell_angle_gamma 90.759284
loop_
_atom_site_label
_atom_site_type_symbol
_atom_site_fract_x
_atom_site_fract_y
_atom_site_fract_z
_atom_type_partial_charge
Mg0 Mg 0.12661 0.13639 1.02116 0.0
C1 C 0.38102 0.16657 0.05287 0.0
O2 O 0.34917 0.06776 0.08001 0.0
C3 C 0.87971 0.16803 0.0311 0.0
O4 O 0.90289 0.054 0.03246 0.0
C5 C 0.15322 0.06411 0.88914 0.0
O6 O 0.22901 0.1539 0.89195 0.0
O7 O 0.10216 0.03205 0.93762 0.0
O8 O 0.30238 0.2237 1.02229 0.0
O9 O 0.1124 0.02994 0.10439 0.0
C10 C 0.12824 0.0856 0.15482 0.0
O11 O 0.15877 0.19862 0.15336 0.0
O12 O 0.96522 0.24158 1.02435 0.0
Mg13 Mg 0.90526 0.93446 0.51736 0.0
C14 C 0.88092 0.18096 0.53278 0.0
O15 O 0.99349 0.15254 0.5391 0.0
C16 C 0.88772 0.68308 0.53799 0.0
O17 O 0.99617 0.71735 0.55442 0.0
C18 C 0.98058 0.90017 0.38664 0.0
O19 O 0.89175 0.82326 0.38674 0.0
O20 O 1.01058 0.95393 0.43615 0.0
O21 O 0.80486 0.09907 0.52009 0.0
O22 O 1.01299 0.94502 0.60261 0.0
C23 C 0.96234 0.91821 0.65204 0.0
O24 O 0.85194 0.87855 0.64891 0.0
O25 O 0.81624 0.76035 0.51652 0.0
C26 C 0.14017 0.08451 0.26924 0.0
C27 C 0.10351 0.02847 0.21415 0.0
H28 H 0.13215 0.08695 0.36686 0.0
C29 C 0.03581 0.92291 0.21665 0.0
H30 H 0.19324 0.16548 0.26891 0.0
C31 C 0.99997 0.87812 0.27299 0.0
C32 C 0.03212 0.93736 0.32795 0.0
H33 H 1.0062 0.87765 0.17501 0.0
H34 H 0.94392 0.79917 0.27328 0.0
C35 C 0.10546 0.03917 0.32549 0.0
C36 C 1.01518 0.93681 0.82384 0.0
C37 C 0.11473 1.01336 0.82889 0.0
H38 H 0.88939 0.84655 0.76408 0.0
C39 C 0.17056 0.04918 0.77515 0.0
H40 H 0.97011 0.90725 0.86423 0.0
C41 C 0.12447 1.01383 0.71758 0.0
C42 C 0.02106 0.94264 0.71254 0.0
H43 H 0.24775 0.10772 0.77739 0.0
H44 H 0.1671 0.04632 0.67704 0.0
C45 C 0.96864 0.90226 0.76633 0.0
C46 C 0.70593 0.15768 0.09602 0.0
C47 C 0.75782 0.2043 0.0437 0.0
H48 H 0.54557 0.11239 0.1404 0.0
C49 C 0.68524 0.25863 0.99861 0.0
H50 H 0.76027 0.11474 0.13117 0.0
C51 C 0.56086 0.25655 1.00359 0.0
C52 C 0.50882 0.1994 0.05352 0.0
H53 H 0.72357 0.29325 0.95735 0.0
H54 H 0.5057 0.29057 0.96622 0.0
C55 C 0.58293 0.15567 0.10102 0.0
C56 C 0.78579 0.49528 0.49908 0.0
C57 C 0.8557 0.55614 0.54389 0.0
H58 H 0.73735 0.3243 0.46043 0.0
C59 C 0.91225 0.49117 0.59089 0.0
H60 H 0.74173 0.54366 0.46224 0.0
C61 C 0.90931 0.36772 0.58999 0.0
C62 C 0.84963 0.30613 0.54215 0.0
H63 H 0.96536 0.53585 0.62647 0.0
H64 H 0.96092 0.32022 0.62459 0.0
C65 C 0.78293 0.37018 0.49815 0.0
loop_
_geom_bond_atom_site_label_1
_geom_bond_atom_site_label_2
_geom_bond_distance
_geom_bond_site_symmetry_2
_ccdc_geom_bond_type
Mg0 O7 2.146 . S
Mg0 O8 2.038 1_655 S
Mg0 O9 2.044 1_556 S
Mg0 O12 2.152 . S
C1 O2 1.313 1_545 S
C1 O8 1.195 1_554 S
O2 C1 1.313 1_565 S
C3 O4 1.245 1_545 S
C3 O12 1.289 1_554 S
O4 C3 1.245 1_565 S
C5 O6 1.245 1_545 S
C5 O7 1.289 1_455 S
O6 C5 1.245 1_565 S
O7 Mg0 2.146 . S
O7 C5 1.289 1_655 S
O8 Mg0 2.038 1_455 S
O8 C1 1.195 1_556 S
O9 Mg0 2.044 1_554 S
O9 C10 1.195 1_655 S
C10 O9 1.195 1_455 S
C10 O11 1.313 1_545 S
O11 C10 1.313 1_565 S
O12 Mg0 2.152 . S
O12 C3 1.289 1_556 S
Mg13 O20 2.141 . S
Mg13 O21 2.048 1_565 S
Mg13 O22 2.048 . S
Mg13 O25 2.141 . S
C14 O15 1.313 . S
C14 O21 1.195 1_455 S
O15 C14 1.313 . S
C16 O17 1.245 . S
C16 O25 1.289 1_455 S
O17 C16 1.245 . S
C18 O19 1.245 . S
C18 O20 1.289 1_445 S
O19 C18 1.245 . S
O20 Mg13 2.141 . S
O20 C18 1.289 1_665 S
O21 Mg13 2.048 1_545 S
O21 C14 1.195 1_655 S
O22 Mg13 2.048 . S
O22 C23 1.195 1_665 S
C23 O22 1.195 1_445 S
C23 O24 1.313 . S
O24 C23 1.313 . S
O25 Mg13 2.141 . S
O25 C16 1.289 1_655 S
C26 C27 1.387 1_655 S
C26 H30 0.950 . S
C26 C35 1.390 . S
C27 C26 1.387 1_455 S
C27 C29 1.387 1_545 S
H28 C35 0.950 . S
C29 C27 1.387 1_565 S
C29 C31 1.390 . S
C29 H33 0.950 . S
H30 C26 0.950 . S
C31 C29 1.390 . S
C31 C32 1.387 1_565 S
C31 H34 0.950 . S
C32 C31 1.387 1_545 S
C32 C35 1.387 1_455 S
H33 C29 0.950 . S
H34 C31 0.950 . S
C35 C26 1.390 . S
C35 H28 0.950 . S
C35 C32 1.387 1_655 S
C36 C37 1.387 . S
C36 H40 0.950 . S
C36 C45 1.390 . S
C37 C36 1.387 . S
C37 C39 1.387 1_445 S
H38 C45 0.950 . S
C39 C37 1.387 1_665 S
C39 C41 1.390 . S
C39 H43 0.950 . S
H40 C36 0.950 . S
C41 C39 1.390 . S
C41 C42 1.387 1_665 S
C41 H44 0.950 . S
C42 C41 1.387 1_445 S
C42 C45 1.387 . S
H43 C39 0.950 . S
H44 C41 0.950 . S
C45 C36 1.390 . S
C45 H38 0.950 . S
C45 C42 1.387 . S
C46 C47 1.387 1_565 S
C46 H50 0.950 . S
C46 C55 1.390 . S
C47 C46 1.387 1_545 S
C47 C49 1.387 . S
H48 C55 0.950 . S
C49 C47 1.387 . S
C49 C51 1.390 . S
C49 H53 0.950 . S
H50 C46 0.950 . S
C51 C49 1.390 . S
C51 C52 1.387 . S
C51 H54 0.950 . S
C52 C51 1.387 . S
C52 C55 1.387 1_545 S
H53 C49 0.950 . S
H54 C51 0.950 . S
C55 C46 1.390 . S
C55 H48 0.950 . S
C55 C52 1.387 1_565 S
C56 C57 1.387 1_655 S
C56 H60 0.950 . S
C56 C65 1.390 . S
C57 C56 1.387 1_455 S
C57 C59 1.387 . S
H58 C65 0.950 . S
C59 C57 1.387 . S
C59 C61 1.390 . S
C59 H63 0.950 . S
H60 C56 0.950 . S
C61 C59 1.390 . S
C61 C62 1.387 . S
C61 H64 0.950 . S
C62 C61 1.387 . S
C62 C65 1.387 1_455 S
H63 C59 0.950 . S
H64 C61 0.950 . S
C65 C56 1.390 . S
C65 H58 0.950 . S
C65 C62 1.387 1_655 S
C27 C10 1.492 . S
C32 C18 1.492 . S
C37 C5 1.488 . S
C42 C23 1.498 . S
C47 C3 1.489 . S
C52 C1 1.493 . S
C57 C16 1.489 . S
C62 C14 1.494 . S
