# Generated by pormake.
# Topology pcu, (6)-cn, num edge types: 1
# Building blocks:
#     Node 0, Type 0, BuildingBlock: KUMBUR_clean_sbu_0, # of connection points: 6
#     Edge 1, Type (0, 0), BuildingBlock: FUNLAD_clean_linker_1, # of connection points: 2
#     Edge 2, Type (0, 0), BuildingBlock: FUNLAD_clean_linker_1, # of connection points: 2
#     Edge 3, Type (0, 0), BuildingBlock: FUNLAD_clean_linker_1, # of connection points: 2
# Relax obj value: 0.000
# Max RMSD: 0.000
# Mean RMSD: 0.000
data_MOF--net-pcu--node1-KUMBUR_clean_sbu_0--edge1-FUNLAD_clean_linker_1
_symmetry_space_group_name_H-M    P1
_symmetry_Int_Tables_number       1
_symmetry_cell_setting            triclinic
loop_
_symmetry_equiv_pos_as_xyz
'x, y, z'
_cell_length_a     14.733745
_cell_length_b     25.47063
_cell_length_c     15.554351
_cell_angle_alpha  115.52724
_cell_angle_beta   73.532299
_cell_angle_gamma 118.11515
loop_
_atom_site_label
_atom_site_type_symbol
_atom_site_fract_x
_atom_site_fract_y
_atom_site_fract_z
_atom_type_partial_charge
Tb0 Tb 0.08405 0.0907 0.0375 0.0
C1 C 0.80064 0.81191 0.83554 0.0
C2 C 0.63149 0.79704 0.9235 0.0
C3 C 0.64676 0.72998 0.75675 0.0
C4 C 0.74007 0.83015 0.91855 0.0
C5 C 0.75501 0.76137 0.75371 0.0
C6 C 0.58512 0.74756 0.84169 0.0
C7 C 0.92674 0.7728 0.67527 0.0
N8 N 0.9048 0.84194 0.83665 0.0
C9 C 0.96824 0.8218 0.75892 0.0
C10 C 0.81962 0.74267 0.67241 0.0
Tb11 Tb 0.96523 0.91939 0.97822 0.0
N12 N 0.78805 0.87718 0.99652 0.0
C13 C 0.73153 0.8919 0.08302 0.0
C14 C 0.57312 0.8139 0.01095 0.0
C15 C 0.6235 0.86128 0.09119 0.0
H16 H 0.0511 0.84442 0.76072 0.0
H17 H 0.57924 0.87398 0.15962 0.0
H18 H 0.50186 0.72213 0.84368 0.0
H19 H 0.97735 0.75792 0.61338 0.0
H20 H 0.76918 0.92759 0.1462 0.0
H21 H 0.46989 0.13602 0.85571 0.0
H22 H 0.48952 0.78989 0.01764 0.0
H23 H 0.99847 0.16568 0.25515 0.0
H24 H 0.27995 0.0825 0.86929 0.0
H25 H 0.07241 0.25209 0.40247 0.0
H26 H 0.6101 0.69116 0.69455 0.0
H27 H 0.55979 0.22001 0.99764 0.0
H28 H 0.54766 0.28771 0.17166 0.0
H29 H 0.78762 0.70416 0.60795 0.0
H30 H 0.4396 0.31869 0.32093 0.0
N31 N 0.26124 0.13289 0.019 0.0
C32 C 0.31766 0.11815 0.93244 0.0
C33 C 0.47618 0.19604 1.0044 0.0
C34 C 0.41791 0.21291 0.09191 0.0
C35 C 0.4257 0.14873 0.92418 0.0
C36 C 0.30932 0.17985 0.09695 0.0
H37 H 0.26216 0.30575 0.40771 0.0
N38 N 0.14468 0.16811 0.17905 0.0
C39 C 0.12294 0.23721 0.3405 0.0
C40 C 0.24885 0.19808 0.18005 0.0
C41 C 0.08133 0.18825 0.25687 0.0
C42 C 0.23007 0.26728 0.34326 0.0
C43 C 0.29459 0.24858 0.26187 0.0
O44 O 1.02271 0.15612 0.06009 0.0
O45 O 0.94742 1.00432 1.00569 0.0
O46 O 0.95901 0.93705 0.85543 0.0
O47 O 0.09176 0.03894 0.88044 0.0
O48 O 0.92619 0.08136 0.10336 0.0
O49 O 0.13462 0.13825 0.93994 0.0
O50 O 0.02651 0.85399 0.95582 0.0
O51 O 0.10174 0.00575 0.00983 0.0
O52 O 0.09046 0.07298 0.16015 0.0
O53 O 0.95747 0.97119 0.13526 0.0
O54 O 0.12321 0.92874 0.91266 0.0
O55 O 0.91454 0.87193 0.0759 0.0
C56 C 0.87713 0.02235 0.05562 0.0
C57 C 0.13658 0.24176 1.00651 0.0
C58 C 0.1389 0.34084 0.01607 0.0
C59 C 0.08753 0.27492 0.99792 0.0
C60 C 0.24061 0.37306 0.04218 0.0
C61 C 0.23832 0.27495 0.03164 0.0
C62 C 0.28962 0.34016 0.0499 0.0
C63 C 0.02599 0.98448 0.82552 0.0
C64 C 0.08125 0.17276 0.98799 0.0
C65 C 0.40285 0.27991 0.25873 0.0
C66 C 0.46439 0.26233 0.17371 0.0
C67 C 0.17221 0.9878 0.96022 0.0
C68 C 0.91252 0.7684 0.00948 0.0
C69 C 0.96163 0.73522 0.01792 0.0
C70 C 0.91024 0.66931 0.9998 0.0
C71 C 0.80847 0.63711 0.97386 0.0
C72 C 0.81071 0.73524 0.98454 0.0
C73 C 0.7594 0.67003 0.96629 0.0
C74 C 1.02342 0.02559 0.19011 0.0
C75 C 0.96789 0.83739 0.02794 0.0
H76 H 1.00942 0.24943 0.97716 0.0
H77 H 0.28382 0.42325 0.05388 0.0
H78 H 0.27901 0.25058 0.03574 0.0
H79 H 0.36831 0.36514 0.06879 0.0
H80 H 0.0398 0.76069 0.03855 0.0
H81 H 0.76526 0.58692 0.96219 0.0
H82 H 0.76998 0.75963 0.98057 0.0
H83 H 0.68066 0.64507 0.94754 0.0
H84 H 0.07286 0.08105 0.33518 0.0
C85 C 0.02807 0.03371 0.28853 0.0
H86 H 0.94464 0.93673 0.27352 0.0
H87 H 0.24626 0.05778 0.61908 0.0
H88 H 0.38918 0.07269 0.49479 0.0
H89 H 0.35894 0.04931 0.33158 0.0
H90 H 0.18616 0.01158 0.29194 0.0
C91 C 0.9895 0.98449 0.31879 0.0
C92 C 1.00755 0.994 0.41492 0.0
C93 C 0.10927 0.0146 0.43614 0.0
C94 C 0.12648 0.02656 0.52958 0.0
C95 C 0.22876 0.04778 0.5492 0.0
C96 C 0.31154 0.05642 0.47848 0.0
C97 C 0.29456 0.04341 0.38667 0.0
C98 C 0.19482 0.02233 0.36515 0.0
H99 H 0.9767 0.92899 0.6804 0.0
C100 C 1.0214 0.97634 0.72707 0.0
H101 H 0.10469 0.07333 0.7421 0.0
H102 H 0.80314 0.95224 0.39652 0.0
H103 H 0.66021 0.9373 0.52079 0.0
H104 H 0.69045 0.96065 0.68399 0.0
H105 H 0.86323 0.9984 0.72364 0.0
C106 C 0.05991 0.02556 0.69681 0.0
C107 C 0.04185 0.01602 0.60067 0.0
C108 C 0.94014 0.99541 0.57945 0.0
C109 C 0.92293 0.98346 0.48601 0.0
C110 C 0.82064 0.96223 0.46638 0.0
C111 C 0.73786 0.95358 0.5371 0.0
C112 C 0.75484 0.96657 0.62891 0.0
C113 C 0.85457 0.98766 0.65042 0.0
H114 H 0.25322 0.00601 0.07513 0.0
C115 C 0.26453 1.00481 1.00228 0.0
H116 H 0.3625 1.00464 0.87547 0.0
H117 H 0.67613 0.09911 0.20491 0.0
H118 H 0.60542 0.17653 0.30718 0.0
H119 H 0.46086 0.17906 0.26184 0.0
H120 H 0.38825 0.10496 0.11331 0.0
C121 C 0.35521 0.00819 0.94909 0.0
C122 C 0.44109 0.00696 0.98123 0.0
C123 C 0.48453 0.05167 0.0687 0.0
C124 C 0.5677 0.0498 0.09539 0.0
C125 C 0.6109 0.09633 0.18184 0.0
C126 C 0.57184 0.14186 0.24124 0.0
C127 C 0.49076 0.1434 0.21558 0.0
C128 C 0.44869 0.09974 0.13002 0.0
H129 H 0.79586 1.00428 0.94099 0.0
C130 C 0.78471 0.00551 0.01384 0.0
H131 H 0.68696 0.00572 0.14079 0.0
H132 H 0.37299 0.91115 0.81153 0.0
H133 H 0.44364 0.83369 0.70929 0.0
H134 H 0.58818 0.83115 0.75465 0.0
H135 H 0.66082 0.90527 0.90316 0.0
C136 C 0.69412 1.00218 0.06719 0.0
C137 C 0.6081 1.00334 0.03516 0.0
C138 C 0.56462 0.9586 0.94772 0.0
C139 C 0.48146 0.96048 0.92102 0.0
C140 C 0.43822 0.91393 0.83459 0.0
C141 C 0.47725 0.86838 0.77522 0.0
C142 C 0.55831 0.86683 0.80089 0.0
C143 C 0.60041 0.9105 0.88643 0.0
H144 H 1.01775 0.66286 0.06606 0.0
C145 C 0.96165 0.63576 0.01369 0.0
H146 H 0.88779 0.5462 0.91013 0.0
H147 H 0.27576 0.51623 0.99856 0.0
H148 H 0.3909 0.60208 0.93917 0.0
H149 H 0.32182 0.65824 0.89681 0.0
H150 H 0.13768 0.6293 0.91417 0.0
C151 C 0.94187 0.57376 0.96418 0.0
C152 C 0.98502 0.53896 0.98637 0.0
C153 C 0.09317 0.55554 0.97359 0.0
C154 C 0.13274 0.52215 0.99621 0.0
C155 C 0.24117 0.53999 0.98305 0.0
C156 C 0.30832 0.58904 0.94854 0.0
C157 C 0.2695 0.62073 0.92481 0.0
C158 C 0.16336 0.60402 0.93617 0.0
H159 H 0.03149 0.34725 0.94964 0.0
C160 C 0.08754 0.37437 1.00205 0.0
H161 H 0.16133 0.46395 0.10562 0.0
H162 H 0.7734 0.49386 0.01708 0.0
H163 H 0.65826 0.40802 0.07646 0.0
H164 H 0.72735 0.35185 0.11882 0.0
H165 H 0.91148 0.3808 0.10146 0.0
C166 C 0.1073 0.43637 0.05153 0.0
C167 C 0.06414 0.47114 0.02928 0.0
C168 C 0.956 0.45456 0.04205 0.0
C169 C 0.91642 0.48794 0.01942 0.0
C170 C 0.80799 0.47011 0.03258 0.0
C171 C 0.74084 0.42105 0.06709 0.0
C172 C 0.77966 0.38936 0.09082 0.0
C173 C 0.8858 0.40608 0.07946 0.0
loop_
_geom_bond_atom_site_label_1
_geom_bond_atom_site_label_2
_geom_bond_distance
_geom_bond_site_symmetry_2
_ccdc_geom_bond_type
Tb0 N31 2.660 1_554 S
Tb0 N38 2.600 . S
Tb0 O44 2.546 . S
Tb0 O45 2.610 1_444 S
Tb0 O47 2.320 1_554 S
Tb0 O48 2.552 1_455 S
Tb0 O49 2.413 . S
Tb0 O51 2.362 . S
Tb0 O52 2.422 1_455 S
Tb0 C64 2.833 . S
C1 C4 1.432 . S
C1 C5 1.414 . S
C1 N8 1.359 . S
C2 C4 1.417 . S
C2 C6 1.432 . S
C2 C14 1.410 1_556 S
C3 C5 1.444 . S
C3 C6 1.317 . S
C3 H26 0.929 . S
C4 C1 1.432 . S
C4 C2 1.417 . S
C4 N12 1.360 1_556 S
C5 C1 1.414 . S
C5 C3 1.444 . S
C5 C10 1.385 . S
C6 C2 1.432 . S
C6 C3 1.317 . S
C6 H18 0.930 . S
C7 C9 1.392 . S
C7 C10 1.370 . S
C7 H19 0.931 . S
N8 C1 1.359 . S
N8 C9 1.327 . S
N8 Tb11 2.600 . S
C9 C7 1.392 . S
C9 N8 1.327 . S
C9 H16 0.930 . S
C10 C5 1.385 . S
C10 C7 1.370 . S
C10 H29 0.930 . S
Tb11 N8 2.600 . S
Tb11 N12 2.660 1_556 S
Tb11 O45 2.362 . S
Tb11 O46 2.422 1_655 S
Tb11 O50 2.546 . S
Tb11 O51 2.610 1_666 S
Tb11 O53 2.320 1_556 S
Tb11 O54 2.552 1_655 S
Tb11 O55 2.413 . S
Tb11 C75 2.833 . S
N12 C4 1.360 1_554 S
N12 Tb11 2.660 1_554 S
N12 C13 1.305 . S
C13 N12 1.305 . S
C13 C15 1.407 . S
C13 H20 0.930 . S
C14 C2 1.410 1_554 S
C14 C15 1.345 . S
C14 H22 0.930 . S
C15 C13 1.407 . S
C15 C14 1.345 . S
C15 H17 0.930 . S
H16 C9 0.930 . S
H17 C15 0.930 . S
H18 C6 0.930 . S
H19 C7 0.931 . S
H20 C13 0.930 . S
H21 C35 0.930 . S
H22 C14 0.930 . S
H23 C41 0.930 . S
H24 C32 0.930 . S
H25 C39 0.931 . S
H26 C3 0.929 . S
H27 C33 0.930 . S
H28 C66 0.930 . S
H29 C10 0.930 . S
H30 C65 0.929 . S
N31 Tb0 2.660 1_556 S
N31 C32 1.305 . S
N31 C36 1.360 1_556 S
C32 H24 0.930 . S
C32 N31 1.305 . S
C32 C35 1.407 . S
C33 H27 0.930 . S
C33 C34 1.410 1_556 S
C33 C35 1.345 . S
C34 C33 1.410 1_554 S
C34 C36 1.417 . S
C34 C66 1.432 . S
C35 H21 0.930 . S
C35 C32 1.407 . S
C35 C33 1.345 . S
C36 N31 1.360 1_554 S
C36 C34 1.417 . S
C36 C40 1.432 . S
H37 C42 0.930 . S
N38 Tb0 2.600 . S
N38 C40 1.359 . S
N38 C41 1.327 . S
C39 H25 0.931 . S
C39 C41 1.392 . S
C39 C42 1.370 . S
C40 C36 1.432 . S
C40 N38 1.359 . S
C40 C43 1.414 . S
C41 H23 0.930 . S
C41 N38 1.327 . S
C41 C39 1.392 . S
C42 H37 0.930 . S
C42 C39 1.370 . S
C42 C43 1.385 . S
C43 C40 1.414 . S
C43 C42 1.385 . S
C43 C65 1.444 . S
O44 Tb0 2.546 . S
O44 C64 1.251 . S
O45 Tb0 2.610 1_666 S
O45 Tb11 2.362 . S
O45 C56 1.283 1_566 S
O46 Tb11 2.422 1_455 S
O46 C63 1.257 . S
O47 Tb0 2.320 1_556 S
O47 C63 1.260 1_545 S
O48 Tb0 2.552 1_655 S
O48 C56 1.243 . S
O49 Tb0 2.413 . S
O49 C64 1.256 . S
O50 Tb11 2.546 . S
O50 C75 1.251 . S
O51 Tb0 2.362 . S
O51 Tb11 2.610 1_444 S
O51 C67 1.283 1_544 S
O52 Tb0 2.422 1_655 S
O52 C74 1.258 . S
O53 Tb11 2.320 1_554 S
O53 C74 1.260 1_565 S
O54 Tb11 2.552 1_455 S
O54 C67 1.243 . S
O55 Tb11 2.413 . S
O55 C75 1.256 . S
C56 O45 1.283 1_544 S
C56 O48 1.243 . S
C57 C59 1.382 . S
C57 C61 1.393 . S
C57 C64 1.500 . S
C58 C59 1.400 . S
C58 C60 1.384 . S
C59 C57 1.382 . S
C59 C58 1.400 . S
C59 H76 0.930 1_554 S
C60 C58 1.384 . S
C60 C62 1.392 . S
C60 H77 0.931 . S
C61 C57 1.393 . S
C61 C62 1.401 . S
C61 H78 0.930 . S
C62 C60 1.392 . S
C62 C61 1.401 . S
C62 H79 0.930 . S
C63 O46 1.257 . S
C63 O47 1.260 1_565 S
C64 Tb0 2.833 . S
C64 O44 1.251 . S
C64 O49 1.256 . S
C64 C57 1.500 . S
C65 H30 0.929 . S
C65 C43 1.444 . S
C65 C66 1.317 . S
C66 H28 0.930 . S
C66 C34 1.432 . S
C66 C65 1.317 . S
C67 O51 1.283 1_566 S
C67 O54 1.243 . S
C68 C69 1.382 . S
C68 C72 1.393 . S
C68 C75 1.500 . S
C69 C68 1.382 . S
C69 C70 1.400 . S
C69 H80 0.930 1_556 S
C70 C69 1.400 . S
C70 C71 1.384 . S
C71 C70 1.384 . S
C71 C73 1.392 . S
C71 H81 0.931 . S
C72 C68 1.393 . S
C72 C73 1.401 . S
C72 H82 0.930 . S
C73 C71 1.392 . S
C73 C72 1.401 . S
C73 H83 0.930 . S
C74 O52 1.258 . S
C74 O53 1.260 1_545 S
C75 Tb11 2.833 . S
C75 O50 1.251 . S
C75 O55 1.256 . S
C75 C68 1.500 . S
H76 C59 0.930 1_556 S
H77 C60 0.931 . S
H78 C61 0.930 . S
H79 C62 0.930 . S
H80 C69 0.930 1_554 S
H81 C71 0.931 . S
H82 C72 0.930 . S
H83 C73 0.930 . S
H84 C85 0.950 . S
C85 H84 0.950 . S
C85 C91 1.268 1_665 S
H86 C91 0.950 . S
H87 C95 0.949 . S
H88 C96 0.950 . S
H89 C97 0.951 . S
H90 C98 0.951 . S
C91 C85 1.268 1_445 S
C91 H86 0.950 . S
C91 C92 1.478 . S
C92 C91 1.478 . S
C92 C93 1.397 . S
C92 C109 1.394 1_445 S
C93 C92 1.397 . S
C93 C94 1.438 . S
C93 C98 1.429 . S
C94 C93 1.438 . S
C94 C95 1.428 . S
C94 C107 1.394 1_445 S
C95 H87 0.949 . S
C95 C94 1.428 . S
C95 C96 1.345 . S
C96 H88 0.950 . S
C96 C95 1.345 . S
C96 C97 1.424 . S
C97 H89 0.951 . S
C97 C96 1.424 . S
C97 C98 1.347 . S
C98 H90 0.951 . S
C98 C93 1.429 . S
C98 C97 1.347 . S
H99 C100 0.949 . S
C100 H99 0.949 . S
C100 C106 1.270 1_445 S
H101 C106 0.950 . S
H102 C110 0.949 . S
H103 C111 0.950 . S
H104 C112 0.951 . S
H105 C113 0.951 . S
C106 C100 1.270 1_665 S
C106 H101 0.950 . S
C106 C107 1.478 . S
C107 C94 1.394 1_665 S
C107 C106 1.478 . S
C107 C108 1.397 . S
C108 C107 1.397 . S
C108 C109 1.438 . S
C108 C113 1.429 . S
C109 C92 1.394 1_665 S
C109 C108 1.438 . S
C109 C110 1.428 . S
C110 H102 0.949 . S
C110 C109 1.428 . S
C110 C111 1.345 . S
C111 H103 0.950 . S
C111 C110 1.345 . S
C111 C112 1.424 . S
C112 H104 0.951 . S
C112 C111 1.424 . S
C112 C113 1.347 . S
C113 H105 0.951 . S
C113 C108 1.429 . S
C113 C112 1.347 . S
H114 C115 0.951 . S
C115 H114 0.951 . S
C115 C121 1.265 1_566 S
H116 C121 0.950 . S
H117 C125 0.949 . S
H118 C126 0.950 . S
H119 C127 0.951 . S
H120 C128 0.951 . S
C121 C115 1.265 1_544 S
C121 H116 0.950 . S
C121 C122 1.478 . S
C122 C121 1.478 . S
C122 C123 1.397 . S
C122 C139 1.394 1_544 S
C123 C122 1.397 . S
C123 C124 1.438 . S
C123 C128 1.429 . S
C124 C123 1.438 . S
C124 C125 1.428 . S
C124 C137 1.394 1_544 S
C125 H117 0.949 . S
C125 C124 1.428 . S
C125 C126 1.345 . S
C126 H118 0.950 . S
C126 C125 1.345 . S
C126 C127 1.424 . S
C127 H119 0.951 . S
C127 C126 1.424 . S
C127 C128 1.347 . S
C128 H120 0.951 . S
C128 C123 1.429 . S
C128 C127 1.347 . S
H129 C130 0.951 . S
C130 H129 0.951 . S
C130 C136 1.265 1_544 S
H131 C136 0.950 . S
H132 C140 0.949 . S
H133 C141 0.950 . S
H134 C142 0.951 . S
H135 C143 0.951 . S
C136 C130 1.265 1_566 S
C136 H131 0.950 . S
C136 C137 1.478 . S
C137 C124 1.394 1_566 S
C137 C136 1.478 . S
C137 C138 1.397 . S
C138 C137 1.397 . S
C138 C139 1.438 . S
C138 C143 1.429 . S
C139 C122 1.394 1_566 S
C139 C138 1.438 . S
C139 C140 1.428 . S
C140 H132 0.949 . S
C140 C139 1.428 . S
C140 C141 1.345 . S
C141 H133 0.950 . S
C141 C140 1.345 . S
C141 C142 1.424 . S
C142 H134 0.951 . S
C142 C141 1.424 . S
C142 C143 1.347 . S
C143 H135 0.951 . S
C143 C138 1.429 . S
C143 C142 1.347 . S
H144 C145 0.951 . S
C145 H144 0.951 . S
C145 C151 1.265 1_656 S
H146 C151 0.950 . S
H147 C155 0.949 . S
H148 C156 0.950 . S
H149 C157 0.951 . S
H150 C158 0.946 . S
C151 C145 1.265 1_454 S
C151 H146 0.950 . S
C151 C152 1.478 . S
C152 C151 1.478 . S
C152 C153 1.397 . S
C152 C169 1.394 1_554 S
C153 C152 1.397 . S
C153 C154 1.438 1_455 S
C153 C158 1.431 . S
C154 C153 1.438 1_655 S
C154 C155 1.428 . S
C154 C167 1.394 1_554 S
C155 H147 0.949 . S
C155 C154 1.428 . S
C155 C156 1.345 . S
C156 H148 0.950 . S
C156 C155 1.345 . S
C156 C157 1.424 . S
C157 H149 0.951 . S
C157 C156 1.424 . S
C157 C158 1.350 1_655 S
C158 H150 0.946 . S
C158 C153 1.431 . S
C158 C157 1.350 1_455 S
H159 C160 0.951 . S
C160 H159 0.951 . S
C160 C166 1.265 1_454 S
H161 C166 0.950 . S
H162 C170 0.949 . S
H163 C171 0.950 . S
H164 C172 0.951 . S
H165 C173 0.948 . S
C166 C160 1.265 1_656 S
C166 H161 0.950 . S
C166 C167 1.478 . S
C167 C154 1.394 1_556 S
C167 C166 1.478 . S
C167 C168 1.397 . S
C168 C167 1.397 . S
C168 C169 1.438 1_655 S
C168 C173 1.430 . S
C169 C152 1.394 1_556 S
C169 C168 1.438 1_455 S
C169 C170 1.428 . S
C170 H162 0.949 . S
C170 C169 1.428 . S
C170 C171 1.345 . S
C171 H163 0.950 . S
C171 C170 1.345 . S
C171 C172 1.424 . S
C172 H164 0.951 . S
C172 C171 1.424 . S
C172 C173 1.349 1_455 S
C173 H165 0.948 . S
C173 C168 1.430 . S
C173 C172 1.349 1_655 S
C85 C74 1.426 1_565 S
C100 C63 1.423 1_545 S
C115 C67 1.378 . S
C130 C56 1.378 . S
C145 C70 1.245 . S
C160 C58 1.245 . S
