# Generated by pormake.
# Topology smm, (6)-cn, num edge types: 1
# Building blocks:
#     Node 0, Type 0, BuildingBlock: MIDCAF_clean_sbu_0, # of connection points: 6
#     Node 1, Type 0, BuildingBlock: MIDCAF_clean_sbu_0, # of connection points: 6
#     Node 2, Type 0, BuildingBlock: MIDCAF_clean_sbu_0, # of connection points: 6
#     Node 3, Type 0, BuildingBlock: MIDCAF_clean_sbu_0, # of connection points: 6
#     Node 4, Type 0, BuildingBlock: MIDCAF_clean_sbu_0, # of connection points: 6
#     Node 5, Type 0, BuildingBlock: MIDCAF_clean_sbu_0, # of connection points: 6
#     Node 6, Type 0, BuildingBlock: MIDCAF_clean_sbu_0, # of connection points: 6
#     Node 7, Type 0, BuildingBlock: MIDCAF_clean_sbu_0, # of connection points: 6
#     Node 8, Type 0, BuildingBlock: MIDCAF_clean_sbu_0, # of connection points: 6
#     Edge 9, Type (0, 0), None
#     Edge 10, Type (0, 0), None
#     Edge 11, Type (0, 0), None
#     Edge 12, Type (0, 0), None
#     Edge 13, Type (0, 0), None
#     Edge 14, Type (0, 0), None
#     Edge 15, Type (0, 0), None
#     Edge 16, Type (0, 0), None
#     Edge 17, Type (0, 0), None
#     Edge 18, Type (0, 0), None
#     Edge 19, Type (0, 0), None
#     Edge 20, Type (0, 0), None
#     Edge 21, Type (0, 0), None
#     Edge 22, Type (0, 0), None
#     Edge 23, Type (0, 0), None
#     Edge 24, Type (0, 0), None
#     Edge 25, Type (0, 0), None
#     Edge 26, Type (0, 0), None
#     Edge 27, Type (0, 0), None
#     Edge 28, Type (0, 0), None
#     Edge 29, Type (0, 0), None
#     Edge 30, Type (0, 0), None
#     Edge 31, Type (0, 0), None
#     Edge 32, Type (0, 0), None
#     Edge 33, Type (0, 0), None
#     Edge 34, Type (0, 0), None
#     Edge 35, Type (0, 0), None
# Relax obj value: 0.297
# Max RMSD: 0.257
# Mean RMSD: 0.256
data_MOF--net-smm--node1-MIDCAF_clean_sbu_0--edge1-none
_symmetry_space_group_name_H-M    P1
_symmetry_Int_Tables_number       1
_symmetry_cell_setting            triclinic
loop_
_symmetry_equiv_pos_as_xyz
'x, y, z'
_cell_length_a     23.251222
_cell_length_b     23.425631
_cell_length_c     7.4076771
_cell_angle_alpha  91.790284
_cell_angle_beta   90.22386
_cell_angle_gamma 120.02322
loop_
_atom_site_label
_atom_site_type_symbol
_atom_site_fract_x
_atom_site_fract_y
_atom_site_fract_z
_atom_type_partial_charge
Zn0 Zn 0.0891 0.23225 0.16053 0.0
Zn1 Zn 0.85538 0.11025 0.73602 0.0
Zn2 Zn 0.97649 0.16432 0.88104 0.0
C3 C 0.88037 0.02251 0.9107 0.0
C4 C 0.89604 0.219 0.01827 0.0
O5 O 0.01865 0.26746 0.88436 0.0
O6 O 0.1179 0.27959 0.9281 0.0
C7 C 0.0834 0.12425 0.05222 0.0
O8 O 0.91573 0.07519 0.00786 0.0
O9 O 0.8547 0.02498 0.76354 0.0
O10 O 0.85068 0.16529 0.94548 0.0
O11 O 0.95716 0.24025 -0.01802 0.0
O12 O 0.10887 0.16045 0.19252 0.0
O13 O 0.0429 0.13097 0.95044 0.0
O14 O 0.93853 0.12495 0.14498 0.0
O15 O 0.01041 0.21935 0.29217 0.0
C16 C 0.9594 0.16243 0.28993 0.0
O17 O 0.96558 0.14385 0.59349 0.0
O18 O 0.87495 0.14108 0.49085 0.0
C19 C 0.0802 0.29533 0.84758 0.0
C20 C 0.9285 0.1415 0.46186 0.0
Zn21 Zn 0.76454 0.87262 0.18648 0.0
Zn22 Zn 0.86506 0.77554 0.85775 0.0
Zn23 Zn 0.81089 0.81864 0.02557 0.0
C24 C 0.82767 0.82227 0.61231 0.0
C25 C 0.95083 0.86279 0.07822 0.0
O26 O 0.8485 0.84093 0.30219 0.0
O27 O 0.75732 0.83397 0.41692 0.0
C28 C 0.67649 0.77742 0.92731 0.0
O29 O 0.83244 0.85784 0.75438 0.0
O30 O 0.82448 0.76721 0.62522 0.0
O31 O 0.94357 0.86447 0.91105 0.0
O32 O 0.89882 0.83319 0.17417 0.0
O33 O 0.69559 0.83501 -0.00989 0.0
O34 O 0.70751 0.7475 -0.02658 0.0
O35 O 0.83232 0.9061 0.88953 0.0
O36 O 0.84726 0.95667 0.15588 0.0
C37 C 0.85583 0.95938 -0.0117 0.0
O38 O 0.7378 0.71623 0.03761 0.0
O39 O 0.82627 0.70501 0.03837 0.0
C40 C 0.81289 0.83755 0.4385 0.0
C41 C 0.76686 0.68445 0.0831 0.0
Zn42 Zn 0.2092 0.09329 0.79428 0.0
Zn43 Zn 0.11969 0.8641 0.17926 0.0
Zn44 Zn 0.15523 -0.01029 0.9347 0.0
C45 C 0.15572 -0.01227 0.34315 0.0
C46 C 0.01606 0.87616 0.13553 0.0
O47 O 0.12866 -0.01391 0.64903 0.0
O48 O 0.22366 0.06775 0.55577 0.0
C49 C 0.28837 0.07811 0.06186 0.0
O50 O 0.13222 0.00477 0.20982 0.0
O51 O 0.17698 0.94768 0.32161 0.0
O52 O 0.02259 0.83458 0.22465 0.0
O53 O 0.06617 0.92019 0.05438 0.0
O54 O 0.27272 0.11871 0.00312 0.0
O55 O 0.25532 0.01729 0.0096 0.0
O56 O 0.13576 0.05926 0.08079 0.0
O57 O 0.12311 0.09054 0.81546 0.0
C58 C 0.11154 0.08606 -0.01881 0.0
O59 O 0.2261 0.95843 0.89773 0.0
O60 O 0.14565 0.85486 0.9227 0.0
C61 C 0.16676 0.01883 0.52041 0.0
C62 C 0.19649 0.89781 0.843 0.0
Zn63 Zn 0.53371 0.45611 0.12488 0.0
Zn64 Zn 0.75579 0.56963 0.52307 0.0
Zn65 Zn 0.6467 0.49692 0.28206 0.0
C66 C 0.63457 0.49625 0.68965 0.0
C67 C 0.76926 0.47543 0.38504 0.0
O68 O 0.63518 0.4715 -0.00822 0.0
O69 O 0.55758 0.49157 0.89091 0.0
C70 C 0.56301 0.55223 0.41188 0.0
O71 O 0.61032 0.4591 0.54518 0.0
O72 O 0.68488 0.55344 0.68736 0.0
O73 O 0.78273 0.50306 0.53996 0.0
O74 O 0.73006 0.48116 0.27463 0.0
O75 O 0.5181 0.50128 0.32904 0.0
O76 O 0.62468 0.57274 0.38168 0.0
O77 O 0.56968 0.41039 0.40483 0.0
O78 O 0.51889 0.36633 0.14283 0.0
C79 C 0.53129 0.35984 0.30352 0.0
O80 O 0.67647 0.5975 0.23789 0.0
O81 O 0.77946 0.62283 0.30033 0.0
C82 C 0.60294 0.47828 0.86059 0.0
C83 C 0.73875 0.63192 0.20996 0.0
Zn84 Zn 0.40633 0.19 0.51638 0.0
Zn85 Zn 0.5263 0.08543 0.12166 0.0
Zn86 Zn 0.48103 0.15095 0.28173 0.0
C87 C 0.62014 0.17676 0.32507 0.0
C88 C 0.42859 0.01499 0.3852 0.0
O89 O 0.37817 0.07925 0.22461 0.0
O90 O 0.34712 0.15187 0.29722 0.0
C91 C 0.49975 0.29439 0.36955 0.0
O92 O 0.56851 0.16096 0.41941 0.0
O93 O 0.61453 0.16402 0.15813 0.0
O94 O 0.48189 0.02402 0.31582 0.0
O95 O 0.40569 0.05344 0.3519 0.0
O96 O 0.47223 0.28385 0.5204 0.0
O97 O 0.495 0.2476 0.26533 0.0
O98 O 0.51975 0.15474 0.54903 0.0
O99 O 0.42836 0.1419 0.68526 0.0
C100 C 0.48409 0.14485 0.69021 0.0
O101 O 0.50735 0.16815 -0.00185 0.0
O102 O 0.49082 0.07272 0.88101 0.0
C103 C 0.33936 0.10262 0.20259 0.0
C104 C 0.50209 0.13067 0.86095 0.0
Zn105 Zn 0.79241 0.2061 0.5086 0.0
Zn106 Zn 0.90023 0.43752 0.14916 0.0
Zn107 Zn 0.8289 0.33007 0.29343 0.0
C108 C 0.80526 0.44394 0.32142 0.0
C109 C 0.96473 0.41218 0.44199 0.0
O110 O 0.9027 0.30532 0.21843 0.0
O111 O 0.82868 0.20131 0.26315 0.0
C112 C 0.68486 0.20075 0.4041 0.0
O113 O 0.81835 0.40825 0.42226 0.0
O114 O 0.82549 0.45413 0.16253 0.0
O115 O 0.9595 0.45603 0.36066 0.0
O116 O 0.92502 0.3509 0.40194 0.0
O117 O 0.69471 0.16548 0.51096 0.0
O118 O 0.73323 0.25174 0.33925 0.0
O119 O 0.82974 0.36737 0.56051 0.0
O120 O 0.83127 0.28198 0.68588 0.0
C121 C 0.83504 0.33779 0.69826 0.0
O122 O 0.81342 0.33806 0.0058 0.0
O123 O 0.91222 0.4117 0.90894 0.0
C124 C 0.87643 0.24409 0.17455 0.0
C125 C 0.8523 0.36859 0.87624 0.0
Zn126 Zn 0.19319 0.77482 0.40321 0.0
Zn127 Zn 0.42695 0.9137 0.84267 0.0
Zn128 Zn 0.30973 0.83159 0.55499 0.0
C129 C 0.29954 0.82865 0.96438 0.0
C130 C 0.42485 0.80439 0.75165 0.0
O131 O 0.30428 0.80768 0.26745 0.0
O132 O 0.21659 0.81055 0.16457 0.0
C133 C 0.21883 0.8742 0.69 0.0
O134 O 0.28284 0.79013 0.82135 0.0
O135 O 0.34306 0.88913 0.96258 0.0
O136 O 0.45642 0.8479 0.87413 0.0
O137 O 0.38015 0.80667 0.65643 0.0
O138 O 0.1764 0.8196 0.61544 0.0
O139 O 0.28032 0.90071 0.65038 0.0
O140 O 0.24767 0.74138 0.67818 0.0
O141 O 0.19379 0.69069 0.42486 0.0
C142 C 0.21459 0.68851 0.57989 0.0
O143 O 0.34108 0.93369 0.55658 0.0
O144 O 0.44468 0.95748 0.60681 0.0
C145 C 0.26815 0.80703 0.13517 0.0
C146 C 0.40304 0.96796 0.52578 0.0
Zn147 Zn 0.09537 0.53573 0.85845 0.0
Zn148 Zn 0.21027 0.44845 0.52718 0.0
Zn149 Zn 0.14771 0.48536 0.69366 0.0
C150 C 0.1667 0.49235 0.28288 0.0
C151 C 0.2883 0.53276 0.76081 0.0
O152 O 0.18355 0.50839 0.97142 0.0
O153 O 0.09247 0.49991 0.09144 0.0
C154 C 0.01201 0.43607 0.59281 0.0
O155 O 0.16897 0.52653 0.42553 0.0
O156 O 0.16956 0.44027 0.29444 0.0
O157 O 0.28479 0.5388 0.594 0.0
O158 O 0.23427 0.50077 0.8472 0.0
O159 O 0.02746 0.49231 0.66015 0.0
O160 O 0.04643 0.40942 0.63504 0.0
O161 O 0.16791 0.5725 0.55977 0.0
O162 O 0.17507 0.62218 0.82373 0.0
C163 C 0.18799 0.62537 0.65854 0.0
O164 O 0.08116 0.38204 0.68764 0.0
O165 O 0.17193 0.37471 0.6992 0.0
C166 C 0.14899 0.50534 0.10971 0.0
C167 C 0.11121 0.35134 0.73383 0.0
Zn168 Zn 0.45353 0.53147 0.89078 0.0
Zn169 Zn 0.54665 0.76336 0.50924 0.0
Zn170 Zn 0.49143 0.66261 0.65561 0.0
C171 C 0.45069 0.763 0.68685 0.0
C172 C 0.62373 0.75132 0.79064 0.0
O173 O 0.56575 0.63501 0.61623 0.0
O174 O 0.48968 0.52951 0.64371 0.0
C175 C 0.35131 0.54276 0.82678 0.0
O176 O 0.47374 0.73613 0.79071 0.0
O177 O 0.46262 0.76552 0.52146 0.0
O178 O 0.61017 0.79189 0.72095 0.0
O179 O 0.59072 0.6903 0.74088 0.0
O180 O 0.35434 0.49857 0.91265 0.0
O181 O 0.40429 0.58833 0.7614 0.0
O182 O 0.46756 0.67647 0.92858 0.0
O183 O 0.50487 0.61315 0.0444 0.0
C184 C 0.48823 0.6569 0.06262 0.0
O185 O 0.46444 0.65768 0.3697 0.0
O186 O 0.56034 0.73622 0.27112 0.0
C187 C 0.54078 0.57407 0.56824 0.0
C188 C 0.50206 0.68903 0.23885 0.0
loop_
_geom_bond_atom_site_label_1
_geom_bond_atom_site_label_2
_geom_bond_distance
_geom_bond_site_symmetry_2
_ccdc_geom_bond_type
Zn0 O6 1.920 . S
Zn0 O12 1.898 . S
Zn0 O15 1.905 . S
Zn1 O9 1.905 . S
Zn1 O10 1.898 . S
Zn1 O18 1.920 . S
Zn2 O5 2.080 1_554 S
Zn2 O8 2.114 1_455 S
Zn2 O11 2.120 1_455 S
Zn2 O13 2.120 1_554 S
Zn2 O14 2.114 . S
Zn2 O17 2.080 1_454 S
C3 O8 1.166 1_556 S
C3 O9 1.182 . S
C4 O10 1.167 1_554 S
C4 O11 1.299 . S
O5 Zn2 2.080 1_556 S
O5 C19 1.305 . S
O6 Zn0 1.920 . S
O6 C19 1.234 1_554 S
C7 O12 1.167 . S
C7 O13 1.299 1_554 S
O8 Zn2 2.114 1_655 S
O8 C3 1.166 1_554 S
O9 Zn1 1.905 . S
O9 C3 1.182 . S
O10 Zn1 1.898 . S
O10 C4 1.167 1_556 S
O11 Zn2 2.120 1_655 S
O11 C4 1.299 . S
O12 Zn0 1.898 . S
O12 C7 1.167 . S
O13 Zn2 2.120 1_556 S
O13 C7 1.299 1_556 S
O14 Zn2 2.114 . S
O14 C16 1.166 . S
O15 Zn0 1.905 . S
O15 C16 1.182 . S
C16 O14 1.166 . S
C16 O15 1.182 . S
O17 Zn2 2.080 1_656 S
O17 C20 1.305 . S
O18 Zn1 1.920 . S
O18 C20 1.234 . S
C19 O5 1.305 . S
C19 O6 1.234 1_556 S
C20 O17 1.305 . S
C20 O18 1.234 . S
Zn21 O27 1.920 . S
Zn21 O33 1.898 . S
Zn21 O36 1.908 . S
Zn22 O30 1.905 . S
Zn22 O31 1.898 . S
Zn22 O39 1.920 1_556 S
Zn23 O26 2.080 . S
Zn23 O29 2.114 1_554 S
Zn23 O32 2.120 . S
Zn23 O34 2.120 1_554 S
Zn23 O35 2.114 1_554 S
Zn23 O38 2.080 . S
C24 O29 1.166 . S
C24 O30 1.182 . S
C25 O31 1.167 . S
C25 O32 1.299 1_556 S
O26 Zn23 2.080 . S
O26 C40 1.305 . S
O27 Zn21 1.920 . S
O27 C40 1.234 . S
C28 O33 1.167 1_556 S
C28 O34 1.299 . S
O29 Zn23 2.114 1_556 S
O29 C24 1.166 . S
O30 Zn22 1.905 . S
O30 C24 1.182 . S
O31 Zn22 1.898 . S
O31 C25 1.167 . S
O32 Zn23 2.120 . S
O32 C25 1.299 1_554 S
O33 Zn21 1.898 . S
O33 C28 1.167 1_554 S
O34 Zn23 2.120 1_556 S
O34 C28 1.299 . S
O35 Zn23 2.114 1_556 S
O35 C37 1.166 1_556 S
O36 Zn21 1.908 . S
O36 C37 1.186 . S
C37 O35 1.166 1_554 S
C37 O36 1.186 . S
O38 Zn23 2.080 . S
O38 C41 1.305 . S
O39 Zn22 1.920 1_554 S
O39 C41 1.234 . S
C40 O26 1.305 . S
C40 O27 1.234 . S
C41 O38 1.305 . S
C41 O39 1.234 . S
Zn42 O48 1.920 . S
Zn42 O54 1.898 . S
Zn42 O57 1.905 . S
Zn43 O51 1.905 . S
Zn43 O52 1.898 . S
Zn43 O60 1.920 . S
Zn44 O47 2.080 1_554 S
Zn44 O50 2.114 1_545 S
Zn44 O53 2.120 1_544 S
Zn44 O55 2.120 . S
Zn44 O56 2.114 . S
Zn44 O59 2.080 1_544 S
C45 O50 1.166 . S
C45 O51 1.182 . S
C46 O52 1.167 . S
C46 O53 1.299 1_554 S
O47 Zn44 2.080 1_556 S
O47 C61 1.305 . S
O48 Zn42 1.920 . S
O48 C61 1.234 . S
C49 O54 1.167 1_554 S
C49 O55 1.299 . S
O50 Zn44 2.114 1_565 S
O50 C45 1.166 . S
O51 Zn43 1.905 . S
O51 C45 1.182 . S
O52 Zn43 1.898 . S
O52 C46 1.167 . S
O53 Zn44 2.120 1_566 S
O53 C46 1.299 1_556 S
O54 Zn42 1.898 . S
O54 C49 1.167 1_556 S
O55 Zn44 2.120 . S
O55 C49 1.299 . S
O56 Zn44 2.114 . S
O56 C58 1.166 1_554 S
O57 Zn42 1.905 . S
O57 C58 1.182 . S
C58 O56 1.166 1_556 S
C58 O57 1.182 . S
O59 Zn44 2.080 1_566 S
O59 C62 1.305 . S
O60 Zn43 1.920 . S
O60 C62 1.234 1_554 S
C61 O47 1.305 . S
C61 O48 1.234 . S
C62 O59 1.305 . S
C62 O60 1.234 1_556 S
Zn63 O69 1.920 1_554 S
Zn63 O75 1.898 . S
Zn63 O78 1.905 . S
Zn64 O72 1.905 . S
Zn64 O73 1.898 . S
Zn64 O81 1.920 . S
Zn65 O68 2.080 . S
Zn65 O71 2.114 . S
Zn65 O74 2.120 . S
Zn65 O76 2.120 . S
Zn65 O77 2.114 . S
Zn65 O80 2.080 . S
C66 O71 1.166 . S
C66 O72 1.182 . S
C67 O73 1.167 . S
C67 O74 1.299 . S
O68 Zn65 2.080 . S
O68 C82 1.305 1_554 S
O69 Zn63 1.920 1_556 S
O69 C82 1.234 . S
C70 O75 1.167 . S
C70 O76 1.299 . S
O71 Zn65 2.114 . S
O71 C66 1.166 . S
O72 Zn64 1.905 . S
O72 C66 1.182 . S
O73 Zn64 1.898 . S
O73 C67 1.167 . S
O74 Zn65 2.120 . S
O74 C67 1.299 . S
O75 Zn63 1.898 . S
O75 C70 1.167 . S
O76 Zn65 2.120 . S
O76 C70 1.299 . S
O77 Zn65 2.114 . S
O77 C79 1.166 . S
O78 Zn63 1.905 . S
O78 C79 1.182 . S
C79 O77 1.166 . S
C79 O78 1.182 . S
O80 Zn65 2.080 . S
O80 C83 1.305 . S
O81 Zn64 1.920 . S
O81 C83 1.234 . S
C82 O68 1.305 1_556 S
C82 O69 1.234 . S
C83 O80 1.305 . S
C83 O81 1.234 . S
Zn84 O90 1.920 . S
Zn84 O96 1.898 . S
Zn84 O99 1.905 . S
Zn85 O93 1.905 . S
Zn85 O94 1.898 . S
Zn85 O102 1.920 1_554 S
Zn86 O89 2.080 . S
Zn86 O92 2.114 . S
Zn86 O95 2.120 . S
Zn86 O97 2.120 . S
Zn86 O98 2.114 . S
Zn86 O101 2.080 . S
C87 O92 1.166 . S
C87 O93 1.182 . S
C88 O94 1.167 . S
C88 O95 1.299 . S
O89 Zn86 2.080 . S
O89 C103 1.305 . S
O90 Zn84 1.920 . S
O90 C103 1.234 . S
C91 O96 1.167 . S
C91 O97 1.299 . S
O92 Zn86 2.114 . S
O92 C87 1.166 . S
O93 Zn85 1.905 . S
O93 C87 1.182 . S
O94 Zn85 1.898 . S
O94 C88 1.167 . S
O95 Zn86 2.120 . S
O95 C88 1.299 . S
O96 Zn84 1.898 . S
O96 C91 1.167 . S
O97 Zn86 2.120 . S
O97 C91 1.299 . S
O98 Zn86 2.114 . S
O98 C100 1.166 . S
O99 Zn84 1.905 . S
O99 C100 1.182 . S
C100 O98 1.166 . S
C100 O99 1.182 . S
O101 Zn86 2.080 . S
O101 C104 1.305 1_554 S
O102 Zn85 1.920 1_556 S
O102 C104 1.234 . S
C103 O89 1.305 . S
C103 O90 1.234 . S
C104 O101 1.305 1_556 S
C104 O102 1.234 . S
Zn105 O111 1.920 . S
Zn105 O117 1.898 . S
Zn105 O120 1.905 . S
Zn106 O114 1.905 . S
Zn106 O115 1.898 . S
Zn106 O123 1.920 1_554 S
Zn107 O110 2.080 . S
Zn107 O113 2.114 . S
Zn107 O116 2.120 . S
Zn107 O118 2.120 . S
Zn107 O119 2.114 . S
Zn107 O122 2.080 . S
C108 O113 1.166 . S
C108 O114 1.182 . S
C109 O115 1.167 . S
C109 O116 1.299 . S
O110 Zn107 2.080 . S
O110 C124 1.305 . S
O111 Zn105 1.920 . S
O111 C124 1.234 . S
C112 O117 1.167 . S
C112 O118 1.299 . S
O113 Zn107 2.114 . S
O113 C108 1.166 . S
O114 Zn106 1.905 . S
O114 C108 1.182 . S
O115 Zn106 1.898 . S
O115 C109 1.167 . S
O116 Zn107 2.120 . S
O116 C109 1.299 . S
O117 Zn105 1.898 . S
O117 C112 1.167 . S
O118 Zn107 2.120 . S
O118 C112 1.299 . S
O119 Zn107 2.114 . S
O119 C121 1.166 . S
O120 Zn105 1.905 . S
O120 C121 1.182 . S
C121 O119 1.166 . S
C121 O120 1.182 . S
O122 Zn107 2.080 . S
O122 C125 1.305 1_554 S
O123 Zn106 1.920 1_556 S
O123 C125 1.234 . S
C124 O110 1.305 . S
C124 O111 1.234 . S
C125 O122 1.305 1_556 S
C125 O123 1.234 . S
Zn126 O132 1.920 . S
Zn126 O138 1.898 . S
Zn126 O141 1.905 . S
Zn127 O135 1.905 1_556 S
Zn127 O136 1.898 . S
Zn127 O144 1.920 . S
Zn128 O131 2.080 . S
Zn128 O134 2.114 . S
Zn128 O137 2.120 . S
Zn128 O139 2.120 . S
Zn128 O140 2.114 . S
Zn128 O143 2.080 . S
C129 O134 1.166 1_554 S
C129 O135 1.182 . S
C130 O136 1.167 . S
C130 O137 1.299 . S
O131 Zn128 2.080 . S
O131 C145 1.305 . S
O132 Zn126 1.920 . S
O132 C145 1.234 . S
C133 O138 1.167 . S
C133 O139 1.299 . S
O134 Zn128 2.114 . S
O134 C129 1.166 1_556 S
O135 Zn127 1.905 1_554 S
O135 C129 1.182 . S
O136 Zn127 1.898 . S
O136 C130 1.167 . S
O137 Zn128 2.120 . S
O137 C130 1.299 . S
O138 Zn126 1.898 . S
O138 C133 1.167 . S
O139 Zn128 2.120 . S
O139 C133 1.299 . S
O140 Zn128 2.114 . S
O140 C142 1.166 . S
O141 Zn126 1.905 . S
O141 C142 1.182 . S
C142 O140 1.166 . S
C142 O141 1.182 . S
O143 Zn128 2.080 . S
O143 C146 1.305 . S
O144 Zn127 1.920 . S
O144 C146 1.234 . S
C145 O131 1.305 . S
C145 O132 1.234 . S
C146 O143 1.305 . S
C146 O144 1.234 . S
Zn147 O153 1.920 1_556 S
Zn147 O159 1.898 . S
Zn147 O162 1.905 . S
Zn148 O156 1.905 . S
Zn148 O157 1.898 . S
Zn148 O165 1.920 . S
Zn149 O152 2.080 . S
Zn149 O155 2.114 . S
Zn149 O158 2.120 . S
Zn149 O160 2.120 . S
Zn149 O161 2.114 . S
Zn149 O164 2.080 . S
C150 O155 1.166 . S
C150 O156 1.182 . S
C151 O157 1.167 . S
C151 O158 1.299 . S
O152 Zn149 2.080 . S
O152 C166 1.305 1_556 S
O153 Zn147 1.920 1_554 S
O153 C166 1.234 . S
C154 O159 1.167 . S
C154 O160 1.299 . S
O155 Zn149 2.114 . S
O155 C150 1.166 . S
O156 Zn148 1.905 . S
O156 C150 1.182 . S
O157 Zn148 1.898 . S
O157 C151 1.167 . S
O158 Zn149 2.120 . S
O158 C151 1.299 . S
O159 Zn147 1.898 . S
O159 C154 1.167 . S
O160 Zn149 2.120 . S
O160 C154 1.299 . S
O161 Zn149 2.114 . S
O161 C163 1.166 . S
O162 Zn147 1.905 . S
O162 C163 1.182 . S
C163 O161 1.166 . S
C163 O162 1.182 . S
O164 Zn149 2.080 . S
O164 C167 1.305 . S
O165 Zn148 1.920 . S
O165 C167 1.234 . S
C166 O152 1.305 1_554 S
C166 O153 1.234 . S
C167 O164 1.305 . S
C167 O165 1.234 . S
Zn168 O174 1.920 . S
Zn168 O180 1.898 . S
Zn168 O183 1.905 1_556 S
Zn169 O177 1.905 . S
Zn169 O178 1.898 . S
Zn169 O186 1.920 . S
Zn170 O173 2.080 . S
Zn170 O176 2.114 . S
Zn170 O179 2.120 . S
Zn170 O181 2.120 . S
Zn170 O182 2.114 . S
Zn170 O185 2.080 . S
C171 O176 1.166 . S
C171 O177 1.182 . S
C172 O178 1.167 . S
C172 O179 1.299 . S
O173 Zn170 2.080 . S
O173 C187 1.305 . S
O174 Zn168 1.920 . S
O174 C187 1.234 . S
C175 O180 1.167 . S
C175 O181 1.299 . S
O176 Zn170 2.114 . S
O176 C171 1.166 . S
O177 Zn169 1.905 . S
O177 C171 1.182 . S
O178 Zn169 1.898 . S
O178 C172 1.167 . S
O179 Zn170 2.120 . S
O179 C172 1.299 . S
O180 Zn168 1.898 . S
O180 C175 1.167 . S
O181 Zn170 2.120 . S
O181 C175 1.299 . S
O182 Zn170 2.114 . S
O182 C184 1.166 1_556 S
O183 Zn168 1.905 1_554 S
O183 C184 1.182 . S
C184 O182 1.166 1_554 S
C184 O183 1.182 . S
O185 Zn170 2.080 . S
O185 C188 1.305 . S
O186 Zn169 1.920 . S
O186 C188 1.234 . S
C187 O173 1.305 . S
C187 O174 1.234 . S
C188 O185 1.305 . S
C188 O186 1.234 . S
C19 C167 1.465 . S
C28 C172 1.519 . S
C62 C133 1.491 . S
C103 C49 1.491 . S
C124 C4 1.504 . S
C41 C83 1.481 . S
C154 C109 1.505 1_455 S
C187 C70 1.477 . S
C88 C146 1.492 1_545 S
C58 C7 1.133 1_556 S
C37 C3 1.151 1_564 S
C25 C46 1.079 1_656 S
C67 C108 1.124 . S
C79 C91 1.120 . S
C87 C112 1.128 . S
C171 C130 1.114 . S
C163 C142 1.171 . S
C175 C151 1.098 . S
C20 C16 2.270 1_655 S
C24 C40 2.256 . S
C61 C45 2.238 1_545 S
C66 C82 2.254 . S
C100 C104 2.255 . S
C121 C125 2.255 . S
C145 C129 2.271 . S
C166 C150 2.252 . S
C188 C184 2.240 . S
