# Generated by pormake.
# Topology hex, (8)-cn, num edge types: 1
# Building blocks:
#     Node 0, Type 0, BuildingBlock: AJUNOK_clean_sbu_0, # of connection points: 8
#     Edge 1, Type (0, 0), BuildingBlock: AJUNOK_clean_linker_0, # of connection points: 2
#     Edge 2, Type (0, 0), BuildingBlock: AJUNOK_clean_linker_0, # of connection points: 2
#     Edge 3, Type (0, 0), BuildingBlock: AJUNOK_clean_linker_0, # of connection points: 2
#     Edge 4, Type (0, 0), BuildingBlock: AJUNOK_clean_linker_0, # of connection points: 2
# Relax obj value: 0.041
# Max RMSD: 0.088
# Mean RMSD: 0.088
data_MOF--net-hex--node1-AJUNOK_clean_sbu_0--edge1-AJUNOK_clean_linker_0
_symmetry_space_group_name_H-M    P1
_symmetry_Int_Tables_number       1
_symmetry_cell_setting            triclinic
loop_
_symmetry_equiv_pos_as_xyz
'x, y, z'
_cell_length_a     16.997986
_cell_length_b     17.300126
_cell_length_c     11.249911
_cell_angle_alpha  90.346409
_cell_angle_beta   90.54539
_cell_angle_gamma 125.626
loop_
_atom_site_label
_atom_site_type_symbol
_atom_site_fract_x
_atom_site_fract_y
_atom_site_fract_z
_atom_type_partial_charge
Cd0 Cd 0.1073 0.08987 -0.00522 0.0
Cd1 Cd 0.83179 0.80834 -0.00999 0.0
C2 C -0.01798 0.1579 0.09756 0.0
N3 N -0.00141 0.12969 -0.00651 0.0
C4 C 0.93878 0.2027 0.88181 0.0
C5 C 0.92695 0.23819 -0.01252 0.0
C6 C 0.94507 0.21191 0.09661 0.0
C7 C -0.02453 0.14861 0.88682 0.0
H8 H 0.00467 0.14503 0.18078 0.0
H9 H -0.00723 0.12837 0.80542 0.0
C10 C -0.02068 0.93501 0.74974 0.0
C11 C 0.88891 0.67407 0.88547 0.0
C12 C 0.8972 0.59835 0.88268 0.0
C13 C 0.89699 0.5566 -0.01055 0.0
C14 C 0.89313 0.59549 0.09733 0.0
C15 C 0.88496 0.67134 0.09607 0.0
N16 N 0.88213 0.70832 -0.00892 0.0
H17 H 0.88283 0.7021 0.80304 0.0
H18 H 0.87627 0.69764 0.1787 0.0
C19 C 0.75988 0.93052 0.89305 0.0
N20 N 0.79198 0.91606 -0.00414 0.0
C21 C 0.72172 -0.0226 0.11043 0.0
C22 C 0.68037 -0.01494 0.00659 0.0
C23 C 0.70414 -0.03404 0.89635 0.0
C24 C 0.77649 0.94114 0.10319 0.0
H25 H 0.77046 0.90697 0.80932 0.0
H26 H 0.80002 0.92624 0.1839 0.0
C27 C -0.01618 0.93882 0.23575 0.0
C28 C 0.26617 0.28302 -0.01175 0.0
N29 N 0.21113 0.04305 0.00043 0.0
C30 C 0.24943 0.04356 0.10735 0.0
C31 C 0.32457 0.03268 0.11307 0.0
C32 C 0.36111 0.022 0.00767 0.0
C33 C 0.3197 0.02099 0.89856 0.0
C34 C 0.24443 0.0319 0.89693 0.0
C35 C 0.6351 0.65037 0.98574 0.0
O36 O 0.04384 0.00712 0.80985 0.0
O37 O 0.90541 0.86453 0.79869 0.0
O38 O 0.91137 0.86816 0.18138 0.0
O39 O 0.04815 0.01259 0.18098 0.0
O40 O 0.22681 0.23403 0.89392 0.0
O41 O 0.23046 0.24149 0.08609 0.0
O42 O 0.6814 0.68691 0.08282 0.0
O43 O 0.68067 0.68877 0.89087 0.0
H44 H 0.22458 0.05651 0.18803 0.0
H45 H 0.2152 0.03515 0.81286 0.0
H46 H 0.92589 0.22192 0.79608 0.0
H47 H 0.93863 0.23948 0.17982 0.0
H48 H 0.89958 0.57012 0.79764 0.0
H49 H 0.89449 0.56639 0.18165 0.0
H50 H 0.70619 -0.00706 0.19693 0.0
H51 H 0.6732 -0.02945 0.8144 0.0
H52 H 0.35603 0.03597 0.19878 0.0
H53 H 0.34612 0.01307 0.81542 0.0
C54 C 0.9741 0.39564 0.91515 0.0
C55 C 0.91187 0.31438 0.98341 0.0
C56 C 0.96825 0.4731 0.91718 0.0
C57 C 0.89991 0.47237 -0.01248 0.0
H58 H 0.02987 0.40066 0.86236 0.0
H59 H 0.01915 0.53495 0.86523 0.0
S60 S 0.71367 0.27237 0.17288 0.0
N61 N 0.77609 0.23519 0.11765 0.0
N62 N 0.76351 0.38015 0.12002 0.0
C63 C 0.83528 0.39032 0.05361 0.0
C64 C 0.84167 0.31154 0.05194 0.0
C65 C 0.60235 0.06435 0.94007 0.0
C66 C 0.60205 -0.00123 0.01371 0.0
C67 C 0.52456 0.07207 0.93919 0.0
C68 C 0.44353 0.0141 0.0114 0.0
H69 H 0.66308 0.10982 0.88267 0.0
H70 H 0.52789 0.1239 0.88172 0.0
S71 S 0.40415 0.8263 0.21326 0.0
N72 N 0.51175 0.87181 0.15644 0.0
N73 N 0.36612 0.88655 0.15464 0.0
C74 C 0.44234 -0.05179 0.08508 0.0
C75 C 0.52138 0.94044 0.08619 0.0
C76 C 0.40321 0.42802 0.09181 0.0
C77 C 0.3537 0.38167 0.98509 0.0
C78 C 0.49242 0.51696 0.09118 0.0
C79 C 0.53543 0.5629 0.98381 0.0
H80 H 0.37469 0.3941 0.17661 0.0
H81 H 0.5293 0.54824 0.17554 0.0
S82 S 0.42944 0.47697 0.68062 0.0
N83 N 0.34964 0.39199 0.76958 0.0
N84 N 0.51769 0.55957 0.76837 0.0
C85 C 0.48419 0.51984 0.87668 0.0
C86 C 0.39319 0.42907 0.87733 0.0
C87 C 0.91674 0.85506 0.55196 0.0
C88 C -0.01234 0.93536 0.61936 0.0
C89 C 0.91792 0.85597 0.428 0.0
C90 C -0.00999 0.93722 0.36648 0.0
H91 H 0.85844 0.79136 0.59493 0.0
H92 H 0.86039 0.79291 0.38034 0.0
S93 S 0.19697 0.16407 0.5015 0.0
N94 N 0.13561 0.09681 0.61559 0.0
N95 N 0.13773 0.09856 0.38241 0.0
C96 C 0.06374 0.01694 0.43273 0.0
C97 C 0.06257 0.01597 0.55918 0.0
loop_
_geom_bond_atom_site_label_1
_geom_bond_atom_site_label_2
_geom_bond_distance
_geom_bond_site_symmetry_2
_ccdc_geom_bond_type
Cd0 N3 2.334 . S
Cd0 N29 2.304 . S
Cd0 O36 2.268 1_554 S
Cd0 O39 2.273 . S
Cd0 O40 2.417 1_554 S
Cd0 O41 2.330 . S
Cd1 N16 2.304 . S
Cd1 N20 2.334 . S
Cd1 O37 2.273 . S
Cd1 O38 2.268 1_556 S
Cd1 O42 2.417 1_556 S
Cd1 O43 2.330 . S
C2 N3 1.332 . S
C2 C6 1.381 . S
C2 H8 0.931 . S
N3 Cd0 2.334 . S
N3 C2 1.332 . S
N3 C7 1.328 1_554 S
C4 C5 1.396 1_556 S
C4 C7 1.378 1_655 S
C4 H46 0.931 . S
C5 C4 1.396 1_554 S
C5 C6 1.382 1_655 S
C6 C2 1.381 . S
C6 C5 1.382 1_455 S
C6 H47 0.930 . S
C7 N3 1.328 1_556 S
C7 C4 1.378 1_455 S
C7 H9 0.930 . S
H8 C2 0.931 . S
H9 C7 0.930 . S
C10 O36 1.238 1_665 S
C10 O37 1.253 . S
C11 C12 1.379 . S
C11 N16 1.337 . S
C11 H17 0.929 . S
C12 C11 1.379 . S
C12 C13 1.380 1_655 S
C12 H48 0.929 . S
C13 C12 1.380 1_455 S
C13 C14 1.399 1_556 S
C14 C13 1.399 1_554 S
C14 C15 1.376 1_455 S
C14 H49 0.931 . S
C15 C14 1.376 1_655 S
C15 N16 1.338 1_554 S
C15 H18 0.930 . S
N16 Cd1 2.304 . S
N16 C11 1.337 . S
N16 C15 1.338 1_556 S
H17 C11 0.929 . S
H18 C15 0.930 . S
C19 N20 1.332 . S
C19 C23 1.381 . S
C19 H25 0.931 . S
N20 Cd1 2.334 . S
N20 C19 1.332 . S
N20 C24 1.328 1_556 S
C21 C22 1.396 1_554 S
C21 C24 1.378 1_545 S
C21 H50 0.931 . S
C22 C21 1.396 1_556 S
C22 C23 1.382 1_545 S
C23 C19 1.381 . S
C23 C22 1.382 1_565 S
C23 H51 0.930 . S
C24 N20 1.328 1_554 S
C24 C21 1.378 1_565 S
C24 H26 0.930 . S
H25 C19 0.931 . S
H26 C24 0.930 . S
C27 O38 1.238 1_445 S
C27 O39 1.253 . S
C28 O40 1.239 . S
C28 O41 1.230 1_556 S
N29 Cd0 2.304 . S
N29 C30 1.337 . S
N29 C34 1.338 1_554 S
C30 N29 1.337 . S
C30 C31 1.379 . S
C30 H44 0.929 . S
C31 C30 1.379 . S
C31 C32 1.380 1_545 S
C31 H52 0.929 . S
C32 C31 1.380 1_565 S
C32 C33 1.399 1_554 S
C33 C32 1.399 1_556 S
C33 C34 1.376 1_565 S
C33 H53 0.931 . S
C34 N29 1.338 1_556 S
C34 C33 1.376 1_545 S
C34 H45 0.930 . S
C35 O42 1.239 . S
C35 O43 1.230 1_554 S
O36 Cd0 2.268 1_556 S
O36 C10 1.238 1_445 S
O37 Cd1 2.273 . S
O37 C10 1.253 . S
O38 Cd1 2.268 1_554 S
O38 C27 1.238 1_665 S
O39 Cd0 2.273 . S
O39 C27 1.253 . S
O40 Cd0 2.417 1_556 S
O40 C28 1.239 . S
O41 Cd0 2.330 . S
O41 C28 1.230 1_554 S
O42 Cd1 2.417 1_554 S
O42 C35 1.239 . S
O43 Cd1 2.330 . S
O43 C35 1.230 1_556 S
H44 C30 0.929 . S
H45 C34 0.930 . S
H46 C4 0.931 . S
H47 C6 0.930 . S
H48 C12 0.929 . S
H49 C14 0.931 . S
H50 C21 0.931 . S
H51 C23 0.930 . S
H52 C31 0.929 . S
H53 C33 0.931 . S
C54 C55 1.369 1_456 S
C54 C56 1.419 . S
C54 H58 0.930 . S
C55 C54 1.369 1_654 S
C55 C64 1.429 . S
C56 C54 1.419 . S
C56 C57 1.363 . S
C56 H59 0.929 . S
C57 C56 1.363 . S
C57 C63 1.428 1_456 S
H58 C54 0.930 . S
H59 C56 0.929 . S
S60 N61 1.613 . S
S60 N62 1.610 . S
N61 S60 1.613 . S
N61 C64 1.350 . S
N62 S60 1.610 . S
N62 C63 1.351 . S
C63 C57 1.428 1_654 S
C63 N62 1.351 . S
C63 C64 1.434 . S
C64 C55 1.429 . S
C64 N61 1.350 . S
C64 C63 1.434 . S
C65 C66 1.369 1_565 S
C65 C67 1.419 . S
C65 H69 0.930 . S
C66 C65 1.369 1_545 S
C66 C75 1.429 1_556 S
C67 C65 1.419 . S
C67 C68 1.363 1_556 S
C67 H70 0.929 . S
C68 C67 1.363 1_554 S
C68 C74 1.428 1_565 S
H69 C65 0.930 . S
H70 C67 0.929 . S
S71 N72 1.613 . S
S71 N73 1.610 . S
N72 S71 1.613 . S
N72 C75 1.350 . S
N73 S71 1.610 . S
N73 C74 1.351 . S
C74 C68 1.428 1_545 S
C74 N73 1.351 . S
C74 C75 1.434 . S
C75 C66 1.429 1_554 S
C75 N72 1.350 . S
C75 C74 1.434 . S
C76 C77 1.369 1_554 S
C76 C78 1.419 . S
C76 H80 0.930 . S
C77 C76 1.369 1_556 S
C77 C86 1.429 . S
C78 C76 1.419 . S
C78 C79 1.363 . S
C78 H81 0.929 . S
C79 C78 1.363 . S
C79 C85 1.428 1_554 S
H80 C76 0.930 . S
H81 C78 0.929 . S
S82 N83 1.613 . S
S82 N84 1.610 . S
N83 S82 1.613 . S
N83 C86 1.350 . S
N84 S82 1.610 . S
N84 C85 1.351 . S
C85 C79 1.428 1_556 S
C85 N84 1.351 . S
C85 C86 1.434 . S
C86 C77 1.429 . S
C86 N83 1.350 . S
C86 C85 1.434 . S
C87 C88 1.375 1_565 S
C87 C89 1.419 . S
C87 H91 0.930 . S
C88 C87 1.375 1_545 S
C88 C97 1.422 1_455 S
C89 C87 1.419 . S
C89 C90 1.364 1_455 S
C89 H92 0.929 . S
C90 C89 1.364 1_655 S
C90 C96 1.428 1_565 S
H91 C87 0.930 . S
H92 C89 0.929 . S
S93 N94 1.613 . S
S93 N95 1.610 . S
N94 S93 1.613 . S
N94 C97 1.350 . S
N95 S93 1.610 . S
N95 C96 1.351 . S
C96 C90 1.428 1_545 S
C96 N95 1.351 . S
C96 C97 1.434 . S
C97 C88 1.422 1_655 S
C97 N94 1.350 . S
C97 C96 1.434 . S
C55 C5 1.815 . S
C57 C13 1.805 . S
C66 C22 1.809 . S
C68 C32 1.810 . S
C77 C28 0.743 . S
C79 C35 0.738 . S
C88 C10 1.479 1_445 S
C90 C27 1.478 1_665 S
