# Generated by pormake.
# Topology pcu, (6)-cn, num edge types: 1
# Building blocks:
#     Node 0, Type 0, BuildingBlock: BETDIP_clean_sbu_0, # of connection points: 6
#     Edge 1, Type (0, 0), BuildingBlock: CIFDUS_clean_linker_0, # of connection points: 2
#     Edge 2, Type (0, 0), BuildingBlock: CIFDUS_clean_linker_0, # of connection points: 2
#     Edge 3, Type (0, 0), BuildingBlock: CIFDUS_clean_linker_0, # of connection points: 2
# Relax obj value: 0.000
# Max RMSD: 0.000
# Mean RMSD: 0.000
data_MOF--net-pcu--node1-BETDIP_clean_sbu_0--edge1-CIFDUS_clean_linker_0
_symmetry_space_group_name_H-M    P1
_symmetry_Int_Tables_number       1
_symmetry_cell_setting            triclinic
loop_
_symmetry_equiv_pos_as_xyz
'x, y, z'
_cell_length_a     23.309026
_cell_length_b     13.488671
_cell_length_c     12.48805
_cell_angle_alpha  88.973107
_cell_angle_beta   98.509515
_cell_angle_gamma 124.98783
loop_
_atom_site_label
_atom_site_type_symbol
_atom_site_fract_x
_atom_site_fract_y
_atom_site_fract_z
_atom_type_partial_charge
Tb0 Tb 0.95728 0.91735 1.01235 0.0
Tb1 Tb 0.11644 0.05817 0.02367 0.0
C2 C 0.83568 0.83571 0.05314 0.0
C3 C 0.78838 0.87535 0.04722 0.0
C4 C 0.73055 0.81487 0.1028 0.0
C5 C 0.68425 0.84977 0.09756 0.0
C6 C 0.69491 0.94599 0.03637 0.0
C7 C 0.75363 0.00735 0.98154 0.0
C8 C 0.8 0.97228 0.98694 0.0
C9 C 1.00101 0.95529 0.82356 0.0
C10 C 0.05368 0.20907 0.02406 0.0
C11 C 0.23818 0.13999 0.98341 0.0
C12 C 0.28539 0.10017 0.98907 0.0
C13 C 0.3432 0.16066 0.93344 0.0
C14 C 0.38945 0.12567 0.93851 0.0
C15 C 0.37877 0.02937 0.99958 0.0
C16 C 0.32006 0.96798 0.05444 0.0
C17 C 0.27374 0.00313 0.0492 0.0
C18 C 0.07238 0.02016 0.21232 0.0
C19 C 1.02005 0.76648 1.01174 0.0
O20 O 0.89376 0.89687 0.12549 0.0
O21 O 0.84718 0.81274 0.96025 0.0
O22 O 1.03078 0.02796 0.90723 0.0
O23 O 0.94072 0.86012 0.84073 0.0
O24 O 0.99278 0.10704 0.03794 0.0
O25 O 0.1076 0.20915 1.00259 0.0
O26 O 0.18025 0.07944 0.91071 0.0
O27 O 0.22647 0.16228 0.07639 0.0
O28 O 0.04299 0.94763 0.12862 0.0
O29 O 0.13265 0.11549 0.19526 0.0
O30 O 0.08093 0.8685 0.99778 0.0
O31 O 0.96616 0.76641 0.03337 0.0
H32 H 0.72114 0.74037 0.15032 0.0
H33 H 0.64044 0.80204 0.14239 0.0
H34 H 0.76314 0.08115 0.933 0.0
H35 H 0.84455 0.02012 0.94355 0.0
H36 H 0.35263 0.23524 0.88603 0.0
H37 H 0.43324 0.17342 0.89365 0.0
H38 H 0.31054 0.89411 0.10289 0.0
H39 H 0.2292 0.95527 0.09262 0.0
H40 H 0.13529 0.1643 0.40083 0.0
H41 H 0.95775 0.80752 0.26295 0.0
H42 H 0.92 0.75545 0.4401 0.0
H43 H 0.93795 0.81099 0.63499 0.0
H44 H 0.1156 0.16774 0.7728 0.0
H45 H 0.15328 0.21978 0.59565 0.0
C46 C 0.08831 0.07529 0.40975 0.0
C47 C 0.04914 -0.00988 0.31909 0.0
C48 C 0.06722 0.04572 0.51204 0.0
C49 C 0.98846 0.87498 0.33153 0.0
C50 C 0.96699 0.84498 0.43285 0.0
C51 C 0.98493 0.89999 0.62604 0.0
C52 C 1.02414 0.98517 0.7167 0.0
C53 C 1.00602 0.92953 0.52374 0.0
C54 C 0.08484 0.10028 0.70424 0.0
C55 C 0.10628 0.13027 0.60291 0.0
H56 H 0.52314 0.17828 0.02057 0.0
H57 H 0.34707 0.79986 0.99313 0.0
H58 H 0.42913 0.74121 1.00272 0.0
H59 H 0.55054 0.79706 1.0153 0.0
H60 H 0.7266 0.17548 0.04272 0.0
H61 H 0.64454 0.23413 0.0331 0.0
C62 C 0.50256 0.08289 1.01556 0.0
C63 C 0.4289 -0.00628 1.00601 0.0
C64 C 0.54999 0.0497 0.02017 0.0
C65 C 0.40347 0.87056 1.0018 0.0
C66 C 0.45035 0.83686 1.00655 0.0
C67 C 0.57111 0.89245 0.02029 0.0
C68 C 0.64477 0.98162 0.02985 0.0
C69 C 0.52368 0.92564 1.01566 0.0
C70 C 0.6702 0.10478 0.03404 0.0
C71 C 0.62332 0.13848 0.02927 0.0
H72 H 0.12432 0.73506 0.99831 0.0
H73 H 0.90298 0.53875 0.02916 0.0
H74 H 0.89426 0.34985 0.0376 0.0
H75 H 0.9494 0.24048 0.0374 0.0
H76 H 0.17074 0.43678 1.00655 0.0
H77 H 0.17945 0.62568 0.99808 0.0
C78 C 0.07407 0.65106 1.00661 0.0
C79 C 1.01446 0.65145 1.01315 0.0
C80 C 0.06944 0.5427 1.0121 0.0
C81 C 0.94984 0.54145 0.02408 0.0
C82 C 0.94475 0.4332 0.02908 0.0
C83 C 0.99965 0.32448 0.02908 0.0
C84 C 0.05926 0.32409 0.02257 0.0
C85 C 1.00427 0.43284 0.02358 0.0
C86 C 0.12388 0.43409 1.01162 0.0
C87 C 0.12896 0.54233 1.0066 0.0
loop_
_geom_bond_atom_site_label_1
_geom_bond_atom_site_label_2
_geom_bond_distance
_geom_bond_site_symmetry_2
_ccdc_geom_bond_type
Tb0 C2 2.809 . S
Tb0 O20 2.484 1_556 S
Tb0 O21 2.440 . S
Tb0 O22 2.658 1_655 S
Tb0 O23 2.409 . S
Tb0 O24 2.378 1_565 S
Tb0 O28 2.325 1_566 S
Tb0 O31 2.341 . S
Tb1 C11 2.809 . S
Tb1 O22 2.325 1_544 S
Tb1 O25 2.341 . S
Tb1 O26 2.484 1_554 S
Tb1 O27 2.440 . S
Tb1 O28 2.658 1_455 S
Tb1 O29 2.409 . S
Tb1 O30 2.378 1_545 S
C2 Tb0 2.809 . S
C2 C3 1.514 . S
C2 O20 1.248 1_556 S
C2 O21 1.266 . S
C3 C2 1.514 . S
C3 C4 1.355 1_566 S
C3 C8 1.348 . S
C4 C3 1.355 1_544 S
C4 C5 1.386 . S
C4 H32 0.927 . S
C5 C4 1.386 . S
C5 C6 1.339 1_544 S
C5 H33 0.931 . S
C6 C5 1.339 1_566 S
C6 C7 1.378 . S
C7 C6 1.378 . S
C7 C8 1.408 . S
C7 H34 0.930 . S
C8 C3 1.348 . S
C8 C7 1.408 . S
C8 H35 0.930 . S
C9 O22 1.281 1_655 S
C9 O23 1.254 . S
C10 O24 1.236 1_455 S
C10 O25 1.266 1_556 S
C11 Tb1 2.809 . S
C11 C12 1.514 . S
C11 O26 1.248 1_554 S
C11 O27 1.266 . S
C12 C11 1.514 . S
C12 C13 1.356 1_544 S
C12 C17 1.348 . S
C13 C12 1.356 1_566 S
C13 C14 1.384 . S
C13 H36 0.927 . S
C14 C13 1.384 . S
C14 C15 1.347 1_566 S
C14 H37 0.931 . S
C15 C14 1.347 1_544 S
C15 C16 1.369 . S
C16 C15 1.369 . S
C16 C17 1.408 . S
C16 H38 0.930 . S
C17 C12 1.348 . S
C17 C16 1.408 . S
C17 H39 0.930 . S
C18 O28 1.281 1_455 S
C18 O29 1.254 . S
C19 O30 1.236 1_655 S
C19 O31 1.266 1_554 S
O20 Tb0 2.484 1_554 S
O20 C2 1.248 1_554 S
O21 Tb0 2.440 . S
O21 C2 1.266 . S
O22 Tb0 2.658 1_455 S
O22 Tb1 2.325 1_566 S
O22 C9 1.281 1_455 S
O23 Tb0 2.409 . S
O23 C9 1.254 . S
O24 Tb0 2.378 1_545 S
O24 C10 1.236 1_655 S
O25 Tb1 2.341 . S
O25 C10 1.266 1_554 S
O26 Tb1 2.484 1_556 S
O26 C11 1.248 1_556 S
O27 Tb1 2.440 . S
O27 C11 1.266 . S
O28 Tb0 2.325 1_544 S
O28 Tb1 2.658 1_655 S
O28 C18 1.281 1_655 S
O29 Tb1 2.409 . S
O29 C18 1.254 . S
O30 Tb1 2.378 1_565 S
O30 C19 1.236 1_455 S
O31 Tb0 2.341 . S
O31 C19 1.266 1_556 S
H32 C4 0.927 . S
H33 C5 0.931 . S
H34 C7 0.930 . S
H35 C8 0.930 . S
H36 C13 0.927 . S
H37 C14 0.931 . S
H38 C16 0.930 . S
H39 C17 0.930 . S
H40 C46 0.930 . S
H41 C49 0.930 . S
H42 C50 0.930 . S
H43 C51 0.930 . S
H44 C54 0.930 . S
H45 C55 0.930 . S
C46 H40 0.930 . S
C46 C47 1.355 1_455 S
C46 C48 1.415 . S
C47 C46 1.355 1_655 S
C47 C49 1.419 1_565 S
C48 C46 1.415 . S
C48 C53 1.425 1_465 S
C48 C55 1.409 . S
C49 H41 0.930 . S
C49 C47 1.419 1_545 S
C49 C50 1.362 . S
C50 H42 0.930 . S
C50 C49 1.362 . S
C50 C53 1.409 . S
C51 H43 0.930 . S
C51 C52 1.355 1_655 S
C51 C53 1.415 . S
C52 C51 1.355 1_455 S
C52 C54 1.419 1_545 S
C53 C48 1.425 1_645 S
C53 C50 1.409 . S
C53 C51 1.415 . S
C54 H44 0.930 . S
C54 C52 1.419 1_565 S
C54 C55 1.362 . S
C55 H45 0.930 . S
C55 C48 1.409 . S
C55 C54 1.362 . S
H56 C62 0.930 . S
H57 C65 0.930 . S
H58 C66 0.930 . S
H59 C67 0.930 . S
H60 C70 0.930 . S
H61 C71 0.930 . S
C62 H56 0.930 . S
C62 C63 1.355 1_546 S
C62 C64 1.415 . S
C63 C62 1.355 1_564 S
C63 C65 1.419 . S
C64 C62 1.415 . S
C64 C69 1.425 1_546 S
C64 C71 1.409 . S
C65 H57 0.930 . S
C65 C63 1.419 . S
C65 C66 1.362 . S
C66 H58 0.930 . S
C66 C65 1.362 . S
C66 C69 1.409 . S
C67 H59 0.930 . S
C67 C68 1.355 1_564 S
C67 C69 1.415 . S
C68 C67 1.355 1_546 S
C68 C70 1.419 . S
C69 C64 1.425 1_564 S
C69 C66 1.409 . S
C69 C67 1.415 . S
C70 H60 0.930 . S
C70 C68 1.419 . S
C70 C71 1.362 . S
C71 H61 0.930 . S
C71 C64 1.409 . S
C71 C70 1.362 . S
H72 C78 0.930 . S
H73 C81 0.930 . S
H74 C82 0.930 . S
H75 C83 0.930 . S
H76 C86 0.930 . S
H77 C87 0.930 . S
C78 H72 0.930 . S
C78 C79 1.355 1_454 S
C78 C80 1.415 . S
C79 C78 1.355 1_656 S
C79 C81 1.419 . S
C80 C78 1.415 . S
C80 C85 1.425 1_454 S
C80 C87 1.409 . S
C81 H73 0.930 . S
C81 C79 1.419 . S
C81 C82 1.362 . S
C82 H74 0.930 . S
C82 C81 1.362 . S
C82 C85 1.409 . S
C83 H75 0.930 . S
C83 C84 1.355 1_656 S
C83 C85 1.415 . S
C84 C83 1.355 1_454 S
C84 C86 1.419 . S
C85 C80 1.425 1_656 S
C85 C82 1.409 . S
C85 C83 1.415 . S
C86 H76 0.930 . S
C86 C84 1.419 . S
C86 C87 1.362 . S
C87 H77 0.930 . S
C87 C80 1.409 . S
C87 C86 1.362 . S
C47 C18 1.476 1_665 S
C52 C9 1.476 1_445 S
C63 C15 1.496 1_565 S
C68 C6 1.495 1_545 S
C79 C19 1.497 1_556 S
C84 C10 1.497 1_554 S
