# Generated by pormake.
# Topology qdl, (4)-cn, num edge types: 1
# Building blocks:
#     Node 0, Type 0, BuildingBlock: NAWXER_clean_sbu_0, # of connection points: 4
#     Node 1, Type 0, BuildingBlock: NAWXER_clean_sbu_0, # of connection points: 4
#     Node 2, Type 0, BuildingBlock: NAWXER_clean_sbu_0, # of connection points: 4
#     Node 3, Type 0, BuildingBlock: NAWXER_clean_sbu_0, # of connection points: 4
#     Node 4, Type 0, BuildingBlock: NAWXER_clean_sbu_0, # of connection points: 4
#     Node 5, Type 0, BuildingBlock: NAWXER_clean_sbu_0, # of connection points: 4
#     Edge 6, Type (0, 0), None
#     Edge 7, Type (0, 0), None
#     Edge 8, Type (0, 0), None
#     Edge 9, Type (0, 0), None
#     Edge 10, Type (0, 0), None
#     Edge 11, Type (0, 0), None
#     Edge 12, Type (0, 0), None
#     Edge 13, Type (0, 0), None
#     Edge 14, Type (0, 0), None
#     Edge 15, Type (0, 0), None
#     Edge 16, Type (0, 0), None
#     Edge 17, Type (0, 0), None
# Relax obj value: 0.000
# Max RMSD: 0.022
# Mean RMSD: 0.019
data_MOF--net-qdl--node1-NAWXER_clean_sbu_0--edge1-none
_symmetry_space_group_name_H-M    P1
_symmetry_Int_Tables_number       1
_symmetry_cell_setting            triclinic
loop_
_symmetry_equiv_pos_as_xyz
'x, y, z'
_cell_length_a     6.3831317
_cell_length_b     6.383371
_cell_length_c     38.277081
_cell_angle_alpha  90.164271
_cell_angle_beta   90.120227
_cell_angle_gamma 119.48321
loop_
_atom_site_label
_atom_site_type_symbol
_atom_site_fract_x
_atom_site_fract_y
_atom_site_fract_z
_atom_type_partial_charge
C0 C 0.47334 0.88927 0.09222 0.0
C1 C 0.47417 0.67897 0.09224 0.0
O2 O 0.66303 0.09506 0.09188 0.0
Zn3 Zn 0.50537 0.29908 0.09121 0.0
O4 O 0.26805 0.87828 0.09248 0.0
Zn5 Zn 0.1142 0.10778 0.09325 0.0
O6 O 0.94331 0.03105 0.04893 0.0
O7 O 0.33583 0.21344 0.04096 0.0
O8 O 0.26955 0.48761 0.0929 0.0
O9 O 0.66441 0.66074 0.09149 0.0
O10 O 0.35237 0.22436 0.14188 0.0
O11 O 0.95533 0.02944 0.13918 0.0
C12 C 0.12183 0.11373 0.02853 0.0
C13 C 0.14805 0.12389 0.15717 0.0
C14 C 0.30733 0.72233 0.42534 0.0
C15 C 0.51809 0.7224 0.42529 0.0
O16 O 0.10147 0.53257 0.42453 0.0
Zn17 Zn 0.89604 0.69077 0.42418 0.0
O18 O 0.31801 0.92708 0.42609 0.0
Zn19 Zn 0.09135 0.08187 0.42652 0.0
O20 O 0.1709 0.24187 0.47257 0.0
O21 O 0.9724 0.84487 0.47494 0.0
O22 O 0.70964 0.92759 0.42566 0.0
O23 O 0.5364 0.53224 0.42481 0.0
O24 O 0.97658 0.85917 0.374 0.0
O25 O 0.18405 0.25153 0.38236 0.0
C26 C 0.07442 0.04945 0.49039 0.0
C27 C 0.08885 0.07301 0.36178 0.0
C28 C 0.07321 0.12743 0.82382 0.0
C29 C 0.08404 0.11228 0.69507 0.0
O30 O 0.97124 0.23148 0.80846 0.0
Zn31 Zn 0.89509 0.30938 0.75765 0.0
O32 O 0.17035 0.03052 0.80589 0.0
Zn33 Zn 0.08997 0.11039 0.75987 0.0
O34 O 0.31067 0.48955 0.75908 0.0
O35 O 0.0863 0.66409 0.75849 0.0
O36 O 0.16635 1.01513 0.7156 0.0
O37 O 0.98255 0.22657 0.70736 0.0
O38 O 0.53835 0.11675 0.75773 0.0
O39 O 0.71274 0.89283 0.75946 0.0
C40 C 0.29341 0.68051 0.75878 0.0
C41 C 0.52196 0.90969 0.75872 0.0
C42 C 0.08478 0.07639 0.65742 0.0
C43 C 0.07439 0.04959 0.5287 0.0
O44 O 0.16684 0.25468 0.63698 0.0
Zn45 Zn 0.09065 0.08373 0.59267 0.0
O46 O 0.98532 0.86222 0.64503 0.0
Zn47 Zn 0.89925 0.69222 0.59473 0.0
O48 O 0.09086 0.52847 0.594 0.0
O49 O 0.31214 0.92464 0.59353 0.0
O50 O 0.97371 0.84516 0.54396 0.0
O51 O 0.16923 0.24223 0.54673 0.0
O52 O 0.7137 0.92295 0.59295 0.0
O53 O 0.54394 0.52699 0.59464 0.0
C54 C 0.29644 0.71751 0.59375 0.0
C55 C 0.52525 0.71653 0.5937 0.0
C56 C 0.08629 0.11478 0.99088 0.0
C57 C 0.07135 0.12557 0.86213 0.0
O58 O 0.97202 0.21627 0.97861 0.0
Zn59 Zn 0.88935 0.30375 0.92833 0.0
O60 O 0.18349 0.03248 0.97034 0.0
Zn61 Zn 0.08831 0.10883 0.92608 0.0
O62 O 0.30591 0.48609 0.9265 0.0
O63 O 0.08198 0.66048 0.92824 0.0
O64 O 0.16822 0.02842 0.88004 0.0
O65 O 0.9673 0.22757 0.87751 0.0
O66 O 0.53464 0.11253 0.92748 0.0
O67 O 0.70919 0.88817 0.92688 0.0
C68 C 0.28905 0.67687 0.92725 0.0
C69 C 0.51822 0.90543 0.92718 0.0
C70 C 0.12445 0.10846 0.32417 0.0
C71 C 0.14846 0.12366 0.19548 0.0
O72 O 0.94606 1.01304 0.30356 0.0
Zn73 Zn 0.11577 0.10639 0.25939 0.0
O74 O 0.33842 0.22124 0.31198 0.0
Zn75 Zn 0.50725 0.30185 0.26175 0.0
O76 O 0.67178 0.65509 0.26111 0.0
O77 O 0.27521 0.48526 0.26038 0.0
O78 O 0.35317 0.22546 0.21089 0.0
O79 O 0.95611 0.02733 0.21334 0.0
O80 O 0.27604 0.88803 0.25975 0.0
O81 O 0.67167 0.10891 0.26157 0.0
C82 C 0.48226 0.67387 0.26071 0.0
C83 C 0.48259 0.90333 0.26059 0.0
loop_
_geom_bond_atom_site_label_1
_geom_bond_atom_site_label_2
_geom_bond_distance
_geom_bond_site_symmetry_2
_ccdc_geom_bond_type
C0 O2 1.247 . S
C0 O4 1.258 1_455 S
C1 O8 1.247 1_455 S
C1 O9 1.258 . S
O2 C0 1.247 . S
O2 Zn3 2.028 1_565 S
Zn3 O2 2.028 1_545 S
Zn3 O7 2.035 . S
Zn3 O9 2.035 . S
Zn3 O10 2.028 . S
O4 C0 1.258 1_655 S
O4 Zn5 2.035 1_565 S
Zn5 O4 2.035 1_545 S
Zn5 O6 2.028 . S
Zn5 O8 2.028 . S
Zn5 O11 2.035 . S
O6 Zn5 2.028 . S
O6 C12 1.247 1_655 S
O7 Zn3 2.035 . S
O7 C12 1.258 . S
O8 C1 1.247 1_655 S
O8 Zn5 2.028 . S
O9 C1 1.258 . S
O9 Zn3 2.035 . S
O10 Zn3 2.028 . S
O10 C13 1.247 . S
O11 Zn5 2.035 . S
O11 C13 1.258 1_655 S
C12 O6 1.247 1_455 S
C12 O7 1.258 . S
C13 O10 1.247 . S
C13 O11 1.258 1_455 S
C14 O16 1.247 1_545 S
C14 O18 1.258 . S
C15 O22 1.247 . S
C15 O23 1.258 1_545 S
O16 C14 1.247 1_565 S
O16 Zn17 2.028 1_455 S
Zn17 O16 2.028 1_655 S
Zn17 O21 2.035 . S
Zn17 O23 2.035 . S
Zn17 O24 2.028 . S
O18 C14 1.258 . S
O18 Zn19 2.035 . S
Zn19 O18 2.035 . S
Zn19 O20 2.028 . S
Zn19 O22 2.028 1_455 S
Zn19 O25 2.035 . S
O20 Zn19 2.028 . S
O20 C26 1.247 1_545 S
O21 Zn17 2.035 . S
O21 C26 1.258 1_655 S
O22 C15 1.247 . S
O22 Zn19 2.028 1_655 S
O23 C15 1.258 1_565 S
O23 Zn17 2.035 . S
O24 Zn17 2.028 . S
O24 C27 1.247 1_665 S
O25 Zn19 2.035 . S
O25 C27 1.258 . S
C26 O20 1.247 1_565 S
C26 O21 1.258 1_455 S
C27 O24 1.247 1_445 S
C27 O25 1.258 . S
C28 O30 1.247 1_455 S
C28 O32 1.258 . S
C29 O36 1.247 1_645 S
C29 O37 1.258 . S
O30 C28 1.247 1_655 S
O30 Zn31 2.028 . S
Zn31 O30 2.028 . S
Zn31 O35 2.035 1_655 S
Zn31 O37 2.035 . S
Zn31 O38 2.028 1_545 S
O32 C28 1.258 . S
O32 Zn33 2.035 1_545 S
Zn33 O32 2.035 1_565 S
Zn33 O34 2.028 1_565 S
Zn33 O36 2.028 . S
Zn33 O39 2.035 1_455 S
O34 Zn33 2.028 1_545 S
O34 C40 1.247 . S
O35 Zn31 2.035 1_455 S
O35 C40 1.258 . S
O36 C29 1.247 1_465 S
O36 Zn33 2.028 . S
O37 C29 1.258 . S
O37 Zn31 2.035 . S
O38 Zn31 2.028 1_565 S
O38 C41 1.247 . S
O39 Zn33 2.035 1_655 S
O39 C41 1.258 . S
C40 O34 1.247 . S
C40 O35 1.258 . S
C41 O38 1.247 . S
C41 O39 1.258 . S
C42 O44 1.247 . S
C42 O46 1.258 1_445 S
C43 O50 1.247 1_455 S
C43 O51 1.258 1_565 S
O44 C42 1.247 . S
O44 Zn45 2.028 . S
Zn45 O44 2.028 . S
Zn45 O49 2.035 . S
Zn45 O51 2.035 . S
Zn45 O52 2.028 1_455 S
O46 C42 1.258 1_665 S
O46 Zn47 2.035 . S
Zn47 O46 2.035 . S
Zn47 O48 2.028 1_655 S
Zn47 O50 2.028 . S
Zn47 O53 2.035 . S
O48 Zn47 2.028 1_455 S
O48 C54 1.244 1_565 S
O49 Zn45 2.035 . S
O49 C54 1.262 . S
O50 C43 1.247 1_655 S
O50 Zn47 2.028 . S
O51 C43 1.258 1_545 S
O51 Zn45 2.035 . S
O52 Zn45 2.028 1_655 S
O52 C55 1.247 . S
O53 Zn47 2.035 . S
O53 C55 1.258 1_565 S
C54 O48 1.244 1_545 S
C54 O49 1.262 . S
C55 O52 1.247 . S
C55 O53 1.258 1_545 S
C56 O58 1.247 1_455 S
C56 O60 1.258 . S
C57 O64 1.247 . S
C57 O65 1.258 1_455 S
O58 C56 1.247 1_655 S
O58 Zn59 2.028 . S
Zn59 O58 2.028 . S
Zn59 O63 2.035 1_655 S
Zn59 O65 2.035 . S
Zn59 O66 2.028 1_545 S
O60 C56 1.258 . S
O60 Zn61 2.035 . S
Zn61 O60 2.035 . S
Zn61 O62 2.028 . S
Zn61 O64 2.028 . S
Zn61 O67 2.035 1_445 S
O62 Zn61 2.028 . S
O62 C68 1.247 . S
O63 Zn59 2.035 1_455 S
O63 C68 1.258 . S
O64 C57 1.247 . S
O64 Zn61 2.028 . S
O65 C57 1.258 1_655 S
O65 Zn59 2.035 . S
O66 Zn59 2.028 1_565 S
O66 C69 1.247 . S
O67 Zn61 2.035 1_665 S
O67 C69 1.258 . S
C68 O62 1.247 . S
C68 O63 1.258 . S
C69 O66 1.247 . S
C69 O67 1.258 . S
C70 O72 1.247 1_455 S
C70 O74 1.258 . S
C71 O78 1.247 . S
C71 O79 1.258 1_455 S
O72 C70 1.247 1_655 S
O72 Zn73 2.028 1_545 S
Zn73 O72 2.028 1_565 S
Zn73 O77 2.035 1_565 S
Zn73 O79 2.035 1_565 S
Zn73 O80 2.028 . S
O74 C70 1.258 . S
O74 Zn75 2.035 . S
Zn75 O74 2.035 . S
Zn75 O76 2.028 . S
Zn75 O78 2.028 . S
Zn75 O81 2.035 1_545 S
O76 Zn75 2.028 . S
O76 C82 1.247 . S
O77 Zn73 2.035 1_545 S
O77 C82 1.258 1_655 S
O78 C71 1.247 . S
O78 Zn75 2.028 . S
O79 C71 1.258 1_655 S
O79 Zn73 2.035 1_545 S
O80 Zn73 2.028 . S
O80 C83 1.247 1_655 S
O81 Zn75 2.035 1_565 S
O81 C83 1.258 . S
C82 O76 1.247 . S
C82 O77 1.258 1_455 S
C83 O80 1.247 1_455 S
C83 O81 1.258 . S
C0 C1 1.500 . S
C14 C15 1.500 . S
C41 C40 1.500 . S
C54 C55 1.498 . S
C68 C69 1.500 . S
C82 C83 1.500 . S
C71 C13 1.507 . S
C43 C26 1.507 . S
C28 C57 1.507 . S
C12 C56 1.517 1_554 S
C70 C27 1.518 . S
C42 C29 1.514 1_455 S
