# Generated by pormake.
# Topology pcu, (6)-cn, num edge types: 1
# Building blocks:
#     Node 0, Type 0, BuildingBlock: PAMTUU_clean_sbu_0, # of connection points: 6
#     Edge 1, Type (0, 0), BuildingBlock: ZUJKAS_clean_linker_0, # of connection points: 2
#     Edge 2, Type (0, 0), BuildingBlock: ZUJKAS_clean_linker_0, # of connection points: 2
#     Edge 3, Type (0, 0), BuildingBlock: ZUJKAS_clean_linker_0, # of connection points: 2
# Relax obj value: 0.000
# Max RMSD: 0.000
# Mean RMSD: 0.000
data_MOF--net-pcu--node1-PAMTUU_clean_sbu_0--edge1-ZUJKAS_clean_linker_0
_symmetry_space_group_name_H-M    P1
_symmetry_Int_Tables_number       1
_symmetry_cell_setting            triclinic
loop_
_symmetry_equiv_pos_as_xyz
'x, y, z'
_cell_length_a     30.086608
_cell_length_b     19.732038
_cell_length_c     19.602768
_cell_angle_alpha  83.102074
_cell_angle_beta   98.145746
_cell_angle_gamma 118.23349
loop_
_atom_site_label
_atom_site_type_symbol
_atom_site_fract_x
_atom_site_fract_y
_atom_site_fract_z
_atom_type_partial_charge
Tb0 Tb 0.08677 0.04011 0.99016 0.0
Tb1 Tb 0.96044 0.95192 0.97464 0.0
C2 C 1.024 0.99122 0.11695 0.0
C3 C 0.22339 0.08035 0.00976 0.0
C4 C 0.30583 0.04693 0.02001 0.0
C5 C 0.31141 0.11337 0.04778 0.0
C6 C 0.27063 0.12995 0.04249 0.0
C7 C 0.21705 0.01247 0.98415 0.0
C8 C 0.25793 -0.00393 0.98903 0.0
C9 C 0.1827 0.10341 -0.00168 0.0
O10 O 0.06448 0.92099 0.97423 0.0
O11 O 0.98217 0.86097 0.00377 0.0
O12 O 0.98635 0.94292 0.88004 0.0
O13 O 0.05868 0.05717 0.8845 0.0
O14 O 0.89119 0.87846 0.01554 0.0
O15 O 0.8931 0.92972 0.91153 0.0
O16 O 0.98335 0.07414 0.9544 0.0
O17 O 0.06631 0.12905 0.00359 0.0
O18 O 0.06112 0.98877 0.09095 0.0
O19 O 0.98623 -0.0051 0.07702 0.0
C20 C 1.02329 0.85885 0.99104 0.0
O21 O 0.15323 0.0837 0.94103 0.0
O22 O 0.15715 0.09338 0.05031 0.0
C23 C 1.02275 0.001 0.84908 0.0
C24 C 0.8233 0.90489 0.9702 0.0
C25 C 0.74276 0.93653 0.98386 0.0
C26 C 0.73431 0.87323 0.94798 0.0
C27 C 0.77417 0.85766 0.94127 0.0
C28 C 0.83218 0.96801 0.00644 0.0
C29 C 0.79216 0.98354 0.01346 0.0
C30 C 0.86455 0.88798 0.96017 0.0
C31 C 1.02476 0.13351 0.9785 0.0
H32 H 0.34782 0.15409 0.0714 0.0
H33 H 0.27638 0.18274 0.06234 0.0
H34 H 0.18086 0.97305 0.95893 0.0
H35 H 0.25216 0.94389 0.96798 0.0
H36 H 0.69671 0.83519 0.92544 0.0
H37 H 0.76662 0.8087 0.91311 0.0
H38 H 0.87003 0.00547 0.02875 0.0
H39 H 0.80005 0.03312 0.04089 0.0
H40 H 0.09757 0.99089 0.21692 0.0
H41 H 0.09927 -0.00654 0.34179 0.0
H42 H 0.95452 -0.00645 0.31327 0.0
H43 H 0.95268 0.99201 0.18857 0.0
H44 H 0.02584 0.10338 0.40138 0.0
H45 H 1.01459 0.81517 0.47431 0.0
H46 H 0.06517 0.87799 0.42267 0.0
H47 H 1.0005 0.8447 0.38664 0.0
C48 C 0.06596 0.99107 0.23719 0.0
C49 C 0.0249 0.99098 0.19269 0.0
C50 C 0.06691 0.9922 0.3086 0.0
C51 C 0.02672 0.99272 0.33676 0.0
C52 C 0.98584 0.99292 0.29253 0.0
H53 H 0.95306 0.89669 0.75933 0.0
H54 H 0.95523 0.89755 0.63513 0.0
C55 C 0.98486 0.9919 0.22123 0.0
C56 C 0.02753 -0.00529 0.41224 0.0
H57 H 0.02841 0.89327 0.56584 0.0
C58 C 0.02643 0.05751 0.43742 0.0
C59 C 0.02773 0.93433 0.45891 0.0
C60 C 0.0266 0.86383 0.43444 0.0
C61 C 0.02575 0.06176 0.50819 0.0
C62 C 0.027 0.00214 0.555 0.0
C63 C 0.02786 0.93917 0.52979 0.0
C64 C 0.02594 0.00284 0.63022 0.0
C65 C 1.02248 0.12906 0.53204 0.0
C66 C 0.06519 0.06157 0.66869 0.0
C67 C 0.06401 0.06147 0.73976 0.0
C68 C 1.0237 0.00225 0.77365 0.0
C69 C 0.98462 0.94327 0.7349 0.0
C70 C 0.98581 0.94353 0.66391 0.0
H71 H 1.00938 0.15929 0.48885 0.0
H72 H 0.99626 0.10991 0.57296 0.0
H73 H 0.06059 0.17107 0.55383 0.0
H74 H 0.097 0.1071 0.64387 0.0
H75 H 0.09491 0.10744 0.76813 0.0
H76 H 0.3329 -0.00129 0.91496 0.0
H77 H 0.40801 0.98101 0.91384 0.0
H78 H 0.4557 0.04805 0.12377 0.0
H79 H 0.38018 0.06473 0.12574 0.0
H80 H 0.5115 0.09668 0.9381 0.0
H81 H 0.46347 0.84326 0.12604 0.0
H82 H 0.41655 0.87072 0.08358 0.0
H83 H 0.45921 0.92322 0.15426 0.0
C84 C 0.3589 0.00847 0.96131 0.0
C85 C 0.35036 0.03278 0.02058 0.0
C86 C 0.40201 -0.00114 0.9604 0.0
C87 C 0.43721 0.01251 0.0189 0.0
C88 C 0.4287 0.03621 0.07834 0.0
H89 H 0.72047 0.97983 0.09736 0.0
H90 H 0.64848 0.00321 0.10686 0.0
C91 C 0.38573 0.04631 0.07918 0.0
C92 C 0.48367 0.00451 0.01667 0.0
H93 H 0.54468 0.89988 0.08588 0.0
C94 C 0.51876 0.05362 0.97035 0.0
C95 C 0.4932 0.94863 0.0591 0.0
C96 C 0.45604 0.89291 0.10826 0.0
C97 C 0.56326 0.04859 0.96549 0.0
C98 C 0.57244 0.99186 0.00709 0.0
C99 C 0.53764 0.94338 0.05407 0.0
C100 C 0.617 0.98015 0.00089 0.0
C101 C 0.60041 0.10482 0.91652 0.0
C102 C 0.62311 0.95906 0.93834 0.0
C103 C 0.66419 0.94595 0.9327 0.0
C104 C 0.70004 0.95321 0.98967 0.0
C105 C 0.69394 0.97463 0.05229 0.0
C106 C 0.65264 0.98752 0.05793 0.0
H107 H 0.59533 0.15729 0.90371 0.0
H108 H 0.64011 0.12246 0.93873 0.0
H109 H 0.59419 0.07695 0.86771 0.0
H110 H 0.59568 0.95176 0.89394 0.0
H111 H 0.66793 0.93026 0.88354 0.0
H112 H 0.94161 0.71517 -0.00245 0.0
H113 H 0.94128 0.59076 -0.00204 0.0
H114 H 0.10332 0.70693 0.99118 0.0
H115 H 0.10425 0.83155 0.99048 0.0
H116 H 0.98542 0.54964 0.88928 0.0
H117 H 0.07101 0.53695 0.1585 0.0
H118 H 0.0389 0.59478 0.13165 0.0
H119 H 0.10137 0.62616 0.10765 0.0
C120 C 0.97725 0.71434 -0.00336 0.0
C121 C 1.02296 0.78334 -0.00605 0.0
C122 C 0.97693 0.64325 -0.00327 0.0
C123 C 1.0223 0.64 -0.00491 0.0
C124 C 0.06801 0.70849 -0.0069 0.0
H125 H 0.10552 0.27531 0.00113 0.0
H126 H 0.10397 0.39783 0.00283 0.0
C127 C 0.06837 0.77959 0.99242 0.0
C128 C 1.02178 0.56509 -0.007 0.0
H129 H 0.05818 0.43965 0.0872 0.0
C130 C 1.00105 0.52517 0.93254 0.0
C131 C 0.04262 0.53417 0.04944 0.0
C132 C 0.06452 0.57471 0.11582 0.0
C133 C 1.00143 0.45531 0.92648 0.0
C134 C 1.02191 0.42381 0.98322 0.0
C135 C 0.04249 0.46387 0.04381 0.0
C136 C 1.02256 0.34952 0.9808 0.0
C137 C 0.98125 0.41718 0.85873 0.0
C138 C 0.97726 0.2816 0.96843 0.0
C139 C 0.97804 0.2116 0.96677 0.0
C140 C 1.02413 0.20803 0.97853 0.0
C141 C 0.06939 0.27604 0.99178 0.0
C142 C 0.06859 0.34612 -0.00717 0.0
H143 H 0.98086 0.45882 0.81543 0.0
H144 H 1.00423 0.39058 0.84641 0.0
H145 H 0.9417 0.37117 0.86224 0.0
H146 H 0.94118 0.28252 0.96083 0.0
H147 H 0.94239 0.16015 0.95736 0.0
loop_
_geom_bond_atom_site_label_1
_geom_bond_atom_site_label_2
_geom_bond_distance
_geom_bond_site_symmetry_2
_ccdc_geom_bond_type
Tb0 C9 2.764 . S
Tb0 O10 2.325 1_545 S
Tb0 O13 2.303 1_554 S
Tb0 O17 2.322 . S
Tb0 O18 2.349 . S
Tb0 O21 2.415 1_554 S
Tb0 O22 2.399 . S
Tb1 O11 2.322 . S
Tb1 O12 2.349 . S
Tb1 O14 2.415 1_556 S
Tb1 O15 2.399 . S
Tb1 O16 2.325 1_565 S
Tb1 O19 2.303 1_556 S
Tb1 C30 2.764 . S
C2 O18 1.261 . S
C2 O19 1.257 1_445 S
C3 C6 1.358 . S
C3 C7 1.332 1_544 S
C3 C9 1.504 . S
C4 C5 1.373 1_566 S
C4 C8 1.308 . S
C5 C4 1.373 1_544 S
C5 C6 1.429 . S
C5 H32 0.932 . S
C6 C3 1.358 . S
C6 C5 1.429 . S
C6 H33 0.930 . S
C7 C3 1.332 1_566 S
C7 C8 1.394 . S
C7 H34 0.932 . S
C8 C4 1.308 . S
C8 C7 1.394 . S
C8 H35 0.929 . S
C9 Tb0 2.764 . S
C9 C3 1.504 . S
C9 O21 1.239 1_554 S
C9 O22 1.263 . S
O10 Tb0 2.325 1_565 S
O10 C20 1.232 1_455 S
O11 Tb1 2.322 . S
O11 C20 1.265 1_556 S
O12 Tb1 2.349 . S
O12 C23 1.261 . S
O13 Tb0 2.303 1_556 S
O13 C23 1.257 1_445 S
O14 Tb1 2.415 1_554 S
O14 C30 1.239 1_554 S
O15 Tb1 2.399 . S
O15 C30 1.263 . S
O16 Tb1 2.325 1_545 S
O16 C31 1.229 1_655 S
O17 Tb0 2.322 . S
O17 C31 1.271 1_554 S
O18 Tb0 2.349 . S
O18 C2 1.261 . S
O19 Tb1 2.303 1_554 S
O19 C2 1.257 1_665 S
C20 O10 1.232 1_655 S
C20 O11 1.265 1_554 S
O21 Tb0 2.415 1_556 S
O21 C9 1.239 1_556 S
O22 Tb0 2.399 . S
O22 C9 1.263 . S
C23 O12 1.261 . S
C23 O13 1.257 1_665 S
C24 C27 1.358 . S
C24 C28 1.332 1_566 S
C24 C30 1.504 . S
C25 C26 1.373 1_544 S
C25 C29 1.308 . S
C26 C25 1.373 1_566 S
C26 C27 1.429 . S
C26 H36 0.932 . S
C27 C24 1.358 . S
C27 C26 1.429 . S
C27 H37 0.930 . S
C28 C24 1.332 1_544 S
C28 C29 1.394 . S
C28 H38 0.932 . S
C29 C25 1.308 . S
C29 C28 1.394 . S
C29 H39 0.929 . S
C30 Tb1 2.764 . S
C30 O14 1.239 1_556 S
C30 O15 1.263 . S
C30 C24 1.504 . S
C31 O16 1.229 1_455 S
C31 O17 1.271 1_556 S
H32 C5 0.932 . S
H33 C6 0.930 . S
H34 C7 0.932 . S
H35 C8 0.929 . S
H36 C26 0.932 . S
H37 C27 0.930 . S
H38 C28 0.932 . S
H39 C29 0.929 . S
H40 C48 0.929 . S
H41 C50 0.930 . S
H42 C52 0.930 . S
H43 C55 0.929 . S
H44 C58 0.930 . S
H45 C60 0.960 . S
H46 C60 0.960 . S
H47 C60 0.960 1_655 S
C48 H40 0.929 . S
C48 C49 1.387 . S
C48 C50 1.384 . S
C49 C48 1.387 . S
C49 C55 1.377 1_445 S
C50 H41 0.930 . S
C50 C48 1.384 . S
C50 C51 1.372 . S
C51 C50 1.372 . S
C51 C52 1.400 1_445 S
C51 C56 1.490 . S
C52 H42 0.930 . S
C52 C51 1.400 1_665 S
C52 C55 1.386 . S
H53 C69 0.930 . S
H54 C70 0.931 . S
C55 H43 0.929 . S
C55 C49 1.377 1_665 S
C55 C52 1.386 . S
C56 C51 1.490 . S
C56 C58 1.395 . S
C56 C59 1.403 1_545 S
H57 C63 0.930 . S
C58 H44 0.930 . S
C58 C56 1.395 . S
C58 C61 1.403 . S
C59 C56 1.403 1_565 S
C59 C60 1.524 . S
C59 C63 1.400 . S
C60 H45 0.960 . S
C60 H46 0.960 . S
C60 H47 0.960 1_455 S
C60 C59 1.524 . S
C61 C58 1.403 . S
C61 C62 1.392 . S
C61 C65 1.504 . S
C62 C61 1.392 . S
C62 C63 1.385 1_545 S
C62 C64 1.478 . S
C63 H57 0.930 . S
C63 C59 1.400 . S
C63 C62 1.385 1_565 S
C64 C62 1.478 . S
C64 C66 1.382 . S
C64 C70 1.381 1_445 S
C65 C61 1.504 . S
C65 H71 0.956 . S
C65 H72 0.947 1_455 S
C65 H73 0.969 . S
C66 C64 1.382 . S
C66 C67 1.394 . S
C66 H74 0.930 . S
C67 C66 1.394 . S
C67 C68 1.380 1_455 S
C67 H75 0.929 . S
C68 C67 1.380 1_655 S
C68 C69 1.379 1_545 S
C69 H53 0.930 . S
C69 C68 1.379 1_565 S
C69 C70 1.379 . S
C70 H54 0.931 . S
C70 C64 1.381 1_665 S
C70 C69 1.379 . S
H71 C65 0.956 . S
H72 C65 0.947 1_655 S
H73 C65 0.969 . S
H74 C66 0.930 . S
H75 C67 0.929 . S
H76 C84 0.929 . S
H77 C86 0.930 . S
H78 C88 0.930 . S
H79 C91 0.929 . S
H80 C94 0.930 . S
H81 C96 0.960 . S
H82 C96 0.960 . S
H83 C96 0.960 . S
C84 H76 0.929 . S
C84 C85 1.390 1_545 S
C84 C86 1.384 . S
C85 C84 1.390 1_565 S
C85 C91 1.386 1_556 S
C86 H77 0.930 . S
C86 C84 1.384 . S
C86 C87 1.371 1_545 S
C87 C86 1.371 1_565 S
C87 C88 1.399 1_556 S
C87 C92 1.491 1_565 S
C88 H78 0.930 . S
C88 C87 1.399 1_554 S
C88 C91 1.386 . S
H89 C105 0.930 . S
H90 C106 0.931 . S
C91 H79 0.929 . S
C91 C85 1.386 1_554 S
C91 C88 1.386 . S
C92 C87 1.491 1_545 S
C92 C94 1.395 . S
C92 C95 1.403 1_546 S
H93 C99 0.930 . S
C94 H80 0.930 . S
C94 C92 1.395 . S
C94 C97 1.403 . S
C95 C92 1.403 1_564 S
C95 C96 1.524 . S
C95 C99 1.400 . S
C96 H81 0.960 . S
C96 H82 0.960 . S
C96 H83 0.960 . S
C96 C95 1.524 . S
C97 C94 1.403 . S
C97 C98 1.392 . S
C97 C101 1.495 . S
C98 C97 1.392 . S
C98 C99 1.385 1_546 S
C98 C100 1.478 . S
C99 H93 0.930 . S
C99 C95 1.400 . S
C99 C98 1.385 1_564 S
C100 C98 1.478 . S
C100 C102 1.381 . S
C100 C106 1.383 1_556 S
C101 C97 1.495 . S
C101 H107 0.959 . S
C101 H108 0.961 . S
C101 H109 0.960 . S
C102 C100 1.381 . S
C102 C103 1.394 . S
C102 H110 0.930 . S
C103 C102 1.394 . S
C103 C104 1.383 . S
C103 H111 0.929 . S
C104 C103 1.383 . S
C104 C105 1.377 1_556 S
C105 H89 0.930 . S
C105 C104 1.377 1_554 S
C105 C106 1.379 . S
C106 H90 0.931 . S
C106 C100 1.383 1_554 S
C106 C105 1.379 . S
H107 C101 0.959 . S
H108 C101 0.961 . S
H109 C101 0.960 . S
H110 C102 0.930 . S
H111 C103 0.929 . S
H112 C120 0.929 . S
H113 C122 0.930 . S
H114 C124 0.930 . S
H115 C127 0.929 . S
H116 C130 0.930 . S
H117 C132 0.960 . S
H118 C132 0.960 1_554 S
H119 C132 0.960 . S
C120 H112 0.929 . S
C120 C121 1.378 1_655 S
C120 C122 1.384 . S
C121 C120 1.378 1_455 S
C121 C127 1.398 1_554 S
C122 H113 0.930 . S
C122 C120 1.384 . S
C122 C123 1.373 1_655 S
C123 C122 1.373 1_455 S
C123 C124 1.400 1_554 S
C123 C128 1.489 1_455 S
C124 H114 0.930 . S
C124 C123 1.400 1_556 S
C124 C127 1.386 . S
H125 C141 0.926 1_455 S
H126 C142 0.931 . S
C127 H115 0.929 . S
C127 C121 1.398 1_556 S
C127 C124 1.386 . S
C128 C123 1.489 1_655 S
C128 C130 1.395 . S
C128 C131 1.403 1_654 S
H129 C135 0.930 . S
C130 H116 0.930 . S
C130 C128 1.395 . S
C130 C133 1.403 . S
C131 C128 1.403 1_456 S
C131 C132 1.524 . S
C131 C135 1.400 . S
C132 H117 0.960 . S
C132 H118 0.960 1_556 S
C132 H119 0.960 . S
C132 C131 1.524 . S
C133 C130 1.403 . S
C133 C134 1.392 . S
C133 C137 1.495 . S
C134 C133 1.392 . S
C134 C135 1.385 1_654 S
C134 C136 1.478 . S
C135 H129 0.930 . S
C135 C131 1.400 . S
C135 C134 1.385 1_456 S
C136 C134 1.478 . S
C136 C138 1.381 . S
C136 C142 1.383 1_554 S
C137 C133 1.495 . S
C137 H143 0.959 . S
C137 H144 0.961 1_554 S
C137 H145 0.960 . S
C138 C136 1.381 . S
C138 C139 1.394 . S
C138 H146 0.930 . S
C139 C138 1.394 . S
C139 C140 1.392 . S
C139 H147 0.929 . S
C140 C139 1.392 . S
C140 C141 1.368 1_554 S
C141 H125 0.926 1_655 S
C141 C140 1.368 1_556 S
C141 C142 1.384 . S
C142 H126 0.931 . S
C142 C136 1.383 1_556 S
C142 C141 1.384 . S
H143 C137 0.959 . S
H144 C137 0.961 1_556 S
H145 C137 0.960 . S
H146 C138 0.930 . S
H147 C139 0.929 . S
C49 C2 1.469 . S
C68 C23 1.457 1_545 S
C85 C4 1.491 . S
C104 C25 1.495 1_556 S
C121 C20 1.484 1_455 S
C140 C31 1.486 1_654 S
