# Generated by pormake.
# Topology hex, (8)-cn, num edge types: 1
# Building blocks:
#     Node 0, Type 0, BuildingBlock: EYACOX_clean_sbu_0, # of connection points: 8
#     Edge 1, Type (0, 0), BuildingBlock: FUNLAD_clean_linker_0, # of connection points: 2
#     Edge 2, Type (0, 0), BuildingBlock: FUNLAD_clean_linker_0, # of connection points: 2
#     Edge 3, Type (0, 0), BuildingBlock: FUNLAD_clean_linker_0, # of connection points: 2
#     Edge 4, Type (0, 0), BuildingBlock: FUNLAD_clean_linker_0, # of connection points: 2
# Relax obj value: 0.026
# Max RMSD: 0.066
# Mean RMSD: 0.066
data_MOF--net-hex--node1-EYACOX_clean_sbu_0--edge1-FUNLAD_clean_linker_0
_symmetry_space_group_name_H-M    P1
_symmetry_Int_Tables_number       1
_symmetry_cell_setting            triclinic
loop_
_symmetry_equiv_pos_as_xyz
'x, y, z'
_cell_length_a     27.467154
_cell_length_b     26.246149
_cell_length_c     17.588818
_cell_angle_alpha  112.18947
_cell_angle_beta   72.958683
_cell_angle_gamma 144.01382
loop_
_atom_site_label
_atom_site_type_symbol
_atom_site_fract_x
_atom_site_fract_y
_atom_site_fract_z
_atom_type_partial_charge
Eu0 Eu 0.05135 0.94059 0.99208 0.0
Eu1 Eu 0.96306 -0.00712 0.04027 0.0
O2 O 0.16002 -0.02185 0.96377 0.0
O3 O 0.03892 0.84544 0.98429 0.0
O4 O 0.98997 -0.01342 0.90621 0.0
O5 O 0.06821 -0.02661 0.87859 0.0
O6 O 0.93076 0.82573 0.92233 0.0
O7 O 0.86734 0.84589 0.01829 0.0
C8 C 0.15226 0.87566 0.95455 0.0
C9 C 0.2168 0.82609 0.92838 0.0
C10 C 0.13132 0.76113 0.93293 0.0
C11 C 0.09882 0.78581 0.94628 0.0
C12 C 0.27117 0.91594 0.94022 0.0
C13 C 0.23904 0.94115 0.95328 0.0
C14 C 0.11702 0.90078 0.96823 0.0
C15 C 0.03549 -0.01532 0.85764 0.0
O16 O 0.8575 0.95112 0.02417 0.0
O17 O 0.95606 0.07517 0.11225 0.0
C18 C 0.86427 0.79743 0.95316 0.0
O19 O 0.99519 0.01056 0.1586 0.0
O20 O 0.98802 0.9103 0.11261 0.0
O21 O 0.09684 0.11453 0.01851 0.0
O22 O 0.14231 0.085 0.06073 0.0
C23 C 0.87939 0.06496 0.05356 0.0
C24 C 0.79057 0.05922 0.03336 0.0
C25 C 0.79956 0.01858 0.04939 0.0
C26 C 0.86065 0.14471 0.02024 0.0
C27 C 0.93989 0.19163 0.02405 0.0
C28 C 0.94988 0.15202 0.04039 0.0
C29 C 0.88707 0.02283 0.07641 0.0
C30 C 0.98935 0.96003 0.17234 0.0
C31 C 0.15683 0.1397 0.04035 0.0
H32 H 0.24184 0.8075 0.92198 0.0
H33 H 0.03236 0.73532 0.95089 0.0
H34 H 0.28117 0.01108 0.9638 0.0
H35 H 0.74507 0.95227 0.06036 0.0
H36 H 0.85348 0.17589 0.00762 0.0
H37 H 1.0116 0.18902 0.0441 0.0
C38 C 0.02473 0.34779 0.07621 0.0
C39 C 1.00896 0.28308 0.01312 0.0
C40 C 0.05279 0.41573 0.05764 0.0
C41 C 0.0663 0.42033 0.9757 0.0
C42 C 0.06182 0.36344 0.91444 0.0
C43 C 0.03243 0.29446 0.93289 0.0
C44 C 0.07789 0.47816 0.95197 0.0
C45 C 0.03378 0.48738 0.98622 0.0
C46 C 0.04244 0.54367 0.9638 0.0
C47 C 0.02442 0.5807 0.02252 0.0
C48 C 0.04381 0.64472 0.00835 0.0
C49 C 0.08077 0.67188 0.93482 0.0
H50 H 0.08183 0.53349 0.83845 0.0
C51 C 0.09001 0.62745 0.87255 0.0
C52 C 0.07097 0.56383 0.88677 0.0
H53 H 0.11845 0.64742 0.81528 0.0
H54 H 1.00587 0.33945 0.13831 0.0
H55 H 0.05862 0.46085 0.10658 0.0
H56 H 0.07339 0.36686 0.85105 0.0
H57 H 0.0192 0.24429 0.88308 0.0
H58 H 0.11976 0.50899 0.90238 0.0
H59 H 0.99156 0.45499 0.03519 0.0
H60 H 1.00071 0.56482 0.08175 0.0
H61 H 0.03704 0.67876 0.05766 0.0
C62 C 0.69466 0.0562 0.09113 0.0
C63 C 0.71013 0.01722 0.03078 0.0
C64 C 0.63679 0.04222 0.07639 0.0
C65 C 0.59372 -0.01057 0.00041 0.0
C66 C 0.60402 0.94413 0.94315 0.0
C67 C 0.66224 0.95845 0.95789 0.0
C68 C 0.53957 -0.01817 0.97759 0.0
C69 C 0.54666 0.04332 0.01127 0.0
C70 C 0.49042 0.03211 0.98699 0.0
C71 C 0.46129 0.05606 0.04737 0.0
C72 C 0.39595 0.0297 0.02903 0.0
C73 C 0.35993 -0.01974 0.94975 0.0
H74 H 0.48489 -0.02334 0.85692 0.0
C75 C 0.39688 0.9674 0.88706 0.0
C76 C 0.46128 -0.00735 0.90555 0.0
H77 H 0.36986 0.92898 0.82553 0.0
H78 H 0.73183 0.10281 0.14739 0.0
H79 H 0.62829 0.07534 0.12361 0.0
H80 H 0.57069 0.90187 0.88465 0.0
H81 H 0.67444 0.92929 0.90976 0.0
H82 H 0.49346 0.92416 0.92897 0.0
H83 H 0.59141 0.10085 0.06064 0.0
H84 H 0.48404 0.08819 0.11028 0.0
H85 H 0.3679 0.03934 0.07865 0.0
C86 C 0.30464 0.23848 0.01666 0.0
C87 C 0.24237 0.22502 0.02721 0.0
C88 C 0.38225 0.31203 0.98967 0.0
C89 C 0.39872 0.37334 0.97329 0.0
C90 C 0.33816 0.36269 0.98832 0.0
C91 C 0.26018 0.28857 0.01436 0.0
C92 C 0.48031 0.45214 0.94567 0.0
C93 C 0.52844 0.452 0.89778 0.0
C94 C 0.61643 0.53676 0.88756 0.0
C95 C 0.67519 0.5476 0.88963 0.0
C96 C 0.75878 0.63328 0.90434 0.0
C97 C 0.78319 0.70787 0.91737 0.0
H98 H 0.59979 0.60384 0.88358 0.0
C99 C 0.72614 0.6962 0.90567 0.0
C100 C 0.64332 0.61086 0.88921 0.0
H101 H 0.74491 0.75346 0.91346 0.0
H102 H 0.29262 0.19053 0.0261 0.0
H103 H 0.42913 0.32078 0.98198 0.0
H104 H 0.35052 0.41054 0.97784 0.0
H105 H 0.21329 0.27989 0.02238 0.0
H106 H 0.50229 0.51312 0.96915 0.0
H107 H 0.50642 0.39099 0.87527 0.0
H108 H 0.65571 0.49098 0.88715 0.0
H109 H 0.80273 0.64165 0.91245 0.0
C110 C 0.04276 0.03849 0.76026 0.0
C111 C 0.04936 -0.00476 0.77487 0.0
C112 C 0.04791 0.0418 0.68095 0.0
C113 C 0.05817 0.0003 0.61447 0.0
C114 C 0.06999 0.962 0.62963 0.0
C115 C 0.06564 0.95944 0.70943 0.0
C116 C 0.05401 -0.00664 0.52879 0.0
C117 C 1.00862 -0.01001 0.50603 0.0
C118 C 1.00083 -0.02121 0.42012 0.0
C119 C 0.99026 0.01783 0.404 0.0
C120 C 0.98489 0.01042 0.3233 0.0
C121 C 0.98873 0.96256 0.25752 0.0
H122 H 1.00677 0.89459 0.36504 0.0
C123 C 0.99594 0.92043 0.2739 0.0
C124 C 1.0019 0.92841 0.35449 0.0
H125 H 0.9984 0.88243 0.22456 0.0
H126 H 0.03266 0.06904 0.81008 0.0
H127 H 0.04292 0.0761 0.67215 0.0
H128 H 0.07937 0.93094 0.57936 0.0
H129 H 0.07167 0.9264 0.71935 0.0
H130 H 0.08595 -0.0134 0.48298 0.0
H131 H 0.97632 -0.00358 0.55144 0.0
H132 H 0.98804 0.05583 0.45391 0.0
H133 H 0.97875 0.04309 0.31259 0.0
loop_
_geom_bond_atom_site_label_1
_geom_bond_atom_site_label_2
_geom_bond_distance
_geom_bond_site_symmetry_2
_ccdc_geom_bond_type
Eu0 O2 2.472 . S
Eu0 O3 2.507 1_455 S
Eu0 O5 2.336 1_455 S
Eu0 O6 2.389 1_455 S
Eu0 C14 2.835 . S
Eu0 O20 2.396 1_456 S
Eu0 O22 2.323 1_565 S
Eu1 O4 2.396 1_654 S
Eu1 O7 2.323 1_545 S
Eu1 O16 2.472 . S
Eu1 O17 2.507 1_655 S
Eu1 O19 2.336 1_655 S
Eu1 O21 2.389 1_655 S
Eu1 C29 2.835 . S
O2 Eu0 2.472 . S
O2 C14 1.258 . S
O3 Eu0 2.507 1_655 S
O3 C14 1.246 1_655 S
O4 Eu1 2.396 1_456 S
O4 C15 1.226 1_445 S
O5 Eu0 2.336 1_655 S
O5 C15 1.279 . S
O6 Eu0 2.389 1_655 S
O6 C18 1.238 . S
O7 Eu1 2.323 1_565 S
O7 C18 1.249 1_554 S
C8 C11 1.390 . S
C8 C13 1.370 . S
C8 C14 1.489 . S
C9 C10 1.345 . S
C9 C12 1.413 . S
C9 H32 0.931 . S
C10 C9 1.345 . S
C10 C11 1.417 1_554 S
C11 C8 1.390 . S
C11 C10 1.417 1_556 S
C11 H33 0.930 1_455 S
C12 C9 1.413 . S
C12 C13 1.395 1_554 S
C13 C8 1.370 . S
C13 C12 1.395 1_556 S
C13 H34 0.932 1_565 S
C14 Eu0 2.835 . S
C14 O2 1.258 . S
C14 O3 1.246 1_455 S
C14 C8 1.489 . S
C15 O4 1.226 1_665 S
C15 O5 1.279 . S
O16 Eu1 2.472 . S
O16 C29 1.258 . S
O17 Eu1 2.507 1_455 S
O17 C29 1.246 1_455 S
C18 O6 1.238 . S
C18 O7 1.249 1_556 S
O19 Eu1 2.336 1_455 S
O19 C30 1.279 . S
O20 Eu0 2.396 1_654 S
O20 C30 1.223 1_665 S
O21 Eu1 2.389 1_455 S
O21 C31 1.239 . S
O22 Eu0 2.323 1_545 S
O22 C31 1.249 1_556 S
C23 C25 1.370 . S
C23 C28 1.390 . S
C23 C29 1.489 . S
C24 C25 1.397 1_556 S
C24 C26 1.412 . S
C25 C23 1.370 . S
C25 C24 1.397 1_554 S
C25 H35 0.932 1_545 S
C26 C24 1.412 . S
C26 C27 1.345 . S
C26 H36 0.931 . S
C27 C26 1.345 . S
C27 C28 1.418 1_556 S
C28 C23 1.390 . S
C28 C27 1.418 1_554 S
C28 H37 0.930 1_655 S
C29 Eu1 2.835 . S
C29 O16 1.258 . S
C29 O17 1.246 1_655 S
C29 C23 1.489 . S
C30 O19 1.279 . S
C30 O20 1.223 1_445 S
C31 O21 1.239 . S
C31 O22 1.249 1_554 S
H32 C9 0.931 . S
H33 C11 0.930 1_655 S
H34 C13 0.932 1_545 S
H35 C25 0.932 1_565 S
H36 C26 0.931 . S
H37 C28 0.930 1_455 S
C38 C39 1.386 1_554 S
C38 C40 1.383 1_655 S
C38 H54 0.951 . S
C39 C38 1.386 1_556 S
C39 C43 1.383 . S
C40 C38 1.383 1_455 S
C40 C41 1.402 1_454 S
C40 H55 0.951 . S
C41 C40 1.402 1_656 S
C41 C42 1.375 . S
C41 C44 1.481 1_655 S
C42 C41 1.375 . S
C42 C43 1.367 . S
C42 H56 0.951 . S
C43 C39 1.383 . S
C43 C42 1.367 . S
C43 H57 0.950 . S
C44 C41 1.481 1_455 S
C44 C45 1.297 1_556 S
C44 H58 0.950 1_455 S
C45 C44 1.297 1_554 S
C45 C46 1.485 . S
C45 H59 0.950 . S
C46 C45 1.485 . S
C46 C47 1.382 . S
C46 C52 1.392 1_554 S
C47 C46 1.382 . S
C47 C48 1.369 . S
C47 H60 0.950 . S
C48 C47 1.369 . S
C48 C49 1.386 1_554 S
C48 H61 0.951 . S
C49 C48 1.386 1_556 S
C49 C51 1.388 . S
H50 C52 0.949 . S
C51 C49 1.388 . S
C51 C52 1.385 . S
C51 H53 0.950 . S
C52 C46 1.392 1_556 S
C52 H50 0.949 . S
C52 C51 1.385 . S
H53 C51 0.950 . S
H54 C38 0.951 . S
H55 C40 0.951 . S
H56 C42 0.951 . S
H57 C43 0.950 . S
H58 C44 0.950 1_655 S
H59 C45 0.950 . S
H60 C47 0.950 . S
H61 C48 0.951 . S
C62 C63 1.386 1_554 S
C62 C64 1.383 . S
C62 H78 0.951 . S
C63 C62 1.386 1_556 S
C63 C67 1.383 . S
C64 C62 1.383 . S
C64 C65 1.402 1_554 S
C64 H79 0.951 . S
C65 C64 1.402 1_556 S
C65 C66 1.375 . S
C65 C68 1.481 . S
C66 C65 1.375 . S
C66 C67 1.367 . S
C66 H80 0.951 . S
C67 C63 1.383 . S
C67 C66 1.367 . S
C67 H81 0.950 . S
C68 C65 1.481 . S
C68 C69 1.297 1_556 S
C68 H82 0.950 . S
C69 C68 1.297 1_554 S
C69 C70 1.479 . S
C69 H83 0.950 . S
C70 C69 1.479 . S
C70 C71 1.375 . S
C70 C76 1.404 1_554 S
C71 C70 1.375 . S
C71 C72 1.369 . S
C71 H84 0.950 . S
C72 C71 1.369 . S
C72 C73 1.392 . S
C72 H85 0.951 . S
C73 C72 1.392 . S
C73 C75 1.384 1_554 S
H74 C76 0.949 . S
C75 C73 1.384 1_556 S
C75 C76 1.385 . S
C75 H77 0.950 . S
C76 C70 1.404 1_556 S
C76 H74 0.949 . S
C76 C75 1.385 . S
H77 C75 0.950 . S
H78 C62 0.951 . S
H79 C64 0.951 . S
H80 C66 0.951 . S
H81 C67 0.950 . S
H82 C68 0.950 . S
H83 C69 0.950 . S
H84 C71 0.950 . S
H85 C72 0.951 . S
C86 C87 1.386 1_556 S
C86 C88 1.383 . S
C86 H102 0.951 . S
C87 C86 1.386 1_554 S
C87 C91 1.383 . S
C88 C86 1.383 . S
C88 C89 1.402 1_556 S
C88 H103 0.951 . S
C89 C88 1.402 1_554 S
C89 C90 1.375 . S
C89 C92 1.481 . S
C90 C89 1.375 . S
C90 C91 1.367 . S
C90 H104 0.951 . S
C91 C87 1.383 . S
C91 C90 1.367 . S
C91 H105 0.950 . S
C92 C89 1.481 . S
C92 C93 1.297 1_554 S
C92 H106 0.950 . S
C93 C92 1.297 1_556 S
C93 C94 1.479 . S
C93 H107 0.950 . S
C94 C93 1.479 . S
C94 C95 1.375 . S
C94 C100 1.404 1_556 S
C95 C94 1.375 . S
C95 C96 1.369 . S
C95 H108 0.950 . S
C96 C95 1.369 . S
C96 C97 1.392 . S
C96 H109 0.951 . S
C97 C96 1.392 . S
C97 C99 1.384 1_556 S
H98 C100 0.949 . S
C99 C97 1.384 1_554 S
C99 C100 1.385 . S
C99 H101 0.950 . S
C100 C94 1.404 1_554 S
C100 H98 0.949 . S
C100 C99 1.385 . S
H101 C99 0.950 . S
H102 C86 0.951 . S
H103 C88 0.951 . S
H104 C90 0.951 . S
H105 C91 0.950 . S
H106 C92 0.950 . S
H107 C93 0.950 . S
H108 C95 0.950 . S
H109 C96 0.951 . S
C110 C111 1.386 1_545 S
C110 C112 1.383 . S
C110 H126 0.951 . S
C111 C110 1.386 1_565 S
C111 C115 1.383 1_455 S
C112 C110 1.383 . S
C112 C113 1.402 1_545 S
C112 H127 0.951 . S
C113 C112 1.402 1_565 S
C113 C114 1.375 1_455 S
C113 C116 1.481 . S
C114 C113 1.375 1_655 S
C114 C115 1.367 . S
C114 H128 0.951 . S
C115 C111 1.383 1_655 S
C115 C114 1.367 . S
C115 H129 0.950 . S
C116 C113 1.481 . S
C116 C117 1.297 1_565 S
C116 H130 0.950 1_455 S
C117 C116 1.297 1_545 S
C117 C118 1.479 . S
C117 H131 0.950 . S
C118 C117 1.479 . S
C118 C119 1.375 . S
C118 C124 1.404 1_545 S
C119 C118 1.375 . S
C119 C120 1.369 . S
C119 H132 0.950 . S
C120 C119 1.369 . S
C120 C121 1.392 . S
C120 H133 0.951 . S
C121 C120 1.392 . S
C121 C123 1.384 1_445 S
H122 C124 0.949 1_655 S
C123 C121 1.384 1_665 S
C123 C124 1.385 1_655 S
C123 H125 0.950 . S
C124 C118 1.404 1_565 S
C124 H122 0.949 1_455 S
C124 C123 1.385 1_455 S
H125 C123 0.950 . S
H126 C110 0.951 . S
H127 C112 0.951 . S
H128 C114 0.951 . S
H129 C115 0.950 . S
H130 C116 0.950 1_655 S
H131 C117 0.950 . S
H132 C119 0.950 . S
H133 C120 0.951 . S
C39 C27 1.153 . S
C49 C10 1.085 1_556 S
C63 C24 2.118 . S
C73 C12 2.179 1_545 S
C87 C31 0.657 . S
C97 C18 0.774 . S
C111 C15 1.496 1_455 S
C121 C30 1.463 . S
