# Generated by pormake.
# Topology pcu, (6)-cn, num edge types: 1
# Building blocks:
#     Node 0, Type 0, BuildingBlock: KUMJIN_clean_sbu_0, # of connection points: 6
#     Edge 1, Type (0, 0), BuildingBlock: TEMPAE_clean_linker_10, # of connection points: 2
#     Edge 2, Type (0, 0), BuildingBlock: TEMPAE_clean_linker_10, # of connection points: 2
#     Edge 3, Type (0, 0), BuildingBlock: TEMPAE_clean_linker_10, # of connection points: 2
# Relax obj value: 0.000
# Max RMSD: 0.000
# Mean RMSD: 0.000
data_MOF--net-pcu--node1-KUMJIN_clean_sbu_0--edge1-TEMPAE_clean_linker_10
_symmetry_space_group_name_H-M    P1
_symmetry_Int_Tables_number       1
_symmetry_cell_setting            triclinic
loop_
_symmetry_equiv_pos_as_xyz
'x, y, z'
_cell_length_a     14.14593
_cell_length_b     24.844375
_cell_length_c     15.501653
_cell_angle_alpha  115.13383
_cell_angle_beta   74.31091
_cell_angle_gamma 116.95377
loop_
_atom_site_label
_atom_site_type_symbol
_atom_site_fract_x
_atom_site_fract_y
_atom_site_fract_z
_atom_type_partial_charge
Eu0 Eu 0.05393 0.08186 0.05499 0.0
C1 C 0.73846 0.82288 0.8269 0.0
C2 C 0.57415 0.80856 0.93165 0.0
C3 C 0.56812 0.7685 0.75972 0.0
C4 C 0.68669 0.83439 0.91881 0.0
C5 C 0.67925 0.78761 0.74649 0.0
C6 C 0.51553 0.77852 0.85221 0.0
C7 C 0.84064 0.78106 0.64692 0.0
N8 N 0.84525 0.83917 0.81616 0.0
C9 C 0.89524 0.8146 0.72887 0.0
C10 C 0.73262 0.7689 0.65549 0.0
Eu11 Eu 0.93335 0.90381 0.95772 0.0
N12 N 0.74536 0.86306 -0.00549 0.0
C13 C 0.69622 0.85944 0.08204 0.0
C14 C 0.52369 0.80918 0.0228 0.0
C15 C 0.58501 0.83291 0.09757 0.0
H16 H 0.97887 0.82401 0.72228 0.0
H17 H 0.5467 0.8312 0.16751 0.0
H18 H 0.42921 0.75994 0.86118 0.0
H19 H 0.88174 0.76443 0.57737 0.0
H20 H 0.74123 0.8761 0.14057 0.0
H21 H 0.43897 0.13537 0.84002 0.0
H22 H 0.43756 0.78877 0.0352 0.0
H23 H 0.99727 0.13846 0.29246 0.0
H24 H 0.24392 0.08537 0.868 0.0
H25 H 0.09298 0.20828 0.4381 0.0
H26 H 0.52156 0.74247 0.69884 0.0
H27 H 0.54769 0.20623 0.97707 0.0
H28 H 0.55538 0.25974 0.15488 0.0
H29 H 0.69004 0.74203 0.59204 0.0
H30 H 0.46196 0.27791 0.31708 0.0
N31 N 0.24115 0.12602 0.01996 0.0
C32 C 0.28983 0.11598 0.92875 0.0
C33 C 0.4618 0.1843 0.98998 0.0
C34 C 0.41135 0.19574 0.08325 0.0
C35 C 0.40071 0.1443 0.91245 0.0
C36 C 0.2994 0.16545 0.09622 0.0
H37 H 0.29001 0.25815 0.42333 0.0
N38 N 0.13911 0.14609 0.19769 0.0
C39 C 0.13726 0.1991 0.36819 0.0
C40 C 0.24702 0.17495 0.18771 0.0
C41 C 0.08342 0.15963 0.28592 0.0
C42 C 0.24849 0.22708 0.35952 0.0
C43 C 0.30475 0.21614 0.2685 0.0
O44 O 0.98954 0.15693 0.1226 0.0
O45 O 0.90616 0.99442 0.00765 0.0
O46 O 0.95903 0.93719 0.83548 0.0
O47 O 0.05206 0.04928 0.89431 0.0
O48 O 0.88737 0.0649 0.13313 0.0
O49 O 0.08951 0.15176 0.98825 0.0
O50 O 1.01111 0.86775 0.01353 0.0
O51 O 0.08245 0.99056 -0.00222 0.0
O52 O 0.0646 0.04217 0.15653 0.0
O53 O 0.91798 0.94453 0.12191 0.0
O54 O 0.09344 0.91848 0.86988 0.0
O55 O 0.88853 0.80039 0.91959 0.0
C56 C 0.83679 0.01008 0.07126 0.0
C57 C 0.09356 0.25499 0.0939 0.0
C58 C 0.13009 0.36006 0.08989 0.0
C59 C 0.07613 0.29234 0.05703 0.0
C60 C 0.20126 0.38971 0.16 0.0
C61 C 0.16376 0.286 0.16486 0.0
C62 C 0.21756 0.35282 0.1973 0.0
C63 C 1.00841 0.99406 0.82535 0.0
C64 C 0.03826 0.18406 0.05814 0.0
C65 C 0.41621 0.24626 0.25589 0.0
C66 C 0.46936 0.23615 0.16351 0.0
C67 C 0.14805 0.97289 0.93052 0.0
C68 C 1.0244 0.76807 0.91198 0.0
C69 C 1.01693 0.7203 0.94249 0.0
C70 C 0.07546 0.681 0.89053 0.0
C71 C 0.14349 0.69151 0.80917 0.0
C72 C 0.09071 0.77632 0.82915 0.0
C73 C 0.15073 0.73875 0.77883 0.0
C74 C 0.99121 0.99238 0.17935 0.0
C75 C 0.96026 0.80742 0.96521 0.0
H76 H 1.02169 0.2688 0.00241 0.0
H77 H 0.24301 0.44166 0.1872 0.0
H78 H 0.17665 0.25894 0.19599 0.0
H79 H 0.27165 0.37614 0.252 0.0
H80 H 0.96387 0.71284 0.0052 0.0
H81 H 0.19147 0.66325 0.769 0.0
H82 H 0.09565 0.81117 0.80243 0.0
H83 H 0.20255 0.74598 0.7156 0.0
C84 C 0.08867 0.02636 0.31721 0.0
C85 C 0.99344 0.99103 0.27308 0.0
C86 C 0.09332 0.02752 0.40709 0.0
C87 C 1.00016 0.99303 0.45459 0.0
C88 C 0.90367 0.95722 0.41051 0.0
C89 C 0.90166 0.95625 0.31973 0.0
C90 C 0.19809 0.06553 0.45097 0.0
C91 C 0.80243 0.92055 0.45974 0.0
C92 C 1.02956 0.94741 0.64756 0.0
C93 C 1.0119 0.99587 0.73092 0.0
C94 C 1.02648 0.94606 0.55703 0.0
C95 C 1.00414 0.99409 0.5501 0.0
C96 C 0.98699 0.04351 0.63432 0.0
C97 C 0.99206 0.04413 0.72394 0.0
C98 C 0.04718 0.8933 0.46891 0.0
C99 C 0.96152 0.09502 0.62979 0.0
H100 H 0.16029 0.05291 0.28107 0.0
H101 H 0.82779 0.9294 0.28633 0.0
H102 H 0.1898 0.10335 0.52052 0.0
H103 H 0.22116 0.03323 0.46546 0.0
H104 H 0.26342 0.08907 0.40395 0.0
H105 H 0.73379 0.89575 0.41633 0.0
H106 H 0.81389 0.88398 0.47432 0.0
H107 H 0.78256 0.95408 0.52983 0.0
H108 H 0.04704 0.91092 0.65314 0.0
H109 H 0.97738 0.08125 0.78874 0.0
H110 H 0.11597 0.91482 0.42228 0.0
H111 H 0.97711 0.86489 0.42684 0.0
H112 H 0.06409 0.8599 0.48682 0.0
H113 H 1.02706 0.1222 0.58726 0.0
H114 H 0.94933 0.12965 0.70198 0.0
H115 H 0.8883 0.07232 0.59309 0.0
C116 C 0.29707 0.02318 0.03453 0.0
C117 C 0.25486 0.9828 0.9465 0.0
C118 C 0.39557 0.03039 0.05123 0.0
C119 C 0.44667 0.98953 0.98314 0.0
C120 C 0.40106 0.94546 0.896 0.0
C121 C 0.3086 0.94476 0.87729 0.0
C122 C 0.44658 0.08388 0.13978 0.0
C123 C 0.44658 0.89757 0.82196 0.0
C124 C 0.73888 0.02251 0.97493 0.0
C125 C 0.73587 0.00064 0.04573 0.0
C126 C 0.64623 0.02141 0.95613 0.0
C127 C 0.5467 0.9929 0.00395 0.0
C128 C 0.54314 0.96816 0.07271 0.0
C129 C 0.63881 0.97653 0.09732 0.0
C130 C 0.65584 0.05116 0.88549 0.0
C131 C 0.43837 0.93103 0.11794 0.0
H132 H 0.25308 0.04909 0.09105 0.0
H133 H 0.27561 0.91175 0.8097 0.0
H134 H 0.47607 0.06712 0.17883 0.0
H135 H 0.51702 0.12161 0.11759 0.0
H136 H 0.391 0.10622 0.19033 0.0
H137 H 0.38202 0.84875 0.80015 0.0
H138 H 0.47954 0.91086 0.75692 0.0
H139 H 0.50978 0.89461 0.84699 0.0
H140 H 0.81485 0.0433 0.93718 0.0
H141 H 0.63747 0.96314 0.15569 0.0
H142 H 0.6004 0.07625 0.9086 0.0
H143 H 0.63571 0.01265 0.81477 0.0
H144 H 0.7383 0.08619 0.87605 0.0
H145 H 0.39199 0.96143 0.15977 0.0
H146 H 0.44961 0.9123 0.16635 0.0
H147 H 0.38929 0.88978 0.06078 0.0
C148 C 0.06743 0.63994 0.01634 0.0
C149 C 0.06636 0.62896 0.92001 0.0
C150 C 0.06781 0.59274 0.04345 0.0
C151 C 0.06728 0.53322 0.97252 0.0
C152 C 0.06173 0.52089 0.87574 0.0
C153 C 0.06118 0.56881 0.85074 0.0
C154 C 0.07321 0.60764 0.1475 0.0
C155 C 0.0606 0.45804 0.79798 0.0
C156 C 0.20029 0.44927 0.02548 0.0
C157 C 0.11269 0.4007 0.05279 0.0
C158 C 0.18627 0.49193 -0.0021 0.0
C159 C 0.08196 0.48628 -0.00174 0.0
C160 C 0.99296 0.43646 0.02388 0.0
C161 C 1.00941 0.39397 0.0504 0.0
C162 C 0.28332 0.5437 0.96968 0.0
C163 C 0.88059 0.42912 0.02567 0.0
H164 H 0.07195 0.68635 0.0702 0.0
H165 H 0.0581 0.55946 0.77638 0.0
H166 H 1.01087 0.56786 0.1711 0.0
H167 H 0.15153 0.61171 0.15685 0.0
H168 H 0.06296 0.65339 0.19476 0.0
H169 H 0.04739 0.45389 0.72756 0.0
H170 H 0.13779 0.45422 0.79057 0.0
H171 H 0.9973 0.41659 0.81714 0.0
H172 H 0.28022 0.45414 0.02632 0.0
H173 H 0.94158 0.35684 0.07235 0.0
H174 H 0.2854 0.59205 0.01931 0.0
H175 H 0.27929 0.53989 0.8967 0.0
H176 H 0.35878 0.54049 0.97076 0.0
H177 H 0.86813 0.47277 0.07974 0.0
H178 H 0.82005 0.38625 0.04318 0.0
H179 H 0.86734 0.42479 0.95527 0.0
loop_
_geom_bond_atom_site_label_1
_geom_bond_atom_site_label_2
_geom_bond_distance
_geom_bond_site_symmetry_2
_ccdc_geom_bond_type
Eu0 N31 2.657 1_554 S
Eu0 N38 2.609 . S
Eu0 O44 2.558 . S
Eu0 O45 2.612 1_444 S
Eu0 O47 2.339 1_554 S
Eu0 O48 2.563 1_455 S
Eu0 O49 2.419 . S
Eu0 O51 2.380 . S
Eu0 O52 2.432 1_455 S
Eu0 C64 2.848 . S
C1 C4 1.429 . S
C1 C5 1.411 . S
C1 N8 1.377 . S
C2 C4 1.420 . S
C2 C6 1.423 . S
C2 C14 1.392 1_556 S
C3 C5 1.420 . S
C3 C6 1.351 . S
C3 H26 0.931 . S
C4 C1 1.429 . S
C4 C2 1.420 . S
C4 N12 1.362 1_556 S
C5 C1 1.411 . S
C5 C3 1.420 . S
C5 C10 1.395 . S
C6 C2 1.423 . S
C6 C3 1.351 . S
C6 H18 0.930 . S
C7 C9 1.400 . S
C7 C10 1.386 . S
C7 H19 0.930 . S
N8 C1 1.377 . S
N8 C9 1.321 . S
N8 Eu11 2.609 . S
C9 C7 1.400 . S
C9 N8 1.321 . S
C9 H16 0.930 . S
C10 C5 1.395 . S
C10 C7 1.386 . S
C10 H29 0.930 . S
Eu11 N8 2.609 . S
Eu11 N12 2.657 1_556 S
Eu11 O45 2.380 . S
Eu11 O46 2.432 1_655 S
Eu11 O50 2.558 . S
Eu11 O51 2.612 1_666 S
Eu11 O53 2.339 1_556 S
Eu11 O54 2.563 1_655 S
Eu11 O55 2.419 . S
Eu11 C75 2.848 . S
N12 C4 1.362 1_554 S
N12 Eu11 2.657 1_554 S
N12 C13 1.334 . S
C13 N12 1.334 . S
C13 C15 1.413 . S
C13 H20 0.929 . S
C14 C2 1.392 1_554 S
C14 C15 1.367 . S
C14 H22 0.930 . S
C15 C13 1.413 . S
C15 C14 1.367 . S
C15 H17 0.930 . S
H16 C9 0.930 . S
H17 C15 0.930 . S
H18 C6 0.930 . S
H19 C7 0.930 . S
H20 C13 0.929 . S
H21 C35 0.930 . S
H22 C14 0.930 . S
H23 C41 0.930 . S
H24 C32 0.929 . S
H25 C39 0.930 . S
H26 C3 0.931 . S
H27 C33 0.930 . S
H28 C66 0.930 . S
H29 C10 0.930 . S
H30 C65 0.931 . S
N31 Eu0 2.657 1_556 S
N31 C32 1.334 . S
N31 C36 1.362 1_556 S
C32 H24 0.929 . S
C32 N31 1.334 . S
C32 C35 1.413 . S
C33 H27 0.930 . S
C33 C34 1.392 1_556 S
C33 C35 1.367 . S
C34 C33 1.392 1_554 S
C34 C36 1.420 . S
C34 C66 1.423 . S
C35 H21 0.930 . S
C35 C32 1.413 . S
C35 C33 1.367 . S
C36 N31 1.362 1_554 S
C36 C34 1.420 . S
C36 C40 1.429 . S
H37 C42 0.930 . S
N38 Eu0 2.609 . S
N38 C40 1.377 . S
N38 C41 1.321 . S
C39 H25 0.930 . S
C39 C41 1.400 . S
C39 C42 1.386 . S
C40 C36 1.429 . S
C40 N38 1.377 . S
C40 C43 1.411 . S
C41 H23 0.930 . S
C41 N38 1.321 . S
C41 C39 1.400 . S
C42 H37 0.930 . S
C42 C39 1.386 . S
C42 C43 1.395 . S
C43 C40 1.411 . S
C43 C42 1.395 . S
C43 C65 1.420 . S
O44 Eu0 2.558 . S
O44 C64 1.257 . S
O45 Eu0 2.612 1_666 S
O45 Eu11 2.380 . S
O45 C56 1.276 1_566 S
O46 Eu11 2.432 1_455 S
O46 C63 1.264 . S
O47 Eu0 2.339 1_556 S
O47 C63 1.254 1_545 S
O48 Eu0 2.563 1_655 S
O48 C56 1.235 . S
O49 Eu0 2.419 . S
O49 C64 1.249 . S
O50 Eu11 2.558 . S
O50 C75 1.257 . S
O51 Eu0 2.380 . S
O51 Eu11 2.612 1_444 S
O51 C67 1.276 1_544 S
O52 Eu0 2.432 1_655 S
O52 C74 1.264 . S
O53 Eu11 2.339 1_554 S
O53 C74 1.254 1_565 S
O54 Eu11 2.563 1_455 S
O54 C67 1.235 . S
O55 Eu11 2.419 . S
O55 C75 1.249 . S
C56 O45 1.276 1_544 S
C56 O48 1.235 . S
C57 C59 1.393 . S
C57 C61 1.395 . S
C57 C64 1.492 . S
C58 C59 1.392 . S
C58 C60 1.386 . S
C59 C57 1.393 . S
C59 C58 1.392 . S
C59 H76 0.930 1_554 S
C60 C58 1.386 . S
C60 C62 1.395 . S
C60 H77 0.930 . S
C61 C57 1.395 . S
C61 C62 1.379 . S
C61 H78 0.930 . S
C62 C60 1.395 . S
C62 C61 1.379 . S
C62 H79 0.930 . S
C63 O46 1.264 . S
C63 O47 1.254 1_565 S
C64 Eu0 2.848 . S
C64 O44 1.257 . S
C64 O49 1.249 . S
C64 C57 1.492 . S
C65 H30 0.931 . S
C65 C43 1.420 . S
C65 C66 1.351 . S
C66 H28 0.930 . S
C66 C34 1.423 . S
C66 C65 1.351 . S
C67 O51 1.276 1_566 S
C67 O54 1.235 . S
C68 C69 1.393 . S
C68 C72 1.395 . S
C68 C75 1.492 . S
C69 C68 1.393 . S
C69 C70 1.392 . S
C69 H80 0.930 1_556 S
C70 C69 1.392 . S
C70 C71 1.386 . S
C71 C70 1.386 . S
C71 C73 1.395 . S
C71 H81 0.930 . S
C72 C68 1.395 . S
C72 C73 1.379 . S
C72 H82 0.930 . S
C73 C71 1.395 . S
C73 C72 1.379 . S
C73 H83 0.930 . S
C74 O52 1.264 . S
C74 O53 1.254 1_545 S
C75 Eu11 2.848 . S
C75 O50 1.257 . S
C75 O55 1.249 . S
C75 C68 1.492 . S
H76 C59 0.930 1_556 S
H77 C60 0.930 . S
H78 C61 0.930 . S
H79 C62 0.930 . S
H80 C69 0.930 1_554 S
H81 C71 0.930 . S
H82 C72 0.930 . S
H83 C73 0.930 . S
C84 C85 1.391 1_455 S
C84 C86 1.394 . S
C84 H100 0.931 . S
C85 C84 1.391 1_655 S
C85 C89 1.376 1_545 S
C86 C84 1.394 . S
C86 C87 1.369 1_455 S
C86 C90 1.531 . S
C87 C86 1.369 1_655 S
C87 C88 1.410 1_545 S
C87 C95 1.503 . S
C88 C87 1.410 1_565 S
C88 C89 1.392 . S
C88 C91 1.511 . S
C89 C85 1.376 1_565 S
C89 C88 1.392 . S
C89 H101 0.929 . S
C90 C86 1.531 . S
C90 H102 0.960 . S
C90 H103 0.962 . S
C90 H104 0.960 . S
C91 C88 1.511 . S
C91 H105 0.961 . S
C91 H106 0.961 . S
C91 H107 0.961 . S
C92 C93 1.370 1_465 S
C92 C94 1.363 . S
C92 H108 0.931 . S
C93 C92 1.370 1_645 S
C93 C97 1.408 . S
C94 C92 1.363 . S
C94 C95 1.370 1_465 S
C94 C98 1.524 . S
C95 C87 1.503 . S
C95 C94 1.370 1_645 S
C95 C96 1.403 . S
C96 C95 1.403 . S
C96 C97 1.404 . S
C96 C99 1.539 . S
C97 C93 1.408 . S
C97 C96 1.404 . S
C97 H109 0.930 . S
C98 C94 1.524 . S
C98 H110 0.956 . S
C98 H111 0.961 . S
C98 H112 0.961 . S
C99 C96 1.539 . S
C99 H113 0.958 . S
C99 H114 0.961 . S
C99 H115 0.960 . S
H100 C84 0.931 . S
H101 C89 0.929 . S
H102 C90 0.960 . S
H103 C90 0.962 . S
H104 C90 0.960 . S
H105 C91 0.961 . S
H106 C91 0.961 . S
H107 C91 0.961 . S
H108 C92 0.931 . S
H109 C97 0.930 . S
H110 C98 0.956 . S
H111 C98 0.961 . S
H112 C98 0.961 . S
H113 C99 0.958 . S
H114 C99 0.961 . S
H115 C99 0.960 . S
C116 C117 1.391 1_545 S
C116 C118 1.394 . S
C116 H132 0.931 . S
C117 C116 1.391 1_565 S
C117 C121 1.376 1_554 S
C118 C116 1.394 . S
C118 C119 1.369 1_545 S
C118 C122 1.531 . S
C119 C118 1.369 1_565 S
C119 C120 1.410 1_554 S
C119 C127 1.503 . S
C120 C119 1.410 1_556 S
C120 C121 1.392 . S
C120 C123 1.511 . S
C121 C117 1.376 1_556 S
C121 C120 1.392 . S
C121 H133 0.929 . S
C122 C118 1.531 . S
C122 H134 0.960 . S
C122 H135 0.962 . S
C122 H136 0.960 . S
C123 C120 1.511 . S
C123 H137 0.961 . S
C123 H138 0.961 . S
C123 H139 0.961 . S
C124 C125 1.354 1_546 S
C124 C126 1.363 . S
C124 H140 0.931 . S
C125 C124 1.354 1_564 S
C125 C129 1.414 . S
C126 C124 1.363 . S
C126 C127 1.370 1_546 S
C126 C130 1.524 . S
C127 C119 1.503 . S
C127 C126 1.370 1_564 S
C127 C128 1.403 . S
C128 C127 1.403 . S
C128 C129 1.404 . S
C128 C131 1.539 . S
C129 C125 1.414 . S
C129 C128 1.404 . S
C129 H141 0.930 . S
C130 C126 1.524 . S
C130 H142 0.956 . S
C130 H143 0.961 1_545 S
C130 H144 0.961 . S
C131 C128 1.539 . S
C131 H145 0.958 . S
C131 H146 0.961 . S
C131 H147 0.960 . S
H132 C116 0.931 . S
H133 C121 0.929 . S
H134 C122 0.960 . S
H135 C122 0.962 . S
H136 C122 0.960 . S
H137 C123 0.961 . S
H138 C123 0.961 . S
H139 C123 0.961 . S
H140 C124 0.931 . S
H141 C129 0.930 . S
H142 C130 0.956 . S
H143 C130 0.961 1_565 S
H144 C130 0.961 . S
H145 C131 0.958 . S
H146 C131 0.961 . S
H147 C131 0.960 . S
C148 C149 1.391 1_455 S
C148 C150 1.394 . S
C148 H164 0.931 . S
C149 C148 1.391 1_655 S
C149 C153 1.376 1_554 S
C150 C148 1.394 . S
C150 C151 1.369 1_455 S
C150 C154 1.531 . S
C151 C150 1.369 1_655 S
C151 C152 1.410 1_554 S
C151 C159 1.503 . S
C152 C151 1.410 1_556 S
C152 C153 1.392 . S
C152 C155 1.511 . S
C153 C149 1.376 1_556 S
C153 C152 1.392 . S
C153 H165 0.929 . S
C154 C150 1.531 . S
C154 H166 0.960 . S
C154 H167 0.962 . S
C154 H168 0.960 . S
C155 C152 1.511 . S
C155 H169 0.961 . S
C155 H170 0.961 . S
C155 H171 0.961 . S
C156 C157 1.370 1_456 S
C156 C158 1.363 . S
C156 H172 0.931 . S
C157 C156 1.370 1_654 S
C157 C161 1.408 . S
C158 C156 1.363 . S
C158 C159 1.370 1_456 S
C158 C162 1.524 . S
C159 C151 1.503 . S
C159 C158 1.370 1_654 S
C159 C160 1.403 . S
C160 C159 1.403 . S
C160 C161 1.404 . S
C160 C163 1.539 . S
C161 C157 1.408 . S
C161 C160 1.404 . S
C161 H173 0.930 . S
C162 C158 1.524 . S
C162 H174 0.956 . S
C162 H175 0.961 . S
C162 H176 0.961 . S
C163 C160 1.539 . S
C163 H177 0.958 . S
C163 H178 0.961 . S
C163 H179 0.960 . S
H164 C148 0.931 . S
H165 C153 0.929 . S
H166 C154 0.960 . S
H167 C154 0.962 . S
H168 C154 0.960 . S
H169 C155 0.961 . S
H170 C155 0.961 . S
H171 C155 0.961 . S
H172 C156 0.931 . S
H173 C161 0.930 . S
H174 C162 0.956 . S
H175 C162 0.961 . S
H176 C162 0.961 . S
H177 C163 0.958 . S
H178 C163 0.961 . S
H179 C163 0.960 . S
C85 C74 1.448 . S
C93 C63 1.480 1_645 S
C117 C67 1.431 1_554 S
C125 C56 1.446 1_565 S
C149 C70 1.325 1_554 S
C157 C58 1.326 1_655 S
