# Generated by pormake.
# Topology mdf, (4)-cn, num edge types: 1
# Building blocks:
#     Node 0, Type 0, BuildingBlock: NAHDIM_clean_sbu_0, # of connection points: 4
#     Node 1, Type 0, BuildingBlock: NAHDIM_clean_sbu_0, # of connection points: 4
#     Node 2, Type 0, BuildingBlock: NAHDIM_clean_sbu_0, # of connection points: 4
#     Node 3, Type 0, BuildingBlock: NAHDIM_clean_sbu_0, # of connection points: 4
#     Node 4, Type 0, BuildingBlock: NAHDIM_clean_sbu_0, # of connection points: 4
#     Node 5, Type 0, BuildingBlock: NAHDIM_clean_sbu_0, # of connection points: 4
#     Node 6, Type 0, BuildingBlock: NAHDIM_clean_sbu_0, # of connection points: 4
#     Node 7, Type 0, BuildingBlock: NAHDIM_clean_sbu_0, # of connection points: 4
#     Edge 8, Type (0, 0), BuildingBlock: OJICUG_clean_linker_0, # of connection points: 2
#     Edge 9, Type (0, 0), BuildingBlock: OJICUG_clean_linker_0, # of connection points: 2
#     Edge 10, Type (0, 0), BuildingBlock: OJICUG_clean_linker_0, # of connection points: 2
#     Edge 11, Type (0, 0), BuildingBlock: OJICUG_clean_linker_0, # of connection points: 2
#     Edge 12, Type (0, 0), BuildingBlock: OJICUG_clean_linker_0, # of connection points: 2
#     Edge 13, Type (0, 0), BuildingBlock: OJICUG_clean_linker_0, # of connection points: 2
#     Edge 14, Type (0, 0), BuildingBlock: OJICUG_clean_linker_0, # of connection points: 2
#     Edge 15, Type (0, 0), BuildingBlock: OJICUG_clean_linker_0, # of connection points: 2
#     Edge 16, Type (0, 0), BuildingBlock: OJICUG_clean_linker_0, # of connection points: 2
#     Edge 17, Type (0, 0), BuildingBlock: OJICUG_clean_linker_0, # of connection points: 2
#     Edge 18, Type (0, 0), BuildingBlock: OJICUG_clean_linker_0, # of connection points: 2
#     Edge 19, Type (0, 0), BuildingBlock: OJICUG_clean_linker_0, # of connection points: 2
#     Edge 20, Type (0, 0), BuildingBlock: OJICUG_clean_linker_0, # of connection points: 2
#     Edge 21, Type (0, 0), BuildingBlock: OJICUG_clean_linker_0, # of connection points: 2
#     Edge 22, Type (0, 0), BuildingBlock: OJICUG_clean_linker_0, # of connection points: 2
#     Edge 23, Type (0, 0), BuildingBlock: OJICUG_clean_linker_0, # of connection points: 2
# Relax obj value: 0.050
# Max RMSD: 0.056
# Mean RMSD: 0.056
data_MOF--net-mdf--node1-NAHDIM_clean_sbu_0--edge1-OJICUG_clean_linker_0
_symmetry_space_group_name_H-M    P1
_symmetry_Int_Tables_number       1
_symmetry_cell_setting            triclinic
loop_
_symmetry_equiv_pos_as_xyz
'x, y, z'
_cell_length_a     25.693353
_cell_length_b     25.651296
_cell_length_c     10.974857
_cell_angle_alpha  90.075353
_cell_angle_beta   89.984851
_cell_angle_gamma 98.011935
loop_
_atom_site_label
_atom_site_type_symbol
_atom_site_fract_x
_atom_site_fract_y
_atom_site_fract_z
_atom_type_partial_charge
C0 C 0.21224 0.60679 0.52801 0.0
O1 O 0.18369 0.58204 0.44091 0.0
O2 O 0.32393 0.60172 0.27841 0.0
Zn3 Zn 0.29305 0.55583 0.4163 0.0
O4 O 0.23974 0.49436 0.35955 0.0
C5 C 0.38351 0.50355 0.42683 0.0
O6 O 0.37698 0.50567 0.30828 0.0
O7 O 0.26043 0.60106 0.5369 0.0
C8 C 0.20944 0.49331 0.26759 0.0
O9 O 0.21124 0.53524 0.19836 0.0
C10 C 0.30294 0.63755 0.2251 0.0
O11 O 0.25537 0.64595 0.2555 0.0
O12 O 0.35224 0.52418 0.496 0.0
C13 C 0.36431 0.77399 0.40948 0.0
O14 O 0.3315 0.74831 0.48763 0.0
O15 O 0.40027 0.74184 0.72454 0.0
Zn16 Zn 0.44917 0.75682 0.57991 0.0
O17 O 0.50927 0.81366 0.62459 0.0
C18 C 0.47966 0.65101 0.60022 0.0
O19 O 0.46015 0.65129 0.71072 0.0
O20 O 0.41317 0.78166 0.4331 0.0
C21 C 0.55355 0.80228 0.65935 0.0
O22 O 0.56073 0.75263 0.66472 0.0
C23 C 0.42062 0.74423 0.83045 0.0
O24 O 0.4714 0.75891 0.84178 0.0
O25 O 0.47827 0.69059 0.53115 0.0
C26 C 0.29418 0.8754 0.98306 0.0
O27 O 0.32313 0.88188 0.88407 0.0
O28 O 0.20814 0.88909 0.71402 0.0
Zn29 Zn 0.23186 0.93975 0.84954 0.0
O30 O 0.29326 0.99429 0.79759 0.0
C31 C 0.1567 0.01339 0.83613 0.0
O32 O 0.18155 0.0258 0.73332 0.0
O33 O 0.2529 0.89731 0.99029 0.0
C34 C 0.30201 0.03702 0.85793 0.0
O35 O 0.27216 0.04342 0.9525 0.0
C36 C 0.21045 0.90271 0.60279 0.0
O37 O 0.23017 0.95117 0.57424 0.0
O38 O 0.17083 0.97692 0.90146 0.0
C39 C 0.11615 0.73047 0.88132 0.0
O40 O 0.14481 0.76302 0.95535 0.0
O41 O 0.07781 0.78581 0.15811 0.0
Zn42 Zn 0.02786 0.75441 0.02784 0.0
O43 O 0.97045 0.69866 0.08886 0.0
C44 C 0.98385 0.85002 0.03118 0.0
O45 O 0.99589 0.84708 0.14706 0.0
O46 O 0.06662 0.72209 0.89535 0.0
C47 C 0.95113 0.69529 0.19563 0.0
O48 O 0.96987 0.72973 0.27883 0.0
C49 C 0.09846 0.76431 0.24658 0.0
O50 O 0.08793 0.71318 0.26258 0.0
O51 O 0.99383 0.81385 0.9591 0.0
C52 C 0.74321 0.14197 0.07276 0.0
O53 O 0.77205 0.17806 0.00768 0.0
O54 O 0.80354 0.11986 0.77589 0.0
Zn55 Zn 0.77206 0.06443 0.89452 0.0
O56 O 0.71699 0.01086 0.81494 0.0
C57 C 0.85584 1.00401 0.87101 0.0
O58 O 0.84306 0.00743 0.75566 0.0
O59 O 0.73895 0.09403 0.04017 0.0
C60 C 0.71102 0.96377 0.8542 0.0
O61 O 0.74022 0.95165 0.9453 0.0
C62 C 0.79196 0.11687 0.66334 0.0
O63 O 0.75497 0.07977 0.6258 0.0
O64 O 0.83103 0.02679 0.95066 0.0
C65 C 0.89238 0.30373 0.9659 0.0
O66 O 0.90408 0.32886 0.06885 0.0
O67 O 0.92556 0.21457 0.19906 0.0
Zn68 Zn 0.96886 0.24487 0.0569 0.0
O69 O 0.01995 0.30957 0.10225 0.0
C70 C 0.01006 0.14476 0.02726 0.0
O71 O 0.98278 0.13112 0.12623 0.0
O72 O 0.91661 0.26558 0.93698 0.0
C73 C 0.06085 0.30667 0.16579 0.0
O74 O 0.06958 0.26051 0.20641 0.0
C75 C 0.92768 0.23184 0.30766 0.0
O76 O 0.96243 0.27242 0.33699 0.0
O77 O 0.00919 0.19035 0.98233 0.0
C78 C 0.74931 0.37518 0.61974 0.0
O79 O 0.72814 0.34377 0.53309 0.0
O80 O 0.6861 0.40755 0.34669 0.0
Zn81 Zn 0.7139 0.45956 0.47627 0.0
O82 O 0.77066 0.51617 0.41521 0.0
C83 C 0.62159 0.50787 0.45602 0.0
O84 O 0.62992 0.4986 0.34039 0.0
O85 O 0.74577 0.42403 0.61474 0.0
C86 C 0.77765 0.53271 0.3065 0.0
O87 O 0.74565 0.51234 0.2202 0.0
C88 C 0.71195 0.38784 0.26401 0.0
O89 O 0.76321 0.40064 0.25842 0.0
O90 O 0.65306 0.49411 0.53535 0.0
C91 C 0.62149 0.19688 0.48456 0.0
O92 O 0.60248 0.16115 0.56455 0.0
O93 O 0.60605 0.28513 0.77085 0.0
Zn94 Zn 0.56094 0.26249 0.62425 0.0
O95 O 0.5046 0.20045 0.66404 0.0
C96 C 0.5175 0.36255 0.62809 0.0
O97 O 0.5307 0.36388 0.74379 0.0
O98 O 0.60878 0.24287 0.49183 0.0
C99 C 0.46174 0.20845 0.71426 0.0
O100 O 0.45448 0.25701 0.73923 0.0
C101 C 0.59179 0.27497 0.88014 0.0
O102 O 0.54565 0.24756 0.90149 0.0
O103 O 0.52662 0.32385 0.56255 0.0
C104 C 0.41605 0.70137 0.03404 0.0
C105 C 0.39002 0.72184 0.93638 0.0
H106 H 0.40872 0.65824 0.20107 0.0
C107 C 0.33495 0.71758 0.93818 0.0
H108 H 0.4585 0.70409 0.03538 0.0
C109 C 0.3063 0.6919 0.03462 0.0
C110 C 0.33242 0.66903 0.12883 0.0
H111 H 0.31425 0.73373 0.86452 0.0
H112 H 0.2638 0.68834 0.03331 0.0
C113 C 0.38754 0.67479 0.1286 0.0
C114 C 0.38066 0.81366 0.20294 0.0
C115 C 0.34506 0.79599 0.29634 0.0
H116 H 0.39233 0.85187 0.03 0.0
C117 C 0.29176 0.80144 0.282 0.0
H118 H 0.42186 0.80926 0.21034 0.0
C119 C 0.27498 0.82636 0.17877 0.0
C120 C 0.311 0.84566 0.08762 0.0
H121 H 0.26333 0.78781 0.35186 0.0
H122 H 0.23391 0.83091 0.1705 0.0
C123 C 0.36374 0.83791 0.09931 0.0
C124 C 0.14668 0.85168 0.30806 0.0
C125 C 0.13127 0.79811 0.33455 0.0
H126 H 0.1847 0.92629 0.37069 0.0
C127 C 0.1453 0.77836 0.44739 0.0
H128 H 0.13691 0.86811 0.2215 0.0
C129 C 0.17226 0.81208 0.53385 0.0
C130 C 0.18633 0.86594 0.50823 0.0
H131 H 0.13413 0.7373 0.4703 0.0
H132 H 0.18136 0.79616 0.6214 0.0
C133 C 0.17433 0.88507 0.39341 0.0
C134 C 0.11011 0.66881 0.70371 0.0
C135 C 0.14119 0.70116 0.78695 0.0
H136 H 0.1082 0.61392 0.5566 0.0
C137 C 0.1961 0.70372 0.78162 0.0
H138 H 0.06768 0.66622 0.70476 0.0
C139 C 0.21942 0.67334 0.69703 0.0
C140 C 0.18818 0.64021 0.61544 0.0
H141 H 0.22094 0.72868 0.84394 0.0
H142 H 0.26183 0.67566 0.69588 0.0
C143 C 0.13336 0.63881 0.61865 0.0
C144 C 0.81137 0.14703 0.44957 0.0
C145 C 0.82436 0.15007 0.57389 0.0
H146 H 0.83402 0.17038 0.26797 0.0
C147 C 0.87072 0.18206 0.61044 0.0
H148 H 0.77615 0.12256 0.41839 0.0
C149 C 0.90352 0.21013 0.52438 0.0
C150 C 0.8913 0.20561 0.39988 0.0
H151 H 0.88258 0.18425 0.70516 0.0
H152 H 0.93936 0.2338 0.55501 0.0
C153 C 0.84464 0.17426 0.36339 0.0
C154 C 0.84166 0.37274 0.88737 0.0
C155 C 0.85286 0.3208 0.88312 0.0
H156 H 0.79989 0.4306 0.80791 0.0
C157 C 0.82674 0.28569 0.79769 0.0
H158 H 0.86085 0.40054 0.95315 0.0
C159 C 0.7918 0.30279 0.71405 0.0
C160 C 0.78221 0.35541 0.71492 0.0
H161 H 0.83333 0.24502 0.79572 0.0
H162 H 0.77311 0.27503 0.64756 0.0
C163 C 0.80675 0.38992 0.80398 0.0
C164 C 0.63041 0.33293 0.18873 0.0
C165 C 0.68323 0.3542 0.16971 0.0
H166 H 0.56048 0.29026 0.1129 0.0
C167 C 0.707 0.34548 0.0577 0.0
H168 H 0.61114 0.33848 0.27468 0.0
C169 C 0.67767 0.31837 0.96425 0.0
C170 C 0.62435 0.29878 0.98203 0.0
H171 H 0.74766 0.36118 0.04084 0.0
H172 H 0.69641 0.31352 0.87746 0.0
C173 C 0.60143 0.30505 0.09626 0.0
C174 C 0.71431 0.20948 0.21425 0.0
C175 C 0.71431 0.1565 0.18155 0.0
H176 H 0.68543 0.26372 0.33732 0.0
C177 C 0.68545 0.11702 0.25284 0.0
H178 H 0.73648 0.2408 0.16193 0.0
C179 C 0.65641 0.13017 0.35299 0.0
C180 C 0.65508 0.1831 0.38343 0.0
H181 H 0.68492 0.07577 0.2309 0.0
H182 H 0.63406 0.09881 0.40486 0.0
C183 C 0.6849 0.22262 0.31422 0.0
C184 C 0.43065 0.4701 0.6048 0.0
C185 C 0.42264 0.47236 0.47832 0.0
H186 H 0.46753 0.43406 0.75143 0.0
C187 C 0.4499 0.44165 0.40132 0.0
H188 H 0.41074 0.49374 0.66651 0.0
C189 C 0.48201 0.40718 0.44994 0.0
C190 C 0.48806 0.40306 0.5766 0.0
H191 H 0.44506 0.44278 0.30339 0.0
H192 H 0.50121 0.38291 0.38821 0.0
C193 C 0.46329 0.43598 0.65343 0.0
C194 C 0.67443 0.86943 0.82197 0.0
C195 C 0.67166 0.92287 0.79951 0.0
H196 H 0.63984 0.78961 0.79403 0.0
C197 C 0.63058 0.93649 0.72686 0.0
H198 H 0.70579 0.85763 0.87697 0.0
C199 C 0.59226 0.89736 0.68028 0.0
C200 C 0.59488 0.8439 0.70382 0.0
H201 H 0.62742 0.97737 0.70804 0.0
H202 H 0.56054 0.90897 0.62622 0.0
C203 C 0.63672 0.83039 0.77395 0.0
C204 C 0.05042 0.06102 0.03032 0.0
C205 C 0.04434 0.10888 0.97325 0.0
H206 H 0.09063 0.99322 0.0319 0.0
C207 C 0.07309 0.12322 0.8666 0.0
H208 H 0.02857 0.04856 0.11209 0.0
C209 C 0.10837 0.09137 0.82033 0.0
C210 C 0.11602 0.04458 0.87998 0.0
H211 H 0.0691 0.15961 0.81983 0.0
H212 H 0.13066 0.10422 0.73941 0.0
C213 C 0.08604 0.0293 0.98444 0.0
C214 C 0.87966 0.62398 0.13032 0.0
C215 C 0.90695 0.65352 0.22431 0.0
H216 H 0.8172 0.56312 0.08232 0.0
C217 C 0.89129 0.643 0.34548 0.0
H218 H 0.8906 0.63119 0.03588 0.0
C219 C 0.84948 0.60363 0.37209 0.0
C220 C 0.82195 0.57436 0.27802 0.0
H221 H 0.91153 0.66495 0.41997 0.0
H222 H 0.83849 0.59642 0.46651 0.0
C223 C 0.83742 0.58508 0.15682 0.0
C224 C 0.38314 0.0715 0.73743 0.0
C225 C 0.34345 0.08019 0.82033 0.0
H226 H 0.45222 0.10507 0.63972 0.0
C227 C 0.34326 0.13113 0.86746 0.0
H228 H 0.3844 0.03266 0.69965 0.0
C229 C 0.38145 0.1725 0.83208 0.0
C230 C 0.42136 0.16396 0.74992 0.0
H231 H 0.31318 0.13932 0.93108 0.0
H232 H 0.37984 0.21122 0.87017 0.0
C233 C 0.42201 0.11291 0.70334 0.0
C234 C 0.90963 0.96736 0.03117 0.0
C235 C 0.89365 0.96878 0.90898 0.0
H236 H 0.9511 0.92903 0.16537 0.0
C237 C 0.91124 0.93362 0.82518 0.0
H238 H 0.8972 0.99435 0.09765 0.0
C239 C 0.9419 0.89594 0.86409 0.0
C240 C 0.9558 0.89291 0.98743 0.0
H241 H 0.8998 0.93389 0.73023 0.0
H242 H 0.95351 0.86834 0.79804 0.0
C243 C 0.94053 0.9299 0.06994 0.0
C244 C 0.13907 0.35302 0.27779 0.0
C245 C 0.09852 0.3546 0.19245 0.0
H246 H 0.20559 0.39546 0.36887 0.0
C247 C 0.09478 0.40223 0.13191 0.0
H248 H 0.14305 0.31702 0.32618 0.0
C249 C 0.13101 0.44713 0.15552 0.0
C250 C 0.17143 0.44559 0.24122 0.0
H251 H 0.0641 0.40478 0.06539 0.0
H252 H 0.12706 0.48314 0.10713 0.0
C253 C 0.17491 0.39805 0.30238 0.0
C254 C 0.53119 0.57804 0.64976 0.0
C255 C 0.50972 0.60877 0.56215 0.0
H256 H 0.58376 0.52193 0.68485 0.0
C257 C 0.52101 0.60186 0.43849 0.0
H258 H 0.52291 0.58229 0.74576 0.0
C259 C 0.55538 0.56693 0.40356 0.0
C260 C 0.57975 0.5389 0.49183 0.0
H261 H 0.50444 0.62456 0.3689 0.0
H262 H 0.56458 0.56371 0.30778 0.0
C263 C 0.56622 0.54368 0.61498 0.0
loop_
_geom_bond_atom_site_label_1
_geom_bond_atom_site_label_2
_geom_bond_distance
_geom_bond_site_symmetry_2
_ccdc_geom_bond_type
C0 O1 1.160 . S
C0 O7 1.185 . S
O1 C0 1.160 . S
O2 Zn3 1.899 . S
O2 C10 1.284 . S
Zn3 O2 1.899 . S
Zn3 O4 2.032 . S
Zn3 O7 2.086 . S
Zn3 O12 1.977 . S
O4 Zn3 2.032 . S
O4 C8 1.278 . S
C5 O6 1.203 . S
C5 O12 1.267 . S
O6 C5 1.203 . S
O7 C0 1.185 . S
O7 Zn3 2.086 . S
C8 O4 1.278 . S
C8 O9 1.211 . S
O9 C8 1.211 . S
C10 O2 1.284 . S
C10 O11 1.273 . S
O11 C10 1.273 . S
O12 Zn3 1.977 . S
O12 C5 1.267 . S
C13 O14 1.160 . S
C13 O20 1.185 . S
O14 C13 1.160 . S
O15 Zn16 1.899 . S
O15 C23 1.284 . S
Zn16 O15 1.899 . S
Zn16 O17 2.032 . S
Zn16 O20 2.086 . S
Zn16 O25 1.977 . S
O17 Zn16 2.032 . S
O17 C21 1.278 . S
C18 O19 1.203 . S
C18 O25 1.267 . S
O19 C18 1.203 . S
O20 C13 1.185 . S
O20 Zn16 2.086 . S
C21 O17 1.278 . S
C21 O22 1.211 . S
O22 C21 1.211 . S
C23 O15 1.284 . S
C23 O24 1.273 . S
O24 C23 1.273 . S
O25 Zn16 1.977 . S
O25 C18 1.267 . S
C26 O27 1.160 1_554 S
C26 O33 1.185 . S
O27 C26 1.160 1_556 S
O28 Zn29 1.899 . S
O28 C36 1.284 . S
Zn29 O28 1.899 . S
Zn29 O30 2.032 . S
Zn29 O33 2.086 1_556 S
Zn29 O38 1.977 . S
O30 Zn29 2.032 . S
O30 C34 1.278 1_565 S
C31 O32 1.203 . S
C31 O38 1.267 1_545 S
O32 C31 1.203 . S
O33 C26 1.185 . S
O33 Zn29 2.086 1_554 S
C34 O30 1.278 1_545 S
C34 O35 1.211 . S
O35 C34 1.211 . S
C36 O28 1.284 . S
C36 O37 1.273 . S
O37 C36 1.273 . S
O38 Zn29 1.977 . S
O38 C31 1.267 1_565 S
C39 O40 1.160 1_556 S
C39 O46 1.185 . S
O40 C39 1.160 1_554 S
O41 Zn42 1.899 . S
O41 C49 1.284 . S
Zn42 O41 1.899 . S
Zn42 O43 2.032 . S
Zn42 O46 2.086 1_554 S
Zn42 O51 1.977 . S
O43 Zn42 2.032 . S
O43 C47 1.278 1_455 S
C44 O45 1.203 . S
C44 O51 1.267 1_655 S
O45 C44 1.203 . S
O46 C39 1.185 . S
O46 Zn42 2.086 1_556 S
C47 O43 1.278 1_655 S
C47 O48 1.211 . S
O48 C47 1.211 . S
C49 O41 1.284 . S
C49 O50 1.273 . S
O50 C49 1.273 . S
O51 Zn42 1.977 . S
O51 C44 1.267 1_455 S
C52 O53 1.160 1_554 S
C52 O59 1.185 . S
O53 C52 1.160 1_556 S
O54 Zn55 1.899 . S
O54 C62 1.284 . S
Zn55 O54 1.899 . S
Zn55 O56 2.032 . S
Zn55 O59 2.086 1_556 S
Zn55 O64 1.977 . S
O56 Zn55 2.032 . S
O56 C60 1.278 1_545 S
C57 O58 1.203 . S
C57 O64 1.267 1_565 S
O58 C57 1.203 . S
O59 C52 1.185 . S
O59 Zn55 2.086 1_554 S
C60 O56 1.278 1_565 S
C60 O61 1.211 . S
O61 C60 1.211 . S
C62 O54 1.284 . S
C62 O63 1.273 . S
O63 C62 1.273 . S
O64 Zn55 1.977 . S
O64 C57 1.267 1_545 S
C65 O66 1.160 1_556 S
C65 O72 1.185 . S
O66 C65 1.160 1_554 S
O67 Zn68 1.899 . S
O67 C75 1.284 . S
Zn68 O67 1.899 . S
Zn68 O69 2.032 . S
Zn68 O72 2.086 1_554 S
Zn68 O77 1.977 . S
O69 Zn68 2.032 . S
O69 C73 1.278 1_655 S
C70 O71 1.203 . S
C70 O77 1.267 1_455 S
O71 C70 1.203 . S
O72 C65 1.185 . S
O72 Zn68 2.086 1_556 S
C73 O69 1.278 1_455 S
C73 O74 1.211 . S
O74 C73 1.211 . S
C75 O67 1.284 . S
C75 O76 1.273 . S
O76 C75 1.273 . S
O77 Zn68 1.977 . S
O77 C70 1.267 1_655 S
C78 O79 1.160 . S
C78 O85 1.185 . S
O79 C78 1.160 . S
O80 Zn81 1.899 . S
O80 C88 1.284 . S
Zn81 O80 1.899 . S
Zn81 O82 2.032 . S
Zn81 O85 2.086 . S
Zn81 O90 1.977 . S
O82 Zn81 2.032 . S
O82 C86 1.278 . S
C83 O84 1.203 . S
C83 O90 1.267 . S
O84 C83 1.203 . S
O85 C78 1.185 . S
O85 Zn81 2.086 . S
C86 O82 1.278 . S
C86 O87 1.211 . S
O87 C86 1.211 . S
C88 O80 1.284 . S
C88 O89 1.273 . S
O89 C88 1.273 . S
O90 Zn81 1.977 . S
O90 C83 1.267 . S
C91 O92 1.160 . S
C91 O98 1.185 . S
O92 C91 1.160 . S
O93 Zn94 1.899 . S
O93 C101 1.284 . S
Zn94 O93 1.899 . S
Zn94 O95 2.032 . S
Zn94 O98 2.086 . S
Zn94 O103 1.977 . S
O95 Zn94 2.032 . S
O95 C99 1.278 . S
C96 O97 1.203 . S
C96 O103 1.267 . S
O97 C96 1.203 . S
O98 C91 1.185 . S
O98 Zn94 2.086 . S
C99 O95 1.278 . S
C99 O100 1.211 . S
O100 C99 1.211 . S
C101 O93 1.284 . S
C101 O102 1.273 . S
O102 C101 1.273 . S
O103 Zn94 1.977 . S
O103 C96 1.267 . S
C104 C105 1.387 1_554 S
C104 H108 0.950 . S
C104 C113 1.390 . S
C105 C104 1.387 1_556 S
C105 C107 1.387 . S
H106 C113 0.950 . S
C107 C105 1.387 . S
C107 C109 1.390 . S
C107 H111 0.950 . S
H108 C104 0.950 . S
C109 C107 1.390 . S
C109 C110 1.387 1_556 S
C109 H112 0.950 . S
C110 C109 1.387 1_554 S
C110 C113 1.387 . S
H111 C107 0.950 . S
H112 C109 0.950 . S
C113 C104 1.390 . S
C113 H106 0.950 . S
C113 C110 1.387 . S
C114 C115 1.387 . S
C114 H118 0.950 . S
C114 C123 1.390 . S
C115 C114 1.387 . S
C115 C117 1.387 . S
H116 C123 0.950 . S
C117 C115 1.387 . S
C117 C119 1.390 . S
C117 H121 0.950 . S
H118 C114 0.950 . S
C119 C117 1.390 . S
C119 C120 1.387 . S
C119 H122 0.950 . S
C120 C119 1.387 . S
C120 C123 1.387 . S
H121 C117 0.950 . S
H122 C119 0.950 . S
C123 C114 1.390 . S
C123 H116 0.950 . S
C123 C120 1.387 . S
C124 C125 1.387 . S
C124 H128 0.950 . S
C124 C133 1.390 . S
C125 C124 1.387 . S
C125 C127 1.387 . S
H126 C133 0.950 . S
C127 C125 1.387 . S
C127 C129 1.390 . S
C127 H131 0.950 . S
H128 C124 0.950 . S
C129 C127 1.390 . S
C129 C130 1.387 . S
C129 H132 0.950 . S
C130 C129 1.387 . S
C130 C133 1.387 . S
H131 C127 0.950 . S
H132 C129 0.950 . S
C133 C124 1.390 . S
C133 H126 0.950 . S
C133 C130 1.387 . S
C134 C135 1.387 . S
C134 H138 0.950 . S
C134 C143 1.390 . S
C135 C134 1.387 . S
C135 C137 1.387 . S
H136 C143 0.950 . S
C137 C135 1.387 . S
C137 C139 1.390 . S
C137 H141 0.950 . S
H138 C134 0.950 . S
C139 C137 1.390 . S
C139 C140 1.387 . S
C139 H142 0.950 . S
C140 C139 1.387 . S
C140 C143 1.387 . S
H141 C137 0.950 . S
H142 C139 0.950 . S
C143 C134 1.390 . S
C143 H136 0.950 . S
C143 C140 1.387 . S
C144 C145 1.387 . S
C144 H148 0.950 . S
C144 C153 1.390 . S
C145 C144 1.387 . S
C145 C147 1.387 . S
H146 C153 0.950 . S
C147 C145 1.387 . S
C147 C149 1.390 . S
C147 H151 0.950 . S
H148 C144 0.950 . S
C149 C147 1.390 . S
C149 C150 1.387 . S
C149 H152 0.950 . S
C150 C149 1.387 . S
C150 C153 1.387 . S
H151 C147 0.950 . S
H152 C149 0.950 . S
C153 C144 1.390 . S
C153 H146 0.950 . S
C153 C150 1.387 . S
C154 C155 1.387 . S
C154 H158 0.950 . S
C154 C163 1.390 . S
C155 C154 1.387 . S
C155 C157 1.387 . S
H156 C163 0.950 . S
C157 C155 1.387 . S
C157 C159 1.390 . S
C157 H161 0.950 . S
H158 C154 0.950 . S
C159 C157 1.390 . S
C159 C160 1.387 . S
C159 H162 0.950 . S
C160 C159 1.387 . S
C160 C163 1.387 . S
H161 C157 0.950 . S
H162 C159 0.950 . S
C163 C154 1.390 . S
C163 H156 0.950 . S
C163 C160 1.387 . S
C164 C165 1.387 . S
C164 H168 0.950 . S
C164 C173 1.390 . S
C165 C164 1.387 . S
C165 C167 1.387 1_554 S
H166 C173 0.950 . S
C167 C165 1.387 1_556 S
C167 C169 1.390 . S
C167 H171 0.950 . S
H168 C164 0.950 . S
C169 C167 1.390 . S
C169 C170 1.387 . S
C169 H172 0.950 . S
C170 C169 1.387 . S
C170 C173 1.387 1_556 S
H171 C167 0.950 . S
H172 C169 0.950 . S
C173 C164 1.390 . S
C173 H166 0.950 . S
C173 C170 1.387 1_554 S
C174 C175 1.387 . S
C174 H178 0.950 . S
C174 C183 1.390 . S
C175 C174 1.387 . S
C175 C177 1.387 . S
H176 C183 0.950 . S
C177 C175 1.387 . S
C177 C179 1.390 . S
C177 H181 0.950 . S
H178 C174 0.950 . S
C179 C177 1.390 . S
C179 C180 1.387 . S
C179 H182 0.950 . S
C180 C179 1.387 . S
C180 C183 1.387 . S
H181 C177 0.950 . S
H182 C179 0.950 . S
C183 C174 1.390 . S
C183 H176 0.950 . S
C183 C180 1.387 . S
C184 C185 1.387 . S
C184 H188 0.950 . S
C184 C193 1.390 . S
C185 C184 1.387 . S
C185 C187 1.387 . S
H186 C193 0.950 . S
C187 C185 1.387 . S
C187 C189 1.390 . S
C187 H191 0.950 . S
H188 C184 0.950 . S
C189 C187 1.390 . S
C189 C190 1.387 . S
C189 H192 0.950 . S
C190 C189 1.387 . S
C190 C193 1.387 . S
H191 C187 0.950 . S
H192 C189 0.950 . S
C193 C184 1.390 . S
C193 H186 0.950 . S
C193 C190 1.387 . S
C194 C195 1.387 . S
C194 H198 0.950 . S
C194 C203 1.390 . S
C195 C194 1.387 . S
C195 C197 1.387 . S
H196 C203 0.950 . S
C197 C195 1.387 . S
C197 C199 1.390 . S
C197 H201 0.950 . S
H198 C194 0.950 . S
C199 C197 1.390 . S
C199 C200 1.387 . S
C199 H202 0.950 . S
C200 C199 1.387 . S
C200 C203 1.387 . S
H201 C197 0.950 . S
H202 C199 0.950 . S
C203 C194 1.390 . S
C203 H196 0.950 . S
C203 C200 1.387 . S
C204 C205 1.387 . S
C204 H208 0.950 . S
C204 C213 1.390 . S
C205 C204 1.387 . S
C205 C207 1.387 1_554 S
H206 C213 0.950 . S
C207 C205 1.387 1_556 S
C207 C209 1.390 . S
C207 H211 0.950 . S
H208 C204 0.950 . S
C209 C207 1.390 . S
C209 C210 1.387 . S
C209 H212 0.950 . S
C210 C209 1.387 . S
C210 C213 1.387 1_556 S
H211 C207 0.950 . S
H212 C209 0.950 . S
C213 C204 1.390 . S
C213 H206 0.950 . S
C213 C210 1.387 1_554 S
C214 C215 1.387 . S
C214 H218 0.950 . S
C214 C223 1.390 . S
C215 C214 1.387 . S
C215 C217 1.387 . S
H216 C223 0.950 . S
C217 C215 1.387 . S
C217 C219 1.390 . S
C217 H221 0.950 . S
H218 C214 0.950 . S
C219 C217 1.390 . S
C219 C220 1.387 . S
C219 H222 0.950 . S
C220 C219 1.387 . S
C220 C223 1.387 . S
H221 C217 0.950 . S
H222 C219 0.950 . S
C223 C214 1.390 . S
C223 H216 0.950 . S
C223 C220 1.387 . S
C224 C225 1.387 . S
C224 H228 0.950 . S
C224 C233 1.390 . S
C225 C224 1.387 . S
C225 C227 1.387 . S
H226 C233 0.950 . S
C227 C225 1.387 . S
C227 C229 1.390 . S
C227 H231 0.950 . S
H228 C224 0.950 . S
C229 C227 1.390 . S
C229 C230 1.387 . S
C229 H232 0.950 . S
C230 C229 1.387 . S
C230 C233 1.387 . S
H231 C227 0.950 . S
H232 C229 0.950 . S
C233 C224 1.390 . S
C233 H226 0.950 . S
C233 C230 1.387 . S
C234 C235 1.387 1_554 S
C234 H238 0.950 . S
C234 C243 1.390 . S
C235 C234 1.387 1_556 S
C235 C237 1.387 . S
H236 C243 0.950 . S
C237 C235 1.387 . S
C237 C239 1.390 . S
C237 H241 0.950 . S
H238 C234 0.950 . S
C239 C237 1.390 . S
C239 C240 1.387 1_556 S
C239 H242 0.950 . S
C240 C239 1.387 1_554 S
C240 C243 1.387 . S
H241 C237 0.950 . S
H242 C239 0.950 . S
C243 C234 1.390 . S
C243 H236 0.950 . S
C243 C240 1.387 . S
C244 C245 1.387 . S
C244 H248 0.950 . S
C244 C253 1.390 . S
C245 C244 1.387 . S
C245 C247 1.387 . S
H246 C253 0.950 . S
C247 C245 1.387 . S
C247 C249 1.390 . S
C247 H251 0.950 . S
H248 C244 0.950 . S
C249 C247 1.390 . S
C249 C250 1.387 . S
C249 H252 0.950 . S
C250 C249 1.387 . S
C250 C253 1.387 . S
H251 C247 0.950 . S
H252 C249 0.950 . S
C253 C244 1.390 . S
C253 H246 0.950 . S
C253 C250 1.387 . S
C254 C255 1.387 . S
C254 H258 0.950 . S
C254 C263 1.390 . S
C255 C254 1.387 . S
C255 C257 1.387 . S
H256 C263 0.950 . S
C257 C255 1.387 . S
C257 C259 1.390 . S
C257 H261 0.950 . S
H258 C254 0.950 . S
C259 C257 1.390 . S
C259 C260 1.387 . S
C259 H262 0.950 . S
C260 C259 1.387 . S
C260 C263 1.387 . S
H261 C257 0.950 . S
H262 C259 0.950 . S
C263 C254 1.390 . S
C263 H256 0.950 . S
C263 C260 1.387 . S
C105 C23 1.411 . S
C110 C10 1.412 . S
C115 C13 1.430 . S
C120 C26 1.429 . S
C125 C49 1.412 . S
C130 C36 1.412 . S
C135 C39 1.429 . S
C140 C0 1.429 . S
C145 C62 1.410 . S
C150 C75 1.411 . S
C155 C65 1.429 . S
C160 C78 1.429 . S
C165 C88 1.412 . S
C170 C101 1.412 . S
C175 C52 1.430 . S
C180 C91 1.430 . S
C185 C5 1.443 . S
C190 C96 1.443 . S
C195 C60 1.449 . S
C200 C21 1.452 . S
C205 C70 1.444 . S
C210 C31 1.444 . S
C215 C47 1.449 . S
C220 C86 1.452 . S
C225 C34 1.451 . S
C230 C99 1.449 . S
C235 C57 1.443 . S
C240 C44 1.443 . S
C245 C73 1.452 . S
C250 C8 1.449 . S
C255 C18 1.443 . S
C260 C83 1.443 . S
