# Generated by pormake.
# Topology pcu, (6)-cn, num edge types: 1
# Building blocks:
#     Node 0, Type 0, BuildingBlock: BETFEN_clean_sbu_0, # of connection points: 6
#     Edge 1, Type (0, 0), BuildingBlock: CIFDUS_clean_linker_0, # of connection points: 2
#     Edge 2, Type (0, 0), BuildingBlock: CIFDUS_clean_linker_0, # of connection points: 2
#     Edge 3, Type (0, 0), BuildingBlock: CIFDUS_clean_linker_0, # of connection points: 2
# Relax obj value: 0.000
# Max RMSD: 0.000
# Mean RMSD: 0.000
data_MOF--net-pcu--node1-BETFEN_clean_sbu_0--edge1-CIFDUS_clean_linker_0
_symmetry_space_group_name_H-M    P1
_symmetry_Int_Tables_number       1
_symmetry_cell_setting            triclinic
loop_
_symmetry_equiv_pos_as_xyz
'x, y, z'
_cell_length_a     23.809993
_cell_length_b     13.755426
_cell_length_c     12.824182
_cell_angle_alpha  86.752878
_cell_angle_beta   95.922855
_cell_angle_gamma 123.88289
loop_
_atom_site_label
_atom_site_type_symbol
_atom_site_fract_x
_atom_site_fract_y
_atom_site_fract_z
_atom_type_partial_charge
Pr0 Pr 0.95161 0.91481 0.01197 0.0
Pr1 Pr 0.10574 0.04792 1.00506 0.0
C2 C 0.82371 0.83164 0.05524 0.0
C3 C 0.77089 0.85803 0.03948 0.0
C4 C 0.72338 0.81496 0.95118 0.0
C5 C 0.67085 0.83321 0.93981 0.0
C6 C 0.66424 0.89432 0.01676 0.0
C7 C 0.71222 0.9385 0.10451 0.0
C8 C 0.76476 0.92024 0.1159 0.0
C9 C 0.99434 0.95584 0.8101 0.0
C10 C 0.04435 0.20733 1.00371 0.0
C11 C 0.23379 0.13133 0.96246 0.0
C12 C 0.28657 0.10484 0.97815 0.0
C13 C 0.33412 0.14795 0.06641 0.0
C14 C 0.38663 0.12967 0.07774 0.0
C15 C 0.39319 0.06847 1.00081 0.0
C16 C 0.34517 0.02423 0.91311 0.0
C17 C 0.29264 0.04252 0.90176 0.0
C18 C 0.06262 0.00686 0.2068 0.0
C19 C 1.013 0.75541 0.013 0.0
O20 O 0.87724 0.89882 0.11958 0.0
O21 O 0.83788 0.79889 0.97343 0.0
O22 O 1.02251 0.02872 0.88425 0.0
O23 O 0.93976 0.85942 0.83699 0.0
O24 O 0.09409 0.20399 0.97153 0.0
O25 O 0.989 0.11152 0.03495 0.0
O26 O 0.18041 0.06463 0.89768 0.0
O27 O 0.21941 0.16349 0.04441 0.0
O28 O 0.0349 0.93393 0.13272 0.0
O29 O 0.11708 0.1035 0.17993 0.0
O30 O 0.96327 0.75871 0.04522 0.0
O31 O 0.06837 0.85126 0.98183 0.0
H32 H 0.72617 0.76578 0.89121 0.0
H33 H 0.63531 0.7992 0.87063 0.0
H34 H 0.70813 -0.01549 0.166 0.0
H35 H 0.79987 0.95318 0.18564 0.0
H36 H 0.33138 0.19721 0.12635 0.0
H37 H 0.42221 0.16372 0.14689 0.0
H38 H 0.34922 0.97816 0.85163 0.0
H39 H 0.25749 0.00953 0.83206 0.0
H40 H 0.1239 0.14623 0.37871 0.0
H41 H 0.95167 0.8069 0.27501 0.0
H42 H 0.91542 0.76058 0.45281 0.0
H43 H 0.93292 0.8164 0.63814 0.0
H44 H 0.10524 0.1557 0.74178 0.0
H45 H 0.14142 0.202 0.56399 0.0
C46 C 0.07844 0.06222 0.39517 0.0
C47 C 0.04057 0.98002 0.3141 0.0
C48 C 0.05802 0.03611 0.4976 0.0
C49 C 0.98173 0.87153 0.33629 0.0
C50 C 0.96099 0.84498 0.4379 0.0
C51 C 0.97838 0.9004 0.62167 0.0
C52 C 1.01628 -0.01741 0.70274 0.0
C53 C 0.99879 0.9265 0.51922 0.0
C54 C 0.07513 0.09106 0.68052 0.0
C55 C 0.09584 0.11762 0.57891 0.0
H56 H 0.39078 0.87447 0.95573 0.0
H57 H 0.52591 0.23014 0.06736 0.0
H58 H 0.62112 0.20769 0.0827 0.0
H59 H 0.66666 0.08832 0.06179 0.0
H60 H 0.53153 0.73266 0.95013 0.0
H61 H 0.43632 0.75512 0.93478 0.0
C62 C 0.44114 0.94742 0.98263 0.0
C63 C 0.45093 0.05371 0.01061 0.0
C64 C 0.49592 0.93431 0.9905 0.0
C65 C 0.51652 0.14671 0.04678 0.0
C66 C 0.57119 0.13427 0.0549 0.0
C67 C 0.61629 0.01538 0.03488 0.0
C68 C 0.6065 0.90909 1.0069 0.0
C69 C 0.56151 0.02849 0.02699 0.0
C70 C 0.54092 0.8161 0.97071 0.0
C71 C 0.48624 0.82854 0.96259 0.0
H72 H 0.1071 0.71742 0.96046 0.0
H73 H 0.90786 0.54086 0.07311 0.0
H74 H 0.90038 0.35643 0.08087 0.0
H75 H 0.95024 0.24532 0.05614 0.0
H76 H 0.14948 0.42186 0.94349 0.0
H77 H 0.15696 0.60629 0.93569 0.0
C78 C 0.06194 0.63868 0.9866 0.0
C79 C 1.00814 0.64324 0.0161 0.0
C80 C 0.05795 0.53285 0.99115 0.0
C81 C 0.95008 0.54013 0.04986 0.0
C82 C 0.94572 0.43448 0.05444 0.0
C83 C 0.9954 0.32405 0.02999 0.0
C84 C 0.04921 0.3195 1.00051 0.0
C85 C 0.99938 0.42988 0.02542 0.0
C86 C 0.10726 0.42259 0.96672 0.0
C87 C 0.11161 0.52825 0.96212 0.0
loop_
_geom_bond_atom_site_label_1
_geom_bond_atom_site_label_2
_geom_bond_distance
_geom_bond_site_symmetry_2
_ccdc_geom_bond_type
Pr0 C2 2.880 . S
Pr0 O20 2.562 1_556 S
Pr0 O21 2.490 . S
Pr0 O22 2.695 1_655 S
Pr0 O23 2.512 . S
Pr0 O25 2.437 1_565 S
Pr0 O28 2.436 1_566 S
Pr0 O30 2.438 . S
Pr1 C11 2.880 . S
Pr1 O22 2.436 1_544 S
Pr1 O24 2.438 . S
Pr1 O26 2.562 1_554 S
Pr1 O27 2.490 . S
Pr1 O28 2.695 1_455 S
Pr1 O29 2.512 . S
Pr1 O31 2.437 1_545 S
C2 Pr0 2.880 . S
C2 C3 1.491 . S
C2 O20 1.254 1_556 S
C2 O21 1.225 . S
C3 C2 1.491 . S
C3 C4 1.392 . S
C3 C8 1.356 1_566 S
C4 C3 1.392 . S
C4 C5 1.368 . S
C4 H32 0.929 . S
C5 C4 1.368 . S
C5 C6 1.386 . S
C5 H33 0.929 . S
C6 C5 1.386 . S
C6 C7 1.373 1_566 S
C7 C6 1.373 1_544 S
C7 C8 1.409 . S
C7 H34 0.931 . S
C8 C3 1.356 1_544 S
C8 C7 1.409 . S
C8 H35 0.930 . S
C9 O22 1.270 1_655 S
C9 O23 1.248 . S
C10 O24 1.267 1_556 S
C10 O25 1.278 1_455 S
C11 Pr1 2.880 . S
C11 C12 1.491 . S
C11 O26 1.254 1_554 S
C11 O27 1.225 . S
C12 C11 1.491 . S
C12 C13 1.392 . S
C12 C17 1.356 1_544 S
C13 C12 1.392 . S
C13 C14 1.368 . S
C13 H36 0.929 . S
C14 C13 1.368 . S
C14 C15 1.386 . S
C14 H37 0.929 . S
C15 C14 1.386 . S
C15 C16 1.373 1_544 S
C16 C15 1.373 1_566 S
C16 C17 1.409 . S
C16 H38 0.931 . S
C17 C12 1.356 1_566 S
C17 C16 1.409 . S
C17 H39 0.930 . S
C18 O28 1.270 1_455 S
C18 O29 1.248 . S
C19 O30 1.267 1_554 S
C19 O31 1.278 1_655 S
O20 Pr0 2.562 1_554 S
O20 C2 1.254 1_554 S
O21 Pr0 2.490 . S
O21 C2 1.225 . S
O22 Pr0 2.695 1_455 S
O22 Pr1 2.436 1_566 S
O22 C9 1.270 1_455 S
O23 Pr0 2.512 . S
O23 C9 1.248 . S
O24 Pr1 2.438 . S
O24 C10 1.267 1_554 S
O25 Pr0 2.437 1_545 S
O25 C10 1.278 1_655 S
O26 Pr1 2.562 1_556 S
O26 C11 1.254 1_556 S
O27 Pr1 2.490 . S
O27 C11 1.225 . S
O28 Pr0 2.436 1_544 S
O28 Pr1 2.695 1_655 S
O28 C18 1.270 1_655 S
O29 Pr1 2.512 . S
O29 C18 1.248 . S
O30 Pr0 2.438 . S
O30 C19 1.267 1_556 S
O31 Pr1 2.437 1_565 S
O31 C19 1.278 1_455 S
H32 C4 0.929 . S
H33 C5 0.929 . S
H34 C7 0.931 . S
H35 C8 0.930 . S
H36 C13 0.929 . S
H37 C14 0.929 . S
H38 C16 0.931 . S
H39 C17 0.930 . S
H40 C46 0.930 . S
H41 C49 0.930 . S
H42 C50 0.930 . S
H43 C51 0.930 . S
H44 C54 0.930 . S
H45 C55 0.930 . S
C46 H40 0.930 . S
C46 C47 1.355 1_545 S
C46 C48 1.415 . S
C47 C46 1.355 1_565 S
C47 C49 1.419 1_455 S
C48 C46 1.415 . S
C48 C53 1.425 1_445 S
C48 C55 1.409 . S
C49 H41 0.930 . S
C49 C47 1.419 1_655 S
C49 C50 1.362 . S
C50 H42 0.930 . S
C50 C49 1.362 . S
C50 C53 1.409 . S
C51 H43 0.930 . S
C51 C52 1.355 1_565 S
C51 C53 1.415 . S
C52 C51 1.355 1_545 S
C52 C54 1.419 1_655 S
C53 C48 1.425 1_665 S
C53 C50 1.409 . S
C53 C51 1.415 . S
C54 H44 0.930 . S
C54 C52 1.419 1_455 S
C54 C55 1.362 . S
C55 H45 0.930 . S
C55 C48 1.409 . S
C55 C54 1.362 . S
H56 C62 0.930 . S
H57 C65 0.930 . S
H58 C66 0.930 . S
H59 C67 0.930 . S
H60 C70 0.930 . S
H61 C71 0.930 . S
C62 H56 0.930 . S
C62 C63 1.354 1_566 S
C62 C64 1.415 . S
C63 C62 1.354 1_544 S
C63 C65 1.419 . S
C64 C62 1.415 . S
C64 C69 1.425 1_566 S
C64 C71 1.409 . S
C65 H57 0.930 . S
C65 C63 1.419 . S
C65 C66 1.362 . S
C66 H58 0.930 . S
C66 C65 1.362 . S
C66 C69 1.409 . S
C67 H59 0.930 . S
C67 C68 1.354 1_544 S
C67 C69 1.416 . S
C68 C67 1.354 1_566 S
C68 C70 1.419 . S
C69 C64 1.425 1_544 S
C69 C66 1.409 . S
C69 C67 1.416 . S
C70 H60 0.930 . S
C70 C68 1.419 . S
C70 C71 1.362 . S
C71 H61 0.930 . S
C71 C64 1.409 . S
C71 C70 1.362 . S
H72 C78 0.930 . S
H73 C81 0.930 . S
H74 C82 0.930 . S
H75 C83 0.930 . S
H76 C86 0.930 . S
H77 C87 0.930 . S
C78 H72 0.930 . S
C78 C79 1.355 1_656 S
C78 C80 1.415 . S
C79 C78 1.355 1_454 S
C79 C81 1.419 . S
C80 C78 1.415 . S
C80 C85 1.425 1_656 S
C80 C87 1.409 . S
C81 H73 0.930 . S
C81 C79 1.419 . S
C81 C82 1.362 . S
C82 H74 0.930 . S
C82 C81 1.362 . S
C82 C85 1.409 . S
C83 H75 0.930 . S
C83 C84 1.355 1_454 S
C83 C85 1.415 . S
C84 C83 1.355 1_656 S
C84 C86 1.419 . S
C85 C80 1.425 1_454 S
C85 C82 1.409 . S
C85 C83 1.415 . S
C86 H76 0.930 . S
C86 C84 1.419 . S
C86 C87 1.362 . S
C87 H77 0.930 . S
C87 C80 1.409 . S
C87 C86 1.362 . S
C47 C18 1.436 1_565 S
C52 C9 1.436 1_545 S
C63 C15 1.489 . S
C68 C6 1.489 . S
C79 C19 1.472 1_455 S
C84 C10 1.472 1_655 S
