# Generated by pormake.
# Topology can, (4)-cn, num edge types: 1
# Building blocks:
#     Node 0, Type 0, BuildingBlock: AZAVOO_clean_sbu_0, # of connection points: 4
#     Node 1, Type 0, BuildingBlock: AZAVOO_clean_sbu_0, # of connection points: 4
#     Node 2, Type 0, BuildingBlock: AZAVOO_clean_sbu_0, # of connection points: 4
#     Node 3, Type 0, BuildingBlock: AZAVOO_clean_sbu_0, # of connection points: 4
#     Node 4, Type 0, BuildingBlock: AZAVOO_clean_sbu_0, # of connection points: 4
#     Node 5, Type 0, BuildingBlock: AZAVOO_clean_sbu_0, # of connection points: 4
#     Node 6, Type 0, BuildingBlock: AZAVOO_clean_sbu_0, # of connection points: 4
#     Node 7, Type 0, BuildingBlock: AZAVOO_clean_sbu_0, # of connection points: 4
#     Node 8, Type 0, BuildingBlock: AZAVOO_clean_sbu_0, # of connection points: 4
#     Node 9, Type 0, BuildingBlock: AZAVOO_clean_sbu_0, # of connection points: 4
#     Node 10, Type 0, BuildingBlock: AZAVOO_clean_sbu_0, # of connection points: 4
#     Node 11, Type 0, BuildingBlock: AZAVOO_clean_sbu_0, # of connection points: 4
#     Edge 12, Type (0, 0), None
#     Edge 13, Type (0, 0), None
#     Edge 14, Type (0, 0), None
#     Edge 15, Type (0, 0), None
#     Edge 16, Type (0, 0), None
#     Edge 17, Type (0, 0), None
#     Edge 18, Type (0, 0), None
#     Edge 19, Type (0, 0), None
#     Edge 20, Type (0, 0), None
#     Edge 21, Type (0, 0), None
#     Edge 22, Type (0, 0), None
#     Edge 23, Type (0, 0), None
#     Edge 24, Type (0, 0), None
#     Edge 25, Type (0, 0), None
#     Edge 26, Type (0, 0), None
#     Edge 27, Type (0, 0), None
#     Edge 28, Type (0, 0), None
#     Edge 29, Type (0, 0), None
#     Edge 30, Type (0, 0), None
#     Edge 31, Type (0, 0), None
#     Edge 32, Type (0, 0), None
#     Edge 33, Type (0, 0), None
#     Edge 34, Type (0, 0), None
#     Edge 35, Type (0, 0), None
# Relax obj value: 0.084
# Max RMSD: 0.103
# Mean RMSD: 0.103
data_MOF--net-can--node1-AZAVOO_clean_sbu_0--edge1-none
_symmetry_space_group_name_H-M    P1
_symmetry_Int_Tables_number       1
_symmetry_cell_setting            triclinic
loop_
_symmetry_equiv_pos_as_xyz
'x, y, z'
_cell_length_a     27.138738
_cell_length_b     27.136109
_cell_length_c     12.572216
_cell_angle_alpha  90.001437
_cell_angle_beta   89.997419
_cell_angle_gamma 119.99409
loop_
_atom_site_label
_atom_site_type_symbol
_atom_site_fract_x
_atom_site_fract_y
_atom_site_fract_z
_atom_type_partial_charge
Mg0 Mg 0.04239 0.36362 0.26605 0.0
O1 O 0.05215 0.44874 0.2103 0.0
O2 O 0.10438 0.51284 0.33419 0.0
Mg3 Mg 0.12594 0.46817 0.46669 0.0
C4 C 0.07755 0.49947 0.24586 0.0
C5 C -0.01998 0.33701 0.05435 0.0
O6 O 0.95769 0.36358 0.10471 0.0
O7 O 0.13331 0.39548 0.21794 0.0
O8 O 0.18446 0.45275 0.35116 0.0
O9 O 0.96237 0.34126 0.35417 0.0
O10 O 0.04794 0.38701 0.42643 0.0
C11 C 0.1807 0.42766 0.26288 0.0
C12 C -0.00629 0.36628 0.43634 0.0
O13 O 0.01591 0.3279 0.10114 0.0
Mg14 Mg 0.65891 0.05225 0.76605 0.0
O15 O 0.58358 0.06206 0.7103 0.0
O16 O 0.57175 0.11435 0.83415 0.0
Mg17 Mg 0.63799 0.1359 0.96663 0.0
C18 C 0.55828 0.0875 0.74583 0.0
C19 C 0.62309 -0.01014 0.5544 0.0
O20 O 0.57421 0.96761 0.60475 0.0
O21 O 0.71801 0.14315 0.71787 0.0
O22 O 0.71191 0.19436 0.85104 0.0
O23 O 0.60122 0.97225 0.8542 0.0
O24 O 0.64108 0.05784 0.92643 0.0
C25 C 0.73324 0.19057 0.76277 0.0
C26 C 0.60755 0.00362 0.93635 0.0
O27 O 0.66812 0.02571 0.60118 0.0
Mg28 Mg 0.58679 0.66887 0.26624 0.0
O29 O 0.50167 0.59353 0.21049 0.0
O30 O 0.43757 0.58169 0.33435 0.0
Mg31 Mg 0.48223 0.64795 0.46681 0.0
C32 C 0.45094 0.56822 0.24604 0.0
C33 C 0.61339 0.63306 0.05459 0.0
O34 O 0.58679 0.58417 0.10494 0.0
O35 O 0.55497 0.72795 0.21805 0.0
O36 O 0.49766 0.72186 0.3512 0.0
O37 O 0.60911 0.61119 0.3544 0.0
O38 O 0.56337 0.65105 0.42663 0.0
C39 C 0.52277 0.74318 0.26293 0.0
C40 C 0.58408 0.61752 0.43655 0.0
O41 O 0.62254 0.67808 0.10136 0.0
Mg42 Mg 0.89802 0.59668 0.76606 0.0
O43 O 0.88826 0.51156 0.71032 0.0
O44 O 0.83602 0.44745 0.83421 0.0
Mg45 Mg 0.81446 0.49214 0.9667 0.0
C46 C 0.86285 0.46083 0.74587 0.0
C47 C 0.96038 0.62329 0.55436 0.0
O48 O -0.01729 0.59672 0.60471 0.0
O49 O 0.8071 0.56483 0.71795 0.0
O50 O 0.75594 0.50755 0.85117 0.0
O51 O -0.02197 0.61904 0.85418 0.0
O52 O 0.89246 0.57329 0.92645 0.0
C53 C 0.7597 0.53264 0.76289 0.0
C54 C 0.94669 0.59401 0.93635 0.0
O55 O 0.9245 0.63241 0.60116 0.0
Mg56 Mg 0.28149 0.90805 0.26606 0.0
O57 O 0.35682 0.89823 0.2103 0.0
O58 O 0.36864 0.84594 0.33415 0.0
Mg59 Mg 0.3024 0.82439 0.46663 0.0
C60 C 0.38212 0.87279 0.24583 0.0
C61 C 0.31731 0.97043 0.0544 0.0
O62 O 0.3662 -0.00731 0.10475 0.0
O63 O 0.2224 0.81714 0.21788 0.0
O64 O 0.22849 0.76593 0.35104 0.0
O65 O 0.33918 -0.01196 0.35421 0.0
O66 O 0.29932 0.90245 0.42643 0.0
C67 C 0.20716 0.76972 0.26277 0.0
C68 C 0.33285 0.95667 0.43635 0.0
O69 O 0.27229 0.93459 0.10119 0.0
Mg70 Mg 0.35362 0.29143 0.76623 0.0
O71 O 0.43874 0.36677 0.71048 0.0
O72 O 0.50284 0.3786 0.83434 0.0
Mg73 Mg 0.45817 0.31235 0.9668 0.0
C74 C 0.48947 0.39208 0.74603 0.0
C75 C 0.32702 0.32724 0.55458 0.0
O76 O 0.35362 0.37613 0.60494 0.0
O77 O 0.38545 0.23234 0.71803 0.0
O78 O 0.44275 0.23844 0.85119 0.0
O79 O 0.3313 0.34911 0.8544 0.0
O80 O 0.37703 0.30925 0.92662 0.0
C81 C 0.41764 0.21712 0.76291 0.0
C82 C 0.35633 0.34277 0.93655 0.0
O83 O 0.31788 0.28222 0.60135 0.0
Mg84 Mg 0.57069 0.92823 0.2202 0.0
O85 O 0.48021 0.90941 0.23653 0.0
O86 O 0.42781 0.85274 0.10449 0.0
Mg87 Mg 0.49166 0.84427 -0.00612 0.0
C88 C 0.43273 0.87982 0.19043 0.0
C89 C 0.62455 0.97701 0.4425 0.0
O90 O 0.673 -0.00604 0.39292 0.0
O91 O 0.54245 0.83762 0.26909 0.0
O92 O 0.50449 0.78844 0.11955 0.0
O93 O 0.59736 0.00795 0.12607 0.0
O94 O 0.56735 0.92333 0.05419 0.0
C95 C 0.52048 0.79146 0.21628 0.0
C96 C 0.5865 0.97708 0.04134 0.0
O97 O 0.57813 0.95139 0.3922 0.0
Mg98 Mg 0.62262 0.58064 0.72037 0.0
O99 O 0.55096 0.49017 0.73672 0.0
O100 O 0.55517 0.43776 0.60463 0.0
Mg101 Mg 0.62747 0.50158 0.49399 0.0
C102 C 0.53304 0.44269 0.69061 0.0
C103 C 0.62769 0.63452 0.94268 0.0
O104 O 0.65912 0.68299 0.89307 0.0
O105 O 0.68497 0.55235 0.76918 0.0
O106 O 0.69614 0.51438 0.61959 0.0
O107 O 0.56959 0.60736 0.62628 0.0
O108 O 0.62416 0.5773 0.55436 0.0
C109 C 0.70912 0.53036 0.71631 0.0
C110 C 0.58958 0.59648 0.54154 0.0
O111 O 0.60695 0.5881 0.89241 0.0
Mg112 Mg 0.02211 0.63262 0.22017 0.0
O113 O 0.04095 0.56097 0.23655 0.0
O114 O 0.09757 0.56518 0.10446 0.0
Mg115 Mg 0.10603 0.63748 -0.00618 0.0
C116 C 0.07052 0.54305 0.19044 0.0
C117 C -0.02679 0.6376 0.44246 0.0
O118 O 0.95608 0.66895 0.39283 0.0
O119 O 0.11272 0.695 0.26899 0.0
O120 O 0.16188 0.70616 0.11944 0.0
O121 O 0.94239 0.57955 0.12608 0.0
O122 O 0.02699 0.63415 0.05415 0.0
C123 C 0.15887 0.71915 0.21615 0.0
C124 C -0.02676 0.59954 0.04134 0.0
O125 O -0.00102 0.61694 0.3922 0.0
Mg126 Mg 0.36972 0.03206 0.7202 0.0
O127 O 0.46019 0.05088 0.73653 0.0
O128 O 0.51259 0.10755 0.60448 0.0
Mg129 Mg 0.44875 0.11602 0.49388 0.0
C130 C 0.50768 0.08047 0.69043 0.0
C131 C 0.31586 -0.01672 0.94251 0.0
O132 O 0.2674 0.96632 0.89293 0.0
O133 O 0.39796 0.12268 0.76909 0.0
O134 O 0.43592 0.17185 0.61954 0.0
O135 O 0.34304 0.95234 0.62607 0.0
O136 O 0.37306 0.03696 0.55419 0.0
C137 C 0.41993 0.16883 0.71627 0.0
C138 C 0.3539 -0.01678 0.54134 0.0
O139 O 0.36227 0.0089 0.89221 0.0
Mg140 Mg 0.31778 0.37966 0.22037 0.0
O141 O 0.38945 0.47013 0.23673 0.0
O142 O 0.38525 0.52255 0.10464 0.0
Mg143 Mg 0.31295 0.45873 -0.00601 0.0
C144 C 0.40737 0.51762 0.19062 0.0
C145 C 0.31272 0.32577 0.44268 0.0
O146 O 0.28131 0.27731 0.39306 0.0
O147 O 0.25543 0.40795 0.26917 0.0
O148 O 0.24428 0.44592 0.11958 0.0
O149 O 0.37081 0.35294 0.12628 0.0
O150 O 0.31625 0.383 0.05436 0.0
C151 C 0.23129 0.42994 0.21631 0.0
C152 C 0.35083 0.36382 0.04153 0.0
O153 O 0.33345 0.3722 0.39241 0.0
Mg154 Mg 0.91829 0.32767 0.72017 0.0
O155 O 0.89945 0.39933 0.73655 0.0
O156 O 0.84284 0.39512 0.60447 0.0
Mg157 Mg 0.83437 0.32282 0.49383 0.0
C158 C 0.86988 0.41725 0.69045 0.0
C159 C 0.9672 0.3227 0.94245 0.0
O160 O -0.01567 0.29136 0.89281 0.0
O161 O 0.82767 0.26529 0.76899 0.0
O162 O 0.77853 0.25414 0.61944 0.0
O163 O -0.00199 0.38074 0.62608 0.0
O164 O 0.91341 0.32615 0.55415 0.0
C165 C 0.78153 0.24114 0.71616 0.0
C166 C 0.96715 0.36075 0.54133 0.0
O167 O 0.94142 0.34336 0.8922 0.0
loop_
_geom_bond_atom_site_label_1
_geom_bond_atom_site_label_2
_geom_bond_distance
_geom_bond_site_symmetry_2
_ccdc_geom_bond_type
Mg0 O1 2.028 . S
Mg0 O7 1.986 . S
Mg0 O9 2.114 1_455 S
Mg0 O10 2.251 . S
Mg0 O13 2.010 . S
O1 Mg0 2.028 . S
O1 C4 1.250 . S
O2 Mg3 2.028 . S
O2 C4 1.248 . S
Mg3 O2 2.028 . S
Mg3 O8 2.032 . S
Mg3 O10 2.079 . S
C4 O1 1.250 . S
C4 O2 1.248 . S
C5 O6 1.264 . S
C5 O13 1.249 1_655 S
O6 C5 1.264 . S
O7 Mg0 1.986 . S
O7 C11 1.246 . S
O8 Mg3 2.032 . S
O8 C11 1.259 . S
O9 Mg0 2.114 1_655 S
O9 C12 1.252 1_655 S
O10 Mg0 2.251 . S
O10 Mg3 2.079 . S
O10 C12 1.273 . S
C11 O7 1.246 . S
C11 O8 1.259 . S
C12 O9 1.252 1_455 S
C12 O10 1.273 . S
O13 Mg0 2.010 . S
O13 C5 1.249 1_455 S
Mg14 O15 2.028 . S
Mg14 O21 1.986 . S
Mg14 O23 2.114 1_545 S
Mg14 O24 2.251 . S
Mg14 O27 2.010 . S
O15 Mg14 2.028 . S
O15 C18 1.250 . S
O16 Mg17 2.028 . S
O16 C18 1.248 . S
Mg17 O16 2.028 . S
Mg17 O22 2.032 . S
Mg17 O24 2.079 . S
C18 O15 1.250 . S
C18 O16 1.248 . S
C19 O20 1.264 . S
C19 O27 1.249 1_565 S
O20 C19 1.264 . S
O21 Mg14 1.986 . S
O21 C25 1.246 . S
O22 Mg17 2.032 . S
O22 C25 1.259 . S
O23 Mg14 2.114 1_565 S
O23 C26 1.252 1_565 S
O24 Mg14 2.251 . S
O24 Mg17 2.079 . S
O24 C26 1.273 . S
C25 O21 1.246 . S
C25 O22 1.259 . S
C26 O23 1.252 1_545 S
C26 O24 1.273 . S
O27 Mg14 2.010 . S
O27 C19 1.249 1_545 S
Mg28 O29 2.028 . S
Mg28 O35 1.986 . S
Mg28 O37 2.114 . S
Mg28 O38 2.251 . S
Mg28 O41 2.010 . S
O29 Mg28 2.028 . S
O29 C32 1.250 . S
O30 Mg31 2.028 . S
O30 C32 1.248 . S
Mg31 O30 2.028 . S
Mg31 O36 2.032 . S
Mg31 O38 2.079 . S
C32 O29 1.250 . S
C32 O30 1.248 . S
C33 O34 1.264 . S
C33 O41 1.249 . S
O34 C33 1.264 . S
O35 Mg28 1.986 . S
O35 C39 1.246 . S
O36 Mg31 2.032 . S
O36 C39 1.259 . S
O37 Mg28 2.114 . S
O37 C40 1.252 . S
O38 Mg28 2.251 . S
O38 Mg31 2.079 . S
O38 C40 1.273 . S
C39 O35 1.246 . S
C39 O36 1.259 . S
C40 O37 1.252 . S
C40 O38 1.273 . S
O41 Mg28 2.010 . S
O41 C33 1.249 . S
Mg42 O43 2.028 . S
Mg42 O49 1.986 . S
Mg42 O51 2.114 1_655 S
Mg42 O52 2.251 . S
Mg42 O55 2.010 . S
O43 Mg42 2.028 . S
O43 C46 1.250 . S
O44 Mg45 2.028 . S
O44 C46 1.248 . S
Mg45 O44 2.028 . S
Mg45 O50 2.032 . S
Mg45 O52 2.079 . S
C46 O43 1.250 . S
C46 O44 1.248 . S
C47 O48 1.264 . S
C47 O55 1.249 1_455 S
O48 C47 1.264 . S
O49 Mg42 1.986 . S
O49 C53 1.246 . S
O50 Mg45 2.032 . S
O50 C53 1.259 . S
O51 Mg42 2.114 1_455 S
O51 C54 1.252 1_455 S
O52 Mg42 2.251 . S
O52 Mg45 2.079 . S
O52 C54 1.273 . S
C53 O49 1.246 . S
C53 O50 1.259 . S
C54 O51 1.252 1_655 S
C54 O52 1.273 . S
O55 Mg42 2.010 . S
O55 C47 1.249 1_655 S
Mg56 O57 2.028 . S
Mg56 O63 1.986 . S
Mg56 O65 2.114 1_565 S
Mg56 O66 2.251 . S
Mg56 O69 2.010 . S
O57 Mg56 2.028 . S
O57 C60 1.250 . S
O58 Mg59 2.028 . S
O58 C60 1.248 . S
Mg59 O58 2.028 . S
Mg59 O64 2.032 . S
Mg59 O66 2.079 . S
C60 O57 1.250 . S
C60 O58 1.248 . S
C61 O62 1.264 . S
C61 O69 1.249 1_545 S
O62 C61 1.264 . S
O63 Mg56 1.986 . S
O63 C67 1.246 . S
O64 Mg59 2.032 . S
O64 C67 1.259 . S
O65 Mg56 2.114 1_545 S
O65 C68 1.252 1_545 S
O66 Mg56 2.251 . S
O66 Mg59 2.079 . S
O66 C68 1.273 . S
C67 O63 1.246 . S
C67 O64 1.259 . S
C68 O65 1.252 1_565 S
C68 O66 1.273 . S
O69 Mg56 2.010 . S
O69 C61 1.249 1_565 S
Mg70 O71 2.028 . S
Mg70 O77 1.986 . S
Mg70 O79 2.114 . S
Mg70 O80 2.251 . S
Mg70 O83 2.010 . S
O71 Mg70 2.028 . S
O71 C74 1.250 . S
O72 Mg73 2.028 . S
O72 C74 1.248 . S
Mg73 O72 2.028 . S
Mg73 O78 2.032 . S
Mg73 O80 2.079 . S
C74 O71 1.250 . S
C74 O72 1.248 . S
C75 O76 1.264 . S
C75 O83 1.249 . S
O76 C75 1.264 . S
O77 Mg70 1.986 . S
O77 C81 1.246 . S
O78 Mg73 2.032 . S
O78 C81 1.259 . S
O79 Mg70 2.114 . S
O79 C82 1.252 . S
O80 Mg70 2.251 . S
O80 Mg73 2.079 . S
O80 C82 1.273 . S
C81 O77 1.246 . S
C81 O78 1.259 . S
C82 O79 1.252 . S
C82 O80 1.273 . S
O83 Mg70 2.010 . S
O83 C75 1.249 . S
Mg84 O85 2.028 . S
Mg84 O91 1.986 . S
Mg84 O93 2.114 1_565 S
Mg84 O94 2.251 . S
Mg84 O97 2.010 . S
O85 Mg84 2.028 . S
O85 C88 1.250 . S
O86 Mg87 2.028 . S
O86 C88 1.248 . S
Mg87 O86 2.028 . S
Mg87 O92 2.032 . S
Mg87 O94 2.079 . S
C88 O85 1.250 . S
C88 O86 1.248 . S
C89 O90 1.264 . S
C89 O97 1.249 1_545 S
O90 C89 1.264 . S
O91 Mg84 1.986 . S
O91 C95 1.246 . S
O92 Mg87 2.032 . S
O92 C95 1.259 . S
O93 Mg84 2.114 1_545 S
O93 C96 1.252 1_545 S
O94 Mg84 2.251 . S
O94 Mg87 2.079 . S
O94 C96 1.273 . S
C95 O91 1.246 . S
C95 O92 1.259 . S
C96 O93 1.252 1_565 S
C96 O94 1.273 . S
O97 Mg84 2.010 . S
O97 C89 1.249 1_565 S
Mg98 O99 2.028 . S
Mg98 O105 1.986 . S
Mg98 O107 2.114 . S
Mg98 O108 2.251 . S
Mg98 O111 2.010 . S
O99 Mg98 2.028 . S
O99 C102 1.250 . S
O100 Mg101 2.028 . S
O100 C102 1.248 . S
Mg101 O100 2.028 . S
Mg101 O106 2.032 . S
Mg101 O108 2.079 . S
C102 O99 1.250 . S
C102 O100 1.248 . S
C103 O104 1.264 . S
C103 O111 1.249 . S
O104 C103 1.264 . S
O105 Mg98 1.986 . S
O105 C109 1.246 . S
O106 Mg101 2.032 . S
O106 C109 1.259 . S
O107 Mg98 2.114 . S
O107 C110 1.252 . S
O108 Mg98 2.251 . S
O108 Mg101 2.079 . S
O108 C110 1.273 . S
C109 O105 1.246 . S
C109 O106 1.259 . S
C110 O107 1.252 . S
C110 O108 1.273 . S
O111 Mg98 2.010 . S
O111 C103 1.249 . S
Mg112 O113 2.028 . S
Mg112 O119 1.986 . S
Mg112 O121 2.114 1_455 S
Mg112 O122 2.251 . S
Mg112 O125 2.010 . S
O113 Mg112 2.028 . S
O113 C116 1.250 . S
O114 Mg115 2.028 . S
O114 C116 1.248 . S
Mg115 O114 2.028 . S
Mg115 O120 2.032 . S
Mg115 O122 2.079 . S
C116 O113 1.250 . S
C116 O114 1.248 . S
C117 O118 1.264 . S
C117 O125 1.249 1_655 S
O118 C117 1.264 . S
O119 Mg112 1.986 . S
O119 C123 1.246 . S
O120 Mg115 2.032 . S
O120 C123 1.259 . S
O121 Mg112 2.114 1_655 S
O121 C124 1.252 1_655 S
O122 Mg112 2.251 . S
O122 Mg115 2.079 . S
O122 C124 1.273 . S
C123 O119 1.246 . S
C123 O120 1.259 . S
C124 O121 1.252 1_455 S
C124 O122 1.273 . S
O125 Mg112 2.010 . S
O125 C117 1.249 1_455 S
Mg126 O127 2.028 . S
Mg126 O133 1.986 . S
Mg126 O135 2.114 1_545 S
Mg126 O136 2.251 . S
Mg126 O139 2.010 . S
O127 Mg126 2.028 . S
O127 C130 1.250 . S
O128 Mg129 2.028 . S
O128 C130 1.248 . S
Mg129 O128 2.028 . S
Mg129 O134 2.032 . S
Mg129 O136 2.079 . S
C130 O127 1.250 . S
C130 O128 1.248 . S
C131 O132 1.264 . S
C131 O139 1.249 1_565 S
O132 C131 1.264 . S
O133 Mg126 1.986 . S
O133 C137 1.246 . S
O134 Mg129 2.032 . S
O134 C137 1.259 . S
O135 Mg126 2.114 1_565 S
O135 C138 1.252 1_565 S
O136 Mg126 2.251 . S
O136 Mg129 2.079 . S
O136 C138 1.273 . S
C137 O133 1.246 . S
C137 O134 1.259 . S
C138 O135 1.252 1_545 S
C138 O136 1.273 . S
O139 Mg126 2.010 . S
O139 C131 1.249 1_545 S
Mg140 O141 2.028 . S
Mg140 O147 1.986 . S
Mg140 O149 2.114 . S
Mg140 O150 2.251 . S
Mg140 O153 2.010 . S
O141 Mg140 2.028 . S
O141 C144 1.250 . S
O142 Mg143 2.028 . S
O142 C144 1.248 . S
Mg143 O142 2.028 . S
Mg143 O148 2.032 . S
Mg143 O150 2.079 . S
C144 O141 1.250 . S
C144 O142 1.248 . S
C145 O146 1.264 . S
C145 O153 1.249 . S
O146 C145 1.264 . S
O147 Mg140 1.986 . S
O147 C151 1.246 . S
O148 Mg143 2.032 . S
O148 C151 1.259 . S
O149 Mg140 2.114 . S
O149 C152 1.252 . S
O150 Mg140 2.251 . S
O150 Mg143 2.079 . S
O150 C152 1.273 . S
C151 O147 1.246 . S
C151 O148 1.259 . S
C152 O149 1.252 . S
C152 O150 1.273 . S
O153 Mg140 2.010 . S
O153 C145 1.249 . S
Mg154 O155 2.028 . S
Mg154 O161 1.986 . S
Mg154 O163 2.114 1_655 S
Mg154 O164 2.251 . S
Mg154 O167 2.010 . S
O155 Mg154 2.028 . S
O155 C158 1.250 . S
O156 Mg157 2.028 . S
O156 C158 1.248 . S
Mg157 O156 2.028 . S
Mg157 O162 2.032 . S
Mg157 O164 2.079 . S
C158 O155 1.250 . S
C158 O156 1.248 . S
C159 O160 1.264 . S
C159 O167 1.249 1_455 S
O160 C159 1.264 . S
O161 Mg154 1.986 . S
O161 C165 1.246 . S
O162 Mg157 2.032 . S
O162 C165 1.259 . S
O163 Mg154 2.114 1_455 S
O163 C166 1.252 1_455 S
O164 Mg154 2.251 . S
O164 Mg157 2.079 . S
O164 C166 1.273 . S
C165 O161 1.246 . S
C165 O162 1.259 . S
C166 O163 1.252 1_655 S
C166 O164 1.273 . S
O167 Mg154 2.010 . S
O167 C159 1.249 1_655 S
C5 C159 0.850 1_654 S
C89 C19 0.850 1_545 S
C33 C103 0.850 1_554 S
C117 C47 0.850 1_655 S
C131 C61 0.850 1_566 S
C145 C75 0.851 . S
C54 C124 1.709 1_656 S
C68 C138 1.709 1_565 S
C82 C152 1.709 1_556 S
C166 C12 1.709 1_655 S
C26 C96 1.709 1_546 S
C40 C110 1.709 . S
C116 C4 1.524 . S
C130 C18 1.524 . S
C32 C144 1.524 . S
C46 C158 1.524 . S
C60 C88 1.524 . S
C102 C74 1.524 . S
C11 C151 1.494 . S
C165 C25 1.494 . S
C39 C95 1.493 . S
C53 C109 1.494 . S
C67 C123 1.494 . S
C81 C137 1.494 . S
