# Generated by pormake.
# Topology dia, (4)-cn, num edge types: 1
# Building blocks:
#     Node 0, Type 0, BuildingBlock: QUQFOY_clean_sbu_1, # of connection points: 4
#     Node 1, Type 0, BuildingBlock: QUQFOY_clean_sbu_1, # of connection points: 4
#     Node 2, Type 0, BuildingBlock: QUQFOY_clean_sbu_1, # of connection points: 4
#     Node 3, Type 0, BuildingBlock: QUQFOY_clean_sbu_1, # of connection points: 4
#     Node 4, Type 0, BuildingBlock: QUQFOY_clean_sbu_1, # of connection points: 4
#     Node 5, Type 0, BuildingBlock: QUQFOY_clean_sbu_1, # of connection points: 4
#     Node 6, Type 0, BuildingBlock: QUQFOY_clean_sbu_1, # of connection points: 4
#     Node 7, Type 0, BuildingBlock: QUQFOY_clean_sbu_1, # of connection points: 4
#     Edge 8, Type (0, 0), None
#     Edge 9, Type (0, 0), None
#     Edge 10, Type (0, 0), None
#     Edge 11, Type (0, 0), None
#     Edge 12, Type (0, 0), None
#     Edge 13, Type (0, 0), None
#     Edge 14, Type (0, 0), None
#     Edge 15, Type (0, 0), None
#     Edge 16, Type (0, 0), None
#     Edge 17, Type (0, 0), None
#     Edge 18, Type (0, 0), None
#     Edge 19, Type (0, 0), None
#     Edge 20, Type (0, 0), None
#     Edge 21, Type (0, 0), None
#     Edge 22, Type (0, 0), None
#     Edge 23, Type (0, 0), None
# Relax obj value: 0.189
# Max RMSD: 0.227
# Mean RMSD: 0.227
data_MOF--net-dia--node1-QUQFOY_clean_sbu_1--edge1-none
_symmetry_space_group_name_H-M    P1
_symmetry_Int_Tables_number       1
_symmetry_cell_setting            triclinic
loop_
_symmetry_equiv_pos_as_xyz
'x, y, z'
_cell_length_a     17.20213
_cell_length_b     17.20261
_cell_length_c     16.79138
_cell_angle_alpha  90.001132
_cell_angle_beta   89.998868
_cell_angle_gamma 93.219016
loop_
_atom_site_label
_atom_site_type_symbol
_atom_site_fract_x
_atom_site_fract_y
_atom_site_fract_z
_atom_type_partial_charge
O0 O 0.13053 0.17648 0.59539 0.0
Cd1 Cd 0.0445 0.11223 0.65576 0.0
Cd2 Cd 0.15487 0.00193 0.65576 0.0
O3 O 0.21905 0.08801 0.59539 0.0
O4 O 0.9701 0.18656 0.69942 0.0
O5 O 0.04297 0.11376 0.77492 0.0
C6 C -0.00856 0.16525 0.76936 0.0
C7 C 0.20794 -0.05109 0.76936 0.0
C8 C 0.19775 0.15521 0.57685 0.0
C9 C 0.00162 -0.04106 0.57686 0.0
O10 O 0.06883 -0.06232 0.5954 0.0
O11 O -0.01968 0.02615 0.59539 0.0
O12 O 0.22927 0.9276 0.69942 0.0
O13 O 0.1564 0.00041 0.77492 0.0
O14 O 0.73026 0.27622 1.01484 0.0
Cd15 Cd 0.79448 0.36227 0.95447 0.0
Cd16 Cd 0.90481 0.25192 0.95446 0.0
O17 O 0.81875 0.18773 1.01485 0.0
O18 O 0.72014 0.43664 0.91079 0.0
O19 O 0.79297 0.36378 0.83531 0.0
C20 C 0.74147 0.4153 0.84085 0.0
C21 C 0.95783 0.19886 0.84086 0.0
C22 C 0.75154 0.20901 1.03338 0.0
C23 C 0.94777 0.40519 1.03336 0.0
O24 O 0.96905 0.33798 1.01482 0.0
O25 O 0.88055 0.42647 1.01483 0.0
O26 O -0.02084 0.17755 0.9108 0.0
O27 O 0.90632 0.25038 0.8353 0.0
O28 O 0.63053 0.17648 0.09539 0.0
Cd29 Cd 0.5445 0.11223 0.15576 0.0
Cd30 Cd 0.65487 0.00193 0.15576 0.0
O31 O 0.71905 0.08801 0.09539 0.0
O32 O 0.47011 0.18656 0.19942 0.0
O33 O 0.54297 0.11375 0.27492 0.0
C34 C 0.49144 0.16525 0.26936 0.0
C35 C 0.70794 -0.05109 0.26936 0.0
C36 C 0.69775 0.15521 0.07685 0.0
C37 C 0.50162 -0.04106 0.07686 0.0
O38 O 0.56883 -0.06232 0.0954 0.0
O39 O 0.48032 0.02615 0.09539 0.0
O40 O 0.72927 0.9276 0.19942 0.0
O41 O 0.6564 0.00041 0.27493 0.0
O42 O 0.73031 0.77619 0.51481 0.0
Cd43 Cd 0.79456 0.86223 0.45445 0.0
Cd44 Cd 0.90488 0.75188 0.45449 0.0
O45 O 0.8188 0.68769 0.51485 0.0
O46 O 0.72022 -0.06338 0.41079 0.0
O47 O 0.79305 0.86377 0.33529 0.0
C48 C 0.74155 0.9153 0.34085 0.0
C49 C 0.95788 0.69886 0.34086 0.0
C50 C 0.75158 0.70898 0.53337 0.0
C51 C 0.94783 0.90514 0.53339 0.0
O52 O 0.96911 0.83793 0.51486 0.0
O53 O 0.88062 0.92642 0.51484 0.0
O54 O -0.02079 0.67751 0.41079 0.0
O55 O 0.90638 0.75039 0.33533 0.0
O56 O 0.13055 0.67648 0.09535 0.0
Cd57 Cd 0.04449 0.61226 0.15572 0.0
Cd58 Cd 0.15483 0.50193 0.15574 0.0
O59 O 0.21904 0.58798 0.09537 0.0
O60 O 0.97013 0.6866 0.19942 0.0
O61 O 0.04299 0.61375 0.27488 0.0
C62 C -0.00853 0.66527 0.26935 0.0
C63 C 0.20787 0.44891 0.26935 0.0
C64 C 0.19777 0.65519 0.07682 0.0
C65 C 0.00157 0.45899 0.07682 0.0
O66 O 0.06878 0.4377 0.09537 0.0
O67 O -0.01971 0.5262 0.09535 0.0
O68 O 0.2292 0.42758 0.19942 0.0
O69 O 0.15635 0.50042 0.2749 0.0
O70 O 0.23025 0.27622 0.51484 0.0
Cd71 Cd 0.29448 0.36227 0.45447 0.0
Cd72 Cd 0.40481 0.25193 0.45446 0.0
O73 O 0.31875 0.18773 0.51484 0.0
O74 O 0.22014 0.43664 0.41079 0.0
O75 O 0.29297 0.36378 0.3353 0.0
C76 C 0.24147 0.41531 0.34085 0.0
C77 C 0.45783 0.19886 0.34086 0.0
C78 C 0.25154 0.20901 0.53338 0.0
C79 C 0.44777 0.40519 0.53336 0.0
O80 O 0.46905 0.33798 0.51482 0.0
O81 O 0.38055 0.42647 0.51483 0.0
O82 O 0.47916 0.17755 0.4108 0.0
O83 O 0.40632 0.25038 0.3353 0.0
O84 O 0.23031 0.77619 1.01481 0.0
Cd85 Cd 0.29456 0.86223 0.95445 0.0
Cd86 Cd 0.40488 0.75188 0.95449 0.0
O87 O 0.3188 0.68769 1.01485 0.0
O88 O 0.22022 -0.06338 0.91079 0.0
O89 O 0.29305 0.86378 0.83529 0.0
C90 C 0.24155 0.9153 0.84085 0.0
C91 C 0.45788 0.69886 0.84086 0.0
C92 C 0.25158 0.70898 1.03336 0.0
C93 C 0.44783 0.90514 1.03339 0.0
O94 O 0.46911 0.83793 1.01486 0.0
O95 O 0.38062 0.92642 1.01484 0.0
O96 O 0.47921 0.67751 0.91079 0.0
O97 O 0.40638 0.75039 0.83533 0.0
O98 O 0.63056 0.67648 0.59535 0.0
Cd99 Cd 0.5445 0.61226 0.65572 0.0
Cd100 Cd 0.65483 0.50192 0.65574 0.0
O101 O 0.71904 0.58798 0.59537 0.0
O102 O 0.47014 0.6866 0.69942 0.0
O103 O 0.54299 0.61375 0.77488 0.0
C104 C 0.49147 0.66527 0.76935 0.0
C105 C 0.70787 0.4489 0.76935 0.0
C106 C 0.69777 0.65519 0.57682 0.0
C107 C 0.50157 0.45898 0.57682 0.0
O108 O 0.56878 0.4377 0.59537 0.0
O109 O 0.48029 0.5262 0.59535 0.0
O110 O 0.7292 0.42758 0.69942 0.0
O111 O 0.65635 0.50042 0.7749 0.0
loop_
_geom_bond_atom_site_label_1
_geom_bond_atom_site_label_2
_geom_bond_distance
_geom_bond_site_symmetry_2
_ccdc_geom_bond_type
O0 Cd1 2.223 . S
O0 C8 1.315 . S
Cd1 O0 2.223 . S
Cd1 O4 2.297 . S
Cd1 O5 2.439 . S
Cd1 O11 2.240 . S
Cd2 O3 2.240 . S
Cd2 O10 2.223 . S
Cd2 O12 2.297 1_545 S
Cd2 O13 2.439 . S
O3 Cd2 2.240 . S
O3 C8 1.279 . S
O4 Cd1 2.297 . S
O4 C6 1.247 . S
O5 Cd1 2.439 . S
O5 C6 1.208 . S
C6 O4 1.247 . S
C6 O5 1.208 . S
C7 O12 1.247 . S
C7 O13 1.208 1_565 S
C8 O0 1.315 . S
C8 O3 1.279 . S
C9 O10 1.315 . S
C9 O11 1.279 . S
O10 Cd2 2.223 . S
O10 C9 1.315 . S
O11 Cd1 2.240 . S
O11 C9 1.279 . S
O12 Cd2 2.297 1_565 S
O12 C7 1.247 . S
O13 Cd2 2.439 . S
O13 C7 1.208 1_545 S
O14 Cd15 2.223 . S
O14 C22 1.315 . S
Cd15 O14 2.223 . S
Cd15 O18 2.297 . S
Cd15 O19 2.439 . S
Cd15 O25 2.240 . S
Cd16 O17 2.240 . S
Cd16 O24 2.223 . S
Cd16 O26 2.297 1_655 S
Cd16 O27 2.439 . S
O17 Cd16 2.240 . S
O17 C22 1.279 . S
O18 Cd15 2.297 . S
O18 C20 1.247 . S
O19 Cd15 2.439 . S
O19 C20 1.208 . S
C20 O18 1.247 . S
C20 O19 1.208 . S
C21 O26 1.247 . S
C21 O27 1.208 1_455 S
C22 O14 1.315 . S
C22 O17 1.279 . S
C23 O24 1.315 . S
C23 O25 1.279 . S
O24 Cd16 2.223 . S
O24 C23 1.315 . S
O25 Cd15 2.240 . S
O25 C23 1.279 . S
O26 Cd16 2.297 1_455 S
O26 C21 1.247 . S
O27 Cd16 2.439 . S
O27 C21 1.208 1_655 S
O28 Cd29 2.223 . S
O28 C36 1.315 . S
Cd29 O28 2.223 . S
Cd29 O32 2.297 . S
Cd29 O33 2.439 . S
Cd29 O39 2.240 . S
Cd30 O31 2.240 . S
Cd30 O38 2.223 . S
Cd30 O40 2.297 1_545 S
Cd30 O41 2.439 . S
O31 Cd30 2.240 . S
O31 C36 1.279 . S
O32 Cd29 2.297 . S
O32 C34 1.247 . S
O33 Cd29 2.439 . S
O33 C34 1.208 . S
C34 O32 1.247 . S
C34 O33 1.208 . S
C35 O40 1.247 . S
C35 O41 1.208 1_565 S
C36 O28 1.315 . S
C36 O31 1.279 . S
C37 O38 1.315 . S
C37 O39 1.279 . S
O38 Cd30 2.223 . S
O38 C37 1.315 . S
O39 Cd29 2.240 . S
O39 C37 1.279 . S
O40 Cd30 2.297 1_565 S
O40 C35 1.247 . S
O41 Cd30 2.439 . S
O41 C35 1.208 1_545 S
O42 Cd43 2.223 . S
O42 C50 1.315 . S
Cd43 O42 2.223 . S
Cd43 O46 2.297 . S
Cd43 O47 2.439 . S
Cd43 O53 2.240 . S
Cd44 O45 2.240 . S
Cd44 O52 2.223 . S
Cd44 O54 2.297 1_655 S
Cd44 O55 2.439 . S
O45 Cd44 2.240 . S
O45 C50 1.279 . S
O46 Cd43 2.297 . S
O46 C48 1.247 . S
O47 Cd43 2.439 . S
O47 C48 1.208 . S
C48 O46 1.247 . S
C48 O47 1.208 . S
C49 O54 1.247 . S
C49 O55 1.208 1_455 S
C50 O42 1.315 . S
C50 O45 1.279 . S
C51 O52 1.315 . S
C51 O53 1.279 . S
O52 Cd44 2.223 . S
O52 C51 1.315 . S
O53 Cd43 2.240 . S
O53 C51 1.279 . S
O54 Cd44 2.297 1_455 S
O54 C49 1.247 . S
O55 Cd44 2.439 . S
O55 C49 1.208 1_655 S
O56 Cd57 2.223 . S
O56 C64 1.315 . S
Cd57 O56 2.223 . S
Cd57 O60 2.297 . S
Cd57 O61 2.439 . S
Cd57 O67 2.240 . S
Cd58 O59 2.240 . S
Cd58 O66 2.223 . S
Cd58 O68 2.297 . S
Cd58 O69 2.439 . S
O59 Cd58 2.240 . S
O59 C64 1.279 . S
O60 Cd57 2.297 . S
O60 C62 1.247 . S
O61 Cd57 2.439 . S
O61 C62 1.208 . S
C62 O60 1.247 . S
C62 O61 1.208 . S
C63 O68 1.247 . S
C63 O69 1.208 . S
C64 O56 1.315 . S
C64 O59 1.279 . S
C65 O66 1.315 . S
C65 O67 1.279 . S
O66 Cd58 2.223 . S
O66 C65 1.315 . S
O67 Cd57 2.240 . S
O67 C65 1.279 . S
O68 Cd58 2.297 . S
O68 C63 1.247 . S
O69 Cd58 2.439 . S
O69 C63 1.208 . S
O70 Cd71 2.223 . S
O70 C78 1.315 . S
Cd71 O70 2.223 . S
Cd71 O74 2.297 . S
Cd71 O75 2.439 . S
Cd71 O81 2.240 . S
Cd72 O73 2.240 . S
Cd72 O80 2.223 . S
Cd72 O82 2.297 . S
Cd72 O83 2.439 . S
O73 Cd72 2.240 . S
O73 C78 1.279 . S
O74 Cd71 2.297 . S
O74 C76 1.247 . S
O75 Cd71 2.439 . S
O75 C76 1.208 . S
C76 O74 1.247 . S
C76 O75 1.208 . S
C77 O82 1.247 . S
C77 O83 1.208 . S
C78 O70 1.315 . S
C78 O73 1.279 . S
C79 O80 1.315 . S
C79 O81 1.279 . S
O80 Cd72 2.223 . S
O80 C79 1.315 . S
O81 Cd71 2.240 . S
O81 C79 1.279 . S
O82 Cd72 2.297 . S
O82 C77 1.247 . S
O83 Cd72 2.439 . S
O83 C77 1.208 . S
O84 Cd85 2.223 . S
O84 C92 1.315 . S
Cd85 O84 2.223 . S
Cd85 O88 2.297 . S
Cd85 O89 2.439 . S
Cd85 O95 2.240 . S
Cd86 O87 2.240 . S
Cd86 O94 2.223 . S
Cd86 O96 2.297 . S
Cd86 O97 2.439 . S
O87 Cd86 2.240 . S
O87 C92 1.279 . S
O88 Cd85 2.297 . S
O88 C90 1.247 . S
O89 Cd85 2.439 . S
O89 C90 1.208 . S
C90 O88 1.247 . S
C90 O89 1.208 . S
C91 O96 1.247 . S
C91 O97 1.208 . S
C92 O84 1.315 . S
C92 O87 1.279 . S
C93 O94 1.315 . S
C93 O95 1.279 . S
O94 Cd86 2.223 . S
O94 C93 1.315 . S
O95 Cd85 2.240 . S
O95 C93 1.279 . S
O96 Cd86 2.297 . S
O96 C91 1.247 . S
O97 Cd86 2.439 . S
O97 C91 1.208 . S
O98 Cd99 2.223 . S
O98 C106 1.315 . S
Cd99 O98 2.223 . S
Cd99 O102 2.297 . S
Cd99 O103 2.439 . S
Cd99 O109 2.240 . S
Cd100 O101 2.240 . S
Cd100 O108 2.223 . S
Cd100 O110 2.297 . S
Cd100 O111 2.439 . S
O101 Cd100 2.240 . S
O101 C106 1.279 . S
O102 Cd99 2.297 . S
O102 C104 1.247 . S
O103 Cd99 2.439 . S
O103 C104 1.208 . S
C104 O102 1.247 . S
C104 O103 1.208 . S
C105 O110 1.247 . S
C105 O111 1.208 . S
C106 O98 1.315 . S
C106 O101 1.279 . S
C107 O108 1.315 . S
C107 O109 1.279 . S
O108 Cd100 2.223 . S
O108 C107 1.315 . S
O109 Cd99 2.240 . S
O109 C107 1.279 . S
O110 Cd100 2.297 . S
O110 C105 1.247 . S
O111 Cd100 2.439 . S
O111 C105 1.208 . S
C78 C8 1.711 . S
C105 C20 1.524 . S
C37 C93 1.711 1_544 S
C49 C62 1.524 . S
C90 C7 1.524 . S
C23 C65 1.711 1_656 S
C77 C34 1.524 . S
C50 C106 1.711 . S
C63 C76 1.524 . S
C22 C36 1.711 1_556 S
C48 C35 1.524 . S
C51 C9 1.711 1_665 S
C21 C6 1.524 . S
C104 C91 1.524 . S
C64 C92 1.711 1_554 S
C79 C107 1.711 . S
