# Generated by pormake.
# Topology qtz-x, (6)-cn, num edge types: 1
# Building blocks:
#     Node 0, Type 0, BuildingBlock: NUHQIS_clean_sbu_0, # of connection points: 6
#     Node 1, Type 0, BuildingBlock: NUHQIS_clean_sbu_0, # of connection points: 6
#     Node 2, Type 0, BuildingBlock: NUHQIS_clean_sbu_0, # of connection points: 6
#     Edge 3, Type (0, 0), BuildingBlock: AJUNOK_clean_linker_0, # of connection points: 2
#     Edge 4, Type (0, 0), BuildingBlock: AJUNOK_clean_linker_0, # of connection points: 2
#     Edge 5, Type (0, 0), BuildingBlock: AJUNOK_clean_linker_0, # of connection points: 2
#     Edge 6, Type (0, 0), BuildingBlock: AJUNOK_clean_linker_0, # of connection points: 2
#     Edge 7, Type (0, 0), BuildingBlock: AJUNOK_clean_linker_0, # of connection points: 2
#     Edge 8, Type (0, 0), BuildingBlock: AJUNOK_clean_linker_0, # of connection points: 2
#     Edge 9, Type (0, 0), BuildingBlock: AJUNOK_clean_linker_0, # of connection points: 2
#     Edge 10, Type (0, 0), BuildingBlock: AJUNOK_clean_linker_0, # of connection points: 2
#     Edge 11, Type (0, 0), BuildingBlock: AJUNOK_clean_linker_0, # of connection points: 2
# Relax obj value: 0.346
# Max RMSD: 0.301
# Mean RMSD: 0.276
data_MOF--net-qtz-x--node1-NUHQIS_clean_sbu_0--edge1-AJUNOK_clean_linker_0
_symmetry_space_group_name_H-M    P1
_symmetry_Int_Tables_number       1
_symmetry_cell_setting            triclinic
loop_
_symmetry_equiv_pos_as_xyz
'x, y, z'
_cell_length_a     11.428354
_cell_length_b     11.448069
_cell_length_c     41.0952
_cell_angle_alpha  61.421969
_cell_angle_beta   119.39233
_cell_angle_gamma 121.54884
loop_
_atom_site_label
_atom_site_type_symbol
_atom_site_fract_x
_atom_site_fract_y
_atom_site_fract_z
_atom_type_partial_charge
Tb0 Tb 1.08374 0.53234 0.22753 0.0
Eu1 Eu 0.42281 0.70409 0.22976 0.0
C2 C 0.24647 0.86206 0.22696 0.0
C3 C 0.1635 0.67512 0.14759 0.0
C4 C 0.79902 0.35357 0.27251 0.0
C5 C 0.81821 0.43225 0.32139 0.0
C6 C 0.83517 0.46429 0.28603 0.0
C7 C 0.74033 0.21038 0.29447 0.0
C8 C 0.72553 0.17846 0.33007 0.0
C9 C 0.76691 0.28904 0.34424 0.0
C10 C 0.84119 0.38365 0.2394 0.0
O11 O 0.16575 0.36878 0.24338 0.0
O12 O 0.34284 0.50296 0.21486 0.0
O13 O 0.43012 0.57843 0.29221 0.0
O14 O 0.21426 0.56794 0.28484 0.0
C15 C 0.25172 0.37733 0.22902 0.0
O16 O 0.62696 0.70492 0.2377 0.0
O17 O 0.61435 0.90174 0.22794 0.0
O18 O 0.37152 0.86091 0.23433 0.0
O19 O 0.12323 0.75283 0.21952 0.0
O20 O 1.06658 0.57985 0.16624 0.0
O21 O 0.29584 0.75096 0.16556 0.0
C22 C 0.34212 0.56076 0.30725 0.0
O23 O 0.87317 0.51401 0.21547 0.0
O24 O 0.9348 0.33114 0.24912 0.0
C25 C 0.73648 0.9131 0.19362 0.0
C26 C 0.79264 0.00446 0.12417 0.0
C27 C 0.86086 0.91881 0.15887 0.0
C28 C 0.8309 0.87157 0.19313 0.0
C29 C 0.67348 0.00428 0.15935 0.0
C30 C 0.70008 0.04818 0.12489 0.0
C31 C 0.68697 0.84474 0.22767 0.0
H32 H 0.85213 0.51941 0.33188 0.0
H33 H 0.88275 0.57555 0.27027 0.0
H34 H 0.71274 0.12283 0.28505 0.0
H35 H 0.68659 0.06723 0.34728 0.0
H36 H 0.93199 0.88287 0.15903 0.0
H37 H 0.87545 0.79671 0.21861 0.0
H38 H 0.59682 0.03523 0.15842 0.0
H39 H 0.64127 0.10931 0.09838 0.0
Tb40 Tb 0.9392 0.23681 0.58206 0.0
Eu41 Eu 0.7522 0.90371 0.58032 0.0
C42 C 1.09471 0.06364 0.58846 0.0
C43 C 0.79538 0.16086 0.5032 0.0
C44 C 1.0879 0.57398 0.6026 0.0
C45 C 0.25059 0.68848 0.65392 0.0
C46 C 0.22772 0.65485 0.62232 0.0
C47 C 0.96926 0.53975 0.61229 0.0
C48 C 0.99246 0.57233 0.64414 0.0
C49 C 0.13376 0.64045 0.66616 0.0
C50 C 1.07314 0.49751 0.57979 0.0
O51 O 0.71895 0.19413 0.57686 0.0
O52 O 0.60022 -0.0512 0.58809 0.0
O53 O 0.83257 0.88699 0.64517 0.0
O54 O 0.93477 0.12693 0.64216 0.0
C55 C 0.60631 0.07371 0.58309 0.0
O56 O 0.55104 0.73635 0.55859 0.0
O57 O 0.748 0.69373 0.59269 0.0
O58 O 0.96671 -0.02496 0.57294 0.0
O59 O 1.1052 0.15405 0.60168 0.0
O60 O 0.91275 0.23422 0.52586 0.0
O61 O 0.69789 0.04502 0.51779 0.0
C62 C 0.89342 -0.01083 0.66173 0.0
O63 O 0.13164 0.40152 0.60079 0.0
O64 O 0.94505 0.44842 0.55533 0.0
C65 C 0.59499 0.6126 0.53674 0.0
C66 C 0.52907 0.56213 0.46748 0.0
C67 C 0.44574 0.46473 0.4928 0.0
C68 C 0.47771 0.49041 0.52692 0.0
C69 C 0.68167 0.70746 0.51233 0.0
C70 C 0.64877 0.68289 0.47801 0.0
C71 C 0.61561 0.65204 0.56905 0.0
H72 H 0.36065 0.73968 0.67103 0.0
H73 H 0.32066 0.68074 0.61555 0.0
H74 H 0.86047 0.47628 0.59772 0.0
H75 H 0.90196 0.53206 0.65388 0.0
H76 H 0.35311 0.37087 0.48562 0.0
H77 H 0.40736 0.41796 0.54475 0.0
H78 H 0.77094 0.80434 0.51884 0.0
H79 H 0.7129 0.76255 0.45878 0.0
Tb80 Tb 0.95104 0.91511 0.89172 0.0
Eu81 Eu 0.13678 0.73026 0.92026 0.0
C82 C 0.28375 0.06092 0.90775 0.0
C83 C 0.99497 0.87506 0.82789 0.0
C84 C 0.79284 0.07895 0.90594 0.0
C85 C 0.86843 0.20117 0.95169 0.0
C86 C 0.87357 0.20227 0.91835 0.0
C87 C 0.69842 -0.04195 0.92576 0.0
C88 C 0.68749 -0.04053 0.95781 0.0
C89 C 0.77715 0.0785 0.97231 0.0
C90 C 0.82791 0.06972 0.87743 0.0
O91 O 0.80892 0.69345 0.91095 0.0
O92 O 0.90101 0.59678 0.89644 0.0
O93 O 0.10703 0.68352 0.97659 0.0
O94 O 1.03421 0.86766 0.95611 0.0
C95 C 0.79457 0.58887 0.90255 0.0
O96 O 0.14843 0.52802 0.9323 0.0
O97 O 0.34358 0.71842 0.9365 0.0
O98 O 0.29558 -0.06012 0.93311 0.0
O99 O 0.15843 0.06321 0.88161 0.0
O100 O 0.9033 0.8818 0.83708 0.0
O101 O 0.10958 0.84712 0.85542 0.0
C102 C 1.07707 0.76284 0.9842 0.0
O103 O 0.96641 0.11564 0.88442 0.0
O104 O 0.75738 -0.05086 0.86873 0.0
C105 C 0.29991 0.58616 0.89934 0.0
C106 C 0.26232 0.58652 0.8263 0.0
C107 C 0.21186 0.45653 0.85413 0.0
C108 C 0.23256 0.45632 0.89066 0.0
C109 C 0.35741 0.7146 0.87216 0.0
C110 C 0.342 0.71397 0.83657 0.0
C111 C 0.28105 0.59238 0.93144 0.0
H112 H 0.94222 0.29353 0.96232 0.0
H113 H 0.94658 0.29703 0.9034 0.0
H114 H 0.6394 0.85928 0.91809 0.0
H115 H 0.61471 0.86368 0.97266 0.0
H116 H 0.14986 0.35644 0.84696 0.0
H117 H 0.18766 0.35603 0.9111 0.0
H118 H 0.40537 0.81769 0.8769 0.0
H119 H 0.38586 0.81475 0.81611 0.0
C120 C 0.31617 0.13023 0.2062 0.0
C121 C 0.24581 -0.00889 0.2279 0.0
C122 C 0.31719 0.25324 0.20676 0.0
C123 C 0.24858 0.24333 0.22926 0.0
H124 H 0.36983 0.14418 0.18827 0.0
H125 H 0.37181 0.35717 0.18911 0.0
S126 S 1.06612 0.90412 0.29558 0.0
N127 N 0.11913 0.85171 0.27571 0.0
N128 N 0.11676 0.08023 0.27611 0.0
C129 C 0.18089 0.10435 0.25189 0.0
C130 C 0.18093 -0.02063 0.25145 0.0
C131 C 0.33719 -0.00939 0.5668 0.0
C132 C 0.47912 0.07714 0.58424 0.0
C133 C 0.21508 -0.01399 0.56876 0.0
C134 C 0.22853 0.06738 0.58843 0.0
H135 H 0.32 0.92556 0.55134 0.0
H136 H 0.10893 0.91771 0.55455 0.0
S137 S 0.57794 0.30439 0.64149 0.0
N138 N 0.62678 0.24179 0.62327 0.0
N139 N 0.39893 0.23332 0.62731 0.0
C140 C 0.37064 0.15301 0.60656 0.0
C141 C 0.49509 0.15827 0.60426 0.0
C142 C 0.45397 0.28654 0.92622 0.0
C143 C 0.41395 0.19379 0.90625 0.0
C144 C 0.57367 0.41739 0.92354 0.0
C145 C 0.65996 0.45752 0.90174 0.0
H146 H 0.39204 0.25785 0.94395 0.0
H147 H 0.60121 0.48534 0.93963 0.0
S148 S 0.5877 0.25837 0.84019 0.0
N149 N 0.46148 0.15415 0.86174 0.0
N150 N 0.68614 0.39994 0.85642 0.0
C151 C 0.61763 0.36684 0.8807 0.0
C152 C 0.49528 0.23437 0.88327 0.0
C153 C 0.77905 -0.06438 1.0411 0.0
C154 C 0.7861 0.0667 1.01102 0.0
C155 C 0.78606 0.91831 0.07787 0.0
C156 C 0.80229 0.03196 0.08641 0.0
H157 H 0.7676 0.84456 1.03632 0.0
H158 H 0.77449 0.81346 0.0994 0.0
S159 S 0.83572 0.39991 1.01938 0.0
N160 N 0.81394 0.31375 0.99292 0.0
N161 N 0.83455 0.28274 1.06302 0.0
C162 C 0.81469 0.16523 1.05729 0.0
C163 C 0.80527 0.1824 1.01946 0.0
C164 C 0.67678 0.23575 0.42991 0.0
C165 C 0.78686 0.19313 0.46267 0.0
C166 C 0.67072 0.26802 0.39147 0.0
C167 C 0.77237 0.25514 0.38468 0.0
H168 H 0.59655 0.24654 0.43399 0.0
H169 H 0.58574 0.3024 0.36695 0.0
S170 S 1.07455 0.13775 0.4605 0.0
N171 N 0.99634 0.13577 0.48563 0.0
N172 N 0.98208 0.19146 0.41391 0.0
C173 C 0.88043 0.20957 0.41724 0.0
C174 C 0.88838 0.1798 0.4561 0.0
C175 C 0.82853 0.86545 0.75857 0.0
C176 C 0.97013 0.90054 0.78571 0.0
C177 C 0.80355 0.8881 0.71898 0.0
C178 C 0.91919 -0.04909 0.70445 0.0
H179 H 0.73584 0.81878 0.76805 0.0
H180 H 0.69297 0.85994 0.69935 0.0
S181 S 0.30992 0.06587 0.7621 0.0
N182 N 0.22724 -0.00231 0.79442 0.0
N183 N 0.17996 0.05199 0.71992 0.0
C184 C 1.0606 -0.01097 0.73088 0.0
C185 C 1.08612 -0.03975 0.77145 0.0
C186 C 0.99768 0.74499 1.03536 0.0
C187 C 1.09644 0.73652 1.02598 0.0
C188 C 1.01461 0.7188 0.07465 0.0
C189 C 0.13391 0.68837 0.10612 0.0
H190 H 0.90542 0.77036 1.01217 0.0
H191 H 0.93627 0.72628 0.08036 0.0
S192 S 0.42559 0.65751 0.09777 0.0
N193 N 0.31727 0.69376 1.05222 0.0
N194 N 0.35259 0.65222 0.12479 0.0
C195 C 0.23344 0.68079 0.09699 0.0
C196 C 0.21396 0.70288 1.0574 0.0
C197 C 0.29213 0.51707 0.36599 0.0
C198 C 0.39143 0.54676 0.34955 0.0
C199 C 0.33672 0.51664 0.40452 0.0
C200 C 0.48277 0.54619 0.42842 0.0
H201 H 0.17895 0.49718 0.34871 0.0
H202 H 0.25664 0.49843 0.41509 0.0
S203 S 0.78485 0.61858 0.40111 0.0
N204 N 0.64233 0.59858 0.3614 0.0
N205 N 0.72494 0.59525 0.4339 0.0
C206 C 0.58236 0.5702 0.41304 0.0
C207 C 0.53705 0.57077 0.3737 0.0
C208 C 0.16898 0.69805 0.75427 0.0
C209 C 0.22341 0.59378 0.7855 0.0
C210 C 0.13953 0.71467 0.71527 0.0
C211 C 0.1625 0.62566 0.70657 0.0
H212 H 0.14804 0.76602 0.76027 0.0
H213 H 1.09936 0.79706 0.69201 0.0
S214 S 0.281 0.32401 0.77631 0.0
N215 N 0.28647 0.39322 0.80439 0.0
N216 N 0.2265 0.42116 0.73085 0.0
C217 C 0.20943 0.51668 0.73712 0.0
C218 C 0.24052 0.50086 0.7767 0.0
loop_
_geom_bond_atom_site_label_1
_geom_bond_atom_site_label_2
_geom_bond_distance
_geom_bond_site_symmetry_2
_ccdc_geom_bond_type
Tb0 C10 2.825 . S
Tb0 O11 2.347 . S
Tb0 O14 2.366 1_655 S
Tb0 O19 2.418 . S
Tb0 O20 2.384 . S
Tb0 O23 2.479 . S
Tb0 O24 2.471 . S
Eu1 O12 2.418 . S
Eu1 O13 2.384 . S
Eu1 O16 2.479 . S
Eu1 O17 2.471 1_565 S
Eu1 O18 2.347 . S
Eu1 O21 2.366 1_455 S
Eu1 C31 2.825 . S
C2 O18 1.259 1_655 S
C2 O19 1.265 . S
C3 O20 1.255 . S
C3 O21 1.265 . S
C4 C6 1.380 . S
C4 C7 1.374 . S
C4 C10 1.507 . S
C5 C6 1.384 . S
C5 C9 1.387 . S
C5 H32 0.930 . S
C6 C4 1.380 . S
C6 C5 1.384 . S
C6 H33 0.931 . S
C7 C4 1.374 . S
C7 C8 1.390 . S
C7 H34 0.930 . S
C8 C7 1.390 . S
C8 C9 1.391 . S
C8 H35 0.930 . S
C9 C5 1.387 . S
C9 C8 1.391 . S
C10 Tb0 2.825 . S
C10 C4 1.507 . S
C10 O23 1.238 . S
C10 O24 1.247 . S
O11 Tb0 2.347 . S
O11 C15 1.259 1_655 S
O12 Eu1 2.418 . S
O12 C15 1.265 . S
O13 Eu1 2.384 . S
O13 C22 1.255 . S
O14 Tb0 2.366 1_455 S
O14 C22 1.265 . S
C15 O11 1.259 1_455 S
C15 O12 1.265 . S
O16 Eu1 2.479 . S
O16 C31 1.238 . S
O17 Eu1 2.471 1_545 S
O17 C31 1.247 1_545 S
O18 Eu1 2.347 . S
O18 C2 1.259 1_455 S
O19 Tb0 2.418 . S
O19 C2 1.265 . S
O20 Tb0 2.384 . S
O20 C3 1.255 . S
O21 Eu1 2.366 1_655 S
O21 C3 1.265 . S
C22 O13 1.255 . S
C22 O14 1.265 . S
O23 Tb0 2.479 . S
O23 C10 1.238 . S
O24 Tb0 2.471 . S
O24 C10 1.247 . S
C25 C28 1.380 1_545 S
C25 C29 1.374 . S
C25 C31 1.507 1_545 S
C26 C27 1.387 1_556 S
C26 C30 1.391 . S
C27 C26 1.387 1_554 S
C27 C28 1.384 1_545 S
C27 H36 0.930 . S
C28 C25 1.380 1_565 S
C28 C27 1.384 1_565 S
C28 H37 0.931 . S
C29 C25 1.374 . S
C29 C30 1.390 1_554 S
C29 H38 0.930 . S
C30 C26 1.391 . S
C30 C29 1.390 1_556 S
C30 H39 0.930 . S
C31 Eu1 2.825 . S
C31 O16 1.238 . S
C31 O17 1.247 1_565 S
C31 C25 1.507 1_565 S
H32 C5 0.930 . S
H33 C6 0.931 . S
H34 C7 0.930 . S
H35 C8 0.930 . S
H36 C27 0.930 . S
H37 C28 0.931 . S
H38 C29 0.930 . S
H39 C30 0.930 . S
Tb40 C50 2.825 1_655 S
Tb40 O51 2.347 . S
Tb40 O54 2.366 . S
Tb40 O59 2.418 1_655 S
Tb40 O60 2.384 . S
Tb40 O63 2.479 1_655 S
Tb40 O64 2.471 . S
Eu41 O52 2.418 . S
Eu41 O53 2.384 . S
Eu41 O56 2.479 . S
Eu41 O57 2.471 . S
Eu41 O58 2.347 . S
Eu41 O61 2.366 . S
Eu41 C71 2.825 . S
C42 O58 1.259 1_445 S
C42 O59 1.265 . S
C43 O60 1.255 . S
C43 O61 1.265 1_545 S
C44 C46 1.380 . S
C44 C47 1.374 1_455 S
C44 C50 1.507 . S
C45 C46 1.384 . S
C45 C49 1.387 . S
C45 H72 0.930 . S
C46 C44 1.380 . S
C46 C45 1.384 . S
C46 H73 0.931 . S
C47 C44 1.374 1_655 S
C47 C48 1.390 1_655 S
C47 H74 0.930 . S
C48 C47 1.390 1_455 S
C48 C49 1.391 . S
C48 H75 0.930 1_455 S
C49 C45 1.387 . S
C49 C48 1.391 . S
C50 Tb40 2.825 1_455 S
C50 C44 1.507 . S
C50 O63 1.238 . S
C50 O64 1.247 1_455 S
O51 Tb40 2.347 . S
O51 C55 1.259 1_545 S
O52 Eu41 2.418 . S
O52 C55 1.265 . S
O53 Eu41 2.384 . S
O53 C62 1.255 . S
O54 Tb40 2.366 . S
O54 C62 1.265 1_545 S
C55 O51 1.259 1_565 S
C55 O52 1.265 . S
O56 Eu41 2.479 . S
O56 C71 1.238 . S
O57 Eu41 2.471 . S
O57 C71 1.247 . S
O58 Eu41 2.347 . S
O58 C42 1.259 1_665 S
O59 Tb40 2.418 1_455 S
O59 C42 1.265 . S
O60 Tb40 2.384 . S
O60 C43 1.255 . S
O61 Eu41 2.366 . S
O61 C43 1.265 1_565 S
C62 O53 1.255 . S
C62 O54 1.265 1_565 S
O63 Tb40 2.479 1_455 S
O63 C50 1.238 . S
O64 Tb40 2.471 . S
O64 C50 1.247 1_655 S
C65 C68 1.380 . S
C65 C69 1.374 . S
C65 C71 1.507 . S
C66 C67 1.387 . S
C66 C70 1.391 . S
C67 C66 1.387 . S
C67 C68 1.384 . S
C67 H76 0.930 . S
C68 C65 1.380 . S
C68 C67 1.384 . S
C68 H77 0.931 . S
C69 C65 1.374 . S
C69 C70 1.390 . S
C69 H78 0.930 . S
C70 C66 1.391 . S
C70 C69 1.390 . S
C70 H79 0.930 . S
C71 Eu41 2.825 . S
C71 O56 1.238 . S
C71 O57 1.247 . S
C71 C65 1.507 . S
H72 C45 0.930 . S
H73 C46 0.931 . S
H74 C47 0.930 . S
H75 C48 0.930 1_655 S
H76 C67 0.930 . S
H77 C68 0.931 . S
H78 C69 0.930 . S
H79 C70 0.930 . S
Tb80 C90 2.825 . S
Tb80 O91 2.347 1_545 S
Tb80 O94 2.366 1_655 S
Tb80 O99 2.418 1_655 S
Tb80 O100 2.384 . S
Tb80 O103 2.479 . S
Tb80 O104 2.471 . S
Eu81 O92 2.418 1_455 S
Eu81 O93 2.384 . S
Eu81 O96 2.479 . S
Eu81 O97 2.471 . S
Eu81 O98 2.347 1_565 S
Eu81 O101 2.366 1_455 S
Eu81 C111 2.825 . S
C82 O98 1.259 . S
C82 O99 1.265 . S
C83 O100 1.255 . S
C83 O101 1.265 1_545 S
C84 C86 1.380 . S
C84 C87 1.374 . S
C84 C90 1.507 . S
C85 C86 1.384 . S
C85 C89 1.387 . S
C85 H112 0.930 . S
C86 C84 1.380 . S
C86 C85 1.384 . S
C86 H113 0.931 . S
C87 C84 1.374 . S
C87 C88 1.390 . S
C87 H114 0.930 1_545 S
C88 C87 1.390 . S
C88 C89 1.391 . S
C88 H115 0.930 . S
C89 C85 1.387 . S
C89 C88 1.391 . S
C90 Tb80 2.825 . S
C90 C84 1.507 . S
C90 O103 1.238 . S
C90 O104 1.247 . S
O91 Tb80 2.347 1_565 S
O91 C95 1.259 . S
O92 Eu81 2.418 1_655 S
O92 C95 1.265 . S
O93 Eu81 2.384 . S
O93 C102 1.255 . S
O94 Tb80 2.366 1_455 S
O94 C102 1.265 1_545 S
C95 O91 1.259 . S
C95 O92 1.265 . S
O96 Eu81 2.479 . S
O96 C111 1.238 . S
O97 Eu81 2.471 . S
O97 C111 1.247 . S
O98 Eu81 2.347 1_545 S
O98 C82 1.259 . S
O99 Tb80 2.418 1_455 S
O99 C82 1.265 . S
O100 Tb80 2.384 . S
O100 C83 1.255 . S
O101 Eu81 2.366 1_655 S
O101 C83 1.265 1_565 S
C102 O93 1.255 . S
C102 O94 1.265 1_565 S
O103 Tb80 2.479 . S
O103 C90 1.238 . S
O104 Tb80 2.471 . S
O104 C90 1.247 . S
C105 C108 1.380 . S
C105 C109 1.374 . S
C105 C111 1.507 . S
C106 C107 1.387 . S
C106 C110 1.391 . S
C107 C106 1.387 . S
C107 C108 1.384 . S
C107 H116 0.930 . S
C108 C105 1.380 . S
C108 C107 1.384 . S
C108 H117 0.931 . S
C109 C105 1.374 . S
C109 C110 1.390 . S
C109 H118 0.930 1_565 S
C110 C106 1.391 . S
C110 C109 1.390 . S
C110 H119 0.930 . S
C111 Eu81 2.825 . S
C111 O96 1.238 . S
C111 O97 1.247 . S
C111 C105 1.507 . S
H112 C85 0.930 . S
H113 C86 0.931 . S
H114 C87 0.930 1_565 S
H115 C88 0.930 . S
H116 C107 0.930 . S
H117 C108 0.931 . S
H118 C109 0.930 1_545 S
H119 C110 0.930 . S
C120 C121 1.369 . S
C120 C122 1.419 . S
C120 H124 0.930 . S
C121 C120 1.369 . S
C121 C130 1.429 1_455 S
C122 C120 1.419 . S
C122 C123 1.363 1_455 S
C122 H125 0.929 . S
C123 C122 1.363 1_655 S
C123 C129 1.428 . S
H124 C120 0.930 . S
H125 C122 0.929 . S
S126 N127 1.613 . S
S126 N128 1.610 . S
N127 S126 1.613 . S
N127 C130 1.350 . S
N128 S126 1.610 . S
N128 C129 1.351 . S
C129 C123 1.428 . S
C129 N128 1.351 . S
C129 C130 1.434 . S
C130 C121 1.429 1_655 S
C130 N127 1.350 . S
C130 C129 1.434 . S
C131 C132 1.369 1_565 S
C131 C133 1.419 . S
C131 H135 0.930 . S
C132 C131 1.369 1_545 S
C132 C141 1.429 . S
C133 C131 1.419 . S
C133 C134 1.363 . S
C133 H136 0.929 . S
C134 C133 1.363 . S
C134 C140 1.428 1_565 S
H135 C131 0.930 . S
H136 C133 0.929 . S
S137 N138 1.613 . S
S137 N139 1.610 . S
N138 S137 1.613 . S
N138 C141 1.350 . S
N139 S137 1.610 . S
N139 C140 1.351 . S
C140 C134 1.428 1_545 S
C140 N139 1.351 . S
C140 C141 1.434 . S
C141 C132 1.429 . S
C141 N138 1.350 . S
C141 C140 1.434 . S
C142 C143 1.369 . S
C142 C144 1.419 . S
C142 H146 0.930 . S
C143 C142 1.369 . S
C143 C152 1.429 . S
C144 C142 1.419 . S
C144 C145 1.363 . S
C144 H147 0.929 . S
C145 C144 1.363 . S
C145 C151 1.428 . S
H146 C142 0.930 . S
H147 C144 0.929 . S
S148 N149 1.613 . S
S148 N150 1.610 . S
N149 S148 1.613 . S
N149 C152 1.350 . S
N150 S148 1.610 . S
N150 C151 1.351 . S
C151 C145 1.428 . S
C151 N150 1.351 . S
C151 C152 1.434 . S
C152 C143 1.429 . S
C152 N149 1.350 . S
C152 C151 1.434 . S
C153 C154 1.369 . S
C153 C155 1.419 . S
C153 H157 0.930 . S
C154 C153 1.369 . S
C154 C163 1.429 . S
C155 C153 1.419 . S
C155 C156 1.363 . S
C155 H158 0.929 . S
C156 C155 1.363 . S
C156 C162 1.428 . S
H157 C153 0.930 . S
H158 C155 0.929 . S
S159 N160 1.613 . S
S159 N161 1.610 . S
N160 S159 1.613 . S
N160 C163 1.350 . S
N161 S159 1.610 . S
N161 C162 1.351 . S
C162 C156 1.428 . S
C162 N161 1.351 . S
C162 C163 1.434 . S
C163 C154 1.429 . S
C163 N160 1.350 . S
C163 C162 1.434 . S
C164 C165 1.369 . S
C164 C166 1.419 . S
C164 H168 0.930 . S
C165 C164 1.369 . S
C165 C174 1.429 . S
C166 C164 1.419 . S
C166 C167 1.363 . S
C166 H169 0.929 . S
C167 C166 1.363 . S
C167 C173 1.428 . S
H168 C164 0.930 . S
H169 C166 0.929 . S
S170 N171 1.613 . S
S170 N172 1.610 . S
N171 S170 1.613 . S
N171 C174 1.350 . S
N172 S170 1.610 . S
N172 C173 1.351 . S
C173 C167 1.428 . S
C173 N172 1.351 . S
C173 C174 1.434 . S
C174 C165 1.429 . S
C174 N171 1.350 . S
C174 C173 1.434 . S
C175 C176 1.369 . S
C175 C177 1.419 . S
C175 H179 0.930 . S
C176 C175 1.369 . S
C176 C185 1.429 1_565 S
C177 C175 1.419 . S
C177 C178 1.363 . S
C177 H180 0.929 . S
C178 C177 1.363 . S
C178 C184 1.428 1_565 S
H179 C175 0.930 . S
H180 C177 0.929 . S
S181 N182 1.613 . S
S181 N183 1.610 . S
N182 S181 1.613 . S
N182 C185 1.350 1_455 S
N183 S181 1.610 . S
N183 C184 1.351 1_455 S
C184 C178 1.428 1_545 S
C184 N183 1.351 1_655 S
C184 C185 1.434 . S
C185 C176 1.429 1_545 S
C185 N182 1.350 1_655 S
C185 C184 1.434 . S
C186 C187 1.369 1_655 S
C186 C188 1.419 . S
C186 H190 0.930 . S
C187 C186 1.369 1_455 S
C187 C196 1.429 . S
C188 C186 1.419 . S
C188 C189 1.363 1_556 S
C188 H191 0.929 . S
C189 C188 1.363 1_554 S
C189 C195 1.428 1_655 S
H190 C186 0.930 . S
H191 C188 0.929 . S
S192 N193 1.613 1_554 S
S192 N194 1.610 1_545 S
N193 S192 1.613 1_556 S
N193 C196 1.350 1_545 S
N194 S192 1.610 1_565 S
N194 C195 1.351 . S
C195 C189 1.428 1_455 S
C195 N194 1.351 . S
C195 C196 1.434 1_554 S
C196 C187 1.429 . S
C196 N193 1.350 1_565 S
C196 C195 1.434 1_556 S
C197 C198 1.369 . S
C197 C199 1.419 . S
C197 H201 0.930 . S
C198 C197 1.369 . S
C198 C207 1.429 . S
C199 C197 1.419 . S
C199 C200 1.363 . S
C199 H202 0.929 . S
C200 C199 1.363 . S
C200 C206 1.428 . S
H201 C197 0.930 . S
H202 C199 0.929 . S
S203 N204 1.613 . S
S203 N205 1.610 . S
N204 S203 1.613 . S
N204 C207 1.350 . S
N205 S203 1.610 . S
N205 C206 1.351 . S
C206 C200 1.428 . S
C206 N205 1.351 . S
C206 C207 1.434 . S
C207 C198 1.429 . S
C207 N204 1.350 . S
C207 C206 1.434 . S
C208 C209 1.369 . S
C208 C210 1.419 . S
C208 H212 0.930 . S
C209 C208 1.369 . S
C209 C218 1.429 . S
C210 C208 1.419 . S
C210 C211 1.363 . S
C210 H213 0.929 . S
C211 C210 1.363 . S
C211 C217 1.428 . S
H212 C208 0.930 . S
H213 C210 0.929 . S
S214 N215 1.613 . S
S214 N216 1.610 . S
N215 S214 1.613 . S
N215 C218 1.350 . S
N216 S214 1.610 . S
N216 C217 1.351 . S
C217 C211 1.428 . S
C217 N216 1.351 . S
C217 C218 1.434 . S
C218 C209 1.429 . S
C218 N215 1.350 . S
C218 C217 1.434 . S
C121 C2 1.928 1_445 S
C123 C15 1.932 1_655 S
C132 C55 2.007 1_545 S
C134 C42 2.011 1_565 S
C143 C82 1.620 . S
C145 C95 1.619 . S
C154 C89 1.034 . S
C156 C26 1.007 . S
C165 C43 2.199 . S
C167 C9 2.077 . S
C176 C83 2.770 1_565 S
C178 C62 2.689 . S
C187 C102 2.681 . S
C189 C3 2.607 . S
C198 C22 2.227 . S
C200 C66 2.049 . S
C209 C106 1.076 . S
C211 C49 1.165 . S
