# Generated by pormake.
# Topology pcu, (6)-cn, num edge types: 1
# Building blocks:
#     Node 0, Type 0, BuildingBlock: GEDQOX_clean_sbu_0, # of connection points: 6
#     Edge 1, Type (0, 0), BuildingBlock: TEMPAE_clean_linker_10, # of connection points: 2
#     Edge 2, Type (0, 0), BuildingBlock: TEMPAE_clean_linker_10, # of connection points: 2
#     Edge 3, Type (0, 0), BuildingBlock: TEMPAE_clean_linker_10, # of connection points: 2
# Relax obj value: 0.000
# Max RMSD: 0.000
# Mean RMSD: 0.000
data_MOF--net-pcu--node1-GEDQOX_clean_sbu_0--edge1-TEMPAE_clean_linker_10
_symmetry_space_group_name_H-M    P1
_symmetry_Int_Tables_number       1
_symmetry_cell_setting            triclinic
loop_
_symmetry_equiv_pos_as_xyz
'x, y, z'
_cell_length_a     15.748454
_cell_length_b     25.446626
_cell_length_c     14.70094
_cell_angle_alpha  83.729479
_cell_angle_beta   95.542218
_cell_angle_gamma 124.95116
loop_
_atom_site_label
_atom_site_type_symbol
_atom_site_fract_x
_atom_site_fract_y
_atom_site_fract_z
_atom_type_partial_charge
Nd0 Nd 0.08032 0.09132 0.02229 0.0
Nd1 Nd 0.94495 0.94762 0.99695 0.0
C2 C 0.15962 0.20791 0.07549 0.0
C3 C 0.13273 0.25512 0.06671 0.0
C4 C 0.17234 0.30094 0.132 0.0
C5 C 0.14971 0.34709 0.12369 0.0
C6 C 0.08712 0.34844 0.04961 0.0
C7 C 0.04661 0.30187 0.98475 0.0
C8 C 0.06889 0.25551 0.9934 0.0
C9 C 0.05561 0.06137 0.84364 0.0
C10 C 0.82629 1.01444 0.99647 0.0
C11 C 0.86109 0.82863 0.95174 0.0
C12 C 0.88858 0.78172 0.96151 0.0
C13 C 0.84019 0.73114 0.90324 0.0
C14 C 0.86412 0.68562 0.91217 0.0
C15 C 0.93697 0.68963 0.97988 0.0
C16 C 0.9865 0.74118 0.03741 0.0
C17 C 0.96265 0.78683 0.02819 0.0
C18 C 0.97007 0.98032 0.17419 0.0
C19 C 0.19943 1.02353 0.02223 0.0
O20 O 0.10085 0.15528 0.1266 0.0
O21 O 0.18438 0.19727 1.00055 0.0
O22 O 0.13898 0.11107 0.87731 0.0
O23 O 0.98472 0.03288 0.90063 0.0
O24 O 0.91328 0.0619 0.03383 0.0
O25 O 0.8216 0.96778 0.95976 0.0
O26 O 0.91665 0.87942 0.89658 0.0
O27 O 0.8415 0.84221 0.02696 0.0
O28 O 0.88289 0.93437 0.13861 0.0
O29 O 0.04136 1.00594 0.11789 0.0
O30 O 0.11044 0.97358 0.99177 0.0
O31 O 0.20724 0.07358 0.05085 0.0
H32 H 0.22164 0.30138 0.18912 0.0
H33 H 0.18291 0.38252 0.17439 0.0
H34 H 0.99699 0.30096 0.92763 0.0
H35 H 0.03669 0.22018 0.94262 0.0
H36 H 0.78357 0.72676 0.85078 0.0
H37 H 0.82596 0.64749 0.86542 0.0
H38 H 0.04232 0.74566 0.09077 0.0
H39 H 1.00138 0.82581 0.07358 0.0
C40 C 0.89717 0.97548 0.32023 0.0
C41 C 0.98411 0.99673 0.27032 0.0
C42 C 0.90763 0.98817 0.41269 0.0
C43 C 1.00735 1.02187 0.45685 0.0
C44 C 0.09565 0.04415 0.40632 0.0
C45 C 0.08303 0.03188 0.31323 0.0
C46 C 0.81177 0.96479 0.46341 0.0
C47 C 0.20314 0.07951 0.45116 0.0
C48 C 0.0476 0.0975 0.68066 0.0
C49 C 0.039 0.05024 0.74541 0.0
C50 C 0.03632 0.0887 0.58638 0.0
C51 C 0.01867 0.03196 0.55656 0.0
C52 C 1.01116 0.98447 0.62221 0.0
C53 C 0.02098 0.99415 0.71596 0.0
C54 C 0.04307 0.13995 0.51877 0.0
C55 C 0.99433 0.92386 0.59345 0.0
H56 H 0.82062 0.94883 0.28685 0.0
H57 H 0.15032 0.04831 0.27468 0.0
H58 H 0.80093 0.92866 0.51924 0.0
H59 H 0.82086 1.00529 0.49561 0.0
H60 H 0.74071 0.94269 0.4178 0.0
H61 H 0.26383 0.09456 0.40208 0.0
H62 H 0.2206 0.12282 0.4818 0.0
H63 H 0.20733 0.04826 0.50764 0.0
H64 H 0.06252 0.14118 0.70393 0.0
H65 H 0.01797 0.9588 0.76615 0.0
H66 H 0.97095 0.11899 0.47482 0.0
H67 H 0.10813 0.15901 0.473 0.0
H68 H 0.05488 0.18057 0.55315 0.0
H69 H 0.92079 0.89676 0.5519 0.0
H70 H 0.9912 0.89198 0.65302 0.0
H71 H 0.05791 0.93631 0.54978 0.0
C72 C 0.28193 0.96381 0.03975 0.0
C73 C 0.29188 1.02236 0.02343 0.0
C74 C 0.36783 0.96091 0.03683 0.0
C75 C 0.46515 1.01767 0.01412 0.0
C76 C 0.47539 0.07691 0.99699 0.0
C77 C 0.38873 0.07871 1.00337 0.0
C78 C 0.3545 0.89722 0.05856 0.0
C79 C 0.5773 0.13809 0.97013 0.0
C80 C 0.71281 0.02838 0.08118 0.0
C81 C 0.73216 1.01299 1.00053 0.0
C82 C 0.6247 0.02848 0.08723 0.0
C83 C 0.55662 1.01523 1.0095 0.0
C84 C 0.57638 1.00008 0.92748 0.0
C85 C 0.66324 0.99793 0.92454 0.0
C86 C 0.60437 0.04254 0.17684 0.0
C87 C 0.50711 0.98754 0.84245 0.0
H88 H 0.2069 0.92024 0.05569 0.0
H89 H 0.39589 0.1238 0.98959 0.0
H90 H 0.374 0.88361 0.99869 0.0
H91 H 0.40861 0.90137 0.11616 0.0
H92 H 0.2741 0.85795 0.0773 0.0
H93 H 0.5713 0.17967 0.95588 0.0
H94 H 0.63729 0.14964 0.02562 0.0
H95 H 0.60448 0.13156 0.90812 0.0
H96 H 0.76602 0.03938 0.14019 0.0
H97 H 0.67912 0.9865 0.8621 0.0
H98 H 0.52556 1.00315 0.19892 0.0
H99 H 0.60712 0.08733 0.16797 0.0
H100 H 0.66173 0.04813 0.2322 0.0
H101 H 0.42698 0.94571 0.85618 0.0
H102 H 0.53468 0.97797 0.78366 0.0
H103 H 0.50354 0.02962 0.82277 0.0
C104 C 0.06166 0.657 1.01085 0.0
C105 C 0.96006 0.63983 0.99082 0.0
C106 C 0.08402 0.61043 0.02114 0.0
C107 C 1.00306 0.54497 1.01079 0.0
C108 C 0.90045 0.52729 0.99061 0.0
C109 C 0.88021 0.57475 0.98121 0.0
C110 C 0.19447 0.63133 0.04273 0.0
C111 C 0.81183 0.45809 0.97906 0.0
C112 C 0.06953 0.43018 0.95389 0.0
C113 C 0.06519 0.39865 0.03965 0.0
C114 C 0.05022 0.4781 0.94365 0.0
C115 C 0.02547 0.49488 0.02093 0.0
C116 C 0.02079 0.46318 0.10766 0.0
C117 C 0.04087 0.41562 0.11599 0.0
C118 C 0.05646 0.51087 0.85006 0.0
C119 C 0.99402 0.47928 0.19166 0.0
H120 H 0.12423 0.70711 0.01727 0.0
H121 H 0.80119 0.56065 0.96735 0.0
H122 H 0.19884 0.60602 0.10752 0.0
H123 H 0.22124 0.61806 0.98786 0.0
H124 H 0.24839 0.68395 0.0496 0.0
H125 H 0.7366 0.45226 0.9629 0.0
H126 H 0.82733 0.43904 0.92318 0.0
H127 H 0.80482 0.42831 0.04269 0.0
H128 H 0.08963 0.41803 0.89478 0.0
H129 H 0.03614 0.39102 0.18229 0.0
H130 H 0.11509 0.56343 0.85218 0.0
H131 H 0.98084 0.50339 0.82924 0.0
H132 H 0.07738 0.49268 0.79701 0.0
H133 H 0.05008 0.53107 0.20303 0.0
H134 H 0.99457 0.45074 0.25427 0.0
H135 H 0.916 0.47013 0.18133 0.0
loop_
_geom_bond_atom_site_label_1
_geom_bond_atom_site_label_2
_geom_bond_distance
_geom_bond_site_symmetry_2
_ccdc_geom_bond_type
Nd0 C2 2.836 . S
Nd0 O20 2.500 1_556 S
Nd0 O21 2.492 . S
Nd0 O22 2.487 . S
Nd0 O23 2.682 1_445 S
Nd0 O24 2.410 1_455 S
Nd0 O29 2.414 1_556 S
Nd0 O31 2.424 . S
Nd1 C11 2.836 . S
Nd1 O23 2.414 1_554 S
Nd1 O25 2.424 . S
Nd1 O26 2.500 1_554 S
Nd1 O27 2.492 . S
Nd1 O28 2.487 . S
Nd1 O29 2.682 1_665 S
Nd1 O30 2.410 1_655 S
C2 Nd0 2.836 . S
C2 C3 1.498 . S
C2 O20 1.258 1_556 S
C2 O21 1.239 . S
C3 C2 1.498 . S
C3 C4 1.366 1_456 S
C3 C8 1.407 . S
C4 C3 1.366 1_654 S
C4 C5 1.392 . S
C4 H32 0.930 . S
C5 C4 1.392 . S
C5 C6 1.398 1_654 S
C5 H33 0.929 . S
C6 C5 1.398 1_456 S
C6 C7 1.352 . S
C7 C6 1.352 . S
C7 C8 1.384 . S
C7 H34 0.930 . S
C8 C3 1.407 . S
C8 C7 1.384 . S
C8 H35 0.929 . S
C9 O22 1.241 . S
C9 O23 1.273 1_445 S
C10 O24 1.251 1_565 S
C10 O25 1.268 1_556 S
C11 Nd1 2.836 . S
C11 C12 1.498 . S
C11 O26 1.258 1_554 S
C11 O27 1.239 . S
C12 C11 1.498 . S
C12 C13 1.366 1_654 S
C12 C17 1.407 . S
C13 C12 1.366 1_456 S
C13 C14 1.392 . S
C13 H36 0.930 . S
C14 C13 1.392 . S
C14 C15 1.398 1_456 S
C14 H37 0.929 . S
C15 C14 1.398 1_654 S
C15 C16 1.352 . S
C16 C15 1.352 . S
C16 C17 1.384 . S
C16 H38 0.930 . S
C17 C12 1.407 . S
C17 C16 1.384 . S
C17 H39 0.929 . S
C18 O28 1.241 . S
C18 O29 1.273 1_665 S
C19 O30 1.251 1_545 S
C19 O31 1.268 1_554 S
O20 Nd0 2.500 1_554 S
O20 C2 1.258 1_554 S
O21 Nd0 2.492 . S
O21 C2 1.239 . S
O22 Nd0 2.487 . S
O22 C9 1.241 . S
O23 Nd0 2.682 1_665 S
O23 Nd1 2.414 1_556 S
O23 C9 1.273 1_665 S
O24 Nd0 2.410 1_655 S
O24 C10 1.251 1_545 S
O25 Nd1 2.424 . S
O25 C10 1.268 1_554 S
O26 Nd1 2.500 1_556 S
O26 C11 1.258 1_556 S
O27 Nd1 2.492 . S
O27 C11 1.239 . S
O28 Nd1 2.487 . S
O28 C18 1.241 . S
O29 Nd0 2.414 1_554 S
O29 Nd1 2.682 1_445 S
O29 C18 1.273 1_445 S
O30 Nd1 2.410 1_455 S
O30 C19 1.251 1_565 S
O31 Nd0 2.424 . S
O31 C19 1.268 1_556 S
H32 C4 0.930 . S
H33 C5 0.929 . S
H34 C7 0.930 . S
H35 C8 0.929 . S
H36 C13 0.930 . S
H37 C14 0.929 . S
H38 C16 0.930 . S
H39 C17 0.929 . S
C40 C41 1.391 1_655 S
C40 C42 1.394 . S
C40 H56 0.931 . S
C41 C40 1.391 1_455 S
C41 C45 1.376 1_565 S
C42 C40 1.394 . S
C42 C43 1.369 1_655 S
C42 C46 1.531 . S
C43 C42 1.369 1_455 S
C43 C44 1.410 1_565 S
C43 C51 1.503 . S
C44 C43 1.410 1_545 S
C44 C45 1.392 . S
C44 C47 1.511 . S
C45 C41 1.376 1_545 S
C45 C44 1.392 . S
C45 H57 0.929 . S
C46 C42 1.531 . S
C46 H58 0.960 . S
C46 H59 0.962 . S
C46 H60 0.960 . S
C47 C44 1.511 . S
C47 H61 0.961 . S
C47 H62 0.961 . S
C47 H63 0.961 . S
C48 C49 1.370 1_645 S
C48 C50 1.363 . S
C48 H64 0.931 . S
C49 C48 1.370 1_465 S
C49 C53 1.408 . S
C50 C48 1.363 . S
C50 C51 1.370 1_645 S
C50 C54 1.524 . S
C51 C43 1.503 . S
C51 C50 1.370 1_465 S
C51 C52 1.403 . S
C52 C51 1.403 . S
C52 C53 1.404 . S
C52 C55 1.539 . S
C53 C49 1.408 . S
C53 C52 1.404 . S
C53 H65 0.930 . S
C54 C50 1.524 . S
C54 H66 0.956 . S
C54 H67 0.961 1_655 S
C54 H68 0.961 . S
C55 C52 1.539 . S
C55 H69 0.958 1_455 S
C55 H70 0.961 . S
C55 H71 0.960 . S
H56 C40 0.931 . S
H57 C45 0.929 . S
H58 C46 0.960 . S
H59 C46 0.962 . S
H60 C46 0.960 . S
H61 C47 0.961 . S
H62 C47 0.961 . S
H63 C47 0.961 . S
H64 C48 0.931 . S
H65 C53 0.930 . S
H66 C54 0.956 . S
H67 C54 0.961 1_455 S
H68 C54 0.961 . S
H69 C55 0.958 1_655 S
H70 C55 0.961 . S
H71 C55 0.960 . S
C72 C73 1.391 1_554 S
C72 C74 1.394 . S
C72 H88 0.931 . S
C73 C72 1.391 1_556 S
C73 C77 1.376 1_565 S
C74 C72 1.394 . S
C74 C75 1.369 1_554 S
C74 C78 1.531 . S
C75 C74 1.369 1_556 S
C75 C76 1.410 1_565 S
C75 C83 1.503 . S
C76 C75 1.410 1_545 S
C76 C77 1.392 . S
C76 C79 1.511 . S
C77 C73 1.376 1_545 S
C77 C76 1.392 . S
C77 H89 0.929 . S
C78 C74 1.531 . S
C78 H90 0.960 . S
C78 H91 0.962 . S
C78 H92 0.960 . S
C79 C76 1.511 . S
C79 H93 0.961 . S
C79 H94 0.961 . S
C79 H95 0.961 . S
C80 C81 1.357 1_544 S
C80 C82 1.363 . S
C80 H96 0.931 . S
C81 C80 1.357 1_566 S
C81 C85 1.412 . S
C82 C80 1.363 . S
C82 C83 1.370 1_544 S
C82 C86 1.524 . S
C83 C75 1.503 . S
C83 C82 1.370 1_566 S
C83 C84 1.403 . S
C84 C83 1.403 . S
C84 C85 1.404 . S
C84 C87 1.539 . S
C85 C81 1.412 . S
C85 C84 1.404 . S
C85 H97 0.930 . S
C86 C82 1.524 . S
C86 H98 0.956 . S
C86 H99 0.961 . S
C86 H100 0.961 . S
C87 C84 1.539 . S
C87 H101 0.958 . S
C87 H102 0.961 . S
C87 H103 0.960 . S
H88 C72 0.931 . S
H89 C77 0.929 . S
H90 C78 0.960 . S
H91 C78 0.962 . S
H92 C78 0.960 . S
H93 C79 0.961 . S
H94 C79 0.961 . S
H95 C79 0.961 . S
H96 C80 0.931 . S
H97 C85 0.930 . S
H98 C86 0.956 . S
H99 C86 0.961 . S
H100 C86 0.961 . S
H101 C87 0.958 . S
H102 C87 0.961 . S
H103 C87 0.960 . S
C104 C105 1.391 1_455 S
C104 C106 1.394 . S
C104 H120 0.931 . S
C105 C104 1.391 1_655 S
C105 C109 1.376 1_554 S
C106 C104 1.394 . S
C106 C107 1.369 1_455 S
C106 C110 1.531 . S
C107 C106 1.369 1_655 S
C107 C108 1.410 1_554 S
C107 C115 1.503 . S
C108 C107 1.410 1_556 S
C108 C109 1.392 . S
C108 C111 1.511 . S
C109 C105 1.376 1_556 S
C109 C108 1.392 . S
C109 H121 0.929 . S
C110 C106 1.531 . S
C110 H122 0.960 . S
C110 H123 0.962 . S
C110 H124 0.960 . S
C111 C108 1.511 . S
C111 H125 0.961 . S
C111 H126 0.961 . S
C111 H127 0.961 . S
C112 C113 1.370 1_456 S
C112 C114 1.363 . S
C112 H128 0.931 . S
C113 C112 1.370 1_654 S
C113 C117 1.408 . S
C114 C112 1.363 . S
C114 C115 1.370 1_456 S
C114 C118 1.524 . S
C115 C107 1.503 . S
C115 C114 1.370 1_654 S
C115 C116 1.403 . S
C116 C115 1.403 . S
C116 C117 1.404 . S
C116 C119 1.539 . S
C117 C113 1.408 . S
C117 C116 1.404 . S
C117 H129 0.930 . S
C118 C114 1.524 . S
C118 H130 0.956 . S
C118 H131 0.961 . S
C118 H132 0.961 . S
C119 C116 1.539 . S
C119 H133 0.958 . S
C119 H134 0.961 . S
C119 H135 0.960 . S
H120 C104 0.931 . S
H121 C109 0.929 . S
H122 C110 0.960 . S
H123 C110 0.962 . S
H124 C110 0.960 . S
H125 C111 0.961 . S
H126 C111 0.961 . S
H127 C111 0.961 . S
H128 C112 0.931 . S
H129 C117 0.930 . S
H130 C118 0.956 . S
H131 C118 0.961 . S
H132 C118 0.961 . S
H133 C119 0.958 . S
H134 C119 0.961 . S
H135 C119 0.960 . S
C41 C18 1.425 1_455 S
C49 C9 1.460 1_565 S
C73 C19 1.500 1_566 S
C81 C10 1.498 . S
C105 C15 1.488 . S
C113 C6 1.500 1_654 S
