# Generated by pormake.
# Topology lon, (4)-cn, num edge types: 1
# Building blocks:
#     Node 0, Type 0, BuildingBlock: GALJAG_clean_sbu_0, # of connection points: 4
#     Node 1, Type 0, BuildingBlock: GALJAG_clean_sbu_0, # of connection points: 4
#     Node 2, Type 0, BuildingBlock: GALJAG_clean_sbu_0, # of connection points: 4
#     Node 3, Type 0, BuildingBlock: GALJAG_clean_sbu_0, # of connection points: 4
#     Edge 4, Type (0, 0), BuildingBlock: CIFDUS_clean_linker_0, # of connection points: 2
#     Edge 5, Type (0, 0), BuildingBlock: CIFDUS_clean_linker_0, # of connection points: 2
#     Edge 6, Type (0, 0), BuildingBlock: CIFDUS_clean_linker_0, # of connection points: 2
#     Edge 7, Type (0, 0), BuildingBlock: CIFDUS_clean_linker_0, # of connection points: 2
#     Edge 8, Type (0, 0), BuildingBlock: CIFDUS_clean_linker_0, # of connection points: 2
#     Edge 9, Type (0, 0), BuildingBlock: CIFDUS_clean_linker_0, # of connection points: 2
#     Edge 10, Type (0, 0), BuildingBlock: CIFDUS_clean_linker_0, # of connection points: 2
#     Edge 11, Type (0, 0), BuildingBlock: CIFDUS_clean_linker_0, # of connection points: 2
# Relax obj value: 0.209
# Max RMSD: 0.226
# Mean RMSD: 0.214
data_MOF--net-lon--node1-GALJAG_clean_sbu_0--edge1-CIFDUS_clean_linker_0
_symmetry_space_group_name_H-M    P1
_symmetry_Int_Tables_number       1
_symmetry_cell_setting            triclinic
loop_
_symmetry_equiv_pos_as_xyz
'x, y, z'
_cell_length_a     20.307136
_cell_length_b     22.128247
_cell_length_c     36.001446
_cell_angle_alpha  96.59046
_cell_angle_beta   89.996267
_cell_angle_gamma 117.10653
loop_
_atom_site_label
_atom_site_type_symbol
_atom_site_fract_x
_atom_site_fract_y
_atom_site_fract_z
_atom_type_partial_charge
In0 In 0.37232 0.70974 0.05813 0.0
O1 O 0.26597 0.68143 0.0227 0.0
O2 O 0.26775 0.60912 0.05625 0.0
C3 C 0.43402 0.83709 0.03644 0.0
C4 C 0.35858 0.71819 0.13271 0.0
C5 C 0.45122 0.64333 0.03468 0.0
O6 O 0.42524 0.78468 0.01483 0.0
O7 O 0.41177 0.82528 0.06867 0.0
O8 O 0.47387 0.69032 0.0621 0.0
O9 O 0.39061 0.63174 0.01882 0.0
C10 C 0.23133 0.62299 0.03334 0.0
O11 O 0.4114 0.71095 0.11789 0.0
O12 O 0.31408 0.72246 0.10998 0.0
In13 In 0.64015 0.3386 0.55741 0.0
O14 O 0.54441 0.23509 0.53406 0.0
O15 O 0.65226 0.24271 0.53761 0.0
C16 C 0.57382 0.41231 0.53694 0.0
C17 C 0.62779 0.32271 0.63075 0.0
C18 C 0.77747 0.41577 0.53527 0.0
O19 O 0.56825 0.35925 0.51697 0.0
O20 O 0.61273 0.42803 0.56714 0.0
O21 O 0.75993 0.42078 0.56866 0.0
O22 O 0.72556 0.37195 0.51284 0.0
C23 C 0.58432 0.20517 0.52889 0.0
O24 O 0.68389 0.32862 0.61339 0.0
O25 O 0.57762 0.32483 0.61113 0.0
In26 In 0.30672 0.67402 0.42386 0.0
O27 O 0.39971 0.77606 0.45096 0.0
O28 O 0.29525 0.77168 0.43894 0.0
C29 C 0.16614 0.60285 0.44355 0.0
C30 C 0.33681 0.68884 0.35143 0.0
C31 C 0.36317 0.59486 0.44757 0.0
O32 O 0.18465 0.59851 0.41027 0.0
O33 O 0.21851 0.64306 0.46684 0.0
O34 O 0.32412 0.57881 0.41739 0.0
O35 O 0.37349 0.65083 0.46604 0.0
C36 C 0.36127 0.80763 0.45179 0.0
O37 O 0.38181 0.68769 0.37508 0.0
O38 O 0.27644 0.68234 0.36424 0.0
In39 In 0.67462 0.31356 0.92385 0.0
O40 O 0.72182 0.30264 0.86756 0.0
O41 O 0.61942 0.30698 0.86728 0.0
C42 C 0.81784 0.39912 0.94512 0.0
C43 C 0.59881 0.38091 0.95099 0.0
C44 C 0.61952 0.18706 0.94623 0.0
O45 O 0.7807 0.4123 0.92225 0.0
O46 O 0.78286 0.34216 0.9573 0.0
O47 O 0.62155 0.23808 0.96673 0.0
O48 O 0.64556 0.19987 0.91473 0.0
C49 C 0.66979 0.30259 0.8484 0.0
O50 O 0.6626 0.39513 0.96388 0.0
O51 O 0.57218 0.33134 0.92503 0.0
H52 H 0.44598 0.70992 0.1871 0.0
H53 H 0.24457 0.72569 0.16899 0.0
H54 H 0.22052 0.71884 0.23515 0.0
H55 H 0.25462 0.70499 0.29779 0.0
H56 H 0.45635 0.69013 0.31636 0.0
H57 H 0.48237 0.70003 0.25044 0.0
C58 C 0.39708 0.71224 0.19772 0.0
C59 C 0.34706 0.71811 0.17319 0.0
C60 C 0.38346 0.70813 0.23583 0.0
C61 C 0.28396 0.72116 0.18731 0.0
C62 C 0.27004 0.7171 0.22513 0.0
C63 C 0.30432 0.70402 0.2874 0.0
C64 C 0.35327 0.6965 0.31181 0.0
C65 C 0.31904 0.70998 0.24956 0.0
C66 C 0.41771 0.69577 0.29806 0.0
C67 C 0.43262 0.70139 0.26038 0.0
H68 H 0.72589 0.31091 0.67656 0.0
H69 H 0.517 0.31789 0.67516 0.0
H70 H 0.51013 0.30974 0.74235 0.0
H71 H 0.56562 0.30435 0.80182 0.0
H72 H 0.77472 0.29763 0.80289 0.0
H73 H 0.77915 0.30159 0.73541 0.0
C74 C 0.67875 0.31044 0.69094 0.0
C75 C 0.62223 0.31532 0.67101 0.0
C76 C 0.67522 0.30581 0.72948 0.0
C77 C 0.56131 0.31433 0.68994 0.0
C78 C 0.55736 0.30972 0.72834 0.0
C79 C 0.61191 0.30335 0.78722 0.0
C80 C 0.66984 0.30091 0.8073 0.0
C81 C 0.61429 0.30595 0.74844 0.0
C82 C 0.72945 0.29956 0.78805 0.0
C83 C 0.73211 0.30195 0.74949 0.0
H84 H 0.40221 0.53202 0.98237 0.0
H85 H 0.58619 0.66171 0.06124 0.0
H86 H 0.64749 0.59074 0.04287 0.0
H87 H 0.6485 0.49186 0.00423 0.0
H88 H 0.46339 0.36206 0.92592 0.0
H89 H 0.40242 0.43289 0.94451 0.0
C90 C 0.45589 0.54498 -0.00454 0.0
C91 C 0.48984 0.60221 0.02299 0.0
C92 C 0.49028 0.5037 0.98503 0.0
C93 C 0.55909 0.61802 0.03988 0.0
C94 C 0.59403 0.5774 0.02945 0.0
C95 C 0.59464 0.4789 -0.00862 0.0
C96 C 0.56043 0.42175 0.96377 0.0
C97 C 0.56004 0.52003 0.0021 0.0
C98 C 0.49077 0.40567 0.9473 0.0
C99 C 0.45598 0.44625 0.95783 0.0
H100 H 0.11432 0.60722 0.51271 0.0
H101 H 0.04568 0.51063 0.39875 0.0
H102 H 0.91894 0.44474 0.41692 0.0
H103 H 0.82793 0.4136 0.46542 0.0
H104 H 0.8971 0.5106 0.57931 0.0
H105 H 0.02324 0.57738 0.56091 0.0
C106 C 0.0716 0.57179 0.49185 0.0
C107 C 0.08936 0.5637 0.45448 0.0
C108 C -0.00105 0.53415 0.50247 0.0
C109 C 0.03341 0.51773 0.42773 0.0
C110 C 0.96094 0.48003 0.43809 0.0
C111 C 0.87061 0.44947 0.48617 0.0
C112 C 0.85324 0.45707 0.52366 0.0
C113 C 0.94312 0.48769 0.4754 0.0
C114 C 0.90906 0.50378 0.55025 0.0
C115 C 0.98124 0.54196 0.53977 0.0
H116 H 0.56297 0.1483 0.01293 0.0
H117 H 0.60587 0.07002 0.90527 0.0
H118 H 0.55242 0.95486 0.92354 0.0
H119 H 0.4924 0.87597 0.96998 0.0
H120 H 0.45046 0.95463 0.07778 0.0
H121 H 0.50448 0.06979 0.0596 0.0
C122 C 0.56069 0.10604 -0.0065 0.0
C123 C 0.58825 0.1177 0.95779 0.0
C124 C 0.52992 0.03991 0.00419 0.0
C125 C 0.58502 0.06243 0.93294 0.0
C126 C 0.5544 0.99651 0.94335 0.0
C127 C 0.49512 0.91834 0.98946 0.0
C128 C 0.46732 0.90671 0.02513 0.0
C129 C 0.52649 0.98459 0.97886 0.0
C130 C 0.47143 0.96218 0.05013 0.0
C131 C 0.50231 0.02809 0.03977 0.0
H132 H 0.48483 0.38614 0.47467 0.0
H133 H 0.58273 0.53021 0.57447 0.0
H134 H 0.5253 0.59895 0.55597 0.0
H135 H 0.44858 0.61899 0.511 0.0
H136 H 0.35054 0.47476 0.41126 0.0
H137 H 0.40651 0.40519 0.43023 0.0
C138 C 0.49351 0.43255 0.49237 0.0
C139 C 0.53808 0.45314 0.52582 0.0
C140 C 0.46029 0.4718 0.48159 0.0
C141 C 0.5487 0.51329 0.54854 0.0
C142 C 0.5159 0.55264 0.53799 0.0
C143 C 0.43934 0.57224 0.49348 0.0
C144 C 0.39561 0.55212 0.45977 0.0
C145 C 0.47178 0.53251 0.50452 0.0
C146 C 0.38404 0.49139 0.43736 0.0
C147 C 0.41607 0.45159 0.44815 0.0
H148 H 0.14232 0.63827 0.98269 0.0
H149 H 0.14806 0.49725 0.05453 0.0
H150 H 0.02111 0.41512 0.03328 0.0
H151 H 0.90793 0.38341 -0.00535 0.0
H152 H 0.9017 0.52403 0.92269 0.0
H153 H 0.02918 0.60599 0.94351 0.0
C154 C 0.11569 0.58957 -0.00634 0.0
C155 C 0.15443 0.57394 0.02016 0.0
C156 C 0.04259 0.5424 0.98128 0.0
C157 C 0.11937 0.51057 0.03411 0.0
C158 C 0.04676 0.4635 0.02198 0.0
C159 C 0.93457 0.43193 0.98348 0.0
C160 C 0.8955 0.44764 0.95722 0.0
C161 C 0.0078 0.47888 -0.00439 0.0
C162 C 0.93066 0.51071 0.94297 0.0
C163 C 0.00353 0.55766 0.95487 0.0
H164 H 0.44145 0.11584 0.50649 0.0
H165 H 0.65929 0.12961 0.51957 0.0
H166 H 0.60934 1.00762 0.49741 0.0
H167 H 0.50379 0.89692 0.47444 0.0
H168 H 0.28619 0.88326 0.46051 0.0
H169 H 0.33597 1.00521 0.48296 0.0
C170 C 0.47796 0.09212 0.50442 0.0
C171 C 0.55391 0.13166 0.51465 0.0
C172 C 0.4489 0.02195 0.4916 0.0
C173 C 0.6006 0.10028 0.51181 0.0
C174 C 0.57209 0.03051 0.4992 0.0
C175 C 0.46727 0.92063 0.47641 0.0
C176 C 0.39144 0.88114 0.46593 0.0
C177 C 0.49633 0.99083 0.48908 0.0
C178 C 0.34481 0.91259 0.46845 0.0
C179 C 0.37321 0.98231 0.48126 0.0
loop_
_geom_bond_atom_site_label_1
_geom_bond_atom_site_label_2
_geom_bond_distance
_geom_bond_site_symmetry_2
_ccdc_geom_bond_type
In0 O1 2.294 . S
In0 O2 2.326 . S
In0 O6 2.266 . S
In0 O7 2.326 . S
In0 O8 2.266 . S
In0 O9 2.326 . S
In0 O11 2.294 . S
In0 O12 2.326 . S
O1 In0 2.294 . S
O1 C10 1.240 . S
O2 In0 2.326 . S
O2 C10 1.252 . S
C3 O6 1.252 . S
C3 O7 1.260 . S
C4 O11 1.240 . S
C4 O12 1.252 . S
C5 O8 1.252 . S
C5 O9 1.260 . S
O6 In0 2.266 . S
O6 C3 1.252 . S
O7 In0 2.326 . S
O7 C3 1.260 . S
O8 In0 2.266 . S
O8 C5 1.252 . S
O9 In0 2.326 . S
O9 C5 1.260 . S
C10 O1 1.240 . S
C10 O2 1.252 . S
O11 In0 2.294 . S
O11 C4 1.240 . S
O12 In0 2.326 . S
O12 C4 1.252 . S
In13 O14 2.294 . S
In13 O15 2.326 . S
In13 O19 2.266 . S
In13 O20 2.326 . S
In13 O21 2.266 . S
In13 O22 2.326 . S
In13 O24 2.294 . S
In13 O25 2.326 . S
O14 In13 2.294 . S
O14 C23 1.240 . S
O15 In13 2.326 . S
O15 C23 1.252 . S
C16 O19 1.252 . S
C16 O20 1.260 . S
C17 O24 1.240 . S
C17 O25 1.252 . S
C18 O21 1.252 . S
C18 O22 1.260 . S
O19 In13 2.266 . S
O19 C16 1.252 . S
O20 In13 2.326 . S
O20 C16 1.260 . S
O21 In13 2.266 . S
O21 C18 1.252 . S
O22 In13 2.326 . S
O22 C18 1.260 . S
C23 O14 1.240 . S
C23 O15 1.252 . S
O24 In13 2.294 . S
O24 C17 1.240 . S
O25 In13 2.326 . S
O25 C17 1.252 . S
In26 O27 2.294 . S
In26 O28 2.326 . S
In26 O32 2.266 . S
In26 O33 2.326 . S
In26 O34 2.266 . S
In26 O35 2.326 . S
In26 O37 2.294 . S
In26 O38 2.326 . S
O27 In26 2.294 . S
O27 C36 1.240 . S
O28 In26 2.326 . S
O28 C36 1.252 . S
C29 O32 1.252 . S
C29 O33 1.260 . S
C30 O37 1.240 . S
C30 O38 1.252 . S
C31 O34 1.252 . S
C31 O35 1.260 . S
O32 In26 2.266 . S
O32 C29 1.252 . S
O33 In26 2.326 . S
O33 C29 1.260 . S
O34 In26 2.266 . S
O34 C31 1.252 . S
O35 In26 2.326 . S
O35 C31 1.260 . S
C36 O27 1.240 . S
C36 O28 1.252 . S
O37 In26 2.294 . S
O37 C30 1.240 . S
O38 In26 2.326 . S
O38 C30 1.252 . S
In39 O40 2.294 . S
In39 O41 2.326 . S
In39 O45 2.266 . S
In39 O46 2.326 . S
In39 O47 2.266 . S
In39 O48 2.326 . S
In39 O50 2.294 . S
In39 O51 2.326 . S
O40 In39 2.294 . S
O40 C49 1.240 . S
O41 In39 2.326 . S
O41 C49 1.252 . S
C42 O45 1.252 . S
C42 O46 1.260 . S
C43 O50 1.240 . S
C43 O51 1.252 . S
C44 O47 1.252 . S
C44 O48 1.260 . S
O45 In39 2.266 . S
O45 C42 1.252 . S
O46 In39 2.326 . S
O46 C42 1.260 . S
O47 In39 2.266 . S
O47 C44 1.252 . S
O48 In39 2.326 . S
O48 C44 1.260 . S
C49 O40 1.240 . S
C49 O41 1.252 . S
O50 In39 2.294 . S
O50 C43 1.240 . S
O51 In39 2.326 . S
O51 C43 1.252 . S
H52 C58 0.930 . S
H53 C61 0.930 . S
H54 C62 0.930 . S
H55 C63 0.930 . S
H56 C66 0.930 . S
H57 C67 0.930 . S
C58 H52 0.930 . S
C58 C59 1.355 . S
C58 C60 1.415 . S
C59 C58 1.355 . S
C59 C61 1.419 . S
C60 C58 1.415 . S
C60 C65 1.425 . S
C60 C67 1.409 . S
C61 H53 0.930 . S
C61 C59 1.419 . S
C61 C62 1.362 . S
C62 H54 0.930 . S
C62 C61 1.362 . S
C62 C65 1.409 . S
C63 H55 0.930 . S
C63 C64 1.355 . S
C63 C65 1.415 . S
C64 C63 1.355 . S
C64 C66 1.419 . S
C65 C60 1.425 . S
C65 C62 1.409 . S
C65 C63 1.415 . S
C66 H56 0.930 . S
C66 C64 1.419 . S
C66 C67 1.362 . S
C67 H57 0.930 . S
C67 C60 1.409 . S
C67 C66 1.362 . S
H68 C74 0.930 . S
H69 C77 0.930 . S
H70 C78 0.930 . S
H71 C79 0.930 . S
H72 C82 0.930 . S
H73 C83 0.930 . S
C74 H68 0.930 . S
C74 C75 1.355 . S
C74 C76 1.415 . S
C75 C74 1.355 . S
C75 C77 1.419 . S
C76 C74 1.415 . S
C76 C81 1.425 . S
C76 C83 1.409 . S
C77 H69 0.930 . S
C77 C75 1.419 . S
C77 C78 1.362 . S
C78 H70 0.930 . S
C78 C77 1.362 . S
C78 C81 1.409 . S
C79 H71 0.930 . S
C79 C80 1.355 . S
C79 C81 1.415 . S
C80 C79 1.355 . S
C80 C82 1.419 . S
C81 C76 1.425 . S
C81 C78 1.409 . S
C81 C79 1.415 . S
C82 H72 0.930 . S
C82 C80 1.419 . S
C82 C83 1.362 . S
C83 H73 0.930 . S
C83 C76 1.409 . S
C83 C82 1.362 . S
H84 C90 0.930 . S
H85 C93 0.930 . S
H86 C94 0.930 . S
H87 C95 0.930 1_554 S
H88 C98 0.930 . S
H89 C99 0.930 . S
C90 H84 0.930 . S
C90 C91 1.355 1_556 S
C90 C92 1.415 . S
C91 C90 1.355 1_554 S
C91 C93 1.419 . S
C92 C90 1.415 . S
C92 C97 1.425 . S
C92 C99 1.409 . S
C93 H85 0.930 . S
C93 C91 1.419 . S
C93 C94 1.362 . S
C94 H86 0.930 . S
C94 C93 1.362 . S
C94 C97 1.409 1_554 S
C95 H87 0.930 1_556 S
C95 C96 1.355 . S
C95 C97 1.415 . S
C96 C95 1.355 . S
C96 C98 1.419 . S
C97 C92 1.425 . S
C97 C94 1.409 1_556 S
C97 C95 1.415 . S
C98 H88 0.930 . S
C98 C96 1.419 . S
C98 C99 1.362 . S
C99 H89 0.930 . S
C99 C92 1.409 . S
C99 C98 1.362 . S
H100 C106 0.930 . S
H101 C109 0.930 . S
H102 C110 0.930 . S
H103 C111 0.930 . S
H104 C114 0.930 . S
H105 C115 0.930 . S
C106 H100 0.930 . S
C106 C107 1.355 . S
C106 C108 1.415 1_455 S
C107 C106 1.355 . S
C107 C109 1.419 . S
C108 C106 1.415 1_655 S
C108 C113 1.425 . S
C108 C115 1.409 . S
C109 H101 0.930 . S
C109 C107 1.419 . S
C109 C110 1.362 1_455 S
C110 H102 0.930 . S
C110 C109 1.362 1_655 S
C110 C113 1.409 . S
C111 H103 0.930 . S
C111 C112 1.355 . S
C111 C113 1.415 . S
C112 C111 1.355 . S
C112 C114 1.419 . S
C113 C108 1.425 . S
C113 C110 1.409 . S
C113 C111 1.415 . S
C114 H104 0.930 . S
C114 C112 1.419 . S
C114 C115 1.362 . S
C115 H105 0.930 . S
C115 C108 1.409 . S
C115 C114 1.362 . S
H116 C122 0.930 . S
H117 C125 0.930 . S
H118 C126 0.930 . S
H119 C127 0.923 1_556 S
H120 C130 0.930 . S
H121 C131 0.930 . S
C122 H116 0.930 . S
C122 C123 1.355 1_554 S
C122 C124 1.415 . S
C123 C122 1.355 1_556 S
C123 C125 1.419 . S
C124 C122 1.415 . S
C124 C129 1.425 1_544 S
C124 C131 1.409 . S
C125 H117 0.930 . S
C125 C123 1.419 . S
C125 C126 1.362 1_545 S
C126 H118 0.930 . S
C126 C125 1.362 1_565 S
C126 C129 1.409 . S
C127 H119 0.923 1_554 S
C127 C128 1.366 . S
C127 C129 1.409 1_554 S
C128 C127 1.366 . S
C128 C130 1.419 . S
C129 C124 1.425 1_566 S
C129 C126 1.409 . S
C129 C127 1.409 1_556 S
C130 H120 0.930 . S
C130 C128 1.419 . S
C130 C131 1.362 1_565 S
C131 H121 0.930 . S
C131 C124 1.409 . S
C131 C130 1.362 1_545 S
H132 C138 0.930 . S
H133 C141 0.930 . S
H134 C142 0.930 . S
H135 C143 0.930 . S
H136 C146 0.930 . S
H137 C147 0.930 . S
C138 H132 0.930 . S
C138 C139 1.355 . S
C138 C140 1.415 . S
C139 C138 1.355 . S
C139 C141 1.419 . S
C140 C138 1.415 . S
C140 C145 1.425 . S
C140 C147 1.409 . S
C141 H133 0.930 . S
C141 C139 1.419 . S
C141 C142 1.362 . S
C142 H134 0.930 . S
C142 C141 1.362 . S
C142 C145 1.409 . S
C143 H135 0.930 . S
C143 C144 1.355 . S
C143 C145 1.415 . S
C144 C143 1.355 . S
C144 C146 1.419 . S
C145 C140 1.425 . S
C145 C142 1.409 . S
C145 C143 1.415 . S
C146 H136 0.930 . S
C146 C144 1.419 . S
C146 C147 1.362 . S
C147 H137 0.930 . S
C147 C140 1.409 . S
C147 C146 1.362 . S
H148 C154 0.930 . S
H149 C157 0.930 . S
H150 C158 0.930 . S
H151 C159 0.930 . S
H152 C162 0.930 . S
H153 C163 0.930 . S
C154 H148 0.930 . S
C154 C155 1.355 . S
C154 C156 1.415 . S
C155 C154 1.355 . S
C155 C157 1.419 . S
C156 C154 1.415 . S
C156 C161 1.425 . S
C156 C163 1.409 1_454 S
C157 H149 0.930 . S
C157 C155 1.419 . S
C157 C158 1.362 . S
C158 H150 0.930 . S
C158 C157 1.362 . S
C158 C161 1.409 . S
C159 H151 0.930 . S
C159 C160 1.355 1_554 S
C159 C161 1.415 1_655 S
C160 C159 1.355 1_556 S
C160 C162 1.419 . S
C161 C156 1.425 . S
C161 C158 1.409 . S
C161 C159 1.415 1_455 S
C162 H152 0.930 . S
C162 C160 1.419 . S
C162 C163 1.362 . S
C163 H153 0.930 . S
C163 C156 1.409 1_656 S
C163 C162 1.362 . S
H164 C170 0.930 . S
H165 C173 0.930 . S
H166 C174 0.930 1_565 S
H167 C175 0.930 . S
H168 C178 0.930 . S
H169 C179 0.930 1_545 S
C170 H164 0.930 . S
C170 C171 1.355 . S
C170 C172 1.415 . S
C171 C170 1.355 . S
C171 C173 1.419 . S
C172 C170 1.415 . S
C172 C177 1.425 1_545 S
C172 C179 1.409 1_545 S
C173 H165 0.930 . S
C173 C171 1.419 . S
C173 C174 1.362 . S
C174 H166 0.930 1_545 S
C174 C173 1.362 . S
C174 C177 1.409 1_545 S
C175 H167 0.930 . S
C175 C176 1.355 . S
C175 C177 1.415 . S
C176 C175 1.355 . S
C176 C178 1.419 . S
C177 C172 1.425 1_565 S
C177 C174 1.409 1_565 S
C177 C175 1.415 . S
C178 H168 0.930 . S
C178 C176 1.419 . S
C178 C179 1.362 . S
C179 H169 0.930 1_565 S
C179 C172 1.409 1_565 S
C179 C178 1.362 . S
C59 C4 1.602 . S
C64 C30 1.573 . S
C75 C17 1.601 . S
C80 C49 1.585 . S
C91 C5 1.449 . S
C96 C43 1.495 . S
C107 C29 1.685 . S
C112 C18 1.667 . S
C123 C44 1.873 . S
C128 C3 1.854 . S
C139 C16 1.695 . S
C144 C31 1.688 . S
C155 C10 1.496 . S
C160 C42 1.449 . S
C171 C23 1.323 . S
C176 C36 1.320 . S
