# Generated by pormake.
# Topology smk, (6)-cn, num edge types: 1
# Building blocks:
#     Node 0, Type 0, BuildingBlock: JUFBIX_clean_sbu_0, # of connection points: 6
#     Node 1, Type 0, BuildingBlock: JUFBIX_clean_sbu_0, # of connection points: 6
#     Node 2, Type 0, BuildingBlock: JUFBIX_clean_sbu_0, # of connection points: 6
#     Node 3, Type 0, BuildingBlock: JUFBIX_clean_sbu_0, # of connection points: 6
#     Node 4, Type 0, BuildingBlock: JUFBIX_clean_sbu_0, # of connection points: 6
#     Node 5, Type 0, BuildingBlock: JUFBIX_clean_sbu_0, # of connection points: 6
#     Edge 6, Type (0, 0), None
#     Edge 7, Type (0, 0), None
#     Edge 8, Type (0, 0), None
#     Edge 9, Type (0, 0), None
#     Edge 10, Type (0, 0), None
#     Edge 11, Type (0, 0), None
#     Edge 12, Type (0, 0), None
#     Edge 13, Type (0, 0), None
#     Edge 14, Type (0, 0), None
#     Edge 15, Type (0, 0), None
#     Edge 16, Type (0, 0), None
#     Edge 17, Type (0, 0), None
#     Edge 18, Type (0, 0), None
#     Edge 19, Type (0, 0), None
#     Edge 20, Type (0, 0), None
#     Edge 21, Type (0, 0), None
#     Edge 22, Type (0, 0), None
#     Edge 23, Type (0, 0), None
# Relax obj value: 0.473
# Max RMSD: 0.265
# Mean RMSD: 0.265
data_MOF--net-smk--node1-JUFBIX_clean_sbu_0--edge1-none
_symmetry_space_group_name_H-M    P1
_symmetry_Int_Tables_number       1
_symmetry_cell_setting            triclinic
loop_
_symmetry_equiv_pos_as_xyz
'x, y, z'
_cell_length_a     22.990824
_cell_length_b     22.991955
_cell_length_c     6.481935
_cell_angle_alpha  90.012515
_cell_angle_beta   89.974897
_cell_angle_gamma 120.00516
loop_
_atom_site_label
_atom_site_type_symbol
_atom_site_fract_x
_atom_site_fract_y
_atom_site_fract_z
_atom_type_partial_charge
Co0 Co 0.49199 0.24787 0.47227 0.0
C1 C 0.47225 0.11948 0.48675 0.0
Co2 Co 0.58826 0.24678 0.47612 0.0
C3 C 0.40266 0.29595 0.58932 0.0
C4 C 0.35185 0.20612 0.40795 0.0
N5 N 0.41323 0.25213 0.47872 0.0
N6 N 0.3373 0.27815 0.59238 0.0
C7 C 0.30473 0.22161 0.48017 0.0
H8 H 0.44118 0.33717 0.67773 0.0
H9 H 0.34144 0.16208 0.31929 0.0
C10 C 0.60722 0.37386 0.42217 0.0
N11 N 0.66722 0.24235 0.49817 0.0
C12 C 0.72126 0.2836 0.61545 0.0
C13 C 0.67395 0.18807 0.46388 0.0
N14 N 0.76004 0.25637 0.65999 0.0
C15 C 0.73045 0.19631 0.56398 0.0
C16 C 0.53924 0.24507 0.08601 0.0
O17 O 0.54368 0.34306 0.44579 0.0
O18 O 0.63896 0.34254 0.45549 0.0
O19 O 0.58697 0.2438 0.18288 0.0
O20 O 0.49054 0.24385 0.18274 0.0
O21 O 0.53602 0.15107 0.48678 0.0
H22 H 0.63815 0.1435 0.38144 0.0
H23 H 0.72993 0.33108 0.67702 0.0
O24 O 0.44122 0.1522 0.48691 0.0
O25 O 0.49429 0.2517 0.76558 0.0
O26 O 0.58837 0.24955 0.76571 0.0
C27 C 0.54076 0.24925 0.863 0.0
H28 H 0.25092 0.19284 0.4575 0.0
H29 H 0.74876 0.16109 0.56374 0.0
Co30 Co 0.27764 0.46226 0.83331 0.0
C31 C 0.14925 0.44251 0.81879 0.0
Co32 Co 0.27655 0.55851 0.82937 0.0
C33 C 0.32568 0.37294 0.71593 0.0
C34 C 0.23594 0.32213 0.89786 0.0
N35 N 0.28192 0.3835 0.82685 0.0
N36 N 0.30785 0.30758 0.71274 0.0
C37 C 0.2514 0.27502 0.82543 0.0
H38 H 0.36687 0.41146 0.62735 0.0
H39 H 0.19195 0.31173 -0.01317 0.0
C40 C 0.40364 0.57748 0.88331 0.0
N41 N 0.27211 0.63746 0.80732 0.0
C42 C 0.31335 0.69151 0.69 0.0
C43 C 0.21782 0.64417 0.84167 0.0
N44 N 0.28612 0.73029 0.64551 0.0
C45 C 0.22605 0.70068 0.74158 0.0
C46 C 0.27483 0.50949 0.21952 0.0
O47 O 0.37284 0.51395 0.8597 0.0
O48 O 0.37231 0.60922 0.84997 0.0
O49 O 0.27354 0.55721 0.1226 0.0
O50 O 0.27362 0.46079 0.12284 0.0
O51 O 0.18084 0.50627 0.81873 0.0
H52 H 0.17324 0.60837 0.92415 0.0
H53 H 0.36084 0.70019 0.62839 0.0
O54 O 0.18196 0.41147 0.81873 0.0
O55 O 0.28148 0.46456 0.53999 0.0
O56 O 0.27934 0.55864 0.53977 0.0
C57 C 0.27902 0.51103 0.44252 0.0
H58 H 0.22267 0.22121 0.84827 0.0
H59 H 0.19083 0.71899 0.74186 0.0
Co60 Co 0.94708 0.29696 0.80532 0.0
C61 C 1.07548 0.40562 0.81989 0.0
Co62 Co 0.94818 0.39431 0.80939 0.0
C63 C 0.89902 0.15957 0.92234 0.0
C64 C 0.98883 0.19858 0.74076 0.0
N65 N 0.94281 0.21393 0.81165 0.0
N66 N 0.91683 0.11202 0.92536 0.0
C67 C 0.97336 0.13598 0.81301 0.0
H68 H 0.8578 0.15687 0.01086 0.0
H69 H 1.03286 0.23219 0.65203 0.0
C70 C 0.82109 0.28619 0.75543 0.0
N71 N 0.95264 0.47771 0.83154 0.0
C72 C 0.91139 0.49052 0.94885 0.0
C73 C 1.00693 0.53872 0.79718 0.0
N74 N 0.93863 0.55655 -0.00667 0.0
C75 C 0.99869 0.587 0.89727 0.0
C76 C 0.9499 0.34701 0.41917 0.0
O77 O 0.85188 0.25345 0.77893 0.0
O78 O 0.85242 0.34925 0.78882 0.0
O79 O 0.95118 0.39601 0.51616 0.0
O80 O 0.95111 0.29953 0.51578 0.0
O81 O 1.04389 0.43779 0.82001 0.0
H82 H 1.0515 0.54748 0.71469 0.0
H83 H 0.8639 0.45172 0.01045 0.0
O84 O 1.04277 0.34187 0.8199 0.0
O85 O 0.94324 0.29543 0.09863 0.0
O86 O 0.9454 0.39166 0.099 0.0
C87 C 0.94571 0.34436 0.19617 0.0
H88 H 1.00213 0.11095 0.79028 0.0
H89 H 1.03391 0.64053 0.89697 0.0
Co90 Co 0.73276 0.86827 0.16657 0.0
C91 C 0.75251 0.75963 0.15204 0.0
Co92 Co 0.6365 0.77091 0.16262 0.0
C93 C 0.82206 1.00561 0.04917 0.0
C94 C 0.87291 0.96674 0.23088 0.0
N95 N 0.81152 0.95131 0.16007 0.0
N96 N 0.88742 1.05317 0.04579 0.0
C97 C 0.92001 1.02931 0.15835 0.0
H98 H 0.78352 1.00825 0.96071 0.0
H99 H 0.88333 0.93317 0.31976 0.0
C100 C 0.61753 0.87902 0.21666 0.0
N101 N 0.55754 0.68751 0.14054 0.0
C102 C 0.50348 0.67472 0.0234 0.0
C103 C 0.55081 0.6265 0.17467 0.0
N104 N 0.46466 0.6087 0.97892 0.0
C105 C 0.49428 0.57823 0.07464 0.0
C106 C 0.68552 0.81822 0.55277 0.0
O107 O 0.68107 0.91176 0.19308 0.0
O108 O 0.5858 0.81595 0.1833 0.0
O109 O 0.63779 0.76922 0.45584 0.0
O110 O 0.73422 0.86572 0.4561 0.0
O111 O 0.68874 0.72744 0.15191 0.0
H112 H 0.58662 0.61772 0.25693 0.0
H113 H 0.49481 0.71354 0.96191 0.0
O114 O 0.78355 0.82338 0.15192 0.0
O115 O 0.73047 0.86978 0.87327 0.0
O116 O 0.63638 0.77355 0.87302 0.0
C117 C 0.68399 0.82086 0.77578 0.0
H118 H 0.97383 1.0544 0.18102 0.0
H119 H 0.47597 0.5247 0.07472 0.0
Co120 Co 0.89805 0.70302 0.13872 0.0
C121 C 0.78939 0.72275 0.15331 0.0
Co122 Co 0.80068 0.60676 0.14281 0.0
C123 C 1.03544 0.79233 0.25576 0.0
C124 C 0.99648 0.84318 0.07442 0.0
N125 N 0.9811 0.78179 0.1451 0.0
N126 N 1.083 0.85769 0.25897 0.0
C127 C 1.05907 0.89028 0.14677 0.0
H128 H 1.03811 0.75379 0.34416 0.0
H129 H 0.96288 0.85361 -0.01421 0.0
C130 C 0.90881 0.5878 0.08874 0.0
N131 N 0.71729 0.5278 0.16498 0.0
C132 C 0.70448 0.47373 0.28212 0.0
C133 C 0.65627 0.52107 0.13084 0.0
N134 N 0.63845 0.4349 0.32658 0.0
C135 C 0.60799 0.46452 0.23086 0.0
C136 C 0.84801 0.65578 0.75259 0.0
O137 O 0.94156 0.65134 0.11222 0.0
O138 O 0.84574 0.55606 0.12216 0.0
O139 O 0.799 0.60805 0.84959 0.0
O140 O 0.8955 0.70447 0.84919 0.0
O141 O 0.75721 0.65898 0.15349 0.0
H142 H 0.64749 0.55688 0.04855 0.0
H143 H 0.7433 0.46506 0.3436 0.0
O144 O 0.85315 0.75379 0.15338 0.0
O145 O 0.89957 0.70072 0.43202 0.0
O146 O 0.80332 0.60664 0.43241 0.0
C147 C 0.85064 0.65425 0.52957 0.0
H148 H 1.08411 0.9441 0.12422 0.0
H149 H 0.55446 0.44621 0.23076 0.0
Co150 Co 0.3267 0.91732 0.50019 0.0
C151 C 0.43536 1.04572 0.48557 0.0
Co152 Co 0.42406 0.91843 0.49601 0.0
C153 C 0.18936 0.86929 0.38282 0.0
C154 C 0.22823 0.959 0.56473 0.0
N155 N 0.24365 0.91303 0.49381 0.0
N156 N 0.14183 0.88712 0.37949 0.0
C157 C 0.16568 0.94355 0.49217 0.0
H158 H 0.18673 0.82812 0.29425 0.0
H159 H 0.26179 1.00298 0.65368 0.0
C160 C 0.31593 0.79134 0.55007 0.0
N161 N 0.50745 0.92289 0.47383 0.0
C162 C 0.52026 0.88161 0.35667 0.0
C163 C 0.56847 0.97718 0.50804 0.0
N164 N 0.5863 0.90882 0.31225 0.0
C165 C 0.61676 0.96892 0.40802 0.0
C166 C 0.37674 0.92013 0.88628 0.0
O167 O 0.28319 0.82213 0.52661 0.0
O168 O 0.379 0.82268 0.51664 0.0
O169 O 0.42574 0.92142 0.78923 0.0
O170 O 0.32924 0.92133 0.78973 0.0
O171 O 0.46753 1.01413 0.48535 0.0
H172 H 0.57724 1.02177 0.59036 0.0
H173 H 0.48146 0.83413 0.29515 0.0
O174 O 0.3716 1.01301 0.4856 0.0
O175 O 0.32519 0.91351 0.20689 0.0
O176 O 0.42142 0.91566 0.20641 0.0
C177 C 0.37411 0.91596 0.10929 0.0
H178 H 0.14061 0.97229 0.5149 0.0
H179 H 0.67029 1.00415 0.40817 0.0
loop_
_geom_bond_atom_site_label_1
_geom_bond_atom_site_label_2
_geom_bond_distance
_geom_bond_site_symmetry_2
_ccdc_geom_bond_type
Co0 N5 2.057 . S
Co0 O17 2.021 . S
Co0 O20 2.062 . S
Co0 O24 2.117 . S
Co0 O25 2.020 . S
C1 O21 1.259 . S
C1 O24 1.258 . S
Co2 N11 2.057 . S
Co2 O18 2.117 . S
Co2 O19 2.020 . S
Co2 O21 2.021 . S
Co2 O26 2.062 . S
C3 N5 1.316 . S
C3 N6 1.347 . S
C3 H8 0.931 . S
C4 N5 1.375 . S
C4 C7 1.350 . S
C4 H9 0.930 . S
N5 Co0 2.057 . S
N5 C3 1.316 . S
N5 C4 1.375 . S
N6 C3 1.347 . S
N6 C7 1.373 . S
C7 C4 1.350 . S
C7 N6 1.373 . S
C7 H28 0.931 . S
H8 C3 0.931 . S
H9 C4 0.930 . S
C10 O17 1.259 . S
C10 O18 1.258 . S
N11 Co2 2.057 . S
N11 C12 1.316 . S
N11 C13 1.375 . S
C12 N11 1.316 . S
C12 N14 1.347 . S
C12 H23 0.931 . S
C13 N11 1.375 . S
C13 C15 1.350 . S
C13 H22 0.930 . S
N14 C12 1.347 . S
N14 C15 1.373 . S
C15 C13 1.350 . S
C15 N14 1.373 . S
C15 H29 0.931 . S
C16 O19 1.256 . S
C16 O20 1.255 . S
O17 Co0 2.021 . S
O17 C10 1.259 . S
O18 Co2 2.117 . S
O18 C10 1.258 . S
O19 Co2 2.020 . S
O19 C16 1.256 . S
O20 Co0 2.062 . S
O20 C16 1.255 . S
O21 C1 1.259 . S
O21 Co2 2.021 . S
H22 C13 0.930 . S
H23 C12 0.931 . S
O24 Co0 2.117 . S
O24 C1 1.258 . S
O25 Co0 2.020 . S
O25 C27 1.256 1_556 S
O26 Co2 2.062 . S
O26 C27 1.255 1_556 S
C27 O25 1.256 1_554 S
C27 O26 1.255 1_554 S
H28 C7 0.931 . S
H29 C15 0.931 . S
Co30 N35 2.057 . S
Co30 O47 2.021 . S
Co30 O50 2.062 1_556 S
Co30 O54 2.117 . S
Co30 O55 2.020 . S
C31 O51 1.259 . S
C31 O54 1.258 . S
Co32 N41 2.057 . S
Co32 O48 2.117 . S
Co32 O49 2.020 1_556 S
Co32 O51 2.021 . S
Co32 O56 2.062 . S
C33 N35 1.316 . S
C33 N36 1.347 . S
C33 H38 0.931 . S
C34 N35 1.375 . S
C34 C37 1.350 . S
C34 H39 0.930 . S
N35 Co30 2.057 . S
N35 C33 1.316 . S
N35 C34 1.375 . S
N36 C33 1.347 . S
N36 C37 1.373 . S
C37 C34 1.350 . S
C37 N36 1.373 . S
C37 H58 0.931 . S
H38 C33 0.931 . S
H39 C34 0.930 . S
C40 O47 1.259 . S
C40 O48 1.258 . S
N41 Co32 2.057 . S
N41 C42 1.316 . S
N41 C43 1.375 . S
C42 N41 1.316 . S
C42 N44 1.347 . S
C42 H53 0.931 . S
C43 N41 1.375 . S
C43 C45 1.350 . S
C43 H52 0.930 . S
N44 C42 1.347 . S
N44 C45 1.373 . S
C45 C43 1.350 . S
C45 N44 1.373 . S
C45 H59 0.931 . S
C46 O49 1.256 . S
C46 O50 1.255 . S
O47 Co30 2.021 . S
O47 C40 1.259 . S
O48 Co32 2.117 . S
O48 C40 1.258 . S
O49 Co32 2.020 1_554 S
O49 C46 1.256 . S
O50 Co30 2.062 1_554 S
O50 C46 1.255 . S
O51 C31 1.259 . S
O51 Co32 2.021 . S
H52 C43 0.930 . S
H53 C42 0.931 . S
O54 Co30 2.117 . S
O54 C31 1.258 . S
O55 Co30 2.020 . S
O55 C57 1.256 . S
O56 Co32 2.062 . S
O56 C57 1.255 . S
C57 O55 1.256 . S
C57 O56 1.255 . S
H58 C37 0.931 . S
H59 C45 0.931 . S
Co60 N65 2.057 1_554 S
Co60 O77 2.021 1_554 S
Co60 O80 2.062 1_554 S
Co60 O84 2.117 1_554 S
Co60 O85 2.020 . S
C61 O81 1.259 1_554 S
C61 O84 1.258 1_554 S
Co62 N71 2.057 1_556 S
Co62 O78 2.117 . S
Co62 O79 2.020 . S
Co62 O81 2.021 . S
Co62 O86 2.062 1_556 S
C63 N65 1.316 . S
C63 N66 1.347 . S
C63 H68 0.931 . S
C64 N65 1.375 . S
C64 C67 1.350 . S
C64 H69 0.930 1_556 S
N65 Co60 2.057 1_556 S
N65 C63 1.316 . S
N65 C64 1.375 . S
N66 C63 1.347 . S
N66 C67 1.373 . S
C67 C64 1.350 . S
C67 N66 1.373 . S
C67 H88 0.931 . S
H68 C63 0.931 . S
H69 C64 0.930 1_554 S
C70 O77 1.259 . S
C70 O78 1.258 . S
N71 Co62 2.057 1_554 S
N71 C72 1.316 . S
N71 C73 1.375 1_554 S
C72 N71 1.316 . S
C72 N74 1.347 . S
C72 H83 0.931 . S
C73 N71 1.375 1_556 S
C73 C75 1.350 1_556 S
C73 H82 0.930 . S
N74 C72 1.347 . S
N74 C75 1.373 . S
C75 C73 1.350 1_554 S
C75 N74 1.373 . S
C75 H89 0.931 . S
C76 O79 1.256 . S
C76 O80 1.255 . S
O77 Co60 2.021 1_556 S
O77 C70 1.259 . S
O78 Co62 2.117 . S
O78 C70 1.258 . S
O79 Co62 2.020 . S
O79 C76 1.256 . S
O80 Co60 2.062 1_556 S
O80 C76 1.255 . S
O81 C61 1.259 1_556 S
O81 Co62 2.021 . S
H82 C73 0.930 . S
H83 C72 0.931 . S
O84 Co60 2.117 1_556 S
O84 C61 1.258 1_556 S
O85 Co60 2.020 . S
O85 C87 1.256 . S
O86 Co62 2.062 1_554 S
O86 C87 1.255 . S
C87 O85 1.256 . S
C87 O86 1.255 . S
H88 C67 0.931 . S
H89 C75 0.931 . S
Co90 N95 2.057 . S
Co90 O107 2.021 . S
Co90 O110 2.062 . S
Co90 O114 2.117 . S
Co90 O115 2.020 1_554 S
C91 O111 1.259 . S
C91 O114 1.258 . S
Co92 N101 2.057 . S
Co92 O108 2.117 . S
Co92 O109 2.020 . S
Co92 O111 2.021 . S
Co92 O116 2.062 1_554 S
C93 N95 1.316 . S
C93 N96 1.347 . S
C93 H98 0.931 . S
C94 N95 1.375 . S
C94 C97 1.350 . S
C94 H99 0.930 1_554 S
N95 Co90 2.057 . S
N95 C93 1.316 . S
N95 C94 1.375 . S
N96 C93 1.347 . S
N96 C97 1.373 . S
C97 C94 1.350 . S
C97 N96 1.373 . S
C97 H118 0.931 . S
H98 C93 0.931 . S
H99 C94 0.930 1_556 S
C100 O107 1.259 . S
C100 O108 1.258 . S
N101 Co92 2.057 . S
N101 C102 1.316 1_554 S
N101 C103 1.375 . S
C102 N101 1.316 1_556 S
C102 N104 1.347 . S
C102 H113 0.931 . S
C103 N101 1.375 . S
C103 C105 1.350 1_554 S
C103 H112 0.930 . S
N104 C102 1.347 . S
N104 C105 1.373 . S
C105 C103 1.350 1_556 S
C105 N104 1.373 . S
C105 H119 0.931 . S
C106 O109 1.256 . S
C106 O110 1.255 . S
O107 Co90 2.021 . S
O107 C100 1.259 . S
O108 Co92 2.117 . S
O108 C100 1.258 . S
O109 Co92 2.020 . S
O109 C106 1.256 . S
O110 Co90 2.062 . S
O110 C106 1.255 . S
O111 C91 1.259 . S
O111 Co92 2.021 . S
H112 C103 0.930 . S
H113 C102 0.931 . S
O114 Co90 2.117 . S
O114 C91 1.258 . S
O115 Co90 2.020 1_556 S
O115 C117 1.256 . S
O116 Co92 2.062 1_556 S
O116 C117 1.255 . S
C117 O115 1.256 . S
C117 O116 1.255 . S
H118 C97 0.931 . S
H119 C105 0.931 . S
Co120 N125 2.057 . S
Co120 O137 2.021 . S
Co120 O140 2.062 . S
Co120 O144 2.117 . S
Co120 O145 2.020 . S
C121 O141 1.259 . S
C121 O144 1.258 . S
Co122 N131 2.057 . S
Co122 O138 2.117 . S
Co122 O139 2.020 1_554 S
Co122 O141 2.021 . S
Co122 O146 2.062 . S
C123 N125 1.316 . S
C123 N126 1.347 . S
C123 H128 0.931 . S
C124 N125 1.375 . S
C124 C127 1.350 . S
C124 H129 0.930 . S
N125 Co120 2.057 . S
N125 C123 1.316 . S
N125 C124 1.375 . S
N126 C123 1.347 . S
N126 C127 1.373 . S
C127 C124 1.350 . S
C127 N126 1.373 . S
C127 H148 0.931 . S
H128 C123 0.931 . S
H129 C124 0.930 . S
C130 O137 1.259 . S
C130 O138 1.258 . S
N131 Co122 2.057 . S
N131 C132 1.316 . S
N131 C133 1.375 . S
C132 N131 1.316 . S
C132 N134 1.347 . S
C132 H143 0.931 . S
C133 N131 1.375 . S
C133 C135 1.350 . S
C133 H142 0.930 . S
N134 C132 1.347 . S
N134 C135 1.373 . S
C135 C133 1.350 . S
C135 N134 1.373 . S
C135 H149 0.931 . S
C136 O139 1.256 . S
C136 O140 1.255 1_556 S
O137 Co120 2.021 . S
O137 C130 1.259 . S
O138 Co122 2.117 . S
O138 C130 1.258 . S
O139 Co122 2.020 1_556 S
O139 C136 1.256 . S
O140 Co120 2.062 . S
O140 C136 1.255 1_554 S
O141 C121 1.259 . S
O141 Co122 2.021 . S
H142 C133 0.930 . S
H143 C132 0.931 . S
O144 Co120 2.117 . S
O144 C121 1.258 . S
O145 Co120 2.020 . S
O145 C147 1.256 . S
O146 Co122 2.062 . S
O146 C147 1.255 . S
C147 O145 1.256 . S
C147 O146 1.255 . S
H148 C127 0.931 . S
H149 C135 0.931 . S
Co150 N155 2.057 . S
Co150 O167 2.021 . S
Co150 O170 2.062 . S
Co150 O174 2.117 . S
Co150 O175 2.020 . S
C151 O171 1.259 . S
C151 O174 1.258 . S
Co152 N161 2.057 . S
Co152 O168 2.117 . S
Co152 O169 2.020 . S
Co152 O171 2.021 . S
Co152 O176 2.062 . S
C153 N155 1.316 . S
C153 N156 1.347 . S
C153 H158 0.931 . S
C154 N155 1.375 . S
C154 C157 1.350 . S
C154 H159 0.930 . S
N155 Co150 2.057 . S
N155 C153 1.316 . S
N155 C154 1.375 . S
N156 C153 1.347 . S
N156 C157 1.373 . S
C157 C154 1.350 . S
C157 N156 1.373 . S
C157 H178 0.931 . S
H158 C153 0.931 . S
H159 C154 0.930 . S
C160 O167 1.259 . S
C160 O168 1.258 . S
N161 Co152 2.057 . S
N161 C162 1.316 . S
N161 C163 1.375 . S
C162 N161 1.316 . S
C162 N164 1.347 . S
C162 H173 0.931 . S
C163 N161 1.375 . S
C163 C165 1.350 . S
C163 H172 0.930 . S
N164 C162 1.347 . S
N164 C165 1.373 . S
C165 C163 1.350 . S
C165 N164 1.373 . S
C165 H179 0.931 . S
C166 O169 1.256 . S
C166 O170 1.255 . S
O167 Co150 2.021 . S
O167 C160 1.259 . S
O168 Co152 2.117 . S
O168 C160 1.258 . S
O169 Co152 2.020 . S
O169 C166 1.256 . S
O170 Co150 2.062 . S
O170 C166 1.255 . S
O171 C151 1.259 . S
O171 Co152 2.021 . S
H172 C163 0.930 . S
H173 C162 0.931 . S
O174 Co150 2.117 . S
O174 C151 1.258 . S
O175 Co150 2.020 . S
O175 C177 1.256 1_554 S
O176 Co152 2.062 . S
O176 C177 1.255 1_554 S
C177 O175 1.256 1_556 S
C177 O176 1.255 1_556 S
H178 C157 0.931 . S
H179 C165 0.931 . S
C16 C27 1.056 . S
C57 C46 1.056 . S
C87 C76 1.056 . S
C106 C117 1.056 . S
C147 C136 1.056 . S
C177 C166 1.056 . S
C1 C151 2.836 1_545 S
N6 N36 2.146 . S
C61 C31 2.836 1_654 S
N96 N66 2.146 1_564 S
C121 C91 2.837 . S
N126 N156 2.146 1_655 S
C10 N134 2.812 . S
N44 C160 2.812 . S
C70 N14 2.812 . S
N104 C40 2.812 . S
C130 N74 2.812 . S
C100 N164 2.812 . S
