# Generated by pormake.
# Topology bnn, (5)-cn, num edge types: 1
# Building blocks:
#     Node 0, Type 0, BuildingBlock: XOMCOT_clean_sbu_1, # of connection points: 5
#     Node 1, Type 0, BuildingBlock: XOMCOT_clean_sbu_1, # of connection points: 5
#     Edge 2, Type (0, 0), BuildingBlock: CIFDUS_clean_linker_0, # of connection points: 2
#     Edge 3, Type (0, 0), BuildingBlock: CIFDUS_clean_linker_0, # of connection points: 2
#     Edge 4, Type (0, 0), BuildingBlock: CIFDUS_clean_linker_0, # of connection points: 2
#     Edge 5, Type (0, 0), BuildingBlock: CIFDUS_clean_linker_0, # of connection points: 2
#     Edge 6, Type (0, 0), BuildingBlock: CIFDUS_clean_linker_0, # of connection points: 2
# Relax obj value: 0.039
# Max RMSD: 0.098
# Mean RMSD: 0.098
data_MOF--net-bnn--node1-XOMCOT_clean_sbu_1--edge1-CIFDUS_clean_linker_0
_symmetry_space_group_name_H-M    P1
_symmetry_Int_Tables_number       1
_symmetry_cell_setting            triclinic
loop_
_symmetry_equiv_pos_as_xyz
'x, y, z'
_cell_length_a     27.988281
_cell_length_b     23.874312
_cell_length_c     15.889143
_cell_angle_alpha  97.665382
_cell_angle_beta   93.290801
_cell_angle_gamma 126.72478
loop_
_atom_site_label
_atom_site_type_symbol
_atom_site_fract_x
_atom_site_fract_y
_atom_site_fract_z
_atom_type_partial_charge
C0 C 0.28033 0.61555 0.91134 0.0
C1 C 0.27474 0.61055 0.82345 0.0
N2 N 0.2921 0.67378 0.80743 0.0
N3 N 0.30135 0.68166 0.95085 0.0
C4 C 0.30762 0.71571 0.88593 0.0
H5 H 0.27048 0.57397 0.94458 0.0
Co6 Co 0.319 0.71513 0.07023 0.0
C7 C 0.42367 0.86948 0.08239 0.0
O8 O 0.45819 0.86533 0.13664 0.0
N9 N 0.33437 0.74767 0.19192 0.0
C10 C 0.35128 0.81164 0.32159 0.0
C11 C 0.3526 0.81192 0.23538 0.0
C12 C 0.319 0.70826 0.25362 0.0
N13 N 0.33012 0.74623 0.33326 0.0
O14 O 0.24942 0.71193 0.06396 0.0
H15 H 0.36304 0.8557 0.20666 0.0
H16 H 0.29599 0.6514 0.24012 0.0
O17 O 0.36882 0.81454 0.05341 0.0
C18 C 0.20371 0.64885 0.06631 0.0
O19 O 0.21227 0.60112 0.07371 0.0
N20 N 0.38391 0.70999 0.07461 0.0
C21 C 0.457 0.66656 0.05701 0.0
C22 C 0.46475 0.71889 1.01469 0.0
C23 C 0.42713 0.73905 1.02325 0.0
C24 C 0.37523 0.6581 0.11431 0.0
C25 C 0.41205 0.63711 0.10847 0.0
H26 H 0.43033 0.77452 0.98419 0.0
H27 H 0.33657 0.62821 0.14514 0.0
H28 H 0.32473 0.77085 0.89606 0.0
H29 H 0.25892 0.56377 0.77528 0.0
H30 H 0.36389 0.85603 0.37138 0.0
H31 H 0.49734 0.74136 0.97164 0.0
H32 H 0.40369 0.59609 0.14179 0.0
C33 C 0.72231 0.5048 0.16552 0.0
C34 C 0.72286 0.5065 0.25242 0.0
N35 N 0.68044 0.43957 0.26341 0.0
N36 N 0.67984 0.43725 0.12184 0.0
C37 C 0.65507 0.39876 0.18288 0.0
H38 H 0.75035 0.55005 0.13584 0.0
Co39 Co 0.6597 0.4088 1.00316 0.0
C40 C 0.60856 0.25601 0.96545 0.0
O41 O 0.64 0.26862 0.90262 0.0
N42 N 0.63792 0.38079 0.88197 0.0
C43 C 0.57831 0.32925 0.75337 0.0
C44 C 0.58034 0.3312 0.84031 0.0
C45 C 0.66989 0.40848 0.81847 0.0
N46 N 0.63484 0.37821 0.73952 0.0
O47 O 0.59131 0.40821 1.00812 0.0
H48 H 0.54171 0.29988 0.87165 0.0
H49 H 0.71766 0.45115 0.82931 0.0
O50 O 0.61202 0.30701 1.01156 0.0
C51 C 0.60929 0.47041 1.00099 0.0
O52 O 0.6652 0.51634 0.9888 0.0
N53 N 0.73173 0.41943 1.00198 0.0
C54 C 0.85036 0.46417 1.01708 0.0
C55 C 0.80523 0.40256 0.04524 0.0
C56 C 0.74645 0.38194 0.0388 0.0
C57 C 0.77598 0.48197 0.9804 0.0
C58 C 0.83486 0.50409 0.98453 0.0
H59 H 0.7141 0.33832 0.06766 0.0
H60 H 0.76578 0.5162 0.96191 0.0
H61 H 0.61895 0.34191 0.16839 0.0
H62 H 0.75137 0.55393 0.30309 0.0
H63 H 0.53773 0.29638 0.70498 0.0
H64 H 0.81567 0.3721 0.07526 0.0
H65 H 0.86794 0.55262 0.96324 0.0
H66 H 0.41862 0.52921 0.04171 0.0
H67 H 0.57675 0.74373 0.04296 0.0
H68 H 0.63624 0.70076 1.02277 0.0
H69 H 0.64423 0.60386 1.0084 0.0
H70 H 0.48841 0.3899 1.01366 0.0
H71 H 0.42721 0.43169 0.02959 0.0
C72 C 0.4663 0.56693 0.03882 0.0
C73 C 0.4931 0.63993 0.04431 0.0
C74 C 0.50062 0.54204 0.0287 0.0
C75 C 0.55463 0.68731 0.03803 0.0
C76 C 0.58883 0.66284 0.02705 0.0
C77 C 0.5968 0.56601 1.01276 0.0
C78 C 0.57088 0.49369 1.00965 0.0
C79 C 0.56234 0.59049 1.02263 0.0
C80 C 0.50946 0.44578 1.01589 0.0
C81 C 0.47453 0.4697 0.02496 0.0
H82 H 0.95597 0.6013 0.05705 0.0
H83 H 0.88738 0.38086 0.99298 0.0
H84 H 0.99046 0.41917 1.00443 0.0
H85 H 0.09941 0.51441 0.03032 0.0
H86 H 0.16902 0.7351 0.08581 0.0
H87 H 0.06557 0.69727 0.07744 0.0
C88 C 0.96329 0.56145 0.04422 0.0
C89 C 0.91355 0.48807 1.02419 0.0
C90 C 0.02276 0.58387 0.04886 0.0
C91 C 0.9245 0.43754 1.00991 0.0
C92 C 0.9835 0.45941 1.01572 0.0
C93 C 0.0921 0.55441 0.04073 0.0
C94 C 0.14179 0.62749 0.05911 0.0
C95 C 0.03284 0.53232 0.03505 0.0
C96 C 0.13146 0.67853 0.07146 0.0
C97 C 0.07239 0.65689 0.06691 0.0
H98 H 0.54106 0.97865 0.08335 0.0
H99 H 0.36075 0.91562 0.02632 0.0
H100 H 0.40183 1.03171 0.99052 0.0
H101 H 0.49005 0.15188 0.9739 0.0
H102 H 0.66851 0.20824 1.01889 0.0
H103 H 0.62758 0.09495 0.06174 0.0
C104 C 0.51074 0.99037 0.0633 0.0
C105 C 0.448 0.93875 0.05804 0.0
C106 C 0.53455 1.05646 0.04108 0.0
C107 C 0.40925 0.95439 0.03071 0.0
C108 C 0.43275 1.02089 1.01053 0.0
C109 C 0.5197 0.13922 0.99388 0.0
C110 C 0.58222 0.18844 0.99464 0.0
C111 C 0.49542 0.07249 1.01548 0.0
C112 C 0.62031 0.17126 1.01874 0.0
C113 C 0.59692 0.10643 0.04294 0.0
H114 H 0.30414 0.61452 0.66062 0.0
H115 H 0.28818 0.77782 0.76603 0.0
H116 H 0.2976 0.81396 0.62774 0.0
H117 H 0.31101 0.79995 0.47717 0.0
H118 H 0.32756 0.63722 0.37165 0.0
H119 H 0.31528 0.59875 0.50886 0.0
C120 C 0.30195 0.65743 0.65333 0.0
C121 C 0.29567 0.69344 0.7244 0.0
C122 C 0.30714 0.67786 0.57324 0.0
C123 C 0.29389 0.74972 0.71336 0.0
C124 C 0.29892 0.77022 0.63393 0.0
C125 C 0.31237 0.75639 0.48405 0.0
C126 C 0.32045 0.72183 0.41368 0.0
C127 C 0.30595 0.73499 0.56358 0.0
C128 C 0.32079 0.66443 0.424 0.0
C129 C 0.31419 0.64267 0.50281 0.0
H130 H 0.74707 0.51099 0.42308 0.0
H131 H 0.57676 0.31597 0.28663 0.0
H132 H 0.54949 0.27824 0.42184 0.0
H133 H 0.57253 0.30135 0.57894 0.0
H134 H 0.73913 0.50117 0.71576 0.0
H135 H 0.76886 0.53552 0.58014 0.0
C136 C 0.70368 0.46057 0.42243 0.0
C137 C 0.66433 0.41679 0.34382 0.0
C138 C 0.68742 0.43963 0.50082 0.0
C139 C 0.60872 0.35083 0.34525 0.0
C140 C 0.59271 0.32918 0.42295 0.0
C141 C 0.6151 0.35274 0.57967 0.0
C142 C 0.65319 0.39813 0.65855 0.0
C143 C 0.63155 0.37337 0.50116 0.0
C144 C 0.70882 0.46406 0.65696 0.0
C145 C 0.72589 0.4843 0.57903 0.0
loop_
_geom_bond_atom_site_label_1
_geom_bond_atom_site_label_2
_geom_bond_distance
_geom_bond_site_symmetry_2
_ccdc_geom_bond_type
C0 C1 1.351 . S
C0 N3 1.368 . S
C0 H5 0.931 . S
C1 C0 1.351 . S
C1 N2 1.373 . S
C1 H29 0.930 . S
N2 C1 1.373 . S
N2 C4 1.340 . S
N3 C0 1.368 . S
N3 C4 1.321 . S
N3 Co6 2.135 1_556 S
C4 N2 1.340 . S
C4 N3 1.321 . S
C4 H28 0.930 . S
H5 C0 0.931 . S
Co6 N3 2.135 1_554 S
Co6 N9 2.121 . S
Co6 O14 2.055 . S
Co6 O17 2.039 . S
Co6 N20 2.140 . S
C7 O8 1.227 1_554 S
C7 O17 1.265 . S
O8 C7 1.227 1_556 S
N9 Co6 2.121 . S
N9 C11 1.375 . S
N9 C12 1.313 . S
C10 C11 1.338 . S
C10 N13 1.377 . S
C10 H30 0.930 . S
C11 N9 1.375 . S
C11 C10 1.338 . S
C11 H15 0.931 . S
C12 N9 1.313 . S
C12 N13 1.344 . S
C12 H16 0.930 . S
N13 C10 1.377 . S
N13 C12 1.344 . S
O14 Co6 2.055 . S
O14 C18 1.253 . S
H15 C11 0.931 . S
H16 C12 0.930 . S
O17 Co6 2.039 . S
O17 C7 1.265 . S
C18 O14 1.253 . S
C18 O19 1.227 . S
O19 C18 1.227 . S
N20 Co6 2.140 . S
N20 C23 1.346 1_554 S
N20 C24 1.345 . S
C21 C22 1.387 . S
C21 C25 1.391 1_556 S
C22 C21 1.387 . S
C22 C23 1.369 . S
C22 H31 0.929 . S
C23 N20 1.346 1_556 S
C23 C22 1.369 . S
C23 H26 0.928 . S
C24 N20 1.345 . S
C24 C25 1.371 . S
C24 H27 0.931 . S
C25 C21 1.391 1_554 S
C25 C24 1.371 . S
C25 H32 0.930 . S
H26 C23 0.928 . S
H27 C24 0.931 . S
H28 C4 0.930 . S
H29 C1 0.930 . S
H30 C10 0.930 . S
H31 C22 0.929 . S
H32 C25 0.930 . S
C33 C34 1.351 . S
C33 N36 1.368 . S
C33 H38 0.931 . S
C34 C33 1.351 . S
C34 N35 1.373 . S
C34 H62 0.930 . S
N35 C34 1.373 . S
N35 C37 1.340 . S
N36 C33 1.368 . S
N36 C37 1.321 . S
N36 Co39 2.135 . S
C37 N35 1.340 . S
C37 N36 1.321 . S
C37 H61 0.930 . S
H38 C33 0.931 . S
Co39 N36 2.135 . S
Co39 N42 2.121 1_554 S
Co39 O47 2.055 . S
Co39 O50 2.039 . S
Co39 N53 2.140 . S
C40 O41 1.227 . S
C40 O50 1.265 . S
O41 C40 1.227 . S
N42 Co39 2.121 1_556 S
N42 C44 1.375 . S
N42 C45 1.313 . S
C43 C44 1.338 . S
C43 N46 1.377 . S
C43 H63 0.930 . S
C44 N42 1.375 . S
C44 C43 1.338 . S
C44 H48 0.931 . S
C45 N42 1.313 . S
C45 N46 1.344 . S
C45 H49 0.930 . S
N46 C43 1.377 . S
N46 C45 1.344 . S
O47 Co39 2.055 . S
O47 C51 1.253 1_554 S
H48 C44 0.931 . S
H49 C45 0.930 . S
O50 Co39 2.039 . S
O50 C40 1.265 . S
C51 O47 1.253 1_556 S
C51 O52 1.227 . S
O52 C51 1.227 . S
N53 Co39 2.140 . S
N53 C56 1.346 . S
N53 C57 1.345 1_554 S
C54 C55 1.387 . S
C54 C58 1.391 1_554 S
C55 C54 1.387 . S
C55 C56 1.369 . S
C55 H64 0.929 . S
C56 N53 1.346 . S
C56 C55 1.369 . S
C56 H59 0.928 . S
C57 N53 1.345 1_556 S
C57 C58 1.371 . S
C57 H60 0.931 . S
C58 C54 1.391 1_556 S
C58 C57 1.371 . S
C58 H65 0.930 . S
H59 C56 0.928 . S
H60 C57 0.931 . S
H61 C37 0.930 . S
H62 C34 0.930 . S
H63 C43 0.930 . S
H64 C55 0.929 . S
H65 C58 0.930 . S
H66 C72 0.932 . S
H67 C75 0.930 . S
H68 C76 0.930 . S
H69 C77 0.930 . S
H70 C80 0.930 . S
H71 C81 0.932 . S
C72 H66 0.932 . S
C72 C73 1.353 1_554 S
C72 C74 1.415 1_554 S
C73 C72 1.353 1_556 S
C73 C75 1.419 . S
C74 C72 1.415 1_556 S
C74 C79 1.425 . S
C74 C81 1.407 1_556 S
C75 H67 0.930 . S
C75 C73 1.419 . S
C75 C76 1.362 . S
C76 H68 0.930 . S
C76 C75 1.362 . S
C76 C79 1.409 . S
C77 H69 0.930 . S
C77 C78 1.355 . S
C77 C79 1.415 . S
C78 C77 1.355 . S
C78 C80 1.419 1_556 S
C79 C74 1.425 . S
C79 C76 1.409 . S
C79 C77 1.415 . S
C80 H70 0.930 . S
C80 C78 1.419 1_554 S
C80 C81 1.363 . S
C81 H71 0.932 . S
C81 C74 1.407 1_554 S
C81 C80 1.363 . S
H82 C88 0.930 . S
H83 C91 0.930 . S
H84 C92 0.931 . S
H85 C93 0.930 . S
H86 C96 0.930 . S
H87 C97 0.930 . S
C88 H82 0.930 . S
C88 C89 1.355 . S
C88 C90 1.415 1_655 S
C89 C88 1.355 . S
C89 C91 1.419 1_554 S
C90 C88 1.415 1_455 S
C90 C95 1.425 1_554 S
C90 C97 1.409 . S
C91 H83 0.930 . S
C91 C89 1.419 1_556 S
C91 C92 1.362 . S
C92 H84 0.931 . S
C92 C91 1.362 . S
C92 C95 1.409 1_655 S
C93 H85 0.930 . S
C93 C94 1.355 1_556 S
C93 C95 1.415 . S
C94 C93 1.355 1_554 S
C94 C96 1.419 . S
C95 C90 1.425 1_556 S
C95 C92 1.409 1_455 S
C95 C93 1.415 . S
C96 H86 0.930 . S
C96 C94 1.419 . S
C96 C97 1.362 . S
C97 H87 0.930 . S
C97 C90 1.409 . S
C97 C96 1.362 . S
H98 C104 0.930 . S
H99 C107 0.930 . S
H100 C108 0.930 . S
H101 C109 0.930 . S
H102 C112 0.930 . S
H103 C113 0.930 . S
C104 H98 0.930 . S
C104 C105 1.355 . S
C104 C106 1.415 . S
C105 C104 1.355 . S
C105 C107 1.419 1_554 S
C106 C104 1.415 . S
C106 C111 1.425 1_564 S
C106 C113 1.409 1_565 S
C107 H99 0.930 . S
C107 C105 1.419 1_556 S
C107 C108 1.362 . S
C108 H100 0.930 . S
C108 C107 1.362 . S
C108 C111 1.409 1_565 S
C109 H101 0.930 . S
C109 C110 1.355 1_556 S
C109 C111 1.415 . S
C110 C109 1.355 1_554 S
C110 C112 1.419 . S
C111 C106 1.425 1_546 S
C111 C108 1.409 1_545 S
C111 C109 1.415 . S
C112 H102 0.930 . S
C112 C110 1.419 . S
C112 C113 1.362 . S
C113 H103 0.930 . S
C113 C106 1.409 1_545 S
C113 C112 1.362 . S
H114 C120 0.930 . S
H115 C123 0.930 . S
H116 C124 0.930 . S
H117 C125 0.930 . S
H118 C128 0.930 . S
H119 C129 0.930 . S
C120 H114 0.930 . S
C120 C121 1.355 . S
C120 C122 1.415 . S
C121 C120 1.355 . S
C121 C123 1.419 . S
C122 C120 1.415 . S
C122 C127 1.425 . S
C122 C129 1.409 . S
C123 H115 0.930 . S
C123 C121 1.419 . S
C123 C124 1.362 . S
C124 H116 0.930 . S
C124 C123 1.362 . S
C124 C127 1.409 . S
C125 H117 0.930 . S
C125 C126 1.355 . S
C125 C127 1.415 . S
C126 C125 1.355 . S
C126 C128 1.419 . S
C127 C122 1.425 . S
C127 C124 1.409 . S
C127 C125 1.415 . S
C128 H118 0.930 . S
C128 C126 1.419 . S
C128 C129 1.362 . S
C129 H119 0.930 . S
C129 C122 1.409 . S
C129 C128 1.362 . S
H130 C136 0.930 . S
H131 C139 0.930 . S
H132 C140 0.930 . S
H133 C141 0.930 . S
H134 C144 0.930 . S
H135 C145 0.930 . S
C136 H130 0.930 . S
C136 C137 1.355 . S
C136 C138 1.415 . S
C137 C136 1.355 . S
C137 C139 1.419 . S
C138 C136 1.415 . S
C138 C143 1.425 . S
C138 C145 1.409 . S
C139 H131 0.930 . S
C139 C137 1.419 . S
C139 C140 1.362 . S
C140 H132 0.930 . S
C140 C139 1.362 . S
C140 C143 1.409 . S
C141 H133 0.930 . S
C141 C142 1.355 . S
C141 C143 1.415 . S
C142 C141 1.355 . S
C142 C144 1.419 . S
C143 C138 1.425 . S
C143 C140 1.409 . S
C143 C141 1.415 . S
C144 H134 0.930 . S
C144 C142 1.419 . S
C144 C145 1.362 . S
C145 H135 0.930 . S
C145 C138 1.409 . S
C145 C144 1.362 . S
C73 C21 1.501 . S
C78 C51 1.500 . S
C89 C54 1.496 . S
C94 C18 1.502 . S
C105 C7 1.491 . S
C110 C40 1.486 . S
C121 N2 1.466 . S
C126 N13 1.468 . S
C137 N35 1.470 . S
C142 N46 1.473 . S
