# Generated by pormake.
# Topology hex, (8)-cn, num edge types: 1
# Building blocks:
#     Node 0, Type 0, BuildingBlock: LIZSOE_clean_sbu_0, # of connection points: 8
#     Edge 1, Type (0, 0), BuildingBlock: FUNLAD_clean_linker_1, # of connection points: 2
#     Edge 2, Type (0, 0), BuildingBlock: FUNLAD_clean_linker_1, # of connection points: 2
#     Edge 3, Type (0, 0), BuildingBlock: FUNLAD_clean_linker_1, # of connection points: 2
#     Edge 4, Type (0, 0), BuildingBlock: FUNLAD_clean_linker_1, # of connection points: 2
# Relax obj value: 0.129
# Max RMSD: 0.232
# Mean RMSD: 0.232
data_MOF--net-hex--node1-LIZSOE_clean_sbu_0--edge1-FUNLAD_clean_linker_1
_symmetry_space_group_name_H-M    P1
_symmetry_Int_Tables_number       1
_symmetry_cell_setting            triclinic
loop_
_symmetry_equiv_pos_as_xyz
'x, y, z'
_cell_length_a     15.920399
_cell_length_b     23.035859
_cell_length_c     16.470897
_cell_angle_alpha  105.51101
_cell_angle_beta   80.810407
_cell_angle_gamma 135.17944
loop_
_atom_site_label
_atom_site_type_symbol
_atom_site_fract_x
_atom_site_fract_y
_atom_site_fract_z
_atom_type_partial_charge
Co0 Co 0.10893 0.91669 0.04422 0.0
N1 N 0.09121 0.84928 0.09974 0.0
C2 C 1.00402 0.80035 0.15073 0.0
N3 N 0.12366 0.7816 0.14192 0.0
C4 C 0.16456 0.83871 0.09794 0.0
C5 C 1.02303 0.75809 0.17618 0.0
Co6 Co 0.93372 0.07514 0.95042 0.0
N7 N 0.95873 0.15892 0.91956 0.0
N8 N 0.99835 0.27341 0.91647 0.0
C9 C 0.92572 0.21166 0.84964 0.0
C10 C 0.90239 0.14204 0.8513 0.0
C11 C 1.01711 0.23996 0.95857 0.0
Co12 Co 1.02046 0.9914 0.98445 0.0
C13 C 0.85546 0.02912 0.00802 0.0
H14 H 0.84258 0.08113 0.80804 0.0
O15 O 0.13726 0.98201 0.98585 0.0
O16 O 0.16499 0.11621 0.01733 0.0
O17 O 0.99239 0.99111 0.10907 0.0
O18 O 0.88178 0.86582 0.95136 0.0
O19 O 0.94194 0.82938 0.02004 0.0
O20 O 0.09708 0.15671 0.97015 0.0
O21 O 0.89842 0.99489 0.98207 0.0
O22 O 0.96112 0.04099 0.84135 0.0
O23 O 0.09107 0.96506 0.14399 0.0
O24 O 0.12527 0.87502 0.94321 0.0
O25 O 1.04362 0.9953 0.85991 0.0
O26 O 0.91281 0.10177 0.06037 0.0
C27 C 1.03567 0.98718 0.1642 0.0
C28 C 0.0847 0.28474 0.04247 0.0
H29 H 0.07743 0.24493 0.07381 0.0
H30 H 0.18102 0.33688 0.03333 0.0
H31 H 0.05282 0.31125 0.08567 0.0
C32 C 0.18233 0.17282 -0.00329 0.0
C33 C 0.86178 0.81077 0.97949 0.0
H34 H 0.92941 0.7938 0.16622 0.0
H35 H 0.25534 0.83812 -0.01096 0.0
H36 H 0.34779 0.90142 0.08445 0.0
H37 H 0.30566 0.93975 0.03571 0.0
C38 C 0.27535 0.88272 0.04905 0.0
C39 C 0.16489 0.94465 0.93163 0.0
C40 C 1.00924 0.01293 0.81284 0.0
H41 H 0.9642 0.71111 0.21388 0.0
H42 H 0.88685 0.21522 0.80527 0.0
H43 H 0.95316 0.34488 0.93005 0.0
C44 C 1.021 0.34843 0.94486 0.0
H45 H 0.19281 0.42873 0.00029 0.0
H46 H 0.05063 0.64208 -0.01115 0.0
H47 H 1.03517 0.59561 0.83756 0.0
H48 H 0.07602 0.50882 0.76958 0.0
H49 H 0.12603 0.46438 0.8539 0.0
C50 C 0.12123 0.42189 -0.01176 0.0
C51 C 0.13268 0.49359 0.02647 0.0
C52 C 0.1136 0.52485 0.97607 0.0
C53 C 0.09844 0.57963 0.01507 0.0
C54 C 0.06813 0.60335 0.96328 0.0
C55 C 0.05851 0.57684 0.87587 0.0
C56 C 0.08082 0.52765 0.83766 0.0
C57 C 0.10852 0.50205 0.88684 0.0
H58 H 0.24592 0.76662 0.10261 0.0
C59 C 0.16349 0.74054 0.13404 0.0
H60 H 1.00676 0.63243 0.17667 0.0
H61 H 0.19178 0.45845 0.14115 0.0
H62 H 0.21634 0.51006 0.29247 0.0
H63 H 0.19451 0.60795 0.3598 0.0
H64 H 0.14752 0.65442 0.27552 0.0
C65 C 0.08997 0.66183 0.14546 0.0
C66 C 0.11097 0.60771 0.1043 0.0
C67 C 0.13945 0.58187 0.15414 0.0
C68 C 0.15145 0.52521 0.11519 0.0
C69 C 0.17956 0.50018 0.16688 0.0
C70 C 0.19473 0.52987 0.2541 0.0
C71 C 0.18257 0.58503 0.29201 0.0
C72 C 0.15545 0.61107 0.24292 0.0
H73 H 0.70726 0.94347 0.91087 0.0
C74 C 0.73539 0.98437 0.9734 0.0
H75 H 0.70938 0.0495 0.07101 0.0
H76 H 0.51821 0.1321 0.86833 0.0
H77 H 0.68716 0.26933 0.9522 0.0
H78 H 0.81244 0.28313 0.04237 0.0
H79 H 0.77878 0.16338 0.04229 0.0
C80 C 0.67921 0.00915 0.00814 0.0
C81 C 0.59382 0.99796 0.95986 0.0
C82 C 0.61586 0.06988 0.96021 0.0
C83 C 0.53737 0.06127 0.91424 0.0
C84 C 0.56876 0.13491 0.90885 0.0
C85 C 0.66644 0.21392 0.95526 0.0
C86 C 0.73757 0.22177 0.00535 0.0
C87 C 0.71558 0.15159 0.00583 0.0
H88 H 0.35283 0.05806 0.95067 0.0
C89 C 0.29002 0.99952 0.90476 0.0
H90 H 0.25642 0.90698 0.80796 0.0
H91 H 0.50874 0.84391 0.95588 0.0
H92 H 0.34879 0.71051 0.86445 0.0
H93 H 0.23427 0.70085 0.7676 0.0
H94 H 0.273 0.82218 0.76608 0.0
C95 C 0.32569 0.96442 0.85209 0.0
C96 C 0.43138 0.98036 0.87284 0.0
C97 C 0.41748 0.91045 0.864 0.0
C98 C 0.4933 0.91801 0.91215 0.0
C99 C 0.46264 0.84375 0.91419 0.0
C100 C 0.36944 0.76627 0.86307 0.0
C101 C 0.30401 0.7606 0.80943 0.0
C102 C 0.32637 0.83116 0.81023 0.0
H103 H 0.35312 0.29465 0.06203 0.0
C104 C 0.30138 0.25985 0.00266 0.0
H105 H 0.28262 0.25887 0.87946 0.0
H106 H 0.52633 0.63223 0.94169 0.0
H107 H 0.35046 0.55203 0.85503 0.0
H108 H 0.21164 0.3974 0.80669 0.0
H109 H 0.24341 0.32235 0.85026 0.0
C110 C 0.3365 0.29797 0.93791 0.0
C111 C 0.43631 0.39177 0.94491 0.0
C112 C 0.41613 0.43495 0.91759 0.0
C113 C 0.50163 0.52514 0.93879 0.0
C114 C 0.47178 0.56532 0.91985 0.0
C115 C 0.36951 0.51969 0.87126 0.0
C116 C 0.29124 0.4327 0.84439 0.0
C117 C 0.31121 0.39026 0.86991 0.0
H118 H 0.71347 0.69577 0.89083 0.0
C119 C 0.75025 0.72015 0.95468 0.0
H120 H 0.74415 0.69464 0.06956 0.0
H121 H 0.5213 0.32954 0.97513 0.0
H122 H 0.71711 0.41067 0.03315 0.0
H123 H 0.8677 0.56592 0.06518 0.0
H124 H 0.82548 0.64127 0.03837 0.0
C125 C 0.70398 0.66734 0.00632 0.0
C126 C 0.61302 0.57252 0.97916 0.0
C127 C 0.639 0.52878 -0.00447 0.0
C128 C 0.5509 0.43874 0.97851 0.0
C129 C 0.58203 0.39749 -0.00837 0.0
C130 C 0.69491 0.44328 0.02351 0.0
C131 C 0.77998 0.53077 0.04135 0.0
C132 C 0.7536 0.5733 0.02677 0.0
H133 H 0.07006 0.98068 0.69414 0.0
C134 C 1.02667 1.00197 0.72103 0.0
H135 H 0.9485 0.04178 0.69786 0.0
H136 H 0.18984 0.1576 0.36302 0.0
H137 H 0.2994 0.29309 0.46159 0.0
H138 H 0.27662 0.30181 0.61494 0.0
H139 H 0.14501 0.1753 0.67066 0.0
C140 C 0.98926 0.01848 0.671 0.0
C141 C 1.00795 0.01251 0.57911 0.0
C142 C 0.08421 0.08713 0.54756 0.0
C143 C 0.09711 0.08218 0.4592 0.0
C144 C 0.17608 0.15775 0.42951 0.0
C145 C 0.23958 0.23595 0.48542 0.0
C146 C 0.22672 0.24087 0.57174 0.0
C147 C 0.1504 0.16763 0.60284 0.0
H148 H 0.96207 0.01722 0.27486 0.0
C149 C 1.01561 1.00327 0.25494 0.0
H150 H 0.11089 0.98119 0.29211 0.0
H151 H 0.84453 0.85642 0.61798 0.0
H152 H 0.73484 0.72132 0.51921 0.0
H153 H 0.76044 0.71316 0.36609 0.0
H154 H 0.89478 0.84021 0.31101 0.0
C155 C 0.05989 0.99727 0.31211 0.0
C156 C 1.03323 1.0026 0.40275 0.0
C157 C 0.9553 0.92791 0.43417 0.0
C158 C 0.94188 0.93271 0.52245 0.0
C159 C 0.8605 0.8568 0.55175 0.0
C160 C 0.7964 0.77865 0.49565 0.0
C161 C 0.81075 0.77404 0.40946 0.0
C162 C 0.88874 0.84751 0.37871 0.0
loop_
_geom_bond_atom_site_label_1
_geom_bond_atom_site_label_2
_geom_bond_distance
_geom_bond_site_symmetry_2
_ccdc_geom_bond_type
Co0 N1 2.034 . S
Co0 O15 2.262 1_654 S
Co0 O19 1.958 1_554 S
Co0 O23 1.950 1_655 S
Co0 O24 2.057 1_654 S
N1 Co0 2.034 . S
N1 C2 1.366 . S
N1 C4 1.332 1_655 S
C2 N1 1.366 . S
C2 C5 1.377 . S
C2 H34 0.931 . S
N3 C4 1.342 . S
N3 C5 1.332 1_455 S
C4 N1 1.332 1_455 S
C4 N3 1.342 . S
C4 C38 1.361 . S
C5 C2 1.377 . S
C5 N3 1.332 1_655 S
C5 H41 0.930 . S
Co6 N7 2.034 1_655 S
Co6 O20 1.950 1_655 S
Co6 O21 2.257 1_556 S
Co6 O22 1.958 . S
Co6 O26 2.060 . S
N7 Co6 2.034 1_455 S
N7 C10 1.366 . S
N7 C11 1.332 . S
N8 C9 1.337 . S
N8 C11 1.346 . S
C9 N8 1.337 . S
C9 C10 1.377 . S
C9 H42 0.930 . S
C10 N7 1.366 . S
C10 C9 1.377 . S
C10 H14 0.931 . S
C11 N7 1.332 . S
C11 N8 1.346 . S
C11 C28 1.361 1_556 S
Co12 O15 2.097 1_655 S
Co12 O16 2.065 1_666 S
Co12 O17 2.065 1_566 S
Co12 O18 2.042 . S
Co12 O21 2.099 1_566 S
Co12 O25 2.042 1_655 S
C13 O21 1.253 . S
C13 O26 1.259 1_554 S
H14 C10 0.931 . S
O15 Co0 2.262 1_456 S
O15 Co12 2.097 1_455 S
O15 C39 1.253 . S
O16 Co12 2.065 1_444 S
O16 C32 1.221 . S
O17 Co12 2.065 1_544 S
O17 C27 1.221 1_545 S
O18 Co12 2.042 . S
O18 C33 1.237 . S
O19 Co0 1.958 1_556 S
O19 C33 1.278 . S
O20 Co6 1.950 1_455 S
O20 C32 1.277 1_556 S
O21 Co6 2.257 1_554 S
O21 Co12 2.099 1_544 S
O21 C13 1.253 . S
O22 Co6 1.958 . S
O22 C40 1.291 . S
O23 Co0 1.950 1_455 S
O23 C27 1.277 1_455 S
O24 Co0 2.057 1_456 S
O24 C39 1.263 . S
O25 Co12 2.042 1_455 S
O25 C40 1.227 1_465 S
O26 Co6 2.060 . S
O26 C13 1.259 1_556 S
C27 O17 1.221 1_565 S
C27 O23 1.277 1_655 S
C28 C11 1.361 1_554 S
C28 H29 0.960 . S
C28 H30 0.961 . S
C28 H31 0.961 1_455 S
H29 C28 0.960 . S
H30 C28 0.961 . S
H31 C28 0.961 1_655 S
C32 O16 1.221 . S
C32 O20 1.277 1_554 S
C33 O18 1.237 . S
C33 O19 1.278 . S
H34 C2 0.931 . S
H35 C38 0.961 . S
H36 C38 0.961 . S
H37 C38 0.960 . S
C38 C4 1.361 . S
C38 H35 0.961 . S
C38 H36 0.961 . S
C38 H37 0.960 . S
C39 O15 1.253 . S
C39 O24 1.263 . S
C40 O22 1.291 . S
C40 O25 1.227 1_645 S
H41 C5 0.930 . S
H42 C9 0.930 . S
H43 C44 0.951 . S
C44 H43 0.951 . S
C44 C50 1.265 1_655 S
H45 C50 0.950 . S
H46 C54 0.949 . S
H47 C55 0.950 . S
H48 C56 0.951 . S
H49 C57 0.951 . S
C50 C44 1.265 1_455 S
C50 H45 0.950 . S
C50 C51 1.478 . S
C51 C50 1.478 . S
C51 C52 1.397 . S
C51 C68 1.394 1_456 S
C52 C51 1.397 . S
C52 C53 1.438 . S
C52 C57 1.429 . S
C53 C52 1.438 . S
C53 C54 1.428 . S
C53 C66 1.394 1_456 S
C54 H46 0.949 . S
C54 C53 1.428 . S
C54 C55 1.345 . S
C55 H47 0.950 . S
C55 C54 1.345 . S
C55 C56 1.424 . S
C56 H48 0.951 . S
C56 C55 1.424 . S
C56 C57 1.347 . S
C57 H49 0.951 . S
C57 C52 1.429 . S
C57 C56 1.347 . S
H58 C59 0.951 . S
C59 H58 0.951 . S
C59 C65 1.265 1_455 S
H60 C65 0.950 . S
H61 C69 0.949 . S
H62 C70 0.950 . S
H63 C71 0.951 . S
H64 C72 0.951 . S
C65 C59 1.265 1_655 S
C65 H60 0.950 . S
C65 C66 1.478 . S
C66 C53 1.394 1_654 S
C66 C65 1.478 . S
C66 C67 1.397 . S
C67 C66 1.397 . S
C67 C68 1.438 . S
C67 C72 1.429 . S
C68 C51 1.394 1_654 S
C68 C67 1.438 . S
C68 C69 1.428 . S
C69 H61 0.949 . S
C69 C68 1.428 . S
C69 C70 1.345 . S
C70 H62 0.950 . S
C70 C69 1.345 . S
C70 C71 1.424 . S
C71 H63 0.951 . S
C71 C70 1.424 . S
C71 C72 1.347 . S
C72 H64 0.951 . S
C72 C67 1.429 . S
C72 C71 1.347 . S
H73 C74 0.951 1_556 S
C74 H73 0.951 1_554 S
C74 C80 1.265 1_565 S
H75 C80 0.950 . S
H76 C84 0.949 . S
H77 C85 0.950 . S
H78 C86 0.951 . S
H79 C87 0.951 . S
C80 C74 1.265 1_545 S
C80 H75 0.950 . S
C80 C81 1.478 . S
C81 C80 1.478 . S
C81 C82 1.397 . S
C81 C98 1.394 1_544 S
C82 C81 1.397 . S
C82 C83 1.438 . S
C82 C87 1.429 . S
C83 C82 1.438 . S
C83 C84 1.428 . S
C83 C96 1.394 1_544 S
C84 H76 0.949 . S
C84 C83 1.428 . S
C84 C85 1.345 . S
C85 H77 0.950 . S
C85 C84 1.345 . S
C85 C86 1.424 . S
C86 H78 0.951 . S
C86 C85 1.424 . S
C86 C87 1.347 . S
C87 H79 0.951 . S
C87 C82 1.429 . S
C87 C86 1.347 . S
H88 C89 0.951 1_544 S
C89 H88 0.951 1_566 S
C89 C95 1.265 . S
H90 C95 0.950 . S
H91 C99 0.949 . S
H92 C100 0.950 . S
H93 C101 0.951 . S
H94 C102 0.951 . S
C95 C89 1.265 . S
C95 H90 0.950 . S
C95 C96 1.478 . S
C96 C83 1.394 1_566 S
C96 C95 1.478 . S
C96 C97 1.397 . S
C97 C96 1.397 . S
C97 C98 1.438 . S
C97 C102 1.429 . S
C98 C81 1.394 1_566 S
C98 C97 1.438 . S
C98 C99 1.428 . S
C99 H91 0.949 . S
C99 C98 1.428 . S
C99 C100 1.345 . S
C100 H92 0.950 . S
C100 C99 1.345 . S
C100 C101 1.424 . S
C101 H93 0.951 . S
C101 C100 1.424 . S
C101 C102 1.347 . S
C102 H94 0.951 . S
C102 C97 1.429 . S
C102 C101 1.347 . S
H103 C104 0.951 . S
C104 H103 0.951 . S
C104 C110 1.265 . S
H105 C110 0.949 . S
H106 C114 0.949 . S
H107 C115 0.950 . S
H108 C116 0.951 . S
H109 C117 0.951 . S
C110 C104 1.265 . S
C110 H105 0.949 . S
C110 C111 1.478 . S
C111 C110 1.478 . S
C111 C112 1.397 1_554 S
C111 C128 1.394 . S
C112 C111 1.397 1_556 S
C112 C113 1.438 . S
C112 C117 1.429 . S
C113 C112 1.438 . S
C113 C114 1.428 . S
C113 C126 1.394 . S
C114 H106 0.949 . S
C114 C113 1.428 . S
C114 C115 1.345 . S
C115 H107 0.950 . S
C115 C114 1.345 . S
C115 C116 1.424 . S
C116 H108 0.951 . S
C116 C115 1.424 . S
C116 C117 1.347 . S
C117 H109 0.951 . S
C117 C112 1.429 . S
C117 C116 1.347 . S
H118 C119 0.951 . S
C119 H118 0.951 . S
C119 C125 1.265 . S
H120 C125 0.950 . S
H121 C129 0.949 . S
H122 C130 0.950 . S
H123 C131 0.951 . S
H124 C132 0.951 . S
C125 C119 1.265 . S
C125 H120 0.950 . S
C125 C126 1.478 . S
C126 C113 1.394 . S
C126 C125 1.478 . S
C126 C127 1.397 1_556 S
C127 C126 1.397 1_554 S
C127 C128 1.438 . S
C127 C132 1.429 . S
C128 C111 1.394 . S
C128 C127 1.438 . S
C128 C129 1.428 . S
C129 H121 0.949 . S
C129 C128 1.428 . S
C129 C130 1.345 . S
C130 H122 0.950 . S
C130 C129 1.345 . S
C130 C131 1.424 . S
C131 H123 0.951 . S
C131 C130 1.424 . S
C131 C132 1.347 . S
C132 H124 0.951 . S
C132 C127 1.429 . S
C132 C131 1.347 . S
H133 C134 0.951 . S
C134 H133 0.951 . S
C134 C140 1.265 1_665 S
H135 C140 0.950 . S
H136 C144 0.949 . S
H137 C145 0.950 . S
H138 C146 0.951 . S
H139 C147 0.951 . S
C140 C134 1.265 1_445 S
C140 H135 0.950 . S
C140 C141 1.478 . S
C141 C140 1.478 . S
C141 C142 1.397 . S
C141 C158 1.394 1_445 S
C142 C141 1.397 . S
C142 C143 1.438 . S
C142 C147 1.429 . S
C143 C142 1.438 . S
C143 C144 1.428 . S
C143 C156 1.394 1_445 S
C144 H136 0.949 . S
C144 C143 1.428 . S
C144 C145 1.345 . S
C145 H137 0.950 . S
C145 C144 1.345 . S
C145 C146 1.424 . S
C146 H138 0.951 . S
C146 C145 1.424 . S
C146 C147 1.347 . S
C147 H139 0.951 . S
C147 C142 1.429 . S
C147 C146 1.347 . S
H148 C149 0.951 . S
C149 H148 0.951 . S
C149 C155 1.265 1_445 S
H150 C155 0.950 . S
H151 C159 0.949 . S
H152 C160 0.950 . S
H153 C161 0.951 . S
H154 C162 0.951 . S
C155 C149 1.265 1_665 S
C155 H150 0.950 . S
C155 C156 1.478 . S
C156 C143 1.394 1_665 S
C156 C155 1.478 . S
C156 C157 1.397 . S
C157 C156 1.397 . S
C157 C158 1.438 . S
C157 C162 1.429 . S
C158 C141 1.394 1_665 S
C158 C157 1.438 . S
C158 C159 1.428 . S
C159 H151 0.949 . S
C159 C158 1.428 . S
C159 C160 1.345 . S
C160 H152 0.950 . S
C160 C159 1.345 . S
C160 C161 1.424 . S
C161 H153 0.951 . S
C161 C160 1.424 . S
C161 C162 1.347 . S
C162 H154 0.951 . S
C162 C157 1.429 . S
C162 C161 1.347 . S
C44 N8 1.534 1_655 S
C59 N3 1.453 . S
C74 C13 1.555 1_565 S
C89 C39 1.580 . S
C104 C32 1.538 . S
C119 C33 1.546 . S
C134 C40 1.474 1_565 S
C149 C27 1.477 1_445 S
