# Generated by pormake.
# Topology sml, (6)-cn, num edge types: 1
# Building blocks:
#     Node 0, Type 0, BuildingBlock: IZENUY_clean_sbu_0, # of connection points: 6
#     Node 1, Type 0, BuildingBlock: IZENUY_clean_sbu_0, # of connection points: 6
#     Node 2, Type 0, BuildingBlock: IZENUY_clean_sbu_0, # of connection points: 6
#     Node 3, Type 0, BuildingBlock: IZENUY_clean_sbu_0, # of connection points: 6
#     Node 4, Type 0, BuildingBlock: IZENUY_clean_sbu_0, # of connection points: 6
#     Node 5, Type 0, BuildingBlock: IZENUY_clean_sbu_0, # of connection points: 6
#     Edge 6, Type (0, 0), BuildingBlock: EYOCIG_clean_linker_4, # of connection points: 2
#     Edge 7, Type (0, 0), BuildingBlock: EYOCIG_clean_linker_4, # of connection points: 2
#     Edge 8, Type (0, 0), BuildingBlock: EYOCIG_clean_linker_4, # of connection points: 2
#     Edge 9, Type (0, 0), BuildingBlock: EYOCIG_clean_linker_4, # of connection points: 2
#     Edge 10, Type (0, 0), BuildingBlock: EYOCIG_clean_linker_4, # of connection points: 2
#     Edge 11, Type (0, 0), BuildingBlock: EYOCIG_clean_linker_4, # of connection points: 2
#     Edge 12, Type (0, 0), BuildingBlock: EYOCIG_clean_linker_4, # of connection points: 2
#     Edge 13, Type (0, 0), BuildingBlock: EYOCIG_clean_linker_4, # of connection points: 2
#     Edge 14, Type (0, 0), BuildingBlock: EYOCIG_clean_linker_4, # of connection points: 2
#     Edge 15, Type (0, 0), BuildingBlock: EYOCIG_clean_linker_4, # of connection points: 2
#     Edge 16, Type (0, 0), BuildingBlock: EYOCIG_clean_linker_4, # of connection points: 2
#     Edge 17, Type (0, 0), BuildingBlock: EYOCIG_clean_linker_4, # of connection points: 2
#     Edge 18, Type (0, 0), BuildingBlock: EYOCIG_clean_linker_4, # of connection points: 2
#     Edge 19, Type (0, 0), BuildingBlock: EYOCIG_clean_linker_4, # of connection points: 2
#     Edge 20, Type (0, 0), BuildingBlock: EYOCIG_clean_linker_4, # of connection points: 2
#     Edge 21, Type (0, 0), BuildingBlock: EYOCIG_clean_linker_4, # of connection points: 2
#     Edge 22, Type (0, 0), BuildingBlock: EYOCIG_clean_linker_4, # of connection points: 2
#     Edge 23, Type (0, 0), BuildingBlock: EYOCIG_clean_linker_4, # of connection points: 2
# Relax obj value: 0.327
# Max RMSD: 0.283
# Mean RMSD: 0.283
data_MOF--net-sml--node1-IZENUY_clean_sbu_0--edge1-EYOCIG_clean_linker_4
_symmetry_space_group_name_H-M    P1
_symmetry_Int_Tables_number       1
_symmetry_cell_setting            triclinic
loop_
_symmetry_equiv_pos_as_xyz
'x, y, z'
_cell_length_a     32.037619
_cell_length_b     32.03682
_cell_length_c     11.677601
_cell_angle_alpha  90.000092
_cell_angle_beta   90.000092
_cell_angle_gamma 119.96916
loop_
_atom_site_label
_atom_site_type_symbol
_atom_site_fract_x
_atom_site_fract_y
_atom_site_fract_z
_atom_type_partial_charge
Fe0 Fe 0.2974 0.47163 0.07749 0.0
Fe1 Fe 0.21076 0.37578 0.00046 0.0
O2 O 0.24273 0.43982 0.00043 0.0
Fe3 Fe 0.21973 0.47152 0.92331 0.0
O4 O 0.21605 0.50128 0.05074 0.0
O5 O 0.28886 0.5232 0.11388 0.0
O6 O 0.26707 0.44419 0.21003 0.0
C7 C 0.24227 0.39961 0.22727 0.0
C8 C 0.32184 0.52915 0.89169 0.0
O9 O 0.22971 0.36985 0.14556 0.0
C10 C 0.20324 0.39963 0.77359 0.0
O11 O 0.31613 0.42619 0.05123 0.0
O12 O 0.26073 0.37426 0.9337 0.0
O13 O 0.27967 0.5233 0.88736 0.0
O14 O 0.33077 0.50161 0.95012 0.0
C15 C 0.13784 0.39527 0.02978 0.0
O16 O 0.18593 0.36987 0.8553 0.0
O17 O 0.22291 0.44421 0.79081 0.0
C18 C 0.30318 0.39532 0.97104 0.0
O19 O 0.15928 0.37427 0.06731 0.0
O20 O 0.15565 0.42591 0.94914 0.0
C21 C 0.25236 0.5288 0.10961 0.0
Fe22 Fe 0.84715 0.28634 0.41091 0.0
Fe23 Fe 0.85633 0.19965 0.33376 0.0
O24 O 0.8243 0.23169 0.33377 0.0
Fe25 Fe 0.76964 0.20876 0.25663 0.0
O26 O 0.73621 0.20507 0.38406 0.0
O27 O 0.78707 0.27784 0.44735 0.0
O28 O 0.84427 0.25598 0.54339 0.0
C29 C 0.86403 0.23113 0.56059 0.0
C30 C 0.8141 0.31089 0.2252 0.0
O31 O 0.88121 0.21855 0.47886 0.0
C32 C 0.82501 0.19222 0.10689 0.0
O33 O 0.91129 0.30501 0.3846 0.0
O34 O 0.90781 0.24959 0.26704 0.0
O35 O 0.7778 0.26873 0.2208 0.0
O36 O 0.85056 0.31976 0.2836 0.0
C37 C 0.76395 0.12679 0.36294 0.0
O38 O 0.83742 0.17485 0.18857 0.0
O39 O 0.80013 0.21195 0.12412 0.0
C40 C 0.9292 0.29205 0.30439 0.0
O41 O 0.80636 0.14818 0.40055 0.0
O42 O 0.75116 0.14465 0.28231 0.0
C43 C 0.74499 0.24136 0.44303 0.0
Fe44 Fe 0.58182 0.75831 0.58897 0.0
Fe45 Fe 0.58181 0.83591 0.74315 0.0
O46 O 0.61357 0.81298 0.66606 0.0
Fe47 Fe 0.67761 0.84494 0.66603 0.0
O48 O 0.67907 0.79494 0.73288 0.0
O49 O 0.62739 0.73974 0.61472 0.0
O50 O 0.55207 0.72492 0.71644 0.0
C51 C 0.5246 0.73377 0.77538 0.0
C52 C 0.6537 0.81359 0.43918 0.0
O53 O 0.53022 0.77588 0.77962 0.0
C54 C 0.65817 0.91791 0.63665 0.0
O55 O 0.53005 0.76655 0.55312 0.0
O56 O 0.55183 0.83935 0.6158 0.0
O57 O 0.68347 0.82598 0.52086 0.0
O58 O 0.60911 0.78875 0.45643 0.0
C59 C 0.65384 0.85269 0.89286 0.0
O60 O 0.62729 0.90003 0.71682 0.0
O61 O 0.67918 0.89645 0.59928 0.0
C62 C 0.52422 0.80289 0.55748 0.0
O63 O 0.60926 0.833 0.87565 0.0
O64 O 0.68359 0.86983 0.81113 0.0
C65 C 0.65803 0.75251 0.69536 0.0
Fe66 Fe 0.84468 0.57094 0.92306 0.0
Fe67 Fe 0.767 0.57083 0.07715 0.0
O68 O 0.82166 0.60264 0.0001 0.0
Fe69 Fe 0.85362 0.66668 6e-05 0.0
O70 O 0.90511 0.66822 0.06696 0.0
O71 O 0.90876 0.61657 0.94884 0.0
O72 O 0.84838 0.54123 0.05056 0.0
C73 C 0.81208 0.51372 0.10946 0.0
C74 C 0.86114 0.64278 0.77323 0.0
O75 O 0.77557 0.51929 0.11367 0.0
C76 C 0.76119 0.6471 0.97052 0.0
O77 O 0.78475 0.51912 0.88718 0.0
O78 O 0.73364 0.54082 0.9498 0.0
O79 O 0.87846 0.67256 0.85491 0.0
O80 O 0.84148 0.59821 0.7905 0.0
C81 C 0.82211 0.64289 0.22688 0.0
O82 O 0.74825 0.61625 0.05076 0.0
O83 O 0.80366 0.66817 0.93325 0.0
C84 C 0.74257 0.51324 0.89151 0.0
O85 O 0.79731 0.59831 0.20967 0.0
O86 O 0.83467 0.67264 0.14514 0.0
C87 C 0.92657 0.64722 0.02946 0.0
Fe88 Fe 0.2948 0.83378 0.25645 0.0
Fe89 Fe 0.21726 0.75617 0.4106 0.0
O90 O 0.24013 0.81084 0.33355 0.0
Fe91 Fe 0.20811 0.84288 0.33357 0.0
O92 O 0.25807 0.89433 0.40044 0.0
O93 O 0.3133 0.89788 0.28227 0.0
O94 O 0.32821 0.83742 0.3839 0.0
C95 C 0.31942 0.8011 0.44275 0.0
C96 C 0.23946 0.85036 0.10671 0.0
O97 O 0.27733 0.76463 0.44703 0.0
C98 C 0.13523 0.7505 0.30409 0.0
O99 O 0.28664 0.77381 0.22052 0.0
O100 O 0.21386 0.72278 0.28323 0.0
O101 O 0.22704 0.86772 0.18841 0.0
O102 O 0.26435 0.83064 0.12393 0.0
C103 C 0.2004 0.81136 0.56038 0.0
O104 O 0.15313 0.73752 0.38429 0.0
O105 O 0.15663 0.79296 0.26678 0.0
C106 C 0.25032 0.73166 0.22486 0.0
O107 O 0.22015 0.78651 0.54314 0.0
O108 O 0.18322 0.82395 0.47866 0.0
C109 C 0.3005 0.91572 0.36294 0.0
Fe110 Fe 0.48257 0.2063 0.74436 0.0
Fe111 Fe 0.38676 0.19727 0.66732 0.0
O112 O 0.4508 0.22923 0.66731 0.0
Fe113 Fe 0.48254 0.2839 0.59024 0.0
O114 O 0.51229 0.31729 0.71771 0.0
O115 O 0.53416 0.26634 0.78083 0.0
O116 O 0.45512 0.2092 0.87689 0.0
C117 C 0.41055 0.18951 0.89413 0.0
C118 C 0.54014 0.23933 0.55866 0.0
O119 O 0.38079 0.17237 0.8124 0.0
C120 C 0.41066 0.22862 0.44046 0.0
O121 O 0.43709 0.14217 0.71801 0.0
O122 O 0.38519 0.14577 0.60054 0.0
O123 O 0.53431 0.27567 0.55434 0.0
O124 O 0.51254 0.20286 0.61699 0.0
C125 C 0.40634 0.2897 0.69665 0.0
O126 O 0.38089 0.21624 0.52215 0.0
O127 O 0.45524 0.25346 0.4577 0.0
C128 C 0.40621 0.12431 0.63782 0.0
O129 O 0.3853 0.24728 0.73419 0.0
O130 O 0.43697 0.30247 0.616 0.0
C131 C 0.53978 0.30844 0.77658 0.0
C132 C 0.37952 0.34583 0.80043 0.0
C133 C 0.39416 0.32326 0.74743 0.0
C134 C 0.35859 0.36749 0.86782 0.0
C135 C 0.3365 0.3827 0.92074 0.0
C136 C 0.05492 0.36839 0.13363 0.0
C137 C 0.09211 0.38306 0.08059 0.0
C138 C 1.01236 0.34745 0.20107 0.0
C139 C 0.9751 0.32536 0.25403 0.0
C140 C 0.70784 0.04381 0.46645 0.0
C141 C 0.73042 0.08104 0.41361 0.0
C142 C 0.68613 1.00119 0.53366 0.0
C143 C 0.67087 0.96387 0.58646 0.0
C144 C 0.68482 0.69641 0.79935 0.0
C145 C 0.67018 0.71894 0.74623 0.0
C146 C 0.70576 0.6748 0.86694 0.0
C147 C 0.72785 0.65965 0.92003 0.0
C148 C 0.05207 0.69512 0.20073 0.0
C149 C 0.08934 0.71721 0.25369 0.0
C150 C 1.00951 0.67416 0.1333 0.0
C151 C 0.97231 0.65946 0.08027 0.0
C152 C 0.37831 0.04112 0.53444 0.0
C153 C 0.39355 0.07839 0.58745 0.0
C154 C 0.35662 0.99858 0.46694 0.0
C155 C 0.33405 0.96141 0.41386 0.0
C156 C 0.20626 0.37595 0.55943 0.0
C157 C 0.20294 0.38307 0.65942 0.0
C158 C 0.21583 0.37594 0.44155 0.0
C159 C 0.22616 0.38305 0.34151 0.0
C160 C 0.85169 0.19518 0.89274 0.0
C161 C 0.84125 0.19189 0.99272 0.0
C162 C 0.86128 0.20471 0.77487 0.0
C163 C 0.86449 0.21502 0.67482 0.0
C164 C 0.67741 0.84025 0.22502 0.0
C165 C 0.67026 0.82981 0.325 0.0
C166 C 0.67747 0.84986 0.10715 0.0
C167 C 0.67039 0.85311 0.00709 0.0
C168 C 0.8581 0.66647 0.55906 0.0
C169 C 0.86142 0.65933 0.65904 0.0
C170 C 0.84854 0.66653 0.44118 0.0
C171 C 0.83823 0.65945 0.34112 0.0
C172 C 0.20319 0.83781 0.77467 0.0
C173 C 0.19997 0.82749 0.67462 0.0
C174 C 0.21278 0.84737 0.89254 0.0
C175 C 0.22322 0.85069 0.99253 0.0
C176 C 0.38696 0.20194 0.2263 0.0
C177 C 0.3941 0.21239 0.32628 0.0
C178 C 0.38692 0.19234 0.10842 0.0
C179 C 0.394 0.1891 0.00837 0.0
C180 C 0.25778 0.61153 0.16058 0.0
C181 C 0.25765 0.57459 0.13991 0.0
C182 C 0.25717 0.65499 0.17526 0.0
C183 C 0.25615 0.69136 0.19563 0.0
C184 C 0.6677 0.24677 0.49429 0.0
C185 C 0.70451 0.24666 0.47352 0.0
C186 C 0.62363 0.24614 0.50906 0.0
C187 C 0.58624 0.24512 0.52946 0.0
C188 C 0.39845 0.61257 0.84168 0.0
C189 C 0.3621 0.57522 0.86223 0.0
C190 C 0.4419 0.65659 0.82676 0.0
C191 C 0.47882 0.69334 0.80591 0.0
C192 C 0.80728 0.38756 0.17548 0.0
C193 C 0.80829 0.35118 0.19591 0.0
C194 C 0.80668 0.43102 0.16069 0.0
C195 C 0.80681 0.46794 0.13989 0.0
C196 C 0.39668 0.79556 0.49358 0.0
C197 C 0.35989 0.79573 0.47299 0.0
C198 C 0.44073 0.79613 0.50813 0.0
C199 C 0.47811 0.79711 0.52839 0.0
C200 C 0.66597 0.42972 0.84211 0.0
C201 C 0.70232 0.46711 0.86238 0.0
C202 C 0.62253 0.38566 0.82752 0.0
C203 C 0.58559 0.34888 0.8069 0.0
loop_
_geom_bond_atom_site_label_1
_geom_bond_atom_site_label_2
_geom_bond_distance
_geom_bond_site_symmetry_2
_ccdc_geom_bond_type
Fe0 O2 1.918 1_554 S
Fe0 O5 1.997 . S
Fe0 O6 2.002 . S
Fe0 O11 1.976 . S
Fe0 O14 1.996 1_554 S
Fe1 O2 1.918 . S
Fe1 O9 1.990 1_556 S
Fe1 O12 1.996 . S
Fe1 O16 1.983 . S
Fe1 O19 2.002 1_556 S
O2 Fe0 1.918 1_556 S
O2 Fe1 1.918 . S
O2 Fe3 1.918 . S
Fe3 O2 1.918 . S
Fe3 O4 2.002 1_556 S
Fe3 O13 1.976 . S
Fe3 O17 1.996 . S
Fe3 O20 1.997 . S
O4 Fe3 2.002 1_554 S
O4 C21 1.295 . S
O5 Fe0 1.997 . S
O5 C21 1.235 . S
O6 Fe0 2.002 . S
O6 C7 1.295 . S
C7 O6 1.295 . S
C7 O9 1.235 . S
C8 O13 1.287 . S
C8 O14 1.255 . S
O9 Fe1 1.990 1_554 S
O9 C7 1.235 . S
C10 O16 1.287 . S
C10 O17 1.255 . S
O11 Fe0 1.976 . S
O11 C18 1.287 . S
O12 Fe1 1.996 . S
O12 C18 1.255 1_556 S
O13 Fe3 1.976 . S
O13 C8 1.287 . S
O14 Fe0 1.996 1_556 S
O14 C8 1.255 . S
C15 O19 1.295 . S
C15 O20 1.236 1_554 S
O16 Fe1 1.983 . S
O16 C10 1.287 . S
O17 Fe3 1.996 . S
O17 C10 1.255 . S
C18 O11 1.287 . S
C18 O12 1.255 1_554 S
O19 Fe1 2.002 1_554 S
O19 C15 1.295 . S
O20 Fe3 1.997 . S
O20 C15 1.236 1_556 S
C21 O4 1.295 . S
C21 O5 1.235 . S
Fe22 O24 1.918 . S
Fe22 O27 1.997 . S
Fe22 O28 2.002 . S
Fe22 O33 1.976 . S
Fe22 O36 1.996 . S
Fe23 O24 1.918 . S
Fe23 O31 1.997 . S
Fe23 O34 1.996 . S
Fe23 O38 1.976 . S
Fe23 O41 2.002 . S
O24 Fe22 1.918 . S
O24 Fe23 1.918 . S
O24 Fe25 1.918 . S
Fe25 O24 1.918 . S
Fe25 O26 2.002 . S
Fe25 O35 1.976 . S
Fe25 O39 1.996 . S
Fe25 O42 1.997 . S
O26 Fe25 2.002 . S
O26 C43 1.295 . S
O27 Fe22 1.997 . S
O27 C43 1.235 . S
O28 Fe22 2.002 . S
O28 C29 1.295 . S
C29 O28 1.295 . S
C29 O31 1.235 . S
C30 O35 1.287 . S
C30 O36 1.255 . S
O31 Fe23 1.997 . S
O31 C29 1.235 . S
C32 O38 1.287 . S
C32 O39 1.255 . S
O33 Fe22 1.976 . S
O33 C40 1.287 . S
O34 Fe23 1.996 . S
O34 C40 1.255 . S
O35 Fe25 1.976 . S
O35 C30 1.287 . S
O36 Fe22 1.996 . S
O36 C30 1.255 . S
C37 O41 1.295 . S
C37 O42 1.235 . S
O38 Fe23 1.976 . S
O38 C32 1.287 . S
O39 Fe25 1.996 . S
O39 C32 1.255 . S
C40 O33 1.287 . S
C40 O34 1.255 . S
O41 Fe23 2.002 . S
O41 C37 1.295 . S
O42 Fe25 1.997 . S
O42 C37 1.235 . S
C43 O26 1.295 . S
C43 O27 1.235 . S
Fe44 O46 1.918 . S
Fe44 O49 1.997 . S
Fe44 O50 2.002 . S
Fe44 O55 1.976 . S
Fe44 O58 1.996 . S
Fe45 O46 1.918 . S
Fe45 O53 1.997 . S
Fe45 O56 1.996 . S
Fe45 O60 1.976 . S
Fe45 O63 2.002 . S
O46 Fe44 1.918 . S
O46 Fe45 1.918 . S
O46 Fe47 1.918 . S
Fe47 O46 1.918 . S
Fe47 O48 2.002 . S
Fe47 O57 1.976 . S
Fe47 O61 1.996 . S
Fe47 O64 1.997 . S
O48 Fe47 2.002 . S
O48 C65 1.295 . S
O49 Fe44 1.997 . S
O49 C65 1.235 . S
O50 Fe44 2.002 . S
O50 C51 1.295 . S
C51 O50 1.295 . S
C51 O53 1.235 . S
C52 O57 1.287 . S
C52 O58 1.255 . S
O53 Fe45 1.997 . S
O53 C51 1.235 . S
C54 O60 1.287 . S
C54 O61 1.255 . S
O55 Fe44 1.976 . S
O55 C62 1.287 . S
O56 Fe45 1.996 . S
O56 C62 1.255 . S
O57 Fe47 1.976 . S
O57 C52 1.287 . S
O58 Fe44 1.996 . S
O58 C52 1.255 . S
C59 O63 1.295 . S
C59 O64 1.235 . S
O60 Fe45 1.976 . S
O60 C54 1.287 . S
O61 Fe47 1.996 . S
O61 C54 1.255 . S
C62 O55 1.287 . S
C62 O56 1.255 . S
O63 Fe45 2.002 . S
O63 C59 1.295 . S
O64 Fe47 1.997 . S
O64 C59 1.235 . S
C65 O48 1.295 . S
C65 O49 1.235 . S
Fe66 O68 1.918 . S
Fe66 O71 1.997 . S
Fe66 O72 2.002 1_556 S
Fe66 O77 1.976 . S
Fe66 O80 1.996 . S
Fe67 O68 1.918 1_554 S
Fe67 O75 1.997 . S
Fe67 O78 1.996 1_554 S
Fe67 O82 1.976 . S
Fe67 O85 2.002 . S
O68 Fe66 1.918 . S
O68 Fe67 1.918 1_556 S
O68 Fe69 1.918 . S
Fe69 O68 1.918 . S
Fe69 O70 2.002 1_556 S
Fe69 O79 1.983 . S
Fe69 O83 1.996 . S
Fe69 O86 1.990 1_556 S
O70 Fe69 2.002 1_554 S
O70 C87 1.295 . S
O71 Fe66 1.997 . S
O71 C87 1.236 1_556 S
O72 Fe66 2.002 1_554 S
O72 C73 1.295 . S
C73 O72 1.295 . S
C73 O75 1.235 . S
C74 O79 1.287 . S
C74 O80 1.255 . S
O75 Fe67 1.997 . S
O75 C73 1.235 . S
C76 O82 1.287 . S
C76 O83 1.255 1_554 S
O77 Fe66 1.976 . S
O77 C84 1.287 . S
O78 Fe67 1.996 1_556 S
O78 C84 1.255 . S
O79 Fe69 1.983 . S
O79 C74 1.287 . S
O80 Fe66 1.996 . S
O80 C74 1.255 . S
C81 O85 1.295 . S
C81 O86 1.235 . S
O82 Fe67 1.976 . S
O82 C76 1.287 . S
O83 Fe69 1.996 . S
O83 C76 1.255 1_556 S
C84 O77 1.287 . S
C84 O78 1.255 . S
O85 Fe67 2.002 . S
O85 C81 1.295 . S
O86 Fe69 1.990 1_554 S
O86 C81 1.235 . S
C87 O70 1.295 . S
C87 O71 1.236 1_554 S
Fe88 O90 1.918 . S
Fe88 O93 1.997 . S
Fe88 O94 2.002 . S
Fe88 O99 1.976 . S
Fe88 O102 1.996 . S
Fe89 O90 1.918 . S
Fe89 O97 1.997 . S
Fe89 O100 1.996 . S
Fe89 O104 1.976 . S
Fe89 O107 2.002 . S
O90 Fe88 1.918 . S
O90 Fe89 1.918 . S
O90 Fe91 1.918 . S
Fe91 O90 1.918 . S
Fe91 O92 2.002 . S
Fe91 O101 1.976 . S
Fe91 O105 1.996 . S
Fe91 O108 1.997 . S
O92 Fe91 2.002 . S
O92 C109 1.295 . S
O93 Fe88 1.997 . S
O93 C109 1.235 . S
O94 Fe88 2.002 . S
O94 C95 1.295 . S
C95 O94 1.295 . S
C95 O97 1.235 . S
C96 O101 1.287 . S
C96 O102 1.255 . S
O97 Fe89 1.997 . S
O97 C95 1.235 . S
C98 O104 1.287 . S
C98 O105 1.255 . S
O99 Fe88 1.976 . S
O99 C106 1.287 . S
O100 Fe89 1.996 . S
O100 C106 1.255 . S
O101 Fe91 1.976 . S
O101 C96 1.287 . S
O102 Fe88 1.996 . S
O102 C96 1.255 . S
C103 O107 1.295 . S
C103 O108 1.235 . S
O104 Fe89 1.976 . S
O104 C98 1.287 . S
O105 Fe91 1.996 . S
O105 C98 1.255 . S
C106 O99 1.287 . S
C106 O100 1.255 . S
O107 Fe89 2.002 . S
O107 C103 1.295 . S
O108 Fe91 1.997 . S
O108 C103 1.235 . S
C109 O92 1.295 . S
C109 O93 1.235 . S
Fe110 O112 1.918 . S
Fe110 O115 1.997 . S
Fe110 O116 2.002 . S
Fe110 O121 1.976 . S
Fe110 O124 1.996 . S
Fe111 O112 1.918 . S
Fe111 O119 1.997 . S
Fe111 O122 1.996 . S
Fe111 O126 1.976 . S
Fe111 O129 2.002 . S
O112 Fe110 1.918 . S
O112 Fe111 1.918 . S
O112 Fe113 1.918 . S
Fe113 O112 1.918 . S
Fe113 O114 2.002 . S
Fe113 O123 1.976 . S
Fe113 O127 1.996 . S
Fe113 O130 1.997 . S
O114 Fe113 2.002 . S
O114 C131 1.295 . S
O115 Fe110 1.997 . S
O115 C131 1.235 . S
O116 Fe110 2.002 . S
O116 C117 1.295 . S
C117 O116 1.295 . S
C117 O119 1.235 . S
C118 O123 1.287 . S
C118 O124 1.255 . S
O119 Fe111 1.997 . S
O119 C117 1.235 . S
C120 O126 1.287 . S
C120 O127 1.255 . S
O121 Fe110 1.976 . S
O121 C128 1.287 . S
O122 Fe111 1.996 . S
O122 C128 1.255 . S
O123 Fe113 1.976 . S
O123 C118 1.287 . S
O124 Fe110 1.996 . S
O124 C118 1.255 . S
C125 O129 1.295 . S
C125 O130 1.235 . S
O126 Fe111 1.976 . S
O126 C120 1.287 . S
O127 Fe113 1.996 . S
O127 C120 1.255 . S
C128 O121 1.287 . S
C128 O122 1.255 . S
O129 Fe111 2.002 . S
O129 C125 1.295 . S
O130 Fe113 1.997 . S
O130 C125 1.235 . S
C131 O114 1.295 . S
C131 O115 1.235 . S
C132 C133 1.170 . S
C132 C134 1.380 . S
C133 C132 1.170 . S
C134 C132 1.380 . S
C134 C135 1.170 . S
C135 C134 1.170 . S
C136 C137 1.170 . S
C136 C138 1.380 1_455 S
C137 C136 1.170 . S
C138 C136 1.380 1_655 S
C138 C139 1.170 . S
C139 C138 1.170 . S
C140 C141 1.170 . S
C140 C142 1.380 1_545 S
C141 C140 1.170 . S
C142 C140 1.380 1_565 S
C142 C143 1.170 . S
C143 C142 1.170 . S
C144 C145 1.170 . S
C144 C146 1.380 . S
C145 C144 1.170 . S
C146 C144 1.380 . S
C146 C147 1.170 . S
C147 C146 1.170 . S
C148 C149 1.170 . S
C148 C150 1.380 1_455 S
C149 C148 1.170 . S
C150 C148 1.380 1_655 S
C150 C151 1.170 . S
C151 C150 1.170 . S
C152 C153 1.170 . S
C152 C154 1.380 1_545 S
C153 C152 1.170 . S
C154 C152 1.380 1_565 S
C154 C155 1.170 . S
C155 C154 1.170 . S
C156 C157 1.170 . S
C156 C158 1.380 . S
C157 C156 1.170 . S
C158 C156 1.380 . S
C158 C159 1.170 . S
C159 C158 1.170 . S
C160 C161 1.170 . S
C160 C162 1.380 . S
C161 C160 1.170 . S
C162 C160 1.380 . S
C162 C163 1.170 . S
C163 C162 1.170 . S
C164 C165 1.170 . S
C164 C166 1.380 . S
C165 C164 1.170 . S
C166 C164 1.380 . S
C166 C167 1.170 . S
C167 C166 1.170 . S
C168 C169 1.170 . S
C168 C170 1.380 . S
C169 C168 1.170 . S
C170 C168 1.380 . S
C170 C171 1.170 . S
C171 C170 1.170 . S
C172 C173 1.170 . S
C172 C174 1.380 . S
C173 C172 1.170 . S
C174 C172 1.380 . S
C174 C175 1.170 . S
C175 C174 1.170 . S
C176 C177 1.170 . S
C176 C178 1.380 . S
C177 C176 1.170 . S
C178 C176 1.380 . S
C178 C179 1.170 . S
C179 C178 1.170 . S
C180 C181 1.170 . S
C180 C182 1.380 . S
C181 C180 1.170 . S
C182 C180 1.380 . S
C182 C183 1.170 . S
C183 C182 1.170 . S
C184 C185 1.170 . S
C184 C186 1.380 . S
C185 C184 1.170 . S
C186 C184 1.380 . S
C186 C187 1.170 . S
C187 C186 1.170 . S
C188 C189 1.170 . S
C188 C190 1.380 . S
C189 C188 1.170 . S
C190 C188 1.380 . S
C190 C191 1.170 . S
C191 C190 1.170 . S
C192 C193 1.170 . S
C192 C194 1.380 . S
C193 C192 1.170 . S
C194 C192 1.380 . S
C194 C195 1.170 . S
C195 C194 1.170 . S
C196 C197 1.170 . S
C196 C198 1.380 . S
C197 C196 1.170 . S
C198 C196 1.380 . S
C198 C199 1.170 . S
C199 C198 1.170 . S
C200 C201 1.170 . S
C200 C202 1.380 . S
C201 C200 1.170 . S
C202 C200 1.380 . S
C202 C203 1.170 . S
C203 C202 1.170 . S
C133 C125 1.773 . S
C135 C18 1.736 1_556 S
C137 C15 1.751 . S
C139 C40 1.746 . S
C141 C37 1.773 . S
C143 C54 1.736 . S
C145 C65 1.774 . S
C147 C76 1.722 1_556 S
C149 C98 1.731 . S
C151 C87 1.745 . S
C153 C128 1.743 . S
C155 C109 1.749 . S
C157 C10 1.165 . S
C159 C7 1.178 . S
C161 C32 1.171 1_556 S
C163 C29 1.180 . S
C165 C52 1.154 . S
C167 C59 1.164 1_554 S
C169 C74 1.144 . S
C171 C81 1.157 . S
C173 C103 1.179 . S
C175 C96 1.168 1_556 S
C177 C120 1.134 . S
C179 C117 1.157 1_554 S
C181 C21 1.283 . S
C183 C106 1.341 . S
C185 C43 1.308 . S
C187 C118 1.315 . S
C189 C8 1.352 . S
C191 C51 1.291 . S
C193 C30 1.317 . S
C195 C73 1.305 . S
C197 C95 1.294 . S
C199 C62 1.351 . S
C201 C84 1.324 . S
C203 C131 1.297 . S
