# Generated by pormake.
# Topology wjh, (4)-cn, num edge types: 1
# Building blocks:
#     Node 0, Type 0, BuildingBlock: GALJAG_clean_sbu_0, # of connection points: 4
#     Node 1, Type 0, BuildingBlock: GALJAG_clean_sbu_0, # of connection points: 4
#     Node 2, Type 0, BuildingBlock: GALJAG_clean_sbu_0, # of connection points: 4
#     Node 3, Type 0, BuildingBlock: GALJAG_clean_sbu_0, # of connection points: 4
#     Node 4, Type 0, BuildingBlock: GALJAG_clean_sbu_0, # of connection points: 4
#     Node 5, Type 0, BuildingBlock: GALJAG_clean_sbu_0, # of connection points: 4
#     Node 6, Type 0, BuildingBlock: GALJAG_clean_sbu_0, # of connection points: 4
#     Node 7, Type 0, BuildingBlock: GALJAG_clean_sbu_0, # of connection points: 4
#     Node 8, Type 0, BuildingBlock: GALJAG_clean_sbu_0, # of connection points: 4
#     Node 9, Type 0, BuildingBlock: GALJAG_clean_sbu_0, # of connection points: 4
#     Node 10, Type 0, BuildingBlock: GALJAG_clean_sbu_0, # of connection points: 4
#     Node 11, Type 0, BuildingBlock: GALJAG_clean_sbu_0, # of connection points: 4
#     Edge 12, Type (0, 0), None
#     Edge 13, Type (0, 0), None
#     Edge 14, Type (0, 0), None
#     Edge 15, Type (0, 0), None
#     Edge 16, Type (0, 0), None
#     Edge 17, Type (0, 0), None
#     Edge 18, Type (0, 0), None
#     Edge 19, Type (0, 0), None
#     Edge 20, Type (0, 0), None
#     Edge 21, Type (0, 0), None
#     Edge 22, Type (0, 0), None
#     Edge 23, Type (0, 0), None
#     Edge 24, Type (0, 0), None
#     Edge 25, Type (0, 0), None
#     Edge 26, Type (0, 0), None
#     Edge 27, Type (0, 0), None
#     Edge 28, Type (0, 0), None
#     Edge 29, Type (0, 0), None
#     Edge 30, Type (0, 0), None
#     Edge 31, Type (0, 0), None
#     Edge 32, Type (0, 0), None
#     Edge 33, Type (0, 0), None
#     Edge 34, Type (0, 0), None
#     Edge 35, Type (0, 0), None
# Relax obj value: 0.052
# Max RMSD: 0.092
# Mean RMSD: 0.092
data_MOF--net-wjh--node1-GALJAG_clean_sbu_0--edge1-none
_symmetry_space_group_name_H-M    P1
_symmetry_Int_Tables_number       1
_symmetry_cell_setting            triclinic
loop_
_symmetry_equiv_pos_as_xyz
'x, y, z'
_cell_length_a     27.553379
_cell_length_b     27.554757
_cell_length_c     12.381021
_cell_angle_alpha  89.999777
_cell_angle_beta   90.000085
_cell_angle_gamma 120.00341
loop_
_atom_site_label
_atom_site_type_symbol
_atom_site_fract_x
_atom_site_fract_y
_atom_site_fract_z
_atom_type_partial_charge
In0 In 0.4994 0.1282 0.05298 0.0
O1 O 0.57295 0.1475 0.94066 0.0
O2 O 0.49897 0.13931 0.86887 0.0
C3 C 0.53894 0.1275 0.24755 0.0
C4 C 0.43323 0.01646 0.05022 0.0
C5 C 0.49245 0.21817 0.11121 0.0
O6 O 0.56823 0.13603 0.16337 0.0
O7 O 0.48998 0.11886 0.23339 0.0
O8 O 0.44858 0.17215 0.08918 0.0
O9 O 0.53818 0.21958 0.09283 0.0
C10 C 0.54782 0.14685 0.85496 0.0
O11 O 0.41164 0.04759 0.04196 0.0
O12 O 0.48582 0.04178 0.05568 0.0
In13 In 0.35703 0.50654 0.21962 0.0
O14 O 0.4113 0.58008 0.1073 0.0
O15 O 0.34549 0.50613 0.03551 0.0
C16 C 0.39728 0.54609 0.41418 0.0
C17 C 0.40257 0.44035 0.21686 0.0
C18 C 0.26011 0.4996 0.27786 0.0
O19 O 0.41805 0.57537 0.33 0.0
O20 O 0.35695 0.49713 0.40002 0.0
O21 O 0.26225 0.45573 0.25583 0.0
O22 O 0.30444 0.54533 0.25948 0.0
C23 C 0.38681 0.55496 0.0216 0.0
O24 O 0.34986 0.41878 0.20859 0.0
O25 O 0.42987 0.49294 0.22233 0.0
In26 In 0.83629 0.36415 0.3863 0.0
O27 O 0.81701 0.41841 0.27397 0.0
O28 O 0.82517 0.35262 0.20219 0.0
C29 C 0.83699 0.4044 0.58086 0.0
C30 C 0.94803 0.40971 0.38354 0.0
C31 C 0.74631 0.26723 0.44454 0.0
O32 O 0.82848 0.42517 0.49668 0.0
O33 O 0.84563 0.36408 0.5667 0.0
O34 O 0.79233 0.26938 0.42251 0.0
O35 O 0.74491 0.31156 0.42616 0.0
C36 C 0.81764 0.39393 0.18828 0.0
O37 O 0.91689 0.35699 0.37527 0.0
O38 O 0.92273 0.437 0.389 0.0
In39 In 0.45798 0.84342 0.55298 0.0
O40 O 0.38444 0.82413 0.44066 0.0
O41 O 0.45841 0.83232 0.36887 0.0
C42 C 0.41844 0.84412 0.74754 0.0
C43 C 0.52415 0.95516 0.55022 0.0
C44 C 0.46493 0.75345 0.6112 0.0
O45 O 0.38915 0.8356 0.66337 0.0
O46 O 0.4674 0.85276 0.73338 0.0
O47 O 0.5088 0.79947 0.58918 0.0
O48 O 0.4192 0.75205 0.59283 0.0
C49 C 0.40957 0.82478 0.35496 0.0
O50 O 0.54575 0.92404 0.54196 0.0
O51 O 0.47156 0.92985 0.55568 0.0
In52 In 0.60034 0.46507 0.71962 0.0
O53 O 0.54607 0.39153 0.6073 0.0
O54 O 0.61188 0.46549 0.53551 0.0
C55 C 0.56009 0.42553 0.91418 0.0
C56 C 0.5548 0.53126 0.71686 0.0
C57 C 0.69727 0.47203 0.77786 0.0
O58 O 0.53932 0.39624 0.83001 0.0
O59 O 0.60042 0.47448 0.90002 0.0
O60 O 0.69512 0.51589 0.75583 0.0
O61 O 0.65294 0.42629 0.75948 0.0
C62 C 0.57056 0.41665 0.5216 0.0
O63 O 0.60752 0.55284 0.70859 0.0
O64 O 0.5275 0.47867 0.72233 0.0
In65 In 0.12109 0.60748 0.8863 0.0
O66 O 0.14037 0.55322 0.77397 0.0
O67 O 0.13221 0.61901 0.70219 0.0
C68 C 0.12039 0.56723 0.08086 0.0
C69 C 0.00935 0.56192 0.88353 0.0
C70 C 0.21107 0.7044 0.94454 0.0
O71 O 0.1289 0.54646 0.99669 0.0
O72 O 0.11175 0.60755 0.0667 0.0
O73 O 0.16505 0.70225 0.9225 0.0
O74 O 0.21247 0.66007 0.92616 0.0
C75 C 0.13974 0.57771 0.68828 0.0
O76 O 0.04049 0.61464 0.87526 0.0
O77 O 0.03465 0.53463 0.889 0.0
In78 In 0.83629 0.46509 0.88227 0.0
O79 O 0.9169 0.55285 0.8933 0.0
O80 O 0.92273 0.47868 0.87957 0.0
C81 C 0.74632 0.47203 0.82403 0.0
C82 C 0.81766 0.41668 0.08029 0.0
C83 C 0.83699 0.42555 0.68771 0.0
O84 O 0.79233 0.5159 0.84607 0.0
O85 O 0.74491 0.4263 0.84241 0.0
O86 O 0.82847 0.39626 0.77188 0.0
O87 O 0.84563 0.4745 0.70187 0.0
C88 C 0.94803 0.53127 0.88505 0.0
O89 O 0.81701 0.39154 0.99459 0.0
O90 O 0.82518 0.46551 0.06639 0.0
In91 In 0.35704 0.84342 0.04896 0.0
O92 O 0.34987 0.92401 0.06 0.0
O93 O 0.42988 0.92986 0.04625 0.0
C94 C 0.26012 0.75344 0.99071 0.0
C95 C 0.38683 0.8248 0.24697 0.0
C96 C 0.39729 0.84412 0.8544 0.0
O97 O 0.26227 0.79946 0.01275 0.0
O98 O 0.30445 0.75204 0.0091 0.0
O99 O 0.41806 0.83561 0.93857 0.0
O100 O 0.35697 0.85275 0.86855 0.0
C101 C 0.40258 0.95515 0.05173 0.0
O102 O 0.41131 0.82415 0.16127 0.0
O103 O 0.34551 0.8323 0.23307 0.0
In104 In 0.4994 0.36413 0.2156 0.0
O105 O 0.41163 0.35698 0.22663 0.0
O106 O 0.48581 0.43698 0.2129 0.0
C107 C 0.49245 0.26722 0.15737 0.0
C108 C 0.54781 0.39392 0.41362 0.0
C109 C 0.53894 0.40438 0.02104 0.0
O110 O 0.44858 0.26936 0.1794 0.0
O111 O 0.53818 0.31154 0.17575 0.0
O112 O 0.56823 0.42514 0.10521 0.0
O113 O 0.48998 0.36406 0.03519 0.0
C114 C 0.43322 0.4097 0.21837 0.0
O115 O 0.57294 0.4184 0.32792 0.0
O116 O 0.49897 0.3526 0.39971 0.0
In117 In 0.12109 0.50654 0.38228 0.0
O118 O 0.04048 0.41878 0.39331 0.0
O119 O 0.03465 0.49295 0.37957 0.0
C120 C 0.21106 0.4996 0.32403 0.0
C121 C 0.13971 0.55495 0.58029 0.0
C122 C 0.12039 0.54608 0.18771 0.0
O123 O 0.16504 0.45573 0.34607 0.0
O124 O 0.21247 0.54533 0.34241 0.0
O125 O 0.12891 0.57537 0.27188 0.0
O126 O 0.11175 0.49713 0.20187 0.0
C127 C 0.00934 0.44036 0.38505 0.0
O128 O 0.14037 0.58009 0.49459 0.0
O129 O 0.1322 0.50612 0.56639 0.0
In130 In 0.60034 0.12821 0.54896 0.0
O131 O 0.54607 0.14747 0.66127 0.0
O132 O 0.61188 0.13933 0.73307 0.0
C133 C 0.56009 0.1275 0.3544 0.0
C134 C 0.5548 0.01647 0.55173 0.0
C135 C 0.69726 0.21818 0.49071 0.0
O136 O 0.53932 0.13602 0.43857 0.0
O137 O 0.60042 0.11887 0.36856 0.0
O138 O 0.69512 0.17217 0.51275 0.0
O139 O 0.65294 0.21958 0.5091 0.0
C140 C 0.57055 0.14683 0.74697 0.0
O141 O 0.60752 0.04762 0.56 0.0
O142 O 0.52751 0.04176 0.54625 0.0
In143 In 0.45797 0.60748 0.7156 0.0
O144 O 0.54574 0.61464 0.72662 0.0
O145 O 0.47156 0.53464 0.7129 0.0
C146 C 0.46493 0.7044 0.65736 0.0
C147 C 0.40956 0.57769 0.91361 0.0
C148 C 0.41843 0.56724 0.52103 0.0
O149 O 0.5088 0.70226 0.6794 0.0
O150 O 0.4192 0.66008 0.67575 0.0
O151 O 0.38914 0.54647 0.60521 0.0
O152 O 0.46739 0.60756 0.53519 0.0
C153 C 0.52415 0.56192 0.71837 0.0
O154 O 0.38443 0.55322 0.82791 0.0
O155 O 0.4584 0.61901 0.89971 0.0
loop_
_geom_bond_atom_site_label_1
_geom_bond_atom_site_label_2
_geom_bond_distance
_geom_bond_site_symmetry_2
_ccdc_geom_bond_type
In0 O1 2.294 1_554 S
In0 O2 2.326 1_554 S
In0 O6 2.266 . S
In0 O7 2.326 . S
In0 O8 2.266 . S
In0 O9 2.326 . S
In0 O11 2.294 . S
In0 O12 2.326 . S
O1 In0 2.294 1_556 S
O1 C10 1.240 . S
O2 In0 2.326 1_556 S
O2 C10 1.252 . S
C3 O6 1.252 . S
C3 O7 1.260 . S
C4 O11 1.240 . S
C4 O12 1.252 . S
C5 O8 1.252 . S
C5 O9 1.260 . S
O6 In0 2.266 . S
O6 C3 1.252 . S
O7 In0 2.326 . S
O7 C3 1.260 . S
O8 In0 2.266 . S
O8 C5 1.252 . S
O9 In0 2.326 . S
O9 C5 1.260 . S
C10 O1 1.240 . S
C10 O2 1.252 . S
O11 In0 2.294 . S
O11 C4 1.240 . S
O12 In0 2.326 . S
O12 C4 1.252 . S
In13 O14 2.294 . S
In13 O15 2.326 . S
In13 O19 2.266 . S
In13 O20 2.326 . S
In13 O21 2.266 . S
In13 O22 2.326 . S
In13 O24 2.294 . S
In13 O25 2.326 . S
O14 In13 2.294 . S
O14 C23 1.240 . S
O15 In13 2.326 . S
O15 C23 1.252 . S
C16 O19 1.252 . S
C16 O20 1.260 . S
C17 O24 1.240 . S
C17 O25 1.252 . S
C18 O21 1.252 . S
C18 O22 1.260 . S
O19 In13 2.266 . S
O19 C16 1.252 . S
O20 In13 2.326 . S
O20 C16 1.260 . S
O21 In13 2.266 . S
O21 C18 1.252 . S
O22 In13 2.326 . S
O22 C18 1.260 . S
C23 O14 1.240 . S
C23 O15 1.252 . S
O24 In13 2.294 . S
O24 C17 1.240 . S
O25 In13 2.326 . S
O25 C17 1.252 . S
In26 O27 2.294 . S
In26 O28 2.326 . S
In26 O32 2.266 . S
In26 O33 2.326 . S
In26 O34 2.266 . S
In26 O35 2.326 . S
In26 O37 2.294 . S
In26 O38 2.326 . S
O27 In26 2.294 . S
O27 C36 1.240 . S
O28 In26 2.326 . S
O28 C36 1.252 . S
C29 O32 1.252 . S
C29 O33 1.260 . S
C30 O37 1.240 . S
C30 O38 1.252 . S
C31 O34 1.252 . S
C31 O35 1.260 . S
O32 In26 2.266 . S
O32 C29 1.252 . S
O33 In26 2.326 . S
O33 C29 1.260 . S
O34 In26 2.266 . S
O34 C31 1.252 . S
O35 In26 2.326 . S
O35 C31 1.260 . S
C36 O27 1.240 . S
C36 O28 1.252 . S
O37 In26 2.294 . S
O37 C30 1.240 . S
O38 In26 2.326 . S
O38 C30 1.252 . S
In39 O40 2.294 . S
In39 O41 2.326 . S
In39 O45 2.266 . S
In39 O46 2.326 . S
In39 O47 2.266 . S
In39 O48 2.326 . S
In39 O50 2.294 . S
In39 O51 2.326 . S
O40 In39 2.294 . S
O40 C49 1.240 . S
O41 In39 2.326 . S
O41 C49 1.252 . S
C42 O45 1.252 . S
C42 O46 1.260 . S
C43 O50 1.240 . S
C43 O51 1.252 . S
C44 O47 1.252 . S
C44 O48 1.260 . S
O45 In39 2.266 . S
O45 C42 1.252 . S
O46 In39 2.326 . S
O46 C42 1.260 . S
O47 In39 2.266 . S
O47 C44 1.252 . S
O48 In39 2.326 . S
O48 C44 1.260 . S
C49 O40 1.240 . S
C49 O41 1.252 . S
O50 In39 2.294 . S
O50 C43 1.240 . S
O51 In39 2.326 . S
O51 C43 1.252 . S
In52 O53 2.294 . S
In52 O54 2.326 . S
In52 O58 2.266 . S
In52 O59 2.326 . S
In52 O60 2.266 . S
In52 O61 2.326 . S
In52 O63 2.294 . S
In52 O64 2.326 . S
O53 In52 2.294 . S
O53 C62 1.240 . S
O54 In52 2.326 . S
O54 C62 1.252 . S
C55 O58 1.252 . S
C55 O59 1.260 . S
C56 O63 1.240 . S
C56 O64 1.252 . S
C57 O60 1.252 . S
C57 O61 1.260 . S
O58 In52 2.266 . S
O58 C55 1.252 . S
O59 In52 2.326 . S
O59 C55 1.260 . S
O60 In52 2.266 . S
O60 C57 1.252 . S
O61 In52 2.326 . S
O61 C57 1.260 . S
C62 O53 1.240 . S
C62 O54 1.252 . S
O63 In52 2.294 . S
O63 C56 1.240 . S
O64 In52 2.326 . S
O64 C56 1.252 . S
In65 O66 2.294 . S
In65 O67 2.326 . S
In65 O71 2.266 . S
In65 O72 2.326 1_556 S
In65 O73 2.266 . S
In65 O74 2.326 . S
In65 O76 2.294 . S
In65 O77 2.326 . S
O66 In65 2.294 . S
O66 C75 1.240 . S
O67 In65 2.326 . S
O67 C75 1.252 . S
C68 O71 1.252 1_554 S
C68 O72 1.260 . S
C69 O76 1.240 . S
C69 O77 1.252 . S
C70 O73 1.252 . S
C70 O74 1.260 . S
O71 In65 2.266 . S
O71 C68 1.252 1_556 S
O72 In65 2.326 1_554 S
O72 C68 1.260 . S
O73 In65 2.266 . S
O73 C70 1.252 . S
O74 In65 2.326 . S
O74 C70 1.260 . S
C75 O66 1.240 . S
C75 O67 1.252 . S
O76 In65 2.294 . S
O76 C69 1.240 . S
O77 In65 2.326 . S
O77 C69 1.252 . S
In78 O79 2.294 . S
In78 O80 2.326 . S
In78 O84 2.266 . S
In78 O85 2.326 . S
In78 O86 2.266 . S
In78 O87 2.326 . S
In78 O89 2.294 . S
In78 O90 2.326 1_556 S
O79 In78 2.294 . S
O79 C88 1.240 . S
O80 In78 2.326 . S
O80 C88 1.252 . S
C81 O84 1.252 . S
C81 O85 1.260 . S
C82 O89 1.240 1_554 S
C82 O90 1.252 . S
C83 O86 1.252 . S
C83 O87 1.260 . S
O84 In78 2.266 . S
O84 C81 1.252 . S
O85 In78 2.326 . S
O85 C81 1.260 . S
O86 In78 2.266 . S
O86 C83 1.252 . S
O87 In78 2.326 . S
O87 C83 1.260 . S
C88 O79 1.240 . S
C88 O80 1.252 . S
O89 In78 2.294 . S
O89 C82 1.240 1_556 S
O90 In78 2.326 1_554 S
O90 C82 1.252 . S
In91 O92 2.294 . S
In91 O93 2.326 . S
In91 O97 2.266 1_554 S
In91 O98 2.326 . S
In91 O99 2.266 1_554 S
In91 O100 2.326 1_554 S
In91 O102 2.294 . S
In91 O103 2.326 . S
O92 In91 2.294 . S
O92 C101 1.240 . S
O93 In91 2.326 . S
O93 C101 1.252 . S
C94 O97 1.252 . S
C94 O98 1.260 1_556 S
C95 O102 1.240 . S
C95 O103 1.252 . S
C96 O99 1.252 . S
C96 O100 1.260 . S
O97 In91 2.266 1_556 S
O97 C94 1.252 . S
O98 In91 2.326 . S
O98 C94 1.260 1_554 S
O99 In91 2.266 1_556 S
O99 C96 1.252 . S
O100 In91 2.326 1_556 S
O100 C96 1.260 . S
C101 O92 1.240 . S
C101 O93 1.252 . S
O102 In91 2.294 . S
O102 C95 1.240 . S
O103 In91 2.326 . S
O103 C95 1.252 . S
In104 O105 2.294 . S
In104 O106 2.326 . S
In104 O110 2.266 . S
In104 O111 2.326 . S
In104 O112 2.266 . S
In104 O113 2.326 . S
In104 O115 2.294 . S
In104 O116 2.326 . S
O105 In104 2.294 . S
O105 C114 1.240 . S
O106 In104 2.326 . S
O106 C114 1.252 . S
C107 O110 1.252 . S
C107 O111 1.260 . S
C108 O115 1.240 . S
C108 O116 1.252 . S
C109 O112 1.252 . S
C109 O113 1.260 . S
O110 In104 2.266 . S
O110 C107 1.252 . S
O111 In104 2.326 . S
O111 C107 1.260 . S
O112 In104 2.266 . S
O112 C109 1.252 . S
O113 In104 2.326 . S
O113 C109 1.260 . S
C114 O105 1.240 . S
C114 O106 1.252 . S
O115 In104 2.294 . S
O115 C108 1.240 . S
O116 In104 2.326 . S
O116 C108 1.252 . S
In117 O118 2.294 . S
In117 O119 2.326 . S
In117 O123 2.266 . S
In117 O124 2.326 . S
In117 O125 2.266 . S
In117 O126 2.326 . S
In117 O128 2.294 . S
In117 O129 2.326 . S
O118 In117 2.294 . S
O118 C127 1.240 . S
O119 In117 2.326 . S
O119 C127 1.252 . S
C120 O123 1.252 . S
C120 O124 1.260 . S
C121 O128 1.240 . S
C121 O129 1.252 . S
C122 O125 1.252 . S
C122 O126 1.260 . S
O123 In117 2.266 . S
O123 C120 1.252 . S
O124 In117 2.326 . S
O124 C120 1.260 . S
O125 In117 2.266 . S
O125 C122 1.252 . S
O126 In117 2.326 . S
O126 C122 1.260 . S
C127 O118 1.240 . S
C127 O119 1.252 . S
O128 In117 2.294 . S
O128 C121 1.240 . S
O129 In117 2.326 . S
O129 C121 1.252 . S
In130 O131 2.294 . S
In130 O132 2.326 . S
In130 O136 2.266 . S
In130 O137 2.326 . S
In130 O138 2.266 . S
In130 O139 2.326 . S
In130 O141 2.294 . S
In130 O142 2.326 . S
O131 In130 2.294 . S
O131 C140 1.240 . S
O132 In130 2.326 . S
O132 C140 1.252 . S
C133 O136 1.252 . S
C133 O137 1.260 . S
C134 O141 1.240 . S
C134 O142 1.252 . S
C135 O138 1.252 . S
C135 O139 1.260 . S
O136 In130 2.266 . S
O136 C133 1.252 . S
O137 In130 2.326 . S
O137 C133 1.260 . S
O138 In130 2.266 . S
O138 C135 1.252 . S
O139 In130 2.326 . S
O139 C135 1.260 . S
C140 O131 1.240 . S
C140 O132 1.252 . S
O141 In130 2.294 . S
O141 C134 1.240 . S
O142 In130 2.326 . S
O142 C134 1.252 . S
In143 O144 2.294 . S
In143 O145 2.326 . S
In143 O149 2.266 . S
In143 O150 2.326 . S
In143 O151 2.266 . S
In143 O152 2.326 . S
In143 O154 2.294 . S
In143 O155 2.326 . S
O144 In143 2.294 . S
O144 C153 1.240 . S
O145 In143 2.326 . S
O145 C153 1.252 . S
C146 O149 1.252 . S
C146 O150 1.260 . S
C147 O154 1.240 . S
C147 O155 1.252 . S
C148 O151 1.252 . S
C148 O152 1.260 . S
O149 In143 2.266 . S
O149 C146 1.252 . S
O150 In143 2.326 . S
O150 C146 1.260 . S
O151 In143 2.266 . S
O151 C148 1.252 . S
O152 In143 2.326 . S
O152 C148 1.260 . S
C153 O144 1.240 . S
C153 O145 1.252 . S
O154 In143 2.294 . S
O154 C147 1.240 . S
O155 In143 2.326 . S
O155 C147 1.252 . S
C3 C133 1.197 . S
C16 C148 1.197 . S
C83 C29 1.197 . S
C42 C96 1.197 . S
C109 C55 1.197 1_554 S
C122 C68 1.197 . S
C107 C5 1.428 . S
C18 C120 1.427 . S
C135 C31 1.428 . S
C44 C146 1.428 . S
C57 C81 1.427 . S
C70 C94 1.428 . S
C140 C10 1.686 . S
C147 C23 1.686 1_556 S
C82 C36 1.686 . S
C49 C95 1.687 . S
C62 C108 1.686 . S
C121 C75 1.686 . S
C4 C101 1.608 1_545 S
C114 C17 1.608 . S
C127 C30 1.608 1_455 S
C43 C134 1.608 1_565 S
C56 C153 1.608 . S
C69 C88 1.608 1_455 S
