# Generated by pormake.
# Topology vmm, (7)-cn, num edge types: 1
# Building blocks:
#     Node 0, Type 0, BuildingBlock: HICVOG_clean_sbu_0, # of connection points: 7
#     Node 1, Type 0, BuildingBlock: HICVOG_clean_sbu_0, # of connection points: 7
#     Node 2, Type 0, BuildingBlock: HICVOG_clean_sbu_0, # of connection points: 7
#     Node 3, Type 0, BuildingBlock: HICVOG_clean_sbu_0, # of connection points: 7
#     Edge 4, Type (0, 0), None
#     Edge 5, Type (0, 0), None
#     Edge 6, Type (0, 0), None
#     Edge 7, Type (0, 0), None
#     Edge 8, Type (0, 0), None
#     Edge 9, Type (0, 0), None
#     Edge 10, Type (0, 0), None
#     Edge 11, Type (0, 0), None
#     Edge 12, Type (0, 0), None
#     Edge 13, Type (0, 0), None
#     Edge 14, Type (0, 0), None
#     Edge 15, Type (0, 0), None
#     Edge 16, Type (0, 0), None
#     Edge 17, Type (0, 0), None
# Relax obj value: 0.101
# Max RMSD: 0.178
# Mean RMSD: 0.178
data_MOF--net-vmm--node1-HICVOG_clean_sbu_0--edge1-none
_symmetry_space_group_name_H-M    P1
_symmetry_Int_Tables_number       1
_symmetry_cell_setting            triclinic
loop_
_symmetry_equiv_pos_as_xyz
'x, y, z'
_cell_length_a     7.3155082
_cell_length_b     22.676679
_cell_length_c     12.849329
_cell_angle_alpha  89.996407
_cell_angle_beta   88.403334
_cell_angle_gamma 89.975864
loop_
_atom_site_label
_atom_site_type_symbol
_atom_site_fract_x
_atom_site_fract_y
_atom_site_fract_z
_atom_type_partial_charge
Zn0 Zn 0.524 0.12291 0.16265 0.0
C1 C 0.23462 0.03277 -0.02079 0.0
N2 N 0.38719 0.99819 0.95542 0.0
C3 C 0.53659 0.03059 -0.01241 0.0
N4 N 0.46964 0.07983 0.03573 0.0
N5 N 0.2951 0.0855 0.01542 0.0
C6 C 0.98247 0.18231 0.04364 0.0
O7 O 1.10474 0.17256 0.11386 0.0
O8 O 0.7701 0.14209 0.15499 0.0
Zn9 Zn 0.28002 0.16579 0.94991 0.0
N10 N 0.46716 0.08205 0.28962 0.0
C11 C 0.26465 0.07684 0.43691 0.0
C12 C 0.29982 0.09286 0.33384 0.0
C13 C 0.601 0.05545 0.34377 0.0
N14 N 0.39692 0.0494 0.4909 0.0
C15 C 0.56495 0.03785 0.44729 0.0
O16 O 0.37686 0.23896 0.0284 0.0
C17 C 0.40296 0.24726 0.12475 0.0
O18 O 0.4214 0.20425 0.18659 0.0
H19 H 0.19808 0.11658 0.29105 0.0
H20 H 0.73525 0.05014 0.30745 0.0
C21 C 0.34634 0.22659 0.76665 0.0
C22 C 0.41669 0.23972 0.66684 0.0
C23 C 0.548 0.14438 0.65762 0.0
C24 C 0.47578 0.13113 0.75681 0.0
N25 N 0.37583 0.17263 0.80909 0.0
N26 N 0.51618 0.19805 0.61457 0.0
H27 H 0.27079 0.25937 0.81155 0.0
C28 C 0.79941 0.17144 0.07269 0.0
O29 O 0.67312 0.17725 0.00319 0.0
O30 O 1.02699 0.18292 0.94806 0.0
H31 H 0.50243 0.08892 0.79227 0.0
H32 H 1.13446 0.08718 0.47444 0.0
H33 H 0.63401 0.11318 0.61652 0.0
Zn34 Zn 0.99179 0.66571 0.50718 0.0
C35 C 0.73457 0.53055 0.46948 0.0
N36 N 0.8841 0.49813 0.50156 0.0
C37 C 1.03657 0.53274 0.47794 0.0
N38 N 0.97571 0.58546 0.44186 0.0
N39 N 0.80118 0.5799 0.42157 0.0
C40 C 0.47187 0.67136 0.38376 0.0
O41 O 0.59826 0.67744 0.45312 0.0
O42 O 0.24476 0.6827 0.50862 0.0
Zn43 Zn 0.74766 0.62285 0.29429 0.0
N44 N 0.89629 0.67265 0.64805 0.0
C45 C 0.72464 0.64437 0.79966 0.0
C46 C 0.79669 0.63113 0.70043 0.0
C47 C 0.92563 0.72662 0.69044 0.0
N48 N 0.75629 0.69806 0.84266 0.0
C49 C 0.85544 0.73974 0.7903 0.0
O50 O 0.84991 0.70425 0.27047 0.0
C51 C 0.86876 0.74724 0.33231 0.0
O52 O 0.89501 0.73892 0.42865 0.0
H53 H 0.77019 0.58891 0.665 0.0
H54 H 1.00093 0.75941 0.64548 0.0
C55 C 0.67121 0.55529 0.11335 0.0
C56 C 0.70722 0.53766 0.00984 0.0
C57 C 1.00745 0.57663 0.02013 0.0
C58 C 0.9723 0.5927 0.12318 0.0
N59 N 0.805 0.58192 0.16744 0.0
N60 N 0.8752 0.54918 0.96619 0.0
H61 H 0.53698 0.55001 0.1497 0.0
C62 C 0.28879 0.68206 0.41297 0.0
O63 O 0.16634 0.67212 0.34296 0.0
O64 O 0.50143 0.64197 0.30153 0.0
H65 H 1.07399 0.61646 0.1659 0.0
H66 H 0.6389 0.61315 0.84084 0.0
H67 H 0.13759 0.58697 -0.01744 0.0
Zn68 Zn 0.7481 0.92414 0.79452 0.0
C69 C 1.03748 1.01428 0.9779 0.0
N70 N 0.88491 0.04885 0.00174 0.0
C71 C 0.7355 1.01644 0.96961 0.0
N72 N 0.80245 0.9672 0.92146 0.0
N73 N 0.977 0.96154 0.94174 0.0
C74 C 0.28964 0.86474 0.91353 0.0
O75 O 0.16738 0.87449 0.84332 0.0
O76 O 0.50201 0.90495 0.80218 0.0
Zn77 Zn 0.99211 0.88126 0.00725 0.0
N78 N 0.80493 0.96501 0.66757 0.0
C79 C 1.00747 0.97025 0.5203 0.0
C80 C 0.97228 0.95421 0.62335 0.0
C81 C 0.6711 0.99162 0.61342 0.0
N82 N 0.87519 0.9977 0.46631 0.0
C83 C 0.70716 1.00923 0.50991 0.0
O84 O 0.89531 0.80808 0.92874 0.0
C85 C 0.86921 0.79978 0.83239 0.0
O86 O 0.85072 0.84279 0.77056 0.0
H87 H 1.07402 0.93049 0.66615 0.0
H88 H 0.53684 0.99692 0.64975 0.0
C89 C 0.92546 0.82042 0.19045 0.0
C90 C 0.85505 0.80729 0.29025 0.0
C91 C 0.72419 0.90269 0.29955 0.0
C92 C 0.79646 0.91593 0.20037 0.0
N93 N 0.89622 0.8744 0.14806 0.0
N94 N 0.75577 0.84899 0.34256 0.0
H95 H 1.00086 0.78762 0.14552 0.0
C96 C 0.47271 0.8756 0.88448 0.0
O97 O 0.59901 0.86977 0.95397 0.0
O98 O 0.24513 0.86412 0.00912 0.0
H99 H 0.77002 0.95817 0.16495 0.0
H100 H 0.13766 0.95992 0.48277 0.0
H101 H 0.63834 0.93392 0.34068 0.0
Zn102 Zn 0.52354 0.4241 0.66257 0.0
C103 C 0.23377 0.51426 0.47925 0.0
N104 N 0.38623 0.54884 0.45543 0.0
C105 C 0.53573 0.51642 0.48752 0.0
N106 N 0.46894 0.46717 0.53565 0.0
N107 N 0.2944 0.46151 0.51538 0.0
C108 C 0.98208 0.36466 0.54348 0.0
O109 O 1.10428 0.3744 0.61372 0.0
O110 O 0.76962 0.40487 0.65481 0.0
Zn111 Zn 0.27962 0.38123 0.44985 0.0
N112 N 0.46694 0.46495 0.78959 0.0
C113 C 0.26477 0.47006 0.93705 0.0
C114 C 0.29974 0.4541 0.83393 0.0
C115 C 0.60082 0.49154 0.84368 0.0
N116 N 0.39708 0.49748 -0.00903 0.0
C117 C 0.56496 0.50908 0.94726 0.0
O118 O 0.37664 0.30805 0.52838 0.0
C119 C 0.40275 0.29976 0.62473 0.0
O120 O 0.42104 0.34277 0.68657 0.0
H121 H 0.19799 0.43038 0.79118 0.0
H122 H 0.73497 0.49688 0.80726 0.0
C123 C 0.34622 0.32045 0.2666 0.0
C124 C 0.41678 0.3073 0.16684 0.0
C125 C 0.54812 0.40259 0.1577 0.0
C126 C 0.47569 0.41586 0.25684 0.0
N127 N 0.37562 0.37439 0.30906 0.0
N128 N 0.51638 0.34893 0.11463 0.0
H129 H 0.27059 0.28768 0.31146 0.0
C130 C 0.79899 0.37553 0.5725 0.0
O131 O 0.67272 0.36975 0.50299 0.0
O132 O 1.02665 0.36407 0.4479 0.0
H133 H 0.50229 0.45807 0.29232 0.0
H134 H 1.13472 0.45968 0.97467 0.0
H135 H 0.63423 0.43377 0.11666 0.0
loop_
_geom_bond_atom_site_label_1
_geom_bond_atom_site_label_2
_geom_bond_distance
_geom_bond_site_symmetry_2
_ccdc_geom_bond_type
Zn0 N4 2.020 . S
Zn0 O8 2.019 . S
Zn0 N10 2.119 . S
Zn0 O18 1.975 . S
C1 N2 1.334 1_545 S
C1 N5 1.336 1_556 S
N2 C1 1.334 1_565 S
N2 C3 1.334 1_566 S
C3 N2 1.334 1_544 S
C3 N4 1.336 . S
N4 Zn0 2.020 . S
N4 C3 1.336 . S
N4 N5 1.354 . S
N5 C1 1.336 1_554 S
N5 N4 1.354 . S
N5 Zn9 2.020 . S
C6 O7 1.244 . S
C6 O30 1.257 . S
O7 C6 1.244 . S
O8 Zn0 2.019 . S
O8 C28 1.257 . S
Zn9 N5 2.020 . S
Zn9 O16 1.975 . S
Zn9 N25 2.119 1_554 S
Zn9 O30 2.019 1_455 S
N10 Zn0 2.119 . S
N10 C12 1.334 . S
N10 C13 1.328 . S
C11 C12 1.391 . S
C11 N14 1.329 1_545 S
C11 H32 0.930 . S
C12 N10 1.334 . S
C12 C11 1.391 . S
C12 H19 0.930 . S
C13 N10 1.328 . S
C13 C15 1.392 1_545 S
C13 H20 0.930 . S
N14 C11 1.329 1_565 S
N14 C15 1.331 . S
C15 C13 1.392 1_565 S
C15 N14 1.331 . S
O16 Zn9 1.975 . S
O16 C17 1.252 . S
C17 O16 1.252 . S
C17 O18 1.252 . S
O18 Zn0 1.975 . S
O18 C17 1.252 . S
H19 C12 0.930 . S
H20 C13 0.930 . S
C21 C22 1.392 . S
C21 N25 1.328 . S
C21 H27 0.930 1_455 S
C22 C21 1.392 . S
C22 N26 1.331 . S
C23 C24 1.391 . S
C23 N26 1.329 . S
C23 H33 0.930 . S
C24 C23 1.391 . S
C24 N25 1.334 . S
C24 H31 0.930 . S
N25 Zn9 2.119 1_556 S
N25 C21 1.328 . S
N25 C24 1.334 . S
N26 C22 1.331 . S
N26 C23 1.329 . S
H27 C21 0.930 1_655 S
C28 O8 1.257 . S
C28 O29 1.244 . S
O29 C28 1.244 . S
O30 C6 1.257 . S
O30 Zn9 2.019 1_655 S
H31 C24 0.930 . S
H32 C11 0.930 . S
H33 C23 0.930 . S
Zn34 N38 2.020 . S
Zn34 O42 2.019 1_655 S
Zn34 N44 2.119 . S
Zn34 O52 1.975 . S
C35 N36 1.334 . S
C35 N39 1.336 . S
N36 C35 1.334 . S
N36 C37 1.334 . S
C37 N36 1.334 . S
C37 N38 1.336 . S
N38 Zn34 2.020 . S
N38 C37 1.336 . S
N38 N39 1.354 . S
N39 C35 1.336 . S
N39 N38 1.354 . S
N39 Zn43 2.020 . S
C40 O41 1.244 . S
C40 O64 1.257 . S
O41 C40 1.244 . S
O42 Zn34 2.019 1_455 S
O42 C62 1.257 . S
Zn43 N39 2.020 . S
Zn43 O50 1.975 . S
Zn43 N59 2.119 . S
Zn43 O64 2.019 . S
N44 Zn34 2.119 . S
N44 C46 1.334 . S
N44 C47 1.328 . S
C45 C46 1.391 . S
C45 N48 1.329 . S
C45 H66 0.930 . S
C46 N44 1.334 . S
C46 C45 1.391 . S
C46 H53 0.930 . S
C47 N44 1.328 . S
C47 C49 1.392 . S
C47 H54 0.930 1_655 S
N48 C45 1.329 . S
N48 C49 1.331 . S
C49 C47 1.392 . S
C49 N48 1.331 . S
O50 Zn43 1.975 . S
O50 C51 1.252 . S
C51 O50 1.252 . S
C51 O52 1.252 . S
O52 Zn34 1.975 . S
O52 C51 1.252 . S
H53 C46 0.930 . S
H54 C47 0.930 1_455 S
C55 C56 1.392 . S
C55 N59 1.328 . S
C55 H61 0.930 . S
C56 C55 1.392 . S
C56 N60 1.331 1_554 S
C57 C58 1.391 . S
C57 N60 1.329 1_554 S
C57 H67 0.930 . S
C58 C57 1.391 . S
C58 N59 1.334 . S
C58 H65 0.930 . S
N59 Zn43 2.119 . S
N59 C55 1.328 . S
N59 C58 1.334 . S
N60 C56 1.331 1_556 S
N60 C57 1.329 1_556 S
H61 C55 0.930 . S
C62 O42 1.257 . S
C62 O63 1.244 . S
O63 C62 1.244 . S
O64 C40 1.257 . S
O64 Zn43 2.019 . S
H65 C58 0.930 . S
H66 C45 0.930 . S
H67 C57 0.930 . S
Zn68 N72 2.020 . S
Zn68 O76 2.019 . S
Zn68 N78 2.119 . S
Zn68 O86 1.975 . S
C69 N70 1.334 1_565 S
C69 N73 1.336 1_554 S
N70 C69 1.334 1_545 S
N70 C71 1.334 1_544 S
C71 N70 1.334 1_566 S
C71 N72 1.336 . S
N72 Zn68 2.020 . S
N72 C71 1.336 . S
N72 N73 1.354 . S
N73 C69 1.336 1_556 S
N73 N72 1.354 . S
N73 Zn77 2.020 . S
C74 O75 1.244 . S
C74 O98 1.257 . S
O75 C74 1.244 . S
O76 Zn68 2.019 . S
O76 C96 1.257 . S
Zn77 N73 2.020 . S
Zn77 O84 1.975 . S
Zn77 N93 2.119 1_556 S
Zn77 O98 2.019 1_655 S
N78 Zn68 2.119 . S
N78 C80 1.334 . S
N78 C81 1.328 . S
C79 C80 1.391 . S
C79 N82 1.329 1_565 S
C79 H100 0.930 . S
C80 N78 1.334 . S
C80 C79 1.391 . S
C80 H87 0.930 . S
C81 N78 1.328 . S
C81 C83 1.392 1_565 S
C81 H88 0.930 . S
N82 C79 1.329 1_545 S
N82 C83 1.331 . S
C83 C81 1.392 1_545 S
C83 N82 1.331 . S
O84 Zn77 1.975 . S
O84 C85 1.252 . S
C85 O84 1.252 . S
C85 O86 1.252 . S
O86 Zn68 1.975 . S
O86 C85 1.252 . S
H87 C80 0.930 . S
H88 C81 0.930 . S
C89 C90 1.392 . S
C89 N93 1.328 . S
C89 H95 0.930 1_655 S
C90 C89 1.392 . S
C90 N94 1.331 . S
C91 C92 1.391 . S
C91 N94 1.329 . S
C91 H101 0.930 . S
C92 C91 1.391 . S
C92 N93 1.334 . S
C92 H99 0.930 . S
N93 Zn77 2.119 1_554 S
N93 C89 1.328 . S
N93 C92 1.334 . S
N94 C90 1.331 . S
N94 C91 1.329 . S
H95 C89 0.930 1_455 S
C96 O76 1.257 . S
C96 O97 1.244 . S
O97 C96 1.244 . S
O98 C74 1.257 . S
O98 Zn77 2.019 1_455 S
H99 C92 0.930 . S
H100 C79 0.930 . S
H101 C91 0.930 . S
Zn102 N106 2.020 . S
Zn102 O110 2.019 . S
Zn102 N112 2.119 . S
Zn102 O120 1.975 . S
C103 N104 1.334 . S
C103 N107 1.336 . S
N104 C103 1.334 . S
N104 C105 1.334 . S
C105 N104 1.334 . S
C105 N106 1.336 . S
N106 Zn102 2.020 . S
N106 C105 1.336 . S
N106 N107 1.354 . S
N107 C103 1.336 . S
N107 N106 1.354 . S
N107 Zn111 2.020 . S
C108 O109 1.244 . S
C108 O132 1.257 . S
O109 C108 1.244 . S
O110 Zn102 2.019 . S
O110 C130 1.257 . S
Zn111 N107 2.020 . S
Zn111 O118 1.975 . S
Zn111 N127 2.119 . S
Zn111 O132 2.019 1_455 S
N112 Zn102 2.119 . S
N112 C114 1.334 . S
N112 C115 1.328 . S
C113 C114 1.391 . S
C113 N116 1.329 1_556 S
C113 H134 0.930 . S
C114 N112 1.334 . S
C114 C113 1.391 . S
C114 H121 0.930 . S
C115 N112 1.328 . S
C115 C117 1.392 . S
C115 H122 0.930 . S
N116 C113 1.329 1_554 S
N116 C117 1.331 1_554 S
C117 C115 1.392 . S
C117 N116 1.331 1_556 S
O118 Zn111 1.975 . S
O118 C119 1.252 . S
C119 O118 1.252 . S
C119 O120 1.252 . S
O120 Zn102 1.975 . S
O120 C119 1.252 . S
H121 C114 0.930 . S
H122 C115 0.930 . S
C123 C124 1.392 . S
C123 N127 1.328 . S
C123 H129 0.930 1_455 S
C124 C123 1.392 . S
C124 N128 1.331 . S
C125 C126 1.391 . S
C125 N128 1.329 . S
C125 H135 0.930 . S
C126 C125 1.391 . S
C126 N127 1.334 . S
C126 H133 0.930 . S
N127 Zn111 2.119 . S
N127 C123 1.328 . S
N127 C126 1.334 . S
N128 C124 1.331 . S
N128 C125 1.329 . S
H129 C123 0.930 1_655 S
C130 O110 1.257 . S
C130 O131 1.244 . S
O131 C130 1.244 . S
O132 C108 1.257 . S
O132 Zn111 2.019 1_655 S
H133 C126 0.930 . S
H134 C113 0.930 . S
H135 C125 0.930 . S
C28 C6 1.011 . S
C40 C62 1.011 . S
C74 C96 1.011 . S
C108 C130 1.011 . S
C15 C83 2.385 1_565 S
C117 C56 2.385 1_556 S
C69 C1 3.040 1_664 S
C103 C37 3.040 1_455 S
C22 C119 2.154 . S
C49 C85 2.154 . S
C90 C51 2.154 . S
C124 C17 2.154 . S
C3 C71 2.713 1_544 S
C105 C35 2.713 . S
