# Generated by pormake.
# Topology cds, (4)-cn, num edge types: 1
# Building blocks:
#     Node 0, Type 0, BuildingBlock: KOZSID_clean_sbu_0, # of connection points: 4
#     Node 1, Type 0, BuildingBlock: KOZSID_clean_sbu_0, # of connection points: 4
#     Edge 2, Type (0, 0), None
#     Edge 3, Type (0, 0), None
#     Edge 4, Type (0, 0), None
#     Edge 5, Type (0, 0), None
# Relax obj value: 0.000
# Max RMSD: 0.000
# Mean RMSD: 0.000
data_MOF--net-cds--node1-KOZSID_clean_sbu_0--edge1-none
_symmetry_space_group_name_H-M    P1
_symmetry_Int_Tables_number       1
_symmetry_cell_setting            triclinic
loop_
_symmetry_equiv_pos_as_xyz
'x, y, z'
_cell_length_a     8.348836
_cell_length_b     11.105973
_cell_length_c     19.014438
_cell_angle_alpha  104.16245
_cell_angle_beta   105.24783
_cell_angle_gamma 85.682785
loop_
_atom_site_label
_atom_site_type_symbol
_atom_site_fract_x
_atom_site_fract_y
_atom_site_fract_z
_atom_type_partial_charge
C0 C 0.31446 0.14722 1.00792 0.0
C1 C 0.36145 0.2615 1.00286 0.0
C2 C 0.25629 0.34851 0.03205 0.0
C3 C 0.14435 0.28177 0.0482 0.0
N4 N 0.16908 0.15786 0.02863 0.0
Co5 Co 3e-05 0.02767 0.01128 0.0
N6 N 0.83909 0.15268 0.04994 0.0
C7 C 0.87146 0.27315 0.08398 0.0
C8 C 0.7634 0.32601 0.12649 0.0
C9 C 0.65282 0.23442 0.11662 0.0
C10 C 0.69289 0.13373 0.06424 0.0
N11 N 0.83103 0.89748 0.99397 0.0
C12 C 0.68552 0.90812 0.01456 0.0
C13 C 0.63845 0.79382 0.01956 0.0
C14 C 0.74362 0.70681 0.99038 0.0
C15 C 0.85566 0.77357 0.97431 0.0
N16 N 0.16097 0.90266 0.97261 0.0
C17 C 0.1286 0.78219 0.93857 0.0
C18 C 0.23657 0.72937 0.896 0.0
C19 C 0.3471 0.82098 0.90584 0.0
C20 C 0.3071 0.92163 0.95825 0.0
N21 N 0.09263 1.00331 0.11489 0.0
C22 C 0.10168 0.97367 0.25837 0.0
C23 C 0.10478 0.8702 0.19975 0.0
C24 C 0.10538 0.88716 0.12908 0.0
C25 C 0.11927 0.09089 0.24682 0.0
C26 C 0.11917 0.10314 0.17527 0.0
N27 N 0.90744 0.05204 0.90767 0.0
C28 C 0.88084 0.96446 0.77574 0.0
C29 C 0.89843 0.08169 0.7642 0.0
C30 C 0.89528 0.18515 0.82281 0.0
C31 C 0.89465 0.16818 0.89347 0.0
C32 C 0.88092 0.95221 0.84728 0.0
H33 H 0.8908 0.24981 0.9366 0.0
H34 H 0.86718 0.86077 0.8534 0.0
H35 H 0.10916 0.80553 0.08595 0.0
H36 H 0.13289 0.19458 0.16914 0.0
C37 C 0.00933 0.33087 0.07767 0.0
C38 C 0.41335 0.03091 0.99775 0.0
C39 C 0.58665 1.02445 0.02473 0.0
C40 C 0.9907 0.72448 0.94486 0.0
H41 H 0.46605 0.2805 0.98374 0.0
H42 H 0.25976 0.44818 0.03956 0.0
H43 H 0.76583 0.41929 0.16125 0.0
H44 H 0.54919 0.24294 0.14186 0.0
H45 H 0.53379 0.7748 0.03864 0.0
H46 H 0.74008 0.60714 0.98282 0.0
H47 H 0.23409 0.63611 0.86121 0.0
H48 H 0.45067 0.81249 0.88057 0.0
H49 H 0.09951 0.77728 0.20751 0.0
H50 H 0.12567 0.17328 0.29176 0.0
H51 H 0.87447 0.88207 0.7308 0.0
H52 H 0.90053 0.27808 0.81505 0.0
C53 C 0.10272 0.06525 0.68291 0.0
C54 C 0.23811 0.04995 0.74084 0.0
C55 C 0.36569 1.00573 0.70879 0.0
C56 C 0.3015 0.99735 0.63355 0.0
N57 N 0.14252 0.03669 0.6156 0.0
Co58 Co 8e-05 0.02769 0.51129 0.0
N59 N 0.19167 0.96975 0.46525 0.0
C60 C 0.33904 0.92788 0.50054 0.0
C61 C 0.43849 0.87564 0.4537 0.0
C62 C 0.3496 0.886 0.38395 0.0
C63 C 0.20001 0.94258 0.3924 0.0
N64 N 0.85764 1.01872 0.40697 0.0
C65 C 0.8974 0.99004 0.33965 0.0
C66 C 0.76195 1.00517 0.28171 0.0
C67 C 0.63434 0.04934 0.31376 0.0
C68 C 0.69858 0.05786 0.38901 0.0
N69 N 0.80848 0.08564 0.55732 0.0
C70 C 0.66108 0.12745 0.52202 0.0
C71 C 0.56161 0.17966 0.56886 0.0
C72 C 0.65052 0.16935 0.63861 0.0
C73 C 0.80014 0.11282 0.63017 0.0
N74 N 0.04483 0.20504 0.51962 0.0
C75 C 0.01603 0.46037 0.51436 0.0
C76 C 0.00912 0.42122 0.57878 0.0
C77 C 0.02541 0.29511 0.58043 0.0
C78 C 0.05761 0.36747 0.45649 0.0
C79 C 0.07268 0.2427 0.46067 0.0
N80 N 0.95532 0.85034 0.50295 0.0
C81 C 0.94245 0.68791 0.56607 0.0
C82 C 0.98411 0.59502 0.50822 0.0
C83 C 0.99111 0.63417 0.4438 0.0
C84 C 0.9748 0.76027 0.44216 0.0
C85 C 0.92739 0.81268 0.56189 0.0
H86 H 0.98448 0.78403 0.39209 0.0
H87 H 0.89773 0.87805 0.60794 0.0
H88 H 0.01578 0.27135 0.6305 0.0
H89 H 0.10227 0.17732 0.4146 0.0
C90 C 0.38206 0.94347 0.57792 0.0
C91 C 0.93486 0.09396 0.69357 0.0
C92 C 0.06527 0.96141 0.329 0.0
C93 C 0.61802 0.11175 0.44463 0.0
H94 H 0.24169 0.06336 0.79959 0.0
H95 H 0.48834 0.97778 0.7366 0.0
H96 H 0.56196 0.83644 0.46864 0.0
H97 H 0.38868 0.85345 0.3325 0.0
H98 H 0.75834 0.99167 0.22295 0.0
H99 H 0.51163 0.07716 0.28594 0.0
H100 H 0.4381 0.21879 0.55391 0.0
H101 H 0.61142 0.20187 0.69006 0.0
H102 H 0.98864 0.48525 0.62834 0.0
H103 H 0.07681 0.38766 0.4067 0.0
H104 H 0.92315 0.66769 0.61583 0.0
H105 H 0.01169 0.57016 0.39427 0.0
loop_
_geom_bond_atom_site_label_1
_geom_bond_atom_site_label_2
_geom_bond_distance
_geom_bond_site_symmetry_2
_ccdc_geom_bond_type
C0 C1 1.443 . S
C0 N4 1.376 . S
C0 C38 1.389 . S
C1 C0 1.443 . S
C1 C2 1.340 . S
C1 H41 0.951 . S
C2 C1 1.340 . S
C2 C3 1.439 . S
C2 H42 0.950 . S
C3 C2 1.439 . S
C3 N4 1.374 . S
C3 C37 1.395 1_455 S
N4 C0 1.376 . S
N4 C3 1.374 . S
N4 Co5 2.010 . S
Co5 N4 2.010 . S
Co5 N6 1.996 1_455 S
Co5 N11 2.007 1_444 S
Co5 N16 1.994 1_544 S
Co5 N21 2.282 . S
Co5 N27 2.283 1_444 S
N6 Co5 1.996 1_655 S
N6 C7 1.376 . S
N6 C10 1.383 . S
C7 N6 1.376 . S
C7 C8 1.446 . S
C7 C37 1.391 . S
C8 C7 1.446 . S
C8 C9 1.339 . S
C8 H43 0.949 . S
C9 C8 1.339 . S
C9 C10 1.439 . S
C9 H44 0.950 . S
C10 N6 1.383 . S
C10 C9 1.439 . S
C10 C39 1.392 1_544 S
N11 Co5 2.007 1_666 S
N11 C12 1.376 . S
N11 C15 1.374 . S
C12 N11 1.376 . S
C12 C13 1.443 . S
C12 C39 1.389 . S
C13 C12 1.443 . S
C13 C14 1.340 . S
C13 H45 0.951 . S
C14 C13 1.340 . S
C14 C15 1.439 . S
C14 H46 0.950 . S
C15 N11 1.374 . S
C15 C14 1.439 . S
C15 C40 1.395 1_655 S
N16 Co5 1.994 1_566 S
N16 C17 1.376 . S
N16 C20 1.383 . S
C17 N16 1.376 . S
C17 C18 1.446 . S
C17 C40 1.391 . S
C18 C17 1.446 . S
C18 C19 1.339 . S
C18 H47 0.949 . S
C19 C18 1.339 . S
C19 C20 1.439 . S
C19 H48 0.950 . S
C20 N16 1.383 . S
C20 C19 1.439 . S
C20 C38 1.392 1_566 S
N21 Co5 2.282 . S
N21 C24 1.332 1_545 S
N21 C26 1.332 1_455 S
C22 C23 1.386 1_545 S
C22 C25 1.388 1_455 S
C23 C22 1.386 1_565 S
C23 C24 1.382 . S
C23 H49 0.950 . S
C24 N21 1.332 1_565 S
C24 C23 1.382 . S
C24 H35 0.952 . S
C25 C22 1.388 1_655 S
C25 C26 1.382 . S
C25 H50 0.950 . S
C26 N21 1.332 1_655 S
C26 C25 1.382 . S
C26 H36 0.948 . S
N27 Co5 2.283 1_666 S
N27 C31 1.332 1_565 S
N27 C32 1.332 1_655 S
C28 C29 1.398 1_455 S
C28 C32 1.382 . S
C28 H51 0.950 . S
C29 C28 1.398 1_655 S
C29 C30 1.379 1_565 S
C30 C29 1.379 1_545 S
C30 C31 1.382 . S
C30 H52 0.950 . S
C31 N27 1.332 1_545 S
C31 C30 1.382 . S
C31 H33 0.952 . S
C32 N27 1.332 1_455 S
C32 C28 1.382 . S
C32 H34 0.948 . S
H33 C31 0.952 . S
H34 C32 0.948 . S
H35 C24 0.952 . S
H36 C26 0.948 . S
C37 C3 1.395 1_655 S
C37 C7 1.391 . S
C38 C0 1.389 . S
C38 C20 1.392 1_544 S
C39 C10 1.392 1_566 S
C39 C12 1.389 . S
C40 C15 1.395 1_455 S
C40 C17 1.391 . S
H41 C1 0.951 . S
H42 C2 0.950 . S
H43 C8 0.949 . S
H44 C9 0.950 . S
H45 C13 0.951 . S
H46 C14 0.950 . S
H47 C18 0.949 . S
H48 C19 0.950 . S
H49 C23 0.950 . S
H50 C25 0.950 . S
H51 C28 0.950 . S
H52 C30 0.950 . S
C53 C54 1.443 . S
C53 N57 1.376 1_565 S
C53 C91 1.389 1_565 S
C54 C53 1.443 . S
C54 C55 1.340 . S
C54 H94 0.951 . S
C55 C54 1.340 . S
C55 C56 1.439 . S
C55 H95 0.950 . S
C56 C55 1.439 . S
C56 N57 1.374 1_565 S
C56 C90 1.395 . S
N57 C53 1.376 1_545 S
N57 C56 1.374 1_545 S
N57 Co58 2.008 . S
Co58 N57 2.008 . S
Co58 N59 1.995 1_545 S
Co58 N64 2.008 1_445 S
Co58 N69 1.994 1_455 S
Co58 N74 2.284 . S
Co58 N80 2.281 1_445 S
N59 Co58 1.995 1_565 S
N59 C60 1.376 . S
N59 C63 1.383 . S
C60 N59 1.376 . S
C60 C61 1.446 . S
C60 C90 1.391 . S
C61 C60 1.446 . S
C61 C62 1.339 . S
C61 H96 0.949 . S
C62 C61 1.339 . S
C62 C63 1.439 . S
C62 H97 0.950 . S
C63 N59 1.383 . S
C63 C62 1.439 . S
C63 C92 1.392 1_455 S
N64 Co58 2.008 1_665 S
N64 C65 1.376 1_565 S
N64 C68 1.374 1_565 S
C65 N64 1.376 1_545 S
C65 C66 1.443 . S
C65 C92 1.389 1_545 S
C66 C65 1.443 . S
C66 C67 1.340 . S
C66 H98 0.951 . S
C67 C66 1.340 . S
C67 C68 1.439 . S
C67 H99 0.950 . S
C68 N64 1.374 1_545 S
C68 C67 1.439 . S
C68 C93 1.395 . S
N69 Co58 1.994 1_655 S
N69 C70 1.376 . S
N69 C73 1.383 . S
C70 N69 1.376 . S
C70 C71 1.446 . S
C70 C93 1.391 . S
C71 C70 1.446 . S
C71 C72 1.339 . S
C71 H100 0.949 . S
C72 C71 1.339 . S
C72 C73 1.439 . S
C72 H101 0.950 . S
C73 N69 1.383 . S
C73 C72 1.439 . S
C73 C91 1.392 1_655 S
N74 Co58 2.284 . S
N74 C77 1.332 1_455 S
N74 C79 1.332 . S
C75 C76 1.386 1_455 S
C75 C78 1.388 . S
C76 C75 1.386 1_655 S
C76 C77 1.382 . S
C76 H102 0.950 . S
C77 N74 1.332 1_655 S
C77 C76 1.382 . S
C77 H88 0.952 . S
C78 C75 1.388 . S
C78 C79 1.382 . S
C78 H103 0.950 . S
C79 N74 1.332 . S
C79 C78 1.382 . S
C79 H89 0.948 . S
N80 Co58 2.281 1_665 S
N80 C84 1.332 1_655 S
N80 C85 1.332 . S
C81 C82 1.388 . S
C81 C85 1.382 . S
C81 H104 0.950 . S
C82 C81 1.388 . S
C82 C83 1.386 1_655 S
C83 C82 1.386 1_455 S
C83 C84 1.382 . S
C83 H105 0.950 . S
C84 N80 1.332 1_455 S
C84 C83 1.382 . S
C84 H86 0.952 . S
C85 N80 1.332 . S
C85 C81 1.382 . S
C85 H87 0.948 . S
H86 C84 0.952 . S
H87 C85 0.948 . S
H88 C77 0.952 . S
H89 C79 0.948 . S
C90 C56 1.395 . S
C90 C60 1.391 . S
C91 C53 1.389 1_545 S
C91 C73 1.392 1_455 S
C92 C63 1.392 1_655 S
C92 C65 1.389 1_565 S
C93 C68 1.395 . S
C93 C70 1.391 . S
H94 C54 0.951 . S
H95 C55 0.950 . S
H96 C61 0.949 . S
H97 C62 0.950 . S
H98 C66 0.951 . S
H99 C67 0.950 . S
H100 C71 0.949 . S
H101 C72 0.950 . S
H102 C76 0.950 . S
H103 C78 0.950 . S
H104 C81 0.950 . S
H105 C83 0.950 . S
C22 C92 1.500 1_445 S
C29 C91 1.496 1_665 S
C39 C38 1.500 1_566 S
C82 C75 1.500 1_655 S
