# Generated by pormake.
# Topology pcu, (6)-cn, num edge types: 1
# Building blocks:
#     Node 0, Type 0, BuildingBlock: HISSIN_clean_sbu_0, # of connection points: 6
#     Edge 1, Type (0, 0), None
#     Edge 2, Type (0, 0), None
#     Edge 3, Type (0, 0), None
# Relax obj value: 0.000
# Max RMSD: 0.000
# Mean RMSD: 0.000
data_MOF--net-pcu--node1-HISSIN_clean_sbu_0--edge1-none
_symmetry_space_group_name_H-M    P1
_symmetry_Int_Tables_number       1
_symmetry_cell_setting            triclinic
loop_
_symmetry_equiv_pos_as_xyz
'x, y, z'
_cell_length_a     6.8048964
_cell_length_b     16.967537
_cell_length_c     7.0093537
_cell_angle_alpha  118.90316
_cell_angle_beta   87.137487
_cell_angle_gamma 97.312097
loop_
_atom_site_label
_atom_site_type_symbol
_atom_site_fract_x
_atom_site_fract_y
_atom_site_fract_z
_atom_type_partial_charge
Eu0 Eu 0.96716 0.92737 0.82403 0.0
Eu1 Eu 0.02898 0.15961 0.10165 0.0
C2 C 0.40101 1.04318 0.96381 0.0
C3 C 0.9487 0.68969 0.73957 0.0
C4 C 0.05782 0.72263 0.93318 0.0
C5 C 0.87919 0.54326 0.72636 0.0
C6 C 0.07735 0.66635 0.02317 0.0
C7 C 0.85924 0.59986 0.63689 0.0
C8 C 0.98803 0.5759 0.92128 0.0
C9 C 0.91768 0.7507 0.65324 0.0
O10 O 0.0146 0.11948 0.74563 0.0
O11 O 0.97534 0.96198 0.55392 0.0
C12 C 0.99632 1.04186 0.56436 0.0
O13 O 0.6694 0.97009 0.82063 0.0
O14 O 0.22007 0.28451 0.17446 0.0
O15 O 0.92416 0.2916 0.3051 0.0
O16 O 0.70191 0.11843 0.09835 0.0
C17 C 0.59493 1.04385 0.96119 0.0
O18 O 0.97925 0.96748 0.18011 0.0
O19 O 0.02146 0.12493 0.37159 0.0
O20 O 0.32648 0.11675 0.10501 0.0
O21 O 0.77677 0.80171 0.74556 0.0
O22 O 0.07647 0.79603 0.62684 0.0
O23 O 0.29399 0.96876 0.8262 0.0
C24 C 0.05023 0.40044 0.19464 0.0
C25 C 0.87063 0.39491 0.09576 0.0
C26 C 0.18706 0.522 0.11975 0.0
C27 C 0.84959 0.45249 0.00956 0.0
C28 C 0.20734 0.46498 0.20759 0.0
C29 C 0.00825 0.51617 0.01834 0.0
C30 C 0.08119 0.33614 0.27241 0.0
C31 C -0.00115 0.04508 0.36129 0.0
H32 H 0.12557 0.79238 0.01658 0.0
H33 H 0.81024 0.47381 0.64186 0.0
H34 H 0.15937 0.69439 0.17491 0.0
H35 H 0.77247 0.5738 0.48875 0.0
H36 H 0.74688 0.34557 0.08297 0.0
H37 H 0.31344 0.56917 0.12701 0.0
H38 H 0.70849 0.44727 0.93689 0.0
H39 H 0.34767 0.46996 0.28167 0.0
loop_
_geom_bond_atom_site_label_1
_geom_bond_atom_site_label_2
_geom_bond_distance
_geom_bond_site_symmetry_2
_ccdc_geom_bond_type
Eu0 C9 2.828 . S
Eu0 O11 2.392 . S
Eu0 O13 2.418 . S
Eu0 O18 2.373 1_556 S
Eu0 O21 2.488 . S
Eu0 O22 2.471 1_655 S
Eu0 O23 2.349 1_655 S
Eu1 O10 2.373 1_554 S
Eu1 O14 2.488 . S
Eu1 O15 2.471 1_455 S
Eu1 O16 2.349 1_455 S
Eu1 O19 2.392 . S
Eu1 O20 2.418 . S
Eu1 C30 2.828 . S
C2 O20 1.244 . S
C2 O23 1.265 1_544 S
C3 C4 1.379 1_656 S
C3 C7 1.373 . S
C3 C9 1.505 . S
C4 C3 1.379 1_454 S
C4 C6 1.369 . S
C4 H32 0.930 . S
C5 C7 1.383 . S
C5 C8 1.382 . S
C5 H33 0.930 . S
C6 C4 1.369 . S
C6 C8 1.392 1_454 S
C6 H34 0.930 . S
C7 C3 1.373 . S
C7 C5 1.383 . S
C7 H35 0.931 . S
C8 C5 1.382 . S
C8 C6 1.392 1_656 S
C9 Eu0 2.828 . S
C9 C3 1.505 . S
C9 O21 1.249 . S
C9 O22 1.244 1_655 S
O10 Eu1 2.373 1_556 S
O10 C12 1.258 1_545 S
O11 Eu0 2.392 . S
O11 C12 1.242 1_655 S
C12 O10 1.258 1_565 S
C12 O11 1.242 1_455 S
O13 Eu0 2.418 . S
O13 C17 1.244 . S
O14 Eu1 2.488 . S
O14 C30 1.249 . S
O15 Eu1 2.471 1_655 S
O15 C30 1.244 1_655 S
O16 Eu1 2.349 1_655 S
O16 C17 1.265 1_544 S
C17 O13 1.244 . S
C17 O16 1.265 1_566 S
O18 Eu0 2.373 1_554 S
O18 C31 1.258 1_565 S
O19 Eu1 2.392 . S
O19 C31 1.242 1_455 S
O20 Eu1 2.418 . S
O20 C2 1.244 . S
O21 Eu0 2.488 . S
O21 C9 1.249 . S
O22 Eu0 2.471 1_455 S
O22 C9 1.244 1_455 S
O23 Eu0 2.349 1_455 S
O23 C2 1.265 1_566 S
C24 C25 1.379 1_454 S
C24 C28 1.373 . S
C24 C30 1.505 . S
C25 C24 1.379 1_656 S
C25 C27 1.369 . S
C25 H36 0.930 . S
C26 C28 1.383 . S
C26 C29 1.382 . S
C26 H37 0.930 . S
C27 C25 1.369 . S
C27 C29 1.392 1_656 S
C27 H38 0.930 . S
C28 C24 1.373 . S
C28 C26 1.383 . S
C28 H39 0.931 . S
C29 C26 1.382 . S
C29 C27 1.392 1_454 S
C30 Eu1 2.828 . S
C30 O14 1.249 . S
C30 O15 1.244 1_455 S
C30 C24 1.505 . S
C31 O18 1.258 1_545 S
C31 O19 1.242 1_655 S
H32 C4 0.930 . S
H33 C5 0.930 . S
H34 C6 0.930 . S
H35 C7 0.931 . S
H36 C25 0.930 . S
H37 C26 0.930 . S
H38 C27 0.930 . S
H39 C28 0.931 . S
C31 C12 1.500 1_645 S
C2 C17 1.500 1_544 S
C8 C29 1.500 1_656 S
