# Generated by pormake.
# Topology bsn, (6)-cn, num edge types: 1
# Building blocks:
#     Node 0, Type 0, BuildingBlock: MIDCAF_clean_sbu_0, # of connection points: 6
#     Node 1, Type 0, BuildingBlock: MIDCAF_clean_sbu_0, # of connection points: 6
#     Node 2, Type 0, BuildingBlock: MIDCAF_clean_sbu_0, # of connection points: 6
#     Node 3, Type 0, BuildingBlock: MIDCAF_clean_sbu_0, # of connection points: 6
#     Edge 4, Type (0, 0), None
#     Edge 5, Type (0, 0), None
#     Edge 6, Type (0, 0), None
#     Edge 7, Type (0, 0), None
#     Edge 8, Type (0, 0), None
#     Edge 9, Type (0, 0), None
#     Edge 10, Type (0, 0), None
#     Edge 11, Type (0, 0), None
#     Edge 12, Type (0, 0), None
#     Edge 13, Type (0, 0), None
#     Edge 14, Type (0, 0), None
#     Edge 15, Type (0, 0), None
# Relax obj value: 0.106
# Max RMSD: 0.165
# Mean RMSD: 0.164
data_MOF--net-bsn--node1-MIDCAF_clean_sbu_0--edge1-none
_symmetry_space_group_name_H-M    P1
_symmetry_Int_Tables_number       1
_symmetry_cell_setting            triclinic
loop_
_symmetry_equiv_pos_as_xyz
'x, y, z'
_cell_length_a     14.172018
_cell_length_b     14.218836
_cell_length_c     7.1318828
_cell_angle_alpha  90.393945
_cell_angle_beta   95.358093
_cell_angle_gamma 89.437287
loop_
_atom_site_label
_atom_site_type_symbol
_atom_site_fract_x
_atom_site_fract_y
_atom_site_fract_z
_atom_type_partial_charge
Zn0 Zn 0.8563 0.07693 0.10838 0.0
Zn1 Zn 0.14758 0.35279 0.71435 0.0
Zn2 Zn 0.02101 0.27163 0.38003 0.0
C3 C 0.0331 0.46984 0.51404 0.0
C4 C 0.23152 0.34054 0.34735 0.0
O5 O 0.05739 0.13356 0.50809 0.0
O6 O 0.91378 0.10552 0.38507 0.0
C7 C 0.79507 0.26587 0.14602 0.0
O8 O 0.05739 0.41819 0.37943 0.0
O9 O 0.0268 0.43137 0.67007 0.0
O10 O 0.2502 0.34821 0.52401 0.0
O11 O 0.14602 0.32887 0.27631 0.0
O12 O 0.77026 0.19284 0.05049 0.0
O13 O 0.87874 0.26793 0.23255 0.0
O14 O 0.99084 0.1895 0.13516 0.0
O15 O 0.94779 0.09311 0.90564 0.0
C16 C -0.00143 0.16142 0.96773 0.0
O17 O 0.02072 0.22103 0.66935 0.0
O18 O 0.12798 0.25541 0.90456 0.0
C19 C 0.99258 0.07369 0.45729 0.0
C20 C 0.05359 0.21313 0.84222 0.0
Zn21 Zn 0.88831 0.82712 0.31037 0.0
Zn22 Zn 0.19783 0.57887 0.90097 0.0
Zn23 Zn 0.01948 0.77206 0.62071 0.0
C24 C 0.24152 0.75254 0.8162 0.0
C25 C 0.06215 0.56739 0.52621 0.0
O26 O 0.8892 0.80431 0.73711 0.0
O27 O 0.78475 0.82998 0.4929 0.0
C28 C 0.01001 0.97313 0.43981 0.0
O29 O 0.15018 0.75408 0.80279 0.0
O30 O 0.28077 0.70009 0.94425 0.0
O31 O 0.14119 0.58694 0.61547 0.0
O32 O 0.00207 0.63431 0.4858 0.0
O33 O 0.97187 0.93744 0.28974 0.0
O34 O 0.02529 0.92263 0.58695 0.0
O35 O 0.02474 0.71884 0.329 0.0
O36 O 0.90747 0.73615 0.1041 0.0
C37 C 0.98983 0.70705 0.15729 0.0
O38 O 0.05725 0.68781 0.86435 0.0
O39 O 0.10211 0.59226 0.09421 0.0
C40 C 0.8045 0.82254 0.66958 0.0
C41 C 0.04754 0.65789 0.03032 0.0
Zn42 Zn 0.33821 0.58323 0.55958 0.0
Zn43 Zn 0.64068 0.84007 0.15744 0.0
Zn44 Zn 0.51724 0.76898 0.82714 0.0
C45 C 0.53854 0.70846 0.28599 0.0
C46 C 0.54275 0.96444 0.95505 0.0
O47 O 0.47434 0.68951 0.57903 0.0
O48 O 0.42429 0.59639 0.34739 0.0
C49 C 0.49829 0.56517 0.89187 0.0
O50 O 0.50755 0.71712 0.11234 0.0
O51 O 0.6136 0.74857 0.3517 0.0
O52 O 0.52029 0.9195 0.09455 0.0
O53 O 0.56743 0.91529 0.81763 0.0
O54 O 0.41618 0.59521 0.83132 0.0
O55 O 0.56063 0.62732 0.94598 0.0
O56 O 0.38267 0.75958 0.65777 0.0
O57 O 0.25469 0.70692 0.51062 0.0
C58 C 0.29158 0.75685 0.64485 0.0
O59 O 0.64095 0.83032 0.72394 0.0
O60 O 0.74521 0.82011 0.97246 0.0
C61 C 0.47983 0.66102 0.41028 0.0
C62 C 0.72718 0.82524 0.79503 0.0
Zn63 Zn 0.65388 0.14758 0.35569 0.0
Zn64 Zn 0.38019 0.3195 0.87037 0.0
Zn65 Zn 0.51149 0.26907 0.10498 0.0
C66 C 0.43194 0.18493 0.68302 0.0
C67 C 0.51391 0.46216 0.89228 0.0
O68 O 0.45679 0.23106 0.37396 0.0
O69 O 0.55103 0.12209 0.51905 0.0
C70 C 0.58305 0.05711 0.00349 0.0
O71 O 0.48993 0.1952 0.83156 0.0
O72 O 0.35013 0.21976 0.67888 0.0
O73 O 0.45836 0.42006 0.77231 0.0
O74 O 0.54845 0.41736 0.03985 0.0
O75 O 0.65192 0.0575 0.13049 0.0
O76 O 0.52725 0.1288 -0.01679 0.0
O77 O 0.6466 0.34085 0.11014 0.0
O78 O 0.69891 0.2845 0.37945 0.0
C79 C 0.71784 0.31833 0.22488 0.0
O80 O 0.38957 0.299 0.27272 0.0
O81 O 0.2868 0.35632 0.04973 0.0
C82 C 0.4757 0.17106 0.50805 0.0
C83 C 0.30809 0.33655 0.22075 0.0
loop_
_geom_bond_atom_site_label_1
_geom_bond_atom_site_label_2
_geom_bond_distance
_geom_bond_site_symmetry_2
_ccdc_geom_bond_type
Zn0 O6 1.920 . S
Zn0 O12 1.898 . S
Zn0 O15 1.905 1_554 S
Zn1 O9 1.905 . S
Zn1 O10 1.898 . S
Zn1 O18 1.920 . S
Zn2 O5 2.080 . S
Zn2 O8 2.114 . S
Zn2 O11 2.120 . S
Zn2 O13 2.120 1_455 S
Zn2 O14 2.114 . S
Zn2 O17 2.080 . S
C3 O8 1.166 . S
C3 O9 1.182 . S
C4 O10 1.167 . S
C4 O11 1.299 . S
O5 Zn2 2.080 . S
O5 C19 1.305 1_455 S
O6 Zn0 1.920 . S
O6 C19 1.234 . S
C7 O12 1.167 . S
C7 O13 1.299 . S
O8 Zn2 2.114 . S
O8 C3 1.166 . S
O9 Zn1 1.905 . S
O9 C3 1.182 . S
O10 Zn1 1.898 . S
O10 C4 1.167 . S
O11 Zn2 2.120 . S
O11 C4 1.299 . S
O12 Zn0 1.898 . S
O12 C7 1.167 . S
O13 Zn2 2.120 1_655 S
O13 C7 1.299 . S
O14 Zn2 2.114 . S
O14 C16 1.166 1_554 S
O15 Zn0 1.905 1_556 S
O15 C16 1.182 1_655 S
C16 O14 1.166 1_556 S
C16 O15 1.182 1_455 S
O17 Zn2 2.080 . S
O17 C20 1.305 . S
O18 Zn1 1.920 . S
O18 C20 1.234 . S
C19 O5 1.305 1_655 S
C19 O6 1.234 . S
C20 O17 1.305 . S
C20 O18 1.234 . S
Zn21 O27 1.920 . S
Zn21 O33 1.898 . S
Zn21 O36 1.905 . S
Zn22 O30 1.905 . S
Zn22 O31 1.898 . S
Zn22 O39 1.920 1_556 S
Zn23 O26 2.080 1_455 S
Zn23 O29 2.114 . S
Zn23 O32 2.120 . S
Zn23 O34 2.120 . S
Zn23 O35 2.114 . S
Zn23 O38 2.080 . S
C24 O29 1.166 . S
C24 O30 1.182 . S
C25 O31 1.167 . S
C25 O32 1.301 . S
O26 Zn23 2.080 1_655 S
O26 C40 1.305 . S
O27 Zn21 1.920 . S
O27 C40 1.234 . S
C28 O33 1.167 1_455 S
C28 O34 1.299 . S
O29 Zn23 2.114 . S
O29 C24 1.166 . S
O30 Zn22 1.905 . S
O30 C24 1.182 . S
O31 Zn22 1.898 . S
O31 C25 1.167 . S
O32 Zn23 2.120 . S
O32 C25 1.301 . S
O33 Zn21 1.898 . S
O33 C28 1.167 1_655 S
O34 Zn23 2.120 . S
O34 C28 1.299 . S
O35 Zn23 2.114 . S
O35 C37 1.166 1_455 S
O36 Zn21 1.905 . S
O36 C37 1.182 . S
C37 O35 1.166 1_655 S
C37 O36 1.182 . S
O38 Zn23 2.080 . S
O38 C41 1.305 1_556 S
O39 Zn22 1.920 1_554 S
O39 C41 1.234 . S
C40 O26 1.305 . S
C40 O27 1.234 . S
C41 O38 1.305 1_554 S
C41 O39 1.234 . S
Zn42 O48 1.920 . S
Zn42 O54 1.898 . S
Zn42 O57 1.905 . S
Zn43 O51 1.905 . S
Zn43 O52 1.898 . S
Zn43 O60 1.920 1_554 S
Zn44 O47 2.080 . S
Zn44 O50 2.114 1_556 S
Zn44 O53 2.120 . S
Zn44 O55 2.120 . S
Zn44 O56 2.114 . S
Zn44 O59 2.080 . S
C45 O50 1.166 . S
C45 O51 1.182 . S
C46 O52 1.167 1_556 S
C46 O53 1.299 . S
O47 Zn44 2.080 . S
O47 C61 1.305 . S
O48 Zn42 1.920 . S
O48 C61 1.234 . S
C49 O54 1.167 . S
C49 O55 1.299 . S
O50 Zn44 2.114 1_554 S
O50 C45 1.166 . S
O51 Zn43 1.905 . S
O51 C45 1.182 . S
O52 Zn43 1.898 . S
O52 C46 1.167 1_554 S
O53 Zn44 2.120 . S
O53 C46 1.299 . S
O54 Zn42 1.898 . S
O54 C49 1.167 . S
O55 Zn44 2.120 . S
O55 C49 1.299 . S
O56 Zn44 2.114 . S
O56 C58 1.166 . S
O57 Zn42 1.905 . S
O57 C58 1.182 . S
C58 O56 1.166 . S
C58 O57 1.182 . S
O59 Zn44 2.080 . S
O59 C62 1.305 . S
O60 Zn43 1.920 1_556 S
O60 C62 1.234 . S
C61 O47 1.305 . S
C61 O48 1.234 . S
C62 O59 1.305 . S
C62 O60 1.234 . S
Zn63 O69 1.920 . S
Zn63 O75 1.898 . S
Zn63 O78 1.905 . S
Zn64 O72 1.905 . S
Zn64 O73 1.898 . S
Zn64 O81 1.920 1_556 S
Zn65 O68 2.080 . S
Zn65 O71 2.114 1_554 S
Zn65 O74 2.120 . S
Zn65 O76 2.120 . S
Zn65 O77 2.114 . S
Zn65 O80 2.080 . S
C66 O71 1.166 . S
C66 O72 1.182 . S
C67 O73 1.167 1_554 S
C67 O74 1.299 . S
O68 Zn65 2.080 . S
O68 C82 1.305 . S
O69 Zn63 1.920 . S
O69 C82 1.234 . S
C70 O75 1.167 . S
C70 O76 1.299 . S
O71 Zn65 2.114 1_556 S
O71 C66 1.166 . S
O72 Zn64 1.905 . S
O72 C66 1.182 . S
O73 Zn64 1.898 . S
O73 C67 1.167 1_556 S
O74 Zn65 2.120 . S
O74 C67 1.299 . S
O75 Zn63 1.898 . S
O75 C70 1.167 . S
O76 Zn65 2.120 . S
O76 C70 1.299 . S
O77 Zn65 2.114 . S
O77 C79 1.166 . S
O78 Zn63 1.905 . S
O78 C79 1.182 . S
C79 O77 1.166 . S
C79 O78 1.182 . S
O80 Zn65 2.080 . S
O80 C83 1.305 . S
O81 Zn64 1.920 1_554 S
O81 C83 1.234 . S
C82 O68 1.305 . S
C82 O69 1.234 . S
C83 O80 1.305 . S
C83 O81 1.234 . S
C3 C25 1.368 . S
C62 C40 1.857 . S
C67 C49 1.324 1_554 S
C7 C79 1.228 . S
C83 C4 1.885 . S
C58 C24 1.266 . S
C46 C70 1.321 1_566 S
C28 C19 1.321 1_465 S
C16 C20 1.520 . S
C41 C37 1.492 1_455 S
C45 C61 1.509 . S
C82 C66 1.495 . S
