# Generated by pormake.
# Topology uot, (4)-cn, num edge types: 1
# Building blocks:
#     Node 0, Type 0, BuildingBlock: NAHDIM_clean_sbu_0, # of connection points: 4
#     Node 1, Type 0, BuildingBlock: NAHDIM_clean_sbu_0, # of connection points: 4
#     Node 2, Type 0, BuildingBlock: NAHDIM_clean_sbu_0, # of connection points: 4
#     Node 3, Type 0, BuildingBlock: NAHDIM_clean_sbu_0, # of connection points: 4
#     Node 4, Type 0, BuildingBlock: NAHDIM_clean_sbu_0, # of connection points: 4
#     Node 5, Type 0, BuildingBlock: NAHDIM_clean_sbu_0, # of connection points: 4
#     Node 6, Type 0, BuildingBlock: NAHDIM_clean_sbu_0, # of connection points: 4
#     Node 7, Type 0, BuildingBlock: NAHDIM_clean_sbu_0, # of connection points: 4
#     Node 8, Type 0, BuildingBlock: NAHDIM_clean_sbu_0, # of connection points: 4
#     Node 9, Type 0, BuildingBlock: NAHDIM_clean_sbu_0, # of connection points: 4
#     Node 10, Type 0, BuildingBlock: NAHDIM_clean_sbu_0, # of connection points: 4
#     Node 11, Type 0, BuildingBlock: NAHDIM_clean_sbu_0, # of connection points: 4
#     Node 12, Type 0, BuildingBlock: NAHDIM_clean_sbu_0, # of connection points: 4
#     Node 13, Type 0, BuildingBlock: NAHDIM_clean_sbu_0, # of connection points: 4
#     Node 14, Type 0, BuildingBlock: NAHDIM_clean_sbu_0, # of connection points: 4
#     Node 15, Type 0, BuildingBlock: NAHDIM_clean_sbu_0, # of connection points: 4
#     Edge 16, Type (0, 0), None
#     Edge 17, Type (0, 0), None
#     Edge 18, Type (0, 0), None
#     Edge 19, Type (0, 0), None
#     Edge 20, Type (0, 0), None
#     Edge 21, Type (0, 0), None
#     Edge 22, Type (0, 0), None
#     Edge 23, Type (0, 0), None
#     Edge 24, Type (0, 0), None
#     Edge 25, Type (0, 0), None
#     Edge 26, Type (0, 0), None
#     Edge 27, Type (0, 0), None
#     Edge 28, Type (0, 0), None
#     Edge 29, Type (0, 0), None
#     Edge 30, Type (0, 0), None
#     Edge 31, Type (0, 0), None
#     Edge 32, Type (0, 0), None
#     Edge 33, Type (0, 0), None
#     Edge 34, Type (0, 0), None
#     Edge 35, Type (0, 0), None
#     Edge 36, Type (0, 0), None
#     Edge 37, Type (0, 0), None
#     Edge 38, Type (0, 0), None
#     Edge 39, Type (0, 0), None
#     Edge 40, Type (0, 0), None
#     Edge 41, Type (0, 0), None
#     Edge 42, Type (0, 0), None
#     Edge 43, Type (0, 0), None
#     Edge 44, Type (0, 0), None
#     Edge 45, Type (0, 0), None
#     Edge 46, Type (0, 0), None
#     Edge 47, Type (0, 0), None
# Relax obj value: 0.176
# Max RMSD: 0.211
# Mean RMSD: 0.211
data_MOF--net-uot--node1-NAHDIM_clean_sbu_0--edge1-none
_symmetry_space_group_name_H-M    P1
_symmetry_Int_Tables_number       1
_symmetry_cell_setting            triclinic
loop_
_symmetry_equiv_pos_as_xyz
'x, y, z'
_cell_length_a     21.178142
_cell_length_b     21.177705
_cell_length_c     18.50456
_cell_angle_alpha  89.996282
_cell_angle_beta   89.996223
_cell_angle_gamma 89.999279
loop_
_atom_site_label
_atom_site_type_symbol
_atom_site_fract_x
_atom_site_fract_y
_atom_site_fract_z
_atom_type_partial_charge
C0 C 0.26082 0.30968 0.33152 0.0
O1 O 0.21631 0.30818 0.38086 0.0
O2 O 0.10974 0.37265 0.23852 0.0
Zn3 Zn 0.18512 0.41124 0.28715 0.0
O4 O 0.16285 0.43134 0.39097 0.0
C5 C 0.14723 0.52488 0.23479 0.0
O6 O 0.09909 0.50304 0.27196 0.0
O7 O 0.25922 0.35188 0.28276 0.0
C8 C 0.18229 0.48178 0.42074 0.0
O9 O 0.21862 0.52074 0.38445 0.0
C10 C 0.08349 0.31879 0.24028 0.0
O11 O 0.10644 0.27334 0.28072 0.0
O12 O 0.19806 0.49298 0.23283 0.0
C13 C 0.27162 0.73536 0.61565 0.0
O14 O 0.26861 0.78098 0.56769 0.0
O15 O 0.36391 0.88341 0.64112 0.0
Zn16 Zn 0.39 0.79201 0.62824 0.0
O17 O 0.40978 0.77581 0.52363 0.0
C18 C 0.48901 0.81516 0.73297 0.0
O19 O 0.44952 0.8581 0.75696 0.0
O20 O 0.32069 0.73045 0.65482 0.0
C21 C 0.46171 0.79302 0.49553 0.0
O22 O 0.50278 0.82487 0.53422 0.0
C23 C 0.31873 0.90206 0.681 0.0
O24 O 0.28307 0.86042 0.71413 0.0
O25 O 0.4719 0.77823 0.68249 0.0
C26 C 0.69715 0.64831 0.33152 0.0
O27 O 0.74166 0.6498 0.38086 0.0
O28 O 0.84823 0.58534 0.2385 0.0
Zn29 Zn 0.77285 0.54675 0.28716 0.0
O30 O 0.79513 0.52666 0.39097 0.0
C31 C 0.81074 0.4331 0.23482 0.0
O32 O 0.85888 0.45494 0.27198 0.0
O33 O 0.69875 0.60611 0.28277 0.0
C34 C 0.77568 0.47622 0.42076 0.0
O35 O 0.73935 0.43726 0.38449 0.0
C36 C 0.87448 0.63919 0.24026 0.0
O37 O 0.85154 0.68464 0.28072 0.0
O38 O 0.75991 0.465 0.23286 0.0
C39 C 0.68635 0.22265 0.61564 0.0
O40 O 0.68938 0.17703 0.56768 0.0
O41 O 0.59406 0.07458 0.6411 0.0
Zn42 Zn 0.56798 0.16599 0.62822 0.0
O43 O 0.5482 0.18219 0.5236 0.0
C44 C 0.46895 0.14284 0.73295 0.0
O45 O 0.50844 0.0999 0.75695 0.0
O46 O 0.63727 0.22754 0.65481 0.0
C47 C 0.49627 0.16498 0.49551 0.0
O48 O 0.4552 0.13312 0.53422 0.0
C49 C 0.63924 0.05593 0.68098 0.0
O50 O 0.6749 0.09757 0.7141 0.0
O51 O 0.48607 0.17976 0.68246 0.0
C52 C 0.22263 0.68636 0.61563 0.0
O53 O 0.17702 0.6894 0.56767 0.0
O54 O 0.07457 0.59408 0.6411 0.0
Zn55 Zn 0.16597 0.56799 0.62821 0.0
O56 O 0.18217 0.54821 0.5236 0.0
C57 C 0.14282 0.46896 0.73295 0.0
O58 O 0.09988 0.50845 0.75695 0.0
O59 O 0.22753 0.63729 0.65481 0.0
C60 C 0.16496 0.49628 0.49551 0.0
O61 O 0.13311 0.45521 0.53422 0.0
C62 C 0.05592 0.63925 0.68098 0.0
O63 O 0.09756 0.67492 0.71409 0.0
O64 O 0.17974 0.48608 0.68246 0.0
C65 C 0.6483 0.69715 0.33152 0.0
O66 O 0.64979 0.74167 0.38086 0.0
O67 O 0.58533 0.84823 0.23851 0.0
Zn68 Zn 0.54674 0.77285 0.28716 0.0
O69 O 0.52665 0.79513 0.39097 0.0
C70 C 0.4331 0.81074 0.23482 0.0
O71 O 0.45493 0.85888 0.27198 0.0
O72 O 0.6061 0.69875 0.28277 0.0
C73 C 0.47621 0.77569 0.42076 0.0
O74 O 0.43725 0.73935 0.38449 0.0
C75 C 0.63918 0.87449 0.24026 0.0
O76 O 0.68462 0.85154 0.28072 0.0
O77 O 0.465 0.75991 0.23286 0.0
C78 C 0.73534 0.27164 0.61565 0.0
O79 O 0.78097 0.26861 0.56769 0.0
O80 O 0.8834 0.36392 0.64112 0.0
Zn81 Zn 0.792 0.39001 0.62824 0.0
O82 O 0.7758 0.40979 0.52363 0.0
C83 C 0.81515 0.48903 0.73297 0.0
O84 O 0.85809 0.44954 0.75696 0.0
O85 O 0.73044 0.3207 0.65483 0.0
C86 C 0.79302 0.46172 0.49553 0.0
O87 O 0.82486 0.5028 0.53422 0.0
C88 C 0.90205 0.31874 0.681 0.0
O89 O 0.86041 0.28308 0.71413 0.0
O90 O 0.77823 0.47191 0.68249 0.0
C91 C 0.30967 0.26083 0.33152 0.0
O92 O 0.30818 0.21631 0.38086 0.0
O93 O 0.37264 0.10975 0.23852 0.0
Zn94 Zn 0.41124 0.18513 0.28715 0.0
O95 O 0.43133 0.16286 0.39097 0.0
C96 C 0.52487 0.14724 0.2348 0.0
O97 O 0.50304 0.0991 0.27196 0.0
O98 O 0.35187 0.25923 0.28277 0.0
C99 C 0.48177 0.18231 0.42074 0.0
O100 O 0.52073 0.21864 0.38445 0.0
C101 C 0.31879 0.0835 0.24027 0.0
O102 O 0.27334 0.10645 0.28072 0.0
O103 O 0.49297 0.19807 0.23283 0.0
C104 C 0.72263 0.77163 0.81862 0.0
O105 O 0.67701 0.76861 0.86658 0.0
O106 O 0.57456 0.86391 0.79314 0.0
Zn107 Zn 0.66597 0.89 0.80603 0.0
O108 O 0.68216 0.90979 0.91064 0.0
C109 C 0.64282 -0.01098 0.70128 0.0
O110 O 0.59988 0.94954 0.67728 0.0
O111 O 0.72752 0.82071 0.77944 0.0
C112 C 0.66496 0.96172 0.93873 0.0
O113 O 0.63313 0.00281 0.90002 0.0
C114 C 0.55592 0.81873 0.75327 0.0
O115 O 0.59755 0.78305 0.72016 0.0
O116 O 0.67973 0.97191 0.75178 0.0
C117 C 0.80969 0.19715 0.10274 0.0
O118 O 0.8082 0.24168 0.0534 0.0
O119 O 0.87264 0.34823 0.19577 0.0
Zn120 Zn 0.91124 0.27285 0.14712 0.0
O121 O 0.93133 0.29514 0.0433 0.0
C122 C 0.02487 0.31075 0.19947 0.0
O123 O 0.00303 0.35889 0.16232 0.0
O124 O 0.85188 0.19875 0.15149 0.0
C125 C -0.01823 0.2757 0.01352 0.0
O126 O 0.02073 0.23936 0.0498 0.0
C127 C 0.81879 0.37448 0.19401 0.0
O128 O 0.77335 0.35155 0.15353 0.0
O129 O -0.00702 0.25991 0.20142 0.0
C130 C 0.23534 0.18636 0.81861 0.0
O131 O 0.28095 0.18938 0.86657 0.0
O132 O 0.3834 0.09408 0.79313 0.0
Zn133 Zn 0.292 0.06798 0.80603 0.0
O134 O 0.2758 0.0482 0.91065 0.0
C135 C 0.31515 0.96897 0.7013 0.0
O136 O 0.35808 0.00846 0.67728 0.0
O137 O 0.23044 0.13728 0.77944 0.0
C138 C 0.29303 -0.00372 0.93874 0.0
O139 O 0.32488 0.95521 0.90005 0.0
C140 C 0.40204 0.13926 0.75326 0.0
O141 O 0.36041 0.17493 0.72014 0.0
O142 O 0.27823 -0.01392 0.75179 0.0
C143 C 0.1483 0.76085 0.10273 0.0
O144 O 0.1498 0.71633 0.05339 0.0
O145 O 0.08533 0.60976 0.19573 0.0
Zn146 Zn 0.04674 0.68514 0.14709 0.0
O147 O 0.02665 0.66287 0.04327 0.0
C148 C 0.9331 0.64724 0.19944 0.0
O149 O 0.95494 0.5991 0.16228 0.0
O150 O 0.1061 0.75924 0.15147 0.0
C151 C 0.97621 0.6823 0.0135 0.0
O152 O 0.93724 0.71863 0.04978 0.0
C153 C 0.13919 0.5835 0.19397 0.0
O154 O 0.18463 0.60644 0.1535 0.0
O155 O 0.965 0.69807 0.2014 0.0
C156 C 0.76084 0.14831 0.10273 0.0
O157 O 0.71633 0.14981 0.05339 0.0
O158 O 0.60975 0.08535 0.19574 0.0
Zn159 Zn 0.68513 0.04675 0.14709 0.0
O160 O 0.66286 0.02666 0.04327 0.0
C161 C 0.64723 0.93311 0.19945 0.0
O162 O 0.59909 0.95495 0.16229 0.0
O163 O 0.75923 0.1061 0.15148 0.0
C164 C 0.68229 0.97622 0.0135 0.0
O165 O 0.71861 0.93724 0.04978 0.0
C166 C 0.58349 0.1392 0.19397 0.0
O167 O 0.60642 0.18464 0.15349 0.0
O168 O 0.69806 0.965 0.2014 0.0
C169 C 0.18634 0.23535 0.81862 0.0
O170 O 0.18937 0.28096 0.86657 0.0
O171 O 0.09406 0.38341 0.79313 0.0
Zn172 Zn 0.06797 0.292 0.80603 0.0
O173 O 0.04819 0.27581 0.91065 0.0
C174 C 0.96896 0.31516 0.7013 0.0
O175 O 0.00845 0.35809 0.67728 0.0
O176 O 0.13727 0.23045 0.77944 0.0
C177 C -0.00373 0.29303 0.93875 0.0
O178 O 0.9552 0.32489 0.90005 0.0
C179 C 0.13924 0.40205 0.75326 0.0
O180 O 0.17492 0.36042 0.72014 0.0
O181 O -0.01393 0.27824 0.75179 0.0
C182 C 0.19715 0.80969 0.10274 0.0
O183 O 0.24167 0.8082 0.0534 0.0
O184 O 0.34822 0.87264 0.19577 0.0
Zn185 Zn 0.27285 0.91124 0.14711 0.0
O186 O 0.29514 0.93134 0.0433 0.0
C187 C 0.31075 0.02487 0.19947 0.0
O188 O 0.35889 0.00303 0.16232 0.0
O189 O 0.19875 0.85189 0.15149 0.0
C190 C 0.27569 -0.01823 0.01352 0.0
O191 O 0.23935 0.02073 0.0498 0.0
C192 C 0.37448 0.81879 0.194 0.0
O193 O 0.35155 0.77335 0.15353 0.0
O194 O 0.25991 -0.00701 0.20142 0.0
C195 C 0.77163 0.72264 0.81863 0.0
O196 O 0.76859 0.67702 0.86659 0.0
O197 O 0.86391 0.57458 0.79314 0.0
Zn198 Zn 0.89 0.66598 0.80603 0.0
O199 O 0.90978 0.68218 0.91064 0.0
C200 C -0.01099 0.64283 0.70128 0.0
O201 O 0.94952 0.59989 0.67728 0.0
O202 O 0.82069 0.72754 0.77944 0.0
C203 C 0.96171 0.66497 0.93872 0.0
O204 O 0.00279 0.63314 0.90002 0.0
C205 C 0.81872 0.55593 0.75328 0.0
O206 O 0.78305 0.59757 0.72016 0.0
O207 O 0.9719 0.67975 0.75177 0.0
loop_
_geom_bond_atom_site_label_1
_geom_bond_atom_site_label_2
_geom_bond_distance
_geom_bond_site_symmetry_2
_ccdc_geom_bond_type
C0 O1 1.160 . S
C0 O7 1.185 . S
O1 C0 1.160 . S
O2 Zn3 1.899 . S
O2 C10 1.284 . S
Zn3 O2 1.899 . S
Zn3 O4 2.032 . S
Zn3 O7 2.086 . S
Zn3 O12 1.977 . S
O4 Zn3 2.032 . S
O4 C8 1.278 . S
C5 O6 1.203 . S
C5 O12 1.267 . S
O6 C5 1.203 . S
O7 C0 1.185 . S
O7 Zn3 2.086 . S
C8 O4 1.278 . S
C8 O9 1.211 . S
O9 C8 1.211 . S
C10 O2 1.284 . S
C10 O11 1.273 . S
O11 C10 1.273 . S
O12 Zn3 1.977 . S
O12 C5 1.267 . S
C13 O14 1.160 . S
C13 O20 1.185 . S
O14 C13 1.160 . S
O15 Zn16 1.899 . S
O15 C23 1.284 . S
Zn16 O15 1.899 . S
Zn16 O17 2.032 . S
Zn16 O20 2.086 . S
Zn16 O25 1.977 . S
O17 Zn16 2.032 . S
O17 C21 1.278 . S
C18 O19 1.203 . S
C18 O25 1.267 . S
O19 C18 1.203 . S
O20 C13 1.185 . S
O20 Zn16 2.086 . S
C21 O17 1.278 . S
C21 O22 1.211 . S
O22 C21 1.211 . S
C23 O15 1.284 . S
C23 O24 1.273 . S
O24 C23 1.273 . S
O25 Zn16 1.977 . S
O25 C18 1.267 . S
C26 O27 1.160 . S
C26 O33 1.185 . S
O27 C26 1.160 . S
O28 Zn29 1.899 . S
O28 C36 1.284 . S
Zn29 O28 1.899 . S
Zn29 O30 2.032 . S
Zn29 O33 2.086 . S
Zn29 O38 1.977 . S
O30 Zn29 2.032 . S
O30 C34 1.278 . S
C31 O32 1.203 . S
C31 O38 1.267 . S
O32 C31 1.203 . S
O33 C26 1.185 . S
O33 Zn29 2.086 . S
C34 O30 1.278 . S
C34 O35 1.211 . S
O35 C34 1.211 . S
C36 O28 1.284 . S
C36 O37 1.273 . S
O37 C36 1.273 . S
O38 Zn29 1.977 . S
O38 C31 1.267 . S
C39 O40 1.160 . S
C39 O46 1.185 . S
O40 C39 1.160 . S
O41 Zn42 1.899 . S
O41 C49 1.284 . S
Zn42 O41 1.899 . S
Zn42 O43 2.032 . S
Zn42 O46 2.086 . S
Zn42 O51 1.977 . S
O43 Zn42 2.032 . S
O43 C47 1.278 . S
C44 O45 1.203 . S
C44 O51 1.267 . S
O45 C44 1.203 . S
O46 C39 1.185 . S
O46 Zn42 2.086 . S
C47 O43 1.278 . S
C47 O48 1.211 . S
O48 C47 1.211 . S
C49 O41 1.284 . S
C49 O50 1.273 . S
O50 C49 1.273 . S
O51 Zn42 1.977 . S
O51 C44 1.267 . S
C52 O53 1.160 . S
C52 O59 1.185 . S
O53 C52 1.160 . S
O54 Zn55 1.899 . S
O54 C62 1.284 . S
Zn55 O54 1.899 . S
Zn55 O56 2.032 . S
Zn55 O59 2.086 . S
Zn55 O64 1.977 . S
O56 Zn55 2.032 . S
O56 C60 1.278 . S
C57 O58 1.203 . S
C57 O64 1.267 . S
O58 C57 1.203 . S
O59 C52 1.185 . S
O59 Zn55 2.086 . S
C60 O56 1.278 . S
C60 O61 1.211 . S
O61 C60 1.211 . S
C62 O54 1.284 . S
C62 O63 1.273 . S
O63 C62 1.273 . S
O64 Zn55 1.977 . S
O64 C57 1.267 . S
C65 O66 1.160 . S
C65 O72 1.185 . S
O66 C65 1.160 . S
O67 Zn68 1.899 . S
O67 C75 1.284 . S
Zn68 O67 1.899 . S
Zn68 O69 2.032 . S
Zn68 O72 2.086 . S
Zn68 O77 1.977 . S
O69 Zn68 2.032 . S
O69 C73 1.278 . S
C70 O71 1.203 . S
C70 O77 1.267 . S
O71 C70 1.203 . S
O72 C65 1.185 . S
O72 Zn68 2.086 . S
C73 O69 1.278 . S
C73 O74 1.211 . S
O74 C73 1.211 . S
C75 O67 1.284 . S
C75 O76 1.273 . S
O76 C75 1.273 . S
O77 Zn68 1.977 . S
O77 C70 1.267 . S
C78 O79 1.160 . S
C78 O85 1.185 . S
O79 C78 1.160 . S
O80 Zn81 1.899 . S
O80 C88 1.284 . S
Zn81 O80 1.899 . S
Zn81 O82 2.032 . S
Zn81 O85 2.086 . S
Zn81 O90 1.977 . S
O82 Zn81 2.032 . S
O82 C86 1.278 . S
C83 O84 1.203 . S
C83 O90 1.267 . S
O84 C83 1.203 . S
O85 C78 1.185 . S
O85 Zn81 2.086 . S
C86 O82 1.278 . S
C86 O87 1.211 . S
O87 C86 1.211 . S
C88 O80 1.284 . S
C88 O89 1.273 . S
O89 C88 1.273 . S
O90 Zn81 1.977 . S
O90 C83 1.267 . S
C91 O92 1.160 . S
C91 O98 1.185 . S
O92 C91 1.160 . S
O93 Zn94 1.899 . S
O93 C101 1.284 . S
Zn94 O93 1.899 . S
Zn94 O95 2.032 . S
Zn94 O98 2.086 . S
Zn94 O103 1.977 . S
O95 Zn94 2.032 . S
O95 C99 1.278 . S
C96 O97 1.203 . S
C96 O103 1.267 . S
O97 C96 1.203 . S
O98 C91 1.185 . S
O98 Zn94 2.086 . S
C99 O95 1.278 . S
C99 O100 1.211 . S
O100 C99 1.211 . S
C101 O93 1.284 . S
C101 O102 1.273 . S
O102 C101 1.273 . S
O103 Zn94 1.977 . S
O103 C96 1.267 . S
C104 O105 1.160 . S
C104 O111 1.185 . S
O105 C104 1.160 . S
O106 Zn107 1.899 . S
O106 C114 1.284 . S
Zn107 O106 1.899 . S
Zn107 O108 2.032 . S
Zn107 O111 2.086 . S
Zn107 O116 1.977 1_565 S
O108 Zn107 2.032 . S
O108 C112 1.278 . S
C109 O110 1.203 . S
C109 O116 1.267 . S
O110 C109 1.203 . S
O111 C104 1.185 . S
O111 Zn107 2.086 . S
C112 O108 1.278 . S
C112 O113 1.211 1_565 S
O113 C112 1.211 1_545 S
C114 O106 1.284 . S
C114 O115 1.273 . S
O115 C114 1.273 . S
O116 Zn107 1.977 1_545 S
O116 C109 1.267 . S
C117 O118 1.160 . S
C117 O124 1.185 . S
O118 C117 1.160 . S
O119 Zn120 1.899 . S
O119 C127 1.284 . S
Zn120 O119 1.899 . S
Zn120 O121 2.032 . S
Zn120 O124 2.086 . S
Zn120 O129 1.977 1_655 S
O121 Zn120 2.032 . S
O121 C125 1.278 . S
C122 O123 1.203 . S
C122 O129 1.267 . S
O123 C122 1.203 . S
O124 C117 1.185 . S
O124 Zn120 2.086 . S
C125 O121 1.278 . S
C125 O126 1.211 1_655 S
O126 C125 1.211 1_455 S
C127 O119 1.284 . S
C127 O128 1.273 . S
O128 C127 1.273 . S
O129 Zn120 1.977 1_455 S
O129 C122 1.267 . S
C130 O131 1.160 . S
C130 O137 1.185 . S
O131 C130 1.160 . S
O132 Zn133 1.899 . S
O132 C140 1.284 . S
Zn133 O132 1.899 . S
Zn133 O134 2.032 . S
Zn133 O137 2.086 . S
Zn133 O142 1.977 1_545 S
O134 Zn133 2.032 . S
O134 C138 1.278 . S
C135 O136 1.203 . S
C135 O142 1.267 . S
O136 C135 1.203 . S
O137 C130 1.185 . S
O137 Zn133 2.086 . S
C138 O134 1.278 . S
C138 O139 1.211 1_545 S
O139 C138 1.211 1_565 S
C140 O132 1.284 . S
C140 O141 1.273 . S
O141 C140 1.273 . S
O142 Zn133 1.977 1_565 S
O142 C135 1.267 . S
C143 O144 1.160 . S
C143 O150 1.185 . S
O144 C143 1.160 . S
O145 Zn146 1.899 . S
O145 C153 1.284 . S
Zn146 O145 1.899 . S
Zn146 O147 2.032 . S
Zn146 O150 2.086 . S
Zn146 O155 1.977 1_455 S
O147 Zn146 2.032 . S
O147 C151 1.278 . S
C148 O149 1.203 . S
C148 O155 1.267 . S
O149 C148 1.203 . S
O150 C143 1.185 . S
O150 Zn146 2.086 . S
C151 O147 1.278 . S
C151 O152 1.211 1_455 S
O152 C151 1.211 1_655 S
C153 O145 1.284 . S
C153 O154 1.273 . S
O154 C153 1.273 . S
O155 Zn146 1.977 1_655 S
O155 C148 1.267 . S
C156 O157 1.160 . S
C156 O163 1.185 . S
O157 C156 1.160 . S
O158 Zn159 1.899 . S
O158 C166 1.284 . S
Zn159 O158 1.899 . S
Zn159 O160 2.032 . S
Zn159 O163 2.086 . S
Zn159 O168 1.977 1_545 S
O160 Zn159 2.032 . S
O160 C164 1.278 . S
C161 O162 1.203 . S
C161 O168 1.267 . S
O162 C161 1.203 . S
O163 C156 1.185 . S
O163 Zn159 2.086 . S
C164 O160 1.278 . S
C164 O165 1.211 1_545 S
O165 C164 1.211 1_565 S
C166 O158 1.284 . S
C166 O167 1.273 . S
O167 C166 1.273 . S
O168 Zn159 1.977 1_565 S
O168 C161 1.267 . S
C169 O170 1.160 . S
C169 O176 1.185 . S
O170 C169 1.160 . S
O171 Zn172 1.899 . S
O171 C179 1.284 . S
Zn172 O171 1.899 . S
Zn172 O173 2.032 . S
Zn172 O176 2.086 . S
Zn172 O181 1.977 1_455 S
O173 Zn172 2.032 . S
O173 C177 1.278 . S
C174 O175 1.203 . S
C174 O181 1.267 . S
O175 C174 1.203 . S
O176 C169 1.185 . S
O176 Zn172 2.086 . S
C177 O173 1.278 . S
C177 O178 1.211 1_455 S
O178 C177 1.211 1_655 S
C179 O171 1.284 . S
C179 O180 1.273 . S
O180 C179 1.273 . S
O181 Zn172 1.977 1_655 S
O181 C174 1.267 . S
C182 O183 1.160 . S
C182 O189 1.185 . S
O183 C182 1.160 . S
O184 Zn185 1.899 . S
O184 C192 1.284 . S
Zn185 O184 1.899 . S
Zn185 O186 2.032 . S
Zn185 O189 2.086 . S
Zn185 O194 1.977 1_565 S
O186 Zn185 2.032 . S
O186 C190 1.278 . S
C187 O188 1.203 . S
C187 O194 1.267 . S
O188 C187 1.203 . S
O189 C182 1.185 . S
O189 Zn185 2.086 . S
C190 O186 1.278 . S
C190 O191 1.211 1_565 S
O191 C190 1.211 1_545 S
C192 O184 1.284 . S
C192 O193 1.273 . S
O193 C192 1.273 . S
O194 Zn185 1.977 1_545 S
O194 C187 1.267 . S
C195 O196 1.160 . S
C195 O202 1.185 . S
O196 C195 1.160 . S
O197 Zn198 1.899 . S
O197 C205 1.284 . S
Zn198 O197 1.899 . S
Zn198 O199 2.032 . S
Zn198 O202 2.086 . S
Zn198 O207 1.977 1_655 S
O199 Zn198 2.032 . S
O199 C203 1.278 . S
C200 O201 1.203 . S
C200 O207 1.267 . S
O201 C200 1.203 . S
O202 C195 1.185 . S
O202 Zn198 2.086 . S
C203 O199 1.278 . S
C203 O204 1.211 1_655 S
O204 C203 1.211 1_455 S
C205 O197 1.284 . S
C205 O206 1.273 . S
O206 C205 1.273 . S
O207 Zn198 1.977 1_455 S
O207 C200 1.267 . S
C0 C91 1.129 . S
C13 C52 1.129 . S
C65 C26 1.129 . S
C39 C78 1.129 . S
C104 C195 1.129 . S
C156 C117 1.129 . S
C169 C130 1.129 . S
C182 C143 1.129 . S
C5 C153 1.248 . S
C18 C114 1.248 . S
C127 C31 1.248 . S
C44 C140 1.248 . S
C57 C179 1.248 . S
C192 C70 1.248 . S
C83 C205 1.248 . S
C166 C96 1.248 . S
C109 C49 1.248 . S
C10 C122 1.248 . S
C135 C23 1.248 . S
C36 C148 1.248 . S
C161 C75 1.248 . S
C88 C174 1.248 . S
C101 C187 1.248 . S
C62 C200 1.248 . S
C60 C8 1.424 . S
C73 C21 1.423 . S
C34 C86 1.423 . S
C99 C47 1.424 . S
C164 C112 1.423 1_544 S
C177 C125 1.424 1_456 S
C138 C190 1.424 1_546 S
C203 C151 1.423 1_656 S
