# Generated by pormake.
# Topology cab, (5)-cn, num edge types: 1
# Building blocks:
#     Node 0, Type 0, BuildingBlock: BEQFEK_clean_sbu_0, # of connection points: 5
#     Node 1, Type 0, BuildingBlock: BEQFEK_clean_sbu_0, # of connection points: 5
#     Node 2, Type 0, BuildingBlock: BEQFEK_clean_sbu_0, # of connection points: 5
#     Node 3, Type 0, BuildingBlock: BEQFEK_clean_sbu_0, # of connection points: 5
#     Node 4, Type 0, BuildingBlock: BEQFEK_clean_sbu_0, # of connection points: 5
#     Node 5, Type 0, BuildingBlock: BEQFEK_clean_sbu_0, # of connection points: 5
#     Edge 6, Type (0, 0), None
#     Edge 7, Type (0, 0), None
#     Edge 8, Type (0, 0), None
#     Edge 9, Type (0, 0), None
#     Edge 10, Type (0, 0), None
#     Edge 11, Type (0, 0), None
#     Edge 12, Type (0, 0), None
#     Edge 13, Type (0, 0), None
#     Edge 14, Type (0, 0), None
#     Edge 15, Type (0, 0), None
#     Edge 16, Type (0, 0), None
#     Edge 17, Type (0, 0), None
#     Edge 18, Type (0, 0), None
#     Edge 19, Type (0, 0), None
#     Edge 20, Type (0, 0), None
# Relax obj value: 1.391
# Max RMSD: 0.238
# Mean RMSD: 0.209
data_MOF--net-cab--node1-BEQFEK_clean_sbu_0--edge1-none
_symmetry_space_group_name_H-M    P1
_symmetry_Int_Tables_number       1
_symmetry_cell_setting            triclinic
loop_
_symmetry_equiv_pos_as_xyz
'x, y, z'
_cell_length_a     16.867093
_cell_length_b     14.68208
_cell_length_c     17.86808
_cell_angle_alpha  112.53519
_cell_angle_beta   98.529705
_cell_angle_gamma 122.66505
loop_
_atom_site_label
_atom_site_type_symbol
_atom_site_fract_x
_atom_site_fract_y
_atom_site_fract_z
_atom_type_partial_charge
Co0 Co 0.29061 0.3748 0.57398 0.0
Co1 Co 0.06535 0.28966 0.52904 0.0
C2 C 0.12302 0.18828 0.38918 0.0
O3 O 0.22148 0.26889 0.4413 0.0
O4 O 0.0579 0.18377 0.41771 0.0
C5 C 0.44241 0.38926 0.53041 0.0
O6 O 0.44664 0.43781 0.61098 0.0
C7 C 0.86087 0.1394 0.40266 0.0
C8 C 0.85533 0.29246 0.42247 0.0
C9 C 0.82009 0.17224 0.35642 0.0
N10 N -0.07015 0.24285 0.48896 0.0
N11 N 0.91856 0.32926 0.50277 0.0
C12 C 0.84104 0.0147 0.36315 0.0
H13 H 0.88574 0.01544 0.41601 0.0
H14 H 0.86234 -0.00214 0.30662 0.0
H15 H 0.7553 -0.06729 0.33411 0.0
C16 C 0.34982 0.61519 0.61148 0.0
N17 N 0.28126 0.50889 0.61113 0.0
N18 N 0.18546 0.46833 0.57505 0.0
C19 C 0.19083 0.54068 0.54295 0.0
C20 C 0.29508 0.63418 0.56234 0.0
C21 C 0.46104 0.67222 0.63234 0.0
H22 H 0.49505 0.6755 0.69201 0.0
H23 H 0.46224 0.61074 0.57327 0.0
H24 H 0.50907 0.772 0.64697 0.0
O25 O 0.21261 0.24328 0.60195 0.0
O26 O 0.06926 0.21576 0.59954 0.0
H27 H 0.05638 0.52348 0.49759 0.0
H28 H 0.11988 0.53663 0.42757 0.0
C29 C 0.09746 0.49337 0.46759 0.0
H30 H 0.04401 0.3862 0.42041 0.0
H31 H -0.03383 0.4215 0.56297 0.0
O32 O 0.44037 0.43356 0.60627 0.0
C33 C 0.1271 0.18676 0.60847 0.0
Co34 Co 0.18732 0.01998 0.714 0.0
Co35 Co -0.01064 -0.03108 0.72824 0.0
C36 C 0.18162 0.19109 0.87278 0.0
O37 O 0.22329 0.1732 0.8215 0.0
O38 O 0.0902 0.09837 0.85539 0.0
C39 C 0.39377 0.11694 0.80798 0.0
O40 O 0.48759 0.15573 0.81812 0.0
C41 C 0.85118 -0.00248 0.78612 0.0
C42 C 0.70505 0.79637 0.71875 0.0
C43 C 0.75797 0.92236 0.79125 0.0
N44 N 0.85571 0.91891 0.72029 0.0
N45 N 0.76509 0.79882 0.67641 0.0
C46 C -0.06214 0.14193 0.84352 0.0
H47 H 0.00013 0.1721 0.82094 0.0
H48 H -0.02865 0.17691 0.91602 0.0
H49 H 0.9065 0.1883 0.83418 0.0
C50 C 0.08069 0.7646 0.69473 0.0
N51 N 0.07785 0.85317 0.69094 0.0
N52 N -0.00482 0.83459 0.69949 0.0
C53 C -0.051 0.74243 0.71761 0.0
C54 C -0.00117 0.69069 0.71209 0.0
C55 C 0.16713 0.76079 0.6921 0.0
H56 H 0.18188 0.76634 0.63487 0.0
H57 H 0.24165 0.84634 0.75547 0.0
H58 H 0.14622 0.67082 0.68443 0.0
O59 O 0.14655 0.04625 0.62274 0.0
O60 O 0.03798 0.06628 0.66825 0.0
H61 H 0.80383 0.64745 0.72751 0.0
H62 H 0.92189 0.74277 0.83115 0.0
C63 C 0.88783 0.73861 0.77086 0.0
H64 H 0.89351 0.82433 0.79765 0.0
H65 H 0.74959 0.71722 0.62538 0.0
O66 O 0.3219 0.05691 0.7293 0.0
C67 C 0.09869 0.09036 0.63061 0.0
Co68 Co 0.43241 0.21723 0.07405 0.0
Co69 Co 0.5088 0.27852 0.27275 0.0
C70 C 0.27402 0.09727 0.12674 0.0
O71 O 0.28914 0.11217 0.06304 0.0
O72 O 0.35106 0.15469 0.2019 0.0
C73 C 0.37104 0.13572 0.88623 0.0
O74 O 0.27542 0.0514 0.87397 0.0
C75 C 0.481 0.2902 0.42948 0.0
C76 C 0.5493 0.35684 0.44024 0.0
C77 C 0.5217 0.37825 0.51802 0.0
N78 N 0.55058 0.33712 0.40092 0.0
N79 N 0.65345 0.42443 0.45913 0.0
C80 C 0.35964 0.15618 0.36749 0.0
H81 H 0.35318 0.08199 0.31015 0.0
H82 H 0.31038 0.17491 0.34038 0.0
H83 H 0.32921 0.11873 0.40891 0.0
C84 C 0.51257 0.47682 0.18049 0.0
N85 N 0.51818 0.38919 0.17939 0.0
N86 N 0.56075 0.42384 0.26307 0.0
C87 C 0.58994 0.54115 0.32068 0.0
C88 C 0.55644 0.5784 0.27072 0.0
C89 C 0.44298 0.44222 0.0952 0.0
H90 H 0.39098 0.33729 0.04162 0.0
H91 H 0.39195 0.46286 0.10823 0.0
H92 H 0.49183 0.49895 0.07085 0.0
O93 O 0.48053 0.12392 0.07337 0.0
O94 O 0.55359 0.18017 0.21335 0.0
H95 H 0.72218 0.61232 0.43114 0.0
H96 H 0.70832 0.7293 0.44666 0.0
C97 C 0.66346 0.62503 0.42006 0.0
H98 H 0.61884 0.59673 0.45793 0.0
H99 H 0.69658 0.43658 0.42222 0.0
O100 O 0.44664 0.22143 -0.03367 0.0
C101 C 0.52582 0.1138 0.12846 0.0
Co102 Co 0.30286 0.68175 0.34862 0.0
Co103 Co 0.27842 0.60196 0.15743 0.0
C104 C 0.10989 0.44824 0.20648 0.0
O105 O 0.17481 0.50321 0.28611 0.0
O106 O 0.13977 0.48323 0.15471 0.0
C107 C 0.31854 0.65174 0.49019 0.0
O108 O 0.30889 0.55855 0.42561 0.0
C109 C 0.21374 0.36961 0.0114 0.0
C110 C 0.26569 0.41932 0.91655 0.0
C111 C 0.22268 0.32248 0.93337 0.0
N112 N 0.25633 0.49285 0.04334 0.0
N113 N 0.28503 0.52164 -0.0145 0.0
C114 C 0.18307 0.3069 0.06327 0.0
H115 H 0.2338 0.38152 0.13759 0.0
H116 H 0.19071 0.23156 0.04349 0.0
H117 H 0.09978 0.25962 0.0489 0.0
C118 C 0.48743 0.6821 0.35895 0.0
N119 N 0.41054 0.68253 0.32403 0.0
N120 N 0.40765 0.67498 0.24842 0.0
C121 C 0.48861 0.6841 0.23878 0.0
C122 C 0.53427 0.67069 0.30072 0.0
C123 C 0.52723 0.71324 0.45293 0.0
H124 H 0.50524 0.76461 0.49495 0.0
H125 H 0.49384 0.6221 0.44961 0.0
H126 H 0.61461 0.7802 0.4873 0.0
O127 O 0.24794 0.74759 0.28711 0.0
O128 O 0.27807 0.73228 0.16659 0.0
H129 H 0.56054 0.82578 0.20666 0.0
H130 H 0.60181 0.73138 0.1851 0.0
C131 C 0.53362 0.72734 0.18152 0.0
H132 H 0.47213 0.66269 0.1104 0.0
H133 H 0.32051 0.61178 -0.00552 0.0
O134 O 0.32539 0.73524 0.47761 0.0
C135 C 0.24037 0.75984 0.21896 0.0
Co136 Co 0.79742 0.19738 0.12418 0.0
Co137 Co 0.64861 0.90882 0.06709 0.0
C138 C 0.7904 0.12417 0.25983 0.0
O139 O 0.82398 0.20557 0.23806 0.0
O140 O 0.73247 0.00411 0.19997 0.0
C141 C -0.00079 0.34411 0.17469 0.0
O142 O -0.02879 0.24165 0.17486 0.0
C143 C 0.70418 0.75939 0.05874 0.0
C144 C 0.56475 0.55109 -0.0365 0.0
C145 C 0.67305 0.63693 0.01876 0.0
N146 N 0.61877 0.74844 0.03305 0.0
N147 N 0.53505 0.62314 -0.02453 0.0
C148 C 0.8164 0.88368 0.10201 0.0
H149 H 0.82148 -0.0341 0.11208 0.0
H150 H 0.85472 0.86924 0.05867 0.0
H151 H 0.86285 0.91095 0.16878 0.0
C152 C 0.78287 0.07869 -0.05438 0.0
N153 N 0.76669 0.07065 0.0151 0.0
N154 N 0.7089 -0.0497 -0.00917 0.0
C155 C 0.69141 0.87676 0.9057 0.0
C156 C 0.74005 -0.04365 0.87392 0.0
C157 C 0.81094 0.19121 -0.05929 0.0
H158 H 0.78019 0.23317 -0.02156 0.0
H159 H 0.89814 0.26954 -0.02527 0.0
H160 H 0.77595 0.16004 0.8691 0.0
O161 O 0.67162 0.17011 0.10764 0.0
O162 O 0.56133 -0.03211 0.08098 0.0
H163 H 0.55006 0.68883 0.8595 0.0
H164 H 0.6083 0.68221 0.78458 0.0
C165 C 0.62632 0.73247 0.85647 0.0
H166 H 0.66985 0.71329 0.89074 0.0
H167 H 0.45984 0.5877 -0.06055 0.0
O168 O -0.06899 0.3564 0.15566 0.0
C169 C 0.58672 0.07801 0.10122 0.0
Co170 Co 0.0589 0.86035 0.20058 0.0
Co171 Co 0.02569 0.72425 0.00697 0.0
C172 C 0.16863 -0.0078 0.10928 0.0
O173 O 0.16147 -0.02173 0.17399 0.0
O174 O 0.09782 0.8984 0.02882 0.0
C175 C 0.08218 0.07688 0.30328 0.0
O176 O 0.08005 0.08395 0.23216 0.0
C177 C 0.0566 0.68337 0.84707 0.0
C178 C 0.8973 0.51001 0.73688 0.0
C179 C -0.00707 0.61965 0.75536 0.0
N180 N -0.00058 0.62241 0.88251 0.0
N181 N 0.90617 0.513 0.81434 0.0
C182 C 0.16631 0.81202 0.903 0.0
H183 H 0.20194 0.83584 -0.02786 0.0
H184 H 0.16366 0.8873 0.90699 0.0
H185 H 0.21642 0.80973 0.87003 0.0
C186 C 0.82795 0.67936 0.11361 0.0
N187 N 0.91798 0.71832 0.10756 0.0
N188 N 0.89859 0.66797 0.02183 0.0
C189 C 0.79523 0.60375 -0.02848 0.0
C190 C 0.74747 0.61257 0.02854 0.0
C191 C 0.81987 0.71318 0.20112 0.0
H192 H 0.75554 0.62216 0.19347 0.0
H193 H 0.89511 0.76344 0.25846 0.0
H194 H 0.79748 0.77406 0.21667 0.0
O195 O 0.12702 0.80457 0.23642 0.0
O196 O 0.13241 0.74385 0.10315 0.0
H197 H 0.70459 0.44308 0.83326 0.0
H198 H 0.68315 0.55493 0.85448 0.0
C199 C 0.74457 0.54801 0.87223 0.0
H200 H 0.80469 0.59761 0.85181 0.0
H201 H 0.84449 0.44814 0.82224 0.0
O202 O 0.06654 -0.01837 0.30264 0.0
C203 C 0.16498 0.77365 0.18571 0.0
loop_
_geom_bond_atom_site_label_1
_geom_bond_atom_site_label_2
_geom_bond_distance
_geom_bond_site_symmetry_2
_ccdc_geom_bond_type
Co0 O3 1.970 . S
Co0 N17 1.989 . S
Co0 O25 1.967 . S
Co0 O32 1.920 . S
Co1 O4 1.966 . S
Co1 N10 2.022 . S
Co1 N18 1.993 . S
Co1 O26 1.941 . S
C2 O3 1.258 . S
C2 O4 1.263 . S
O3 Co0 1.970 . S
O3 C2 1.258 . S
O4 Co1 1.966 . S
O4 C2 1.263 . S
C5 O6 1.235 . S
C5 O32 1.289 . S
O6 C5 1.235 . S
C7 C9 1.400 . S
C7 N10 1.351 1_655 S
C7 C12 1.501 . S
C8 C9 1.387 . S
C8 N11 1.341 . S
C9 C7 1.400 . S
C9 C8 1.387 . S
N10 Co1 2.022 . S
N10 C7 1.351 1_455 S
N10 N11 1.365 1_455 S
N11 C8 1.341 . S
N11 N10 1.365 1_655 S
N11 H31 0.862 1_655 S
C12 C7 1.501 . S
C12 H13 0.961 . S
C12 H14 0.961 . S
C12 H15 0.960 . S
H13 C12 0.961 . S
H14 C12 0.961 . S
H15 C12 0.960 . S
C16 N17 1.342 . S
C16 C20 1.401 . S
C16 C21 1.499 . S
N17 Co0 1.989 . S
N17 C16 1.342 . S
N17 N18 1.388 . S
N18 Co1 1.993 . S
N18 N17 1.388 . S
N18 C19 1.346 . S
C19 N18 1.346 . S
C19 C20 1.396 . S
C19 C29 1.510 . S
C20 C16 1.401 . S
C20 C19 1.396 . S
C21 C16 1.499 . S
C21 H22 0.959 . S
C21 H23 0.960 . S
C21 H24 0.961 . S
H22 C21 0.959 . S
H23 C21 0.960 . S
H24 C21 0.961 . S
O25 Co0 1.967 . S
O25 C33 1.258 . S
O26 Co1 1.941 . S
O26 C33 1.266 . S
H27 C29 0.959 . S
H28 C29 0.961 . S
C29 C19 1.510 . S
C29 H27 0.959 . S
C29 H28 0.961 . S
C29 H30 0.960 . S
H30 C29 0.960 . S
H31 N11 0.862 1_455 S
O32 Co0 1.920 . S
O32 C5 1.289 . S
C33 O25 1.258 . S
C33 O26 1.266 . S
Co34 O37 1.970 . S
Co34 N51 1.989 1_545 S
Co34 O59 1.967 . S
Co34 O66 1.920 . S
Co35 O38 1.966 1_665 S
Co35 N44 2.022 . S
Co35 N52 1.995 . S
Co35 O60 1.941 . S
C36 O37 1.258 . S
C36 O38 1.263 . S
O37 Co34 1.970 . S
O37 C36 1.258 . S
O38 Co35 1.966 1_445 S
O38 C36 1.263 . S
C39 O40 1.235 . S
C39 O66 1.289 . S
O40 C39 1.235 . S
C41 C43 1.400 . S
C41 N44 1.351 . S
C41 C46 1.501 1_565 S
C42 C43 1.387 . S
C42 N45 1.341 . S
C43 C41 1.400 . S
C43 C42 1.387 . S
N44 Co35 2.022 . S
N44 C41 1.351 . S
N44 N45 1.365 . S
N45 C42 1.341 . S
N45 N44 1.365 . S
N45 H65 0.862 . S
C46 C41 1.501 1_545 S
C46 H47 0.961 . S
C46 H48 0.961 . S
C46 H49 0.960 . S
H47 C46 0.961 . S
H48 C46 0.961 . S
H49 C46 0.960 . S
C50 N51 1.342 . S
C50 C54 1.401 1_455 S
C50 C55 1.499 . S
N51 Co34 1.989 1_565 S
N51 C50 1.342 . S
N51 N52 1.384 1_455 S
N52 Co35 1.995 . S
N52 N51 1.384 1_655 S
N52 C53 1.346 . S
C53 N52 1.346 . S
C53 C54 1.396 . S
C53 C63 1.510 . S
C54 C50 1.401 1_655 S
C54 C53 1.396 . S
C55 C50 1.499 . S
C55 H56 0.959 . S
C55 H57 0.960 . S
C55 H58 0.961 . S
H56 C55 0.959 . S
H57 C55 0.960 . S
H58 C55 0.961 . S
O59 Co34 1.967 . S
O59 C67 1.258 . S
O60 Co35 1.941 . S
O60 C67 1.266 1_665 S
H61 C63 0.959 . S
H62 C63 0.961 . S
C63 C53 1.510 . S
C63 H61 0.959 . S
C63 H62 0.961 . S
C63 H64 0.960 . S
H64 C63 0.960 . S
H65 N45 0.862 . S
O66 Co34 1.920 . S
O66 C39 1.289 . S
C67 O59 1.258 . S
C67 O60 1.266 1_445 S
Co68 O71 1.970 . S
Co68 N85 1.989 . S
Co68 O93 1.967 . S
Co68 O100 1.920 . S
Co69 O72 1.966 . S
Co69 N78 2.022 . S
Co69 N86 1.993 . S
Co69 O94 1.941 . S
C70 O71 1.258 . S
C70 O72 1.263 . S
O71 Co68 1.970 . S
O71 C70 1.258 . S
O72 Co69 1.966 . S
O72 C70 1.263 . S
C73 O74 1.235 1_556 S
C73 O100 1.289 1_556 S
O74 C73 1.235 1_554 S
C75 C77 1.400 . S
C75 N78 1.351 . S
C75 C80 1.501 . S
C76 C77 1.387 . S
C76 N79 1.341 . S
C77 C75 1.400 . S
C77 C76 1.387 . S
N78 Co69 2.022 . S
N78 C75 1.351 . S
N78 N79 1.365 . S
N79 C76 1.341 . S
N79 N78 1.365 . S
N79 H99 0.862 1_655 S
C80 C75 1.501 . S
C80 H81 0.961 . S
C80 H82 0.961 . S
C80 H83 0.960 . S
H81 C80 0.961 . S
H82 C80 0.961 . S
H83 C80 0.960 . S
C84 N85 1.342 . S
C84 C88 1.401 . S
C84 C89 1.499 . S
N85 Co68 1.989 . S
N85 C84 1.342 . S
N85 N86 1.388 . S
N86 Co69 1.993 . S
N86 N85 1.388 . S
N86 C87 1.346 . S
C87 N86 1.346 . S
C87 C88 1.396 . S
C87 C97 1.510 . S
C88 C84 1.401 . S
C88 C87 1.396 . S
C89 C84 1.499 . S
C89 H90 0.959 . S
C89 H91 0.960 . S
C89 H92 0.961 . S
H90 C89 0.959 . S
H91 C89 0.960 . S
H92 C89 0.961 . S
O93 Co68 1.967 . S
O93 C101 1.258 . S
O94 Co69 1.941 . S
O94 C101 1.266 . S
H95 C97 0.959 . S
H96 C97 0.961 . S
C97 C87 1.510 . S
C97 H95 0.959 . S
C97 H96 0.961 . S
C97 H98 0.960 . S
H98 C97 0.960 . S
H99 N79 0.862 1_455 S
O100 Co68 1.920 . S
O100 C73 1.289 1_554 S
C101 O93 1.258 . S
C101 O94 1.266 . S
Co102 O105 1.970 . S
Co102 N119 1.989 . S
Co102 O127 1.967 . S
Co102 O134 1.920 . S
Co103 O106 1.966 . S
Co103 N112 2.022 . S
Co103 N120 1.993 . S
Co103 O128 1.941 . S
C104 O105 1.258 . S
C104 O106 1.263 . S
O105 Co102 1.970 . S
O105 C104 1.258 . S
O106 Co103 1.966 . S
O106 C104 1.263 . S
C107 O108 1.235 . S
C107 O134 1.289 . S
O108 C107 1.235 . S
C109 C111 1.400 . S
C109 N112 1.351 1_556 S
C109 C114 1.501 . S
C110 C111 1.387 . S
C110 N113 1.341 1_556 S
C111 C109 1.400 . S
C111 C110 1.387 . S
N112 Co103 2.022 . S
N112 C109 1.351 1_554 S
N112 N113 1.365 . S
N113 C110 1.341 1_554 S
N113 N112 1.365 . S
N113 H133 0.862 . S
C114 C109 1.501 . S
C114 H115 0.961 . S
C114 H116 0.961 . S
C114 H117 0.960 . S
H115 C114 0.961 . S
H116 C114 0.961 . S
H117 C114 0.960 . S
C118 N119 1.342 . S
C118 C122 1.401 . S
C118 C123 1.499 . S
N119 Co102 1.989 . S
N119 C118 1.342 . S
N119 N120 1.388 . S
N120 Co103 1.993 . S
N120 N119 1.388 . S
N120 C121 1.346 . S
C121 N120 1.346 . S
C121 C122 1.396 . S
C121 C131 1.510 . S
C122 C118 1.401 . S
C122 C121 1.396 . S
C123 C118 1.499 . S
C123 H124 0.959 . S
C123 H125 0.960 . S
C123 H126 0.961 1_565 S
H124 C123 0.959 . S
H125 C123 0.960 . S
H126 C123 0.961 1_545 S
O127 Co102 1.967 . S
O127 C135 1.258 . S
O128 Co103 1.941 . S
O128 C135 1.266 . S
H129 C131 0.959 . S
H130 C131 0.961 . S
C131 C121 1.510 . S
C131 H129 0.959 . S
C131 H130 0.961 . S
C131 H132 0.960 . S
H132 C131 0.960 . S
H133 N113 0.862 . S
O134 Co102 1.920 . S
O134 C107 1.289 . S
C135 O127 1.258 . S
C135 O128 1.266 . S
Co136 O139 1.970 . S
Co136 N153 1.989 1_554 S
Co136 O161 1.967 . S
Co136 O168 1.920 . S
Co137 O140 1.966 1_565 S
Co137 N146 2.022 . S
Co137 N154 1.993 1_554 S
Co137 O162 1.941 . S
C138 O139 1.258 . S
C138 O140 1.263 . S
O139 Co136 1.970 . S
O139 C138 1.258 . S
O140 Co137 1.966 1_545 S
O140 C138 1.263 . S
C141 O142 1.235 1_655 S
C141 O168 1.289 . S
O142 C141 1.235 1_455 S
C143 C145 1.400 1_554 S
C143 N146 1.351 . S
C143 C148 1.501 . S
C144 C145 1.387 . S
C144 N147 1.341 . S
C145 C143 1.400 1_556 S
C145 C144 1.387 . S
N146 Co137 2.022 . S
N146 C143 1.351 . S
N146 N147 1.365 1_554 S
N147 C144 1.341 . S
N147 N146 1.365 1_556 S
N147 H167 0.862 . S
C148 C143 1.501 . S
C148 H149 0.961 . S
C148 H150 0.961 . S
C148 H151 0.960 . S
H149 C148 0.961 . S
H150 C148 0.961 . S
H151 C148 0.960 . S
C152 N153 1.342 . S
C152 C156 1.401 1_545 S
C152 C157 1.499 . S
N153 Co136 1.989 1_556 S
N153 C152 1.342 . S
N153 N154 1.388 1_545 S
N154 Co137 1.993 1_556 S
N154 N153 1.388 1_565 S
N154 C155 1.346 . S
C155 N154 1.346 . S
C155 C156 1.396 . S
C155 C165 1.510 . S
C156 C152 1.401 1_565 S
C156 C155 1.396 . S
C157 C152 1.499 . S
C157 H158 0.959 . S
C157 H159 0.960 . S
C157 H160 0.961 . S
H158 C157 0.959 . S
H159 C157 0.960 . S
H160 C157 0.961 . S
O161 Co136 1.967 . S
O161 C169 1.258 . S
O162 Co137 1.941 . S
O162 C169 1.266 1_565 S
H163 C165 0.959 . S
H164 C165 0.961 . S
C165 C155 1.510 . S
C165 H163 0.959 . S
C165 H164 0.961 . S
C165 H166 0.960 . S
H166 C165 0.960 . S
H167 N147 0.862 . S
O168 Co136 1.920 . S
O168 C141 1.289 . S
C169 O161 1.258 . S
C169 O162 1.266 1_545 S
Co170 O173 1.970 1_565 S
Co170 N187 1.989 1_455 S
Co170 O195 1.967 . S
Co170 O202 1.920 . S
Co171 O174 1.966 . S
Co171 N180 2.022 1_554 S
Co171 N188 1.993 1_455 S
Co171 O196 1.941 . S
C172 O173 1.258 1_565 S
C172 O174 1.263 . S
O173 Co170 1.970 1_545 S
O173 C172 1.258 1_545 S
O174 Co171 1.966 . S
O174 C172 1.263 . S
C175 O176 1.235 . S
C175 O202 1.289 1_545 S
O176 C175 1.235 . S
C177 C179 1.400 1_455 S
C177 N180 1.352 . S
C177 C182 1.501 . S
C178 C179 1.387 . S
C178 N181 1.341 . S
C179 C177 1.400 1_655 S
C179 C178 1.387 . S
N180 Co171 2.022 1_556 S
N180 C177 1.352 . S
N180 N181 1.364 1_455 S
N181 C178 1.341 . S
N181 N180 1.364 1_655 S
N181 H201 0.862 . S
C182 C177 1.501 . S
C182 H183 0.961 1_556 S
C182 H184 0.961 . S
C182 H185 0.960 . S
H183 C182 0.961 1_554 S
H184 C182 0.961 . S
H185 C182 0.960 . S
C186 N187 1.342 . S
C186 C190 1.401 . S
C186 C191 1.499 . S
N187 Co170 1.989 1_655 S
N187 C186 1.342 . S
N187 N188 1.388 . S
N188 Co171 1.993 1_655 S
N188 N187 1.388 . S
N188 C189 1.346 . S
C189 N188 1.346 . S
C189 C190 1.396 . S
C189 C199 1.510 1_554 S
C190 C186 1.401 . S
C190 C189 1.396 . S
C191 C186 1.499 . S
C191 H192 0.959 . S
C191 H193 0.960 . S
C191 H194 0.961 . S
H192 C191 0.959 . S
H193 C191 0.960 . S
H194 C191 0.961 . S
O195 Co170 1.967 . S
O195 C203 1.258 . S
O196 Co171 1.941 . S
O196 C203 1.266 . S
H197 C199 0.959 . S
H198 C199 0.961 . S
C199 C189 1.510 1_556 S
C199 H197 0.959 . S
C199 H198 0.961 . S
C199 H200 0.960 . S
H200 C199 0.960 . S
H201 N181 0.862 . S
O202 Co170 1.920 . S
O202 C175 1.289 1_565 S
C203 O195 1.258 . S
C203 O196 1.266 . S
C107 C20 2.179 . S
C138 C9 3.158 . S
C2 C175 2.377 . S
C77 C5 2.280 . S
C179 C54 1.947 . S
C73 C39 1.471 . S
C36 C111 2.373 . S
C156 C43 2.927 . S
C88 C122 2.518 . S
C70 C172 2.800 1_545 S
C141 C104 2.169 1_655 S
C190 C145 3.721 1_554 S
C67 C33 4.685 . S
C169 C101 4.535 . S
C203 C135 3.680 . S
