# Generated by pormake.
# Topology unc, (4)-cn, num edge types: 1
# Building blocks:
#     Node 0, Type 0, BuildingBlock: CEKHIL_clean_sbu_0, # of connection points: 4
#     Node 1, Type 0, BuildingBlock: CEKHIL_clean_sbu_0, # of connection points: 4
#     Node 2, Type 0, BuildingBlock: CEKHIL_clean_sbu_0, # of connection points: 4
#     Node 3, Type 0, BuildingBlock: CEKHIL_clean_sbu_0, # of connection points: 4
#     Edge 4, Type (0, 0), BuildingBlock: EYOCIG_clean_linker_4, # of connection points: 2
#     Edge 5, Type (0, 0), BuildingBlock: EYOCIG_clean_linker_4, # of connection points: 2
#     Edge 6, Type (0, 0), BuildingBlock: EYOCIG_clean_linker_4, # of connection points: 2
#     Edge 7, Type (0, 0), BuildingBlock: EYOCIG_clean_linker_4, # of connection points: 2
#     Edge 8, Type (0, 0), BuildingBlock: EYOCIG_clean_linker_4, # of connection points: 2
#     Edge 9, Type (0, 0), BuildingBlock: EYOCIG_clean_linker_4, # of connection points: 2
#     Edge 10, Type (0, 0), BuildingBlock: EYOCIG_clean_linker_4, # of connection points: 2
#     Edge 11, Type (0, 0), BuildingBlock: EYOCIG_clean_linker_4, # of connection points: 2
# Relax obj value: 0.004
# Max RMSD: 0.040
# Mean RMSD: 0.040
data_MOF--net-unc--node1-CEKHIL_clean_sbu_0--edge1-EYOCIG_clean_linker_4
_symmetry_space_group_name_H-M    P1
_symmetry_Int_Tables_number       1
_symmetry_cell_setting            triclinic
loop_
_symmetry_equiv_pos_as_xyz
'x, y, z'
_cell_length_a     23.555558
_cell_length_b     23.556332
_cell_length_c     17.204336
_cell_angle_alpha  90.013089
_cell_angle_beta   89.960981
_cell_angle_gamma 93.008413
loop_
_atom_site_label
_atom_site_type_symbol
_atom_site_fract_x
_atom_site_fract_y
_atom_site_fract_z
_atom_type_partial_charge
Co0 Co 0.0105 0.6929 0.97237 0.0
O1 O 0.99346 0.75186 0.89939 0.0
O2 O 0.94555 0.73277 1.0081 0.0
C3 C 0.02027 0.62502 0.88138 0.0
O4 O 0.01296 0.63458 0.06031 0.0
Co5 Co 0.12565 0.63613 0.97138 0.0
O6 O 0.09034 0.5831 0.04894 0.0
C7 C 0.11841 0.7502 0.04003 0.0
C8 C 0.9515 0.76266 0.94488 0.0
C9 C 0.04373 0.59384 0.08175 0.0
O10 O 0.06417 0.74745 0.03085 0.0
O11 O 0.15097 0.71221 0.01578 0.0
O12 O 0.97036 0.63642 0.90704 0.0
O13 O 0.06246 0.65701 0.90693 0.0
Co14 Co 0.34929 0.03154 0.30785 0.0
O15 O 0.2903 0.04867 0.38085 0.0
O16 O 0.30949 0.0965 0.27215 0.0
C17 C 0.41714 0.02175 0.39881 0.0
O18 O 0.40764 0.02901 0.2199 0.0
Co19 Co 0.40598 0.91635 0.30875 0.0
O20 O 0.45906 0.9516 0.23116 0.0
C21 C 0.29195 0.92364 0.24017 0.0
C22 C 0.27955 0.09059 0.33535 0.0
C23 C 0.44836 0.9982 0.1984 0.0
O24 O 0.29474 0.97789 0.24936 0.0
O25 O 0.32991 0.89107 0.26439 0.0
O26 O 0.40577 0.07166 0.37319 0.0
O27 O 0.38513 0.97958 0.37325 0.0
Co28 Co 0.03225 0.34874 0.47228 0.0
O29 O 0.04936 0.28976 0.39929 0.0
O30 O 0.09719 0.30891 0.50797 0.0
C31 C 0.0225 0.41661 0.38131 0.0
O32 O 0.02974 0.40708 0.56022 0.0
Co33 Co 0.91709 0.40549 0.47143 0.0
O34 O 0.95235 0.45854 0.54897 0.0
C35 C 0.92431 0.29142 0.53997 0.0
C36 C 0.09127 0.27898 0.44477 0.0
C37 C 0.99895 0.44781 0.58172 0.0
O38 O 0.97857 0.2942 0.5308 0.0
O39 O 0.89176 0.32939 0.51575 0.0
O40 O 0.0724 0.40522 0.40691 0.0
O41 O 0.98031 0.38461 0.4069 0.0
Co42 Co 0.69346 0.00979 0.80757 0.0
O43 O 0.75242 0.99276 0.88054 0.0
O44 O 0.73336 0.94486 0.77186 0.0
C45 C 0.62556 0.01952 0.89859 0.0
O46 O 0.63515 0.01224 0.71965 0.0
Co47 Co 0.63664 0.1249 0.80854 0.0
O48 O 0.58362 0.08958 0.73103 0.0
C49 C 0.75074 0.11774 0.73992 0.0
C50 C 0.76324 0.95082 0.83506 0.0
C51 C 0.59439 0.04299 0.69822 0.0
O52 O 0.748 0.06349 0.74907 0.0
O53 O 0.71273 0.15027 0.76418 0.0
O54 O 0.63699 0.96962 0.87294 0.0
O55 O 0.65754 0.06172 0.87301 0.0
C56 C 0.01827 0.52959 0.20412 0.0
C57 C 0.02708 0.56051 0.14892 0.0
C58 C 0.01444 0.49158 0.26791 0.0
C59 C 0.01594 0.45699 0.31961 0.0
C60 C 0.49212 0.01367 0.51216 0.0
C61 C 0.45752 0.01518 0.46048 0.0
C62 C 0.53013 0.01751 0.57591 0.0
C63 C 0.56106 0.02633 0.63109 0.0
C64 C 0.0283 0.55006 0.76789 0.0
C65 C 0.02683 0.58465 0.81963 0.0
C66 C 0.02442 0.51207 0.70408 0.0
C67 C 0.01559 0.48116 0.64886 0.0
C68 C 0.51263 0.02364 0.07598 0.0
C69 C 0.48171 0.01482 0.13122 0.0
C70 C 0.55061 0.02752 0.01213 0.0
C71 C 0.58519 0.02605 0.96037 0.0
C72 C 0.20897 0.87049 0.16134 0.0
C73 C 0.24533 0.89773 0.19669 0.0
C74 C 0.17161 0.83316 0.11887 0.0
C75 C 0.14435 0.79681 0.08352 0.0
C76 C 0.2032 0.16321 0.37723 0.0
C77 C 0.23824 0.13064 0.35688 0.0
C78 C 0.16385 0.20259 0.40289 0.0
C79 C 0.13129 0.23764 0.42325 0.0
C80 C 0.83374 0.171 0.66114 0.0
C81 C 0.79737 0.14371 0.69646 0.0
C82 C 0.8711 0.20839 0.61872 0.0
C83 C 0.89836 0.24478 0.58341 0.0
C84 C 0.8396 0.87828 0.87707 0.0
C85 C 0.80456 0.91081 0.85663 0.0
C86 C 0.87893 0.83897 0.90287 0.0
C87 C 0.91147 0.80395 0.92331 0.0
loop_
_geom_bond_atom_site_label_1
_geom_bond_atom_site_label_2
_geom_bond_distance
_geom_bond_site_symmetry_2
_ccdc_geom_bond_type
Co0 O1 2.216 1_554 S
Co0 O2 2.091 . S
Co0 O4 2.004 . S
Co0 O10 2.021 1_655 S
Co0 O12 2.137 1_554 S
Co0 O13 2.244 1_654 S
O1 Co0 2.216 1_556 S
O1 C8 1.247 . S
O2 Co0 2.091 . S
O2 C8 1.261 1_554 S
C3 O12 1.247 1_455 S
C3 O13 1.272 . S
O4 Co0 2.004 . S
O4 C9 1.259 1_655 S
Co5 O6 2.061 . S
Co5 O11 2.052 . S
Co5 O13 2.135 1_554 S
O6 Co5 2.061 . S
O6 C9 1.235 . S
C7 O10 1.238 . S
C7 O11 1.241 . S
C8 O1 1.247 . S
C8 O2 1.261 1_556 S
C9 O4 1.259 1_455 S
C9 O6 1.235 . S
O10 Co0 2.021 1_455 S
O10 C7 1.238 . S
O11 Co5 2.052 . S
O11 C7 1.241 . S
O12 Co0 2.137 1_556 S
O12 C3 1.247 1_655 S
O13 Co0 2.244 1_456 S
O13 C3 1.272 . S
O13 Co5 2.135 1_556 S
Co14 O15 2.216 . S
Co14 O16 2.091 . S
Co14 O18 2.004 . S
Co14 O24 2.021 1_545 S
Co14 O26 2.137 . S
Co14 O27 2.244 1_545 S
O15 Co14 2.216 . S
O15 C22 1.247 . S
O16 Co14 2.091 . S
O16 C22 1.261 . S
C17 O26 1.247 . S
C17 O27 1.272 1_545 S
O18 Co14 2.004 . S
O18 C23 1.259 . S
Co19 O20 2.061 . S
Co19 O25 2.052 . S
Co19 O27 2.135 . S
O20 Co19 2.061 . S
O20 C23 1.235 1_565 S
C21 O24 1.238 . S
C21 O25 1.241 . S
C22 O15 1.247 . S
C22 O16 1.261 . S
C23 O18 1.259 . S
C23 O20 1.235 1_545 S
O24 Co14 2.021 1_565 S
O24 C21 1.238 . S
O25 Co19 2.052 . S
O25 C21 1.241 . S
O26 Co14 2.137 . S
O26 C17 1.247 . S
O27 Co14 2.244 1_565 S
O27 C17 1.272 1_565 S
O27 Co19 2.135 . S
Co28 O29 2.216 . S
Co28 O30 2.091 . S
Co28 O32 2.004 . S
Co28 O38 2.021 1_455 S
Co28 O40 2.137 . S
Co28 O41 2.244 1_455 S
O29 Co28 2.216 . S
O29 C36 1.247 . S
O30 Co28 2.091 . S
O30 C36 1.261 . S
C31 O40 1.247 . S
C31 O41 1.272 1_455 S
O32 Co28 2.004 . S
O32 C37 1.259 . S
Co33 O34 2.061 . S
Co33 O39 2.052 . S
Co33 O41 2.135 . S
O34 Co33 2.061 . S
O34 C37 1.235 1_655 S
C35 O38 1.238 . S
C35 O39 1.241 . S
C36 O29 1.247 . S
C36 O30 1.261 . S
C37 O32 1.259 . S
C37 O34 1.235 1_455 S
O38 Co28 2.021 1_655 S
O38 C35 1.238 . S
O39 Co33 2.052 . S
O39 C35 1.241 . S
O40 Co28 2.137 . S
O40 C31 1.247 . S
O41 Co28 2.244 1_655 S
O41 C31 1.272 1_655 S
O41 Co33 2.135 . S
Co42 O43 2.216 . S
Co42 O44 2.091 . S
Co42 O46 2.004 . S
Co42 O52 2.021 1_565 S
Co42 O54 2.137 . S
Co42 O55 2.244 1_565 S
O43 Co42 2.216 . S
O43 C50 1.247 . S
O44 Co42 2.091 . S
O44 C50 1.261 . S
C45 O54 1.247 1_545 S
C45 O55 1.272 . S
O46 Co42 2.004 . S
O46 C51 1.259 1_565 S
Co47 O48 2.061 . S
Co47 O53 2.052 . S
Co47 O55 2.135 . S
O48 Co47 2.061 . S
O48 C51 1.235 . S
C49 O52 1.238 . S
C49 O53 1.241 . S
C50 O43 1.247 . S
C50 O44 1.261 . S
C51 O46 1.259 1_545 S
C51 O48 1.235 . S
O52 Co42 2.021 1_545 S
O52 C49 1.238 . S
O53 Co47 2.052 . S
O53 C49 1.241 . S
O54 Co42 2.137 . S
O54 C45 1.247 1_565 S
O55 Co42 2.244 1_545 S
O55 C45 1.272 . S
O55 Co47 2.135 . S
C56 C57 1.170 . S
C56 C58 1.380 . S
C57 C56 1.170 . S
C58 C56 1.380 . S
C58 C59 1.170 . S
C59 C58 1.170 . S
C60 C61 1.170 . S
C60 C62 1.380 . S
C61 C60 1.170 . S
C62 C60 1.380 . S
C62 C63 1.170 . S
C63 C62 1.170 . S
C64 C65 1.170 . S
C64 C66 1.380 . S
C65 C64 1.170 . S
C66 C64 1.380 . S
C66 C67 1.170 . S
C67 C66 1.170 . S
C68 C69 1.170 . S
C68 C70 1.380 1_554 S
C69 C68 1.170 . S
C70 C68 1.380 1_556 S
C70 C71 1.170 . S
C71 C70 1.170 . S
C72 C73 1.170 . S
C72 C74 1.380 . S
C73 C72 1.170 . S
C74 C72 1.380 . S
C74 C75 1.170 . S
C75 C74 1.170 . S
C76 C77 1.170 . S
C76 C78 1.380 . S
C77 C76 1.170 . S
C78 C76 1.380 . S
C78 C79 1.170 . S
C79 C78 1.170 . S
C80 C81 1.170 . S
C80 C82 1.380 . S
C81 C80 1.170 . S
C82 C80 1.380 . S
C82 C83 1.170 . S
C83 C82 1.170 . S
C84 C85 1.170 . S
C84 C86 1.380 . S
C85 C84 1.170 . S
C86 C84 1.380 . S
C86 C87 1.170 . S
C87 C86 1.170 . S
C57 C9 1.427 . S
C59 C31 1.430 . S
C61 C17 1.439 . S
C63 C51 1.426 . S
C65 C3 1.435 . S
C67 C37 1.431 . S
C69 C23 1.423 . S
C71 C45 1.429 . S
C73 C21 1.479 . S
C75 C7 1.467 . S
C77 C22 1.493 . S
C79 C36 1.489 . S
C81 C49 1.460 . S
C83 C35 1.474 . S
C85 C50 1.487 . S
C87 C8 1.492 . S
