# Generated by pormake.
# Topology fcu, (12)-cn, num edge types: 1
# Building blocks:
#     Node 0, Type 0, BuildingBlock: UKIBUN_clean_sbu_0, # of connection points: 12
#     Node 1, Type 0, BuildingBlock: UKIBUN_clean_sbu_0, # of connection points: 12
#     Node 2, Type 0, BuildingBlock: UKIBUN_clean_sbu_0, # of connection points: 12
#     Node 3, Type 0, BuildingBlock: UKIBUN_clean_sbu_0, # of connection points: 12
#     Edge 4, Type (0, 0), None
#     Edge 5, Type (0, 0), None
#     Edge 6, Type (0, 0), None
#     Edge 7, Type (0, 0), None
#     Edge 8, Type (0, 0), None
#     Edge 9, Type (0, 0), None
#     Edge 10, Type (0, 0), None
#     Edge 11, Type (0, 0), None
#     Edge 12, Type (0, 0), None
#     Edge 13, Type (0, 0), None
#     Edge 14, Type (0, 0), None
#     Edge 15, Type (0, 0), None
#     Edge 16, Type (0, 0), None
#     Edge 17, Type (0, 0), None
#     Edge 18, Type (0, 0), None
#     Edge 19, Type (0, 0), None
#     Edge 20, Type (0, 0), None
#     Edge 21, Type (0, 0), None
#     Edge 22, Type (0, 0), None
#     Edge 23, Type (0, 0), None
#     Edge 24, Type (0, 0), None
#     Edge 25, Type (0, 0), None
#     Edge 26, Type (0, 0), None
#     Edge 27, Type (0, 0), None
# Relax obj value: 0.006
# Max RMSD: 0.049
# Mean RMSD: 0.049
data_MOF--net-fcu--node1-UKIBUN_clean_sbu_0--edge1-none
_symmetry_space_group_name_H-M    P1
_symmetry_Int_Tables_number       1
_symmetry_cell_setting            triclinic
loop_
_symmetry_equiv_pos_as_xyz
'x, y, z'
_cell_length_a     14.628387
_cell_length_b     14.628525
_cell_length_c     14.628555
_cell_angle_alpha  89.999906
_cell_angle_beta   90.00008
_cell_angle_gamma 90.000248
loop_
_atom_site_label
_atom_site_type_symbol
_atom_site_fract_x
_atom_site_fract_y
_atom_site_fract_z
_atom_type_partial_charge
C0 C -0.00301 0.21145 0.21145 0.0
C1 C 0.78254 0.21145 -0.003 0.0
O2 O 0.07434 0.07434 0.07434 0.0
O3 O 0.91965 0.91964 0.07434 0.0
O4 O 0.07434 0.91965 0.07433 0.0
O5 O 0.91965 0.07434 0.07433 0.0
Hf6 Hf -0.00301 -0.00301 0.16175 0.0
O7 O 0.07434 0.07434 0.91964 0.0
Hf8 Hf -0.00301 0.16175 -0.00301 0.0
O9 O 0.07434 0.91964 0.91964 0.0
Hf10 Hf 0.16176 -0.00301 -0.00301 0.0
O11 O 0.91965 0.07434 0.91964 0.0
Hf12 Hf -0.00301 0.83223 -0.00301 0.0
Hf13 Hf 0.83223 -0.00301 -0.00301 0.0
O14 O 0.91965 0.91965 0.91964 0.0
Hf15 Hf -0.00301 -0.00301 0.83223 0.0
C16 C 0.78254 0.78253 -0.00302 0.0
C17 C 0.21145 0.21145 -0.00302 0.0
C18 C 0.21145 0.78253 -0.003 0.0
C19 C 0.21145 -0.00302 0.21145 0.0
O20 O 0.1274 -0.00301 0.2383 0.0
O21 O 0.86659 -0.003 0.2383 0.0
C22 C 0.78254 -0.003 0.21145 0.0
O23 O 0.86659 -0.00301 0.75568 0.0
O24 O -0.00301 0.75568 0.86658 0.0
O25 O -0.003 0.75568 0.1274 0.0
O26 O 0.1274 -0.003 0.75568 0.0
O27 O -0.003 0.2383 0.86658 0.0
O28 O -0.00301 0.2383 0.1274 0.0
O29 O 0.75569 0.1274 -0.003 0.0
O30 O 0.75569 0.86658 -0.00301 0.0
C31 C 0.21145 -0.003 0.78253 0.0
O32 O 0.2383 0.86658 -0.003 0.0
O33 O 0.2383 0.1274 -0.00301 0.0
C34 C 0.78254 -0.00302 0.78253 0.0
O35 O -0.003 0.1274 0.75568 0.0
O36 O -0.003 0.86658 0.2383 0.0
O37 O -0.00301 0.1274 0.2383 0.0
O38 O -0.00301 0.86658 0.75568 0.0
O39 O 0.75569 -0.00301 0.86658 0.0
O40 O 0.2383 -0.003 0.86658 0.0
C41 C -0.00301 0.78253 0.78253 0.0
O42 O 0.2383 -0.00301 0.1274 0.0
O43 O 0.1274 0.2383 -0.00301 0.0
O44 O 0.75569 -0.003 0.1274 0.0
O45 O 0.1274 0.75568 -0.003 0.0
O46 O 0.86659 0.75568 -0.00301 0.0
O47 O 0.86659 0.2383 -0.003 0.0
C48 C -0.003 0.21145 0.78253 0.0
C49 C -0.003 0.78253 0.21145 0.0
C50 C -0.00301 0.71145 0.71145 0.0
C51 C 0.78254 0.71145 0.49699 0.0
O52 O 0.07434 0.57434 0.57434 0.0
O53 O 0.91965 0.41964 0.57434 0.0
O54 O 0.07434 0.41965 0.57433 0.0
O55 O 0.91965 0.57433 0.57433 0.0
Hf56 Hf -0.00301 0.49699 0.66175 0.0
O57 O 0.07434 0.57433 0.41964 0.0
Hf58 Hf -0.00301 0.66175 0.49699 0.0
O59 O 0.07434 0.41964 0.41964 0.0
Hf60 Hf 0.16176 0.49699 0.49699 0.0
O61 O 0.91965 0.57434 0.41964 0.0
Hf62 Hf -0.00301 0.33223 0.49699 0.0
Hf63 Hf 0.83223 0.49699 0.49699 0.0
O64 O 0.91965 0.41964 0.41964 0.0
Hf65 Hf -0.00301 0.49699 0.33223 0.0
C66 C 0.78254 0.28253 0.49698 0.0
C67 C 0.21145 0.71145 0.49698 0.0
C68 C 0.21145 0.28253 0.49699 0.0
C69 C 0.21145 0.49698 0.71145 0.0
O70 O 0.1274 0.49698 0.7383 0.0
O71 O 0.86659 0.49699 0.7383 0.0
C72 C 0.78254 0.497 0.71145 0.0
O73 O 0.86659 0.49698 0.25568 0.0
O74 O -0.00301 0.25568 0.36658 0.0
O75 O -0.003 0.25568 0.6274 0.0
O76 O 0.1274 0.49699 0.25568 0.0
O77 O -0.003 0.7383 0.36658 0.0
O78 O -0.00301 0.7383 0.6274 0.0
O79 O 0.75569 0.6274 0.49699 0.0
O80 O 0.75569 0.36658 0.49698 0.0
C81 C 0.21145 0.497 0.28253 0.0
O82 O 0.2383 0.36658 0.49699 0.0
O83 O 0.2383 0.6274 0.49698 0.0
C84 C 0.78254 0.49698 0.28253 0.0
O85 O -0.003 0.6274 0.25568 0.0
O86 O -0.003 0.36658 0.73829 0.0
O87 O -0.00301 0.6274 0.73829 0.0
O88 O -0.00301 0.36658 0.25568 0.0
O89 O 0.75569 0.49698 0.36658 0.0
O90 O 0.2383 0.49699 0.36658 0.0
C91 C -0.00301 0.28253 0.28253 0.0
O92 O 0.2383 0.49698 0.6274 0.0
O93 O 0.1274 0.7383 0.49698 0.0
O94 O 0.75569 0.49699 0.6274 0.0
O95 O 0.1274 0.25568 0.49699 0.0
O96 O 0.86659 0.25568 0.49698 0.0
O97 O 0.86659 0.7383 0.49699 0.0
C98 C -0.003 0.71145 0.28253 0.0
C99 C -0.003 0.28253 0.71145 0.0
C100 C 0.49699 0.21145 0.71145 0.0
C101 C 0.28254 0.21145 0.49699 0.0
O102 O 0.57434 0.07434 0.57434 0.0
O103 O 0.41965 0.91964 0.57434 0.0
O104 O 0.57434 0.91965 0.57433 0.0
O105 O 0.41965 0.07434 0.57433 0.0
Hf106 Hf 0.49699 -0.00301 0.66175 0.0
O107 O 0.57434 0.07434 0.41964 0.0
Hf108 Hf 0.49699 0.16175 0.49699 0.0
O109 O 0.57434 0.91964 0.41964 0.0
Hf110 Hf 0.66176 -0.00301 0.49699 0.0
O111 O 0.41965 0.07434 0.41964 0.0
Hf112 Hf 0.49699 0.83223 0.49699 0.0
Hf113 Hf 0.33223 -0.00301 0.49699 0.0
O114 O 0.41965 0.91965 0.41964 0.0
Hf115 Hf 0.49699 -0.00301 0.33223 0.0
C116 C 0.28254 0.78253 0.49698 0.0
C117 C 0.71145 0.21145 0.49698 0.0
C118 C 0.71145 0.78253 0.49699 0.0
C119 C 0.71145 -0.00302 0.71145 0.0
O120 O 0.6274 -0.00301 0.7383 0.0
O121 O 0.36659 -0.003 0.7383 0.0
C122 C 0.28254 -0.003 0.71145 0.0
O123 O 0.36659 -0.00301 0.25568 0.0
O124 O 0.49699 0.75568 0.36658 0.0
O125 O 0.497 0.75568 0.6274 0.0
O126 O 0.6274 -0.003 0.25568 0.0
O127 O 0.497 0.2383 0.36658 0.0
O128 O 0.49699 0.2383 0.6274 0.0
O129 O 0.25569 0.1274 0.49699 0.0
O130 O 0.25569 0.86658 0.49698 0.0
C131 C 0.71145 -0.003 0.28253 0.0
O132 O 0.7383 0.86658 0.49699 0.0
O133 O 0.7383 0.1274 0.49698 0.0
C134 C 0.28254 -0.00302 0.28253 0.0
O135 O 0.497 0.1274 0.25568 0.0
O136 O 0.497 0.86658 0.73829 0.0
O137 O 0.49699 0.1274 0.73829 0.0
O138 O 0.49699 0.86658 0.25568 0.0
O139 O 0.25569 -0.00301 0.36658 0.0
O140 O 0.7383 -0.003 0.36658 0.0
C141 C 0.49699 0.78253 0.28253 0.0
O142 O 0.7383 -0.00301 0.6274 0.0
O143 O 0.6274 0.2383 0.49698 0.0
O144 O 0.25569 -0.003 0.6274 0.0
O145 O 0.6274 0.75568 0.49699 0.0
O146 O 0.36659 0.75568 0.49698 0.0
O147 O 0.36659 0.2383 0.49699 0.0
C148 C 0.497 0.21145 0.28253 0.0
C149 C 0.497 0.78253 0.71145 0.0
C150 C 0.49699 0.71145 0.21145 0.0
C151 C 0.28254 0.71145 -0.003 0.0
O152 O 0.57434 0.57434 0.07434 0.0
O153 O 0.41965 0.41964 0.07434 0.0
O154 O 0.57434 0.41965 0.07433 0.0
O155 O 0.41965 0.57433 0.07433 0.0
Hf156 Hf 0.49699 0.49699 0.16175 0.0
O157 O 0.57434 0.57434 0.91964 0.0
Hf158 Hf 0.49699 0.66175 -0.00301 0.0
O159 O 0.57434 0.41964 0.91964 0.0
Hf160 Hf 0.66176 0.49699 -0.00301 0.0
O161 O 0.41965 0.57434 0.91964 0.0
Hf162 Hf 0.49699 0.33223 -0.00301 0.0
Hf163 Hf 0.33223 0.49699 -0.00301 0.0
O164 O 0.41965 0.41964 0.91964 0.0
Hf165 Hf 0.49699 0.49699 0.83223 0.0
C166 C 0.28254 0.28253 -0.00302 0.0
C167 C 0.71145 0.71145 -0.00302 0.0
C168 C 0.71145 0.28253 -0.003 0.0
C169 C 0.71145 0.49698 0.21145 0.0
O170 O 0.6274 0.49698 0.2383 0.0
O171 O 0.36659 0.49699 0.2383 0.0
C172 C 0.28254 0.497 0.21145 0.0
O173 O 0.36659 0.49698 0.75568 0.0
O174 O 0.49699 0.25568 0.86658 0.0
O175 O 0.497 0.25568 0.1274 0.0
O176 O 0.6274 0.49699 0.75568 0.0
O177 O 0.497 0.7383 0.86658 0.0
O178 O 0.49699 0.7383 0.1274 0.0
O179 O 0.25569 0.6274 -0.003 0.0
O180 O 0.25569 0.36658 -0.00301 0.0
C181 C 0.71145 0.497 0.78253 0.0
O182 O 0.7383 0.36658 -0.003 0.0
O183 O 0.7383 0.6274 -0.00301 0.0
C184 C 0.28254 0.49698 0.78253 0.0
O185 O 0.497 0.6274 0.75568 0.0
O186 O 0.497 0.36658 0.2383 0.0
O187 O 0.49699 0.6274 0.2383 0.0
O188 O 0.49699 0.36658 0.75568 0.0
O189 O 0.25569 0.49698 0.86658 0.0
O190 O 0.7383 0.49699 0.86658 0.0
C191 C 0.49699 0.28253 0.78253 0.0
O192 O 0.7383 0.49698 0.1274 0.0
O193 O 0.6274 0.7383 -0.00301 0.0
O194 O 0.25569 0.49699 0.1274 0.0
O195 O 0.6274 0.25568 -0.003 0.0
O196 O 0.36659 0.25568 -0.00301 0.0
O197 O 0.36659 0.7383 -0.003 0.0
C198 C 0.497 0.71145 0.78253 0.0
C199 C 0.497 0.28253 0.21145 0.0
loop_
_geom_bond_atom_site_label_1
_geom_bond_atom_site_label_2
_geom_bond_distance
_geom_bond_site_symmetry_2
_ccdc_geom_bond_type
C0 O28 1.281 . S
C0 O37 1.281 . S
C1 O29 1.281 . S
C1 O47 1.281 . S
O2 Hf6 2.202 . S
O2 Hf8 2.202 . S
O2 Hf10 2.202 . S
O3 Hf6 2.202 1_665 S
O3 Hf12 2.202 1_655 S
O3 Hf13 2.202 1_565 S
O4 Hf6 2.072 1_565 S
O4 Hf10 2.072 1_565 S
O4 Hf12 2.072 . S
O5 Hf6 2.072 1_655 S
O5 Hf8 2.072 1_655 S
O5 Hf13 2.072 . S
Hf6 O2 2.202 . S
Hf6 O3 2.202 1_445 S
Hf6 O4 2.072 1_545 S
Hf6 O5 2.072 1_455 S
Hf6 O20 2.209 1_545 S
Hf6 O21 2.209 1_455 S
Hf6 O36 2.209 1_545 S
Hf6 O37 2.209 1_455 S
O7 Hf8 2.072 1_556 S
O7 Hf10 2.072 1_556 S
O7 Hf15 2.072 . S
Hf8 O2 2.202 . S
Hf8 O5 2.072 1_455 S
Hf8 O7 2.072 1_554 S
Hf8 O11 2.202 1_454 S
Hf8 O27 2.209 1_554 S
Hf8 O28 2.209 1_455 S
Hf8 O43 2.209 1_554 S
Hf8 O47 2.209 1_455 S
O9 Hf10 2.202 1_566 S
O9 Hf12 2.202 1_556 S
O9 Hf15 2.202 1_565 S
Hf10 O2 2.202 . S
Hf10 O4 2.072 1_545 S
Hf10 O7 2.072 1_554 S
Hf10 O9 2.202 1_544 S
Hf10 O32 2.209 1_545 S
Hf10 O33 2.209 1_554 S
Hf10 O40 2.209 1_554 S
Hf10 O42 2.209 1_545 S
O11 Hf8 2.202 1_656 S
O11 Hf13 2.202 1_556 S
O11 Hf15 2.202 1_655 S
Hf12 O3 2.202 1_455 S
Hf12 O4 2.072 . S
Hf12 O9 2.202 1_554 S
Hf12 O14 2.072 1_454 S
Hf12 O24 2.209 1_454 S
Hf12 O25 2.209 . S
Hf12 O45 2.209 . S
Hf12 O46 2.209 1_454 S
Hf13 O3 2.202 1_545 S
Hf13 O5 2.072 . S
Hf13 O11 2.202 1_554 S
Hf13 O14 2.072 1_544 S
Hf13 O29 2.209 . S
Hf13 O30 2.209 1_544 S
Hf13 O39 2.209 1_544 S
Hf13 O44 2.209 . S
O14 Hf12 2.072 1_656 S
O14 Hf13 2.072 1_566 S
O14 Hf15 2.072 1_665 S
Hf15 O7 2.072 . S
Hf15 O9 2.202 1_545 S
Hf15 O11 2.202 1_455 S
Hf15 O14 2.072 1_445 S
Hf15 O23 2.209 1_445 S
Hf15 O26 2.209 . S
Hf15 O35 2.209 . S
Hf15 O38 2.209 1_445 S
C16 O30 1.281 . S
C16 O46 1.281 . S
C17 O33 1.281 . S
C17 O43 1.281 . S
C18 O32 1.281 . S
C18 O45 1.281 . S
C19 O20 1.281 . S
C19 O42 1.281 . S
O20 Hf6 2.209 1_565 S
O20 C19 1.281 . S
O21 Hf6 2.209 1_655 S
O21 C22 1.281 . S
C22 O21 1.281 . S
C22 O44 1.281 . S
O23 Hf15 2.209 1_665 S
O23 C34 1.281 . S
O24 Hf12 2.209 1_656 S
O24 C41 1.281 . S
O25 Hf12 2.209 . S
O25 C49 1.281 . S
O26 Hf15 2.209 . S
O26 C31 1.281 . S
O27 Hf8 2.209 1_556 S
O27 C48 1.281 . S
O28 C0 1.281 . S
O28 Hf8 2.209 1_655 S
O29 C1 1.281 . S
O29 Hf13 2.209 . S
O30 Hf13 2.209 1_566 S
O30 C16 1.281 . S
C31 O26 1.281 . S
C31 O40 1.281 . S
O32 Hf10 2.209 1_565 S
O32 C18 1.281 . S
O33 Hf10 2.209 1_556 S
O33 C17 1.281 . S
C34 O23 1.281 . S
C34 O39 1.281 . S
O35 Hf15 2.209 . S
O35 C48 1.281 . S
O36 Hf6 2.209 1_565 S
O36 C49 1.281 . S
O37 C0 1.281 . S
O37 Hf6 2.209 1_655 S
O38 Hf15 2.209 1_665 S
O38 C41 1.281 . S
O39 Hf13 2.209 1_566 S
O39 C34 1.281 . S
O40 Hf10 2.209 1_556 S
O40 C31 1.281 . S
C41 O24 1.281 . S
C41 O38 1.281 . S
O42 Hf10 2.209 1_565 S
O42 C19 1.281 . S
O43 Hf8 2.209 1_556 S
O43 C17 1.281 . S
O44 Hf13 2.209 . S
O44 C22 1.281 . S
O45 Hf12 2.209 . S
O45 C18 1.281 . S
O46 Hf12 2.209 1_656 S
O46 C16 1.281 . S
O47 C1 1.281 . S
O47 Hf8 2.209 1_655 S
C48 O27 1.281 . S
C48 O35 1.281 . S
C49 O25 1.281 . S
C49 O36 1.281 . S
C50 O78 1.281 . S
C50 O87 1.281 . S
C51 O79 1.281 . S
C51 O97 1.281 . S
O52 Hf56 2.202 . S
O52 Hf58 2.202 . S
O52 Hf60 2.202 . S
O53 Hf56 2.202 1_655 S
O53 Hf62 2.202 1_655 S
O53 Hf63 2.202 . S
O54 Hf56 2.072 . S
O54 Hf60 2.072 . S
O54 Hf62 2.072 . S
O55 Hf56 2.072 1_655 S
O55 Hf58 2.072 1_655 S
O55 Hf63 2.072 . S
Hf56 O52 2.202 . S
Hf56 O53 2.202 1_455 S
Hf56 O54 2.072 . S
Hf56 O55 2.072 1_455 S
Hf56 O70 2.209 . S
Hf56 O71 2.209 1_455 S
Hf56 O86 2.209 . S
Hf56 O87 2.209 1_455 S
O57 Hf58 2.072 . S
O57 Hf60 2.072 . S
O57 Hf65 2.072 . S
Hf58 O52 2.202 . S
Hf58 O55 2.072 1_455 S
Hf58 O57 2.072 . S
Hf58 O61 2.202 1_455 S
Hf58 O77 2.209 . S
Hf58 O78 2.209 1_455 S
Hf58 O93 2.209 . S
Hf58 O97 2.209 1_455 S
O59 Hf60 2.202 . S
O59 Hf62 2.202 . S
O59 Hf65 2.202 . S
Hf60 O52 2.202 . S
Hf60 O54 2.072 . S
Hf60 O57 2.072 . S
Hf60 O59 2.202 . S
Hf60 O82 2.209 . S
Hf60 O83 2.209 . S
Hf60 O90 2.209 . S
Hf60 O92 2.209 . S
O61 Hf58 2.202 1_655 S
O61 Hf63 2.202 . S
O61 Hf65 2.202 1_655 S
Hf62 O53 2.202 1_455 S
Hf62 O54 2.072 . S
Hf62 O59 2.202 . S
Hf62 O64 2.072 1_455 S
Hf62 O74 2.209 1_455 S
Hf62 O75 2.209 . S
Hf62 O95 2.209 . S
Hf62 O96 2.209 1_455 S
Hf63 O53 2.202 . S
Hf63 O55 2.072 . S
Hf63 O61 2.202 . S
Hf63 O64 2.072 . S
Hf63 O79 2.209 . S
Hf63 O80 2.209 . S
Hf63 O89 2.209 . S
Hf63 O94 2.209 . S
O64 Hf62 2.072 1_655 S
O64 Hf63 2.072 . S
O64 Hf65 2.072 1_655 S
Hf65 O57 2.072 . S
Hf65 O59 2.202 . S
Hf65 O61 2.202 1_455 S
Hf65 O64 2.072 1_455 S
Hf65 O73 2.209 1_455 S
Hf65 O76 2.209 . S
Hf65 O85 2.209 . S
Hf65 O88 2.209 1_455 S
C66 O80 1.281 . S
C66 O96 1.281 . S
C67 O83 1.281 . S
C67 O93 1.281 . S
C68 O82 1.281 . S
C68 O95 1.281 . S
C69 O70 1.281 . S
C69 O92 1.281 . S
O70 Hf56 2.209 . S
O70 C69 1.281 . S
O71 Hf56 2.209 1_655 S
O71 C72 1.281 . S
C72 O71 1.281 . S
C72 O94 1.281 . S
O73 Hf65 2.209 1_655 S
O73 C84 1.281 . S
O74 Hf62 2.209 1_655 S
O74 C91 1.281 . S
O75 Hf62 2.209 . S
O75 C99 1.281 . S
O76 Hf65 2.209 . S
O76 C81 1.281 . S
O77 Hf58 2.209 . S
O77 C98 1.281 . S
O78 C50 1.281 . S
O78 Hf58 2.209 1_655 S
O79 C51 1.281 . S
O79 Hf63 2.209 . S
O80 Hf63 2.209 . S
O80 C66 1.281 . S
C81 O76 1.281 . S
C81 O90 1.281 . S
O82 Hf60 2.209 . S
O82 C68 1.281 . S
O83 Hf60 2.209 . S
O83 C67 1.281 . S
C84 O73 1.281 . S
C84 O89 1.281 . S
O85 Hf65 2.209 . S
O85 C98 1.281 . S
O86 Hf56 2.209 . S
O86 C99 1.281 . S
O87 C50 1.281 . S
O87 Hf56 2.209 1_655 S
O88 Hf65 2.209 1_655 S
O88 C91 1.281 . S
O89 Hf63 2.209 . S
O89 C84 1.281 . S
O90 Hf60 2.209 . S
O90 C81 1.281 . S
C91 O74 1.281 . S
C91 O88 1.281 . S
O92 Hf60 2.209 . S
O92 C69 1.281 . S
O93 Hf58 2.209 . S
O93 C67 1.281 . S
O94 Hf63 2.209 . S
O94 C72 1.281 . S
O95 Hf62 2.209 . S
O95 C68 1.281 . S
O96 Hf62 2.209 1_655 S
O96 C66 1.281 . S
O97 C51 1.281 . S
O97 Hf58 2.209 1_655 S
C98 O77 1.281 . S
C98 O85 1.281 . S
C99 O75 1.281 . S
C99 O86 1.281 . S
C100 O128 1.281 . S
C100 O137 1.281 . S
C101 O129 1.281 . S
C101 O147 1.281 . S
O102 Hf106 2.202 . S
O102 Hf108 2.202 . S
O102 Hf110 2.202 . S
O103 Hf106 2.202 1_565 S
O103 Hf112 2.202 . S
O103 Hf113 2.202 1_565 S
O104 Hf106 2.072 1_565 S
O104 Hf110 2.072 1_565 S
O104 Hf112 2.072 . S
O105 Hf106 2.072 . S
O105 Hf108 2.072 . S
O105 Hf113 2.072 . S
Hf106 O102 2.202 . S
Hf106 O103 2.202 1_545 S
Hf106 O104 2.072 1_545 S
Hf106 O105 2.072 . S
Hf106 O120 2.209 1_545 S
Hf106 O121 2.209 . S
Hf106 O136 2.209 1_545 S
Hf106 O137 2.209 . S
O107 Hf108 2.072 . S
O107 Hf110 2.072 . S
O107 Hf115 2.072 . S
Hf108 O102 2.202 . S
Hf108 O105 2.072 . S
Hf108 O107 2.072 . S
Hf108 O111 2.202 . S
Hf108 O127 2.209 . S
Hf108 O128 2.209 . S
Hf108 O143 2.209 . S
Hf108 O147 2.209 . S
O109 Hf110 2.202 1_565 S
O109 Hf112 2.202 . S
O109 Hf115 2.202 1_565 S
Hf110 O102 2.202 . S
Hf110 O104 2.072 1_545 S
Hf110 O107 2.072 . S
Hf110 O109 2.202 1_545 S
Hf110 O132 2.209 1_545 S
Hf110 O133 2.209 . S
Hf110 O140 2.209 . S
Hf110 O142 2.209 1_545 S
O111 Hf108 2.202 . S
O111 Hf113 2.202 . S
O111 Hf115 2.202 . S
Hf112 O103 2.202 . S
Hf112 O104 2.072 . S
Hf112 O109 2.202 . S
Hf112 O114 2.072 . S
Hf112 O124 2.209 . S
Hf112 O125 2.209 . S
Hf112 O145 2.209 . S
Hf112 O146 2.209 . S
Hf113 O103 2.202 1_545 S
Hf113 O105 2.072 . S
Hf113 O111 2.202 . S
Hf113 O114 2.072 1_545 S
Hf113 O129 2.209 . S
Hf113 O130 2.209 1_545 S
Hf113 O139 2.209 1_545 S
Hf113 O144 2.209 . S
O114 Hf112 2.072 . S
O114 Hf113 2.072 1_565 S
O114 Hf115 2.072 1_565 S
Hf115 O107 2.072 . S
Hf115 O109 2.202 1_545 S
Hf115 O111 2.202 . S
Hf115 O114 2.072 1_545 S
Hf115 O123 2.209 1_545 S
Hf115 O126 2.209 . S
Hf115 O135 2.209 . S
Hf115 O138 2.209 1_545 S
C116 O130 1.281 . S
C116 O146 1.281 . S
C117 O133 1.281 . S
C117 O143 1.281 . S
C118 O132 1.281 . S
C118 O145 1.281 . S
C119 O120 1.281 . S
C119 O142 1.281 . S
O120 Hf106 2.209 1_565 S
O120 C119 1.281 . S
O121 Hf106 2.209 . S
O121 C122 1.281 . S
C122 O121 1.281 . S
C122 O144 1.281 . S
O123 Hf115 2.209 1_565 S
O123 C134 1.281 . S
O124 Hf112 2.209 . S
O124 C141 1.281 . S
O125 Hf112 2.209 . S
O125 C149 1.281 . S
O126 Hf115 2.209 . S
O126 C131 1.281 . S
O127 Hf108 2.209 . S
O127 C148 1.281 . S
O128 C100 1.281 . S
O128 Hf108 2.209 . S
O129 C101 1.281 . S
O129 Hf113 2.209 . S
O130 Hf113 2.209 1_565 S
O130 C116 1.281 . S
C131 O126 1.281 . S
C131 O140 1.281 . S
O132 Hf110 2.209 1_565 S
O132 C118 1.281 . S
O133 Hf110 2.209 . S
O133 C117 1.281 . S
C134 O123 1.281 . S
C134 O139 1.281 . S
O135 Hf115 2.209 . S
O135 C148 1.281 . S
O136 Hf106 2.209 1_565 S
O136 C149 1.281 . S
O137 C100 1.281 . S
O137 Hf106 2.209 . S
O138 Hf115 2.209 1_565 S
O138 C141 1.281 . S
O139 Hf113 2.209 1_565 S
O139 C134 1.281 . S
O140 Hf110 2.209 . S
O140 C131 1.281 . S
C141 O124 1.281 . S
C141 O138 1.281 . S
O142 Hf110 2.209 1_565 S
O142 C119 1.281 . S
O143 Hf108 2.209 . S
O143 C117 1.281 . S
O144 Hf113 2.209 . S
O144 C122 1.281 . S
O145 Hf112 2.209 . S
O145 C118 1.281 . S
O146 Hf112 2.209 . S
O146 C116 1.281 . S
O147 C101 1.281 . S
O147 Hf108 2.209 . S
C148 O127 1.281 . S
C148 O135 1.281 . S
C149 O125 1.281 . S
C149 O136 1.281 . S
C150 O178 1.281 . S
C150 O187 1.281 . S
C151 O179 1.281 . S
C151 O197 1.281 . S
O152 Hf156 2.202 . S
O152 Hf158 2.202 . S
O152 Hf160 2.202 . S
O153 Hf156 2.202 . S
O153 Hf162 2.202 . S
O153 Hf163 2.202 . S
O154 Hf156 2.072 . S
O154 Hf160 2.072 . S
O154 Hf162 2.072 . S
O155 Hf156 2.072 . S
O155 Hf158 2.072 . S
O155 Hf163 2.072 . S
Hf156 O152 2.202 . S
Hf156 O153 2.202 . S
Hf156 O154 2.072 . S
Hf156 O155 2.072 . S
Hf156 O170 2.209 . S
Hf156 O171 2.209 . S
Hf156 O186 2.209 . S
Hf156 O187 2.209 . S
O157 Hf158 2.072 1_556 S
O157 Hf160 2.072 1_556 S
O157 Hf165 2.072 . S
Hf158 O152 2.202 . S
Hf158 O155 2.072 . S
Hf158 O157 2.072 1_554 S
Hf158 O161 2.202 1_554 S
Hf158 O177 2.209 1_554 S
Hf158 O178 2.209 . S
Hf158 O193 2.209 1_554 S
Hf158 O197 2.209 . S
O159 Hf160 2.202 1_556 S
O159 Hf162 2.202 1_556 S
O159 Hf165 2.202 . S
Hf160 O152 2.202 . S
Hf160 O154 2.072 . S
Hf160 O157 2.072 1_554 S
Hf160 O159 2.202 1_554 S
Hf160 O182 2.209 . S
Hf160 O183 2.209 1_554 S
Hf160 O190 2.209 1_554 S
Hf160 O192 2.209 . S
O161 Hf158 2.202 1_556 S
O161 Hf163 2.202 1_556 S
O161 Hf165 2.202 . S
Hf162 O153 2.202 . S
Hf162 O154 2.072 . S
Hf162 O159 2.202 1_554 S
Hf162 O164 2.072 1_554 S
Hf162 O174 2.209 1_554 S
Hf162 O175 2.209 . S
Hf162 O195 2.209 . S
Hf162 O196 2.209 1_554 S
Hf163 O153 2.202 . S
Hf163 O155 2.072 . S
Hf163 O161 2.202 1_554 S
Hf163 O164 2.072 1_554 S
Hf163 O179 2.209 . S
Hf163 O180 2.209 1_554 S
Hf163 O189 2.209 1_554 S
Hf163 O194 2.209 . S
O164 Hf162 2.072 1_556 S
O164 Hf163 2.072 1_556 S
O164 Hf165 2.072 . S
Hf165 O157 2.072 . S
Hf165 O159 2.202 . S
Hf165 O161 2.202 . S
Hf165 O164 2.072 . S
Hf165 O173 2.209 . S
Hf165 O176 2.209 . S
Hf165 O185 2.209 . S
Hf165 O188 2.209 . S
C166 O180 1.281 . S
C166 O196 1.281 . S
C167 O183 1.281 . S
C167 O193 1.281 . S
C168 O182 1.281 . S
C168 O195 1.281 . S
C169 O170 1.281 . S
C169 O192 1.281 . S
O170 Hf156 2.209 . S
O170 C169 1.281 . S
O171 Hf156 2.209 . S
O171 C172 1.281 . S
C172 O171 1.281 . S
C172 O194 1.281 . S
O173 Hf165 2.209 . S
O173 C184 1.281 . S
O174 Hf162 2.209 1_556 S
O174 C191 1.281 . S
O175 Hf162 2.209 . S
O175 C199 1.281 . S
O176 Hf165 2.209 . S
O176 C181 1.281 . S
O177 Hf158 2.209 1_556 S
O177 C198 1.281 . S
O178 C150 1.281 . S
O178 Hf158 2.209 . S
O179 C151 1.281 . S
O179 Hf163 2.209 . S
O180 Hf163 2.209 1_556 S
O180 C166 1.281 . S
C181 O176 1.281 . S
C181 O190 1.281 . S
O182 Hf160 2.209 . S
O182 C168 1.281 . S
O183 Hf160 2.209 1_556 S
O183 C167 1.281 . S
C184 O173 1.281 . S
C184 O189 1.281 . S
O185 Hf165 2.209 . S
O185 C198 1.281 . S
O186 Hf156 2.209 . S
O186 C199 1.281 . S
O187 C150 1.281 . S
O187 Hf156 2.209 . S
O188 Hf165 2.209 . S
O188 C191 1.281 . S
O189 Hf163 2.209 1_556 S
O189 C184 1.281 . S
O190 Hf160 2.209 1_556 S
O190 C181 1.281 . S
C191 O174 1.281 . S
C191 O188 1.281 . S
O192 Hf160 2.209 . S
O192 C169 1.281 . S
O193 Hf158 2.209 1_556 S
O193 C167 1.281 . S
O194 Hf163 2.209 . S
O194 C172 1.281 . S
O195 Hf162 2.209 . S
O195 C168 1.281 . S
O196 Hf162 2.209 1_556 S
O196 C166 1.281 . S
O197 C151 1.281 . S
O197 Hf158 2.209 . S
C198 O177 1.281 . S
C198 O185 1.281 . S
C199 O175 1.281 . S
C199 O186 1.281 . S
C0 C91 1.497 . S
C22 C131 1.499 . S
C49 C98 1.499 . S
C134 C19 1.497 . S
C41 C50 1.501 . S
C31 C122 1.499 . S
C99 C48 1.499 . S
C119 C34 1.501 . S
C166 C17 1.497 . S
C151 C18 1.499 . S
C168 C1 1.499 . S
C16 C167 1.501 . S
C181 C72 1.501 . S
C69 C184 1.499 . S
C81 C172 1.497 . S
C169 C84 1.499 . S
C116 C67 1.499 . S
C68 C101 1.497 . S
C51 C118 1.501 . S
C117 C66 1.499 . S
C191 C100 1.499 . S
C149 C198 1.501 . S
C150 C141 1.499 . S
C148 C199 1.497 . S
