# Generated by pormake.
# Topology bcu, (8)-cn, num edge types: 1
# Building blocks:
#     Node 0, Type 0, BuildingBlock: AJUNOK_clean_sbu_0, # of connection points: 8
#     Node 1, Type 0, BuildingBlock: AJUNOK_clean_sbu_0, # of connection points: 8
#     Edge 2, Type (0, 0), BuildingBlock: KIFKEQ_clean_linker_1, # of connection points: 2
#     Edge 3, Type (0, 0), BuildingBlock: KIFKEQ_clean_linker_1, # of connection points: 2
#     Edge 4, Type (0, 0), BuildingBlock: KIFKEQ_clean_linker_1, # of connection points: 2
#     Edge 5, Type (0, 0), BuildingBlock: KIFKEQ_clean_linker_1, # of connection points: 2
#     Edge 6, Type (0, 0), BuildingBlock: KIFKEQ_clean_linker_1, # of connection points: 2
#     Edge 7, Type (0, 0), BuildingBlock: KIFKEQ_clean_linker_1, # of connection points: 2
#     Edge 8, Type (0, 0), BuildingBlock: KIFKEQ_clean_linker_1, # of connection points: 2
#     Edge 9, Type (0, 0), BuildingBlock: KIFKEQ_clean_linker_1, # of connection points: 2
# Relax obj value: 0.064
# Max RMSD: 0.173
# Mean RMSD: 0.173
data_MOF--net-bcu--node1-AJUNOK_clean_sbu_0--edge1-KIFKEQ_clean_linker_1
_symmetry_space_group_name_H-M    P1
_symmetry_Int_Tables_number       1
_symmetry_cell_setting            triclinic
loop_
_symmetry_equiv_pos_as_xyz
'x, y, z'
_cell_length_a     24.04608
_cell_length_b     24.210985
_cell_length_c     17.634512
_cell_angle_alpha  104.14389
_cell_angle_beta   102.86718
_cell_angle_gamma 105.9814
loop_
_atom_site_label
_atom_site_type_symbol
_atom_site_fract_x
_atom_site_fract_y
_atom_site_fract_z
_atom_type_partial_charge
Cd0 Cd 0.95053 0.91293 0.08059 0.0
Cd1 Cd 0.02146 0.03264 0.92684 0.0
C2 C 0.07091 0.90227 0.18335 0.0
N3 N 0.04055 0.89193 0.10359 0.0
C4 C 0.108 0.84507 0.05789 0.0
C5 C 0.1385 0.85248 0.13978 0.0
C6 C 0.11998 0.88276 0.20291 0.0
C7 C 0.05851 0.86484 0.04103 0.0
H8 H 0.05517 0.92326 0.23181 0.0
H9 H 0.03329 0.85679 0.97803 0.0
C10 C 0.9406 0.89667 0.86628 0.0
C11 C 0.90012 0.03077 0.80998 0.0
C12 C 0.85105 0.04863 0.78301 0.0
C13 C 0.83104 0.08242 0.84081 0.0
C14 C 0.85868 0.09419 0.92498 0.0
C15 C 0.90816 0.07574 0.94936 0.0
N16 N 0.92832 0.0457 0.89176 0.0
H17 H 0.91805 0.00807 0.76565 0.0
H18 H 0.93242 0.08811 0.01402 0.0
C19 C 0.08747 0.96388 0.82027 0.0
N20 N 0.08898 -0.01634 0.90002 0.0
C21 C 0.16712 0.94412 0.9421 0.0
C22 C 0.16501 0.92167 0.85982 0.0
C23 C 0.1248 0.93197 0.79855 0.0
C24 C 0.12796 -0.02509 0.96096 0.0
H25 H 0.05646 0.97216 0.77333 0.0
H26 H 0.12817 -0.00874 0.02389 0.0
C27 C 0.03887 0.04279 0.1384 0.0
C28 C 0.88572 0.81395 0.12167 0.0
N29 N 0.8893 0.97037 0.10759 0.0
C30 C 0.89435 -0.00511 0.18796 0.0
C31 C 0.85937 0.02968 0.20968 0.0
C32 C 0.8175 0.03788 0.148 0.0
C33 C 0.81176 0.01069 0.06525 0.0
C34 C 0.84874 -0.02291 0.04625 0.0
C35 C 0.08325 0.13931 0.89762 0.0
O36 O 0.95335 0.91863 0.94371 0.0
O37 O 0.96006 0.93224 0.82837 0.0
O38 O 0.01932 0.02049 0.06057 0.0
O39 O 0.01919 0.01005 0.17941 0.0
O40 O 0.86746 0.81697 0.04986 0.0
O41 O 0.93293 0.85661 0.17226 0.0
O42 O 0.09498 0.13626 0.97007 0.0
O43 O 0.04333 0.09331 0.8406 0.0
H44 H 0.92574 -0.0126 0.23537 0.0
H45 H 0.84506 0.95626 0.98277 0.0
H46 H 0.12114 0.82286 0.0072 0.0
H47 H 0.14094 0.8886 0.26674 0.0
H48 H 0.83065 0.03845 0.71762 0.0
H49 H 0.84478 0.12062 0.97134 0.0
H50 H 0.19752 0.93658 0.99073 0.0
H51 H 0.12242 0.91558 0.73457 0.0
H52 H 0.86431 0.04927 0.27407 0.0
H53 H 0.77978 0.01614 0.01615 0.0
Cd54 Cd 0.44954 0.45984 0.62461 0.0
Cd55 Cd 0.52919 0.49546 0.40965 0.0
C56 C 0.54108 0.41006 0.72347 0.0
N57 N 0.50313 0.39591 0.64643 0.0
C58 C 0.52472 0.30503 0.60091 0.0
C59 C 0.56435 0.31841 0.68019 0.0
C60 C 0.57272 0.37219 0.74154 0.0
C61 C 0.49443 0.34472 0.58531 0.0
H62 H 0.54651 0.45076 0.77111 0.0
H63 H 0.46342 0.3344 0.52477 0.0
C64 C 0.40119 0.41288 0.40047 0.0
C65 C 0.436 0.53513 0.29497 0.0
C66 C 0.40147 0.5686 0.26883 0.0
C67 C 0.4045 0.62254 0.32472 0.0
C68 C 0.44236 0.64139 0.40635 0.0
C69 C 0.4757 0.60598 0.43017 0.0
N70 N 0.47162 0.55385 0.37455 0.0
H71 H 0.43476 0.49424 0.25158 0.0
H72 H 0.50497 0.62012 0.49283 0.0
C73 C 0.53593 0.37511 0.29555 0.0
N74 N 0.54501 0.40309 0.37632 0.0
C75 C 0.58698 0.33139 0.41435 0.0
C76 C 0.58199 0.30386 0.33163 0.0
C77 C 0.55455 0.32567 0.27182 0.0
C78 C 0.56877 0.3817 0.43552 0.0
H79 H 0.51688 0.3931 0.24975 0.0
H80 H 0.57572 0.4051 0.49941 0.0
C81 C 0.57527 0.53803 0.62814 0.0
C82 C 0.35798 0.40714 0.68839 0.0
N83 N 0.43709 0.55353 0.65465 0.0
C84 C 0.44389 0.58202 0.73441 0.0
C85 C 0.4267 0.63273 0.75536 0.0
C86 C 0.40297 0.65508 0.69373 0.0
C87 C 0.40024 0.62677 0.61232 0.0
C88 C 0.41688 0.57527 0.59392 0.0
C89 C 0.6221 0.55178 0.35156 0.0
O90 O 0.43182 0.43771 0.476 0.0
O91 O 0.42645 0.42457 0.34753 0.0
O92 O 0.53979 0.51275 0.55512 0.0
O93 O 0.55477 0.5289 0.686 0.0
O94 O 0.34821 0.39549 0.61131 0.0
O95 O 0.41031 0.44335 0.73528 0.0
O96 O 0.62944 0.56607 0.42846 0.0
O97 O 0.57199 0.51185 0.30355 0.0
H98 H 0.45987 0.56348 0.78135 0.0
H99 H 0.41136 0.55116 0.53086 0.0
H100 H 0.51623 0.26387 0.55181 0.0
H101 H 0.60364 0.38526 0.80302 0.0
H102 H 0.37354 0.55306 0.2051 0.0
H103 H 0.44567 0.68265 0.45127 0.0
H104 H 0.60645 0.3156 0.46266 0.0
H105 H 0.55036 0.30714 0.20757 0.0
H106 H 0.42887 0.65181 0.81866 0.0
H107 H 0.3835 0.64283 0.56279 0.0
H108 H 0.12785 0.09822 0.0848 0.0
H109 H 0.05503 0.12075 0.28822 0.0
H110 H 0.20622 0.1984 0.15385 0.0
H111 H 0.13558 0.22058 0.3599 0.0
H112 H 0.31174 0.39398 0.26354 0.0
H113 H 0.21414 0.31038 0.20405 0.0
H114 H 0.25399 0.25102 0.41545 0.0
H115 H 0.35232 0.33405 0.47407 0.0
C116 C 0.12765 0.12573 0.14309 0.0
C117 C 0.0847 0.1033 0.18008 0.0
C118 C 0.17259 0.18257 0.18296 0.0
C119 C 0.17589 0.21727 0.26134 0.0
C120 C 0.1333 0.1946 0.29909 0.0
C121 C 0.08769 0.13781 0.25843 0.0
C122 C 0.29892 0.36375 0.29794 0.0
C123 C 0.33897 0.37003 0.37325 0.0
C124 C 0.24327 0.31629 0.26416 0.0
C125 C 0.22718 0.27451 0.30524 0.0
C126 C 0.26531 0.28332 0.38336 0.0
C127 C 0.32124 0.33081 0.41705 0.0
H128 H 0.69368 0.00455 0.09774 0.0
H129 H 0.85796 0.15376 0.25128 0.0
H130 H 0.63264 0.06289 0.1458 0.0
H131 H 0.79789 0.21369 0.29607 0.0
H132 H 0.68488 0.293 0.42271 0.0
H133 H 0.73706 0.22466 0.37937 0.0
H134 H 0.59936 0.1438 0.14083 0.0
H135 H 0.54383 0.20808 0.18701 0.0
C136 C 0.71655 0.05032 0.14079 0.0
C137 C 0.78032 0.07475 0.17116 0.0
C138 C 0.68173 0.08391 0.16833 0.0
C139 C 0.71007 0.14307 0.22575 0.0
C140 C 0.77414 0.16778 0.25392 0.0
C141 C 0.80876 0.1338 0.22761 0.0
C142 C 0.66446 0.25952 0.36184 0.0
C143 C 0.61015 0.257 0.30827 0.0
C144 C 0.69532 0.22095 0.33619 0.0
C145 C 0.67354 0.17948 0.25565 0.0
C146 C 0.61782 0.17497 0.2033 0.0
C147 C 0.58628 0.21274 0.22953 0.0
H148 H 0.92729 0.78437 0.25676 0.0
H149 H 0.76932 0.73412 0.04608 0.0
H150 H 0.86929 0.71242 0.31022 0.0
H151 H 0.71047 0.66356 0.10096 0.0
H152 H 0.62577 0.51665 0.1948 0.0
H153 H 0.69531 0.57153 0.13496 0.0
H154 H 0.79 0.71088 0.37227 0.0
H155 H 0.72161 0.65483 0.4326 0.0
C156 C 0.88017 0.7576 0.22167 0.0
C157 C 0.85242 0.76521 0.14784 0.0
C158 C 0.84693 0.71665 0.2525 0.0
C159 C 0.78513 0.68295 0.21049 0.0
C160 C 0.7582 0.68846 0.13448 0.0
C161 C 0.79172 0.72905 0.10317 0.0
C162 C 0.66196 0.55867 0.23434 0.0
C163 C 0.66807 0.58192 0.31814 0.0
C164 C 0.70156 0.59018 0.19996 0.0
C165 C 0.74773 0.64579 0.2486 0.0
C166 C 0.75531 0.66776 0.33326 0.0
C167 C 0.71598 0.63592 0.36782 0.0
H168 H 0.24124 0.89632 0.27415 0.0
H169 H 0.14163 0.7438 0.05098 0.0
H170 H 0.30692 0.84214 0.31775 0.0
H171 H 0.21023 0.69166 0.09163 0.0
H172 H 0.28469 0.58165 0.23552 0.0
H173 H 0.22539 0.63997 0.18688 0.0
H174 H 0.38466 0.80349 0.29999 0.0
H175 H 0.44325 0.74491 0.35111 0.0
C176 C 0.23378 0.85157 0.23375 0.0
C177 C 0.18528 0.82418 0.15958 0.0
C178 C 0.2721 0.82073 0.25835 0.0
C179 C 0.26347 0.76198 0.2089 0.0
C180 C 0.21735 0.73618 0.13239 0.0
C181 C 0.17856 0.76668 0.10827 0.0
C182 C 0.30694 0.63006 0.24979 0.0
C183 C 0.3685 0.65878 0.29708 0.0
C184 C 0.27313 0.66353 0.22138 0.0
C185 C 0.30023 0.72654 0.23864 0.0
C186 C 0.36198 0.75525 0.28623 0.0
C187 C 0.39563 0.72177 0.31554 0.0
H188 H 0.28879 0.95614 0.91394 0.0
H189 H 0.12643 0.80735 0.75342 0.0
H190 H 0.35142 0.89861 0.86896 0.0
H191 H 0.18788 0.74812 0.71179 0.0
H192 H 0.30402 0.66764 0.59599 0.0
H193 H 0.252 0.7374 0.63365 0.0
H194 H 0.38341 0.81741 0.87716 0.0
H195 H 0.43913 0.75171 0.83673 0.0
C196 C 0.2667 0.91071 0.86978 0.0
C197 C 0.20308 0.88603 0.83673 0.0
C198 C 0.30239 0.87758 0.84408 0.0
C199 C 0.27497 0.81865 0.78597 0.0
C200 C 0.21098 0.79388 0.75462 0.0
C201 C 0.17555 0.82744 0.77905 0.0
C202 C 0.32323 0.70129 0.65675 0.0
C203 C 0.37568 0.70312 0.71349 0.0
C204 C 0.29242 0.74069 0.67907 0.0
C205 C 0.3123 0.7822 0.75933 0.0
C206 C 0.36646 0.7862 0.81478 0.0
C207 C 0.39804 0.74764 0.79187 0.0
H208 H 0.35732 0.43888 0.84745 0.0
H209 H 0.25456 0.30913 0.60544 0.0
H210 H 0.28469 0.38539 0.90506 0.0
H211 H 0.18373 0.25408 0.663 0.0
H212 H 0.04494 0.17599 0.76836 0.0
H213 H 0.10587 0.25199 0.72311 0.0
H214 H 0.26027 0.2936 0.93545 0.0
H215 H 0.19791 0.21985 0.98269 0.0
C216 C 0.31905 0.39899 0.80661 0.0
C217 C 0.31166 0.37784 0.72212 0.0
C218 C 0.27762 0.3682 0.83963 0.0
C219 C 0.22845 0.31523 0.7889 0.0
C220 C 0.22031 0.29531 0.70387 0.0
C221 C 0.26121 0.32656 0.67078 0.0
C222 C 0.0916 0.20238 0.80605 0.0
C223 C 0.11716 0.1917 0.87828 0.0
C224 C 0.12665 0.24558 0.77991 0.0
C225 C 0.1884 0.27797 0.82454 0.0
C226 C 0.2128 0.26984 0.8997 0.0
C227 C 0.17724 0.22739 0.92671 0.0
H228 H 0.72966 0.08435 0.88679 0.0
H229 H 0.83358 0.14618 0.73424 0.0
H230 H 0.65872 0.13434 0.84249 0.0
H231 H 0.765 0.19797 0.6926 0.0
H232 H 0.6114 0.25082 0.58045 0.0
H233 H 0.66803 0.18642 0.61412 0.0
H234 H 0.65192 0.23126 0.85925 0.0
H235 H 0.59103 0.29143 0.82336 0.0
C236 C 0.73724 0.10871 0.84389 0.0
C237 C 0.78662 0.11093 0.81327 0.0
C238 C 0.6969 0.13761 0.81873 0.0
C239 C 0.70582 0.17014 0.76353 0.0
C240 C 0.7555 0.17216 0.73333 0.0
C241 C 0.79511 0.14267 0.75751 0.0
C242 C 0.61871 0.24592 0.64094 0.0
C243 C 0.59699 0.27697 0.69934 0.0
C244 C 0.65209 0.20961 0.66077 0.0
C245 C 0.6654 0.20408 0.73989 0.0
C246 C 0.64228 0.23385 0.79752 0.0
C247 C 0.60817 0.26941 0.77731 0.0
H248 H 0.6124 0.62901 0.5683 0.0
H249 H 0.67705 0.53605 0.72886 0.0
H250 H 0.71321 0.70555 0.61396 0.0
H251 H 0.77972 0.61049 0.77181 0.0
H252 H 0.89259 0.8419 0.69985 0.0
H253 H 0.81583 0.74133 0.62711 0.0
H254 H 0.82421 0.70918 0.85979 0.0
H255 H 0.90497 0.80696 0.9301 0.0
C256 C 0.64911 0.62412 0.6114 0.0
C257 C 0.63766 0.57761 0.64588 0.0
C258 C 0.70713 0.66762 0.63728 0.0
C259 C 0.75481 0.66473 0.69748 0.0
C260 C 0.74382 0.61504 0.72703 0.0
C261 C 0.68535 0.57235 0.70241 0.0
C262 C 0.87884 0.81256 0.73495 0.0
C263 C 0.90211 0.833 0.82115 0.0
C264 C 0.8346 0.75511 0.69339 0.0
C265 C 0.81214 0.71778 0.73759 0.0
C266 C 0.83988 0.73639 0.82321 0.0
C267 C 0.8851 0.79315 0.86422 0.0
loop_
_geom_bond_atom_site_label_1
_geom_bond_atom_site_label_2
_geom_bond_distance
_geom_bond_site_symmetry_2
_ccdc_geom_bond_type
Cd0 N3 2.334 1_655 S
Cd0 N29 2.304 1_565 S
Cd0 O36 2.268 1_554 S
Cd0 O39 2.273 1_665 S
Cd0 O40 2.417 . S
Cd0 O41 2.330 . S
Cd1 N16 2.304 1_455 S
Cd1 N20 2.334 1_545 S
Cd1 O37 2.273 1_445 S
Cd1 O38 2.268 1_556 S
Cd1 O42 2.417 . S
Cd1 O43 2.330 . S
C2 N3 1.332 . S
C2 C6 1.381 . S
C2 H8 0.931 . S
N3 Cd0 2.334 1_455 S
N3 C2 1.332 . S
N3 C7 1.328 . S
C4 C5 1.396 . S
C4 C7 1.378 . S
C4 H46 0.931 1_554 S
C5 C4 1.396 . S
C5 C6 1.382 . S
C6 C2 1.381 . S
C6 C5 1.382 . S
C6 H47 0.930 . S
C7 N3 1.328 . S
C7 C4 1.378 . S
C7 H9 0.930 1_454 S
H8 C2 0.931 . S
H9 C7 0.930 1_656 S
C10 O36 1.238 . S
C10 O37 1.253 . S
C11 C12 1.379 . S
C11 N16 1.337 . S
C11 H17 0.929 . S
C12 C11 1.379 . S
C12 C13 1.380 . S
C12 H48 0.929 . S
C13 C12 1.380 . S
C13 C14 1.399 . S
C14 C13 1.399 . S
C14 C15 1.376 . S
C14 H49 0.931 1_556 S
C15 C14 1.376 . S
C15 N16 1.338 . S
C15 H18 0.930 1_656 S
N16 Cd1 2.304 1_655 S
N16 C11 1.337 . S
N16 C15 1.338 . S
H17 C11 0.929 . S
H18 C15 0.930 1_454 S
C19 N20 1.332 . S
C19 C23 1.381 . S
C19 H25 0.931 . S
N20 Cd1 2.334 1_565 S
N20 C19 1.332 . S
N20 C24 1.328 . S
C21 C22 1.396 . S
C21 C24 1.378 . S
C21 H50 0.931 1_556 S
C22 C21 1.396 . S
C22 C23 1.382 . S
C23 C19 1.381 . S
C23 C22 1.382 . S
C23 H51 0.930 . S
C24 N20 1.328 . S
C24 C21 1.378 . S
C24 H26 0.930 1_566 S
H25 C19 0.931 . S
H26 C24 0.930 1_544 S
C27 O38 1.238 . S
C27 O39 1.253 . S
C28 O40 1.239 . S
C28 O41 1.230 . S
N29 Cd0 2.304 1_545 S
N29 C30 1.337 . S
N29 C34 1.338 . S
C30 N29 1.337 . S
C30 C31 1.379 . S
C30 H44 0.929 . S
C31 C30 1.379 . S
C31 C32 1.380 . S
C31 H52 0.929 . S
C32 C31 1.380 . S
C32 C33 1.399 . S
C33 C32 1.399 . S
C33 C34 1.376 . S
C33 H53 0.931 1_554 S
C34 N29 1.338 . S
C34 C33 1.376 . S
C34 H45 0.930 1_544 S
C35 O42 1.239 . S
C35 O43 1.230 . S
O36 Cd0 2.268 1_556 S
O36 C10 1.238 . S
O37 Cd1 2.273 1_665 S
O37 C10 1.253 . S
O38 Cd1 2.268 1_554 S
O38 C27 1.238 . S
O39 Cd0 2.273 1_445 S
O39 C27 1.253 . S
O40 Cd0 2.417 . S
O40 C28 1.239 . S
O41 Cd0 2.330 . S
O41 C28 1.230 . S
O42 Cd1 2.417 . S
O42 C35 1.239 . S
O43 Cd1 2.330 . S
O43 C35 1.230 . S
H44 C30 0.929 . S
H45 C34 0.930 1_566 S
H46 C4 0.931 1_556 S
H47 C6 0.930 . S
H48 C12 0.929 . S
H49 C14 0.931 1_554 S
H50 C21 0.931 1_554 S
H51 C23 0.930 . S
H52 C31 0.929 . S
H53 C33 0.931 1_556 S
Cd54 N57 2.334 . S
Cd54 N83 2.304 . S
Cd54 O90 2.268 . S
Cd54 O93 2.273 . S
Cd54 O94 2.417 . S
Cd54 O95 2.330 . S
Cd55 N70 2.304 . S
Cd55 N74 2.334 . S
Cd55 O91 2.273 . S
Cd55 O92 2.268 . S
Cd55 O96 2.417 . S
Cd55 O97 2.330 . S
C56 N57 1.332 . S
C56 C60 1.381 . S
C56 H62 0.931 . S
N57 Cd54 2.334 . S
N57 C56 1.332 . S
N57 C61 1.328 . S
C58 C59 1.396 . S
C58 C61 1.378 . S
C58 H100 0.931 . S
C59 C58 1.396 . S
C59 C60 1.382 . S
C60 C56 1.381 . S
C60 C59 1.382 . S
C60 H101 0.930 . S
C61 N57 1.328 . S
C61 C58 1.378 . S
C61 H63 0.930 . S
H62 C56 0.931 . S
H63 C61 0.930 . S
C64 O90 1.238 . S
C64 O91 1.253 . S
C65 C66 1.379 . S
C65 N70 1.337 . S
C65 H71 0.929 . S
C66 C65 1.379 . S
C66 C67 1.380 . S
C66 H102 0.929 . S
C67 C66 1.380 . S
C67 C68 1.399 . S
C68 C67 1.399 . S
C68 C69 1.376 . S
C68 H103 0.931 . S
C69 C68 1.376 . S
C69 N70 1.338 . S
C69 H72 0.930 . S
N70 Cd55 2.304 . S
N70 C65 1.337 . S
N70 C69 1.338 . S
H71 C65 0.929 . S
H72 C69 0.930 . S
C73 N74 1.332 . S
C73 C77 1.381 . S
C73 H79 0.931 . S
N74 Cd55 2.334 . S
N74 C73 1.332 . S
N74 C78 1.328 . S
C75 C76 1.396 . S
C75 C78 1.378 . S
C75 H104 0.931 . S
C76 C75 1.396 . S
C76 C77 1.382 . S
C77 C73 1.381 . S
C77 C76 1.382 . S
C77 H105 0.930 . S
C78 N74 1.328 . S
C78 C75 1.378 . S
C78 H80 0.930 . S
H79 C73 0.931 . S
H80 C78 0.930 . S
C81 O92 1.238 . S
C81 O93 1.253 . S
C82 O94 1.239 . S
C82 O95 1.230 . S
N83 Cd54 2.304 . S
N83 C84 1.337 . S
N83 C88 1.338 . S
C84 N83 1.337 . S
C84 C85 1.379 . S
C84 H98 0.929 . S
C85 C84 1.379 . S
C85 C86 1.380 . S
C85 H106 0.929 . S
C86 C85 1.380 . S
C86 C87 1.399 . S
C87 C86 1.399 . S
C87 C88 1.376 . S
C87 H107 0.931 . S
C88 N83 1.338 . S
C88 C87 1.376 . S
C88 H99 0.930 . S
C89 O96 1.239 . S
C89 O97 1.230 . S
O90 Cd54 2.268 . S
O90 C64 1.238 . S
O91 Cd55 2.273 . S
O91 C64 1.253 . S
O92 Cd55 2.268 . S
O92 C81 1.238 . S
O93 Cd54 2.273 . S
O93 C81 1.253 . S
O94 Cd54 2.417 . S
O94 C82 1.239 . S
O95 Cd54 2.330 . S
O95 C82 1.230 . S
O96 Cd55 2.417 . S
O96 C89 1.239 . S
O97 Cd55 2.330 . S
O97 C89 1.230 . S
H98 C84 0.929 . S
H99 C88 0.930 . S
H100 C58 0.931 . S
H101 C60 0.930 . S
H102 C66 0.929 . S
H103 C68 0.931 . S
H104 C75 0.931 . S
H105 C77 0.930 . S
H106 C85 0.929 . S
H107 C87 0.931 . S
H108 C116 0.950 . S
H109 C121 0.950 . S
H110 C118 0.950 . S
H111 C120 0.950 . S
H112 C122 0.950 . S
H113 C124 0.950 . S
H114 C126 0.950 . S
H115 C127 0.950 . S
C116 H108 0.950 . S
C116 C117 1.386 . S
C116 C118 1.391 . S
C117 C116 1.386 . S
C117 C121 1.393 . S
C118 H110 0.950 . S
C118 C116 1.391 . S
C118 C119 1.400 . S
C119 C118 1.400 . S
C119 C120 1.398 . S
C119 C125 1.491 . S
C120 H111 0.950 . S
C120 C119 1.398 . S
C120 C121 1.391 . S
C121 H109 0.950 . S
C121 C117 1.393 . S
C121 C120 1.391 . S
C122 H112 0.950 . S
C122 C123 1.386 . S
C122 C124 1.391 . S
C123 C122 1.386 . S
C123 C127 1.393 . S
C124 H113 0.950 . S
C124 C122 1.391 . S
C124 C125 1.400 . S
C125 C119 1.491 . S
C125 C124 1.400 . S
C125 C126 1.398 . S
C126 H114 0.950 . S
C126 C125 1.398 . S
C126 C127 1.391 . S
C127 H115 0.950 . S
C127 C123 1.393 . S
C127 C126 1.391 . S
H128 C136 0.950 . S
H129 C141 0.950 . S
H130 C138 0.950 . S
H131 C140 0.950 . S
H132 C142 0.950 . S
H133 C144 0.950 . S
H134 C146 0.950 . S
H135 C147 0.950 . S
C136 H128 0.950 . S
C136 C137 1.386 . S
C136 C138 1.391 . S
C137 C136 1.386 . S
C137 C141 1.393 . S
C138 H130 0.950 . S
C138 C136 1.391 . S
C138 C139 1.400 . S
C139 C138 1.400 . S
C139 C140 1.398 . S
C139 C145 1.491 . S
C140 H131 0.950 . S
C140 C139 1.398 . S
C140 C141 1.391 . S
C141 H129 0.950 . S
C141 C137 1.393 . S
C141 C140 1.391 . S
C142 H132 0.950 . S
C142 C143 1.386 . S
C142 C144 1.391 . S
C143 C142 1.386 . S
C143 C147 1.393 . S
C144 H133 0.950 . S
C144 C142 1.391 . S
C144 C145 1.400 . S
C145 C139 1.491 . S
C145 C144 1.400 . S
C145 C146 1.398 . S
C146 H134 0.950 . S
C146 C145 1.398 . S
C146 C147 1.391 . S
C147 H135 0.950 . S
C147 C143 1.393 . S
C147 C146 1.391 . S
H148 C156 0.950 . S
H149 C161 0.950 . S
H150 C158 0.950 . S
H151 C160 0.950 . S
H152 C162 0.950 . S
H153 C164 0.950 . S
H154 C166 0.950 . S
H155 C167 0.950 . S
C156 H148 0.950 . S
C156 C157 1.386 . S
C156 C158 1.391 . S
C157 C156 1.386 . S
C157 C161 1.393 . S
C158 H150 0.950 . S
C158 C156 1.391 . S
C158 C159 1.400 . S
C159 C158 1.400 . S
C159 C160 1.398 . S
C159 C165 1.491 . S
C160 H151 0.950 . S
C160 C159 1.398 . S
C160 C161 1.391 . S
C161 H149 0.950 . S
C161 C157 1.393 . S
C161 C160 1.391 . S
C162 H152 0.950 . S
C162 C163 1.386 . S
C162 C164 1.391 . S
C163 C162 1.386 . S
C163 C167 1.393 . S
C164 H153 0.950 . S
C164 C162 1.391 . S
C164 C165 1.400 . S
C165 C159 1.491 . S
C165 C164 1.400 . S
C165 C166 1.398 . S
C166 H154 0.950 . S
C166 C165 1.398 . S
C166 C167 1.391 . S
C167 H155 0.950 . S
C167 C163 1.393 . S
C167 C166 1.391 . S
H168 C176 0.950 . S
H169 C181 0.950 . S
H170 C178 0.950 . S
H171 C180 0.950 . S
H172 C182 0.950 . S
H173 C184 0.950 . S
H174 C186 0.950 . S
H175 C187 0.950 . S
C176 H168 0.950 . S
C176 C177 1.386 . S
C176 C178 1.391 . S
C177 C176 1.386 . S
C177 C181 1.393 . S
C178 H170 0.950 . S
C178 C176 1.391 . S
C178 C179 1.400 . S
C179 C178 1.400 . S
C179 C180 1.398 . S
C179 C185 1.491 . S
C180 H171 0.950 . S
C180 C179 1.398 . S
C180 C181 1.391 . S
C181 H169 0.950 . S
C181 C177 1.393 . S
C181 C180 1.391 . S
C182 H172 0.950 . S
C182 C183 1.386 . S
C182 C184 1.391 . S
C183 C182 1.386 . S
C183 C187 1.393 . S
C184 H173 0.950 . S
C184 C182 1.391 . S
C184 C185 1.400 . S
C185 C179 1.491 . S
C185 C184 1.400 . S
C185 C186 1.398 . S
C186 H174 0.950 . S
C186 C185 1.398 . S
C186 C187 1.391 . S
C187 H175 0.950 . S
C187 C183 1.393 . S
C187 C186 1.391 . S
H188 C196 0.950 . S
H189 C201 0.950 . S
H190 C198 0.950 . S
H191 C200 0.950 . S
H192 C202 0.950 . S
H193 C204 0.950 . S
H194 C206 0.950 . S
H195 C207 0.950 . S
C196 H188 0.950 . S
C196 C197 1.386 . S
C196 C198 1.391 . S
C197 C196 1.386 . S
C197 C201 1.393 . S
C198 H190 0.950 . S
C198 C196 1.391 . S
C198 C199 1.400 . S
C199 C198 1.400 . S
C199 C200 1.398 . S
C199 C205 1.491 . S
C200 H191 0.950 . S
C200 C199 1.398 . S
C200 C201 1.391 . S
C201 H189 0.950 . S
C201 C197 1.393 . S
C201 C200 1.391 . S
C202 H192 0.950 . S
C202 C203 1.386 . S
C202 C204 1.391 . S
C203 C202 1.386 . S
C203 C207 1.393 . S
C204 H193 0.950 . S
C204 C202 1.391 . S
C204 C205 1.400 . S
C205 C199 1.491 . S
C205 C204 1.400 . S
C205 C206 1.398 . S
C206 H194 0.950 . S
C206 C205 1.398 . S
C206 C207 1.391 . S
C207 H195 0.950 . S
C207 C203 1.393 . S
C207 C206 1.391 . S
H208 C216 0.950 . S
H209 C221 0.950 . S
H210 C218 0.950 . S
H211 C220 0.950 . S
H212 C222 0.950 . S
H213 C224 0.950 . S
H214 C226 0.950 . S
H215 C227 0.950 . S
C216 H208 0.950 . S
C216 C217 1.386 . S
C216 C218 1.391 . S
C217 C216 1.386 . S
C217 C221 1.393 . S
C218 H210 0.950 . S
C218 C216 1.391 . S
C218 C219 1.400 . S
C219 C218 1.400 . S
C219 C220 1.398 . S
C219 C225 1.491 . S
C220 H211 0.950 . S
C220 C219 1.398 . S
C220 C221 1.391 . S
C221 H209 0.950 . S
C221 C217 1.393 . S
C221 C220 1.391 . S
C222 H212 0.950 . S
C222 C223 1.386 . S
C222 C224 1.391 . S
C223 C222 1.386 . S
C223 C227 1.393 . S
C224 H213 0.950 . S
C224 C222 1.391 . S
C224 C225 1.400 . S
C225 C219 1.491 . S
C225 C224 1.400 . S
C225 C226 1.398 . S
C226 H214 0.950 . S
C226 C225 1.398 . S
C226 C227 1.391 . S
C227 H215 0.950 . S
C227 C223 1.393 . S
C227 C226 1.391 . S
H228 C236 0.950 . S
H229 C241 0.950 . S
H230 C238 0.950 . S
H231 C240 0.950 . S
H232 C242 0.950 . S
H233 C244 0.950 . S
H234 C246 0.950 . S
H235 C247 0.950 . S
C236 H228 0.950 . S
C236 C237 1.386 . S
C236 C238 1.391 . S
C237 C236 1.386 . S
C237 C241 1.393 . S
C238 H230 0.950 . S
C238 C236 1.391 . S
C238 C239 1.400 . S
C239 C238 1.400 . S
C239 C240 1.398 . S
C239 C245 1.491 . S
C240 H231 0.950 . S
C240 C239 1.398 . S
C240 C241 1.391 . S
C241 H229 0.950 . S
C241 C237 1.393 . S
C241 C240 1.391 . S
C242 H232 0.950 . S
C242 C243 1.386 . S
C242 C244 1.391 . S
C243 C242 1.386 . S
C243 C247 1.393 . S
C244 H233 0.950 . S
C244 C242 1.391 . S
C244 C245 1.400 . S
C245 C239 1.491 . S
C245 C244 1.400 . S
C245 C246 1.398 . S
C246 H234 0.950 . S
C246 C245 1.398 . S
C246 C247 1.391 . S
C247 H235 0.950 . S
C247 C243 1.393 . S
C247 C246 1.391 . S
H248 C256 0.950 . S
H249 C261 0.950 . S
H250 C258 0.950 . S
H251 C260 0.950 . S
H252 C262 0.950 . S
H253 C264 0.950 . S
H254 C266 0.950 . S
H255 C267 0.950 . S
C256 H248 0.950 . S
C256 C257 1.386 . S
C256 C258 1.391 . S
C257 C256 1.386 . S
C257 C261 1.393 . S
C258 H250 0.950 . S
C258 C256 1.391 . S
C258 C259 1.400 . S
C259 C258 1.400 . S
C259 C260 1.398 . S
C259 C265 1.491 . S
C260 H251 0.950 . S
C260 C259 1.398 . S
C260 C261 1.391 . S
C261 H249 0.950 . S
C261 C257 1.393 . S
C261 C260 1.391 . S
C262 H252 0.950 . S
C262 C263 1.386 . S
C262 C264 1.391 . S
C263 C262 1.386 . S
C263 C267 1.393 . S
C264 H253 0.950 . S
C264 C262 1.391 . S
C264 C265 1.400 . S
C265 C259 1.491 . S
C265 C264 1.400 . S
C265 C266 1.398 . S
C266 H254 0.950 . S
C266 C265 1.398 . S
C266 C267 1.391 . S
C267 H255 0.950 . S
C267 C263 1.393 . S
C267 C266 1.391 . S
C117 C27 0.419 . S
C123 C64 0.417 . S
C137 C32 1.976 . S
C143 C76 1.972 . S
C157 C28 1.271 . S
C163 C89 1.272 . S
C177 C5 1.974 . S
C183 C67 1.977 . S
C197 C22 1.992 . S
C203 C86 1.996 . S
C217 C82 1.255 . S
C223 C35 1.253 . S
C237 C13 1.987 . S
C243 C59 1.984 . S
C257 C81 0.414 . S
C263 C10 0.417 . S
