# Generated by pormake.
# Topology pcu, (6)-cn, num edge types: 1
# Building blocks:
#     Node 0, Type 0, BuildingBlock: GEDQOX_clean_sbu_0, # of connection points: 6
#     Edge 1, Type (0, 0), BuildingBlock: MIFKUJ_clean_linker_0, # of connection points: 2
#     Edge 2, Type (0, 0), BuildingBlock: MIFKUJ_clean_linker_0, # of connection points: 2
#     Edge 3, Type (0, 0), BuildingBlock: MIFKUJ_clean_linker_0, # of connection points: 2
# Relax obj value: 0.000
# Max RMSD: 0.000
# Mean RMSD: 0.000
data_MOF--net-pcu--node1-GEDQOX_clean_sbu_0--edge1-MIFKUJ_clean_linker_0
_symmetry_space_group_name_H-M    P1
_symmetry_Int_Tables_number       1
_symmetry_cell_setting            triclinic
loop_
_symmetry_equiv_pos_as_xyz
'x, y, z'
_cell_length_a     19.871264
_cell_length_b     30.161166
_cell_length_c     18.95845
_cell_angle_alpha  82.732848
_cell_angle_beta   96.85776
_cell_angle_gamma 125.45164
loop_
_atom_site_label
_atom_site_type_symbol
_atom_site_fract_x
_atom_site_fract_y
_atom_site_fract_z
_atom_type_partial_charge
Nd0 Nd 0.06374 0.07554 0.02724 0.0
Nd1 Nd 0.96616 0.95638 0.99854 0.0
C2 C 0.11809 0.17232 0.06981 0.0
C3 C 0.09775 0.21323 0.0595 0.0
C4 C 0.05393 0.21556 0.1103 0.0
C5 C 0.03879 0.25595 0.10304 0.0
C6 C 0.06742 0.29534 0.04493 0.0
C7 C 0.11067 0.29269 0.99383 0.0
C8 C 0.12583 0.25233 1.0011 0.0
C9 C 0.04706 0.05684 0.88561 0.0
C10 C 0.86102 1.00297 1.00496 0.0
C11 C 0.91163 0.85944 0.95639 0.0
C12 C 0.93205 0.81857 0.96665 0.0
C13 C 0.97597 0.81632 0.91587 0.0
C14 C 0.99113 0.77594 0.92308 0.0
C15 C 0.96244 0.73649 0.98112 0.0
C16 C 0.91909 0.73908 0.03221 0.0
C17 C 0.9039 0.77942 0.02498 0.0
C18 C 0.98294 0.9754 0.14015 0.0
C19 C 0.16889 0.029 0.02051 0.0
O20 O 0.06774 0.12612 0.10572 0.0
O21 O 0.14665 0.16599 0.01608 0.0
O22 O 0.11354 0.09688 0.91586 0.0
O23 O 0.99013 0.0296 0.92864 0.0
O24 O 0.92813 0.04256 0.03791 0.0
O25 O 0.86246 0.96815 0.97076 0.0
O26 O 0.96165 0.90555 0.92015 0.0
O27 O 0.88347 0.86593 1.01028 0.0
O28 O 0.91629 0.93546 0.10991 0.0
O29 O 0.03986 1.00229 0.09709 0.0
O30 O 0.10173 0.9894 0.9876 0.0
O31 O 0.16746 0.06378 0.05481 0.0
H32 H 0.03197 0.18643 0.15625 0.0
H33 H 1.00445 0.25623 0.14305 0.0
H34 H 0.13482 0.32271 0.94896 0.0
H35 H 0.16074 0.25237 0.96135 0.0
H36 H 0.99799 0.8455 0.86997 0.0
H37 H 0.02554 0.77572 0.88308 0.0
H38 H 0.89489 0.709 0.07702 0.0
H39 H 0.8689 0.77931 0.0647 0.0
H40 H 0.12139 0.05152 0.21732 0.0
H41 H 0.13265 0.06576 0.34416 0.0
H42 H 0.87378 0.93576 0.36076 0.0
H43 H 0.86223 0.92171 0.23454 0.0
H44 H 0.91434 0.02194 0.42879 0.0
H45 H 0.02135 0.91503 0.42247 0.0
H46 H 0.1122 0.89312 0.38323 0.0
H47 H 0.32597 0.04075 0.46385 0.0
H48 H 0.23636 0.06395 0.50269 0.0
H49 H 0.90886 0.98064 0.80832 0.0
H50 H 0.89779 0.96656 0.68145 0.0
H51 H 0.15651 0.09692 0.66502 0.0
H52 H 0.16786 0.11085 0.79126 0.0
H53 H 0.11614 1.01064 0.59691 0.0
H54 H 1.00896 0.11746 0.60333 0.0
H55 H 0.91799 0.13926 0.64262 0.0
H56 H 0.70437 0.99162 0.56185 0.0
H57 H 0.79409 0.96853 0.52296 0.0
C58 C 0.06704 0.02606 0.24816 0.0
C59 C 0.9911 0.98526 0.21622 0.0
C60 C 0.07351 0.03409 0.32061 0.0
C61 C 1.00417 1.00144 0.36229 0.0
C62 C 0.92811 0.96141 0.32988 0.0
C63 C 0.92171 0.95327 0.25775 0.0
C64 C 1.0105 1.00851 0.43973 0.0
C65 C 0.95782 0.01882 0.46566 0.0
C66 C 0.06819 1.00545 0.48781 0.0
C67 C 0.12219 0.99151 0.46478 0.0
C68 C 0.08777 0.94305 0.4313 0.0
C69 C 0.13903 0.93036 0.40923 0.0
C70 C 0.22482 0.9656 0.42085 0.0
C71 C 0.25951 1.01354 0.45477 0.0
C72 C 0.20851 0.02647 0.47687 0.0
C73 C 0.96322 1.00622 0.77751 0.0
C74 C 0.03905 0.04709 0.8095 0.0
C75 C 0.95686 0.99827 0.70504 0.0
C76 C 0.02621 0.03106 0.66341 0.0
C77 C 0.10218 0.07117 0.69586 0.0
C78 C 0.10846 0.07923 0.76801 0.0
C79 C 0.01997 0.02406 0.58596 0.0
C80 C 0.07267 1.01376 0.56003 0.0
C81 C 0.96227 0.02711 0.53788 0.0
C82 C 0.9082 0.04098 0.56093 0.0
C83 C 0.94255 0.08941 0.59447 0.0
C84 C 0.89122 0.10204 0.61658 0.0
C85 C 0.80544 0.06676 0.60493 0.0
C86 C 0.77083 0.01885 0.57095 0.0
C87 C 0.82189 1.006 0.54882 0.0
H88 H 0.7658 0.07662 0.62208 0.0
H89 H 0.26441 0.9557 0.40372 0.0
H90 H 0.29949 0.0672 0.11946 0.0
H91 H 0.41979 0.06394 0.11669 0.0
H92 H 0.33142 0.99887 0.9096 0.0
H93 H 0.2106 1.00017 0.91342 0.0
H94 H 0.36794 0.93969 0.99243 0.0
H95 H 0.50255 0.13287 0.93548 0.0
H96 H 0.54643 0.22587 0.95374 0.0
H97 H 0.67437 0.22359 0.1519 0.0
H98 H 0.63036 0.1303 0.13527 0.0
H99 H 0.73063 0.96487 0.90579 0.0
H100 H 0.61042 0.96827 0.90824 0.0
H101 H 0.69844 0.03334 0.11535 0.0
H102 H 0.81916 0.03188 0.11184 0.0
H103 H 0.66212 0.09257 0.03233 0.0
H104 H 0.52736 0.89937 0.0894 0.0
H105 H 0.48348 0.80636 0.07119 0.0
H106 H 0.35583 0.80868 0.87286 0.0
H107 H 0.39985 0.90198 0.88944 0.0
C108 C 0.3067 0.05292 0.07317 0.0
C109 C 0.24588 0.03345 0.01701 0.0
C110 C 0.37528 0.05118 0.07147 0.0
C111 C 0.38443 0.03119 0.01281 0.0
C112 C 0.32516 1.01396 0.95558 0.0
C113 C 0.2563 1.01478 0.95783 0.0
C114 C 0.45272 0.02489 1.01221 0.0
C115 C 0.43243 0.97332 1.00025 0.0
C116 C 0.53648 0.0684 0.02422 0.0
C117 C 0.56241 0.12437 0.03445 0.0
C118 C 0.53941 0.15201 0.98325 0.0
C119 C 0.56444 0.20482 0.99325 0.0
C120 C 0.61297 0.23057 0.05403 0.0
C121 C 0.63668 0.20358 0.10489 0.0
C122 C 0.61176 0.15076 0.09518 0.0
C123 C 0.72336 0.97918 0.95201 0.0
C124 C 0.78406 0.99859 1.00827 0.0
C125 C 0.65483 0.98101 0.95353 0.0
C126 C 0.64561 1.00104 1.0121 0.0
C127 C 0.70476 0.01822 0.06943 0.0
C128 C 0.77356 0.01731 0.06736 0.0
C129 C 0.57734 1.00737 1.01256 0.0
C130 C 0.59764 0.05894 0.0245 0.0
C131 C 0.49359 0.96386 1.00053 0.0
C132 C 0.46765 0.90789 0.99034 0.0
C133 C 0.49057 0.88024 0.0416 0.0
C134 C 0.46553 0.82742 0.03164 0.0
C135 C 0.41709 0.80168 0.97082 0.0
C136 C 0.39346 0.82868 0.91989 0.0
C137 C 0.41838 0.88151 0.92958 0.0
H138 H 0.3977 0.76078 0.96324 0.0
H139 H 0.63235 0.27147 0.06163 0.0
H140 H 0.95336 0.67884 0.87478 0.0
H141 H 0.97217 0.60501 0.88568 0.0
H142 H 0.01781 0.61801 0.11276 0.0
H143 H 1.00174 0.69316 0.10202 0.0
H144 H 0.12458 0.60535 0.06029 0.0
H145 H 0.83038 0.5153 0.04034 0.0
H146 H 0.69796 0.4965 0.98585 0.0
H147 H 0.73737 0.45286 0.79552 0.0
H148 H 0.87065 0.47213 0.84854 0.0
H149 H 0.0766 0.35309 0.1512 0.0
H150 H 0.0578 0.42692 0.14024 0.0
H151 H 1.01203 0.41378 0.91318 0.0
H152 H 0.02807 0.33862 0.92399 0.0
H153 H 0.90534 0.42653 0.96559 0.0
H154 H 0.19952 0.51655 0.98552 0.0
H155 H 0.33194 0.53536 0.03998 0.0
H156 H 0.29261 0.57904 0.23031 0.0
H157 H 0.15933 0.55978 0.17731 0.0
C158 C 0.96838 0.66653 0.92702 0.0
C159 C 0.97573 0.69206 0.98755 0.0
C160 C 0.97825 0.62379 0.93326 0.0
C161 C 0.99525 0.60521 1.00021 0.0
C162 C 1.00429 0.6313 0.06054 0.0
C163 C 0.99438 0.67404 0.05436 0.0
C164 C 1.00341 0.55859 1.00734 0.0
C165 C 0.07611 0.56604 0.04042 0.0
C166 C 0.94112 0.5075 0.98006 0.0
C167 C 0.86088 0.49568 0.94816 0.0
C168 C 0.81111 0.50209 0.98666 0.0
C169 C 0.73585 0.49128 0.95608 0.0
C170 C 0.70937 0.47363 0.8872 0.0
C171 C 0.75801 0.46661 0.84883 0.0
C172 C 0.83339 0.47742 0.87914 0.0
C173 C 0.06156 0.36536 0.09896 0.0
C174 C 0.05415 0.33979 0.03846 0.0
C175 C 0.05169 0.40811 0.09267 0.0
C176 C 0.03465 0.42665 0.02571 0.0
C177 C 0.02557 0.40052 0.96541 0.0
C178 C 0.03547 0.35777 0.97163 0.0
C179 C 0.02651 0.47329 0.01855 0.0
C180 C 0.95381 0.46584 0.98546 0.0
C181 C 0.0888 0.52438 0.04581 0.0
C182 C 0.16906 0.5362 0.0777 0.0
C183 C 0.2188 0.52977 0.03919 0.0
C184 C 0.29407 0.54058 0.06976 0.0
C185 C 0.32057 0.55825 0.13863 0.0
C186 C 0.27195 0.56528 0.177 0.0
C187 C 0.19658 0.55447 0.14671 0.0
H188 H 0.37886 0.56659 0.1622 0.0
H189 H 0.65108 0.46529 0.86361 0.0
loop_
_geom_bond_atom_site_label_1
_geom_bond_atom_site_label_2
_geom_bond_distance
_geom_bond_site_symmetry_2
_ccdc_geom_bond_type
Nd0 C2 2.836 . S
Nd0 O20 2.500 1_556 S
Nd0 O21 2.492 . S
Nd0 O22 2.487 . S
Nd0 O23 2.682 1_445 S
Nd0 O24 2.410 1_455 S
Nd0 O29 2.414 1_556 S
Nd0 O31 2.424 . S
Nd1 C11 2.836 . S
Nd1 O23 2.414 1_554 S
Nd1 O25 2.424 . S
Nd1 O26 2.500 1_554 S
Nd1 O27 2.492 . S
Nd1 O28 2.487 . S
Nd1 O29 2.682 1_665 S
Nd1 O30 2.410 1_655 S
C2 Nd0 2.836 . S
C2 C3 1.498 . S
C2 O20 1.258 1_556 S
C2 O21 1.239 . S
C3 C2 1.498 . S
C3 C4 1.366 1_456 S
C3 C8 1.407 . S
C4 C3 1.366 1_654 S
C4 C5 1.392 . S
C4 H32 0.930 . S
C5 C4 1.392 . S
C5 C6 1.398 1_654 S
C5 H33 0.929 . S
C6 C5 1.398 1_456 S
C6 C7 1.352 . S
C7 C6 1.352 . S
C7 C8 1.384 . S
C7 H34 0.930 . S
C8 C3 1.407 . S
C8 C7 1.384 . S
C8 H35 0.929 . S
C9 O22 1.241 . S
C9 O23 1.273 1_445 S
C10 O24 1.251 1_565 S
C10 O25 1.268 1_556 S
C11 Nd1 2.836 . S
C11 C12 1.498 . S
C11 O26 1.258 1_554 S
C11 O27 1.239 . S
C12 C11 1.498 . S
C12 C13 1.366 1_654 S
C12 C17 1.407 . S
C13 C12 1.366 1_456 S
C13 C14 1.392 . S
C13 H36 0.930 . S
C14 C13 1.392 . S
C14 C15 1.398 1_456 S
C14 H37 0.929 . S
C15 C14 1.398 1_654 S
C15 C16 1.352 . S
C16 C15 1.352 . S
C16 C17 1.384 . S
C16 H38 0.930 . S
C17 C12 1.407 . S
C17 C16 1.384 . S
C17 H39 0.929 . S
C18 O28 1.241 . S
C18 O29 1.273 1_665 S
C19 O30 1.251 1_545 S
C19 O31 1.268 1_554 S
O20 Nd0 2.500 1_554 S
O20 C2 1.258 1_554 S
O21 Nd0 2.492 . S
O21 C2 1.239 . S
O22 Nd0 2.487 . S
O22 C9 1.241 . S
O23 Nd0 2.682 1_665 S
O23 Nd1 2.414 1_556 S
O23 C9 1.273 1_665 S
O24 Nd0 2.410 1_655 S
O24 C10 1.251 1_545 S
O25 Nd1 2.424 . S
O25 C10 1.268 1_554 S
O26 Nd1 2.500 1_556 S
O26 C11 1.258 1_556 S
O27 Nd1 2.492 . S
O27 C11 1.239 . S
O28 Nd1 2.487 . S
O28 C18 1.241 . S
O29 Nd0 2.414 1_554 S
O29 Nd1 2.682 1_445 S
O29 C18 1.273 1_445 S
O30 Nd1 2.410 1_455 S
O30 C19 1.251 1_565 S
O31 Nd0 2.424 . S
O31 C19 1.268 1_556 S
H32 C4 0.930 . S
H33 C5 0.929 . S
H34 C7 0.930 . S
H35 C8 0.929 . S
H36 C13 0.930 . S
H37 C14 0.929 . S
H38 C16 0.930 . S
H39 C17 0.929 . S
H40 C58 0.951 . S
H41 C60 0.951 . S
H42 C62 0.950 . S
H43 C63 0.950 . S
H44 C65 0.950 . S
H45 C68 0.950 . S
H46 C69 0.950 . S
H47 C71 0.950 . S
H48 C72 0.950 . S
H49 C73 0.951 . S
H50 C75 0.951 . S
H51 C77 0.950 . S
H52 C78 0.950 . S
H53 C80 0.950 . S
H54 C83 0.950 . S
H55 C84 0.950 . S
H56 C86 0.950 . S
H57 C87 0.950 . S
C58 H40 0.951 . S
C58 C59 1.365 . S
C58 C60 1.388 . S
C59 C58 1.365 . S
C59 C63 1.385 1_445 S
C60 H41 0.951 . S
C60 C58 1.388 . S
C60 C61 1.366 1_445 S
C61 C60 1.366 1_665 S
C61 C62 1.414 . S
C61 C64 1.499 . S
C62 H42 0.950 . S
C62 C61 1.414 . S
C62 C63 1.374 . S
C63 H43 0.950 . S
C63 C59 1.385 1_665 S
C63 C62 1.374 . S
C64 C61 1.499 . S
C64 C65 1.373 1_565 S
C64 C66 1.389 1_655 S
C65 H44 0.950 . S
C65 C64 1.373 1_545 S
C65 C81 1.377 . S
C66 C64 1.389 1_455 S
C66 C67 1.524 . S
C66 C80 1.377 . S
C67 C66 1.524 . S
C67 C68 1.397 1_455 S
C67 C72 1.363 . S
C68 H45 0.950 . S
C68 C67 1.397 1_655 S
C68 C69 1.334 . S
C69 H46 0.950 . S
C69 C68 1.334 . S
C69 C70 1.287 1_655 S
C70 C69 1.287 1_455 S
C70 C71 1.524 . S
C70 H89 0.913 . S
C71 H47 0.950 . S
C71 C70 1.524 . S
C71 C72 1.415 . S
C72 H48 0.950 . S
C72 C67 1.363 . S
C72 C71 1.415 . S
C73 H49 0.951 . S
C73 C74 1.365 1_665 S
C73 C75 1.388 . S
C74 C73 1.365 1_445 S
C74 C78 1.385 . S
C75 H50 0.951 . S
C75 C73 1.388 . S
C75 C76 1.366 1_665 S
C76 C75 1.366 1_445 S
C76 C77 1.414 . S
C76 C79 1.499 . S
C77 H51 0.950 . S
C77 C76 1.414 . S
C77 C78 1.374 . S
C78 H52 0.950 . S
C78 C74 1.385 . S
C78 C77 1.374 . S
C79 C76 1.499 . S
C79 C80 1.373 1_545 S
C79 C81 1.389 1_455 S
C80 H53 0.950 . S
C80 C66 1.377 . S
C80 C79 1.373 1_565 S
C81 C65 1.377 . S
C81 C79 1.389 1_655 S
C81 C82 1.524 . S
C82 C81 1.524 . S
C82 C83 1.397 1_655 S
C82 C87 1.363 . S
C83 H54 0.950 . S
C83 C82 1.397 1_455 S
C83 C84 1.334 . S
C84 H55 0.950 . S
C84 C83 1.334 . S
C84 C85 1.287 1_455 S
C85 C84 1.287 1_655 S
C85 C86 1.524 . S
C85 H88 0.999 . S
C86 H56 0.950 . S
C86 C85 1.524 . S
C86 C87 1.415 . S
C87 H57 0.950 . S
C87 C82 1.363 . S
C87 C86 1.415 . S
H88 C85 0.999 . S
H89 C70 0.913 . S
H90 C108 0.951 . S
H91 C110 0.951 . S
H92 C112 0.950 . S
H93 C113 0.950 . S
H94 C115 0.950 . S
H95 C118 0.950 . S
H96 C119 0.950 . S
H97 C121 0.950 . S
H98 C122 0.950 . S
H99 C123 0.951 . S
H100 C125 0.951 . S
H101 C127 0.950 . S
H102 C128 0.950 . S
H103 C130 0.950 . S
H104 C133 0.950 . S
H105 C134 0.950 . S
H106 C136 0.950 . S
H107 C137 0.950 . S
C108 H90 0.951 . S
C108 C109 1.366 1_565 S
C108 C110 1.388 . S
C109 C108 1.366 1_545 S
C109 C113 1.386 1_554 S
C110 H91 0.951 . S
C110 C108 1.388 . S
C110 C111 1.375 1_565 S
C111 C110 1.375 1_545 S
C111 C112 1.406 1_554 S
C111 C114 1.497 1_554 S
C112 H92 0.950 . S
C112 C111 1.406 1_556 S
C112 C113 1.374 . S
C113 H93 0.950 . S
C113 C109 1.386 1_556 S
C113 C112 1.374 . S
C114 C111 1.497 1_556 S
C114 C115 1.373 1_545 S
C114 C116 1.389 1_556 S
C115 H94 0.950 . S
C115 C114 1.373 1_565 S
C115 C131 1.377 . S
C116 C114 1.389 1_554 S
C116 C117 1.524 . S
C116 C130 1.377 . S
C117 C116 1.524 . S
C117 C118 1.397 . S
C117 C122 1.363 . S
C118 H95 0.950 . S
C118 C117 1.397 . S
C118 C119 1.334 . S
C119 H96 0.950 . S
C119 C118 1.334 . S
C119 C120 1.287 . S
C120 C119 1.287 . S
C120 C121 1.524 . S
C120 H139 0.913 . S
C121 H97 0.950 . S
C121 C120 1.524 . S
C121 C122 1.415 . S
C122 H98 0.950 . S
C122 C117 1.363 . S
C122 C121 1.415 . S
C123 H99 0.951 . S
C123 C124 1.366 1_556 S
C123 C125 1.388 . S
C124 C123 1.366 1_554 S
C124 C128 1.386 1_545 S
C125 H100 0.951 . S
C125 C123 1.388 . S
C125 C126 1.371 1_545 S
C126 C125 1.371 1_565 S
C126 C127 1.409 1_556 S
C126 C129 1.498 1_556 S
C127 H101 0.950 . S
C127 C126 1.409 1_554 S
C127 C128 1.374 . S
C128 H102 0.950 . S
C128 C124 1.386 1_565 S
C128 C127 1.374 . S
C129 C126 1.498 1_554 S
C129 C130 1.373 1_565 S
C129 C131 1.389 1_554 S
C130 H103 0.950 . S
C130 C116 1.377 . S
C130 C129 1.373 1_545 S
C131 C115 1.377 . S
C131 C129 1.389 1_556 S
C131 C132 1.524 . S
C132 C131 1.524 . S
C132 C133 1.397 . S
C132 C137 1.363 . S
C133 H104 0.950 . S
C133 C132 1.397 . S
C133 C134 1.334 . S
C134 H105 0.950 . S
C134 C133 1.334 . S
C134 C135 1.287 . S
C135 C134 1.287 . S
C135 C136 1.524 . S
C135 H138 0.999 . S
C136 H106 0.950 . S
C136 C135 1.524 . S
C136 C137 1.415 . S
C137 H107 0.950 . S
C137 C132 1.363 . S
C137 C136 1.415 . S
H138 C135 0.999 . S
H139 C120 0.913 . S
H140 C158 0.951 . S
H141 C160 0.951 . S
H142 C162 0.950 . S
H143 C163 0.950 . S
H144 C165 0.950 . S
H145 C168 0.950 1_554 S
H146 C169 0.950 . S
H147 C171 0.950 . S
H148 C172 0.950 . S
H149 C173 0.951 . S
H150 C175 0.951 . S
H151 C177 0.950 . S
H152 C178 0.950 . S
H153 C180 0.950 . S
H154 C183 0.950 1_556 S
H155 C184 0.950 . S
H156 C186 0.950 . S
H157 C187 0.950 . S
C158 H140 0.951 . S
C158 C159 1.366 1_656 S
C158 C160 1.388 . S
C159 C158 1.366 1_454 S
C159 C163 1.386 . S
C160 H141 0.951 . S
C160 C158 1.388 . S
C160 C161 1.359 1_556 S
C161 C160 1.359 1_554 S
C161 C162 1.421 1_655 S
C161 C164 1.498 . S
C162 H142 0.950 . S
C162 C161 1.421 1_455 S
C162 C163 1.374 . S
C163 H143 0.950 . S
C163 C159 1.386 . S
C163 C162 1.374 . S
C164 C161 1.498 . S
C164 C165 1.373 1_655 S
C164 C166 1.389 1_554 S
C165 H144 0.950 . S
C165 C164 1.373 1_455 S
C165 C181 1.377 . S
C166 C164 1.389 1_556 S
C166 C167 1.524 . S
C166 C180 1.377 . S
C167 C166 1.524 . S
C167 C168 1.397 . S
C167 C172 1.363 . S
C168 H145 0.950 1_556 S
C168 C167 1.397 . S
C168 C169 1.334 . S
C169 H146 0.950 . S
C169 C168 1.334 . S
C169 C170 1.287 . S
C170 C169 1.287 . S
C170 C171 1.524 . S
C170 H189 0.913 . S
C171 H147 0.950 . S
C171 C170 1.524 . S
C171 C172 1.415 . S
C172 H148 0.950 . S
C172 C167 1.363 . S
C172 C171 1.415 . S
C173 H149 0.951 . S
C173 C174 1.365 1_455 S
C173 C175 1.388 . S
C174 C173 1.365 1_655 S
C174 C178 1.385 1_554 S
C175 H150 0.951 . S
C175 C173 1.388 . S
C175 C176 1.362 1_554 S
C176 C175 1.362 1_556 S
C176 C177 1.418 1_455 S
C176 C179 1.498 . S
C177 H151 0.950 . S
C177 C176 1.418 1_655 S
C177 C178 1.374 . S
C178 H152 0.950 . S
C178 C174 1.385 1_556 S
C178 C177 1.374 . S
C179 C176 1.498 . S
C179 C180 1.373 1_455 S
C179 C181 1.389 1_556 S
C180 H153 0.950 . S
C180 C166 1.377 . S
C180 C179 1.373 1_655 S
C181 C165 1.377 . S
C181 C179 1.389 1_554 S
C181 C182 1.524 . S
C182 C181 1.524 . S
C182 C183 1.397 . S
C182 C187 1.363 . S
C183 H154 0.950 1_554 S
C183 C182 1.397 . S
C183 C184 1.334 . S
C184 H155 0.950 . S
C184 C183 1.334 . S
C184 C185 1.287 . S
C185 C184 1.287 . S
C185 C186 1.524 . S
C185 H188 0.999 . S
C186 H156 0.950 . S
C186 C185 1.524 . S
C186 C187 1.415 . S
C187 H157 0.950 . S
C187 C182 1.363 . S
C187 C186 1.415 . S
H188 C185 0.999 . S
H189 C170 0.913 . S
C59 C18 1.452 1_445 S
C74 C9 1.452 . S
C109 C19 1.490 . S
C124 C10 1.490 1_544 S
C159 C15 1.497 1_455 S
C174 C6 1.499 1_654 S
