# Generated by pormake.
# Topology qtz-x, (6)-cn, num edge types: 1
# Building blocks:
#     Node 0, Type 0, BuildingBlock: BETDEL_clean_sbu_0, # of connection points: 6
#     Node 1, Type 0, BuildingBlock: BETDEL_clean_sbu_0, # of connection points: 6
#     Node 2, Type 0, BuildingBlock: BETDEL_clean_sbu_0, # of connection points: 6
#     Edge 3, Type (0, 0), BuildingBlock: OJICUG_clean_linker_0, # of connection points: 2
#     Edge 4, Type (0, 0), BuildingBlock: OJICUG_clean_linker_0, # of connection points: 2
#     Edge 5, Type (0, 0), BuildingBlock: OJICUG_clean_linker_0, # of connection points: 2
#     Edge 6, Type (0, 0), BuildingBlock: OJICUG_clean_linker_0, # of connection points: 2
#     Edge 7, Type (0, 0), BuildingBlock: OJICUG_clean_linker_0, # of connection points: 2
#     Edge 8, Type (0, 0), BuildingBlock: OJICUG_clean_linker_0, # of connection points: 2
#     Edge 9, Type (0, 0), BuildingBlock: OJICUG_clean_linker_0, # of connection points: 2
#     Edge 10, Type (0, 0), BuildingBlock: OJICUG_clean_linker_0, # of connection points: 2
#     Edge 11, Type (0, 0), BuildingBlock: OJICUG_clean_linker_0, # of connection points: 2
# Relax obj value: 0.149
# Max RMSD: 0.223
# Mean RMSD: 0.216
data_MOF--net-qtz-x--node1-BETDEL_clean_sbu_0--edge1-OJICUG_clean_linker_0
_symmetry_space_group_name_H-M    P1
_symmetry_Int_Tables_number       1
_symmetry_cell_setting            triclinic
loop_
_symmetry_equiv_pos_as_xyz
'x, y, z'
_cell_length_a     10.501713
_cell_length_b     10.608669
_cell_length_c     31.669295
_cell_angle_alpha  83.443067
_cell_angle_beta   99.278743
_cell_angle_gamma 120.13785
loop_
_atom_site_label
_atom_site_type_symbol
_atom_site_fract_x
_atom_site_fract_y
_atom_site_fract_z
_atom_type_partial_charge
Dy0 Dy 0.94637 0.49894 0.21828 0.0
C1 C 0.39954 0.79828 0.11662 0.0
C2 C 0.76725 0.40515 0.28203 0.0
Dy3 Dy 0.22028 0.64442 0.17931 0.0
O4 O 0.87083 0.53698 0.27522 0.0
O5 O 0.75693 0.32191 0.25277 0.0
O6 O 0.89226 0.66848 0.18766 0.0
O7 O 0.11389 0.73085 0.2115 0.0
C8 C 0.027 0.77588 0.19305 0.0
C9 C 0.14547 0.36725 0.20043 0.0
O10 O 0.3222 0.7015 0.24677 0.0
O11 O 0.11857 0.4978 0.26973 0.0
O12 O 0.41371 0.70451 0.14435 0.0
O13 O 0.29954 0.82146 0.12763 0.0
O14 O 0.2811 0.47405 0.20196 0.0
O15 O 0.05434 0.41168 0.18551 0.0
O16 O 0.82762 0.4255 0.15289 0.0
O17 O 0.04508 0.5738 0.12284 0.0
C18 C 0.25661 0.60417 0.2774 0.0
C19 C 0.90059 0.48344 0.11902 0.0
Dy20 Dy 0.65451 0.174 0.5513 0.0
C21 C 0.48013 0.70401 0.45264 0.0
C22 C 0.77861 0.36217 0.61701 0.0
Dy23 Dy 0.50787 0.88997 0.51079 0.0
O24 O 0.8079 0.26151 0.61104 0.0
O25 O 0.68268 0.36544 0.58555 0.0
O26 O 0.8638 0.22748 0.52639 0.0
O27 O 0.72332 0.01192 0.54746 0.0
C28 C 0.84245 0.09558 0.53131 0.0
C29 C 0.30911 0.96069 0.52591 0.0
O30 O 0.51298 0.80865 0.57858 0.0
O31 O 0.51871 0.0114 0.60021 0.0
O32 O 0.37725 0.68123 0.47544 0.0
O33 O 0.60061 0.82214 0.46462 0.0
O34 O 0.28242 0.82705 0.52544 0.0
O35 O 0.43551 0.04975 0.51418 0.0
O36 O 0.64645 0.27049 0.48447 0.0
O37 O 0.56142 0.04824 0.45469 0.0
C38 C 0.49629 0.87715 0.60784 0.0
C39 C 0.6093 0.18986 0.45063 0.0
Dy40 Dy 0.51676 0.67206 0.88002 0.0
C41 C 0.82957 0.54139 0.78504 0.0
C42 C 0.39141 0.73509 0.93818 0.0
Dy43 Dy 0.66989 0.54685 0.84424 0.0
O44 O 0.50376 0.82953 0.91887 0.0
O45 O 0.33988 0.60803 0.92253 0.0
O46 O 0.67895 0.89334 0.8559 0.0
O47 O 0.7529 0.7444 0.87896 0.0
C48 C 0.79094 0.87059 0.86216 0.0
C49 C 0.3975 0.34265 0.86126 0.0
O50 O 0.7629 0.53728 0.91217 0.0
O51 O 0.57629 0.55404 0.9363 0.0
O52 O 0.75836 0.43348 0.81159 0.0
O53 O 0.82246 0.654 0.79362 0.0
O54 O 0.50825 0.31852 0.86346 0.0
O55 O 0.43411 0.47082 0.84628 0.0
O56 O 0.41508 0.68177 0.81275 0.0
O57 O 0.57061 0.62251 0.78628 0.0
C58 C 0.68639 0.52469 0.94334 0.0
C59 C 0.46951 0.66394 0.78035 0.0
C60 C 0.94501 0.96286 0.18055 0.0
C61 C 0.05881 0.92814 0.19364 0.0
H62 H 0.88214 0.12871 0.17308 0.0
C63 C 0.19959 0.03804 0.20973 0.0
H64 H 0.835 0.88005 0.16818 0.0
C65 C 0.22603 0.17985 0.21276 0.0
C66 C 0.11233 0.21465 0.19969 0.0
H67 H 0.28896 0.01426 0.22034 0.0
H68 H 0.33605 0.26255 0.2252 0.0
C69 C 0.9714 0.10476 0.18366 0.0
C70 C 0.2139 0.13799 0.51717 0.0
C71 C 0.19096 -0.00346 0.52767 0.0
H72 H 0.12046 0.27939 0.50948 0.0
C73 C 0.05174 0.88713 0.5389 0.0
H74 H 0.31978 0.22426 0.50825 0.0
C75 C 0.93761 0.91848 0.53967 0.0
C76 C 0.96043 0.05986 0.52911 0.0
H77 H 0.03089 0.77697 0.54718 0.0
H78 H 0.83185 0.83228 0.54867 0.0
C79 C 0.09952 0.16919 0.51772 0.0
C80 C 0.06607 0.96514 0.87502 0.0
C81 C 0.9464 -0.00978 0.86134 0.0
H82 H 0.30243 0.05742 0.8861 0.0
C83 C 0.97625 0.13278 0.84807 0.0
H84 H 0.04667 0.85676 0.88555 0.0
C85 C 0.12252 0.24789 0.84861 0.0
C86 C 0.24222 0.22281 0.86221 0.0
H87 H 0.88637 0.15573 0.83739 0.0
H88 H 0.14179 0.35623 0.83806 0.0
C89 C 0.21244 0.08025 0.87545 0.0
C90 C 0.42973 0.8924 0.99794 0.0
C91 C 0.37753 0.75343 0.98239 0.0
H92 H 0.47723 0.01687 0.05335 0.0
C93 C 0.3366 0.63317 1.01138 0.0
H94 H 0.46393 -0.0128 0.97619 0.0
C95 C 0.35245 0.65153 0.05508 0.0
C96 C 0.40533 0.78986 0.07091 0.0
H97 H 0.29819 0.52515 1.00057 0.0
H98 H 0.31974 0.55594 0.0765 0.0
C99 C 0.44026 0.90997 0.04195 0.0
C100 C 0.56319 0.15777 0.37172 0.0
C101 C 0.62524 0.253 0.40621 0.0
H102 H 0.55898 0.13102 0.30533 0.0
C103 C 0.71535 0.40253 0.39761 0.0
H104 H 0.49073 0.04177 0.37687 0.0
C105 C 0.75255 0.4535 0.35607 0.0
C106 C 0.70093 0.35568 0.32263 0.0
H107 H 0.76417 0.4786 0.42325 0.0
H108 H 0.82919 0.5684 0.35077 0.0
C109 C 0.60136 0.2084 0.33048 0.0
C110 C 0.42537 0.82617 0.72383 0.0
C111 C 0.42808 0.69623 0.73552 0.0
H112 H 0.44591 -0.01358 0.67382 0.0
C113 C 0.42945 0.61503 0.70357 0.0
H114 H 0.42618 0.89139 0.74792 0.0
C115 C 0.44297 0.66964 0.66138 0.0
C116 C 0.45526 0.80666 0.65033 0.0
H117 H 0.43157 0.51404 0.71189 0.0
H118 H 0.45285 0.60851 0.63815 0.0
C119 C 0.43909 0.88122 0.68147 0.0
C120 C 0.63945 0.46475 1.02031 0.0
C121 C 0.72684 0.48527 0.98788 0.0
H122 H 0.62448 0.44459 0.08789 0.0
C123 C 0.85791 0.47853 0.99917 0.0
H124 H 0.5364 0.46722 1.01264 0.0
C125 C 0.9069 0.46429 0.04217 0.0
C126 C 0.82586 0.45606 0.07476 0.0
H127 H 0.92686 0.49215 0.97511 0.0
H128 H 0.01297 0.46795 0.05007 0.0
C129 C 0.68847 0.44989 0.06345 0.0
C130 C 0.475 0.72629 0.33356 0.0
C131 C 0.33144 0.61248 0.32162 0.0
H132 H 0.63855 0.84106 0.38542 0.0
C133 C 0.25215 0.511 0.35343 0.0
H134 H 0.53946 0.80503 0.30983 0.0
C135 C 0.30822 0.53183 0.3966 0.0
C136 C 0.44547 0.65322 0.40876 0.0
H137 H 0.142 0.42014 0.34541 0.0
H138 H 0.2394 0.4591 0.42052 0.0
C139 C 0.53219 0.74579 0.37687 0.0
C140 C 0.88462 0.41221 0.73587 0.0
C141 C 0.85082 0.52004 0.74207 0.0
H142 H 0.89318 0.28204 0.69094 0.0
C143 C 0.81065 0.58975 0.70608 0.0
H144 H 0.91452 0.35627 0.76305 0.0
C145 C 0.79307 0.54396 0.66471 0.0
C146 C 0.8197 0.4308 0.65874 0.0
H147 H 0.78188 0.67216 0.71007 0.0
H148 H 0.75295 0.59261 0.63777 0.0
C149 C 0.87171 0.36979 0.69453 0.0
loop_
_geom_bond_atom_site_label_1
_geom_bond_atom_site_label_2
_geom_bond_distance
_geom_bond_site_symmetry_2
_ccdc_geom_bond_type
Dy0 O4 2.398 . S
Dy0 O5 2.491 . S
Dy0 O6 2.403 . S
Dy0 O7 2.664 1_655 S
Dy0 O11 2.326 1_655 S
Dy0 O15 2.310 . S
Dy0 O16 2.351 . S
C1 O12 1.185 . S
C1 O13 1.355 . S
C2 O4 1.185 . S
C2 O5 1.355 . S
Dy3 O7 2.310 . S
Dy3 O10 2.351 . S
Dy3 O12 2.398 . S
Dy3 O13 2.491 . S
Dy3 O14 2.403 . S
Dy3 O15 2.664 1_455 S
Dy3 O17 2.326 1_455 S
O4 Dy0 2.398 . S
O4 C2 1.185 . S
O5 Dy0 2.491 . S
O5 C2 1.355 . S
O6 Dy0 2.403 . S
O6 C8 1.254 . S
O7 Dy0 2.664 1_455 S
O7 Dy3 2.310 . S
O7 C8 1.268 1_455 S
C8 O6 1.254 . S
C8 O7 1.268 1_655 S
C9 O14 1.254 . S
C9 O15 1.268 1_455 S
O10 Dy3 2.351 . S
O10 C18 1.249 . S
O11 Dy0 2.326 1_455 S
O11 C18 1.267 . S
O12 C1 1.185 . S
O12 Dy3 2.398 . S
O13 C1 1.355 . S
O13 Dy3 2.491 . S
O14 Dy3 2.403 . S
O14 C9 1.254 . S
O15 Dy0 2.310 . S
O15 Dy3 2.664 1_655 S
O15 C9 1.268 1_655 S
O16 Dy0 2.351 . S
O16 C19 1.249 . S
O17 Dy3 2.326 1_655 S
O17 C19 1.267 . S
C18 O10 1.249 . S
C18 O11 1.267 . S
C19 O16 1.249 . S
C19 O17 1.267 . S
Dy20 O24 2.398 . S
Dy20 O25 2.491 . S
Dy20 O26 2.403 . S
Dy20 O27 2.664 1_545 S
Dy20 O31 2.326 1_545 S
Dy20 O35 2.310 . S
Dy20 O36 2.351 . S
C21 O32 1.185 . S
C21 O33 1.355 . S
C22 O24 1.185 . S
C22 O25 1.355 . S
Dy23 O27 2.310 . S
Dy23 O30 2.351 . S
Dy23 O32 2.398 . S
Dy23 O33 2.491 . S
Dy23 O34 2.403 . S
Dy23 O35 2.664 1_565 S
Dy23 O37 2.326 1_565 S
O24 Dy20 2.398 . S
O24 C22 1.185 . S
O25 Dy20 2.491 . S
O25 C22 1.355 . S
O26 Dy20 2.403 . S
O26 C28 1.254 . S
O27 Dy20 2.664 1_565 S
O27 Dy23 2.310 . S
O27 C28 1.268 1_565 S
C28 O26 1.254 . S
C28 O27 1.268 1_545 S
C29 O34 1.254 . S
C29 O35 1.268 1_565 S
O30 Dy23 2.351 . S
O30 C38 1.249 . S
O31 Dy20 2.326 1_565 S
O31 C38 1.267 . S
O32 C21 1.185 . S
O32 Dy23 2.398 . S
O33 C21 1.355 . S
O33 Dy23 2.491 . S
O34 Dy23 2.403 . S
O34 C29 1.254 . S
O35 Dy20 2.310 . S
O35 Dy23 2.664 1_545 S
O35 C29 1.268 1_545 S
O36 Dy20 2.351 . S
O36 C39 1.249 . S
O37 Dy23 2.326 1_545 S
O37 C39 1.267 . S
C38 O30 1.249 . S
C38 O31 1.267 . S
C39 O36 1.249 . S
C39 O37 1.267 . S
Dy40 O44 2.398 . S
Dy40 O45 2.491 . S
Dy40 O46 2.401 1_565 S
Dy40 O47 2.664 . S
Dy40 O51 2.326 . S
Dy40 O55 2.310 . S
Dy40 O56 2.351 . S
C41 O52 1.185 . S
C41 O53 1.355 . S
C42 O44 1.185 . S
C42 O45 1.355 . S
Dy43 O47 2.310 . S
Dy43 O50 2.351 . S
Dy43 O52 2.398 . S
Dy43 O53 2.491 . S
Dy43 O54 2.403 . S
Dy43 O55 2.664 . S
Dy43 O57 2.326 . S
O44 Dy40 2.398 . S
O44 C42 1.185 . S
O45 Dy40 2.491 . S
O45 C42 1.355 . S
O46 Dy40 2.401 1_545 S
O46 C48 1.249 1_545 S
O47 Dy40 2.664 . S
O47 Dy43 2.310 . S
O47 C48 1.268 . S
C48 O46 1.249 1_565 S
C48 O47 1.268 . S
C49 O54 1.254 . S
C49 O55 1.268 . S
O50 Dy43 2.351 . S
O50 C58 1.249 . S
O51 Dy40 2.326 . S
O51 C58 1.267 . S
O52 C41 1.185 . S
O52 Dy43 2.398 . S
O53 C41 1.355 . S
O53 Dy43 2.491 . S
O54 Dy43 2.403 . S
O54 C49 1.254 . S
O55 Dy40 2.310 . S
O55 Dy43 2.664 . S
O55 C49 1.268 . S
O56 Dy40 2.351 . S
O56 C59 1.249 . S
O57 Dy43 2.326 . S
O57 C59 1.267 . S
C58 O50 1.249 . S
C58 O51 1.267 . S
C59 O56 1.249 . S
C59 O57 1.267 . S
C60 C61 1.387 1_645 S
C60 H64 0.950 . S
C60 C69 1.390 . S
C61 C60 1.387 1_465 S
C61 C63 1.387 . S
H62 C69 0.950 . S
C63 C61 1.387 . S
C63 C65 1.390 1_565 S
C63 H67 0.950 . S
H64 C60 0.950 . S
C65 C63 1.390 1_545 S
C65 C66 1.387 1_455 S
C65 H68 0.950 . S
C66 C65 1.387 1_655 S
C66 C69 1.387 . S
H67 C63 0.950 . S
H68 C65 0.950 . S
C69 C60 1.390 . S
C69 H62 0.950 . S
C69 C66 1.387 . S
C70 C71 1.387 . S
C70 H74 0.950 . S
C70 C79 1.390 . S
C71 C70 1.387 . S
C71 C73 1.387 1_545 S
H72 C79 0.950 . S
C73 C71 1.387 1_565 S
C73 C75 1.390 1_455 S
C73 H77 0.950 . S
H74 C70 0.950 . S
C75 C73 1.390 1_655 S
C75 C76 1.388 . S
C75 H78 0.950 . S
C76 C75 1.388 . S
C76 C79 1.387 1_665 S
H77 C73 0.950 . S
H78 C75 0.950 . S
C79 C70 1.390 . S
C79 H72 0.950 . S
C79 C76 1.387 1_445 S
C80 C81 1.387 . S
C80 H84 0.950 . S
C80 C89 1.390 . S
C81 C80 1.387 . S
C81 C83 1.387 . S
H82 C89 0.950 . S
C83 C81 1.387 . S
C83 C85 1.390 . S
C83 H87 0.950 . S
H84 C80 0.950 . S
C85 C83 1.390 . S
C85 C86 1.387 . S
C85 H88 0.950 . S
C86 C85 1.387 . S
C86 C89 1.387 . S
H87 C83 0.950 . S
H88 C85 0.950 . S
C89 C80 1.390 . S
C89 H82 0.950 . S
C89 C86 1.387 . S
C90 C91 1.387 . S
C90 H94 0.950 1_565 S
C90 C99 1.390 1_556 S
C91 C90 1.387 . S
C91 C93 1.387 . S
H92 C99 0.950 1_545 S
C93 C91 1.387 . S
C93 C95 1.390 1_556 S
C93 H97 0.950 . S
H94 C90 0.950 1_545 S
C95 C93 1.390 1_554 S
C95 C96 1.387 . S
C95 H98 0.950 . S
C96 C95 1.387 . S
C96 C99 1.387 . S
H97 C93 0.950 . S
H98 C95 0.950 . S
C99 C90 1.390 1_554 S
C99 H92 0.950 1_565 S
C99 C96 1.387 . S
C100 C101 1.387 . S
C100 H104 0.950 . S
C100 C109 1.390 . S
C101 C100 1.387 . S
C101 C103 1.387 . S
H102 C109 0.950 . S
C103 C101 1.387 . S
C103 C105 1.390 . S
C103 H107 0.950 . S
H104 C100 0.950 . S
C105 C103 1.390 . S
C105 C106 1.387 . S
C105 H108 0.950 . S
C106 C105 1.387 . S
C106 C109 1.387 . S
H107 C103 0.950 . S
H108 C105 0.950 . S
C109 C100 1.390 . S
C109 H102 0.950 . S
C109 C106 1.387 . S
C110 C111 1.387 . S
C110 H114 0.950 . S
C110 C119 1.390 . S
C111 C110 1.387 . S
C111 C113 1.387 . S
H112 C119 0.950 . S
C113 C111 1.387 . S
C113 C115 1.390 . S
C113 H117 0.950 . S
H114 C110 0.950 . S
C115 C113 1.390 . S
C115 C116 1.387 . S
C115 H118 0.950 . S
C116 C115 1.387 . S
C116 C119 1.387 . S
H117 C113 0.950 . S
H118 C115 0.950 . S
C119 C110 1.390 . S
C119 H112 0.950 . S
C119 C116 1.387 . S
C120 C121 1.387 . S
C120 H124 0.950 . S
C120 C129 1.390 1_556 S
C121 C120 1.387 . S
C121 C123 1.387 . S
H122 C129 0.950 . S
C123 C121 1.387 . S
C123 C125 1.390 1_556 S
C123 H127 0.950 . S
H124 C120 0.950 . S
C125 C123 1.390 1_554 S
C125 C126 1.387 . S
C125 H128 0.950 . S
C126 C125 1.387 . S
C126 C129 1.387 . S
H127 C123 0.950 . S
H128 C125 0.950 . S
C129 C120 1.390 1_554 S
C129 H122 0.950 . S
C129 C126 1.387 . S
C130 C131 1.387 . S
C130 H134 0.950 . S
C130 C139 1.390 . S
C131 C130 1.387 . S
C131 C133 1.387 . S
H132 C139 0.950 . S
C133 C131 1.387 . S
C133 C135 1.390 . S
C133 H137 0.950 . S
H134 C130 0.950 . S
C135 C133 1.390 . S
C135 C136 1.387 . S
C135 H138 0.950 . S
C136 C135 1.387 . S
C136 C139 1.387 . S
H137 C133 0.950 . S
H138 C135 0.950 . S
C139 C130 1.390 . S
C139 H132 0.950 . S
C139 C136 1.387 . S
C140 C141 1.387 . S
C140 H144 0.950 . S
C140 C149 1.390 . S
C141 C140 1.387 . S
C141 C143 1.387 . S
H142 C149 0.950 . S
C143 C141 1.387 . S
C143 C145 1.390 . S
C143 H147 0.950 . S
H144 C140 0.950 . S
C145 C143 1.390 . S
C145 C146 1.387 . S
C145 H148 0.950 . S
C146 C145 1.387 . S
C146 C149 1.387 . S
H147 C143 0.950 . S
H148 C145 0.950 . S
C149 C140 1.390 . S
C149 H142 0.950 . S
C149 C146 1.387 . S
C61 C8 1.321 1_455 S
C66 C9 1.321 1_655 S
C71 C29 1.349 1_545 S
C76 C28 1.349 1_565 S
C81 C48 1.297 1_445 S
C86 C49 1.297 . S
C91 C42 1.297 . S
C96 C1 1.282 . S
C101 C39 1.568 . S
C106 C2 1.568 . S
C111 C59 1.642 . S
C116 C38 1.634 . S
C121 C58 1.622 . S
C126 C19 1.614 . S
C131 C18 1.430 . S
C136 C21 1.391 . S
C141 C41 1.267 . S
C146 C22 1.285 . S
