# Generated by pormake.
# Topology lcy, (6)-cn, num edge types: 1
# Building blocks:
#     Node 0, Type 0, BuildingBlock: FUNLAD_clean_sbu_0, # of connection points: 6
#     Node 1, Type 0, BuildingBlock: FUNLAD_clean_sbu_0, # of connection points: 6
#     Node 2, Type 0, BuildingBlock: FUNLAD_clean_sbu_0, # of connection points: 6
#     Node 3, Type 0, BuildingBlock: FUNLAD_clean_sbu_0, # of connection points: 6
#     Edge 4, Type (0, 0), None
#     Edge 5, Type (0, 0), None
#     Edge 6, Type (0, 0), None
#     Edge 7, Type (0, 0), None
#     Edge 8, Type (0, 0), None
#     Edge 9, Type (0, 0), None
#     Edge 10, Type (0, 0), None
#     Edge 11, Type (0, 0), None
#     Edge 12, Type (0, 0), None
#     Edge 13, Type (0, 0), None
#     Edge 14, Type (0, 0), None
#     Edge 15, Type (0, 0), None
# Relax obj value: 1.113
# Max RMSD: 0.429
# Mean RMSD: 0.373
data_MOF--net-lcy--node1-FUNLAD_clean_sbu_0--edge1-none
_symmetry_space_group_name_H-M    P1
_symmetry_Int_Tables_number       1
_symmetry_cell_setting            triclinic
loop_
_symmetry_equiv_pos_as_xyz
'x, y, z'
_cell_length_a     14.347941
_cell_length_b     14.254885
_cell_length_c     12.735934
_cell_angle_alpha  76.730494
_cell_angle_beta   78.137844
_cell_angle_gamma 58.461561
loop_
_atom_site_label
_atom_site_type_symbol
_atom_site_fract_x
_atom_site_fract_y
_atom_site_fract_z
_atom_type_partial_charge
C0 C 0.28899 0.51698 0.27948 0.0
N1 N 0.54528 0.54888 0.37914 0.0
C2 C 0.47357 0.65959 0.35383 0.0
C3 C 0.50213 0.73959 0.35434 0.0
C4 C 0.60589 0.70821 0.38174 0.0
C5 C 0.6801 0.59351 0.40513 0.0
C6 C 0.64787 0.51509 0.40423 0.0
Zn7 Zn 0.46086 0.45784 0.4361 0.0
C8 C 0.29622 0.57169 0.62766 0.0
N9 N 0.23478 0.3248 0.56792 0.0
C10 C 0.21537 0.2794 0.49642 0.0
C11 C 0.16463 0.35379 0.65973 0.0
C12 C 0.07283 0.33853 0.68126 0.0
C13 C 0.05092 0.29183 0.60886 0.0
C14 C 0.1253 0.2609 0.51594 0.0
Zn15 Zn 0.34934 0.38426 0.50989 0.0
O16 O 0.36151 0.53724 0.29564 0.0
C17 C 0.52783 0.23218 0.37147 0.0
O18 O 0.25211 0.46964 0.36132 0.0
H19 H 0.1771 0.39244 0.7152 0.0
H20 H 0.39066 0.68714 0.33966 0.0
H21 H 0.26709 0.26088 0.4208 0.0
O22 O 0.56154 0.30373 0.35139 0.0
O23 O 0.44 0.25226 0.43077 0.0
H24 H 0.70371 0.42768 0.42832 0.0
O25 O 0.47466 0.29312 0.63977 0.0
O26 O 0.56026 0.38192 0.54724 0.0
O27 O 0.25732 0.51437 0.61125 0.0
O28 O 0.36697 0.58252 0.55436 0.0
C29 C 0.55358 0.31565 0.62703 0.0
H30 H 0.44311 0.82658 0.33174 0.0
H31 H 0.76286 0.56457 0.42145 0.0
H32 H 0.01943 0.36316 0.75534 0.0
H33 H 0.1138 0.22352 0.45824 0.0
C34 C 0.6477 0.26355 0.69165 0.0
N35 N 0.96315 0.97881 0.65725 0.0
C36 C 0.92393 0.90765 0.67893 0.0
C37 C 0.97983 0.81155 0.63166 0.0
C38 C 0.07453 0.79196 0.55781 0.0
C39 C 0.12317 0.85606 0.55412 0.0
C40 C 0.0632 0.9526 0.60064 0.0
Zn41 Zn 0.88526 0.11465 0.72709 0.0
C42 C 0.95905 0.26507 0.64094 0.0
N43 N 0.75422 0.34756 0.91752 0.0
C44 C 0.71396 0.45173 0.86041 0.0
C45 C 0.78153 0.32474 1.01988 0.0
C46 C 0.78821 0.40366 0.06017 0.0
C47 C 0.77327 0.50155 0.99031 0.0
C48 C 0.72095 0.532 0.89676 0.0
Zn49 Zn 0.8037 0.22653 0.83058 0.0
O50 O 0.72876 0.1691 0.67275 0.0
C51 C 0.76292 0.09044 0.95475 0.0
O52 O 0.66677 0.32511 0.73339 0.0
H53 H 0.81105 0.24164 0.06435 0.0
H54 H 0.84727 0.92774 0.72937 0.0
H55 H 0.69179 0.46821 0.77943 0.0
O56 O 0.83249 0.029 0.88463 0.0
O57 O 0.70092 0.19087 0.92471 0.0
H58 H 0.09602 0.00771 0.58908 0.0
O59 O 0.94924 0.08451 0.93096 0.0
O60 O 0.03692 0.05798 0.77451 0.0
O61 O 0.90995 0.28138 0.73504 0.0
O62 O 0.94325 0.2066 0.59108 0.0
C63 C 0.02591 0.01624 0.86942 0.0
H64 H 0.94128 0.76135 0.64347 0.0
H65 H 0.1985 0.8409 0.50261 0.0
H66 H 0.82418 0.37988 0.13556 0.0
H67 H 0.70515 0.60786 0.84171 0.0
C68 C 0.25629 0.54386 0.16354 0.0
N69 N 0.30397 0.76623 0.96763 0.0
C70 C 0.28172 0.80782 0.06081 0.0
C71 C 0.31642 0.8805 0.06618 0.0
C72 C 0.37175 0.913 0.97352 0.0
C73 C 0.395 0.86684 0.87888 0.0
C74 C 0.36235 0.791 0.87854 0.0
Zn75 Zn 0.22113 0.69539 0.95389 0.0
C76 C 0.25885 0.6185 0.7348 0.0
N77 N 1.00793 0.60361 0.94107 0.0
C78 C 0.03803 0.49584 0.97884 0.0
C79 C 0.90254 0.68237 0.9235 0.0
C80 C 0.82083 0.65326 0.94762 0.0
C81 C 0.84947 0.5421 0.98793 0.0
C82 C 0.95999 0.46304 1.00307 0.0
Zn83 Zn 0.12615 0.63486 0.94372 0.0
O84 O 0.31387 0.56722 0.08397 0.0
C85 C 1.00665 0.73385 0.10519 0.0
O86 O 0.167 0.55614 0.13928 0.0
H87 H 0.88149 0.76786 0.89444 0.0
H88 H 0.23467 0.78658 0.1299 0.0
H89 H 0.12273 0.43621 0.99298 0.0
O90 O 0.06325 0.78421 0.08888 0.0
O91 O 0.06387 0.63095 0.10137 0.0
H92 H 0.37673 0.75802 0.80477 0.0
O93 O 1.01124 0.8418 0.91603 0.0
O94 O 0.15975 0.83395 0.83954 0.0
O95 O 0.1608 0.64503 0.774 0.0
O96 O 0.32311 0.61164 0.79905 0.0
C97 C 0.06586 0.89286 0.88127 0.0
H98 H 0.3011 0.90924 0.14289 0.0
H99 H 0.43729 0.88927 0.80575 0.0
H100 H 0.73701 0.716 0.93308 0.0
H101 H 0.98741 0.3755 1.02934 0.0
C102 C 0.58635 0.12378 0.33097 0.0
N103 N 0.90793 0.83513 0.35872 0.0
C104 C 0.97938 0.87362 0.32129 0.0
C105 C 0.0794 0.82034 0.3644 0.0
C106 C 0.09156 0.74355 0.45971 0.0
C107 C 0.04035 0.68103 0.46839 0.0
C108 C 0.94073 0.73488 0.42419 0.0
Zn109 Zn 0.77355 0.89806 0.28348 0.0
C110 C 0.64206 0.79307 0.35119 0.0
N111 N 0.54881 0.0152 0.07951 0.0
C112 C 0.43914 0.06589 0.11143 0.0
C113 C 0.59097 0.96926 0.98654 0.0
C114 C 0.52709 0.94971 0.93643 0.0
C115 C 0.41932 0.98019 0.9827 0.0
C116 C 0.37114 0.05216 0.06094 0.0
Zn117 Zn 0.65289 0.9736 0.18701 0.0
O118 O 0.6875 0.05675 0.34334 0.0
C119 C 0.75857 0.05966 0.07187 0.0
O120 O 0.53437 0.09202 0.29013 0.0
H121 H 0.67697 0.93543 0.9583 0.0
H122 H 0.9586 0.946 0.26023 0.0
H123 H 0.40589 0.10558 0.18335 0.0
O124 O 0.83677 0.98498 0.12874 0.0
O125 O 0.66367 0.10139 0.11586 0.0
H126 H 0.88992 0.69687 0.4431 0.0
O127 O 0.80872 0.85026 0.08554 0.0
O128 O 0.86361 0.74678 0.23668 0.0
O129 O 0.62107 0.84846 0.25832 0.0
O130 O 0.69652 0.80985 0.40643 0.0
C131 C 0.88815 0.77713 0.14158 0.0
H132 H 0.13038 0.85854 0.34114 0.0
H133 H 0.05815 0.60972 0.53095 0.0
H134 H 0.56712 0.89769 0.87304 0.0
H135 H 0.28598 0.08333 0.09393 0.0
loop_
_geom_bond_atom_site_label_1
_geom_bond_atom_site_label_2
_geom_bond_distance
_geom_bond_site_symmetry_2
_ccdc_geom_bond_type
C0 O16 1.251 . S
C0 O18 1.254 . S
N1 C2 1.333 . S
N1 C6 1.307 . S
N1 Zn7 2.020 . S
C2 N1 1.333 . S
C2 C3 1.379 . S
C2 H20 0.952 . S
C3 C2 1.379 . S
C3 C4 1.390 . S
C3 H30 0.949 . S
C4 C3 1.390 . S
C4 C5 1.357 . S
C5 C4 1.357 . S
C5 C6 1.370 . S
C5 H31 0.950 . S
C6 N1 1.307 . S
C6 C5 1.370 . S
C6 H24 0.948 . S
Zn7 N1 2.020 . S
Zn7 O16 2.039 . S
Zn7 O22 2.034 . S
Zn7 O26 2.025 . S
Zn7 O28 2.024 . S
C8 O27 1.246 . S
C8 O28 1.249 . S
N9 C10 1.307 . S
N9 C11 1.333 . S
N9 Zn15 2.020 . S
C10 N9 1.307 . S
C10 C14 1.370 . S
C10 H21 0.948 . S
C11 N9 1.333 . S
C11 C12 1.379 . S
C11 H19 0.952 . S
C12 C11 1.379 . S
C12 C13 1.390 . S
C12 H32 0.949 . S
C13 C12 1.390 . S
C13 C14 1.357 . S
C14 C10 1.370 . S
C14 C13 1.357 . S
C14 H33 0.950 . S
Zn15 N9 2.020 . S
Zn15 O18 2.025 . S
Zn15 O23 2.024 . S
Zn15 O25 2.039 . S
Zn15 O27 2.034 . S
O16 C0 1.251 . S
O16 Zn7 2.039 . S
C17 O22 1.246 . S
C17 O23 1.249 . S
O18 C0 1.254 . S
O18 Zn15 2.025 . S
H19 C11 0.952 . S
H20 C2 0.952 . S
H21 C10 0.948 . S
O22 Zn7 2.034 . S
O22 C17 1.246 . S
O23 Zn15 2.024 . S
O23 C17 1.249 . S
H24 C6 0.948 . S
O25 Zn15 2.039 . S
O25 C29 1.251 . S
O26 Zn7 2.025 . S
O26 C29 1.254 . S
O27 C8 1.246 . S
O27 Zn15 2.034 . S
O28 Zn7 2.024 . S
O28 C8 1.249 . S
C29 O25 1.251 . S
C29 O26 1.254 . S
H30 C3 0.949 . S
H31 C5 0.950 . S
H32 C12 0.949 . S
H33 C14 0.950 . S
C34 O50 1.251 . S
C34 O52 1.254 . S
N35 C36 1.333 1_565 S
N35 C40 1.307 . S
N35 Zn41 2.020 1_565 S
C36 N35 1.333 1_545 S
C36 C37 1.379 1_545 S
C36 H54 0.952 . S
C37 C36 1.379 1_565 S
C37 C38 1.390 . S
C37 H64 0.949 . S
C38 C37 1.390 . S
C38 C39 1.357 . S
C39 C38 1.357 . S
C39 C40 1.370 . S
C39 H65 0.950 1_655 S
C40 N35 1.307 . S
C40 C39 1.370 . S
C40 H58 0.948 1_655 S
Zn41 N35 2.020 1_545 S
Zn41 O50 2.039 . S
Zn41 O56 2.034 . S
Zn41 O60 2.025 1_545 S
Zn41 O62 2.024 . S
C42 O61 1.246 . S
C42 O62 1.249 . S
N43 C44 1.307 . S
N43 C45 1.333 . S
N43 Zn49 2.020 . S
C44 N43 1.307 . S
C44 C48 1.370 1_556 S
C44 H55 0.948 . S
C45 N43 1.333 . S
C45 C46 1.379 1_556 S
C45 H53 0.952 . S
C46 C45 1.379 1_554 S
C46 C47 1.390 . S
C46 H66 0.949 1_655 S
C47 C46 1.390 . S
C47 C48 1.357 . S
C48 C44 1.370 1_554 S
C48 C47 1.357 . S
C48 H67 0.950 . S
Zn49 N43 2.020 . S
Zn49 O52 2.025 . S
Zn49 O57 2.024 . S
Zn49 O59 2.039 . S
Zn49 O61 2.034 . S
O50 C34 1.251 . S
O50 Zn41 2.039 . S
C51 O56 1.246 . S
C51 O57 1.249 . S
O52 C34 1.254 . S
O52 Zn49 2.025 . S
H53 C45 0.952 . S
H54 C36 0.952 . S
H55 C44 0.948 . S
O56 Zn41 2.034 . S
O56 C51 1.246 . S
O57 Zn49 2.024 . S
O57 C51 1.249 . S
H58 C40 0.948 1_455 S
O59 Zn49 2.039 . S
O59 C63 1.251 1_645 S
O60 Zn41 2.025 1_565 S
O60 C63 1.254 1_655 S
O61 C42 1.246 . S
O61 Zn49 2.034 . S
O62 Zn41 2.024 . S
O62 C42 1.249 . S
C63 O59 1.251 1_465 S
C63 O60 1.254 1_455 S
H64 C37 0.949 . S
H65 C39 0.950 1_455 S
H66 C46 0.949 1_455 S
H67 C48 0.950 . S
C68 O84 1.251 . S
C68 O86 1.254 . S
N69 C70 1.333 1_556 S
N69 C74 1.307 . S
N69 Zn75 2.020 . S
C70 N69 1.333 1_554 S
C70 C71 1.379 . S
C70 H88 0.952 . S
C71 C70 1.379 . S
C71 C72 1.390 1_554 S
C71 H98 0.949 . S
C72 C71 1.390 1_556 S
C72 C73 1.357 . S
C73 C72 1.357 . S
C73 C74 1.370 . S
C73 H99 0.950 . S
C74 N69 1.307 . S
C74 C73 1.370 . S
C74 H92 0.948 . S
Zn75 N69 2.020 . S
Zn75 O84 2.039 1_556 S
Zn75 O90 2.034 1_556 S
Zn75 O94 2.025 . S
Zn75 O96 2.024 . S
C76 O95 1.246 . S
C76 O96 1.249 . S
N77 C78 1.307 1_556 S
N77 C79 1.333 . S
N77 Zn83 2.020 1_655 S
C78 N77 1.307 1_554 S
C78 C82 1.370 . S
C78 H89 0.948 . S
C79 N77 1.333 . S
C79 C80 1.379 . S
C79 H87 0.952 . S
C80 C79 1.379 . S
C80 C81 1.390 . S
C80 H100 0.949 . S
C81 C80 1.390 . S
C81 C82 1.357 1_556 S
C82 C78 1.370 . S
C82 C81 1.357 1_554 S
C82 H101 0.950 . S
Zn83 N77 2.020 1_455 S
Zn83 O86 2.025 1_556 S
Zn83 O91 2.024 1_456 S
Zn83 O93 2.039 1_455 S
Zn83 O95 2.034 . S
O84 C68 1.251 . S
O84 Zn75 2.039 1_554 S
C85 O90 1.246 1_655 S
C85 O91 1.249 . S
O86 C68 1.254 . S
O86 Zn83 2.025 1_554 S
H87 C79 0.952 . S
H88 C70 0.952 . S
H89 C78 0.948 . S
O90 Zn75 2.034 1_554 S
O90 C85 1.246 1_455 S
O91 Zn83 2.024 1_654 S
O91 C85 1.249 . S
H92 C74 0.948 . S
O93 Zn83 2.039 1_655 S
O93 C97 1.251 1_655 S
O94 Zn75 2.025 . S
O94 C97 1.254 . S
O95 C76 1.246 . S
O95 Zn83 2.034 . S
O96 Zn75 2.024 . S
O96 C76 1.249 . S
C97 O93 1.251 1_455 S
C97 O94 1.254 . S
H98 C71 0.949 . S
H99 C73 0.950 . S
H100 C80 0.949 . S
H101 C82 0.950 . S
C102 O118 1.251 . S
C102 O120 1.254 . S
N103 C104 1.333 1_565 S
N103 C108 1.307 . S
N103 Zn109 2.020 . S
C104 N103 1.333 1_545 S
C104 C105 1.379 . S
C104 H122 0.952 . S
C105 C104 1.379 . S
C105 C106 1.390 1_545 S
C105 H132 0.949 . S
C106 C105 1.390 1_565 S
C106 C107 1.357 . S
C107 C106 1.357 . S
C107 C108 1.370 . S
C107 H133 0.950 1_655 S
C108 N103 1.307 . S
C108 C107 1.370 . S
C108 H126 0.948 . S
Zn109 N103 2.020 . S
Zn109 O118 2.039 1_565 S
Zn109 O124 2.034 1_565 S
Zn109 O128 2.025 . S
Zn109 O130 2.024 . S
C110 O129 1.246 . S
C110 O130 1.249 . S
N111 C112 1.307 1_565 S
N111 C113 1.333 . S
N111 Zn117 2.020 1_556 S
C112 N111 1.307 1_545 S
C112 C116 1.370 . S
C112 H123 0.948 . S
C113 N111 1.333 . S
C113 C114 1.379 . S
C113 H121 0.952 . S
C114 C113 1.379 . S
C114 C115 1.390 . S
C114 H134 0.949 . S
C115 C114 1.390 . S
C115 C116 1.357 1_565 S
C116 C112 1.370 . S
C116 C115 1.357 1_545 S
C116 H135 0.950 . S
Zn117 N111 2.020 1_554 S
Zn117 O120 2.025 1_565 S
Zn117 O125 2.024 1_564 S
Zn117 O127 2.039 . S
Zn117 O129 2.034 . S
O118 C102 1.251 . S
O118 Zn109 2.039 1_545 S
C119 O124 1.246 1_556 S
C119 O125 1.249 . S
O120 C102 1.254 . S
O120 Zn117 2.025 1_545 S
H121 C113 0.952 . S
H122 C104 0.952 . S
H123 C112 0.948 . S
O124 Zn109 2.034 1_545 S
O124 C119 1.246 1_554 S
O125 Zn117 2.024 1_546 S
O125 C119 1.249 . S
H126 C108 0.948 . S
O127 Zn117 2.039 . S
O127 C131 1.251 . S
O128 Zn109 2.025 . S
O128 C131 1.254 . S
O129 C110 1.246 . S
O129 Zn117 2.034 . S
O130 Zn109 2.024 . S
O130 C110 1.249 . S
C131 O127 1.251 . S
C131 O128 1.254 . S
H132 C105 0.949 . S
H133 C107 0.950 1_455 S
H134 C114 0.949 . S
H135 C116 0.950 . S
C68 C0 3.970 . S
C106 C38 2.429 . S
C76 C8 3.866 . S
C119 C51 0.968 . S
C42 C13 2.707 1_655 S
C97 C63 1.701 . S
C72 C115 1.958 . S
C17 C102 3.635 . S
C34 C29 3.702 . S
C81 C47 2.056 1_556 S
C85 C131 1.693 . S
C110 C4 2.636 . S
