# Generated by pormake.
# Topology umo, (4)-cn, num edge types: 1
# Building blocks:
#     Node 0, Type 0, BuildingBlock: CEKHIL_clean_sbu_0, # of connection points: 4
#     Node 1, Type 0, BuildingBlock: CEKHIL_clean_sbu_0, # of connection points: 4
#     Node 2, Type 0, BuildingBlock: CEKHIL_clean_sbu_0, # of connection points: 4
#     Node 3, Type 0, BuildingBlock: CEKHIL_clean_sbu_0, # of connection points: 4
#     Node 4, Type 0, BuildingBlock: CEKHIL_clean_sbu_0, # of connection points: 4
#     Node 5, Type 0, BuildingBlock: CEKHIL_clean_sbu_0, # of connection points: 4
#     Node 6, Type 0, BuildingBlock: CEKHIL_clean_sbu_0, # of connection points: 4
#     Node 7, Type 0, BuildingBlock: CEKHIL_clean_sbu_0, # of connection points: 4
#     Node 8, Type 0, BuildingBlock: CEKHIL_clean_sbu_0, # of connection points: 4
#     Node 9, Type 0, BuildingBlock: CEKHIL_clean_sbu_0, # of connection points: 4
#     Node 10, Type 0, BuildingBlock: CEKHIL_clean_sbu_0, # of connection points: 4
#     Node 11, Type 0, BuildingBlock: CEKHIL_clean_sbu_0, # of connection points: 4
#     Edge 12, Type (0, 0), None
#     Edge 13, Type (0, 0), None
#     Edge 14, Type (0, 0), None
#     Edge 15, Type (0, 0), None
#     Edge 16, Type (0, 0), None
#     Edge 17, Type (0, 0), None
#     Edge 18, Type (0, 0), None
#     Edge 19, Type (0, 0), None
#     Edge 20, Type (0, 0), None
#     Edge 21, Type (0, 0), None
#     Edge 22, Type (0, 0), None
#     Edge 23, Type (0, 0), None
#     Edge 24, Type (0, 0), None
#     Edge 25, Type (0, 0), None
#     Edge 26, Type (0, 0), None
#     Edge 27, Type (0, 0), None
#     Edge 28, Type (0, 0), None
#     Edge 29, Type (0, 0), None
#     Edge 30, Type (0, 0), None
#     Edge 31, Type (0, 0), None
#     Edge 32, Type (0, 0), None
#     Edge 33, Type (0, 0), None
#     Edge 34, Type (0, 0), None
#     Edge 35, Type (0, 0), None
# Relax obj value: 0.181
# Max RMSD: 0.271
# Mean RMSD: 0.271
data_MOF--net-umo--node1-CEKHIL_clean_sbu_0--edge1-none
_symmetry_space_group_name_H-M    P1
_symmetry_Int_Tables_number       1
_symmetry_cell_setting            triclinic
loop_
_symmetry_equiv_pos_as_xyz
'x, y, z'
_cell_length_a     21.986884
_cell_length_b     21.998954
_cell_length_c     15.482118
_cell_angle_alpha  90.000154
_cell_angle_beta   89.999899
_cell_angle_gamma 120.05396
loop_
_atom_site_label
_atom_site_type_symbol
_atom_site_fract_x
_atom_site_fract_y
_atom_site_fract_z
_atom_type_partial_charge
Co0 Co 0.14386 0.53131 0.36075 0.0
O1 O 0.05755 0.44575 0.35821 0.0
O2 O 0.06764 0.54958 0.33237 0.0
C3 C 0.20909 0.49257 0.28297 0.0
O4 O 0.23084 0.62459 0.3695 0.0
Co5 Co 0.21961 0.48849 0.48906 0.0
O6 O 0.28084 0.59307 0.47628 0.0
C7 C 0.13637 0.54186 0.56055 0.0
C8 C 0.02733 0.48213 0.34444 0.0
C9 C 0.27802 0.63893 0.42806 0.0
O10 O 0.12713 0.55298 0.48227 0.0
O11 O 0.16524 0.50579 0.58026 0.0
O12 O 0.16942 0.51193 0.2444 0.0
O13 O 0.20253 0.49144 0.36619 0.0
Co14 Co 0.60507 0.14748 0.52779 0.0
O15 O 0.60458 0.06139 0.52552 0.0
O16 O 0.51058 0.07103 0.49948 0.0
C17 C 0.7091 0.21286 0.44994 0.0
O18 O 0.59851 0.23422 0.53629 0.0
Co19 Co 0.72356 0.22343 0.65611 0.0
O20 O 0.67999 0.28439 0.64317 0.0
C21 C 0.58692 0.14004 0.72759 0.0
C22 C 0.5379 0.03095 0.51169 0.0
C23 C 0.63128 0.28143 0.59483 0.0
O24 O 0.56658 0.13082 0.6493 0.0
O25 O 0.65191 0.16893 0.74734 0.0
O26 O 0.65003 0.17298 0.41143 0.0
O27 O 0.70371 0.20644 0.53318 0.0
Co28 Co 0.4507 0.60895 0.69413 0.0
O29 O 0.53627 0.60831 0.69162 0.0
O30 O 0.43235 0.51447 0.66569 0.0
C31 C 0.48954 0.71301 0.61648 0.0
O32 O 0.35738 0.6025 0.70283 0.0
Co33 Co 0.49344 0.72769 0.82246 0.0
O34 O 0.3888 0.68403 0.80961 0.0
C35 C 0.43996 0.59093 0.89391 0.0
C36 C 0.49982 0.54167 0.67779 0.0
C37 C 0.34297 0.63527 0.76135 0.0
O38 O 0.42898 0.57051 0.81564 0.0
O39 O 0.47594 0.65592 0.91362 0.0
O40 O 0.47017 0.65401 0.57782 0.0
O41 O 0.49066 0.70749 0.69968 0.0
Co42 Co 0.83429 0.45413 0.86075 0.0
O43 O 0.92061 0.53969 0.85821 0.0
O44 O 0.91051 0.43586 0.83237 0.0
C45 C 0.76906 0.49286 0.78297 0.0
O46 O 0.74732 0.36085 0.8695 0.0
Co47 Co 0.75855 0.49695 0.98906 0.0
O48 O 0.69732 0.39236 0.97628 0.0
C49 C 0.84178 0.44358 0.06055 0.0
C50 C 0.95083 0.5033 0.84444 0.0
C51 C 0.70013 0.34651 0.92806 0.0
O52 O 0.85102 0.43245 0.98227 0.0
O53 O 0.81292 0.47965 0.08026 0.0
O54 O 0.80873 0.47351 0.7444 0.0
O55 O 0.77563 0.494 0.86619 0.0
Co56 Co 0.37308 0.83795 0.02779 0.0
O57 O 0.37357 0.92405 0.02552 0.0
O58 O 0.46758 0.91441 0.99948 0.0
C59 C 0.26906 0.77258 0.94994 0.0
O60 O 0.37965 0.75121 0.03629 0.0
Co61 Co 0.25459 0.762 0.15611 0.0
O62 O 0.29816 0.70105 0.14317 0.0
C63 C 0.39123 0.8454 0.22759 0.0
C64 C 0.44025 0.95449 0.01169 0.0
C65 C 0.34688 0.704 0.09483 0.0
O66 O 0.41157 0.85461 0.1493 0.0
O67 O 0.32624 0.81651 0.24734 0.0
O68 O 0.32813 0.81246 0.91143 0.0
O69 O 0.27444 0.77899 0.03318 0.0
Co70 Co 0.52745 0.37648 0.19413 0.0
O71 O 0.44188 0.37713 0.19162 0.0
O72 O 0.5458 0.47096 0.16569 0.0
C73 C 0.48862 0.27242 0.11648 0.0
O74 O 0.62077 0.38294 0.20283 0.0
Co75 Co 0.48472 0.25775 0.32246 0.0
O76 O 0.58935 0.30141 0.30961 0.0
C77 C 0.53819 0.39451 0.39391 0.0
C78 C 0.47833 0.44376 0.17779 0.0
C79 C 0.63518 0.35017 0.26135 0.0
O80 O 0.54918 0.41493 0.31564 0.0
O81 O 0.50221 0.32952 0.41362 0.0
O82 O 0.50798 0.33143 0.07782 0.0
O83 O 0.4875 0.27795 0.19968 0.0
Co84 Co 0.45064 0.83795 0.49273 0.0
O85 O 0.53619 0.92427 0.4954 0.0
O86 O 0.43224 0.91402 0.52119 0.0
C87 C 0.48942 0.77273 0.57036 0.0
O88 O 0.35735 0.75098 0.48383 0.0
Co89 Co 0.49357 0.76219 0.36436 0.0
O90 O 0.38891 0.70107 0.37699 0.0
C91 C 0.44016 0.84547 0.29295 0.0
C92 C 0.49972 0.95439 0.5092 0.0
C93 C 0.34301 0.70391 0.42515 0.0
O94 O 0.42903 0.85475 0.37121 0.0
O95 O 0.47618 0.81653 0.27322 0.0
O96 O 0.47001 0.81231 0.60905 0.0
O97 O 0.49061 0.77943 0.48717 0.0
Co98 Co 0.60521 0.4541 0.65901 0.0
O99 O 0.60471 0.5397 0.66143 0.0
O100 O 0.51072 0.43593 0.68741 0.0
C101 C 0.70926 0.49279 0.73673 0.0
O102 O 0.59863 0.36078 0.65038 0.0
Co103 Co 0.72382 0.49675 0.53065 0.0
O104 O 0.68006 0.39214 0.54344 0.0
C105 C 0.5871 0.44347 0.45923 0.0
C106 C 0.53804 0.50337 0.67527 0.0
C107 C 0.63128 0.34635 0.59171 0.0
O108 O 0.56672 0.43233 0.53751 0.0
O109 O 0.65211 0.47951 0.43948 0.0
O110 O 0.65023 0.47355 0.77535 0.0
O111 O 0.70381 0.49388 0.65351 0.0
Co112 Co 0.144 0.60881 0.82574 0.0
O113 O 0.0578 0.6082 0.82817 0.0
O114 O 0.06761 0.51432 0.85406 0.0
C115 C 0.20936 0.71277 0.90357 0.0
O116 O 0.23085 0.60238 0.81704 0.0
Co117 Co 0.21971 0.72726 0.69738 0.0
O118 O 0.28081 0.68381 0.7101 0.0
C119 C 0.13633 0.59069 0.62593 0.0
C120 C 0.02743 0.54156 0.84196 0.0
C121 C 0.27795 0.63512 0.75834 0.0
O122 O 0.12726 0.57036 0.70422 0.0
O123 O 0.16514 0.65564 0.60618 0.0
O124 O 0.16955 0.65372 0.94211 0.0
O125 O 0.20291 0.70742 0.82034 0.0
Co126 Co 0.52751 0.14748 0.99273 0.0
O127 O 0.44196 0.06117 0.9954 0.0
O128 O 0.54592 0.07141 0.02119 0.0
C129 C 0.48873 0.2127 0.07036 0.0
O130 O 0.62081 0.23446 0.98383 0.0
Co131 Co 0.48458 0.22325 0.86436 0.0
O132 O 0.58924 0.28437 0.87699 0.0
C133 C 0.53799 0.13997 0.79295 0.0
C134 C 0.47844 0.03105 1.00919 0.0
C135 C 0.63514 0.28152 0.92516 0.0
O136 O 0.54912 0.13069 0.87121 0.0
O137 O 0.50198 0.1689 0.77322 0.0
O138 O 0.50814 0.17313 0.10905 0.0
O139 O 0.48754 0.20601 0.98717 0.0
Co140 Co 0.37295 0.53134 0.15901 0.0
O141 O 0.37344 0.44574 0.16143 0.0
O142 O 0.46743 0.54951 0.18741 0.0
C143 C 0.26889 0.49265 0.23673 0.0
O144 O 0.37953 0.62466 0.15038 0.0
Co145 Co 0.25433 0.48868 0.03065 0.0
O146 O 0.29809 0.59329 0.04344 0.0
C147 C 0.39105 0.54197 0.95923 0.0
C148 C 0.44012 0.48207 0.17527 0.0
C149 C 0.34687 0.63909 0.09171 0.0
O150 O 0.41144 0.5531 0.03751 0.0
O151 O 0.32604 0.50593 0.93948 0.0
O152 O 0.32792 0.51189 0.27535 0.0
O153 O 0.27434 0.49156 0.15351 0.0
Co154 Co 0.83415 0.37663 0.32574 0.0
O155 O 0.92035 0.37723 0.32817 0.0
O156 O 0.91055 0.47111 0.35406 0.0
C157 C 0.76879 0.27266 0.40357 0.0
O158 O 0.7473 0.38305 0.31704 0.0
Co159 Co 0.75844 0.25818 0.19738 0.0
O160 O 0.69734 0.30163 0.2101 0.0
C161 C 0.84183 0.39474 0.12593 0.0
C162 C 0.95072 0.44387 0.34196 0.0
C163 C 0.7002 0.35032 0.25834 0.0
O164 O 0.85089 0.41508 0.20422 0.0
O165 O 0.81301 0.3298 0.10618 0.0
O166 O 0.8086 0.33171 0.44211 0.0
O167 O 0.77525 0.27802 0.32034 0.0
loop_
_geom_bond_atom_site_label_1
_geom_bond_atom_site_label_2
_geom_bond_distance
_geom_bond_site_symmetry_2
_ccdc_geom_bond_type
Co0 O1 2.216 . S
Co0 O2 2.091 . S
Co0 O4 2.004 . S
Co0 O10 2.021 . S
Co0 O12 2.137 . S
Co0 O13 2.244 . S
O1 Co0 2.216 . S
O1 C8 1.247 . S
O2 Co0 2.091 . S
O2 C8 1.261 . S
C3 O12 1.247 . S
C3 O13 1.272 . S
O4 Co0 2.004 . S
O4 C9 1.259 . S
Co5 O6 2.061 . S
Co5 O11 2.052 . S
Co5 O13 2.135 . S
O6 Co5 2.061 . S
O6 C9 1.235 . S
C7 O10 1.238 . S
C7 O11 1.241 . S
C8 O1 1.247 . S
C8 O2 1.261 . S
C9 O4 1.259 . S
C9 O6 1.235 . S
O10 Co0 2.021 . S
O10 C7 1.238 . S
O11 Co5 2.052 . S
O11 C7 1.241 . S
O12 Co0 2.137 . S
O12 C3 1.247 . S
O13 Co0 2.244 . S
O13 C3 1.272 . S
O13 Co5 2.135 . S
Co14 O15 2.216 . S
Co14 O16 2.091 . S
Co14 O18 2.004 . S
Co14 O24 2.021 . S
Co14 O26 2.137 . S
Co14 O27 2.244 . S
O15 Co14 2.216 . S
O15 C22 1.247 . S
O16 Co14 2.091 . S
O16 C22 1.261 . S
C17 O26 1.247 . S
C17 O27 1.272 . S
O18 Co14 2.004 . S
O18 C23 1.259 . S
Co19 O20 2.061 . S
Co19 O25 2.052 . S
Co19 O27 2.135 . S
O20 Co19 2.061 . S
O20 C23 1.235 . S
C21 O24 1.238 . S
C21 O25 1.241 . S
C22 O15 1.247 . S
C22 O16 1.261 . S
C23 O18 1.259 . S
C23 O20 1.235 . S
O24 Co14 2.021 . S
O24 C21 1.238 . S
O25 Co19 2.052 . S
O25 C21 1.241 . S
O26 Co14 2.137 . S
O26 C17 1.247 . S
O27 Co14 2.244 . S
O27 C17 1.272 . S
O27 Co19 2.135 . S
Co28 O29 2.216 . S
Co28 O30 2.091 . S
Co28 O32 2.004 . S
Co28 O38 2.021 . S
Co28 O40 2.137 . S
Co28 O41 2.244 . S
O29 Co28 2.216 . S
O29 C36 1.247 . S
O30 Co28 2.091 . S
O30 C36 1.261 . S
C31 O40 1.247 . S
C31 O41 1.272 . S
O32 Co28 2.004 . S
O32 C37 1.259 . S
Co33 O34 2.061 . S
Co33 O39 2.052 . S
Co33 O41 2.135 . S
O34 Co33 2.061 . S
O34 C37 1.235 . S
C35 O38 1.238 . S
C35 O39 1.241 . S
C36 O29 1.247 . S
C36 O30 1.261 . S
C37 O32 1.259 . S
C37 O34 1.235 . S
O38 Co28 2.021 . S
O38 C35 1.238 . S
O39 Co33 2.052 . S
O39 C35 1.241 . S
O40 Co28 2.137 . S
O40 C31 1.247 . S
O41 Co28 2.244 . S
O41 C31 1.272 . S
O41 Co33 2.135 . S
Co42 O43 2.216 . S
Co42 O44 2.091 . S
Co42 O46 2.004 . S
Co42 O52 2.021 1_556 S
Co42 O54 2.137 . S
Co42 O55 2.244 . S
O43 Co42 2.216 . S
O43 C50 1.247 . S
O44 Co42 2.091 . S
O44 C50 1.261 . S
C45 O54 1.247 . S
C45 O55 1.272 . S
O46 Co42 2.004 . S
O46 C51 1.259 . S
Co47 O48 2.061 . S
Co47 O53 2.052 1_556 S
Co47 O55 2.135 . S
O48 Co47 2.061 . S
O48 C51 1.235 . S
C49 O52 1.238 . S
C49 O53 1.241 . S
C50 O43 1.247 . S
C50 O44 1.261 . S
C51 O46 1.259 . S
C51 O48 1.235 . S
O52 Co42 2.021 1_554 S
O52 C49 1.238 . S
O53 Co47 2.052 1_554 S
O53 C49 1.241 . S
O54 Co42 2.137 . S
O54 C45 1.247 . S
O55 Co42 2.244 . S
O55 C45 1.272 . S
O55 Co47 2.135 . S
Co56 O57 2.216 . S
Co56 O58 2.091 . S
Co56 O60 2.004 . S
Co56 O66 2.021 . S
Co56 O68 2.137 1_554 S
Co56 O69 2.244 . S
O57 Co56 2.216 . S
O57 C64 1.247 . S
O58 Co56 2.091 . S
O58 C64 1.261 . S
C59 O68 1.247 . S
C59 O69 1.272 1_556 S
O60 Co56 2.004 . S
O60 C65 1.259 . S
Co61 O62 2.061 . S
Co61 O67 2.052 . S
Co61 O69 2.135 . S
O62 Co61 2.061 . S
O62 C65 1.235 . S
C63 O66 1.238 . S
C63 O67 1.241 . S
C64 O57 1.247 . S
C64 O58 1.261 . S
C65 O60 1.259 . S
C65 O62 1.235 . S
O66 Co56 2.021 . S
O66 C63 1.238 . S
O67 Co61 2.052 . S
O67 C63 1.241 . S
O68 Co56 2.137 1_556 S
O68 C59 1.247 . S
O69 Co56 2.244 . S
O69 C59 1.272 1_554 S
O69 Co61 2.135 . S
Co70 O71 2.216 . S
Co70 O72 2.091 . S
Co70 O74 2.004 . S
Co70 O80 2.021 . S
Co70 O82 2.137 . S
Co70 O83 2.244 . S
O71 Co70 2.216 . S
O71 C78 1.247 . S
O72 Co70 2.091 . S
O72 C78 1.261 . S
C73 O82 1.247 . S
C73 O83 1.272 . S
O74 Co70 2.004 . S
O74 C79 1.259 . S
Co75 O76 2.061 . S
Co75 O81 2.052 . S
Co75 O83 2.135 . S
O76 Co75 2.061 . S
O76 C79 1.235 . S
C77 O80 1.238 . S
C77 O81 1.241 . S
C78 O71 1.247 . S
C78 O72 1.261 . S
C79 O74 1.259 . S
C79 O76 1.235 . S
O80 Co70 2.021 . S
O80 C77 1.238 . S
O81 Co75 2.052 . S
O81 C77 1.241 . S
O82 Co70 2.137 . S
O82 C73 1.247 . S
O83 Co70 2.244 . S
O83 C73 1.272 . S
O83 Co75 2.135 . S
Co84 O85 2.216 . S
Co84 O86 2.091 . S
Co84 O88 2.004 . S
Co84 O94 2.021 . S
Co84 O96 2.137 . S
Co84 O97 2.244 . S
O85 Co84 2.216 . S
O85 C92 1.247 . S
O86 Co84 2.091 . S
O86 C92 1.261 . S
C87 O96 1.247 . S
C87 O97 1.272 . S
O88 Co84 2.004 . S
O88 C93 1.259 . S
Co89 O90 2.061 . S
Co89 O95 2.052 . S
Co89 O97 2.135 . S
O90 Co89 2.061 . S
O90 C93 1.235 . S
C91 O94 1.238 . S
C91 O95 1.241 . S
C92 O85 1.247 . S
C92 O86 1.261 . S
C93 O88 1.259 . S
C93 O90 1.235 . S
O94 Co84 2.021 . S
O94 C91 1.238 . S
O95 Co89 2.052 . S
O95 C91 1.241 . S
O96 Co84 2.137 . S
O96 C87 1.247 . S
O97 Co84 2.244 . S
O97 C87 1.272 . S
O97 Co89 2.135 . S
Co98 O99 2.216 . S
Co98 O100 2.091 . S
Co98 O102 2.004 . S
Co98 O108 2.021 . S
Co98 O110 2.137 . S
Co98 O111 2.244 . S
O99 Co98 2.216 . S
O99 C106 1.247 . S
O100 Co98 2.091 . S
O100 C106 1.261 . S
C101 O110 1.247 . S
C101 O111 1.272 . S
O102 Co98 2.004 . S
O102 C107 1.259 . S
Co103 O104 2.061 . S
Co103 O109 2.052 . S
Co103 O111 2.135 . S
O104 Co103 2.061 . S
O104 C107 1.235 . S
C105 O108 1.238 . S
C105 O109 1.241 . S
C106 O99 1.247 . S
C106 O100 1.261 . S
C107 O102 1.259 . S
C107 O104 1.235 . S
O108 Co98 2.021 . S
O108 C105 1.238 . S
O109 Co103 2.052 . S
O109 C105 1.241 . S
O110 Co98 2.137 . S
O110 C101 1.247 . S
O111 Co98 2.244 . S
O111 C101 1.272 . S
O111 Co103 2.135 . S
Co112 O113 2.216 . S
Co112 O114 2.091 . S
Co112 O116 2.004 . S
Co112 O122 2.021 . S
Co112 O124 2.137 . S
Co112 O125 2.244 . S
O113 Co112 2.216 . S
O113 C120 1.247 . S
O114 Co112 2.091 . S
O114 C120 1.261 . S
C115 O124 1.247 . S
C115 O125 1.272 . S
O116 Co112 2.004 . S
O116 C121 1.259 . S
Co117 O118 2.061 . S
Co117 O123 2.052 . S
Co117 O125 2.135 . S
O118 Co117 2.061 . S
O118 C121 1.235 . S
C119 O122 1.238 . S
C119 O123 1.241 . S
C120 O113 1.247 . S
C120 O114 1.261 . S
C121 O116 1.259 . S
C121 O118 1.235 . S
O122 Co112 2.021 . S
O122 C119 1.238 . S
O123 Co117 2.052 . S
O123 C119 1.241 . S
O124 Co112 2.137 . S
O124 C115 1.247 . S
O125 Co112 2.244 . S
O125 C115 1.272 . S
O125 Co117 2.135 . S
Co126 O127 2.216 . S
Co126 O128 2.091 . S
Co126 O130 2.004 . S
Co126 O136 2.021 . S
Co126 O138 2.137 1_556 S
Co126 O139 2.244 . S
O127 Co126 2.216 . S
O127 C134 1.247 . S
O128 Co126 2.091 . S
O128 C134 1.261 . S
C129 O138 1.247 . S
C129 O139 1.272 1_554 S
O130 Co126 2.004 . S
O130 C135 1.259 . S
Co131 O132 2.061 . S
Co131 O137 2.052 . S
Co131 O139 2.135 . S
O132 Co131 2.061 . S
O132 C135 1.235 . S
C133 O136 1.238 . S
C133 O137 1.241 . S
C134 O127 1.247 . S
C134 O128 1.261 . S
C135 O130 1.259 . S
C135 O132 1.235 . S
O136 Co126 2.021 . S
O136 C133 1.238 . S
O137 Co131 2.052 . S
O137 C133 1.241 . S
O138 Co126 2.137 1_554 S
O138 C129 1.247 . S
O139 Co126 2.244 . S
O139 C129 1.272 1_556 S
O139 Co131 2.135 . S
Co140 O141 2.216 . S
Co140 O142 2.091 . S
Co140 O144 2.004 . S
Co140 O150 2.021 1_554 S
Co140 O152 2.137 . S
Co140 O153 2.244 . S
O141 Co140 2.216 . S
O141 C148 1.247 . S
O142 Co140 2.091 . S
O142 C148 1.261 . S
C143 O152 1.247 . S
C143 O153 1.272 . S
O144 Co140 2.004 . S
O144 C149 1.259 . S
Co145 O146 2.061 . S
Co145 O151 2.052 1_554 S
Co145 O153 2.135 . S
O146 Co145 2.061 . S
O146 C149 1.235 . S
C147 O150 1.238 . S
C147 O151 1.241 . S
C148 O141 1.247 . S
C148 O142 1.261 . S
C149 O144 1.259 . S
C149 O146 1.235 . S
O150 Co140 2.021 1_556 S
O150 C147 1.238 . S
O151 Co145 2.052 1_556 S
O151 C147 1.241 . S
O152 Co140 2.137 . S
O152 C143 1.247 . S
O153 Co140 2.244 . S
O153 C143 1.272 . S
O153 Co145 2.135 . S
Co154 O155 2.216 . S
Co154 O156 2.091 . S
Co154 O158 2.004 . S
Co154 O164 2.021 . S
Co154 O166 2.137 . S
Co154 O167 2.244 . S
O155 Co154 2.216 . S
O155 C162 1.247 . S
O156 Co154 2.091 . S
O156 C162 1.261 . S
C157 O166 1.247 . S
C157 O167 1.272 . S
O158 Co154 2.004 . S
O158 C163 1.259 . S
Co159 O160 2.061 . S
Co159 O165 2.052 . S
Co159 O167 2.135 . S
O160 Co159 2.061 . S
O160 C163 1.235 . S
C161 O164 1.238 . S
C161 O165 1.241 . S
C162 O155 1.247 . S
C162 O156 1.261 . S
C163 O158 1.259 . S
C163 O160 1.235 . S
O164 Co154 2.021 . S
O164 C161 1.238 . S
O165 Co159 2.052 . S
O165 C161 1.241 . S
O166 Co154 2.137 . S
O166 C157 1.247 . S
O167 Co154 2.244 . S
O167 C157 1.272 . S
O167 Co159 2.135 . S
C9 C93 0.848 . S
C23 C107 0.848 . S
C121 C37 0.848 . S
C51 C135 0.848 . S
C65 C149 0.848 . S
C163 C79 0.848 . S
C119 C7 2.818 . S
C21 C133 2.818 . S
C147 C35 2.818 . S
C161 C49 2.818 . S
C63 C91 2.818 . S
C77 C105 2.818 . S
C162 C8 1.397 1_655 S
C92 C22 1.397 1_565 S
C36 C106 1.397 . S
C120 C50 1.397 1_455 S
C134 C64 1.397 1_546 S
C148 C78 1.397 . S
C3 C143 1.824 . S
C157 C17 1.824 . S
C31 C87 1.824 . S
C45 C101 1.824 . S
C59 C115 1.824 . S
C73 C129 1.824 . S
