# Generated by pormake.
# Topology rob, (6)-cn, num edge types: 1
# Building blocks:
#     Node 0, Type 0, BuildingBlock: MIFKUJ_clean_sbu_0, # of connection points: 6
#     Node 1, Type 0, BuildingBlock: MIFKUJ_clean_sbu_0, # of connection points: 6
#     Node 2, Type 0, BuildingBlock: MIFKUJ_clean_sbu_0, # of connection points: 6
#     Node 3, Type 0, BuildingBlock: MIFKUJ_clean_sbu_0, # of connection points: 6
#     Edge 4, Type (0, 0), None
#     Edge 5, Type (0, 0), None
#     Edge 6, Type (0, 0), None
#     Edge 7, Type (0, 0), None
#     Edge 8, Type (0, 0), None
#     Edge 9, Type (0, 0), None
#     Edge 10, Type (0, 0), None
#     Edge 11, Type (0, 0), None
#     Edge 12, Type (0, 0), None
#     Edge 13, Type (0, 0), None
#     Edge 14, Type (0, 0), None
#     Edge 15, Type (0, 0), None
# Relax obj value: 0.097
# Max RMSD: 0.239
# Mean RMSD: 0.239
data_MOF--net-rob--node1-MIFKUJ_clean_sbu_0--edge1-none
_symmetry_space_group_name_H-M    P1
_symmetry_Int_Tables_number       1
_symmetry_cell_setting            triclinic
loop_
_symmetry_equiv_pos_as_xyz
'x, y, z'
_cell_length_a     8.9670908
_cell_length_b     8.7875945
_cell_length_c     15.553315
_cell_angle_alpha  90.012216
_cell_angle_beta   81.685503
_cell_angle_gamma 89.987541
loop_
_atom_site_label
_atom_site_type_symbol
_atom_site_fract_x
_atom_site_fract_y
_atom_site_fract_z
_atom_type_partial_charge
Zn0 Zn 0.15795 0.23735 0.95202 0.0
Zn1 Zn 0.25193 0.08987 0.12115 0.0
C2 C 0.37478 0.11921 0.80378 0.0
O3 O 0.28318 0.17222 0.75261 0.0
C4 C 0.03512 0.20804 0.26939 0.0
O5 O 0.12675 0.1551 0.32055 0.0
O6 O 0.04229 0.31269 0.85773 0.0
O7 O -0.00289 0.10829 1.02565 0.0
O8 O 0.14299 -0.07564 0.06098 0.0
C9 C -0.00972 0.19375 0.82599 0.0
O10 O 0.02012 0.06033 0.85733 0.0
O11 O 0.33573 0.11904 0.88614 0.0
C12 C 0.41967 0.13344 0.24717 0.0
O13 O 0.38984 0.26686 0.21584 0.0
O14 O 0.36758 0.01452 0.21545 0.0
O15 O 0.41278 0.21893 0.04752 0.0
O16 O 0.26689 0.40286 1.01219 0.0
O17 O 0.07415 0.20818 0.18703 0.0
C18 C 0.01713 -0.03183 0.04001 0.0
C19 C 0.39276 0.35905 1.03316 0.0
Zn20 Zn 0.65795 0.73734 0.95202 0.0
Zn21 Zn 0.75193 0.58987 0.12116 0.0
C22 C 0.87478 0.61911 0.80378 0.0
O23 O 0.78311 0.67188 0.7526 0.0
C24 C 0.53512 0.70814 0.26938 0.0
O25 O 0.62682 0.65543 0.32057 0.0
O26 O 0.54231 0.81268 0.85772 0.0
O27 O 0.49712 0.60828 1.02565 0.0
O28 O 0.643 0.42436 0.06098 0.0
C29 C 0.49025 0.69375 0.82599 0.0
O30 O 0.52004 0.56033 0.85734 0.0
O31 O 0.83575 0.61905 0.88614 0.0
C32 C 0.9197 0.63344 0.24717 0.0
O33 O 0.88992 0.76687 0.21582 0.0
O34 O 0.86756 0.51453 0.21546 0.0
O35 O 0.91277 0.71893 0.04752 0.0
O36 O 0.76688 0.90286 1.01219 0.0
O37 O 0.57413 0.70817 0.18702 0.0
C38 C 0.51714 0.46816 0.04002 0.0
C39 C 0.89275 0.85906 1.03315 0.0
Zn40 Zn 0.25163 0.73727 0.6214 0.0
Zn41 Zn 0.15829 0.58995 0.45178 0.0
C42 C 0.03478 0.61742 0.76938 0.0
O43 O 0.12756 0.66622 0.821 0.0
C44 C 0.37512 0.70981 0.3038 0.0
O45 O 0.28232 0.66102 0.25219 0.0
O46 O 0.36679 0.8126 0.71595 0.0
O47 O 0.41261 0.60825 0.54771 0.0
O48 O 0.26701 0.42438 0.51203 0.0
C49 C 0.41964 0.69378 0.74737 0.0
O50 O 0.39073 0.56037 0.71568 0.0
O51 O 0.07348 0.61933 0.68701 0.0
C52 C -0.00978 0.63341 0.32583 0.0
O53 O 0.01913 0.76683 0.3575 0.0
O54 O 0.04313 0.51461 0.35722 0.0
O55 O -0.00269 0.71897 0.52547 0.0
O56 O 0.14291 0.90284 0.56115 0.0
O57 O 0.33643 0.70789 0.38617 0.0
C58 C 0.39274 0.46816 0.53317 0.0
C59 C 0.01718 0.85906 0.54 0.0
Zn60 Zn 0.75163 0.23726 0.6214 0.0
Zn61 Zn 0.65829 0.08995 0.45178 0.0
C62 C 0.53477 0.11733 0.76938 0.0
O63 O 0.62763 0.16589 0.82101 0.0
C64 C 0.87513 0.2099 0.3038 0.0
O65 O 0.78226 0.16134 0.25218 0.0
O66 O 0.86678 0.31258 0.71596 0.0
O67 O 0.9126 0.10824 0.54771 0.0
O68 O 0.767 -0.07563 0.51203 0.0
C69 C 0.91967 0.19378 0.74736 0.0
O70 O 0.8908 0.06036 0.71566 0.0
O71 O 0.57346 0.11935 0.687 0.0
C72 C 0.49019 0.13341 0.32583 0.0
O73 O 0.51906 0.26684 0.35752 0.0
O74 O 0.54315 0.01463 0.35721 0.0
O75 O 0.49732 0.21898 0.52547 0.0
O76 O 0.64292 0.40285 0.56115 0.0
O77 O 0.83645 0.20787 0.38618 0.0
C78 C 0.89273 -0.03185 0.53317 0.0
C79 C 0.51719 0.35907 0.54001 0.0
loop_
_geom_bond_atom_site_label_1
_geom_bond_atom_site_label_2
_geom_bond_distance
_geom_bond_site_symmetry_2
_ccdc_geom_bond_type
Zn0 O6 1.969 . S
Zn0 O7 1.965 . S
Zn0 O11 2.024 . S
Zn0 O16 1.969 . S
Zn1 O8 1.969 . S
Zn1 O14 1.969 . S
Zn1 O15 1.965 . S
Zn1 O17 2.024 . S
C2 O3 1.229 . S
C2 O11 1.058 . S
O3 C2 1.229 . S
C4 O5 1.229 . S
C4 O17 1.058 . S
O5 C4 1.229 . S
O6 Zn0 1.969 . S
O6 C9 1.267 . S
O7 Zn0 1.965 . S
O7 C18 1.260 1_556 S
O8 Zn1 1.969 . S
O8 C18 1.258 . S
C9 O6 1.267 . S
C9 O10 1.228 . S
O10 C9 1.228 . S
O11 Zn0 2.024 . S
O11 C2 1.058 . S
C12 O13 1.228 . S
C12 O14 1.267 . S
O13 C12 1.228 . S
O14 Zn1 1.969 . S
O14 C12 1.267 . S
O15 Zn1 1.965 . S
O15 C19 1.260 1_554 S
O16 Zn0 1.969 . S
O16 C19 1.258 . S
O17 Zn1 2.024 . S
O17 C4 1.058 . S
C18 O7 1.260 1_554 S
C18 O8 1.258 . S
C19 O15 1.260 1_556 S
C19 O16 1.258 . S
Zn20 O26 1.969 . S
Zn20 O27 1.965 . S
Zn20 O31 2.024 . S
Zn20 O36 1.969 . S
Zn21 O28 1.969 . S
Zn21 O34 1.969 . S
Zn21 O35 1.965 . S
Zn21 O37 2.024 . S
C22 O23 1.229 . S
C22 O31 1.058 . S
O23 C22 1.229 . S
C24 O25 1.229 . S
C24 O37 1.058 . S
O25 C24 1.229 . S
O26 Zn20 1.969 . S
O26 C29 1.267 . S
O27 Zn20 1.965 . S
O27 C38 1.260 1_556 S
O28 Zn21 1.969 . S
O28 C38 1.258 . S
C29 O26 1.267 . S
C29 O30 1.228 . S
O30 C29 1.228 . S
O31 Zn20 2.024 . S
O31 C22 1.058 . S
C32 O33 1.228 . S
C32 O34 1.267 . S
O33 C32 1.228 . S
O34 Zn21 1.969 . S
O34 C32 1.267 . S
O35 Zn21 1.965 . S
O35 C39 1.260 1_554 S
O36 Zn20 1.969 . S
O36 C39 1.258 . S
O37 Zn21 2.024 . S
O37 C24 1.058 . S
C38 O27 1.260 1_554 S
C38 O28 1.258 . S
C39 O35 1.260 1_556 S
C39 O36 1.258 . S
Zn40 O46 1.969 . S
Zn40 O47 1.965 . S
Zn40 O51 2.024 . S
Zn40 O56 1.969 . S
Zn41 O48 1.969 . S
Zn41 O54 1.969 . S
Zn41 O55 1.965 . S
Zn41 O57 2.024 . S
C42 O43 1.229 . S
C42 O51 1.058 . S
O43 C42 1.229 . S
C44 O45 1.229 . S
C44 O57 1.058 . S
O45 C44 1.229 . S
O46 Zn40 1.969 . S
O46 C49 1.267 . S
O47 Zn40 1.965 . S
O47 C58 1.260 . S
O48 Zn41 1.969 . S
O48 C58 1.258 . S
C49 O46 1.267 . S
C49 O50 1.228 . S
O50 C49 1.228 . S
O51 Zn40 2.024 . S
O51 C42 1.058 . S
C52 O53 1.228 . S
C52 O54 1.267 . S
O53 C52 1.228 . S
O54 Zn41 1.969 . S
O54 C52 1.267 . S
O55 Zn41 1.965 . S
O55 C59 1.260 . S
O56 Zn40 1.969 . S
O56 C59 1.258 . S
O57 Zn41 2.024 . S
O57 C44 1.058 . S
C58 O47 1.260 . S
C58 O48 1.258 . S
C59 O55 1.260 . S
C59 O56 1.258 . S
Zn60 O66 1.969 . S
Zn60 O67 1.965 . S
Zn60 O71 2.024 . S
Zn60 O76 1.969 . S
Zn61 O68 1.969 . S
Zn61 O74 1.969 . S
Zn61 O75 1.965 . S
Zn61 O77 2.024 . S
C62 O63 1.229 . S
C62 O71 1.058 . S
O63 C62 1.229 . S
C64 O65 1.229 . S
C64 O77 1.058 . S
O65 C64 1.229 . S
O66 Zn60 1.969 . S
O66 C69 1.267 . S
O67 Zn60 1.965 . S
O67 C78 1.260 . S
O68 Zn61 1.969 . S
O68 C78 1.258 . S
C69 O66 1.267 . S
C69 O70 1.228 . S
O70 C69 1.228 . S
O71 Zn60 2.024 . S
O71 C62 1.058 . S
C72 O73 1.228 . S
C72 O74 1.267 . S
O73 C72 1.228 . S
O74 Zn61 1.969 . S
O74 C72 1.267 . S
O75 Zn61 1.965 . S
O75 C79 1.260 . S
O76 Zn60 1.969 . S
O76 C79 1.258 . S
O77 Zn61 2.024 . S
O77 C64 1.058 . S
C78 O67 1.260 . S
C78 O68 1.258 . S
C79 O75 1.260 . S
C79 O76 1.258 . S
C38 C19 1.619 1_554 S
C58 C79 1.619 . S
C18 C39 1.619 1_444 S
C78 C59 1.619 1_645 S
C72 C12 1.068 . S
C24 C44 0.856 . S
C29 C49 1.068 . S
C62 C2 0.857 . S
C32 C52 1.068 1_655 S
C64 C4 0.856 1_655 S
C69 C9 1.068 1_655 S
C42 C22 0.857 1_455 S
