# Generated by pormake.
# Topology cds, (4)-cn, num edge types: 1
# Building blocks:
#     Node 0, Type 0, BuildingBlock: ESEHIV_clean_sbu_0, # of connection points: 4
#     Node 1, Type 0, BuildingBlock: ESEHIV_clean_sbu_0, # of connection points: 4
#     Edge 2, Type (0, 0), BuildingBlock: FUNLAD_clean_linker_0, # of connection points: 2
#     Edge 3, Type (0, 0), BuildingBlock: FUNLAD_clean_linker_0, # of connection points: 2
#     Edge 4, Type (0, 0), BuildingBlock: FUNLAD_clean_linker_0, # of connection points: 2
#     Edge 5, Type (0, 0), BuildingBlock: FUNLAD_clean_linker_0, # of connection points: 2
# Relax obj value: 0.000
# Max RMSD: 0.099
# Mean RMSD: 0.094
data_MOF--net-cds--node1-ESEHIV_clean_sbu_0--edge1-FUNLAD_clean_linker_0
_symmetry_space_group_name_H-M    P1
_symmetry_Int_Tables_number       1
_symmetry_cell_setting            triclinic
loop_
_symmetry_equiv_pos_as_xyz
'x, y, z'
_cell_length_a     17.119299
_cell_length_b     19.571502
_cell_length_c     36.443016
_cell_angle_alpha  103.41523
_cell_angle_beta   103.16962
_cell_angle_gamma 89.027768
loop_
_atom_site_label
_atom_site_type_symbol
_atom_site_fract_x
_atom_site_fract_y
_atom_site_fract_z
_atom_type_partial_charge
Cu0 Cu 0.17978 0.08381 0.06631 0.0
N1 N 0.17074 1.02454 0.01657 0.0
N2 N 0.14568 0.98679 0.95187 0.0
C3 C 0.14603 0.04207 0.98212 0.0
C4 C 0.17036 0.9323 0.96793 0.0
C5 C 0.18566 0.95564 1.00766 0.0
O6 O 0.27998 0.14058 0.07955 0.0
C7 C 1.0156 0.09562 0.05197 0.0
O8 O 0.02208 0.02802 0.03829 0.0
H9 H 0.12702 0.09398 0.97928 0.0
H10 H 0.20552 0.92403 0.02844 0.0
N11 N 0.19129 0.03092 0.10393 0.0
N12 N 0.18118 0.99557 0.15692 0.0
C13 C 0.15402 0.03953 0.13352 0.0
C14 C 0.24469 0.98085 0.10931 0.0
C15 C 0.23793 0.95837 0.14162 0.0
C16 C 0.30773 0.16567 0.05558 0.0
O17 O 0.26157 0.16457 0.02131 0.0
H18 H 0.10848 0.07762 0.13798 0.0
H19 H 0.28745 0.96344 0.09168 0.0
O20 O 0.07965 0.1342 0.06657 0.0
H21 H 0.17747 0.87935 0.95213 0.0
H22 H 0.27392 0.91941 0.15373 0.0
Cu23 Cu 0.92456 1.00832 0.52843 0.0
N24 N 0.86169 0.92483 0.51243 0.0
N25 N 0.82376 0.8133 0.50616 0.0
C26 C 0.88269 0.86353 0.522 0.0
C27 C 0.76339 0.84418 0.48583 0.0
C28 C 0.78678 0.91312 0.48995 0.0
O29 O 0.98423 1.01492 0.58192 0.0
C30 C 0.95282 0.99898 0.45578 0.0
O31 O 0.87442 0.98962 0.44733 0.0
H32 H 0.94016 0.856 0.54018 0.0
H33 H 0.75147 0.95212 0.47762 0.0
N34 N 0.85903 0.08544 0.528 0.0
N35 N 0.81821 0.19258 0.52307 0.0
C36 C 0.87619 0.14566 0.51913 0.0
C37 C 0.78756 0.09432 0.53765 0.0
C38 C 0.76235 0.16055 0.53479 0.0
C39 C 0.94259 1.00584 0.60547 0.0
O40 O 0.86492 0.99321 0.59228 0.0
H41 H 0.93104 0.1554 0.51082 0.0
H42 H 0.75614 0.05553 0.54634 0.0
O43 O 0.99077 1.00855 0.49115 0.0
H44 H 0.70583 0.81919 0.46988 0.0
H45 H 0.70703 0.18319 0.54061 0.0
C46 C 0.13737 0.0502 0.21712 0.0
C47 C 0.15722 0.99023 0.19167 0.0
C48 C 0.11592 0.04464 0.25129 0.0
C49 C 0.11273 0.97873 0.26031 0.0
C50 C 0.13159 0.91889 0.23458 0.0
C51 C 0.15454 0.92465 0.20093 0.0
C52 C 0.08425 0.96963 0.29462 0.0
C53 C 0.09603 1.01825 0.32854 0.0
C54 C 0.06211 1.00911 0.36143 0.0
C55 C 0.10204 0.03986 0.3999 0.0
C56 C 0.06862 0.03458 0.43101 0.0
C57 C 0.99362 0.99989 0.42406 0.0
H58 H 0.95414 0.95056 0.32554 0.0
C59 C 0.95407 0.96901 0.38559 0.0
C60 C 0.98783 0.97334 0.35472 0.0
H61 H 0.89607 0.94204 0.37917 0.0
H62 H 0.13932 0.10143 0.21079 0.0
H63 H 0.09992 0.09163 0.27002 0.0
H64 H 0.12866 0.86739 0.24055 0.0
H65 H 0.16879 0.87751 0.1817 0.0
H66 H 0.05442 0.9196 0.29204 0.0
H67 H 0.13277 0.06537 0.33271 0.0
H68 H 0.15902 0.06828 0.40588 0.0
H69 H 0.10017 0.05945 0.4603 0.0
C70 C 0.13402 0.04517 0.89727 0.0
C71 C 0.12278 0.98534 0.91099 0.0
C72 C 0.11222 0.04308 0.85746 0.0
C73 C 0.07812 0.9811 0.83057 0.0
C74 C 0.06646 0.92173 0.84444 0.0
C75 C 0.08901 0.92359 0.88402 0.0
C76 C 0.04887 0.97715 0.7883 0.0
C77 C 0.07667 1.01862 0.76879 0.0
C78 C 0.04273 1.01413 0.72669 0.0
C79 C 0.09103 0.03249 0.70368 0.0
C80 C 0.05956 0.02924 0.66413 0.0
C81 C 0.97869 1.0086 0.64699 0.0
H82 H 0.92168 0.98186 0.72631 0.0
C83 C 0.93041 0.99122 0.67025 0.0
C84 C 0.96178 0.99407 0.70946 0.0
H85 H 0.86768 0.97557 0.65826 0.0
H86 H 0.16024 0.09345 0.91728 0.0
H87 H 0.12044 0.09045 0.84805 0.0
H88 H 0.03947 0.87352 0.82454 0.0
H89 H 0.07849 0.87689 0.89359 0.0
H90 H 1.00375 0.93611 0.77231 0.0
H91 H 0.12714 0.05521 0.78354 0.0
H92 H 0.15339 0.04891 0.71627 0.0
H93 H 0.09826 0.0434 0.64712 0.0
C94 C 0.91538 0.1763 0.07956 0.0
C95 C 0.93405 0.12371 0.04963 0.0
C96 C 0.83509 0.19455 0.07864 0.0
C97 C 0.7726 0.16125 0.04737 0.0
C98 C 0.79246 0.11131 0.01679 0.0
C99 C 0.87176 0.09214 0.01813 0.0
C100 C 0.68597 0.176 0.04504 0.0
C101 C 0.65292 0.19462 0.07607 0.0
C102 C 0.564 0.19638 0.07234 0.0
C103 C 0.53168 0.18131 0.10189 0.0
C104 C 0.44835 0.17469 0.09741 0.0
C105 C 0.39517 0.18371 0.06336 0.0
H106 H 0.5329 0.22419 0.01656 0.0
C107 C 0.42747 0.20337 0.03492 0.0
C108 C 0.5107 0.20978 0.03936 0.0
H109 H 0.38853 0.2116 1.00851 0.0
H110 H 0.96224 0.20123 0.10428 0.0
H111 H 0.82216 0.23437 0.10234 0.0
H112 H 0.74598 0.08519 0.99219 0.0
H113 H 0.88426 0.05163 0.99455 0.0
H114 H 0.64661 0.16305 0.01625 0.0
H115 H 0.69119 0.20117 0.10496 0.0
H116 H 0.57104 0.17159 0.12785 0.0
H117 H 0.42581 0.15986 0.12004 0.0
C118 C 0.78269 0.6876 0.48092 0.0
C119 C 0.8242 0.74226 0.51093 0.0
C120 C 0.78252 0.61872 0.48567 0.0
C121 C 0.82347 0.60324 0.52074 0.0
C122 C 0.86404 0.65805 0.55087 0.0
C123 C 0.86514 0.72671 0.54591 0.0
C124 C 0.82222 0.53122 0.52735 0.0
C125 C 0.81781 0.47266 0.49881 0.0
C126 C 0.81757 0.40082 0.50574 0.0
C127 C 0.85175 0.34653 0.48262 0.0
C128 C 0.85243 0.27834 0.48844 0.0
C129 C 0.81731 0.26276 0.51699 0.0
H130 H 0.75315 0.42536 0.55182 0.0
C131 C 0.78157 0.31678 0.53959 0.0
C132 C 0.7819 0.38517 0.53415 0.0
H133 H 0.75427 0.30633 0.56185 0.0
H134 H 0.75077 0.69809 0.45364 0.0
H135 H 0.74893 0.5781 0.46216 0.0
H136 H 0.89532 0.64766 0.5783 0.0
H137 H 0.89663 0.76794 0.56973 0.0
H138 H 0.82945 0.52652 0.55706 0.0
H139 H 0.81896 0.47726 0.46979 0.0
H140 H 0.8788 0.35704 0.46026 0.0
H141 H 0.87943 0.23755 0.47026 0.0
loop_
_geom_bond_atom_site_label_1
_geom_bond_atom_site_label_2
_geom_bond_distance
_geom_bond_site_symmetry_2
_ccdc_geom_bond_type
Cu0 N1 1.999 1_454 S
Cu0 O6 1.974 . S
Cu0 N11 1.985 . S
Cu0 O20 1.959 1_455 S
N1 Cu0 1.999 1_656 S
N1 C3 1.263 1_655 S
N1 C5 1.389 . S
N2 C3 1.358 1_655 S
N2 C4 1.400 . S
C3 N1 1.263 1_455 S
C3 N2 1.358 1_455 S
C3 H9 0.930 1_545 S
C4 N2 1.400 . S
C4 C5 1.351 . S
C4 H21 0.930 . S
C5 N1 1.389 . S
C5 C4 1.351 . S
C5 H10 0.930 . S
O6 Cu0 1.974 . S
O6 C16 1.282 1_545 S
C7 O8 1.261 . S
C7 O20 1.251 1_565 S
O8 C7 1.261 . S
H9 C3 0.930 1_565 S
H10 C5 0.930 . S
N11 Cu0 1.985 . S
N11 C13 1.335 1_455 S
N11 C14 1.390 1_545 S
N12 C13 1.345 1_455 S
N12 C15 1.336 1_545 S
C13 N11 1.335 1_655 S
C13 N12 1.345 1_655 S
C13 H18 0.930 . S
C14 N11 1.390 1_565 S
C14 C15 1.346 . S
C14 H19 0.930 . S
C15 N12 1.336 1_565 S
C15 C14 1.346 . S
C15 H22 0.929 . S
C16 O6 1.282 1_565 S
C16 O17 1.216 . S
O17 C16 1.216 . S
H18 C13 0.930 . S
H19 C14 0.930 . S
O20 Cu0 1.959 1_655 S
O20 C7 1.251 1_545 S
H21 C4 0.930 . S
H22 C15 0.929 . S
Cu23 N24 1.999 1_545 S
Cu23 O29 1.974 . S
Cu23 N34 1.985 . S
Cu23 O43 1.959 . S
N24 Cu23 1.999 1_565 S
N24 C26 1.263 . S
N24 C28 1.389 . S
N25 C26 1.358 . S
N25 C27 1.400 . S
C26 N24 1.263 . S
C26 N25 1.358 . S
C26 H32 0.930 1_455 S
C27 N25 1.400 . S
C27 C28 1.351 . S
C27 H44 0.930 . S
C28 N24 1.389 . S
C28 C27 1.351 . S
C28 H33 0.930 . S
O29 Cu23 1.974 . S
O29 C39 1.282 1_455 S
C30 O31 1.261 1_545 S
C30 O43 1.251 1_655 S
O31 C30 1.261 1_565 S
H32 C26 0.930 1_655 S
H33 C28 0.930 . S
N34 Cu23 1.985 . S
N34 C36 1.335 . S
N34 C37 1.390 1_455 S
N35 C36 1.345 . S
N35 C38 1.336 1_455 S
C36 N34 1.335 . S
C36 N35 1.345 . S
C36 H41 0.930 . S
C37 N34 1.390 1_655 S
C37 C38 1.346 . S
C37 H42 0.930 . S
C38 N35 1.336 1_655 S
C38 C37 1.346 . S
C38 H45 0.929 . S
C39 O29 1.282 1_655 S
C39 O40 1.216 . S
O40 C39 1.216 . S
H41 C36 0.930 . S
H42 C37 0.930 . S
O43 Cu23 1.959 . S
O43 C30 1.251 1_455 S
H44 C27 0.930 . S
H45 C38 0.929 . S
C46 C47 1.386 . S
C46 C48 1.383 1_455 S
C46 H62 0.951 . S
C47 C46 1.386 . S
C47 C51 1.383 1_445 S
C48 C46 1.383 1_655 S
C48 C49 1.402 1_545 S
C48 H63 0.951 . S
C49 C48 1.402 1_565 S
C49 C50 1.375 . S
C49 C52 1.481 . S
C50 C49 1.375 . S
C50 C51 1.367 . S
C50 H64 0.951 . S
C51 C47 1.383 1_665 S
C51 C50 1.367 . S
C51 H65 0.950 . S
C52 C49 1.481 . S
C52 C53 1.297 1_565 S
C52 H66 0.950 . S
C53 C52 1.297 1_545 S
C53 C54 1.479 . S
C53 H67 0.950 . S
C54 C53 1.479 . S
C54 C55 1.375 . S
C54 C60 1.404 1_545 S
C55 C54 1.375 . S
C55 C56 1.369 . S
C55 H68 0.950 . S
C56 C55 1.369 . S
C56 C57 1.392 . S
C56 H69 0.951 . S
C57 C56 1.392 . S
C57 C59 1.384 1_545 S
H58 C60 0.949 . S
C59 C57 1.384 1_565 S
C59 C60 1.385 . S
C59 H61 0.950 . S
C60 C54 1.404 1_565 S
C60 H58 0.949 . S
C60 C59 1.385 . S
H61 C59 0.950 . S
H62 C46 0.951 . S
H63 C48 0.951 . S
H64 C50 0.951 . S
H65 C51 0.950 . S
H66 C52 0.950 . S
H67 C53 0.950 . S
H68 C55 0.950 . S
H69 C56 0.951 . S
C70 C71 1.386 . S
C70 C72 1.383 . S
C70 H86 0.951 . S
C71 C70 1.386 . S
C71 C75 1.383 1_445 S
C72 C70 1.383 . S
C72 C73 1.398 1_445 S
C72 H87 0.951 . S
C73 C72 1.398 1_665 S
C73 C74 1.381 . S
C73 C76 1.479 . S
C74 C73 1.381 . S
C74 C75 1.367 . S
C74 H88 0.951 . S
C75 C71 1.383 1_665 S
C75 C74 1.367 . S
C75 H89 0.950 . S
C76 C73 1.479 . S
C76 C77 1.297 1_665 S
C76 H90 0.950 . S
C77 C76 1.297 1_445 S
C77 C78 1.479 1_545 S
C77 H91 0.950 . S
C78 C77 1.479 1_565 S
C78 C79 1.376 1_565 S
C78 C84 1.404 1_455 S
C79 C78 1.376 1_545 S
C79 C80 1.369 . S
C79 H92 0.950 . S
C80 C79 1.369 . S
C80 C81 1.392 1_455 S
C80 H93 0.951 . S
C81 C80 1.392 1_655 S
C81 C83 1.384 1_545 S
H82 C84 0.949 . S
C83 C81 1.384 1_565 S
C83 C84 1.385 . S
C83 H85 0.950 . S
C84 C78 1.404 1_655 S
C84 H82 0.949 . S
C84 C83 1.385 . S
H85 C83 0.950 . S
H86 C70 0.951 . S
H87 C72 0.951 . S
H88 C74 0.951 . S
H89 C75 0.950 . S
H90 C76 0.950 . S
H91 C77 0.950 . S
H92 C79 0.950 . S
H93 C80 0.951 . S
C94 C95 1.386 1_545 S
C94 C96 1.383 . S
C94 H110 0.951 . S
C95 C94 1.386 1_565 S
C95 C99 1.383 1_554 S
C96 C94 1.383 . S
C96 C97 1.402 1_545 S
C96 H111 0.951 . S
C97 C96 1.402 1_565 S
C97 C98 1.375 1_554 S
C97 C100 1.479 . S
C98 C97 1.375 1_556 S
C98 C99 1.367 . S
C98 H112 0.951 . S
C99 C95 1.383 1_556 S
C99 C98 1.367 . S
C99 H113 0.950 . S
C100 C97 1.479 . S
C100 C101 1.303 1_565 S
C100 H114 0.946 1_554 S
C101 C100 1.303 1_545 S
C101 C102 1.479 . S
C101 H115 0.950 . S
C102 C101 1.479 . S
C102 C103 1.375 . S
C102 C108 1.404 1_544 S
C103 C102 1.375 . S
C103 C104 1.369 . S
C103 H116 0.950 . S
C104 C103 1.369 . S
C104 C105 1.392 1_545 S
C104 H117 0.951 . S
C105 C104 1.392 1_565 S
C105 C107 1.384 1_554 S
H106 C108 0.949 . S
C107 C105 1.384 1_556 S
C107 C108 1.385 . S
C107 H109 0.950 . S
C108 C102 1.404 1_566 S
C108 H106 0.949 . S
C108 C107 1.385 . S
H109 C107 0.950 . S
H110 C94 0.951 . S
H111 C96 0.951 . S
H112 C98 0.951 . S
H113 C99 0.950 . S
H114 C100 0.946 1_556 S
H115 C101 0.950 . S
H116 C103 0.950 . S
H117 C104 0.951 . S
C118 C119 1.386 . S
C118 C120 1.383 . S
C118 H134 0.951 . S
C119 C118 1.386 . S
C119 C123 1.383 1_455 S
C120 C118 1.383 . S
C120 C121 1.402 . S
C120 H135 0.951 . S
C121 C120 1.402 . S
C121 C122 1.375 1_455 S
C121 C124 1.481 . S
C122 C121 1.375 1_655 S
C122 C123 1.367 . S
C122 H136 0.951 . S
C123 C119 1.383 1_655 S
C123 C122 1.367 . S
C123 H137 0.950 . S
C124 C121 1.481 . S
C124 C125 1.297 . S
C124 H138 0.950 1_455 S
C125 C124 1.297 . S
C125 C126 1.479 . S
C125 H139 0.950 . S
C126 C125 1.479 . S
C126 C127 1.375 . S
C126 C132 1.404 1_455 S
C127 C126 1.375 . S
C127 C128 1.369 . S
C127 H140 0.950 . S
C128 C127 1.369 . S
C128 C129 1.392 . S
C128 H141 0.951 . S
C129 C128 1.392 . S
C129 C131 1.384 1_455 S
H130 C132 0.949 . S
C131 C129 1.384 1_655 S
C131 C132 1.385 . S
C131 H133 0.950 . S
C132 C126 1.404 1_655 S
C132 H130 0.949 . S
C132 C131 1.385 . S
H133 C131 0.950 . S
H134 C118 0.951 . S
H135 C120 0.951 . S
H136 C122 0.951 . S
H137 C123 0.950 . S
H138 C124 0.950 1_655 S
H139 C125 0.950 . S
H140 C127 0.950 . S
H141 C128 0.951 . S
C47 N12 1.470 . S
C57 C30 1.489 . S
C71 N2 1.469 1_455 S
C81 C39 1.495 . S
C95 C7 1.476 . S
C105 C16 1.484 . S
C119 N25 1.474 . S
C129 N35 1.427 . S
