# Generated by pormake.
# Topology vbn, (6)-cn, num edge types: 1
# Building blocks:
#     Node 0, Type 0, BuildingBlock: IZENUY_clean_sbu_0, # of connection points: 6
#     Node 1, Type 0, BuildingBlock: IZENUY_clean_sbu_0, # of connection points: 6
#     Node 2, Type 0, BuildingBlock: IZENUY_clean_sbu_0, # of connection points: 6
#     Node 3, Type 0, BuildingBlock: IZENUY_clean_sbu_0, # of connection points: 6
#     Node 4, Type 0, BuildingBlock: IZENUY_clean_sbu_0, # of connection points: 6
#     Node 5, Type 0, BuildingBlock: IZENUY_clean_sbu_0, # of connection points: 6
#     Node 6, Type 0, BuildingBlock: IZENUY_clean_sbu_0, # of connection points: 6
#     Node 7, Type 0, BuildingBlock: IZENUY_clean_sbu_0, # of connection points: 6
#     Edge 8, Type (0, 0), None
#     Edge 9, Type (0, 0), None
#     Edge 10, Type (0, 0), None
#     Edge 11, Type (0, 0), None
#     Edge 12, Type (0, 0), None
#     Edge 13, Type (0, 0), None
#     Edge 14, Type (0, 0), None
#     Edge 15, Type (0, 0), None
#     Edge 16, Type (0, 0), None
#     Edge 17, Type (0, 0), None
#     Edge 18, Type (0, 0), None
#     Edge 19, Type (0, 0), None
#     Edge 20, Type (0, 0), None
#     Edge 21, Type (0, 0), None
#     Edge 22, Type (0, 0), None
#     Edge 23, Type (0, 0), None
#     Edge 24, Type (0, 0), None
#     Edge 25, Type (0, 0), None
#     Edge 26, Type (0, 0), None
#     Edge 27, Type (0, 0), None
#     Edge 28, Type (0, 0), None
#     Edge 29, Type (0, 0), None
#     Edge 30, Type (0, 0), None
#     Edge 31, Type (0, 0), None
# Relax obj value: 0.240
# Max RMSD: 0.243
# Mean RMSD: 0.243
data_MOF--net-vbn--node1-IZENUY_clean_sbu_0--edge1-none
_symmetry_space_group_name_H-M    P1
_symmetry_Int_Tables_number       1
_symmetry_cell_setting            triclinic
loop_
_symmetry_equiv_pos_as_xyz
'x, y, z'
_cell_length_a     12.169686
_cell_length_b     12.734319
_cell_length_c     20.96791
_cell_angle_alpha  90.000018
_cell_angle_beta   90.0
_cell_angle_gamma 90.000494
loop_
_atom_site_label
_atom_site_type_symbol
_atom_site_fract_x
_atom_site_fract_y
_atom_site_fract_z
_atom_type_partial_charge
Fe0 Fe 0.48012 0.4622 0.44635 0.0
Fe1 Fe 0.4062 0.2931 0.53434 0.0
O2 O 0.39449 0.3572 0.46113 0.0
Fe3 Fe 0.28665 0.33172 0.40994 0.0
O4 O 0.22425 0.45729 0.42346 0.0
O5 O 0.37448 0.54105 0.40258 0.0
O6 O 0.41201 0.52163 0.51044 0.0
C7 C 0.46885 0.51045 0.55564 0.0
C8 C 0.48738 0.37393 0.33274 0.0
O9 O 0.47326 0.41449 0.57616 0.0
C10 C 0.32488 0.1387 0.43947 0.0
O11 O 0.60025 0.39518 0.49156 0.0
O12 O 0.53381 0.2395 0.51242 0.0
O13 O 0.37942 0.36937 0.33757 0.0
O14 O 0.54248 0.4036 0.3791 0.0
C15 C 0.19555 0.3102 0.5393 0.0
O16 O 0.34093 0.16666 0.49874 0.0
O17 O 0.33624 0.20393 0.39616 0.0
C18 C 0.61123 0.30241 0.51567 0.0
O19 O 0.28159 0.34458 0.56182 0.0
O20 O 0.18875 0.28996 0.47849 0.0
C21 C 0.27303 0.54203 0.41966 0.0
Fe22 Fe 0.25142 0.25676 0.90994 0.0
Fe23 Fe 0.05795 0.12628 0.94635 0.0
O24 O 0.14358 0.23127 0.96113 0.0
Fe25 Fe 0.13187 0.29537 1.03434 0.0
O26 O 0.25648 0.2439 0.06182 0.0
O27 O 0.34932 0.29851 0.97849 0.0
O28 O 0.31383 0.13119 0.92346 0.0
C29 C 0.26504 0.04645 0.91966 0.0
C30 C 0.21319 0.44977 0.93947 0.0
O31 O 0.16359 0.04743 0.90258 0.0
C32 C 0.92684 0.28607 1.01567 0.0
O33 O 0.15866 0.21911 0.83757 0.0
O34 O 0.99559 0.18487 0.8791 0.0
O35 O 0.19714 0.42182 0.99874 0.0
O36 O 0.20184 0.38455 0.89616 0.0
C37 C 0.06922 0.07802 0.05564 0.0
O38 O 0.93782 0.19329 0.99156 0.0
O39 O 1.00426 0.34897 1.01242 0.0
C40 C 0.05069 0.21455 0.83274 0.0
O41 O 0.12606 0.06684 1.01044 0.0
O42 O 0.06481 0.17399 0.07616 0.0
C43 C 0.34252 0.27827 1.0393 0.0
Fe44 Fe 0.98013 0.12627 0.65714 0.0
Fe45 Fe 0.9062 0.29537 0.56915 0.0
O46 O 0.8945 0.23127 0.64237 0.0
Fe47 Fe 0.78666 0.25676 0.69356 0.0
O48 O 0.72426 0.13119 0.68004 0.0
O49 O 0.87449 0.04743 0.70092 0.0
O50 O 0.91201 0.06685 0.59306 0.0
C51 C 0.96885 0.07802 0.54786 0.0
C52 C 0.9874 0.21454 0.77075 0.0
O53 O 0.97326 0.17399 0.52734 0.0
C54 C 0.82489 0.44977 0.66402 0.0
O55 O 0.10026 0.19329 0.61193 0.0
O56 O 0.03381 0.34899 0.59106 0.0
O57 O 0.87943 0.21912 0.76593 0.0
O58 O 0.0425 0.18486 0.7244 0.0
C59 C 0.69555 0.27826 0.56421 0.0
O60 O 0.84093 0.42181 0.60475 0.0
O61 O 0.83625 0.38455 0.70734 0.0
C62 C 0.11122 0.28607 0.58784 0.0
O63 O 0.78159 0.24388 0.54168 0.0
O64 O 0.68876 0.29851 0.62501 0.0
C65 C 0.77304 0.04645 0.68384 0.0
Fe66 Fe 0.55794 0.4622 0.15714 0.0
Fe67 Fe 0.63187 0.29311 0.06915 0.0
O68 O 0.64357 0.3572 0.14237 0.0
Fe69 Fe 0.75141 0.33172 0.19356 0.0
O70 O 0.81382 0.45729 0.18004 0.0
O71 O 0.66358 0.54105 0.20092 0.0
O72 O 0.62607 0.52163 0.09306 0.0
C73 C 0.56922 0.51045 1.04786 0.0
C74 C 0.55068 0.37394 0.27075 0.0
O75 O 0.56481 0.41449 1.02734 0.0
C76 C 0.71319 0.13871 0.16402 0.0
O77 O 0.43782 0.39518 0.11193 0.0
O78 O 0.50426 0.23949 0.09106 0.0
O79 O 0.65864 0.36936 0.26593 0.0
O80 O 0.49557 0.40362 0.2244 0.0
C81 C 0.84252 0.31021 0.06421 0.0
O82 O 0.69714 0.16667 0.10475 0.0
O83 O 0.70182 0.20392 0.20734 0.0
C84 C 0.42685 0.3024 0.08784 0.0
O85 O 0.75649 0.3446 1.04168 0.0
O86 O 0.84931 0.28997 0.12501 0.0
C87 C 0.76503 0.54203 0.18384 0.0
Fe88 Fe 0.55788 0.62627 0.65717 0.0
Fe89 Fe 0.63171 0.79542 0.56916 0.0
O90 O 0.6435 0.73127 0.64235 0.0
Fe91 Fe 0.75137 0.75676 0.69352 0.0
O92 O 0.81376 0.63119 0.67998 0.0
O93 O 0.66354 0.54745 0.70094 0.0
O94 O 0.62597 0.56677 0.59308 0.0
C95 C 0.56917 0.57809 0.54787 0.0
C96 C 0.55068 0.71458 0.77076 0.0
O97 O 0.56464 0.67404 0.52735 0.0
C98 C 0.71311 0.94977 0.66402 0.0
O99 O 0.43772 0.69327 0.61197 0.0
O100 O 0.5041 0.84898 0.59114 0.0
O101 O 0.65864 0.71911 0.76591 0.0
O102 O 0.49556 0.68491 0.72441 0.0
C103 C 0.84238 0.77832 0.56414 0.0
O104 O 0.697 0.92186 0.60475 0.0
O105 O 0.7018 0.88454 0.70733 0.0
C106 C 0.4267 0.78605 0.58789 0.0
O107 O 0.75631 0.744 0.54162 0.0
O108 O 0.84922 0.79852 0.62495 0.0
C109 C 0.76498 0.54646 0.68384 0.0
Fe110 Fe 0.98019 0.96221 0.15717 0.0
Fe111 Fe 0.90637 0.79306 0.06916 0.0
O112 O 0.89457 0.8572 0.14235 0.0
Fe113 Fe 0.7867 0.83171 0.19352 0.0
O114 O 0.72431 0.95729 0.17998 0.0
O115 O 0.87453 1.04103 0.20094 0.0
O116 O 0.91211 1.02171 0.09308 0.0
C117 C 0.9689 1.01039 1.04787 0.0
C118 C 0.98739 0.87389 0.27076 0.0
O119 O 0.97344 0.91444 1.02735 0.0
C120 C 0.82497 0.6387 0.16402 0.0
O121 O 0.10035 0.89521 0.11197 0.0
O122 O 0.03397 0.7395 0.09114 0.0
O123 O 0.87943 0.86936 0.26591 0.0
O124 O 0.04251 0.90357 0.22441 0.0
C125 C 0.69569 0.81016 0.06414 0.0
O126 O 0.84107 0.66662 0.10475 0.0
O127 O 0.83628 0.70393 0.20733 0.0
C128 C 0.11138 0.80242 0.08789 0.0
O129 O 0.78177 0.84448 1.04162 0.0
O130 O 0.68885 0.78996 0.12495 0.0
C131 C 0.77309 1.04202 0.18384 0.0
Fe132 Fe 0.05787 0.96221 0.44633 0.0
Fe133 Fe 0.13171 0.79306 0.53434 0.0
O134 O 0.14349 0.8572 0.46114 0.0
Fe135 Fe 0.25136 0.83171 0.40997 0.0
O136 O 0.31375 0.95729 0.4235 0.0
O137 O 0.16353 1.04103 0.40256 0.0
O138 O 0.12597 1.0217 0.51042 0.0
C139 C 0.06917 1.01039 0.55563 0.0
C140 C 0.05066 0.8739 0.33275 0.0
O141 O 0.06463 0.91444 0.57615 0.0
C142 C 0.2131 0.6387 0.43948 0.0
O143 O 0.93772 0.89521 0.49152 0.0
O144 O 1.0041 0.73949 0.51237 0.0
O145 O 0.15863 0.86935 0.33758 0.0
O146 O 0.99554 0.90359 0.37909 0.0
C147 C 0.34238 0.81017 0.53935 0.0
O148 O 0.19701 0.66662 0.49875 0.0
O149 O 0.20178 0.70393 0.39617 0.0
C150 C 0.9267 0.80242 0.5156 0.0
O151 O 0.25631 0.8445 0.56187 0.0
O152 O 0.34921 0.78996 0.47854 0.0
C153 C 0.26497 1.04202 0.41965 0.0
Fe154 Fe 0.40636 0.79541 1.03434 0.0
Fe155 Fe 0.28671 0.75676 0.90997 0.0
O156 O 0.39458 0.73127 0.96114 0.0
Fe157 Fe 0.4802 0.62627 0.94633 0.0
O158 O 0.4121 0.56677 1.01042 0.0
O159 O 0.47344 0.67404 0.07615 0.0
O160 O 0.28176 0.74398 0.06187 0.0
C161 C 0.1957 0.77831 1.03935 0.0
C162 C 0.61137 0.78606 1.0156 0.0
O163 O 0.18886 0.79852 0.97854 0.0
C164 C 0.48741 0.71457 0.83275 0.0
O165 O 0.34106 0.92185 0.99875 0.0
O166 O 0.33629 0.88455 0.89617 0.0
O167 O 0.60036 0.69326 0.99152 0.0
O168 O 0.53397 0.84899 1.01237 0.0
C169 C 0.2731 0.54645 0.91965 0.0
O170 O 0.37944 0.71912 0.83758 0.0
O171 O 0.54253 0.68489 0.87909 0.0
C172 C 0.32497 0.94977 0.93948 0.0
O173 O 0.22432 0.63119 0.9235 0.0
O174 O 0.37454 0.54744 0.90256 0.0
C175 C 0.46891 0.57809 0.05563 0.0
loop_
_geom_bond_atom_site_label_1
_geom_bond_atom_site_label_2
_geom_bond_distance
_geom_bond_site_symmetry_2
_ccdc_geom_bond_type
Fe0 O2 1.918 . S
Fe0 O5 1.997 . S
Fe0 O6 2.002 . S
Fe0 O11 1.976 . S
Fe0 O14 1.996 . S
Fe1 O2 1.918 . S
Fe1 O9 1.997 . S
Fe1 O12 1.996 . S
Fe1 O16 1.976 . S
Fe1 O19 2.002 . S
O2 Fe0 1.918 . S
O2 Fe1 1.918 . S
O2 Fe3 1.918 . S
Fe3 O2 1.918 . S
Fe3 O4 2.002 . S
Fe3 O13 1.976 . S
Fe3 O17 1.996 . S
Fe3 O20 1.997 . S
O4 Fe3 2.002 . S
O4 C21 1.295 . S
O5 Fe0 1.997 . S
O5 C21 1.235 . S
O6 Fe0 2.002 . S
O6 C7 1.295 . S
C7 O6 1.295 . S
C7 O9 1.235 . S
C8 O13 1.287 . S
C8 O14 1.255 . S
O9 Fe1 1.997 . S
O9 C7 1.235 . S
C10 O16 1.287 . S
C10 O17 1.255 . S
O11 Fe0 1.976 . S
O11 C18 1.287 . S
O12 Fe1 1.996 . S
O12 C18 1.255 . S
O13 Fe3 1.976 . S
O13 C8 1.287 . S
O14 Fe0 1.996 . S
O14 C8 1.255 . S
C15 O19 1.295 . S
C15 O20 1.235 . S
O16 Fe1 1.976 . S
O16 C10 1.287 . S
O17 Fe3 1.996 . S
O17 C10 1.255 . S
C18 O11 1.287 . S
C18 O12 1.255 . S
O19 Fe1 2.002 . S
O19 C15 1.295 . S
O20 Fe3 1.997 . S
O20 C15 1.235 . S
C21 O4 1.295 . S
C21 O5 1.235 . S
Fe22 O24 1.918 . S
Fe22 O27 1.997 . S
Fe22 O28 2.002 . S
Fe22 O33 1.976 . S
Fe22 O36 1.996 . S
Fe23 O24 1.918 . S
Fe23 O31 1.997 1_545 S
Fe23 O34 1.996 1_455 S
Fe23 O38 1.976 1_455 S
Fe23 O41 2.002 1_455 S
O24 Fe22 1.918 . S
O24 Fe23 1.918 . S
O24 Fe25 1.918 . S
Fe25 O24 1.918 . S
Fe25 O26 2.002 1_556 S
Fe25 O35 1.976 . S
Fe25 O39 1.996 1_455 S
Fe25 O42 1.997 1_556 S
O26 Fe25 2.002 1_554 S
O26 C43 1.295 1_554 S
O27 Fe22 1.997 . S
O27 C43 1.235 . S
O28 Fe22 2.002 . S
O28 C29 1.295 1_545 S
C29 O28 1.295 1_565 S
C29 O31 1.235 . S
C30 O35 1.287 . S
C30 O36 1.255 . S
O31 Fe23 1.997 1_565 S
O31 C29 1.235 . S
C32 O38 1.287 . S
C32 O39 1.255 . S
O33 Fe22 1.976 . S
O33 C40 1.287 . S
O34 Fe23 1.996 1_655 S
O34 C40 1.255 1_655 S
O35 Fe25 1.976 . S
O35 C30 1.287 . S
O36 Fe22 1.996 . S
O36 C30 1.255 . S
C37 O41 1.295 1_454 S
C37 O42 1.235 . S
O38 Fe23 1.976 1_655 S
O38 C32 1.287 . S
O39 Fe25 1.996 1_655 S
O39 C32 1.255 . S
C40 O33 1.287 . S
C40 O34 1.255 1_455 S
O41 Fe23 2.002 1_655 S
O41 C37 1.295 1_656 S
O42 Fe25 1.997 1_554 S
O42 C37 1.235 . S
C43 O26 1.295 1_556 S
C43 O27 1.235 . S
Fe44 O46 1.918 . S
Fe44 O49 1.997 1_545 S
Fe44 O50 2.002 1_655 S
Fe44 O55 1.976 1_655 S
Fe44 O58 1.996 1_655 S
Fe45 O46 1.918 . S
Fe45 O53 1.997 . S
Fe45 O56 1.996 1_655 S
Fe45 O60 1.976 . S
Fe45 O63 2.002 . S
O46 Fe44 1.918 . S
O46 Fe45 1.918 . S
O46 Fe47 1.918 . S
Fe47 O46 1.918 . S
Fe47 O48 2.002 . S
Fe47 O57 1.976 . S
Fe47 O61 1.996 . S
Fe47 O64 1.997 . S
O48 Fe47 2.002 . S
O48 C65 1.295 1_545 S
O49 Fe44 1.997 1_565 S
O49 C65 1.235 . S
O50 Fe44 2.002 1_455 S
O50 C51 1.295 1_455 S
C51 O50 1.295 1_655 S
C51 O53 1.235 . S
C52 O57 1.287 . S
C52 O58 1.255 1_655 S
O53 Fe45 1.997 . S
O53 C51 1.235 . S
C54 O60 1.287 . S
C54 O61 1.255 . S
O55 Fe44 1.976 1_455 S
O55 C62 1.287 . S
O56 Fe45 1.996 1_455 S
O56 C62 1.255 . S
O57 Fe47 1.976 . S
O57 C52 1.287 . S
O58 Fe44 1.996 1_455 S
O58 C52 1.255 1_455 S
C59 O63 1.295 . S
C59 O64 1.235 . S
O60 Fe45 1.976 . S
O60 C54 1.287 . S
O61 Fe47 1.996 . S
O61 C54 1.255 . S
C62 O55 1.287 . S
C62 O56 1.255 . S
O63 Fe45 2.002 . S
O63 C59 1.295 . S
O64 Fe47 1.997 . S
O64 C59 1.235 . S
C65 O48 1.295 1_565 S
C65 O49 1.235 . S
Fe66 O68 1.918 . S
Fe66 O71 1.997 . S
Fe66 O72 2.002 . S
Fe66 O77 1.976 . S
Fe66 O80 1.996 . S
Fe67 O68 1.918 . S
Fe67 O75 1.997 1_554 S
Fe67 O78 1.996 . S
Fe67 O82 1.976 . S
Fe67 O85 2.002 1_554 S
O68 Fe66 1.918 . S
O68 Fe67 1.918 . S
O68 Fe69 1.918 . S
Fe69 O68 1.918 . S
Fe69 O70 2.002 . S
Fe69 O79 1.976 . S
Fe69 O83 1.996 . S
Fe69 O86 1.997 . S
O70 Fe69 2.002 . S
O70 C87 1.295 . S
O71 Fe66 1.997 . S
O71 C87 1.235 . S
O72 Fe66 2.002 . S
O72 C73 1.295 1_554 S
C73 O72 1.295 1_556 S
C73 O75 1.235 . S
C74 O79 1.287 . S
C74 O80 1.255 . S
O75 Fe67 1.997 1_556 S
O75 C73 1.235 . S
C76 O82 1.287 . S
C76 O83 1.255 . S
O77 Fe66 1.976 . S
O77 C84 1.287 . S
O78 Fe67 1.996 . S
O78 C84 1.255 . S
O79 Fe69 1.976 . S
O79 C74 1.287 . S
O80 Fe66 1.996 . S
O80 C74 1.255 . S
C81 O85 1.295 1_554 S
C81 O86 1.235 . S
O82 Fe67 1.976 . S
O82 C76 1.287 . S
O83 Fe69 1.996 . S
O83 C76 1.255 . S
C84 O77 1.287 . S
C84 O78 1.255 . S
O85 Fe67 2.002 1_556 S
O85 C81 1.295 1_556 S
O86 Fe69 1.997 . S
O86 C81 1.235 . S
C87 O70 1.295 . S
C87 O71 1.235 . S
Fe88 O90 1.918 . S
Fe88 O93 1.997 . S
Fe88 O94 2.002 . S
Fe88 O99 1.976 . S
Fe88 O102 1.996 . S
Fe89 O90 1.918 . S
Fe89 O97 1.997 . S
Fe89 O100 1.996 . S
Fe89 O104 1.976 . S
Fe89 O107 2.002 . S
O90 Fe88 1.918 . S
O90 Fe89 1.918 . S
O90 Fe91 1.918 . S
Fe91 O90 1.918 . S
Fe91 O92 2.002 . S
Fe91 O101 1.976 . S
Fe91 O105 1.996 . S
Fe91 O108 1.997 . S
O92 Fe91 2.002 . S
O92 C109 1.295 . S
O93 Fe88 1.997 . S
O93 C109 1.235 . S
O94 Fe88 2.002 . S
O94 C95 1.295 . S
C95 O94 1.295 . S
C95 O97 1.235 . S
C96 O101 1.287 . S
C96 O102 1.255 . S
O97 Fe89 1.997 . S
O97 C95 1.235 . S
C98 O104 1.287 . S
C98 O105 1.255 . S
O99 Fe88 1.976 . S
O99 C106 1.287 . S
O100 Fe89 1.996 . S
O100 C106 1.255 . S
O101 Fe91 1.976 . S
O101 C96 1.287 . S
O102 Fe88 1.996 . S
O102 C96 1.255 . S
C103 O107 1.295 . S
C103 O108 1.235 . S
O104 Fe89 1.976 . S
O104 C98 1.287 . S
O105 Fe91 1.996 . S
O105 C98 1.255 . S
C106 O99 1.287 . S
C106 O100 1.255 . S
O107 Fe89 2.002 . S
O107 C103 1.295 . S
O108 Fe91 1.997 . S
O108 C103 1.235 . S
C109 O92 1.295 . S
C109 O93 1.235 . S
Fe110 O112 1.918 . S
Fe110 O115 1.997 1_565 S
Fe110 O116 2.002 1_655 S
Fe110 O121 1.976 1_655 S
Fe110 O124 1.996 1_655 S
Fe111 O112 1.918 . S
Fe111 O119 1.997 1_554 S
Fe111 O122 1.996 1_655 S
Fe111 O126 1.976 . S
Fe111 O129 2.002 1_554 S
O112 Fe110 1.918 . S
O112 Fe111 1.918 . S
O112 Fe113 1.918 . S
Fe113 O112 1.918 . S
Fe113 O114 2.002 . S
Fe113 O123 1.976 . S
Fe113 O127 1.996 . S
Fe113 O130 1.997 . S
O114 Fe113 2.002 . S
O114 C131 1.295 1_565 S
O115 Fe110 1.997 1_545 S
O115 C131 1.235 . S
O116 Fe110 2.002 1_455 S
O116 C117 1.295 1_454 S
C117 O116 1.295 1_656 S
C117 O119 1.235 . S
C118 O123 1.287 . S
C118 O124 1.255 1_655 S
O119 Fe111 1.997 1_556 S
O119 C117 1.235 . S
C120 O126 1.287 . S
C120 O127 1.255 . S
O121 Fe110 1.976 1_455 S
O121 C128 1.287 . S
O122 Fe111 1.996 1_455 S
O122 C128 1.255 . S
O123 Fe113 1.976 . S
O123 C118 1.287 . S
O124 Fe110 1.996 1_455 S
O124 C118 1.255 1_455 S
C125 O129 1.295 1_554 S
C125 O130 1.235 . S
O126 Fe111 1.976 . S
O126 C120 1.287 . S
O127 Fe113 1.996 . S
O127 C120 1.255 . S
C128 O121 1.287 . S
C128 O122 1.255 . S
O129 Fe111 2.002 1_556 S
O129 C125 1.295 1_556 S
O130 Fe113 1.997 . S
O130 C125 1.235 . S
C131 O114 1.295 1_545 S
C131 O115 1.235 . S
Fe132 O134 1.918 . S
Fe132 O137 1.997 1_565 S
Fe132 O138 2.002 1_455 S
Fe132 O143 1.976 1_455 S
Fe132 O146 1.996 1_455 S
Fe133 O134 1.918 . S
Fe133 O141 1.997 . S
Fe133 O144 1.996 1_455 S
Fe133 O148 1.976 . S
Fe133 O151 2.002 . S
O134 Fe132 1.918 . S
O134 Fe133 1.918 . S
O134 Fe135 1.918 . S
Fe135 O134 1.918 . S
Fe135 O136 2.002 . S
Fe135 O145 1.976 . S
Fe135 O149 1.996 . S
Fe135 O152 1.997 . S
O136 Fe135 2.002 . S
O136 C153 1.295 1_565 S
O137 Fe132 1.997 1_545 S
O137 C153 1.235 . S
O138 Fe132 2.002 1_655 S
O138 C139 1.295 1_655 S
C139 O138 1.295 1_455 S
C139 O141 1.235 . S
C140 O145 1.287 . S
C140 O146 1.255 1_455 S
O141 Fe133 1.997 . S
O141 C139 1.235 . S
C142 O148 1.287 . S
C142 O149 1.255 . S
O143 Fe132 1.976 1_655 S
O143 C150 1.287 . S
O144 Fe133 1.996 1_655 S
O144 C150 1.255 . S
O145 Fe135 1.976 . S
O145 C140 1.287 . S
O146 Fe132 1.996 1_655 S
O146 C140 1.255 1_655 S
C147 O151 1.295 . S
C147 O152 1.235 . S
O148 Fe133 1.976 . S
O148 C142 1.287 . S
O149 Fe135 1.996 . S
O149 C142 1.255 . S
C150 O143 1.287 . S
C150 O144 1.255 . S
O151 Fe133 2.002 . S
O151 C147 1.295 . S
O152 Fe135 1.997 . S
O152 C147 1.235 . S
C153 O136 1.295 1_545 S
C153 O137 1.235 . S
Fe154 O156 1.918 . S
Fe154 O159 1.997 1_556 S
Fe154 O160 2.002 1_556 S
Fe154 O165 1.976 . S
Fe154 O168 1.996 . S
Fe155 O156 1.918 . S
Fe155 O163 1.997 . S
Fe155 O166 1.996 . S
Fe155 O170 1.976 . S
Fe155 O173 2.002 . S
O156 Fe154 1.918 . S
O156 Fe155 1.918 . S
O156 Fe157 1.918 . S
Fe157 O156 1.918 . S
Fe157 O158 2.002 . S
Fe157 O167 1.976 . S
Fe157 O171 1.996 . S
Fe157 O174 1.997 . S
O158 Fe157 2.002 . S
O158 C175 1.295 1_556 S
O159 Fe154 1.997 1_554 S
O159 C175 1.235 . S
O160 Fe154 2.002 1_554 S
O160 C161 1.295 1_554 S
C161 O160 1.295 1_556 S
C161 O163 1.235 . S
C162 O167 1.287 . S
C162 O168 1.255 . S
O163 Fe155 1.997 . S
O163 C161 1.235 . S
C164 O170 1.287 . S
C164 O171 1.255 . S
O165 Fe154 1.976 . S
O165 C172 1.287 . S
O166 Fe155 1.996 . S
O166 C172 1.255 . S
O167 Fe157 1.976 . S
O167 C162 1.287 . S
O168 Fe154 1.996 . S
O168 C162 1.255 . S
C169 O173 1.295 . S
C169 O174 1.235 . S
O170 Fe155 1.976 . S
O170 C164 1.287 . S
O171 Fe157 1.996 . S
O171 C164 1.255 . S
C172 O165 1.287 . S
C172 O166 1.255 . S
O173 Fe155 2.002 . S
O173 C169 1.295 . S
O174 Fe157 1.997 . S
O174 C169 1.235 . S
C175 O158 1.295 1_554 S
C175 O159 1.235 . S
C153 C10 2.099 . S
C30 C169 2.099 . S
C109 C54 2.099 . S
C76 C131 2.099 . S
C65 C98 2.099 . S
C120 C87 2.099 . S
C21 C142 2.099 . S
C29 C172 2.099 . S
C7 C95 1.904 . S
C117 C37 1.904 1_666 S
C51 C139 1.904 1_645 S
C175 C73 1.904 1_554 S
C74 C8 1.721 . S
C40 C52 1.721 1_455 S
C164 C96 1.721 . S
C118 C140 1.721 1_655 S
C18 C59 1.924 . S
C32 C81 1.924 1_556 S
C62 C15 1.924 . S
C84 C43 1.924 1_554 S
C106 C147 1.924 . S
C128 C161 1.924 1_554 S
C150 C103 1.924 . S
C125 C162 1.924 1_554 S
