# Generated by pormake.
# Topology uoj, (4)-cn, num edge types: 1
# Building blocks:
#     Node 0, Type 0, BuildingBlock: QUQFOY_clean_sbu_1, # of connection points: 4
#     Node 1, Type 0, BuildingBlock: QUQFOY_clean_sbu_1, # of connection points: 4
#     Node 2, Type 0, BuildingBlock: QUQFOY_clean_sbu_1, # of connection points: 4
#     Node 3, Type 0, BuildingBlock: QUQFOY_clean_sbu_1, # of connection points: 4
#     Node 4, Type 0, BuildingBlock: QUQFOY_clean_sbu_1, # of connection points: 4
#     Node 5, Type 0, BuildingBlock: QUQFOY_clean_sbu_1, # of connection points: 4
#     Node 6, Type 0, BuildingBlock: QUQFOY_clean_sbu_1, # of connection points: 4
#     Node 7, Type 0, BuildingBlock: QUQFOY_clean_sbu_1, # of connection points: 4
#     Edge 8, Type (0, 0), None
#     Edge 9, Type (0, 0), None
#     Edge 10, Type (0, 0), None
#     Edge 11, Type (0, 0), None
#     Edge 12, Type (0, 0), None
#     Edge 13, Type (0, 0), None
#     Edge 14, Type (0, 0), None
#     Edge 15, Type (0, 0), None
#     Edge 16, Type (0, 0), None
#     Edge 17, Type (0, 0), None
#     Edge 18, Type (0, 0), None
#     Edge 19, Type (0, 0), None
#     Edge 20, Type (0, 0), None
#     Edge 21, Type (0, 0), None
#     Edge 22, Type (0, 0), None
#     Edge 23, Type (0, 0), None
# Relax obj value: 0.062
# Max RMSD: 0.087
# Mean RMSD: 0.087
data_MOF--net-uoj--node1-QUQFOY_clean_sbu_1--edge1-none
_symmetry_space_group_name_H-M    P1
_symmetry_Int_Tables_number       1
_symmetry_cell_setting            triclinic
loop_
_symmetry_equiv_pos_as_xyz
'x, y, z'
_cell_length_a     15.587605
_cell_length_b     15.587481
_cell_length_c     17.500934
_cell_angle_alpha  90.00072
_cell_angle_beta   89.999267
_cell_angle_gamma 90.0
loop_
_atom_site_label
_atom_site_type_symbol
_atom_site_fract_x
_atom_site_fract_y
_atom_site_fract_z
_atom_type_partial_charge
O0 O 0.8749 0.19205 0.64998 0.0
Cd1 Cd -0.01072 0.24643 0.68241 0.0
Cd2 Cd -0.00366 0.27523 0.52166 0.0
O3 O 0.90115 0.181 0.52557 0.0
O4 O 0.05959 0.16617 0.7466 0.0
O5 O 0.08664 0.19698 0.62483 0.0
C6 C 0.10338 0.15208 0.68504 0.0
C7 C 0.07305 0.31526 0.41158 0.0
C8 C 0.85506 0.16407 0.58397 0.0
C9 C -0.02616 0.42116 0.64482 0.0
O10 O -0.0265 0.38639 0.57935 0.0
O11 O -0.01199 0.37682 0.70424 0.0
O12 O -0.00823 0.32739 0.41792 0.0
O13 O 0.11099 0.27149 0.46424 0.0
O14 O 0.19206 0.06053 0.61366 0.0
Cd15 Cd 0.24643 0.94615 0.58123 0.0
Cd16 Cd 0.27523 0.93909 0.74198 0.0
O17 O 0.18101 0.03428 0.73808 0.0
O18 O 0.16617 0.87584 0.51704 0.0
O19 O 0.19698 0.8488 0.63881 0.0
C20 C 0.15208 0.83205 0.5786 0.0
C21 C 0.31525 0.86238 0.85206 0.0
C22 C 0.16409 0.08038 0.67968 0.0
C23 C 0.42116 0.96157 0.61882 0.0
O24 O 0.38639 0.96191 0.6843 0.0
O25 O 0.37682 0.94742 0.5594 0.0
O26 O 0.3274 0.94365 0.84573 0.0
O27 O 0.27148 0.82443 0.79941 0.0
O28 O 0.06053 0.74337 0.64998 0.0
Cd29 Cd 0.94615 0.689 0.68241 0.0
Cd30 Cd 0.93909 0.6602 0.52166 0.0
O31 O 0.03428 0.75442 0.52556 0.0
O32 O 0.87584 0.76926 0.74661 0.0
O33 O 0.8488 0.73844 0.62484 0.0
C34 C 0.83205 0.78335 0.68505 0.0
C35 C 0.86237 0.62017 0.41158 0.0
C36 C 0.08038 0.77134 0.58396 0.0
C37 C 0.96157 0.51427 0.64482 0.0
O38 O 0.96191 0.54904 0.57935 0.0
O39 O 0.94743 0.55861 0.70425 0.0
O40 O 0.94365 0.60803 0.41792 0.0
O41 O 0.82443 0.66395 0.46424 0.0
O42 O 0.74337 0.87489 0.61367 0.0
Cd43 Cd 0.689 -0.01073 0.58124 0.0
Cd44 Cd 0.6602 -0.00366 0.74199 0.0
O45 O 0.75442 0.90115 0.73809 0.0
O46 O 0.76927 0.05958 0.51704 0.0
O47 O 0.73845 0.08663 0.63882 0.0
C48 C 0.78336 0.10336 0.57861 0.0
C49 C 0.62017 0.07305 0.85206 0.0
C50 C 0.77134 0.85504 0.67969 0.0
C51 C 0.51427 -0.02616 0.61882 0.0
O52 O 0.54904 -0.0265 0.6843 0.0
O53 O 0.55862 -0.012 0.5594 0.0
O54 O 0.60803 -0.00822 0.84573 0.0
O55 O 0.66394 0.111 0.79941 0.0
O56 O 0.56051 0.69206 0.14998 0.0
Cd57 Cd 0.44614 0.74644 0.18242 0.0
Cd58 Cd 0.43908 0.77524 1.02167 0.0
O59 O 0.53426 0.68101 1.02557 0.0
O60 O 0.37583 0.66617 0.24661 0.0
O61 O 0.34878 0.69699 1.12484 0.0
C62 C 0.33203 0.65209 0.18505 0.0
C63 C 0.36236 0.81528 0.91161 0.0
C64 C 0.58036 0.66408 1.08397 0.0
C65 C 0.46157 0.92116 0.14484 0.0
O66 O 0.46191 0.8864 1.07936 0.0
O67 O 0.44741 0.87682 0.20426 0.0
O68 O 0.44363 0.82742 0.91793 0.0
O69 O 0.32442 0.77149 0.96426 0.0
O70 O 0.69205 0.37491 1.11367 0.0
Cd71 Cd 0.74643 0.48929 1.08124 0.0
Cd72 Cd 0.77523 0.49635 0.24198 0.0
O73 O 0.681 0.40116 0.23808 0.0
O74 O 0.66616 0.55959 1.01704 0.0
O75 O 0.69697 0.58664 0.13882 0.0
C76 C 0.65207 0.60338 1.07861 0.0
C77 C 0.81528 0.57307 0.35203 0.0
C78 C 0.66407 0.35506 0.17968 0.0
C79 C 0.92115 0.47385 1.11881 0.0
O80 O 0.88638 0.47351 0.18429 0.0
O81 O 0.87681 0.48802 1.05939 0.0
O82 O 0.8274 0.49179 0.34572 0.0
O83 O 0.77149 0.61101 0.29939 0.0
O84 O 0.37489 0.24338 0.14998 0.0
Cd85 Cd 0.48927 0.18901 0.18241 0.0
Cd86 Cd 0.49633 0.1602 1.02167 0.0
O87 O 0.40115 0.25443 1.02556 0.0
O88 O 0.55957 0.26928 0.24661 0.0
O89 O 0.58663 0.23845 1.12483 0.0
C90 C 0.60336 0.28336 0.18504 0.0
C91 C 0.57306 0.12015 0.91161 0.0
C92 C 0.35505 0.27136 1.08396 0.0
C93 C 0.47384 0.01428 0.14483 0.0
O94 O 0.4735 0.04904 1.07936 0.0
O95 O 0.488 0.05862 0.20425 0.0
O96 O 0.49178 0.10802 0.91793 0.0
O97 O 0.611 0.16394 0.96426 0.0
O98 O 0.24336 0.56054 1.11367 0.0
Cd99 Cd 0.18899 0.44616 1.08123 0.0
Cd100 Cd 0.16019 0.43909 0.24198 0.0
O101 O 0.2544 0.53428 0.23808 0.0
O102 O 0.26926 0.37585 1.01703 0.0
O103 O 0.23844 0.3488 0.13881 0.0
C104 C 0.28335 0.33207 1.0786 0.0
C105 C 0.12014 0.36236 0.35203 0.0
C106 C 0.27133 0.58039 0.17969 0.0
C107 C 0.01427 0.46158 1.11881 0.0
O108 O 0.04903 0.46192 0.18429 0.0
O109 O 0.05861 0.44743 1.05939 0.0
O110 O 0.108 0.44364 0.34572 0.0
O111 O 0.16394 0.32443 0.29939 0.0
loop_
_geom_bond_atom_site_label_1
_geom_bond_atom_site_label_2
_geom_bond_distance
_geom_bond_site_symmetry_2
_ccdc_geom_bond_type
O0 Cd1 2.223 . S
O0 C8 1.315 1_455 S
Cd1 O0 2.223 . S
Cd1 O4 2.297 . S
Cd1 O5 2.439 . S
Cd1 O11 2.240 . S
Cd2 O3 2.240 . S
Cd2 O10 2.223 1_455 S
Cd2 O12 2.297 . S
Cd2 O13 2.439 . S
O3 Cd2 2.240 . S
O3 C8 1.279 1_455 S
O4 Cd1 2.297 . S
O4 C6 1.247 . S
O5 Cd1 2.439 . S
O5 C6 1.208 . S
C6 O4 1.247 . S
C6 O5 1.208 . S
C7 O12 1.247 . S
C7 O13 1.208 . S
C8 O0 1.315 1_655 S
C8 O3 1.279 1_655 S
C9 O10 1.315 1_455 S
C9 O11 1.279 . S
O10 Cd2 2.223 1_655 S
O10 C9 1.315 1_655 S
O11 Cd1 2.240 . S
O11 C9 1.279 . S
O12 Cd2 2.297 . S
O12 C7 1.247 . S
O13 Cd2 2.439 . S
O13 C7 1.208 . S
O14 Cd15 2.223 . S
O14 C22 1.315 1_565 S
Cd15 O14 2.223 . S
Cd15 O18 2.297 . S
Cd15 O19 2.439 . S
Cd15 O25 2.240 . S
Cd16 O17 2.240 . S
Cd16 O24 2.223 1_565 S
Cd16 O26 2.297 . S
Cd16 O27 2.439 . S
O17 Cd16 2.240 . S
O17 C22 1.279 1_565 S
O18 Cd15 2.297 . S
O18 C20 1.247 . S
O19 Cd15 2.439 . S
O19 C20 1.208 . S
C20 O18 1.247 . S
C20 O19 1.208 . S
C21 O26 1.247 . S
C21 O27 1.208 . S
C22 O14 1.315 1_545 S
C22 O17 1.279 1_545 S
C23 O24 1.315 1_565 S
C23 O25 1.279 . S
O24 Cd16 2.223 1_545 S
O24 C23 1.315 1_545 S
O25 Cd15 2.240 . S
O25 C23 1.279 . S
O26 Cd16 2.297 . S
O26 C21 1.247 . S
O27 Cd16 2.439 . S
O27 C21 1.208 . S
O28 Cd29 2.223 . S
O28 C36 1.315 1_655 S
Cd29 O28 2.223 . S
Cd29 O32 2.297 . S
Cd29 O33 2.439 . S
Cd29 O39 2.240 . S
Cd30 O31 2.240 . S
Cd30 O38 2.223 1_655 S
Cd30 O40 2.297 . S
Cd30 O41 2.439 . S
O31 Cd30 2.240 . S
O31 C36 1.279 1_655 S
O32 Cd29 2.297 . S
O32 C34 1.247 . S
O33 Cd29 2.439 . S
O33 C34 1.208 . S
C34 O32 1.247 . S
C34 O33 1.208 . S
C35 O40 1.247 . S
C35 O41 1.208 . S
C36 O28 1.315 1_455 S
C36 O31 1.279 1_455 S
C37 O38 1.315 1_655 S
C37 O39 1.279 . S
O38 Cd30 2.223 1_455 S
O38 C37 1.315 1_455 S
O39 Cd29 2.240 . S
O39 C37 1.279 . S
O40 Cd30 2.297 . S
O40 C35 1.247 . S
O41 Cd30 2.439 . S
O41 C35 1.208 . S
O42 Cd43 2.223 . S
O42 C50 1.315 1_545 S
Cd43 O42 2.223 . S
Cd43 O46 2.297 . S
Cd43 O47 2.439 . S
Cd43 O53 2.240 . S
Cd44 O45 2.240 . S
Cd44 O52 2.223 1_545 S
Cd44 O54 2.297 . S
Cd44 O55 2.439 . S
O45 Cd44 2.240 . S
O45 C50 1.279 1_545 S
O46 Cd43 2.297 . S
O46 C48 1.247 . S
O47 Cd43 2.439 . S
O47 C48 1.208 . S
C48 O46 1.247 . S
C48 O47 1.208 . S
C49 O54 1.247 . S
C49 O55 1.208 . S
C50 O42 1.315 1_565 S
C50 O45 1.279 1_565 S
C51 O52 1.315 1_545 S
C51 O53 1.279 . S
O52 Cd44 2.223 1_565 S
O52 C51 1.315 1_565 S
O53 Cd43 2.240 . S
O53 C51 1.279 . S
O54 Cd44 2.297 . S
O54 C49 1.247 . S
O55 Cd44 2.439 . S
O55 C49 1.208 . S
O56 Cd57 2.223 . S
O56 C64 1.315 . S
Cd57 O56 2.223 . S
Cd57 O60 2.297 . S
Cd57 O61 2.439 1_554 S
Cd57 O67 2.240 1_554 S
Cd58 O59 2.240 . S
Cd58 O66 2.223 . S
Cd58 O68 2.297 . S
Cd58 O69 2.439 . S
O59 Cd58 2.240 . S
O59 C64 1.279 1_556 S
O60 Cd57 2.297 . S
O60 C62 1.247 . S
O61 Cd57 2.439 1_556 S
O61 C62 1.208 1_556 S
C62 O60 1.247 . S
C62 O61 1.208 1_554 S
C63 O68 1.247 . S
C63 O69 1.208 . S
C64 O56 1.315 . S
C64 O59 1.279 1_554 S
C65 O66 1.315 . S
C65 O67 1.279 . S
O66 Cd58 2.223 . S
O66 C65 1.315 . S
O67 Cd57 2.240 1_556 S
O67 C65 1.279 . S
O68 Cd58 2.297 . S
O68 C63 1.247 . S
O69 Cd58 2.439 . S
O69 C63 1.208 . S
O70 Cd71 2.223 . S
O70 C78 1.315 . S
Cd71 O70 2.223 . S
Cd71 O74 2.297 . S
Cd71 O75 2.439 1_556 S
Cd71 O81 2.240 1_556 S
Cd72 O73 2.240 . S
Cd72 O80 2.223 . S
Cd72 O82 2.297 . S
Cd72 O83 2.439 . S
O73 Cd72 2.240 . S
O73 C78 1.279 1_554 S
O74 Cd71 2.297 . S
O74 C76 1.247 . S
O75 Cd71 2.439 1_554 S
O75 C76 1.208 1_554 S
C76 O74 1.247 . S
C76 O75 1.208 1_556 S
C77 O82 1.247 . S
C77 O83 1.208 . S
C78 O70 1.315 . S
C78 O73 1.279 1_556 S
C79 O80 1.315 . S
C79 O81 1.279 . S
O80 Cd72 2.223 . S
O80 C79 1.315 . S
O81 Cd71 2.240 1_554 S
O81 C79 1.279 . S
O82 Cd72 2.297 . S
O82 C77 1.247 . S
O83 Cd72 2.439 . S
O83 C77 1.208 . S
O84 Cd85 2.223 . S
O84 C92 1.315 . S
Cd85 O84 2.223 . S
Cd85 O88 2.297 . S
Cd85 O89 2.439 1_554 S
Cd85 O95 2.240 1_554 S
Cd86 O87 2.240 . S
Cd86 O94 2.223 . S
Cd86 O96 2.297 . S
Cd86 O97 2.439 . S
O87 Cd86 2.240 . S
O87 C92 1.279 1_556 S
O88 Cd85 2.297 . S
O88 C90 1.247 . S
O89 Cd85 2.439 1_556 S
O89 C90 1.208 1_556 S
C90 O88 1.247 . S
C90 O89 1.208 1_554 S
C91 O96 1.247 . S
C91 O97 1.208 . S
C92 O84 1.315 . S
C92 O87 1.279 1_554 S
C93 O94 1.315 . S
C93 O95 1.279 . S
O94 Cd86 2.223 . S
O94 C93 1.315 . S
O95 Cd85 2.240 1_556 S
O95 C93 1.279 . S
O96 Cd86 2.297 . S
O96 C91 1.247 . S
O97 Cd86 2.439 . S
O97 C91 1.208 . S
O98 Cd99 2.223 . S
O98 C106 1.315 . S
Cd99 O98 2.223 . S
Cd99 O102 2.297 . S
Cd99 O103 2.439 1_556 S
Cd99 O109 2.240 1_556 S
Cd100 O101 2.240 . S
Cd100 O108 2.223 . S
Cd100 O110 2.297 . S
Cd100 O111 2.439 . S
O101 Cd100 2.240 . S
O101 C106 1.279 1_554 S
O102 Cd99 2.297 . S
O102 C104 1.247 . S
O103 Cd99 2.439 1_554 S
O103 C104 1.208 1_554 S
C104 O102 1.247 . S
C104 O103 1.208 1_556 S
C105 O110 1.247 . S
C105 O111 1.208 . S
C106 O98 1.315 . S
C106 O101 1.279 1_556 S
C107 O108 1.315 . S
C107 O109 1.279 . S
O108 Cd100 2.223 . S
O108 C107 1.315 . S
O109 Cd99 2.240 1_554 S
O109 C107 1.279 . S
O110 Cd100 2.297 . S
O110 C105 1.247 . S
O111 Cd100 2.439 . S
O111 C105 1.208 . S
C105 C7 1.494 . S
C21 C63 1.494 . S
C35 C77 1.494 . S
C91 C49 1.494 . S
C22 C6 1.938 . S
C20 C36 1.938 . S
C50 C34 1.938 . S
C48 C8 1.938 . S
C106 C62 1.938 1_556 S
C76 C64 1.938 1_556 S
C78 C90 1.938 1_556 S
C92 C104 1.938 1_554 S
C37 C9 1.290 1_655 S
C51 C23 1.290 1_545 S
C93 C65 1.290 1_545 S
C107 C79 1.290 1_455 S
