# Generated by pormake.
# Topology uni, (4)-cn, num edge types: 1
# Building blocks:
#     Node 0, Type 0, BuildingBlock: KUFVIS_clean_sbu_0, # of connection points: 4
#     Node 1, Type 0, BuildingBlock: KUFVIS_clean_sbu_0, # of connection points: 4
#     Node 2, Type 0, BuildingBlock: KUFVIS_clean_sbu_0, # of connection points: 4
#     Node 3, Type 0, BuildingBlock: KUFVIS_clean_sbu_0, # of connection points: 4
#     Node 4, Type 0, BuildingBlock: KUFVIS_clean_sbu_0, # of connection points: 4
#     Node 5, Type 0, BuildingBlock: KUFVIS_clean_sbu_0, # of connection points: 4
#     Edge 6, Type (0, 0), None
#     Edge 7, Type (0, 0), None
#     Edge 8, Type (0, 0), None
#     Edge 9, Type (0, 0), None
#     Edge 10, Type (0, 0), None
#     Edge 11, Type (0, 0), None
#     Edge 12, Type (0, 0), None
#     Edge 13, Type (0, 0), None
#     Edge 14, Type (0, 0), None
#     Edge 15, Type (0, 0), None
#     Edge 16, Type (0, 0), None
#     Edge 17, Type (0, 0), None
# Relax obj value: 0.056
# Max RMSD: 0.075
# Mean RMSD: 0.075
data_MOF--net-uni--node1-KUFVIS_clean_sbu_0--edge1-none
_symmetry_space_group_name_H-M    P1
_symmetry_Int_Tables_number       1
_symmetry_cell_setting            triclinic
loop_
_symmetry_equiv_pos_as_xyz
'x, y, z'
_cell_length_a     17.556726
_cell_length_b     17.556621
_cell_length_c     10.507687
_cell_angle_alpha  90.001692
_cell_angle_beta   89.999272
_cell_angle_gamma 120.0019
loop_
_atom_site_label
_atom_site_type_symbol
_atom_site_fract_x
_atom_site_fract_y
_atom_site_fract_z
_atom_type_partial_charge
Mn0 Mn 0.61888 0.98816 0.12337 0.0
Mn1 Mn 0.6039 0.1675 0.13126 0.0
C2 C 0.51449 0.99794 0.26283 0.0
C3 C 0.658 0.87882 0.19667 0.0
C4 C 0.56483 0.06012 0.89345 0.0
O5 O 0.74537 0.09053 0.06238 0.0
O6 O 0.73382 0.20892 0.12205 0.0
C7 C 0.68622 0.27383 0.35109 0.0
N8 N 0.60982 0.21683 0.29333 0.0
C9 C 0.53455 0.28521 0.38944 0.0
C10 C 0.61287 0.34386 0.44983 0.0
C11 C 0.6889 0.3412 0.42274 0.0
C12 C 0.53621 0.22297 0.30893 0.0
H13 H 0.747 0.27609 0.32655 0.0
C14 C 0.77955 0.17501 0.08031 0.0
O15 O 0.63796 0.88628 0.08164 0.0
O16 O 0.66498 0.94192 0.26896 0.0
N17 N 0.48074 0.13036 0.13567 0.0
C18 C 0.41545 0.07972 0.0517 0.0
C19 C 0.33485 0.07802 0.05709 0.0
C20 C 0.32117 0.12704 0.14993 0.0
C21 C 0.38861 0.17726 0.23607 0.0
C22 C 0.46686 0.17462 0.22824 0.0
H23 H 0.42382 0.04101 0.98026 0.0
O24 O 0.50058 0.92382 0.21504 0.0
O25 O 0.58576 0.06323 0.21891 0.0
O26 O 0.55798 0.99253 0.94994 0.0
O27 O 0.59449 0.13114 0.95358 0.0
C28 C 0.38299 0.23344 0.32513 0.0
C29 C 0.45751 0.29105 0.39612 0.0
H30 H 0.61889 0.39652 0.50766 0.0
H31 H 0.75023 0.3969 0.44185 0.0
H32 H 0.28332 0.03899 0.98956 0.0
H33 H 0.25944 0.12694 0.15265 0.0
H34 H 0.32213 0.23346 0.33906 0.0
H35 H 0.45207 0.33504 0.46109 0.0
Mn36 Mn 0.66 0.62745 0.29003 0.0
Mn37 Mn 0.4657 0.6125 0.29791 0.0
C38 C 0.54583 0.52307 0.42948 0.0
C39 C 0.80846 0.66656 0.36334 0.0
C40 C 0.534 0.57341 0.0601 0.0
O41 O 0.68414 0.75395 0.22905 0.0
O42 O 0.5542 0.74242 0.28868 0.0
C43 C 0.44169 0.69481 0.51774 0.0
N44 N 0.42228 0.61841 0.45998 0.0
C45 C 0.27864 0.54315 0.55609 0.0
C46 C 0.29832 0.62146 0.61649 0.0
C47 C 0.377 0.69749 0.5894 0.0
C48 C 0.34253 0.5448 0.47558 0.0
H49 H 0.50021 0.75559 0.4932 0.0
C50 C 0.63387 0.78814 0.24699 0.0
O51 O 0.78097 0.64652 0.2483 0.0
O52 O 0.75235 0.67355 0.43562 0.0
N53 N 0.37967 0.48934 0.30231 0.0
C54 C 0.36501 0.42404 0.21836 0.0
C55 C 0.28611 0.34344 0.22375 0.0
C56 C 0.22342 0.32976 0.31659 0.0
C57 C 0.24064 0.3972 0.40273 0.0
C58 C 0.32153 0.47545 0.39488 0.0
H59 H 0.4121 0.43241 0.14691 0.0
O60 O 0.60603 0.50915 0.38169 0.0
O61 O 0.55182 0.59435 0.38557 0.0
O62 O 0.59473 0.56656 0.1166 0.0
O63 O 0.49265 0.60308 0.12023 0.0
C64 C 0.17884 0.39158 0.49179 0.0
C65 C 0.19575 0.4661 0.56278 0.0
H66 H 0.25167 0.62748 0.67433 0.0
H67 H 0.38265 0.75883 0.60853 0.0
H68 H 0.27361 0.29191 0.15622 0.0
H69 H 0.16178 0.26802 0.31932 0.0
H70 H 0.11796 0.33072 0.50572 0.0
H71 H 0.14633 0.46065 0.62776 0.0
Mn72 Mn 0.06183 0.66856 0.45669 0.0
Mn73 Mn 0.88248 0.47426 0.46456 0.0
C74 C 0.05204 0.55439 0.59614 0.0
C75 C 0.17118 0.81702 0.53001 0.0
C76 C 0.98987 0.54256 0.22675 0.0
O77 O 0.95948 0.6927 0.39571 0.0
O78 O 0.84106 0.56276 0.45534 0.0
C79 C 0.77617 0.45027 0.6844 0.0
N80 N 0.83315 0.43085 0.62663 0.0
C81 C 0.76476 0.28721 0.72274 0.0
C82 C 0.70613 0.30689 0.78315 0.0
C83 C 0.7088 0.38558 0.75607 0.0
C84 C 0.827 0.3511 0.64223 0.0
H85 H 0.77392 0.50879 0.65986 0.0
C86 C 0.87501 0.64243 0.41365 0.0
O87 O 0.16373 0.78953 0.41497 0.0
O88 O 0.10808 0.76091 0.60229 0.0
N89 N 0.9196 0.38823 0.46896 0.0
C90 C 0.97025 0.37358 0.38502 0.0
C91 C 0.97195 0.29468 0.39041 0.0
C92 C 0.92293 0.23199 0.48325 0.0
C93 C 0.8727 0.2492 0.56938 0.0
C94 C 0.87534 0.33009 0.56153 0.0
H95 H 0.00897 0.42067 0.31358 0.0
O96 O 0.12616 0.61459 0.54835 0.0
O97 O 0.98676 0.56038 0.55223 0.0
O98 O 0.05745 0.60329 0.28326 0.0
O99 O 0.91885 0.50121 0.28688 0.0
C100 C 0.81652 0.18741 0.65844 0.0
C101 C 0.75891 0.20432 0.72942 0.0
H102 H 0.65348 0.26026 0.84101 0.0
H103 H 0.65312 0.39124 0.77521 0.0
H104 H 0.01099 0.28219 0.3229 0.0
H105 H 0.92303 0.17035 0.48598 0.0
H106 H 0.81651 0.12654 0.67238 0.0
H107 H 0.71493 0.15489 0.79439 0.0
Mn108 Mn 0.42254 0.0704 0.6234 0.0
Mn109 Mn 0.43751 0.89106 0.63126 0.0
C110 C 0.52685 0.06064 0.76287 0.0
C111 C 0.38343 0.17975 0.69668 0.0
C112 C 0.47659 0.99845 0.39347 0.0
O113 O 0.29605 0.96804 0.56242 0.0
O114 O 0.30759 0.84963 0.62199 0.0
C115 C 0.35518 0.78473 0.85107 0.0
N116 N 0.43158 0.84173 0.79333 0.0
C117 C 0.50684 0.77335 0.88944 0.0
C118 C 0.42852 0.71471 0.94983 0.0
C119 C 0.35249 0.71737 0.92273 0.0
C120 C 0.50519 0.83559 0.80894 0.0
H121 H 0.2944 0.78248 0.82653 0.0
C122 C 0.26186 0.88357 0.58033 0.0
O123 O 0.40346 0.17229 0.58164 0.0
O124 O 0.37644 0.11666 0.76898 0.0
N125 N 0.56067 0.92821 0.6357 0.0
C126 C 0.62596 0.97884 0.55173 0.0
C127 C 0.70655 0.98052 0.5571 0.0
C128 C 0.72023 0.93151 0.64995 0.0
C129 C 0.65279 0.8813 0.73609 0.0
C130 C 0.57455 0.88395 0.72826 0.0
H131 H 0.61759 0.01754 0.48027 0.0
O132 O 0.54084 0.13477 0.71504 0.0
O133 O 0.45562 0.99532 0.71893 0.0
O134 O 0.48341 0.06602 0.44995 0.0
O135 O 0.44695 0.92743 0.45359 0.0
C136 C 0.6584 0.82512 0.82514 0.0
C137 C 0.58388 0.7675 0.89612 0.0
H138 H 0.42249 0.66204 0.00767 0.0
H139 H 0.29115 0.66167 0.94185 0.0
H140 H 0.75808 0.01955 0.48957 0.0
H141 H 0.78196 0.93161 0.65267 0.0
H142 H 0.71926 0.82509 0.83907 0.0
H143 H 0.58932 0.72352 0.96108 0.0
Mn144 Mn 0.38141 0.43111 0.79005 0.0
Mn145 Mn 0.57573 0.44609 0.79792 0.0
C146 C 0.4955 0.53543 0.92952 0.0
C147 C 0.23295 0.392 0.86334 0.0
C148 C 0.50742 0.48517 0.56012 0.0
O149 O 0.35727 0.30462 0.72908 0.0
O150 O 0.48724 0.31617 0.78864 0.0
C151 C 0.59971 0.36375 0.01773 0.0
N152 N 0.61913 0.44016 0.95999 0.0
C153 C 0.76277 0.51541 0.0561 0.0
C154 C 0.74309 0.43709 0.11649 0.0
C155 C 0.66439 0.36106 0.0894 0.0
C156 C 0.69888 0.51376 0.9756 0.0
H157 H 0.54118 0.30298 0.99318 0.0
C158 C 0.40756 0.27043 0.74698 0.0
O159 O 0.26044 0.41203 0.74831 0.0
O160 O 0.28906 0.38501 0.93563 0.0
N161 N 0.66175 0.56925 0.80237 0.0
C162 C 0.67641 0.63454 0.7184 0.0
C163 C 0.75532 0.71514 0.72379 0.0
C164 C 0.81801 0.72881 0.81664 0.0
C165 C 0.80078 0.66137 0.90277 0.0
C166 C 0.71989 0.58313 0.89493 0.0
H167 H 0.62934 0.62617 0.64694 0.0
O168 O 0.43535 0.54942 0.88169 0.0
O169 O 0.48958 0.4642 0.88559 0.0
O170 O 0.44665 0.49198 0.6166 0.0
O171 O 0.54881 0.45554 0.62025 0.0
C172 C 0.86258 0.66698 0.99182 0.0
C173 C 0.84567 0.59245 0.06279 0.0
H174 H 0.78972 0.43106 0.17433 0.0
H175 H 0.65873 0.29972 0.10853 0.0
H176 H 0.76783 0.76667 0.65626 0.0
H177 H 0.87965 0.79054 0.81937 0.0
H178 H 0.92346 0.72783 0.00576 0.0
H179 H 0.89509 0.59789 0.12775 0.0
Mn180 Mn 0.97957 0.38997 0.95671 0.0
Mn181 Mn 0.15892 0.5843 0.96458 0.0
C182 C 0.98934 0.50406 0.09618 0.0
C183 C 0.87022 0.2416 0.03 0.0
C184 C 0.05153 0.51598 0.72678 0.0
O185 O 0.08193 0.36584 0.89575 0.0
O186 O 0.20035 0.49581 0.9553 0.0
C187 C 0.26525 0.60829 0.18439 0.0
N188 N 0.20826 0.6277 0.12665 0.0
C189 C 0.27665 0.77135 0.22277 0.0
C190 C 0.33529 0.75167 0.28315 0.0
C191 C 0.33263 0.67298 0.25606 0.0
C192 C 0.2144 0.70745 0.14227 0.0
H193 H 0.26751 0.54977 0.15984 0.0
C194 C 0.1664 0.41612 0.91365 0.0
O195 O 0.87768 0.26901 0.91492 0.0
O196 O 0.93333 0.29764 0.10233 0.0
N197 N 0.12178 0.67031 0.96903 0.0
C198 C 0.07115 0.68497 0.88506 0.0
C199 C 0.06947 0.76388 0.89045 0.0
C200 C 0.11848 0.82657 0.98331 0.0
C201 C 0.16869 0.80935 0.06944 0.0
C202 C 0.16605 0.72846 0.06159 0.0
H203 H 0.03244 0.63789 0.8136 0.0
O204 O 0.91521 0.44392 0.04834 0.0
O205 O 0.05466 0.49815 0.05225 0.0
O206 O 0.98396 0.45521 0.78326 0.0
O207 O 0.12255 0.55737 0.78691 0.0
C208 C 0.22488 0.87114 0.15849 0.0
C209 C 0.2825 0.85424 0.22946 0.0
H210 H 0.38796 0.79831 0.341 0.0
H211 H 0.38832 0.66734 0.27518 0.0
H212 H 0.03044 0.77638 0.82292 0.0
H213 H 0.11839 0.88821 0.98603 0.0
H214 H 0.22491 0.93202 0.17243 0.0
H215 H 0.32648 0.90366 0.29443 0.0
loop_
_geom_bond_atom_site_label_1
_geom_bond_atom_site_label_2
_geom_bond_distance
_geom_bond_site_symmetry_2
_ccdc_geom_bond_type
Mn0 O5 2.095 1_564 S
Mn0 O15 2.162 . S
Mn0 O16 2.297 . S
Mn0 O24 2.385 . S
Mn0 O25 2.209 1_565 S
Mn0 O26 2.094 1_554 S
Mn1 O6 2.121 . S
Mn1 N8 2.257 . S
Mn1 N17 2.282 . S
Mn1 O25 2.215 . S
Mn1 O27 2.117 1_554 S
C2 O24 1.234 1_545 S
C2 O25 1.283 . S
C3 O15 1.281 . S
C3 O16 1.236 . S
C4 O26 1.240 1_545 S
C4 O27 1.264 . S
O5 Mn0 2.095 1_546 S
O5 C14 1.249 1_556 S
O6 Mn1 2.121 . S
O6 C14 1.260 . S
C7 N8 1.326 . S
C7 C11 1.460 . S
C7 H13 0.929 . S
N8 Mn1 2.257 . S
N8 C7 1.326 . S
N8 C12 1.362 . S
C9 C10 1.258 . S
C9 C12 1.431 . S
C9 C29 1.449 . S
C10 C9 1.258 . S
C10 C11 1.477 . S
C10 H30 0.931 . S
C11 C7 1.460 . S
C11 C10 1.477 . S
C11 H31 0.930 . S
C12 N8 1.362 . S
C12 C9 1.431 . S
C12 C22 1.476 . S
H13 C7 0.929 . S
C14 O5 1.249 1_554 S
C14 O6 1.260 . S
O15 Mn0 2.162 . S
O15 C3 1.281 . S
O16 Mn0 2.297 . S
O16 C3 1.236 . S
N17 Mn1 2.282 . S
N17 C18 1.328 . S
N17 C22 1.318 . S
C18 N17 1.328 . S
C18 C19 1.457 . S
C18 H23 0.929 . S
C19 C18 1.457 . S
C19 C20 1.291 . S
C19 H32 0.931 . S
C20 C19 1.291 . S
C20 C21 1.373 . S
C20 H33 0.929 . S
C21 C20 1.373 . S
C21 C22 1.396 . S
C21 C28 1.403 . S
C22 C12 1.476 . S
C22 N17 1.318 . S
C22 C21 1.396 . S
H23 C18 0.929 . S
O24 Mn0 2.385 . S
O24 C2 1.234 1_565 S
O25 Mn0 2.209 1_545 S
O25 Mn1 2.215 . S
O25 C2 1.283 . S
O26 Mn0 2.094 1_556 S
O26 C4 1.240 1_565 S
O27 Mn1 2.117 1_556 S
O27 C4 1.264 . S
C28 C21 1.403 . S
C28 C29 1.399 . S
C28 H34 0.929 . S
C29 C9 1.449 . S
C29 C28 1.399 . S
C29 H35 0.930 . S
H30 C10 0.931 . S
H31 C11 0.930 . S
H32 C19 0.931 . S
H33 C20 0.929 . S
H34 C28 0.929 . S
H35 C29 0.930 . S
Mn36 O41 2.095 . S
Mn36 O51 2.162 . S
Mn36 O52 2.297 . S
Mn36 O60 2.385 . S
Mn36 O61 2.209 . S
Mn36 O62 2.094 . S
Mn37 O42 2.121 . S
Mn37 N44 2.257 . S
Mn37 N53 2.282 . S
Mn37 O61 2.215 . S
Mn37 O63 2.117 . S
C38 O60 1.234 . S
C38 O61 1.283 . S
C39 O51 1.281 . S
C39 O52 1.236 . S
C40 O62 1.240 . S
C40 O63 1.264 . S
O41 Mn36 2.095 . S
O41 C50 1.250 . S
O42 Mn37 2.121 . S
O42 C50 1.258 . S
C43 N44 1.326 . S
C43 C47 1.460 . S
C43 H49 0.929 . S
N44 Mn37 2.257 . S
N44 C43 1.326 . S
N44 C48 1.362 . S
C45 C46 1.258 . S
C45 C48 1.431 . S
C45 C65 1.449 . S
C46 C45 1.258 . S
C46 C47 1.477 . S
C46 H66 0.931 . S
C47 C43 1.460 . S
C47 C46 1.477 . S
C47 H67 0.930 . S
C48 N44 1.362 . S
C48 C45 1.431 . S
C48 C58 1.476 . S
H49 C43 0.929 . S
C50 O41 1.250 . S
C50 O42 1.258 . S
O51 Mn36 2.162 . S
O51 C39 1.281 . S
O52 Mn36 2.297 . S
O52 C39 1.236 . S
N53 Mn37 2.282 . S
N53 C54 1.328 . S
N53 C58 1.318 . S
C54 N53 1.328 . S
C54 C55 1.457 . S
C54 H59 0.929 . S
C55 C54 1.457 . S
C55 C56 1.291 . S
C55 H68 0.931 . S
C56 C55 1.291 . S
C56 C57 1.373 . S
C56 H69 0.929 . S
C57 C56 1.373 . S
C57 C58 1.396 . S
C57 C64 1.403 . S
C58 C48 1.476 . S
C58 N53 1.318 . S
C58 C57 1.396 . S
H59 C54 0.929 . S
O60 Mn36 2.385 . S
O60 C38 1.234 . S
O61 Mn36 2.209 . S
O61 Mn37 2.215 . S
O61 C38 1.283 . S
O62 Mn36 2.094 . S
O62 C40 1.240 . S
O63 Mn37 2.117 . S
O63 C40 1.264 . S
C64 C57 1.403 . S
C64 C65 1.399 . S
C64 H70 0.929 . S
C65 C45 1.449 . S
C65 C64 1.399 . S
C65 H71 0.930 . S
H66 C46 0.931 . S
H67 C47 0.930 . S
H68 C55 0.931 . S
H69 C56 0.929 . S
H70 C64 0.929 . S
H71 C65 0.930 . S
Mn72 O77 2.095 1_455 S
Mn72 O87 2.162 . S
Mn72 O88 2.297 . S
Mn72 O96 2.385 . S
Mn72 O97 2.209 1_455 S
Mn72 O98 2.094 . S
Mn73 O78 2.121 . S
Mn73 N80 2.257 . S
Mn73 N89 2.282 . S
Mn73 O97 2.215 . S
Mn73 O99 2.117 . S
C74 O96 1.234 . S
C74 O97 1.283 1_455 S
C75 O87 1.281 . S
C75 O88 1.236 . S
C76 O98 1.240 . S
C76 O99 1.264 1_455 S
O77 Mn72 2.095 1_655 S
O77 C86 1.250 . S
O78 Mn73 2.121 . S
O78 C86 1.258 . S
C79 N80 1.326 . S
C79 C83 1.460 . S
C79 H85 0.929 . S
N80 Mn73 2.257 . S
N80 C79 1.326 . S
N80 C84 1.362 . S
C81 C82 1.258 . S
C81 C84 1.431 . S
C81 C101 1.449 . S
C82 C81 1.258 . S
C82 C83 1.477 . S
C82 H102 0.931 . S
C83 C79 1.460 . S
C83 C82 1.477 . S
C83 H103 0.930 . S
C84 N80 1.362 . S
C84 C81 1.431 . S
C84 C94 1.476 . S
H85 C79 0.929 . S
C86 O77 1.250 . S
C86 O78 1.258 . S
O87 Mn72 2.162 . S
O87 C75 1.281 . S
O88 Mn72 2.297 . S
O88 C75 1.236 . S
N89 Mn73 2.282 . S
N89 C90 1.328 . S
N89 C94 1.318 . S
C90 N89 1.328 . S
C90 C91 1.457 . S
C90 H95 0.929 . S
C91 C90 1.457 . S
C91 C92 1.291 . S
C91 H104 0.931 . S
C92 C91 1.291 . S
C92 C93 1.373 . S
C92 H105 0.929 . S
C93 C92 1.373 . S
C93 C94 1.396 . S
C93 C100 1.403 . S
C94 C84 1.476 . S
C94 N89 1.318 . S
C94 C93 1.396 . S
H95 C90 0.929 . S
O96 Mn72 2.385 . S
O96 C74 1.234 . S
O97 Mn72 2.209 1_655 S
O97 Mn73 2.215 . S
O97 C74 1.283 1_655 S
O98 Mn72 2.094 . S
O98 C76 1.240 . S
O99 Mn73 2.117 . S
O99 C76 1.264 1_655 S
C100 C93 1.403 . S
C100 C101 1.399 . S
C100 H106 0.929 . S
C101 C81 1.449 . S
C101 C100 1.399 . S
C101 H107 0.930 . S
H102 C82 0.931 . S
H103 C83 0.930 . S
H104 C91 0.931 . S
H105 C92 0.929 . S
H106 C100 0.929 . S
H107 C101 0.930 . S
Mn108 O113 2.095 1_545 S
Mn108 O123 2.162 . S
Mn108 O124 2.297 . S
Mn108 O132 2.385 . S
Mn108 O133 2.209 1_545 S
Mn108 O134 2.094 . S
Mn109 O114 2.121 . S
Mn109 N116 2.257 . S
Mn109 N125 2.282 . S
Mn109 O133 2.215 . S
Mn109 O135 2.117 . S
C110 O132 1.234 . S
C110 O133 1.283 1_545 S
C111 O123 1.281 . S
C111 O124 1.236 . S
C112 O134 1.240 . S
C112 O135 1.264 1_545 S
O113 Mn108 2.095 1_565 S
O113 C122 1.250 . S
O114 Mn109 2.121 . S
O114 C122 1.258 . S
C115 N116 1.326 . S
C115 C119 1.460 . S
C115 H121 0.929 . S
N116 Mn109 2.257 . S
N116 C115 1.326 . S
N116 C120 1.362 . S
C117 C118 1.258 . S
C117 C120 1.431 . S
C117 C137 1.449 . S
C118 C117 1.258 . S
C118 C119 1.477 . S
C118 H138 0.931 1_556 S
C119 C115 1.460 . S
C119 C118 1.477 . S
C119 H139 0.930 . S
C120 N116 1.362 . S
C120 C117 1.431 . S
C120 C130 1.476 . S
H121 C115 0.929 . S
C122 O113 1.250 . S
C122 O114 1.258 . S
O123 Mn108 2.162 . S
O123 C111 1.281 . S
O124 Mn108 2.297 . S
O124 C111 1.236 . S
N125 Mn109 2.282 . S
N125 C126 1.328 . S
N125 C130 1.318 . S
C126 N125 1.328 . S
C126 C127 1.457 . S
C126 H131 0.929 . S
C127 C126 1.457 . S
C127 C128 1.291 . S
C127 H140 0.931 . S
C128 C127 1.291 . S
C128 C129 1.373 . S
C128 H141 0.929 . S
C129 C128 1.373 . S
C129 C130 1.396 . S
C129 C136 1.403 . S
C130 C120 1.476 . S
C130 N125 1.318 . S
C130 C129 1.396 . S
H131 C126 0.929 . S
O132 Mn108 2.385 . S
O132 C110 1.234 . S
O133 Mn108 2.209 1_565 S
O133 Mn109 2.215 . S
O133 C110 1.283 1_565 S
O134 Mn108 2.094 . S
O134 C112 1.240 . S
O135 Mn109 2.117 . S
O135 C112 1.264 1_565 S
C136 C129 1.403 . S
C136 C137 1.399 . S
C136 H142 0.929 . S
C137 C117 1.449 . S
C137 C136 1.399 . S
C137 H143 0.930 1_556 S
H138 C118 0.931 1_554 S
H139 C119 0.930 . S
H140 C127 0.931 . S
H141 C128 0.929 . S
H142 C136 0.929 . S
H143 C137 0.930 1_554 S
Mn144 O149 2.095 . S
Mn144 O159 2.162 . S
Mn144 O160 2.297 . S
Mn144 O168 2.385 . S
Mn144 O169 2.209 . S
Mn144 O170 2.094 . S
Mn145 O150 2.121 . S
Mn145 N152 2.257 . S
Mn145 N161 2.282 . S
Mn145 O169 2.215 . S
Mn145 O171 2.117 . S
C146 O168 1.234 . S
C146 O169 1.283 . S
C147 O159 1.281 . S
C147 O160 1.236 . S
C148 O170 1.240 . S
C148 O171 1.264 . S
O149 Mn144 2.095 . S
O149 C158 1.250 . S
O150 Mn145 2.121 . S
O150 C158 1.258 . S
C151 N152 1.326 . S
C151 C155 1.460 1_556 S
C151 H157 0.929 . S
N152 Mn145 2.257 . S
N152 C151 1.326 . S
N152 C156 1.362 . S
C153 C154 1.258 . S
C153 C156 1.431 1_554 S
C153 C173 1.449 . S
C154 C153 1.258 . S
C154 C155 1.477 . S
C154 H174 0.931 . S
C155 C151 1.460 1_554 S
C155 C154 1.477 . S
C155 H175 0.930 . S
C156 N152 1.362 . S
C156 C153 1.431 1_556 S
C156 C166 1.476 . S
H157 C151 0.929 . S
C158 O149 1.250 . S
C158 O150 1.258 . S
O159 Mn144 2.162 . S
O159 C147 1.281 . S
O160 Mn144 2.297 . S
O160 C147 1.236 . S
N161 Mn145 2.282 . S
N161 C162 1.328 . S
N161 C166 1.318 . S
C162 N161 1.328 . S
C162 C163 1.457 . S
C162 H167 0.929 . S
C163 C162 1.457 . S
C163 C164 1.291 . S
C163 H176 0.931 . S
C164 C163 1.291 . S
C164 C165 1.373 . S
C164 H177 0.929 . S
C165 C164 1.373 . S
C165 C166 1.396 . S
C165 C172 1.403 1_556 S
C166 C156 1.476 . S
C166 N161 1.318 . S
C166 C165 1.396 . S
H167 C162 0.929 . S
O168 Mn144 2.385 . S
O168 C146 1.234 . S
O169 Mn144 2.209 . S
O169 Mn145 2.215 . S
O169 C146 1.283 . S
O170 Mn144 2.094 . S
O170 C148 1.240 . S
O171 Mn145 2.117 . S
O171 C148 1.264 . S
C172 C165 1.403 1_554 S
C172 C173 1.399 . S
C172 H178 0.929 . S
C173 C153 1.449 . S
C173 C172 1.399 . S
C173 H179 0.930 . S
H174 C154 0.931 . S
H175 C155 0.930 . S
H176 C163 0.931 . S
H177 C164 0.929 . S
H178 C172 0.929 . S
H179 C173 0.930 . S
Mn180 O185 2.095 1_655 S
Mn180 O195 2.162 . S
Mn180 O196 2.297 1_556 S
Mn180 O204 2.385 1_556 S
Mn180 O205 2.209 1_656 S
Mn180 O206 2.094 . S
Mn181 O186 2.121 . S
Mn181 N188 2.257 1_556 S
Mn181 N197 2.282 . S
Mn181 O205 2.215 1_556 S
Mn181 O207 2.117 . S
C182 O204 1.234 1_455 S
C182 O205 1.283 . S
C183 O195 1.281 . S
C183 O196 1.236 1_556 S
C184 O206 1.240 1_455 S
C184 O207 1.264 . S
O185 Mn180 2.095 1_455 S
O185 C194 1.250 . S
O186 Mn181 2.121 . S
O186 C194 1.258 . S
C187 N188 1.326 . S
C187 C191 1.460 . S
C187 H193 0.929 . S
N188 Mn181 2.257 1_554 S
N188 C187 1.326 . S
N188 C192 1.362 . S
C189 C190 1.258 . S
C189 C192 1.431 . S
C189 C209 1.449 . S
C190 C189 1.258 . S
C190 C191 1.477 . S
C190 H210 0.931 . S
C191 C187 1.460 . S
C191 C190 1.477 . S
C191 H211 0.930 . S
C192 N188 1.362 . S
C192 C189 1.431 . S
C192 C202 1.476 . S
H193 C187 0.929 . S
C194 O185 1.250 . S
C194 O186 1.258 . S
O195 Mn180 2.162 . S
O195 C183 1.281 . S
O196 Mn180 2.297 1_554 S
O196 C183 1.236 1_554 S
N197 Mn181 2.282 . S
N197 C198 1.328 . S
N197 C202 1.318 1_556 S
C198 N197 1.328 . S
C198 C199 1.457 1_556 S
C198 H203 0.929 . S
C199 C198 1.457 1_554 S
C199 C200 1.291 . S
C199 H212 0.931 1_554 S
C200 C199 1.291 . S
C200 C201 1.373 . S
C200 H213 0.929 . S
C201 C200 1.373 . S
C201 C202 1.396 . S
C201 C208 1.403 . S
C202 C192 1.476 . S
C202 N197 1.318 1_554 S
C202 C201 1.396 . S
H203 C198 0.929 . S
O204 Mn180 2.385 1_554 S
O204 C182 1.234 1_655 S
O205 Mn180 2.209 1_454 S
O205 Mn181 2.215 1_554 S
O205 C182 1.283 . S
O206 Mn180 2.094 . S
O206 C184 1.240 1_655 S
O207 Mn181 2.117 . S
O207 C184 1.264 . S
C208 C201 1.403 . S
C208 C209 1.399 . S
C208 H214 0.929 . S
C209 C189 1.449 . S
C209 C208 1.399 . S
C209 H215 0.930 . S
H210 C190 0.931 . S
H211 C191 0.930 . S
H212 C199 0.931 1_556 S
H213 C200 0.929 . S
H214 C208 0.929 . S
H215 C209 0.930 . S
C2 C112 1.562 . S
C38 C148 1.563 . S
C184 C74 1.563 . S
C4 C110 1.563 . S
C40 C146 1.563 1_554 S
C182 C76 1.562 . S
C50 C3 1.341 . S
C86 C39 1.341 . S
C75 C122 1.341 . S
C158 C111 1.341 . S
C194 C147 1.341 . S
C183 C14 1.340 1_556 S
