# Generated by pormake.
# Topology qtz, (4)-cn, num edge types: 1
# Building blocks:
#     Node 0, Type 0, BuildingBlock: AZAVOO_clean_sbu_0, # of connection points: 4
#     Node 1, Type 0, BuildingBlock: AZAVOO_clean_sbu_0, # of connection points: 4
#     Node 2, Type 0, BuildingBlock: AZAVOO_clean_sbu_0, # of connection points: 4
#     Edge 3, Type (0, 0), BuildingBlock: EZIPEK_clean_linker_0, # of connection points: 2
#     Edge 4, Type (0, 0), BuildingBlock: EZIPEK_clean_linker_0, # of connection points: 2
#     Edge 5, Type (0, 0), BuildingBlock: EZIPEK_clean_linker_0, # of connection points: 2
#     Edge 6, Type (0, 0), BuildingBlock: EZIPEK_clean_linker_0, # of connection points: 2
#     Edge 7, Type (0, 0), BuildingBlock: EZIPEK_clean_linker_0, # of connection points: 2
#     Edge 8, Type (0, 0), BuildingBlock: EZIPEK_clean_linker_0, # of connection points: 2
# Relax obj value: 0.164
# Max RMSD: 0.231
# Mean RMSD: 0.199
data_MOF--net-qtz--node1-AZAVOO_clean_sbu_0--edge1-EZIPEK_clean_linker_0
_symmetry_space_group_name_H-M    P1
_symmetry_Int_Tables_number       1
_symmetry_cell_setting            triclinic
loop_
_symmetry_equiv_pos_as_xyz
'x, y, z'
_cell_length_a     17.129518
_cell_length_b     17.177946
_cell_length_c     21.466908
_cell_angle_alpha  91.76005
_cell_angle_beta   99.775605
_cell_angle_gamma 123.48231
loop_
_atom_site_label
_atom_site_type_symbol
_atom_site_fract_x
_atom_site_fract_y
_atom_site_fract_z
_atom_type_partial_charge
Mg0 Mg 0.97035 0.46532 0.12348 0.0
O1 O 0.08524 0.60707 0.18854 0.0
O2 O 0.01067 0.63562 0.25247 0.0
Mg3 Mg 0.8515 0.51259 0.23059 0.0
C4 C 0.08628 0.65888 0.23315 0.0
C5 C 0.11471 0.45088 0.06305 0.0
O6 O 0.10614 0.39914 0.10853 0.0
O7 O 0.90819 0.53509 0.06465 0.0
O8 O 0.82554 0.54854 0.12987 0.0
O9 O 0.99145 0.38205 0.19488 0.0
O10 O 0.88619 0.41926 0.19052 0.0
C11 C 0.85071 0.55601 0.07644 0.0
C12 C 0.92441 0.37871 0.21737 0.0
O13 O 0.07072 0.49129 0.05781 0.0
Mg14 Mg 0.62068 0.13139 0.48774 0.0
O15 O 0.48622 0.0185 0.41215 0.0
O16 O 0.46323 0.0901 0.33302 0.0
Mg17 Mg 0.58308 0.24844 0.35809 0.0
C18 C 0.43857 0.01589 0.35853 0.0
C19 C 0.6471 0.03036 0.59825 0.0
O20 O 0.7373 0.09832 0.60126 0.0
O21 O 0.53656 0.18372 0.52227 0.0
O22 O 0.52324 0.26144 0.44354 0.0
O23 O 0.71816 0.11876 0.43727 0.0
O24 O 0.67707 0.21948 0.42086 0.0
C25 C 0.51037 0.23505 0.49812 0.0
C26 C 0.72348 0.1852 0.40723 0.0
O27 O 0.5812 0.02499 0.55675 0.0
Mg28 Mg 0.40866 0.52611 0.77971 0.0
O29 O 0.54248 0.55921 0.85102 0.0
O30 O 0.57719 0.66439 0.93315 0.0
Mg31 Mg 0.46746 0.70265 0.91226 0.0
C32 C 0.59334 0.60959 0.90529 0.0
C33 C 0.37626 0.3885 0.66216 0.0
O34 O 0.28671 0.36187 0.65459 0.0
O35 O 0.49426 0.66574 0.74321 0.0
O36 O 0.52169 0.76948 0.82415 0.0
O37 O 0.31364 0.41443 0.83379 0.0
O38 O 0.36331 0.56421 0.8518 0.0
C39 C 0.52709 0.74958 0.76783 0.0
C40 C 0.31676 0.48077 0.86693 0.0
O41 O 0.44029 0.45301 0.7077 0.0
C42 C 0.31316 0.49174 -0.01722 0.0
C43 C 0.26299 0.46123 0.91787 0.0
C44 C 0.11292 0.40985 0.94986 0.0
C45 C 0.1657 0.45255 0.01361 0.0
N46 N 0.31714 0.54202 0.0907 0.0
N47 N 0.11685 0.39797 0.83786 0.0
C48 C 0.26615 0.49515 0.03026 0.0
C49 C 0.16312 0.42151 0.90088 0.0
N50 N 0.40479 0.51475 -0.00096 0.0
N51 N 0.0147 0.35538 0.93653 0.0
H52 H 0.15029 0.40251 0.8005 0.0
H53 H 0.04705 0.37983 0.8224 0.0
H54 H 0.97517 0.34414 -0.02872 0.0
H55 H 0.9723 0.31424 0.89237 0.0
H56 H 0.44276 0.52956 0.04602 0.0
H57 H 0.43898 0.50915 0.96519 0.0
H58 H 0.39186 0.58325 0.10377 0.0
H59 H 0.28509 0.54596 0.12678 0.0
C60 C 0.80034 0.22891 0.24927 0.0
C61 C 0.88463 0.32184 0.26775 0.0
C62 C 0.87556 0.31132 0.37992 0.0
C63 C 0.78402 0.22465 0.36027 0.0
N64 N 0.65641 0.10066 0.27739 0.0
N65 N 0.00321 0.45392 0.34904 0.0
C66 C 0.74607 0.18258 0.29529 0.0
C67 C 0.92328 0.36341 0.33281 0.0
N68 N 0.7727 0.18519 0.18767 0.0
N69 N 0.91667 0.34314 0.44367 0.0
H70 H 0.04149 0.49235 0.31571 0.0
H71 H 0.02892 0.49271 0.39456 0.0
H72 H 0.88315 0.30638 0.47923 0.0
H73 H 0.98678 0.40132 0.46142 0.0
H74 H 0.71713 0.11448 0.17235 0.0
H75 H 0.81074 0.21763 0.15273 0.0
H76 H 0.61932 0.07208 0.23005 0.0
H77 H 0.61653 0.06349 0.31038 0.0
C78 C 0.55535 0.95027 0.68119 0.0
C79 C 0.62157 0.96235 0.64439 0.0
C80 C 0.63747 0.84518 0.69655 0.0
C81 C 0.5621 0.82467 0.72685 0.0
N82 N 0.43426 0.84349 0.73608 0.0
N83 N 0.71418 0.91014 0.6089 0.0
C84 C 0.51698 0.87347 0.71613 0.0
C85 C 0.66004 0.90711 0.64999 0.0
N86 N 0.53118 0.01377 0.68448 0.0
N87 N 0.6891 0.80754 0.71342 0.0
H88 H 0.73056 0.95279 0.5731 0.0
H89 H 0.73531 0.86393 0.6064 0.0
H90 H 0.67539 0.76297 0.74802 0.0
H91 H 0.751 0.82751 0.69761 0.0
H92 H 0.4907 0.01335 0.7158 0.0
H93 H 0.55992 0.07285 0.6611 0.0
H94 H 0.39345 0.87074 0.72341 0.0
H95 H 0.40047 0.78477 0.75933 0.0
C96 C 0.63965 0.50344 0.95091 0.0
C97 C 0.66625 0.59585 0.94089 0.0
C98 C 0.82232 0.66387 0.0151 0.0
C99 C 0.79615 0.57157 0.02319 0.0
N100 N 0.6924 0.40401 -0.01386 0.0
N101 N 0.79103 0.76169 0.95091 0.0
C102 C 0.70924 0.49168 -0.01359 0.0
C103 C 0.76031 0.67555 0.96921 0.0
N104 N 0.54632 0.42735 0.93134 0.0
N105 N 0.90522 0.74003 0.05225 0.0
H106 H 0.74832 0.77183 0.91603 0.0
H107 H 0.86141 0.82077 0.96558 0.0
H108 H 0.95401 0.73343 0.08392 0.0
H109 H 0.92309 0.80878 0.0541 0.0
H110 H 0.52166 0.36108 0.94457 0.0
H111 H 0.49065 0.4311 0.90739 0.0
H112 H 0.63509 0.34475 0.95469 0.0
H113 H 0.74061 0.39201 0.01286 0.0
C114 C 0.26209 0.91793 0.30623 0.0
C115 C 0.3491 0.92414 0.32589 0.0
C116 C 0.26194 0.75375 0.28956 0.0
C117 C 0.17798 0.75036 0.26324 0.0
N118 N 0.1064 0.83571 0.23339 0.0
N119 N 0.43527 0.85066 0.32439 0.0
C120 C 0.18045 0.83438 0.26773 0.0
C121 C 0.35008 0.84278 0.31421 0.0
N122 N 0.25547 0.98976 0.32684 0.0
N123 N 0.25707 0.67201 0.29385 0.0
H124 H 0.50159 0.91446 0.34131 0.0
H125 H 0.44075 0.79563 0.31015 0.0
H126 H 0.19381 0.60519 0.278 0.0
H127 H 0.31367 0.67025 0.31885 0.0
H128 H 0.19086 0.98445 0.31899 0.0
H129 H 0.31174 0.05034 0.35782 0.0
H130 H 0.10915 0.89756 0.23011 0.0
H131 H 0.0468 0.77717 0.20261 0.0
C132 C 0.47873 0.40836 0.58559 0.0
C133 C 0.40443 0.34726 0.61631 0.0
C134 C 0.38901 0.21075 0.56081 0.0
C135 C 0.47185 0.27299 0.53734 0.0
N136 N 0.60744 0.43248 0.53851 0.0
N137 N 0.29789 0.19075 0.64092 0.0
C138 C 0.51987 0.37228 0.55252 0.0
C139 C 0.36144 0.24835 0.6058 0.0
N140 N 0.50818 0.5004 0.58628 0.0
N141 N 0.33516 0.11608 0.53882 0.0
H142 H 0.27705 0.21547 0.67519 0.0
H143 H 0.27245 0.11983 0.64017 0.0
H144 H 0.35246 0.08629 0.50517 0.0
H145 H 0.26873 0.06851 0.54927 0.0
H146 H 0.55532 0.54538 0.55919 0.0
H147 H 0.47781 0.529 0.60835 0.0
H148 H 0.64982 0.50487 0.55471 0.0
H149 H 0.64262 0.40958 0.51656 0.0
loop_
_geom_bond_atom_site_label_1
_geom_bond_atom_site_label_2
_geom_bond_distance
_geom_bond_site_symmetry_2
_ccdc_geom_bond_type
Mg0 O1 2.028 1_655 S
Mg0 O7 1.986 . S
Mg0 O9 2.114 . S
Mg0 O10 2.251 . S
Mg0 O13 2.010 1_655 S
O1 Mg0 2.028 1_455 S
O1 C4 1.250 . S
O2 Mg3 2.028 1_455 S
O2 C4 1.248 . S
Mg3 O2 2.028 1_655 S
Mg3 O8 2.032 . S
Mg3 O10 2.079 . S
C4 O1 1.250 . S
C4 O2 1.248 . S
C5 O6 1.264 . S
C5 O13 1.249 . S
O6 C5 1.264 . S
O7 Mg0 1.986 . S
O7 C11 1.246 . S
O8 Mg3 2.032 . S
O8 C11 1.259 . S
O9 Mg0 2.114 . S
O9 C12 1.252 . S
O10 Mg0 2.251 . S
O10 Mg3 2.079 . S
O10 C12 1.273 . S
C11 O7 1.246 . S
C11 O8 1.259 . S
C12 O9 1.252 . S
C12 O10 1.273 . S
O13 Mg0 2.010 1_455 S
O13 C5 1.249 . S
Mg14 O15 2.028 1_545 S
Mg14 O21 1.986 . S
Mg14 O23 2.114 . S
Mg14 O24 2.251 . S
Mg14 O27 2.010 . S
O15 Mg14 2.028 1_565 S
O15 C18 1.250 . S
O16 Mg17 2.028 . S
O16 C18 1.248 1_545 S
Mg17 O16 2.028 . S
Mg17 O22 2.032 . S
Mg17 O24 2.079 . S
C18 O15 1.250 . S
C18 O16 1.248 1_565 S
C19 O20 1.264 . S
C19 O27 1.249 1_565 S
O20 C19 1.264 . S
O21 Mg14 1.986 . S
O21 C25 1.246 . S
O22 Mg17 2.032 . S
O22 C25 1.259 . S
O23 Mg14 2.114 . S
O23 C26 1.252 . S
O24 Mg14 2.251 . S
O24 Mg17 2.079 . S
O24 C26 1.273 . S
C25 O21 1.246 . S
C25 O22 1.259 . S
C26 O23 1.252 . S
C26 O24 1.273 . S
O27 Mg14 2.010 . S
O27 C19 1.249 1_545 S
Mg28 O29 2.028 . S
Mg28 O35 1.986 . S
Mg28 O37 2.114 . S
Mg28 O38 2.251 . S
Mg28 O41 2.010 . S
O29 Mg28 2.028 . S
O29 C32 1.250 . S
O30 Mg31 2.028 . S
O30 C32 1.248 . S
Mg31 O30 2.028 . S
Mg31 O36 2.032 . S
Mg31 O38 2.079 . S
C32 O29 1.250 . S
C32 O30 1.248 . S
C33 O34 1.264 . S
C33 O41 1.249 . S
O34 C33 1.264 . S
O35 Mg28 1.986 . S
O35 C39 1.246 . S
O36 Mg31 2.032 . S
O36 C39 1.259 . S
O37 Mg28 2.114 . S
O37 C40 1.252 . S
O38 Mg28 2.251 . S
O38 Mg31 2.079 . S
O38 C40 1.273 . S
C39 O35 1.246 . S
C39 O36 1.259 . S
C40 O37 1.252 . S
C40 O38 1.273 . S
O41 Mg28 2.010 . S
O41 C33 1.249 . S
C42 C43 1.363 1_554 S
C42 C48 1.379 . S
C42 N50 1.356 1_554 S
C43 C42 1.363 1_556 S
C43 C49 1.363 . S
C44 C45 1.370 . S
C44 C49 1.371 1_554 S
C44 N51 1.360 . S
C45 C44 1.370 . S
C45 C48 1.363 . S
N46 C48 1.356 . S
N46 H58 0.984 . S
N46 H59 0.985 . S
N47 C49 1.356 . S
N47 H52 0.984 . S
N47 H53 0.985 . S
C48 C42 1.379 . S
C48 C45 1.363 . S
C48 N46 1.356 . S
C49 C43 1.363 . S
C49 C44 1.371 1_556 S
C49 N47 1.356 . S
N50 C42 1.356 1_556 S
N50 H56 0.984 1_556 S
N50 H57 0.984 . S
N51 C44 1.360 . S
N51 H54 0.984 . S
N51 H55 0.985 1_554 S
H52 N47 0.984 . S
H53 N47 0.985 . S
H54 N51 0.984 . S
H55 N51 0.985 1_556 S
H56 N50 0.984 1_554 S
H57 N50 0.984 . S
H58 N46 0.984 . S
H59 N46 0.985 . S
C60 C61 1.363 . S
C60 C66 1.379 . S
C60 N68 1.356 . S
C61 C60 1.363 . S
C61 C67 1.363 . S
C62 C63 1.363 . S
C62 C67 1.379 . S
C62 N69 1.356 . S
C63 C62 1.363 . S
C63 C66 1.363 . S
N64 C66 1.356 . S
N64 H76 0.984 . S
N64 H77 0.985 . S
N65 C67 1.356 . S
N65 H70 0.984 . S
N65 H71 0.985 . S
C66 C60 1.379 . S
C66 C63 1.363 . S
C66 N64 1.356 . S
C67 C61 1.363 . S
C67 C62 1.379 . S
C67 N65 1.356 . S
N68 C60 1.356 . S
N68 H74 0.984 . S
N68 H75 0.984 . S
N69 C62 1.356 . S
N69 H72 0.984 . S
N69 H73 0.985 . S
H70 N65 0.984 . S
H71 N65 0.985 . S
H72 N69 0.984 . S
H73 N69 0.985 . S
H74 N68 0.984 . S
H75 N68 0.984 . S
H76 N64 0.984 . S
H77 N64 0.985 . S
C78 C79 1.363 . S
C78 C84 1.379 . S
C78 N86 1.356 . S
C79 C78 1.363 . S
C79 C85 1.363 . S
C80 C81 1.363 . S
C80 C85 1.379 . S
C80 N87 1.356 . S
C81 C80 1.363 . S
C81 C84 1.363 . S
N82 C84 1.356 . S
N82 H94 0.984 . S
N82 H95 0.985 . S
N83 C85 1.356 . S
N83 H88 0.984 . S
N83 H89 0.985 . S
C84 C78 1.379 . S
C84 C81 1.363 . S
C84 N82 1.356 . S
C85 C79 1.363 . S
C85 C80 1.379 . S
C85 N83 1.356 . S
N86 C78 1.356 . S
N86 H92 0.984 . S
N86 H93 0.984 . S
N87 C80 1.356 . S
N87 H90 0.984 . S
N87 H91 0.985 . S
H88 N83 0.984 . S
H89 N83 0.985 . S
H90 N87 0.984 . S
H91 N87 0.985 . S
H92 N86 0.984 . S
H93 N86 0.984 . S
H94 N82 0.984 . S
H95 N82 0.985 . S
C96 C97 1.363 . S
C96 C102 1.379 1_556 S
C96 N104 1.356 . S
C97 C96 1.363 . S
C97 C103 1.363 . S
C98 C99 1.363 . S
C98 C103 1.379 1_554 S
C98 N105 1.356 . S
C99 C98 1.363 . S
C99 C102 1.363 . S
N100 C102 1.356 . S
N100 H112 0.984 . S
N100 H113 0.985 . S
N101 C103 1.356 . S
N101 H106 0.984 . S
N101 H107 0.985 . S
C102 C96 1.379 1_554 S
C102 C99 1.363 . S
C102 N100 1.356 . S
C103 C97 1.363 . S
C103 C98 1.379 1_556 S
C103 N101 1.356 . S
N104 C96 1.356 . S
N104 H110 0.984 . S
N104 H111 0.984 . S
N105 C98 1.356 . S
N105 H108 0.984 . S
N105 H109 0.985 1_655 S
H106 N101 0.984 . S
H107 N101 0.985 . S
H108 N105 0.984 . S
H109 N105 0.985 1_455 S
H110 N104 0.984 . S
H111 N104 0.984 . S
H112 N100 0.984 . S
H113 N100 0.985 . S
C114 C115 1.363 . S
C114 C120 1.379 . S
C114 N122 1.356 . S
C115 C114 1.363 . S
C115 C121 1.363 . S
C116 C117 1.363 . S
C116 C121 1.379 . S
C116 N123 1.356 . S
C117 C116 1.363 . S
C117 C120 1.363 . S
N118 C120 1.356 . S
N118 H130 0.984 . S
N118 H131 0.985 . S
N119 C121 1.356 . S
N119 H124 0.984 . S
N119 H125 0.985 . S
C120 C114 1.379 . S
C120 C117 1.363 . S
C120 N118 1.356 . S
C121 C115 1.363 . S
C121 C116 1.379 . S
C121 N119 1.356 . S
N122 C114 1.356 . S
N122 H128 0.984 . S
N122 H129 0.984 . S
N123 C116 1.356 . S
N123 H126 0.984 . S
N123 H127 0.985 . S
H124 N119 0.984 . S
H125 N119 0.985 . S
H126 N123 0.984 . S
H127 N123 0.985 . S
H128 N122 0.984 . S
H129 N122 0.984 . S
H130 N118 0.984 . S
H131 N118 0.985 . S
C132 C133 1.363 . S
C132 C138 1.379 . S
C132 N140 1.356 . S
C133 C132 1.363 . S
C133 C139 1.363 . S
C134 C135 1.363 . S
C134 C139 1.379 . S
C134 N141 1.356 . S
C135 C134 1.363 . S
C135 C138 1.363 . S
N136 C138 1.356 . S
N136 H148 0.984 . S
N136 H149 0.985 . S
N137 C139 1.356 . S
N137 H142 0.984 . S
N137 H143 0.985 . S
C138 C132 1.379 . S
C138 C135 1.363 . S
C138 N136 1.356 . S
C139 C133 1.363 . S
C139 C134 1.379 . S
C139 N137 1.356 . S
N140 C132 1.356 . S
N140 H146 0.984 . S
N140 H147 0.984 . S
N141 C134 1.356 . S
N141 H144 0.984 . S
N141 H145 0.985 . S
H142 N137 0.984 . S
H143 N137 0.985 . S
H144 N141 0.984 . S
H145 N141 0.985 . S
H146 N140 0.984 . S
H147 N140 0.984 . S
H148 N136 0.984 . S
H149 N136 0.985 . S
C43 C40 1.384 . S
C45 C5 1.162 . S
C61 C12 1.413 . S
C63 C26 1.405 . S
C79 C19 1.136 . S
C81 C39 1.320 . S
C97 C32 1.325 . S
C99 C11 1.335 . S
C115 C18 1.382 . S
C117 C4 1.376 . S
C133 C33 1.157 . S
C135 C25 1.315 . S
