# Generated by pormake.
# Topology rac, (4)-cn, num edge types: 1
# Building blocks:
#     Node 0, Type 0, BuildingBlock: GALJAG_clean_sbu_0, # of connection points: 4
#     Node 1, Type 0, BuildingBlock: GALJAG_clean_sbu_0, # of connection points: 4
#     Node 2, Type 0, BuildingBlock: GALJAG_clean_sbu_0, # of connection points: 4
#     Node 3, Type 0, BuildingBlock: GALJAG_clean_sbu_0, # of connection points: 4
#     Node 4, Type 0, BuildingBlock: GALJAG_clean_sbu_0, # of connection points: 4
#     Node 5, Type 0, BuildingBlock: GALJAG_clean_sbu_0, # of connection points: 4
#     Node 6, Type 0, BuildingBlock: GALJAG_clean_sbu_0, # of connection points: 4
#     Node 7, Type 0, BuildingBlock: GALJAG_clean_sbu_0, # of connection points: 4
#     Edge 8, Type (0, 0), None
#     Edge 9, Type (0, 0), None
#     Edge 10, Type (0, 0), None
#     Edge 11, Type (0, 0), None
#     Edge 12, Type (0, 0), None
#     Edge 13, Type (0, 0), None
#     Edge 14, Type (0, 0), None
#     Edge 15, Type (0, 0), None
#     Edge 16, Type (0, 0), None
#     Edge 17, Type (0, 0), None
#     Edge 18, Type (0, 0), None
#     Edge 19, Type (0, 0), None
#     Edge 20, Type (0, 0), None
#     Edge 21, Type (0, 0), None
#     Edge 22, Type (0, 0), None
#     Edge 23, Type (0, 0), None
# Relax obj value: 0.253
# Max RMSD: 0.115
# Mean RMSD: 0.115
data_MOF--net-rac--node1-GALJAG_clean_sbu_0--edge1-none
_symmetry_space_group_name_H-M    P1
_symmetry_Int_Tables_number       1
_symmetry_cell_setting            triclinic
loop_
_symmetry_equiv_pos_as_xyz
'x, y, z'
_cell_length_a     16.306635
_cell_length_b     10.591616
_cell_length_c     16.728777
_cell_angle_alpha  89.96514
_cell_angle_beta   89.999605
_cell_angle_gamma 89.994411
loop_
_atom_site_label
_atom_site_type_symbol
_atom_site_fract_x
_atom_site_fract_y
_atom_site_fract_z
_atom_type_partial_charge
In0 In 0.34725 0.27137 0.07401 0.0
O1 O 0.30324 0.31347 0.19988 0.0
O2 O 0.41071 0.19983 0.18828 0.0
C3 C 0.25351 0.42715 0.99506 0.0
C4 C 0.26938 0.05386 0.03436 0.0
C5 C 0.46763 0.44263 0.04018 0.0
O6 O 0.23221 0.37388 0.05958 0.0
O7 O 0.31767 0.38415 0.96282 0.0
O8 O 0.46615 0.33308 1.00815 0.0
O9 O 0.41335 0.46031 0.09287 0.0
C10 C 0.35951 0.25248 0.23434 0.0
O11 O 0.34752 0.06168 0.03433 0.0
O12 O 0.23292 0.15506 0.0503 0.0
In13 In 0.14581 0.71583 0.07407 0.0
O14 O 0.1458 0.92536 0.03396 0.0
O15 O 0.26032 0.83205 0.05092 0.0
C16 C 0.02541 0.54469 0.04019 0.0
C17 C 0.13322 0.73474 0.23435 0.0
C18 C 0.23958 0.56048 0.99508 0.0
O19 O 0.02689 0.65435 1.00821 0.0
O20 O 0.0797 0.52684 0.09286 0.0
O21 O 0.26091 0.6135 0.05962 0.0
O22 O 0.17538 0.6034 0.96282 0.0
C23 C 0.22395 0.93317 0.03447 0.0
O24 O 0.18917 0.67288 0.20007 0.0
O25 O 0.0825 0.78826 0.18814 0.0
In26 In 0.34726 0.21598 0.48155 0.0
O27 O 0.34753 0.42565 0.52126 0.0
O28 O 0.23293 0.33228 0.50532 0.0
C29 C 0.46764 0.0447 0.51542 0.0
C30 C 0.3595 0.235 0.32123 0.0
C31 C 0.25351 0.06018 0.56042 0.0
O32 O 0.46613 0.15424 0.54746 0.0
O33 O 0.41339 0.02705 0.46269 0.0
O34 O 0.23224 0.11346 0.49589 0.0
O35 O 0.31764 0.10317 0.5927 0.0
C36 C 0.26939 0.43347 0.52126 0.0
O37 O 0.30324 0.17398 0.35568 0.0
O38 O 0.41073 0.28756 0.36729 0.0
In39 In 0.1458 0.77148 0.48149 0.0
O40 O 0.1458 0.56197 0.52164 0.0
O41 O 0.26031 0.65527 0.5047 0.0
C42 C 0.0254 0.94264 0.5154 0.0
C43 C 0.13323 0.75243 0.32122 0.0
C44 C 0.23958 0.92686 0.5604 0.0
O45 O 0.0269 0.83299 0.54739 0.0
O46 O 0.07967 0.96046 0.4627 0.0
O47 O 0.26088 0.87382 0.49585 0.0
O48 O 0.17541 0.88394 0.59271 0.0
C49 C 0.22394 0.55416 0.52114 0.0
O50 O 0.18917 0.81433 0.35548 0.0
O51 O 0.08248 0.69901 0.36744 0.0
In52 In 0.64554 0.71613 0.98161 0.0
O53 O 0.68941 0.67391 0.85572 0.0
O54 O 0.58198 0.78762 0.86734 0.0
C55 C 0.73945 0.5602 0.06017 0.0
C56 C 0.72357 0.93357 1.02125 0.0
C57 C 0.52518 0.54493 1.01565 0.0
O58 O 0.76056 0.61353 0.99562 0.0
O59 O 0.67538 0.60312 0.09263 0.0
O60 O 0.52672 0.65448 0.04768 0.0
O61 O 0.57936 0.52726 0.96287 0.0
C62 C 0.63312 0.73485 0.82127 0.0
O63 O 0.64543 0.92588 1.02124 0.0
O64 O 0.75995 0.83228 1.00535 0.0
In65 In 0.84746 0.27141 0.98154 0.0
O66 O 0.84726 0.06185 1.02168 0.0
O67 O 0.73284 0.15537 1.00463 0.0
C68 C 0.96785 0.44248 1.01562 0.0
C69 C 0.86026 0.25261 0.82125 0.0
C70 C 0.75352 0.42691 0.06016 0.0
O71 O 0.96631 0.33283 0.0476 0.0
O72 O 0.91365 0.46033 0.96287 0.0
O73 O 0.73238 0.37382 0.99558 0.0
O74 O 0.81763 0.38406 0.09262 0.0
C75 C 0.76912 0.05419 1.02112 0.0
O76 O 0.80434 0.31457 0.8555 0.0
O77 O 0.91084 0.19886 0.86751 0.0
In78 In 0.64552 0.77116 0.57404 0.0
O79 O 0.64542 0.56143 0.53437 0.0
O80 O 0.75994 0.65504 0.55021 0.0
C81 C 0.52516 0.94238 0.53997 0.0
C82 C 0.63313 0.75229 0.73437 0.0
C83 C 0.73945 0.92714 0.49558 0.0
O84 O 0.52673 0.83284 0.50792 0.0
O85 O 0.57931 0.96002 0.59279 0.0
O86 O 0.76052 0.87379 0.56014 0.0
O87 O 0.67541 0.88423 0.46307 0.0
C88 C 0.72356 0.55376 0.53432 0.0
O89 O 0.6894 0.81327 0.69994 0.0
O90 O 0.58196 0.69962 0.6883 0.0
In91 In 0.84749 0.21597 0.57412 0.0
O92 O 0.80435 0.17291 0.70016 0.0
O93 O 0.91086 0.28857 0.68813 0.0
C94 C 0.75353 0.06041 0.4956 0.0
C95 C 0.76912 0.43315 0.53446 0.0
C96 C 0.96787 0.04487 0.54 0.0
O97 O 0.73242 0.11352 0.56019 0.0
O98 O 0.8176 0.10326 0.46307 0.0
O99 O 0.96631 0.15451 0.508 0.0
O100 O 0.9137 0.02705 0.59279 0.0
C101 C 0.86025 0.23491 0.73439 0.0
O102 O 0.84727 0.42549 0.53393 0.0
O103 O 0.73285 0.33197 0.55094 0.0
loop_
_geom_bond_atom_site_label_1
_geom_bond_atom_site_label_2
_geom_bond_distance
_geom_bond_site_symmetry_2
_ccdc_geom_bond_type
In0 O1 2.294 . S
In0 O2 2.326 . S
In0 O6 2.266 . S
In0 O7 2.326 1_554 S
In0 O8 2.266 1_554 S
In0 O9 2.326 . S
In0 O11 2.294 . S
In0 O12 2.326 . S
O1 In0 2.294 . S
O1 C10 1.240 . S
O2 In0 2.326 . S
O2 C10 1.252 . S
C3 O6 1.252 . S
C3 O7 1.260 1_554 S
C4 O11 1.240 . S
C4 O12 1.252 . S
C5 O8 1.252 . S
C5 O9 1.260 1_556 S
O6 In0 2.266 . S
O6 C3 1.252 . S
O7 In0 2.326 1_556 S
O7 C3 1.260 1_556 S
O8 In0 2.266 1_556 S
O8 C5 1.252 . S
O9 In0 2.326 . S
O9 C5 1.260 1_554 S
C10 O1 1.240 . S
C10 O2 1.252 . S
O11 In0 2.294 . S
O11 C4 1.240 . S
O12 In0 2.326 . S
O12 C4 1.252 . S
In13 O14 2.294 . S
In13 O15 2.326 . S
In13 O19 2.266 1_554 S
In13 O20 2.326 . S
In13 O21 2.266 . S
In13 O22 2.326 1_554 S
In13 O24 2.294 . S
In13 O25 2.326 . S
O14 In13 2.294 . S
O14 C23 1.240 . S
O15 In13 2.326 . S
O15 C23 1.252 . S
C16 O19 1.252 . S
C16 O20 1.260 1_556 S
C17 O24 1.240 . S
C17 O25 1.252 . S
C18 O21 1.252 . S
C18 O22 1.260 1_554 S
O19 In13 2.266 1_556 S
O19 C16 1.252 . S
O20 In13 2.326 . S
O20 C16 1.260 1_554 S
O21 In13 2.266 . S
O21 C18 1.252 . S
O22 In13 2.326 1_556 S
O22 C18 1.260 1_556 S
C23 O14 1.240 . S
C23 O15 1.252 . S
O24 In13 2.294 . S
O24 C17 1.240 . S
O25 In13 2.326 . S
O25 C17 1.252 . S
In26 O27 2.294 . S
In26 O28 2.326 . S
In26 O32 2.266 . S
In26 O33 2.326 . S
In26 O34 2.266 . S
In26 O35 2.326 . S
In26 O37 2.294 . S
In26 O38 2.326 . S
O27 In26 2.294 . S
O27 C36 1.240 . S
O28 In26 2.326 . S
O28 C36 1.252 . S
C29 O32 1.252 . S
C29 O33 1.260 . S
C30 O37 1.240 . S
C30 O38 1.252 . S
C31 O34 1.252 . S
C31 O35 1.260 . S
O32 In26 2.266 . S
O32 C29 1.252 . S
O33 In26 2.326 . S
O33 C29 1.260 . S
O34 In26 2.266 . S
O34 C31 1.252 . S
O35 In26 2.326 . S
O35 C31 1.260 . S
C36 O27 1.240 . S
C36 O28 1.252 . S
O37 In26 2.294 . S
O37 C30 1.240 . S
O38 In26 2.326 . S
O38 C30 1.252 . S
In39 O40 2.294 . S
In39 O41 2.326 . S
In39 O45 2.266 . S
In39 O46 2.326 . S
In39 O47 2.266 . S
In39 O48 2.326 . S
In39 O50 2.294 . S
In39 O51 2.326 . S
O40 In39 2.294 . S
O40 C49 1.240 . S
O41 In39 2.326 . S
O41 C49 1.252 . S
C42 O45 1.252 . S
C42 O46 1.260 . S
C43 O50 1.240 . S
C43 O51 1.252 . S
C44 O47 1.252 . S
C44 O48 1.260 . S
O45 In39 2.266 . S
O45 C42 1.252 . S
O46 In39 2.326 . S
O46 C42 1.260 . S
O47 In39 2.266 . S
O47 C44 1.252 . S
O48 In39 2.326 . S
O48 C44 1.260 . S
C49 O40 1.240 . S
C49 O41 1.252 . S
O50 In39 2.294 . S
O50 C43 1.240 . S
O51 In39 2.326 . S
O51 C43 1.252 . S
In52 O53 2.294 . S
In52 O54 2.326 . S
In52 O58 2.266 . S
In52 O59 2.326 1_556 S
In52 O60 2.266 1_556 S
In52 O61 2.326 . S
In52 O63 2.294 . S
In52 O64 2.326 . S
O53 In52 2.294 . S
O53 C62 1.240 . S
O54 In52 2.326 . S
O54 C62 1.252 . S
C55 O58 1.252 . S
C55 O59 1.260 1_556 S
C56 O63 1.240 . S
C56 O64 1.252 . S
C57 O60 1.252 . S
C57 O61 1.260 1_554 S
O58 In52 2.266 . S
O58 C55 1.252 . S
O59 In52 2.326 1_554 S
O59 C55 1.260 1_554 S
O60 In52 2.266 1_554 S
O60 C57 1.252 . S
O61 In52 2.326 . S
O61 C57 1.260 1_556 S
C62 O53 1.240 . S
C62 O54 1.252 . S
O63 In52 2.294 . S
O63 C56 1.240 . S
O64 In52 2.326 . S
O64 C56 1.252 . S
In65 O66 2.294 . S
In65 O67 2.326 . S
In65 O71 2.266 1_556 S
In65 O72 2.326 . S
In65 O73 2.266 . S
In65 O74 2.326 1_556 S
In65 O76 2.294 . S
In65 O77 2.326 . S
O66 In65 2.294 . S
O66 C75 1.240 . S
O67 In65 2.326 . S
O67 C75 1.252 . S
C68 O71 1.252 . S
C68 O72 1.260 1_554 S
C69 O76 1.240 . S
C69 O77 1.252 . S
C70 O73 1.252 . S
C70 O74 1.260 1_556 S
O71 In65 2.266 1_554 S
O71 C68 1.252 . S
O72 In65 2.326 . S
O72 C68 1.260 1_556 S
O73 In65 2.266 . S
O73 C70 1.252 . S
O74 In65 2.326 1_554 S
O74 C70 1.260 1_554 S
C75 O66 1.240 . S
C75 O67 1.252 . S
O76 In65 2.294 . S
O76 C69 1.240 . S
O77 In65 2.326 . S
O77 C69 1.252 . S
In78 O79 2.294 . S
In78 O80 2.326 . S
In78 O84 2.266 . S
In78 O85 2.326 . S
In78 O86 2.266 . S
In78 O87 2.326 . S
In78 O89 2.294 . S
In78 O90 2.326 . S
O79 In78 2.294 . S
O79 C88 1.240 . S
O80 In78 2.326 . S
O80 C88 1.252 . S
C81 O84 1.252 . S
C81 O85 1.260 . S
C82 O89 1.240 . S
C82 O90 1.252 . S
C83 O86 1.252 . S
C83 O87 1.260 . S
O84 In78 2.266 . S
O84 C81 1.252 . S
O85 In78 2.326 . S
O85 C81 1.260 . S
O86 In78 2.266 . S
O86 C83 1.252 . S
O87 In78 2.326 . S
O87 C83 1.260 . S
C88 O79 1.240 . S
C88 O80 1.252 . S
O89 In78 2.294 . S
O89 C82 1.240 . S
O90 In78 2.326 . S
O90 C82 1.252 . S
In91 O92 2.294 . S
In91 O93 2.326 . S
In91 O97 2.266 . S
In91 O98 2.326 . S
In91 O99 2.266 . S
In91 O100 2.326 . S
In91 O102 2.294 . S
In91 O103 2.326 . S
O92 In91 2.294 . S
O92 C101 1.240 . S
O93 In91 2.326 . S
O93 C101 1.252 . S
C94 O97 1.252 . S
C94 O98 1.260 . S
C95 O102 1.240 . S
C95 O103 1.252 . S
C96 O99 1.252 . S
C96 O100 1.260 . S
O97 In91 2.266 . S
O97 C94 1.252 . S
O98 In91 2.326 . S
O98 C94 1.260 . S
O99 In91 2.266 . S
O99 C96 1.252 . S
O100 In91 2.326 . S
O100 C96 1.260 . S
C101 O92 1.240 . S
C101 O93 1.252 . S
O102 In91 2.294 . S
O102 C95 1.240 . S
O103 In91 2.326 . S
O103 C95 1.252 . S
C4 C23 1.977 1_545 S
C49 C36 1.977 . S
C56 C75 1.977 1_565 S
C88 C95 1.977 . S
C10 C30 2.311 . S
C43 C17 2.311 . S
C62 C82 2.311 . S
C101 C69 2.311 . S
C5 C57 1.873 1_556 S
C16 C68 1.874 1_456 S
C81 C29 1.874 1_565 S
C96 C42 1.874 1_645 S
C18 C3 1.163 . S
C31 C44 1.163 1_545 S
C55 C70 1.163 . S
C83 C94 1.163 1_565 S
