# Generated by pormake.
# Topology lon, (4)-cn, num edge types: 1
# Building blocks:
#     Node 0, Type 0, BuildingBlock: GALJAG_clean_sbu_0, # of connection points: 4
#     Node 1, Type 0, BuildingBlock: GALJAG_clean_sbu_0, # of connection points: 4
#     Node 2, Type 0, BuildingBlock: GALJAG_clean_sbu_0, # of connection points: 4
#     Node 3, Type 0, BuildingBlock: GALJAG_clean_sbu_0, # of connection points: 4
#     Edge 4, Type (0, 0), None
#     Edge 5, Type (0, 0), None
#     Edge 6, Type (0, 0), None
#     Edge 7, Type (0, 0), None
#     Edge 8, Type (0, 0), None
#     Edge 9, Type (0, 0), None
#     Edge 10, Type (0, 0), None
#     Edge 11, Type (0, 0), None
# Relax obj value: 0.209
# Max RMSD: 0.226
# Mean RMSD: 0.214
data_MOF--net-lon--node1-GALJAG_clean_sbu_0--edge1-none
_symmetry_space_group_name_H-M    P1
_symmetry_Int_Tables_number       1
_symmetry_cell_setting            triclinic
loop_
_symmetry_equiv_pos_as_xyz
'x, y, z'
_cell_length_a     10.408168
_cell_length_b     11.571063
_cell_length_c     18.093758
_cell_angle_alpha  91.506086
_cell_angle_beta   90.293014
_cell_angle_gamma 116.48356
loop_
_atom_site_label
_atom_site_type_symbol
_atom_site_fract_x
_atom_site_fract_y
_atom_site_fract_z
_atom_type_partial_charge
In0 In 0.33721 0.68705 0.05875 0.0
O1 O 0.1455 0.64565 0.98232 0.0
O2 O 0.12395 0.50552 0.06147 0.0
C3 C 0.46081 0.9321 0.01061 0.0
C4 C 0.34312 0.71318 0.20725 0.0
C5 C 0.46169 0.5396 0.01004 0.0
O6 O 0.34263 0.88505 0.04325 0.0
O7 O 0.51813 0.85705 0.00288 0.0
O8 O 0.46082 0.56924 0.07744 0.0
O9 O 0.40262 0.58595 0.96678 0.0
C10 C 0.06701 0.53812 0.00962 0.0
O11 O 0.45393 0.73359 0.17096 0.0
O12 O 0.23083 0.68365 0.16892 0.0
In13 In 0.64826 0.31291 0.55839 0.0
O14 O 0.45685 0.13264 0.51158 0.0
O15 O 0.65098 0.11958 0.53294 0.0
C16 C 0.5216 0.45646 0.51009 0.0
C17 C 0.63971 0.28318 0.70578 0.0
C18 C 0.91561 0.45741 0.50956 0.0
O19 O 0.55168 0.38474 0.46724 0.0
O20 O 0.55414 0.4556 0.57715 0.0
O21 O 0.86774 0.4885 0.56655 0.0
O22 O 0.8295 0.35372 0.47696 0.0
C23 C 0.52242 0.0637 0.51014 0.0
O24 O 0.75214 0.31162 0.66937 0.0
O25 O 0.53075 0.26796 0.66815 0.0
In26 In 0.32888 0.6797 0.43525 0.0
O27 O 0.32606 0.87304 0.46057 0.0
O28 O 0.5198 0.85967 0.48265 0.0
C29 C 0.06079 0.53583 0.48338 0.0
C30 C 0.34109 0.71048 0.28794 0.0
C31 C 0.45418 0.53524 0.48388 0.0
O32 O 0.1471 0.63913 0.51625 0.0
O33 O 0.10874 0.50485 0.42638 0.0
O34 O 0.42156 0.53594 0.41682 0.0
O35 O 0.42474 0.60751 0.52662 0.0
C36 C 0.45436 0.92873 0.48379 0.0
O37 O 0.44909 0.72541 0.32632 0.0
O38 O 0.22774 0.68186 0.32356 0.0
In39 In 0.64937 0.3087 0.93497 0.0
O40 O 0.75316 0.31142 0.82406 0.0
O41 O 0.52989 0.26079 0.82354 0.0
C42 C 0.9203 0.45708 0.9833 0.0
C43 C 0.52606 0.45698 0.98393 0.0
C44 C 0.52624 0.06392 0.98347 0.0
O45 O 0.86322 0.48964 0.93151 0.0
O46 O 0.84167 0.34984 0.01086 0.0
O47 O 0.46909 0.13907 0.99139 0.0
O48 O 0.64407 0.11075 0.95049 0.0
C49 C 0.63984 0.28124 0.78649 0.0
O50 O 0.58467 0.41013 0.02715 0.0
O51 O 0.52693 0.42748 0.91652 0.0
loop_
_geom_bond_atom_site_label_1
_geom_bond_atom_site_label_2
_geom_bond_distance
_geom_bond_site_symmetry_2
_ccdc_geom_bond_type
In0 O1 2.294 . S
In0 O2 2.326 . S
In0 O6 2.266 . S
In0 O7 2.326 . S
In0 O8 2.266 . S
In0 O9 2.326 1_554 S
In0 O11 2.294 . S
In0 O12 2.326 . S
O1 In0 2.294 . S
O1 C10 1.240 . S
O2 In0 2.326 . S
O2 C10 1.252 . S
C3 O6 1.252 . S
C3 O7 1.260 . S
C4 O11 1.240 . S
C4 O12 1.252 . S
C5 O8 1.252 1_556 S
C5 O9 1.260 . S
O6 In0 2.266 . S
O6 C3 1.252 . S
O7 In0 2.326 . S
O7 C3 1.260 . S
O8 In0 2.266 . S
O8 C5 1.252 1_554 S
O9 In0 2.326 1_556 S
O9 C5 1.260 . S
C10 O1 1.240 . S
C10 O2 1.252 . S
O11 In0 2.294 . S
O11 C4 1.240 . S
O12 In0 2.326 . S
O12 C4 1.252 . S
In13 O14 2.294 . S
In13 O15 2.326 . S
In13 O19 2.266 . S
In13 O20 2.326 . S
In13 O21 2.266 . S
In13 O22 2.326 . S
In13 O24 2.294 . S
In13 O25 2.326 . S
O14 In13 2.294 . S
O14 C23 1.240 . S
O15 In13 2.326 . S
O15 C23 1.252 . S
C16 O19 1.252 . S
C16 O20 1.260 . S
C17 O24 1.240 . S
C17 O25 1.252 . S
C18 O21 1.252 . S
C18 O22 1.260 . S
O19 In13 2.266 . S
O19 C16 1.252 . S
O20 In13 2.326 . S
O20 C16 1.260 . S
O21 In13 2.266 . S
O21 C18 1.252 . S
O22 In13 2.326 . S
O22 C18 1.260 . S
C23 O14 1.240 . S
C23 O15 1.252 . S
O24 In13 2.294 . S
O24 C17 1.240 . S
O25 In13 2.326 . S
O25 C17 1.252 . S
In26 O27 2.294 . S
In26 O28 2.326 . S
In26 O32 2.266 . S
In26 O33 2.326 . S
In26 O34 2.266 . S
In26 O35 2.326 . S
In26 O37 2.294 . S
In26 O38 2.326 . S
O27 In26 2.294 . S
O27 C36 1.240 . S
O28 In26 2.326 . S
O28 C36 1.252 . S
C29 O32 1.252 . S
C29 O33 1.260 . S
C30 O37 1.240 . S
C30 O38 1.252 . S
C31 O34 1.252 . S
C31 O35 1.260 . S
O32 In26 2.266 . S
O32 C29 1.252 . S
O33 In26 2.326 . S
O33 C29 1.260 . S
O34 In26 2.266 . S
O34 C31 1.252 . S
O35 In26 2.326 . S
O35 C31 1.260 . S
C36 O27 1.240 . S
C36 O28 1.252 . S
O37 In26 2.294 . S
O37 C30 1.240 . S
O38 In26 2.326 . S
O38 C30 1.252 . S
In39 O40 2.294 . S
In39 O41 2.326 . S
In39 O45 2.266 . S
In39 O46 2.326 1_556 S
In39 O47 2.260 1_556 S
In39 O48 2.326 . S
In39 O50 2.294 . S
In39 O51 2.326 . S
O40 In39 2.294 . S
O40 C49 1.240 . S
O41 In39 2.326 . S
O41 C49 1.252 . S
C42 O45 1.252 1_554 S
C42 O46 1.260 . S
C43 O50 1.240 . S
C43 O51 1.252 . S
C44 O47 1.248 1_556 S
C44 O48 1.260 . S
O45 In39 2.266 . S
O45 C42 1.252 1_556 S
O46 In39 2.326 1_554 S
O46 C42 1.260 . S
O47 In39 2.260 1_554 S
O47 C44 1.248 1_554 S
O48 In39 2.326 . S
O48 C44 1.260 . S
C49 O40 1.240 . S
C49 O41 1.252 . S
O50 In39 2.294 . S
O50 C43 1.240 . S
O51 In39 2.326 . S
O51 C43 1.252 . S
C4 C30 1.662 . S
C17 C49 1.662 . S
C5 C43 1.616 . S
C29 C18 1.813 1_455 S
C44 C3 2.011 1_546 S
C16 C31 1.813 . S
C10 C42 1.616 1_455 S
C23 C36 1.451 1_545 S
