# Generated by pormake.
# Topology wjg, (4)-cn, num edge types: 1
# Building blocks:
#     Node 0, Type 0, BuildingBlock: CEKHIL_clean_sbu_0, # of connection points: 4
#     Node 1, Type 0, BuildingBlock: CEKHIL_clean_sbu_0, # of connection points: 4
#     Node 2, Type 0, BuildingBlock: CEKHIL_clean_sbu_0, # of connection points: 4
#     Node 3, Type 0, BuildingBlock: CEKHIL_clean_sbu_0, # of connection points: 4
#     Node 4, Type 0, BuildingBlock: CEKHIL_clean_sbu_0, # of connection points: 4
#     Node 5, Type 0, BuildingBlock: CEKHIL_clean_sbu_0, # of connection points: 4
#     Node 6, Type 0, BuildingBlock: CEKHIL_clean_sbu_0, # of connection points: 4
#     Node 7, Type 0, BuildingBlock: CEKHIL_clean_sbu_0, # of connection points: 4
#     Node 8, Type 0, BuildingBlock: CEKHIL_clean_sbu_0, # of connection points: 4
#     Node 9, Type 0, BuildingBlock: CEKHIL_clean_sbu_0, # of connection points: 4
#     Node 10, Type 0, BuildingBlock: CEKHIL_clean_sbu_0, # of connection points: 4
#     Node 11, Type 0, BuildingBlock: CEKHIL_clean_sbu_0, # of connection points: 4
#     Edge 12, Type (0, 0), None
#     Edge 13, Type (0, 0), None
#     Edge 14, Type (0, 0), None
#     Edge 15, Type (0, 0), None
#     Edge 16, Type (0, 0), None
#     Edge 17, Type (0, 0), None
#     Edge 18, Type (0, 0), None
#     Edge 19, Type (0, 0), None
#     Edge 20, Type (0, 0), None
#     Edge 21, Type (0, 0), None
#     Edge 22, Type (0, 0), None
#     Edge 23, Type (0, 0), None
#     Edge 24, Type (0, 0), None
#     Edge 25, Type (0, 0), None
#     Edge 26, Type (0, 0), None
#     Edge 27, Type (0, 0), None
#     Edge 28, Type (0, 0), None
#     Edge 29, Type (0, 0), None
#     Edge 30, Type (0, 0), None
#     Edge 31, Type (0, 0), None
#     Edge 32, Type (0, 0), None
#     Edge 33, Type (0, 0), None
#     Edge 34, Type (0, 0), None
#     Edge 35, Type (0, 0), None
# Relax obj value: 0.304
# Max RMSD: 0.125
# Mean RMSD: 0.115
data_MOF--net-wjg--node1-CEKHIL_clean_sbu_0--edge1-none
_symmetry_space_group_name_H-M    P1
_symmetry_Int_Tables_number       1
_symmetry_cell_setting            triclinic
loop_
_symmetry_equiv_pos_as_xyz
'x, y, z'
_cell_length_a     13.786296
_cell_length_b     13.73957
_cell_length_c     18.068479
_cell_angle_alpha  90.002329
_cell_angle_beta   90.00485
_cell_angle_gamma 120.14598
loop_
_atom_site_label
_atom_site_type_symbol
_atom_site_fract_x
_atom_site_fract_y
_atom_site_fract_z
_atom_type_partial_charge
Co0 Co 0.17985 0.42639 0.31654 0.0
O1 O 0.1556 0.42392 0.20931 0.0
O2 O 0.01967 0.36709 0.28995 0.0
C3 C 0.3294 0.59464 0.33266 0.0
O4 O 0.18781 0.42533 0.43035 0.0
Co5 Co 0.39452 0.42949 0.37259 0.0
O6 O 0.36492 0.47314 0.46698 0.0
C7 C 0.18544 0.22003 0.36197 0.0
C8 C 0.04928 0.38063 0.22027 0.0
C9 C 0.26685 0.45397 0.47991 0.0
O10 O 0.15215 0.26827 0.31545 0.0
O11 O 0.26523 0.27868 0.40628 0.0
O12 O 0.23211 0.58697 0.32338 0.0
O13 O 0.33615 0.50712 0.31419 0.0
Co14 Co 0.74317 0.18428 0.65005 0.0
O15 O 0.72197 0.1604 0.54282 0.0
O16 O 0.64215 0.02358 0.62322 0.0
C17 C 0.72462 0.33365 0.66618 0.0
O18 O 0.75201 0.1923 0.76385 0.0
Co19 Co 0.95529 0.39931 0.70595 0.0
O20 O 0.88181 0.37037 0.80013 0.0
C21 C 0.95442 0.18982 0.69587 0.0
C22 C 0.65877 0.05364 0.5536 0.0
C23 C 0.80263 0.27196 0.81324 0.0
O24 O 0.87317 0.1568 0.64918 0.0
O25 O 0.97619 0.26999 0.74008 0.0
O26 O 0.63494 0.23582 0.65672 0.0
O27 O 0.81899 0.34107 0.64778 0.0
Co28 Co 0.54761 0.7464 0.98319 0.0
O29 O 0.55024 0.72469 0.87595 0.0
O30 O 0.60714 0.64559 0.95659 0.0
C31 C 0.37979 0.72737 0.99943 0.0
O32 O 0.5488 0.75567 0.09696 0.0
Co33 Co 0.54489 0.95885 0.03894 0.0
O34 O 0.5015 0.88569 0.13343 0.0
C35 C 0.75345 0.95905 0.02866 0.0
C36 C 0.59394 0.66198 0.8869 0.0
C37 C 0.5205 0.8065 0.14646 0.0
O38 O 0.70518 0.87733 0.98209 0.0
O39 O 0.69514 0.98058 0.07284 0.0
O40 O 0.38748 0.63748 0.99012 0.0
O41 O 0.467 0.822 0.98085 0.0
Co42 Co 0.79096 0.5531 0.31652 0.0
O43 O 0.81519 0.55554 0.20928 0.0
O44 O 0.95114 0.61241 0.28993 0.0
C45 C 0.64142 0.38485 0.33265 0.0
O46 O 0.78301 0.5542 0.43032 0.0
Co47 Co 0.57631 0.55002 0.37252 0.0
O48 O 0.6059 0.50641 0.46692 0.0
C49 C 0.78538 0.75947 0.36192 0.0
C50 C 0.92152 0.59884 0.22025 0.0
C51 C 0.70397 0.52557 0.47987 0.0
O52 O 0.81865 0.71122 0.31541 0.0
O53 O 0.70559 0.70084 0.40623 0.0
O54 O 0.73871 0.39253 0.32338 0.0
O55 O 0.63466 0.47235 0.31416 0.0
Co56 Co 0.22764 0.79526 0.65006 0.0
O57 O 0.24886 0.81914 0.54283 0.0
O58 O 0.32867 0.95596 0.62325 0.0
C59 C 0.24619 0.64589 0.6662 0.0
O60 O 0.21878 0.78723 0.76386 0.0
Co61 Co 0.01552 0.58023 0.7059 0.0
O62 O 0.08897 0.60916 0.8001 0.0
C63 C 0.01639 0.78973 0.69585 0.0
C64 C 0.31207 0.9259 0.55363 0.0
C65 C 0.16815 0.70756 0.81323 0.0
O66 O 0.09764 0.82274 0.64916 0.0
O67 O -0.00537 0.70956 0.74005 0.0
O68 O 0.33587 0.74372 0.65675 0.0
O69 O 0.15182 0.63846 0.64777 0.0
Co70 Co 0.42315 0.23309 0.98322 0.0
O71 O 0.42051 0.2548 0.87599 0.0
O72 O 0.36364 0.33391 0.95663 0.0
C73 C 0.59098 0.25212 0.99946 0.0
O74 O 0.422 0.22384 0.09699 0.0
Co75 Co 0.42589 0.02066 0.03896 0.0
O76 O 0.4693 0.09382 0.13346 0.0
C77 C 0.21733 0.02046 0.02869 0.0
C78 C 0.37683 0.31753 0.88694 0.0
C79 C 0.4503 0.17301 0.14649 0.0
O80 O 0.26558 0.10217 0.98212 0.0
O81 O 0.27566 -0.00107 0.07286 0.0
O82 O 0.58329 0.34201 0.99015 0.0
O83 O 0.50375 0.15748 0.98087 0.0
Co84 Co 0.57998 0.85342 0.38687 0.0
O85 O 0.59239 0.86844 0.49574 0.0
O86 O 0.61969 0.00537 0.42104 0.0
C87 C 0.42128 0.68861 0.37357 0.0
O88 O 0.56488 0.85871 0.27249 0.0
Co89 Co 0.60033 0.66594 0.29891 0.0
O90 O 0.5044 0.68121 0.23038 0.0
C91 C 0.78191 0.85646 0.33361 0.0
C92 C 0.61885 0.97283 0.48899 0.0
C93 C 0.52157 0.77962 0.22201 0.0
O94 O 0.74607 0.90269 0.37934 0.0
O95 O 0.72933 0.82254 0.27389 0.0
O96 O 0.41684 0.77833 0.39098 0.0
O97 O 0.51908 0.69681 0.3783 0.0
Co98 Co 0.71648 0.58419 0.72046 0.0
O99 O 0.71304 0.59623 0.82941 0.0
O100 O 0.60431 0.62344 0.75435 0.0
C101 C 0.7223 0.42538 0.70705 0.0
O102 O 0.69645 0.56946 0.60603 0.0
Co103 Co 0.92409 0.6052 0.63241 0.0
O104 O 0.81273 0.50912 0.56369 0.0
C105 C 0.91639 0.78691 0.66774 0.0
C106 C 0.63536 0.62247 0.82242 0.0
C107 C 0.73186 0.52631 0.55541 0.0
O108 O 0.83418 0.75092 0.71335 0.0
O109 O 0.89731 0.73462 0.60782 0.0
O110 O 0.62808 0.42038 0.72424 0.0
O111 O 0.81194 0.52369 0.71192 0.0
Co112 Co 0.12205 0.71973 0.05373 0.0
O113 O 0.10675 0.71698 0.16264 0.0
O114 O 0.97023 0.60757 0.08778 0.0
C115 C 0.28613 0.7253 0.04038 0.0
O116 O 0.11671 0.69939 0.93935 0.0
Co117 Co 0.30958 0.92795 0.96573 0.0
O118 O 0.29372 0.81615 0.89716 0.0
C119 C 0.12024 0.91986 1.00049 0.0
C120 C 0.00246 0.63931 0.15577 0.0
C121 C 0.19537 0.73505 0.88879 0.0
O122 O 0.07384 0.83756 0.04624 0.0
O123 O 0.15373 0.90086 0.94076 0.0
O124 O 0.19646 0.63091 0.05776 0.0
O125 O 0.27829 0.81535 0.04517 0.0
Co126 Co 0.39087 0.12611 0.3869 0.0
O127 O 0.37849 0.1111 0.49578 0.0
O128 O 0.35115 0.97416 0.42107 0.0
C129 C 0.54957 0.29091 0.37359 0.0
O130 O 0.40593 0.1208 0.27252 0.0
Co131 Co 0.37047 0.31357 0.29897 0.0
O132 O 0.46634 0.29828 0.23042 0.0
C133 C 0.18892 0.12305 0.33365 0.0
C134 C 0.35201 0.00671 0.48902 0.0
C135 C 0.44921 0.19988 0.22204 0.0
O136 O 0.22477 0.07684 0.37938 0.0
O137 O 0.24147 0.15696 0.27393 0.0
O138 O 0.55401 0.2012 0.391 0.0
O139 O 0.45177 0.28272 0.37834 0.0
Co140 Co 0.25433 0.39536 0.7205 0.0
O141 O 0.25777 0.38333 0.82945 0.0
O142 O 0.36649 0.35611 0.7544 0.0
C143 C 0.24851 0.55417 0.70707 0.0
O144 O 0.27436 0.41008 0.60607 0.0
Co145 Co 0.04669 0.37434 0.63243 0.0
O146 O 0.15805 0.47038 0.5637 0.0
C147 C 0.05442 0.19264 0.66775 0.0
C148 C 0.33544 0.35708 0.82246 0.0
C149 C 0.23893 0.45321 0.55544 0.0
O150 O 0.13663 0.22864 0.71337 0.0
O151 O 0.07348 0.24492 0.60784 0.0
O152 O 0.34273 0.55918 0.72429 0.0
O153 O 0.15887 0.45586 0.71194 0.0
Co154 Co 0.84873 0.25976 0.05373 0.0
O155 O 0.86405 0.26249 0.16264 0.0
O156 O 0.00055 0.37192 0.0878 0.0
C157 C 0.68465 0.25419 0.04039 0.0
O158 O 0.85407 0.28012 0.93936 0.0
Co159 Co 0.66118 0.05155 0.96569 0.0
O160 O 0.67705 0.16337 0.89715 0.0
C161 C 0.85053 0.05963 1.00047 0.0
C162 C 0.96833 0.34017 0.15578 0.0
C163 C 0.7754 0.24447 0.88879 0.0
O164 O 0.89695 0.14194 0.04622 0.0
O165 O 0.81703 0.07863 0.94074 0.0
O166 O 0.77432 0.34858 0.05778 0.0
O167 O 0.6925 0.16414 0.04516 0.0
loop_
_geom_bond_atom_site_label_1
_geom_bond_atom_site_label_2
_geom_bond_distance
_geom_bond_site_symmetry_2
_ccdc_geom_bond_type
Co0 O1 2.216 . S
Co0 O2 2.091 1_455 S
Co0 O4 2.004 . S
Co0 O10 2.021 . S
Co0 O12 2.137 . S
Co0 O13 2.244 . S
O1 Co0 2.216 . S
O1 C8 1.247 1_455 S
O2 Co0 2.091 1_655 S
O2 C8 1.261 . S
C3 O12 1.247 . S
C3 O13 1.272 . S
O4 Co0 2.004 . S
O4 C9 1.259 . S
Co5 O6 2.061 . S
Co5 O11 2.052 . S
Co5 O13 2.135 . S
O6 Co5 2.061 . S
O6 C9 1.235 . S
C7 O10 1.238 . S
C7 O11 1.241 . S
C8 O1 1.247 1_655 S
C8 O2 1.261 . S
C9 O4 1.259 . S
C9 O6 1.235 . S
O10 Co0 2.021 . S
O10 C7 1.238 . S
O11 Co5 2.052 . S
O11 C7 1.241 . S
O12 Co0 2.137 . S
O12 C3 1.247 . S
O13 Co0 2.244 . S
O13 C3 1.272 . S
O13 Co5 2.135 . S
Co14 O15 2.216 . S
Co14 O16 2.091 1_545 S
Co14 O18 2.004 . S
Co14 O24 2.021 . S
Co14 O26 2.137 . S
Co14 O27 2.244 . S
O15 Co14 2.216 . S
O15 C22 1.247 1_545 S
O16 Co14 2.091 1_565 S
O16 C22 1.261 . S
C17 O26 1.247 . S
C17 O27 1.272 . S
O18 Co14 2.004 . S
O18 C23 1.259 . S
Co19 O20 2.061 . S
Co19 O25 2.052 . S
Co19 O27 2.135 . S
O20 Co19 2.061 . S
O20 C23 1.235 . S
C21 O24 1.238 . S
C21 O25 1.241 . S
C22 O15 1.247 1_565 S
C22 O16 1.261 . S
C23 O18 1.259 . S
C23 O20 1.235 . S
O24 Co14 2.021 . S
O24 C21 1.238 . S
O25 Co19 2.052 . S
O25 C21 1.241 . S
O26 Co14 2.137 . S
O26 C17 1.247 . S
O27 Co14 2.244 . S
O27 C17 1.272 . S
O27 Co19 2.135 . S
Co28 O29 2.216 . S
Co28 O30 2.091 . S
Co28 O32 2.004 1_556 S
Co28 O38 2.021 . S
Co28 O40 2.137 . S
Co28 O41 2.244 1_556 S
O29 Co28 2.216 . S
O29 C36 1.247 . S
O30 Co28 2.091 . S
O30 C36 1.261 . S
C31 O40 1.247 . S
C31 O41 1.270 1_556 S
O32 Co28 2.004 1_554 S
O32 C37 1.259 . S
Co33 O34 2.061 . S
Co33 O39 2.052 . S
Co33 O41 2.139 . S
O34 Co33 2.061 . S
O34 C37 1.235 . S
C35 O38 1.238 . S
C35 O39 1.241 1_556 S
C36 O29 1.247 . S
C36 O30 1.261 . S
C37 O32 1.259 . S
C37 O34 1.235 . S
O38 Co28 2.021 . S
O38 C35 1.238 . S
O39 Co33 2.052 . S
O39 C35 1.241 1_554 S
O40 Co28 2.137 . S
O40 C31 1.247 . S
O41 Co28 2.244 1_554 S
O41 C31 1.270 1_554 S
O41 Co33 2.139 . S
Co42 O43 2.216 . S
Co42 O44 2.091 1_655 S
Co42 O46 2.004 . S
Co42 O52 2.021 . S
Co42 O54 2.137 . S
Co42 O55 2.244 . S
O43 Co42 2.216 . S
O43 C50 1.247 1_655 S
O44 Co42 2.091 1_455 S
O44 C50 1.261 . S
C45 O54 1.247 . S
C45 O55 1.272 . S
O46 Co42 2.004 . S
O46 C51 1.259 . S
Co47 O48 2.061 . S
Co47 O53 2.052 . S
Co47 O55 2.135 . S
O48 Co47 2.061 . S
O48 C51 1.235 . S
C49 O52 1.238 . S
C49 O53 1.241 . S
C50 O43 1.247 1_455 S
C50 O44 1.261 . S
C51 O46 1.259 . S
C51 O48 1.235 . S
O52 Co42 2.021 . S
O52 C49 1.238 . S
O53 Co47 2.052 . S
O53 C49 1.241 . S
O54 Co42 2.137 . S
O54 C45 1.247 . S
O55 Co42 2.244 . S
O55 C45 1.272 . S
O55 Co47 2.135 . S
Co56 O57 2.216 . S
Co56 O58 2.091 1_565 S
Co56 O60 2.004 . S
Co56 O66 2.021 . S
Co56 O68 2.137 . S
Co56 O69 2.244 . S
O57 Co56 2.216 . S
O57 C64 1.247 1_565 S
O58 Co56 2.091 1_545 S
O58 C64 1.261 . S
C59 O68 1.247 . S
C59 O69 1.272 . S
O60 Co56 2.004 . S
O60 C65 1.259 . S
Co61 O62 2.061 . S
Co61 O67 2.052 . S
Co61 O69 2.135 . S
O62 Co61 2.061 . S
O62 C65 1.235 . S
C63 O66 1.238 . S
C63 O67 1.241 . S
C64 O57 1.247 1_545 S
C64 O58 1.261 . S
C65 O60 1.259 . S
C65 O62 1.235 . S
O66 Co56 2.021 . S
O66 C63 1.238 . S
O67 Co61 2.052 . S
O67 C63 1.241 . S
O68 Co56 2.137 . S
O68 C59 1.247 . S
O69 Co56 2.244 . S
O69 C59 1.272 . S
O69 Co61 2.135 . S
Co70 O71 2.216 . S
Co70 O72 2.091 . S
Co70 O74 2.004 1_556 S
Co70 O80 2.021 . S
Co70 O82 2.137 . S
Co70 O83 2.244 1_556 S
O71 Co70 2.216 . S
O71 C78 1.247 . S
O72 Co70 2.091 . S
O72 C78 1.261 . S
C73 O82 1.247 . S
C73 O83 1.270 1_556 S
O74 Co70 2.004 1_554 S
O74 C79 1.259 . S
Co75 O76 2.061 . S
Co75 O81 2.052 . S
Co75 O83 2.139 . S
O76 Co75 2.061 . S
O76 C79 1.235 . S
C77 O80 1.238 . S
C77 O81 1.241 1_556 S
C78 O71 1.247 . S
C78 O72 1.261 . S
C79 O74 1.259 . S
C79 O76 1.235 . S
O80 Co70 2.021 . S
O80 C77 1.238 . S
O81 Co75 2.052 . S
O81 C77 1.241 1_554 S
O82 Co70 2.137 . S
O82 C73 1.247 . S
O83 Co70 2.244 1_554 S
O83 C73 1.270 1_554 S
O83 Co75 2.139 . S
Co84 O85 2.216 . S
Co84 O86 2.091 1_565 S
Co84 O88 2.004 . S
Co84 O94 2.021 . S
Co84 O96 2.137 . S
Co84 O97 2.244 . S
O85 Co84 2.216 . S
O85 C92 1.247 1_565 S
O86 Co84 2.091 1_545 S
O86 C92 1.261 . S
C87 O96 1.247 . S
C87 O97 1.272 . S
O88 Co84 2.004 . S
O88 C93 1.259 . S
Co89 O90 2.061 . S
Co89 O95 2.052 . S
Co89 O97 2.135 . S
O90 Co89 2.061 . S
O90 C93 1.235 . S
C91 O94 1.238 . S
C91 O95 1.241 . S
C92 O85 1.247 1_545 S
C92 O86 1.261 . S
C93 O88 1.259 . S
C93 O90 1.235 . S
O94 Co84 2.021 . S
O94 C91 1.238 . S
O95 Co89 2.052 . S
O95 C91 1.241 . S
O96 Co84 2.137 . S
O96 C87 1.247 . S
O97 Co84 2.244 . S
O97 C87 1.272 . S
O97 Co89 2.135 . S
Co98 O99 2.216 . S
Co98 O100 2.091 . S
Co98 O102 2.004 . S
Co98 O108 2.021 . S
Co98 O110 2.137 . S
Co98 O111 2.244 . S
O99 Co98 2.216 . S
O99 C106 1.247 . S
O100 Co98 2.091 . S
O100 C106 1.261 . S
C101 O110 1.247 . S
C101 O111 1.272 . S
O102 Co98 2.004 . S
O102 C107 1.259 . S
Co103 O104 2.061 . S
Co103 O109 2.052 . S
Co103 O111 2.135 . S
O104 Co103 2.061 . S
O104 C107 1.235 . S
C105 O108 1.238 . S
C105 O109 1.241 . S
C106 O99 1.247 . S
C106 O100 1.261 . S
C107 O102 1.259 . S
C107 O104 1.235 . S
O108 Co98 2.021 . S
O108 C105 1.238 . S
O109 Co103 2.052 . S
O109 C105 1.241 . S
O110 Co98 2.137 . S
O110 C101 1.247 . S
O111 Co98 2.244 . S
O111 C101 1.272 . S
O111 Co103 2.135 . S
Co112 O113 2.216 . S
Co112 O114 2.091 1_455 S
Co112 O116 2.004 1_554 S
Co112 O122 2.021 . S
Co112 O124 2.137 . S
Co112 O125 2.244 1_554 S
O113 Co112 2.216 . S
O113 C120 1.247 1_455 S
O114 Co112 2.091 1_655 S
O114 C120 1.261 . S
C115 O124 1.247 . S
C115 O125 1.270 1_554 S
O116 Co112 2.004 1_556 S
O116 C121 1.259 . S
Co117 O118 2.061 . S
Co117 O123 2.052 . S
Co117 O125 2.139 . S
O118 Co117 2.061 . S
O118 C121 1.235 . S
C119 O122 1.238 . S
C119 O123 1.241 1_554 S
C120 O113 1.247 1_655 S
C120 O114 1.261 . S
C121 O116 1.259 . S
C121 O118 1.235 . S
O122 Co112 2.021 . S
O122 C119 1.238 . S
O123 Co117 2.052 . S
O123 C119 1.241 1_556 S
O124 Co112 2.137 . S
O124 C115 1.247 . S
O125 Co112 2.244 1_556 S
O125 C115 1.270 1_556 S
O125 Co117 2.139 . S
Co126 O127 2.216 . S
Co126 O128 2.091 1_545 S
Co126 O130 2.004 . S
Co126 O136 2.021 . S
Co126 O138 2.137 . S
Co126 O139 2.244 . S
O127 Co126 2.216 . S
O127 C134 1.247 1_545 S
O128 Co126 2.091 1_565 S
O128 C134 1.261 . S
C129 O138 1.247 . S
C129 O139 1.272 . S
O130 Co126 2.004 . S
O130 C135 1.259 . S
Co131 O132 2.061 . S
Co131 O137 2.052 . S
Co131 O139 2.135 . S
O132 Co131 2.061 . S
O132 C135 1.235 . S
C133 O136 1.238 . S
C133 O137 1.241 . S
C134 O127 1.247 1_565 S
C134 O128 1.261 . S
C135 O130 1.259 . S
C135 O132 1.235 . S
O136 Co126 2.021 . S
O136 C133 1.238 . S
O137 Co131 2.052 . S
O137 C133 1.241 . S
O138 Co126 2.137 . S
O138 C129 1.247 . S
O139 Co126 2.244 . S
O139 C129 1.272 . S
O139 Co131 2.135 . S
Co140 O141 2.216 . S
Co140 O142 2.091 . S
Co140 O144 2.004 . S
Co140 O150 2.021 . S
Co140 O152 2.137 . S
Co140 O153 2.244 . S
O141 Co140 2.216 . S
O141 C148 1.247 . S
O142 Co140 2.091 . S
O142 C148 1.261 . S
C143 O152 1.247 . S
C143 O153 1.272 . S
O144 Co140 2.004 . S
O144 C149 1.259 . S
Co145 O146 2.061 . S
Co145 O151 2.052 . S
Co145 O153 2.135 . S
O146 Co145 2.061 . S
O146 C149 1.235 . S
C147 O150 1.238 . S
C147 O151 1.241 . S
C148 O141 1.247 . S
C148 O142 1.261 . S
C149 O144 1.259 . S
C149 O146 1.235 . S
O150 Co140 2.021 . S
O150 C147 1.238 . S
O151 Co145 2.052 . S
O151 C147 1.241 . S
O152 Co140 2.137 . S
O152 C143 1.247 . S
O153 Co140 2.244 . S
O153 C143 1.272 . S
O153 Co145 2.135 . S
Co154 O155 2.216 . S
Co154 O156 2.091 1_655 S
Co154 O158 2.004 1_554 S
Co154 O164 2.021 . S
Co154 O166 2.137 . S
Co154 O167 2.244 1_554 S
O155 Co154 2.216 . S
O155 C162 1.247 1_655 S
O156 Co154 2.091 1_455 S
O156 C162 1.261 . S
C157 O166 1.247 . S
C157 O167 1.270 1_554 S
O158 Co154 2.004 1_556 S
O158 C163 1.259 . S
Co159 O160 2.061 . S
Co159 O165 2.052 . S
Co159 O167 2.139 . S
O160 Co159 2.061 . S
O160 C163 1.235 . S
C161 O164 1.238 . S
C161 O165 1.241 1_554 S
C162 O155 1.247 1_455 S
C162 O156 1.261 . S
C163 O158 1.259 . S
C163 O160 1.235 . S
O164 Co154 2.021 . S
O164 C161 1.238 . S
O165 Co159 2.052 . S
O165 C161 1.241 1_556 S
O166 Co154 2.137 . S
O166 C157 1.247 . S
O167 Co154 2.244 1_556 S
O167 C157 1.270 1_556 S
O167 Co159 2.139 . S
C3 C87 1.795 . S
C17 C101 1.795 . S
C31 C115 1.760 1_556 S
C129 C45 1.795 . S
C59 C143 1.795 . S
C157 C73 1.760 1_554 S
C7 C133 1.020 . S
C21 C147 1.020 1_655 S
C161 C35 0.952 1_544 S
C91 C49 1.020 . S
C63 C105 1.020 1_455 S
C77 C119 0.952 1_546 S
C162 C8 2.053 1_455 S
C22 C92 2.239 1_565 S
C36 C106 2.053 . S
C120 C50 2.053 1_655 S
C134 C64 2.239 1_565 S
C78 C148 2.053 . S
C9 C149 2.024 . S
C163 C23 2.027 . S
C93 C37 2.027 . S
C51 C107 2.024 . S
C121 C65 2.027 . S
C135 C79 2.027 . S
