# Generated by pormake.
# Topology pcu, (6)-cn, num edge types: 1
# Building blocks:
#     Node 0, Type 0, BuildingBlock: KUMJIN_clean_sbu_0, # of connection points: 6
#     Edge 1, Type (0, 0), BuildingBlock: EZIPEK_clean_linker_0, # of connection points: 2
#     Edge 2, Type (0, 0), BuildingBlock: EZIPEK_clean_linker_0, # of connection points: 2
#     Edge 3, Type (0, 0), BuildingBlock: EZIPEK_clean_linker_0, # of connection points: 2
# Relax obj value: 0.000
# Max RMSD: 0.000
# Mean RMSD: 0.000
data_MOF--net-pcu--node1-KUMJIN_clean_sbu_0--edge1-EZIPEK_clean_linker_0
_symmetry_space_group_name_H-M    P1
_symmetry_Int_Tables_number       1
_symmetry_cell_setting            triclinic
loop_
_symmetry_equiv_pos_as_xyz
'x, y, z'
_cell_length_a     10.134875
_cell_length_b     20.563192
_cell_length_c     11.321762
_cell_angle_alpha  115.94886
_cell_angle_beta   75.589339
_cell_angle_gamma 114.85929
loop_
_atom_site_label
_atom_site_type_symbol
_atom_site_fract_x
_atom_site_fract_y
_atom_site_fract_z
_atom_type_partial_charge
Eu0 Eu 0.10874 0.10334 0.05547 0.0
C1 C 0.72659 0.77213 0.70215 0.0
C2 C 0.48124 0.75631 0.80535 0.0
C3 C 0.51889 0.68939 0.5691 0.0
C4 C 0.63369 0.79084 0.8134 0.0
C5 C 0.67023 0.72015 0.57903 0.0
C6 C 0.4245 0.70734 0.68216 0.0
C7 C 0.91596 0.7276 0.48704 0.0
N8 N 0.87202 0.802 0.71563 0.0
C9 C 0.96651 0.77832 0.61139 0.0
C10 C 0.76735 0.69904 0.47039 0.0
Eu11 Eu 0.94916 0.88948 0.9293 0.0
N12 N 0.69191 0.83782 0.93109 0.0
C13 C 0.60432 0.84611 0.04541 0.0
C14 C 0.3905 0.7688 0.92212 0.0
C15 C 0.45248 0.81196 0.04288 0.0
H16 H 0.08159 0.80014 0.62339 0.0
H17 H 0.38351 0.8192 0.13406 0.0
H18 H 0.30774 0.68111 0.67391 0.0
H19 H 0.99156 0.71038 0.4042 0.0
H20 H 0.65179 0.87915 0.13868 0.0
H21 H 0.67433 0.17375 0.85053 0.0
H22 H 0.27299 0.74291 0.92021 0.0
H23 H 0.97638 0.19258 0.3615 0.0
H24 H 0.40604 0.11378 0.846 0.0
H25 H 0.06648 0.28229 0.58067 0.0
H26 H 0.47356 0.64986 0.47521 0.0
H27 H 0.78493 0.25001 0.06435 0.0
H28 H 0.75027 0.31176 0.31065 0.0
H29 H 0.72839 0.65936 0.37413 0.0
H30 H 0.58451 0.34292 0.50943 0.0
N31 N 0.366 0.15505 0.0536 0.0
C32 C 0.45354 0.14679 0.93925 0.0
C33 C 0.66742 0.22411 0.06247 0.0
C34 C 0.57672 0.23656 0.17927 0.0
C35 C 0.60539 0.18097 0.94173 0.0
C36 C 0.42426 0.202 0.17127 0.0
H37 H 0.32968 0.33334 0.61063 0.0
N38 N 0.18594 0.19077 0.26914 0.0
C39 C 0.14206 0.2651 0.49779 0.0
C40 C 0.33139 0.22066 0.28257 0.0
C41 C 0.09148 0.21441 0.37344 0.0
C42 C 0.2907 0.29368 0.51438 0.0
C43 C 0.3878 0.27262 0.40568 0.0
O44 O 1.01711 0.19076 0.0967 0.0
O45 O 0.90791 -0.00079 0.98821 0.0
O46 O 0.95826 0.92208 0.76169 0.0
O47 O 0.12258 0.04959 0.82862 0.0
O48 O 0.87804 0.09267 0.14628 0.0
O49 O 0.19338 0.17858 0.94403 0.0
O50 O 0.04076 0.80207 0.88819 0.0
O51 O 0.1498 0.99358 -0.00371 0.0
O52 O 0.09982 0.0707 0.22296 0.0
O53 O 0.93527 0.94326 0.15614 0.0
O54 O 0.18 0.90016 0.83863 0.0
O55 O 0.86447 0.8143 0.04084 0.0
C56 C 0.81049 0.02388 0.06672 0.0
C57 C 0.17256 0.30217 0.0533 0.0
C58 C 0.166 0.42108 0.06209 0.0
C59 C 0.11209 0.34002 0.01672 0.0
C60 C 0.28267 0.46433 0.143 0.0
C61 C 0.2897 0.34575 0.13361 0.0
C62 C 0.34455 0.42659 0.17803 0.0
C63 C 0.03909 0.98598 0.73986 0.0
C64 C 0.10747 0.21763 0.01047 0.0
C65 C 0.53915 0.30341 0.41555 0.0
C66 C 0.6335 0.28551 0.30245 0.0
C67 C 0.24746 0.96902 0.91804 0.0
C68 C 0.88526 0.6907 0.93167 0.0
C69 C 0.94578 0.65285 0.96823 0.0
C70 C 0.89189 0.5718 0.92284 0.0
C71 C 0.7752 0.52854 0.84196 0.0
C72 C 0.76808 0.64712 0.8514 0.0
C73 C 0.71325 0.56627 0.80698 0.0
C74 C 1.01888 0.00684 0.24485 0.0
C75 C 0.95037 0.77523 0.97445 0.0
H76 H 1.0217 0.30664 0.95447 0.0
H77 H 0.3251 0.52701 0.17909 0.0
H78 H 0.33789 0.31751 0.16251 0.0
H79 H 0.43417 0.46007 0.24077 0.0
H80 H 0.0362 0.68625 0.03044 0.0
H81 H 0.7328 0.46586 0.80586 0.0
H82 H 0.71985 0.67535 0.82253 0.0
H83 H 0.62359 0.53278 0.74429 0.0
C84 C 0.89396 0.96761 0.43854 0.0
C85 C 1.02452 0.00487 0.37475 0.0
C86 C 0.164 0.02523 0.54621 0.0
C87 C 0.03344 0.98796 0.60998 0.0
N88 N 0.77388 0.91091 0.60063 0.0
N89 N 0.28407 0.08198 0.38421 0.0
C90 C 0.89895 0.95475 0.55077 0.0
C91 C 0.159 0.03809 0.434 0.0
N92 N 0.76246 0.95225 0.4009 0.0
N93 N 0.2955 0.04061 0.58386 0.0
H94 H 0.30065 0.08105 0.28953 0.0
H95 H 0.37352 0.12111 0.43915 0.0
H96 H 0.30395 0.02284 0.6535 0.0
H97 H 0.39615 0.06187 0.53606 0.0
H98 H 0.66182 0.93099 0.44872 0.0
H99 H 0.75398 0.97 0.33124 0.0
H100 H 0.68438 0.87179 0.54575 0.0
H101 H 0.75737 0.91186 0.69532 0.0
C102 C 0.40007 0.97392 0.07138 0.0
C103 C 0.39187 0.98387 0.95715 0.0
C104 C 0.65789 0.0191 0.91352 0.0
C105 C 0.66609 0.00917 0.02777 0.0
N106 N 0.54968 0.00494 0.23863 0.0
N107 N 0.50829 0.98802 0.74624 0.0
C108 C 0.53854 0.99534 0.11394 0.0
C109 C 0.51943 -0.00232 0.87097 0.0
N110 N 0.27613 0.93643 0.13184 0.0
N111 N 0.78184 0.05653 0.85299 0.0
H112 H 0.40825 0.96681 0.70855 0.0
H113 H 0.59661 0.9936 0.67638 0.0
H114 H 0.88371 0.07952 0.88802 0.0
H115 H 0.78198 0.07273 0.77773 0.0
H116 H 0.27601 0.92023 0.20708 0.0
H117 H 0.17427 0.91342 0.09678 0.0
H118 H 0.46135 -0.00068 0.30847 0.0
H119 H 0.64972 0.02611 0.2763 0.0
C120 C 0.89693 0.50691 0.06392 0.0
C121 C 0.96129 0.53241 0.95779 0.0
C122 C 0.16092 0.48586 0.92084 0.0
C123 C 0.09666 0.46047 0.02711 0.0
N124 N 0.91135 0.44887 0.20517 0.0
N125 N 0.14719 0.54456 0.78034 0.0
C126 C 0.96621 0.47129 0.09991 0.0
C127 C 0.09188 0.5217 0.88511 0.0
N128 N 0.76927 0.5168 0.12936 0.0
N129 N 0.28812 0.47553 0.85492 0.0
H130 H 0.0984 0.57021 0.75101 0.0
H131 H 0.239 0.53703 0.71893 0.0
H132 H 0.33919 0.44776 0.87655 0.0
H133 H 0.34634 0.49503 0.78003 0.0
H134 H 0.71038 0.49654 0.20329 0.0
H135 H 0.71821 0.54464 0.10789 0.0
H136 H 0.82043 0.45719 0.26736 0.0
H137 H 0.96 0.42313 0.23443 0.0
loop_
_geom_bond_atom_site_label_1
_geom_bond_atom_site_label_2
_geom_bond_distance
_geom_bond_site_symmetry_2
_ccdc_geom_bond_type
Eu0 N31 2.657 1_554 S
Eu0 N38 2.609 . S
Eu0 O44 2.558 . S
Eu0 O45 2.612 1_444 S
Eu0 O47 2.339 1_554 S
Eu0 O48 2.563 1_455 S
Eu0 O49 2.419 . S
Eu0 O51 2.380 . S
Eu0 O52 2.432 1_455 S
Eu0 C64 2.848 . S
C1 C4 1.429 . S
C1 C5 1.411 . S
C1 N8 1.377 . S
C2 C4 1.420 . S
C2 C6 1.423 . S
C2 C14 1.392 1_556 S
C3 C5 1.420 . S
C3 C6 1.351 . S
C3 H26 0.931 . S
C4 C1 1.429 . S
C4 C2 1.420 . S
C4 N12 1.362 1_556 S
C5 C1 1.411 . S
C5 C3 1.420 . S
C5 C10 1.395 . S
C6 C2 1.423 . S
C6 C3 1.351 . S
C6 H18 0.930 . S
C7 C9 1.400 . S
C7 C10 1.386 . S
C7 H19 0.930 . S
N8 C1 1.377 . S
N8 C9 1.321 . S
N8 Eu11 2.609 . S
C9 C7 1.400 . S
C9 N8 1.321 . S
C9 H16 0.930 . S
C10 C5 1.395 . S
C10 C7 1.386 . S
C10 H29 0.930 . S
Eu11 N8 2.609 . S
Eu11 N12 2.657 1_556 S
Eu11 O45 2.380 . S
Eu11 O46 2.432 1_655 S
Eu11 O50 2.558 . S
Eu11 O51 2.612 1_666 S
Eu11 O53 2.339 1_556 S
Eu11 O54 2.563 1_655 S
Eu11 O55 2.419 . S
Eu11 C75 2.848 . S
N12 C4 1.362 1_554 S
N12 Eu11 2.657 1_554 S
N12 C13 1.334 . S
C13 N12 1.334 . S
C13 C15 1.413 . S
C13 H20 0.929 . S
C14 C2 1.392 1_554 S
C14 C15 1.367 . S
C14 H22 0.930 . S
C15 C13 1.413 . S
C15 C14 1.367 . S
C15 H17 0.930 . S
H16 C9 0.930 . S
H17 C15 0.930 . S
H18 C6 0.930 . S
H19 C7 0.930 . S
H20 C13 0.929 . S
H21 C35 0.930 . S
H22 C14 0.930 . S
H23 C41 0.930 . S
H24 C32 0.929 . S
H25 C39 0.930 . S
H26 C3 0.931 . S
H27 C33 0.930 . S
H28 C66 0.930 . S
H29 C10 0.930 . S
H30 C65 0.931 . S
N31 Eu0 2.657 1_556 S
N31 C32 1.334 . S
N31 C36 1.362 1_556 S
C32 H24 0.929 . S
C32 N31 1.334 . S
C32 C35 1.413 . S
C33 H27 0.930 . S
C33 C34 1.392 1_556 S
C33 C35 1.367 . S
C34 C33 1.392 1_554 S
C34 C36 1.420 . S
C34 C66 1.423 . S
C35 H21 0.930 . S
C35 C32 1.413 . S
C35 C33 1.367 . S
C36 N31 1.362 1_554 S
C36 C34 1.420 . S
C36 C40 1.429 . S
H37 C42 0.930 . S
N38 Eu0 2.609 . S
N38 C40 1.377 . S
N38 C41 1.321 . S
C39 H25 0.930 . S
C39 C41 1.400 . S
C39 C42 1.386 . S
C40 C36 1.429 . S
C40 N38 1.377 . S
C40 C43 1.411 . S
C41 H23 0.930 . S
C41 N38 1.321 . S
C41 C39 1.400 . S
C42 H37 0.930 . S
C42 C39 1.386 . S
C42 C43 1.395 . S
C43 C40 1.411 . S
C43 C42 1.395 . S
C43 C65 1.420 . S
O44 Eu0 2.558 . S
O44 C64 1.257 . S
O45 Eu0 2.612 1_666 S
O45 Eu11 2.380 . S
O45 C56 1.276 1_566 S
O46 Eu11 2.432 1_455 S
O46 C63 1.264 . S
O47 Eu0 2.339 1_556 S
O47 C63 1.254 1_545 S
O48 Eu0 2.563 1_655 S
O48 C56 1.235 . S
O49 Eu0 2.419 . S
O49 C64 1.249 . S
O50 Eu11 2.558 . S
O50 C75 1.257 . S
O51 Eu0 2.380 . S
O51 Eu11 2.612 1_444 S
O51 C67 1.276 1_544 S
O52 Eu0 2.432 1_655 S
O52 C74 1.264 . S
O53 Eu11 2.339 1_554 S
O53 C74 1.254 1_565 S
O54 Eu11 2.563 1_455 S
O54 C67 1.235 . S
O55 Eu11 2.419 . S
O55 C75 1.249 . S
C56 O45 1.276 1_544 S
C56 O48 1.235 . S
C57 C59 1.393 . S
C57 C61 1.395 . S
C57 C64 1.492 . S
C58 C59 1.392 . S
C58 C60 1.386 . S
C59 C57 1.393 . S
C59 C58 1.392 . S
C59 H76 0.930 1_554 S
C60 C58 1.386 . S
C60 C62 1.395 . S
C60 H77 0.930 . S
C61 C57 1.395 . S
C61 C62 1.379 . S
C61 H78 0.930 . S
C62 C60 1.395 . S
C62 C61 1.379 . S
C62 H79 0.930 . S
C63 O46 1.264 . S
C63 O47 1.254 1_565 S
C64 Eu0 2.848 . S
C64 O44 1.257 . S
C64 O49 1.249 . S
C64 C57 1.492 . S
C65 H30 0.931 . S
C65 C43 1.420 . S
C65 C66 1.351 . S
C66 H28 0.930 . S
C66 C34 1.423 . S
C66 C65 1.351 . S
C67 O51 1.276 1_566 S
C67 O54 1.235 . S
C68 C69 1.393 . S
C68 C72 1.395 . S
C68 C75 1.492 . S
C69 C68 1.393 . S
C69 C70 1.392 . S
C69 H80 0.930 1_556 S
C70 C69 1.392 . S
C70 C71 1.386 . S
C71 C70 1.386 . S
C71 C73 1.395 . S
C71 H81 0.930 . S
C72 C68 1.395 . S
C72 C73 1.379 . S
C72 H82 0.930 . S
C73 C71 1.395 . S
C73 C72 1.379 . S
C73 H83 0.930 . S
C74 O52 1.264 . S
C74 O53 1.254 1_545 S
C75 Eu11 2.848 . S
C75 O50 1.257 . S
C75 O55 1.249 . S
C75 C68 1.492 . S
H76 C59 0.930 1_556 S
H77 C60 0.930 . S
H78 C61 0.930 . S
H79 C62 0.930 . S
H80 C69 0.930 1_554 S
H81 C71 0.930 . S
H82 C72 0.930 . S
H83 C73 0.930 . S
C84 C85 1.363 1_665 S
C84 C90 1.379 . S
C84 N92 1.356 . S
C85 C84 1.363 1_445 S
C85 C91 1.363 . S
C86 C87 1.363 . S
C86 C91 1.379 . S
C86 N93 1.356 . S
C87 C86 1.363 . S
C87 C90 1.363 1_445 S
N88 C90 1.356 . S
N88 H100 0.984 . S
N88 H101 0.985 . S
N89 C91 1.356 . S
N89 H94 0.984 . S
N89 H95 0.985 . S
C90 C84 1.379 . S
C90 C87 1.363 1_665 S
C90 N88 1.356 . S
C91 C85 1.363 . S
C91 C86 1.379 . S
C91 N89 1.356 . S
N92 C84 1.356 . S
N92 H98 0.984 . S
N92 H99 0.984 . S
N93 C86 1.356 . S
N93 H96 0.984 . S
N93 H97 0.985 . S
H94 N89 0.984 . S
H95 N89 0.985 . S
H96 N93 0.984 . S
H97 N93 0.985 . S
H98 N92 0.984 . S
H99 N92 0.984 . S
H100 N88 0.984 . S
H101 N88 0.985 . S
C102 C103 1.363 . S
C102 C108 1.379 . S
C102 N110 1.356 . S
C103 C102 1.363 . S
C103 C109 1.363 1_544 S
C104 C105 1.363 1_566 S
C104 C109 1.379 . S
C104 N111 1.356 . S
C105 C104 1.363 1_544 S
C105 C108 1.363 . S
N106 C108 1.356 . S
N106 H118 0.984 . S
N106 H119 0.985 . S
N107 C109 1.356 . S
N107 H112 0.984 . S
N107 H113 0.985 . S
C108 C102 1.379 . S
C108 C105 1.363 . S
C108 N106 1.356 . S
C109 C103 1.363 1_566 S
C109 C104 1.379 . S
C109 N107 1.356 . S
N110 C102 1.356 . S
N110 H116 0.984 . S
N110 H117 0.984 . S
N111 C104 1.356 . S
N111 H114 0.984 . S
N111 H115 0.985 . S
H112 N107 0.984 . S
H113 N107 0.985 . S
H114 N111 0.984 . S
H115 N111 0.985 . S
H116 N110 0.984 . S
H117 N110 0.984 . S
H118 N106 0.984 . S
H119 N106 0.985 . S
C120 C121 1.363 1_656 S
C120 C126 1.379 . S
C120 N128 1.356 . S
C121 C120 1.363 1_454 S
C121 C127 1.363 . S
C122 C123 1.363 . S
C122 C127 1.379 . S
C122 N129 1.356 . S
C123 C122 1.363 . S
C123 C126 1.363 1_454 S
N124 C126 1.356 . S
N124 H136 0.984 . S
N124 H137 0.985 . S
N125 C127 1.356 . S
N125 H130 0.984 . S
N125 H131 0.985 . S
C126 C120 1.379 . S
C126 C123 1.363 1_656 S
C126 N124 1.356 . S
C127 C121 1.363 . S
C127 C122 1.379 . S
C127 N125 1.356 . S
N128 C120 1.356 . S
N128 H134 0.984 . S
N128 H135 0.984 . S
N129 C122 1.356 . S
N129 H132 0.984 . S
N129 H133 0.985 . S
H130 N125 0.984 . S
H131 N125 0.985 . S
H132 N129 0.984 . S
H133 N129 0.985 . S
H134 N128 0.984 . S
H135 N128 0.984 . S
H136 N124 0.984 . S
H137 N124 0.985 . S
C85 C74 1.472 1_455 S
C87 C63 1.472 1_545 S
C103 C67 1.438 1_544 S
C105 C56 1.438 . S
C121 C70 1.324 1_454 S
C123 C58 1.324 . S
