# Generated by pormake.
# Topology smm, (6)-cn, num edge types: 1
# Building blocks:
#     Node 0, Type 0, BuildingBlock: BETDEL_clean_sbu_0, # of connection points: 6
#     Node 1, Type 0, BuildingBlock: BETDEL_clean_sbu_0, # of connection points: 6
#     Node 2, Type 0, BuildingBlock: BETDEL_clean_sbu_0, # of connection points: 6
#     Node 3, Type 0, BuildingBlock: BETDEL_clean_sbu_0, # of connection points: 6
#     Node 4, Type 0, BuildingBlock: BETDEL_clean_sbu_0, # of connection points: 6
#     Node 5, Type 0, BuildingBlock: BETDEL_clean_sbu_0, # of connection points: 6
#     Node 6, Type 0, BuildingBlock: BETDEL_clean_sbu_0, # of connection points: 6
#     Node 7, Type 0, BuildingBlock: BETDEL_clean_sbu_0, # of connection points: 6
#     Node 8, Type 0, BuildingBlock: BETDEL_clean_sbu_0, # of connection points: 6
#     Edge 9, Type (0, 0), None
#     Edge 10, Type (0, 0), None
#     Edge 11, Type (0, 0), None
#     Edge 12, Type (0, 0), None
#     Edge 13, Type (0, 0), None
#     Edge 14, Type (0, 0), None
#     Edge 15, Type (0, 0), None
#     Edge 16, Type (0, 0), None
#     Edge 17, Type (0, 0), None
#     Edge 18, Type (0, 0), None
#     Edge 19, Type (0, 0), None
#     Edge 20, Type (0, 0), None
#     Edge 21, Type (0, 0), None
#     Edge 22, Type (0, 0), None
#     Edge 23, Type (0, 0), None
#     Edge 24, Type (0, 0), None
#     Edge 25, Type (0, 0), None
#     Edge 26, Type (0, 0), None
#     Edge 27, Type (0, 0), None
#     Edge 28, Type (0, 0), None
#     Edge 29, Type (0, 0), None
#     Edge 30, Type (0, 0), None
#     Edge 31, Type (0, 0), None
#     Edge 32, Type (0, 0), None
#     Edge 33, Type (0, 0), None
#     Edge 34, Type (0, 0), None
#     Edge 35, Type (0, 0), None
# Relax obj value: 0.043
# Max RMSD: 0.121
# Mean RMSD: 0.121
data_MOF--net-smm--node1-BETDEL_clean_sbu_0--edge1-none
_symmetry_space_group_name_H-M    P1
_symmetry_Int_Tables_number       1
_symmetry_cell_setting            triclinic
loop_
_symmetry_equiv_pos_as_xyz
'x, y, z'
_cell_length_a     28.413738
_cell_length_b     28.413528
_cell_length_c     6.069621
_cell_angle_alpha  89.99504
_cell_angle_beta   90.007547
_cell_angle_gamma 120.00158
loop_
_atom_site_label
_atom_site_type_symbol
_atom_site_fract_x
_atom_site_fract_y
_atom_site_fract_z
_atom_type_partial_charge
Dy0 Dy 0.08413 0.25624 0.00231 0.0
C1 C 0.92395 0.02639 0.05791 0.0
C2 C 0.14221 0.35597 0.8095 0.0
Dy3 Dy 0.98741 0.13586 -0.00266 0.0
O4 O 0.1575 0.34086 0.98598 0.0
O5 O 0.09544 0.31712 0.74305 0.0
O6 O 0.09868 0.2524 0.36822 0.0
O7 O 1.02196 0.20234 0.22811 0.0
C8 C 0.04991 0.21088 0.39785 0.0
C9 C 1.02683 0.18302 0.60528 0.0
O10 O 0.94171 0.17774 0.10721 0.0
O11 O 1.00823 0.26437 -0.0036 0.0
O12 O 0.91124 0.05524 0.93111 0.0
O13 O 0.96981 0.0576 0.15553 0.0
O14 O 0.97647 0.14612 0.63453 0.0
O15 O 0.05327 0.18879 0.77684 0.0
O16 O 0.13093 0.21209 0.9701 0.0
O17 O 0.06021 0.1289 0.09297 0.0
C18 C 0.95786 0.22959 0.06416 0.0
C19 C 0.11225 0.16204 0.04663 0.0
Dy20 Dy 0.8059 0.84501 0.00235 0.0
C21 C 0.03576 0.9147 0.05795 0.0
C22 C 0.70617 0.80335 0.80951 0.0
Dy23 Dy 0.9263 0.8687 -0.00255 0.0
O24 O 0.72129 0.83375 0.98597 0.0
O25 O 0.74502 0.79543 0.74311 0.0
O26 O 0.80974 0.86339 0.36824 0.0
O27 O 0.85981 0.83675 0.22821 0.0
C28 C 0.85126 0.85615 0.39791 0.0
C29 C 0.87913 0.86094 0.60537 0.0
O30 O 0.88442 0.7811 0.10737 0.0
O31 O 0.79779 0.76099 -0.00352 0.0
O32 O 1.00691 0.87313 0.93123 0.0
O33 O 1.00457 0.92937 0.15554 0.0
O34 O 0.91604 0.8475 0.63466 0.0
O35 O 0.87336 0.88161 0.7769 0.0
O36 O 0.85004 0.93596 0.97018 0.0
O37 O 0.93324 0.94846 0.09305 0.0
C38 C 0.83257 0.74541 0.06429 0.0
C39 C 0.90007 0.96733 0.04678 0.0
Dy40 Dy 0.21714 0.97802 0.00233 0.0
C41 C 0.14739 0.13811 0.05752 0.0
C42 C 0.2588 0.91996 0.80953 0.0
Dy43 Dy 0.19346 0.07473 -0.00267 0.0
O44 O 0.22839 0.90465 0.98595 0.0
O45 O 0.26674 0.96673 0.74315 0.0
O46 O 0.19877 0.96347 0.36824 0.0
O47 O 0.22541 0.04019 0.22815 0.0
C48 C 0.20601 1.01224 0.39787 0.0
C49 C 0.20121 0.03531 0.60529 0.0
O50 O 0.28106 0.12044 0.1073 0.0
O51 O 0.30117 0.05393 -0.00355 0.0
O52 O 0.18903 0.15091 0.93117 0.0
O53 O 0.13274 0.09226 0.1552 0.0
O54 O 0.21466 0.08567 0.63454 0.0
O55 O 0.18054 1.00887 0.77683 0.0
O56 O 0.12619 0.93121 0.97017 0.0
O57 O 0.11371 1.00192 0.09303 0.0
C58 C 0.31675 0.10429 0.06424 0.0
C59 C 0.09483 0.94988 0.04678 0.0
Dy60 Dy 0.75085 0.58958 0.33577 0.0
C61 C 0.59064 0.35974 0.39134 0.0
C62 C 0.80886 0.68931 0.1431 0.0
Dy63 Dy 0.65411 0.46921 0.3308 0.0
O64 O 0.82422 0.6742 0.31938 0.0
O65 O 0.76211 0.65045 0.07657 0.0
O66 O 0.7654 0.58573 0.70168 0.0
O67 O 0.68867 0.53569 0.56158 0.0
C68 C 0.71662 0.54423 0.73131 0.0
C69 C 0.69354 0.51637 0.93874 0.0
O70 O 0.60842 0.5111 0.44068 0.0
O71 O 0.67495 0.59772 0.32997 0.0
O72 O 0.57793 0.3886 0.26458 0.0
O73 O 0.63651 0.39094 0.48894 0.0
O74 O 0.64318 0.47947 0.96799 0.0
O75 O 0.71998 0.52213 0.1103 0.0
O76 O 0.79763 0.54541 0.30353 0.0
O77 O 0.7269 0.46223 0.42645 0.0
C78 C 0.62458 0.56295 0.39769 0.0
C79 C 0.77894 0.49536 0.38008 0.0
Dy80 Dy 0.47257 0.17837 0.33577 0.0
C81 C 0.70241 0.24799 0.39138 0.0
C82 C 0.37284 0.13667 0.14307 0.0
Dy83 Dy 0.59295 0.20203 0.33087 0.0
O84 O 0.38796 0.16712 0.31938 0.0
O85 O 0.4117 0.12878 0.07653 0.0
O86 O 0.47641 0.19676 0.70165 0.0
O87 O 0.52647 0.17009 0.56164 0.0
C88 C 0.51792 0.1895 0.73133 0.0
C89 C 0.54579 0.19429 0.93878 0.0
O90 O 0.55106 0.11443 0.44077 0.0
O91 O 0.46443 0.09434 0.32996 0.0
O92 O 0.67354 0.20645 0.2646 0.0
O93 O 0.67122 0.26267 0.48902 0.0
O94 O 0.58268 0.18083 0.96809 0.0
O95 O 0.54002 0.21496 0.11031 0.0
O96 O 0.51672 0.26932 0.3036 0.0
O97 O 0.59991 0.2818 0.42646 0.0
C98 C 0.49921 0.07874 0.39773 0.0
C99 C 0.56676 0.30068 0.3802 0.0
Dy100 Dy 0.88377 0.3113 0.33571 0.0
C101 C 0.81407 0.47142 0.39093 0.0
C102 C 0.92549 0.2533 0.143 0.0
Dy103 Dy 0.86011 0.40801 0.33071 0.0
O104 O 0.89503 0.23794 0.31929 0.0
O105 O 0.93337 0.30004 0.07648 0.0
O106 O 0.86539 0.29675 0.70161 0.0
O107 O 0.89205 0.37347 0.56153 0.0
C108 C 0.87265 0.34552 0.73124 0.0
C109 C 0.86785 0.36859 0.93866 0.0
O110 O 0.9477 0.45372 0.44066 0.0
O111 O 0.9678 0.3872 0.32989 0.0
O112 O 0.8557 0.48421 0.26455 0.0
O113 O 0.7994 0.42556 0.48861 0.0
O114 O 0.88131 0.41895 0.96792 0.0
O115 O 0.84718 0.34215 0.1102 0.0
O116 O 0.79282 0.26449 0.30357 0.0
O117 O 0.78036 0.33521 0.42644 0.0
C118 C 0.98339 0.43757 0.39764 0.0
C119 C 0.76147 0.28317 0.3802 0.0
Dy120 Dy 0.41749 0.92291 0.66916 0.0
C121 C 0.25727 0.69307 0.7247 0.0
C122 C 0.4755 0.02265 0.47653 0.0
Dy123 Dy 0.32076 0.80253 0.66418 0.0
O124 O 0.49086 1.00753 0.65276 0.0
O125 O 0.42874 0.98379 0.41 0.0
O126 O 0.43204 0.91907 0.03506 0.0
O127 O 0.35531 0.86902 0.89496 0.0
C128 C 0.38326 0.87756 0.06469 0.0
C129 C 0.36018 0.8497 0.27213 0.0
O130 O 0.27505 0.84442 0.77396 0.0
O131 O 0.3416 0.93106 0.66337 0.0
O132 O 0.24459 0.72192 0.59785 0.0
O133 O 0.30313 0.72427 0.8224 0.0
O134 O 0.30982 0.8128 0.30138 0.0
O135 O 0.38662 0.85546 0.44368 0.0
O136 O 0.46428 0.87874 0.63691 0.0
O137 O 0.39355 0.79556 0.75978 0.0
C138 C 0.29122 0.89627 0.73092 0.0
C139 C 0.44559 0.82869 0.71343 0.0
Dy140 Dy 0.13922 0.51168 0.66909 0.0
C141 C 0.36908 0.58134 0.72471 0.0
C142 C 0.03949 0.46995 0.47644 0.0
Dy143 Dy 0.25961 0.53537 0.66419 0.0
O144 O 0.05461 0.50042 0.6527 0.0
O145 O 0.07835 0.46206 0.40992 0.0
O146 O 0.14306 0.53007 0.03498 0.0
O147 O 0.19313 0.50341 0.89496 0.0
C148 C 0.18458 0.52282 0.06466 0.0
C149 C 0.21245 0.52762 0.27211 0.0
O150 O 0.21774 0.44777 0.774 0.0
O151 O 0.1311 0.42766 0.66327 0.0
O152 O 0.34021 0.53979 0.59791 0.0
O153 O 0.33789 0.59601 0.82235 0.0
O154 O 0.24936 0.51418 0.3014 0.0
O155 O 0.20668 0.54829 0.44364 0.0
O156 O 0.18336 0.60264 0.63693 0.0
O157 O 0.26656 0.61513 0.75979 0.0
C158 C 0.1659 0.41208 0.73089 0.0
C159 C 0.2334 0.63401 0.71354 0.0
Dy160 Dy 0.55046 0.64465 0.66911 0.0
C161 C 0.48072 0.80475 0.72429 0.0
C162 C 0.59221 0.58666 0.47649 0.0
Dy163 Dy 0.52678 0.74135 0.6641 0.0
O164 O 0.56172 0.57129 0.6527 0.0
O165 O 0.6001 0.63341 0.40999 0.0
O166 O 0.53208 0.6301 0.03501 0.0
O167 O 0.55873 0.70682 0.89492 0.0
C168 C 0.53933 0.67887 0.06464 0.0
C169 C 0.53453 0.70194 0.27206 0.0
O170 O 0.61438 0.78708 0.77397 0.0
O171 O 0.63449 0.72055 0.66331 0.0
O172 O 0.52236 0.81754 0.59792 0.0
O173 O 0.46606 0.7589 0.82197 0.0
O174 O 0.54797 0.75229 0.30131 0.0
O175 O 0.51386 0.6755 0.4436 0.0
O176 O 0.45951 0.59784 0.63693 0.0
O177 O 0.44703 0.66855 0.75983 0.0
C178 C 0.65007 0.77093 0.7309 0.0
C179 C 0.42814 0.61651 0.71355 0.0
loop_
_geom_bond_atom_site_label_1
_geom_bond_atom_site_label_2
_geom_bond_distance
_geom_bond_site_symmetry_2
_ccdc_geom_bond_type
Dy0 O4 2.398 . S
Dy0 O5 2.491 1_554 S
Dy0 O6 2.403 . S
Dy0 O7 2.664 . S
Dy0 O11 2.326 1_455 S
Dy0 O15 2.310 1_554 S
Dy0 O16 2.351 1_554 S
C1 O12 1.177 1_564 S
C1 O13 1.349 1_565 S
C2 O4 1.185 1_556 S
C2 O5 1.355 . S
Dy3 O7 2.310 1_656 S
Dy3 O10 2.351 1_556 S
Dy3 O12 2.398 . S
Dy3 O13 2.491 1_556 S
Dy3 O14 2.403 . S
Dy3 O15 2.664 1_655 S
Dy3 O17 2.326 1_655 S
O4 Dy0 2.398 . S
O4 C2 1.185 1_554 S
O5 Dy0 2.491 1_556 S
O5 C2 1.355 . S
O6 Dy0 2.403 . S
O6 C8 1.254 . S
O7 Dy0 2.664 . S
O7 Dy3 2.310 1_454 S
O7 C8 1.268 . S
C8 O6 1.254 . S
C8 O7 1.268 . S
C9 O14 1.254 . S
C9 O15 1.268 1_655 S
O10 Dy3 2.351 1_554 S
O10 C18 1.249 . S
O11 Dy0 2.326 1_655 S
O11 C18 1.267 . S
O12 C1 1.177 1_546 S
O12 Dy3 2.398 . S
O13 C1 1.349 1_545 S
O13 Dy3 2.491 1_554 S
O14 Dy3 2.403 . S
O14 C9 1.254 . S
O15 Dy0 2.310 1_556 S
O15 Dy3 2.664 1_455 S
O15 C9 1.268 1_455 S
O16 Dy0 2.351 1_556 S
O16 C19 1.249 . S
O17 Dy3 2.326 1_455 S
O17 C19 1.267 . S
C18 O10 1.249 . S
C18 O11 1.267 . S
C19 O16 1.249 . S
C19 O17 1.267 . S
Dy20 O24 2.398 . S
Dy20 O25 2.491 1_554 S
Dy20 O26 2.403 . S
Dy20 O27 2.664 . S
Dy20 O31 2.326 . S
Dy20 O35 2.310 1_554 S
Dy20 O36 2.351 1_554 S
C21 O32 1.185 1_454 S
C21 O33 1.355 1_455 S
C22 O24 1.185 1_556 S
C22 O25 1.355 . S
Dy23 O27 2.310 1_556 S
Dy23 O30 2.351 1_556 S
Dy23 O32 2.398 . S
Dy23 O33 2.491 1_556 S
Dy23 O34 2.403 . S
Dy23 O35 2.664 . S
Dy23 O37 2.326 . S
O24 Dy20 2.398 . S
O24 C22 1.185 1_554 S
O25 Dy20 2.491 1_556 S
O25 C22 1.355 . S
O26 Dy20 2.403 . S
O26 C28 1.254 . S
O27 Dy20 2.664 . S
O27 Dy23 2.310 1_554 S
O27 C28 1.268 . S
C28 O26 1.254 . S
C28 O27 1.268 . S
C29 O34 1.254 . S
C29 O35 1.268 . S
O30 Dy23 2.351 1_554 S
O30 C38 1.249 . S
O31 Dy20 2.326 . S
O31 C38 1.267 . S
O32 C21 1.185 1_656 S
O32 Dy23 2.398 . S
O33 C21 1.355 1_655 S
O33 Dy23 2.491 1_554 S
O34 Dy23 2.403 . S
O34 C29 1.254 . S
O35 Dy20 2.310 1_556 S
O35 Dy23 2.664 . S
O35 C29 1.268 . S
O36 Dy20 2.351 1_556 S
O36 C39 1.249 . S
O37 Dy23 2.326 . S
O37 C39 1.267 . S
C38 O30 1.249 . S
C38 O31 1.267 . S
C39 O36 1.249 . S
C39 O37 1.267 . S
Dy40 O44 2.398 . S
Dy40 O45 2.491 1_554 S
Dy40 O46 2.403 . S
Dy40 O47 2.664 1_565 S
Dy40 O51 2.326 1_565 S
Dy40 O55 2.310 1_564 S
Dy40 O56 2.351 1_554 S
C41 O52 1.185 1_554 S
C41 O53 1.355 . S
C42 O44 1.185 1_556 S
C42 O45 1.355 . S
Dy43 O47 2.310 1_556 S
Dy43 O50 2.351 1_556 S
Dy43 O52 2.398 . S
Dy43 O53 2.491 1_556 S
Dy43 O54 2.403 . S
Dy43 O55 2.664 . S
Dy43 O57 2.320 1_545 S
O44 Dy40 2.398 . S
O44 C42 1.185 1_554 S
O45 Dy40 2.491 1_556 S
O45 C42 1.355 . S
O46 Dy40 2.403 . S
O46 C48 1.254 . S
O47 Dy40 2.664 1_545 S
O47 Dy43 2.310 1_554 S
O47 C48 1.268 1_545 S
C48 O46 1.254 . S
C48 O47 1.268 1_565 S
C49 O54 1.254 . S
C49 O55 1.268 . S
O50 Dy43 2.351 1_554 S
O50 C58 1.249 . S
O51 Dy40 2.326 1_545 S
O51 C58 1.267 . S
O52 C41 1.185 1_556 S
O52 Dy43 2.398 . S
O53 C41 1.355 . S
O53 Dy43 2.491 1_554 S
O54 Dy43 2.403 . S
O54 C49 1.254 . S
O55 Dy40 2.310 1_546 S
O55 Dy43 2.664 . S
O55 C49 1.268 . S
O56 Dy40 2.351 1_556 S
O56 C59 1.249 . S
O57 Dy43 2.320 1_565 S
O57 C59 1.280 . S
C58 O50 1.249 . S
C58 O51 1.267 . S
C59 O56 1.249 . S
C59 O57 1.280 . S
Dy60 O64 2.398 . S
Dy60 O65 2.491 . S
Dy60 O66 2.403 . S
Dy60 O67 2.664 . S
Dy60 O71 2.326 . S
Dy60 O75 2.310 . S
Dy60 O76 2.351 . S
C61 O72 1.185 . S
C61 O73 1.355 . S
C62 O64 1.185 . S
C62 O65 1.355 . S
Dy63 O67 2.310 . S
Dy63 O70 2.351 . S
Dy63 O72 2.398 . S
Dy63 O73 2.491 . S
Dy63 O74 2.403 1_554 S
Dy63 O75 2.664 . S
Dy63 O77 2.326 . S
O64 Dy60 2.398 . S
O64 C62 1.185 . S
O65 Dy60 2.491 . S
O65 C62 1.355 . S
O66 Dy60 2.403 . S
O66 C68 1.254 . S
O67 Dy60 2.664 . S
O67 Dy63 2.310 . S
O67 C68 1.268 . S
C68 O66 1.254 . S
C68 O67 1.268 . S
C69 O74 1.254 . S
C69 O75 1.268 1_556 S
O70 Dy63 2.351 . S
O70 C78 1.249 . S
O71 Dy60 2.326 . S
O71 C78 1.267 . S
O72 C61 1.185 . S
O72 Dy63 2.398 . S
O73 C61 1.355 . S
O73 Dy63 2.491 . S
O74 Dy63 2.403 1_556 S
O74 C69 1.254 . S
O75 Dy60 2.310 . S
O75 Dy63 2.664 . S
O75 C69 1.268 1_554 S
O76 Dy60 2.351 . S
O76 C79 1.249 . S
O77 Dy63 2.326 . S
O77 C79 1.267 . S
C78 O70 1.249 . S
C78 O71 1.267 . S
C79 O76 1.249 . S
C79 O77 1.267 . S
Dy80 O84 2.398 . S
Dy80 O85 2.491 . S
Dy80 O86 2.403 . S
Dy80 O87 2.664 . S
Dy80 O91 2.326 . S
Dy80 O95 2.310 . S
Dy80 O96 2.351 . S
C81 O92 1.185 . S
C81 O93 1.355 . S
C82 O84 1.185 . S
C82 O85 1.355 . S
Dy83 O87 2.310 . S
Dy83 O90 2.351 . S
Dy83 O92 2.398 . S
Dy83 O93 2.491 . S
Dy83 O94 2.403 1_554 S
Dy83 O95 2.664 . S
Dy83 O97 2.326 . S
O84 Dy80 2.398 . S
O84 C82 1.185 . S
O85 Dy80 2.491 . S
O85 C82 1.355 . S
O86 Dy80 2.403 . S
O86 C88 1.254 . S
O87 Dy80 2.664 . S
O87 Dy83 2.310 . S
O87 C88 1.268 . S
C88 O86 1.254 . S
C88 O87 1.268 . S
C89 O94 1.254 . S
C89 O95 1.268 1_556 S
O90 Dy83 2.351 . S
O90 C98 1.249 . S
O91 Dy80 2.326 . S
O91 C98 1.267 . S
O92 C81 1.185 . S
O92 Dy83 2.398 . S
O93 C81 1.355 . S
O93 Dy83 2.491 . S
O94 Dy83 2.403 1_556 S
O94 C89 1.254 . S
O95 Dy80 2.310 . S
O95 Dy83 2.664 . S
O95 C89 1.268 1_554 S
O96 Dy80 2.351 . S
O96 C99 1.249 . S
O97 Dy83 2.326 . S
O97 C99 1.267 . S
C98 O90 1.249 . S
C98 O91 1.267 . S
C99 O96 1.249 . S
C99 O97 1.267 . S
Dy100 O104 2.398 . S
Dy100 O105 2.491 . S
Dy100 O106 2.403 . S
Dy100 O107 2.664 . S
Dy100 O111 2.326 . S
Dy100 O115 2.310 . S
Dy100 O116 2.351 . S
C101 O112 1.185 . S
C101 O113 1.355 . S
C102 O104 1.185 . S
C102 O105 1.355 . S
Dy103 O107 2.310 . S
Dy103 O110 2.351 . S
Dy103 O112 2.398 . S
Dy103 O113 2.491 . S
Dy103 O114 2.403 1_554 S
Dy103 O115 2.664 . S
Dy103 O117 2.326 . S
O104 Dy100 2.398 . S
O104 C102 1.185 . S
O105 Dy100 2.491 . S
O105 C102 1.355 . S
O106 Dy100 2.403 . S
O106 C108 1.254 . S
O107 Dy100 2.664 . S
O107 Dy103 2.310 . S
O107 C108 1.268 . S
C108 O106 1.254 . S
C108 O107 1.268 . S
C109 O114 1.254 . S
C109 O115 1.268 1_556 S
O110 Dy103 2.351 . S
O110 C118 1.249 . S
O111 Dy100 2.326 . S
O111 C118 1.267 . S
O112 C101 1.185 . S
O112 Dy103 2.398 . S
O113 C101 1.355 . S
O113 Dy103 2.491 . S
O114 Dy103 2.403 1_556 S
O114 C109 1.254 . S
O115 Dy100 2.310 . S
O115 Dy103 2.664 . S
O115 C109 1.268 1_554 S
O116 Dy100 2.351 . S
O116 C119 1.249 . S
O117 Dy103 2.326 . S
O117 C119 1.267 . S
C118 O110 1.249 . S
C118 O111 1.267 . S
C119 O116 1.249 . S
C119 O117 1.267 . S
Dy120 O124 2.398 . S
Dy120 O125 2.491 . S
Dy120 O126 2.403 1_556 S
Dy120 O127 2.664 . S
Dy120 O131 2.326 . S
Dy120 O135 2.310 . S
Dy120 O136 2.351 . S
C121 O132 1.185 . S
C121 O133 1.355 . S
C122 O124 1.185 1_545 S
C122 O125 1.355 1_545 S
Dy123 O127 2.310 . S
Dy123 O130 2.351 . S
Dy123 O132 2.398 . S
Dy123 O133 2.491 . S
Dy123 O134 2.403 . S
Dy123 O135 2.664 . S
Dy123 O137 2.326 . S
O124 Dy120 2.398 . S
O124 C122 1.185 1_565 S
O125 Dy120 2.491 . S
O125 C122 1.355 1_565 S
O126 Dy120 2.403 1_554 S
O126 C128 1.254 . S
O127 Dy120 2.664 . S
O127 Dy123 2.310 . S
O127 C128 1.268 1_556 S
C128 O126 1.254 . S
C128 O127 1.268 1_554 S
C129 O134 1.254 . S
C129 O135 1.268 . S
O130 Dy123 2.351 . S
O130 C138 1.249 . S
O131 Dy120 2.326 . S
O131 C138 1.267 . S
O132 C121 1.185 . S
O132 Dy123 2.398 . S
O133 C121 1.355 . S
O133 Dy123 2.491 . S
O134 Dy123 2.403 . S
O134 C129 1.254 . S
O135 Dy120 2.310 . S
O135 Dy123 2.664 . S
O135 C129 1.268 . S
O136 Dy120 2.351 . S
O136 C139 1.249 . S
O137 Dy123 2.326 . S
O137 C139 1.267 . S
C138 O130 1.249 . S
C138 O131 1.267 . S
C139 O136 1.249 . S
C139 O137 1.267 . S
Dy140 O144 2.398 . S
Dy140 O145 2.491 . S
Dy140 O146 2.403 1_556 S
Dy140 O147 2.664 . S
Dy140 O151 2.326 . S
Dy140 O155 2.310 . S
Dy140 O156 2.351 . S
C141 O152 1.185 . S
C141 O153 1.355 . S
C142 O144 1.185 1_655 S
C142 O145 1.355 1_655 S
Dy143 O147 2.310 . S
Dy143 O150 2.351 . S
Dy143 O152 2.398 . S
Dy143 O153 2.491 . S
Dy143 O154 2.403 . S
Dy143 O155 2.664 . S
Dy143 O157 2.326 . S
O144 Dy140 2.398 . S
O144 C142 1.185 1_455 S
O145 Dy140 2.491 . S
O145 C142 1.355 1_455 S
O146 Dy140 2.403 1_554 S
O146 C148 1.254 . S
O147 Dy140 2.664 . S
O147 Dy143 2.310 . S
O147 C148 1.268 1_556 S
C148 O146 1.254 . S
C148 O147 1.268 1_554 S
C149 O154 1.254 . S
C149 O155 1.268 . S
O150 Dy143 2.351 . S
O150 C158 1.249 . S
O151 Dy140 2.326 . S
O151 C158 1.267 . S
O152 C141 1.185 . S
O152 Dy143 2.398 . S
O153 C141 1.355 . S
O153 Dy143 2.491 . S
O154 Dy143 2.403 . S
O154 C149 1.254 . S
O155 Dy140 2.310 . S
O155 Dy143 2.664 . S
O155 C149 1.268 . S
O156 Dy140 2.351 . S
O156 C159 1.249 . S
O157 Dy143 2.326 . S
O157 C159 1.267 . S
C158 O150 1.249 . S
C158 O151 1.267 . S
C159 O156 1.249 . S
C159 O157 1.267 . S
Dy160 O164 2.398 . S
Dy160 O165 2.491 . S
Dy160 O166 2.403 1_556 S
Dy160 O167 2.664 . S
Dy160 O171 2.326 . S
Dy160 O175 2.310 . S
Dy160 O176 2.351 . S
C161 O172 1.185 . S
C161 O173 1.355 . S
C162 O164 1.185 . S
C162 O165 1.355 . S
Dy163 O167 2.310 . S
Dy163 O170 2.351 . S
Dy163 O172 2.398 . S
Dy163 O173 2.491 . S
Dy163 O174 2.403 . S
Dy163 O175 2.664 . S
Dy163 O177 2.326 . S
O164 Dy160 2.398 . S
O164 C162 1.185 . S
O165 Dy160 2.491 . S
O165 C162 1.355 . S
O166 Dy160 2.403 1_554 S
O166 C168 1.254 . S
O167 Dy160 2.664 . S
O167 Dy163 2.310 . S
O167 C168 1.268 1_556 S
C168 O166 1.254 . S
C168 O167 1.268 1_554 S
C169 O174 1.254 . S
C169 O175 1.268 . S
O170 Dy163 2.351 . S
O170 C178 1.249 . S
O171 Dy160 2.326 . S
O171 C178 1.267 . S
O172 C161 1.185 . S
O172 Dy163 2.398 . S
O173 C161 1.355 . S
O173 Dy163 2.491 . S
O174 Dy163 2.403 . S
O174 C169 1.254 . S
O175 Dy160 2.310 . S
O175 Dy163 2.664 . S
O175 C169 1.268 . S
O176 Dy160 2.351 . S
O176 C179 1.249 . S
O177 Dy163 2.326 . S
O177 C179 1.267 . S
C178 O170 1.249 . S
C178 O171 1.267 . S
C179 O176 1.249 . S
C179 O177 1.267 . S
C2 C158 2.019 . S
C22 C178 2.019 . S
C42 C138 2.019 . S
C82 C58 2.019 . S
C102 C18 2.019 . S
C38 C62 2.019 . S
C142 C118 2.019 . S
C162 C78 2.019 . S
C98 C122 2.019 . S
C41 C19 1.570 1_554 S
C39 C1 1.583 1_556 S
C21 C59 1.571 1_554 S
C79 C101 1.571 . S
C61 C99 1.571 . S
C81 C119 1.571 . S
C161 C139 1.570 . S
C159 C121 1.571 . S
C179 C141 1.571 . S
C9 C8 1.355 1_655 S
C29 C28 1.355 . S
C49 C48 1.355 1_545 S
C68 C69 1.355 . S
C88 C89 1.355 . S
C108 C109 1.355 . S
C129 C128 1.355 . S
C148 C149 1.355 . S
C169 C168 1.355 . S
