# Generated by pormake.
# Topology pcu, (6)-cn, num edge types: 1
# Building blocks:
#     Node 0, Type 0, BuildingBlock: KUMBUR_clean_sbu_0, # of connection points: 6
#     Edge 1, Type (0, 0), BuildingBlock: XUDNAN_clean_linker_2, # of connection points: 2
#     Edge 2, Type (0, 0), BuildingBlock: XUDNAN_clean_linker_2, # of connection points: 2
#     Edge 3, Type (0, 0), BuildingBlock: XUDNAN_clean_linker_2, # of connection points: 2
# Relax obj value: 0.000
# Max RMSD: 0.000
# Mean RMSD: 0.000
data_MOF--net-pcu--node1-KUMBUR_clean_sbu_0--edge1-XUDNAN_clean_linker_2
_symmetry_space_group_name_H-M    P1
_symmetry_Int_Tables_number       1
_symmetry_cell_setting            triclinic
loop_
_symmetry_equiv_pos_as_xyz
'x, y, z'
_cell_length_a     13.842293
_cell_length_b     24.512674
_cell_length_c     15.067297
_cell_angle_alpha  114.8263
_cell_angle_beta   75.008702
_cell_angle_gamma 116.0181
loop_
_atom_site_label
_atom_site_type_symbol
_atom_site_fract_x
_atom_site_fract_y
_atom_site_fract_z
_atom_type_partial_charge
Tb0 Tb 0.0603 0.07893 0.05611 0.0
C1 C 0.75853 0.81873 0.81123 0.0
C2 C 0.58611 0.81314 0.90568 0.0
C3 C 0.59429 0.76273 0.72794 0.0
C4 C 0.6996 0.83474 0.90113 0.0
C5 C 0.70616 0.78082 0.72404 0.0
C6 C 0.53436 0.77889 0.81861 0.0
C7 C 0.87629 0.77465 0.63722 0.0
N8 N 0.86635 0.83656 0.80993 0.0
C9 C 0.9245 0.81199 0.7255 0.0
C10 C 0.76712 0.76015 0.63605 0.0
Tb11 Tb 0.93899 0.90387 0.95643 0.0
N12 N 0.7525 0.86803 0.98409 0.0
C13 C 0.69367 0.87529 0.07414 0.0
C14 C 0.52737 0.82462 0.99755 0.0
C15 C 0.5812 0.85463 0.08194 0.0
H16 H 1.00903 0.82299 0.72539 0.0
H17 H 0.53607 0.86226 0.15347 0.0
H18 H 0.44757 0.76285 0.82086 0.0
H19 H 0.92341 0.75713 0.57015 0.0
H20 H 0.73061 0.89812 0.14178 0.0
H21 H 0.46241 0.13035 0.86888 0.0
H22 H 0.44024 0.80867 0.00403 0.0
H23 H 0.98219 0.15307 0.28462 0.0
H24 H 0.26402 0.08877 0.88095 0.0
H25 H 0.06086 0.21891 0.44405 0.0
H26 H 0.55287 0.73439 0.66161 0.0
H27 H 0.55771 0.18534 0.01935 0.0
H28 H 0.54753 0.23204 0.20385 0.0
H29 H 0.72991 0.73105 0.56754 0.0
H30 H 0.43726 0.25448 0.36186 0.0
N31 N 0.24542 0.11559 0.03667 0.0
C32 C 0.30397 0.11184 0.94739 0.0
C33 C 0.47029 0.16621 0.02508 0.0
C34 C 0.41036 0.17468 0.11672 0.0
C35 C 0.41681 0.1355 0.94008 0.0
C36 C 0.29674 0.14813 0.11997 0.0
H37 H 0.25513 0.25004 0.4525 0.0
N38 N 0.12759 0.14142 0.2061 0.0
C39 C 0.11072 0.20245 0.37851 0.0
C40 C 0.23526 0.16121 0.20837 0.0
C41 C 0.06625 0.16483 0.28839 0.0
C42 C 0.22027 0.21967 0.38305 0.0
C43 C 0.28482 0.20096 0.29669 0.0
O44 O 0.99868 0.15267 0.10576 0.0
O45 O 0.91885 0.99414 0.0049 0.0
O46 O 0.95928 0.93607 0.83496 0.0
O47 O 0.06569 0.04718 0.89559 0.0
O48 O 0.89273 0.06894 0.1188 0.0
O49 O 0.11856 0.14524 0.98238 0.0
O50 O 1.01635 0.87522 0.02308 0.0
O51 O 0.08538 0.98819 -0.00016 0.0
O52 O 0.0464 0.04282 0.17031 0.0
O53 O 0.9123 0.93878 0.11756 0.0
O54 O 0.09291 0.91609 0.86789 0.0
O55 O 0.89686 0.80402 0.92468 0.0
C56 C 0.84421 0.01182 0.05884 0.0
C57 C 0.11895 0.25002 0.08008 0.0
C58 C 0.13979 0.35804 0.09584 0.0
C59 C 0.08572 0.28998 0.06006 0.0
C60 C 0.22648 0.38523 0.15321 0.0
C61 C 0.20688 0.27837 0.13569 0.0
C62 C 0.25976 0.34555 0.17255 0.0
C63 C 1.0151 0.99333 0.82502 0.0
C64 C 0.06164 0.17905 0.042 0.0
C65 C 0.39758 0.22422 0.29477 0.0
C66 C 0.46035 0.21157 0.20478 0.0
C67 C 0.14993 0.97016 0.92855 0.0
C68 C 0.03613 0.77498 0.93161 0.0
C69 C 1.02094 0.72627 0.96583 0.0
C70 C 0.08709 0.68965 0.92566 0.0
C71 C 0.16906 0.70283 0.85103 0.0
C72 C 0.11765 0.78653 0.85618 0.0
C73 C 0.18398 0.75092 0.81673 0.0
C74 C 0.97257 0.98979 0.18541 0.0
C75 C 0.96774 0.81381 0.9771 0.0
H76 H 1.01922 0.26791 0.0152 0.0
H77 H 0.26841 0.4373 0.18371 0.0
H78 H 0.2351 0.24887 0.15045 0.0
H79 H 0.32701 0.36696 0.21617 0.0
H80 H 0.95857 0.71751 0.02453 0.0
H81 H 0.22053 0.67514 0.81774 0.0
H82 H 0.13072 0.82265 0.82705 0.0
H83 H 0.24685 0.76038 0.75884 0.0
H84 H 1.00446 0.91097 0.25205 0.0
H85 H 0.89493 0.06889 0.34461 0.0
H86 H 0.89692 0.08716 0.51807 0.0
H87 H 0.83962 0.8504 0.45703 0.0
H88 H 0.94211 0.82702 0.46644 0.0
H89 H 0.92612 0.82459 0.34972 0.0
H90 H 0.12846 0.89866 0.33661 0.0
H91 H 0.14359 0.90258 0.45456 0.0
H92 H 0.17871 0.97627 0.43285 0.0
H93 H 0.93305 0.09759 0.6773 0.0
H94 H 0.96894 0.08765 0.82055 0.0
H95 H 0.035 0.91482 0.63106 0.0
C96 C 0.97844 0.9482 0.30929 0.0
C97 C 0.95296 0.99025 0.28609 0.0
C98 C 0.91923 0.03841 0.3618 0.0
C99 C 0.91891 0.04853 0.46025 0.0
C100 C 0.94942 0.00856 0.48138 0.0
C101 C 0.97528 0.95799 0.40859 0.0
C102 C 1.00454 0.92234 0.45274 0.0
C103 C 0.92321 0.85191 0.43014 0.0
C104 C 0.12073 0.92516 0.41705 0.0
C105 C 0.99425 0.96218 0.5612 0.0
C106 C 0.96336 0.01199 0.57537 0.0
C107 C 0.95531 0.05814 0.66763 0.0
C108 C 0.9771 0.05255 0.74824 0.0
C109 C 1.00479 0.00062 0.73636 0.0
C110 C 1.01324 0.95467 0.64174 0.0
H111 H 0.24855 0.00372 0.093 0.0
H112 H 0.29872 0.95358 0.77675 0.0
H113 H 0.47716 0.95391 0.77634 0.0
H114 H 0.53151 0.11015 0.14789 0.0
H115 H 0.52052 0.081 0.24283 0.0
H116 H 0.40198 0.08116 0.21448 0.0
H117 H 0.31281 0.95801 0.19001 0.0
H118 H 0.43619 0.95809 0.20915 0.0
H119 H 0.37304 0.90344 0.09707 0.0
H120 H 0.64526 0.95681 0.80694 0.0
H121 H 0.80433 0.97094 0.86878 0.0
H122 H 0.65436 0.02095 0.16694 0.0
C123 C 0.29858 0.99436 0.02429 0.0
C124 C 0.26137 0.97991 0.93482 0.0
C125 C 0.32692 0.96565 0.84586 0.0
C126 C 0.4279 0.96538 0.84489 0.0
C127 C 0.46196 0.97885 0.93355 0.0
C128 C 0.40034 0.99368 0.02191 0.0
C129 C 0.45671 0.00479 0.10584 0.0
C130 C 0.4788 0.07341 0.18234 0.0
C131 C 0.39077 0.953 0.15332 0.0
C132 C 0.56107 0.99649 0.05094 0.0
C133 C 0.56055 0.98011 0.95142 0.0
C134 C 0.64675 0.96971 0.88477 0.0
C135 C 0.73725 0.97772 0.92079 0.0
C136 C 0.74197 0.99629 0.02255 0.0
C137 C 0.65248 0.00599 0.0886 0.0
H138 H 0.24214 0.66202 0.96096 0.0
H139 H 0.89515 0.59815 0.96652 0.0
H140 H 0.86933 0.50694 0.01345 0.0
H141 H 0.25363 0.50518 0.85338 0.0
H142 H 0.35936 0.52545 0.92412 0.0
H143 H 0.34957 0.58748 0.89661 0.0
H144 H 0.34099 0.65619 0.08209 0.0
H145 H 0.35115 0.59451 0.11035 0.0
H146 H 0.23966 0.6208 0.1659 0.0
H147 H 0.88294 0.4197 0.05348 0.0
H148 H 0.93448 0.34673 0.08906 0.0
H149 H 0.27264 0.46672 0.0504 0.0
C150 C 0.16061 0.62887 0.97195 0.0
C151 C 0.07062 0.63719 0.95991 0.0
C152 C 0.96526 0.59321 0.97645 0.0
C153 C 0.94985 0.54103 0.0025 0.0
C154 C 0.04058 0.53367 0.01206 0.0
C155 C 0.14384 0.57667 0.99776 0.0
C156 C 0.22807 0.55769 0.01091 0.0
C157 C 0.30197 0.54307 0.91557 0.0
C158 C 0.29382 0.61043 0.09747 0.0
C159 C 0.15624 0.49681 0.03383 0.0
C160 C 0.04834 0.48372 0.03448 0.0
C161 C 0.96724 0.42959 0.05328 0.0
C162 C 0.99733 0.38813 0.07268 0.0
C163 C 0.10763 0.40096 0.07294 0.0
C164 C 0.18757 0.45597 0.05254 0.0
loop_
_geom_bond_atom_site_label_1
_geom_bond_atom_site_label_2
_geom_bond_distance
_geom_bond_site_symmetry_2
_ccdc_geom_bond_type
Tb0 N31 2.660 1_554 S
Tb0 N38 2.600 . S
Tb0 O44 2.546 . S
Tb0 O45 2.610 1_444 S
Tb0 O47 2.320 1_554 S
Tb0 O48 2.552 1_455 S
Tb0 O49 2.413 . S
Tb0 O51 2.362 . S
Tb0 O52 2.422 1_455 S
Tb0 C64 2.833 . S
C1 C4 1.432 . S
C1 C5 1.414 . S
C1 N8 1.359 . S
C2 C4 1.417 . S
C2 C6 1.432 . S
C2 C14 1.410 1_556 S
C3 C5 1.444 . S
C3 C6 1.317 . S
C3 H26 0.929 . S
C4 C1 1.432 . S
C4 C2 1.417 . S
C4 N12 1.360 1_556 S
C5 C1 1.414 . S
C5 C3 1.444 . S
C5 C10 1.385 . S
C6 C2 1.432 . S
C6 C3 1.317 . S
C6 H18 0.930 . S
C7 C9 1.392 . S
C7 C10 1.370 . S
C7 H19 0.931 . S
N8 C1 1.359 . S
N8 C9 1.327 . S
N8 Tb11 2.600 . S
C9 C7 1.392 . S
C9 N8 1.327 . S
C9 H16 0.930 . S
C10 C5 1.385 . S
C10 C7 1.370 . S
C10 H29 0.930 . S
Tb11 N8 2.600 . S
Tb11 N12 2.660 1_556 S
Tb11 O45 2.362 . S
Tb11 O46 2.421 1_655 S
Tb11 O50 2.546 . S
Tb11 O51 2.610 1_666 S
Tb11 O53 2.320 1_556 S
Tb11 O54 2.552 1_655 S
Tb11 O55 2.413 . S
Tb11 C75 2.833 . S
N12 C4 1.360 1_554 S
N12 Tb11 2.660 1_554 S
N12 C13 1.305 . S
C13 N12 1.305 . S
C13 C15 1.407 . S
C13 H20 0.930 . S
C14 C2 1.410 1_554 S
C14 C15 1.345 . S
C14 H22 0.930 . S
C15 C13 1.407 . S
C15 C14 1.345 . S
C15 H17 0.930 . S
H16 C9 0.930 . S
H17 C15 0.930 . S
H18 C6 0.930 . S
H19 C7 0.931 . S
H20 C13 0.930 . S
H21 C35 0.930 . S
H22 C14 0.930 . S
H23 C41 0.930 . S
H24 C32 0.930 . S
H25 C39 0.931 . S
H26 C3 0.929 . S
H27 C33 0.930 . S
H28 C66 0.930 . S
H29 C10 0.930 . S
H30 C65 0.929 . S
N31 Tb0 2.660 1_556 S
N31 C32 1.305 . S
N31 C36 1.360 1_556 S
C32 H24 0.930 . S
C32 N31 1.305 . S
C32 C35 1.407 . S
C33 H27 0.930 . S
C33 C34 1.410 1_556 S
C33 C35 1.345 . S
C34 C33 1.410 1_554 S
C34 C36 1.417 . S
C34 C66 1.432 . S
C35 H21 0.930 . S
C35 C32 1.407 . S
C35 C33 1.345 . S
C36 N31 1.360 1_554 S
C36 C34 1.417 . S
C36 C40 1.432 . S
H37 C42 0.930 . S
N38 Tb0 2.600 . S
N38 C40 1.359 . S
N38 C41 1.327 . S
C39 H25 0.931 . S
C39 C41 1.392 . S
C39 C42 1.370 . S
C40 C36 1.432 . S
C40 N38 1.359 . S
C40 C43 1.414 . S
C41 H23 0.930 . S
C41 N38 1.327 . S
C41 C39 1.392 . S
C42 H37 0.930 . S
C42 C39 1.370 . S
C42 C43 1.385 . S
C43 C40 1.414 . S
C43 C42 1.385 . S
C43 C65 1.444 . S
O44 Tb0 2.546 . S
O44 C64 1.251 . S
O45 Tb0 2.610 1_666 S
O45 Tb11 2.362 . S
O45 C56 1.283 1_566 S
O46 Tb11 2.421 1_455 S
O46 C63 1.262 . S
O47 Tb0 2.320 1_556 S
O47 C63 1.260 1_545 S
O48 Tb0 2.552 1_655 S
O48 C56 1.243 . S
O49 Tb0 2.413 . S
O49 C64 1.256 . S
O50 Tb11 2.546 . S
O50 C75 1.251 . S
O51 Tb0 2.362 . S
O51 Tb11 2.610 1_444 S
O51 C67 1.283 1_544 S
O52 Tb0 2.422 1_655 S
O52 C74 1.258 . S
O53 Tb11 2.320 1_554 S
O53 C74 1.260 1_565 S
O54 Tb11 2.552 1_455 S
O54 C67 1.243 . S
O55 Tb11 2.413 . S
O55 C75 1.256 . S
C56 O45 1.283 1_544 S
C56 O48 1.243 . S
C57 C59 1.382 . S
C57 C61 1.393 . S
C57 C64 1.500 . S
C58 C59 1.400 . S
C58 C60 1.384 . S
C59 C57 1.382 . S
C59 C58 1.400 . S
C59 H76 0.930 1_554 S
C60 C58 1.384 . S
C60 C62 1.392 . S
C60 H77 0.931 . S
C61 C57 1.393 . S
C61 C62 1.401 . S
C61 H78 0.930 . S
C62 C60 1.392 . S
C62 C61 1.401 . S
C62 H79 0.930 . S
C63 O46 1.262 . S
C63 O47 1.260 1_565 S
C64 Tb0 2.833 . S
C64 O44 1.251 . S
C64 O49 1.256 . S
C64 C57 1.500 . S
C65 H30 0.929 . S
C65 C43 1.444 . S
C65 C66 1.317 . S
C66 H28 0.930 . S
C66 C34 1.432 . S
C66 C65 1.317 . S
C67 O51 1.283 1_566 S
C67 O54 1.243 . S
C68 C69 1.382 . S
C68 C72 1.393 . S
C68 C75 1.500 . S
C69 C68 1.382 . S
C69 C70 1.400 . S
C69 H80 0.930 1_556 S
C70 C69 1.400 . S
C70 C71 1.384 . S
C71 C70 1.384 . S
C71 C73 1.392 . S
C71 H81 0.931 . S
C72 C68 1.393 . S
C72 C73 1.401 . S
C72 H82 0.930 . S
C73 C71 1.392 . S
C73 C72 1.401 . S
C73 H83 0.930 . S
C74 O52 1.258 . S
C74 O53 1.260 1_545 S
C75 Tb11 2.833 . S
C75 O50 1.251 . S
C75 O55 1.256 . S
C75 C68 1.500 . S
H76 C59 0.930 1_556 S
H77 C60 0.931 . S
H78 C61 0.930 . S
H79 C62 0.930 . S
H80 C69 0.930 1_554 S
H81 C71 0.931 . S
H82 C72 0.930 . S
H83 C73 0.930 . S
H84 C96 0.930 . S
H85 C98 0.930 . S
H86 C99 0.930 . S
H87 C103 0.959 . S
H88 C103 0.959 . S
H89 C103 0.961 . S
H90 C104 0.960 . S
H91 C104 0.961 . S
H92 C104 0.959 . S
H93 C107 0.929 . S
H94 C108 0.931 . S
H95 C110 0.930 . S
C96 H84 0.930 . S
C96 C97 1.399 1_665 S
C96 C101 1.399 . S
C97 C96 1.399 1_445 S
C97 C98 1.376 . S
C98 H85 0.930 . S
C98 C97 1.376 . S
C98 C99 1.388 . S
C99 H86 0.930 . S
C99 C98 1.388 . S
C99 C100 1.390 . S
C100 C99 1.390 . S
C100 C101 1.394 1_445 S
C100 C106 1.465 . S
C101 C96 1.399 . S
C101 C100 1.394 1_665 S
C101 C102 1.516 . S
C102 C101 1.516 . S
C102 C103 1.502 . S
C102 C104 1.561 1_655 S
C102 C105 1.526 . S
C103 H87 0.959 . S
C103 H88 0.959 . S
C103 H89 0.961 . S
C103 C102 1.502 . S
C104 H90 0.960 . S
C104 H91 0.961 . S
C104 H92 0.959 . S
C104 C102 1.561 1_455 S
C105 C102 1.526 . S
C105 C106 1.396 1_665 S
C105 C110 1.390 . S
C106 C100 1.465 . S
C106 C105 1.396 1_445 S
C106 C107 1.399 . S
C107 H93 0.929 . S
C107 C106 1.399 . S
C107 C108 1.385 . S
C108 H94 0.931 . S
C108 C107 1.385 . S
C108 C109 1.389 . S
C109 C108 1.389 . S
C109 C110 1.387 1_445 S
C110 H95 0.930 . S
C110 C105 1.390 . S
C110 C109 1.387 1_665 S
H111 C123 0.930 . S
H112 C125 0.930 . S
H113 C126 0.930 . S
H114 C130 0.959 . S
H115 C130 0.959 . S
H116 C130 0.961 . S
H117 C131 0.960 . S
H118 C131 0.961 . S
H119 C131 0.959 1_565 S
H120 C134 0.929 . S
H121 C135 0.931 . S
H122 C137 0.930 . S
C123 H111 0.930 . S
C123 C124 1.399 1_544 S
C123 C128 1.399 . S
C124 C123 1.399 1_566 S
C124 C125 1.376 . S
C125 H112 0.930 . S
C125 C124 1.376 . S
C125 C126 1.388 . S
C126 H113 0.930 . S
C126 C125 1.388 . S
C126 C127 1.390 . S
C127 C126 1.390 . S
C127 C128 1.394 1_566 S
C127 C133 1.465 . S
C128 C123 1.399 . S
C128 C127 1.394 1_544 S
C128 C129 1.516 . S
C129 C128 1.516 . S
C129 C130 1.502 . S
C129 C131 1.561 . S
C129 C132 1.526 . S
C130 H114 0.959 . S
C130 H115 0.959 . S
C130 H116 0.961 . S
C130 C129 1.502 . S
C131 H117 0.960 . S
C131 H118 0.961 . S
C131 H119 0.959 1_545 S
C131 C129 1.561 . S
C132 C129 1.526 . S
C132 C133 1.396 1_544 S
C132 C137 1.390 . S
C133 C127 1.465 . S
C133 C132 1.396 1_566 S
C133 C134 1.399 . S
C134 H120 0.929 . S
C134 C133 1.399 . S
C134 C135 1.385 . S
C135 H121 0.931 . S
C135 C134 1.385 . S
C135 C136 1.389 . S
C136 C135 1.389 . S
C136 C137 1.387 1_566 S
C137 H122 0.930 . S
C137 C132 1.390 . S
C137 C136 1.387 1_544 S
H138 C150 0.930 . S
H139 C152 0.930 . S
H140 C153 0.930 . S
H141 C157 0.959 . S
H142 C157 0.959 . S
H143 C157 0.961 . S
H144 C158 0.960 . S
H145 C158 0.961 . S
H146 C158 0.959 . S
H147 C161 0.929 . S
H148 C162 0.931 . S
H149 C164 0.930 . S
C150 H138 0.930 . S
C150 C151 1.399 1_454 S
C150 C155 1.399 . S
C151 C150 1.399 1_656 S
C151 C152 1.376 . S
C152 H139 0.930 . S
C152 C151 1.376 . S
C152 C153 1.388 . S
C153 H140 0.930 . S
C153 C152 1.388 . S
C153 C154 1.390 . S
C154 C153 1.390 . S
C154 C155 1.394 1_656 S
C154 C160 1.465 . S
C155 C150 1.399 . S
C155 C154 1.394 1_454 S
C155 C156 1.516 . S
C156 C155 1.516 . S
C156 C157 1.502 . S
C156 C158 1.561 1_455 S
C156 C159 1.526 . S
C157 H141 0.959 . S
C157 H142 0.959 . S
C157 H143 0.961 . S
C157 C156 1.502 . S
C158 H144 0.960 . S
C158 H145 0.961 . S
C158 H146 0.959 . S
C158 C156 1.561 1_655 S
C159 C156 1.526 . S
C159 C160 1.396 1_454 S
C159 C164 1.390 . S
C160 C154 1.465 . S
C160 C159 1.396 1_656 S
C160 C161 1.399 . S
C161 H147 0.929 . S
C161 C160 1.399 . S
C161 C162 1.385 . S
C162 H148 0.931 . S
C162 C161 1.385 . S
C162 C163 1.389 . S
C163 C162 1.389 . S
C163 C164 1.387 1_656 S
C164 H149 0.930 . S
C164 C159 1.390 . S
C164 C163 1.387 1_454 S
C97 C74 1.467 1_455 S
C109 C63 1.472 1_545 S
C124 C67 1.386 . S
C136 C56 1.466 1_566 S
C151 C70 1.250 . S
C163 C58 1.383 1_656 S
