# Generated by pormake.
# Topology cds, (4)-cn, num edge types: 1
# Building blocks:
#     Node 0, Type 0, BuildingBlock: ESEHIV_clean_sbu_0, # of connection points: 4
#     Node 1, Type 0, BuildingBlock: ESEHIV_clean_sbu_0, # of connection points: 4
#     Edge 2, Type (0, 0), BuildingBlock: XIVTED_clean_linker_0, # of connection points: 2
#     Edge 3, Type (0, 0), BuildingBlock: XIVTED_clean_linker_0, # of connection points: 2
#     Edge 4, Type (0, 0), BuildingBlock: XIVTED_clean_linker_0, # of connection points: 2
#     Edge 5, Type (0, 0), BuildingBlock: XIVTED_clean_linker_0, # of connection points: 2
# Relax obj value: 0.000
# Max RMSD: 0.099
# Mean RMSD: 0.094
data_MOF--net-cds--node1-ESEHIV_clean_sbu_0--edge1-XIVTED_clean_linker_0
_symmetry_space_group_name_H-M    P1
_symmetry_Int_Tables_number       1
_symmetry_cell_setting            triclinic
loop_
_symmetry_equiv_pos_as_xyz
'x, y, z'
_cell_length_a     14.61388
_cell_length_b     17.186116
_cell_length_c     31.847607
_cell_angle_alpha  103.36847
_cell_angle_beta   102.49308
_cell_angle_gamma 87.563087
loop_
_atom_site_label
_atom_site_type_symbol
_atom_site_fract_x
_atom_site_fract_y
_atom_site_fract_z
_atom_type_partial_charge
Cu0 Cu 0.18402 0.09006 0.06178 0.0
N1 N 0.16202 1.02388 1.0048 0.0
N2 N 0.14567 0.98743 0.9313 0.0
C3 C 0.16485 0.04782 0.96767 0.0
C4 C 0.13157 0.92252 0.94632 0.0
C5 C 0.14167 0.94522 0.99168 0.0
O6 O 0.29498 0.15298 0.06634 0.0
C7 C 1.00275 0.16242 0.04149 0.0
O8 O 1.00622 0.13551 0.99981 0.0
H9 H 0.17992 0.10882 0.96743 0.0
H10 H 0.13374 0.9073 0.01347 0.0
N11 N 0.20493 0.03014 0.10518 0.0
N12 N 0.19387 0.99487 0.16743 0.0
C13 C 0.16286 0.04398 0.13985 0.0
C14 C 0.26498 0.97 0.1108 0.0
C15 C 0.25844 0.94818 0.14926 0.0
C16 C 0.36346 0.16662 0.09953 0.0
O17 O 0.35608 0.14672 0.13608 0.0
H18 H 0.11204 0.09086 0.14525 0.0
H19 H 0.31099 0.94459 0.08883 0.0
O20 O 0.07368 0.15433 0.0714 0.0
H21 H 0.11245 0.86346 0.9259 0.0
H22 H 0.29772 0.90133 0.16257 0.0
Cu23 Cu 0.93381 0.99407 0.52426 0.0
N24 N 0.85781 0.90271 0.50782 0.0
N25 N 0.81259 0.77722 0.50098 0.0
C26 C 0.87644 0.83512 0.52258 0.0
C27 C 0.75119 0.80946 0.4717 0.0
C28 C 0.77887 0.88719 0.47624 0.0
O29 O 1.01019 0.99644 0.5834 0.0
C30 C 0.95528 1.00259 0.44136 0.0
O31 O 0.86512 1.01541 0.43834 0.0
H32 H 0.93764 0.82746 0.54735 0.0
H33 H 0.74479 0.9288 0.45717 0.0
N34 N 0.85993 0.08627 0.52743 0.0
N35 N 0.81687 0.21245 0.52759 0.0
C36 C 0.88505 0.15779 0.52277 0.0
C37 C 0.7724 0.09594 0.53489 0.0
C38 C 0.746 0.17414 0.53547 0.0
C39 C 0.96563 1.01003 0.61465 0.0
O40 O 0.87468 1.02047 0.60522 0.0
H41 H 0.95219 0.16966 0.51625 0.0
H42 H 0.73083 0.04941 0.53969 0.0
O43 O 1.00406 0.99088 0.47777 0.0
H44 H 0.69121 0.77872 0.44849 0.0
H45 H 0.67945 0.20047 0.54045 0.0
H46 H 0.2914 0.94323 0.23933 0.0
H47 H 0.86845 0.04611 0.36606 0.0
H48 H 0.02675 0.0437 0.18796 0.0
H49 H 0.13373 0.9592 0.42715 0.0
H50 H 0.92859 0.0432 0.30066 0.0
H51 H 0.23795 0.94487 0.3076 0.0
C52 C 0.22207 0.96529 0.24222 0.0
C53 C 0.16376 0.99376 0.20771 0.0
C54 C 0.97421 1.02475 0.32822 0.0
C55 C 0.10252 0.99622 0.28588 0.0
C56 C 0.93974 1.02631 0.36583 0.0
C57 C 0.9959 1.0026 0.40238 0.0
C58 C 0.066 0.999 0.32648 0.0
C59 C 0.08795 0.97806 0.3998 0.0
C60 C 0.19187 0.96664 0.28134 0.0
C61 C 0.07496 1.02236 0.21367 0.0
N62 N 0.12014 0.97662 0.36239 0.0
N63 N 0.04734 1.02273 0.25177 0.0
H64 H 0.17487 0.871 0.86132 0.0
H65 H 0.92997 0.11661 0.68577 0.0
H66 H 0.08964 0.11652 0.89708 0.0
H67 H 0.10249 0.91302 0.64959 0.0
H68 H 0.98616 0.11478 0.76341 0.0
H69 H 0.14634 0.88071 0.78373 0.0
C70 C 0.15053 0.92695 0.85292 0.0
C71 C 0.13443 0.99299 0.88585 0.0
C72 C 1.01298 0.07102 0.73871 0.0
C73 C 0.10155 1.00441 0.79726 0.0
C74 C 0.98095 0.07212 0.69435 0.0
C75 C 1.01203 1.01513 0.66133 0.0
C76 C 0.07497 1.01112 0.75037 0.0
C77 C 0.0777 0.95852 0.67419 0.0
C78 C 0.13498 0.93261 0.80871 0.0
C79 C 0.10387 0.0643 0.87307 0.0
N80 N 0.10603 0.95709 0.7178 0.0
N81 N 0.08756 0.06778 0.82988 0.0
H82 H 0.96031 0.19559 0.12376 0.0
H83 H 0.40826 0.19929 0.02598 0.0
H84 H 0.83668 0.18594 0.98664 0.0
H85 H 0.53016 0.18767 0.16053 0.0
H86 H 0.56484 0.2179 0.01429 0.0
H87 H 0.80452 0.21608 0.14076 0.0
C88 C 0.90073 0.19913 0.09731 0.0
C89 C 0.91172 0.18813 0.05356 0.0
C90 C 0.55732 0.21223 0.04654 0.0
C91 C 0.73272 0.21092 0.07285 0.0
C92 C 0.46773 0.20184 0.05332 0.0
C93 C 0.45585 0.19092 0.0942 0.0
C94 C 0.63597 0.21155 0.08082 0.0
C95 C 0.5358 0.19516 0.12836 0.0
C96 C 0.81161 0.21051 0.10705 0.0
C97 C 0.83168 0.19337 0.02076 0.0
N98 N 0.62243 0.20426 0.12076 0.0
N99 N 0.74564 0.20357 0.03099 0.0
H100 H 0.84632 0.72716 0.57727 0.0
H101 H 0.87839 0.26785 0.46586 0.0
H102 H 0.78227 0.64331 0.43575 0.0
H103 H 0.7589 0.34227 0.58103 0.0
H104 H 0.87757 0.40779 0.4593 0.0
H105 H 0.84776 0.58748 0.58469 0.0
C106 C 0.83293 0.67914 0.54788 0.0
C107 C 0.81367 0.69614 0.50588 0.0
C108 C 0.8517 0.39329 0.48601 0.0
C109 C 0.81714 0.53767 0.51399 0.0
C110 C 0.85266 0.31395 0.48987 0.0
C111 C 0.81845 0.29412 0.52395 0.0
C112 C 0.81871 0.45318 0.51718 0.0
C113 C 0.78514 0.35556 0.55417 0.0
C114 C 0.83333 0.59995 0.55208 0.0
C115 C 0.79644 0.63227 0.46865 0.0
N116 N 0.7869 0.43269 0.55037 0.0
N117 N 0.79953 0.55563 0.47353 0.0
loop_
_geom_bond_atom_site_label_1
_geom_bond_atom_site_label_2
_geom_bond_distance
_geom_bond_site_symmetry_2
_ccdc_geom_bond_type
Cu0 N1 1.999 1_454 S
Cu0 O6 1.974 . S
Cu0 N11 1.985 . S
Cu0 O20 1.959 1_455 S
N1 Cu0 1.999 1_656 S
N1 C3 1.263 1_655 S
N1 C5 1.389 . S
N2 C3 1.358 1_655 S
N2 C4 1.400 . S
C3 N1 1.263 1_455 S
C3 N2 1.358 1_455 S
C3 H9 0.930 1_545 S
C4 N2 1.400 . S
C4 C5 1.351 . S
C4 H21 0.930 . S
C5 N1 1.389 . S
C5 C4 1.351 . S
C5 H10 0.930 . S
O6 Cu0 1.974 . S
O6 C16 1.282 1_545 S
C7 O8 1.261 . S
C7 O20 1.251 1_565 S
O8 C7 1.261 . S
H9 C3 0.930 1_565 S
H10 C5 0.930 . S
N11 Cu0 1.985 . S
N11 C13 1.335 1_455 S
N11 C14 1.390 1_545 S
N12 C13 1.345 1_455 S
N12 C15 1.336 1_545 S
C13 N11 1.335 1_655 S
C13 N12 1.345 1_655 S
C13 H18 0.930 . S
C14 N11 1.390 1_565 S
C14 C15 1.346 . S
C14 H19 0.930 . S
C15 N12 1.336 1_565 S
C15 C14 1.346 . S
C15 H22 0.929 . S
C16 O6 1.282 1_565 S
C16 O17 1.216 . S
O17 C16 1.216 . S
H18 C13 0.930 . S
H19 C14 0.930 . S
O20 Cu0 1.959 1_655 S
O20 C7 1.251 1_545 S
H21 C4 0.930 . S
H22 C15 0.929 . S
Cu23 N24 1.999 1_545 S
Cu23 O29 1.974 . S
Cu23 N34 1.985 . S
Cu23 O43 1.959 . S
N24 Cu23 1.999 1_565 S
N24 C26 1.263 . S
N24 C28 1.389 . S
N25 C26 1.358 . S
N25 C27 1.400 . S
C26 N24 1.263 . S
C26 N25 1.358 . S
C26 H32 0.930 1_455 S
C27 N25 1.400 . S
C27 C28 1.351 . S
C27 H44 0.930 . S
C28 N24 1.389 . S
C28 C27 1.351 . S
C28 H33 0.930 . S
O29 Cu23 1.974 . S
O29 C39 1.282 1_455 S
C30 O31 1.261 1_545 S
C30 O43 1.251 1_655 S
O31 C30 1.261 1_565 S
H32 C26 0.930 1_655 S
H33 C28 0.930 . S
N34 Cu23 1.985 . S
N34 C36 1.335 . S
N34 C37 1.390 1_455 S
N35 C36 1.345 . S
N35 C38 1.336 1_455 S
C36 N34 1.335 . S
C36 N35 1.345 . S
C36 H41 0.930 . S
C37 N34 1.390 1_655 S
C37 C38 1.346 . S
C37 H42 0.930 . S
C38 N35 1.336 1_655 S
C38 C37 1.346 . S
C38 H45 0.929 . S
C39 O29 1.282 1_655 S
C39 O40 1.216 . S
O40 C39 1.216 . S
H41 C36 0.930 . S
H42 C37 0.930 . S
O43 Cu23 1.959 . S
O43 C30 1.251 1_455 S
H44 C27 0.930 . S
H45 C38 0.929 . S
H46 C52 0.930 . S
H47 C56 0.930 . S
H48 C61 0.929 . S
H49 C59 0.929 . S
H50 C54 0.929 . S
H51 C60 0.929 . S
C52 H46 0.930 . S
C52 C53 1.367 1_565 S
C52 C60 1.378 . S
C53 C52 1.367 1_545 S
C53 C61 1.433 1_455 S
C54 H50 0.929 . S
C54 C56 1.378 . S
C54 C58 1.350 . S
C55 C58 1.463 . S
C55 C60 1.350 1_645 S
C55 N63 1.427 . S
C56 H47 0.930 . S
C56 C54 1.378 . S
C56 C57 1.367 . S
C57 C56 1.367 . S
C57 C59 1.433 1_645 S
C58 C54 1.350 . S
C58 C55 1.463 . S
C58 N62 1.427 1_645 S
C59 H49 0.929 . S
C59 C57 1.433 1_465 S
C59 N62 1.384 . S
C60 H51 0.929 . S
C60 C52 1.378 . S
C60 C55 1.350 1_465 S
C61 H48 0.929 . S
C61 C53 1.433 1_655 S
C61 N63 1.384 . S
N62 C58 1.427 1_465 S
N62 C59 1.384 . S
N63 C55 1.427 . S
N63 C61 1.384 . S
H64 C70 0.930 . S
H65 C74 0.930 . S
H66 C79 0.929 . S
H67 C77 0.929 . S
H68 C72 0.929 . S
H69 C78 0.929 . S
C70 H64 0.930 . S
C70 C71 1.367 1_665 S
C70 C78 1.378 . S
C71 C70 1.367 1_445 S
C71 C79 1.433 . S
C72 H68 0.929 . S
C72 C74 1.378 . S
C72 C76 1.350 1_455 S
C73 C76 1.463 . S
C73 C78 1.350 1_545 S
C73 N81 1.427 1_655 S
C74 H65 0.930 . S
C74 C72 1.378 . S
C74 C75 1.367 1_455 S
C75 C74 1.367 1_655 S
C75 C77 1.433 1_545 S
C76 C72 1.350 1_655 S
C76 C73 1.463 . S
C76 N80 1.427 1_545 S
C77 H67 0.929 . S
C77 C75 1.433 1_565 S
C77 N80 1.384 . S
C78 H69 0.929 . S
C78 C70 1.378 . S
C78 C73 1.350 1_565 S
C79 H66 0.929 . S
C79 C71 1.433 . S
C79 N81 1.384 . S
N80 C76 1.427 1_565 S
N80 C77 1.384 . S
N81 C73 1.427 1_455 S
N81 C79 1.384 . S
H82 C88 0.930 . S
H83 C92 0.930 1_556 S
H84 C97 0.929 1_556 S
H85 C95 0.929 . S
H86 C90 0.929 1_556 S
H87 C96 0.929 . S
C88 H82 0.930 . S
C88 C89 1.367 1_545 S
C88 C96 1.378 . S
C89 C88 1.367 1_565 S
C89 C97 1.433 . S
C90 H86 0.929 1_554 S
C90 C92 1.378 . S
C90 C94 1.350 . S
C91 C94 1.463 . S
C91 C96 1.350 1_565 S
C91 N99 1.427 . S
C92 H83 0.930 1_554 S
C92 C90 1.378 . S
C92 C93 1.367 . S
C93 C92 1.367 . S
C93 C95 1.433 1_565 S
C94 C90 1.350 . S
C94 C91 1.463 . S
C94 N98 1.427 1_565 S
C95 H85 0.929 . S
C95 C93 1.433 1_545 S
C95 N98 1.384 . S
C96 H87 0.929 . S
C96 C88 1.378 . S
C96 C91 1.350 1_545 S
C97 H84 0.929 1_554 S
C97 C89 1.433 . S
C97 N99 1.384 . S
N98 C94 1.427 1_545 S
N98 C95 1.384 . S
N99 C91 1.427 . S
N99 C97 1.384 . S
H100 C106 0.930 . S
H101 C110 0.930 . S
H102 C115 0.929 . S
H103 C113 0.929 . S
H104 C108 0.929 . S
H105 C114 0.929 . S
C106 H100 0.930 . S
C106 C107 1.367 1_655 S
C106 C114 1.378 . S
C107 C106 1.367 1_455 S
C107 C115 1.433 . S
C108 H104 0.929 . S
C108 C110 1.378 . S
C108 C112 1.350 . S
C109 C112 1.463 . S
C109 C114 1.350 1_455 S
C109 N117 1.427 . S
C110 H101 0.930 . S
C110 C108 1.378 . S
C110 C111 1.367 . S
C111 C110 1.367 . S
C111 C113 1.433 1_455 S
C112 C108 1.350 . S
C112 C109 1.463 . S
C112 N116 1.427 1_455 S
C113 H103 0.929 . S
C113 C111 1.433 1_655 S
C113 N116 1.384 . S
C114 H105 0.929 . S
C114 C106 1.378 . S
C114 C109 1.350 1_655 S
C115 H102 0.929 . S
C115 C107 1.433 . S
C115 N117 1.384 . S
N116 C112 1.427 1_655 S
N116 C113 1.384 . S
N117 C109 1.427 . S
N117 C115 1.384 . S
C53 N12 1.467 . S
C57 C30 1.501 . S
C71 N2 1.463 1_455 S
C75 C39 1.494 . S
C89 C7 1.489 . S
C93 C16 1.480 . S
C107 N25 1.465 . S
C111 N35 1.467 . S
