# Generated by pormake.
# Topology unj, (4)-cn, num edge types: 1
# Building blocks:
#     Node 0, Type 0, BuildingBlock: QUQFOY_clean_sbu_3, # of connection points: 4
#     Node 1, Type 0, BuildingBlock: QUQFOY_clean_sbu_3, # of connection points: 4
#     Node 2, Type 0, BuildingBlock: QUQFOY_clean_sbu_3, # of connection points: 4
#     Node 3, Type 0, BuildingBlock: QUQFOY_clean_sbu_3, # of connection points: 4
#     Node 4, Type 0, BuildingBlock: QUQFOY_clean_sbu_3, # of connection points: 4
#     Node 5, Type 0, BuildingBlock: QUQFOY_clean_sbu_3, # of connection points: 4
#     Edge 6, Type (0, 0), BuildingBlock: AJUNOK_clean_linker_0, # of connection points: 2
#     Edge 7, Type (0, 0), BuildingBlock: AJUNOK_clean_linker_0, # of connection points: 2
#     Edge 8, Type (0, 0), BuildingBlock: AJUNOK_clean_linker_0, # of connection points: 2
#     Edge 9, Type (0, 0), BuildingBlock: AJUNOK_clean_linker_0, # of connection points: 2
#     Edge 10, Type (0, 0), BuildingBlock: AJUNOK_clean_linker_0, # of connection points: 2
#     Edge 11, Type (0, 0), BuildingBlock: AJUNOK_clean_linker_0, # of connection points: 2
#     Edge 12, Type (0, 0), BuildingBlock: AJUNOK_clean_linker_0, # of connection points: 2
#     Edge 13, Type (0, 0), BuildingBlock: AJUNOK_clean_linker_0, # of connection points: 2
#     Edge 14, Type (0, 0), BuildingBlock: AJUNOK_clean_linker_0, # of connection points: 2
#     Edge 15, Type (0, 0), BuildingBlock: AJUNOK_clean_linker_0, # of connection points: 2
#     Edge 16, Type (0, 0), BuildingBlock: AJUNOK_clean_linker_0, # of connection points: 2
#     Edge 17, Type (0, 0), BuildingBlock: AJUNOK_clean_linker_0, # of connection points: 2
# Relax obj value: 0.027
# Max RMSD: 0.078
# Mean RMSD: 0.078
data_MOF--net-unj--node1-QUQFOY_clean_sbu_3--edge1-AJUNOK_clean_linker_0
_symmetry_space_group_name_H-M    P1
_symmetry_Int_Tables_number       1
_symmetry_cell_setting            triclinic
loop_
_symmetry_equiv_pos_as_xyz
'x, y, z'
_cell_length_a     25.506987
_cell_length_b     25.537486
_cell_length_c     28.465373
_cell_angle_alpha  90.174955
_cell_angle_beta   89.972801
_cell_angle_gamma 119.78356
loop_
_atom_site_label
_atom_site_type_symbol
_atom_site_fract_x
_atom_site_fract_y
_atom_site_fract_z
_atom_type_partial_charge
C0 C 0.60697 0.31945 0.49658 0.0
O1 O 0.62948 0.28842 0.51237 0.0
Cd2 Cd 0.58652 0.21234 0.57039 0.0
O3 O 0.55717 0.3126 0.51248 0.0
Cd4 Cd 0.48108 0.25303 0.57362 0.0
C5 C 0.44791 0.12395 0.51593 0.0
O6 O 0.5565 0.25976 0.62666 0.0
O7 O 0.46554 0.20619 0.65254 0.0
O8 O 0.47986 0.34571 0.58906 0.0
C9 C 0.52169 0.22814 0.65918 0.0
O10 O 0.49935 0.13327 0.52976 0.0
C11 C 0.42291 0.32143 0.59275 0.0
O12 O 0.42981 0.16109 0.52576 0.0
O13 O 0.39235 0.26494 0.58522 0.0
C14 C 0.25755 0.59983 0.64929 0.0
O15 O 0.31025 0.63354 0.66545 0.0
Cd16 Cd 0.35223 0.59902 0.7236 0.0
O17 O 0.22327 0.54757 0.66623 0.0
Cd18 Cd 0.2236 0.48621 0.73351 0.0
C19 C 0.32442 0.46213 0.67667 0.0
O20 O 0.27968 0.57051 0.78492 0.0
O21 O 0.27159 0.48694 0.80943 0.0
O22 O 0.12595 0.47559 0.74823 0.0
C23 C 0.28606 0.54123 0.81796 0.0
O24 O 0.36167 0.51676 0.68741 0.0
C25 C 0.09926 0.41994 0.75827 0.0
O26 O 0.26905 0.43875 0.68792 0.0
O27 O 0.13012 0.39345 0.7547 0.0
C28 C 0.66147 0.25658 0.82346 0.0
O29 O 0.68195 0.30889 0.84096 0.0
Cd30 Cd 0.75741 0.34602 0.89941 0.0
O31 O 0.67848 0.22048 0.83872 0.0
Cd32 Cd 0.74101 0.21596 0.90417 0.0
C33 C 0.86498 0.3176 0.8492 0.0
O34 O 0.70966 0.26848 0.9563 0.0
O35 O 0.78511 0.2611 -0.01789 0.0
O36 O 0.6556 0.11651 0.9112 0.0
C37 C 0.74408 0.27422 -0.00992 0.0
O38 O 0.84777 0.35465 0.8616 0.0
C39 C 0.68451 0.09057 0.92416 0.0
O40 O 0.8332 0.26192 0.85896 0.0
O41 O 0.74168 0.12285 0.92581 0.0
C42 C 0.38252 0.67189 -0.00812 0.0
O43 O 0.35905 0.7019 0.00809 0.0
Cd44 Cd 0.40213 0.77541 0.0683 0.0
O45 O 0.43115 0.67763 0.0093 0.0
Cd46 Cd 0.50222 0.73298 0.07451 0.0
C47 C 0.54264 0.86179 0.01692 0.0
O48 O 0.42585 0.72601 0.12758 0.0
O49 O 0.51757 0.78286 0.15171 0.0
O50 O 0.49598 0.63773 0.0916 0.0
C51 C 0.46143 0.7583 0.15973 0.0
O52 O 0.49103 0.85328 0.0293 0.0
C53 C 0.55214 0.65865 0.09774 0.0
O54 O 0.55974 0.82428 0.0278 0.0
O55 O 0.58626 0.71474 0.09033 0.0
C56 C 0.70591 0.37694 0.15876 0.0
O57 O 0.65421 0.34928 0.17789 0.0
Cd58 Cd 0.62567 0.38902 0.24161 0.0
O59 O 0.7459 0.42888 0.17333 0.0
Cd60 Cd 0.75675 0.50098 0.2364 0.0
C61 C 0.64695 0.51923 0.1886 0.0
O62 O 0.7102 0.42261 0.29315 0.0
O63 O 0.72068 0.5076 0.31648 0.0
O64 O 0.85791 0.51684 0.23948 0.0
C65 C 0.70821 0.45428 0.32642 0.0
O66 O 0.61127 0.46749 0.20565 0.0
C67 C 0.88395 0.57278 0.24872 0.0
O68 O 0.70383 0.54224 0.19288 0.0
O69 O 0.85075 0.59687 0.24988 0.0
C70 C 0.32034 0.72312 0.32422 0.0
O71 O 0.29454 0.66902 0.33874 0.0
Cd72 Cd 0.21157 0.62772 0.39138 0.0
O73 O 0.30516 0.76071 0.33949 0.0
Cd74 Cd 0.2394 0.76863 0.40014 0.0
C75 C 0.11829 0.67269 0.33632 0.0
O76 O 0.25064 0.70098 0.45141 0.0
O77 O 0.19124 0.73156 0.47793 0.0
O78 O 0.32969 0.86288 0.41512 0.0
C79 C 0.21656 0.70017 0.48383 0.0
O80 O 0.13171 0.63268 0.34814 0.0
C81 C 0.30391 0.89368 0.42262 0.0
O82 O 0.15046 0.72722 0.34977 0.0
O83 O 0.24687 0.86664 0.4175 0.0
C84 C 0.43666 0.03768 0.46758 0.0
C85 C 0.40976 0.06886 0.48791 0.0
C86 C 0.40214 0.98273 0.44444 0.0
C87 C 0.33906 0.95621 0.44071 0.0
H88 H 0.48491 0.05516 0.47027 0.0
H89 H 0.4252 0.96001 0.43068 0.0
S90 S 0.24676 0.02184 0.48417 0.0
N91 N 0.31653 0.07133 0.49991 0.0
N92 N 0.25124 0.96731 0.45641 0.0
C93 C 0.31164 0.98818 0.45874 0.0
C94 C 0.34707 0.04464 0.48234 0.0
C95 C 0.43183 0.41856 0.61959 0.0
C96 C 0.39477 0.35691 0.60919 0.0
C97 C 0.40832 0.45217 0.64038 0.0
C98 C 0.34662 0.4257 0.65173 0.0
H99 H 0.47994 0.44098 0.61279 0.0
H100 H 0.43932 0.49915 0.64845 0.0
S101 S 0.22908 0.26675 0.62801 0.0
N102 N 0.29242 0.27139 0.60906 0.0
N103 N 0.24799 0.33457 0.64811 0.0
C104 C 0.30844 0.36456 0.63979 0.0
C105 C 0.33253 0.33022 0.61852 0.0
C106 C 0.95235 0.39989 0.80655 0.0
C107 C 0.92261 0.34021 0.82319 0.0
C108 C 0.00816 0.42409 0.78396 0.0
C109 C 0.03698 0.38985 0.77715 0.0
H110 H 0.93285 0.42875 0.81148 0.0
H111 H 0.02949 0.47073 0.77283 0.0
S112 S 0.97671 0.22991 0.81127 0.0
N113 N 0.92482 0.24616 0.82908 0.0
N114 N 0.03024 0.29206 0.78669 0.0
C115 C 0.00701 0.32943 0.79212 0.0
C116 C 0.94976 0.30454 0.8151 0.0
C117 C 0.55392 0.9412 0.96135 0.0
C118 C 0.58146 0.91568 -0.01147 0.0
C119 C 0.5882 -0.00415 0.93814 0.0
C120 C 0.65157 0.02774 0.94143 0.0
H121 H 0.50515 0.91952 0.95886 0.0
H122 H 0.5644 0.01434 0.91905 0.0
S123 S 0.74613 0.97711 0.00406 0.0
N124 N 0.67598 0.92338 0.01413 0.0
N125 N 0.74101 0.02721 0.97071 0.0
C126 C 0.6801 0.00103 0.9661 0.0
C127 C 0.64488 0.94472 -0.01038 0.0
C128 C 0.66048 0.61288 0.14939 0.0
C129 C 0.62202 0.55271 0.16319 0.0
C130 C 0.63783 0.64617 0.12676 0.0
C131 C 0.57587 0.62058 0.11682 0.0
H132 H 0.70843 0.63502 0.15686 0.0
H133 H 0.66909 0.69276 0.11794 0.0
S134 S 0.45637 0.46333 0.14256 0.0
N135 N 0.51903 0.46794 0.16299 0.0
N136 N 0.47668 0.53036 0.12043 0.0
C137 C 0.53712 0.55986 0.12903 0.0
C138 C 0.56011 0.52601 0.15225 0.0
C139 C 0.03719 0.59818 0.28409 0.0
C140 C 0.06321 0.65391 0.30782 0.0
C141 C 0.981 0.5745 0.26217 0.0
C142 C 0.94815 0.60532 0.26324 0.0
H143 H 0.05944 0.57143 0.28369 0.0
H144 H 0.96203 0.53024 0.24613 0.0
S145 S -0.00025 0.75675 0.31516 0.0
N146 N 0.05483 0.74248 0.32681 0.0
N147 N 0.94854 0.69758 0.28566 0.0
C148 C 0.97543 0.66312 0.28385 0.0
C149 C 0.03311 0.6875 0.30615 0.0
C150 C 0.67648 0.34998 0.42837 0.0
C151 C 0.63685 0.35996 0.45642 0.0
C152 C 0.70083 0.38257 0.38727 0.0
C153 C 0.68751 0.4272 0.37294 0.0
H154 H 0.68705 0.315 0.4371 0.0
H155 H 0.7295 0.3718 0.3659 0.0
S156 S 0.5911 0.47516 0.43576 0.0
N157 N 0.58836 0.42052 0.46848 0.0
N158 N 0.63563 0.48288 0.391 0.0
C159 C 0.65067 0.44017 0.40166 0.0
C160 C 0.62484 0.40615 0.44341 0.0
C161 C 0.23702 0.70551 0.56907 0.0
C162 C 0.21401 0.67051 0.52825 0.0
C163 C 0.24908 0.68146 0.60905 0.0
C164 C 0.23689 0.62138 0.60958 0.0
H165 H 0.24953 0.75274 0.56904 0.0
H166 H 0.26972 0.7105 0.63923 0.0
S167 S 0.17135 0.51019 0.5126 0.0
N168 N 0.17657 0.57263 0.4911 0.0
N169 N 0.19664 0.52638 0.56715 0.0
C170 C 0.21013 0.5849 0.56997 0.0
C171 C 0.19943 0.60986 0.52892 0.0
C172 C 0.57549 0.258 0.78379 0.0
C173 C 0.61839 0.23863 0.78431 0.0
C174 C 0.53968 0.24928 0.7441 0.0
C175 C 0.54687 0.22219 0.70358 0.0
H176 H 0.57103 0.28189 0.81368 0.0
H177 H 0.50931 0.26749 0.74399 0.0
S178 S 0.64907 0.1594 0.68822 0.0
N179 N 0.66236 0.18671 0.7423 0.0
N180 N 0.59645 0.17248 0.66687 0.0
C181 C 0.5873 0.20002 0.70436 0.0
C182 C 0.62273 0.20757 0.7451 0.0
C183 C 0.2983 0.61731 0.87726 0.0
C184 C 0.30854 0.57014 0.86398 0.0
C185 C 0.32087 0.64837 0.91942 0.0
C186 C 0.35558 0.63425 0.94967 0.0
H187 H 0.27272 0.63066 0.85476 0.0
H188 H 0.31241 0.68499 0.92758 0.0
S189 S 0.39348 0.51284 0.93182 0.0
N190 N 0.3535 0.50886 0.88492 0.0
N191 N 0.3975 0.56846 0.96429 0.0
C192 C 0.36542 0.58641 0.93728 0.0
C193 C 0.34138 0.55393 0.89443 0.0
C194 C 0.67861 0.28474 0.04862 0.0
C195 C 0.73687 0.29776 0.03529 0.0
C196 C 0.66927 0.3096 0.08922 0.0
C197 C 0.71797 0.34941 0.11763 0.0
H198 H 0.63981 0.2554 0.02725 0.0
H199 H 0.62347 0.29873 0.09764 0.0
S200 S 0.8794 0.39639 0.09894 0.0
N201 N 0.84393 0.35098 0.05425 0.0
N202 N 0.82659 0.39924 0.13066 0.0
C203 C 0.77657 0.36217 0.1052 0.0
C204 C 0.78595 0.33578 0.06405 0.0
C205 C 0.36582 0.77818 0.25006 0.0
C206 C 0.36549 0.74111 0.28662 0.0
C207 C 0.40057 0.78704 0.2097 0.0
C208 C 0.43742 0.76087 0.20562 0.0
H209 H 0.33607 0.79709 0.25124 0.0
H210 H 0.3966 0.81223 0.18068 0.0
S211 S 0.45779 0.66596 0.29345 0.0
N212 N 0.40837 0.68181 0.31761 0.0
N213 N 0.47528 0.70043 0.24207 0.0
C214 C 0.44082 0.72737 0.24312 0.0
C215 C 0.40439 0.71702 0.28369 0.0
loop_
_geom_bond_atom_site_label_1
_geom_bond_atom_site_label_2
_geom_bond_distance
_geom_bond_site_symmetry_2
_ccdc_geom_bond_type
C0 O1 1.306 . S
C0 O3 1.160 . S
O1 C0 1.306 . S
O1 Cd2 2.228 . S
Cd2 O1 2.228 . S
Cd2 O6 2.273 . S
Cd2 O10 2.277 . S
O3 C0 1.160 . S
O3 Cd4 2.203 . S
Cd4 O3 2.203 . S
Cd4 O6 2.411 . S
Cd4 O7 2.333 . S
Cd4 O8 2.352 . S
Cd4 O12 2.277 . S
Cd4 O13 2.356 . S
C5 O10 1.209 . S
C5 O12 1.226 . S
O6 Cd2 2.273 . S
O6 Cd4 2.411 . S
O6 C9 1.320 . S
O7 Cd4 2.333 . S
O7 C9 1.214 . S
O8 Cd4 2.352 . S
O8 C11 1.258 . S
C9 O6 1.320 . S
C9 O7 1.214 . S
O10 Cd2 2.277 . S
O10 C5 1.209 . S
C11 O8 1.258 . S
C11 O13 1.282 . S
O12 Cd4 2.277 . S
O12 C5 1.226 . S
O13 Cd4 2.356 . S
O13 C11 1.282 . S
C14 O15 1.306 . S
C14 O17 1.160 . S
O15 C14 1.306 . S
O15 Cd16 2.228 . S
Cd16 O15 2.228 . S
Cd16 O20 2.273 . S
Cd16 O24 2.277 . S
O17 C14 1.160 . S
O17 Cd18 2.203 . S
Cd18 O17 2.203 . S
Cd18 O20 2.411 . S
Cd18 O21 2.333 . S
Cd18 O22 2.352 . S
Cd18 O26 2.277 . S
Cd18 O27 2.356 . S
C19 O24 1.209 . S
C19 O26 1.226 . S
O20 Cd16 2.273 . S
O20 Cd18 2.411 . S
O20 C23 1.320 . S
O21 Cd18 2.333 . S
O21 C23 1.214 . S
O22 Cd18 2.352 . S
O22 C25 1.258 . S
C23 O20 1.320 . S
C23 O21 1.214 . S
O24 Cd16 2.277 . S
O24 C19 1.209 . S
C25 O22 1.258 . S
C25 O27 1.282 . S
O26 Cd18 2.277 . S
O26 C19 1.226 . S
O27 Cd18 2.356 . S
O27 C25 1.282 . S
C28 O29 1.306 . S
C28 O31 1.160 . S
O29 C28 1.306 . S
O29 Cd30 2.228 . S
Cd30 O29 2.228 . S
Cd30 O34 2.273 . S
Cd30 O38 2.277 . S
O31 C28 1.160 . S
O31 Cd32 2.203 . S
Cd32 O31 2.203 . S
Cd32 O34 2.411 . S
Cd32 O35 2.335 1_556 S
Cd32 O36 2.352 . S
Cd32 O40 2.277 . S
Cd32 O41 2.356 . S
C33 O38 1.209 . S
C33 O40 1.226 . S
O34 Cd30 2.273 . S
O34 Cd32 2.411 . S
O34 C37 1.320 . S
O35 Cd32 2.335 1_554 S
O35 C37 1.214 1_554 S
O36 Cd32 2.352 . S
O36 C39 1.258 . S
C37 O34 1.320 . S
C37 O35 1.214 1_556 S
O38 Cd30 2.277 . S
O38 C33 1.209 . S
C39 O36 1.258 . S
C39 O41 1.282 . S
O40 Cd32 2.277 . S
O40 C33 1.226 . S
O41 Cd32 2.356 . S
O41 C39 1.282 . S
C42 O43 1.312 . S
C42 O45 1.164 . S
O43 C42 1.312 . S
O43 Cd44 2.228 . S
Cd44 O43 2.228 . S
Cd44 O48 2.273 . S
Cd44 O52 2.277 . S
O45 C42 1.164 . S
O45 Cd46 2.203 . S
Cd46 O45 2.203 . S
Cd46 O48 2.411 . S
Cd46 O49 2.333 . S
Cd46 O50 2.352 . S
Cd46 O54 2.277 . S
Cd46 O55 2.356 . S
C47 O52 1.209 . S
C47 O54 1.226 . S
O48 Cd44 2.273 . S
O48 Cd46 2.411 . S
O48 C51 1.320 . S
O49 Cd46 2.333 . S
O49 C51 1.214 . S
O50 Cd46 2.352 . S
O50 C53 1.258 . S
C51 O48 1.320 . S
C51 O49 1.214 . S
O52 Cd44 2.277 . S
O52 C47 1.209 . S
C53 O50 1.258 . S
C53 O55 1.282 . S
O54 Cd46 2.277 . S
O54 C47 1.226 . S
O55 Cd46 2.356 . S
O55 C53 1.282 . S
C56 O57 1.306 . S
C56 O59 1.160 . S
O57 C56 1.306 . S
O57 Cd58 2.228 . S
Cd58 O57 2.228 . S
Cd58 O62 2.273 . S
Cd58 O66 2.277 . S
O59 C56 1.160 . S
O59 Cd60 2.203 . S
Cd60 O59 2.203 . S
Cd60 O62 2.411 . S
Cd60 O63 2.333 . S
Cd60 O64 2.352 . S
Cd60 O68 2.277 . S
Cd60 O69 2.356 . S
C61 O66 1.209 . S
C61 O68 1.226 . S
O62 Cd58 2.273 . S
O62 Cd60 2.411 . S
O62 C65 1.320 . S
O63 Cd60 2.333 . S
O63 C65 1.214 . S
O64 Cd60 2.352 . S
O64 C67 1.258 . S
C65 O62 1.320 . S
C65 O63 1.214 . S
O66 Cd58 2.277 . S
O66 C61 1.209 . S
C67 O64 1.258 . S
C67 O69 1.282 . S
O68 Cd60 2.277 . S
O68 C61 1.226 . S
O69 Cd60 2.356 . S
O69 C67 1.282 . S
C70 O71 1.306 . S
C70 O73 1.160 . S
O71 C70 1.306 . S
O71 Cd72 2.228 . S
Cd72 O71 2.228 . S
Cd72 O76 2.273 . S
Cd72 O80 2.277 . S
O73 C70 1.160 . S
O73 Cd74 2.203 . S
Cd74 O73 2.203 . S
Cd74 O76 2.411 . S
Cd74 O77 2.333 . S
Cd74 O78 2.352 . S
Cd74 O82 2.277 . S
Cd74 O83 2.356 . S
C75 O80 1.209 . S
C75 O82 1.226 . S
O76 Cd72 2.273 . S
O76 Cd74 2.411 . S
O76 C79 1.320 . S
O77 Cd74 2.333 . S
O77 C79 1.214 . S
O78 Cd74 2.352 . S
O78 C81 1.258 . S
C79 O76 1.320 . S
C79 O77 1.214 . S
O80 Cd72 2.277 . S
O80 C75 1.209 . S
C81 O78 1.258 . S
C81 O83 1.282 . S
O82 Cd74 2.277 . S
O82 C75 1.226 . S
O83 Cd74 2.356 . S
O83 C81 1.282 . S
C84 C85 1.369 . S
C84 C86 1.419 1_545 S
C84 H88 0.930 . S
C85 C84 1.369 . S
C85 C94 1.429 . S
C86 C84 1.419 1_565 S
C86 C87 1.363 . S
C86 H89 0.929 . S
C87 C86 1.363 . S
C87 C93 1.428 . S
H88 C84 0.930 . S
H89 C86 0.929 . S
S90 N91 1.613 1_565 S
S90 N92 1.610 . S
N91 S90 1.613 1_545 S
N91 C94 1.350 . S
N92 S90 1.610 . S
N92 C93 1.351 . S
C93 C87 1.428 . S
C93 N92 1.351 . S
C93 C94 1.434 1_565 S
C94 C85 1.429 . S
C94 N91 1.350 . S
C94 C93 1.434 1_545 S
C95 C96 1.369 . S
C95 C97 1.419 . S
C95 H99 0.930 . S
C96 C95 1.369 . S
C96 C105 1.429 . S
C97 C95 1.419 . S
C97 C98 1.363 . S
C97 H100 0.929 . S
C98 C97 1.363 . S
C98 C104 1.428 . S
H99 C95 0.930 . S
H100 C97 0.929 . S
S101 N102 1.613 . S
S101 N103 1.610 . S
N102 S101 1.613 . S
N102 C105 1.350 . S
N103 S101 1.610 . S
N103 C104 1.351 . S
C104 C98 1.428 . S
C104 N103 1.351 . S
C104 C105 1.434 . S
C105 C96 1.429 . S
C105 N102 1.350 . S
C105 C104 1.434 . S
C106 C107 1.369 . S
C106 C108 1.419 1_655 S
C106 H110 0.930 . S
C107 C106 1.369 . S
C107 C116 1.429 . S
C108 C106 1.419 1_455 S
C108 C109 1.363 . S
C108 H111 0.929 . S
C109 C108 1.363 . S
C109 C115 1.428 . S
H110 C106 0.930 . S
H111 C108 0.929 . S
S112 N113 1.613 . S
S112 N114 1.610 1_655 S
N113 S112 1.613 . S
N113 C116 1.350 . S
N114 S112 1.610 1_455 S
N114 C115 1.351 . S
C115 C109 1.428 . S
C115 N114 1.351 . S
C115 C116 1.434 1_455 S
C116 C107 1.429 . S
C116 N113 1.350 . S
C116 C115 1.434 1_655 S
C117 C118 1.365 1_556 S
C117 C119 1.422 1_565 S
C117 H121 0.931 . S
C118 C117 1.365 1_554 S
C118 C127 1.429 . S
C119 C117 1.422 1_545 S
C119 C120 1.363 . S
C119 H122 0.929 . S
C120 C119 1.363 . S
C120 C126 1.428 1_556 S
H121 C117 0.931 . S
H122 C119 0.929 . S
S123 N124 1.613 1_545 S
S123 N125 1.610 . S
N124 S123 1.613 1_565 S
N124 C127 1.350 . S
N125 S123 1.610 . S
N125 C126 1.351 . S
C126 C120 1.428 1_554 S
C126 N125 1.351 . S
C126 C127 1.434 1_545 S
C127 C118 1.429 . S
C127 N124 1.350 . S
C127 C126 1.434 1_565 S
C128 C129 1.369 . S
C128 C130 1.419 . S
C128 H132 0.930 . S
C129 C128 1.369 . S
C129 C138 1.429 . S
C130 C128 1.419 . S
C130 C131 1.363 . S
C130 H133 0.929 . S
C131 C130 1.363 . S
C131 C137 1.428 . S
H132 C128 0.930 . S
H133 C130 0.929 . S
S134 N135 1.613 . S
S134 N136 1.610 . S
N135 S134 1.613 . S
N135 C138 1.350 . S
N136 S134 1.610 . S
N136 C137 1.351 . S
C137 C131 1.428 . S
C137 N136 1.351 . S
C137 C138 1.434 . S
C138 C129 1.429 . S
C138 N135 1.350 . S
C138 C137 1.434 . S
C139 C140 1.369 . S
C139 C141 1.419 1_455 S
C139 H143 0.930 . S
C140 C139 1.369 . S
C140 C149 1.429 . S
C141 C139 1.419 1_655 S
C141 C142 1.363 . S
C141 H144 0.929 . S
C142 C141 1.363 . S
C142 C148 1.428 . S
H143 C139 0.930 . S
H144 C141 0.929 . S
S145 N146 1.613 1_655 S
S145 N147 1.610 . S
N146 S145 1.613 1_455 S
N146 C149 1.350 . S
N147 S145 1.610 . S
N147 C148 1.351 . S
C148 C142 1.428 . S
C148 N147 1.351 . S
C148 C149 1.434 1_655 S
C149 C140 1.429 . S
C149 N146 1.350 . S
C149 C148 1.434 1_455 S
C150 C151 1.369 . S
C150 C152 1.419 . S
C150 H154 0.930 . S
C151 C150 1.369 . S
C151 C160 1.429 . S
C152 C150 1.419 . S
C152 C153 1.363 . S
C152 H155 0.929 . S
C153 C152 1.363 . S
C153 C159 1.428 . S
H154 C150 0.930 . S
H155 C152 0.929 . S
S156 N157 1.613 . S
S156 N158 1.610 . S
N157 S156 1.613 . S
N157 C160 1.350 . S
N158 S156 1.610 . S
N158 C159 1.351 . S
C159 C153 1.428 . S
C159 N158 1.351 . S
C159 C160 1.434 . S
C160 C151 1.429 . S
C160 N157 1.350 . S
C160 C159 1.434 . S
C161 C162 1.369 . S
C161 C163 1.419 . S
C161 H165 0.930 . S
C162 C161 1.369 . S
C162 C171 1.429 . S
C163 C161 1.419 . S
C163 C164 1.363 . S
C163 H166 0.929 . S
C164 C163 1.363 . S
C164 C170 1.428 . S
H165 C161 0.930 . S
H166 C163 0.929 . S
S167 N168 1.613 . S
S167 N169 1.610 . S
N168 S167 1.613 . S
N168 C171 1.350 . S
N169 S167 1.610 . S
N169 C170 1.351 . S
C170 C164 1.428 . S
C170 N169 1.351 . S
C170 C171 1.434 . S
C171 C162 1.429 . S
C171 N168 1.350 . S
C171 C170 1.434 . S
C172 C173 1.369 . S
C172 C174 1.419 . S
C172 H176 0.930 . S
C173 C172 1.369 . S
C173 C182 1.429 . S
C174 C172 1.419 . S
C174 C175 1.363 . S
C174 H177 0.929 . S
C175 C174 1.363 . S
C175 C181 1.428 . S
H176 C172 0.930 . S
H177 C174 0.929 . S
S178 N179 1.613 . S
S178 N180 1.610 . S
N179 S178 1.613 . S
N179 C182 1.350 . S
N180 S178 1.610 . S
N180 C181 1.351 . S
C181 C175 1.428 . S
C181 N180 1.351 . S
C181 C182 1.434 . S
C182 C173 1.429 . S
C182 N179 1.350 . S
C182 C181 1.434 . S
C183 C184 1.369 . S
C183 C185 1.419 . S
C183 H187 0.930 . S
C184 C183 1.369 . S
C184 C193 1.429 . S
C185 C183 1.419 . S
C185 C186 1.363 . S
C185 H188 0.929 . S
C186 C185 1.363 . S
C186 C192 1.428 . S
H187 C183 0.930 . S
H188 C185 0.929 . S
S189 N190 1.613 . S
S189 N191 1.610 . S
N190 S189 1.613 . S
N190 C193 1.350 . S
N191 S189 1.610 . S
N191 C192 1.351 . S
C192 C186 1.428 . S
C192 N191 1.351 . S
C192 C193 1.434 . S
C193 C184 1.429 . S
C193 N190 1.350 . S
C193 C192 1.434 . S
C194 C195 1.369 . S
C194 C196 1.419 . S
C194 H198 0.930 . S
C195 C194 1.369 . S
C195 C204 1.429 . S
C196 C194 1.419 . S
C196 C197 1.363 . S
C196 H199 0.929 . S
C197 C196 1.363 . S
C197 C203 1.428 . S
H198 C194 0.930 . S
H199 C196 0.929 . S
S200 N201 1.613 . S
S200 N202 1.610 . S
N201 S200 1.613 . S
N201 C204 1.350 . S
N202 S200 1.610 . S
N202 C203 1.351 . S
C203 C197 1.428 . S
C203 N202 1.351 . S
C203 C204 1.434 . S
C204 C195 1.429 . S
C204 N201 1.350 . S
C204 C203 1.434 . S
C205 C206 1.369 . S
C205 C207 1.419 . S
C205 H209 0.930 . S
C206 C205 1.369 . S
C206 C215 1.429 . S
C207 C205 1.419 . S
C207 C208 1.363 . S
C207 H210 0.929 . S
C208 C207 1.363 . S
C208 C214 1.428 . S
H209 C205 0.930 . S
H210 C207 0.929 . S
S211 N212 1.613 . S
S211 N213 1.610 . S
N212 S211 1.613 . S
N212 C215 1.350 . S
N213 S211 1.610 . S
N213 C214 1.351 . S
C214 C208 1.428 . S
C214 N213 1.351 . S
C214 C215 1.434 . S
C215 C206 1.429 . S
C215 N212 1.350 . S
C215 C214 1.434 . S
C85 C5 1.584 . S
C87 C81 1.575 . S
C96 C11 1.575 . S
C98 C19 1.584 . S
C107 C33 1.584 . S
C109 C25 1.575 . S
C118 C47 1.584 . S
C120 C39 1.575 . S
C129 C61 1.584 . S
C131 C53 1.576 . S
C140 C75 1.584 . S
C142 C67 1.575 . S
C151 C0 1.463 . S
C153 C65 1.474 . S
C162 C79 1.474 . S
C164 C14 1.463 . S
C173 C28 1.463 . S
C175 C9 1.474 . S
C184 C23 1.474 . S
C186 C42 1.453 1_556 S
C195 C37 1.474 1_554 S
C197 C56 1.464 . S
C206 C70 1.462 . S
C208 C51 1.473 . S
