# Generated by pormake.
# Topology uni, (4)-cn, num edge types: 1
# Building blocks:
#     Node 0, Type 0, BuildingBlock: NAHDIM_clean_sbu_0, # of connection points: 4
#     Node 1, Type 0, BuildingBlock: NAHDIM_clean_sbu_0, # of connection points: 4
#     Node 2, Type 0, BuildingBlock: NAHDIM_clean_sbu_0, # of connection points: 4
#     Node 3, Type 0, BuildingBlock: NAHDIM_clean_sbu_0, # of connection points: 4
#     Node 4, Type 0, BuildingBlock: NAHDIM_clean_sbu_0, # of connection points: 4
#     Node 5, Type 0, BuildingBlock: NAHDIM_clean_sbu_0, # of connection points: 4
#     Edge 6, Type (0, 0), None
#     Edge 7, Type (0, 0), None
#     Edge 8, Type (0, 0), None
#     Edge 9, Type (0, 0), None
#     Edge 10, Type (0, 0), None
#     Edge 11, Type (0, 0), None
#     Edge 12, Type (0, 0), None
#     Edge 13, Type (0, 0), None
#     Edge 14, Type (0, 0), None
#     Edge 15, Type (0, 0), None
#     Edge 16, Type (0, 0), None
#     Edge 17, Type (0, 0), None
# Relax obj value: 0.043
# Max RMSD: 0.076
# Mean RMSD: 0.076
data_MOF--net-uni--node1-NAHDIM_clean_sbu_0--edge1-none
_symmetry_space_group_name_H-M    P1
_symmetry_Int_Tables_number       1
_symmetry_cell_setting            triclinic
loop_
_symmetry_equiv_pos_as_xyz
'x, y, z'
_cell_length_a     18.334129
_cell_length_b     18.33494
_cell_length_c     10.639285
_cell_angle_alpha  90.00091
_cell_angle_beta   89.999506
_cell_angle_gamma 120.00809
loop_
_atom_site_label
_atom_site_type_symbol
_atom_site_fract_x
_atom_site_fract_y
_atom_site_fract_z
_atom_type_partial_charge
C0 C 0.64812 0.84162 0.1387 0.0
O1 O 0.62879 0.86105 0.24771 0.0
O2 O 0.72368 0.08738 0.05773 0.0
Zn3 Zn 0.61874 0.97329 0.04785 0.0
O4 O 0.54651 0.95715 0.19993 0.0
C5 C 0.54339 0.02539 0.8526 0.0
O6 O 0.581 0.09816 0.91113 0.0
O7 O 0.64924 0.88177 0.04074 0.0
C8 C 0.53877 0.01783 0.24168 0.0
O9 O 0.57844 0.09148 0.18584 0.0
C10 C 0.76965 0.12241 0.9623 0.0
O11 O 0.75002 0.08319 0.85362 0.0
O12 O 0.55151 0.96462 0.89296 0.0
C13 C 0.8223 0.64887 0.30535 0.0
O14 O 0.78352 0.62948 0.41434 0.0
O15 O 0.65208 0.72442 0.22439 0.0
Zn16 Zn 0.66125 0.6195 0.2145 0.0
O17 O 0.60516 0.54726 0.36657 0.0
C18 C 0.53379 0.54414 0.01922 0.0
O19 O 0.49862 0.58173 0.07773 0.0
O20 O 0.78328 0.65003 0.20739 0.0
C21 C 0.53671 0.53948 0.4083 0.0
O22 O 0.5027 0.57911 0.35245 0.0
C23 C 0.66302 0.77039 0.12896 0.0
O24 O 0.68262 0.75078 0.02028 0.0
O25 O 0.60269 0.55226 0.0596 0.0
C26 C 0.18922 0.82304 0.47201 0.0
O27 O 0.16979 0.78427 0.58101 0.0
O28 O 0.94347 0.6528 0.39103 0.0
Zn29 Zn 0.05756 0.66198 0.38112 0.0
O30 O 0.0737 0.60589 0.53318 0.0
C31 C 0.00545 0.53454 0.18583 0.0
O32 O 0.93267 0.49937 0.24434 0.0
O33 O 0.14908 0.78401 0.37403 0.0
C34 C 0.01302 0.53744 0.57491 0.0
O35 O 0.93937 0.50343 0.51907 0.0
C36 C 0.90845 0.66378 0.29562 0.0
O37 O 0.94767 0.68342 0.18695 0.0
O38 O 0.06623 0.60343 0.22622 0.0
C39 C 0.382 0.18996 0.6387 0.0
O40 O 0.40132 0.17053 0.74772 0.0
O41 O 0.30645 0.94421 0.55773 0.0
Zn42 Zn 0.41139 0.0583 0.54786 0.0
O43 O 0.48361 0.07444 0.69995 0.0
C44 C 0.48673 0.00619 0.35259 0.0
O45 O 0.44911 0.93341 0.41109 0.0
O46 O 0.38089 0.14981 0.54074 0.0
C47 C 0.49137 0.01376 0.74167 0.0
O48 O 0.45171 0.94011 0.68581 0.0
C49 C 0.26047 0.90918 0.4623 0.0
O50 O 0.28009 0.9484 0.35363 0.0
O51 O 0.47863 0.06697 0.39298 0.0
C52 C 0.20781 0.38272 0.80535 0.0
O53 O 0.24659 0.40212 0.91434 0.0
O54 O 0.37802 0.30716 0.72439 0.0
Zn55 Zn 0.36886 0.41207 0.71449 0.0
O56 O 0.42496 0.48432 0.86656 0.0
C57 C 0.49632 0.48744 0.51922 0.0
O58 O 0.5315 0.44987 0.57774 0.0
O59 O 0.24683 0.38155 0.7074 0.0
C60 C 0.4934 0.49209 0.9083 0.0
O61 O 0.5274 0.45245 0.85247 0.0
C62 C 0.3671 0.26119 0.62896 0.0
O63 O 0.34751 0.2808 0.52028 0.0
O64 O 0.42741 0.47931 0.55959 0.0
C65 C 0.8409 0.20855 0.97201 0.0
O66 O 0.86034 0.24732 0.08101 0.0
O67 O 0.08665 0.37879 0.89102 0.0
Zn68 Zn 0.97256 0.36961 0.88112 0.0
O69 O 0.95641 0.42571 0.03318 0.0
C70 C 0.02467 0.49705 0.68583 0.0
O71 O 0.09744 0.53223 0.74434 0.0
O72 O 0.88104 0.24758 0.87403 0.0
C73 C 0.01709 0.49415 0.07491 0.0
O74 O 0.09074 0.52816 0.01907 0.0
C75 C 0.12167 0.36781 0.79561 0.0
O76 O 0.08244 0.34816 0.68695 0.0
O77 O 0.96388 0.42816 0.72621 0.0
loop_
_geom_bond_atom_site_label_1
_geom_bond_atom_site_label_2
_geom_bond_distance
_geom_bond_site_symmetry_2
_ccdc_geom_bond_type
C0 O1 1.160 . S
C0 O7 1.185 . S
O1 C0 1.160 . S
O2 Zn3 1.899 1_556 S
O2 C10 1.284 1_556 S
Zn3 O2 1.899 1_554 S
Zn3 O4 2.032 . S
Zn3 O7 2.086 1_545 S
Zn3 O12 1.977 1_544 S
O4 Zn3 2.032 . S
O4 C8 1.278 . S
C5 O6 1.203 . S
C5 O12 1.267 1_545 S
O6 C5 1.203 . S
O7 C0 1.185 . S
O7 Zn3 2.086 1_565 S
C8 O4 1.278 . S
C8 O9 1.211 . S
O9 C8 1.211 . S
C10 O2 1.284 1_554 S
C10 O11 1.273 . S
O11 C10 1.273 . S
O12 Zn3 1.977 1_566 S
O12 C5 1.267 1_565 S
C13 O14 1.160 . S
C13 O20 1.185 . S
O14 C13 1.160 . S
O15 Zn16 1.899 . S
O15 C23 1.284 . S
Zn16 O15 1.899 . S
Zn16 O17 2.032 . S
Zn16 O20 2.086 . S
Zn16 O25 1.977 . S
O17 Zn16 2.032 . S
O17 C21 1.278 . S
C18 O19 1.203 . S
C18 O25 1.267 . S
O19 C18 1.203 . S
O20 C13 1.185 . S
O20 Zn16 2.086 . S
C21 O17 1.278 . S
C21 O22 1.211 . S
O22 C21 1.211 . S
C23 O15 1.284 . S
C23 O24 1.273 . S
O24 C23 1.273 . S
O25 Zn16 1.977 . S
O25 C18 1.267 . S
C26 O27 1.160 . S
C26 O33 1.185 . S
O27 C26 1.160 . S
O28 Zn29 1.899 1_655 S
O28 C36 1.284 . S
Zn29 O28 1.899 1_455 S
Zn29 O30 2.032 . S
Zn29 O33 2.086 . S
Zn29 O38 1.977 . S
O30 Zn29 2.032 . S
O30 C34 1.278 . S
C31 O32 1.203 1_455 S
C31 O38 1.267 . S
O32 C31 1.203 1_655 S
O33 C26 1.185 . S
O33 Zn29 2.086 . S
C34 O30 1.278 . S
C34 O35 1.211 1_455 S
O35 C34 1.211 1_655 S
C36 O28 1.284 . S
C36 O37 1.273 . S
O37 C36 1.273 . S
O38 Zn29 1.977 . S
O38 C31 1.267 . S
C39 O40 1.160 . S
C39 O46 1.185 . S
O40 C39 1.160 . S
O41 Zn42 1.899 1_565 S
O41 C49 1.284 . S
Zn42 O41 1.899 1_545 S
Zn42 O43 2.032 . S
Zn42 O46 2.086 . S
Zn42 O51 1.977 . S
O43 Zn42 2.032 . S
O43 C47 1.278 . S
C44 O45 1.203 1_545 S
C44 O51 1.267 . S
O45 C44 1.203 1_565 S
O46 C39 1.185 . S
O46 Zn42 2.086 . S
C47 O43 1.278 . S
C47 O48 1.211 1_545 S
O48 C47 1.211 1_565 S
C49 O41 1.284 . S
C49 O50 1.273 . S
O50 C49 1.273 . S
O51 Zn42 1.977 . S
O51 C44 1.267 . S
C52 O53 1.160 . S
C52 O59 1.185 . S
O53 C52 1.160 . S
O54 Zn55 1.899 . S
O54 C62 1.284 . S
Zn55 O54 1.899 . S
Zn55 O56 2.032 . S
Zn55 O59 2.086 . S
Zn55 O64 1.977 . S
O56 Zn55 2.032 . S
O56 C60 1.278 . S
C57 O58 1.203 . S
C57 O64 1.267 . S
O58 C57 1.203 . S
O59 C52 1.185 . S
O59 Zn55 2.086 . S
C60 O56 1.278 . S
C60 O61 1.211 . S
O61 C60 1.211 . S
C62 O54 1.284 . S
C62 O63 1.273 . S
O63 C62 1.273 . S
O64 Zn55 1.977 . S
O64 C57 1.267 . S
C65 O66 1.160 . S
C65 O72 1.185 . S
O66 C65 1.160 . S
O67 Zn68 1.899 . S
O67 C75 1.284 . S
Zn68 O67 1.899 . S
Zn68 O69 2.032 1_556 S
Zn68 O72 2.086 1_455 S
Zn68 O77 1.977 1_455 S
O69 Zn68 2.032 1_554 S
O69 C73 1.278 . S
C70 O71 1.203 . S
C70 O77 1.267 1_455 S
O71 C70 1.203 . S
O72 C65 1.185 . S
O72 Zn68 2.086 1_655 S
C73 O69 1.278 . S
C73 O74 1.211 . S
O74 C73 1.211 . S
C75 O67 1.284 . S
C75 O76 1.273 . S
O76 C75 1.273 . S
O77 Zn68 1.977 1_655 S
O77 C70 1.267 1_655 S
C8 C44 1.342 . S
C21 C57 1.342 . S
C70 C34 1.342 . S
C5 C47 1.342 . S
C18 C60 1.342 1_554 S
C73 C31 1.342 . S
C23 C0 1.575 . S
C36 C13 1.575 . S
C26 C49 1.575 . S
C62 C39 1.575 . S
C75 C52 1.575 . S
C65 C10 1.575 1_556 S
