# Generated by pormake.
# Topology acs, (6)-cn, num edge types: 1
# Building blocks:
#     Node 0, Type 0, BuildingBlock: OJICUG_clean_sbu_0, # of connection points: 6
#     Node 1, Type 0, BuildingBlock: OJICUG_clean_sbu_0, # of connection points: 6
#     Edge 2, Type (0, 0), BuildingBlock: ZUJKAS_clean_linker_0, # of connection points: 2
#     Edge 3, Type (0, 0), BuildingBlock: ZUJKAS_clean_linker_0, # of connection points: 2
#     Edge 4, Type (0, 0), BuildingBlock: ZUJKAS_clean_linker_0, # of connection points: 2
#     Edge 5, Type (0, 0), BuildingBlock: ZUJKAS_clean_linker_0, # of connection points: 2
#     Edge 6, Type (0, 0), BuildingBlock: ZUJKAS_clean_linker_0, # of connection points: 2
#     Edge 7, Type (0, 0), BuildingBlock: ZUJKAS_clean_linker_0, # of connection points: 2
# Relax obj value: 0.000
# Max RMSD: 0.000
# Mean RMSD: 0.000
data_MOF--net-acs--node1-OJICUG_clean_sbu_0--edge1-ZUJKAS_clean_linker_0
_symmetry_space_group_name_H-M    P1
_symmetry_Int_Tables_number       1
_symmetry_cell_setting            triclinic
loop_
_symmetry_equiv_pos_as_xyz
'x, y, z'
_cell_length_a     27.393604
_cell_length_b     27.367312
_cell_length_c     28.205472
_cell_angle_alpha  89.978085
_cell_angle_beta   90.011068
_cell_angle_gamma 119.9529
loop_
_atom_site_label
_atom_site_type_symbol
_atom_site_fract_x
_atom_site_fract_y
_atom_site_fract_z
_atom_type_partial_charge
Sc0 Sc 0.7024 0.41382 0.24139 0.0
Sc1 Sc 0.57388 0.28484 0.24059 0.0
Sc2 Sc 0.70275 0.28508 0.24183 0.0
O3 O 0.65968 0.32792 0.24127 0.0
C4 C 0.77772 0.38692 0.17135 0.0
C5 C 0.60166 0.38647 0.16954 0.0
C6 C 0.60208 0.21059 0.17037 0.0
C7 C 0.59992 0.38635 0.31121 0.0
C8 C 0.77602 0.38654 0.3131 0.0
C9 C 0.60053 0.21051 0.31205 0.0
O10 O 0.76034 0.41904 0.1872 0.0
O11 O 0.56942 0.33706 0.18548 0.0
O12 O 0.65128 0.22789 0.18677 0.0
O13 O 0.64942 0.41863 0.29556 0.0
O14 O 0.75921 0.33728 0.29696 0.0
O15 O 0.56849 0.2277 0.29565 0.0
O16 O 0.75904 0.41877 0.2967 0.0
O17 O 0.56805 0.33706 0.29491 0.0
O18 O 0.64993 0.22758 0.29621 0.0
O19 O 0.65068 0.41877 0.1861 0.0
O20 O 0.76053 0.33757 0.18749 0.0
O21 O 0.56961 0.22752 0.1862 0.0
Sc22 Sc 0.28276 0.57521 0.74136 0.0
Sc23 Sc 0.41163 0.70384 0.74081 0.0
Sc24 Sc 0.2831 0.7043 0.7416 0.0
O25 O 0.32583 0.66111 0.74126 0.0
C26 C 0.20801 0.60261 0.67108 0.0
C27 C 0.38378 0.60189 0.6701 0.0
C28 C 0.38403 0.77809 0.67005 0.0
C29 C 0.38471 0.60238 0.81177 0.0
C30 C 0.20924 0.60294 0.81282 0.0
C31 C 0.38533 0.77888 0.81172 0.0
O32 O 0.22516 0.57031 0.68697 0.0
O33 O 0.41612 0.65117 0.6862 0.0
O34 O 0.33497 0.76131 0.68656 0.0
O35 O 0.33538 0.57018 0.79575 0.0
O36 O 0.22634 0.65228 0.79669 0.0
O37 O 0.4173 0.7616 0.79536 0.0
O38 O 0.22603 0.57054 0.79647 0.0
O39 O 0.41682 0.65172 0.79563 0.0
O40 O 0.33587 0.7617 0.796 0.0
O41 O 0.3345 0.56985 0.6863 0.0
O42 O 0.22534 0.65197 0.68722 0.0
O43 O 0.41623 0.76082 0.68592 0.0
H44 H 0.33076 0.82699 0.85635 0.0
H45 H 0.36823 0.9005 0.91697 0.0
H46 H 0.52669 0.90277 0.9139 0.0
H47 H 0.48959 0.82877 0.85363 0.0
H48 H 0.48628 0.90179 0.00583 0.0
H49 H 0.48374 0.06737 0.89372 0.0
H50 H 0.41751 0.00269 0.89693 0.0
H51 H 0.47693 0.00328 0.86931 0.0
C52 C 0.37359 0.84299 0.8685 0.0
C53 C 0.40723 0.82208 0.84978 0.0
C54 C 0.39502 0.88529 0.90298 0.0
C55 C 0.45053 0.90774 0.91924 0.0
C56 C 0.48384 0.88623 0.90152 0.0
H57 H 0.65807 0.16358 0.12629 0.0
H58 H 0.62203 0.09054 0.06524 0.0
C59 C 0.4625 0.84391 0.86704 0.0
C60 C 0.47369 0.95329 0.95514 0.0
H61 H 0.50449 0.08877 0.9753 0.0
C62 C 0.49056 0.94279 -0.00086 0.0
C63 C 0.47914 0.00667 0.94621 0.0
C64 C 0.46388 0.02106 0.89886 0.0
C65 C 0.51172 0.98393 0.03491 0.0
C66 C 0.51702 0.03725 0.02602 0.0
C67 C 0.50029 0.0478 0.98197 0.0
C68 C 0.53944 0.08256 0.06214 0.0
C69 C 0.52696 0.96952 0.08226 0.0
C70 C 0.50551 0.10351 0.07955 0.0
C71 C 0.52603 0.14555 0.11425 0.0
C72 C 0.58108 0.16766 0.13209 0.0
C73 C 0.61537 0.14733 0.1137 0.0
C74 C 0.59476 0.10531 0.07897 0.0
H75 H 0.50746 0.92322 0.08726 0.0
H76 H 0.57336 0.98828 0.08437 0.0
H77 H 0.51349 0.98693 0.1118 0.0
H78 H 0.46279 0.08672 0.06674 0.0
H79 H 0.49846 0.16024 0.12739 0.0
H80 H 0.32945 0.49803 0.62728 0.0
H81 H 0.36652 0.46146 0.56665 0.0
H82 H 0.52271 0.61991 0.56481 0.0
H83 H 0.48651 0.65683 0.62575 0.0
H84 H 0.40676 0.50296 0.47493 0.0
H85 H 0.57346 0.50368 0.58754 0.0
H86 H 0.51609 0.51034 0.61183 0.0
H87 H 0.57515 0.57008 0.58479 0.0
C88 C 0.37171 0.52523 0.61405 0.0
C89 C 0.40511 0.58032 0.63178 0.0
C90 C 0.39278 0.5042 0.57937 0.0
C91 C 0.44766 0.53764 0.5619 0.0
C92 C 0.48066 0.593 0.57859 0.0
H93 H 0.65322 0.49003 0.3543 0.0
H94 H 0.61522 0.52594 0.41466 0.0
C95 C 0.45969 0.61411 0.61327 0.0
C96 C 0.47024 0.51476 0.5259 0.0
H97 H 0.57471 0.48371 0.50588 0.0
C98 C 0.44331 0.49847 0.4817 0.0
C99 C 0.51795 0.50904 0.53493 0.0
C100 C 0.54715 0.5237 0.58246 0.0
C101 C 0.4635 0.47758 0.44587 0.0
C102 C 0.51128 0.47196 0.45488 0.0
C103 C 0.53814 0.48816 0.49911 0.0
C104 C 0.5342 0.44952 0.41878 0.0
C105 C 0.43431 0.46291 0.39834 0.0
C106 C 0.50155 0.39427 0.40176 0.0
C107 C 0.52306 0.37352 0.36722 0.0
C108 C 0.57784 0.4076 0.34919 0.0
C109 C 0.61083 0.46262 0.36716 0.0
C110 C 0.58922 0.48328 0.4017 0.0
H111 H 0.40781 0.48274 0.39333 0.0
H112 H 0.4654 0.47649 0.36897 0.0
H113 H 0.4065 0.41652 0.39593 0.0
H114 H 0.4594 0.36712 0.41524 0.0
H115 H 0.49654 0.33085 0.35452 0.0
H116 H 0.82696 0.4905 0.12807 0.0
H117 H 0.8997 0.52638 0.06675 0.0
H118 H 0.89984 0.36892 0.06741 0.0
H119 H 0.82671 0.33225 0.1283 0.0
H120 H 0.0078 0.53863 0.07233 0.0
H121 H 0.88252 0.39392 0.9264 0.0
H122 H 0.85042 0.4031 0.97901 0.0
H123 H 0.88197 0.35919 0.98061 0.0
C124 C 0.84208 0.46323 0.11502 0.0
C125 C 0.82073 0.40833 0.13314 0.0
C126 C 0.88375 0.48391 0.08 0.0
C127 C 0.90461 0.45007 0.06216 0.0
C128 C 0.88352 0.39535 0.08007 0.0
H129 H 0.16058 0.49957 0.85642 0.0
H130 H 0.08855 0.46391 0.91831 0.0
C131 C 0.84188 0.37458 0.11509 0.0
C132 C 0.94976 0.47268 0.02591 0.0
H133 H 0.98072 0.45172 0.91314 0.0
C134 C 0.00187 0.51985 0.03743 0.0
C135 C 0.94184 0.44792 0.98051 0.0
C136 C 0.88604 0.39854 0.96558 0.0
C137 C 0.04671 0.54242 0.00497 0.0
C138 C 0.03878 0.51766 0.95956 0.0
C139 C 0.98666 0.47049 0.94805 0.0
C140 C 0.08385 0.54032 0.92323 0.0
C141 C 0.1025 0.5918 0.01989 0.0
C142 C 0.10488 0.59505 0.90536 0.0
C143 C 0.14613 0.61569 0.87 0.0
C144 C 0.16691 0.58179 0.85157 0.0
C145 C 0.14572 0.52694 0.86974 0.0
C146 C 0.10446 0.50639 0.9051 0.0
H147 H 0.10608 0.5963 0.05908 0.0
H148 H 0.13814 0.58733 0.00634 0.0
H149 H 0.10649 0.63116 0.005 0.0
H150 H 0.08875 0.62154 0.91824 0.0
H151 H 0.16119 0.658 0.85678 0.0
H152 H 0.33014 0.82859 0.62811 0.0
H153 H 0.36647 0.90096 0.56641 0.0
H154 H 0.52206 0.8975 0.56346 0.0
H155 H 0.48613 0.82474 0.62474 0.0
H156 H 0.46378 0.00817 0.57107 0.0
H157 H 0.47636 0.88099 0.42321 0.0
H158 H 0.43605 0.84942 0.47637 0.0
H159 H 0.51127 0.87938 0.47661 0.0
C160 C 0.37195 0.84281 0.61415 0.0
C161 C 0.40513 0.82062 0.63143 0.0
C162 C 0.39263 0.88426 0.57892 0.0
C163 C 0.44664 0.90405 0.56002 0.0
C164 C 0.47985 0.88203 0.57698 0.0
H165 H 0.65375 0.15967 0.35453 0.0
H166 H 0.61655 0.08694 0.41592 0.0
C167 C 0.45927 0.8406 0.61223 0.0
C168 C 0.46905 0.94924 0.52377 0.0
H169 H 0.51875 0.97962 0.41032 0.0
C170 C 0.47553 0.00192 0.53582 0.0
C171 C 0.48445 0.94088 0.47792 0.0
C172 C 0.47628 0.88449 0.46246 0.0
C173 C 0.49801 0.04689 0.50345 0.0
C174 C 0.5135 0.03855 0.45763 0.0
C175 C 0.50694 0.98585 0.44556 0.0
C176 C 0.53634 0.08388 0.42152 0.0
C177 C 0.50613 0.10327 0.51888 0.0
C178 C 0.50339 0.10604 0.40422 0.0
C179 C 0.52446 0.14767 0.36914 0.0
C180 C 0.57886 0.16774 0.35047 0.0
C181 C 0.61177 0.1454 0.36808 0.0
C182 C 0.59058 0.10374 0.40313 0.0
H183 H 0.50557 0.10664 0.55811 0.0
H184 H 0.54658 0.13831 0.50529 0.0
H185 H 0.47142 0.10858 0.50433 0.0
H186 H 0.46101 0.09054 0.41737 0.0
H187 H 0.4978 0.16365 0.35636 0.0
H188 H 0.33056 0.49869 0.85479 0.0
H189 H 0.36752 0.46244 0.91569 0.0
H190 H 0.5241 0.62053 0.91671 0.0
H191 H 0.48795 0.65718 0.85536 0.0
H192 H 0.53748 0.52549 0.91089 0.0
H193 H 0.39182 0.50375 0.05674 0.0
H194 H 0.35738 0.46962 0.00248 0.0
H195 H 0.40058 0.54513 0.00424 0.0
C196 C 0.37275 0.52602 0.8681 0.0
C197 C 0.4062 0.58098 0.85012 0.0
C198 C 0.39367 0.50525 0.90313 0.0
C199 C 0.44824 0.53907 0.92112 0.0
C200 C 0.48176 0.59387 0.9034 0.0
H201 H 0.65633 0.49012 0.12644 0.0
H202 H 0.61987 0.52648 0.06519 0.0
C203 C 0.46092 0.61473 0.86836 0.0
C204 C 0.4711 0.5166 0.95727 0.0
H205 H 0.45007 0.46363 0.06969 0.0
C206 C 0.5186 0.51222 0.94571 0.0
C207 C 0.44621 0.49921 0.00257 0.0
C208 C 0.39648 0.50505 0.01755 0.0
C209 C 0.54137 0.48994 0.97803 0.0
C210 C 0.51643 0.47249 0.02331 0.0
C211 C 0.46896 0.47692 0.03487 0.0
C212 C 0.53916 0.44988 0.05944 0.0
C213 C 0.59112 0.48414 0.96308 0.0
C214 C 0.50552 0.39504 0.07703 0.0
C215 C 0.52607 0.37412 0.11225 0.0
C216 C 0.58062 0.40786 0.13082 0.0
C217 C 0.61425 0.46282 0.1129 0.0
C218 C 0.59361 0.48364 0.07767 0.0
H219 H 0.59596 0.48567 0.92391 0.0
H220 H 0.63017 0.51945 0.97835 0.0
H221 H 0.58692 0.44397 0.97626 0.0
H222 H 0.46326 0.36842 0.06352 0.0
H223 H 0.49891 0.33167 0.12518 0.0
H224 H 0.15862 0.49914 0.62767 0.0
H225 H 0.08575 0.46347 0.56647 0.0
H226 H 0.08594 0.62109 0.5674 0.0
H227 H 0.15921 0.65757 0.62816 0.0
H228 H 0.97779 0.45144 0.57249 0.0
H229 H 0.10257 0.59612 0.42629 0.0
H230 H 0.13487 0.58688 0.47876 0.0
H231 H 0.10336 0.63082 0.48056 0.0
C232 C 0.14355 0.5265 0.61469 0.0
C233 C 0.16503 0.58137 0.63286 0.0
C234 C 0.10181 0.50594 0.57974 0.0
C235 C 0.08098 0.53988 0.56204 0.0
C236 C 0.10222 0.59459 0.57997 0.0
H237 H 0.82435 0.48993 0.3566 0.0
H238 H 0.8964 0.52582 0.41849 0.0
C239 C 0.14395 0.61524 0.61491 0.0
C240 C 0.03569 0.51734 0.52593 0.0
H241 H 0.00435 0.53826 0.41325 0.0
C242 C 0.9836 0.47021 0.53758 0.0
C243 C 0.04345 0.54211 0.48053 0.0
C244 C 0.0992 0.59148 0.46548 0.0
C245 C 0.93866 0.44763 0.50523 0.0
C246 C 0.94646 0.47235 0.45981 0.0
C247 C -0.00148 0.51953 0.44818 0.0
C248 C 0.90134 0.44955 0.42354 0.0
C249 C 0.88291 0.39826 0.52028 0.0
C250 C 0.88043 0.39482 0.40575 0.0
C251 C 0.83919 0.37405 0.37041 0.0
C252 C 0.81828 0.40781 0.3519 0.0
C253 C 0.83932 0.46266 0.36999 0.0
C254 C 0.88058 0.48334 0.40534 0.0
H255 H 0.87943 0.39386 0.55948 0.0
H256 H 0.84723 0.40266 0.50674 0.0
H257 H 0.87893 0.35887 0.50547 0.0
H258 H 0.89668 0.36843 0.41869 0.0
H259 H 0.82424 0.33174 0.35724 0.0
loop_
_geom_bond_atom_site_label_1
_geom_bond_atom_site_label_2
_geom_bond_distance
_geom_bond_site_symmetry_2
_ccdc_geom_bond_type
Sc0 O3 2.025 . S
Sc0 O10 2.105 . S
Sc0 O13 2.105 . S
Sc0 O16 2.105 . S
Sc0 O19 2.105 . S
Sc1 O3 2.025 . S
Sc1 O11 2.105 . S
Sc1 O15 2.105 . S
Sc1 O17 2.105 . S
Sc1 O21 2.105 . S
Sc2 O3 2.025 . S
Sc2 O12 2.105 . S
Sc2 O14 2.105 . S
Sc2 O18 2.105 . S
Sc2 O20 2.105 . S
O3 Sc0 2.025 . S
O3 Sc1 2.025 . S
O3 Sc2 2.025 . S
C4 O10 1.268 . S
C4 O20 1.268 . S
C5 O11 1.268 . S
C5 O19 1.268 . S
C6 O12 1.268 . S
C6 O21 1.268 . S
C7 O13 1.268 . S
C7 O17 1.268 . S
C8 O14 1.268 . S
C8 O16 1.268 . S
C9 O15 1.268 . S
C9 O18 1.268 . S
O10 Sc0 2.105 . S
O10 C4 1.268 . S
O11 Sc1 2.105 . S
O11 C5 1.268 . S
O12 Sc2 2.105 . S
O12 C6 1.268 . S
O13 Sc0 2.105 . S
O13 C7 1.268 . S
O14 Sc2 2.105 . S
O14 C8 1.268 . S
O15 Sc1 2.105 . S
O15 C9 1.268 . S
O16 Sc0 2.105 . S
O16 C8 1.268 . S
O17 Sc1 2.105 . S
O17 C7 1.268 . S
O18 Sc2 2.105 . S
O18 C9 1.268 . S
O19 Sc0 2.105 . S
O19 C5 1.268 . S
O20 Sc2 2.105 . S
O20 C4 1.268 . S
O21 Sc1 2.105 . S
O21 C6 1.268 . S
Sc22 O25 2.025 . S
Sc22 O32 2.105 . S
Sc22 O35 2.105 . S
Sc22 O38 2.105 . S
Sc22 O41 2.105 . S
Sc23 O25 2.025 . S
Sc23 O33 2.105 . S
Sc23 O37 2.105 . S
Sc23 O39 2.105 . S
Sc23 O43 2.105 . S
Sc24 O25 2.025 . S
Sc24 O34 2.105 . S
Sc24 O36 2.105 . S
Sc24 O40 2.105 . S
Sc24 O42 2.105 . S
O25 Sc22 2.025 . S
O25 Sc23 2.025 . S
O25 Sc24 2.025 . S
C26 O32 1.268 . S
C26 O42 1.268 . S
C27 O33 1.268 . S
C27 O41 1.268 . S
C28 O34 1.268 . S
C28 O43 1.268 . S
C29 O35 1.268 . S
C29 O39 1.268 . S
C30 O36 1.268 . S
C30 O38 1.268 . S
C31 O37 1.268 . S
C31 O40 1.268 . S
O32 Sc22 2.105 . S
O32 C26 1.268 . S
O33 Sc23 2.105 . S
O33 C27 1.268 . S
O34 Sc24 2.105 . S
O34 C28 1.268 . S
O35 Sc22 2.105 . S
O35 C29 1.268 . S
O36 Sc24 2.105 . S
O36 C30 1.268 . S
O37 Sc23 2.105 . S
O37 C31 1.268 . S
O38 Sc22 2.105 . S
O38 C30 1.268 . S
O39 Sc23 2.105 . S
O39 C29 1.268 . S
O40 Sc24 2.105 . S
O40 C31 1.268 . S
O41 Sc22 2.105 . S
O41 C27 1.268 . S
O42 Sc24 2.105 . S
O42 C26 1.268 . S
O43 Sc23 2.105 . S
O43 C28 1.268 . S
H44 C52 0.929 . S
H45 C54 0.930 . S
H46 C56 0.930 . S
H47 C59 0.929 . S
H48 C62 0.930 . S
H49 C64 0.960 1_545 S
H50 C64 0.960 . S
H51 C64 0.960 . S
C52 H44 0.929 . S
C52 C53 1.377 . S
C52 C54 1.384 . S
C53 C52 1.377 . S
C53 C59 1.390 . S
C54 H45 0.930 . S
C54 C52 1.384 . S
C54 C55 1.372 . S
C55 C54 1.372 . S
C55 C56 1.400 . S
C55 C60 1.490 . S
C56 H46 0.930 . S
C56 C55 1.400 . S
C56 C59 1.386 . S
H57 C73 0.930 . S
H58 C74 0.931 . S
C59 H47 0.929 . S
C59 C53 1.390 . S
C59 C56 1.386 . S
C60 C55 1.490 . S
C60 C62 1.395 1_556 S
C60 C63 1.403 . S
H61 C67 0.930 . S
C62 H48 0.930 . S
C62 C60 1.395 1_554 S
C62 C65 1.403 . S
C63 C60 1.403 . S
C63 C64 1.524 . S
C63 C67 1.400 1_566 S
C64 H49 0.960 1_565 S
C64 H50 0.960 . S
C64 H51 0.960 . S
C64 C63 1.524 . S
C65 C62 1.403 . S
C65 C66 1.392 1_565 S
C65 C69 1.495 . S
C66 C65 1.392 1_545 S
C66 C67 1.385 . S
C66 C68 1.478 . S
C67 H61 0.930 . S
C67 C63 1.400 1_544 S
C67 C66 1.385 . S
C68 C66 1.478 . S
C68 C70 1.381 . S
C68 C74 1.383 . S
C69 C65 1.495 . S
C69 H75 0.959 . S
C69 H76 0.961 1_565 S
C69 H77 0.960 . S
C70 C68 1.381 . S
C70 C71 1.394 . S
C70 H78 0.930 . S
C71 C70 1.394 . S
C71 C72 1.383 . S
C71 H79 0.929 . S
C72 C71 1.383 . S
C72 C73 1.377 . S
C73 H57 0.930 . S
C73 C72 1.377 . S
C73 C74 1.379 . S
C74 H58 0.931 . S
C74 C68 1.383 . S
C74 C73 1.379 . S
H75 C69 0.959 . S
H76 C69 0.961 1_545 S
H77 C69 0.960 . S
H78 C70 0.930 . S
H79 C71 0.929 . S
H80 C88 0.929 . S
H81 C90 0.930 . S
H82 C92 0.930 . S
H83 C95 0.929 . S
H84 C98 0.930 . S
H85 C100 0.960 . S
H86 C100 0.960 . S
H87 C100 0.960 . S
C88 H80 0.929 . S
C88 C89 1.377 . S
C88 C90 1.384 . S
C89 C88 1.377 . S
C89 C95 1.390 . S
C90 H81 0.930 . S
C90 C88 1.384 . S
C90 C91 1.372 . S
C91 C90 1.372 . S
C91 C92 1.400 . S
C91 C96 1.490 . S
C92 H82 0.930 . S
C92 C91 1.400 . S
C92 C95 1.386 . S
H93 C109 0.930 . S
H94 C110 0.931 . S
C95 H83 0.929 . S
C95 C89 1.390 . S
C95 C92 1.386 . S
C96 C91 1.490 . S
C96 C98 1.395 . S
C96 C99 1.403 . S
H97 C103 0.930 . S
C98 H84 0.930 . S
C98 C96 1.395 . S
C98 C101 1.403 . S
C99 C96 1.403 . S
C99 C100 1.524 . S
C99 C103 1.400 . S
C100 H85 0.960 . S
C100 H86 0.960 . S
C100 H87 0.960 . S
C100 C99 1.524 . S
C101 C98 1.403 . S
C101 C102 1.392 . S
C101 C105 1.495 . S
C102 C101 1.392 . S
C102 C103 1.385 . S
C102 C104 1.478 . S
C103 H97 0.930 . S
C103 C99 1.400 . S
C103 C102 1.385 . S
C104 C102 1.478 . S
C104 C106 1.381 . S
C104 C110 1.383 . S
C105 C101 1.495 . S
C105 H111 0.959 . S
C105 H112 0.961 . S
C105 H113 0.960 . S
C106 C104 1.381 . S
C106 C107 1.394 . S
C106 H114 0.930 . S
C107 C106 1.394 . S
C107 C108 1.383 . S
C107 H115 0.929 . S
C108 C107 1.383 . S
C108 C109 1.377 . S
C109 H93 0.930 . S
C109 C108 1.377 . S
C109 C110 1.379 . S
C110 H94 0.931 . S
C110 C104 1.383 . S
C110 C109 1.379 . S
H111 C105 0.959 . S
H112 C105 0.961 . S
H113 C105 0.960 . S
H114 C106 0.930 . S
H115 C107 0.929 . S
H116 C124 0.929 . S
H117 C126 0.930 . S
H118 C128 0.930 . S
H119 C131 0.929 . S
H120 C134 0.930 . S
H121 C136 0.960 . S
H122 C136 0.960 . S
H123 C136 0.948 1_554 S
C124 H116 0.929 . S
C124 C125 1.377 . S
C124 C126 1.384 . S
C125 C124 1.377 . S
C125 C131 1.390 . S
C126 H117 0.930 . S
C126 C124 1.384 . S
C126 C127 1.372 . S
C127 C126 1.372 . S
C127 C128 1.400 . S
C127 C132 1.490 . S
C128 H118 0.930 . S
C128 C127 1.400 . S
C128 C131 1.386 . S
H129 C145 0.930 . S
H130 C146 0.931 . S
C131 H119 0.929 . S
C131 C125 1.390 . S
C131 C128 1.386 . S
C132 C127 1.490 . S
C132 C134 1.395 1_655 S
C132 C135 1.403 1_554 S
H133 C139 0.930 . S
C134 H120 0.930 . S
C134 C132 1.395 1_455 S
C134 C137 1.403 . S
C135 C132 1.403 1_556 S
C135 C136 1.524 . S
C135 C139 1.400 1_655 S
C136 H121 0.960 . S
C136 H122 0.960 . S
C136 H123 0.948 1_556 S
C136 C135 1.524 . S
C137 C134 1.403 . S
C137 C138 1.392 1_554 S
C137 C141 1.495 . S
C138 C137 1.392 1_556 S
C138 C139 1.385 . S
C138 C140 1.478 . S
C139 H133 0.930 . S
C139 C135 1.400 1_455 S
C139 C138 1.385 . S
C140 C138 1.478 . S
C140 C142 1.381 . S
C140 C146 1.383 . S
C141 C137 1.495 . S
C141 H147 0.959 . S
C141 H148 0.961 . S
C141 H149 0.966 . S
C142 C140 1.381 . S
C142 C143 1.394 . S
C142 H150 0.930 . S
C143 C142 1.394 . S
C143 C144 1.383 . S
C143 H151 0.929 . S
C144 C143 1.383 . S
C144 C145 1.377 . S
C145 H129 0.930 . S
C145 C144 1.377 . S
C145 C146 1.379 . S
C146 H130 0.931 . S
C146 C140 1.383 . S
C146 C145 1.379 . S
H147 C141 0.959 . S
H148 C141 0.961 . S
H149 C141 0.966 . S
H150 C142 0.930 . S
H151 C143 0.929 . S
H152 C160 0.929 . S
H153 C162 0.930 . S
H154 C164 0.930 . S
H155 C167 0.929 . S
H156 C170 0.930 . S
H157 C172 0.960 . S
H158 C172 0.960 . S
H159 C172 0.960 . S
C160 H152 0.929 . S
C160 C161 1.377 . S
C160 C162 1.384 . S
C161 C160 1.377 . S
C161 C167 1.390 . S
C162 H153 0.930 . S
C162 C160 1.384 . S
C162 C163 1.372 . S
C163 C162 1.372 . S
C163 C164 1.400 . S
C163 C168 1.490 . S
C164 H154 0.930 . S
C164 C163 1.400 . S
C164 C167 1.386 . S
H165 C181 0.930 . S
H166 C182 0.931 . S
C167 H155 0.929 . S
C167 C161 1.390 . S
C167 C164 1.386 . S
C168 C163 1.490 . S
C168 C170 1.395 1_565 S
C168 C171 1.403 . S
H169 C175 0.930 . S
C170 H156 0.930 . S
C170 C168 1.395 1_545 S
C170 C173 1.403 . S
C171 C168 1.403 . S
C171 C172 1.524 . S
C171 C175 1.400 . S
C172 H157 0.960 . S
C172 H158 0.960 . S
C172 H159 0.960 . S
C172 C171 1.524 . S
C173 C170 1.403 . S
C173 C174 1.392 . S
C173 C177 1.495 . S
C174 C173 1.392 . S
C174 C175 1.385 1_545 S
C174 C176 1.478 . S
C175 H169 0.930 . S
C175 C171 1.400 . S
C175 C174 1.385 1_565 S
C176 C174 1.478 . S
C176 C178 1.381 . S
C176 C182 1.383 . S
C177 C173 1.495 . S
C177 H183 0.959 . S
C177 H184 0.961 . S
C177 H185 0.960 . S
C178 C176 1.381 . S
C178 C179 1.394 . S
C178 H186 0.930 . S
C179 C178 1.394 . S
C179 C180 1.383 . S
C179 H187 0.929 . S
C180 C179 1.383 . S
C180 C181 1.377 . S
C181 H165 0.930 . S
C181 C180 1.377 . S
C181 C182 1.379 . S
C182 H166 0.931 . S
C182 C176 1.383 . S
C182 C181 1.379 . S
H183 C177 0.959 . S
H184 C177 0.961 . S
H185 C177 0.960 . S
H186 C178 0.930 . S
H187 C179 0.929 . S
H188 C196 0.929 . S
H189 C198 0.930 . S
H190 C200 0.930 . S
H191 C203 0.929 . S
H192 C206 0.930 . S
H193 C208 0.960 . S
H194 C208 0.960 1_556 S
H195 C208 0.960 . S
C196 H188 0.929 . S
C196 C197 1.377 . S
C196 C198 1.384 . S
C197 C196 1.377 . S
C197 C203 1.390 . S
C198 H189 0.930 . S
C198 C196 1.384 . S
C198 C199 1.372 . S
C199 C198 1.372 . S
C199 C200 1.400 . S
C199 C204 1.490 . S
C200 H190 0.930 . S
C200 C199 1.400 . S
C200 C203 1.386 . S
H201 C217 0.930 . S
H202 C218 0.931 . S
C203 H191 0.929 . S
C203 C197 1.390 . S
C203 C200 1.386 . S
C204 C199 1.490 . S
C204 C206 1.395 . S
C204 C207 1.403 1_556 S
H205 C211 0.930 . S
C206 H192 0.930 . S
C206 C204 1.395 . S
C206 C209 1.403 . S
C207 C204 1.403 1_554 S
C207 C208 1.524 . S
C207 C211 1.400 . S
C208 H193 0.960 . S
C208 H194 0.960 1_554 S
C208 H195 0.960 . S
C208 C207 1.524 . S
C209 C206 1.403 . S
C209 C210 1.392 1_556 S
C209 C213 1.495 . S
C210 C209 1.392 1_554 S
C210 C211 1.385 . S
C210 C212 1.478 . S
C211 H205 0.930 . S
C211 C207 1.400 . S
C211 C210 1.385 . S
C212 C210 1.478 . S
C212 C214 1.381 . S
C212 C218 1.383 . S
C213 C209 1.495 . S
C213 H219 0.959 . S
C213 H220 0.961 1_556 S
C213 H221 0.960 . S
C214 C212 1.381 . S
C214 C215 1.394 . S
C214 H222 0.930 . S
C215 C214 1.394 . S
C215 C216 1.383 . S
C215 H223 0.929 . S
C216 C215 1.383 . S
C216 C217 1.377 . S
C217 H201 0.930 . S
C217 C216 1.377 . S
C217 C218 1.379 . S
C218 H202 0.931 . S
C218 C212 1.383 . S
C218 C217 1.379 . S
H219 C213 0.959 . S
H220 C213 0.961 1_554 S
H221 C213 0.960 . S
H222 C214 0.930 . S
H223 C215 0.929 . S
H224 C232 0.929 . S
H225 C234 0.930 . S
H226 C236 0.930 . S
H227 C239 0.929 . S
H228 C242 0.930 . S
H229 C244 0.960 . S
H230 C244 0.960 . S
H231 C244 0.960 . S
C232 H224 0.929 . S
C232 C233 1.377 . S
C232 C234 1.384 . S
C233 C232 1.377 . S
C233 C239 1.390 . S
C234 H225 0.930 . S
C234 C232 1.384 . S
C234 C235 1.372 . S
C235 C234 1.372 . S
C235 C236 1.400 . S
C235 C240 1.490 . S
C236 H226 0.930 . S
C236 C235 1.400 . S
C236 C239 1.386 . S
H237 C253 0.930 . S
H238 C254 0.931 . S
C239 H227 0.929 . S
C239 C233 1.390 . S
C239 C236 1.386 . S
C240 C235 1.490 . S
C240 C242 1.395 . S
C240 C243 1.403 . S
H241 C247 0.930 . S
C242 H228 0.930 . S
C242 C240 1.395 . S
C242 C245 1.403 1_455 S
C243 C240 1.403 . S
C243 C244 1.524 . S
C243 C247 1.400 1_455 S
C244 H229 0.960 . S
C244 H230 0.960 . S
C244 H231 0.960 . S
C244 C243 1.524 . S
C245 C242 1.403 1_655 S
C245 C246 1.392 . S
C245 C249 1.495 . S
C246 C245 1.392 . S
C246 C247 1.385 . S
C246 C248 1.478 . S
C247 H241 0.930 . S
C247 C243 1.400 1_655 S
C247 C246 1.385 . S
C248 C246 1.478 . S
C248 C250 1.381 . S
C248 C254 1.383 . S
C249 C245 1.495 . S
C249 H255 0.959 . S
C249 H256 0.961 . S
C249 H257 0.960 . S
C250 C248 1.381 . S
C250 C251 1.394 . S
C250 H258 0.930 . S
C251 C250 1.394 . S
C251 C252 1.383 . S
C251 H259 0.929 . S
C252 C251 1.383 . S
C252 C253 1.377 . S
C253 H237 0.930 . S
C253 C252 1.377 . S
C253 C254 1.379 . S
C254 H238 0.931 . S
C254 C248 1.383 . S
C254 C253 1.379 . S
H255 C249 0.959 . S
H256 C249 0.961 . S
H257 C249 0.960 . S
H258 C250 0.930 . S
H259 C251 0.929 . S
C53 C31 1.482 . S
C72 C6 1.469 . S
C89 C27 1.477 . S
C108 C7 1.474 . S
C125 C4 1.483 . S
C144 C30 1.490 . S
C161 C28 1.481 . S
C180 C9 1.492 . S
C197 C29 1.478 . S
C216 C5 1.486 . S
C233 C26 1.483 . S
C252 C8 1.487 . S
