# Generated by pormake.
# Topology ilc, (8)-cn, num edge types: 1
# Building blocks:
#     Node 0, Type 0, BuildingBlock: OLANEW_clean_sbu_1, # of connection points: 8
#     Node 1, Type 0, BuildingBlock: OLANEW_clean_sbu_1, # of connection points: 8
#     Node 2, Type 0, BuildingBlock: OLANEW_clean_sbu_1, # of connection points: 8
#     Edge 3, Type (0, 0), None
#     Edge 4, Type (0, 0), None
#     Edge 5, Type (0, 0), None
#     Edge 6, Type (0, 0), None
#     Edge 7, Type (0, 0), None
#     Edge 8, Type (0, 0), None
#     Edge 9, Type (0, 0), None
#     Edge 10, Type (0, 0), None
#     Edge 11, Type (0, 0), None
#     Edge 12, Type (0, 0), None
#     Edge 13, Type (0, 0), None
#     Edge 14, Type (0, 0), None
# Relax obj value: 0.292
# Max RMSD: 0.234
# Mean RMSD: 0.234
data_MOF--net-ilc--node1-OLANEW_clean_sbu_1--edge1-none
_symmetry_space_group_name_H-M    P1
_symmetry_Int_Tables_number       1
_symmetry_cell_setting            triclinic
loop_
_symmetry_equiv_pos_as_xyz
'x, y, z'
_cell_length_a     14.032457
_cell_length_b     20.620087
_cell_length_c     15.42957
_cell_angle_alpha  129.07768
_cell_angle_beta   68.717179
_cell_angle_gamma 155.66693
loop_
_atom_site_label
_atom_site_type_symbol
_atom_site_fract_x
_atom_site_fract_y
_atom_site_fract_z
_atom_type_partial_charge
Cd0 Cd 0.33065 0.42816 0.13998 0.0
Cd1 Cd 0.71801 0.83835 0.00343 0.0
C2 C -0.05538 0.19498 0.20938 0.0
Cd3 Cd 0.24943 0.40239 0.73025 0.0
Cd4 Cd -0.13697 -0.00634 0.87101 0.0
C5 C 0.77389 0.17872 0.64568 0.0
O6 O 0.01827 0.37743 0.68395 0.0
O7 O 0.23759 0.48987 0.13979 0.0
O8 O 0.53721 0.75567 0.15154 0.0
O9 O 0.05353 0.16655 0.48817 0.0
O10 O -0.16677 0.1011 0.08929 0.0
O11 O 0.0546 0.21539 0.22663 0.0
C12 C 0.14804 0.14154 0.66622 0.0
O13 O 0.78829 0.13541 0.66297 0.0
C14 C 0.70974 0.86054 0.45577 0.0
O15 O 0.76222 -0.03381 0.5756 0.0
O16 O 0.33584 0.33606 0.73103 0.0
O17 O 0.03689 0.07083 0.71973 0.0
C18 C 0.64956 0.64299 0.67082 0.0
O19 O 0.52916 0.66709 0.38156 0.0
O20 O 0.75769 0.73495 0.7906 0.0
O21 O 0.54522 0.62681 0.65381 0.0
C22 C 0.42375 0.68342 0.20417 0.0
O23 O -0.20784 0.69565 0.20815 0.0
C24 C -0.12522 -0.02588 0.4145 0.0
O25 O -0.17804 0.86804 0.29462 0.0
C26 C -0.19301 0.65289 0.22607 0.0
O27 O 0.5625 0.45377 0.18746 0.0
Cd28 Cd -0.00307 0.76116 0.47311 0.0
Cd29 Cd 0.38433 0.17153 0.33661 0.0
C30 C 0.61085 0.52813 0.54253 0.0
Cd31 Cd -0.08392 0.73565 0.06337 0.0
Cd32 Cd 0.52895 0.32656 0.20406 0.0
C33 C 0.44064 0.51214 -0.02096 0.0
O34 O 0.68506 0.71096 0.01742 0.0
O35 O -0.09555 0.82331 0.473 0.0
O36 O 0.20422 0.08933 0.48495 0.0
O37 O 0.72019 0.49972 0.82129 0.0
O38 O 0.49945 0.43425 0.42244 0.0
O39 O 0.72068 0.54842 0.55974 0.0
C40 C -0.1852 0.47497 -0.00045 0.0
O41 O 0.45503 0.46874 -0.00382 0.0
C42 C 0.37635 0.19375 0.78898 0.0
O43 O 0.42893 0.2995 0.90883 0.0
O44 O 0.00254 0.66937 0.06415 0.0
O45 O 0.70368 0.40444 0.05317 0.0
C46 C 0.31623 -0.02367 0.00415 0.0
O47 O 0.19558 0.00021 0.71475 0.0
O48 O 0.42445 0.06842 0.12397 0.0
O49 O 0.21179 -0.03996 -0.01297 0.0
C50 C 0.09084 0.01705 0.53756 0.0
O51 O 0.45813 0.02829 0.54128 0.0
C52 C 0.54147 0.30733 0.7477 0.0
O53 O 0.48866 0.20122 0.62785 0.0
C54 C 0.47293 -0.01439 0.55939 0.0
O55 O 0.22847 0.7866 0.52089 0.0
Cd56 Cd 0.66367 0.09461 0.80668 0.0
Cd57 Cd 0.05174 0.50529 0.67023 0.0
C58 C 0.2776 0.8615 0.87591 0.0
Cd59 Cd 0.58314 0.06932 0.39693 0.0
Cd60 Cd 0.19607 0.66011 0.53759 0.0
C61 C 0.10797 0.84603 0.31237 0.0
O62 O 0.35234 0.04472 0.35062 0.0
O63 O 0.57106 0.15665 0.80655 0.0
O64 O -0.12927 0.42237 0.81819 0.0
O65 O 0.38713 0.83331 0.1548 0.0
O66 O 0.1661 0.7675 0.75577 0.0
O67 O 0.38756 0.88193 0.89322 0.0
C68 C 0.48104 0.80801 0.33283 0.0
O69 O 0.12236 0.80274 0.32973 0.0
C70 C 0.04303 0.52725 0.12246 0.0
O71 O 0.0956 0.63301 0.24229 0.0
O72 O 0.66902 0.0026 0.39764 0.0
O73 O 0.37 0.73741 0.3864 0.0
C74 C -0.01669 0.30984 0.33765 0.0
O75 O -0.1377 0.33374 0.0483 0.0
O76 O 0.0915 0.40188 0.45746 0.0
O77 O -0.12095 0.2937 0.32059 0.0
C78 C 0.75737 0.35025 0.8709 0.0
O79 O 0.12484 0.36173 0.87476 0.0
C80 C 0.20822 0.64082 0.08117 0.0
O81 O 0.1553 0.53462 -0.0387 0.0
C82 C 0.13963 0.31897 0.89271 0.0
O83 O -0.10487 0.11983 0.85408 0.0
loop_
_geom_bond_atom_site_label_1
_geom_bond_atom_site_label_2
_geom_bond_distance
_geom_bond_site_symmetry_2
_ccdc_geom_bond_type
Cd0 O7 2.298 . S
Cd0 O19 2.255 . S
Cd0 O23 2.218 1_655 S
Cd1 O8 2.269 1_556 S
Cd1 O11 2.237 1_666 S
Cd1 O20 2.201 . S
C2 O10 1.266 . S
C2 O11 1.194 . S
Cd3 O9 2.255 . S
Cd3 O13 2.218 1_455 S
Cd3 O16 2.298 . S
Cd4 O10 2.201 . S
Cd4 O17 2.269 1_554 S
Cd4 O21 2.237 1_444 S
C5 O6 1.201 . S
C5 O13 1.235 . S
O6 C5 1.201 . S
O7 Cd0 2.298 . S
O7 C22 1.265 . S
O8 Cd1 2.269 1_554 S
O8 C22 1.233 . S
O9 Cd3 2.255 . S
O9 C24 1.210 . S
O10 C2 1.266 . S
O10 Cd4 2.201 . S
O11 Cd1 2.237 1_444 S
O11 C2 1.194 . S
C12 O16 1.265 . S
C12 O17 1.233 . S
O13 Cd3 2.218 1_655 S
O13 C5 1.235 . S
C14 O15 1.269 . S
C14 O19 1.210 1_455 S
O15 C14 1.269 . S
O16 Cd3 2.298 . S
O16 C12 1.265 . S
O17 Cd4 2.269 1_556 S
O17 C12 1.233 . S
C18 O20 1.266 . S
C18 O21 1.194 . S
O19 Cd0 2.255 . S
O19 C14 1.210 1_655 S
O20 Cd1 2.201 . S
O20 C18 1.266 . S
O21 Cd4 2.237 1_666 S
O21 C18 1.194 . S
C22 O7 1.265 . S
C22 O8 1.233 . S
O23 Cd0 2.218 1_455 S
O23 C26 1.235 . S
C24 O9 1.210 . S
C24 O25 1.269 1_455 S
O25 C24 1.269 1_655 S
C26 O23 1.235 . S
C26 O27 1.200 . S
O27 C26 1.200 . S
Cd28 O35 2.298 1_545 S
Cd28 O47 2.255 . S
Cd28 O51 2.218 . S
Cd29 O36 2.269 1_545 S
Cd29 O39 2.237 . S
Cd29 O48 2.201 . S
C30 O38 1.266 . S
C30 O39 1.194 . S
Cd31 O37 2.255 1_554 S
Cd31 O41 2.218 . S
Cd31 O44 2.298 1_655 S
Cd32 O38 2.201 . S
Cd32 O45 2.269 1_655 S
Cd32 O49 2.237 . S
C33 O34 1.201 . S
C33 O41 1.235 . S
O34 C33 1.201 . S
O35 Cd28 2.298 1_565 S
O35 C50 1.265 . S
O36 Cd29 2.269 1_565 S
O36 C50 1.233 . S
O37 Cd31 2.255 1_556 S
O37 C52 1.210 . S
O38 C30 1.266 . S
O38 Cd32 2.201 . S
O39 Cd29 2.237 . S
O39 C30 1.194 . S
C40 O44 1.265 . S
C40 O45 1.233 . S
O41 Cd31 2.218 . S
O41 C33 1.235 . S
C42 O43 1.269 . S
C42 O47 1.210 . S
O43 C42 1.269 . S
O44 Cd31 2.298 1_455 S
O44 C40 1.265 . S
O45 Cd32 2.269 1_455 S
O45 C40 1.233 . S
C46 O48 1.266 . S
C46 O49 1.194 . S
O47 Cd28 2.255 . S
O47 C42 1.210 . S
O48 Cd29 2.201 . S
O48 C46 1.266 . S
O49 Cd32 2.237 . S
O49 C46 1.194 . S
C50 O35 1.265 . S
C50 O36 1.233 . S
O51 Cd28 2.218 . S
O51 C54 1.235 . S
C52 O37 1.210 . S
C52 O53 1.269 . S
O53 C52 1.269 . S
C54 O51 1.235 . S
C54 O55 1.201 1_545 S
O55 C54 1.201 1_565 S
Cd56 O63 2.298 1_455 S
Cd56 O75 2.255 1_556 S
Cd56 O79 2.218 . S
Cd57 O64 2.269 1_455 S
Cd57 O67 2.237 . S
Cd57 O76 2.201 . S
C58 O66 1.266 . S
C58 O67 1.194 . S
Cd59 O65 2.255 . S
Cd59 O69 2.218 . S
Cd59 O72 2.298 1_565 S
Cd60 O66 2.201 . S
Cd60 O73 2.269 1_565 S
Cd60 O77 2.237 . S
C61 O62 1.201 1_565 S
C61 O69 1.235 . S
O62 C61 1.201 1_545 S
O63 Cd56 2.298 1_655 S
O63 C78 1.265 . S
O64 Cd57 2.269 1_655 S
O64 C78 1.233 . S
O65 Cd59 2.255 . S
O65 C80 1.210 . S
O66 C58 1.266 . S
O66 Cd60 2.201 . S
O67 Cd57 2.237 . S
O67 C58 1.194 . S
C68 O72 1.265 . S
C68 O73 1.233 . S
O69 Cd59 2.218 . S
O69 C61 1.235 . S
C70 O71 1.269 . S
C70 O75 1.210 . S
O71 C70 1.269 . S
O72 Cd59 2.298 1_545 S
O72 C68 1.265 . S
O73 Cd60 2.269 1_545 S
O73 C68 1.233 . S
C74 O76 1.266 . S
C74 O77 1.194 . S
O75 Cd56 2.255 1_554 S
O75 C70 1.210 . S
O76 Cd57 2.201 . S
O76 C74 1.266 . S
O77 Cd60 2.237 . S
O77 C74 1.194 . S
C78 O63 1.265 . S
C78 O64 1.233 . S
O79 Cd56 2.218 . S
O79 C82 1.235 . S
C80 O65 1.210 . S
C80 O81 1.269 . S
O81 C80 1.269 . S
C82 O79 1.235 . S
C82 O83 1.201 . S
O83 C82 1.201 . S
C24 C14 3.900 1_545 S
C42 C52 3.899 . S
C70 C80 3.899 . S
C61 C26 2.528 . S
C74 C2 3.490 . S
C68 C22 3.996 1_545 S
C54 C5 2.528 . S
C30 C18 3.490 . S
C50 C12 3.996 1_565 S
C33 C82 2.528 1_554 S
C58 C46 3.490 1_566 S
C78 C40 3.996 1_656 S
