# Generated by pormake.
# Topology cds, (4)-cn, num edge types: 1
# Building blocks:
#     Node 0, Type 0, BuildingBlock: MUDLON_clean_sbu_0, # of connection points: 4
#     Node 1, Type 0, BuildingBlock: MUDLON_clean_sbu_0, # of connection points: 4
#     Edge 2, Type (0, 0), BuildingBlock: EZIPEK_clean_linker_0, # of connection points: 2
#     Edge 3, Type (0, 0), BuildingBlock: EZIPEK_clean_linker_0, # of connection points: 2
#     Edge 4, Type (0, 0), BuildingBlock: EZIPEK_clean_linker_0, # of connection points: 2
#     Edge 5, Type (0, 0), BuildingBlock: EZIPEK_clean_linker_0, # of connection points: 2
# Relax obj value: 0.001
# Max RMSD: 0.016
# Mean RMSD: 0.016
data_MOF--net-cds--node1-MUDLON_clean_sbu_0--edge1-EZIPEK_clean_linker_0
_symmetry_space_group_name_H-M    P1
_symmetry_Int_Tables_number       1
_symmetry_cell_setting            triclinic
loop_
_symmetry_equiv_pos_as_xyz
'x, y, z'
_cell_length_a     11.264502
_cell_length_b     11.252497
_cell_length_c     21.023306
_cell_angle_alpha  91.766804
_cell_angle_beta   92.111983
_cell_angle_gamma 90.821205
loop_
_atom_site_label
_atom_site_type_symbol
_atom_site_fract_x
_atom_site_fract_y
_atom_site_fract_z
_atom_type_partial_charge
Mg0 Mg 0.16738 0.18655 0.06626 0.0
C1 C 0.42292 0.22409 0.08741 0.0
O2 O 0.40556 0.1124 0.10135 0.0
C3 C 0.9154 0.22785 0.069 0.0
O4 O 0.92607 0.11331 0.05801 0.0
C5 C 0.1038 0.02082 0.94379 0.0
O6 O 0.04881 0.94727 0.98041 0.0
O7 O 0.15772 0.11246 0.96802 0.0
O8 O 0.33391 0.28704 0.07246 0.0
O9 O 0.16593 0.07842 0.15158 0.0
C10 C 0.11771 0.97752 0.15995 0.0
O11 O 0.06755 0.91724 0.11149 0.0
O12 O 1.00854 0.29299 0.07489 0.0
Mg13 Mg 0.90766 0.92522 0.54377 0.0
C14 C 0.8512 0.17736 0.5288 0.0
O15 O 0.95657 0.16738 0.5047 0.0
C16 C 0.85586 0.66945 0.55345 0.0
O17 O 0.96026 0.68322 0.58283 0.0
C18 C 0.04597 0.85927 0.42244 0.0
O19 O 0.03658 0.74934 0.44097 0.0
O20 O 1.00871 0.94393 0.45749 0.0
O21 O 0.79979 0.0849 0.54867 0.0
O22 O 1.00463 0.91691 0.63601 0.0
C23 C 0.03514 1.00974 0.66904 0.0
O24 O 0.02107 0.11463 0.64455 0.0
O25 O 0.80384 0.76028 0.532 0.0
C26 C 0.20018 0.91554 0.26685 0.0
C27 C 0.10032 0.93918 0.22612 0.0
C28 C 0.96661 0.89443 0.31217 0.0
C29 C 0.06639 0.88199 0.35451 0.0
N30 N 0.27788 0.89056 0.37509 0.0
N31 N 0.88934 0.97213 0.21325 0.0
C32 C 0.18332 0.89494 0.33262 0.0
C33 C 0.98363 0.93348 0.24948 0.0
N34 N 0.31059 0.90958 0.24213 0.0
N35 N 0.85515 0.86714 0.3316 0.0
H36 H 0.89716 1.00319 0.16743 0.0
H37 H 0.80479 0.98399 0.23062 0.0
H38 H 0.83809 0.84136 0.37764 0.0
H39 H 0.78073 0.86042 0.30072 0.0
H40 H 0.38562 0.88153 0.26749 0.0
H41 H 0.32572 0.92382 0.19428 0.0
H42 H 0.3647 0.91217 0.36402 0.0
H43 H 0.2683 0.87249 0.42304 0.0
C44 C 0.97106 0.02261 0.84514 0.0
C45 C 0.08649 1.00925 0.87335 0.0
C46 C 0.17016 0.99635 0.76687 0.0
C47 C 0.05383 1.00206 0.73905 0.0
N48 N 0.84156 0.99919 0.75085 0.0
N49 N 0.29384 0.96685 0.86219 0.0
C50 C 0.95371 1.00816 0.77801 0.0
C51 C 0.18565 0.99149 0.83446 0.0
N52 N 0.879 0.05634 0.88199 0.0
N53 N 0.26574 0.99821 0.72868 0.0
H54 H 0.30797 0.96273 0.9114 0.0
H55 H 0.36724 0.94145 0.83667 0.0
H56 H 0.25692 0.99759 0.67908 0.0
H57 H 0.3533 1.00755 0.74589 0.0
H58 H 0.7966 0.08172 0.86333 0.0
H59 H 0.88756 0.06994 0.93119 0.0
H60 H 0.76555 0.98927 0.77704 0.0
H61 H 0.82462 0.99148 0.70177 0.0
C62 C 0.74401 0.27181 0.1372 0.0
C63 C 0.79503 0.27517 0.07668 0.0
C64 C 0.59789 0.28293 1.02416 0.0
C65 C 0.54649 0.26963 0.08428 0.0
N66 N 0.56539 0.28473 0.19848 0.0
N67 N 0.77701 0.31789 0.96571 0.0
C68 C 0.61832 0.27592 0.1411 0.0
C69 C 0.7236 0.29331 1.02122 0.0
N70 N 0.81573 0.25788 0.19023 0.0
N71 N 0.52744 0.27674 0.96976 0.0
H72 H 0.86921 0.32513 0.96306 0.0
H73 H 0.73099 0.34116 0.92422 0.0
H74 H 0.435 0.27171 0.9701 0.0
H75 H 0.56021 0.27106 0.92415 0.0
H76 H 0.78442 0.24043 0.23501 0.0
H77 H 0.90826 0.25969 0.18872 0.0
H78 H 0.61179 0.29825 0.24188 0.0
H79 H 0.47328 0.28858 0.20196 0.0
C80 C 0.79845 0.49055 0.48359 0.0
C81 C 0.80473 0.54753 0.54482 0.0
C82 C 0.79213 0.35473 0.59559 0.0
C83 C 0.80004 0.29775 0.53475 0.0
N84 N 0.76939 0.3057 0.42144 0.0
N85 N 0.76722 0.53977 0.65627 0.0
C86 C 0.78847 0.36437 0.47887 0.0
C87 C 0.78737 0.48103 0.59992 0.0
N88 N 0.81022 0.55597 0.43047 0.0
N89 N 0.79726 0.2891 0.64918 0.0
H90 H 0.76246 0.63235 0.65981 0.0
H91 H 0.74451 0.49757 0.69757 0.0
H92 H 0.7938 0.19655 0.64773 0.0
H93 H 0.80829 0.32583 0.69509 0.0
H94 H 0.82206 0.51895 0.38521 0.0
H95 H 0.81212 0.64853 0.43191 0.0
H96 H 0.75098 0.34796 0.37893 0.0
H97 H 0.76106 0.21316 0.41766 0.0
loop_
_geom_bond_atom_site_label_1
_geom_bond_atom_site_label_2
_geom_bond_distance
_geom_bond_site_symmetry_2
_ccdc_geom_bond_type
Mg0 O7 2.146 . S
Mg0 O8 2.038 1_655 S
Mg0 O9 2.044 1_556 S
Mg0 O12 2.152 . S
C1 O2 1.313 1_545 S
C1 O8 1.195 1_554 S
O2 C1 1.313 1_565 S
C3 O4 1.245 1_545 S
C3 O12 1.289 1_554 S
O4 C3 1.245 1_565 S
C5 O6 1.245 1_545 S
C5 O7 1.289 1_455 S
O6 C5 1.245 1_565 S
O7 Mg0 2.146 . S
O7 C5 1.289 1_655 S
O8 Mg0 2.038 1_455 S
O8 C1 1.195 1_556 S
O9 Mg0 2.044 1_554 S
O9 C10 1.195 1_655 S
C10 O9 1.195 1_455 S
C10 O11 1.313 1_545 S
O11 C10 1.313 1_565 S
O12 Mg0 2.152 . S
O12 C3 1.289 1_556 S
Mg13 O20 2.141 . S
Mg13 O21 2.048 1_565 S
Mg13 O22 2.048 . S
Mg13 O25 2.141 . S
C14 O15 1.313 . S
C14 O21 1.195 1_455 S
O15 C14 1.313 . S
C16 O17 1.245 . S
C16 O25 1.289 1_455 S
O17 C16 1.245 . S
C18 O19 1.245 . S
C18 O20 1.289 1_445 S
O19 C18 1.245 . S
O20 Mg13 2.141 . S
O20 C18 1.289 1_665 S
O21 Mg13 2.048 1_545 S
O21 C14 1.195 1_655 S
O22 Mg13 2.048 . S
O22 C23 1.195 1_665 S
C23 O22 1.195 1_445 S
C23 O24 1.313 . S
O24 C23 1.313 . S
O25 Mg13 2.141 . S
O25 C16 1.289 1_655 S
C26 C27 1.363 . S
C26 C32 1.379 . S
C26 N34 1.356 . S
C27 C26 1.363 . S
C27 C33 1.362 1_445 S
C28 C29 1.363 1_665 S
C28 C33 1.379 . S
C28 N35 1.356 . S
C29 C28 1.363 1_445 S
C29 C32 1.363 . S
N30 C32 1.356 . S
N30 H42 0.984 . S
N30 H43 0.985 . S
N31 C33 1.357 . S
N31 H36 0.984 . S
N31 H37 0.985 . S
C32 C26 1.379 . S
C32 C29 1.363 . S
C32 N30 1.356 . S
C33 C27 1.362 1_665 S
C33 C28 1.379 . S
C33 N31 1.357 . S
N34 C26 1.356 . S
N34 H40 0.984 . S
N34 H41 0.984 . S
N35 C28 1.356 . S
N35 H38 0.984 . S
N35 H39 0.985 . S
H36 N31 0.984 . S
H37 N31 0.985 . S
H38 N35 0.984 . S
H39 N35 0.985 . S
H40 N34 0.984 . S
H41 N34 0.984 . S
H42 N30 0.984 . S
H43 N30 0.985 . S
C44 C45 1.363 1_655 S
C44 C50 1.379 . S
C44 N52 1.356 . S
C45 C44 1.363 1_455 S
C45 C51 1.363 1_545 S
C46 C47 1.363 1_565 S
C46 C51 1.379 . S
C46 N53 1.356 . S
C47 C46 1.363 1_545 S
C47 C50 1.363 1_455 S
N48 C50 1.356 . S
N48 H60 0.984 . S
N48 H61 0.985 . S
N49 C51 1.356 . S
N49 H54 0.984 . S
N49 H55 0.985 . S
C50 C44 1.379 . S
C50 C47 1.363 1_655 S
C50 N48 1.356 . S
C51 C45 1.363 1_565 S
C51 C46 1.379 . S
C51 N49 1.356 . S
N52 C44 1.356 . S
N52 H58 0.984 . S
N52 H59 0.984 . S
N53 C46 1.356 . S
N53 H56 0.984 . S
N53 H57 0.985 . S
H54 N49 0.984 . S
H55 N49 0.985 . S
H56 N53 0.984 . S
H57 N53 0.985 . S
H58 N52 0.984 . S
H59 N52 0.984 . S
H60 N48 0.984 . S
H61 N48 0.985 . S
C62 C63 1.363 . S
C62 C68 1.379 . S
C62 N70 1.356 . S
C63 C62 1.363 . S
C63 C69 1.363 1_544 S
C64 C65 1.363 1_566 S
C64 C69 1.379 . S
C64 N71 1.356 . S
C65 C64 1.363 1_544 S
C65 C68 1.363 . S
N66 C68 1.356 . S
N66 H78 0.984 . S
N66 H79 0.985 . S
N67 C69 1.356 . S
N67 H72 0.984 . S
N67 H73 0.985 . S
C68 C62 1.379 . S
C68 C65 1.363 . S
C68 N66 1.356 . S
C69 C63 1.363 1_566 S
C69 C64 1.379 . S
C69 N67 1.356 . S
N70 C62 1.356 . S
N70 H76 0.984 . S
N70 H77 0.984 . S
N71 C64 1.356 . S
N71 H74 0.984 . S
N71 H75 0.985 . S
H72 N67 0.984 . S
H73 N67 0.985 . S
H74 N71 0.984 . S
H75 N71 0.985 . S
H76 N70 0.984 . S
H77 N70 0.984 . S
H78 N66 0.984 . S
H79 N66 0.985 . S
C80 C81 1.363 1_655 S
C80 C86 1.379 . S
C80 N88 1.356 . S
C81 C80 1.363 1_455 S
C81 C87 1.363 . S
C82 C83 1.363 . S
C82 C87 1.379 . S
C82 N89 1.356 . S
C83 C82 1.363 . S
C83 C86 1.363 1_455 S
N84 C86 1.356 . S
N84 H96 0.984 . S
N84 H97 0.985 . S
N85 C87 1.356 . S
N85 H90 0.984 . S
N85 H91 0.985 . S
C86 C80 1.379 . S
C86 C83 1.363 1_655 S
C86 N84 1.356 . S
C87 C81 1.363 . S
C87 C82 1.379 . S
C87 N85 1.356 . S
N88 C80 1.356 . S
N88 H94 0.984 . S
N88 H95 0.984 . S
N89 C82 1.356 . S
N89 H92 0.984 . S
N89 H93 0.985 . S
H90 N85 0.984 . S
H91 N85 0.985 . S
H92 N89 0.984 . S
H93 N89 0.985 . S
H94 N88 0.984 . S
H95 N88 0.984 . S
H96 N84 0.984 . S
H97 N84 0.985 . S
C27 C10 1.492 . S
C29 C18 1.491 . S
C45 C5 1.488 . S
C47 C23 1.498 . S
C63 C3 1.489 . S
C65 C1 1.493 . S
C81 C16 1.489 . S
C83 C14 1.493 . S
