# Generated by pormake.
# Topology pcu, (6)-cn, num edge types: 1
# Building blocks:
#     Node 0, Type 0, BuildingBlock: KUMJIN_clean_sbu_1, # of connection points: 6
#     Edge 1, Type (0, 0), BuildingBlock: EZIPEK_clean_linker_0, # of connection points: 2
#     Edge 2, Type (0, 0), BuildingBlock: EZIPEK_clean_linker_0, # of connection points: 2
#     Edge 3, Type (0, 0), BuildingBlock: EZIPEK_clean_linker_0, # of connection points: 2
# Relax obj value: 0.000
# Max RMSD: 0.000
# Mean RMSD: 0.000
data_MOF--net-pcu--node1-KUMJIN_clean_sbu_1--edge1-EZIPEK_clean_linker_0
_symmetry_space_group_name_H-M    P1
_symmetry_Int_Tables_number       1
_symmetry_cell_setting            triclinic
loop_
_symmetry_equiv_pos_as_xyz
'x, y, z'
_cell_length_a     10.804539
_cell_length_b     21.035995
_cell_length_c     10.280012
_cell_angle_alpha  113.50004
_cell_angle_beta   90.187236
_cell_angle_gamma 113.28717
loop_
_atom_site_label
_atom_site_type_symbol
_atom_site_fract_x
_atom_site_fract_y
_atom_site_fract_z
_atom_type_partial_charge
Eu0 Eu 0.9032 0.86879 0.94002 0.0
C1 C 0.21617 0.25798 0.43304 0.0
N2 N 0.09937 0.21115 0.33055 0.0
C3 C 0.97007 0.26383 0.49291 0.0
C4 C 0.21271 0.30763 0.57246 0.0
C5 C 0.97796 0.2146 0.35652 0.0
C6 C 0.08763 0.31006 0.60175 0.0
C7 C 0.46097 0.3016 0.50384 0.0
C8 C 0.33879 0.25457 0.39904 0.0
C9 C 0.45733 0.35011 0.64376 0.0
C10 C 0.33354 0.35285 0.67794 0.0
Eu11 Eu 0.12363 0.13022 0.10554 0.0
N12 N 0.33904 0.2061 0.26345 0.0
C13 C 0.58331 0.2986 0.46476 0.0
C14 C 0.45888 0.20528 0.22302 0.0
C15 C 0.58242 0.25082 0.32336 0.0
H16 H 0.88721 0.17873 0.27238 0.0
H17 H 0.67697 0.24931 0.29142 0.0
H18 H 0.07043 0.78501 0.70894 0.0
H19 H 0.35448 0.79767 0.87528 0.0
H20 H 0.46001 0.17006 0.11296 0.0
H21 H 0.6792 0.33367 0.54223 0.0
H22 H 0.5874 0.84896 1.01216 0.0
H23 H 0.87338 0.26597 0.51417 0.0
H24 H 0.54971 0.38587 0.72632 0.0
H25 H 0.33223 0.38998 0.78635 0.0
H26 H 0.03098 0.69885 0.44776 0.0
H27 H 0.08098 0.34782 0.70748 0.0
H28 H 0.30557 0.72736 0.60853 0.0
N29 N 0.87352 0.78413 0.69538 0.0
C30 C 0.74762 0.75346 0.61285 0.0
C31 C 0.95102 0.71438 0.4927 0.0
C32 C 0.72145 0.70567 0.46371 0.0
C33 C 0.97301 0.76268 0.63991 0.0
C34 C 0.82555 0.68682 0.4037 0.0
N35 N 0.67157 0.81268 0.82414 0.0
C36 C 0.56799 0.81982 0.89555 0.0
C37 C 0.51261 0.73806 0.59644 0.0
C38 C 0.64451 0.76931 0.67884 0.0
C39 C 0.4083 0.75035 0.66795 0.0
C40 C 0.4355 0.79007 0.8185 0.0
H41 H 0.80919 0.64988 0.28956 0.0
H42 H 0.57079 0.64205 0.26468 0.0
H43 H 0.38862 0.6715 0.38073 0.0
O44 O 0.78165 0.77989 1.00743 0.0
O45 O 0.81138 0.95542 0.04875 0.0
O46 O 0.89191 0.07152 0.03025 0.0
O47 O 0.99863 0.8143 1.02297 0.0
O48 O 0.99191 0.98405 0.13351 0.0
O49 O 0.08168 0.1022 0.29882 0.0
O50 O 0.25703 0.20217 1.01006 0.0
O51 O 0.24461 0.05645 0.0539 0.0
O52 O 0.13616 0.91948 0.96737 0.0
O53 O 0.05249 0.19365 0.02351 0.0
O54 O 0.04228 0.01403 0.9214 0.0
O55 O 0.95474 0.89824 0.75052 0.0
C56 C 0.79126 0.00582 1.015 0.0
C57 C 0.85803 0.68258 0.95094 0.0
C58 C 0.91232 0.57662 0.92821 0.0
C59 C 0.8239 0.5307 0.79302 0.0
C60 C 0.7692 0.63514 0.81555 0.0
C61 C 0.75206 0.55968 0.73769 0.0
C62 C 0.92859 0.65266 1.00771 0.0
C63 C 0.03186 0.02984 0.27246 0.0
C64 C 0.88268 0.76406 0.02829 0.0
C65 C 0.59225 0.67771 0.38008 0.0
C66 C 0.48843 0.69436 0.4462 0.0
C67 C 0.24411 0.98737 1.01113 0.0
C68 C 0.22502 0.31546 0.06782 0.0
C69 C 0.1978 0.43092 0.1012 0.0
C70 C 0.3072 0.47453 0.21979 0.0
C71 C 0.33705 0.36114 0.1845 0.0
C72 C 0.15654 0.351 0.02535 0.0
C73 C 0.37749 0.44006 0.25982 0.0
C74 C 1.01054 0.97105 0.78199 0.0
C75 C 0.17189 0.23059 0.99935 0.0
H76 H 0.81076 0.47234 0.73043 0.0
H77 H 0.71388 0.65656 0.76905 0.0
H78 H 0.68382 0.52375 0.6334 0.0
H79 H 0.99794 0.68866 0.11152 0.0
H80 H 0.33812 0.53539 0.2809 0.0
H81 H 0.39211 0.33585 0.21958 0.0
H82 H 0.06973 0.31654 0.93598 0.0
H83 H 0.46263 0.4745 0.35077 0.0
C84 C 0.90793 0.95611 0.41558 0.0
C85 C 0.03018 0.00831 0.39607 0.0
C86 C 0.14328 0.0426 0.64004 0.0
C87 C 1.01712 0.99543 0.66282 0.0
N88 N 0.77261 0.91872 0.58139 0.0
N89 N 0.26711 0.1019 0.4921 0.0
C90 C 0.89782 0.95586 0.55312 0.0
C91 C 0.14823 0.05199 0.5097 0.0
N92 N 0.80203 0.90431 0.30212 0.0
N93 N 0.26057 0.0749 0.73872 0.0
H94 H 0.28455 0.10124 0.39204 0.0
H95 H 0.34798 0.14504 0.577 0.0
H96 H 0.26012 0.07185 0.83674 0.0
H97 H 0.35889 0.10079 0.72093 0.0
H98 H 0.71715 0.85898 0.30513 0.0
H99 H 0.80723 0.90013 0.19949 0.0
H100 H 0.67961 0.89676 0.51308 0.0
H101 H 0.75956 0.91723 0.68061 0.0
C102 C 0.44057 0.98356 0.88698 0.0
C103 C 0.37994 0.98648 1.00952 0.0
C104 C 0.59159 0.00616 0.1409 0.0
C105 C 0.65338 0.00517 1.01842 0.0
N106 N 0.65067 0.0186 0.79593 0.0
N107 N 0.38404 0.98581 0.24279 0.0
C108 C 0.58205 1.00126 0.89736 0.0
C109 C 0.45176 0.99379 0.13405 0.0
N110 N 0.36101 0.95957 0.75808 0.0
N111 N 0.66978 0.02459 0.26674 0.0
H112 H 0.2809 0.97514 0.2387 0.0
H113 H 0.42514 0.98338 0.33136 0.0
H114 H 0.77466 0.03953 0.27853 0.0
H115 H 0.63542 0.03261 0.36388 0.0
H116 H 0.39676 0.94869 0.66112 0.0
H117 H 0.25525 0.94228 0.74533 0.0
H118 H 0.60608 0.02387 0.71303 0.0
H119 H 0.75613 0.0363 0.80357 0.0
C120 C 0.92006 0.49193 0.04242 0.0
C121 C 0.98899 0.54413 0.98325 0.0
C122 C 0.19329 0.52071 0.99764 0.0
C123 C 0.12547 0.4698 0.06008 0.0
N124 N 0.93594 0.4182 0.16781 0.0
N125 N 0.19535 0.6162 0.92016 0.0
C126 C 0.99179 0.45837 0.08933 0.0
C127 C 0.12714 0.56105 0.966 0.0
N128 N 0.78506 0.47367 0.0519 0.0
N129 N 0.31945 0.52858 0.96439 0.0
H130 H 0.1487 0.64425 0.8892 0.0
H131 H 0.30032 0.63812 0.92108 0.0
H132 H 0.3738 0.50268 0.99082 0.0
H133 H 0.36774 0.55687 0.9029 0.0
H134 H 0.72337 0.42899 0.07625 0.0
H135 H 0.7317 0.5007 0.02774 0.0
H136 H 0.84581 0.41466 0.20669 0.0
H137 H 0.98539 0.39315 0.2047 0.0
loop_
_geom_bond_atom_site_label_1
_geom_bond_atom_site_label_2
_geom_bond_distance
_geom_bond_site_symmetry_2
_ccdc_geom_bond_type
Eu0 N29 2.600 . S
Eu0 N35 2.562 . S
Eu0 O44 2.462 . S
Eu0 O45 2.373 . S
Eu0 O47 2.432 . S
Eu0 O48 2.291 1_556 S
Eu0 O52 2.335 1_655 S
Eu0 O55 2.372 . S
Eu0 C64 2.787 . S
C1 N2 1.365 . S
C1 C4 1.405 . S
C1 C8 1.448 . S
N2 C1 1.365 . S
N2 C5 1.319 . S
N2 Eu11 2.600 . S
C3 C5 1.397 . S
C3 C6 1.367 . S
C3 H23 0.931 . S
C4 C1 1.405 . S
C4 C6 1.403 . S
C4 C10 1.439 . S
C5 N2 1.319 . S
C5 C3 1.397 . S
C5 H16 0.930 . S
C6 C3 1.367 . S
C6 C4 1.403 . S
C6 H27 0.929 . S
C7 C8 1.430 . S
C7 C9 1.387 . S
C7 C13 1.404 . S
C8 C1 1.448 . S
C8 C7 1.430 . S
C8 N12 1.351 . S
C9 C7 1.387 . S
C9 C10 1.374 . S
C9 H24 0.931 . S
C10 C4 1.439 . S
C10 C9 1.374 . S
C10 H25 0.931 . S
Eu11 N2 2.600 . S
Eu11 N12 2.562 . S
Eu11 O46 2.335 1_455 S
Eu11 O49 2.372 . S
Eu11 O50 2.462 . S
Eu11 O51 2.373 . S
Eu11 O53 2.432 . S
Eu11 O54 2.291 1_554 S
Eu11 C75 2.787 . S
N12 C8 1.351 . S
N12 Eu11 2.562 . S
N12 C14 1.325 1_554 S
C13 C7 1.404 . S
C13 C15 1.366 1_554 S
C13 H21 0.930 1_554 S
C14 N12 1.325 1_556 S
C14 C15 1.416 . S
C14 H20 0.929 . S
C15 C13 1.366 1_556 S
C15 C14 1.416 . S
C15 H17 0.930 . S
H16 C5 0.930 . S
H17 C15 0.930 . S
H18 C33 0.930 . S
H19 C40 0.930 . S
H20 C14 0.929 . S
H21 C13 0.930 1_556 S
H22 C36 0.929 . S
H23 C3 0.931 . S
H24 C9 0.931 . S
H25 C10 0.931 . S
H26 C31 0.931 . S
H27 C6 0.929 . S
H28 C39 0.930 1_554 S
N29 Eu0 2.600 . S
N29 C30 1.365 . S
N29 C33 1.319 . S
C30 N29 1.365 . S
C30 C32 1.405 . S
C30 C38 1.448 . S
C31 H26 0.931 . S
C31 C33 1.397 . S
C31 C34 1.367 . S
C32 C30 1.405 . S
C32 C34 1.403 . S
C32 C65 1.439 . S
C33 H18 0.930 . S
C33 N29 1.319 . S
C33 C31 1.397 . S
C34 C31 1.367 . S
C34 C32 1.403 . S
C34 H41 0.929 . S
N35 Eu0 2.562 . S
N35 C36 1.325 1_556 S
N35 C38 1.351 . S
C36 H22 0.929 . S
C36 N35 1.325 1_554 S
C36 C40 1.416 . S
C37 C38 1.430 . S
C37 C39 1.404 . S
C37 C66 1.387 . S
C38 C30 1.448 . S
C38 N35 1.351 . S
C38 C37 1.430 . S
C39 H28 0.930 1_556 S
C39 C37 1.404 . S
C39 C40 1.366 1_556 S
C40 H19 0.930 . S
C40 C36 1.416 . S
C40 C39 1.366 1_554 S
H41 C34 0.929 . S
H42 C65 0.931 . S
H43 C66 0.931 . S
O44 Eu0 2.462 . S
O44 C64 1.252 . S
O45 Eu0 2.373 . S
O45 C56 1.249 . S
O46 Eu11 2.335 1_655 S
O46 C56 1.264 1_544 S
O47 Eu0 2.432 . S
O47 C64 1.268 . S
O48 Eu0 2.291 1_554 S
O48 C63 1.255 1_565 S
O49 Eu11 2.372 . S
O49 C63 1.257 1_455 S
O50 Eu11 2.462 . S
O50 C75 1.252 . S
O51 Eu11 2.373 . S
O51 C67 1.252 . S
O52 Eu0 2.335 1_455 S
O52 C67 1.262 1_566 S
O53 Eu11 2.432 . S
O53 C75 1.268 . S
O54 Eu11 2.291 1_556 S
O54 C74 1.255 1_545 S
O55 Eu0 2.372 . S
O55 C74 1.257 1_655 S
C56 O45 1.249 . S
C56 O46 1.264 1_566 S
C57 C60 1.382 . S
C57 C62 1.390 . S
C57 C64 1.506 . S
C58 C59 1.398 . S
C58 C62 1.392 . S
C59 C58 1.398 . S
C59 C61 1.372 . S
C59 H76 0.931 . S
C60 C57 1.382 . S
C60 C61 1.390 . S
C60 H77 0.931 . S
C61 C59 1.372 . S
C61 C60 1.390 . S
C61 H78 0.929 . S
C62 C57 1.390 . S
C62 C58 1.392 . S
C62 H79 0.930 1_556 S
C63 O48 1.255 1_545 S
C63 O49 1.257 1_655 S
C64 Eu0 2.787 . S
C64 O44 1.252 . S
C64 O47 1.268 . S
C64 C57 1.506 . S
C65 C32 1.439 . S
C65 H42 0.931 . S
C65 C66 1.374 . S
C66 C37 1.387 . S
C66 H43 0.931 . S
C66 C65 1.374 . S
C67 O51 1.252 . S
C67 O52 1.262 1_544 S
C68 C71 1.382 . S
C68 C72 1.390 . S
C68 C75 1.506 . S
C69 C70 1.398 . S
C69 C72 1.392 . S
C70 C69 1.398 . S
C70 C73 1.372 . S
C70 H80 0.931 . S
C71 C68 1.382 . S
C71 C73 1.390 . S
C71 H81 0.931 . S
C72 C68 1.390 . S
C72 C69 1.392 . S
C72 H82 0.930 1_554 S
C73 C70 1.372 . S
C73 C71 1.390 . S
C73 H83 0.929 . S
C74 O54 1.255 1_565 S
C74 O55 1.257 1_455 S
C75 Eu11 2.787 . S
C75 O50 1.252 . S
C75 O53 1.268 . S
C75 C68 1.506 . S
H76 C59 0.931 . S
H77 C60 0.931 . S
H78 C61 0.929 . S
H79 C62 0.930 1_554 S
H80 C70 0.931 . S
H81 C71 0.931 . S
H82 C72 0.930 1_556 S
H83 C73 0.929 . S
C84 C85 1.363 1_665 S
C84 C90 1.379 . S
C84 N92 1.356 . S
C85 C84 1.363 1_445 S
C85 C91 1.363 . S
C86 C87 1.363 . S
C86 C91 1.379 . S
C86 N93 1.356 . S
C87 C86 1.363 . S
C87 C90 1.363 1_445 S
N88 C90 1.356 . S
N88 H100 0.984 . S
N88 H101 0.985 . S
N89 C91 1.356 . S
N89 H94 0.984 . S
N89 H95 0.985 . S
C90 C84 1.379 . S
C90 C87 1.363 1_665 S
C90 N88 1.356 . S
C91 C85 1.363 . S
C91 C86 1.379 . S
C91 N89 1.356 . S
N92 C84 1.356 . S
N92 H98 0.984 . S
N92 H99 0.984 . S
N93 C86 1.356 . S
N93 H96 0.984 . S
N93 H97 0.985 . S
H94 N89 0.984 . S
H95 N89 0.985 . S
H96 N93 0.984 . S
H97 N93 0.985 . S
H98 N92 0.984 . S
H99 N92 0.984 . S
H100 N88 0.984 . S
H101 N88 0.985 . S
C102 C103 1.363 1_566 S
C102 C108 1.379 . S
C102 N110 1.356 . S
C103 C102 1.363 1_544 S
C103 C109 1.363 . S
C104 C105 1.363 . S
C104 C109 1.379 . S
C104 N111 1.356 . S
C105 C104 1.363 . S
C105 C108 1.363 1_544 S
N106 C108 1.356 . S
N106 H118 0.984 . S
N106 H119 0.985 . S
N107 C109 1.356 . S
N107 H112 0.984 . S
N107 H113 0.985 . S
C108 C102 1.379 . S
C108 C105 1.363 1_566 S
C108 N106 1.356 . S
C109 C103 1.363 . S
C109 C104 1.379 . S
C109 N107 1.356 . S
N110 C102 1.356 . S
N110 H116 0.984 . S
N110 H117 0.984 . S
N111 C104 1.356 . S
N111 H114 0.984 . S
N111 H115 0.985 . S
H112 N107 0.984 . S
H113 N107 0.985 . S
H114 N111 0.984 . S
H115 N111 0.985 . S
H116 N110 0.984 . S
H117 N110 0.984 . S
H118 N106 0.984 . S
H119 N106 0.985 . S
C120 C121 1.363 1_656 S
C120 C126 1.379 . S
C120 N128 1.356 . S
C121 C120 1.363 1_454 S
C121 C127 1.363 . S
C122 C123 1.363 . S
C122 C127 1.379 . S
C122 N129 1.356 . S
C123 C122 1.363 . S
C123 C126 1.363 1_454 S
N124 C126 1.356 . S
N124 H136 0.984 . S
N124 H137 0.985 . S
N125 C127 1.356 . S
N125 H130 0.984 . S
N125 H131 0.985 . S
C126 C120 1.379 . S
C126 C123 1.363 1_656 S
C126 N124 1.356 . S
C127 C121 1.363 . S
C127 C122 1.379 . S
C127 N125 1.356 . S
N128 C120 1.356 . S
N128 H134 0.984 . S
N128 H135 0.984 . S
N129 C122 1.356 . S
N129 H132 0.984 . S
N129 H133 0.985 . S
H130 N125 0.984 . S
H131 N125 0.985 . S
H132 N129 0.984 . S
H133 N129 0.985 . S
H134 N128 0.984 . S
H135 N128 0.984 . S
H136 N124 0.984 . S
H137 N124 0.985 . S
C85 C63 1.481 1_455 S
C87 C74 1.481 1_545 S
C103 C67 1.493 . S
C105 C56 1.495 1_544 S
C121 C58 1.359 1_454 S
C123 C69 1.359 . S
