# Generated by pormake.
# Topology sxb, (6)-cn, num edge types: 1
# Building blocks:
#     Node 0, Type 0, BuildingBlock: CIFDUS_clean_sbu_1, # of connection points: 6
#     Node 1, Type 0, BuildingBlock: CIFDUS_clean_sbu_1, # of connection points: 6
#     Node 2, Type 0, BuildingBlock: CIFDUS_clean_sbu_1, # of connection points: 6
#     Node 3, Type 0, BuildingBlock: CIFDUS_clean_sbu_1, # of connection points: 6
#     Edge 4, Type (0, 0), BuildingBlock: AJUNOK_clean_linker_0, # of connection points: 2
#     Edge 5, Type (0, 0), BuildingBlock: AJUNOK_clean_linker_0, # of connection points: 2
#     Edge 6, Type (0, 0), BuildingBlock: AJUNOK_clean_linker_0, # of connection points: 2
#     Edge 7, Type (0, 0), BuildingBlock: AJUNOK_clean_linker_0, # of connection points: 2
#     Edge 8, Type (0, 0), BuildingBlock: AJUNOK_clean_linker_0, # of connection points: 2
#     Edge 9, Type (0, 0), BuildingBlock: AJUNOK_clean_linker_0, # of connection points: 2
#     Edge 10, Type (0, 0), BuildingBlock: AJUNOK_clean_linker_0, # of connection points: 2
#     Edge 11, Type (0, 0), BuildingBlock: AJUNOK_clean_linker_0, # of connection points: 2
#     Edge 12, Type (0, 0), BuildingBlock: AJUNOK_clean_linker_0, # of connection points: 2
#     Edge 13, Type (0, 0), BuildingBlock: AJUNOK_clean_linker_0, # of connection points: 2
#     Edge 14, Type (0, 0), BuildingBlock: AJUNOK_clean_linker_0, # of connection points: 2
#     Edge 15, Type (0, 0), BuildingBlock: AJUNOK_clean_linker_0, # of connection points: 2
# Relax obj value: 0.096
# Max RMSD: 0.134
# Mean RMSD: 0.134
data_MOF--net-sxb--node1-CIFDUS_clean_sbu_1--edge1-AJUNOK_clean_linker_0
_symmetry_space_group_name_H-M    P1
_symmetry_Int_Tables_number       1
_symmetry_cell_setting            triclinic
loop_
_symmetry_equiv_pos_as_xyz
'x, y, z'
_cell_length_a     11.354775
_cell_length_b     20.426961
_cell_length_c     23.049149
_cell_angle_alpha  89.6896
_cell_angle_beta   109.55742
_cell_angle_gamma 89.927259
loop_
_atom_site_label
_atom_site_type_symbol
_atom_site_fract_x
_atom_site_fract_y
_atom_site_fract_z
_atom_type_partial_charge
O0 O 0.07954 0.93127 0.03808 0.0
Mn1 Mn 0.02405 0.03038 0.03639 0.0
O2 O 0.27244 0.94168 0.10314 0.0
Mn3 Mn 0.24669 1.01888 0.13836 0.0
O4 O 0.96526 0.12841 0.03301 0.0
O5 O 0.96001 0.02626 0.93988 0.0
Mn6 Mn 0.80107 0.04284 0.93017 0.0
O7 O 0.85493 1.00638 0.05029 0.0
O8 O 0.7797 0.12555 0.95771 0.0
O9 O 0.19464 0.05607 0.02421 0.0
O10 O 0.3205 0.08765 0.11424 0.0
O11 O 0.79368 0.03502 0.85268 0.0
O12 O 0.73172 0.97605 0.96004 0.0
C13 C 0.12878 1.01318 0.18785 0.0
C14 C 0.19104 0.90874 0.0633 0.0
C15 C 0.85975 0.15514 1.00186 0.0
C16 C 0.91233 0.02439 0.87905 0.0
C17 C 0.74942 0.98418 1.01621 0.0
C18 C 0.3012 0.0786 0.0577 0.0
O19 O 0.09075 0.04041 0.13248 0.0
O20 O 0.24713 1.00077 0.21337 0.0
O21 O 0.18033 1.0016 0.51566 0.0
Mn22 Mn 0.01408 0.02634 0.53255 0.0
O23 O 0.30214 0.9628 0.602 0.0
Mn24 Mn 0.23734 0.03219 0.63071 0.0
O25 O 0.84494 0.05075 0.54721 0.0
O26 O 0.94706 0.03 0.43687 0.0
Mn27 Mn 0.78716 1.01878 0.42604 0.0
O28 O 0.95235 0.92863 0.53059 0.0
O29 O 0.72602 0.08709 0.45799 0.0
O30 O 0.0736 0.12451 0.53342 0.0
O31 O 0.2655 0.11311 0.60163 0.0
O32 O 0.7848 0.02662 0.34858 0.0
O33 O 0.76583 0.93678 0.45577 0.0
C34 C 0.14213 1.02271 0.68983 0.0
C35 C 0.28511 0.97586 0.54672 0.0
C36 C 0.74042 0.07515 0.5134 0.0
C37 C 0.90412 0.03231 0.37626 0.0
C38 C 0.84422 0.90474 0.49937 0.0
C39 C 0.18487 0.14666 0.56073 0.0
O40 O 0.08041 1.0231 0.62971 0.0
O41 O 0.26282 0.02823 0.70981 0.0
O42 O 0.58245 0.43162 0.03709 0.0
Mn43 Mn 0.52354 0.53005 0.03548 0.0
O44 O 0.76774 0.43564 0.11311 0.0
Mn45 Mn 0.75031 0.51796 0.14219 0.0
O46 O 0.466 0.62828 0.03413 0.0
O47 O 0.4573 0.52858 0.9385 0.0
Mn48 Mn 0.30017 0.53918 0.93645 0.0
O49 O 0.35698 0.50608 0.052 0.0
O50 O 0.27259 0.61933 0.96679 0.0
O51 O 0.69248 0.55368 1.02106 0.0
O52 O 0.81837 0.5844 0.11082 0.0
O53 O 0.27701 0.53755 0.85738 0.0
O54 O 0.23849 0.46834 0.96484 0.0
C55 C 0.63404 0.53407 0.19168 0.0
C56 C 0.68809 0.40531 0.06923 0.0
C57 C 0.3555 0.6519 1.00697 0.0
C58 C 0.39728 0.52955 0.87828 0.0
C59 C 0.25427 0.47949 1.02022 0.0
C60 C 0.79957 0.57473 0.05466 0.0
O61 O 0.59098 0.53252 0.13108 0.0
O62 O 0.75276 0.52545 0.21956 0.0
O63 O 0.68393 0.50203 0.51965 0.0
Mn64 Mn 0.51528 0.52631 0.53383 0.0
O65 O 0.81146 0.47223 0.60969 0.0
Mn66 Mn 0.74211 0.53875 0.63987 0.0
O67 O 0.34639 0.55083 0.5478 0.0
O68 O 0.44834 0.52879 0.43791 0.0
Mn69 Mn 0.28874 0.51561 0.4281 0.0
O70 O 0.45632 0.42834 0.5324 0.0
O71 O 0.22517 0.58457 0.45796 0.0
O72 O 0.5736 0.6243 0.53479 0.0
O73 O 0.75973 0.62136 0.61023 0.0
O74 O 0.28432 0.52126 0.35038 0.0
O75 O 0.26732 0.43423 0.45909 0.0
C76 C 0.62796 0.52148 0.6905 0.0
C77 C 0.79145 0.4811 0.55326 0.0
C78 C 0.24187 0.57502 0.51397 0.0
C79 C 0.40311 0.5302 0.37724 0.0
C80 C 0.34855 0.40338 0.50246 0.0
C81 C 0.67914 0.65092 0.56561 0.0
O82 O 0.58296 0.52326 0.62978 0.0
O83 O 0.74674 0.53056 0.71741 0.0
C84 C 0.18847 0.7333 1.00606 0.0
C85 C 0.31715 0.71773 1.02202 0.0
C86 C 0.14737 0.79513 1.01811 0.0
C87 C 0.23316 0.84401 0.04711 0.0
H88 H 0.11805 0.69712 0.98438 0.0
H89 H 0.04792 0.80419 1.00558 0.0
S90 S 0.58062 0.8297 0.09462 0.0
N91 N 0.52925 0.7573 0.06594 0.0
N92 N 0.45454 0.87316 0.08876 0.0
C93 C 0.36246 0.82923 0.06249 0.0
C94 C 0.40377 0.76628 0.05017 0.0
C95 C 0.66794 0.31053 0.99639 0.0
C96 C 0.728 0.33967 0.05375 0.0
C97 C 0.71353 0.25207 0.9796 0.0
C98 C 0.82154 0.22014 1.01923 0.0
H99 H 0.58659 0.33359 0.96363 0.0
H100 H 0.66308 0.23178 0.93486 0.0
S101 S 0.01048 0.27428 0.17593 0.0
N102 N 0.9 0.3303 0.15131 0.0
N103 N 0.98433 0.22142 0.11925 0.0
C104 C 0.88182 0.24845 0.0768 0.0
C105 C 0.83536 0.3077 0.09413 0.0
C106 C 0.14127 0.26039 0.51455 0.0
C107 C 0.22725 0.21156 0.54479 0.0
C108 C 0.18207 0.32212 0.50185 0.0
C109 C 0.31063 0.33766 0.51836 0.0
H110 H 0.04182 0.25133 0.5014 0.0
H111 H 0.11154 0.35827 0.4792 0.0
S112 S 0.57445 0.22541 0.59339 0.0
N113 N 0.44852 0.18209 0.58757 0.0
N114 N 0.52293 0.29792 0.56381 0.0
C115 C 0.39746 0.28912 0.5477 0.0
C116 C 0.35639 0.2262 0.56059 0.0
C117 C 0.87935 0.8009 0.56336 0.0
C118 C 0.80187 0.83941 0.5149 0.0
C119 C 0.83781 0.74086 0.57945 0.0
C120 C 0.71644 0.71642 0.54816 0.0
H121 H 0.97282 0.81718 0.58933 0.0
H122 H 0.90266 0.71329 0.61689 0.0
S123 S 0.4746 0.79864 0.41852 0.0
N124 N 0.5953 0.84852 0.43606 0.0
N125 N 0.51948 0.73617 0.46654 0.0
C126 C 0.63792 0.75435 0.49973 0.0
C127 C 0.67989 0.81552 0.48319 0.0
C128 C 0.53262 0.07846 0.07997 0.0
C129 C 0.41295 0.05888 0.04168 0.0
C130 C 0.64172 0.05023 0.07517 0.0
C131 C 0.63619 1.00104 0.0317 0.0
H132 H 0.54224 0.11533 0.11486 0.0
H133 H 0.73097 0.0689 0.10445 0.0
S134 S 0.34791 0.92956 0.92176 0.0
N135 N 0.29706 0.98502 0.9595 0.0
N136 N 0.50163 0.93253 0.95089 0.0
C137 C 0.51754 0.98034 0.99366 0.0
C138 C 0.40643 1.00932 0.99814 0.0
C139 C 0.51784 0.97577 0.57094 0.0
C140 C 0.39867 0.99659 0.53231 0.0
C141 C 0.62808 1.00459 0.56797 0.0
C142 C 0.62465 0.05586 0.52621 0.0
H143 H 0.52617 0.93745 0.60478 0.0
H144 H 0.71666 0.98503 0.59756 0.0
S145 S 0.33816 0.13 0.41525 0.0
N146 N 0.28543 0.07246 0.45058 0.0
N147 N 0.49175 0.12698 0.44608 0.0
C148 C 0.50637 0.07745 0.48758 0.0
C149 C 0.39411 0.0476 0.48999 0.0
C150 C 0.02992 0.57919 0.07497 0.0
C151 C 0.91201 0.55464 0.03946 0.0
C152 C 0.14114 0.55138 0.0724 0.0
C153 C 0.13967 0.49755 0.03409 0.0
H154 H 0.03643 0.61969 0.10605 0.0
H155 H 0.22868 0.5738 0.09929 0.0
S156 S 0.8578 0.41248 0.93352 0.0
N157 N 0.80216 0.47162 0.96558 0.0
N158 N 0.01108 0.41963 0.9613 0.0
C159 C 0.02293 0.47201 0.99894 0.0
C160 C 0.90949 0.50063 1.00106 0.0
C161 C 0.13182 0.50621 0.57019 0.0
C162 C 0.12781 0.55776 0.52867 0.0
C163 C 0.02195 0.47824 0.5741 0.0
C164 C 0.90286 0.50048 0.53692 0.0
H165 H 0.22043 0.48561 0.59865 0.0
H166 H 0.03046 0.43953 0.60761 0.0
S167 S 0.84144 0.6362 0.42221 0.0
N168 N 0.99515 0.63117 0.45084 0.0
N169 N 0.78873 0.57873 0.45766 0.0
C170 C 0.89761 0.55219 0.49522 0.0
C171 C 0.0097 0.58101 0.49168 0.0
C172 C 0.97175 0.08374 0.29512 0.0
C173 C 0.98254 0.03158 0.3369 0.0
C174 C 0.01091 0.07701 0.24357 0.0
C175 C 0.05938 1.01724 0.23154 0.0
H176 H 0.92942 0.12951 0.30149 0.0
H177 H 0.00558 0.11894 0.21386 0.0
S178 S 0.09783 0.86455 0.3237 0.0
N179 N 0.04029 0.91773 0.36101 0.0
N180 N 0.11215 0.90472 0.26408 0.0
C181 C 0.06895 0.96475 0.27256 0.0
C182 C 0.03126 0.97194 0.32529 0.0
C183 C 0.93295 0.97957 0.78324 0.0
C184 C 0.98579 1.01657 0.83741 0.0
C185 C 0.97932 0.98298 0.73387 0.0
C186 C 0.08079 0.02352 0.73724 0.0
H187 H 0.8522 0.94904 0.7783 0.0
H188 H 0.93677 0.95328 0.69349 0.0
S189 S 0.24584 0.13478 0.86565 0.0
N190 N 0.14022 0.09797 0.88915 0.0
N191 N 0.22836 0.10423 0.79721 0.0
C192 C 0.13363 0.06118 0.79083 0.0
C193 C 0.08655 0.0576 0.84089 0.0
C194 C 0.48613 0.47495 0.30458 0.0
C195 C 0.47949 0.53224 0.33694 0.0
C196 C 0.5244 0.4769 0.25273 0.0
C197 C 0.55561 0.53638 0.23082 0.0
H198 H 0.45861 0.42835 0.3187 0.0
H199 H 0.53359 0.43128 0.2308 0.0
S200 S 0.55043 0.70021 0.29761 0.0
N201 N 0.50381 0.65024 0.34225 0.0
N202 N 0.57809 0.6537 0.24513 0.0
C203 C 0.54869 0.59396 0.26239 0.0
C204 C 0.50998 0.59198 0.31535 0.0
C205 C 0.59562 0.47517 0.78344 0.0
C206 C 0.55187 0.51619 0.731 0.0
C207 C 0.54974 0.48068 0.83281 0.0
C208 C 0.46039 0.52838 0.83177 0.0
H209 H 0.66843 0.4395 0.78688 0.0
H210 H 0.58212 0.4468 0.87115 0.0
S211 S 0.32189 0.65088 0.70805 0.0
N212 N 0.41657 0.60719 0.6824 0.0
N213 N 0.33346 0.61915 0.77572 0.0
C214 C 0.41689 0.57001 0.77997 0.0
C215 C 0.4614 0.56346 0.72931 0.0
loop_
_geom_bond_atom_site_label_1
_geom_bond_atom_site_label_2
_geom_bond_distance
_geom_bond_site_symmetry_2
_ccdc_geom_bond_type
O0 Mn1 2.163 1_566 S
O0 C14 1.244 1_556 S
Mn1 O0 2.163 1_544 S
Mn1 O4 2.160 . S
Mn1 O5 2.221 1_454 S
Mn1 O7 2.163 1_445 S
Mn1 O9 2.160 . S
Mn1 O19 2.221 . S
O2 Mn3 2.087 . S
O2 C14 1.256 . S
Mn3 O2 2.087 . S
Mn3 O10 2.089 . S
Mn3 O19 2.290 1_565 S
Mn3 O20 2.251 . S
O4 Mn1 2.160 . S
O4 C15 1.239 1_455 S
O5 Mn1 2.221 1_656 S
O5 Mn6 2.290 . S
O5 C16 1.270 1_545 S
Mn6 O5 2.290 . S
Mn6 O8 2.089 . S
Mn6 O11 2.264 . S
Mn6 O12 2.087 . S
O7 Mn1 2.163 1_665 S
O7 C17 1.244 1_554 S
O8 Mn6 2.089 . S
O8 C15 1.256 1_556 S
O9 Mn1 2.160 . S
O9 C18 1.239 . S
O10 Mn3 2.089 . S
O10 C18 1.256 1_565 S
O11 Mn6 2.264 . S
O11 C16 1.240 1_545 S
O12 Mn6 2.087 . S
O12 C17 1.256 1_545 S
C13 O19 1.278 1_565 S
C13 O20 1.241 . S
C14 O0 1.244 1_554 S
C14 O2 1.256 . S
C15 O4 1.239 1_655 S
C15 O8 1.256 1_554 S
C16 O5 1.270 1_565 S
C16 O11 1.240 1_565 S
C17 O7 1.244 1_556 S
C17 O12 1.256 1_565 S
C18 O9 1.239 . S
C18 O10 1.256 1_545 S
O19 Mn1 2.221 . S
O19 Mn3 2.290 1_545 S
O19 C13 1.278 1_545 S
O20 Mn3 2.251 . S
O20 C13 1.241 . S
O21 Mn22 2.163 1_465 S
O21 C35 1.244 . S
Mn22 O21 2.163 1_645 S
Mn22 O25 2.160 . S
Mn22 O26 2.221 . S
Mn22 O28 2.163 1_545 S
Mn22 O30 2.160 1_655 S
Mn22 O40 2.221 1_655 S
O23 Mn24 2.087 . S
O23 C35 1.256 1_545 S
Mn24 O23 2.087 . S
Mn24 O31 2.089 . S
Mn24 O40 2.290 . S
Mn24 O41 2.263 . S
O25 Mn22 2.160 . S
O25 C36 1.239 . S
O26 Mn22 2.221 . S
O26 Mn27 2.290 1_545 S
O26 C37 1.278 1_545 S
Mn27 O26 2.290 1_565 S
Mn27 O29 2.089 . S
Mn27 O32 2.251 . S
Mn27 O33 2.087 . S
O28 Mn22 2.163 1_565 S
O28 C38 1.244 . S
O29 Mn27 2.089 . S
O29 C36 1.256 1_565 S
O30 Mn22 2.160 1_455 S
O30 C39 1.239 . S
O31 Mn24 2.089 . S
O31 C39 1.256 . S
O32 Mn27 2.251 . S
O32 C37 1.241 . S
O33 Mn27 2.087 . S
O33 C38 1.256 . S
C34 O40 1.269 1_565 S
C34 O41 1.240 1_565 S
C35 O21 1.244 . S
C35 O23 1.256 1_565 S
C36 O25 1.239 . S
C36 O29 1.256 1_545 S
C37 O26 1.278 1_565 S
C37 O32 1.241 . S
C38 O28 1.244 . S
C38 O33 1.256 . S
C39 O30 1.239 . S
C39 O31 1.256 . S
O40 Mn22 2.221 1_455 S
O40 Mn24 2.290 . S
O40 C34 1.269 1_545 S
O41 Mn24 2.263 . S
O41 C34 1.240 1_545 S
O42 Mn43 2.163 1_556 S
O42 C56 1.244 1_556 S
Mn43 O42 2.163 1_554 S
Mn43 O46 2.160 . S
Mn43 O47 2.221 1_554 S
Mn43 O49 2.163 . S
Mn43 O51 2.160 . S
Mn43 O61 2.221 . S
O44 Mn45 2.087 . S
O44 C56 1.256 . S
Mn45 O44 2.087 . S
Mn45 O52 2.089 . S
Mn45 O61 2.290 . S
Mn45 O62 2.251 . S
O46 Mn43 2.160 . S
O46 C57 1.239 . S
O47 Mn43 2.221 1_556 S
O47 Mn48 2.290 . S
O47 C58 1.278 . S
Mn48 O47 2.290 . S
Mn48 O50 2.089 . S
Mn48 O53 2.251 . S
Mn48 O54 2.087 . S
O49 Mn43 2.163 . S
O49 C59 1.244 1_554 S
O50 Mn48 2.089 . S
O50 C57 1.256 1_556 S
O51 Mn43 2.160 . S
O51 C60 1.239 . S
O52 Mn45 2.089 . S
O52 C60 1.256 . S
O53 Mn48 2.251 . S
O53 C58 1.241 . S
O54 Mn48 2.087 . S
O54 C59 1.256 . S
C55 O61 1.278 . S
C55 O62 1.241 . S
C56 O42 1.244 1_554 S
C56 O44 1.256 . S
C57 O46 1.239 . S
C57 O50 1.256 1_554 S
C58 O47 1.278 . S
C58 O53 1.241 . S
C59 O49 1.244 1_556 S
C59 O54 1.256 . S
C60 O51 1.239 . S
C60 O52 1.256 . S
O61 Mn43 2.221 . S
O61 Mn45 2.290 . S
O61 C55 1.278 . S
O62 Mn45 2.251 . S
O62 C55 1.241 . S
O63 Mn64 2.163 . S
O63 C77 1.244 . S
Mn64 O63 2.163 . S
Mn64 O67 2.160 . S
Mn64 O68 2.221 . S
Mn64 O70 2.163 . S
Mn64 O72 2.160 . S
Mn64 O82 2.221 . S
O65 Mn66 2.087 . S
O65 C77 1.256 . S
Mn66 O65 2.087 . S
Mn66 O73 2.089 . S
Mn66 O82 2.290 . S
Mn66 O83 2.251 . S
O67 Mn64 2.160 . S
O67 C78 1.239 . S
O68 Mn64 2.221 . S
O68 Mn69 2.290 . S
O68 C79 1.278 . S
Mn69 O68 2.290 . S
Mn69 O71 2.089 . S
Mn69 O74 2.251 . S
Mn69 O75 2.087 . S
O70 Mn64 2.163 . S
O70 C80 1.244 . S
O71 Mn69 2.089 . S
O71 C78 1.256 . S
O72 Mn64 2.160 . S
O72 C81 1.239 . S
O73 Mn66 2.089 . S
O73 C81 1.256 . S
O74 Mn69 2.251 . S
O74 C79 1.241 . S
O75 Mn69 2.087 . S
O75 C80 1.256 . S
C76 O82 1.278 . S
C76 O83 1.241 . S
C77 O63 1.244 . S
C77 O65 1.256 . S
C78 O67 1.239 . S
C78 O71 1.256 . S
C79 O68 1.278 . S
C79 O74 1.241 . S
C80 O70 1.244 . S
C80 O75 1.256 . S
C81 O72 1.239 . S
C81 O73 1.256 . S
O82 Mn64 2.221 . S
O82 Mn66 2.290 . S
O82 C76 1.278 . S
O83 Mn66 2.251 . S
O83 C76 1.241 . S
C84 C85 1.369 . S
C84 C86 1.419 . S
C84 H88 0.930 . S
C85 C84 1.369 . S
C85 C94 1.429 1_554 S
C86 C84 1.419 . S
C86 C87 1.363 . S
C86 H89 0.929 . S
C87 C86 1.363 . S
C87 C93 1.428 1_554 S
H88 C84 0.930 . S
H89 C86 0.929 . S
S90 N91 1.613 . S
S90 N92 1.610 . S
N91 S90 1.613 . S
N91 C94 1.350 . S
N92 S90 1.610 . S
N92 C93 1.351 . S
C93 C87 1.428 1_556 S
C93 N92 1.351 . S
C93 C94 1.434 . S
C94 C85 1.429 1_556 S
C94 N91 1.350 . S
C94 C93 1.434 . S
C95 C96 1.369 1_556 S
C95 C97 1.419 . S
C95 H99 0.930 . S
C96 C95 1.369 1_554 S
C96 C105 1.429 . S
C97 C95 1.419 . S
C97 C98 1.363 1_556 S
C97 H100 0.929 . S
C98 C97 1.363 1_554 S
C98 C104 1.428 . S
H99 C95 0.930 . S
H100 C97 0.929 . S
S101 N102 1.613 . S
S101 N103 1.610 . S
N102 S101 1.613 . S
N102 C105 1.350 . S
N103 S101 1.610 . S
N103 C104 1.351 . S
C104 C98 1.428 . S
C104 N103 1.351 . S
C104 C105 1.434 . S
C105 C96 1.429 . S
C105 N102 1.350 . S
C105 C104 1.434 . S
C106 C107 1.369 . S
C106 C108 1.419 . S
C106 H110 0.930 . S
C107 C106 1.369 . S
C107 C116 1.429 . S
C108 C106 1.419 . S
C108 C109 1.363 . S
C108 H111 0.929 . S
C109 C108 1.363 . S
C109 C115 1.428 . S
H110 C106 0.930 . S
H111 C108 0.929 . S
S112 N113 1.613 . S
S112 N114 1.610 . S
N113 S112 1.613 . S
N113 C116 1.350 . S
N114 S112 1.610 . S
N114 C115 1.351 . S
C115 C109 1.428 . S
C115 N114 1.351 . S
C115 C116 1.434 . S
C116 C107 1.429 . S
C116 N113 1.350 . S
C116 C115 1.434 . S
C117 C118 1.369 . S
C117 C119 1.419 . S
C117 H121 0.930 . S
C118 C117 1.369 . S
C118 C127 1.429 . S
C119 C117 1.419 . S
C119 C120 1.363 . S
C119 H122 0.929 . S
C120 C119 1.363 . S
C120 C126 1.428 . S
H121 C117 0.930 . S
H122 C119 0.929 . S
S123 N124 1.613 . S
S123 N125 1.610 . S
N124 S123 1.613 . S
N124 C127 1.350 . S
N125 S123 1.610 . S
N125 C126 1.351 . S
C126 C120 1.428 . S
C126 N125 1.351 . S
C126 C127 1.434 . S
C127 C118 1.429 . S
C127 N124 1.350 . S
C127 C126 1.434 . S
C128 C129 1.369 . S
C128 C130 1.419 . S
C128 H132 0.930 . S
C129 C128 1.369 . S
C129 C138 1.426 1_544 S
C130 C128 1.419 . S
C130 C131 1.363 1_545 S
C130 H133 0.929 . S
C131 C130 1.363 1_565 S
C131 C137 1.428 1_554 S
H132 C128 0.930 . S
H133 C130 0.929 . S
S134 N135 1.613 . S
S134 N136 1.610 . S
N135 S134 1.613 . S
N135 C138 1.351 . S
N136 S134 1.610 . S
N136 C137 1.351 . S
C137 C131 1.428 1_556 S
C137 N136 1.351 . S
C137 C138 1.436 . S
C138 C129 1.426 1_566 S
C138 N135 1.351 . S
C138 C137 1.436 . S
C139 C140 1.369 . S
C139 C141 1.419 . S
C139 H143 0.930 . S
C140 C139 1.369 . S
C140 C149 1.429 1_565 S
C141 C139 1.419 . S
C141 C142 1.363 1_565 S
C141 H144 0.929 . S
C142 C141 1.363 1_545 S
C142 C148 1.428 . S
H143 C139 0.930 . S
H144 C141 0.929 . S
S145 N146 1.613 . S
S145 N147 1.610 . S
N146 S145 1.613 . S
N146 C149 1.350 . S
N147 S145 1.610 . S
N147 C148 1.351 . S
C148 C142 1.428 . S
C148 N147 1.351 . S
C148 C149 1.434 . S
C149 C140 1.429 1_545 S
C149 N146 1.350 . S
C149 C148 1.434 . S
C150 C151 1.369 1_455 S
C150 C152 1.419 . S
C150 H154 0.930 . S
C151 C150 1.369 1_655 S
C151 C160 1.429 1_554 S
C152 C150 1.419 . S
C152 C153 1.363 . S
C152 H155 0.929 . S
C153 C152 1.363 . S
C153 C159 1.428 1_554 S
H154 C150 0.930 . S
H155 C152 0.929 . S
S156 N157 1.613 . S
S156 N158 1.610 1_655 S
N157 S156 1.613 . S
N157 C160 1.350 . S
N158 S156 1.610 1_455 S
N158 C159 1.351 . S
C159 C153 1.428 1_556 S
C159 N158 1.351 . S
C159 C160 1.434 1_455 S
C160 C151 1.429 1_556 S
C160 N157 1.350 . S
C160 C159 1.434 1_655 S
C161 C162 1.369 . S
C161 C163 1.419 1_455 S
C161 H165 0.930 . S
C162 C161 1.369 . S
C162 C171 1.429 . S
C163 C161 1.419 1_655 S
C163 C164 1.363 . S
C163 H166 0.929 . S
C164 C163 1.363 . S
C164 C170 1.428 . S
H165 C161 0.930 . S
H166 C163 0.929 . S
S167 N168 1.613 1_655 S
S167 N169 1.610 . S
N168 S167 1.613 1_455 S
N168 C171 1.350 . S
N169 S167 1.610 . S
N169 C170 1.351 . S
C170 C164 1.428 . S
C170 N169 1.351 . S
C170 C171 1.434 1_655 S
C171 C162 1.429 . S
C171 N168 1.350 . S
C171 C170 1.434 1_455 S
C172 C173 1.369 1_545 S
C172 C174 1.419 . S
C172 H176 0.930 . S
C173 C172 1.369 1_565 S
C173 C182 1.429 1_455 S
C174 C172 1.419 . S
C174 C175 1.363 1_545 S
C174 H177 0.929 . S
C175 C174 1.363 1_565 S
C175 C181 1.428 1_455 S
H176 C172 0.930 . S
H177 C174 0.929 . S
S178 N179 1.613 . S
S178 N180 1.610 . S
N179 S178 1.613 . S
N179 C182 1.350 . S
N180 S178 1.610 . S
N180 C181 1.351 . S
C181 C175 1.428 1_655 S
C181 N180 1.351 . S
C181 C182 1.434 . S
C182 C173 1.429 1_655 S
C182 N179 1.350 . S
C182 C181 1.434 . S
C183 C184 1.369 1_655 S
C183 C185 1.419 . S
C183 H187 0.930 . S
C184 C183 1.369 1_455 S
C184 C193 1.429 1_565 S
C185 C183 1.419 . S
C185 C186 1.363 1_655 S
C185 H188 0.929 . S
C186 C185 1.363 1_455 S
C186 C192 1.428 1_565 S
H187 C183 0.930 . S
H188 C185 0.929 . S
S189 N190 1.613 . S
S189 N191 1.610 . S
N190 S189 1.613 . S
N190 C193 1.350 . S
N191 S189 1.610 . S
N191 C192 1.351 . S
C192 C186 1.428 1_545 S
C192 N191 1.351 . S
C192 C193 1.434 . S
C193 C184 1.429 1_545 S
C193 N190 1.350 . S
C193 C192 1.434 . S
C194 C195 1.369 . S
C194 C196 1.419 . S
C194 H198 0.930 . S
C195 C194 1.369 . S
C195 C204 1.429 . S
C196 C194 1.419 . S
C196 C197 1.363 . S
C196 H199 0.929 . S
C197 C196 1.363 . S
C197 C203 1.428 . S
H198 C194 0.930 . S
H199 C196 0.929 . S
S200 N201 1.613 . S
S200 N202 1.610 . S
N201 S200 1.613 . S
N201 C204 1.350 . S
N202 S200 1.610 . S
N202 C203 1.351 . S
C203 C197 1.428 . S
C203 N202 1.351 . S
C203 C204 1.434 . S
C204 C195 1.429 . S
C204 N201 1.350 . S
C204 C203 1.434 . S
C205 C206 1.369 . S
C205 C207 1.419 . S
C205 H209 0.930 . S
C206 C205 1.369 . S
C206 C215 1.429 . S
C207 C205 1.419 . S
C207 C208 1.363 . S
C207 H210 0.929 . S
C208 C207 1.363 . S
C208 C214 1.428 . S
H209 C205 0.930 . S
H210 C207 0.929 . S
S211 N212 1.613 . S
S211 N213 1.610 . S
N212 S211 1.613 . S
N212 C215 1.350 . S
N213 S211 1.610 . S
N213 C214 1.351 . S
C214 C208 1.428 . S
C214 N213 1.351 . S
C214 C215 1.434 . S
C215 C206 1.429 . S
C215 N212 1.350 . S
C215 C214 1.434 . S
C85 C57 1.477 . S
C87 C14 1.491 . S
C96 C56 1.487 . S
C98 C15 1.477 . S
C107 C39 1.466 . S
C109 C80 1.496 . S
C118 C38 1.487 . S
C120 C81 1.477 . S
C129 C18 1.062 . S
C131 C17 1.095 1_554 S
C140 C35 1.092 . S
C142 C36 1.070 . S
C151 C60 1.065 . S
C153 C59 1.092 1_554 S
C162 C78 1.071 . S
C164 C77 1.092 . S
C173 C37 1.289 1_455 S
C175 C13 1.288 . S
C184 C16 1.324 1_455 S
C186 C34 1.323 . S
C195 C79 1.295 . S
C197 C55 1.297 . S
C206 C76 1.319 . S
C208 C58 1.319 . S
