# Generated by pormake.
# Topology msp, (4)-cn, num edge types: 1
# Building blocks:
#     Node 0, Type 0, BuildingBlock: GALJAG_clean_sbu_0, # of connection points: 4
#     Node 1, Type 0, BuildingBlock: GALJAG_clean_sbu_0, # of connection points: 4
#     Node 2, Type 0, BuildingBlock: GALJAG_clean_sbu_0, # of connection points: 4
#     Node 3, Type 0, BuildingBlock: GALJAG_clean_sbu_0, # of connection points: 4
#     Node 4, Type 0, BuildingBlock: GALJAG_clean_sbu_0, # of connection points: 4
#     Node 5, Type 0, BuildingBlock: GALJAG_clean_sbu_0, # of connection points: 4
#     Node 6, Type 0, BuildingBlock: GALJAG_clean_sbu_0, # of connection points: 4
#     Node 7, Type 0, BuildingBlock: GALJAG_clean_sbu_0, # of connection points: 4
#     Edge 8, Type (0, 0), None
#     Edge 9, Type (0, 0), None
#     Edge 10, Type (0, 0), None
#     Edge 11, Type (0, 0), None
#     Edge 12, Type (0, 0), None
#     Edge 13, Type (0, 0), None
#     Edge 14, Type (0, 0), None
#     Edge 15, Type (0, 0), None
#     Edge 16, Type (0, 0), None
#     Edge 17, Type (0, 0), None
#     Edge 18, Type (0, 0), None
#     Edge 19, Type (0, 0), None
#     Edge 20, Type (0, 0), None
#     Edge 21, Type (0, 0), None
#     Edge 22, Type (0, 0), None
#     Edge 23, Type (0, 0), None
# Relax obj value: 0.107
# Max RMSD: 0.184
# Mean RMSD: 0.184
data_MOF--net-msp--node1-GALJAG_clean_sbu_0--edge1-none
_symmetry_space_group_name_H-M    P1
_symmetry_Int_Tables_number       1
_symmetry_cell_setting            triclinic
loop_
_symmetry_equiv_pos_as_xyz
'x, y, z'
_cell_length_a     9.8085766
_cell_length_b     9.3677838
_cell_length_c     19.406612
_cell_angle_alpha  90.00288
_cell_angle_beta   100.53058
_cell_angle_gamma 89.990233
loop_
_atom_site_label
_atom_site_type_symbol
_atom_site_fract_x
_atom_site_fract_y
_atom_site_fract_z
_atom_type_partial_charge
In0 In 0.04338 0.269 0.37698 0.0
O1 O 0.85095 0.15384 0.31905 0.0
O2 O 0.87878 0.37415 0.29599 0.0
C3 C 0.20473 0.09758 0.46937 0.0
C4 C 0.2014 0.26376 0.28043 0.0
C5 C 0.00495 0.46054 0.47631 0.0
O6 O 0.07345 0.09381 0.46075 0.0
O7 O 0.25003 0.17449 0.42555 0.0
O8 O 0.08385 0.48567 0.43275 0.0
O9 O 0.94234 0.34242 0.46812 0.0
C10 C 0.80772 0.26225 0.28224 0.0
O11 O 0.19158 0.37504 0.31671 0.0
O12 O 0.13122 0.15667 0.2929 0.0
In13 In 0.4489 0.26905 0.63202 0.0
O14 O 0.64135 0.15386 0.68995 0.0
O15 O 0.61348 0.37417 0.71302 0.0
C16 C 0.28756 0.09778 0.53969 0.0
C17 C 0.29089 0.26377 0.72858 0.0
C18 C 0.48734 0.46054 0.5327 0.0
O19 O 0.41883 0.09373 0.54831 0.0
O20 O 0.24216 0.17487 0.58342 0.0
O21 O 0.4085 0.48575 0.57629 0.0
O22 O 0.54988 0.34236 0.54085 0.0
C23 C 0.68456 0.26226 0.72677 0.0
O24 O 0.30072 0.37508 0.69233 0.0
O25 O 0.36106 0.15666 0.71608 0.0
In26 In 0.94891 0.75216 0.63202 0.0
O27 O 0.8007 0.64612 0.69229 0.0
O28 O 0.86107 0.86449 0.71611 0.0
C29 C 0.98733 0.56063 0.5327 0.0
C30 C 0.18456 0.75891 0.72677 0.0
C31 C 0.78756 0.92358 0.53963 0.0
O32 O 0.90843 0.53549 0.57626 0.0
O33 O 0.04994 0.67874 0.54088 0.0
O34 O 0.91883 0.92735 0.54826 0.0
O35 O 0.74226 0.84668 0.58345 0.0
C36 C 0.79088 0.7574 0.72858 0.0
O37 O 0.14133 0.86732 0.68996 0.0
O38 O 0.1135 0.64701 0.71301 0.0
In39 In 0.54339 0.75211 0.37699 0.0
O40 O 0.35094 0.8673 0.31905 0.0
O41 O 0.37881 0.64699 0.29599 0.0
C42 C 0.70472 0.92338 0.46932 0.0
C43 C 0.7014 0.75739 0.28042 0.0
C44 C 0.50496 0.56062 0.47631 0.0
O45 O 0.57346 0.92743 0.4607 0.0
O46 O 0.75013 0.84629 0.42559 0.0
O47 O 0.58379 0.53541 0.43272 0.0
O48 O 0.44241 0.6788 0.46815 0.0
C49 C 0.30772 0.7589 0.28224 0.0
O50 O 0.69156 0.64608 0.31668 0.0
O51 O 0.63123 0.86449 0.29293 0.0
In52 In 0.54338 0.769 0.87698 0.0
O53 O 0.6916 0.87504 0.81671 0.0
O54 O 0.63123 0.65667 0.7929 0.0
C55 C 0.50495 0.96054 0.97631 0.0
C56 C 0.30773 0.76225 0.78223 0.0
C57 C 0.70473 0.59758 0.96937 0.0
O58 O 0.58386 0.98567 0.93275 0.0
O59 O 0.44234 0.84242 0.96812 0.0
O60 O 0.57346 0.59382 0.96075 0.0
O61 O 0.75003 0.67449 0.92555 0.0
C62 C 0.70142 0.76376 0.78043 0.0
O63 O 0.35096 0.65384 0.81905 0.0
O64 O 0.37879 0.87415 0.79599 0.0
In65 In 0.94889 0.76905 0.13202 0.0
O66 O 0.14134 0.65386 0.18996 0.0
O67 O 0.11347 0.87417 0.21302 0.0
C68 C 0.78756 0.59778 0.03969 0.0
C69 C 0.79087 0.76376 0.22858 0.0
C70 C 0.98734 0.96054 0.0327 0.0
O71 O 0.91883 0.59374 0.04831 0.0
O72 O 0.74216 0.67488 0.08342 0.0
O73 O 0.9085 0.98575 0.07629 0.0
O74 O 0.04987 0.84236 0.04086 0.0
C75 C 0.18455 0.76226 0.22678 0.0
O76 O 0.80071 0.87509 0.19233 0.0
O77 O 0.86105 0.65667 0.21608 0.0
In78 In 0.4489 0.25215 0.13202 0.0
O79 O 0.30069 0.14612 0.19229 0.0
O80 O 0.36106 0.36449 0.21611 0.0
C81 C 0.48733 0.06063 0.0327 0.0
C82 C 0.68455 0.25891 0.22677 0.0
C83 C 0.28756 0.42358 0.03963 0.0
O84 O 0.40843 0.03549 0.07626 0.0
O85 O 0.54994 0.17874 0.04089 0.0
O86 O 0.41883 0.42735 0.04826 0.0
O87 O 0.24225 0.34667 0.08345 0.0
C88 C 0.29086 0.2574 0.22857 0.0
O89 O 0.64133 0.36732 0.18996 0.0
O90 O 0.61349 0.14701 0.21302 0.0
In91 In 0.04339 0.25211 0.87698 0.0
O92 O 0.19158 0.14607 0.81668 0.0
O93 O 0.13124 0.36449 0.79293 0.0
C94 C 0.00496 0.06062 0.97631 0.0
C95 C 0.80774 0.2589 0.78223 0.0
C96 C 0.20473 0.42338 0.96931 0.0
O97 O 0.08379 0.03541 0.93272 0.0
O98 O 0.94241 0.1788 0.96815 0.0
O99 O 0.07346 0.42742 0.9607 0.0
O100 O 0.25013 0.34629 0.92559 0.0
C101 C 0.20142 0.25739 0.78043 0.0
O102 O 0.85095 0.3673 0.81905 0.0
O103 O 0.87882 0.14698 0.79599 0.0
loop_
_geom_bond_atom_site_label_1
_geom_bond_atom_site_label_2
_geom_bond_distance
_geom_bond_site_symmetry_2
_ccdc_geom_bond_type
In0 O1 2.294 1_455 S
In0 O2 2.326 1_455 S
In0 O6 2.266 . S
In0 O7 2.326 . S
In0 O8 2.266 . S
In0 O9 2.326 1_455 S
In0 O11 2.294 . S
In0 O12 2.326 . S
O1 In0 2.294 1_655 S
O1 C10 1.240 . S
O2 In0 2.326 1_655 S
O2 C10 1.252 . S
C3 O6 1.252 . S
C3 O7 1.260 . S
C4 O11 1.240 . S
C4 O12 1.252 . S
C5 O8 1.252 1_655 S
C5 O9 1.260 . S
O6 In0 2.266 . S
O6 C3 1.252 . S
O7 In0 2.326 . S
O7 C3 1.260 . S
O8 In0 2.266 . S
O8 C5 1.252 1_455 S
O9 In0 2.326 1_655 S
O9 C5 1.260 . S
C10 O1 1.240 . S
C10 O2 1.252 . S
O11 In0 2.294 . S
O11 C4 1.240 . S
O12 In0 2.326 . S
O12 C4 1.252 . S
In13 O14 2.294 . S
In13 O15 2.326 . S
In13 O19 2.266 . S
In13 O20 2.326 . S
In13 O21 2.266 . S
In13 O22 2.326 . S
In13 O24 2.294 . S
In13 O25 2.326 . S
O14 In13 2.294 . S
O14 C23 1.240 . S
O15 In13 2.326 . S
O15 C23 1.252 . S
C16 O19 1.252 . S
C16 O20 1.260 . S
C17 O24 1.240 . S
C17 O25 1.252 . S
C18 O21 1.252 . S
C18 O22 1.260 . S
O19 In13 2.266 . S
O19 C16 1.252 . S
O20 In13 2.326 . S
O20 C16 1.260 . S
O21 In13 2.266 . S
O21 C18 1.252 . S
O22 In13 2.326 . S
O22 C18 1.260 . S
C23 O14 1.240 . S
C23 O15 1.252 . S
O24 In13 2.294 . S
O24 C17 1.240 . S
O25 In13 2.326 . S
O25 C17 1.252 . S
In26 O27 2.294 . S
In26 O28 2.326 . S
In26 O32 2.266 . S
In26 O33 2.326 1_655 S
In26 O34 2.266 . S
In26 O35 2.326 . S
In26 O37 2.294 1_655 S
In26 O38 2.326 1_655 S
O27 In26 2.294 . S
O27 C36 1.240 . S
O28 In26 2.326 . S
O28 C36 1.252 . S
C29 O32 1.252 1_455 S
C29 O33 1.260 . S
C30 O37 1.240 . S
C30 O38 1.252 . S
C31 O34 1.252 . S
C31 O35 1.260 . S
O32 In26 2.266 . S
O32 C29 1.252 1_655 S
O33 In26 2.326 1_455 S
O33 C29 1.260 . S
O34 In26 2.266 . S
O34 C31 1.252 . S
O35 In26 2.326 . S
O35 C31 1.260 . S
C36 O27 1.240 . S
C36 O28 1.252 . S
O37 In26 2.294 1_455 S
O37 C30 1.240 . S
O38 In26 2.326 1_455 S
O38 C30 1.252 . S
In39 O40 2.294 . S
In39 O41 2.326 . S
In39 O45 2.266 . S
In39 O46 2.326 . S
In39 O47 2.266 . S
In39 O48 2.326 . S
In39 O50 2.294 . S
In39 O51 2.326 . S
O40 In39 2.294 . S
O40 C49 1.240 . S
O41 In39 2.326 . S
O41 C49 1.252 . S
C42 O45 1.252 . S
C42 O46 1.260 . S
C43 O50 1.240 . S
C43 O51 1.252 . S
C44 O47 1.252 . S
C44 O48 1.260 . S
O45 In39 2.266 . S
O45 C42 1.252 . S
O46 In39 2.326 . S
O46 C42 1.260 . S
O47 In39 2.266 . S
O47 C44 1.252 . S
O48 In39 2.326 . S
O48 C44 1.260 . S
C49 O40 1.240 . S
C49 O41 1.252 . S
O50 In39 2.294 . S
O50 C43 1.240 . S
O51 In39 2.326 . S
O51 C43 1.252 . S
In52 O53 2.294 . S
In52 O54 2.326 . S
In52 O58 2.266 . S
In52 O59 2.326 . S
In52 O60 2.266 . S
In52 O61 2.326 . S
In52 O63 2.294 . S
In52 O64 2.326 . S
O53 In52 2.294 . S
O53 C62 1.240 . S
O54 In52 2.326 . S
O54 C62 1.252 . S
C55 O58 1.252 . S
C55 O59 1.260 . S
C56 O63 1.240 . S
C56 O64 1.252 . S
C57 O60 1.252 . S
C57 O61 1.260 . S
O58 In52 2.266 . S
O58 C55 1.252 . S
O59 In52 2.326 . S
O59 C55 1.260 . S
O60 In52 2.266 . S
O60 C57 1.252 . S
O61 In52 2.326 . S
O61 C57 1.260 . S
C62 O53 1.240 . S
C62 O54 1.252 . S
O63 In52 2.294 . S
O63 C56 1.240 . S
O64 In52 2.326 . S
O64 C56 1.252 . S
In65 O66 2.294 1_655 S
In65 O67 2.326 1_655 S
In65 O71 2.266 . S
In65 O72 2.326 . S
In65 O73 2.266 . S
In65 O74 2.326 1_655 S
In65 O76 2.294 . S
In65 O77 2.326 . S
O66 In65 2.294 1_455 S
O66 C75 1.240 . S
O67 In65 2.326 1_455 S
O67 C75 1.252 . S
C68 O71 1.252 . S
C68 O72 1.260 . S
C69 O76 1.240 . S
C69 O77 1.252 . S
C70 O73 1.252 1_455 S
C70 O74 1.260 . S
O71 In65 2.266 . S
O71 C68 1.252 . S
O72 In65 2.326 . S
O72 C68 1.260 . S
O73 In65 2.266 . S
O73 C70 1.252 1_655 S
O74 In65 2.326 1_455 S
O74 C70 1.260 . S
C75 O66 1.240 . S
C75 O67 1.252 . S
O76 In65 2.294 . S
O76 C69 1.240 . S
O77 In65 2.326 . S
O77 C69 1.252 . S
In78 O79 2.294 . S
In78 O80 2.326 . S
In78 O84 2.266 . S
In78 O85 2.326 . S
In78 O86 2.266 . S
In78 O87 2.326 . S
In78 O89 2.294 . S
In78 O90 2.326 . S
O79 In78 2.294 . S
O79 C88 1.240 . S
O80 In78 2.326 . S
O80 C88 1.252 . S
C81 O84 1.252 . S
C81 O85 1.260 . S
C82 O89 1.240 . S
C82 O90 1.252 . S
C83 O86 1.252 . S
C83 O87 1.260 . S
O84 In78 2.266 . S
O84 C81 1.252 . S
O85 In78 2.326 . S
O85 C81 1.260 . S
O86 In78 2.266 . S
O86 C83 1.252 . S
O87 In78 2.326 . S
O87 C83 1.260 . S
C88 O79 1.240 . S
C88 O80 1.252 . S
O89 In78 2.294 . S
O89 C82 1.240 . S
O90 In78 2.326 . S
O90 C82 1.252 . S
In91 O92 2.294 . S
In91 O93 2.326 . S
In91 O97 2.266 . S
In91 O98 2.326 1_455 S
In91 O99 2.266 . S
In91 O100 2.326 . S
In91 O102 2.294 1_455 S
In91 O103 2.326 1_455 S
O92 In91 2.294 . S
O92 C101 1.240 . S
O93 In91 2.326 . S
O93 C101 1.252 . S
C94 O97 1.252 1_655 S
C94 O98 1.260 . S
C95 O102 1.240 . S
C95 O103 1.252 . S
C96 O99 1.252 . S
C96 O100 1.260 . S
O97 In91 2.266 . S
O97 C94 1.252 1_455 S
O98 In91 2.326 1_655 S
O98 C94 1.260 . S
O99 In91 2.266 . S
O99 C96 1.252 . S
O100 In91 2.326 . S
O100 C96 1.260 . S
C101 O92 1.240 . S
C101 O93 1.252 . S
O102 In91 2.294 1_655 S
O102 C95 1.240 . S
O103 In91 2.326 1_655 S
O103 C95 1.252 . S
C5 C29 1.715 1_655 S
C44 C18 1.715 . S
C81 C55 1.715 1_544 S
C70 C94 1.716 1_464 S
C82 C10 2.213 . S
C23 C95 2.213 . S
C30 C56 2.213 . S
C49 C75 2.213 . S
C88 C4 1.667 . S
C17 C101 1.667 . S
C62 C36 1.667 . S
C69 C43 1.667 . S
C16 C3 0.884 . S
C31 C42 0.884 . S
C68 C57 0.884 1_554 S
C83 C96 0.884 1_554 S
