# Generated by pormake.
# Topology qtz-x, (6)-cn, num edge types: 1
# Building blocks:
#     Node 0, Type 0, BuildingBlock: JUFBIX_clean_sbu_0, # of connection points: 6
#     Node 1, Type 0, BuildingBlock: JUFBIX_clean_sbu_0, # of connection points: 6
#     Node 2, Type 0, BuildingBlock: JUFBIX_clean_sbu_0, # of connection points: 6
#     Edge 3, Type (0, 0), None
#     Edge 4, Type (0, 0), None
#     Edge 5, Type (0, 0), None
#     Edge 6, Type (0, 0), None
#     Edge 7, Type (0, 0), None
#     Edge 8, Type (0, 0), None
#     Edge 9, Type (0, 0), None
#     Edge 10, Type (0, 0), None
#     Edge 11, Type (0, 0), None
# Relax obj value: 0.595
# Max RMSD: 0.311
# Mean RMSD: 0.311
data_MOF--net-qtz-x--node1-JUFBIX_clean_sbu_0--edge1-none
_symmetry_space_group_name_H-M    P1
_symmetry_Int_Tables_number       1
_symmetry_cell_setting            triclinic
loop_
_symmetry_equiv_pos_as_xyz
'x, y, z'
_cell_length_a     6.8305904
_cell_length_b     6.8302802
_cell_length_c     21.997958
_cell_angle_alpha  89.998063
_cell_angle_beta   89.989988
_cell_angle_gamma 120.00659
loop_
_atom_site_label
_atom_site_type_symbol
_atom_site_fract_x
_atom_site_fract_y
_atom_site_fract_z
_atom_type_partial_charge
Co0 Co 0.21396 0.64496 0.16687 0.0
C1 C 1.04847 0.95951 0.1919 0.0
Co2 Co 0.89339 0.48314 0.21559 0.0
C3 C 0.43327 0.6775 0.0477 0.0
C4 C 0.25881 0.85817 0.05732 0.0
N5 N 0.35749 0.76287 0.09113 0.0
N6 N 0.37368 0.70653 0.99042 0.0
C7 C 0.26179 0.81671 0.99777 0.0
H8 H 0.52217 0.59068 0.05901 0.0
H9 H 0.15022 0.91955 0.07306 0.0
C10 C 0.05616 0.16839 0.19104 0.0
N11 N 0.71674 0.40803 0.28739 0.0
C12 C 0.80469 0.50085 0.34282 0.0
C13 C 0.50395 0.25189 0.30015 0.0
N14 N 0.66625 0.40106 0.39026 0.0
C15 C 0.47202 0.2479 0.36195 0.0
C16 C 0.77257 0.37817 0.10932 0.0
O17 O 0.21839 0.34597 0.16484 0.0
O18 O 0.90097 0.19322 0.21673 0.0
O19 O 0.64444 0.33612 0.15576 0.0
O20 O 0.97849 0.505 0.1168 0.0
O21 O 0.88219 0.77708 0.21274 0.0
H22 H 0.38645 0.1357 0.26798 0.0
H23 H 0.96331 0.65388 0.34885 0.0
O24 O 0.21181 0.93928 0.1726 0.0
O25 O 0.46106 0.77178 0.21909 0.0
O26 O 0.14229 0.60703 0.26958 0.0
C27 C 0.35489 0.70872 0.26966 0.0
H28 H 0.17606 0.85582 0.96387 0.0
H29 H 0.32393 0.11794 0.38515 0.0
Co30 Co 0.5608 0.90352 0.50016 0.0
C31 C 1.04073 0.06891 0.52522 0.0
Co32 Co 0.71933 0.2239 0.54894 0.0
C33 C 0.37389 0.68416 0.38104 0.0
C34 C 0.72905 0.85837 0.39064 0.0
N35 N 0.53504 0.75985 0.42446 0.0
N36 N 0.46255 0.74364 0.32375 0.0
C37 C 0.68464 0.85538 0.33109 0.0
H38 H 0.19816 0.59547 0.39236 0.0
H39 H 0.89908 0.96683 0.40635 0.0
C40 C 0.24193 0.06125 0.52436 0.0
N41 N 0.82087 0.40051 0.62072 0.0
C42 C 0.82568 0.31253 0.67616 0.0
C43 C 0.87748 0.61328 0.63348 0.0
N44 N 0.86427 0.45092 0.72359 0.0
C45 C 0.90537 0.64518 0.69527 0.0
C46 C 0.73539 0.34497 0.44265 0.0
O47 O 0.25739 0.89918 0.49812 0.0
O48 O 0.42188 0.21633 0.55009 0.0
O49 O 0.82117 0.47285 0.48913 0.0
O50 O 0.65663 0.13902 0.45001 0.0
O51 O 1.02452 0.23513 0.54606 0.0
H52 H 0.87877 0.73078 0.6013 0.0
H53 H 0.82009 0.15391 0.6822 0.0
O54 O 0.85717 0.90557 0.50591 0.0
O55 O 0.44029 0.65637 0.55242 0.0
O56 O 0.59434 0.97502 0.60292 0.0
C57 C 0.48338 0.76243 0.603 0.0
H58 H 0.80954 0.94092 0.29717 0.0
H59 H 0.92346 0.79323 0.71847 0.0
Co60 Co 0.4721 0.55619 0.8335 0.0
C61 C 0.15752 0.07623 0.85856 0.0
Co62 Co 0.63384 0.3976 0.88228 0.0
C63 C 0.43972 0.74324 0.71438 0.0
C64 C 0.25878 0.38805 0.72397 0.0
N65 N 0.35425 0.58202 0.75779 0.0
N66 N 0.41058 0.65466 0.65708 0.0
C67 C 0.30023 0.43256 0.66442 0.0
H68 H 0.52673 0.91896 0.7257 0.0
H69 H 0.1972 0.218 0.73968 0.0
C70 C 0.94865 0.87503 0.8577 0.0
N71 N 0.70886 0.29602 0.95405 0.0
C72 C 0.61629 0.29135 1.00952 0.0
C73 C 0.86524 0.23963 0.96675 0.0
N74 N 0.71675 0.25331 0.05686 0.0
C75 C 0.86976 0.21209 0.02856 0.0
C76 C 0.73899 0.38172 0.77599 0.0
O77 O 0.77116 0.8596 0.83145 0.0
O78 O 0.92373 0.69505 0.88343 0.0
O79 O 0.78099 0.29585 0.82246 0.0
O80 O 0.6118 0.46046 0.78334 0.0
O81 O 0.33989 0.09241 0.87941 0.0
H82 H 0.98131 0.23837 0.93452 0.0
H83 H 0.46336 0.29704 1.01564 0.0
O84 O 0.17778 0.2598 0.83924 0.0
O85 O 0.34545 0.67664 0.88576 0.0
O86 O 0.50997 0.52253 0.93626 0.0
C87 C 0.40844 0.63357 0.93634 0.0
H88 H 0.26088 0.30771 0.6305 0.0
H89 H 0.99993 0.19426 0.05171 0.0
loop_
_geom_bond_atom_site_label_1
_geom_bond_atom_site_label_2
_geom_bond_distance
_geom_bond_site_symmetry_2
_ccdc_geom_bond_type
Co0 N5 2.057 . S
Co0 O17 2.021 . S
Co0 O20 2.062 1_455 S
Co0 O24 2.117 . S
Co0 O25 2.020 . S
C1 O21 1.259 . S
C1 O24 1.258 1_655 S
Co2 N11 2.057 . S
Co2 O18 2.117 . S
Co2 O19 2.020 . S
Co2 O21 2.021 . S
Co2 O26 2.062 1_655 S
C3 N5 1.316 . S
C3 N6 1.347 1_554 S
C3 H8 0.931 . S
C4 N5 1.375 . S
C4 C7 1.341 1_554 S
C4 H9 0.930 1_565 S
N5 Co0 2.057 . S
N5 C3 1.316 . S
N5 C4 1.375 . S
N6 C3 1.347 1_556 S
N6 C7 1.376 . S
C7 C4 1.341 1_556 S
C7 N6 1.376 . S
C7 H28 0.936 1_565 S
H8 C3 0.931 . S
H9 C4 0.930 1_545 S
C10 O17 1.259 . S
C10 O18 1.258 1_455 S
N11 Co2 2.057 . S
N11 C12 1.316 . S
N11 C13 1.375 . S
C12 N11 1.316 . S
C12 N14 1.347 . S
C12 H23 0.931 . S
C13 N11 1.375 . S
C13 C15 1.350 1_545 S
C13 H22 0.930 1_545 S
N14 C12 1.347 . S
N14 C15 1.373 1_545 S
C15 C13 1.350 1_565 S
C15 N14 1.373 1_565 S
C15 H29 0.931 . S
C16 O19 1.256 . S
C16 O20 1.255 . S
O17 Co0 2.021 . S
O17 C10 1.259 . S
O18 Co2 2.117 . S
O18 C10 1.258 1_655 S
O19 Co2 2.020 . S
O19 C16 1.256 . S
O20 Co0 2.062 1_655 S
O20 C16 1.255 . S
O21 C1 1.259 . S
O21 Co2 2.021 . S
H22 C13 0.930 1_565 S
H23 C12 0.931 . S
O24 Co0 2.117 . S
O24 C1 1.258 1_455 S
O25 Co0 2.020 . S
O25 C27 1.256 . S
O26 Co2 2.062 1_455 S
O26 C27 1.255 . S
C27 O25 1.256 . S
C27 O26 1.255 . S
H28 C7 0.936 1_545 S
H29 C15 0.931 . S
Co30 N35 2.057 . S
Co30 O47 2.021 . S
Co30 O50 2.062 1_565 S
Co30 O54 2.117 . S
Co30 O55 2.020 . S
C31 O51 1.259 . S
C31 O54 1.258 1_545 S
Co32 N41 2.057 . S
Co32 O48 2.117 . S
Co32 O49 2.020 . S
Co32 O51 2.021 . S
Co32 O56 2.062 1_545 S
C33 N35 1.316 . S
C33 N36 1.347 . S
C33 H38 0.931 . S
C34 N35 1.375 . S
C34 C37 1.350 . S
C34 H39 0.930 . S
N35 Co30 2.057 . S
N35 C33 1.316 . S
N35 C34 1.375 . S
N36 C33 1.347 . S
N36 C37 1.373 . S
C37 C34 1.350 . S
C37 N36 1.373 . S
C37 H58 0.931 . S
H38 C33 0.931 . S
H39 C34 0.930 . S
C40 O47 1.259 1_545 S
C40 O48 1.258 . S
N41 Co32 2.057 . S
N41 C42 1.316 . S
N41 C43 1.375 . S
C42 N41 1.316 . S
C42 N44 1.347 . S
C42 H53 0.931 . S
C43 N41 1.375 . S
C43 C45 1.350 . S
C43 H52 0.930 . S
N44 C42 1.347 . S
N44 C45 1.373 . S
C45 C43 1.350 . S
C45 N44 1.373 . S
C45 H59 0.931 . S
C46 O49 1.256 . S
C46 O50 1.255 . S
O47 Co30 2.021 . S
O47 C40 1.259 1_565 S
O48 Co32 2.117 . S
O48 C40 1.258 . S
O49 Co32 2.020 . S
O49 C46 1.256 . S
O50 Co30 2.062 1_545 S
O50 C46 1.255 . S
O51 C31 1.259 . S
O51 Co32 2.021 . S
H52 C43 0.930 . S
H53 C42 0.931 . S
O54 Co30 2.117 . S
O54 C31 1.258 1_565 S
O55 Co30 2.020 . S
O55 C57 1.256 . S
O56 Co32 2.062 1_565 S
O56 C57 1.255 . S
C57 O55 1.256 . S
C57 O56 1.255 . S
H58 C37 0.931 . S
H59 C45 0.931 . S
Co60 N65 2.057 . S
Co60 O77 2.021 . S
Co60 O80 2.062 . S
Co60 O84 2.117 . S
Co60 O85 2.020 . S
C61 O81 1.259 . S
C61 O84 1.258 . S
Co62 N71 2.057 . S
Co62 O78 2.117 . S
Co62 O79 2.020 . S
Co62 O81 2.021 . S
Co62 O86 2.062 . S
C63 N65 1.316 . S
C63 N66 1.347 . S
C63 H68 0.931 . S
C64 N65 1.375 . S
C64 C67 1.350 . S
C64 H69 0.930 . S
N65 Co60 2.057 . S
N65 C63 1.316 . S
N65 C64 1.375 . S
N66 C63 1.347 . S
N66 C67 1.373 . S
C67 C64 1.350 . S
C67 N66 1.373 . S
C67 H88 0.931 1_455 S
H68 C63 0.931 . S
H69 C64 0.930 . S
C70 O77 1.259 . S
C70 O78 1.258 . S
N71 Co62 2.057 . S
N71 C72 1.316 . S
N71 C73 1.375 . S
C72 N71 1.316 . S
C72 N74 1.347 1_556 S
C72 H83 0.931 . S
C73 N71 1.375 . S
C73 C75 1.341 1_656 S
C73 H82 0.930 1_655 S
N74 C72 1.347 1_554 S
N74 C75 1.376 1_655 S
C75 C73 1.341 1_454 S
C75 N74 1.376 1_455 S
C75 H89 0.936 . S
C76 O79 1.256 . S
C76 O80 1.255 . S
O77 Co60 2.021 . S
O77 C70 1.259 . S
O78 Co62 2.117 . S
O78 C70 1.258 . S
O79 Co62 2.020 . S
O79 C76 1.256 . S
O80 Co60 2.062 . S
O80 C76 1.255 . S
O81 C61 1.259 . S
O81 Co62 2.021 . S
H82 C73 0.930 1_455 S
H83 C72 0.931 . S
O84 Co60 2.117 . S
O84 C61 1.258 . S
O85 Co60 2.020 . S
O85 C87 1.256 . S
O86 Co62 2.062 . S
O86 C87 1.255 . S
C87 O85 1.256 . S
C87 O86 1.255 . S
H88 C67 0.931 1_655 S
H89 C75 0.936 . S
C1 C10 2.121 1_665 S
C40 C31 2.121 1_455 S
C70 C61 2.121 1_665 S
C87 N6 2.102 . S
C46 N14 2.260 . S
N66 C57 2.101 . S
N74 C16 2.260 . S
C27 N36 2.102 . S
C76 N44 2.261 . S
