# Generated by pormake.
# Topology kag, (6)-cn, num edge types: 1
# Building blocks:
#     Node 0, Type 0, BuildingBlock: JUFBIX_clean_sbu_0, # of connection points: 6
#     Node 1, Type 0, BuildingBlock: JUFBIX_clean_sbu_0, # of connection points: 6
#     Node 2, Type 0, BuildingBlock: JUFBIX_clean_sbu_0, # of connection points: 6
#     Edge 3, Type (0, 0), BuildingBlock: OJICUG_clean_linker_0, # of connection points: 2
#     Edge 4, Type (0, 0), BuildingBlock: OJICUG_clean_linker_0, # of connection points: 2
#     Edge 5, Type (0, 0), BuildingBlock: OJICUG_clean_linker_0, # of connection points: 2
#     Edge 6, Type (0, 0), BuildingBlock: OJICUG_clean_linker_0, # of connection points: 2
#     Edge 7, Type (0, 0), BuildingBlock: OJICUG_clean_linker_0, # of connection points: 2
#     Edge 8, Type (0, 0), BuildingBlock: OJICUG_clean_linker_0, # of connection points: 2
#     Edge 9, Type (0, 0), BuildingBlock: OJICUG_clean_linker_0, # of connection points: 2
#     Edge 10, Type (0, 0), BuildingBlock: OJICUG_clean_linker_0, # of connection points: 2
#     Edge 11, Type (0, 0), BuildingBlock: OJICUG_clean_linker_0, # of connection points: 2
# Relax obj value: 0.325
# Max RMSD: 0.250
# Mean RMSD: 0.152
data_MOF--net-kag--node1-JUFBIX_clean_sbu_0--edge1-OJICUG_clean_linker_0
_symmetry_space_group_name_H-M    P1
_symmetry_Int_Tables_number       1
_symmetry_cell_setting            triclinic
loop_
_symmetry_equiv_pos_as_xyz
'x, y, z'
_cell_length_a     21.748378
_cell_length_b     29.688133
_cell_length_c     10.866938
_cell_angle_alpha  90.730404
_cell_angle_beta   92.827349
_cell_angle_gamma 120.80607
loop_
_atom_site_label
_atom_site_type_symbol
_atom_site_fract_x
_atom_site_fract_y
_atom_site_fract_z
_atom_type_partial_charge
Co0 Co 0.99609 0.46109 1.00103 0.0
C1 C 1.024 0.50651 0.77105 0.0
Co2 Co 0.05334 0.54777 0.00873 0.0
C3 C 0.89404 0.34983 0.02921 0.0
C4 C 0.9819 0.36418 0.92224 0.0
N5 N 0.9552 0.38885 0.98625 0.0
N6 N 0.88207 0.30188 0.99493 0.0
C7 C 0.93741 0.31094 0.92781 0.0
H8 H 0.85887 0.35646 0.08376 0.0
H9 H 0.02997 0.38366 0.87205 0.0
C10 C 0.02543 0.50235 0.23871 0.0
N11 N 0.09423 0.62 0.02352 0.0
C12 C 0.15541 0.65904 0.98065 0.0
C13 C 0.0675 0.64467 0.08749 0.0
N14 N 0.16738 0.70698 0.01494 0.0
C15 C 0.11201 0.69791 0.08198 0.0
C16 C 0.90194 0.49603 0.99852 0.0
O17 O 0.9966 0.45912 0.17577 0.0
O18 O 0.05352 0.54518 0.18318 0.0
O19 O 0.96064 0.53978 1.00262 0.0
O20 O 0.90368 0.45389 0.99548 0.0
O21 O 0.05284 0.54974 0.83398 0.0
H22 H 1.01941 0.62519 0.13762 0.0
H23 H 0.19062 0.65241 0.92616 0.0
O24 O 0.99591 0.46367 0.82657 0.0
O25 O 0.08879 0.46907 0.00713 0.0
O26 O 0.14575 0.55496 0.01428 0.0
C27 C 0.14749 0.51282 0.01123 0.0
H28 H 0.94392 0.28119 0.88199 0.0
H29 H 0.10548 0.72765 0.1278 0.0
Co30 Co 0.55956 0.98717 0.00838 0.0
C31 C 0.52537 0.0063 0.7715 0.0
Co32 Co 0.48994 0.0217 1.00188 0.0
C33 C 0.60312 0.9096 0.03358 0.0
C34 C 0.68613 0.98244 0.97005 0.0
N35 N 0.61892 0.95882 0.00837 0.0
N36 N 0.65736 0.90148 0.0109 0.0
C37 C 0.70988 0.94758 0.972 0.0
H38 H 0.55158 0.87949 0.06246 0.0
H39 H 0.71537 0.02195 0.93809 0.0
C40 C 0.52413 1.00256 0.23877 0.0
N41 N 0.43058 0.05004 1.00189 0.0
C42 C 0.44637 0.09926 0.97661 0.0
C43 C 0.36338 0.02643 0.04026 0.0
N44 N 0.39213 0.10738 0.99929 0.0
C45 C 0.33963 0.06129 0.03827 0.0
C46 C 0.41488 0.91233 0.98632 0.0
O47 O 0.55889 0.98561 0.1829 0.0
O48 O 0.49002 0.01979 0.17645 0.0
O49 O 0.40831 0.95245 0.98759 0.0
O50 O 0.47725 0.91869 0.99421 0.0
O51 O 0.49061 0.02326 0.82737 0.0
H52 H 0.33415 0.98694 0.07227 0.0
H53 H 0.4979 0.12936 0.94767 0.0
O54 O 0.55948 0.98907 0.83381 0.0
O55 O 0.64119 0.05641 0.02266 0.0
O56 O 0.57224 0.09018 0.01605 0.0
C57 C 0.63462 0.09654 0.02393 0.0
H58 H 0.76144 0.95546 0.94416 0.0
H59 H 0.28807 0.05342 0.06611 0.0
Co60 Co 0.49239 0.46078 0.99958 0.0
C61 C 0.52694 0.50627 0.23887 0.0
Co62 Co 0.55702 0.54806 0.01013 0.0
C63 C 0.44941 0.34976 0.97542 0.0
C64 C 0.36599 0.36114 0.03552 0.0
N65 N 0.4336 0.38755 0.99866 0.0
N66 N 0.39464 0.30121 0.99752 0.0
C67 C 0.34195 0.30848 0.03415 0.0
H68 H 0.50123 0.35786 0.94851 0.0
H69 H 0.33648 0.37888 0.06661 0.0
C70 C 0.52247 0.50257 0.77084 0.0
N71 N 0.61582 0.62129 0.01105 0.0
C72 C 0.60003 0.65907 0.0344 0.0
C73 C 0.6834 0.64769 0.97409 0.0
N74 N 0.6548 0.70763 0.01228 0.0
C75 C 0.70745 0.70035 0.97552 0.0
C76 C 0.63682 0.49732 0.01259 0.0
O77 O 0.49051 0.45927 0.82469 0.0
O78 O 0.55435 0.54551 0.8352 0.0
O79 O 0.63961 0.54112 0.01691 0.0
O80 O 0.57595 0.45529 0.00591 0.0
O81 O 0.55891 0.54957 0.18502 0.0
H82 H 0.71289 0.62994 0.94291 0.0
H83 H 0.54823 0.65098 0.0614 0.0
O84 O 0.49506 0.46333 0.17451 0.0
O85 O 0.40981 0.46772 0.99281 0.0
O86 O 0.47347 0.55355 1.0038 0.0
C87 C 0.4126 0.51152 0.99712 0.0
H88 H 0.29 0.27807 0.06094 0.0
H89 H 0.75939 0.73076 0.94868 0.0
C90 C 0.99292 0.4575 0.5665 0.0
C91 C 1.02402 0.50558 0.63483 0.0
H92 H 0.96907 0.4187 0.38814 0.0
C93 C 0.05584 0.55249 0.57178 0.0
H94 H 0.96805 0.42059 0.61223 0.0
C95 C 0.05651 0.55136 0.44326 0.0
C96 C 0.02541 0.50328 0.37492 0.0
H97 H 0.08036 0.59016 0.62162 0.0
H98 H 0.08138 0.58826 0.39753 0.0
C99 C 0.9936 0.45636 0.43797 0.0
C100 C 0.48646 0.02262 0.43642 0.0
C101 C 0.52414 1.00318 0.375 0.0
H102 H 0.4574 0.03901 0.60948 0.0
C103 C 0.56244 0.98501 0.44516 0.0
H104 H 0.45645 0.03699 0.38517 0.0
C105 C 0.56305 0.98625 0.57384 0.0
C106 C 0.52536 0.00568 0.63526 0.0
H107 H 0.5921 0.96985 0.40078 0.0
H108 H 0.59305 0.97187 0.62509 0.0
C109 C 0.48706 0.02386 0.56511 0.0
C110 C 0.48893 0.45642 0.56209 0.0
C111 C 0.52335 0.5034 0.63473 0.0
H112 H 0.46311 0.42047 0.38045 0.0
C113 C 0.55916 0.55141 0.57604 0.0
H114 H 0.46093 0.41879 0.60433 0.0
C115 C 0.56049 0.55242 0.44762 0.0
C116 C 0.52606 0.50544 0.37498 0.0
H117 H 0.58631 0.58837 0.62926 0.0
H118 H 0.58848 0.59005 0.40538 0.0
C119 C 0.49026 0.45742 0.43367 0.0
C120 C 0.21525 0.46601 0.9989 0.0
C121 C 0.21612 0.51361 0.00847 0.0
H122 H 0.27581 0.42812 0.9866 0.0
C123 C 0.28252 0.56103 0.01262 0.0
H124 H 0.16517 0.4287 0.99495 0.0
C125 C 0.34661 0.56066 0.0079 0.0
C126 C 0.34542 0.51287 0.99859 0.0
H127 H 0.285 0.59836 0.01953 0.0
H128 H 0.397 0.59775 0.01199 0.0
C129 C 0.27893 0.46566 0.99384 0.0
C130 C 0.69192 0.19456 0.02865 0.0
C131 C 0.6988 0.14994 0.02834 0.0
H132 H 0.74523 0.27821 0.01848 0.0
C133 C 0.76756 0.15672 0.02652 0.0
H134 H 0.63967 0.19069 0.03049 0.0
C135 C 0.82778 0.20677 0.01989 0.0
C136 C 0.82074 0.25122 0.01536 0.0
H137 H 0.77487 0.12327 0.02719 0.0
H138 H 0.87992 0.21063 0.01653 0.0
C139 C 0.75238 0.24475 0.02259 0.0
C140 C 0.7007 0.8441 0.93778 0.0
C141 C 0.65673 0.85257 0.01358 0.0
H142 H 0.73354 0.79177 0.876 0.0
C143 C 0.61144 0.81212 0.0893 0.0
H144 H 0.73491 0.87357 0.87584 0.0
C145 C 0.61062 0.76454 0.08937 0.0
C146 C 0.65512 0.75644 0.01382 0.0
H147 H 0.5772 0.81739 0.14945 0.0
H148 H 0.57584 0.73441 0.14957 0.0
C149 C 0.69989 0.79686 0.93787 0.0
C150 C 0.83417 0.54284 0.0108 0.0
C151 C 0.8333 0.49524 1.00127 0.0
H152 H 0.7736 0.58072 0.02308 0.0
C153 C 0.76691 0.44782 0.99714 0.0
H154 H 0.88424 0.58015 0.01474 0.0
C155 C 0.70281 0.44818 1.00184 0.0
C156 C 0.704 0.49597 0.01112 0.0
H157 H 0.76444 0.41049 0.99025 0.0
H158 H 0.65243 0.41109 0.99776 0.0
C159 C 0.77049 0.54319 0.01586 0.0
C160 C 0.22171 0.8021 0.9901 0.0
C161 C 0.22873 0.75764 0.99463 0.0
H162 H 0.27462 0.8856 0.9829 0.0
C163 C 0.2971 0.76411 0.9875 0.0
H164 H 0.16956 0.79824 0.99338 0.0
C165 C 0.35757 0.8143 0.98154 0.0
C166 C 0.3507 0.85893 0.98185 0.0
H167 H 0.30424 0.73064 0.99161 0.0
H168 H 0.40982 0.81817 0.97978 0.0
C169 C 0.28193 0.85215 0.98357 0.0
C170 C 0.34956 0.212 0.07206 0.0
C171 C 0.39433 0.2524 0.99608 0.0
H172 H 0.31455 0.13531 0.13421 0.0
C173 C 0.43885 0.2443 0.9206 0.0
H174 H 0.31589 0.21709 0.13387 0.0
C175 C 0.43805 0.19672 0.92077 0.0
C176 C 0.39275 0.15628 0.99652 0.0
H177 H 0.47364 0.27442 0.86038 0.0
H178 H 0.4723 0.19145 0.86067 0.0
C179 C 0.34876 0.16476 0.07224 0.0
loop_
_geom_bond_atom_site_label_1
_geom_bond_atom_site_label_2
_geom_bond_distance
_geom_bond_site_symmetry_2
_ccdc_geom_bond_type
Co0 N5 2.057 1_554 S
Co0 O17 2.021 . S
Co0 O20 2.062 . S
Co0 O24 2.117 1_554 S
Co0 O25 2.020 1_655 S
C1 O21 1.259 . S
C1 O24 1.258 1_455 S
Co2 N11 2.057 1_556 S
Co2 O18 2.117 1_556 S
Co2 O19 2.020 1_455 S
Co2 O21 2.021 . S
Co2 O26 2.062 . S
C3 N5 1.316 1_554 S
C3 N6 1.347 1_554 S
C3 H8 0.931 . S
C4 N5 1.375 . S
C4 C7 1.350 . S
C4 H9 0.930 . S
N5 Co0 2.057 1_556 S
N5 C3 1.316 1_556 S
N5 C4 1.375 . S
N6 C3 1.347 1_556 S
N6 C7 1.373 . S
C7 C4 1.350 . S
C7 N6 1.373 . S
C7 H28 0.931 . S
H8 C3 0.931 . S
H9 C4 0.930 . S
C10 O17 1.259 . S
C10 O18 1.258 1_655 S
N11 Co2 2.057 1_554 S
N11 C12 1.316 1_554 S
N11 C13 1.375 . S
C12 N11 1.316 1_556 S
C12 N14 1.347 1_556 S
C12 H23 0.931 . S
C13 N11 1.375 . S
C13 C15 1.350 . S
C13 H22 0.930 . S
N14 C12 1.347 1_554 S
N14 C15 1.373 . S
C15 C13 1.350 . S
C15 N14 1.373 . S
C15 H29 0.931 . S
C16 O19 1.256 1_554 S
C16 O20 1.255 . S
O17 Co0 2.021 . S
O17 C10 1.259 . S
O18 Co2 2.117 1_554 S
O18 C10 1.258 1_455 S
O19 Co2 2.020 1_655 S
O19 C16 1.256 1_556 S
O20 Co0 2.062 . S
O20 C16 1.255 . S
O21 C1 1.259 . S
O21 Co2 2.021 . S
H22 C13 0.930 . S
H23 C12 0.931 . S
O24 Co0 2.117 1_556 S
O24 C1 1.258 1_655 S
O25 Co0 2.020 1_455 S
O25 C27 1.256 1_554 S
O26 Co2 2.062 . S
O26 C27 1.255 . S
C27 O25 1.256 1_556 S
C27 O26 1.255 . S
H28 C7 0.931 . S
H29 C15 0.931 . S
Co30 N35 2.057 1_554 S
Co30 O47 2.021 . S
Co30 O50 2.062 . S
Co30 O54 2.117 1_554 S
Co30 O55 2.020 1_565 S
C31 O51 1.259 . S
C31 O54 1.258 1_545 S
Co32 N41 2.057 1_556 S
Co32 O48 2.117 1_556 S
Co32 O49 2.020 1_545 S
Co32 O51 2.021 . S
Co32 O56 2.062 . S
C33 N35 1.316 1_554 S
C33 N36 1.347 1_554 S
C33 H38 0.931 . S
C34 N35 1.375 . S
C34 C37 1.350 . S
C34 H39 0.930 . S
N35 Co30 2.057 1_556 S
N35 C33 1.316 1_556 S
N35 C34 1.375 . S
N36 C33 1.347 1_556 S
N36 C37 1.373 . S
C37 C34 1.350 . S
C37 N36 1.373 . S
C37 H58 0.931 . S
H38 C33 0.931 . S
H39 C34 0.930 . S
C40 O47 1.259 . S
C40 O48 1.258 1_565 S
N41 Co32 2.057 1_554 S
N41 C42 1.316 1_554 S
N41 C43 1.375 . S
C42 N41 1.316 1_556 S
C42 N44 1.347 1_556 S
C42 H53 0.931 . S
C43 N41 1.375 . S
C43 C45 1.350 . S
C43 H52 0.930 . S
N44 C42 1.347 1_554 S
N44 C45 1.373 . S
C45 C43 1.350 . S
C45 N44 1.373 . S
C45 H59 0.931 . S
C46 O49 1.256 . S
C46 O50 1.255 1_556 S
O47 Co30 2.021 . S
O47 C40 1.259 . S
O48 Co32 2.117 1_554 S
O48 C40 1.258 1_545 S
O49 Co32 2.020 1_565 S
O49 C46 1.256 . S
O50 Co30 2.062 . S
O50 C46 1.255 1_554 S
O51 C31 1.259 . S
O51 Co32 2.021 . S
H52 C43 0.930 . S
H53 C42 0.931 . S
O54 Co30 2.117 1_556 S
O54 C31 1.258 1_565 S
O55 Co30 2.020 1_545 S
O55 C57 1.256 . S
O56 Co32 2.062 . S
O56 C57 1.255 1_556 S
C57 O55 1.256 . S
C57 O56 1.255 1_554 S
H58 C37 0.931 . S
H59 C45 0.931 . S
Co60 N65 2.057 1_556 S
Co60 O77 2.021 . S
Co60 O80 2.062 . S
Co60 O84 2.117 1_556 S
Co60 O85 2.020 . S
C61 O81 1.259 . S
C61 O84 1.258 . S
Co62 N71 2.057 1_554 S
Co62 O78 2.117 1_554 S
Co62 O79 2.020 . S
Co62 O81 2.021 . S
Co62 O86 2.062 . S
C63 N65 1.316 1_556 S
C63 N66 1.347 1_556 S
C63 H68 0.931 . S
C64 N65 1.375 . S
C64 C67 1.350 . S
C64 H69 0.930 . S
N65 Co60 2.057 1_554 S
N65 C63 1.316 1_554 S
N65 C64 1.375 . S
N66 C63 1.347 1_554 S
N66 C67 1.373 . S
C67 C64 1.350 . S
C67 N66 1.373 . S
C67 H88 0.931 . S
H68 C63 0.931 . S
H69 C64 0.930 . S
C70 O77 1.259 . S
C70 O78 1.258 . S
N71 Co62 2.057 1_556 S
N71 C72 1.316 1_556 S
N71 C73 1.375 . S
C72 N71 1.316 1_554 S
C72 N74 1.347 1_554 S
C72 H83 0.931 . S
C73 N71 1.375 . S
C73 C75 1.350 . S
C73 H82 0.930 . S
N74 C72 1.347 1_556 S
N74 C75 1.373 . S
C75 C73 1.350 . S
C75 N74 1.373 . S
C75 H89 0.931 . S
C76 O79 1.256 . S
C76 O80 1.254 1_554 S
O77 Co60 2.021 . S
O77 C70 1.259 . S
O78 Co62 2.117 1_556 S
O78 C70 1.258 . S
O79 Co62 2.020 . S
O79 C76 1.256 . S
O80 Co60 2.062 . S
O80 C76 1.254 1_556 S
O81 C61 1.259 . S
O81 Co62 2.021 . S
H82 C73 0.930 . S
H83 C72 0.931 . S
O84 Co60 2.117 1_554 S
O84 C61 1.258 . S
O85 Co60 2.020 . S
O85 C87 1.256 . S
O86 Co62 2.062 . S
O86 C87 1.254 1_554 S
C87 O85 1.256 . S
C87 O86 1.254 1_556 S
H88 C67 0.931 . S
H89 C75 0.931 . S
C90 C91 1.391 1_655 S
C90 H94 0.950 . S
C90 C99 1.390 . S
C91 C90 1.391 1_455 S
C91 C93 1.385 . S
H92 C99 0.950 . S
C93 C91 1.385 . S
C93 C95 1.390 . S
C93 H97 0.950 . S
H94 C90 0.950 . S
C95 C93 1.390 . S
C95 C96 1.389 1_455 S
C95 H98 0.950 . S
C96 C95 1.389 1_655 S
C96 C99 1.386 . S
H97 C93 0.950 . S
H98 C95 0.950 . S
C99 C90 1.390 . S
C99 H92 0.950 . S
C99 C96 1.386 . S
C100 C101 1.387 . S
C100 H104 0.950 . S
C100 C109 1.390 . S
C101 C100 1.387 . S
C101 C103 1.387 1_565 S
H102 C109 0.950 . S
C103 C101 1.387 1_545 S
C103 C105 1.390 . S
C103 H107 0.950 . S
H104 C100 0.950 . S
C105 C103 1.390 . S
C105 C106 1.387 . S
C105 H108 0.950 . S
C106 C105 1.387 . S
C106 C109 1.387 1_545 S
H107 C103 0.950 . S
H108 C105 0.950 . S
C109 C100 1.390 . S
C109 H102 0.950 . S
C109 C106 1.387 1_565 S
C110 C111 1.387 . S
C110 H114 0.950 . S
C110 C119 1.390 . S
C111 C110 1.387 . S
C111 C113 1.387 . S
H112 C119 0.950 . S
C113 C111 1.387 . S
C113 C115 1.390 . S
C113 H117 0.950 . S
H114 C110 0.950 . S
C115 C113 1.390 . S
C115 C116 1.387 . S
C115 H118 0.950 . S
C116 C115 1.387 . S
C116 C119 1.387 . S
H117 C113 0.950 . S
H118 C115 0.950 . S
C119 C110 1.390 . S
C119 H112 0.950 . S
C119 C116 1.387 . S
C120 C121 1.391 . S
C120 H124 0.950 . S
C120 C129 1.390 . S
C121 C120 1.391 . S
C121 C123 1.384 1_556 S
H122 C129 0.950 . S
C123 C121 1.384 1_554 S
C123 C125 1.390 . S
C123 H127 0.950 . S
H124 C120 0.950 . S
C125 C123 1.390 . S
C125 C126 1.387 1_554 S
C125 H128 0.950 . S
C126 C125 1.387 1_556 S
C126 C129 1.387 . S
H127 C123 0.950 . S
H128 C125 0.950 . S
C129 C120 1.390 . S
C129 H122 0.950 . S
C129 C126 1.387 . S
C130 C131 1.387 . S
C130 H134 0.950 . S
C130 C139 1.390 . S
C131 C130 1.387 . S
C131 C133 1.387 1_554 S
H132 C139 0.950 . S
C133 C131 1.387 1_556 S
C133 C135 1.390 . S
C133 H137 0.950 . S
H134 C130 0.950 . S
C135 C133 1.390 . S
C135 C136 1.387 1_556 S
C135 H138 0.950 . S
C136 C135 1.387 1_554 S
C136 C139 1.387 . S
H137 C133 0.950 . S
H138 C135 0.950 . S
C139 C130 1.390 . S
C139 H132 0.950 . S
C139 C136 1.387 . S
C140 C141 1.387 1_556 S
C140 H144 0.950 . S
C140 C149 1.390 . S
C141 C140 1.387 1_554 S
C141 C143 1.387 . S
H142 C149 0.950 . S
C143 C141 1.387 . S
C143 C145 1.390 . S
C143 H147 0.950 . S
H144 C140 0.950 . S
C145 C143 1.390 . S
C145 C146 1.387 . S
C145 H148 0.950 . S
C146 C145 1.387 . S
C146 C149 1.387 1_554 S
H147 C143 0.950 . S
H148 C145 0.950 . S
C149 C140 1.390 . S
C149 H142 0.950 . S
C149 C146 1.387 1_556 S
C150 C151 1.381 1_556 S
C150 H154 0.950 . S
C150 C159 1.390 . S
C151 C150 1.381 1_554 S
C151 C153 1.394 . S
H152 C159 0.950 . S
C153 C151 1.394 . S
C153 C155 1.390 . S
C153 H157 0.950 . S
H154 C150 0.950 . S
C155 C153 1.390 . S
C155 C156 1.387 . S
C155 H158 0.950 . S
C156 C155 1.387 . S
C156 C159 1.387 1_554 S
H157 C153 0.950 . S
H158 C155 0.950 . S
C159 C150 1.390 . S
C159 H152 0.950 . S
C159 C156 1.387 1_556 S
C160 C161 1.380 1_554 S
C160 H164 0.950 . S
C160 C169 1.390 . S
C161 C160 1.380 1_556 S
C161 C163 1.396 . S
H162 C169 0.950 . S
C163 C161 1.396 . S
C163 C165 1.390 . S
C163 H167 0.950 . S
H164 C160 0.950 . S
C165 C163 1.390 . S
C165 C166 1.387 . S
C165 H168 0.950 . S
C166 C165 1.387 . S
C166 C169 1.387 1_556 S
H167 C163 0.950 . S
H168 C165 0.950 . S
C169 C160 1.390 . S
C169 H162 0.950 . S
C169 C166 1.387 1_554 S
C170 C171 1.387 1_554 S
C170 H174 0.950 . S
C170 C179 1.390 . S
C171 C170 1.387 1_556 S
C171 C173 1.387 . S
H172 C179 0.950 . S
C173 C171 1.387 . S
C173 C175 1.390 . S
C173 H177 0.950 . S
H174 C170 0.950 . S
C175 C173 1.390 . S
C175 C176 1.387 . S
C175 H178 0.950 . S
C176 C175 1.387 . S
C176 C179 1.387 1_556 S
H177 C173 0.950 . S
H178 C175 0.950 . S
C179 C170 1.390 . S
C179 H172 0.950 . S
C179 C176 1.387 1_554 S
C91 C1 1.495 . S
C96 C10 1.496 . S
C101 C40 1.502 . S
C106 C31 1.502 . S
C111 C70 1.503 . S
C116 C61 1.503 . S
C121 C27 1.747 . S
C126 C87 1.726 . S
C131 C57 1.254 . S
C136 N6 1.248 1_554 S
C141 N36 0.919 1_554 S
C146 N74 0.922 1_554 S
C151 C16 1.747 . S
C156 C76 1.729 . S
C161 N14 1.247 1_556 S
C166 C46 1.255 . S
C171 N66 0.921 1_556 S
C176 N44 0.918 1_556 S
