# Generated by pormake.
# Topology sxc, (6)-cn, num edge types: 1
# Building blocks:
#     Node 0, Type 0, BuildingBlock: CIFDUS_clean_sbu_1, # of connection points: 6
#     Node 1, Type 0, BuildingBlock: CIFDUS_clean_sbu_1, # of connection points: 6
#     Node 2, Type 0, BuildingBlock: CIFDUS_clean_sbu_1, # of connection points: 6
#     Edge 3, Type (0, 0), None
#     Edge 4, Type (0, 0), None
#     Edge 5, Type (0, 0), None
#     Edge 6, Type (0, 0), None
#     Edge 7, Type (0, 0), None
#     Edge 8, Type (0, 0), None
#     Edge 9, Type (0, 0), None
#     Edge 10, Type (0, 0), None
#     Edge 11, Type (0, 0), None
# Relax obj value: 0.115
# Max RMSD: 0.158
# Mean RMSD: 0.150
data_MOF--net-sxc--node1-CIFDUS_clean_sbu_1--edge1-none
_symmetry_space_group_name_H-M    P1
_symmetry_Int_Tables_number       1
_symmetry_cell_setting            triclinic
loop_
_symmetry_equiv_pos_as_xyz
'x, y, z'
_cell_length_a     7.4381272
_cell_length_b     7.5242267
_cell_length_c     20.682373
_cell_angle_alpha  100.7906
_cell_angle_beta   89.998149
_cell_angle_gamma 119.62112
loop_
_atom_site_label
_atom_site_type_symbol
_atom_site_fract_x
_atom_site_fract_y
_atom_site_fract_z
_atom_type_partial_charge
O0 O 0.3619 0.31683 0.02722 0.0
Mn1 Mn 0.06341 0.07628 0.04027 0.0
O2 O 0.46839 0.58092 0.11843 0.0
Mn3 Mn 0.23161 0.46956 0.16047 0.0
O4 O 0.76535 0.84841 0.05625 0.0
O5 O 0.00418 0.95618 0.94168 0.0
Mn6 Mn 0.83835 0.683 0.92007 0.0
O7 O 0.12135 0.83572 0.05331 0.0
O8 O 0.60075 0.62534 0.95934 0.0
O9 O -0.00679 0.30414 1.02428 0.0
O10 O 0.05167 0.52722 0.12119 0.0
O11 O 0.91809 0.77053 0.84186 0.0
O12 O 0.96376 0.57163 0.96211 0.0
C13 C 0.1538 0.19981 0.20076 0.0
C14 C 0.47462 0.5127 0.05772 0.0
C15 C 0.61958 0.67128 1.02223 0.0
C16 C 0.03029 0.95274 0.87978 0.0
C17 C 0.0382 0.63986 1.02282 0.0
C18 C 0.02457 0.48127 0.05831 0.0
O19 O 0.12425 0.19637 0.13886 0.0
O20 O 0.2238 0.38203 0.23867 0.0
O21 O 0.23919 0.42265 0.36843 0.0
Mn22 Mn 0.19961 0.13894 0.38545 0.0
O23 O 0.2764 0.63212 0.46688 0.0
Mn24 Mn 0.11769 0.41267 0.50613 0.0
O25 O 0.16557 0.85993 0.4051 0.0
O26 O 0.18357 0.03437 0.28707 0.0
Mn27 Mn 0.28419 0.86526 0.26625 0.0
O28 O 0.51198 0.21944 0.39489 0.0
O29 O 0.13218 0.65097 0.30796 0.0
O30 O 0.88785 0.05887 0.37583 0.0
O31 O 0.85698 0.28378 0.45903 0.0
O32 O 0.21614 0.91415 0.18751 0.0
O33 O 0.5512 0.00726 0.30914 0.0
C34 C 0.17709 0.18677 0.53839 0.0
C35 C 0.24226 0.5854 0.40377 0.0
C36 C 0.16853 0.70011 0.37071 0.0
C37 C 0.16642 0.03638 0.22517 0.0
C38 C 0.60903 0.12741 0.36667 0.0
C39 C 0.79611 0.15861 0.4024 0.0
O40 O 0.21814 0.24353 0.48281 0.0
O41 O 0.13932 0.31266 0.57991 0.0
O42 O 0.3689 0.93309 0.68565 0.0
Mn43 Mn 0.13703 0.01359 0.69509 0.0
O44 O 0.62028 0.14526 0.77141 0.0
Mn45 Mn 0.49525 0.28727 0.81429 0.0
O46 O 0.90534 0.09367 0.70471 0.0
O47 O 0.051 0.90898 0.59774 0.0
Mn48 Mn 0.78143 0.73992 0.57441 0.0
O49 O 0.89289 0.72987 0.7121 0.0
O50 O 0.64958 0.86877 0.62152 0.0
O51 O 0.38199 0.2926 0.67544 0.0
O52 O 0.55756 0.50156 0.77257 0.0
O53 O 0.90285 0.83992 0.5006 0.0
O54 O 0.7206 0.52042 0.61365 0.0
C55 C 0.20635 0.11617 0.85537 0.0
C56 C 0.55797 0.02512 0.71388 0.0
C57 C 0.71386 0.99393 0.67814 0.0
C58 C 0.06642 0.96573 0.54216 0.0
C59 C 0.73321 0.56713 0.67676 0.0
C60 C 0.54477 0.45241 0.70982 0.0
O61 O 0.22554 0.11817 0.79347 0.0
O62 O 0.3783 0.2384 0.89303 0.0
loop_
_geom_bond_atom_site_label_1
_geom_bond_atom_site_label_2
_geom_bond_distance
_geom_bond_site_symmetry_2
_ccdc_geom_bond_type
O0 Mn1 2.163 1_556 S
O0 C14 1.244 1_556 S
Mn1 O0 2.163 1_554 S
Mn1 O4 2.160 1_445 S
Mn1 O5 2.221 1_444 S
Mn1 O7 2.163 1_545 S
Mn1 O9 2.160 1_455 S
Mn1 O19 2.221 . S
O2 Mn3 2.087 . S
O2 C14 1.256 . S
Mn3 O2 2.087 . S
Mn3 O10 2.089 . S
Mn3 O19 2.290 . S
Mn3 O20 2.251 . S
O4 Mn1 2.160 1_665 S
O4 C15 1.239 1_554 S
O5 Mn1 2.221 1_666 S
O5 Mn6 2.290 . S
O5 C16 1.278 1_655 S
Mn6 O5 2.290 . S
Mn6 O8 2.089 . S
Mn6 O11 2.251 1_655 S
Mn6 O12 2.087 1_655 S
O7 Mn1 2.163 1_565 S
O7 C17 1.243 1_554 S
O8 Mn6 2.089 . S
O8 C15 1.256 . S
O9 Mn1 2.160 1_655 S
O9 C18 1.239 . S
O10 Mn3 2.089 . S
O10 C18 1.256 1_455 S
O11 Mn6 2.251 1_455 S
O11 C16 1.241 . S
O12 Mn6 2.087 1_455 S
O12 C17 1.258 . S
C13 O19 1.278 . S
C13 O20 1.241 . S
C14 O0 1.244 1_554 S
C14 O2 1.256 . S
C15 O4 1.239 1_556 S
C15 O8 1.256 . S
C16 O5 1.278 1_455 S
C16 O11 1.241 . S
C17 O7 1.243 1_556 S
C17 O12 1.258 . S
C18 O9 1.239 . S
C18 O10 1.256 1_655 S
O19 Mn1 2.221 . S
O19 Mn3 2.290 . S
O19 C13 1.278 . S
O20 Mn3 2.251 . S
O20 C13 1.241 . S
O21 Mn22 2.163 . S
O21 C35 1.244 . S
Mn22 O21 2.163 . S
Mn22 O25 2.160 1_545 S
Mn22 O26 2.221 1_545 S
Mn22 O28 2.163 . S
Mn22 O30 2.160 1_445 S
Mn22 O40 2.221 . S
O23 Mn24 2.087 1_455 S
O23 C35 1.256 . S
Mn24 O23 2.087 1_655 S
Mn24 O31 2.089 . S
Mn24 O40 2.290 1_655 S
Mn24 O41 2.251 1_655 S
O25 Mn22 2.160 1_565 S
O25 C36 1.239 . S
O26 Mn22 2.221 1_565 S
O26 Mn27 2.290 . S
O26 C37 1.278 1_565 S
Mn27 O26 2.290 . S
Mn27 O29 2.089 . S
Mn27 O32 2.251 1_565 S
Mn27 O33 2.087 1_565 S
O28 Mn22 2.163 . S
O28 C38 1.244 . S
O29 Mn27 2.089 . S
O29 C36 1.256 . S
O30 Mn22 2.160 1_665 S
O30 C39 1.239 . S
O31 Mn24 2.089 . S
O31 C39 1.256 1_545 S
O32 Mn27 2.251 1_545 S
O32 C37 1.241 . S
O33 Mn27 2.087 1_545 S
O33 C38 1.256 . S
C34 O40 1.278 . S
C34 O41 1.241 . S
C35 O21 1.244 . S
C35 O23 1.256 . S
C36 O25 1.239 . S
C36 O29 1.256 . S
C37 O26 1.278 1_545 S
C37 O32 1.241 . S
C38 O28 1.244 . S
C38 O33 1.256 . S
C39 O30 1.239 . S
C39 O31 1.256 1_565 S
O40 Mn22 2.221 . S
O40 Mn24 2.290 1_455 S
O40 C34 1.278 . S
O41 Mn24 2.251 1_455 S
O41 C34 1.241 . S
O42 Mn43 2.163 . S
O42 C56 1.244 . S
Mn43 O42 2.163 . S
Mn43 O46 2.160 1_455 S
Mn43 O47 2.221 . S
Mn43 O49 2.163 1_445 S
Mn43 O51 2.160 . S
Mn43 O61 2.221 . S
O44 Mn45 2.087 . S
O44 C56 1.256 . S
Mn45 O44 2.087 . S
Mn45 O52 2.089 . S
Mn45 O61 2.290 . S
Mn45 O62 2.251 . S
O46 Mn43 2.160 1_655 S
O46 C57 1.239 . S
O47 Mn43 2.221 . S
O47 Mn48 2.290 1_445 S
O47 C58 1.278 1_545 S
Mn48 O47 2.290 1_665 S
Mn48 O50 2.089 1_565 S
Mn48 O53 2.251 . S
Mn48 O54 2.087 . S
O49 Mn43 2.163 1_665 S
O49 C59 1.244 . S
O50 Mn48 2.089 1_545 S
O50 C57 1.256 . S
O51 Mn43 2.160 . S
O51 C60 1.239 . S
O52 Mn45 2.089 . S
O52 C60 1.256 . S
O53 Mn48 2.251 . S
O53 C58 1.241 1_655 S
O54 Mn48 2.087 . S
O54 C59 1.256 . S
C55 O61 1.278 . S
C55 O62 1.241 . S
C56 O42 1.244 . S
C56 O44 1.256 . S
C57 O46 1.239 . S
C57 O50 1.256 . S
C58 O47 1.278 1_565 S
C58 O53 1.241 1_455 S
C59 O49 1.244 . S
C59 O54 1.256 . S
C60 O51 1.239 . S
C60 O52 1.256 . S
O61 Mn43 2.221 . S
O61 Mn45 2.290 . S
O61 C55 1.278 . S
O62 Mn45 2.251 . S
O62 C55 1.241 . S
C18 C17 1.429 1_654 S
C38 C39 1.278 1_545 S
C59 C60 1.473 . S
C57 C56 1.278 . S
C15 C14 1.430 1_556 S
C35 C36 1.473 . S
C37 C13 1.369 . S
C34 C58 1.283 1_545 S
C55 C16 1.369 1_545 S
