# Generated by pormake.
# Topology bsn, (6)-cn, num edge types: 1
# Building blocks:
#     Node 0, Type 0, BuildingBlock: JUFBIX_clean_sbu_0, # of connection points: 6
#     Node 1, Type 0, BuildingBlock: JUFBIX_clean_sbu_0, # of connection points: 6
#     Node 2, Type 0, BuildingBlock: JUFBIX_clean_sbu_0, # of connection points: 6
#     Node 3, Type 0, BuildingBlock: JUFBIX_clean_sbu_0, # of connection points: 6
#     Edge 4, Type (0, 0), None
#     Edge 5, Type (0, 0), None
#     Edge 6, Type (0, 0), None
#     Edge 7, Type (0, 0), None
#     Edge 8, Type (0, 0), None
#     Edge 9, Type (0, 0), None
#     Edge 10, Type (0, 0), None
#     Edge 11, Type (0, 0), None
#     Edge 12, Type (0, 0), None
#     Edge 13, Type (0, 0), None
#     Edge 14, Type (0, 0), None
#     Edge 15, Type (0, 0), None
# Relax obj value: 0.051
# Max RMSD: 0.150
# Mean RMSD: 0.150
data_MOF--net-bsn--node1-JUFBIX_clean_sbu_0--edge1-none
_symmetry_space_group_name_H-M    P1
_symmetry_Int_Tables_number       1
_symmetry_cell_setting            triclinic
loop_
_symmetry_equiv_pos_as_xyz
'x, y, z'
_cell_length_a     13.038827
_cell_length_b     22.101393
_cell_length_c     6.3574096
_cell_angle_alpha  89.870183
_cell_angle_beta   89.846644
_cell_angle_gamma 95.049201
loop_
_atom_site_label
_atom_site_type_symbol
_atom_site_fract_x
_atom_site_fract_y
_atom_site_fract_z
_atom_type_partial_charge
Co0 Co 1.012 0.26217 0.25716 0.0
C1 C 0.01958 0.31269 0.65389 0.0
Co2 Co 0.0273 0.36325 0.25633 0.0
C3 C 0.04314 0.14466 0.42028 0.0
C4 C 0.93939 0.13697 0.15889 0.0
N5 N 1.00075 0.17771 0.26933 0.0
N6 N 1.00902 0.08547 0.41136 0.0
C7 C 0.94429 0.07994 0.24616 0.0
H8 H 0.09462 0.16417 0.54006 0.0
H9 H 0.89064 0.14839 0.02988 0.0
C10 C 0.01973 0.31274 0.86069 0.0
N11 N 0.03848 0.44782 0.26804 0.0
C12 C 0.9958 0.48067 0.41924 0.0
C13 C 0.10041 0.48869 0.15807 0.0
N14 N 0.03032 0.53985 0.411 0.0
C15 C 0.09558 0.54557 0.24588 0.0
C16 C 0.21384 0.31281 0.24471 0.0
O17 O 1.0128 0.26247 0.95997 0.0
O18 O 0.02679 0.36304 0.959 0.0
O19 O 0.17291 0.36293 0.25142 0.0
O20 O 0.15748 0.26297 0.25444 0.0
O21 O 0.02829 0.36225 0.554 0.0
H22 H 0.14961 0.47744 0.02923 0.0
H23 H 0.94395 0.461 0.53897 0.0
O24 O 1.01074 0.26309 0.55499 0.0
O25 O 0.86653 0.26241 0.25288 0.0
O26 O 0.8817 0.36237 0.25423 0.0
C27 C 0.82549 0.31247 0.24509 0.0
H28 H 0.90106 1.03846 0.19628 0.0
H29 H 0.1393 0.58706 0.19655 0.0
Co30 Co 1.01206 0.76193 0.71175 0.0
C31 C 0.01963 0.81244 0.1074 0.0
Co32 Co 0.02736 0.86301 0.71092 0.0
C33 C 0.04348 0.64451 0.54873 0.0
C34 C 0.93897 0.63648 0.81006 0.0
N35 N 1.00087 0.67736 0.70003 0.0
N36 N 1.0089 0.58534 0.5569 0.0
C37 C 0.94373 0.57961 0.72216 0.0
H38 H 0.09531 0.66419 0.42897 0.0
H39 H 0.88982 0.64773 0.939 0.0
C40 C 0.01978 0.81249 0.31419 0.0
N41 N 0.03863 0.94748 0.69874 0.0
C42 C 0.9963 0.98052 0.54769 0.0
C43 C 0.09995 0.98821 0.80924 0.0
N44 N 0.03047 1.0397 0.55654 0.0
C45 C 0.09511 1.04524 0.72188 0.0
C46 C 0.21386 0.8127 0.723 0.0
O47 O 1.01107 0.76293 0.41409 0.0
O48 O 0.02863 0.86209 0.41309 0.0
O49 O 0.17283 0.86276 0.71521 0.0
O50 O 0.15766 0.7628 0.71385 0.0
O51 O 0.02655 0.86271 0.00811 0.0
H52 H 0.14864 0.9768 0.93835 0.0
H53 H 0.94485 0.96101 0.42787 0.0
O54 O 1.01257 0.76214 0.00909 0.0
O55 O 0.86645 0.76225 0.71668 0.0
O56 O 0.88188 0.86222 0.71364 0.0
C57 C 0.82552 0.81238 0.72338 0.0
H58 H 0.90003 0.53811 0.77154 0.0
H59 H 0.13832 0.08672 0.77181 0.0
Co60 Co 0.51199 0.76217 0.75716 0.0
C61 C 0.51957 0.81269 0.15389 0.0
Co62 Co 0.52729 0.86325 0.75633 0.0
C63 C 0.54314 0.64466 0.92027 0.0
C64 C 0.43938 0.63697 0.65889 0.0
N65 N 0.50074 0.6777 0.76933 0.0
N66 N 0.50902 0.58547 0.91136 0.0
C67 C 0.44428 0.57994 0.74617 0.0
H68 H 0.59462 0.66417 0.04006 0.0
H69 H 0.39063 0.64839 0.5299 0.0
C70 C 0.51973 0.81274 0.36069 0.0
N71 N 0.53847 0.94782 0.76804 0.0
C72 C 0.4958 0.98067 0.91924 0.0
C73 C 0.6004 0.98869 0.65806 0.0
N74 N 0.53032 1.03985 0.911 0.0
C75 C 0.59558 1.04557 0.74588 0.0
C76 C 0.71383 0.81281 0.74471 0.0
O77 O 0.5128 0.76247 0.45997 0.0
O78 O 0.52678 0.86304 0.459 0.0
O79 O 0.6729 0.86293 0.75142 0.0
O80 O 0.65747 0.76296 0.75444 0.0
O81 O 0.52828 0.86225 0.054 0.0
H82 H 0.6496 0.97744 0.52922 0.0
H83 H 0.44395 0.961 0.03898 0.0
O84 O 0.51073 0.76309 0.05499 0.0
O85 O 0.36652 0.76241 0.75288 0.0
O86 O 0.38169 0.86237 0.75423 0.0
C87 C 0.32549 0.81247 0.74509 0.0
H88 H 0.40105 0.53846 0.69629 0.0
H89 H 0.6393 0.08706 0.69653 0.0
Co90 Co 0.51206 0.26193 0.21175 0.0
C91 C 0.51963 0.31244 0.6074 0.0
Co92 Co 0.52737 0.36301 0.21092 0.0
C93 C 0.54348 0.14451 0.04873 0.0
C94 C 0.43898 0.13648 0.31007 0.0
N95 N 0.50087 0.17736 0.20003 0.0
N96 N 0.5089 0.08534 0.0569 0.0
C97 C 0.44374 0.07961 0.22217 0.0
H98 H 0.59531 0.16419 0.92896 0.0
H99 H 0.38984 0.14773 0.43901 0.0
C100 C 0.51979 0.31249 0.81419 0.0
N101 N 0.53863 0.44748 0.19874 0.0
C102 C 0.4963 0.48052 0.0477 0.0
C103 C 0.59996 0.48821 0.30923 0.0
N104 N 0.53047 0.5397 0.05654 0.0
C105 C 0.59512 0.54524 0.22187 0.0
C106 C 0.71387 0.31271 0.223 0.0
O107 O 0.51107 0.26293 0.91409 0.0
O108 O 0.52863 0.36209 0.91309 0.0
O109 O 0.67284 0.36276 0.21521 0.0
O110 O 0.65766 0.2628 0.21385 0.0
O111 O 0.52656 0.36271 0.50811 0.0
H112 H 0.64866 0.4768 0.43833 0.0
H113 H 0.44485 0.46101 0.92788 0.0
O114 O 0.51258 0.26214 0.50909 0.0
O115 O 0.36646 0.26226 0.21668 0.0
O116 O 0.38189 0.36222 0.21364 0.0
C117 C 0.32553 0.31238 0.22338 0.0
H118 H 0.40004 1.03811 0.27156 0.0
H119 H 0.63833 0.58672 0.27179 0.0
loop_
_geom_bond_atom_site_label_1
_geom_bond_atom_site_label_2
_geom_bond_distance
_geom_bond_site_symmetry_2
_ccdc_geom_bond_type
Co0 N5 2.057 . S
Co0 O17 2.021 . S
Co0 O20 2.062 1_655 S
Co0 O24 2.116 1_655 S
Co0 O25 2.020 . S
C1 O21 1.259 . S
C1 O24 1.258 . S
Co2 N11 2.057 . S
Co2 O18 2.117 . S
Co2 O19 2.020 . S
Co2 O21 2.021 . S
Co2 O26 2.062 1_455 S
C3 N5 1.316 . S
C3 N6 1.347 . S
C3 H8 0.931 . S
C4 N5 1.375 . S
C4 C7 1.350 . S
C4 H9 0.930 . S
N5 Co0 2.057 . S
N5 C3 1.316 . S
N5 C4 1.375 . S
N6 C3 1.347 . S
N6 C7 1.373 . S
C7 C4 1.350 . S
C7 N6 1.373 . S
C7 H28 0.931 . S
H8 C3 0.931 . S
H9 C4 0.930 . S
C10 O17 1.259 1_456 S
C10 O18 1.258 1_556 S
N11 Co2 2.057 . S
N11 C12 1.316 . S
N11 C13 1.375 . S
C12 N11 1.316 . S
C12 N14 1.347 . S
C12 H23 0.931 . S
C13 N11 1.375 . S
C13 C15 1.350 . S
C13 H22 0.930 1_554 S
N14 C12 1.347 . S
N14 C15 1.373 . S
C15 C13 1.350 . S
C15 N14 1.373 . S
C15 H29 0.931 . S
C16 O19 1.256 . S
C16 O20 1.255 . S
O17 Co0 2.021 . S
O17 C10 1.259 1_654 S
O18 Co2 2.117 . S
O18 C10 1.258 1_554 S
O19 Co2 2.020 . S
O19 C16 1.256 . S
O20 Co0 2.062 1_455 S
O20 C16 1.255 . S
O21 C1 1.259 . S
O21 Co2 2.021 . S
H22 C13 0.930 1_556 S
H23 C12 0.931 . S
O24 Co0 2.116 1_455 S
O24 C1 1.258 . S
O25 Co0 2.020 . S
O25 C27 1.256 . S
O26 Co2 2.062 1_655 S
O26 C27 1.255 . S
C27 O25 1.256 . S
C27 O26 1.255 . S
H28 C7 0.931 . S
H29 C15 0.931 . S
Co30 N35 2.057 . S
Co30 O47 2.021 . S
Co30 O50 2.062 1_655 S
Co30 O54 2.117 . S
Co30 O55 2.020 . S
C31 O51 1.259 1_554 S
C31 O54 1.258 1_454 S
Co32 N41 2.057 . S
Co32 O48 2.117 . S
Co32 O49 2.020 . S
Co32 O51 2.021 . S
Co32 O56 2.062 1_455 S
C33 N35 1.316 . S
C33 N36 1.347 . S
C33 H38 0.931 . S
C34 N35 1.375 . S
C34 C37 1.350 . S
C34 H39 0.930 1_556 S
N35 Co30 2.057 . S
N35 C33 1.316 . S
N35 C34 1.375 . S
N36 C33 1.347 . S
N36 C37 1.373 . S
C37 C34 1.350 . S
C37 N36 1.373 . S
C37 H58 0.931 . S
H38 C33 0.931 . S
H39 C34 0.930 1_554 S
C40 O47 1.259 . S
C40 O48 1.258 1_655 S
N41 Co32 2.057 . S
N41 C42 1.316 . S
N41 C43 1.375 . S
C42 N41 1.316 . S
C42 N44 1.347 . S
C42 H53 0.931 . S
C43 N41 1.375 . S
C43 C45 1.350 . S
C43 H52 0.930 . S
N44 C42 1.347 . S
N44 C45 1.373 . S
C45 C43 1.350 . S
C45 N44 1.373 . S
C45 H59 0.931 . S
C46 O49 1.256 . S
C46 O50 1.255 . S
O47 Co30 2.021 . S
O47 C40 1.259 . S
O48 Co32 2.117 . S
O48 C40 1.258 1_455 S
O49 Co32 2.020 . S
O49 C46 1.256 . S
O50 Co30 2.062 1_455 S
O50 C46 1.255 . S
O51 C31 1.259 1_556 S
O51 Co32 2.021 . S
H52 C43 0.930 . S
H53 C42 0.931 . S
O54 Co30 2.117 . S
O54 C31 1.258 1_656 S
O55 Co30 2.020 . S
O55 C57 1.256 . S
O56 Co32 2.062 1_655 S
O56 C57 1.255 . S
C57 O55 1.256 . S
C57 O56 1.255 . S
H58 C37 0.931 . S
H59 C45 0.931 . S
Co60 N65 2.057 . S
Co60 O77 2.021 . S
Co60 O80 2.062 . S
Co60 O84 2.117 1_556 S
Co60 O85 2.020 . S
C61 O81 1.259 . S
C61 O84 1.258 . S
Co62 N71 2.057 . S
Co62 O78 2.117 . S
Co62 O79 2.020 . S
Co62 O81 2.021 1_556 S
Co62 O86 2.062 . S
C63 N65 1.316 . S
C63 N66 1.347 . S
C63 H68 0.931 . S
C64 N65 1.375 1_554 S
C64 C67 1.350 . S
C64 H69 0.930 . S
N65 Co60 2.057 . S
N65 C63 1.316 . S
N65 C64 1.375 1_556 S
N66 C63 1.347 . S
N66 C67 1.373 1_556 S
C67 C64 1.350 . S
C67 N66 1.373 1_554 S
C67 H88 0.931 . S
H68 C63 0.931 . S
H69 C64 0.930 . S
C70 O77 1.259 . S
C70 O78 1.258 . S
N71 Co62 2.057 . S
N71 C72 1.316 . S
N71 C73 1.375 . S
C72 N71 1.316 . S
C72 N74 1.347 . S
C72 H83 0.931 1_556 S
C73 N71 1.375 . S
C73 C75 1.350 . S
C73 H82 0.930 . S
N74 C72 1.347 . S
N74 C75 1.373 . S
C75 C73 1.350 . S
C75 N74 1.373 . S
C75 H89 0.931 . S
C76 O79 1.256 . S
C76 O80 1.255 . S
O77 Co60 2.021 . S
O77 C70 1.259 . S
O78 Co62 2.117 . S
O78 C70 1.258 . S
O79 Co62 2.020 . S
O79 C76 1.256 . S
O80 Co60 2.062 . S
O80 C76 1.255 . S
O81 C61 1.259 . S
O81 Co62 2.021 1_554 S
H82 C73 0.930 . S
H83 C72 0.931 1_554 S
O84 Co60 2.117 1_554 S
O84 C61 1.258 . S
O85 Co60 2.020 . S
O85 C87 1.256 . S
O86 Co62 2.062 . S
O86 C87 1.255 . S
C87 O85 1.256 . S
C87 O86 1.255 . S
H88 C67 0.931 . S
H89 C75 0.931 . S
Co90 N95 2.057 . S
Co90 O107 2.021 1_554 S
Co90 O110 2.062 . S
Co90 O114 2.117 . S
Co90 O115 2.020 . S
C91 O111 1.259 . S
C91 O114 1.258 . S
Co92 N101 2.057 . S
Co92 O108 2.117 1_554 S
Co92 O109 2.020 . S
Co92 O111 2.021 . S
Co92 O116 2.062 . S
C93 N95 1.316 . S
C93 N96 1.347 . S
C93 H98 0.931 1_554 S
C94 N95 1.375 . S
C94 C97 1.350 . S
C94 H99 0.930 . S
N95 Co90 2.057 . S
N95 C93 1.316 . S
N95 C94 1.375 . S
N96 C93 1.347 . S
N96 C97 1.373 . S
C97 C94 1.350 . S
C97 N96 1.373 . S
C97 H118 0.931 . S
H98 C93 0.931 1_556 S
H99 C94 0.930 . S
C100 O107 1.259 . S
C100 O108 1.258 . S
N101 Co92 2.057 . S
N101 C102 1.316 . S
N101 C103 1.375 1_554 S
C102 N101 1.316 . S
C102 N104 1.347 . S
C102 H113 0.931 . S
C103 N101 1.375 1_556 S
C103 C105 1.350 . S
C103 H112 0.930 . S
N104 C102 1.347 . S
N104 C105 1.373 1_554 S
C105 C103 1.350 . S
C105 N104 1.373 1_556 S
C105 H119 0.931 . S
C106 O109 1.256 . S
C106 O110 1.255 . S
O107 Co90 2.021 1_556 S
O107 C100 1.259 . S
O108 Co92 2.117 1_556 S
O108 C100 1.258 . S
O109 Co92 2.020 . S
O109 C106 1.256 . S
O110 Co90 2.062 . S
O110 C106 1.255 . S
O111 C91 1.259 . S
O111 Co92 2.021 . S
H112 C103 0.930 . S
H113 C102 0.931 . S
O114 Co90 2.117 . S
O114 C91 1.258 . S
O115 Co90 2.020 . S
O115 C117 1.256 . S
O116 Co92 2.062 . S
O116 C117 1.255 . S
C117 O115 1.256 . S
C117 O116 1.255 . S
H118 C97 0.931 . S
H119 C105 0.931 . S
N14 N36 2.514 1_455 S
C76 C57 2.115 . S
N104 N66 1.658 1_554 S
C27 C106 2.105 . S
C117 C16 2.115 . S
C87 C46 2.105 . S
N74 N96 2.514 1_566 S
N44 N6 1.658 1_465 S
C10 C1 0.983 . S
C31 C40 0.982 1_455 S
C61 C70 0.982 . S
C91 C100 0.982 . S
