# Generated by pormake.
# Topology lon, (4)-cn, num edge types: 1
# Building blocks:
#     Node 0, Type 0, BuildingBlock: AZAVOO_clean_sbu_0, # of connection points: 4
#     Node 1, Type 0, BuildingBlock: AZAVOO_clean_sbu_0, # of connection points: 4
#     Node 2, Type 0, BuildingBlock: AZAVOO_clean_sbu_0, # of connection points: 4
#     Node 3, Type 0, BuildingBlock: AZAVOO_clean_sbu_0, # of connection points: 4
#     Edge 4, Type (0, 0), BuildingBlock: FUNLAD_clean_linker_0, # of connection points: 2
#     Edge 5, Type (0, 0), BuildingBlock: FUNLAD_clean_linker_0, # of connection points: 2
#     Edge 6, Type (0, 0), BuildingBlock: FUNLAD_clean_linker_0, # of connection points: 2
#     Edge 7, Type (0, 0), BuildingBlock: FUNLAD_clean_linker_0, # of connection points: 2
#     Edge 8, Type (0, 0), BuildingBlock: FUNLAD_clean_linker_0, # of connection points: 2
#     Edge 9, Type (0, 0), BuildingBlock: FUNLAD_clean_linker_0, # of connection points: 2
#     Edge 10, Type (0, 0), BuildingBlock: FUNLAD_clean_linker_0, # of connection points: 2
#     Edge 11, Type (0, 0), BuildingBlock: FUNLAD_clean_linker_0, # of connection points: 2
# Relax obj value: 0.019
# Max RMSD: 0.070
# Mean RMSD: 0.063
data_MOF--net-lon--node1-AZAVOO_clean_sbu_0--edge1-FUNLAD_clean_linker_0
_symmetry_space_group_name_H-M    P1
_symmetry_Int_Tables_number       1
_symmetry_cell_setting            triclinic
loop_
_symmetry_equiv_pos_as_xyz
'x, y, z'
_cell_length_a     28.089755
_cell_length_b     27.684031
_cell_length_c     50.610484
_cell_angle_alpha  95.117793
_cell_angle_beta   89.901887
_cell_angle_gamma 120.89356
loop_
_atom_site_label
_atom_site_type_symbol
_atom_site_fract_x
_atom_site_fract_y
_atom_site_fract_z
_atom_type_partial_charge
Mg0 Mg 0.46064 0.68837 0.0545 0.0
O1 O 0.37012 0.65125 0.03867 0.0
O2 O 0.33904 0.70278 0.06036 0.0
Mg3 Mg 0.40593 0.76863 0.09094 0.0
C4 C 0.33198 0.66278 0.04309 0.0
C5 C 0.52688 0.64879 0.02087 0.0
O6 O 0.56295 0.68552 0.03954 0.0
O7 O 0.48982 0.76608 0.03172 0.0
O8 O 0.4611 0.81514 0.05757 0.0
O9 O 0.43225 0.63108 0.08721 0.0
O10 O 0.44346 0.71625 0.09069 0.0
C11 C 0.48738 0.81059 0.0378 0.0
C12 C 0.42899 0.67055 0.10134 0.0
O13 O 0.47776 0.64006 0.02043 0.0
Mg14 Mg 0.64274 0.37318 0.55187 0.0
O15 O 0.59198 0.27816 0.53613 0.0
O16 O 0.51781 0.2394 0.56092 0.0
Mg17 Mg 0.52256 0.30566 0.59285 0.0
C18 C 0.54602 0.23558 0.54189 0.0
C19 C 0.7351 0.44731 0.51806 0.0
O20 O 0.73466 0.48147 0.5377 0.0
O21 O 0.57845 0.38742 0.53215 0.0
O22 O 0.50869 0.34937 0.55961 0.0
O23 O 0.6913 0.35848 0.58145 0.0
O24 O 0.6127 0.35557 0.58951 0.0
C25 C 0.53029 0.37574 0.53929 0.0
C26 C 0.65306 0.35052 0.59783 0.0
O27 O 0.6973 0.39528 0.51633 0.0
Mg28 Mg 0.2815 0.64951 0.3833 0.0
O29 O 0.33232 0.74452 0.39843 0.0
O30 O 0.30075 0.7877 0.37481 0.0
Mg31 Mg 0.23426 0.72275 0.34384 0.0
C32 C 0.33283 0.78907 0.39309 0.0
C33 C 0.302 0.57563 0.41592 0.0
O34 O 0.26932 0.54167 0.39561 0.0
O35 O 0.20567 0.64022 0.40432 0.0
O36 O 0.17648 0.68119 0.37767 0.0
O37 O 0.34194 0.65981 0.3527 0.0
O38 O 0.26863 0.66753 0.34584 0.0
C39 C 0.17077 0.65427 0.39784 0.0
C40 C 0.31246 0.66956 0.33681 0.0
O41 O 0.31389 0.62678 0.41838 0.0
Mg42 Mg 0.782 0.32248 0.87848 0.0
O43 O 0.73509 0.36535 0.8958 0.0
O44 O 0.65045 0.31948 0.87551 0.0
Mg45 Mg 0.64368 0.25015 0.84469 0.0
C46 C 0.68664 0.35815 0.89239 0.0
C47 C 0.88529 0.35137 0.91221 0.0
O48 O 0.87734 0.30857 0.89539 0.0
O49 O 0.73047 0.24619 0.90169 0.0
O50 O 0.6497 0.20163 0.87774 0.0
O51 O 0.81261 0.37909 0.84562 0.0
O52 O 0.73429 0.29664 0.84312 0.0
C53 C 0.6811 0.20402 0.89669 0.0
C54 C 0.7676 0.34135 0.8321 0.0
O55 O 0.85063 0.36788 0.91147 0.0
C56 C 0.41081 0.70991 0.14389 0.0
C57 C 0.41045 0.6645 0.12886 0.0
C58 C 0.39746 0.70662 0.17046 0.0
C59 C 0.38333 0.65766 0.18272 0.0
C60 C 0.38271 0.6121 0.16771 0.0
C61 C 0.39584 0.61531 0.14098 0.0
C62 C 0.37267 0.65448 0.21145 0.0
C63 C 0.35422 0.68509 0.22522 0.0
C64 C 0.3458 0.6834 0.25412 0.0
C65 C 0.30445 0.6924 0.26469 0.0
C66 C 0.29452 0.68955 0.29174 0.0
C67 C 0.32654 0.6787 0.30884 0.0
H68 H 0.4126 0.66925 0.26403 0.0
C69 C 0.36955 0.67215 0.29844 0.0
C70 C 0.37907 0.6744 0.27136 0.0
H71 H 0.39514 0.66396 0.3111 0.0
H72 H 0.42303 0.74894 0.13543 0.0
H73 H 0.40035 0.74341 0.1815 0.0
H74 H 0.3725 0.5741 0.17675 0.0
H75 H 0.39564 0.57978 0.13001 0.0
H76 H 0.37902 0.62486 0.22138 0.0
H77 H 0.34231 0.71032 0.21488 0.0
H78 H 0.27878 0.70021 0.25187 0.0
H79 H 0.26104 0.69473 0.29908 0.0
C80 C 0.70625 0.34361 0.63539 0.0
C81 C 0.65751 0.33969 0.62553 0.0
C82 C 0.7133 0.33986 0.66229 0.0
C83 C 0.6716 0.33193 0.67986 0.0
C84 C 0.62193 0.32544 0.66979 0.0
C85 C 0.61512 0.32982 0.64294 0.0
C86 C 0.67829 0.32922 0.70864 0.0
C87 C 0.72793 0.35832 0.72221 0.0
C88 C 0.73526 0.35501 0.75092 0.0
C89 C 0.78204 0.39948 0.76562 0.0
C90 C 0.79182 0.39612 0.79231 0.0
C91 C 0.75518 0.3479 0.80473 0.0
H92 H 0.66281 0.27106 0.75271 0.0
C93 C 0.70816 0.30367 0.79006 0.0
C94 C 0.69833 0.30706 0.76349 0.0
H95 H 0.67963 0.26541 0.7988 0.0
H96 H 0.73962 0.35099 0.62246 0.0
H97 H 0.75137 0.34311 0.66923 0.0
H98 H 0.5889 0.31853 0.68287 0.0
H99 H 0.5771 0.32666 0.63604 0.0
H100 H 0.64071 0.30495 0.7191 0.0
H101 H 0.76456 0.38707 0.71216 0.0
H102 H 0.8114 0.4367 0.75636 0.0
H103 H 0.82866 0.43073 0.80301 0.0
C104 C 0.59745 0.62667 0.00292 0.0
C105 C 0.54279 0.61595 0.00196 0.0
C106 C 0.61237 0.59407 -0.01376 0.0
C107 C 0.57277 0.54945 -0.03173 0.0
C108 C 0.51858 0.53992 0.96674 0.0
C109 C 0.50363 0.57262 -0.01655 0.0
C110 C 0.58649 0.51262 0.95061 0.0
C111 C 0.62891 0.50459 0.956 0.0
C112 C 0.6426 0.467 0.9389 0.0
C113 C 0.69541 0.47377 0.94242 0.0
C114 C 0.70989 0.43879 0.92732 0.0
C115 C 0.67169 0.39573 0.9084 0.0
H116 H 0.5625 0.41553 0.91714 0.0
C117 C 0.61866 0.38865 0.90498 0.0
C118 C 0.6042 0.42366 0.92006 0.0
H119 H 0.58795 0.35572 0.89075 0.0
H120 H 0.62891 0.66019 0.0167 0.0
H121 H 0.65511 0.60454 -0.01257 0.0
H122 H 0.48734 0.50635 0.95288 0.0
H123 H 0.46123 0.56338 -0.01791 0.0
H124 H 0.55959 0.49062 0.93292 0.0
H125 H 0.65535 0.5264 -0.02615 0.0
H126 H 0.72577 0.50643 0.9569 0.0
H127 H 0.75107 0.44548 0.93059 0.0
C128 C 0.10264 0.59329 0.42997 0.0
C129 C 0.12053 0.63679 0.41325 0.0
C130 C 0.05285 0.57414 0.44286 0.0
C131 C 1.02016 0.59844 0.4394 0.0
C132 C 0.03907 0.64316 0.42347 0.0
C133 C 0.08837 0.66179 0.41034 0.0
C134 C 0.96716 0.57957 0.45273 0.0
C135 C 0.93359 0.52611 0.4587 0.0
C136 C 0.88085 0.50745 0.47238 0.0
C137 C 0.83938 0.44981 0.46961 0.0
C138 C 0.79076 0.43031 0.48353 0.0
C139 C 0.78297 0.46808 0.50079 0.0
H140 H 0.90381 0.58981 0.49255 0.0
C141 C 0.82399 0.52588 0.50317 0.0
C142 C 0.8724 0.54536 0.48923 0.0
H143 H 0.8195 0.5561 0.51642 0.0
H144 H 0.12652 0.57324 0.4327 0.0
H145 H 0.04041 0.54075 0.45567 0.0
H146 H 1.01509 0.66313 0.42077 0.0
H147 H 0.10111 0.6957 0.39779 0.0
H148 H 0.95419 0.61027 0.45636 0.0
H149 H 0.94405 0.49418 0.45263 0.0
H150 H 0.8449 0.41962 0.45689 0.0
H151 H 0.76013 0.38546 0.48138 0.0
C152 C 0.68978 0.15603 0.93481 0.0
C153 C 0.66008 0.15446 0.9121 0.0
C154 C 0.67026 0.10806 0.94852 0.0
C155 C 0.62076 0.05755 0.93967 0.0
C156 C 0.5916 0.05589 0.91685 0.0
C157 C 0.61068 0.1038 0.90335 0.0
C158 C 0.59824 1.0057 0.95356 0.0
C159 C 0.60477 1.00729 -0.02002 0.0
C160 C 0.57579 0.95597 -0.00573 0.0
C161 C 0.55906 0.96114 0.01991 0.0
C162 C 0.52994 0.91376 0.03377 0.0
C163 C 0.51782 0.86007 0.0225 0.0
H164 H 0.57791 0.89736 0.96342 0.0
C165 C 0.53586 0.85497 -0.00295 0.0
C166 C 0.56438 0.90248 -0.01704 0.0
H167 H 0.52756 0.81429 -0.01206 0.0
H168 H 0.72822 0.19417 0.94194 0.0
H169 H 0.69449 0.11041 0.96572 0.0
H170 H 0.55351 0.01748 0.90956 0.0
H171 H 0.58691 0.10073 0.88579 0.0
H172 H 0.571 0.96538 0.942 0.0
H173 H 0.6273 0.04794 -0.00808 0.0
H174 H 0.56766 1.00189 0.02912 0.0
H175 H 0.51735 0.91944 0.05348 0.0
C176 C 0.52467 0.43704 0.50715 0.0
C177 C 0.49829 0.39394 0.52406 0.0
C178 C 0.49436 0.45579 0.49392 0.0
C179 C 0.43698 0.43138 0.49719 0.0
C180 C 0.41051 0.38733 0.51347 0.0
C181 C 0.44083 0.36918 0.52696 0.0
C182 C 0.40303 0.44918 0.4832 0.0
C183 C 0.42314 0.50227 0.47685 0.0
C184 C 0.38893 0.51952 0.46255 0.0
C185 C 0.40343 0.57647 0.46559 0.0
C186 C 0.37384 0.59456 0.45129 0.0
C187 C 0.32959 0.55606 0.43335 0.0
H188 H 0.33238 0.43696 0.44145 0.0
C189 C 0.31462 0.49895 0.43059 0.0
C190 C 0.34396 0.48086 0.44495 0.0
H191 H 0.28099 0.46825 0.41681 0.0
H192 H 0.56884 0.45686 0.50444 0.0
H193 H 0.51578 0.48875 0.48089 0.0
H194 H 0.36626 0.36736 0.51607 0.0
H195 H 0.4191 0.33554 0.53965 0.0
H196 H 0.35918 0.41797 0.47934 0.0
H197 H 0.46555 0.53485 0.48313 0.0
H198 H 0.43809 0.6072 0.47889 0.0
H199 H 0.38668 0.63894 0.45373 0.0
C200 C 0.26453 0.5798 0.01119 0.0
C201 C 0.27751 0.62876 0.02796 0.0
C202 C 0.21276 0.54766 -0.0027 0.0
C203 C 0.17274 0.56382 -0.00011 0.0
C204 C 0.18615 0.61318 0.01629 0.0
C205 C 0.23762 0.64503 0.03028 0.0
C206 C 0.11755 0.53188 -0.01485 0.0
C207 C 0.09188 0.47628 -0.02342 0.0
C208 C 0.03731 0.44442 0.96121 0.0
C209 C 1.02355 0.39366 0.94594 0.0
C210 C 0.97378 0.36304 0.9305 0.0
C211 C 0.93613 0.38216 0.93009 0.0
H212 H 1.00662 0.50048 -0.02638 0.0
C213 C 0.94885 0.43196 0.94603 0.0
C214 C 0.99881 0.46274 0.96147 0.0
H215 H 0.92052 0.4476 0.94635 0.0
H216 H 0.29434 0.56619 0.00877 0.0
H217 H 0.20487 0.51094 -0.01578 0.0
H218 H 0.15646 0.62702 0.01847 0.0
H219 H 0.24614 0.68265 0.04285 0.0
H220 H 0.0975 0.5555 -0.0184 0.0
H221 H 0.11209 0.45287 -0.01967 0.0
H222 H 0.05194 0.37807 0.94554 0.0
H223 H 0.96524 0.32467 0.9186 0.0
C224 C 0.55393 0.1699 0.50655 0.0
C225 C 0.52218 0.18073 0.52504 0.0
C226 C 0.52948 0.11911 0.48971 0.0
C227 C 0.47265 0.07861 0.49087 0.0
C228 C 0.44132 0.0893 0.50948 0.0
C229 C 0.46578 0.13933 0.52652 0.0
C230 C 0.44335 0.02675 0.47186 0.0
C231 C 0.46705 0.99861 0.46083 0.0
C232 C 0.43466 0.94609 0.44241 0.0
C233 C 0.44403 0.90107 0.4433 0.0
C234 C 0.41148 0.85012 0.42714 0.0
C235 C 0.36969 0.84371 0.40934 0.0
H236 H 0.38679 0.97472 0.42236 0.0
C237 C 0.36207 0.8898 0.40774 0.0
C238 C 0.39402 0.94026 0.42409 0.0
H239 H 0.33059 0.88668 0.39418 0.0
H240 H 0.59743 0.20092 0.50485 0.0
H241 H 0.55458 0.11261 0.47523 0.0
H242 H 0.39743 0.05898 0.5107 0.0
H243 H 0.43984 0.14614 0.54036 0.0
H244 H 0.39918 1.00935 0.46784 0.0
H245 H 0.50957 0.01199 0.46671 0.0
H246 H 0.4755 0.90474 0.45706 0.0
H247 H 0.41879 0.81568 0.42875 0.0
loop_
_geom_bond_atom_site_label_1
_geom_bond_atom_site_label_2
_geom_bond_distance
_geom_bond_site_symmetry_2
_ccdc_geom_bond_type
Mg0 O1 2.028 . S
Mg0 O7 1.986 . S
Mg0 O9 2.114 . S
Mg0 O10 2.251 . S
Mg0 O13 2.010 . S
O1 Mg0 2.028 . S
O1 C4 1.250 . S
O2 Mg3 2.028 . S
O2 C4 1.248 . S
Mg3 O2 2.028 . S
Mg3 O8 2.032 . S
Mg3 O10 2.079 . S
C4 O1 1.250 . S
C4 O2 1.248 . S
C5 O6 1.264 . S
C5 O13 1.249 . S
O6 C5 1.264 . S
O7 Mg0 1.986 . S
O7 C11 1.246 . S
O8 Mg3 2.032 . S
O8 C11 1.259 . S
O9 Mg0 2.114 . S
O9 C12 1.252 . S
O10 Mg0 2.251 . S
O10 Mg3 2.079 . S
O10 C12 1.273 . S
C11 O7 1.246 . S
C11 O8 1.259 . S
C12 O9 1.252 . S
C12 O10 1.273 . S
O13 Mg0 2.010 . S
O13 C5 1.249 . S
Mg14 O15 2.028 . S
Mg14 O21 1.986 . S
Mg14 O23 2.114 . S
Mg14 O24 2.251 . S
Mg14 O27 2.010 . S
O15 Mg14 2.028 . S
O15 C18 1.250 . S
O16 Mg17 2.028 . S
O16 C18 1.248 . S
Mg17 O16 2.028 . S
Mg17 O22 2.032 . S
Mg17 O24 2.079 . S
C18 O15 1.250 . S
C18 O16 1.248 . S
C19 O20 1.264 . S
C19 O27 1.249 . S
O20 C19 1.264 . S
O21 Mg14 1.986 . S
O21 C25 1.246 . S
O22 Mg17 2.032 . S
O22 C25 1.259 . S
O23 Mg14 2.114 . S
O23 C26 1.252 . S
O24 Mg14 2.251 . S
O24 Mg17 2.079 . S
O24 C26 1.273 . S
C25 O21 1.246 . S
C25 O22 1.259 . S
C26 O23 1.252 . S
C26 O24 1.273 . S
O27 Mg14 2.010 . S
O27 C19 1.249 . S
Mg28 O29 2.028 . S
Mg28 O35 1.986 . S
Mg28 O37 2.114 . S
Mg28 O38 2.251 . S
Mg28 O41 2.010 . S
O29 Mg28 2.028 . S
O29 C32 1.250 . S
O30 Mg31 2.028 . S
O30 C32 1.248 . S
Mg31 O30 2.028 . S
Mg31 O36 2.032 . S
Mg31 O38 2.079 . S
C32 O29 1.250 . S
C32 O30 1.248 . S
C33 O34 1.264 . S
C33 O41 1.249 . S
O34 C33 1.264 . S
O35 Mg28 1.986 . S
O35 C39 1.246 . S
O36 Mg31 2.032 . S
O36 C39 1.259 . S
O37 Mg28 2.114 . S
O37 C40 1.252 . S
O38 Mg28 2.251 . S
O38 Mg31 2.079 . S
O38 C40 1.273 . S
C39 O35 1.246 . S
C39 O36 1.259 . S
C40 O37 1.252 . S
C40 O38 1.273 . S
O41 Mg28 2.010 . S
O41 C33 1.249 . S
Mg42 O43 2.028 . S
Mg42 O49 1.986 . S
Mg42 O51 2.114 . S
Mg42 O52 2.251 . S
Mg42 O55 2.010 . S
O43 Mg42 2.028 . S
O43 C46 1.250 . S
O44 Mg45 2.028 . S
O44 C46 1.248 . S
Mg45 O44 2.028 . S
Mg45 O50 2.032 . S
Mg45 O52 2.079 . S
C46 O43 1.250 . S
C46 O44 1.248 . S
C47 O48 1.264 . S
C47 O55 1.249 . S
O48 C47 1.264 . S
O49 Mg42 1.986 . S
O49 C53 1.246 . S
O50 Mg45 2.032 . S
O50 C53 1.259 . S
O51 Mg42 2.114 . S
O51 C54 1.252 . S
O52 Mg42 2.251 . S
O52 Mg45 2.079 . S
O52 C54 1.273 . S
C53 O49 1.246 . S
C53 O50 1.259 . S
C54 O51 1.252 . S
C54 O52 1.273 . S
O55 Mg42 2.010 . S
O55 C47 1.249 . S
C56 C57 1.386 . S
C56 C58 1.383 . S
C56 H72 0.951 . S
C57 C56 1.386 . S
C57 C61 1.383 . S
C58 C56 1.383 . S
C58 C59 1.402 . S
C58 H73 0.951 . S
C59 C58 1.402 . S
C59 C60 1.375 . S
C59 C62 1.481 . S
C60 C59 1.375 . S
C60 C61 1.367 . S
C60 H74 0.951 . S
C61 C57 1.383 . S
C61 C60 1.367 . S
C61 H75 0.950 . S
C62 C59 1.481 . S
C62 C63 1.297 . S
C62 H76 0.950 . S
C63 C62 1.297 . S
C63 C64 1.479 . S
C63 H77 0.950 . S
C64 C63 1.479 . S
C64 C65 1.375 . S
C64 C70 1.404 . S
C65 C64 1.375 . S
C65 C66 1.369 . S
C65 H78 0.950 . S
C66 C65 1.369 . S
C66 C67 1.392 . S
C66 H79 0.951 . S
C67 C66 1.392 . S
C67 C69 1.384 . S
H68 C70 0.949 . S
C69 C67 1.384 . S
C69 C70 1.385 . S
C69 H71 0.950 . S
C70 C64 1.404 . S
C70 H68 0.949 . S
C70 C69 1.385 . S
H71 C69 0.950 . S
H72 C56 0.951 . S
H73 C58 0.951 . S
H74 C60 0.951 . S
H75 C61 0.950 . S
H76 C62 0.950 . S
H77 C63 0.950 . S
H78 C65 0.950 . S
H79 C66 0.951 . S
C80 C81 1.386 . S
C80 C82 1.383 . S
C80 H96 0.951 . S
C81 C80 1.386 . S
C81 C85 1.383 . S
C82 C80 1.383 . S
C82 C83 1.402 . S
C82 H97 0.951 . S
C83 C82 1.402 . S
C83 C84 1.375 . S
C83 C86 1.481 . S
C84 C83 1.375 . S
C84 C85 1.367 . S
C84 H98 0.951 . S
C85 C81 1.383 . S
C85 C84 1.367 . S
C85 H99 0.950 . S
C86 C83 1.481 . S
C86 C87 1.297 . S
C86 H100 0.950 . S
C87 C86 1.297 . S
C87 C88 1.479 . S
C87 H101 0.950 . S
C88 C87 1.479 . S
C88 C89 1.375 . S
C88 C94 1.404 . S
C89 C88 1.375 . S
C89 C90 1.369 . S
C89 H102 0.950 . S
C90 C89 1.369 . S
C90 C91 1.392 . S
C90 H103 0.951 . S
C91 C90 1.392 . S
C91 C93 1.384 . S
H92 C94 0.949 . S
C93 C91 1.384 . S
C93 C94 1.385 . S
C93 H95 0.950 . S
C94 C88 1.404 . S
C94 H92 0.949 . S
C94 C93 1.385 . S
H95 C93 0.950 . S
H96 C80 0.951 . S
H97 C82 0.951 . S
H98 C84 0.951 . S
H99 C85 0.950 . S
H100 C86 0.950 . S
H101 C87 0.950 . S
H102 C89 0.950 . S
H103 C90 0.951 . S
C104 C105 1.386 . S
C104 C106 1.383 . S
C104 H120 0.951 . S
C105 C104 1.386 . S
C105 C109 1.371 1_554 S
C106 C104 1.383 . S
C106 C107 1.402 1_554 S
C106 H121 0.951 . S
C107 C106 1.402 1_556 S
C107 C108 1.375 . S
C107 C110 1.481 . S
C108 C107 1.375 . S
C108 C109 1.373 . S
C108 H122 0.951 . S
C109 C105 1.371 1_556 S
C109 C108 1.373 . S
C109 H123 0.956 . S
C110 C107 1.481 . S
C110 C111 1.297 . S
C110 H124 0.950 . S
C111 C110 1.297 . S
C111 C112 1.479 . S
C111 H125 0.950 1_556 S
C112 C111 1.479 . S
C112 C113 1.375 . S
C112 C118 1.404 . S
C113 C112 1.375 . S
C113 C114 1.369 . S
C113 H126 0.950 1_556 S
C114 C113 1.369 . S
C114 C115 1.392 . S
C114 H127 0.951 . S
C115 C114 1.392 . S
C115 C117 1.384 . S
H116 C118 0.949 . S
C117 C115 1.384 . S
C117 C118 1.385 . S
C117 H119 0.950 . S
C118 C112 1.404 . S
C118 H116 0.949 . S
C118 C117 1.385 . S
H119 C117 0.950 . S
H120 C104 0.951 . S
H121 C106 0.951 . S
H122 C108 0.951 . S
H123 C109 0.956 . S
H124 C110 0.950 . S
H125 C111 0.950 1_554 S
H126 C113 0.950 1_554 S
H127 C114 0.951 . S
C128 C129 1.386 . S
C128 C130 1.383 . S
C128 H144 0.951 . S
C129 C128 1.386 . S
C129 C133 1.383 . S
C130 C128 1.383 . S
C130 C131 1.402 . S
C130 H145 0.951 . S
C131 C130 1.402 . S
C131 C132 1.375 . S
C131 C134 1.481 . S
C132 C131 1.375 . S
C132 C133 1.367 . S
C132 H146 0.951 . S
C133 C129 1.383 . S
C133 C132 1.367 . S
C133 H147 0.950 . S
C134 C131 1.481 . S
C134 C135 1.297 1_455 S
C134 H148 0.950 1_455 S
C135 C134 1.297 1_655 S
C135 C136 1.479 . S
C135 H149 0.950 1_655 S
C136 C135 1.479 . S
C136 C137 1.375 . S
C136 C142 1.404 . S
C137 C136 1.375 . S
C137 C138 1.369 . S
C137 H150 0.950 . S
C138 C137 1.369 . S
C138 C139 1.392 . S
C138 H151 0.951 . S
C139 C138 1.392 . S
C139 C141 1.384 . S
H140 C142 0.949 . S
C141 C139 1.384 . S
C141 C142 1.385 . S
C141 H143 0.950 . S
C142 C136 1.404 . S
C142 H140 0.949 . S
C142 C141 1.385 . S
H143 C141 0.950 . S
H144 C128 0.951 . S
H145 C130 0.951 . S
H146 C132 0.951 . S
H147 C133 0.950 . S
H148 C134 0.950 1_655 S
H149 C135 0.950 1_455 S
H150 C137 0.950 . S
H151 C138 0.951 . S
C152 C153 1.386 . S
C152 C154 1.383 . S
C152 H168 0.951 1_556 S
C153 C152 1.386 . S
C153 C157 1.383 . S
C154 C152 1.383 . S
C154 C155 1.402 . S
C154 H169 0.951 1_556 S
C155 C154 1.402 . S
C155 C156 1.375 . S
C155 C158 1.481 . S
C156 C155 1.375 . S
C156 C157 1.367 . S
C156 H170 0.951 . S
C157 C153 1.383 . S
C157 C156 1.367 . S
C157 H171 0.950 . S
C158 C155 1.481 . S
C158 C159 1.297 1_546 S
C158 H172 0.950 1_545 S
C159 C158 1.297 1_564 S
C159 C160 1.479 . S
C159 H173 0.950 1_565 S
C160 C159 1.479 . S
C160 C161 1.375 . S
C160 C166 1.404 1_554 S
C161 C160 1.375 . S
C161 C162 1.369 . S
C161 H174 0.950 . S
C162 C161 1.369 . S
C162 C163 1.392 . S
C162 H175 0.951 . S
C163 C162 1.392 . S
C163 C165 1.384 . S
H164 C166 0.949 . S
C165 C163 1.384 . S
C165 C166 1.385 1_554 S
C165 H167 0.950 1_554 S
C166 C160 1.404 1_556 S
C166 H164 0.949 . S
C166 C165 1.385 1_556 S
H167 C165 0.950 1_556 S
H168 C152 0.951 1_554 S
H169 C154 0.951 1_554 S
H170 C156 0.951 . S
H171 C157 0.950 . S
H172 C158 0.950 1_565 S
H173 C159 0.950 1_545 S
H174 C161 0.950 . S
H175 C162 0.951 . S
C176 C177 1.386 . S
C176 C178 1.383 . S
C176 H192 0.951 . S
C177 C176 1.386 . S
C177 C181 1.383 . S
C178 C176 1.383 . S
C178 C179 1.402 . S
C178 H193 0.951 . S
C179 C178 1.402 . S
C179 C180 1.375 . S
C179 C182 1.481 . S
C180 C179 1.375 . S
C180 C181 1.367 . S
C180 H194 0.951 . S
C181 C177 1.383 . S
C181 C180 1.367 . S
C181 H195 0.950 . S
C182 C179 1.481 . S
C182 C183 1.297 . S
C182 H196 0.950 . S
C183 C182 1.297 . S
C183 C184 1.479 . S
C183 H197 0.950 . S
C184 C183 1.479 . S
C184 C185 1.375 . S
C184 C190 1.404 . S
C185 C184 1.375 . S
C185 C186 1.369 . S
C185 H198 0.950 . S
C186 C185 1.369 . S
C186 C187 1.392 . S
C186 H199 0.951 . S
C187 C186 1.392 . S
C187 C189 1.384 . S
H188 C190 0.949 . S
C189 C187 1.384 . S
C189 C190 1.385 . S
C189 H191 0.950 . S
C190 C184 1.404 . S
C190 H188 0.949 . S
C190 C189 1.385 . S
H191 C189 0.950 . S
H192 C176 0.951 . S
H193 C178 0.951 . S
H194 C180 0.951 . S
H195 C181 0.950 . S
H196 C182 0.950 . S
H197 C183 0.950 . S
H198 C185 0.950 . S
H199 C186 0.951 . S
C200 C201 1.386 . S
C200 C202 1.383 . S
C200 H216 0.951 . S
C201 C200 1.386 . S
C201 C205 1.383 . S
C202 C200 1.383 . S
C202 C203 1.402 . S
C202 H217 0.951 1_554 S
C203 C202 1.402 . S
C203 C204 1.375 . S
C203 C206 1.481 . S
C204 C203 1.375 . S
C204 C205 1.367 . S
C204 H218 0.951 . S
C205 C201 1.383 . S
C205 C204 1.367 . S
C205 H219 0.950 . S
C206 C203 1.481 . S
C206 C207 1.297 . S
C206 H220 0.950 . S
C207 C206 1.297 . S
C207 C208 1.479 1_454 S
C207 H221 0.950 1_554 S
C208 C207 1.479 1_656 S
C208 C209 1.375 . S
C208 C214 1.404 1_556 S
C209 C208 1.375 . S
C209 C210 1.369 . S
C209 H222 0.950 . S
C210 C209 1.369 . S
C210 C211 1.392 . S
C210 H223 0.951 . S
C211 C210 1.392 . S
C211 C213 1.384 1_556 S
H212 C214 0.949 . S
C213 C211 1.384 1_554 S
C213 C214 1.385 . S
C213 H215 0.950 . S
C214 C208 1.404 1_554 S
C214 H212 0.949 . S
C214 C213 1.385 . S
H215 C213 0.950 . S
H216 C200 0.951 . S
H217 C202 0.951 1_556 S
H218 C204 0.951 . S
H219 C205 0.950 . S
H220 C206 0.950 . S
H221 C207 0.950 1_556 S
H222 C209 0.950 . S
H223 C210 0.951 . S
C224 C225 1.386 . S
C224 C226 1.383 . S
C224 H240 0.951 . S
C225 C224 1.386 . S
C225 C229 1.383 . S
C226 C224 1.383 . S
C226 C227 1.402 . S
C226 H241 0.951 . S
C227 C226 1.402 . S
C227 C228 1.375 . S
C227 C230 1.481 . S
C228 C227 1.375 . S
C228 C229 1.367 . S
C228 H242 0.951 . S
C229 C225 1.383 . S
C229 C228 1.367 . S
C229 H243 0.950 . S
C230 C227 1.481 . S
C230 C231 1.297 1_545 S
C230 H244 0.950 . S
C231 C230 1.297 1_565 S
C231 C232 1.479 . S
C231 H245 0.950 . S
C232 C231 1.479 . S
C232 C233 1.375 . S
C232 C238 1.404 . S
C233 C232 1.375 . S
C233 C234 1.369 . S
C233 H246 0.950 . S
C234 C233 1.369 . S
C234 C235 1.392 . S
C234 H247 0.951 . S
C235 C234 1.392 . S
C235 C237 1.384 . S
H236 C238 0.949 . S
C237 C235 1.384 . S
C237 C238 1.385 . S
C237 H239 0.950 . S
C238 C232 1.404 . S
C238 H236 0.949 . S
C238 C237 1.385 . S
H239 C237 0.950 . S
H240 C224 0.951 . S
H241 C226 0.951 . S
H242 C228 0.951 . S
H243 C229 0.950 . S
H244 C230 0.950 . S
H245 C231 0.950 . S
H246 C233 0.950 . S
H247 C234 0.951 . S
C57 C12 1.494 . S
C67 C40 1.486 . S
C81 C26 1.497 . S
C91 C54 1.485 . S
C105 C5 1.347 . S
C115 C46 1.514 . S
C129 C39 1.368 . S
C139 C19 1.036 . S
C153 C53 1.248 . S
C163 C11 1.229 . S
C177 C25 1.373 . S
C187 C33 1.066 . S
C201 C4 1.555 . S
C211 C47 1.255 . S
C225 C18 1.661 . S
C235 C32 1.689 . S
