# Generated by pormake.
# Topology uom, (4)-cn, num edge types: 1
# Building blocks:
#     Node 0, Type 0, BuildingBlock: NAWXER_clean_sbu_0, # of connection points: 4
#     Node 1, Type 0, BuildingBlock: NAWXER_clean_sbu_0, # of connection points: 4
#     Node 2, Type 0, BuildingBlock: NAWXER_clean_sbu_0, # of connection points: 4
#     Node 3, Type 0, BuildingBlock: NAWXER_clean_sbu_0, # of connection points: 4
#     Node 4, Type 0, BuildingBlock: NAWXER_clean_sbu_0, # of connection points: 4
#     Node 5, Type 0, BuildingBlock: NAWXER_clean_sbu_0, # of connection points: 4
#     Edge 6, Type (0, 0), None
#     Edge 7, Type (0, 0), None
#     Edge 8, Type (0, 0), None
#     Edge 9, Type (0, 0), None
#     Edge 10, Type (0, 0), None
#     Edge 11, Type (0, 0), None
#     Edge 12, Type (0, 0), None
#     Edge 13, Type (0, 0), None
#     Edge 14, Type (0, 0), None
#     Edge 15, Type (0, 0), None
#     Edge 16, Type (0, 0), None
#     Edge 17, Type (0, 0), None
# Relax obj value: 0.104
# Max RMSD: 0.115
# Mean RMSD: 0.115
data_MOF--net-uom--node1-NAWXER_clean_sbu_0--edge1-none
_symmetry_space_group_name_H-M    P1
_symmetry_Int_Tables_number       1
_symmetry_cell_setting            triclinic
loop_
_symmetry_equiv_pos_as_xyz
'x, y, z'
_cell_length_a     12.40451
_cell_length_b     12.404693
_cell_length_c     15.55697
_cell_angle_alpha  89.996723
_cell_angle_beta   89.999884
_cell_angle_gamma 120.00112
loop_
_atom_site_label
_atom_site_type_symbol
_atom_site_fract_x
_atom_site_fract_y
_atom_site_fract_z
_atom_type_partial_charge
C0 C 0.39227 0.08273 0.93578 0.0
C1 C 0.39683 0.32987 0.19308 0.0
O2 O 0.44304 0.20132 0.93338 0.0
Zn3 Zn 0.41844 0.23016 1.05919 0.0
O4 O 0.34447 0.02746 1.00622 0.0
Zn5 Zn 0.31715 0.05467 0.13285 0.0
O6 O 0.13803 0.97792 0.13642 0.0
O7 O 0.22337 0.1545 1.063 0.0
O8 O 0.35675 0.21367 0.20042 0.0
O9 O 0.44846 0.38588 0.12295 0.0
O10 O 0.53079 0.16643 0.12242 0.0
O11 O 0.40935 0.98872 0.18994 0.0
C12 C 0.12799 0.06189 0.0959 0.0
C13 C 0.51753 0.07406 0.16786 0.0
C14 C 0.5054 0.51007 0.50118 0.0
C15 C 0.12812 0.12048 0.42922 0.0
O16 O 0.48259 0.4019 0.52326 0.0
Zn17 Zn 0.32449 0.30968 0.46615 0.0
O18 O 0.42629 0.52331 0.45575 0.0
Zn19 Zn 0.25019 0.41091 0.39252 0.0
O20 O 0.12444 0.44084 0.4563 0.0
O21 O 0.20504 0.34921 0.53375 0.0
O22 O 0.13084 0.21584 0.39633 0.0
O23 O 0.22216 0.13056 0.46971 0.0
O24 O 0.37907 0.33709 0.33953 0.0
O25 O 0.30359 0.43553 0.2667 0.0
C26 C 0.12886 0.38921 0.52642 0.0
C27 C 0.37155 0.38492 0.26912 0.0
C28 C 0.04855 0.36387 0.60248 0.0
C29 C 0.80139 0.12127 0.85975 0.0
O30 O 0.92996 0.29604 0.60004 0.0
Zn31 Zn 0.90112 0.2426 0.72585 0.0
O32 O 0.10386 0.37138 0.6729 0.0
Zn33 Zn 0.07661 0.31681 0.79952 0.0
O34 O 0.15335 0.21443 0.80309 0.0
O35 O 0.97678 0.12319 0.72966 0.0
O36 O 0.91759 0.19739 0.86709 0.0
O37 O 0.74539 0.11689 0.78961 0.0
O38 O 0.96485 0.41869 0.78908 0.0
O39 O 0.14253 0.47495 0.85661 0.0
C40 C 0.06938 0.12042 0.76257 0.0
C41 C 0.0572 0.49778 0.83453 0.0
C42 C 0.62116 0.04958 0.16786 0.0
C43 C 1.01077 0.06199 0.09587 0.0
O44 O 0.7293 0.13498 0.18993 0.0
Zn45 Zn 0.82154 0.06911 0.13282 0.0
O46 O 0.6079 0.95723 0.12243 0.0
Zn47 Zn 0.72034 0.89358 1.05919 0.0
O48 O 0.69043 0.7379 0.12297 0.0
O49 O 0.78203 0.91013 0.20042 0.0
O50 O 0.91541 0.96933 1.06299 0.0
O51 O 1.00068 0.14594 0.13637 0.0
O52 O 0.79414 0.09629 1.00619 0.0
O53 O 0.69573 0.92237 0.93337 0.0
C54 C 0.74204 0.79395 0.1931 0.0
C55 C 0.74633 0.04094 0.93579 0.0
C56 C 1.01079 1.00326 0.42923 0.0
C57 C 0.63351 0.6137 0.50123 0.0
O58 O 0.91678 0.99319 0.46976 0.0
Zn59 Zn 0.81442 0.81407 0.46619 0.0
O60 O 1.00805 0.9079 0.39633 0.0
Zn61 Zn 0.88867 0.71283 0.39252 0.0
O62 O 0.83523 0.68824 0.2667 0.0
O63 O 0.75986 0.78677 0.33957 0.0
O64 O 0.71259 0.60044 0.45576 0.0
O65 O 0.65628 0.72185 0.5233 0.0
O66 O 0.93386 0.77449 0.53375 0.0
O67 O 1.0144 0.68284 0.45627 0.0
C68 C 0.76739 0.73898 0.26915 0.0
C69 C 1.01 0.73444 0.52641 0.0
C70 C 0.08168 0.62589 0.83452 0.0
C71 C 0.06928 1.0031 0.76254 0.0
O72 O 0.99628 0.64863 0.85659 0.0
Zn73 Zn 0.06215 0.80675 0.79948 0.0
O74 O 0.17404 0.705 0.78908 0.0
Zn75 Zn 0.23769 0.88109 0.72584 0.0
O76 O 0.39337 1.00686 0.78961 0.0
O77 O 0.22113 0.92621 0.86707 0.0
O78 O 0.16194 1.00041 0.72965 0.0
O79 O 0.98533 0.90905 0.80304 0.0
O80 O 0.03498 0.75218 0.67286 0.0
O81 O 0.20891 0.8277 0.60003 0.0
C82 C 0.33731 1.00241 0.85974 0.0
C83 C 0.09033 0.75973 0.60244 0.0
loop_
_geom_bond_atom_site_label_1
_geom_bond_atom_site_label_2
_geom_bond_distance
_geom_bond_site_symmetry_2
_ccdc_geom_bond_type
C0 O2 1.247 . S
C0 O4 1.258 1_545 S
C1 O8 1.247 . S
C1 O9 1.258 . S
O2 C0 1.247 . S
O2 Zn3 2.028 . S
Zn3 O2 2.028 . S
Zn3 O7 2.035 . S
Zn3 O9 2.035 1_556 S
Zn3 O10 2.028 . S
O4 C0 1.258 1_565 S
O4 Zn5 2.035 1_556 S
Zn5 O4 2.035 1_554 S
Zn5 O6 2.028 1_565 S
Zn5 O8 2.028 1_565 S
Zn5 O11 2.035 1_565 S
O6 Zn5 2.028 1_545 S
O6 C12 1.247 . S
O7 Zn3 2.035 . S
O7 C12 1.258 1_556 S
O8 C1 1.247 . S
O8 Zn5 2.028 1_545 S
O9 C1 1.258 . S
O9 Zn3 2.035 1_554 S
O10 Zn3 2.028 . S
O10 C13 1.247 1_556 S
O11 Zn5 2.035 1_545 S
O11 C13 1.258 . S
C12 O6 1.247 . S
C12 O7 1.258 1_554 S
C13 O10 1.247 1_554 S
C13 O11 1.258 . S
C14 O16 1.247 . S
C14 O18 1.258 . S
C15 O22 1.247 . S
C15 O23 1.258 . S
O16 C14 1.247 . S
O16 Zn17 2.028 . S
Zn17 O16 2.028 . S
Zn17 O21 2.035 . S
Zn17 O23 2.035 . S
Zn17 O24 2.028 . S
O18 C14 1.258 . S
O18 Zn19 2.035 . S
Zn19 O18 2.035 . S
Zn19 O20 2.028 . S
Zn19 O22 2.028 . S
Zn19 O25 2.035 . S
O20 Zn19 2.028 . S
O20 C26 1.247 . S
O21 Zn17 2.035 . S
O21 C26 1.258 . S
O22 C15 1.247 . S
O22 Zn19 2.028 . S
O23 C15 1.258 . S
O23 Zn17 2.035 . S
O24 Zn17 2.028 . S
O24 C27 1.247 . S
O25 Zn19 2.035 . S
O25 C27 1.258 . S
C26 O20 1.247 . S
C26 O21 1.258 . S
C27 O24 1.247 . S
C27 O25 1.258 . S
C28 O30 1.247 1_455 S
C28 O32 1.258 . S
C29 O36 1.247 1_655 S
C29 O37 1.258 . S
O30 C28 1.247 1_655 S
O30 Zn31 2.028 . S
Zn31 O30 2.028 . S
Zn31 O35 2.035 . S
Zn31 O37 2.035 . S
Zn31 O38 2.028 . S
O32 C28 1.258 . S
O32 Zn33 2.035 . S
Zn33 O32 2.035 . S
Zn33 O34 2.028 . S
Zn33 O36 2.028 . S
Zn33 O39 2.035 . S
O34 Zn33 2.028 . S
O34 C40 1.247 . S
O35 Zn31 2.035 . S
O35 C40 1.258 1_655 S
O36 C29 1.247 1_455 S
O36 Zn33 2.028 . S
O37 C29 1.258 . S
O37 Zn31 2.035 . S
O38 Zn31 2.028 . S
O38 C41 1.247 1_655 S
O39 Zn33 2.035 . S
O39 C41 1.258 . S
C40 O34 1.247 . S
C40 O35 1.258 1_455 S
C41 O38 1.247 1_455 S
C41 O39 1.258 . S
C42 O44 1.247 . S
C42 O46 1.258 1_544 S
C43 O50 1.247 1_544 S
C43 O51 1.258 . S
O44 C42 1.247 . S
O44 Zn45 2.028 . S
Zn45 O44 2.028 . S
Zn45 O49 2.035 . S
Zn45 O51 2.035 . S
Zn45 O52 2.028 1_554 S
O46 C42 1.258 1_566 S
O46 Zn47 2.035 . S
Zn47 O46 2.035 . S
Zn47 O48 2.028 1_556 S
Zn47 O50 2.028 . S
Zn47 O53 2.035 . S
O48 Zn47 2.028 1_554 S
O48 C54 1.247 . S
O49 Zn45 2.035 . S
O49 C54 1.258 1_545 S
O50 C43 1.247 1_566 S
O50 Zn47 2.028 . S
O51 C43 1.258 . S
O51 Zn45 2.035 . S
O52 Zn45 2.028 1_556 S
O52 C55 1.247 . S
O53 Zn47 2.035 . S
O53 C55 1.258 1_565 S
C54 O48 1.247 . S
C54 O49 1.258 1_565 S
C55 O52 1.247 . S
C55 O53 1.258 1_545 S
C56 O58 1.247 1_455 S
C56 O60 1.258 . S
C57 O64 1.247 . S
C57 O65 1.258 . S
O58 C56 1.247 1_655 S
O58 Zn59 2.028 . S
Zn59 O58 2.028 . S
Zn59 O63 2.035 . S
Zn59 O65 2.035 . S
Zn59 O66 2.028 . S
O60 C56 1.258 . S
O60 Zn61 2.035 1_455 S
Zn61 O60 2.035 1_655 S
Zn61 O62 2.028 . S
Zn61 O64 2.028 . S
Zn61 O67 2.035 . S
O62 Zn61 2.028 . S
O62 C68 1.247 . S
O63 Zn59 2.035 . S
O63 C68 1.258 . S
O64 C57 1.247 . S
O64 Zn61 2.028 . S
O65 C57 1.258 . S
O65 Zn59 2.035 . S
O66 Zn59 2.028 . S
O66 C69 1.247 . S
O67 Zn61 2.035 . S
O67 C69 1.258 . S
C68 O62 1.247 . S
C68 O63 1.258 . S
C69 O66 1.247 . S
C69 O67 1.258 . S
C70 O72 1.247 . S
C70 O74 1.258 . S
C71 O78 1.247 . S
C71 O79 1.258 1_545 S
O72 C70 1.247 . S
O72 Zn73 2.028 1_455 S
Zn73 O72 2.028 1_655 S
Zn73 O77 2.035 1_655 S
Zn73 O79 2.035 1_655 S
Zn73 O80 2.028 . S
O74 C70 1.258 . S
O74 Zn75 2.035 . S
Zn75 O74 2.035 . S
Zn75 O76 2.028 . S
Zn75 O78 2.028 1_565 S
Zn75 O81 2.035 . S
O76 Zn75 2.028 . S
O76 C82 1.247 . S
O77 Zn73 2.035 1_455 S
O77 C82 1.258 . S
O78 C71 1.247 . S
O78 Zn75 2.028 1_545 S
O79 C71 1.258 1_565 S
O79 Zn73 2.035 1_455 S
O80 Zn73 2.028 . S
O80 C83 1.247 1_655 S
O81 Zn75 2.035 . S
O81 C83 1.258 . S
C82 O76 1.247 . S
C82 O77 1.258 . S
C83 O80 1.247 1_455 S
C83 O81 1.258 . S
C1 C27 1.833 . S
C26 C28 1.834 . S
C55 C29 1.833 . S
C54 C68 1.834 . S
C83 C69 1.833 1_455 S
C0 C82 1.834 1_545 S
C12 C43 1.436 1_455 S
C56 C15 1.436 1_565 S
C40 C71 1.436 . S
C42 C13 1.779 . S
C57 C14 1.780 . S
C70 C41 1.779 . S
