# Generated by pormake.
# Topology hex, (8)-cn, num edge types: 1
# Building blocks:
#     Node 0, Type 0, BuildingBlock: EYACOX_clean_sbu_0, # of connection points: 8
#     Edge 1, Type (0, 0), BuildingBlock: OJICUG_clean_linker_0, # of connection points: 2
#     Edge 2, Type (0, 0), BuildingBlock: OJICUG_clean_linker_0, # of connection points: 2
#     Edge 3, Type (0, 0), BuildingBlock: OJICUG_clean_linker_0, # of connection points: 2
#     Edge 4, Type (0, 0), BuildingBlock: OJICUG_clean_linker_0, # of connection points: 2
# Relax obj value: 0.020
# Max RMSD: 0.057
# Mean RMSD: 0.057
data_MOF--net-hex--node1-EYACOX_clean_sbu_0--edge1-OJICUG_clean_linker_0
_symmetry_space_group_name_H-M    P1
_symmetry_Int_Tables_number       1
_symmetry_cell_setting            triclinic
loop_
_symmetry_equiv_pos_as_xyz
'x, y, z'
_cell_length_a     20.614112
_cell_length_b     19.837382
_cell_length_c     11.177757
_cell_angle_alpha  112.04254
_cell_angle_beta   71.916922
_cell_angle_gamma 148.6213
loop_
_atom_site_label
_atom_site_type_symbol
_atom_site_fract_x
_atom_site_fract_y
_atom_site_fract_z
_atom_type_partial_charge
Eu0 Eu 0.07244 0.92695 0.93223 0.0
Eu1 Eu 0.98796 0.03301 0.04178 0.0
O2 O 0.22792 -0.00932 0.91319 0.0
O3 O 0.04387 0.78341 0.84616 0.0
O4 O 0.03549 0.04202 0.83432 0.0
O5 O 1.01483 0.89786 0.7551 0.0
O6 O 0.87351 0.75931 -0.00463 0.0
O7 O 0.82807 0.81801 0.9447 0.0
C8 C 0.18 0.83614 0.93251 0.0
C9 C 0.22158 0.78301 0.07095 0.0
C10 C 0.10146 0.68335 0.02821 0.0
C11 C 0.07915 0.71158 0.96464 0.0
C12 C 0.32242 0.89281 0.01603 0.0
C13 C 0.30262 0.92248 0.94928 0.0
C14 C 0.15869 0.87076 0.86984 0.0
C15 C 0.02162 0.96638 0.73884 0.0
O16 O 0.83729 -0.02045 0.0988 0.0
O17 O 0.02655 0.18297 0.09403 0.0
C18 C 0.79273 0.7324 0.97593 0.0
O19 O 0.96997 -0.01734 0.2105 0.0
O20 O 0.09898 -0.00319 0.14685 0.0
O21 O 0.19335 0.20916 0.08281 0.0
O22 O 0.22643 0.13253 0.9099 0.0
C23 C 0.86622 0.10713 0.03599 0.0
C24 C 0.70193 0.01734 0.94888 0.0
C25 C 0.7378 0.0059 0.01964 0.0
C26 C 0.7933 0.12336 0.88878 0.0
C27 C 0.9155 0.23642 0.93375 0.0
C28 C 0.95412 0.22693 0.00097 0.0
C29 C 0.90931 0.0976 0.1047 0.0
C30 C 0.03267 -0.01264 0.23386 0.0
C31 C 0.26828 0.2284 0.00242 0.0
H32 H 0.23745 0.75901 0.11864 0.0
H33 H 0.98507 0.63405 0.93324 0.0
H34 H 0.38087 0.00885 0.90717 0.0
H35 H 0.66753 0.92307 0.06584 0.0
H36 H 0.76561 0.13336 0.83715 0.0
H37 H 0.05033 0.31529 0.03398 0.0
C38 C 0.9939 0.3988 0.85372 0.0
C39 C 0.97566 0.36013 0.95704 0.0
H40 H 0.03942 0.52742 0.7964 0.0
C41 C 0.97667 0.41313 0.08372 0.0
H42 H 0.98768 0.35443 0.75503 0.0
C43 C 0.99921 0.50616 0.10709 0.0
C44 C 0.02292 0.54924 0.0042 0.0
H45 H 0.95619 0.37943 0.1645 0.0
H46 H 1.00691 0.55153 0.20592 0.0
C47 C 1.01717 0.49246 0.8771 0.0
C48 C 0.52033 0.90362 0.86314 0.0
C49 C 0.58551 0.95685 0.97033 0.0
H50 H 0.39319 0.85156 0.79274 0.0
C51 C 0.56981 -0.00131 0.09183 0.0
H52 H 0.53388 0.87482 0.7676 0.0
C53 C 0.49333 -0.0096 0.10524 0.0
C54 C 0.43149 0.94116 -0.00273 0.0
H55 H 0.62243 0.045 0.17529 0.0
H56 H 0.47998 0.01961 0.20057 0.0
C57 C 0.44482 0.89647 0.87639 0.0
C58 C 0.4825 0.37072 0.98075 0.0
C59 C 0.4028 0.36003 0.01041 0.0
H60 H 0.66984 0.49843 0.948 0.0
C61 C 0.45231 0.47324 0.03553 0.0
H62 H 0.44562 0.28401 0.96175 0.0
C63 C 0.58001 0.59502 0.02462 0.0
C64 C 0.65943 0.605 -0.00862 0.0
H65 H 0.39201 0.46651 0.05793 0.0
H66 H 0.61646 0.68114 0.04137 0.0
C67 C 0.61029 0.4928 0.97279 0.0
C68 C 0.05351 0.93419 0.502 0.0
C69 C 1.01798 0.96381 0.60811 0.0
H70 H 0.08763 0.92028 0.29969 0.0
C71 C 0.98438 -0.00191 0.59003 0.0
H72 H 0.08011 0.90788 0.51363 0.0
C73 C 0.98817 0.00481 0.4681 0.0
C74 C 0.02707 -0.02108 0.36248 0.0
H75 H 0.95555 0.0204 0.67034 0.0
H76 H 0.96255 0.03231 0.45715 0.0
C77 C 0.05887 0.94259 0.38009 0.0
loop_
_geom_bond_atom_site_label_1
_geom_bond_atom_site_label_2
_geom_bond_distance
_geom_bond_site_symmetry_2
_ccdc_geom_bond_type
Eu0 O2 2.472 1_655 S
Eu0 O3 2.507 . S
Eu0 O5 2.336 . S
Eu0 O6 2.389 . S
Eu0 C14 2.835 1_655 S
Eu0 O20 2.396 1_556 S
Eu0 O22 2.323 1_665 S
Eu1 O4 2.396 1_554 S
Eu1 O7 2.323 1_445 S
Eu1 O16 2.472 1_455 S
Eu1 O17 2.507 . S
Eu1 O19 2.336 . S
Eu1 O21 2.389 . S
Eu1 C29 2.835 1_455 S
O2 Eu0 2.472 1_455 S
O2 C14 1.258 . S
O3 Eu0 2.507 . S
O3 C14 1.246 1_655 S
O4 Eu1 2.396 1_556 S
O4 C15 1.216 1_445 S
O5 Eu0 2.336 . S
O5 C15 1.279 . S
O6 Eu0 2.389 . S
O6 C18 1.239 . S
O7 Eu1 2.323 1_665 S
O7 C18 1.249 1_554 S
C8 C11 1.390 . S
C8 C13 1.370 . S
C8 C14 1.489 . S
C9 C10 1.344 . S
C9 C12 1.416 . S
C9 H32 0.931 . S
C10 C9 1.344 . S
C10 C11 1.423 1_554 S
C11 C8 1.390 . S
C11 C10 1.423 1_556 S
C11 H33 0.930 1_455 S
C12 C9 1.416 . S
C12 C13 1.392 1_554 S
C13 C8 1.370 . S
C13 C12 1.392 1_556 S
C13 H34 0.932 1_565 S
C14 Eu0 2.835 1_455 S
C14 O2 1.258 . S
C14 O3 1.246 1_455 S
C14 C8 1.489 . S
C15 O4 1.216 1_665 S
C15 O5 1.279 . S
O16 Eu1 2.472 1_655 S
O16 C29 1.258 . S
O17 Eu1 2.507 . S
O17 C29 1.246 1_455 S
C18 O6 1.239 . S
C18 O7 1.249 1_556 S
O19 Eu1 2.336 . S
O19 C30 1.279 . S
O20 Eu0 2.396 1_554 S
O20 C30 1.216 1_665 S
O21 Eu1 2.389 . S
O21 C31 1.239 . S
O22 Eu0 2.323 1_445 S
O22 C31 1.249 1_556 S
C23 C25 1.370 . S
C23 C28 1.390 . S
C23 C29 1.489 . S
C24 C25 1.393 1_556 S
C24 C26 1.415 . S
C25 C23 1.370 . S
C25 C24 1.393 1_554 S
C25 H35 0.932 1_545 S
C26 C24 1.415 . S
C26 C27 1.344 . S
C26 H36 0.931 . S
C27 C26 1.344 . S
C27 C28 1.423 1_556 S
C28 C23 1.390 . S
C28 C27 1.423 1_554 S
C28 H37 0.930 1_655 S
C29 Eu1 2.835 1_655 S
C29 O16 1.258 . S
C29 O17 1.246 1_655 S
C29 C23 1.489 . S
C30 O19 1.279 . S
C30 O20 1.216 1_445 S
C31 O21 1.239 . S
C31 O22 1.249 1_554 S
H32 C9 0.931 . S
H33 C11 0.930 1_655 S
H34 C13 0.932 1_545 S
H35 C25 0.932 1_565 S
H36 C26 0.931 . S
H37 C28 0.930 1_455 S
C38 C39 1.387 . S
C38 H42 0.950 . S
C38 C47 1.390 1_655 S
C39 C38 1.387 . S
C39 C41 1.387 1_556 S
H40 C47 0.950 . S
C41 C39 1.387 1_554 S
C41 C43 1.390 1_655 S
C41 H45 0.950 . S
H42 C38 0.950 . S
C43 C41 1.390 1_455 S
C43 C44 1.387 . S
C43 H46 0.950 . S
C44 C43 1.387 . S
C44 C47 1.387 1_554 S
H45 C41 0.950 . S
H46 C43 0.950 . S
C47 C38 1.390 1_455 S
C47 H40 0.950 . S
C47 C44 1.387 1_556 S
C48 C49 1.388 1_556 S
C48 H52 0.950 . S
C48 C57 1.390 . S
C49 C48 1.388 1_554 S
C49 C51 1.387 1_565 S
H50 C57 0.950 . S
C51 C49 1.387 1_545 S
C51 C53 1.390 . S
C51 H55 0.950 . S
H52 C48 0.950 . S
C53 C51 1.390 . S
C53 C54 1.388 . S
C53 H56 0.950 . S
C54 C53 1.388 . S
C54 C57 1.387 1_544 S
H55 C51 0.950 . S
H56 C53 0.950 . S
C57 C48 1.390 . S
C57 H50 0.950 . S
C57 C54 1.387 1_566 S
C58 C59 1.384 1_556 S
C58 H62 0.950 . S
C58 C67 1.390 . S
C59 C58 1.384 1_554 S
C59 C61 1.390 . S
H60 C67 0.950 . S
C61 C59 1.390 . S
C61 C63 1.390 . S
C61 H65 0.950 . S
H62 C58 0.950 . S
C63 C61 1.390 . S
C63 C64 1.386 1_554 S
C63 H66 0.950 . S
C64 C63 1.386 1_556 S
C64 C67 1.389 . S
H65 C61 0.950 . S
H66 C63 0.950 . S
C67 C58 1.390 . S
C67 H60 0.950 . S
C67 C64 1.389 . S
C68 C69 1.389 1_455 S
C68 H72 0.950 . S
C68 C77 1.390 . S
C69 C68 1.389 1_655 S
C69 C71 1.389 1_545 S
H70 C77 0.950 . S
C71 C69 1.389 1_565 S
C71 C73 1.390 . S
C71 H75 0.950 . S
H72 C68 0.950 . S
C73 C71 1.390 . S
C73 C74 1.390 1_665 S
C73 H76 0.950 . S
C74 C73 1.390 1_445 S
C74 C77 1.390 . S
H75 C71 0.950 . S
H76 C73 0.950 . S
C77 C68 1.390 . S
C77 H70 0.950 . S
C77 C74 1.390 . S
C39 C27 1.210 . S
C44 C10 1.210 . S
C49 C24 1.767 1_564 S
C54 C12 1.767 1_545 S
C59 C31 1.213 . S
C64 C18 1.213 . S
C69 C15 1.491 1_545 S
C74 C30 1.489 . S
