# Generated by pormake.
# Topology lcy, (6)-cn, num edge types: 1
# Building blocks:
#     Node 0, Type 0, BuildingBlock: IZENUY_clean_sbu_0, # of connection points: 6
#     Node 1, Type 0, BuildingBlock: IZENUY_clean_sbu_0, # of connection points: 6
#     Node 2, Type 0, BuildingBlock: IZENUY_clean_sbu_0, # of connection points: 6
#     Node 3, Type 0, BuildingBlock: IZENUY_clean_sbu_0, # of connection points: 6
#     Edge 4, Type (0, 0), BuildingBlock: OJICUG_clean_linker_0, # of connection points: 2
#     Edge 5, Type (0, 0), BuildingBlock: OJICUG_clean_linker_0, # of connection points: 2
#     Edge 6, Type (0, 0), BuildingBlock: OJICUG_clean_linker_0, # of connection points: 2
#     Edge 7, Type (0, 0), BuildingBlock: OJICUG_clean_linker_0, # of connection points: 2
#     Edge 8, Type (0, 0), BuildingBlock: OJICUG_clean_linker_0, # of connection points: 2
#     Edge 9, Type (0, 0), BuildingBlock: OJICUG_clean_linker_0, # of connection points: 2
#     Edge 10, Type (0, 0), BuildingBlock: OJICUG_clean_linker_0, # of connection points: 2
#     Edge 11, Type (0, 0), BuildingBlock: OJICUG_clean_linker_0, # of connection points: 2
#     Edge 12, Type (0, 0), BuildingBlock: OJICUG_clean_linker_0, # of connection points: 2
#     Edge 13, Type (0, 0), BuildingBlock: OJICUG_clean_linker_0, # of connection points: 2
#     Edge 14, Type (0, 0), BuildingBlock: OJICUG_clean_linker_0, # of connection points: 2
#     Edge 15, Type (0, 0), BuildingBlock: OJICUG_clean_linker_0, # of connection points: 2
# Relax obj value: 0.233
# Max RMSD: 0.227
# Mean RMSD: 0.227
data_MOF--net-lcy--node1-IZENUY_clean_sbu_0--edge1-OJICUG_clean_linker_0
_symmetry_space_group_name_H-M    P1
_symmetry_Int_Tables_number       1
_symmetry_cell_setting            triclinic
loop_
_symmetry_equiv_pos_as_xyz
'x, y, z'
_cell_length_a     18.925867
_cell_length_b     18.925429
_cell_length_c     18.968973
_cell_angle_alpha  90.142646
_cell_angle_beta   89.991743
_cell_angle_gamma 90.027165
loop_
_atom_site_label
_atom_site_type_symbol
_atom_site_fract_x
_atom_site_fract_y
_atom_site_fract_z
_atom_type_partial_charge
Fe0 Fe 0.44582 0.37989 0.31813 0.0
Fe1 Fe 0.38046 0.31626 0.44961 0.0
O2 O 0.38213 0.38252 0.38507 0.0
Fe3 Fe 0.31967 0.45083 0.38814 0.0
O4 O 0.28446 0.42602 0.30415 0.0
O5 O 0.38724 0.42163 0.25037 0.0
O6 O 0.41318 0.29591 0.28765 0.0
C7 C 0.42089 0.24156 0.32443 0.0
C8 C 0.44631 0.51928 0.33919 0.0
O9 O 0.41932 0.24648 0.39138 0.0
C10 C 0.34332 0.44174 0.52611 0.0
O11 O 0.51495 0.33853 0.3757 0.0
O12 O 0.46584 0.34206 0.48082 0.0
O13 O 0.3794 0.51831 0.34756 0.0
O14 O 0.48126 0.46336 0.34509 0.0
C15 C 0.24178 0.32682 0.42755 0.0
O16 O 0.34193 0.37455 0.51994 0.0
O17 O 0.3527 0.47903 0.47237 0.0
C18 C 0.51972 0.33465 0.44287 0.0
O19 O 0.29508 0.2881 0.41981 0.0
O20 O 0.24883 0.39407 0.42827 0.0
C21 C 0.32037 0.43073 0.24876 0.0
Fe22 Fe 0.81921 0.06686 0.63038 0.0
Fe23 Fe 0.8869 0.1978 0.56746 0.0
O24 O 0.88529 0.13186 0.63215 0.0
Fe25 Fe 0.95028 0.13033 0.698 0.0
O26 O 0.98096 0.04567 0.66791 0.0
O27 O 0.87604 0.99677 0.67071 0.0
O28 O 0.84906 0.03585 0.54586 0.0
C29 C 0.84332 0.07362 0.49194 0.0
C30 C 0.82332 0.0867 0.76922 0.0
O31 O 0.84629 0.14076 0.49743 0.0
C32 C 0.931 0.26957 0.69406 0.0
O33 O 0.75101 0.12634 0.59026 0.0
O34 O 0.80263 0.22997 0.59564 0.0
O35 O 0.8907 0.09022 0.76608 0.0
O36 O 0.78697 0.0949 0.71455 0.0
C37 C 0.02557 0.17373 0.5743 0.0
O38 O 0.92722 0.26618 0.62686 0.0
O39 O 0.92272 0.21487 0.73041 0.0
C40 C 0.74789 0.1937 0.58657 0.0
O41 O 0.97149 0.16788 0.53655 0.0
O42 O 0.0203 0.17075 0.64125 0.0
C43 C 0.94319 0.99152 0.67361 0.0
Fe44 Fe 0.06941 0.63728 0.81781 0.0
Fe45 Fe 0.20127 0.57042 0.87978 0.0
O46 O 0.13603 0.63621 0.88201 0.0
Fe47 Fe 0.13822 0.70161 0.94765 0.0
O48 O 0.05412 0.67408 0.9809 0.0
O49 O 1.0015 0.67756 0.8778 0.0
O50 O 0.03772 0.55284 0.84606 0.0
C51 C 0.07421 0.49822 0.83709 0.0
C52 C 0.09356 0.7762 0.82409 0.0
O53 O 0.1416 0.50175 0.84019 0.0
C54 C 0.27683 0.69486 0.9222 0.0
O55 O 0.12586 0.59671 0.74738 0.0
O56 O 0.23125 0.6002 0.79502 0.0
O57 O 0.09715 0.77139 0.89107 0.0
O58 O 0.09879 0.72182 0.78655 0.0
C59 C 0.18272 0.57498 0.01878 0.0
O60 O 0.27165 0.62769 0.91953 0.0
O61 O 0.22253 0.7324 0.91677 0.0
C62 C 0.19296 0.59417 0.74141 0.0
O63 O 0.17431 0.53835 0.96421 0.0
O64 O 0.17909 0.64236 0.01556 0.0
C65 C 0.99891 0.68154 0.94505 0.0
Fe66 Fe 0.56491 0.88756 0.19949 0.0
Fe67 Fe 0.70059 0.9473 0.13911 0.0
O68 O 0.63166 0.88551 0.13518 0.0
Fe69 Fe 0.62858 0.82231 0.06759 0.0
O70 O 0.54507 0.8561 0.03745 0.0
O71 O 0.49501 0.84949 0.14088 0.0
O72 O 0.53774 0.97327 0.17004 0.0
C73 C 0.5769 0.02625 0.178 0.0
C74 C 0.58273 0.74813 0.19193 0.0
O75 O 0.64409 0.01858 0.17932 0.0
C76 C 0.7681 0.82025 0.08931 0.0
O77 O 0.62307 0.92542 0.27032 0.0
O78 O 0.72769 0.91352 0.22322 0.0
O79 O 0.58645 0.75318 0.12474 0.0
O80 O 0.58972 0.80189 0.23027 0.0
C81 C 0.681 0.94768 0.99954 0.0
O82 O 0.76783 0.88708 0.09855 0.0
O83 O 0.71173 0.78569 0.09368 0.0
C84 C 0.69019 0.9233 0.27683 0.0
O85 O 0.67703 0.98326 0.05529 0.0
O86 O 0.67105 0.88094 1.00044 0.0
C87 C 0.4904 0.84849 0.0739 0.0
C88 C 0.20441 0.55859 0.14813 0.0
C89 C 0.2184 0.53967 0.07829 0.0
H90 H 0.2251 0.53751 0.25684 0.0
C91 C 0.26814 0.48573 0.0644 0.0
H92 H 0.16701 0.60024 0.16015 0.0
C93 C 0.30263 0.45076 0.11937 0.0
C94 C 0.28656 0.46778 0.18924 0.0
H95 H 0.28098 0.47092 0.01069 0.0
H96 H 0.34062 0.40967 0.10733 0.0
C97 C 0.23747 0.52231 0.20313 0.0
C98 C 0.69402 0.01074 0.37649 0.0
C99 C 0.72657 0.95652 0.33764 0.0
H100 H 0.70734 0.094 0.45236 0.0
C101 C 0.799 0.94322 0.34858 0.0
H102 H 0.63838 0.02199 0.36971 0.0
C103 C 0.83811 0.98374 0.39641 0.0
C104 C 0.80631 0.04 0.4325 0.0
H105 H 0.8257 0.90186 0.31932 0.0
H106 H 0.89317 0.971 0.40547 0.0
C107 C 0.7338 0.05285 0.42264 0.0
C108 C 0.28255 0.58943 0.64589 0.0
C109 C 0.22621 0.55751 0.6816 0.0
H110 H 0.3646 0.57722 0.56912 0.0
C111 C 0.2132 0.48507 0.6712 0.0
H112 H 0.29538 0.64444 0.65536 0.0
C113 C 0.25536 0.44544 0.62502 0.0
C114 C 0.30981 0.47807 0.58672 0.0
H115 H 0.17196 0.45853 0.70061 0.0
H116 H 0.24402 0.38983 0.61781 0.0
C117 C 0.32312 0.55047 0.59803 0.0
C118 C 0.77355 0.02917 0.95353 0.0
C119 C 0.71748 0.98177 0.9399 0.0
H120 H 0.85212 0.09874 0.9102 0.0
C121 C 0.69796 0.96813 0.8702 0.0
H122 H 0.79052 0.03967 1.00709 0.0
C123 C 0.73219 1.00328 0.81518 0.0
C124 C 0.78786 0.05123 0.82879 0.0
H125 H 0.65551 0.93155 0.8584 0.0
H126 H 0.71557 0.99216 0.76163 0.0
C127 C 0.80908 0.06285 0.8984 0.0
C128 C 0.11789 0.18096 0.4818 0.0
C129 C 0.08501 0.21073 0.54096 0.0
H130 H 0.19283 0.1953 0.39852 0.0
C131 C 0.09798 0.28199 0.55774 0.0
H132 H 0.10639 0.12704 0.46623 0.0
C133 C 0.14418 0.32245 0.51656 0.0
C134 C 0.17985 0.29162 0.45936 0.0
H135 H 0.0707 0.30703 0.60135 0.0
H136 H 0.15372 0.37699 0.53088 0.0
C137 C 0.16576 0.22058 0.44214 0.0
C138 C 0.99324 0.86101 0.81487 0.0
C139 C 0.05887 0.83676 0.78996 0.0
H140 H 0.90283 0.92666 0.79511 0.0
C141 C 0.08311 0.85981 0.72395 0.0
H142 H 0.97232 0.84217 0.86458 0.0
C143 C 0.04339 0.90754 0.68424 0.0
C144 C 0.97738 0.9311 0.7085 0.0
H145 H 0.13263 0.8403 0.70284 0.0
H146 H 0.06447 0.9266 0.63469 0.0
C147 C 0.95253 0.90742 0.77418 0.0
C148 C 0.36181 0.79469 0.93166 0.0
C149 C 0.3374 0.72939 0.9569 0.0
H150 H 0.42923 0.88413 0.94966 0.0
C151 C 0.36008 0.70597 0.0234 0.0
H152 H 0.34347 0.81475 0.88144 0.0
C153 C 0.40606 0.74743 0.06406 0.0
C154 C 0.43112 0.81241 0.03834 0.0
H155 H 0.34018 0.65691 0.04508 0.0
H156 H 0.42372 0.72764 0.1146 0.0
C157 C 0.40929 0.83511 0.97136 0.0
C158 C 0.43128 0.15206 0.22887 0.0
C159 C 0.45908 0.18322 0.28992 0.0
H160 H 0.44774 0.07828 0.14467 0.0
C161 C 0.52946 0.16881 0.30893 0.0
H162 H 0.37812 0.16449 0.2117 0.0
C163 C 0.57084 0.12287 0.26818 0.0
C164 C 0.54176 0.08867 0.20921 0.0
H165 H 0.55313 0.19459 0.35416 0.0
H166 H 0.6246 0.11218 0.28429 0.0
C167 C 0.47173 0.10429 0.18966 0.0
C168 C 0.7027 0.28823 0.50656 0.0
C169 C 0.68884 0.22891 0.54965 0.0
H170 H 0.66025 0.3673 0.43719 0.0
C171 C 0.61978 0.203 0.55386 0.0
H172 H 0.75588 0.30861 0.50086 0.0
C173 C 0.56527 0.23747 0.51806 0.0
C174 C 0.57917 0.29726 0.47597 0.0
H175 H 0.6078 0.15704 0.58563 0.0
H176 H 0.51191 0.21735 0.52322 0.0
C177 C 0.64843 0.32159 0.46939 0.0
C178 C 0.98566 0.4536 0.75016 0.0
C179 C 0.03901 0.43901 0.80018 0.0
H180 H 0.91052 0.41155 0.676 0.0
C181 C 0.05795 0.36881 0.81274 0.0
H182 H 0.97094 0.50759 0.73828 0.0
C183 C 0.02213 0.31413 0.77813 0.0
C184 C 0.96815 0.32874 0.72886 0.0
H185 H 0.09926 0.35624 0.85018 0.0
H186 H 0.03715 0.2601 0.78948 0.0
C187 C 0.95123 0.39898 0.7141 0.0
C188 C 0.86911 0.69996 0.96485 0.0
C189 C 0.93917 0.71681 0.98088 0.0
H190 H 0.76018 0.71856 0.98815 0.0
C191 C 0.95305 0.76899 0.03245 0.0
H192 H 0.85706 0.66053 0.92513 0.0
C193 C 0.89789 0.80345 0.06758 0.0
C194 C 0.82782 0.78496 0.05326 0.0
H195 H 1.00687 0.78391 0.04504 0.0
H196 H 0.90999 0.84367 0.10648 0.0
C197 C 0.81398 0.73298 1.0014 0.0
C198 C 0.48452 0.70084 0.26459 0.0
C199 C 0.5464 0.68812 0.22516 0.0
H200 H 0.40393 0.65758 0.3315 0.0
C201 C 0.57505 0.62024 0.22355 0.0
H202 H 0.46152 0.75325 0.26642 0.0
C203 C 0.54324 0.56615 0.26237 0.0
C204 C 0.48136 0.57871 0.30239 0.0
H205 H 0.62285 0.60951 0.19397 0.0
H206 H 0.56685 0.51407 0.26017 0.0
C207 C 0.45178 0.64647 0.30217 0.0
loop_
_geom_bond_atom_site_label_1
_geom_bond_atom_site_label_2
_geom_bond_distance
_geom_bond_site_symmetry_2
_ccdc_geom_bond_type
Fe0 O2 1.918 . S
Fe0 O5 1.997 . S
Fe0 O6 2.002 . S
Fe0 O11 1.976 . S
Fe0 O14 1.996 . S
Fe1 O2 1.918 . S
Fe1 O9 1.997 . S
Fe1 O12 1.996 . S
Fe1 O16 1.976 . S
Fe1 O19 2.002 . S
O2 Fe0 1.918 . S
O2 Fe1 1.918 . S
O2 Fe3 1.918 . S
Fe3 O2 1.918 . S
Fe3 O4 2.002 . S
Fe3 O13 1.976 . S
Fe3 O17 1.996 . S
Fe3 O20 1.997 . S
O4 Fe3 2.002 . S
O4 C21 1.295 . S
O5 Fe0 1.997 . S
O5 C21 1.235 . S
O6 Fe0 2.002 . S
O6 C7 1.295 . S
C7 O6 1.295 . S
C7 O9 1.235 . S
C8 O13 1.287 . S
C8 O14 1.255 . S
O9 Fe1 1.997 . S
O9 C7 1.235 . S
C10 O16 1.287 . S
C10 O17 1.255 . S
O11 Fe0 1.976 . S
O11 C18 1.287 . S
O12 Fe1 1.996 . S
O12 C18 1.255 . S
O13 Fe3 1.976 . S
O13 C8 1.287 . S
O14 Fe0 1.996 . S
O14 C8 1.255 . S
C15 O19 1.295 . S
C15 O20 1.235 . S
O16 Fe1 1.976 . S
O16 C10 1.287 . S
O17 Fe3 1.996 . S
O17 C10 1.255 . S
C18 O11 1.287 . S
C18 O12 1.255 . S
O19 Fe1 2.002 . S
O19 C15 1.295 . S
O20 Fe3 1.997 . S
O20 C15 1.235 . S
C21 O4 1.295 . S
C21 O5 1.235 . S
Fe22 O24 1.918 . S
Fe22 O27 1.997 1_545 S
Fe22 O28 2.002 . S
Fe22 O33 1.976 . S
Fe22 O36 1.996 . S
Fe23 O24 1.918 . S
Fe23 O31 1.997 . S
Fe23 O34 1.996 . S
Fe23 O38 1.976 . S
Fe23 O41 2.002 . S
O24 Fe22 1.918 . S
O24 Fe23 1.918 . S
O24 Fe25 1.918 . S
Fe25 O24 1.918 . S
Fe25 O26 2.002 . S
Fe25 O35 1.976 . S
Fe25 O39 1.996 . S
Fe25 O42 1.997 1_655 S
O26 Fe25 2.002 . S
O26 C43 1.295 1_545 S
O27 Fe22 1.997 1_565 S
O27 C43 1.235 . S
O28 Fe22 2.002 . S
O28 C29 1.295 . S
C29 O28 1.295 . S
C29 O31 1.235 . S
C30 O35 1.287 . S
C30 O36 1.255 . S
O31 Fe23 1.997 . S
O31 C29 1.235 . S
C32 O38 1.287 . S
C32 O39 1.255 . S
O33 Fe22 1.976 . S
O33 C40 1.287 . S
O34 Fe23 1.996 . S
O34 C40 1.255 . S
O35 Fe25 1.976 . S
O35 C30 1.287 . S
O36 Fe22 1.996 . S
O36 C30 1.255 . S
C37 O41 1.295 1_455 S
C37 O42 1.235 . S
O38 Fe23 1.976 . S
O38 C32 1.287 . S
O39 Fe25 1.996 . S
O39 C32 1.255 . S
C40 O33 1.287 . S
C40 O34 1.255 . S
O41 Fe23 2.002 . S
O41 C37 1.295 1_655 S
O42 Fe25 1.997 1_455 S
O42 C37 1.235 . S
C43 O26 1.295 1_565 S
C43 O27 1.235 . S
Fe44 O46 1.918 . S
Fe44 O49 1.997 1_455 S
Fe44 O50 2.002 . S
Fe44 O55 1.976 . S
Fe44 O58 1.996 . S
Fe45 O46 1.918 . S
Fe45 O53 1.997 . S
Fe45 O56 1.996 . S
Fe45 O60 1.976 . S
Fe45 O63 2.002 . S
O46 Fe44 1.918 . S
O46 Fe45 1.918 . S
O46 Fe47 1.918 . S
Fe47 O46 1.918 . S
Fe47 O48 2.002 . S
Fe47 O57 1.976 . S
Fe47 O61 1.996 . S
Fe47 O64 1.997 1_556 S
O48 Fe47 2.002 . S
O48 C65 1.295 1_455 S
O49 Fe44 1.997 1_655 S
O49 C65 1.235 . S
O50 Fe44 2.002 . S
O50 C51 1.295 . S
C51 O50 1.295 . S
C51 O53 1.235 . S
C52 O57 1.287 . S
C52 O58 1.255 . S
O53 Fe45 1.997 . S
O53 C51 1.235 . S
C54 O60 1.287 . S
C54 O61 1.255 . S
O55 Fe44 1.976 . S
O55 C62 1.287 . S
O56 Fe45 1.996 . S
O56 C62 1.255 . S
O57 Fe47 1.976 . S
O57 C52 1.287 . S
O58 Fe44 1.996 . S
O58 C52 1.255 . S
C59 O63 1.295 1_554 S
C59 O64 1.235 . S
O60 Fe45 1.976 . S
O60 C54 1.287 . S
O61 Fe47 1.996 . S
O61 C54 1.255 . S
C62 O55 1.287 . S
C62 O56 1.255 . S
O63 Fe45 2.002 . S
O63 C59 1.295 1_556 S
O64 Fe47 1.997 1_554 S
O64 C59 1.235 . S
C65 O48 1.295 1_655 S
C65 O49 1.235 . S
Fe66 O68 1.918 . S
Fe66 O71 1.997 . S
Fe66 O72 2.002 . S
Fe66 O77 1.976 . S
Fe66 O80 1.996 . S
Fe67 O68 1.918 . S
Fe67 O75 1.997 1_565 S
Fe67 O78 1.996 . S
Fe67 O82 1.976 . S
Fe67 O85 2.002 . S
O68 Fe66 1.918 . S
O68 Fe67 1.918 . S
O68 Fe69 1.918 . S
Fe69 O68 1.918 . S
Fe69 O70 2.002 . S
Fe69 O79 1.976 . S
Fe69 O83 1.996 . S
Fe69 O86 1.997 1_554 S
O70 Fe69 2.002 . S
O70 C87 1.295 . S
O71 Fe66 1.997 . S
O71 C87 1.235 . S
O72 Fe66 2.002 . S
O72 C73 1.295 1_565 S
C73 O72 1.295 1_545 S
C73 O75 1.235 . S
C74 O79 1.287 . S
C74 O80 1.255 . S
O75 Fe67 1.997 1_545 S
O75 C73 1.235 . S
C76 O82 1.287 . S
C76 O83 1.255 . S
O77 Fe66 1.976 . S
O77 C84 1.287 . S
O78 Fe67 1.996 . S
O78 C84 1.255 . S
O79 Fe69 1.976 . S
O79 C74 1.287 . S
O80 Fe66 1.996 . S
O80 C74 1.255 . S
C81 O85 1.295 1_556 S
C81 O86 1.235 . S
O82 Fe67 1.976 . S
O82 C76 1.287 . S
O83 Fe69 1.996 . S
O83 C76 1.255 . S
C84 O77 1.287 . S
C84 O78 1.255 . S
O85 Fe67 2.002 . S
O85 C81 1.295 1_554 S
O86 Fe69 1.997 1_556 S
O86 C81 1.235 . S
C87 O70 1.295 . S
C87 O71 1.235 . S
C88 C89 1.387 . S
C88 H92 0.950 . S
C88 C97 1.390 . S
C89 C88 1.387 . S
C89 C91 1.387 . S
H90 C97 0.950 . S
C91 C89 1.387 . S
C91 C93 1.390 . S
C91 H95 0.950 . S
H92 C88 0.950 . S
C93 C91 1.390 . S
C93 C94 1.387 . S
C93 H96 0.950 . S
C94 C93 1.387 . S
C94 C97 1.387 . S
H95 C91 0.950 . S
H96 C93 0.950 . S
C97 C88 1.390 . S
C97 H90 0.950 . S
C97 C94 1.387 . S
C98 C99 1.387 . S
C98 H102 0.950 . S
C98 C107 1.390 1_565 S
C99 C98 1.387 . S
C99 C101 1.387 . S
H100 C107 0.950 . S
C101 C99 1.387 . S
C101 C103 1.390 1_565 S
C101 H105 0.950 . S
H102 C98 0.950 . S
C103 C101 1.390 1_545 S
C103 C104 1.387 . S
C103 H106 0.950 . S
C104 C103 1.387 . S
C104 C107 1.387 . S
H105 C101 0.950 . S
H106 C103 0.950 . S
C107 C98 1.390 1_545 S
C107 H100 0.950 . S
C107 C104 1.387 . S
C108 C109 1.387 . S
C108 H112 0.950 . S
C108 C117 1.390 . S
C109 C108 1.387 . S
C109 C111 1.387 . S
H110 C117 0.950 . S
C111 C109 1.387 . S
C111 C113 1.390 . S
C111 H115 0.950 . S
H112 C108 0.950 . S
C113 C111 1.390 . S
C113 C114 1.387 . S
C113 H116 0.950 . S
C114 C113 1.387 . S
C114 C117 1.387 . S
H115 C111 0.950 . S
H116 C113 0.950 . S
C117 C108 1.390 . S
C117 H110 0.950 . S
C117 C114 1.387 . S
C118 C119 1.387 1_545 S
C118 H122 0.950 . S
C118 C127 1.390 . S
C119 C118 1.387 1_565 S
C119 C121 1.387 . S
H120 C127 0.950 . S
C121 C119 1.387 . S
C121 C123 1.390 1_565 S
C121 H125 0.950 . S
H122 C118 0.950 . S
C123 C121 1.390 1_545 S
C123 C124 1.387 . S
C123 H126 0.950 . S
C124 C123 1.387 . S
C124 C127 1.387 . S
H125 C121 0.950 . S
H126 C123 0.950 . S
C127 C118 1.390 . S
C127 H120 0.950 . S
C127 C124 1.387 . S
C128 C129 1.387 . S
C128 H132 0.950 . S
C128 C137 1.390 . S
C129 C128 1.387 . S
C129 C131 1.387 . S
H130 C137 0.950 . S
C131 C129 1.387 . S
C131 C133 1.390 . S
C131 H135 0.950 . S
H132 C128 0.950 . S
C133 C131 1.390 . S
C133 C134 1.387 . S
C133 H136 0.950 . S
C134 C133 1.387 . S
C134 C137 1.387 . S
H135 C131 0.950 . S
H136 C133 0.950 . S
C137 C128 1.390 . S
C137 H130 0.950 . S
C137 C134 1.387 . S
C138 C139 1.387 1_655 S
C138 H142 0.950 . S
C138 C147 1.390 . S
C139 C138 1.387 1_455 S
C139 C141 1.387 . S
H140 C147 0.950 . S
C141 C139 1.387 . S
C141 C143 1.390 . S
C141 H145 0.950 . S
H142 C138 0.950 . S
C143 C141 1.390 . S
C143 C144 1.387 1_455 S
C143 H146 0.950 . S
C144 C143 1.387 1_655 S
C144 C147 1.387 . S
H145 C141 0.950 . S
H146 C143 0.950 . S
C147 C138 1.390 . S
C147 H140 0.950 . S
C147 C144 1.387 . S
C148 C149 1.387 . S
C148 H152 0.950 . S
C148 C157 1.390 . S
C149 C148 1.387 . S
C149 C151 1.387 1_556 S
H150 C157 0.950 . S
C151 C149 1.387 1_554 S
C151 C153 1.390 . S
C151 H155 0.950 . S
H152 C148 0.950 . S
C153 C151 1.390 . S
C153 C154 1.387 . S
C153 H156 0.950 . S
C154 C153 1.387 . S
C154 C157 1.387 1_554 S
H155 C151 0.950 . S
H156 C153 0.950 . S
C157 C148 1.390 . S
C157 H150 0.950 . S
C157 C154 1.387 1_556 S
C158 C159 1.387 . S
C158 H162 0.950 . S
C158 C167 1.390 . S
C159 C158 1.387 . S
C159 C161 1.387 . S
H160 C167 0.950 . S
C161 C159 1.387 . S
C161 C163 1.390 . S
C161 H165 0.950 . S
H162 C158 0.950 . S
C163 C161 1.390 . S
C163 C164 1.387 . S
C163 H166 0.950 . S
C164 C163 1.387 . S
C164 C167 1.387 . S
H165 C161 0.950 . S
H166 C163 0.950 . S
C167 C158 1.390 . S
C167 H160 0.950 . S
C167 C164 1.387 . S
C168 C169 1.387 . S
C168 H172 0.950 . S
C168 C177 1.390 . S
C169 C168 1.387 . S
C169 C171 1.387 . S
H170 C177 0.950 . S
C171 C169 1.387 . S
C171 C173 1.390 . S
C171 H175 0.950 . S
H172 C168 0.950 . S
C173 C171 1.390 . S
C173 C174 1.387 . S
C173 H176 0.950 . S
C174 C173 1.387 . S
C174 C177 1.387 . S
H175 C171 0.950 . S
H176 C173 0.950 . S
C177 C168 1.390 . S
C177 H170 0.950 . S
C177 C174 1.387 . S
C178 C179 1.387 1_655 S
C178 H182 0.950 . S
C178 C187 1.390 . S
C179 C178 1.387 1_455 S
C179 C181 1.387 . S
H180 C187 0.950 . S
C181 C179 1.387 . S
C181 C183 1.390 1_455 S
C181 H185 0.950 . S
H182 C178 0.950 . S
C183 C181 1.390 1_655 S
C183 C184 1.387 . S
C183 H186 0.952 . S
C184 C183 1.387 . S
C184 C187 1.387 . S
H185 C181 0.950 . S
H186 C183 0.952 . S
C187 C178 1.390 . S
C187 H180 0.950 . S
C187 C184 1.387 . S
C188 C189 1.387 . S
C188 H192 0.950 . S
C188 C197 1.390 1_556 S
C189 C188 1.387 . S
C189 C191 1.387 1_556 S
H190 C197 0.950 . S
C191 C189 1.387 1_554 S
C191 C193 1.390 . S
C191 H195 0.946 1_655 S
H192 C188 0.950 . S
C193 C191 1.390 . S
C193 C194 1.387 . S
C193 H196 0.950 . S
C194 C193 1.387 . S
C194 C197 1.387 . S
H195 C191 0.946 1_455 S
H196 C193 0.950 . S
C197 C188 1.390 1_554 S
C197 H190 0.950 . S
C197 C194 1.387 . S
C198 C199 1.387 . S
C198 H202 0.950 . S
C198 C207 1.390 . S
C199 C198 1.387 . S
C199 C201 1.387 . S
H200 C207 0.950 . S
C201 C199 1.387 . S
C201 C203 1.390 . S
C201 H205 0.950 . S
H202 C198 0.950 . S
C203 C201 1.390 . S
C203 C204 1.387 . S
C203 H206 0.950 . S
C204 C203 1.387 . S
C204 C207 1.387 . S
H205 C201 0.950 . S
H206 C203 0.950 . S
C207 C198 1.390 . S
C207 H200 0.950 . S
C207 C204 1.387 . S
C89 C59 1.491 . S
C94 C21 1.486 . S
C99 C84 1.466 . S
C104 C29 1.443 . S
C109 C62 1.422 . S
C114 C10 1.426 . S
C119 C81 1.444 . S
C124 C30 1.466 . S
C129 C37 1.494 . S
C134 C15 1.487 . S
C139 C52 1.466 . S
C144 C43 1.441 . S
C149 C54 1.469 . S
C154 C87 1.445 . S
C159 C7 1.487 . S
C164 C73 1.493 . S
C169 C40 1.420 . S
C174 C18 1.424 . S
C179 C51 1.444 . S
C184 C32 1.467 . S
C189 C65 1.442 . S
C194 C76 1.468 . S
C199 C74 1.421 . S
C204 C8 1.424 . S
