# Generated by pormake.
# Topology fne, (5)-cn, num edge types: 1
# Building blocks:
#     Node 0, Type 0, BuildingBlock: XOMCOT_clean_sbu_1, # of connection points: 5
#     Node 1, Type 0, BuildingBlock: XOMCOT_clean_sbu_1, # of connection points: 5
#     Node 2, Type 0, BuildingBlock: XOMCOT_clean_sbu_1, # of connection points: 5
#     Node 3, Type 0, BuildingBlock: XOMCOT_clean_sbu_1, # of connection points: 5
#     Node 4, Type 0, BuildingBlock: XOMCOT_clean_sbu_1, # of connection points: 5
#     Node 5, Type 0, BuildingBlock: XOMCOT_clean_sbu_1, # of connection points: 5
#     Edge 6, Type (0, 0), None
#     Edge 7, Type (0, 0), None
#     Edge 8, Type (0, 0), None
#     Edge 9, Type (0, 0), None
#     Edge 10, Type (0, 0), None
#     Edge 11, Type (0, 0), None
#     Edge 12, Type (0, 0), None
#     Edge 13, Type (0, 0), None
#     Edge 14, Type (0, 0), None
#     Edge 15, Type (0, 0), None
#     Edge 16, Type (0, 0), None
#     Edge 17, Type (0, 0), None
#     Edge 18, Type (0, 0), None
#     Edge 19, Type (0, 0), None
#     Edge 20, Type (0, 0), None
# Relax obj value: 0.117
# Max RMSD: 0.141
# Mean RMSD: 0.141
data_MOF--net-fne--node1-XOMCOT_clean_sbu_1--edge1-none
_symmetry_space_group_name_H-M    P1
_symmetry_Int_Tables_number       1
_symmetry_cell_setting            triclinic
loop_
_symmetry_equiv_pos_as_xyz
'x, y, z'
_cell_length_a     21.820252
_cell_length_b     21.820684
_cell_length_c     9.0891691
_cell_angle_alpha  90.002913
_cell_angle_beta   89.99258
_cell_angle_gamma 120.00058
loop_
_atom_site_label
_atom_site_type_symbol
_atom_site_fract_x
_atom_site_fract_y
_atom_site_fract_z
_atom_type_partial_charge
C0 C 0.31635 0.9155 0.29575 0.0
C1 C 0.32166 0.92344 0.44651 0.0
N2 N 0.30401 0.9724 0.48344 0.0
N3 N 0.29661 0.96016 0.23899 0.0
C4 C 0.28579 0.99115 0.35732 0.0
H5 H 0.33552 0.88698 0.23086 0.0
Co6 Co 0.31992 0.99804 0.04959 0.0
C7 C 0.37995 0.14923 0.13116 0.0
O8 O 0.43097 0.16484 0.03581 0.0
N9 N 0.34061 1.03349 0.85731 0.0
C10 C 0.318 0.06972 0.64522 0.0
C11 C 0.329 0.08295 0.7941 0.0
C12 C 0.33619 0.99099 0.74453 0.0
N13 N 0.32156 1.01111 0.61618 0.0
O14 O 0.22046 0.95711 0.99318 0.0
H15 H 0.31987 0.12061 0.85319 0.0
H16 H 0.33372 0.9407 0.75887 0.0
O17 O 0.32638 0.08674 0.13046 0.0
C18 C 0.20452 0.89837 0.93038 0.0
O19 O 0.24447 0.8706 0.95963 0.0
N20 N 0.41821 1.03135 0.09259 0.0
C21 C 0.56224 0.0764 0.12463 0.0
C22 C 0.52673 0.09268 0.23238 0.0
C23 C 0.45417 0.06863 0.21538 0.0
C24 C 0.45119 1.009 0.99688 0.0
C25 C 0.52319 1.0324 1.0083 0.0
H26 H 0.42757 0.08128 0.29992 0.0
H27 H 0.42207 0.9723 0.9108 0.0
H28 H 0.27262 1.03259 0.35129 0.0
H29 H 0.34436 0.90113 0.52005 0.0
H30 H 0.30314 0.09769 0.5679 0.0
H31 H 0.55502 0.12523 0.32612 0.0
H32 H 0.54837 1.01639 0.92602 0.0
C33 C 0.49305 0.30739 0.62905 0.0
C34 C 0.49041 0.31269 0.77983 0.0
N35 N 0.42379 0.29503 0.81676 0.0
N36 N 0.42865 0.28764 0.57231 0.0
C37 C 0.38683 0.27681 0.69064 0.0
H38 H 0.54073 0.32657 0.56417 0.0
Co39 Co 0.41406 0.31094 0.38291 0.0
C40 C 0.32288 0.37094 0.46451 0.0
O41 O 0.35829 0.42196 0.36916 0.0
N42 N 0.39929 0.33162 0.19064 0.0
C43 C 0.34045 0.30899 0.97856 0.0
C44 C 0.33821 0.31999 0.12744 0.0
C45 C 0.43738 0.32721 0.07786 0.0
N46 N 0.40263 0.31257 0.94951 0.0
O47 O 0.35554 0.21147 0.3265 0.0
H48 H 0.29142 0.31085 0.18654 0.0
H49 H 0.48521 0.32475 0.09217 0.0
O50 O 0.33181 0.31738 0.4638 0.0
C51 C 0.39836 0.19557 0.26366 0.0
O52 O 0.46609 0.23552 0.29289 0.0
N53 N 0.47903 0.40923 0.42592 0.0
C54 C 0.57799 0.55326 0.45795 0.0
C55 C 0.5262 0.51775 0.56571 0.0
C56 C 0.47771 0.44519 0.54871 0.0
C57 C 0.53436 0.4422 0.33021 0.0
C58 C 0.58296 0.51421 0.34163 0.0
H59 H 0.43846 0.41859 0.63325 0.0
H60 H 0.54196 0.41309 0.24414 0.0
H61 H 0.33222 0.26362 0.68461 0.0
H62 H 0.53542 0.3354 0.85336 0.0
H63 H 0.29761 0.29412 0.90124 0.0
H64 H 0.52196 0.54605 0.65945 0.0
H65 H 0.62415 0.53939 0.25935 0.0
C66 C 0.27782 0.48406 0.96243 0.0
C67 C 0.26989 0.48142 0.1132 0.0
N68 N 0.22093 0.4148 0.15012 0.0
N69 N 0.23318 0.41966 0.90567 0.0
C70 C 0.20219 0.37785 0.024 0.0
H71 H 0.30634 0.53174 0.89755 0.0
Co72 Co 0.1953 0.40508 0.71628 0.0
C73 C 1.0441 0.3139 0.79788 0.0
O74 O 1.02849 0.34931 0.70255 0.0
N75 N 0.15985 0.39031 0.52401 0.0
C76 C 0.12362 0.33147 0.31191 0.0
C77 C 0.11039 0.32923 0.4608 0.0
C78 C 0.20234 0.42839 0.41123 0.0
N79 N 0.18223 0.39365 0.28287 0.0
O80 O 0.23623 0.34655 0.65985 0.0
H81 H 0.07273 0.28244 0.51989 0.0
H82 H 0.25264 0.47622 0.42555 0.0
O83 O 0.1066 0.32283 0.79716 0.0
C84 C 0.29496 0.38936 0.59702 0.0
O85 O 0.32275 0.45709 0.62627 0.0
N86 N 0.16199 0.47005 0.75929 0.0
C87 C 0.11692 0.56902 0.7913 0.0
C88 C 0.10063 0.51723 0.89905 0.0
C89 C 0.12469 0.46873 0.88207 0.0
C90 C 0.18436 0.52538 0.6636 0.0
C91 C 0.16096 0.57399 0.67501 0.0
H92 H 0.11202 0.42948 0.96661 0.0
H93 H 0.22108 0.53298 0.57755 0.0
H94 H 0.16076 0.32323 1.01796 0.0
H95 H 0.29219 0.52643 0.18675 0.0
H96 H 0.09565 0.28863 0.23458 0.0
H97 H 0.06807 0.51299 0.99277 0.0
H98 H 0.17698 0.61517 0.59273 0.0
C99 C 0.88591 0.2688 0.29581 0.0
C100 C 0.88061 0.26087 0.44658 0.0
N101 N 0.89829 0.21192 0.48348 0.0
N102 N 0.90568 0.22417 0.23903 0.0
C103 C 0.91652 0.19319 0.35734 0.0
H104 H 0.86673 0.29731 0.23094 0.0
Co105 Co 0.88239 0.18629 0.04963 0.0
C106 C 0.8224 1.0351 0.13121 0.0
O107 O 0.77138 1.01948 0.03587 0.0
N108 N 0.86173 0.15085 0.85735 0.0
C109 C 0.88434 0.11462 0.64524 0.0
C110 C 0.87335 0.10139 0.79413 0.0
C111 C 0.86612 0.19333 0.74459 0.0
N112 N 0.88076 0.17322 0.61622 0.0
O113 O 0.98186 0.22725 0.99321 0.0
H114 H 0.8825 0.06375 0.8532 0.0
H115 H 0.86858 0.24362 0.75893 0.0
O116 O 0.87596 0.0976 0.1305 0.0
C117 C 0.99776 0.28597 0.93039 0.0
O118 O 0.95781 0.31374 0.95965 0.0
N119 N 0.7841 0.15296 0.09264 0.0
C120 C 0.64006 0.10787 0.12463 0.0
C121 C 0.67556 0.09159 0.23239 0.0
C122 C 0.74812 0.11566 0.21541 0.0
C123 C 0.75113 0.17532 0.99696 0.0
C124 C 0.67912 0.15191 1.00836 0.0
H125 H 0.77471 0.10301 0.29995 0.0
H126 H 0.78027 0.21206 0.91093 0.0
H127 H 0.92972 0.15178 0.35129 0.0
H128 H 0.8579 0.28316 0.52014 0.0
H129 H 0.89921 0.08666 0.5679 0.0
H130 H 0.64724 0.05903 0.32611 0.0
H131 H 0.65396 0.16793 0.92609 0.0
C132 C 0.70929 0.87694 0.62916 0.0
C133 C 0.71193 0.87164 0.77993 0.0
N134 N 0.77855 0.88931 0.81682 0.0
N135 N 0.77369 0.8967 0.57238 0.0
C136 C 0.8155 0.90753 0.69069 0.0
H137 H 0.66161 0.85777 0.5643 0.0
Co138 Co 0.78827 0.8734 0.38297 0.0
C139 C 0.87946 0.81339 0.46452 0.0
O140 O 0.84405 0.76237 0.36918 0.0
N141 N 0.80304 0.85273 0.19068 0.0
C142 C 0.86189 0.87534 0.97857 0.0
C143 C 0.86412 0.86434 0.12745 0.0
C144 C 0.76496 0.85713 0.07792 0.0
N145 N 0.79971 0.87176 0.94955 0.0
O146 O 0.8468 0.97287 0.32654 0.0
H147 H 0.91091 0.87348 0.18651 0.0
H148 H 0.71713 0.8596 0.09227 0.0
O149 O 0.87052 0.86695 0.46381 0.0
C150 C 0.80399 0.98878 0.26373 0.0
O151 O 0.73626 0.94883 0.293 0.0
N152 N 0.7233 0.77511 0.42597 0.0
C153 C 0.62435 0.63108 0.45797 0.0
C154 C 0.67613 0.66658 0.56572 0.0
C155 C 0.72462 0.73914 0.54874 0.0
C156 C 0.66798 0.74215 0.33029 0.0
C157 C 0.61937 0.67014 0.34169 0.0
H158 H 0.76387 0.76573 0.63328 0.0
H159 H 0.66038 0.77127 0.24425 0.0
H160 H 0.87012 0.92072 0.68462 0.0
H161 H 0.66692 0.84893 0.85349 0.0
H162 H 0.90472 0.8902 0.90122 0.0
H163 H 0.68037 0.63827 0.65944 0.0
H164 H 0.57819 0.64497 0.25942 0.0
C165 C 0.92452 0.7003 0.96245 0.0
C166 C 0.93246 0.70293 0.11321 0.0
N167 N 0.98141 0.76955 0.15012 0.0
N168 N 0.96915 0.7647 0.90568 0.0
C169 C 1.00014 0.80651 0.024 0.0
H170 H 0.89601 0.65261 0.89757 0.0
Co171 Co 1.00704 0.77928 0.71627 0.0
C172 C 0.15823 0.87049 0.79781 0.0
O173 O 0.17389 0.83511 0.70248 0.0
N174 N 1.04249 0.79406 0.52398 0.0
C175 C 0.07872 0.8529 0.31187 0.0
C176 C 0.09195 0.85514 0.46075 0.0
C177 C 1.00001 0.75597 0.41121 0.0
N178 N 1.02011 0.79071 0.28285 0.0
O179 O 0.96609 0.8378 0.65985 0.0
H180 H 0.1296 0.90193 0.51983 0.0
H181 H 0.94972 0.70813 0.42556 0.0
O182 O 0.09573 0.86154 0.79712 0.0
C183 C 0.90737 0.79498 0.59703 0.0
O184 O 0.87959 0.72725 0.62627 0.0
N185 N 1.04037 0.71433 0.75926 0.0
C186 C 0.08546 0.61538 0.79128 0.0
C187 C 0.10173 0.66716 0.89903 0.0
C188 C 0.07767 0.71566 0.88204 0.0
C189 C 1.01803 0.659 0.66357 0.0
C190 C 1.04144 0.6104 0.67498 0.0
H191 H 0.09031 0.7549 0.96658 0.0
H192 H 0.98131 0.6514 0.57752 0.0
H193 H 1.04156 0.86113 1.01795 0.0
H194 H 0.91017 0.65792 0.18676 0.0
H195 H 0.10668 0.89574 0.23454 0.0
H196 H 0.13428 0.67141 0.99276 0.0
H197 H 1.02543 0.56922 0.59272 0.0
loop_
_geom_bond_atom_site_label_1
_geom_bond_atom_site_label_2
_geom_bond_distance
_geom_bond_site_symmetry_2
_ccdc_geom_bond_type
C0 C1 1.351 . S
C0 N3 1.368 1_565 S
C0 H5 0.931 . S
C1 C0 1.351 . S
C1 N2 1.373 . S
C1 H29 0.930 . S
N2 C1 1.373 . S
N2 C4 1.340 1_565 S
N3 C0 1.368 1_545 S
N3 C4 1.321 . S
N3 Co6 2.135 . S
C4 N2 1.340 1_545 S
C4 N3 1.321 . S
C4 H28 0.930 . S
H5 C0 0.931 . S
Co6 N3 2.135 . S
Co6 N9 2.121 1_554 S
Co6 O14 2.055 1_544 S
Co6 O17 2.039 . S
Co6 N20 2.140 . S
C7 O8 1.227 . S
C7 O17 1.265 . S
O8 C7 1.227 . S
N9 Co6 2.121 1_556 S
N9 C11 1.375 . S
N9 C12 1.313 . S
C10 C11 1.338 . S
C10 N13 1.377 . S
C10 H30 0.930 . S
C11 N9 1.375 . S
C11 C10 1.338 . S
C11 H15 0.931 . S
C12 N9 1.313 . S
C12 N13 1.344 . S
C12 H16 0.930 . S
N13 C10 1.377 . S
N13 C12 1.344 . S
O14 Co6 2.055 1_566 S
O14 C18 1.253 . S
H15 C11 0.931 . S
H16 C12 0.930 . S
O17 Co6 2.039 . S
O17 C7 1.265 . S
C18 O14 1.253 . S
C18 O19 1.227 . S
O19 C18 1.227 . S
N20 Co6 2.140 . S
N20 C23 1.346 . S
N20 C24 1.345 1_554 S
C21 C22 1.387 . S
C21 C25 1.391 1_554 S
C22 C21 1.387 . S
C22 C23 1.369 . S
C22 H31 0.929 . S
C23 N20 1.346 . S
C23 C22 1.369 . S
C23 H26 0.928 . S
C24 N20 1.345 1_556 S
C24 C25 1.371 . S
C24 H27 0.931 . S
C25 C21 1.391 1_556 S
C25 C24 1.371 . S
C25 H32 0.930 . S
H26 C23 0.928 . S
H27 C24 0.931 . S
H28 C4 0.930 . S
H29 C1 0.930 . S
H30 C10 0.930 . S
H31 C22 0.929 . S
H32 C25 0.930 . S
C33 C34 1.351 . S
C33 N36 1.368 . S
C33 H38 0.931 . S
C34 C33 1.351 . S
C34 N35 1.373 . S
C34 H62 0.930 . S
N35 C34 1.373 . S
N35 C37 1.340 . S
N36 C33 1.368 . S
N36 C37 1.321 . S
N36 Co39 2.135 . S
C37 N35 1.340 . S
C37 N36 1.321 . S
C37 H61 0.930 . S
H38 C33 0.931 . S
Co39 N36 2.135 . S
Co39 N42 2.121 . S
Co39 O47 2.055 . S
Co39 O50 2.039 . S
Co39 N53 2.140 . S
C40 O41 1.227 . S
C40 O50 1.265 . S
O41 C40 1.227 . S
N42 Co39 2.121 . S
N42 C44 1.375 . S
N42 C45 1.313 . S
C43 C44 1.338 1_556 S
C43 N46 1.377 . S
C43 H63 0.930 . S
C44 N42 1.375 . S
C44 C43 1.338 1_554 S
C44 H48 0.931 . S
C45 N42 1.313 . S
C45 N46 1.344 1_554 S
C45 H49 0.930 . S
N46 C43 1.377 . S
N46 C45 1.344 1_556 S
O47 Co39 2.055 . S
O47 C51 1.253 . S
H48 C44 0.931 . S
H49 C45 0.930 . S
O50 Co39 2.039 . S
O50 C40 1.265 . S
C51 O47 1.253 . S
C51 O52 1.227 . S
O52 C51 1.227 . S
N53 Co39 2.140 . S
N53 C56 1.346 . S
N53 C57 1.345 . S
C54 C55 1.387 . S
C54 C58 1.391 . S
C55 C54 1.387 . S
C55 C56 1.369 . S
C55 H64 0.929 . S
C56 N53 1.346 . S
C56 C55 1.369 . S
C56 H59 0.928 . S
C57 N53 1.345 . S
C57 C58 1.371 . S
C57 H60 0.931 . S
C58 C54 1.391 . S
C58 C57 1.371 . S
C58 H65 0.930 . S
H59 C56 0.928 . S
H60 C57 0.931 . S
H61 C37 0.930 . S
H62 C34 0.930 . S
H63 C43 0.930 . S
H64 C55 0.929 . S
H65 C58 0.930 . S
C66 C67 1.351 1_556 S
C66 N69 1.368 . S
C66 H71 0.931 . S
C67 C66 1.351 1_554 S
C67 N68 1.373 . S
C67 H95 0.930 . S
N68 C67 1.373 . S
N68 C70 1.340 . S
N69 C66 1.368 . S
N69 C70 1.321 1_556 S
N69 Co72 2.135 . S
C70 N68 1.340 . S
C70 N69 1.321 1_554 S
C70 H94 0.930 . S
H71 C66 0.931 . S
Co72 N69 2.135 . S
Co72 N75 2.121 . S
Co72 O80 2.055 . S
Co72 O83 2.039 1_455 S
Co72 N86 2.140 . S
C73 O74 1.227 . S
C73 O83 1.265 . S
O74 C73 1.227 . S
N75 Co72 2.121 . S
N75 C77 1.375 1_455 S
N75 C78 1.313 . S
C76 C77 1.338 . S
C76 N79 1.377 1_655 S
C76 H96 0.930 . S
C77 N75 1.375 1_655 S
C77 C76 1.338 . S
C77 H81 0.931 . S
C78 N75 1.313 . S
C78 N79 1.344 . S
C78 H82 0.930 . S
N79 C76 1.377 1_455 S
N79 C78 1.344 . S
O80 Co72 2.055 . S
O80 C84 1.253 . S
H81 C77 0.931 . S
H82 C78 0.930 . S
O83 Co72 2.039 1_655 S
O83 C73 1.265 . S
C84 O80 1.253 . S
C84 O85 1.227 . S
O85 C84 1.227 . S
N86 Co72 2.140 . S
N86 C89 1.346 . S
N86 C90 1.345 . S
C87 C88 1.387 . S
C87 C91 1.391 . S
C88 C87 1.387 . S
C88 C89 1.369 . S
C88 H97 0.929 . S
C89 N86 1.346 . S
C89 C88 1.369 . S
C89 H92 0.928 . S
C90 N86 1.345 . S
C90 C91 1.371 . S
C90 H93 0.931 . S
C91 C87 1.391 . S
C91 C90 1.371 . S
C91 H98 0.930 . S
H92 C89 0.928 . S
H93 C90 0.931 . S
H94 C70 0.930 . S
H95 C67 0.930 . S
H96 C76 0.930 . S
H97 C88 0.929 . S
H98 C91 0.930 . S
C99 C100 1.351 . S
C99 N102 1.368 . S
C99 H104 0.931 . S
C100 C99 1.351 . S
C100 N101 1.373 . S
C100 H128 0.930 . S
N101 C100 1.373 . S
N101 C103 1.340 . S
N102 C99 1.368 . S
N102 C103 1.321 . S
N102 Co105 2.135 . S
C103 N101 1.340 . S
C103 N102 1.321 . S
C103 H127 0.930 . S
H104 C99 0.931 . S
Co105 N102 2.135 . S
Co105 N108 2.121 1_554 S
Co105 O113 2.055 1_554 S
Co105 O116 2.039 1_545 S
Co105 N119 2.140 . S
C106 O107 1.227 . S
C106 O116 1.265 . S
O107 C106 1.227 . S
N108 Co105 2.121 1_556 S
N108 C110 1.375 1_545 S
N108 C111 1.313 . S
C109 C110 1.338 . S
C109 N112 1.377 1_565 S
C109 H129 0.930 . S
C110 N108 1.375 1_565 S
C110 C109 1.338 . S
C110 H114 0.931 . S
C111 N108 1.313 . S
C111 N112 1.344 . S
C111 H115 0.930 . S
N112 C109 1.377 1_545 S
N112 C111 1.344 . S
O113 Co105 2.055 1_556 S
O113 C117 1.253 . S
H114 C110 0.931 . S
H115 C111 0.930 . S
O116 Co105 2.039 1_565 S
O116 C106 1.265 . S
C117 O113 1.253 . S
C117 O118 1.227 . S
O118 C117 1.227 . S
N119 Co105 2.140 . S
N119 C122 1.346 . S
N119 C123 1.345 1_554 S
C120 C121 1.387 . S
C120 C124 1.391 1_554 S
C121 C120 1.387 . S
C121 C122 1.369 . S
C121 H130 0.929 . S
C122 N119 1.346 . S
C122 C121 1.369 . S
C122 H125 0.928 . S
C123 N119 1.345 1_556 S
C123 C124 1.371 . S
C123 H126 0.931 . S
C124 C120 1.391 1_556 S
C124 C123 1.371 . S
C124 H131 0.930 . S
H125 C122 0.928 . S
H126 C123 0.931 . S
H127 C103 0.930 . S
H128 C100 0.930 . S
H129 C109 0.930 . S
H130 C121 0.929 . S
H131 C124 0.930 . S
C132 C133 1.351 . S
C132 N135 1.368 . S
C132 H137 0.931 . S
C133 C132 1.351 . S
C133 N134 1.373 . S
C133 H161 0.930 . S
N134 C133 1.373 . S
N134 C136 1.340 . S
N135 C132 1.368 . S
N135 C136 1.321 . S
N135 Co138 2.135 . S
C136 N134 1.340 . S
C136 N135 1.321 . S
C136 H160 0.930 . S
H137 C132 0.931 . S
Co138 N135 2.135 . S
Co138 N141 2.121 . S
Co138 O146 2.055 . S
Co138 O149 2.039 . S
Co138 N152 2.140 . S
C139 O140 1.227 . S
C139 O149 1.265 . S
O140 C139 1.227 . S
N141 Co138 2.121 . S
N141 C143 1.375 . S
N141 C144 1.313 . S
C142 C143 1.338 1_556 S
C142 N145 1.377 . S
C142 H162 0.930 . S
C143 N141 1.375 . S
C143 C142 1.338 1_554 S
C143 H147 0.931 . S
C144 N141 1.313 . S
C144 N145 1.344 1_554 S
C144 H148 0.930 . S
N145 C142 1.377 . S
N145 C144 1.344 1_556 S
O146 Co138 2.055 . S
O146 C150 1.253 . S
H147 C143 0.931 . S
H148 C144 0.930 . S
O149 Co138 2.039 . S
O149 C139 1.265 . S
C150 O146 1.253 . S
C150 O151 1.227 . S
O151 C150 1.227 . S
N152 Co138 2.140 . S
N152 C155 1.346 . S
N152 C156 1.345 . S
C153 C154 1.387 . S
C153 C157 1.391 . S
C154 C153 1.387 . S
C154 C155 1.369 . S
C154 H163 0.929 . S
C155 N152 1.346 . S
C155 C154 1.369 . S
C155 H158 0.928 . S
C156 N152 1.345 . S
C156 C157 1.371 . S
C156 H159 0.931 . S
C157 C153 1.391 . S
C157 C156 1.371 . S
C157 H164 0.930 . S
H158 C155 0.928 . S
H159 C156 0.931 . S
H160 C136 0.930 . S
H161 C133 0.930 . S
H162 C142 0.930 . S
H163 C154 0.929 . S
H164 C157 0.930 . S
C165 C166 1.351 1_556 S
C165 N168 1.368 . S
C165 H170 0.931 . S
C166 C165 1.351 1_554 S
C166 N167 1.373 . S
C166 H194 0.930 . S
N167 C166 1.373 . S
N167 C169 1.340 1_655 S
N168 C165 1.368 . S
N168 C169 1.321 1_656 S
N168 Co171 2.135 1_655 S
C169 N167 1.340 1_455 S
C169 N168 1.321 1_454 S
C169 H193 0.930 . S
H170 C165 0.931 . S
Co171 N168 2.135 1_455 S
Co171 N174 2.121 . S
Co171 O179 2.055 1_455 S
Co171 O182 2.039 . S
Co171 N185 2.140 . S
C172 O173 1.227 . S
C172 O182 1.265 . S
O173 C172 1.227 . S
N174 Co171 2.121 . S
N174 C176 1.375 . S
N174 C177 1.313 . S
C175 C176 1.338 . S
C175 N178 1.377 . S
C175 H195 0.930 . S
C176 N174 1.375 . S
C176 C175 1.338 . S
C176 H180 0.931 . S
C177 N174 1.313 . S
C177 N178 1.344 . S
C177 H181 0.930 1_455 S
N178 C175 1.377 . S
N178 C177 1.344 . S
O179 Co171 2.055 1_655 S
O179 C183 1.253 . S
H180 C176 0.931 . S
H181 C177 0.930 1_655 S
O182 Co171 2.039 . S
O182 C172 1.265 . S
C183 O179 1.253 . S
C183 O184 1.227 . S
O184 C183 1.227 . S
N185 Co171 2.140 . S
N185 C188 1.346 . S
N185 C189 1.345 . S
C186 C187 1.387 . S
C186 C190 1.391 . S
C187 C186 1.387 . S
C187 C188 1.369 . S
C187 H196 0.929 . S
C188 N185 1.346 . S
C188 C187 1.369 . S
C188 H191 0.928 . S
C189 N185 1.345 . S
C189 C190 1.371 . S
C189 H192 0.931 1_455 S
C190 C186 1.391 . S
C190 C189 1.371 . S
C190 H197 0.929 1_455 S
H191 C188 0.928 . S
H192 C189 0.931 1_655 S
H193 C169 0.930 . S
H194 C166 0.930 . S
H195 C175 0.930 . S
H196 C187 0.929 . S
H197 C190 0.929 1_655 S
C21 C120 1.536 . S
C153 C54 1.536 . S
C87 C186 1.536 . S
N2 N13 2.103 1_565 S
N35 N46 2.103 . S
N68 N79 2.103 . S
N112 N101 2.103 . S
N134 N145 2.103 . S
N178 N167 2.103 1_455 S
C7 C51 1.746 . S
C40 C84 1.745 . S
C117 C73 1.746 . S
C106 C150 1.745 . S
C183 C139 1.745 . S
C172 C18 1.746 . S
