# Generated by pormake.
# Topology hex, (8)-cn, num edge types: 1
# Building blocks:
#     Node 0, Type 0, BuildingBlock: NUHRAL_clean_sbu_3, # of connection points: 8
#     Edge 1, Type (0, 0), BuildingBlock: FUNLAD_clean_linker_0, # of connection points: 2
#     Edge 2, Type (0, 0), BuildingBlock: FUNLAD_clean_linker_0, # of connection points: 2
#     Edge 3, Type (0, 0), BuildingBlock: FUNLAD_clean_linker_0, # of connection points: 2
#     Edge 4, Type (0, 0), BuildingBlock: FUNLAD_clean_linker_0, # of connection points: 2
# Relax obj value: 0.037
# Max RMSD: 0.100
# Mean RMSD: 0.100
data_MOF--net-hex--node1-NUHRAL_clean_sbu_3--edge1-FUNLAD_clean_linker_0
_symmetry_space_group_name_H-M    P1
_symmetry_Int_Tables_number       1
_symmetry_cell_setting            triclinic
loop_
_symmetry_equiv_pos_as_xyz
'x, y, z'
_cell_length_a     25.439409
_cell_length_b     19.813924
_cell_length_c     16.945179
_cell_angle_alpha  112.49078
_cell_angle_beta   101.26708
_cell_angle_gamma 110.35415
loop_
_atom_site_label
_atom_site_type_symbol
_atom_site_fract_x
_atom_site_fract_y
_atom_site_fract_z
_atom_type_partial_charge
C0 C 0.79147 0.87465 0.99111 0.0
C1 C 0.77481 0.80812 0.00928 0.0
C2 C 0.73262 0.79567 0.05144 0.0
C3 C 0.70725 0.84935 0.07473 0.0
C4 C 0.72143 0.91362 0.05363 0.0
C5 C 0.76489 0.92718 0.01388 0.0
O6 O 0.99935 0.94413 0.04643 0.0
Tb7 Tb 0.92362 0.88208 0.91637 0.0
O8 O 0.92104 0.76345 0.88409 0.0
O9 O 0.03569 0.08296 0.12224 0.0
Eu10 Eu 0.07889 0.09397 0.02079 0.0
O11 O 0.83019 0.81843 0.87897 0.0
C12 C 0.19568 0.15329 0.0923 0.0
O13 O 0.88285 0.95101 0.98006 0.0
O14 O 0.04235 0.9806 0.88258 0.0
O15 O 0.9395 0.91696 0.81316 0.0
C16 C 0.82964 0.8849 0.93721 0.0
C17 C 0.99997 0.16987 0.95763 0.0
O18 O 0.95792 0.11313 0.96419 0.0
C19 C 1.00718 0.01081 0.1166 0.0
C20 C 0.99337 0.95864 0.81554 0.0
O21 O 0.05457 0.1759 0.97544 0.0
C22 C 0.24733 0.16091 0.06193 0.0
C23 C 0.32049 0.11232 0.02775 0.0
C24 C 0.27132 0.10548 0.05564 0.0
C25 C 0.2754 0.22595 0.04436 0.0
C26 C 0.32454 0.23256 0.01647 0.0
C27 C 0.34578 0.17488 0.00662 0.0
C28 C 0.96943 0.75411 0.88092 0.0
O29 O 0.01775 0.81607 0.8926 0.0
O30 O 0.16927 0.19805 0.08429 0.0
O31 O 0.15706 0.07863 0.07118 0.0
H32 H 0.79256 0.76461 0.98773 0.0
H33 H 0.67155 0.83554 0.10104 0.0
H34 H 0.77577 0.97611 0.99612 0.0
H35 H 0.25232 0.05766 0.07328 0.0
H36 H 0.25987 0.27186 0.05333 0.0
H37 H 0.38531 0.18245 0.98852 0.0
C38 C 0.03286 0.29133 0.93068 0.0
C39 C 0.98737 0.22988 0.93607 0.0
C40 C 0.02249 0.3512 0.91597 0.0
C41 C 0.96602 0.35076 0.90561 0.0
C42 C 0.92039 0.28866 0.90994 0.0
C43 C 0.93077 0.2287 0.92454 0.0
C44 C 0.95428 0.41669 0.89646 0.0
C45 C 0.98654 0.46553 0.86737 0.0
C46 C 0.97889 0.53653 0.86621 0.0
C47 C 0.02686 0.59848 0.86542 0.0
C48 C 0.0233 0.6682 0.86844 0.0
C49 C 0.97131 0.67748 0.87152 0.0
H50 H 0.88708 0.49729 0.86405 0.0
C51 C 0.92235 0.61433 0.86918 0.0
C52 C 0.92597 0.54454 0.8664 0.0
H53 H 0.88142 0.61921 0.87072 0.0
H54 H 0.07713 0.29437 0.93973 0.0
H55 H 0.05968 0.39901 0.91601 0.0
H56 H 0.87662 0.28695 0.9029 0.0
H57 H 0.89472 0.18236 0.92847 0.0
H58 H 0.91825 0.42571 0.91647 0.0
H59 H 0.02218 0.45576 0.84667 0.0
H60 H 0.06797 0.59386 0.86443 0.0
H61 H 0.06177 0.71537 0.86964 0.0
C62 C 0.66177 0.97444 0.13095 0.0
C63 C 0.68273 0.9554 0.05837 0.0
C64 C 0.61498 0.9961 0.12519 0.0
C65 C 0.58849 -0.0004 0.04678 0.0
C66 C 0.61273 0.98716 0.97795 0.0
C67 C 0.65905 0.96471 0.98323 0.0
C68 C 0.53514 0.0147 0.03318 0.0
C69 C 0.49348 0.9949 0.0699 0.0
C70 C 0.44005 0.00935 0.05203 0.0
C71 C 0.41889 0.03545 0.12293 0.0
C72 C 0.37498 0.06197 0.11214 0.0
C73 C 0.35135 0.06177 0.02985 0.0
H74 H 0.42508 0.97775 0.90907 0.0
C75 C 0.36792 0.02743 0.95571 0.0
C76 C 0.41177 0.00129 0.96656 0.0
H77 H 0.34967 0.0257 0.89118 0.0
H78 H 0.68 0.96948 0.19068 0.0
H79 H 0.59926 0.00884 0.18154 0.0
H80 H 0.59372 0.99074 0.91748 0.0
H81 H 0.67356 0.94977 0.92561 0.0
H82 H 0.52878 0.04015 0.98766 0.0
H83 H 0.49941 0.97052 0.11658 0.0
H84 H 0.43922 0.04059 0.18878 0.0
H85 H 0.36309 0.08852 0.17044 0.0
C86 C 0.40054 0.37935 0.08774 0.0
C87 C 0.36003 0.30402 0.00763 0.0
C88 C 0.44774 0.43921 0.08379 0.0
C89 C 0.45489 0.42447 0.99941 0.0
C90 C 0.41121 0.352 0.91831 0.0
C91 C 0.36459 0.29166 0.9225 0.0
C92 C 0.50795 0.48248 0.99405 0.0
C93 C 0.56355 0.52639 0.0617 0.0
C94 C 0.61597 0.5877 0.05872 0.0
C95 C 0.65892 0.65882 0.1417 0.0
C96 C 0.70255 0.7245 0.14045 0.0
C97 C 0.70465 0.7192 0.05621 0.0
H98 H 0.59115 0.52387 0.91015 0.0
C99 C 0.66619 0.64465 0.97398 0.0
C100 C 0.62203 0.57927 0.97509 0.0
H101 H 0.66667 0.63955 0.90816 0.0
H102 H 0.39825 0.38948 0.15424 0.0
H103 H 0.47946 0.49581 0.14713 0.0
H104 H 0.41523 0.33986 0.85233 0.0
H105 H 0.33428 0.2333 0.86018 0.0
H106 H 0.501 0.48708 0.93138 0.0
H107 H 0.57018 0.5214 0.12416 0.0
H108 H 0.65588 0.6662 0.20713 0.0
H109 H 0.73147 0.78182 0.20458 0.0
C110 C 0.94564 0.95128 0.66658 0.0
C111 C 0.99823 0.97559 0.73866 0.0
C112 C 0.94966 0.96735 0.594 0.0
C113 C 1.0065 0.0077 0.59139 0.0
C114 C 0.05908 0.03377 0.66456 0.0
C115 C 0.05506 0.0177 0.73732 0.0
C116 C 0.01263 0.02424 0.51419 0.0
C117 C 0.96942 0.9782 0.42833 0.0
C118 C 0.97735 0.99016 0.34924 0.0
C119 C 0.94578 0.92187 0.25987 0.0
C120 C 0.95456 0.92922 0.18415 0.0
C121 C 0.99438 0.00548 0.19601 0.0
H122 H 0.03883 0.12198 0.42815 0.0
C123 C 0.02363 0.07494 0.28468 0.0
C124 C 0.01538 0.06736 0.36073 0.0
H125 H 0.05416 0.1347 0.29579 0.0
H126 H 0.90111 0.92004 0.66621 0.0
H127 H 0.90806 0.94893 0.54094 0.0
H128 H 0.10347 0.06582 0.66493 0.0
H129 H 0.09649 0.03822 0.79235 0.0
H130 H 0.05589 0.07216 0.5272 0.0
H131 H 0.92851 0.92519 0.41297 0.0
H132 H 0.91543 0.86201 0.24882 0.0
H133 H 0.93063 0.87484 0.11636 0.0
loop_
_geom_bond_atom_site_label_1
_geom_bond_atom_site_label_2
_geom_bond_distance
_geom_bond_site_symmetry_2
_ccdc_geom_bond_type
C0 C1 1.387 . S
C0 C5 1.380 . S
C0 C16 1.494 . S
C1 C0 1.387 . S
C1 C2 1.386 1_556 S
C1 H32 0.930 . S
C2 C1 1.386 1_554 S
C2 C3 1.397 . S
C3 C2 1.397 . S
C3 C4 1.393 1_554 S
C3 H33 0.930 . S
C4 C3 1.393 1_556 S
C4 C5 1.395 . S
C5 C0 1.380 . S
C5 C4 1.395 . S
C5 H34 0.930 . S
O6 Tb7 2.295 1_554 S
O6 C19 1.242 1_665 S
Tb7 O6 2.295 1_556 S
Tb7 O8 2.312 . S
Tb7 O11 2.438 . S
Tb7 O13 2.472 . S
Tb7 O15 2.308 . S
Tb7 C16 2.821 . S
O8 Tb7 2.312 . S
O8 C28 1.264 1_655 S
O9 Eu10 2.308 . S
O9 C19 1.243 . S
Eu10 O9 2.308 . S
Eu10 C12 2.821 . S
Eu10 O14 2.295 1_554 S
Eu10 O21 2.312 . S
Eu10 O30 2.438 . S
Eu10 O31 2.472 . S
O11 Tb7 2.438 . S
O11 C16 1.263 . S
C12 Eu10 2.821 . S
C12 C22 1.494 . S
C12 O30 1.263 . S
C12 O31 1.264 . S
O13 Tb7 2.472 . S
O13 C16 1.264 . S
O14 Eu10 2.295 1_556 S
O14 C20 1.242 1_445 S
O15 Tb7 2.308 . S
O15 C20 1.243 . S
C16 C0 1.494 . S
C16 Tb7 2.821 . S
C16 O11 1.263 . S
C16 O13 1.264 . S
C17 O18 1.260 . S
C17 O21 1.264 1_655 S
O18 C17 1.260 . S
C19 O6 1.242 1_445 S
C19 O9 1.243 . S
C20 O14 1.242 1_665 S
C20 O15 1.243 . S
O21 Eu10 2.312 . S
O21 C17 1.264 1_455 S
C22 C12 1.494 . S
C22 C24 1.380 . S
C22 C25 1.387 . S
C23 C24 1.395 . S
C23 C27 1.393 1_554 S
C24 C22 1.380 . S
C24 C23 1.395 . S
C24 H35 0.930 . S
C25 C22 1.387 . S
C25 C26 1.386 1_554 S
C25 H36 0.930 . S
C26 C25 1.386 1_556 S
C26 C27 1.397 . S
C27 C23 1.393 1_556 S
C27 C26 1.397 . S
C27 H37 0.930 . S
C28 O8 1.264 1_455 S
C28 O29 1.260 . S
O29 C28 1.260 . S
O30 Eu10 2.438 . S
O30 C12 1.263 . S
O31 Eu10 2.472 . S
O31 C12 1.264 . S
H32 C1 0.930 . S
H33 C3 0.930 . S
H34 C5 0.930 . S
H35 C24 0.930 . S
H36 C25 0.930 . S
H37 C27 0.930 . S
C38 C39 1.386 1_455 S
C38 C40 1.383 . S
C38 H54 0.951 . S
C39 C38 1.386 1_655 S
C39 C43 1.383 1_554 S
C40 C38 1.383 . S
C40 C41 1.402 1_454 S
C40 H55 0.951 . S
C41 C40 1.402 1_656 S
C41 C42 1.375 . S
C41 C44 1.481 . S
C42 C41 1.375 . S
C42 C43 1.367 . S
C42 H56 0.951 . S
C43 C39 1.383 1_556 S
C43 C42 1.367 . S
C43 H57 0.950 . S
C44 C41 1.481 . S
C44 C45 1.297 1_656 S
C44 H58 0.950 . S
C45 C44 1.297 1_454 S
C45 C46 1.479 1_554 S
C45 H59 0.950 . S
C46 C45 1.479 1_556 S
C46 C47 1.375 1_556 S
C46 C52 1.404 1_455 S
C47 C46 1.375 1_554 S
C47 C48 1.369 . S
C47 H60 0.950 . S
C48 C47 1.369 . S
C48 C49 1.392 1_554 S
C48 H61 0.951 . S
C49 C48 1.392 1_556 S
C49 C51 1.384 1_455 S
H50 C52 0.949 . S
C51 C49 1.384 1_655 S
C51 C52 1.385 . S
C51 H53 0.950 . S
C52 C46 1.404 1_655 S
C52 H50 0.949 . S
C52 C51 1.385 . S
H53 C51 0.950 . S
H54 C38 0.951 . S
H55 C40 0.951 . S
H56 C42 0.951 . S
H57 C43 0.950 . S
H58 C44 0.950 . S
H59 C45 0.950 . S
H60 C47 0.950 . S
H61 C48 0.951 . S
C62 C63 1.386 1_544 S
C62 C64 1.383 . S
C62 H78 0.951 . S
C63 C62 1.386 1_566 S
C63 C67 1.383 . S
C64 C62 1.383 . S
C64 C65 1.402 1_544 S
C64 H79 0.951 . S
C65 C64 1.402 1_566 S
C65 C66 1.375 . S
C65 C68 1.481 . S
C66 C65 1.375 . S
C66 C67 1.367 . S
C66 H80 0.951 . S
C67 C63 1.383 . S
C67 C66 1.367 . S
C67 H81 0.950 . S
C68 C65 1.481 . S
C68 C69 1.297 1_565 S
C68 H82 0.950 . S
C69 C68 1.297 1_545 S
C69 C70 1.479 . S
C69 H83 0.950 1_556 S
C70 C69 1.479 . S
C70 C71 1.375 1_556 S
C70 C76 1.404 1_545 S
C71 C70 1.375 1_554 S
C71 C72 1.369 . S
C71 H84 0.950 . S
C72 C71 1.369 . S
C72 C73 1.392 . S
C72 H85 0.951 . S
C73 C72 1.392 . S
C73 C75 1.384 1_544 S
H74 C76 0.949 . S
C75 C73 1.384 1_566 S
C75 C76 1.385 . S
C75 H77 0.950 . S
C76 C70 1.404 1_565 S
C76 H74 0.949 . S
C76 C75 1.385 . S
H77 C75 0.950 . S
H78 C62 0.951 . S
H79 C64 0.951 . S
H80 C66 0.951 . S
H81 C67 0.950 . S
H82 C68 0.950 . S
H83 C69 0.950 1_554 S
H84 C71 0.950 . S
H85 C72 0.951 . S
C86 C87 1.386 1_554 S
C86 C88 1.383 . S
C86 H102 0.951 . S
C87 C86 1.386 1_556 S
C87 C91 1.383 . S
C88 C86 1.383 . S
C88 C89 1.402 1_554 S
C88 H103 0.951 . S
C89 C88 1.402 1_556 S
C89 C90 1.375 . S
C89 C92 1.481 . S
C90 C89 1.375 . S
C90 C91 1.367 . S
C90 H104 0.951 . S
C91 C87 1.383 . S
C91 C90 1.367 . S
C91 H105 0.950 . S
C92 C89 1.481 . S
C92 C93 1.297 . S
C92 H106 0.950 . S
C93 C92 1.297 . S
C93 C94 1.479 . S
C93 H107 0.950 1_556 S
C94 C93 1.479 . S
C94 C95 1.375 1_556 S
C94 C100 1.404 . S
C95 C94 1.375 1_554 S
C95 C96 1.369 . S
C95 H108 0.950 . S
C96 C95 1.369 . S
C96 C97 1.392 . S
C96 H109 0.951 . S
C97 C96 1.392 . S
C97 C99 1.384 1_554 S
H98 C100 0.949 . S
C99 C97 1.384 1_556 S
C99 C100 1.385 . S
C99 H101 0.950 . S
C100 C94 1.404 . S
C100 H98 0.949 . S
C100 C99 1.385 . S
H101 C99 0.950 . S
H102 C86 0.951 . S
H103 C88 0.951 . S
H104 C90 0.951 . S
H105 C91 0.950 . S
H106 C92 0.950 . S
H107 C93 0.950 1_554 S
H108 C95 0.950 . S
H109 C96 0.951 . S
C110 C111 1.381 1_465 S
C110 C112 1.383 . S
C110 H126 0.951 . S
C111 C110 1.381 1_645 S
C111 C115 1.392 . S
C112 C110 1.383 . S
C112 C113 1.402 1_465 S
C112 H127 0.951 . S
C113 C112 1.402 1_645 S
C113 C114 1.375 . S
C113 C116 1.481 . S
C114 C113 1.375 . S
C114 C115 1.367 . S
C114 H128 0.951 . S
C115 C111 1.392 . S
C115 C114 1.367 . S
C115 H129 0.950 . S
C116 C113 1.481 . S
C116 C117 1.297 1_545 S
C116 H130 0.950 . S
C117 C116 1.297 1_565 S
C117 C118 1.479 . S
C117 H131 0.950 . S
C118 C117 1.479 . S
C118 C119 1.375 1_655 S
C118 C124 1.404 1_565 S
C119 C118 1.375 1_455 S
C119 C120 1.369 . S
C119 H132 0.950 . S
C120 C119 1.369 . S
C120 C121 1.392 1_455 S
C120 H133 0.951 . S
C121 C120 1.392 1_655 S
C121 C123 1.384 1_565 S
H122 C124 0.949 . S
C123 C121 1.384 1_545 S
C123 C124 1.385 . S
C123 H125 0.950 . S
C124 C118 1.404 1_545 S
C124 H122 0.949 . S
C124 C123 1.385 . S
H125 C123 0.950 . S
H126 C110 0.951 . S
H127 C112 0.951 . S
H128 C114 0.951 . S
H129 C115 0.950 . S
H130 C116 0.950 . S
H131 C117 0.950 . S
H132 C119 0.950 . S
H133 C120 0.951 . S
C39 C17 0.502 . S
C49 C28 0.317 . S
C63 C4 2.118 . S
C73 C23 2.065 . S
C87 C26 1.889 . S
C97 C2 1.861 . S
C111 C20 1.476 1_545 S
C121 C19 1.500 1_665 S
