# Generated by pormake.
# Topology qtz-x, (6)-cn, num edge types: 1
# Building blocks:
#     Node 0, Type 0, BuildingBlock: VOLQOD_clean_sbu_1, # of connection points: 6
#     Node 1, Type 0, BuildingBlock: VOLQOD_clean_sbu_1, # of connection points: 6
#     Node 2, Type 0, BuildingBlock: VOLQOD_clean_sbu_1, # of connection points: 6
#     Edge 3, Type (0, 0), BuildingBlock: CIFDUS_clean_linker_0, # of connection points: 2
#     Edge 4, Type (0, 0), BuildingBlock: CIFDUS_clean_linker_0, # of connection points: 2
#     Edge 5, Type (0, 0), BuildingBlock: CIFDUS_clean_linker_0, # of connection points: 2
#     Edge 6, Type (0, 0), BuildingBlock: CIFDUS_clean_linker_0, # of connection points: 2
#     Edge 7, Type (0, 0), BuildingBlock: CIFDUS_clean_linker_0, # of connection points: 2
#     Edge 8, Type (0, 0), BuildingBlock: CIFDUS_clean_linker_0, # of connection points: 2
#     Edge 9, Type (0, 0), BuildingBlock: CIFDUS_clean_linker_0, # of connection points: 2
#     Edge 10, Type (0, 0), BuildingBlock: CIFDUS_clean_linker_0, # of connection points: 2
#     Edge 11, Type (0, 0), BuildingBlock: CIFDUS_clean_linker_0, # of connection points: 2
# Relax obj value: 0.237
# Max RMSD: 0.197
# Mean RMSD: 0.197
data_MOF--net-qtz-x--node1-VOLQOD_clean_sbu_1--edge1-CIFDUS_clean_linker_0
_symmetry_space_group_name_H-M    P1
_symmetry_Int_Tables_number       1
_symmetry_cell_setting            triclinic
loop_
_symmetry_equiv_pos_as_xyz
'x, y, z'
_cell_length_a     15.393439
_cell_length_b     15.470861
_cell_length_c     34.125261
_cell_angle_alpha  89.312115
_cell_angle_beta   90.121766
_cell_angle_gamma 120.02039
loop_
_atom_site_label
_atom_site_type_symbol
_atom_site_fract_x
_atom_site_fract_y
_atom_site_fract_z
_atom_type_partial_charge
O0 O 0.1075 0.83873 0.14946 0.0
Zn1 Zn 0.14375 0.72983 0.14129 0.0
O2 O 0.02864 0.59673 0.15461 0.0
Zn3 Zn 0.994 0.51014 0.11014 0.0
Zn4 Zn 0.91313 0.60916 0.1711 0.0
Zn5 Zn 0.06189 0.53037 0.19568 0.0
O6 O 0.01887 0.39434 0.11754 0.0
O7 O 0.03974 0.39368 0.18171 0.0
O8 O 0.18472 0.73829 0.08403 0.0
O9 O 0.07124 0.58771 0.06347 0.0
O10 O 0.85127 0.45697 0.09661 0.0
O11 O 0.79374 0.53214 0.13501 0.0
O12 O 0.87478 0.56336 0.22727 0.0
O13 O 0.26277 0.75692 0.17581 0.0
O14 O 0.98731 0.52058 0.24499 0.0
O15 O 0.20589 0.61298 0.20827 0.0
C16 C 0.02734 0.83582 0.16114 0.0
C17 C 0.03063 0.35423 0.14834 0.0
C18 C 0.78135 0.47286 0.10712 0.0
C19 C 0.14415 0.67505 0.05671 0.0
C20 C 0.91493 0.53489 0.25326 0.0
C21 C 0.27612 0.70051 0.19974 0.0
O22 O 0.94907 0.75366 0.17018 0.0
O23 O 0.7847 0.95405 0.47096 0.0
Zn24 Zn 0.63779 0.91156 0.46485 0.0
O25 O 0.61251 0.0146 0.48743 0.0
Zn26 Zn 0.561 0.07124 0.4494 0.0
Zn27 Zn 0.73569 0.12427 0.51022 0.0
Zn28 Zn 0.50812 0.95187 0.52605 0.0
O29 O 0.42241 0.04864 0.46069 0.0
O30 O 0.38184 0.95417 0.51425 0.0
O31 O 0.60604 0.89958 0.40635 0.0
O32 O 0.55922 0.01342 0.39793 0.0
O33 O 0.6522 0.21576 0.44179 0.0
O34 O 0.78146 0.25523 0.48085 0.0
O35 O 0.71676 0.13807 0.56844 0.0
O36 O 0.55795 0.77543 0.49326 0.0
O37 O 0.56002 0.01422 0.57722 0.0
O38 O 0.468 0.81165 0.53327 0.0
C39 C 0.85887 0.02889 0.48679 0.0
C40 C 0.35978 0.99743 0.48747 0.0
C41 C 0.73819 0.27906 0.4545 0.0
C42 C 0.57854 0.94876 0.38426 0.0
C43 C 0.64143 0.08491 0.59064 0.0
C44 C 0.49118 0.74979 0.51992 0.0
O45 O 0.84961 0.0974 0.50317 0.0
O46 O 0.65184 0.61367 0.82652 0.0
Zn47 Zn 0.55289 0.46584 0.82938 0.0
O48 O 0.41738 0.43423 0.81543 0.0
Zn49 Zn 0.36448 0.33084 0.77573 0.0
Zn50 Zn 0.42363 0.55665 0.79543 0.0
Zn51 Zn 0.33031 0.38134 0.86122 0.0
O52 O 0.22867 0.21221 0.7904 0.0
O53 O 0.21079 0.24442 0.85216 0.0
O54 O 0.60392 0.40102 0.79262 0.0
O55 O 0.46272 0.28461 0.76538 0.0
O56 O 0.3505 0.38707 0.72428 0.0
O57 O 0.37273 0.53633 0.73975 0.0
O58 O 0.34433 0.59768 0.8305 0.0
O59 O 0.55456 0.41623 0.88365 0.0
O60 O 0.28007 0.47338 0.87459 0.0
O61 O 0.40382 0.37089 0.90831 0.0
C62 C 0.64811 0.68552 0.8096 0.0
C63 C 0.17921 0.18805 0.82243 0.0
C64 C 0.35191 0.4676 0.71499 0.0
C65 C 0.55677 0.3248 0.77118 0.0
C66 C 0.29089 0.55492 0.86076 0.0
C67 C 0.49173 0.38366 0.91184 0.0
O68 O 0.56711 0.67316 0.7943 0.0
H69 H 0.10015 0.99362 0.11015 0.0
H70 H 0.94519 0.88602 0.22056 0.0
H71 H 0.9355 0.03827 0.2273 0.0
H72 H 0.96907 0.20155 0.2013 0.0
H73 H 0.1084 0.30145 0.08771 0.0
H74 H 0.12587 0.15328 0.08252 0.0
C75 C 0.06493 1.00414 0.13574 0.0
C76 C 0.02438 0.92946 0.16502 0.0
C77 C 0.05631 0.09033 0.1387 0.0
C78 C 0.97709 0.94276 0.1977 0.0
C79 C 0.97153 0.02973 0.20156 0.0
C80 C 1.00329 0.19074 0.17546 0.0
C81 C 0.03781 0.26253 0.14503 0.0
C82 C 1.01049 0.1039 0.17217 0.0
C83 C 0.08083 0.24701 0.11146 0.0
C84 C 0.0912 0.16248 0.10854 0.0
H85 H 0.31269 0.14189 0.47414 0.0
H86 H 0.18248 0.82847 0.50141 0.0
H87 H 1.01444 0.80878 0.50169 0.0
H88 H 0.90476 0.88177 0.49508 0.0
H89 H 0.03708 0.19864 0.47498 0.0
H90 H 0.20398 0.21649 0.47108 0.0
C91 C 0.24723 0.0694 0.47995 0.0
C92 C 0.25916 0.98655 0.48739 0.0
C93 C 0.15149 0.05952 0.48149 0.0
C94 C 0.17451 0.89317 0.49561 0.0
C95 C 0.07864 0.88191 0.49573 0.0
C96 C 0.97032 0.95449 0.48975 0.0
C97 C 0.95908 0.03865 0.48507 0.0
C98 C 0.06623 0.96464 0.48884 0.0
C99 C 0.04434 0.1329 0.47878 0.0
C100 C 0.1396 0.14309 0.47644 0.0
H101 H 0.79989 0.76916 0.86216 0.0
H102 H 0.70407 0.82308 0.75024 0.0
H103 H 0.86176 0.9817 0.74336 0.0
H104 H 0.02882 0.10446 0.76896 0.0
H105 H 0.11644 0.05731 0.88371 0.0
H106 H 0.96071 0.89681 0.88973 0.0
C107 C 0.81359 0.81584 0.83631 0.0
C108 C 0.74086 0.78419 0.80662 0.0
C109 C 0.90325 0.90799 0.83303 0.0
C110 C 0.75884 0.84599 0.77355 0.0
C111 C 0.84916 0.93646 0.76952 0.0
C112 C 1.01357 0.05867 0.79518 0.0
C113 C 0.08417 0.09181 0.82569 0.0
C114 C 0.92223 0.96801 0.79898 0.0
C115 C 0.06309 0.03304 0.85985 0.0
C116 C 0.97418 0.94133 0.86328 0.0
H117 H 0.39099 0.71306 0.90732 0.0
H118 H 0.09513 0.49808 0.86788 0.0
H119 H 0.02032 0.5351 0.92368 0.0
H120 H 0.04211 0.59875 -0.00987 0.0
H121 H 0.33846 0.80129 0.03343 0.0
H122 H 0.41067 0.80135 0.96949 0.0
C123 C 0.31011 0.67814 0.91017 0.0
C124 C 0.24805 0.60377 0.88374 0.0
C125 C 0.26827 0.69585 0.94352 0.0
C126 C 0.14358 0.55649 0.88783 0.0
C127 C 0.10112 0.57677 0.91994 0.0
C128 C 0.12235 0.64479 -0.01475 0.0
C129 C 0.18535 0.69789 0.01654 0.0
C130 C 0.16308 0.64164 0.94906 0.0
C131 C 0.28872 0.75907 0.00978 0.0
C132 C 0.32996 0.7585 0.97333 0.0
H133 H 0.66435 0.36825 0.40717 0.0
H134 H 0.9421 0.3919 0.4463 0.0
H135 H 0.02702 0.48869 0.38752 0.0
H136 H 1.01166 0.53074 0.31913 0.0
H137 H 0.73079 0.49731 0.2785 0.0
H138 H 0.65748 0.43933 0.34361 0.0
C139 C 0.74432 0.39752 0.40347 0.0
C140 C 0.79615 0.37039 0.43042 0.0
C141 C 0.79116 0.44821 0.36867 0.0
C142 C 0.90013 0.41079 0.42582 0.0
C143 C 0.94839 0.46475 0.39184 0.0
C144 C 0.93474 0.51193 0.32467 0.0
C145 C 0.87564 0.5152 0.29379 0.0
C146 C 0.89288 0.47774 0.36201 0.0
C147 C 0.77722 0.4937 0.30162 0.0
C148 C 0.73532 0.46065 0.33885 0.0
H149 H 0.46019 0.46459 0.65357 0.0
H150 H 0.22047 0.51835 0.68505 0.0
H151 H 0.22341 0.58369 0.61914 0.0
H152 H 0.31631 0.65604 0.55885 0.0
H153 H 0.57708 0.63249 0.53179 0.0
H154 H 0.5412 0.52013 0.58833 0.0
C155 C 0.40694 0.48813 0.6454 0.0
C156 C 0.34025 0.4873 0.67372 0.0
C157 C 0.4134 0.53111 0.60823 0.0
C158 C 0.27238 0.51898 0.66349 0.0
C159 C 0.27424 0.55627 0.62593 0.0
C160 C 0.36375 0.62396 0.56467 0.0
C161 C 0.45052 0.65426 0.54182 0.0
C162 C 0.34765 0.56716 0.59885 0.0
C163 C 0.5101 0.61066 0.54905 0.0
C164 C 0.49049 0.54784 0.5818 0.0
H165 H 0.46974 0.44504 0.9833 0.0
H166 H 0.58914 0.28179 0.92435 0.0
H167 H 0.67096 0.27444 0.98465 0.0
H168 H 0.73093 0.33847 0.0495 0.0
H169 H 0.63272 0.52275 0.10636 0.0
H170 H 0.51713 0.49485 0.05228 0.0
C171 C 0.51173 0.40588 0.98417 0.0
C172 C 0.52441 0.36445 0.94972 0.0
C173 C 0.5627 0.40641 0.01846 0.0
C174 C 0.57947 0.31469 0.95066 0.0
C175 C 0.62614 0.31059 -0.01496 0.0
C176 C 0.68303 0.37127 0.05056 0.0
C177 C 0.6923 0.43462 0.08148 0.0
C178 C 0.62178 0.35992 0.0185 0.0
C179 C 0.62788 0.47445 0.08273 0.0
C180 C 0.56247 0.4593 0.0516 0.0
H181 H 0.40436 0.89447 0.21683 0.0
H182 H 0.35061 0.59613 0.23789 0.0
H183 H 0.46032 0.65304 0.29483 0.0
H184 H 0.53729 0.77805 0.34661 0.0
H185 H 0.58126 0.07348 0.32712 0.0
H186 H 0.51148 0.02787 0.26161 0.0
C187 C 0.41963 0.84274 0.233 0.0
C188 C 0.3674 0.74097 0.22393 0.0
C189 C 0.47933 0.87502 0.26669 0.0
C190 C 0.3885 0.67477 0.24492 0.0
C191 C 0.45072 0.70705 0.27765 0.0
C192 C 0.53423 0.8331 0.32756 0.0
C193 C 0.56121 0.9277 0.34206 0.0
C194 C 0.49118 0.80556 0.29022 0.0
C195 C 0.55813 0.99898 0.31695 0.0
C196 C 0.51833 0.97312 0.27944 0.0
H197 H 0.50223 0.13547 0.75405 0.0
H198 H 0.73478 0.44004 0.73369 0.0
H199 H 0.79716 0.38864 0.67788 0.0
H200 H 0.76026 0.26228 0.6271 0.0
H201 H 0.5243 0.95846 0.64812 0.0
H202 H 0.49023 1.00374 0.71183 0.0
C203 C 0.56858 0.18983 0.73811 0.0
C204 C 0.61282 0.29111 0.74716 0.0
C205 C 0.60241 0.16009 0.70579 0.0
C206 C 0.6995 0.36138 0.72694 0.0
C207 C 0.73448 0.33219 0.69481 0.0
C208 C 0.7036 0.20561 0.64617 0.0
C209 C 0.64254 0.10818 0.63244 0.0
C210 C 0.68284 0.23251 0.68267 0.0
C211 C 0.57032 0.03487 0.65763 0.0
C212 C 0.55066 0.06052 0.69409 0.0
loop_
_geom_bond_atom_site_label_1
_geom_bond_atom_site_label_2
_geom_bond_distance
_geom_bond_site_symmetry_2
_ccdc_geom_bond_type
O0 Zn1 1.953 . S
O0 C16 1.225 . S
Zn1 O0 1.953 . S
Zn1 O2 1.949 . S
Zn1 O8 1.919 . S
Zn1 O13 1.924 . S
O2 Zn1 1.949 . S
O2 Zn3 1.923 1_455 S
O2 Zn4 1.950 1_455 S
O2 Zn5 1.945 . S
Zn3 O2 1.923 1_655 S
Zn3 O6 1.933 . S
Zn3 O9 1.941 1_655 S
Zn3 O10 1.965 . S
Zn4 O2 1.950 1_655 S
Zn4 O11 1.938 . S
Zn4 O12 1.906 . S
Zn4 O22 1.953 . S
Zn5 O2 1.945 . S
Zn5 O7 1.932 . S
Zn5 O14 1.977 1_455 S
Zn5 O15 1.910 . S
O6 Zn3 1.933 . S
O6 C17 1.226 1_655 S
O7 Zn5 1.932 . S
O7 C17 1.307 . S
O8 Zn1 1.919 . S
O8 C19 1.253 . S
O9 Zn3 1.941 1_455 S
O9 C19 1.283 . S
O10 Zn3 1.965 . S
O10 C18 1.303 . S
O11 Zn4 1.938 . S
O11 C18 1.247 . S
O12 Zn4 1.906 . S
O12 C20 1.304 . S
O13 Zn1 1.924 . S
O13 C21 1.311 . S
O14 Zn5 1.977 1_655 S
O14 C20 1.272 . S
O15 Zn5 1.910 . S
O15 C21 1.231 . S
C16 O0 1.225 . S
C16 O22 1.298 1_455 S
C17 O6 1.226 1_455 S
C17 O7 1.307 . S
C18 O10 1.303 . S
C18 O11 1.247 . S
C19 O8 1.253 . S
C19 O9 1.283 . S
C20 O12 1.304 . S
C20 O14 1.272 . S
C21 O13 1.311 . S
C21 O15 1.231 . S
O22 Zn4 1.953 . S
O22 C16 1.298 1_655 S
O23 Zn24 1.953 . S
O23 C39 1.225 1_565 S
Zn24 O23 1.953 . S
Zn24 O25 1.949 1_565 S
Zn24 O31 1.919 . S
Zn24 O36 1.924 . S
O25 Zn24 1.949 1_545 S
O25 Zn26 1.923 . S
O25 Zn27 1.950 . S
O25 Zn28 1.945 1_545 S
Zn26 O25 1.923 . S
Zn26 O29 1.933 . S
Zn26 O32 1.941 1_545 S
Zn26 O33 1.965 . S
Zn27 O25 1.950 . S
Zn27 O34 1.938 . S
Zn27 O35 1.906 . S
Zn27 O45 1.953 . S
Zn28 O25 1.945 1_565 S
Zn28 O30 1.932 . S
Zn28 O37 1.977 1_565 S
Zn28 O38 1.910 . S
O29 Zn26 1.933 . S
O29 C40 1.226 . S
O30 Zn28 1.932 . S
O30 C40 1.307 1_565 S
O31 Zn24 1.919 . S
O31 C42 1.253 . S
O32 Zn26 1.941 1_565 S
O32 C42 1.283 . S
O33 Zn26 1.965 . S
O33 C41 1.303 . S
O34 Zn27 1.938 . S
O34 C41 1.247 . S
O35 Zn27 1.906 . S
O35 C43 1.304 . S
O36 Zn24 1.924 . S
O36 C44 1.311 . S
O37 Zn28 1.977 1_545 S
O37 C43 1.272 . S
O38 Zn28 1.910 . S
O38 C44 1.231 . S
C39 O23 1.225 1_545 S
C39 O45 1.299 . S
C40 O29 1.226 . S
C40 O30 1.307 1_545 S
C41 O33 1.303 . S
C41 O34 1.247 . S
C42 O31 1.253 . S
C42 O32 1.283 . S
C43 O35 1.304 . S
C43 O37 1.272 . S
C44 O36 1.311 . S
C44 O38 1.231 . S
O45 Zn27 1.953 . S
O45 C39 1.299 . S
O46 Zn47 1.953 . S
O46 C62 1.225 . S
Zn47 O46 1.953 . S
Zn47 O48 1.949 . S
Zn47 O54 1.919 . S
Zn47 O59 1.924 . S
O48 Zn47 1.949 . S
O48 Zn49 1.923 . S
O48 Zn50 1.950 . S
O48 Zn51 1.945 . S
Zn49 O48 1.923 . S
Zn49 O52 1.933 . S
Zn49 O55 1.941 . S
Zn49 O56 1.965 . S
Zn50 O48 1.950 . S
Zn50 O57 1.938 . S
Zn50 O58 1.906 . S
Zn50 O68 1.953 . S
Zn51 O48 1.945 . S
Zn51 O53 1.932 . S
Zn51 O60 1.977 . S
Zn51 O61 1.910 . S
O52 Zn49 1.933 . S
O52 C63 1.226 . S
O53 Zn51 1.932 . S
O53 C63 1.307 . S
O54 Zn47 1.919 . S
O54 C65 1.253 . S
O55 Zn49 1.941 . S
O55 C65 1.283 . S
O56 Zn49 1.965 . S
O56 C64 1.303 . S
O57 Zn50 1.938 . S
O57 C64 1.247 . S
O58 Zn50 1.906 . S
O58 C66 1.304 . S
O59 Zn47 1.924 . S
O59 C67 1.311 . S
O60 Zn51 1.977 . S
O60 C66 1.272 . S
O61 Zn51 1.910 . S
O61 C67 1.231 . S
C62 O46 1.225 . S
C62 O68 1.298 . S
C63 O52 1.226 . S
C63 O53 1.307 . S
C64 O56 1.303 . S
C64 O57 1.247 . S
C65 O54 1.253 . S
C65 O55 1.283 . S
C66 O58 1.304 . S
C66 O60 1.272 . S
C67 O59 1.311 . S
C67 O61 1.231 . S
O68 Zn50 1.953 . S
O68 C62 1.298 . S
H69 C75 0.930 . S
H70 C78 0.930 . S
H71 C79 0.930 . S
H72 C80 0.930 . S
H73 C83 0.930 . S
H74 C84 0.930 . S
C75 H69 0.930 . S
C75 C76 1.355 . S
C75 C77 1.415 . S
C76 C75 1.355 . S
C76 C78 1.419 . S
C77 C75 1.415 . S
C77 C82 1.425 1_565 S
C77 C84 1.409 1_565 S
C78 H70 0.930 . S
C78 C76 1.419 . S
C78 C79 1.362 . S
C79 H71 0.930 . S
C79 C78 1.362 . S
C79 C82 1.409 1_565 S
C80 H72 0.930 . S
C80 C81 1.355 . S
C80 C82 1.415 . S
C81 C80 1.355 . S
C81 C83 1.419 . S
C82 C77 1.425 1_545 S
C82 C79 1.409 1_545 S
C82 C80 1.415 . S
C83 H73 0.930 . S
C83 C81 1.419 . S
C83 C84 1.362 . S
C84 H74 0.930 . S
C84 C77 1.409 1_545 S
C84 C83 1.362 . S
H85 C91 0.930 . S
H86 C94 0.930 . S
H87 C95 0.930 . S
H88 C96 0.930 . S
H89 C99 0.930 . S
H90 C100 0.930 . S
C91 H85 0.930 . S
C91 C92 1.355 1_545 S
C91 C93 1.415 . S
C92 C91 1.355 1_565 S
C92 C94 1.419 . S
C93 C91 1.415 . S
C93 C98 1.425 1_445 S
C93 C100 1.409 . S
C94 H86 0.930 . S
C94 C92 1.419 . S
C94 C95 1.362 1_455 S
C95 H87 0.930 . S
C95 C94 1.362 1_655 S
C95 C98 1.409 . S
C96 H88 0.930 . S
C96 C97 1.355 1_565 S
C96 C98 1.415 . S
C97 C96 1.355 1_545 S
C97 C99 1.419 . S
C98 C93 1.425 1_665 S
C98 C95 1.409 . S
C98 C96 1.415 . S
C99 H89 0.930 . S
C99 C97 1.419 . S
C99 C100 1.362 1_655 S
C100 H90 0.930 . S
C100 C93 1.409 . S
C100 C99 1.362 1_455 S
H101 C107 0.930 . S
H102 C110 0.930 . S
H103 C111 0.930 . S
H104 C112 0.930 . S
H105 C115 0.930 . S
H106 C116 0.930 . S
C107 H101 0.930 . S
C107 C108 1.355 . S
C107 C109 1.415 1_655 S
C108 C107 1.355 . S
C108 C110 1.419 . S
C109 C107 1.415 1_455 S
C109 C114 1.425 1_465 S
C109 C116 1.409 . S
C110 H102 0.930 . S
C110 C108 1.419 . S
C110 C111 1.362 1_565 S
C111 H103 0.930 . S
C111 C110 1.362 1_545 S
C111 C114 1.409 . S
C112 H104 0.930 . S
C112 C113 1.355 . S
C112 C114 1.415 1_455 S
C113 C112 1.355 . S
C113 C115 1.419 . S
C114 C109 1.425 1_645 S
C114 C111 1.409 . S
C114 C112 1.415 1_655 S
C115 H105 0.930 . S
C115 C113 1.419 . S
C115 C116 1.362 1_545 S
C116 H106 0.930 . S
C116 C109 1.409 . S
C116 C115 1.362 1_565 S
H117 C123 0.930 . S
H118 C126 0.930 . S
H119 C127 0.930 . S
H120 C128 0.930 . S
H121 C131 0.930 . S
H122 C132 0.930 . S
C123 H117 0.930 . S
C123 C124 1.355 . S
C123 C125 1.415 1_556 S
C124 C123 1.355 . S
C124 C126 1.419 . S
C125 C123 1.415 1_554 S
C125 C130 1.425 1_554 S
C125 C132 1.409 . S
C126 H118 0.930 . S
C126 C124 1.419 . S
C126 C127 1.362 . S
C127 H119 0.930 . S
C127 C126 1.362 . S
C127 C130 1.409 . S
C128 H120 0.930 . S
C128 C129 1.355 . S
C128 C130 1.415 1_554 S
C129 C128 1.355 . S
C129 C131 1.419 . S
C130 C125 1.425 1_556 S
C130 C127 1.409 . S
C130 C128 1.415 1_556 S
C131 H121 0.930 . S
C131 C129 1.419 . S
C131 C132 1.362 . S
C132 H122 0.930 . S
C132 C125 1.409 . S
C132 C131 1.362 . S
H133 C139 0.930 . S
H134 C142 0.930 . S
H135 C143 0.930 . S
H136 C144 0.930 . S
H137 C147 0.930 . S
H138 C148 0.930 . S
C139 H133 0.930 . S
C139 C140 1.355 . S
C139 C141 1.415 . S
C140 C139 1.355 . S
C140 C142 1.419 . S
C141 C139 1.415 . S
C141 C146 1.425 . S
C141 C148 1.409 . S
C142 H134 0.930 . S
C142 C140 1.419 . S
C142 C143 1.362 . S
C143 H135 0.930 . S
C143 C142 1.362 . S
C143 C146 1.409 . S
C144 H136 0.930 . S
C144 C145 1.355 . S
C144 C146 1.415 . S
C145 C144 1.355 . S
C145 C147 1.419 . S
C146 C141 1.425 . S
C146 C143 1.409 . S
C146 C144 1.415 . S
C147 H137 0.930 . S
C147 C145 1.419 . S
C147 C148 1.362 . S
C148 H138 0.930 . S
C148 C141 1.409 . S
C148 C147 1.362 . S
H149 C155 0.930 . S
H150 C158 0.930 . S
H151 C159 0.930 . S
H152 C160 0.930 . S
H153 C163 0.930 . S
H154 C164 0.930 . S
C155 H149 0.930 . S
C155 C156 1.355 . S
C155 C157 1.415 . S
C156 C155 1.355 . S
C156 C158 1.419 . S
C157 C155 1.415 . S
C157 C162 1.425 . S
C157 C164 1.409 . S
C158 H150 0.930 . S
C158 C156 1.419 . S
C158 C159 1.362 . S
C159 H151 0.930 . S
C159 C158 1.362 . S
C159 C162 1.409 . S
C160 H152 0.930 . S
C160 C161 1.355 . S
C160 C162 1.415 . S
C161 C160 1.355 . S
C161 C163 1.419 . S
C162 C157 1.425 . S
C162 C159 1.409 . S
C162 C160 1.415 . S
C163 H153 0.930 . S
C163 C161 1.419 . S
C163 C164 1.362 . S
C164 H154 0.930 . S
C164 C157 1.409 . S
C164 C163 1.362 . S
H165 C171 0.930 . S
H166 C174 0.930 . S
H167 C175 0.930 . S
H168 C176 0.930 . S
H169 C179 0.930 . S
H170 C180 0.930 . S
C171 H165 0.930 . S
C171 C172 1.355 . S
C171 C173 1.415 . S
C172 C171 1.355 . S
C172 C174 1.419 . S
C173 C171 1.415 . S
C173 C178 1.425 1_556 S
C173 C180 1.409 1_556 S
C174 H166 0.930 . S
C174 C172 1.419 . S
C174 C175 1.362 . S
C175 H167 0.930 . S
C175 C174 1.362 . S
C175 C178 1.409 1_556 S
C176 H168 0.930 . S
C176 C177 1.355 . S
C176 C178 1.415 . S
C177 C176 1.355 . S
C177 C179 1.419 . S
C178 C173 1.425 1_554 S
C178 C175 1.409 1_554 S
C178 C176 1.415 . S
C179 H169 0.930 . S
C179 C177 1.419 . S
C179 C180 1.362 . S
C180 H170 0.930 . S
C180 C173 1.409 1_554 S
C180 C179 1.362 . S
H181 C187 0.930 . S
H182 C190 0.930 . S
H183 C191 0.930 . S
H184 C192 0.930 . S
H185 C195 0.930 . S
H186 C196 0.930 . S
C187 H181 0.930 . S
C187 C188 1.355 . S
C187 C189 1.415 . S
C188 C187 1.355 . S
C188 C190 1.419 . S
C189 C187 1.415 . S
C189 C194 1.425 . S
C189 C196 1.409 . S
C190 H182 0.930 . S
C190 C188 1.419 . S
C190 C191 1.362 . S
C191 H183 0.930 . S
C191 C190 1.362 . S
C191 C194 1.409 . S
C192 H184 0.930 . S
C192 C193 1.355 . S
C192 C194 1.415 . S
C193 C192 1.355 . S
C193 C195 1.419 . S
C194 C189 1.425 . S
C194 C191 1.409 . S
C194 C192 1.415 . S
C195 H185 0.930 . S
C195 C193 1.419 . S
C195 C196 1.362 . S
C196 H186 0.930 . S
C196 C189 1.409 . S
C196 C195 1.362 . S
H197 C203 0.930 . S
H198 C206 0.930 . S
H199 C207 0.930 . S
H200 C208 0.930 . S
H201 C211 0.930 . S
H202 C212 0.930 . S
C203 H197 0.930 . S
C203 C204 1.355 . S
C203 C205 1.415 . S
C204 C203 1.355 . S
C204 C206 1.419 . S
C205 C203 1.415 . S
C205 C210 1.425 . S
C205 C212 1.409 . S
C206 H198 0.930 . S
C206 C204 1.419 . S
C206 C207 1.362 . S
C207 H199 0.930 . S
C207 C206 1.362 . S
C207 C210 1.409 . S
C208 H200 0.930 . S
C208 C209 1.355 . S
C208 C210 1.415 . S
C209 C208 1.355 . S
C209 C211 1.419 . S
C210 C205 1.425 . S
C210 C207 1.409 . S
C210 C208 1.415 . S
C211 H201 0.930 . S
C211 C209 1.419 . S
C211 C212 1.362 . S
C212 H202 0.930 . S
C212 C205 1.409 . S
C212 C211 1.362 . S
C76 C16 1.799 . S
C81 C17 1.796 . S
C92 C40 1.803 1_565 S
C97 C39 1.801 . S
C108 C62 1.803 . S
C113 C63 1.803 . S
C124 C66 1.001 . S
C129 C19 1.006 . S
C140 C41 1.028 . S
C145 C20 1.037 . S
C156 C64 1.001 . S
C161 C44 1.020 . S
C172 C67 1.001 . S
C177 C18 1.013 . S
C188 C21 0.960 . S
C193 C42 0.959 . S
C204 C65 0.900 . S
C209 C43 0.893 . S
