# Generated by pormake.
# Topology gsi, (4)-cn, num edge types: 1
# Building blocks:
#     Node 0, Type 0, BuildingBlock: AZAVOO_clean_sbu_0, # of connection points: 4
#     Node 1, Type 0, BuildingBlock: AZAVOO_clean_sbu_0, # of connection points: 4
#     Node 2, Type 0, BuildingBlock: AZAVOO_clean_sbu_0, # of connection points: 4
#     Node 3, Type 0, BuildingBlock: AZAVOO_clean_sbu_0, # of connection points: 4
#     Node 4, Type 0, BuildingBlock: AZAVOO_clean_sbu_0, # of connection points: 4
#     Node 5, Type 0, BuildingBlock: AZAVOO_clean_sbu_0, # of connection points: 4
#     Node 6, Type 0, BuildingBlock: AZAVOO_clean_sbu_0, # of connection points: 4
#     Node 7, Type 0, BuildingBlock: AZAVOO_clean_sbu_0, # of connection points: 4
#     Node 8, Type 0, BuildingBlock: AZAVOO_clean_sbu_0, # of connection points: 4
#     Node 9, Type 0, BuildingBlock: AZAVOO_clean_sbu_0, # of connection points: 4
#     Node 10, Type 0, BuildingBlock: AZAVOO_clean_sbu_0, # of connection points: 4
#     Node 11, Type 0, BuildingBlock: AZAVOO_clean_sbu_0, # of connection points: 4
#     Node 12, Type 0, BuildingBlock: AZAVOO_clean_sbu_0, # of connection points: 4
#     Node 13, Type 0, BuildingBlock: AZAVOO_clean_sbu_0, # of connection points: 4
#     Node 14, Type 0, BuildingBlock: AZAVOO_clean_sbu_0, # of connection points: 4
#     Node 15, Type 0, BuildingBlock: AZAVOO_clean_sbu_0, # of connection points: 4
#     Edge 16, Type (0, 0), None
#     Edge 17, Type (0, 0), None
#     Edge 18, Type (0, 0), None
#     Edge 19, Type (0, 0), None
#     Edge 20, Type (0, 0), None
#     Edge 21, Type (0, 0), None
#     Edge 22, Type (0, 0), None
#     Edge 23, Type (0, 0), None
#     Edge 24, Type (0, 0), None
#     Edge 25, Type (0, 0), None
#     Edge 26, Type (0, 0), None
#     Edge 27, Type (0, 0), None
#     Edge 28, Type (0, 0), None
#     Edge 29, Type (0, 0), None
#     Edge 30, Type (0, 0), None
#     Edge 31, Type (0, 0), None
#     Edge 32, Type (0, 0), None
#     Edge 33, Type (0, 0), None
#     Edge 34, Type (0, 0), None
#     Edge 35, Type (0, 0), None
#     Edge 36, Type (0, 0), None
#     Edge 37, Type (0, 0), None
#     Edge 38, Type (0, 0), None
#     Edge 39, Type (0, 0), None
#     Edge 40, Type (0, 0), None
#     Edge 41, Type (0, 0), None
#     Edge 42, Type (0, 0), None
#     Edge 43, Type (0, 0), None
#     Edge 44, Type (0, 0), None
#     Edge 45, Type (0, 0), None
#     Edge 46, Type (0, 0), None
#     Edge 47, Type (0, 0), None
# Relax obj value: 0.007
# Max RMSD: 0.027
# Mean RMSD: 0.026
data_MOF--net-gsi--node1-AZAVOO_clean_sbu_0--edge1-none
_symmetry_space_group_name_H-M    P1
_symmetry_Int_Tables_number       1
_symmetry_cell_setting            triclinic
loop_
_symmetry_equiv_pos_as_xyz
'x, y, z'
_cell_length_a     20.024003
_cell_length_b     18.815386
_cell_length_c     20.026478
_cell_angle_alpha  89.992175
_cell_angle_beta   89.999845
_cell_angle_gamma 90.05306
loop_
_atom_site_label
_atom_site_type_symbol
_atom_site_fract_x
_atom_site_fract_y
_atom_site_fract_z
_atom_type_partial_charge
Mg0 Mg 0.11521 0.13182 0.05562 0.0
O1 O 0.17512 0.20587 0.12522 0.0
O2 O 0.27428 0.15888 0.14979 0.0
Mg3 Mg 0.27546 0.0508 0.09554 0.0
C4 C 0.23126 0.20841 0.15538 0.0
C5 C 0.99374 0.22252 0.06477 0.0
O6 O 0.9773 0.16538 0.09849 0.0
O7 O 0.17501 0.15672 0.96545 0.0
O8 O 0.27022 0.10033 -0.01005 0.0
O9 O 0.07145 0.08001 0.14308 0.0
O10 O 0.16495 0.04353 0.09426 0.0
C11 C 0.23314 0.13591 0.95011 0.0
C12 C 0.1216 0.03704 0.14128 0.0
O13 O 0.04851 0.22432 0.03359 0.0
Mg14 Mg 0.87452 0.39221 0.16034 0.0
O15 O 0.81195 0.32186 0.22818 0.0
O16 O 0.71534 0.37268 0.25542 0.0
Mg17 Mg 0.7213 0.48273 0.20514 0.0
C18 C 0.75615 0.32087 0.25856 0.0
C19 C 0.9582 0.28796 0.07754 0.0
O20 O 0.9604 0.34124 0.03525 0.0
O21 O 0.81098 0.37475 0.07158 0.0
O22 O 0.71938 0.43623 0.09806 0.0
O23 O 0.92468 0.43553 0.24729 0.0
O24 O 0.83266 0.48215 0.20227 0.0
C25 C 0.75383 0.3989 0.05733 0.0
C26 C 0.87744 0.48249 0.2485 0.0
O27 O 0.93038 0.29513 0.13375 0.0
Mg28 Mg 0.1293 0.89059 0.27818 0.0
O29 O 0.19144 0.82019 0.21012 0.0
O30 O 0.28767 0.87161 0.18211 0.0
Mg31 Mg 0.28182 0.98191 0.23184 0.0
C32 C 0.24704 0.81953 0.17935 0.0
C33 C 0.04504 0.78806 0.36209 0.0
O34 O 0.04183 0.84283 0.40259 0.0
O35 O 0.19358 0.87412 0.36653 0.0
O36 O 0.2846 0.93637 0.33927 0.0
O37 O 0.07828 0.93314 0.19137 0.0
O38 O 0.17053 0.98048 0.23536 0.0
C39 C 0.25059 0.89898 0.3804 0.0
C40 C 0.12541 0.98029 0.18947 0.0
O41 O 0.07387 0.79349 0.3062 0.0
Mg42 Mg 0.88635 0.63393 0.38234 0.0
O43 O 0.82649 0.70767 0.31268 0.0
O44 O 0.72759 0.66011 0.28772 0.0
Mg45 Mg 0.72662 0.55195 0.34184 0.0
C46 C 0.77047 0.7099 0.28231 0.0
C47 C 0.00882 0.72322 0.37594 0.0
O48 O 0.02611 0.66474 0.34481 0.0
O49 O 0.82623 0.6582 0.47238 0.0
O50 O 0.73141 0.60104 0.44762 0.0
O51 O 0.93058 0.58282 0.29489 0.0
O52 O 0.83714 0.54542 0.34345 0.0
C53 C 0.76822 0.6368 0.48761 0.0
C54 C 0.88064 0.53944 0.2965 0.0
O55 O 0.95276 0.7266 0.40459 0.0
Mg56 Mg 0.38772 0.90494 0.55561 0.0
O57 O 0.32781 0.83087 0.62521 0.0
O58 O 0.22866 0.87787 0.6498 0.0
Mg59 Mg 0.22747 0.98594 0.59553 0.0
C60 C 0.27168 0.82832 0.65537 0.0
C61 C 0.5092 0.81425 0.56475 0.0
O62 O 0.52565 0.87137 0.59847 0.0
O63 O 0.32792 0.88005 0.46545 0.0
O64 O 0.23269 0.93638 0.48997 0.0
O65 O 0.43148 0.95673 0.64307 0.0
O66 O 0.33797 0.99322 0.59426 0.0
C67 C 0.26976 0.9008 0.45014 0.0
C68 C 0.38133 0.99969 0.64128 0.0
O69 O 0.45443 0.81246 0.53358 0.0
Mg70 Mg 0.86582 0.87523 0.89302 0.0
O71 O 0.8193 0.78822 0.8248 0.0
O72 O 0.70991 0.81392 0.82053 0.0
Mg73 Mg 0.68295 0.90748 0.88762 0.0
C74 C 0.76011 0.77633 0.80318 0.0
C75 C 0.02048 0.81147 0.83483 0.0
O76 O 0.08419 0.82475 0.84369 0.0
O77 O 0.85428 0.96234 0.80921 0.0
O78 O 0.74391 0.97772 0.8188 0.0
O79 O 0.84286 0.81148 -0.01104 0.0
O80 O 0.77339 0.88602 0.94249 0.0
C81 C 0.80012 0.99472 0.79339 0.0
C82 C 0.78468 0.84111 -0.01113 0.0
O83 O 0.97773 0.84947 0.86626 0.0
Mg84 Mg 0.15175 0.67511 0.79778 0.0
O85 O 0.20072 0.75916 0.7267 0.0
O86 O 0.30833 0.72824 0.71605 0.0
Mg87 Mg 0.33238 0.63266 0.78266 0.0
C88 C 0.25896 0.76826 0.70137 0.0
C89 C 1.00108 0.75552 0.78755 0.0
O90 O 0.94072 0.75588 0.7621 0.0
O91 O 0.15518 0.58767 0.71382 0.0
O92 O 0.26491 0.56566 0.7168 0.0
O93 O 0.18277 0.73408 0.89435 0.0
O94 O 0.24549 0.65662 0.84326 0.0
C95 C 0.20643 0.55218 0.6948 0.0
C96 C 0.23866 0.70005 0.89163 0.0
O97 O 0.04252 0.70796 0.76818 0.0
Mg98 Mg 0.85185 0.17426 0.6392 0.0
O99 O 0.80323 0.25803 0.7106 0.0
O100 O 0.69558 0.22702 0.72129 0.0
Mg101 Mg 0.67117 0.13181 0.65434 0.0
C102 C 0.74504 0.26697 0.73607 0.0
C103 C 0.00239 0.25504 0.64961 0.0
O104 O 0.06285 0.25533 0.6748 0.0
O105 O 0.84833 0.08658 0.72298 0.0
O106 O 0.73856 0.06461 0.71996 0.0
O107 O 0.82086 0.23371 0.54291 0.0
O108 O 0.75804 0.15603 0.59379 0.0
C109 C 0.79701 0.05104 0.74192 0.0
C110 C 0.76488 0.19971 0.54561 0.0
O111 O 0.96115 0.20704 0.66863 0.0
Mg112 Mg 0.13694 0.37582 0.5444 0.0
O113 O 0.18354 0.28927 0.61288 0.0
O114 O 0.29296 0.31501 0.61698 0.0
Mg115 Mg 0.31986 0.40815 0.54922 0.0
C116 C 0.2427 0.27754 0.63456 0.0
C117 C 0.9826 0.31162 0.60317 0.0
O118 O 0.91882 0.32493 0.59505 0.0
O119 O 0.1489 0.46333 0.62781 0.0
O120 O 0.25927 0.47876 0.61792 0.0
O121 O 0.15952 0.31154 0.44874 0.0
O122 O 0.22925 0.38636 0.49462 0.0
C123 C 0.20314 0.49582 0.64337 0.0
C124 C 0.21775 0.34117 0.44851 0.0
O125 O 0.02509 0.35008 0.57177 0.0
Mg126 Mg 0.63708 0.16146 0.393 0.0
O127 O 0.68361 0.24846 0.32476 0.0
O128 O 0.793 0.22276 0.32052 0.0
Mg129 Mg 0.81995 0.1292 0.38763 0.0
C130 C 0.74281 0.26035 0.30315 0.0
C131 C 0.48243 0.22522 0.33478 0.0
O132 O 0.41872 0.21193 0.34363 0.0
O133 O 0.64863 0.07435 0.3092 0.0
O134 O 0.759 0.05897 0.31881 0.0
O135 O 0.66001 0.22522 0.48891 0.0
O136 O 0.7295 0.15067 0.44248 0.0
C137 C 0.7028 0.04197 0.2934 0.0
C138 C 0.71818 0.19557 0.48885 0.0
O139 O 0.52517 0.18721 0.36622 0.0
Mg140 Mg 0.62842 0.64452 0.66033 0.0
O141 O 0.69098 0.71485 0.72819 0.0
O142 O 0.78757 0.66401 0.75548 0.0
Mg143 Mg 0.78162 0.55397 0.70521 0.0
C144 C 0.74677 0.71582 0.75859 0.0
C145 C 0.54475 0.7488 0.57751 0.0
O146 O 0.54253 0.69553 0.53523 0.0
O147 O 0.69202 0.66199 0.57159 0.0
O148 O 0.7836 0.60048 0.59814 0.0
O149 O 0.57822 0.60117 0.74725 0.0
O150 O 0.67027 0.55457 0.70227 0.0
C151 C 0.74918 0.63785 0.55739 0.0
C152 C 0.62547 0.55422 0.74848 0.0
O153 O 0.57259 0.74162 0.63371 0.0
Mg154 Mg 0.6166 0.40275 0.88234 0.0
O155 O 0.67645 0.32903 0.81267 0.0
O156 O 0.77534 0.3766 0.78766 0.0
Mg157 Mg 0.77631 0.48477 0.84176 0.0
C158 C 0.73246 0.32681 0.78228 0.0
C159 C 0.49414 0.31342 0.87596 0.0
O160 O 0.47686 0.37192 0.84485 0.0
O161 O 0.67676 0.37848 -0.02764 0.0
O162 O 0.77157 0.43565 0.94754 0.0
O163 O 0.57233 0.45388 0.79491 0.0
O164 O 0.66578 0.49127 0.84343 0.0
C165 C 0.73478 0.39987 -0.01246 0.0
C166 C 0.62227 0.49726 0.7965 0.0
O167 O 0.55021 0.31005 0.90461 0.0
Mg168 Mg 0.37364 0.14611 0.77819 0.0
O169 O 0.3115 0.21654 0.71013 0.0
O170 O 0.21527 0.16512 0.68211 0.0
Mg171 Mg 0.22111 0.05481 0.73184 0.0
C172 C 0.2559 0.2172 0.67937 0.0
C173 C 0.45793 0.24858 0.86211 0.0
O174 O 0.46116 0.19379 0.90259 0.0
O175 O 0.30936 0.16257 0.86654 0.0
O176 O 0.2183 0.10037 0.83926 0.0
O177 O 0.42466 0.10357 0.69138 0.0
O178 O 0.3324 0.05623 0.73537 0.0
C179 C 0.25231 0.13777 0.88037 0.0
C180 C 0.37752 0.05643 0.68947 0.0
O181 O 0.42908 0.24318 0.80622 0.0
Mg182 Mg 0.35118 0.3616 0.29778 0.0
O183 O 0.30221 0.27756 0.22671 0.0
O184 O 0.1946 0.30847 0.21606 0.0
Mg185 Mg 0.17054 0.40403 0.28268 0.0
C186 C 0.24397 0.26846 0.20138 0.0
C187 C 0.50184 0.2812 0.28753 0.0
O188 O 0.5622 0.28085 0.26208 0.0
O189 O 0.34773 0.44905 0.21382 0.0
O190 O 0.238 0.47106 0.2168 0.0
O191 O 0.32018 0.30263 0.39437 0.0
O192 O 0.25745 0.3801 0.34326 0.0
C193 C 0.29648 0.48455 0.19479 0.0
C194 C 0.26431 0.33669 0.39166 0.0
O195 O 0.46041 0.32877 0.26817 0.0
Mg196 Mg 0.36599 0.66093 0.04441 0.0
O197 O 0.3194 0.74748 0.11286 0.0
O198 O 0.20998 0.72174 0.11697 0.0
Mg199 Mg 0.18307 0.62862 0.04921 0.0
C200 C 0.26024 0.7592 0.13455 0.0
C201 C 0.52032 0.7251 0.10321 0.0
O202 O 0.5841 0.71178 0.09511 0.0
O203 O 0.35401 0.57341 0.12781 0.0
O204 O 0.24364 0.55799 0.11791 0.0
O205 O 0.34344 0.72522 0.94873 0.0
O206 O 0.2737 0.65039 -0.00538 0.0
C207 C 0.29977 0.54092 0.14337 0.0
C208 C 0.28522 0.69555 0.94848 0.0
O209 O 0.47784 0.68666 0.0718 0.0
Mg210 Mg 0.65105 0.86245 0.13923 0.0
O211 O 0.69969 0.77869 0.21064 0.0
O212 O 0.80733 0.80969 0.2213 0.0
Mg213 Mg 0.83173 0.90492 0.15433 0.0
C214 C 0.75788 0.76975 0.2361 0.0
C215 C 0.50053 0.78166 0.14966 0.0
O216 O 0.44007 0.78134 0.17485 0.0
O217 O 0.65458 0.95013 0.223 0.0
O218 O 0.76435 0.9721 0.21996 0.0
O219 O 0.68202 0.80299 0.04296 0.0
O220 O 0.74485 0.8807 0.0938 0.0
C221 C 0.70591 0.98566 0.24193 0.0
C222 C 0.73798 0.83702 0.04563 0.0
O223 O 0.54176 0.82965 0.16869 0.0
loop_
_geom_bond_atom_site_label_1
_geom_bond_atom_site_label_2
_geom_bond_distance
_geom_bond_site_symmetry_2
_ccdc_geom_bond_type
Mg0 O1 2.028 . S
Mg0 O7 1.986 . S
Mg0 O9 2.114 . S
Mg0 O10 2.251 . S
Mg0 O13 2.010 . S
O1 Mg0 2.028 . S
O1 C4 1.250 . S
O2 Mg3 2.028 . S
O2 C4 1.248 . S
Mg3 O2 2.028 . S
Mg3 O8 2.032 . S
Mg3 O10 2.079 . S
C4 O1 1.250 . S
C4 O2 1.248 . S
C5 O6 1.265 1_455 S
C5 O13 1.248 . S
O6 C5 1.265 1_655 S
O7 Mg0 1.986 . S
O7 C11 1.246 . S
O8 Mg3 2.032 . S
O8 C11 1.259 . S
O9 Mg0 2.114 . S
O9 C12 1.252 . S
O10 Mg0 2.251 . S
O10 Mg3 2.079 . S
O10 C12 1.273 . S
C11 O7 1.246 . S
C11 O8 1.259 . S
C12 O9 1.252 . S
C12 O10 1.273 . S
O13 Mg0 2.010 . S
O13 C5 1.248 . S
Mg14 O15 2.028 . S
Mg14 O21 1.986 . S
Mg14 O23 2.114 . S
Mg14 O24 2.251 . S
Mg14 O27 2.010 . S
O15 Mg14 2.028 . S
O15 C18 1.250 . S
O16 Mg17 2.028 . S
O16 C18 1.248 . S
Mg17 O16 2.028 . S
Mg17 O22 2.032 . S
Mg17 O24 2.079 . S
C18 O15 1.250 . S
C18 O16 1.248 . S
C19 O20 1.265 1_655 S
C19 O27 1.248 . S
O20 C19 1.265 1_455 S
O21 Mg14 1.986 . S
O21 C25 1.246 . S
O22 Mg17 2.032 . S
O22 C25 1.259 . S
O23 Mg14 2.114 . S
O23 C26 1.252 . S
O24 Mg14 2.251 . S
O24 Mg17 2.079 . S
O24 C26 1.273 . S
C25 O21 1.246 . S
C25 O22 1.259 . S
C26 O23 1.252 . S
C26 O24 1.273 . S
O27 Mg14 2.010 . S
O27 C19 1.248 . S
Mg28 O29 2.028 . S
Mg28 O35 1.986 . S
Mg28 O37 2.114 . S
Mg28 O38 2.251 . S
Mg28 O41 2.010 . S
O29 Mg28 2.028 . S
O29 C32 1.250 . S
O30 Mg31 2.028 . S
O30 C32 1.248 . S
Mg31 O30 2.028 . S
Mg31 O36 2.032 . S
Mg31 O38 2.079 . S
C32 O29 1.250 . S
C32 O30 1.248 . S
C33 O34 1.265 1_455 S
C33 O41 1.248 . S
O34 C33 1.265 1_655 S
O35 Mg28 1.986 . S
O35 C39 1.246 . S
O36 Mg31 2.032 . S
O36 C39 1.259 . S
O37 Mg28 2.114 . S
O37 C40 1.252 . S
O38 Mg28 2.251 . S
O38 Mg31 2.079 . S
O38 C40 1.273 . S
C39 O35 1.246 . S
C39 O36 1.259 . S
C40 O37 1.252 . S
C40 O38 1.273 . S
O41 Mg28 2.010 . S
O41 C33 1.248 . S
Mg42 O43 2.028 . S
Mg42 O49 1.986 . S
Mg42 O51 2.114 . S
Mg42 O52 2.251 . S
Mg42 O55 2.010 . S
O43 Mg42 2.028 . S
O43 C46 1.250 . S
O44 Mg45 2.028 . S
O44 C46 1.248 . S
Mg45 O44 2.028 . S
Mg45 O50 2.032 . S
Mg45 O52 2.079 . S
C46 O43 1.250 . S
C46 O44 1.248 . S
C47 O48 1.265 1_655 S
C47 O55 1.248 . S
O48 C47 1.265 1_455 S
O49 Mg42 1.986 . S
O49 C53 1.246 . S
O50 Mg45 2.032 . S
O50 C53 1.259 . S
O51 Mg42 2.114 . S
O51 C54 1.252 . S
O52 Mg42 2.251 . S
O52 Mg45 2.079 . S
O52 C54 1.273 . S
C53 O49 1.246 . S
C53 O50 1.259 . S
C54 O51 1.252 . S
C54 O52 1.273 . S
O55 Mg42 2.010 . S
O55 C47 1.248 . S
Mg56 O57 2.028 . S
Mg56 O63 1.986 . S
Mg56 O65 2.114 . S
Mg56 O66 2.251 . S
Mg56 O69 2.010 . S
O57 Mg56 2.028 . S
O57 C60 1.250 . S
O58 Mg59 2.028 . S
O58 C60 1.248 . S
Mg59 O58 2.028 . S
Mg59 O64 2.032 . S
Mg59 O66 2.079 . S
C60 O57 1.250 . S
C60 O58 1.248 . S
C61 O62 1.264 . S
C61 O69 1.249 . S
O62 C61 1.264 . S
O63 Mg56 1.986 . S
O63 C67 1.246 . S
O64 Mg59 2.032 . S
O64 C67 1.259 . S
O65 Mg56 2.114 . S
O65 C68 1.252 . S
O66 Mg56 2.251 . S
O66 Mg59 2.079 . S
O66 C68 1.273 . S
C67 O63 1.246 . S
C67 O64 1.259 . S
C68 O65 1.252 . S
C68 O66 1.273 . S
O69 Mg56 2.010 . S
O69 C61 1.249 . S
Mg70 O71 2.028 . S
Mg70 O77 1.986 . S
Mg70 O79 2.114 . S
Mg70 O80 2.251 . S
Mg70 O83 2.010 . S
O71 Mg70 2.028 . S
O71 C74 1.250 . S
O72 Mg73 2.028 . S
O72 C74 1.248 . S
Mg73 O72 2.028 . S
Mg73 O78 2.032 . S
Mg73 O80 2.079 . S
C74 O71 1.250 . S
C74 O72 1.248 . S
C75 O76 1.264 1_655 S
C75 O83 1.249 . S
O76 C75 1.264 1_455 S
O77 Mg70 1.986 . S
O77 C81 1.246 . S
O78 Mg73 2.032 . S
O78 C81 1.259 . S
O79 Mg70 2.114 . S
O79 C82 1.252 . S
O80 Mg70 2.251 . S
O80 Mg73 2.079 . S
O80 C82 1.273 . S
C81 O77 1.246 . S
C81 O78 1.259 . S
C82 O79 1.252 . S
C82 O80 1.273 . S
O83 Mg70 2.010 . S
O83 C75 1.249 . S
Mg84 O85 2.028 . S
Mg84 O91 1.986 . S
Mg84 O93 2.114 . S
Mg84 O94 2.251 . S
Mg84 O97 2.010 . S
O85 Mg84 2.028 . S
O85 C88 1.250 . S
O86 Mg87 2.028 . S
O86 C88 1.248 . S
Mg87 O86 2.028 . S
Mg87 O92 2.032 . S
Mg87 O94 2.079 . S
C88 O85 1.250 . S
C88 O86 1.248 . S
C89 O90 1.264 1_455 S
C89 O97 1.249 . S
O90 C89 1.264 1_655 S
O91 Mg84 1.986 . S
O91 C95 1.246 . S
O92 Mg87 2.032 . S
O92 C95 1.259 . S
O93 Mg84 2.114 . S
O93 C96 1.252 . S
O94 Mg84 2.251 . S
O94 Mg87 2.079 . S
O94 C96 1.273 . S
C95 O91 1.246 . S
C95 O92 1.259 . S
C96 O93 1.252 . S
C96 O94 1.273 . S
O97 Mg84 2.010 . S
O97 C89 1.249 . S
Mg98 O99 2.028 . S
Mg98 O105 1.986 . S
Mg98 O107 2.114 . S
Mg98 O108 2.251 . S
Mg98 O111 2.010 . S
O99 Mg98 2.028 . S
O99 C102 1.250 . S
O100 Mg101 2.028 . S
O100 C102 1.248 . S
Mg101 O100 2.028 . S
Mg101 O106 2.032 . S
Mg101 O108 2.079 . S
C102 O99 1.250 . S
C102 O100 1.248 . S
C103 O104 1.264 1_655 S
C103 O111 1.249 . S
O104 C103 1.264 1_455 S
O105 Mg98 1.986 . S
O105 C109 1.246 . S
O106 Mg101 2.032 . S
O106 C109 1.259 . S
O107 Mg98 2.114 . S
O107 C110 1.252 . S
O108 Mg98 2.251 . S
O108 Mg101 2.079 . S
O108 C110 1.273 . S
C109 O105 1.246 . S
C109 O106 1.259 . S
C110 O107 1.252 . S
C110 O108 1.273 . S
O111 Mg98 2.010 . S
O111 C103 1.249 . S
Mg112 O113 2.028 . S
Mg112 O119 1.986 . S
Mg112 O121 2.114 . S
Mg112 O122 2.251 . S
Mg112 O125 2.010 . S
O113 Mg112 2.028 . S
O113 C116 1.250 . S
O114 Mg115 2.028 . S
O114 C116 1.248 . S
Mg115 O114 2.028 . S
Mg115 O120 2.032 . S
Mg115 O122 2.079 . S
C116 O113 1.250 . S
C116 O114 1.248 . S
C117 O118 1.264 1_455 S
C117 O125 1.249 . S
O118 C117 1.264 1_655 S
O119 Mg112 1.986 . S
O119 C123 1.246 . S
O120 Mg115 2.032 . S
O120 C123 1.259 . S
O121 Mg112 2.114 . S
O121 C124 1.252 . S
O122 Mg112 2.251 . S
O122 Mg115 2.079 . S
O122 C124 1.273 . S
C123 O119 1.246 . S
C123 O120 1.259 . S
C124 O121 1.252 . S
C124 O122 1.273 . S
O125 Mg112 2.010 . S
O125 C117 1.249 . S
Mg126 O127 2.028 . S
Mg126 O133 1.986 . S
Mg126 O135 2.114 . S
Mg126 O136 2.251 . S
Mg126 O139 2.010 . S
O127 Mg126 2.028 . S
O127 C130 1.250 . S
O128 Mg129 2.028 . S
O128 C130 1.248 . S
Mg129 O128 2.028 . S
Mg129 O134 2.032 . S
Mg129 O136 2.079 . S
C130 O127 1.250 . S
C130 O128 1.248 . S
C131 O132 1.264 . S
C131 O139 1.249 . S
O132 C131 1.264 . S
O133 Mg126 1.986 . S
O133 C137 1.246 . S
O134 Mg129 2.032 . S
O134 C137 1.259 . S
O135 Mg126 2.114 . S
O135 C138 1.252 . S
O136 Mg126 2.251 . S
O136 Mg129 2.079 . S
O136 C138 1.273 . S
C137 O133 1.246 . S
C137 O134 1.259 . S
C138 O135 1.252 . S
C138 O136 1.273 . S
O139 Mg126 2.010 . S
O139 C131 1.249 . S
Mg140 O141 2.028 . S
Mg140 O147 1.986 . S
Mg140 O149 2.114 . S
Mg140 O150 2.251 . S
Mg140 O153 2.010 . S
O141 Mg140 2.028 . S
O141 C144 1.250 . S
O142 Mg143 2.028 . S
O142 C144 1.248 . S
Mg143 O142 2.028 . S
Mg143 O148 2.032 . S
Mg143 O150 2.079 . S
C144 O141 1.250 . S
C144 O142 1.248 . S
C145 O146 1.264 . S
C145 O153 1.249 . S
O146 C145 1.264 . S
O147 Mg140 1.986 . S
O147 C151 1.246 . S
O148 Mg143 2.032 . S
O148 C151 1.259 . S
O149 Mg140 2.114 . S
O149 C152 1.252 . S
O150 Mg140 2.251 . S
O150 Mg143 2.079 . S
O150 C152 1.273 . S
C151 O147 1.246 . S
C151 O148 1.259 . S
C152 O149 1.252 . S
C152 O150 1.273 . S
O153 Mg140 2.010 . S
O153 C145 1.249 . S
Mg154 O155 2.028 . S
Mg154 O161 1.986 . S
Mg154 O163 2.114 . S
Mg154 O164 2.251 . S
Mg154 O167 2.010 . S
O155 Mg154 2.028 . S
O155 C158 1.250 . S
O156 Mg157 2.028 . S
O156 C158 1.248 . S
Mg157 O156 2.028 . S
Mg157 O162 2.032 . S
Mg157 O164 2.079 . S
C158 O155 1.250 . S
C158 O156 1.248 . S
C159 O160 1.264 . S
C159 O167 1.249 . S
O160 C159 1.264 . S
O161 Mg154 1.986 . S
O161 C165 1.246 . S
O162 Mg157 2.032 . S
O162 C165 1.259 . S
O163 Mg154 2.114 . S
O163 C166 1.252 . S
O164 Mg154 2.251 . S
O164 Mg157 2.079 . S
O164 C166 1.273 . S
C165 O161 1.246 . S
C165 O162 1.259 . S
C166 O163 1.252 . S
C166 O164 1.273 . S
O167 Mg154 2.010 . S
O167 C159 1.249 . S
Mg168 O169 2.028 . S
Mg168 O175 1.986 . S
Mg168 O177 2.114 . S
Mg168 O178 2.251 . S
Mg168 O181 2.010 . S
O169 Mg168 2.028 . S
O169 C172 1.250 . S
O170 Mg171 2.028 . S
O170 C172 1.248 . S
Mg171 O170 2.028 . S
Mg171 O176 2.032 . S
Mg171 O178 2.079 . S
C172 O169 1.250 . S
C172 O170 1.248 . S
C173 O174 1.264 . S
C173 O181 1.249 . S
O174 C173 1.264 . S
O175 Mg168 1.986 . S
O175 C179 1.246 . S
O176 Mg171 2.032 . S
O176 C179 1.259 . S
O177 Mg168 2.114 . S
O177 C180 1.252 . S
O178 Mg168 2.251 . S
O178 Mg171 2.079 . S
O178 C180 1.273 . S
C179 O175 1.246 . S
C179 O176 1.259 . S
C180 O177 1.252 . S
C180 O178 1.273 . S
O181 Mg168 2.010 . S
O181 C173 1.249 . S
Mg182 O183 2.028 . S
Mg182 O189 1.986 . S
Mg182 O191 2.114 . S
Mg182 O192 2.251 . S
Mg182 O195 2.010 . S
O183 Mg182 2.028 . S
O183 C186 1.250 . S
O184 Mg185 2.028 . S
O184 C186 1.248 . S
Mg185 O184 2.028 . S
Mg185 O190 2.032 . S
Mg185 O192 2.079 . S
C186 O183 1.250 . S
C186 O184 1.248 . S
C187 O188 1.264 . S
C187 O195 1.249 . S
O188 C187 1.264 . S
O189 Mg182 1.986 . S
O189 C193 1.246 . S
O190 Mg185 2.032 . S
O190 C193 1.259 . S
O191 Mg182 2.114 . S
O191 C194 1.252 . S
O192 Mg182 2.251 . S
O192 Mg185 2.079 . S
O192 C194 1.273 . S
C193 O189 1.246 . S
C193 O190 1.259 . S
C194 O191 1.252 . S
C194 O192 1.273 . S
O195 Mg182 2.010 . S
O195 C187 1.249 . S
Mg196 O197 2.028 . S
Mg196 O203 1.986 . S
Mg196 O205 2.114 . S
Mg196 O206 2.251 . S
Mg196 O209 2.010 . S
O197 Mg196 2.028 . S
O197 C200 1.250 . S
O198 Mg199 2.028 . S
O198 C200 1.248 . S
Mg199 O198 2.028 . S
Mg199 O204 2.032 . S
Mg199 O206 2.079 . S
C200 O197 1.250 . S
C200 O198 1.248 . S
C201 O202 1.264 . S
C201 O209 1.249 . S
O202 C201 1.264 . S
O203 Mg196 1.986 . S
O203 C207 1.246 . S
O204 Mg199 2.032 . S
O204 C207 1.259 . S
O205 Mg196 2.114 . S
O205 C208 1.252 . S
O206 Mg196 2.251 . S
O206 Mg199 2.079 . S
O206 C208 1.273 . S
C207 O203 1.246 . S
C207 O204 1.259 . S
C208 O205 1.252 . S
C208 O206 1.273 . S
O209 Mg196 2.010 . S
O209 C201 1.249 . S
Mg210 O211 2.028 . S
Mg210 O217 1.986 . S
Mg210 O219 2.114 . S
Mg210 O220 2.251 . S
Mg210 O223 2.010 . S
O211 Mg210 2.028 . S
O211 C214 1.250 . S
O212 Mg213 2.028 . S
O212 C214 1.248 . S
Mg213 O212 2.028 . S
Mg213 O218 2.032 . S
Mg213 O220 2.079 . S
C214 O211 1.250 . S
C214 O212 1.248 . S
C215 O216 1.264 . S
C215 O223 1.249 . S
O216 C215 1.264 . S
O217 Mg210 1.986 . S
O217 C221 1.246 . S
O218 Mg213 2.032 . S
O218 C221 1.259 . S
O219 Mg210 2.114 . S
O219 C222 1.252 . S
O220 Mg210 2.251 . S
O220 Mg213 2.079 . S
O220 C222 1.273 . S
C221 O217 1.246 . S
C221 O218 1.259 . S
C222 O219 1.252 . S
C222 O220 1.273 . S
O223 Mg210 2.010 . S
O223 C215 1.249 . S
C4 C186 1.438 . S
C18 C130 1.438 . S
C200 C32 1.438 . S
C46 C214 1.438 . S
C60 C88 1.438 . S
C144 C74 1.438 . S
C158 C102 1.438 . S
C116 C172 1.438 . S
C40 C12 1.517 1_565 S
C26 C54 1.517 . S
C179 C11 1.429 1_556 S
C25 C165 1.429 1_554 S
C67 C39 1.429 . S
C151 C53 1.429 . S
C19 C5 1.488 1_655 S
C47 C33 1.488 1_655 S
C145 C61 1.488 . S
C109 C81 1.474 1_545 S
C95 C123 1.474 . S
C222 C82 1.501 1_554 S
C96 C208 1.501 1_556 S
C138 C110 1.501 . S
C124 C194 1.501 . S
C89 C75 1.292 1_455 S
C117 C103 1.292 1_455 S
C131 C187 1.292 . S
C152 C166 1.517 . S
C180 C68 1.517 1_545 S
C173 C159 1.488 . S
C207 C193 1.474 . S
C137 C221 1.474 1_545 S
C215 C201 1.292 . S
