# Generated by pormake.
# Topology qtz, (4)-cn, num edge types: 1
# Building blocks:
#     Node 0, Type 0, BuildingBlock: NAHDIM_clean_sbu_0, # of connection points: 4
#     Node 1, Type 0, BuildingBlock: NAHDIM_clean_sbu_0, # of connection points: 4
#     Node 2, Type 0, BuildingBlock: NAHDIM_clean_sbu_0, # of connection points: 4
#     Edge 3, Type (0, 0), BuildingBlock: OJICUG_clean_linker_0, # of connection points: 2
#     Edge 4, Type (0, 0), BuildingBlock: OJICUG_clean_linker_0, # of connection points: 2
#     Edge 5, Type (0, 0), BuildingBlock: OJICUG_clean_linker_0, # of connection points: 2
#     Edge 6, Type (0, 0), BuildingBlock: OJICUG_clean_linker_0, # of connection points: 2
#     Edge 7, Type (0, 0), BuildingBlock: OJICUG_clean_linker_0, # of connection points: 2
#     Edge 8, Type (0, 0), BuildingBlock: OJICUG_clean_linker_0, # of connection points: 2
# Relax obj value: 0.103
# Max RMSD: 0.172
# Mean RMSD: 0.164
data_MOF--net-qtz--node1-NAHDIM_clean_sbu_0--edge1-OJICUG_clean_linker_0
_symmetry_space_group_name_H-M    P1
_symmetry_Int_Tables_number       1
_symmetry_cell_setting            triclinic
loop_
_symmetry_equiv_pos_as_xyz
'x, y, z'
_cell_length_a     17.469008
_cell_length_b     17.554001
_cell_length_c     20.349618
_cell_angle_alpha  94.355919
_cell_angle_beta   89.451781
_cell_angle_gamma 120.24415
loop_
_atom_site_label
_atom_site_type_symbol
_atom_site_fract_x
_atom_site_fract_y
_atom_site_fract_z
_atom_type_partial_charge
C0 C 0.11024 0.48047 0.05577 0.0
O1 O 0.09339 0.54434 0.04821 0.0
O2 O 0.9019 0.45885 0.09928 0.0
Zn3 Zn -0.00643 0.45785 0.15762 0.0
O4 O 0.06988 0.57786 0.20501 0.0
C5 C 0.85624 0.30227 0.21263 0.0
O6 O 0.818 0.28869 0.15424 0.0
O7 O 0.07263 0.4296 0.10139 0.0
C8 C 0.06014 0.59594 0.26505 0.0
O9 O -0.0034 0.53484 0.29793 0.0
C10 C 0.90114 0.52856 0.08753 0.0
O11 O 0.9628 0.60552 0.11482 0.0
O12 O 0.93322 0.36886 0.22436 0.0
C13 C 0.56171 0.94329 0.5968 0.0
O14 O 0.56757 0.01136 0.63302 0.0
O15 O 0.48554 0.09044 0.55603 0.0
Zn16 Zn 0.48879 -0.00192 0.49286 0.0
O17 O 0.36761 0.91039 0.45387 0.0
C18 C 0.65245 0.10713 0.42787 0.0
O19 O 0.68861 0.12095 0.4871 0.0
O20 O 0.5323 0.92801 0.53755 0.0
C21 C 0.34501 0.91424 0.39559 0.0
O22 O 0.3995 0.98058 0.36187 0.0
C23 C 0.42662 0.11224 0.55171 0.0
O24 O 0.36385 0.07191 0.50548 0.0
O25 O 0.56918 0.05734 0.41944 0.0
C26 C 0.58512 0.66707 0.71444 0.0
O27 O 0.57132 0.59627 0.67759 0.0
O28 O 0.52048 0.45116 0.75792 0.0
Zn29 Zn 0.54235 0.55346 0.82243 0.0
O30 O 0.43134 0.52979 0.86875 0.0
C31 C 0.63652 0.50315 0.90484 0.0
O32 O 0.57747 0.42524 0.87713 0.0
O33 O 0.58059 0.66449 0.77666 0.0
C34 C 0.38538 0.46702 0.9047 0.0
O35 O 0.4084 0.40771 0.91304 0.0
C36 C 0.44913 0.40064 0.72454 0.0
O37 O 0.38253 0.41533 0.72954 0.0
O38 O 0.63552 0.57145 0.88927 0.0
C39 C 0.2655 0.4041 -0.01274 0.0
C40 C 0.31031 0.46529 0.94025 0.0
H41 H 0.1668 0.36067 0.06083 0.0
C42 C 0.28539 0.52807 0.92936 0.0
H43 H 0.28304 0.35481 -0.00328 0.0
C44 C 0.21905 0.53137 0.96589 0.0
C45 C 0.17602 0.47207 0.0143 0.0
H46 H 0.31815 0.5759 0.89327 0.0
H47 H 0.20272 0.58165 0.95688 0.0
C48 C 0.19898 0.40752 0.02402 0.0
C49 C 0.84641 0.26313 0.32951 0.0
C50 C 0.80667 0.24679 0.26631 0.0
H51 H 0.829 0.23158 0.43015 0.0
C52 C 0.71734 0.18059 0.25599 0.0
H53 H 0.91524 0.31358 0.33905 0.0
C54 C 0.6679 0.13397 0.30823 0.0
C55 C 0.70681 0.15228 0.3719 0.0
H56 H 0.68476 0.16622 0.20792 0.0
H57 H 0.59865 0.08465 0.29885 0.0
C58 C 0.797 0.2162 0.38176 0.0
C59 C 0.59537 0.88481 0.69446 0.0
C60 C 0.57976 0.87908 0.62618 0.0
H61 H 0.60999 0.82253 0.77603 0.0
C62 C 0.57536 0.80766 0.58658 0.0
H63 H 0.59962 0.93922 0.7263 0.0
C64 C 0.58165 0.74098 0.615 0.0
C65 C 0.59211 0.74402 0.68368 0.0
H66 H 0.56424 0.80167 0.53369 0.0
H67 H 0.57481 0.68535 0.58326 0.0
C68 C 0.60131 0.81786 0.72295 0.0
C69 C 0.7032 0.43398 0.96901 0.0
C70 C 0.70353 0.51048 0.95266 0.0
H71 H 0.7649 0.37967 0.02434 0.0
C72 C 0.76866 0.59324 0.98189 0.0
H73 H 0.65386 0.36914 0.9475 0.0
C74 C 0.83262 0.5993 0.02617 0.0
C75 C 0.8326 0.52271 0.04201 0.0
H76 H 0.7706 0.6534 0.97033 0.0
H77 H 0.88232 0.66401 0.04761 0.0
C78 C 0.76695 0.44001 0.01315 0.0
C79 C 0.20272 0.77047 0.39987 0.0
C80 C 0.26478 0.83835 0.36303 0.0
H81 H 0.08837 0.64076 0.39771 0.0
C82 C 0.25367 0.82921 0.29405 0.0
H83 H 0.20923 0.7759 0.45315 0.0
C84 C 0.18509 0.7515 0.2623 0.0
C85 C 0.12561 0.68188 0.29895 0.0
H86 H 0.30022 0.88039 0.26426 0.0
H87 H 0.18017 0.74505 0.20891 0.0
C88 C 0.13341 0.69314 0.36812 0.0
C89 C 0.36848 0.27539 0.63728 0.0
C90 C 0.44202 0.32592 0.68075 0.0
H91 H 0.30591 0.16825 0.56223 0.0
C92 C 0.50948 0.30457 0.68215 0.0
H93 H 0.31541 0.29013 0.63506 0.0
C94 C 0.50383 0.2346 0.64084 0.0
C95 C 0.43085 0.1846 0.59681 0.0
H96 H 0.5669 0.34189 0.71527 0.0
H97 H 0.55722 0.2203 0.64307 0.0
C98 C 0.3631 0.20559 0.59554 0.0
loop_
_geom_bond_atom_site_label_1
_geom_bond_atom_site_label_2
_geom_bond_distance
_geom_bond_site_symmetry_2
_ccdc_geom_bond_type
C0 O1 1.160 . S
C0 O7 1.185 . S
O1 C0 1.160 . S
O2 Zn3 1.899 1_655 S
O2 C10 1.284 . S
Zn3 O2 1.899 1_455 S
Zn3 O4 2.032 . S
Zn3 O7 2.086 . S
Zn3 O12 1.977 1_455 S
O4 Zn3 2.032 . S
O4 C8 1.278 . S
C5 O6 1.203 . S
C5 O12 1.267 . S
O6 C5 1.203 . S
O7 C0 1.185 . S
O7 Zn3 2.086 . S
C8 O4 1.278 . S
C8 O9 1.211 . S
O9 C8 1.211 . S
C10 O2 1.284 . S
C10 O11 1.273 . S
O11 C10 1.273 . S
O12 Zn3 1.977 1_655 S
O12 C5 1.267 . S
C13 O14 1.160 . S
C13 O20 1.185 . S
O14 C13 1.160 . S
O15 Zn16 1.899 . S
O15 C23 1.284 . S
Zn16 O15 1.899 . S
Zn16 O17 2.032 1_545 S
Zn16 O20 2.086 1_545 S
Zn16 O25 1.977 . S
O17 Zn16 2.032 1_565 S
O17 C21 1.278 . S
C18 O19 1.203 . S
C18 O25 1.267 . S
O19 C18 1.203 . S
O20 C13 1.185 . S
O20 Zn16 2.086 1_565 S
C21 O17 1.278 . S
C21 O22 1.211 . S
O22 C21 1.211 . S
C23 O15 1.284 . S
C23 O24 1.273 . S
O24 C23 1.273 . S
O25 Zn16 1.977 . S
O25 C18 1.267 . S
C26 O27 1.160 . S
C26 O33 1.185 . S
O27 C26 1.160 . S
O28 Zn29 1.899 . S
O28 C36 1.284 . S
Zn29 O28 1.899 . S
Zn29 O30 2.032 . S
Zn29 O33 2.086 . S
Zn29 O38 1.977 . S
O30 Zn29 2.032 . S
O30 C34 1.278 . S
C31 O32 1.203 . S
C31 O38 1.267 . S
O32 C31 1.203 . S
O33 C26 1.185 . S
O33 Zn29 2.086 . S
C34 O30 1.278 . S
C34 O35 1.211 . S
O35 C34 1.211 . S
C36 O28 1.284 . S
C36 O37 1.273 . S
O37 C36 1.273 . S
O38 Zn29 1.977 . S
O38 C31 1.267 . S
C39 C40 1.387 . S
C39 H43 0.950 . S
C39 C48 1.390 1_556 S
C40 C39 1.387 . S
C40 C42 1.387 . S
H41 C48 0.950 . S
C42 C40 1.387 . S
C42 C44 1.390 1_556 S
C42 H46 0.950 . S
H43 C39 0.950 . S
C44 C42 1.390 1_554 S
C44 C45 1.387 . S
C44 H47 0.950 . S
C45 C44 1.387 . S
C45 C48 1.387 . S
H46 C42 0.950 . S
H47 C44 0.950 . S
C48 C39 1.390 1_554 S
C48 H41 0.950 . S
C48 C45 1.387 . S
C49 C50 1.387 . S
C49 H53 0.950 . S
C49 C58 1.390 . S
C50 C49 1.387 . S
C50 C52 1.387 . S
H51 C58 0.950 . S
C52 C50 1.387 . S
C52 C54 1.390 . S
C52 H56 0.950 . S
H53 C49 0.950 . S
C54 C52 1.390 . S
C54 C55 1.387 . S
C54 H57 0.950 . S
C55 C54 1.387 . S
C55 C58 1.387 . S
H56 C52 0.950 . S
H57 C54 0.950 . S
C58 C49 1.390 . S
C58 H51 0.950 . S
C58 C55 1.387 . S
C59 C60 1.387 . S
C59 H63 0.950 . S
C59 C68 1.390 . S
C60 C59 1.387 . S
C60 C62 1.387 . S
H61 C68 0.950 . S
C62 C60 1.387 . S
C62 C64 1.390 . S
C62 H66 0.950 . S
H63 C59 0.950 . S
C64 C62 1.390 . S
C64 C65 1.387 . S
C64 H67 0.950 . S
C65 C64 1.387 . S
C65 C68 1.387 . S
H66 C62 0.950 . S
H67 C64 0.950 . S
C68 C59 1.390 . S
C68 H61 0.950 . S
C68 C65 1.387 . S
C69 C70 1.387 . S
C69 H73 0.950 . S
C69 C78 1.390 1_556 S
C70 C69 1.387 . S
C70 C72 1.387 . S
H71 C78 0.950 . S
C72 C70 1.387 . S
C72 C74 1.390 1_556 S
C72 H76 0.950 . S
H73 C69 0.950 . S
C74 C72 1.390 1_554 S
C74 C75 1.387 . S
C74 H77 0.950 . S
C75 C74 1.387 . S
C75 C78 1.387 . S
H76 C72 0.950 . S
H77 C74 0.950 . S
C78 C69 1.390 1_554 S
C78 H71 0.950 . S
C78 C75 1.387 . S
C79 C80 1.387 . S
C79 H83 0.950 . S
C79 C88 1.390 . S
C80 C79 1.387 . S
C80 C82 1.387 . S
H81 C88 0.950 . S
C82 C80 1.387 . S
C82 C84 1.390 . S
C82 H86 0.950 . S
H83 C79 0.950 . S
C84 C82 1.390 . S
C84 C85 1.387 . S
C84 H87 0.950 . S
C85 C84 1.387 . S
C85 C88 1.387 . S
H86 C82 0.950 . S
H87 C84 0.950 . S
C88 C79 1.390 . S
C88 H81 0.950 . S
C88 C85 1.387 . S
C89 C90 1.387 . S
C89 H93 0.950 . S
C89 C98 1.390 . S
C90 C89 1.387 . S
C90 C92 1.387 . S
H91 C98 0.950 . S
C92 C90 1.387 . S
C92 C94 1.390 . S
C92 H96 0.950 . S
H93 C89 0.950 . S
C94 C92 1.390 . S
C94 C95 1.387 . S
C94 H97 0.950 . S
C95 C94 1.387 . S
C95 C98 1.387 . S
H96 C92 0.950 . S
H97 C94 0.950 . S
C98 C89 1.390 . S
C98 H91 0.950 . S
C98 C95 1.387 . S
C40 C34 1.332 . S
C45 C0 1.327 . S
C50 C5 1.387 . S
C55 C18 1.385 . S
C60 C13 1.339 . S
C65 C26 1.332 . S
C70 C31 1.341 . S
C75 C10 1.393 . S
C80 C21 1.323 . S
C85 C8 1.329 . S
C90 C36 1.359 . S
C95 C23 1.359 . S
