# Generated by pormake.
# Topology afw, (4)-cn, num edge types: 1
# Building blocks:
#     Node 0, Type 0, BuildingBlock: GALJAG_clean_sbu_0, # of connection points: 4
#     Node 1, Type 0, BuildingBlock: GALJAG_clean_sbu_0, # of connection points: 4
#     Node 2, Type 0, BuildingBlock: GALJAG_clean_sbu_0, # of connection points: 4
#     Node 3, Type 0, BuildingBlock: GALJAG_clean_sbu_0, # of connection points: 4
#     Node 4, Type 0, BuildingBlock: GALJAG_clean_sbu_0, # of connection points: 4
#     Node 5, Type 0, BuildingBlock: GALJAG_clean_sbu_0, # of connection points: 4
#     Node 6, Type 0, BuildingBlock: GALJAG_clean_sbu_0, # of connection points: 4
#     Node 7, Type 0, BuildingBlock: GALJAG_clean_sbu_0, # of connection points: 4
#     Node 8, Type 0, BuildingBlock: GALJAG_clean_sbu_0, # of connection points: 4
#     Edge 9, Type (0, 0), None
#     Edge 10, Type (0, 0), None
#     Edge 11, Type (0, 0), None
#     Edge 12, Type (0, 0), None
#     Edge 13, Type (0, 0), None
#     Edge 14, Type (0, 0), None
#     Edge 15, Type (0, 0), None
#     Edge 16, Type (0, 0), None
#     Edge 17, Type (0, 0), None
#     Edge 18, Type (0, 0), None
#     Edge 19, Type (0, 0), None
#     Edge 20, Type (0, 0), None
#     Edge 21, Type (0, 0), None
#     Edge 22, Type (0, 0), None
#     Edge 23, Type (0, 0), None
#     Edge 24, Type (0, 0), None
#     Edge 25, Type (0, 0), None
#     Edge 26, Type (0, 0), None
# Relax obj value: 0.092
# Max RMSD: 0.158
# Mean RMSD: 0.158
data_MOF--net-afw--node1-GALJAG_clean_sbu_0--edge1-none
_symmetry_space_group_name_H-M    P1
_symmetry_Int_Tables_number       1
_symmetry_cell_setting            triclinic
loop_
_symmetry_equiv_pos_as_xyz
'x, y, z'
_cell_length_a     20.756665
_cell_length_b     20.757428
_cell_length_c     12.328811
_cell_angle_alpha  90.001076
_cell_angle_beta   89.9983
_cell_angle_gamma 120.00323
loop_
_atom_site_label
_atom_site_type_symbol
_atom_site_fract_x
_atom_site_fract_y
_atom_site_fract_z
_atom_type_partial_charge
In0 In 0.00528 0.19849 0.00384 0.0
O1 O 0.01563 0.25206 0.83974 0.0
O2 O 0.08447 0.32016 0.97058 0.0
C3 C 0.89527 0.05574 0.00482 0.0
C4 C 0.94563 0.25625 0.13515 0.0
C5 C 0.11529 0.16575 0.00284 0.0
O6 O 0.9146 0.09448 0.91889 0.0
O7 O 0.9283 0.09019 0.08963 0.0
O8 O 0.09596 0.18517 0.08878 0.0
O9 O 0.08226 0.16719 0.91803 0.0
C10 C 0.06492 0.3159 0.87253 0.0
O11 O -0.00508 0.24171 0.16794 0.0
O12 O 0.92609 0.24097 0.03709 0.0
In13 In 0.82182 0.83158 0.00382 0.0
O14 O 0.76824 0.78837 0.83972 0.0
O15 O 0.70015 0.7891 0.97057 0.0
C16 C 0.96457 0.86432 0.00479 0.0
C17 C 0.76405 0.71416 0.13512 0.0
C18 C 0.85461 0.97432 0.00286 0.0
O19 O 0.92582 0.8449 0.91885 0.0
O20 O 0.93011 0.86289 0.0896 0.0
O21 O 0.83513 0.93557 0.0888 0.0
O22 O 0.85317 0.93988 0.91803 0.0
C23 C 0.70441 0.77383 0.87251 0.0
O24 O 0.7786 0.77799 0.16792 0.0
O25 O 0.77932 0.7099 0.03705 0.0
In26 In 0.18873 0.01504 0.00379 0.0
O27 O 0.24231 0.0254 0.16789 0.0
O28 O 0.31041 0.09423 0.03704 0.0
C29 C 0.04599 0.90507 0.00283 0.0
C30 C 0.24649 0.95539 0.87249 0.0
C31 C 0.15596 0.125 0.00478 0.0
O32 O 0.08474 0.92435 0.08876 0.0
O33 O 0.08043 0.93808 0.91799 0.0
O34 O 0.17543 0.10573 0.91884 0.0
O35 O 0.15739 0.09199 0.08961 0.0
C36 C 0.30614 0.07469 0.1351 0.0
O37 O 0.23195 0.00467 0.8397 0.0
O38 O 0.23122 0.93585 0.97055 0.0
In39 In 0.67195 0.53182 0.33716 0.0
O40 O 0.6823 0.5854 0.17306 0.0
O41 O 0.75113 0.65349 0.3039 0.0
C42 C 0.56194 0.38907 0.33813 0.0
C43 C 0.6123 0.58958 0.46846 0.0
C44 C 0.78196 0.49908 0.33618 0.0
O45 O 0.58127 0.42782 0.2522 0.0
O46 O 0.59496 0.42353 0.42295 0.0
O47 O 0.76262 0.5185 0.42212 0.0
O48 O 0.74894 0.50052 0.25137 0.0
C49 C 0.73159 0.64923 0.20584 0.0
O50 O 0.66159 0.57505 0.50125 0.0
O51 O 0.59276 0.5743 0.3704 0.0
In52 In 0.48849 0.16491 0.33714 0.0
O53 O 0.43491 0.1217 0.17304 0.0
O54 O 0.36681 0.12243 0.30388 0.0
C55 C 0.63123 0.19765 0.33813 0.0
C56 C 0.43071 0.0475 0.46843 0.0
C57 C 0.52127 0.30765 0.33617 0.0
O58 O 0.59249 0.17823 0.25219 0.0
O59 O 0.59677 0.19622 0.42294 0.0
O60 O 0.50179 0.2689 0.42211 0.0
O61 O 0.51984 0.27321 0.25134 0.0
C62 C 0.37108 0.10716 0.20582 0.0
O63 O 0.44526 0.11132 0.50123 0.0
O64 O 0.44598 0.04323 0.37037 0.0
In65 In 0.8554 0.34837 0.33716 0.0
O66 O 0.90897 0.35873 0.50126 0.0
O67 O 0.97707 0.42756 0.37041 0.0
C68 C 0.71265 0.2384 0.33618 0.0
C69 C 0.91316 0.28872 0.20586 0.0
C70 C 0.82262 0.45833 0.33814 0.0
O71 O 0.7514 0.25768 0.42212 0.0
O72 O 0.7471 0.27141 0.25135 0.0
O73 O 0.8421 0.43906 0.2522 0.0
O74 O 0.82405 0.42532 0.42296 0.0
C75 C 0.97281 0.40802 0.46847 0.0
O76 O 0.89862 0.338 0.17307 0.0
O77 O 0.89788 0.26918 0.30392 0.0
In78 In 0.33861 0.86515 0.67047 0.0
O79 O 0.34896 0.91873 0.50637 0.0
O80 O 0.41779 0.98683 0.63721 0.0
C81 C 0.2286 0.7224 0.67147 0.0
C82 C 0.27896 0.92292 0.80177 0.0
C83 C 0.44862 0.83242 0.66948 0.0
O84 O 0.24793 0.76114 0.58553 0.0
O85 O 0.26163 0.75686 0.75627 0.0
O86 O 0.4293 0.85184 0.75542 0.0
O87 O 0.41559 0.83385 0.58467 0.0
C88 C 0.39825 0.98256 0.53915 0.0
O89 O 0.32825 0.90838 0.83456 0.0
O90 O 0.25942 0.90763 0.70372 0.0
In91 In 0.15516 0.49825 0.6705 0.0
O92 O 0.10157 0.45502 0.5064 0.0
O93 O 0.03348 0.45576 0.63725 0.0
C94 C 0.2979 0.53098 0.67148 0.0
C95 C 0.09739 0.38083 0.80181 0.0
C96 C 0.18794 0.64098 0.66952 0.0
O97 O 0.25916 0.51156 0.58554 0.0
O98 O 0.26345 0.52956 0.75629 0.0
O99 O 0.16847 0.60224 0.75546 0.0
O100 O 0.1865 0.60654 0.58469 0.0
C101 C 0.03774 0.44049 0.53919 0.0
O102 O 0.11194 0.44466 0.8346 0.0
O103 O 0.11266 0.37657 0.70374 0.0
In104 In 0.52206 0.68171 0.67047 0.0
O105 O 0.57564 0.69208 0.83457 0.0
O106 O 0.64374 0.7609 0.70372 0.0
C107 C 0.37932 0.57174 0.66952 0.0
C108 C 0.57983 0.62206 0.53918 0.0
C109 C 0.48929 0.79167 0.67144 0.0
O110 O 0.41807 0.59102 0.75545 0.0
O111 O 0.41377 0.60474 0.58468 0.0
O112 O 0.50876 0.77239 0.5855 0.0
O113 O 0.49073 0.75867 0.75627 0.0
C114 C 0.63948 0.74136 0.80178 0.0
O115 O 0.56529 0.67134 0.50638 0.0
O116 O 0.56455 0.60252 0.63724 0.0
loop_
_geom_bond_atom_site_label_1
_geom_bond_atom_site_label_2
_geom_bond_distance
_geom_bond_site_symmetry_2
_ccdc_geom_bond_type
In0 O1 2.294 1_554 S
In0 O2 2.326 1_554 S
In0 O6 2.266 1_454 S
In0 O7 2.326 1_455 S
In0 O8 2.266 . S
In0 O9 2.326 1_554 S
In0 O11 2.294 . S
In0 O12 2.326 1_455 S
O1 In0 2.294 1_556 S
O1 C10 1.240 . S
O2 In0 2.326 1_556 S
O2 C10 1.252 . S
C3 O6 1.252 1_554 S
C3 O7 1.260 . S
C4 O11 1.240 1_655 S
C4 O12 1.252 . S
C5 O8 1.252 . S
C5 O9 1.260 1_554 S
O6 In0 2.266 1_656 S
O6 C3 1.252 1_556 S
O7 In0 2.326 1_655 S
O7 C3 1.260 . S
O8 In0 2.266 . S
O8 C5 1.252 . S
O9 In0 2.326 1_556 S
O9 C5 1.260 1_556 S
C10 O1 1.240 . S
C10 O2 1.252 . S
O11 In0 2.294 . S
O11 C4 1.240 1_455 S
O12 In0 2.326 1_655 S
O12 C4 1.252 . S
In13 O14 2.294 1_554 S
In13 O15 2.326 1_554 S
In13 O19 2.266 1_554 S
In13 O20 2.326 . S
In13 O21 2.266 . S
In13 O22 2.326 1_554 S
In13 O24 2.294 . S
In13 O25 2.326 . S
O14 In13 2.294 1_556 S
O14 C23 1.240 . S
O15 In13 2.326 1_556 S
O15 C23 1.252 . S
C16 O19 1.252 1_554 S
C16 O20 1.260 . S
C17 O24 1.240 . S
C17 O25 1.252 . S
C18 O21 1.252 . S
C18 O22 1.260 1_554 S
O19 In13 2.266 1_556 S
O19 C16 1.252 1_556 S
O20 In13 2.326 . S
O20 C16 1.260 . S
O21 In13 2.266 . S
O21 C18 1.252 . S
O22 In13 2.326 1_556 S
O22 C18 1.260 1_556 S
C23 O14 1.240 . S
C23 O15 1.252 . S
O24 In13 2.294 . S
O24 C17 1.240 . S
O25 In13 2.326 . S
O25 C17 1.252 . S
In26 O27 2.294 . S
In26 O28 2.326 . S
In26 O32 2.266 1_545 S
In26 O33 2.326 1_544 S
In26 O34 2.266 1_554 S
In26 O35 2.326 . S
In26 O37 2.294 1_554 S
In26 O38 2.326 1_544 S
O27 In26 2.294 . S
O27 C36 1.240 . S
O28 In26 2.326 . S
O28 C36 1.252 . S
C29 O32 1.252 . S
C29 O33 1.260 1_554 S
C30 O37 1.240 1_565 S
C30 O38 1.252 . S
C31 O34 1.252 1_554 S
C31 O35 1.260 . S
O32 In26 2.266 1_565 S
O32 C29 1.252 . S
O33 In26 2.326 1_566 S
O33 C29 1.260 1_556 S
O34 In26 2.266 1_556 S
O34 C31 1.252 1_556 S
O35 In26 2.326 . S
O35 C31 1.260 . S
C36 O27 1.240 . S
C36 O28 1.252 . S
O37 In26 2.294 1_556 S
O37 C30 1.240 1_545 S
O38 In26 2.326 1_566 S
O38 C30 1.252 . S
In39 O40 2.294 . S
In39 O41 2.326 . S
In39 O45 2.266 . S
In39 O46 2.326 . S
In39 O47 2.266 . S
In39 O48 2.326 . S
In39 O50 2.294 . S
In39 O51 2.326 . S
O40 In39 2.294 . S
O40 C49 1.240 . S
O41 In39 2.326 . S
O41 C49 1.252 . S
C42 O45 1.252 . S
C42 O46 1.260 . S
C43 O50 1.240 . S
C43 O51 1.252 . S
C44 O47 1.252 . S
C44 O48 1.260 . S
O45 In39 2.266 . S
O45 C42 1.252 . S
O46 In39 2.326 . S
O46 C42 1.260 . S
O47 In39 2.266 . S
O47 C44 1.252 . S
O48 In39 2.326 . S
O48 C44 1.260 . S
C49 O40 1.240 . S
C49 O41 1.252 . S
O50 In39 2.294 . S
O50 C43 1.240 . S
O51 In39 2.326 . S
O51 C43 1.252 . S
In52 O53 2.294 . S
In52 O54 2.326 . S
In52 O58 2.266 . S
In52 O59 2.326 . S
In52 O60 2.266 . S
In52 O61 2.326 . S
In52 O63 2.294 . S
In52 O64 2.326 . S
O53 In52 2.294 . S
O53 C62 1.240 . S
O54 In52 2.326 . S
O54 C62 1.252 . S
C55 O58 1.252 . S
C55 O59 1.260 . S
C56 O63 1.240 . S
C56 O64 1.252 . S
C57 O60 1.252 . S
C57 O61 1.260 . S
O58 In52 2.266 . S
O58 C55 1.252 . S
O59 In52 2.326 . S
O59 C55 1.260 . S
O60 In52 2.266 . S
O60 C57 1.252 . S
O61 In52 2.326 . S
O61 C57 1.260 . S
C62 O53 1.240 . S
C62 O54 1.252 . S
O63 In52 2.294 . S
O63 C56 1.240 . S
O64 In52 2.326 . S
O64 C56 1.252 . S
In65 O66 2.294 . S
In65 O67 2.326 . S
In65 O71 2.266 . S
In65 O72 2.326 . S
In65 O73 2.266 . S
In65 O74 2.326 . S
In65 O76 2.294 . S
In65 O77 2.326 . S
O66 In65 2.294 . S
O66 C75 1.240 . S
O67 In65 2.326 . S
O67 C75 1.252 . S
C68 O71 1.252 . S
C68 O72 1.260 . S
C69 O76 1.240 . S
C69 O77 1.252 . S
C70 O73 1.252 . S
C70 O74 1.260 . S
O71 In65 2.266 . S
O71 C68 1.252 . S
O72 In65 2.326 . S
O72 C68 1.260 . S
O73 In65 2.266 . S
O73 C70 1.252 . S
O74 In65 2.326 . S
O74 C70 1.260 . S
C75 O66 1.240 . S
C75 O67 1.252 . S
O76 In65 2.294 . S
O76 C69 1.240 . S
O77 In65 2.326 . S
O77 C69 1.252 . S
In78 O79 2.294 . S
In78 O80 2.326 . S
In78 O84 2.266 . S
In78 O85 2.326 . S
In78 O86 2.266 . S
In78 O87 2.326 . S
In78 O89 2.294 . S
In78 O90 2.326 . S
O79 In78 2.294 . S
O79 C88 1.240 . S
O80 In78 2.326 . S
O80 C88 1.252 . S
C81 O84 1.252 . S
C81 O85 1.260 . S
C82 O89 1.240 . S
C82 O90 1.252 . S
C83 O86 1.252 . S
C83 O87 1.260 . S
O84 In78 2.266 . S
O84 C81 1.252 . S
O85 In78 2.326 . S
O85 C81 1.260 . S
O86 In78 2.266 . S
O86 C83 1.252 . S
O87 In78 2.326 . S
O87 C83 1.260 . S
C88 O79 1.240 . S
C88 O80 1.252 . S
O89 In78 2.294 . S
O89 C82 1.240 . S
O90 In78 2.326 . S
O90 C82 1.252 . S
In91 O92 2.294 . S
In91 O93 2.326 . S
In91 O97 2.266 . S
In91 O98 2.326 . S
In91 O99 2.266 . S
In91 O100 2.326 . S
In91 O102 2.294 . S
In91 O103 2.326 . S
O92 In91 2.294 . S
O92 C101 1.240 . S
O93 In91 2.326 . S
O93 C101 1.252 . S
C94 O97 1.252 . S
C94 O98 1.260 . S
C95 O102 1.240 . S
C95 O103 1.252 . S
C96 O99 1.252 . S
C96 O100 1.260 . S
O97 In91 2.266 . S
O97 C94 1.252 . S
O98 In91 2.326 . S
O98 C94 1.260 . S
O99 In91 2.266 . S
O99 C96 1.252 . S
O100 In91 2.326 . S
O100 C96 1.260 . S
C101 O92 1.240 . S
C101 O93 1.252 . S
O102 In91 2.294 . S
O102 C95 1.240 . S
O103 In91 2.326 . S
O103 C95 1.252 . S
In104 O105 2.294 . S
In104 O106 2.326 . S
In104 O110 2.266 . S
In104 O111 2.326 . S
In104 O112 2.266 . S
In104 O113 2.326 . S
In104 O115 2.294 . S
In104 O116 2.326 . S
O105 In104 2.294 . S
O105 C114 1.240 . S
O106 In104 2.326 . S
O106 C114 1.252 . S
C107 O110 1.252 . S
C107 O111 1.260 . S
C108 O115 1.240 . S
C108 O116 1.252 . S
C109 O112 1.252 . S
C109 O113 1.260 . S
O110 In104 2.266 . S
O110 C107 1.252 . S
O111 In104 2.326 . S
O111 C107 1.260 . S
O112 In104 2.266 . S
O112 C109 1.252 . S
O113 In104 2.326 . S
O113 C109 1.260 . S
C114 O105 1.240 . S
C114 O106 1.252 . S
O115 In104 2.294 . S
O115 C108 1.240 . S
O116 In104 2.326 . S
O116 C108 1.252 . S
C31 C5 1.248 . S
C18 C3 1.248 1_565 S
C16 C29 1.248 1_655 S
C70 C44 1.248 . S
C57 C42 1.248 . S
C55 C68 1.248 . S
C83 C109 1.248 . S
C81 C96 1.248 . S
C94 C107 1.248 . S
C10 C95 1.431 . S
C23 C114 1.431 . S
C82 C30 1.431 . S
C62 C36 1.431 . S
C4 C69 1.431 . S
C49 C17 1.431 . S
C101 C75 1.431 1_455 S
C43 C108 1.431 . S
C88 C56 1.431 1_565 S
