# Generated by pormake.
# Topology hex, (8)-cn, num edge types: 1
# Building blocks:
#     Node 0, Type 0, BuildingBlock: TAGTUT_clean_sbu_1, # of connection points: 8
#     Edge 1, Type (0, 0), BuildingBlock: EYOCIG_clean_linker_4, # of connection points: 2
#     Edge 2, Type (0, 0), BuildingBlock: EYOCIG_clean_linker_4, # of connection points: 2
#     Edge 3, Type (0, 0), BuildingBlock: EYOCIG_clean_linker_4, # of connection points: 2
#     Edge 4, Type (0, 0), BuildingBlock: EYOCIG_clean_linker_4, # of connection points: 2
# Relax obj value: 0.058
# Max RMSD: 0.160
# Mean RMSD: 0.160
data_MOF--net-hex--node1-TAGTUT_clean_sbu_1--edge1-EYOCIG_clean_linker_4
_symmetry_space_group_name_H-M    P1
_symmetry_Int_Tables_number       1
_symmetry_cell_setting            triclinic
loop_
_symmetry_equiv_pos_as_xyz
'x, y, z'
_cell_length_a     15.89523
_cell_length_b     17.208093
_cell_length_c     12.847136
_cell_angle_alpha  80.196324
_cell_angle_beta   103.21928
_cell_angle_gamma 134.68218
loop_
_atom_site_label
_atom_site_type_symbol
_atom_site_fract_x
_atom_site_fract_y
_atom_site_fract_z
_atom_type_partial_charge
C0 C 0.93343 0.29916 0.94695 0.0
C1 C 0.65545 0.98416 0.00027 0.0
C2 C -0.00958 0.97609 0.24835 0.0
Mg3 Mg 0.83506 0.09669 0.84285 0.0
O4 O 0.93148 0.09868 0.95685 0.0
Mg5 Mg 0.94521 0.12966 0.10482 0.0
Mg6 Mg 0.95503 0.99787 0.98424 0.0
O7 O -0.02151 0.89699 0.01178 0.0
Mg8 Mg 0.07518 0.89943 0.12592 0.0
Mg9 Mg -0.03472 0.86645 0.86384 0.0
C10 C 0.91846 0.01873 0.72025 0.0
C11 C 0.7064 0.74732 0.91869 0.0
O12 O 0.94673 0.26176 0.03734 0.0
O13 O 0.90268 0.2559 0.85745 0.0
O14 O 0.73715 0.01531 0.08182 0.0
O15 O 0.67069 0.9931 0.90394 0.0
O16 O 0.86975 0.05535 0.71584 0.0
O17 O -0.04272 0.99826 0.80885 0.0
C18 C 0.20383 0.24843 0.04965 0.0
O19 O 0.15523 0.16102 0.00479 0.0
O20 O 0.14601 0.25197 0.1002 0.0
O21 O -0.03578 0.73462 0.93121 0.0
O22 O 0.00911 0.74089 0.11105 0.0
O23 O 0.17341 0.98107 0.88735 0.0
C24 C -0.02177 0.6976 0.02154 0.0
O25 O 0.23993 0.00439 0.06518 0.0
O26 O 0.03897 0.9393 0.253 0.0
C27 C 0.25519 0.01283 0.96899 0.0
O28 O 0.9531 0.99776 0.1596 0.0
O29 O 0.75486 0.83466 0.96361 0.0
O30 O 0.76438 0.74392 0.86819 0.0
C31 C 0.95227 0.45887 0.96901 0.0
C32 C 0.94205 0.38671 0.94966 0.0
C33 C -0.03941 0.53863 -0.00067 0.0
C34 C -0.02968 0.61049 0.0187 0.0
C35 C 0.4932 0.98882 -0.00337 0.0
C36 C 0.56778 0.98478 0.01024 0.0
C37 C 0.41737 0.00786 0.97339 0.0
C38 C 0.34279 0.01191 0.95963 0.0
C39 C 0.4052 0.44347 -0.00101 0.0
C40 C 0.31434 0.35199 0.01939 0.0
C41 C 0.50504 0.55217 0.96921 0.0
C42 C 0.5959 0.64368 0.94886 0.0
C43 C 0.94632 0.99905 0.53524 0.0
C44 C 0.93549 0.00665 0.62165 0.0
C45 C -0.03855 0.99509 0.43307 0.0
C46 C -0.02722 0.98786 0.34675 0.0
loop_
_geom_bond_atom_site_label_1
_geom_bond_atom_site_label_2
_geom_bond_distance
_geom_bond_site_symmetry_2
_ccdc_geom_bond_type
C0 O12 1.241 1_656 S
C0 O13 1.280 . S
C1 O14 1.277 . S
C1 O15 1.245 1_544 S
C2 O26 1.247 . S
C2 O28 1.289 . S
Mg3 O4 1.926 . S
Mg3 O13 1.984 . S
Mg3 O15 1.988 1_545 S
Mg3 O16 2.061 1_545 S
O4 Mg3 1.926 . S
O4 Mg5 1.986 1_556 S
O4 Mg6 1.917 1_656 S
Mg5 O4 1.986 1_554 S
Mg5 O12 2.043 1_655 S
Mg5 O14 2.042 . S
Mg5 O20 2.037 1_655 S
Mg5 O28 2.237 1_655 S
Mg6 O4 1.917 1_454 S
Mg6 O7 1.917 1_545 S
Mg6 O17 2.106 1_444 S
Mg6 O19 2.079 . S
Mg6 O28 2.106 . S
Mg6 O29 2.079 1_444 S
O7 Mg6 1.917 1_565 S
O7 Mg8 1.926 . S
O7 Mg9 1.985 1_554 S
Mg8 O7 1.926 . S
Mg8 O22 1.984 . S
Mg8 O25 1.988 1_565 S
Mg8 O26 2.061 1_565 S
Mg9 O7 1.985 1_556 S
Mg9 O17 2.235 1_455 S
Mg9 O21 2.044 1_455 S
Mg9 O23 2.044 . S
Mg9 O30 2.035 1_455 S
C10 O16 1.247 . S
C10 O17 1.289 . S
C11 O29 1.245 . S
C11 O30 1.274 . S
O12 C0 1.241 1_454 S
O12 Mg5 2.043 1_455 S
O13 C0 1.280 . S
O13 Mg3 1.984 . S
O14 C1 1.277 . S
O14 Mg5 2.042 . S
O15 C1 1.245 1_566 S
O15 Mg3 1.988 1_565 S
O16 Mg3 2.061 1_565 S
O16 C10 1.247 . S
O17 Mg6 2.106 1_666 S
O17 Mg9 2.235 1_655 S
O17 C10 1.289 . S
C18 O19 1.245 . S
C18 O20 1.274 . S
O19 Mg6 2.079 . S
O19 C18 1.245 . S
O20 Mg5 2.037 1_455 S
O20 C18 1.274 . S
O21 Mg9 2.044 1_655 S
O21 C24 1.241 1_656 S
O22 Mg8 1.984 . S
O22 C24 1.280 . S
O23 Mg9 2.044 . S
O23 C27 1.277 . S
C24 O21 1.241 1_454 S
C24 O22 1.280 . S
O25 Mg8 1.988 1_545 S
O25 C27 1.245 1_544 S
O26 C2 1.247 . S
O26 Mg8 2.061 1_545 S
C27 O23 1.277 . S
C27 O25 1.245 1_566 S
O28 C2 1.289 . S
O28 Mg5 2.237 1_455 S
O28 Mg6 2.106 . S
O29 Mg6 2.079 1_666 S
O29 C11 1.245 . S
O30 Mg9 2.035 1_655 S
O30 C11 1.274 . S
C31 C32 1.169 . S
C31 C33 1.380 1_556 S
C32 C31 1.169 . S
C33 C31 1.380 1_554 S
C33 C34 1.170 . S
C34 C33 1.170 . S
C35 C36 1.170 . S
C35 C37 1.380 1_554 S
C36 C35 1.170 . S
C37 C35 1.380 1_556 S
C37 C38 1.170 1_565 S
C38 C37 1.170 1_545 S
C39 C40 1.170 . S
C39 C41 1.380 1_554 S
C40 C39 1.170 . S
C41 C39 1.380 1_556 S
C41 C42 1.170 . S
C42 C41 1.170 . S
C43 C44 1.170 . S
C43 C45 1.380 . S
C44 C43 1.170 . S
C45 C43 1.380 . S
C45 C46 1.169 1_665 S
C46 C45 1.169 1_445 S
C32 C0 1.285 . S
C34 C24 1.348 1_655 S
C36 C1 1.342 1_565 S
C38 C27 1.335 1_545 S
C40 C18 1.908 . S
C42 C11 1.928 . S
C44 C10 1.456 . S
C46 C2 1.459 . S
