# Generated by pormake.
# Topology uoc, (4)-cn, num edge types: 1
# Building blocks:
#     Node 0, Type 0, BuildingBlock: GALJAG_clean_sbu_0, # of connection points: 4
#     Node 1, Type 0, BuildingBlock: GALJAG_clean_sbu_0, # of connection points: 4
#     Node 2, Type 0, BuildingBlock: GALJAG_clean_sbu_0, # of connection points: 4
#     Node 3, Type 0, BuildingBlock: GALJAG_clean_sbu_0, # of connection points: 4
#     Node 4, Type 0, BuildingBlock: GALJAG_clean_sbu_0, # of connection points: 4
#     Node 5, Type 0, BuildingBlock: GALJAG_clean_sbu_0, # of connection points: 4
#     Node 6, Type 0, BuildingBlock: GALJAG_clean_sbu_0, # of connection points: 4
#     Node 7, Type 0, BuildingBlock: GALJAG_clean_sbu_0, # of connection points: 4
#     Edge 8, Type (0, 0), BuildingBlock: EYOCIG_clean_linker_4, # of connection points: 2
#     Edge 9, Type (0, 0), BuildingBlock: EYOCIG_clean_linker_4, # of connection points: 2
#     Edge 10, Type (0, 0), BuildingBlock: EYOCIG_clean_linker_4, # of connection points: 2
#     Edge 11, Type (0, 0), BuildingBlock: EYOCIG_clean_linker_4, # of connection points: 2
#     Edge 12, Type (0, 0), BuildingBlock: EYOCIG_clean_linker_4, # of connection points: 2
#     Edge 13, Type (0, 0), BuildingBlock: EYOCIG_clean_linker_4, # of connection points: 2
#     Edge 14, Type (0, 0), BuildingBlock: EYOCIG_clean_linker_4, # of connection points: 2
#     Edge 15, Type (0, 0), BuildingBlock: EYOCIG_clean_linker_4, # of connection points: 2
#     Edge 16, Type (0, 0), BuildingBlock: EYOCIG_clean_linker_4, # of connection points: 2
#     Edge 17, Type (0, 0), BuildingBlock: EYOCIG_clean_linker_4, # of connection points: 2
#     Edge 18, Type (0, 0), BuildingBlock: EYOCIG_clean_linker_4, # of connection points: 2
#     Edge 19, Type (0, 0), BuildingBlock: EYOCIG_clean_linker_4, # of connection points: 2
#     Edge 20, Type (0, 0), BuildingBlock: EYOCIG_clean_linker_4, # of connection points: 2
#     Edge 21, Type (0, 0), BuildingBlock: EYOCIG_clean_linker_4, # of connection points: 2
#     Edge 22, Type (0, 0), BuildingBlock: EYOCIG_clean_linker_4, # of connection points: 2
#     Edge 23, Type (0, 0), BuildingBlock: EYOCIG_clean_linker_4, # of connection points: 2
# Relax obj value: 0.017
# Max RMSD: 0.050
# Mean RMSD: 0.050
data_MOF--net-uoc--node1-GALJAG_clean_sbu_0--edge1-EYOCIG_clean_linker_4
_symmetry_space_group_name_H-M    P1
_symmetry_Int_Tables_number       1
_symmetry_cell_setting            triclinic
loop_
_symmetry_equiv_pos_as_xyz
'x, y, z'
_cell_length_a     22.012174
_cell_length_b     22.01398
_cell_length_c     44.589742
_cell_angle_alpha  89.96367
_cell_angle_beta   90.049933
_cell_angle_gamma 90.344086
loop_
_atom_site_label
_atom_site_type_symbol
_atom_site_fract_x
_atom_site_fract_y
_atom_site_fract_z
_atom_type_partial_charge
In0 In 0.11093 0.25093 0.11392 0.0
O1 O 0.03022 0.31501 0.11372 0.0
O2 O 0.11868 0.35288 0.10641 0.0
C3 C 0.06164 0.13954 0.11797 0.0
C4 C 0.15676 0.26933 0.16892 0.0
C5 C 0.15602 0.23402 0.05881 0.0
O6 O 0.02974 0.18637 0.11398 0.0
O7 O 0.11794 0.14875 0.12096 0.0
O8 O 0.1902 0.23523 0.08164 0.0
O9 O 0.10046 0.24307 0.06367 0.0
C10 C 0.06245 0.36185 0.10934 0.0
O11 O 0.19072 0.26717 0.14606 0.0
O12 O 0.10102 0.26028 0.16417 0.0
In13 In 0.75075 0.611 0.36438 0.0
O14 O 0.7675 0.69106 0.33251 0.0
O15 O 0.76043 0.60153 0.31416 0.0
C16 C 0.73303 0.65527 0.4196 0.0
C17 C 0.86164 0.56233 0.36892 0.0
C18 C 0.63912 0.56255 0.35956 0.0
O19 O 0.7348 0.68978 0.3969 0.0
O20 O 0.74204 0.59976 0.41458 0.0
O21 O 0.68562 0.53026 0.36377 0.0
O22 O 0.64881 0.61881 0.3568 0.0
C23 C 0.76962 0.6573 0.30957 0.0
O24 O 0.81473 0.53017 0.36456 0.0
O25 O 0.85274 0.61856 0.37192 0.0
In26 In 0.38877 0.24898 0.61402 0.0
O27 O 0.46999 0.18531 0.61326 0.0
O28 O 0.38176 0.14694 0.60617 0.0
C29 C 0.43917 0.35993 0.6191 0.0
C30 C 0.34205 0.23007 0.66884 0.0
C31 C 0.34163 0.26687 0.55923 0.0
O32 O 0.4706 0.31306 0.61449 0.0
O33 O 0.38283 0.35099 0.62195 0.0
O34 O 0.30834 0.26516 0.58233 0.0
O35 O 0.39741 0.25818 0.56367 0.0
C36 C 0.43811 0.1383 0.60877 0.0
O37 O 0.30847 0.23266 0.64584 0.0
O38 O 0.39792 0.23853 0.66431 0.0
In39 In 0.74942 0.88851 0.86444 0.0
O40 O 0.73309 0.80864 0.83238 0.0
O41 O 0.74067 0.89812 0.8141 0.0
C42 C 0.76738 0.84131 0.91914 0.0
C43 C 0.63912 0.93893 0.86959 0.0
C44 C 0.86102 0.93739 0.86018 0.0
O45 O 0.76472 0.80795 0.89609 0.0
O46 O 0.75917 0.89717 0.91474 0.0
O47 O 0.81443 0.96947 0.8644 0.0
O48 O 0.85146 0.8812 0.85716 0.0
C49 C 0.73181 0.84236 0.80941 0.0
O50 O 0.68644 0.97033 0.86506 0.0
O51 O 0.64725 0.88251 0.87224 0.0
In52 In 0.61078 0.7504 0.61421 0.0
O53 O 0.52933 0.81378 0.61354 0.0
O54 O 0.61732 0.85249 0.60622 0.0
C55 C 0.56131 0.63916 0.61938 0.0
C56 C 0.65797 0.76853 0.669 0.0
C57 C 0.65661 0.73141 0.55935 0.0
O58 O 0.52942 0.68584 0.61499 0.0
O59 O 0.61764 0.64848 0.62203 0.0
O60 O 0.69049 0.73399 0.58225 0.0
O61 O 0.60094 0.74022 0.56398 0.0
C62 C 0.56096 0.86091 0.60891 0.0
O63 O 0.69133 0.76684 0.64592 0.0
O64 O 0.6021 0.75985 0.66452 0.0
In65 In 0.2507 0.1106 0.86453 0.0
O66 O 0.26608 0.18983 0.83192 0.0
O67 O 0.25929 0.09981 0.81426 0.0
C68 C 0.23193 0.15818 0.91904 0.0
C69 C 0.36178 0.06208 0.86987 0.0
C70 C 0.14001 0.05971 0.86038 0.0
O71 O 0.23399 0.19132 0.89587 0.0
O72 O 0.24115 0.10245 0.91484 0.0
O73 O 0.18717 0.02854 0.86479 0.0
O74 O 0.14854 0.11604 0.85717 0.0
C75 C 0.26768 0.15551 0.80919 0.0
O76 O 0.31491 0.02988 0.86557 0.0
O77 O 0.35282 0.11842 0.87227 0.0
In78 In 0.88971 0.74928 0.114 0.0
O79 O 0.81044 0.73319 0.14648 0.0
O80 O 0.90033 0.74099 0.16429 0.0
C81 C 0.84331 0.76541 0.05898 0.0
C82 C 0.93993 0.63908 0.10958 0.0
C83 C 0.93903 0.86068 0.11767 0.0
O84 O 0.80958 0.76393 0.08194 0.0
O85 O 0.89904 0.75702 0.06368 0.0
O86 O 0.97083 0.81383 0.11369 0.0
O87 O 0.88274 0.85154 0.12073 0.0
C88 C 0.84472 0.73189 0.16926 0.0
O89 O 0.97141 0.6865 0.11369 0.0
O90 O 0.88347 0.64706 0.10691 0.0
In91 In 0.24926 0.38958 0.36448 0.0
O92 O 0.23301 0.31039 0.33197 0.0
O93 O 0.24052 0.40032 0.31422 0.0
C94 C 0.26594 0.34185 0.41925 0.0
C95 C 0.13897 0.43976 0.3689 0.0
C96 C 0.36023 0.43989 0.36024 0.0
O97 O 0.26451 0.30873 0.39608 0.0
O98 O 0.25736 0.39765 0.41489 0.0
O99 O 0.31328 0.47119 0.36481 0.0
O100 O 0.35143 0.38359 0.35703 0.0
C101 C 0.23146 0.34471 0.30922 0.0
O102 O 0.18644 0.47129 0.36509 0.0
O103 O 0.14693 0.38328 0.37136 0.0
C104 C 0.19173 0.20981 0.00369 0.0
C105 C 0.17765 0.22067 0.02923 0.0
C106 C 0.20604 0.19567 0.97367 0.0
C107 C 0.21765 0.18109 0.94828 0.0
C108 C 0.79519 0.69387 0.25465 0.0
C109 C 0.78372 0.67965 0.28014 0.0
C110 C 0.80923 0.70776 0.22452 0.0
C111 C 0.82313 0.71857 0.19891 0.0
C112 C 0.30403 0.29053 0.5043 0.0
C113 C 0.31875 0.27992 0.52981 0.0
C114 C 0.28983 0.30439 0.47419 0.0
C115 C 0.27913 0.31889 0.44866 0.0
C116 C 0.70888 0.80559 0.75424 0.0
C117 C 0.71914 0.81991 0.77985 0.0
C118 C 0.69529 0.79188 0.72403 0.0
C119 C 0.68089 0.78143 0.69846 0.0
C120 C 0.207 0.30922 0.25399 0.0
C121 C 0.21797 0.32316 0.27958 0.0
C122 C 0.19303 0.29505 0.22388 0.0
C123 C 0.17886 0.2835 0.19839 0.0
C124 C 0.69316 0.70511 0.50461 0.0
C125 C 0.67873 0.71695 0.52999 0.0
C126 C 0.70764 0.6906 0.47465 0.0
C127 C 0.71906 0.67655 0.44917 0.0
C128 C 0.30484 0.20522 0.72373 0.0
C129 C 0.31932 0.21639 0.69824 0.0
C130 C 0.29096 0.19124 0.75388 0.0
C131 C 0.2805 0.17722 0.7795 0.0
C132 C 0.80684 0.78943 0.00392 0.0
C133 C 0.8211 0.77865 0.02947 0.0
C134 C 0.79262 0.80372 0.97388 0.0
C135 C 0.78125 0.81844 0.94846 0.0
C136 C 0.01367 0.02934 0.11766 0.0
C137 C 0.03587 0.07952 0.11782 0.0
C138 C 0.9873 0.97073 0.11757 0.0
C139 C 0.96496 0.92062 0.11764 0.0
C140 C 0.02984 0.48875 0.36934 0.0
C141 C 0.07958 0.46618 0.36915 0.0
C142 C 0.97153 0.51504 0.36936 0.0
C143 C 0.9215 0.53695 0.36918 0.0
C144 C 0.48766 0.46997 0.62023 0.0
C145 C 0.4654 0.41979 0.61972 0.0
C146 C 0.51364 0.52879 0.6203 0.0
C147 C 0.5356 0.5791 0.6199 0.0
C148 C 0.52991 0.98795 0.87108 0.0
C149 C 0.57967 0.96537 0.87042 0.0
C150 C 0.47159 0.0144 0.87116 0.0
C151 C 0.42163 0.03656 0.8706 0.0
C152 C 0.98895 0.53002 0.10881 0.0
C153 C 0.96637 0.57973 0.10915 0.0
C154 C 0.01524 0.47173 0.10874 0.0
C155 C 0.03714 0.42171 0.10899 0.0
C156 C 0.46994 0.48898 0.35941 0.0
C157 C 0.41995 0.46634 0.35977 0.0
C158 C 0.52857 0.51534 0.35922 0.0
C159 C 0.57888 0.53727 0.35935 0.0
C160 C 0.48612 0.02867 0.60739 0.0
C161 C 0.46392 0.0786 0.608 0.0
C162 C 0.51243 0.97032 0.60743 0.0
C163 C 0.53483 0.92048 0.60808 0.0
C164 C 0.97157 0.98455 0.86007 0.0
C165 C 0.92119 0.96278 0.8601 0.0
C166 C 0.03029 0.01066 0.86012 0.0
C167 C 0.08034 0.03316 0.86023 0.0
loop_
_geom_bond_atom_site_label_1
_geom_bond_atom_site_label_2
_geom_bond_distance
_geom_bond_site_symmetry_2
_ccdc_geom_bond_type
In0 O1 2.294 . S
In0 O2 2.326 . S
In0 O6 2.266 . S
In0 O7 2.326 . S
In0 O8 2.266 . S
In0 O9 2.326 . S
In0 O11 2.294 . S
In0 O12 2.326 . S
O1 In0 2.294 . S
O1 C10 1.240 . S
O2 In0 2.326 . S
O2 C10 1.252 . S
C3 O6 1.252 . S
C3 O7 1.260 . S
C4 O11 1.240 . S
C4 O12 1.252 . S
C5 O8 1.252 . S
C5 O9 1.260 . S
O6 In0 2.266 . S
O6 C3 1.252 . S
O7 In0 2.326 . S
O7 C3 1.260 . S
O8 In0 2.266 . S
O8 C5 1.252 . S
O9 In0 2.326 . S
O9 C5 1.260 . S
C10 O1 1.240 . S
C10 O2 1.252 . S
O11 In0 2.294 . S
O11 C4 1.240 . S
O12 In0 2.326 . S
O12 C4 1.252 . S
In13 O14 2.294 . S
In13 O15 2.326 . S
In13 O19 2.266 . S
In13 O20 2.326 . S
In13 O21 2.266 . S
In13 O22 2.326 . S
In13 O24 2.294 . S
In13 O25 2.326 . S
O14 In13 2.294 . S
O14 C23 1.240 . S
O15 In13 2.326 . S
O15 C23 1.252 . S
C16 O19 1.252 . S
C16 O20 1.260 . S
C17 O24 1.240 . S
C17 O25 1.252 . S
C18 O21 1.252 . S
C18 O22 1.260 . S
O19 In13 2.266 . S
O19 C16 1.252 . S
O20 In13 2.326 . S
O20 C16 1.260 . S
O21 In13 2.266 . S
O21 C18 1.252 . S
O22 In13 2.326 . S
O22 C18 1.260 . S
C23 O14 1.240 . S
C23 O15 1.252 . S
O24 In13 2.294 . S
O24 C17 1.240 . S
O25 In13 2.326 . S
O25 C17 1.252 . S
In26 O27 2.294 . S
In26 O28 2.326 . S
In26 O32 2.266 . S
In26 O33 2.326 . S
In26 O34 2.266 . S
In26 O35 2.326 . S
In26 O37 2.294 . S
In26 O38 2.326 . S
O27 In26 2.294 . S
O27 C36 1.240 . S
O28 In26 2.326 . S
O28 C36 1.252 . S
C29 O32 1.252 . S
C29 O33 1.260 . S
C30 O37 1.240 . S
C30 O38 1.252 . S
C31 O34 1.252 . S
C31 O35 1.260 . S
O32 In26 2.266 . S
O32 C29 1.252 . S
O33 In26 2.326 . S
O33 C29 1.260 . S
O34 In26 2.266 . S
O34 C31 1.252 . S
O35 In26 2.326 . S
O35 C31 1.260 . S
C36 O27 1.240 . S
C36 O28 1.252 . S
O37 In26 2.294 . S
O37 C30 1.240 . S
O38 In26 2.326 . S
O38 C30 1.252 . S
In39 O40 2.294 . S
In39 O41 2.326 . S
In39 O45 2.266 . S
In39 O46 2.326 . S
In39 O47 2.266 . S
In39 O48 2.326 . S
In39 O50 2.294 . S
In39 O51 2.326 . S
O40 In39 2.294 . S
O40 C49 1.240 . S
O41 In39 2.326 . S
O41 C49 1.252 . S
C42 O45 1.252 . S
C42 O46 1.260 . S
C43 O50 1.240 . S
C43 O51 1.252 . S
C44 O47 1.252 . S
C44 O48 1.260 . S
O45 In39 2.266 . S
O45 C42 1.252 . S
O46 In39 2.326 . S
O46 C42 1.260 . S
O47 In39 2.266 . S
O47 C44 1.252 . S
O48 In39 2.326 . S
O48 C44 1.260 . S
C49 O40 1.240 . S
C49 O41 1.252 . S
O50 In39 2.294 . S
O50 C43 1.240 . S
O51 In39 2.326 . S
O51 C43 1.252 . S
In52 O53 2.294 . S
In52 O54 2.326 . S
In52 O58 2.266 . S
In52 O59 2.326 . S
In52 O60 2.266 . S
In52 O61 2.326 . S
In52 O63 2.294 . S
In52 O64 2.326 . S
O53 In52 2.294 . S
O53 C62 1.240 . S
O54 In52 2.326 . S
O54 C62 1.252 . S
C55 O58 1.252 . S
C55 O59 1.260 . S
C56 O63 1.240 . S
C56 O64 1.252 . S
C57 O60 1.252 . S
C57 O61 1.260 . S
O58 In52 2.266 . S
O58 C55 1.252 . S
O59 In52 2.326 . S
O59 C55 1.260 . S
O60 In52 2.266 . S
O60 C57 1.252 . S
O61 In52 2.326 . S
O61 C57 1.260 . S
C62 O53 1.240 . S
C62 O54 1.252 . S
O63 In52 2.294 . S
O63 C56 1.240 . S
O64 In52 2.326 . S
O64 C56 1.252 . S
In65 O66 2.294 . S
In65 O67 2.326 . S
In65 O71 2.266 . S
In65 O72 2.326 . S
In65 O73 2.266 . S
In65 O74 2.326 . S
In65 O76 2.294 . S
In65 O77 2.326 . S
O66 In65 2.294 . S
O66 C75 1.240 . S
O67 In65 2.326 . S
O67 C75 1.252 . S
C68 O71 1.252 . S
C68 O72 1.260 . S
C69 O76 1.240 . S
C69 O77 1.252 . S
C70 O73 1.252 . S
C70 O74 1.260 . S
O71 In65 2.266 . S
O71 C68 1.252 . S
O72 In65 2.326 . S
O72 C68 1.260 . S
O73 In65 2.266 . S
O73 C70 1.252 . S
O74 In65 2.326 . S
O74 C70 1.260 . S
C75 O66 1.240 . S
C75 O67 1.252 . S
O76 In65 2.294 . S
O76 C69 1.240 . S
O77 In65 2.326 . S
O77 C69 1.252 . S
In78 O79 2.294 . S
In78 O80 2.326 . S
In78 O84 2.266 . S
In78 O85 2.326 . S
In78 O86 2.266 . S
In78 O87 2.326 . S
In78 O89 2.294 . S
In78 O90 2.326 . S
O79 In78 2.294 . S
O79 C88 1.240 . S
O80 In78 2.326 . S
O80 C88 1.252 . S
C81 O84 1.252 . S
C81 O85 1.260 . S
C82 O89 1.240 . S
C82 O90 1.252 . S
C83 O86 1.252 . S
C83 O87 1.260 . S
O84 In78 2.266 . S
O84 C81 1.252 . S
O85 In78 2.326 . S
O85 C81 1.260 . S
O86 In78 2.266 . S
O86 C83 1.252 . S
O87 In78 2.326 . S
O87 C83 1.260 . S
C88 O79 1.240 . S
C88 O80 1.252 . S
O89 In78 2.294 . S
O89 C82 1.240 . S
O90 In78 2.326 . S
O90 C82 1.252 . S
In91 O92 2.294 . S
In91 O93 2.326 . S
In91 O97 2.266 . S
In91 O98 2.326 . S
In91 O99 2.266 . S
In91 O100 2.326 . S
In91 O102 2.294 . S
In91 O103 2.326 . S
O92 In91 2.294 . S
O92 C101 1.240 . S
O93 In91 2.326 . S
O93 C101 1.252 . S
C94 O97 1.252 . S
C94 O98 1.260 . S
C95 O102 1.240 . S
C95 O103 1.252 . S
C96 O99 1.252 . S
C96 O100 1.260 . S
O97 In91 2.266 . S
O97 C94 1.252 . S
O98 In91 2.326 . S
O98 C94 1.260 . S
O99 In91 2.266 . S
O99 C96 1.252 . S
O100 In91 2.326 . S
O100 C96 1.260 . S
C101 O92 1.240 . S
C101 O93 1.252 . S
O102 In91 2.294 . S
O102 C95 1.240 . S
O103 In91 2.326 . S
O103 C95 1.252 . S
C104 C105 1.170 . S
C104 C106 1.380 1_554 S
C105 C104 1.170 . S
C106 C104 1.380 1_556 S
C106 C107 1.170 . S
C107 C106 1.170 . S
C108 C109 1.170 . S
C108 C110 1.380 . S
C109 C108 1.170 . S
C110 C108 1.380 . S
C110 C111 1.170 . S
C111 C110 1.170 . S
C112 C113 1.170 . S
C112 C114 1.380 . S
C113 C112 1.170 . S
C114 C112 1.380 . S
C114 C115 1.170 . S
C115 C114 1.170 . S
C116 C117 1.170 . S
C116 C118 1.380 . S
C117 C116 1.170 . S
C118 C116 1.380 . S
C118 C119 1.170 . S
C119 C118 1.170 . S
C120 C121 1.170 . S
C120 C122 1.380 . S
C121 C120 1.170 . S
C122 C120 1.380 . S
C122 C123 1.170 . S
C123 C122 1.170 . S
C124 C125 1.170 . S
C124 C126 1.380 . S
C125 C124 1.170 . S
C126 C124 1.380 . S
C126 C127 1.170 . S
C127 C126 1.170 . S
C128 C129 1.170 . S
C128 C130 1.380 . S
C129 C128 1.170 . S
C130 C128 1.380 . S
C130 C131 1.170 . S
C131 C130 1.170 . S
C132 C133 1.170 . S
C132 C134 1.380 1_554 S
C133 C132 1.170 . S
C134 C132 1.380 1_556 S
C134 C135 1.170 . S
C135 C134 1.170 . S
C136 C137 1.170 . S
C136 C138 1.380 1_445 S
C137 C136 1.170 . S
C138 C136 1.380 1_665 S
C138 C139 1.170 . S
C139 C138 1.170 . S
C140 C141 1.170 . S
C140 C142 1.380 1_455 S
C141 C140 1.170 . S
C142 C140 1.380 1_655 S
C142 C143 1.170 . S
C143 C142 1.170 . S
C144 C145 1.170 . S
C144 C146 1.380 . S
C145 C144 1.170 . S
C146 C144 1.380 . S
C146 C147 1.170 . S
C147 C146 1.170 . S
C148 C149 1.170 . S
C148 C150 1.380 1_565 S
C149 C148 1.170 . S
C150 C148 1.380 1_545 S
C150 C151 1.170 . S
C151 C150 1.170 . S
C152 C153 1.170 . S
C152 C154 1.380 1_655 S
C153 C152 1.170 . S
C154 C152 1.380 1_455 S
C154 C155 1.170 . S
C155 C154 1.170 . S
C156 C157 1.170 . S
C156 C158 1.380 . S
C157 C156 1.170 . S
C158 C156 1.380 . S
C158 C159 1.170 . S
C159 C158 1.170 . S
C160 C161 1.170 . S
C160 C162 1.380 1_545 S
C161 C160 1.170 . S
C162 C160 1.380 1_565 S
C162 C163 1.170 . S
C163 C162 1.170 . S
C164 C165 1.170 . S
C164 C166 1.380 1_665 S
C165 C164 1.170 . S
C166 C164 1.380 1_445 S
C166 C167 1.170 . S
C167 C166 1.170 . S
C105 C5 1.364 . S
C107 C68 1.373 . S
C109 C23 1.373 . S
C111 C88 1.368 . S
C113 C31 1.377 . S
C115 C94 1.376 . S
C117 C49 1.381 . S
C119 C56 1.382 . S
C121 C101 1.366 . S
C123 C4 1.370 . S
C125 C57 1.366 . S
C127 C16 1.360 . S
C129 C30 1.377 . S
C131 C75 1.372 . S
C133 C81 1.367 . S
C135 C42 1.375 . S
C137 C3 1.526 . S
C139 C83 1.525 . S
C141 C95 1.518 . S
C143 C17 1.524 . S
C145 C29 1.526 . S
C147 C55 1.528 . S
C149 C43 1.523 . S
C151 C69 1.525 . S
C153 C82 1.518 . S
C155 C10 1.525 . S
C157 C96 1.524 . S
C159 C18 1.529 . S
C161 C36 1.525 . S
C163 C62 1.523 . S
C165 C44 1.528 . S
C167 C70 1.524 . S
