# Generated by pormake.
# Topology unj, (4)-cn, num edge types: 1
# Building blocks:
#     Node 0, Type 0, BuildingBlock: TATPOV_clean_sbu_0, # of connection points: 4
#     Node 1, Type 0, BuildingBlock: TATPOV_clean_sbu_0, # of connection points: 4
#     Node 2, Type 0, BuildingBlock: TATPOV_clean_sbu_0, # of connection points: 4
#     Node 3, Type 0, BuildingBlock: TATPOV_clean_sbu_0, # of connection points: 4
#     Node 4, Type 0, BuildingBlock: TATPOV_clean_sbu_0, # of connection points: 4
#     Node 5, Type 0, BuildingBlock: TATPOV_clean_sbu_0, # of connection points: 4
#     Edge 6, Type (0, 0), BuildingBlock: OJICUG_clean_linker_0, # of connection points: 2
#     Edge 7, Type (0, 0), BuildingBlock: OJICUG_clean_linker_0, # of connection points: 2
#     Edge 8, Type (0, 0), BuildingBlock: OJICUG_clean_linker_0, # of connection points: 2
#     Edge 9, Type (0, 0), BuildingBlock: OJICUG_clean_linker_0, # of connection points: 2
#     Edge 10, Type (0, 0), BuildingBlock: OJICUG_clean_linker_0, # of connection points: 2
#     Edge 11, Type (0, 0), BuildingBlock: OJICUG_clean_linker_0, # of connection points: 2
#     Edge 12, Type (0, 0), BuildingBlock: OJICUG_clean_linker_0, # of connection points: 2
#     Edge 13, Type (0, 0), BuildingBlock: OJICUG_clean_linker_0, # of connection points: 2
#     Edge 14, Type (0, 0), BuildingBlock: OJICUG_clean_linker_0, # of connection points: 2
#     Edge 15, Type (0, 0), BuildingBlock: OJICUG_clean_linker_0, # of connection points: 2
#     Edge 16, Type (0, 0), BuildingBlock: OJICUG_clean_linker_0, # of connection points: 2
#     Edge 17, Type (0, 0), BuildingBlock: OJICUG_clean_linker_0, # of connection points: 2
# Relax obj value: 0.021
# Max RMSD: 0.060
# Mean RMSD: 0.060
data_MOF--net-unj--node1-TATPOV_clean_sbu_0--edge1-OJICUG_clean_linker_0
_symmetry_space_group_name_H-M    P1
_symmetry_Int_Tables_number       1
_symmetry_cell_setting            triclinic
loop_
_symmetry_equiv_pos_as_xyz
'x, y, z'
_cell_length_a     26.09769
_cell_length_b     26.602521
_cell_length_c     23.530065
_cell_angle_alpha  89.991002
_cell_angle_beta   90.012769
_cell_angle_gamma 121.95113
loop_
_atom_site_label
_atom_site_type_symbol
_atom_site_fract_x
_atom_site_fract_y
_atom_site_fract_z
_atom_type_partial_charge
Zn0 Zn 0.30092 0.08359 0.69675 0.0
Zn1 Zn 0.37537 0.15989 0.62057 0.0
O2 O 0.32849 0.19795 0.65018 0.0
O3 O 0.26908 0.1349 0.71563 0.0
O4 O 0.43026 0.21797 0.56085 0.0
O5 O 0.25866 0.02142 0.63759 0.0
O6 O 0.32586 0.08167 0.5748 0.0
C7 C 0.28838 0.18271 0.68857 0.0
C8 C 0.42482 0.1307 0.72577 0.0
O9 O 0.43403 0.16088 0.68058 0.0
O10 O 0.37136 0.09256 0.74084 0.0
C11 C 0.4594 0.27289 0.57258 0.0
O12 O 0.45371 0.28969 0.62349 0.0
C13 C 0.27963 0.03148 0.58765 0.0
Zn14 Zn 0.18786 0.37997 0.88042 0.0
Zn15 Zn 0.2254 0.45606 0.79484 0.0
O16 O 0.13692 0.43309 0.80783 0.0
O17 O 0.1072 0.3716 0.88048 0.0
O18 O 0.24736 0.51092 0.72795 0.0
O19 O 0.20032 0.32472 0.83366 0.0
O20 O 0.23705 0.38986 0.76405 0.0
C21 C 0.09658 0.39945 0.84359 0.0
C22 C 0.28917 0.49415 0.91093 0.0
O23 O 0.28379 0.50704 0.85988 0.0
O24 O 0.25434 0.44204 0.9294 0.0
C25 C 0.25071 0.55969 0.73648 0.0
O26 O 0.24591 0.57399 0.78881 0.0
C27 C 0.2233 0.33988 0.78457 0.0
Zn28 Zn 0.80508 0.25467 1.01283 0.0
Zn29 Zn 0.73123 0.23884 0.93752 0.0
O30 O 0.71051 0.15403 0.95701 0.0
O31 O 0.79105 0.17347 1.00496 0.0
O32 O 0.6709 0.22435 0.87589 0.0
O33 O 0.87427 0.32353 0.97369 0.0
O34 O 0.81526 0.29173 0.89868 0.0
C35 C 0.74133 0.13612 0.98196 0.0
C36 C 0.72156 0.27968 0.05629 0.0
O37 O 0.70895 0.27665 1.00348 0.0
O38 O 0.75976 0.26749 0.07297 0.0
C39 C 0.61654 0.18255 0.88402 0.0
O40 O 0.60273 0.15237 0.9317 0.0
C41 C 0.86727 0.32545 0.92078 0.0
Zn42 Zn 0.61114 0.85998 0.19674 0.0
Zn43 Zn 0.53668 0.78371 0.12055 0.0
O44 O 0.58356 0.74564 0.15018 0.0
O45 O 0.64296 0.80866 0.21566 0.0
O46 O 0.48179 0.72562 0.06083 0.0
O47 O 0.65341 0.92215 0.13759 0.0
O48 O 0.58619 0.86193 0.07479 0.0
C49 C 0.62366 0.76086 0.18859 0.0
C50 C 0.48724 0.81291 0.22572 0.0
O51 O 0.47803 0.78273 0.18053 0.0
O52 O 0.54071 0.85104 0.2408 0.0
C53 C 0.45267 0.6707 0.07256 0.0
O54 O 0.45836 0.65391 0.12348 0.0
C55 C 0.63244 0.91211 0.08764 0.0
Zn56 Zn 0.72423 0.56358 0.38044 0.0
Zn57 Zn 0.68666 0.48749 0.29487 0.0
O58 O 0.77515 0.51047 0.30786 0.0
O59 O 0.80489 0.57194 0.38053 0.0
O60 O 0.66471 0.43263 0.22799 0.0
O61 O 0.71176 0.61883 0.33367 0.0
O62 O 0.675 0.55368 0.26407 0.0
C63 C 0.8155 0.5441 0.34363 0.0
C64 C 0.62292 0.4494 0.41096 0.0
O65 O 0.62829 0.43651 0.35991 0.0
O66 O 0.65776 0.50151 0.42942 0.0
C67 C 0.66147 0.38392 0.23653 0.0
O68 O 0.66638 0.36968 0.28887 0.0
C69 C 0.68876 0.60367 0.28459 0.0
Zn70 Zn 0.10712 0.68897 0.51277 0.0
Zn71 Zn 0.18092 0.70482 0.43745 0.0
O72 O 0.20162 0.78962 0.45696 0.0
O73 O 0.12108 0.77014 0.50489 0.0
O74 O 0.24122 0.71932 0.37581 0.0
O75 O 0.03792 0.62008 0.47367 0.0
O76 O 0.09686 0.65192 0.39863 0.0
C77 C 0.17079 0.80751 0.4819 0.0
C78 C 0.19068 0.664 0.55622 0.0
O79 O 0.20324 0.66701 0.5034 0.0
O80 O 0.1525 0.6762 0.57291 0.0
C81 C 0.29557 0.76114 0.38392 0.0
O82 O 0.3094 0.79134 0.43159 0.0
C83 C 0.04488 0.61817 0.42075 0.0
C84 C 0.18831 0.94374 0.54828 0.0
C85 C 0.25112 -0.01736 0.5464 0.0
H86 H 0.11315 0.85834 0.52713 0.0
C87 C 0.286 0.96833 0.51269 0.0
H88 H 0.16045 0.95428 0.57349 0.0
C89 C 0.25896 0.91262 0.48653 0.0
C90 C 0.19678 0.87115 0.49362 0.0
H91 H 0.33462 -0.0022 0.51075 0.0
H92 H 0.28744 0.90045 0.46483 0.0
C93 C 0.1613 0.88877 0.52171 0.0
C94 C 0.29622 0.28135 0.68752 0.0
C95 C 0.26684 0.22196 0.70549 0.0
H96 H 0.30519 0.36591 0.69841 0.0
C97 C 0.21907 0.20097 0.74453 0.0
H98 H 0.33309 0.29874 0.65734 0.0
C99 C 0.20361 0.2391 0.76802 0.0
C100 C 0.23515 0.2992 0.75286 0.0
H101 H 0.19479 0.15531 0.75872 0.0
H102 H 0.16787 0.22167 0.79945 0.0
C103 C 0.2803 0.31975 0.71097 0.0
C104 C -0.02729 0.40914 0.90828 0.0
C105 C 0.92214 0.35801 0.88573 0.0
H106 H 0.06922 0.46354 0.91062 0.0
C107 C 0.92962 0.33021 0.83847 0.0
H108 H -0.03196 0.43123 0.9448 0.0
C109 C -0.01223 0.34849 0.8193 0.0
C110 C 0.03847 0.39539 0.84645 0.0
H111 H 0.89141 0.2903 0.82081 0.0
H112 H -0.00677 0.32246 0.78723 0.0
C113 C 0.03053 0.42771 0.88872 0.0
C114 C 0.62608 -0.0247 1.01269 0.0
C115 C 0.66096 0.96096 1.0464 0.0
H116 H 0.62466 0.04321 0.96485 0.0
C117 C 0.72378 -0.00016 1.04829 0.0
H118 H 0.57747 0.94583 1.01074 0.0
C119 C 0.75079 0.05483 1.02174 0.0
C120 C 0.71532 0.07248 0.99365 0.0
H121 H 0.75163 -0.01071 0.07351 0.0
H122 H 0.79895 0.08524 1.02717 0.0
C123 C 0.65314 0.03101 0.98655 0.0
C124 C 0.63174 0.62381 0.21098 0.0
C125 C 0.6769 0.64436 0.25288 0.0
H126 H 0.57893 0.64483 0.15735 0.0
C127 C 0.70844 0.70445 0.26804 0.0
H128 H 0.60685 0.57765 0.19842 0.0
C129 C 0.69298 0.74259 0.24455 0.0
C130 C 0.6452 0.7216 0.20551 0.0
H131 H 0.74419 0.72188 0.29947 0.0
H132 H 0.71727 0.78824 0.25874 0.0
C133 C 0.61582 0.66222 0.18753 0.0
C134 C 0.93944 0.53446 0.4083 0.0
C135 C -0.01002 0.58559 0.38572 0.0
H136 H 0.84293 0.48005 0.41068 0.0
C137 C -0.01754 0.61337 0.33846 0.0
H138 H 0.94414 0.51239 0.44482 0.0
C139 C 0.92429 0.59508 0.3193 0.0
C140 C 0.87361 0.54818 0.34648 0.0
H141 H 0.02065 0.65328 0.32077 0.0
H142 H 0.9188 0.62109 0.28722 0.0
C143 C 0.8816 0.51588 0.38875 0.0
C144 C 0.53143 0.37792 0.54403 0.0
C145 C 0.49931 0.31752 0.52989 0.0
H146 H 0.5948 0.46649 0.5177 0.0
C147 C 0.50614 0.30063 0.47507 0.0
H148 H 0.52706 0.39258 0.58569 0.0
C149 C 0.54518 0.34336 0.43563 0.0
C150 C 0.57818 0.40372 0.45036 0.0
H151 H 0.48181 0.2544 0.46279 0.0
H152 H 0.5503 0.32903 0.39408 0.0
C153 C 0.57033 0.42041 0.50485 0.0
C154 C 0.22505 0.66619 0.6549 0.0
C155 C 0.21805 0.64478 0.59909 0.0
H156 H 0.24247 0.65723 0.74169 0.0
C157 C 0.23067 0.60072 0.58721 0.0
H158 H 0.21641 0.70078 0.66507 0.0
C159 C 0.24504 0.57502 0.63156 0.0
C160 C 0.24767 0.59366 0.68814 0.0
H161 H 0.22563 0.58355 0.54448 0.0
H162 H 0.25106 0.53866 0.6219 0.0
C163 C 0.24012 0.64125 0.69884 0.0
C164 C 0.5101 0.11965 0.85026 0.0
C165 C 0.56897 0.16812 0.84128 0.0
H166 H 0.4191 0.06955 0.8208 0.0
C167 C 0.58115 0.20259 0.79195 0.0
H168 H 0.49916 0.09184 0.88751 0.0
C169 C 0.53484 0.18969 0.75327 0.0
C170 C 0.47558 0.14205 0.76324 0.0
H171 H 0.62615 0.24013 0.7837 0.0
H172 H 0.54521 0.21777 0.71633 0.0
C173 C 0.46408 0.10677 0.81179 0.0
C174 C 0.36688 0.6002 0.9356 0.0
C175 C 0.33391 0.53984 0.95034 0.0
H176 H 0.43022 0.68917 0.96275 0.0
C177 C 0.34177 0.52317 1.00484 0.0
H178 H 0.36175 0.61452 0.89404 0.0
C179 C 0.38067 0.56566 1.04401 0.0
C180 C 0.41275 0.62606 1.02987 0.0
H181 H 0.31732 0.47709 1.01769 0.0
H182 H 0.38505 0.55101 0.08568 0.0
C183 C 0.40591 0.64294 0.97504 0.0
C184 C 0.68149 0.34289 0.08728 0.0
C185 C 0.69421 0.29889 0.09917 0.0
H186 H 0.66099 0.40487 0.12194 0.0
C187 C 0.6873 0.27753 0.155 0.0
H188 H 0.68646 0.36002 1.04454 0.0
C189 C 0.67222 0.30244 0.19893 0.0
C190 C 0.66455 0.34996 0.18821 0.0
H191 H 0.69601 0.24299 0.16519 0.0
H192 H 0.66993 0.2865 0.24178 0.0
C193 C 0.6671 0.36856 0.13162 0.0
C194 C 0.33094 0.74105 0.29188 0.0
C195 C 0.34312 0.77555 0.34119 0.0
H196 H 0.36685 0.72583 0.21629 0.0
C197 C 0.402 0.82403 0.35015 0.0
H198 H 0.28593 0.7035 0.28364 0.0
C199 C 0.448 0.83689 0.31169 0.0
C200 C 0.43649 0.80159 0.26316 0.0
H201 H 0.41295 0.85187 0.38738 0.0
H202 H 0.49299 0.87412 0.32069 0.0
C203 C 0.37723 0.75394 0.25321 0.0
loop_
_geom_bond_atom_site_label_1
_geom_bond_atom_site_label_2
_geom_bond_distance
_geom_bond_site_symmetry_2
_ccdc_geom_bond_type
Zn0 O3 2.031 . S
Zn0 O5 2.049 . S
Zn0 O10 2.067 . S
Zn1 O2 1.962 . S
Zn1 O4 1.986 . S
Zn1 O6 1.996 . S
Zn1 O9 1.943 . S
O2 Zn1 1.962 . S
O2 C7 1.254 . S
O3 Zn0 2.031 . S
O3 C7 1.269 . S
O4 Zn1 1.986 . S
O4 C11 1.262 . S
O5 Zn0 2.049 . S
O5 C13 1.260 . S
O6 Zn1 1.996 . S
O6 C13 1.257 . S
C7 O2 1.254 . S
C7 O3 1.269 . S
C8 O9 1.249 . S
C8 O10 1.270 . S
O9 Zn1 1.943 . S
O9 C8 1.249 . S
O10 Zn0 2.067 . S
O10 C8 1.270 . S
C11 O4 1.262 . S
C11 O12 1.232 . S
O12 C11 1.232 . S
C13 O5 1.260 . S
C13 O6 1.257 . S
Zn14 O17 2.031 . S
Zn14 O19 2.049 . S
Zn14 O24 2.067 . S
Zn15 O16 1.962 . S
Zn15 O18 1.986 . S
Zn15 O20 1.996 . S
Zn15 O23 1.943 . S
O16 Zn15 1.962 . S
O16 C21 1.254 . S
O17 Zn14 2.031 . S
O17 C21 1.269 . S
O18 Zn15 1.986 . S
O18 C25 1.262 . S
O19 Zn14 2.049 . S
O19 C27 1.260 . S
O20 Zn15 1.996 . S
O20 C27 1.257 . S
C21 O16 1.254 . S
C21 O17 1.269 . S
C22 O23 1.249 . S
C22 O24 1.270 . S
O23 Zn15 1.943 . S
O23 C22 1.249 . S
O24 Zn14 2.067 . S
O24 C22 1.270 . S
C25 O18 1.262 . S
C25 O26 1.232 . S
O26 C25 1.232 . S
C27 O19 1.260 . S
C27 O20 1.257 . S
Zn28 O31 2.031 . S
Zn28 O33 2.049 . S
Zn28 O38 2.067 1_556 S
Zn29 O30 1.962 . S
Zn29 O32 1.986 . S
Zn29 O34 1.996 . S
Zn29 O37 1.943 . S
O30 Zn29 1.962 . S
O30 C35 1.254 . S
O31 Zn28 2.031 . S
O31 C35 1.269 . S
O32 Zn29 1.986 . S
O32 C39 1.262 . S
O33 Zn28 2.049 . S
O33 C41 1.260 . S
O34 Zn29 1.996 . S
O34 C41 1.257 . S
C35 O30 1.254 . S
C35 O31 1.269 . S
C36 O37 1.249 . S
C36 O38 1.270 1_556 S
O37 Zn29 1.943 . S
O37 C36 1.249 . S
O38 Zn28 2.067 1_554 S
O38 C36 1.270 1_554 S
C39 O32 1.262 . S
C39 O40 1.232 . S
O40 C39 1.232 . S
C41 O33 1.260 . S
C41 O34 1.257 . S
Zn42 O45 2.031 . S
Zn42 O47 2.049 . S
Zn42 O52 2.067 . S
Zn43 O44 1.962 . S
Zn43 O46 1.986 1_554 S
Zn43 O48 1.996 . S
Zn43 O51 1.943 . S
O44 Zn43 1.962 . S
O44 C49 1.254 . S
O45 Zn42 2.031 . S
O45 C49 1.269 . S
O46 Zn43 1.986 1_556 S
O46 C53 1.263 . S
O47 Zn42 2.049 . S
O47 C55 1.260 . S
O48 Zn43 1.996 . S
O48 C55 1.257 . S
C49 O44 1.254 . S
C49 O45 1.269 . S
C50 O51 1.249 . S
C50 O52 1.270 . S
O51 Zn43 1.943 . S
O51 C50 1.249 . S
O52 Zn42 2.067 . S
O52 C50 1.270 . S
C53 O46 1.263 . S
C53 O54 1.218 1_556 S
O54 C53 1.218 1_554 S
C55 O47 1.260 . S
C55 O48 1.257 . S
Zn56 O59 2.031 . S
Zn56 O61 2.049 . S
Zn56 O66 2.067 . S
Zn57 O58 1.962 . S
Zn57 O60 1.986 . S
Zn57 O62 1.996 . S
Zn57 O65 1.943 . S
O58 Zn57 1.962 . S
O58 C63 1.254 . S
O59 Zn56 2.031 . S
O59 C63 1.269 . S
O60 Zn57 1.986 . S
O60 C67 1.262 . S
O61 Zn56 2.049 . S
O61 C69 1.260 . S
O62 Zn57 1.996 . S
O62 C69 1.257 . S
C63 O58 1.254 . S
C63 O59 1.269 . S
C64 O65 1.249 . S
C64 O66 1.270 . S
O65 Zn57 1.943 . S
O65 C64 1.249 . S
O66 Zn56 2.067 . S
O66 C64 1.270 . S
C67 O60 1.262 . S
C67 O68 1.232 . S
O68 C67 1.232 . S
C69 O61 1.260 . S
C69 O62 1.257 . S
Zn70 O73 2.031 . S
Zn70 O75 2.049 . S
Zn70 O80 2.067 . S
Zn71 O72 1.962 . S
Zn71 O74 1.986 . S
Zn71 O76 1.996 . S
Zn71 O79 1.943 . S
O72 Zn71 1.962 . S
O72 C77 1.254 . S
O73 Zn70 2.031 . S
O73 C77 1.269 . S
O74 Zn71 1.986 . S
O74 C81 1.262 . S
O75 Zn70 2.049 . S
O75 C83 1.260 . S
O76 Zn71 1.996 . S
O76 C83 1.257 . S
C77 O72 1.254 . S
C77 O73 1.269 . S
C78 O79 1.249 . S
C78 O80 1.270 . S
O79 Zn71 1.943 . S
O79 C78 1.249 . S
O80 Zn70 2.067 . S
O80 C78 1.270 . S
C81 O74 1.262 . S
C81 O82 1.232 . S
O82 C81 1.232 . S
C83 O75 1.260 . S
C83 O76 1.257 . S
C84 C85 1.387 . S
C84 H88 0.950 . S
C84 C93 1.390 1_545 S
C85 C84 1.387 . S
C85 C87 1.387 . S
H86 C93 0.950 . S
C87 C85 1.387 . S
C87 C89 1.390 1_545 S
C87 H91 0.950 . S
H88 C84 0.950 . S
C89 C87 1.390 1_565 S
C89 C90 1.387 . S
C89 H92 0.950 . S
C90 C89 1.387 . S
C90 C93 1.387 . S
H91 C87 0.950 . S
H92 C89 0.950 . S
C93 C84 1.390 1_565 S
C93 H86 0.950 . S
C93 C90 1.387 . S
C94 C95 1.387 . S
C94 H98 0.950 . S
C94 C103 1.390 . S
C95 C94 1.387 . S
C95 C97 1.387 . S
H96 C103 0.950 . S
C97 C95 1.387 . S
C97 C99 1.390 . S
C97 H101 0.950 . S
H98 C94 0.950 . S
C99 C97 1.390 . S
C99 C100 1.387 . S
C99 H102 0.950 . S
C100 C99 1.387 . S
C100 C103 1.387 . S
H101 C97 0.950 . S
H102 C99 0.950 . S
C103 C94 1.390 . S
C103 H96 0.950 . S
C103 C100 1.387 . S
C104 C105 1.387 . S
C104 H108 0.950 . S
C104 C113 1.390 1_655 S
C105 C104 1.387 . S
C105 C107 1.387 . S
H106 C113 0.950 . S
C107 C105 1.387 . S
C107 C109 1.390 1_655 S
C107 H111 0.950 . S
H108 C104 0.950 . S
C109 C107 1.390 1_455 S
C109 C110 1.387 . S
C109 H112 0.950 . S
C110 C109 1.387 . S
C110 C113 1.387 . S
H111 C107 0.950 . S
H112 C109 0.950 . S
C113 C104 1.390 1_455 S
C113 H106 0.950 . S
C113 C110 1.387 . S
C114 C115 1.387 . S
C114 H118 0.950 . S
C114 C123 1.390 1_564 S
C115 C114 1.387 . S
C115 C117 1.387 . S
H116 C123 0.950 . S
C117 C115 1.387 . S
C117 C119 1.390 1_564 S
C117 H121 0.950 . S
H118 C114 0.950 . S
C119 C117 1.390 1_546 S
C119 C120 1.387 . S
C119 H122 0.950 . S
C120 C119 1.387 . S
C120 C123 1.387 . S
H121 C117 0.950 . S
H122 C119 0.950 . S
C123 C114 1.390 1_546 S
C123 H116 0.950 . S
C123 C120 1.387 . S
C124 C125 1.387 . S
C124 H128 0.950 . S
C124 C133 1.390 . S
C125 C124 1.387 . S
C125 C127 1.387 . S
H126 C133 0.950 . S
C127 C125 1.387 . S
C127 C129 1.390 . S
C127 H131 0.950 . S
H128 C124 0.950 . S
C129 C127 1.390 . S
C129 C130 1.387 . S
C129 H132 0.950 . S
C130 C129 1.387 . S
C130 C133 1.387 . S
H131 C127 0.950 . S
H132 C129 0.950 . S
C133 C124 1.390 . S
C133 H126 0.950 . S
C133 C130 1.387 . S
C134 C135 1.387 . S
C134 H138 0.950 . S
C134 C143 1.390 1_455 S
C135 C134 1.387 . S
C135 C137 1.387 . S
H136 C143 0.950 . S
C137 C135 1.387 . S
C137 C139 1.390 1_455 S
C137 H141 0.950 . S
H138 C134 0.950 . S
C139 C137 1.390 1_655 S
C139 C140 1.387 . S
C139 H142 0.950 . S
C140 C139 1.387 . S
C140 C143 1.387 . S
H141 C137 0.950 . S
H142 C139 0.950 . S
C143 C134 1.390 1_655 S
C143 H136 0.950 . S
C143 C140 1.387 . S
C144 C145 1.387 . S
C144 H148 0.950 . S
C144 C153 1.390 . S
C145 C144 1.387 . S
C145 C147 1.387 . S
H146 C153 0.950 . S
C147 C145 1.387 . S
C147 C149 1.390 . S
C147 H151 0.950 . S
H148 C144 0.950 . S
C149 C147 1.390 . S
C149 C150 1.387 . S
C149 H152 0.950 . S
C150 C149 1.387 . S
C150 C153 1.387 . S
H151 C147 0.950 . S
H152 C149 0.950 . S
C153 C144 1.390 . S
C153 H146 0.950 . S
C153 C150 1.387 . S
C154 C155 1.387 . S
C154 H158 0.950 . S
C154 C163 1.390 . S
C155 C154 1.387 . S
C155 C157 1.387 . S
H156 C163 0.950 . S
C157 C155 1.387 . S
C157 C159 1.390 . S
C157 H161 0.950 . S
H158 C154 0.950 . S
C159 C157 1.390 . S
C159 C160 1.387 . S
C159 H162 0.950 . S
C160 C159 1.387 . S
C160 C163 1.387 . S
H161 C157 0.950 . S
H162 C159 0.950 . S
C163 C154 1.390 . S
C163 H156 0.950 . S
C163 C160 1.387 . S
C164 C165 1.387 . S
C164 H168 0.950 . S
C164 C173 1.390 . S
C165 C164 1.387 . S
C165 C167 1.387 . S
H166 C173 0.950 . S
C167 C165 1.387 . S
C167 C169 1.390 . S
C167 H171 0.950 . S
H168 C164 0.950 . S
C169 C167 1.390 . S
C169 C170 1.387 . S
C169 H172 0.950 . S
C170 C169 1.387 . S
C170 C173 1.387 . S
H171 C167 0.950 . S
H172 C169 0.950 . S
C173 C164 1.390 . S
C173 H166 0.950 . S
C173 C170 1.387 . S
C174 C175 1.387 . S
C174 H178 0.950 . S
C174 C183 1.390 . S
C175 C174 1.387 . S
C175 C177 1.387 . S
H176 C183 0.950 . S
C177 C175 1.387 . S
C177 C179 1.390 . S
C177 H181 0.950 . S
H178 C174 0.950 . S
C179 C177 1.390 . S
C179 C180 1.387 . S
C179 H182 0.950 . S
C180 C179 1.387 . S
C180 C183 1.387 . S
H181 C177 0.950 . S
H182 C179 0.950 . S
C183 C174 1.390 . S
C183 H176 0.950 . S
C183 C180 1.387 . S
C184 C185 1.387 . S
C184 H188 0.967 . S
C184 C193 1.390 . S
C185 C184 1.387 . S
C185 C187 1.387 . S
H186 C193 0.950 . S
C187 C185 1.387 . S
C187 C189 1.390 . S
C187 H191 0.950 . S
H188 C184 0.967 . S
C189 C187 1.390 . S
C189 C190 1.387 . S
C189 H192 0.950 . S
C190 C189 1.387 . S
C190 C193 1.387 . S
H191 C187 0.950 . S
H192 C189 0.950 . S
C193 C184 1.390 . S
C193 H186 0.950 . S
C193 C190 1.387 . S
C194 C195 1.387 . S
C194 H198 0.950 . S
C194 C203 1.390 . S
C195 C194 1.387 . S
C195 C197 1.387 . S
H196 C203 0.950 . S
C197 C195 1.387 . S
C197 C199 1.390 . S
C197 H201 0.950 . S
H198 C194 0.950 . S
C199 C197 1.390 . S
C199 C200 1.387 . S
C199 H202 0.950 . S
C200 C199 1.387 . S
C200 C203 1.387 . S
H201 C197 0.950 . S
H202 C199 0.950 . S
C203 C194 1.390 . S
C203 H196 0.950 . S
C203 C200 1.387 . S
C85 C13 1.386 . S
C90 C77 1.449 . S
C95 C7 1.449 . S
C100 C27 1.386 . S
C105 C41 1.389 . S
C110 C21 1.448 . S
C115 C55 1.389 . S
C120 C35 1.449 . S
C125 C69 1.386 . S
C130 C49 1.449 . S
C135 C83 1.389 . S
C140 C63 1.448 . S
C145 C11 1.521 . S
C150 C64 1.494 . S
C155 C78 1.495 . S
C160 C25 1.520 . S
C165 C39 1.520 . S
C170 C8 1.494 . S
C175 C22 1.493 . S
C180 C53 1.535 . S
C185 C36 1.493 1_554 S
C190 C67 1.521 . S
C195 C81 1.520 . S
C200 C50 1.494 . S
