# Generated by pormake.
# Topology unj, (4)-cn, num edge types: 1
# Building blocks:
#     Node 0, Type 0, BuildingBlock: TATPOV_clean_sbu_0, # of connection points: 4
#     Node 1, Type 0, BuildingBlock: TATPOV_clean_sbu_0, # of connection points: 4
#     Node 2, Type 0, BuildingBlock: TATPOV_clean_sbu_0, # of connection points: 4
#     Node 3, Type 0, BuildingBlock: TATPOV_clean_sbu_0, # of connection points: 4
#     Node 4, Type 0, BuildingBlock: TATPOV_clean_sbu_0, # of connection points: 4
#     Node 5, Type 0, BuildingBlock: TATPOV_clean_sbu_0, # of connection points: 4
#     Edge 6, Type (0, 0), BuildingBlock: AJUNOK_clean_linker_0, # of connection points: 2
#     Edge 7, Type (0, 0), BuildingBlock: AJUNOK_clean_linker_0, # of connection points: 2
#     Edge 8, Type (0, 0), BuildingBlock: AJUNOK_clean_linker_0, # of connection points: 2
#     Edge 9, Type (0, 0), BuildingBlock: AJUNOK_clean_linker_0, # of connection points: 2
#     Edge 10, Type (0, 0), BuildingBlock: AJUNOK_clean_linker_0, # of connection points: 2
#     Edge 11, Type (0, 0), BuildingBlock: AJUNOK_clean_linker_0, # of connection points: 2
#     Edge 12, Type (0, 0), BuildingBlock: AJUNOK_clean_linker_0, # of connection points: 2
#     Edge 13, Type (0, 0), BuildingBlock: AJUNOK_clean_linker_0, # of connection points: 2
#     Edge 14, Type (0, 0), BuildingBlock: AJUNOK_clean_linker_0, # of connection points: 2
#     Edge 15, Type (0, 0), BuildingBlock: AJUNOK_clean_linker_0, # of connection points: 2
#     Edge 16, Type (0, 0), BuildingBlock: AJUNOK_clean_linker_0, # of connection points: 2
#     Edge 17, Type (0, 0), BuildingBlock: AJUNOK_clean_linker_0, # of connection points: 2
# Relax obj value: 0.021
# Max RMSD: 0.060
# Mean RMSD: 0.060
data_MOF--net-unj--node1-TATPOV_clean_sbu_0--edge1-AJUNOK_clean_linker_0
_symmetry_space_group_name_H-M    P1
_symmetry_Int_Tables_number       1
_symmetry_cell_setting            triclinic
loop_
_symmetry_equiv_pos_as_xyz
'x, y, z'
_cell_length_a     25.664751
_cell_length_b     26.496446
_cell_length_c     24.205402
_cell_angle_alpha  90.018465
_cell_angle_beta   89.898444
_cell_angle_gamma 118.67267
loop_
_atom_site_label
_atom_site_type_symbol
_atom_site_fract_x
_atom_site_fract_y
_atom_site_fract_z
_atom_type_partial_charge
Zn0 Zn 0.36448 0.13248 0.69402 0.0
Zn1 Zn 0.44445 0.17823 0.61365 0.0
O2 O 0.41788 0.23958 0.62857 0.0
O3 O 0.35086 0.20071 0.6945 0.0
O4 O 0.50088 0.21512 0.55016 0.0
O5 O 0.3139 0.06531 0.64598 0.0
O6 O 0.38194 0.10045 0.5806 0.0
C7 C 0.38033 0.24171 0.6616 0.0
C8 C 0.48114 0.15269 0.72644 0.0
O9 O 0.49488 0.17206 0.67728 0.0
O10 O 0.42794 0.13224 0.74293 0.0
C11 C 0.54822 0.26169 0.55937 0.0
O12 O 0.56003 0.28061 0.61044 0.0
C13 C 0.33203 0.06137 0.59839 0.0
Zn14 Zn 0.24292 0.38723 0.84166 0.0
Zn15 Zn 0.2325 0.45243 0.77173 0.0
O16 O 0.14523 0.39213 0.78789 0.0
O17 O 0.15767 0.32741 0.83385 0.0
O18 O 0.22465 0.5026 0.71293 0.0
O19 O 0.30626 0.38051 0.80018 0.0
O20 O 0.28136 0.41898 0.73164 0.0
C21 C 0.1233 0.34323 0.81157 0.0
C22 C 0.27575 0.49504 0.88936 0.0
O23 O 0.27109 0.50739 0.83921 0.0
O24 O 0.26365 0.44434 0.90209 0.0
C25 C 0.18503 0.51797 0.7183 0.0
O26 O 0.1519 0.50239 0.76305 0.0
C27 C 0.31011 0.39434 0.74983 0.0
Zn28 Zn 0.8395 0.19315 1.01615 0.0
Zn29 Zn 0.7648 0.19471 0.94291 0.0
O30 O 0.72555 0.10881 0.96705 0.0
O31 O 0.78899 0.10921 1.0283 0.0
O32 O 0.70895 0.19478 0.8843 0.0
O33 O 0.90416 0.21879 0.96042 0.0
O34 O 0.84426 0.22566 0.89945 0.0
C35 C 0.74137 0.08215 1.00128 0.0
C36 C 0.79153 0.26619 0.0496 0.0
O37 O 0.76312 0.24871 1.00424 0.0
O38 O 0.8284 0.24956 0.06345 0.0
C39 C 0.65314 0.16666 0.89157 0.0
O40 O 0.63277 0.13929 0.93855 0.0
C41 C 0.89481 0.23096 0.91225 0.0
Zn42 Zn 0.57019 0.79375 0.19588 0.0
Zn43 Zn 0.4849 0.74446 0.12118 0.0
O44 O 0.51378 0.68465 0.13556 0.0
O45 O 0.58776 0.72798 0.1942 0.0
O46 O 0.42589 0.70494 0.06025 0.0
O47 O 0.61614 0.86017 0.14559 0.0
O48 O 0.54462 0.82117 0.08393 0.0
C49 C 0.55539 0.68506 0.16448 0.0
C50 C 0.45465 0.77272 0.23548 0.0
O51 O 0.43765 0.75234 0.18706 0.0
O52 O 0.50874 0.79291 0.24873 0.0
C53 C 0.38318 0.65505 0.06972 0.0
O54 O 0.3767 0.63425 0.12004 0.0
C55 C 0.595 0.86163 0.09886 0.0
Zn56 Zn 0.69283 0.53481 0.33934 0.0
Zn57 Zn 0.70396 0.47197 0.26638 0.0
O58 O 0.79113 0.53094 0.28442 0.0
O59 O 0.77841 0.59467 0.33211 0.0
O60 O 0.71199 0.42329 0.20613 0.0
O61 O 0.62939 0.54218 0.29834 0.0
O62 O 0.65648 0.50757 0.22797 0.0
C63 C 0.81284 0.5793 0.30908 0.0
C64 C 0.65883 0.42471 0.38228 0.0
O65 O 0.66341 0.41438 0.33147 0.0
O66 O 0.67193 0.47504 0.39744 0.0
C67 C 0.75036 0.4064 0.21187 0.0
O68 O 0.78227 0.42029 0.25727 0.0
C69 C 0.62667 0.53059 0.24746 0.0
Zn70 Zn 0.08875 0.7239 0.51969 0.0
Zn71 Zn 0.16734 0.72614 0.4477 0.0
O72 O 0.20292 0.81147 0.47241 0.0
O73 O 0.13742 0.80805 0.5331 0.0
O74 O 0.22669 0.729 0.39105 0.0
O75 O 0.02621 0.69775 0.46171 0.0
O76 O 0.08935 0.6941 0.40208 0.0
C77 C 0.18532 0.8367 0.50668 0.0
C78 C 0.13961 0.65371 0.55425 0.0
O79 O 0.16918 0.67268 0.50955 0.0
O80 O 0.10066 0.66803 0.56715 0.0
C81 C 0.28185 0.75688 0.40177 0.0
O82 O 0.29836 0.78145 0.45041 0.0
C83 C 0.0379 0.68728 0.41368 0.0
C84 C 0.32036 -0.01919 0.53641 0.0
C85 C 0.29496 0.00983 0.56512 0.0
C86 C 0.28442 0.92579 0.51407 0.0
C87 C 0.22217 0.89854 0.5197 0.0
H88 H 0.36819 -0.00097 0.53423 0.0
H89 H 0.30568 0.90323 0.49529 0.0
S90 S 0.13438 0.96238 0.58115 0.0
N91 N 0.20426 0.01134 0.59091 0.0
N92 N 0.1368 0.90885 0.54849 0.0
C93 C 0.19646 0.92961 0.54407 0.0
C94 C 0.23287 -0.01494 0.56695 0.0
C95 C 0.4094 0.33407 0.70791 0.0
C96 C 0.37497 0.2941 0.66741 0.0
C97 C 0.39177 0.37228 0.73026 0.0
C98 C 0.3395 0.37196 0.71236 0.0
H99 H 0.44684 0.332 0.72622 0.0
H100 H 0.41627 0.39866 0.76509 0.0
S101 S 0.23905 0.28091 0.60144 0.0
N102 N 0.29026 0.26024 0.60601 0.0
N103 N 0.25767 0.33321 0.64702 0.0
C104 C 0.30841 0.33649 0.66764 0.0
C105 C 0.32592 0.29694 0.6455 0.0
C106 C -0.01851 0.2272 0.87253 0.0
C107 C 0.94436 0.25247 0.87254 0.0
C108 C 0.03722 0.25438 0.84729 0.0
C109 C 0.05857 0.30858 0.82196 0.0
H110 H -0.03119 0.18765 0.89512 0.0
H111 H 0.06539 0.23453 0.85129 0.0
S112 S -0.0264 0.38793 0.80279 0.0
N113 N 0.92848 0.33024 0.83866 0.0
N114 N 0.03421 0.38245 0.79155 0.0
C115 C 0.01932 0.33154 0.81684 0.0
C116 C 0.96192 0.30323 0.84222 0.0
C117 C 0.60464 0.9421 1.03787 0.0
C118 C 0.63016 0.91114 0.0626 0.0
C119 C 0.64067 -0.00373 1.01375 0.0
C120 C 0.70298 0.02053 1.01375 0.0
H121 H 0.55718 0.92632 0.04055 0.0
H122 H 0.61996 0.02082 0.99858 0.0
S123 S 0.78949 0.95029 0.06269 0.0
N124 N 0.71992 0.90421 0.07816 0.0
N125 N 0.78742 0.00513 1.03246 0.0
C126 C 0.72811 -0.01279 1.03371 0.0
C127 C 0.6917 0.93268 0.05833 0.0
C128 C 0.6344 0.59764 0.17289 0.0
C129 C 0.59861 0.55492 0.21098 0.0
C130 C 0.61726 0.63717 0.15292 0.0
C131 C 0.56308 0.63381 0.1691 0.0
H132 H 0.67854 0.60442 0.16314 0.0
H133 H 0.64847 0.6731 0.12815 0.0
S134 S 0.44973 0.52426 0.26078 0.0
N135 N 0.50417 0.50774 0.25938 0.0
N136 N 0.47082 0.58059 0.21975 0.0
C137 C 0.52425 0.58762 0.2023 0.0
C138 C 0.54232 0.54837 0.22378 0.0
C139 C -0.0318 0.61194 0.34892 0.0
C140 C -0.00968 0.66693 0.37227 0.0
C141 C 0.91238 0.58532 0.32299 0.0
C142 C 0.87739 0.61311 0.31989 0.0
H143 H -0.00835 0.58755 0.35484 0.0
H144 H 0.89458 0.54108 0.30964 0.0
S145 S 0.92269 0.76265 0.364 0.0
N146 N -0.02177 0.75173 0.38307 0.0
N147 N 0.87413 0.70256 0.33363 0.0
C148 C 0.90246 0.67057 0.33771 0.0
C149 C 0.95876 0.69725 0.36427 0.0
C150 C 0.56202 0.28536 0.45802 0.0
C151 C 0.58345 0.29888 0.51269 0.0
C152 C 0.58894 0.32476 0.41464 0.0
C153 C 0.6378 0.37905 0.42465 0.0
H154 H 0.52245 0.24528 0.44902 0.0
H155 H 0.56924 0.31402 0.37386 0.0
S156 S 0.7178 0.43147 0.55745 0.0
N157 N 0.66194 0.36747 0.57218 0.0
N158 N 0.71154 0.44143 0.49101 0.0
C159 C 0.66231 0.39133 0.47801 0.0
C160 C 0.63542 0.35124 0.52193 0.0
C161 C 0.11466 0.5937 0.63977 0.0
C162 C 0.15156 0.61699 0.59319 0.0
C163 C 0.12595 0.56184 0.67947 0.0
C164 C 0.17467 0.55158 0.67457 0.0
H165 H 0.07665 0.60042 0.64619 0.0
H166 H 0.09603 0.54529 0.71443 0.0
S167 S 0.28483 0.60202 0.56005 0.0
N168 N 0.23877 0.62682 0.54408 0.0
N169 N 0.25999 0.56665 0.61874 0.0
C170 C 0.21168 0.57382 0.62782 0.0
C171 C 0.20012 0.60649 0.58718 0.0
C172 C 0.54971 0.13095 0.85703 0.0
C173 C 0.61118 0.16354 0.84769 0.0
C174 C 0.50854 0.12706 0.81717 0.0
C175 C 0.5268 0.15549 0.76594 0.0
H176 H 0.53285 0.10824 0.89567 0.0
H177 H 0.46179 0.10161 0.827 0.0
S178 S 0.68284 0.24617 0.72019 0.0
N179 N 0.68856 0.22455 0.78278 0.0
N180 N 0.61096 0.21719 0.7078 0.0
C181 C 0.58819 0.18779 0.75558 0.0
C182 C 0.63036 0.19188 0.79642 0.0
C183 C 0.34012 0.59554 0.92398 0.0
C184 C 0.29578 0.53873 0.93373 0.0
C185 C 0.36612 0.6342 0.96803 0.0
C186 C 0.34834 0.6174 1.02322 0.0
H187 H 0.35709 0.60926 0.88256 0.0
H188 H 0.40229 0.67664 0.95887 0.0
S189 S 0.22584 0.47632 0.06884 0.0
N190 N 0.22963 0.46982 1.00136 0.0
N191 N 0.2778 0.54221 0.08374 0.0
C192 C 0.30073 0.56202 1.03271 0.0
C193 C 0.27467 0.52276 0.98808 0.0
C194 C 0.81629 0.32515 0.13569 0.0
C195 C 0.78085 0.30415 0.08804 0.0
C196 C 0.80609 0.35822 0.17486 0.0
C197 C 0.75999 0.37207 0.16836 0.0
H198 H 0.85224 0.31563 0.14339 0.0
H199 H 0.83469 0.37276 0.21075 0.0
S200 S 0.65485 0.3291 0.05036 0.0
N201 N 0.69809 0.30058 1.03604 0.0
N202 N 0.67893 0.36308 0.10975 0.0
C203 C 0.72458 0.35225 0.12049 0.0
C204 C 0.73502 0.31832 0.08037 0.0
C205 C 0.30843 0.73452 0.30821 0.0
C206 C 0.3267 0.76238 0.35971 0.0
C207 C 0.34987 0.73885 0.26794 0.0
C208 C 0.41137 0.77115 0.27747 0.0
H209 H 0.26164 0.70877 0.29888 0.0
H210 H 0.33343 0.71598 0.22935 0.0
S211 S 0.48272 0.85463 0.40458 0.0
N212 N 0.41085 0.82491 0.41722 0.0
N213 N 0.48841 0.83319 0.34196 0.0
C214 C 0.43025 0.79994 0.32854 0.0
C215 C 0.38808 0.79551 0.36947 0.0
loop_
_geom_bond_atom_site_label_1
_geom_bond_atom_site_label_2
_geom_bond_distance
_geom_bond_site_symmetry_2
_ccdc_geom_bond_type
Zn0 O3 2.031 . S
Zn0 O5 2.049 . S
Zn0 O10 2.067 . S
Zn1 O2 1.962 . S
Zn1 O4 1.986 . S
Zn1 O6 1.996 . S
Zn1 O9 1.943 . S
O2 Zn1 1.962 . S
O2 C7 1.254 . S
O3 Zn0 2.031 . S
O3 C7 1.269 . S
O4 Zn1 1.986 . S
O4 C11 1.262 . S
O5 Zn0 2.049 . S
O5 C13 1.260 . S
O6 Zn1 1.996 . S
O6 C13 1.257 . S
C7 O2 1.254 . S
C7 O3 1.269 . S
C8 O9 1.249 . S
C8 O10 1.270 . S
O9 Zn1 1.943 . S
O9 C8 1.249 . S
O10 Zn0 2.067 . S
O10 C8 1.270 . S
C11 O4 1.262 . S
C11 O12 1.232 . S
O12 C11 1.232 . S
C13 O5 1.260 . S
C13 O6 1.257 . S
Zn14 O17 2.031 . S
Zn14 O19 2.049 . S
Zn14 O24 2.067 . S
Zn15 O16 1.962 . S
Zn15 O18 1.986 . S
Zn15 O20 1.996 . S
Zn15 O23 1.943 . S
O16 Zn15 1.962 . S
O16 C21 1.254 . S
O17 Zn14 2.031 . S
O17 C21 1.269 . S
O18 Zn15 1.986 . S
O18 C25 1.262 . S
O19 Zn14 2.049 . S
O19 C27 1.260 . S
O20 Zn15 1.996 . S
O20 C27 1.257 . S
C21 O16 1.254 . S
C21 O17 1.269 . S
C22 O23 1.249 . S
C22 O24 1.270 . S
O23 Zn15 1.943 . S
O23 C22 1.249 . S
O24 Zn14 2.067 . S
O24 C22 1.270 . S
C25 O18 1.262 . S
C25 O26 1.232 . S
O26 C25 1.232 . S
C27 O19 1.260 . S
C27 O20 1.257 . S
Zn28 O31 2.031 . S
Zn28 O33 2.049 . S
Zn28 O38 2.067 1_556 S
Zn29 O30 1.962 . S
Zn29 O32 1.986 . S
Zn29 O34 1.996 . S
Zn29 O37 1.943 . S
O30 Zn29 1.962 . S
O30 C35 1.254 . S
O31 Zn28 2.031 . S
O31 C35 1.269 . S
O32 Zn29 1.986 . S
O32 C39 1.262 . S
O33 Zn28 2.049 . S
O33 C41 1.260 . S
O34 Zn29 1.996 . S
O34 C41 1.257 . S
C35 O30 1.254 . S
C35 O31 1.269 . S
C36 O37 1.249 . S
C36 O38 1.270 1_556 S
O37 Zn29 1.943 . S
O37 C36 1.249 . S
O38 Zn28 2.067 1_554 S
O38 C36 1.270 1_554 S
C39 O32 1.262 . S
C39 O40 1.232 . S
O40 C39 1.232 . S
C41 O33 1.260 . S
C41 O34 1.257 . S
Zn42 O45 2.031 . S
Zn42 O47 2.049 . S
Zn42 O52 2.067 . S
Zn43 O44 1.962 . S
Zn43 O46 1.986 1_554 S
Zn43 O48 1.996 . S
Zn43 O51 1.943 . S
O44 Zn43 1.962 . S
O44 C49 1.254 . S
O45 Zn42 2.031 . S
O45 C49 1.269 . S
O46 Zn43 1.986 1_556 S
O46 C53 1.262 1_556 S
O47 Zn42 2.049 . S
O47 C55 1.260 . S
O48 Zn43 1.996 . S
O48 C55 1.257 . S
C49 O44 1.254 . S
C49 O45 1.269 . S
C50 O51 1.249 . S
C50 O52 1.270 . S
O51 Zn43 1.943 . S
O51 C50 1.249 . S
O52 Zn42 2.067 . S
O52 C50 1.270 . S
C53 O46 1.262 1_554 S
C53 O54 1.233 . S
O54 C53 1.233 . S
C55 O47 1.260 . S
C55 O48 1.257 . S
Zn56 O59 2.031 . S
Zn56 O61 2.049 . S
Zn56 O66 2.067 . S
Zn57 O58 1.962 . S
Zn57 O60 1.986 . S
Zn57 O62 1.996 . S
Zn57 O65 1.943 . S
O58 Zn57 1.962 . S
O58 C63 1.254 . S
O59 Zn56 2.031 . S
O59 C63 1.269 . S
O60 Zn57 1.986 . S
O60 C67 1.262 . S
O61 Zn56 2.049 . S
O61 C69 1.260 . S
O62 Zn57 1.996 . S
O62 C69 1.257 . S
C63 O58 1.254 . S
C63 O59 1.269 . S
C64 O65 1.249 . S
C64 O66 1.270 . S
O65 Zn57 1.943 . S
O65 C64 1.249 . S
O66 Zn56 2.067 . S
O66 C64 1.270 . S
C67 O60 1.262 . S
C67 O68 1.232 . S
O68 C67 1.232 . S
C69 O61 1.260 . S
C69 O62 1.257 . S
Zn70 O73 2.031 . S
Zn70 O75 2.049 . S
Zn70 O80 2.067 . S
Zn71 O72 1.962 . S
Zn71 O74 1.986 . S
Zn71 O76 1.996 . S
Zn71 O79 1.943 . S
O72 Zn71 1.962 . S
O72 C77 1.254 . S
O73 Zn70 2.031 . S
O73 C77 1.269 . S
O74 Zn71 1.986 . S
O74 C81 1.262 . S
O75 Zn70 2.049 . S
O75 C83 1.260 . S
O76 Zn71 1.996 . S
O76 C83 1.257 . S
C77 O72 1.254 . S
C77 O73 1.269 . S
C78 O79 1.249 . S
C78 O80 1.270 . S
O79 Zn71 1.943 . S
O79 C78 1.249 . S
O80 Zn70 2.067 . S
O80 C78 1.270 . S
C81 O74 1.262 . S
C81 O82 1.232 . S
O82 C81 1.232 . S
C83 O75 1.260 . S
C83 O76 1.257 . S
C84 C85 1.369 . S
C84 C86 1.419 1_545 S
C84 H88 0.930 . S
C85 C84 1.369 . S
C85 C94 1.429 . S
C86 C84 1.419 1_565 S
C86 C87 1.363 . S
C86 H89 0.929 . S
C87 C86 1.363 . S
C87 C93 1.428 . S
H88 C84 0.930 . S
H89 C86 0.929 . S
S90 N91 1.613 . S
S90 N92 1.610 1_545 S
N91 S90 1.613 . S
N91 C94 1.350 . S
N92 S90 1.610 1_565 S
N92 C93 1.351 . S
C93 C87 1.428 . S
C93 N92 1.351 . S
C93 C94 1.434 1_565 S
C94 C85 1.429 . S
C94 N91 1.350 . S
C94 C93 1.434 1_545 S
C95 C96 1.369 . S
C95 C97 1.419 . S
C95 H99 0.930 . S
C96 C95 1.369 . S
C96 C105 1.429 . S
C97 C95 1.419 . S
C97 C98 1.363 . S
C97 H100 0.929 . S
C98 C97 1.363 . S
C98 C104 1.428 . S
H99 C95 0.930 . S
H100 C97 0.929 . S
S101 N102 1.613 . S
S101 N103 1.610 . S
N102 S101 1.613 . S
N102 C105 1.350 . S
N103 S101 1.610 . S
N103 C104 1.351 . S
C104 C98 1.428 . S
C104 N103 1.351 . S
C104 C105 1.434 . S
C105 C96 1.429 . S
C105 N102 1.350 . S
C105 C104 1.434 . S
C106 C107 1.369 . S
C106 C108 1.419 1_655 S
C106 H110 0.930 . S
C107 C106 1.369 . S
C107 C116 1.429 . S
C108 C106 1.419 1_455 S
C108 C109 1.363 . S
C108 H111 0.929 . S
C109 C108 1.363 . S
C109 C115 1.428 . S
H110 C106 0.930 . S
H111 C108 0.929 . S
S112 N113 1.596 1_455 S
S112 N114 1.610 . S
N113 S112 1.596 1_655 S
N113 C116 1.351 . S
N114 S112 1.610 . S
N114 C115 1.351 . S
C115 C109 1.428 . S
C115 N114 1.351 . S
C115 C116 1.434 1_455 S
C116 C107 1.429 . S
C116 N113 1.351 . S
C116 C115 1.434 1_655 S
C117 C118 1.369 . S
C117 C119 1.419 1_565 S
C117 H121 0.930 . S
C118 C117 1.369 . S
C118 C127 1.429 1_554 S
C119 C117 1.419 1_545 S
C119 C120 1.363 1_554 S
C119 H122 0.929 . S
C120 C119 1.363 1_556 S
C120 C126 1.428 . S
H121 C117 0.930 . S
H122 C119 0.929 . S
S123 N124 1.613 . S
S123 N125 1.610 1_565 S
N124 S123 1.613 . S
N124 C127 1.350 . S
N125 S123 1.610 1_545 S
N125 C126 1.351 . S
C126 C120 1.428 . S
C126 N125 1.351 . S
C126 C127 1.434 1_545 S
C127 C118 1.429 1_556 S
C127 N124 1.350 . S
C127 C126 1.434 1_565 S
C128 C129 1.369 . S
C128 C130 1.419 . S
C128 H132 0.930 . S
C129 C128 1.369 . S
C129 C138 1.429 . S
C130 C128 1.419 . S
C130 C131 1.363 . S
C130 H133 0.929 . S
C131 C130 1.363 . S
C131 C137 1.428 . S
H132 C128 0.930 . S
H133 C130 0.929 . S
S134 N135 1.613 . S
S134 N136 1.610 . S
N135 S134 1.613 . S
N135 C138 1.350 . S
N136 S134 1.610 . S
N136 C137 1.351 . S
C137 C131 1.428 . S
C137 N136 1.351 . S
C137 C138 1.434 . S
C138 C129 1.429 . S
C138 N135 1.350 . S
C138 C137 1.434 . S
C139 C140 1.369 . S
C139 C141 1.419 1_455 S
C139 H143 0.930 . S
C140 C139 1.369 . S
C140 C149 1.429 . S
C141 C139 1.419 1_655 S
C141 C142 1.363 . S
C141 H144 0.929 . S
C142 C141 1.363 . S
C142 C148 1.428 . S
H143 C139 0.930 . S
H144 C141 0.929 . S
S145 N146 1.613 . S
S145 N147 1.610 1_455 S
N146 S145 1.613 . S
N146 C149 1.350 . S
N147 S145 1.610 1_655 S
N147 C148 1.351 . S
C148 C142 1.428 . S
C148 N147 1.351 . S
C148 C149 1.434 1_655 S
C149 C140 1.429 . S
C149 N146 1.350 . S
C149 C148 1.434 1_455 S
C150 C151 1.369 . S
C150 C152 1.419 . S
C150 H154 0.930 . S
C151 C150 1.369 . S
C151 C160 1.429 . S
C152 C150 1.419 . S
C152 C153 1.363 . S
C152 H155 0.929 . S
C153 C152 1.363 . S
C153 C159 1.428 . S
H154 C150 0.930 . S
H155 C152 0.929 . S
S156 N157 1.613 . S
S156 N158 1.610 . S
N157 S156 1.613 . S
N157 C160 1.350 . S
N158 S156 1.610 . S
N158 C159 1.351 . S
C159 C153 1.428 . S
C159 N158 1.351 . S
C159 C160 1.434 . S
C160 C151 1.429 . S
C160 N157 1.350 . S
C160 C159 1.434 . S
C161 C162 1.369 . S
C161 C163 1.419 . S
C161 H165 0.930 . S
C162 C161 1.369 . S
C162 C171 1.429 . S
C163 C161 1.419 . S
C163 C164 1.363 . S
C163 H166 0.929 . S
C164 C163 1.363 . S
C164 C170 1.428 . S
H165 C161 0.930 . S
H166 C163 0.929 . S
S167 N168 1.613 . S
S167 N169 1.610 . S
N168 S167 1.613 . S
N168 C171 1.350 . S
N169 S167 1.610 . S
N169 C170 1.351 . S
C170 C164 1.428 . S
C170 N169 1.351 . S
C170 C171 1.434 . S
C171 C162 1.429 . S
C171 N168 1.350 . S
C171 C170 1.434 . S
C172 C173 1.369 . S
C172 C174 1.419 . S
C172 H176 0.930 . S
C173 C172 1.369 . S
C173 C182 1.429 . S
C174 C172 1.419 . S
C174 C175 1.363 . S
C174 H177 0.929 . S
C175 C174 1.363 . S
C175 C181 1.428 . S
H176 C172 0.930 . S
H177 C174 0.929 . S
S178 N179 1.613 . S
S178 N180 1.610 . S
N179 S178 1.613 . S
N179 C182 1.350 . S
N180 S178 1.610 . S
N180 C181 1.351 . S
C181 C175 1.428 . S
C181 N180 1.351 . S
C181 C182 1.434 . S
C182 C173 1.429 . S
C182 N179 1.350 . S
C182 C181 1.434 . S
C183 C184 1.369 . S
C183 C185 1.419 . S
C183 H187 0.930 . S
C184 C183 1.369 . S
C184 C193 1.429 . S
C185 C183 1.419 . S
C185 C186 1.363 . S
C185 H188 0.929 . S
C186 C185 1.363 . S
C186 C192 1.428 . S
H187 C183 0.930 . S
H188 C185 0.929 . S
S189 N190 1.628 . S
S189 N191 1.608 1_556 S
N190 S189 1.628 . S
N190 C193 1.350 . S
N191 S189 1.608 1_554 S
N191 C192 1.351 1_554 S
C192 C186 1.428 . S
C192 N191 1.351 1_556 S
C192 C193 1.434 . S
C193 C184 1.429 . S
C193 N190 1.350 . S
C193 C192 1.434 . S
C194 C195 1.369 . S
C194 C196 1.419 . S
C194 H198 0.930 . S
C195 C194 1.369 . S
C195 C204 1.429 . S
C196 C194 1.419 . S
C196 C197 1.363 . S
C196 H199 0.929 . S
C197 C196 1.363 . S
C197 C203 1.428 . S
H198 C194 0.930 . S
H199 C196 0.929 . S
S200 N201 1.613 . S
S200 N202 1.610 . S
N201 S200 1.613 . S
N201 C204 1.350 . S
N202 S200 1.610 . S
N202 C203 1.351 . S
C203 C197 1.428 . S
C203 N202 1.351 . S
C203 C204 1.434 . S
C204 C195 1.429 . S
C204 N201 1.350 . S
C204 C203 1.434 . S
C205 C206 1.369 . S
C205 C207 1.419 . S
C205 H209 0.930 . S
C206 C205 1.369 . S
C206 C215 1.429 . S
C207 C205 1.419 . S
C207 C208 1.363 . S
C207 H210 0.929 . S
C208 C207 1.363 . S
C208 C214 1.428 . S
H209 C205 0.930 . S
H210 C207 0.929 . S
S211 N212 1.613 . S
S211 N213 1.610 . S
N212 S211 1.613 . S
N212 C215 1.350 . S
N213 S211 1.610 . S
N213 C214 1.351 . S
C214 C208 1.428 . S
C214 N213 1.351 . S
C214 C215 1.434 . S
C215 C206 1.429 . S
C215 N212 1.350 . S
C215 C214 1.434 . S
C85 C13 1.384 . S
C87 C77 1.447 . S
C96 C7 1.448 . S
C98 C27 1.389 . S
C107 C41 1.383 . S
C109 C21 1.448 . S
C118 C55 1.388 . S
C120 C35 1.448 . S
C129 C69 1.387 . S
C131 C49 1.448 . S
C140 C83 1.384 . S
C142 C63 1.447 . S
C151 C11 1.521 . S
C153 C64 1.496 . S
C162 C78 1.498 . S
C164 C25 1.522 . S
C173 C39 1.521 . S
C175 C8 1.494 . S
C184 C22 1.495 . S
C186 C53 1.519 1_556 S
C195 C36 1.497 1_554 S
C197 C67 1.522 . S
C206 C81 1.519 . S
C208 C50 1.493 . S
