# Generated by pormake.
# Topology unj, (4)-cn, num edge types: 1
# Building blocks:
#     Node 0, Type 0, BuildingBlock: QUQFOY_clean_sbu_3, # of connection points: 4
#     Node 1, Type 0, BuildingBlock: QUQFOY_clean_sbu_3, # of connection points: 4
#     Node 2, Type 0, BuildingBlock: QUQFOY_clean_sbu_3, # of connection points: 4
#     Node 3, Type 0, BuildingBlock: QUQFOY_clean_sbu_3, # of connection points: 4
#     Node 4, Type 0, BuildingBlock: QUQFOY_clean_sbu_3, # of connection points: 4
#     Node 5, Type 0, BuildingBlock: QUQFOY_clean_sbu_3, # of connection points: 4
#     Edge 6, Type (0, 0), BuildingBlock: OJICUG_clean_linker_0, # of connection points: 2
#     Edge 7, Type (0, 0), BuildingBlock: OJICUG_clean_linker_0, # of connection points: 2
#     Edge 8, Type (0, 0), BuildingBlock: OJICUG_clean_linker_0, # of connection points: 2
#     Edge 9, Type (0, 0), BuildingBlock: OJICUG_clean_linker_0, # of connection points: 2
#     Edge 10, Type (0, 0), BuildingBlock: OJICUG_clean_linker_0, # of connection points: 2
#     Edge 11, Type (0, 0), BuildingBlock: OJICUG_clean_linker_0, # of connection points: 2
#     Edge 12, Type (0, 0), BuildingBlock: OJICUG_clean_linker_0, # of connection points: 2
#     Edge 13, Type (0, 0), BuildingBlock: OJICUG_clean_linker_0, # of connection points: 2
#     Edge 14, Type (0, 0), BuildingBlock: OJICUG_clean_linker_0, # of connection points: 2
#     Edge 15, Type (0, 0), BuildingBlock: OJICUG_clean_linker_0, # of connection points: 2
#     Edge 16, Type (0, 0), BuildingBlock: OJICUG_clean_linker_0, # of connection points: 2
#     Edge 17, Type (0, 0), BuildingBlock: OJICUG_clean_linker_0, # of connection points: 2
# Relax obj value: 0.027
# Max RMSD: 0.078
# Mean RMSD: 0.078
data_MOF--net-unj--node1-QUQFOY_clean_sbu_3--edge1-OJICUG_clean_linker_0
_symmetry_space_group_name_H-M    P1
_symmetry_Int_Tables_number       1
_symmetry_cell_setting            triclinic
loop_
_symmetry_equiv_pos_as_xyz
'x, y, z'
_cell_length_a     25.104489
_cell_length_b     25.164434
_cell_length_c     28.024807
_cell_angle_alpha  90.052158
_cell_angle_beta   90.004108
_cell_angle_gamma 120.66498
loop_
_atom_site_label
_atom_site_type_symbol
_atom_site_fract_x
_atom_site_fract_y
_atom_site_fract_z
_atom_type_partial_charge
C0 C 0.60338 0.36188 0.49816 0.0
O1 O 0.63542 0.34623 0.52292 0.0
Cd2 Cd 0.58615 0.26364 0.5773 0.0
O3 O 0.54555 0.33834 0.50586 0.0
Cd4 Cd 0.46711 0.27146 0.5667 0.0
C5 C 0.46122 0.15359 0.50985 0.0
O6 O 0.539 0.30034 0.63113 0.0
O7 O 0.45359 0.21443 0.64256 0.0
O8 O 0.45151 0.35756 0.57226 0.0
C9 C 0.50369 0.25811 0.6596 0.0
O10 O 0.51418 0.17339 0.52896 0.0
C11 C 0.39374 0.32674 0.58005 0.0
O12 O 0.43167 0.18164 0.51645 0.0
O13 O 0.36798 0.26823 0.57894 0.0
C14 C 0.26767 0.62242 0.6719 0.0
O15 O 0.31976 0.6427 0.69225 0.0
Cd16 Cd 0.34713 0.58949 0.74693 0.0
O17 O 0.22142 0.56942 0.68241 0.0
Cd18 Cd 0.19549 0.48316 0.73985 0.0
C19 C 0.29438 0.45596 0.67815 0.0
O20 O 0.2632 0.5512 0.79942 0.0
O21 O 0.22258 0.45514 0.81784 0.0
O22 O 0.10131 0.48368 0.75655 0.0
C23 C 0.25767 0.51126 0.82924 0.0
O24 O 0.33686 0.50637 0.69629 0.0
C25 C 0.06607 0.42537 0.75685 0.0
O26 O 0.23742 0.43524 0.68747 0.0
O27 O 0.0905 0.39341 0.74611 0.0
C28 C 0.62599 0.26847 0.83437 0.0
O29 O 0.6519 0.31865 0.85779 0.0
Cd30 Cd 0.72722 0.34219 0.91711 0.0
O31 O 0.63766 0.2258 0.84369 0.0
Cd32 Cd 0.70128 0.20836 0.90328 0.0
C33 C 0.82917 0.31859 0.85029 0.0
O34 O 0.68043 0.25537 0.96912 0.0
O35 O 0.76143 0.24763 0.97873 0.0
O36 O 0.61162 0.10677 0.91479 0.0
C37 C 0.72105 0.2575 -0.00309 0.0
O38 O 0.81629 0.35528 0.87175 0.0
C39 C 0.64112 0.0783 0.91716 0.0
O40 O 0.79342 0.26036 0.85355 0.0
O41 O 0.69915 0.1099 0.90984 0.0
C42 C 0.38459 0.63328 -0.00183 0.0
O43 O 0.35266 0.64908 0.02291 0.0
Cd44 Cd 0.40209 0.73175 0.07733 0.0
O45 O 0.44242 0.65674 0.00586 0.0
Cd46 Cd 0.52104 0.72373 0.0667 0.0
C47 C 0.52695 0.84153 0.00987 0.0
O48 O 0.44915 0.6949 0.13107 0.0
O49 O 0.53461 0.78076 0.14269 0.0
O50 O 0.53658 0.6376 0.07209 0.0
C51 C 0.48449 0.73708 0.15963 0.0
O52 O 0.47403 0.82181 0.02897 0.0
C53 C 0.59434 0.66838 0.08001 0.0
O54 O 0.55649 0.81347 0.01648 0.0
O55 O 0.62012 0.7269 0.07902 0.0
C56 C 0.72002 0.37245 0.17184 0.0
O57 O 0.66788 0.35222 0.19207 0.0
Cd58 Cd 0.64047 0.40552 0.24673 0.0
O59 O 0.76626 0.42544 0.18247 0.0
Cd60 Cd 0.79218 0.51178 0.23994 0.0
C61 C 0.6934 0.53903 0.17813 0.0
O62 O 0.72435 0.44376 0.29933 0.0
O63 O 0.7652 0.53981 0.31804 0.0
O64 O 0.88632 0.51116 0.25661 0.0
C65 C 0.72995 0.48368 0.32926 0.0
O66 O 0.65087 0.48864 0.19616 0.0
C67 C 0.92161 0.56946 0.25699 0.0
O68 O 0.75033 0.55973 0.18757 0.0
O69 O 0.89722 0.60147 0.24633 0.0
C70 C 0.36203 0.72633 0.33437 0.0
O71 O 0.33612 0.67612 0.35765 0.0
Cd72 Cd 0.26077 0.65251 0.41694 0.0
O73 O 0.35033 0.76897 0.3438 0.0
Cd74 Cd 0.28668 0.78632 0.4034 0.0
C75 C 0.15874 0.6761 0.35026 0.0
O76 O 0.30748 0.73927 0.46917 0.0
O77 O 0.22653 0.7471 0.47878 0.0
O78 O 0.37634 0.8879 0.41508 0.0
C79 C 0.26686 0.73715 0.49695 0.0
O80 O 0.17163 0.63939 0.37162 0.0
C81 C 0.34686 0.9164 0.41739 0.0
O82 O 0.19451 0.73432 0.35361 0.0
O83 O 0.28884 0.8848 0.41001 0.0
C84 C 0.46836 0.06893 0.46937 0.0
C85 C 0.43337 0.09638 0.48097 0.0
H86 H 0.46873 0.99117 0.43921 0.0
C87 C 0.37108 0.06722 0.46642 0.0
H88 H 0.51667 0.09053 0.47945 0.0
C89 C 0.34347 0.01 0.44321 0.0
C90 C 0.37778 0.98114 0.43395 0.0
H91 H 0.34296 0.08741 0.47451 0.0
H92 H 0.29472 0.98731 0.43432 0.0
C93 C 0.44092 0.01205 0.44602 0.0
C94 C 0.30221 0.32559 0.61751 0.0
C95 C 0.36112 0.35842 0.59625 0.0
H96 H 0.23417 0.33108 0.66036 0.0
C97 C 0.39321 0.42326 0.59682 0.0
H98 H 0.27642 0.27555 0.61754 0.0
C99 C 0.36963 0.45462 0.62163 0.0
C100 C 0.31308 0.42195 0.64601 0.0
H101 H 0.43835 0.44998 0.5803 0.0
H102 H 0.39694 0.5046 0.62318 0.0
C103 C 0.27814 0.35727 0.6421 0.0
C104 C 0.92198 0.40844 0.81345 0.0
C105 C 0.88679 0.34453 0.8219 0.0
H106 H 0.00549 0.48382 0.78539 0.0
C107 C 0.90828 0.30648 0.80428 0.0
H108 H 0.90645 0.43903 0.82595 0.0
C109 C 0.96537 0.33233 0.78084 0.0
C110 C 0.00176 0.39661 0.77443 0.0
H111 H 0.88203 0.257 0.80993 0.0
H112 H 0.98194 0.30221 0.76931 0.0
C113 C 0.9787 0.43415 0.78989 0.0
C114 C 0.51973 0.92598 0.96923 0.0
C115 C 0.55476 0.89861 0.98092 0.0
H116 H 0.51928 0.00357 0.93894 0.0
C117 C 0.61703 0.92772 0.9664 0.0
H118 H 0.47143 0.90441 0.9793 0.0
C119 C 0.64458 0.98482 0.94311 0.0
C120 C 0.61024 0.01362 0.93376 0.0
H121 H 0.64517 0.90759 0.97455 0.0
H122 H 0.69333 0.0075 0.93424 0.0
C123 C 0.54711 0.98274 0.94581 0.0
C124 C 0.61829 0.54044 0.12148 0.0
C125 C 0.6748 0.57307 0.14599 0.0
H126 H 0.54968 0.54513 0.08004 0.0
C127 C 0.70977 0.63776 0.14219 0.0
H128 H 0.59095 0.49045 0.12294 0.0
C129 C 0.68578 0.66946 0.11759 0.0
C130 C 0.62691 0.63666 0.0962 0.0
H131 H 0.75371 0.66392 0.16055 0.0
H132 H 0.71159 0.7195 0.11772 0.0
C133 C 0.59479 0.57183 0.09666 0.0
C134 C 0.06577 0.58626 0.31339 0.0
C135 C 0.10106 0.65018 0.32191 0.0
H136 H 0.98213 0.51091 0.28534 0.0
C137 C 0.07958 0.68826 0.30439 0.0
H138 H 0.08129 0.55564 0.32582 0.0
C139 C 0.02243 0.66244 0.281 0.0
C140 C 0.98596 0.59817 0.27454 0.0
H141 H 0.1059 0.73775 0.31008 0.0
H142 H 0.00588 0.6926 0.26956 0.0
C143 C 0.00899 0.56059 0.28989 0.0
C144 C 0.69577 0.44896 0.45902 0.0
C145 C 0.63273 0.40307 0.45727 0.0
H146 H 0.77605 0.51287 0.41896 0.0
C147 C 0.60012 0.39146 0.41423 0.0
H148 H 0.72167 0.4587 0.492 0.0
C149 C 0.63148 0.42119 0.37258 0.0
C150 C 0.69518 0.46434 0.37389 0.0
H151 H 0.5516 0.35608 0.41202 0.0
H152 H 0.60664 0.40835 0.33897 0.0
C153 C 0.7267 0.48012 0.41754 0.0
C154 C 0.31822 0.73706 0.57155 0.0
C155 C 0.26313 0.71545 0.54592 0.0
H156 H 0.36247 0.72591 0.63216 0.0
C157 C 0.20732 0.66794 0.56491 0.0
H158 H 0.36169 0.77392 0.55747 0.0
C159 C 0.20769 0.63906 0.60753 0.0
C160 C 0.26377 0.65832 0.63177 0.0
H161 H 0.16436 0.65052 0.54532 0.0
H162 H 0.16475 0.60012 0.62028 0.0
C163 C 0.31848 0.70937 0.61432 0.0
C164 C 0.54953 0.20568 0.77011 0.0
C165 C 0.58668 0.26266 0.79325 0.0
H166 H 0.49205 0.1591 0.70937 0.0
C167 C 0.58983 0.31601 0.77463 0.0
H168 H 0.54599 0.16378 0.78386 0.0
C169 C 0.56007 0.31336 0.73213 0.0
C170 C 0.52537 0.25718 0.70792 0.0
H171 H 0.61782 0.36062 0.79157 0.0
H172 H 0.56577 0.35575 0.71735 0.0
C173 C 0.51842 0.20286 0.72783 0.0
C174 C 0.35624 0.57355 0.8726 0.0
C175 C 0.29249 0.5306 0.87388 0.0
H176 H 0.43625 0.63858 0.91207 0.0
C177 C 0.261 0.51504 0.91752 0.0
H178 H 0.38104 0.58621 0.839 0.0
C179 C 0.29203 0.54626 0.959 0.0
C180 C 0.35513 0.59198 0.95728 0.0
H181 H 0.21161 0.48245 0.9189 0.0
H182 H 0.26616 0.53671 -0.00804 0.0
C183 C 0.38768 0.60334 0.91426 0.0
C184 C 0.66965 0.25757 0.07149 0.0
C185 C 0.72476 0.27923 0.04591 0.0
H186 H 0.62533 0.26875 0.13205 0.0
C187 C 0.78053 0.32684 0.06495 0.0
H188 H 0.62621 0.22063 0.05737 0.0
C189 C 0.78009 0.35578 0.10757 0.0
C190 C 0.72399 0.33648 0.13175 0.0
H191 H 0.82349 0.34429 0.0454 0.0
H192 H 0.82299 0.39479 0.12036 0.0
C193 C 0.66933 0.28533 0.11426 0.0
C194 C 0.43853 0.78927 0.27028 0.0
C195 C 0.40141 0.73225 0.29328 0.0
H196 H 0.49601 0.83598 0.20966 0.0
C197 C 0.39836 0.67896 0.27454 0.0
H198 H 0.442 0.83113 0.28413 0.0
C199 C 0.42816 0.68171 0.23205 0.0
C200 C 0.46281 0.73792 0.20797 0.0
H201 H 0.3704 0.63432 0.29136 0.0
H202 H 0.42253 0.63936 0.21716 0.0
C203 C 0.46968 0.79219 0.22801 0.0
loop_
_geom_bond_atom_site_label_1
_geom_bond_atom_site_label_2
_geom_bond_distance
_geom_bond_site_symmetry_2
_ccdc_geom_bond_type
C0 O1 1.306 . S
C0 O3 1.160 . S
O1 C0 1.306 . S
O1 Cd2 2.228 . S
Cd2 O1 2.228 . S
Cd2 O6 2.273 . S
Cd2 O10 2.277 . S
O3 C0 1.160 . S
O3 Cd4 2.203 . S
Cd4 O3 2.203 . S
Cd4 O6 2.411 . S
Cd4 O7 2.333 . S
Cd4 O8 2.352 . S
Cd4 O12 2.277 . S
Cd4 O13 2.356 . S
C5 O10 1.209 . S
C5 O12 1.226 . S
O6 Cd2 2.273 . S
O6 Cd4 2.411 . S
O6 C9 1.320 . S
O7 Cd4 2.333 . S
O7 C9 1.214 . S
O8 Cd4 2.352 . S
O8 C11 1.258 . S
C9 O6 1.320 . S
C9 O7 1.214 . S
O10 Cd2 2.277 . S
O10 C5 1.209 . S
C11 O8 1.258 . S
C11 O13 1.282 . S
O12 Cd4 2.277 . S
O12 C5 1.226 . S
O13 Cd4 2.356 . S
O13 C11 1.282 . S
C14 O15 1.306 . S
C14 O17 1.160 . S
O15 C14 1.306 . S
O15 Cd16 2.228 . S
Cd16 O15 2.228 . S
Cd16 O20 2.273 . S
Cd16 O24 2.277 . S
O17 C14 1.160 . S
O17 Cd18 2.203 . S
Cd18 O17 2.203 . S
Cd18 O20 2.411 . S
Cd18 O21 2.333 . S
Cd18 O22 2.352 . S
Cd18 O26 2.277 . S
Cd18 O27 2.356 . S
C19 O24 1.209 . S
C19 O26 1.226 . S
O20 Cd16 2.273 . S
O20 Cd18 2.411 . S
O20 C23 1.320 . S
O21 Cd18 2.333 . S
O21 C23 1.214 . S
O22 Cd18 2.352 . S
O22 C25 1.258 . S
C23 O20 1.320 . S
C23 O21 1.214 . S
O24 Cd16 2.277 . S
O24 C19 1.209 . S
C25 O22 1.258 . S
C25 O27 1.282 . S
O26 Cd18 2.277 . S
O26 C19 1.226 . S
O27 Cd18 2.356 . S
O27 C25 1.282 . S
C28 O29 1.306 . S
C28 O31 1.160 . S
O29 C28 1.306 . S
O29 Cd30 2.228 . S
Cd30 O29 2.228 . S
Cd30 O34 2.273 . S
Cd30 O38 2.277 . S
O31 C28 1.160 . S
O31 Cd32 2.203 . S
Cd32 O31 2.203 . S
Cd32 O34 2.411 . S
Cd32 O35 2.310 1_556 S
Cd32 O36 2.352 . S
Cd32 O40 2.277 . S
Cd32 O41 2.356 . S
C33 O38 1.209 . S
C33 O40 1.226 . S
O34 Cd30 2.273 . S
O34 Cd32 2.411 . S
O34 C37 1.338 . S
O35 Cd32 2.310 1_554 S
O35 C37 1.213 1_554 S
O36 Cd32 2.352 . S
O36 C39 1.258 . S
C37 O34 1.338 . S
C37 O35 1.213 1_556 S
O38 Cd30 2.277 . S
O38 C33 1.209 . S
C39 O36 1.258 . S
C39 O41 1.282 . S
O40 Cd32 2.277 . S
O40 C33 1.226 . S
O41 Cd32 2.356 . S
O41 C39 1.282 . S
C42 O43 1.303 1_556 S
C42 O45 1.157 1_556 S
O43 C42 1.303 1_554 S
O43 Cd44 2.228 . S
Cd44 O43 2.228 . S
Cd44 O48 2.273 . S
Cd44 O52 2.277 . S
O45 C42 1.157 1_554 S
O45 Cd46 2.203 . S
Cd46 O45 2.203 . S
Cd46 O48 2.411 . S
Cd46 O49 2.333 . S
Cd46 O50 2.352 . S
Cd46 O54 2.277 . S
Cd46 O55 2.356 . S
C47 O52 1.209 . S
C47 O54 1.226 . S
O48 Cd44 2.273 . S
O48 Cd46 2.411 . S
O48 C51 1.320 . S
O49 Cd46 2.333 . S
O49 C51 1.214 . S
O50 Cd46 2.352 . S
O50 C53 1.258 . S
C51 O48 1.320 . S
C51 O49 1.214 . S
O52 Cd44 2.277 . S
O52 C47 1.209 . S
C53 O50 1.258 . S
C53 O55 1.282 . S
O54 Cd46 2.277 . S
O54 C47 1.226 . S
O55 Cd46 2.356 . S
O55 C53 1.282 . S
C56 O57 1.306 . S
C56 O59 1.160 . S
O57 C56 1.306 . S
O57 Cd58 2.228 . S
Cd58 O57 2.228 . S
Cd58 O62 2.273 . S
Cd58 O66 2.277 . S
O59 C56 1.160 . S
O59 Cd60 2.203 . S
Cd60 O59 2.203 . S
Cd60 O62 2.411 . S
Cd60 O63 2.333 . S
Cd60 O64 2.352 . S
Cd60 O68 2.277 . S
Cd60 O69 2.356 . S
C61 O66 1.209 . S
C61 O68 1.226 . S
O62 Cd58 2.273 . S
O62 Cd60 2.411 . S
O62 C65 1.320 . S
O63 Cd60 2.333 . S
O63 C65 1.214 . S
O64 Cd60 2.352 . S
O64 C67 1.258 . S
C65 O62 1.320 . S
C65 O63 1.214 . S
O66 Cd58 2.277 . S
O66 C61 1.209 . S
C67 O64 1.258 . S
C67 O69 1.282 . S
O68 Cd60 2.277 . S
O68 C61 1.226 . S
O69 Cd60 2.356 . S
O69 C67 1.282 . S
C70 O71 1.306 . S
C70 O73 1.160 . S
O71 C70 1.306 . S
O71 Cd72 2.228 . S
Cd72 O71 2.228 . S
Cd72 O76 2.273 . S
Cd72 O80 2.277 . S
O73 C70 1.160 . S
O73 Cd74 2.203 . S
Cd74 O73 2.203 . S
Cd74 O76 2.411 . S
Cd74 O77 2.333 . S
Cd74 O78 2.352 . S
Cd74 O82 2.277 . S
Cd74 O83 2.356 . S
C75 O80 1.209 . S
C75 O82 1.226 . S
O76 Cd72 2.273 . S
O76 Cd74 2.411 . S
O76 C79 1.320 . S
O77 Cd74 2.333 . S
O77 C79 1.214 . S
O78 Cd74 2.352 . S
O78 C81 1.258 . S
C79 O76 1.320 . S
C79 O77 1.214 . S
O80 Cd72 2.277 . S
O80 C75 1.209 . S
C81 O78 1.258 . S
C81 O83 1.282 . S
O82 Cd74 2.277 . S
O82 C75 1.226 . S
O83 Cd74 2.356 . S
O83 C81 1.282 . S
C84 C85 1.387 . S
C84 H88 0.950 . S
C84 C93 1.390 1_545 S
C85 C84 1.387 . S
C85 C87 1.387 . S
H86 C93 0.950 . S
C87 C85 1.387 . S
C87 C89 1.390 1_545 S
C87 H91 0.950 . S
H88 C84 0.950 . S
C89 C87 1.390 1_565 S
C89 C90 1.387 . S
C89 H92 0.950 . S
C90 C89 1.387 . S
C90 C93 1.387 . S
H91 C87 0.950 . S
H92 C89 0.950 . S
C93 C84 1.390 1_565 S
C93 H86 0.950 . S
C93 C90 1.387 . S
C94 C95 1.387 . S
C94 H98 0.950 . S
C94 C103 1.390 . S
C95 C94 1.387 . S
C95 C97 1.387 . S
H96 C103 0.950 . S
C97 C95 1.387 . S
C97 C99 1.390 . S
C97 H101 0.950 . S
H98 C94 0.950 . S
C99 C97 1.390 . S
C99 C100 1.387 . S
C99 H102 0.950 . S
C100 C99 1.387 . S
C100 C103 1.387 . S
H101 C97 0.950 . S
H102 C99 0.950 . S
C103 C94 1.390 . S
C103 H96 0.950 . S
C103 C100 1.387 . S
C104 C105 1.387 . S
C104 H108 0.950 . S
C104 C113 1.390 1_655 S
C105 C104 1.387 . S
C105 C107 1.387 . S
H106 C113 0.950 . S
C107 C105 1.387 . S
C107 C109 1.390 . S
C107 H111 0.950 . S
H108 C104 0.950 . S
C109 C107 1.390 . S
C109 C110 1.387 1_655 S
C109 H112 0.949 1_655 S
C110 C109 1.387 1_455 S
C110 C113 1.387 . S
H111 C107 0.950 . S
H112 C109 0.949 1_455 S
C113 C104 1.390 1_455 S
C113 H106 0.950 . S
C113 C110 1.387 . S
C114 C115 1.387 . S
C114 H118 0.950 . S
C114 C123 1.390 1_564 S
C115 C114 1.387 . S
C115 C117 1.387 . S
H116 C123 0.950 . S
C117 C115 1.387 . S
C117 C119 1.390 1_564 S
C117 H121 0.950 . S
H118 C114 0.950 . S
C119 C117 1.390 1_546 S
C119 C120 1.387 . S
C119 H122 0.950 . S
C120 C119 1.387 . S
C120 C123 1.387 . S
H121 C117 0.950 . S
H122 C119 0.950 . S
C123 C114 1.390 1_546 S
C123 H116 0.950 . S
C123 C120 1.387 . S
C124 C125 1.387 . S
C124 H128 0.950 . S
C124 C133 1.390 . S
C125 C124 1.387 . S
C125 C127 1.387 . S
H126 C133 0.950 . S
C127 C125 1.387 . S
C127 C129 1.390 . S
C127 H131 0.950 . S
H128 C124 0.950 . S
C129 C127 1.390 . S
C129 C130 1.387 . S
C129 H132 0.950 . S
C130 C129 1.387 . S
C130 C133 1.387 . S
H131 C127 0.950 . S
H132 C129 0.950 . S
C133 C124 1.390 . S
C133 H126 0.950 . S
C133 C130 1.387 . S
C134 C135 1.387 . S
C134 H138 0.950 . S
C134 C143 1.390 1_455 S
C135 C134 1.387 . S
C135 C137 1.387 . S
H136 C143 0.950 . S
C137 C135 1.387 . S
C137 C139 1.390 . S
C137 H141 0.950 . S
H138 C134 0.950 . S
C139 C137 1.390 . S
C139 C140 1.387 1_455 S
C139 H142 0.948 1_455 S
C140 C139 1.387 1_655 S
C140 C143 1.387 . S
H141 C137 0.950 . S
H142 C139 0.948 1_655 S
C143 C134 1.390 1_655 S
C143 H136 0.950 . S
C143 C140 1.387 . S
C144 C145 1.387 . S
C144 H148 0.950 . S
C144 C153 1.390 . S
C145 C144 1.387 . S
C145 C147 1.387 . S
H146 C153 0.950 . S
C147 C145 1.387 . S
C147 C149 1.390 . S
C147 H151 0.950 . S
H148 C144 0.950 . S
C149 C147 1.390 . S
C149 C150 1.387 . S
C149 H152 0.950 . S
C150 C149 1.387 . S
C150 C153 1.387 . S
H151 C147 0.950 . S
H152 C149 0.950 . S
C153 C144 1.390 . S
C153 H146 0.950 . S
C153 C150 1.387 . S
C154 C155 1.387 . S
C154 H158 0.950 . S
C154 C163 1.390 . S
C155 C154 1.387 . S
C155 C157 1.387 . S
H156 C163 0.950 . S
C157 C155 1.387 . S
C157 C159 1.390 . S
C157 H161 0.950 . S
H158 C154 0.950 . S
C159 C157 1.390 . S
C159 C160 1.387 . S
C159 H162 0.950 . S
C160 C159 1.387 . S
C160 C163 1.387 . S
H161 C157 0.950 . S
H162 C159 0.950 . S
C163 C154 1.390 . S
C163 H156 0.950 . S
C163 C160 1.387 . S
C164 C165 1.387 . S
C164 H168 0.950 . S
C164 C173 1.390 . S
C165 C164 1.387 . S
C165 C167 1.387 . S
H166 C173 0.950 . S
C167 C165 1.387 . S
C167 C169 1.390 . S
C167 H171 0.950 . S
H168 C164 0.950 . S
C169 C167 1.390 . S
C169 C170 1.387 . S
C169 H172 0.950 . S
C170 C169 1.387 . S
C170 C173 1.387 . S
H171 C167 0.950 . S
H172 C169 0.950 . S
C173 C164 1.390 . S
C173 H166 0.950 . S
C173 C170 1.387 . S
C174 C175 1.387 . S
C174 H178 0.950 . S
C174 C183 1.390 . S
C175 C174 1.387 . S
C175 C177 1.387 . S
H176 C183 0.950 . S
C177 C175 1.387 . S
C177 C179 1.390 . S
C177 H181 0.950 . S
H178 C174 0.950 . S
C179 C177 1.390 . S
C179 C180 1.387 . S
C179 H182 0.950 . S
C180 C179 1.387 . S
C180 C183 1.387 . S
H181 C177 0.950 . S
H182 C179 0.950 . S
C183 C174 1.390 . S
C183 H176 0.950 . S
C183 C180 1.387 . S
C184 C185 1.387 . S
C184 H188 0.950 . S
C184 C193 1.390 . S
C185 C184 1.387 . S
C185 C187 1.387 . S
H186 C193 0.950 . S
C187 C185 1.387 . S
C187 C189 1.390 . S
C187 H191 0.950 . S
H188 C184 0.950 . S
C189 C187 1.390 . S
C189 C190 1.387 . S
C189 H192 0.950 . S
C190 C189 1.387 . S
C190 C193 1.387 . S
H191 C187 0.950 . S
H192 C189 0.950 . S
C193 C184 1.390 . S
C193 H186 0.950 . S
C193 C190 1.387 . S
C194 C195 1.387 . S
C194 H198 0.950 . S
C194 C203 1.390 . S
C195 C194 1.387 . S
C195 C197 1.387 . S
H196 C203 0.950 . S
C197 C195 1.387 . S
C197 C199 1.390 . S
C197 H201 0.950 . S
H198 C194 0.950 . S
C199 C197 1.390 . S
C199 C200 1.387 . S
C199 H202 0.950 . S
C200 C199 1.387 . S
C200 C203 1.387 . S
H201 C197 0.950 . S
H202 C199 0.950 . S
C203 C194 1.390 . S
C203 H196 0.950 . S
C203 C200 1.387 . S
C85 C5 1.583 . S
C90 C81 1.575 . S
C95 C11 1.575 . S
C100 C19 1.583 . S
C105 C33 1.583 . S
C110 C25 1.575 . S
C115 C47 1.583 . S
C120 C39 1.575 . S
C125 C61 1.583 . S
C130 C53 1.576 . S
C135 C75 1.583 . S
C140 C67 1.575 . S
C145 C0 1.464 . S
C150 C65 1.474 . S
C155 C79 1.474 . S
C160 C14 1.464 . S
C165 C28 1.463 . S
C170 C9 1.474 . S
C175 C23 1.474 . S
C180 C42 1.468 . S
C185 C37 1.458 1_554 S
C190 C56 1.462 . S
C195 C70 1.463 . S
C200 C51 1.474 . S
