# Generated by pormake.
# Topology kag, (6)-cn, num edge types: 1
# Building blocks:
#     Node 0, Type 0, BuildingBlock: MIFKUJ_clean_sbu_0, # of connection points: 6
#     Node 1, Type 0, BuildingBlock: MIFKUJ_clean_sbu_0, # of connection points: 6
#     Node 2, Type 0, BuildingBlock: MIFKUJ_clean_sbu_0, # of connection points: 6
#     Edge 3, Type (0, 0), BuildingBlock: EZIPEK_clean_linker_0, # of connection points: 2
#     Edge 4, Type (0, 0), BuildingBlock: EZIPEK_clean_linker_0, # of connection points: 2
#     Edge 5, Type (0, 0), BuildingBlock: EZIPEK_clean_linker_0, # of connection points: 2
#     Edge 6, Type (0, 0), BuildingBlock: EZIPEK_clean_linker_0, # of connection points: 2
#     Edge 7, Type (0, 0), BuildingBlock: EZIPEK_clean_linker_0, # of connection points: 2
#     Edge 8, Type (0, 0), BuildingBlock: EZIPEK_clean_linker_0, # of connection points: 2
#     Edge 9, Type (0, 0), BuildingBlock: EZIPEK_clean_linker_0, # of connection points: 2
#     Edge 10, Type (0, 0), BuildingBlock: EZIPEK_clean_linker_0, # of connection points: 2
#     Edge 11, Type (0, 0), BuildingBlock: EZIPEK_clean_linker_0, # of connection points: 2
# Relax obj value: 0.014
# Max RMSD: 0.075
# Mean RMSD: 0.048
data_MOF--net-kag--node1-MIFKUJ_clean_sbu_0--edge1-EZIPEK_clean_linker_0
_symmetry_space_group_name_H-M    P1
_symmetry_Int_Tables_number       1
_symmetry_cell_setting            triclinic
loop_
_symmetry_equiv_pos_as_xyz
'x, y, z'
_cell_length_a     27.804514
_cell_length_b     27.228415
_cell_length_c     10.135059
_cell_angle_alpha  93.070693
_cell_angle_beta   97.370311
_cell_angle_gamma 116.46354
loop_
_atom_site_label
_atom_site_type_symbol
_atom_site_fract_x
_atom_site_fract_y
_atom_site_fract_z
_atom_type_partial_charge
Zn0 Zn 0.06619 0.54303 0.94393 0.0
Zn1 Zn 0.92512 0.42364 0.90521 0.0
C2 C 0.15018 0.5129 0.92751 0.0
O3 O 0.16049 0.54882 0.84045 0.0
C4 C 0.82673 0.43206 0.88606 0.0
O5 O 0.81203 0.39153 0.78945 0.0
O6 O 0.12352 0.62147 0.95276 0.0
O7 O 0.02536 0.51773 0.75738 0.0
O8 O 0.94389 0.44334 0.72648 0.0
C9 C 0.11745 0.66136 0.90801 0.0
O10 O 0.06886 0.65424 0.8544 0.0
O11 O 0.10828 0.49989 0.98258 0.0
C12 C 0.86738 0.32061 -0.00132 0.0
O13 O 0.88558 0.35447 0.11106 0.0
O14 O 0.88085 0.34139 0.89195 0.0
O15 O 0.9886 0.44888 0.05287 0.0
O16 O 0.02372 0.53905 0.08944 0.0
O17 O 0.8751 0.45477 0.95087 0.0
C18 C 0.98241 0.48161 0.68247 0.0
C19 C -0.00262 0.4921 0.12656 0.0
Zn20 Zn 0.44013 0.91266 -0.0069 0.0
Zn21 Zn 0.54489 0.08574 0.01658 0.0
C22 C 0.50246 0.85057 -0.00724 0.0
O23 O 0.53516 0.88986 0.93031 0.0
C24 C 0.53726 0.18398 0.06803 0.0
O25 O 0.57689 0.19066 0.16429 0.0
O26 O 0.36 0.87957 -0.00133 0.0
O27 O 0.48257 0.98076 0.12943 0.0
O28 O 0.53535 0.06742 0.20657 0.0
C29 C 0.33203 0.83414 0.92282 0.0
O30 O 0.3563 0.81596 0.84437 0.0
O31 O 0.46223 0.8536 0.03205 0.0
C32 C 0.64896 0.16093 0.95014 0.0
O33 O 0.61988 0.17989 0.87743 0.0
O34 O 0.62538 0.11959 0.01184 0.0
O35 O 0.50357 0.01678 0.88246 0.0
O36 O 0.45121 0.93019 0.80331 0.0
O37 O 0.51551 0.14038 0.9845 0.0
C38 C 0.5061 0.01832 0.22913 0.0
C39 C 0.48116 0.97934 0.78235 0.0
Zn40 Zn 0.56343 0.48859 0.05629 0.0
Zn41 Zn 0.44978 0.52085 0.00365 0.0
C42 C 0.51648 0.37907 0.11309 0.0
O43 O 0.54839 0.40677 0.22658 0.0
C44 C 0.47485 0.63268 0.05665 0.0
O45 O 0.44384 0.61176 0.14692 0.0
O46 O 0.63843 0.49378 0.07099 0.0
O47 O 0.55597 0.52836 0.90506 0.0
O48 O 0.46672 0.4796 0.86656 0.0
C49 C 0.64615 0.47255 0.96592 0.0
O50 O 0.60737 0.45235 0.86019 0.0
O51 O 0.51358 0.40661 0.0177 0.0
C52 C 0.3356 0.47274 0.04138 0.0
O53 O 0.35042 0.45098 0.14151 0.0
O54 O 0.36981 0.50028 0.96871 0.0
O55 O 0.47109 0.51384 0.1912 0.0
O56 O 0.55327 0.51614 0.22851 0.0
O57 O 0.48648 0.60154 0.98348 0.0
C58 C 0.51086 0.50931 0.82657 0.0
C59 C 0.51252 0.51768 0.26856 0.0
C60 C 0.01124 0.45693 0.47978 0.0
C61 C 0.98124 0.48013 0.53793 0.0
C62 C 0.95844 0.50823 0.32372 0.0
C63 C 0.99247 0.4892 0.26867 0.0
N64 N 0.06114 0.45734 0.30167 0.0
N65 N 0.9299 0.53181 0.52415 0.0
C66 C 0.02142 0.46649 0.34835 0.0
C67 C 0.95551 0.50668 0.46229 0.0
N68 N 0.02957 0.42529 0.55001 0.0
N69 N 0.9284 0.52689 0.24319 0.0
H70 H 0.92562 0.52977 0.62479 0.0
H71 H 0.91558 0.55721 0.47851 0.0
H72 H 0.93209 0.5319 0.14319 0.0
H73 H 0.89777 0.53471 0.27306 0.0
H74 H 0.04654 0.40238 0.50729 0.0
H75 H 0.02339 0.41785 0.6479 0.0
H76 H 0.08755 0.4466 0.36113 0.0
H77 H 0.07184 0.46615 0.2078 0.0
C78 C 0.447 0.98522 0.40778 0.0
C79 C 0.49949 0.00643 0.37005 0.0
C80 C 0.5404 0.00989 0.60383 0.0
C81 C 0.48841 0.99176 0.64244 0.0
N82 N 0.39378 0.97049 0.58741 0.0
N83 N 0.59701 0.0426 0.43272 0.0
C84 C 0.44207 0.9813 0.54579 0.0
C85 C 0.54645 0.02013 0.46863 0.0
N86 N 0.4017 0.96919 0.31198 0.0
N87 N 0.58349 0.01444 0.69483 0.0
H88 H 0.60312 0.04511 0.33345 0.0
H89 H 0.63324 0.06088 0.50134 0.0
H90 H 0.58083 0.00754 0.79444 0.0
H91 H 0.62102 0.02127 0.67049 0.0
H92 H 0.36207 0.94627 0.32945 0.0
H93 H 0.40331 0.97599 0.21214 0.0
H94 H 0.35986 0.96836 0.52549 0.0
H95 H 0.38881 0.96839 0.68757 0.0
C96 C 0.48666 0.46256 0.59454 0.0
C97 C 0.51145 0.51228 0.6838 0.0
C98 C 0.54015 0.56632 0.49918 0.0
C99 C 0.51031 0.51691 0.41012 0.0
N100 N 0.44602 0.41972 0.3677 0.0
N101 N 0.55543 0.61229 0.72229 0.0
C102 C 0.48033 0.46559 0.456 0.0
C103 C 0.53661 0.56457 0.63678 0.0
N104 N 0.4728 0.41271 0.64159 0.0
N105 N 0.5722 0.61445 0.4524 0.0
H106 H 0.55453 0.6129 0.82472 0.0
H107 H 0.56826 0.6512 0.69031 0.0
H108 H 0.57419 0.61738 0.35083 0.0
H109 H 0.59952 0.65048 0.51468 0.0
H110 H 0.4596 0.37581 0.57934 0.0
H111 H 0.48068 0.40909 0.74284 0.0
H112 H 0.41838 0.38323 0.3982 0.0
H113 H 0.44196 0.41919 0.26384 0.0
C114 C 0.22272 0.51034 0.09733 0.0
C115 C 0.19012 0.49202 0.96771 0.0
C116 C 0.24498 0.44774 0.90269 0.0
C117 C 0.28212 0.47316 0.02426 0.0
N118 N 0.30968 0.5328 0.23372 0.0
N119 N 0.16864 0.44286 0.74632 0.0
C120 C 0.2714 0.50467 0.12198 0.0
C121 C 0.20059 0.46018 0.87044 0.0
N122 N 0.20801 0.53431 0.19621 0.0
N123 N 0.25191 0.41104 0.81949 0.0
H124 H 0.13361 0.44791 0.72265 0.0
H125 H 0.17781 0.42553 0.6652 0.0
H126 H 0.28389 0.40095 0.84154 0.0
H127 H 0.22386 0.38714 0.73493 0.0
H128 H 0.22629 0.54214 0.29648 0.0
H129 H 0.17478 0.54267 0.1811 0.0
H130 H 0.30761 0.56222 0.29953 0.0
H131 H 0.34604 0.5302 0.2563 0.0
C132 C 0.73487 0.1968 0.85159 0.0
C133 C 0.70922 0.19008 0.96664 0.0
C134 C 0.79809 0.24676 0.10788 0.0
C135 C 0.82054 0.26412 -0.0087 0.0
N136 N 0.81998 0.23419 0.76356 0.0
N137 N 0.71659 0.20932 0.20689 0.0
C138 C 0.79185 0.23253 0.86561 0.0
C139 C 0.74099 0.21402 0.09615 0.0
N140 N 0.70446 0.16998 0.72922 0.0
N141 N 0.83176 0.25953 0.22853 0.0
H142 H 0.67481 0.18662 0.2044 0.0
H143 H 0.73746 0.23173 0.30022 0.0
H144 H 0.87412 0.27888 0.23621 0.0
H145 H 0.81821 0.24436 0.31604 0.0
H146 H 0.71884 0.17787 0.63891 0.0
H147 H 0.66368 0.14045 0.7175 0.0
H148 H 0.80257 0.21027 0.67064 0.0
H149 H 0.8625 0.25482 0.77825 0.0
C150 C 0.48523 0.75797 0.88855 0.0
C151 C 0.50693 0.79881 0.00199 0.0
C152 C 0.52068 0.73363 0.14047 0.0
C153 C 0.49114 0.69067 0.03266 0.0
N154 N 0.43969 0.66029 0.80722 0.0
N155 N 0.54461 0.82678 0.2368 0.0
C156 C 0.47274 0.70244 0.90652 0.0
C157 C 0.52489 0.78712 0.12816 0.0
N158 N 0.47549 0.77203 0.76399 0.0
N159 N 0.54557 0.72338 0.25334 0.0
H160 H 0.551 0.86726 0.22943 0.0
H161 H 0.55214 0.81904 0.33484 0.0
H162 H 0.54378 0.68476 0.26425 0.0
H163 H 0.5719 0.75397 0.33071 0.0
H164 H 0.46542 0.74554 0.67578 0.0
H165 H 0.48209 0.81183 0.74739 0.0
H166 H 0.41971 0.66586 0.71956 0.0
H167 H 0.42806 0.61875 0.81619 0.0
C168 C 0.75866 0.4288 0.02872 0.0
C169 C 0.78629 0.44969 0.92046 0.0
C170 C 0.72999 0.49634 0.86515 0.0
C171 C 0.69755 0.46918 0.96106 0.0
N172 N 0.67683 0.40477 0.12514 0.0
N173 N 0.79802 0.50133 0.73116 0.0
C174 C 0.71115 0.43471 0.04203 0.0
C175 C 0.77207 0.48318 0.83773 0.0
N176 N 0.77765 0.403 0.11815 0.0
N177 N 0.72126 0.53569 0.80284 0.0
H178 H 0.83088 0.49481 0.71221 0.0
H179 H 0.78526 0.52016 0.65736 0.0
H180 H 0.69118 0.54676 0.82218 0.0
H181 H 0.74666 0.56083 0.74137 0.0
H182 H 0.76278 0.39199 0.20693 0.0
H183 H 0.81146 0.39664 0.10934 0.0
H184 H 0.68097 0.37387 0.17416 0.0
H185 H 0.64149 0.40761 0.13749 0.0
C186 C 0.19983 0.7407 0.03976 0.0
C187 C 0.16652 0.7149 0.91356 0.0
C188 C 0.23628 0.7818 0.80204 0.0
C189 C 0.27329 0.79994 0.92513 0.0
N190 N 0.29158 0.79373 0.16209 0.0
N191 N 0.15382 0.70834 0.67169 0.0
C192 C 0.25528 0.77948 0.04509 0.0
C193 C 0.18444 0.73533 0.7937 0.0
N194 N 0.17822 0.72796 0.15443 0.0
N195 N 0.25074 0.80936 0.69347 0.0
H196 H 0.1156 0.67413 0.66052 0.0
H197 H 0.16802 0.71742 0.58136 0.0
H198 H 0.28819 0.84418 0.69752 0.0
H199 H 0.22376 0.80129 0.60434 0.0
H200 H 0.1989 0.74912 0.24899 0.0
H201 H 0.13748 0.69995 0.15303 0.0
H202 H 0.28171 0.77482 0.24815 0.0
H203 H 0.33281 0.82128 0.17128 0.0
C204 C 0.49422 0.29268 0.96144 0.0
C205 C 0.49693 0.3179 0.08978 0.0
C206 C 0.50036 0.23883 0.18746 0.0
C207 C 0.51508 0.22438 0.06764 0.0
N208 N 0.52487 0.23736 0.8362 0.0
N209 N 0.48646 0.30694 0.31993 0.0
C210 C 0.51073 0.25047 0.95225 0.0
C211 C 0.49436 0.28798 0.20131 0.0
N212 N 0.47357 0.30711 0.84931 0.0
N213 N 0.49086 0.20476 0.28573 0.0
H214 H 0.47509 0.33854 0.32676 0.0
H215 H 0.4913 0.29193 0.41038 0.0
H216 H 0.49271 0.16732 0.27527 0.0
H217 H 0.47632 0.21063 0.37176 0.0
H218 H 0.46803 0.28777 0.75308 0.0
H219 H 0.45385 0.33172 0.85555 0.0
H220 H 0.52802 0.25987 0.7549 0.0
H221 H 0.53734 0.20681 0.82432 0.0
loop_
_geom_bond_atom_site_label_1
_geom_bond_atom_site_label_2
_geom_bond_distance
_geom_bond_site_symmetry_2
_ccdc_geom_bond_type
Zn0 O6 1.969 . S
Zn0 O7 1.965 1_554 S
Zn0 O11 2.024 1_554 S
Zn0 O16 1.969 . S
Zn1 O8 1.969 . S
Zn1 O14 1.969 . S
Zn1 O15 1.965 1_556 S
Zn1 O17 2.024 1_556 S
C2 O3 1.229 . S
C2 O11 1.058 1_554 S
O3 C2 1.229 . S
C4 O5 1.229 . S
C4 O17 1.058 1_556 S
O5 C4 1.229 . S
O6 Zn0 1.969 . S
O6 C9 1.267 1_554 S
O7 Zn0 1.965 1_556 S
O7 C18 1.260 1_455 S
O8 Zn1 1.969 . S
O8 C18 1.258 . S
C9 O6 1.267 1_556 S
C9 O10 1.228 . S
O10 C9 1.228 . S
O11 Zn0 2.024 1_556 S
O11 C2 1.058 1_556 S
C12 O13 1.228 . S
C12 O14 1.267 1_554 S
O13 C12 1.228 . S
O14 Zn1 1.969 . S
O14 C12 1.267 1_556 S
O15 Zn1 1.965 1_554 S
O15 C19 1.260 1_655 S
O16 Zn0 1.969 . S
O16 C19 1.258 . S
O17 Zn1 2.024 1_554 S
O17 C4 1.058 1_554 S
C18 O7 1.260 1_655 S
C18 O8 1.258 . S
C19 O15 1.260 1_455 S
C19 O16 1.258 . S
Zn20 O26 1.969 . S
Zn20 O27 1.965 1_556 S
Zn20 O31 2.024 1_556 S
Zn20 O36 1.969 . S
Zn21 O28 1.969 . S
Zn21 O34 1.969 . S
Zn21 O35 1.965 1_554 S
Zn21 O37 2.024 1_554 S
C22 O23 1.229 . S
C22 O31 1.058 1_556 S
O23 C22 1.229 . S
C24 O25 1.229 . S
C24 O37 1.058 1_554 S
O25 C24 1.229 . S
O26 Zn20 1.969 . S
O26 C29 1.267 1_556 S
O27 Zn20 1.965 1_554 S
O27 C38 1.260 1_565 S
O28 Zn21 1.969 . S
O28 C38 1.258 . S
C29 O26 1.267 1_554 S
C29 O30 1.228 . S
O30 C29 1.228 . S
O31 Zn20 2.024 1_554 S
O31 C22 1.058 1_554 S
C32 O33 1.228 . S
C32 O34 1.267 1_556 S
O33 C32 1.228 . S
O34 Zn21 1.969 . S
O34 C32 1.267 1_554 S
O35 Zn21 1.965 1_556 S
O35 C39 1.260 1_545 S
O36 Zn20 1.969 . S
O36 C39 1.258 . S
O37 Zn21 2.024 1_556 S
O37 C24 1.058 1_556 S
C38 O27 1.260 1_545 S
C38 O28 1.258 . S
C39 O35 1.260 1_565 S
C39 O36 1.258 . S
Zn40 O46 1.969 . S
Zn40 O47 1.965 1_554 S
Zn40 O51 2.024 1_554 S
Zn40 O56 1.969 . S
Zn41 O48 1.969 . S
Zn41 O54 1.969 . S
Zn41 O55 1.965 1_556 S
Zn41 O57 2.024 1_556 S
C42 O43 1.229 . S
C42 O51 1.058 1_554 S
O43 C42 1.229 . S
C44 O45 1.229 . S
C44 O57 1.058 1_556 S
O45 C44 1.229 . S
O46 Zn40 1.969 . S
O46 C49 1.267 1_554 S
O47 Zn40 1.965 1_556 S
O47 C58 1.260 . S
O48 Zn41 1.969 . S
O48 C58 1.258 . S
C49 O46 1.267 1_556 S
C49 O50 1.228 . S
O50 C49 1.228 . S
O51 Zn40 2.024 1_556 S
O51 C42 1.058 1_556 S
C52 O53 1.228 . S
C52 O54 1.267 1_554 S
O53 C52 1.228 . S
O54 Zn41 1.969 . S
O54 C52 1.267 1_556 S
O55 Zn41 1.965 1_554 S
O55 C59 1.260 . S
O56 Zn40 1.969 . S
O56 C59 1.258 . S
O57 Zn41 2.024 1_554 S
O57 C44 1.058 1_554 S
C58 O47 1.260 . S
C58 O48 1.258 . S
C59 O55 1.260 . S
C59 O56 1.258 . S
C60 C61 1.363 1_455 S
C60 C66 1.379 . S
C60 N68 1.356 . S
C61 C60 1.363 1_655 S
C61 C67 1.363 . S
C62 C63 1.363 1_655 S
C62 C67 1.379 . S
C62 N69 1.356 . S
C63 C62 1.363 1_455 S
C63 C66 1.363 . S
N64 C66 1.356 . S
N64 H76 0.984 . S
N64 H77 0.985 . S
N65 C67 1.356 . S
N65 H70 0.984 . S
N65 H71 0.985 . S
C66 C60 1.379 . S
C66 C63 1.363 . S
C66 N64 1.356 . S
C67 C61 1.363 . S
C67 C62 1.379 . S
C67 N65 1.356 . S
N68 C60 1.356 . S
N68 H74 0.984 . S
N68 H75 0.984 . S
N69 C62 1.356 . S
N69 H72 0.984 . S
N69 H73 0.985 . S
H70 N65 0.984 . S
H71 N65 0.985 . S
H72 N69 0.984 . S
H73 N69 0.985 . S
H74 N68 0.984 . S
H75 N68 0.984 . S
H76 N64 0.984 . S
H77 N64 0.985 . S
C78 C79 1.363 1_565 S
C78 C84 1.379 . S
C78 N86 1.356 . S
C79 C78 1.363 1_545 S
C79 C85 1.363 . S
C80 C81 1.363 . S
C80 C85 1.379 . S
C80 N87 1.356 . S
C81 C80 1.363 . S
C81 C84 1.363 1_545 S
N82 C84 1.356 . S
N82 H94 0.984 . S
N82 H95 0.985 . S
N83 C85 1.356 . S
N83 H88 0.984 . S
N83 H89 0.985 . S
C84 C78 1.379 . S
C84 C81 1.363 1_565 S
C84 N82 1.356 . S
C85 C79 1.363 . S
C85 C80 1.379 . S
C85 N83 1.356 . S
N86 C78 1.356 . S
N86 H92 0.984 . S
N86 H93 0.984 . S
N87 C80 1.356 . S
N87 H90 0.984 . S
N87 H91 0.985 . S
H88 N83 0.984 . S
H89 N83 0.985 . S
H90 N87 0.984 . S
H91 N87 0.985 . S
H92 N86 0.984 . S
H93 N86 0.984 . S
H94 N82 0.984 . S
H95 N82 0.985 . S
C96 C97 1.363 . S
C96 C102 1.379 . S
C96 N104 1.356 . S
C97 C96 1.363 . S
C97 C103 1.363 . S
C98 C99 1.363 . S
C98 C103 1.379 . S
C98 N105 1.356 . S
C99 C98 1.363 . S
C99 C102 1.363 . S
N100 C102 1.356 . S
N100 H112 0.984 . S
N100 H113 0.985 . S
N101 C103 1.356 . S
N101 H106 0.984 . S
N101 H107 0.985 . S
C102 C96 1.379 . S
C102 C99 1.363 . S
C102 N100 1.356 . S
C103 C97 1.363 . S
C103 C98 1.379 . S
C103 N101 1.356 . S
N104 C96 1.356 . S
N104 H110 0.984 . S
N104 H111 0.984 . S
N105 C98 1.356 . S
N105 H108 0.984 . S
N105 H109 0.985 . S
H106 N101 0.984 . S
H107 N101 0.985 . S
H108 N105 0.984 . S
H109 N105 0.985 . S
H110 N104 0.984 . S
H111 N104 0.984 . S
H112 N100 0.984 . S
H113 N100 0.985 . S
C114 C115 1.363 . S
C114 C120 1.379 . S
C114 N122 1.356 . S
C115 C114 1.363 . S
C115 C121 1.363 1_554 S
C116 C117 1.363 1_556 S
C116 C121 1.379 . S
C116 N123 1.356 . S
C117 C116 1.363 1_554 S
C117 C120 1.363 . S
N118 C120 1.356 . S
N118 H130 0.984 . S
N118 H131 0.985 . S
N119 C121 1.356 . S
N119 H124 0.984 . S
N119 H125 0.985 . S
C120 C114 1.379 . S
C120 C117 1.363 . S
C120 N118 1.356 . S
C121 C115 1.363 1_556 S
C121 C116 1.379 . S
C121 N119 1.356 . S
N122 C114 1.356 . S
N122 H128 0.984 . S
N122 H129 0.984 . S
N123 C116 1.356 . S
N123 H126 0.984 . S
N123 H127 0.985 . S
H124 N119 0.984 . S
H125 N119 0.985 . S
H126 N123 0.984 . S
H127 N123 0.985 . S
H128 N122 0.984 . S
H129 N122 0.984 . S
H130 N118 0.984 . S
H131 N118 0.985 . S
C132 C133 1.363 . S
C132 C138 1.379 . S
C132 N140 1.356 . S
C133 C132 1.363 . S
C133 C139 1.363 1_556 S
C134 C135 1.363 . S
C134 C139 1.379 . S
C134 N141 1.356 . S
C135 C134 1.363 . S
C135 C138 1.363 1_554 S
N136 C138 1.356 . S
N136 H148 0.984 . S
N136 H149 0.985 . S
N137 C139 1.356 . S
N137 H142 0.984 . S
N137 H143 0.985 . S
C138 C132 1.379 . S
C138 C135 1.363 1_556 S
C138 N136 1.356 . S
C139 C133 1.363 1_554 S
C139 C134 1.379 . S
C139 N137 1.356 . S
N140 C132 1.356 . S
N140 H146 0.984 . S
N140 H147 0.984 . S
N141 C134 1.356 . S
N141 H144 0.984 . S
N141 H145 0.985 . S
H142 N137 0.984 . S
H143 N137 0.985 . S
H144 N141 0.984 . S
H145 N141 0.985 . S
H146 N140 0.984 . S
H147 N140 0.984 . S
H148 N136 0.984 . S
H149 N136 0.985 . S
C150 C151 1.363 . S
C150 C156 1.379 . S
C150 N158 1.356 . S
C151 C150 1.363 . S
C151 C157 1.363 1_556 S
C152 C153 1.363 . S
C152 C157 1.379 . S
C152 N159 1.356 . S
C153 C152 1.363 . S
C153 C156 1.363 1_554 S
N154 C156 1.356 . S
N154 H166 0.984 . S
N154 H167 0.985 . S
N155 C157 1.356 . S
N155 H160 0.984 . S
N155 H161 0.985 . S
C156 C150 1.379 . S
C156 C153 1.363 1_556 S
C156 N154 1.356 . S
C157 C151 1.363 1_554 S
C157 C152 1.379 . S
C157 N155 1.356 . S
N158 C150 1.356 . S
N158 H164 0.984 . S
N158 H165 0.984 . S
N159 C152 1.356 . S
N159 H162 0.984 . S
N159 H163 0.985 . S
H160 N155 0.984 . S
H161 N155 0.985 . S
H162 N159 0.984 . S
H163 N159 0.985 . S
H164 N158 0.984 . S
H165 N158 0.984 . S
H166 N154 0.984 . S
H167 N154 0.985 . S
C168 C169 1.363 1_554 S
C168 C174 1.379 . S
C168 N176 1.356 . S
C169 C168 1.363 1_556 S
C169 C175 1.363 . S
C170 C171 1.363 . S
C170 C175 1.379 . S
C170 N177 1.356 . S
C171 C170 1.363 . S
C171 C174 1.363 1_556 S
N172 C174 1.356 . S
N172 H184 0.984 . S
N172 H185 0.985 . S
N173 C175 1.356 . S
N173 H178 0.984 . S
N173 H179 0.985 . S
C174 C168 1.379 . S
C174 C171 1.363 1_554 S
C174 N172 1.356 . S
C175 C169 1.363 . S
C175 C170 1.379 . S
C175 N173 1.356 . S
N176 C168 1.356 . S
N176 H182 0.984 . S
N176 H183 0.984 . S
N177 C170 1.356 . S
N177 H180 0.984 . S
N177 H181 0.985 . S
H178 N173 0.984 . S
H179 N173 0.985 . S
H180 N177 0.984 . S
H181 N177 0.985 . S
H182 N176 0.984 . S
H183 N176 0.984 . S
H184 N172 0.984 . S
H185 N172 0.985 . S
C186 C187 1.363 1_554 S
C186 C192 1.379 . S
C186 N194 1.356 . S
C187 C186 1.363 1_556 S
C187 C193 1.363 . S
C188 C189 1.363 1_556 S
C188 C193 1.379 . S
C188 N195 1.356 . S
C189 C188 1.363 1_554 S
C189 C192 1.363 . S
N190 C192 1.356 . S
N190 H202 0.984 . S
N190 H203 0.985 . S
N191 C193 1.356 . S
N191 H196 0.984 . S
N191 H197 0.985 . S
C192 C186 1.379 . S
C192 C189 1.363 . S
C192 N190 1.356 . S
C193 C187 1.363 . S
C193 C188 1.379 . S
C193 N191 1.356 . S
N194 C186 1.356 . S
N194 H200 0.984 . S
N194 H201 0.984 . S
N195 C188 1.356 . S
N195 H198 0.984 . S
N195 H199 0.985 . S
H196 N191 0.984 . S
H197 N191 0.985 . S
H198 N195 0.984 . S
H199 N195 0.985 . S
H200 N194 0.984 . S
H201 N194 0.984 . S
H202 N190 0.984 . S
H203 N190 0.985 . S
C204 C205 1.363 . S
C204 C210 1.379 . S
C204 N212 1.356 . S
C205 C204 1.363 . S
C205 C211 1.363 1_556 S
C206 C207 1.363 . S
C206 C211 1.379 . S
C206 N213 1.356 . S
C207 C206 1.363 . S
C207 C210 1.363 1_554 S
N208 C210 1.356 . S
N208 H220 0.984 . S
N208 H221 0.985 . S
N209 C211 1.356 . S
N209 H214 0.984 . S
N209 H215 0.985 . S
C210 C204 1.379 . S
C210 C207 1.363 1_556 S
C210 N208 1.356 . S
C211 C205 1.363 1_554 S
C211 C206 1.379 . S
C211 N209 1.356 . S
N212 C204 1.356 . S
N212 H218 0.984 . S
N212 H219 0.984 . S
N213 C206 1.356 . S
N213 H216 0.984 . S
N213 H217 0.985 . S
H214 N209 0.984 . S
H215 N209 0.985 . S
H216 N213 0.984 . S
H217 N213 0.985 . S
H218 N212 0.984 . S
H219 N212 0.984 . S
H220 N208 0.984 . S
H221 N208 0.985 . S
C61 C18 1.501 . S
C63 C19 1.501 . S
C79 C38 1.483 . S
C81 C39 1.483 1_545 S
C97 C58 1.476 . S
C99 C59 1.476 . S
C115 C2 1.332 . S
C117 C52 1.401 . S
C133 C32 1.317 . S
C135 C12 1.307 . S
C151 C22 1.408 . S
C153 C44 1.423 1_554 S
C169 C4 1.332 . S
C171 C49 1.401 . S
C187 C9 1.307 . S
C189 C29 1.317 . S
C205 C42 1.423 1_556 S
C207 C24 1.408 . S
