# Generated by pormake.
# Topology mok, (4)-cn, num edge types: 1
# Building blocks:
#     Node 0, Type 0, BuildingBlock: NAHDIM_clean_sbu_0, # of connection points: 4
#     Node 1, Type 0, BuildingBlock: NAHDIM_clean_sbu_0, # of connection points: 4
#     Node 2, Type 0, BuildingBlock: NAHDIM_clean_sbu_0, # of connection points: 4
#     Node 3, Type 0, BuildingBlock: NAHDIM_clean_sbu_0, # of connection points: 4
#     Node 4, Type 0, BuildingBlock: NAHDIM_clean_sbu_0, # of connection points: 4
#     Node 5, Type 0, BuildingBlock: NAHDIM_clean_sbu_0, # of connection points: 4
#     Node 6, Type 0, BuildingBlock: NAHDIM_clean_sbu_0, # of connection points: 4
#     Node 7, Type 0, BuildingBlock: NAHDIM_clean_sbu_0, # of connection points: 4
#     Edge 8, Type (0, 0), None
#     Edge 9, Type (0, 0), None
#     Edge 10, Type (0, 0), None
#     Edge 11, Type (0, 0), None
#     Edge 12, Type (0, 0), None
#     Edge 13, Type (0, 0), None
#     Edge 14, Type (0, 0), None
#     Edge 15, Type (0, 0), None
#     Edge 16, Type (0, 0), None
#     Edge 17, Type (0, 0), None
#     Edge 18, Type (0, 0), None
#     Edge 19, Type (0, 0), None
#     Edge 20, Type (0, 0), None
#     Edge 21, Type (0, 0), None
#     Edge 22, Type (0, 0), None
#     Edge 23, Type (0, 0), None
# Relax obj value: 0.045
# Max RMSD: 0.060
# Mean RMSD: 0.060
data_MOF--net-mok--node1-NAHDIM_clean_sbu_0--edge1-none
_symmetry_space_group_name_H-M    P1
_symmetry_Int_Tables_number       1
_symmetry_cell_setting            triclinic
loop_
_symmetry_equiv_pos_as_xyz
'x, y, z'
_cell_length_a     23.337346
_cell_length_b     9.3576414
_cell_length_c     10.77221
_cell_angle_alpha  89.999857
_cell_angle_beta   90.000052
_cell_angle_gamma 89.268852
loop_
_atom_site_label
_atom_site_type_symbol
_atom_site_fract_x
_atom_site_fract_y
_atom_site_fract_z
_atom_type_partial_charge
C0 C 0.51442 0.05632 0.06021 0.0
O1 O 0.48332 0.17418 0.05623 0.0
O2 O 0.57552 0.33486 0.86333 0.0
Zn3 Zn 0.60476 0.25544 0.02527 0.0
O4 O 0.58825 0.38751 0.1691 0.0
C5 C 0.719 0.23969 0.91179 0.0
O6 O 0.69103 0.24936 0.80634 0.0
O7 O 0.56862 0.0636 0.05216 0.0
C8 C 0.6162 0.3572 0.26701 0.0
O9 O 0.64887 0.24191 0.26896 0.0
C10 C 0.57667 0.46738 0.83893 0.0
O11 O 0.59362 0.55747 0.92444 0.0
O12 O 0.69147 0.23606 0.01363 0.0
C13 C 0.48652 0.9168 0.06021 0.0
O14 O 0.51762 0.79894 0.05625 0.0
O15 O 0.42541 0.63826 0.86331 0.0
Zn16 Zn 0.39618 0.71768 0.02526 0.0
O17 O 0.41268 0.58561 0.16909 0.0
C18 C 0.28193 0.73346 0.91179 0.0
O19 O 0.3099 0.72382 0.80634 0.0
O20 O 0.43231 0.90952 0.05215 0.0
C21 C 0.38474 0.61592 0.267 0.0
O22 O 0.35207 0.7312 0.26895 0.0
C23 C 0.42424 0.50574 0.83891 0.0
O24 O 0.40728 0.41566 0.92442 0.0
O25 O 0.30946 0.73706 0.01363 0.0
C26 C 0.514 0.91543 0.46972 0.0
O27 O 0.48227 0.80063 0.47262 0.0
O28 O 0.58446 0.64126 0.68142 0.0
Zn29 Zn 0.60541 0.7111 0.50956 0.0
O30 O 0.58705 0.56932 0.37395 0.0
C31 C 0.7192 0.73391 0.61034 0.0
O32 O 0.69169 0.72942 0.71644 0.0
O33 O 0.56801 0.90316 0.48009 0.0
C34 C 0.61885 0.45805 0.37074 0.0
O35 O 0.65814 0.43924 0.45669 0.0
C36 C 0.57105 0.51441 0.70973 0.0
O37 O 0.56269 0.4199 0.62188 0.0
O38 O 0.69141 0.73321 0.50886 0.0
C39 C 0.48695 0.05769 0.46972 0.0
O40 O 0.51868 0.17249 0.4726 0.0
O41 O 0.41646 0.33186 0.6814 0.0
Zn42 Zn 0.39553 0.26201 0.50953 0.0
O43 O 0.41389 0.40379 0.37393 0.0
C44 C 0.28176 0.23886 0.61032 0.0
O45 O 0.3093 0.24303 0.7164 0.0
O46 O 0.43293 0.06995 0.48009 0.0
C47 C 0.38209 0.51506 0.37072 0.0
O48 O 0.3428 0.53386 0.45668 0.0
C49 C 0.42987 0.45871 0.70971 0.0
O50 O 0.43825 0.55322 0.62187 0.0
O51 O 0.30953 0.23988 0.50882 0.0
C52 C 0.01442 0.55632 0.06022 0.0
O53 O 0.98332 0.67418 0.05624 0.0
O54 O 0.07552 0.83486 0.86333 0.0
Zn55 Zn 0.10475 0.75544 0.02528 0.0
O56 O 0.08825 0.88752 0.16911 0.0
C57 C 0.219 0.73972 0.91179 0.0
O58 O 0.19103 0.74941 0.80635 0.0
O59 O 0.06862 0.5636 0.05217 0.0
C60 C 0.1162 0.8572 0.26702 0.0
O61 O 0.14887 0.74191 0.26896 0.0
C62 C 0.07666 0.96739 0.83893 0.0
O63 O 0.09361 0.05748 0.92445 0.0
O64 O 0.19147 0.73607 0.01363 0.0
C65 C 0.98652 0.41679 0.06021 0.0
O66 O 0.01762 0.29894 0.05626 0.0
O67 O 0.92541 0.13826 0.86332 0.0
Zn68 Zn 0.89618 0.21768 0.02527 0.0
O69 O 0.91268 0.0856 0.1691 0.0
C70 C 0.78193 0.23343 0.91179 0.0
O71 O 0.8099 0.22377 0.80634 0.0
O72 O 0.93231 0.40952 0.05216 0.0
C73 C 0.88474 0.11591 0.267 0.0
O74 O 0.85207 0.2312 0.26895 0.0
C75 C 0.92425 0.00573 0.83892 0.0
O76 O 0.9073 0.91565 0.92443 0.0
O77 O 0.80946 0.23705 0.01363 0.0
C78 C 0.014 0.41543 0.46973 0.0
O79 O 0.98227 0.30062 0.47263 0.0
O80 O 0.08444 0.14128 0.68143 0.0
Zn81 Zn 0.10541 0.2111 0.50958 0.0
O82 O 0.08705 0.06933 0.37397 0.0
C83 C 0.21921 0.23372 0.61035 0.0
O84 O 0.19172 0.22904 0.71646 0.0
O85 O 0.06802 0.40316 0.48009 0.0
C86 C 0.11885 0.95806 0.37075 0.0
O87 O 0.15814 0.93924 0.4567 0.0
C88 C 0.07105 0.01442 0.70974 0.0
O89 O 0.06269 0.9199 0.62189 0.0
O90 O 0.19141 0.2332 0.50889 0.0
C91 C 0.98695 0.55769 0.46972 0.0
O92 O 0.01868 0.67249 0.4726 0.0
O93 O 0.91647 0.83185 0.68141 0.0
Zn94 Zn 0.89553 0.76201 0.50955 0.0
O95 O 0.91389 0.90378 0.37394 0.0
C96 C 0.78175 0.73905 0.61033 0.0
O97 O 0.80927 0.74341 0.71642 0.0
O98 O 0.93293 0.56995 0.48009 0.0
C99 C 0.88208 0.01505 0.37073 0.0
O100 O 0.84279 0.03386 0.45668 0.0
C101 C 0.92987 0.95871 0.70972 0.0
O102 O 0.93825 0.05321 0.62188 0.0
O103 O 0.80953 0.73988 0.50885 0.0
loop_
_geom_bond_atom_site_label_1
_geom_bond_atom_site_label_2
_geom_bond_distance
_geom_bond_site_symmetry_2
_ccdc_geom_bond_type
C0 O1 1.160 1_554 S
C0 O7 1.185 . S
O1 C0 1.160 1_556 S
O2 Zn3 1.899 1_556 S
O2 C10 1.284 . S
Zn3 O2 1.899 1_554 S
Zn3 O4 2.032 . S
Zn3 O7 2.086 . S
Zn3 O12 1.977 . S
O4 Zn3 2.032 . S
O4 C8 1.278 . S
C5 O6 1.203 1_554 S
C5 O12 1.267 . S
O6 C5 1.203 1_556 S
O7 C0 1.185 . S
O7 Zn3 2.086 . S
C8 O4 1.278 . S
C8 O9 1.211 . S
O9 C8 1.211 . S
C10 O2 1.284 . S
C10 O11 1.273 . S
O11 C10 1.273 . S
O12 Zn3 1.977 . S
O12 C5 1.267 . S
C13 O14 1.160 1_554 S
C13 O20 1.185 . S
O14 C13 1.160 1_556 S
O15 Zn16 1.899 1_556 S
O15 C23 1.284 . S
Zn16 O15 1.899 1_554 S
Zn16 O17 2.032 . S
Zn16 O20 2.086 . S
Zn16 O25 1.977 . S
O17 Zn16 2.032 . S
O17 C21 1.278 . S
C18 O19 1.203 1_554 S
C18 O25 1.267 . S
O19 C18 1.203 1_556 S
O20 C13 1.185 . S
O20 Zn16 2.086 . S
C21 O17 1.278 . S
C21 O22 1.211 . S
O22 C21 1.211 . S
C23 O15 1.284 . S
C23 O24 1.273 . S
O24 C23 1.273 . S
O25 Zn16 1.977 . S
O25 C18 1.267 . S
C26 O27 1.160 . S
C26 O33 1.185 . S
O27 C26 1.160 . S
O28 Zn29 1.899 . S
O28 C36 1.284 . S
Zn29 O28 1.899 . S
Zn29 O30 2.032 . S
Zn29 O33 2.086 . S
Zn29 O38 1.977 . S
O30 Zn29 2.032 . S
O30 C34 1.278 . S
C31 O32 1.203 . S
C31 O38 1.267 . S
O32 C31 1.203 . S
O33 C26 1.185 . S
O33 Zn29 2.086 . S
C34 O30 1.278 . S
C34 O35 1.211 . S
O35 C34 1.211 . S
C36 O28 1.284 . S
C36 O37 1.273 . S
O37 C36 1.273 . S
O38 Zn29 1.977 . S
O38 C31 1.267 . S
C39 O40 1.160 . S
C39 O46 1.185 . S
O40 C39 1.160 . S
O41 Zn42 1.899 . S
O41 C49 1.284 . S
Zn42 O41 1.899 . S
Zn42 O43 2.032 . S
Zn42 O46 2.086 . S
Zn42 O51 1.977 . S
O43 Zn42 2.032 . S
O43 C47 1.278 . S
C44 O45 1.203 . S
C44 O51 1.267 . S
O45 C44 1.203 . S
O46 C39 1.185 . S
O46 Zn42 2.086 . S
C47 O43 1.278 . S
C47 O48 1.211 . S
O48 C47 1.211 . S
C49 O41 1.284 . S
C49 O50 1.273 . S
O50 C49 1.273 . S
O51 Zn42 1.977 . S
O51 C44 1.267 . S
C52 O53 1.160 1_454 S
C52 O59 1.185 . S
O53 C52 1.160 1_656 S
O54 Zn55 1.899 1_556 S
O54 C62 1.284 . S
Zn55 O54 1.899 1_554 S
Zn55 O56 2.032 . S
Zn55 O59 2.086 . S
Zn55 O64 1.977 . S
O56 Zn55 2.032 . S
O56 C60 1.278 . S
C57 O58 1.203 1_554 S
C57 O64 1.267 . S
O58 C57 1.203 1_556 S
O59 C52 1.185 . S
O59 Zn55 2.086 . S
C60 O56 1.278 . S
C60 O61 1.211 1_565 S
O61 C60 1.211 1_545 S
C62 O54 1.284 . S
C62 O63 1.273 1_565 S
O63 C62 1.273 1_545 S
O64 Zn55 1.977 . S
O64 C57 1.267 . S
C65 O66 1.160 1_654 S
C65 O72 1.185 . S
O66 C65 1.160 1_456 S
O67 Zn68 1.899 1_556 S
O67 C75 1.284 . S
Zn68 O67 1.899 1_554 S
Zn68 O69 2.032 . S
Zn68 O72 2.086 . S
Zn68 O77 1.977 . S
O69 Zn68 2.032 . S
O69 C73 1.278 . S
C70 O71 1.203 1_554 S
C70 O77 1.267 . S
O71 C70 1.203 1_556 S
O72 C65 1.185 . S
O72 Zn68 2.086 . S
C73 O69 1.278 . S
C73 O74 1.211 1_545 S
O74 C73 1.211 1_565 S
C75 O67 1.284 . S
C75 O76 1.273 1_545 S
O76 C75 1.273 1_565 S
O77 Zn68 1.977 . S
O77 C70 1.267 . S
C78 O79 1.160 1_455 S
C78 O85 1.185 . S
O79 C78 1.160 1_655 S
O80 Zn81 1.899 . S
O80 C88 1.284 . S
Zn81 O80 1.899 . S
Zn81 O82 2.032 . S
Zn81 O85 2.086 . S
Zn81 O90 1.977 . S
O82 Zn81 2.032 . S
O82 C86 1.278 . S
C83 O84 1.203 . S
C83 O90 1.267 . S
O84 C83 1.203 . S
O85 C78 1.185 . S
O85 Zn81 2.086 . S
C86 O82 1.278 . S
C86 O87 1.211 1_545 S
O87 C86 1.211 1_565 S
C88 O80 1.284 . S
C88 O89 1.273 1_545 S
O89 C88 1.273 1_565 S
O90 Zn81 1.977 . S
O90 C83 1.267 . S
C91 O92 1.160 1_655 S
C91 O98 1.185 . S
O92 C91 1.160 1_455 S
O93 Zn94 1.899 . S
O93 C101 1.284 . S
Zn94 O93 1.899 . S
Zn94 O95 2.032 . S
Zn94 O98 2.086 . S
Zn94 O103 1.977 . S
O95 Zn94 2.032 . S
O95 C99 1.278 . S
C96 O97 1.203 . S
C96 O103 1.267 . S
O97 C96 1.203 . S
O98 C91 1.185 . S
O98 Zn94 2.086 . S
C99 O95 1.278 . S
C99 O100 1.211 1_565 S
O100 C99 1.211 1_545 S
C101 O93 1.284 . S
C101 O102 1.273 1_565 S
O102 C101 1.273 1_545 S
O103 Zn94 1.977 . S
O103 C96 1.267 . S
C70 C5 1.395 . S
C57 C18 1.395 . S
C96 C31 1.395 . S
C83 C44 1.395 . S
C8 C34 1.225 . S
C21 C47 1.225 . S
C23 C49 1.536 . S
C10 C36 1.536 . S
C60 C86 1.225 1_565 S
C99 C73 1.225 1_565 S
C101 C75 1.536 1_565 S
C62 C88 1.536 1_565 S
C13 C0 1.541 1_565 S
C26 C39 1.541 1_565 S
C52 C65 1.541 1_455 S
C78 C91 1.541 1_455 S
