# Generated by pormake.
# Topology crb, (4)-cn, num edge types: 1
# Building blocks:
#     Node 0, Type 0, BuildingBlock: CEKHIL_clean_sbu_0, # of connection points: 4
#     Node 1, Type 0, BuildingBlock: CEKHIL_clean_sbu_0, # of connection points: 4
#     Node 2, Type 0, BuildingBlock: CEKHIL_clean_sbu_0, # of connection points: 4
#     Node 3, Type 0, BuildingBlock: CEKHIL_clean_sbu_0, # of connection points: 4
#     Node 4, Type 0, BuildingBlock: CEKHIL_clean_sbu_0, # of connection points: 4
#     Node 5, Type 0, BuildingBlock: CEKHIL_clean_sbu_0, # of connection points: 4
#     Node 6, Type 0, BuildingBlock: CEKHIL_clean_sbu_0, # of connection points: 4
#     Node 7, Type 0, BuildingBlock: CEKHIL_clean_sbu_0, # of connection points: 4
#     Edge 8, Type (0, 0), BuildingBlock: EYOCIG_clean_linker_4, # of connection points: 2
#     Edge 9, Type (0, 0), BuildingBlock: EYOCIG_clean_linker_4, # of connection points: 2
#     Edge 10, Type (0, 0), BuildingBlock: EYOCIG_clean_linker_4, # of connection points: 2
#     Edge 11, Type (0, 0), BuildingBlock: EYOCIG_clean_linker_4, # of connection points: 2
#     Edge 12, Type (0, 0), BuildingBlock: EYOCIG_clean_linker_4, # of connection points: 2
#     Edge 13, Type (0, 0), BuildingBlock: EYOCIG_clean_linker_4, # of connection points: 2
#     Edge 14, Type (0, 0), BuildingBlock: EYOCIG_clean_linker_4, # of connection points: 2
#     Edge 15, Type (0, 0), BuildingBlock: EYOCIG_clean_linker_4, # of connection points: 2
#     Edge 16, Type (0, 0), BuildingBlock: EYOCIG_clean_linker_4, # of connection points: 2
#     Edge 17, Type (0, 0), BuildingBlock: EYOCIG_clean_linker_4, # of connection points: 2
#     Edge 18, Type (0, 0), BuildingBlock: EYOCIG_clean_linker_4, # of connection points: 2
#     Edge 19, Type (0, 0), BuildingBlock: EYOCIG_clean_linker_4, # of connection points: 2
#     Edge 20, Type (0, 0), BuildingBlock: EYOCIG_clean_linker_4, # of connection points: 2
#     Edge 21, Type (0, 0), BuildingBlock: EYOCIG_clean_linker_4, # of connection points: 2
#     Edge 22, Type (0, 0), BuildingBlock: EYOCIG_clean_linker_4, # of connection points: 2
#     Edge 23, Type (0, 0), BuildingBlock: EYOCIG_clean_linker_4, # of connection points: 2
# Relax obj value: 0.118
# Max RMSD: 0.159
# Mean RMSD: 0.159
data_MOF--net-crb--node1-CEKHIL_clean_sbu_0--edge1-EYOCIG_clean_linker_4
_symmetry_space_group_name_H-M    P1
_symmetry_Int_Tables_number       1
_symmetry_cell_setting            triclinic
loop_
_symmetry_equiv_pos_as_xyz
'x, y, z'
_cell_length_a     34.740678
_cell_length_b     33.763206
_cell_length_c     17.60681
_cell_angle_alpha  89.982235
_cell_angle_beta   90.00964
_cell_angle_gamma 89.999453
loop_
_atom_site_label
_atom_site_type_symbol
_atom_site_fract_x
_atom_site_fract_y
_atom_site_fract_z
_atom_type_partial_charge
Co0 Co 0.32863 0.33763 0.07922 0.0
O1 O 0.27726 0.33426 0.12103 0.0
O2 O 0.32736 0.29839 0.15858 0.0
C3 C 0.33194 0.40404 0.07941 0.0
O4 O 0.38597 0.33364 0.05642 0.0
Co5 Co 0.34838 0.37866 0.92612 0.0
O6 O 0.40223 0.37596 0.96318 0.0
C7 C 0.30883 0.30125 0.92731 0.0
C8 C 0.29146 0.30796 0.167 0.0
C9 C 0.41107 0.35222 1.01647 0.0
O10 O 0.31503 0.29701 0.99901 0.0
O11 O 0.31709 0.33255 0.88988 0.0
O12 O 0.33888 0.38443 0.14141 0.0
O13 O 0.32093 0.38365 1.02152 0.0
Co14 Co 0.68084 0.33786 0.03438 0.0
O15 O 0.7322 0.33454 0.99249 0.0
O16 O 0.68214 0.29852 0.9553 0.0
C17 C 0.67737 0.4042 0.03374 0.0
O18 O 0.62352 0.33383 0.05732 0.0
Co19 Co 0.66112 0.37904 0.1873 0.0
O20 O 0.60723 0.37615 0.1505 0.0
C21 C 0.70059 0.30159 0.18658 0.0
C22 C 0.71802 0.30814 0.94673 0.0
C23 C 0.59841 0.35238 0.09729 0.0
O24 O 0.69454 0.29737 0.11483 0.0
O25 O 0.69224 0.33288 0.22394 0.0
O26 O 0.67046 0.38451 0.97186 0.0
O27 O 0.68847 0.38395 0.09175 0.0
Co28 Co 0.68091 0.66603 0.07936 0.0
O29 O 0.73226 0.66928 0.12151 0.0
O30 O 0.68225 0.70546 0.1583 0.0
C31 C 0.67722 0.59967 0.08022 0.0
O32 O 0.6236 0.67022 0.05629 0.0
Co33 Co 0.66118 0.62501 0.92649 0.0
O34 O 0.60722 0.62814 0.9628 0.0
C35 C 0.70067 0.70241 0.92701 0.0
C36 C 0.7181 0.6958 0.16705 0.0
C37 C 0.59844 0.65186 1.01612 0.0
O38 O 0.69479 0.70649 0.99886 0.0
O39 O 0.69214 0.67121 0.88952 0.0
O40 O 0.67035 0.61947 0.14199 0.0
O41 O 0.68845 0.61983 0.02216 0.0
Co42 Co 0.32861 0.66628 0.03425 0.0
O43 O 0.27724 0.66959 0.99224 0.0
O44 O 0.3273 0.70558 0.95501 0.0
C45 C 0.33209 0.59985 0.03389 0.0
O46 O 0.38595 0.67039 0.05712 0.0
Co47 Co 0.34841 0.62539 0.1873 0.0
O48 O 0.40233 0.62833 0.15068 0.0
C49 C 0.30885 0.70277 0.18631 0.0
C50 C 0.29142 0.696 0.94644 0.0
C51 C 0.41111 0.65201 0.09726 0.0
O52 O 0.31488 0.70688 0.11452 0.0
O53 O 0.31726 0.67155 0.22384 0.0
O54 O 0.33899 0.61954 0.97199 0.0
O55 O 0.321 0.62016 0.09183 0.0
Co56 Co 0.82856 0.83799 0.57928 0.0
O57 O 0.7772 0.83471 0.62133 0.0
O58 O 0.82723 0.79866 0.65847 0.0
C59 C 0.8321 0.90438 0.57978 0.0
O60 O 0.88589 0.83387 0.55631 0.0
Co61 Co 0.84831 0.87903 0.42628 0.0
O62 O 0.90222 0.8761 0.46298 0.0
C63 C 0.80873 0.80166 0.4271 0.0
C64 C 0.79137 0.80829 0.66711 0.0
C65 C 0.91102 0.85235 0.51627 0.0
O66 O 0.81476 0.79748 0.49888 0.0
O67 O 0.81715 0.83291 0.38965 0.0
O68 O 0.839 0.88467 0.64166 0.0
O69 O 0.82096 0.88412 0.52182 0.0
Co70 Co 0.18086 0.83802 0.5341 0.0
O71 O 0.23223 0.83473 0.49212 0.0
O72 O 0.18218 0.79872 0.45491 0.0
C73 C 0.17736 0.90441 0.53363 0.0
O74 O 0.12353 0.83392 0.55701 0.0
Co75 Co 0.1611 0.87901 0.6871 0.0
O76 O 0.10719 0.87607 0.65041 0.0
C77 C 0.20066 0.80161 0.68623 0.0
C78 C 0.21806 0.80833 0.44633 0.0
C79 C 0.0984 0.85236 0.59708 0.0
O80 O 0.19461 0.79746 0.61446 0.0
O81 O 0.19226 0.83286 0.72368 0.0
O82 O 0.17046 0.88473 0.47172 0.0
O83 O 0.18847 0.88411 0.59159 0.0
Co84 Co 0.1808 0.16639 0.57931 0.0
O85 O 0.23217 0.1697 0.6212 0.0
O86 O 0.18211 0.2057 0.65844 0.0
C87 C 0.17733 0.10001 0.57981 0.0
O88 O 0.12348 0.17048 0.55642 0.0
Co89 Co 0.16104 0.12539 0.42632 0.0
O90 O 0.10713 0.12833 0.46301 0.0
C91 C 0.20055 0.2028 0.42725 0.0
C92 C 0.21799 0.1961 0.66696 0.0
C93 C 0.09835 0.15204 0.51634 0.0
O94 O 0.19449 0.20695 0.499 0.0
O95 O 0.19219 0.17155 0.38979 0.0
O96 O 0.17044 0.11969 0.64171 0.0
O97 O 0.18842 0.12031 0.52184 0.0
Co98 Co 0.82858 0.16644 0.53451 0.0
O99 O 0.77721 0.16973 0.49259 0.0
O100 O 0.82724 0.20578 0.45538 0.0
C101 C 0.8321 0.10006 0.53398 0.0
O102 O 0.88591 0.17055 0.5574 0.0
Co103 Co 0.84838 0.12538 0.68748 0.0
O104 O 0.90227 0.12832 0.65073 0.0
C105 C 0.80882 0.20277 0.68663 0.0
C106 C 0.79137 0.19615 0.44683 0.0
C107 C 0.91105 0.15207 0.59743 0.0
O108 O 0.81486 0.20695 0.61487 0.0
O109 O 0.81723 0.17152 0.72408 0.0
O110 O 0.83898 0.11977 0.4721 0.0
O111 O 0.82099 0.12032 0.59197 0.0
C112 C 0.33894 0.48134 0.06355 0.0
C113 C 0.33629 0.44618 0.07412 0.0
C114 C 0.33898 0.52248 0.04921 0.0
C115 C 0.33638 0.55767 0.03889 0.0
C116 C 0.48487 0.34397 0.04856 0.0
C117 C 0.45101 0.34727 0.03498 0.0
C118 C 0.52461 0.34401 0.06527 0.0
C119 C 0.55847 0.34736 0.07886 0.0
C120 C 0.66999 0.48139 0.04982 0.0
C121 C 0.67277 0.44628 0.03891 0.0
C122 C 0.66995 0.52243 0.06479 0.0
C123 C 0.67268 0.55756 0.07541 0.0
C124 C 0.4849 0.66044 0.06507 0.0
C125 C 0.45105 0.65706 0.07874 0.0
C126 C 0.52465 0.66041 0.04821 0.0
C127 C 0.5585 0.65697 0.03457 0.0
C128 C 0.83926 0.98167 0.56416 0.0
C129 C 0.83655 0.94652 0.57473 0.0
C130 C 0.83925 0.02277 0.54958 0.0
C131 C 0.83655 0.05793 0.53902 0.0
C132 C 0.02459 0.84394 0.56503 0.0
C133 C 0.05845 0.8473 0.57862 0.0
C134 C 0.98483 0.84393 0.54831 0.0
C135 C 0.95097 0.8473 0.53473 0.0
C136 C 0.17019 0.02275 0.56408 0.0
C137 C 0.17288 0.05789 0.57472 0.0
C138 C 0.17019 0.98167 0.54938 0.0
C139 C 0.1729 0.94653 0.53873 0.0
C140 C 0.98483 0.16049 0.56527 0.0
C141 C 0.95098 0.15712 0.57892 0.0
C142 C 0.02457 0.16048 0.54846 0.0
C143 C 0.05841 0.15709 0.53481 0.0
C144 C 0.2335 0.25579 0.33948 0.0
C145 C 0.2187 0.23407 0.38531 0.0
C146 C 0.25193 0.27627 0.27974 0.0
C147 C 0.26901 0.29138 0.22764 0.0
C148 C 0.7335 0.24864 0.27454 0.0
C149 C 0.71872 0.27035 0.22866 0.0
C150 C 0.75187 0.22808 0.33426 0.0
C151 C 0.76892 0.21284 0.3863 0.0
C152 C 0.7758 0.74868 0.33917 0.0
C153 C 0.79058 0.77041 0.38503 0.0
C154 C 0.7575 0.728 0.27948 0.0
C155 C 0.74053 0.71262 0.2275 0.0
C156 C 0.25754 0.7764 0.33376 0.0
C157 C 0.24051 0.79164 0.38579 0.0
C158 C 0.27591 0.75581 0.27406 0.0
C159 C 0.2907 0.73406 0.22824 0.0
C160 C 0.2336 0.74862 0.77414 0.0
C161 C 0.21881 0.77035 0.72826 0.0
C162 C 0.25196 0.72802 0.83388 0.0
C163 C 0.26898 0.71273 0.88591 0.0
C164 C 0.27584 0.24839 0.83938 0.0
C165 C 0.29067 0.27002 0.88533 0.0
C166 C 0.25747 0.22795 0.77956 0.0
C167 C 0.24043 0.21275 0.72751 0.0
C168 C 0.7575 0.27628 0.83414 0.0
C169 C 0.74045 0.29149 0.88618 0.0
C170 C 0.77588 0.25574 0.77444 0.0
C171 C 0.79068 0.23402 0.72862 0.0
C172 C 0.73353 0.75556 0.83927 0.0
C173 C 0.71878 0.73371 0.885 0.0
C174 C 0.75189 0.77628 0.77968 0.0
C175 C 0.76891 0.79157 0.72764 0.0
loop_
_geom_bond_atom_site_label_1
_geom_bond_atom_site_label_2
_geom_bond_distance
_geom_bond_site_symmetry_2
_ccdc_geom_bond_type
Co0 O1 2.216 . S
Co0 O2 2.091 . S
Co0 O4 2.004 . S
Co0 O10 2.021 1_554 S
Co0 O12 2.137 . S
Co0 O13 2.244 . S
O1 Co0 2.216 . S
O1 C8 1.247 . S
O2 Co0 2.091 . S
O2 C8 1.261 . S
C3 O12 1.247 . S
C3 O13 1.272 . S
O4 Co0 2.004 . S
O4 C9 1.259 . S
Co5 O6 2.061 . S
Co5 O11 2.052 . S
Co5 O13 2.135 1_556 S
O6 Co5 2.061 . S
O6 C9 1.235 1_556 S
C7 O10 1.238 . S
C7 O11 1.241 . S
C8 O1 1.247 . S
C8 O2 1.261 . S
C9 O4 1.259 . S
C9 O6 1.235 1_554 S
O10 Co0 2.021 1_556 S
O10 C7 1.238 . S
O11 Co5 2.052 . S
O11 C7 1.241 . S
O12 Co0 2.137 . S
O12 C3 1.247 . S
O13 Co0 2.244 . S
O13 C3 1.272 . S
O13 Co5 2.135 1_554 S
Co14 O15 2.216 . S
Co14 O16 2.091 . S
Co14 O18 2.004 1_556 S
Co14 O24 2.021 1_556 S
Co14 O26 2.137 . S
Co14 O27 2.244 1_556 S
O15 Co14 2.216 . S
O15 C22 1.247 . S
O16 Co14 2.091 . S
O16 C22 1.261 . S
C17 O26 1.247 1_554 S
C17 O27 1.272 . S
O18 Co14 2.004 1_554 S
O18 C23 1.259 . S
Co19 O20 2.061 . S
Co19 O25 2.052 . S
Co19 O27 2.135 . S
O20 Co19 2.061 . S
O20 C23 1.235 . S
C21 O24 1.238 . S
C21 O25 1.241 . S
C22 O15 1.247 . S
C22 O16 1.261 . S
C23 O18 1.259 . S
C23 O20 1.235 . S
O24 Co14 2.021 1_554 S
O24 C21 1.238 . S
O25 Co19 2.052 . S
O25 C21 1.241 . S
O26 Co14 2.137 . S
O26 C17 1.247 1_556 S
O27 Co14 2.244 1_554 S
O27 C17 1.272 . S
O27 Co19 2.135 . S
Co28 O29 2.216 . S
Co28 O30 2.091 . S
Co28 O32 2.004 . S
Co28 O38 2.021 1_554 S
Co28 O40 2.137 . S
Co28 O41 2.244 . S
O29 Co28 2.216 . S
O29 C36 1.247 . S
O30 Co28 2.091 . S
O30 C36 1.261 . S
C31 O40 1.247 . S
C31 O41 1.272 . S
O32 Co28 2.004 . S
O32 C37 1.259 . S
Co33 O34 2.061 . S
Co33 O39 2.052 . S
Co33 O41 2.135 1_556 S
O34 Co33 2.061 . S
O34 C37 1.235 1_556 S
C35 O38 1.238 . S
C35 O39 1.241 . S
C36 O29 1.247 . S
C36 O30 1.261 . S
C37 O32 1.259 . S
C37 O34 1.235 1_554 S
O38 Co28 2.021 1_556 S
O38 C35 1.238 . S
O39 Co33 2.052 . S
O39 C35 1.241 . S
O40 Co28 2.137 . S
O40 C31 1.247 . S
O41 Co28 2.244 . S
O41 C31 1.272 . S
O41 Co33 2.135 1_554 S
Co42 O43 2.216 . S
Co42 O44 2.091 . S
Co42 O46 2.004 1_556 S
Co42 O52 2.021 1_556 S
Co42 O54 2.137 . S
Co42 O55 2.244 1_556 S
O43 Co42 2.216 . S
O43 C50 1.247 . S
O44 Co42 2.091 . S
O44 C50 1.261 . S
C45 O54 1.247 1_554 S
C45 O55 1.272 . S
O46 Co42 2.004 1_554 S
O46 C51 1.259 . S
Co47 O48 2.061 . S
Co47 O53 2.052 . S
Co47 O55 2.135 . S
O48 Co47 2.061 . S
O48 C51 1.235 . S
C49 O52 1.238 . S
C49 O53 1.241 . S
C50 O43 1.247 . S
C50 O44 1.261 . S
C51 O46 1.259 . S
C51 O48 1.235 . S
O52 Co42 2.021 1_554 S
O52 C49 1.238 . S
O53 Co47 2.052 . S
O53 C49 1.241 . S
O54 Co42 2.137 . S
O54 C45 1.247 1_556 S
O55 Co42 2.244 1_554 S
O55 C45 1.272 . S
O55 Co47 2.135 . S
Co56 O57 2.216 . S
Co56 O58 2.091 . S
Co56 O60 2.004 . S
Co56 O66 2.021 . S
Co56 O68 2.137 . S
Co56 O69 2.244 . S
O57 Co56 2.216 . S
O57 C64 1.247 . S
O58 Co56 2.091 . S
O58 C64 1.261 . S
C59 O68 1.247 . S
C59 O69 1.272 . S
O60 Co56 2.004 . S
O60 C65 1.259 . S
Co61 O62 2.061 . S
Co61 O67 2.052 . S
Co61 O69 2.135 . S
O62 Co61 2.061 . S
O62 C65 1.235 . S
C63 O66 1.238 . S
C63 O67 1.241 . S
C64 O57 1.247 . S
C64 O58 1.261 . S
C65 O60 1.259 . S
C65 O62 1.235 . S
O66 Co56 2.021 . S
O66 C63 1.238 . S
O67 Co61 2.052 . S
O67 C63 1.241 . S
O68 Co56 2.137 . S
O68 C59 1.247 . S
O69 Co56 2.244 . S
O69 C59 1.272 . S
O69 Co61 2.135 . S
Co70 O71 2.216 . S
Co70 O72 2.091 . S
Co70 O74 2.004 . S
Co70 O80 2.021 . S
Co70 O82 2.137 . S
Co70 O83 2.244 . S
O71 Co70 2.216 . S
O71 C78 1.247 . S
O72 Co70 2.091 . S
O72 C78 1.261 . S
C73 O82 1.247 . S
C73 O83 1.272 . S
O74 Co70 2.004 . S
O74 C79 1.259 . S
Co75 O76 2.061 . S
Co75 O81 2.052 . S
Co75 O83 2.135 . S
O76 Co75 2.061 . S
O76 C79 1.235 . S
C77 O80 1.238 . S
C77 O81 1.241 . S
C78 O71 1.247 . S
C78 O72 1.261 . S
C79 O74 1.259 . S
C79 O76 1.235 . S
O80 Co70 2.021 . S
O80 C77 1.238 . S
O81 Co75 2.052 . S
O81 C77 1.241 . S
O82 Co70 2.137 . S
O82 C73 1.247 . S
O83 Co70 2.244 . S
O83 C73 1.272 . S
O83 Co75 2.135 . S
Co84 O85 2.216 . S
Co84 O86 2.091 . S
Co84 O88 2.004 . S
Co84 O94 2.021 . S
Co84 O96 2.137 . S
Co84 O97 2.244 . S
O85 Co84 2.216 . S
O85 C92 1.247 . S
O86 Co84 2.091 . S
O86 C92 1.261 . S
C87 O96 1.247 . S
C87 O97 1.272 . S
O88 Co84 2.004 . S
O88 C93 1.259 . S
Co89 O90 2.061 . S
Co89 O95 2.052 . S
Co89 O97 2.135 . S
O90 Co89 2.061 . S
O90 C93 1.235 . S
C91 O94 1.238 . S
C91 O95 1.241 . S
C92 O85 1.247 . S
C92 O86 1.261 . S
C93 O88 1.259 . S
C93 O90 1.235 . S
O94 Co84 2.021 . S
O94 C91 1.238 . S
O95 Co89 2.052 . S
O95 C91 1.241 . S
O96 Co84 2.137 . S
O96 C87 1.247 . S
O97 Co84 2.244 . S
O97 C87 1.272 . S
O97 Co89 2.135 . S
Co98 O99 2.216 . S
Co98 O100 2.091 . S
Co98 O102 2.004 . S
Co98 O108 2.021 . S
Co98 O110 2.137 . S
Co98 O111 2.244 . S
O99 Co98 2.216 . S
O99 C106 1.247 . S
O100 Co98 2.091 . S
O100 C106 1.261 . S
C101 O110 1.247 . S
C101 O111 1.272 . S
O102 Co98 2.004 . S
O102 C107 1.259 . S
Co103 O104 2.061 . S
Co103 O109 2.052 . S
Co103 O111 2.135 . S
O104 Co103 2.061 . S
O104 C107 1.235 . S
C105 O108 1.238 . S
C105 O109 1.241 . S
C106 O99 1.247 . S
C106 O100 1.261 . S
C107 O102 1.259 . S
C107 O104 1.235 . S
O108 Co98 2.021 . S
O108 C105 1.238 . S
O109 Co103 2.052 . S
O109 C105 1.241 . S
O110 Co98 2.137 . S
O110 C101 1.247 . S
O111 Co98 2.244 . S
O111 C101 1.272 . S
O111 Co103 2.135 . S
C112 C113 1.170 . S
C112 C114 1.380 . S
C113 C112 1.170 . S
C114 C112 1.380 . S
C114 C115 1.170 . S
C115 C114 1.170 . S
C116 C117 1.170 . S
C116 C118 1.380 . S
C117 C116 1.170 . S
C118 C116 1.380 . S
C118 C119 1.170 . S
C119 C118 1.170 . S
C120 C121 1.170 . S
C120 C122 1.380 . S
C121 C120 1.170 . S
C122 C120 1.380 . S
C122 C123 1.170 . S
C123 C122 1.170 . S
C124 C125 1.170 . S
C124 C126 1.380 . S
C125 C124 1.170 . S
C126 C124 1.380 . S
C126 C127 1.170 . S
C127 C126 1.170 . S
C128 C129 1.170 . S
C128 C130 1.380 1_565 S
C129 C128 1.170 . S
C130 C128 1.380 1_545 S
C130 C131 1.170 . S
C131 C130 1.170 . S
C132 C133 1.170 . S
C132 C134 1.380 1_455 S
C133 C132 1.170 . S
C134 C132 1.380 1_655 S
C134 C135 1.170 . S
C135 C134 1.170 . S
C136 C137 1.170 . S
C136 C138 1.380 1_545 S
C137 C136 1.170 . S
C138 C136 1.380 1_565 S
C138 C139 1.170 . S
C139 C138 1.170 . S
C140 C141 1.170 . S
C140 C142 1.380 1_655 S
C141 C140 1.170 . S
C142 C140 1.380 1_455 S
C142 C143 1.170 . S
C143 C142 1.170 . S
C144 C145 1.170 . S
C144 C146 1.380 . S
C145 C144 1.170 . S
C146 C144 1.380 . S
C146 C147 1.170 . S
C147 C146 1.170 . S
C148 C149 1.170 . S
C148 C150 1.380 . S
C149 C148 1.170 . S
C150 C148 1.380 . S
C150 C151 1.170 . S
C151 C150 1.170 . S
C152 C153 1.170 . S
C152 C154 1.380 . S
C153 C152 1.170 . S
C154 C152 1.380 . S
C154 C155 1.170 . S
C155 C154 1.170 . S
C156 C157 1.170 . S
C156 C158 1.380 . S
C157 C156 1.170 . S
C158 C156 1.380 . S
C158 C159 1.170 . S
C159 C158 1.170 . S
C160 C161 1.170 . S
C160 C162 1.380 . S
C161 C160 1.170 . S
C162 C160 1.380 . S
C162 C163 1.170 . S
C163 C162 1.170 . S
C164 C165 1.170 . S
C164 C166 1.380 . S
C165 C164 1.170 . S
C166 C164 1.380 . S
C166 C167 1.170 . S
C167 C166 1.170 . S
C168 C169 1.170 . S
C168 C170 1.380 . S
C169 C168 1.170 . S
C170 C168 1.380 . S
C170 C171 1.170 . S
C171 C170 1.170 . S
C172 C173 1.170 . S
C172 C174 1.380 . S
C173 C172 1.170 . S
C174 C172 1.380 . S
C174 C175 1.170 . S
C175 C174 1.170 . S
C113 C3 1.561 . S
C115 C45 1.556 . S
C117 C9 1.569 . S
C119 C23 1.571 . S
C121 C17 1.562 . S
C123 C31 1.549 . S
C125 C51 1.562 . S
C127 C37 1.566 . S
C129 C59 1.550 . S
C131 C101 1.546 . S
C133 C79 1.565 . S
C135 C65 1.569 . S
C137 C87 1.544 . S
C139 C73 1.555 . S
C141 C107 1.552 . S
C143 C93 1.554 . S
C145 C91 1.457 . S
C147 C8 1.488 . S
C149 C21 1.471 . S
C151 C106 1.504 . S
C153 C63 1.463 . S
C155 C36 1.488 . S
C157 C78 1.489 . S
C159 C49 1.470 . S
C161 C77 1.460 . S
C163 C50 1.488 . S
C165 C7 1.452 . S
C167 C92 1.489 . S
C169 C22 1.490 . S
C171 C105 1.471 . S
C173 C35 1.480 . S
C175 C64 1.503 . S
