# Generated by pormake.
# Topology upc, (4)-cn, num edge types: 1
# Building blocks:
#     Node 0, Type 0, BuildingBlock: NAWXER_clean_sbu_0, # of connection points: 4
#     Node 1, Type 0, BuildingBlock: NAWXER_clean_sbu_0, # of connection points: 4
#     Node 2, Type 0, BuildingBlock: NAWXER_clean_sbu_0, # of connection points: 4
#     Node 3, Type 0, BuildingBlock: NAWXER_clean_sbu_0, # of connection points: 4
#     Node 4, Type 0, BuildingBlock: NAWXER_clean_sbu_0, # of connection points: 4
#     Node 5, Type 0, BuildingBlock: NAWXER_clean_sbu_0, # of connection points: 4
#     Node 6, Type 0, BuildingBlock: NAWXER_clean_sbu_0, # of connection points: 4
#     Node 7, Type 0, BuildingBlock: NAWXER_clean_sbu_0, # of connection points: 4
#     Node 8, Type 0, BuildingBlock: NAWXER_clean_sbu_0, # of connection points: 4
#     Node 9, Type 0, BuildingBlock: NAWXER_clean_sbu_0, # of connection points: 4
#     Node 10, Type 0, BuildingBlock: NAWXER_clean_sbu_0, # of connection points: 4
#     Node 11, Type 0, BuildingBlock: NAWXER_clean_sbu_0, # of connection points: 4
#     Node 12, Type 0, BuildingBlock: NAWXER_clean_sbu_0, # of connection points: 4
#     Node 13, Type 0, BuildingBlock: NAWXER_clean_sbu_0, # of connection points: 4
#     Node 14, Type 0, BuildingBlock: NAWXER_clean_sbu_0, # of connection points: 4
#     Node 15, Type 0, BuildingBlock: NAWXER_clean_sbu_0, # of connection points: 4
#     Edge 16, Type (0, 0), None
#     Edge 17, Type (0, 0), None
#     Edge 18, Type (0, 0), None
#     Edge 19, Type (0, 0), None
#     Edge 20, Type (0, 0), None
#     Edge 21, Type (0, 0), None
#     Edge 22, Type (0, 0), None
#     Edge 23, Type (0, 0), None
#     Edge 24, Type (0, 0), None
#     Edge 25, Type (0, 0), None
#     Edge 26, Type (0, 0), None
#     Edge 27, Type (0, 0), None
#     Edge 28, Type (0, 0), None
#     Edge 29, Type (0, 0), None
#     Edge 30, Type (0, 0), None
#     Edge 31, Type (0, 0), None
#     Edge 32, Type (0, 0), None
#     Edge 33, Type (0, 0), None
#     Edge 34, Type (0, 0), None
#     Edge 35, Type (0, 0), None
#     Edge 36, Type (0, 0), None
#     Edge 37, Type (0, 0), None
#     Edge 38, Type (0, 0), None
#     Edge 39, Type (0, 0), None
#     Edge 40, Type (0, 0), None
#     Edge 41, Type (0, 0), None
#     Edge 42, Type (0, 0), None
#     Edge 43, Type (0, 0), None
#     Edge 44, Type (0, 0), None
#     Edge 45, Type (0, 0), None
#     Edge 46, Type (0, 0), None
#     Edge 47, Type (0, 0), None
# Relax obj value: 0.229
# Max RMSD: 0.220
# Mean RMSD: 0.220
data_MOF--net-upc--node1-NAWXER_clean_sbu_0--edge1-none
_symmetry_space_group_name_H-M    P1
_symmetry_Int_Tables_number       1
_symmetry_cell_setting            triclinic
loop_
_symmetry_equiv_pos_as_xyz
'x, y, z'
_cell_length_a     14.784354
_cell_length_b     14.783979
_cell_length_c     20.330112
_cell_angle_alpha  89.999591
_cell_angle_beta   90.000426
_cell_angle_gamma 89.999975
loop_
_atom_site_label
_atom_site_type_symbol
_atom_site_fract_x
_atom_site_fract_y
_atom_site_fract_z
_atom_type_partial_charge
C0 C 0.1148 0.51302 0.1642 0.0
C1 C 0.26581 0.75322 0.04041 0.0
O2 O 0.0621 0.56672 0.13304 0.0
Zn3 Zn 0.06592 0.67818 0.06648 0.0
O4 O 0.19954 0.5143 0.15289 0.0
Zn5 Zn 0.19216 0.61607 0.0896 0.0
O6 O 0.14052 0.71622 0.15769 0.0
O7 O 1.00421 0.76107 0.12493 0.0
O8 O 0.30029 0.67838 0.05855 0.0
O9 O 0.17958 0.76167 0.03962 0.0
O10 O 1.00404 0.63763 -0.01148 0.0
O11 O 0.12807 0.55811 0.00522 0.0
C12 C 0.06867 0.76315 0.16652 0.0
C13 C 0.05581 0.57314 -0.02782 0.0
C14 C 1.01539 0.05581 -0.02783 0.0
C15 C 0.82536 0.06872 0.16652 0.0
O16 O 1.03042 0.12808 0.00522 0.0
Zn17 Zn 0.97247 0.19218 0.08959 0.0
O18 O 0.9509 1.00404 -0.01147 0.0
Zn19 Zn 0.91034 0.06594 0.06648 0.0
O20 O 0.82687 0.17961 0.03961 0.0
O21 O 0.91017 0.30031 0.05852 0.0
O22 O 0.82744 1.00424 0.12493 0.0
O23 O 0.8723 0.14056 0.15768 0.0
O24 O 0.07423 0.19955 0.15288 0.0
O25 O 1.02178 0.06211 0.13305 0.0
C26 C 0.83533 0.26583 0.04039 0.0
C27 C 0.07545 0.11482 0.16423 0.0
C28 C 0.5198 0.82542 0.16653 0.0
C29 C 0.53271 1.01541 -0.02782 0.0
O30 O 0.44795 0.87235 0.15769 0.0
Zn31 Zn 0.39633 0.9725 0.0896 0.0
O32 O 0.58427 0.82749 0.12494 0.0
Zn33 Zn 0.52257 0.91037 0.06649 0.0
O34 O 0.5264 1.02183 0.13304 0.0
O35 O 0.38897 0.07427 0.15288 0.0
O36 O 0.58447 0.95092 -0.01147 0.0
O37 O 0.46044 1.03045 0.00522 0.0
O38 O 0.2882 0.9102 0.05854 0.0
O39 O 0.40891 0.8269 0.03962 0.0
C40 C 0.47371 0.07554 0.1642 0.0
C41 C 0.32269 0.83537 0.04041 0.0
C42 C 0.57313 0.53273 -0.02783 0.0
C43 C 0.76316 0.51981 0.16651 0.0
O44 O 0.5581 0.46047 0.00521 0.0
Zn45 Zn 0.61604 0.39636 0.08959 0.0
O46 O 0.63763 0.58449 -0.01148 0.0
Zn47 Zn 0.67818 0.52259 0.06647 0.0
O48 O 0.76164 0.40892 0.0396 0.0
O49 O 0.67833 0.28821 0.05853 0.0
O50 O 0.76109 0.58428 0.12492 0.0
O51 O 0.71621 0.44797 0.15768 0.0
O52 O 0.51428 0.389 0.15288 0.0
O53 O 0.56676 0.52644 0.13304 0.0
C54 C 0.75316 0.3227 0.04039 0.0
C55 C 0.51307 0.47374 0.16422 0.0
C56 C 0.11479 0.07552 0.22391 0.0
C57 C 0.26579 0.83532 0.34768 0.0
O58 O 0.06208 1.02182 0.25507 0.0
Zn59 Zn 0.06591 0.91036 0.32161 0.0
O60 O 0.19954 0.07425 0.2352 0.0
Zn61 Zn 0.19216 0.97248 0.29849 0.0
O62 O 0.14052 0.87233 0.2304 0.0
O63 O 1.0042 0.82747 0.26316 0.0
O64 O 0.30028 0.91016 0.32955 0.0
O65 O 0.17957 0.82687 0.34847 0.0
O66 O 1.00403 0.95091 0.39957 0.0
O67 O 0.12806 1.03044 0.38287 0.0
C68 C 0.06867 0.82541 0.22156 0.0
C69 C 0.0558 1.0154 0.41592 0.0
C70 C 0.57311 0.05582 0.41591 0.0
C71 C 0.76312 0.06872 0.22156 0.0
O72 O 0.55808 0.12808 0.38287 0.0
Zn73 Zn 0.61604 0.19219 0.29849 0.0
O74 O 0.63761 1.00406 0.39957 0.0
Zn75 Zn 0.67816 0.06595 0.32161 0.0
O76 O 0.76164 0.17961 0.34847 0.0
O77 O 0.67835 0.30032 0.32956 0.0
O78 O 0.76105 1.00424 0.26316 0.0
O79 O 0.71619 0.14057 0.2304 0.0
O80 O 0.51427 0.19958 0.23521 0.0
O81 O 0.56672 0.06212 0.25505 0.0
C82 C 0.75319 0.26584 0.34769 0.0
C83 C 0.51305 0.11484 0.22388 0.0
C84 C 0.53271 0.57314 0.41592 0.0
C85 C 0.5198 0.76317 0.22158 0.0
O86 O 0.46046 0.5581 0.38287 0.0
Zn87 Zn 0.39634 0.61605 0.29849 0.0
O88 O 0.58446 0.63765 0.39958 0.0
Zn89 Zn 0.52257 0.6782 0.32162 0.0
O90 O 0.40889 0.76165 0.34848 0.0
O91 O 0.2882 0.67833 0.32955 0.0
O92 O 0.58426 0.76111 0.26318 0.0
O93 O 0.44796 0.71622 0.23041 0.0
O94 O 0.38899 0.51428 0.2352 0.0
O95 O 0.52643 0.56676 0.25506 0.0
C96 C 0.32268 0.75316 0.34769 0.0
C97 C 0.47374 0.51307 0.22389 0.0
C98 C 1.0154 0.53272 0.41591 0.0
C99 C 0.8254 0.51981 0.22156 0.0
O100 O 1.03044 0.46046 0.38287 0.0
Zn101 Zn 0.97249 0.39635 0.29849 0.0
O102 O 0.9509 0.58448 0.39957 0.0
Zn103 Zn 0.91035 0.52259 0.32161 0.0
O104 O 0.82688 0.40893 0.34847 0.0
O105 O 0.91019 0.28821 0.32956 0.0
O106 O 0.82746 0.58429 0.26315 0.0
O107 O 0.87233 0.44796 0.2304 0.0
O108 O 0.07425 0.38897 0.23521 0.0
O109 O 1.02179 0.52643 0.25505 0.0
C110 C 0.83536 0.32271 0.34769 0.0
C111 C 0.07547 0.47372 0.22388 0.0
C112 C 1.01983 0.32536 0.72159 0.0
C113 C 1.03272 0.5154 0.91592 0.0
O114 O 0.0843 0.32744 0.76318 0.0
Zn115 Zn 1.02259 0.41034 0.82162 0.0
O116 O 0.94798 0.3723 0.73042 0.0
Zn117 Zn 0.89636 0.47247 0.7985 0.0
O118 O 0.889 0.57424 0.73521 0.0
O119 O 1.02643 0.52177 0.75505 0.0
O120 O 0.96046 0.53043 0.88287 0.0
O121 O 0.08448 0.4509 0.89958 0.0
O122 O 0.90892 0.32687 0.84848 0.0
O123 O 0.78823 0.41017 0.82956 0.0
C124 C 0.97373 0.57545 0.72387 0.0
C125 C 0.8227 0.33533 0.8477 0.0
C126 C 1.01305 0.97371 0.72386 0.0
C127 C 0.25318 0.82271 0.84769 0.0
O128 O 1.01428 0.88897 0.73521 0.0
Zn129 Zn 0.11604 0.89636 0.7985 0.0
O130 O 0.06672 1.02642 0.75503 0.0
Zn131 Zn 0.17816 1.0226 0.8216 0.0
O132 O 0.26105 0.0843 0.76316 0.0
O133 O 0.2162 0.94798 0.7304 0.0
O134 O 0.26164 0.90894 0.84847 0.0
O135 O 0.17835 0.78823 0.82956 0.0
O136 O 0.05808 0.96046 0.88287 0.0
O137 O 0.1376 0.08449 0.89956 0.0
C138 C 0.26313 1.01983 0.72157 0.0
C139 C 0.07311 1.03273 0.91591 0.0
C140 C 0.56873 0.26317 0.72158 0.0
C141 C 0.5558 0.07314 0.91592 0.0
O142 O 0.50425 0.2611 0.76317 0.0
Zn143 Zn 0.56594 0.17819 0.82162 0.0
O144 O 0.64057 0.21622 0.73041 0.0
Zn145 Zn 0.69217 0.11605 0.7985 0.0
O146 O 0.69952 1.01428 0.73521 0.0
O147 O 0.5621 0.06676 0.75505 0.0
O148 O 0.62806 0.0581 0.88288 0.0
O149 O 0.50404 0.13764 0.89957 0.0
O150 O 0.67961 0.26165 0.84849 0.0
O151 O 0.80032 0.17833 0.82957 0.0
C152 C 0.61479 1.01307 0.72387 0.0
C153 C 0.76583 0.25316 0.8477 0.0
C154 C 0.32537 0.56874 0.72158 0.0
C155 C 0.51539 0.55582 0.91592 0.0
O156 O 0.32745 0.50426 0.76317 0.0
Zn157 Zn 0.41034 0.56596 0.82161 0.0
O158 O 0.37231 0.64058 0.73041 0.0
Zn159 Zn 0.47248 0.6922 0.7985 0.0
O160 O 0.57424 0.69956 0.73521 0.0
O161 O 0.52177 0.56212 0.75505 0.0
O162 O 0.53043 0.62809 0.88287 0.0
O163 O 0.4509 0.50406 0.89957 0.0
O164 O 0.32688 0.67962 0.84848 0.0
O165 O 0.41018 0.80034 0.82956 0.0
C166 C 0.57546 0.61482 0.72387 0.0
C167 C 0.33536 0.76584 0.8477 0.0
C168 C 1.03271 0.07314 0.47217 0.0
C169 C 1.01984 0.26311 0.66654 0.0
O170 O 0.08448 0.13763 0.48852 0.0
Zn171 Zn 1.0226 0.17818 0.56648 0.0
O172 O 0.96045 0.05811 0.50522 0.0
Zn173 Zn 0.89635 0.11605 0.5896 0.0
O174 O 0.78823 0.17839 0.55854 0.0
O175 O 0.90894 0.26167 0.53963 0.0
O176 O 0.94799 0.21619 0.6577 0.0
O177 O 0.0843 0.26105 0.62495 0.0
O178 O 1.02642 0.0667 0.63302 0.0
O179 O 0.88897 1.01428 0.65288 0.0
C180 C 0.82272 0.25322 0.54041 0.0
C181 C 0.97372 1.01301 0.66418 0.0
C182 C 0.57546 0.97374 0.6642 0.0
C183 C 0.33533 0.82271 0.5404 0.0
O184 O 0.57424 0.889 0.65288 0.0
Zn185 Zn 0.47247 0.89637 0.5896 0.0
O186 O 0.52177 1.02645 0.63303 0.0
Zn187 Zn 0.41033 1.0226 0.56647 0.0
O188 O 0.32744 0.0843 0.62492 0.0
O189 O 0.37232 0.94799 0.65769 0.0
O190 O 0.32686 0.90893 0.53962 0.0
O191 O 0.41016 0.78823 0.55854 0.0
O192 O 0.53042 0.96047 0.50522 0.0
O193 O 0.45088 0.08449 0.48851 0.0
C194 C 0.32538 1.01983 0.66652 0.0
C195 C 0.51538 1.03273 0.47217 0.0
C196 C 0.56873 0.3254 0.66653 0.0
C197 C 0.55581 0.51541 0.47217 0.0
O198 O 0.50426 0.32746 0.62493 0.0
Zn199 Zn 0.56595 0.41036 0.56648 0.0
O200 O 0.64057 0.37235 0.65769 0.0
Zn201 Zn 0.69218 0.47251 0.5896 0.0
O202 O 0.69953 0.57429 0.65289 0.0
O203 O 0.56209 0.5218 0.63303 0.0
O204 O 0.62806 0.53045 0.50522 0.0
O205 O 0.50406 0.4509 0.48852 0.0
O206 O 0.67962 0.3269 0.53962 0.0
O207 O 0.80032 0.41022 0.55854 0.0
C208 C 0.61479 0.57549 0.6642 0.0
C209 C 0.76584 0.33539 0.54041 0.0
C210 C 0.26314 0.56873 0.66652 0.0
C211 C 0.07314 0.55581 0.47217 0.0
O212 O 0.26108 0.50426 0.62493 0.0
Zn213 Zn 0.17818 0.56594 0.56647 0.0
O214 O 0.21619 0.64057 0.65768 0.0
Zn215 Zn 0.11603 0.69218 0.5896 0.0
O216 O 1.01426 0.69954 0.65288 0.0
O217 O 0.06674 0.56209 0.63303 0.0
O218 O 0.05809 0.62807 0.50522 0.0
O219 O 0.13763 0.50405 0.48851 0.0
O220 O 0.26164 0.67962 0.53961 0.0
O221 O 0.17833 0.80033 0.55853 0.0
C222 C 1.01306 0.61479 0.6642 0.0
C223 C 0.25316 0.76584 0.5404 0.0
loop_
_geom_bond_atom_site_label_1
_geom_bond_atom_site_label_2
_geom_bond_distance
_geom_bond_site_symmetry_2
_ccdc_geom_bond_type
C0 O2 1.247 . S
C0 O4 1.258 1_655 S
C1 O8 1.247 . S
C1 O9 1.258 . S
O2 C0 1.247 . S
O2 Zn3 2.028 1_655 S
Zn3 O2 2.028 1_455 S
Zn3 O7 2.035 . S
Zn3 O9 2.035 . S
Zn3 O10 2.028 . S
O4 C0 1.258 1_455 S
O4 Zn5 2.035 . S
Zn5 O4 2.035 . S
Zn5 O6 2.028 . S
Zn5 O8 2.028 . S
Zn5 O11 2.035 . S
O6 Zn5 2.028 . S
O6 C12 1.247 . S
O7 Zn3 2.035 . S
O7 C12 1.258 . S
O8 C1 1.247 . S
O8 Zn5 2.028 . S
O9 C1 1.258 . S
O9 Zn3 2.035 . S
O10 Zn3 2.028 . S
O10 C13 1.247 . S
O11 Zn5 2.035 . S
O11 C13 1.258 . S
C12 O6 1.247 . S
C12 O7 1.258 . S
C13 O10 1.247 . S
C13 O11 1.258 . S
C14 O16 1.247 . S
C14 O18 1.258 . S
C15 O22 1.247 . S
C15 O23 1.258 . S
O16 C14 1.247 . S
O16 Zn17 2.028 . S
Zn17 O16 2.028 . S
Zn17 O21 2.035 . S
Zn17 O23 2.035 . S
Zn17 O24 2.028 . S
O18 C14 1.258 . S
O18 Zn19 2.035 . S
Zn19 O18 2.035 . S
Zn19 O20 2.028 . S
Zn19 O22 2.028 . S
Zn19 O25 2.035 1_545 S
O20 Zn19 2.028 . S
O20 C26 1.247 . S
O21 Zn17 2.035 . S
O21 C26 1.258 . S
O22 C15 1.247 . S
O22 Zn19 2.028 . S
O23 C15 1.258 . S
O23 Zn17 2.035 . S
O24 Zn17 2.028 . S
O24 C27 1.247 1_545 S
O25 Zn19 2.035 1_565 S
O25 C27 1.258 . S
C26 O20 1.247 . S
C26 O21 1.258 . S
C27 O24 1.247 1_565 S
C27 O25 1.258 . S
C28 O30 1.247 . S
C28 O32 1.258 . S
C29 O36 1.247 . S
C29 O37 1.258 . S
O30 C28 1.247 . S
O30 Zn31 2.028 . S
Zn31 O30 2.028 . S
Zn31 O35 2.035 . S
Zn31 O37 2.035 . S
Zn31 O38 2.028 . S
O32 C28 1.258 . S
O32 Zn33 2.035 . S
Zn33 O32 2.035 . S
Zn33 O34 2.028 . S
Zn33 O36 2.028 . S
Zn33 O39 2.035 . S
O34 Zn33 2.028 . S
O34 C40 1.247 . S
O35 Zn31 2.035 . S
O35 C40 1.258 . S
O36 C29 1.247 . S
O36 Zn33 2.028 . S
O37 C29 1.258 . S
O37 Zn31 2.035 . S
O38 Zn31 2.028 . S
O38 C41 1.247 . S
O39 Zn33 2.035 . S
O39 C41 1.258 . S
C40 O34 1.247 . S
C40 O35 1.258 . S
C41 O38 1.247 . S
C41 O39 1.258 . S
C42 O44 1.247 . S
C42 O46 1.258 . S
C43 O50 1.247 . S
C43 O51 1.258 . S
O44 C42 1.247 . S
O44 Zn45 2.028 . S
Zn45 O44 2.028 . S
Zn45 O49 2.035 . S
Zn45 O51 2.035 . S
Zn45 O52 2.028 . S
O46 C42 1.258 . S
O46 Zn47 2.035 . S
Zn47 O46 2.035 . S
Zn47 O48 2.028 . S
Zn47 O50 2.028 . S
Zn47 O53 2.035 . S
O48 Zn47 2.028 . S
O48 C54 1.247 . S
O49 Zn45 2.035 . S
O49 C54 1.258 . S
O50 C43 1.247 . S
O50 Zn47 2.028 . S
O51 C43 1.258 . S
O51 Zn45 2.035 . S
O52 Zn45 2.028 . S
O52 C55 1.247 . S
O53 Zn47 2.035 . S
O53 C55 1.258 . S
C54 O48 1.247 . S
C54 O49 1.258 . S
C55 O52 1.247 . S
C55 O53 1.258 . S
C56 O58 1.247 . S
C56 O60 1.258 1_655 S
C57 O64 1.247 . S
C57 O65 1.258 . S
O58 C56 1.247 . S
O58 Zn59 2.028 1_655 S
Zn59 O58 2.028 1_455 S
Zn59 O63 2.035 . S
Zn59 O65 2.035 . S
Zn59 O66 2.028 . S
O60 C56 1.258 1_455 S
O60 Zn61 2.035 . S
Zn61 O60 2.035 . S
Zn61 O62 2.028 . S
Zn61 O64 2.028 . S
Zn61 O67 2.035 . S
O62 Zn61 2.028 . S
O62 C68 1.247 . S
O63 Zn59 2.035 . S
O63 C68 1.258 . S
O64 C57 1.247 . S
O64 Zn61 2.028 . S
O65 C57 1.258 . S
O65 Zn59 2.035 . S
O66 Zn59 2.028 . S
O66 C69 1.247 . S
O67 Zn61 2.035 . S
O67 C69 1.258 . S
C68 O62 1.247 . S
C68 O63 1.258 . S
C69 O66 1.247 . S
C69 O67 1.258 . S
C70 O72 1.247 . S
C70 O74 1.258 . S
C71 O78 1.247 . S
C71 O79 1.258 . S
O72 C70 1.247 . S
O72 Zn73 2.028 . S
Zn73 O72 2.028 . S
Zn73 O77 2.035 . S
Zn73 O79 2.035 . S
Zn73 O80 2.028 . S
O74 C70 1.258 . S
O74 Zn75 2.035 . S
Zn75 O74 2.035 . S
Zn75 O76 2.028 . S
Zn75 O78 2.028 . S
Zn75 O81 2.035 1_545 S
O76 Zn75 2.028 . S
O76 C82 1.247 . S
O77 Zn73 2.035 . S
O77 C82 1.258 . S
O78 C71 1.247 . S
O78 Zn75 2.028 . S
O79 C71 1.258 . S
O79 Zn73 2.035 . S
O80 Zn73 2.028 . S
O80 C83 1.247 1_545 S
O81 Zn75 2.035 1_565 S
O81 C83 1.258 . S
C82 O76 1.247 . S
C82 O77 1.258 . S
C83 O80 1.247 1_565 S
C83 O81 1.258 . S
C84 O86 1.247 . S
C84 O88 1.258 . S
C85 O92 1.247 . S
C85 O93 1.258 . S
O86 C84 1.247 . S
O86 Zn87 2.028 . S
Zn87 O86 2.028 . S
Zn87 O91 2.035 . S
Zn87 O93 2.035 . S
Zn87 O94 2.028 . S
O88 C84 1.258 . S
O88 Zn89 2.035 . S
Zn89 O88 2.035 . S
Zn89 O90 2.028 . S
Zn89 O92 2.028 . S
Zn89 O95 2.035 . S
O90 Zn89 2.028 . S
O90 C96 1.247 . S
O91 Zn87 2.035 . S
O91 C96 1.258 . S
O92 C85 1.247 . S
O92 Zn89 2.028 . S
O93 C85 1.258 . S
O93 Zn87 2.035 . S
O94 Zn87 2.028 . S
O94 C97 1.247 . S
O95 Zn89 2.035 . S
O95 C97 1.258 . S
C96 O90 1.247 . S
C96 O91 1.258 . S
C97 O94 1.247 . S
C97 O95 1.258 . S
C98 O100 1.247 . S
C98 O102 1.258 . S
C99 O106 1.247 . S
C99 O107 1.258 . S
O100 C98 1.247 . S
O100 Zn101 2.028 . S
Zn101 O100 2.028 . S
Zn101 O105 2.035 . S
Zn101 O107 2.035 . S
Zn101 O108 2.028 . S
O102 C98 1.258 . S
O102 Zn103 2.035 . S
Zn103 O102 2.035 . S
Zn103 O104 2.028 . S
Zn103 O106 2.028 . S
Zn103 O109 2.035 . S
O104 Zn103 2.028 . S
O104 C110 1.247 . S
O105 Zn101 2.035 . S
O105 C110 1.258 . S
O106 C99 1.247 . S
O106 Zn103 2.028 . S
O107 C99 1.258 . S
O107 Zn101 2.035 . S
O108 Zn101 2.028 . S
O108 C111 1.247 . S
O109 Zn103 2.035 . S
O109 C111 1.258 . S
C110 O104 1.247 . S
C110 O105 1.258 . S
C111 O108 1.247 . S
C111 O109 1.258 . S
C112 O114 1.247 . S
C112 O116 1.258 . S
C113 O120 1.247 . S
C113 O121 1.258 . S
O114 C112 1.247 . S
O114 Zn115 2.028 . S
Zn115 O114 2.028 . S
Zn115 O119 2.035 1_655 S
Zn115 O121 2.035 . S
Zn115 O122 2.028 . S
O116 C112 1.258 . S
O116 Zn117 2.035 . S
Zn117 O116 2.035 . S
Zn117 O118 2.028 . S
Zn117 O120 2.028 . S
Zn117 O123 2.035 . S
O118 Zn117 2.028 . S
O118 C124 1.247 1_655 S
O119 Zn115 2.035 1_455 S
O119 C124 1.258 . S
O120 C113 1.247 . S
O120 Zn117 2.028 . S
O121 C113 1.258 . S
O121 Zn115 2.035 . S
O122 Zn115 2.028 . S
O122 C125 1.247 . S
O123 Zn117 2.035 . S
O123 C125 1.258 . S
C124 O118 1.247 1_455 S
C124 O119 1.258 . S
C125 O122 1.247 . S
C125 O123 1.258 . S
C126 O128 1.247 1_545 S
C126 O130 1.258 . S
C127 O134 1.247 . S
C127 O135 1.258 . S
O128 C126 1.247 1_565 S
O128 Zn129 2.028 . S
Zn129 O128 2.028 . S
Zn129 O133 2.035 . S
Zn129 O135 2.035 . S
Zn129 O136 2.028 . S
O130 C126 1.258 . S
O130 Zn131 2.035 1_545 S
Zn131 O130 2.035 1_565 S
Zn131 O132 2.028 . S
Zn131 O134 2.028 . S
Zn131 O137 2.035 . S
O132 Zn131 2.028 . S
O132 C138 1.247 . S
O133 Zn129 2.035 . S
O133 C138 1.258 . S
O134 C127 1.247 . S
O134 Zn131 2.028 . S
O135 C127 1.258 . S
O135 Zn129 2.035 . S
O136 Zn129 2.028 . S
O136 C139 1.247 . S
O137 Zn131 2.035 . S
O137 C139 1.258 . S
C138 O132 1.247 . S
C138 O133 1.258 . S
C139 O136 1.247 . S
C139 O137 1.258 . S
C140 O142 1.247 . S
C140 O144 1.258 . S
C141 O148 1.247 . S
C141 O149 1.258 . S
O142 C140 1.247 . S
O142 Zn143 2.028 . S
Zn143 O142 2.028 . S
Zn143 O147 2.035 . S
Zn143 O149 2.035 . S
Zn143 O150 2.028 . S
O144 C140 1.258 . S
O144 Zn145 2.035 . S
Zn145 O144 2.035 . S
Zn145 O146 2.028 . S
Zn145 O148 2.028 . S
Zn145 O151 2.035 . S
O146 Zn145 2.028 . S
O146 C152 1.247 . S
O147 Zn143 2.035 . S
O147 C152 1.258 . S
O148 C141 1.247 . S
O148 Zn145 2.028 . S
O149 C141 1.258 . S
O149 Zn143 2.035 . S
O150 Zn143 2.028 . S
O150 C153 1.247 . S
O151 Zn145 2.035 . S
O151 C153 1.258 . S
C152 O146 1.247 . S
C152 O147 1.258 . S
C153 O150 1.247 . S
C153 O151 1.258 . S
C154 O156 1.247 . S
C154 O158 1.258 . S
C155 O162 1.247 . S
C155 O163 1.258 . S
O156 C154 1.247 . S
O156 Zn157 2.028 . S
Zn157 O156 2.028 . S
Zn157 O161 2.035 . S
Zn157 O163 2.035 . S
Zn157 O164 2.028 . S
O158 C154 1.258 . S
O158 Zn159 2.035 . S
Zn159 O158 2.035 . S
Zn159 O160 2.028 . S
Zn159 O162 2.028 . S
Zn159 O165 2.035 . S
O160 Zn159 2.028 . S
O160 C166 1.247 . S
O161 Zn157 2.035 . S
O161 C166 1.258 . S
O162 C155 1.247 . S
O162 Zn159 2.028 . S
O163 C155 1.258 . S
O163 Zn157 2.035 . S
O164 Zn157 2.028 . S
O164 C167 1.247 . S
O165 Zn159 2.035 . S
O165 C167 1.258 . S
C166 O160 1.247 . S
C166 O161 1.258 . S
C167 O164 1.247 . S
C167 O165 1.258 . S
C168 O170 1.247 . S
C168 O172 1.258 . S
C169 O176 1.247 . S
C169 O177 1.258 . S
O170 C168 1.247 . S
O170 Zn171 2.028 . S
Zn171 O170 2.028 . S
Zn171 O175 2.035 . S
Zn171 O177 2.035 . S
Zn171 O178 2.028 1_655 S
O172 C168 1.258 . S
O172 Zn173 2.035 . S
Zn173 O172 2.035 . S
Zn173 O174 2.028 . S
Zn173 O176 2.028 . S
Zn173 O179 2.035 . S
O174 Zn173 2.028 . S
O174 C180 1.247 . S
O175 Zn171 2.035 . S
O175 C180 1.258 . S
O176 C169 1.247 . S
O176 Zn173 2.028 . S
O177 C169 1.258 . S
O177 Zn171 2.035 . S
O178 Zn171 2.028 1_455 S
O178 C181 1.247 . S
O179 Zn173 2.035 . S
O179 C181 1.258 1_655 S
C180 O174 1.247 . S
C180 O175 1.258 . S
C181 O178 1.247 . S
C181 O179 1.258 1_455 S
C182 O184 1.247 1_545 S
C182 O186 1.258 . S
C183 O190 1.247 . S
C183 O191 1.258 . S
O184 C182 1.247 1_565 S
O184 Zn185 2.028 . S
Zn185 O184 2.028 . S
Zn185 O189 2.035 . S
Zn185 O191 2.035 . S
Zn185 O192 2.028 . S
O186 C182 1.258 . S
O186 Zn187 2.035 1_545 S
Zn187 O186 2.035 1_565 S
Zn187 O188 2.028 . S
Zn187 O190 2.028 . S
Zn187 O193 2.035 . S
O188 Zn187 2.028 . S
O188 C194 1.247 . S
O189 Zn185 2.035 . S
O189 C194 1.258 . S
O190 C183 1.247 . S
O190 Zn187 2.028 . S
O191 C183 1.258 . S
O191 Zn185 2.035 . S
O192 Zn185 2.028 . S
O192 C195 1.247 . S
O193 Zn187 2.035 . S
O193 C195 1.258 . S
C194 O188 1.247 . S
C194 O189 1.258 . S
C195 O192 1.247 . S
C195 O193 1.258 . S
C196 O198 1.247 . S
C196 O200 1.258 . S
C197 O204 1.247 . S
C197 O205 1.258 . S
O198 C196 1.247 . S
O198 Zn199 2.028 . S
Zn199 O198 2.028 . S
Zn199 O203 2.035 . S
Zn199 O205 2.035 . S
Zn199 O206 2.028 . S
O200 C196 1.258 . S
O200 Zn201 2.035 . S
Zn201 O200 2.035 . S
Zn201 O202 2.028 . S
Zn201 O204 2.028 . S
Zn201 O207 2.035 . S
O202 Zn201 2.028 . S
O202 C208 1.247 . S
O203 Zn199 2.035 . S
O203 C208 1.258 . S
O204 C197 1.247 . S
O204 Zn201 2.028 . S
O205 C197 1.258 . S
O205 Zn199 2.035 . S
O206 Zn199 2.028 . S
O206 C209 1.247 . S
O207 Zn201 2.035 . S
O207 C209 1.258 . S
C208 O202 1.247 . S
C208 O203 1.258 . S
C209 O206 1.247 . S
C209 O207 1.258 . S
C210 O212 1.247 . S
C210 O214 1.258 . S
C211 O218 1.247 . S
C211 O219 1.258 . S
O212 C210 1.247 . S
O212 Zn213 2.028 . S
Zn213 O212 2.028 . S
Zn213 O217 2.035 . S
Zn213 O219 2.035 . S
Zn213 O220 2.028 . S
O214 C210 1.258 . S
O214 Zn215 2.035 . S
Zn215 O214 2.035 . S
Zn215 O216 2.028 . S
Zn215 O218 2.028 . S
Zn215 O221 2.035 . S
O216 Zn215 2.028 . S
O216 C222 1.247 . S
O217 Zn213 2.035 . S
O217 C222 1.258 . S
O218 C211 1.247 . S
O218 Zn215 2.028 . S
O219 C211 1.258 . S
O219 Zn213 2.035 . S
O220 Zn213 2.028 . S
O220 C223 1.247 . S
O221 Zn215 2.035 . S
O221 C223 1.258 . S
C222 O216 1.247 . S
C222 O217 1.258 . S
C223 O220 1.247 . S
C223 O221 1.258 . S
C1 C41 2.194 . S
C26 C54 2.201 . S
C57 C96 2.197 . S
C110 C82 2.201 . S
C125 C153 2.201 . S
C167 C127 2.201 . S
C209 C180 2.197 . S
C223 C183 2.201 . S
C111 C0 2.252 . S
C27 C56 2.252 . S
C83 C40 2.252 . S
C55 C97 2.247 . S
C222 C124 2.248 . S
C126 C181 2.252 . S
C152 C182 2.248 . S
C208 C166 2.247 . S
C12 C68 0.646 . S
C15 C71 0.648 . S
C85 C28 0.647 . S
C43 C99 0.648 . S
C169 C112 0.647 . S
C194 C138 0.648 . S
C140 C196 0.648 . S
C154 C210 0.648 . S
C13 C113 2.204 1_454 S
C139 C14 2.208 1_466 S
C29 C141 2.204 1_564 S
C155 C42 2.208 1_556 S
C69 C168 2.201 1_465 S
C70 C195 2.207 1_545 S
C197 C84 2.208 . S
C98 C211 2.208 1_655 S
