# Generated by pormake.
# Topology pcu, (6)-cn, num edge types: 1
# Building blocks:
#     Node 0, Type 0, BuildingBlock: KUMJIN_clean_sbu_0, # of connection points: 6
#     Edge 1, Type (0, 0), BuildingBlock: KIFKEQ_clean_linker_1, # of connection points: 2
#     Edge 2, Type (0, 0), BuildingBlock: KIFKEQ_clean_linker_1, # of connection points: 2
#     Edge 3, Type (0, 0), BuildingBlock: KIFKEQ_clean_linker_1, # of connection points: 2
# Relax obj value: 0.000
# Max RMSD: 0.000
# Mean RMSD: 0.000
data_MOF--net-pcu--node1-KUMJIN_clean_sbu_0--edge1-KIFKEQ_clean_linker_1
_symmetry_space_group_name_H-M    P1
_symmetry_Int_Tables_number       1
_symmetry_cell_setting            triclinic
loop_
_symmetry_equiv_pos_as_xyz
'x, y, z'
_cell_length_a     14.268722
_cell_length_b     24.707601
_cell_length_c     15.530583
_cell_angle_alpha  115.10145
_cell_angle_beta   75.194079
_cell_angle_gamma 115.69732
loop_
_atom_site_label
_atom_site_type_symbol
_atom_site_fract_x
_atom_site_fract_y
_atom_site_fract_z
_atom_type_partial_charge
Eu0 Eu 0.09835 0.08917 0.03931 0.0
C1 C 0.77862 0.82339 0.81239 0.0
C2 C 0.61164 0.82229 0.90065 0.0
C3 C 0.62069 0.76406 0.72925 0.0
C4 C 0.72102 0.84314 0.89763 0.0
C5 C 0.72883 0.78212 0.72766 0.0
C6 C 0.5622 0.78424 0.8156 0.0
C7 C 0.89472 0.7747 0.64842 0.0
N8 N 0.8827 0.84128 0.81357 0.0
C9 C 0.94057 0.81588 0.73424 0.0
C10 C 0.78868 0.75852 0.64472 0.0
Eu11 Eu 0.95528 0.91229 0.96054 0.0
N12 N 0.77104 0.87893 0.9786 0.0
C13 C 0.71549 0.89096 0.06576 0.0
C14 C 0.55488 0.83817 0.98946 0.0
C15 C 0.60687 0.87152 0.07249 0.0
H16 H 1.02269 0.82863 0.73667 0.0
H17 H 0.56346 0.88271 0.14169 0.0
H18 H 0.4784 0.7684 0.81634 0.0
H19 H 0.94122 0.75571 0.58518 0.0
H20 H 0.75489 0.91715 0.13039 0.0
H21 H 0.48092 0.11364 0.83856 0.0
H22 H 0.47078 0.82322 0.99487 0.0
H23 H 0.04029 0.16674 0.26923 0.0
H24 H 0.28948 0.07808 0.85967 0.0
H25 H 0.13036 0.23895 0.4167 0.0
H26 H 0.58114 0.733 0.66467 0.0
H27 H 0.58383 0.18004 0.97899 0.0
H28 H 0.58716 0.23888 0.1563 0.0
H29 H 0.75332 0.72657 0.57821 0.0
H30 H 0.49201 0.27276 0.31344 0.0
N31 N 0.28257 0.12254 0.0112 0.0
C32 C 0.33282 0.10713 0.92181 0.0
C33 C 0.49951 0.16462 0.98883 0.0
C34 C 0.44793 0.18267 0.07986 0.0
C35 C 0.4417 0.12719 0.9094 0.0
C36 C 0.33798 0.16097 0.08879 0.0
H37 H 0.3219 0.27341 0.41113 0.0
N38 N 0.17924 0.15948 0.1825 0.0
C39 C 0.17465 0.2225 0.34989 0.0
C40 C 0.28463 0.17986 0.17716 0.0
C41 C 0.12399 0.18184 0.26645 0.0
C42 C 0.28275 0.24175 0.34645 0.0
C43 C 0.33936 0.22115 0.25917 0.0
O44 O 0.04959 0.17051 0.08349 0.0
O45 O 0.94691 0.00805 0.00114 0.0
O46 O 0.96057 0.94266 0.84041 0.0
O47 O 0.10186 0.04111 0.87645 0.0
O48 O 0.93852 0.08818 0.11598 0.0
O49 O 0.14334 0.14599 0.94951 0.0
O50 O 1.01383 0.83715 0.93045 0.0
O51 O 0.10717 0.99354 -9e-05 0.0
O52 O 0.09437 0.05661 0.15614 0.0
O53 O 0.94738 0.9613 0.12384 0.0
O54 O 0.11484 0.91318 0.88493 0.0
O55 O 0.89287 0.85029 0.04499 0.0
C56 C 0.884 0.0318 0.06128 0.0
C57 C 0.16184 0.25517 0.02825 0.0
C58 C 0.17648 0.35943 0.03503 0.0
C59 C 0.11741 0.29387 0.02128 0.0
C60 C 0.28075 0.38536 0.05693 0.0
C61 C 0.26541 0.2823 0.05088 0.0
C62 C 0.32432 0.34711 0.0653 0.0
C63 C 0.03219 0.99209 0.81788 0.0
C64 C 0.09973 0.18637 0.00961 0.0
C65 C 0.4486 0.24141 0.25115 0.0
C66 C 0.50277 0.22217 0.16167 0.0
C67 C 0.1699 0.9693 0.93993 0.0
C68 C 0.89423 0.74495 0.96309 0.0
C69 C 0.93474 0.70758 0.97899 0.0
C70 C 0.88751 0.63991 0.94368 0.0
C71 C 0.7987 0.61025 0.89304 0.0
C72 C 0.80493 0.71445 0.91327 0.0
C73 C 0.75746 0.64742 0.87856 0.0
C74 C 1.01938 0.00925 0.18101 0.0
C75 C 0.94882 0.81528 0.99463 0.0
H76 H 0.03669 0.27267 0.0054 0.0
H77 H 0.32967 0.43497 0.06596 0.0
H78 H 0.30103 0.25335 0.05644 0.0
H79 H 0.40457 0.36764 0.08197 0.0
H80 H 1.00434 0.73105 0.01675 0.0
H81 H 0.76057 0.55831 0.86551 0.0
H82 H 0.77234 0.74232 0.90069 0.0
H83 H 0.68876 0.62417 0.83988 0.0
H84 H 0.85537 0.94896 0.28699 0.0
H85 H 0.18377 0.06781 0.2887 0.0
H86 H 0.85747 0.9467 0.44176 0.0
H87 H 0.18822 0.06221 0.4396 0.0
H88 H 0.15241 0.08979 0.75028 0.0
H89 H 0.14495 0.09622 0.60095 0.0
H90 H 0.90787 0.90424 0.52004 0.0
H91 H 0.90906 0.90051 0.67301 0.0
C92 C 0.92818 0.97419 0.32023 0.0
C93 C 1.0192 0.00867 0.27584 0.0
C94 C 0.92985 0.97247 0.40873 0.0
C95 C 1.02322 0.00399 0.45396 0.0
C96 C 0.1142 0.0384 0.4088 0.0
C97 C 0.11191 0.0413 0.32154 0.0
C98 C 0.09861 0.04887 0.70074 0.0
C99 C 0.03231 0.99415 0.72366 0.0
C100 C 0.09486 0.05233 0.6142 0.0
C101 C 1.02619 0.00063 0.5471 0.0
C102 C 0.96069 0.94563 0.56989 0.0
C103 C 0.96275 0.94286 0.6574 0.0
H104 H 0.2667 0.04021 0.1071 0.0
H105 H 0.31086 0.92196 0.81369 0.0
H106 H 0.4386 0.05776 0.13418 0.0
H107 H 0.47685 0.93104 0.84264 0.0
H108 H 0.81176 0.99241 0.88964 0.0
H109 H 0.64478 0.98152 0.86039 0.0
H110 H 0.5472 0.02719 0.1629 0.0
H111 H 0.71936 0.04438 0.19123 0.0
C112 C 0.31376 0.01836 0.04793 0.0
C113 C 0.27679 0.98223 0.95712 0.0
C114 C 0.41229 0.02677 0.06398 0.0
C115 C 0.47471 0.99599 0.99096 0.0
C116 C 0.43506 0.95783 0.90071 0.0
C117 C 0.3385 0.95184 0.88391 0.0
C118 C 0.75403 0.99964 0.94955 0.0
C119 C 0.77783 0.01816 0.04256 0.0
C120 C 0.65696 0.99302 0.93298 0.0
C121 C 0.57938 0.00309 0.00882 0.0
C122 C 0.60385 0.02061 0.10199 0.0
C123 C 0.70249 0.02959 0.11869 0.0
H124 H 0.93922 0.65204 0.11044 0.0
H125 H 0.93374 0.53768 0.80976 0.0
H126 H 1.00422 0.58367 0.13527 0.0
H127 H 1.00343 0.47103 0.83282 0.0
H128 H 0.03576 0.32429 0.91039 0.0
H129 H 0.96314 0.39107 0.8927 0.0
H130 H 0.14753 0.55601 0.11278 0.0
H131 H 0.21321 0.48804 0.1361 0.0
C132 C 0.95332 0.61267 0.04949 0.0
C133 C 0.93111 0.59998 0.9583 0.0
C134 C 0.99104 0.57352 0.06345 0.0
C135 C 1.00915 0.52132 0.98617 0.0
C136 C 0.98832 0.50958 0.89463 0.0
C137 C 0.94901 0.54806 0.88107 0.0
C138 C 0.05937 0.37448 0.95652 0.0
C139 C 0.13078 0.40041 0.02474 0.0
C140 C 1.01895 0.41328 0.94513 0.0
C141 C 0.0498 0.47945 0.00061 0.0
C142 C 0.12066 0.50528 0.06927 0.0
C143 C 0.15991 0.46628 0.08162 0.0
loop_
_geom_bond_atom_site_label_1
_geom_bond_atom_site_label_2
_geom_bond_distance
_geom_bond_site_symmetry_2
_ccdc_geom_bond_type
Eu0 N31 2.657 1_554 S
Eu0 N38 2.609 . S
Eu0 O44 2.558 . S
Eu0 O45 2.612 1_444 S
Eu0 O47 2.339 1_554 S
Eu0 O48 2.563 1_455 S
Eu0 O49 2.419 . S
Eu0 O51 2.380 . S
Eu0 O52 2.432 1_455 S
Eu0 C64 2.848 . S
C1 C4 1.429 . S
C1 C5 1.411 . S
C1 N8 1.377 . S
C2 C4 1.420 . S
C2 C6 1.423 . S
C2 C14 1.392 1_556 S
C3 C5 1.420 . S
C3 C6 1.351 . S
C3 H26 0.931 . S
C4 C1 1.429 . S
C4 C2 1.420 . S
C4 N12 1.362 1_556 S
C5 C1 1.411 . S
C5 C3 1.420 . S
C5 C10 1.395 . S
C6 C2 1.423 . S
C6 C3 1.351 . S
C6 H18 0.930 . S
C7 C9 1.400 . S
C7 C10 1.386 . S
C7 H19 0.930 . S
N8 C1 1.377 . S
N8 C9 1.321 . S
N8 Eu11 2.609 . S
C9 C7 1.400 . S
C9 N8 1.321 . S
C9 H16 0.930 . S
C10 C5 1.395 . S
C10 C7 1.386 . S
C10 H29 0.930 . S
Eu11 N8 2.609 . S
Eu11 N12 2.657 1_556 S
Eu11 O45 2.380 . S
Eu11 O46 2.432 1_655 S
Eu11 O50 2.558 . S
Eu11 O51 2.612 1_666 S
Eu11 O53 2.339 1_556 S
Eu11 O54 2.563 1_655 S
Eu11 O55 2.419 . S
Eu11 C75 2.848 . S
N12 C4 1.362 1_554 S
N12 Eu11 2.657 1_554 S
N12 C13 1.334 . S
C13 N12 1.334 . S
C13 C15 1.413 . S
C13 H20 0.929 . S
C14 C2 1.392 1_554 S
C14 C15 1.367 . S
C14 H22 0.930 . S
C15 C13 1.413 . S
C15 C14 1.367 . S
C15 H17 0.930 . S
H16 C9 0.930 . S
H17 C15 0.930 . S
H18 C6 0.930 . S
H19 C7 0.930 . S
H20 C13 0.929 . S
H21 C35 0.930 . S
H22 C14 0.930 . S
H23 C41 0.930 . S
H24 C32 0.929 . S
H25 C39 0.930 . S
H26 C3 0.931 . S
H27 C33 0.930 . S
H28 C66 0.930 . S
H29 C10 0.930 . S
H30 C65 0.931 . S
N31 Eu0 2.657 1_556 S
N31 C32 1.334 . S
N31 C36 1.362 1_556 S
C32 H24 0.929 . S
C32 N31 1.334 . S
C32 C35 1.413 . S
C33 H27 0.930 . S
C33 C34 1.392 1_556 S
C33 C35 1.367 . S
C34 C33 1.392 1_554 S
C34 C36 1.420 . S
C34 C66 1.423 . S
C35 H21 0.930 . S
C35 C32 1.413 . S
C35 C33 1.367 . S
C36 N31 1.362 1_554 S
C36 C34 1.420 . S
C36 C40 1.429 . S
H37 C42 0.930 . S
N38 Eu0 2.609 . S
N38 C40 1.377 . S
N38 C41 1.321 . S
C39 H25 0.930 . S
C39 C41 1.400 . S
C39 C42 1.386 . S
C40 C36 1.429 . S
C40 N38 1.377 . S
C40 C43 1.411 . S
C41 H23 0.930 . S
C41 N38 1.321 . S
C41 C39 1.400 . S
C42 H37 0.930 . S
C42 C39 1.386 . S
C42 C43 1.395 . S
C43 C40 1.411 . S
C43 C42 1.395 . S
C43 C65 1.420 . S
O44 Eu0 2.558 . S
O44 C64 1.257 . S
O45 Eu0 2.612 1_666 S
O45 Eu11 2.380 . S
O45 C56 1.276 1_566 S
O46 Eu11 2.432 1_455 S
O46 C63 1.264 . S
O47 Eu0 2.339 1_556 S
O47 C63 1.254 1_545 S
O48 Eu0 2.563 1_655 S
O48 C56 1.235 . S
O49 Eu0 2.419 . S
O49 C64 1.249 . S
O50 Eu11 2.558 . S
O50 C75 1.257 . S
O51 Eu0 2.380 . S
O51 Eu11 2.612 1_444 S
O51 C67 1.276 1_544 S
O52 Eu0 2.432 1_655 S
O52 C74 1.264 . S
O53 Eu11 2.339 1_554 S
O53 C74 1.254 1_565 S
O54 Eu11 2.563 1_455 S
O54 C67 1.235 . S
O55 Eu11 2.419 . S
O55 C75 1.249 . S
C56 O45 1.276 1_544 S
C56 O48 1.235 . S
C57 C59 1.393 . S
C57 C61 1.395 . S
C57 C64 1.492 . S
C58 C59 1.392 . S
C58 C60 1.386 . S
C59 C57 1.393 . S
C59 C58 1.392 . S
C59 H76 0.930 1_554 S
C60 C58 1.386 . S
C60 C62 1.395 . S
C60 H77 0.930 . S
C61 C57 1.395 . S
C61 C62 1.379 . S
C61 H78 0.930 . S
C62 C60 1.395 . S
C62 C61 1.379 . S
C62 H79 0.930 . S
C63 O46 1.264 . S
C63 O47 1.254 1_565 S
C64 Eu0 2.848 . S
C64 O44 1.257 . S
C64 O49 1.249 . S
C64 C57 1.492 . S
C65 H30 0.931 . S
C65 C43 1.420 . S
C65 C66 1.351 . S
C66 H28 0.930 . S
C66 C34 1.423 . S
C66 C65 1.351 . S
C67 O51 1.276 1_566 S
C67 O54 1.235 . S
C68 C69 1.393 . S
C68 C72 1.395 . S
C68 C75 1.492 . S
C69 C68 1.393 . S
C69 C70 1.392 . S
C69 H80 0.930 1_556 S
C70 C69 1.392 . S
C70 C71 1.386 . S
C71 C70 1.386 . S
C71 C73 1.395 . S
C71 H81 0.930 . S
C72 C68 1.395 . S
C72 C73 1.379 . S
C72 H82 0.930 . S
C73 C71 1.395 . S
C73 C72 1.379 . S
C73 H83 0.930 . S
C74 O52 1.264 . S
C74 O53 1.254 1_545 S
C75 Eu11 2.848 . S
C75 O50 1.257 . S
C75 O55 1.249 . S
C75 C68 1.492 . S
H76 C59 0.930 1_556 S
H77 C60 0.930 . S
H78 C61 0.930 . S
H79 C62 0.930 . S
H80 C69 0.930 1_554 S
H81 C71 0.930 . S
H82 C72 0.930 . S
H83 C73 0.930 . S
H84 C92 0.950 . S
H85 C97 0.950 . S
H86 C94 0.950 . S
H87 C96 0.950 . S
H88 C98 0.950 . S
H89 C100 0.950 . S
H90 C102 0.950 . S
H91 C103 0.950 . S
C92 H84 0.950 . S
C92 C93 1.384 1_655 S
C92 C94 1.391 . S
C93 C92 1.384 1_455 S
C93 C97 1.395 1_565 S
C94 H86 0.950 . S
C94 C92 1.391 . S
C94 C95 1.394 1_655 S
C95 C94 1.394 1_455 S
C95 C96 1.396 1_565 S
C95 C101 1.500 1_565 S
C96 H87 0.950 . S
C96 C95 1.396 1_545 S
C96 C97 1.391 . S
C97 H85 0.950 . S
C97 C93 1.395 1_545 S
C97 C96 1.391 . S
C98 H88 0.950 . S
C98 C99 1.386 1_455 S
C98 C100 1.391 . S
C99 C98 1.386 1_655 S
C99 C103 1.392 1_545 S
C100 H89 0.950 . S
C100 C98 1.391 . S
C100 C101 1.400 . S
C101 C95 1.500 1_545 S
C101 C100 1.400 . S
C101 C102 1.398 1_445 S
C102 H90 0.950 . S
C102 C101 1.398 1_665 S
C102 C103 1.391 . S
C103 H91 0.950 . S
C103 C99 1.392 1_565 S
C103 C102 1.391 . S
H104 C112 0.950 . S
H105 C117 0.950 . S
H106 C114 0.950 . S
H107 C116 0.950 . S
H108 C118 0.950 . S
H109 C120 0.950 . S
H110 C122 0.950 . S
H111 C123 0.950 . S
C112 H104 0.950 . S
C112 C113 1.386 1_545 S
C112 C114 1.391 . S
C113 C112 1.386 1_565 S
C113 C117 1.393 1_554 S
C114 H106 0.950 . S
C114 C112 1.391 . S
C114 C115 1.401 1_545 S
C115 C114 1.401 1_565 S
C115 C116 1.398 1_554 S
C115 C121 1.491 1_565 S
C116 H107 0.950 . S
C116 C115 1.398 1_556 S
C116 C117 1.391 . S
C117 H105 0.950 . S
C117 C113 1.393 1_556 S
C117 C116 1.391 . S
C118 H108 0.950 . S
C118 C119 1.386 1_566 S
C118 C120 1.391 . S
C119 C118 1.386 1_544 S
C119 C123 1.393 . S
C120 H109 0.950 . S
C120 C118 1.391 . S
C120 C121 1.401 1_566 S
C121 C115 1.491 1_545 S
C121 C120 1.401 1_544 S
C121 C122 1.398 . S
C122 H110 0.950 . S
C122 C121 1.398 . S
C122 C123 1.391 . S
C123 H111 0.950 . S
C123 C119 1.393 . S
C123 C122 1.391 . S
H124 C132 0.950 . S
H125 C137 0.950 . S
H126 C134 0.950 . S
H127 C136 0.950 . S
H128 C138 0.950 . S
H129 C140 0.950 . S
H130 C142 0.950 . S
H131 C143 0.950 . S
C132 H124 0.950 . S
C132 C133 1.390 1_455 S
C132 C134 1.391 . S
C133 C132 1.390 1_655 S
C133 C137 1.391 1_554 S
C134 H126 0.950 . S
C134 C132 1.391 . S
C134 C135 1.402 1_455 S
C135 C134 1.402 1_655 S
C135 C136 1.395 1_554 S
C135 C141 1.492 1_654 S
C136 H127 0.950 . S
C136 C135 1.395 1_556 S
C136 C137 1.391 . S
C137 H125 0.950 . S
C137 C133 1.391 1_556 S
C137 C136 1.391 . S
C138 H128 0.950 . S
C138 C139 1.387 1_655 S
C138 C140 1.391 . S
C139 C138 1.387 1_455 S
C139 C143 1.392 1_556 S
C140 H129 0.950 . S
C140 C138 1.391 . S
C140 C141 1.400 1_655 S
C141 C135 1.492 1_456 S
C141 C140 1.400 1_455 S
C141 C142 1.399 1_556 S
C142 H130 0.950 . S
C142 C141 1.399 1_554 S
C142 C143 1.391 . S
C143 H131 0.950 . S
C143 C139 1.392 1_554 S
C143 C142 1.391 . S
C93 C74 1.476 1_465 S
C99 C63 1.478 1_645 S
C113 C67 1.426 1_554 S
C119 C56 1.426 . S
C133 C70 1.311 1_554 S
C139 C58 1.313 1_556 S
