# Generated by pormake.
# Topology hex, (8)-cn, num edge types: 1
# Building blocks:
#     Node 0, Type 0, BuildingBlock: NUHRAL_clean_sbu_3, # of connection points: 8
#     Edge 1, Type (0, 0), BuildingBlock: FUNLAD_clean_linker_1, # of connection points: 2
#     Edge 2, Type (0, 0), BuildingBlock: FUNLAD_clean_linker_1, # of connection points: 2
#     Edge 3, Type (0, 0), BuildingBlock: FUNLAD_clean_linker_1, # of connection points: 2
#     Edge 4, Type (0, 0), BuildingBlock: FUNLAD_clean_linker_1, # of connection points: 2
# Relax obj value: 0.036
# Max RMSD: 0.098
# Mean RMSD: 0.098
data_MOF--net-hex--node1-NUHRAL_clean_sbu_3--edge1-FUNLAD_clean_linker_1
_symmetry_space_group_name_H-M    P1
_symmetry_Int_Tables_number       1
_symmetry_cell_setting            triclinic
loop_
_symmetry_equiv_pos_as_xyz
'x, y, z'
_cell_length_a     22.536812
_cell_length_b     18.669023
_cell_length_c     15.554146
_cell_angle_alpha  115.16074
_cell_angle_beta   102.56035
_cell_angle_gamma 114.85577
loop_
_atom_site_label
_atom_site_type_symbol
_atom_site_fract_x
_atom_site_fract_y
_atom_site_fract_z
_atom_type_partial_charge
C0 C 0.80623 0.8748 0.94952 0.0
C1 C 0.78379 0.81184 0.98141 0.0
C2 C 0.72598 0.79462 1.00787 0.0
C3 C 0.69411 0.84487 1.00932 0.0
C4 C 0.71702 0.90929 0.98042 0.0
C5 C 0.77203 0.92269 0.9482 0.0
O6 O 1.03756 0.9634 0.13232 0.0
Tb7 Tb 0.97981 0.8969 0.96003 0.0
O8 O 0.95912 0.76244 0.93166 0.0
O9 O 0.05335 0.10865 0.19477 0.0
Eu10 Eu 0.10461 0.13617 0.09363 0.0
O11 O 0.86438 0.81184 0.86308 0.0
C12 C 0.23032 0.15533 0.14594 0.0
O13 O 0.92898 0.97045 0.97963 0.0
O14 O 0.04447 0.06167 0.91404 0.0
O15 O 1.03108 0.91923 0.86236 0.0
C16 C 0.86225 0.88748 0.91212 0.0
C17 C 0.06017 0.26871 0.07867 0.0
O18 O 0.9935 0.18744 0.0271 0.0
C19 C 0.04442 0.03979 0.2064 0.0
C20 C 1.0382 0.98411 0.84404 0.0
O21 O 0.11936 0.27205 0.12045 0.0
C22 C 0.28732 0.17039 0.11026 0.0
C23 C 0.37728 0.13759 0.07922 0.0
C24 C 0.32196 0.12288 0.1109 0.0
C25 C 0.3098 0.23449 0.07983 0.0
C26 C 0.36785 0.25289 0.05378 0.0
C27 C 0.40005 0.2029 0.05151 0.0
C28 C 1.01611 0.76074 0.9701 0.0
O29 O 0.08425 0.83885 1.0193 0.0
O30 O 0.22505 0.22843 0.19224 0.0
O31 O 0.16526 0.07002 0.07969 0.0
H32 H 0.80874 0.77321 0.98104 0.0
H33 H 0.64934 0.8312 0.02978 0.0
H34 H 0.7881 0.97006 0.92218 0.0
H35 H 0.30585 0.07458 0.13573 0.0
H36 H 0.28449 0.27279 0.08059 0.0
H37 H 0.44488 0.21727 0.03112 0.0
H38 H 0.12587 0.41574 0.11782 0.0
C39 C 0.06948 0.35257 0.08084 0.0
H40 H 0.95412 0.28896 0.99701 0.0
H41 H 1.02854 0.71176 0.1691 0.0
H42 H 0.99282 0.6923 0.29809 0.0
H43 H 0.96932 0.55322 0.30374 0.0
H44 H 0.98203 0.43303 0.18078 0.0
C45 C 1.01097 0.35078 0.03332 0.0
C46 C 1.02213 0.43227 0.02681 0.0
C47 C 1.01298 0.50059 0.09759 0.0
C48 C 1.02548 0.57997 0.09321 0.0
C49 C 1.01834 0.649 0.16736 0.0
C50 C 0.99815 0.63895 0.24219 0.0
C51 C 0.98501 0.56069 0.24545 0.0
C52 C 0.99243 0.49222 0.1744 0.0
H53 H 0.9459 0.61409 0.93042 0.0
C54 C 1.00315 0.67516 0.96685 0.0
H55 H 0.11733 0.73279 0.04812 0.0
H56 H 1.03842 0.30945 0.8735 0.0
H57 H 0.07347 0.32832 0.7438 0.0
H58 H 0.09704 0.46743 0.73811 0.0
H59 H 0.08496 0.58807 0.86158 0.0
C60 C 0.05975 0.67309 1.0126 0.0
C61 C 0.04582 0.58968 1.01663 0.0
C62 C 0.05441 0.52091 0.9453 0.0
C63 C 1.04188 0.44155 0.94967 0.0
C64 C 0.04869 0.37224 0.87523 0.0
C65 C 0.06847 0.38195 0.79999 0.0
C66 C 0.08165 0.4602 0.79671 0.0
C67 C 0.07464 0.52899 0.86813 0.0
H68 H 0.64751 0.93854 0.89721 0.0
C69 C 0.67738 0.95445 0.9751 0.0
H70 H 0.69993 1.01646 0.13681 0.0
H71 H 0.49151 0.13195 0.92076 0.0
H72 H 0.58614 0.20387 0.87718 0.0
H73 H 0.69617 0.19993 0.92045 0.0
H74 H 0.70976 0.11921 1.00275 0.0
C75 C 0.66891 1.00129 0.05991 0.0
C76 C 0.60827 1.01596 0.0469 0.0
C77 C 0.60294 0.06775 1.00383 0.0
C78 C 0.54107 0.07375 0.98356 0.0
C79 C 0.5367 0.12433 0.93817 0.0
C80 C 0.59122 0.16702 0.9134 0.0
C81 C 0.65291 0.1643 0.93715 0.0
C82 C 0.65945 0.11644 0.98304 0.0
H83 H 0.44682 0.10756 0.16092 0.0
C84 C 0.41713 0.09253 0.08352 0.0
H85 H 0.39486 0.03224 0.92207 0.0
H86 H 0.60312 0.91593 0.13745 0.0
H87 H 0.50825 0.84347 0.18036 0.0
H88 H 0.39776 0.84634 0.1358 0.0
H89 H 0.3841 0.92686 0.05325 0.0
C90 C 0.42576 0.0466 0.99847 0.0
C91 C 0.48611 0.03135 1.01064 0.0
C92 C 0.4913 0.97924 0.0533 0.0
C93 C 0.55327 0.97349 0.07388 0.0
C94 C 0.55774 0.92312 0.11952 0.0
C95 C 0.50308 0.88013 0.14392 0.0
C96 C 0.44115 0.88228 0.1195 0.0
C97 C 0.43459 0.93006 0.07351 0.0
H98 H 0.3623 0.31914 0.96592 0.0
C99 C 0.39859 0.32747 0.03359 0.0
H100 H 0.50633 0.40711 0.16147 0.0
H101 H 0.68703 0.55951 0.95234 0.0
H102 H 0.72904 0.4683 0.98219 0.0
H103 H 0.67236 0.37509 0.05025 0.0
H104 H 0.57055 0.36775 0.08262 0.0
C105 C 0.47186 0.40056 0.09376 0.0
C106 C 0.51024 0.46486 0.06287 0.0
C107 C 0.57008 0.46807 0.04427 0.0
C108 C 0.60538 0.52559 1.00997 0.0
C109 C 0.66136 0.5221 0.9849 0.0
C110 C 0.68534 0.46876 1.0001 0.0
C111 C 0.65301 0.41566 0.03758 0.0
C112 C 0.59503 0.41325 0.05724 0.0
H113 H 0.73089 0.72858 0.09617 0.0
C114 C 0.6948 0.72044 0.0285 0.0
H115 H 0.58723 0.64102 0.90028 0.0
H116 H 0.40592 0.48803 0.1087 0.0
H117 H 0.36361 0.57875 0.07818 0.0
H118 H 0.42015 0.67171 1.00982 0.0
H119 H 0.52223 0.67945 0.978 0.0
C120 C 0.62149 0.64749 0.96811 0.0
C121 C 0.58287 0.58288 0.99852 0.0
C122 C 0.52291 0.57948 1.01684 0.0
C123 C 0.48764 0.52201 0.05121 0.0
C124 C 0.43156 0.52537 0.07607 0.0
C125 C 0.40741 0.57843 0.06048 0.0
C126 C 0.43968 0.63141 1.02284 0.0
C127 C 0.4978 0.63404 1.0035 0.0
H128 H 1.01197 0.89379 0.67392 0.0
C129 C 1.03498 0.96698 0.74099 0.0
H130 H 0.08244 0.11261 0.79613 0.0
H131 H 0.09899 0.91095 0.336 0.0
H132 H 0.17546 0.87598 0.42146 0.0
H133 H 0.19903 0.9124 0.60239 0.0
H134 H 0.14506 0.9823 0.69776 0.0
C135 C 0.05948 0.03952 0.72882 0.0
C136 C 0.04954 0.02204 0.62225 0.0
C137 C 0.08356 0.9838 0.56898 0.0
C138 C 0.0719 0.96571 0.46611 0.0
C139 C 0.10586 0.92645 0.41422 0.0
C140 C 0.15029 0.90634 0.4626 0.0
C141 C 0.16334 0.92653 0.56425 0.0
C142 C 0.13116 0.96565 0.61761 0.0
H143 H 0.06895 0.12332 0.37653 0.0
C144 C 0.04664 0.05153 0.30711 0.0
H145 H 0.99898 0.9043 0.24497 0.0
H146 H 0.97798 0.09876 0.70374 0.0
H147 H 0.90078 0.13251 0.61751 0.0
H148 H 0.87695 0.0955 0.4363 0.0
H149 H 0.93161 0.02644 0.34155 0.0
C150 C 1.02131 0.9761 0.31438 0.0
C151 C 1.02853 0.98911 0.41843 0.0
C152 C 0.99376 0.02619 0.47106 0.0
C153 C 1.00548 0.04442 0.57396 0.0
C154 C 0.97117 0.08324 0.62552 0.0
C155 C 0.92625 0.10257 0.57666 0.0
C156 C 0.91305 0.08205 0.47485 0.0
C157 C 0.94563 0.04348 0.4219 0.0
loop_
_geom_bond_atom_site_label_1
_geom_bond_atom_site_label_2
_geom_bond_distance
_geom_bond_site_symmetry_2
_ccdc_geom_bond_type
C0 C1 1.387 . S
C0 C5 1.380 . S
C0 C16 1.494 . S
C1 C0 1.387 . S
C1 C2 1.386 1_556 S
C1 H32 0.930 . S
C2 C1 1.386 1_554 S
C2 C3 1.397 . S
C3 C2 1.397 . S
C3 C4 1.393 1_554 S
C3 H33 0.930 . S
C4 C3 1.393 1_556 S
C4 C5 1.395 . S
C5 C0 1.380 . S
C5 C4 1.395 . S
C5 H34 0.930 . S
O6 Tb7 2.295 1_554 S
O6 C19 1.242 1_665 S
Tb7 O6 2.295 1_556 S
Tb7 O8 2.312 . S
Tb7 O11 2.438 . S
Tb7 O13 2.472 . S
Tb7 O15 2.308 . S
Tb7 C16 2.821 . S
O8 Tb7 2.312 . S
O8 C28 1.264 1_655 S
O9 Eu10 2.308 . S
O9 C19 1.243 . S
Eu10 O9 2.308 . S
Eu10 C12 2.821 . S
Eu10 O14 2.295 1_554 S
Eu10 O21 2.312 . S
Eu10 O30 2.438 . S
Eu10 O31 2.472 . S
O11 Tb7 2.438 . S
O11 C16 1.263 . S
C12 Eu10 2.821 . S
C12 C22 1.494 . S
C12 O30 1.263 . S
C12 O31 1.264 . S
O13 Tb7 2.472 . S
O13 C16 1.264 . S
O14 Eu10 2.295 1_556 S
O14 C20 1.242 1_445 S
O15 Tb7 2.308 . S
O15 C20 1.243 . S
C16 C0 1.494 . S
C16 Tb7 2.821 . S
C16 O11 1.263 . S
C16 O13 1.264 . S
C17 O18 1.260 . S
C17 O21 1.264 1_655 S
O18 C17 1.260 . S
C19 O6 1.242 1_445 S
C19 O9 1.243 . S
C20 O14 1.242 1_665 S
C20 O15 1.243 . S
O21 Eu10 2.312 . S
O21 C17 1.264 1_455 S
C22 C12 1.494 . S
C22 C24 1.380 . S
C22 C25 1.387 . S
C23 C24 1.395 . S
C23 C27 1.393 1_554 S
C24 C22 1.380 . S
C24 C23 1.395 . S
C24 H35 0.930 . S
C25 C22 1.387 . S
C25 C26 1.386 1_554 S
C25 H36 0.930 . S
C26 C25 1.386 1_556 S
C26 C27 1.397 . S
C27 C23 1.393 1_556 S
C27 C26 1.397 . S
C27 H37 0.930 . S
C28 O8 1.264 1_455 S
C28 O29 1.260 . S
O29 C28 1.260 . S
O30 Eu10 2.438 . S
O30 C12 1.263 . S
O31 Eu10 2.472 . S
O31 C12 1.264 . S
H32 C1 0.930 . S
H33 C3 0.930 . S
H34 C5 0.930 . S
H35 C24 0.930 . S
H36 C25 0.930 . S
H37 C27 0.930 . S
H38 C39 0.951 . S
C39 H38 0.951 . S
C39 C45 1.265 1_455 S
H40 C45 0.950 . S
H41 C49 0.949 1_455 S
H42 C50 0.950 . S
H43 C51 0.951 . S
H44 C52 0.951 . S
C45 C39 1.265 1_655 S
C45 H40 0.950 . S
C45 C46 1.478 . S
C46 C45 1.478 . S
C46 C47 1.397 . S
C46 C63 1.394 1_654 S
C47 C46 1.397 . S
C47 C48 1.438 . S
C47 C52 1.429 . S
C48 C47 1.438 . S
C48 C49 1.428 . S
C48 C61 1.394 1_654 S
C49 H41 0.949 1_655 S
C49 C48 1.428 . S
C49 C50 1.345 . S
C50 H42 0.950 . S
C50 C49 1.345 . S
C50 C51 1.424 . S
C51 H43 0.951 . S
C51 C50 1.424 . S
C51 C52 1.347 . S
C52 H44 0.951 . S
C52 C47 1.429 . S
C52 C51 1.347 . S
H53 C54 0.951 . S
C54 H53 0.951 . S
C54 C60 1.265 1_655 S
H55 C60 0.950 . S
H56 C64 0.949 1_655 S
H57 C65 0.950 . S
H58 C66 0.951 . S
H59 C67 0.951 . S
C60 C54 1.265 1_455 S
C60 H55 0.950 . S
C60 C61 1.478 . S
C61 C48 1.394 1_456 S
C61 C60 1.478 . S
C61 C62 1.397 . S
C62 C61 1.397 . S
C62 C63 1.438 . S
C62 C67 1.429 . S
C63 C46 1.394 1_456 S
C63 C62 1.438 . S
C63 C64 1.428 . S
C64 H56 0.949 1_455 S
C64 C63 1.428 . S
C64 C65 1.345 . S
C65 H57 0.950 . S
C65 C64 1.345 . S
C65 C66 1.424 . S
C66 H58 0.951 . S
C66 C65 1.424 . S
C66 C67 1.347 . S
C67 H59 0.951 . S
C67 C62 1.429 . S
C67 C66 1.347 . S
H68 C69 0.951 . S
C69 H68 0.951 . S
C69 C75 1.265 1_565 S
H70 C75 0.950 . S
H71 C79 0.953 1_565 S
H72 C80 0.950 . S
H73 C81 0.951 . S
H74 C82 0.951 . S
C75 C69 1.265 1_545 S
C75 H70 0.950 . S
C75 C76 1.478 . S
C76 C75 1.478 . S
C76 C77 1.397 . S
C76 C93 1.394 1_546 S
C77 C76 1.397 . S
C77 C78 1.438 . S
C77 C82 1.429 . S
C78 C77 1.438 . S
C78 C79 1.428 . S
C78 C91 1.394 1_546 S
C79 H71 0.953 1_545 S
C79 C78 1.428 . S
C79 C80 1.345 . S
C80 H72 0.950 . S
C80 C79 1.345 . S
C80 C81 1.424 . S
C81 H73 0.951 . S
C81 C80 1.424 . S
C81 C82 1.347 . S
C82 H74 0.951 . S
C82 C77 1.429 . S
C82 C81 1.347 . S
H83 C84 0.951 . S
C84 H83 0.951 . S
C84 C90 1.265 1_545 S
H85 C90 0.950 . S
H86 C94 0.949 1_545 S
H87 C95 0.950 . S
H88 C96 0.951 . S
H89 C97 0.951 . S
C90 C84 1.265 1_565 S
C90 H85 0.950 . S
C90 C91 1.478 . S
C91 C78 1.394 1_564 S
C91 C90 1.478 . S
C91 C92 1.397 . S
C92 C91 1.397 . S
C92 C93 1.438 . S
C92 C97 1.429 . S
C93 C76 1.394 1_564 S
C93 C92 1.438 . S
C93 C94 1.428 . S
C94 H86 0.949 1_565 S
C94 C93 1.428 . S
C94 C95 1.345 . S
C95 H87 0.950 . S
C95 C94 1.345 . S
C95 C96 1.424 . S
C96 H88 0.951 . S
C96 C95 1.424 . S
C96 C97 1.347 . S
C97 H89 0.951 . S
C97 C92 1.429 . S
C97 C96 1.347 . S
H98 C99 0.951 . S
C99 H98 0.951 . S
C99 C105 1.265 1_556 S
H100 C105 0.950 . S
H101 C109 0.957 . S
H102 C110 0.950 . S
H103 C111 0.951 . S
H104 C112 0.951 . S
C105 C99 1.265 1_554 S
C105 H100 0.950 . S
C105 C106 1.478 . S
C106 C105 1.478 . S
C106 C107 1.397 . S
C106 C123 1.392 1_554 S
C107 C106 1.397 . S
C107 C108 1.442 . S
C107 C112 1.429 . S
C108 C107 1.442 . S
C108 C109 1.424 1_554 S
C108 C121 1.391 1_554 S
C109 H101 0.957 . S
C109 C108 1.424 1_556 S
C109 C110 1.339 1_556 S
C110 H102 0.950 . S
C110 C109 1.339 1_554 S
C110 C111 1.424 . S
C111 H103 0.951 . S
C111 C110 1.424 . S
C111 C112 1.347 . S
C112 H104 0.951 . S
C112 C107 1.429 . S
C112 C111 1.347 . S
H113 C114 0.951 . S
C114 H113 0.951 . S
C114 C120 1.265 1_554 S
H115 C120 0.950 . S
H116 C124 0.949 . S
H117 C125 0.950 . S
H118 C126 0.951 . S
H119 C127 0.951 . S
C120 C114 1.265 1_556 S
C120 H115 0.950 . S
C120 C121 1.478 . S
C121 C108 1.391 1_556 S
C121 C120 1.478 . S
C121 C122 1.397 . S
C122 C121 1.397 . S
C122 C123 1.440 . S
C122 C127 1.429 . S
C123 C106 1.392 1_556 S
C123 C122 1.440 . S
C123 C124 1.427 1_556 S
C124 H116 0.949 . S
C124 C123 1.427 1_554 S
C124 C125 1.345 1_554 S
C125 H117 0.950 . S
C125 C124 1.345 1_556 S
C125 C126 1.424 . S
C126 H118 0.951 . S
C126 C125 1.424 . S
C126 C127 1.347 . S
C127 H119 0.951 . S
C127 C122 1.429 . S
C127 C126 1.347 . S
H128 C129 0.951 . S
C129 H128 0.951 . S
C129 C135 1.265 1_665 S
H130 C135 0.950 . S
H131 C139 0.949 . S
H132 C140 0.950 . S
H133 C141 0.951 . S
H134 C142 0.951 . S
C135 C129 1.265 1_445 S
C135 H130 0.950 . S
C135 C136 1.478 . S
C136 C135 1.478 . S
C136 C137 1.397 1_545 S
C136 C153 1.394 1_455 S
C137 C136 1.397 1_565 S
C137 C138 1.438 . S
C137 C142 1.429 . S
C138 C137 1.438 . S
C138 C139 1.428 . S
C138 C151 1.394 1_455 S
C139 H131 0.949 . S
C139 C138 1.428 . S
C139 C140 1.345 . S
C140 H132 0.950 . S
C140 C139 1.345 . S
C140 C141 1.424 . S
C141 H133 0.951 . S
C141 C140 1.424 . S
C141 C142 1.347 . S
C142 H134 0.951 . S
C142 C137 1.429 . S
C142 C141 1.347 . S
H143 C144 0.951 . S
C144 H143 0.951 . S
C144 C150 1.265 1_445 S
H145 C150 0.950 . S
H146 C154 0.949 . S
H147 C155 0.950 . S
H148 C156 0.951 . S
H149 C157 0.951 . S
C150 C144 1.265 1_665 S
C150 H145 0.950 . S
C150 C151 1.478 . S
C151 C138 1.394 1_655 S
C151 C150 1.478 . S
C151 C152 1.397 1_565 S
C152 C151 1.397 1_545 S
C152 C153 1.438 . S
C152 C157 1.429 . S
C153 C136 1.394 1_655 S
C153 C152 1.438 . S
C153 C154 1.428 . S
C154 H146 0.949 . S
C154 C153 1.428 . S
C154 C155 1.345 . S
C155 H147 0.950 . S
C155 C154 1.345 . S
C155 C156 1.424 . S
C156 H148 0.951 . S
C156 C155 1.424 . S
C156 C157 1.347 . S
C157 H149 0.951 . S
C157 C152 1.429 . S
C157 C156 1.347 . S
C39 C17 0.482 1_455 S
C54 C28 0.482 1_655 S
C69 C4 2.031 . S
C84 C23 2.031 . S
C99 C26 1.869 . S
C114 C2 1.869 . S
C129 C20 1.465 . S
C144 C19 1.465 . S
