# Generated by pormake.
# Topology nbo, (4)-cn, num edge types: 1
# Building blocks:
#     Node 0, Type 0, BuildingBlock: MUDLON_clean_sbu_0, # of connection points: 4
#     Node 1, Type 0, BuildingBlock: MUDLON_clean_sbu_0, # of connection points: 4
#     Node 2, Type 0, BuildingBlock: MUDLON_clean_sbu_0, # of connection points: 4
#     Node 3, Type 0, BuildingBlock: MUDLON_clean_sbu_0, # of connection points: 4
#     Node 4, Type 0, BuildingBlock: MUDLON_clean_sbu_0, # of connection points: 4
#     Node 5, Type 0, BuildingBlock: MUDLON_clean_sbu_0, # of connection points: 4
#     Edge 6, Type (0, 0), BuildingBlock: AJUNOK_clean_linker_0, # of connection points: 2
#     Edge 7, Type (0, 0), BuildingBlock: AJUNOK_clean_linker_0, # of connection points: 2
#     Edge 8, Type (0, 0), BuildingBlock: AJUNOK_clean_linker_0, # of connection points: 2
#     Edge 9, Type (0, 0), BuildingBlock: AJUNOK_clean_linker_0, # of connection points: 2
#     Edge 10, Type (0, 0), BuildingBlock: AJUNOK_clean_linker_0, # of connection points: 2
#     Edge 11, Type (0, 0), BuildingBlock: AJUNOK_clean_linker_0, # of connection points: 2
#     Edge 12, Type (0, 0), BuildingBlock: AJUNOK_clean_linker_0, # of connection points: 2
#     Edge 13, Type (0, 0), BuildingBlock: AJUNOK_clean_linker_0, # of connection points: 2
#     Edge 14, Type (0, 0), BuildingBlock: AJUNOK_clean_linker_0, # of connection points: 2
#     Edge 15, Type (0, 0), BuildingBlock: AJUNOK_clean_linker_0, # of connection points: 2
#     Edge 16, Type (0, 0), BuildingBlock: AJUNOK_clean_linker_0, # of connection points: 2
#     Edge 17, Type (0, 0), BuildingBlock: AJUNOK_clean_linker_0, # of connection points: 2
# Relax obj value: 0.000
# Max RMSD: 0.009
# Mean RMSD: 0.009
data_MOF--net-nbo--node1-MUDLON_clean_sbu_0--edge1-AJUNOK_clean_linker_0
_symmetry_space_group_name_H-M    P1
_symmetry_Int_Tables_number       1
_symmetry_cell_setting            triclinic
loop_
_symmetry_equiv_pos_as_xyz
'x, y, z'
_cell_length_a     22.919139
_cell_length_b     22.807752
_cell_length_c     22.864081
_cell_angle_alpha  90.62286
_cell_angle_beta   90.884183
_cell_angle_gamma 91.112336
loop_
_atom_site_label
_atom_site_type_symbol
_atom_site_fract_x
_atom_site_fract_y
_atom_site_fract_z
_atom_type_partial_charge
Mg0 Mg 0.96323 0.09627 0.5542 0.0
C1 C 0.95451 0.21687 0.49567 0.0
O2 O 0.95108 0.18016 0.45099 0.0
C3 C 0.93937 0.96175 0.5217 0.0
O4 O 0.90586 0.9852 0.48152 0.0
C5 C 0.82812 0.1197 0.57184 0.0
O6 O 0.84791 0.15573 0.61309 0.0
O7 O 0.86425 0.0909 0.54179 0.0
O8 O 0.96024 0.19622 0.54682 0.0
O9 O 0.06294 0.10062 0.56709 0.0
C10 C 0.09313 0.07125 0.5314 0.0
O11 O 0.06594 0.04305 0.48824 0.0
O12 O 0.96669 0.9954 0.5581 0.0
Mg13 Mg 0.49896 0.96078 0.08457 0.0
C14 C 0.53318 0.09546 0.10858 0.0
O15 O 0.56657 0.07338 0.14968 0.0
C16 C 0.54638 0.83356 0.09819 0.0
O17 O 0.59455 0.86387 0.10992 0.0
C18 C 0.54028 0.93366 0.95319 0.0
O19 O 0.58695 0.91328 0.97941 0.0
O20 O 0.4998 0.95448 0.98416 0.0
O21 O 0.50082 0.061 0.07749 0.0
O22 O 0.49013 0.9695 0.18467 0.0
C23 C 0.49947 0.93388 0.22616 0.0
O24 O 0.52011 0.88188 0.21445 0.0
O25 O 0.49935 0.86073 0.08821 0.0
Mg26 Mg 0.08685 0.54427 0.96837 0.0
C27 C 0.21697 0.50498 0.94315 0.0
O28 O 0.19059 0.46482 0.91006 0.0
C29 C 0.95353 0.50834 0.94174 0.0
O30 O 0.97707 0.46847 0.90813 0.0
C31 C 0.11451 0.56499 0.83463 0.0
O32 O 0.15116 0.60457 0.85681 0.0
O33 O 0.08434 0.53364 0.86906 0.0
O34 O 0.18642 0.54244 0.96984 0.0
O35 O 0.08821 0.55761 0.06794 0.0
C36 C 0.05599 0.52483 0.099 0.0
O37 O 0.02495 0.48273 0.0731 0.0
O38 O 0.98668 0.54507 0.96918 0.0
Mg39 Mg 0.58418 0.46383 0.02 0.0
C40 C 0.56427 0.58768 0.03845 0.0
O41 O 0.55411 0.5776 0.98252 0.0
C42 C 0.55725 0.33922 0.03595 0.0
O43 O 0.54261 0.35 0.98139 0.0
C44 C 0.46132 0.47698 1.00372 0.0
O45 O 0.47262 0.47964 0.06021 0.0
O46 O 0.50298 0.46685 0.96907 0.0
O47 O 0.58019 0.54543 0.07058 0.0
O48 O 0.66726 0.46893 0.9745 0.0
C49 C 0.70825 0.49256 1.00539 0.0
O50 O 0.69626 0.51062 0.05855 0.0
O51 O 0.57842 0.38126 0.06723 0.0
Mg52 Mg 0.01469 0.59084 0.47074 0.0
C53 C 1.00094 0.71488 0.50643 0.0
O54 O 0.05434 0.70274 0.52341 0.0
C55 C 0.99243 0.46496 0.45604 0.0
O56 O 0.04308 0.47464 0.43149 0.0
C57 C 0.01279 0.57587 0.34474 0.0
O58 O 0.95849 0.56962 0.36162 0.0
O59 O 0.05179 0.58859 0.38333 0.0
O60 O 0.96994 0.67422 0.48206 0.0
O61 O 0.07229 0.58345 0.54674 0.0
C62 C 0.04229 0.56829 0.59068 0.0
O63 O 0.98573 0.56016 0.5834 0.0
O64 O 0.9646 0.50842 0.47606 0.0
Mg65 Mg 0.46432 0.0177 0.59327 0.0
C66 C 0.58402 0.04907 0.56095 0.0
O67 O 0.57537 0.99543 0.54085 0.0
C68 C 0.33897 0.02223 0.57341 0.0
O69 O 0.35359 0.96752 0.56415 0.0
C70 C 0.45748 1.00246 0.46822 0.0
O71 O 0.44852 0.05805 0.47997 0.0
O72 O 0.46532 0.96797 0.51099 0.0
O73 O 0.54268 0.07384 0.58785 0.0
O74 O 0.47088 0.97128 0.67639 0.0
C75 C 0.5203 0.9616 0.70028 0.0
O76 O 0.56778 0.97357 0.67096 0.0
O77 O 0.37879 0.05893 0.58965 0.0
C78 C 0.97513 0.30177 0.43073 0.0
C79 C 0.95713 0.28102 0.48546 0.0
C80 C 0.98357 0.3618 0.42089 0.0
C81 C 0.9729 0.40364 0.4648 0.0
H82 H 0.98522 0.27133 0.39579 0.0
H83 H 1.00009 0.37553 0.37893 0.0
S84 S 0.92089 0.37309 0.61431 0.0
N85 N 0.92602 0.3076 0.58338 0.0
N86 N 0.94068 0.42078 0.56412 0.0
C87 C 0.95207 0.38399 0.51876 0.0
C88 C 0.94458 0.32258 0.52931 0.0
C89 C 0.72484 0.12865 0.60598 0.0
C90 C 0.76435 0.10845 0.56391 0.0
C91 C 0.66535 0.11245 0.60305 0.0
C92 C 0.6434 0.07541 0.55802 0.0
H93 H 0.74026 0.15518 0.64283 0.0
H94 H 0.63715 0.12647 0.6379 0.0
S95 S 0.72619 0.01827 0.43201 0.0
N96 N 0.77529 0.05506 0.47204 0.0
N97 N 0.66405 0.0247 0.4668 0.0
C98 C 0.68157 0.05815 0.5137 0.0
C99 C 0.74188 0.07463 0.51656 0.0
C100 C 0.01295 0.81627 0.54818 0.0
C101 C 0.98008 0.77602 0.51323 0.0
C102 C 0.99823 0.87552 0.55211 0.0
C103 C 0.95018 0.89752 0.52092 0.0
H104 H 0.05122 0.80223 0.57218 0.0
H105 H 0.02599 0.90459 0.57859 0.0
S106 S 0.84703 0.80994 0.4264 0.0
N107 N 0.89507 0.76193 0.44932 0.0
N108 N 0.86744 0.8734 0.45641 0.0
C109 C 0.91563 0.85747 0.48726 0.0
C110 C 0.93049 0.79679 0.48357 0.0
C111 C 0.24287 1.00407 0.52372 0.0
C112 C 0.27769 0.03933 0.56183 0.0
C113 C 0.18401 0.01595 0.51329 0.0
C114 C 0.15681 0.06321 0.5411 0.0
H115 H 0.26113 0.96652 0.50168 0.0
H116 H 0.15936 0.98673 0.48408 0.0
S117 S 0.22893 0.17048 0.64347 0.0
N118 N 0.28129 0.12497 0.62605 0.0
N119 N 0.16992 0.14694 0.60726 0.0
C120 C 0.19124 0.09963 0.57868 0.0
C121 C 0.25181 0.08788 0.58872 0.0
C122 C 0.49358 0.93142 0.39276 0.0
C123 C 0.46382 0.98302 0.40648 0.0
C124 C 0.50456 0.91563 0.33442 0.0
C125 C 0.4862 0.95082 0.28752 0.0
H126 H 0.50989 0.90375 0.42734 0.0
H127 H 0.52848 0.87596 0.32619 0.0
S128 S 0.40193 0.08785 0.29995 0.0
N129 N 0.41283 0.06733 0.36815 0.0
N130 N 0.43361 0.03803 0.2591 0.0
C131 C 0.45494 1.00171 0.30073 0.0
C132 C 0.4437 0.01765 0.35998 0.0
C133 C 0.99832 0.51546 0.19007 0.0
C134 C 0.04852 0.53712 0.16234 0.0
C135 C 0.98772 0.52839 0.24883 0.0
C136 C 0.02719 0.56287 0.28293 0.0
H137 H 0.96608 0.48915 0.16593 0.0
H138 H 0.94804 0.51088 0.26767 0.0
S139 S 0.16664 0.62839 0.23222 0.0
N140 N 0.13909 0.59386 0.17389 0.0
N141 N 0.11946 0.61729 0.28507 0.0
C142 C 0.07832 0.58383 0.25634 0.0
C143 C 0.08882 0.57129 0.1959 0.0
C144 C 0.4769 0.95625 0.80022 0.0
C145 C 0.52466 0.94695 0.7635 0.0
C146 C 0.48215 0.95064 0.86114 0.0
C147 C 0.53524 0.93493 0.88809 0.0
H148 H 0.43554 0.97016 0.7821 0.0
H149 H 0.44435 0.9598 0.88734 0.0
S150 S 0.6721 0.90007 0.81112 0.0
N151 N 0.62584 0.91726 0.75828 0.0
N152 N 0.6356 0.90626 0.87249 0.0
C153 C 0.58265 0.92285 0.85165 0.0
C154 C 0.57739 0.92899 0.78955 0.0
C155 C 0.03789 0.52771 0.69076 0.0
C156 C 0.06784 0.56239 0.65007 0.0
C157 C 0.05512 0.52688 0.74962 0.0
C158 C 0.1028 0.56122 0.77059 0.0
H159 H 0.99964 0.50195 0.67739 0.0
H160 H 0.02925 0.50066 0.77918 0.0
S161 S 0.19941 0.65546 0.68058 0.0
N162 N 0.15017 0.62852 0.63356 0.0
N163 N 0.18278 0.62745 0.74467 0.0
C164 C 0.1351 0.59389 0.72976 0.0
C165 C 0.11765 0.5943 0.66938 0.0
C166 C 0.31501 0.46118 0.92478 0.0
C167 C 0.28111 0.50322 0.95378 0.0
C168 C 0.3745 0.45464 0.93866 0.0
C169 C 0.40177 0.48939 0.98255 0.0
H170 H 0.29518 0.43195 0.8922 0.0
H171 H 0.39847 0.42045 0.91692 0.0
S172 S 0.33561 0.61057 0.0664 0.0
N173 N 0.28184 0.58405 0.02451 0.0
N174 N 0.3928 0.57075 0.05095 0.0
C175 C 0.36944 0.53336 1.00977 0.0
C176 C 0.30933 0.54059 0.99528 0.0
C177 C 0.51717 0.23715 0.02471 0.0
C178 C 0.54935 0.27873 0.05863 0.0
C179 C 0.51098 0.17879 0.0422 0.0
C180 C 0.537 0.15896 0.09428 0.0
H181 H 0.49685 0.24946 0.9837 0.0
H182 H 0.48653 0.14871 0.01365 0.0
S183 S 0.62306 0.25078 0.20101 0.0
N184 N 0.60543 0.29656 0.14844 0.0
N185 N 0.59409 0.18656 0.18134 0.0
C186 C 0.5681 0.20033 0.12962 0.0
C187 C 0.57413 0.26019 0.11184 0.0
C188 C 0.86815 0.53839 1.00106 0.0
C189 C 0.88973 0.5068 0.95311 0.0
C190 C 0.80934 0.53426 0.01637 0.0
C191 C 0.76911 0.4987 0.98426 0.0
H192 H 0.89719 0.56549 0.02824 0.0
H193 H 0.79561 0.55877 0.05442 0.0
S194 S 0.80201 0.4102 0.85207 0.0
N195 N 0.86533 0.44091 0.87148 0.0
N196 N 0.7545 0.43348 0.90024 0.0
C197 C 0.78944 0.46843 0.93488 0.0
C198 C 0.84974 0.47232 0.9194 0.0
C199 C 0.51144 0.6815 0.0382 0.0
C200 C 0.55644 0.64751 0.06172 0.0
C201 C 0.50686 0.74095 0.05274 0.0
C202 C 0.54798 0.76908 0.09032 0.0
H203 H 0.48019 0.66228 1.00715 0.0
H204 H 0.47236 0.76557 0.03214 0.0
S205 S 0.67186 0.69841 0.16656 0.0
N206 N 0.64066 0.64491 0.12727 0.0
N207 N 0.63315 0.75741 0.15376 0.0
C208 C 0.592 0.73503 0.11589 0.0
C209 C 0.5959 0.67399 0.10189 0.0
loop_
_geom_bond_atom_site_label_1
_geom_bond_atom_site_label_2
_geom_bond_distance
_geom_bond_site_symmetry_2
_ccdc_geom_bond_type
Mg0 O7 2.141 1_455 S
Mg0 O8 2.048 . S
Mg0 O9 2.048 . S
Mg0 O12 2.141 1_545 S
C1 O2 1.313 . S
C1 O8 1.195 . S
O2 C1 1.313 . S
C3 O4 1.245 . S
C3 O12 1.289 . S
O4 C3 1.245 . S
C5 O6 1.245 . S
C5 O7 1.289 . S
O6 C5 1.245 . S
O7 Mg0 2.141 1_655 S
O7 C5 1.289 . S
O8 Mg0 2.048 . S
O8 C1 1.195 . S
O9 Mg0 2.048 . S
O9 C10 1.195 . S
C10 O9 1.195 . S
C10 O11 1.313 . S
O11 C10 1.313 . S
O12 Mg0 2.141 1_565 S
O12 C3 1.289 . S
Mg13 O20 2.141 1_554 S
Mg13 O21 2.048 . S
Mg13 O22 2.048 . S
Mg13 O25 2.141 1_545 S
C14 O15 1.313 . S
C14 O21 1.195 . S
O15 C14 1.313 . S
C16 O17 1.245 . S
C16 O25 1.289 . S
O17 C16 1.245 . S
C18 O19 1.245 . S
C18 O20 1.289 . S
O19 C18 1.245 . S
O20 Mg13 2.141 1_556 S
O20 C18 1.289 . S
O21 Mg13 2.048 . S
O21 C14 1.195 . S
O22 Mg13 2.048 . S
O22 C23 1.195 . S
C23 O22 1.195 . S
C23 O24 1.313 . S
O24 C23 1.313 . S
O25 Mg13 2.141 1_565 S
O25 C16 1.289 . S
Mg26 O33 2.141 1_554 S
Mg26 O34 2.048 . S
Mg26 O35 2.048 . S
Mg26 O38 2.141 1_455 S
C27 O28 1.313 . S
C27 O34 1.195 . S
O28 C27 1.313 . S
C29 O30 1.245 . S
C29 O38 1.289 . S
O30 C29 1.245 . S
C31 O32 1.245 . S
C31 O33 1.289 . S
O32 C31 1.245 . S
O33 Mg26 2.141 1_556 S
O33 C31 1.289 . S
O34 Mg26 2.048 . S
O34 C27 1.195 . S
O35 Mg26 2.048 . S
O35 C36 1.195 . S
C36 O35 1.195 . S
C36 O37 1.313 . S
O37 C36 1.313 . S
O38 Mg26 2.141 1_655 S
O38 C29 1.289 . S
Mg39 O46 2.141 . S
Mg39 O47 2.048 . S
Mg39 O48 2.048 . S
Mg39 O51 2.141 . S
C40 O41 1.313 1_554 S
C40 O47 1.195 . S
O41 C40 1.313 1_556 S
C42 O43 1.245 1_554 S
C42 O51 1.289 . S
O43 C42 1.245 1_556 S
C44 O45 1.245 1_554 S
C44 O46 1.289 . S
O45 C44 1.245 1_556 S
O46 Mg39 2.141 . S
O46 C44 1.289 . S
O47 Mg39 2.048 . S
O47 C40 1.195 . S
O48 Mg39 2.048 . S
O48 C49 1.195 . S
C49 O48 1.195 . S
C49 O50 1.313 1_554 S
O50 C49 1.313 1_556 S
O51 Mg39 2.141 . S
O51 C42 1.289 . S
Mg52 O59 2.141 . S
Mg52 O60 2.048 . S
Mg52 O61 2.048 . S
Mg52 O64 2.141 . S
C53 O54 1.313 . S
C53 O60 1.195 1_455 S
O54 C53 1.313 . S
C55 O56 1.245 . S
C55 O64 1.289 1_455 S
O56 C55 1.245 . S
C57 O58 1.245 . S
C57 O59 1.289 1_455 S
O58 C57 1.245 . S
O59 Mg52 2.141 . S
O59 C57 1.289 1_655 S
O60 Mg52 2.048 . S
O60 C53 1.195 1_655 S
O61 Mg52 2.048 . S
O61 C62 1.195 1_655 S
C62 O61 1.195 1_455 S
C62 O63 1.313 . S
O63 C62 1.313 . S
O64 Mg52 2.141 . S
O64 C55 1.289 1_655 S
Mg65 O72 2.141 . S
Mg65 O73 2.048 . S
Mg65 O74 2.048 . S
Mg65 O77 2.141 . S
C66 O67 1.313 1_545 S
C66 O73 1.195 . S
O67 C66 1.313 1_565 S
C68 O69 1.245 1_545 S
C68 O77 1.289 . S
O69 C68 1.245 1_565 S
C70 O71 1.245 1_545 S
C70 O72 1.289 . S
O71 C70 1.245 1_565 S
O72 Mg65 2.141 . S
O72 C70 1.289 . S
O73 Mg65 2.048 . S
O73 C66 1.195 . S
O74 Mg65 2.048 . S
O74 C75 1.195 . S
C75 O74 1.195 . S
C75 O76 1.313 1_545 S
O76 C75 1.313 1_565 S
O77 Mg65 2.141 . S
O77 C68 1.289 . S
C78 C79 1.369 . S
C78 C80 1.419 . S
C78 H82 0.930 . S
C79 C78 1.369 . S
C79 C88 1.429 1_455 S
C80 C78 1.419 . S
C80 C81 1.363 . S
C80 H83 0.929 . S
C81 C80 1.363 . S
C81 C87 1.428 1_455 S
H82 C78 0.930 . S
H83 C80 0.929 . S
S84 N85 1.613 . S
S84 N86 1.610 . S
N85 S84 1.613 . S
N85 C88 1.350 . S
N86 S84 1.610 . S
N86 C87 1.351 . S
C87 C81 1.428 1_655 S
C87 N86 1.351 . S
C87 C88 1.434 . S
C88 C79 1.429 1_655 S
C88 N85 1.350 . S
C88 C87 1.434 . S
C89 C90 1.369 . S
C89 C91 1.419 . S
C89 H93 0.930 . S
C90 C89 1.369 . S
C90 C99 1.429 1_545 S
C91 C89 1.419 . S
C91 C92 1.363 . S
C91 H94 0.929 . S
C92 C91 1.363 . S
C92 C98 1.428 1_545 S
H93 C89 0.930 . S
H94 C91 0.929 . S
S95 N96 1.613 . S
S95 N97 1.610 . S
N96 S95 1.613 . S
N96 C99 1.350 . S
N97 S95 1.610 . S
N97 C98 1.351 . S
C98 C92 1.428 1_565 S
C98 N97 1.351 . S
C98 C99 1.434 . S
C99 C90 1.429 1_565 S
C99 N96 1.350 . S
C99 C98 1.434 . S
C100 C101 1.369 . S
C100 C102 1.419 . S
C100 H104 0.930 . S
C101 C100 1.369 . S
C101 C110 1.429 1_455 S
C102 C100 1.419 . S
C102 C103 1.363 . S
C102 H105 0.929 . S
C103 C102 1.363 . S
C103 C109 1.428 1_455 S
H104 C100 0.930 . S
H105 C102 0.929 . S
S106 N107 1.613 . S
S106 N108 1.610 . S
N107 S106 1.613 . S
N107 C110 1.350 . S
N108 S106 1.610 . S
N108 C109 1.351 . S
C109 C103 1.428 1_655 S
C109 N108 1.351 . S
C109 C110 1.434 . S
C110 C101 1.429 1_655 S
C110 N107 1.350 . S
C110 C109 1.434 . S
C111 C112 1.369 1_565 S
C111 C113 1.419 . S
C111 H115 0.930 . S
C112 C111 1.369 1_545 S
C112 C121 1.429 . S
C113 C111 1.419 . S
C113 C114 1.363 1_565 S
C113 H116 0.929 . S
C114 C113 1.363 1_545 S
C114 C120 1.428 . S
H115 C111 0.930 . S
H116 C113 0.929 . S
S117 N118 1.613 . S
S117 N119 1.610 . S
N118 S117 1.613 . S
N118 C121 1.350 . S
N119 S117 1.610 . S
N119 C120 1.351 . S
C120 C114 1.428 . S
C120 N119 1.351 . S
C120 C121 1.434 . S
C121 C112 1.429 . S
C121 N118 1.350 . S
C121 C120 1.434 . S
C122 C123 1.369 . S
C122 C124 1.419 . S
C122 H126 0.930 . S
C123 C122 1.369 . S
C123 C132 1.429 . S
C124 C122 1.419 . S
C124 C125 1.363 . S
C124 H127 0.929 . S
C125 C124 1.363 . S
C125 C131 1.432 . S
H126 C122 0.930 . S
H127 C124 0.929 . S
S128 N129 1.613 . S
S128 N130 1.610 . S
N129 S128 1.613 . S
N129 C132 1.350 1_565 S
N130 S128 1.610 . S
N130 C131 1.347 1_565 S
C131 C125 1.432 . S
C131 N130 1.347 1_545 S
C131 C132 1.434 . S
C132 C123 1.429 . S
C132 N129 1.350 1_545 S
C132 C131 1.434 . S
C133 C134 1.369 . S
C133 C135 1.419 . S
C133 H137 0.930 . S
C134 C133 1.369 . S
C134 C143 1.429 1_455 S
C135 C133 1.419 . S
C135 C136 1.363 . S
C135 H138 0.929 . S
C136 C135 1.363 . S
C136 C142 1.428 1_455 S
H137 C133 0.930 . S
H138 C135 0.929 . S
S139 N140 1.613 . S
S139 N141 1.610 . S
N140 S139 1.613 . S
N140 C143 1.350 . S
N141 S139 1.610 . S
N141 C142 1.351 . S
C142 C136 1.428 1_655 S
C142 N141 1.351 . S
C142 C143 1.434 . S
C143 C134 1.429 1_655 S
C143 N140 1.350 . S
C143 C142 1.434 . S
C144 C145 1.369 . S
C144 C146 1.419 . S
C144 H148 0.930 . S
C145 C144 1.369 . S
C145 C154 1.429 1_545 S
C146 C144 1.419 . S
C146 C147 1.363 . S
C146 H149 0.929 . S
C147 C146 1.363 . S
C147 C153 1.428 1_545 S
H148 C144 0.930 . S
H149 C146 0.929 . S
S150 N151 1.613 . S
S150 N152 1.610 . S
N151 S150 1.613 . S
N151 C154 1.350 . S
N152 S150 1.610 . S
N152 C153 1.351 . S
C153 C147 1.428 1_565 S
C153 N152 1.351 . S
C153 C154 1.434 . S
C154 C145 1.429 1_565 S
C154 N151 1.350 . S
C154 C153 1.434 . S
C155 C156 1.369 1_655 S
C155 C157 1.419 . S
C155 H159 0.930 . S
C156 C155 1.369 1_455 S
C156 C165 1.429 . S
C157 C155 1.419 . S
C157 C158 1.363 1_655 S
C157 H160 0.929 . S
C158 C157 1.363 1_455 S
C158 C164 1.428 . S
H159 C155 0.930 . S
H160 C157 0.929 . S
S161 N162 1.613 . S
S161 N163 1.610 . S
N162 S161 1.613 . S
N162 C165 1.350 . S
N163 S161 1.610 . S
N163 C164 1.351 . S
C164 C158 1.428 . S
C164 N163 1.351 . S
C164 C165 1.434 . S
C165 C156 1.429 . S
C165 N162 1.350 . S
C165 C164 1.434 . S
C166 C167 1.369 . S
C166 C168 1.419 . S
C166 H170 0.930 . S
C167 C166 1.369 . S
C167 C176 1.429 1_554 S
C168 C166 1.419 . S
C168 C169 1.363 . S
C168 H171 0.929 . S
C169 C168 1.363 . S
C169 C175 1.428 1_554 S
H170 C166 0.930 . S
H171 C168 0.929 . S
S172 N173 1.613 . S
S172 N174 1.610 . S
N173 S172 1.613 . S
N173 C176 1.350 . S
N174 S172 1.610 . S
N174 C175 1.351 . S
C175 C169 1.428 1_556 S
C175 N174 1.351 . S
C175 C176 1.434 . S
C176 C167 1.429 1_556 S
C176 N173 1.350 . S
C176 C175 1.434 . S
C177 C178 1.369 1_556 S
C177 C179 1.419 . S
C177 H181 0.930 . S
C178 C177 1.369 1_554 S
C178 C187 1.429 . S
C179 C177 1.419 . S
C179 C180 1.363 1_556 S
C179 H182 0.929 . S
C180 C179 1.363 1_554 S
C180 C186 1.428 . S
H181 C177 0.930 . S
H182 C179 0.929 . S
S183 N184 1.613 . S
S183 N185 1.610 . S
N184 S183 1.613 . S
N184 C187 1.350 . S
N185 S183 1.610 . S
N185 C186 1.351 . S
C186 C180 1.428 . S
C186 N185 1.351 . S
C186 C187 1.434 . S
C187 C178 1.429 . S
C187 N184 1.350 . S
C187 C186 1.434 . S
C188 C189 1.369 . S
C188 C190 1.419 . S
C188 H192 0.930 . S
C189 C188 1.369 . S
C189 C198 1.429 . S
C190 C188 1.419 . S
C190 C191 1.363 . S
C190 H193 0.929 . S
C191 C190 1.363 . S
C191 C197 1.428 . S
H192 C188 0.930 . S
H193 C190 0.929 . S
S194 N195 1.613 . S
S194 N196 1.610 . S
N195 S194 1.613 . S
N195 C198 1.350 . S
N196 S194 1.610 . S
N196 C197 1.351 . S
C197 C191 1.428 . S
C197 N196 1.351 . S
C197 C198 1.434 . S
C198 C189 1.429 . S
C198 N195 1.350 . S
C198 C197 1.434 . S
C199 C200 1.369 1_556 S
C199 C201 1.419 . S
C199 H203 0.930 . S
C200 C199 1.369 1_554 S
C200 C209 1.429 . S
C201 C199 1.419 . S
C201 C202 1.363 1_556 S
C201 H204 0.929 . S
C202 C201 1.363 1_554 S
C202 C208 1.428 . S
H203 C199 0.930 . S
H204 C201 0.929 . S
S205 N206 1.613 . S
S205 N207 1.610 . S
N206 S205 1.613 . S
N206 C209 1.350 . S
N207 S205 1.610 . S
N207 C208 1.351 . S
C208 C202 1.428 . S
C208 N207 1.351 . S
C208 C209 1.434 . S
C209 C200 1.429 . S
C209 N206 1.350 . S
C209 C208 1.434 . S
C79 C1 1.492 . S
C81 C55 1.495 . S
C90 C5 1.486 . S
C92 C66 1.491 . S
C101 C53 1.497 . S
C103 C3 1.486 . S
C112 C68 1.490 . S
C114 C10 1.492 . S
C123 C70 1.486 . S
C125 C23 1.497 . S
C134 C36 1.494 . S
C136 C57 1.494 . S
C145 C75 1.490 . S
C147 C18 1.493 . S
C156 C62 1.496 . S
C158 C31 1.486 . S
C167 C27 1.493 . S
C169 C44 1.486 . S
C178 C42 1.490 . S
C180 C14 1.495 . S
C189 C29 1.486 . S
C191 C49 1.492 . S
C200 C40 1.494 . S
C202 C16 1.494 . S
