# Generated by pormake.
# Topology unf, (4)-cn, num edge types: 1
# Building blocks:
#     Node 0, Type 0, BuildingBlock: AZAVOO_clean_sbu_0, # of connection points: 4
#     Node 1, Type 0, BuildingBlock: AZAVOO_clean_sbu_0, # of connection points: 4
#     Node 2, Type 0, BuildingBlock: AZAVOO_clean_sbu_0, # of connection points: 4
#     Node 3, Type 0, BuildingBlock: AZAVOO_clean_sbu_0, # of connection points: 4
#     Node 4, Type 0, BuildingBlock: AZAVOO_clean_sbu_0, # of connection points: 4
#     Node 5, Type 0, BuildingBlock: AZAVOO_clean_sbu_0, # of connection points: 4
#     Node 6, Type 0, BuildingBlock: AZAVOO_clean_sbu_0, # of connection points: 4
#     Node 7, Type 0, BuildingBlock: AZAVOO_clean_sbu_0, # of connection points: 4
#     Node 8, Type 0, BuildingBlock: AZAVOO_clean_sbu_0, # of connection points: 4
#     Node 9, Type 0, BuildingBlock: AZAVOO_clean_sbu_0, # of connection points: 4
#     Node 10, Type 0, BuildingBlock: AZAVOO_clean_sbu_0, # of connection points: 4
#     Node 11, Type 0, BuildingBlock: AZAVOO_clean_sbu_0, # of connection points: 4
#     Edge 12, Type (0, 0), None
#     Edge 13, Type (0, 0), None
#     Edge 14, Type (0, 0), None
#     Edge 15, Type (0, 0), None
#     Edge 16, Type (0, 0), None
#     Edge 17, Type (0, 0), None
#     Edge 18, Type (0, 0), None
#     Edge 19, Type (0, 0), None
#     Edge 20, Type (0, 0), None
#     Edge 21, Type (0, 0), None
#     Edge 22, Type (0, 0), None
#     Edge 23, Type (0, 0), None
#     Edge 24, Type (0, 0), None
#     Edge 25, Type (0, 0), None
#     Edge 26, Type (0, 0), None
#     Edge 27, Type (0, 0), None
#     Edge 28, Type (0, 0), None
#     Edge 29, Type (0, 0), None
#     Edge 30, Type (0, 0), None
#     Edge 31, Type (0, 0), None
#     Edge 32, Type (0, 0), None
#     Edge 33, Type (0, 0), None
#     Edge 34, Type (0, 0), None
#     Edge 35, Type (0, 0), None
# Relax obj value: 0.209
# Max RMSD: 0.187
# Mean RMSD: 0.187
data_MOF--net-unf--node1-AZAVOO_clean_sbu_0--edge1-none
_symmetry_space_group_name_H-M    P1
_symmetry_Int_Tables_number       1
_symmetry_cell_setting            triclinic
loop_
_symmetry_equiv_pos_as_xyz
'x, y, z'
_cell_length_a     16.309243
_cell_length_b     16.30998
_cell_length_c     18.218734
_cell_angle_alpha  89.999705
_cell_angle_beta   89.999991
_cell_angle_gamma 120.00449
loop_
_atom_site_label
_atom_site_type_symbol
_atom_site_fract_x
_atom_site_fract_y
_atom_site_fract_z
_atom_type_partial_charge
Mg0 Mg 0.16671 0.40689 0.02668 0.0
O1 O 1.00952 0.30162 0.0122 0.0
O2 O 0.9714 0.15079 0.01867 0.0
Mg3 Mg 0.1146 0.15746 0.03651 0.0
C4 C 0.94822 0.21408 0.01096 0.0
C5 C 0.0732 0.54019 -0.00314 0.0
O6 O 0.05682 0.60916 0.01281 0.0
O7 O 0.16483 0.37684 0.14982 0.0
O8 O 0.14086 0.22847 0.14781 0.0
O9 O 0.20387 0.40184 0.90726 0.0
O10 O 0.19462 0.30202 -0.00768 0.0
C11 C 0.15984 0.30439 0.18165 0.0
C12 C 0.2091 0.32814 0.92538 0.0
O13 O 0.12993 0.52719 0.03739 0.0
Mg14 Mg 0.62836 0.76685 0.02668 0.0
O15 O 0.73364 0.71495 0.0122 0.0
O16 O 0.88448 0.82768 0.01869 0.0
Mg17 Mg 0.8778 0.9642 0.03654 0.0
C18 C 0.82118 0.7412 0.01097 0.0
C19 C 0.49507 0.54004 -0.00317 0.0
O20 O 0.42609 0.45468 0.01277 0.0
O21 O 0.65839 0.79501 0.14983 0.0
O22 O 0.80678 0.91942 0.14783 0.0
O23 O 0.63342 0.80908 0.90727 0.0
O24 O 0.73325 0.89965 -0.00766 0.0
C25 C 0.73081 0.86245 0.18166 0.0
C26 C 0.70713 0.88802 0.9254 0.0
O27 O 0.50805 0.60976 0.03737 0.0
Mg28 Mg 0.26839 0.86859 0.02669 0.0
O29 O 0.32031 0.02577 0.01221 0.0
O30 O 0.20757 0.06387 0.01868 0.0
Mg31 Mg 0.07104 0.92066 0.03654 0.0
C32 C 0.29406 0.08706 0.01096 0.0
C33 C 0.4952 0.9621 -0.00315 0.0
O34 O 0.58056 0.97849 0.0128 0.0
O35 O 0.24022 0.87046 0.14983 0.0
O36 O 0.1158 0.89442 0.14783 0.0
O37 O 0.22617 0.83142 0.90728 0.0
O38 O 0.13559 0.84066 -0.00766 0.0
C39 C 0.17277 0.87543 0.18166 0.0
C40 C 0.14724 0.82619 0.9254 0.0
O41 O 0.42548 0.90537 0.0374 0.0
Mg42 Mg 0.62835 0.86853 0.41571 0.0
O43 O 0.73362 0.02571 0.43018 0.0
O44 O 0.88446 0.06385 0.42369 0.0
Mg45 Mg 0.87779 0.92065 0.40585 0.0
C46 C 0.82116 0.08702 0.43141 0.0
C47 C 0.49504 0.96202 0.44554 0.0
O48 O 0.42606 0.9784 0.4296 0.0
O49 O 0.65839 0.8704 0.29257 0.0
O50 O 0.80677 0.89438 0.29457 0.0
O51 O 0.63342 0.83137 0.53513 0.0
O52 O 0.73324 0.84063 0.45006 0.0
C53 C 0.73083 0.87537 0.26073 0.0
C54 C 0.70712 0.82614 0.517 0.0
O55 O 0.50803 0.90529 0.40501 0.0
Mg56 Mg 0.16668 0.76687 0.4157 0.0
O57 O 1.00949 0.71493 0.43018 0.0
O58 O 0.97137 0.82765 0.42371 0.0
Mg59 Mg 0.11457 0.96419 0.40586 0.0
C60 C 0.94819 0.74117 0.43142 0.0
C61 C 0.07319 0.54006 0.44552 0.0
O62 O 0.05681 0.45471 0.42956 0.0
O63 O 0.16481 0.79505 0.29256 0.0
O64 O 0.14084 0.91945 0.29457 0.0
O65 O 0.20384 0.80908 0.53512 0.0
O66 O 0.19459 0.89966 0.45006 0.0
C67 C 0.15984 0.86251 0.26073 0.0
C68 C 0.20907 0.88801 0.517 0.0
O69 O 0.12991 0.60979 0.40498 0.0
Mg70 Mg 0.26838 0.40684 0.4157 0.0
O71 O 0.3203 0.30158 0.43018 0.0
O72 O 0.20757 0.15075 0.42368 0.0
Mg73 Mg 0.07104 0.15741 0.40583 0.0
C74 C 0.29406 0.21405 0.43141 0.0
C75 C 0.49519 0.54016 0.44555 0.0
O76 O 0.58056 0.60914 0.42961 0.0
O77 O 0.24022 0.37681 0.29255 0.0
O78 O 0.1158 0.22843 0.29455 0.0
O79 O 0.22615 0.40178 0.53511 0.0
O80 O 0.13558 0.30195 0.45004 0.0
C81 C 0.17277 0.30441 0.26072 0.0
C82 C 0.14721 0.32807 0.51698 0.0
O83 O 0.42547 0.52716 0.405 0.0
Mg84 Mg 0.88374 0.5672 0.89687 0.0
O85 O 0.03036 0.69565 0.86539 0.0
O86 O 1.01397 0.82303 0.87541 0.0
Mg87 Mg 0.87177 0.76449 0.81899 0.0
C88 C 0.06464 0.7837 0.87836 0.0
C89 C 0.02538 0.47847 0.9334 0.0
O90 O 0.05585 0.42355 0.90809 0.0
O91 O 0.83151 0.51579 0.77843 0.0
O92 O 0.91173 0.66678 0.76404 0.0
O93 O 0.89278 0.64112 0.00569 0.0
O94 O 0.82039 0.65458 0.90791 0.0
C95 C 0.84658 0.58779 0.74155 0.0
C96 C 0.84569 0.67622 -0.02515 0.0
O97 O 0.9588 0.48044 0.89844 0.0
Mg98 Mg 0.46807 0.32362 0.89684 0.0
O99 O 0.33963 0.3418 0.86538 0.0
O100 O 0.21223 0.19802 0.8754 0.0
Mg101 Mg 0.27074 0.11435 0.81898 0.0
C102 C 0.25157 0.28803 0.87835 0.0
C103 C 0.5568 0.55397 0.93338 0.0
O104 O 0.61173 0.63938 0.90807 0.0
O105 O 0.51948 0.3228 0.7784 0.0
O106 O 0.36848 0.25202 0.76402 0.0
O107 O 0.39416 0.25874 0.00567 0.0
O108 O 0.38066 0.17287 0.90789 0.0
C109 C 0.44747 0.26586 0.74152 0.0
C110 C 0.35904 0.17654 -0.02517 0.0
O111 O 0.55485 0.48544 0.89841 0.0
Mg112 Mg 0.71165 0.15153 0.89685 0.0
O113 O 0.69346 1.00489 0.86542 0.0
O114 O 0.83724 0.02129 0.87541 0.0
Mg115 Mg 0.92092 0.16347 0.81898 0.0
C116 C 0.74723 0.97061 0.87837 0.0
C117 C 0.48129 1.0099 0.9334 0.0
O118 O 0.39588 0.97943 0.90809 0.0
O119 O 0.71246 0.20372 0.77841 0.0
O120 O 0.78323 0.12351 0.76404 0.0
O121 O 0.77653 0.1425 0.00569 0.0
O122 O 0.8624 0.21487 0.90789 0.0
C123 C 0.76939 0.18864 0.74153 0.0
C124 C 0.85873 0.18958 -0.02517 0.0
O125 O 0.54983 0.07648 0.89843 0.0
Mg126 Mg 0.46806 0.15149 0.54552 0.0
O127 O 0.3396 1.00488 0.57702 0.0
O128 O 0.21222 0.02127 0.56697 0.0
Mg129 Mg 0.27075 0.16347 0.62339 0.0
C130 C 0.25155 0.9706 0.56403 0.0
C131 C 0.55677 1.00984 0.509 0.0
O132 O 0.61169 0.97936 0.53431 0.0
O133 O 0.51946 0.20374 0.66395 0.0
O134 O 0.36842 0.12348 0.6784 0.0
O135 O 0.39412 0.14243 0.43669 0.0
O136 O 0.38067 0.21484 0.53447 0.0
C137 C 0.44745 0.18863 0.70083 0.0
C138 C 0.35903 0.18954 0.46754 0.0
O139 O 0.55481 0.07642 0.54396 0.0
Mg140 Mg 0.88373 0.32358 0.5455 0.0
O141 O 0.03034 0.34174 0.57698 0.0
O142 O 1.01393 0.19796 0.56696 0.0
Mg143 Mg 0.87173 0.1143 0.62338 0.0
C144 C 0.06461 0.28797 0.56401 0.0
C145 C 0.02538 0.55396 0.50898 0.0
O146 O 0.05584 0.63935 0.53429 0.0
O147 O 0.8315 0.32275 0.66394 0.0
O148 O 0.91175 0.25197 0.67838 0.0
O149 O 0.89276 0.2587 0.43668 0.0
O150 O 0.82037 0.17285 0.53447 0.0
C151 C 0.84662 0.26585 0.70082 0.0
C152 C 0.84566 0.17651 0.46753 0.0
O153 O 0.95879 0.4854 0.54394 0.0
Mg154 Mg 0.71163 0.56716 0.54553 0.0
O155 O 0.69346 0.6956 0.577 0.0
O156 O 0.83724 0.823 0.56697 0.0
Mg157 Mg 0.92091 0.76448 0.6234 0.0
C158 C 0.74723 0.78366 0.56403 0.0
C159 C 0.48126 0.47843 0.509 0.0
O160 O 0.39586 0.4235 0.53431 0.0
O161 O 0.71246 0.51577 0.66397 0.0
O162 O 0.78324 0.66681 0.6784 0.0
O163 O 0.7765 0.64107 0.4367 0.0
O164 O 0.86237 0.65456 0.53449 0.0
C165 C 0.76936 0.58779 0.70085 0.0
C166 C 0.8587 0.67619 0.46755 0.0
O167 O 0.5498 0.48038 0.54396 0.0
loop_
_geom_bond_atom_site_label_1
_geom_bond_atom_site_label_2
_geom_bond_distance
_geom_bond_site_symmetry_2
_ccdc_geom_bond_type
Mg0 O1 2.028 1_455 S
Mg0 O7 1.986 . S
Mg0 O9 2.114 1_554 S
Mg0 O10 2.251 . S
Mg0 O13 2.010 . S
O1 Mg0 2.028 1_655 S
O1 C4 1.250 . S
O2 Mg3 2.028 1_655 S
O2 C4 1.248 . S
Mg3 O2 2.028 1_455 S
Mg3 O8 2.032 . S
Mg3 O10 2.079 . S
C4 O1 1.250 . S
C4 O2 1.248 . S
C5 O6 1.264 . S
C5 O13 1.249 . S
O6 C5 1.264 . S
O7 Mg0 1.986 . S
O7 C11 1.246 . S
O8 Mg3 2.032 . S
O8 C11 1.259 . S
O9 Mg0 2.114 1_556 S
O9 C12 1.252 . S
O10 Mg0 2.251 . S
O10 Mg3 2.079 . S
O10 C12 1.273 1_554 S
C11 O7 1.246 . S
C11 O8 1.259 . S
C12 O9 1.252 . S
C12 O10 1.273 1_556 S
O13 Mg0 2.010 . S
O13 C5 1.249 . S
Mg14 O15 2.028 . S
Mg14 O21 1.986 . S
Mg14 O23 2.114 1_554 S
Mg14 O24 2.251 . S
Mg14 O27 2.010 . S
O15 Mg14 2.028 . S
O15 C18 1.250 . S
O16 Mg17 2.028 . S
O16 C18 1.248 . S
Mg17 O16 2.028 . S
Mg17 O22 2.032 . S
Mg17 O24 2.079 . S
C18 O15 1.250 . S
C18 O16 1.248 . S
C19 O20 1.264 . S
C19 O27 1.249 . S
O20 C19 1.264 . S
O21 Mg14 1.986 . S
O21 C25 1.246 . S
O22 Mg17 2.032 . S
O22 C25 1.259 . S
O23 Mg14 2.114 1_556 S
O23 C26 1.252 . S
O24 Mg14 2.251 . S
O24 Mg17 2.079 . S
O24 C26 1.273 1_554 S
C25 O21 1.246 . S
C25 O22 1.259 . S
C26 O23 1.252 . S
C26 O24 1.273 1_556 S
O27 Mg14 2.010 . S
O27 C19 1.249 . S
Mg28 O29 2.028 1_565 S
Mg28 O35 1.986 . S
Mg28 O37 2.114 1_554 S
Mg28 O38 2.251 . S
Mg28 O41 2.010 . S
O29 Mg28 2.028 1_545 S
O29 C32 1.250 . S
O30 Mg31 2.028 1_545 S
O30 C32 1.248 . S
Mg31 O30 2.028 1_565 S
Mg31 O36 2.032 . S
Mg31 O38 2.079 . S
C32 O29 1.250 . S
C32 O30 1.248 . S
C33 O34 1.264 . S
C33 O41 1.249 . S
O34 C33 1.264 . S
O35 Mg28 1.986 . S
O35 C39 1.246 . S
O36 Mg31 2.032 . S
O36 C39 1.259 . S
O37 Mg28 2.114 1_556 S
O37 C40 1.252 . S
O38 Mg28 2.251 . S
O38 Mg31 2.079 . S
O38 C40 1.273 1_554 S
C39 O35 1.246 . S
C39 O36 1.259 . S
C40 O37 1.252 . S
C40 O38 1.273 1_556 S
O41 Mg28 2.010 . S
O41 C33 1.249 . S
Mg42 O43 2.028 1_565 S
Mg42 O49 1.986 . S
Mg42 O51 2.114 . S
Mg42 O52 2.251 . S
Mg42 O55 2.010 . S
O43 Mg42 2.028 1_545 S
O43 C46 1.250 . S
O44 Mg45 2.028 1_545 S
O44 C46 1.248 . S
Mg45 O44 2.028 1_565 S
Mg45 O50 2.032 . S
Mg45 O52 2.079 . S
C46 O43 1.250 . S
C46 O44 1.248 . S
C47 O48 1.264 . S
C47 O55 1.249 . S
O48 C47 1.264 . S
O49 Mg42 1.986 . S
O49 C53 1.246 . S
O50 Mg45 2.032 . S
O50 C53 1.259 . S
O51 Mg42 2.114 . S
O51 C54 1.252 . S
O52 Mg42 2.251 . S
O52 Mg45 2.079 . S
O52 C54 1.273 . S
C53 O49 1.246 . S
C53 O50 1.259 . S
C54 O51 1.252 . S
C54 O52 1.273 . S
O55 Mg42 2.010 . S
O55 C47 1.249 . S
Mg56 O57 2.028 1_455 S
Mg56 O63 1.986 . S
Mg56 O65 2.114 . S
Mg56 O66 2.251 . S
Mg56 O69 2.010 . S
O57 Mg56 2.028 1_655 S
O57 C60 1.250 . S
O58 Mg59 2.028 1_655 S
O58 C60 1.248 . S
Mg59 O58 2.028 1_455 S
Mg59 O64 2.032 . S
Mg59 O66 2.079 . S
C60 O57 1.250 . S
C60 O58 1.248 . S
C61 O62 1.264 . S
C61 O69 1.249 . S
O62 C61 1.264 . S
O63 Mg56 1.986 . S
O63 C67 1.246 . S
O64 Mg59 2.032 . S
O64 C67 1.259 . S
O65 Mg56 2.114 . S
O65 C68 1.252 . S
O66 Mg56 2.251 . S
O66 Mg59 2.079 . S
O66 C68 1.273 . S
C67 O63 1.246 . S
C67 O64 1.259 . S
C68 O65 1.252 . S
C68 O66 1.273 . S
O69 Mg56 2.010 . S
O69 C61 1.249 . S
Mg70 O71 2.028 . S
Mg70 O77 1.986 . S
Mg70 O79 2.114 . S
Mg70 O80 2.251 . S
Mg70 O83 2.010 . S
O71 Mg70 2.028 . S
O71 C74 1.250 . S
O72 Mg73 2.028 . S
O72 C74 1.248 . S
Mg73 O72 2.028 . S
Mg73 O78 2.032 . S
Mg73 O80 2.079 . S
C74 O71 1.250 . S
C74 O72 1.248 . S
C75 O76 1.264 . S
C75 O83 1.249 . S
O76 C75 1.264 . S
O77 Mg70 1.986 . S
O77 C81 1.246 . S
O78 Mg73 2.032 . S
O78 C81 1.259 . S
O79 Mg70 2.114 . S
O79 C82 1.252 . S
O80 Mg70 2.251 . S
O80 Mg73 2.079 . S
O80 C82 1.273 . S
C81 O77 1.246 . S
C81 O78 1.259 . S
C82 O79 1.252 . S
C82 O80 1.273 . S
O83 Mg70 2.010 . S
O83 C75 1.249 . S
Mg84 O85 2.028 1_655 S
Mg84 O91 1.986 . S
Mg84 O93 2.114 1_556 S
Mg84 O94 2.251 . S
Mg84 O97 2.010 . S
O85 Mg84 2.028 1_455 S
O85 C88 1.250 . S
O86 Mg87 2.028 1_455 S
O86 C88 1.248 . S
Mg87 O86 2.028 1_655 S
Mg87 O92 2.032 . S
Mg87 O94 2.079 . S
C88 O85 1.250 . S
C88 O86 1.248 . S
C89 O90 1.264 . S
C89 O97 1.249 . S
O90 C89 1.264 . S
O91 Mg84 1.986 . S
O91 C95 1.246 . S
O92 Mg87 2.032 . S
O92 C95 1.259 . S
O93 Mg84 2.114 1_554 S
O93 C96 1.252 . S
O94 Mg84 2.251 . S
O94 Mg87 2.079 . S
O94 C96 1.273 1_556 S
C95 O91 1.246 . S
C95 O92 1.259 . S
C96 O93 1.252 . S
C96 O94 1.273 1_554 S
O97 Mg84 2.010 . S
O97 C89 1.249 . S
Mg98 O99 2.028 . S
Mg98 O105 1.986 . S
Mg98 O107 2.114 1_556 S
Mg98 O108 2.251 . S
Mg98 O111 2.010 . S
O99 Mg98 2.028 . S
O99 C102 1.250 . S
O100 Mg101 2.028 . S
O100 C102 1.248 . S
Mg101 O100 2.028 . S
Mg101 O106 2.032 . S
Mg101 O108 2.079 . S
C102 O99 1.250 . S
C102 O100 1.248 . S
C103 O104 1.264 . S
C103 O111 1.249 . S
O104 C103 1.264 . S
O105 Mg98 1.986 . S
O105 C109 1.246 . S
O106 Mg101 2.032 . S
O106 C109 1.259 . S
O107 Mg98 2.114 1_554 S
O107 C110 1.252 . S
O108 Mg98 2.251 . S
O108 Mg101 2.079 . S
O108 C110 1.273 1_556 S
C109 O105 1.246 . S
C109 O106 1.259 . S
C110 O107 1.252 . S
C110 O108 1.273 1_554 S
O111 Mg98 2.010 . S
O111 C103 1.249 . S
Mg112 O113 2.028 1_545 S
Mg112 O119 1.986 . S
Mg112 O121 2.114 1_556 S
Mg112 O122 2.251 . S
Mg112 O125 2.010 . S
O113 Mg112 2.028 1_565 S
O113 C116 1.250 . S
O114 Mg115 2.028 1_565 S
O114 C116 1.248 . S
Mg115 O114 2.028 1_545 S
Mg115 O120 2.032 . S
Mg115 O122 2.079 . S
C116 O113 1.250 . S
C116 O114 1.248 . S
C117 O118 1.264 . S
C117 O125 1.249 . S
O118 C117 1.264 . S
O119 Mg112 1.986 . S
O119 C123 1.246 . S
O120 Mg115 2.032 . S
O120 C123 1.259 . S
O121 Mg112 2.114 1_554 S
O121 C124 1.252 . S
O122 Mg112 2.251 . S
O122 Mg115 2.079 . S
O122 C124 1.273 1_556 S
C123 O119 1.246 . S
C123 O120 1.259 . S
C124 O121 1.252 . S
C124 O122 1.273 1_554 S
O125 Mg112 2.010 . S
O125 C117 1.249 . S
Mg126 O127 2.028 1_545 S
Mg126 O133 1.986 . S
Mg126 O135 2.114 . S
Mg126 O136 2.251 . S
Mg126 O139 2.010 . S
O127 Mg126 2.028 1_565 S
O127 C130 1.250 . S
O128 Mg129 2.028 1_565 S
O128 C130 1.248 . S
Mg129 O128 2.028 1_545 S
Mg129 O134 2.032 . S
Mg129 O136 2.079 . S
C130 O127 1.250 . S
C130 O128 1.248 . S
C131 O132 1.264 . S
C131 O139 1.249 . S
O132 C131 1.264 . S
O133 Mg126 1.986 . S
O133 C137 1.246 . S
O134 Mg129 2.032 . S
O134 C137 1.259 . S
O135 Mg126 2.114 . S
O135 C138 1.252 . S
O136 Mg126 2.251 . S
O136 Mg129 2.079 . S
O136 C138 1.273 . S
C137 O133 1.246 . S
C137 O134 1.259 . S
C138 O135 1.252 . S
C138 O136 1.273 . S
O139 Mg126 2.010 . S
O139 C131 1.249 . S
Mg140 O141 2.028 1_655 S
Mg140 O147 1.986 . S
Mg140 O149 2.114 . S
Mg140 O150 2.251 . S
Mg140 O153 2.010 . S
O141 Mg140 2.028 1_455 S
O141 C144 1.250 . S
O142 Mg143 2.028 1_455 S
O142 C144 1.248 . S
Mg143 O142 2.028 1_655 S
Mg143 O148 2.032 . S
Mg143 O150 2.079 . S
C144 O141 1.250 . S
C144 O142 1.248 . S
C145 O146 1.264 . S
C145 O153 1.249 . S
O146 C145 1.264 . S
O147 Mg140 1.986 . S
O147 C151 1.246 . S
O148 Mg143 2.032 . S
O148 C151 1.259 . S
O149 Mg140 2.114 . S
O149 C152 1.252 . S
O150 Mg140 2.251 . S
O150 Mg143 2.079 . S
O150 C152 1.273 . S
C151 O147 1.246 . S
C151 O148 1.259 . S
C152 O149 1.252 . S
C152 O150 1.273 . S
O153 Mg140 2.010 . S
O153 C145 1.249 . S
Mg154 O155 2.028 . S
Mg154 O161 1.986 . S
Mg154 O163 2.114 . S
Mg154 O164 2.251 . S
Mg154 O167 2.010 . S
O155 Mg154 2.028 . S
O155 C158 1.250 . S
O156 Mg157 2.028 . S
O156 C158 1.248 . S
Mg157 O156 2.028 . S
Mg157 O162 2.032 . S
Mg157 O164 2.079 . S
C158 O155 1.250 . S
C158 O156 1.248 . S
C159 O160 1.264 . S
C159 O167 1.249 . S
O160 C159 1.264 . S
O161 Mg154 1.986 . S
O161 C165 1.246 . S
O162 Mg157 2.032 . S
O162 C165 1.259 . S
O163 Mg154 2.114 . S
O163 C166 1.252 . S
O164 Mg154 2.251 . S
O164 Mg157 2.079 . S
O164 C166 1.273 . S
C165 O161 1.246 . S
C165 O162 1.259 . S
C166 O163 1.252 . S
C166 O164 1.273 . S
O167 Mg154 2.010 . S
O167 C159 1.249 . S
C12 C102 0.940 . S
C26 C116 0.940 . S
C40 C88 0.940 . S
C158 C54 0.940 . S
C68 C130 0.940 . S
C144 C82 0.940 . S
C18 C96 0.940 . S
C110 C32 0.940 . S
C4 C124 0.940 . S
C138 C74 0.940 . S
C152 C46 0.940 . S
C60 C166 0.940 . S
C81 C11 2.050 . S
C25 C53 2.050 . S
C39 C67 2.050 . S
C95 C165 2.050 . S
C109 C137 2.050 . S
C123 C151 2.050 . S
C5 C89 2.279 1_454 S
C19 C103 2.279 1_554 S
C33 C117 2.280 1_564 S
C47 C131 2.279 1_565 S
C145 C61 2.279 1_655 S
C75 C159 2.279 . S
