# Generated by pormake.
# Topology rac, (4)-cn, num edge types: 1
# Building blocks:
#     Node 0, Type 0, BuildingBlock: QUQFOY_clean_sbu_3, # of connection points: 4
#     Node 1, Type 0, BuildingBlock: QUQFOY_clean_sbu_3, # of connection points: 4
#     Node 2, Type 0, BuildingBlock: QUQFOY_clean_sbu_3, # of connection points: 4
#     Node 3, Type 0, BuildingBlock: QUQFOY_clean_sbu_3, # of connection points: 4
#     Node 4, Type 0, BuildingBlock: QUQFOY_clean_sbu_3, # of connection points: 4
#     Node 5, Type 0, BuildingBlock: QUQFOY_clean_sbu_3, # of connection points: 4
#     Node 6, Type 0, BuildingBlock: QUQFOY_clean_sbu_3, # of connection points: 4
#     Node 7, Type 0, BuildingBlock: QUQFOY_clean_sbu_3, # of connection points: 4
#     Edge 8, Type (0, 0), BuildingBlock: EYOCIG_clean_linker_4, # of connection points: 2
#     Edge 9, Type (0, 0), BuildingBlock: EYOCIG_clean_linker_4, # of connection points: 2
#     Edge 10, Type (0, 0), BuildingBlock: EYOCIG_clean_linker_4, # of connection points: 2
#     Edge 11, Type (0, 0), BuildingBlock: EYOCIG_clean_linker_4, # of connection points: 2
#     Edge 12, Type (0, 0), BuildingBlock: EYOCIG_clean_linker_4, # of connection points: 2
#     Edge 13, Type (0, 0), BuildingBlock: EYOCIG_clean_linker_4, # of connection points: 2
#     Edge 14, Type (0, 0), BuildingBlock: EYOCIG_clean_linker_4, # of connection points: 2
#     Edge 15, Type (0, 0), BuildingBlock: EYOCIG_clean_linker_4, # of connection points: 2
#     Edge 16, Type (0, 0), BuildingBlock: EYOCIG_clean_linker_4, # of connection points: 2
#     Edge 17, Type (0, 0), BuildingBlock: EYOCIG_clean_linker_4, # of connection points: 2
#     Edge 18, Type (0, 0), BuildingBlock: EYOCIG_clean_linker_4, # of connection points: 2
#     Edge 19, Type (0, 0), BuildingBlock: EYOCIG_clean_linker_4, # of connection points: 2
#     Edge 20, Type (0, 0), BuildingBlock: EYOCIG_clean_linker_4, # of connection points: 2
#     Edge 21, Type (0, 0), BuildingBlock: EYOCIG_clean_linker_4, # of connection points: 2
#     Edge 22, Type (0, 0), BuildingBlock: EYOCIG_clean_linker_4, # of connection points: 2
#     Edge 23, Type (0, 0), BuildingBlock: EYOCIG_clean_linker_4, # of connection points: 2
# Relax obj value: 0.227
# Max RMSD: 0.073
# Mean RMSD: 0.073
data_MOF--net-rac--node1-QUQFOY_clean_sbu_3--edge1-EYOCIG_clean_linker_4
_symmetry_space_group_name_H-M    P1
_symmetry_Int_Tables_number       1
_symmetry_cell_setting            triclinic
loop_
_symmetry_equiv_pos_as_xyz
'x, y, z'
_cell_length_a     35.578587
_cell_length_b     17.552141
_cell_length_c     29.480598
_cell_angle_alpha  89.976971
_cell_angle_beta   89.949103
_cell_angle_gamma 90.032669
loop_
_atom_site_label
_atom_site_type_symbol
_atom_site_fract_x
_atom_site_fract_y
_atom_site_fract_z
_atom_type_partial_charge
C0 C 0.30002 0.27887 0.14538 0.0
O1 O 0.26763 0.30256 0.13422 0.0
Cd2 Cd 0.24579 0.31835 0.05771 0.0
O3 O 0.32581 0.26881 0.11596 0.0
Cd4 Cd 0.33559 0.28849 0.03285 0.0
C5 C 0.27445 0.14045 0.02024 0.0
O6 O 0.29096 0.38366 0.01403 0.0
O7 O 0.31096 0.31573 0.95734 0.0
O8 O 0.37995 0.38876 0.04879 0.0
C9 C 0.29102 0.3704 0.97173 0.0
O10 O 0.24915 0.18852 0.0307 0.0
C11 C 0.40635 0.36284 0.02442 0.0
O12 O 0.30946 0.1578 0.02008 0.0
O13 O 0.40171 0.29739 0.00643 0.0
C14 C 0.15452 0.67583 0.14467 0.0
O15 O 0.18619 0.64805 0.13378 0.0
Cd16 Cd 0.20825 0.62935 0.05747 0.0
O17 O 0.12934 0.68936 0.11503 0.0
Cd18 Cd 0.11963 0.67154 0.03183 0.0
C19 C 0.18605 0.81081 0.01989 0.0
O20 O 0.16115 0.57058 0.01355 0.0
O21 O 0.14339 0.64008 0.95649 0.0
O22 O 0.07214 0.57764 0.04756 0.0
C23 C 0.16161 0.58323 0.97118 0.0
O24 O 0.20971 0.7595 0.0305 0.0
C25 C 0.04683 0.60665 0.0228 0.0
O26 O 0.15057 0.79805 0.01944 0.0
O27 O 0.05358 0.67138 0.0048 0.0
C28 C 0.30062 0.17986 0.3633 0.0
O29 O 0.26902 0.15155 0.37405 0.0
Cd30 Cd 0.2471 0.13039 0.45022 0.0
O31 O 0.32588 0.19273 0.39295 0.0
Cd32 Cd 0.3358 0.17264 0.47594 0.0
C33 C 0.26917 0.31087 0.48952 0.0
O34 O 0.29438 0.07109 0.49354 0.0
O35 O 0.31227 0.13932 0.55108 0.0
O36 O 0.38319 0.07912 0.45928 0.0
C37 C 0.294 0.08279 0.53601 0.0
O38 O 0.24558 0.25966 0.47846 0.0
C39 C 0.40858 0.10759 0.48415 0.0
O40 O 0.30468 0.29848 0.4897 0.0
O41 O 0.40192 0.17192 0.50267 0.0
C42 C 0.15492 0.77393 0.36265 0.0
O43 O 0.18738 0.79752 0.37363 0.0
Cd44 Cd 0.20932 0.81505 0.44996 0.0
O45 O 0.12907 0.76489 0.39213 0.0
Cd46 Cd 0.11941 0.7867 0.47507 0.0
C47 C 0.18008 0.63852 0.48922 0.0
O48 O 0.16439 0.88169 0.49315 0.0
O49 O 0.14417 0.81505 0.55032 0.0
O50 O 0.0755 0.88739 0.4584 0.0
C51 C 0.16432 0.86917 0.53554 0.0
O52 O 0.2055 0.68609 0.47825 0.0
C53 C 0.04897 0.8623 0.48291 0.0
O54 O 0.14512 0.6561 0.48918 0.0
O55 O 0.05333 0.79712 0.50137 0.0
C56 C 0.65549 0.68095 0.86205 0.0
O57 O 0.68716 0.65328 0.87299 0.0
Cd58 Cd 0.70873 0.63257 0.94927 0.0
O59 O 0.63 0.69326 0.89156 0.0
Cd60 Cd 0.61973 0.67293 0.9745 0.0
C61 C 0.68557 0.81261 0.98836 0.0
O62 O 0.66155 0.57232 0.99242 0.0
O63 O 0.64318 0.64054 0.04976 0.0
O64 O 0.57275 0.57839 0.95791 0.0
C65 C 0.66172 0.58427 0.03486 0.0
O66 O 0.70945 0.76189 0.97745 0.0
C67 C 0.54717 0.60655 0.98267 0.0
O68 O 0.65012 0.79948 0.98837 0.0
O69 O 0.55354 0.6711 1.00105 0.0
C70 C 0.79948 0.27583 0.86127 0.0
O71 O 0.76715 0.29985 0.8725 0.0
Cd72 Cd 0.74557 0.31774 0.94899 0.0
O73 O 0.82541 0.2665 0.89054 0.0
Cd74 Cd 0.83547 0.28825 0.97339 0.0
C75 C 0.7743 0.14083 0.98797 0.0
O76 O 0.79091 0.38375 0.99186 0.0
O77 O 0.81112 0.31678 0.04884 0.0
O78 O 0.87962 0.38849 0.95649 0.0
C79 C 0.79112 0.37118 0.03425 0.0
O80 O 0.749 0.1887 0.97722 0.0
C81 C 0.9061 0.36317 0.98091 0.0
O82 O 0.80933 0.15801 0.98765 0.0
O83 O 0.90161 0.29797 0.99932 0.0
C84 C 0.65652 0.78098 0.6442 0.0
O85 O 0.68879 0.80526 0.6329 0.0
Cd86 Cd 0.71035 0.82144 0.55621 0.0
O87 O 0.63069 0.77062 0.61492 0.0
Cd88 Cd 0.62057 0.79057 0.53195 0.0
C89 C 0.68203 0.6432 0.51896 0.0
O90 O 0.66493 0.88616 0.51272 0.0
O91 O 0.64473 0.81807 0.45622 0.0
O92 O 0.57631 0.89055 0.54861 0.0
C93 C 0.66468 0.87287 0.47041 0.0
O94 O 0.70727 0.69156 0.52925 0.0
C95 C 0.54975 0.86466 0.52451 0.0
O96 O 0.64699 0.66017 0.51902 0.0
O97 O 0.55429 0.79932 0.50632 0.0
C98 C 0.79972 0.17737 0.64322 0.0
O99 O 0.76804 0.14998 0.63202 0.0
Cd100 Cd 0.74659 0.13189 0.55545 0.0
O101 O 0.82518 0.19063 0.61383 0.0
Cd102 Cd 0.83567 0.17285 0.53077 0.0
C103 C 0.76997 0.31322 0.51845 0.0
O104 O 0.79385 0.07272 0.51193 0.0
O105 O 0.81247 0.14195 0.45509 0.0
O106 O 0.88253 0.0781 0.54723 0.0
C107 C 0.7938 0.08547 0.46956 0.0
O108 O 0.74601 0.26221 0.52874 0.0
C109 C 0.9083 0.10673 0.52292 0.0
O110 O 0.8054 0.29993 0.5183 0.0
O111 O 0.90206 0.17154 0.50478 0.0
C112 C 0.24391 0.00638 0.00611 0.0
C113 C 0.26186 0.06413 0.01133 0.0
C114 C 0.21982 0.94214 0.00611 0.0
C115 C 0.20098 0.88555 0.01132 0.0
C116 C 0.21063 0.50496 0.50444 0.0
C117 C 0.19253 0.56238 0.49884 0.0
C118 C 0.23501 0.44127 0.5044 0.0
C119 C 0.2541 0.3852 0.49876 0.0
C120 C 0.71918 0.94359 1.00325 0.0
C121 C 0.70026 0.88726 0.99762 0.0
C122 C 0.74351 0.00741 1.00324 0.0
C123 C 0.76166 0.06479 0.99756 0.0
C124 C 0.71273 0.5093 0.5048 0.0
C125 C 0.69475 0.56698 0.51007 0.0
C126 C 0.73674 0.44501 0.50476 0.0
C127 C 0.75541 0.38823 0.50994 0.0
C128 C 0.30955 0.24118 0.23135 0.0
C129 C 0.30652 0.25765 0.19178 0.0
C130 C 0.30964 0.21992 0.2776 0.0
C131 C 0.30678 0.20252 0.31705 0.0
C132 C 0.14532 0.73523 0.27687 0.0
C133 C 0.14832 0.75214 0.31637 0.0
C134 C 0.14531 0.71416 0.2306 0.0
C135 C 0.14828 0.69753 0.19105 0.0
C136 C 0.64685 0.72119 0.77634 0.0
C137 C 0.64953 0.70368 0.81579 0.0
C138 C 0.6471 0.74271 0.73014 0.0
C139 C 0.65016 0.75947 0.69061 0.0
C140 C 0.80859 0.21558 0.72921 0.0
C141 C 0.8057 0.19893 0.68966 0.0
C142 C 0.80865 0.23678 0.77546 0.0
C143 C 0.80581 0.25385 0.81495 0.0
C144 C 0.46247 0.45773 0.00754 0.0
C145 C 0.43793 0.4111 0.01368 0.0
C146 C 0.48971 0.51542 0.99991 0.0
C147 C 0.51478 0.56088 0.99384 0.0
C148 C -0.01079 0.51645 0.00497 0.0
C149 C 0.01432 0.56171 0.01124 0.0
C150 C 0.96201 0.45873 0.99732 0.0
C151 C 0.93753 0.41193 0.99137 0.0
C152 C 0.49354 0.95951 0.50846 0.0
C153 C 0.51811 0.9129 0.51422 0.0
C154 C 0.46625 0.01714 0.50117 0.0
C155 C 0.4411 0.06241 0.49526 0.0
C156 C 0.96593 0.01594 0.50625 0.0
C157 C 0.94083 0.0614 0.51204 0.0
C158 C -0.00688 0.95809 0.49902 0.0
C159 C 0.01756 0.91117 0.49323 0.0
C160 C 0.21062 0.50024 0.92861 0.0
C161 C 0.187 0.54256 0.94282 0.0
C162 C 0.24071 0.44909 0.92865 0.0
C163 C 0.26503 0.40859 0.94297 0.0
C164 C 0.245 -0.00093 0.57821 0.0
C165 C 0.26862 0.04157 0.56413 0.0
C166 C 0.21487 0.94797 0.5782 0.0
C167 C 0.19044 0.90755 0.56403 0.0
C168 C 0.7108 0.50142 0.07732 0.0
C169 C 0.68711 0.54358 0.06315 0.0
C170 C 0.74092 0.45037 0.07726 0.0
C171 C 0.76521 0.40975 0.06295 0.0
C172 C 0.71466 0.95197 0.42686 0.0
C173 C 0.69046 0.91128 0.4414 0.0
C174 C 0.74477 0.00315 0.42667 0.0
C175 C 0.76848 0.04523 0.44092 0.0
loop_
_geom_bond_atom_site_label_1
_geom_bond_atom_site_label_2
_geom_bond_distance
_geom_bond_site_symmetry_2
_ccdc_geom_bond_type
C0 O1 1.306 . S
C0 O3 1.160 . S
O1 C0 1.306 . S
O1 Cd2 2.228 . S
Cd2 O1 2.228 . S
Cd2 O6 2.273 . S
Cd2 O10 2.277 . S
O3 C0 1.160 . S
O3 Cd4 2.203 . S
Cd4 O3 2.203 . S
Cd4 O6 2.411 . S
Cd4 O7 2.333 1_554 S
Cd4 O8 2.352 . S
Cd4 O12 2.277 . S
Cd4 O13 2.356 1_554 S
C5 O10 1.209 . S
C5 O12 1.226 . S
O6 Cd2 2.273 . S
O6 Cd4 2.411 . S
O6 C9 1.320 . S
O7 Cd4 2.333 1_556 S
O7 C9 1.214 1_556 S
O8 Cd4 2.352 . S
O8 C11 1.258 . S
C9 O6 1.320 . S
C9 O7 1.214 1_554 S
O10 Cd2 2.277 . S
O10 C5 1.209 . S
C11 O8 1.258 . S
C11 O13 1.282 1_554 S
O12 Cd4 2.277 . S
O12 C5 1.226 . S
O13 Cd4 2.356 1_556 S
O13 C11 1.282 1_556 S
C14 O15 1.306 . S
C14 O17 1.160 . S
O15 C14 1.306 . S
O15 Cd16 2.228 . S
Cd16 O15 2.228 . S
Cd16 O20 2.273 . S
Cd16 O24 2.277 . S
O17 C14 1.160 . S
O17 Cd18 2.203 . S
Cd18 O17 2.203 . S
Cd18 O20 2.411 . S
Cd18 O21 2.333 1_554 S
Cd18 O22 2.352 . S
Cd18 O26 2.277 . S
Cd18 O27 2.356 1_554 S
C19 O24 1.209 . S
C19 O26 1.226 . S
O20 Cd16 2.273 . S
O20 Cd18 2.411 . S
O20 C23 1.320 . S
O21 Cd18 2.333 1_556 S
O21 C23 1.214 1_556 S
O22 Cd18 2.352 . S
O22 C25 1.258 . S
C23 O20 1.320 . S
C23 O21 1.214 1_554 S
O24 Cd16 2.277 . S
O24 C19 1.209 . S
C25 O22 1.258 . S
C25 O27 1.282 1_554 S
O26 Cd18 2.277 . S
O26 C19 1.226 . S
O27 Cd18 2.356 1_556 S
O27 C25 1.282 1_556 S
C28 O29 1.306 . S
C28 O31 1.160 . S
O29 C28 1.306 . S
O29 Cd30 2.228 . S
Cd30 O29 2.228 . S
Cd30 O34 2.273 . S
Cd30 O38 2.277 . S
O31 C28 1.160 . S
O31 Cd32 2.203 . S
Cd32 O31 2.203 . S
Cd32 O34 2.411 . S
Cd32 O35 2.333 . S
Cd32 O36 2.352 . S
Cd32 O40 2.277 . S
Cd32 O41 2.356 . S
C33 O38 1.209 . S
C33 O40 1.226 . S
O34 Cd30 2.273 . S
O34 Cd32 2.411 . S
O34 C37 1.320 . S
O35 Cd32 2.333 . S
O35 C37 1.214 . S
O36 Cd32 2.352 . S
O36 C39 1.258 . S
C37 O34 1.320 . S
C37 O35 1.214 . S
O38 Cd30 2.277 . S
O38 C33 1.209 . S
C39 O36 1.258 . S
C39 O41 1.282 . S
O40 Cd32 2.277 . S
O40 C33 1.226 . S
O41 Cd32 2.356 . S
O41 C39 1.282 . S
C42 O43 1.306 . S
C42 O45 1.160 . S
O43 C42 1.306 . S
O43 Cd44 2.228 . S
Cd44 O43 2.228 . S
Cd44 O48 2.273 . S
Cd44 O52 2.277 . S
O45 C42 1.160 . S
O45 Cd46 2.203 . S
Cd46 O45 2.203 . S
Cd46 O48 2.411 . S
Cd46 O49 2.333 . S
Cd46 O50 2.352 . S
Cd46 O54 2.277 . S
Cd46 O55 2.356 . S
C47 O52 1.209 . S
C47 O54 1.226 . S
O48 Cd44 2.273 . S
O48 Cd46 2.411 . S
O48 C51 1.320 . S
O49 Cd46 2.333 . S
O49 C51 1.214 . S
O50 Cd46 2.352 . S
O50 C53 1.258 . S
C51 O48 1.320 . S
C51 O49 1.214 . S
O52 Cd44 2.277 . S
O52 C47 1.209 . S
C53 O50 1.258 . S
C53 O55 1.282 . S
O54 Cd46 2.277 . S
O54 C47 1.226 . S
O55 Cd46 2.356 . S
O55 C53 1.282 . S
C56 O57 1.306 . S
C56 O59 1.160 . S
O57 C56 1.306 . S
O57 Cd58 2.228 . S
Cd58 O57 2.228 . S
Cd58 O62 2.273 . S
Cd58 O66 2.277 . S
O59 C56 1.160 . S
O59 Cd60 2.203 . S
Cd60 O59 2.203 . S
Cd60 O62 2.411 . S
Cd60 O63 2.333 1_556 S
Cd60 O64 2.352 . S
Cd60 O68 2.277 . S
Cd60 O69 2.356 1_556 S
C61 O66 1.209 . S
C61 O68 1.226 . S
O62 Cd58 2.273 . S
O62 Cd60 2.411 . S
O62 C65 1.320 . S
O63 Cd60 2.333 1_554 S
O63 C65 1.214 1_554 S
O64 Cd60 2.352 . S
O64 C67 1.258 . S
C65 O62 1.320 . S
C65 O63 1.214 1_556 S
O66 Cd58 2.277 . S
O66 C61 1.209 . S
C67 O64 1.258 . S
C67 O69 1.282 1_556 S
O68 Cd60 2.277 . S
O68 C61 1.226 . S
O69 Cd60 2.356 1_554 S
O69 C67 1.282 1_554 S
C70 O71 1.306 . S
C70 O73 1.160 . S
O71 C70 1.306 . S
O71 Cd72 2.228 . S
Cd72 O71 2.228 . S
Cd72 O76 2.273 . S
Cd72 O80 2.277 . S
O73 C70 1.160 . S
O73 Cd74 2.203 . S
Cd74 O73 2.203 . S
Cd74 O76 2.411 . S
Cd74 O77 2.333 1_556 S
Cd74 O78 2.352 . S
Cd74 O82 2.277 . S
Cd74 O83 2.356 1_556 S
C75 O80 1.209 . S
C75 O82 1.226 . S
O76 Cd72 2.273 . S
O76 Cd74 2.411 . S
O76 C79 1.320 . S
O77 Cd74 2.333 1_554 S
O77 C79 1.214 1_554 S
O78 Cd74 2.352 . S
O78 C81 1.258 . S
C79 O76 1.320 . S
C79 O77 1.214 1_556 S
O80 Cd72 2.277 . S
O80 C75 1.209 . S
C81 O78 1.258 . S
C81 O83 1.282 1_556 S
O82 Cd74 2.277 . S
O82 C75 1.226 . S
O83 Cd74 2.356 1_554 S
O83 C81 1.282 1_554 S
C84 O85 1.306 . S
C84 O87 1.160 . S
O85 C84 1.306 . S
O85 Cd86 2.228 . S
Cd86 O85 2.228 . S
Cd86 O90 2.273 . S
Cd86 O94 2.277 . S
O87 C84 1.160 . S
O87 Cd88 2.203 . S
Cd88 O87 2.203 . S
Cd88 O90 2.411 . S
Cd88 O91 2.333 . S
Cd88 O92 2.352 . S
Cd88 O96 2.277 . S
Cd88 O97 2.356 . S
C89 O94 1.209 . S
C89 O96 1.226 . S
O90 Cd86 2.273 . S
O90 Cd88 2.411 . S
O90 C93 1.320 . S
O91 Cd88 2.333 . S
O91 C93 1.214 . S
O92 Cd88 2.352 . S
O92 C95 1.258 . S
C93 O90 1.320 . S
C93 O91 1.214 . S
O94 Cd86 2.277 . S
O94 C89 1.209 . S
C95 O92 1.258 . S
C95 O97 1.282 . S
O96 Cd88 2.277 . S
O96 C89 1.226 . S
O97 Cd88 2.356 . S
O97 C95 1.282 . S
C98 O99 1.306 . S
C98 O101 1.160 . S
O99 C98 1.306 . S
O99 Cd100 2.228 . S
Cd100 O99 2.228 . S
Cd100 O104 2.273 . S
Cd100 O108 2.277 . S
O101 C98 1.160 . S
O101 Cd102 2.203 . S
Cd102 O101 2.203 . S
Cd102 O104 2.411 . S
Cd102 O105 2.333 . S
Cd102 O106 2.352 . S
Cd102 O110 2.277 . S
Cd102 O111 2.356 . S
C103 O108 1.209 . S
C103 O110 1.226 . S
O104 Cd100 2.273 . S
O104 Cd102 2.411 . S
O104 C107 1.320 . S
O105 Cd102 2.333 . S
O105 C107 1.214 . S
O106 Cd102 2.352 . S
O106 C109 1.258 . S
C107 O104 1.320 . S
C107 O105 1.214 . S
O108 Cd100 2.277 . S
O108 C103 1.209 . S
C109 O106 1.258 . S
C109 O111 1.282 . S
O110 Cd102 2.277 . S
O110 C103 1.226 . S
O111 Cd102 2.356 . S
O111 C109 1.282 . S
C112 C113 1.170 . S
C112 C114 1.380 1_545 S
C113 C112 1.170 . S
C114 C112 1.380 1_565 S
C114 C115 1.170 . S
C115 C114 1.170 . S
C116 C117 1.170 . S
C116 C118 1.380 . S
C117 C116 1.170 . S
C118 C116 1.380 . S
C118 C119 1.170 . S
C119 C118 1.170 . S
C120 C121 1.170 . S
C120 C122 1.380 1_565 S
C121 C120 1.170 . S
C122 C120 1.380 1_545 S
C122 C123 1.170 . S
C123 C122 1.170 . S
C124 C125 1.170 . S
C124 C126 1.380 . S
C125 C124 1.170 . S
C126 C124 1.380 . S
C126 C127 1.170 . S
C127 C126 1.170 . S
C128 C129 1.170 . S
C128 C130 1.380 . S
C129 C128 1.170 . S
C130 C128 1.380 . S
C130 C131 1.170 . S
C131 C130 1.170 . S
C132 C133 1.170 . S
C132 C134 1.380 . S
C133 C132 1.170 . S
C134 C132 1.380 . S
C134 C135 1.170 . S
C135 C134 1.170 . S
C136 C137 1.170 . S
C136 C138 1.380 . S
C137 C136 1.170 . S
C138 C136 1.380 . S
C138 C139 1.170 . S
C139 C138 1.170 . S
C140 C141 1.170 . S
C140 C142 1.380 . S
C141 C140 1.170 . S
C142 C140 1.380 . S
C142 C143 1.170 . S
C143 C142 1.170 . S
C144 C145 1.171 . S
C144 C146 1.380 . S
C145 C144 1.171 . S
C146 C144 1.380 . S
C146 C147 1.170 . S
C147 C146 1.170 . S
C148 C149 1.170 . S
C148 C150 1.380 1_455 S
C149 C148 1.170 . S
C150 C148 1.380 1_655 S
C150 C151 1.170 . S
C151 C150 1.170 . S
C152 C153 1.170 . S
C152 C154 1.380 1_565 S
C153 C152 1.170 . S
C154 C152 1.380 1_545 S
C154 C155 1.170 . S
C155 C154 1.170 . S
C156 C157 1.170 . S
C156 C158 1.380 1_645 S
C157 C156 1.170 . S
C158 C156 1.380 1_465 S
C158 C159 1.170 . S
C159 C158 1.170 . S
C160 C161 1.170 . S
C160 C162 1.380 . S
C161 C160 1.170 . S
C162 C160 1.380 . S
C162 C163 1.170 . S
C163 C162 1.170 . S
C164 C165 1.170 . S
C164 C166 1.380 1_545 S
C165 C164 1.170 . S
C166 C164 1.380 1_565 S
C166 C167 1.170 . S
C167 C166 1.170 . S
C168 C169 1.170 . S
C168 C170 1.380 . S
C169 C168 1.170 . S
C170 C168 1.380 . S
C170 C171 1.170 . S
C171 C170 1.170 . S
C172 C173 1.170 . S
C172 C174 1.380 1_565 S
C173 C172 1.170 . S
C174 C172 1.380 1_545 S
C174 C175 1.170 . S
C175 C174 1.170 . S
C113 C5 1.593 . S
C115 C19 1.585 . S
C117 C47 1.613 . S
C119 C33 1.591 . S
C121 C61 1.589 . S
C123 C75 1.605 . S
C125 C89 1.605 . S
C127 C103 1.605 . S
C129 C0 1.628 . S
C131 C28 1.655 . S
C133 C42 1.636 . S
C135 C14 1.656 . S
C137 C56 1.621 . S
C139 C84 1.621 . S
C141 C98 1.644 . S
C143 C70 1.653 . S
C145 C11 1.532 1_556 S
C147 C67 1.501 . S
C149 C25 1.533 1_556 S
C151 C81 1.502 . S
C153 C95 1.529 . S
C155 C39 1.522 . S
C157 C109 1.537 . S
C159 C53 1.502 . S
C161 C23 1.130 . S
C163 C9 1.133 . S
C165 C37 1.136 . S
C167 C51 1.134 . S
C169 C65 1.133 . S
C171 C79 1.118 . S
C173 C93 1.122 . S
C175 C107 1.135 . S
