# Generated by pormake.
# Topology sxc, (6)-cn, num edge types: 1
# Building blocks:
#     Node 0, Type 0, BuildingBlock: VOLQOD_clean_sbu_1, # of connection points: 6
#     Node 1, Type 0, BuildingBlock: VOLQOD_clean_sbu_1, # of connection points: 6
#     Node 2, Type 0, BuildingBlock: VOLQOD_clean_sbu_1, # of connection points: 6
#     Edge 3, Type (0, 0), BuildingBlock: AJUNOK_clean_linker_0, # of connection points: 2
#     Edge 4, Type (0, 0), BuildingBlock: AJUNOK_clean_linker_0, # of connection points: 2
#     Edge 5, Type (0, 0), BuildingBlock: AJUNOK_clean_linker_0, # of connection points: 2
#     Edge 6, Type (0, 0), BuildingBlock: AJUNOK_clean_linker_0, # of connection points: 2
#     Edge 7, Type (0, 0), BuildingBlock: AJUNOK_clean_linker_0, # of connection points: 2
#     Edge 8, Type (0, 0), BuildingBlock: AJUNOK_clean_linker_0, # of connection points: 2
#     Edge 9, Type (0, 0), BuildingBlock: AJUNOK_clean_linker_0, # of connection points: 2
#     Edge 10, Type (0, 0), BuildingBlock: AJUNOK_clean_linker_0, # of connection points: 2
#     Edge 11, Type (0, 0), BuildingBlock: AJUNOK_clean_linker_0, # of connection points: 2
# Relax obj value: 0.312
# Max RMSD: 0.245
# Mean RMSD: 0.245
data_MOF--net-sxc--node1-VOLQOD_clean_sbu_1--edge1-AJUNOK_clean_linker_0
_symmetry_space_group_name_H-M    P1
_symmetry_Int_Tables_number       1
_symmetry_cell_setting            triclinic
loop_
_symmetry_equiv_pos_as_xyz
'x, y, z'
_cell_length_a     12.438853
_cell_length_b     12.709892
_cell_length_c     39.646489
_cell_angle_alpha  90.180087
_cell_angle_beta   89.506271
_cell_angle_gamma 120.04617
loop_
_atom_site_label
_atom_site_type_symbol
_atom_site_fract_x
_atom_site_fract_y
_atom_site_fract_z
_atom_type_partial_charge
O0 O 0.05132 0.9334 0.06863 0.0
Zn1 Zn 0.07894 0.92493 0.01872 0.0
O2 O 0.9517 0.9394 0.99313 0.0
Zn3 Zn 0.86742 0.81063 0.96104 0.0
Zn4 Zn 0.82314 0.93015 0.02363 0.0
Zn5 Zn 0.02168 0.08076 0.96553 0.0
O6 O 0.91167 0.85441 0.91236 0.0
O7 O 0.01316 0.05431 0.9156 0.0
O8 O 0.05148 0.75076 0.01124 0.0
O9 O 0.90045 0.68175 0.97329 0.0
O10 O 0.68476 0.73141 0.96611 0.0
O11 O 0.67572 0.75429 0.02092 0.0
O12 O 0.79866 0.07746 0.01627 0.0
O13 O 0.25203 0.08076 0.01096 0.0
O14 O 0.94479 0.17696 0.97711 0.0
O15 O 0.19511 0.1844 0.9774 0.0
C16 C -0.0281 0.94761 0.08541 0.0
C17 C -0.03179 0.95778 0.89813 0.0
C18 C 0.63445 0.68839 -0.00544 0.0
C19 C -0.03023 0.6645 0.99302 0.0
C20 C 0.86155 0.16977 -0.00285 0.0
C21 C 0.27629 0.17764 -0.00521 0.0
O22 O 0.8822 0.94995 0.07105 0.0
O23 O 0.06797 0.06989 0.40197 0.0
Zn24 Zn 0.09516 0.10104 0.35189 0.0
O25 O -0.03017 0.96012 0.32687 0.0
Zn26 Zn 0.03915 0.8891 0.29797 0.0
Zn27 Zn 0.84353 0.84428 0.35793 0.0
Zn28 Zn 0.8806 0.00158 0.29585 0.0
O29 O 0.02967 0.9101 0.24777 0.0
O30 O 0.92749 0.01001 0.24761 0.0
O31 O 0.26794 0.11745 0.34367 0.0
O32 O 0.2136 0.95835 0.30976 0.0
O33 O -0.03814 0.7164 0.30917 0.0
O34 O 0.82296 0.6755 0.35047 0.0
O35 O 0.69299 0.86942 0.35476 0.0
O36 O 0.06606 0.24597 0.34359 0.0
O37 O 0.7008 0.88731 0.29976 0.0
O38 O 0.90395 0.1585 0.30912 0.0
C39 C -0.01199 -0.01929 0.41948 0.0
C40 C -0.016 0.96504 0.23184 0.0
C41 C 0.88176 0.64341 0.33015 0.0
C42 C 0.29381 0.04592 0.32718 0.0
C43 C 0.6508 0.88801 0.32763 0.0
C44 C -0.02195 0.24723 0.32727 0.0
O45 O 0.89986 0.88788 0.40547 0.0
O46 O -0.01771 0.92254 0.73264 0.0
Zn47 Zn -0.01986 0.90043 0.68251 0.0
O48 O -0.00315 0.0434 0.65991 0.0
Zn49 Zn 0.8664 0.0056 0.62927 0.0
Zn50 Zn -0.01554 0.15143 0.69269 0.0
Zn51 Zn 0.13745 0.11978 0.63093 0.0
O52 O 0.90203 -0.01053 0.58134 0.0
O53 O 0.10667 0.09381 0.58076 0.0
O54 O 0.8052 0.75705 0.67358 0.0
O55 O 0.72851 0.85146 0.64328 0.0
O56 O 0.80814 0.12338 0.63334 0.0
O57 O 0.80993 0.12762 0.6886 0.0
O58 O 0.13144 0.3214 0.68598 0.0
O59 O 0.13641 0.88728 0.67311 0.0
O60 O 0.22762 0.29257 0.642 0.0
O61 O 0.24649 0.05671 0.64282 0.0
C62 C -0.01023 0.00606 0.7519 0.0
C63 C 0.00425 0.03325 0.56542 0.0
C64 C 0.75394 0.11796 0.66101 0.0
C65 C 0.71409 0.75984 0.65964 0.0
C66 C 0.21982 0.36031 0.66434 0.0
C67 C 0.23702 0.96536 0.65836 0.0
O68 O -0.00492 0.10133 0.73994 0.0
C69 C 0.83391 0.33089 0.97233 0.0
C70 C 0.85831 0.28283 0.00106 0.0
C71 C 0.87342 0.45463 0.96999 0.0
C72 C 0.94076 0.5365 -0.00384 0.0
H73 H 0.78998 0.27341 0.95065 0.0
H74 H 0.85291 0.48663 0.94697 0.0
S75 S 0.02569 0.45414 0.07733 0.0
N76 N 0.95172 0.32428 0.05658 0.0
N77 N 0.0252 0.55818 0.05252 0.0
C78 C -0.03688 0.48889 0.02552 0.0
C79 C 0.92166 0.36179 0.02794 0.0
C80 C 0.4232 -0.01444 0.35943 0.0
C81 C 0.41134 0.0466 0.33141 0.0
C82 C 0.50174 0.93557 0.35831 0.0
C83 C 0.56976 0.94339 0.32891 0.0
H84 H 0.36402 -0.03209 0.38138 0.0
H85 H 0.50501 0.8861 0.3801 0.0
S86 S 0.5821 0.1092 0.25033 0.0
N87 N 0.48158 0.12224 0.27488 0.0
N88 N 0.63015 0.03084 0.27238 0.0
C89 C 0.5644 0.0117 0.30152 0.0
C90 C 0.48515 0.06275 0.30291 0.0
C91 C 0.49973 0.64532 0.63792 0.0
C92 C 0.58548 0.65943 0.66305 0.0
C93 C 0.37523 0.55547 0.64044 0.0
C94 C 0.33146 0.47805 0.66843 0.0
H95 H 0.52966 0.70191 0.61552 0.0
H96 H 0.3143 0.54182 0.61945 0.0
S97 S 0.51404 0.48283 0.7424 0.0
N98 N 0.61586 0.59353 0.71788 0.0
N99 N 0.37985 0.42314 0.72255 0.0
C100 C 0.41402 0.49457 0.69457 0.0
C101 C 0.54182 0.58534 0.69183 0.0
C102 C 0.55419 0.06702 0.69072 0.0
C103 C 0.61689 0.06534 0.66115 0.0
C104 C 0.42484 0.01824 0.69112 0.0
C105 C 0.35371 0.96472 0.66213 0.0
H106 H 0.6058 0.11044 0.71335 0.0
H107 H 0.38159 0.03071 0.71345 0.0
S108 S 0.46781 0.92078 0.57981 0.0
N109 N 0.59367 -0.00771 0.6031 0.0
N110 N 0.35178 0.90311 0.60424 0.0
C111 C 0.41345 0.9551 0.63322 0.0
C112 C 0.54469 0.00488 0.6326 0.0
C113 C 0.53656 0.48041 0.96893 0.0
C114 C 0.54945 0.55396 -0.00286 0.0
C115 C 0.45955 0.35388 0.96987 0.0
C116 C 0.39251 0.29428 -0.00091 0.0
H117 H 0.58412 0.52075 0.94539 0.0
H118 H 0.44577 0.30296 0.94677 0.0
S119 S 0.39705 0.44056 0.08052 0.0
N120 N 0.49281 0.5549 0.056 0.0
N121 N 0.34638 0.31654 0.05737 0.0
C122 C 0.4088 0.36494 0.02803 0.0
C123 C 0.48737 0.49462 0.02714 0.0
C124 C 0.88609 0.36475 0.30358 0.0
C125 C 0.95175 0.34824 0.32995 0.0
C126 C 0.85115 0.45322 0.30541 0.0
C127 C 0.8782 0.52727 0.33392 0.0
H128 H 0.86387 0.31068 0.2808 0.0
H129 H 0.80807 0.46793 0.28366 0.0
S130 S 0.04191 0.51822 0.41058 0.0
N131 N 0.03746 0.41052 0.38615 0.0
N132 N -0.02847 0.57816 0.38947 0.0
C133 C 0.93959 0.50951 0.36102 0.0
C134 C -0.02313 0.42 0.35902 0.0
C135 C 0.03928 0.90896 0.17623 0.0
C136 C -0.01022 -0.02936 0.19442 0.0
C137 C 0.03633 0.90458 0.14089 0.0
C138 C -0.01723 0.96075 0.12245 0.0
H139 H 0.07824 0.86126 0.18935 0.0
H140 H 0.0728 0.85365 0.12801 0.0
S141 S 0.85354 0.14598 0.15735 0.0
N142 N 0.89518 0.09828 0.19076 0.0
N143 N 0.88899 0.08869 0.12454 0.0
C144 C 0.93736 0.02664 0.14012 0.0
C145 C 0.94112 0.03202 0.17603 0.0
C146 C 0.09648 0.08518 0.47285 0.0
C147 C -0.00579 -0.01245 0.45688 0.0
C148 C 0.10093 0.09773 0.50805 0.0
C149 C 0.00261 0.014 0.52858 0.0
H150 H 0.17329 0.15359 0.45809 0.0
H151 H 0.18039 0.17548 0.51915 0.0
S152 S 0.71784 0.73709 0.49991 0.0
N153 N 0.7953 0.80145 0.46487 0.0
N154 N 0.80371 0.82602 0.53077 0.0
C155 C 0.9015 0.91416 0.51312 0.0
C156 C 0.89733 0.90062 0.47737 0.0
C157 C 0.0303 0.09301 0.81006 0.0
C158 C -0.01131 -0.009 0.78896 0.0
C159 C 0.0256 0.08132 0.84519 0.0
C160 C -0.02193 -0.03305 0.86079 0.0
H161 H 0.06655 0.183 0.79939 0.0
H162 H 0.05785 0.16293 0.86018 0.0
S163 S 0.85816 0.67076 0.81683 0.0
N164 N 0.89958 0.77149 0.78615 0.0
N165 N 0.89039 0.74932 0.8522 0.0
C166 C 0.93753 0.86405 0.83997 0.0
C167 C 0.94303 0.87614 0.80411 0.0
loop_
_geom_bond_atom_site_label_1
_geom_bond_atom_site_label_2
_geom_bond_distance
_geom_bond_site_symmetry_2
_ccdc_geom_bond_type
O0 Zn1 1.953 . S
O0 C16 1.225 1_565 S
Zn1 O0 1.953 . S
Zn1 O2 1.955 1_565 S
Zn1 O8 1.919 . S
Zn1 O13 1.924 1_565 S
O2 Zn1 1.955 1_545 S
O2 Zn3 1.916 1_444 S
O2 Zn4 1.957 1_455 S
O2 Zn5 1.938 1_554 S
Zn3 O2 1.916 1_666 S
Zn3 O6 1.933 . S
Zn3 O9 1.941 . S
Zn3 O10 1.965 . S
Zn4 O2 1.957 1_655 S
Zn4 O11 1.938 1_545 S
Zn4 O12 1.906 . S
Zn4 O22 1.953 . S
Zn5 O2 1.938 1_556 S
Zn5 O7 1.932 . S
Zn5 O14 1.977 . S
Zn5 O15 1.910 . S
O6 Zn3 1.933 . S
O6 C17 1.226 1_665 S
O7 Zn5 1.932 . S
O7 C17 1.307 . S
O8 Zn1 1.919 . S
O8 C19 1.253 1_554 S
O9 Zn3 1.941 . S
O9 C19 1.283 1_655 S
O10 Zn3 1.965 . S
O10 C18 1.303 1_556 S
O11 Zn4 1.938 1_565 S
O11 C18 1.247 . S
O12 Zn4 1.906 . S
O12 C20 1.304 1_554 S
O13 Zn1 1.924 1_545 S
O13 C21 1.311 . S
O14 Zn5 1.977 . S
O14 C20 1.272 1_455 S
O15 Zn5 1.910 . S
O15 C21 1.231 1_556 S
C16 O0 1.225 1_545 S
C16 O22 1.298 1_455 S
C17 O6 1.226 1_445 S
C17 O7 1.307 . S
C18 O10 1.303 1_554 S
C18 O11 1.247 . S
C19 O8 1.253 1_556 S
C19 O9 1.283 1_455 S
C20 O12 1.304 1_556 S
C20 O14 1.272 1_655 S
C21 O13 1.311 . S
C21 O15 1.231 1_554 S
O22 Zn4 1.953 . S
O22 C16 1.298 1_655 S
O23 Zn24 1.953 . S
O23 C39 1.225 . S
Zn24 O23 1.953 . S
Zn24 O25 1.951 . S
Zn24 O31 1.919 . S
Zn24 O36 1.924 . S
O25 Zn24 1.951 . S
O25 Zn26 1.926 1_545 S
O25 Zn27 1.948 1_445 S
O25 Zn28 1.942 1_455 S
Zn26 O25 1.926 1_565 S
Zn26 O29 1.933 . S
Zn26 O32 1.941 . S
Zn26 O33 1.965 1_455 S
Zn27 O25 1.948 1_665 S
Zn27 O34 1.938 . S
Zn27 O35 1.906 . S
Zn27 O45 1.953 . S
Zn28 O25 1.942 1_655 S
Zn28 O30 1.932 . S
Zn28 O37 1.977 . S
Zn28 O38 1.910 1_655 S
O29 Zn26 1.933 . S
O29 C40 1.226 1_565 S
O30 Zn28 1.932 . S
O30 C40 1.307 1_655 S
O31 Zn24 1.919 . S
O31 C42 1.253 . S
O32 Zn26 1.941 . S
O32 C42 1.283 1_565 S
O33 Zn26 1.965 1_655 S
O33 C41 1.303 . S
O34 Zn27 1.938 . S
O34 C41 1.247 . S
O35 Zn27 1.906 . S
O35 C43 1.304 . S
O36 Zn24 1.924 . S
O36 C44 1.311 . S
O37 Zn28 1.977 . S
O37 C43 1.272 1_545 S
O38 Zn28 1.910 1_455 S
O38 C44 1.231 . S
C39 O23 1.225 . S
C39 O45 1.298 1_445 S
C40 O29 1.226 1_545 S
C40 O30 1.307 1_455 S
C41 O33 1.303 . S
C41 O34 1.247 . S
C42 O31 1.253 . S
C42 O32 1.283 1_545 S
C43 O35 1.304 . S
C43 O37 1.272 1_565 S
C44 O36 1.311 . S
C44 O38 1.231 . S
O45 Zn27 1.953 . S
O45 C39 1.298 1_665 S
O46 Zn47 1.953 . S
O46 C62 1.225 1_665 S
Zn47 O46 1.953 . S
Zn47 O48 1.949 1_665 S
Zn47 O54 1.919 . S
Zn47 O59 1.924 1_655 S
O48 Zn47 1.949 1_445 S
O48 Zn49 1.923 1_445 S
O48 Zn50 1.950 . S
O48 Zn51 1.945 . S
Zn49 O48 1.923 1_665 S
Zn49 O52 1.933 . S
Zn49 O55 1.941 . S
Zn49 O56 1.965 1_565 S
Zn50 O48 1.950 . S
Zn50 O57 1.938 1_455 S
Zn50 O58 1.906 . S
Zn50 O68 1.953 . S
Zn51 O48 1.945 . S
Zn51 O53 1.932 . S
Zn51 O60 1.977 . S
Zn51 O61 1.910 1_545 S
O52 Zn49 1.933 . S
O52 C63 1.226 1_665 S
O53 Zn51 1.932 . S
O53 C63 1.307 . S
O54 Zn47 1.919 . S
O54 C65 1.253 . S
O55 Zn49 1.941 . S
O55 C65 1.283 . S
O56 Zn49 1.965 1_545 S
O56 C64 1.303 . S
O57 Zn50 1.938 1_655 S
O57 C64 1.247 . S
O58 Zn50 1.906 . S
O58 C66 1.304 . S
O59 Zn47 1.924 1_455 S
O59 C67 1.311 . S
O60 Zn51 1.977 . S
O60 C66 1.272 . S
O61 Zn51 1.910 1_565 S
O61 C67 1.231 . S
C62 O46 1.225 1_445 S
C62 O68 1.298 . S
C63 O52 1.226 1_445 S
C63 O53 1.307 . S
C64 O56 1.303 . S
C64 O57 1.247 . S
C65 O54 1.253 . S
C65 O55 1.283 . S
C66 O58 1.304 . S
C66 O60 1.272 . S
C67 O59 1.311 . S
C67 O61 1.231 . S
O68 Zn50 1.953 . S
O68 C62 1.298 . S
C69 C70 1.369 . S
C69 C71 1.419 . S
C69 H73 0.930 . S
C70 C69 1.369 . S
C70 C79 1.429 1_655 S
C71 C69 1.419 . S
C71 C72 1.363 1_655 S
C71 H74 0.929 . S
C72 C71 1.363 1_455 S
C72 C78 1.428 . S
H73 C69 0.930 . S
H74 C71 0.929 . S
S75 N76 1.613 . S
S75 N77 1.610 . S
N76 S75 1.613 . S
N76 C79 1.350 1_554 S
N77 S75 1.610 . S
N77 C78 1.351 1_554 S
C78 C72 1.428 . S
C78 N77 1.351 1_556 S
C78 C79 1.434 . S
C79 C70 1.429 1_455 S
C79 N76 1.350 1_556 S
C79 C78 1.434 . S
C80 C81 1.369 . S
C80 C82 1.419 . S
C80 H84 0.930 . S
C81 C80 1.369 . S
C81 C90 1.429 1_545 S
C82 C80 1.419 . S
C82 C83 1.363 1_545 S
C82 H85 0.929 . S
C83 C82 1.363 1_565 S
C83 C89 1.428 . S
H84 C80 0.930 . S
H85 C82 0.929 . S
S86 N87 1.613 . S
S86 N88 1.610 . S
N87 S86 1.613 . S
N87 C90 1.350 . S
N88 S86 1.610 . S
N88 C89 1.351 . S
C89 C83 1.428 . S
C89 N88 1.351 . S
C89 C90 1.434 . S
C90 C81 1.429 1_565 S
C90 N87 1.350 . S
C90 C89 1.434 . S
C91 C92 1.369 . S
C91 C93 1.419 . S
C91 H95 0.930 . S
C92 C91 1.369 . S
C92 C101 1.429 . S
C93 C91 1.419 . S
C93 C94 1.363 . S
C93 H96 0.929 . S
C94 C93 1.363 . S
C94 C100 1.428 . S
H95 C91 0.930 . S
H96 C93 0.929 . S
S97 N98 1.613 . S
S97 N99 1.610 . S
N98 S97 1.613 . S
N98 C101 1.350 . S
N99 S97 1.610 . S
N99 C100 1.351 . S
C100 C94 1.428 . S
C100 N99 1.351 . S
C100 C101 1.434 . S
C101 C92 1.429 . S
C101 N98 1.350 . S
C101 C100 1.434 . S
C102 C103 1.369 . S
C102 C104 1.419 . S
C102 H106 0.930 . S
C103 C102 1.369 . S
C103 C112 1.429 1_545 S
C104 C102 1.419 . S
C104 C105 1.363 1_545 S
C104 H107 0.929 . S
C105 C104 1.363 1_565 S
C105 C111 1.428 . S
H106 C102 0.930 . S
H107 C104 0.929 . S
S108 N109 1.613 . S
S108 N110 1.610 . S
N109 S108 1.613 . S
N109 C112 1.350 . S
N110 S108 1.610 . S
N110 C111 1.351 . S
C111 C105 1.428 . S
C111 N110 1.351 . S
C111 C112 1.434 . S
C112 C103 1.429 1_565 S
C112 N109 1.350 . S
C112 C111 1.434 . S
C113 C114 1.357 1_556 S
C113 C115 1.418 . S
C113 H117 0.943 . S
C114 C113 1.357 1_554 S
C114 C123 1.429 . S
C115 C113 1.418 . S
C115 C116 1.357 1_556 S
C115 H118 0.935 . S
C116 C115 1.357 1_554 S
C116 C122 1.428 . S
H117 C113 0.943 . S
H118 C115 0.935 . S
S119 N120 1.613 . S
S119 N121 1.610 . S
N120 S119 1.613 . S
N120 C123 1.350 . S
N121 S119 1.610 . S
N121 C122 1.351 . S
C122 C116 1.428 . S
C122 N121 1.351 . S
C122 C123 1.434 . S
C123 C114 1.429 . S
C123 N120 1.350 . S
C123 C122 1.434 . S
C124 C125 1.369 1_655 S
C124 C126 1.419 . S
C124 H128 0.930 . S
C125 C124 1.369 1_455 S
C125 C134 1.429 . S
C126 C124 1.419 . S
C126 C127 1.363 . S
C126 H129 0.929 . S
C127 C126 1.363 . S
C127 C133 1.428 1_655 S
H128 C124 0.930 . S
H129 C126 0.929 . S
S130 N131 1.613 . S
S130 N132 1.610 . S
N131 S130 1.613 . S
N131 C134 1.350 . S
N132 S130 1.610 . S
N132 C133 1.351 . S
C133 C127 1.428 1_455 S
C133 N132 1.351 . S
C133 C134 1.434 . S
C134 C125 1.429 . S
C134 N131 1.350 . S
C134 C133 1.434 . S
C135 C136 1.369 1_665 S
C135 C137 1.419 . S
C135 H139 0.930 . S
C136 C135 1.369 1_445 S
C136 C145 1.429 . S
C137 C135 1.419 . S
C137 C138 1.363 1_665 S
C137 H140 0.929 . S
C138 C137 1.363 1_445 S
C138 C144 1.428 . S
H139 C135 0.930 . S
H140 C137 0.929 . S
S141 N142 1.613 . S
S141 N143 1.610 . S
N142 S141 1.613 . S
N142 C145 1.350 . S
N143 S141 1.610 . S
N143 C144 1.351 . S
C144 C138 1.428 . S
C144 N143 1.351 . S
C144 C145 1.434 . S
C145 C136 1.429 . S
C145 N142 1.350 . S
C145 C144 1.434 . S
C146 C147 1.369 . S
C146 C148 1.419 . S
C146 H150 0.930 . S
C147 C146 1.369 . S
C147 C156 1.429 1_445 S
C148 C146 1.419 . S
C148 C149 1.363 . S
C148 H151 0.929 . S
C149 C148 1.363 . S
C149 C155 1.428 1_445 S
H150 C146 0.930 . S
H151 C148 0.929 . S
S152 N153 1.613 . S
S152 N154 1.610 . S
N153 S152 1.613 . S
N153 C156 1.350 . S
N154 S152 1.610 . S
N154 C155 1.351 . S
C155 C149 1.428 1_665 S
C155 N154 1.351 . S
C155 C156 1.434 . S
C156 C147 1.429 1_665 S
C156 N153 1.350 . S
C156 C155 1.434 . S
C157 C158 1.369 . S
C157 C159 1.419 . S
C157 H161 0.930 . S
C158 C157 1.369 . S
C158 C167 1.429 1_445 S
C159 C157 1.419 . S
C159 C160 1.363 . S
C159 H162 0.929 . S
C160 C159 1.363 . S
C160 C166 1.428 1_445 S
H161 C157 0.930 . S
H162 C159 0.929 . S
S163 N164 1.613 . S
S163 N165 1.610 . S
N164 S163 1.613 . S
N164 C167 1.350 . S
N165 S163 1.610 . S
N165 C166 1.351 . S
C166 C160 1.428 1_665 S
C166 N165 1.351 . S
C166 C167 1.434 . S
C167 C158 1.429 1_665 S
C167 N164 1.350 . S
C167 C166 1.434 . S
C70 C20 1.245 . S
C72 C19 1.259 . S
C81 C42 1.255 . S
C83 C43 1.259 . S
C92 C65 1.248 . S
C94 C66 1.258 . S
C103 C64 1.390 . S
C105 C67 1.357 . S
C114 C18 1.400 . S
C116 C21 1.358 . S
C125 C44 1.362 . S
C127 C41 1.396 . S
C136 C40 1.500 . S
C138 C16 1.500 . S
C147 C39 1.500 . S
C149 C63 1.499 . S
C158 C62 1.499 . S
C160 C17 1.499 . S
