# Generated by pormake.
# Topology fee, (5)-cn, num edge types: 1
# Building blocks:
#     Node 0, Type 0, BuildingBlock: XOMCOT_clean_sbu_0, # of connection points: 5
#     Node 1, Type 0, BuildingBlock: XOMCOT_clean_sbu_0, # of connection points: 5
#     Node 2, Type 0, BuildingBlock: XOMCOT_clean_sbu_0, # of connection points: 5
#     Node 3, Type 0, BuildingBlock: XOMCOT_clean_sbu_0, # of connection points: 5
#     Edge 4, Type (0, 0), None
#     Edge 5, Type (0, 0), None
#     Edge 6, Type (0, 0), None
#     Edge 7, Type (0, 0), None
#     Edge 8, Type (0, 0), None
#     Edge 9, Type (0, 0), None
#     Edge 10, Type (0, 0), None
#     Edge 11, Type (0, 0), None
#     Edge 12, Type (0, 0), None
#     Edge 13, Type (0, 0), None
# Relax obj value: 0.159
# Max RMSD: 0.170
# Mean RMSD: 0.144
data_MOF--net-fee--node1-XOMCOT_clean_sbu_0--edge1-none
_symmetry_space_group_name_H-M    P1
_symmetry_Int_Tables_number       1
_symmetry_cell_setting            triclinic
loop_
_symmetry_equiv_pos_as_xyz
'x, y, z'
_cell_length_a     18.836573
_cell_length_b     18.180046
_cell_length_c     9.5395057
_cell_angle_alpha  96.392166
_cell_angle_beta   94.957959
_cell_angle_gamma 87.537941
loop_
_atom_site_label
_atom_site_type_symbol
_atom_site_fract_x
_atom_site_fract_y
_atom_site_fract_z
_atom_type_partial_charge
Co0 Co 0.15276 0.61076 0.12229 0.0
C1 C 0.1499 0.5876 0.42647 0.0
C2 C 0.14004 0.70227 0.3911 0.0
C3 C 0.1378 0.69796 0.53381 0.0
N4 N 0.14812 0.6333 0.32422 0.0
N5 N 0.14393 0.62597 0.5549 0.0
H6 H 0.15543 0.52811 0.40785 0.0
H7 H 0.13601 0.75246 0.33935 0.0
C8 C 0.2621 0.71941 0.05806 0.0
O9 O 0.27892 0.67947 0.94161 0.0
N10 N 0.15573 0.58851 0.91874 0.0
C11 C 0.16159 0.51987 0.84889 0.0
C12 C 0.15747 0.52479 0.70603 0.0
C13 C 0.14504 0.63436 0.81617 0.0
N14 N 0.14748 0.5966 0.6861 0.0
C15 C 0.20894 0.46434 0.16083 0.0
C16 C 0.3443 0.48513 0.08641 0.0
C17 C 0.32109 0.41253 0.08107 0.0
C18 C 0.25385 0.40262 0.12688 0.0
C19 C 0.29818 0.54528 0.12378 0.0
N20 N 0.22917 0.53474 0.1488 0.0
H21 H 0.15548 0.45441 0.18463 0.0
H22 H 0.31847 0.5996 0.12833 0.0
H23 H 0.16653 0.46881 0.89677 0.0
H24 H 0.13638 0.69365 0.83658 0.0
O25 O 0.07192 0.54841 0.11054 0.0
O26 O 0.06557 0.66945 0.09421 0.0
O27 O 0.2191 0.69617 0.13741 0.0
C28 C 0.03291 0.60805 0.095 0.0
H29 H 0.1326 0.74392 0.61507 0.0
H30 H 0.16111 0.47909 0.6238 0.0
H31 H 0.39767 0.49563 0.06114 0.0
H32 H 0.23451 0.34761 0.12974 0.0
Co33 Co 0.43133 0.1998 0.11501 0.0
C34 C 0.45224 0.19277 0.42544 0.0
C35 C 0.35144 0.24424 0.36292 0.0
C36 C 0.35448 0.23951 0.50611 0.0
N37 N 0.41283 0.21567 0.31256 0.0
N38 N 0.41748 0.20681 0.54414 0.0
H39 H 0.504 0.16492 0.42005 0.0
H40 H 0.30589 0.26427 0.29959 0.0
C41 C 0.36859 0.34825 0.03655 0.0
O42 O 0.424 0.35858 0.96707 0.0
N43 N 0.44779 0.18204 0.91363 0.0
C44 C 0.49617 0.13341 0.85419 0.0
C45 C 0.49233 0.13712 0.7107 0.0
C46 C 0.41234 0.21148 0.8026 0.0
N47 N 0.43998 0.18647 0.67956 0.0
C48 C 0.57548 0.23731 0.10151 0.0
C49 C 0.56006 0.38603 0.19189 0.0
C50 C 0.61977 0.3604 0.11963 0.0
C51 C 0.62921 0.28434 0.08256 0.0
C52 C 0.50789 0.33603 0.21101 0.0
N53 N 0.5124 0.26463 0.14947 0.0
H54 H 0.58371 0.17908 0.07134 0.0
H55 H 0.46127 0.35617 0.26401 0.0
H56 H 0.53168 0.09619 0.90979 0.0
H57 H 0.36664 0.24905 0.81007 0.0
O58 O 0.48293 0.10921 0.14645 0.0
O59 O 0.36644 0.1173 0.08878 0.0
O60 O 0.36099 0.28592 0.08326 0.0
C61 C 0.42321 0.07596 0.11675 0.0
H62 H 0.31258 0.25576 0.57517 0.0
H63 H 0.5241 0.10484 0.63523 0.0
H64 H 0.55306 0.44405 0.23004 0.0
H65 H 0.67626 0.26155 0.03343 0.0
Co66 Co 0.83726 0.59747 0.09041 0.0
C67 C 0.8442 0.57624 0.77885 0.0
C68 C 0.80012 0.68337 0.85052 0.0
C69 C 0.8058 0.68051 0.70724 0.0
N70 N 0.82349 0.61794 0.89511 0.0
N71 N 0.83391 0.61351 0.66345 0.0
H72 H 0.86783 0.52098 0.77961 0.0
H73 H 0.78313 0.73136 0.91814 0.0
C74 C 0.69921 0.66415 0.19098 0.0
O75 O 0.69279 0.60677 0.26104 0.0
N76 N 0.85351 0.57902 0.28974 0.0
C77 C 0.89533 0.52424 0.34242 0.0
C78 C 0.8931 0.52921 0.48678 0.0
C79 C 0.83069 0.61974 0.40573 0.0
N80 N 0.85198 0.58886 0.52533 0.0
C81 C 0.79468 0.44846 0.09289 0.0
C82 C 0.65192 0.47499 1.01775 0.0
C83 C 0.67289 0.41174 0.08489 0.0
C84 C 0.74576 0.39635 0.1138 0.0
C85 C 0.70342 0.52514 0.99669 0.0
N86 N 0.7722 0.51559 0.05167 0.0
H87 H 0.85042 0.43594 0.11611 0.0
H88 H 0.68675 0.57485 0.94863 0.0
H89 H 0.92738 0.48391 0.28176 0.0
H90 H 0.79995 0.67115 0.40377 0.0
O91 O 0.92441 0.543 0.05281 0.0
O92 O 0.91551 0.66422 0.1188 0.0
O93 O 0.7561 0.67135 0.13087 0.0
C94 C 0.9555 0.60569 0.08539 0.0
H95 H 0.79298 0.72502 0.64196 0.0
H96 H 0.92072 0.493 0.55768 0.0
H97 H 0.59638 0.48635 0.98516 0.0
H98 H 0.76472 0.34599 0.15778 0.0
Co99 Co 0.43355 0.86962 0.09505 0.0
C100 C 0.45744 0.86804 0.78824 0.0
C101 C 0.34791 0.8561 0.82422 0.0
C102 C 0.35182 0.85731 0.6816 0.0
N103 N 0.41401 0.86163 0.89128 0.0
N104 N 0.42048 0.86491 0.65985 0.0
H105 H 0.51387 0.87702 0.80646 0.0
H106 H 0.29922 0.85481 0.87545 0.0
C107 C 0.3007 0.78692 0.10778 0.0
O108 O 0.26635 0.8482 0.15261 0.0
N109 N 0.45279 0.87829 0.29856 0.0
C110 C 0.51566 0.89894 0.36778 0.0
C111 C 0.51224 0.8963 0.51042 0.0
C112 C 0.41158 0.86343 0.39983 0.0
N113 N 0.44697 0.87402 0.52949 0.0
C114 C 0.57788 0.81762 0.05498 0.0
C115 C 0.5683 0.69006 0.18474 0.0
C116 C 0.63547 0.71126 0.15607 0.0
C117 C 0.63984 0.7752 0.08755 0.0
C118 C 0.50809 0.73345 0.15032 0.0
N119 N 0.51281 0.79697 0.08704 0.0
H120 H 0.58314 0.86959 1.01283 0.0
H121 H 0.45884 0.71785 0.18627 0.0
H122 H 0.56133 0.91434 0.31764 0.0
H123 H 0.35771 0.84465 0.37958 0.0
O124 O 0.4846 0.95853 0.09321 0.0
O125 O 0.36806 0.95613 0.10943 0.0
O126 O 0.3667 0.78667 0.09087 0.0
C127 C 0.42428 0.99485 0.10523 0.0
H128 H 0.30745 0.85592 0.60147 0.0
H129 H 0.55408 0.91002 0.59303 0.0
H130 H 0.56203 0.64093 0.23659 0.0
H131 H 0.69081 0.7938 0.06359 0.0
loop_
_geom_bond_atom_site_label_1
_geom_bond_atom_site_label_2
_geom_bond_distance
_geom_bond_site_symmetry_2
_ccdc_geom_bond_type
Co0 N4 2.148 . S
Co0 N10 2.128 1_554 S
Co0 N20 2.194 . S
Co0 O25 2.351 . S
Co0 O26 2.155 . S
Co0 O27 2.096 . S
C1 N4 1.301 . S
C1 N5 1.328 . S
C1 H6 0.930 . S
C2 C3 1.333 . S
C2 N4 1.317 . S
C2 H7 0.930 . S
C3 C2 1.333 . S
C3 N5 1.350 . S
C3 H29 0.931 . S
N4 Co0 2.148 . S
N4 C1 1.301 . S
N4 C2 1.317 . S
N5 C1 1.328 . S
N5 C3 1.350 . S
H6 C1 0.930 . S
H7 C2 0.930 . S
C8 O9 1.224 . S
C8 O27 1.247 . S
O9 C8 1.224 . S
N10 Co0 2.128 1_556 S
N10 C11 1.355 . S
N10 C13 1.311 . S
C11 N10 1.355 . S
C11 C12 1.363 . S
C11 H23 0.929 . S
C12 C11 1.363 . S
C12 N14 1.375 . S
C12 H30 0.931 . S
C13 N10 1.311 . S
C13 N14 1.347 . S
C13 H24 0.929 . S
N14 C12 1.375 . S
N14 C13 1.347 . S
C15 C18 1.365 . S
C15 N20 1.328 . S
C15 H21 0.929 . S
C16 C17 1.362 . S
C16 C19 1.378 . S
C16 H31 0.929 . S
C17 C16 1.362 . S
C17 C18 1.366 . S
C18 C15 1.365 . S
C18 C17 1.366 . S
C18 H32 0.930 . S
C19 C16 1.378 . S
C19 N20 1.315 . S
C19 H22 0.930 . S
N20 Co0 2.194 . S
N20 C15 1.328 . S
N20 C19 1.315 . S
H21 C15 0.929 . S
H22 C19 0.930 . S
H23 C11 0.929 . S
H24 C13 0.929 . S
O25 Co0 2.351 . S
O25 C28 1.244 . S
O26 Co0 2.155 . S
O26 C28 1.240 . S
O27 Co0 2.096 . S
O27 C8 1.247 . S
C28 O25 1.244 . S
C28 O26 1.240 . S
H29 C3 0.931 . S
H30 C12 0.931 . S
H31 C16 0.929 . S
H32 C18 0.930 . S
Co33 N37 2.148 . S
Co33 N43 2.128 1_554 S
Co33 N53 2.194 . S
Co33 O58 2.351 . S
Co33 O59 2.155 . S
Co33 O60 2.096 1_554 S
C34 N37 1.301 . S
C34 N38 1.328 . S
C34 H39 0.930 . S
C35 C36 1.333 . S
C35 N37 1.317 . S
C35 H40 0.930 . S
C36 C35 1.333 . S
C36 N38 1.350 . S
C36 H62 0.931 . S
N37 Co33 2.148 . S
N37 C34 1.301 . S
N37 C35 1.317 . S
N38 C34 1.328 . S
N38 C36 1.350 . S
H39 C34 0.930 . S
H40 C35 0.930 . S
C41 O42 1.224 1_556 S
C41 O60 1.247 . S
O42 C41 1.224 1_554 S
N43 Co33 2.128 1_556 S
N43 C44 1.355 . S
N43 C46 1.311 . S
C44 N43 1.355 . S
C44 C45 1.363 . S
C44 H56 0.929 . S
C45 C44 1.363 . S
C45 N47 1.375 . S
C45 H63 0.931 . S
C46 N43 1.311 . S
C46 N47 1.347 . S
C46 H57 0.929 . S
N47 C45 1.375 . S
N47 C46 1.347 . S
C48 C51 1.365 . S
C48 N53 1.328 . S
C48 H54 0.929 . S
C49 C50 1.362 . S
C49 C52 1.378 . S
C49 H64 0.929 . S
C50 C49 1.362 . S
C50 C51 1.366 . S
C51 C48 1.365 . S
C51 C50 1.366 . S
C51 H65 0.930 . S
C52 C49 1.378 . S
C52 N53 1.315 . S
C52 H55 0.930 . S
N53 Co33 2.194 . S
N53 C48 1.328 . S
N53 C52 1.315 . S
H54 C48 0.929 . S
H55 C52 0.930 . S
H56 C44 0.929 . S
H57 C46 0.929 . S
O58 Co33 2.351 . S
O58 C61 1.244 . S
O59 Co33 2.155 . S
O59 C61 1.240 . S
O60 Co33 2.096 1_556 S
O60 C41 1.247 . S
C61 O58 1.244 . S
C61 O59 1.240 . S
H62 C36 0.931 . S
H63 C45 0.931 . S
H64 C49 0.929 . S
H65 C51 0.930 . S
Co66 N70 2.148 1_554 S
Co66 N76 2.128 . S
Co66 N86 2.194 . S
Co66 O91 2.351 . S
Co66 O92 2.155 . S
Co66 O93 2.096 . S
C67 N70 1.301 . S
C67 N71 1.328 . S
C67 H72 0.930 . S
C68 C69 1.333 . S
C68 N70 1.317 . S
C68 H73 0.930 . S
C69 C68 1.333 . S
C69 N71 1.350 . S
C69 H95 0.931 . S
N70 Co66 2.148 1_556 S
N70 C67 1.301 . S
N70 C68 1.317 . S
N71 C67 1.328 . S
N71 C69 1.350 . S
H72 C67 0.930 . S
H73 C68 0.930 . S
C74 O75 1.224 . S
C74 O93 1.247 . S
O75 C74 1.224 . S
N76 Co66 2.128 . S
N76 C77 1.355 . S
N76 C79 1.311 . S
C77 N76 1.355 . S
C77 C78 1.363 . S
C77 H89 0.929 . S
C78 C77 1.363 . S
C78 N80 1.375 . S
C78 H96 0.931 . S
C79 N76 1.311 . S
C79 N80 1.347 . S
C79 H90 0.929 . S
N80 C78 1.375 . S
N80 C79 1.347 . S
C81 C84 1.365 . S
C81 N86 1.328 . S
C81 H87 0.929 . S
C82 C83 1.362 . S
C82 C85 1.378 . S
C82 H97 0.929 . S
C83 C82 1.362 . S
C83 C84 1.366 . S
C84 C81 1.365 . S
C84 C83 1.366 . S
C84 H98 0.930 . S
C85 C82 1.378 . S
C85 N86 1.315 . S
C85 H88 0.930 . S
N86 Co66 2.194 . S
N86 C81 1.328 . S
N86 C85 1.315 . S
H87 C81 0.929 . S
H88 C85 0.930 . S
H89 C77 0.929 . S
H90 C79 0.929 . S
O91 Co66 2.351 . S
O91 C94 1.244 . S
O92 Co66 2.155 . S
O92 C94 1.240 . S
O93 Co66 2.096 . S
O93 C74 1.247 . S
C94 O91 1.244 . S
C94 O92 1.240 . S
H95 C69 0.931 . S
H96 C78 0.931 . S
H97 C82 0.929 . S
H98 C84 0.930 . S
Co99 N103 2.148 1_554 S
Co99 N109 2.128 . S
Co99 N119 2.194 . S
Co99 O124 2.351 . S
Co99 O125 2.155 . S
Co99 O126 2.096 . S
C100 N103 1.301 . S
C100 N104 1.328 . S
C100 H105 0.930 . S
C101 C102 1.333 . S
C101 N103 1.317 . S
C101 H106 0.930 . S
C102 C101 1.333 . S
C102 N104 1.350 . S
C102 H128 0.931 . S
N103 Co99 2.148 1_556 S
N103 C100 1.301 . S
N103 C101 1.317 . S
N104 C100 1.328 . S
N104 C102 1.350 . S
H105 C100 0.930 . S
H106 C101 0.930 . S
C107 O108 1.224 . S
C107 O126 1.247 . S
O108 C107 1.224 . S
N109 Co99 2.128 . S
N109 C110 1.355 . S
N109 C112 1.311 . S
C110 N109 1.355 . S
C110 C111 1.363 . S
C110 H122 0.929 . S
C111 C110 1.363 . S
C111 N113 1.375 . S
C111 H129 0.931 . S
C112 N109 1.311 . S
C112 N113 1.347 . S
C112 H123 0.929 . S
N113 C111 1.375 . S
N113 C112 1.347 . S
C114 C117 1.365 . S
C114 N119 1.328 . S
C114 H120 0.929 . S
C115 C116 1.362 . S
C115 C118 1.378 . S
C115 H130 0.929 . S
C116 C115 1.362 . S
C116 C117 1.366 . S
C117 C114 1.365 . S
C117 C116 1.366 . S
C117 H131 0.930 . S
C118 C115 1.378 . S
C118 N119 1.315 . S
C118 H121 0.930 . S
N119 Co99 2.194 . S
N119 C114 1.328 . S
N119 C118 1.315 . S
H120 C114 0.929 . S
H121 C118 0.930 . S
H122 C110 0.929 . S
H123 C112 0.929 . S
O124 Co99 2.351 . S
O124 C127 1.244 . S
O125 Co99 2.155 . S
O125 C127 1.240 . S
O126 Co99 2.096 . S
O126 C107 1.247 . S
C127 O124 1.244 . S
C127 O125 1.240 . S
H128 C102 0.931 . S
H129 C111 0.931 . S
H130 C115 0.929 . S
H131 C117 0.930 . S
N14 N5 1.398 . S
N47 N38 1.391 . S
N71 N80 1.391 . S
N104 N113 1.398 . S
C94 C28 1.018 1_655 S
C127 C61 1.017 1_565 S
C41 C17 1.733 1_556 S
C83 C50 1.305 . S
C116 C74 1.733 . S
C107 C8 2.366 . S
