# Generated by pormake.
# Topology rkf, (6)-cn, num edge types: 1
# Building blocks:
#     Node 0, Type 0, BuildingBlock: BETDEL_clean_sbu_0, # of connection points: 6
#     Node 1, Type 0, BuildingBlock: BETDEL_clean_sbu_0, # of connection points: 6
#     Node 2, Type 0, BuildingBlock: BETDEL_clean_sbu_0, # of connection points: 6
#     Node 3, Type 0, BuildingBlock: BETDEL_clean_sbu_0, # of connection points: 6
#     Node 4, Type 0, BuildingBlock: BETDEL_clean_sbu_0, # of connection points: 6
#     Node 5, Type 0, BuildingBlock: BETDEL_clean_sbu_0, # of connection points: 6
#     Edge 6, Type (0, 0), BuildingBlock: EYOCIG_clean_linker_4, # of connection points: 2
#     Edge 7, Type (0, 0), BuildingBlock: EYOCIG_clean_linker_4, # of connection points: 2
#     Edge 8, Type (0, 0), BuildingBlock: EYOCIG_clean_linker_4, # of connection points: 2
#     Edge 9, Type (0, 0), BuildingBlock: EYOCIG_clean_linker_4, # of connection points: 2
#     Edge 10, Type (0, 0), BuildingBlock: EYOCIG_clean_linker_4, # of connection points: 2
#     Edge 11, Type (0, 0), BuildingBlock: EYOCIG_clean_linker_4, # of connection points: 2
#     Edge 12, Type (0, 0), BuildingBlock: EYOCIG_clean_linker_4, # of connection points: 2
#     Edge 13, Type (0, 0), BuildingBlock: EYOCIG_clean_linker_4, # of connection points: 2
#     Edge 14, Type (0, 0), BuildingBlock: EYOCIG_clean_linker_4, # of connection points: 2
#     Edge 15, Type (0, 0), BuildingBlock: EYOCIG_clean_linker_4, # of connection points: 2
#     Edge 16, Type (0, 0), BuildingBlock: EYOCIG_clean_linker_4, # of connection points: 2
#     Edge 17, Type (0, 0), BuildingBlock: EYOCIG_clean_linker_4, # of connection points: 2
#     Edge 18, Type (0, 0), BuildingBlock: EYOCIG_clean_linker_4, # of connection points: 2
#     Edge 19, Type (0, 0), BuildingBlock: EYOCIG_clean_linker_4, # of connection points: 2
#     Edge 20, Type (0, 0), BuildingBlock: EYOCIG_clean_linker_4, # of connection points: 2
#     Edge 21, Type (0, 0), BuildingBlock: EYOCIG_clean_linker_4, # of connection points: 2
#     Edge 22, Type (0, 0), BuildingBlock: EYOCIG_clean_linker_4, # of connection points: 2
#     Edge 23, Type (0, 0), BuildingBlock: EYOCIG_clean_linker_4, # of connection points: 2
# Relax obj value: 0.399
# Max RMSD: 0.269
# Mean RMSD: 0.269
data_MOF--net-rkf--node1-BETDEL_clean_sbu_0--edge1-EYOCIG_clean_linker_4
_symmetry_space_group_name_H-M    P1
_symmetry_Int_Tables_number       1
_symmetry_cell_setting            triclinic
loop_
_symmetry_equiv_pos_as_xyz
'x, y, z'
_cell_length_a     19.702059
_cell_length_b     19.707849
_cell_length_c     32.752649
_cell_angle_alpha  89.958616
_cell_angle_beta   90.073625
_cell_angle_gamma 120.02296
loop_
_atom_site_label
_atom_site_type_symbol
_atom_site_fract_x
_atom_site_fract_y
_atom_site_fract_z
_atom_type_partial_charge
Dy0 Dy 0.21461 0.00274 0.09183 0.0
C1 C 0.30158 0.26271 0.98294 0.0
C2 C 0.15655 0.88373 0.14768 0.0
Dy3 Dy 0.30375 0.16337 1.04098 0.0
O4 O 0.11628 0.89245 0.11895 0.0
O5 O 0.23002 0.93776 0.14465 0.0
O6 O 0.09888 -0.00954 0.07553 0.0
O7 O 0.19864 0.09981 0.07558 0.0
C8 C 0.12877 0.06265 0.0642 0.0
C9 C 0.39291 0.1037 0.06635 0.0
O10 O 0.30968 0.21146 0.1038 0.0
O11 O 0.27329 0.09482 0.13958 0.0
O12 O 0.36443 0.26138 0.99432 0.0
O13 O 0.2425 0.21339 1.00451 0.0
O14 O 0.42087 0.1783 0.05891 0.0
O15 O 0.32189 0.06499 1.0555 0.0
O16 O 0.21308 0.95404 1.02978 0.0
O17 O 0.25001 0.06961 0.99316 0.0
C18 C 0.29953 0.17114 0.13808 0.0
C19 C 0.22258 -0.00692 0.99515 0.0
Dy20 Dy 0.2334 0.22935 0.42476 0.0
C21 C 0.05955 0.31608 0.31621 0.0
C22 C 0.29397 0.17031 0.4804 0.0
Dy23 Dy 0.16202 0.31884 0.37392 0.0
O24 O 0.24534 0.1306 0.45143 0.0
O25 O 0.31332 0.24377 0.47769 0.0
O26 O 0.12858 0.11386 0.40944 0.0
O27 O 0.12041 0.21424 0.40901 0.0
C28 C 0.08661 0.14414 0.39813 0.0
C29 C 0.3115 0.40766 0.39859 0.0
O30 O 0.1206 0.32496 0.43691 0.0
O31 O 0.20175 0.28935 0.47246 0.0
O32 O 0.12332 0.37926 0.32772 0.0
O33 O 0.05077 0.25701 0.33744 0.0
O34 O 0.26508 0.4359 0.39115 0.0
O35 O 0.27856 0.33643 0.38811 0.0
O36 O 0.27971 0.22727 0.36254 0.0
O37 O 0.2014 0.26483 0.32602 0.0
C38 C 0.15142 0.31528 0.4711 0.0
C39 C 0.25019 0.23703 0.32794 0.0
Dy40 Dy 0.02916 0.24833 0.75782 0.0
C41 C 0.76783 0.07573 0.64959 0.0
C42 C 0.1488 0.30861 0.81343 0.0
Dy43 Dy 0.86785 0.17754 0.70746 0.0
O44 O 0.13881 0.25868 0.78504 0.0
O45 O 0.09572 0.32928 0.81019 0.0
O46 O 0.04044 0.1446 0.74095 0.0
O47 O 0.93131 0.13557 0.74189 0.0
C48 C -0.03216 0.10252 0.73017 0.0
C49 C 0.92904 0.32697 0.73226 0.0
O50 O 0.82024 0.13627 0.77048 0.0
O51 O 0.93781 0.2153 0.8059 0.0
O52 O 0.77082 0.14104 0.66016 0.0
O53 O 0.81565 0.06499 0.67198 0.0
O54 O 0.85424 0.28056 0.72507 0.0
O55 O -0.03285 0.29398 0.72155 0.0
O56 O 0.07728 0.29508 0.69568 0.0
O57 O -0.03889 0.21627 0.65949 0.0
C58 C 0.86127 0.166 0.80464 0.0
C59 C 0.03772 0.2652 0.66121 0.0
Dy60 Dy 0.80138 0.04259 0.09173 0.0
C61 C 0.71407 0.78283 0.98278 0.0
C62 C 0.85963 0.162 0.14735 0.0
Dy63 Dy 0.71184 0.88202 1.04082 0.0
O64 O 0.89994 0.1527 0.11893 0.0
O65 O 0.78605 0.10826 0.14416 0.0
O66 O 0.91697 0.05425 0.07585 0.0
O67 O 0.81686 0.94522 0.07564 0.0
C68 C 0.88678 -0.01792 0.06443 0.0
C69 C 0.62311 0.94215 0.06597 0.0
O70 O 0.70529 0.83368 0.10369 0.0
O71 O 0.74244 0.95047 0.13947 0.0
O72 O 0.65137 0.78478 0.99372 0.0
O73 O 0.77286 0.83131 1.00484 0.0
O74 O 0.59489 0.8675 0.05855 0.0
O75 O 0.69415 -0.01929 1.0552 0.0
O76 O 0.80373 0.09142 1.02955 0.0
O77 O 0.76616 -0.02433 0.99302 0.0
C78 C 0.71567 0.87404 0.13797 0.0
C79 C 0.7941 0.05227 0.99496 0.0
Dy80 Dy 0.78148 0.81606 0.42488 0.0
C81 C -0.0437 0.73057 0.31659 0.0
C82 C 0.72101 0.8752 0.48038 0.0
Dy83 Dy 0.85345 0.72701 0.37415 0.0
O84 O 0.76909 0.91469 0.4512 0.0
O85 O 0.70206 0.8018 0.47792 0.0
O86 O 0.88567 0.93185 0.40949 0.0
O87 O 0.89455 0.83188 0.4089 0.0
C88 C 0.92773 0.90192 0.3979 0.0
C89 C 0.70416 0.63769 0.39894 0.0
O90 O 0.89547 0.72151 0.43716 0.0
O91 O 0.81443 0.75711 0.47269 0.0
O92 O 0.89264 0.66717 0.32796 0.0
O93 O -0.03523 0.78944 0.33787 0.0
O94 O 0.75081 0.60973 0.3915 0.0
O95 O 0.7368 0.70887 0.3884 0.0
O96 O 0.73465 0.81739 0.36258 0.0
O97 O 0.81306 0.78003 0.32611 0.0
C98 C 0.86498 0.73146 0.47135 0.0
C99 C 0.76401 0.80752 0.32798 0.0
Dy100 Dy -0.01256 0.79593 0.7584 0.0
C101 C 0.24785 -0.02861 0.65006 0.0
C102 C 0.86789 0.73579 0.81397 0.0
Dy103 Dy 0.14848 0.8689 0.70782 0.0
O104 O 0.87742 0.78501 0.78524 0.0
O105 O 0.92135 0.71555 0.81106 0.0
O106 O -0.0258 0.89869 0.74206 0.0
O107 O 0.084 0.90942 0.74232 0.0
C108 C 0.04627 0.94136 0.73067 0.0
C109 C 0.08931 0.71954 0.73237 0.0
O110 O 0.19607 0.91053 0.77081 0.0
O111 O 0.07938 0.82914 0.80626 0.0
O112 O 0.24688 0.90735 0.66132 0.0
O113 O 0.1982 -0.01946 0.67165 0.0
O114 O 0.16388 0.76676 0.7251 0.0
O115 O 0.05031 0.75173 0.72185 0.0
O116 O 0.93934 0.74918 0.69617 0.0
O117 O 0.05495 0.82928 0.6599 0.0
C118 C 0.15562 0.87966 0.80496 0.0
C119 C -0.0215 0.77969 0.66168 0.0
C120 C -0.03213 -0.00579 1.00362 0.0
C121 C 0.91522 0.96718 1.02765 0.0
C122 C 0.04719 0.05069 1.00355 0.0
C123 C 0.10007 0.07771 1.02751 0.0
C124 C -0.00454 -0.01628 0.33723 0.0
C125 C -0.02928 0.93072 0.36105 0.0
C126 C 0.01688 0.06263 0.33754 0.0
C127 C 0.04253 0.11536 0.36155 0.0
C128 C 0.03261 0.00798 0.66915 0.0
C129 C 0.06027 -0.01663 0.69345 0.0
C130 C -0.02346 0.03129 0.66935 0.0
C131 C 0.95116 0.0581 0.69364 0.0
C132 C 0.27016 0.3142 0.91487 0.0
C133 C 0.29163 0.29457 0.94509 0.0
C134 C 0.23386 0.32277 0.87917 0.0
C135 C 0.19423 0.31824 0.84984 0.0
C136 C -0.02446 0.2842 0.24849 0.0
C137 C 0.01711 0.30608 0.27855 0.0
C138 C 0.93032 0.24746 0.21296 0.0
C139 C 0.89519 0.20758 0.18373 0.0
C140 C 0.71702 -0.00751 0.58152 0.0
C141 C 0.73662 0.03378 0.61167 0.0
C142 C 0.70822 0.94729 0.54594 0.0
C143 C 0.71236 0.91188 0.51668 0.0
C144 C 0.74625 0.73167 0.91488 0.0
C145 C 0.72449 0.75126 0.94497 0.0
C146 C 0.78282 0.72274 0.87944 0.0
C147 C 0.8225 0.72671 0.85029 0.0
C148 C 0.04057 0.76273 0.24904 0.0
C149 C -0.00104 0.74089 0.27903 0.0
C150 C 0.08578 0.79914 0.21349 0.0
C151 C 0.12088 0.83863 0.18416 0.0
C152 C 0.29894 0.05439 0.58197 0.0
C153 C 0.27945 0.01336 0.61221 0.0
C154 C 0.30746 0.09905 0.5462 0.0
C155 C 0.30297 0.13402 0.5168 0.0
C156 C 0.48374 0.0402 0.07527 0.0
C157 C 0.44214 0.06893 0.0712 0.0
C158 C 0.53302 0.00638 0.07519 0.0
C159 C 0.5742 -0.02278 0.07099 0.0
C160 C 0.46623 0.49792 0.40694 0.0
C161 C 0.39572 0.45657 0.40313 0.0
C162 C 0.54945 0.54712 0.40702 0.0
C163 C 0.61996 0.58852 0.40333 0.0
C164 C -0.00665 0.48177 0.74013 0.0
C165 C -0.03556 0.41126 0.73653 0.0
C166 C 0.02666 0.56491 0.74015 0.0
C167 C 0.05499 0.63536 0.7366 0.0
C168 C 0.30545 0.21956 0.21255 0.0
C169 C 0.30649 0.20705 0.17675 0.0
C170 C 0.29386 0.22291 0.25464 0.0
C171 C 0.27835 0.22691 0.28968 0.0
C172 C 0.10909 0.32014 0.54566 0.0
C173 C 0.12243 0.32167 0.50983 0.0
C174 C 0.09468 0.30835 0.58776 0.0
C175 C 0.07562 0.29311 0.62286 0.0
C176 C 0.81332 0.12456 0.87931 0.0
C177 C 0.82566 0.13773 0.84347 0.0
C178 C 0.80969 0.11007 0.9215 0.0
C179 C 0.8051 0.09077 0.95664 0.0
C180 C 0.70884 0.82506 0.21246 0.0
C181 C 0.70819 0.83789 0.17666 0.0
C182 C 0.72013 0.82143 0.2546 0.0
C183 C 0.73568 0.8175 0.28967 0.0
C184 C 0.90757 0.72649 0.54593 0.0
C185 C 0.89413 0.72509 0.51009 0.0
C186 C 0.92168 0.73755 0.58811 0.0
C187 C 0.94047 0.7521 0.6233 0.0
C188 C 0.204 0.92086 0.87962 0.0
C189 C 0.19139 0.90792 0.84377 0.0
C190 C 0.20769 0.93523 0.9218 0.0
C191 C 0.21201 0.95458 0.9569 0.0
loop_
_geom_bond_atom_site_label_1
_geom_bond_atom_site_label_2
_geom_bond_distance
_geom_bond_site_symmetry_2
_ccdc_geom_bond_type
Dy0 O4 2.398 . S
Dy0 O5 2.491 . S
Dy0 O6 2.403 1_565 S
Dy0 O7 2.664 1_564 S
Dy0 O11 2.326 1_565 S
Dy0 O15 2.310 1_565 S
Dy0 O16 2.351 1_554 S
C1 O12 1.185 . S
C1 O13 1.355 . S
C2 O4 1.185 . S
C2 O5 1.355 . S
Dy3 O7 2.310 . S
Dy3 O10 2.351 1_556 S
Dy3 O12 2.398 . S
Dy3 O13 2.491 . S
Dy3 O14 2.403 . S
Dy3 O15 2.664 1_556 S
Dy3 O17 2.326 . S
O4 Dy0 2.398 . S
O4 C2 1.185 . S
O5 Dy0 2.491 . S
O5 C2 1.355 . S
O6 Dy0 2.403 1_545 S
O6 C8 1.254 . S
O7 Dy0 2.664 1_546 S
O7 Dy3 2.310 . S
O7 C8 1.268 1_556 S
C8 O6 1.254 . S
C8 O7 1.268 1_554 S
C9 O14 1.254 1_554 S
C9 O15 1.268 . S
O10 Dy3 2.351 1_554 S
O10 C18 1.249 . S
O11 Dy0 2.326 1_545 S
O11 C18 1.267 . S
O12 C1 1.185 . S
O12 Dy3 2.398 . S
O13 C1 1.355 . S
O13 Dy3 2.491 . S
O14 Dy3 2.403 . S
O14 C9 1.254 1_556 S
O15 Dy0 2.310 1_545 S
O15 Dy3 2.664 1_554 S
O15 C9 1.268 . S
O16 Dy0 2.351 1_556 S
O16 C19 1.249 1_565 S
O17 Dy3 2.326 . S
O17 C19 1.267 . S
C18 O10 1.249 . S
C18 O11 1.267 . S
C19 O16 1.249 1_545 S
C19 O17 1.267 . S
Dy20 O24 2.398 . S
Dy20 O25 2.491 . S
Dy20 O26 2.403 . S
Dy20 O27 2.664 . S
Dy20 O31 2.326 . S
Dy20 O35 2.310 . S
Dy20 O36 2.351 . S
C21 O32 1.185 . S
C21 O33 1.355 . S
C22 O24 1.185 . S
C22 O25 1.355 . S
Dy23 O27 2.310 . S
Dy23 O30 2.351 . S
Dy23 O32 2.398 . S
Dy23 O33 2.491 . S
Dy23 O34 2.403 . S
Dy23 O35 2.664 . S
Dy23 O37 2.326 . S
O24 Dy20 2.398 . S
O24 C22 1.185 . S
O25 Dy20 2.491 . S
O25 C22 1.355 . S
O26 Dy20 2.403 . S
O26 C28 1.254 . S
O27 Dy20 2.664 . S
O27 Dy23 2.310 . S
O27 C28 1.268 . S
C28 O26 1.254 . S
C28 O27 1.268 . S
C29 O34 1.254 . S
C29 O35 1.268 . S
O30 Dy23 2.351 . S
O30 C38 1.249 . S
O31 Dy20 2.326 . S
O31 C38 1.267 . S
O32 C21 1.185 . S
O32 Dy23 2.398 . S
O33 C21 1.355 . S
O33 Dy23 2.491 . S
O34 Dy23 2.403 . S
O34 C29 1.254 . S
O35 Dy20 2.310 . S
O35 Dy23 2.664 . S
O35 C29 1.268 . S
O36 Dy20 2.351 . S
O36 C39 1.249 . S
O37 Dy23 2.326 . S
O37 C39 1.267 . S
C38 O30 1.249 . S
C38 O31 1.267 . S
C39 O36 1.249 . S
C39 O37 1.267 . S
Dy40 O44 2.398 . S
Dy40 O45 2.491 . S
Dy40 O46 2.403 . S
Dy40 O47 2.664 1_455 S
Dy40 O51 2.326 1_455 S
Dy40 O55 2.310 . S
Dy40 O56 2.351 . S
C41 O52 1.185 . S
C41 O53 1.355 . S
C42 O44 1.185 . S
C42 O45 1.355 . S
Dy43 O47 2.310 . S
Dy43 O50 2.351 . S
Dy43 O52 2.398 . S
Dy43 O53 2.491 . S
Dy43 O54 2.403 . S
Dy43 O55 2.664 1_655 S
Dy43 O57 2.326 1_655 S
O44 Dy40 2.398 . S
O44 C42 1.185 . S
O45 Dy40 2.491 . S
O45 C42 1.355 . S
O46 Dy40 2.403 . S
O46 C48 1.254 . S
O47 Dy40 2.664 1_655 S
O47 Dy43 2.310 . S
O47 C48 1.268 1_655 S
C48 O46 1.254 . S
C48 O47 1.268 1_455 S
C49 O54 1.254 . S
C49 O55 1.268 1_655 S
O50 Dy43 2.351 . S
O50 C58 1.249 . S
O51 Dy40 2.326 1_655 S
O51 C58 1.267 . S
O52 C41 1.185 . S
O52 Dy43 2.398 . S
O53 C41 1.355 . S
O53 Dy43 2.491 . S
O54 Dy43 2.403 . S
O54 C49 1.254 . S
O55 Dy40 2.310 . S
O55 Dy43 2.664 1_455 S
O55 C49 1.268 1_455 S
O56 Dy40 2.351 . S
O56 C59 1.249 . S
O57 Dy43 2.326 1_455 S
O57 C59 1.267 . S
C58 O50 1.249 . S
C58 O51 1.267 . S
C59 O56 1.249 . S
C59 O57 1.267 . S
Dy60 O64 2.398 . S
Dy60 O65 2.491 . S
Dy60 O66 2.403 . S
Dy60 O67 2.664 1_544 S
Dy60 O71 2.326 1_545 S
Dy60 O75 2.310 . S
Dy60 O76 2.351 1_554 S
C61 O72 1.185 . S
C61 O73 1.355 . S
C62 O64 1.185 . S
C62 O65 1.355 . S
Dy63 O67 2.310 . S
Dy63 O70 2.351 1_556 S
Dy63 O72 2.398 . S
Dy63 O73 2.491 . S
Dy63 O74 2.403 . S
Dy63 O75 2.664 1_566 S
Dy63 O77 2.326 1_565 S
O64 Dy60 2.398 . S
O64 C62 1.185 . S
O65 Dy60 2.491 . S
O65 C62 1.355 . S
O66 Dy60 2.403 . S
O66 C68 1.254 . S
O67 Dy60 2.664 1_566 S
O67 Dy63 2.310 . S
O67 C68 1.268 1_566 S
C68 O66 1.254 . S
C68 O67 1.268 1_544 S
C69 O74 1.254 1_554 S
C69 O75 1.268 1_565 S
O70 Dy63 2.351 1_554 S
O70 C78 1.249 . S
O71 Dy60 2.326 1_565 S
O71 C78 1.267 . S
O72 C61 1.185 . S
O72 Dy63 2.398 . S
O73 C61 1.355 . S
O73 Dy63 2.491 . S
O74 Dy63 2.403 . S
O74 C69 1.254 1_556 S
O75 Dy60 2.310 . S
O75 Dy63 2.664 1_544 S
O75 C69 1.268 1_545 S
O76 Dy60 2.351 1_556 S
O76 C79 1.249 . S
O77 Dy63 2.326 1_545 S
O77 C79 1.267 . S
C78 O70 1.249 . S
C78 O71 1.267 . S
C79 O76 1.249 . S
C79 O77 1.267 . S
Dy80 O84 2.398 . S
Dy80 O85 2.491 . S
Dy80 O86 2.403 . S
Dy80 O87 2.664 . S
Dy80 O91 2.326 . S
Dy80 O95 2.310 . S
Dy80 O96 2.351 . S
C81 O92 1.185 . S
C81 O93 1.355 . S
C82 O84 1.185 . S
C82 O85 1.355 . S
Dy83 O87 2.310 . S
Dy83 O90 2.351 . S
Dy83 O92 2.398 . S
Dy83 O93 2.491 . S
Dy83 O94 2.403 . S
Dy83 O95 2.664 . S
Dy83 O97 2.326 . S
O84 Dy80 2.398 . S
O84 C82 1.185 . S
O85 Dy80 2.491 . S
O85 C82 1.355 . S
O86 Dy80 2.403 . S
O86 C88 1.254 . S
O87 Dy80 2.664 . S
O87 Dy83 2.310 . S
O87 C88 1.268 . S
C88 O86 1.254 . S
C88 O87 1.268 . S
C89 O94 1.254 . S
C89 O95 1.268 . S
O90 Dy83 2.351 . S
O90 C98 1.249 . S
O91 Dy80 2.326 . S
O91 C98 1.267 . S
O92 C81 1.185 . S
O92 Dy83 2.398 . S
O93 C81 1.355 . S
O93 Dy83 2.491 . S
O94 Dy83 2.403 . S
O94 C89 1.254 . S
O95 Dy80 2.310 . S
O95 Dy83 2.664 . S
O95 C89 1.268 . S
O96 Dy80 2.351 . S
O96 C99 1.249 . S
O97 Dy83 2.326 . S
O97 C99 1.267 . S
C98 O90 1.249 . S
C98 O91 1.267 . S
C99 O96 1.249 . S
C99 O97 1.267 . S
Dy100 O104 2.401 . S
Dy100 O105 2.490 . S
Dy100 O106 2.406 1_655 S
Dy100 O107 2.662 1_655 S
Dy100 O111 2.322 1_655 S
Dy100 O115 2.304 1_655 S
Dy100 O116 2.352 . S
C101 O112 1.185 . S
C101 O113 1.355 . S
C102 O104 1.185 . S
C102 O105 1.355 . S
Dy103 O107 2.310 . S
Dy103 O110 2.351 . S
Dy103 O112 2.398 . S
Dy103 O113 2.491 . S
Dy103 O114 2.403 . S
Dy103 O115 2.664 . S
Dy103 O117 2.326 . S
O104 Dy100 2.401 . S
O104 C102 1.185 . S
O105 Dy100 2.490 . S
O105 C102 1.355 . S
O106 Dy100 2.406 1_455 S
O106 C108 1.254 . S
O107 Dy100 2.662 1_455 S
O107 Dy103 2.310 . S
O107 C108 1.268 . S
C108 O106 1.254 . S
C108 O107 1.268 . S
C109 O114 1.254 . S
C109 O115 1.268 . S
O110 Dy103 2.351 . S
O110 C118 1.249 . S
O111 Dy100 2.322 1_455 S
O111 C118 1.267 . S
O112 C101 1.185 . S
O112 Dy103 2.398 . S
O113 C101 1.355 . S
O113 Dy103 2.491 . S
O114 Dy103 2.403 . S
O114 C109 1.254 . S
O115 Dy100 2.304 1_455 S
O115 Dy103 2.664 . S
O115 C109 1.268 . S
O116 Dy100 2.352 . S
O116 C119 1.249 1_655 S
O117 Dy103 2.326 . S
O117 C119 1.267 . S
C118 O110 1.249 . S
C118 O111 1.267 . S
C119 O116 1.249 1_455 S
C119 O117 1.267 . S
C120 C121 1.170 1_445 S
C120 C122 1.380 . S
C121 C120 1.170 1_665 S
C122 C120 1.380 . S
C122 C123 1.170 . S
C123 C122 1.170 . S
C124 C125 1.170 1_545 S
C124 C126 1.380 . S
C125 C124 1.170 1_565 S
C126 C124 1.380 . S
C126 C127 1.170 . S
C127 C126 1.170 . S
C128 C129 1.170 . S
C128 C130 1.380 . S
C129 C128 1.170 . S
C130 C128 1.380 . S
C130 C131 1.170 1_455 S
C131 C130 1.170 1_655 S
C132 C133 1.170 . S
C132 C134 1.380 . S
C133 C132 1.170 . S
C134 C132 1.380 . S
C134 C135 1.170 . S
C135 C134 1.170 . S
C136 C137 1.170 . S
C136 C138 1.380 1_455 S
C137 C136 1.170 . S
C138 C136 1.380 1_655 S
C138 C139 1.170 . S
C139 C138 1.170 . S
C140 C141 1.170 . S
C140 C142 1.380 1_545 S
C141 C140 1.170 . S
C142 C140 1.380 1_565 S
C142 C143 1.170 . S
C143 C142 1.170 . S
C144 C145 1.170 . S
C144 C146 1.380 . S
C145 C144 1.170 . S
C146 C144 1.380 . S
C146 C147 1.170 . S
C147 C146 1.170 . S
C148 C149 1.170 . S
C148 C150 1.380 . S
C149 C148 1.170 . S
C150 C148 1.380 . S
C150 C151 1.170 . S
C151 C150 1.170 . S
C152 C153 1.170 . S
C152 C154 1.380 . S
C153 C152 1.170 . S
C154 C152 1.380 . S
C154 C155 1.170 . S
C155 C154 1.170 . S
C156 C157 1.170 . S
C156 C158 1.380 . S
C157 C156 1.170 . S
C158 C156 1.380 . S
C158 C159 1.170 . S
C159 C158 1.170 . S
C160 C161 1.170 . S
C160 C162 1.380 . S
C161 C160 1.170 . S
C162 C160 1.380 . S
C162 C163 1.170 . S
C163 C162 1.170 . S
C164 C165 1.170 . S
C164 C166 1.380 . S
C165 C164 1.170 . S
C166 C164 1.380 . S
C166 C167 1.170 . S
C167 C166 1.170 . S
C168 C169 1.170 . S
C168 C170 1.380 . S
C169 C168 1.170 . S
C170 C168 1.380 . S
C170 C171 1.170 . S
C171 C170 1.170 . S
C172 C173 1.170 . S
C172 C174 1.380 . S
C173 C172 1.170 . S
C174 C172 1.380 . S
C174 C175 1.170 . S
C175 C174 1.170 . S
C176 C177 1.170 . S
C176 C178 1.380 . S
C177 C176 1.170 . S
C178 C176 1.380 . S
C178 C179 1.170 . S
C179 C178 1.170 . S
C180 C181 1.170 . S
C180 C182 1.380 . S
C181 C180 1.170 . S
C182 C180 1.380 . S
C182 C183 1.170 . S
C183 C182 1.170 . S
C184 C185 1.170 . S
C184 C186 1.380 . S
C185 C184 1.170 . S
C186 C184 1.380 . S
C186 C187 1.170 . S
C187 C186 1.170 . S
C188 C189 1.170 . S
C188 C190 1.380 . S
C189 C188 1.170 . S
C190 C188 1.380 . S
C190 C191 1.170 . S
C191 C190 1.170 . S
C121 C68 0.919 1_565 S
C123 C8 0.920 . S
C125 C88 0.890 1_455 S
C127 C28 0.947 . S
C129 C108 0.861 1_545 S
C131 C48 0.971 1_655 S
C133 C1 1.466 . S
C135 C42 1.397 . S
C137 C21 1.449 . S
C139 C62 1.425 . S
C141 C41 1.421 . S
C143 C82 1.389 . S
C145 C61 1.464 . S
C147 C102 1.380 . S
C149 C81 1.417 1_455 S
C151 C2 1.428 . S
C153 C101 1.414 1_545 S
C155 C22 1.403 . S
C157 C9 1.268 . S
C159 C69 1.265 1_545 S
C161 C29 1.248 . S
C163 C89 1.246 . S
C165 C49 1.247 1_455 S
C167 C109 1.255 . S
C169 C18 2.012 . S
C171 C39 2.038 . S
C173 C38 2.003 . S
C175 C59 2.045 . S
C177 C58 1.986 . S
C179 C79 2.039 . S
C181 C78 2.009 . S
C183 C99 2.031 . S
C185 C98 1.989 . S
C187 C119 2.029 1_655 S
C189 C118 2.012 . S
C191 C19 2.036 1_565 S
